
#######################################################################
#
#                 Cambridge Crystallographic Data Centre
#                                CCDC 
#
#######################################################################
#
# If this CIF has been generated from an entry in the Cambridge 
# Structural Database, then it will include bibliographic, chemical, 
# crystal, experimental, refinement or atomic coordinate data resulting 
# from the CCDC's data processing and validation procedures.
#
#######################################################################

data_GIZWAO
_symmetry_cell_setting           triclinic
_symmetry_space_group_name_H-M   'P -1'
_symmetry_Int_Tables_number      2
_space_group_name_Hall           '-P 1'
loop_
_symmetry_equiv_pos_site_id
_symmetry_equiv_pos_as_xyz
1 x,y,z
2 -x,-y,-z
_cell_length_a                   7.8341(3)
_cell_length_b                   11.8843(5)
_cell_length_c                   17.5342(8)
_cell_angle_alpha                94.0870(10)
_cell_angle_beta                 94.6990(10)
_cell_angle_gamma                91.9950(10)
_cell_volume                     1621.5
loop_
_atom_site_label
_atom_site_type_symbol
_atom_site_fract_x
_atom_site_fract_y
_atom_site_fract_z
Eu1 Eu 0.22011(4) 0.41156(3) 0.243838(19)
O1 O 0.3589(6) 0.3689(4) 0.1271(3)
O2 O 0.1251(6) 0.2658(4) 0.1294(3)
O3 O 0.3225(6) 0.3427(4) 0.3739(3)
O4 O 0.3407(6) 0.2286(3) 0.2701(3)
O5 O 0.5067(5) -0.5007(3) 0.2776(3)
O6 O 0.3348(5) -0.3991(3) 0.2087(3)
O7 O 0.1386(6) 0.5431(4) 0.3400(2)
O8 O -0.0190(5) 0.3083(3) 0.2847(3)
O9 O -0.0138(5) 0.4957(4) 0.1762(3)
S1 S 0.0257(2) 0.07122(15) 0.03959(11)
S2 S 0.3300(2) -0.16788(13) 0.24380(10)
S3 S 0.3306(2) 0.00434(13) 0.25599(10)
S4 S 0.1686(2) 0.55172(14) 0.42772(10)
S5 S -0.0397(3) 0.52072(16) 0.09296(11)
S6 S -0.0989(2) 0.19285(14) 0.25612(11)
N1 N 0.2772(7) 0.0455(5) -0.0532(3)
N2 N 0.6641(7) -0.1121(4) 0.2685(3)
N3 N 0.3021(9) -0.0558(5) 0.3986(4)
C1 C 0.2242(8) 0.1106(5) 0.0048(3)
C2 C 0.3219(8) 0.2071(5) 0.0393(4)
C3 C 0.4737(9) 0.2310(6) 0.0105(4)
H1 H 0.5387 0.2950 0.0302
C4 C 0.5344(10) 0.1612(6) -0.0483(4)
H2 H 0.6413 0.1743 -0.0661
C5 C 0.4272(9) 0.0724(6) -0.0780(4)
H3 H 0.4628 0.0275 -0.1189
C6 C 0.2613(8) 0.2856(5) 0.1025(4)
C7 C 0.3177(8) 0.0328(5) 0.3561(4)
C8 C 0.3186(8) 0.1447(5) 0.3879(4)
C9 C 0.2976(10) 0.1627(6) 0.4661(4)
H4 H 0.2979 0.2361 0.4885
C10 C 0.2763(13) 0.0727(7) 0.5101(5)
H5 H 0.2584 0.0830 0.5619
C11 C 0.2829(15) -0.0339(8) 0.4735(5)
H6 H 0.2733 -0.0952 0.5032
C12 C 0.3330(8) 0.2449(5) 0.3411(4)
C13 C 0.5506(7) -0.1987(5) 0.2587(3)
C14 C 0.5971(7) -0.3104(5) 0.2616(3)
C15 C 0.7738(8) -0.3317(5) 0.2732(4)
H7 H 0.8101 -0.4052 0.2749
C16 C 0.8906(8) -0.2420(6) 0.2820(4)
H8 H 1.0069 -0.2537 0.2915
C17 C 0.8339(9) -0.1364(6) 0.2766(5)
H9 H 0.9149 -0.0769 0.2785
C18 C 0.4714(8) -0.4092(5) 0.2480(4)
C19 C 0.0408(10) 0.6659(6) 0.4588(4)
H10 H -0.0783 0.6424 0.4515
H11 H 0.0608 0.7293 0.4292
H12 H 0.0714 0.6872 0.5121
C20 C 0.3707(9) 0.6212(7) 0.4480(4)
H13 H 0.4584 0.5709 0.4344
H14 H 0.3874 0.6443 0.5018
H15 H 0.3765 0.6865 0.4189
C21 C -0.2689(11) 0.5317(8) 0.0746(6)
H16 H -0.3242 0.4584 0.0750
H17 H -0.2938 0.5607 0.0253
H18 H -0.3105 0.5818 0.1137
C22 C 0.0193(11) 0.6655(7) 0.0886(5)
H19 H 0.1417 0.6759 0.0971
H20 H -0.0336 0.7097 0.1274
H21 H -0.0181 0.6892 0.0390
C23 C -0.2307(10) 0.1582(6) 0.3318(5)
H22 H -0.1587 0.1411 0.3761
H23 H -0.3048 0.0937 0.3145
H24 H -0.2987 0.2212 0.3449
C24 C -0.2689(11) 0.2190(8) 0.1861(5)
H25 H -0.2216 0.2393 0.1399
H26 H -0.3348 0.2795 0.2056
H27 H -0.3415 0.1520 0.1752
Eu1A Eu -0.22011(4) -0.41156(3) -0.243838(19)
Eu1_2 Eu 0.22011(4) -0.58844(3) 0.243838(19)
Eu1_3 Eu 0.22011(4) 1.41156(3) 0.243838(19)
O1A O -0.3589(6) -0.3689(4) -0.1271(3)
O2A O -0.1251(6) -0.2658(4) -0.1294(3)
O3_2 O 0.3225(6) 1.3427(4) 0.3739(3)
O3A O -0.3225(6) -0.3427(4) -0.3739(3)
O4_2 O 0.3407(6) 1.2286(3) 0.2701(3)
O4A O -0.3407(6) -0.2286(3) -0.2701(3)
O5_2 O 0.5067(5) 0.4993(3) 0.2776(3)
O5A O -0.5067(5) -0.4993(3) -0.2776(3)
O6_2 O 0.3348(5) 0.6009(3) 0.2087(3)
O6A O -0.3348(5) -0.6009(3) -0.2087(3)
O7A O -0.1386(6) -0.5431(4) -0.3400(2)
O8A O 0.0190(5) -0.3083(3) -0.2847(3)
O9A O 0.0138(5) -0.4957(4) -0.1762(3)
S1A S -0.0257(2) -0.07122(15) -0.03959(11)
S2_2 S 0.3300(2) 0.83212(13) 0.24380(10)
S3_2 S 0.3306(2) 1.00434(13) 0.25599(10)
S4A S -0.1686(2) -0.55172(14) -0.42772(10)
S5A S 0.0397(3) -0.52072(16) -0.09296(11)
S6A S 0.0989(2) -0.19285(14) -0.25612(11)
N1A N -0.2772(7) -0.0455(5) 0.0532(3)
N2_2 N 0.6641(7) 0.8879(4) 0.2685(3)
N3_2 N 0.3021(9) 0.9442(5) 0.3986(4)
C1A C -0.2242(8) -0.1106(5) -0.0048(3)
C2A C -0.3219(8) -0.2071(5) -0.0393(4)
C3A C -0.4737(9) -0.2310(6) -0.0105(4)
H1A H -0.5387 -0.2950 -0.0302
C4A C -0.5344(10) -0.1612(6) 0.0483(4)
H2A H -0.6413 -0.1743 0.0661
C5A C -0.4272(9) -0.0724(6) 0.0780(4)
H3A H -0.4628 -0.0275 0.1189
C6A C -0.2613(8) -0.2856(5) -0.1025(4)
C7_2 C 0.3177(8) 1.0328(5) 0.3561(4)
C8_2 C 0.3186(8) 1.1447(5) 0.3879(4)
C9_2 C 0.2976(10) 1.1627(6) 0.4661(4)
H4_2 H 0.2979 1.2361 0.4885
C10_2 C 0.2763(13) 1.0727(7) 0.5101(5)
H5_2 H 0.2584 1.0830 0.5619
C11_2 C 0.2829(15) 0.9661(8) 0.4735(5)
H6_2 H 0.2733 0.9048 0.5032
C12_2 C 0.3330(8) 1.2449(5) 0.3411(4)
C13_2 C 0.5506(7) 0.8013(5) 0.2587(3)
C14_2 C 0.5971(7) 0.6896(5) 0.2616(3)
C15_2 C 0.7738(8) 0.6683(5) 0.2732(4)
H7_2 H 0.8101 0.5948 0.2749
C16_2 C 0.8906(8) 0.7580(6) 0.2820(4)
H8_2 H 1.0069 0.7463 0.2915
C17_2 C 0.8339(9) 0.8636(6) 0.2766(5)
H9_2 H 0.9149 0.9231 0.2785
C18_2 C 0.4714(8) 0.5908(5) 0.2480(4)
C19A C -0.0408(10) -0.6659(6) -0.4588(4)
H10A H 0.0783 -0.6424 -0.4515
H11A H -0.0608 -0.7293 -0.4292
H12A H -0.0714 -0.6872 -0.5121
C20A C -0.3707(9) -0.6212(7) -0.4480(4)
H13A H -0.4584 -0.5709 -0.4344
H14A H -0.3874 -0.6443 -0.5018
H15A H -0.3765 -0.6865 -0.4189
C21A C 0.2689(11) -0.5317(8) -0.0746(6)
H16A H 0.3242 -0.4584 -0.0750
H17A H 0.2938 -0.5607 -0.0253
H18A H 0.3105 -0.5818 -0.1137
C22A C -0.0193(11) -0.6655(7) -0.0886(5)
H19A H -0.1417 -0.6759 -0.0971
H20A H 0.0336 -0.7097 -0.1274
H21A H 0.0181 -0.6892 -0.0390
C23A C 0.2307(10) -0.1582(6) -0.3318(5)
H22A H 0.1587 -0.1411 -0.3761
H23A H 0.3048 -0.0937 -0.3145
H24A H 0.2987 -0.2212 -0.3449
C24A C 0.2689(11) -0.2190(8) -0.1861(5)
H25A H 0.2216 -0.2393 -0.1399
H26A H 0.3348 -0.2795 -0.2056
H27A H 0.3415 -0.1520 -0.1752
O10 O 0.7661(8) 0.4350(5) 0.3863(3)
H28 H 0.791(13) 0.398(7) 0.343(3)
H29 H 0.659(9) 0.457(17) 0.386(13)
loop_
_geom_bond_atom_site_label_1
_geom_bond_atom_site_label_2
_geom_bond_site_symmetry_1
_geom_bond_site_symmetry_2
Eu1 O1 1_555 1_555
O1 C6 1_555 1_555
O2 Eu1 1_555 1_555
O3 Eu1 1_555 1_555
O4 Eu1 1_555 1_555
O5 C18 1_555 1_555
O6 C18 1_555 1_555
O7 Eu1 1_555 1_555
O8 Eu1 1_555 1_555
O9 Eu1 1_555 1_555
S1 C1 1_555 1_555
S2 S3 1_555 1_555
S3 C7 1_555 1_555
S4 O7 1_555 1_555
S5 O9 1_555 1_555
S6 O8 1_555 1_555
N1 C1 1_555 1_555
N2 C13 1_555 1_555
N3 C7 1_555 1_555
C1 C2 1_555 1_555
C2 C3 1_555 1_555
C3 H1 1_555 1_555
C4 C3 1_555 1_555
H2 C4 1_555 1_555
C5 N1 1_555 1_555
H3 C5 1_555 1_555
C6 O2 1_555 1_555
C7 C8 1_555 1_555
C8 C9 1_555 1_555
C9 H4 1_555 1_555
C10 C9 1_555 1_555
H5 C10 1_555 1_555
C11 N3 1_555 1_555
H6 C11 1_555 1_555
C12 O3 1_555 1_555
C13 S2 1_555 1_555
C14 C13 1_555 1_555
C15 C14 1_555 1_555
H7 C15 1_555 1_555
C16 C15 1_555 1_555
H8 C16 1_555 1_555
C17 N2 1_555 1_555
H9 C17 1_555 1_555
C18 C14 1_555 1_555
C19 S4 1_555 1_555
H10 C19 1_555 1_555
H11 C19 1_555 1_555
H12 C19 1_555 1_555
C20 S4 1_555 1_555
H13 C20 1_555 1_555
H14 C20 1_555 1_555
H15 C20 1_555 1_555
C21 S5 1_555 1_555
H16 C21 1_555 1_555
H17 C21 1_555 1_555
H18 C21 1_555 1_555
C22 S5 1_555 1_555
H19 C22 1_555 1_555
H20 C22 1_555 1_555
H21 C22 1_555 1_555
C23 S6 1_555 1_555
H22 C23 1_555 1_555
H23 C23 1_555 1_555
H24 C23 1_555 1_555
C24 S6 1_555 1_555
H25 C24 1_555 1_555
H26 C24 1_555 1_555
H27 C24 1_555 1_555
O10 H28 1_555 1_555
H29 O10 1_555 1_555
Eu1A O1A 1_555 1_555
Eu1_2 O5 1_555 1_555
Eu1_3 O3_2 1_555 1_555
O1A C6A 1_555 1_555
O2A Eu1A 1_555 1_555
O3_2 C12_2 1_555 1_555
O3A Eu1A 1_555 1_555
O4_2 Eu1_3 1_555 1_555
O4A Eu1A 1_555 1_555
O5_2 Eu1 1_555 1_555
O5A Eu1A 1_555 1_555
O6_2 Eu1 1_555 1_555
O6A Eu1A 1_555 1_555
O7A Eu1A 1_555 1_555
O8A Eu1A 1_555 1_555
O9A Eu1A 1_555 1_555
S1A S1 1_555 1_555
S2_2 S3_2 1_555 1_555
S3_2 C7_2 1_555 1_555
S4A O7A 1_555 1_555
S5A O9A 1_555 1_555
S6A O8A 1_555 1_555
N1A C1A 1_555 1_555
N2_2 C13_2 1_555 1_555
N3_2 C7_2 1_555 1_555
C1A S1A 1_555 1_555
C2A C1A 1_555 1_555
C3A C2A 1_555 1_555
H1A C3A 1_555 1_555
C4A C3A 1_555 1_555
H2A C4A 1_555 1_555
C5A N1A 1_555 1_555
H3A C5A 1_555 1_555
C6A O2A 1_555 1_555
C7_2 C8_2 1_555 1_555
C8_2 C9_2 1_555 1_555
C9_2 H4_2 1_555 1_555
C10_2 C9_2 1_555 1_555
H5_2 C10_2 1_555 1_555
C11_2 N3_2 1_555 1_555
H6_2 C11_2 1_555 1_555
C12_2 O4_2 1_555 1_555
C13_2 S2_2 1_555 1_555
C14_2 C13_2 1_555 1_555
C15_2 C14_2 1_555 1_555
H7_2 C15_2 1_555 1_555
C16_2 C15_2 1_555 1_555
H8_2 C16_2 1_555 1_555
C17_2 N2_2 1_555 1_555
H9_2 C17_2 1_555 1_555
C18_2 O5_2 1_555 1_555
C19A S4A 1_555 1_555
H10A C19A 1_555 1_555
H11A C19A 1_555 1_555
H12A C19A 1_555 1_555
C20A S4A 1_555 1_555
H13A C20A 1_555 1_555
H14A C20A 1_555 1_555
H15A C20A 1_555 1_555
C21A S5A 1_555 1_555
H16A C21A 1_555 1_555
H17A C21A 1_555 1_555
H18A C21A 1_555 1_555
C22A S5A 1_555 1_555
H19A C22A 1_555 1_555
H20A C22A 1_555 1_555
H21A C22A 1_555 1_555
C23A S6A 1_555 1_555
H22A C23A 1_555 1_555
H23A C23A 1_555 1_555
H24A C23A 1_555 1_555
C24A S6A 1_555 1_555
H25A C24A 1_555 1_555
H26A C24A 1_555 1_555
H27A C24A 1_555 1_555
O4 C12 1_555 1_555
O6 Eu1_2 1_555 1_555
C2 C6 1_555 1_555
C4 C5 1_555 1_555
C8 C12 1_555 1_555
C10 C11 1_555 1_555
C16 C17 1_555 1_555
O6_2 C18_2 1_555 1_555
C2A C6A 1_555 1_555
C4A C5A 1_555 1_555
C8_2 C12_2 1_555 1_555
C10_2 C11_2 1_555 1_555
C14_2 C18_2 1_555 1_555
C16_2 C17_2 1_555 1_555

#END
