
#######################################################################
#
#                 Cambridge Crystallographic Data Centre
#                                CCDC 
#
#######################################################################
#
# If this CIF has been generated from an entry in the Cambridge 
# Structural Database, then it will include bibliographic, chemical, 
# crystal, experimental, refinement or atomic coordinate data resulting 
# from the CCDC's data processing and validation procedures.
#
#######################################################################

data_GIZXIX
_symmetry_cell_setting           monoclinic
_symmetry_space_group_name_H-M   'P 21/n'
_symmetry_Int_Tables_number      14
_space_group_name_Hall           '-P 2yn'
loop_
_symmetry_equiv_pos_site_id
_symmetry_equiv_pos_as_xyz
1 x,y,z
2 1/2-x,1/2+y,1/2-z
3 -x,-y,-z
4 1/2+x,1/2-y,1/2+z
_cell_length_a                   9.6712(2)
_cell_length_b                   26.8053(4)
_cell_length_c                   13.5499(2)
_cell_angle_alpha                90
_cell_angle_beta                 92.7680(10)
_cell_angle_gamma                90
_cell_volume                     3508.57
loop_
_atom_site_label
_atom_site_type_symbol
_atom_site_fract_x
_atom_site_fract_y
_atom_site_fract_z
Zn1 Zn 0.53235(2) 0.489481(9) 0.828072(17)
C1 C 0.4071(3) 0.53187(10) 0.62270(18)
H1 H 0.4469 0.5620 0.6427
C2 C 0.3312(3) 0.53005(12) 0.5338(2)
H2 H 0.3183 0.5585 0.4952
C3 C 0.2753(3) 0.48533(12) 0.5037(2)
H3 H 0.2239 0.4831 0.4440
C4 C 0.2954(3) 0.44356(10) 0.56183(17)
H4 H 0.2596 0.4128 0.5416
C5 C 0.3702(2) 0.44834(8) 0.65138(15)
C6 C 0.3917(2) 0.40599(8) 0.72144(15)
C7 C 0.3262(2) 0.36008(9) 0.70827(18)
H5 H 0.2674 0.3544 0.6531
C8 C 0.3494(2) 0.32338(9) 0.7776(2)
H6 H 0.3049 0.2927 0.7704
C9 C 0.4383(2) 0.33200(8) 0.85753(18)
H7 H 0.4564 0.3074 0.9047
C10 C 0.4996(2) 0.37777(8) 0.86605(16)
H8 H 0.5605 0.3837 0.9201
C11 C 0.8051(3) 0.44235(9) 0.74393(18)
H9 H 0.7554 0.4126 0.7409
C12 C 0.9431(3) 0.44108(11) 0.7251(2)
H10 H 0.9859 0.4113 0.7090
C13 C 1.0165(3) 0.48482(12) 0.7305(2)
H11 H 1.1106 0.4850 0.7195
C14 C 0.9496(2) 0.52862(11) 0.75243(18)
H12 H 0.9977 0.5587 0.7555
C15 C 0.8097(2) 0.52714(9) 0.76974(15)
C16 C 0.7295(2) 0.57213(8) 0.79691(15)
C17 C 0.7796(3) 0.62002(9) 0.7889(2)
H13 H 0.8649 0.6257 0.7622
C18 C 0.7016(3) 0.65965(10) 0.8210(2)
H14 H 0.7347 0.6921 0.8167
C19 C 0.5753(3) 0.65067(9) 0.85930(19)
H15 H 0.5222 0.6766 0.8829
C20 C 0.5297(2) 0.60223(8) 0.86177(17)
H16 H 0.4429 0.5961 0.8858
C21 C 0.29589(19) 0.51226(7) 0.96358(14)
C22 C 0.1424(2) 0.50547(7) 0.98198(14)
C23 C 0.08177(19) 0.45784(7) 0.97896(14)
C24 C 0.1589(2) 0.41378(8) 0.95849(16)
H17 H 0.2516 0.4167 0.9441
C25 C 0.0622(2) 0.54786(7) 1.00151(14)
C26 C 0.1182(2) 0.59722(8) 0.99967(15)
H18 H 0.2106 0.6015 0.9855
C27 C 0.0409(2) 0.63784(8) 1.01789(16)
H19 H 0.0799 0.6695 1.0157
C28 C 0.1000(2) 0.36792(8) 0.95964(17)
H20 H 0.1525 0.3400 0.9456
N1 N 0.47677(17) 0.41445(6) 0.80088(12)
N2 N 0.42583(18) 0.49195(7) 0.68117(13)
N3 N 0.60335(17) 0.56343(6) 0.83144(12)
N4 N 0.73839(18) 0.48433(7) 0.76652(13)
O1 O 0.33313(14) 0.50173(6) 0.87884(11)
O2 O 0.37366(13) 0.52972(5) 1.03178(10)
Zn1B Zn -0.53235(2) 0.510519(9) 1.171928(17)
Zn1B_2 Zn 0.46765(2) 0.510519(9) 1.171928(17)
Zn1_2 Zn -0.46765(2) 0.489481(9) 0.828072(17)
C1B C -0.4071(3) 0.46813(10) 1.37730(18)
H1B H -0.4469 0.4380 1.3573
C2B C -0.3312(3) 0.46995(12) 1.4662(2)
H2B H -0.3183 0.4415 1.5048
C3B C -0.2753(3) 0.51467(12) 1.4963(2)
H3B H -0.2239 0.5169 1.5560
C4B C -0.2954(3) 0.55644(10) 1.43817(17)
H4B H -0.2596 0.5872 1.4584
C5B C -0.3702(2) 0.55166(8) 1.34862(15)
C6B C -0.3917(2) 0.59401(8) 1.27856(15)
C7B C -0.3262(2) 0.63992(9) 1.29173(18)
H5B H -0.2674 0.6456 1.3469
C8B C -0.3494(2) 0.67662(9) 1.2224(2)
H6B H -0.3049 0.7073 1.2296
C9B C -0.4383(2) 0.66800(8) 1.14247(18)
H7B H -0.4564 0.6926 1.0953
C10B C -0.4996(2) 0.62223(8) 1.13395(16)
H8B H -0.5605 0.6163 1.0799
C11B C -0.8051(3) 0.55765(9) 1.25607(18)
H9B H -0.7554 0.5874 1.2591
C12B C -0.9431(3) 0.55892(11) 1.2749(2)
H10B H -0.9859 0.5887 1.2910
C13B C -1.0165(3) 0.51518(12) 1.2695(2)
H11B H -1.1106 0.5150 1.2805
C14B C -0.9496(2) 0.47138(11) 1.24757(18)
H12B H -0.9977 0.4413 1.2445
C15B C -0.8097(2) 0.47286(9) 1.23026(15)
C16B C -0.7295(2) 0.42787(8) 1.20309(15)
C17B C -0.7796(3) 0.37998(9) 1.2111(2)
H13B H -0.8649 0.3743 1.2378
C18B C -0.7016(3) 0.34035(10) 1.1790(2)
H14B H -0.7347 0.3079 1.1833
C19B C -0.5753(3) 0.34933(9) 1.14070(19)
H15B H -0.5222 0.3234 1.1171
C20B C -0.5297(2) 0.39777(8) 1.13823(17)
H16B H -0.4429 0.4039 1.1142
C21B C -0.29589(19) 0.48774(7) 1.03642(14)
C22B C -0.1424(2) 0.49453(7) 1.01802(14)
C23B C -0.08177(19) 0.54216(7) 1.02104(14)
C24B C -0.1589(2) 0.58622(8) 1.04151(16)
H17B H -0.2516 0.5833 1.0559
C25B C -0.0622(2) 0.45214(7) 0.99849(14)
C26B C -0.1182(2) 0.40278(8) 1.00033(15)
H18B H -0.2106 0.3985 1.0145
C27B C -0.0409(2) 0.36216(8) 0.98211(16)
H19B H -0.0799 0.3305 0.9843
C28B C -0.1000(2) 0.63208(8) 1.04036(17)
H20B H -0.1525 0.6600 1.0544
N1B N -0.47677(17) 0.58555(6) 1.19912(12)
N2B N -0.42583(18) 0.50805(7) 1.31883(13)
N3B N -0.60335(17) 0.43657(6) 1.16856(12)
N4B N -0.73839(18) 0.51567(7) 1.23348(13)
O1B O -0.33313(14) 0.49827(6) 1.12116(11)
O2B O -0.37366(13) 0.47028(5) 0.96822(10)
O2B_2 O 0.62634(13) 0.47028(5) 0.96822(10)
O2_2 O -0.62634(13) 0.52972(5) 1.03178(10)
C29 C 1.1448(2) 0.27081(8) 0.50314(15)
C30 C 0.99366(19) 0.28670(7) 0.50174(14)
C31 C 0.92515(19) 0.28937(7) 0.59053(14)
C32 C 0.9949(2) 0.27953(8) 0.68383(15)
H21 H 1.0881 0.2709 0.6860
C33 C 0.9283(2) 0.28254(9) 0.76922(16)
H22 H 0.9759 0.2761 0.8291
C34 C 0.7862(2) 0.29551(8) 0.76756(17)
H23 H 0.7413 0.2979 0.8266
C35 C 0.7154(2) 0.30445(8) 0.68097(16)
H24 H 0.6219 0.3125 0.6814
C36 C 0.7810(2) 0.30172(7) 0.58872(15)
C37 C 0.7100(2) 0.31103(8) 0.49783(16)
C38 C 0.5529(2) 0.32216(8) 0.49477(16)
C39 C 0.7790(2) 0.30968(8) 0.40899(15)
C40 C 0.7109(2) 0.31953(9) 0.31501(17)
H25 H 0.6175 0.3279 0.3120
C41 C 0.7791(2) 0.31694(9) 0.23039(17)
H26 H 0.7324 0.3237 0.1703
C42 C 0.9209(2) 0.30402(9) 0.23259(16)
H27 H 0.9665 0.3018 0.1739
C43 C 0.9905(2) 0.29490(8) 0.31994(15)
H28 H 1.0840 0.2867 0.3203
C44 C 0.9236(2) 0.29752(7) 0.41133(15)
O3 O 1.23039(15) 0.30600(6) 0.49902(14)
O4 O 1.17131(16) 0.22593(6) 0.50735(12)
O5 O 0.51510(19) 0.36384(8) 0.4896(2)
O6 O 0.48064(16) 0.28385(7) 0.50032(15)
H29 H 0.3981(16) 0.2932(13) 0.495(3)
loop_
_geom_bond_atom_site_label_1
_geom_bond_atom_site_label_2
_geom_bond_site_symmetry_1
_geom_bond_site_symmetry_2
Zn1 N1 1_555 1_555
C1 H1 1_555 1_555
C2 C1 1_555 1_555
H2 C2 1_555 1_555
C3 C2 1_555 1_555
H3 C3 1_555 1_555
C4 C3 1_555 1_555
H4 C4 1_555 1_555
C5 C4 1_555 1_555
C6 C5 1_555 1_555
C7 C6 1_555 1_555
H5 C7 1_555 1_555
C8 C7 1_555 1_555
H6 C8 1_555 1_555
C9 C8 1_555 1_555
H7 C9 1_555 1_555
C10 C9 1_555 1_555
H8 C10 1_555 1_555
C11 H9 1_555 1_555
C12 C11 1_555 1_555
H10 C12 1_555 1_555
C13 C12 1_555 1_555
H11 C13 1_555 1_555
C14 C13 1_555 1_555
H12 C14 1_555 1_555
C15 C14 1_555 1_555
C16 C15 1_555 1_555
C17 C16 1_555 1_555
H13 C17 1_555 1_555
C18 C17 1_555 1_555
H14 C18 1_555 1_555
C19 C18 1_555 1_555
H15 C19 1_555 1_555
C20 C19 1_555 1_555
H16 C20 1_555 1_555
C21 C22 1_555 1_555
C22 C23 1_555 1_555
C23 C24 1_555 1_555
C24 H17 1_555 1_555
C25 C22 1_555 1_555
C26 C25 1_555 1_555
H18 C26 1_555 1_555
C27 C26 1_555 1_555
H19 C27 1_555 1_555
C28 C24 1_555 1_555
H20 C28 1_555 1_555
C29 C30 1_555 1_555
C30 C31 1_555 1_555
C31 C32 1_555 1_555
C32 H21 1_555 1_555
C33 C32 1_555 1_555
H22 C33 1_555 1_555
C34 C33 1_555 1_555
H23 C34 1_555 1_555
C35 C34 1_555 1_555
H24 C35 1_555 1_555
C36 C31 1_555 1_555
C37 C36 1_555 1_555
C38 C37 1_555 1_555
C39 C37 1_555 1_555
C40 C39 1_555 1_555
H25 C40 1_555 1_555
C41 C40 1_555 1_555
H26 C41 1_555 1_555
C42 C41 1_555 1_555
H27 C42 1_555 1_555
C43 C42 1_555 1_555
H28 C43 1_555 1_555
C44 C30 1_555 1_555
N1 C6 1_555 1_555
N2 Zn1 1_555 1_555
N3 Zn1 1_555 1_555
N4 Zn1 1_555 1_555
O1 Zn1 1_555 1_555
O2 C21 1_555 1_555
O3 C29 1_555 1_555
O4 C29 1_555 1_555
O5 C38 1_555 1_555
O6 C38 1_555 1_555
H29 O6 1_555 1_555
Zn1B N1B 1_555 1_555
Zn1B_2 O2 1_555 1_555
Zn1_2 O2B 1_555 1_555
C1B H1B 1_555 1_555
C2B C1B 1_555 1_555
H2B C2B 1_555 1_555
C3B C2B 1_555 1_555
H3B C3B 1_555 1_555
C4B C3B 1_555 1_555
H4B C4B 1_555 1_555
C5B C4B 1_555 1_555
C6B C5B 1_555 1_555
C7B C6B 1_555 1_555
H5B C7B 1_555 1_555
C8B C7B 1_555 1_555
H6B C8B 1_555 1_555
C9B C8B 1_555 1_555
H7B C9B 1_555 1_555
C10B C9B 1_555 1_555
H8B C10B 1_555 1_555
C11B H9B 1_555 1_555
C12B C11B 1_555 1_555
H10B C12B 1_555 1_555
C13B C12B 1_555 1_555
H11B C13B 1_555 1_555
C14B C13B 1_555 1_555
H12B C14B 1_555 1_555
C15B C14B 1_555 1_555
C16B C15B 1_555 1_555
C17B C16B 1_555 1_555
H13B C17B 1_555 1_555
C18B C17B 1_555 1_555
H14B C18B 1_555 1_555
C19B C18B 1_555 1_555
H15B C19B 1_555 1_555
C20B C19B 1_555 1_555
H16B C20B 1_555 1_555
C21B C22B 1_555 1_555
C22B C23B 1_555 1_555
C23B C25 1_555 1_555
C24B C23B 1_555 1_555
H17B C24B 1_555 1_555
C25B C23 1_555 1_555
C26B C25B 1_555 1_555
H18B C26B 1_555 1_555
C27B C28 1_555 1_555
H19B C27B 1_555 1_555
C28B C27 1_555 1_555
H20B C28B 1_555 1_555
N1B C6B 1_555 1_555
N2B Zn1B 1_555 1_555
N3B Zn1B 1_555 1_555
N4B Zn1B 1_555 1_555
O1B Zn1B 1_555 1_555
O2B C21B 1_555 1_555
O2B_2 Zn1 1_555 1_555
O2_2 Zn1B 1_555 1_555
C1 N2 1_555 1_555
C5 N2 1_555 1_555
C10 N1 1_555 1_555
C11 N4 1_555 1_555
C15 N4 1_555 1_555
C16 N3 1_555 1_555
C20 N3 1_555 1_555
C21 O1 1_555 1_555
C35 C36 1_555 1_555
C39 C44 1_555 1_555
C43 C44 1_555 1_555
C1B N2B 1_555 1_555
C5B N2B 1_555 1_555
C10B N1B 1_555 1_555
C11B N4B 1_555 1_555
C15B N4B 1_555 1_555
C16B N3B 1_555 1_555
C20B N3B 1_555 1_555
C21B O1B 1_555 1_555
C22B C25B 1_555 1_555
C24B C28B 1_555 1_555
C26B C27B 1_555 1_555

#END
