
#######################################################################
#
#                 Cambridge Crystallographic Data Centre
#                                CCDC 
#
#######################################################################
#
# If this CIF has been generated from an entry in the Cambridge 
# Structural Database, then it will include bibliographic, chemical, 
# crystal, experimental, refinement or atomic coordinate data resulting 
# from the CCDC's data processing and validation procedures.
#
#######################################################################

data_GIZXAP
_symmetry_cell_setting           monoclinic
_symmetry_space_group_name_H-M   'C 2/c'
_symmetry_Int_Tables_number      15
_space_group_name_Hall           '-C 2yn'
loop_
_symmetry_equiv_pos_site_id
_symmetry_equiv_pos_as_xyz
1 x,y,z
2 1/2+x,1/2+y,z
3 -x,y,1/2-z
4 1/2-x,1/2+y,1/2-z
5 -x,-y,-z
6 1/2-x,1/2-y,-z
7 x,-y,1/2+z
8 1/2+x,1/2-y,1/2+z
_cell_length_a                   24.168(3)
_cell_length_b                   11.5740(15)
_cell_length_c                   12.0378(16)
_cell_angle_alpha                90
_cell_angle_beta                 94.489(2)
_cell_angle_gamma                90
_cell_volume                     3356.89
loop_
_atom_site_label
_atom_site_type_symbol
_atom_site_fract_x
_atom_site_fract_y
_atom_site_fract_z
Zn1 Zn 1.0000 0.73673(3) 0.2500
C1 C 0.88593(8) 0.74517(15) 0.33627(16)
C2 C 0.85396(8) 0.78129(17) 0.43389(16)
C3 C 0.84458(8) 0.89923(18) 0.45107(16)
C4 C 0.86154(9) 0.98626(19) 0.37745(19)
H1 H 0.8803 0.9651 0.3160
C5 C 0.85084(11) 1.0994(2) 0.3952(2)
H2 H 0.8618 1.1547 0.3453
C6 C 0.82328(11) 1.1339(2) 0.4885(3)
H3 H 0.8164 1.2119 0.5000
C7 C 0.80689(11) 1.0553(2) 0.5611(2)
H4 H 0.7892 1.0800 0.6227
C8 C 0.81610(9) 0.9347(2) 0.54560(19)
C9 C 0.79825(9) 0.8517(2) 0.61710(19)
H5 H 0.7796 0.8751 0.6779
C10 C 0.80714(9) 0.7345(2) 0.60153(18)
C11 C 0.78934(10) 0.6484(3) 0.6752(2)
H6 H 0.7708 0.6708 0.7365
C12 C 0.79866(10) 0.5361(3) 0.6585(2)
H7 H 0.7874 0.4818 0.7090
C13 C 0.82540(10) 0.4994(2) 0.5648(2)
H8 H 0.8308 0.4209 0.5531
C14 C 0.84347(9) 0.5771(2) 0.4913(2)
H9 H 0.8612 0.5513 0.4301
C15 C 0.83546(8) 0.69797(18) 0.50691(16)
C16 C 1.0000 0.1720(2) 0.2500
C17 C 1.0000 0.3004(2) 0.2500
C18 C 1.04854(8) 0.36321(17) 0.27116(17)
H10 H 1.0821 0.3252 0.2875
C19 C 1.04686(8) 0.48209(17) 0.26795(17)
H11 H 1.0802 0.5223 0.2789
C20 C 1.05262(10) 0.6781(2) 0.48989(18)
H12 H 1.0855 0.6896 0.5387
H13 H 1.0470 0.5969 0.4772
H14 H 1.0212 0.7097 0.5234
N1 N 1.0000 0.54265(19) 0.2500
O1 O 0.93790(6) 0.74124(12) 0.35698(12)
O2 O 0.86013(6) 0.72390(15) 0.24564(12)
O3 O 1.05877(6) 0.73417(12) 0.38700(11)
H15 H 1.0882(6) 0.724(2) 0.361(2)
C21 C 1.02934(9) 0.10938(18) 0.33337(18)
H16 H 1.0499 0.1474 0.3908
C22 C 1.02769(9) -0.00970(18) 0.33033(18)
H17 H 1.0471 -0.0500 0.3878
N2 N 1.0000 -0.07039(19) 0.2500
Zn1_2 Zn 1.0000 -0.26327(3) 0.2500
C1B C 1.11407(8) 0.74517(15) 0.16373(16)
C2B C 1.14604(8) 0.78129(17) 0.06611(16)
C3B C 1.15542(8) 0.89923(18) 0.04893(16)
C4B C 1.13846(9) 0.98626(19) 0.12255(19)
H1B H 1.1197 0.9651 0.1840
C5B C 1.14916(11) 1.0994(2) 0.1048(2)
H2B H 1.1382 1.1547 0.1547
C6B C 1.17672(11) 1.1339(2) 0.0115(3)
H3B H 1.1836 1.2119 0.0000
C7B C 1.19311(11) 1.0553(2) -0.0611(2)
H4B H 1.2108 1.0800 -0.1227
C8B C 1.18390(9) 0.9347(2) -0.04560(19)
C9B C 1.20175(9) 0.8517(2) -0.11710(19)
H5B H 1.2204 0.8751 -0.1779
C10B C 1.19286(9) 0.7345(2) -0.10153(18)
C11B C 1.21066(10) 0.6484(3) -0.1752(2)
H6B H 1.2292 0.6708 -0.2365
C12B C 1.20134(10) 0.5361(3) -0.1585(2)
H7B H 1.2126 0.4818 -0.2090
C13B C 1.17460(10) 0.4994(2) -0.0648(2)
H8B H 1.1692 0.4209 -0.0531
C14B C 1.15653(9) 0.5771(2) 0.0087(2)
H9B H 1.1388 0.5513 0.0699
C15B C 1.16454(8) 0.69797(18) -0.00691(16)
C18B C 0.95146(8) 0.36321(17) 0.22884(17)
H10B H 0.9179 0.3252 0.2125
C19B C 0.95314(8) 0.48209(17) 0.23205(17)
H11B H 0.9198 0.5223 0.2211
C20B C 0.94738(10) 0.6781(2) 0.01011(18)
H12B H 0.9145 0.6896 -0.0387
H13B H 0.9530 0.5969 0.0228
H14B H 0.9788 0.7097 -0.0234
O1B O 1.06210(6) 0.74124(12) 0.14302(12)
O2B O 1.13987(6) 0.72390(15) 0.25436(12)
O3B O 0.94123(6) 0.73417(12) 0.11300(11)
H15B H 0.9118(6) 0.724(2) 0.139(2)
C21B C 0.97066(9) 0.10938(18) 0.16663(18)
H16B H 0.9501 0.1474 0.1092
C22B C 0.97231(9) -0.00970(18) 0.16967(18)
H17B H 0.9529 -0.0500 0.1122
N2_2 N 1.0000 0.92961(19) 0.2500
loop_
_geom_bond_atom_site_label_1
_geom_bond_atom_site_label_2
_geom_bond_site_symmetry_1
_geom_bond_site_symmetry_2
Zn1 N1 1_555 1_555
C1 C2 1_555 1_555
C2 C3 1_555 1_555
C3 C4 1_555 1_555
C4 H1 1_555 1_555
C5 C4 1_555 1_555
H2 C5 1_555 1_555
C6 C5 1_555 1_555
H3 C6 1_555 1_555
C7 C6 1_555 1_555
H4 C7 1_555 1_555
C8 C3 1_555 1_555
C9 C8 1_555 1_555
H5 C9 1_555 1_555
C10 C9 1_555 1_555
C11 C10 1_555 1_555
H6 C11 1_555 1_555
C12 C11 1_555 1_555
H7 C12 1_555 1_555
C13 C12 1_555 1_555
H8 C13 1_555 1_555
C14 C13 1_555 1_555
H9 C14 1_555 1_555
C15 C2 1_555 1_555
C16 C17 1_555 1_555
C17 C18 1_555 1_555
C18 H10 1_555 1_555
C19 C18 1_555 1_555
H11 C19 1_555 1_555
C20 H12 1_555 1_555
H13 C20 1_555 1_555
H14 C20 1_555 1_555
N1 C19 1_555 1_555
O1 Zn1 1_555 1_555
O2 C1 1_555 1_555
O3 Zn1 1_555 1_555
H15 O3 1_555 1_555
C21 C16 1_555 1_555
H16 C21 1_555 1_555
C22 C21 1_555 1_555
H17 C22 1_555 1_555
N2 C22 1_555 1_555
Zn1_2 N2 1_555 1_555
C1B C2B 1_555 1_555
C2B C3B 1_555 1_555
C3B C4B 1_555 1_555
C4B H1B 1_555 1_555
C5B C4B 1_555 1_555
H2B C5B 1_555 1_555
C6B C5B 1_555 1_555
H3B C6B 1_555 1_555
C7B C6B 1_555 1_555
H4B C7B 1_555 1_555
C8B C3B 1_555 1_555
C9B C8B 1_555 1_555
H5B C9B 1_555 1_555
C10B C9B 1_555 1_555
C11B C10B 1_555 1_555
H6B C11B 1_555 1_555
C12B C11B 1_555 1_555
H7B C12B 1_555 1_555
C13B C12B 1_555 1_555
H8B C13B 1_555 1_555
C14B C13B 1_555 1_555
H9B C14B 1_555 1_555
C15B C2B 1_555 1_555
C18B C17 1_555 1_555
H10B C18B 1_555 1_555
C19B N1 1_555 1_555
H11B C19B 1_555 1_555
C20B H12B 1_555 1_555
H13B C20B 1_555 1_555
H14B C20B 1_555 1_555
O1B Zn1 1_555 1_555
O2B C1B 1_555 1_555
O3B Zn1 1_555 1_555
H15B O3B 1_555 1_555
C21B C16 1_555 1_555
H16B C21B 1_555 1_555
C22B N2 1_555 1_555
H17B C22B 1_555 1_555
N2_2 Zn1 1_555 1_555
C1 O1 1_555 1_555
C7 C8 1_555 1_555
C10 C15 1_555 1_555
C14 C15 1_555 1_555
C20 O3 1_555 1_555
C1B O1B 1_555 1_555
C7B C8B 1_555 1_555
C10B C15B 1_555 1_555
C14B C15B 1_555 1_555
C18B C19B 1_555 1_555
C20B O3B 1_555 1_555
C21B C22B 1_555 1_555

#END
