
#######################################################################
#
#                 Cambridge Crystallographic Data Centre
#                                CCDC 
#
#######################################################################
#
# If this CIF has been generated from an entry in the Cambridge 
# Structural Database, then it will include bibliographic, chemical, 
# crystal, experimental, refinement or atomic coordinate data resulting 
# from the CCDC's data processing and validation procedures.
#
#######################################################################

data_GIZXOD
_symmetry_cell_setting           triclinic
_symmetry_space_group_name_H-M   'P -1'
_symmetry_Int_Tables_number      2
_space_group_name_Hall           '-P 1'
loop_
_symmetry_equiv_pos_site_id
_symmetry_equiv_pos_as_xyz
1 x,y,z
2 -x,-y,-z
_cell_length_a                   9.5311(19)
_cell_length_b                   10.770(2)
_cell_length_c                   12.445(2)
_cell_angle_alpha                112.048(3)
_cell_angle_beta                 95.725(3)
_cell_angle_gamma                110.766(3)
_cell_volume                     1066.43
loop_
_atom_site_label
_atom_site_type_symbol
_atom_site_fract_x
_atom_site_fract_y
_atom_site_fract_z
Zn1 Zn 0.62384(5) 0.70043(5) 0.63591(4)
C1 C 0.1763(5) 0.4582(4) 0.4031(4)
C2 C 0.1630(6) 0.5880(5) 0.4632(5)
H1 H 0.0786 0.6093 0.4491
C3 C 0.3038(6) 0.6793(5) 0.5493(5)
H2 H 0.3302 0.7756 0.6057
C4 C 0.6030(5) 1.1163(5) 0.8313(4)
H3 H 0.5785 1.1815 0.8914
C5 C 0.6525(6) 1.1351(5) 0.7354(4)
H4 H 0.6677 1.2146 0.7175
C6 C 0.6746(5) 1.0089(4) 0.6711(4)
C7 C 0.7205(5) 0.9567(5) 0.5593(4)
C8 C 0.7731(8) 1.0442(6) 0.5020(5)
H5 H 0.7833 1.1411 0.5341
C9 C 0.8105(9) 0.9849(7) 0.3957(6)
H6 H 0.8472 1.0419 0.3554
C10 C 0.7934(8) 0.8430(7) 0.3506(5)
H7 H 0.8160 0.8009 0.2782
C11 C 0.7428(7) 0.7630(6) 0.4125(4)
H8 H 0.7322 0.6660 0.3812
C12 C 0.5386(4) 0.6829(4) 0.8706(3)
C13 C 0.5188(4) 0.5864(4) 0.9362(3)
C14 C 0.6500(4) 0.5806(4) 0.9930(3)
C15 C 0.8041(4) 0.6600(4) 0.9894(4)
H9 H 0.8185 0.7146 0.9453
C16 C 0.9288(5) 0.6576(5) 1.0482(4)
H10 H 1.0279 0.7110 1.0450
C17 C 0.3705(4) 0.5065(4) 0.9421(3)
C18 C 0.2339(4) 0.5059(4) 0.8820(3)
H11 H 0.2442 0.5622 0.8396
C19 C 0.9102(5) 0.5749(5) 1.1145(4)
H12 H 0.9973 0.5755 1.1562
N1 N 0.3960(4) 0.6107(3) 0.5406(3)
N2 N 0.3175(4) 0.4728(3) 0.4494(3)
N3 N 0.5973(4) 0.9864(4) 0.8209(3)
H13 H 0.5695 0.9507 0.8706
N4 N 0.6395(4) 0.9185(3) 0.7252(3)
N5 N 0.7075(4) 0.8178(4) 0.5167(3)
O1 O 0.5676(4) 0.6365(3) 0.7723(2)
O2 O 0.5246(4) 0.8005(3) 0.9222(3)
C20 C 0.0272(5) 0.0827(5) 0.1748(4)
H14 H 0.0626 0.0091 0.1493
C21 C -0.1213(5) 0.0512(5) 0.1168(4)
H15 H -0.1840 -0.0411 0.0533
C22 C -0.1732(6) 0.1574(6) 0.1543(4)
H16 H -0.2728 0.1388 0.1170
C23 C -0.0781(5) 0.2931(5) 0.2479(4)
H17 H -0.1122 0.3676 0.2743
C24 C 0.0670(5) 0.3170(4) 0.3014(3)
N6 N 0.1220(4) 0.2137(4) 0.2654(3)
Zn1A Zn 0.37616(5) 0.29957(5) 0.36409(4)
Zn1A_2 Zn 0.37616(5) 0.29957(5) 1.36409(4)
C1A C 0.8237(5) 0.5418(4) 0.5969(4)
C2A C 0.8370(6) 0.4120(5) 0.5368(5)
H1A H 0.9214 0.3907 0.5509
C3A C 0.6962(6) 0.3207(5) 0.4507(5)
H2A H 0.6698 0.2244 0.3943
C4A C 0.3970(5) -0.1163(5) 0.1687(4)
H3A H 0.4215 -0.1815 0.1086
C5A C 0.3475(6) -0.1351(5) 0.2646(4)
H4A H 0.3323 -0.2146 0.2825
C6A C 0.3254(5) -0.0089(4) 0.3289(4)
C7A C 0.2795(5) 0.0433(5) 0.4407(4)
C8A C 0.2269(8) -0.0442(6) 0.4980(5)
H5A H 0.2167 -0.1411 0.4659
C9A C 0.1895(9) 0.0151(7) 0.6043(6)
H6A H 0.1528 -0.0419 0.6446
C10A C 0.2066(8) 0.1570(7) 0.6494(5)
H7A H 0.1840 0.1991 0.7218
C11A C 0.2572(7) 0.2370(6) 0.5875(4)
H8A H 0.2678 0.3340 0.6188
C12A C 0.4614(4) 0.3171(4) 1.1294(3)
C13A C 0.4812(4) 0.4136(4) 1.0638(3)
C14A C 0.3500(4) 0.4194(4) 1.0070(3)
C15A C 0.1959(4) 0.3400(4) 1.0106(4)
H9A H 0.1815 0.2854 1.0547
C16A C 0.0712(5) 0.3424(5) 0.9518(4)
H10A H -0.0279 0.2890 0.9550
C17A C 0.6295(4) 0.4935(4) 1.0579(3)
C18A C 0.7661(4) 0.4941(4) 1.1180(3)
H11A H 0.7558 0.4378 1.1604
C19A C 0.0898(5) 0.4251(5) 0.8855(4)
H12A H 0.0027 0.4245 0.8438
N1A N 0.6040(4) 0.3893(3) 0.4594(3)
N2A N 0.6825(4) 0.5272(3) 0.5506(3)
N3A N 0.4027(4) 0.0136(4) 0.1791(3)
H13A H 0.4305 0.0493 0.1294
N4A N 0.3605(4) 0.0815(3) 0.2748(3)
N5A N 0.2925(4) 0.1822(4) 0.4833(3)
O1A O 0.4324(4) 0.3635(3) 1.2277(2)
O1A_2 O 0.4324(4) 0.3635(3) 0.2277(2)
O2A O 0.4754(4) 0.1995(3) 1.0778(3)
C20A C 0.9728(5) 0.9173(5) 0.8252(4)
H14A H 0.9374 0.9909 0.8507
C21A C 1.1213(5) 0.9488(5) 0.8832(4)
H15A H 1.1840 1.0411 0.9467
C22A C 1.1732(6) 0.8426(6) 0.8457(4)
H16A H 1.2728 0.8612 0.8830
C23A C 1.0781(5) 0.7069(5) 0.7521(4)
H17A H 1.1122 0.6324 0.7257
C24A C 0.9330(5) 0.6830(4) 0.6986(3)
N6A N 0.8780(4) 0.7863(4) 0.7346(3)
loop_
_geom_bond_atom_site_label_1
_geom_bond_atom_site_label_2
_geom_bond_site_symmetry_1
_geom_bond_site_symmetry_2
Zn1 N1 1_555 1_555
C1 C2 1_555 1_555
C2 H1 1_555 1_555
C3 C2 1_555 1_555
H2 C3 1_555 1_555
C4 H3 1_555 1_555
C5 C4 1_555 1_555
H4 C5 1_555 1_555
C6 C5 1_555 1_555
C7 C6 1_555 1_555
C8 C7 1_555 1_555
H5 C8 1_555 1_555
C9 C8 1_555 1_555
H6 C9 1_555 1_555
C10 C9 1_555 1_555
H7 C10 1_555 1_555
C11 C10 1_555 1_555
H8 C11 1_555 1_555
C12 C13 1_555 1_555
C13 C14 1_555 1_555
C14 C15 1_555 1_555
C15 H9 1_555 1_555
C16 C15 1_555 1_555
H10 C16 1_555 1_555
C17 C13 1_555 1_555
C18 C17 1_555 1_555
H11 C18 1_555 1_555
C19 C16 1_555 1_555
H12 C19 1_555 1_555
N1 C3 1_555 1_555
N2 C1 1_555 1_555
N3 C4 1_555 1_555
H13 N3 1_555 1_555
N4 Zn1 1_555 1_555
N5 Zn1 1_555 1_555
O1 Zn1 1_555 1_555
O2 C12 1_555 1_555
C20 H14 1_555 1_555
C21 C20 1_555 1_555
H15 C21 1_555 1_555
C22 C21 1_555 1_555
H16 C22 1_555 1_555
C23 C22 1_555 1_555
H17 C23 1_555 1_555
C24 C1 1_555 1_555
N6 C20 1_555 1_555
Zn1A N2 1_555 1_555
Zn1A_2 O1A 1_555 1_555
C1A C2A 1_555 1_555
C2A H1A 1_555 1_555
C3A C2A 1_555 1_555
H2A C3A 1_555 1_555
C4A H3A 1_555 1_555
C5A C4A 1_555 1_555
H4A C5A 1_555 1_555
C6A C5A 1_555 1_555
C7A C6A 1_555 1_555
C8A C7A 1_555 1_555
H5A C8A 1_555 1_555
C9A C8A 1_555 1_555
H6A C9A 1_555 1_555
C10A C9A 1_555 1_555
H7A C10A 1_555 1_555
C11A C10A 1_555 1_555
H8A C11A 1_555 1_555
C12A C13A 1_555 1_555
C13A C14A 1_555 1_555
C14A C17 1_555 1_555
C15A C14A 1_555 1_555
H9A C15A 1_555 1_555
C16A C15A 1_555 1_555
H10A C16A 1_555 1_555
C17A C14 1_555 1_555
C18A C19 1_555 1_555
H11A C18A 1_555 1_555
C19A C18 1_555 1_555
H12A C19A 1_555 1_555
N1A Zn1A 1_555 1_555
N2A Zn1 1_555 1_555
N3A C4A 1_555 1_555
H13A N3A 1_555 1_555
N4A Zn1A 1_555 1_555
N5A Zn1A 1_555 1_555
O1A C12A 1_555 1_555
O1A_2 Zn1A 1_555 1_555
O2A C12A 1_555 1_555
C20A H14A 1_555 1_555
C21A C20A 1_555 1_555
H15A C21A 1_555 1_555
C22A C21A 1_555 1_555
H16A C22A 1_555 1_555
C23A C22A 1_555 1_555
H17A C23A 1_555 1_555
C24A C1A 1_555 1_555
N6A Zn1 1_555 1_555
C6 N4 1_555 1_555
C7 N5 1_555 1_555
C11 N5 1_555 1_555
C12 O1 1_555 1_555
N1 N2 1_555 1_555
N3 N4 1_555 1_555
C23 C24 1_555 1_555
C24 N6 1_555 1_555
N6 Zn1A 1_555 1_555
C1A N2A 1_555 1_555
C3A N1A 1_555 1_555
C6A N4A 1_555 1_555
C7A N5A 1_555 1_555
C11A N5A 1_555 1_555
C13A C17A 1_555 1_555
C16A C19A 1_555 1_555
C17A C18A 1_555 1_555
N1A N2A 1_555 1_555
N3A N4A 1_555 1_555
C20A N6A 1_555 1_555
C23A C24A 1_555 1_555
C24A N6A 1_555 1_555

#END
