
#######################################################################
#
#                 Cambridge Crystallographic Data Centre
#                                CCDC 
#
#######################################################################
#
# If this CIF has been generated from an entry in the Cambridge 
# Structural Database, then it will include bibliographic, chemical, 
# crystal, experimental, refinement or atomic coordinate data resulting 
# from the CCDC's data processing and validation procedures.
#
#######################################################################

data_GLHGCU
_symmetry_cell_setting           monoclinic
_symmetry_space_group_name_H-M   'C 2'
_symmetry_Int_Tables_number      5
_space_group_name_Hall           'C 2y'
loop_
_symmetry_equiv_pos_site_id
_symmetry_equiv_pos_as_xyz
1 x,y,z
2 1/2+x,1/2+y,z
3 -x,y,-z
4 1/2-x,1/2+y,-z
_cell_length_a                   19.040(6)
_cell_length_b                   6.943(4)
_cell_length_c                   12.201(4)
_cell_angle_alpha                90
_cell_angle_beta                 103.89(2)
_cell_angle_gamma                90
_cell_volume                     1565.74
loop_
_atom_site_label
_atom_site_type_symbol
_atom_site_fract_x
_atom_site_fract_y
_atom_site_fract_z
Cu1 Cu 0.20362 0.50000 0.22525
O1 O 0.31650 0.41870 -0.00970
O2 O 0.35910 0.16560 0.27100
O3 O 0.61470 -0.02480 0.28360
O4 O 0.59860 0.28100 0.23530
N1 N 0.14820 0.52120 0.06460
N2 N 0.28630 0.48670 0.15720
N3 N 0.26410 0.53320 0.37820
N4 N 0.30600 0.52430 0.56120
N5 N 0.46690 0.29880 0.27770
C1 C 0.19100 0.43700 -0.00880
C2 C 0.27180 0.44830 0.04790
C3 C 0.36290 0.49980 0.21590
C4 C 0.37300 0.64330 0.31390
C5 C 0.33660 0.58380 0.40340
C6 C 0.36210 0.57520 0.51840
C7 C 0.24820 0.49880 0.47690
C8 C 0.39500 0.30480 0.25590
C9 C 0.50830 0.12400 0.30840
C10 C 0.57860 0.13130 0.27100
H1 H 0.15400 0.64600 0.05300
H2 H 0.10900 0.47100 0.04500
H3 H 0.20100 0.44300 -0.08400
H4 H 0.18300 0.28800 -0.01800
H5 H 0.38800 0.54200 0.18000
H6 H 0.36000 0.76700 0.29100
H7 H 0.42300 0.66200 0.35400
H8 H 0.40900 0.61600 0.56800
H9 H 0.30000 0.53300 0.62900
H10 H 0.20000 0.44600 0.48300
H11 H 0.49000 0.42200 0.26300
H12 H 0.48800 0.03500 0.27200
H13 H 0.51900 0.07000 0.37200
O3A O 0.11470 0.47520 0.28360
Cu1A Cu 0.70362 0.00000 0.22525
O5 O 0.21150 0.09960 0.22370
H14 H 0.20500 0.01400 0.16900
H15 H 0.26700 0.12000 0.23500
O6 O 0.00000 0.33590 0.00000
H16 H 0.01600 0.26100 0.07500
H16B H -0.01600 0.26100 -0.07500
O7 O 0.03890 0.14660 0.20840
H17 H 0.07500 0.26900 0.23900
H18 H 0.06600 0.04700 0.19300
loop_
_geom_bond_atom_site_label_1
_geom_bond_atom_site_label_2
_geom_bond_site_symmetry_1
_geom_bond_site_symmetry_2
Cu1 N1 1_555 1_555
O1 C2 1_555 1_555
O2 C8 1_555 1_555
O3 C10 1_555 1_555
O4 C10 1_555 1_555
N1 C1 1_555 1_555
N2 Cu1 1_555 1_555
N3 Cu1 1_555 1_555
N4 C6 1_555 1_555
N5 C8 1_555 1_555
C1 C2 1_555 1_555
C2 N2 1_555 1_555
C3 N2 1_555 1_555
C4 C3 1_555 1_555
C5 N3 1_555 1_555
C6 C5 1_555 1_555
C7 N3 1_555 1_555
C8 C3 1_555 1_555
C9 N5 1_555 1_555
C10 C9 1_555 1_555
H1 N1 1_555 1_555
H2 N1 1_555 1_555
H3 C1 1_555 1_555
H4 C1 1_555 1_555
H5 C3 1_555 1_555
H6 C4 1_555 1_555
H7 C4 1_555 1_555
H8 C6 1_555 1_555
H9 N4 1_555 1_555
H10 C7 1_555 1_555
H11 N5 1_555 1_555
H12 C9 1_555 1_555
H13 C9 1_555 1_555
O5 H14 1_555 1_555
H15 O5 1_555 1_555
O6 H16 1_555 1_555
O7 H17 1_555 1_555
H18 O7 1_555 1_555
O3A Cu1 1_555 1_555
Cu1A O3 1_555 1_555
H16B O6 1_555 1_555
N4 C7 1_555 1_555
C4 C5 1_555 1_555

#END
