
#######################################################################
#
#                 Cambridge Crystallographic Data Centre
#                                CCDC 
#
#######################################################################
#
# If this CIF has been generated from an entry in the Cambridge 
# Structural Database, then it will include bibliographic, chemical, 
# crystal, experimental, refinement or atomic coordinate data resulting 
# from the CCDC's data processing and validation procedures.
#
#######################################################################

data_GLUTCU
_symmetry_cell_setting           tetragonal
_symmetry_space_group_name_H-M   'P -4 21 c'
_symmetry_Int_Tables_number      114
_space_group_name_Hall           'P -4 2n'
loop_
_symmetry_equiv_pos_site_id
_symmetry_equiv_pos_as_xyz
1 x,y,z
2 -y,x,-z
3 -x,-y,z
4 y,-x,-z
5 1/2-x,1/2+y,1/2-z
6 1/2+y,1/2+x,1/2+z
7 1/2+x,1/2-y,1/2-z
8 1/2-y,1/2-x,1/2+z
_cell_length_a                   8.25(1)
_cell_length_b                   8.25(1)
_cell_length_c                   9.71(1)
_cell_angle_alpha                90
_cell_angle_beta                 90
_cell_angle_gamma                90
_cell_volume                     660.887
loop_
_atom_site_label
_atom_site_type_symbol
_atom_site_fract_x
_atom_site_fract_y
_atom_site_fract_z
Cu1 Cu 0.00000 0.00000 0.00000
N1 N 0.19200 0.05300 0.11300
C1 C 0.29700 0.08800 0.18300
C2 C 0.44700 0.13800 0.26700
C3 C 0.50000 0.00000 0.36200
N1A N -0.05300 0.19200 -0.11300
N1B N -0.19200 -0.05300 0.11300
N1C N 0.05300 -0.19200 -0.11300
C2B C 0.55300 -0.13800 0.26700
C1A C -0.08800 0.29700 -0.18300
C1B C 0.70300 -0.08800 0.18300
C2A C -0.13800 0.44700 -0.26700
C3A C 0.00000 0.50000 -0.36200
C2C C 0.13800 0.55300 -0.26700
N1B_2 N 0.80800 -0.05300 0.11300
C1C C 0.08800 0.70300 -0.18300
Cu1_2 Cu 1.00000 0.00000 0.00000
N1C_2 N 0.05300 0.80800 -0.11300
Cu1_3 Cu 0.00000 1.00000 0.00000
loop_
_geom_bond_atom_site_label_1
_geom_bond_atom_site_label_2
_geom_bond_site_symmetry_1
_geom_bond_site_symmetry_2
Cu1 N1 1_555 1_555
N1 C1 1_555 1_555
C1 C2 1_555 1_555
C2 C3 1_555 1_555
C3 C2B 1_555 1_555
N1A Cu1 1_555 1_555
N1B Cu1 1_555 1_555
N1C Cu1 1_555 1_555
C2B C1B 1_555 1_555
C1A N1A 1_555 1_555
C1B N1B_2 1_555 1_555
C2A C1A 1_555 1_555
C3A C2A 1_555 1_555
C2C C3A 1_555 1_555
N1B_2 Cu1_2 1_555 1_555
C1C C2C 1_555 1_555
N1C_2 C1C 1_555 1_555
Cu1_3 N1C_2 1_555 1_555

#END
