
#######################################################################
#
#                 Cambridge Crystallographic Data Centre
#                                CCDC 
#
#######################################################################
#
# If this CIF has been generated from an entry in the Cambridge 
# Structural Database, then it will include bibliographic, chemical, 
# crystal, experimental, refinement or atomic coordinate data resulting 
# from the CCDC's data processing and validation procedures.
#
#######################################################################

data_GLYMSN10
_symmetry_cell_setting           tetragonal
_symmetry_space_group_name_H-M   'P 41'
_symmetry_Int_Tables_number      76
_space_group_name_Hall           'P 4w'
loop_
_symmetry_equiv_pos_site_id
_symmetry_equiv_pos_as_xyz
1 x,y,z
2 -y,x,1/4+z
3 -x,-y,1/2+z
4 y,-x,3/4+z
_cell_length_a                   7.839(9)
_cell_length_b                   7.839(9)
_cell_length_c                   14.659(11)
_cell_angle_alpha                90
_cell_angle_beta                 90
_cell_angle_gamma                90
_cell_volume                     900.794
loop_
_atom_site_label
_atom_site_type_symbol
_atom_site_fract_x
_atom_site_fract_y
_atom_site_fract_z
Sn1 Sn -0.51010 0.03670 0.25000
O1 O -0.59270 -0.69560 0.26460
O2 O -0.34970 -0.59740 0.19550
N1 N -0.43220 -0.26590 0.26440
C1 C -0.28720 0.06780 0.33250
C2 C -0.49570 0.02270 0.10280
C3 C -0.74010 -0.02160 0.31740
C4 C -0.56860 -0.39290 0.23810
C5 C -0.49100 -0.57460 0.22980
O1_2 O -0.59270 0.30440 0.26460
Sn1_2 Sn -0.51010 -0.96330 0.25000
loop_
_geom_bond_atom_site_label_1
_geom_bond_atom_site_label_2
_geom_bond_site_symmetry_1
_geom_bond_site_symmetry_2
Sn1 N1 1_555 1_555
O1 C5 1_555 1_555
O2 C5 1_555 1_555
N1 C4 1_555 1_555
C1 Sn1 1_555 1_555
C2 Sn1 1_555 1_555
C3 Sn1 1_555 1_555
C4 C5 1_555 1_555
O1_2 Sn1 1_555 1_555
Sn1_2 O1 1_555 1_555

#END
