
#######################################################################
#
#                 Cambridge Crystallographic Data Centre
#                                CCDC 
#
#######################################################################
#
# If this CIF has been generated from an entry in the Cambridge 
# Structural Database, then it will include bibliographic, chemical, 
# crystal, experimental, refinement or atomic coordinate data resulting 
# from the CCDC's data processing and validation procedures.
#
#######################################################################

data_GMETCU
_symmetry_cell_setting           orthorhombic
_symmetry_space_group_name_H-M   'P 21 21 21'
_symmetry_Int_Tables_number      19
_space_group_name_Hall           'P 2ac 2ab'
loop_
_symmetry_equiv_pos_site_id
_symmetry_equiv_pos_as_xyz
1 x,y,z
2 1/2+x,1/2-y,-z
3 -x,1/2+y,1/2-z
4 1/2-x,-y,1/2+z
_cell_length_a                   10.354(6)
_cell_length_b                   11.471(7)
_cell_length_c                   8.872(5)
_cell_angle_alpha                90
_cell_angle_beta                 90
_cell_angle_gamma                90
_cell_volume                     1053.73
loop_
_atom_site_label
_atom_site_type_symbol
_atom_site_fract_x
_atom_site_fract_y
_atom_site_fract_z
Cu1 Cu 0.22751 0.11244 0.02112
C1 C 0.02060 0.23120 0.18380
C2 C -0.01910 0.21560 0.01500
C3 C 0.04680 0.13770 -0.22820
C4 C 0.15250 0.04950 -0.27220
C5 C 0.04480 0.24070 -0.34310
C6 C 0.17530 0.30230 -0.35530
C7 C 0.30990 0.50060 -0.44660
N1 N 0.15170 0.18550 0.21440
N2 N 0.07410 0.17340 -0.07140
O1 O -0.13280 0.23880 -0.02510
O2 O 0.24680 0.03500 -0.18210
O3 O 0.14030 -0.00290 -0.39840
S1 S 0.16580 0.42030 -0.49260
O1A O 0.36720 0.26120 0.02510
O3C O 0.35970 0.00290 0.10160
Cu1A Cu -0.27249 0.38756 -0.02112
Cu1C Cu 0.27249 -0.11244 -0.47888
loop_
_geom_bond_atom_site_label_1
_geom_bond_atom_site_label_2
_geom_bond_site_symmetry_1
_geom_bond_site_symmetry_2
Cu1 N1 1_555 1_555
C1 C2 1_555 1_555
C2 N2 1_555 1_555
C3 C4 1_555 1_555
C4 O2 1_555 1_555
C5 C3 1_555 1_555
C6 C5 1_555 1_555
C7 S1 1_555 1_555
N1 C1 1_555 1_555
N2 Cu1 1_555 1_555
O1 C2 1_555 1_555
O2 Cu1 1_555 1_555
O3 C4 1_555 1_555
S1 C6 1_555 1_555
O1A Cu1 1_555 1_555
O3C Cu1 1_555 1_555
Cu1A O1 1_555 1_555
Cu1C O3 1_555 1_555
C3 N2 1_555 1_555

#END
