
#######################################################################
#
#                 Cambridge Crystallographic Data Centre
#                                CCDC 
#
#######################################################################
#
# If this CIF has been generated from an entry in the Cambridge 
# Structural Database, then it will include bibliographic, chemical, 
# crystal, experimental, refinement or atomic coordinate data resulting 
# from the CCDC's data processing and validation procedures.
#
#######################################################################

data_GOBCOR
_symmetry_cell_setting           triclinic
_symmetry_space_group_name_H-M   'P -1'
_symmetry_Int_Tables_number      2
_space_group_name_Hall           '-P 1'
loop_
_symmetry_equiv_pos_site_id
_symmetry_equiv_pos_as_xyz
1 x,y,z
2 -x,-y,-z
_cell_length_a                   11.487(2)
_cell_length_b                   19.660(4)
_cell_length_c                   20.550(4)
_cell_angle_alpha                63.47(3)
_cell_angle_beta                 86.35(3)
_cell_angle_gamma                87.76(3)
_cell_volume                     4143.5
loop_
_atom_site_label
_atom_site_type_symbol
_atom_site_fract_x
_atom_site_fract_y
_atom_site_fract_z
Cu1 Cu 0.86271(7) 0.86231(4) 0.40714(4)
Cu2 Cu 0.77100(6) 0.80693(4) 0.58171(4)
Cu3 Cu 0.68040(7) 1.15871(4) 0.78014(5)
Cu4 Cu 0.59378(7) 1.32510(4) 0.77549(5)
Cu5 Cu 1.00432(7) 0.72263(4) 0.54243(5)
O1 O 0.9008(3) 0.8173(2) 0.5107(2)
O2 O 0.7750(4) 0.9080(2) 0.6311(2)
O3 O 0.6558(4) 0.8140(2) 0.6533(3)
O4 O 0.6789(4) 1.0797(2) 0.7449(3)
O5 O 0.5348(5) 1.0538(3) 0.8273(3)
O6 O 0.6347(4) 1.2160(2) 0.8356(2)
O7 O 0.7316(4) 1.1093(3) 0.0539(3)
O8 O 0.1407(4) 1.6516(3) 0.5754(3)
O9 O 0.9656(4) 0.9862(2) 0.3584(2)
O10 O 0.8569(4) 0.9397(2) 0.3036(2)
O11 O 0.5659(5) 1.4339(3) 0.7174(3)
O12 O 0.8490(4) 1.2056(3) -0.0164(3)
O13 O 0.2158(4) 1.7651(2) 0.5475(3)
O14 O 0.3756(5) 1.4222(3) 0.7224(4)
N1 N 0.9818(5) 0.8015(3) 0.3865(3)
N2 N 1.0379(5) 0.7453(3) 0.4411(3)
N3 N 0.8046(5) 1.1103(3) 0.8436(3)
N4 N 0.8397(5) 1.1362(3) 0.8903(3)
N5 N 0.5814(5) 1.3036(3) 0.6927(3)
N6 N 0.6020(5) 1.2336(3) 0.6975(3)
N7 N 0.8613(5) 0.7335(3) 0.6572(3)
N8 N 0.9576(5) 0.7011(3) 0.6419(3)
N9 N 0.6716(4) 0.8661(3) 0.5023(3)
N10 N 0.7075(4) 0.8869(3) 0.4326(3)
N11 N 0.6530(7) 1.2879(4) 0.9206(4)
N12 N 0.5844(6) 1.3345(3) 0.8654(4)
C1 C 1.1014(6) 0.7448(4) 0.3372(5)
H1 H 1.1406 0.7316 0.3035
C2 C 0.5172(6) 0.8456(4) 0.7531(4)
H2 H 0.4998 0.8033 0.7466
C3 C 1.1118(7) 0.7111(5) 0.4108(5)
H3 H 1.1620 0.6709 0.4362
C4 C 0.6112(5) 0.8894(3) 0.7151(4)
C5 C 0.6371(5) 0.9503(3) 0.7272(4)
H4 H 0.7032 0.9786 0.7038
C6 C 0.4491(6) 0.8634(4) 0.8001(4)
H5 H 0.3850 0.8336 0.8249
C7 C 0.4744(6) 0.9253(4) 0.8113(4)
H6 H 0.4288 0.9363 0.8446
C8 C 0.5675(5) 0.9707(4) 0.7731(4)
C9 C 1.0206(6) 0.8025(4) 0.3236(4)
H7 H 0.9968 0.8367 0.2778
C10 C 0.6865(6) 0.8702(4) 0.6638(4)
C11 C 0.5952(7) 1.0395(4) 0.7824(4)
C12 C 0.9605(7) 1.0436(4) 0.8959(5)
H8 H 1.0202 1.0073 0.9103
C13 C 0.8807(7) 1.0545(4) 0.8463(4)
H9 H 0.8782 1.0281 0.8186
C14 C 0.9349(6) 1.0972(4) 0.9204(5)
H10 H 0.9779 1.1050 0.9532
C15 C 0.5478(8) 1.3459(5) 0.6245(5)
H11 H 0.5278 1.3972 0.6057
C16 C 0.5466(8) 1.3049(6) 0.5863(5)
H12 H 0.5253 1.3206 0.5387
C17 C 0.5829(7) 1.2377(5) 0.6328(5)
H13 H 0.5942 1.1969 0.6217
C18 C 1.0105(8) 0.6581(4) 0.7041(5)
H14 H 1.0795 0.6305 0.7077
C19 C 0.9468(9) 0.6612(5) 0.7611(5)
H15 H 0.9620 0.6365 0.8103
C20 C 0.8545(8) 0.7093(5) 0.7290(5)
H16 H 0.7955 0.7231 0.7542
C21 C 0.5251(7) 0.9285(4) 0.4324(5)
H17 H 0.4526 0.9510 0.4174
C22 C 0.5621(6) 0.8915(4) 0.5023(5)
H18 H 0.5171 0.8850 0.5439
C23 C 0.6183(7) 0.9247(4) 0.3909(4)
H19 H 0.6207 0.9453 0.3403
C24 C 1.0236(7) 1.1826(4) 0.1616(4)
H20 H 1.0755 1.2199 0.1569
C25 C 0.9607(7) 1.1932(4) 0.1042(4)
H21 H 0.9707 1.2373 0.0608
C26 C 1.0124(7) 1.1178(4) 0.2268(4)
H22 H 1.0562 1.1111 0.2659
C27 C 0.8835(6) 1.1405(4) 0.1092(4)
C28 C 0.8702(5) 1.0747(3) 0.1743(4)
H23 H 0.8173 1.0382 0.1784
C29 C 0.9344(5) 1.0629(4) 0.2330(3)
C30 C 0.9207(5) 0.9919(4) 0.3033(4)
C31 C 0.8153(6) 1.1514(4) 0.0450(4)
C32 C 0.5498(7) 1.5888(4) 0.6522(6)
H24 H 0.6212 1.5667 0.6702
C33 C 0.4348(7) 1.7005(4) 0.5898(6)
H25 H 0.4285 1.7532 0.5658
C34 C 0.4650(8) 1.4599(4) 0.7041(5)
C35 C 0.3396(6) 1.6569(3) 0.6002(4)
C36 C 0.2242(7) 1.6944(4) 0.5729(4)
C37 C 0.3473(6) 1.5795(3) 0.6374(4)
H26 H 0.2813 1.5501 0.6456
C38 C 0.4545(6) 1.5442(3) 0.6631(4)
C39 C 0.5387(8) 1.6667(5) 0.6144(6)
H27 H 0.6039 1.6968 0.6055
C40 C 0.5242(10) 1.3807(6) 0.8863(7)
H28 H 0.4712 1.4180 0.8589
C41 C 0.5546(13) 1.3633(8) 0.9574(8)
H29 H 0.5255 1.3864 0.9860
C42 C 0.6353(11) 1.3058(6) 0.9761(7)
H30 H 0.6719 1.2829 1.0200
O15 O 1.0383(4) 0.9139(2) 0.5460(2)
N13 N 1.1829(5) 0.8729(3) 0.6238(3)
C43 C 1.0783(6) 0.8705(4) 0.6029(4)
H31 H 1.0302 0.8316 0.6352
Cu6 Cu 0.74906(7) 1.21254(4) 0.90738(5)
C44 C 1.2616(8) 0.9311(5) 0.5734(5)
H32 H 1.2200 0.9660 0.5323
H33 H 1.3245 0.9078 0.5572
H34 H 1.2925 0.9581 0.5974
C45 C 1.2221(9) 0.8121(6) 0.6937(6)
H35 H 1.1577 0.7798 0.7198
H36 H 1.2508 0.8346 0.7223
H37 H 1.2832 0.7826 0.6840
Na1 Na 1.1030(2) 0.99390(13) 0.42687(14)
O16 O 1.2149(4) 0.8952(2) 0.4158(3)
Cu5_2 Cu 0.00432(7) 1.72263(4) 0.54243(5)
O2A O 1.2250(4) 1.0920(2) 0.3689(2)
O7_2 O 0.7316(4) 1.1093(3) 1.0539(3)
O8_2 O 1.1407(4) 0.6516(3) 0.5754(3)
O12_2 O 0.8490(4) 1.2056(3) 0.9836(3)
O13_2 O 1.2158(4) 0.7651(2) 0.5475(3)
O15A O 0.9617(4) 1.0861(2) 0.4540(2)
Cu6_2 Cu 0.74906(7) 1.21254(4) -0.09262(5)
Na1A Na 0.8970(2) 1.00610(13) 0.57313(14)
loop_
_geom_bond_atom_site_label_1
_geom_bond_atom_site_label_2
_geom_bond_site_symmetry_1
_geom_bond_site_symmetry_2
Cu1 O1 1_555 1_555
Cu2 O1 1_555 1_555
Cu3 O4 1_555 1_555
Cu4 O6 1_555 1_555
Cu5 O1 1_555 1_555
O2 Cu2 1_555 1_555
O3 Cu2 1_555 1_555
O4 C11 1_555 1_555
O5 Cu3 1_555 1_555
O6 Cu3 1_555 1_555
O7 C31 1_555 1_555
O8 C36 1_555 1_555
O9 Cu1 1_555 1_555
O10 Cu1 1_555 1_555
O11 Cu4 1_555 1_555
O12 C31 1_555 1_555
O13 C36 1_555 1_555
O14 C34 1_555 1_555
N1 Cu1 1_555 1_555
N2 Cu5 1_555 1_555
N3 Cu3 1_555 1_555
N4 N3 1_555 1_555
N5 Cu4 1_555 1_555
N6 Cu3 1_555 1_555
N7 Cu2 1_555 1_555
N8 Cu5 1_555 1_555
N9 Cu2 1_555 1_555
N10 Cu1 1_555 1_555
N11 N12 1_555 1_555
N12 Cu4 1_555 1_555
C1 H1 1_555 1_555
C2 H2 1_555 1_555
C3 N2 1_555 1_555
H3 C3 1_555 1_555
C4 C2 1_555 1_555
C5 C4 1_555 1_555
H4 C5 1_555 1_555
C6 C2 1_555 1_555
H5 C6 1_555 1_555
C7 C6 1_555 1_555
H6 C7 1_555 1_555
C8 C5 1_555 1_555
C9 N1 1_555 1_555
H7 C9 1_555 1_555
C10 O2 1_555 1_555
C11 O5 1_555 1_555
C12 H8 1_555 1_555
C13 N3 1_555 1_555
H9 C13 1_555 1_555
C14 N4 1_555 1_555
H10 C14 1_555 1_555
C15 N5 1_555 1_555
H11 C15 1_555 1_555
C16 C15 1_555 1_555
H12 C16 1_555 1_555
C17 N6 1_555 1_555
H13 C17 1_555 1_555
C18 N8 1_555 1_555
H14 C18 1_555 1_555
C19 C18 1_555 1_555
H15 C19 1_555 1_555
C20 N7 1_555 1_555
H16 C20 1_555 1_555
C21 H17 1_555 1_555
C22 N9 1_555 1_555
H18 C22 1_555 1_555
C23 N10 1_555 1_555
H19 C23 1_555 1_555
C24 H20 1_555 1_555
C25 C24 1_555 1_555
H21 C25 1_555 1_555
C26 C24 1_555 1_555
H22 C26 1_555 1_555
C27 C25 1_555 1_555
C28 C27 1_555 1_555
H23 C28 1_555 1_555
C29 C26 1_555 1_555
C30 O9 1_555 1_555
C31 C27 1_555 1_555
C32 H24 1_555 1_555
C33 H25 1_555 1_555
C34 O11 1_555 1_555
C35 C33 1_555 1_555
C36 C35 1_555 1_555
C37 C35 1_555 1_555
H26 C37 1_555 1_555
C38 C32 1_555 1_555
C39 C32 1_555 1_555
H27 C39 1_555 1_555
C40 N12 1_555 1_555
H28 C40 1_555 1_555
C41 C40 1_555 1_555
H29 C41 1_555 1_555
C42 N11 1_555 1_555
H30 C42 1_555 1_555
O15 C43 1_555 1_555
N13 C43 1_555 1_555
C43 H31 1_555 1_555
Cu6 O6 1_555 1_555
C44 N13 1_555 1_555
H32 C44 1_555 1_555
H33 C44 1_555 1_555
H34 C44 1_555 1_555
C45 N13 1_555 1_555
H35 C45 1_555 1_555
H36 C45 1_555 1_555
H37 C45 1_555 1_555
Na1 O9 1_555 1_555
O16 Na1 1_555 1_555
Cu5_2 O8 1_555 1_555
O2A Na1 1_555 1_555
O7_2 Cu6 1_555 1_555
O8_2 Cu5 1_555 1_555
O12_2 Cu6 1_555 1_555
O13_2 Cu5 1_555 1_555
O15A Na1 1_555 1_555
Cu6_2 O7 1_555 1_555
Na1A O2 1_555 1_555
O3 C10 1_555 1_555
O10 C30 1_555 1_555
O12 Cu6_2 1_555 1_555
O13 Cu5_2 1_555 1_555
N1 N2 1_555 1_555
N4 Cu6 1_555 1_555
N5 N6 1_555 1_555
N7 N8 1_555 1_555
N9 N10 1_555 1_555
N11 Cu6 1_555 1_555
C1 C3 1_555 1_555
C1 C9 1_555 1_555
C4 C10 1_555 1_555
C7 C8 1_555 1_555
C8 C11 1_555 1_555
C12 C13 1_555 1_555
C12 C14 1_555 1_555
C16 C17 1_555 1_555
C19 C20 1_555 1_555
C21 C22 1_555 1_555
C21 C23 1_555 1_555
C28 C29 1_555 1_555
C29 C30 1_555 1_555
C33 C39 1_555 1_555
C34 C38 1_555 1_555
C37 C38 1_555 1_555
C41 C42 1_555 1_555
O15 Na1 1_555 1_555
O15 Na1A 1_555 1_555
O15A Na1A 1_555 1_555

#END
