
#######################################################################
#
#                 Cambridge Crystallographic Data Centre
#                                CCDC 
#
#######################################################################
#
# If this CIF has been generated from an entry in the Cambridge 
# Structural Database, then it will include bibliographic, chemical, 
# crystal, experimental, refinement or atomic coordinate data resulting 
# from the CCDC's data processing and validation procedures.
#
#######################################################################

data_GOBFEI01
_symmetry_cell_setting           monoclinic
_symmetry_space_group_name_H-M   'P 21/c'
_symmetry_Int_Tables_number      14
_space_group_name_Hall           '-P 2ybc'
loop_
_symmetry_equiv_pos_site_id
_symmetry_equiv_pos_as_xyz
1 x,y,z
2 -x,1/2+y,1/2-z
3 -x,-y,-z
4 x,1/2-y,1/2+z
_cell_length_a                   11.5831(3)
_cell_length_b                   10.9655(2)
_cell_length_c                   20.2846(4)
_cell_angle_alpha                90
_cell_angle_beta                 99.5261(2)
_cell_angle_gamma                90
_cell_volume                     2540.91
loop_
_atom_site_label
_atom_site_type_symbol
_atom_site_fract_x
_atom_site_fract_y
_atom_site_fract_z
K1 K -0.169780 -0.179970 0.121730
O1 O -0.005840 -0.001730 0.100440
O2 O 0.039650 -0.155600 0.212370
O3 O -0.056300 -0.386780 0.183790
O4 O -0.236350 -0.414220 0.071870
O5 O -0.354070 -0.204390 0.018290
O6 O -0.211080 0.003650 0.024630
C4 C 0.105620 -0.003680 0.143710
H1 H 0.106330 0.055850 0.179150
H2 H 0.167130 0.017260 0.118560
C5 C 0.126860 -0.128240 0.173070
H3 H 0.124470 -0.187950 0.137580
H4 H 0.203680 -0.131560 0.200620
C6 C 0.066430 -0.260080 0.254420
H5 H 0.012250 -0.263200 0.286090
H6 H 0.144680 -0.250830 0.279700
C7 C 0.060160 -0.374880 0.217930
H7 H 0.114540 -0.374350 0.186350
H8 H 0.079890 -0.442430 0.248610
C8 C -0.071730 -0.494130 0.145250
H9 H -0.041370 -0.563860 0.172070
H10 H -0.030540 -0.487970 0.107460
C9 C -0.197130 -0.508130 0.122100
H11 H -0.239090 -0.499880 0.159470
H12 H -0.213180 -0.588470 0.102740
C10 C -0.352780 -0.416970 0.048080
H13 H -0.396340 -0.395620 0.083360
H14 H -0.375820 -0.498410 0.032490
C11 C -0.378550 -0.330590 -0.006660
H15 H -0.460190 -0.337560 -0.026980
H16 H -0.330940 -0.348990 -0.040480
C12 C -0.360780 -0.124510 -0.034740
H17 H -0.439880 -0.124890 -0.059610
H18 H -0.308560 -0.151780 -0.064510
C13 C -0.328540 0.003110 -0.012060
H19 H -0.333610 0.056690 -0.050480
H20 H -0.382470 0.032550 0.016180
C14 C -0.147180 0.108410 0.026590
C15 C -0.183340 0.214340 -0.008100
H21 H -0.259290 0.219340 -0.031580
C16 C -0.109820 0.311320 -0.008510
H22 H -0.135320 0.380990 -0.032770
C17 C 0.002330 0.306150 0.027050
H23 H 0.053300 0.371250 0.025610
C18 C 0.039390 0.203100 0.065260
H24 H 0.113900 0.200920 0.090730
C19 C -0.034760 0.104510 0.065140
Cd1 Cd -0.472800 -0.038870 0.252070
S1 S -0.371170 0.088150 0.362080
S2 S -0.357890 0.088720 0.166350
S3 S -0.731260 0.325120 0.223000
C1 C -0.421180 0.226420 0.344620
C2 C -0.403610 0.227260 0.177550
C3 C -0.669500 0.189360 0.229160
N1 N -0.454230 0.324170 0.334200
N2 N -0.435220 0.325660 0.183580
N3 N -0.627020 0.094070 0.232870
N1A N -0.545770 -0.175830 0.165800
Cd1A Cd -0.527200 0.461130 0.247930
S3A S -0.268740 -0.174880 0.277000
N2A N -0.564780 -0.174340 0.316420
loop_
_geom_bond_atom_site_label_1
_geom_bond_atom_site_label_2
_geom_bond_site_symmetry_1
_geom_bond_site_symmetry_2
Cd1 S1 1_555 1_555
S1 C1 1_555 1_555
S2 Cd1 1_555 1_555
S3 C3 1_555 1_555
C1 N1 1_555 1_555
C2 S2 1_555 1_555
C3 N3 1_555 1_555
N1 Cd1A 1_555 1_555
N2 C2 1_555 1_555
N3 Cd1 1_555 1_555
K1 O1 1_555 1_555
O1 C4 1_555 1_555
O2 K1 1_555 1_555
O3 K1 1_555 1_555
O4 K1 1_555 1_555
O5 K1 1_555 1_555
O6 K1 1_555 1_555
C4 H1 1_555 1_555
H2 C4 1_555 1_555
C5 O2 1_555 1_555
H3 C5 1_555 1_555
H4 C5 1_555 1_555
C6 O2 1_555 1_555
H5 C6 1_555 1_555
H6 C6 1_555 1_555
C7 O3 1_555 1_555
H7 C7 1_555 1_555
H8 C7 1_555 1_555
C8 O3 1_555 1_555
H9 C8 1_555 1_555
H10 C8 1_555 1_555
C9 O4 1_555 1_555
H11 C9 1_555 1_555
H12 C9 1_555 1_555
C10 O4 1_555 1_555
H13 C10 1_555 1_555
H14 C10 1_555 1_555
C11 O5 1_555 1_555
H15 C11 1_555 1_555
H16 C11 1_555 1_555
C12 O5 1_555 1_555
H17 C12 1_555 1_555
H18 C12 1_555 1_555
C13 O6 1_555 1_555
H19 C13 1_555 1_555
H20 C13 1_555 1_555
C14 O6 1_555 1_555
C15 C14 1_555 1_555
H21 C15 1_555 1_555
C16 C15 1_555 1_555
H22 C16 1_555 1_555
C17 C16 1_555 1_555
H23 C17 1_555 1_555
C18 C17 1_555 1_555
H24 C18 1_555 1_555
C19 O1 1_555 1_555
N1A Cd1 1_555 1_555
Cd1A S3 1_555 1_555
S3A Cd1 1_555 1_555
N2A Cd1 1_555 1_555
N2 Cd1A 1_555 1_555
C4 C5 1_555 1_555
C6 C7 1_555 1_555
C8 C9 1_555 1_555
C10 C11 1_555 1_555
C12 C13 1_555 1_555
C14 C19 1_555 1_555
C18 C19 1_555 1_555

#END
