
#######################################################################
#
#                 Cambridge Crystallographic Data Centre
#                                CCDC 
#
#######################################################################
#
# If this CIF has been generated from an entry in the Cambridge 
# Structural Database, then it will include bibliographic, chemical, 
# crystal, experimental, refinement or atomic coordinate data resulting 
# from the CCDC's data processing and validation procedures.
#
#######################################################################

data_GOBFUZ
_symmetry_cell_setting           cubic
_symmetry_space_group_name_H-M   'I m -3 m'
_symmetry_Int_Tables_number      229
_space_group_name_Hall           '-I 4 2 3'
loop_
_symmetry_equiv_pos_site_id
_symmetry_equiv_pos_as_xyz
1 x,y,z
2 z,x,y
3 y,z,x
4 y,x,-z
5 y,-x,z
6 -y,x,z
7 x,z,-y
8 -x,z,y
9 x,-z,y
10 z,y,-x
11 z,-y,x
12 -z,y,x
13 1/2+x,1/2+y,1/2+z
14 1/2+z,1/2+x,1/2+y
15 1/2+y,1/2+z,1/2+x
16 1/2+y,1/2+x,1/2-z
17 1/2+y,1/2-x,1/2+z
18 1/2-y,1/2+x,1/2+z
19 1/2+x,1/2+z,1/2-y
20 1/2-x,1/2+z,1/2+y
21 1/2+x,1/2-z,1/2+y
22 1/2+z,1/2+y,1/2-x
23 1/2+z,1/2-y,1/2+x
24 1/2-z,1/2+y,1/2+x
25 -x,-y,z
26 -x,y,-z
27 x,-y,-z
28 z,-x,-y
29 -z,-x,y
30 -z,x,-y
31 -y,z,-x
32 y,-z,-x
33 -y,-z,x
34 -y,-x,-z
35 -x,-z,-y
36 -z,-y,-x
37 1/2-x,1/2-y,1/2+z
38 1/2-x,1/2+y,1/2-z
39 1/2+x,1/2-y,1/2-z
40 1/2+z,1/2-x,1/2-y
41 1/2-z,1/2-x,1/2+y
42 1/2-z,1/2+x,1/2-y
43 1/2-y,1/2+z,1/2-x
44 1/2+y,1/2-z,1/2-x
45 1/2-y,1/2-z,1/2+x
46 1/2-y,1/2-x,1/2-z
47 1/2-x,1/2-z,1/2-y
48 1/2-z,1/2-y,1/2-x
49 -x,-y,-z
50 -z,-x,-y
51 -y,-z,-x
52 -y,-x,z
53 -y,x,-z
54 y,-x,-z
55 -x,-z,y
56 x,-z,-y
57 -x,z,-y
58 -z,-y,x
59 -z,y,-x
60 z,-y,-x
61 1/2-x,1/2-y,1/2-z
62 1/2-z,1/2-x,1/2-y
63 1/2-y,1/2-z,1/2-x
64 1/2-y,1/2-x,1/2+z
65 1/2-y,1/2+x,1/2-z
66 1/2+y,1/2-x,1/2-z
67 1/2-x,1/2-z,1/2+y
68 1/2+x,1/2-z,1/2-y
69 1/2-x,1/2+z,1/2-y
70 1/2-z,1/2-y,1/2+x
71 1/2-z,1/2+y,1/2-x
72 1/2+z,1/2-y,1/2-x
73 x,y,-z
74 x,-y,z
75 -x,y,z
76 -z,x,y
77 z,x,-y
78 z,-x,y
79 y,-z,x
80 -y,z,x
81 y,z,-x
82 y,x,z
83 x,z,y
84 z,y,x
85 1/2+x,1/2+y,1/2-z
86 1/2+x,1/2-y,1/2+z
87 1/2-x,1/2+y,1/2+z
88 1/2-z,1/2+x,1/2+y
89 1/2+z,1/2+x,1/2-y
90 1/2+z,1/2-x,1/2+y
91 1/2+y,1/2-z,1/2+x
92 1/2-y,1/2+z,1/2+x
93 1/2+y,1/2+z,1/2-x
94 1/2+y,1/2+x,1/2+z
95 1/2+x,1/2+z,1/2+y
96 1/2+z,1/2+y,1/2+x
_cell_length_a                   18.761(4)
_cell_length_b                   18.761(4)
_cell_length_c                   18.761(4)
_cell_angle_alpha                90
_cell_angle_beta                 90
_cell_angle_gamma                90
_cell_volume                     6603.41
loop_
_atom_site_label
_atom_site_type_symbol
_atom_site_fract_x
_atom_site_fract_y
_atom_site_fract_z
K1 K 0.0000 0.2189(5) 0.0000
Na1 Na 0.0000 0.3202(18) 0.0000
O3 O 0.3212(18) 0.3212(18) 0.174(2)
N2 N 0.0907(17) 0.0907(17) 0.0907(17)
O4 O 0.1142(13) 0.1142(13) 0.0324(16)
N2C N 0.0907(17) 0.0907(17) -0.0907(17)
O4A O 0.0324(16) 0.1142(13) 0.1142(13)
O4B O 0.1142(13) 0.0324(16) 0.1142(13)
O4C O 0.1142(13) 0.1142(13) -0.0324(16)
O4K O -0.0324(16) 0.1142(13) 0.1142(13)
O4H O 0.1142(13) -0.0324(16) 0.1142(13)
In1 In 0.2500 0.5000 0.0000
N1 N 0.2912(4) 0.3798(4) 0.0000
O1 O 0.1577(3) 0.4241(3) 0.0000
O2 O 0.1172(4) 0.3115(4) 0.0000
C1 C 0.3596(5) 0.3596(5) 0.0000
H1 H 0.3946 0.3946 0.0000
C2 C 0.2412(5) 0.3296(5) 0.0000
C3 C 0.2588(6) 0.2588(6) 0.0000
H2 H 0.2237 0.2237 0.0000
C4 C 0.1658(5) 0.3578(6) 0.0000
In1C In 0.5000 0.2500 0.0000
In1I In 0.0000 0.5000 -0.2500
N1C N 0.3798(4) 0.2912(4) 0.0000
N1S N 0.2088(4) 0.5000 -0.1202(4)
N1MC N 0.1202(4) 0.5000 -0.2088(4)
N1UB N 0.2912(4) 0.6202(4) 0.0000
N1PB N 0.2088(4) 0.5000 0.1202(4)
O1S O 0.3423(3) 0.5000 -0.0759(3)
O1UB O 0.1577(3) 0.5759(3) 0.0000
O1PB O 0.3423(3) 0.5000 0.0759(3)
O1C O 0.4241(3) 0.1577(3) 0.0000
O1MC O 0.0759(3) 0.5000 -0.3423(3)
O2S O 0.3828(4) 0.5000 -0.1885(4)
O2C O 0.3115(4) 0.1172(4) 0.0000
O2MC O 0.1885(4) 0.5000 -0.3828(4)
C1S C 0.1404(5) 0.5000 -0.1404(5)
H1S H 0.1054 0.5000 -0.1054
C2C C 0.3296(5) 0.2412(5) 0.0000
C2S C 0.2588(5) 0.5000 -0.1704(5)
C2MC C 0.1704(5) 0.5000 -0.2588(5)
C3S C 0.2412(6) 0.5000 -0.2412(6)
H2S H 0.2763 0.5000 -0.2763
C4S C 0.3342(5) 0.5000 -0.1422(6)
C4C C 0.3578(6) 0.1658(5) 0.0000
C4MC C 0.1422(6) 0.5000 -0.3342(5)
K2? K 0.0000 0.4084(6) 0.0000
O5? O 0.0000 0.537(4) 0.0000
loop_
_geom_bond_atom_site_label_1
_geom_bond_atom_site_label_2
_geom_bond_site_symmetry_1
_geom_bond_site_symmetry_2
In1 N1 1_555 1_555
N1 C1 1_555 1_555
O1 In1 1_555 1_555
O2 C4 1_555 1_555
C1 H1 1_555 1_555
C2 N1 1_555 1_555
C3 C2 1_555 1_555
H2 C3 1_555 1_555
C4 O1 1_555 1_555
N2 O4 1_555 1_555
O4 O4C 1_555 1_555
In1C N1C 1_555 1_555
In1I N1MC 1_555 1_555
N1C C1 1_555 1_555
N1S In1 1_555 1_555
N1MC C1S 1_555 1_555
N1UB In1 1_555 1_555
N1PB In1 1_555 1_555
O1S In1 1_555 1_555
O1UB In1 1_555 1_555
O1PB In1 1_555 1_555
O1C In1C 1_555 1_555
O1MC In1I 1_555 1_555
O2S C4S 1_555 1_555
O2C C4C 1_555 1_555
O2MC C4MC 1_555 1_555
C1S N1S 1_555 1_555
H1S C1S 1_555 1_555
C2C C3 1_555 1_555
C2S N1S 1_555 1_555
C2MC N1MC 1_555 1_555
C3S C2S 1_555 1_555
H2S C3S 1_555 1_555
C4S O1S 1_555 1_555
C4C O1C 1_555 1_555
C4MC O1MC 1_555 1_555
N2C O4C 1_555 1_555
O4A N2 1_555 1_555
O4B N2 1_555 1_555
O4K O4A 1_555 1_555
O4H O4B 1_555 1_555
C2 C4 1_555 1_555
N1C C2C 1_555 1_555
C2C C4C 1_555 1_555
C2S C4S 1_555 1_555
C2MC C3S 1_555 1_555
C2MC C4MC 1_555 1_555

#END
