
#######################################################################
#
#                 Cambridge Crystallographic Data Centre
#                                CCDC 
#
#######################################################################
#
# If this CIF has been generated from an entry in the Cambridge 
# Structural Database, then it will include bibliographic, chemical, 
# crystal, experimental, refinement or atomic coordinate data resulting 
# from the CCDC's data processing and validation procedures.
#
#######################################################################

data_GOBHIQ
_symmetry_cell_setting           tetragonal
_symmetry_space_group_name_H-M   'I 41/a'
_symmetry_Int_Tables_number      88
_space_group_name_Hall           '-I 4ad'
loop_
_symmetry_equiv_pos_site_id
_symmetry_equiv_pos_as_xyz
1 x,y,z
2 -x,1/2-y,z
3 3/4-y,1/4+x,1/4+z
4 1/4+y,1/4-x,1/4+z
5 1/2+x,1/2+y,1/2+z
6 1/2-x,-y,1/2+z
7 1/4-y,3/4+x,3/4+z
8 3/4+y,3/4-x,3/4+z
9 -x,-y,-z
10 x,1/2+y,-z
11 1/4+y,3/4-x,3/4-z
12 3/4-y,3/4+x,3/4-z
13 1/2-x,1/2-y,1/2-z
14 1/2+x,y,1/2-z
15 3/4+y,1/4-x,1/4-z
16 1/4-y,1/4+x,1/4-z
_cell_length_a                   17.158(3)
_cell_length_b                   17.158(3)
_cell_length_c                   15.910(5)
_cell_angle_alpha                90
_cell_angle_beta                 90
_cell_angle_gamma                90
_cell_volume                     4683.86
loop_
_atom_site_label
_atom_site_type_symbol
_atom_site_fract_x
_atom_site_fract_y
_atom_site_fract_z
Co1 Co 0.0000 0.2500 0.1250
N1 N 0.07792(15) 0.33448(14) 0.13194(15)
N2 N 0.28035(15) 0.26221(15) 0.11605(16)
N3 N 0.0000 0.2500 0.26898(19)
O1 O 0.31734(12) 0.22344(13) 0.16636(15)
O2 O 0.30890(13) 0.30370(14) 0.06117(14)
C1 C 0.06187(17) 0.41119(17) 0.15180(18)
C2 C 0.13018(18) 0.44875(18) 0.18840(19)
C3 C 0.18954(17) 0.39649(17) 0.18298(18)
C4 C 0.15658(17) 0.32660(17) 0.14513(19)
C5 C 0.19404(17) 0.25870(18) 0.11996(18)
C6 C 0.27116(17) 0.40936(18) 0.2161(2)
H1 H 0.2977 0.3583 0.2208
H2 H 0.2678 0.4320 0.2733
C7 C 0.32058(19) 0.46341(19) 0.1606(2)
H3 H 0.3713 0.4722 0.1874
H4 H 0.2936 0.5133 0.1536
H5 H 0.3284 0.4391 0.1055
C8 C 0.13250(19) 0.52488(18) 0.2363(2)
H6 H 0.1086 0.5664 0.2016
H7 H 0.1874 0.5394 0.2470
C9 C 0.0890(2) 0.5192(2) 0.3202(2)
H8 H 0.0930 0.5689 0.3501
H9 H 0.1120 0.4777 0.3544
H10 H 0.0339 0.5073 0.3096
C10 C -0.01345(19) 0.3151(2) 0.3128(2)
H11 H -0.0242 0.3617 0.2828
C11 C -0.0126(2) 0.3181(3) 0.3987(2)
H12 H -0.0206 0.3661 0.4272
C12 C 0.0000 0.2500 0.4436(4)
C13 C 0.0000 0.2500 0.5359(6)
N4 N 0.0103(9) 0.2101(6) 0.5808(6)
N1N N 0.08448(14) 0.17208(15) 0.11806(15)
N2N N 0.01221(15) -0.03035(15) 0.13395(16)
O1N O -0.02656(13) -0.06734(12) 0.08364(15)
O2N O 0.05370(14) -0.05890(13) 0.18883(14)
C1N C 0.16119(17) 0.18813(17) 0.09820(18)
C2N C 0.19875(18) 0.11982(18) 0.06160(19)
C3N C 0.14649(17) 0.06046(17) 0.06702(18)
C4N C 0.07660(17) 0.09342(17) 0.10487(19)
C5N C 0.00870(18) 0.05596(17) 0.13004(18)
C6N C 0.15936(18) -0.02116(17) 0.0339(2)
H1N H 0.1083 -0.0477 0.0292
H2N H 0.1820 -0.0178 -0.0233
C7N C 0.21341(19) -0.07058(19) 0.0894(2)
H3N H 0.2222 -0.1213 0.0626
H4N H 0.2633 -0.0436 0.0964
H5N H 0.1891 -0.0784 0.1445
C8N C 0.27488(18) 0.11750(19) 0.0137(2)
H6N H 0.3164 0.1414 0.0484
H7N H 0.2894 0.0626 0.0030
C9N C 0.2692(2) 0.1610(2) -0.0702(2)
H8N H 0.3189 0.1570 -0.1001
H9N H 0.2277 0.1380 -0.1044
H10N H 0.2573 0.2161 -0.0596
N1O N -0.08448(14) 0.32792(15) 0.11806(15)
N2O N -0.01221(15) 0.53035(15) 0.13395(16)
O1O O 0.02656(13) 0.56734(12) 0.08364(15)
O2O O -0.05370(14) 0.55890(13) 0.18883(14)
C1O C -0.16119(17) 0.31187(17) 0.09820(18)
C2O C -0.19875(18) 0.38018(18) 0.06160(19)
C3O C -0.14649(17) 0.43954(17) 0.06702(18)
C4O C -0.07660(17) 0.40658(17) 0.10487(19)
C5O C -0.00870(18) 0.44404(17) 0.13004(18)
C6O C -0.15936(18) 0.52116(17) 0.0339(2)
H1O H -0.1083 0.5477 0.0292
H2O H -0.1820 0.5178 -0.0233
C7O C -0.21341(19) 0.57058(19) 0.0894(2)
H3O H -0.2222 0.6213 0.0626
H4O H -0.2633 0.5436 0.0964
H5O H -0.1891 0.5784 0.1445
C8O C -0.27488(18) 0.38250(19) 0.0137(2)
H6O H -0.3164 0.3586 0.0484
H7O H -0.2894 0.4374 0.0030
C9O C -0.2692(2) 0.3390(2) -0.0702(2)
H8O H -0.3189 0.3430 -0.1001
H9O H -0.2277 0.3620 -0.1044
H10O H -0.2573 0.2839 -0.0596
N1A N -0.07792(15) 0.16552(14) 0.13194(15)
N2A N -0.28035(15) 0.23779(15) 0.11605(16)
O1A O -0.31734(12) 0.27656(13) 0.16636(15)
O2A O -0.30890(13) 0.19630(14) 0.06117(14)
C1A C -0.06187(17) 0.08881(17) 0.15180(18)
C2A C -0.13018(18) 0.05125(18) 0.18840(19)
C3A C -0.18954(17) 0.10351(17) 0.18298(18)
C4A C -0.15658(17) 0.17340(17) 0.14513(19)
C5A C -0.19404(17) 0.24130(18) 0.11996(18)
C6A C -0.27116(17) 0.09064(18) 0.2161(2)
H1A H -0.2977 0.1417 0.2208
H2A H -0.2678 0.0680 0.2733
C7A C -0.32058(19) 0.03659(19) 0.1606(2)
H3A H -0.3713 0.0278 0.1874
H4A H -0.2936 -0.0133 0.1536
H5A H -0.3284 0.0609 0.1055
C8A C -0.13250(19) -0.02488(18) 0.2363(2)
H6A H -0.1086 -0.0664 0.2016
H7A H -0.1874 -0.0394 0.2470
C9A C -0.0890(2) -0.0192(2) 0.3202(2)
H8A H -0.0930 -0.0689 0.3501
H9A H -0.1120 0.0223 0.3544
H10A H -0.0339 -0.0073 0.3096
C10A C 0.01345(19) 0.1849(2) 0.3128(2)
H11A H 0.0242 0.1383 0.2828
C11A C 0.0126(2) 0.1819(3) 0.3987(2)
H12A H 0.0206 0.1339 0.4272
N4A N -0.0103(9) 0.2899(6) 0.5808(6)
N3N N 0.0000 0.2500 0.98102(19)
C10N C 0.0651(2) 0.26345(19) 0.9372(2)
H11N H 0.1117 0.2742 0.9672
C11N C 0.0681(3) 0.2626(2) 0.8513(2)
H12N H 0.1161 0.2706 0.8228
C12N C 0.0000 0.2500 0.8064(4)
C13N C 0.0000 0.2500 0.7141(6)
N4N N -0.0399(6) 0.2397(9) 0.6692(6)
C10O C -0.0651(2) 0.23655(19) 0.9372(2)
H11O H -0.1117 0.2258 0.9672
C11O C -0.0681(3) 0.2374(2) 0.8513(2)
H12O H -0.1161 0.2294 0.8228
N4O N 0.0399(6) 0.2603(9) 0.6692(6)
Co1_2 Co 0.0000 0.2500 1.1250
N3N_2 N 0.0000 0.2500 -0.01898(19)
loop_
_geom_bond_atom_site_label_1
_geom_bond_atom_site_label_2
_geom_bond_site_symmetry_1
_geom_bond_site_symmetry_2
Co1 N1 1_555 1_555
N1 C1 1_555 1_555
N2 O1 1_555 1_555
N3 Co1 1_555 1_555
O2 N2 1_555 1_555
C1 C2 1_555 1_555
C2 C3 1_555 1_555
C3 C4 1_555 1_555
C4 N1 1_555 1_555
C5 N2 1_555 1_555
C6 C3 1_555 1_555
H1 C6 1_555 1_555
H2 C6 1_555 1_555
C7 C6 1_555 1_555
H3 C7 1_555 1_555
H4 C7 1_555 1_555
H5 C7 1_555 1_555
C8 C2 1_555 1_555
H6 C8 1_555 1_555
H7 C8 1_555 1_555
C9 C8 1_555 1_555
H8 C9 1_555 1_555
H9 C9 1_555 1_555
H10 C9 1_555 1_555
C10 N3 1_555 1_555
H11 C10 1_555 1_555
C11 C10 1_555 1_555
H12 C11 1_555 1_555
C12 C11 1_555 1_555
C13 C12 1_555 1_555
N4 C13 1_555 1_555
N1N Co1 1_555 1_555
N2N O1N 1_555 1_555
O2N N2N 1_555 1_555
C1N C5 1_555 1_555
C2N C1N 1_555 1_555
C3N C2N 1_555 1_555
C4N N1N 1_555 1_555
C5N N2N 1_555 1_555
C6N C3N 1_555 1_555
H1N C6N 1_555 1_555
H2N C6N 1_555 1_555
C7N C6N 1_555 1_555
H3N C7N 1_555 1_555
H4N C7N 1_555 1_555
H5N C7N 1_555 1_555
C8N C2N 1_555 1_555
H6N C8N 1_555 1_555
H7N C8N 1_555 1_555
C9N C8N 1_555 1_555
H8N C9N 1_555 1_555
H9N C9N 1_555 1_555
H10N C9N 1_555 1_555
N1O Co1 1_555 1_555
N2O O1O 1_555 1_555
O2O N2O 1_555 1_555
C1O N1O 1_555 1_555
C2O C1O 1_555 1_555
C3O C2O 1_555 1_555
C4O N1O 1_555 1_555
C5O C1 1_555 1_555
C6O C3O 1_555 1_555
H1O C6O 1_555 1_555
H2O C6O 1_555 1_555
C7O C6O 1_555 1_555
H3O C7O 1_555 1_555
H4O C7O 1_555 1_555
H5O C7O 1_555 1_555
C8O C2O 1_555 1_555
H6O C8O 1_555 1_555
H7O C8O 1_555 1_555
C9O C8O 1_555 1_555
H8O C9O 1_555 1_555
H9O C9O 1_555 1_555
H10O C9O 1_555 1_555
N1A Co1 1_555 1_555
N2A O1A 1_555 1_555
O2A N2A 1_555 1_555
C1A C5N 1_555 1_555
C2A C1A 1_555 1_555
C3A C2A 1_555 1_555
C4A N1A 1_555 1_555
C5A C1O 1_555 1_555
C6A C3A 1_555 1_555
H1A C6A 1_555 1_555
H2A C6A 1_555 1_555
C7A C6A 1_555 1_555
H3A C7A 1_555 1_555
H4A C7A 1_555 1_555
H5A C7A 1_555 1_555
C8A C2A 1_555 1_555
H6A C8A 1_555 1_555
H7A C8A 1_555 1_555
C9A C8A 1_555 1_555
H8A C9A 1_555 1_555
H9A C9A 1_555 1_555
H10A C9A 1_555 1_555
C10A N3 1_555 1_555
H11A C10A 1_555 1_555
C11A C12 1_555 1_555
H12A C11A 1_555 1_555
N4A C13 1_555 1_555
N3N C10N 1_555 1_555
C10N H11N 1_555 1_555
C11N C10N 1_555 1_555
H12N C11N 1_555 1_555
C12N C11N 1_555 1_555
C13N C12N 1_555 1_555
N4N N4 1_555 1_555
C10O N3N 1_555 1_555
H11O C10O 1_555 1_555
C11O C12N 1_555 1_555
H12O C11O 1_555 1_555
N4O N4 1_555 1_555
Co1_2 N3N 1_555 1_555
N3N_2 Co1 1_555 1_555
C4 C5 1_555 1_555
N4 N4A 1_555 1_555
N1N C1N 1_555 1_555
C3N C4N 1_555 1_555
C4N C5N 1_555 1_555
N2O C5O 1_555 1_555
C3O C4O 1_555 1_555
C4O C5O 1_555 1_555
N1A C1A 1_555 1_555
N2A C5A 1_555 1_555
C3A C4A 1_555 1_555
C4A C5A 1_555 1_555
C10A C11A 1_555 1_555
N4A N4N 1_555 1_555
N4A N4O 1_555 1_555
C13N N4N 1_555 1_555
C13N N4O 1_555 1_555
N4N N4O 1_555 1_555
C10O C11O 1_555 1_555

#END
