
#######################################################################
#
#                 Cambridge Crystallographic Data Centre
#                                CCDC 
#
#######################################################################
#
# If this CIF has been generated from an entry in the Cambridge 
# Structural Database, then it will include bibliographic, chemical, 
# crystal, experimental, refinement or atomic coordinate data resulting 
# from the CCDC's data processing and validation procedures.
#
#######################################################################

data_GOBJUC
_symmetry_cell_setting           orthorhombic
_symmetry_space_group_name_H-M   'P b c n'
_symmetry_Int_Tables_number      60
_space_group_name_Hall           '-P 2n 2ab'
loop_
_symmetry_equiv_pos_site_id
_symmetry_equiv_pos_as_xyz
1 x,y,z
2 1/2+x,1/2+y,1/2-z
3 x,-y,1/2+z
4 1/2-x,1/2+y,z
5 -x,-y,-z
6 1/2-x,1/2-y,1/2+z
7 -x,y,1/2-z
8 1/2+x,1/2-y,-z
_cell_length_a                   12.7022(2)
_cell_length_b                   12.61970(10)
_cell_length_c                   23.0110(1)
_cell_angle_alpha                90
_cell_angle_beta                 90
_cell_angle_gamma                90
_cell_volume                     3688.62
loop_
_atom_site_label
_atom_site_type_symbol
_atom_site_fract_x
_atom_site_fract_y
_atom_site_fract_z
Tl1 Tl 0.359200(10) 0.435097(12) 0.515815(5)
O1 O 0.4771(2) 0.4599(2) 0.43173(10)
O2 O 0.2874(2) 0.3641(3) 0.42311(11)
C1 C 0.4465(3) 0.4275(3) 0.38086(14)
C2 C 0.3401(3) 0.3760(3) 0.37685(14)
C3 C 0.3011(3) 0.3421(3) 0.32040(14)
C4 C 0.3647(3) 0.3594(3) 0.27352(14)
H1 H 0.3390(3) 0.3394(3) 0.23633(14)
C5 C 0.4686(3) 0.4061(3) 0.27672(13)
C6 C 0.5081(3) 0.4401(3) 0.33052(13)
C7 C 0.6107(3) 0.4990(3) 0.33636(15)
H2 H 0.6236(3) 0.5152(3) 0.37740(15)
H3 H 0.6072(3) 0.5651(3) 0.31410(15)
H4 H 0.6682(3) 0.4549(3) 0.32138(15)
C8 C 0.1938(3) 0.2880(3) 0.3155(2)
C9 C 0.1934(4) 0.1846(4) 0.3508(2)
H5 H 0.2493(4) 0.1378(4) 0.3366(2)
H6 H 0.1251(4) 0.1494(4) 0.3464(2)
H7 H 0.2055(4) 0.2008(4) 0.3919(2)
C10 C 0.1675(3) 0.2589(5) 0.2518(2)
H8 H 0.2222(3) 0.2120(5) 0.2364(2)
H9 H 0.1642(3) 0.3236(5) 0.2284(2)
H10 H 0.0993(3) 0.2227(5) 0.2504(2)
C11 C 0.1065(3) 0.3610(4) 0.3377(2)
H11 H 0.0384(3) 0.3251(4) 0.3342(2)
H12 H 0.1056(3) 0.4262(4) 0.3145(2)
H13 H 0.1197(3) 0.3786(4) 0.3785(2)
C12 C 0.2817(4) 0.5837(4) 0.5070(2)
H14 H 0.2900(4) 0.6096(4) 0.4671(2)
H15 H 0.3126(4) 0.6348(4) 0.5342(2)
H16 H 0.2066(4) 0.5751(4) 0.5157(2)
C13 C 0.4248(4) 0.2884(4) 0.5437(2)
H17 H 0.4620(4) 0.2549(4) 0.5112(2)
H18 H 0.3683(4) 0.2415(4) 0.5571(2)
H19 H 0.4743(4) 0.3012(4) 0.5756(2)
O3 O 0.1659(3) 0.3723(4) 0.5697(2)
C14 C 0.1535(5) 0.3228(7) 0.6230(3)
H20 H 0.2122(5) 0.3417(7) 0.6493(3)
H21 H 0.1528(5) 0.2449(7) 0.6180(3)
C15 C 0.0477(5) 0.3608(5) 0.6488(3)
H22 H 0.0154(5) 0.3066(5) 0.6743(3)
H23 H 0.0555(5) 0.4281(5) 0.6705(3)
C16 C -0.0128(4) 0.3752(5) 0.5937(3)
H24 H -0.0703(4) 0.4272(5) 0.5989(3)
H25 H -0.0430(4) 0.3072(5) 0.5803(3)
C17 C 0.0686(5) 0.4156(6) 0.5516(3)
H26 H 0.0517(5) 0.3925(6) 0.5116(3)
H27 H 0.0714(5) 0.4940(6) 0.5524(3)
Tl1D Tl 0.640800(10) 0.564903(12) 0.484185(5)
O1D O 0.5229(2) 0.5401(2) 0.56827(10)
C5F C 0.5314(3) 0.4061(3) 0.22328(13)
C4F C 0.6353(3) 0.3594(3) 0.22648(14)
C3F C 0.6989(3) 0.3421(3) 0.17960(14)
C2F C 0.6599(3) 0.3760(3) 0.12315(14)
O2F O 0.7126(2) 0.3641(3) 0.07689(11)
Tl1F Tl 0.640800(10) 0.435097(12) -0.015815(5)
O1F O 0.5229(2) 0.4599(2) 0.06827(10)
Tl1B Tl 0.359200(10) 0.564903(12) 0.015815(5)
O1B O 0.4771(2) 0.5401(2) -0.06827(10)
C12F C 0.7183(4) 0.5837(4) -0.0070(2)
H14F H 0.7100(4) 0.6096(4) 0.0329(2)
H15F H 0.6874(4) 0.6348(4) -0.0342(2)
H16F H 0.7934(4) 0.5751(4) -0.0157(2)
C13F C 0.5752(4) 0.2884(4) -0.0437(2)
H17F H 0.5380(4) 0.2549(4) -0.0112(2)
H18F H 0.6317(4) 0.2415(4) -0.0571(2)
H19F H 0.5257(4) 0.3012(4) -0.0756(2)
O3F O 0.8341(3) 0.3723(4) -0.0697(2)
C14F C 0.8465(5) 0.3228(7) -0.1230(3)
H20F H 0.7878(5) 0.3417(7) -0.1493(3)
H21F H 0.8472(5) 0.2449(7) -0.1180(3)
C15F C 0.9523(5) 0.3608(5) -0.1488(3)
H22F H 0.9846(5) 0.3066(5) -0.1743(3)
H23F H 0.9445(5) 0.4281(5) -0.1705(3)
C16F C 1.0128(4) 0.3752(5) -0.0937(3)
H24F H 1.0703(4) 0.4272(5) -0.0989(3)
H25F H 1.0430(4) 0.3072(5) -0.0803(3)
C17F C 0.9314(5) 0.4156(6) -0.0516(3)
H26F H 0.9483(5) 0.3925(6) -0.0116(3)
H27F H 0.9286(5) 0.4940(6) -0.0524(3)
C1F C 0.5535(3) 0.4275(3) 0.11914(14)
C6F C 0.4919(3) 0.4401(3) 0.16948(13)
C7F C 0.3893(3) 0.4990(3) 0.16364(15)
H2F H 0.3764(3) 0.5152(3) 0.12260(15)
H3F H 0.3928(3) 0.5651(3) 0.18590(15)
H4F H 0.3318(3) 0.4549(3) 0.17862(15)
C8F C 0.8062(3) 0.2880(3) 0.1845(2)
C9F C 0.8066(4) 0.1846(4) 0.1492(2)
H5F H 0.7507(4) 0.1378(4) 0.1634(2)
H6F H 0.8749(4) 0.1494(4) 0.1536(2)
H7F H 0.7945(4) 0.2008(4) 0.1081(2)
C10F C 0.8325(3) 0.2589(5) 0.2482(2)
H8F H 0.7778(3) 0.2120(5) 0.2636(2)
H9F H 0.8358(3) 0.3236(5) 0.2716(2)
H10F H 0.9007(3) 0.2227(5) 0.2496(2)
C11F C 0.8935(3) 0.3610(4) 0.1623(2)
H11F H 0.9616(3) 0.3251(4) 0.1658(2)
H12F H 0.8944(3) 0.4262(4) 0.1855(2)
H13F H 0.8803(3) 0.3786(4) 0.1215(2)
H1F H 0.6610(3) 0.3394(3) 0.26367(14)
loop_
_geom_bond_atom_site_label_1
_geom_bond_atom_site_label_2
_geom_bond_site_symmetry_1
_geom_bond_site_symmetry_2
Tl1 O1 1_555 1_555
O1 C1 1_555 1_555
O2 Tl1 1_555 1_555
C1 C2 1_555 1_555
C2 O2 1_555 1_555
C3 C2 1_555 1_555
C4 C3 1_555 1_555
H1 C4 1_555 1_555
C5 C4 1_555 1_555
C6 C1 1_555 1_555
C7 C6 1_555 1_555
H2 C7 1_555 1_555
H3 C7 1_555 1_555
H4 C7 1_555 1_555
C8 C3 1_555 1_555
C9 C8 1_555 1_555
H5 C9 1_555 1_555
H6 C9 1_555 1_555
H7 C9 1_555 1_555
C10 C8 1_555 1_555
H8 C10 1_555 1_555
H9 C10 1_555 1_555
H10 C10 1_555 1_555
C11 C8 1_555 1_555
H11 C11 1_555 1_555
H12 C11 1_555 1_555
H13 C11 1_555 1_555
C12 Tl1 1_555 1_555
H14 C12 1_555 1_555
H15 C12 1_555 1_555
H16 C12 1_555 1_555
C13 Tl1 1_555 1_555
H17 C13 1_555 1_555
H18 C13 1_555 1_555
H19 C13 1_555 1_555
O3 Tl1 1_555 1_555
C14 O3 1_555 1_555
H20 C14 1_555 1_555
H21 C14 1_555 1_555
C15 C14 1_555 1_555
H22 C15 1_555 1_555
H23 C15 1_555 1_555
C16 C15 1_555 1_555
H24 C16 1_555 1_555
H25 C16 1_555 1_555
C17 O3 1_555 1_555
H26 C17 1_555 1_555
H27 C17 1_555 1_555
Tl1D O1 1_555 1_555
O1D Tl1 1_555 1_555
C5F C5 1_555 1_555
C4F C5F 1_555 1_555
C3F C4F 1_555 1_555
C2F C3F 1_555 1_555
O2F C2F 1_555 1_555
Tl1F O2F 1_555 1_555
O1F Tl1F 1_555 1_555
Tl1B O1F 1_555 1_555
O1B Tl1F 1_555 1_555
C12F Tl1F 1_555 1_555
H14F C12F 1_555 1_555
H15F C12F 1_555 1_555
H16F C12F 1_555 1_555
C13F Tl1F 1_555 1_555
H17F C13F 1_555 1_555
H18F C13F 1_555 1_555
H19F C13F 1_555 1_555
O3F Tl1F 1_555 1_555
C14F O3F 1_555 1_555
H20F C14F 1_555 1_555
H21F C14F 1_555 1_555
C15F C14F 1_555 1_555
H22F C15F 1_555 1_555
H23F C15F 1_555 1_555
C16F C15F 1_555 1_555
H24F C16F 1_555 1_555
H25F C16F 1_555 1_555
C17F O3F 1_555 1_555
H26F C17F 1_555 1_555
H27F C17F 1_555 1_555
C1F C2F 1_555 1_555
C6F C5F 1_555 1_555
C7F C6F 1_555 1_555
H2F C7F 1_555 1_555
H3F C7F 1_555 1_555
H4F C7F 1_555 1_555
C8F C3F 1_555 1_555
C9F C8F 1_555 1_555
H5F C9F 1_555 1_555
H6F C9F 1_555 1_555
H7F C9F 1_555 1_555
C10F C8F 1_555 1_555
H8F C10F 1_555 1_555
H9F C10F 1_555 1_555
H10F C10F 1_555 1_555
C11F C8F 1_555 1_555
H11F C11F 1_555 1_555
H12F C11F 1_555 1_555
H13F C11F 1_555 1_555
H1F C4F 1_555 1_555
C5 C6 1_555 1_555
C16 C17 1_555 1_555
Tl1D O1D 1_555 1_555
O1F C1F 1_555 1_555
Tl1B O1B 1_555 1_555
C16F C17F 1_555 1_555
C1F C6F 1_555 1_555

#END
