
#######################################################################
#
#                 Cambridge Crystallographic Data Centre
#                                CCDC 
#
#######################################################################
#
# If this CIF has been generated from an entry in the Cambridge 
# Structural Database, then it will include bibliographic, chemical, 
# crystal, experimental, refinement or atomic coordinate data resulting 
# from the CCDC's data processing and validation procedures.
#
#######################################################################

data_GOBKEN
_symmetry_cell_setting           monoclinic
_symmetry_space_group_name_H-M   'P 21'
_symmetry_Int_Tables_number      4
_space_group_name_Hall           'P 2yb'
loop_
_symmetry_equiv_pos_site_id
_symmetry_equiv_pos_as_xyz
1 x,y,z
2 -x,1/2+y,-z
_cell_length_a                   14.750(3)
_cell_length_b                   14.846(6)
_cell_length_c                   17.382(2)
_cell_angle_alpha                90
_cell_angle_beta                 103.452(11)
_cell_angle_gamma                90
_cell_volume                     3701.86
loop_
_atom_site_label
_atom_site_type_symbol
_atom_site_fract_x
_atom_site_fract_y
_atom_site_fract_z
Cu1 Cu 0.01370(4) -0.52100(4) -0.17709(3)
P1 P -0.13407(9) -0.48011(9) -0.23589(7)
P2 P 0.12766(8) -0.51128(9) -0.24447(6)
O1 O -0.0182(3) -0.1513(2) 0.1386(2)
O2 O 0.0234(3) -0.1342(2) 0.0234(2)
O3 O -0.0606(3) -0.4980(3) 0.1284(2)
O4 O 0.0563(3) -0.4226(2) -0.0809(2)
N1 N 0.0351(3) -0.3103(3) 0.0004(2)
H1 H 0.0377(3) -0.2699(3) -0.0344(2)
N2 N 0.0103(3) -0.4595(3) 0.0310(2)
H2 H 0.0214(3) -0.5153(3) 0.0237(2)
C1 C -0.2175(4) -0.4585(4) -0.1749(3)
C2 C -0.1994(4) -0.4956(4) -0.0995(3)
H3 H -0.1479(4) -0.5328(4) -0.0824(3)
C3 C -0.2584(5) -0.4770(5) -0.0497(4)
H4 H -0.2454(5) -0.5013(5) 0.0010(4)
C4 C -0.3366(5) -0.4226(5) -0.0746(4)
H5 H -0.3749(5) -0.4098(5) -0.0404(4)
C5 C -0.3569(5) -0.3875(6) -0.1505(4)
H6 H -0.4106(5) -0.3534(6) -0.1683(4)
C6 C -0.2962(4) -0.4038(5) -0.2005(4)
H7 H -0.3084(4) -0.3782(5) -0.2507(4)
C7 C -0.1879(4) -0.5663(4) -0.3060(3)
C8 C -0.2841(4) -0.5739(4) -0.3363(3)
H8 H -0.3247(4) -0.5334(4) -0.3209(3)
C9 C -0.3190(5) -0.6433(5) -0.3903(4)
H9 H -0.3829(5) -0.6487(5) -0.4107(4)
C10 C -0.2586(6) -0.7039(5) -0.4135(4)
H10 H -0.2825(6) -0.7493(5) -0.4493(4)
C11 C -0.1663(6) -0.6974(4) -0.3845(4)
H11 H -0.1262(6) -0.7378(4) -0.4006(4)
C12 C -0.1300(5) -0.6288(4) -0.3295(3)
H12 H -0.0660(5) -0.6256(4) -0.3087(3)
C13 C -0.1442(4) -0.3753(4) -0.2934(3)
C14 C -0.2063(5) -0.3611(5) -0.3663(4)
H13 H -0.2447(5) -0.4076(5) -0.3906(4)
C15 C -0.2107(5) -0.2760(6) -0.4029(5)
H14 H -0.2527(5) -0.2656(6) -0.4510(5)
C16 C -0.1504(5) -0.2063(5) -0.3660(4)
H15 H -0.1535(5) -0.1499(5) -0.3896(4)
C17 C -0.0877(6) -0.2215(4) -0.2957(4)
H16 H -0.0476(6) -0.1757(4) -0.2724(4)
C18 C -0.0834(5) -0.3058(4) -0.2585(4)
H17 H -0.0405(5) -0.3158(4) -0.2108(4)
C19 C 0.1311(4) -0.6139(3) -0.3013(3)
C20 C 0.1393(5) -0.6950(4) -0.2603(3)
H18 H 0.1430(5) -0.6944(4) -0.2061(3)
C21 C 0.1420(5) -0.7770(4) -0.2982(4)
H19 H 0.1471(5) -0.8303(4) -0.2695(4)
C22 C 0.1371(5) -0.7794(4) -0.3776(4)
H20 H 0.1407(5) -0.8341(4) -0.4028(4)
C23 C 0.1269(6) -0.7007(5) -0.4196(4)
H21 H 0.1210(6) -0.7025(5) -0.4740(4)
C24 C 0.1251(5) -0.6175(4) -0.3821(3)
H22 H 0.1199(5) -0.5645(4) -0.4114(3)
C25 C 0.1168(4) -0.4212(3) -0.3185(3)
C26 C 0.0323(4) -0.4181(4) -0.3759(3)
H23 H -0.0128(4) -0.4620(4) -0.3764(3)
C27 C 0.0158(4) -0.3492(4) -0.4325(3)
H24 H -0.0394(4) -0.3487(4) -0.4714(3)
C28 C 0.0811(5) -0.2822(4) -0.4306(3)
H25 H 0.0694(5) -0.2358(4) -0.4676(3)
C29 C 0.1640(4) -0.2841(4) -0.3736(4)
H26 H 0.2082(4) -0.2392(4) -0.3726(4)
C30 C 0.1815(4) -0.3534(4) -0.3173(3)
H27 H 0.2372(4) -0.3538(4) -0.2789(3)
C31 C 0.2484(3) -0.5034(3) -0.1879(3)
C32 C 0.3231(3) -0.5109(4) -0.2244(3)
H28 H 0.3115(3) -0.5176(4) -0.2790(3)
C33 C 0.4142(3) -0.5085(4) -0.1799(3)
H29 H 0.4636(3) -0.5130(4) -0.2045(3)
C34 C 0.4312(4) -0.4993(4) -0.0981(3)
H30 H 0.4921(4) -0.4984(4) -0.0678(3)
C35 C 0.3581(4) -0.4914(4) -0.0619(3)
H31 H 0.3700(4) -0.4843(4) -0.0073(3)
C36 C 0.2661(3) -0.4939(3) -0.1060(3)
H32 H 0.2170(3) -0.4892(3) -0.0810(3)
C37 C 0.0086(4) -0.1793(3) 0.0803(3)
C38 C 0.0304(3) -0.2815(3) 0.0800(3)
H33 H 0.0917(3) -0.2916(3) 0.1155(3)
C39 C 0.0356(3) -0.3967(3) -0.0198(3)
C40 C -0.0307(4) -0.4389(3) 0.0914(3)
C41 C -0.0406(4) -0.3403(3) 0.1085(3)
H34 H -0.0327(4) -0.3321(3) 0.1650(3)
H35 H -0.1030(4) -0.3206(3) 0.0828(3)
O1A O 0.0182(3) -0.6513(2) -0.1386(2)
Cu1A Cu -0.01370(4) -0.02100(4) 0.17709(3)
Cu2 Cu 0.51164(4) -0.01163(5) -0.31000(3)
P3 P 0.66223(9) 0.01883(9) -0.25374(7)
P4 P 0.38943(8) -0.00415(8) -0.25261(6)
O5 O 0.5008(3) 0.3600(2) -0.6462(2)
O6 O 0.4812(3) 0.3803(3) -0.5224(2)
O7 O 0.5371(4) 0.0129(3) -0.6376(2)
O8 O 0.4771(3) 0.0952(2) -0.4036(2)
N3 N 0.5343(4) 0.1721(3) -0.6111(3)
H36 H 0.5727(4) 0.1921(3) -0.6374(3)
N4 N 0.4947(3) 0.0557(3) -0.5257(2)
H37 H 0.4836(3) 0.0004(3) -0.5162(2)
C42 C 0.7400(4) 0.0339(3) -0.3208(3)
C43 C 0.7078(4) 0.0065(4) -0.3991(3)
H38 H 0.6485(4) -0.0184(4) -0.4154(3)
C44 C 0.7638(5) 0.0161(5) -0.4532(3)
H39 H 0.7415(5) -0.0015(5) -0.5055(3)
C45 C 0.8532(5) 0.0522(5) -0.4285(4)
H40 H 0.8908(5) 0.0588(5) -0.4643(4)
C46 C 0.8855(5) 0.0780(4) -0.3504(4)
H41 H 0.9457(5) 0.1005(4) -0.3336(4)
C47 C 0.8292(4) 0.0709(4) -0.2968(4)
H42 H 0.8509(4) 0.0907(4) -0.2451(4)
C48 C 0.7124(4) -0.0724(3) -0.1872(3)
C49 C 0.8044(4) -0.0989(4) -0.1736(3)
H43 H 0.8437(4) -0.0722(4) -0.2018(3)
C50 C 0.8392(5) -0.1659(5) -0.1176(4)
H44 H 0.9010(5) -0.1843(5) -0.1095(4)
C51 C 0.7809(5) -0.2049(5) -0.0741(4)
H45 H 0.8037(5) -0.2486(5) -0.0362(4)
C52 C 0.6894(5) -0.1780(5) -0.0879(4)
H46 H 0.6502(5) -0.2035(5) -0.0591(4)
C53 C 0.6547(4) -0.1125(4) -0.1450(4)
H47 H 0.5923(4) -0.0959(4) -0.1547(4)
C54 C 0.6895(4) 0.1187(4) -0.1890(3)
C55 C 0.7226(4) 0.1109(4) -0.1074(3)
H48 H 0.7363(4) 0.0545(4) -0.0845(3)
C56 C 0.7179(5) 0.2721(4) -0.0928(4)
H49 H 0.7274(5) 0.3229(4) -0.0605(4)
C57 C 0.7352(5) 0.1879(5) -0.0603(4)
H50 H 0.7557(5) 0.1821(5) -0.0057(4)
C58 C 0.6862(5) 0.2814(4) -0.1739(4)
H51 H 0.6752(5) 0.3384(4) -0.1963(4)
C59 C 0.6706(5) 0.2048(4) -0.2222(4)
H52 H 0.6477(5) 0.2110(4) -0.2765(4)
C60 C 0.3954(3) -0.0960(3) -0.1822(3)
C61 C 0.3875(4) -0.1857(3) -0.2116(3)
H53 H 0.3749(4) -0.1956(3) -0.2658(3)
C62 C 0.3981(4) -0.2577(4) -0.1608(4)
H54 H 0.3902(4) -0.3158(4) -0.1812(4)
C63 C 0.4205(4) -0.2450(4) -0.0794(3)
H55 H 0.4294(4) -0.2942(4) -0.0453(3)
C64 C 0.4292(5) -0.1587(4) -0.0503(3)
H56 H 0.4432(5) -0.1495(4) 0.0042(3)
C65 C 0.4174(4) -0.0845(4) -0.1007(3)
H57 H 0.4244(4) -0.0267(4) -0.0796(3)
C66 C 0.3782(3) 0.0984(3) -0.1966(3)
C67 C 0.3153(5) 0.1100(4) -0.1491(3)
H58 H 0.2758(5) 0.0631(4) -0.1430(3)
C68 C 0.3110(4) 0.1916(4) -0.1107(4)
H59 H 0.2669(4) 0.1992(4) -0.0807(4)
C69 C 0.3711(4) 0.2614(4) -0.1163(4)
H60 H 0.3706(4) 0.3144(4) -0.0880(4)
C70 C 0.4315(6) 0.2502(5) -0.1649(5)
H61 H 0.4695(6) 0.2979(5) -0.1721(5)
C71 C 0.4372(5) 0.1690(4) -0.2036(4)
H62 H 0.4807(5) 0.1622(4) -0.2343(4)
C72 C 0.2745(3) -0.0184(4) -0.3207(3)
C73 C 0.1929(4) -0.0321(4) -0.2949(3)
H63 H 0.1949(4) -0.0339(4) -0.2410(3)
C74 C 0.1092(4) -0.0429(4) -0.3492(4)
H64 H 0.0548(4) -0.0523(4) -0.3319(4)
C75 C 0.1058(5) -0.0397(4) -0.4301(4)
H65 H 0.0490(5) -0.0454(4) -0.4666(4)
C76 C 0.1859(4) -0.0282(5) -0.4553(3)
H66 H 0.1837(4) -0.0274(5) -0.5092(3)
C77 C 0.2706(4) -0.0176(4) -0.4012(3)
H67 H 0.3250(4) -0.0100(4) -0.4190(3)
C78 C 0.4870(4) 0.3339(3) -0.5815(3)
C79 C 0.4700(4) 0.2309(3) -0.5752(3)
H68 H 0.4056(4) 0.2182(3) -0.6035(3)
C80 C 0.4796(3) 0.2061(3) -0.4928(2)
H69 H 0.5357(3) 0.2351(3) -0.4628(2)
H70 H 0.4277(3) 0.2332(3) -0.4758(2)
C81 C 0.4838(4) 0.1193(3) -0.4702(3)
C82 C 0.5214(4) 0.0735(3) -0.5938(3)
O5A O 0.4992(3) -0.1400(2) -0.3538(2)
Cu2A Cu 0.48836(4) 0.48837(5) -0.69000(3)
O9 O -0.5422(4) -0.6810(3) -0.3570(3)
C83 C -0.6372(5) -0.6966(6) -0.3726(5)
H71 H -0.6488(5) -0.7602(6) -0.3774(5)
H72 H -0.6670(5) -0.6673(6) -0.4211(5)
H73 H -0.6616(5) -0.6730(6) -0.3301(5)
O10 O 0.0839(4) -0.1938(3) -0.1176(3)
C84 C 0.1551(5) -0.2165(5) -0.1538(4)
H74 H 0.1424(5) -0.1913(5) -0.2061(4)
H75 H 0.1592(5) -0.2808(5) -0.1570(4)
H76 H 0.2130(5) -0.1930(5) -0.1233(4)
loop_
_geom_bond_atom_site_label_1
_geom_bond_atom_site_label_2
_geom_bond_site_symmetry_1
_geom_bond_site_symmetry_2
Cu1 P1 1_555 1_555
P1 C1 1_555 1_555
P2 Cu1 1_555 1_555
O1 C37 1_555 1_555
O2 C37 1_555 1_555
O3 C40 1_555 1_555
O4 Cu1 1_555 1_555
N1 H1 1_555 1_555
N2 H2 1_555 1_555
C1 C2 1_555 1_555
C2 H3 1_555 1_555
C3 C2 1_555 1_555
H4 C3 1_555 1_555
C4 C3 1_555 1_555
H5 C4 1_555 1_555
C5 C4 1_555 1_555
H6 C5 1_555 1_555
C6 C1 1_555 1_555
H7 C6 1_555 1_555
C7 P1 1_555 1_555
C8 C7 1_555 1_555
H8 C8 1_555 1_555
C9 C8 1_555 1_555
H9 C9 1_555 1_555
C10 C9 1_555 1_555
H10 C10 1_555 1_555
C11 C10 1_555 1_555
H11 C11 1_555 1_555
C12 C7 1_555 1_555
H12 C12 1_555 1_555
C13 P1 1_555 1_555
C14 C13 1_555 1_555
H13 C14 1_555 1_555
C15 C14 1_555 1_555
H14 C15 1_555 1_555
C16 C15 1_555 1_555
H15 C16 1_555 1_555
C17 C16 1_555 1_555
H16 C17 1_555 1_555
C18 C13 1_555 1_555
H17 C18 1_555 1_555
C19 P2 1_555 1_555
C20 C19 1_555 1_555
H18 C20 1_555 1_555
C21 C20 1_555 1_555
H19 C21 1_555 1_555
C22 C21 1_555 1_555
H20 C22 1_555 1_555
C23 C22 1_555 1_555
H21 C23 1_555 1_555
C24 C19 1_555 1_555
H22 C24 1_555 1_555
C25 P2 1_555 1_555
C26 C25 1_555 1_555
H23 C26 1_555 1_555
C27 C26 1_555 1_555
H24 C27 1_555 1_555
C28 C27 1_555 1_555
H25 C28 1_555 1_555
C29 C28 1_555 1_555
H26 C29 1_555 1_555
C30 C25 1_555 1_555
H27 C30 1_555 1_555
C31 P2 1_555 1_555
C32 C31 1_555 1_555
H28 C32 1_555 1_555
C33 C32 1_555 1_555
H29 C33 1_555 1_555
C34 C33 1_555 1_555
H30 C34 1_555 1_555
C35 C34 1_555 1_555
H31 C35 1_555 1_555
C36 C31 1_555 1_555
H32 C36 1_555 1_555
C37 C38 1_555 1_555
C38 N1 1_555 1_555
H33 C38 1_555 1_555
C39 O4 1_555 1_555
C40 N2 1_555 1_555
C41 C38 1_555 1_555
H34 C41 1_555 1_555
H35 C41 1_555 1_555
Cu2 P3 1_555 1_555
P3 C42 1_555 1_555
P4 Cu2 1_555 1_555
O5 C78 1_555 1_555
O6 C78 1_555 1_555
O7 C82 1_555 1_555
O8 Cu2 1_555 1_555
N3 H36 1_555 1_555
N4 H37 1_555 1_555
C42 C43 1_555 1_555
C43 H38 1_555 1_555
C44 C43 1_555 1_555
H39 C44 1_555 1_555
C45 C44 1_555 1_555
H40 C45 1_555 1_555
C46 C45 1_555 1_555
H41 C46 1_555 1_555
C47 C42 1_555 1_555
H42 C47 1_555 1_555
C48 P3 1_555 1_555
C49 C48 1_555 1_555
H43 C49 1_555 1_555
C50 C49 1_555 1_555
H44 C50 1_555 1_555
C51 C50 1_555 1_555
H45 C51 1_555 1_555
C52 C51 1_555 1_555
H46 C52 1_555 1_555
C53 C48 1_555 1_555
H47 C53 1_555 1_555
C54 P3 1_555 1_555
C55 C54 1_555 1_555
H48 C55 1_555 1_555
C56 H49 1_555 1_555
C57 C55 1_555 1_555
H50 C57 1_555 1_555
C58 C56 1_555 1_555
H51 C58 1_555 1_555
C59 C54 1_555 1_555
H52 C59 1_555 1_555
C60 P4 1_555 1_555
C61 C60 1_555 1_555
H53 C61 1_555 1_555
C62 C61 1_555 1_555
H54 C62 1_555 1_555
C63 C62 1_555 1_555
H55 C63 1_555 1_555
C64 C63 1_555 1_555
H56 C64 1_555 1_555
C65 C60 1_555 1_555
H57 C65 1_555 1_555
C66 P4 1_555 1_555
C67 C66 1_555 1_555
H58 C67 1_555 1_555
C68 C67 1_555 1_555
H59 C68 1_555 1_555
C69 C68 1_555 1_555
H60 C69 1_555 1_555
C70 C69 1_555 1_555
H61 C70 1_555 1_555
C71 C66 1_555 1_555
H62 C71 1_555 1_555
C72 P4 1_555 1_555
C73 C72 1_555 1_555
H63 C73 1_555 1_555
C74 C73 1_555 1_555
H64 C74 1_555 1_555
C75 C74 1_555 1_555
H65 C75 1_555 1_555
C76 C75 1_555 1_555
H66 C76 1_555 1_555
C77 C72 1_555 1_555
H67 C77 1_555 1_555
C78 C79 1_555 1_555
C79 N3 1_555 1_555
H68 C79 1_555 1_555
C80 C79 1_555 1_555
H69 C80 1_555 1_555
H70 C80 1_555 1_555
C81 O8 1_555 1_555
C82 N3 1_555 1_555
O9 C83 1_555 1_555
C83 H71 1_555 1_555
H72 C83 1_555 1_555
H73 C83 1_555 1_555
O10 C84 1_555 1_555
C84 H74 1_555 1_555
H75 C84 1_555 1_555
H76 C84 1_555 1_555
O1A Cu1 1_555 1_555
Cu1A O1 1_555 1_555
O5A Cu2 1_555 1_555
Cu2A O5 1_555 1_555
N1 C39 1_555 1_555
N2 C39 1_555 1_555
C5 C6 1_555 1_555
C11 C12 1_555 1_555
C17 C18 1_555 1_555
C23 C24 1_555 1_555
C29 C30 1_555 1_555
C35 C36 1_555 1_555
C40 C41 1_555 1_555
N4 C82 1_555 1_555
N4 C81 1_555 1_555
C46 C47 1_555 1_555
C52 C53 1_555 1_555
C56 C57 1_555 1_555
C58 C59 1_555 1_555
C64 C65 1_555 1_555
C70 C71 1_555 1_555
C76 C77 1_555 1_555
C80 C81 1_555 1_555

#END
