
#######################################################################
#
#                 Cambridge Crystallographic Data Centre
#                                CCDC 
#
#######################################################################
#
# If this CIF has been generated from an entry in the Cambridge 
# Structural Database, then it will include bibliographic, chemical, 
# crystal, experimental, refinement or atomic coordinate data resulting 
# from the CCDC's data processing and validation procedures.
#
#######################################################################

data_GOBKAJ
_symmetry_cell_setting           monoclinic
_symmetry_space_group_name_H-M   'P 21'
_symmetry_Int_Tables_number      4
_space_group_name_Hall           'P 2yb'
loop_
_symmetry_equiv_pos_site_id
_symmetry_equiv_pos_as_xyz
1 x,y,z
2 -x,1/2+y,-z
_cell_length_a                   10.088(2)
_cell_length_b                   14.727(3)
_cell_length_c                   12.562(3)
_cell_angle_alpha                90.00
_cell_angle_beta                 100.34(3)
_cell_angle_gamma                90.00
_cell_volume                     1835.98
loop_
_atom_site_label
_atom_site_type_symbol
_atom_site_fract_x
_atom_site_fract_y
_atom_site_fract_z
Cu1 Cu -0.1894(3) -0.4998(2) 0.1848(2)
P1 P -0.1256(5) -0.4925(4) 0.3661(4)
C1 C -0.1881(20) -0.5947(15) 0.4287(14)
C2 C -0.1534(24) -0.6796(15) 0.4079(17)
H1 H -0.0885(24) -0.6868(15) 0.3645(17)
C3 C -0.2073(29) -0.7597(19) 0.4465(19)
H2 H -0.1944(29) -0.8172(19) 0.4195(19)
C4 C -0.2728(31) -0.7463(21) 0.5193(22)
H3 H -0.2672(31) -0.7912(21) 0.5719(22)
C5 C -0.3591(28) -0.6672(23) 0.5326(19)
H4 H -0.4415(28) -0.6685(23) 0.5561(19)
C6 C -0.2893(25) -0.5859(19) 0.5016(17)
H5 H -0.3083(25) -0.5291(19) 0.5275(17)
C7 C 0.0487(19) -0.4953(18) 0.4204(15)
C8 C 0.0974(23) -0.5072(20) 0.5282(18)
H6 H 0.0347(23) -0.5135(20) 0.5737(18)
C9 C 0.2424(26) -0.5111(23) 0.5788(21)
H7 H 0.2726(26) -0.5167(23) 0.6529(21)
C10 C 0.3322(28) -0.5052(26) 0.5005(23)
H8 H 0.4244(28) -0.4992(26) 0.5247(23)
C11 C 0.2836(23) -0.5084(23) 0.3933(22)
H9 H 0.3427(23) -0.5240(23) 0.3474(22)
C12 C 0.1344(20) -0.4877(18) 0.3416(19)
H10 H 0.1051(20) -0.4724(18) 0.2694(19)
C13 C -0.1888(17) -0.3948(12) 0.4322(12)
C14 C -0.3025(19) -0.3548(12) 0.3987(18)
H11 H -0.3545(19) -0.3731(12) 0.3335(18)
C15 C -0.3471(25) -0.2890(13) 0.4537(16)
H12 H -0.4378(25) -0.2733(13) 0.4387(16)
C16 C -0.2651(21) -0.2453(16) 0.5297(16)
H13 H -0.2726(21) -0.1839(16) 0.5448(16)
C17 C -0.1745(20) -0.2971(13) 0.5799(16)
H14 H -0.1401(20) -0.2913(13) 0.6533(16)
C18 C -0.1347(26) -0.3580(13) 0.5204(14)
H15 H -0.0486(26) -0.3796(13) 0.5473(14)
P2 P -0.3952(6) -0.4634(4) 0.0919(4)
C19 C -0.5134(22) -0.5568(16) 0.1052(15)
C20 C -0.6326(20) -0.5695(15) 0.0341(16)
H16 H -0.6529(20) -0.5338(15) -0.0278(16)
C21 C -0.7227(21) -0.6357(19) 0.0548(16)
H17 H -0.8009(21) -0.6442(19) 0.0041(16)
C22 C -0.7037(24) -0.6877(19) 0.1429(19)
H18 H -0.7665(24) -0.7311(19) 0.1547(19)
C23 C -0.5769(26) -0.6728(18) 0.2213(19)
H19 H -0.5606(26) -0.7049(18) 0.2861(19)
C24 C -0.4800(22) -0.6091(16) 0.1971(17)
H20 H -0.3966(22) -0.6030(16) 0.2421(17)
C25 C -0.4183(22) -0.4423(15) -0.0564(14)
C26 C -0.3075(20) -0.4823(17) -0.1043(13)
H21 H -0.2388(20) -0.5168(17) -0.0645(13)
C27 C -0.3147(23) -0.4642(16) -0.2125(15)
H22 H -0.2474(23) -0.4859(16) -0.2476(15)
C28 C -0.4153(27) -0.4165(17) -0.2680(17)
H23 H -0.4118(27) -0.4032(17) -0.3398(17)
C29 C -0.5270(26) -0.3845(19) -0.2263(16)
H24 H -0.6001(26) -0.3553(19) -0.2681(16)
C30 C -0.5168(26) -0.4012(17) -0.1147(16)
H25 H -0.5865(26) -0.3809(17) -0.0812(16)
C31 C -0.4721(29) -0.3548(18) 0.1345(19)
C32 C -0.3901(34) -0.2788(18) 0.1484(23)
H26 H -0.2990(34) -0.2751(18) 0.1449(23)
C33 C -0.4837(34) -0.2027(19) 0.1706(24)
H27 H -0.4514(34) -0.1437(19) 0.1686(24)
C34 C -0.6017(34) -0.2120(20) 0.1916(22)
H28 H -0.6465(34) -0.1603(20) 0.2088(22)
C35 C -0.6588(29) -0.2840(19) 0.1904(21)
H29 H -0.7437(29) -0.2905(19) 0.2087(21)
C36 C -0.5842(29) -0.3584(20) 0.1584(21)
H30 H -0.6249(29) -0.4152(20) 0.1554(21)
O1 O 0.1279(12) -0.1301(10) -0.1514(10)
O2 O 0.0589(13) -0.1096(9) 0.0037(11)
O3 O 0.0902(18) -0.4777(12) -0.1797(11)
O4 O -0.0537(16) -0.3941(9) 0.1272(10)
C37 C 0.0892(24) -0.3188(15) -0.1294(17)
H31 H 0.1159(24) -0.2982(15) -0.1922(17)
N1 N 0.0177(15) -0.4363(11) -0.0252(11)
H32 H -0.0038(15) -0.4913(11) -0.0130(11)
C38 C 0.0715(23) -0.4191(15) -0.1250(18)
C39 C 0.0003(21) -0.3765(14) 0.0451(14)
N2 N 0.0194(16) -0.2821(10) 0.0218(11)
H33 H -0.0059(16) -0.2419(10) 0.0637(11)
C40 C 0.0738(21) -0.2543(15) -0.0606(15)
C41 C 0.0861(21) -0.1540(15) -0.0687(16)
O1A O -0.1279(12) -0.6301(10) 0.1514(10)
Cu1A Cu 0.1894(3) 0.0002(2) -0.1848(2)
O5 O 0.0545(17) -0.6686(10) 0.8057(10)
C42 C 0.0096(30) -0.6996(20) 0.7018(21)
loop_
_geom_bond_atom_site_label_1
_geom_bond_atom_site_label_2
_geom_bond_site_symmetry_1
_geom_bond_site_symmetry_2
Cu1 P1 1_555 1_555
P1 C1 1_555 1_555
C1 C2 1_555 1_555
C2 H1 1_555 1_555
C3 C2 1_555 1_555
H2 C3 1_555 1_555
C4 C3 1_555 1_555
H3 C4 1_555 1_555
C5 C4 1_555 1_555
H4 C5 1_555 1_555
C6 C1 1_555 1_555
H5 C6 1_555 1_555
C7 P1 1_555 1_555
C8 C7 1_555 1_555
H6 C8 1_555 1_555
C9 C8 1_555 1_555
H7 C9 1_555 1_555
C10 C9 1_555 1_555
H8 C10 1_555 1_555
C11 C10 1_555 1_555
H9 C11 1_555 1_555
C12 C7 1_555 1_555
H10 C12 1_555 1_555
C13 P1 1_555 1_555
C14 C13 1_555 1_555
H11 C14 1_555 1_555
C15 C14 1_555 1_555
H12 C15 1_555 1_555
C16 C15 1_555 1_555
H13 C16 1_555 1_555
C17 C16 1_555 1_555
H14 C17 1_555 1_555
C18 C13 1_555 1_555
H15 C18 1_555 1_555
P2 Cu1 1_555 1_555
C19 P2 1_555 1_555
C20 C19 1_555 1_555
H16 C20 1_555 1_555
C21 C20 1_555 1_555
H17 C21 1_555 1_555
C22 C21 1_555 1_555
H18 C22 1_555 1_555
C23 C22 1_555 1_555
H19 C23 1_555 1_555
C24 C19 1_555 1_555
H20 C24 1_555 1_555
C25 P2 1_555 1_555
C26 C25 1_555 1_555
H21 C26 1_555 1_555
C27 C26 1_555 1_555
H22 C27 1_555 1_555
C28 C27 1_555 1_555
H23 C28 1_555 1_555
C29 C28 1_555 1_555
H24 C29 1_555 1_555
C30 C25 1_555 1_555
H25 C30 1_555 1_555
C31 P2 1_555 1_555
C32 C31 1_555 1_555
H26 C32 1_555 1_555
C33 C32 1_555 1_555
H27 C33 1_555 1_555
C34 C33 1_555 1_555
H28 C34 1_555 1_555
C35 C34 1_555 1_555
H29 C35 1_555 1_555
C36 C31 1_555 1_555
H30 C36 1_555 1_555
O1 C41 1_555 1_555
O2 C41 1_555 1_555
O3 C38 1_555 1_555
O4 Cu1 1_555 1_555
C37 H31 1_555 1_555
N1 H32 1_555 1_555
C38 C37 1_555 1_555
C39 O4 1_555 1_555
N2 C39 1_555 1_555
H33 N2 1_555 1_555
C40 C37 1_555 1_555
C41 C40 1_555 1_555
O5 C42 1_555 1_555
O1A Cu1 1_555 1_555
Cu1A O1 1_555 1_555
C5 C6 1_555 1_555
C11 C12 1_555 1_555
C17 C18 1_555 1_555
C23 C24 1_555 1_555
C29 C30 1_555 1_555
C35 C36 1_555 1_555
N1 C39 1_555 1_555
N1 C38 1_555 1_555
N2 C40 1_555 1_555

#END
