
#######################################################################
#
#                 Cambridge Crystallographic Data Centre
#                                CCDC 
#
#######################################################################
#
# If this CIF has been generated from an entry in the Cambridge 
# Structural Database, then it will include bibliographic, chemical, 
# crystal, experimental, refinement or atomic coordinate data resulting 
# from the CCDC's data processing and validation procedures.
#
#######################################################################

data_GOBKUD
_symmetry_cell_setting           orthorhombic
_symmetry_space_group_name_H-M   'P n a 21'
_symmetry_Int_Tables_number      33
_space_group_name_Hall           'P 2c -2n'
loop_
_symmetry_equiv_pos_site_id
_symmetry_equiv_pos_as_xyz
1 x,y,z
2 -x,-y,1/2+z
3 1/2+x,1/2-y,z
4 1/2-x,1/2+y,1/2+z
_cell_length_a                   11.947(2)
_cell_length_b                   11.818(2)
_cell_length_c                   11.227(5)
_cell_angle_alpha                90
_cell_angle_beta                 90
_cell_angle_gamma                90
_cell_volume                     1585.14
loop_
_atom_site_label
_atom_site_type_symbol
_atom_site_fract_x
_atom_site_fract_y
_atom_site_fract_z
Mn1 Mn 0.02487(4) 0.09830(4) -0.00027(6)
O1 O 0.1451(2) -0.0028(2) -0.0147(4)
O2 O 0.1191(2) 0.2047(2) -0.0741(3)
N1 N -0.0751(2) -0.0254(3) 0.0723(3)
N2 N -0.0914(2) 0.2207(2) 0.0179(3)
N3 N -0.0595(3) 0.0431(3) -0.1782(3)
N4 N -0.0654(3) -0.0380(3) -0.2368(3)
N5 N -0.0724(3) -0.1196(3) -0.2986(3)
C1 C 0.1407(3) -0.1140(3) -0.0279(3)
C2 C 0.2336(4) -0.1701(4) -0.0760(4)
H1 H 0.2965(4) -0.1288(4) -0.0981(4)
C3 C 0.2328(4) -0.2854(4) -0.0910(4)
H2 H 0.2946(4) -0.3213(4) -0.1244(4)
C4 C 0.1409(5) -0.3485(4) -0.0571(5)
H3 H 0.1408(5) -0.4265(4) -0.0680(5)
C5 C 0.0509(4) -0.2968(3) -0.0079(7)
H4 H -0.0100(4) -0.3399(3) 0.0165(7)
C6 C 0.0487(3) -0.1779(3) 0.0067(5)
C7 C -0.0485(3) -0.1315(4) 0.0642(4)
H5 H -0.0974(3) -0.1829(4) 0.0992(4)
C8 C -0.1743(3) -0.0006(4) 0.1459(4)
H6 H -0.1504(3) 0.0129(4) 0.2273(4)
H7 H -0.2229(3) -0.0663(4) 0.1462(4)
C9 C -0.2398(3) 0.1004(4) 0.1031(4)
H8 H -0.3082(3) 0.1059(4) 0.1493(4)
H9 H -0.2607(3) 0.0881(4) 0.0206(4)
C10 C -0.1776(3) 0.2114(3) 0.1120(4)
H10 H -0.2302(3) 0.2735(3) 0.1045(4)
H11 H -0.1422(3) 0.2170(3) 0.1895(4)
C11 C -0.0975(3) 0.3080(3) -0.0509(3)
H12 H -0.1610(3) 0.3530(3) -0.0442(3)
C12 C -0.0151(3) 0.3418(3) -0.1369(4)
C13 C -0.0387(4) 0.4353(4) -0.2098(4)
H13 H -0.1098(4) 0.4672(4) -0.2074(4)
C14 C 0.0402(4) 0.4806(4) -0.2843(4)
H14 H 0.0231(4) 0.5424(4) -0.3322(4)
C15 C 0.1465(4) 0.4325(4) -0.2870(4)
H15 H 0.2012(4) 0.4634(4) -0.3361(4)
C16 C 0.1717(3) 0.3396(3) -0.2179(4)
H16 H 0.2430(3) 0.3082(3) -0.2218(4)
C17 C 0.0914(3) 0.2914(3) -0.1412(3)
N5A N 0.0724(3) 0.1196(3) 0.2014(3)
Mn1A Mn -0.02487(4) -0.09830(4) -0.50027(6)
loop_
_geom_bond_atom_site_label_1
_geom_bond_atom_site_label_2
_geom_bond_site_symmetry_1
_geom_bond_site_symmetry_2
Mn1 O1 1_555 1_555
O1 C1 1_555 1_555
O2 Mn1 1_555 1_555
N1 Mn1 1_555 1_555
N2 Mn1 1_555 1_555
N3 Mn1 1_555 1_555
N4 N3 1_555 1_555
N5 N4 1_555 1_555
C1 C2 1_555 1_555
C2 H1 1_555 1_555
C3 C2 1_555 1_555
H2 C3 1_555 1_555
C4 C3 1_555 1_555
H3 C4 1_555 1_555
C5 C4 1_555 1_555
H4 C5 1_555 1_555
C6 C1 1_555 1_555
C7 N1 1_555 1_555
H5 C7 1_555 1_555
C8 N1 1_555 1_555
H6 C8 1_555 1_555
H7 C8 1_555 1_555
C9 C8 1_555 1_555
H8 C9 1_555 1_555
H9 C9 1_555 1_555
C10 N2 1_555 1_555
H10 C10 1_555 1_555
H11 C10 1_555 1_555
C11 N2 1_555 1_555
H12 C11 1_555 1_555
C12 C11 1_555 1_555
C13 C12 1_555 1_555
H13 C13 1_555 1_555
C14 C13 1_555 1_555
H14 C14 1_555 1_555
C15 C14 1_555 1_555
H15 C15 1_555 1_555
C16 C15 1_555 1_555
H16 C16 1_555 1_555
C17 O2 1_555 1_555
N5A Mn1 1_555 1_555
Mn1A N5 1_555 1_555
C5 C6 1_555 1_555
C6 C7 1_555 1_555
C9 C10 1_555 1_555
C12 C17 1_555 1_555
C16 C17 1_555 1_555

#END
