
#######################################################################
#
#                 Cambridge Crystallographic Data Centre
#                                CCDC 
#
#######################################################################
#
# If this CIF has been generated from an entry in the Cambridge 
# Structural Database, then it will include bibliographic, chemical, 
# crystal, experimental, refinement or atomic coordinate data resulting 
# from the CCDC's data processing and validation procedures.
#
#######################################################################

data_GOBNER
_symmetry_cell_setting           monoclinic
_symmetry_space_group_name_H-M   'P 21/c'
_symmetry_Int_Tables_number      14
_space_group_name_Hall           '-P 2ybc'
loop_
_symmetry_equiv_pos_site_id
_symmetry_equiv_pos_as_xyz
1 x,y,z
2 -x,1/2+y,1/2-z
3 -x,-y,-z
4 x,1/2-y,1/2+z
_cell_length_a                   7.7025(11)
_cell_length_b                   37.438(5)
_cell_length_c                   17.166(2)
_cell_angle_alpha                90
_cell_angle_beta                 101.917(3)
_cell_angle_gamma                90
_cell_volume                     4843.41
loop_
_atom_site_label
_atom_site_type_symbol
_atom_site_fract_x
_atom_site_fract_y
_atom_site_fract_z
Ag1 Ag 0.98362(12) -0.44686(2) 0.48769(5)
Ag2 Ag 0.43791(15) -0.25015(2) 0.25434(7)
N1 N 0.7237(12) -0.4456(2) 0.4115(5)
H1 H 0.6643 -0.4650 0.4247
N2 N 0.6992(13) -0.3851(2) 0.3123(5)
N3 N 0.6989(13) -0.3609(2) 0.1882(5)
N4 N 0.5589(12) -0.2984(2) 0.2268(6)
N5 N 1.3204(12) -0.2994(2) 0.7716(6)
N6 N 1.1718(12) -0.3657(2) 0.7955(5)
N7 N 1.2059(12) -0.3840(2) 0.6699(5)
N8 N 1.2415(12) -0.4413(3) 0.5678(5)
H2 H 1.2049 -0.4561 0.5298
C1 C 0.6226(17) -0.4142(4) 0.4261(7)
H5 H 0.6269 -0.4120 0.4828
H6 H 0.4995 -0.4171 0.3995
C2 C 0.6972(19) -0.3805(3) 0.3960(6)
H7 H 0.6241 -0.3601 0.4030
H8 H 0.8166 -0.3762 0.4259
C3 C 0.7930(16) -0.4168(3) 0.2940(6)
H9 H 0.9185 -0.4146 0.3172
H10 H 0.7797 -0.4191 0.2368
C4 C 0.7215(16) -0.4487(3) 0.3259(6)
H11 H 0.7909 -0.4693 0.3169
H12 H 0.6005 -0.4525 0.2973
C5 C 0.6683(13) -0.3568(3) 0.2606(6)
C6 C 0.5947(15) -0.3249(3) 0.2799(7)
H13 H 0.5703 -0.3219 0.3304
C7 C 0.5995(16) -0.3017(3) 0.1556(8)
H14 H 0.5838 -0.2830 0.1192
C8 C 0.6676(17) -0.3351(4) 0.1382(7)
H15 H 0.6912 -0.3386 0.0878
C9 C 1.2686(17) -0.3082(4) 0.8397(7)
H16 H 1.2830 -0.2916 0.8806
C10 C 1.1985(17) -0.3396(4) 0.8506(6)
H17 H 1.1658 -0.3439 0.8990
C11 C 1.2205(13) -0.3577(2) 0.7265(6)
C12 C 1.2973(14) -0.3247(3) 0.7146(6)
H18 H 1.3325 -0.3203 0.6669
C13 C 1.1297(15) -0.4185(3) 0.6820(6)
H19 H 1.1325 -0.4221 0.7382
H20 H 1.0070 -0.4194 0.6536
C14 C 1.2353(17) -0.4476(3) 0.6515(7)
H21 H 1.1809 -0.4707 0.6565
H22 H 1.3551 -0.4481 0.6833
C15 C 1.3193(16) -0.4059(3) 0.5575(7)
H23 H 1.4412 -0.4051 0.5868
H24 H 1.3190 -0.4019 0.5016
C16 C 1.2137(17) -0.3770(3) 0.5874(6)
H25 H 1.0946 -0.3762 0.5550
H26 H 1.2691 -0.3539 0.5834
Ag2C Ag 1.43791(15) -0.24985(2) 0.75434(7)
N5C N 0.3204(12) -0.2006(2) 0.2716(6)
Ag3 Ag 0.71755(17) 0.00227(2) 0.37027(7)
Ag4 Ag 0.93703(14) -0.24966(2) 0.24253(5)
N9 N 0.6602(16) -0.0544(2) 0.3587(6)
H3 H 0.540(14) -0.059(3) 0.338(6)
N10 N 0.7185(13) -0.1306(2) 0.3732(5)
N11 N 0.7007(14) -0.1815(3) 0.4445(5)
N12 N 0.8213(11) -0.2211(2) 0.3306(5)
N13 N 0.9386(12) 0.2241(2) 0.3437(5)
N14 N 0.7984(13) 0.1858(2) 0.4558(5)
N15 N 0.7977(13) 0.1337(2) 0.3840(5)
N16 N 0.7875(16) 0.0569(2) 0.3856(7)
H4 H 0.8236 0.0354 0.3956
C17 C 0.7572(19) -0.0731(3) 0.3054(7)
H27 H 0.8837 -0.0711 0.3267
H28 H 0.7318 -0.0617 0.2535
C18 C 0.7067(17) -0.1120(3) 0.2963(6)
H29 H 0.5862 -0.1139 0.2657
H30 H 0.7841 -0.1239 0.2664
C19 C 0.633(2) -0.1100(3) 0.4288(8)
H31 H 0.5049 -0.1117 0.4111
H32 H 0.6638 -0.1208 0.4812
C20 C 0.681(2) -0.0724(3) 0.4355(8)
H33 H 0.8043 -0.0704 0.4632
H34 H 0.6090 -0.0604 0.4674
C21 C 0.7352(14) -0.1655(3) 0.3794(6)
C22 C 0.7916(14) -0.1865(3) 0.3194(6)
H35 H 0.8073 -0.1757 0.2725
C23 C 0.7852(16) -0.2368(3) 0.3956(6)
H36 H 0.8022 -0.2612 0.4035
C24 C 0.7239(17) -0.2167(3) 0.4497(7)
H37 H 0.6960 -0.2283 0.4934
C25 C 0.8948(16) 0.2409(3) 0.4059(6)
H38 H 0.9106 0.2655 0.4116
C26 C 0.8272(18) 0.2221(3) 0.4611(7)
H39 H 0.7995 0.2343 0.5041
C27 C 0.8366(13) 0.1706(3) 0.3925(6)
C28 C 0.9078(14) 0.1877(3) 0.3377(6)
H40 H 0.9365 0.1750 0.2956
C29 C 0.761(2) 0.1145(3) 0.4515(7)
H41 H 0.8679 0.1140 0.4928
H42 H 0.6715 0.1275 0.4724
C30 C 0.700(2) 0.0784(3) 0.4354(8)
H43 H 0.5749 0.0793 0.4109
H44 H 0.7107 0.0662 0.4860
C31 C 0.805(2) 0.0777(3) 0.3144(8)
H45 H 0.8806 0.0643 0.2860
H46 H 0.6891 0.0794 0.2797
C32 C 0.876(2) 0.1129(3) 0.3275(8)
H47 H 0.8562 0.1254 0.2770
H48 H 1.0030 0.1113 0.3473
Ag4A Ag 1.06297(14) 0.25034(2) 0.25747(5)
N13A N 1.0614(12) -0.2759(2) 0.1563(5)
Cl1 Cl 0.7120(4) -0.18814(7) 0.09254(16)
O1 O 0.8906(12) -0.1874(3) 0.1420(6)
O2 O 0.7153(16) -0.1964(4) 0.0146(6)
O3 O 0.6107(16) -0.2137(3) 0.1250(6)
O4 O 0.6339(17) -0.1556(3) 0.0982(8)
Cl2 Cl 0.1725(4) -0.18833(8) -0.10881(18)
O5 O 0.0008(13) -0.1893(3) -0.1573(6)
O6 O 0.2666(16) -0.2178(3) -0.1338(7)
O7 O 0.1624(17) -0.1940(3) -0.0280(5)
O8 O 0.2573(18) -0.1565(3) -0.1185(8)
Cl3 Cl 0.2217(5) -0.00237(9) 0.3828(2)
O9 O 0.117(4) -0.0022(10) 0.4403(12)
O10 O 0.285(5) -0.0370(8) 0.3755(17)
O11 O 0.063(3) 0.0010(7) 0.3072(13)
O12 O 0.338(4) 0.0232(11) 0.373(2)
Cl4 Cl 0.2746(5) -0.50126(9) 0.3779(2)
O13 O 0.127(4) -0.5014(7) 0.302(2)
O14 O 0.415(4) -0.5048(9) 0.347(3)
O15 O 0.299(5) -0.4622(6) 0.3933(18)
O16 O 0.277(4) -0.5412(6) 0.3916(14)
O17? O 0.287(5) -0.0223(14) 0.3333(19)
O18? O 0.126(7) -0.0175(11) 0.426(5)
O19? O 0.393(3) -0.0010(6) 0.4573(13)
O20? O 0.179(4) 0.0341(7) 0.3714(19)
O21? O 0.326(6) -0.4938(13) 0.309(2)
O22? O 0.149(7) -0.484(2) 0.388(3)
O23? O 0.155(6) -0.5075(12) 0.422(3)
O24? O 0.413(3) -0.4939(8) 0.4583(16)
loop_
_geom_bond_atom_site_label_1
_geom_bond_atom_site_label_2
_geom_bond_site_symmetry_1
_geom_bond_site_symmetry_2
Ag1 N1 1_555 1_555
Ag2 N4 1_555 1_555
Ag3 N9 1_555 1_555
Ag4 N12 1_555 1_555
Cl1 O1 1_555 1_555
Cl2 O5 1_555 1_555
Cl3 O9 1_555 1_555
Cl4 O13 1_555 1_555
O2 Cl1 1_555 1_555
O3 Cl1 1_555 1_555
O4 Cl1 1_555 1_555
O6 Cl2 1_555 1_555
O7 Cl2 1_555 1_555
O8 Cl2 1_555 1_555
O10 Cl3 1_555 1_555
O11 Cl3 1_555 1_555
O12 Cl3 1_555 1_555
O14 Cl4 1_555 1_555
O15 Cl4 1_555 1_555
O16 Cl4 1_555 1_555
N1 H1 1_555 1_555
N2 C2 1_555 1_555
N3 C5 1_555 1_555
N4 C6 1_555 1_555
N5 C9 1_555 1_555
N6 C10 1_555 1_555
N7 C11 1_555 1_555
N8 Ag1 1_555 1_555
H2 N8 1_555 1_555
N9 H3 1_555 1_555
N10 C18 1_555 1_555
N11 C21 1_555 1_555
N12 C22 1_555 1_555
N13 C25 1_555 1_555
N14 C26 1_555 1_555
N15 C27 1_555 1_555
N16 Ag3 1_555 1_555
H4 N16 1_555 1_555
C1 N1 1_555 1_555
H5 C1 1_555 1_555
H6 C1 1_555 1_555
C2 C1 1_555 1_555
H7 C2 1_555 1_555
H8 C2 1_555 1_555
C3 N2 1_555 1_555
H9 C3 1_555 1_555
H10 C3 1_555 1_555
C4 N1 1_555 1_555
H11 C4 1_555 1_555
H12 C4 1_555 1_555
C5 N2 1_555 1_555
C6 C5 1_555 1_555
H13 C6 1_555 1_555
C7 N4 1_555 1_555
H14 C7 1_555 1_555
C8 N3 1_555 1_555
H15 C8 1_555 1_555
C9 H16 1_555 1_555
C10 C9 1_555 1_555
H17 C10 1_555 1_555
C11 N6 1_555 1_555
C12 N5 1_555 1_555
H18 C12 1_555 1_555
C13 N7 1_555 1_555
H19 C13 1_555 1_555
H20 C13 1_555 1_555
C14 N8 1_555 1_555
H21 C14 1_555 1_555
H22 C14 1_555 1_555
C15 N8 1_555 1_555
H23 C15 1_555 1_555
H24 C15 1_555 1_555
C16 N7 1_555 1_555
H25 C16 1_555 1_555
H26 C16 1_555 1_555
C17 N9 1_555 1_555
H27 C17 1_555 1_555
H28 C17 1_555 1_555
C18 C17 1_555 1_555
H29 C18 1_555 1_555
H30 C18 1_555 1_555
C19 N10 1_555 1_555
H31 C19 1_555 1_555
H32 C19 1_555 1_555
C20 N9 1_555 1_555
H33 C20 1_555 1_555
H34 C20 1_555 1_555
C21 N10 1_555 1_555
C22 C21 1_555 1_555
H35 C22 1_555 1_555
C23 N12 1_555 1_555
H36 C23 1_555 1_555
C24 N11 1_555 1_555
H37 C24 1_555 1_555
C25 H38 1_555 1_555
C26 C25 1_555 1_555
H39 C26 1_555 1_555
C27 N14 1_555 1_555
C28 N13 1_555 1_555
H40 C28 1_555 1_555
C29 N15 1_555 1_555
H41 C29 1_555 1_555
H42 C29 1_555 1_555
C30 N16 1_555 1_555
H43 C30 1_555 1_555
H44 C30 1_555 1_555
C31 N16 1_555 1_555
H45 C31 1_555 1_555
H46 C31 1_555 1_555
C32 N15 1_555 1_555
H47 C32 1_555 1_555
H48 C32 1_555 1_555
Ag2C N5 1_555 1_555
Ag4A N13 1_555 1_555
N5C Ag2 1_555 1_555
N13A Ag4 1_555 1_555
C3 C4 1_555 1_555
C7 C8 1_555 1_555
C11 C12 1_555 1_555
C13 C14 1_555 1_555
C15 C16 1_555 1_555
C19 C20 1_555 1_555
C23 C24 1_555 1_555
C27 C28 1_555 1_555
C29 C30 1_555 1_555
C31 C32 1_555 1_555

#END
