
#######################################################################
#
#                 Cambridge Crystallographic Data Centre
#                                CCDC 
#
#######################################################################
#
# If this CIF has been generated from an entry in the Cambridge 
# Structural Database, then it will include bibliographic, chemical, 
# crystal, experimental, refinement or atomic coordinate data resulting 
# from the CCDC's data processing and validation procedures.
#
#######################################################################

data_GOBNAN
_symmetry_cell_setting           monoclinic
_symmetry_space_group_name_H-M   'P 21/c'
_symmetry_Int_Tables_number      14
_space_group_name_Hall           '-P 2ybc'
loop_
_symmetry_equiv_pos_site_id
_symmetry_equiv_pos_as_xyz
1 x,y,z
2 -x,1/2+y,1/2-z
3 -x,-y,-z
4 x,1/2-y,1/2+z
_cell_length_a                   16.4968(15)
_cell_length_b                   19.3653(18)
_cell_length_c                   7.3600(7)
_cell_angle_alpha                90
_cell_angle_beta                 96.066(2)
_cell_angle_gamma                90
_cell_volume                     2338.1
loop_
_atom_site_label
_atom_site_type_symbol
_atom_site_fract_x
_atom_site_fract_y
_atom_site_fract_z
Ag1 Ag 0.266900(18) 0.436733(18) 0.79337(4)
Ag2 Ag 0.775660(19) 0.25281(2) 1.04272(5)
N1 N 0.35220(19) 0.41480(17) 0.5924(4)
H1 H 0.3114 0.4420 0.5987
N2 N 0.46585(19) 0.31136(16) 0.7283(5)
N3 N 0.5036(2) 0.19660(17) 0.7290(4)
N4 N 0.6578(2) 0.2281(2) 0.8986(5)
N5 N -0.1076(2) 0.23138(19) 0.7044(5)
N6 N 0.0460(2) 0.20595(18) 0.8858(4)
N7 N 0.07334(19) 0.32349(17) 0.8990(5)
N8 N 0.1845(2) 0.43060(19) 1.0122(5)
H2 H 0.2252 0.4569 0.9967
O8 O 0.7800(3) 0.3795(2) 0.9370(7)
H3 H 0.7369 0.3977 0.8602
H4 H 0.8247 0.4071 0.9757
C1 C 0.4377(2) 0.4320(2) 0.6548(6)
H5 H 0.4406 0.4786 0.7039
H6 H 0.4699 0.4304 0.5520
C2 C 0.4723(2) 0.38188(19) 0.7998(6)
H7 H 0.5290 0.3929 0.8368
H8 H 0.4425 0.3857 0.9063
C3 C 0.3821(2) 0.2928(2) 0.6588(5)
H9 H 0.3485 0.2913 0.7592
H10 H 0.3817 0.2472 0.6039
C4 C 0.3471(2) 0.3447(2) 0.5183(5)
H11 H 0.3769 0.3423 0.4116
H12 H 0.2906 0.3333 0.4803
C5 C 0.5236(2) 0.26192(19) 0.7732(5)
C6 C 0.6029(2) 0.2774(2) 0.8574(5)
H13 H 0.6167 0.3231 0.8845
C7 C 0.6374(3) 0.1623(2) 0.8557(7)
H14 H 0.6744 0.1266 0.8831
C8 C 0.5608(3) 0.1487(2) 0.7706(6)
H15 H 0.5479 0.1031 0.7400
C9 C -0.0821(3) 0.1663(2) 0.7487(6)
H16 H -0.1160 0.1289 0.7166
C10 C -0.0069(3) 0.1556(2) 0.8400(6)
H17 H 0.0082 0.1106 0.8719
C11 C 0.0214(2) 0.2704(2) 0.8442(5)
C12 C -0.0565(2) 0.2830(2) 0.7519(5)
H18 H -0.0724 0.3282 0.7236
C13 C 0.1565(2) 0.3075(2) 0.9729(6)
H19 H 0.1574 0.2637 1.0369
H20 H 0.1905 0.3031 0.8736
C14 C 0.1906(3) 0.3635(3) 1.1030(6)
H21 H 0.2472 0.3536 1.1441
H22 H 0.1604 0.3644 1.2092
C15 C 0.0988(2) 0.4466(2) 0.9510(7)
H23 H 0.0676 0.4481 1.0556
H24 H 0.0952 0.4916 0.8926
C16 C 0.0635(3) 0.3922(2) 0.8177(6)
H25 H 0.0910 0.3941 0.7076
H26 H 0.0061 0.4015 0.7843
Ag2C Ag -0.224340(19) 0.24719(2) 0.54272(5)
N5C N 0.8924(2) 0.26862(19) 1.2044(5)
N9 N 0.3631(2) 0.5024(2) 0.1626(5)
O1 O 0.3551(2) 0.53489(17) 0.0133(4)
O2 O 0.3900(4) 0.4451(2) 0.1751(6)
O3 O 0.3387(4) 0.5274(3) 0.2950(6)
N10 N 0.1649(4) 0.5316(4) 0.4612(8)
O4 O 0.1979(4) 0.5454(3) 0.6129(8)
O5 O 0.1638(5) 0.4680(4) 0.4388(9)
O6 O 0.1274(5) 0.5515(5) 0.3199(12)
O7? O 0.1676(9) 0.5960(6) 0.4011(16)
loop_
_geom_bond_atom_site_label_1
_geom_bond_atom_site_label_2
_geom_bond_site_symmetry_1
_geom_bond_site_symmetry_2
Ag1 N1 1_555 1_555
Ag2 N4 1_555 1_555
N1 H1 1_555 1_555
N2 C2 1_555 1_555
N3 C5 1_555 1_555
N4 C6 1_555 1_555
N5 C9 1_555 1_555
N6 C10 1_555 1_555
N7 C11 1_555 1_555
N8 Ag1 1_555 1_555
H2 N8 1_555 1_555
N9 O1 1_555 1_555
N10 O4 1_555 1_555
O2 N9 1_555 1_555
O3 N9 1_555 1_555
O5 N10 1_555 1_555
O6 N10 1_555 1_555
O8 Ag2 1_555 1_555
H3 O8 1_555 1_555
H4 O8 1_555 1_555
C1 N1 1_555 1_555
H5 C1 1_555 1_555
H6 C1 1_555 1_555
C2 C1 1_555 1_555
H7 C2 1_555 1_555
H8 C2 1_555 1_555
C3 N2 1_555 1_555
H9 C3 1_555 1_555
H10 C3 1_555 1_555
C4 N1 1_555 1_555
H11 C4 1_555 1_555
H12 C4 1_555 1_555
C5 N2 1_555 1_555
C6 C5 1_555 1_555
H13 C6 1_555 1_555
C7 N4 1_555 1_555
H14 C7 1_555 1_555
C8 N3 1_555 1_555
H15 C8 1_555 1_555
C9 H16 1_555 1_555
C10 C9 1_555 1_555
H17 C10 1_555 1_555
C11 N6 1_555 1_555
C12 N5 1_555 1_555
H18 C12 1_555 1_555
C13 N7 1_555 1_555
H19 C13 1_555 1_555
H20 C13 1_555 1_555
C14 N8 1_555 1_555
H21 C14 1_555 1_555
H22 C14 1_555 1_555
C15 N8 1_555 1_555
H23 C15 1_555 1_555
H24 C15 1_555 1_555
C16 N7 1_555 1_555
H25 C16 1_555 1_555
H26 C16 1_555 1_555
Ag2C N5 1_555 1_555
N5C Ag2 1_555 1_555
C3 C4 1_555 1_555
C7 C8 1_555 1_555
C11 C12 1_555 1_555
C13 C14 1_555 1_555
C15 C16 1_555 1_555

#END
