
#######################################################################
#
#                 Cambridge Crystallographic Data Centre
#                                CCDC 
#
#######################################################################
#
# If this CIF has been generated from an entry in the Cambridge 
# Structural Database, then it will include bibliographic, chemical, 
# crystal, experimental, refinement or atomic coordinate data resulting 
# from the CCDC's data processing and validation procedures.
#
#######################################################################

data_GOBQUL
_symmetry_cell_setting           monoclinic
_symmetry_space_group_name_H-M   'P 21/c'
_symmetry_Int_Tables_number      14
_space_group_name_Hall           '-P 2ybc'
loop_
_symmetry_equiv_pos_site_id
_symmetry_equiv_pos_as_xyz
1 x,y,z
2 -x,1/2+y,1/2-z
3 -x,-y,-z
4 x,1/2-y,1/2+z
_cell_length_a                   10.0501(9)
_cell_length_b                   16.4536(13)
_cell_length_c                   17.0953(14)
_cell_angle_alpha                90
_cell_angle_beta                 93.996(7)
_cell_angle_gamma                90
_cell_volume                     2820.01
loop_
_atom_site_label
_atom_site_type_symbol
_atom_site_fract_x
_atom_site_fract_y
_atom_site_fract_z
Er1 Er 0.24701(3) 0.520771(14) 0.012598(15)
O1 O -0.0895(4) 0.5734(2) -0.0198(3)
O2 O 0.2228(5) 0.4855(3) 0.2498(3)
O3 O 0.1099(4) 0.6315(2) -0.0029(2)
O4 O 0.3944(5) 0.4232(2) -0.0175(2)
O5 O 0.1695(5) 0.5540(2) 0.1422(2)
O6 O 0.5932(4) 0.3882(2) -0.0580(2)
O7 O 0.1804(5) 0.4954(3) -0.1243(3)
O8 O 0.3428(5) 0.5816(3) -0.1010(2)
O9 O 0.3143(5) 0.4563(2) 0.1401(2)
O10 O 0.2888(6) 0.5415(3) -0.2222(3)
N1 N -0.2179(5) 0.8675(3) -0.0371(3)
N2 N 0.3064(6) 0.1725(3) -0.1735(3)
N3 N 0.2346(6) 0.4986(3) 0.1795(3)
N4 N 0.2724(6) 0.5397(3) -0.1523(3)
C1 C -0.1945(6) 0.7249(3) -0.0631(3)
H1 H -0.2300 0.6781 -0.0896
C2 C 0.4721(6) 0.2223(3) -0.0776(3)
C3 C 0.2440(6) 0.2444(3) -0.1818(3)
C4 C 0.4722(7) 0.3766(3) -0.0504(3)
C5 C -0.2594(6) 0.8010(3) -0.0757(3)
C6 C 0.0795(6) 0.7879(4) 0.0833(3)
H2 H 0.1302 0.7396 0.0922
C7 C -0.0157(6) 0.6348(3) -0.0107(3)
C8 C -0.0825(6) 0.7177(3) -0.0139(3)
C9 C -0.4580(6) 0.7425(4) -0.1542(3)
H3 H -0.4424 0.6919 -0.1286
C10 C 0.5819(7) 0.2046(4) -0.0232(3)
H4 H 0.6234 0.2470 0.0072
C11 C -0.1090(7) 0.8605(4) 0.0165(3)
C12 C 0.2987(6) 0.3095(3) -0.1374(3)
H5 H 0.2562 0.3610 -0.1413
C13 C -0.5863(7) 0.8242(4) -0.2498(3)
H6 H -0.6584 0.8294 -0.2884
C14 C 0.0553(7) 0.1868(4) -0.2678(3)
H7 H 0.0867 0.1335 -0.2556
C15 C 0.1249(7) 0.2538(4) -0.2365(3)
C16 C 0.6282(7) 0.1262(4) -0.0145(3)
H8 H 0.6995 0.1148 0.0234
C17 C -0.0333(6) 0.7873(3) 0.0289(3)
C18 C -0.0691(7) 0.9313(4) 0.0595(4)
H9 H -0.1190 0.9801 0.0524
C19 C 0.1163(7) 0.8576(4) 0.1234(3)
H10 H 0.1928 0.8573 0.1593
C20 C 0.4146(7) 0.1566(4) -0.1218(3)
C21 C 0.4653(7) 0.0775(4) -0.1136(4)
H11 H 0.4264 0.0345 -0.1444
C22 C -0.3736(6) 0.8090(3) -0.1353(3)
C23 C -0.5029(7) 0.8897(4) -0.2324(3)
H12 H -0.5181 0.9398 -0.2591
C24 C -0.0594(7) 0.1972(4) -0.3167(3)
H13 H -0.1065 0.1507 -0.3367
C25 C -0.3957(7) 0.8824(4) -0.1752(3)
H14 H -0.3384 0.9274 -0.1638
C26 C 0.0763(7) 0.3320(4) -0.2555(4)
H15 H 0.1225 0.3783 -0.2345
C27 C 0.4126(6) 0.3008(3) -0.0881(3)
C28 C 0.5718(7) 0.0627(4) -0.0607(4)
H16 H 0.6074 0.0094 -0.0553
C29 C -0.5641(7) 0.7508(4) -0.2105(3)
H17 H -0.6219 0.7061 -0.2222
C30 C 0.0419(7) 0.9295(4) 0.1116(3)
H18 H 0.0684 0.9772 0.1398
C31 C -0.0388(7) 0.3425(5) -0.3048(4)
H19 H -0.0714 0.3956 -0.3169
C32 C -0.1064(7) 0.2737(4) -0.3366(4)
H20 H -0.1836 0.2800 -0.3715
H21 H 0.275(6) 0.135(4) -0.198(4)
Er1B Er -0.24701(3) 0.479229(14) -0.012598(15)
Er1B_2 Er 0.75299(3) 0.479229(14) -0.012598(15)
O1B O 0.0895(4) 0.4266(2) 0.0198(3)
O6B O 0.4068(4) 0.6118(2) 0.0580(2)
loop_
_geom_bond_atom_site_label_1
_geom_bond_atom_site_label_2
_geom_bond_site_symmetry_1
_geom_bond_site_symmetry_2
Er1 O3 1_555 1_555
O1 C7 1_555 1_555
O2 N3 1_555 1_555
O3 C7 1_555 1_555
O4 Er1 1_555 1_555
O5 Er1 1_555 1_555
O6 C4 1_555 1_555
O7 Er1 1_555 1_555
O8 Er1 1_555 1_555
O9 Er1 1_555 1_555
O10 N4 1_555 1_555
N1 C5 1_555 1_555
N2 C3 1_555 1_555
N3 O5 1_555 1_555
N4 O7 1_555 1_555
C1 H1 1_555 1_555
C2 C10 1_555 1_555
C3 C12 1_555 1_555
C4 O4 1_555 1_555
C5 C1 1_555 1_555
C6 H2 1_555 1_555
C7 C8 1_555 1_555
C8 C1 1_555 1_555
C9 H3 1_555 1_555
C10 H4 1_555 1_555
C11 N1 1_555 1_555
C12 H5 1_555 1_555
C13 H6 1_555 1_555
C14 H7 1_555 1_555
C15 C3 1_555 1_555
C16 C10 1_555 1_555
H8 C16 1_555 1_555
C17 C6 1_555 1_555
C18 C11 1_555 1_555
H9 C18 1_555 1_555
C19 C6 1_555 1_555
H10 C19 1_555 1_555
C20 N2 1_555 1_555
C21 C20 1_555 1_555
H11 C21 1_555 1_555
C22 C5 1_555 1_555
C23 C13 1_555 1_555
H12 C23 1_555 1_555
C24 C14 1_555 1_555
H13 C24 1_555 1_555
C25 C22 1_555 1_555
H14 C25 1_555 1_555
C26 C15 1_555 1_555
H15 C26 1_555 1_555
C27 C2 1_555 1_555
C28 C16 1_555 1_555
H16 C28 1_555 1_555
C29 C9 1_555 1_555
H17 C29 1_555 1_555
C30 C18 1_555 1_555
H18 C30 1_555 1_555
C31 C26 1_555 1_555
H19 C31 1_555 1_555
C32 C24 1_555 1_555
H20 C32 1_555 1_555
H21 N2 1_555 1_555
Er1B O1 1_555 1_555
Er1B_2 O6 1_555 1_555
O1B Er1 1_555 1_555
O6B Er1 1_555 1_555
O8 N4 1_555 1_555
O9 N3 1_555 1_555
C2 C20 1_555 1_555
C4 C27 1_555 1_555
C8 C17 1_555 1_555
C9 C22 1_555 1_555
C11 C17 1_555 1_555
C12 C27 1_555 1_555
C13 C29 1_555 1_555
C14 C15 1_555 1_555
C19 C30 1_555 1_555
C21 C28 1_555 1_555
C23 C25 1_555 1_555
C31 C32 1_555 1_555

#END
