
#######################################################################
#
#                 Cambridge Crystallographic Data Centre
#                                CCDC 
#
#######################################################################
#
# If this CIF has been generated from an entry in the Cambridge 
# Structural Database, then it will include bibliographic, chemical, 
# crystal, experimental, refinement or atomic coordinate data resulting 
# from the CCDC's data processing and validation procedures.
#
#######################################################################

data_GOBQIZ
_symmetry_cell_setting           monoclinic
_symmetry_space_group_name_H-M   'P 21/c'
_symmetry_Int_Tables_number      14
_space_group_name_Hall           '-P 2ybc'
loop_
_symmetry_equiv_pos_site_id
_symmetry_equiv_pos_as_xyz
1 x,y,z
2 -x,1/2+y,1/2-z
3 -x,-y,-z
4 x,1/2-y,1/2+z
_cell_length_a                   10.029(3)
_cell_length_b                   16.490(4)
_cell_length_c                   17.307(4)
_cell_angle_alpha                90
_cell_angle_beta                 94.575(5)
_cell_angle_gamma                90
_cell_volume                     2853.08
loop_
_atom_site_label
_atom_site_type_symbol
_atom_site_fract_x
_atom_site_fract_y
_atom_site_fract_z
Dy1 Dy 0.75417(2) 0.020958(12) -0.011983(12)
O1 O 0.8904(3) 0.13322(18) 0.00134(18)
O2 O 1.0885(3) 0.07504(18) 0.0162(2)
O3 O 0.6070(3) -0.07672(18) 0.01820(19)
O4 O 0.4087(3) -0.11060(19) 0.05766(19)
O5 O 0.6608(4) 0.0829(2) 0.1008(2)
O6 O 0.8238(4) -0.0018(2) 0.1242(2)
O7 O 0.7158(5) 0.0443(3) 0.2194(2)
O8 O 0.8303(3) 0.0504(2) -0.14165(19)
O9 O 0.6865(4) -0.0450(2) -0.1386(2)
O10 O 0.7779(4) -0.0185(2) -0.2462(2)
N1 N 1.2168(4) 0.3674(2) 0.0363(2)
N2 N 0.6986(4) -0.3242(2) 0.1743(2)
N3 N 0.7316(5) 0.0422(3) 0.1507(3)
N4 N 0.7659(4) -0.0046(2) -0.1773(3)
C1 C 1.0153(4) 0.1362(3) 0.0087(3)
C2 C 1.0832(4) 0.2181(2) 0.0123(2)
C3 C 1.0348(4) 0.2873(3) -0.0298(2)
C4 C 0.9218(5) 0.2881(3) -0.0845(3)
H1 H 0.8707 0.2401 -0.0937
C5 C 0.8863(5) 0.3569(3) -0.1239(3)
H2 H 0.8110 0.3563 -0.1609
C6 C 0.9587(6) 0.4283(3) -0.1109(3)
H3 H 0.9316 0.4761 -0.1385
C7 C 1.0675(6) 0.4301(3) -0.0593(3)
H4 H 1.1172 0.4789 -0.0518
C8 C 1.1078(5) 0.3603(3) -0.0165(3)
C9 C 1.1947(4) 0.2256(3) 0.0625(2)
H5 H 1.2301 0.1791 0.0893
C10 C 1.2581(4) 0.3014(3) 0.0750(3)
C11 C 1.3715(4) 0.3094(3) 0.1346(3)
C12 C 1.4559(5) 0.2448(3) 0.1546(3)
H6 H 1.4414 0.1941 0.1291
C13 C 1.5599(5) 0.2528(3) 0.2108(3)
H7 H 1.6164 0.2078 0.2239
C14 C 1.5828(5) 0.3260(4) 0.2481(3)
H8 H 1.6559 0.3319 0.2860
C15 C 1.4994(5) 0.3899(3) 0.2300(3)
H9 H 1.5138 0.4400 0.2566
C16 C 1.3946(5) 0.3828(3) 0.1737(3)
H10 H 1.3379 0.4280 0.1615
C17 C 0.5297(5) -0.1222(3) 0.0512(3)
C18 C 0.5900(4) -0.1980(2) 0.0895(2)
C19 C 0.5310(4) -0.2754(3) 0.0785(3)
C20 C 0.4208(5) -0.2935(3) 0.0252(3)
H11 H 0.3778 -0.2515 -0.0050
C21 C 0.3765(6) -0.3715(3) 0.0172(3)
H12 H 0.3043 -0.3836 -0.0199
C22 C 0.4347(6) -0.4333(3) 0.0621(3)
H13 H 0.4004 -0.4869 0.0561
C23 C 0.5394(6) -0.4190(3) 0.1143(3)
H14 H 0.5781 -0.4620 0.1450
C24 C 0.5901(5) -0.3402(3) 0.1226(3)
C25 C 0.7038(4) -0.1884(3) 0.1380(3)
H15 H 0.7465 -0.1370 0.1412
C26 C 0.7584(4) -0.2523(3) 0.1827(3)
C27 C 0.8790(5) -0.2420(3) 0.2374(3)
C28 C 0.9465(5) -0.3084(3) 0.2692(3)
H16 H 0.9153 -0.3615 0.2566
C29 C 1.0590(6) -0.2978(4) 0.3190(3)
H17 H 1.1038 -0.3438 0.3416
C30 C 1.1070(5) -0.2219(5) 0.3363(3)
H18 H 1.1852 -0.2153 0.3704
C31 C 1.0417(6) -0.1546(4) 0.3041(4)
H19 H 1.0747 -0.1017 0.3158
C32 C 0.9274(5) -0.1653(3) 0.2544(3)
H20 H 0.8821 -0.1193 0.2320
H21 H 0.726(5) -0.368(3) 0.202(3)
Dy1B Dy 0.24583(2) -0.020958(12) 0.011983(12)
Dy1B_2 Dy 1.24583(2) -0.020958(12) 0.011983(12)
O2B O 0.9115(3) -0.07504(18) -0.0162(2)
O4B O 0.5913(3) 0.11060(19) -0.05766(19)
loop_
_geom_bond_atom_site_label_1
_geom_bond_atom_site_label_2
_geom_bond_site_symmetry_1
_geom_bond_site_symmetry_2
Dy1 O1 1_555 1_555
O1 C1 1_555 1_555
O2 C1 1_555 1_555
O3 Dy1 1_555 1_555
O4 C17 1_555 1_555
O5 Dy1 1_555 1_555
O6 Dy1 1_555 1_555
O7 N3 1_555 1_555
O8 Dy1 1_555 1_555
O9 Dy1 1_555 1_555
O10 N4 1_555 1_555
N1 C8 1_555 1_555
N2 C24 1_555 1_555
N3 O5 1_555 1_555
N4 O8 1_555 1_555
C1 C2 1_555 1_555
C2 C3 1_555 1_555
C3 C4 1_555 1_555
C4 H1 1_555 1_555
C5 C4 1_555 1_555
H2 C5 1_555 1_555
C6 C5 1_555 1_555
H3 C6 1_555 1_555
C7 C6 1_555 1_555
H4 C7 1_555 1_555
C8 C3 1_555 1_555
C9 C2 1_555 1_555
H5 C9 1_555 1_555
C10 N1 1_555 1_555
C11 C10 1_555 1_555
C12 C11 1_555 1_555
H6 C12 1_555 1_555
C13 C12 1_555 1_555
H7 C13 1_555 1_555
C14 C13 1_555 1_555
H8 C14 1_555 1_555
C15 C14 1_555 1_555
H9 C15 1_555 1_555
C16 C11 1_555 1_555
H10 C16 1_555 1_555
C17 O3 1_555 1_555
C18 C17 1_555 1_555
C19 C18 1_555 1_555
C20 C19 1_555 1_555
H11 C20 1_555 1_555
C21 C20 1_555 1_555
H12 C21 1_555 1_555
C22 C21 1_555 1_555
H13 C22 1_555 1_555
C23 C22 1_555 1_555
H14 C23 1_555 1_555
C24 C19 1_555 1_555
C25 C18 1_555 1_555
H15 C25 1_555 1_555
C26 N2 1_555 1_555
C27 C26 1_555 1_555
C28 C27 1_555 1_555
H16 C28 1_555 1_555
C29 C28 1_555 1_555
H17 C29 1_555 1_555
C30 C29 1_555 1_555
H18 C30 1_555 1_555
C31 C30 1_555 1_555
H19 C31 1_555 1_555
C32 C27 1_555 1_555
H20 C32 1_555 1_555
H21 N2 1_555 1_555
Dy1B O4 1_555 1_555
Dy1B_2 O2 1_555 1_555
O2B Dy1 1_555 1_555
O4B Dy1 1_555 1_555
O6 N3 1_555 1_555
O9 N4 1_555 1_555
C7 C8 1_555 1_555
C9 C10 1_555 1_555
C15 C16 1_555 1_555
C23 C24 1_555 1_555
C25 C26 1_555 1_555
C31 C32 1_555 1_555

#END
