
#######################################################################
#
#                 Cambridge Crystallographic Data Centre
#                                CCDC 
#
#######################################################################
#
# If this CIF has been generated from an entry in the Cambridge 
# Structural Database, then it will include bibliographic, chemical, 
# crystal, experimental, refinement or atomic coordinate data resulting 
# from the CCDC's data processing and validation procedures.
#
#######################################################################

data_GOBQOF
_symmetry_cell_setting           monoclinic
_symmetry_space_group_name_H-M   'P 21/c'
_symmetry_Int_Tables_number      14
_space_group_name_Hall           '-P 2ybc'
loop_
_symmetry_equiv_pos_site_id
_symmetry_equiv_pos_as_xyz
1 x,y,z
2 -x,1/2+y,1/2-z
3 -x,-y,-z
4 x,1/2-y,1/2+z
_cell_length_a                   10.0300(5)
_cell_length_b                   16.4986(7)
_cell_length_c                   17.3274(9)
_cell_angle_alpha                90
_cell_angle_beta                 94.501(4)
_cell_angle_gamma                90
_cell_volume                     2858.51
loop_
_atom_site_label
_atom_site_type_symbol
_atom_site_fract_x
_atom_site_fract_y
_atom_site_fract_z
Ho1 Ho 0.253880(13) 0.478996(8) -0.011987(9)
O1 O 0.3907(2) 0.36776(13) 0.00142(14)
C1 C 0.0300(3) 0.62208(18) 0.05125(18)
N1 N 0.1985(3) 0.82375(17) 0.17426(17)
C2 C 0.6075(3) 0.13991(19) -0.01648(19)
C3 C 0.5163(3) 0.36435(18) 0.00881(18)
N2 N 0.7162(3) 0.13274(16) 0.03636(17)
O2 O 0.1064(2) 0.57613(14) 0.01877(15)
C4 C 0.5828(3) 0.28254(18) 0.01243(18)
C5 C 0.6951(3) 0.27465(18) 0.06236(18)
H1 H 0.7315 0.3210 0.0888
O3 O -0.0914(2) 0.61051(14) 0.05768(14)
C6 C 0.7572(3) 0.19875(18) 0.07504(18)
C7 C 0.8713(3) 0.19033(19) 0.13493(19)
C8 C 0.0309(3) 0.77536(19) 0.07839(18)
O4 O 0.2769(4) 0.51926(18) -0.24501(17)
C9 C 0.9558(3) 0.2555(2) 0.1547(2)
H2 H 0.9414 0.3062 0.1293
C10 C 0.2041(3) 0.6876(2) 0.1381(2)
H3 H 0.2467 0.6361 0.1412
C11 C 0.3784(3) 0.7420(2) 0.23705(19)
C12 C 0.5343(3) 0.21304(19) -0.02984(18)
O5 O 0.3226(3) 0.50166(18) 0.12352(17)
O6 O 0.1859(3) 0.54486(16) -0.13772(16)
C13 C 0.0896(3) 0.69767(18) 0.08969(18)
O7 O 0.3299(3) 0.44906(15) -0.14104(15)
N3 N 0.2649(3) 0.50464(19) -0.17607(19)
C14 C 0.2585(3) 0.7520(2) 0.18281(19)
C15 C 0.0904(4) 0.8397(2) 0.1227(2)
C16 C 0.4210(3) 0.2130(2) -0.08500(19)
H4 H 0.3707 0.2613 -0.0946
O8 O 0.1612(3) 0.41667(17) 0.10038(16)
C17 C 0.0395(4) 0.9190(2) 0.1146(2)
H5 H 0.0785 0.9618 0.1453
C18 C -0.1241(4) 0.8717(2) 0.0171(2)
H6 H -0.1963 0.8835 -0.0201
C19 C -0.0787(4) 0.7938(2) 0.0254(2)
H7 H -0.1214 0.7518 -0.0049
C20 C 1.0603(4) 0.2467(3) 0.2110(2)
H8 H 1.1177 0.2913 0.2240
N4 N 0.2319(4) 0.4578(2) 0.1504(2)
C21 C 1.0818(4) 0.1734(3) 0.2484(2)
H9 H 1.1544 0.1676 0.2867
C22 C 0.4471(4) 0.8080(3) 0.2698(2)
H10 H 0.4162 0.8613 0.2579
O9 O 0.2157(4) 0.4551(2) 0.21917(19)
C23 C 0.5598(5) 0.7968(3) 0.3193(2)
H11 H 0.6054 0.8426 0.3417
C24 C 0.3852(4) 0.1437(3) -0.1238(2)
H12 H 0.3092 0.1442 -0.1602
C25 C 0.4270(4) 0.6648(3) 0.2540(3)
H13 H 0.3819 0.6190 0.2314
C26 C 0.8935(4) 0.1169(2) 0.1736(2)
H14 H 0.8364 0.0721 0.1610
C27 C 0.5411(4) 0.6537(3) 0.3037(3)
H15 H 0.5736 0.6005 0.3150
C28 C 0.5674(4) 0.0702(2) -0.0597(2)
H16 H 0.6174 0.0215 -0.0527
C29 C 0.6072(4) 0.7203(4) 0.3369(2)
H17 H 0.6846 0.7132 0.3715
C30 C 0.4573(5) 0.0721(3) -0.1117(2)
H18 H 0.4300 0.0245 -0.1394
C31 C 0.9983(4) 0.1087(2) 0.2305(2)
H19 H 1.0122 0.0586 0.2570
C32 C -0.0660(5) 0.9337(2) 0.0623(3)
H20 H -0.1004 0.9872 0.0565
O10 O 0.5894(2) 0.42531(14) 0.01672(17)
H21 H 0.231(4) 0.864(2) 0.206(2)
Ho1B Ho -0.253880(13) 0.521004(8) 0.011987(9)
Ho1B_2 Ho 0.746120(13) 0.521004(8) 0.011987(9)
O3B O 0.0914(2) 0.38949(14) -0.05768(14)
O10B O 0.4106(2) 0.57469(14) -0.01672(17)
loop_
_geom_bond_atom_site_label_1
_geom_bond_atom_site_label_2
_geom_bond_site_symmetry_1
_geom_bond_site_symmetry_2
Ho1 O1 1_555 1_555
O1 C3 1_555 1_555
C1 O2 1_555 1_555
N1 C14 1_555 1_555
C2 N2 1_555 1_555
C3 C4 1_555 1_555
N2 C6 1_555 1_555
O2 Ho1 1_555 1_555
C4 C5 1_555 1_555
C5 H1 1_555 1_555
O3 C1 1_555 1_555
C6 C5 1_555 1_555
C7 C6 1_555 1_555
C8 C13 1_555 1_555
O4 N3 1_555 1_555
C9 C7 1_555 1_555
H2 C9 1_555 1_555
C10 H3 1_555 1_555
C11 C14 1_555 1_555
C12 C2 1_555 1_555
O5 Ho1 1_555 1_555
O6 Ho1 1_555 1_555
C13 C1 1_555 1_555
O7 Ho1 1_555 1_555
N3 O6 1_555 1_555
C14 C10 1_555 1_555
C15 N1 1_555 1_555
C16 C12 1_555 1_555
H4 C16 1_555 1_555
O8 Ho1 1_555 1_555
C17 C15 1_555 1_555
H5 C17 1_555 1_555
C18 H6 1_555 1_555
C19 C8 1_555 1_555
H7 C19 1_555 1_555
C20 C9 1_555 1_555
H8 C20 1_555 1_555
N4 O5 1_555 1_555
C21 C20 1_555 1_555
H9 C21 1_555 1_555
C22 C11 1_555 1_555
H10 C22 1_555 1_555
O9 N4 1_555 1_555
C23 C22 1_555 1_555
H11 C23 1_555 1_555
C24 C16 1_555 1_555
H12 C24 1_555 1_555
C25 C11 1_555 1_555
H13 C25 1_555 1_555
C26 C7 1_555 1_555
H14 C26 1_555 1_555
C27 C25 1_555 1_555
H15 C27 1_555 1_555
C28 C2 1_555 1_555
H16 C28 1_555 1_555
C29 C23 1_555 1_555
H17 C29 1_555 1_555
C30 C24 1_555 1_555
H18 C30 1_555 1_555
C31 C21 1_555 1_555
H19 C31 1_555 1_555
C32 C17 1_555 1_555
H20 C32 1_555 1_555
O10 C3 1_555 1_555
H21 N1 1_555 1_555
Ho1B O3 1_555 1_555
Ho1B_2 O10 1_555 1_555
O3B Ho1 1_555 1_555
O10B Ho1 1_555 1_555
C4 C12 1_555 1_555
C8 C15 1_555 1_555
C10 C13 1_555 1_555
O7 N3 1_555 1_555
O8 N4 1_555 1_555
C18 C19 1_555 1_555
C18 C32 1_555 1_555
C26 C31 1_555 1_555
C27 C29 1_555 1_555
C28 C30 1_555 1_555

#END
