
#######################################################################
#
#                 Cambridge Crystallographic Data Centre
#                                CCDC 
#
#######################################################################
#
# If this CIF has been generated from an entry in the Cambridge 
# Structural Database, then it will include bibliographic, chemical, 
# crystal, experimental, refinement or atomic coordinate data resulting 
# from the CCDC's data processing and validation procedures.
#
#######################################################################

data_GOBQEV
_symmetry_cell_setting           monoclinic
_symmetry_space_group_name_H-M   'P 21/c'
_symmetry_Int_Tables_number      14
_space_group_name_Hall           '-P 2ybc'
loop_
_symmetry_equiv_pos_site_id
_symmetry_equiv_pos_as_xyz
1 x,y,z
2 -x,1/2+y,1/2-z
3 -x,-y,-z
4 x,1/2-y,1/2+z
_cell_length_a                   9.978(2)
_cell_length_b                   16.448(4)
_cell_length_c                   17.116(4)
_cell_angle_alpha                90
_cell_angle_beta                 94.160(5)
_cell_angle_gamma                90
_cell_volume                     2801.65
loop_
_atom_site_label
_atom_site_type_symbol
_atom_site_fract_x
_atom_site_fract_y
_atom_site_fract_z
Tb1 Tb 0.743749(18) 0.520492(11) 0.012755(11)
O1 O 1.0918(3) 0.38807(16) -0.05866(15)
O2 O 0.6649(3) 0.55326(16) 0.14375(15)
O3 O 0.7894(3) 0.54028(19) -0.22258(17)
O4 O 0.4159(3) 0.57600(15) -0.01811(17)
O5 O 0.8922(3) 0.42128(15) -0.01664(15)
O6 O 0.8431(3) 0.57975(16) -0.10238(15)
O7 O 0.7162(3) 0.48442(17) 0.25047(16)
O8 O 0.6772(3) 0.49576(16) -0.12577(16)
O9 O 0.6143(3) 0.63763(15) -0.00145(15)
O10 O 0.8083(3) 0.45529(16) 0.14199(16)
N1 N 0.2781(3) 0.86889(18) -0.03722(18)
N2 N 0.8027(3) 0.1727(2) -0.17525(19)
N3 N 0.7708(4) 0.5391(2) -0.1535(2)
N4 N 0.7289(3) 0.49768(19) 0.18023(19)
C1 C 0.0411(4) 0.7425(2) -0.1558(2)
H1 H 0.0577 0.6920 -0.1300
C2 C 0.7964(4) 0.3093(2) -0.1386(2)
H2 H 0.7539 0.3610 -0.1422
C3 C 0.5783(4) 0.7920(2) 0.0839(2)
H3 H 0.6307 0.7443 0.0932
C4 C 0.1241(4) 0.8091(2) -0.1363(2)
C5 C 0.9703(4) 0.2217(2) -0.0785(2)
C6 C 0.2388(4) 0.8022(2) -0.0762(2)
C7 C 0.3048(4) 0.7264(2) -0.0635(2)
H4 H 0.2703 0.6794 -0.0902
C8 C 0.9101(4) 0.2995(2) -0.0896(2)
C9 C 0.9700(4) 0.3758(2) -0.0511(2)
C10 C -0.0888(4) 0.8227(3) -0.2512(2)
H5 H -0.1617 0.8278 -0.2898
C11 C 0.7420(4) 0.2448(2) -0.1835(2)
C12 C 0.3871(4) 0.8633(2) 0.0161(2)
C13 C 0.6215(4) 0.2546(2) -0.2385(2)
C14 C 0.4173(4) 0.7201(2) -0.0134(2)
C15 C 0.4874(4) 0.6388(2) -0.0096(2)
C16 C 1.0804(4) 0.2043(2) -0.0247(2)
H6 H 1.1226 0.2468 0.0056
C17 C 0.4643(4) 0.7904(2) 0.0292(2)
C18 C 0.0999(4) 0.8820(2) -0.1762(2)
H7 H 0.1562 0.9276 -0.1642
C19 C 0.5503(4) 0.1879(3) -0.2689(2)
H8 H 0.5797 0.1345 -0.2553
C20 C 1.1266(4) 0.1259(2) -0.0162(2)
H9 H 1.1992 0.1143 0.0212
C21 C 0.4372(4) 0.1991(3) -0.3187(2)
H10 H 0.3901 0.1530 -0.3399
C22 C 0.5372(4) 0.9337(3) 0.1109(2)
H11 H 0.5633 0.9819 0.1386
C23 C 0.9620(4) 0.0771(2) -0.1145(2)
H12 H 0.9228 0.0340 -0.1451
C24 C 0.4255(4) 0.9339(2) 0.0586(2)
H13 H 0.3738 0.9821 0.0511
C25 C 0.4591(4) 0.3432(3) -0.3073(3)
H14 H 0.4270 0.3964 -0.3198
C26 C 0.9111(4) 0.1568(2) -0.1229(2)
C27 C -0.0049(4) 0.8888(2) -0.2331(2)
H15 H -0.0199 0.9389 -0.2600
C28 C 0.5743(4) 0.3324(2) -0.2579(2)
H16 H 0.6216 0.3786 -0.2370
C29 C -0.0649(4) 0.7492(3) -0.2124(2)
H17 H -0.1212 0.7037 -0.2246
C30 C 1.0683(4) 0.0630(3) -0.0619(2)
H18 H 1.1034 0.0095 -0.0561
C31 C 0.3910(4) 0.2756(3) -0.3384(2)
H19 H 0.3131 0.2822 -0.3731
C32 C 0.6125(4) 0.8622(3) 0.1231(2)
H20 H 0.6890 0.8626 0.1596
H21 H 0.770(4) 0.130(3) -0.198(3)
Tb1B Tb 0.256251(18) 0.479508(11) -0.012755(11)
Tb1B_2 Tb 1.256251(18) 0.479508(11) -0.012755(11)
O1B O 0.9082(3) 0.61193(16) 0.05866(15)
O4B O 0.5841(3) 0.42400(15) 0.01811(17)
loop_
_geom_bond_atom_site_label_1
_geom_bond_atom_site_label_2
_geom_bond_site_symmetry_1
_geom_bond_site_symmetry_2
Tb1 O2 1_555 1_555
O1 C9 1_555 1_555
O2 N4 1_555 1_555
O3 N3 1_555 1_555
O4 C15 1_555 1_555
O5 Tb1 1_555 1_555
O6 Tb1 1_555 1_555
O7 N4 1_555 1_555
O8 Tb1 1_555 1_555
O9 Tb1 1_555 1_555
O10 Tb1 1_555 1_555
N1 C6 1_555 1_555
N2 C11 1_555 1_555
N3 O6 1_555 1_555
N4 O10 1_555 1_555
C1 H1 1_555 1_555
C2 H2 1_555 1_555
C3 H3 1_555 1_555
C4 C1 1_555 1_555
C5 C8 1_555 1_555
C6 C4 1_555 1_555
C7 C6 1_555 1_555
H4 C7 1_555 1_555
C8 C2 1_555 1_555
C9 O5 1_555 1_555
C10 H5 1_555 1_555
C11 C2 1_555 1_555
C12 N1 1_555 1_555
C13 C11 1_555 1_555
C14 C7 1_555 1_555
C15 O9 1_555 1_555
C16 C5 1_555 1_555
H6 C16 1_555 1_555
C17 C3 1_555 1_555
C18 C4 1_555 1_555
H7 C18 1_555 1_555
C19 C13 1_555 1_555
H8 C19 1_555 1_555
C20 C16 1_555 1_555
H9 C20 1_555 1_555
C21 C19 1_555 1_555
H10 C21 1_555 1_555
C22 H11 1_555 1_555
C23 H12 1_555 1_555
C24 C12 1_555 1_555
H13 C24 1_555 1_555
C25 H14 1_555 1_555
C26 N2 1_555 1_555
C27 C10 1_555 1_555
H15 C27 1_555 1_555
C28 C13 1_555 1_555
H16 C28 1_555 1_555
C29 C1 1_555 1_555
H17 C29 1_555 1_555
C30 C20 1_555 1_555
H18 C30 1_555 1_555
C31 C21 1_555 1_555
H19 C31 1_555 1_555
C32 C3 1_555 1_555
H20 C32 1_555 1_555
H21 N2 1_555 1_555
Tb1B O4 1_555 1_555
Tb1B_2 O1 1_555 1_555
O1B Tb1 1_555 1_555
O4B Tb1 1_555 1_555
O8 N3 1_555 1_555
C5 C26 1_555 1_555
C8 C9 1_555 1_555
C10 C29 1_555 1_555
C12 C17 1_555 1_555
C14 C15 1_555 1_555
C14 C17 1_555 1_555
C18 C27 1_555 1_555
C22 C24 1_555 1_555
C22 C32 1_555 1_555
C23 C26 1_555 1_555
C23 C30 1_555 1_555
C25 C28 1_555 1_555
C25 C31 1_555 1_555

#END
