
#######################################################################
#
#                 Cambridge Crystallographic Data Centre
#                                CCDC 
#
#######################################################################
#
# If this CIF has been generated from an entry in the Cambridge 
# Structural Database, then it will include bibliographic, chemical, 
# crystal, experimental, refinement or atomic coordinate data resulting 
# from the CCDC's data processing and validation procedures.
#
#######################################################################

data_GOBROF
_symmetry_cell_setting           monoclinic
_symmetry_space_group_name_H-M   'C 2/c'
_symmetry_Int_Tables_number      15
_space_group_name_Hall           '-C 2yn'
loop_
_symmetry_equiv_pos_site_id
_symmetry_equiv_pos_as_xyz
1 x,y,z
2 1/2+x,1/2+y,z
3 -x,y,1/2-z
4 1/2-x,1/2+y,1/2-z
5 -x,-y,-z
6 1/2-x,1/2-y,-z
7 x,-y,1/2+z
8 1/2+x,1/2-y,1/2+z
_cell_length_a                   27.745(6)
_cell_length_b                   7.734(2)
_cell_length_c                   12.468(4)
_cell_angle_alpha                90
_cell_angle_beta                 99.420(17)
_cell_angle_gamma                90
_cell_volume                     2639.3
loop_
_atom_site_label
_atom_site_type_symbol
_atom_site_fract_x
_atom_site_fract_y
_atom_site_fract_z
Zn1 Zn 0.5000 0.43715(18) 0.2500
O1 O 0.5238(3) 0.5688(9) 0.1270(6)
O2 O 0.4943(4) 0.7928(11) 0.0324(7)
O3 O 0.4511(3) 0.6506(10) 0.1277(8)
N1 N 0.4451(2) 0.2602(8) 0.2072(5)
N2 N 0.3416(3) -0.2936(12) 0.1872(8)
N3 N 0.4906(4) 0.6740(10) 0.0955(7)
C1 C 0.4174(3) 0.2589(11) 0.1121(7)
H1 H 0.4200 0.3496 0.0644
C2 C 0.3840(3) 0.1267(11) 0.0789(7)
H2 H 0.3651 0.1301 0.0100
C3 C 0.3789(3) -0.0089(10) 0.1480(6)
C4 C 0.4089(3) -0.0038(11) 0.2509(7)
H3 H 0.4070 -0.0909 0.3014
C5 C 0.4404(3) 0.1286(11) 0.2753(7)
H4 H 0.4601 0.1290 0.3433
C6 C 0.3454(3) -0.1561(11) 0.1119(7)
H5 H 0.3129 -0.1089 0.0894
H6 H 0.3555 -0.2063 0.0478
C7 C 0.3169(3) -0.2768(10) 0.2765(7)
C8 C 0.3187(3) -0.4155(10) 0.3511(6)
C9 C 0.2919(3) -0.4012(10) 0.4362(6)
H7 H 0.2928 -0.4931 0.4846
C10 C 0.2637(2) -0.2554(10) 0.4529(6)
C11 C 0.2629(3) -0.1220(10) 0.3770(6)
H8 H 0.2444 -0.0237 0.3841
C12 C 0.2893(3) -0.1326(10) 0.2902(6)
H9 H 0.2881 -0.0413 0.2413
C13 C 0.3472(4) -0.5759(12) 0.3346(8)
H10 H 0.3450 -0.6564 0.3922
H11 H 0.3809 -0.5459 0.3351
H12 H 0.3341 -0.6277 0.2661
H13 H 0.353(4) -0.353(13) 0.182(9)
Zn1E Zn 0.0000 -0.93715(18) 0.7500
O1B O 0.4762(3) 0.5688(9) 0.3730(6)
O2B O 0.5057(4) 0.7928(11) 0.4676(7)
O3B O 0.5489(3) 0.6506(10) 0.3723(8)
N1E N 0.0549(2) -0.7602(8) 0.7928(5)
N1B N 0.5549(2) 0.2602(8) 0.2928(5)
N2E N 0.1584(3) -0.2064(12) 0.8128(8)
N3B N 0.5094(4) 0.6740(10) 0.4045(7)
C1E C 0.0826(3) -0.7589(11) 0.8879(7)
H1E H 0.0800 -0.8496 0.9356
C2E C 0.1160(3) -0.6267(11) 0.9211(7)
H2E H 0.1349 -0.6301 0.9900
C3E C 0.1211(3) -0.4911(10) 0.8520(6)
C4E C 0.0911(3) -0.4962(11) 0.7491(7)
H3E H 0.0930 -0.4091 0.6986
C5E C 0.0596(3) -0.6286(11) 0.7247(7)
H4E H 0.0399 -0.6290 0.6567
C6E C 0.1546(3) -0.3439(11) 0.8881(7)
H5E H 0.1871 -0.3911 0.9106
H6E H 0.1445 -0.2937 0.9522
C7E C 0.1831(3) -0.2232(10) 0.7235(7)
C8E C 0.1813(3) -0.0845(10) 0.6489(6)
C9E C 0.2081(3) -0.0988(10) 0.5638(6)
H7E H 0.2072 -0.0069 0.5154
C10E C 0.2363(2) -0.2446(10) 0.5471(6)
C11E C 0.2371(3) -0.3780(10) 0.6230(6)
H8E H 0.2556 -0.4763 0.6159
C12E C 0.2107(3) -0.3674(10) 0.7098(6)
H9E H 0.2119 -0.4587 0.7587
C13E C 0.1528(4) 0.0759(12) 0.6654(8)
H10E H 0.1550 0.1564 0.6078
H11E H 0.1191 0.0459 0.6649
H12E H 0.1659 0.1277 0.7339
H13E H 0.147(4) -0.147(13) 0.818(9)
loop_
_geom_bond_atom_site_label_1
_geom_bond_atom_site_label_2
_geom_bond_site_symmetry_1
_geom_bond_site_symmetry_2
Zn1 O1 1_555 1_555
O1 N3 1_555 1_555
O2 N3 1_555 1_555
O3 Zn1 1_555 1_555
N1 Zn1 1_555 1_555
N2 C6 1_555 1_555
N3 O3 1_555 1_555
C1 N1 1_555 1_555
H1 C1 1_555 1_555
C2 C1 1_555 1_555
H2 C2 1_555 1_555
C3 C2 1_555 1_555
C4 C3 1_555 1_555
H3 C4 1_555 1_555
C5 N1 1_555 1_555
H4 C5 1_555 1_555
C6 C3 1_555 1_555
H5 C6 1_555 1_555
H6 C6 1_555 1_555
C7 N2 1_555 1_555
C8 C7 1_555 1_555
C9 C8 1_555 1_555
H7 C9 1_555 1_555
C10 C9 1_555 1_555
C11 C10 1_555 1_555
H8 C11 1_555 1_555
C12 C7 1_555 1_555
H9 C12 1_555 1_555
C13 C8 1_555 1_555
H10 C13 1_555 1_555
H11 C13 1_555 1_555
H12 C13 1_555 1_555
H13 N2 1_555 1_555
Zn1E N1E 1_555 1_555
O1B Zn1 1_555 1_555
O2B N3B 1_555 1_555
O3B Zn1 1_555 1_555
N1E C1E 1_555 1_555
N1B Zn1 1_555 1_555
N2E C6E 1_555 1_555
N3B O1B 1_555 1_555
C1E H1E 1_555 1_555
C2E C1E 1_555 1_555
H2E C2E 1_555 1_555
C3E C2E 1_555 1_555
C4E C3E 1_555 1_555
H3E C4E 1_555 1_555
C5E N1E 1_555 1_555
H4E C5E 1_555 1_555
C6E C3E 1_555 1_555
H5E C6E 1_555 1_555
H6E C6E 1_555 1_555
C7E N2E 1_555 1_555
C8E C7E 1_555 1_555
C9E C8E 1_555 1_555
H7E C9E 1_555 1_555
C10E C10 1_555 1_555
C11E C10E 1_555 1_555
H8E C11E 1_555 1_555
C12E C7E 1_555 1_555
H9E C12E 1_555 1_555
C13E C8E 1_555 1_555
H10E C13E 1_555 1_555
H11E C13E 1_555 1_555
H12E C13E 1_555 1_555
H13E N2E 1_555 1_555
C4 C5 1_555 1_555
C11 C12 1_555 1_555
O3B N3B 1_555 1_555
C4E C5E 1_555 1_555
C9E C10E 1_555 1_555
C11E C12E 1_555 1_555

#END
