
#######################################################################
#
#                 Cambridge Crystallographic Data Centre
#                                CCDC 
#
#######################################################################
#
# If this CIF has been generated from an entry in the Cambridge 
# Structural Database, then it will include bibliographic, chemical, 
# crystal, experimental, refinement or atomic coordinate data resulting 
# from the CCDC's data processing and validation procedures.
#
#######################################################################

data_GOBRUL
_symmetry_cell_setting           triclinic
_symmetry_space_group_name_H-M   'P -1'
_symmetry_Int_Tables_number      2
_space_group_name_Hall           '-P 1'
loop_
_symmetry_equiv_pos_site_id
_symmetry_equiv_pos_as_xyz
1 x,y,z
2 -x,-y,-z
_cell_length_a                   9.2849(10)
_cell_length_b                   9.5473(9)
_cell_length_c                   15.163(2)
_cell_angle_alpha                95.797(10)
_cell_angle_beta                 100.527(10)
_cell_angle_gamma                116.780(6)
_cell_volume                     1153.75
loop_
_atom_site_label
_atom_site_type_symbol
_atom_site_fract_x
_atom_site_fract_y
_atom_site_fract_z
Cd1 Cd 0.0000 0.0000 0.0000
O1 O -0.1710(6) 0.0688(6) 0.0712(4)
O2 O -0.2099(11) 0.2720(8) 0.0880(8)
O3 O -0.332(2) 0.1008(19) -0.0031(9)
N1 N 0.2280(5) 0.2452(5) 0.0824(3)
N2 N 0.5727(5) 0.8509(5) 0.1945(3)
H1 H 0.5543 0.8989 0.1522
N3 N 0.0162(5) -0.1248(5) 0.1237(4)
N4 N 0.0598(6) -0.2950(6) 0.4350(5)
H2 H 0.1448 -0.2232 0.4770
N5 N -0.2303(8) 0.1594(10) 0.0548(5)
C1 C 0.3802(6) 0.2867(6) 0.0743(3)
H3 H 0.4009 0.2087 0.0464
C2 C 0.5086(6) 0.4398(5) 0.1051(3)
H4 H 0.6147 0.4619 0.1001
C3 C 0.4847(5) 0.5623(5) 0.1433(3)
C4 C 0.3268(6) 0.5181(6) 0.1534(4)
H5 H 0.3027 0.5943 0.1802
C5 C 0.2058(7) 0.3618(7) 0.1239(4)
H6 H 0.1009 0.3344 0.1333
C6 C 0.6218(6) 0.7327(5) 0.1724(3)
H7 H 0.7031 0.7403 0.2255
H8 H 0.6773 0.7586 0.1234
C7 C 0.5531(5) 0.8931(5) 0.2796(3)
C8 C 0.5151(6) 1.0170(5) 0.2979(3)
C9 C 0.4960(6) 1.0551(5) 0.3839(3)
H9 H 0.4697 1.1373 0.3948
C10 C 0.5135(6) 0.9789(5) 0.4547(3)
C11 C 0.5518(6) 0.8568(6) 0.4342(3)
H10 H 0.5662 0.8018 0.4793
C12 C 0.5689(6) 0.8146(6) 0.3483(4)
H11 H 0.5920 0.7302 0.3369
C13 C 0.4940(8) 1.1049(7) 0.2253(4)
H12 H 0.5118 1.0629 0.1705
H13 H 0.5735 1.2168 0.2459
H14 H 0.3829 1.0918 0.2126
C14 C 0.0545(7) -0.0508(7) 0.2116(5)
H15 H 0.0697 0.0531 0.2226
C15 C 0.0726(6) -0.1169(7) 0.2857(5)
H16 H 0.0968 -0.0596 0.3446
C16 C 0.0545(6) -0.2696(7) 0.2723(5)
C17 C 0.0109(8) -0.3496(8) 0.1832(6)
H17 H -0.0065 -0.4542 0.1706
C18 C -0.0069(8) -0.2735(8) 0.1128(6)
H18 H -0.0375 -0.3308 0.0531
C19 C 0.0856(8) -0.3463(9) 0.3491(6)
H19 H 0.0137 -0.4613 0.3293
H20 H 0.2000 -0.3267 0.3603
C20 C -0.0980(7) -0.3573(7) 0.4525(6)
C21 C -0.1104(7) -0.3189(7) 0.5408(5)
C22 C -0.2687(6) -0.3769(6) 0.5585(5)
H21 H -0.2750 -0.3507 0.6179
C23 C -0.4161(6) -0.4720(6) 0.4906(5)
C24 C -0.3970(7) -0.5114(7) 0.4046(6)
H22 H -0.4922 -0.5782 0.3576
C25 C -0.2427(7) -0.4560(6) 0.3852(5)
H23 H -0.2368 -0.4857 0.3261
C26 C 0.0428(7) -0.2175(9) 0.6186(5)
H24 H 0.0100 -0.2030 0.6739
H25 H 0.1062 -0.1148 0.6045
H26 H 0.1100 -0.2700 0.6271
Cd1_2 Cd 1.0000 2.0000 1.0000
Cd1_3 Cd -1.0000 -1.0000 1.0000
O1A O 0.1710(6) -0.0688(6) -0.0712(4)
O2A O 0.2099(11) -0.2720(8) -0.0880(8)
O3A O 0.332(2) -0.1008(19) 0.0031(9)
N1A N 0.7720(5) 1.7548(5) 0.9176(3)
N1A_2 N -0.2280(5) -0.2452(5) -0.0824(3)
N2A N 0.4273(5) 1.1491(5) 0.8055(3)
H1A H 0.4457 1.1011 0.8478
N3A N -1.0162(5) -0.8752(5) 0.8763(4)
N3A_2 N -0.0162(5) 0.1248(5) -0.1237(4)
N4A N -1.0598(6) -0.7050(6) 0.5650(5)
H2A H -1.1448 -0.7768 0.5230
N5A N 0.2303(8) -0.1594(10) -0.0548(5)
C1A C 0.6198(6) 1.7133(6) 0.9257(3)
H3A H 0.5991 1.7913 0.9536
C2A C 0.4914(6) 1.5602(5) 0.8949(3)
H4A H 0.3853 1.5381 0.8999
C3A C 0.5153(5) 1.4377(5) 0.8567(3)
C4A C 0.6732(6) 1.4819(6) 0.8466(4)
H5A H 0.6973 1.4057 0.8198
C5A C 0.7942(7) 1.6382(7) 0.8761(4)
H6A H 0.8991 1.6656 0.8667
C6A C 0.3782(6) 1.2673(5) 0.8276(3)
H7A H 0.2969 1.2597 0.7745
H8A H 0.3227 1.2414 0.8766
C7A C 0.4469(5) 1.1069(5) 0.7204(3)
C8A C 0.4849(6) 0.9830(5) 0.7021(3)
C9A C 0.5040(6) 0.9449(5) 0.6161(3)
H9A H 0.5303 0.8627 0.6052
C10A C 0.4865(6) 1.0211(5) 0.5453(3)
C11A C 0.4482(6) 1.1432(6) 0.5658(3)
H10A H 0.4338 1.1982 0.5207
C12A C 0.4311(6) 1.1854(6) 0.6517(4)
H11A H 0.4080 1.2698 0.6631
C13A C 0.5060(8) 0.8951(7) 0.7747(4)
H12A H 0.4882 0.9371 0.8295
H13A H 0.4265 0.7832 0.7541
H14A H 0.6171 0.9082 0.7874
C14A C -1.0545(7) -0.9492(7) 0.7884(5)
H15A H -1.0697 -1.0531 0.7774
C15A C -1.0726(6) -0.8831(7) 0.7143(5)
H16A H -1.0968 -0.9404 0.6554
C16A C -1.0545(6) -0.7304(7) 0.7277(5)
C17A C -1.0109(8) -0.6504(8) 0.8168(6)
H17A H -0.9935 -0.5458 0.8294
C18A C -0.9931(8) -0.7265(8) 0.8872(6)
H18A H -0.9625 -0.6692 0.9469
C19A C -1.0856(8) -0.6537(9) 0.6509(6)
H19A H -1.0137 -0.5387 0.6707
H20A H -1.2000 -0.6733 0.6397
C20A C -0.9020(7) -0.6427(7) 0.5475(6)
C21A C -0.8896(7) -0.6811(7) 0.4592(5)
C22A C -0.7313(6) -0.6231(6) 0.4415(5)
H21A H -0.7250 -0.6493 0.3821
C23A C -0.5839(6) -0.5280(6) 0.5094(5)
C24A C -0.6030(7) -0.4886(7) 0.5954(6)
H22A H -0.5078 -0.4218 0.6424
C25A C -0.7573(7) -0.5440(6) 0.6148(5)
H23A H -0.7632 -0.5143 0.6739
C26A C -1.0428(7) -0.7825(9) 0.3814(5)
H24A H -1.0100 -0.7970 0.3261
H25A H -1.1062 -0.8852 0.3955
H26A H -1.1100 -0.7300 0.3729
loop_
_geom_bond_atom_site_label_1
_geom_bond_atom_site_label_2
_geom_bond_site_symmetry_1
_geom_bond_site_symmetry_2
Cd1 O1 1_555 1_555
O1 N5 1_555 1_555
O2 N5 1_555 1_555
O3 N5 1_555 1_555
N1 Cd1 1_555 1_555
N2 H1 1_555 1_555
N3 Cd1 1_555 1_555
N4 H2 1_555 1_555
C1 N1 1_555 1_555
H3 C1 1_555 1_555
C2 C1 1_555 1_555
H4 C2 1_555 1_555
C3 C2 1_555 1_555
C4 C3 1_555 1_555
H5 C4 1_555 1_555
C5 N1 1_555 1_555
H6 C5 1_555 1_555
C6 N2 1_555 1_555
H7 C6 1_555 1_555
H8 C6 1_555 1_555
C7 N2 1_555 1_555
C8 C7 1_555 1_555
C9 C8 1_555 1_555
H9 C9 1_555 1_555
C10 C9 1_555 1_555
C11 C10 1_555 1_555
H10 C11 1_555 1_555
C12 C7 1_555 1_555
H11 C12 1_555 1_555
C13 C8 1_555 1_555
H12 C13 1_555 1_555
H13 C13 1_555 1_555
H14 C13 1_555 1_555
C14 N3 1_555 1_555
H15 C14 1_555 1_555
C15 C14 1_555 1_555
H16 C15 1_555 1_555
C16 C15 1_555 1_555
C17 C16 1_555 1_555
H17 C17 1_555 1_555
C18 N3 1_555 1_555
H18 C18 1_555 1_555
C19 N4 1_555 1_555
H19 C19 1_555 1_555
H20 C19 1_555 1_555
C20 N4 1_555 1_555
C21 C20 1_555 1_555
C22 C21 1_555 1_555
H21 C22 1_555 1_555
C23 C22 1_555 1_555
C24 C23 1_555 1_555
H22 C24 1_555 1_555
C25 C20 1_555 1_555
H23 C25 1_555 1_555
C26 C21 1_555 1_555
H24 C26 1_555 1_555
H25 C26 1_555 1_555
H26 C26 1_555 1_555
Cd1_2 N1A 1_555 1_555
Cd1_3 N3A 1_555 1_555
O1A Cd1 1_555 1_555
O2A N5A 1_555 1_555
O3A N5A 1_555 1_555
N1A C1A 1_555 1_555
N1A_2 Cd1 1_555 1_555
N2A H1A 1_555 1_555
N3A C14A 1_555 1_555
N3A_2 Cd1 1_555 1_555
N4A H2A 1_555 1_555
N5A O1A 1_555 1_555
C1A H3A 1_555 1_555
C2A C1A 1_555 1_555
H4A C2A 1_555 1_555
C3A C2A 1_555 1_555
C4A C3A 1_555 1_555
H5A C4A 1_555 1_555
C5A N1A 1_555 1_555
H6A C5A 1_555 1_555
C6A N2A 1_555 1_555
H7A C6A 1_555 1_555
H8A C6A 1_555 1_555
C7A N2A 1_555 1_555
C8A C7A 1_555 1_555
C9A C8A 1_555 1_555
H9A C9A 1_555 1_555
C10A C10 1_555 1_555
C11A C10A 1_555 1_555
H10A C11A 1_555 1_555
C12A C7A 1_555 1_555
H11A C12A 1_555 1_555
C13A C8A 1_555 1_555
H12A C13A 1_555 1_555
H13A C13A 1_555 1_555
H14A C13A 1_555 1_555
C14A H15A 1_555 1_555
C15A C14A 1_555 1_555
H16A C15A 1_555 1_555
C16A C15A 1_555 1_555
C17A C16A 1_555 1_555
H17A C17A 1_555 1_555
C18A N3A 1_555 1_555
H18A C18A 1_555 1_555
C19A N4A 1_555 1_555
H19A C19A 1_555 1_555
H20A C19A 1_555 1_555
C20A N4A 1_555 1_555
C21A C20A 1_555 1_555
C22A C21A 1_555 1_555
H21A C22A 1_555 1_555
C23A C23 1_555 1_555
C24A C23A 1_555 1_555
H22A C24A 1_555 1_555
C25A C20A 1_555 1_555
H23A C25A 1_555 1_555
C26A C21A 1_555 1_555
H24A C26A 1_555 1_555
H25A C26A 1_555 1_555
H26A C26A 1_555 1_555
C3 C6 1_555 1_555
C4 C5 1_555 1_555
C11 C12 1_555 1_555
C16 C19 1_555 1_555
C17 C18 1_555 1_555
C24 C25 1_555 1_555
C3A C6A 1_555 1_555
C4A C5A 1_555 1_555
C9A C10A 1_555 1_555
C11A C12A 1_555 1_555
C16A C19A 1_555 1_555
C17A C18A 1_555 1_555
C22A C23A 1_555 1_555
C24A C25A 1_555 1_555

#END
