
#######################################################################
#
#                 Cambridge Crystallographic Data Centre
#                                CCDC 
#
#######################################################################
#
# If this CIF has been generated from an entry in the Cambridge 
# Structural Database, then it will include bibliographic, chemical, 
# crystal, experimental, refinement or atomic coordinate data resulting 
# from the CCDC's data processing and validation procedures.
#
#######################################################################

data_GOBRIZ
_symmetry_cell_setting           monoclinic
_symmetry_space_group_name_H-M   'C 2/c'
_symmetry_Int_Tables_number      15
_space_group_name_Hall           '-C 2yn'
loop_
_symmetry_equiv_pos_site_id
_symmetry_equiv_pos_as_xyz
1 x,y,z
2 1/2+x,1/2+y,z
3 -x,y,1/2-z
4 1/2-x,1/2+y,1/2-z
5 -x,-y,-z
6 1/2-x,1/2-y,-z
7 x,-y,1/2+z
8 1/2+x,1/2-y,1/2+z
_cell_length_a                   27.619(7)
_cell_length_b                   7.683(2)
_cell_length_c                   12.507(4)
_cell_angle_alpha                90
_cell_angle_beta                 98.86(2)
_cell_angle_gamma                90
_cell_volume                     2622.28
loop_
_atom_site_label
_atom_site_type_symbol
_atom_site_fract_x
_atom_site_fract_y
_atom_site_fract_z
Co1 Co 0.0000 0.05181(7) 0.2500
O1 O -0.04705(9) -0.1498(3) 0.1472(2)
O2 O 0.02407(9) -0.0704(3) 0.1204(2)
O3 O -0.01156(15) -0.2881(4) 0.0288(3)
N1 N 0.05379(8) 0.2364(3) 0.29667(19)
N2 N 0.15888(10) 0.7924(4) 0.3143(2)
N3 N -0.01227(13) -0.1739(4) 0.0953(2)
C1 C 0.08225(10) 0.2401(4) 0.3945(2)
H1 H 0.0791 0.1513 0.4435
C2 C 0.11579(10) 0.3709(4) 0.4245(2)
H2 H 0.1351 0.3684 0.4923
C3 C 0.12084(9) 0.5059(4) 0.3540(2)
C4 C 0.09176(10) 0.5013(4) 0.2529(2)
H3 H 0.0943 0.5886 0.2026
C5 C 0.05911(10) 0.3666(4) 0.2279(2)
H4 H 0.0398 0.3658 0.1600
C6 C 0.15567(11) 0.6547(4) 0.3899(2)
H5 H 0.1461 0.7052 0.4546
H6 H 0.1882 0.6061 0.4102
C7 C 0.18317(9) 0.7770(4) 0.2249(2)
C8 C 0.21101(10) 0.6297(4) 0.2088(2)
H7 H 0.2120 0.5364 0.2564
C9 C 0.23721(10) 0.6213(4) 0.1223(2)
H8 H 0.2559 0.5228 0.1146
C10 C 0.23642(8) 0.7550(3) 0.0470(2)
C11 C 0.20774(10) 0.9004(4) 0.0649(2)
H9 H 0.2063 0.9925 0.0163
C12 C 0.18150(10) 0.9146(4) 0.1507(2)
C13 C 0.15226(14) 1.0769(5) 0.1658(3)
H10 H 0.1548 1.1572 0.1081
H11 H 0.1649 1.1302 0.2338
H12 H 0.1185 1.0464 0.1650
H13 H 0.1371(11) 0.848(4) 0.302(2)
Co1E Co 0.5000 1.44819(7) -0.2500
O1B O 0.04705(9) -0.1498(3) 0.3528(2)
O2B O -0.02407(9) -0.0704(3) 0.3796(2)
O3B O 0.01156(15) -0.2881(4) 0.4712(3)
N1E N 0.44621(8) 1.2636(3) -0.29667(19)
N1B N -0.05379(8) 0.2364(3) 0.20333(19)
N2E N 0.34112(10) 0.7076(4) -0.3143(2)
N3B N 0.01227(13) -0.1739(4) 0.4047(2)
C1E C 0.41775(10) 1.2599(4) -0.3945(2)
H1E H 0.4209 1.3487 -0.4435
C2E C 0.38421(10) 1.1291(4) -0.4245(2)
H2E H 0.3649 1.1316 -0.4923
C3E C 0.37916(9) 0.9941(4) -0.3540(2)
C4E C 0.40824(10) 0.9987(4) -0.2529(2)
H3E H 0.4057 0.9114 -0.2026
C5E C 0.44089(10) 1.1334(4) -0.2279(2)
H4E H 0.4602 1.1342 -0.1600
C6E C 0.34433(11) 0.8453(4) -0.3899(2)
H5E H 0.3539 0.7948 -0.4546
H6E H 0.3118 0.8939 -0.4102
C7E C 0.31683(9) 0.7230(4) -0.2249(2)
C8E C 0.28899(10) 0.8703(4) -0.2088(2)
H7E H 0.2880 0.9636 -0.2564
C9E C 0.26279(10) 0.8787(4) -0.1223(2)
H8E H 0.2441 0.9772 -0.1146
C10E C 0.26358(8) 0.7450(3) -0.0470(2)
C11E C 0.29226(10) 0.5996(4) -0.0649(2)
H9E H 0.2937 0.5075 -0.0163
C12E C 0.31850(10) 0.5854(4) -0.1507(2)
C13E C 0.34774(14) 0.4231(5) -0.1658(3)
H10E H 0.3452 0.3428 -0.1081
H11E H 0.3351 0.3698 -0.2338
H12E H 0.3815 0.4536 -0.1650
H13E H 0.3629(11) 0.652(4) -0.302(2)
loop_
_geom_bond_atom_site_label_1
_geom_bond_atom_site_label_2
_geom_bond_site_symmetry_1
_geom_bond_site_symmetry_2
Co1 O1 1_555 1_555
O1 N3 1_555 1_555
O2 Co1 1_555 1_555
O3 N3 1_555 1_555
N1 Co1 1_555 1_555
N2 C6 1_555 1_555
N3 O2 1_555 1_555
C1 N1 1_555 1_555
H1 C1 1_555 1_555
C2 C1 1_555 1_555
H2 C2 1_555 1_555
C3 C2 1_555 1_555
C4 C3 1_555 1_555
H3 C4 1_555 1_555
C5 N1 1_555 1_555
H4 C5 1_555 1_555
C6 C3 1_555 1_555
H5 C6 1_555 1_555
H6 C6 1_555 1_555
C7 N2 1_555 1_555
C8 C7 1_555 1_555
H7 C8 1_555 1_555
C9 C8 1_555 1_555
H8 C9 1_555 1_555
C10 C9 1_555 1_555
C11 C10 1_555 1_555
H9 C11 1_555 1_555
C12 C7 1_555 1_555
C13 C12 1_555 1_555
H10 C13 1_555 1_555
H11 C13 1_555 1_555
H12 C13 1_555 1_555
H13 N2 1_555 1_555
Co1E N1E 1_555 1_555
O1B Co1 1_555 1_555
O2B Co1 1_555 1_555
O3B N3B 1_555 1_555
N1E C1E 1_555 1_555
N1B Co1 1_555 1_555
N2E C6E 1_555 1_555
N3B O1B 1_555 1_555
C1E H1E 1_555 1_555
C2E C1E 1_555 1_555
H2E C2E 1_555 1_555
C3E C2E 1_555 1_555
C4E C3E 1_555 1_555
H3E C4E 1_555 1_555
C5E N1E 1_555 1_555
H4E C5E 1_555 1_555
C6E C3E 1_555 1_555
H5E C6E 1_555 1_555
H6E C6E 1_555 1_555
C7E N2E 1_555 1_555
C8E C7E 1_555 1_555
H7E C8E 1_555 1_555
C9E C8E 1_555 1_555
H8E C9E 1_555 1_555
C10E C10 1_555 1_555
C11E C10E 1_555 1_555
H9E C11E 1_555 1_555
C12E C7E 1_555 1_555
C13E C12E 1_555 1_555
H10E C13E 1_555 1_555
H11E C13E 1_555 1_555
H12E C13E 1_555 1_555
H13E N2E 1_555 1_555
C4 C5 1_555 1_555
C11 C12 1_555 1_555
O2B N3B 1_555 1_555
C4E C5E 1_555 1_555
C9E C10E 1_555 1_555
C11E C12E 1_555 1_555

#END
