
#######################################################################
#
#                 Cambridge Crystallographic Data Centre
#                                CCDC 
#
#######################################################################
#
# If this CIF has been generated from an entry in the Cambridge 
# Structural Database, then it will include bibliographic, chemical, 
# crystal, experimental, refinement or atomic coordinate data resulting 
# from the CCDC's data processing and validation procedures.
#
#######################################################################

data_GOBRAS
_symmetry_cell_setting           monoclinic
_symmetry_space_group_name_H-M   'P 21/c'
_symmetry_Int_Tables_number      14
_space_group_name_Hall           '-P 2ybc'
loop_
_symmetry_equiv_pos_site_id
_symmetry_equiv_pos_as_xyz
1 x,y,z
2 -x,1/2+y,1/2-z
3 -x,-y,-z
4 x,1/2-y,1/2+z
_cell_length_a                   10.002(5)
_cell_length_b                   16.375(8)
_cell_length_c                   17.040(9)
_cell_angle_alpha                90
_cell_angle_beta                 94.053(7)
_cell_angle_gamma                90
_cell_volume                     2783.88
loop_
_atom_site_label
_atom_site_type_symbol
_atom_site_fract_x
_atom_site_fract_y
_atom_site_fract_z
Tm1 Tm 0.247477(16) 0.020814(10) 0.012557(10)
O1 O 0.1100(2) 0.13037(15) -0.00246(17)
O2 O -0.0906(3) 0.07288(16) -0.01933(19)
O3 O 0.5937(3) -0.11102(16) -0.05769(17)
O4 O 0.3936(3) -0.07595(15) -0.01732(17)
O5 O 0.1707(3) 0.05318(16) 0.14156(17)
O6 O 0.3153(3) -0.04394(17) 0.13877(18)
O7 O 0.2236(3) -0.01593(17) 0.24847(18)
O8 O 0.1794(3) -0.00382(17) -0.12320(18)
O9 O 0.3416(3) 0.08208(17) -0.10063(18)
O10 O 0.2872(4) 0.0431(2) -0.2214(2)
N1 N -0.2173(3) 0.36785(19) -0.0367(2)
N2 N 0.3053(3) -0.3271(2) -0.1734(2)
N3 N 0.2351(3) -0.0024(2) 0.1781(2)
N4 N 0.2710(4) 0.0405(2) -0.1519(2)
C1 C -0.0160(4) 0.1340(2) -0.0101(2)
C2 C -0.0829(4) 0.2166(2) -0.0134(2)
C3 C -0.0336(4) 0.2864(2) 0.0289(2)
C4 C 0.0803(4) 0.2869(2) 0.0839(2)
H1 H 0.1312 0.2384 0.0928
C5 C 0.1167(4) 0.3566(3) 0.1237(3)
H2 H 0.1927 0.3559 0.1604
C6 C 0.0442(5) 0.4292(3) 0.1115(3)
H3 H 0.0721 0.4773 0.1392
C7 C -0.0670(4) 0.4309(2) 0.0595(3)
H4 H -0.1171 0.4800 0.0523
C8 C -0.1076(4) 0.3605(2) 0.0167(2)
C9 C -0.1959(4) 0.2243(2) -0.0633(2)
H5 H -0.2327 0.1776 -0.0899
C10 C -0.2581(4) 0.3013(2) -0.0753(2)
C11 C -0.3729(4) 0.3096(2) -0.1359(2)
C12 C -0.3947(4) 0.3832(2) -0.1752(2)
H6 H -0.3373 0.4284 -0.1632
C13 C -0.5008(4) 0.3906(2) -0.2322(3)
H7 H -0.5150 0.4409 -0.2592
C14 C -0.5860(4) 0.3254(3) -0.2499(3)
H8 H -0.6586 0.3311 -0.2885
C15 C -0.5644(4) 0.2515(3) -0.2108(3)
H9 H -0.6229 0.2067 -0.2224
C16 C -0.4576(4) 0.2429(2) -0.1547(2)
H10 H -0.4418 0.1919 -0.1292
C17 C 0.4708(4) -0.1222(2) -0.0497(2)
C18 C 0.4120(4) -0.1989(2) -0.0888(2)
C19 C 0.4719(4) -0.2771(2) -0.0772(2)
C20 C 0.5824(4) -0.2946(2) -0.0232(2)
H11 H 0.6244 -0.2518 0.0071
C21 C 0.6290(4) -0.3731(2) -0.0145(3)
H12 H 0.7011 -0.3848 0.0232
C22 C 0.5708(5) -0.4362(3) -0.0609(3)
H13 H 0.6060 -0.4900 -0.0552
C23 C 0.4648(5) -0.4220(2) -0.1138(3)
H14 H 0.4259 -0.4652 -0.1449
C24 C 0.4144(4) -0.3424(2) -0.1216(2)
C25 C 0.2977(4) -0.1898(2) -0.1374(2)
H15 H 0.2542 -0.1382 -0.1405
C26 C 0.2440(4) -0.2547(2) -0.1822(2)
C27 C 0.1242(4) -0.2453(2) -0.2369(2)
C28 C 0.0762(4) -0.1666(3) -0.2551(3)
H16 H 0.1223 -0.1200 -0.2337
C29 C -0.0397(4) -0.1570(3) -0.3049(3)
H17 H -0.0726 -0.1038 -0.3170
C30 C -0.1072(4) -0.2245(3) -0.3367(3)
H18 H -0.1855 -0.2179 -0.3710
C31 C -0.0589(5) -0.3015(3) -0.3178(3)
H19 H -0.1049 -0.3480 -0.3394
C32 C 0.0547(4) -0.3121(3) -0.2682(3)
H20 H 0.0855 -0.3657 -0.2555
H21 H 0.280(5) -0.367(3) -0.202(3)
Tm1B Tm -0.247477(16) -0.020814(10) -0.012557(10)
Tm1B_2 Tm 0.752523(16) -0.020814(10) -0.012557(10)
O2B O 0.0906(3) -0.07288(16) 0.01933(19)
O3B O 0.4063(3) 0.11102(16) 0.05769(17)
loop_
_geom_bond_atom_site_label_1
_geom_bond_atom_site_label_2
_geom_bond_site_symmetry_1
_geom_bond_site_symmetry_2
Tm1 O1 1_555 1_555
O1 C1 1_555 1_555
O2 C1 1_555 1_555
O3 C17 1_555 1_555
O4 Tm1 1_555 1_555
O5 Tm1 1_555 1_555
O6 Tm1 1_555 1_555
O7 N3 1_555 1_555
O8 Tm1 1_555 1_555
O9 Tm1 1_555 1_555
O10 N4 1_555 1_555
N1 C8 1_555 1_555
N2 C24 1_555 1_555
N3 O5 1_555 1_555
N4 O8 1_555 1_555
C1 C2 1_555 1_555
C2 C3 1_555 1_555
C3 C4 1_555 1_555
C4 H1 1_555 1_555
C5 C4 1_555 1_555
H2 C5 1_555 1_555
C6 C5 1_555 1_555
H3 C6 1_555 1_555
C7 C6 1_555 1_555
H4 C7 1_555 1_555
C8 C3 1_555 1_555
C9 C2 1_555 1_555
H5 C9 1_555 1_555
C10 N1 1_555 1_555
C11 C10 1_555 1_555
C12 C11 1_555 1_555
H6 C12 1_555 1_555
C13 C12 1_555 1_555
H7 C13 1_555 1_555
C14 C13 1_555 1_555
H8 C14 1_555 1_555
C15 C14 1_555 1_555
H9 C15 1_555 1_555
C16 C11 1_555 1_555
H10 C16 1_555 1_555
C17 O4 1_555 1_555
C18 C17 1_555 1_555
C19 C18 1_555 1_555
C20 C19 1_555 1_555
H11 C20 1_555 1_555
C21 C20 1_555 1_555
H12 C21 1_555 1_555
C22 C21 1_555 1_555
H13 C22 1_555 1_555
C23 C22 1_555 1_555
H14 C23 1_555 1_555
C24 C19 1_555 1_555
C25 C18 1_555 1_555
H15 C25 1_555 1_555
C26 N2 1_555 1_555
C27 C26 1_555 1_555
C28 C27 1_555 1_555
H16 C28 1_555 1_555
C29 C28 1_555 1_555
H17 C29 1_555 1_555
C30 C29 1_555 1_555
H18 C30 1_555 1_555
C31 C30 1_555 1_555
H19 C31 1_555 1_555
C32 C27 1_555 1_555
H20 C32 1_555 1_555
H21 N2 1_555 1_555
Tm1B O2 1_555 1_555
Tm1B_2 O3 1_555 1_555
O2B Tm1 1_555 1_555
O3B Tm1 1_555 1_555
O6 N3 1_555 1_555
O9 N4 1_555 1_555
C7 C8 1_555 1_555
C9 C10 1_555 1_555
C15 C16 1_555 1_555
C23 C24 1_555 1_555
C25 C26 1_555 1_555
C31 C32 1_555 1_555

#END
