
#######################################################################
#
#                 Cambridge Crystallographic Data Centre
#                                CCDC 
#
#######################################################################
#
# If this CIF has been generated from an entry in the Cambridge 
# Structural Database, then it will include bibliographic, chemical, 
# crystal, experimental, refinement or atomic coordinate data resulting 
# from the CCDC's data processing and validation procedures.
#
#######################################################################

data_GOBREW
_symmetry_cell_setting           monoclinic
_symmetry_space_group_name_H-M   'P 21/c'
_symmetry_Int_Tables_number      14
_space_group_name_Hall           '-P 2ybc'
loop_
_symmetry_equiv_pos_site_id
_symmetry_equiv_pos_as_xyz
1 x,y,z
2 -x,1/2+y,1/2-z
3 -x,-y,-z
4 x,1/2-y,1/2+z
_cell_length_a                   9.990(3)
_cell_length_b                   16.448(4)
_cell_length_c                   17.358(5)
_cell_angle_alpha                90
_cell_angle_beta                 94.361(4)
_cell_angle_gamma                90
_cell_volume                     2843.93
loop_
_atom_site_label
_atom_site_type_symbol
_atom_site_fract_x
_atom_site_fract_y
_atom_site_fract_z
Yb1 Yb 0.24804(2) 0.021276(12) 0.011713(12)
O1 O 0.1082(3) 0.1287(2) -0.00137(19)
O2 O -0.0933(3) 0.0729(2) -0.0166(2)
C1 C 0.4711(5) -0.1207(3) -0.0506(3)
N1 N 0.3016(5) -0.3225(3) -0.1742(3)
O3 O 0.5933(3) -0.1102(2) -0.0570(2)
C2 C -0.0830(5) 0.2156(3) -0.0122(3)
C3 C 0.4699(5) -0.2747(3) -0.0784(3)
C4 C -0.1951(5) 0.2243(3) -0.0619(3)
H1 H -0.2324 0.1781 -0.0883
C5 C -0.4559(5) 0.2459(3) -0.1543(3)
H2 H -0.4420 0.1951 -0.1290
C6 C 0.2968(5) -0.1868(3) -0.1371(3)
H3 H 0.2540 -0.1352 -0.1398
C7 C -0.1061(5) 0.3587(3) 0.0171(3)
O4 O 0.3937(3) -0.0741(2) -0.0193(2)
O5 O 0.1769(4) -0.0013(2) -0.1216(2)
N2 N -0.2141(4) 0.3673(2) -0.0361(2)
C8 C -0.3706(5) 0.3104(3) -0.1345(3)
O6 O 0.2266(5) -0.0206(3) 0.2428(2)
C9 C -0.0180(5) 0.1334(3) -0.0083(3)
C10 C 0.4098(5) -0.1965(3) -0.0893(3)
C11 C -0.2560(5) 0.3011(3) -0.0744(3)
C12 C -0.0334(5) 0.2850(3) 0.0300(3)
N3 N 0.2378(5) -0.0054(3) 0.1739(3)
C13 C 0.1214(5) -0.2407(3) -0.2369(3)
C14 C 0.4095(5) -0.3393(3) -0.1226(3)
C15 C 0.2412(5) -0.2509(3) -0.1829(3)
C16 C 0.6239(6) -0.3712(4) -0.0171(3)
H4 H 0.6959 -0.3830 0.0202
C17 C 0.0787(5) 0.2844(3) 0.0853(3)
H5 H 0.1281 0.2357 0.0948
O7 O 0.3182(4) -0.0443(2) 0.1353(2)
C18 C 0.5785(5) -0.2929(3) -0.0252(3)
H6 H 0.6206 -0.2508 0.0053
C19 C 0.4598(7) -0.4189(3) -0.1148(3)
H7 H 0.4205 -0.4618 -0.1454
C20 C -0.3910(5) 0.3840(3) -0.1732(3)
H8 H -0.3331 0.4287 -0.1608
O8 O 0.3384(4) 0.0845(2) -0.0986(2)
O9 O 0.1721(4) 0.0502(2) 0.1391(2)
C21 C 0.1162(6) 0.3535(4) 0.1249(3)
H9 H 0.1922 0.3526 0.1612
C22 C 0.0437(7) 0.4253(4) 0.1123(3)
H10 H 0.0701 0.4726 0.1410
C23 C -0.5807(6) 0.3283(4) -0.2482(3)
H11 H -0.6528 0.3346 -0.2867
C24 C -0.5605(6) 0.2546(4) -0.2104(3)
H12 H -0.6186 0.2101 -0.2231
C25 C -0.0420(7) -0.1521(5) -0.3031(4)
H13 H -0.0746 -0.0988 -0.3142
C26 C 0.0713(6) -0.1633(4) -0.2526(4)
H14 H 0.1149 -0.1175 -0.2286
O10 O 0.2830(6) 0.0468(3) -0.2172(3)
N4 N 0.2669(6) 0.0435(3) -0.1486(3)
C27 C -0.0635(6) 0.4285(4) 0.0600(3)
H15 H -0.1108 0.4782 0.0519
C28 C -0.0595(6) -0.2951(5) -0.3202(4)
H16 H -0.1049 -0.3409 -0.3430
C29 C -0.1070(7) -0.2183(5) -0.3372(4)
H17 H -0.1840 -0.2108 -0.3721
C30 C 0.0534(6) -0.3066(4) -0.2703(3)
H18 H 0.0844 -0.3601 -0.2588
C31 C 0.5669(7) -0.4335(4) -0.0622(4)
H19 H 0.6024 -0.4870 -0.0568
C32 C -0.4952(6) 0.3924(4) -0.2296(3)
H20 H -0.5081 0.4428 -0.2558
H21 H 0.282(6) -0.366(4) -0.201(3)
Yb1B Yb -0.24804(2) -0.021276(12) -0.011713(12)
Yb1B_2 Yb 0.75196(2) -0.021276(12) -0.011713(12)
O2B O 0.0933(3) -0.0729(2) 0.0166(2)
O3B O 0.4067(3) 0.1102(2) 0.0570(2)
loop_
_geom_bond_atom_site_label_1
_geom_bond_atom_site_label_2
_geom_bond_site_symmetry_1
_geom_bond_site_symmetry_2
Yb1 O1 1_555 1_555
O1 C9 1_555 1_555
O2 C9 1_555 1_555
C1 O3 1_555 1_555
N1 C14 1_555 1_555
O3 Yb1B_2 1_555 1_555
C2 C4 1_555 1_555
C3 C10 1_555 1_555
C4 H1 1_555 1_555
C5 H2 1_555 1_555
C6 H3 1_555 1_555
C7 N2 1_555 1_555
O4 Yb1 1_555 1_555
O5 Yb1 1_555 1_555
N2 C11 1_555 1_555
C8 C5 1_555 1_555
O6 N3 1_555 1_555
C9 C2 1_555 1_555
C10 C1 1_555 1_555
C11 C4 1_555 1_555
C12 C2 1_555 1_555
N3 O7 1_555 1_555
C13 C15 1_555 1_555
C14 C3 1_555 1_555
C15 N1 1_555 1_555
C16 H4 1_555 1_555
C17 C12 1_555 1_555
H5 C17 1_555 1_555
O7 Yb1 1_555 1_555
C18 C3 1_555 1_555
H6 C18 1_555 1_555
C19 C14 1_555 1_555
H7 C19 1_555 1_555
C20 C8 1_555 1_555
H8 C20 1_555 1_555
O8 Yb1 1_555 1_555
O9 Yb1 1_555 1_555
C21 C17 1_555 1_555
H9 C21 1_555 1_555
C22 C21 1_555 1_555
H10 C22 1_555 1_555
C23 H11 1_555 1_555
C24 C5 1_555 1_555
H12 C24 1_555 1_555
C25 H13 1_555 1_555
C26 C13 1_555 1_555
H14 C26 1_555 1_555
O10 N4 1_555 1_555
N4 O5 1_555 1_555
C27 C7 1_555 1_555
H15 C27 1_555 1_555
C28 H16 1_555 1_555
C29 C25 1_555 1_555
H17 C29 1_555 1_555
C30 C13 1_555 1_555
H18 C30 1_555 1_555
C31 C16 1_555 1_555
H19 C31 1_555 1_555
C32 C20 1_555 1_555
H20 C32 1_555 1_555
H21 N1 1_555 1_555
Yb1B O2 1_555 1_555
O2B Yb1 1_555 1_555
O3B Yb1 1_555 1_555
C1 O4 1_555 1_555
C6 C10 1_555 1_555
C6 C15 1_555 1_555
C7 C12 1_555 1_555
C8 C11 1_555 1_555
N3 O9 1_555 1_555
C16 C18 1_555 1_555
C19 C31 1_555 1_555
O8 N4 1_555 1_555
C22 C27 1_555 1_555
C23 C24 1_555 1_555
C23 C32 1_555 1_555
C25 C26 1_555 1_555
C28 C29 1_555 1_555
C28 C30 1_555 1_555

#END
