
#######################################################################
#
#                 Cambridge Crystallographic Data Centre
#                                CCDC 
#
#######################################################################
#
# If this CIF has been generated from an entry in the Cambridge 
# Structural Database, then it will include bibliographic, chemical, 
# crystal, experimental, refinement or atomic coordinate data resulting 
# from the CCDC's data processing and validation procedures.
#
#######################################################################

data_GOBSAS
_symmetry_cell_setting           monoclinic
_symmetry_space_group_name_H-M   'P 21/n'
_symmetry_Int_Tables_number      14
_space_group_name_Hall           '-P 2yn'
loop_
_symmetry_equiv_pos_site_id
_symmetry_equiv_pos_as_xyz
1 x,y,z
2 1/2-x,1/2+y,1/2-z
3 -x,-y,-z
4 1/2+x,1/2-y,1/2+z
_cell_length_a                   12.241(3)
_cell_length_b                   15.970(3)
_cell_length_c                   15.141(3)
_cell_angle_alpha                90
_cell_angle_beta                 93.80(2)
_cell_angle_gamma                90
_cell_volume                     2953.39
loop_
_atom_site_label
_atom_site_type_symbol
_atom_site_fract_x
_atom_site_fract_y
_atom_site_fract_z
Cd1 Cd 0.5000 0.0000 0.5000
O1 O 0.6808(6) 0.0468(8) 0.5046(9)
O2 O 0.7386(15) 0.0347(13) 0.5973(17)
O3 O 0.8427(5) 0.0902(5) 0.5535(5)
N1 N 0.4545(5) 0.0739(3) 0.6290(4)
N2 N 0.4715(5) 0.2417(4) 0.9190(4)
N3 N 1.0469(5) -0.0957(3) 1.2523(4)
N4 N 1.0381(4) -0.3748(3) 1.0794(4)
N5 N 0.7539(10) 0.0815(11) 0.5159(15)
C1 C 0.5201(7) 0.1340(5) 0.6643(5)
H1 H 0.5835 0.1468 0.6365
C2 C 0.4988(6) 0.1780(5) 0.7397(5)
H2 H 0.5462 0.2202 0.7605
C3 C 0.4070(5) 0.1592(4) 0.7845(4)
C4 C 0.3391(6) 0.0974(4) 0.7478(5)
H3 H 0.2760 0.0826 0.7750
C5 C 0.3649(6) 0.0575(4) 0.6711(5)
H4 H 0.3170 0.0169 0.6475
C6 C 0.3803(5) 0.2019(4) 0.8708(4)
H5 H 0.3242 0.2438 0.8574
H6 H 0.3498 0.1604 0.9089
C7 C 0.5498(5) 0.1947(4) 0.9694(4)
C8 C 0.6187(5) 0.2350(4) 1.0352(4)
C9 C 0.7005(5) 0.1885(4) 1.0817(4)
H7 H 0.7452 0.2153 1.1250
C10 C 0.7179(6) 0.1031(4) 1.0658(4)
C11 C 0.6475(6) 0.0654(4) 1.0014(5)
H8 H 0.6564 0.0088 0.9893
C12 C 0.5650(6) 0.1092(4) 0.9548(4)
H9 H 0.5189 0.0814 0.9132
C13 C 0.8072(5) 0.0546(4) 1.1144(4)
C14 C 0.8611(6) -0.0084(4) 1.0710(4)
H10 H 0.8432 -0.0186 1.0113
C15 C 0.9419(6) -0.0562(4) 1.1164(4)
H11 H 0.9776 -0.0975 1.0860
C16 C 0.9705(5) -0.0442(4) 1.2058(4)
C17 C 0.9178(6) 0.0206(4) 1.2512(4)
C18 C 0.8370(5) 0.0674(4) 1.2040(4)
H12 H 0.8013 0.1092 1.2337
C19 C 0.6055(6) 0.3269(4) 1.0537(5)
H13 H 0.6584 0.3438 1.0999
H14 H 0.5331 0.3373 1.0718
H15 H 0.6167 0.3584 1.0010
C20 C 0.9478(7) 0.0384(4) 1.3473(4)
H16 H 1.0050 0.0009 1.3686
H17 H 0.8848 0.0304 1.3809
H18 H 0.9729 0.0951 1.3539
C21 C 1.1314(6) -0.1405(4) 1.2070(5)
H19 H 1.1922 -0.1519 1.2496
H20 H 1.1582 -0.1038 1.1622
C22 C 1.0959(5) -0.2222(4) 1.1632(4)
C23 C 0.9981(6) -0.2614(4) 1.1762(5)
H21 H 0.9488 -0.2371 1.2126
C24 C 0.9733(6) -0.3374(4) 1.1348(5)
H22 H 0.9079 -0.3636 1.1465
C25 C 1.1322(6) -0.3356(5) 1.0678(5)
H23 H 1.1804 -0.3606 1.0308
C26 C 1.1630(6) -0.2599(5) 1.1075(5)
H24 H 1.2293 -0.2352 1.0958
H25 H 0.454(5) 0.291(4) 0.934(4)
H26 H 1.071(5) -0.085(3) 1.295(4)
Cd1A Cd 1.0000 -0.5000 1.0000
Cd1A_2 Cd 0.0000 0.5000 0.0000
O1B O 0.3192(6) -0.0468(8) 0.4954(9)
O2B O 0.2614(15) -0.0347(13) 0.4027(17)
O3B O 0.1573(5) -0.0902(5) 0.4465(5)
N1B N 0.5455(5) -0.0739(3) 0.3710(4)
N2B N 0.5285(5) -0.2417(4) 0.0810(4)
N3B N -0.0469(5) 0.0957(3) -0.2523(4)
N4B N -0.0381(4) 0.3748(3) -0.0794(4)
N4C N 0.5381(4) -0.1252(3) 0.5794(4)
N4A N 0.4619(4) 0.1252(3) 0.4206(4)
N5B N 0.2461(10) -0.0815(11) 0.4841(15)
C1B C 0.4799(7) -0.1340(5) 0.3357(5)
H1B H 0.4165 -0.1468 0.3635
C2B C 0.5012(6) -0.1780(5) 0.2603(5)
H2B H 0.4538 -0.2202 0.2395
C3B C 0.5930(5) -0.1592(4) 0.2155(4)
C4B C 0.6609(6) -0.0974(4) 0.2522(5)
H3B H 0.7240 -0.0826 0.2250
C5B C 0.6351(6) -0.0575(4) 0.3289(5)
H4B H 0.6830 -0.0169 0.3525
C6B C 0.6197(5) -0.2019(4) 0.1292(4)
H5B H 0.6758 -0.2438 0.1426
H6B H 0.6502 -0.1604 0.0911
C7B C 0.4502(5) -0.1947(4) 0.0306(4)
C8B C 0.3813(5) -0.2350(4) -0.0352(4)
C9B C 0.2995(5) -0.1885(4) -0.0817(4)
H7B H 0.2548 -0.2153 -0.1250
C10B C 0.2821(6) -0.1031(4) -0.0658(4)
C11B C 0.3525(6) -0.0654(4) -0.0014(5)
H8B H 0.3436 -0.0088 0.0107
C12B C 0.4350(6) -0.1092(4) 0.0452(4)
H9B H 0.4811 -0.0814 0.0868
C13B C 0.1928(5) -0.0546(4) -0.1144(4)
C14B C 0.1389(6) 0.0084(4) -0.0710(4)
H10B H 0.1568 0.0186 -0.0113
C15B C 0.0581(6) 0.0562(4) -0.1164(4)
H11B H 0.0224 0.0975 -0.0860
C16B C 0.0295(5) 0.0442(4) -0.2058(4)
C17B C 0.0822(6) -0.0206(4) -0.2512(4)
C18B C 0.1630(5) -0.0674(4) -0.2040(4)
H12B H 0.1987 -0.1092 -0.2337
C19B C 0.3945(6) -0.3269(4) -0.0537(5)
H13B H 0.3416 -0.3438 -0.0999
H14B H 0.4669 -0.3373 -0.0718
H15B H 0.3833 -0.3584 -0.0010
C20B C 0.0522(7) -0.0384(4) -0.3473(4)
H16B H -0.0050 -0.0009 -0.3686
H17B H 0.1152 -0.0304 -0.3809
H18B H 0.0271 -0.0951 -0.3539
C21B C -0.1314(6) 0.1405(4) -0.2070(5)
H19B H -0.1922 0.1519 -0.2496
H20B H -0.1582 0.1038 -0.1622
C22B C -0.0959(5) 0.2222(4) -0.1632(4)
C23B C 0.0019(6) 0.2614(4) -0.1762(5)
H21B H 0.0512 0.2371 -0.2126
C24B C 0.0267(6) 0.3374(4) -0.1348(5)
H22B H 0.0921 0.3636 -0.1465
C25B C -0.1322(6) 0.3356(5) -0.0678(5)
H23B H -0.1804 0.3606 -0.0308
C26B C -0.1630(6) 0.2599(5) -0.1075(5)
H24B H -0.2293 0.2352 -0.0958
H25B H 0.546(5) -0.291(4) 0.066(4)
H26B H -0.071(5) 0.085(3) -0.295(4)
C27 C 0.2005(11) 0.0932(8) 0.1926(8)
H27 H 0.1625 0.0608 0.2314
C28 C 0.1382(14) 0.1395(10) 0.1417(10)
H28 H 0.0621 0.1379 0.1393
C29 C 0.2047(16) 0.1982(12) 0.0852(12)
H29 H 0.1743 0.2362 0.0440
C30 C 0.3143(11) 0.1868(8) 0.1037(8)
H30 H 0.3556 0.2274 0.0771
C31 C 0.3741(14) 0.1349(10) 0.1480(10)
H31 H 0.4496 0.1327 0.1450
C32 C 0.3171(14) 0.0811(11) 0.2020(11)
H32 H 0.3511 0.0417 0.2398
loop_
_geom_bond_atom_site_label_1
_geom_bond_atom_site_label_2
_geom_bond_site_symmetry_1
_geom_bond_site_symmetry_2
Cd1 O1 1_555 1_555
O1 N5 1_555 1_555
O2 N5 1_555 1_555
O3 N5 1_555 1_555
N1 Cd1 1_555 1_555
N2 C6 1_555 1_555
N3 C16 1_555 1_555
N4 C24 1_555 1_555
C1 N1 1_555 1_555
H1 C1 1_555 1_555
C2 C1 1_555 1_555
H2 C2 1_555 1_555
C3 C2 1_555 1_555
C4 C3 1_555 1_555
H3 C4 1_555 1_555
C5 N1 1_555 1_555
H4 C5 1_555 1_555
C6 C3 1_555 1_555
H5 C6 1_555 1_555
H6 C6 1_555 1_555
C7 N2 1_555 1_555
C8 C7 1_555 1_555
C9 C8 1_555 1_555
H7 C9 1_555 1_555
C10 C9 1_555 1_555
C11 C10 1_555 1_555
H8 C11 1_555 1_555
C12 C7 1_555 1_555
H9 C12 1_555 1_555
C13 C10 1_555 1_555
C14 C13 1_555 1_555
H10 C14 1_555 1_555
C15 C14 1_555 1_555
H11 C15 1_555 1_555
C16 C15 1_555 1_555
C17 C16 1_555 1_555
C18 C13 1_555 1_555
H12 C18 1_555 1_555
C19 C8 1_555 1_555
H13 C19 1_555 1_555
H14 C19 1_555 1_555
H15 C19 1_555 1_555
C20 C17 1_555 1_555
H16 C20 1_555 1_555
H17 C20 1_555 1_555
H18 C20 1_555 1_555
C21 N3 1_555 1_555
H19 C21 1_555 1_555
H20 C21 1_555 1_555
C22 C21 1_555 1_555
C23 C22 1_555 1_555
H21 C23 1_555 1_555
C24 C23 1_555 1_555
H22 C24 1_555 1_555
C25 N4 1_555 1_555
H23 C25 1_555 1_555
C26 C22 1_555 1_555
H24 C26 1_555 1_555
H25 N2 1_555 1_555
H26 N3 1_555 1_555
C27 H27 1_555 1_555
C28 C27 1_555 1_555
H28 C28 1_555 1_555
C29 C28 1_555 1_555
H29 C29 1_555 1_555
C30 C29 1_555 1_555
H30 C30 1_555 1_555
C31 C30 1_555 1_555
H31 C31 1_555 1_555
C32 C27 1_555 1_555
H32 C32 1_555 1_555
Cd1A N4 1_555 1_555
Cd1A_2 N4B 1_555 1_555
O1B Cd1 1_555 1_555
O2B N5B 1_555 1_555
O3B N5B 1_555 1_555
N1B Cd1 1_555 1_555
N2B C6B 1_555 1_555
N3B C16B 1_555 1_555
N4B C24B 1_555 1_555
N4C Cd1 1_555 1_555
N4A Cd1 1_555 1_555
N5B O1B 1_555 1_555
C1B N1B 1_555 1_555
H1B C1B 1_555 1_555
C2B C1B 1_555 1_555
H2B C2B 1_555 1_555
C3B C2B 1_555 1_555
C4B C3B 1_555 1_555
H3B C4B 1_555 1_555
C5B N1B 1_555 1_555
H4B C5B 1_555 1_555
C6B C3B 1_555 1_555
H5B C6B 1_555 1_555
H6B C6B 1_555 1_555
C7B N2B 1_555 1_555
C8B C7B 1_555 1_555
C9B C8B 1_555 1_555
H7B C9B 1_555 1_555
C10B C9B 1_555 1_555
C11B C10B 1_555 1_555
H8B C11B 1_555 1_555
C12B C7B 1_555 1_555
H9B C12B 1_555 1_555
C13B C10B 1_555 1_555
C14B C13B 1_555 1_555
H10B C14B 1_555 1_555
C15B C14B 1_555 1_555
H11B C15B 1_555 1_555
C16B C15B 1_555 1_555
C17B C16B 1_555 1_555
C18B C13B 1_555 1_555
H12B C18B 1_555 1_555
C19B C8B 1_555 1_555
H13B C19B 1_555 1_555
H14B C19B 1_555 1_555
H15B C19B 1_555 1_555
C20B C17B 1_555 1_555
H16B C20B 1_555 1_555
H17B C20B 1_555 1_555
H18B C20B 1_555 1_555
C21B N3B 1_555 1_555
H19B C21B 1_555 1_555
H20B C21B 1_555 1_555
C22B C21B 1_555 1_555
C23B C22B 1_555 1_555
H21B C23B 1_555 1_555
C24B C23B 1_555 1_555
H22B C24B 1_555 1_555
C25B N4B 1_555 1_555
H23B C25B 1_555 1_555
C26B C22B 1_555 1_555
H24B C26B 1_555 1_555
H25B N2B 1_555 1_555
H26B N3B 1_555 1_555
C4 C5 1_555 1_555
C11 C12 1_555 1_555
C17 C18 1_555 1_555
C25 C26 1_555 1_555
C31 C32 1_555 1_555
C4B C5B 1_555 1_555
C11B C12B 1_555 1_555
C17B C18B 1_555 1_555
C25B C26B 1_555 1_555

#END
