
#######################################################################
#
#                 Cambridge Crystallographic Data Centre
#                                CCDC 
#
#######################################################################
#
# If this CIF has been generated from an entry in the Cambridge 
# Structural Database, then it will include bibliographic, chemical, 
# crystal, experimental, refinement or atomic coordinate data resulting 
# from the CCDC's data processing and validation procedures.
#
#######################################################################

data_GOBXAY
_symmetry_cell_setting           triclinic
_symmetry_space_group_name_H-M   'P -1'
_symmetry_Int_Tables_number      2
_space_group_name_Hall           '-P 1'
loop_
_symmetry_equiv_pos_site_id
_symmetry_equiv_pos_as_xyz
1 x,y,z
2 -x,-y,-z
_cell_length_a                   14.1051(13)
_cell_length_b                   15.3365(13)
_cell_length_c                   17.8162(15)
_cell_angle_alpha                89.985(4)
_cell_angle_beta                 86.890(4)
_cell_angle_gamma                89.747(4)
_cell_volume                     3848.34
loop_
_atom_site_label
_atom_site_type_symbol
_atom_site_fract_x
_atom_site_fract_y
_atom_site_fract_z
Ce1 Ce 0.87092(7) -0.15794(7) 0.25232(6)
Ce2 Ce 0.74066(7) 0.07527(6) 0.26200(5)
Ce3 Ce 0.51654(6) 0.24976(6) 0.25303(5)
Ce4 Ce 0.30642(7) 0.42660(7) 0.27629(6)
Ce5 Ce 0.14472(7) 0.65862(7) 0.23740(6)
O1 O 0.9329(10) -0.2123(9) 0.1338(8)
O2 O 1.0613(11) -0.2946(10) 0.1278(8)
O3 O 0.7540(9) -0.4442(9) -0.1572(8)
O4 O 0.8857(14) -0.5282(11) -0.1634(9)
O5 O 0.8198(10) 0.2169(8) 0.2913(8)
O6 O 0.6768(9) 0.2487(8) 0.2423(7)
O7 O 0.9929(7) 0.6482(10) 0.2660(9)
O8 O 0.8347(13) 0.6844(11) 0.2657(11)
O9 O 0.4142(13) 0.5402(10) 0.3237(11)
O10 O 0.3078(9) 0.6137(12) 0.2660(9)
O11 O 0.7181(9) 0.9007(8) 0.3124(7)
O12 O 0.5989(11) 0.9712(9) 0.2592(10)
O13 O 0.1877(9) 0.8168(9) 0.2353(10)
O14 O 0.0322(9) 0.8590(10) 0.2470(8)
O15 O 0.3573(6) 1.2530(8) 0.2371(7)
O16 O 0.2030(11) 1.2931(10) 0.2762(10)
O17 O 0.8371(9) -0.0326(10) 0.1718(7)
O18 O 0.8729(10) 0.1078(10) 0.1604(7)
O19 O 0.8869(8) -0.0047(8) 0.3167(7)
O20 O 0.7931(8) 0.0711(9) 0.3983(7)
O21 O 0.6648(10) 0.0801(11) 0.1382(8)
O22 O 0.5258(11) 0.1236(9) 0.1706(10)
O23 O 0.5982(9) 0.1331(9) 0.3373(8)
O24 O 0.4464(10) 0.1510(9) 0.3510(8)
O25 O 0.5364(12) 0.3171(10) 0.1258(8)
O26 O 0.4566(8) 0.4136(9) 0.1958(8)
O27 O 0.5791(9) 0.3394(10) 0.3584(7)
O28 O 0.4263(8) 0.3507(9) 0.3517(7)
O29 O 0.2217(9) 0.4319(10) 0.4030(8)
O30 O 0.1506(8) 0.5123(9) 0.3215(7)
C1 C 0.9485(14) -0.3155(16) 0.0364(11)
C2 C 1.0009(16) -0.378(2) 0.0010(14)
H1 H 1.0609 -0.3923 0.0168
C3 C 0.9658(18) -0.421(2) -0.0573(14)
H2 H 1.0055 -0.4592 -0.0844
C4 C 0.8784(17) -0.4108(18) -0.0783(13)
C5 C 0.8232(19) -0.345(2) -0.0483(15)
H3 H 0.7652 -0.3325 -0.0681
C6 C 0.8553(15) -0.2963(19) 0.0144(12)
H4 H 0.8172 -0.2544 0.0390
C7 C 0.9834(15) -0.2716(14) 0.1076(12)
C8 C 0.8348(14) -0.4626(14) -0.1380(10)
C9 C 0.7997(14) 0.3660(12) 0.2588(12)
C10 C 0.7333(13) 0.4318(12) 0.2539(13)
H5 H 0.6692 0.4195 0.2501
C11 C 0.7665(14) 0.5186(11) 0.2551(12)
H6 H 0.7236 0.5646 0.2521
C12 C 0.8618(13) 0.5357(13) 0.2605(11)
C13 C 0.9242(14) 0.4711(14) 0.2682(13)
H7 H 0.9882 0.4833 0.2725
C14 C 0.8915(14) 0.3827(13) 0.2699(13)
H8 H 0.9334 0.3373 0.2785
C15 C 0.7673(13) 0.2722(13) 0.2649(10)
C16 C 0.9014(8) 0.6279(14) 0.2650(11)
C17 C 0.4470(14) 0.6866(13) 0.2995(13)
C18 C 0.4221(16) 0.7617(15) 0.2643(15)
H9 H 0.3658 0.7640 0.2396
C19 C 0.4807(15) 0.8360(16) 0.2650(15)
H10 H 0.4620 0.8885 0.2441
C20 C 0.5689(14) 0.8279(12) 0.2986(11)
C21 C 0.5909(15) 0.7541(13) 0.3372(13)
H11 H 0.6454 0.7510 0.3643
C22 C 0.5300(14) 0.6848(14) 0.3349(12)
H12 H 0.5465 0.6335 0.3588
C23 C 0.3871(15) 0.6100(13) 0.2965(12)
C24 C 0.6286(13) 0.9052(13) 0.2905(12)
C25 C 0.1608(12) 0.9712(12) 0.2356(10)
C26 C 0.0964(14) 1.0427(13) 0.2357(12)
H13 H 0.0318 1.0327 0.2326
C27 C 0.1293(13) 1.1263(13) 0.2404(12)
H14 H 0.0871 1.1731 0.2434
C28 C 0.2275(12) 1.1404(11) 0.2407(10)
C29 C 0.2876(13) 1.0761(13) 0.2373(12)
H15 H 0.3523 1.0880 0.2343
C30 C 0.2574(14) 0.9887(13) 0.2383(12)
H16 H 0.3012 0.9434 0.2407
C31 C 0.1270(16) 0.8727(15) 0.2410(13)
C32 C 0.2640(8) 1.2374(12) 0.2471(11)
C33 C 0.9427(15) 0.0145(14) 0.0650(10)
C34 C 0.9329(16) -0.0590(15) 0.0240(11)
H17 H 0.8875 -0.0998 0.0399
C35 C 1.0114(16) 0.0752(15) 0.0408(12)
H18 H 1.0196 0.1260 0.0681
C36 C 0.8817(13) 0.0318(14) 0.1362(10)
C37 C 0.9332(11) 0.0124(12) 0.4423(9)
C38 C 0.9107(14) 0.0365(14) 0.5158(10)
H19 H 0.8523 0.0624 0.5283
C39 C 1.0264(13) -0.0227(14) 0.4296(11)
H20 H 1.0459 -0.0373 0.3805
C40 C 0.8666(12) 0.0231(12) 0.3817(11)
C41 C 0.5380(14) 0.0421(13) 0.0636(11)
C42 C 0.5972(15) 0.0019(15) 0.0073(11)
H21 H 0.6625 0.0015 0.0119
C43 C 0.4404(14) 0.0375(14) 0.0557(10)
H22 H 0.3992 0.0611 0.0929
C44 C 0.5788(15) 0.0843(14) 0.1283(11)
C45 C 0.5118(13) 0.0531(12) 0.4367(11)
C46 C 0.4249(15) 0.0429(14) 0.4747(12)
H23 H 0.3717 0.0714 0.4578
C47 C 0.5836(14) 0.0087(12) 0.4635(12)
H24 H 0.6429 0.0131 0.4385
C48 C 0.5166(12) 0.1165(12) 0.3725(11)
C49 C 0.4958(14) 0.4464(14) 0.0633(11)
C50 C 0.5540(16) 0.4255(14) 0.0023(11)
H25 H 0.5925 0.3763 0.0047
C51 C 0.5580(16) 0.4745(14) -0.0630(12)
H26 H 0.5944 0.4565 -0.1053
C52 C 0.4977(15) 0.3897(15) 0.1318(12)
C53 C 0.4973(14) 0.4354(13) 0.4452(10)
C54 C 0.4206(14) 0.4553(14) 0.4837(12)
H27 H 0.3646 0.4265 0.4740
C55 C 0.5809(13) 0.4794(14) 0.4585(10)
H28 H 0.6368 0.4666 0.4305
C56 C 0.5034(14) 0.3736(15) 0.3807(10)
C57 C 0.0723(13) 0.4924(14) 0.4460(10)
C58 C 0.0761(16) 0.4464(15) 0.5121(11)
H29 H 0.1277 0.4100 0.5197
C59 C -0.0021(12) 0.5459(14) 0.4314(11)
H30 H -0.0040 0.5761 0.3863
C60 C 0.1544(13) 0.4756(13) 0.3851(11)
O31 O 0.8824(13) -0.1938(11) 0.3853(8)
C61 C 0.928(2) -0.2146(17) 0.4415(13)
H31 H 0.9913 -0.2313 0.4316
N1 N 0.8982(17) -0.2156(15) 0.5112(11)
C62 C 0.799(2) -0.199(3) 0.5305(19)
H32 H 0.7921 -0.1432 0.5543
H33 H 0.7751 -0.2436 0.5643
H34 H 0.7643 -0.1998 0.4857
C63 C 0.955(3) -0.236(2) 0.5710(16)
H35 H 1.0105 -0.2675 0.5522
H36 H 0.9199 -0.2710 0.6072
H37 H 0.9746 -0.1830 0.5945
O32 O 0.7312(11) -0.1942(12) 0.1754(12)
C64 C 0.6668(19) -0.1834(19) 0.1266(18)
H38 H 0.6603 -0.1283 0.1056
N2 N 0.6119(17) -0.2440(16) 0.1057(14)
C65 C 0.626(2) -0.3314(19) 0.121(2)
H39 H 0.6904 -0.3406 0.1343
H40 H 0.6134 -0.3656 0.0779
H41 H 0.5836 -0.3486 0.1627
C66 C 0.534(3) -0.222(3) 0.067(2)
H42 H 0.5149 -0.1638 0.0794
H43 H 0.4832 -0.2617 0.0809
H44 H 0.5495 -0.2268 0.0142
O33 O 0.1555(11) 0.7038(11) 0.3716(10)
C67 C 0.2240(17) 0.7473(19) 0.3975(14)
H45 H 0.2522 0.7899 0.3667
N3 N 0.2563(15) 0.7367(17) 0.4622(12)
C68 C 0.331(2) 0.787(3) 0.490(2)
H46 H 0.3795 0.7947 0.4510
H47 H 0.3570 0.7564 0.5316
H48 H 0.3066 0.8422 0.5068
C69 C 0.219(3) 0.681(3) 0.5193(18)
H49 H 0.1546 0.6976 0.5326
H50 H 0.2563 0.6862 0.5627
H51 H 0.2210 0.6221 0.5017
O34 O 0.2568(10) 0.6723(12) 0.1283(9)
C70 C 0.2406(16) 0.668(2) 0.0609(14)
H52 H 0.2301 0.6122 0.0426
N4 N 0.2363(17) 0.7302(18) 0.0126(13)
C71 C 0.238(3) 0.821(3) 0.037(2)
H53 H 0.2006 0.8281 0.0829
H54 H 0.2133 0.8579 -0.0012
H55 H 0.3027 0.8380 0.0447
C72 C 0.220(3) 0.714(2) -0.0683(14)
H56 H 0.2326 0.6541 -0.0802
H57 H 0.2607 0.7508 -0.0992
H58 H 0.1546 0.7274 -0.0775
O17A O 1.1629(9) 0.0326(10) -0.1718(7)
O18A O 1.1271(10) -0.1078(10) -0.1604(7)
C33A C 1.0573(15) -0.0145(14) -0.0650(10)
C34A C 1.0671(16) 0.0590(15) -0.0240(11)
H17A H 1.1125 0.0998 -0.0399
C35A C 0.9886(16) -0.0752(15) -0.0408(12)
H18A H 0.9804 -0.1260 -0.0681
C36A C 1.1183(13) -0.0318(14) -0.1362(10)
O19A O 1.1131(8) 0.0047(8) 0.6833(7)
O20A O 1.2069(8) -0.0711(9) 0.6017(7)
C37A C 1.0668(11) -0.0124(12) 0.5577(9)
C38A C 1.0893(14) -0.0365(14) 0.4842(10)
H19A H 1.1477 -0.0624 0.4717
C39A C 0.9736(13) 0.0227(14) 0.5704(11)
H20A H 0.9541 0.0373 0.6195
C40A C 1.1334(12) -0.0231(12) 0.6183(11)
O21A O 0.3352(10) -0.0801(11) -0.1382(8)
O22A O 0.4742(11) -0.1236(9) -0.1706(10)
C41A C 0.4620(14) -0.0421(13) -0.0636(11)
C42A C 0.4028(15) -0.0019(15) -0.0073(11)
H21A H 0.3375 -0.0015 -0.0119
C43A C 0.5596(14) -0.0375(14) -0.0557(10)
H22A H 0.6008 -0.0611 -0.0929
C44A C 0.4212(15) -0.0843(14) -0.1283(11)
O23A O 0.4018(9) -0.1331(9) 0.6627(8)
O24A O 0.5536(10) -0.1510(9) 0.6490(8)
C45A C 0.4882(13) -0.0531(12) 0.5633(11)
C46A C 0.5751(15) -0.0429(14) 0.5253(12)
H23A H 0.6283 -0.0714 0.5422
C47A C 0.4164(14) -0.0087(12) 0.5365(12)
H24A H 0.3571 -0.0131 0.5615
C48A C 0.4834(12) -0.1165(12) 0.6275(11)
O25A O 0.4636(12) 0.6829(10) -0.1258(8)
O26A O 0.5434(8) 0.5864(9) -0.1958(8)
C49A C 0.5042(14) 0.5536(14) -0.0633(11)
C50A C 0.4460(16) 0.5745(14) -0.0023(11)
H25A H 0.4075 0.6237 -0.0047
C51A C 0.4420(16) 0.5255(14) 0.0630(12)
H26A H 0.4056 0.5435 0.1053
C52A C 0.5023(15) 0.6103(15) -0.1318(12)
O27A O 0.4209(9) 0.6606(10) 0.6416(7)
O28A O 0.5737(8) 0.6493(9) 0.6483(7)
C53A C 0.5027(14) 0.5646(13) 0.5548(10)
C54A C 0.5794(14) 0.5447(14) 0.5163(12)
H27A H 0.6354 0.5735 0.5260
C55A C 0.4191(13) 0.5206(14) 0.5415(10)
H28A H 0.3632 0.5334 0.5695
C56A C 0.4966(14) 0.6264(15) 0.6193(10)
O29A O -0.2217(9) 0.5681(10) 0.5970(8)
O30A O -0.1506(8) 0.4877(9) 0.6785(7)
C57A C -0.0723(13) 0.5076(14) 0.5540(10)
C58A C -0.0761(16) 0.5536(15) 0.4879(11)
H29A H -0.1277 0.5900 0.4803
C59A C 0.0021(12) 0.4541(14) 0.5686(11)
H30A H 0.0040 0.4239 0.6137
C60A C -0.1544(13) 0.5244(13) 0.6149(11)
Ce4A Ce -0.30642(7) 0.57340(7) 0.72371(6)
Ce5A Ce -0.14472(7) 0.34138(7) 0.76260(6)
O9A O -0.4142(13) 0.4598(10) 0.6763(11)
O10A O -0.3078(9) 0.3863(12) 0.7340(9)
O11A O -0.7181(9) 0.0993(8) 0.6876(7)
O12A O -0.5989(11) 0.0288(9) 0.7408(10)
O13A O -0.1877(9) 0.1832(9) 0.7647(10)
O14A O -0.0322(9) 0.1410(10) 0.7530(8)
O15A O -0.3573(6) -0.2530(8) 0.7629(7)
O16A O -0.2030(11) -0.2931(10) 0.7238(10)
C17A C -0.4470(14) 0.3134(13) 0.7005(13)
C18A C -0.4221(16) 0.2383(15) 0.7357(15)
H9A H -0.3658 0.2360 0.7604
C19A C -0.4807(15) 0.1640(16) 0.7350(15)
H10A H -0.4620 0.1115 0.7559
C20A C -0.5689(14) 0.1721(12) 0.7014(11)
C21A C -0.5909(15) 0.2459(13) 0.6628(13)
H11A H -0.6454 0.2490 0.6357
C22A C -0.5300(14) 0.3152(14) 0.6651(12)
H12A H -0.5465 0.3665 0.6412
C23A C -0.3871(15) 0.3900(13) 0.7035(12)
C24A C -0.6286(13) 0.0948(13) 0.7095(12)
C25A C -0.1608(12) 0.0288(12) 0.7644(10)
C26A C -0.0964(14) -0.0427(13) 0.7643(12)
H13A H -0.0318 -0.0327 0.7674
C27A C -0.1293(13) -0.1263(13) 0.7596(12)
H14A H -0.0871 -0.1731 0.7566
C28A C -0.2275(12) -0.1404(11) 0.7593(10)
C29A C -0.2876(13) -0.0761(13) 0.7627(12)
H15A H -0.3523 -0.0880 0.7657
C30A C -0.2574(14) 0.0113(13) 0.7617(12)
H16A H -0.3012 0.0566 0.7593
C31A C -0.1270(16) 0.1273(15) 0.7590(13)
C32A C -0.2640(8) -0.2374(12) 0.7529(11)
O33A O -0.1555(11) 0.2962(11) 0.6284(10)
C67A C -0.2240(17) 0.2527(19) 0.6025(14)
H45A H -0.2522 0.2101 0.6333
N3A N -0.2563(15) 0.2633(17) 0.5378(12)
C68A C -0.331(2) 0.213(3) 0.510(2)
H46A H -0.3795 0.2053 0.5490
H47A H -0.3570 0.2436 0.4684
H48A H -0.3066 0.1578 0.4932
C69A C -0.219(3) 0.319(3) 0.4807(18)
H49A H -0.1546 0.3024 0.4674
H50A H -0.2563 0.3138 0.4373
H51A H -0.2210 0.3779 0.4983
O34A O -0.2568(10) 0.3277(12) 0.8717(9)
C70A C -0.2406(16) 0.332(2) 0.9391(14)
H52A H -0.2301 0.3878 0.9574
N4A N -0.2363(17) 0.2698(18) 0.9874(13)
C71A C -0.238(3) 0.179(3) 0.963(2)
H53A H -0.2006 0.1719 0.9171
H54A H -0.2133 0.1421 1.0012
H55A H -0.3027 0.1620 0.9553
C72A C -0.220(3) 0.286(2) 1.0683(14)
H56A H -0.2326 0.3459 1.0802
H57A H -0.2607 0.2492 1.0992
H58A H -0.1546 0.2726 1.0775
Ce1A Ce 0.12908(7) 0.15794(7) -0.25232(6)
O1A O 0.0671(10) 0.2123(9) -0.1338(8)
O2A O -0.0613(11) 0.2946(10) -0.1278(8)
O3A O 0.2460(9) 0.4442(9) 0.1572(8)
O4A O 0.1143(14) 0.5282(11) 0.1634(9)
C1A C 0.0515(14) 0.3155(16) -0.0364(11)
C2A C -0.0009(16) 0.378(2) -0.0010(14)
H1A H -0.0609 0.3923 -0.0168
C3A C 0.0342(18) 0.421(2) 0.0573(14)
H2A H -0.0055 0.4592 0.0844
C4A C 0.1216(17) 0.4108(18) 0.0783(13)
C5A C 0.1768(19) 0.345(2) 0.0483(15)
H3A H 0.2348 0.3325 0.0681
C6A C 0.1447(15) 0.2963(19) -0.0144(12)
H4A H 0.1828 0.2544 -0.0390
C7A C 0.0166(15) 0.2716(14) -0.1076(12)
C8A C 0.1652(14) 0.4626(14) 0.1380(10)
O31A O 0.1176(13) 0.1938(11) -0.3853(8)
C61A C 0.072(2) 0.2146(17) -0.4415(13)
H31A H 0.0087 0.2313 -0.4316
N1A N 0.1018(17) 0.2156(15) -0.5112(11)
C62A C 0.201(2) 0.199(3) -0.5305(19)
H32A H 0.2079 0.1432 -0.5543
H33A H 0.2249 0.2436 -0.5643
H34A H 0.2357 0.1998 -0.4857
C63A C 0.045(3) 0.236(2) -0.5710(16)
H35A H -0.0105 0.2675 -0.5522
H36A H 0.0801 0.2710 -0.6072
H37A H 0.0254 0.1830 -0.5945
O32A O 0.2688(11) 0.1942(12) -0.1754(12)
C64A C 0.3332(19) 0.1834(19) -0.1266(18)
H38A H 0.3397 0.1283 -0.1056
N2A N 0.3881(17) 0.2440(16) -0.1057(14)
C65A C 0.374(2) 0.3314(19) -0.121(2)
H39A H 0.3096 0.3406 -0.1343
H40A H 0.3866 0.3656 -0.0779
H41A H 0.4164 0.3486 -0.1627
C66A C 0.466(3) 0.222(3) -0.067(2)
H42A H 0.4851 0.1638 -0.0794
H43A H 0.5168 0.2617 -0.0809
H44A H 0.4505 0.2268 -0.0142
Ce2_2 Ce 0.74066(7) -0.92473(6) 0.26200(5)
Ce3_2 Ce 0.51654(6) -0.75024(6) 0.25303(5)
O5_2 O 0.8198(10) -0.7831(8) 0.2913(8)
O6_2 O 0.6768(9) -0.7513(8) 0.2423(7)
O7_2 O 0.9929(7) -0.3518(10) 0.2660(9)
O8_2 O 0.8347(13) -0.3156(11) 0.2657(11)
C9_2 C 0.7997(14) -0.6340(12) 0.2588(12)
C10_2 C 0.7333(13) -0.5682(12) 0.2539(13)
H5_2 H 0.6692 -0.5805 0.2501
C11_2 C 0.7665(14) -0.4814(11) 0.2551(12)
H6_2 H 0.7236 -0.4354 0.2521
C12_2 C 0.8618(13) -0.4643(13) 0.2605(11)
C13_2 C 0.9242(14) -0.5289(14) 0.2682(13)
H7_2 H 0.9882 -0.5167 0.2725
C14_2 C 0.8915(14) -0.6173(13) 0.2699(13)
H8_2 H 0.9334 -0.6627 0.2785
C15_2 C 0.7673(13) -0.7278(13) 0.2649(10)
C16_2 C 0.9014(8) -0.3721(14) 0.2650(11)
Ce1_2 Ce -0.12908(7) 0.84206(7) 0.25232(6)
Ce1_3 Ce 0.87092(7) 0.84206(7) 0.25232(6)
Ce1A_2 Ce -0.87092(7) 0.15794(7) 0.74768(6)
Ce1A_3 Ce 0.12908(7) 0.15794(7) 0.74768(6)
Ce1A_4 Ce 1.12908(7) 0.15794(7) -0.25232(6)
Ce1A_5 Ce 1.12908(7) 0.15794(7) 0.74768(6)
Ce2_3 Ce 0.74066(7) 1.07527(6) 0.26200(5)
Ce2A Ce -0.74066(7) -0.07527(6) 0.73800(5)
Ce2A_2 Ce 0.25934(7) -0.07527(6) -0.26200(5)
Ce2A_3 Ce 0.25934(7) -0.07527(6) 0.73800(5)
Ce2A_4 Ce 1.25934(7) -0.07527(6) -0.26200(5)
Ce2A_5 Ce 1.25934(7) -0.07527(6) 0.73800(5)
Ce3_3 Ce 0.51654(6) 1.24976(6) 0.25303(5)
Ce3A Ce -0.51654(6) -0.24976(6) 0.74697(5)
Ce3A_2 Ce 0.48346(6) -0.24976(6) -0.25303(5)
Ce3A_3 Ce 0.48346(6) -0.24976(6) 0.74697(5)
Ce3A_4 Ce 0.48346(6) 0.75024(6) -0.25303(5)
Ce3A_5 Ce 0.48346(6) 0.75024(6) 0.74697(5)
Ce4_2 Ce 0.30642(7) 1.42660(7) 0.27629(6)
Ce4A_2 Ce -0.30642(7) -0.42660(7) 0.72371(6)
Ce4A_3 Ce 0.69358(7) -0.42660(7) -0.27629(6)
Ce4A_4 Ce 0.69358(7) 0.57340(7) -0.27629(6)
Ce4A_5 Ce 0.69358(7) 0.57340(7) 0.72371(6)
Ce5_2 Ce 1.14472(7) -0.34138(7) 0.23740(6)
Ce5_3 Ce 1.14472(7) 0.65862(7) 0.23740(6)
Ce5A_2 Ce -0.14472(7) 0.34138(7) -0.23740(6)
Ce5A_3 Ce 0.85528(7) -0.65862(7) -0.23740(6)
O2_2 O 0.0613(11) 0.7054(10) 0.1278(8)
O2A_2 O -0.0613(11) 0.2946(10) 0.8722(8)
O3_2 O -0.2460(9) 0.5558(9) 0.8428(8)
O4_2 O -0.1143(14) 0.4718(11) 0.8366(9)
O7_3 O -0.0071(7) 0.6482(10) 0.2660(9)
O7A O 0.0071(7) 0.3518(10) 0.7340(9)
O8A O 0.1653(13) 0.3156(11) -0.2657(11)
O11_2 O 0.7181(9) -1.0993(8) 0.3124(7)
O11_3 O 0.7181(9) -0.0993(8) 0.3124(7)
O11A_2 O 0.2819(9) 0.0993(8) -0.3124(7)
O12_2 O 0.5989(11) -1.0288(9) 0.2592(10)
O12_3 O 0.5989(11) -0.0288(9) 0.2592(10)
O14_2 O 1.0322(9) -0.1410(10) 0.2470(8)
O14A_2 O -0.0322(9) 0.1410(10) -0.2470(8)
O15_2 O 0.3573(6) -0.7470(8) 0.2371(7)
O15_3 O 0.3573(6) 0.2530(8) 0.2371(7)
O15A_2 O -0.3573(6) 0.7470(8) 0.7629(7)
O16_2 O 0.2030(11) 0.2931(10) 0.2762(10)
O16A_2 O -0.2030(11) 0.7069(10) 0.7238(10)
O17_2 O 0.8371(9) -1.0326(10) 0.1718(7)
O17A_2 O 0.1629(9) 0.0326(10) -0.1718(7)
O18_2 O 0.8729(10) -0.8922(10) 0.1604(7)
O19_2 O 0.8869(8) -1.0047(8) 0.3167(7)
O19A_2 O 0.1131(8) 0.0047(8) -0.3167(7)
O20_2 O 0.7931(8) -0.9289(9) 0.3983(7)
O21_2 O 0.6648(10) -0.9199(11) 0.1382(8)
O22_2 O 0.5258(11) -0.8764(9) 0.1706(10)
O23_2 O 0.5982(9) -0.8669(9) 0.3373(8)
O24_2 O 0.4464(10) -0.8490(9) 0.3510(8)
O25_2 O 0.5364(12) -0.6829(10) 0.1258(8)
O26_2 O 0.4566(8) -0.5864(9) 0.1958(8)
O26A_2 O -0.4566(8) 0.5864(9) 0.8042(8)
O27_2 O 0.5791(9) -0.6606(10) 0.3584(7)
O28_2 O 0.4263(8) -0.6493(9) 0.3517(7)
O28A_2 O -0.4263(8) 0.6493(9) 0.6483(7)
loop_
_geom_bond_atom_site_label_1
_geom_bond_atom_site_label_2
_geom_bond_site_symmetry_1
_geom_bond_site_symmetry_2
Ce1 O1 1_555 1_555
Ce2 O5 1_555 1_555
Ce3 O6 1_555 1_555
Ce4 O9 1_555 1_555
Ce5 O10 1_555 1_555
O1 C7 1_555 1_555
O2 C7 1_555 1_555
O3 C8 1_555 1_555
O4 C8 1_555 1_555
O5 C15 1_555 1_555
O6 Ce2 1_555 1_555
O7 C16 1_555 1_555
O8 C16 1_555 1_555
O9 C23 1_555 1_555
O10 Ce4 1_555 1_555
O11 C24 1_555 1_555
O12 C24 1_555 1_555
O13 Ce5 1_555 1_555
O14 C31 1_555 1_555
O15 C32 1_555 1_555
O16 C32 1_555 1_555
O17 Ce1 1_555 1_555
O18 Ce2 1_555 1_555
O19 Ce1 1_555 1_555
O20 Ce2 1_555 1_555
O21 Ce2 1_555 1_555
O22 Ce3 1_555 1_555
O23 Ce2 1_555 1_555
O24 Ce3 1_555 1_555
O25 Ce3 1_555 1_555
O26 Ce3 1_555 1_555
O27 Ce3 1_555 1_555
O28 Ce3 1_555 1_555
O29 Ce4 1_555 1_555
O30 Ce4 1_555 1_555
C1 C2 1_555 1_555
C2 H1 1_555 1_555
C3 C2 1_555 1_555
H2 C3 1_555 1_555
C4 C3 1_555 1_555
C5 C4 1_555 1_555
H3 C5 1_555 1_555
C6 C1 1_555 1_555
H4 C6 1_555 1_555
C7 C1 1_555 1_555
C8 C4 1_555 1_555
C9 C10 1_555 1_555
C10 H5 1_555 1_555
C11 C10 1_555 1_555
H6 C11 1_555 1_555
C12 C11 1_555 1_555
C13 C12 1_555 1_555
H7 C13 1_555 1_555
C14 C9 1_555 1_555
H8 C14 1_555 1_555
C15 O6 1_555 1_555
C16 C12 1_555 1_555
C17 C18 1_555 1_555
C18 H9 1_555 1_555
C19 C18 1_555 1_555
H10 C19 1_555 1_555
C20 C19 1_555 1_555
C21 C20 1_555 1_555
H11 C21 1_555 1_555
C22 C17 1_555 1_555
H12 C22 1_555 1_555
C23 O10 1_555 1_555
C24 C20 1_555 1_555
C25 C26 1_555 1_555
C26 H13 1_555 1_555
C27 C26 1_555 1_555
H14 C27 1_555 1_555
C28 C27 1_555 1_555
C29 C28 1_555 1_555
H15 C29 1_555 1_555
C30 C25 1_555 1_555
H16 C30 1_555 1_555
C31 O13 1_555 1_555
C32 C28 1_555 1_555
C33 C34 1_555 1_555
C34 H17 1_555 1_555
C35 C33 1_555 1_555
H18 C35 1_555 1_555
C36 O17 1_555 1_555
C37 C38 1_555 1_555
C38 H19 1_555 1_555
C39 C37 1_555 1_555
H20 C39 1_555 1_555
C40 O19 1_555 1_555
C41 C42 1_555 1_555
C42 H21 1_555 1_555
C43 C41 1_555 1_555
H22 C43 1_555 1_555
C44 O21 1_555 1_555
C45 C46 1_555 1_555
C46 H23 1_555 1_555
C47 C45 1_555 1_555
H24 C47 1_555 1_555
C48 O23 1_555 1_555
C49 C50 1_555 1_555
C50 H25 1_555 1_555
C51 C50 1_555 1_555
H26 C51 1_555 1_555
C52 O25 1_555 1_555
C53 C54 1_555 1_555
C54 H27 1_555 1_555
C55 C53 1_555 1_555
H28 C55 1_555 1_555
C56 O27 1_555 1_555
C57 C58 1_555 1_555
C58 H29 1_555 1_555
C59 C57 1_555 1_555
H30 C59 1_555 1_555
C60 O29 1_555 1_555
O31 Ce1 1_555 1_555
C61 O31 1_555 1_555
H31 C61 1_555 1_555
N1 C61 1_555 1_555
C62 N1 1_555 1_555
H32 C62 1_555 1_555
H33 C62 1_555 1_555
H34 C62 1_555 1_555
C63 N1 1_555 1_555
H35 C63 1_555 1_555
H36 C63 1_555 1_555
H37 C63 1_555 1_555
O32 Ce1 1_555 1_555
C64 O32 1_555 1_555
H38 C64 1_555 1_555
N2 C64 1_555 1_555
C65 N2 1_555 1_555
H39 C65 1_555 1_555
H40 C65 1_555 1_555
H41 C65 1_555 1_555
C66 N2 1_555 1_555
H42 C66 1_555 1_555
H43 C66 1_555 1_555
H44 C66 1_555 1_555
O33 Ce5 1_555 1_555
C67 O33 1_555 1_555
H45 C67 1_555 1_555
N3 C67 1_555 1_555
C68 N3 1_555 1_555
H46 C68 1_555 1_555
H47 C68 1_555 1_555
H48 C68 1_555 1_555
C69 N3 1_555 1_555
H49 C69 1_555 1_555
H50 C69 1_555 1_555
H51 C69 1_555 1_555
O34 Ce5 1_555 1_555
C70 O34 1_555 1_555
H52 C70 1_555 1_555
N4 C70 1_555 1_555
C71 N4 1_555 1_555
H53 C71 1_555 1_555
H54 C71 1_555 1_555
H55 C71 1_555 1_555
C72 N4 1_555 1_555
H56 C72 1_555 1_555
H57 C72 1_555 1_555
H58 C72 1_555 1_555
O17A C36A 1_555 1_555
O18A C36A 1_555 1_555
C33A C34A 1_555 1_555
C34A C35 1_555 1_555
H17A C34A 1_555 1_555
C35A C34 1_555 1_555
H18A C35A 1_555 1_555
C36A C33A 1_555 1_555
O19A C40A 1_555 1_555
O20A C40A 1_555 1_555
C37A C38A 1_555 1_555
C38A C39 1_555 1_555
H19A C38A 1_555 1_555
C39A C38 1_555 1_555
H20A C39A 1_555 1_555
C40A C37A 1_555 1_555
O21A C44A 1_555 1_555
O22A C44A 1_555 1_555
C41A C42A 1_555 1_555
C42A C43 1_555 1_555
H21A C42A 1_555 1_555
C43A C42 1_555 1_555
H22A C43A 1_555 1_555
C44A C41A 1_555 1_555
O23A C48A 1_555 1_555
O24A C48A 1_555 1_555
C45A C46A 1_555 1_555
C46A C47 1_555 1_555
H23A C46A 1_555 1_555
C47A C46 1_555 1_555
H24A C47A 1_555 1_555
C48A C45A 1_555 1_555
O25A C52A 1_555 1_555
O26A C52A 1_555 1_555
C49A C51 1_555 1_555
C50A C49A 1_555 1_555
H25A C50A 1_555 1_555
C51A C49 1_555 1_555
H26A C51A 1_555 1_555
C52A C49A 1_555 1_555
O27A C56A 1_555 1_555
O28A C56A 1_555 1_555
C53A C54A 1_555 1_555
C54A C55 1_555 1_555
H27A C54A 1_555 1_555
C55A C54 1_555 1_555
H28A C55A 1_555 1_555
C56A C53A 1_555 1_555
O29A C60A 1_555 1_555
O30A C60A 1_555 1_555
C57A C58A 1_555 1_555
C58A C59 1_555 1_555
H29A C58A 1_555 1_555
C59A C58 1_555 1_555
H30A C59A 1_555 1_555
C60A C57A 1_555 1_555
Ce4A O29A 1_555 1_555
Ce5A O30A 1_555 1_555
O9A Ce4A 1_555 1_555
O10A Ce4A 1_555 1_555
O11A C24A 1_555 1_555
O12A C24A 1_555 1_555
O13A Ce5A 1_555 1_555
O14A C31A 1_555 1_555
O15A C32A 1_555 1_555
O16A C32A 1_555 1_555
C17A C18A 1_555 1_555
C18A H9A 1_555 1_555
C19A C18A 1_555 1_555
H10A C19A 1_555 1_555
C20A C19A 1_555 1_555
C21A C20A 1_555 1_555
H11A C21A 1_555 1_555
C22A C17A 1_555 1_555
H12A C22A 1_555 1_555
C23A O9A 1_555 1_555
C24A C20A 1_555 1_555
C25A C26A 1_555 1_555
C26A H13A 1_555 1_555
C27A C26A 1_555 1_555
H14A C27A 1_555 1_555
C28A C27A 1_555 1_555
C29A C28A 1_555 1_555
H15A C29A 1_555 1_555
C30A C25A 1_555 1_555
H16A C30A 1_555 1_555
C31A O13A 1_555 1_555
C32A C28A 1_555 1_555
O33A Ce5A 1_555 1_555
C67A O33A 1_555 1_555
H45A C67A 1_555 1_555
N3A C67A 1_555 1_555
C68A N3A 1_555 1_555
H46A C68A 1_555 1_555
H47A C68A 1_555 1_555
H48A C68A 1_555 1_555
C69A N3A 1_555 1_555
H49A C69A 1_555 1_555
H50A C69A 1_555 1_555
H51A C69A 1_555 1_555
O34A Ce5A 1_555 1_555
C70A O34A 1_555 1_555
H52A C70A 1_555 1_555
N4A C70A 1_555 1_555
C71A N4A 1_555 1_555
H53A C71A 1_555 1_555
H54A C71A 1_555 1_555
H55A C71A 1_555 1_555
C72A N4A 1_555 1_555
H56A C72A 1_555 1_555
H57A C72A 1_555 1_555
H58A C72A 1_555 1_555
Ce1A O1A 1_555 1_555
O1A C7A 1_555 1_555
O2A C7A 1_555 1_555
O3A Ce4 1_555 1_555
O4A Ce5 1_555 1_555
C1A C2A 1_555 1_555
C2A H1A 1_555 1_555
C3A C2A 1_555 1_555
H2A C3A 1_555 1_555
C4A C3A 1_555 1_555
C5A C4A 1_555 1_555
H3A C5A 1_555 1_555
C6A C1A 1_555 1_555
H4A C6A 1_555 1_555
C7A C1A 1_555 1_555
C8A O3A 1_555 1_555
O31A Ce1A 1_555 1_555
C61A O31A 1_555 1_555
H31A C61A 1_555 1_555
N1A C61A 1_555 1_555
C62A N1A 1_555 1_555
H32A C62A 1_555 1_555
H33A C62A 1_555 1_555
H34A C62A 1_555 1_555
C63A N1A 1_555 1_555
H35A C63A 1_555 1_555
H36A C63A 1_555 1_555
H37A C63A 1_555 1_555
O32A Ce1A 1_555 1_555
C64A O32A 1_555 1_555
H38A C64A 1_555 1_555
N2A C64A 1_555 1_555
C65A N2A 1_555 1_555
H39A C65A 1_555 1_555
H40A C65A 1_555 1_555
H41A C65A 1_555 1_555
C66A N2A 1_555 1_555
H42A C66A 1_555 1_555
H43A C66A 1_555 1_555
H44A C66A 1_555 1_555
Ce2_2 O5_2 1_555 1_555
Ce3_2 O6_2 1_555 1_555
O5_2 C15_2 1_555 1_555
O6_2 Ce2_2 1_555 1_555
O7_2 C16_2 1_555 1_555
O8_2 Ce1 1_555 1_555
C9_2 C10_2 1_555 1_555
C10_2 H5_2 1_555 1_555
C11_2 C10_2 1_555 1_555
H6_2 C11_2 1_555 1_555
C12_2 C11_2 1_555 1_555
C13_2 C12_2 1_555 1_555
H7_2 C13_2 1_555 1_555
C14_2 C9_2 1_555 1_555
H8_2 C14_2 1_555 1_555
C15_2 O6_2 1_555 1_555
C16_2 O8_2 1_555 1_555
Ce1_2 O14 1_555 1_555
Ce1_3 O8 1_555 1_555
Ce1A_2 O11A 1_555 1_555
Ce1A_3 O14A 1_555 1_555
Ce1A_4 O17A 1_555 1_555
Ce1A_5 O19A 1_555 1_555
Ce2_3 O11 1_555 1_555
Ce2A O11A 1_555 1_555
Ce2A_2 O21A 1_555 1_555
Ce2A_3 O23A 1_555 1_555
Ce2A_4 O17A 1_555 1_555
Ce2A_5 O19A 1_555 1_555
Ce3_3 O15 1_555 1_555
Ce3A O15A 1_555 1_555
Ce3A_2 O22A 1_555 1_555
Ce3A_3 O23A 1_555 1_555
Ce3A_4 O25A 1_555 1_555
Ce3A_5 O27A 1_555 1_555
Ce4_2 O15 1_555 1_555
Ce4A_2 O15A 1_555 1_555
Ce4A_3 O3 1_555 1_555
Ce4A_4 O26A 1_555 1_555
Ce4A_5 O28A 1_555 1_555
Ce5_2 O2 1_555 1_555
Ce5_3 O7 1_555 1_555
Ce5A_2 O2A 1_555 1_555
Ce5A_3 O4 1_555 1_555
O2_2 Ce5 1_555 1_555
O2A_2 Ce5A 1_555 1_555
O3_2 Ce4A 1_555 1_555
O4_2 Ce5A 1_555 1_555
O7_3 Ce5 1_555 1_555
O7A Ce5A 1_555 1_555
O8A Ce1A 1_555 1_555
O11_2 Ce2_2 1_555 1_555
O11_3 Ce1 1_555 1_555
O11A_2 Ce1A 1_555 1_555
O12_2 Ce2_2 1_555 1_555
O12_3 Ce2 1_555 1_555
O14_2 Ce1 1_555 1_555
O14A_2 Ce1A 1_555 1_555
O15_2 Ce3_2 1_555 1_555
O15_3 Ce3 1_555 1_555
O15A_2 Ce4A 1_555 1_555
O16_2 Ce4 1_555 1_555
O16A_2 Ce4A 1_555 1_555
O17_2 Ce2_2 1_555 1_555
O17A_2 Ce1A 1_555 1_555
O18_2 Ce2_2 1_555 1_555
O19_2 Ce2_2 1_555 1_555
O19A_2 Ce1A 1_555 1_555
O20_2 Ce2_2 1_555 1_555
O21_2 Ce2_2 1_555 1_555
O22_2 Ce3_2 1_555 1_555
O23_2 Ce2_2 1_555 1_555
O24_2 Ce3_2 1_555 1_555
O25_2 Ce3_2 1_555 1_555
O26_2 Ce3_2 1_555 1_555
O26A_2 Ce4A 1_555 1_555
O27_2 Ce3_2 1_555 1_555
O28_2 Ce3_2 1_555 1_555
O28A_2 Ce4A 1_555 1_555
Ce2 O17 1_555 1_555
Ce2 O19 1_555 1_555
Ce2 O11_3 1_555 1_555
Ce3 O23 1_555 1_555
Ce4 O26 1_555 1_555
Ce4 O28 1_555 1_555
Ce4 O15_3 1_555 1_555
Ce5 O30 1_555 1_555
O11 Ce1_3 1_555 1_555
O12 Ce2_3 1_555 1_555
O16 Ce4_2 1_555 1_555
O18 C36 1_555 1_555
O20 C40 1_555 1_555
O22 C44 1_555 1_555
O24 C48 1_555 1_555
O26 C52 1_555 1_555
O28 C56 1_555 1_555
O30 C60 1_555 1_555
C5 C6 1_555 1_555
C9 C15 1_555 1_555
C13 C14 1_555 1_555
C17 C23 1_555 1_555
C21 C22 1_555 1_555
C25 C31 1_555 1_555
C29 C30 1_555 1_555
C33 C36 1_555 1_555
C37 C40 1_555 1_555
C41 C44 1_555 1_555
C45 C48 1_555 1_555
C49 C52 1_555 1_555
C53 C56 1_555 1_555
C57 C60 1_555 1_555
O18A Ce2A_4 1_555 1_555
C33A C35A 1_555 1_555
O20A Ce2A_5 1_555 1_555
C37A C39A 1_555 1_555
C41A C43A 1_555 1_555
O24A Ce3A_3 1_555 1_555
C45A C47A 1_555 1_555
O26A Ce3A_4 1_555 1_555
C50A C51A 1_555 1_555
O28A Ce3A_5 1_555 1_555
C53A C55A 1_555 1_555
O30A Ce4A 1_555 1_555
C57A C59A 1_555 1_555
Ce5A O10A 1_555 1_555
O10A C23A 1_555 1_555
O12A Ce2A 1_555 1_555
O16A Ce4A_2 1_555 1_555
C17A C23A 1_555 1_555
C21A C22A 1_555 1_555
C25A C31A 1_555 1_555
C29A C30A 1_555 1_555
O4A C8A 1_555 1_555
C4A C8A 1_555 1_555
C5A C6A 1_555 1_555
Ce3_2 O23_2 1_555 1_555
O7_2 Ce5_2 1_555 1_555
C9_2 C15_2 1_555 1_555
C12_2 C16_2 1_555 1_555
C13_2 C14_2 1_555 1_555
Ce2A_2 O11A_2 1_555 1_555
Ce2A_2 O17A_2 1_555 1_555
Ce2A_2 O19A_2 1_555 1_555

#END
