
#######################################################################
#
#                 Cambridge Crystallographic Data Centre
#                                CCDC 
#
#######################################################################
#
# If this CIF has been generated from an entry in the Cambridge 
# Structural Database, then it will include bibliographic, chemical, 
# crystal, experimental, refinement or atomic coordinate data resulting 
# from the CCDC's data processing and validation procedures.
#
#######################################################################

data_GOBXIF
_symmetry_cell_setting           triclinic
_symmetry_space_group_name_H-M   'P -1'
_symmetry_Int_Tables_number      2
_space_group_name_Hall           '-P 1'
loop_
_symmetry_equiv_pos_site_id
_symmetry_equiv_pos_as_xyz
1 x,y,z
2 -x,-y,-z
_cell_length_a                   7.7854(6)
_cell_length_b                   10.2442(8)
_cell_length_c                   13.3952(11)
_cell_angle_alpha                100.388(1)
_cell_angle_beta                 103.293(1)
_cell_angle_gamma                103.764(1)
_cell_volume                     978.146
loop_
_atom_site_label
_atom_site_type_symbol
_atom_site_fract_x
_atom_site_fract_y
_atom_site_fract_z
Fe1 Fe 0.21766(4) 1.00332(3) 0.80260(2)
Mn1 Mn -0.18976(5) 1.49165(4) 0.70101(3)
O1 O 0.3433(3) 0.8364(2) 0.79337(15)
H1 H 0.392(4) 0.828(4) 0.7410(17)
H2 H 0.389(4) 0.794(3) 0.839(2)
O2 O 0.0086(3) 0.9081(2) 0.86097(17)
H3 H -0.073(3) 0.949(3) 0.873(2)
H4 H -0.019(5) 0.8192(7) 0.856(3)
O3 O -0.2372(3) 1.6807(2) 0.64943(18)
H5 H -0.151(3) 1.753(2) 0.650(3)
H6 H -0.326(3) 1.715(4) 0.658(3)
O4 O -0.4400(3) 1.5019(2) 0.75623(16)
H7 H -0.436(5) 1.571(2) 0.8059(18)
H8 H -0.546(2) 1.468(3) 0.7084(19)
O5 O 0.0639(3) 1.5789(2) 0.65867(18)
H9 H 0.109(4) 1.517(3) 0.629(2)
H10 H 0.141(4) 1.6606(18) 0.690(3)
N1 N 0.1484(3) 1.20720(19) 0.83303(14)
C1 C 0.0295(3) 1.2568(2) 0.77314(17)
H15 H -0.0445 1.1987 0.7081
N2 N 0.0083(3) 1.38274(19) 0.79911(15)
C2 C 0.1150(3) 1.4660(2) 0.89254(17)
C3 C 0.2439(3) 1.4244(2) 0.95975(17)
H16 H 0.3190 1.4831 1.0243
C4 C 0.2558(3) 1.2923(2) 0.92671(17)
C5 C 0.0834(3) 1.6070(2) 0.92449(18)
C6 C 0.3878(3) 1.2319(2) 0.99314(18)
N3 N 0.6085(3) 1.2560(2) 0.66159(15)
C7 C 0.5345(3) 1.1970(2) 0.72877(18)
H17 H 0.5953 1.2319 0.8007
N4 N 0.3798(2) 1.09182(19) 0.70094(14)
C8 C 0.2958(3) 1.0393(2) 0.59706(17)
C9 C 0.3652(3) 1.0911(2) 0.52181(17)
H18 H 0.3088 1.0524 0.4498
C10 C 0.5227(3) 1.2033(2) 0.55810(17)
C11 C 0.1181(3) 0.9208(2) 0.56893(17)
C12 C 0.6050(3) 1.2796(2) 0.48494(18)
O8 O 0.1759(2) 1.68135(17) 1.01212(14)
O9 O -0.0413(2) 1.63228(17) 0.85804(13)
O10 O 0.4019(2) 1.11751(17) 0.94830(13)
O11 O 0.4708(3) 1.29763(19) 1.08608(13)
O12 O 0.0532(2) 0.90314(17) 0.64590(13)
O13 O 0.0521(2) 0.85314(18) 0.47585(13)
O14 O 0.7157(3) 1.39750(19) 0.52953(14)
O15 O 0.5517(2) 1.22085(19) 0.38906(13)
Mn1_2 Mn 0.81024(5) 1.49165(4) 0.70101(3)
N3_2 N -0.3915(3) 1.2560(2) 0.66159(15)
O14_2 O -0.2843(3) 1.39750(19) 0.52953(14)
O6 O -0.2396(3) 0.6085(2) 0.41211(16)
H11 H -0.149(3) 0.685(2) 0.430(3)
H12 H -0.260(6) 0.573(4) 0.464(2)
O7 O -0.2431(3) 1.0411(2) 0.8876(2)
H13 H -0.210(5) 1.119(4) 0.927(3)
H14 H -0.337(4) 1.015(6) 0.911(4)
loop_
_geom_bond_atom_site_label_1
_geom_bond_atom_site_label_2
_geom_bond_site_symmetry_1
_geom_bond_site_symmetry_2
Fe1 O1 1_555 1_555
Mn1 O3 1_555 1_555
O1 H1 1_555 1_555
H2 O1 1_555 1_555
O2 Fe1 1_555 1_555
H3 O2 1_555 1_555
H4 O2 1_555 1_555
O3 H5 1_555 1_555
H6 O3 1_555 1_555
O4 Mn1 1_555 1_555
H7 O4 1_555 1_555
H8 O4 1_555 1_555
O5 Mn1 1_555 1_555
H9 O5 1_555 1_555
H10 O5 1_555 1_555
O6 H11 1_555 1_555
H12 O6 1_555 1_555
O7 H13 1_555 1_555
H14 O7 1_555 1_555
N1 Fe1 1_555 1_555
C1 N1 1_555 1_555
H15 C1 1_555 1_555
N2 Mn1 1_555 1_555
C2 N2 1_555 1_555
C3 C2 1_555 1_555
H16 C3 1_555 1_555
C4 N1 1_555 1_555
C5 C2 1_555 1_555
C6 C4 1_555 1_555
N3 C7 1_555 1_555
C7 H17 1_555 1_555
N4 Fe1 1_555 1_555
C8 N4 1_555 1_555
C9 C8 1_555 1_555
H18 C9 1_555 1_555
C10 N3 1_555 1_555
C11 C8 1_555 1_555
C12 C10 1_555 1_555
O8 C5 1_555 1_555
O9 Mn1 1_555 1_555
O10 Fe1 1_555 1_555
O11 C6 1_555 1_555
O12 Fe1 1_555 1_555
O13 C11 1_555 1_555
O14 C12 1_555 1_555
O15 C12 1_555 1_555
Mn1_2 N3 1_555 1_555
N3_2 Mn1 1_555 1_555
O14_2 Mn1 1_555 1_555
C1 N2 1_555 1_555
C3 C4 1_555 1_555
C5 O9 1_555 1_555
C6 O10 1_555 1_555
C7 N4 1_555 1_555
C9 C10 1_555 1_555
C11 O12 1_555 1_555
O14 Mn1_2 1_555 1_555

#END
