
#######################################################################
#
#                 Cambridge Crystallographic Data Centre
#                                CCDC 
#
#######################################################################
#
# If this CIF has been generated from an entry in the Cambridge 
# Structural Database, then it will include bibliographic, chemical, 
# crystal, experimental, refinement or atomic coordinate data resulting 
# from the CCDC's data processing and validation procedures.
#
#######################################################################

data_GOBXUR
_symmetry_cell_setting           orthorhombic
_symmetry_space_group_name_H-M   'P c c n'
_symmetry_Int_Tables_number      56
_space_group_name_Hall           '-P 2ab 2ac'
loop_
_symmetry_equiv_pos_site_id
_symmetry_equiv_pos_as_xyz
1 x,y,z
2 1/2-x,1/2-y,z
3 1/2+x,-y,1/2-z
4 -x,1/2+y,1/2-z
5 -x,-y,-z
6 1/2+x,1/2+y,-z
7 1/2-x,y,1/2+z
8 x,1/2-y,1/2+z
_cell_length_a                   49.793(5)
_cell_length_b                   17.495(5)
_cell_length_c                   22.705(5)
_cell_angle_alpha                90
_cell_angle_beta                 90
_cell_angle_gamma                90
_cell_volume                     19779
loop_
_atom_site_label
_atom_site_type_symbol
_atom_site_fract_x
_atom_site_fract_y
_atom_site_fract_z
P1 P 0.38959(10) 0.1662(3) -0.2120(2)
P2 P 0.37322(10) -0.0549(3) -0.2082(2)
W1 W 0.406030(19) 0.33080(5) -0.12979(4)
W2 W 0.367400(19) 0.35114(5) -0.25093(4)
W3 W 0.432800(18) 0.30800(5) -0.26440(4)
W4 W 0.457120(18) 0.11704(5) -0.22242(4)
W5 W 0.431670(17) 0.14093(5) -0.08717(4)
W6 W 0.359910(17) 0.18239(5) -0.07193(4)
W7 W 0.321690(18) 0.20459(5) -0.19159(4)
W8 W 0.349870(16) 0.18055(5) -0.33920(4)
W9 W 0.415500(16) 0.13950(5) -0.35459(4)
W10 W 0.441790(18) -0.09128(5) -0.21985(4)
W11 W 0.400020(17) -0.07117(5) -0.35110(4)
W12 W 0.334560(16) -0.02947(5) -0.33636(4)
W13 W 0.305750(18) -0.00558(5) -0.18901(4)
W14 W 0.326420(18) -0.19745(5) -0.23921(5)
W15 W 0.416170(17) -0.06889(5) -0.08460(4)
W16 W 0.343950(16) -0.02690(5) -0.06821(4)
W17 W 0.365460(19) -0.21755(5) -0.11857(4)
W18 W 0.391910(19) -0.24027(5) -0.25496(4)
Ag1 Ag 0.52115(7) 0.22936(14) -0.24920(9)
Ag2 Ag 0.48321(4) 0.47837(12) -0.24960(8)
Ag3 Ag 0.25912(7) -0.35487(19) -0.23599(11)
Ag4 Ag 0.24667(4) 0.15344(12) -0.18708(8)
O1 O 0.4134(4) 0.3955(10) -0.0760(8)
O2 O 0.3808(3) 0.3866(9) -0.1764(7)
O3 O 0.3512(3) 0.4291(9) -0.2759(8)
O4 O 0.4024(3) 0.3710(9) -0.2820(7)
O5 O 0.4325(3) 0.3543(8) -0.1876(7)
O6 O 0.4577(3) 0.3588(9) -0.2972(7)
O7 O 0.4519(3) 0.2237(9) -0.2343(6)
O8 O 0.4222(3) 0.2414(8) -0.3258(7)
O9 O 0.3964(3) 0.2539(8) -0.2143(6)
O10 O 0.4274(3) 0.2447(8) -0.1066(7)
O11 O 0.3766(3) 0.2759(8) -0.0944(6)
O12 O 0.3612(3) 0.2795(8) -0.3124(6)
O13 O 0.3403(3) 0.2959(8) -0.2072(6)
O14 O 0.2893(3) 0.2419(9) -0.1954(8)
O15 O 0.3277(3) 0.2103(9) -0.3913(7)
O16 O 0.4352(3) 0.1458(10) -0.4166(7)
O17 O 0.4899(3) 0.1140(10) -0.2432(7)
O18 O 0.4483(3) 0.1507(9) -0.0216(8)
O19 O 0.4611(3) 0.1345(9) -0.1406(7)
O20 O 0.4401(3) 0.1073(9) -0.2967(6)
O21 O 0.3822(3) 0.1742(8) -0.3864(6)
O22 O 0.4132(3) 0.1260(9) -0.1851(6)
O23 O 0.3640(3) 0.1583(8) -0.1744(6)
O24 O 0.3284(3) 0.1773(9) -0.2710(6)
O25 O 0.3280(3) 0.2168(9) -0.1101(6)
O26 O 0.3946(3) 0.1434(8) -0.0640(6)
O27 O 0.4032(3) 0.0375(9) -0.3637(7)
O28 O 0.3455(3) 0.0731(9) -0.3493(6)
O29 O 0.4519(3) 0.0117(9) -0.2104(7)
O30 O 0.3112(3) 0.0998(9) -0.1790(6)
O31 O 0.4288(3) 0.0315(8) -0.0884(6)
O32 O 0.3465(3) 0.0823(8) -0.0708(7)
O33 O 0.2714(4) -0.0029(10) -0.1939(7)
O34 O 0.3156(3) 0.0044(9) -0.2685(6)
O35 O 0.3099(3) -0.1127(8) -0.2022(6)
O36 O 0.3969(3) -0.1641(8) -0.0995(6)
O37 O 0.4162(3) -0.1004(9) -0.4128(7)
O38 O 0.3919(3) -0.1701(8) -0.3200(6)
O39 O 0.4061(3) -0.3204(9) -0.2850(8)
O40 O 0.3630(4) -0.2841(10) -0.0636(8)
O41 O 0.4732(3) -0.1243(9) -0.2395(7)
O42 O 0.3340(3) -0.2427(9) -0.1647(6)
O43 O 0.3333(3) -0.0368(10) 0.0031(7)
O44 O 0.3096(3) -0.0204(9) -0.1071(7)
O45 O 0.3518(3) -0.0151(8) -0.1720(6)
O46 O 0.3721(3) -0.0301(8) -0.2729(6)
O47 O 0.3550(3) -0.2578(9) -0.2706(7)
O48 O 0.3856(4) -0.2745(9) -0.1765(7)
O49 O 0.3460(3) -0.1336(8) -0.0877(7)
O50 O 0.3827(3) -0.0322(8) -0.0605(7)
O51 O 0.4430(3) -0.1057(9) -0.1377(7)
O52 O 0.3298(3) -0.1312(8) -0.3056(7)
O53 O 0.2994(3) -0.2515(10) -0.2593(7)
O54 O 0.3669(3) -0.1425(8) -0.2063(6)
O55 O 0.4273(3) -0.0635(9) -0.2934(7)
O56 O 0.4220(3) -0.1848(8) -0.2280(6)
O57 O 0.3101(3) -0.0340(9) -0.3884(7)
O58 O 0.3642(3) -0.0655(8) -0.3819(6)
O59 O 0.4302(3) -0.0961(10) -0.0192(7)
O60 O 0.3846(3) 0.1409(8) -0.2758(5)
O61 O 0.4011(3) -0.0453(9) -0.1830(6)
O62 O 0.3515(4) 0.2090(10) -0.0020(7)
N1 N 0.4884(4) 0.4867(12) -0.3462(8)
N2 N 0.4889(4) 0.4821(12) -0.1531(9)
N3 N 0.2444(3) 0.1412(12) -0.2822(7)
N4 N 0.2484(4) 0.1491(11) -0.0920(8)
N5 N 0.2523(5) -0.3700(18) -0.3298(12)
N6 N 0.2573(5) -0.3449(16) -0.1413(11)
N7 N 0.5213(5) 0.2559(13) -0.1544(11)
N8 N 0.5218(6) 0.2112(15) -0.3454(10)
C1 C 0.5208(5) 0.2164(14) -0.4672(10)
C2 C 0.2467(5) 0.1388(14) -0.4032(10)
C3 C 0.2706(8) -0.408(3) -0.3641(16)
H1 H 0.2846 -0.4340 -0.3463
C4 C 0.2686(9) -0.407(2) -0.4243(15)
H2 H 0.2810 -0.4349 -0.4462
C5 C 0.2312(8) -0.3514(19) -0.0529(13)
H3 H 0.2141 -0.3516 -0.0363
C6 C 0.4992(7) 0.205(2) -0.3734(16)
H4 H 0.4835 0.1985 -0.3520
C7 C 0.4979(6) 0.209(2) -0.4356(13)
H5 H 0.4814 0.2053 -0.4547
C8 C 0.2320(8) -0.336(3) -0.3576(14)
H6 H 0.2189 -0.3116 -0.3349
C9 C 0.5436(6) 0.250(2) -0.1231(13)
H7 H 0.5596 0.2387 -0.1422
C10 C 0.4721(5) 0.491(2) -0.0563(12)
H8 H 0.4570 0.4933 -0.0324
C11 C 0.2804(8) -0.354(2) -0.1085(14)
H9 H 0.2969 -0.3542 -0.1277
C12 C 0.2534(7) -0.3606(16) -0.0175(13)
C13 C 0.2798(9) -0.361(2) -0.0497(14)
H10 H 0.2957 -0.3674 -0.0289
C14 C 0.2342(6) -0.3419(19) -0.1123(15)
H11 H 0.2187 -0.3325 -0.1341
C15 C 0.4987(7) 0.2854(17) -0.0675(12)
H12 H 0.4828 0.3007 -0.0496
C16 C 0.4982(6) 0.2735(16) -0.1271(14)
H13 H 0.4822 0.2775 -0.1481
C17 C 0.2292(7) -0.333(2) -0.4169(12)
H14 H 0.2144 -0.3093 -0.4335
C18 C 0.5448(6) 0.2190(19) -0.3738(12)
H15 H 0.5609 0.2227 -0.3531
C19 C 0.4842(6) 0.5507(15) -0.3758(13)
H16 H 0.4786 0.5935 -0.3549
C20 C 0.5124(6) 0.4857(19) -0.1312(14)
H17 H 0.5266 0.4830 -0.1577
C21 C 0.4978(5) 0.4296(16) -0.3777(12)
H18 H 0.5019 0.3845 -0.3579
C22 C 0.2487(7) -0.3675(16) -0.4537(12)
C23 C 0.5022(5) 0.4313(14) -0.4370(11)
H19 H 0.5087 0.3882 -0.4564
C24 C 0.4878(6) 0.5577(16) -0.4359(12)
H20 H 0.4840 0.6039 -0.4543
C25 C 0.5448(6) 0.2215(17) -0.4353(12)
H21 H 0.5610 0.2266 -0.4554
C26 C 0.5437(5) 0.2600(19) -0.0645(12)
H22 H 0.5599 0.2557 -0.0445
C27 C 0.4699(5) 0.4833(19) -0.1166(11)
H23 H 0.4526 0.4786 -0.1318
C28 C 0.5193(5) 0.4933(18) -0.0721(11)
H24 H 0.5370 0.4970 -0.0594
C29 C 0.4969(5) 0.4980(14) -0.4682(11)
C30 C 0.4976(5) 0.4947(14) -0.0332(9)
C31 C 0.5207(5) 0.2765(16) -0.0323(12)
C32 C 0.2232(6) 0.1602(17) -0.3144(13)
H25 H 0.2074 0.1739 -0.2952
C33 C 0.2706(5) 0.1214(16) -0.0653(10)
H26 H 0.2849 0.1045 -0.0882
C34 C 0.2235(6) 0.1606(15) -0.3750(11)
H27 H 0.2084 0.1754 -0.3963
C35 C 0.2724(5) 0.1176(14) -0.0048(10)
H28 H 0.2881 0.0987 0.0123
C36 C 0.2667(5) 0.1196(15) -0.3107(10)
H29 H 0.2818 0.1067 -0.2886
C37 C 0.2289(5) 0.1694(14) 0.0028(10)
H30 H 0.2142 0.1856 0.0250
C38 C 0.2285(4) 0.1728(13) -0.0580(10)
H31 H 0.2133 0.1930 -0.0760
C39 C 0.2684(5) 0.1158(16) -0.3708(11)
H32 H 0.2839 0.0981 -0.3892
C40 C 0.2478(5) 0.1406(14) -0.4702(10)
P1A P 0.11041(10) 0.3338(3) -0.2120(2)
P2A P 0.12678(10) 0.5549(3) -0.2082(2)
W1A W 0.093970(19) 0.16920(5) -0.12979(4)
W2A W 0.132600(19) 0.14886(5) -0.25093(4)
W3A W 0.067200(18) 0.19200(5) -0.26440(4)
W4A W 0.042880(18) 0.38296(5) -0.22242(4)
W5A W 0.068330(17) 0.35907(5) -0.08717(4)
W6A W 0.140090(17) 0.31761(5) -0.07193(4)
W7A W 0.178310(18) 0.29541(5) -0.19159(4)
W8A W 0.150130(16) 0.31945(5) -0.33920(4)
W9A W 0.084500(16) 0.36050(5) -0.35459(4)
W10A W 0.058210(18) 0.59128(5) -0.21985(4)
W11A W 0.099980(17) 0.57117(5) -0.35110(4)
W12A W 0.165440(16) 0.52947(5) -0.33636(4)
W13A W 0.194250(18) 0.50558(5) -0.18901(4)
W14A W 0.173580(18) 0.69745(5) -0.23921(5)
W15A W 0.083830(17) 0.56889(5) -0.08460(4)
W16A W 0.156050(16) 0.52690(5) -0.06821(4)
W17A W 0.134540(19) 0.71755(5) -0.11857(4)
W18A W 0.108090(19) 0.74027(5) -0.25496(4)
Ag1A Ag -0.02115(7) 0.27064(14) -0.24920(9)
Ag1B Ag 0.02115(7) 0.77064(14) -0.25080(9)
Ag1C Ag 0.47885(7) -0.27064(14) -0.25080(9)
Ag1G Ag 0.52115(7) 0.27064(14) -0.74920(9)
Ag1G_2 Ag 0.52115(7) 0.27064(14) 0.25080(9)
Ag2B Ag -0.01679(4) 0.52163(12) -0.25040(8)
Ag2A Ag 0.01679(4) 0.02163(12) -0.24960(8)
Ag2C Ag 0.51679(4) -0.02163(12) -0.25040(8)
Ag2D Ag 0.51679(4) 0.52163(12) -0.75040(8)
Ag2D_2 Ag 0.51679(4) 0.52163(12) 0.24960(8)
Ag3A Ag 0.24088(7) 0.85487(19) -0.23599(11)
Ag3F Ag 0.24088(7) -0.35487(19) 0.26401(11)
Ag3F_2 Ag 0.24088(7) -0.35487(19) -0.73599(11)
Ag4A Ag 0.25333(4) 0.34656(12) -0.18708(8)
Ag4F Ag 0.25333(4) 0.15344(12) -0.68708(8)
Ag4F_2 Ag 0.25333(4) 0.15344(12) 0.31292(8)
O1A O 0.0866(4) 0.1045(10) -0.0760(8)
O2A O 0.1192(3) 0.1134(9) -0.1764(7)
O3A O 0.1488(3) 0.0709(9) -0.2759(8)
O4A O 0.0976(3) 0.1290(9) -0.2820(7)
O5A O 0.0675(3) 0.1457(8) -0.1876(7)
O6A O 0.0423(3) 0.1412(9) -0.2972(7)
O7A O 0.0481(3) 0.2763(9) -0.2343(6)
O8A O 0.0778(3) 0.2586(8) -0.3258(7)
O9A O 0.1036(3) 0.2461(8) -0.2143(6)
O10A O 0.0726(3) 0.2553(8) -0.1066(7)
O11A O 0.1234(3) 0.2241(8) -0.0944(6)
O12A O 0.1388(3) 0.2205(8) -0.3124(6)
O13A O 0.1597(3) 0.2041(8) -0.2072(6)
O14A O 0.2107(3) 0.2581(9) -0.1954(8)
O15A O 0.1723(3) 0.2897(9) -0.3913(7)
O16A O 0.0648(3) 0.3542(10) -0.4166(7)
O17C O 0.5101(3) 0.6140(10) -0.2568(7)
O17A O 0.0101(3) 0.3860(10) -0.2432(7)
O17B O -0.0101(3) -0.1140(10) -0.2568(7)
O18A O 0.0517(3) 0.3493(9) -0.0216(8)
O19A O 0.0389(3) 0.3655(9) -0.1406(7)
O20A O 0.0599(3) 0.3927(9) -0.2967(6)
O21A O 0.1178(3) 0.3258(8) -0.3864(6)
O22A O 0.0868(3) 0.3740(9) -0.1851(6)
O23A O 0.1360(3) 0.3417(8) -0.1744(6)
O24A O 0.1716(3) 0.3227(9) -0.2710(6)
O25A O 0.1720(3) 0.2832(9) -0.1101(6)
O26A O 0.1054(3) 0.3566(8) -0.0640(6)
O27A O 0.0968(3) 0.4625(9) -0.3637(7)
O28A O 0.1545(3) 0.4269(9) -0.3493(6)
O29A O 0.0481(3) 0.4883(9) -0.2104(7)
O30A O 0.1888(3) 0.4002(9) -0.1790(6)
O31A O 0.0712(3) 0.4685(8) -0.0884(6)
O32A O 0.1535(3) 0.4177(8) -0.0708(7)
O33A O 0.2286(4) 0.5029(10) -0.1939(7)
O34A O 0.1844(3) 0.4956(9) -0.2685(6)
O35A O 0.1901(3) 0.6127(8) -0.2022(6)
O36A O 0.1031(3) 0.6641(8) -0.0995(6)
O37A O 0.0838(3) 0.6004(9) -0.4128(7)
O38A O 0.1081(3) 0.6701(8) -0.3200(6)
O39A O 0.0939(3) 0.8204(9) -0.2850(8)
O40A O 0.1370(4) 0.7841(10) -0.0636(8)
O41C O 0.5268(3) 0.3757(9) -0.2605(7)
O41A O 0.0268(3) 0.6243(9) -0.2395(7)
O41B O -0.0268(3) 0.1243(9) -0.2605(7)
O42A O 0.1660(3) 0.7427(9) -0.1647(6)
O43A O 0.1667(3) 0.5368(10) 0.0031(7)
O44A O 0.1904(3) 0.5204(9) -0.1071(7)
O45A O 0.1482(3) 0.5151(8) -0.1720(6)
O46A O 0.1279(3) 0.5301(8) -0.2729(6)
O47A O 0.1450(3) 0.7578(9) -0.2706(7)
O48A O 0.1144(4) 0.7745(9) -0.1765(7)
O49A O 0.1540(3) 0.6336(8) -0.0877(7)
O50A O 0.1173(3) 0.5322(8) -0.0605(7)
O51A O 0.0570(3) 0.6057(9) -0.1377(7)
O52A O 0.1702(3) 0.6312(8) -0.3056(7)
O53A O 0.2006(3) 0.7515(10) -0.2593(7)
O54A O 0.1331(3) 0.6425(8) -0.2063(6)
O55A O 0.0727(3) 0.5635(9) -0.2934(7)
O56A O 0.0780(3) 0.6848(8) -0.2280(6)
O57A O 0.1899(3) 0.5340(9) -0.3884(7)
O58A O 0.1358(3) 0.5655(8) -0.3819(6)
O59A O 0.0698(3) 0.5961(10) -0.0192(7)
O60A O 0.1154(3) 0.3591(8) -0.2758(5)
O61A O 0.0989(3) 0.5453(9) -0.1830(6)
O62A O 0.1485(4) 0.2910(10) -0.0020(7)
N1A N 0.0116(4) 0.0133(12) -0.3462(8)
N1D N 0.5116(4) 0.5133(12) -0.6538(8)
N2A N 0.0111(4) 0.0179(12) -0.1531(9)
N2D N 0.5111(4) 0.5179(12) 0.1531(9)
N3A N 0.2556(3) 0.3588(12) -0.2822(7)
N3F N 0.2556(3) 0.1412(12) 0.2178(7)
N4A N 0.2516(4) 0.3509(11) -0.0920(8)
N4F N 0.2516(4) 0.1491(11) -0.5920(8)
N5F N 0.2477(5) -0.3700(18) 0.1702(12)
N5A N 0.2477(5) 0.8700(18) -0.3298(12)
N6F N 0.2427(5) -0.3449(16) -0.6413(11)
N6A N 0.2427(5) 0.8449(16) -0.1413(11)
N7A N -0.0213(5) 0.2441(13) -0.1544(11)
N7G N 0.5213(5) 0.2441(13) -0.6544(11)
N8A N -0.0218(6) 0.2888(15) -0.3454(10)
N8G N 0.5218(6) 0.2888(15) 0.1546(10)
C1G C 0.5208(5) 0.2836(14) 0.0328(10)
C2F C 0.2533(5) 0.1388(14) 0.0968(10)
C3F C 0.2294(8) -0.408(3) 0.1359(16)
H1F H 0.2154 -0.4340 0.1537
C4F C 0.2314(9) -0.407(2) 0.0757(15)
H2F H 0.2190 -0.4349 0.0538
C5F C 0.2688(8) -0.3514(19) -0.5529(13)
H3F H 0.2859 -0.3516 -0.5363
C6G C 0.4992(7) 0.295(2) 0.1266(16)
H4G H 0.4835 0.3015 0.1480
C7G C 0.4979(6) 0.291(2) 0.0644(13)
H5G H 0.4814 0.2947 0.0453
C8F C 0.2680(8) -0.336(3) 0.1424(14)
H6F H 0.2811 -0.3116 0.1651
C9G C 0.5436(6) 0.250(2) -0.6231(13)
H7G H 0.5596 0.2613 -0.6422
C10D C 0.5279(5) 0.509(2) 0.0563(12)
H8D H 0.5430 0.5067 0.0324
C11F C 0.2196(8) -0.354(2) -0.6085(14)
H9F H 0.2031 -0.3542 -0.6277
C12F C 0.2466(7) -0.3606(16) -0.5175(13)
C13F C 0.2202(9) -0.361(2) -0.5497(14)
H10F H 0.2043 -0.3674 -0.5289
C14F C 0.2658(6) -0.3419(19) -0.6123(15)
H11F H 0.2813 -0.3325 -0.6341
C15G C 0.4987(7) 0.2146(17) -0.5675(12)
H12G H 0.4828 0.1993 -0.5496
C16G C 0.4982(6) 0.2265(16) -0.6271(14)
H13G H 0.4822 0.2225 -0.6481
C17F C 0.2708(7) -0.333(2) 0.0831(12)
H14F H 0.2856 -0.3093 0.0665
C18G C 0.5448(6) 0.2810(19) 0.1262(12)
H15G H 0.5609 0.2773 0.1469
C19D C 0.5158(6) 0.4493(15) -0.6242(13)
H16D H 0.5214 0.4065 -0.6451
C20D C 0.4876(6) 0.5143(19) 0.1312(14)
H17D H 0.4734 0.5170 0.1577
C21D C 0.5022(5) 0.5704(16) -0.6223(12)
H18D H 0.4981 0.6155 -0.6421
C22F C 0.2513(7) -0.3675(16) 0.0463(12)
C23D C 0.4978(5) 0.5687(14) -0.5630(11)
H19D H 0.4913 0.6118 -0.5436
C24D C 0.5122(6) 0.4423(16) -0.5641(12)
H20D H 0.5160 0.3961 -0.5457
C25G C 0.5448(6) 0.2785(17) 0.0647(12)
H21G H 0.5610 0.2734 0.0446
C26G C 0.5437(5) 0.2400(19) -0.5645(12)
H22G H 0.5599 0.2443 -0.5445
C27D C 0.5301(5) 0.5167(19) 0.1166(11)
H23D H 0.5474 0.5214 0.1318
C28D C 0.4807(5) 0.5067(18) 0.0721(11)
H24D H 0.4630 0.5030 0.0594
C29D C 0.5031(5) 0.5020(14) -0.5318(11)
C30D C 0.5024(5) 0.5053(14) 0.0332(9)
C31G C 0.5207(5) 0.2235(16) -0.5323(12)
C32F C 0.2768(6) 0.1602(17) 0.1856(13)
H25F H 0.2926 0.1739 0.2048
C33F C 0.2294(5) 0.1214(16) -0.5653(10)
H26F H 0.2151 0.1045 -0.5882
C34F C 0.2765(6) 0.1606(15) 0.1250(11)
H27F H 0.2916 0.1754 0.1037
C35F C 0.2276(5) 0.1176(14) -0.5048(10)
H28F H 0.2119 0.0987 -0.4877
C36F C 0.2333(5) 0.1196(15) 0.1893(10)
H29F H 0.2182 0.1067 0.2114
C37F C 0.2711(5) 0.1694(14) -0.4972(10)
H30F H 0.2858 0.1856 -0.4750
C38F C 0.2715(4) 0.1728(13) -0.5580(10)
H31F H 0.2867 0.1930 -0.5760
C39F C 0.2316(5) 0.1158(16) 0.1292(11)
H32F H 0.2161 0.0981 0.1108
C40F C 0.2522(5) 0.1406(14) 0.0298(10)
N9 N 0.3496(7) 0.785(2) -0.9020(14)
N10 N 0.4120(6) 1.139(2) -0.9173(13)
C41 C 0.4257(7) 1.071(3) -0.9117(19)
H33 H 0.4443 1.0755 -0.9124
C42 C 0.3730(9) 0.798(2) -0.9301(17)
H34 H 0.3806 0.7578 -0.9515
C43 C 0.3877(9) 1.137(2) -0.9154(15)
H35 H 0.3781 1.1823 -0.9172
C44 C 0.4164(7) 1.003(2) -0.9055(16)
H36 H 0.4271 0.9595 -0.9009
C45 C 0.3513(8) 0.912(3) -0.8719(17)
H37 H 0.3443 0.9510 -0.8492
C46 C 0.3379(9) 0.846(2) -0.8750(19)
H38 H 0.3208 0.8423 -0.8589
C47 C 0.3751(7) 0.923(2) -0.9013(13)
C48 C 0.3876(7) 1.002(2) -0.9066(14)
C49 C 0.3736(6) 1.066(2) -0.9103(15)
H39 H 0.3549 1.0656 -0.9097
C50 C 0.3857(7) 0.863(2) -0.9289(14)
H40 H 0.4023 0.8675 -0.9475
N11 N 0.3714(6) 0.0573(17) -0.4801(10)
N12 N 0.3071(5) -0.0526(16) -0.7403(13)
C51 C 0.2972(7) 0.004(2) -0.7066(15)
H41 H 0.2819 0.0299 -0.7193
C52 C 0.3089(6) 0.0263(18) -0.6534(14)
H42 H 0.3001 0.0598 -0.6282
C53 C 0.3782(8) -0.006(2) -0.5052(13)
H43 H 0.3916 -0.0364 -0.4888
C54 C 0.3654(6) -0.0283(17) -0.5566(13)
H44 H 0.3686 -0.0767 -0.5721
C55 C 0.3420(7) 0.0876(16) -0.5578(14)
H45 H 0.3297 0.1205 -0.5749
C56 C 0.3541(5) 0.107(2) -0.5055(13)
H46 H 0.3505 0.1541 -0.4878
C57 C 0.3298(8) -0.0823(16) -0.7240(13)
H47 H 0.3366 -0.1219 -0.7470
C58 C 0.3481(6) 0.0201(16) -0.5846(13)
C59 C 0.3344(4) -0.0030(14) -0.6384(11)
C60 C 0.3448(6) -0.0604(14) -0.6753(12)
H48 H 0.3613 -0.0831 -0.6673
loop_
_geom_bond_atom_site_label_1
_geom_bond_atom_site_label_2
_geom_bond_site_symmetry_1
_geom_bond_site_symmetry_2
P1 O9 1_555 1_555
P2 O45 1_555 1_555
W1 O1 1_555 1_555
W2 O2 1_555 1_555
W3 O4 1_555 1_555
W4 O7 1_555 1_555
W5 O10 1_555 1_555
W6 O11 1_555 1_555
W7 O13 1_555 1_555
W8 O12 1_555 1_555
W9 O8 1_555 1_555
W10 O29 1_555 1_555
W11 O27 1_555 1_555
W12 O28 1_555 1_555
W13 O30 1_555 1_555
W14 O35 1_555 1_555
W15 O31 1_555 1_555
W16 O32 1_555 1_555
W17 O36 1_555 1_555
W18 O38 1_555 1_555
Ag1 O17 1_555 1_555
Ag2 O6 1_555 1_555
Ag3 O53 1_555 1_555
Ag4 O14 1_555 1_555
O2 W1 1_555 1_555
O3 W2 1_555 1_555
O4 W2 1_555 1_555
O5 W1 1_555 1_555
O6 W3 1_555 1_555
O7 W3 1_555 1_555
O8 W3 1_555 1_555
O9 W1 1_555 1_555
O10 W1 1_555 1_555
O11 W1 1_555 1_555
O12 W2 1_555 1_555
O13 W2 1_555 1_555
O14 W7 1_555 1_555
O15 W8 1_555 1_555
O16 W9 1_555 1_555
O17 W4 1_555 1_555
O18 W5 1_555 1_555
O19 W4 1_555 1_555
O20 W4 1_555 1_555
O21 W8 1_555 1_555
O22 P1 1_555 1_555
O23 P1 1_555 1_555
O24 W7 1_555 1_555
O25 W6 1_555 1_555
O26 W5 1_555 1_555
O27 W9 1_555 1_555
O28 W8 1_555 1_555
O29 W4 1_555 1_555
O30 W7 1_555 1_555
O31 W5 1_555 1_555
O32 W6 1_555 1_555
O33 W13 1_555 1_555
O34 W12 1_555 1_555
O35 W13 1_555 1_555
O36 W15 1_555 1_555
O37 W11 1_555 1_555
O38 W11 1_555 1_555
O39 W18 1_555 1_555
O40 W17 1_555 1_555
O41 W10 1_555 1_555
O42 W14 1_555 1_555
O43 W16 1_555 1_555
O44 W13 1_555 1_555
O45 W13 1_555 1_555
O46 P2 1_555 1_555
O47 W14 1_555 1_555
O48 W17 1_555 1_555
O49 W16 1_555 1_555
O50 W15 1_555 1_555
O51 W10 1_555 1_555
O52 W12 1_555 1_555
O53 W14 1_555 1_555
O54 P2 1_555 1_555
O55 W10 1_555 1_555
O56 W10 1_555 1_555
O57 W12 1_555 1_555
O58 W11 1_555 1_555
O59 W15 1_555 1_555
O60 P1 1_555 1_555
O61 P2 1_555 1_555
O62 W6 1_555 1_555
N1 Ag2 1_555 1_555
N2 Ag2 1_555 1_555
N3 Ag4 1_555 1_555
N4 Ag4 1_555 1_555
N5 Ag3 1_555 1_555
N6 Ag3 1_555 1_555
N7 Ag1 1_555 1_555
N8 Ag1 1_555 1_555
C1 C7 1_555 1_555
C2 C34 1_555 1_555
C3 N5 1_555 1_555
H1 C3 1_555 1_555
C4 C3 1_555 1_555
H2 C4 1_555 1_555
C5 H3 1_555 1_555
C6 N8 1_555 1_555
H4 C6 1_555 1_555
C7 C6 1_555 1_555
H5 C7 1_555 1_555
C8 N5 1_555 1_555
H6 C8 1_555 1_555
C9 N7 1_555 1_555
H7 C9 1_555 1_555
C10 H8 1_555 1_555
C11 N6 1_555 1_555
H9 C11 1_555 1_555
C12 C5 1_555 1_555
C13 C11 1_555 1_555
H10 C13 1_555 1_555
C14 N6 1_555 1_555
H11 C14 1_555 1_555
C15 H12 1_555 1_555
C16 N7 1_555 1_555
H13 C16 1_555 1_555
C17 C8 1_555 1_555
H14 C17 1_555 1_555
C18 N8 1_555 1_555
H15 C18 1_555 1_555
C19 N1 1_555 1_555
H16 C19 1_555 1_555
C20 N2 1_555 1_555
H17 C20 1_555 1_555
C21 N1 1_555 1_555
H18 C21 1_555 1_555
C22 C4 1_555 1_555
C23 C21 1_555 1_555
H19 C23 1_555 1_555
C24 C19 1_555 1_555
H20 C24 1_555 1_555
C25 C1 1_555 1_555
H21 C25 1_555 1_555
C26 C9 1_555 1_555
H22 C26 1_555 1_555
C27 N2 1_555 1_555
H23 C27 1_555 1_555
C28 C20 1_555 1_555
H24 C28 1_555 1_555
C29 C23 1_555 1_555
C30 C10 1_555 1_555
C31 C15 1_555 1_555
C32 N3 1_555 1_555
H25 C32 1_555 1_555
C33 N4 1_555 1_555
H26 C33 1_555 1_555
C34 C32 1_555 1_555
H27 C34 1_555 1_555
C35 C33 1_555 1_555
H28 C35 1_555 1_555
C36 N3 1_555 1_555
H29 C36 1_555 1_555
C37 H30 1_555 1_555
C38 N4 1_555 1_555
H31 C38 1_555 1_555
C39 C2 1_555 1_555
H32 C39 1_555 1_555
C40 C2 1_555 1_555
N9 C42 1_555 1_555
N10 C41 1_555 1_555
C41 H33 1_555 1_555
C42 H34 1_555 1_555
C43 N10 1_555 1_555
H35 C43 1_555 1_555
C44 C41 1_555 1_555
H36 C44 1_555 1_555
C45 H37 1_555 1_555
C46 N9 1_555 1_555
H38 C46 1_555 1_555
C47 C45 1_555 1_555
C48 C44 1_555 1_555
C49 C43 1_555 1_555
H39 C49 1_555 1_555
C50 C42 1_555 1_555
H40 C50 1_555 1_555
N11 C53 1_555 1_555
N12 C51 1_555 1_555
C51 H41 1_555 1_555
C52 C51 1_555 1_555
H42 C52 1_555 1_555
C53 H43 1_555 1_555
C54 C53 1_555 1_555
H44 C54 1_555 1_555
C55 H45 1_555 1_555
C56 N11 1_555 1_555
H46 C56 1_555 1_555
C57 N12 1_555 1_555
H47 C57 1_555 1_555
C58 C54 1_555 1_555
C59 C52 1_555 1_555
C60 C57 1_555 1_555
H48 C60 1_555 1_555
P1A O9A 1_555 1_555
P2A O45A 1_555 1_555
W1A O1A 1_555 1_555
W2A O2A 1_555 1_555
W3A O4A 1_555 1_555
W4A O7A 1_555 1_555
W5A O10A 1_555 1_555
W6A O11A 1_555 1_555
W7A O13A 1_555 1_555
W8A O12A 1_555 1_555
W9A O8A 1_555 1_555
W10A O29A 1_555 1_555
W11A O27A 1_555 1_555
W12A O28A 1_555 1_555
W13A O30A 1_555 1_555
W14A O35A 1_555 1_555
W15A O31A 1_555 1_555
W16A O32A 1_555 1_555
W17A O36A 1_555 1_555
W18A O38A 1_555 1_555
Ag1A O17A 1_555 1_555
Ag1B O41A 1_555 1_555
Ag1C O41 1_555 1_555
Ag1G N7G 1_555 1_555
Ag1G_2 N8G 1_555 1_555
Ag2B O17A 1_555 1_555
Ag2A O6A 1_555 1_555
Ag2C O17 1_555 1_555
Ag2D N1D 1_555 1_555
Ag2D_2 N2D 1_555 1_555
Ag3A O53A 1_555 1_555
Ag3F N5F 1_555 1_555
Ag3F_2 N6F 1_555 1_555
Ag4A O14 1_555 1_555
Ag4F N4F 1_555 1_555
Ag4F_2 N3F 1_555 1_555
O2A W1A 1_555 1_555
O3A W2A 1_555 1_555
O4A W2A 1_555 1_555
O5A W1A 1_555 1_555
O6A W3A 1_555 1_555
O7A W3A 1_555 1_555
O8A W3A 1_555 1_555
O9A W1A 1_555 1_555
O10A W1A 1_555 1_555
O11A W1A 1_555 1_555
O12A W2A 1_555 1_555
O13A W2A 1_555 1_555
O14A Ag4 1_555 1_555
O15A W8A 1_555 1_555
O16A W9A 1_555 1_555
O17C Ag2 1_555 1_555
O17A W4A 1_555 1_555
O17B Ag2A 1_555 1_555
O18A W5A 1_555 1_555
O19A W4A 1_555 1_555
O20A W4A 1_555 1_555
O21A W8A 1_555 1_555
O22A P1A 1_555 1_555
O23A P1A 1_555 1_555
O24A W7A 1_555 1_555
O25A W6A 1_555 1_555
O26A W5A 1_555 1_555
O27A W9A 1_555 1_555
O28A W8A 1_555 1_555
O29A W4A 1_555 1_555
O30A W7A 1_555 1_555
O31A W5A 1_555 1_555
O32A W6A 1_555 1_555
O33A W13A 1_555 1_555
O34A W12A 1_555 1_555
O35A W13A 1_555 1_555
O36A W15A 1_555 1_555
O37A W11A 1_555 1_555
O38A W11A 1_555 1_555
O39A W18A 1_555 1_555
O40A W17A 1_555 1_555
O41C Ag1 1_555 1_555
O41A W10A 1_555 1_555
O41B Ag1A 1_555 1_555
O42A W14A 1_555 1_555
O43A W16A 1_555 1_555
O44A W13A 1_555 1_555
O45A W13A 1_555 1_555
O46A P2A 1_555 1_555
O47A W14A 1_555 1_555
O48A W17A 1_555 1_555
O49A W16A 1_555 1_555
O50A W15A 1_555 1_555
O51A W10A 1_555 1_555
O52A W12A 1_555 1_555
O53A W14A 1_555 1_555
O54A P2A 1_555 1_555
O55A W10A 1_555 1_555
O56A W10A 1_555 1_555
O57A W12A 1_555 1_555
O58A W11A 1_555 1_555
O59A W15A 1_555 1_555
O60A P1A 1_555 1_555
O61A P2A 1_555 1_555
O62A W6A 1_555 1_555
N1A Ag2A 1_555 1_555
N1D C19D 1_555 1_555
N2A Ag2A 1_555 1_555
N2D C20D 1_555 1_555
N3A Ag4A 1_555 1_555
N3F C32F 1_555 1_555
N4A Ag4A 1_555 1_555
N4F C33F 1_555 1_555
N5F C3F 1_555 1_555
N5A Ag3A 1_555 1_555
N6F C11F 1_555 1_555
N6A Ag3A 1_555 1_555
N7A Ag1A 1_555 1_555
N7G C9G 1_555 1_555
N8A Ag1A 1_555 1_555
N8G C6G 1_555 1_555
C1G C31 1_555 1_555
C2F C34F 1_555 1_555
C3F H1F 1_555 1_555
C4F C3F 1_555 1_555
H2F C4F 1_555 1_555
C5F H3F 1_555 1_555
C6G H4G 1_555 1_555
C7G C1G 1_555 1_555
H5G C7G 1_555 1_555
C8F N5F 1_555 1_555
H6F C8F 1_555 1_555
C9G H7G 1_555 1_555
C10D H8D 1_555 1_555
C11F H9F 1_555 1_555
C12F C22 1_555 1_555
C13F C11F 1_555 1_555
H10F C13F 1_555 1_555
C14F N6F 1_555 1_555
H11F C14F 1_555 1_555
C15G H12G 1_555 1_555
C16G N7G 1_555 1_555
H13G C16G 1_555 1_555
C17F C8F 1_555 1_555
H14F C17F 1_555 1_555
C18G N8G 1_555 1_555
H15G C18G 1_555 1_555
C19D H16D 1_555 1_555
C20D H17D 1_555 1_555
C21D N1D 1_555 1_555
H18D C21D 1_555 1_555
C22F C12 1_555 1_555
C23D C21D 1_555 1_555
H19D C23D 1_555 1_555
C24D C19D 1_555 1_555
H20D C24D 1_555 1_555
C25G C1G 1_555 1_555
H21G C25G 1_555 1_555
C26G C9G 1_555 1_555
H22G C26G 1_555 1_555
C27D N2D 1_555 1_555
H23D C27D 1_555 1_555
C28D C20D 1_555 1_555
H24D C28D 1_555 1_555
C29D C29 1_555 1_555
C30D C30 1_555 1_555
C31G C1 1_555 1_555
C32F H25F 1_555 1_555
C33F H26F 1_555 1_555
C34F C32F 1_555 1_555
H27F C34F 1_555 1_555
C35F C40 1_555 1_555
H28F C35F 1_555 1_555
C36F N3F 1_555 1_555
H29F C36F 1_555 1_555
C37F C40 1_555 1_555
H30F C37F 1_555 1_555
C38F N4F 1_555 1_555
H31F C38F 1_555 1_555
C39F C2F 1_555 1_555
H32F C39F 1_555 1_555
C40F C35 1_555 1_555
W2 O9 1_555 1_555
W3 O5 1_555 1_555
W3 O9 1_555 1_555
W4 O22 1_555 1_555
W5 O19 1_555 1_555
W5 O22 1_555 1_555
W6 O23 1_555 1_555
W6 O26 1_555 1_555
W7 O23 1_555 1_555
W7 O25 1_555 1_555
W8 O24 1_555 1_555
W8 O60 1_555 1_555
W9 O20 1_555 1_555
W9 O21 1_555 1_555
W9 O60 1_555 1_555
W10 O61 1_555 1_555
W11 O46 1_555 1_555
W11 O55 1_555 1_555
W12 O46 1_555 1_555
W12 O58 1_555 1_555
W13 O34 1_555 1_555
W14 O52 1_555 1_555
W14 O54 1_555 1_555
W15 O51 1_555 1_555
W15 O61 1_555 1_555
W16 O44 1_555 1_555
W16 O45 1_555 1_555
W16 O50 1_555 1_555
W17 O42 1_555 1_555
W17 O49 1_555 1_555
W17 O54 1_555 1_555
W18 O47 1_555 1_555
W18 O48 1_555 1_555
W18 O54 1_555 1_555
W18 O56 1_555 1_555
Ag2 O41C 1_555 1_555
O41 Ag2C 1_555 1_555
C5 C14 1_555 1_555
C10 C27 1_555 1_555
C12 C13 1_555 1_555
C15 C16 1_555 1_555
C17 C22 1_555 1_555
C18 C25 1_555 1_555
C24 C29 1_555 1_555
C26 C31 1_555 1_555
C28 C30 1_555 1_555
C36 C39 1_555 1_555
C37 C38 1_555 1_555
C37 C40F 1_555 1_555
C45 C46 1_555 1_555
C47 C48 1_555 1_555
C47 C50 1_555 1_555
C48 C49 1_555 1_555
C55 C56 1_555 1_555
C55 C58 1_555 1_555
C58 C59 1_555 1_555
C59 C60 1_555 1_555
W2A O9A 1_555 1_555
W3A O5A 1_555 1_555
W3A O9A 1_555 1_555
W4A O22A 1_555 1_555
W5A O19A 1_555 1_555
W5A O22A 1_555 1_555
W6A O23A 1_555 1_555
W6A O26A 1_555 1_555
W7A O14A 1_555 1_555
W7A O23A 1_555 1_555
W7A O25A 1_555 1_555
W8A O24A 1_555 1_555
W8A O60A 1_555 1_555
W9A O20A 1_555 1_555
W9A O21A 1_555 1_555
W9A O60A 1_555 1_555
W10A O61A 1_555 1_555
W11A O46A 1_555 1_555
W11A O55A 1_555 1_555
W12A O46A 1_555 1_555
W12A O58A 1_555 1_555
W13A O34A 1_555 1_555
W14A O52A 1_555 1_555
W14A O54A 1_555 1_555
W15A O51A 1_555 1_555
W15A O61A 1_555 1_555
W16A O44A 1_555 1_555
W16A O45A 1_555 1_555
W16A O50A 1_555 1_555
W17A O42A 1_555 1_555
W17A O49A 1_555 1_555
W17A O54A 1_555 1_555
W18A O47A 1_555 1_555
W18A O48A 1_555 1_555
W18A O54A 1_555 1_555
W18A O56A 1_555 1_555
Ag2B O41A 1_555 1_555
Ag2A O41B 1_555 1_555
Ag4A O14A 1_555 1_555
C2F C40F 1_555 1_555
C4F C22F 1_555 1_555
C5F C12F 1_555 1_555
C5F C14F 1_555 1_555
C6G C7G 1_555 1_555
C10D C27D 1_555 1_555
C10D C30D 1_555 1_555
C12F C13F 1_555 1_555
C15G C16G 1_555 1_555
C15G C31G 1_555 1_555
C17F C22F 1_555 1_555
C18G C25G 1_555 1_555
C23D C29D 1_555 1_555
C24D C29D 1_555 1_555
C26G C31G 1_555 1_555
C28D C30D 1_555 1_555
C33F C35F 1_555 1_555
C36F C39F 1_555 1_555
C37F C38F 1_555 1_555

#END
