
#######################################################################
#
#                 Cambridge Crystallographic Data Centre
#                                CCDC 
#
#######################################################################
#
# If this CIF has been generated from an entry in the Cambridge 
# Structural Database, then it will include bibliographic, chemical, 
# crystal, experimental, refinement or atomic coordinate data resulting 
# from the CCDC's data processing and validation procedures.
#
#######################################################################

data_GOBXAX
_symmetry_cell_setting           triclinic
_symmetry_space_group_name_H-M   'P -1'
_symmetry_Int_Tables_number      2
_space_group_name_Hall           '-P 1'
loop_
_symmetry_equiv_pos_site_id
_symmetry_equiv_pos_as_xyz
1 x,y,z
2 -x,-y,-z
_cell_length_a                   7.767(1)
_cell_length_b                   10.281(2)
_cell_length_c                   13.451(2)
_cell_angle_alpha                100.18(1)
_cell_angle_beta                 103.52(1)
_cell_angle_gamma                103.82(1)
_cell_volume                     982.846
loop_
_atom_site_label
_atom_site_type_symbol
_atom_site_fract_x
_atom_site_fract_y
_atom_site_fract_z
Mn1 Mn 0.21733(6) 0.99845(5) 0.80428(4)
Mn2 Mn -0.18977(6) 1.49167(5) 0.70035(4)
O1 O 0.3474(3) 0.8340(2) 0.79261(17)
H1 H 0.4099 0.8242 0.7492
H2 H 0.3902 0.7980 0.8428
O2 O 0.0002(3) 0.9059(2) 0.86155(19)
H3 H -0.0891 0.9336 0.8765
H4 H -0.0141 0.8237 0.8713
O3 O -0.2364(3) 1.6792(2) 0.64799(18)
H5 H -0.1473 1.7508 0.6528
H6 H -0.3296 1.7087 0.6558
O4 O -0.4394(3) 1.5015(2) 0.75428(17)
H7 H -0.4397 1.5689 0.8027
H8 H -0.5417 1.4782 0.7050
O5 O 0.0638(3) 1.5762(2) 0.65841(18)
H9 H 0.1224 1.5261 0.6305
H10 H 0.1125 1.6573 0.6767
N1 N 0.1498(3) 1.2091(2) 0.83439(18)
C1 C 0.0319(4) 1.2593(3) 0.7746(2)
H15 H -0.0408 1.2021 0.7092
N2 N 0.0089(3) 1.3838(2) 0.79997(18)
C2 C 0.1156(4) 1.4665(3) 0.8930(2)
C3 C 0.2435(4) 1.4243(3) 0.9599(2)
H16 H 0.3185 1.4826 1.0245
C4 C 0.2560(4) 1.2941(3) 0.9278(2)
C5 C 0.0831(4) 1.6060(3) 0.9245(2)
C6 C 0.3870(4) 1.2332(3) 0.9963(2)
N3 N 0.6077(3) 1.2570(2) 0.66093(18)
C7 C 0.5340(4) 1.1975(3) 0.7267(2)
H17 H 0.5950 1.2322 0.7984
N4 N 0.3792(3) 1.0917(2) 0.69912(18)
C8 C 0.2960(4) 1.0391(3) 0.5956(2)
C9 C 0.3653(4) 1.0914(3) 0.5217(2)
H18 H 0.3088 1.0528 0.4500
C10 C 0.5224(4) 1.2038(3) 0.5576(2)
C11 C 0.1197(4) 0.9198(3) 0.5673(2)
C12 C 0.6045(4) 1.2797(3) 0.4852(2)
O8 O 0.1764(3) 1.6812(2) 1.01211(16)
O9 O -0.0420(3) 1.6318(2) 0.85746(16)
O10 O 0.4009(3) 1.1191(2) 0.95337(15)
O11 O 0.4687(3) 1.3004(2) 1.08792(16)
O12 O 0.0540(3) 0.8983(2) 0.64324(15)
O13 O 0.0543(3) 0.8535(2) 0.47440(15)
O14 O 0.7156(3) 1.3978(2) 0.52927(16)
O15 O 0.5527(3) 1.2210(2) 0.39009(16)
Mn2_2 Mn 0.81023(6) 1.49167(5) 0.70035(4)
N3_2 N -0.3923(3) 1.2570(2) 0.66093(18)
O14_2 O -0.2844(3) 1.3978(2) 0.52927(16)
O6 O -0.2376(3) 0.6100(2) 0.41226(17)
H11 H -0.1360 0.6779 0.4316
H12 H -0.2519 0.5880 0.4701
O7 O -0.2436(3) 1.0441(2) 0.88888(19)
H13 H -0.2091 1.1256 0.9303
H14 H -0.3340 0.9966 0.9080
loop_
_geom_bond_atom_site_label_1
_geom_bond_atom_site_label_2
_geom_bond_site_symmetry_1
_geom_bond_site_symmetry_2
Mn1 O1 1_555 1_555
Mn2 O3 1_555 1_555
O1 H1 1_555 1_555
H2 O1 1_555 1_555
O2 Mn1 1_555 1_555
H3 O2 1_555 1_555
H4 O2 1_555 1_555
O3 H5 1_555 1_555
H6 O3 1_555 1_555
O4 Mn2 1_555 1_555
H7 O4 1_555 1_555
H8 O4 1_555 1_555
O5 Mn2 1_555 1_555
H9 O5 1_555 1_555
H10 O5 1_555 1_555
O6 H11 1_555 1_555
H12 O6 1_555 1_555
O7 H13 1_555 1_555
H14 O7 1_555 1_555
N1 Mn1 1_555 1_555
C1 N1 1_555 1_555
H15 C1 1_555 1_555
N2 Mn2 1_555 1_555
C2 N2 1_555 1_555
C3 C2 1_555 1_555
H16 C3 1_555 1_555
C4 N1 1_555 1_555
C5 C2 1_555 1_555
C6 C4 1_555 1_555
N3 C7 1_555 1_555
C7 H17 1_555 1_555
N4 Mn1 1_555 1_555
C8 N4 1_555 1_555
C9 C8 1_555 1_555
H18 C9 1_555 1_555
C10 N3 1_555 1_555
C11 C8 1_555 1_555
C12 C10 1_555 1_555
O8 C5 1_555 1_555
O9 Mn2 1_555 1_555
O10 Mn1 1_555 1_555
O11 C6 1_555 1_555
O12 Mn1 1_555 1_555
O13 C11 1_555 1_555
O14 C12 1_555 1_555
O15 C12 1_555 1_555
Mn2_2 N3 1_555 1_555
N3_2 Mn2 1_555 1_555
O14_2 Mn2 1_555 1_555
C1 N2 1_555 1_555
C3 C4 1_555 1_555
C5 O9 1_555 1_555
C6 O10 1_555 1_555
C7 N4 1_555 1_555
C9 C10 1_555 1_555
C11 O12 1_555 1_555
O14 Mn2_2 1_555 1_555

#END
