
#######################################################################
#
#                 Cambridge Crystallographic Data Centre
#                                CCDC 
#
#######################################################################
#
# If this CIF has been generated from an entry in the Cambridge 
# Structural Database, then it will include bibliographic, chemical, 
# crystal, experimental, refinement or atomic coordinate data resulting 
# from the CCDC's data processing and validation procedures.
#
#######################################################################

data_GOBYED
_symmetry_cell_setting           monoclinic
_symmetry_space_group_name_H-M   'P 21/n'
_symmetry_Int_Tables_number      14
_space_group_name_Hall           '-P 2yn'
loop_
_symmetry_equiv_pos_site_id
_symmetry_equiv_pos_as_xyz
1 x,y,z
2 1/2-x,1/2+y,1/2-z
3 -x,-y,-z
4 1/2+x,1/2-y,1/2+z
_cell_length_a                   12.6425(11)
_cell_length_b                   19.4703(17)
_cell_length_c                   14.1478(12)
_cell_angle_alpha                90
_cell_angle_beta                 113.601(2)
_cell_angle_gamma                90
_cell_volume                     3191.23
loop_
_atom_site_label
_atom_site_type_symbol
_atom_site_fract_x
_atom_site_fract_y
_atom_site_fract_z
V1 V 0.17311(4) 0.47017(2) 0.18648(4)
V2 V 0.20830(4) 0.45438(2) -0.04086(4)
Cu1 Cu 0.43810(3) 0.39125(2) 0.38134(3)
Cu2 Cu 0.38549(3) 0.57428(2) 0.35276(3)
P1 P 0.38884(6) 0.48636(4) 0.54013(5)
P2 P -0.07634(6) 0.42598(4) 0.19349(6)
O1 O 0.26884(17) 0.41608(10) 0.26167(15)
O2 O 0.22408(18) 0.54721(11) 0.21999(15)
O3 O 0.03325(18) 0.46343(12) 0.19793(16)
O4 O -0.07303(19) 0.35009(11) 0.18475(15)
O5 O -0.18158(17) 0.45908(10) 0.10422(15)
O6 O 0.14904(18) 0.45346(11) 0.05578(15)
O7 O 0.15220(19) 0.39109(11) -0.12170(16)
O8 O 0.34731(18) 0.44443(11) 0.01433(16)
O9 O 0.33510(17) 0.53992(10) 0.45680(15)
O10 O 0.40930(16) 0.41575(10) 0.50377(14)
O11 O 0.50716(16) 0.51174(10) 0.62394(14)
N1 N 0.5229(2) 0.35275(12) 0.29909(17)
N2 N 0.5415(2) 0.24164(12) 0.37103(19)
H1 H 0.575(3) 0.2030(11) 0.376(2)
N3 N 0.3873(2) 0.29649(12) 0.39470(17)
N4 N 0.4435(2) 0.61440(12) 0.25335(17)
N5 N 0.4734(2) 0.72340(13) 0.33154(19)
H2 H 0.502(3) 0.7630(11) 0.329(2)
N6 N 0.3252(2) 0.66683(12) 0.36407(18)
C1 C 0.5441(2) 0.39460(15) 0.2316(2)
H3 H 0.5079 0.4384 0.2176
C2 C 0.6144(3) 0.37754(16) 0.1826(2)
H4 H 0.6254 0.4082 0.1350
C3 C 0.6696(3) 0.31358(16) 0.2048(2)
H5 H 0.7224 0.3011 0.1752
C4 C 0.6471(3) 0.26920(16) 0.2693(2)
H6 H 0.6833 0.2255 0.2844
C5 C 0.5690(2) 0.28928(15) 0.3134(2)
C6 C 0.4443(2) 0.23889(15) 0.3948(2)
C7 C 0.4112(3) 0.17463(15) 0.4177(2)
H7 H 0.4545 0.1347 0.4180
C8 C 0.3151(3) 0.17028(16) 0.4395(2)
H8 H 0.2916 0.1273 0.4563
C9 C 0.2521(3) 0.22991(15) 0.4367(2)
H9 H 0.1840 0.2279 0.4497
C10 C 0.2907(2) 0.29127(15) 0.4148(2)
H10 H 0.2485 0.3318 0.4137
C11 C 0.4471(3) 0.57385(15) 0.1765(2)
H11 H 0.4073 0.5312 0.1635
C12 C 0.5055(3) 0.59161(16) 0.1169(2)
H12 H 0.5068 0.5618 0.0642
C13 C 0.5631(3) 0.65459(16) 0.1354(2)
H13 H 0.6078 0.6672 0.0978
C14 C 0.5546(3) 0.69826(16) 0.2084(2)
H14 H 0.5917 0.7418 0.2206
C15 C 0.4901(2) 0.67751(15) 0.2652(2)
C16 C 0.3774(2) 0.72511(15) 0.3568(2)
C17 C 0.3379(3) 0.78932(15) 0.3735(2)
H15 H 0.3790 0.8300 0.3724
C18 C 0.2387(3) 0.79263(16) 0.3914(2)
H16 H 0.2096 0.8358 0.4014
C19 C 0.1814(3) 0.73221(16) 0.3948(2)
H17 H 0.1122 0.7334 0.4061
C20 C 0.2271(3) 0.67098(16) 0.3814(2)
H18 H 0.1885 0.6297 0.3844
C21 C 0.2938(2) 0.47612(15) 0.6059(2)
H19 H 0.3370 0.4533 0.6729
H20 H 0.2711 0.5223 0.6206
C22 C 0.1850(2) 0.43507(15) 0.5476(2)
C23 C 0.1689(3) 0.37179(17) 0.5851(2)
H21 H 0.2270 0.3536 0.6460
C24 C 0.1000(2) 0.46083(16) 0.4579(2)
H22 H 0.1113 0.5038 0.4315
C25 C 0.0672(3) 0.33485(17) 0.5331(2)
H23 H 0.0564 0.2916 0.5589
C26 C -0.0174(3) 0.36099(16) 0.4447(2)
H24 H -0.0864 0.3357 0.4099
C27 C -0.0024(3) 0.42430(16) 0.4058(2)
C28 C -0.0934(3) 0.45240(16) 0.3082(2)
H25 H -0.0915 0.5032 0.3118
H26 H -0.1701 0.4373 0.3035
V2B V -0.20830(4) 0.54562(2) 0.04086(4)
Cu1B Cu 0.56190(3) 0.60875(2) 0.61866(3)
Cu2B Cu 0.61451(3) 0.42572(2) 0.64724(3)
O5B O 0.18158(17) 0.54092(10) -0.10422(15)
O10B O 0.59070(16) 0.58425(10) 0.49623(14)
O11B O 0.49284(16) 0.48826(10) 0.37606(14)
loop_
_geom_bond_atom_site_label_1
_geom_bond_atom_site_label_2
_geom_bond_site_symmetry_1
_geom_bond_site_symmetry_2
V1 O1 1_555 1_555
V2 O6 1_555 1_555
Cu1 O1 1_555 1_555
Cu2 O2 1_555 1_555
P1 O9 1_555 1_555
P2 O3 1_555 1_555
O2 V1 1_555 1_555
O3 V1 1_555 1_555
O4 P2 1_555 1_555
O5 P2 1_555 1_555
O6 V1 1_555 1_555
O7 V2 1_555 1_555
O8 V2 1_555 1_555
O9 Cu2 1_555 1_555
O10 Cu1 1_555 1_555
O11 P1 1_555 1_555
N1 Cu1 1_555 1_555
N2 H1 1_555 1_555
N3 Cu1 1_555 1_555
N4 Cu2 1_555 1_555
N5 H2 1_555 1_555
N6 Cu2 1_555 1_555
C1 N1 1_555 1_555
H3 C1 1_555 1_555
C2 C1 1_555 1_555
H4 C2 1_555 1_555
C3 C2 1_555 1_555
H5 C3 1_555 1_555
C4 C3 1_555 1_555
H6 C4 1_555 1_555
C5 N1 1_555 1_555
C6 N2 1_555 1_555
C7 C6 1_555 1_555
H7 C7 1_555 1_555
C8 C7 1_555 1_555
H8 C8 1_555 1_555
C9 C8 1_555 1_555
H9 C9 1_555 1_555
C10 N3 1_555 1_555
H10 C10 1_555 1_555
C11 N4 1_555 1_555
H11 C11 1_555 1_555
C12 C11 1_555 1_555
H12 C12 1_555 1_555
C13 C12 1_555 1_555
H13 C13 1_555 1_555
C14 C13 1_555 1_555
H14 C14 1_555 1_555
C15 N4 1_555 1_555
C16 N5 1_555 1_555
C17 C16 1_555 1_555
H15 C17 1_555 1_555
C18 C17 1_555 1_555
H16 C18 1_555 1_555
C19 C18 1_555 1_555
H17 C19 1_555 1_555
C20 N6 1_555 1_555
H18 C20 1_555 1_555
C21 P1 1_555 1_555
H19 C21 1_555 1_555
H20 C21 1_555 1_555
C22 C21 1_555 1_555
C23 C22 1_555 1_555
H21 C23 1_555 1_555
C24 C22 1_555 1_555
H22 C24 1_555 1_555
C25 C23 1_555 1_555
H23 C25 1_555 1_555
C26 C25 1_555 1_555
H24 C26 1_555 1_555
C27 C24 1_555 1_555
C28 P2 1_555 1_555
H25 C28 1_555 1_555
H26 C28 1_555 1_555
V2B O5 1_555 1_555
Cu1B O11 1_555 1_555
Cu2B O10 1_555 1_555
O5B V2 1_555 1_555
O10B Cu2 1_555 1_555
O11B Cu1 1_555 1_555
Cu2 O11B 1_555 1_555
P1 O10 1_555 1_555
O11 Cu2B 1_555 1_555
N2 C5 1_555 1_555
N3 C6 1_555 1_555
N5 C15 1_555 1_555
N6 C16 1_555 1_555
C4 C5 1_555 1_555
C9 C10 1_555 1_555
C14 C15 1_555 1_555
C19 C20 1_555 1_555
C26 C27 1_555 1_555
C27 C28 1_555 1_555
Cu1B O10B 1_555 1_555

#END
