
#######################################################################
#
#                 Cambridge Crystallographic Data Centre
#                                CCDC 
#
#######################################################################
#
# If this CIF has been generated from an entry in the Cambridge 
# Structural Database, then it will include bibliographic, chemical, 
# crystal, experimental, refinement or atomic coordinate data resulting 
# from the CCDC's data processing and validation procedures.
#
#######################################################################

data_GOBZIH
_symmetry_cell_setting           monoclinic
_symmetry_space_group_name_H-M   'C 2/c'
_symmetry_Int_Tables_number      15
_space_group_name_Hall           '-C 2yn'
loop_
_symmetry_equiv_pos_site_id
_symmetry_equiv_pos_as_xyz
1 x,y,z
2 1/2+x,1/2+y,z
3 -x,y,1/2-z
4 1/2-x,1/2+y,1/2-z
5 -x,-y,-z
6 1/2-x,1/2-y,-z
7 x,-y,1/2+z
8 1/2+x,1/2-y,1/2+z
_cell_length_a                   19.295(3)
_cell_length_b                   6.8100(9)
_cell_length_c                   16.377(2)
_cell_angle_alpha                90
_cell_angle_beta                 94.369(4)
_cell_angle_gamma                90
_cell_volume                     2145.67
loop_
_atom_site_label
_atom_site_type_symbol
_atom_site_fract_x
_atom_site_fract_y
_atom_site_fract_z
Pr1 Pr 0.663788(12) 0.93058(4) 0.536758(14)
S1 S 0.71541(6) 1.42902(15) 0.61478(7)
C1 C 0.8481(3) 0.9064(7) 0.5917(3)
C2 C 0.8680(3) 1.0542(7) 0.6572(3)
H1 H 0.8405 1.0311 0.7034
H2 H 0.8569 1.1846 0.6363
C3 C 0.9620(2) 1.2268(7) 0.7360(3)
H3 H 0.9512 1.3432 0.7033
H4 H 0.9347 1.2308 0.7833
C4 C 0.9614(3) 0.8689(8) 0.7352(4)
H5 H 0.9336 0.8638 0.7820
H6 H 0.9509 0.7531 0.7020
C5 C 0.4936(3) 0.9392(6) 0.5377(3)
N1 N 0.9432(2) 1.0476(5) 0.6863(2)
H7 H 0.9686 1.0476 0.6417
O1 O 0.78717(19) 0.8904(5) 0.5673(2)
O2 O 0.89529(19) 0.8045(6) 0.5637(2)
O3 O 0.5460(2) 0.8926(6) 0.5831(2)
O4 O 0.43230(19) 0.8968(5) 0.5483(2)
O5 O 0.67843(17) 1.2792(5) 0.56278(19)
O6 O 0.67430(18) 1.6117(5) 0.6089(2)
O7 O 0.72105(17) 1.3608(5) 0.70004(18)
O8 O 0.78445(18) 1.4618(5) 0.5877(2)
O9 O 0.67223(19) 0.9868(5) 0.68933(19)
H8 H 0.6908 0.9211 0.7374
H9 H 0.6976 1.1062 0.6966
Pr1B Pr 1.336212(12) 0.93058(4) 0.963242(14)
Pr1E Pr 0.836212(12) 0.56942(4) 0.463242(14)
Pr1D Pr 0.336212(12) 1.06942(4) 0.463242(14)
Pr1_2 Pr 0.663788(12) 1.93058(4) 0.536758(14)
Pr1E_2 Pr 0.836212(12) 1.56942(4) 0.463242(14)
Pr1G Pr 1.163788(12) 0.56942(4) 1.036758(14)
Pr1_3 Pr 0.663788(12) -0.06942(4) 0.536758(14)
S1_2 S 0.71541(6) 0.42902(15) 0.61478(7)
C1B C 1.1519(3) 0.9064(7) 0.9083(3)
C2B C 1.1320(3) 1.0542(7) 0.8428(3)
H1B H 1.1595 1.0311 0.7966
H2B H 1.1431 1.1846 0.8637
C3B C 1.0380(2) 1.2268(7) 0.7640(3)
H3B H 1.0488 1.3432 0.7967
H4B H 1.0653 1.2308 0.7167
C4B C 1.0386(3) 0.8689(8) 0.7648(4)
H5B H 1.0664 0.8638 0.7180
H6B H 1.0491 0.7531 0.7980
C5D C 0.5064(3) 1.0608(6) 0.4623(3)
N1B N 1.0568(2) 1.0476(5) 0.8137(2)
H7B H 1.0314 1.0476 0.8583
O1B O 1.21283(19) 0.8904(5) 0.9327(2)
O2B O 1.10471(19) 0.8045(6) 0.9363(2)
O2E O 0.60471(19) 0.6955(6) 0.4363(2)
O2G O 1.39529(19) 0.6955(6) 1.0637(2)
O3D O 0.4540(2) 1.1074(6) 0.4169(2)
O3B O 1.4540(2) 0.8926(6) 0.9169(2)
O4D O 0.56770(19) 1.1032(5) 0.4517(2)
O4F O 1.43230(19) 1.1032(5) 1.0483(2)
O5_2 O 0.67843(17) 0.2792(5) 0.56278(19)
O5B O 1.32157(17) 1.2792(5) 0.93722(19)
O6_2 O 0.67430(18) 0.6117(5) 0.6089(2)
O6B O 1.32570(18) 0.6117(5) 0.8911(2)
O7_2 O 0.72105(17) 0.3608(5) 0.70004(18)
O8_2 O 0.78445(18) 0.4618(5) 0.5877(2)
O8E O 0.71555(18) 1.0382(5) 0.4123(2)
O8G O 1.28445(18) 1.0382(5) 1.0877(2)
O9B O 1.32777(19) 0.9868(5) 0.81067(19)
H8B H 1.3092 0.9211 0.7626
H9B H 1.3024 1.1062 0.8034
O10 O 0.4633(3) 0.5480(7) 0.4250(3)
H10 H 0.4883 0.4301 0.4376
H11 H 0.4343 0.5756 0.4678
loop_
_geom_bond_atom_site_label_1
_geom_bond_atom_site_label_2
_geom_bond_site_symmetry_1
_geom_bond_site_symmetry_2
Pr1 O1 1_555 1_555
S1 O5 1_555 1_555
C1 C2 1_555 1_555
C2 H1 1_555 1_555
H2 C2 1_555 1_555
C3 H3 1_555 1_555
H4 C3 1_555 1_555
C4 H5 1_555 1_555
H6 C4 1_555 1_555
C5 O3 1_555 1_555
N1 C2 1_555 1_555
H7 N1 1_555 1_555
O1 C1 1_555 1_555
O2 C1 1_555 1_555
O3 Pr1 1_555 1_555
O4 C5 1_555 1_555
O5 Pr1 1_555 1_555
O6 S1 1_555 1_555
O7 S1 1_555 1_555
O8 S1 1_555 1_555
O9 Pr1 1_555 1_555
H8 O9 1_555 1_555
H9 O9 1_555 1_555
O10 H10 1_555 1_555
H11 O10 1_555 1_555
Pr1B O1B 1_555 1_555
Pr1E O2 1_555 1_555
Pr1D O4 1_555 1_555
Pr1_2 O6 1_555 1_555
Pr1E_2 O8 1_555 1_555
Pr1G O2B 1_555 1_555
Pr1_3 O5_2 1_555 1_555
S1_2 O5_2 1_555 1_555
C1B C2B 1_555 1_555
C2B H1B 1_555 1_555
H2B C2B 1_555 1_555
C3B C3 1_555 1_555
H3B C3B 1_555 1_555
H4B C3B 1_555 1_555
C4B C4 1_555 1_555
H5B C4B 1_555 1_555
H6B C4B 1_555 1_555
C5D C5 1_555 1_555
N1B C2B 1_555 1_555
H7B N1B 1_555 1_555
O1B C1B 1_555 1_555
O2B C1B 1_555 1_555
O2E Pr1 1_555 1_555
O2G Pr1B 1_555 1_555
O3D Pr1D 1_555 1_555
O3B Pr1B 1_555 1_555
O4D Pr1 1_555 1_555
O4F Pr1B 1_555 1_555
O5B Pr1B 1_555 1_555
O6_2 Pr1 1_555 1_555
O6B Pr1B 1_555 1_555
O7_2 S1_2 1_555 1_555
O8_2 Pr1E 1_555 1_555
O8E Pr1 1_555 1_555
O8G Pr1B 1_555 1_555
O9B Pr1B 1_555 1_555
H8B O9B 1_555 1_555
H9B O9B 1_555 1_555
C3 N1 1_555 1_555
C4 N1 1_555 1_555
S1_2 O6_2 1_555 1_555
S1_2 O8_2 1_555 1_555
C3B N1B 1_555 1_555
C4B N1B 1_555 1_555
C5D O3D 1_555 1_555
C5D O4D 1_555 1_555

#END
