
#######################################################################
#
#                 Cambridge Crystallographic Data Centre
#                                CCDC 
#
#######################################################################
#
# If this CIF has been generated from an entry in the Cambridge 
# Structural Database, then it will include bibliographic, chemical, 
# crystal, experimental, refinement or atomic coordinate data resulting 
# from the CCDC's data processing and validation procedures.
#
#######################################################################

data_GOBZUT
_symmetry_cell_setting           monoclinic
_symmetry_space_group_name_H-M   'C 2/c'
_symmetry_Int_Tables_number      15
_space_group_name_Hall           '-C 2yn'
loop_
_symmetry_equiv_pos_site_id
_symmetry_equiv_pos_as_xyz
1 x,y,z
2 1/2+x,1/2+y,z
3 -x,y,1/2-z
4 1/2-x,1/2+y,1/2-z
5 -x,-y,-z
6 1/2-x,1/2-y,-z
7 x,-y,1/2+z
8 1/2+x,1/2-y,1/2+z
_cell_length_a                   19.143(3)
_cell_length_b                   6.7219(12)
_cell_length_c                   16.323(3)
_cell_angle_alpha                90
_cell_angle_beta                 94.581(4)
_cell_angle_gamma                90
_cell_volume                     2093.69
loop_
_atom_site_label
_atom_site_type_symbol
_atom_site_fract_x
_atom_site_fract_y
_atom_site_fract_z
Eu1 Eu 0.66286(3) 0.93402(8) 0.53700(3)
S1 S 0.71581(13) 1.4319(4) 0.61270(14)
C1 C 0.8459(6) 0.9036(16) 0.5911(6)
C2 C 0.8670(5) 1.0544(17) 0.6579(6)
H1 H 0.8397 1.0312 0.7046
H2 H 0.8561 1.1871 0.6373
C3 C 0.9614(5) 1.2241(17) 0.7363(6)
H3 H 0.9498 1.3429 0.7043
H4 H 0.9343 1.2253 0.7841
C4 C 0.9615(6) 0.8658(19) 0.7351(8)
H5 H 0.9335 0.8623 0.7821
H6 H 0.9509 0.7475 0.7025
C5 C 0.4937(5) 0.9359(17) 0.5357(6)
N1 N 0.9430(4) 1.0434(14) 0.6854(5)
H7 H 0.9683 1.0440 0.6405
O1 O 0.7826(3) 0.8960(11) 0.5685(4)
O2 O 0.8921(4) 0.8018(13) 0.5625(4)
O3 O 0.5471(4) 0.8867(11) 0.5816(4)
O4 O 0.4317(4) 0.8958(12) 0.5481(4)
O5 O 0.6782(3) 1.2765(11) 0.5614(4)
O6 O 0.6742(4) 1.6163(10) 0.6066(4)
O7 O 0.7224(3) 1.3641(10) 0.6972(4)
O8 O 0.7849(3) 1.4659(10) 0.5846(4)
O9 O 0.6705(3) 0.9893(10) 0.6870(4)
H8 H 0.6891 0.9236 0.7351
H9 H 0.6959 1.1087 0.6943
Eu1B Eu 1.33714(3) 0.93402(8) 0.96300(3)
Eu1E Eu 0.83714(3) 0.56598(8) 0.46300(3)
Eu1D Eu 0.33714(3) 1.06598(8) 0.46300(3)
Eu1_2 Eu 0.66286(3) 1.93402(8) 0.53700(3)
Eu1E_2 Eu 0.83714(3) 1.56598(8) 0.46300(3)
Eu1G Eu 1.16286(3) 0.56598(8) 1.03700(3)
Eu1_3 Eu 0.66286(3) -0.06598(8) 0.53700(3)
S1_2 S 0.71581(13) 0.4319(4) 0.61270(14)
C1B C 1.1541(6) 0.9036(16) 0.9089(6)
C2B C 1.1330(5) 1.0544(17) 0.8421(6)
H1B H 1.1603 1.0312 0.7954
H2B H 1.1439 1.1871 0.8627
C3B C 1.0386(5) 1.2241(17) 0.7637(6)
H3B H 1.0502 1.3429 0.7957
H4B H 1.0657 1.2253 0.7159
C4B C 1.0385(6) 0.8658(19) 0.7649(8)
H5B H 1.0665 0.8623 0.7179
H6B H 1.0491 0.7475 0.7975
C5D C 0.5063(5) 1.0641(17) 0.4643(6)
N1B N 1.0570(4) 1.0434(14) 0.8146(5)
H7B H 1.0317 1.0440 0.8595
O1B O 1.2174(3) 0.8960(11) 0.9315(4)
O2B O 1.1079(4) 0.8018(13) 0.9375(4)
O2E O 0.6079(4) 0.6982(13) 0.4375(4)
O2G O 1.3921(4) 0.6982(13) 1.0625(4)
O3D O 0.4529(4) 1.1133(11) 0.4184(4)
O3B O 1.4529(4) 0.8867(11) 0.9184(4)
O4D O 0.5683(4) 1.1042(12) 0.4519(4)
O4F O 1.4317(4) 1.1042(12) 1.0481(4)
O5_2 O 0.6782(3) 0.2765(11) 0.5614(4)
O5B O 1.3218(3) 1.2765(11) 0.9386(4)
O6_2 O 0.6742(4) 0.6163(10) 0.6066(4)
O6B O 1.3258(4) 0.6163(10) 0.8934(4)
O7_2 O 0.7224(3) 0.3641(10) 0.6972(4)
O8_2 O 0.7849(3) 0.4659(10) 0.5846(4)
O8E O 0.7151(3) 1.0341(10) 0.4154(4)
O8G O 1.2849(3) 1.0341(10) 1.0846(4)
O9B O 1.3295(3) 0.9893(10) 0.8130(4)
H8B H 1.3109 0.9236 0.7649
H9B H 1.3041 1.1087 0.8057
O10 O 0.4638(4) 0.5527(15) 0.4244(5)
H10 H 0.4888 0.4348 0.4371
H11 H 0.4348 0.5803 0.4672
loop_
_geom_bond_atom_site_label_1
_geom_bond_atom_site_label_2
_geom_bond_site_symmetry_1
_geom_bond_site_symmetry_2
Eu1 O1 1_555 1_555
S1 O5 1_555 1_555
C1 C2 1_555 1_555
C2 H1 1_555 1_555
H2 C2 1_555 1_555
C3 H3 1_555 1_555
H4 C3 1_555 1_555
C4 H5 1_555 1_555
H6 C4 1_555 1_555
C5 O3 1_555 1_555
N1 C2 1_555 1_555
H7 N1 1_555 1_555
O1 C1 1_555 1_555
O2 C1 1_555 1_555
O3 Eu1 1_555 1_555
O4 C5 1_555 1_555
O5 Eu1 1_555 1_555
O6 S1 1_555 1_555
O7 S1 1_555 1_555
O8 S1 1_555 1_555
O9 Eu1 1_555 1_555
H8 O9 1_555 1_555
H9 O9 1_555 1_555
O10 H10 1_555 1_555
H11 O10 1_555 1_555
Eu1B O1B 1_555 1_555
Eu1E O2 1_555 1_555
Eu1D O4 1_555 1_555
Eu1_2 O6 1_555 1_555
Eu1E_2 O8 1_555 1_555
Eu1G O2B 1_555 1_555
Eu1_3 O5_2 1_555 1_555
S1_2 O5_2 1_555 1_555
C1B C2B 1_555 1_555
C2B H1B 1_555 1_555
H2B C2B 1_555 1_555
C3B C3 1_555 1_555
H3B C3B 1_555 1_555
H4B C3B 1_555 1_555
C4B C4 1_555 1_555
H5B C4B 1_555 1_555
H6B C4B 1_555 1_555
C5D C5 1_555 1_555
N1B C2B 1_555 1_555
H7B N1B 1_555 1_555
O1B C1B 1_555 1_555
O2B C1B 1_555 1_555
O2E Eu1 1_555 1_555
O2G Eu1B 1_555 1_555
O3D Eu1D 1_555 1_555
O3B Eu1B 1_555 1_555
O4D Eu1 1_555 1_555
O4F Eu1B 1_555 1_555
O5B Eu1B 1_555 1_555
O6_2 Eu1 1_555 1_555
O6B Eu1B 1_555 1_555
O7_2 S1_2 1_555 1_555
O8_2 Eu1E 1_555 1_555
O8E Eu1 1_555 1_555
O8G Eu1B 1_555 1_555
O9B Eu1B 1_555 1_555
H8B O9B 1_555 1_555
H9B O9B 1_555 1_555
C3 N1 1_555 1_555
C4 N1 1_555 1_555
S1_2 O6_2 1_555 1_555
S1_2 O8_2 1_555 1_555
C3B N1B 1_555 1_555
C4B N1B 1_555 1_555
C5D O3D 1_555 1_555
C5D O4D 1_555 1_555

#END
