
#######################################################################
#
#                 Cambridge Crystallographic Data Centre
#                                CCDC 
#
#######################################################################
#
# If this CIF has been generated from an entry in the Cambridge 
# Structural Database, then it will include bibliographic, chemical, 
# crystal, experimental, refinement or atomic coordinate data resulting 
# from the CCDC's data processing and validation procedures.
#
#######################################################################

data_GOBZAA
_symmetry_cell_setting           monoclinic
_symmetry_space_group_name_H-M   'P 21/c'
_symmetry_Int_Tables_number      14
_space_group_name_Hall           '-P 2ybc'
loop_
_symmetry_equiv_pos_site_id
_symmetry_equiv_pos_as_xyz
1 x,y,z
2 -x,1/2+y,1/2-z
3 -x,-y,-z
4 x,1/2-y,1/2+z
_cell_length_a                   21.590(4)
_cell_length_b                   8.0789(15)
_cell_length_c                   19.649(4)
_cell_angle_alpha                90
_cell_angle_beta                 104.510(4)
_cell_angle_gamma                90
_cell_volume                     3317.93
loop_
_atom_site_label
_atom_site_type_symbol
_atom_site_fract_x
_atom_site_fract_y
_atom_site_fract_z
V1 V 0.51942(5) 0.52729(14) 0.75936(6)
V2 V 0.05272(5) 0.74804(14) 0.53577(6)
Cu1 Cu 0.44260(4) 0.75408(10) 0.59498(4)
Cu2 Cu -0.00464(4) 0.88566(10) 0.36872(4)
P1 P 0.38632(8) 0.7306(2) 0.72208(8)
P2 P 0.08035(8) 0.3723(2) 0.56408(9)
F1 F 0.49573(18) 0.5359(5) 0.65795(18)
F2 F 0.14081(19) 0.7826(5) 0.5653(2)
O1 O 0.4097(2) 0.8943(6) 0.7596(2)
O2 O 0.5547(2) 0.7001(6) 0.7832(2)
O3 O 0.4312(2) 0.5882(6) 0.7512(2)
O4 O 0.3724(2) 0.7434(6) 0.6419(2)
O5 O 0.4765(2) 0.9186(6) 0.6662(2)
O6 O 0.0715(2) 0.5467(6) 0.5930(2)
O7 O 0.0353(2) 0.3475(6) 0.4904(2)
O8 O 0.0494(2) 0.7806(6) 0.4515(2)
O9 O 0.0300(2) 0.9070(6) 0.5718(2)
O10 O 0.0756(2) 0.2443(6) 0.6191(2)
N1 N 0.5112(3) 0.8048(7) 0.5459(3)
N2 N 0.4662(3) 0.6491(7) 0.4428(3)
H1 H 0.472(3) 0.608(9) 0.404(2)
N3 N 0.3936(3) 0.6139(7) 0.5160(3)
N4 N 0.0724(3) 0.9795(7) 0.3474(3)
N5 N 0.0302(3) 0.9486(8) 0.2250(3)
H2 H 0.044(3) 0.952(10) 0.187(2)
N6 N -0.0569(3) 0.9689(7) 0.2775(3)
C1 C 0.5602(3) 0.9058(8) 0.5792(3)
H3 H 0.5593 0.9473 0.6242
C2 C 0.6100(3) 0.9514(8) 0.5530(3)
H4 H 0.6429 1.0210 0.5792
C3 C 0.6120(3) 0.8930(9) 0.4856(3)
H5 H 0.6459 0.9229 0.4651
C4 C 0.5631(3) 0.7914(8) 0.4510(3)
H6 H 0.5633 0.7493 0.4059
C5 C 0.5128(3) 0.7491(8) 0.4811(3)
C6 C 0.4104(3) 0.5864(8) 0.4544(3)
C7 C 0.3715(3) 0.4950(8) 0.3996(3)
H7 H 0.3834 0.4815 0.3565
C8 C 0.3164(3) 0.4255(9) 0.4084(4)
H8 H 0.2893 0.3643 0.3714
C9 C 0.3005(3) 0.4457(9) 0.4726(4)
H9 H 0.2631 0.3956 0.4806
C10 C 0.3395(3) 0.5384(9) 0.5232(4)
H10 H 0.3282 0.5512 0.5666
C11 C 0.1230(4) 1.0208(10) 0.4015(4)
H11 H 0.1169 1.0215 0.4478
C12 C 0.1819(4) 1.0612(10) 0.3929(4)
H12 H 0.2163 1.0874 0.4321
C13 C 0.1903(4) 1.0629(10) 0.3248(4)
H13 H 0.2308 1.0903 0.3171
C14 C 0.1400(3) 1.0250(10) 0.2690(4)
H14 H 0.1449 1.0259 0.2224
C15 C 0.0813(3) 0.9851(9) 0.2824(3)
C16 C -0.0343(4) 0.9726(8) 0.2189(3)
C17 C -0.0750(3) 1.0087(9) 0.1533(4)
H15 H -0.0595 1.0050 0.1122
C18 C -0.1373(4) 1.0493(9) 0.1488(4)
H16 H -0.1650 1.0765 0.1045
C19 C -0.1601(3) 1.0509(9) 0.2089(4)
H17 H -0.2029 1.0823 0.2068
C20 C -0.1185(3) 1.0053(9) 0.2719(3)
H18 H -0.1343 0.9995 0.3128
C21 C 0.3117(3) 0.6777(8) 0.7426(3)
H19 H 0.3183 0.6700 0.7943
H20 H 0.2797 0.7656 0.7251
C22 C 0.2866(3) 0.5124(8) 0.7088(3)
C23 C 0.2358(3) 0.5114(9) 0.6488(3)
H21 H 0.2162 0.6125 0.6303
C24 C 0.2138(3) 0.3620(9) 0.6159(3)
C25 C 0.2426(3) 0.2146(9) 0.6431(4)
H22 H 0.2280 0.1128 0.6205
C26 C 0.2933(3) 0.2153(9) 0.7038(4)
H23 H 0.3122 0.1139 0.7230
C27 C 0.3156(3) 0.3638(9) 0.7358(4)
H24 H 0.3508 0.3646 0.7761
C28 C 0.1594(3) 0.3625(10) 0.5494(4)
H25 H 0.1625 0.2610 0.5222
H26 H 0.1650 0.4585 0.5202
V1A V 0.48058(5) 1.02729(14) 0.74064(6)
V2B V -0.05272(5) 0.25196(14) 0.46423(6)
Cu2B Cu 0.00464(4) 0.11434(10) 0.63128(4)
Cu2B_2 Cu 0.00464(4) 1.11434(10) 0.63128(4)
O1A O 0.5903(2) 0.3943(6) 0.7404(2)
O5A O 0.5235(2) 0.4186(6) 0.8338(2)
O7B O -0.0353(2) 0.6525(6) 0.5096(2)
O9B O -0.0300(2) 1.0930(6) 0.4282(2)
O10B O -0.0756(2) 0.7557(6) 0.3809(2)
O11 O 0.2592(3) 0.8783(8) 0.5395(3)
H27 H 0.2217(19) 0.852(11) 0.542(5)
H28 H 0.286(3) 0.847(11) 0.576(3)
loop_
_geom_bond_atom_site_label_1
_geom_bond_atom_site_label_2
_geom_bond_site_symmetry_1
_geom_bond_site_symmetry_2
V1 F1 1_555 1_555
V2 F2 1_555 1_555
Cu1 F1 1_555 1_555
Cu2 O8 1_555 1_555
P1 O1 1_555 1_555
P2 O6 1_555 1_555
O1 V1A 1_555 1_555
O2 V1 1_555 1_555
O3 V1 1_555 1_555
O4 Cu1 1_555 1_555
O5 Cu1 1_555 1_555
O6 V2 1_555 1_555
O7 P2 1_555 1_555
O8 V2 1_555 1_555
O9 V2 1_555 1_555
O10 P2 1_555 1_555
N1 Cu1 1_555 1_555
N2 H1 1_555 1_555
N3 Cu1 1_555 1_555
N4 Cu2 1_555 1_555
N5 H2 1_555 1_555
N6 Cu2 1_555 1_555
C1 N1 1_555 1_555
H3 C1 1_555 1_555
C2 C1 1_555 1_555
H4 C2 1_555 1_555
C3 C2 1_555 1_555
H5 C3 1_555 1_555
C4 C3 1_555 1_555
H6 C4 1_555 1_555
C5 N1 1_555 1_555
C6 N2 1_555 1_555
C7 C6 1_555 1_555
H7 C7 1_555 1_555
C8 C7 1_555 1_555
H8 C8 1_555 1_555
C9 C8 1_555 1_555
H9 C9 1_555 1_555
C10 N3 1_555 1_555
H10 C10 1_555 1_555
C11 N4 1_555 1_555
H11 C11 1_555 1_555
C12 C11 1_555 1_555
H12 C12 1_555 1_555
C13 C12 1_555 1_555
H13 C13 1_555 1_555
C14 C13 1_555 1_555
H14 C14 1_555 1_555
C15 N4 1_555 1_555
C16 N5 1_555 1_555
C17 C16 1_555 1_555
H15 C17 1_555 1_555
C18 C17 1_555 1_555
H16 C18 1_555 1_555
C19 C18 1_555 1_555
H17 C19 1_555 1_555
C20 N6 1_555 1_555
H18 C20 1_555 1_555
C21 P1 1_555 1_555
H19 C21 1_555 1_555
H20 C21 1_555 1_555
C22 C21 1_555 1_555
C23 C22 1_555 1_555
H21 C23 1_555 1_555
C24 C23 1_555 1_555
C25 C24 1_555 1_555
H22 C25 1_555 1_555
C26 C25 1_555 1_555
H23 C26 1_555 1_555
C27 C22 1_555 1_555
H24 C27 1_555 1_555
C28 P2 1_555 1_555
H25 C28 1_555 1_555
H26 C28 1_555 1_555
O11 H27 1_555 1_555
H28 O11 1_555 1_555
V1A O5 1_555 1_555
V2B O7 1_555 1_555
Cu2B O10 1_555 1_555
Cu2B_2 O9 1_555 1_555
O1A V1 1_555 1_555
O5A V1 1_555 1_555
O7B V2 1_555 1_555
O9B Cu2 1_555 1_555
O10B Cu2 1_555 1_555
P1 O3 1_555 1_555
P1 O4 1_555 1_555
N2 C5 1_555 1_555
N3 C6 1_555 1_555
N5 C15 1_555 1_555
N6 C16 1_555 1_555
C4 C5 1_555 1_555
C9 C10 1_555 1_555
C14 C15 1_555 1_555
C19 C20 1_555 1_555
C24 C28 1_555 1_555
C26 C27 1_555 1_555

#END
