
#######################################################################
#
#                 Cambridge Crystallographic Data Centre
#                                CCDC 
#
#######################################################################
#
# If this CIF has been generated from an entry in the Cambridge 
# Structural Database, then it will include bibliographic, chemical, 
# crystal, experimental, refinement or atomic coordinate data resulting 
# from the CCDC's data processing and validation procedures.
#
#######################################################################

data_GOBZAZ
_symmetry_cell_setting           monoclinic
_symmetry_space_group_name_H-M   'C 2/c'
_symmetry_Int_Tables_number      15
_space_group_name_Hall           '-C 2yn'
loop_
_symmetry_equiv_pos_site_id
_symmetry_equiv_pos_as_xyz
1 x,y,z
2 1/2+x,1/2+y,z
3 -x,y,1/2-z
4 1/2-x,1/2+y,1/2-z
5 -x,-y,-z
6 1/2-x,1/2-y,-z
7 x,-y,1/2+z
8 1/2+x,1/2-y,1/2+z
_cell_length_a                   19.702(5)
_cell_length_b                   6.3477(15)
_cell_length_c                   17.352(4)
_cell_angle_alpha                90
_cell_angle_beta                 109.973(4)
_cell_angle_gamma                90
_cell_volume                     2039.56
loop_
_atom_site_label
_atom_site_type_symbol
_atom_site_fract_x
_atom_site_fract_y
_atom_site_fract_z
Nd1 Nd 0.340753(18) 0.52107(5) 0.250867(18)
S1 S 0.34391(9) 0.0228(2) 0.25784(9)
C1 C 0.3402(4) 0.6070(10) 0.4523(4)
C2 C 0.3747(4) 0.7880(10) 0.5116(4)
H1 H 0.3370 0.8834 0.5142
H2 H 0.3983 0.7310 0.5661
C3 C 0.4926(3) 0.7785(10) 0.4884(4)
H3 H 0.4765 0.6562 0.4534
H4 H 0.5167 0.7290 0.5440
C4 C 0.4545(4) 1.0988(11) 0.5393(4)
H5 H 0.4136 1.1877 0.5364
H6 H 0.4774 1.0550 0.5958
C5 C 0.4861(4) 0.4933(9) 0.2035(4)
N1 N 0.4286(3) 0.9081(8) 0.4858(3)
H7 H 0.4080 0.9546 0.4335
O1 O 0.3065(3) 0.4728(8) 0.4749(3)
O2 O 0.3508(3) 0.6138(7) 0.3851(3)
O3 O 0.4199(3) 0.5120(7) 0.1679(3)
O4 O 0.5321(3) 0.4742(7) 0.1688(3)
O5 O 0.3314(3) 0.1676(7) 0.1887(3)
O6 O 0.3609(3) 0.1513(7) 0.3331(3)
O7 O 0.2773(2) -0.1077(7) 0.2466(3)
O8 O 0.4010(3) -0.1280(7) 0.2638(3)
O9 O 0.2708(3) 0.6156(8) 0.1086(3)
H8 H 0.2838 0.5268 0.0702
H9 H 0.2294 0.7053 0.0981
Nd1D Nd 0.659247(18) 1.47893(5) 0.749133(18)
Nd1B Nd 0.659247(18) 0.52107(5) 0.249133(18)
Nd1_2 Nd 0.340753(18) -0.47893(5) 0.250867(18)
Nd1C Nd 0.159247(18) 0.02107(5) 0.249133(18)
Nd1_3 Nd 0.340753(18) 1.52107(5) 0.250867(18)
Nd1C_2 Nd 0.159247(18) 1.02107(5) 0.249133(18)
S1_2 S 0.34391(9) 1.0228(2) 0.25784(9)
C1D C 0.6598(4) 1.3930(10) 0.5477(4)
C2D C 0.6253(4) 1.2120(10) 0.4884(4)
H1D H 0.6630 1.1166 0.4858
H2D H 0.6017 1.2690 0.4339
C3D C 0.5074(3) 1.2215(10) 0.5116(4)
H3D H 0.5235 1.3438 0.5466
H4D H 0.4833 1.2710 0.4560
C4D C 0.5455(4) 0.9012(11) 0.4607(4)
H5D H 0.5864 0.8123 0.4636
H6D H 0.5226 0.9450 0.4042
C5B C 0.5139(4) 0.4933(9) 0.2965(4)
N1D N 0.5714(3) 1.0919(8) 0.5142(3)
H7D H 0.5920 1.0454 0.5665
O1D O 0.6935(3) 1.5272(8) 0.5251(3)
O2D O 0.6492(3) 1.3862(7) 0.6149(3)
O3B O 0.5801(3) 0.5120(7) 0.3321(3)
O3D O 0.5801(3) 1.4880(7) 0.8321(3)
O4B O 0.4679(3) 0.4742(7) 0.3312(3)
O4F O 0.5321(3) 1.5258(7) 0.6688(3)
O5_2 O 0.3314(3) 1.1676(7) 0.1887(3)
O5D O 0.6686(3) 1.8324(7) 0.8113(3)
O6_2 O 0.3609(3) 1.1513(7) 0.3331(3)
O6D O 0.6391(3) 1.8487(7) 0.6669(3)
O7_2 O 0.2773(2) 0.8923(7) 0.2466(3)
O7C O 0.2227(2) 0.3923(7) 0.2534(3)
O7G O 0.7773(2) 1.6077(7) 0.7466(3)
O7D O 0.7227(2) 1.1077(7) 0.7534(3)
O8_2 O 0.4010(3) 0.8720(7) 0.2638(3)
O8D O 0.5990(3) 1.1280(7) 0.7362(3)
O9D O 0.7292(3) 1.3844(8) 0.8914(3)
H8D H 0.7162 1.4732 0.9298
H9D H 0.7706 1.2947 0.9019
loop_
_geom_bond_atom_site_label_1
_geom_bond_atom_site_label_2
_geom_bond_site_symmetry_1
_geom_bond_site_symmetry_2
Nd1 O2 1_555 1_555
S1 O5 1_555 1_555
C1 C2 1_555 1_555
C2 H1 1_555 1_555
H2 C2 1_555 1_555
C3 H3 1_555 1_555
H4 C3 1_555 1_555
C4 H5 1_555 1_555
H6 C4 1_555 1_555
C5 O3 1_555 1_555
N1 C2 1_555 1_555
H7 N1 1_555 1_555
O1 C1 1_555 1_555
O2 C1 1_555 1_555
O3 Nd1 1_555 1_555
O4 C5 1_555 1_555
O5 Nd1 1_555 1_555
O6 Nd1 1_555 1_555
O7 S1 1_555 1_555
O8 S1 1_555 1_555
O9 Nd1 1_555 1_555
H8 O9 1_555 1_555
H9 O9 1_555 1_555
Nd1D O2D 1_555 1_555
Nd1B O4 1_555 1_555
Nd1_2 O7 1_555 1_555
Nd1C O7 1_555 1_555
Nd1_3 O5_2 1_555 1_555
Nd1C_2 O7_2 1_555 1_555
S1_2 O5_2 1_555 1_555
C1D C2D 1_555 1_555
C2D H1D 1_555 1_555
H2D C2D 1_555 1_555
C3D C4 1_555 1_555
H3D C3D 1_555 1_555
H4D C3D 1_555 1_555
C4D C3 1_555 1_555
H5D C4D 1_555 1_555
H6D C4D 1_555 1_555
C5B C5 1_555 1_555
N1D C2D 1_555 1_555
H7D N1D 1_555 1_555
O1D C1D 1_555 1_555
O2D C1D 1_555 1_555
O3B Nd1B 1_555 1_555
O3D Nd1D 1_555 1_555
O4B Nd1 1_555 1_555
O4F Nd1D 1_555 1_555
O5D Nd1D 1_555 1_555
O6_2 Nd1_3 1_555 1_555
O6D Nd1D 1_555 1_555
O7_2 Nd1 1_555 1_555
O7C Nd1 1_555 1_555
O7G Nd1D 1_555 1_555
O7D Nd1D 1_555 1_555
O8_2 Nd1 1_555 1_555
O8D Nd1D 1_555 1_555
O9D Nd1D 1_555 1_555
H8D O9D 1_555 1_555
H9D O9D 1_555 1_555
S1 O6 1_555 1_555
C3 N1 1_555 1_555
C4 N1 1_555 1_555
O8 Nd1_2 1_555 1_555
Nd1C O7C 1_555 1_555
S1_2 O6_2 1_555 1_555
S1_2 O7_2 1_555 1_555
S1_2 O8_2 1_555 1_555
C3D N1D 1_555 1_555
C4D N1D 1_555 1_555
C5B O3B 1_555 1_555
C5B O4B 1_555 1_555

#END
