
#######################################################################
#
#                 Cambridge Crystallographic Data Centre
#                                CCDC 
#
#######################################################################
#
# If this CIF has been generated from an entry in the Cambridge 
# Structural Database, then it will include bibliographic, chemical, 
# crystal, experimental, refinement or atomic coordinate data resulting 
# from the CCDC's data processing and validation procedures.
#
#######################################################################

data_GOBZED
_symmetry_cell_setting           monoclinic
_symmetry_space_group_name_H-M   'C 2/c'
_symmetry_Int_Tables_number      15
_space_group_name_Hall           '-C 2yn'
loop_
_symmetry_equiv_pos_site_id
_symmetry_equiv_pos_as_xyz
1 x,y,z
2 1/2+x,1/2+y,z
3 -x,y,1/2-z
4 1/2-x,1/2+y,1/2-z
5 -x,-y,-z
6 1/2-x,1/2-y,-z
7 x,-y,1/2+z
8 1/2+x,1/2-y,1/2+z
_cell_length_a                   19.392(3)
_cell_length_b                   6.2757(9)
_cell_length_c                   16.999(2)
_cell_angle_alpha                90
_cell_angle_beta                 108.279(2)
_cell_angle_gamma                90
_cell_volume                     1964.36
loop_
_atom_site_label
_atom_site_type_symbol
_atom_site_fract_x
_atom_site_fract_y
_atom_site_fract_z
Y1 Y 0.34200(3) 0.53032(10) 0.25029(3)
S1 S 0.34162(8) 0.0326(3) 0.25789(10)
C1 C 0.3375(3) 0.6117(11) 0.4486(3)
C2 C 0.3718(4) 0.7901(11) 0.5102(4)
H1 H 0.3340 0.8863 0.5145
H2 H 0.3946 0.7285 0.5645
C3 C 0.4918(3) 0.7787(10) 0.4874(4)
H3 H 0.5144 0.7282 0.5435
H4 H 0.4760 0.6552 0.4520
C4 C 0.4534(4) 1.1012(11) 0.5400(4)
H5 H 0.4129 1.1938 0.5383
H6 H 0.4752 1.0536 0.5967
C5 C 0.4871(4) 0.4986(10) 0.2028(4)
N1 N 0.4266(3) 0.9123(9) 0.4848(3)
H7 H 0.4060 0.9587 0.4325
O1 O 0.3044(3) 0.4722(8) 0.4721(3)
O2 O 0.3483(2) 0.6248(7) 0.3804(2)
O3 O 0.4211(3) 0.5143(7) 0.1664(3)
O4 O 0.5359(3) 0.4794(7) 0.1699(3)
O5 O 0.3320(3) 0.1874(7) 0.1909(3)
O6 O 0.3611(3) 0.1533(8) 0.3351(3)
O7 O 0.2727(2) -0.0895(7) 0.2465(2)
O8 O 0.3960(2) -0.1272(7) 0.2580(3)
O9 O 0.2753(2) 0.6219(8) 0.1146(3)
H8 H 0.2883 0.5331 0.0762
H9 H 0.2339 0.7116 0.1041
Y1D Y 0.65800(3) 1.46968(10) 0.74971(3)
Y1B Y 0.65800(3) 0.53032(10) 0.24971(3)
Y1_2 Y 0.34200(3) -0.46968(10) 0.25029(3)
Y1C Y 0.15800(3) 0.03032(10) 0.24971(3)
Y1_3 Y 0.34200(3) 1.53032(10) 0.25029(3)
Y1C_2 Y 0.15800(3) 1.03032(10) 0.24971(3)
S1_2 S 0.34162(8) 1.0326(3) 0.25789(10)
C1D C 0.6625(3) 1.3883(11) 0.5514(3)
C2D C 0.6282(4) 1.2099(11) 0.4898(4)
H1D H 0.6660 1.1137 0.4855
H2D H 0.6054 1.2715 0.4355
C3D C 0.5082(3) 1.2213(10) 0.5126(4)
H3D H 0.4856 1.2718 0.4565
H4D H 0.5240 1.3448 0.5480
C4D C 0.5466(4) 0.8988(11) 0.4600(4)
H5D H 0.5871 0.8062 0.4617
H6D H 0.5248 0.9464 0.4033
C5B C 0.5129(4) 0.4986(10) 0.2972(4)
N1D N 0.5734(3) 1.0877(9) 0.5152(3)
H7D H 0.5940 1.0413 0.5675
O1D O 0.6956(3) 1.5278(8) 0.5279(3)
O2D O 0.6517(2) 1.3752(7) 0.6196(2)
O3B O 0.5789(3) 0.5143(7) 0.3336(3)
O3D O 0.5789(3) 1.4857(7) 0.8336(3)
O4B O 0.4641(3) 0.4794(7) 0.3301(3)
O4F O 0.5359(3) 1.5206(7) 0.6699(3)
O5_2 O 0.3320(3) 1.1874(7) 0.1909(3)
O5D O 0.6680(3) 1.8126(7) 0.8091(3)
O6_2 O 0.3611(3) 1.1533(8) 0.3351(3)
O6D O 0.6389(3) 1.8467(8) 0.6649(3)
O7_2 O 0.2727(2) 0.9105(7) 0.2465(2)
O7C O 0.2273(2) 0.4105(7) 0.2535(2)
O7G O 0.7727(2) 1.5895(7) 0.7465(2)
O7D O 0.7273(2) 1.0895(7) 0.7535(2)
O8_2 O 0.3960(2) 0.8728(7) 0.2580(3)
O8D O 0.6040(2) 1.1272(7) 0.7420(3)
O9D O 0.7247(2) 1.3781(8) 0.8854(3)
H8D H 0.7117 1.4669 0.9238
H9D H 0.7661 1.2884 0.8959
loop_
_geom_bond_atom_site_label_1
_geom_bond_atom_site_label_2
_geom_bond_site_symmetry_1
_geom_bond_site_symmetry_2
Y1 O2 1_555 1_555
S1 O5 1_555 1_555
C1 C2 1_555 1_555
C2 H1 1_555 1_555
H2 C2 1_555 1_555
C3 H3 1_555 1_555
H4 C3 1_555 1_555
C4 H5 1_555 1_555
H6 C4 1_555 1_555
C5 O3 1_555 1_555
N1 C2 1_555 1_555
H7 N1 1_555 1_555
O1 C1 1_555 1_555
O2 C1 1_555 1_555
O3 Y1 1_555 1_555
O4 C5 1_555 1_555
O5 Y1 1_555 1_555
O6 Y1 1_555 1_555
O7 S1 1_555 1_555
O8 S1 1_555 1_555
O9 Y1 1_555 1_555
H8 O9 1_555 1_555
H9 O9 1_555 1_555
Y1D O2D 1_555 1_555
Y1B O4 1_555 1_555
Y1_2 O7 1_555 1_555
Y1C O7 1_555 1_555
Y1_3 O5_2 1_555 1_555
Y1C_2 O7_2 1_555 1_555
S1_2 O5_2 1_555 1_555
C1D C2D 1_555 1_555
C2D H1D 1_555 1_555
H2D C2D 1_555 1_555
C3D C4 1_555 1_555
H3D C3D 1_555 1_555
H4D C3D 1_555 1_555
C4D C3 1_555 1_555
H5D C4D 1_555 1_555
H6D C4D 1_555 1_555
C5B C5 1_555 1_555
N1D C2D 1_555 1_555
H7D N1D 1_555 1_555
O1D C1D 1_555 1_555
O2D C1D 1_555 1_555
O3B Y1B 1_555 1_555
O3D Y1D 1_555 1_555
O4B Y1 1_555 1_555
O4F Y1D 1_555 1_555
O5D Y1D 1_555 1_555
O6_2 Y1_3 1_555 1_555
O6D Y1D 1_555 1_555
O7_2 Y1 1_555 1_555
O7C Y1 1_555 1_555
O7G Y1D 1_555 1_555
O7D Y1D 1_555 1_555
O8_2 Y1 1_555 1_555
O8D Y1D 1_555 1_555
O9D Y1D 1_555 1_555
H8D O9D 1_555 1_555
H9D O9D 1_555 1_555
S1 O6 1_555 1_555
C3 N1 1_555 1_555
C4 N1 1_555 1_555
O8 Y1_2 1_555 1_555
Y1C O7C 1_555 1_555
S1_2 O6_2 1_555 1_555
S1_2 O7_2 1_555 1_555
S1_2 O8_2 1_555 1_555
C3D N1D 1_555 1_555
C4D N1D 1_555 1_555
C5B O3B 1_555 1_555
C5B O4B 1_555 1_555

#END
