
#######################################################################
#
#                 Cambridge Crystallographic Data Centre
#                                CCDC 
#
#######################################################################
#
# If this CIF has been generated from an entry in the Cambridge 
# Structural Database, then it will include bibliographic, chemical, 
# crystal, experimental, refinement or atomic coordinate data resulting 
# from the CCDC's data processing and validation procedures.
#
#######################################################################

data_GOBZII
_symmetry_cell_setting           monoclinic
_symmetry_space_group_name_H-M   'C 2'
_symmetry_Int_Tables_number      5
_space_group_name_Hall           'C 2y'
loop_
_symmetry_equiv_pos_site_id
_symmetry_equiv_pos_as_xyz
1 x,y,z
2 -x,y,-z
3 1/2+x,1/2+y,z
4 1/2-x,1/2+y,-z
_cell_length_a                   20.223(3)
_cell_length_b                   11.4586(15)
_cell_length_c                   8.5477(11)
_cell_angle_alpha                90
_cell_angle_beta                 112.985(2)
_cell_angle_gamma                90
_cell_volume                     1823.48
loop_
_atom_site_label
_atom_site_type_symbol
_atom_site_fract_x
_atom_site_fract_y
_atom_site_fract_z
V1 V 0.23786(3) 0.88630(5) 0.50621(7)
Cu1 Cu 0.36872(2) 0.61508(3) 1.12156(4)
P1 P 0.30369(4) 0.63668(8) 0.71387(10)
F1 F 0.29509(12) 0.96799(19) 0.7093(3)
O1 O 0.28402(14) 0.6251(3) 1.2213(3)
H1 H 0.278(2) 0.688(3) 1.259(6)
H2 H 0.263(2) 0.576(3) 1.254(6)
O2 O 0.30884(12) 0.6007(2) 0.8888(3)
O3 O 0.26899(15) 0.7564(2) 0.6717(3)
O4 O 0.26239(17) 0.8234(3) 0.3653(3)
O5 O 0.26331(14) 0.5476(2) 0.5796(3)
O6 O 0.15233(14) 0.8693(3) 0.4506(4)
N1 N 0.37964(15) 0.7876(3) 1.1658(4)
N2 N 0.44815(13) 0.6148(3) 1.3481(3)
N3 N 0.39259(17) 0.4437(3) 1.1467(4)
C1 C 0.33576(17) 0.8688(3) 1.0664(4)
H3 H 0.3066 0.8494 0.9521
C2 C 0.33129(19) 0.9802(3) 1.1242(5)
H4 H 0.3016 1.0375 1.0491
C3 C 0.37098(19) 1.0069(3) 1.2940(5)
H5 H 0.3663 1.0810 1.3386
C4 C 0.41758(18) 0.9236(3) 1.3973(4)
H6 H 0.4456 0.9402 1.5134
C5 C 0.42265(18) 0.8163(3) 1.3289(4)
C6 C 0.46921(18) 0.7193(3) 1.4229(4)
C7 C 0.47530(19) 0.5119(3) 1.4140(4)
C8 C 0.45044(18) 0.4145(3) 1.2904(4)
C9 C 0.48500(19) 0.3084(3) 1.3044(4)
H7 H 0.5269 0.2910 1.4021
C10 C 0.4576(2) 0.2278(3) 1.1736(5)
H8 H 0.4807 0.1546 1.1809
C11 C 0.3967(2) 0.2549(4) 1.0329(5)
H9 H 0.3760 0.1995 0.9446
C12 C 0.3659(2) 0.3650(3) 1.0225(5)
H10 H 0.3248 0.3847 0.9242
C13 C 0.39389(19) 0.6420(4) 0.7158(5)
H11 H 0.4111 0.5609 0.7173
H12 H 0.3912 0.6784 0.6084
C14 C 0.44898(19) 0.7076(4) 0.8622(5)
C15 C 0.44981(19) 0.8289(4) 0.8638(5)
H13 H 0.4160 0.8710 0.7715
C16 C 0.5000 0.8887(5) 1.0000
H14 H 0.5000 0.9716 1.0000
C17 C 0.5000 0.6482(5) 1.0000
H15 H 0.5000 0.5653 1.0000
P1A P 0.69631(4) 0.63668(8) 1.28613(10)
O2A O 0.69116(12) 0.6007(2) 1.1112(3)
O3A O 0.73101(15) 0.7564(2) 1.3283(3)
C13A C 0.60611(19) 0.6420(4) 1.2842(5)
H11A H 0.5889 0.5609 1.2827
H12A H 0.6088 0.6784 1.3916
C14A C 0.55102(19) 0.7076(4) 1.1378(5)
C15A C 0.55019(19) 0.8289(4) 1.1362(5)
H13A H 0.5840 0.8710 1.2285
O5A O 0.73669(14) 0.5476(2) 1.4204(3)
N1A N 0.62036(15) 0.7876(3) 1.8342(4)
N2A N 0.55185(13) 0.6148(3) 1.6519(3)
N3A N 0.60741(17) 0.4437(3) 1.8533(4)
C1A C 0.66424(17) 0.8688(3) 1.9336(4)
H3A H 0.6934 0.8494 2.0479
C2A C 0.66871(19) 0.9802(3) 1.8758(5)
H4A H 0.6984 1.0375 1.9509
C3A C 0.62902(19) 1.0069(3) 1.7060(5)
H5A H 0.6337 1.0810 1.6614
C4A C 0.58242(18) 0.9236(3) 1.6027(4)
H6A H 0.5544 0.9402 1.4866
C5A C 0.57735(18) 0.8163(3) 1.6711(4)
C6A C 0.53079(18) 0.7193(3) 1.5771(4)
C7A C 0.52470(19) 0.5119(3) 1.5860(4)
C8A C 0.54956(18) 0.4145(3) 1.7096(4)
C9A C 0.51500(19) 0.3084(3) 1.6956(4)
H7A H 0.4731 0.2910 1.5979
C10A C 0.5424(2) 0.2278(3) 1.8264(5)
H8A H 0.5193 0.1546 1.8191
C11A C 0.6033(2) 0.2549(4) 1.9671(5)
H9A H 0.6240 0.1995 2.0554
C12A C 0.6341(2) 0.3650(3) 1.9775(5)
H10A H 0.6752 0.3847 2.0758
V1A V 0.76214(3) 0.88630(5) 1.49379(7)
Cu1A Cu 0.63128(2) 0.61508(3) 0.87844(4)
F1A F 0.70491(12) 0.96799(19) 1.2907(3)
O1A O 0.71598(14) 0.6251(3) 0.7787(3)
H1A H 0.722(2) 0.688(3) 0.741(6)
H2A H 0.737(2) 0.576(3) 0.746(6)
O4A O 0.73761(17) 0.8234(3) 1.6347(3)
O6A O 0.84767(14) 0.8693(3) 1.5494(4)
V1B V 0.73786(3) 0.38630(5) 1.50621(7)
V1C V 0.26214(3) 0.38630(5) 0.49379(7)
Cu1A_2 Cu 0.63128(2) 0.61508(3) 1.87844(4)
O5B O 0.76331(14) 1.0476(2) 1.5796(3)
O5C O 0.23669(14) 1.0476(2) 0.4204(3)
N1A_2 N 0.62036(15) 0.7876(3) 0.8342(4)
N2A_2 N 0.55185(13) 0.6148(3) 0.6519(3)
N3A_2 N 0.60741(17) 0.4437(3) 0.8533(4)
O7 O 0.89089(14) 0.6263(3) 0.6652(4)
H16 H 0.8585(19) 0.583(3) 0.668(6)
H17 H 0.871(2) 0.688(3) 0.625(5)
loop_
_geom_bond_atom_site_label_1
_geom_bond_atom_site_label_2
_geom_bond_site_symmetry_1
_geom_bond_site_symmetry_2
V1 F1 1_555 1_555
Cu1 O1 1_555 1_555
P1 O2 1_555 1_555
O1 H1 1_555 1_555
H2 O1 1_555 1_555
O2 Cu1 1_555 1_555
O3 V1 1_555 1_555
O4 V1 1_555 1_555
O5 P1 1_555 1_555
O6 V1 1_555 1_555
N1 Cu1 1_555 1_555
N2 Cu1 1_555 1_555
N3 Cu1 1_555 1_555
C1 N1 1_555 1_555
H3 C1 1_555 1_555
C2 C1 1_555 1_555
H4 C2 1_555 1_555
C3 C2 1_555 1_555
H5 C3 1_555 1_555
C4 C3 1_555 1_555
H6 C4 1_555 1_555
C5 N1 1_555 1_555
C6 N2 1_555 1_555
C7 N2 1_555 1_555
C8 N3 1_555 1_555
C9 C8 1_555 1_555
H7 C9 1_555 1_555
C10 C9 1_555 1_555
H8 C10 1_555 1_555
C11 C10 1_555 1_555
H9 C11 1_555 1_555
C12 N3 1_555 1_555
H10 C12 1_555 1_555
C13 P1 1_555 1_555
H11 C13 1_555 1_555
H12 C13 1_555 1_555
C14 C13 1_555 1_555
C15 C14 1_555 1_555
H13 C15 1_555 1_555
C16 C15 1_555 1_555
H14 C16 1_555 1_555
C17 C14 1_555 1_555
H15 C17 1_555 1_555
O7 H16 1_555 1_555
H17 O7 1_555 1_555
P1A O2A 1_555 1_555
O2A Cu1A 1_555 1_555
O3A P1A 1_555 1_555
C13A P1A 1_555 1_555
H11A C13A 1_555 1_555
H12A C13A 1_555 1_555
C14A C17 1_555 1_555
C15A C16 1_555 1_555
H13A C15A 1_555 1_555
O5A P1A 1_555 1_555
N1A C1A 1_555 1_555
N2A C6A 1_555 1_555
N3A C8A 1_555 1_555
C1A H3A 1_555 1_555
C2A C1A 1_555 1_555
H4A C2A 1_555 1_555
C3A C2A 1_555 1_555
H5A C3A 1_555 1_555
C4A C3A 1_555 1_555
H6A C4A 1_555 1_555
C5A N1A 1_555 1_555
C6A C6 1_555 1_555
C7A C7 1_555 1_555
C8A C7A 1_555 1_555
C9A C8A 1_555 1_555
H7A C9A 1_555 1_555
C10A C9A 1_555 1_555
H8A C10A 1_555 1_555
C11A C10A 1_555 1_555
H9A C11A 1_555 1_555
C12A N3A 1_555 1_555
H10A C12A 1_555 1_555
V1A O3A 1_555 1_555
Cu1A O1A 1_555 1_555
F1A V1A 1_555 1_555
O1A H1A 1_555 1_555
H2A O1A 1_555 1_555
O4A V1A 1_555 1_555
O6A V1A 1_555 1_555
V1B O5A 1_555 1_555
V1C O5 1_555 1_555
Cu1A_2 N1A 1_555 1_555
O5B V1A 1_555 1_555
O5C V1 1_555 1_555
N1A_2 Cu1A 1_555 1_555
N2A_2 Cu1A 1_555 1_555
N3A_2 Cu1A 1_555 1_555
P1 O3 1_555 1_555
C4 C5 1_555 1_555
C5 C6 1_555 1_555
C7 C8 1_555 1_555
C11 C12 1_555 1_555
C13A C14A 1_555 1_555
C14A C15A 1_555 1_555
N2A C7A 1_555 1_555
N2A Cu1A_2 1_555 1_555
N3A Cu1A_2 1_555 1_555
C4A C5A 1_555 1_555
C5A C6A 1_555 1_555
C11A C12A 1_555 1_555

#END
