
#######################################################################
#
#                 Cambridge Crystallographic Data Centre
#                                CCDC 
#
#######################################################################
#
# If this CIF has been generated from an entry in the Cambridge 
# Structural Database, then it will include bibliographic, chemical, 
# crystal, experimental, refinement or atomic coordinate data resulting 
# from the CCDC's data processing and validation procedures.
#
#######################################################################

data_GOCBAD
_symmetry_cell_setting           monoclinic
_symmetry_space_group_name_H-M   'C 2/c'
_symmetry_Int_Tables_number      15
_space_group_name_Hall           '-C 2yn'
loop_
_symmetry_equiv_pos_site_id
_symmetry_equiv_pos_as_xyz
1 x,y,z
2 -x,y,1/2-z
3 1/2+x,1/2+y,z
4 1/2-x,1/2+y,1/2-z
5 -x,-y,-z
6 x,-y,1/2+z
7 1/2-x,1/2-y,-z
8 1/2+x,1/2-y,1/2+z
_cell_length_a                   27.172(4)
_cell_length_b                   14.924(2)
_cell_length_c                   14.398(2)
_cell_angle_alpha                90
_cell_angle_beta                 105.306(2)
_cell_angle_gamma                90
_cell_volume                     5631.51
loop_
_atom_site_label
_atom_site_type_symbol
_atom_site_fract_x
_atom_site_fract_y
_atom_site_fract_z
Cu1 Cu 0.156706(16) 0.16689(3) 0.27702(4)
S1 S 0.15344(4) 0.37422(8) 0.25977(9)
Cl1 Cl 0.12215(4) 0.13962(9) 0.39846(9)
Cl2 Cl 0.18001(5) 0.14718(10) 0.14178(9)
S2 S 0.07276(5) 0.78186(10) 0.17295(14)
N1 N 0.05425(11) 0.3776(2) 0.1699(2)
C1 C 0.00921(13) 0.3387(2) 0.1304(3)
C2 C -0.02439(13) 0.4924(3) 0.0980(3)
H1 H 0.0080 0.5127 0.1296
N2 N -0.00285(12) 0.6735(2) 0.1116(2)
C3 C -0.06261(13) 0.5540(3) 0.0600(2)
N3 N 0.09357(11) 0.2353(2) 0.2097(2)
N4 N -0.02477(14) 0.8292(2) 0.0991(3)
C4 C -0.05159(14) 0.6517(3) 0.0715(3)
C5 C -0.03358(12) 0.4016(3) 0.0897(2)
C6 C 0.09398(13) 0.3250(3) 0.2072(3)
C7 C 0.00772(15) 0.7609(3) 0.1229(3)
C8 C -0.07279(17) 0.8042(3) 0.0586(4)
H2 H -0.0974 0.8488 0.0402
C9 C -0.11072(13) 0.5221(3) 0.0119(2)
H3 H -0.1365 0.5627 -0.0148
C10 C -0.08793(15) 0.7175(3) 0.0424(3)
H4 H -0.1217 0.7031 0.0127
C11 C 0.04822(14) 0.1968(3) 0.1699(3)
H5 H 0.0458 0.1346 0.1703
C12 C 0.00515(14) 0.2464(3) 0.1283(3)
H6 H -0.0257 0.2185 0.0997
C13 C 0.13681(16) 0.4914(3) 0.2596(3)
H7 H 0.1247 0.5123 0.1937
H8 H 0.1094 0.4989 0.2906
C14 C -0.08159(13) 0.3696(3) 0.0416(3)
H9 H -0.0876 0.3083 0.0352
C15 C 0.18173(18) 0.5458(4) 0.3112(4)
H10 H 0.1721 0.6078 0.3104
H11 H 0.2086 0.5392 0.2798
H12 H 0.1934 0.5256 0.3766
N5 N -0.20794(11) 0.4672(2) -0.0745(2)
C16 C -0.17334(13) 0.4010(3) -0.0473(3)
C17 C -0.12108(12) 0.4307(3) 0.0028(3)
C18 C -0.18783(15) 0.3126(3) -0.0671(3)
H13 H -0.1644 0.2662 -0.0490
S3 S -0.30010(4) 0.52983(8) -0.15583(12)
C19 C -0.23762(15) 0.2958(3) -0.1139(3)
H14 H -0.2480 0.2366 -0.1262
C20 C -0.25531(13) 0.4455(3) -0.1197(3)
C21 C -0.2634(2) 0.6287(3) -0.1163(5)
H15 H -0.2483 0.6254 -0.0474
H16 H -0.2360 0.6325 -0.1477
C22 C 0.0743(3) 0.9051(5) 0.1833(7)
H17 H 0.0458 0.9254 0.2066
H18 H 0.1056 0.9236 0.2292
N6 N -0.27237(11) 0.3613(2) -0.1431(2)
C23 C -0.2950(2) 0.7075(4) -0.1385(6)
H19 H -0.2747 0.7598 -0.1162
H20 H -0.3220 0.7038 -0.1071
H21 H -0.3093 0.7115 -0.2069
C24 C 0.0714(4) 0.9449(7) 0.0922(8)
H22 H 0.0717 1.0089 0.0983
H23 H 0.0405 0.9263 0.0467
H24 H 0.1002 0.9262 0.0701
Cu1G Cu -0.343294(16) 0.33311(3) -0.22298(4)
N6G N 0.22763(11) 0.1387(2) 0.3569(2)
O1 O -0.2099(2) 0.0806(4) -0.0919(5)
H25 H -0.1777(13) 0.092(6) -0.066(7)
H26 H -0.213(3) 0.023(2) -0.108(7)
loop_
_geom_bond_atom_site_label_1
_geom_bond_atom_site_label_2
_geom_bond_site_symmetry_1
_geom_bond_site_symmetry_2
Cu1 Cl1 1_555 1_555
S1 C6 1_555 1_555
Cl2 Cu1 1_555 1_555
S2 C7 1_555 1_555
N1 C1 1_555 1_555
C1 C5 1_555 1_555
C2 H1 1_555 1_555
N2 C4 1_555 1_555
C3 C2 1_555 1_555
N3 Cu1 1_555 1_555
N4 C7 1_555 1_555
C4 C3 1_555 1_555
C5 C2 1_555 1_555
C6 N1 1_555 1_555
C7 N2 1_555 1_555
C8 N4 1_555 1_555
H2 C8 1_555 1_555
C9 C3 1_555 1_555
H3 C9 1_555 1_555
C10 C4 1_555 1_555
H4 C10 1_555 1_555
C11 N3 1_555 1_555
H5 C11 1_555 1_555
C12 C1 1_555 1_555
H6 C12 1_555 1_555
C13 S1 1_555 1_555
H7 C13 1_555 1_555
H8 C13 1_555 1_555
C14 C5 1_555 1_555
H9 C14 1_555 1_555
C15 C13 1_555 1_555
H10 C15 1_555 1_555
H11 C15 1_555 1_555
H12 C15 1_555 1_555
N5 C16 1_555 1_555
C16 C17 1_555 1_555
C17 C9 1_555 1_555
C18 C16 1_555 1_555
H13 C18 1_555 1_555
S3 C20 1_555 1_555
C19 C18 1_555 1_555
H14 C19 1_555 1_555
C20 N5 1_555 1_555
C21 S3 1_555 1_555
H15 C21 1_555 1_555
H16 C21 1_555 1_555
C22 S2 1_555 1_555
H17 C22 1_555 1_555
H18 C22 1_555 1_555
N6 C19 1_555 1_555
C23 C21 1_555 1_555
H19 C23 1_555 1_555
H20 C23 1_555 1_555
H21 C23 1_555 1_555
C24 C22 1_555 1_555
H22 C24 1_555 1_555
H23 C24 1_555 1_555
H24 C24 1_555 1_555
O1 H25 1_555 1_555
H26 O1 1_555 1_555
Cu1G N6 1_555 1_555
N6G Cu1 1_555 1_555
N3 C6 1_555 1_555
C8 C10 1_555 1_555
C11 C12 1_555 1_555
C14 C17 1_555 1_555
C20 N6 1_555 1_555

#END
