
#######################################################################
#
#                 Cambridge Crystallographic Data Centre
#                                CCDC 
#
#######################################################################
#
# If this CIF has been generated from an entry in the Cambridge 
# Structural Database, then it will include bibliographic, chemical, 
# crystal, experimental, refinement or atomic coordinate data resulting 
# from the CCDC's data processing and validation procedures.
#
#######################################################################

data_GOCCAD
_symmetry_cell_setting           orthorhombic
_symmetry_space_group_name_H-M   'P b c a'
_symmetry_Int_Tables_number      61
_space_group_name_Hall           '-P 2ac 2ab'
loop_
_symmetry_equiv_pos_site_id
_symmetry_equiv_pos_as_xyz
1 x,y,z
2 1/2-x,-y,1/2+z
3 1/2+x,1/2-y,-z
4 -x,1/2+y,1/2-z
5 -x,-y,-z
6 1/2+x,y,1/2-z
7 1/2-x,1/2+y,z
8 x,1/2-y,1/2+z
_cell_length_a                   13.180(10)
_cell_length_b                   9.750(10)
_cell_length_c                   25.22(2)
_cell_angle_alpha                90
_cell_angle_beta                 90
_cell_angle_gamma                90
_cell_volume                     3240.9
loop_
_atom_site_label
_atom_site_type_symbol
_atom_site_fract_x
_atom_site_fract_y
_atom_site_fract_z
Cu1 Cu 0.51603(4) 0.16690(6) 0.66091(2)
O1 O 0.4853(2) 0.2641(4) 0.72511(15)
O2 O 0.4804(3) 0.4170(4) 0.78847(15)
O3 O 0.6613(3) 0.1676(3) 0.67165(15)
N1 N 0.5259(3) 0.0279(4) 0.60217(14)
N2 N 0.3664(3) 0.1418(4) 0.64758(17)
O4 O 0.5146(3) 0.3538(5) 0.5991(3)
C1 C 0.6073(4) -0.0282(6) 0.5812(2)
C2 C 0.6013(5) -0.1345(7) 0.5440(2)
C3 C 0.5084(5) -0.1803(7) 0.5267(3)
C4 C 0.4202(4) -0.1175(6) 0.5480(2)
C5 C 0.3191(5) -0.1549(7) 0.5326(3)
C6 C 0.2372(5) -0.0936(7) 0.5546(3)
C7 C 0.2488(4) 0.0085(6) 0.5952(2)
C8 C 0.1675(4) 0.0742(7) 0.6216(3)
C9 C 0.1892(5) 0.1698(9) 0.6591(3)
C10 C 0.2879(4) 0.2014(7) 0.6714(2)
C11 C 0.3470(3) 0.0468(5) 0.61035(18)
C12 C 0.4340(3) -0.0164(5) 0.58641(17)
C13 C 0.5212(3) 0.3682(5) 0.74884(19)
C14 C 0.6154(4) 0.4373(5) 0.7317(2)
C15 C 0.7004(4) 0.3918(5) 0.7073(2)
C16 C 0.7245(3) 0.2598(5) 0.68313(18)
N3 N 0.8202(3) 0.2408(5) 0.6723(2)
N4 N 0.5869(3) 0.4279(5) 0.58758(19)
O5 O 0.5887(6) 0.5449(6) 0.5984(4)
O6 O 0.6621(5) 0.3701(9) 0.5718(3)
H1 H 0.667(4) 0.010(5) 0.5883(19)
H2 H 0.664(5) -0.163(6) 0.526(2)
H3 H 0.493(4) -0.263(7) 0.502(3)
H4 H 0.306(4) -0.226(6) 0.508(2)
H5 H 0.181(6) -0.119(7) 0.549(3)
H6 H 0.101(4) 0.040(6) 0.609(2)
H7 H 0.152(6) 0.223(8) 0.667(3)
H8 H 0.298(4) 0.269(6) 0.693(2)
H9 H 0.613(4) 0.535(6) 0.739(2)
H10 H 0.747(5) 0.453(6) 0.699(2)
H11 H 0.838(4) 0.158(5) 0.6567(18)
H12 H 0.855(5) 0.304(7) 0.679(3)
Cu1C Cu 0.48397(4) 0.66690(6) 0.83909(2)
O2C O 0.5196(3) -0.0830(4) 0.71153(15)
loop_
_geom_bond_atom_site_label_1
_geom_bond_atom_site_label_2
_geom_bond_site_symmetry_1
_geom_bond_site_symmetry_2
Cu1 O1 1_555 1_555
O1 C13 1_555 1_555
O2 C13 1_555 1_555
O3 Cu1 1_555 1_555
N1 Cu1 1_555 1_555
N2 Cu1 1_555 1_555
O4 Cu1 1_555 1_555
C1 N1 1_555 1_555
C2 C1 1_555 1_555
C3 C2 1_555 1_555
C4 C3 1_555 1_555
C5 C4 1_555 1_555
C6 C5 1_555 1_555
C7 C6 1_555 1_555
C8 C7 1_555 1_555
C9 C8 1_555 1_555
C10 N2 1_555 1_555
C11 N2 1_555 1_555
C12 N1 1_555 1_555
C13 C14 1_555 1_555
C14 C15 1_555 1_555
C15 C16 1_555 1_555
C16 O3 1_555 1_555
N3 C16 1_555 1_555
N4 O4 1_555 1_555
O5 N4 1_555 1_555
O6 N4 1_555 1_555
H1 C1 1_555 1_555
H2 C2 1_555 1_555
H3 C3 1_555 1_555
H4 C5 1_555 1_555
H5 C6 1_555 1_555
H6 C8 1_555 1_555
H7 C9 1_555 1_555
H8 C10 1_555 1_555
H9 C14 1_555 1_555
H10 C15 1_555 1_555
H11 N3 1_555 1_555
H12 N3 1_555 1_555
Cu1C O2 1_555 1_555
O2C Cu1 1_555 1_555
C4 C12 1_555 1_555
C7 C11 1_555 1_555
C9 C10 1_555 1_555
C11 C12 1_555 1_555

#END
