
#######################################################################
#
#                 Cambridge Crystallographic Data Centre
#                                CCDC 
#
#######################################################################
#
# If this CIF has been generated from an entry in the Cambridge 
# Structural Database, then it will include bibliographic, chemical, 
# crystal, experimental, refinement or atomic coordinate data resulting 
# from the CCDC's data processing and validation procedures.
#
#######################################################################

data_GOCDUY
_symmetry_cell_setting           orthorhombic
_symmetry_space_group_name_H-M   'P n a 21'
_symmetry_Int_Tables_number      33
_space_group_name_Hall           'P 2c -2n'
loop_
_symmetry_equiv_pos_site_id
_symmetry_equiv_pos_as_xyz
1 x,y,z
2 -x,-y,1/2+z
3 1/2+x,1/2-y,z
4 1/2-x,1/2+y,1/2+z
_cell_length_a                   23.859(4)
_cell_length_b                   18.306(3)
_cell_length_c                   17.338(3)
_cell_angle_alpha                90
_cell_angle_beta                 90
_cell_angle_gamma                90
_cell_volume                     7572.59
loop_
_atom_site_label
_atom_site_type_symbol
_atom_site_fract_x
_atom_site_fract_y
_atom_site_fract_z
I1 I 0.120687(11) 0.653253(14) 0.218874(17)
I2 I 0.136595(10) 0.603155(13) -0.019630(13)
Cu1 Cu 0.185578(18) 0.58500(2) 0.12259(3)
Cu2 Cu 0.070921(17) 0.56715(2) 0.09999(3)
P1 P 0.19818(4) 0.46550(5) 0.13863(6)
P2 P 0.07506(3) 0.44562(4) 0.10041(5)
N1 N 0.25818(11) 0.64382(13) 0.11738(15)
N2 N 0.49551(11) 0.87418(14) 0.10092(16)
C1 C 0.26680(13) 0.44050(17) 0.1010(2)
C2 C 0.27553(18) 0.4213(3) 0.0270(2)
H1 H 0.2441 0.4163 -0.0043
C3 C 0.32850(18) 0.4082(3) -0.0072(4)
H2 H 0.3337 0.3908 -0.0571
C4 C 0.37336(19) 0.4256(3) 0.0459(3)
H3 H 0.4097 0.4227 0.0268
C5 C 0.36789(16) 0.4450(3) 0.1177(3)
H4 H 0.3988 0.4525 0.1493
C6 C 0.31219(16) 0.4541(2) 0.1453(2)
H5 H 0.3068 0.4701 0.1957
C7 C 0.19541(14) 0.42354(17) 0.2334(2)
C8 C 0.21147(17) 0.3493(2) 0.2442(3)
H6 H 0.2271 0.3241 0.2029
C9 C 0.20470(19) 0.3126(2) 0.3145(2)
H7 H 0.2149 0.2640 0.3212
C10 C 0.18285(18) 0.3521(3) 0.3704(3)
H8 H 0.1773 0.3285 0.4172
C11 C 0.1669(3) 0.4267(3) 0.3669(3)
H9 H 0.1531 0.4527 0.4090
C12 C 0.17405(19) 0.4571(2) 0.2930(2)
H10 H 0.1626 0.5052 0.2860
C13 C 0.04018(14) 0.39905(18) 0.02050(19)
C14 C 0.01571(16) 0.4415(2) -0.0382(2)
H11 H 0.0145 0.4922 -0.0347
C15 C -0.00749(18) 0.4039(3) -0.1041(2)
H12 H -0.0194 0.4319 -0.1458
C16 C -0.0129(2) 0.3303(3) -0.1091(3)
H13 H -0.0315 0.3079 -0.1499
C17 C 0.0123(2) 0.2880(2) -0.0456(3)
H14 H 0.0118 0.2372 -0.0471
C18 C 0.03672(17) 0.32348(19) 0.0161(2)
H15 H 0.0514 0.2957 0.0562
C19 C 0.04743(13) 0.39929(17) 0.18794(19)
C20 C 0.06693(13) 0.33392(17) 0.2151(2)
H16 H 0.0952 0.3087 0.1895
C21 C 0.04257(16) 0.30610(18) 0.2831(2)
H17 H 0.0556 0.2624 0.3039
C22 C 0.00157(18) 0.3415(2) 0.3173(2)
H18 H -0.0152 0.3205 0.3604
C23 C -0.0168(2) 0.4053(2) 0.2933(2)
H19 H -0.0452 0.4293 0.3198
C24 C 0.00670(15) 0.43614(17) 0.2284(2)
H20 H -0.0050 0.4820 0.2118
C25 C 0.14819(13) 0.41098(18) 0.0847(2)
C26 C 0.27226(14) 0.68889(18) 0.1731(2)
H21 H 0.2490 0.6909 0.2161
C27 C 0.32005(13) 0.73451(19) 0.1725(2)
H22 H 0.3290 0.7633 0.2149
C28 C 0.35440(13) 0.73502(16) 0.10434(19)
C29 C 0.34124(14) 0.68753(17) 0.0480(2)
H23 H 0.3639 0.6830 0.0046
C30 C 0.29208(14) 0.64436(19) 0.0560(2)
H24 H 0.2827 0.6139 0.0151
C31 C 0.40370(13) 0.78270(17) 0.1002(2)
C32 C 0.42495(15) 0.80599(17) 0.0366(2)
H25 H 0.4100 0.7912 -0.0104
C33 C 0.47005(14) 0.8530(2) 0.03853(19)
H26 H 0.4832 0.8710 -0.0083
C34 C 0.47552(15) 0.85258(19) 0.1666(2)
H27 H 0.4923 0.8682 0.2121
C35 C 0.42961(14) 0.80654(19) 0.1698(2)
H28 H 0.4157 0.7912 0.2172
Cu2B Cu 0.570921(17) 0.93285(2) 0.09999(3)
N2B N -0.00449(11) 0.62582(14) 0.10092(16)
I3 I 0.123906(9) 1.107879(13) 0.347078(14)
I4 I 0.124334(11) 1.144215(15) 0.103697(15)
Cu3 Cu 0.182497(16) 1.07581(2) 0.21786(3)
Cu4 Cu 0.066401(16) 1.07646(2) 0.21435(3)
P3 P 0.18638(3) 0.95443(5) 0.21439(6)
P4 P 0.05978(3) 0.95523(4) 0.21680(5)
N3 N 0.25108(10) 1.13979(13) 0.22191(17)
N4 N 0.49447(10) 1.36271(13) 0.21672(17)
C36 C 0.01018(17) 0.9323(2) 0.3589(2)
H29 H 0.0435 0.9502 0.3792
C37 C 0.00519(14) 0.92151(17) 0.28169(18)
C38 C -0.0883(2) 0.8746(3) 0.3083(3)
H30 H -0.1219 0.8565 0.2890
C39 C -0.04341(16) 0.8896(3) 0.2534(3)
H31 H -0.0472 0.8782 0.2014
C40 C -0.03520(18) 0.9163(3) 0.4080(2)
H32 H -0.0320 0.9273 0.4601
C41 C -0.08447(19) 0.8848(3) 0.3818(3)
H33 H -0.1132 0.8717 0.4154
C42 C 0.0105(2) 0.9462(2) 0.0712(2)
H34 H -0.0011 0.9936 0.0816
C43 C 0.04391(14) 0.90598(17) 0.1283(2)
C44 C 0.05836(14) 0.83563(16) 0.1114(2)
H35 H 0.0788 0.8097 0.1480
C45 C 0.04484(17) 0.8008(2) 0.0444(2)
H36 H 0.0558 0.7527 0.0360
C46 C 0.0144(2) 0.8384(2) -0.0108(2)
H37 H 0.0053 0.8152 -0.0569
C47 C -0.0036(2) 0.9137(2) 0.0021(3)
H38 H -0.0239 0.9390 -0.0352
C48 C 0.45911(14) 1.36576(17) 0.2773(2)
H39 H 0.4673 1.3966 0.3184
C49 C 0.43251(13) 1.27759(17) 0.15697(19)
H40 H 0.4250 1.2490 0.1139
C50 C 0.41147(14) 1.32432(18) 0.2793(2)
H41 H 0.3881 1.3271 0.3221
C51 C 0.39708(12) 1.27746(15) 0.2178(2)
C52 C 0.32863(13) 1.19339(18) 0.2854(2)
H42 H 0.3483 1.1992 0.3313
C53 C 0.31622(14) 1.2210(2) 0.1586(2)
H43 H 0.3266 1.2448 0.1135
C54 C 0.26907(15) 1.1765(2) 0.1582(2)
H44 H 0.2489 1.1717 0.1126
C55 C 0.28268(14) 1.14827(18) 0.2842(2)
H45 H 0.2734 1.1227 0.3287
C56 C 0.34632(12) 1.23012(18) 0.2208(2)
C57 C 0.47933(13) 1.31995(17) 0.1594(2)
H46 H 0.5028 1.3185 0.1166
C58 C 0.19233(14) 0.90685(18) 0.1244(2)
C59 C 0.19440(16) 0.8476(2) -0.0221(3)
H47 H 0.1980 0.8248 -0.0698
C60 C 0.19607(18) 0.8057(2) 0.0412(2)
H48 H 0.1967 0.7549 0.0387
C61 C 0.19684(18) 0.84084(18) 0.1064(2)
H49 H 0.2018 0.8104 0.1488
C62 C 0.1876(3) 0.9234(2) -0.0211(3)
H50 H 0.1824 0.9530 -0.0640
C63 C 0.1904(2) 0.9495(3) 0.0631(4)
H51 H 0.1908 0.9997 0.0716
C64 C 0.12285(13) 0.91255(16) 0.25574(19)
C65 C 0.23799(16) 0.8494(2) 0.3119(2)
H52 H 0.2041 0.8244 0.3104
C66 C 0.24127(13) 0.91113(19) 0.2725(2)
C67 C 0.29042(18) 0.9506(2) 0.2727(3)
H53 H 0.2960 0.9934 0.2450
C68 C 0.3240(3) 0.8508(2) 0.3577(3)
H54 H 0.3523 0.8277 0.3854
C69 C 0.33678(19) 0.9133(3) 0.3268(3)
H55 H 0.3713 0.9354 0.3357
C70 C 0.27995(19) 0.8195(3) 0.3545(3)
H56 H 0.2746 0.7757 0.3806
Cu4B Cu 0.566401(16) 1.42354(2) 0.21435(3)
N4B N -0.00553(10) 1.13729(13) 0.21672(17)
loop_
_geom_bond_atom_site_label_1
_geom_bond_atom_site_label_2
_geom_bond_site_symmetry_1
_geom_bond_site_symmetry_2
I1 Cu1 1_555 1_555
I2 Cu1 1_555 1_555
Cu1 P1 1_555 1_555
Cu2 I1 1_555 1_555
P1 C1 1_555 1_555
P2 Cu2 1_555 1_555
N1 Cu1 1_555 1_555
N2 C33 1_555 1_555
C1 C2 1_555 1_555
C2 H1 1_555 1_555
C3 C2 1_555 1_555
H2 C3 1_555 1_555
C4 C3 1_555 1_555
H3 C4 1_555 1_555
C5 C4 1_555 1_555
H4 C5 1_555 1_555
C6 C1 1_555 1_555
H5 C6 1_555 1_555
C7 P1 1_555 1_555
C8 C7 1_555 1_555
H6 C8 1_555 1_555
C9 C8 1_555 1_555
H7 C9 1_555 1_555
C10 C9 1_555 1_555
H8 C10 1_555 1_555
C11 C10 1_555 1_555
H9 C11 1_555 1_555
C12 C7 1_555 1_555
H10 C12 1_555 1_555
C13 P2 1_555 1_555
C14 C13 1_555 1_555
H11 C14 1_555 1_555
C15 C14 1_555 1_555
H12 C15 1_555 1_555
C16 C15 1_555 1_555
H13 C16 1_555 1_555
C17 C16 1_555 1_555
H14 C17 1_555 1_555
C18 C13 1_555 1_555
H15 C18 1_555 1_555
C19 P2 1_555 1_555
C20 C19 1_555 1_555
H16 C20 1_555 1_555
C21 C20 1_555 1_555
H17 C21 1_555 1_555
C22 C21 1_555 1_555
H18 C22 1_555 1_555
C23 C22 1_555 1_555
H19 C23 1_555 1_555
C24 C19 1_555 1_555
H20 C24 1_555 1_555
C25 P1 1_555 1_555
C26 N1 1_555 1_555
H21 C26 1_555 1_555
C27 C26 1_555 1_555
H22 C27 1_555 1_555
C28 C27 1_555 1_555
C29 C28 1_555 1_555
H23 C29 1_555 1_555
C30 N1 1_555 1_555
H24 C30 1_555 1_555
C31 C28 1_555 1_555
C32 C31 1_555 1_555
H25 C32 1_555 1_555
C33 C32 1_555 1_555
H26 C33 1_555 1_555
C34 N2 1_555 1_555
H27 C34 1_555 1_555
C35 C31 1_555 1_555
H28 C35 1_555 1_555
I3 Cu3 1_555 1_555
I4 Cu3 1_555 1_555
Cu3 P3 1_555 1_555
Cu4 I3 1_555 1_555
P3 C58 1_555 1_555
P4 Cu4 1_555 1_555
N3 Cu3 1_555 1_555
N4 C48 1_555 1_555
C36 H29 1_555 1_555
C37 P4 1_555 1_555
C38 H30 1_555 1_555
C39 C37 1_555 1_555
H31 C39 1_555 1_555
C40 C36 1_555 1_555
H32 C40 1_555 1_555
C41 C38 1_555 1_555
H33 C41 1_555 1_555
C42 H34 1_555 1_555
C43 P4 1_555 1_555
C44 C43 1_555 1_555
H35 C44 1_555 1_555
C45 C44 1_555 1_555
H36 C45 1_555 1_555
C46 C45 1_555 1_555
H37 C46 1_555 1_555
C47 C42 1_555 1_555
H38 C47 1_555 1_555
C48 H39 1_555 1_555
C49 H40 1_555 1_555
C50 C48 1_555 1_555
H41 C50 1_555 1_555
C51 C49 1_555 1_555
C52 H42 1_555 1_555
C53 H43 1_555 1_555
C54 N3 1_555 1_555
H44 C54 1_555 1_555
C55 N3 1_555 1_555
H45 C55 1_555 1_555
C56 C51 1_555 1_555
C57 N4 1_555 1_555
H46 C57 1_555 1_555
C58 C61 1_555 1_555
C59 H47 1_555 1_555
C60 C59 1_555 1_555
H48 C60 1_555 1_555
C61 C60 1_555 1_555
H49 C61 1_555 1_555
C62 C59 1_555 1_555
H50 C62 1_555 1_555
C63 C58 1_555 1_555
H51 C63 1_555 1_555
C64 P3 1_555 1_555
C65 H52 1_555 1_555
C66 P3 1_555 1_555
C67 C66 1_555 1_555
H53 C67 1_555 1_555
C68 H54 1_555 1_555
C69 C67 1_555 1_555
H55 C69 1_555 1_555
C70 C65 1_555 1_555
H56 C70 1_555 1_555
Cu2B N2 1_555 1_555
N2B Cu2 1_555 1_555
Cu4B N4 1_555 1_555
N4B Cu4 1_555 1_555
I2 Cu2 1_555 1_555
P2 C25 1_555 1_555
C5 C6 1_555 1_555
C11 C12 1_555 1_555
C17 C18 1_555 1_555
C23 C24 1_555 1_555
C29 C30 1_555 1_555
C34 C35 1_555 1_555
I4 Cu4 1_555 1_555
P4 C64 1_555 1_555
C36 C37 1_555 1_555
C38 C39 1_555 1_555
C40 C41 1_555 1_555
C42 C43 1_555 1_555
C46 C47 1_555 1_555
C49 C57 1_555 1_555
C50 C51 1_555 1_555
C52 C55 1_555 1_555
C52 C56 1_555 1_555
C53 C54 1_555 1_555
C53 C56 1_555 1_555
C62 C63 1_555 1_555
C65 C66 1_555 1_555
C68 C69 1_555 1_555
C68 C70 1_555 1_555

#END
