
#######################################################################
#
#                 Cambridge Crystallographic Data Centre
#                                CCDC 
#
#######################################################################
#
# If this CIF has been generated from an entry in the Cambridge 
# Structural Database, then it will include bibliographic, chemical, 
# crystal, experimental, refinement or atomic coordinate data resulting 
# from the CCDC's data processing and validation procedures.
#
#######################################################################

data_GOCDIM
_symmetry_cell_setting           triclinic
_symmetry_space_group_name_H-M   'P -1'
_symmetry_Int_Tables_number      2
_space_group_name_Hall           '-P 1'
loop_
_symmetry_equiv_pos_site_id
_symmetry_equiv_pos_as_xyz
1 x,y,z
2 -x,-y,-z
_cell_length_a                   9.992(2)
_cell_length_b                   13.992(3)
_cell_length_c                   17.802(4)
_cell_angle_alpha                79.044(6)
_cell_angle_beta                 87.595(6)
_cell_angle_gamma                83.709(4)
_cell_volume                     2428.22
loop_
_atom_site_label
_atom_site_type_symbol
_atom_site_fract_x
_atom_site_fract_y
_atom_site_fract_z
Cu1 Cu 0.05887(4) -0.08573(2) 0.95310(2)
Cu2 Cu 0.91096(4) 0.08573(2) 0.543650(19)
I1 I -0.129622(19) 0.061088(13) 0.906945(10)
I2 I 1.12011(2) -0.046887(14) 0.593872(11)
N1 N 0.2211(2) -0.04413(16) 0.88474(13)
N2 N 0.7645(2) 0.02793(16) 0.61791(14)
P1 P 0.00362(8) -0.23801(5) 0.96496(4)
P2 P 0.92137(7) 0.24527(5) 0.53788(4)
C1 C -0.0850(3) -0.2733(2) 1.05791(16)
H1 H -0.0218 -0.2643 1.0975
C2 C -0.2104(3) -0.2023(2) 1.06632(17)
H2 H -0.1870 -0.1341 1.0525
H3 H -0.2801 -0.2108 1.0309
C3 C -0.2660(3) -0.2210(2) 1.14862(18)
H4 H -0.1999 -0.2055 1.1833
H5 H -0.3500 -0.1773 1.1523
C4 C -0.2953(3) -0.3276(2) 1.17407(17)
H6 H -0.3241 -0.3385 1.2287
H7 H -0.3703 -0.3403 1.1439
C5 C -0.1734(3) -0.3982(2) 1.16363(17)
H8 H -0.1982 -0.4661 1.1767
H9 H -0.1023 -0.3915 1.1988
C6 C -0.1189(3) -0.3784(2) 1.08076(17)
H10 H -0.0371 -0.4238 1.0758
H11 H -0.1872 -0.3906 1.0459
C7 C -0.1074(3) -0.26690(19) 0.89301(16)
H12 H -0.2016 -0.2480 0.9100
C8 C -0.0885(3) -0.2034(2) 0.81294(16)
H13 H -0.0980 -0.1334 0.8173
H14 H 0.0034 -0.2197 0.7929
C9 C -0.1915(3) -0.2198(2) 0.75708(18)
H15 H -0.1728 -0.1814 0.7057
H16 H -0.2827 -0.1960 0.7739
C10 C -0.1876(3) -0.3277(2) 0.75216(17)
H17 H -0.0999 -0.3497 0.7297
H18 H -0.2594 -0.3364 0.7182
C11 C -0.2071(3) -0.3902(2) 0.83127(17)
H19 H -0.2982 -0.3724 0.8517
H20 H -0.1999 -0.4601 0.8271
C12 C -0.1018(3) -0.3748(2) 0.88591(16)
H21 H -0.0112 -0.3968 0.8671
H22 H -0.1173 -0.4150 0.9370
C13 C 0.1545(3) -0.3291(2) 0.96987(16)
H23 H 0.1246 -0.3963 0.9777
C14 C 0.2386(3) -0.3212(2) 1.03873(18)
H24 H 0.2543 -0.2519 1.0359
H25 H 0.1870 -0.3421 1.0866
C15 C 0.3732(3) -0.3833(2) 1.04114(19)
H26 H 0.4258 -0.3721 1.0840
H27 H 0.3579 -0.4534 1.0507
C16 C 0.4532(3) -0.3595(3) 0.96716(19)
H28 H 0.4739 -0.2906 0.9590
H29 H 0.5394 -0.4021 0.9703
C17 C 0.3741(3) -0.3747(2) 0.90067(19)
H30 H 0.3585 -0.4445 0.9073
H31 H 0.4267 -0.3576 0.8525
C18 C 0.2385(3) -0.3113(2) 0.89533(18)
H32 H 0.1868 -0.3255 0.8532
H33 H 0.2547 -0.2415 0.8828
C19 C 0.3481(3) -0.0566(2) 0.90804(17)
H34 H 0.3638 -0.0737 0.9614
C20 C 0.4576(3) -0.0458(2) 0.85846(16)
H35 H 0.5462 -0.0562 0.8778
C21 C 0.4380(3) -0.01969(19) 0.78030(16)
C22 C 0.3053(3) -0.0045(2) 0.75635(16)
H36 H 0.2864 0.0148 0.7035
C23 C 0.2018(3) -0.0175(2) 0.80925(17)
H37 H 0.1120 -0.0071 0.7915
C24 C 0.7748(3) 0.0367(2) 0.69117(17)
H38 H 0.8575 0.0534 0.7069
C25 C 0.6714(3) 0.0227(2) 0.74481(16)
H39 H 0.6824 0.0323 0.7955
C26 C 0.5512(3) -0.00553(19) 0.72407(16)
C27 C 0.5419(3) -0.0197(2) 0.64935(16)
H40 H 0.4630 -0.0417 0.6333
C28 C 0.6494(3) -0.0011(2) 0.59837(16)
H41 H 0.6408 -0.0095 0.5471
C29 C 0.8466(3) 0.2939(2) 0.62200(16)
H42 H 0.8855 0.2469 0.6672
C30 C 0.8804(3) 0.3942(2) 0.63369(18)
H43 H 0.9789 0.3970 0.6283
H44 H 0.8368 0.4458 0.5937
C31 C 0.8330(3) 0.4136(2) 0.71199(19)
H45 H 0.8527 0.4799 0.7169
H46 H 0.8828 0.3657 0.7520
C32 C 0.6821(3) 0.4059(3) 0.7242(2)
H47 H 0.6554 0.4137 0.7770
H48 H 0.6317 0.4593 0.6884
C33 C 0.6460(3) 0.3078(3) 0.71097(19)
H49 H 0.5471 0.3064 0.7159
H50 H 0.6881 0.2549 0.7506
C34 C 0.6937(3) 0.2897(2) 0.63186(17)
H51 H 0.6468 0.3399 0.5921
H52 H 0.6710 0.2247 0.6253
C35 C 0.8471(3) 0.3181(2) 0.44876(16)
H53 H 0.9024 0.2945 0.4065
C36 C 0.8528(3) 0.4289(2) 0.43323(18)
H54 H 0.9457 0.4433 0.4402
H55 H 0.7928 0.4584 0.4702
C37 C 0.8087(3) 0.4739(2) 0.35138(18)
H56 H 0.8088 0.5459 0.3433
H57 H 0.8741 0.4491 0.3145
C38 C 0.6691(3) 0.4492(2) 0.33652(18)
H58 H 0.6470 0.4750 0.2823
H59 H 0.6021 0.4814 0.3687
C39 C 0.6603(3) 0.3394(2) 0.35406(18)
H60 H 0.7194 0.3078 0.3178
H61 H 0.5667 0.3261 0.3473
C40 C 0.7032(3) 0.2960(2) 0.43645(17)
H62 H 0.6991 0.2243 0.4465
H63 H 0.6403 0.3243 0.4729
C41 C 1.0963(3) 0.2783(2) 0.53282(16)
H64 H 1.0939 0.3511 0.5258
C42 C 1.1679(3) 0.2316(2) 0.60838(16)
H65 H 1.1252 0.2622 0.6504
H66 H 1.1559 0.1610 0.6205
C43 C 1.3183(3) 0.2439(2) 0.60410(18)
H67 H 1.3308 0.3141 0.5990
H68 H 1.3610 0.2083 0.6520
C44 C 1.3863(3) 0.2048(2) 0.53604(18)
H69 H 1.4830 0.2148 0.5337
H70 H 1.3791 0.1336 0.5428
C45 C 1.3204(3) 0.2570(2) 0.46177(18)
H71 H 1.3324 0.3275 0.4536
H72 H 1.3648 0.2301 0.4184
C46 C 1.1712(3) 0.2442(2) 0.46408(17)
H73 H 1.1602 0.1743 0.4662
H74 H 1.1301 0.2819 0.4163
Cu1A Cu -0.05887(4) 0.08573(2) 1.04690(2)
Cu2A Cu 1.08904(4) -0.08573(2) 0.456350(19)
I1A I 0.129622(19) -0.061088(13) 1.093055(10)
I2A I 0.87989(2) 0.046887(14) 0.406128(11)
loop_
_geom_bond_atom_site_label_1
_geom_bond_atom_site_label_2
_geom_bond_site_symmetry_1
_geom_bond_site_symmetry_2
Cu1 I1 1_555 1_555
Cu2 I2 1_555 1_555
I1 Cu1A 1_555 1_555
I2 Cu2A 1_555 1_555
N1 Cu1 1_555 1_555
N2 Cu2 1_555 1_555
P1 Cu1 1_555 1_555
P2 Cu2 1_555 1_555
C1 P1 1_555 1_555
H1 C1 1_555 1_555
C2 C1 1_555 1_555
H2 C2 1_555 1_555
H3 C2 1_555 1_555
C3 C2 1_555 1_555
H4 C3 1_555 1_555
H5 C3 1_555 1_555
C4 C3 1_555 1_555
H6 C4 1_555 1_555
H7 C4 1_555 1_555
C5 C4 1_555 1_555
H8 C5 1_555 1_555
H9 C5 1_555 1_555
C6 C1 1_555 1_555
H10 C6 1_555 1_555
H11 C6 1_555 1_555
C7 P1 1_555 1_555
H12 C7 1_555 1_555
C8 C7 1_555 1_555
H13 C8 1_555 1_555
H14 C8 1_555 1_555
C9 C8 1_555 1_555
H15 C9 1_555 1_555
H16 C9 1_555 1_555
C10 C9 1_555 1_555
H17 C10 1_555 1_555
H18 C10 1_555 1_555
C11 C10 1_555 1_555
H19 C11 1_555 1_555
H20 C11 1_555 1_555
C12 C7 1_555 1_555
H21 C12 1_555 1_555
H22 C12 1_555 1_555
C13 P1 1_555 1_555
H23 C13 1_555 1_555
C14 C13 1_555 1_555
H24 C14 1_555 1_555
H25 C14 1_555 1_555
C15 C14 1_555 1_555
H26 C15 1_555 1_555
H27 C15 1_555 1_555
C16 C15 1_555 1_555
H28 C16 1_555 1_555
H29 C16 1_555 1_555
C17 C16 1_555 1_555
H30 C17 1_555 1_555
H31 C17 1_555 1_555
C18 C13 1_555 1_555
H32 C18 1_555 1_555
H33 C18 1_555 1_555
C19 N1 1_555 1_555
H34 C19 1_555 1_555
C20 C19 1_555 1_555
H35 C20 1_555 1_555
C21 C20 1_555 1_555
C22 C21 1_555 1_555
H36 C22 1_555 1_555
C23 N1 1_555 1_555
H37 C23 1_555 1_555
C24 N2 1_555 1_555
H38 C24 1_555 1_555
C25 C24 1_555 1_555
H39 C25 1_555 1_555
C26 C21 1_555 1_555
C27 C26 1_555 1_555
H40 C27 1_555 1_555
C28 N2 1_555 1_555
H41 C28 1_555 1_555
C29 P2 1_555 1_555
H42 C29 1_555 1_555
C30 C29 1_555 1_555
H43 C30 1_555 1_555
H44 C30 1_555 1_555
C31 C30 1_555 1_555
H45 C31 1_555 1_555
H46 C31 1_555 1_555
C32 C31 1_555 1_555
H47 C32 1_555 1_555
H48 C32 1_555 1_555
C33 C32 1_555 1_555
H49 C33 1_555 1_555
H50 C33 1_555 1_555
C34 C29 1_555 1_555
H51 C34 1_555 1_555
H52 C34 1_555 1_555
C35 P2 1_555 1_555
H53 C35 1_555 1_555
C36 C35 1_555 1_555
H54 C36 1_555 1_555
H55 C36 1_555 1_555
C37 C36 1_555 1_555
H56 C37 1_555 1_555
H57 C37 1_555 1_555
C38 C37 1_555 1_555
H58 C38 1_555 1_555
H59 C38 1_555 1_555
C39 C38 1_555 1_555
H60 C39 1_555 1_555
H61 C39 1_555 1_555
C40 C35 1_555 1_555
H62 C40 1_555 1_555
H63 C40 1_555 1_555
C41 P2 1_555 1_555
H64 C41 1_555 1_555
C42 C41 1_555 1_555
H65 C42 1_555 1_555
H66 C42 1_555 1_555
C43 C42 1_555 1_555
H67 C43 1_555 1_555
H68 C43 1_555 1_555
C44 C43 1_555 1_555
H69 C44 1_555 1_555
H70 C44 1_555 1_555
C45 C44 1_555 1_555
H71 C45 1_555 1_555
H72 C45 1_555 1_555
C46 C41 1_555 1_555
H73 C46 1_555 1_555
H74 C46 1_555 1_555
Cu1A I1A 1_555 1_555
Cu2A I2A 1_555 1_555
I1A Cu1 1_555 1_555
I2A Cu2 1_555 1_555
C5 C6 1_555 1_555
C11 C12 1_555 1_555
C17 C18 1_555 1_555
C22 C23 1_555 1_555
C25 C26 1_555 1_555
C27 C28 1_555 1_555
C33 C34 1_555 1_555
C39 C40 1_555 1_555
C45 C46 1_555 1_555

#END
