
#######################################################################
#
#                 Cambridge Crystallographic Data Centre
#                                CCDC 
#
#######################################################################
#
# If this CIF has been generated from an entry in the Cambridge 
# Structural Database, then it will include bibliographic, chemical, 
# crystal, experimental, refinement or atomic coordinate data resulting 
# from the CCDC's data processing and validation procedures.
#
#######################################################################

data_GOCDOS
_symmetry_cell_setting           orthorhombic
_symmetry_space_group_name_H-M   'P b n 21'
_symmetry_Int_Tables_number      33
_space_group_name_Hall           'P 2c -2ab'
loop_
_symmetry_equiv_pos_site_id
_symmetry_equiv_pos_as_xyz
1 x,y,z
2 -x,-y,1/2+z
3 1/2-x,1/2+y,z
4 1/2+x,1/2-y,1/2+z
_cell_length_a                   17.413(5)
_cell_length_b                   19.386(5)
_cell_length_c                   23.367(6)
_cell_angle_alpha                90
_cell_angle_beta                 90
_cell_angle_gamma                90
_cell_volume                     7887.96
loop_
_atom_site_label
_atom_site_type_symbol
_atom_site_fract_x
_atom_site_fract_y
_atom_site_fract_z
I1 I 0.384987(9) -0.000761(10) -0.89473(6)
I2 I 0.129526(9) -0.005199(12) -0.89476(6)
I3 I 0.385323(9) 0.246077(9) -0.39472(5)
I4 I 0.133439(9) 0.266029(10) -0.39489(5)
Cu1 Cu 0.26058(2) -0.04462(2) -0.836843(18)
Cu2 Cu 0.26050(2) -0.04435(2) -0.952862(19)
Cu3 Cu 0.26394(2) 0.29827(2) -0.453084(19)
Cu4 Cu 0.26353(2) 0.29834(2) -0.336508(19)
P1 P 0.25601(4) -0.15772(5) -0.82829(4)
P2 P 0.25691(4) -0.15884(5) -0.96157(4)
P3 P 0.27049(4) 0.41268(5) -0.46163(4)
P4 P 0.27119(5) 0.41202(5) -0.32821(4)
N1 N 0.26135(12) 0.02112(13) -0.76848(11)
N2 N 0.26107(13) 0.23263(15) -0.52072(13)
N3 N 0.26280(13) 0.02179(15) -1.01798(13)
N4 N 0.25929(13) 0.23324(14) -1.26702(12)
C1 C 0.16213(16) -0.19353(16) -0.81550(14)
H1 H 0.1352 -0.1898 -0.8522
C2 C 0.16010(17) -0.26821(18) -0.80096(17)
H2 H 0.1904 -0.2772 -0.7669
H3 H 0.1806 -0.2954 -0.8322
C3 C 0.07012(17) -0.28778(18) -0.78969(16)
H4 H 0.0444 -0.2847 -0.8264
H5 H 0.0690 -0.3360 -0.7786
C4 C 0.0281(2) -0.25531(19) -0.75372(19)
H6 H 0.0467 -0.2625 -0.7151
H7 H -0.0246 -0.2713 -0.7559
C5 C 0.03289(19) -0.1792(2) -0.76969(18)
H8 H 0.0079 -0.1720 -0.8063
H9 H 0.0058 -0.1521 -0.7413
C6 C 0.11165(18) -0.1560(2) -0.77317(16)
H10 H 0.1346 -0.1602 -0.7355
H11 H 0.1115 -0.1074 -0.7831
C7 C 0.32453(15) -0.19759(17) -0.77739(12)
H12 H 0.3220 -0.2480 -0.7805
C8 C 0.3020(2) -0.1752(2) -0.71679(18)
H13 H 0.2503 -0.1914 -0.7093
H14 H 0.3006 -0.1251 -0.7158
C9 C 0.3549(2) -0.2005(2) -0.66724(18)
H15 H 0.3446 -0.2487 -0.6589
H16 H 0.3452 -0.1738 -0.6329
C10 C 0.44843(19) -0.1907(2) -0.68805(19)
H17 H 0.4599 -0.1428 -0.6964
H18 H 0.4834 -0.2071 -0.6588
C11 C 0.45344(19) -0.23708(18) -0.74440(17)
H19 H 0.4261 -0.2804 -0.7410
H20 H 0.5057 -0.2450 -0.7571
C12 C 0.40309(17) -0.17417(19) -0.78720(16)
H21 H 0.4112 -0.1276 -0.7733
H22 H 0.4173 -0.1769 -0.8273
C13 C 0.15900(16) -0.19540(17) -0.97727(14)
H23 H 0.1292 -0.1858 -0.9426
C14 C 0.11787(16) -0.1559(2) -1.02353(16)
H24 H 0.1431 -0.1634 -1.0600
H25 H 0.1193 -0.1069 -1.0151
C15 C 0.03094(18) -0.18153(19) -1.02700(18)
H26 H 0.0029 -0.1661 -0.9935
H27 H 0.0063 -0.1622 -1.0606
C16 C 0.02976(18) -0.2615(2) -1.03020(19)
H28 H 0.0506 -0.2750 -1.0670
H29 H -0.0234 -0.2763 -1.0293
C17 C 0.07420(17) -0.30202(18) -0.98277(16)
H30 H 0.0509 -0.2943 -0.9456
H31 H 0.0736 -0.3511 -0.9908
C18 C 0.15546(18) -0.27479(17) -0.98363(18)
H32 H 0.1797 -0.2879 -1.0194
H33 H 0.1842 -0.2959 -0.9527
C19 C 0.31783(17) -0.1970(2) -1.01618(16)
H34 H 0.3037 -0.2459 -1.0182
C20 C 0.40538(18) -0.1947(2) -0.99815(16)
H35 H 0.4151 -0.1518 -0.9781
H36 H 0.4153 -0.2321 -0.9717
C21 C 0.45978(17) -0.20019(17) -1.04674(16)
H37 H 0.5040 -0.1718 -1.0377
H38 H 0.4776 -0.2476 -1.0482
C22 C 0.4341(2) -0.1813(3) -1.10471(17)
H39 H 0.4393 -0.1318 -1.1093
H40 H 0.4679 -0.2031 -1.1323
C23 C 0.36316(18) -0.1987(2) -1.11650(16)
H41 H 0.3588 -0.2486 -1.1169
H42 H 0.3497 -0.1818 -1.1543
C24 C 0.3090(2) -0.1698(2) -1.07358(14)
H43 H 0.3158 -0.1201 -1.0722
H44 H 0.2569 -0.1787 -1.0863
C25 C 0.28520(13) -0.20135(12) -0.8974(3)
H45 H 0.3407 -0.2060 -0.8977
H46 H 0.2636 -0.2475 -0.8977
C26 C 0.17832(16) 0.45517(15) -0.47524(14)
H47 H 0.1471 0.4484 -0.4408
C27 C 0.13451(15) 0.41736(16) -0.52598(14)
H48 H 0.1321 0.3682 -0.5185
H49 H 0.1620 0.4243 -0.5616
C28 C 0.04787(16) 0.44851(15) -0.53139(17)
H50 H 0.0231 0.4295 -0.5651
H51 H 0.0181 0.4351 -0.4981
C29 C 0.05003(17) 0.52930(15) -0.53597(17)
H52 H 0.0730 0.5425 -0.5722
H53 H -0.0020 0.5471 -0.5351
C30 C 0.09651(15) 0.56143(16) -0.48652(15)
H54 H 0.0721 0.5506 -0.4503
H55 H 0.0975 0.6112 -0.4907
C31 C 0.1800(2) 0.53300(16) -0.48664(18)
H56 H 0.2039 0.5420 -0.5234
H57 H 0.2099 0.5560 -0.4573
C32 C 0.33993(17) 0.44849(19) -0.51635(15)
H58 H 0.3382 0.4989 -0.5141
C33 C 0.32047(18) 0.4288(2) -0.57344(14)
H59 H 0.2712 0.4488 -0.5835
H60 H 0.3154 0.3790 -0.5752
C34 C 0.37835(19) 0.4512(2) -0.61520(17)
H61 H 0.3828 0.5010 -0.6144
H62 H 0.3627 0.4375 -0.6534
C35 C 0.46286(19) 0.4158(2) -0.59967(18)
H63 H 0.4598 0.3658 -0.6011
H64 H 0.5020 0.4311 -0.6263
C36 C 0.48002(17) 0.4390(2) -0.54233(17)
H65 H 0.4874 0.4886 -0.5436
H66 H 0.5285 0.4186 -0.5309
C37 C 0.42353(17) 0.42398(19) -0.49783(16)
H67 H 0.4382 0.4472 -0.4627
H68 H 0.4229 0.3748 -0.4904
C38 C 0.34274(16) 0.44914(19) -0.27792(13)
H69 H 0.3473 0.4992 -0.2830
C39 C 0.42035(17) 0.4130(2) -0.28809(17)
H70 H 0.4376 0.4231 -0.3267
H71 H 0.4130 0.3635 -0.2852
C40 C 0.4858(2) 0.4360(2) -0.24386(19)
H72 H 0.5335 0.4120 -0.2518
H73 H 0.4949 0.4853 -0.2462
C41 C 0.45447(19) 0.41606(19) -0.18365(16)
H74 H 0.4476 0.3664 -0.1823
H75 H 0.4927 0.4282 -0.1552
C42 C 0.38581(18) 0.44722(19) -0.16905(17)
H76 H 0.3933 0.4968 -0.1672
H77 H 0.3703 0.4315 -0.1314
C43 C 0.31804(18) 0.4304(2) -0.21438(16)
H78 H 0.3053 0.3817 -0.2123
H79 H 0.2725 0.4564 -0.2042
C44 C 0.17776(16) 0.45308(16) -0.31256(15)
H80 H 0.1485 0.4467 -0.3480
C45 C 0.13034(18) 0.41930(18) -0.26917(17)
H81 H 0.1267 0.3707 -0.2787
H82 H 0.1566 0.4227 -0.2327
C46 C 0.05613(17) 0.44501(18) -0.26235(17)
H83 H 0.0303 0.4191 -0.2325
H84 H 0.0278 0.4383 -0.2976
C47 C 0.0552(2) 0.51981(19) -0.24717(19)
H85 H 0.0027 0.5362 -0.2444
H86 H 0.0801 0.5270 -0.2105
C48 C 0.0954(2) 0.5568(2) -0.2914(2)
H87 H 0.0982 0.6050 -0.2805
H88 H 0.0655 0.5541 -0.3264
C49 C 0.17799(16) 0.53075(17) -0.30407(17)
H89 H 0.1975 0.5531 -0.3383
H90 H 0.2116 0.5426 -0.2724
C50 C 0.30200(12) 0.45318(12) -0.3943(5)
H91 H 0.3577 0.4549 -0.3944
H92 H 0.2837 0.5004 -0.3940
C51 C 0.19605(17) 0.05538(14) -0.75182(10)
H93 H 0.1524 0.0530 -0.7746
C52 C 0.19404(17) 0.09305(14) -0.70216(10)
H94 H 0.1478 0.1100 -0.6880
C53 C 0.26366(16) 0.10560(16) -0.67289(13)
C54 C 0.32973(18) 0.07893(13) -0.69260(10)
H95 H 0.3761 0.0896 -0.6749
C55 C 0.32815(17) 0.03588(13) -0.73903(11)
H96 H 0.3738 0.0158 -0.7512
C56 C 0.26317(16) 0.14795(17) -0.62154(16)
C57 C 0.19902(17) 0.15265(13) -0.58481(9)
H97 H 0.1551 0.1271 -0.5926
C58 C 0.20118(18) 0.19491(13) -0.53742(10)
H98 H 0.1570 0.1973 -0.5152
C59 C 0.31941(18) 0.22595(15) -0.55528(9)
H99 H 0.3636 0.2498 -0.5448
C60 C 0.32463(16) 0.18859(14) -0.60499(9)
H100 H 0.3688 0.1905 -0.6272
C61 C 0.32470(19) 0.03427(14) -1.04766(10)
H101 H 0.3703 0.0157 -1.0338
C62 C 0.32940(18) 0.07198(15) -1.09720(10)
H102 H 0.3765 0.0773 -1.1155
C63 C 0.26119(16) 0.10351(18) -1.12110(16)
C64 C 0.26145(16) 0.14923(17) -1.17196(13)
C65 C 0.32398(19) 0.18740(13) -1.18667(10)
H103 H 0.3685 0.1840 -1.1649
C66 C 0.32265(18) 0.23058(13) -1.23289(10)
H104 H 0.3650 0.2581 -1.2410
C67 C 0.19942(18) 0.19205(13) -1.25684(10)
H105 H 0.1583 0.1904 -1.2822
C68 C 0.19958(19) 0.15191(14) -1.20804(10)
H106 H 0.1563 0.1258 -1.1994
C69 C 0.19904(17) 0.09223(14) -1.08799(10)
H107 H 0.1532 0.1144 -1.0967
C70 C 0.20184(18) 0.04869(13) -1.04161(10)
H108 H 0.1549 0.0371 -1.0252
Cu4_2 Cu 0.26353(2) 0.29834(2) -1.336508(19)
N4_2 N 0.25929(13) 0.23324(14) -0.26702(12)
loop_
_geom_bond_atom_site_label_1
_geom_bond_atom_site_label_2
_geom_bond_site_symmetry_1
_geom_bond_site_symmetry_2
I1 Cu1 1_555 1_555
I2 Cu1 1_555 1_555
I3 Cu3 1_555 1_555
I4 Cu3 1_555 1_555
Cu1 P1 1_555 1_555
Cu2 I1 1_555 1_555
Cu3 P3 1_555 1_555
Cu4 I3 1_555 1_555
P1 C1 1_555 1_555
P2 Cu2 1_555 1_555
P3 C26 1_555 1_555
P4 Cu4 1_555 1_555
N1 Cu1 1_555 1_555
N2 Cu3 1_555 1_555
N3 Cu2 1_555 1_555
N4 C66 1_555 1_555
C1 H1 1_555 1_555
C2 C1 1_555 1_555
H2 C2 1_555 1_555
H3 C2 1_555 1_555
C3 C2 1_555 1_555
H4 C3 1_555 1_555
H5 C3 1_555 1_555
C4 C3 1_555 1_555
H6 C4 1_555 1_555
H7 C4 1_555 1_555
C5 C4 1_555 1_555
H8 C5 1_555 1_555
H9 C5 1_555 1_555
C6 C1 1_555 1_555
H10 C6 1_555 1_555
H11 C6 1_555 1_555
C7 P1 1_555 1_555
H12 C7 1_555 1_555
C8 C7 1_555 1_555
H13 C8 1_555 1_555
H14 C8 1_555 1_555
C9 C8 1_555 1_555
H15 C9 1_555 1_555
H16 C9 1_555 1_555
C10 C9 1_555 1_555
H17 C10 1_555 1_555
H18 C10 1_555 1_555
C11 C10 1_555 1_555
H19 C11 1_555 1_555
H20 C11 1_555 1_555
C12 C7 1_555 1_555
H21 C12 1_555 1_555
H22 C12 1_555 1_555
C13 P2 1_555 1_555
H23 C13 1_555 1_555
C14 C13 1_555 1_555
H24 C14 1_555 1_555
H25 C14 1_555 1_555
C15 C14 1_555 1_555
H26 C15 1_555 1_555
H27 C15 1_555 1_555
C16 C15 1_555 1_555
H28 C16 1_555 1_555
H29 C16 1_555 1_555
C17 C16 1_555 1_555
H30 C17 1_555 1_555
H31 C17 1_555 1_555
C18 C13 1_555 1_555
H32 C18 1_555 1_555
H33 C18 1_555 1_555
C19 P2 1_555 1_555
H34 C19 1_555 1_555
C20 C19 1_555 1_555
H35 C20 1_555 1_555
H36 C20 1_555 1_555
C21 C20 1_555 1_555
H37 C21 1_555 1_555
H38 C21 1_555 1_555
C22 C21 1_555 1_555
H39 C22 1_555 1_555
H40 C22 1_555 1_555
C23 C22 1_555 1_555
H41 C23 1_555 1_555
H42 C23 1_555 1_555
C24 C19 1_555 1_555
H43 C24 1_555 1_555
H44 C24 1_555 1_555
C25 P1 1_555 1_555
H45 C25 1_555 1_555
H46 C25 1_555 1_555
C26 H47 1_555 1_555
C27 C26 1_555 1_555
H48 C27 1_555 1_555
H49 C27 1_555 1_555
C28 C27 1_555 1_555
H50 C28 1_555 1_555
H51 C28 1_555 1_555
C29 C28 1_555 1_555
H52 C29 1_555 1_555
H53 C29 1_555 1_555
C30 C29 1_555 1_555
H54 C30 1_555 1_555
H55 C30 1_555 1_555
C31 C26 1_555 1_555
H56 C31 1_555 1_555
H57 C31 1_555 1_555
C32 P3 1_555 1_555
H58 C32 1_555 1_555
C33 C32 1_555 1_555
H59 C33 1_555 1_555
H60 C33 1_555 1_555
C34 C33 1_555 1_555
H61 C34 1_555 1_555
H62 C34 1_555 1_555
C35 C34 1_555 1_555
H63 C35 1_555 1_555
H64 C35 1_555 1_555
C36 C35 1_555 1_555
H65 C36 1_555 1_555
H66 C36 1_555 1_555
C37 C32 1_555 1_555
H67 C37 1_555 1_555
H68 C37 1_555 1_555
C38 P4 1_555 1_555
H69 C38 1_555 1_555
C39 C38 1_555 1_555
H70 C39 1_555 1_555
H71 C39 1_555 1_555
C40 C39 1_555 1_555
H72 C40 1_555 1_555
H73 C40 1_555 1_555
C41 C40 1_555 1_555
H74 C41 1_555 1_555
H75 C41 1_555 1_555
C42 C41 1_555 1_555
H76 C42 1_555 1_555
H77 C42 1_555 1_555
C43 C38 1_555 1_555
H78 C43 1_555 1_555
H79 C43 1_555 1_555
C44 P4 1_555 1_555
H80 C44 1_555 1_555
C45 C44 1_555 1_555
H81 C45 1_555 1_555
H82 C45 1_555 1_555
C46 C45 1_555 1_555
H83 C46 1_555 1_555
H84 C46 1_555 1_555
C47 C46 1_555 1_555
H85 C47 1_555 1_555
H86 C47 1_555 1_555
C48 C47 1_555 1_555
H87 C48 1_555 1_555
H88 C48 1_555 1_555
C49 C44 1_555 1_555
H89 C49 1_555 1_555
H90 C49 1_555 1_555
C50 P3 1_555 1_555
H91 C50 1_555 1_555
H92 C50 1_555 1_555
C51 N1 1_555 1_555
H93 C51 1_555 1_555
C52 C51 1_555 1_555
H94 C52 1_555 1_555
C53 C52 1_555 1_555
C54 C53 1_555 1_555
H95 C54 1_555 1_555
C55 N1 1_555 1_555
H96 C55 1_555 1_555
C56 C53 1_555 1_555
C57 C56 1_555 1_555
H97 C57 1_555 1_555
C58 N2 1_555 1_555
H98 C58 1_555 1_555
C59 N2 1_555 1_555
H99 C59 1_555 1_555
C60 C56 1_555 1_555
H100 C60 1_555 1_555
C61 N3 1_555 1_555
H101 C61 1_555 1_555
C62 C61 1_555 1_555
H102 C62 1_555 1_555
C63 C62 1_555 1_555
C64 C63 1_555 1_555
C65 C64 1_555 1_555
H103 C65 1_555 1_555
C66 C65 1_555 1_555
H104 C66 1_555 1_555
C67 N4 1_555 1_555
H105 C67 1_555 1_555
C68 C64 1_555 1_555
H106 C68 1_555 1_555
C69 C63 1_555 1_555
H107 C69 1_555 1_555
C70 N3 1_555 1_555
H108 C70 1_555 1_555
Cu4_2 N4 1_555 1_555
N4_2 Cu4 1_555 1_555
I2 Cu2 1_555 1_555
I4 Cu4 1_555 1_555
P2 C25 1_555 1_555
P4 C50 1_555 1_555
C5 C6 1_555 1_555
C11 C12 1_555 1_555
C17 C18 1_555 1_555
C23 C24 1_555 1_555
C30 C31 1_555 1_555
C36 C37 1_555 1_555
C42 C43 1_555 1_555
C48 C49 1_555 1_555
C54 C55 1_555 1_555
C57 C58 1_555 1_555
C59 C60 1_555 1_555
C67 C68 1_555 1_555
C69 C70 1_555 1_555

#END
