
#######################################################################
#
#                 Cambridge Crystallographic Data Centre
#                                CCDC 
#
#######################################################################
#
# If this CIF has been generated from an entry in the Cambridge 
# Structural Database, then it will include bibliographic, chemical, 
# crystal, experimental, refinement or atomic coordinate data resulting 
# from the CCDC's data processing and validation procedures.
#
#######################################################################

data_GOCFAH
_symmetry_cell_setting           monoclinic
_symmetry_space_group_name_H-M   'P 21/c'
_symmetry_Int_Tables_number      14
_space_group_name_Hall           '-P 2ybc'
loop_
_symmetry_equiv_pos_site_id
_symmetry_equiv_pos_as_xyz
1 x,y,z
2 -x,1/2+y,1/2-z
3 -x,-y,-z
4 x,1/2-y,1/2+z
_cell_length_a                   9.767(3)
_cell_length_b                   16.487(5)
_cell_length_c                   17.720(6)
_cell_angle_alpha                90
_cell_angle_beta                 95.112(5)
_cell_angle_gamma                90
_cell_volume                     2842.08
loop_
_atom_site_label
_atom_site_type_symbol
_atom_site_fract_x
_atom_site_fract_y
_atom_site_fract_z
Eu1 Eu 0.73378(3) 0.520677(15) 0.012899(16)
O1 O 0.7116(6) 0.4805(3) 0.2433(3)
N1 N 0.7946(5) 0.1779(3) -0.1777(3)
C1 C 0.2357(5) 0.8031(3) -0.0752(3)
O2 O 0.8855(4) 0.4197(2) -0.0162(2)
O3 O 0.6660(5) 0.5004(3) -0.1236(3)
C2 C 0.9640(6) 0.2253(3) -0.0815(3)
C3 C 0.9656(6) 0.3782(3) -0.0518(3)
O4 O 0.6595(5) 0.5522(2) 0.1417(2)
C4 C 0.0984(6) 0.8821(4) -0.1752(3)
H1 H 0.1534 0.9283 -0.1617
N2 N 0.2732(5) 0.8703(3) -0.0375(3)
C5 C 0.7341(6) 0.2510(3) -0.1860(3)
C6 C 0.7892(6) 0.3135(3) -0.1409(3)
H2 H 0.7456 0.3650 -0.1442
C7 C 0.6140(6) 0.2609(3) -0.2415(3)
C8 C 0.3815(6) 0.8660(3) 0.0172(3)
O5 O 0.4354(5) 0.5797(2) -0.0127(3)
C9 C 0.4184(6) 0.7241(3) -0.0099(3)
O6 O 0.6268(4) 0.6492(2) 0.0031(2)
C10 C 0.4615(6) 0.7939(3) 0.0328(3)
O7 O 0.7980(5) 0.4518(3) 0.1378(3)
O8 O 1.0860(4) 0.3935(2) -0.0596(2)
C11 C 0.3049(5) 0.7287(3) -0.0612(3)
H3 H 0.2725 0.6813 -0.0876
N3 N 0.7221(6) 0.4944(3) 0.1759(3)
C12 C 0.4975(6) 0.6462(3) -0.0052(3)
O9 O 0.8414(5) 0.5780(3) -0.0992(3)
C13 C 0.0400(6) 0.7429(4) -0.1570(3)
H4 H 0.0542 0.6929 -0.1308
C14 C 0.5732(6) 0.7970(4) 0.0887(3)
H5 H 0.6262 0.7495 0.0998
C15 C 0.4188(8) 0.9367(4) 0.0591(4)
H6 H 0.3665 0.9849 0.0499
C16 C 0.5441(7) 0.1962(4) -0.2750(4)
H7 H 0.5750 0.1427 -0.2631
C17 C 0.1226(6) 0.8091(3) -0.1362(3)
O10 O 0.7847(7) 0.5390(3) -0.2151(3)
C18 C 0.9035(6) 0.1620(3) -0.1258(3)
N4 N 0.7648(7) 0.5401(3) -0.1485(3)
C19 C 0.5285(7) 0.9372(4) 0.1124(4)
H8 H 0.5519 0.9856 0.1397
C20 C 0.9038(6) 0.3038(3) -0.0918(3)
C21 C 0.9549(7) 0.0824(3) -0.1173(4)
H9 H 0.9150 0.0399 -0.1480
C22 C 1.0742(6) 0.2074(4) -0.0286(4)
H10 H 1.1174 0.2491 0.0019
C23 C 0.4301(8) 0.2072(5) -0.3253(4)
H11 H 0.3842 0.1615 -0.3484
C24 C -0.0040(7) 0.8872(4) -0.2328(4)
H12 H -0.0195 0.9369 -0.2593
C25 C -0.0612(6) 0.7492(5) -0.2147(4)
H13 H -0.1163 0.7033 -0.2288
C26 C 0.5634(7) 0.3385(4) -0.2590(4)
H14 H 0.6086 0.3844 -0.2359
C27 C 1.1194(7) 0.1290(4) -0.0211(4)
H15 H 1.1932 0.1166 0.0157
C28 C 0.4488(8) 0.3496(5) -0.3095(4)
H16 H 0.4157 0.4027 -0.3215
C29 C -0.0844(7) 0.8212(5) -0.2526(4)
H17 H -0.1559 0.8252 -0.2924
C30 C 0.6070(7) 0.8668(4) 0.1274(4)
H18 H 0.6835 0.8677 0.1644
C31 C 1.0602(8) 0.0671(4) -0.0658(4)
H19 H 1.0947 0.0134 -0.0599
C32 C 0.3831(7) 0.2826(5) -0.3421(4)
H20 H 0.3039 0.2896 -0.3767
H21 H 0.7583 0.1381 -0.2138
Eu1B Eu 0.26622(3) 0.479323(15) -0.012899(16)
Eu1B_2 Eu 1.26622(3) 0.479323(15) -0.012899(16)
O5B O 0.5646(5) 0.4203(2) 0.0127(3)
O8B O 0.9140(4) 0.6065(2) 0.0596(2)
loop_
_geom_bond_atom_site_label_1
_geom_bond_atom_site_label_2
_geom_bond_site_symmetry_1
_geom_bond_site_symmetry_2
Eu1 O2 1_555 1_555
O1 N3 1_555 1_555
N1 C5 1_555 1_555
C1 N2 1_555 1_555
O2 C3 1_555 1_555
O3 Eu1 1_555 1_555
C2 C18 1_555 1_555
C3 O8 1_555 1_555
O4 Eu1 1_555 1_555
C4 H1 1_555 1_555
N2 C8 1_555 1_555
C5 C6 1_555 1_555
C6 H2 1_555 1_555
C7 C5 1_555 1_555
C8 C10 1_555 1_555
O5 C12 1_555 1_555
C9 C10 1_555 1_555
O6 Eu1 1_555 1_555
C10 C14 1_555 1_555
O7 Eu1 1_555 1_555
O8 Eu1B_2 1_555 1_555
C11 C1 1_555 1_555
H3 C11 1_555 1_555
N3 O4 1_555 1_555
C12 C9 1_555 1_555
O9 Eu1 1_555 1_555
C13 H4 1_555 1_555
C14 H5 1_555 1_555
C15 C8 1_555 1_555
H6 C15 1_555 1_555
C16 C7 1_555 1_555
H7 C16 1_555 1_555
C17 C1 1_555 1_555
O10 N4 1_555 1_555
C18 N1 1_555 1_555
N4 O3 1_555 1_555
C19 C15 1_555 1_555
H8 C19 1_555 1_555
C20 C2 1_555 1_555
C21 C18 1_555 1_555
H9 C21 1_555 1_555
C22 C2 1_555 1_555
H10 C22 1_555 1_555
C23 C16 1_555 1_555
H11 C23 1_555 1_555
C24 C4 1_555 1_555
H12 C24 1_555 1_555
C25 C13 1_555 1_555
H13 C25 1_555 1_555
C26 C7 1_555 1_555
H14 C26 1_555 1_555
C27 C22 1_555 1_555
H15 C27 1_555 1_555
C28 C26 1_555 1_555
H16 C28 1_555 1_555
C29 C24 1_555 1_555
H17 C29 1_555 1_555
C30 C14 1_555 1_555
H18 C30 1_555 1_555
C31 C21 1_555 1_555
H19 C31 1_555 1_555
C32 C23 1_555 1_555
H20 C32 1_555 1_555
H21 N1 1_555 1_555
Eu1B O5 1_555 1_555
O5B Eu1 1_555 1_555
O8B Eu1 1_555 1_555
C3 C20 1_555 1_555
C4 C17 1_555 1_555
C6 C20 1_555 1_555
C9 C11 1_555 1_555
O6 C12 1_555 1_555
O7 N3 1_555 1_555
O9 N4 1_555 1_555
C13 C17 1_555 1_555
C19 C30 1_555 1_555
C25 C29 1_555 1_555
C27 C31 1_555 1_555
C28 C32 1_555 1_555

#END
