
#######################################################################
#
#                 Cambridge Crystallographic Data Centre
#                                CCDC 
#
#######################################################################
#
# If this CIF has been generated from an entry in the Cambridge 
# Structural Database, then it will include bibliographic, chemical, 
# crystal, experimental, refinement or atomic coordinate data resulting 
# from the CCDC's data processing and validation procedures.
#
#######################################################################

data_GOCMIW
_symmetry_cell_setting           triclinic
_symmetry_space_group_name_H-M   'P -1'
_symmetry_Int_Tables_number      2
_space_group_name_Hall           '-P 1'
loop_
_symmetry_equiv_pos_site_id
_symmetry_equiv_pos_as_xyz
1 x,y,z
2 -x,-y,-z
_cell_length_a                   8.7090(8)
_cell_length_b                   10.6717(10)
_cell_length_c                   11.4670(11)
_cell_angle_alpha                93.428(2)
_cell_angle_beta                 96.191(2)
_cell_angle_gamma                109.753(2)
_cell_volume                     991.892
loop_
_atom_site_label
_atom_site_type_symbol
_atom_site_fract_x
_atom_site_fract_y
_atom_site_fract_z
Zn1 Zn 1.069598(19) 0.353629(15) 0.380481(14)
P1 P 0.78453(4) 0.51344(3) 0.36439(3)
P2 P 0.82206(4) 0.46962(4) -0.15515(3)
O1 O 0.76172(13) 0.58421(10) 0.47703(9)
O2 O 0.79503(13) 0.52149(10) -0.27281(9)
O3 O 0.90603(13) 0.44277(10) 0.37930(9)
O4 O 0.83428(14) 0.62005(10) 0.27302(10)
H1 H 0.902(3) 0.611(2) 0.2359(19)
O5 O 0.95190(13) 0.40418(10) -0.14023(9)
O6 O 0.86057(14) 0.58844(11) -0.05563(10)
H2 H 0.921(3) 0.585(2) 0.000(2)
N1 N 1.07223(15) 0.17809(12) 0.28535(11)
N2 N 0.89977(15) 0.19177(12) 0.45862(11)
C1 C 1.16509(19) 0.17832(15) 0.19898(14)
H3 H 1.2375 0.2597 0.1822
C2 C 1.1571(2) 0.06180(16) 0.13379(15)
H4 H 1.2240 0.0650 0.0752
C3 C 1.0475(2) -0.05933(16) 0.15766(16)
H5 H 1.0380 -0.1386 0.1142
C4 C 0.9518(2) -0.06067(15) 0.24762(15)
H6 H 0.8779 -0.1409 0.2653
C5 C 0.96827(18) 0.05968(14) 0.31058(13)
C6 C 0.87349(18) 0.06708(15) 0.40986(13)
C7 C 0.7648(2) -0.04533(16) 0.44963(15)
H7 H 0.7486 -0.1307 0.4151
C8 C 0.6808(2) -0.02731(17) 0.54215(16)
H8 H 0.6076 -0.1009 0.5705
C9 C 0.7071(2) 0.10117(17) 0.59173(15)
H9 H 0.6520 0.1151 0.6536
C10 C 0.81722(19) 0.20852(16) 0.54723(14)
H10 H 0.8344 0.2949 0.5798
C11 C 0.58623(17) 0.39423(14) 0.30109(13)
H11 H 0.5409 0.3343 0.3589
H12 H 0.5112 0.4413 0.2797
C12 C 0.60244(17) 0.31396(14) 0.19302(13)
C13 C 0.62992(18) 0.19328(15) 0.20310(13)
H13 H 0.6307 0.1591 0.2758
C14 C 0.60013(17) 0.36253(14) 0.08291(13)
H14 H 0.5816 0.4427 0.0756
C15 C 0.6561(2) 0.12399(15) 0.10498(14)
H15 H 0.6756 0.0442 0.1125
C16 C 0.62468(18) 0.34960(15) -0.13449(13)
H16 H 0.5927 0.2763 -0.1967
H17 H 0.5426 0.3925 -0.1420
C17 C 0.62500(17) 0.29361(14) -0.01681(13)
C18 C 0.65333(19) 0.17369(15) -0.00456(14)
H18 H 0.6704 0.1266 -0.0699
Zn1A Zn 0.930402(19) 0.646371(15) -0.380481(14)
Zn1A_2 Zn 0.930402(19) 0.646371(15) 0.619519(14)
O1A O 1.23828(13) 0.41579(10) 0.52297(9)
O2A O 1.20497(13) 0.47851(10) 0.27281(9)
O7 O 0.49019(16) 0.67378(12) 0.42488(11)
H19 H 0.385(3) 0.598(2) 0.398(2)
H20 H 0.576(3) 0.635(2) 0.447(2)
loop_
_geom_bond_atom_site_label_1
_geom_bond_atom_site_label_2
_geom_bond_site_symmetry_1
_geom_bond_site_symmetry_2
Zn1 O3 1_555 1_555
P1 O1 1_555 1_555
P2 O2 1_555 1_555
O1 Zn1A_2 1_555 1_555
O2 Zn1A 1_555 1_555
O3 P1 1_555 1_555
O4 P1 1_555 1_555
H1 O4 1_555 1_555
O5 P2 1_555 1_555
O6 P2 1_555 1_555
H2 O6 1_555 1_555
N1 Zn1 1_555 1_555
N2 Zn1 1_555 1_555
C1 N1 1_555 1_555
H3 C1 1_555 1_555
C2 C1 1_555 1_555
H4 C2 1_555 1_555
C3 C2 1_555 1_555
H5 C3 1_555 1_555
C4 C3 1_555 1_555
H6 C4 1_555 1_555
C5 N1 1_555 1_555
C6 N2 1_555 1_555
C7 C6 1_555 1_555
H7 C7 1_555 1_555
C8 C7 1_555 1_555
H8 C8 1_555 1_555
C9 C8 1_555 1_555
H9 C9 1_555 1_555
C10 N2 1_555 1_555
H10 C10 1_555 1_555
C11 P1 1_555 1_555
H11 C11 1_555 1_555
H12 C11 1_555 1_555
C12 C11 1_555 1_555
C13 C12 1_555 1_555
H13 C13 1_555 1_555
C14 C12 1_555 1_555
H14 C14 1_555 1_555
C15 C13 1_555 1_555
H15 C15 1_555 1_555
C16 P2 1_555 1_555
H16 C16 1_555 1_555
H17 C16 1_555 1_555
C17 C14 1_555 1_555
C18 C15 1_555 1_555
H18 C18 1_555 1_555
O7 H19 1_555 1_555
H20 O7 1_555 1_555
O1A Zn1 1_555 1_555
O2A Zn1 1_555 1_555
C4 C5 1_555 1_555
C5 C6 1_555 1_555
C9 C10 1_555 1_555
C16 C17 1_555 1_555
C17 C18 1_555 1_555

#END
