
#######################################################################
#
#                 Cambridge Crystallographic Data Centre
#                                CCDC 
#
#######################################################################
#
# If this CIF has been generated from an entry in the Cambridge 
# Structural Database, then it will include bibliographic, chemical, 
# crystal, experimental, refinement or atomic coordinate data resulting 
# from the CCDC's data processing and validation procedures.
#
#######################################################################

data_GOCMOC
_symmetry_cell_setting           monoclinic
_symmetry_space_group_name_H-M   'C 2/c'
_symmetry_Int_Tables_number      15
_space_group_name_Hall           '-C 2yn'
loop_
_symmetry_equiv_pos_site_id
_symmetry_equiv_pos_as_xyz
1 x,y,z
2 -x,y,1/2-z
3 1/2+x,1/2+y,z
4 1/2-x,1/2+y,1/2-z
5 -x,-y,-z
6 x,-y,1/2+z
7 1/2-x,1/2-y,-z
8 1/2+x,1/2-y,1/2+z
_cell_length_a                   18.008(3)
_cell_length_b                   24.449(3)
_cell_length_c                   8.7840(12)
_cell_angle_alpha                90
_cell_angle_beta                 102.756(3)
_cell_angle_gamma                90
_cell_volume                     3771.95
loop_
_atom_site_label
_atom_site_type_symbol
_atom_site_fract_x
_atom_site_fract_y
_atom_site_fract_z
Zn1 Zn 0.0000 0.233044(10) 0.2500
P1 P 0.11020(2) 0.131060(16) 0.16937(5)
O1 O 0.05544(7) 0.17747(5) 0.14134(14)
O2 O 0.13908(6) 0.11950(5) 0.34774(12)
H1 H 0.1652 0.0917 0.3598
O3 O 0.17976(6) 0.14334(5) 0.09638(13)
H2 H 0.2114 0.1189 0.1199
N1 N 0.07988(7) 0.29471(5) 0.20391(16)
N2 N 0.08123(7) 0.24338(5) 0.47159(15)
C1 C 0.07930(10) 0.31557(7) 0.06242(19)
H3 H 0.0388 0.3070 -0.0198
C2 C 0.13641(10) 0.34934(7) 0.0332(2)
H4 H 0.1345 0.3629 -0.0665
C3 C 0.19630(10) 0.36238(7) 0.1557(2)
H5 H 0.2354 0.3849 0.1396
C4 C 0.19740(10) 0.34144(7) 0.3033(2)
H6 H 0.2369 0.3501 0.3874
C5 C 0.13850(9) 0.30735(6) 0.32325(18)
C6 C 0.13699(9) 0.28076(6) 0.47560(19)
C7 C 0.18991(9) 0.29250(7) 0.6132(2)
H7 H 0.2275 0.3186 0.6140
C8 C 0.18580(10) 0.26475(7) 0.7489(2)
H8 H 0.2205 0.2722 0.8418
C9 C 0.12932(10) 0.22570(7) 0.7447(2)
H9 H 0.1258 0.2063 0.8339
C10 C 0.07813(9) 0.21640(7) 0.60361(19)
H10 H 0.0401 0.1904 0.6003
C11 C 0.06747(9) 0.06820(6) 0.08511(18)
H11 H 0.1060 0.0398 0.1038
H12 H 0.0280 0.0577 0.1388
C12 C 0.03290(9) 0.07063(6) -0.08845(18)
C13 C 0.07861(9) 0.07053(7) -0.19751(19)
H13 H 0.1313 0.0700 -0.1635
C14 C -0.04621(9) 0.07123(7) -0.14315(19)
H14 H -0.0776 0.0721 -0.0721
P1A P -0.11020(2) 0.131060(16) -0.66937(5)
O1A O -0.05544(7) 0.17747(5) -0.64134(14)
O2A O -0.13908(6) 0.11950(5) -0.84774(12)
H1A H -0.1652 0.0917 -0.8598
O3A O -0.17976(6) 0.14334(5) -0.59638(13)
H2A H -0.2114 0.1189 -0.6199
C11A C -0.06747(9) 0.06820(6) -0.58511(18)
H11A H -0.1060 0.0398 -0.6038
H12A H -0.0280 0.0577 -0.6388
C12A C -0.03290(9) 0.07063(6) -0.41155(18)
C13A C -0.07861(9) 0.07053(7) -0.30249(19)
H13A H -0.1313 0.0700 -0.3365
C14A C 0.04621(9) 0.07123(7) -0.35685(19)
H14A H 0.0776 0.0721 -0.4279
N1A N -0.07988(7) 0.29471(5) 0.29609(16)
N2A N -0.08123(7) 0.24338(5) 0.02841(15)
C1A C -0.07930(10) 0.31557(7) 0.43758(19)
H3A H -0.0388 0.3070 0.5198
C2A C -0.13641(10) 0.34934(7) 0.4668(2)
H4A H -0.1345 0.3629 0.5665
C3A C -0.19630(10) 0.36238(7) 0.3443(2)
H5A H -0.2354 0.3849 0.3604
C4A C -0.19740(10) 0.34144(7) 0.1967(2)
H6A H -0.2369 0.3501 0.1126
C5A C -0.13850(9) 0.30735(6) 0.17675(18)
C6A C -0.13699(9) 0.28076(6) 0.02440(19)
C7A C -0.18991(9) 0.29250(7) -0.1132(2)
H7A H -0.2275 0.3186 -0.1140
C8A C -0.18580(10) 0.26475(7) -0.2489(2)
H8A H -0.2205 0.2722 -0.3418
C9A C -0.12932(10) 0.22570(7) -0.2447(2)
H9A H -0.1258 0.2063 -0.3339
C10A C -0.07813(9) 0.21640(7) -0.10361(19)
H10A H -0.0401 0.1904 -0.1003
Zn1_2 Zn 0.0000 0.233044(10) -0.7500
O1A_2 O -0.05544(7) 0.17747(5) 0.35866(14)
P2 P 0.21947(2) 0.471926(17) 0.71307(5)
O4 O 0.27272(6) 0.46233(5) 0.60228(13)
O5 O 0.24420(7) 0.52644(5) 0.80410(14)
H15 H 0.2494 0.5211 0.8980
O6 O 0.21653(6) 0.42528(5) 0.82460(13)
C15 C 0.12652(9) 0.48456(8) 0.59068(19)
H16 H 0.1279 0.5194 0.5386
H17 H 0.1162 0.4565 0.5106
C16 C 0.06131(9) 0.48557(7) 0.67341(18)
C17 C 0.03009(9) 0.43659(7) 0.71178(19)
H18 H 0.0497 0.4035 0.6861
C18 C 0.03039(9) 0.53459(7) 0.71224(18)
H19 H 0.0504 0.5677 0.6877
P2A P -0.21947(2) 0.471926(17) 0.78693(5)
O4A O -0.27272(6) 0.46233(5) 0.89772(13)
O5A O -0.24420(7) 0.52644(5) 0.69590(14)
H15A H -0.2494 0.5211 0.6020
O6A O -0.21653(6) 0.42528(5) 0.67540(13)
C15A C -0.12652(9) 0.48456(8) 0.90932(19)
H16A H -0.1279 0.5194 0.9614
H17A H -0.1162 0.4565 0.9894
C16A C -0.06131(9) 0.48557(7) 0.82659(18)
C17A C -0.03009(9) 0.43659(7) 0.78822(19)
H18A H -0.0497 0.4035 0.8139
C18A C -0.03039(9) 0.53459(7) 0.78776(18)
H19A H -0.0504 0.5677 0.8123
loop_
_geom_bond_atom_site_label_1
_geom_bond_atom_site_label_2
_geom_bond_site_symmetry_1
_geom_bond_site_symmetry_2
Zn1 O1 1_555 1_555
P1 O1 1_555 1_555
O2 P1 1_555 1_555
H1 O2 1_555 1_555
O3 P1 1_555 1_555
H2 O3 1_555 1_555
N1 Zn1 1_555 1_555
N2 Zn1 1_555 1_555
C1 N1 1_555 1_555
H3 C1 1_555 1_555
C2 C1 1_555 1_555
H4 C2 1_555 1_555
C3 C2 1_555 1_555
H5 C3 1_555 1_555
C4 C3 1_555 1_555
H6 C4 1_555 1_555
C5 N1 1_555 1_555
C6 N2 1_555 1_555
C7 C6 1_555 1_555
H7 C7 1_555 1_555
C8 C7 1_555 1_555
H8 C8 1_555 1_555
C9 C8 1_555 1_555
H9 C9 1_555 1_555
C10 N2 1_555 1_555
H10 C10 1_555 1_555
C11 P1 1_555 1_555
H11 C11 1_555 1_555
H12 C11 1_555 1_555
C12 C11 1_555 1_555
C13 C12 1_555 1_555
H13 C13 1_555 1_555
C14 C12 1_555 1_555
H14 C14 1_555 1_555
P2 O4 1_555 1_555
O5 P2 1_555 1_555
H15 O5 1_555 1_555
O6 P2 1_555 1_555
C15 P2 1_555 1_555
H16 C15 1_555 1_555
H17 C15 1_555 1_555
C16 C15 1_555 1_555
C17 C16 1_555 1_555
H18 C17 1_555 1_555
C18 C16 1_555 1_555
H19 C18 1_555 1_555
P1A O1A 1_555 1_555
O1A Zn1_2 1_555 1_555
O2A P1A 1_555 1_555
H1A O2A 1_555 1_555
O3A P1A 1_555 1_555
H2A O3A 1_555 1_555
C11A P1A 1_555 1_555
H11A C11A 1_555 1_555
H12A C11A 1_555 1_555
C12A C11A 1_555 1_555
C13A C14 1_555 1_555
H13A C13A 1_555 1_555
C14A C13 1_555 1_555
H14A C14A 1_555 1_555
N1A Zn1 1_555 1_555
N2A Zn1 1_555 1_555
C1A N1A 1_555 1_555
H3A C1A 1_555 1_555
C2A C1A 1_555 1_555
H4A C2A 1_555 1_555
C3A C2A 1_555 1_555
H5A C3A 1_555 1_555
C4A C3A 1_555 1_555
H6A C4A 1_555 1_555
C5A N1A 1_555 1_555
C6A N2A 1_555 1_555
C7A C6A 1_555 1_555
H7A C7A 1_555 1_555
C8A C7A 1_555 1_555
H8A C8A 1_555 1_555
C9A C8A 1_555 1_555
H9A C9A 1_555 1_555
C10A N2A 1_555 1_555
H10A C10A 1_555 1_555
O1A_2 Zn1 1_555 1_555
P2A O4A 1_555 1_555
O5A P2A 1_555 1_555
H15A O5A 1_555 1_555
O6A P2A 1_555 1_555
C15A P2A 1_555 1_555
H16A C15A 1_555 1_555
H17A C15A 1_555 1_555
C16A C15A 1_555 1_555
C17A C17 1_555 1_555
H18A C17A 1_555 1_555
C18A C18 1_555 1_555
H19A C18A 1_555 1_555
C4 C5 1_555 1_555
C5 C6 1_555 1_555
C9 C10 1_555 1_555
C12A C13A 1_555 1_555
C12A C14A 1_555 1_555
C4A C5A 1_555 1_555
C5A C6A 1_555 1_555
C9A C10A 1_555 1_555
C16A C17A 1_555 1_555
C16A C18A 1_555 1_555

#END
