
#######################################################################
#
#                 Cambridge Crystallographic Data Centre
#                                CCDC 
#
#######################################################################
#
# If this CIF has been generated from an entry in the Cambridge 
# Structural Database, then it will include bibliographic, chemical, 
# crystal, experimental, refinement or atomic coordinate data resulting 
# from the CCDC's data processing and validation procedures.
#
#######################################################################

data_GOCNET
_symmetry_cell_setting           triclinic
_symmetry_space_group_name_H-M   'P -1'
_symmetry_Int_Tables_number      2
_space_group_name_Hall           '-P 1'
loop_
_symmetry_equiv_pos_site_id
_symmetry_equiv_pos_as_xyz
1 x,y,z
2 -x,-y,-z
_cell_length_a                   11.4878(13)
_cell_length_b                   11.9511(14)
_cell_length_c                   15.1124(18)
_cell_angle_alpha                81.059(2)
_cell_angle_beta                 78.308(2)
_cell_angle_gamma                61.526(2)
_cell_volume                     1781.81
loop_
_atom_site_label
_atom_site_type_symbol
_atom_site_fract_x
_atom_site_fract_y
_atom_site_fract_z
C1 C 0.85865(11) 0.08672(13) 0.14378(10)
C2 C 0.93774(16) -0.03764(13) 0.17553(10)
C3 C 1.07507(15) -0.09628(11) 0.14669(12)
H1 H 1.1280 -0.1795 0.1679
C4 C 1.13331(11) -0.03057(15) 0.08609(12)
H2 H 1.2252 -0.0698 0.0668
C5 C 1.05422(14) 0.09379(15) 0.05434(10)
C6 C 0.91689(13) 0.15244(11) 0.08318(10)
Zn1 Zn 0.28722(2) 0.61498(2) 0.425603(16)
Zn2 Zn 0.62178(2) 0.34282(2) 0.109009(15)
P1 P -0.37962(5) 0.50668(6) 0.37750(4)
P2 P 0.34180(5) 0.47193(5) 0.25393(4)
P3 P 0.52989(5) 0.65320(5) 0.05496(4)
O1 O -0.29233(16) 0.46907(18) 0.44981(10)
O2 O -0.52568(15) 0.59870(16) 0.40290(10)
O3 O 0.30733(15) 0.47594(14) 0.35777(10)
O4 O -0.35955(16) 0.37963(15) 0.34377(11)
H3 H -0.4183 0.3960 0.3136
O5 O 0.28626(15) 0.60358(14) 0.20519(10)
O6 O 0.49423(14) 0.39115(14) 0.22824(10)
O7 O 0.47259(18) 0.69048(16) -0.03250(11)
O8 O 0.61353(15) 0.51230(14) 0.07496(11)
O9 O 0.42163(15) 0.71583(14) 0.13674(10)
H4 H 0.3815 0.6736 0.1552
N1 N 0.07018(19) 0.70536(18) 0.46402(12)
N2 N 0.21994(19) 0.81205(18) 0.36974(12)
N3 N 0.72124(19) 0.15054(17) 0.17258(13)
N4 N 0.83225(18) 0.27391(17) 0.05017(13)
C7 C -0.0007(2) 0.6489(2) 0.51176(15)
H5 H 0.0442 0.5630 0.5305
C8 C -0.1401(3) 0.7138(3) 0.53484(16)
H6 H -0.1869 0.6707 0.5665
C9 C -0.2066(2) 0.8415(3) 0.51016(17)
H7 H -0.2992 0.8857 0.5252
C10 C -0.1346(2) 0.9062(2) 0.46179(16)
C11 C 0.0051(2) 0.8319(2) 0.43929(15)
C12 C 0.0857(2) 0.8897(2) 0.38923(15)
C13 C -0.1939(3) 1.0398(2) 0.43486(17)
H8 H -0.2858 1.0896 0.4496
C14 C -0.1181(3) 1.0951(2) 0.38807(17)
H9 H -0.1590 1.1821 0.3717
C15 C 0.0248(3) 1.0211(2) 0.36342(16)
C16 C 0.1082(3) 1.0728(2) 0.31425(17)
H10 H 0.0723 1.1592 0.2961
C17 C 0.2435(3) 0.9941(2) 0.29332(17)
H11 H 0.2996 1.0266 0.2602
C18 C 0.2959(3) 0.8636(2) 0.32271(16)
H12 H 0.3874 0.8114 0.3086
C19 C 0.6627(3) 0.0889(2) 0.22865(16)
H13 H 0.5710 0.1322 0.2481
C20 C 0.7343(3) -0.0396(2) 0.25979(18)
H14 H 0.6899 -0.0812 0.2973
C21 C 0.8696(3) -0.1023(2) 0.23419(18)
H15 H 0.9180 -0.1869 0.2547
C22 C 1.1070(2) 0.1651(3) -0.01204(19)
H16 H 1.1984 0.1299 -0.0328
C23 C 1.0223(3) 0.2850(3) -0.04457(18)
H17 H 1.0555 0.3315 -0.0875
C24 C 0.8842(2) 0.3363(2) -0.01180(16)
H18 H 0.8270 0.4171 -0.0344
C25 C 0.2669(2) 0.3837(2) 0.22048(15)
H19 H 0.2994 0.3690 0.1568
H20 H 0.3007 0.3008 0.2537
C26 C 0.1150(2) 0.4415(2) 0.23366(14)
C27 C 0.0535(2) 0.3939(2) 0.18919(15)
H21 H 0.1063 0.3301 0.1494
C28 C 0.0319(2) 0.5388(2) 0.29171(14)
H22 H 0.0696 0.5736 0.3212
C29 C -0.0854(2) 0.4403(2) 0.20332(15)
H23 H -0.1235 0.4072 0.1728
C30 C -0.1065(2) 0.5845(2) 0.30607(15)
H24 H -0.1595 0.6490 0.3454
C31 C -0.1674(2) 0.5357(2) 0.26273(14)
C32 C 0.6407(2) 0.72541(19) 0.04386(14)
H25 H 0.6758 0.7093 0.1003
H26 H 0.7157 0.6859 -0.0033
C33 C 0.5700(2) 0.8673(2) 0.02103(14)
C34 C 0.5151(2) 0.9529(2) 0.08883(15)
H27 H 0.5243 0.9220 0.1487
C35 C 0.4468(2) 1.0835(2) 0.06837(15)
H28 H 0.4118 1.1389 0.1146
C36 C -0.3176(2) 0.5861(2) 0.28182(15)
H29 H -0.3474 0.5795 0.2281
H30 H -0.3583 0.6760 0.2922
P3A P 0.47011(5) 1.34680(5) -0.05496(4)
O8A O 0.38647(15) 1.48770(14) -0.07496(11)
O9A O 0.57837(15) 1.28417(14) -0.13674(10)
H4A H 0.6185 1.3264 -0.1552
C32A C 0.3593(2) 1.27459(19) -0.04386(14)
H25A H 0.3242 1.2907 -0.1003
H26A H 0.2843 1.3141 0.0033
C33A C 0.4300(2) 1.1327(2) -0.02103(14)
C34A C 0.4849(2) 1.0471(2) -0.08883(15)
H27A H 0.4757 1.0780 -0.1487
C35A C 0.5532(2) 0.9165(2) -0.06837(15)
H28A H 0.5882 0.8611 -0.1146
O7A O 0.52741(18) 1.30952(16) 0.03250(11)
C1A C -0.85865(11) 0.91328(13) 0.85622(10)
C2A C -0.93774(16) 1.03764(13) 0.82447(10)
C3A C -1.07507(15) 1.09628(11) 0.85331(12)
H1A H -1.1280 1.1795 0.8321
C4A C -1.13331(11) 1.03057(15) 0.91391(12)
H2A H -1.2252 1.0698 0.9332
C5A C -1.05422(14) 0.90621(15) 0.94566(10)
C6A C -0.91689(13) 0.84756(11) 0.91682(10)
Zn1A Zn -0.28722(2) 0.38502(2) 0.574397(16)
Zn2A Zn -0.62178(2) 0.65718(2) 0.890991(15)
P1A P 0.37962(5) 0.49332(6) 0.62250(4)
P2A P -0.34180(5) 0.52807(5) 0.74607(4)
O1A O 0.29233(16) 0.53093(18) 0.55019(10)
O2A O 0.52568(15) 0.40130(16) 0.59710(10)
O3A O -0.30733(15) 0.52406(14) 0.64223(10)
O4A O 0.35955(16) 0.62037(15) 0.65623(11)
H3A H 0.4183 0.6040 0.6864
O5A O -0.28626(15) 0.39642(14) 0.79481(10)
O6A O -0.49423(14) 0.60885(14) 0.77176(10)
N1A N -0.07018(19) 0.29464(18) 0.53598(12)
N2A N -0.21994(19) 0.18795(18) 0.63026(12)
N3A N -0.72124(19) 0.84946(17) 0.82742(13)
N4A N -0.83225(18) 0.72609(17) 0.94983(13)
C7A C 0.0007(2) 0.3511(2) 0.48824(15)
H5A H -0.0442 0.4370 0.4695
C8A C 0.1401(3) 0.2862(3) 0.46516(16)
H6A H 0.1869 0.3293 0.4335
C9A C 0.2066(2) 0.1585(3) 0.48984(17)
H7A H 0.2992 0.1143 0.4748
C10A C 0.1346(2) 0.0938(2) 0.53821(16)
C11A C -0.0051(2) 0.1681(2) 0.56071(15)
C12A C -0.0857(2) 0.1103(2) 0.61077(15)
C13A C 0.1939(3) -0.0398(2) 0.56514(17)
H8A H 0.2858 -0.0896 0.5504
C14A C 0.1181(3) -0.0951(2) 0.61193(17)
H9A H 0.1590 -0.1821 0.6283
C15A C -0.0248(3) -0.0211(2) 0.63658(16)
C16A C -0.1082(3) -0.0728(2) 0.68575(17)
H10A H -0.0723 -0.1592 0.7039
C17A C -0.2435(3) 0.0059(2) 0.70668(17)
H11A H -0.2996 -0.0266 0.7398
C18A C -0.2959(3) 0.1364(2) 0.67729(16)
H12A H -0.3874 0.1886 0.6914
C19A C -0.6627(3) 0.9111(2) 0.77135(16)
H13A H -0.5710 0.8678 0.7519
C20A C -0.7343(3) 1.0396(2) 0.74021(18)
H14A H -0.6899 1.0812 0.7027
C21A C -0.8696(3) 1.1023(2) 0.76581(18)
H15A H -0.9180 1.1869 0.7453
C22A C -1.1070(2) 0.8349(3) 1.01204(19)
H16A H -1.1984 0.8701 1.0328
C23A C -1.0223(3) 0.7150(3) 1.04457(18)
H17A H -1.0555 0.6685 1.0875
C24A C -0.8842(2) 0.6637(2) 1.01180(16)
H18A H -0.8270 0.5829 1.0344
C25A C -0.2669(2) 0.6163(2) 0.77952(15)
H19A H -0.2994 0.6310 0.8432
H20A H -0.3007 0.6992 0.7463
C26A C -0.1150(2) 0.5585(2) 0.76634(14)
C27A C -0.0535(2) 0.6061(2) 0.81081(15)
H21A H -0.1063 0.6699 0.8506
C28A C -0.0319(2) 0.4612(2) 0.70829(14)
H22A H -0.0696 0.4264 0.6788
C29A C 0.0854(2) 0.5597(2) 0.79668(15)
H23A H 0.1235 0.5928 0.8272
C30A C 0.1065(2) 0.4155(2) 0.69393(15)
H24A H 0.1595 0.3510 0.6546
C31A C 0.1674(2) 0.4643(2) 0.73727(14)
C36A C 0.3176(2) 0.4139(2) 0.71818(15)
H29A H 0.3474 0.4205 0.7719
H30A H 0.3583 0.3240 0.7078
Zn1_2 Zn -0.71278(2) 0.61498(2) 0.425603(16)
Zn1A_2 Zn 0.71278(2) 0.38502(2) 0.574397(16)
Zn2_2 Zn 0.62178(2) 1.34282(2) 0.109009(15)
Zn2A_2 Zn 0.37822(2) 0.65718(2) -0.109009(15)
Zn2A_3 Zn 0.37822(2) 1.65718(2) -0.109009(15)
O2_2 O 0.47432(15) 0.59870(16) 0.40290(10)
O2A_2 O -0.47432(15) 0.40130(16) 0.59710(10)
O7_2 O -0.52741(18) 0.69048(16) 0.96750(11)
O7A_2 O 0.52741(18) 0.30952(16) 0.03250(11)
O8A_2 O -0.61353(15) 0.48770(14) 0.92504(11)
O10 O 0.4833(8) 0.0241(11) 0.5958(7)
H31 H 0.468(7) 0.1019(19) 0.585(6)
H32 H 0.565(2) -0.014(5) 0.574(5)
O11 O 0.4633(2) 0.2455(2) 0.47980(15)
H33 H 0.458(4) 0.252(3) 0.4252(9)
H34 H 0.489(3) 0.292(3) 0.495(2)
loop_
_geom_bond_atom_site_label_1
_geom_bond_atom_site_label_2
_geom_bond_site_symmetry_1
_geom_bond_site_symmetry_2
C1 C2 1_555 1_555
C2 C3 1_555 1_555
C3 H1 1_555 1_555
C4 C3 1_555 1_555
H2 C4 1_555 1_555
C5 C4 1_555 1_555
C6 C1 1_555 1_555
Zn1 O3 1_555 1_555
Zn2 O6 1_555 1_555
P1 O1 1_555 1_555
P2 O3 1_555 1_555
P3 O7 1_555 1_555
O1 Zn1A 1_555 1_555
O2 P1 1_555 1_555
O4 P1 1_555 1_555
H3 O4 1_555 1_555
O5 P2 1_555 1_555
O6 P2 1_555 1_555
O7 Zn2A_2 1_555 1_555
O8 Zn2 1_555 1_555
O9 P3 1_555 1_555
H4 O9 1_555 1_555
N1 Zn1 1_555 1_555
N2 Zn1 1_555 1_555
N3 C1 1_555 1_555
N4 C6 1_555 1_555
C7 N1 1_555 1_555
H5 C7 1_555 1_555
C8 C7 1_555 1_555
H6 C8 1_555 1_555
C9 C8 1_555 1_555
H7 C9 1_555 1_555
C10 C9 1_555 1_555
C11 N1 1_555 1_555
C12 N2 1_555 1_555
C13 C10 1_555 1_555
H8 C13 1_555 1_555
C14 C13 1_555 1_555
H9 C14 1_555 1_555
C15 C12 1_555 1_555
C16 C15 1_555 1_555
H10 C16 1_555 1_555
C17 C16 1_555 1_555
H11 C17 1_555 1_555
C18 N2 1_555 1_555
H12 C18 1_555 1_555
C19 N3 1_555 1_555
H13 C19 1_555 1_555
C20 C19 1_555 1_555
H14 C20 1_555 1_555
C21 C2 1_555 1_555
H15 C21 1_555 1_555
C22 C5 1_555 1_555
H16 C22 1_555 1_555
C23 C22 1_555 1_555
H17 C23 1_555 1_555
C24 N4 1_555 1_555
H18 C24 1_555 1_555
C25 P2 1_555 1_555
H19 C25 1_555 1_555
H20 C25 1_555 1_555
C26 C25 1_555 1_555
C27 C26 1_555 1_555
H21 C27 1_555 1_555
C28 C26 1_555 1_555
H22 C28 1_555 1_555
C29 C27 1_555 1_555
H23 C29 1_555 1_555
C30 C28 1_555 1_555
H24 C30 1_555 1_555
C31 C29 1_555 1_555
C32 P3 1_555 1_555
H25 C32 1_555 1_555
H26 C32 1_555 1_555
C33 C32 1_555 1_555
C34 C33 1_555 1_555
H27 C34 1_555 1_555
C35 C34 1_555 1_555
H28 C35 1_555 1_555
C36 P1 1_555 1_555
H29 C36 1_555 1_555
H30 C36 1_555 1_555
O10 H31 1_555 1_555
H32 O10 1_555 1_555
O11 H33 1_555 1_555
H34 O11 1_555 1_555
P3A O8A 1_555 1_555
O8A Zn2A_3 1_555 1_555
O9A P3A 1_555 1_555
H4A O9A 1_555 1_555
C32A P3A 1_555 1_555
H25A C32A 1_555 1_555
H26A C32A 1_555 1_555
C33A C35 1_555 1_555
C34A C33A 1_555 1_555
H27A C34A 1_555 1_555
C35A C33 1_555 1_555
H28A C35A 1_555 1_555
O7A P3A 1_555 1_555
C1A C2A 1_555 1_555
C2A C3A 1_555 1_555
C3A H1A 1_555 1_555
C4A C3A 1_555 1_555
H2A C4A 1_555 1_555
C5A C4A 1_555 1_555
C6A C1A 1_555 1_555
Zn1A O3A 1_555 1_555
Zn2A O6A 1_555 1_555
P1A O1A 1_555 1_555
P2A O3A 1_555 1_555
O1A Zn1 1_555 1_555
O2A P1A 1_555 1_555
O4A P1A 1_555 1_555
H3A O4A 1_555 1_555
O5A P2A 1_555 1_555
O6A P2A 1_555 1_555
N1A Zn1A 1_555 1_555
N2A Zn1A 1_555 1_555
N3A C1A 1_555 1_555
N4A C6A 1_555 1_555
C7A N1A 1_555 1_555
H5A C7A 1_555 1_555
C8A C7A 1_555 1_555
H6A C8A 1_555 1_555
C9A C8A 1_555 1_555
H7A C9A 1_555 1_555
C10A C9A 1_555 1_555
C11A N1A 1_555 1_555
C12A N2A 1_555 1_555
C13A C10A 1_555 1_555
H8A C13A 1_555 1_555
C14A C13A 1_555 1_555
H9A C14A 1_555 1_555
C15A C12A 1_555 1_555
C16A C15A 1_555 1_555
H10A C16A 1_555 1_555
C17A C16A 1_555 1_555
H11A C17A 1_555 1_555
C18A N2A 1_555 1_555
H12A C18A 1_555 1_555
C19A N3A 1_555 1_555
H13A C19A 1_555 1_555
C20A C19A 1_555 1_555
H14A C20A 1_555 1_555
C21A C2A 1_555 1_555
H15A C21A 1_555 1_555
C22A C5A 1_555 1_555
H16A C22A 1_555 1_555
C23A C22A 1_555 1_555
H17A C23A 1_555 1_555
C24A N4A 1_555 1_555
H18A C24A 1_555 1_555
C25A P2A 1_555 1_555
H19A C25A 1_555 1_555
H20A C25A 1_555 1_555
C26A C25A 1_555 1_555
C27A C26A 1_555 1_555
H21A C27A 1_555 1_555
C28A C26A 1_555 1_555
H22A C28A 1_555 1_555
C29A C27A 1_555 1_555
H23A C29A 1_555 1_555
C30A C28A 1_555 1_555
H24A C30A 1_555 1_555
C31A C29A 1_555 1_555
C36A P1A 1_555 1_555
H29A C36A 1_555 1_555
H30A C36A 1_555 1_555
Zn1_2 O2 1_555 1_555
Zn1A_2 O2A 1_555 1_555
Zn2_2 O7A 1_555 1_555
O2_2 Zn1 1_555 1_555
O2A_2 Zn1A 1_555 1_555
O7_2 Zn2A 1_555 1_555
O7A_2 Zn2 1_555 1_555
O8A_2 Zn2A 1_555 1_555
C5 C6 1_555 1_555
Zn2 N3 1_555 1_555
Zn2 N4 1_555 1_555
P3 O8 1_555 1_555
C10 C11 1_555 1_555
C11 C12 1_555 1_555
C14 C15 1_555 1_555
C17 C18 1_555 1_555
C20 C21 1_555 1_555
C23 C24 1_555 1_555
C30 C31 1_555 1_555
C31 C36 1_555 1_555
C32A C33A 1_555 1_555
C34A C35A 1_555 1_555
C5A C6A 1_555 1_555
Zn2A N3A 1_555 1_555
Zn2A N4A 1_555 1_555
C10A C11A 1_555 1_555
C11A C12A 1_555 1_555
C14A C15A 1_555 1_555
C17A C18A 1_555 1_555
C20A C21A 1_555 1_555
C23A C24A 1_555 1_555
C30A C31A 1_555 1_555
C31A C36A 1_555 1_555

#END
