
#######################################################################
#
#                 Cambridge Crystallographic Data Centre
#                                CCDC 
#
#######################################################################
#
# If this CIF has been generated from an entry in the Cambridge 
# Structural Database, then it will include bibliographic, chemical, 
# crystal, experimental, refinement or atomic coordinate data resulting 
# from the CCDC's data processing and validation procedures.
#
#######################################################################

data_GOCNAP
_symmetry_cell_setting           monoclinic
_symmetry_space_group_name_H-M   'C 2/c'
_symmetry_Int_Tables_number      15
_space_group_name_Hall           '-C 2yn'
loop_
_symmetry_equiv_pos_site_id
_symmetry_equiv_pos_as_xyz
1 x,y,z
2 -x,y,1/2-z
3 1/2+x,1/2+y,z
4 1/2-x,1/2+y,1/2-z
5 -x,-y,-z
6 x,-y,1/2+z
7 1/2-x,1/2-y,-z
8 1/2+x,1/2-y,1/2+z
_cell_length_a                   21.852(2)
_cell_length_b                   9.2934(11)
_cell_length_c                   22.260(2)
_cell_angle_alpha                90
_cell_angle_beta                 110.313(2)
_cell_angle_gamma                90
_cell_volume                     4239.41
loop_
_atom_site_label
_atom_site_type_symbol
_atom_site_fract_x
_atom_site_fract_y
_atom_site_fract_z
Zn1 Zn 0.306270(10) 1.08892(3) 0.079041(10)
P1 P 0.25122(2) 1.08994(6) -0.07980(2)
P2 P 0.06533(2) 0.48008(6) -0.04336(2)
O1 O 0.20046(7) 1.20669(16) -0.09456(8)
O2 O 0.09851(7) 0.41617(16) -0.08630(7)
O3 O 0.27504(7) 1.03185(17) -0.01241(7)
O4 O 0.31033(7) 1.14192(18) -0.09907(7)
H1 H 0.3466(10) 1.130(3) -0.0709(11)
O5 O 0.07287(7) 0.39696(17) 0.01757(7)
O6 O -0.00925(7) 0.49257(17) -0.08627(7)
H2 H -0.0312(12) 0.526(3) -0.0654(12)
N1 N 0.33177(8) 0.97521(19) 0.16714(8)
N2 N 0.21214(8) 1.02056(19) 0.08233(8)
C1 C 0.39173(10) 0.9523(2) 0.20831(10)
H3 H 0.4269 0.9892 0.1989
C2 C 0.40404(11) 0.8747(3) 0.26542(11)
H4 H 0.4467 0.8613 0.2932
C3 C 0.35299(11) 0.8191(3) 0.27991(10)
H5 H 0.3606 0.7670 0.3175
C4 C 0.28865(11) 0.8411(2) 0.23750(10)
C5 C 0.28071(10) 0.9200(2) 0.18147(10)
C6 C 0.23144(12) 0.7869(3) 0.24812(11)
H6 H 0.2363 0.7327 0.2846
C7 C 0.17079(12) 0.8133(3) 0.20615(11)
H7 H 0.1348 0.7776 0.2144
C8 C 0.21627(10) 0.9464(2) 0.13608(10)
C9 C 0.16111(11) 0.8959(3) 0.14875(11)
C10 C 0.09931(11) 0.9308(3) 0.10332(12)
H8 H 0.0614 0.9009 0.1096
C11 C 0.09582(10) 1.0088(3) 0.05006(11)
H9 H 0.0555 1.0345 0.0205
C12 C 0.15362(10) 1.0500(2) 0.04030(11)
H10 H 0.1506 1.0996 0.0031
C13 C 0.21585(10) 0.9423(2) -0.13305(10)
H11 H 0.2086 0.9714 -0.1768
H12 H 0.2460 0.8619 -0.1229
C14 C 0.15185(10) 0.8956(2) -0.12732(10)
C15 C 0.15053(10) 0.7999(2) -0.07967(10)
H13 H 0.1894 0.7597 -0.0530
C16 C 0.09321(11) 0.9554(3) -0.16726(11)
H14 H 0.0932 1.0194 -0.1994
C17 C 0.03472(11) 0.9192(3) -0.15892(12)
H15 H -0.0042 0.9591 -0.1857
C18 C 0.03411(10) 0.8245(2) -0.11120(11)
H16 H -0.0051 0.8017 -0.1058
C19 C 0.09237(10) 0.7629(2) -0.07098(10)
C20 C 0.09225(10) 0.6617(2) -0.01831(10)
H17 H 0.0643 0.7017 0.0031
H18 H 0.1361 0.6572 0.0129
Zn1F Zn 0.193730(10) 0.41108(3) -0.079041(10)
Zn1F_2 Zn 0.193730(10) 1.41108(3) -0.079041(10)
O1F O 0.29954(7) 1.29331(16) 0.09456(8)
O2F O 0.40149(7) 1.08383(16) 0.08630(7)
O7 O 0.51236(11) 0.2297(3) 0.18909(15)
H19 H 0.4734(11) 0.227(5) 0.1608(15)
H20 H 0.500(2) 0.235(5) 0.2204(14)
loop_
_geom_bond_atom_site_label_1
_geom_bond_atom_site_label_2
_geom_bond_site_symmetry_1
_geom_bond_site_symmetry_2
Zn1 O3 1_555 1_555
P1 O1 1_555 1_555
P2 O2 1_555 1_555
O1 Zn1F_2 1_555 1_555
O2 Zn1F 1_555 1_555
O3 P1 1_555 1_555
O4 P1 1_555 1_555
H1 O4 1_555 1_555
O5 P2 1_555 1_555
O6 P2 1_555 1_555
H2 O6 1_555 1_555
N1 Zn1 1_555 1_555
N2 Zn1 1_555 1_555
C1 N1 1_555 1_555
H3 C1 1_555 1_555
C2 C1 1_555 1_555
H4 C2 1_555 1_555
C3 C2 1_555 1_555
H5 C3 1_555 1_555
C4 C3 1_555 1_555
C5 N1 1_555 1_555
C6 C4 1_555 1_555
H6 C6 1_555 1_555
C7 C6 1_555 1_555
H7 C7 1_555 1_555
C8 N2 1_555 1_555
C9 C7 1_555 1_555
C10 C9 1_555 1_555
H8 C10 1_555 1_555
C11 C10 1_555 1_555
H9 C11 1_555 1_555
C12 N2 1_555 1_555
H10 C12 1_555 1_555
C13 P1 1_555 1_555
H11 C13 1_555 1_555
H12 C13 1_555 1_555
C14 C13 1_555 1_555
C15 C14 1_555 1_555
H13 C15 1_555 1_555
C16 C14 1_555 1_555
H14 C16 1_555 1_555
C17 C16 1_555 1_555
H15 C17 1_555 1_555
C18 C17 1_555 1_555
H16 C18 1_555 1_555
C19 C15 1_555 1_555
C20 P2 1_555 1_555
H17 C20 1_555 1_555
H18 C20 1_555 1_555
O7 H19 1_555 1_555
H20 O7 1_555 1_555
O1F Zn1 1_555 1_555
O2F Zn1 1_555 1_555
C4 C5 1_555 1_555
C5 C8 1_555 1_555
C8 C9 1_555 1_555
C11 C12 1_555 1_555
C18 C19 1_555 1_555
C19 C20 1_555 1_555

#END
