
#######################################################################
#
#                 Cambridge Crystallographic Data Centre
#                                CCDC 
#
#######################################################################
#
# If this CIF has been generated from an entry in the Cambridge 
# Structural Database, then it will include bibliographic, chemical, 
# crystal, experimental, refinement or atomic coordinate data resulting 
# from the CCDC's data processing and validation procedures.
#
#######################################################################

data_GOCNIX
_symmetry_cell_setting           orthorhombic
_symmetry_space_group_name_H-M   'P c a 21'
_symmetry_Int_Tables_number      29
_space_group_name_Hall           'P 2c -2ac'
loop_
_symmetry_equiv_pos_site_id
_symmetry_equiv_pos_as_xyz
1 x,y,z
2 -x,-y,1/2+z
3 1/2-x,y,1/2+z
4 1/2+x,-y,z
_cell_length_a                   19.987(4)
_cell_length_b                   16.880(3)
_cell_length_c                   8.9332(18)
_cell_angle_alpha                90
_cell_angle_beta                 90
_cell_angle_gamma                90
_cell_volume                     3013.89
loop_
_atom_site_label
_atom_site_type_symbol
_atom_site_fract_x
_atom_site_fract_y
_atom_site_fract_z
Zn1 Zn 1.045643(15) 0.24629(3) 0.36616(8)
P1 P 1.14365(5) 0.19871(6) 0.61975(11)
P2 P 1.15841(5) 0.28861(7) 1.13492(12)
O1 O 1.08986(13) 0.17719(16) 0.5063(3)
O2 O 1.10767(13) 0.30992(17) 1.2548(3)
O3 O 1.16503(11) 0.28385(17) 0.6202(3)
O4 O 1.20463(12) 0.14233(15) 0.5946(3)
H1 H 1.2374 0.1736 0.6046
O5 O 1.17884(12) 0.20342(15) 1.1266(4)
O6 O 1.22059(13) 0.34411(15) 1.1574(3)
H2 H 1.258(2) 0.324(2) 1.123(5)
N1 N 1.01388(14) 0.35301(18) 0.4926(4)
N2 N 0.93862(11) 0.24728(18) 0.3647(6)
N3 N 1.01456(15) 0.14300(18) 0.2290(4)
N4 N 0.82226(16) 0.45091(18) 0.3293(4)
N5 N 0.80405(11) 0.24865(17) 0.3582(6)
N6 N 0.81719(15) 0.04714(18) 0.3956(4)
C1 C 1.05528(19) 0.4017(2) 0.5684(5)
H3 H 1.1021 0.3934 0.5598
C2 C 1.03312(19) 0.4633(2) 0.6582(5)
H4 H 1.0640 0.4960 0.7103
C3 C 0.96576(19) 0.4757(2) 0.6700(5)
H5 H 0.9490 0.5175 0.7308
C4 C 0.92197(18) 0.4267(2) 0.5922(5)
H6 H 0.8750 0.4339 0.6004
C5 C 0.94799(17) 0.3673(2) 0.5027(5)
C6 C 0.90648(17) 0.3096(2) 0.4187(4)
C7 C 0.83712(17) 0.3145(2) 0.3937(4)
C8 C 0.79656(18) 0.3879(2) 0.3974(5)
C9 C 0.73365(19) 0.3875(2) 0.4636(6)
H7 H 0.7171 0.3414 0.5121
C10 C 0.6956(2) 0.4562(2) 0.4571(5)
H8 H 0.6527 0.4583 0.5028
C11 C 0.7208(2) 0.5206(2) 0.3839(5)
H9 H 0.6953 0.5679 0.3752
C12 C 0.7847(2) 0.5152(2) 0.3222(5)
H10 H 0.8022 0.5604 0.2723
C13 C 0.90625(18) 0.1840(2) 0.3085(4)
C14 C 0.94790(18) 0.1265(2) 0.2257(5)
C15 C 0.92354(18) 0.0623(2) 0.1458(5)
H11 H 0.8768 0.0521 0.1432
C16 C 0.96690(18) 0.0134(2) 0.0703(5)
H12 H 0.9507 -0.0308 0.0153
C17 C 1.03514(18) 0.0300(2) 0.0762(5)
H13 H 1.0666 -0.0032 0.0269
C18 C 1.05584(18) 0.0954(2) 0.1548(5)
H14 H 1.1023 0.1074 0.1563
C19 C 0.83603(18) 0.1822(2) 0.3269(4)
C20 C 0.79318(18) 0.1104(2) 0.3215(4)
C21 C 0.73129(19) 0.1130(2) 0.2544(5)
H15 H 0.7169 0.1586 0.2011
C22 C 0.6907(2) 0.0470(2) 0.2671(5)
H16 H 0.6476 0.0468 0.2223
C23 C 0.7128(2) -0.0182(2) 0.3445(5)
H17 H 0.6855 -0.0639 0.3552
C24 C 0.7763(2) -0.0152(2) 0.4066(5)
H18 H 0.7917 -0.0603 0.4603
C25 C 1.1110(2) 0.1691(2) 0.7989(5)
H19 H 1.0998 0.1120 0.7948
H20 H 1.1465 0.1759 0.8751
C26 C 1.05013(19) 0.2139(2) 0.8487(5)
C27 C 0.98643(19) 0.1836(2) 0.8197(5)
H21 H 0.9821 0.1356 0.7650
C28 C 0.93026(19) 0.2217(2) 0.8686(7)
H22 H 0.8874 0.2001 0.8478
C29 C 0.9356(2) 0.2913(3) 0.9482(6)
H23 H 0.8964 0.3174 0.9830
C30 C 0.99775(19) 0.3230(2) 0.9773(5)
H24 H 1.0012 0.3708 1.0328
C31 C 1.05587(19) 0.2856(2) 0.9259(4)
C32 C 1.12306(19) 0.3225(2) 0.9611(5)
H25 H 1.1179 0.3807 0.9653
H26 H 1.1546 0.3101 0.8789
Zn1_2 Zn 1.045643(15) 0.24629(3) 1.36616(8)
O2_2 O 1.10767(13) 0.30992(17) 0.2548(3)
loop_
_geom_bond_atom_site_label_1
_geom_bond_atom_site_label_2
_geom_bond_site_symmetry_1
_geom_bond_site_symmetry_2
Zn1 O1 1_555 1_555
P1 O1 1_555 1_555
P2 O2 1_555 1_555
O2 Zn1_2 1_555 1_555
O3 P1 1_555 1_555
O4 P1 1_555 1_555
H1 O4 1_555 1_555
O5 P2 1_555 1_555
O6 P2 1_555 1_555
H2 O6 1_555 1_555
N1 Zn1 1_555 1_555
N2 Zn1 1_555 1_555
N3 Zn1 1_555 1_555
N4 C8 1_555 1_555
N5 C7 1_555 1_555
N6 C20 1_555 1_555
C1 N1 1_555 1_555
H3 C1 1_555 1_555
C2 C1 1_555 1_555
H4 C2 1_555 1_555
C3 C2 1_555 1_555
H5 C3 1_555 1_555
C4 C3 1_555 1_555
H6 C4 1_555 1_555
C5 N1 1_555 1_555
C6 N2 1_555 1_555
C7 C6 1_555 1_555
C8 C7 1_555 1_555
C9 C8 1_555 1_555
H7 C9 1_555 1_555
C10 C9 1_555 1_555
H8 C10 1_555 1_555
C11 C10 1_555 1_555
H9 C11 1_555 1_555
C12 N4 1_555 1_555
H10 C12 1_555 1_555
C13 N2 1_555 1_555
C14 N3 1_555 1_555
C15 C14 1_555 1_555
H11 C15 1_555 1_555
C16 C15 1_555 1_555
H12 C16 1_555 1_555
C17 C16 1_555 1_555
H13 C17 1_555 1_555
C18 N3 1_555 1_555
H14 C18 1_555 1_555
C19 N5 1_555 1_555
C20 C19 1_555 1_555
C21 C20 1_555 1_555
H15 C21 1_555 1_555
C22 C21 1_555 1_555
H16 C22 1_555 1_555
C23 C22 1_555 1_555
H17 C23 1_555 1_555
C24 N6 1_555 1_555
H18 C24 1_555 1_555
C25 P1 1_555 1_555
H19 C25 1_555 1_555
H20 C25 1_555 1_555
C26 C25 1_555 1_555
C27 C26 1_555 1_555
H21 C27 1_555 1_555
C28 C27 1_555 1_555
H22 C28 1_555 1_555
C29 C28 1_555 1_555
H23 C29 1_555 1_555
C30 C29 1_555 1_555
H24 C30 1_555 1_555
C31 C26 1_555 1_555
C32 P2 1_555 1_555
H25 C32 1_555 1_555
H26 C32 1_555 1_555
O2_2 Zn1 1_555 1_555
C4 C5 1_555 1_555
C5 C6 1_555 1_555
C11 C12 1_555 1_555
C13 C14 1_555 1_555
C13 C19 1_555 1_555
C17 C18 1_555 1_555
C23 C24 1_555 1_555
C30 C31 1_555 1_555
C31 C32 1_555 1_555

#END
