
#######################################################################
#
#                 Cambridge Crystallographic Data Centre
#                                CCDC 
#
#######################################################################
#
# If this CIF has been generated from an entry in the Cambridge 
# Structural Database, then it will include bibliographic, chemical, 
# crystal, experimental, refinement or atomic coordinate data resulting 
# from the CCDC's data processing and validation procedures.
#
#######################################################################

data_GOCNOC
_symmetry_cell_setting           monoclinic
_symmetry_space_group_name_H-M   'P 2/c'
_symmetry_Int_Tables_number      13
_space_group_name_Hall           '-P 2yc'
loop_
_symmetry_equiv_pos_site_id
_symmetry_equiv_pos_as_xyz
1 x,y,z
2 -x,y,1/2-z
3 -x,-y,-z
4 x,-y,1/2+z
_cell_length_a                   12.087(2)
_cell_length_b                   10.0316(18)
_cell_length_c                   17.466(3)
_cell_angle_alpha                90
_cell_angle_beta                 101.142(4)
_cell_angle_gamma                90
_cell_volume                     2077.87
loop_
_atom_site_label
_atom_site_type_symbol
_atom_site_fract_x
_atom_site_fract_y
_atom_site_fract_z
C1 C 0.3576(3) -0.2581(3) 0.23636(19)
H1 H 0.3882 -0.2456 0.1920
C2 C 0.2843(3) -0.1648(3) 0.25474(18)
H2 H 0.2696 -0.0881 0.2246
C3 C 0.2322(3) -0.1835(3) 0.3174(2)
C4 C 0.2586(3) -0.3008(3) 0.36346(18)
H3 H 0.2235 -0.3188 0.4052
C5 C 0.3370(3) -0.3854(4) 0.3443(2)
H4 H 0.3577 -0.4589 0.3764
C6 C 0.1509(3) -0.0903(3) 0.3389(2)
C7 C 0.1508(3) 0.0517(3) 0.33583(19)
C8 C 0.0044(3) -0.0154(3) 0.38063(19)
C9 C -0.1003(3) -0.0106(3) 0.41127(18)
C10 C -0.1556(3) 0.1068(4) 0.41377(18)
H5 H -0.1275 0.1859 0.3973
C11 C -0.2577(4) 0.1045(4) 0.4425(2)
H6 H -0.2954 0.1846 0.4455
C12 C -0.2502(3) -0.1211(4) 0.4637(2)
H7 H -0.2808 -0.1980 0.4809
C13 C -0.1467(3) -0.1292(4) 0.43583(19)
H8 H -0.1105 -0.2106 0.4339
C14 C 0.2304(3) 0.1434(3) 0.3127(2)
C15 C 0.3438(3) 0.1263(3) 0.33590(19)
H9 H 0.3720 0.0509 0.3640
C16 C 0.4178(2) 0.2238(3) 0.3168(2)
H10 H 0.4946 0.2133 0.3360
C17 C 0.2727(3) 0.3478(3) 0.25261(19)
H11 H 0.2464 0.4254 0.2261
C18 C 0.1937(3) 0.2587(3) 0.2684(2)
H12 H 0.1173 0.2740 0.2503
N1 N 0.3875(2) -0.3698(2) 0.28129(16)
N2 N 0.0589(2) -0.1283(3) 0.36626(16)
N3 N 0.0567(2) 0.0960(3) 0.35954(16)
H13 H 0.0338 0.1811 0.3616
N4 N -0.3026(3) -0.0074(3) 0.46544(18)
N5 N 0.3835(2) 0.3315(3) 0.27232(16)
Cl1 Cl 0.59800(8) -0.52322(9) 0.38317(5)
Zn1 Zn 0.5000 -0.51886(6) 0.2500
C1A C 0.6424(3) -0.2581(3) 0.26364(19)
H1A H 0.6118 -0.2456 0.3080
C2A C 0.7157(3) -0.1648(3) 0.24526(18)
H2A H 0.7304 -0.0881 0.2754
C3A C 0.7678(3) -0.1835(3) 0.1826(2)
C4A C 0.7414(3) -0.3008(3) 0.13654(18)
H3A H 0.7765 -0.3188 0.0948
C5A C 0.6630(3) -0.3854(4) 0.1557(2)
H4A H 0.6423 -0.4589 0.1236
C6A C 0.8491(3) -0.0903(3) 0.1611(2)
C7A C 0.8492(3) 0.0517(3) 0.16417(19)
C8A C 0.9956(3) -0.0154(3) 0.11937(19)
C9A C 1.1003(3) -0.0106(3) 0.08873(18)
C10A C 1.1556(3) 0.1068(4) 0.08623(18)
H5A H 1.1275 0.1859 0.1027
C11A C 1.2577(4) 0.1045(4) 0.0575(2)
H6A H 1.2954 0.1846 0.0545
C12A C 1.2502(3) -0.1211(4) 0.0363(2)
H7A H 1.2808 -0.1980 0.0191
C13A C 1.1467(3) -0.1292(4) 0.06417(19)
H8A H 1.1105 -0.2106 0.0661
C14A C 0.7696(3) 0.1434(3) 0.1873(2)
C15A C 0.6562(3) 0.1263(3) 0.16410(19)
H9A H 0.6280 0.0509 0.1360
C16A C 0.5822(2) 0.2238(3) 0.1832(2)
H10A H 0.5054 0.2133 0.1640
C17A C 0.7273(3) 0.3478(3) 0.24739(19)
H11A H 0.7536 0.4254 0.2739
C18A C 0.8063(3) 0.2587(3) 0.2316(2)
H12A H 0.8827 0.2740 0.2497
N1A N 0.6125(2) -0.3698(2) 0.21871(16)
N2A N 0.9411(2) -0.1283(3) 0.13374(16)
N3A N 0.9433(2) 0.0960(3) 0.14046(16)
H13A H 0.9662 0.1811 0.1384
N4A N 1.3026(3) -0.0074(3) 0.03456(18)
N5A N 0.6165(2) 0.3315(3) 0.22768(16)
N5_2 N 0.3835(2) -0.6685(3) 0.27232(16)
N5A_2 N 0.6165(2) -0.6685(3) 0.22768(16)
Cl1A Cl 0.40200(8) -0.52322(9) 0.11683(5)
Zn1_2 Zn 0.5000 0.48114(6) 0.2500
O1 O -0.0248(5) 0.5964(5) 0.3419(3)
H14 H 0.0199 0.6192 0.3122
H15 H -0.0920 0.5949 0.3160
O2 O 0.0308(4) 0.3763(4) 0.4012(3)
H16 H 0.0747 0.4241 0.3802
H17 H -0.0371 0.3997 0.3841
O3 O 0.5159(2) 0.1119(3) 0.52443(15)
H18 H 0.4745 0.1157 0.4792
H19 H 0.5842 0.1006 0.5202
loop_
_geom_bond_atom_site_label_1
_geom_bond_atom_site_label_2
_geom_bond_site_symmetry_1
_geom_bond_site_symmetry_2
C1 H1 1_555 1_555
C2 C1 1_555 1_555
H2 C2 1_555 1_555
C3 C2 1_555 1_555
C4 C3 1_555 1_555
H3 C4 1_555 1_555
C5 C4 1_555 1_555
H4 C5 1_555 1_555
C6 C3 1_555 1_555
C7 C6 1_555 1_555
C8 C9 1_555 1_555
C9 C10 1_555 1_555
C10 H5 1_555 1_555
C11 C10 1_555 1_555
H6 C11 1_555 1_555
C12 H7 1_555 1_555
C13 C9 1_555 1_555
H8 C13 1_555 1_555
C14 C7 1_555 1_555
C15 C14 1_555 1_555
H9 C15 1_555 1_555
C16 C15 1_555 1_555
H10 C16 1_555 1_555
C17 H11 1_555 1_555
C18 C14 1_555 1_555
H12 C18 1_555 1_555
N1 C1 1_555 1_555
N2 C6 1_555 1_555
N3 C7 1_555 1_555
H13 N3 1_555 1_555
N4 C11 1_555 1_555
N5 C16 1_555 1_555
O1 H14 1_555 1_555
H15 O1 1_555 1_555
O2 H16 1_555 1_555
H17 O2 1_555 1_555
O3 H18 1_555 1_555
H19 O3 1_555 1_555
Cl1 Zn1 1_555 1_555
Zn1 N1 1_555 1_555
C1A H1A 1_555 1_555
C2A C1A 1_555 1_555
H2A C2A 1_555 1_555
C3A C2A 1_555 1_555
C4A C3A 1_555 1_555
H3A C4A 1_555 1_555
C5A C4A 1_555 1_555
H4A C5A 1_555 1_555
C6A C3A 1_555 1_555
C7A C6A 1_555 1_555
C8A C9A 1_555 1_555
C9A C10A 1_555 1_555
C10A H5A 1_555 1_555
C11A C10A 1_555 1_555
H6A C11A 1_555 1_555
C12A H7A 1_555 1_555
C13A C9A 1_555 1_555
H8A C13A 1_555 1_555
C14A C7A 1_555 1_555
C15A C14A 1_555 1_555
H9A C15A 1_555 1_555
C16A C15A 1_555 1_555
H10A C16A 1_555 1_555
C17A H11A 1_555 1_555
C18A C14A 1_555 1_555
H12A C18A 1_555 1_555
N1A Zn1 1_555 1_555
N2A C6A 1_555 1_555
N3A C7A 1_555 1_555
H13A N3A 1_555 1_555
N4A C11A 1_555 1_555
N5A C16A 1_555 1_555
N5_2 Zn1 1_555 1_555
N5A_2 Zn1 1_555 1_555
Cl1A Zn1 1_555 1_555
Zn1_2 N5 1_555 1_555
C5 N1 1_555 1_555
C8 N2 1_555 1_555
C8 N3 1_555 1_555
C12 C13 1_555 1_555
C12 N4 1_555 1_555
C17 C18 1_555 1_555
C17 N5 1_555 1_555
C1A N1A 1_555 1_555
C5A N1A 1_555 1_555
C8A N2A 1_555 1_555
C8A N3A 1_555 1_555
C12A C13A 1_555 1_555
C12A N4A 1_555 1_555
C17A C18A 1_555 1_555
C17A N5A 1_555 1_555
N5A Zn1_2 1_555 1_555

#END
