
#######################################################################
#
#                 Cambridge Crystallographic Data Centre
#                                CCDC 
#
#######################################################################
#
# If this CIF has been generated from an entry in the Cambridge 
# Structural Database, then it will include bibliographic, chemical, 
# crystal, experimental, refinement or atomic coordinate data resulting 
# from the CCDC's data processing and validation procedures.
#
#######################################################################

data_GOCNUI
_symmetry_cell_setting           monoclinic
_symmetry_space_group_name_H-M   'C 2/c'
_symmetry_Int_Tables_number      15
_space_group_name_Hall           '-C 2yn'
loop_
_symmetry_equiv_pos_site_id
_symmetry_equiv_pos_as_xyz
1 x,y,z
2 1/2+x,1/2+y,z
3 -x,y,1/2-z
4 1/2-x,1/2+y,1/2-z
5 -x,-y,-z
6 1/2-x,1/2-y,-z
7 x,-y,1/2+z
8 1/2+x,1/2-y,1/2+z
_cell_length_a                   25.3980(11)
_cell_length_b                   10.108(4)
_cell_length_c                   19.325(8)
_cell_angle_alpha                90
_cell_angle_beta                 122.20(2)
_cell_angle_gamma                90
_cell_volume                     4198.11
loop_
_atom_site_label
_atom_site_type_symbol
_atom_site_fract_x
_atom_site_fract_y
_atom_site_fract_z
C1 C 0.00795(18) 0.3840(4) 0.9046(2)
H1 H -0.0183 0.4532 0.8986
C2 C 0.02847(18) 0.2953(4) 0.9691(2)
H2 H 0.0162 0.3053 1.0064
C3 C 0.0672(2) 0.1919(4) 0.9774(2)
C4 C 0.08575(19) 0.1770(4) 0.9226(2)
H3 H 0.1119 0.1075 0.9288
C5 C 0.06544(19) 0.2655(4) 0.8580(3)
H4 H 0.0779 0.2551 0.8210
C6 C 0.0895(2) 0.0993(4) 1.0446(3)
C7 C 0.09462(18) -0.0417(4) 1.0452(2)
C8 C 0.1376(2) 0.0284(5) 1.1771(3)
C9 C 0.07521(19) -0.1313(4) 0.9794(2)
C10 C 0.02111(19) -0.1078(4) 0.9039(3)
H5 H -0.0019 -0.0314 0.8958
H6 H -0.0347 -0.1819 0.7902
H7 H 0.1113 -0.4148 0.9361
C11 C 0.00145(18) -0.1981(4) 0.8407(2)
C12 C 0.08859(18) -0.3373(4) 0.9280(2)
C13 C 0.10858(18) -0.2459(4) 0.9916(2)
H8 H 0.1444 -0.2624 1.0422
C14 C 0.1645(2) 0.0224(5) 1.2593(3)
C15 C 0.17862(19) -0.1004(5) 1.2978(2)
H9 H 0.1676 -0.1779 1.2672
C16 C 0.2095(2) -0.1057(5) 1.3826(3)
H10 H 0.2196 -0.1873 1.4089
C17 C 0.2111(2) 0.1308(5) 1.3895(3)
H11 H 0.2222 0.2082 1.4202
C18 C 0.18049(18) 0.1375(5) 1.3050(2)
H12 H 0.1707 0.2193 1.2791
Cd1 Cd 0.0000 0.52914(5) 0.7500
N1 N 0.02630(16) 0.3699(4) 0.84913(19)
N2 N 0.11639(17) 0.1425(4) 1.1261(2)
N3 N 0.12501(15) -0.0838(3) 1.12786(19)
N4 N 0.03491(15) -0.3126(3) 0.85237(18)
N5 N 0.22522(18) 0.0094(4) 1.4283(2)
O1 O 0.09853(13) 0.5229(3) 0.77575(18)
H19 H 0.1132 0.4453 0.7905
H20 H 0.0978 0.5437 0.7326
C1B C -0.00795(18) 0.3840(4) 0.5954(2)
H1B H 0.0183 0.4532 0.6014
C2B C -0.02847(18) 0.2953(4) 0.5309(2)
H2B H -0.0162 0.3053 0.4936
C3B C -0.0672(2) 0.1919(4) 0.5226(2)
C4B C -0.08575(19) 0.1770(4) 0.5774(2)
H3B H -0.1119 0.1075 0.5712
C5B C -0.06544(19) 0.2655(4) 0.6420(3)
H4B H -0.0779 0.2551 0.6790
C6B C -0.0895(2) 0.0993(4) 0.4554(3)
C7B C -0.09462(18) -0.0417(4) 0.4548(2)
C8B C -0.1376(2) 0.0284(5) 0.3229(3)
C9B C -0.07521(19) -0.1313(4) 0.5206(2)
C10B C -0.02111(19) -0.1078(4) 0.5961(3)
H5B H 0.0019 -0.0314 0.6042
H6B H 0.0347 -0.1819 0.7098
H7B H -0.1113 -0.4148 0.5639
C11B C -0.00145(18) -0.1981(4) 0.6593(2)
C12B C -0.08859(18) -0.3373(4) 0.5720(2)
C13B C -0.10858(18) -0.2459(4) 0.5084(2)
H8B H -0.1444 -0.2624 0.4578
C14B C -0.1645(2) 0.0224(5) 0.2407(3)
C15B C -0.17862(19) -0.1004(5) 0.2022(2)
H9B H -0.1676 -0.1779 0.2328
C16B C -0.2095(2) -0.1057(5) 0.1174(3)
H10B H -0.2196 -0.1873 0.0911
C17B C -0.2111(2) 0.1308(5) 0.1105(3)
H11B H -0.2222 0.2082 0.0798
C18B C -0.18049(18) 0.1375(5) 0.1950(2)
H12B H -0.1707 0.2193 0.2209
Cd1_2 Cd 0.0000 -0.47086(5) 0.7500
N1B N -0.02630(16) 0.3699(4) 0.65087(19)
N2B N -0.11639(17) 0.1425(4) 0.3739(2)
N3B N -0.12501(15) -0.0838(3) 0.37214(19)
N4B N -0.03491(15) -0.3126(3) 0.64763(18)
N4_2 N 0.03491(15) 0.6874(3) 0.85237(18)
N4B_2 N -0.03491(15) 0.6874(3) 0.64763(18)
N5B N -0.22522(18) 0.0094(4) 0.0717(2)
O1B O -0.09853(13) 0.5229(3) 0.72425(18)
H19B H -0.1132 0.4453 0.7095
H20B H -0.0978 0.5437 0.7674
C19 C 0.1525(2) 0.5262(4) 0.6403(3)
H13 H 0.1648 0.5793 0.6101
H14 H 0.1282 0.4525 0.6075
H15 H 0.1889 0.4945 0.6893
O2 O 0.11705(12) 0.6022(3) 0.66073(16)
H21 H 0.1011 0.5609 0.6835
C20 C -0.2515(2) 0.4685(4) 0.6166(3)
H16 H -0.2844 0.5297 0.5831
H17 H -0.2316 0.4943 0.6729
H18 H -0.2685 0.3812 0.6097
O3 O -0.20693(15) 0.4691(3) 0.5929(2)
H22 H -0.2253 0.4817 0.5416
loop_
_geom_bond_atom_site_label_1
_geom_bond_atom_site_label_2
_geom_bond_site_symmetry_1
_geom_bond_site_symmetry_2
C1 H1 1_555 1_555
C2 C1 1_555 1_555
H2 C2 1_555 1_555
C3 C2 1_555 1_555
C4 C3 1_555 1_555
H3 C4 1_555 1_555
C5 C4 1_555 1_555
H4 C5 1_555 1_555
C6 C3 1_555 1_555
C7 C6 1_555 1_555
C8 C14 1_555 1_555
C9 C7 1_555 1_555
C10 C9 1_555 1_555
H5 C10 1_555 1_555
H6 C11 1_555 1_555
H7 C12 1_555 1_555
C11 C10 1_555 1_555
C12 C13 1_555 1_555
C13 C9 1_555 1_555
H8 C13 1_555 1_555
C14 C15 1_555 1_555
C15 H9 1_555 1_555
C16 C15 1_555 1_555
H10 C16 1_555 1_555
C17 H11 1_555 1_555
C18 C14 1_555 1_555
H12 C18 1_555 1_555
C19 H13 1_555 1_555
H14 C19 1_555 1_555
H15 C19 1_555 1_555
C20 H16 1_555 1_555
H17 C20 1_555 1_555
H18 C20 1_555 1_555
Cd1 N1 1_555 1_555
N1 C1 1_555 1_555
N2 C6 1_555 1_555
N3 C7 1_555 1_555
N4 C11 1_555 1_555
N5 C16 1_555 1_555
O1 Cd1 1_555 1_555
H19 O1 1_555 1_555
H20 O1 1_555 1_555
O2 C19 1_555 1_555
H21 O2 1_555 1_555
O3 C20 1_555 1_555
H22 O3 1_555 1_555
C1B H1B 1_555 1_555
C2B C1B 1_555 1_555
H2B C2B 1_555 1_555
C3B C2B 1_555 1_555
C4B C3B 1_555 1_555
H3B C4B 1_555 1_555
C5B C4B 1_555 1_555
H4B C5B 1_555 1_555
C6B C3B 1_555 1_555
C7B C6B 1_555 1_555
C8B C14B 1_555 1_555
C9B C7B 1_555 1_555
C10B C9B 1_555 1_555
H5B C10B 1_555 1_555
H6B C11B 1_555 1_555
H7B C12B 1_555 1_555
C11B C10B 1_555 1_555
C12B C13B 1_555 1_555
C13B C9B 1_555 1_555
H8B C13B 1_555 1_555
C14B C15B 1_555 1_555
C15B H9B 1_555 1_555
C16B C15B 1_555 1_555
H10B C16B 1_555 1_555
C17B H11B 1_555 1_555
C18B C14B 1_555 1_555
H12B C18B 1_555 1_555
Cd1_2 N4 1_555 1_555
N1B Cd1 1_555 1_555
N2B C6B 1_555 1_555
N3B C7B 1_555 1_555
N4B C11B 1_555 1_555
N4_2 Cd1 1_555 1_555
N4B_2 Cd1 1_555 1_555
N5B C16B 1_555 1_555
O1B Cd1 1_555 1_555
H19B O1B 1_555 1_555
H20B O1B 1_555 1_555
C5 N1 1_555 1_555
C8 N2 1_555 1_555
C8 N3 1_555 1_555
C12 N4 1_555 1_555
C17 C18 1_555 1_555
C17 N5 1_555 1_555
C1B N1B 1_555 1_555
C5B N1B 1_555 1_555
C8B N2B 1_555 1_555
C8B N3B 1_555 1_555
C12B N4B 1_555 1_555
C17B C18B 1_555 1_555
C17B N5B 1_555 1_555
Cd1_2 N4B 1_555 1_555

#END
