
#######################################################################
#
#                 Cambridge Crystallographic Data Centre
#                                CCDC 
#
#######################################################################
#
# If this CIF has been generated from an entry in the Cambridge 
# Structural Database, then it will include bibliographic, chemical, 
# crystal, experimental, refinement or atomic coordinate data resulting 
# from the CCDC's data processing and validation procedures.
#
#######################################################################

data_GOCNOD
_symmetry_cell_setting           triclinic
_symmetry_space_group_name_H-M   'P -1'
_symmetry_Int_Tables_number      2
_space_group_name_Hall           '-P 1'
loop_
_symmetry_equiv_pos_site_id
_symmetry_equiv_pos_as_xyz
1 x,y,z
2 -x,-y,-z
_cell_length_a                   7.7530(8)
_cell_length_b                   10.9310(11)
_cell_length_c                   11.1915(11)
_cell_angle_alpha                96.747(2)
_cell_angle_beta                 90.948(2)
_cell_angle_gamma                95.753(2)
_cell_volume                     936.76
loop_
_atom_site_label
_atom_site_type_symbol
_atom_site_fract_x
_atom_site_fract_y
_atom_site_fract_z
Cd1 Cd 0.241546(14) 0.471390(9) 0.153751(9)
P1 P -0.33823(5) -0.35025(4) 0.12713(4)
P2 P -0.14824(5) 0.31641(4) 0.03684(4)
O1 O -0.28845(15) -0.33413(10) 0.00037(10)
O2 O -0.03148(15) 0.37196(10) 0.14124(10)
O3 O -0.46542(15) -0.45978(10) 0.14630(10)
O4 O -0.16977(16) -0.35813(11) 0.20646(10)
H1 H -0.094(3) -0.363(2) 0.170(2)
O5 O -0.12151(15) 0.37167(10) -0.08146(10)
O6 O -0.34423(15) 0.31695(11) 0.07217(11)
H2 H -0.370(3) 0.377(2) 0.092(2)
N1 N 0.33209(18) 0.34090(13) 0.29259(12)
N2 N 0.22127(18) 0.56628(13) 0.35256(12)
C1 C 0.3970(2) 0.23400(15) 0.25792(15)
H3 H 0.4094 0.2101 0.1744
C2 C 0.4469(2) 0.15668(16) 0.33895(16)
H4 H 0.4937 0.0816 0.3119
C3 C 0.4266(2) 0.19193(17) 0.46032(16)
H5 H 0.4577 0.1402 0.5180
C4 C 0.3610(2) 0.30285(17) 0.49722(16)
H6 H 0.3471 0.3284 0.5803
C5 C 0.3154(2) 0.37679(15) 0.41046(15)
C6 C 0.2489(2) 0.49952(15) 0.44398(15)
C7 C 0.2171(2) 0.54355(16) 0.56298(15)
H7 H 0.2360 0.4950 0.6261
C8 C 0.1578(2) 0.65875(17) 0.58778(15)
H8 H 0.1348 0.6902 0.6681
C9 C 0.1323(2) 0.72795(16) 0.49369(16)
H9 H 0.0935 0.8079 0.5086
C10 C 0.1647(2) 0.67776(16) 0.37770(15)
H10 H 0.1459 0.7246 0.3132
C11 C -0.1298(2) 0.15252(14) 0.00037(14)
H11 H -0.2207 0.1186 -0.0612
H12 H -0.0162 0.1429 -0.0367
C12 C -0.1452(2) 0.07474(14) 0.10343(14)
C13 C -0.2769(2) -0.02192(15) 0.10493(14)
H13 H -0.3625 -0.0362 0.0418
C14 C -0.0209(2) 0.09523(15) 0.19716(15)
H14 H 0.0696 0.1607 0.1979
C15 C -0.2862(2) -0.09820(14) 0.19699(14)
C16 C -0.1603(2) -0.07577(15) 0.28971(14)
H15 H -0.1646 -0.1264 0.3532
C17 C -0.0289(2) 0.02026(15) 0.28948(15)
H16 H 0.0563 0.0349 0.3529
C18 C -0.4217(2) -0.20857(14) 0.19208(14)
H17 H -0.5235 -0.1934 0.1434
H18 H -0.4606 -0.2185 0.2745
Cd1_2 Cd -0.758454(14) -0.528610(9) 0.153751(9)
Cd1A Cd -0.241546(14) -0.471390(9) -0.153751(9)
Cd1A_2 Cd -0.241546(14) 0.528610(9) -0.153751(9)
O1A O 0.28845(15) 0.33413(10) -0.00037(10)
O3_2 O 0.53458(15) 0.54022(10) 0.14630(10)
O5A O 0.12151(15) 0.62833(10) 0.08146(10)
loop_
_geom_bond_atom_site_label_1
_geom_bond_atom_site_label_2
_geom_bond_site_symmetry_1
_geom_bond_site_symmetry_2
Cd1 O2 1_555 1_555
P1 O1 1_555 1_555
P2 O2 1_555 1_555
O1 Cd1A 1_555 1_555
O3 P1 1_555 1_555
O4 P1 1_555 1_555
H1 O4 1_555 1_555
O5 P2 1_555 1_555
O6 P2 1_555 1_555
H2 O6 1_555 1_555
N1 Cd1 1_555 1_555
N2 Cd1 1_555 1_555
C1 N1 1_555 1_555
H3 C1 1_555 1_555
C2 C1 1_555 1_555
H4 C2 1_555 1_555
C3 C2 1_555 1_555
H5 C3 1_555 1_555
C4 C3 1_555 1_555
H6 C4 1_555 1_555
C5 N1 1_555 1_555
C6 N2 1_555 1_555
C7 C6 1_555 1_555
H7 C7 1_555 1_555
C8 C7 1_555 1_555
H8 C8 1_555 1_555
C9 C8 1_555 1_555
H9 C9 1_555 1_555
C10 N2 1_555 1_555
H10 C10 1_555 1_555
C11 P2 1_555 1_555
H11 C11 1_555 1_555
H12 C11 1_555 1_555
C12 C11 1_555 1_555
C13 C12 1_555 1_555
H13 C13 1_555 1_555
C14 C12 1_555 1_555
H14 C14 1_555 1_555
C15 C13 1_555 1_555
C16 C15 1_555 1_555
H15 C16 1_555 1_555
C17 C14 1_555 1_555
H16 C17 1_555 1_555
C18 P1 1_555 1_555
H17 C18 1_555 1_555
H18 C18 1_555 1_555
Cd1_2 O3 1_555 1_555
Cd1A_2 O5 1_555 1_555
O1A Cd1 1_555 1_555
O3_2 Cd1 1_555 1_555
O5A Cd1 1_555 1_555
C4 C5 1_555 1_555
C5 C6 1_555 1_555
C9 C10 1_555 1_555
C15 C18 1_555 1_555
C16 C17 1_555 1_555

#END
