
#######################################################################
#
#                 Cambridge Crystallographic Data Centre
#                                CCDC 
#
#######################################################################
#
# If this CIF has been generated from an entry in the Cambridge 
# Structural Database, then it will include bibliographic, chemical, 
# crystal, experimental, refinement or atomic coordinate data resulting 
# from the CCDC's data processing and validation procedures.
#
#######################################################################

data_GOCPAR
_symmetry_cell_setting           monoclinic
_symmetry_space_group_name_H-M   'P 21/n'
_symmetry_Int_Tables_number      14
_space_group_name_Hall           '-P 2yn'
loop_
_symmetry_equiv_pos_site_id
_symmetry_equiv_pos_as_xyz
1 x,y,z
2 1/2-x,1/2+y,1/2-z
3 -x,-y,-z
4 1/2+x,1/2-y,1/2+z
_cell_length_a                   10.558(2)
_cell_length_b                   14.728(3)
_cell_length_c                   12.647(3)
_cell_angle_alpha                90
_cell_angle_beta                 104.631(5)
_cell_angle_gamma                90
_cell_volume                     1902.81
loop_
_atom_site_label
_atom_site_type_symbol
_atom_site_fract_x
_atom_site_fract_y
_atom_site_fract_z
Cd1 Cd 0.934650(14) 0.021079(9) 0.170804(11)
P1 P 1.15386(5) 0.19573(3) 0.15860(4)
P2 P 1.33227(5) 0.38980(3) 0.41548(4)
O1 O 1.30951(14) 0.42797(11) 0.51898(12)
O2 O 1.46628(13) 0.41065(9) 0.39693(11)
O3 O 1.08184(14) 0.12559(9) 0.20708(12)
O4 O 1.17385(15) 0.16441(10) 0.04443(13)
H1 H 1.109(2) 0.1418(17) 0.0032(19)
O5 O 1.28715(14) 0.21958(10) 0.22848(12)
O6 O 1.31416(15) 0.28466(10) 0.41766(12)
H2 H 1.310(2) 0.2615(17) 0.3562(15)
N1 N 0.94910(16) -0.06455(11) 0.32681(14)
N2 N 0.76101(16) 0.06077(11) 0.24357(14)
C1 C 1.0366(2) -0.12881(13) 0.36406(17)
H3 H 1.0972 -0.1437 0.3226
C2 C 1.0441(2) -0.17571(14) 0.46126(18)
H4 H 1.1090 -0.2210 0.4853
C3 C 0.9569(2) -0.15567(14) 0.52159(17)
H5 H 0.9607 -0.1867 0.5881
C4 C 0.8612(2) -0.08825(13) 0.48367(16)
C5 C 0.86095(19) -0.04448(13) 0.38490(16)
C6 C 0.7656(2) -0.06441(14) 0.54067(17)
H6 H 0.7674 -0.0926 0.6086
C7 C 0.6726(2) -0.00223(14) 0.49922(17)
H7 H 0.6102 0.0128 0.5389
C8 C 0.6654(2) 0.04181(13) 0.39695(16)
C9 C 0.76074(19) 0.02192(13) 0.34041(16)
C10 C 0.5663(2) 0.10342(14) 0.34753(17)
H8 H 0.5006 0.1197 0.3833
C11 C 0.5650(2) 0.13985(14) 0.24741(18)
H9 H 0.4970 0.1800 0.2122
C12 C 0.6649(2) 0.11706(13) 0.19810(17)
H10 H 0.6639 0.1430 0.1291
C13 C 1.20469(19) 0.43151(14) 0.30133(16)
H11 H 1.2013 0.4986 0.3050
H12 H 1.2264 0.4149 0.2321
C14 C 1.07119(19) 0.39299(13) 0.30119(16)
C15 C 1.0135(2) 0.41935(14) 0.38450(17)
H13 H 1.0576 0.4620 0.4375
C16 C 0.8947(2) 0.38533(14) 0.39200(18)
H14 H 0.8581 0.4038 0.4500
C17 C 1.0553(2) 0.29700(13) 0.12809(16)
H15 H 1.1081 0.3454 0.1056
H16 H 0.9798 0.2844 0.0653
C18 C 1.00461(19) 0.33150(13) 0.22220(16)
C19 C 0.8830(2) 0.29819(13) 0.22998(18)
H17 H 0.8368 0.2570 0.1761
C20 C 0.8285(2) 0.32373(14) 0.31407(18)
H18 H 0.7466 0.2994 0.3186
Cd1A Cd 1.565350(14) 0.521079(9) 0.329196(11)
Cd1C Cd 1.434650(14) 0.478921(9) 0.670804(11)
O1C O 0.80951(14) 0.07203(11) 0.01898(12)
O2A O 1.03372(13) -0.08935(9) 0.10307(11)
loop_
_geom_bond_atom_site_label_1
_geom_bond_atom_site_label_2
_geom_bond_site_symmetry_1
_geom_bond_site_symmetry_2
Cd1 O3 1_555 1_555
P1 O3 1_555 1_555
P2 O1 1_555 1_555
O1 Cd1C 1_555 1_555
O2 P2 1_555 1_555
O4 P1 1_555 1_555
H1 O4 1_555 1_555
O5 P1 1_555 1_555
O6 P2 1_555 1_555
H2 O6 1_555 1_555
N1 Cd1 1_555 1_555
N2 Cd1 1_555 1_555
C1 N1 1_555 1_555
H3 C1 1_555 1_555
C2 C1 1_555 1_555
H4 C2 1_555 1_555
C3 C2 1_555 1_555
H5 C3 1_555 1_555
C4 C3 1_555 1_555
C5 N1 1_555 1_555
C6 C4 1_555 1_555
H6 C6 1_555 1_555
C7 C6 1_555 1_555
H7 C7 1_555 1_555
C8 C7 1_555 1_555
C9 N2 1_555 1_555
C10 C8 1_555 1_555
H8 C10 1_555 1_555
C11 C10 1_555 1_555
H9 C11 1_555 1_555
C12 N2 1_555 1_555
H10 C12 1_555 1_555
C13 P2 1_555 1_555
H11 C13 1_555 1_555
H12 C13 1_555 1_555
C14 C13 1_555 1_555
C15 C14 1_555 1_555
H13 C15 1_555 1_555
C16 C15 1_555 1_555
H14 C16 1_555 1_555
C17 P1 1_555 1_555
H15 C17 1_555 1_555
H16 C17 1_555 1_555
C18 C14 1_555 1_555
C19 C18 1_555 1_555
H17 C19 1_555 1_555
C20 C16 1_555 1_555
H18 C20 1_555 1_555
Cd1A O2 1_555 1_555
O1C Cd1 1_555 1_555
O2A Cd1 1_555 1_555
C4 C5 1_555 1_555
C5 C9 1_555 1_555
C8 C9 1_555 1_555
C11 C12 1_555 1_555
C17 C18 1_555 1_555
C19 C20 1_555 1_555

#END
