
#######################################################################
#
#                 Cambridge Crystallographic Data Centre
#                                CCDC 
#
#######################################################################
#
# If this CIF has been generated from an entry in the Cambridge 
# Structural Database, then it will include bibliographic, chemical, 
# crystal, experimental, refinement or atomic coordinate data resulting 
# from the CCDC's data processing and validation procedures.
#
#######################################################################

data_GOCPEV
_symmetry_cell_setting           monoclinic
_symmetry_space_group_name_H-M   'P 21/c'
_symmetry_Int_Tables_number      14
_space_group_name_Hall           '-P 2ybc'
loop_
_symmetry_equiv_pos_site_id
_symmetry_equiv_pos_as_xyz
1 x,y,z
2 -x,1/2+y,1/2-z
3 -x,-y,-z
4 x,1/2-y,1/2+z
_cell_length_a                   10.9168(18)
_cell_length_b                   23.782(4)
_cell_length_c                   7.6752(13)
_cell_angle_alpha                90
_cell_angle_beta                 95.977(4)
_cell_angle_gamma                90
_cell_volume                     1981.83
loop_
_atom_site_label
_atom_site_type_symbol
_atom_site_fract_x
_atom_site_fract_y
_atom_site_fract_z
Cd1 Cd 0.450316(16) 0.571148(8) 0.23667(2)
P1 P 0.31239(6) 0.51901(3) -0.15155(8)
P2 P -0.36290(6) 0.55863(3) -0.34137(8)
O1 O 0.35457(16) 0.56765(7) -0.0381(2)
O2 O 0.38334(15) 0.46425(7) -0.1210(2)
O3 O -0.47573(16) 0.56742(8) -0.4690(2)
O4 O 0.30756(16) 0.53549(8) -0.3503(2)
H1 H 0.3783 0.5448 -0.3735
O5 O -0.32929(15) 0.49961(7) -0.2897(2)
O6 O -0.37968(16) 0.59432(8) -0.1716(2)
H2 H -0.3801 0.5727 -0.0851
N1 N 0.52615(19) 0.66302(9) 0.2163(3)
N2 N 0.30365(19) 0.63614(9) 0.3306(3)
C1 C 0.6342(2) 0.67597(11) 0.1633(3)
H3 H 0.6876 0.6463 0.1373
C2 C 0.6732(3) 0.73151(12) 0.1438(3)
H4 H 0.7516 0.7393 0.1063
C3 C 0.5960(2) 0.77436(12) 0.1800(3)
H5 H 0.6202 0.8123 0.1659
C4 C 0.4813(2) 0.76215(12) 0.2377(3)
C5 C 0.4494(2) 0.70520(11) 0.2541(3)
C6 C 0.3984(3) 0.80545(11) 0.2829(3)
H6 H 0.4203 0.8439 0.2720
C7 C 0.2896(3) 0.79193(11) 0.3407(3)
H7 H 0.2360 0.8210 0.3709
C8 C 0.3321(2) 0.69112(11) 0.3148(3)
C9 C 0.2537(2) 0.73487(11) 0.3572(3)
C10 C 0.1416(3) 0.71883(12) 0.4188(3)
H8 H 0.0847 0.7467 0.4474
C11 C 0.1146(2) 0.66323(12) 0.4373(3)
H9 H 0.0399 0.6521 0.4807
C12 C 0.1986(2) 0.62286(12) 0.3915(3)
H10 H 0.1794 0.5842 0.4047
C13 C 0.1537(2) 0.50146(11) -0.1298(3)
H11 H 0.1271 0.4727 -0.2190
H12 H 0.1498 0.4840 -0.0134
C14 C 0.0629(2) 0.54914(11) -0.1485(3)
C15 C 0.0723(2) 0.59258(12) -0.0268(3)
H13 H 0.1380 0.5927 0.0647
C16 C -0.0339(2) 0.54977(11) -0.2812(3)
H14 H -0.0408 0.5203 -0.3654
C17 C -0.0130(2) 0.63557(11) -0.0378(3)
H15 H -0.0056 0.6650 0.0463
C18 C -0.1214(2) 0.59289(11) -0.2931(3)
C19 C -0.1090(2) 0.63609(11) -0.1703(3)
H16 H -0.1668 0.6661 -0.1776
C20 C -0.2318(2) 0.59084(11) -0.4287(3)
H17 H -0.2108 0.5691 -0.5315
H18 H -0.2537 0.6295 -0.4683
Cd1_2 Cd -0.549684(16) 0.571148(8) -0.76333(2)
Cd1B Cd -0.450316(16) 0.428852(8) -0.23667(2)
Cd1B_2 Cd 0.549684(16) 0.428852(8) -0.23667(2)
O2B O 0.61666(15) 0.53575(7) 0.1210(2)
O3_2 O 0.52427(16) 0.56742(8) 0.5310(2)
O5B O 0.32929(15) 0.50039(7) 0.2897(2)
loop_
_geom_bond_atom_site_label_1
_geom_bond_atom_site_label_2
_geom_bond_site_symmetry_1
_geom_bond_site_symmetry_2
Cd1 O1 1_555 1_555
P1 O1 1_555 1_555
P2 O3 1_555 1_555
O2 P1 1_555 1_555
O3 Cd1_2 1_555 1_555
O4 P1 1_555 1_555
H1 O4 1_555 1_555
O5 P2 1_555 1_555
O6 P2 1_555 1_555
H2 O6 1_555 1_555
N1 Cd1 1_555 1_555
N2 Cd1 1_555 1_555
C1 N1 1_555 1_555
H3 C1 1_555 1_555
C2 C1 1_555 1_555
H4 C2 1_555 1_555
C3 C2 1_555 1_555
H5 C3 1_555 1_555
C4 C3 1_555 1_555
C5 N1 1_555 1_555
C6 C4 1_555 1_555
H6 C6 1_555 1_555
C7 C6 1_555 1_555
H7 C7 1_555 1_555
C8 N2 1_555 1_555
C9 C7 1_555 1_555
C10 C9 1_555 1_555
H8 C10 1_555 1_555
C11 C10 1_555 1_555
H9 C11 1_555 1_555
C12 N2 1_555 1_555
H10 C12 1_555 1_555
C13 P1 1_555 1_555
H11 C13 1_555 1_555
H12 C13 1_555 1_555
C14 C13 1_555 1_555
C15 C14 1_555 1_555
H13 C15 1_555 1_555
C16 C14 1_555 1_555
H14 C16 1_555 1_555
C17 C15 1_555 1_555
H15 C17 1_555 1_555
C18 C16 1_555 1_555
C19 C17 1_555 1_555
H16 C19 1_555 1_555
C20 P2 1_555 1_555
H17 C20 1_555 1_555
H18 C20 1_555 1_555
Cd1B O5 1_555 1_555
Cd1B_2 O2 1_555 1_555
O2B Cd1 1_555 1_555
O3_2 Cd1 1_555 1_555
O5B Cd1 1_555 1_555
C4 C5 1_555 1_555
C5 C8 1_555 1_555
C8 C9 1_555 1_555
C11 C12 1_555 1_555
C18 C19 1_555 1_555
C18 C20 1_555 1_555

#END
