
#######################################################################
#
#                 Cambridge Crystallographic Data Centre
#                                CCDC 
#
#######################################################################
#
# If this CIF has been generated from an entry in the Cambridge 
# Structural Database, then it will include bibliographic, chemical, 
# crystal, experimental, refinement or atomic coordinate data resulting 
# from the CCDC's data processing and validation procedures.
#
#######################################################################

data_GOCPEU
_symmetry_cell_setting           triclinic
_symmetry_space_group_name_H-M   'P -1'
_symmetry_Int_Tables_number      2
_space_group_name_Hall           '-P 1'
loop_
_symmetry_equiv_pos_site_id
_symmetry_equiv_pos_as_xyz
1 x,y,z
2 -x,-y,-z
_cell_length_a                   8.932(2)
_cell_length_b                   10.603(2)
_cell_length_c                   12.711(3)
_cell_angle_alpha                110.191(4)
_cell_angle_beta                 91.705(5)
_cell_angle_gamma                112.489(4)
_cell_volume                     1025.58
loop_
_atom_site_label
_atom_site_type_symbol
_atom_site_fract_x
_atom_site_fract_y
_atom_site_fract_z
Ag1 Ag 0.66794(5) 0.01804(4) 0.75765(3)
C1 C 0.4162(6) -0.2182(6) 0.5172(4)
H1 H 0.3490 -0.2522 0.5650
C2 C 0.3595(7) -0.2838(6) 0.4013(4)
H2 H 0.2545 -0.3601 0.3717
H3 H 0.6861 -0.0944 0.3255
H4 H 0.7779 0.0207 0.5228
C3 C 0.4586(7) -0.2365(6) 0.3281(4)
C4 C 0.6168(6) -0.1241(6) 0.3738(5)
C5 C 0.6728(6) -0.0557(6) 0.4922(5)
C6 C 0.3889(7) -0.3085(6) 0.2022(5)
C7 C 0.3309(7) -0.4581(6) 0.1289(5)
C8 C 0.2898(7) -0.3270(6) 0.0375(5)
C9 C 0.3371(6) -0.5863(6) 0.1509(4)
C10 C 0.4726(8) -0.5713(7) 0.2198(5)
H5 H 0.5631 -0.4802 0.2524
C11 C 0.4726(8) -0.6909(7) 0.2394(5)
H6 H 0.5626 -0.6796 0.2863
C12 C 0.2043(9) -0.8441(8) 0.1213(5)
H7 H 0.1139 -0.9354 0.0894
C13 C 0.2030(7) -0.7251(7) 0.1001(5)
H8 H 0.1135 -0.7370 0.0524
C14 C 0.2386(7) -0.2941(6) -0.0591(5)
C15 C 0.1395(7) -0.4072(6) -0.1589(5)
H9 H 0.1006 -0.5044 -0.1641
C16 C 0.0965(8) -0.3792(7) -0.2516(5)
H10 H 0.0287 -0.4568 -0.3179
C17 C 0.2557(7) -0.1187(6) -0.1440(5)
H11 H 0.2956 -0.0214 -0.1386
C18 C 0.2962(6) -0.1493(6) -0.0514(5)
H12 H 0.3621 -0.0721 0.0157
N1 N 0.5699(6) -0.1035(5) 0.5644(4)
N2 N 0.3598(6) -0.2301(5) 0.1438(4)
N3 N 0.2697(6) -0.4635(6) 0.0279(4)
H15 H 0.225(8) -0.542(8) -0.033(6)
N4 N 0.3401(6) -0.8281(5) 0.1902(4)
N5 N 0.1556(7) -0.2338(6) -0.2444(4)
Ag1A Ag 0.33206(5) -0.01804(4) 0.24235(3)
Ag1A_2 Ag 0.33206(5) -1.01804(4) 0.24235(3)
N2A N 0.6402(6) 0.2301(5) 0.8562(4)
N4A N 0.6599(6) -0.1719(5) 0.8098(4)
C19 C 0.8960(7) 0.7442(7) 0.5480(6)
H13 H 0.9769 0.7837 0.6030
H14 H 0.8323 0.7867 0.5484
Cl1 Cl 0.7333(2) 0.59027(17) 0.53883(13)
Cl2 Cl 0.9239(2) 0.73993(17) 0.41722(14)
N6 N 1.0854(7) 0.1782(6) 0.8039(4)
O1 O 1.0584(6) 0.0581(5) 0.7328(4)
O2 O 1.2242(5) 0.2777(5) 0.8334(4)
O3 O 0.9741(5) 0.2019(5) 0.8479(4)
loop_
_geom_bond_atom_site_label_1
_geom_bond_atom_site_label_2
_geom_bond_site_symmetry_1
_geom_bond_site_symmetry_2
Ag1 N1 1_555 1_555
C1 H1 1_555 1_555
C2 C1 1_555 1_555
H2 C2 1_555 1_555
H3 C4 1_555 1_555
H4 C5 1_555 1_555
C3 C2 1_555 1_555
C4 C3 1_555 1_555
C5 C4 1_555 1_555
C6 C3 1_555 1_555
C7 C6 1_555 1_555
C8 C14 1_555 1_555
C9 C7 1_555 1_555
C10 C9 1_555 1_555
H5 C10 1_555 1_555
C11 C10 1_555 1_555
H6 C11 1_555 1_555
C12 H7 1_555 1_555
C13 C9 1_555 1_555
H8 C13 1_555 1_555
C14 C15 1_555 1_555
C15 H9 1_555 1_555
C16 C15 1_555 1_555
H10 C16 1_555 1_555
C17 H11 1_555 1_555
C18 C14 1_555 1_555
H12 C18 1_555 1_555
C19 H13 1_555 1_555
H14 C19 1_555 1_555
Cl1 C19 1_555 1_555
Cl2 C19 1_555 1_555
N1 C1 1_555 1_555
N2 C6 1_555 1_555
N3 C7 1_555 1_555
H15 N3 1_555 1_555
N4 C11 1_555 1_555
N5 C16 1_555 1_555
N6 O1 1_555 1_555
O2 N6 1_555 1_555
O3 N6 1_555 1_555
Ag1A N2 1_555 1_555
Ag1A_2 N4 1_555 1_555
N2A Ag1 1_555 1_555
N4A Ag1 1_555 1_555
C5 N1 1_555 1_555
C8 N2 1_555 1_555
C8 N3 1_555 1_555
C12 C13 1_555 1_555
C12 N4 1_555 1_555
C17 C18 1_555 1_555
C17 N5 1_555 1_555

#END
