
#######################################################################
#
#                 Cambridge Crystallographic Data Centre
#                                CCDC 
#
#######################################################################
#
# If this CIF has been generated from an entry in the Cambridge 
# Structural Database, then it will include bibliographic, chemical, 
# crystal, experimental, refinement or atomic coordinate data resulting 
# from the CCDC's data processing and validation procedures.
#
#######################################################################

data_GOCRAS
_symmetry_cell_setting           triclinic
_symmetry_space_group_name_H-M   'P -1'
_symmetry_Int_Tables_number      2
_space_group_name_Hall           '-P 1'
loop_
_symmetry_equiv_pos_site_id
_symmetry_equiv_pos_as_xyz
1 x,y,z
2 -x,-y,-z
_cell_length_a                   9.0610(18)
_cell_length_b                   10.330(2)
_cell_length_c                   11.072(2)
_cell_angle_alpha                113.80(3)
_cell_angle_beta                 109.17(3)
_cell_angle_gamma                98.43(3)
_cell_volume                     847.634
loop_
_atom_site_label
_atom_site_type_symbol
_atom_site_fract_x
_atom_site_fract_y
_atom_site_fract_z
Cd1 Cd 0.123762(17) 0.250310(15) -0.040372(15)
S1 S -0.20114(7) 0.20049(6) -0.19586(7)
S2 S 0.07956(11) 0.30273(6) 0.19754(7)
N1 N 0.1651(2) 0.22189(19) -0.24917(18)
N2 N 0.3959(2) 0.24198(18) -0.00093(18)
N3 N -0.2078(3) 0.4911(2) -0.0598(3)
N4 N -0.0504(3) 0.0095(2) 0.1348(2)
C1 C 0.3094(2) 0.2041(2) -0.2450(2)
C2 C 0.0577(3) 0.2138(3) -0.3699(2)
H1 H -0.0424 0.2277 -0.3730
C3 C 0.0885(3) 0.1858(3) -0.4905(2)
H2 H 0.0108 0.1813 -0.5729
C4 C 0.2346(3) 0.1648(3) -0.4872(2)
H3 H 0.2574 0.1443 -0.5678
C5 C 0.3480(3) 0.1744(3) -0.3626(2)
H4 H 0.4488 0.1613 -0.3574
C6 C 0.4275(2) 0.2169(2) -0.1088(2)
H5 H 0.5294 0.2059 -0.1027
C7 C 0.5243(3) 0.2547(2) 0.1311(2)
H6 H 0.6158 0.2292 0.1092
C8 C 0.4534(3) 0.1462(3) 0.1733(3)
H7 H 0.4200 0.0447 0.0954
H8 H 0.3563 0.1646 0.1865
C9 C 0.5810(4) 0.1637(3) 0.3149(3)
H9 H 0.5307 0.0981 0.3433
H10 H 0.6721 0.1339 0.2981
C10 C 0.6453(5) 0.3212(3) 0.4360(3)
H11 H 0.7295 0.3296 0.5225
H12 H 0.5563 0.3482 0.4595
C11 C 0.7180(5) 0.4280(3) 0.3922(3)
H13 H 0.8122 0.4058 0.3756
H14 H 0.7559 0.5299 0.4706
C12 C 0.5877(4) 0.4129(3) 0.2523(3)
H15 H 0.4969 0.4417 0.2708
H16 H 0.6362 0.4793 0.2238
C13 C 0.0021(3) 0.1289(2) 0.1574(2)
C14 C -0.2017(2) 0.3732(2) -0.1155(2)
Cd1A Cd -0.123762(17) 0.749690(15) 0.040372(15)
Cd1A_2 Cd -0.123762(17) -0.250310(15) 0.040372(15)
N3A N 0.2078(3) 0.5089(2) 0.0598(3)
N4A N 0.0504(3) -0.0095(2) -0.1348(2)
loop_
_geom_bond_atom_site_label_1
_geom_bond_atom_site_label_2
_geom_bond_site_symmetry_1
_geom_bond_site_symmetry_2
Cd1 S1 1_555 1_555
S1 C14 1_555 1_555
S2 Cd1 1_555 1_555
N1 Cd1 1_555 1_555
N2 Cd1 1_555 1_555
N3 C14 1_555 1_555
N4 C13 1_555 1_555
C1 N1 1_555 1_555
C2 N1 1_555 1_555
H1 C2 1_555 1_555
C3 C2 1_555 1_555
H2 C3 1_555 1_555
C4 C3 1_555 1_555
H3 C4 1_555 1_555
C5 C1 1_555 1_555
H4 C5 1_555 1_555
C6 N2 1_555 1_555
H5 C6 1_555 1_555
C7 N2 1_555 1_555
H6 C7 1_555 1_555
C8 C7 1_555 1_555
H7 C8 1_555 1_555
H8 C8 1_555 1_555
C9 C8 1_555 1_555
H9 C9 1_555 1_555
H10 C9 1_555 1_555
C10 C9 1_555 1_555
H11 C10 1_555 1_555
H12 C10 1_555 1_555
C11 C10 1_555 1_555
H13 C11 1_555 1_555
H14 C11 1_555 1_555
C12 C7 1_555 1_555
H15 C12 1_555 1_555
H16 C12 1_555 1_555
C13 S2 1_555 1_555
Cd1A N3 1_555 1_555
Cd1A_2 N4 1_555 1_555
N3A Cd1 1_555 1_555
N4A Cd1 1_555 1_555
C1 C6 1_555 1_555
C4 C5 1_555 1_555
C11 C12 1_555 1_555

#END
