
#######################################################################
#
#                 Cambridge Crystallographic Data Centre
#                                CCDC 
#
#######################################################################
#
# If this CIF has been generated from an entry in the Cambridge 
# Structural Database, then it will include bibliographic, chemical, 
# crystal, experimental, refinement or atomic coordinate data resulting 
# from the CCDC's data processing and validation procedures.
#
#######################################################################

data_GOCSUO
_symmetry_cell_setting           triclinic
_symmetry_space_group_name_H-M   'P -1'
_symmetry_Int_Tables_number      2
_space_group_name_Hall           '-P 1'
loop_
_symmetry_equiv_pos_site_id
_symmetry_equiv_pos_as_xyz
1 x,y,z
2 -x,-y,-z
_cell_length_a                   8.8026(8)
_cell_length_b                   11.1933(10)
_cell_length_c                   12.9276(12)
_cell_angle_alpha                101.8520(10)
_cell_angle_beta                 109.1690(10)
_cell_angle_gamma                107.8140(10)
_cell_volume                     1077.17
loop_
_atom_site_label
_atom_site_type_symbol
_atom_site_fract_x
_atom_site_fract_y
_atom_site_fract_z
Cu1 Cu 0.0000 0.0000 0.5000
O1 O -0.68726(17) -0.48574(12) 0.44103(12)
O2 O -0.03182(15) 0.16787(11) 0.50790(10)
O3 O -0.14241(19) 0.15146(12) 0.32084(11)
O4 O -0.04134(16) 0.33346(12) 0.70695(10)
H1 H -0.0148 0.2901 0.7507
O5 O 0.23967(15) 0.39753(12) 0.73360(10)
O6 O -0.20077(17) -0.11168(13) 0.27255(12)
H2 H -0.193(3) -0.0329(17) 0.2766(19)
H3 H -0.147(3) -0.130(2) 0.2327(18)
N1 N -0.22741(18) -0.08312(14) 0.51185(12)
N2 N -0.55298(19) -0.49435(14) 0.31746(13)
H4 H -0.4772 -0.4452 0.2966
N3 N -0.7736(2) -0.89867(15) 0.13729(13)
H5 H -0.8181 -0.9851 0.0999
C1 C -0.3262(2) -0.21384(16) 0.45284(15)
H6 H -0.2907 -0.2614 0.4022
C2 C -0.4775(2) -0.28153(17) 0.46328(15)
C3 C -0.5296(2) -0.21062(18) 0.53672(16)
H7 H -0.6323 -0.2547 0.5463
C4 C -0.4309(2) -0.07608(18) 0.59527(16)
H8 H -0.4654 -0.0258 0.6447
C5 C -0.2803(2) -0.01542(17) 0.58079(15)
H9 H -0.2120 0.0774 0.6211
C6 C -0.5831(2) -0.42921(17) 0.40668(15)
C7 C -0.6322(2) -0.63070(17) 0.25808(15)
C8 C -0.7810(2) -0.71742(18) 0.26278(16)
H10 H -0.8348 -0.6845 0.3080
C9 C -0.8473(2) -0.85020(18) 0.20103(16)
H11 H -0.9485 -0.9096 0.2036
C10 C -0.6333(3) -0.81843(19) 0.12900(17)
H12 H -0.5838 -0.8549 0.0822
C11 C -0.5607(2) -0.68374(18) 0.18787(16)
H13 H -0.4623 -0.6267 0.1810
C12 C -0.0760(2) 0.21513(16) 0.42674(15)
C13 C -0.0391(2) 0.36222(16) 0.46623(15)
C14 C 0.0417(2) 0.44109(16) 0.58420(14)
C15 C 0.0804(2) 0.57709(16) 0.61667(15)
H14 H 0.1360 0.6295 0.6970
C16 C 0.0903(2) 0.38620(15) 0.68098(14)
O2A O 0.03182(15) 0.83213(11) 0.49210(10)
O3A O 0.14241(19) 0.84854(12) 0.67916(11)
O4A O 0.04134(16) 0.66654(12) 0.29305(10)
H1A H 0.0148 0.7099 0.2493
O5A O -0.23967(15) 0.60247(12) 0.26640(10)
C12A C 0.0760(2) 0.78487(16) 0.57326(15)
C13A C 0.0391(2) 0.63778(16) 0.53377(15)
C14A C -0.0417(2) 0.55891(16) 0.41580(14)
C15A C -0.0804(2) 0.42291(16) 0.38333(15)
H14A H -0.1360 0.3705 0.3030
C16A C -0.0903(2) 0.61380(15) 0.31902(14)
O1A O 0.68726(17) 0.48574(12) 0.55897(12)
O6A O 0.20077(17) 0.11168(13) 0.72745(12)
H2A H 0.193(3) 0.0329(17) 0.7234(19)
H3A H 0.147(3) 0.130(2) 0.7673(18)
N1A N 0.22741(18) 0.08312(14) 0.48815(12)
N2A N 0.55298(19) 0.49435(14) 0.68254(13)
H4A H 0.4772 0.4452 0.7034
N3A N 0.7736(2) 0.89867(15) 0.86271(13)
H5A H 0.8181 0.9851 0.9001
C1A C 0.3262(2) 0.21384(16) 0.54716(15)
H6A H 0.2907 0.2614 0.5978
C2A C 0.4775(2) 0.28153(17) 0.53672(15)
C3A C 0.5296(2) 0.21062(18) 0.46328(16)
H7A H 0.6323 0.2547 0.4537
C4A C 0.4309(2) 0.07608(18) 0.40473(16)
H8A H 0.4654 0.0258 0.3553
C5A C 0.2803(2) 0.01542(17) 0.41921(15)
H9A H 0.2120 -0.0774 0.3789
C6A C 0.5831(2) 0.42921(17) 0.59332(15)
C7A C 0.6322(2) 0.63070(17) 0.74192(15)
C8A C 0.7810(2) 0.71742(18) 0.73722(16)
H10A H 0.8348 0.6845 0.6920
C9A C 0.8473(2) 0.85020(18) 0.79897(16)
H11A H 0.9485 0.9096 0.7964
C10A C 0.6333(3) 0.81843(19) 0.87100(17)
H12A H 0.5838 0.8549 0.9178
C11A C 0.5607(2) 0.68374(18) 0.81213(16)
H13A H 0.4623 0.6267 0.8190
Cu1_2 Cu 0.0000 1.0000 0.5000
O2A_2 O 0.03182(15) -0.16787(11) 0.49210(10)
O7 O 0.2915(3) -0.1854(2) -0.09873(16)
H15 H 0.254(4) -0.162(3) -0.158(2)
H16 H 0.223(4) -0.183(4) -0.065(3)
O8 O -0.01375(16) -0.19452(12) 0.15782(11)
O9 O 0.07440(18) -0.15619(12) 0.02038(11)
O10 O 0.36510(18) -0.17989(14) 0.19873(13)
O11 O 0.47634(16) -0.31819(13) 0.13620(13)
H17 H 0.5723 -0.2525 0.1789
C17 C -0.1483(2) -0.47224(17) -0.02265(15)
H18 H -0.2499 -0.4532 -0.0375
C18 C 0.0176(2) -0.36866(16) 0.03930(14)
C19 C 0.1674(2) -0.39655(16) 0.06309(14)
C20 C 0.0294(2) -0.22804(16) 0.07643(14)
C21 C 0.3454(2) -0.28589(17) 0.13903(15)
O8A O 0.01375(16) -0.80548(12) -0.15782(11)
O9A O -0.07440(18) -0.84381(12) -0.02038(11)
O10A O -0.36510(18) -0.82011(14) -0.19873(13)
O11A O -0.47634(16) -0.68181(13) -0.13620(13)
H17A H -0.5723 -0.7475 -0.1789
C17A C 0.1483(2) -0.52776(17) 0.02265(15)
H18A H 0.2499 -0.5468 0.0375
C18A C -0.0176(2) -0.63134(16) -0.03930(14)
C19A C -0.1674(2) -0.60345(16) -0.06309(14)
C20A C -0.0294(2) -0.77196(16) -0.07643(14)
C21A C -0.3454(2) -0.71411(17) -0.13903(15)
loop_
_geom_bond_atom_site_label_1
_geom_bond_atom_site_label_2
_geom_bond_site_symmetry_1
_geom_bond_site_symmetry_2
Cu1 O2 1_555 1_555
O1 C6 1_555 1_555
O2 C12 1_555 1_555
O3 C12 1_555 1_555
O4 H1 1_555 1_555
O5 C16 1_555 1_555
O6 Cu1 1_555 1_555
H2 O6 1_555 1_555
H3 O6 1_555 1_555
N1 Cu1 1_555 1_555
N2 H4 1_555 1_555
N3 H5 1_555 1_555
C1 N1 1_555 1_555
H6 C1 1_555 1_555
C2 C1 1_555 1_555
C3 C2 1_555 1_555
H7 C3 1_555 1_555
C4 C3 1_555 1_555
H8 C4 1_555 1_555
C5 N1 1_555 1_555
H9 C5 1_555 1_555
C6 N2 1_555 1_555
C7 N2 1_555 1_555
C8 C7 1_555 1_555
H10 C8 1_555 1_555
C9 N3 1_555 1_555
H11 C9 1_555 1_555
C10 N3 1_555 1_555
H12 C10 1_555 1_555
C11 C7 1_555 1_555
H13 C11 1_555 1_555
C12 C13 1_555 1_555
C13 C14 1_555 1_555
C14 C15 1_555 1_555
C15 H14 1_555 1_555
C16 O4 1_555 1_555
O7 H15 1_555 1_555
H16 O7 1_555 1_555
O8 C20 1_555 1_555
O9 C20 1_555 1_555
O10 C21 1_555 1_555
O11 H17 1_555 1_555
C17 H18 1_555 1_555
C18 C17 1_555 1_555
C19 C18 1_555 1_555
C20 C18 1_555 1_555
C21 O11 1_555 1_555
O2A C12A 1_555 1_555
O3A C12A 1_555 1_555
O4A H1A 1_555 1_555
O5A C16A 1_555 1_555
C12A C13A 1_555 1_555
C13A C15 1_555 1_555
C14A C13A 1_555 1_555
C15A C13 1_555 1_555
H14A C15A 1_555 1_555
C16A O4A 1_555 1_555
O1A C6A 1_555 1_555
O6A Cu1 1_555 1_555
H2A O6A 1_555 1_555
H3A O6A 1_555 1_555
N1A Cu1 1_555 1_555
N2A H4A 1_555 1_555
N3A H5A 1_555 1_555
C1A N1A 1_555 1_555
H6A C1A 1_555 1_555
C2A C1A 1_555 1_555
C3A C2A 1_555 1_555
H7A C3A 1_555 1_555
C4A C3A 1_555 1_555
H8A C4A 1_555 1_555
C5A N1A 1_555 1_555
H9A C5A 1_555 1_555
C6A N2A 1_555 1_555
C7A N2A 1_555 1_555
C8A C7A 1_555 1_555
H10A C8A 1_555 1_555
C9A N3A 1_555 1_555
H11A C9A 1_555 1_555
C10A N3A 1_555 1_555
H12A C10A 1_555 1_555
C11A C7A 1_555 1_555
H13A C11A 1_555 1_555
Cu1_2 O2A 1_555 1_555
O2A_2 Cu1 1_555 1_555
O8A C20A 1_555 1_555
O9A C20A 1_555 1_555
O10A C21A 1_555 1_555
O11A H17A 1_555 1_555
C17A C19 1_555 1_555
H18A C17A 1_555 1_555
C18A C17A 1_555 1_555
C19A C17 1_555 1_555
C20A C18A 1_555 1_555
C21A O11A 1_555 1_555
C2 C6 1_555 1_555
C4 C5 1_555 1_555
C8 C9 1_555 1_555
C10 C11 1_555 1_555
C14 C16 1_555 1_555
C19 C21 1_555 1_555
C14A C15A 1_555 1_555
C14A C16A 1_555 1_555
C2A C6A 1_555 1_555
C4A C5A 1_555 1_555
C8A C9A 1_555 1_555
C10A C11A 1_555 1_555
C18A C19A 1_555 1_555
C19A C21A 1_555 1_555

#END
