
#######################################################################
#
#                 Cambridge Crystallographic Data Centre
#                                CCDC 
#
#######################################################################
#
# If this CIF has been generated from an entry in the Cambridge 
# Structural Database, then it will include bibliographic, chemical, 
# crystal, experimental, refinement or atomic coordinate data resulting 
# from the CCDC's data processing and validation procedures.
#
#######################################################################

data_GOCSOI
_symmetry_cell_setting           triclinic
_symmetry_space_group_name_H-M   'P -1'
_symmetry_Int_Tables_number      2
_space_group_name_Hall           '-P 1'
loop_
_symmetry_equiv_pos_site_id
_symmetry_equiv_pos_as_xyz
1 x,y,z
2 -x,-y,-z
_cell_length_a                   8.3556(7)
_cell_length_b                   10.1057(8)
_cell_length_c                   11.2299(9)
_cell_angle_alpha                63.6050(10)
_cell_angle_beta                 86.7790(10)
_cell_angle_gamma                75.7030(10)
_cell_volume                     821.513
loop_
_atom_site_label
_atom_site_type_symbol
_atom_site_fract_x
_atom_site_fract_y
_atom_site_fract_z
Cu1 Cu 0.0000 0.5000 0.5000
O1 O 0.00981(17) 0.34265(15) 0.68866(13)
O2 O -0.22120(19) 0.27325(17) 0.68081(14)
O3 O -0.17620(19) 0.14058(16) 0.19347(15)
O4 O 0.33631(18) 0.19824(16) 0.87581(15)
O5 O 0.13515(19) 0.33601(15) 0.94348(14)
O6 O 0.29525(17) 0.46148(15) 0.54325(14)
H1 H 0.2882 0.5409 0.4666
H2 H 0.3741 0.3865 0.5441
N1 N 0.0403(2) 0.33821(18) 0.43718(16)
N2 N -0.1953(2) 0.39515(19) 0.08290(17)
H3 H -0.1661 0.4711 0.0869
N3 N -0.4826(2) 0.38190(19) -0.14611(17)
H4 H -0.5395 0.3206 -0.1487
C1 C -0.0421(2) 0.1280(2) 0.87553(19)
C2 C -0.3120(3) 0.5736(2) -0.1362(2)
H5 H -0.2540 0.6419 -0.1330
C3 C -0.1347(2) 0.0191(2) 0.92389(19)
H6 H -0.2285 0.0330 0.8716
C4 C -0.0291(2) 0.2448(2) 0.2905(2)
C5 C 0.1942(3) 0.2263(2) 0.91868(18)
C6 C -0.2956(2) 0.4307(2) -0.0292(2)
C7 C 0.1532(2) 0.2056(2) 0.5021(2)
H7 H 0.2148 0.1904 0.5777
C8 C -0.0900(2) 0.2581(2) 0.73797(19)
C9 C 0.0941(2) 0.1091(2) 0.95374(18)
C10 C -0.4972(3) 0.5177(2) -0.2506(2)
H8 H -0.5659 0.5459 -0.3270
C11 C 0.1831(3) 0.0906(2) 0.4630(2)
H9 H 0.2675 -0.0001 0.5083
C12 C -0.0478(2) 0.3585(2) 0.33147(19)
H10 H -0.1251 0.4534 0.2832
C13 C 0.0893(3) 0.1089(2) 0.3579(2)
H11 H 0.1051 0.0296 0.3315
C14 C -0.3846(3) 0.3349(2) -0.0371(2)
H12 H -0.3759 0.2364 0.0346
C15 C -0.1402(3) 0.2555(2) 0.1845(2)
C16 C -0.4122(3) 0.6166(2) -0.2472(2)
H13 H -0.4226 0.7140 -0.3209
O1A O -0.00981(17) -0.34265(15) 1.31134(13)
O2A O 0.22120(19) -0.27325(17) 1.31919(14)
O4A O -0.33631(18) -0.19824(16) 1.12419(15)
O5A O -0.13515(19) -0.33601(15) 1.05652(14)
C1A C 0.0421(2) -0.1280(2) 1.12447(19)
C3A C 0.1347(2) -0.0191(2) 1.07611(19)
H6A H 0.2285 -0.0330 1.1284
C5A C -0.1942(3) -0.2263(2) 1.08132(18)
C8A C 0.0900(2) -0.2581(2) 1.26203(19)
C9A C -0.0941(2) -0.1091(2) 1.04626(18)
O3A O 0.17620(19) 0.85942(16) 0.80653(15)
N1A N -0.0403(2) 0.66179(18) 0.56282(16)
N2A N 0.1953(2) 0.60485(19) 0.91710(17)
H3A H 0.1661 0.5289 0.9131
N3A N 0.4826(2) 0.61810(19) 1.14611(17)
H4A H 0.5395 0.6794 1.1487
C2A C 0.3120(3) 0.4264(2) 1.1362(2)
H5A H 0.2540 0.3581 1.1330
C4A C 0.0291(2) 0.7552(2) 0.7095(2)
C6A C 0.2956(2) 0.5693(2) 1.0292(2)
C7A C -0.1532(2) 0.7944(2) 0.4979(2)
H7A H -0.2148 0.8096 0.4223
C10A C 0.4972(3) 0.4823(2) 1.2506(2)
H8A H 0.5659 0.4541 1.3270
C11A C -0.1831(3) 0.9094(2) 0.5370(2)
H9A H -0.2675 1.0001 0.4917
C12A C 0.0478(2) 0.6415(2) 0.66853(19)
H10A H 0.1251 0.5466 0.7168
C13A C -0.0893(3) 0.8911(2) 0.6421(2)
H11A H -0.1051 0.9704 0.6685
C14A C 0.3846(3) 0.6651(2) 1.0371(2)
H12A H 0.3759 0.7636 0.9654
C15A C 0.1402(3) 0.7445(2) 0.8155(2)
C16A C 0.4122(3) 0.3834(2) 1.2472(2)
H13A H 0.4226 0.2860 1.3209
O6A O -0.29525(17) 0.53852(15) 0.45675(14)
H1A H -0.2882 0.4591 0.5334
H2A H -0.3741 0.6135 0.4559
Cu1_2 Cu 0.0000 -0.5000 1.5000
O1A_2 O -0.00981(17) 0.65735(15) 0.31134(13)
O7 O -0.5553(2) -0.00774(19) 0.77471(17)
H14 H -0.5899 0.0497 0.8124
H15 H -0.6386 -0.0437 0.7715
O8 O -0.4480(2) 0.20865(18) 0.55709(16)
H16 H -0.368(3) 0.219(3) 0.593(3)
H17 H -0.484(3) 0.140(3) 0.620(2)
loop_
_geom_bond_atom_site_label_1
_geom_bond_atom_site_label_2
_geom_bond_site_symmetry_1
_geom_bond_site_symmetry_2
Cu1 O1 1_555 1_555
O1 C8 1_555 1_555
O2 C8 1_555 1_555
O3 C15 1_555 1_555
O4 C5 1_555 1_555
O5 C5 1_555 1_555
O6 Cu1 1_555 1_555
H1 O6 1_555 1_555
H2 O6 1_555 1_555
N1 Cu1 1_555 1_555
N2 H3 1_555 1_555
N3 H4 1_555 1_555
C1 C3 1_555 1_555
C2 H5 1_555 1_555
C3 H6 1_555 1_555
C4 C12 1_555 1_555
C5 C9 1_555 1_555
C6 N2 1_555 1_555
C7 N1 1_555 1_555
H7 C7 1_555 1_555
C8 C1 1_555 1_555
C9 C1 1_555 1_555
C10 N3 1_555 1_555
H8 C10 1_555 1_555
C11 C7 1_555 1_555
H9 C11 1_555 1_555
C12 N1 1_555 1_555
H10 C12 1_555 1_555
C13 C4 1_555 1_555
H11 C13 1_555 1_555
C14 N3 1_555 1_555
H12 C14 1_555 1_555
C15 N2 1_555 1_555
C16 C2 1_555 1_555
H13 C16 1_555 1_555
O7 H14 1_555 1_555
H15 O7 1_555 1_555
O8 H16 1_555 1_555
H17 O8 1_555 1_555
O1A C8A 1_555 1_555
O2A C8A 1_555 1_555
O4A C5A 1_555 1_555
O5A C5A 1_555 1_555
C1A C3A 1_555 1_555
C3A C9 1_555 1_555
H6A C3A 1_555 1_555
C5A C9A 1_555 1_555
C8A C1A 1_555 1_555
C9A C3 1_555 1_555
O3A C15A 1_555 1_555
N1A Cu1 1_555 1_555
N2A H3A 1_555 1_555
N3A H4A 1_555 1_555
C2A H5A 1_555 1_555
C4A C12A 1_555 1_555
C6A N2A 1_555 1_555
C7A N1A 1_555 1_555
H7A C7A 1_555 1_555
C10A N3A 1_555 1_555
H8A C10A 1_555 1_555
C11A C7A 1_555 1_555
H9A C11A 1_555 1_555
C12A N1A 1_555 1_555
H10A C12A 1_555 1_555
C13A C4A 1_555 1_555
H11A C13A 1_555 1_555
C14A N3A 1_555 1_555
H12A C14A 1_555 1_555
C15A N2A 1_555 1_555
C16A C2A 1_555 1_555
H13A C16A 1_555 1_555
O6A Cu1 1_555 1_555
H1A O6A 1_555 1_555
H2A O6A 1_555 1_555
Cu1_2 O1A 1_555 1_555
O1A_2 Cu1 1_555 1_555
C2 C6 1_555 1_555
C4 C15 1_555 1_555
C6 C14 1_555 1_555
C10 C16 1_555 1_555
C11 C13 1_555 1_555
C1A C9A 1_555 1_555
C2A C6A 1_555 1_555
C4A C15A 1_555 1_555
C6A C14A 1_555 1_555
C10A C16A 1_555 1_555
C11A C13A 1_555 1_555

#END
