
#######################################################################
#
#                 Cambridge Crystallographic Data Centre
#                                CCDC 
#
#######################################################################
#
# If this CIF has been generated from an entry in the Cambridge 
# Structural Database, then it will include bibliographic, chemical, 
# crystal, experimental, refinement or atomic coordinate data resulting 
# from the CCDC's data processing and validation procedures.
#
#######################################################################

data_GOCTAV
_symmetry_cell_setting           triclinic
_symmetry_space_group_name_H-M   'P -1'
_symmetry_Int_Tables_number      2
_space_group_name_Hall           '-P 1'
loop_
_symmetry_equiv_pos_site_id
_symmetry_equiv_pos_as_xyz
1 x,y,z
2 -x,-y,-z
_cell_length_a                   6.6663(9)
_cell_length_b                   10.7803(15)
_cell_length_c                   14.420(2)
_cell_angle_alpha                101.554(2)
_cell_angle_beta                 99.032(2)
_cell_angle_gamma                91.387(2)
_cell_volume                     1001.04
loop_
_atom_site_label
_atom_site_type_symbol
_atom_site_fract_x
_atom_site_fract_y
_atom_site_fract_z
Cu1 Cu 0.44868(7) 0.71525(5) 0.29065(3)
Cu2 Cu 1.0000 1.0000 0.5000
O1 O 0.5292(4) 0.7226(3) 0.42979(19)
O2 O 0.7877(6) 0.6624(3) 0.9118(2)
O3 O 0.5758(4) 0.4691(3) 0.72262(19)
O4 O 0.8771(4) 1.0926(3) 0.6342(2)
O5 O 0.7468(4) 0.8902(3) 0.45709(19)
O6 O 0.5784(4) 1.1022(3) 0.68682(19)
O7 O 0.8740(5) 0.8671(3) 0.9432(2)
H1 H 0.8783 0.8591 0.9990
O8 O 0.3185(5) 0.9160(3) -0.1498(2)
O9 O 0.9158(5) 0.4842(3) 0.7339(3)
O10 O 0.8147(4) 0.7177(3) 0.2590(2)
H2 H 0.8805 0.6545 0.2571
H3 H 0.8606 0.7811 0.2956
N1 N 0.3807(5) 0.7108(3) 0.1488(2)
N2 N 0.2618(6) 0.7088(3) -0.1462(3)
H4 H 0.2227 0.6343 -0.1827
N3 N 0.1322(5) 0.8583(3) -0.4408(2)
C1 C 0.2520(10) 0.6083(5) -0.0128(4)
H5 H 0.1870 0.5349 -0.0560
C2 C 0.7557(6) 0.8885(4) 0.7595(3)
H6 H 0.7741 0.9610 0.8105
C3 C 0.2930(9) 0.6100(5) 0.0836(4)
H7 H 0.2575 0.5360 0.1052
C4 C 0.1747(6) 0.6374(4) -0.4529(3)
H8 H 0.1744 0.5556 -0.4925
C5 C 0.7296(6) 0.6616(4) 0.7070(3)
C6 C 0.6525(6) 0.8057(4) 0.4854(3)
C7 C 0.7258(6) 1.0445(4) 0.6589(3)
C8 C 0.6861(5) 0.7991(4) 0.5904(3)
C9 C 0.3935(6) 0.8184(4) 0.0197(3)
H9 H 0.4308 0.8935 0.0000
C10 C 0.6852(6) 0.6793(4) 0.6137(3)
H10 H 0.6525 0.6068 0.5633
C11 C 0.2278(6) 0.7742(4) -0.2990(3)
C12 C 0.1860(6) 0.8750(4) -0.3456(3)
H11 H 0.1963 0.9587 -0.3081
C13 C 0.1286(6) 0.7401(4) -0.4935(3)
H12 H 0.0928 0.7272 -0.5613
C14 C 0.7646(6) 0.7695(4) 0.7821(3)
C15 C 0.8101(6) 0.7594(4) 0.8845(3)
C16 C 0.4266(6) 0.8127(4) 0.1148(3)
H13 H 0.4862 0.8861 0.1597
C17 C 0.2753(6) 0.8072(4) -0.1920(3)
C18 C 0.2217(6) 0.6532(4) -0.3544(3)
H14 H 0.2492 0.5824 -0.3253
C19 C 0.7444(6) 0.5276(4) 0.7234(3)
C20 C 0.7209(5) 0.9063(4) 0.6657(3)
C21 C 0.3050(7) 0.7134(4) -0.0474(3)
Cu1A Cu 0.55132(7) 0.28475(5) 0.70935(3)
O1A O 0.4708(4) 0.2774(3) 0.57021(19)
O2A O 0.2123(6) 0.3376(3) 0.0882(2)
O3A O 0.4242(4) 0.5309(3) 0.27738(19)
O4A O 0.1229(4) -0.0926(3) 0.3658(2)
O5A O 0.2532(4) 0.1098(3) 0.54291(19)
O6A O 0.4216(4) -0.1022(3) 0.31318(19)
O7A O 0.1260(5) 0.1329(3) 0.0568(2)
H1A H 0.1217 0.1409 0.0010
O8A O 0.6815(5) 0.0840(3) 1.1498(2)
O9A O 0.0842(5) 0.5158(3) 0.2661(3)
O10A O 0.1853(4) 0.2823(3) 0.7410(2)
H2A H 0.1195 0.3455 0.7429
H3A H 0.1394 0.2189 0.7044
N1A N 0.6193(5) 0.2892(3) 0.8512(2)
N2A N 0.7382(6) 0.2912(3) 1.1462(3)
H4A H 0.7773 0.3657 1.1827
N3A N 0.8678(5) 0.1417(3) 1.4408(2)
C1A C 0.7480(10) 0.3917(5) 1.0128(4)
H5A H 0.8130 0.4651 1.0560
C2A C 0.2443(6) 0.1115(4) 0.2405(3)
H6A H 0.2259 0.0390 0.1895
C3A C 0.7070(9) 0.3900(5) 0.9164(4)
H7A H 0.7425 0.4640 0.8948
C4A C 0.8253(6) 0.3626(4) 1.4529(3)
H8A H 0.8256 0.4444 1.4925
C5A C 0.2704(6) 0.3384(4) 0.2930(3)
C6A C 0.3475(6) 0.1943(4) 0.5146(3)
C7A C 0.2742(6) -0.0445(4) 0.3411(3)
C8A C 0.3139(5) 0.2009(4) 0.4096(3)
C9A C 0.6065(6) 0.1816(4) 0.9803(3)
H9A H 0.5692 0.1065 1.0000
C10A C 0.3148(6) 0.3207(4) 0.3863(3)
H10A H 0.3475 0.3932 0.4367
C11A C 0.7722(6) 0.2258(4) 1.2990(3)
C12A C 0.8140(6) 0.1250(4) 1.3456(3)
H11A H 0.8037 0.0413 1.3081
C13A C 0.8714(6) 0.2599(4) 1.4935(3)
H12A H 0.9072 0.2728 1.5613
C14A C 0.2354(6) 0.2305(4) 0.2179(3)
C15A C 0.1899(6) 0.2406(4) 0.1155(3)
C16A C 0.5734(6) 0.1873(4) 0.8852(3)
H13A H 0.5138 0.1139 0.8403
C17A C 0.7247(6) 0.1928(4) 1.1920(3)
C18A C 0.7783(6) 0.3468(4) 1.3544(3)
H14A H 0.7508 0.4176 1.3253
C19A C 0.2556(6) 0.4724(4) 0.2766(3)
C20A C 0.2791(5) 0.0937(4) 0.3343(3)
C21A C 0.6950(7) 0.2866(4) 1.0474(3)
Cu1_2 Cu 0.44868(7) -0.28475(5) 0.29065(3)
Cu1A_2 Cu 0.55132(7) 1.28475(5) 0.70935(3)
Cu2_2 Cu 0.0000 0.0000 0.5000
Cu2_3 Cu 0.0000 1.0000 -0.5000
Cu2_4 Cu 1.0000 0.0000 1.5000
O4A_2 O 1.1229(4) 0.9074(3) 0.3658(2)
O5A_2 O 1.2532(4) 1.1098(3) 0.54291(19)
O6_2 O 0.5784(4) 0.1022(3) 0.68682(19)
O6A_2 O 0.4216(4) 0.8978(3) 0.31318(19)
N3_2 N 1.1322(5) 0.8583(3) 0.5592(2)
N3A_2 N 0.8678(5) 1.1417(3) 0.4408(2)
O11 O 0.9266(4) 0.8707(3) 0.1263(2)
H15 H 0.8558 0.9346 0.1394
H16 H 0.8878 0.8153 0.1538
loop_
_geom_bond_atom_site_label_1
_geom_bond_atom_site_label_2
_geom_bond_site_symmetry_1
_geom_bond_site_symmetry_2
Cu1 O1 1_555 1_555
Cu2 O4 1_555 1_555
O1 C6 1_555 1_555
O2 C15 1_555 1_555
O3 C19 1_555 1_555
O4 C7 1_555 1_555
O5 Cu2 1_555 1_555
O6 C7 1_555 1_555
O7 H1 1_555 1_555
O8 C17 1_555 1_555
O9 C19 1_555 1_555
O10 Cu1 1_555 1_555
H2 O10 1_555 1_555
H3 O10 1_555 1_555
N1 Cu1 1_555 1_555
N2 H4 1_555 1_555
N3 C12 1_555 1_555
C1 H5 1_555 1_555
C2 H6 1_555 1_555
C3 N1 1_555 1_555
H7 C3 1_555 1_555
C4 H8 1_555 1_555
C5 C10 1_555 1_555
C6 O5 1_555 1_555
C7 C20 1_555 1_555
C8 C6 1_555 1_555
C9 H9 1_555 1_555
C10 C8 1_555 1_555
H10 C10 1_555 1_555
C11 C12 1_555 1_555
C12 H11 1_555 1_555
C13 N3 1_555 1_555
H12 C13 1_555 1_555
C14 C2 1_555 1_555
C15 O7 1_555 1_555
C16 N1 1_555 1_555
H13 C16 1_555 1_555
C17 N2 1_555 1_555
C18 C4 1_555 1_555
H14 C18 1_555 1_555
C19 C5 1_555 1_555
C20 C2 1_555 1_555
C21 N2 1_555 1_555
O11 H15 1_555 1_555
H16 O11 1_555 1_555
Cu1A O3 1_555 1_555
O1A Cu1A 1_555 1_555
O2A C15A 1_555 1_555
O3A Cu1 1_555 1_555
O4A C7A 1_555 1_555
O5A C6A 1_555 1_555
O6A C7A 1_555 1_555
O7A H1A 1_555 1_555
O8A C17A 1_555 1_555
O9A C19A 1_555 1_555
O10A Cu1A 1_555 1_555
H2A O10A 1_555 1_555
H3A O10A 1_555 1_555
N1A Cu1A 1_555 1_555
N2A H4A 1_555 1_555
N3A C12A 1_555 1_555
C1A H5A 1_555 1_555
C2A H6A 1_555 1_555
C3A N1A 1_555 1_555
H7A C3A 1_555 1_555
C4A H8A 1_555 1_555
C5A C10A 1_555 1_555
C6A O1A 1_555 1_555
C7A C20A 1_555 1_555
C8A C6A 1_555 1_555
C9A H9A 1_555 1_555
C10A C8A 1_555 1_555
H10A C10A 1_555 1_555
C11A C12A 1_555 1_555
C12A H11A 1_555 1_555
C13A N3A 1_555 1_555
H12A C13A 1_555 1_555
C14A C2A 1_555 1_555
C15A O7A 1_555 1_555
C16A N1A 1_555 1_555
H13A C16A 1_555 1_555
C17A N2A 1_555 1_555
C18A C4A 1_555 1_555
H14A C18A 1_555 1_555
C19A O3A 1_555 1_555
C20A C2A 1_555 1_555
C21A N2A 1_555 1_555
Cu1_2 O6A 1_555 1_555
Cu1A_2 O6 1_555 1_555
Cu2_2 O4A 1_555 1_555
Cu2_3 N3 1_555 1_555
Cu2_4 N3A 1_555 1_555
O4A_2 Cu2 1_555 1_555
O5A_2 Cu2 1_555 1_555
O6_2 Cu1A 1_555 1_555
O6A_2 Cu1 1_555 1_555
N3_2 Cu2 1_555 1_555
N3A_2 Cu2 1_555 1_555
C1 C3 1_555 1_555
C1 C21 1_555 1_555
C4 C13 1_555 1_555
C5 C14 1_555 1_555
C8 C20 1_555 1_555
C9 C16 1_555 1_555
C9 C21 1_555 1_555
C11 C17 1_555 1_555
C11 C18 1_555 1_555
C14 C15 1_555 1_555
O5A Cu2_2 1_555 1_555
C1A C3A 1_555 1_555
C1A C21A 1_555 1_555
C4A C13A 1_555 1_555
C5A C14A 1_555 1_555
C5A C19A 1_555 1_555
C8A C20A 1_555 1_555
C9A C16A 1_555 1_555
C9A C21A 1_555 1_555
C11A C17A 1_555 1_555
C11A C18A 1_555 1_555
C14A C15A 1_555 1_555

#END
