
#######################################################################
#
#                 Cambridge Crystallographic Data Centre
#                                CCDC 
#
#######################################################################
#
# If this CIF has been generated from an entry in the Cambridge 
# Structural Database, then it will include bibliographic, chemical, 
# crystal, experimental, refinement or atomic coordinate data resulting 
# from the CCDC's data processing and validation procedures.
#
#######################################################################

data_GOCTID
_symmetry_cell_setting           orthorhombic
_symmetry_space_group_name_H-M   'P n m a'
_symmetry_Int_Tables_number      62
_space_group_name_Hall           '-P 2ac 2n'
loop_
_symmetry_equiv_pos_site_id
_symmetry_equiv_pos_as_xyz
1 x,y,z
2 1/2-x,-y,1/2+z
3 1/2+x,1/2-y,1/2-z
4 -x,1/2+y,-z
5 -x,-y,-z
6 1/2+x,y,1/2-z
7 1/2-x,1/2+y,1/2+z
8 x,1/2-y,z
_cell_length_a                   7.853(5)
_cell_length_b                   20.662(14)
_cell_length_c                   5.980(4)
_cell_angle_alpha                90
_cell_angle_beta                 90
_cell_angle_gamma                90
_cell_volume                     970.307
loop_
_atom_site_label
_atom_site_type_symbol
_atom_site_fract_x
_atom_site_fract_y
_atom_site_fract_z
C1 C -0.0336(5) 0.05042(14) -0.1452(5)
H1 H -0.0561 0.0843 -0.2431
C2 C 0.0756(5) 0.01216(16) 0.2037(5)
H2 H 0.1267 0.0203 0.3411
C3 C 0.0420(4) 0.06265(14) 0.0595(5)
C4 C 0.0843(4) 0.13025(14) 0.1277(5)
In1 In 0.14139(3) 0.2500 0.26679(4)
O1 O 0.1419(3) 0.14073(11) 0.3191(4)
O2 O 0.0599(3) 0.17695(9) -0.0050(3)
O3 O 0.2398(5) 0.2500 0.6135(5)
O4 O 0.3853(3) 0.2500 0.1174(5)
C1D C 0.0336(5) -0.05042(14) 0.1452(5)
H1D H 0.0561 -0.0843 0.2431
C2D C -0.0756(5) -0.01216(16) -0.2037(5)
H2D H -0.1267 -0.0203 -0.3411
C3D C -0.0420(4) -0.06265(14) -0.0595(5)
C4D C -0.0843(4) -0.13025(14) -0.1277(5)
O1D O -0.1419(3) -0.14073(11) -0.3191(4)
O2D O -0.0599(3) -0.17695(9) 0.0050(3)
In1B In 0.64139(3) 0.2500 0.23321(4)
In1C In -0.14139(3) -0.2500 -0.26679(4)
O1G O 0.1419(3) 0.35927(11) 0.3191(4)
O2G O 0.0599(3) 0.32305(9) -0.0050(3)
O4B O -0.1147(3) 0.2500 0.3826(5)
loop_
_geom_bond_atom_site_label_1
_geom_bond_atom_site_label_2
_geom_bond_site_symmetry_1
_geom_bond_site_symmetry_2
C1 H1 1_555 1_555
C2 H2 1_555 1_555
C3 C1 1_555 1_555
C4 C3 1_555 1_555
In1 O1 1_555 1_555
O1 C4 1_555 1_555
O2 C4 1_555 1_555
O3 In1 1_555 1_555
O4 In1 1_555 1_555
C1D C2 1_555 1_555
H1D C1D 1_555 1_555
C2D C1 1_555 1_555
H2D C2D 1_555 1_555
C3D C1D 1_555 1_555
C4D C3D 1_555 1_555
O1D C4D 1_555 1_555
O2D C4D 1_555 1_555
In1B O4 1_555 1_555
In1C O1D 1_555 1_555
O1G In1 1_555 1_555
O2G In1 1_555 1_555
O4B In1 1_555 1_555
C2 C3 1_555 1_555
In1 O2 1_555 1_555
C2D C3D 1_555 1_555
O2D In1C 1_555 1_555

#END
