
#######################################################################
#
#                 Cambridge Crystallographic Data Centre
#                                CCDC 
#
#######################################################################
#
# If this CIF has been generated from an entry in the Cambridge 
# Structural Database, then it will include bibliographic, chemical, 
# crystal, experimental, refinement or atomic coordinate data resulting 
# from the CCDC's data processing and validation procedures.
#
#######################################################################

data_GOCWUR
_symmetry_cell_setting           monoclinic
_symmetry_space_group_name_H-M   'P 21/c'
_symmetry_Int_Tables_number      14
_space_group_name_Hall           '-P 2ybc'
loop_
_symmetry_equiv_pos_site_id
_symmetry_equiv_pos_as_xyz
1 x,y,z
2 -x,1/2+y,1/2-z
3 -x,-y,-z
4 x,1/2-y,1/2+z
_cell_length_a                   14.131(3)
_cell_length_b                   8.0869(15)
_cell_length_c                   16.515(3)
_cell_angle_alpha                90
_cell_angle_beta                 114.070(2)
_cell_angle_gamma                90
_cell_volume                     1723.17
loop_
_atom_site_label
_atom_site_type_symbol
_atom_site_fract_x
_atom_site_fract_y
_atom_site_fract_z
Cd1 Cd 0.656437(17) 0.50304(3) 0.603761(14)
N1 N 0.6806(2) 0.5286(3) 0.46389(18)
N2 N 0.81616(19) 0.3695(3) 0.62967(17)
O1 O 0.56624(16) 0.7200(3) 0.61522(15)
O2 O 0.47426(16) 0.6805(3) 0.47109(15)
O3 O 0.35137(18) 0.8944(3) 0.77517(14)
O4 O 0.22336(19) 1.0735(3) 0.71446(16)
O5 O 0.9701(2) 0.3078(5) 0.4237(2)
Br1 Br 0.18547(3) 1.17315(4) 0.37365(2)
C1 C 0.4063(2) 0.8596(4) 0.54784(19)
C2 C 0.3447(2) 0.9491(4) 0.4724(2)
H1 H 0.3556 0.9420 0.4207
C3 C 0.2670(2) 1.0487(4) 0.4765(2)
C4 C 0.2468(2) 1.0588(4) 0.5510(2)
H2 H 0.1928 1.1244 0.5512
C5 C 0.3084(2) 0.9693(4) 0.6265(2)
C6 C 0.3889(2) 0.8727(4) 0.6246(2)
H3 H 0.4316 0.8161 0.6754
C7 C 0.4884(2) 0.7459(4) 0.5445(2)
C8 C 0.2907(3) 0.9816(4) 0.7107(2)
C9 C 0.6270(3) 0.5898(4) 0.3817(2)
H4 H 0.5633 0.6400 0.3694
C10 C 0.6624(3) 0.5815(5) 0.3148(2)
H5 H 0.6231 0.6272 0.2595
C11 C 0.7559(3) 0.5053(5) 0.3302(3)
H6 H 0.7807 0.4986 0.2861
C12 C 0.8106(3) 0.4401(5) 0.4131(2)
C13 C 0.9107(3) 0.3426(5) 0.4561(3)
C14 C 0.9203(2) 0.3031(4) 0.5492(2)
C15 C 0.9897(3) 0.2142(5) 0.6197(3)
H7 H 1.0469 0.1623 0.6167
C16 C 0.9701(3) 0.2059(4) 0.6946(3)
H8 H 1.0148 0.1464 0.7434
C17 C 0.8851(3) 0.2844(4) 0.6987(2)
H9 H 0.8753 0.2782 0.7510
C18 C 0.8362(2) 0.3738(4) 0.5584(2)
C19 C 0.7688(2) 0.4560(4) 0.4755(2)
Cd1B Cd 0.343563(17) 0.49696(3) 0.396239(14)
Cd1A Cd 0.343563(17) 1.00304(3) 0.896239(14)
O2B O 0.52574(16) 0.3195(3) 0.52891(15)
O3A O 0.64863(18) 0.3944(3) 0.72483(14)
loop_
_geom_bond_atom_site_label_1
_geom_bond_atom_site_label_2
_geom_bond_site_symmetry_1
_geom_bond_site_symmetry_2
Cd1 N1 1_555 1_555
N1 C9 1_555 1_555
N2 Cd1 1_555 1_555
O1 Cd1 1_555 1_555
O2 C7 1_555 1_555
O3 C8 1_555 1_555
O4 C8 1_555 1_555
O5 C13 1_555 1_555
Br1 C3 1_555 1_555
C1 C2 1_555 1_555
C2 H1 1_555 1_555
C3 C2 1_555 1_555
C4 C3 1_555 1_555
H2 C4 1_555 1_555
C5 C4 1_555 1_555
C6 C1 1_555 1_555
H3 C6 1_555 1_555
C7 O1 1_555 1_555
C8 C5 1_555 1_555
C9 H4 1_555 1_555
C10 C9 1_555 1_555
H5 C10 1_555 1_555
C11 C10 1_555 1_555
H6 C11 1_555 1_555
C12 C11 1_555 1_555
C13 C12 1_555 1_555
C14 C13 1_555 1_555
C15 C14 1_555 1_555
H7 C15 1_555 1_555
C16 C15 1_555 1_555
H8 C16 1_555 1_555
C17 N2 1_555 1_555
H9 C17 1_555 1_555
C18 N2 1_555 1_555
C19 N1 1_555 1_555
Cd1B O2 1_555 1_555
Cd1A O3 1_555 1_555
O2B Cd1 1_555 1_555
O3A Cd1 1_555 1_555
C1 C7 1_555 1_555
C5 C6 1_555 1_555
C12 C19 1_555 1_555
C14 C18 1_555 1_555
C16 C17 1_555 1_555
C18 C19 1_555 1_555

#END
