
#######################################################################
#
#                 Cambridge Crystallographic Data Centre
#                                CCDC 
#
#######################################################################
#
# If this CIF has been generated from an entry in the Cambridge 
# Structural Database, then it will include bibliographic, chemical, 
# crystal, experimental, refinement or atomic coordinate data resulting 
# from the CCDC's data processing and validation procedures.
#
#######################################################################

data_GOCWOL
_symmetry_cell_setting           monoclinic
_symmetry_space_group_name_H-M   'P 21/c'
_symmetry_Int_Tables_number      14
_space_group_name_Hall           '-P 2ybc'
loop_
_symmetry_equiv_pos_site_id
_symmetry_equiv_pos_as_xyz
1 x,y,z
2 -x,1/2+y,1/2-z
3 -x,-y,-z
4 x,1/2-y,1/2+z
_cell_length_a                   13.9849(19)
_cell_length_b                   7.8845(11)
_cell_length_c                   16.731(2)
_cell_angle_alpha                90
_cell_angle_beta                 100.079(2)
_cell_angle_gamma                90
_cell_volume                     1816.36
loop_
_atom_site_label
_atom_site_type_symbol
_atom_site_fract_x
_atom_site_fract_y
_atom_site_fract_z
Cd1 Cd 0.150644(15) 0.51075(3) 0.474561(12)
N1 N 0.30560(18) 0.4044(3) 0.52752(14)
N2 N 0.18062(18) 0.5310(3) 0.61988(15)
O1 O 0.06300(15) 0.7293(3) 0.41709(13)
O2 O -0.02758(16) 0.6776(3) 0.51052(12)
O3 O -0.14093(19) 0.8931(3) 0.14860(13)
O4 O -0.2544(2) 1.0878(3) 0.14902(14)
O5 O 0.5221(2) 0.2398(5) 0.76405(18)
O6 O 0.4122(2) 0.4132(5) 0.85640(15)
Br1 Br -0.31297(3) 1.14541(5) 0.46351(2)
C1 C -0.0929(2) 0.8562(4) 0.40083(17)
C2 C -0.1552(2) 0.9363(4) 0.44377(17)
H1 H -0.1467 0.9268 0.5000
C3 C -0.2309(2) 1.0314(4) 0.40168(19)
C4 C -0.2466(2) 1.0469(4) 0.31848(19)
H2 H -0.2983 1.1107 0.2915
C5 C -0.1831(2) 0.9644(4) 0.27546(18)
C6 C -0.1069(2) 0.8706(4) 0.31663(17)
H3 H -0.0645 0.8164 0.2879
C7 C -0.0133(2) 0.7471(4) 0.44596(17)
C8 C -0.1954(3) 0.9852(4) 0.1842(2)
C9 C 0.3662(2) 0.3464(5) 0.4810(2)
H4 H 0.3454 0.3460 0.4250
C10 C 0.4579(3) 0.2870(6) 0.5107(2)
H5 H 0.4986 0.2508 0.4757
C11 C 0.4879(3) 0.2822(5) 0.5928(2)
H6 H 0.5496 0.2432 0.6148
C12 C 0.4247(2) 0.3365(4) 0.6428(2)
C13 C 0.4524(3) 0.3204(5) 0.7316(2)
C14 C 0.3857(3) 0.4031(5) 0.7835(2)
C15 C 0.2905(2) 0.4681(4) 0.74282(18)
C16 C 0.2248(3) 0.5324(5) 0.7886(2)
H7 H 0.2397 0.5333 0.8450
C17 C 0.1383(2) 0.5940(5) 0.74956(19)
H8 H 0.0931 0.6374 0.7789
C18 C 0.1185(2) 0.5912(4) 0.66549(19)
H9 H 0.0590 0.6332 0.6394
C19 C 0.2657(2) 0.4682(4) 0.65844(17)
C20 C 0.3340(2) 0.4007(4) 0.60810(17)
O2B O 0.02758(16) 0.3224(3) 0.48948(12)
O3A O 0.14093(19) 0.3931(3) 0.35140(13)
Cd1B Cd -0.150644(15) 0.48925(3) 0.525439(12)
Cd1A Cd -0.150644(15) 1.01075(3) 0.025439(12)
loop_
_geom_bond_atom_site_label_1
_geom_bond_atom_site_label_2
_geom_bond_site_symmetry_1
_geom_bond_site_symmetry_2
Cd1 N1 1_555 1_555
N1 C9 1_555 1_555
N2 Cd1 1_555 1_555
O1 Cd1 1_555 1_555
O2 C7 1_555 1_555
O3 C8 1_555 1_555
O4 C8 1_555 1_555
O5 C13 1_555 1_555
O6 C14 1_555 1_555
Br1 C3 1_555 1_555
C1 C2 1_555 1_555
C2 H1 1_555 1_555
C3 C2 1_555 1_555
C4 C3 1_555 1_555
H2 C4 1_555 1_555
C5 C4 1_555 1_555
C6 C1 1_555 1_555
H3 C6 1_555 1_555
C7 O1 1_555 1_555
C8 C5 1_555 1_555
C9 H4 1_555 1_555
C10 C9 1_555 1_555
H5 C10 1_555 1_555
C11 C10 1_555 1_555
H6 C11 1_555 1_555
C12 C11 1_555 1_555
C13 C12 1_555 1_555
C14 C13 1_555 1_555
C15 C14 1_555 1_555
C16 C15 1_555 1_555
H7 C16 1_555 1_555
C17 C16 1_555 1_555
H8 C17 1_555 1_555
C18 N2 1_555 1_555
H9 C18 1_555 1_555
C19 N2 1_555 1_555
C20 N1 1_555 1_555
O2B Cd1 1_555 1_555
O3A Cd1 1_555 1_555
Cd1B O2 1_555 1_555
Cd1A O3 1_555 1_555
C1 C7 1_555 1_555
C5 C6 1_555 1_555
C12 C20 1_555 1_555
C15 C19 1_555 1_555
C17 C18 1_555 1_555
C19 C20 1_555 1_555

#END
