
#######################################################################
#
#                 Cambridge Crystallographic Data Centre
#                                CCDC 
#
#######################################################################
#
# If this CIF has been generated from an entry in the Cambridge 
# Structural Database, then it will include bibliographic, chemical, 
# crystal, experimental, refinement or atomic coordinate data resulting 
# from the CCDC's data processing and validation procedures.
#
#######################################################################

data_GOCXUR
_symmetry_cell_setting           monoclinic
_symmetry_space_group_name_H-M   'C 2/c'
_symmetry_Int_Tables_number      15
_space_group_name_Hall           '-C 2yn'
loop_
_symmetry_equiv_pos_site_id
_symmetry_equiv_pos_as_xyz
1 x,y,z
2 -x,y,1/2-z
3 1/2+x,1/2+y,z
4 1/2-x,1/2+y,1/2-z
5 -x,-y,-z
6 x,-y,1/2+z
7 1/2-x,1/2-y,-z
8 1/2+x,1/2-y,1/2+z
_cell_length_a                   14.7396(15)
_cell_length_b                   16.9874(15)
_cell_length_c                   14.4591(14)
_cell_angle_alpha                90
_cell_angle_beta                 118.754(9)
_cell_angle_gamma                90
_cell_volume                     3173.96
loop_
_atom_site_label
_atom_site_type_symbol
_atom_site_fract_x
_atom_site_fract_y
_atom_site_fract_z
Er1 Er -0.27336(2) 0.28926(2) -0.26681(3)
O1 O -0.2864(4) -0.0751(3) -0.2577(4)
O2 O -0.3988(4) -0.1665(3) -0.3474(4)
O3 O -0.8252(4) 0.0159(3) -0.5914(5)
O4 O -0.7707(4) -0.1063(3) -0.5534(5)
O5 O -0.5692(4) 0.2364(3) -0.4044(5)
O6 O -0.4028(4) 0.2018(3) -0.3086(5)
C1 C -0.3797(5) -0.0947(4) -0.3209(6)
C2 C -0.7555(6) -0.0334(4) -0.5434(6)
C3 C -0.4969(6) 0.1864(4) -0.3644(6)
C4 C -0.4646(5) -0.0358(4) -0.3626(6)
C5 C -0.5662(5) -0.0598(4) -0.4270(6)
C6 C -0.6468(5) -0.0056(4) -0.4695(6)
C7 C -0.6243(5) 0.0743(4) -0.4484(6)
C8 C -0.5233(5) 0.0992(4) -0.3853(6)
C9 C -0.4438(5) 0.0443(4) -0.3419(6)
O7 O -0.2137(4) 0.2944(3) -0.3897(4)
O8 O -0.1877(4) 0.1720(3) -0.2630(5)
O9 O -0.4050(4) 0.3451(3) -0.4213(5)
O10 O -0.2235(5) 0.2268(4) -0.1003(5)
O11 O -0.3692(5) 0.3512(3) -0.1984(6)
H1 H -0.5827 -0.1195 -0.4442
H2 H -0.6841 0.1159 -0.4804
H3 H -0.3675 0.0636 -0.2932
O1C O -0.2136(4) 0.4249(3) -0.2423(4)
Er1C Er -0.22664(2) -0.21074(2) -0.23319(3)
O2C O -0.1012(4) 0.3335(3) -0.1526(4)
O12 O 0.0459(4) 0.2156(3) -0.1163(5)
O13 O -1.1744(5) 0.0513(3) -1.1325(6)
O14 O 0.0000 0.0772(5) -0.2500
O15 O -0.483(1) 0.5263(8) -0.557(1)
loop_
_geom_bond_atom_site_label_1
_geom_bond_atom_site_label_2
_geom_bond_site_symmetry_1
_geom_bond_site_symmetry_2
Er1 O6 1_555 1_555
O1 C1 1_555 1_555
O2 C1 1_555 1_555
O3 C2 1_555 1_555
O4 C2 1_555 1_555
O5 C3 1_555 1_555
O6 C3 1_555 1_555
C1 C4 1_555 1_555
C2 C6 1_555 1_555
C3 C8 1_555 1_555
C4 C5 1_555 1_555
C5 C6 1_555 1_555
C6 C7 1_555 1_555
C7 C8 1_555 1_555
C8 C9 1_555 1_555
C9 C4 1_555 1_555
O7 Er1 1_555 1_555
O8 Er1 1_555 1_555
O9 Er1 1_555 1_555
O10 Er1 1_555 1_555
O11 Er1 1_555 1_555
H1 C5 1_555 1_555
H2 C7 1_555 1_555
H3 C9 1_555 1_555
O1C Er1 1_555 1_555
Er1C O1 1_555 1_555
O2C Er1 1_555 1_555
O2 Er1C 1_555 1_555

#END
