
#######################################################################
#
#                 Cambridge Crystallographic Data Centre
#                                CCDC 
#
#######################################################################
#
# If this CIF has been generated from an entry in the Cambridge 
# Structural Database, then it will include bibliographic, chemical, 
# crystal, experimental, refinement or atomic coordinate data resulting 
# from the CCDC's data processing and validation procedures.
#
#######################################################################

data_GOCXAY
_symmetry_cell_setting           orthorhombic
_symmetry_space_group_name_H-M   'P b c n'
_symmetry_Int_Tables_number      60
_space_group_name_Hall           '-P 2n 2ab'
loop_
_symmetry_equiv_pos_site_id
_symmetry_equiv_pos_as_xyz
1 x,y,z
2 1/2-x,1/2-y,1/2+z
3 -x,y,1/2-z
4 1/2+x,1/2-y,-z
5 -x,-y,-z
6 1/2+x,1/2+y,1/2-z
7 x,-y,1/2+z
8 1/2-x,1/2+y,z
_cell_length_a                   14.0658(14)
_cell_length_b                   9.5474(10)
_cell_length_c                   28.168(3)
_cell_angle_alpha                90
_cell_angle_beta                 90
_cell_angle_gamma                90
_cell_volume                     3782.73
loop_
_atom_site_label
_atom_site_type_symbol
_atom_site_fract_x
_atom_site_fract_y
_atom_site_fract_z
Cd1 Cd 0.817262(15) 0.13647(2) 0.337438(9)
N1 N 0.79908(16) 0.0077(3) 0.40679(10)
N2 N 0.65610(17) 0.1362(3) 0.35976(11)
O1 O 0.96327(14) 0.2296(2) 0.38160(9)
O2 O 0.96977(16) 0.1251(3) 0.31288(10)
O3 O 1.20409(18) 0.3514(2) 0.19388(9)
O4 O 1.28853(18) 0.5186(3) 0.22750(10)
O5 O 0.57163(16) -0.2513(3) 0.49508(10)
O6 O 0.43263(14) -0.0729(2) 0.46404(9)
Br1 Br 1.32354(2) 0.42821(5) 0.413503(15)
C1 C 1.0064(2) 0.2003(4) 0.34429(12)
C2 C 1.10248(19) 0.2634(3) 0.33463(12)
C3 C 1.16100(19) 0.3020(3) 0.37211(12)
H1 H 1.1446 0.2804 0.4033
C4 C 1.2442(2) 0.3732(3) 0.36205(13)
C5 C 1.2693(2) 0.4092(3) 0.31662(13)
H2 H 1.3242 0.4608 0.3110
C6 C 1.2115(2) 0.3676(3) 0.27877(13)
C7 C 1.1283(2) 0.2907(3) 0.28856(13)
H3 H 1.0907 0.2584 0.2637
C8 C 1.2359(2) 0.4121(4) 0.22968(13)
C9 C 0.8704(2) -0.0531(3) 0.43067(14)
H4 H 0.9323 -0.0290 0.4225
C10 C 0.8578(2) -0.1480(4) 0.46621(14)
H5 H 0.9097 -0.1868 0.4818
C11 C 0.7662(2) -0.1855(4) 0.47862(13)
H6 H 0.7553 -0.2520 0.5021
C12 C 0.6902(2) -0.1215(3) 0.45511(13)
C13 C 0.5907(2) -0.1567(4) 0.46847(12)
C14 C 0.5113(2) -0.0648(3) 0.44745(13)
C15 C 0.5369(2) 0.0312(3) 0.40853(13)
C16 C 0.4671(2) 0.1046(3) 0.38430(15)
H7 H 0.4037 0.0962 0.3931
C17 C 0.4924(2) 0.1889(4) 0.34743(15)
H8 H 0.4461 0.2367 0.3303
C18 C 0.5869(2) 0.2028(4) 0.33583(14)
H9 H 0.6035 0.2604 0.3105
C19 C 0.63164(19) 0.0501(3) 0.39468(12)
C20 C 0.7088(2) -0.0246(3) 0.42003(12)
O1B O 1.03673(14) 0.2296(2) 0.11840(9)
O2B O 1.03023(16) 0.1251(3) 0.18712(10)
O3B O 0.79591(18) 0.3514(2) 0.30612(9)
O4B O 0.71147(18) 0.5186(3) 0.27250(10)
Br1B Br 0.67646(2) 0.42821(5) 0.086497(15)
C1B C 0.9936(2) 0.2003(4) 0.15571(12)
C2B C 0.89752(19) 0.2634(3) 0.16537(12)
C3B C 0.83900(19) 0.3020(3) 0.12789(12)
H1B H 0.8554 0.2804 0.0967
C4B C 0.7558(2) 0.3732(3) 0.13795(13)
C5B C 0.7307(2) 0.4092(3) 0.18338(13)
H2B H 0.6758 0.4608 0.1890
C6B C 0.7885(2) 0.3676(3) 0.22123(13)
C7B C 0.8717(2) 0.2907(3) 0.21144(13)
H3B H 0.9093 0.2584 0.2363
C8B C 0.7641(2) 0.4121(4) 0.27032(13)
Cd1B Cd 1.182738(15) 0.13647(2) 0.162562(9)
N1B N 1.20092(16) 0.0077(3) 0.09321(10)
N2B N 1.34390(17) 0.1362(3) 0.14024(11)
O5B O 1.42837(16) -0.2513(3) 0.00492(10)
O6B O 1.56737(14) -0.0729(2) 0.03596(9)
C9B C 1.1296(2) -0.0531(3) 0.06933(14)
H4B H 1.0677 -0.0290 0.0775
C10B C 1.1422(2) -0.1480(4) 0.03379(14)
H5B H 1.0903 -0.1868 0.0182
C11B C 1.2338(2) -0.1855(4) 0.02138(13)
H6B H 1.2447 -0.2520 -0.0021
C12B C 1.3098(2) -0.1215(3) 0.04489(13)
C13B C 1.4093(2) -0.1567(4) 0.03153(12)
C14B C 1.4887(2) -0.0648(3) 0.05255(13)
C15B C 1.4631(2) 0.0312(3) 0.09147(13)
C16B C 1.5329(2) 0.1046(3) 0.11570(15)
H7B H 1.5963 0.0962 0.1069
C17B C 1.5076(2) 0.1889(4) 0.15257(15)
H8B H 1.5539 0.2367 0.1697
C18B C 1.4131(2) 0.2028(4) 0.16417(14)
H9B H 1.3965 0.2604 0.1895
C19B C 1.36836(19) 0.0501(3) 0.10532(12)
C20B C 1.2912(2) -0.0246(3) 0.07997(12)
O4E O 0.78853(18) 0.0186(3) 0.27250(10)
Cd1E Cd 1.317262(15) 0.63647(2) 0.162562(9)
Cd1G Cd 0.682738(15) 0.63647(2) 0.337438(9)
O4G O 1.21147(18) 0.0186(3) 0.22750(10)
O7 O 1.0000 0.8914(5) 0.2500
H10 H 0.979(3) 0.946(4) 0.2720(18)
H10B H 1.021(3) 0.946(4) 0.2280(18)
loop_
_geom_bond_atom_site_label_1
_geom_bond_atom_site_label_2
_geom_bond_site_symmetry_1
_geom_bond_site_symmetry_2
Cd1 N1 1_555 1_555
N1 C9 1_555 1_555
N2 Cd1 1_555 1_555
O1 Cd1 1_555 1_555
O2 Cd1 1_555 1_555
O3 C8 1_555 1_555
O4 C8 1_555 1_555
O5 C13 1_555 1_555
O6 C14 1_555 1_555
Br1 C4 1_555 1_555
C1 O1 1_555 1_555
C2 C1 1_555 1_555
C3 C2 1_555 1_555
H1 C3 1_555 1_555
C4 C3 1_555 1_555
C5 C4 1_555 1_555
H2 C5 1_555 1_555
C6 C5 1_555 1_555
C7 C2 1_555 1_555
H3 C7 1_555 1_555
C8 C6 1_555 1_555
C9 H4 1_555 1_555
C10 C9 1_555 1_555
H5 C10 1_555 1_555
C11 C10 1_555 1_555
H6 C11 1_555 1_555
C12 C11 1_555 1_555
C13 C12 1_555 1_555
C14 C13 1_555 1_555
C15 C14 1_555 1_555
C16 C15 1_555 1_555
H7 C16 1_555 1_555
C17 C16 1_555 1_555
H8 C17 1_555 1_555
C18 N2 1_555 1_555
H9 C18 1_555 1_555
C19 N2 1_555 1_555
C20 N1 1_555 1_555
O7 H10 1_555 1_555
O1B C1B 1_555 1_555
O2B C1B 1_555 1_555
O3B Cd1 1_555 1_555
O4B C8B 1_555 1_555
Br1B C4B 1_555 1_555
C1B C2B 1_555 1_555
C2B C3B 1_555 1_555
C3B H1B 1_555 1_555
C4B C3B 1_555 1_555
C5B C4B 1_555 1_555
H2B C5B 1_555 1_555
C6B C5B 1_555 1_555
C7B C2B 1_555 1_555
H3B C7B 1_555 1_555
C8B O3B 1_555 1_555
Cd1B O3 1_555 1_555
N1B Cd1B 1_555 1_555
N2B Cd1B 1_555 1_555
O5B C13B 1_555 1_555
O6B C14B 1_555 1_555
C9B N1B 1_555 1_555
H4B C9B 1_555 1_555
C10B C9B 1_555 1_555
H5B C10B 1_555 1_555
C11B C10B 1_555 1_555
H6B C11B 1_555 1_555
C12B C11B 1_555 1_555
C13B C12B 1_555 1_555
C14B C13B 1_555 1_555
C15B C14B 1_555 1_555
C16B C15B 1_555 1_555
H7B C16B 1_555 1_555
C17B C16B 1_555 1_555
H8B C17B 1_555 1_555
C18B N2B 1_555 1_555
H9B C18B 1_555 1_555
C19B N2B 1_555 1_555
C20B N1B 1_555 1_555
O4E Cd1 1_555 1_555
Cd1E O4 1_555 1_555
Cd1G O4B 1_555 1_555
O4G Cd1B 1_555 1_555
H10B O7 1_555 1_555
O2 C1 1_555 1_555
C6 C7 1_555 1_555
C12 C20 1_555 1_555
C15 C19 1_555 1_555
C17 C18 1_555 1_555
C19 C20 1_555 1_555
O1B Cd1B 1_555 1_555
O2B Cd1B 1_555 1_555
C6B C7B 1_555 1_555
C6B C8B 1_555 1_555
C12B C20B 1_555 1_555
C15B C19B 1_555 1_555
C17B C18B 1_555 1_555
C19B C20B 1_555 1_555

#END
