
#######################################################################
#
#                 Cambridge Crystallographic Data Centre
#                                CCDC 
#
#######################################################################
#
# If this CIF has been generated from an entry in the Cambridge 
# Structural Database, then it will include bibliographic, chemical, 
# crystal, experimental, refinement or atomic coordinate data resulting 
# from the CCDC's data processing and validation procedures.
#
#######################################################################

data_GODDIO
_symmetry_cell_setting           monoclinic
_symmetry_space_group_name_H-M   'C 2/c'
_symmetry_Int_Tables_number      15
_space_group_name_Hall           '-C 2yn'
loop_
_symmetry_equiv_pos_site_id
_symmetry_equiv_pos_as_xyz
1 x,y,z
2 -x,y,1/2-z
3 1/2+x,1/2+y,z
4 1/2-x,1/2+y,1/2-z
5 -x,-y,-z
6 x,-y,1/2+z
7 1/2-x,1/2-y,-z
8 1/2+x,1/2-y,1/2+z
_cell_length_a                   45.6018(7)
_cell_length_b                   6.60480(10)
_cell_length_c                   7.41600(10)
_cell_angle_alpha                90
_cell_angle_beta                 90.1100(10)
_cell_angle_gamma                90
_cell_volume                     2233.63
loop_
_atom_site_label
_atom_site_type_symbol
_atom_site_fract_x
_atom_site_fract_y
_atom_site_fract_z
Cd1 Cd 0.2500 0.2500 1.0000
O1 O 0.22568(4) 0.3465(3) 0.7435(2)
O2 O 0.27524(4) 0.5469(3) 1.0144(2)
C1 C 0.16700(6) 0.2377(4) 0.8156(4)
H1 H 0.1806 0.1335 0.8027
O3 O 0.21230(4) 0.6624(3) 0.6859(3)
C2 C 0.20657(5) 0.4872(4) 0.7366(3)
C3 C 0.08665(5) 0.2976(4) 0.9326(3)
C4 C 0.11758(5) 0.3456(4) 0.8830(3)
C5 C 0.17568(5) 0.4379(4) 0.7903(3)
C6 C 0.15518(5) 0.5908(4) 0.8131(4)
H2 H 0.1607 0.7251 0.7966
C7 C 0.02880(6) 0.2077(5) 1.0267(4)
H3 H 0.0096 0.1789 1.0590
C8 C 0.13832(6) 0.1937(4) 0.8600(4)
H4 H 0.1327 0.0593 0.8747
C9 C 0.07996(6) 0.1301(4) 1.0398(4)
H5 H 0.0950 0.0469 1.0811
C10 C 0.12666(5) 0.5452(4) 0.8600(4)
H6 H 0.1133 0.6497 0.8765
C11 C 0.06360(6) 0.4176(5) 0.8723(4)
H7 H 0.0674 0.5293 0.7997
C12 C 0.03499(6) 0.3724(5) 0.9195(4)
H8 H 0.0198 0.4542 0.8783
C13 C 0.05130(7) 0.0866(5) 1.0852(4)
H9 H 0.0472 -0.0260 1.1562
H10 H 0.2770 0.6336 0.9310
H11 H 0.2713 0.6138 1.1093
O1F O 0.27432(4) 0.1535(3) 1.2565(2)
O2F O 0.22476(4) -0.0469(3) 0.9856(2)
C1F C 0.33300(6) 0.2623(4) 1.1844(4)
H1F H 0.3194 0.3665 1.1973
O3F O 0.28770(4) -0.1624(3) 1.3141(3)
C2F C 0.29343(5) 0.0128(4) 1.2634(3)
C3F C 0.41335(5) 0.2024(4) 1.0674(3)
C4F C 0.38242(5) 0.1544(4) 1.1170(3)
C5F C 0.32432(5) 0.0621(4) 1.2097(3)
C6F C 0.34482(5) -0.0908(4) 1.1869(4)
H2F H 0.3393 -0.2251 1.2034
C7F C 0.47120(6) 0.2923(5) 0.9733(4)
H3F H 0.4904 0.3211 0.9410
C8F C 0.36168(6) 0.3063(4) 1.1400(4)
H4F H 0.3673 0.4407 1.1253
C9F C 0.42004(6) 0.3699(4) 0.9602(4)
H5F H 0.4050 0.4531 0.9189
C10F C 0.37334(5) -0.0452(4) 1.1400(4)
H6F H 0.3867 -0.1497 1.1235
C11F C 0.43640(6) 0.0824(5) 1.1277(4)
H7F H 0.4326 -0.0293 1.2003
C12F C 0.46501(6) 0.1276(5) 1.0805(4)
H8F H 0.4802 0.0458 1.1217
C13F C 0.44870(7) 0.4134(5) 0.9148(4)
H9F H 0.4528 0.5260 0.8438
H10F H 0.2230 -0.1336 1.0690
H11F H 0.2287 -0.1138 0.8907
Cd1C Cd 0.2500 -0.2500 1.5000
Cd1C_2 Cd 0.2500 0.7500 0.5000
O3C O 0.28770(4) 0.1624(3) 0.8141(3)
O3E O 0.21230(4) 0.3376(3) 1.1859(3)
loop_
_geom_bond_atom_site_label_1
_geom_bond_atom_site_label_2
_geom_bond_site_symmetry_1
_geom_bond_site_symmetry_2
Cd1 O1 1_555 1_555
O1 C2 1_555 1_555
O2 Cd1 1_555 1_555
C1 H1 1_555 1_555
O3 C2 1_555 1_555
C2 C5 1_555 1_555
C3 C4 1_555 1_555
C4 C8 1_555 1_555
C5 C1 1_555 1_555
C6 C5 1_555 1_555
H2 C6 1_555 1_555
C7 H3 1_555 1_555
C8 C1 1_555 1_555
H4 C8 1_555 1_555
C9 C3 1_555 1_555
H5 C9 1_555 1_555
C10 C4 1_555 1_555
H6 C10 1_555 1_555
C11 C3 1_555 1_555
H7 C11 1_555 1_555
C12 C7 1_555 1_555
H8 C12 1_555 1_555
C13 C7 1_555 1_555
H9 C13 1_555 1_555
H10 O2 1_555 1_555
H11 O2 1_555 1_555
O1F Cd1 1_555 1_555
O2F Cd1 1_555 1_555
C1F H1F 1_555 1_555
O3F C2F 1_555 1_555
C2F O1F 1_555 1_555
C3F C4F 1_555 1_555
C4F C8F 1_555 1_555
C5F C1F 1_555 1_555
C6F C5F 1_555 1_555
H2F C6F 1_555 1_555
C7F H3F 1_555 1_555
C8F C1F 1_555 1_555
H4F C8F 1_555 1_555
C9F C3F 1_555 1_555
H5F C9F 1_555 1_555
C10F C4F 1_555 1_555
H6F C10F 1_555 1_555
C11F C3F 1_555 1_555
H7F C11F 1_555 1_555
C12F C7F 1_555 1_555
H8F C12F 1_555 1_555
C13F C7F 1_555 1_555
H9F C13F 1_555 1_555
H10F O2F 1_555 1_555
H11F O2F 1_555 1_555
Cd1C O3F 1_555 1_555
Cd1C_2 O3 1_555 1_555
O3C Cd1 1_555 1_555
O3E Cd1 1_555 1_555
C6 C10 1_555 1_555
C9 C13 1_555 1_555
C11 C12 1_555 1_555
C2F C5F 1_555 1_555
C6F C10F 1_555 1_555
C9F C13F 1_555 1_555
C11F C12F 1_555 1_555

#END
