
#######################################################################
#
#                 Cambridge Crystallographic Data Centre
#                                CCDC 
#
#######################################################################
#
# If this CIF has been generated from an entry in the Cambridge 
# Structural Database, then it will include bibliographic, chemical, 
# crystal, experimental, refinement or atomic coordinate data resulting 
# from the CCDC's data processing and validation procedures.
#
#######################################################################

data_GODDUA
_symmetry_cell_setting           monoclinic
_symmetry_space_group_name_H-M   'C 2/c'
_symmetry_Int_Tables_number      15
_space_group_name_Hall           '-C 2yn'
loop_
_symmetry_equiv_pos_site_id
_symmetry_equiv_pos_as_xyz
1 x,y,z
2 -x,y,1/2-z
3 1/2+x,1/2+y,z
4 1/2-x,1/2+y,1/2-z
5 -x,-y,-z
6 x,-y,1/2+z
7 1/2-x,1/2-y,-z
8 1/2+x,1/2-y,1/2+z
_cell_length_a                   45.2535(19)
_cell_length_b                   6.5550(3)
_cell_length_c                   7.2550(3)
_cell_angle_alpha                90
_cell_angle_beta                 90.468(3)
_cell_angle_gamma                90
_cell_volume                     2152.03
loop_
_atom_site_label
_atom_site_type_symbol
_atom_site_fract_x
_atom_site_fract_y
_atom_site_fract_z
Co1 Co 0.2500 0.2500 0.0000
O1 O 0.22868(3) 0.3332(2) 0.2471(2)
O2 O 0.27169(4) 0.5284(3) -0.0131(3)
H1 H 0.2641 0.5988 -0.0941
O3 O 0.21506(4) 0.6466(2) 0.3307(2)
C1 C 0.20918(5) 0.4739(3) 0.2665(3)
C2 C 0.17807(5) 0.4274(4) 0.2133(3)
C3 C 0.15754(5) 0.5830(4) 0.1943(3)
H2 H 0.1634 0.7176 0.2127
C4 C 0.11884(5) 0.3395(4) 0.1229(3)
C5 C 0.08775(6) 0.2926(4) 0.0739(4)
C6 C 0.13980(6) 0.1840(4) 0.1431(4)
H3 H 0.1340 0.0489 0.1279
C7 C 0.06472(6) 0.4185(4) 0.1333(4)
H4 H 0.0690 0.5315 0.2063
C8 C 0.12843(5) 0.5400(4) 0.1481(4)
H5 H 0.1150 0.6466 0.1337
C9 C 0.16882(6) 0.2269(4) 0.1850(4)
H6 H 0.1824 0.1210 0.1945
C10 C 0.05107(6) 0.0845(5) -0.0811(4)
H7 H 0.0465 -0.0287 -0.1530
C11 C 0.03574(6) 0.3774(5) 0.0850(4)
H8 H 0.0208 0.4633 0.1255
C12 C 0.08027(6) 0.1236(4) -0.0347(4)
H9 H 0.0950 0.0368 -0.0761
C13 C 0.02878(7) 0.2112(5) -0.0222(4)
H10 H 0.0092 0.1845 -0.0547
H11 H 0.2739(7) 0.612(5) 0.082(5)
O1F O 0.27132(3) 0.1668(2) -0.2471(2)
O2F O 0.22831(4) -0.0284(3) 0.0131(3)
H1F H 0.2359 -0.0988 0.0941
O3F O 0.28494(4) -0.1466(2) -0.3307(2)
C1F C 0.29082(5) 0.0261(3) -0.2665(3)
C2F C 0.32193(5) 0.0726(4) -0.2133(3)
C3F C 0.34246(5) -0.0830(4) -0.1943(3)
H2F H 0.3366 -0.2176 -0.2127
C4F C 0.38116(5) 0.1605(4) -0.1229(3)
C5F C 0.41225(6) 0.2074(4) -0.0739(4)
C6F C 0.36020(6) 0.3160(4) -0.1431(4)
H3F H 0.3660 0.4511 -0.1279
C7F C 0.43528(6) 0.0815(4) -0.1333(4)
H4F H 0.4310 -0.0315 -0.2063
C8F C 0.37157(5) -0.0400(4) -0.1481(4)
H5F H 0.3850 -0.1466 -0.1337
C9F C 0.33118(6) 0.2731(4) -0.1850(4)
H6F H 0.3176 0.3790 -0.1945
C10F C 0.44893(6) 0.4155(5) 0.0811(4)
H7F H 0.4535 0.5287 0.1530
C11F C 0.46426(6) 0.1226(5) -0.0850(4)
H8F H 0.4792 0.0367 -0.1255
C12F C 0.41973(6) 0.3764(4) 0.0347(4)
H9F H 0.4050 0.4632 0.0761
C13F C 0.47122(7) 0.2888(5) 0.0222(4)
H10F H 0.4908 0.3155 0.0547
H11F H 0.2261(7) -0.112(5) -0.082(5)
Co1C Co 0.2500 -0.2500 -0.5000
Co1C_2 Co 0.2500 0.7500 0.5000
O3C O 0.28494(4) 0.1466(2) 0.1693(2)
O3E O 0.21506(4) 0.3534(2) -0.1693(2)
loop_
_geom_bond_atom_site_label_1
_geom_bond_atom_site_label_2
_geom_bond_site_symmetry_1
_geom_bond_site_symmetry_2
Co1 O1 1_555 1_555
O1 C1 1_555 1_555
O2 Co1 1_555 1_555
H1 O2 1_555 1_555
O3 C1 1_555 1_555
C1 C2 1_555 1_555
C2 C3 1_555 1_555
C3 H2 1_555 1_555
C4 C5 1_555 1_555
C5 C7 1_555 1_555
C6 C4 1_555 1_555
H3 C6 1_555 1_555
C7 H4 1_555 1_555
C8 C3 1_555 1_555
H5 C8 1_555 1_555
C9 C2 1_555 1_555
H6 C9 1_555 1_555
C10 H7 1_555 1_555
C11 C7 1_555 1_555
H8 C11 1_555 1_555
C12 C5 1_555 1_555
H9 C12 1_555 1_555
C13 C10 1_555 1_555
H10 C13 1_555 1_555
H11 O2 1_555 1_555
O1F Co1 1_555 1_555
O2F Co1 1_555 1_555
H1F O2F 1_555 1_555
O3F C1F 1_555 1_555
C1F O1F 1_555 1_555
C2F C1F 1_555 1_555
C3F C2F 1_555 1_555
H2F C3F 1_555 1_555
C4F C5F 1_555 1_555
C5F C7F 1_555 1_555
C6F C4F 1_555 1_555
H3F C6F 1_555 1_555
C7F H4F 1_555 1_555
C8F C3F 1_555 1_555
H5F C8F 1_555 1_555
C9F C2F 1_555 1_555
H6F C9F 1_555 1_555
C10F H7F 1_555 1_555
C11F C7F 1_555 1_555
H8F C11F 1_555 1_555
C12F C5F 1_555 1_555
H9F C12F 1_555 1_555
C13F C10F 1_555 1_555
H10F C13F 1_555 1_555
H11F O2F 1_555 1_555
Co1C O3F 1_555 1_555
Co1C_2 O3 1_555 1_555
O3C Co1 1_555 1_555
O3E Co1 1_555 1_555
C4 C8 1_555 1_555
C6 C9 1_555 1_555
C10 C12 1_555 1_555
C11 C13 1_555 1_555
C4F C8F 1_555 1_555
C6F C9F 1_555 1_555
C10F C12F 1_555 1_555
C11F C13F 1_555 1_555

#END
