
#######################################################################
#
#                 Cambridge Crystallographic Data Centre
#                                CCDC 
#
#######################################################################
#
# If this CIF has been generated from an entry in the Cambridge 
# Structural Database, then it will include bibliographic, chemical, 
# crystal, experimental, refinement or atomic coordinate data resulting 
# from the CCDC's data processing and validation procedures.
#
#######################################################################

data_GODDOU
_symmetry_cell_setting           monoclinic
_symmetry_space_group_name_H-M   'C 2/c'
_symmetry_Int_Tables_number      15
_space_group_name_Hall           '-C 2yn'
loop_
_symmetry_equiv_pos_site_id
_symmetry_equiv_pos_as_xyz
1 x,y,z
2 -x,y,1/2-z
3 1/2+x,1/2+y,z
4 1/2-x,1/2+y,1/2-z
5 -x,-y,-z
6 x,-y,1/2+z
7 1/2-x,1/2-y,-z
8 1/2+x,1/2-y,1/2+z
_cell_length_a                   45.244(9)
_cell_length_b                   6.5603(13)
_cell_length_c                   7.2699(15)
_cell_angle_alpha                90
_cell_angle_beta                 90.67(3)
_cell_angle_gamma                90
_cell_volume                     2157.66
loop_
_atom_site_label
_atom_site_type_symbol
_atom_site_fract_x
_atom_site_fract_y
_atom_site_fract_z
O1 O 0.21494(3) -0.1470(3) 0.3351(2)
Zn1 Zn 0.2500 0.2500 0.0000
O2 O 0.22882(3) 0.1653(3) 0.2511(2)
O3 O 0.27205(4) -0.0266(3) -0.0147(3)
C1 C 0.20927(5) 0.0253(4) 0.2706(3)
C2 C 0.17801(5) 0.0723(4) 0.2167(3)
C3 C 0.15742(5) -0.0831(4) 0.1977(4)
H1 H 0.1632 -0.2176 0.2170
C4 C 0.11892(5) 0.1607(4) 0.1247(4)
C5 C 0.08762(5) 0.2076(4) 0.0754(4)
C6 C 0.06466(6) 0.0817(5) 0.1348(4)
H2 H 0.0689 -0.0312 0.2078
C7 C 0.13980(6) 0.3156(4) 0.1452(4)
H3 H 0.1340 0.4505 0.1294
C8 C 0.08025(6) 0.3759(4) -0.0336(4)
H4 H 0.0951 0.4622 -0.0744
C9 C 0.12848(5) -0.0395(4) 0.1504(4)
H5 H 0.1151 -0.1458 0.1353
C10 C 0.16894(5) 0.2731(4) 0.1883(4)
H6 H 0.1826 0.3787 0.1985
C11 C 0.05111(6) 0.4161(5) -0.0816(4)
H7 H 0.0466 0.5290 -0.1540
C12 C 0.02877(6) 0.2898(5) -0.0226(4)
H8 H 0.0092 0.3163 -0.0556
C13 C 0.03569(6) 0.1240(5) 0.0858(4)
H9 H 0.0207 0.0392 0.1265
H10 H 0.2738(6) -0.103(5) 0.076(5)
H11 H 0.2634(7) -0.093(6) -0.087(5)
O1F O 0.28506(3) 0.6470(3) -0.3351(2)
O2F O 0.27118(3) 0.3347(3) -0.2511(2)
O3F O 0.22795(4) 0.5266(3) 0.0147(3)
C1F C 0.29073(5) 0.4747(4) -0.2706(3)
C2F C 0.32199(5) 0.4277(4) -0.2167(3)
C3F C 0.34258(5) 0.5831(4) -0.1977(4)
H1F H 0.3368 0.7176 -0.2170
C4F C 0.38108(5) 0.3393(4) -0.1247(4)
C5F C 0.41238(5) 0.2924(4) -0.0754(4)
C6F C 0.43534(6) 0.4183(5) -0.1348(4)
H2F H 0.4311 0.5312 -0.2078
C7F C 0.36020(6) 0.1844(4) -0.1452(4)
H3F H 0.3660 0.0495 -0.1294
C8F C 0.41975(6) 0.1241(4) 0.0336(4)
H4F H 0.4049 0.0378 0.0744
C9F C 0.37152(5) 0.5395(4) -0.1504(4)
H5F H 0.3849 0.6458 -0.1353
C10F C 0.33106(5) 0.2269(4) -0.1883(4)
H6F H 0.3174 0.1213 -0.1985
C11F C 0.44889(6) 0.0839(5) 0.0816(4)
H7F H 0.4534 -0.0290 0.1540
C12F C 0.47123(6) 0.2102(5) 0.0226(4)
H8F H 0.4908 0.1837 0.0556
C13F C 0.46431(6) 0.3760(5) -0.0858(4)
H9F H 0.4793 0.4608 -0.1265
H10F H 0.2262(6) 0.603(5) -0.076(5)
H11F H 0.2366(7) 0.593(6) 0.087(5)
O1C O 0.28506(3) 0.3530(3) 0.1649(2)
O1E O 0.21494(3) 0.1470(3) -0.1649(2)
Zn1C Zn 0.2500 -0.2500 0.5000
Zn1C_2 Zn 0.2500 0.7500 -0.5000
loop_
_geom_bond_atom_site_label_1
_geom_bond_atom_site_label_2
_geom_bond_site_symmetry_1
_geom_bond_site_symmetry_2
O1 C1 1_555 1_555
Zn1 O2 1_555 1_555
O2 C1 1_555 1_555
O3 Zn1 1_555 1_555
C1 C2 1_555 1_555
C2 C3 1_555 1_555
C3 H1 1_555 1_555
C4 C5 1_555 1_555
C5 C6 1_555 1_555
C6 H2 1_555 1_555
C7 C4 1_555 1_555
H3 C7 1_555 1_555
C8 C5 1_555 1_555
H4 C8 1_555 1_555
C9 C3 1_555 1_555
H5 C9 1_555 1_555
C10 C2 1_555 1_555
H6 C10 1_555 1_555
C11 C8 1_555 1_555
H7 C11 1_555 1_555
C12 C11 1_555 1_555
H8 C12 1_555 1_555
C13 C6 1_555 1_555
H9 C13 1_555 1_555
H10 O3 1_555 1_555
H11 O3 1_555 1_555
O1F C1F 1_555 1_555
O2F Zn1 1_555 1_555
O3F Zn1 1_555 1_555
C1F O2F 1_555 1_555
C2F C1F 1_555 1_555
C3F C2F 1_555 1_555
H1F C3F 1_555 1_555
C4F C5F 1_555 1_555
C5F C6F 1_555 1_555
C6F H2F 1_555 1_555
C7F C4F 1_555 1_555
H3F C7F 1_555 1_555
C8F C5F 1_555 1_555
H4F C8F 1_555 1_555
C9F C3F 1_555 1_555
H5F C9F 1_555 1_555
C10F C2F 1_555 1_555
H6F C10F 1_555 1_555
C11F C8F 1_555 1_555
H7F C11F 1_555 1_555
C12F C11F 1_555 1_555
H8F C12F 1_555 1_555
C13F C6F 1_555 1_555
H9F C13F 1_555 1_555
H10F O3F 1_555 1_555
H11F O3F 1_555 1_555
O1C Zn1 1_555 1_555
O1E Zn1 1_555 1_555
Zn1C O1 1_555 1_555
Zn1C_2 O1F 1_555 1_555
C4 C9 1_555 1_555
C7 C10 1_555 1_555
C12 C13 1_555 1_555
C4F C9F 1_555 1_555
C7F C10F 1_555 1_555
C12F C13F 1_555 1_555

#END
