
#######################################################################
#
#                 Cambridge Crystallographic Data Centre
#                                CCDC 
#
#######################################################################
#
# If this CIF has been generated from an entry in the Cambridge 
# Structural Database, then it will include bibliographic, chemical, 
# crystal, experimental, refinement or atomic coordinate data resulting 
# from the CCDC's data processing and validation procedures.
#
#######################################################################

data_GODFAI
_symmetry_cell_setting           monoclinic
_symmetry_space_group_name_H-M   'C 2/c'
_symmetry_Int_Tables_number      15
_space_group_name_Hall           '-C 2yn'
loop_
_symmetry_equiv_pos_site_id
_symmetry_equiv_pos_as_xyz
1 x,y,z
2 -x,y,1/2-z
3 1/2+x,1/2+y,z
4 1/2-x,1/2+y,1/2-z
5 -x,-y,-z
6 x,-y,1/2+z
7 1/2-x,1/2-y,-z
8 1/2+x,1/2-y,1/2+z
_cell_length_a                   45.666(9)
_cell_length_b                   6.5961(13)
_cell_length_c                   7.3609(15)
_cell_angle_alpha                90
_cell_angle_beta                 90.98(3)
_cell_angle_gamma                90
_cell_volume                     2216.91
loop_
_atom_site_label
_atom_site_type_symbol
_atom_site_fract_x
_atom_site_fract_y
_atom_site_fract_z
O1 O 0.21427(3) 0.6525(2) 0.3188(2)
Mn1 Mn 0.2500 0.2500 0.0000
O2 O 0.22696(3) 0.3375(2) 0.24331(19)
O3 O 0.27304(4) 0.5405(3) -0.0107(2)
H1 H 0.2725 0.5955 0.0890
C1 C 0.20789(4) 0.4787(3) 0.2608(3)
C2 C 0.17673(4) 0.4315(3) 0.2113(3)
C3 C 0.15609(5) 0.5857(3) 0.1941(3)
H2 H 0.1617 0.7197 0.2136
C4 C 0.08682(5) 0.2952(3) 0.0735(3)
C5 C 0.11789(5) 0.3419(3) 0.1221(3)
C6 C 0.06400(5) 0.4169(4) 0.1337(3)
H3 H 0.0681 0.5282 0.2073
C7 C 0.13879(5) 0.1887(4) 0.1415(3)
H4 H 0.1331 0.0543 0.1263
C8 C 0.12729(5) 0.5414(4) 0.1481(3)
H5 H 0.1139 0.6467 0.1342
C9 C 0.05065(6) 0.0866(4) -0.0836(4)
H6 H 0.0462 -0.0251 -0.1561
C10 C 0.16780(5) 0.2319(4) 0.1829(3)
H7 H 0.1814 0.1273 0.1918
C11 C 0.02852(6) 0.2105(4) -0.0237(4)
H8 H 0.0091 0.1837 -0.0565
C12 C 0.03527(5) 0.3742(4) 0.0851(4)
H9 H 0.0203 0.4571 0.1265
C13 C 0.07958(5) 0.1281(4) -0.0360(3)
H10 H 0.0944 0.0439 -0.0774
H11 H 0.2684(8) 0.614(6) -0.092(5)
O1F O 0.28573(3) -0.1525(2) -0.3188(2)
O2F O 0.27304(3) 0.1625(2) -0.24331(19)
O3F O 0.22696(4) -0.0405(3) 0.0107(2)
H1F H 0.2275 -0.0955 -0.0890
C1F C 0.29211(4) 0.0213(3) -0.2608(3)
C2F C 0.32327(4) 0.0685(3) -0.2113(3)
C3F C 0.34391(5) -0.0857(3) -0.1941(3)
H2F H 0.3383 -0.2197 -0.2136
C4F C 0.41318(5) 0.2048(3) -0.0735(3)
C5F C 0.38211(5) 0.1581(3) -0.1221(3)
C6F C 0.43600(5) 0.0831(4) -0.1337(3)
H3F H 0.4319 -0.0282 -0.2073
C7F C 0.36121(5) 0.3113(4) -0.1415(3)
H4F H 0.3669 0.4457 -0.1263
C8F C 0.37271(5) -0.0414(4) -0.1481(3)
H5F H 0.3861 -0.1467 -0.1342
C9F C 0.44935(6) 0.4134(4) 0.0836(4)
H6F H 0.4538 0.5251 0.1561
C10F C 0.33220(5) 0.2681(4) -0.1829(3)
H7F H 0.3186 0.3727 -0.1918
C11F C 0.47148(6) 0.2895(4) 0.0237(4)
H8F H 0.4909 0.3163 0.0565
C12F C 0.46473(5) 0.1258(4) -0.0851(4)
H9F H 0.4797 0.0429 -0.1265
C13F C 0.42042(5) 0.3719(4) 0.0360(3)
H10F H 0.4056 0.4561 0.0774
H11F H 0.2316(8) -0.114(6) 0.092(5)
O1C O 0.28573(3) 0.1525(2) 0.1812(2)
O1E O 0.21427(3) 0.3475(2) -0.1812(2)
Mn1C Mn 0.2500 -0.2500 -0.5000
Mn1C_2 Mn 0.2500 0.7500 0.5000
loop_
_geom_bond_atom_site_label_1
_geom_bond_atom_site_label_2
_geom_bond_site_symmetry_1
_geom_bond_site_symmetry_2
O1 C1 1_555 1_555
Mn1 O2 1_555 1_555
O2 C1 1_555 1_555
O3 Mn1 1_555 1_555
H1 O3 1_555 1_555
C1 C2 1_555 1_555
C2 C3 1_555 1_555
C3 H2 1_555 1_555
C4 C5 1_555 1_555
C5 C7 1_555 1_555
C6 C4 1_555 1_555
H3 C6 1_555 1_555
C7 H4 1_555 1_555
C8 C3 1_555 1_555
H5 C8 1_555 1_555
C9 H6 1_555 1_555
C10 C2 1_555 1_555
H7 C10 1_555 1_555
C11 C9 1_555 1_555
H8 C11 1_555 1_555
C12 C6 1_555 1_555
H9 C12 1_555 1_555
C13 C4 1_555 1_555
H10 C13 1_555 1_555
H11 O3 1_555 1_555
O1F C1F 1_555 1_555
O2F Mn1 1_555 1_555
O3F Mn1 1_555 1_555
H1F O3F 1_555 1_555
C1F O2F 1_555 1_555
C2F C1F 1_555 1_555
C3F C2F 1_555 1_555
H2F C3F 1_555 1_555
C4F C5F 1_555 1_555
C5F C7F 1_555 1_555
C6F C4F 1_555 1_555
H3F C6F 1_555 1_555
C7F H4F 1_555 1_555
C8F C3F 1_555 1_555
H5F C8F 1_555 1_555
C9F H6F 1_555 1_555
C10F C2F 1_555 1_555
H7F C10F 1_555 1_555
C11F C9F 1_555 1_555
H8F C11F 1_555 1_555
C12F C6F 1_555 1_555
H9F C12F 1_555 1_555
C13F C4F 1_555 1_555
H10F C13F 1_555 1_555
H11F O3F 1_555 1_555
O1C Mn1 1_555 1_555
O1E Mn1 1_555 1_555
Mn1C O1F 1_555 1_555
Mn1C_2 O1 1_555 1_555
C5 C8 1_555 1_555
C7 C10 1_555 1_555
C9 C13 1_555 1_555
C11 C12 1_555 1_555
C5F C8F 1_555 1_555
C7F C10F 1_555 1_555
C9F C13F 1_555 1_555
C11F C12F 1_555 1_555

#END
