
#######################################################################
#
#                 Cambridge Crystallographic Data Centre
#                                CCDC 
#
#######################################################################
#
# If this CIF has been generated from an entry in the Cambridge 
# Structural Database, then it will include bibliographic, chemical, 
# crystal, experimental, refinement or atomic coordinate data resulting 
# from the CCDC's data processing and validation procedures.
#
#######################################################################

data_GODKIU
_symmetry_cell_setting           monoclinic
_symmetry_space_group_name_H-M   'P 21/c'
_symmetry_Int_Tables_number      14
_space_group_name_Hall           '-P 2ybc'
loop_
_symmetry_equiv_pos_site_id
_symmetry_equiv_pos_as_xyz
1 x,y,z
2 -x,1/2+y,1/2-z
3 -x,-y,-z
4 x,1/2-y,1/2+z
_cell_length_a                   12.045(4)
_cell_length_b                   20.078(6)
_cell_length_c                   21.708(6)
_cell_angle_alpha                90
_cell_angle_beta                 104.947(3)
_cell_angle_gamma                90
_cell_volume                     5072.22
loop_
_atom_site_label
_atom_site_type_symbol
_atom_site_fract_x
_atom_site_fract_y
_atom_site_fract_z
Cu1 Cu 0.01330(6) 0.22348(3) 0.48841(3)
Cu2 Cu 0.21166(6) 0.16430(4) 0.45053(3)
Cu3 Cu 0.42596(5) 0.21106(3) 0.50213(3)
Cu4 Cu 0.30859(6) 0.30668(3) 0.41794(3)
Cu5 Cu 0.27729(6) 0.28415(3) 0.55488(3)
Cu6 Cu 0.16354(6) 0.40331(3) 0.49142(3)
S1 S 0.04642(11) 0.19982(6) 0.39539(6)
S2 S 0.36208(13) 0.10470(7) 0.49306(8)
S3 S 0.47540(12) 0.26338(7) 0.42193(7)
S4 S 0.45448(13) 0.25747(7) 0.59903(7)
S5 S 0.15684(12) 0.36817(6) 0.39349(6)
S6 S 0.09971(11) 0.31495(6) 0.53958(6)
N1 N -0.2024(5) -0.0067(2) 0.9711(2)
N2 N -0.2029(4) 0.0895(2) 0.9227(2)
N3 N -0.1939(4) 0.1153(2) 0.5781(2)
N4 N -0.1049(4) 0.1793(2) 0.52478(19)
C1 C -0.0270(5) 0.1220(3) 0.3613(3)
C2 C -0.1535(6) 0.1392(4) 0.3336(5)
H1 H -0.1947 0.0999 0.3155
H2 H -0.1603 0.1724 0.3011
H3 H -0.1852 0.1560 0.3668
C3 C 0.0307(8) 0.0988(4) 0.3103(3)
H4 H -0.0048 0.0584 0.2913
H5 H 0.1109 0.0910 0.3293
H6 H 0.0224 0.1325 0.2780
C4 C -0.0168(6) 0.0676(3) 0.4104(3)
H7 H -0.0561 0.0286 0.3905
H8 H -0.0506 0.0824 0.4435
H9 H 0.0628 0.0574 0.4284
C5 C 0.3438(6) 0.0665(3) 0.5692(3)
C6 C 0.2606(8) 0.1051(4) 0.5974(4)
H10 H 0.2544 0.0838 0.6360
H11 H 0.1864 0.1061 0.5675
H12 H 0.2882 0.1497 0.6067
C7 C 0.2951(8) -0.0042(4) 0.5513(4)
H13 H 0.2841 -0.0261 0.5885
H14 H 0.3482 -0.0294 0.5343
H15 H 0.2229 -0.0010 0.5198
C8 C 0.4615(7) 0.0616(5) 0.6155(4)
H16 H 0.4544 0.0423 0.6548
H17 H 0.4943 0.1053 0.6236
H18 H 0.5102 0.0341 0.5975
C9 C 0.4592(5) 0.2150(3) 0.3468(3)
C10 C 0.4765(13) 0.2638(6) 0.2979(4)
H19 H 0.4688 0.2413 0.2580
H20 H 0.5518 0.2829 0.3117
H21 H 0.4198 0.2984 0.2926
C11 C 0.5507(10) 0.1649(7) 0.3579(5)
H22 H 0.5438 0.1391 0.3199
H23 H 0.5441 0.1360 0.3921
H24 H 0.6241 0.1867 0.3691
C12 C 0.3445(8) 0.1849(6) 0.3246(4)
H25 H 0.3399 0.1607 0.2858
H26 H 0.2873 0.2193 0.3169
H27 H 0.3317 0.1550 0.3565
C13 C 0.5374(5) 0.3360(3) 0.6133(3)
C14 C 0.4901(9) 0.3801(4) 0.6557(4)
H28 H 0.5333 0.4208 0.6632
H29 H 0.4955 0.3580 0.6956
H30 H 0.4110 0.3899 0.6356
C15 C 0.6571(8) 0.3148(6) 0.6514(7)
H31 H 0.7059 0.3533 0.6610
H32 H 0.6887 0.2838 0.6268
H33 H 0.6521 0.2940 0.6904
C16 C 0.5414(12) 0.3703(5) 0.5556(4)
H34 H 0.5854 0.4105 0.5662
H35 H 0.4648 0.3812 0.5317
H36 H 0.5768 0.3421 0.5304
C17 C 0.1919(6) 0.4338(3) 0.3413(3)
C18 C 0.1126(10) 0.4919(4) 0.3427(4)
H37 H 0.1283 0.5271 0.3162
H38 H 0.1250 0.5077 0.3856
H39 H 0.0343 0.4778 0.3270
C19 C 0.3175(8) 0.4547(4) 0.3646(4)
H40 H 0.3338 0.4886 0.3370
H41 H 0.3660 0.4169 0.3643
H42 H 0.3317 0.4719 0.4072
C20 C 0.1690(8) 0.4059(4) 0.2737(3)
H43 H 0.1869 0.4391 0.2460
H44 H 0.0895 0.3937 0.2589
H45 H 0.2161 0.3673 0.2738
C21 C 0.0762(5) 0.3264(3) 0.6205(2)
C22 C 0.1105(7) 0.2629(3) 0.6589(3)
H46 H 0.0986 0.2685 0.7007
H47 H 0.1901 0.2535 0.6626
H48 H 0.0643 0.2265 0.6378
C23 C -0.0508(5) 0.3405(4) 0.6105(3)
H49 H -0.0672 0.3469 0.6511
H50 H -0.0947 0.3036 0.5890
H51 H -0.0710 0.3800 0.5852
C24 C 0.1483(6) 0.3835(3) 0.6538(3)
H52 H 0.1359 0.3893 0.6954
H53 H 0.1269 0.4235 0.6294
H54 H 0.2280 0.3741 0.6578
C25 C -0.1424(5) 0.0349(3) 0.9451(3)
H55 H -0.0676 0.0271 0.9426
C26 C -0.3070(7) 0.0237(3) 0.9640(3)
H56 H -0.3684 0.0064 0.9775
C27 C -0.3069(6) 0.0828(3) 0.9342(3)
H57 H -0.3672 0.1131 0.9237
C28 C -0.1679(6) 0.1410(3) 0.8841(3)
H58 H -0.0871 0.1508 0.9018
H59 H -0.2110 0.1813 0.8864
C29 C -0.1868(5) 0.1213(3) 0.8147(3)
C30 C -0.1426(6) 0.1619(3) 0.7762(3)
H60 H -0.1052 0.2010 0.7926
C31 C -0.1532(6) 0.1449(3) 0.7132(3)
H61 H -0.1228 0.1731 0.6876
C32 C -0.2080(5) 0.0871(2) 0.6876(2)
C33 C -0.2536(5) 0.0470(3) 0.7263(3)
H62 H -0.2916 0.0080 0.7100
C34 C -0.2434(5) 0.0642(3) 0.7893(3)
H63 H -0.2751 0.0367 0.8148
C35 C -0.2124(6) 0.0634(3) 0.6213(3)
H64 H -0.1546 0.0291 0.6240
H65 H -0.2869 0.0432 0.6033
C36 C -0.0960(5) 0.1290(3) 0.5635(2)
H66 H -0.0283 0.1053 0.5792
C37 C -0.2710(5) 0.1596(3) 0.5474(3)
H67 H -0.3474 0.1627 0.5488
C38 C -0.2168(5) 0.1992(3) 0.5138(3)
H68 H -0.2503 0.2343 0.4875
Cu6A Cu -0.16354(6) -0.09669(3) 1.00858(3)
N1A N 0.2024(5) 0.4933(2) 0.5289(2)
loop_
_geom_bond_atom_site_label_1
_geom_bond_atom_site_label_2
_geom_bond_site_symmetry_1
_geom_bond_site_symmetry_2
Cu1 S1 1_555 1_555
Cu2 S1 1_555 1_555
Cu3 S2 1_555 1_555
Cu4 S3 1_555 1_555
Cu5 S4 1_555 1_555
Cu6 S5 1_555 1_555
S1 C1 1_555 1_555
S2 Cu2 1_555 1_555
S3 Cu3 1_555 1_555
S4 Cu3 1_555 1_555
S5 Cu4 1_555 1_555
S6 Cu1 1_555 1_555
N1 C25 1_555 1_555
N2 C25 1_555 1_555
N3 C35 1_555 1_555
N4 Cu1 1_555 1_555
C1 C2 1_555 1_555
C2 H1 1_555 1_555
H2 C2 1_555 1_555
H3 C2 1_555 1_555
C3 C1 1_555 1_555
H4 C3 1_555 1_555
H5 C3 1_555 1_555
H6 C3 1_555 1_555
C4 C1 1_555 1_555
H7 C4 1_555 1_555
H8 C4 1_555 1_555
H9 C4 1_555 1_555
C5 S2 1_555 1_555
C6 C5 1_555 1_555
H10 C6 1_555 1_555
H11 C6 1_555 1_555
H12 C6 1_555 1_555
C7 C5 1_555 1_555
H13 C7 1_555 1_555
H14 C7 1_555 1_555
H15 C7 1_555 1_555
C8 C5 1_555 1_555
H16 C8 1_555 1_555
H17 C8 1_555 1_555
H18 C8 1_555 1_555
C9 S3 1_555 1_555
C10 C9 1_555 1_555
H19 C10 1_555 1_555
H20 C10 1_555 1_555
H21 C10 1_555 1_555
C11 C9 1_555 1_555
H22 C11 1_555 1_555
H23 C11 1_555 1_555
H24 C11 1_555 1_555
C12 C9 1_555 1_555
H25 C12 1_555 1_555
H26 C12 1_555 1_555
H27 C12 1_555 1_555
C13 S4 1_555 1_555
C14 C13 1_555 1_555
H28 C14 1_555 1_555
H29 C14 1_555 1_555
H30 C14 1_555 1_555
C15 C13 1_555 1_555
H31 C15 1_555 1_555
H32 C15 1_555 1_555
H33 C15 1_555 1_555
C16 C13 1_555 1_555
H34 C16 1_555 1_555
H35 C16 1_555 1_555
H36 C16 1_555 1_555
C17 S5 1_555 1_555
C18 C17 1_555 1_555
H37 C18 1_555 1_555
H38 C18 1_555 1_555
H39 C18 1_555 1_555
C19 C17 1_555 1_555
H40 C19 1_555 1_555
H41 C19 1_555 1_555
H42 C19 1_555 1_555
C20 C17 1_555 1_555
H43 C20 1_555 1_555
H44 C20 1_555 1_555
H45 C20 1_555 1_555
C21 S6 1_555 1_555
C22 C21 1_555 1_555
H46 C22 1_555 1_555
H47 C22 1_555 1_555
H48 C22 1_555 1_555
C23 C21 1_555 1_555
H49 C23 1_555 1_555
H50 C23 1_555 1_555
H51 C23 1_555 1_555
C24 C21 1_555 1_555
H52 C24 1_555 1_555
H53 C24 1_555 1_555
H54 C24 1_555 1_555
C25 H55 1_555 1_555
C26 N1 1_555 1_555
H56 C26 1_555 1_555
C27 N2 1_555 1_555
H57 C27 1_555 1_555
C28 N2 1_555 1_555
H58 C28 1_555 1_555
H59 C28 1_555 1_555
C29 C28 1_555 1_555
C30 C29 1_555 1_555
H60 C30 1_555 1_555
C31 C30 1_555 1_555
H61 C31 1_555 1_555
C32 C31 1_555 1_555
C33 C32 1_555 1_555
H62 C33 1_555 1_555
C34 C29 1_555 1_555
H63 C34 1_555 1_555
C35 C32 1_555 1_555
H64 C35 1_555 1_555
H65 C35 1_555 1_555
C36 N3 1_555 1_555
H66 C36 1_555 1_555
C37 N3 1_555 1_555
H67 C37 1_555 1_555
C38 N4 1_555 1_555
H68 C38 1_555 1_555
Cu6A N1 1_555 1_555
N1A Cu6 1_555 1_555
Cu5 S6 1_555 1_555
Cu6 S6 1_555 1_555
N4 C36 1_555 1_555
C26 C27 1_555 1_555
C33 C34 1_555 1_555
C37 C38 1_555 1_555

#END
