
#######################################################################
#
#                 Cambridge Crystallographic Data Centre
#                                CCDC 
#
#######################################################################
#
# If this CIF has been generated from an entry in the Cambridge 
# Structural Database, then it will include bibliographic, chemical, 
# crystal, experimental, refinement or atomic coordinate data resulting 
# from the CCDC's data processing and validation procedures.
#
#######################################################################

data_GODKOA
_symmetry_cell_setting           monoclinic
_symmetry_space_group_name_H-M   'P 2/n'
_symmetry_Int_Tables_number      13
_space_group_name_Hall           '-P 2yac'
loop_
_symmetry_equiv_pos_site_id
_symmetry_equiv_pos_as_xyz
1 x,y,z
2 1/2-x,y,1/2-z
3 -x,-y,-z
4 1/2+x,-y,1/2+z
_cell_length_a                   11.740(3)
_cell_length_b                   12.323(3)
_cell_length_c                   16.614(5)
_cell_angle_alpha                90
_cell_angle_beta                 95.926(6)
_cell_angle_gamma                90
_cell_volume                     2390.74
loop_
_atom_site_label
_atom_site_type_symbol
_atom_site_fract_x
_atom_site_fract_y
_atom_site_fract_z
Cu1 Cu 0.05317(3) 0.15582(3) 0.187775(17)
Cu2 Cu 0.2500 0.27796(4) 0.2500
Cu3 Cu 0.2500 -0.00358(5) 0.2500
S1 S 0.07554(5) 0.28777(5) 0.28129(4)
S2 S 0.06632(7) -0.01806(6) 0.23116(4)
P1 P -0.00111(5) 0.16694(5) 0.05404(4)
C1 C 0.0220(2) 0.4248(2) 0.24675(16)
C2 C 0.0571(3) 0.5049(3) 0.3151(2)
H1 H 0.0311 0.5763 0.2992
H2 H 0.1389 0.5052 0.3263
H3 H 0.0232 0.4835 0.3629
C3 C -0.1083(2) 0.4184(3) 0.2328(2)
H4 H -0.1385 0.4876 0.2148
H5 H -0.1383 0.3990 0.2825
H6 H -0.1302 0.3645 0.1924
C4 C 0.0701(3) 0.4598(3) 0.1700(2)
H7 H 0.0409 0.5302 0.1543
H8 H 0.0479 0.4086 0.1277
H9 H 0.1522 0.4627 0.1791
C5 C 0.0256(2) -0.0412(2) 0.33499(16)
C6 C 0.0481(4) -0.1596(3) 0.3555(2)
H10 H 0.0283 -0.1740 0.4091
H11 H 0.1277 -0.1753 0.3529
H12 H 0.0025 -0.2044 0.3174
C7 C 0.0952(3) 0.0308(3) 0.39625(17)
H13 H 0.0729 0.0172 0.4493
H14 H 0.0813 0.1057 0.3824
H15 H 0.1751 0.0151 0.3957
C8 C -0.1011(3) -0.0160(4) 0.3325(3)
H16 H -0.1257 -0.0268 0.3853
H17 H -0.1434 -0.0633 0.2944
H18 H -0.1144 0.0581 0.3163
C9 C 0.1013(2) 0.22223(19) -0.01036(14)
C10 C 0.2076(2) 0.2541(2) 0.02536(17)
H19 H 0.2243 0.2483 0.0811
C11 C 0.2896(3) 0.2946(3) -0.0211(2)
H20 H 0.3611 0.3152 0.0034
C12 C 0.2652(3) 0.3042(3) -0.1032(2)
H21 H 0.3198 0.3324 -0.1342
C13 C 0.1610(3) 0.2726(3) -0.13967(18)
H22 H 0.1453 0.2786 -0.1955
C14 C 0.0781(3) 0.2314(2) -0.09403(16)
H23 H 0.0073 0.2101 -0.1193
C15 C -0.1299(2) 0.2498(2) 0.03550(14)
C16 C -0.1322(3) 0.3504(2) -0.00114(17)
H24 H -0.0668 0.3765 -0.0218
C17 C -0.2304(3) 0.4129(3) -0.0076(2)
H25 H -0.2305 0.4804 -0.0326
C18 C -0.3273(3) 0.3763(4) 0.0225(2)
H26 H -0.3932 0.4187 0.0178
C19 C -0.3270(3) 0.2772(3) 0.0595(2)
H27 H -0.3928 0.2521 0.0801
C20 C -0.2290(2) 0.2142(3) 0.06647(19)
H28 H -0.2294 0.1471 0.0922
C21 C -0.0486(2) 0.0402(2) 0.00155(15)
H29 H -0.1086 0.0073 0.0293
H30 H -0.0805 0.0573 -0.0532
Cu1A Cu 0.44683(3) 0.15582(3) 0.312225(17)
Cu1B Cu -0.05317(3) -0.15582(3) -0.187775(17)
S1A S 0.42446(5) 0.28777(5) 0.21871(4)
S2A S 0.43368(7) -0.01806(6) 0.26884(4)
P1B P 0.00111(5) -0.16694(5) -0.05404(4)
P1A P 0.50111(5) 0.16694(5) 0.44596(4)
C1A C 0.4780(2) 0.4248(2) 0.25325(16)
C2A C 0.4429(3) 0.5049(3) 0.1849(2)
H1A H 0.4689 0.5763 0.2008
H2A H 0.3611 0.5052 0.1737
H3A H 0.4768 0.4835 0.1371
C3A C 0.6083(2) 0.4184(3) 0.2672(2)
H4A H 0.6385 0.4876 0.2852
H5A H 0.6383 0.3990 0.2175
H6A H 0.6302 0.3645 0.3076
C4A C 0.4299(3) 0.4598(3) 0.3300(2)
H7A H 0.4591 0.5302 0.3457
H8A H 0.4521 0.4086 0.3723
H9A H 0.3478 0.4627 0.3209
C5A C 0.4744(2) -0.0412(2) 0.16501(16)
C6A C 0.4519(4) -0.1596(3) 0.1445(2)
H10A H 0.4717 -0.1740 0.0909
H11A H 0.3723 -0.1753 0.1471
H12A H 0.4975 -0.2044 0.1826
C7A C 0.4048(3) 0.0308(3) 0.10375(17)
H13A H 0.4271 0.0172 0.0507
H14A H 0.4187 0.1057 0.1176
H15A H 0.3249 0.0151 0.1043
C8A C 0.6011(3) -0.0160(4) 0.1675(3)
H16A H 0.6257 -0.0268 0.1147
H17A H 0.6434 -0.0633 0.2056
H18A H 0.6144 0.0581 0.1837
C9B C -0.1013(2) -0.22223(19) 0.01036(14)
C10B C -0.2076(2) -0.2541(2) -0.02536(17)
H19B H -0.2243 -0.2483 -0.0811
C11B C -0.2896(3) -0.2946(3) 0.0211(2)
H20B H -0.3611 -0.3152 -0.0034
C12B C -0.2652(3) -0.3042(3) 0.1032(2)
H21B H -0.3198 -0.3324 0.1342
C13B C -0.1610(3) -0.2726(3) 0.13967(18)
H22B H -0.1453 -0.2786 0.1955
C14B C -0.0781(3) -0.2314(2) 0.09403(16)
H23B H -0.0073 -0.2101 0.1193
C15B C 0.1299(2) -0.2498(2) -0.03550(14)
C16B C 0.1322(3) -0.3504(2) 0.00114(17)
H24B H 0.0668 -0.3765 0.0218
C17B C 0.2304(3) -0.4129(3) 0.0076(2)
H25B H 0.2305 -0.4804 0.0326
C18B C 0.3273(3) -0.3763(4) -0.0225(2)
H26B H 0.3932 -0.4187 -0.0178
C19B C 0.3270(3) -0.2772(3) -0.0595(2)
H27B H 0.3928 -0.2521 -0.0801
C20B C 0.2290(2) -0.2142(3) -0.06647(19)
H28B H 0.2294 -0.1471 -0.0922
C21B C 0.0486(2) -0.0402(2) -0.00155(15)
H29B H 0.1086 -0.0073 -0.0293
H30B H 0.0805 -0.0573 0.0532
loop_
_geom_bond_atom_site_label_1
_geom_bond_atom_site_label_2
_geom_bond_site_symmetry_1
_geom_bond_site_symmetry_2
Cu1 S1 1_555 1_555
Cu2 S1 1_555 1_555
Cu3 S2 1_555 1_555
S1 C1 1_555 1_555
S2 Cu1 1_555 1_555
P1 Cu1 1_555 1_555
C1 C2 1_555 1_555
C2 H1 1_555 1_555
H2 C2 1_555 1_555
H3 C2 1_555 1_555
C3 C1 1_555 1_555
H4 C3 1_555 1_555
H5 C3 1_555 1_555
H6 C3 1_555 1_555
C4 C1 1_555 1_555
H7 C4 1_555 1_555
H8 C4 1_555 1_555
H9 C4 1_555 1_555
C5 S2 1_555 1_555
C6 C5 1_555 1_555
H10 C6 1_555 1_555
H11 C6 1_555 1_555
H12 C6 1_555 1_555
C7 C5 1_555 1_555
H13 C7 1_555 1_555
H14 C7 1_555 1_555
H15 C7 1_555 1_555
C8 C5 1_555 1_555
H16 C8 1_555 1_555
H17 C8 1_555 1_555
H18 C8 1_555 1_555
C9 P1 1_555 1_555
C10 C9 1_555 1_555
H19 C10 1_555 1_555
C11 C10 1_555 1_555
H20 C11 1_555 1_555
C12 C11 1_555 1_555
H21 C12 1_555 1_555
C13 C12 1_555 1_555
H22 C13 1_555 1_555
C14 C9 1_555 1_555
H23 C14 1_555 1_555
C15 P1 1_555 1_555
C16 C15 1_555 1_555
H24 C16 1_555 1_555
C17 C16 1_555 1_555
H25 C17 1_555 1_555
C18 C17 1_555 1_555
H26 C18 1_555 1_555
C19 C18 1_555 1_555
H27 C19 1_555 1_555
C20 C15 1_555 1_555
H28 C20 1_555 1_555
C21 P1 1_555 1_555
H29 C21 1_555 1_555
H30 C21 1_555 1_555
Cu1A S1A 1_555 1_555
Cu1B P1B 1_555 1_555
S1A Cu2 1_555 1_555
S2A Cu3 1_555 1_555
P1B C9B 1_555 1_555
P1A Cu1A 1_555 1_555
C1A S1A 1_555 1_555
C2A C1A 1_555 1_555
H1A C2A 1_555 1_555
H2A C2A 1_555 1_555
H3A C2A 1_555 1_555
C3A C1A 1_555 1_555
H4A C3A 1_555 1_555
H5A C3A 1_555 1_555
H6A C3A 1_555 1_555
C4A C1A 1_555 1_555
H7A C4A 1_555 1_555
H8A C4A 1_555 1_555
H9A C4A 1_555 1_555
C5A S2A 1_555 1_555
C6A C5A 1_555 1_555
H10A C6A 1_555 1_555
H11A C6A 1_555 1_555
H12A C6A 1_555 1_555
C7A C5A 1_555 1_555
H13A C7A 1_555 1_555
H14A C7A 1_555 1_555
H15A C7A 1_555 1_555
C8A C5A 1_555 1_555
H16A C8A 1_555 1_555
H17A C8A 1_555 1_555
H18A C8A 1_555 1_555
C9B C10B 1_555 1_555
C10B H19B 1_555 1_555
C11B C10B 1_555 1_555
H20B C11B 1_555 1_555
C12B C11B 1_555 1_555
H21B C12B 1_555 1_555
C13B C12B 1_555 1_555
H22B C13B 1_555 1_555
C14B C9B 1_555 1_555
H23B C14B 1_555 1_555
C15B P1B 1_555 1_555
C16B C15B 1_555 1_555
H24B C16B 1_555 1_555
C17B C16B 1_555 1_555
H25B C17B 1_555 1_555
C18B C17B 1_555 1_555
H26B C18B 1_555 1_555
C19B C18B 1_555 1_555
H27B C19B 1_555 1_555
C20B C15B 1_555 1_555
H28B C20B 1_555 1_555
C21B C21 1_555 1_555
H29B C21B 1_555 1_555
H30B C21B 1_555 1_555
C13 C14 1_555 1_555
C19 C20 1_555 1_555
Cu1A S2A 1_555 1_555
P1B C21B 1_555 1_555
C13B C14B 1_555 1_555
C19B C20B 1_555 1_555

#END
