
#######################################################################
#
#                 Cambridge Crystallographic Data Centre
#                                CCDC 
#
#######################################################################
#
# If this CIF has been generated from an entry in the Cambridge 
# Structural Database, then it will include bibliographic, chemical, 
# crystal, experimental, refinement or atomic coordinate data resulting 
# from the CCDC's data processing and validation procedures.
#
#######################################################################

data_GODLUH
_symmetry_cell_setting           monoclinic
_symmetry_space_group_name_H-M   'P 21/c'
_symmetry_Int_Tables_number      14
_space_group_name_Hall           '-P 2ybc'
loop_
_symmetry_equiv_pos_site_id
_symmetry_equiv_pos_as_xyz
1 x,y,z
2 -x,1/2+y,1/2-z
3 -x,-y,-z
4 x,1/2-y,1/2+z
_cell_length_a                   9.1630(4)
_cell_length_b                   24.7850(9)
_cell_length_c                   7.9115(3)
_cell_angle_alpha                90
_cell_angle_beta                 101.374(2)
_cell_angle_gamma                90
_cell_volume                     1761.45
loop_
_atom_site_label
_atom_site_type_symbol
_atom_site_fract_x
_atom_site_fract_y
_atom_site_fract_z
Ag1 Ag 0.45852(3) 0.281223(9) 0.55296(3)
S1 S 0.30263(10) 0.26493(3) 0.81194(10)
C1 C 0.3185(3) 0.32836(12) 0.8957(4)
N1 N 0.3838(3) 0.33968(10) 1.0556(3)
S2 S 0.38245(10) 0.40489(3) 1.09101(10)
C2 C 0.2936(4) 0.42366(12) 0.8814(4)
C3 C 0.2557(4) 0.47412(13) 0.8105(4)
H1 H 0.2789 0.5061 0.8764
C4 C 0.1829(4) 0.47600(14) 0.6407(4)
H2 H 0.1548 0.5099 0.5885
C5 C 0.1498(4) 0.42917(13) 0.5444(4)
H3 H 0.0986 0.4316 0.4279
C6 C 0.1903(4) 0.37897(13) 0.6154(4)
H4 H 0.1700 0.3471 0.5481
C7 C 0.2609(4) 0.37638(12) 0.7868(4)
N2 N 0.6790(3) 0.25505(11) 0.7443(3)
C8 C 0.7210(4) 0.20543(13) 0.7903(4)
H5 H 0.6609 0.1764 0.7378
C9 C 0.8483(4) 0.19323(14) 0.9112(4)
H6 H 0.8746 0.1568 0.9388
C10 C 0.9357(4) 0.23453(14) 0.9903(4)
H7 H 1.0229 0.2271 1.0741
C11 C 0.8940(4) 0.28827(12) 0.9454(4)
C12 C 0.9802(4) 0.33346(14) 1.0225(4)
H8 H 1.0670 0.3277 1.1086
C13 C 0.9384(4) 0.38409(14) 0.9732(4)
H9 H 0.9967 0.4136 1.0253
C14 C 0.8092(4) 0.39450(12) 0.8452(4)
C15 C 0.7638(4) 0.44644(13) 0.7891(4)
H10 H 0.8207 0.4768 0.8370
C16 C 0.6388(4) 0.45389(13) 0.6665(4)
H11 H 0.6079 0.4892 0.6286
C17 C 0.5565(4) 0.40894(13) 0.5973(4)
H12 H 0.4695 0.4145 0.5114
N3 N 0.5945(3) 0.35847(10) 0.6465(3)
C18 C 0.7192(3) 0.35111(12) 0.7685(4)
C19 C 0.7643(4) 0.29657(12) 0.8215(4)
O1 O 0.5326(3) 0.42430(9) 1.1347(3)
O2 O 0.2880(3) 0.41697(9) 1.2114(3)
Ag1C Ag 0.45852(3) 0.218777(9) 1.05296(3)
S1C S 0.30263(10) 0.23507(3) 0.31194(10)
loop_
_geom_bond_atom_site_label_1
_geom_bond_atom_site_label_2
_geom_bond_site_symmetry_1
_geom_bond_site_symmetry_2
Ag1 S1 1_555 1_555
S1 C1 1_555 1_555
C1 N1 1_555 1_555
N1 S2 1_555 1_555
S2 C2 1_555 1_555
C2 C3 1_555 1_555
C3 H1 1_555 1_555
C4 C3 1_555 1_555
H2 C4 1_555 1_555
C5 C4 1_555 1_555
H3 C5 1_555 1_555
C6 C5 1_555 1_555
H4 C6 1_555 1_555
C7 C1 1_555 1_555
N2 Ag1 1_555 1_555
C8 N2 1_555 1_555
H5 C8 1_555 1_555
C9 C8 1_555 1_555
H6 C9 1_555 1_555
C10 C9 1_555 1_555
H7 C10 1_555 1_555
C11 C10 1_555 1_555
C12 C11 1_555 1_555
H8 C12 1_555 1_555
C13 C12 1_555 1_555
H9 C13 1_555 1_555
C14 C13 1_555 1_555
C15 C14 1_555 1_555
H10 C15 1_555 1_555
C16 C15 1_555 1_555
H11 C16 1_555 1_555
C17 C16 1_555 1_555
H12 C17 1_555 1_555
N3 Ag1 1_555 1_555
C18 C14 1_555 1_555
C19 N2 1_555 1_555
O1 S2 1_555 1_555
O2 S2 1_555 1_555
Ag1C S1 1_555 1_555
S1C Ag1 1_555 1_555
C2 C7 1_555 1_555
C6 C7 1_555 1_555
C11 C19 1_555 1_555
C17 N3 1_555 1_555
N3 C18 1_555 1_555
C18 C19 1_555 1_555

#END
