
#######################################################################
#
#                 Cambridge Crystallographic Data Centre
#                                CCDC 
#
#######################################################################
#
# If this CIF has been generated from an entry in the Cambridge 
# Structural Database, then it will include bibliographic, chemical, 
# crystal, experimental, refinement or atomic coordinate data resulting 
# from the CCDC's data processing and validation procedures.
#
#######################################################################

data_GODNUJ
_symmetry_cell_setting           monoclinic
_symmetry_space_group_name_H-M   'P 21/n'
_symmetry_Int_Tables_number      14
_space_group_name_Hall           '-P 2yn'
loop_
_symmetry_equiv_pos_site_id
_symmetry_equiv_pos_as_xyz
1 x,y,z
2 1/2-x,1/2+y,1/2-z
3 -x,-y,-z
4 1/2+x,1/2-y,1/2+z
_cell_length_a                   17.076(3)
_cell_length_b                   10.987(2)
_cell_length_c                   21.522(4)
_cell_angle_alpha                90
_cell_angle_beta                 108.635(3)
_cell_angle_gamma                90
_cell_volume                     3826.14
loop_
_atom_site_label
_atom_site_type_symbol
_atom_site_fract_x
_atom_site_fract_y
_atom_site_fract_z
Ni1 Ni 0.377977(17) 0.82677(2) 0.066354(13)
Ni2 Ni 0.846599(17) 0.83374(3) 0.051309(14)
O1 O 0.73954(11) 0.89821(15) 0.07434(8)
O2 O 0.79387(10) 0.72183(14) 0.11257(8)
O3 O 0.46430(10) 0.70373(16) 0.06240(9)
O4 O 0.50492(16) 0.7853(3) -0.01653(12)
O5 O 0.28046(10) 0.91489(15) 0.08791(8)
O6 O 0.31656(10) 0.73408(15) 0.13082(8)
O7 O 0.0150(2) 0.8801(4) 0.0240(3)
O8 O -0.05777(11) 0.7327(2) 0.04604(10)
O9 O 0.40759(13) 0.95297(18) 0.00752(9)
H1 H 0.4399(17) 0.912(3) -0.0065(15)
H2 H 0.3747(16) 1.000(2) -0.0172(13)
O10 O 0.85858(11) 0.98762(19) 0.00366(10)
H3 H 0.8178(14) 1.015(3) -0.0268(12)
H4 H 0.8986(14) 0.979(3) -0.0082(15)
N1 N 0.76827(12) 0.74546(18) -0.03416(9)
N2 N 0.62442(14) 0.5246(2) -0.18807(10)
H5 H 0.6456(18) 0.4514(19) -0.1876(15)
N3 N 0.42992(12) 0.60401(18) -0.35956(9)
N4 N 0.29330(12) 0.73891(17) -0.01181(9)
N5 N 0.14992(12) 0.52656(18) -0.16922(9)
H6 H 0.1627(17) 0.4511(17) -0.1629(13)
N6 N -0.03136(11) 0.60780(17) -0.34896(9)
C1 C 0.79873(16) 0.6529(3) -0.05976(14)
H7 H 0.8549 0.6361 -0.0421
C2 C 0.75257(16) 0.5812(3) -0.11038(13)
H8 H 0.7775 0.5183 -0.1261
C3 C 0.66900(14) 0.6026(2) -0.13787(11)
C4 C 0.63575(15) 0.6954(3) -0.11111(12)
H9 H 0.5794 0.7117 -0.1269
C5 C 0.68710(15) 0.7640(3) -0.06068(11)
H10 H 0.6636 0.8273 -0.0441
C6 C 0.46451(15) 0.6908(2) -0.31546(11)
H11 H 0.4442 0.7696 -0.3243
C7 C 0.52797(15) 0.6711(2) -0.25804(11)
H12 H 0.5492 0.7350 -0.2293
C8 C 0.55995(14) 0.5541(2) -0.24357(11)
C9 C 0.52610(16) 0.4642(2) -0.29038(12)
H13 H 0.5467 0.3852 -0.2838
C10 C 0.46227(16) 0.4926(2) -0.34617(12)
H14 H 0.4404 0.4308 -0.3763
C11 C 0.25139(16) 0.7910(2) -0.06861(12)
H15 H 0.2554 0.8749 -0.0723
C12 C 0.20252(16) 0.7277(2) -0.12205(12)
H16 H 0.1757 0.7687 -0.1608
C13 C 0.19309(13) 0.6024(2) -0.11816(10)
C14 C 0.23487(15) 0.5487(2) -0.05807(11)
H17 H 0.2295 0.4657 -0.0520
C15 C 0.28387(16) 0.6184(2) -0.00790(11)
H18 H 0.3123 0.5798 0.0313
C16 C -0.00773(15) 0.6896(2) -0.30056(12)
H19 H -0.0322 0.7661 -0.3080
C17 C 0.05054(15) 0.6681(2) -0.24026(12)
H20 H 0.0626 0.7278 -0.2080
C18 C 0.09119(13) 0.5566(2) -0.22810(10)
C19 C 0.06772(15) 0.4714(2) -0.27897(11)
H21 H 0.0930 0.3955 -0.2736
C20 C 0.00687(15) 0.4998(2) -0.33728(11)
H22 H -0.0082 0.4408 -0.3700
C21 C 0.66216(15) 0.6615(2) 0.16051(13)
C22 C 0.61617(15) 0.5806(2) 0.11351(14)
C23 C 0.6040(2) 0.4633(3) 0.1335(2)
H23 H 0.5739 0.4070 0.1028
C24 C 0.6369(3) 0.4300(4) 0.1993(3)
H24 H 0.6280 0.3520 0.2124
C25 C 0.6820(3) 0.5113(5) 0.2446(3)
H25 H 0.7036 0.4890 0.2884
C26 C 0.6955(2) 0.6251(4) 0.22525(16)
H26 H 0.7275 0.6795 0.2561
C27 C 0.67611(16) 0.7905(2) 0.14223(13)
H27 H 0.6931 0.8394 0.1818
H28 H 0.6241 0.8230 0.1140
C28 C 0.74025(14) 0.8036(2) 0.10758(11)
C29 C 0.58211(15) 0.6185(3) 0.04317(14)
H29 H 0.5625 0.5466 0.0167
H30 H 0.6266 0.6530 0.0299
C30 C 0.51139(15) 0.7113(3) 0.02817(13)
C31 C 0.17120(17) 0.7184(3) 0.17090(15)
C32 C 0.1119(2) 0.6484(3) 0.1277(3)
C33 C 0.0836(4) 0.5481(4) 0.1519(6)
H31 H 0.0402 0.5042 0.1236
C34 C 0.1139(6) 0.5112(6) 0.2118(7)
H32 H 0.0968 0.4374 0.2243
C35 C 0.1743(6) 0.5848(8) 0.2597(4)
H33 H 0.1924 0.5642 0.3039
C36 C 0.2040(3) 0.6866(5) 0.2370(2)
H34 H 0.2455 0.7335 0.2655
C37 C 0.20006(18) 0.8336(3) 0.15074(16)
H35 H 0.2179 0.8864 0.1888
H36 H 0.1533 0.8727 0.1190
C38 C 0.26980(14) 0.8257(2) 0.12128(11)
C39 C 0.0797(2) 0.6826(5) 0.0558(2)
H37 H 0.0624 0.6092 0.0300
H38 H 0.1244 0.7187 0.0433
C40 C 0.0056(2) 0.7737(5) 0.0387(2)
Ni1C Ni -0.122023(17) 0.67323(2) -0.433646(13)
Ni2_2 Ni -0.153401(17) 0.83374(3) 0.051309(14)
Ni2C Ni 0.346599(17) 0.66626(3) -0.448691(14)
O8_2 O 0.94223(11) 0.7327(2) 0.04604(10)
N3C N 0.92992(12) 0.89599(18) 0.14044(9)
N6C N 0.46864(11) 0.89220(17) 0.15104(9)
loop_
_geom_bond_atom_site_label_1
_geom_bond_atom_site_label_2
_geom_bond_site_symmetry_1
_geom_bond_site_symmetry_2
Ni1 O3 1_555 1_555
Ni2 O1 1_555 1_555
O1 C28 1_555 1_555
O2 Ni2 1_555 1_555
O3 C30 1_555 1_555
O4 C30 1_555 1_555
O5 Ni1 1_555 1_555
O6 Ni1 1_555 1_555
O7 C40 1_555 1_555
O8 C40 1_555 1_555
O9 Ni1 1_555 1_555
H1 O9 1_555 1_555
H2 O9 1_555 1_555
O10 Ni2 1_555 1_555
H3 O10 1_555 1_555
H4 O10 1_555 1_555
N1 Ni2 1_555 1_555
N2 H5 1_555 1_555
N3 C6 1_555 1_555
N4 Ni1 1_555 1_555
N5 H6 1_555 1_555
N6 C16 1_555 1_555
C1 N1 1_555 1_555
H7 C1 1_555 1_555
C2 C1 1_555 1_555
H8 C2 1_555 1_555
C3 N2 1_555 1_555
C4 C3 1_555 1_555
H9 C4 1_555 1_555
C5 N1 1_555 1_555
H10 C5 1_555 1_555
C6 H11 1_555 1_555
C7 C6 1_555 1_555
H12 C7 1_555 1_555
C8 N2 1_555 1_555
C9 C8 1_555 1_555
H13 C9 1_555 1_555
C10 N3 1_555 1_555
H14 C10 1_555 1_555
C11 N4 1_555 1_555
H15 C11 1_555 1_555
C12 C11 1_555 1_555
H16 C12 1_555 1_555
C13 N5 1_555 1_555
C14 C13 1_555 1_555
H17 C14 1_555 1_555
C15 N4 1_555 1_555
H18 C15 1_555 1_555
C16 H19 1_555 1_555
C17 C16 1_555 1_555
H20 C17 1_555 1_555
C18 N5 1_555 1_555
C19 C18 1_555 1_555
H21 C19 1_555 1_555
C20 N6 1_555 1_555
H22 C20 1_555 1_555
C21 C22 1_555 1_555
C22 C23 1_555 1_555
C23 H23 1_555 1_555
C24 C23 1_555 1_555
H24 C24 1_555 1_555
C25 C24 1_555 1_555
H25 C25 1_555 1_555
C26 C21 1_555 1_555
H26 C26 1_555 1_555
C27 C21 1_555 1_555
H27 C27 1_555 1_555
H28 C27 1_555 1_555
C28 O2 1_555 1_555
C29 C22 1_555 1_555
H29 C29 1_555 1_555
H30 C29 1_555 1_555
C30 C29 1_555 1_555
C31 C32 1_555 1_555
C32 C33 1_555 1_555
C33 H31 1_555 1_555
C34 C33 1_555 1_555
H32 C34 1_555 1_555
C35 C34 1_555 1_555
H33 C35 1_555 1_555
C36 C31 1_555 1_555
H34 C36 1_555 1_555
C37 C31 1_555 1_555
H35 C37 1_555 1_555
H36 C37 1_555 1_555
C38 O5 1_555 1_555
C39 C32 1_555 1_555
H37 C39 1_555 1_555
H38 C39 1_555 1_555
C40 C39 1_555 1_555
Ni1C N6 1_555 1_555
Ni2_2 O8 1_555 1_555
Ni2C N3 1_555 1_555
O8_2 Ni2 1_555 1_555
N3C Ni2 1_555 1_555
N6C Ni1 1_555 1_555
O6 C38 1_555 1_555
C2 C3 1_555 1_555
C4 C5 1_555 1_555
C7 C8 1_555 1_555
C9 C10 1_555 1_555
C12 C13 1_555 1_555
C14 C15 1_555 1_555
C17 C18 1_555 1_555
C19 C20 1_555 1_555
C25 C26 1_555 1_555
C27 C28 1_555 1_555
C35 C36 1_555 1_555
C37 C38 1_555 1_555

#END
