
#######################################################################
#
#                 Cambridge Crystallographic Data Centre
#                                CCDC 
#
#######################################################################
#
# If this CIF has been generated from an entry in the Cambridge 
# Structural Database, then it will include bibliographic, chemical, 
# crystal, experimental, refinement or atomic coordinate data resulting 
# from the CCDC's data processing and validation procedures.
#
#######################################################################

data_GODPAR
_symmetry_cell_setting           monoclinic
_symmetry_space_group_name_H-M   'P 21/c'
_symmetry_Int_Tables_number      14
_space_group_name_Hall           '-P 2ybc'
loop_
_symmetry_equiv_pos_site_id
_symmetry_equiv_pos_as_xyz
1 x,y,z
2 -x,1/2+y,1/2-z
3 -x,-y,-z
4 x,1/2-y,1/2+z
_cell_length_a                   14.9502(3)
_cell_length_b                   21.5180(4)
_cell_length_c                   18.4272(3)
_cell_angle_alpha                90
_cell_angle_beta                 103.5970(10)
_cell_angle_gamma                90
_cell_volume                     5761.86
loop_
_atom_site_label
_atom_site_type_symbol
_atom_site_fract_x
_atom_site_fract_y
_atom_site_fract_z
Ni1 Ni 0.42229(3) 0.415005(17) 0.09603(2)
Ni2 Ni 0.23894(3) 0.586630(17) 0.23702(2)
O2 O 0.55283(14) 0.45503(10) 0.13191(11)
O4 O 0.44541(14) 0.47208(9) 0.19195(11)
O5 O 0.32766(15) 0.51688(10) 0.30524(11)
O7 O 0.38156(14) 0.59774(9) 0.25822(11)
O10 O 0.28239(14) 0.40430(9) 0.07421(11)
O11 O 0.33426(16) 0.48796(10) 0.03056(11)
O12 O 0.11021(15) 0.54263(10) 0.20320(12)
O13 O 0.21787(15) 0.52805(10) 0.14309(11)
N1 N 0.20438(17) 0.66295(11) 0.17081(13)
N2 N 0.14854(18) 0.81753(12) 0.02958(14)
H7 H 0.1162(19) 0.8454(12) 0.0469(16)
N3 N 0.21342(18) 0.87533(12) -0.16883(13)
N4 N 0.44335(18) 0.38049(12) -0.00169(13)
N5 N 0.50521(18) 0.32000(12) -0.20019(13)
H8 H 0.5377(19) 0.3486(12) -0.2170(16)
N6 N 0.45193(17) 0.16309(11) -0.33832(13)
C1 C 0.1399(2) 0.70464(15) 0.17448(18)
H10 H 0.1052 0.6991 0.2111
C2 C 0.1210(3) 0.75527(16) 0.12800(18)
H11 H 0.0735 0.7834 0.1325
C3 C 0.1708(2) 0.76551(14) 0.07456(15)
C4 C 0.2390(2) 0.72316(18) 0.07203(19)
H12 H 0.2769 0.7285 0.0377
C5 C 0.2517(2) 0.67300(17) 0.11971(19)
H13 H 0.2976 0.6436 0.1156
C6 C 0.2390(3) 0.81860(17) -0.14065(19)
H14 H 0.2728 0.7928 -0.1665
C7 C 0.2190(3) 0.79599(17) -0.07679(18)
H15 H 0.2369 0.7550 -0.0604
C8 C 0.1725(2) 0.83321(14) -0.03588(16)
C9 C 0.1417(2) 0.89076(14) -0.06710(16)
H16 H 0.1059 0.9169 -0.0434
C10 C 0.1632(2) 0.90941(14) -0.13197(16)
H17 H 0.1413 0.9487 -0.1521
C11 C 0.5081(2) 0.40725(14) -0.03063(16)
H18 H 0.5413 0.4414 -0.0048
C12 C 0.5289(2) 0.38775(14) -0.09585(15)
H19 H 0.5752 0.4084 -0.1143
C13 C 0.4817(2) 0.33739(13) -0.13486(15)
C14 C 0.4109(2) 0.31203(15) -0.10748(17)
H20 H 0.3739 0.2795 -0.1336
C15 C 0.3951(2) 0.33481(16) -0.04198(17)
H21 H 0.3465 0.3168 -0.0240
C16 C 0.4914(2) 0.21490(15) -0.35703(17)
H22 H 0.5088 0.2157 -0.4034
C17 C 0.5080(2) 0.26681(15) -0.31249(17)
H23 H 0.5359 0.3024 -0.3284
C18 C 0.4837(2) 0.26729(14) -0.24331(15)
C19 C 0.4433(2) 0.21341(14) -0.22392(16)
H24 H 0.4261 0.2108 -0.1776
C20 C 0.4288(2) 0.16407(14) -0.27261(16)
H25 H 0.4001 0.1281 -0.2585
C31 C 0.5876(2) 0.52722(14) 0.23296(16)
C32 C 0.5684(2) 0.54973(14) 0.29939(16)
C33 C 0.6281(2) 0.59433(15) 0.33889(18)
H34 H 0.6180 0.6097 0.3846
C34 C 0.7019(2) 0.61682(16) 0.3132(2)
H35 H 0.7399 0.6484 0.3404
C35 C 0.7205(2) 0.59383(16) 0.2486(2)
H36 H 0.7720 0.6085 0.2316
C36 C 0.6631(2) 0.54903(15) 0.20881(18)
H37 H 0.6754 0.5329 0.1642
C37 C 0.5255(2) 0.48211(14) 0.18385(16)
C38 C 0.4915(2) 0.52577(15) 0.33166(16)
H38 H 0.5047 0.5379 0.3850
H39 H 0.4925 0.4798 0.3298
C39 C 0.3951(2) 0.54715(14) 0.29514(15)
C40 C 0.0795(2) 0.46783(15) 0.10418(17)
C41 C 0.0973(2) 0.44756(16) 0.03690(18)
C42 C 0.0415(3) 0.40033(17) -0.0016(2)
H40 H 0.0513 0.3863 -0.0479
C43 C -0.0275(3) 0.37360(18) 0.0264(2)
H41 H -0.0633 0.3408 -0.0003
C44 C -0.0451(3) 0.39405(18) 0.0924(2)
H42 H -0.0930 0.3759 0.1112
C45 C 0.0086(2) 0.44179(16) 0.1314(2)
H43 H -0.0033 0.4566 0.1768
C46 C 0.1385(2) 0.51607(15) 0.15152(17)
C47 C 0.1701(2) 0.47534(16) 0.00298(17)
H44 H 0.1659 0.5212 0.0057
H45 H 0.1566 0.4638 -0.0505
C48 C 0.2678(2) 0.45618(15) 0.03874(16)
Ni1C Ni 0.42229(3) 0.084995(17) -0.40397(2)
Ni2C Ni 0.23894(3) 0.913370(17) -0.26298(2)
N3C N 0.21342(18) 0.62467(12) 0.33117(13)
N6C N 0.45193(17) 0.33691(11) 0.16168(13)
Ni3 Ni 0.11054(3) 0.412903(17) 0.45023(2)
O14 O 0.11327(14) 0.47107(10) 0.54327(11)
O15 O 0.23201(15) 0.46250(10) 0.49423(11)
O16 O 0.03124(14) 0.60060(9) 0.58689(11)
O17 O -0.03390(15) 0.51960(9) 0.62426(11)
N7 N 0.14609(17) 0.37300(12) 0.36032(13)
N8 N 0.19376(19) 0.32027(12) 0.15420(14)
H9 H 0.222(2) 0.3502(12) 0.1335(16)
N9 N 0.13892(17) 0.16361(11) 0.01691(13)
C21 C 0.1884(2) 0.40991(14) 0.31931(15)
H26 H 0.2071 0.4502 0.3379
C22 C 0.2058(2) 0.39250(14) 0.25270(15)
H27 H 0.2370 0.4200 0.2267
C23 C 0.1773(2) 0.33403(14) 0.22307(16)
C24 C 0.1379(2) 0.29449(15) 0.26698(16)
H28 H 0.1214 0.2532 0.2511
C25 C 0.1233(2) 0.31584(14) 0.33320(17)
H29 H 0.0952 0.2885 0.3617
C26 C 0.2096(2) 0.20214(14) 0.01753(17)
H30 H 0.2490 0.1934 -0.0149
C27 C 0.2280(2) 0.25347(15) 0.06259(17)
H31 H 0.2786 0.2796 0.0607
C28 C 0.1722(2) 0.26721(14) 0.11123(15)
C29 C 0.0979(2) 0.22815(15) 0.10990(17)
H32 H 0.0561 0.2366 0.1404
C30 C 0.0857(2) 0.17698(15) 0.06366(16)
H33 H 0.0364 0.1495 0.0652
C49 C 0.2427(2) 0.53694(14) 0.59398(17)
C50 C 0.2110(2) 0.55775(15) 0.65532(17)
C51 C 0.2604(2) 0.60492(16) 0.69903(18)
H46 H 0.2404 0.6189 0.7415
C52 C 0.3363(2) 0.63176(16) 0.6831(2)
H47 H 0.3679 0.6641 0.7139
C53 C 0.3667(2) 0.61163(17) 0.6220(2)
H48 H 0.4192 0.6303 0.6103
C54 C 0.3205(2) 0.56403(15) 0.57771(18)
H49 H 0.3420 0.5498 0.5360
C55 C 0.1940(2) 0.48736(14) 0.54203(17)
C56 C 0.1274(2) 0.53175(15) 0.67637(16)
H50 H 0.1279 0.5452 0.7278
H51 H 0.1315 0.4858 0.6766
C57 C 0.0369(2) 0.55078(14) 0.62553(15)
Ni3B Ni -0.11054(3) 0.587097(17) 0.54977(2)
Ni3C Ni 0.11054(3) 0.087097(17) -0.04977(2)
O16B O -0.03124(14) 0.39940(9) 0.41311(11)
O17B O 0.03390(15) 0.48040(9) 0.37574(11)
N9C N 0.13892(17) 0.33639(11) 0.51691(13)
O1 O 0.3890(2) 0.44450(19) 0.44628(17)
H1 H 0.3714 0.4648 0.4059
H2 H 0.3501 0.4543 0.4717
O3 O 0.9655(3) 0.6116(3) 0.2429(3)
H3 H 0.930(3) 0.593(3) 0.204(3)
H4 H 1.014(3) 0.588(3) 0.242(4)
O6 O 0.7177(3) 0.4099(2) 0.0919(3)
H5 H 0.696(4) 0.3704(12) 0.098(4)
H6 H 0.673(3) 0.430(2) 0.103(3)
O8 O 0.4154(7) 0.3281(3) 0.4568(5)
O9? O 0.5256(12) 0.3568(13) 0.5233(8)
loop_
_geom_bond_atom_site_label_1
_geom_bond_atom_site_label_2
_geom_bond_site_symmetry_1
_geom_bond_site_symmetry_2
Ni1 O2 1_555 1_555
Ni2 O5 1_555 1_555
Ni3 O14 1_555 1_555
O1 H1 1_555 1_555
H2 O1 1_555 1_555
O2 C37 1_555 1_555
O3 H3 1_555 1_555
H4 O3 1_555 1_555
O4 Ni1 1_555 1_555
O5 C39 1_555 1_555
O6 H5 1_555 1_555
H6 O6 1_555 1_555
O7 Ni2 1_555 1_555
O10 Ni1 1_555 1_555
O11 Ni1 1_555 1_555
O12 Ni2 1_555 1_555
O13 Ni2 1_555 1_555
O14 C55 1_555 1_555
O15 Ni3 1_555 1_555
O16 C57 1_555 1_555
O17 C57 1_555 1_555
N1 Ni2 1_555 1_555
N2 H7 1_555 1_555
N3 C6 1_555 1_555
N4 Ni1 1_555 1_555
N5 H8 1_555 1_555
N6 C16 1_555 1_555
N7 Ni3 1_555 1_555
N8 H9 1_555 1_555
N9 C26 1_555 1_555
C1 N1 1_555 1_555
H10 C1 1_555 1_555
C2 C1 1_555 1_555
H11 C2 1_555 1_555
C3 N2 1_555 1_555
C4 C3 1_555 1_555
H12 C4 1_555 1_555
C5 N1 1_555 1_555
H13 C5 1_555 1_555
C6 H14 1_555 1_555
C7 C6 1_555 1_555
H15 C7 1_555 1_555
C8 N2 1_555 1_555
C9 C8 1_555 1_555
H16 C9 1_555 1_555
C10 N3 1_555 1_555
H17 C10 1_555 1_555
C11 N4 1_555 1_555
H18 C11 1_555 1_555
C12 C11 1_555 1_555
H19 C12 1_555 1_555
C13 N5 1_555 1_555
C14 C13 1_555 1_555
H20 C14 1_555 1_555
C15 N4 1_555 1_555
H21 C15 1_555 1_555
C16 H22 1_555 1_555
C17 C16 1_555 1_555
H23 C17 1_555 1_555
C18 N5 1_555 1_555
C19 C18 1_555 1_555
H24 C19 1_555 1_555
C20 N6 1_555 1_555
H25 C20 1_555 1_555
C21 N7 1_555 1_555
H26 C21 1_555 1_555
C22 C21 1_555 1_555
H27 C22 1_555 1_555
C23 N8 1_555 1_555
C24 C23 1_555 1_555
H28 C24 1_555 1_555
C25 N7 1_555 1_555
H29 C25 1_555 1_555
C26 H30 1_555 1_555
C27 C26 1_555 1_555
H31 C27 1_555 1_555
C28 N8 1_555 1_555
C29 C28 1_555 1_555
H32 C29 1_555 1_555
C30 N9 1_555 1_555
H33 C30 1_555 1_555
C31 C32 1_555 1_555
C32 C33 1_555 1_555
C33 H34 1_555 1_555
C34 C33 1_555 1_555
H35 C34 1_555 1_555
C35 C34 1_555 1_555
H36 C35 1_555 1_555
C36 C31 1_555 1_555
H37 C36 1_555 1_555
C37 O4 1_555 1_555
C38 C32 1_555 1_555
H38 C38 1_555 1_555
H39 C38 1_555 1_555
C39 O7 1_555 1_555
C40 C41 1_555 1_555
C41 C42 1_555 1_555
C42 H40 1_555 1_555
C43 C42 1_555 1_555
H41 C43 1_555 1_555
C44 C43 1_555 1_555
H42 C44 1_555 1_555
C45 C40 1_555 1_555
H43 C45 1_555 1_555
C46 O12 1_555 1_555
C47 C41 1_555 1_555
H44 C47 1_555 1_555
H45 C47 1_555 1_555
C48 O10 1_555 1_555
C49 C50 1_555 1_555
C50 C51 1_555 1_555
C51 H46 1_555 1_555
C52 C51 1_555 1_555
H47 C52 1_555 1_555
C53 C52 1_555 1_555
H48 C53 1_555 1_555
C54 C49 1_555 1_555
H49 C54 1_555 1_555
C55 O15 1_555 1_555
C56 C50 1_555 1_555
H50 C56 1_555 1_555
H51 C56 1_555 1_555
C57 C56 1_555 1_555
Ni1C N6 1_555 1_555
Ni2C N3 1_555 1_555
Ni3B O16 1_555 1_555
Ni3C N9 1_555 1_555
O16B Ni3 1_555 1_555
O17B Ni3 1_555 1_555
N3C Ni2 1_555 1_555
N6C Ni1 1_555 1_555
N9C Ni3 1_555 1_555
O11 C48 1_555 1_555
O13 C46 1_555 1_555
O17 Ni3B 1_555 1_555
C2 C3 1_555 1_555
C4 C5 1_555 1_555
C7 C8 1_555 1_555
C9 C10 1_555 1_555
C12 C13 1_555 1_555
C14 C15 1_555 1_555
C17 C18 1_555 1_555
C19 C20 1_555 1_555
C22 C23 1_555 1_555
C24 C25 1_555 1_555
C27 C28 1_555 1_555
C29 C30 1_555 1_555
C31 C37 1_555 1_555
C35 C36 1_555 1_555
C38 C39 1_555 1_555
C40 C46 1_555 1_555
C44 C45 1_555 1_555
C47 C48 1_555 1_555
C49 C55 1_555 1_555
C53 C54 1_555 1_555

#END
