
#######################################################################
#
#                 Cambridge Crystallographic Data Centre
#                                CCDC 
#
#######################################################################
#
# If this CIF has been generated from an entry in the Cambridge 
# Structural Database, then it will include bibliographic, chemical, 
# crystal, experimental, refinement or atomic coordinate data resulting 
# from the CCDC's data processing and validation procedures.
#
#######################################################################

data_GOFGUE
_symmetry_cell_setting           monoclinic
_symmetry_space_group_name_H-M   'P 21/n'
_symmetry_Int_Tables_number      14
_space_group_name_Hall           '-P 2yn'
loop_
_symmetry_equiv_pos_site_id
_symmetry_equiv_pos_as_xyz
1 x,y,z
2 1/2-x,1/2+y,1/2-z
3 -x,-y,-z
4 1/2+x,1/2-y,1/2+z
_cell_length_a                   11.393(2)
_cell_length_b                   9.782(2)
_cell_length_c                   24.168(5)
_cell_angle_alpha                90
_cell_angle_beta                 99.73(3)
_cell_angle_gamma                90
_cell_volume                     2654.69
loop_
_atom_site_label
_atom_site_type_symbol
_atom_site_fract_x
_atom_site_fract_y
_atom_site_fract_z
K1 K 0.55460(5) 0.44226(6) 0.80316(2)
O1 O 0.37358(16) 0.5219(2) 0.85086(8)
N1 N 0.76961(15) 0.15684(19) 0.86521(7)
N2 N 0.81797(15) 0.18405(19) 0.81486(7)
B1 B 0.6407(2) 0.1416(3) 0.85087(11)
B2 B 0.7179(2) 0.1676(3) 0.76668(11)
C1 C 0.60580(18) 0.1427(2) 0.78822(9)
C2 C 0.4811(2) 0.1224(3) 0.75480(10)
H1 H 0.4247 0.1078 0.7807
H2 H 0.4807 0.0425 0.7303
H3 H 0.4577 0.2037 0.7319
C3 C 0.55508(18) 0.1446(2) 0.89603(9)
C4 C 0.45974(19) 0.0530(3) 0.89182(10)
H4 H 0.4504 -0.0135 0.8628
C5 C 0.3785(2) 0.0560(3) 0.92842(11)
H5 H 0.3165 -0.0100 0.9252
C6 C 0.3878(2) 0.1548(3) 0.96964(11)
H6 H 0.3316 0.1581 0.9945
C7 C 0.4789(2) 0.2486(3) 0.97452(11)
H7 H 0.4850 0.3173 1.0026
C8 C 0.5621(2) 0.2435(3) 0.93867(10)
H8 H 0.6251 0.3083 0.9430
C9 C 0.84430(18) 0.1737(2) 0.91721(9)
C10 C 0.8233(2) 0.0961(2) 0.96292(10)
H9 H 0.7604 0.0312 0.9580
C11 C 0.8925(2) 0.1119(3) 1.01523(10)
H10 H 0.8760 0.0588 1.0459
C12 C 0.9855(2) 0.2041(3) 1.02330(10)
H11 H 1.0322 0.2160 1.0594
C13 C 1.0097(2) 0.2790(3) 0.97791(10)
H12 H 1.0741 0.3420 0.9829
C14 C 0.94114(19) 0.2631(2) 0.92539(9)
H13 H 0.9602 0.3136 0.8945
C15 C 0.92966(18) 0.1194(2) 0.81335(9)
C16 C 0.9561(2) -0.0107(3) 0.83579(9)
H14 H 0.8994 -0.0578 0.8533
C17 C 1.0646(2) -0.0715(3) 0.83265(10)
H15 H 1.0817 -0.1600 0.8482
C18 C 1.1479(2) -0.0051(3) 0.80724(11)
H16 H 1.2219 -0.0476 0.8050
C19 C 1.1231(2) 0.1240(3) 0.78510(11)
H17 H 1.1800 0.1699 0.7673
C20 C 1.0151(2) 0.1870(3) 0.78877(10)
H18 H 0.9997 0.2768 0.7744
C21 C 0.74223(18) 0.1690(2) 0.70403(9)
C22 C 0.80770(19) 0.2700(2) 0.68139(10)
H19 H 0.8385 0.3450 0.7043
C23 C 0.8289(2) 0.2637(3) 0.62658(10)
H20 H 0.8738 0.3336 0.6126
C24 C 0.7849(2) 0.1561(3) 0.59225(10)
H21 H 0.8011 0.1505 0.5550
C25 C 0.7174(2) 0.0568(3) 0.61233(10)
H22 H 0.6855 -0.0164 0.5887
C26 C 0.6960(2) 0.0637(2) 0.66730(10)
H23 H 0.6484 -0.0050 0.6803
C27 C 0.2846(3) 0.4207(3) 0.84897(14)
H24 H 0.3216 0.3303 0.8585
H25 H 0.2370 0.4155 0.8108
C28 C 0.2074(3) 0.4586(4) 0.89009(17)
H26 H 0.1999 0.3817 0.9159
H27 H 0.1269 0.4851 0.8708
C29 C 0.2692(4) 0.5765(5) 0.92105(18)
H28 H 0.3240 0.5460 0.9550
H29 H 0.2114 0.6425 0.9321
C30 C 0.3368(3) 0.6380(3) 0.87840(17)
H30 H 0.2847 0.6979 0.8517
H31 H 0.4061 0.6916 0.8970
K1A K 0.94540(5) -0.05774(6) 0.69684(2)
C15A C 0.57034(18) 0.6194(2) 0.68665(9)
C16A C 0.5439(2) 0.4893(3) 0.66421(9)
H14A H 0.6006 0.4422 0.6467
C17A C 0.4354(2) 0.4285(3) 0.66735(10)
H15A H 0.4183 0.3400 0.6518
C18A C 0.3521(2) 0.4949(3) 0.69276(11)
H16A H 0.2781 0.4524 0.6950
C19A C 0.3769(2) 0.6240(3) 0.71490(11)
H17A H 0.3200 0.6699 0.7327
C20A C 0.4849(2) 0.6870(3) 0.71123(10)
H18A H 0.5003 0.7768 0.7256
C21A C 0.75777(18) 0.6690(2) 0.79597(9)
C25A C 0.7826(2) 0.5568(3) 0.88767(10)
H22A H 0.8145 0.4836 0.9113
C26A C 0.8040(2) 0.5637(2) 0.83270(10)
H23A H 0.8516 0.4950 0.8197
loop_
_geom_bond_atom_site_label_1
_geom_bond_atom_site_label_2
_geom_bond_site_symmetry_1
_geom_bond_site_symmetry_2
K1 O1 1_555 1_555
O1 C27 1_555 1_555
N1 N2 1_555 1_555
N2 B2 1_555 1_555
B1 N1 1_555 1_555
B2 C1 1_555 1_555
C1 K1 1_555 1_555
C2 C1 1_555 1_555
H1 C2 1_555 1_555
H2 C2 1_555 1_555
H3 C2 1_555 1_555
C3 B1 1_555 1_555
C4 C3 1_555 1_555
H4 C4 1_555 1_555
C5 C4 1_555 1_555
H5 C5 1_555 1_555
C6 C5 1_555 1_555
H6 C6 1_555 1_555
C7 C6 1_555 1_555
H7 C7 1_555 1_555
C8 C3 1_555 1_555
H8 C8 1_555 1_555
C9 N1 1_555 1_555
C10 C9 1_555 1_555
H9 C10 1_555 1_555
C11 C10 1_555 1_555
H10 C11 1_555 1_555
C12 C11 1_555 1_555
H11 C12 1_555 1_555
C13 C12 1_555 1_555
H12 C13 1_555 1_555
C14 C9 1_555 1_555
H13 C14 1_555 1_555
C15 N2 1_555 1_555
C16 C15 1_555 1_555
H14 C16 1_555 1_555
C17 C16 1_555 1_555
H15 C17 1_555 1_555
C18 C17 1_555 1_555
H16 C18 1_555 1_555
C19 C18 1_555 1_555
H17 C19 1_555 1_555
C20 C15 1_555 1_555
H18 C20 1_555 1_555
C21 B2 1_555 1_555
C22 C21 1_555 1_555
H19 C22 1_555 1_555
C23 C22 1_555 1_555
H20 C23 1_555 1_555
C24 C23 1_555 1_555
H21 C24 1_555 1_555
C25 C24 1_555 1_555
H22 C25 1_555 1_555
C26 C21 1_555 1_555
H23 C26 1_555 1_555
C27 H24 1_555 1_555
H25 C27 1_555 1_555
C28 C27 1_555 1_555
H26 C28 1_555 1_555
H27 C28 1_555 1_555
C29 C28 1_555 1_555
H28 C29 1_555 1_555
H29 C29 1_555 1_555
C30 O1 1_555 1_555
H30 C30 1_555 1_555
H31 C30 1_555 1_555
K1A C15 1_555 1_555
C15A K1 1_555 1_555
C16A K1 1_555 1_555
H14A C16A 1_555 1_555
C17A K1 1_555 1_555
H15A C17A 1_555 1_555
C18A K1 1_555 1_555
H16A C18A 1_555 1_555
C19A K1 1_555 1_555
H17A C19A 1_555 1_555
C20A K1 1_555 1_555
H18A C20A 1_555 1_555
C21A K1 1_555 1_555
C25A K1 1_555 1_555
H22A C25A 1_555 1_555
C26A K1 1_555 1_555
H23A C26A 1_555 1_555
B1 C1 1_555 1_555
C7 C8 1_555 1_555
C13 C14 1_555 1_555
C16 K1A 1_555 1_555
C17 K1A 1_555 1_555
C18 K1A 1_555 1_555
C19 C20 1_555 1_555
C19 K1A 1_555 1_555
C20 K1A 1_555 1_555
C21 K1A 1_555 1_555
C25 C26 1_555 1_555
C25 K1A 1_555 1_555
C26 K1A 1_555 1_555
C29 C30 1_555 1_555
C15A C16A 1_555 1_555
C15A C20A 1_555 1_555
C16A C17A 1_555 1_555
C17A C18A 1_555 1_555
C18A C19A 1_555 1_555
C19A C20A 1_555 1_555
C21A C26A 1_555 1_555
C25A C26A 1_555 1_555

#END
