
#######################################################################
#
#                 Cambridge Crystallographic Data Centre
#                                CCDC 
#
#######################################################################
#
# If this CIF has been generated from an entry in the Cambridge 
# Structural Database, then it will include bibliographic, chemical, 
# crystal, experimental, refinement or atomic coordinate data resulting 
# from the CCDC's data processing and validation procedures.
#
#######################################################################

data_GOFMIZ
_symmetry_cell_setting           monoclinic
_symmetry_space_group_name_H-M   'P 21/c'
_symmetry_Int_Tables_number      14
_space_group_name_Hall           '-P 2ybc'
loop_
_symmetry_equiv_pos_site_id
_symmetry_equiv_pos_as_xyz
1 x,y,z
2 -x,1/2+y,1/2-z
3 -x,-y,-z
4 x,1/2-y,1/2+z
_cell_length_a                   7.8526(5)
_cell_length_b                   6.1296(4)
_cell_length_c                   27.6179(18)
_cell_angle_alpha                90
_cell_angle_beta                 93.3610(10)
_cell_angle_gamma                90
_cell_volume                     1327.05
loop_
_atom_site_label
_atom_site_type_symbol
_atom_site_fract_x
_atom_site_fract_y
_atom_site_fract_z
V1 V 0.37259(6) 0.64820(8) 0.16330(2)
O1 O 0.1992(2) 0.5265(3) 0.17844(8)
O2 O 0.4648(3) 0.7646(3) 0.21106(7)
O3 O 0.2809(2) 0.9126(3) 0.13568(7)
O4 O 0.5223(3) 0.3902(3) 0.16727(7)
O5 O 0.9822(3) -0.1775(4) 0.22133(8)
H1 H 1.050(4) -0.283(6) 0.2174(12)
N1 N 0.4612(3) 0.6042(4) 0.09282(9)
N2 N 0.5731(3) 0.4281(4) 0.08691(9)
C1 C 0.2452(3) 0.9934(4) 0.09118(10)
C2 C 0.1466(4) 1.1822(5) 0.08568(12)
H2 H 0.107(4) 1.248(5) 0.1109(12)
C3 C 0.1144(4) 1.2721(5) 0.04053(12)
H3 H 0.046(4) 1.398(5) 0.0387(12)
C4 C 0.1775(5) 1.1786(6) -0.00051(13)
H4 H 0.157(5) 1.234(6) -0.0262(14)
C5 C 0.2740(4) 0.9926(5) 0.00420(12)
H5 H 0.327(4) 0.933(5) -0.0213(13)
C6 C 0.3100(4) 0.8962(5) 0.04986(10)
C7 C 0.4175(4) 0.7079(5) 0.05321(11)
H6 H 0.463(4) 0.659(5) 0.0265(12)
C8 C 0.5934(3) 0.3271(4) 0.12795(10)
C9 C 0.6992(4) 0.1235(5) 0.13040(11)
H7 H 0.620(4) 0.007(5) 0.1234(11)
H8 H 0.774(4) 0.127(5) 0.1026(12)
C10 C 0.8016(4) 0.0838(5) 0.17799(11)
H9 H 0.737(3) 0.081(5) 0.2022(11)
H10 H 0.885(3) 0.199(5) 0.1827(10)
C11 C 0.8881(4) -0.1353(5) 0.17621(11)
H11 H 0.806(4) -0.257(5) 0.1697(10)
H12 H 0.970(4) -0.136(5) 0.1488(12)
K1 K 0.28153(8) 1.13856(10) 0.22518(2)
O1_2 O 0.1992(2) 1.5265(3) 0.17844(8)
O2A O 0.5352(3) 1.2646(3) 0.28894(7)
O4_2 O 0.5223(3) 1.3902(3) 0.16727(7)
O5_2 O -0.0178(3) 0.8225(4) 0.22133(8)
O5A O 0.0178(3) 1.3225(4) 0.27867(8)
K1_2 K 0.28153(8) 0.13856(10) 0.22518(2)
K1_3 K 1.28153(8) 0.13856(10) 0.22518(2)
K1A K 0.71847(8) -0.36144(10) 0.27482(2)
K1A_2 K 0.71847(8) 0.63856(10) 0.27482(2)
loop_
_geom_bond_atom_site_label_1
_geom_bond_atom_site_label_2
_geom_bond_site_symmetry_1
_geom_bond_site_symmetry_2
V1 O1 1_555 1_555
O1 K1_2 1_555 1_555
O2 V1 1_555 1_555
O3 V1 1_555 1_555
O4 V1 1_555 1_555
O5 H1 1_555 1_555
N1 V1 1_555 1_555
N2 N1 1_555 1_555
C1 O3 1_555 1_555
C2 C1 1_555 1_555
H2 C2 1_555 1_555
C3 C2 1_555 1_555
H3 C3 1_555 1_555
C4 C3 1_555 1_555
H4 C4 1_555 1_555
C5 C4 1_555 1_555
H5 C5 1_555 1_555
C6 C1 1_555 1_555
C7 N1 1_555 1_555
H6 C7 1_555 1_555
C8 O4 1_555 1_555
C9 C8 1_555 1_555
H7 C9 1_555 1_555
H8 C9 1_555 1_555
C10 C9 1_555 1_555
H9 C10 1_555 1_555
H10 C10 1_555 1_555
C11 O5 1_555 1_555
H11 C11 1_555 1_555
H12 C11 1_555 1_555
K1 O2 1_555 1_555
O1_2 K1 1_555 1_555
O2A K1 1_555 1_555
O4_2 K1 1_555 1_555
O5_2 K1 1_555 1_555
O5A K1 1_555 1_555
K1_2 O4 1_555 1_555
K1_3 O5 1_555 1_555
K1A O5 1_555 1_555
K1A_2 O2 1_555 1_555
O3 K1 1_555 1_555
N2 C8 1_555 1_555
C5 C6 1_555 1_555
C6 C7 1_555 1_555
C10 C11 1_555 1_555

#END
