
#######################################################################
#
#                 Cambridge Crystallographic Data Centre
#                                CCDC 
#
#######################################################################
#
# If this CIF has been generated from an entry in the Cambridge 
# Structural Database, then it will include bibliographic, chemical, 
# crystal, experimental, refinement or atomic coordinate data resulting 
# from the CCDC's data processing and validation procedures.
#
#######################################################################

data_GOFNEV
_symmetry_cell_setting           orthorhombic
_symmetry_space_group_name_H-M   'F d d 2'
_symmetry_Int_Tables_number      43
_space_group_name_Hall           'F 2 -2d'
loop_
_symmetry_equiv_pos_site_id
_symmetry_equiv_pos_as_xyz
1 x,y,z
2 -x,-y,z
3 1/4+x,1/4-y,1/4+z
4 1/4-x,1/4+y,1/4+z
5 x,1/2+y,1/2+z
6 -x,1/2-y,1/2+z
7 1/4+x,3/4-y,3/4+z
8 1/4-x,3/4+y,3/4+z
9 1/2+x,y,1/2+z
10 1/2-x,-y,1/2+z
11 3/4+x,1/4-y,3/4+z
12 3/4-x,1/4+y,3/4+z
13 1/2+x,1/2+y,z
14 1/2-x,1/2-y,z
15 3/4+x,3/4-y,1/4+z
16 3/4-x,3/4+y,1/4+z
_cell_length_a                   16.024(5)
_cell_length_b                   18.856(6)
_cell_length_c                   7.319(2)
_cell_angle_alpha                90
_cell_angle_beta                 90
_cell_angle_gamma                90
_cell_volume                     2211.43
loop_
_atom_site_label
_atom_site_type_symbol
_atom_site_fract_x
_atom_site_fract_y
_atom_site_fract_z
Cd1 Cd 0.0000 0.5000 0.32993(9)
C1 C 0.14246(17) 0.33297(15) 0.6401(4)
H1 H 0.1539 0.2860 0.6693
C2 C 0.15322(15) 0.44629(13) 0.6112(4)
H2 H 0.1740 0.4923 0.6152
C3 C 0.38403(15) 0.35655(14) 0.8819(3)
H3 H 0.4260 0.3299 0.9368
C4 C 0.27278(16) 0.38840(14) 0.7630(3)
N1 N 0.07540(14) 0.35453(12) 0.5532(4)
N2 N 0.08219(13) 0.42798(11) 0.5375(3)
N3 N 0.19255(13) 0.38811(11) 0.6815(3)
N4 N 0.31829(13) 0.44566(11) 0.7589(3)
N5 N 0.39247(12) 0.42404(10) 0.8384(3)
N6 N 0.30785(11) 0.32989(10) 0.8382(4)
Cd1H Cd 0.5000 0.5000 0.82993(9)
Cd1F Cd 0.2500 0.2500 1.07993(9)
Cd1H_2 Cd -0.5000 0.5000 0.82993(9)
Cd1J Cd -0.2500 0.7500 1.07993(9)
C1A C -0.14246(17) 0.66703(15) 0.6401(4)
H1A H -0.1539 0.7140 0.6693
C2A C -0.15322(15) 0.55371(13) 0.6112(4)
H2A H -0.1740 0.5077 0.6152
C3A C -0.38403(15) 0.64345(14) 0.8819(3)
H3A H -0.4260 0.6701 0.9368
C4A C -0.27278(16) 0.61160(14) 0.7630(3)
N1A N -0.07540(14) 0.64547(12) 0.5532(4)
N2A N -0.08219(13) 0.57202(11) 0.5375(3)
N3A N -0.19255(13) 0.61189(11) 0.6815(3)
N4A N -0.31829(13) 0.55434(11) 0.7589(3)
N5A N -0.39247(12) 0.57596(10) 0.8384(3)
N5H N -0.10753(12) 0.42404(10) 0.3384(3)
N5I N 0.10753(12) 0.57596(10) 0.3384(3)
N6A N -0.30785(11) 0.67011(10) 0.8382(4)
N6C N -0.05785(11) 0.57989(10) 0.0882(4)
N6N N 0.05785(11) 0.42011(10) 0.0882(4)
loop_
_geom_bond_atom_site_label_1
_geom_bond_atom_site_label_2
_geom_bond_site_symmetry_1
_geom_bond_site_symmetry_2
Cd1 N2 1_555 1_555
C1 H1 1_555 1_555
C2 H2 1_555 1_555
C3 H3 1_555 1_555
C4 N3 1_555 1_555
N1 C1 1_555 1_555
N2 C2 1_555 1_555
N3 C1 1_555 1_555
N4 C4 1_555 1_555
N5 C3 1_555 1_555
N6 C3 1_555 1_555
Cd1H N5 1_555 1_555
Cd1F N6 1_555 1_555
Cd1H_2 N5A 1_555 1_555
Cd1J N6A 1_555 1_555
C1A H1A 1_555 1_555
C2A H2A 1_555 1_555
C3A H3A 1_555 1_555
C4A N3A 1_555 1_555
N1A C1A 1_555 1_555
N2A Cd1 1_555 1_555
N3A C1A 1_555 1_555
N4A C4A 1_555 1_555
N5A C3A 1_555 1_555
N5H Cd1 1_555 1_555
N5I Cd1 1_555 1_555
N6A C3A 1_555 1_555
N6C Cd1 1_555 1_555
N6N Cd1 1_555 1_555
C2 N3 1_555 1_555
C4 N6 1_555 1_555
N1 N2 1_555 1_555
N4 N5 1_555 1_555
C2A N2A 1_555 1_555
C2A N3A 1_555 1_555
C4A N6A 1_555 1_555
N1A N2A 1_555 1_555
N4A N5A 1_555 1_555

#END
