
#######################################################################
#
#                 Cambridge Crystallographic Data Centre
#                                CCDC 
#
#######################################################################
#
# If this CIF has been generated from an entry in the Cambridge 
# Structural Database, then it will include bibliographic, chemical, 
# crystal, experimental, refinement or atomic coordinate data resulting 
# from the CCDC's data processing and validation procedures.
#
#######################################################################

data_GOGCUB
_symmetry_cell_setting           monoclinic
_symmetry_space_group_name_H-M   'C 2/c'
_symmetry_Int_Tables_number      15
_space_group_name_Hall           '-C 2yn'
loop_
_symmetry_equiv_pos_site_id
_symmetry_equiv_pos_as_xyz
1 x,y,z
2 1/2+x,1/2+y,z
3 -x,y,1/2-z
4 1/2-x,1/2+y,1/2-z
5 -x,-y,-z
6 1/2-x,1/2-y,-z
7 x,-y,1/2+z
8 1/2+x,1/2-y,1/2+z
_cell_length_a                   20.365(4)
_cell_length_b                   9.3135(19)
_cell_length_c                   7.2313(14)
_cell_angle_alpha                90
_cell_angle_beta                 107.53(3)
_cell_angle_gamma                90
_cell_volume                     1307.86
loop_
_atom_site_label
_atom_site_type_symbol
_atom_site_fract_x
_atom_site_fract_y
_atom_site_fract_z
Cd1 Cd 0.0000 0.58047(2) 0.7500
Cl1 Cl 0.07886(4) 0.41364(6) 0.99832(11)
N1 N 0.06292(10) 0.7876(2) 0.8828(3)
C1 C 0.12723(13) 0.7815(3) 1.0067(4)
H1 H 0.1458 0.6918 1.0488
C2 C 0.16716(14) 0.9023(3) 1.0746(5)
C3 C 0.23917(17) 0.8878(5) 1.2093(6)
H2 H 0.2665 0.8339 1.1466
H3 H 0.2381 0.8389 1.3251
H4 H 0.2589 0.9815 1.2422
C4 C 0.13695(15) 1.0347(3) 1.0145(4)
H5 H 0.1612 1.1187 1.0594
C5 C 0.07094(15) 1.0418(3) 0.8883(4)
H6 H 0.0504 1.1303 0.8486
C6 C 0.03548(12) 0.9157(2) 0.8213(4)
Cd1F Cd 0.0000 0.41953(2) 1.2500
Cd1F_2 Cd 0.0000 0.41953(2) 0.2500
Cl1F Cl 0.07886(4) 0.58636(6) 0.49832(11)
Cl1D Cl -0.07886(4) 0.58636(6) 1.00168(11)
Cl1B Cl -0.07886(4) 0.41364(6) 0.50168(11)
N1B N -0.06292(10) 0.7876(2) 0.6172(3)
C1B C -0.12723(13) 0.7815(3) 0.4933(4)
H1B H -0.1458 0.6918 0.4512
C2B C -0.16716(14) 0.9023(3) 0.4254(5)
C3B C -0.23917(17) 0.8878(5) 0.2907(6)
H2B H -0.2665 0.8339 0.3534
H3B H -0.2381 0.8389 0.1749
H4B H -0.2589 0.9815 0.2578
C4B C -0.13695(15) 1.0347(3) 0.4855(4)
H5B H -0.1612 1.1187 0.4406
C5B C -0.07094(15) 1.0418(3) 0.6117(4)
H6B H -0.0504 1.1303 0.6514
C6B C -0.03548(12) 0.9157(2) 0.6787(4)
loop_
_geom_bond_atom_site_label_1
_geom_bond_atom_site_label_2
_geom_bond_site_symmetry_1
_geom_bond_site_symmetry_2
Cd1 Cl1 1_555 1_555
Cl1 Cd1F 1_555 1_555
N1 Cd1 1_555 1_555
C1 N1 1_555 1_555
H1 C1 1_555 1_555
C2 C1 1_555 1_555
C3 C2 1_555 1_555
H2 C3 1_555 1_555
H3 C3 1_555 1_555
H4 C3 1_555 1_555
C4 C2 1_555 1_555
H5 C4 1_555 1_555
C5 C4 1_555 1_555
H6 C5 1_555 1_555
C6 N1 1_555 1_555
Cd1F Cl1D 1_555 1_555
Cd1F_2 Cl1F 1_555 1_555
Cl1F Cd1 1_555 1_555
Cl1D Cd1 1_555 1_555
Cl1B Cd1 1_555 1_555
N1B Cd1 1_555 1_555
C1B N1B 1_555 1_555
H1B C1B 1_555 1_555
C2B C1B 1_555 1_555
C3B C2B 1_555 1_555
H2B C3B 1_555 1_555
H3B C3B 1_555 1_555
H4B C3B 1_555 1_555
C4B C2B 1_555 1_555
H5B C4B 1_555 1_555
C5B C4B 1_555 1_555
H6B C5B 1_555 1_555
C6B C6 1_555 1_555
C5 C6 1_555 1_555
Cd1F_2 Cl1B 1_555 1_555
N1B C6B 1_555 1_555
C5B C6B 1_555 1_555

#END
