
#######################################################################
#
#                 Cambridge Crystallographic Data Centre
#                                CCDC 
#
#######################################################################
#
# If this CIF has been generated from an entry in the Cambridge 
# Structural Database, then it will include bibliographic, chemical, 
# crystal, experimental, refinement or atomic coordinate data resulting 
# from the CCDC's data processing and validation procedures.
#
#######################################################################

data_GOGCAH
_symmetry_cell_setting           monoclinic
_symmetry_space_group_name_H-M   'C c'
_symmetry_Int_Tables_number      9
_space_group_name_Hall           'C -2yc'
loop_
_symmetry_equiv_pos_site_id
_symmetry_equiv_pos_as_xyz
1 x,y,z
2 x,-y,1/2+z
3 1/2+x,1/2+y,z
4 1/2+x,1/2-y,1/2+z
_cell_length_a                   8.513(3)
_cell_length_b                   17.983(3)
_cell_length_c                   7.493(3)
_cell_angle_alpha                90
_cell_angle_beta                 114.486(10)
_cell_angle_gamma                90
_cell_volume                     1043.93
loop_
_atom_site_label
_atom_site_type_symbol
_atom_site_fract_x
_atom_site_fract_y
_atom_site_fract_z
Cu1 Cu 0.00453(5) 0.118674(19) 0.25189(5)
C1 C 0.3107(6) 0.3875(2) 0.2827(8)
C2 C 0.0162(7) 0.2776(2) 0.2417(8)
C3 C 0.1909(5) 0.2542(2) 0.2398(6)
C4 C 0.3188(5) 0.3044(2) 0.2468(6)
C5 C 0.4612(5) 0.2816(2) 0.2256(6)
H1 H 0.5443 0.3154 0.2266
C6 C 0.4781(6) 0.2094(3) 0.2034(7)
H2 H 0.5747 0.1922 0.1878
C7 C 0.3554(7) 0.1592(3) 0.2028(8)
H3 H 0.3719 0.1088 0.1890
N1 N 0.2118(5) 0.18178(19) 0.2218(6)
O1 O 0.3600(5) 0.4089(2) 0.4530(5)
O2 O 0.2608(5) 0.42843(19) 0.1333(5)
O3 O -0.0834(4) 0.22671(17) 0.2399(6)
O4 O -0.0130(6) 0.34452(16) 0.2387(9)
O5 O 0.1420(5) 0.12328(17) 0.5699(7)
O6 O 0.1266(5) 0.01799(18) 0.2664(7)
O7 O -0.2021(4) 0.07356(18) 0.2898(5)
H4 H 0.105(10) 0.080(2) 0.551(16)
H5 H 0.092(12) -0.008(5) 0.167(10)
H6 H 0.229(5) 0.011(5) 0.340(12)
H7 H -0.214(15) 0.067(5) 0.393(9)
H8 H -0.195(16) 0.034(3) 0.238(13)
H9 H 0.248(3) 0.126(4) 0.620(19)
Cu1C Cu 0.50453(5) 0.381326(19) 0.75189(5)
O1C O -0.1400(5) 0.0911(2) -0.0470(5)
O8 O 0.4601(7) -0.0181(3) 0.4257(10)
H10 H 0.553(6) -0.004(6) 0.515(11)
H11 H 0.377(7) -0.006(6) 0.451(14)
loop_
_geom_bond_atom_site_label_1
_geom_bond_atom_site_label_2
_geom_bond_site_symmetry_1
_geom_bond_site_symmetry_2
Cu1 N1 1_555 1_555
C1 C4 1_555 1_555
C2 C3 1_555 1_555
C3 C4 1_555 1_555
C4 C5 1_555 1_555
C5 H1 1_555 1_555
C6 C5 1_555 1_555
H2 C6 1_555 1_555
C7 C6 1_555 1_555
H3 C7 1_555 1_555
N1 C3 1_555 1_555
O1 C1 1_555 1_555
O2 C1 1_555 1_555
O3 Cu1 1_555 1_555
O4 C2 1_555 1_555
O5 Cu1 1_555 1_555
O6 Cu1 1_555 1_555
O7 Cu1 1_555 1_555
H4 O5 1_555 1_555
H5 O6 1_555 1_555
H6 O6 1_555 1_555
H7 O7 1_555 1_555
H8 O7 1_555 1_555
H9 O5 1_555 1_555
O8 H10 1_555 1_555
H11 O8 1_555 1_555
Cu1C O1 1_555 1_555
O1C Cu1 1_555 1_555
C2 O3 1_555 1_555
C7 N1 1_555 1_555

#END
