
#######################################################################
#
#                 Cambridge Crystallographic Data Centre
#                                CCDC 
#
#######################################################################
#
# If this CIF has been generated from an entry in the Cambridge 
# Structural Database, then it will include bibliographic, chemical, 
# crystal, experimental, refinement or atomic coordinate data resulting 
# from the CCDC's data processing and validation procedures.
#
#######################################################################

data_GOGGIT01
_symmetry_cell_setting           orthorhombic
_symmetry_space_group_name_H-M   'P b c a'
_symmetry_Int_Tables_number      61
_space_group_name_Hall           '-P 2ac 2ab'
loop_
_symmetry_equiv_pos_site_id
_symmetry_equiv_pos_as_xyz
1 x,y,z
2 1/2-x,-y,1/2+z
3 -x,1/2+y,1/2-z
4 1/2+x,1/2-y,-z
5 -x,-y,-z
6 1/2+x,y,1/2-z
7 x,1/2-y,1/2+z
8 1/2-x,1/2+y,z
_cell_length_a                   9.6820(19)
_cell_length_b                   13.224(3)
_cell_length_c                   26.983(5)
_cell_angle_alpha                90
_cell_angle_beta                 90
_cell_angle_gamma                90
_cell_volume                     3454.76
loop_
_atom_site_label
_atom_site_type_symbol
_atom_site_fract_x
_atom_site_fract_y
_atom_site_fract_z
Zn1 Zn 0.18405(6) 0.12667(5) 0.12048(3)
N1 N 0.1883(6) 0.3348(5) 0.2326(2)
N2 N 0.1689(5) 0.2071(4) 0.1829(2)
N3 N 0.2381(6) 0.3608(4) 0.0199(2)
N4 N 0.1948(5) 0.2244(4) 0.06251(18)
O1 O 0.3326(4) 0.0294(4) 0.11870(16)
O2 O 0.4748(4) 0.1603(3) 0.12273(18)
O3 O 1.0442(4) -0.0567(4) 0.1520(2)
O4 O 0.9959(4) 0.0763(3) 0.10656(16)
C1 C 0.2355(10) 0.4326(6) 0.2511(3)
H1 H 0.3017 0.4605 0.2284
H2 H 0.2777 0.4239 0.2830
H3 H 0.1581 0.4776 0.2539
C2 C 0.0944(8) 0.2711(7) 0.2534(3)
H4 H 0.0483 0.2798 0.2833
C3 C 0.0821(8) 0.1945(7) 0.2223(3)
H5 H 0.0229 0.1399 0.2267
C4 C 0.2306(8) 0.2910(6) 0.1911(2)
H6 H 0.2976 0.3181 0.1703
C5 C 0.2982(8) 0.4589(5) 0.0065(3)
H7 H 0.3727 0.4745 0.0288
H8 H 0.2287 0.5104 0.0089
H9 H 0.3326 0.4560 -0.0268
C6 C 0.2723(6) 0.3054(5) 0.0588(2)
H10 H 0.3427 0.3218 0.0809
C7 C 0.1029(8) 0.2310(5) 0.0239(3)
H11 H 0.0326 0.1849 0.0175
C8 C 0.1294(8) 0.3137(5) -0.0030(3)
H12 H 0.0835 0.3349 -0.0315
C9 C 0.9641(6) -0.0064(5) 0.1281(2)
C10 C 0.8172(5) -0.0403(5) 0.1219(2)
C11 C 0.7891(7) -0.1438(5) 0.1187(2)
H13 H 0.8608 -0.1907 0.1190
C12 C 0.6544(7) -0.1755(5) 0.1151(3)
H14 H 0.6356 -0.2443 0.1126
C13 C 0.5473(7) -0.1080(5) 0.1151(3)
H15 H 0.4572 -0.1318 0.1121
C14 C 0.5702(5) -0.0054(4) 0.1195(2)
C15 C 0.7082(5) 0.0286(4) 0.1222(2)
H16 H 0.7265 0.0975 0.1242
C16 C 0.4545(6) 0.0702(5) 0.1210(2)
Zn1_2 Zn 1.18405(6) 0.12667(5) 0.12048(3)
O4_2 O -0.0041(4) 0.0763(3) 0.10656(16)
loop_
_geom_bond_atom_site_label_1
_geom_bond_atom_site_label_2
_geom_bond_site_symmetry_1
_geom_bond_site_symmetry_2
Zn1 N2 1_555 1_555
N1 C1 1_555 1_555
N2 C3 1_555 1_555
N3 C5 1_555 1_555
N4 Zn1 1_555 1_555
O1 Zn1 1_555 1_555
O2 C16 1_555 1_555
O3 C9 1_555 1_555
O4 C9 1_555 1_555
C1 H1 1_555 1_555
H2 C1 1_555 1_555
H3 C1 1_555 1_555
C2 N1 1_555 1_555
H4 C2 1_555 1_555
C3 C2 1_555 1_555
H5 C3 1_555 1_555
C4 N1 1_555 1_555
H6 C4 1_555 1_555
C5 H7 1_555 1_555
H8 C5 1_555 1_555
H9 C5 1_555 1_555
C6 N3 1_555 1_555
H10 C6 1_555 1_555
C7 N4 1_555 1_555
H11 C7 1_555 1_555
C8 N3 1_555 1_555
H12 C8 1_555 1_555
C9 C10 1_555 1_555
C10 C11 1_555 1_555
C11 H13 1_555 1_555
C12 C11 1_555 1_555
H14 C12 1_555 1_555
C13 C12 1_555 1_555
H15 C13 1_555 1_555
C14 C13 1_555 1_555
C15 C10 1_555 1_555
H16 C15 1_555 1_555
C16 O1 1_555 1_555
Zn1_2 O4 1_555 1_555
O4_2 Zn1 1_555 1_555
N2 C4 1_555 1_555
N4 C6 1_555 1_555
C7 C8 1_555 1_555
C14 C15 1_555 1_555
C14 C16 1_555 1_555

#END
