
#######################################################################
#
#                 Cambridge Crystallographic Data Centre
#                                CCDC 
#
#######################################################################
#
# If this CIF has been generated from an entry in the Cambridge 
# Structural Database, then it will include bibliographic, chemical, 
# crystal, experimental, refinement or atomic coordinate data resulting 
# from the CCDC's data processing and validation procedures.
#
#######################################################################

data_GOGHIU
_symmetry_cell_setting           triclinic
_symmetry_space_group_name_H-M   'P -1'
_symmetry_Int_Tables_number      2
_space_group_name_Hall           '-P 1'
loop_
_symmetry_equiv_pos_site_id
_symmetry_equiv_pos_as_xyz
1 x,y,z
2 -x,-y,-z
_cell_length_a                   7.4905(11)
_cell_length_b                   7.5526(10)
_cell_length_c                   10.2522(15)
_cell_angle_alpha                93.043(11)
_cell_angle_beta                 100.787(12)
_cell_angle_gamma                116.377(14)
_cell_volume                     504.277
loop_
_atom_site_label
_atom_site_type_symbol
_atom_site_fract_x
_atom_site_fract_y
_atom_site_fract_z
Pb1 Pb 0.205617(17) 0.362095(17) 0.046792(11)
O1 O 0.4490(4) 0.6463(4) -0.0457(2)
O2 O 0.1324(4) 0.6005(4) -0.0858(3)
O3 O 0.1663(4) 0.2264(4) -0.1751(2)
O4 O -0.1191(4) 0.0447(4) -0.1145(3)
C1 C 0.3154(5) 0.6990(5) -0.0954(3)
C2 C 0.3723(6) 0.8784(6) -0.1662(4)
H1 H 0.5180 0.9365 -0.1668
H2 H 0.3466 0.9780 -0.1192
H3 H 0.2896 0.8380 -0.2589
C3 C -0.0132(5) 0.0788(6) -0.1992(4)
C4 C -0.0903(6) -0.0587(6) -0.3316(4)
H4 H -0.0509 -0.1658 -0.3216
H5 H -0.0301 0.0174 -0.4002
H6 H -0.2400 -0.1172 -0.3588
C5 C 0.5070(5) 0.5941(5) 0.3871(3)
O5 O 0.5039(4) 0.6836(4) 0.2743(3)
H7 H 0.6216 0.7356 0.2591
C6 C 0.3672(5) 0.5861(6) 0.4637(4)
C7 C 0.6353(5) 0.5091(5) 0.4234(3)
H8 H 0.7280 0.5159 0.3697
C8 C 0.2300(6) 0.6797(7) 0.4230(4)
H9 H 0.1526 0.6732 0.4914
H10 H 0.1344 0.6074 0.3366
H11 H 0.3133 0.8199 0.4145
Pb1A Pb 0.794383(17) 0.637905(17) -0.046792(11)
Pb1A_2 Pb -0.205617(17) 0.637905(17) -0.046792(11)
Pb1A_3 Pb -0.205617(17) -0.362095(17) -0.046792(11)
Pb1A_4 Pb 0.794383(17) 0.637905(17) 0.953208(11)
Pb1_2 Pb 1.205617(17) 0.362095(17) 0.046792(11)
O1A O 0.5510(4) 0.3537(4) 0.0457(2)
O2A O 0.8676(4) 0.3995(4) 0.0858(3)
O2A_2 O -0.1324(4) 0.3995(4) 0.0858(3)
O2_2 O 1.1324(4) 0.6005(4) -0.0858(3)
O3A O -0.1663(4) -0.2264(4) 0.1751(2)
O3A_2 O 0.8337(4) 0.7736(4) 0.1751(2)
O4A O 0.1191(4) -0.0447(4) 0.1145(3)
O4_2 O 0.8809(4) 1.0447(4) -0.1145(3)
O4A_2 O 1.1191(4) 0.9553(4) 0.1145(3)
C1A C 0.6846(5) 0.3010(5) 0.0954(3)
C2A C 0.6277(6) 0.1216(6) 0.1662(4)
H1A H 0.4820 0.0635 0.1668
H2A H 0.6534 0.0220 0.1192
H3A H 0.7104 0.1620 0.2589
C3A C 0.0132(5) -0.0788(6) 0.1992(4)
C4A C 0.0903(6) 0.0587(6) 0.3316(4)
H4A H 0.0509 0.1658 0.3216
H5A H 0.0301 -0.0174 0.4002
H6A H 0.2400 0.1172 0.3588
C5A C 0.4930(5) 0.4059(5) 0.6129(3)
O5A O 0.4961(4) 0.3164(4) 0.7257(3)
O5A_2 O 0.4961(4) 0.3164(4) -0.2743(3)
H7A H 0.3784 0.2644 0.7409
H7A_2 H 0.3784 0.2644 -0.2591
C6A C 0.6328(5) 0.4139(6) 0.5363(4)
C7A C 0.3647(5) 0.4909(5) 0.5766(3)
H8A H 0.2720 0.4841 0.6303
C8A C 0.7700(6) 0.3203(7) 0.5770(4)
H9A H 0.8474 0.3268 0.5086
H10A H 0.8656 0.3926 0.6634
H11A H 0.6867 0.1801 0.5855
loop_
_geom_bond_atom_site_label_1
_geom_bond_atom_site_label_2
_geom_bond_site_symmetry_1
_geom_bond_site_symmetry_2
Pb1 O1 1_555 1_555
O1 C1 1_555 1_555
O2 Pb1 1_555 1_555
O3 Pb1 1_555 1_555
O4 Pb1 1_555 1_555
C1 O2 1_555 1_555
C2 C1 1_555 1_555
H1 C2 1_555 1_555
H2 C2 1_555 1_555
H3 C2 1_555 1_555
C3 O3 1_555 1_555
C4 C3 1_555 1_555
H4 C4 1_555 1_555
H5 C4 1_555 1_555
H6 C4 1_555 1_555
C5 O5 1_555 1_555
O5 Pb1 1_555 1_555
H7 O5 1_555 1_555
C6 C5 1_555 1_555
C7 C5 1_555 1_555
H8 C7 1_555 1_555
C8 C6 1_555 1_555
H9 C8 1_555 1_555
H10 C8 1_555 1_555
H11 C8 1_555 1_555
Pb1A O1 1_555 1_555
Pb1A_2 O2 1_555 1_555
Pb1A_3 O4 1_555 1_555
Pb1A_4 O5A 1_555 1_555
Pb1_2 O2A 1_555 1_555
O1A Pb1 1_555 1_555
O2A Pb1A 1_555 1_555
O2A_2 Pb1 1_555 1_555
O2_2 Pb1A 1_555 1_555
O3A Pb1A_3 1_555 1_555
O3A_2 Pb1A 1_555 1_555
O4A Pb1 1_555 1_555
O4_2 Pb1A 1_555 1_555
O4A_2 Pb1A 1_555 1_555
C1A O1A 1_555 1_555
C2A C1A 1_555 1_555
H1A C2A 1_555 1_555
H2A C2A 1_555 1_555
H3A C2A 1_555 1_555
C3A O3A 1_555 1_555
C4A C3A 1_555 1_555
H4A C4A 1_555 1_555
H5A C4A 1_555 1_555
H6A C4A 1_555 1_555
C5A O5A 1_555 1_555
O5A H7A 1_555 1_555
O5A_2 Pb1A 1_555 1_555
H7A_2 O5A_2 1_555 1_555
C6A C7 1_555 1_555
C7A C6 1_555 1_555
H8A C7A 1_555 1_555
C8A C6A 1_555 1_555
H9A C8A 1_555 1_555
H10A C8A 1_555 1_555
H11A C8A 1_555 1_555
O4 C3 1_555 1_555
Pb1A O1A 1_555 1_555
Pb1A_2 O2A_2 1_555 1_555
Pb1A_3 O4A 1_555 1_555
Pb1_2 O2_2 1_555 1_555
O2A C1A 1_555 1_555
O4A C3A 1_555 1_555
C5A C6A 1_555 1_555
C5A C7A 1_555 1_555

#END
