
#######################################################################
#
#                 Cambridge Crystallographic Data Centre
#                                CCDC 
#
#######################################################################
#
# If this CIF has been generated from an entry in the Cambridge 
# Structural Database, then it will include bibliographic, chemical, 
# crystal, experimental, refinement or atomic coordinate data resulting 
# from the CCDC's data processing and validation procedures.
#
#######################################################################

data_GOGHAM
_symmetry_cell_setting           monoclinic
_symmetry_space_group_name_H-M   'P 21'
_symmetry_Int_Tables_number      4
_space_group_name_Hall           'P 2yb'
loop_
_symmetry_equiv_pos_site_id
_symmetry_equiv_pos_as_xyz
1 x,y,z
2 -x,1/2+y,-z
_cell_length_a                   9.676(4)
_cell_length_b                   7.651(4)
_cell_length_c                   11.715(5)
_cell_angle_alpha                90
_cell_angle_beta                 106.256(15)
_cell_angle_gamma                90
_cell_volume                     832.601
loop_
_atom_site_label
_atom_site_type_symbol
_atom_site_fract_x
_atom_site_fract_y
_atom_site_fract_z
C1 C 0.7743(2) -0.1178(3) 0.23967(18)
C2 C 0.66925(19) -0.0224(3) 0.15494(15)
C3 C 0.6855(2) 0.0055(4) 0.03564(15)
C4 C 0.5858(3) 0.0965(3) -0.0557(2)
H1 H 0.5020 0.1392 -0.0416
C5 C 0.6085(3) 0.1243(4) -0.1655(2)
H2 H 0.5400 0.1837 -0.2243
C6 C 0.7336(3) 0.0636(3) -0.1883(2)
H3 H 0.7504 0.0859 -0.2613
C7 C 0.8305(3) -0.0276(4) -0.10433(19)
H4 H 0.9131 -0.0694 -0.1209
C8 C 0.8094(2) -0.0613(3) 0.00897(19)
C9 C 0.9098(2) -0.1605(4) 0.0950(2)
H5 H 0.9890 -0.2075 0.0756
C10 C 0.8947(2) -0.1897(3) 0.2055(2)
H6 H 0.9628 -0.2568 0.2595
C11 C 0.5465(2) 0.0524(3) 0.18248(18)
H7 H 0.4778 0.1043 0.1198
C12 C 0.3897(2) 0.1430(3) 0.29272(17)
H8 H 0.3676 0.2387 0.2349
C13 C 0.2635(2) 0.0163(5) 0.2663(3)
H9 H 0.2422 -0.0219 0.1851
H10 H 0.1808 0.0738 0.2788
H11 H 0.2879 -0.0829 0.3182
C14 C 0.4141(2) 0.2180(3) 0.41799(18)
C15 C 0.7228(3) 0.4372(3) 0.3802(3)
H12 H 0.6852 0.3618 0.3132
H13 H 0.7508 0.5467 0.3534
H14 H 0.6501 0.4571 0.4202
C16 C 0.9720(3) 0.2924(4) 0.3760(3)
H15 H 1.0605 0.2349 0.4161
H16 H 0.9930 0.3998 0.3418
H17 H 0.9161 0.2180 0.3143
N1 N 0.52124(17) 0.0554(2) 0.28544(14)
O1 O 0.77231(16) -0.1464(2) 0.34856(12)
O2 O 0.51906(16) 0.1680(2) 0.49919(13)
O3 O 0.32074(15) 0.3268(2) 0.42825(13)
O4 O 0.82733(16) 0.1620(2) 0.51567(15)
S1 S 0.87374(6) 0.33792(8) 0.47907(5)
Zn1 Zn 0.66361(2) -0.00892(3) 0.440772(16)
O3A O 0.67926(15) -0.1732(2) 0.57175(13)
Zn1A Zn 0.33639(2) 0.49108(3) 0.559228(16)
loop_
_geom_bond_atom_site_label_1
_geom_bond_atom_site_label_2
_geom_bond_site_symmetry_1
_geom_bond_site_symmetry_2
C1 C2 1_555 1_555
C2 C3 1_555 1_555
C3 C4 1_555 1_555
C4 H1 1_555 1_555
C5 C4 1_555 1_555
H2 C5 1_555 1_555
C6 C5 1_555 1_555
H3 C6 1_555 1_555
C7 C6 1_555 1_555
H4 C7 1_555 1_555
C8 C3 1_555 1_555
C9 C8 1_555 1_555
H5 C9 1_555 1_555
C10 C1 1_555 1_555
H6 C10 1_555 1_555
C11 C2 1_555 1_555
H7 C11 1_555 1_555
C12 H8 1_555 1_555
C13 C12 1_555 1_555
H9 C13 1_555 1_555
H10 C13 1_555 1_555
H11 C13 1_555 1_555
C14 C12 1_555 1_555
C15 H12 1_555 1_555
H13 C15 1_555 1_555
H14 C15 1_555 1_555
C16 H15 1_555 1_555
H16 C16 1_555 1_555
H17 C16 1_555 1_555
N1 C11 1_555 1_555
O1 C1 1_555 1_555
O2 C14 1_555 1_555
O3 C14 1_555 1_555
O4 S1 1_555 1_555
S1 C15 1_555 1_555
Zn1 N1 1_555 1_555
O3A Zn1 1_555 1_555
Zn1A O3 1_555 1_555
C7 C8 1_555 1_555
C9 C10 1_555 1_555
C12 N1 1_555 1_555
C16 S1 1_555 1_555
O1 Zn1 1_555 1_555
O2 Zn1 1_555 1_555
O4 Zn1 1_555 1_555

#END
