
#######################################################################
#
#                 Cambridge Crystallographic Data Centre
#                                CCDC 
#
#######################################################################
#
# If this CIF has been generated from an entry in the Cambridge 
# Structural Database, then it will include bibliographic, chemical, 
# crystal, experimental, refinement or atomic coordinate data resulting 
# from the CCDC's data processing and validation procedures.
#
#######################################################################

data_GOGJES
_symmetry_cell_setting           triclinic
_symmetry_space_group_name_H-M   'P -1'
_symmetry_Int_Tables_number      2
_space_group_name_Hall           '-P 1'
loop_
_symmetry_equiv_pos_site_id
_symmetry_equiv_pos_as_xyz
1 x,y,z
2 -x,-y,-z
_cell_length_a                   9.4499(6)
_cell_length_b                   10.8633(7)
_cell_length_c                   11.2086(9)
_cell_angle_alpha                87.910(3)
_cell_angle_beta                 74.239(2)
_cell_angle_gamma                80.478(2)
_cell_volume                     1092.08
loop_
_atom_site_label
_atom_site_type_symbol
_atom_site_fract_x
_atom_site_fract_y
_atom_site_fract_z
Cd1 Cd 0.52233(4) 0.41267(3) 0.34288(3)
Cd2 Cd 0.64542(4) 0.07117(3) 0.36831(3)
O1 O 0.7671(4) 0.7051(4) 0.4236(3)
O2 O 0.6031(4) 0.5739(3) 0.4480(3)
O3 O 0.9775(4) 0.7024(3) -0.0481(3)
H1 H 0.9961 0.7687 -0.0219
O4 O 0.6494(4) 0.3865(3) -0.0651(3)
O5 O 0.5617(4) 0.3419(3) 0.1337(3)
O6 O 0.3269(5) 0.5374(4) 0.2974(4)
H2 H 0.3554 0.5447 0.2191
H3 H 0.2343 0.5340 0.3225
O7 O 0.4213(4) 0.2185(3) 0.3620(3)
H4 H 0.3838 0.2156 0.3015
H5 H 0.3509 0.2240 0.4284
O8 O 0.6944(4) 0.2700(3) 0.4137(3)
H6 H 0.6943 0.2618 0.4894
H7 H 0.7838 0.2795 0.3789
O9 O 0.8938(4) 0.1332(3) -0.0142(3)
O10 O 0.8252(4) 0.1290(4) 0.1920(3)
O11 O 0.6211(4) -0.1986(3) -0.1198(3)
H8 H 0.5712 -0.2583 -0.1067
O12 O 0.3580(4) -0.2089(3) 0.3456(3)
O13 O 0.4717(4) -0.0785(3) 0.4216(3)
O14 O 0.8487(4) -0.0278(4) 0.4192(4)
H9 H 0.9137 -0.0794 0.3697
H10 H 0.8540 -0.0580 0.4892
N1 N 0.6853(5) 0.5189(4) 0.2066(4)
N2 N 0.6319(4) -0.0249(4) 0.1969(4)
C1 C 0.7505(5) 0.6044(5) 0.2457(4)
C2 C 0.8515(5) 0.6687(4) 0.1641(4)
H11 H 0.8979 0.7272 0.1945
C3 C 0.8838(5) 0.6462(5) 0.0370(4)
C4 C 0.8116(5) 0.5594(4) -0.0030(4)
H12 H 0.8286 0.5436 -0.0890
C5 C 0.7155(5) 0.4969(4) 0.0840(4)
C6 C 0.7047(6) 0.6299(5) 0.3840(5)
C7 C 0.6364(5) 0.4018(5) 0.0464(4)
C8 C 0.7203(5) -0.0014(4) 0.0849(4)
C9 C 0.7187(5) -0.0582(4) -0.0220(4)
H13 H 0.7824 -0.0395 -0.0996
C10 C 0.6223(5) -0.1432(4) -0.0149(4)
C11 C 0.5281(5) -0.1673(4) 0.1005(4)
H14 H 0.4595 -0.2238 0.1076
C12 C 0.5376(5) -0.1068(4) 0.2040(4)
C13 C 0.8203(6) 0.0931(5) 0.0898(5)
C14 C 0.4476(6) -0.1331(5) 0.3343(4)
Cd1A Cd 0.47767(4) 0.58733(3) 0.65712(3)
Cd2A Cd 0.35458(4) -0.07117(3) 0.63169(3)
O2A O 0.3969(4) 0.4261(3) 0.5520(3)
O13A O 0.5283(4) 0.0785(3) 0.5784(3)
O15 O 0.9715(4) 0.3122(4) 0.3047(3)
H15 H 0.9866 0.3760 0.3381
H16 H 0.9582 0.3302 0.2337
O16 O 0.1500(5) 0.0936(4) 0.3498(4)
H17 H 0.0945 0.0451 0.3354
H18 H 0.1150 0.1647 0.3267
O17 O 0.0340(6) 0.5346(5) 0.3824(6)
H19 H -0.0011 0.5732 0.3266
H20 H 0.0098 0.5884 0.4407
O18 O 0.1026(5) 0.8506(6) 0.2576(4)
H21 H 0.1070 0.8458 0.1811
H22 H 0.1561 0.7904 0.2832
loop_
_geom_bond_atom_site_label_1
_geom_bond_atom_site_label_2
_geom_bond_site_symmetry_1
_geom_bond_site_symmetry_2
Cd1 O2 1_555 1_555
Cd2 O7 1_555 1_555
O1 C6 1_555 1_555
O2 C6 1_555 1_555
O3 H1 1_555 1_555
O4 C7 1_555 1_555
O5 Cd1 1_555 1_555
O6 Cd1 1_555 1_555
H2 O6 1_555 1_555
H3 O6 1_555 1_555
O7 Cd1 1_555 1_555
H4 O7 1_555 1_555
H5 O7 1_555 1_555
O8 Cd1 1_555 1_555
H6 O8 1_555 1_555
H7 O8 1_555 1_555
O9 C13 1_555 1_555
O10 Cd2 1_555 1_555
O11 H8 1_555 1_555
O12 C14 1_555 1_555
O13 Cd2 1_555 1_555
O14 Cd2 1_555 1_555
H9 O14 1_555 1_555
H10 O14 1_555 1_555
N1 Cd1 1_555 1_555
N2 Cd2 1_555 1_555
C1 N1 1_555 1_555
C2 C1 1_555 1_555
H11 C2 1_555 1_555
C3 O3 1_555 1_555
C4 C3 1_555 1_555
H12 C4 1_555 1_555
C5 N1 1_555 1_555
C6 C1 1_555 1_555
C7 O5 1_555 1_555
C8 N2 1_555 1_555
C9 C8 1_555 1_555
H13 C9 1_555 1_555
C10 O11 1_555 1_555
C11 C10 1_555 1_555
H14 C11 1_555 1_555
C12 N2 1_555 1_555
C13 O10 1_555 1_555
C14 O13 1_555 1_555
O15 H15 1_555 1_555
H16 O15 1_555 1_555
O16 H17 1_555 1_555
H18 O16 1_555 1_555
O17 H19 1_555 1_555
H20 O17 1_555 1_555
O18 H21 1_555 1_555
H22 O18 1_555 1_555
Cd1A O2 1_555 1_555
Cd2A O13 1_555 1_555
O2A Cd1 1_555 1_555
O13A Cd2 1_555 1_555
Cd2 O8 1_555 1_555
C2 C3 1_555 1_555
C4 C5 1_555 1_555
C5 C7 1_555 1_555
C8 C13 1_555 1_555
C9 C10 1_555 1_555
C11 C12 1_555 1_555
C12 C14 1_555 1_555
Cd1A O2A 1_555 1_555
Cd2A O13A 1_555 1_555

#END
