
#######################################################################
#
#                 Cambridge Crystallographic Data Centre
#                                CCDC 
#
#######################################################################
#
# If this CIF has been generated from an entry in the Cambridge 
# Structural Database, then it will include bibliographic, chemical, 
# crystal, experimental, refinement or atomic coordinate data resulting 
# from the CCDC's data processing and validation procedures.
#
#######################################################################

data_GOGJIW
_symmetry_cell_setting           triclinic
_symmetry_space_group_name_H-M   'P -1'
_symmetry_Int_Tables_number      2
_space_group_name_Hall           '-P 1'
loop_
_symmetry_equiv_pos_site_id
_symmetry_equiv_pos_as_xyz
1 x,y,z
2 -x,-y,-z
_cell_length_a                   6.7868(14)
_cell_length_b                   7.4586(15)
_cell_length_c                   20.548(4)
_cell_angle_alpha                90.75(3)
_cell_angle_beta                 95.89(3)
_cell_angle_gamma                98.54(3)
_cell_volume                     1022.75
loop_
_atom_site_label
_atom_site_type_symbol
_atom_site_fract_x
_atom_site_fract_y
_atom_site_fract_z
C1 C -0.3579(6) 0.3353(5) 0.21577(19)
H1 H -0.4134 0.2742 0.1769
C2 C -0.4714(6) 0.3250(5) 0.26882(19)
H2 H -0.5990 0.2575 0.2657
C3 C -0.3893(6) 0.4177(5) 0.32583(19)
H3 H -0.4625 0.4147 0.3618
C4 C -0.1974(5) 0.5158(5) 0.32993(17)
C5 C -0.1015(6) 0.6154(5) 0.38923(17)
C6 C -0.1076(7) 0.7026(5) 0.49600(18)
C7 C -0.2116(8) 0.7065(6) 0.5526(2)
H4 H -0.3433 0.6493 0.5517
C8 C -0.1156(8) 0.7952(6) 0.6082(2)
H5 H -0.1829 0.7977 0.6454
C9 C 0.0830(8) 0.8825(6) 0.6102(2)
H6 H 0.1454 0.9415 0.6487
C10 C 0.1856(7) 0.8821(6) 0.55679(19)
H7 H 0.3172 0.9404 0.5588
C11 C 0.0912(7) 0.7924(5) 0.49774(18)
C12 C 0.0969(6) 0.7099(5) 0.39062(18)
C13 C 0.2008(6) 0.7143(5) 0.33132(17)
C14 C 0.3877(6) 0.8170(5) 0.3279(2)
H8 H 0.4520 0.8862 0.3640
C15 C 0.4771(6) 0.8157(5) 0.2708(2)
H9 H 0.5998 0.8873 0.2673
C16 C 0.3807(6) 0.7056(5) 0.21845(19)
H10 H 0.4438 0.7016 0.1805
C17 C 0.1100(6) 0.6141(5) 0.27547(17)
C18 C -0.0933(5) 0.5160(5) 0.27466(17)
C19 C -0.2089(6) 0.2259(5) 0.01794(18)
H11 H -0.2207 0.3400 0.0016
C20 C -0.2698(6) 0.0736(5) -0.02246(18)
H12 H -0.3164 0.0881 -0.0660
C21 C -0.1979(5) -0.1099(5) 0.06260(18)
C22 C -0.1288(5) 0.0440(5) 0.10284(17)
C23 C -0.0384(6) 0.0397(5) 0.17379(18)
C24 C -0.2043(5) -0.2964(5) 0.08552(16)
N1 N -0.1746(5) 0.4280(4) 0.21800(14)
N2 N 0.2019(5) 0.6055(4) 0.22036(14)
N3 N -0.2043(5) 0.6123(4) 0.44118(15)
N4 N 0.1938(5) 0.7950(4) 0.44469(15)
N5 N -0.1343(5) 0.2118(4) 0.07921(14)
N6 N -0.2634(5) -0.0942(4) -0.00061(15)
O1 O 0.0834(4) 0.1821(3) 0.19258(13)
O2 O -0.0907(5) -0.0942(4) 0.20571(14)
O3 O 0.2777(5) 0.4031(4) 0.08593(15)
O4 O -0.0399(4) -0.3617(3) 0.09209(12)
O5 O -0.3708(5) -0.3852(4) 0.09181(15)
Fe1 Fe 0.03575(9) 0.42245(7) 0.14403(3)
H13 H 0.402(10) 0.456(8) 0.081(3)
H14 H 0.279(7) 0.315(7) 0.063(2)
O4_2 O -0.0399(4) 0.6383(3) 0.09209(12)
Fe1_2 Fe 0.03575(9) -0.57755(7) 0.14403(3)
loop_
_geom_bond_atom_site_label_1
_geom_bond_atom_site_label_2
_geom_bond_site_symmetry_1
_geom_bond_site_symmetry_2
C1 H1 1_555 1_555
C2 C1 1_555 1_555
H2 C2 1_555 1_555
C3 C2 1_555 1_555
H3 C3 1_555 1_555
C4 C3 1_555 1_555
C5 C4 1_555 1_555
C6 C7 1_555 1_555
C7 H4 1_555 1_555
C8 C7 1_555 1_555
H5 C8 1_555 1_555
C9 C8 1_555 1_555
H6 C9 1_555 1_555
C10 C9 1_555 1_555
H7 C10 1_555 1_555
C11 C6 1_555 1_555
C12 C5 1_555 1_555
C13 C12 1_555 1_555
C14 C13 1_555 1_555
H8 C14 1_555 1_555
C15 C14 1_555 1_555
H9 C15 1_555 1_555
C16 C15 1_555 1_555
H10 C16 1_555 1_555
C17 C13 1_555 1_555
C18 C4 1_555 1_555
C19 H11 1_555 1_555
C20 C19 1_555 1_555
H12 C20 1_555 1_555
C21 C22 1_555 1_555
C22 C23 1_555 1_555
C23 O1 1_555 1_555
C24 C21 1_555 1_555
N1 C1 1_555 1_555
N2 C16 1_555 1_555
N3 C5 1_555 1_555
N4 C11 1_555 1_555
N5 C19 1_555 1_555
N6 C20 1_555 1_555
O1 Fe1 1_555 1_555
O2 C23 1_555 1_555
O3 Fe1 1_555 1_555
O4 C24 1_555 1_555
O5 C24 1_555 1_555
Fe1 N1 1_555 1_555
H13 O3 1_555 1_555
H14 O3 1_555 1_555
O4_2 Fe1 1_555 1_555
Fe1_2 O4 1_555 1_555
C6 N3 1_555 1_555
C10 C11 1_555 1_555
C12 N4 1_555 1_555
C17 C18 1_555 1_555
C17 N2 1_555 1_555
C18 N1 1_555 1_555
C21 N6 1_555 1_555
C22 N5 1_555 1_555
N2 Fe1 1_555 1_555
N5 Fe1 1_555 1_555

#END
