
#######################################################################
#
#                 Cambridge Crystallographic Data Centre
#                                CCDC 
#
#######################################################################
#
# If this CIF has been generated from an entry in the Cambridge 
# Structural Database, then it will include bibliographic, chemical, 
# crystal, experimental, refinement or atomic coordinate data resulting 
# from the CCDC's data processing and validation procedures.
#
#######################################################################

data_GOGKAP
_symmetry_cell_setting           monoclinic
_symmetry_space_group_name_H-M   'P 21/c'
_symmetry_Int_Tables_number      14
_space_group_name_Hall           '-P 2ybc'
loop_
_symmetry_equiv_pos_site_id
_symmetry_equiv_pos_as_xyz
1 x,y,z
2 -x,1/2+y,1/2-z
3 -x,-y,-z
4 x,1/2-y,1/2+z
_cell_length_a                   17.604(2)
_cell_length_b                   7.3122(8)
_cell_length_c                   8.0312(9)
_cell_angle_alpha                90
_cell_angle_beta                 94.258(2)
_cell_angle_gamma                90
_cell_volume                     1030.95
loop_
_atom_site_label
_atom_site_type_symbol
_atom_site_fract_x
_atom_site_fract_y
_atom_site_fract_z
Fe1 Fe 0.0000 0.5000 0.5000
Cl1 Cl 0.30460(6) 0.78166(12) 0.11801(14)
Cl2 Cl 0.46770(6) 0.2467(2) 0.43433(14)
C1 C 0.24797(14) 0.4477(4) 0.1746(3)
C2 C 0.31062(16) 0.5621(4) 0.1975(4)
C3 C 0.32151(18) 0.2103(5) 0.3170(4)
H1 H 0.3253 0.0913 0.3575
C4 C 0.25386(16) 0.2715(4) 0.2358(4)
H2 H 0.2122 0.1932 0.2226
C5 C 0.38251(18) 0.3256(5) 0.3371(4)
C6 C 0.37794(18) 0.5028(5) 0.2792(4)
H3 H 0.4195 0.5812 0.2948
O1 O 0.18551(10) 0.5189(2) 0.0859(2)
O2 O 0.07809(9) 0.4569(2) 0.3070(2)
C7 C 0.07058(13) 0.3655(3) 0.1753(3)
C8 C 0.12459(15) 0.3979(4) 0.0403(3)
H4 H 0.1456 0.2812 0.0092
H5 H 0.0958 0.4467 -0.0575
O3 O 0.01927(10) 0.2497(2) 0.1419(2)
O4 O 0.09385(11) 0.6384(3) 0.6535(2)
H6 H 0.1227 0.6879 0.5917
H7 H 0.0708 0.7130 0.7070
Fe1C Fe 0.0000 0.0000 0.0000
Fe1C_2 Fe 0.0000 1.0000 1.0000
Cl1B Cl -0.30460(6) 0.21834(12) 0.88199(14)
Cl2B Cl -0.46770(6) 0.7533(2) 0.56567(14)
C1B C -0.24797(14) 0.5523(4) 0.8254(3)
C2B C -0.31062(16) 0.4379(4) 0.8025(4)
C3B C -0.32151(18) 0.7897(5) 0.6830(4)
H1B H -0.3253 0.9087 0.6425
C4B C -0.25386(16) 0.7285(4) 0.7642(4)
H2B H -0.2122 0.8068 0.7774
C5B C -0.38251(18) 0.6744(5) 0.6629(4)
C6B C -0.37794(18) 0.4972(5) 0.7208(4)
H3B H -0.4195 0.4188 0.7052
O1B O -0.18551(10) 0.4811(2) 0.9141(2)
O2B O -0.07809(9) 0.5431(2) 0.6930(2)
C7B C -0.07058(13) 0.6345(3) 0.8247(3)
C8B C -0.12459(15) 0.6021(4) 0.9597(3)
H4B H -0.1456 0.7188 0.9908
H5B H -0.0958 0.5533 1.0575
O3B O -0.01927(10) 0.7503(2) 0.8581(2)
O3C O 0.01927(10) 0.2503(2) 0.6419(2)
O3A O -0.01927(10) 0.7497(2) 0.3581(2)
O4B O -0.09385(11) 0.3616(3) 0.3465(2)
H6B H -0.1227 0.3121 0.4083
H7B H -0.0708 0.2870 0.2930
loop_
_geom_bond_atom_site_label_1
_geom_bond_atom_site_label_2
_geom_bond_site_symmetry_1
_geom_bond_site_symmetry_2
Fe1 O2 1_555 1_555
Cl1 C2 1_555 1_555
Cl2 C5 1_555 1_555
C1 C2 1_555 1_555
C2 C6 1_555 1_555
C3 H1 1_555 1_555
C4 C1 1_555 1_555
H2 C4 1_555 1_555
C5 C3 1_555 1_555
C6 C5 1_555 1_555
H3 C6 1_555 1_555
O1 C1 1_555 1_555
O2 C7 1_555 1_555
C7 C8 1_555 1_555
C8 O1 1_555 1_555
H4 C8 1_555 1_555
H5 C8 1_555 1_555
O3 C7 1_555 1_555
O4 Fe1 1_555 1_555
H6 O4 1_555 1_555
H7 O4 1_555 1_555
Fe1C O3 1_555 1_555
Fe1C_2 O3B 1_555 1_555
Cl1B C2B 1_555 1_555
Cl2B C5B 1_555 1_555
C1B C2B 1_555 1_555
C2B C6B 1_555 1_555
C3B H1B 1_555 1_555
C4B C1B 1_555 1_555
H2B C4B 1_555 1_555
C5B C3B 1_555 1_555
C6B C5B 1_555 1_555
H3B C6B 1_555 1_555
O1B C1B 1_555 1_555
O2B Fe1 1_555 1_555
C7B O2B 1_555 1_555
C8B O1B 1_555 1_555
H4B C8B 1_555 1_555
H5B C8B 1_555 1_555
O3B C7B 1_555 1_555
O3C Fe1 1_555 1_555
O3A Fe1 1_555 1_555
O4B Fe1 1_555 1_555
H6B O4B 1_555 1_555
H7B O4B 1_555 1_555
C3 C4 1_555 1_555
C3B C4B 1_555 1_555
C7B C8B 1_555 1_555

#END
