
#######################################################################
#
#                 Cambridge Crystallographic Data Centre
#                                CCDC 
#
#######################################################################
#
# If this CIF has been generated from an entry in the Cambridge 
# Structural Database, then it will include bibliographic, chemical, 
# crystal, experimental, refinement or atomic coordinate data resulting 
# from the CCDC's data processing and validation procedures.
#
#######################################################################

data_GOGLUJ
_symmetry_cell_setting           orthorhombic
_symmetry_space_group_name_H-M   'P 21 21 21'
_symmetry_Int_Tables_number      19
_space_group_name_Hall           'P 2ac 2ab'
loop_
_symmetry_equiv_pos_site_id
_symmetry_equiv_pos_as_xyz
1 x,y,z
2 1/2-x,-y,1/2+z
3 1/2+x,1/2-y,-z
4 -x,1/2+y,1/2-z
_cell_length_a                   12.8919(2)
_cell_length_b                   12.9977(3)
_cell_length_c                   13.4006(3)
_cell_angle_alpha                90
_cell_angle_beta                 90
_cell_angle_gamma                90
_cell_volume                     2245.47
loop_
_atom_site_label
_atom_site_type_symbol
_atom_site_fract_x
_atom_site_fract_y
_atom_site_fract_z
Cu1 Cu 0.1945(1) 0.1457(1) 0.0528(1)
Cu2 Cu 0.3818(1) 0.1533(1) -0.0736(1)
C1 C 0.5152(4) -0.0170(5) -0.0227(4)
O1 O 0.6007(3) -0.0658(3) -0.0467(3)
C2 C 0.6456(5) -0.1442(6) 0.0192(4)
C3 C 0.5624(5) -0.2140(5) 0.0569(5)
C4 C 0.4169(5) -0.1871(4) 0.1820(4)
C5 C 0.3338(4) -0.1314(4) 0.2179(4)
C6 C 0.3030(5) -0.0404(4) 0.1758(4)
C7 C 0.3607(4) -0.0002(4) 0.0924(4)
C8 C 0.4495(4) -0.0566(4) 0.0596(4)
C9 C 0.4753(4) -0.1519(5) 0.1016(4)
C10 C 0.7278(6) -0.1984(6) -0.0422(6)
C11 C 0.2104(4) 0.0111(4) 0.2254(4)
N1 N 0.1593(3) 0.0821(3) 0.1766(3)
C12 C 0.0726(4) 0.1361(4) 0.2250(4)
C13 C 0.1071(5) 0.2038(4) 0.3140(4)
C14 C 0.1717(5) 0.2946(5) 0.2813(5)
C15 C 0.1337(5) 0.3939(5) 0.2829(5)
C16 C 0.1922(7) 0.4755(5) 0.2503(6)
C17 C 0.2903(7) 0.4607(6) 0.2126(6)
C18 C 0.3296(5) 0.3624(6) 0.2095(5)
C19 C 0.2726(5) 0.2795(5) 0.2434(4)
C20 C 0.0195(4) 0.2039(4) 0.1478(4)
O2 O -0.0622(3) 0.2508(3) 0.1733(3)
O3 O 0.0595(3) 0.2135(3) 0.0621(3)
O4 O 0.1886(3) -0.0186(3) 0.3133(3)
O5 O 0.3344(3) 0.0867(3) 0.0498(3)
O6 O 0.4988(3) 0.0615(3) -0.0716(3)
Cl1 Cl 0.4486(1) -0.3028(1) 0.2417(1)
O7 O 0.2529(3) 0.2233(3) -0.0554(3)
C21 C 0.2410(5) 0.3305(5) -0.0613(5)
O8 O 0.1523(4) -0.0010(4) -0.0482(4)
C22 C 0.0509(6) 0.0083(6) -0.0818(6)
H1 H 0.6795 -0.1094 0.0772
H2 H 0.5914 -0.2608 0.1080
H3 H 0.5354 -0.2564 0.0013
H4 H 0.2966 -0.1572 0.2738
H5 H 0.7845 -0.1504 -0.0566
H6 H 0.6972 -0.2224 -0.1050
H7 H 0.7547 -0.2573 -0.0048
H8 H 0.0216 0.0839 0.2495
H9 H 0.0449 0.2291 0.3497
H10 H 0.1479 0.1614 0.3612
H11 H 0.0655 0.4060 0.3070
H12 H 0.1646 0.5432 0.2538
H13 H 0.3302 0.5172 0.1891
H14 H 0.3972 0.3513 0.1836
H15 H 0.3013 0.2122 0.2411
H16 H 0.1708 0.3494 -0.0402
H17 H 0.2522 0.3530 -0.1303
H18 H 0.2918 0.3640 -0.0176
H19 H 0.1896(54) -0.0007(53) -0.1007(52)
H20 H 0.0417 -0.0335 -0.1420
H21 H 0.0363 0.0806 -0.0974
H22 H 0.0032 -0.0155 -0.0299
O4A O 0.3114(3) 0.0186(3) -0.1867(3)
O2B O 0.4378(3) 0.2492(3) -0.1733(3)
Cu2A Cu 0.1182(1) -0.1533(1) 0.4264(1)
Cu2B Cu -0.1182(1) 0.3467(1) 0.0736(1)
loop_
_geom_bond_atom_site_label_1
_geom_bond_atom_site_label_2
_geom_bond_site_symmetry_1
_geom_bond_site_symmetry_2
Cu1 N1 1_555 1_555
Cu2 O5 1_555 1_555
C1 O1 1_555 1_555
O1 C2 1_555 1_555
C2 C3 1_555 1_555
C3 C9 1_555 1_555
C4 C5 1_555 1_555
C5 C6 1_555 1_555
C6 C7 1_555 1_555
C7 C8 1_555 1_555
C8 C1 1_555 1_555
C9 C4 1_555 1_555
C10 C2 1_555 1_555
C11 C6 1_555 1_555
N1 C11 1_555 1_555
C12 N1 1_555 1_555
C13 C12 1_555 1_555
C14 C13 1_555 1_555
C15 C14 1_555 1_555
C16 C15 1_555 1_555
C17 C16 1_555 1_555
C18 C17 1_555 1_555
C19 C14 1_555 1_555
C20 C12 1_555 1_555
O2 C20 1_555 1_555
O3 Cu1 1_555 1_555
O4 C11 1_555 1_555
O5 Cu1 1_555 1_555
O6 Cu2 1_555 1_555
Cl1 C4 1_555 1_555
O7 Cu1 1_555 1_555
C21 O7 1_555 1_555
O8 Cu1 1_555 1_555
C22 O8 1_555 1_555
H1 C2 1_555 1_555
H2 C3 1_555 1_555
H3 C3 1_555 1_555
H4 C5 1_555 1_555
H5 C10 1_555 1_555
H6 C10 1_555 1_555
H7 C10 1_555 1_555
H8 C12 1_555 1_555
H9 C13 1_555 1_555
H10 C13 1_555 1_555
H11 C15 1_555 1_555
H12 C16 1_555 1_555
H13 C17 1_555 1_555
H14 C18 1_555 1_555
H15 C19 1_555 1_555
H16 C21 1_555 1_555
H17 C21 1_555 1_555
H18 C21 1_555 1_555
H19 O8 1_555 1_555
H20 C22 1_555 1_555
H21 C22 1_555 1_555
H22 C22 1_555 1_555
O4A Cu2 1_555 1_555
O2B Cu2 1_555 1_555
Cu2A O4 1_555 1_555
Cu2B O2 1_555 1_555
Cu2 O7 1_555 1_555
C1 O6 1_555 1_555
C7 O5 1_555 1_555
C8 C9 1_555 1_555
C18 C19 1_555 1_555
C20 O3 1_555 1_555

#END
