
#######################################################################
#
#                 Cambridge Crystallographic Data Centre
#                                CCDC 
#
#######################################################################
#
# If this CIF has been generated from an entry in the Cambridge 
# Structural Database, then it will include bibliographic, chemical, 
# crystal, experimental, refinement or atomic coordinate data resulting 
# from the CCDC's data processing and validation procedures.
#
#######################################################################

data_GOGLUK
_symmetry_cell_setting           monoclinic
_symmetry_space_group_name_H-M   'P 21/c'
_symmetry_Int_Tables_number      14
_space_group_name_Hall           '-P 2ybc'
loop_
_symmetry_equiv_pos_site_id
_symmetry_equiv_pos_as_xyz
1 x,y,z
2 -x,1/2+y,1/2-z
3 -x,-y,-z
4 x,1/2-y,1/2+z
_cell_length_a                   10.235(2)
_cell_length_b                   9.3638(19)
_cell_length_c                   13.445(3)
_cell_angle_alpha                90
_cell_angle_beta                 93.34(3)
_cell_angle_gamma                90
_cell_volume                     1286.36
loop_
_atom_site_label
_atom_site_type_symbol
_atom_site_fract_x
_atom_site_fract_y
_atom_site_fract_z
Hg1 Hg 0.754242(14) 0.082349(16) 0.235414(10)
N1 N 0.9475(3) -0.1089(3) 0.2675(2)
N2 N 1.0385(3) -0.1803(4) 0.2215(2)
N3 N 1.1010(3) -0.2625(3) 0.2890(2)
N4 N 1.0540(3) -0.2473(4) 0.3792(2)
N5 N 0.7856(3) 0.0001(4) 0.4148(2)
N6 N 0.8118(4) -0.1116(4) 0.6079(3)
N7 N 0.4662(3) -0.2136(4) 0.1314(2)
N8 N 0.4315(3) -0.1979(4) 0.2265(3)
N9 N 0.5066(3) -0.1061(3) 0.2745(2)
N10 N 0.5937(3) -0.0585(3) 0.2104(2)
N11 N 0.7374(3) -0.0085(4) 0.0431(2)
N12 N 0.6711(4) -0.1469(4) -0.1362(2)
C1 C 0.9590(3) -0.1514(4) 0.3629(3)
C2 C 0.8760(4) -0.0994(4) 0.4406(3)
C3 C 0.8893(4) -0.1523(4) 0.5371(3)
H1 H 0.9549 -0.2187 0.5529
C4 C 0.7203(4) -0.0158(5) 0.5806(3)
H2 H 0.6628 0.0143 0.6274
C5 C 0.7078(4) 0.0404(5) 0.4860(3)
H3 H 0.6433 0.1083 0.4712
C6 C 0.5666(3) -0.1267(4) 0.1241(3)
C7 C 0.6381(4) -0.1018(4) 0.0346(3)
C8 C 0.6055(4) -0.1690(4) -0.0550(3)
H4 H 0.5351 -0.2320 -0.0587
C9 C 0.7704(4) -0.0554(4) -0.1268(3)
H5 H 0.8196 -0.0379 -0.1815
C10 C 0.8031(4) 0.0151(5) -0.0377(3)
H6 H 0.8721 0.0798 -0.0346
Hg1A Hg 1.245758(14) -0.417651(16) 0.264586(10)
N3A N 0.8990(3) 0.2375(3) 0.2110(2)
loop_
_geom_bond_atom_site_label_1
_geom_bond_atom_site_label_2
_geom_bond_site_symmetry_1
_geom_bond_site_symmetry_2
Hg1 N1 1_555 1_555
N1 N2 1_555 1_555
N2 N3 1_555 1_555
N3 N4 1_555 1_555
N4 C1 1_555 1_555
N5 Hg1 1_555 1_555
N6 C3 1_555 1_555
N7 N8 1_555 1_555
N8 N9 1_555 1_555
N9 N10 1_555 1_555
N10 Hg1 1_555 1_555
N11 Hg1 1_555 1_555
N12 C8 1_555 1_555
C1 N1 1_555 1_555
C2 N5 1_555 1_555
C3 C2 1_555 1_555
H1 C3 1_555 1_555
C4 N6 1_555 1_555
H2 C4 1_555 1_555
C5 N5 1_555 1_555
H3 C5 1_555 1_555
C6 N7 1_555 1_555
C7 N11 1_555 1_555
C8 C7 1_555 1_555
H4 C8 1_555 1_555
C9 N12 1_555 1_555
H5 C9 1_555 1_555
C10 N11 1_555 1_555
H6 C10 1_555 1_555
Hg1A N3 1_555 1_555
N3A Hg1 1_555 1_555
N10 C6 1_555 1_555
C1 C2 1_555 1_555
C4 C5 1_555 1_555
C6 C7 1_555 1_555
C9 C10 1_555 1_555

#END
