
#######################################################################
#
#                 Cambridge Crystallographic Data Centre
#                                CCDC 
#
#######################################################################
#
# If this CIF has been generated from an entry in the Cambridge 
# Structural Database, then it will include bibliographic, chemical, 
# crystal, experimental, refinement or atomic coordinate data resulting 
# from the CCDC's data processing and validation procedures.
#
#######################################################################

data_GOGLEU
_symmetry_cell_setting           orthorhombic
_symmetry_space_group_name_H-M   'P b c n'
_symmetry_Int_Tables_number      60
_space_group_name_Hall           '-P 2n 2ab'
loop_
_symmetry_equiv_pos_site_id
_symmetry_equiv_pos_as_xyz
1 x,y,z
2 1/2-x,1/2-y,1/2+z
3 1/2+x,1/2-y,-z
4 -x,y,1/2-z
5 -x,-y,-z
6 1/2+x,1/2+y,1/2-z
7 1/2-x,1/2+y,z
8 x,-y,1/2+z
_cell_length_a                   12.2360(7)
_cell_length_b                   8.0600(5)
_cell_length_c                   25.6700(15)
_cell_angle_alpha                90
_cell_angle_beta                 90
_cell_angle_gamma                90
_cell_volume                     2531.63
loop_
_atom_site_label
_atom_site_type_symbol
_atom_site_fract_x
_atom_site_fract_y
_atom_site_fract_z
Ce1 Ce 0.694451(12) 0.038178(18) 0.094984(6)
H1 H 0.4903 -0.1228 0.0487
H2 H 0.4671 -0.1140 0.0998
N1 N 0.1463(2) 0.4699(3) 0.15158(11)
H3 H 0.1531 0.4128 0.1797
H4 H 0.1042 0.5534 0.1571
N2 N 0.5000 -0.7310(4) 0.2500
H5 H 0.5462 -0.7843 0.2311
O1 O 0.53914(15) 0.2297(2) 0.12641(8)
O2 O 0.62001(17) 0.4491(3) 0.09148(8)
O3 O 0.38087(15) 0.8402(2) -0.01169(8)
O4 O 0.22451(15) 0.7222(2) -0.03332(8)
O5 O 0.63242(18) -0.0423(2) 0.18383(9)
O6 O 0.70692(16) -0.2648(2) 0.15024(8)
O7 O 0.51934(16) -0.1043(3) 0.07824(9)
C1 C 0.4286(2) 0.4564(3) 0.09890(11)
C2 C 0.4177(2) 0.5614(3) 0.05642(12)
H6 H 0.4786 0.5885 0.0365
C3 C 0.3163(2) 0.6262(3) 0.04351(11)
C4 C 0.2262(2) 0.5922(4) 0.07468(12)
H7 H 0.1576 0.6316 0.0652
C5 C 0.2384(2) 0.4998(3) 0.11991(12)
C6 C 0.3393(2) 0.4281(3) 0.13138(12)
H8 H 0.3469 0.3613 0.1607
C7 C 0.5365(2) 0.3728(3) 0.10682(11)
C8 C 0.3065(2) 0.7357(3) -0.00284(12)
C9 C 0.5727(2) -0.2982(3) 0.21853(11)
C10 C 0.5748(2) -0.4714(3) 0.21935(12)
H9 H 0.6261 -0.5283 0.1995
C11 C 0.5000 -0.5599(5) 0.2500
C12 C 0.5000 -0.2132(5) 0.2500
H10 H 0.5000 -0.0978 0.2500
C13 C 0.6425(2) -0.1977(3) 0.18270(11)
Ce1F Ce 0.805549(12) -0.461822(18) 0.094984(6)
Ce1F_2 Ce 0.805549(12) 0.538178(18) 0.094984(6)
Ce1D Ce 0.305549(12) 0.961822(18) -0.094984(6)
Ce1B Ce 0.194451(12) 0.461822(18) -0.094984(6)
Ce1C Ce 0.305549(12) 0.038178(18) 0.405016(6)
Ce1E Ce 0.194451(12) -0.461822(18) 0.405016(6)
Ce1B_2 Ce 1.194451(12) 0.461822(18) -0.094984(6)
Ce1D_2 Ce 1.305549(12) -0.038178(18) -0.094984(6)
H1F H 1.0097 -0.6228 0.0487
H2F H 1.0329 -0.6140 0.0998
N1F N 1.3537(2) -0.0301(3) 0.15158(11)
H3F H 1.3469 -0.0872 0.1797
H4F H 1.3958 0.0534 0.1571
H5C H 0.4538 -0.7843 0.2689
O1F O 0.96086(15) -0.2703(2) 0.12641(8)
O2F O 0.87999(17) -0.0509(3) 0.09148(8)
O2_2 O 0.62001(17) -0.5509(3) 0.09148(8)
O3F O 1.11913(15) 0.3402(2) -0.01169(8)
O3D O 0.61913(15) 0.1598(2) 0.01169(8)
O3B O 0.88087(15) -0.3402(2) 0.01169(8)
O4F O 1.27549(15) 0.2222(2) -0.03332(8)
O4D O 0.77549(15) 0.2778(2) 0.03332(8)
O4B O 0.72451(15) -0.2222(2) 0.03332(8)
O4D_2 O 0.77549(15) -0.7222(2) 0.03332(8)
O5C O 0.36758(18) -0.0423(2) 0.31617(9)
O5F O 0.86758(18) -0.5423(2) 0.18383(9)
O6C O 0.29308(16) -0.2648(2) 0.34976(8)
O6F O 0.79308(16) 0.2352(2) 0.15024(8)
O6F_2 O 0.79308(16) -0.7648(2) 0.15024(8)
O7F O 0.98066(16) -0.6043(3) 0.07824(9)
C1F C 1.0714(2) -0.0436(3) 0.09890(11)
C2F C 1.0823(2) 0.0614(3) 0.05642(12)
H6F H 1.0214 0.0885 0.0365
C3F C 1.1837(2) 0.1262(3) 0.04351(11)
C4F C 1.2738(2) 0.0922(4) 0.07468(12)
H7F H 1.3424 0.1316 0.0652
C5F C 1.2616(2) -0.0002(3) 0.11991(12)
C6F C 1.1607(2) -0.0719(3) 0.13138(12)
H8F H 1.1531 -0.1387 0.1607
C7F C 0.9635(2) -0.1272(3) 0.10682(11)
C8F C 1.1935(2) 0.2357(3) -0.00284(12)
C9C C 0.4273(2) -0.2982(3) 0.28147(11)
C10C C 0.4252(2) -0.4714(3) 0.28065(12)
H9C H 0.3739 -0.5283 0.3005
C13C C 0.3575(2) -0.1977(3) 0.31730(11)
loop_
_geom_bond_atom_site_label_1
_geom_bond_atom_site_label_2
_geom_bond_site_symmetry_1
_geom_bond_site_symmetry_2
Ce1 O1 1_555 1_555
H1 O7 1_555 1_555
H2 O7 1_555 1_555
N1 H3 1_555 1_555
H4 N1 1_555 1_555
N2 H5 1_555 1_555
O1 C7 1_555 1_555
O2 C7 1_555 1_555
O3 C8 1_555 1_555
O4 C8 1_555 1_555
O5 Ce1 1_555 1_555
O6 Ce1 1_555 1_555
O7 Ce1 1_555 1_555
C1 C2 1_555 1_555
C2 H6 1_555 1_555
C3 C2 1_555 1_555
C4 C3 1_555 1_555
H7 C4 1_555 1_555
C5 N1 1_555 1_555
C6 C1 1_555 1_555
H8 C6 1_555 1_555
C7 C1 1_555 1_555
C8 C3 1_555 1_555
C9 C10 1_555 1_555
C10 H9 1_555 1_555
C11 N2 1_555 1_555
C12 C9 1_555 1_555
H10 C12 1_555 1_555
C13 O5 1_555 1_555
Ce1F O6 1_555 1_555
Ce1F_2 O2 1_555 1_555
Ce1D O3 1_555 1_555
Ce1B O4 1_555 1_555
Ce1C O5C 1_555 1_555
Ce1E O6C 1_555 1_555
Ce1B_2 O3F 1_555 1_555
Ce1D_2 O4F 1_555 1_555
H1F O7F 1_555 1_555
H2F O7F 1_555 1_555
N1F H3F 1_555 1_555
H4F N1F 1_555 1_555
H5C N2 1_555 1_555
O1F Ce1F 1_555 1_555
O2F Ce1 1_555 1_555
O2_2 Ce1F 1_555 1_555
O3F C8F 1_555 1_555
O3D Ce1 1_555 1_555
O3B Ce1F 1_555 1_555
O4F Ce1B_2 1_555 1_555
O4D Ce1 1_555 1_555
O4B Ce1 1_555 1_555
O4D_2 Ce1F 1_555 1_555
O5C C13C 1_555 1_555
O5F Ce1F 1_555 1_555
O6C Ce1C 1_555 1_555
O6F Ce1 1_555 1_555
O6F_2 Ce1F 1_555 1_555
O7F Ce1F 1_555 1_555
C1F C2F 1_555 1_555
C2F H6F 1_555 1_555
C3F C2F 1_555 1_555
C4F C3F 1_555 1_555
H7F C4F 1_555 1_555
C5F N1F 1_555 1_555
C6F C1F 1_555 1_555
H8F C6F 1_555 1_555
C7F O1F 1_555 1_555
C8F O4F 1_555 1_555
C9C C12 1_555 1_555
C10C C11 1_555 1_555
H9C C10C 1_555 1_555
C13C O6C 1_555 1_555
O4 Ce1D 1_555 1_555
O6 C13 1_555 1_555
C4 C5 1_555 1_555
C5 C6 1_555 1_555
C9 C13 1_555 1_555
C10 C11 1_555 1_555
Ce1F O4B 1_555 1_555
Ce1F_2 O4D 1_555 1_555
Ce1F_2 O6F 1_555 1_555
O2F C7F 1_555 1_555
C1F C7F 1_555 1_555
C3F C8F 1_555 1_555
C4F C5F 1_555 1_555
C5F C6F 1_555 1_555
C9C C10C 1_555 1_555
C9C C13C 1_555 1_555

#END
