
#######################################################################
#
#                 Cambridge Crystallographic Data Centre
#                                CCDC 
#
#######################################################################
#
# If this CIF has been generated from an entry in the Cambridge 
# Structural Database, then it will include bibliographic, chemical, 
# crystal, experimental, refinement or atomic coordinate data resulting 
# from the CCDC's data processing and validation procedures.
#
#######################################################################

data_GOGMIA
_symmetry_cell_setting           orthorhombic
_symmetry_space_group_name_H-M   'P 21 21 21'
_symmetry_Int_Tables_number      19
_space_group_name_Hall           'P 2ac 2ab'
loop_
_symmetry_equiv_pos_site_id
_symmetry_equiv_pos_as_xyz
1 x,y,z
2 1/2-x,-y,1/2+z
3 -x,1/2+y,1/2-z
4 1/2+x,1/2-y,-z
_cell_length_a                   9.7055(5)
_cell_length_b                   13.1616(5)
_cell_length_c                   17.6343(8)
_cell_angle_alpha                90
_cell_angle_beta                 90
_cell_angle_gamma                90
_cell_volume                     2252.6
loop_
_atom_site_label
_atom_site_type_symbol
_atom_site_fract_x
_atom_site_fract_y
_atom_site_fract_z
Sr1 Sr 0.85942(9) 0.02123(6) 0.12166(3)
Sr2 Sr 0.64217(9) -0.02277(6) -0.11588(3)
Cl1 Cl 1.01077(11) 0.10301(8) 0.25210(11)
Cl2 Cl 0.68070(11) -0.02748(9) 0.25291(10)
Cl3 Cl 0.9135(2) -0.02831(18) -0.04030(8)
Cl4 Cl 0.5865(2) 0.02728(18) 0.04678(8)
N1 N 1.0524(9) 0.1597(5) 0.0694(3)
N2 N 0.8123(9) 0.2288(6) 0.1229(3)
N3 N 0.9077(8) 0.3961(5) 0.1337(3)
N4 N 1.1605(9) 0.3174(5) 0.1012(3)
N5 N 1.0980(7) -0.1058(5) 0.1371(3)
N6 N 0.8449(10) -0.1828(6) 0.1047(3)
N7 N 0.9525(9) -0.3371(6) 0.0665(3)
N8 N 1.1964(8) -0.2722(5) 0.1228(3)
C1 C 1.0556(11) 0.2558(7) 0.0962(4)
C2 C 0.9146(11) 0.2967(7) 0.1191(4)
C3 C 0.6848(10) 0.2670(7) 0.1389(4)
H1 H 0.6089 0.2238 0.1400
C4 C 0.6679(10) 0.3681(6) 0.1534(4)
H2 H 0.5812 0.3943 0.1644
C5 C 0.7815(9) 0.4306(7) 0.1512(4)
H3 H 0.7704 0.4992 0.1622
C6 C 1.2803(9) 0.2793(7) 0.0776(4)
H4 H 1.3579 0.3207 0.0795
C7 C 1.2948(10) 0.1815(6) 0.0505(4)
H5 H 1.3800 0.1557 0.0360
C8 C 1.1768(9) 0.1243(7) 0.0463(4)
H6 H 1.1823 0.0588 0.0268
C9 C 1.0917(11) -0.2047(7) 0.1214(4)
C10 C 0.9575(11) -0.2450(7) 0.0960(4)
C11 C 0.7213(10) -0.2215(7) 0.0849(4)
H7 H 0.6419 -0.1835 0.0933
C12 C 0.7107(11) -0.3174(7) 0.0522(4)
H8 H 0.6260 -0.3437 0.0372
C13 C 0.8315(10) -0.3720(6) 0.0428(4)
H9 H 0.8278 -0.4351 0.0192
C14 C 1.3176(10) -0.2339(7) 0.1412(4)
H10 H 1.3925 -0.2780 0.1423
C15 C 1.3416(11) -0.1313(6) 0.1592(3)
H11 H 1.4286 -0.1063 0.1710
C16 C 1.2237(8) -0.0700(7) 0.1579(3)
H12 H 1.2318 -0.0021 0.1718
Sr2A Sr 0.85783(9) 0.02277(6) 0.38412(3)
Sr2C Sr 1.14217(9) -0.47723(6) 0.11588(3)
Sr2C_2 Sr 1.14217(9) 0.52277(6) 0.11588(3)
Cl1A Cl 0.48923(11) -0.10301(8) -0.24790(11)
Cl2A Cl 0.81930(11) 0.02748(9) -0.24709(10)
N3C N 0.4077(8) 0.1039(5) -0.1337(3)
N4C N 0.6605(9) 0.1826(5) -0.1012(3)
N7C N 0.4525(9) -0.1629(6) -0.0665(3)
N8C N 0.6964(8) -0.2278(5) -0.1228(3)
O1 O 0.4217(6) 0.1090(4) 0.3007(3)
H13 H 0.4920 0.0686 0.2872
C17 C 0.3868(6) 0.1656(5) 0.2393(5)
H14 H 0.2884 0.1725 0.2370
H15 H 0.4191 0.1328 0.1941
H16 H 0.4281 0.2317 0.2433
loop_
_geom_bond_atom_site_label_1
_geom_bond_atom_site_label_2
_geom_bond_site_symmetry_1
_geom_bond_site_symmetry_2
Sr1 Cl1 1_555 1_555
Sr2 Cl3 1_555 1_555
Cl1 Sr2A 1_555 1_555
Cl2 Sr1 1_555 1_555
Cl3 Sr1 1_555 1_555
Cl4 Sr1 1_555 1_555
N1 Sr1 1_555 1_555
N2 Sr1 1_555 1_555
N3 C2 1_555 1_555
N4 C1 1_555 1_555
N5 Sr1 1_555 1_555
N6 Sr1 1_555 1_555
N7 C10 1_555 1_555
N8 C9 1_555 1_555
C1 N1 1_555 1_555
C2 N2 1_555 1_555
C3 N2 1_555 1_555
H1 C3 1_555 1_555
C4 C3 1_555 1_555
H2 C4 1_555 1_555
C5 N3 1_555 1_555
H3 C5 1_555 1_555
C6 N4 1_555 1_555
H4 C6 1_555 1_555
C7 C6 1_555 1_555
H5 C7 1_555 1_555
C8 N1 1_555 1_555
H6 C8 1_555 1_555
C9 N5 1_555 1_555
C10 N6 1_555 1_555
C11 N6 1_555 1_555
H7 C11 1_555 1_555
C12 C11 1_555 1_555
H8 C12 1_555 1_555
C13 N7 1_555 1_555
H9 C13 1_555 1_555
C14 N8 1_555 1_555
H10 C14 1_555 1_555
C15 C14 1_555 1_555
H11 C15 1_555 1_555
C16 N5 1_555 1_555
H12 C16 1_555 1_555
O1 H13 1_555 1_555
C17 O1 1_555 1_555
H14 C17 1_555 1_555
H15 C17 1_555 1_555
H16 C17 1_555 1_555
Sr2A Cl2 1_555 1_555
Sr2C N7 1_555 1_555
Sr2C_2 N3 1_555 1_555
Cl1A Sr2 1_555 1_555
Cl2A Sr2 1_555 1_555
N3C Sr2 1_555 1_555
N4C Sr2 1_555 1_555
N7C Sr2 1_555 1_555
N8C Sr2 1_555 1_555
Sr2 Cl4 1_555 1_555
N4 Sr2C_2 1_555 1_555
N8 Sr2C 1_555 1_555
C1 C2 1_555 1_555
C4 C5 1_555 1_555
C7 C8 1_555 1_555
C9 C10 1_555 1_555
C12 C13 1_555 1_555
C15 C16 1_555 1_555

#END
