
#######################################################################
#
#                 Cambridge Crystallographic Data Centre
#                                CCDC 
#
#######################################################################
#
# If this CIF has been generated from an entry in the Cambridge 
# Structural Database, then it will include bibliographic, chemical, 
# crystal, experimental, refinement or atomic coordinate data resulting 
# from the CCDC's data processing and validation procedures.
#
#######################################################################

data_GOGMEU
_symmetry_cell_setting           monoclinic
_symmetry_space_group_name_H-M   'P 21/c'
_symmetry_Int_Tables_number      14
_space_group_name_Hall           '-P 2ybc'
loop_
_symmetry_equiv_pos_site_id
_symmetry_equiv_pos_as_xyz
1 x,y,z
2 x,1/2-y,1/2+z
3 -x,-y,-z
4 -x,1/2+y,1/2-z
_cell_length_a                   5.5453(10)
_cell_length_b                   18.635(3)
_cell_length_c                   10.8478(19)
_cell_angle_alpha                90
_cell_angle_beta                 90.07(2)
_cell_angle_gamma                90
_cell_volume                     1120.97
loop_
_atom_site_label
_atom_site_type_symbol
_atom_site_fract_x
_atom_site_fract_y
_atom_site_fract_z
Li1 Li 0.1758(6) 0.2501(3) -0.5105(3)
Si1 Si 0.36527(10) 0.26306(2) -0.26080(5)
O1 O 0.6614(2) 0.26892(7) -0.26100(18)
H1 H 0.709(5) 0.3042(16) -0.259(3)
C1 C -0.0037(7) 0.42260(14) -0.3631(2)
H2 H 0.0052 0.4748 -0.3792
H3 H -0.0693 0.3985 -0.4372
C2 C 0.2428(5) 0.39321(13) -0.3315(2)
H4 H 0.3740 0.4243 -0.3654
C3 C 0.2442(5) 0.39310(13) -0.1894(2)
H5 H 0.3762 0.4242 -0.1563
C4 C 0.0013(8) 0.42247(15) -0.1566(2)
H6 H -0.0622 0.3985 -0.0820
H7 H 0.0114 0.4747 -0.1406
O2 O -0.1504(3) 0.40860(7) -0.2595(2)
O3 O 0.2685(4) 0.32219(9) -0.37019(13)
O4 O 0.2720(4) 0.32209(9) -0.15090(13)
C5 C 0.4940(9) 0.08242(16) -0.3631(2)
H8 H 0.4389 0.0334 -0.3841
H9 H 0.5827 0.1023 -0.4345
C6 C 0.2825(6) 0.12927(14) -0.3319(2)
H10 H 0.1300 0.1084 -0.3658
C7 C 0.2788(5) 0.12862(13) -0.1911(2)
H11 H 0.1240 0.1081 -0.1596
C8 C 0.4891(9) 0.08179(16) -0.1560(2)
H12 H 0.5734 0.1017 -0.0831
H13 H 0.4335 0.0326 -0.1363
O5 O 0.6430(3) 0.08085(9) -0.2584(2)
O6 O 0.3099(4) 0.19975(9) -0.37036(13)
O7 O 0.3082(4) 0.19968(9) -0.15159(13)
O8 O -0.1624(3) 0.2503(2) -0.5108(2)
H14 H -0.220(8) 0.252(2) -0.570(3)
H15 H -0.251(8) 0.250(2) -0.456(4)
O4A O 0.2720(4) 0.17791(9) -0.65090(13)
Li1A Li 0.1758(6) 0.2499(3) -0.0105(3)
O7A O 0.3082(4) 0.30032(9) -0.65159(13)
Si1A Si 0.36527(10) 0.23694(2) -0.76080(5)
loop_
_geom_bond_atom_site_label_1
_geom_bond_atom_site_label_2
_geom_bond_site_symmetry_1
_geom_bond_site_symmetry_2
Li1 O3 1_555 1_555
Si1 O1 1_555 1_555
O1 H1 1_555 1_555
C1 H2 1_555 1_555
H3 C1 1_555 1_555
C2 C1 1_555 1_555
H4 C2 1_555 1_555
C3 C2 1_555 1_555
H5 C3 1_555 1_555
C4 C3 1_555 1_555
H6 C4 1_555 1_555
H7 C4 1_555 1_555
O2 C1 1_555 1_555
O3 Si1 1_555 1_555
O4 Si1 1_555 1_555
C5 H8 1_555 1_555
H9 C5 1_555 1_555
C6 C5 1_555 1_555
H10 C6 1_555 1_555
C7 C6 1_555 1_555
H11 C7 1_555 1_555
C8 C7 1_555 1_555
H12 C8 1_555 1_555
H13 C8 1_555 1_555
O5 C5 1_555 1_555
O6 Li1 1_555 1_555
O7 Si1 1_555 1_555
O8 Li1 1_555 1_555
H14 O8 1_555 1_555
H15 O8 1_555 1_555
O4A Li1 1_555 1_555
Li1A O4 1_555 1_555
O7A Li1 1_555 1_555
Si1A O4A 1_555 1_555
Si1 O6 1_555 1_555
C2 O3 1_555 1_555
C3 O4 1_555 1_555
C4 O2 1_555 1_555
C6 O6 1_555 1_555
C7 O7 1_555 1_555
C8 O5 1_555 1_555
O7 Li1A 1_555 1_555
O7A Si1A 1_555 1_555

#END
