
#######################################################################
#
#                 Cambridge Crystallographic Data Centre
#                                CCDC 
#
#######################################################################
#
# If this CIF has been generated from an entry in the Cambridge 
# Structural Database, then it will include bibliographic, chemical, 
# crystal, experimental, refinement or atomic coordinate data resulting 
# from the CCDC's data processing and validation procedures.
#
#######################################################################

data_GOGMEV
_symmetry_cell_setting           triclinic
_symmetry_space_group_name_H-M   'P 1'
_symmetry_Int_Tables_number      1
_space_group_name_Hall           'P 1'
loop_
_symmetry_equiv_pos_site_id
_symmetry_equiv_pos_as_xyz
1 x,y,z
_cell_length_a                   8.5435(8)
_cell_length_b                   12.6309(12)
_cell_length_c                   16.1711(17)
_cell_angle_alpha                104.632(8)
_cell_angle_beta                 98.429(8)
_cell_angle_gamma                97.375(8)
_cell_volume                     1645.1
loop_
_atom_site_label
_atom_site_type_symbol
_atom_site_fract_x
_atom_site_fract_y
_atom_site_fract_z
Cu1 Cu 0.93087(9) 0.18925(6) 0.80432(6)
Cu2 Cu 0.40938(10) 0.17153(7) 0.29470(7)
Cr1 Cr 0.87670(10) 0.03660(7) 0.47234(6)
Cr2 Cr 0.94381(9) 0.31134(7) 1.12846(6)
N1 N 0.9797(6) 0.0369(4) 0.7529(4)
H1 H 1.0036 0.0317 0.6985
H2 H 1.0669 0.0245 0.7875
N2 N 0.7398(6) 0.1075(4) 0.8338(4)
H3 H 0.7278 0.1417 0.8893
H4 H 0.6482 0.1074 0.7958
N3 N 0.8868(7) 0.3437(4) 0.8537(4)
H5 H 0.7784 0.3447 0.8426
H6 H 0.9228 0.3670 0.9129
N4 N 1.1254(6) 0.2670(4) 0.7748(4)
H7 H 1.2154 0.2426 0.7965
H8 H 1.1159 0.2510 0.7154
N5 N 0.4824(6) 0.1282(4) 0.1791(4)
H9 H 0.5183 0.1910 0.1636
H10 H 0.5658 0.0894 0.1836
N6 N 0.2090(6) 0.0582(4) 0.2345(4)
H11 H 0.1793 0.0167 0.2708
H12 H 0.1255 0.0933 0.2198
N7 N 0.3327(6) 0.2197(4) 0.4062(4)
H13 H 0.2278 0.2301 0.3954
H14 H 0.3372 0.1660 0.4353
N8 N 0.6119(6) 0.2802(4) 0.3587(4)
H15 H 0.7005 0.2477 0.3494
H16 H 0.6188 0.3419 0.3381
N9 N 0.7786(7) 0.1782(5) 0.6452(5)
N10 N 0.9917(7) 0.2574(5) 0.4178(5)
N11 N 1.2108(8) 0.0832(6) 0.6062(5)
N12 N 1.0342(8) -0.1144(6) 0.3263(5)
N13 N 0.7526(7) -0.1909(5) 0.5172(4)
N14 N 0.5316(7) 0.0198(4) 0.3516(4)
N15 N 1.2930(7) 0.3309(4) 1.2449(4)
N16 N 0.8258(7) 0.0864(5) 1.1759(5)
N17 N 1.0602(7) 0.5362(5) 1.0793(5)
N18 N 0.7943(8) 0.4638(6) 1.2773(5)
N19 N 0.6087(7) 0.2623(6) 0.9942(5)
N20 N 1.0713(7) 0.1814(5) 0.9615(5)
C1 C 0.8361(7) -0.0470(4) 0.7467(4)
H17 H 0.7552 -0.0480 0.6950
C2 C 0.8741(9) -0.1647(5) 0.7354(5)
H18 H 0.9591 -0.1652 0.7839
H19 H 0.9134 -0.1894 0.6802
C3 C 0.7208(9) -0.2436(5) 0.7342(5)
H20 H 0.6400 -0.2480 0.6823
H21 H 0.7458 -0.3190 0.7299
C4 C 0.6518(12) -0.2049(6) 0.8148(6)
H22 H 0.7302 -0.2037 0.8667
H23 H 0.5531 -0.2571 0.8121
C5 C 0.6117(10) -0.0871(6) 0.8227(6)
H24 H 0.5309 -0.0882 0.7718
H25 H 0.5667 -0.0617 0.8759
C6 C 0.7657(8) -0.0085(5) 0.8270(4)
H26 H 0.8453 -0.0083 0.8790
C7 C 0.9736(7) 0.4165(5) 0.8107(4)
H27 H 0.9188 0.3967 0.7485
C8 C 0.9782(11) 0.5407(5) 0.8502(5)
H28 H 1.0270 0.5621 0.9128
H29 H 0.8675 0.5571 0.8448
C9 C 1.0776(9) 0.6078(5) 0.8025(5)
H30 H 1.0224 0.5915 0.7412
H31 H 1.0850 0.6882 0.8301
C10 C 1.2445(10) 0.5801(5) 0.8047(6)
H32 H 1.3029 0.6018 0.8657
H33 H 1.3041 0.6228 0.7721
C11 C 1.2376(9) 0.4563(6) 0.7647(6)
H34 H 1.3480 0.4394 0.7683
H35 H 1.1860 0.4354 0.7026
C12 C 1.1422(7) 0.3889(4) 0.8128(4)
H36 H 1.1984 0.4085 0.8748
C13 C 0.3455(6) 0.0581(4) 0.1115(4)
H37 H 0.2760 0.1082 0.0917
C14 C 0.3965(8) -0.0116(5) 0.0328(4)
H38 H 0.4701 -0.0594 0.0512
H39 H 0.4549 0.0374 0.0042
C15 C 0.2495(8) -0.0841(5) -0.0314(5)
H40 H 0.1825 -0.0361 -0.0547
H41 H 0.2852 -0.1328 -0.0808
C16 C 0.1495(7) -0.1552(5) 0.0113(4)
H42 H 0.0525 -0.1979 -0.0312
H43 H 0.2127 -0.2088 0.0291
C17 C 0.0998(8) -0.0845(5) 0.0898(5)
H44 H 0.0384 -0.1328 0.1178
H45 H 0.0293 -0.0351 0.0715
C18 C 0.2477(6) -0.0145(4) 0.1551(4)
H46 H 0.3163 -0.0661 0.1733
C19 C 0.4364(6) 0.3255(4) 0.4604(4)
H47 H 0.4084 0.3863 0.4346
C20 C 0.4155(8) 0.3567(6) 0.5529(5)
H48 H 0.4342 0.2950 0.5785
H49 H 0.3036 0.3683 0.5551
C21 C 0.5326(8) 0.4640(5) 0.6077(5)
H50 H 0.5060 0.5281 0.5871
H51 H 0.5220 0.4787 0.6696
C22 C 0.7037(8) 0.4494(5) 0.5988(4)
H52 H 0.7779 0.5192 0.6313
H53 H 0.7328 0.3899 0.6248
C23 C 0.7236(8) 0.4197(5) 0.5044(5)
H54 H 0.8357 0.4095 0.5011
H55 H 0.7017 0.4813 0.4792
C24 C 0.6086(6) 0.3129(4) 0.4515(4)
H56 H 0.6363 0.2511 0.4760
C25 C 0.8058(8) 0.1282(5) 0.5807(5)
C26 C 0.9510(7) 0.1782(5) 0.4375(5)
C27 C 1.0956(9) 0.0633(6) 0.5549(5)
C28 C 0.9706(9) -0.0596(6) 0.3747(6)
C29 C 0.7964(8) -0.1096(5) 0.5029(5)
C30 C 0.6545(8) 0.0231(5) 0.3939(5)
C31 C 1.1681(8) 0.3271(4) 1.2046(5)
C32 C 0.8691(7) 0.1661(5) 1.1591(5)
C33 C 1.0162(8) 0.4548(6) 1.0942(5)
C34 C 0.8500(8) 0.4070(6) 1.2263(5)
C35 C 0.7275(8) 0.2831(5) 1.0444(5)
C36 C 1.0300(7) 0.2254(5) 1.0234(5)
Cu2_2 Cu 1.40938(10) 0.17153(7) 1.29470(7)
N15_2 N 0.2930(7) 0.3309(4) 0.2449(4)
Cu3 Cu 0.40334(11) 0.67548(7) 0.29759(7)
O1 O 0.6136(7) 0.6041(4) 0.3784(4)
H57 H 0.6877 0.6481 0.4140
H58 H 0.675(10) 0.570(7) 0.339(6)
O2 O 0.1948(6) 0.7410(4) 0.2155(4)
H59 H 0.1369 0.7820 0.2384
H60 H 0.165(9) 0.694(5) 0.178(5)
N21 N 0.5703(7) 0.7704(4) 0.2587(4)
H61 H 0.5530 0.8427 0.2712
H62 H 0.6714 0.7695 0.2871
N22 N 0.4149(6) 0.5588(4) 0.1877(4)
H63 H 0.4369 0.4951 0.2014
H64 H 0.3172 0.5415 0.1505
N23 N 0.2413(7) 0.5770(4) 0.3376(4)
H65 H 0.1532 0.5474 0.2938
H66 H 0.2864 0.5194 0.3504
N24 N 0.3914(6) 0.7902(4) 0.4082(4)
H67 H 0.4911 0.8327 0.4326
H68 H 0.3216 0.8364 0.3962
C37 C 0.5570(6) 0.7245(4) 0.1638(4)
H69 H 0.4544 0.7404 0.1350
C38 C 0.6918(8) 0.7744(6) 0.1262(6)
H70 H 0.6937 0.8553 0.1371
H71 H 0.7963 0.7631 0.1552
C39 C 0.6680(8) 0.7206(5) 0.0295(5)
H72 H 0.7628 0.7482 0.0075
H73 H 0.5731 0.7430 -0.0001
C40 C 0.6441(8) 0.5940(6) 0.0062(5)
H74 H 0.6183 0.5635 -0.0579
H75 H 0.7453 0.5710 0.0276
C41 C 0.5094(9) 0.5465(6) 0.0457(5)
H76 H 0.5028 0.4650 0.0336
H77 H 0.4054 0.5613 0.0191
C42 C 0.5420(7) 0.6000(5) 0.1442(4)
H78 H 0.6462 0.5825 0.1697
C43 C 0.1908(7) 0.6416(4) 0.4150(4)
H79 H 0.1029 0.6800 0.3956
C44 C 0.1293(9) 0.5717(6) 0.4719(5)
H80 H 0.0317 0.5186 0.4382
H81 H 0.2119 0.5282 0.4874
C45 C 0.0900(8) 0.6412(6) 0.5542(5)
H82 H 0.0594 0.5925 0.5906
H83 H -0.0035 0.6762 0.5390
C46 C 0.2303(8) 0.7314(5) 0.6064(5)
H84 H 0.3194 0.6970 0.6285
H85 H 0.1964 0.7792 0.6569
C47 C 0.2885(9) 0.8031(6) 0.5477(5)
H86 H 0.2017 0.8417 0.5290
H87 H 0.3823 0.8600 0.5811
C48 C 0.3340(7) 0.7306(4) 0.4695(4)
H88 H 0.4212 0.6922 0.4898
O3 O 0.5026(7) 0.1699(9) 0.7146(5)
O4 O 0.3256(7) 0.1381(6) 0.8687(4)
H89 H 0.402(9) 0.185(5) 0.914(5)
H90 H 0.274(8) 0.158(5) 0.904(4)
O5 O 0.5508(9) 0.3552(6) 0.8414(5)
loop_
_geom_bond_atom_site_label_1
_geom_bond_atom_site_label_2
_geom_bond_site_symmetry_1
_geom_bond_site_symmetry_2
Cu1 N1 1_555 1_555
Cu2 N5 1_555 1_555
Cr1 C25 1_555 1_555
Cr2 C31 1_555 1_555
N1 H1 1_555 1_555
H2 N1 1_555 1_555
N2 Cu1 1_555 1_555
H3 N2 1_555 1_555
H4 N2 1_555 1_555
N3 Cu1 1_555 1_555
H5 N3 1_555 1_555
H6 N3 1_555 1_555
N4 Cu1 1_555 1_555
H7 N4 1_555 1_555
H8 N4 1_555 1_555
N5 H9 1_555 1_555
H10 N5 1_555 1_555
N6 Cu2 1_555 1_555
H11 N6 1_555 1_555
H12 N6 1_555 1_555
N7 Cu2 1_555 1_555
H13 N7 1_555 1_555
H14 N7 1_555 1_555
N8 Cu2 1_555 1_555
H15 N8 1_555 1_555
H16 N8 1_555 1_555
N9 Cu1 1_555 1_555
N10 C26 1_555 1_555
N11 C27 1_555 1_555
N12 C28 1_555 1_555
N13 C29 1_555 1_555
N14 Cu2 1_555 1_555
N15 C31 1_555 1_555
N16 C32 1_555 1_555
N17 C33 1_555 1_555
N18 C34 1_555 1_555
N19 C35 1_555 1_555
N20 Cu1 1_555 1_555
C1 N1 1_555 1_555
H17 C1 1_555 1_555
C2 C1 1_555 1_555
H18 C2 1_555 1_555
H19 C2 1_555 1_555
C3 C2 1_555 1_555
H20 C3 1_555 1_555
H21 C3 1_555 1_555
C4 C3 1_555 1_555
H22 C4 1_555 1_555
H23 C4 1_555 1_555
C5 C4 1_555 1_555
H24 C5 1_555 1_555
H25 C5 1_555 1_555
C6 N2 1_555 1_555
H26 C6 1_555 1_555
C7 N3 1_555 1_555
H27 C7 1_555 1_555
C8 C7 1_555 1_555
H28 C8 1_555 1_555
H29 C8 1_555 1_555
C9 C8 1_555 1_555
H30 C9 1_555 1_555
H31 C9 1_555 1_555
C10 C9 1_555 1_555
H32 C10 1_555 1_555
H33 C10 1_555 1_555
C11 C10 1_555 1_555
H34 C11 1_555 1_555
H35 C11 1_555 1_555
C12 N4 1_555 1_555
H36 C12 1_555 1_555
C13 N5 1_555 1_555
H37 C13 1_555 1_555
C14 C13 1_555 1_555
H38 C14 1_555 1_555
H39 C14 1_555 1_555
C15 C14 1_555 1_555
H40 C15 1_555 1_555
H41 C15 1_555 1_555
C16 C15 1_555 1_555
H42 C16 1_555 1_555
H43 C16 1_555 1_555
C17 C16 1_555 1_555
H44 C17 1_555 1_555
H45 C17 1_555 1_555
C18 N6 1_555 1_555
H46 C18 1_555 1_555
C19 N7 1_555 1_555
H47 C19 1_555 1_555
C20 C19 1_555 1_555
H48 C20 1_555 1_555
H49 C20 1_555 1_555
C21 C20 1_555 1_555
H50 C21 1_555 1_555
H51 C21 1_555 1_555
C22 C21 1_555 1_555
H52 C22 1_555 1_555
H53 C22 1_555 1_555
C23 C22 1_555 1_555
H54 C23 1_555 1_555
H55 C23 1_555 1_555
C24 N8 1_555 1_555
H56 C24 1_555 1_555
C25 N9 1_555 1_555
C26 Cr1 1_555 1_555
C27 Cr1 1_555 1_555
C28 Cr1 1_555 1_555
C29 Cr1 1_555 1_555
C30 Cr1 1_555 1_555
C32 Cr2 1_555 1_555
C33 Cr2 1_555 1_555
C34 Cr2 1_555 1_555
C35 Cr2 1_555 1_555
C36 Cr2 1_555 1_555
Cu3 O1 1_555 1_555
O1 H57 1_555 1_555
H58 O1 1_555 1_555
O2 Cu3 1_555 1_555
H59 O2 1_555 1_555
H60 O2 1_555 1_555
N21 Cu3 1_555 1_555
H61 N21 1_555 1_555
H62 N21 1_555 1_555
N22 Cu3 1_555 1_555
H63 N22 1_555 1_555
H64 N22 1_555 1_555
N23 Cu3 1_555 1_555
H65 N23 1_555 1_555
H66 N23 1_555 1_555
N24 Cu3 1_555 1_555
H67 N24 1_555 1_555
H68 N24 1_555 1_555
C37 N21 1_555 1_555
H69 C37 1_555 1_555
C38 C37 1_555 1_555
H70 C38 1_555 1_555
H71 C38 1_555 1_555
C39 C38 1_555 1_555
H72 C39 1_555 1_555
H73 C39 1_555 1_555
C40 C39 1_555 1_555
H74 C40 1_555 1_555
H75 C40 1_555 1_555
C41 C40 1_555 1_555
H76 C41 1_555 1_555
H77 C41 1_555 1_555
C42 N22 1_555 1_555
H78 C42 1_555 1_555
C43 N23 1_555 1_555
H79 C43 1_555 1_555
C44 C43 1_555 1_555
H80 C44 1_555 1_555
H81 C44 1_555 1_555
C45 C44 1_555 1_555
H82 C45 1_555 1_555
H83 C45 1_555 1_555
C46 C45 1_555 1_555
H84 C46 1_555 1_555
H85 C46 1_555 1_555
C47 C46 1_555 1_555
H86 C47 1_555 1_555
H87 C47 1_555 1_555
C48 N24 1_555 1_555
H88 C48 1_555 1_555
O4 H89 1_555 1_555
H90 O4 1_555 1_555
Cu2_2 N15 1_555 1_555
N15_2 Cu2 1_555 1_555
N14 C30 1_555 1_555
N20 C36 1_555 1_555
C1 C6 1_555 1_555
C5 C6 1_555 1_555
C7 C12 1_555 1_555
C11 C12 1_555 1_555
C13 C18 1_555 1_555
C17 C18 1_555 1_555
C19 C24 1_555 1_555
C23 C24 1_555 1_555
C37 C42 1_555 1_555
C41 C42 1_555 1_555
C43 C48 1_555 1_555
C47 C48 1_555 1_555

#END
