
#######################################################################
#
#                 Cambridge Crystallographic Data Centre
#                                CCDC 
#
#######################################################################
#
# If this CIF has been generated from an entry in the Cambridge 
# Structural Database, then it will include bibliographic, chemical, 
# crystal, experimental, refinement or atomic coordinate data resulting 
# from the CCDC's data processing and validation procedures.
#
#######################################################################

data_GOGMIY
_symmetry_cell_setting           monoclinic
_symmetry_space_group_name_H-M   'P 21/c'
_symmetry_Int_Tables_number      14
_space_group_name_Hall           '-P 2ybc'
loop_
_symmetry_equiv_pos_site_id
_symmetry_equiv_pos_as_xyz
1 x,y,z
2 x,1/2-y,1/2+z
3 -x,-y,-z
4 -x,1/2+y,1/2-z
_cell_length_a                   5.6387(5)
_cell_length_b                   19.0418(15)
_cell_length_c                   11.0888(10)
_cell_angle_alpha                90
_cell_angle_beta                 90.014(11)
_cell_angle_gamma                90
_cell_volume                     1190.62
loop_
_atom_site_label
_atom_site_type_symbol
_atom_site_fract_x
_atom_site_fract_y
_atom_site_fract_z
Li1 Li 0.3189(13) 0.2491(5) 0.4840(8)
Ge1 Ge 0.12036(8) 0.269114(15) 0.23389(3)
C1 C 0.4990(11) 0.4278(3) 0.3379(4)
H1 H 0.4921 0.4789 0.3534
H2 H 0.5610 0.4041 0.4109
C2 C 0.2532(9) 0.3998(2) 0.3065(4)
H3 H 0.1262 0.4315 0.3381
C3 C 0.2577(9) 0.3999(2) 0.1631(4)
H4 H 0.1319 0.4317 0.1305
C4 C 0.5009(11) 0.4282(3) 0.1338(5)
H5 H 0.5651 0.4049 0.0609
H6 H 0.4936 0.4794 0.1189
C5 C 0.0188(12) 0.0842(3) 0.3363(5)
H7 H 0.0813 0.0364 0.3518
H8 H -0.0630 0.1010 0.4099
C6 C 0.2162(8) 0.1332(2) 0.3029(4)
H9 H 0.3709 0.1143 0.3329
C7 C 0.2129(10) 0.1331(2) 0.1622(4)
H10 H 0.3630 0.1125 0.1297
C8 C 0.0057(14) 0.0868(3) 0.1325(5)
H11 H -0.0853 0.1067 0.0642
H12 H 0.0609 0.0393 0.1099
O1 O 0.6482(5) 0.41341(13) 0.2365(3)
O2 O 0.2225(6) 0.33084(16) 0.3485(2)
O3 O 0.2252(6) 0.33123(16) 0.1207(2)
O4 O -0.1385(7) 0.08351(19) 0.2375(4)
O5 O 0.1810(7) 0.20159(15) 0.3465(2)
O6 O 0.1814(7) 0.20248(16) 0.1194(2)
O7 O -0.1935(5) 0.27359(15) 0.2326(4)
H13 H -0.219(10) 0.3066(19) 0.235(6)
O8 O 0.6504(7) 0.2497(4) 0.4843(4)
H14 H 0.687(12) 0.237(3) 0.534(4)
H15 H 0.725(11) 0.249(4) 0.440(5)
O3A O 0.2252(6) 0.16877(16) 0.6207(2)
O6A O 0.1814(7) 0.29752(16) 0.6194(2)
Ge1A Ge 0.12036(8) 0.230886(15) 0.73389(3)
Li1A Li 0.3189(13) 0.2509(5) -0.0160(8)
loop_
_geom_bond_atom_site_label_1
_geom_bond_atom_site_label_2
_geom_bond_site_symmetry_1
_geom_bond_site_symmetry_2
Li1 O2 1_555 1_555
Ge1 O2 1_555 1_555
C1 H1 1_555 1_555
H2 C1 1_555 1_555
C2 C1 1_555 1_555
H3 C2 1_555 1_555
C3 C2 1_555 1_555
H4 C3 1_555 1_555
C4 C3 1_555 1_555
H5 C4 1_555 1_555
H6 C4 1_555 1_555
C5 H7 1_555 1_555
H8 C5 1_555 1_555
C6 C5 1_555 1_555
H9 C6 1_555 1_555
C7 C6 1_555 1_555
H10 C7 1_555 1_555
C8 C7 1_555 1_555
H11 C8 1_555 1_555
H12 C8 1_555 1_555
O1 C1 1_555 1_555
O2 C2 1_555 1_555
O3 Ge1 1_555 1_555
O4 C5 1_555 1_555
O5 Li1 1_555 1_555
O6 Ge1 1_555 1_555
O7 Ge1 1_555 1_555
H13 O7 1_555 1_555
O8 Li1 1_555 1_555
H14 O8 1_555 1_555
H15 O8 1_555 1_555
O3A Li1 1_555 1_555
O6A Li1 1_555 1_555
Ge1A O3A 1_555 1_555
Li1A O3 1_555 1_555
Ge1 O5 1_555 1_555
C3 O3 1_555 1_555
C4 O1 1_555 1_555
C6 O5 1_555 1_555
C7 O6 1_555 1_555
C8 O4 1_555 1_555
O6 Li1A 1_555 1_555
O6A Ge1A 1_555 1_555

#END
