
#######################################################################
#
#                 Cambridge Crystallographic Data Centre
#                                CCDC 
#
#######################################################################
#
# If this CIF has been generated from an entry in the Cambridge 
# Structural Database, then it will include bibliographic, chemical, 
# crystal, experimental, refinement or atomic coordinate data resulting 
# from the CCDC's data processing and validation procedures.
#
#######################################################################

data_GOGNAT
_symmetry_cell_setting           triclinic
_symmetry_space_group_name_H-M   'P -1'
_symmetry_Int_Tables_number      2
_space_group_name_Hall           '-P 1'
loop_
_symmetry_equiv_pos_site_id
_symmetry_equiv_pos_as_xyz
1 x,y,z
2 -x,-y,-z
_cell_length_a                   9.3776(7)
_cell_length_b                   9.6121(5)
_cell_length_c                   10.4644(8)
_cell_angle_alpha                97.932(5)
_cell_angle_beta                 102.433(4)
_cell_angle_gamma                100.395(5)
_cell_volume                     890.518
loop_
_atom_site_label
_atom_site_type_symbol
_atom_site_fract_x
_atom_site_fract_y
_atom_site_fract_z
Tb1 Tb 0.118217(17) 0.762126(14) 0.280707(14)
O1 O 0.3106(3) 0.9068(2) 0.2320(2)
O2 O 0.2840(3) 0.6158(2) 0.2414(2)
O3 O 0.3253(3) 0.7982(2) 0.4914(2)
O4 O 0.1417(3) 0.6159(2) 0.4625(2)
O5 O 0.3502(3) 0.6309(3) 0.6082(3)
O6 O -0.1614(3) 0.7147(2) 0.1466(2)
O7 O -0.0226(3) 0.9276(2) 0.1712(2)
O8 O -0.2391(3) 0.8666(2) 0.0255(3)
N1 N 0.0750(3) 0.6910(3) 0.0246(3)
N2 N 0.0124(3) 0.5075(3) -0.1700(3)
N3 N -0.0687(3) 0.8111(3) 0.4311(3)
N4 N -0.1636(3) 0.9750(3) 0.5653(3)
N5 N 0.2750(3) 0.6807(3) 0.5235(3)
N6 N -0.1451(3) 0.8369(3) 0.1122(3)
C1 C 0.0242(4) 0.5543(3) -0.0401(3)
C2 C 0.0513(4) 0.6075(3) -0.2397(3)
H1 H 0.0443 0.5794 -0.3299
C3 C 0.1019(4) 0.7515(3) -0.1830(3)
H2 H 0.1270 0.8201 -0.2336
C4 C 0.1138(4) 0.7897(3) -0.0487(3)
H3 H 0.1493 0.8857 -0.0077
C5 C -0.0644(4) 0.9418(3) 0.4992(3)
C6 C -0.2801(4) 0.8688(4) 0.5613(4)
H4 H -0.3530 0.8883 0.6046
C7 C -0.2936(4) 0.7299(4) 0.4938(4)
H5 H -0.3738 0.6560 0.4914
C8 C -0.1844(4) 0.7068(3) 0.4312(3)
H6 H -0.1906 0.6144 0.3865
C9 C 0.5249(4) 1.0283(3) 0.1772(3)
H7 H 0.4645 1.0824 0.1269
H8 H 0.5981 1.0044 0.1313
H9 H 0.5746 1.0849 0.2635
C10 C 0.4272(4) 0.8924(3) 0.1923(3)
C11 C 0.4683(4) 0.7602(4) 0.1647(3)
H10 H 0.5483 0.7584 0.1255
C12 C 0.3963(4) 0.6302(3) 0.1926(3)
C13 C 0.4545(4) 0.4961(4) 0.1608(4)
H11 H 0.4591 0.4454 0.2340
H12 H 0.5527 0.5225 0.1464
H13 H 0.3886 0.4353 0.0820
N1A N -0.0750(3) 0.3090(3) -0.0246(3)
N2A N -0.0124(3) 0.4925(3) 0.1700(3)
C1A C -0.0242(4) 0.4457(3) 0.0401(3)
C2A C -0.0513(4) 0.3925(3) 0.2397(3)
H1A H -0.0443 0.4206 0.3299
C3A C -0.1019(4) 0.2485(3) 0.1830(3)
H2A H -0.1270 0.1799 0.2336
C4A C -0.1138(4) 0.2103(3) 0.0487(3)
H3A H -0.1493 0.1143 0.0077
N3A N 0.0687(3) 1.1889(3) 0.5689(3)
N4A N 0.1636(3) 1.0250(3) 0.4347(3)
C5A C 0.0644(4) 1.0582(3) 0.5008(3)
C6A C 0.2801(4) 1.1312(4) 0.4387(4)
H4A H 0.3530 1.1117 0.3954
C7A C 0.2936(4) 1.2701(4) 0.5062(4)
H5A H 0.3738 1.3440 0.5086
C8A C 0.1844(4) 1.2932(3) 0.5688(3)
H6A H 0.1906 1.3856 0.6135
Tb1A Tb -0.118217(17) 0.237874(14) -0.280707(14)
O1A O -0.3106(3) 0.0932(2) -0.2320(2)
O2A O -0.2840(3) 0.3842(2) -0.2414(2)
O3A O -0.3253(3) 0.2018(2) -0.4914(2)
O4A O -0.1417(3) 0.3841(2) -0.4625(2)
O5A O -0.3502(3) 0.3691(3) -0.6082(3)
O6A O 0.1614(3) 0.2853(2) -0.1466(2)
O7A O 0.0226(3) 0.0724(2) -0.1712(2)
O8A O 0.2391(3) 0.1334(2) -0.0255(3)
N5A N -0.2750(3) 0.3193(3) -0.5235(3)
N6A N 0.1451(3) 0.1631(3) -0.1122(3)
C9A C -0.5249(4) -0.0283(3) -0.1772(3)
H7A H -0.4645 -0.0824 -0.1269
H8A H -0.5981 -0.0044 -0.1313
H9A H -0.5746 -0.0849 -0.2635
C10A C -0.4272(4) 0.1076(3) -0.1923(3)
C11A C -0.4683(4) 0.2398(4) -0.1647(3)
H10A H -0.5483 0.2416 -0.1255
C12A C -0.3963(4) 0.3698(3) -0.1926(3)
C13A C -0.4545(4) 0.5039(4) -0.1608(4)
H11A H -0.4591 0.5546 -0.2340
H12A H -0.5527 0.4775 -0.1464
H13A H -0.3886 0.5647 -0.0820
Tb1A_2 Tb -0.118217(17) 1.237874(14) 0.719293(14)
N3A_2 N 0.0687(3) 0.1889(3) -0.4311(3)
N4_2 N -0.1636(3) -0.0250(3) -0.4347(3)
loop_
_geom_bond_atom_site_label_1
_geom_bond_atom_site_label_2
_geom_bond_site_symmetry_1
_geom_bond_site_symmetry_2
Tb1 O1 1_555 1_555
O1 C10 1_555 1_555
O2 Tb1 1_555 1_555
O3 Tb1 1_555 1_555
O4 Tb1 1_555 1_555
O5 N5 1_555 1_555
O6 Tb1 1_555 1_555
O7 Tb1 1_555 1_555
O8 N6 1_555 1_555
N1 Tb1 1_555 1_555
N2 C1 1_555 1_555
N3 Tb1 1_555 1_555
N4 C5 1_555 1_555
N5 O3 1_555 1_555
N6 O6 1_555 1_555
C1 N1 1_555 1_555
C2 N2 1_555 1_555
H1 C2 1_555 1_555
C3 C2 1_555 1_555
H2 C3 1_555 1_555
C4 N1 1_555 1_555
H3 C4 1_555 1_555
C5 N3 1_555 1_555
C6 N4 1_555 1_555
H4 C6 1_555 1_555
C7 C6 1_555 1_555
H5 C7 1_555 1_555
C8 N3 1_555 1_555
H6 C8 1_555 1_555
C9 H7 1_555 1_555
H8 C9 1_555 1_555
H9 C9 1_555 1_555
C10 C9 1_555 1_555
C11 C10 1_555 1_555
H10 C11 1_555 1_555
C12 O2 1_555 1_555
C13 C12 1_555 1_555
H11 C13 1_555 1_555
H12 C13 1_555 1_555
H13 C13 1_555 1_555
N1A C1A 1_555 1_555
N2A Tb1 1_555 1_555
C1A C1 1_555 1_555
C2A N2A 1_555 1_555
H1A C2A 1_555 1_555
C3A C2A 1_555 1_555
H2A C3A 1_555 1_555
C4A N1A 1_555 1_555
H3A C4A 1_555 1_555
N3A C5A 1_555 1_555
N4A Tb1 1_555 1_555
C5A C5 1_555 1_555
C6A N4A 1_555 1_555
H4A C6A 1_555 1_555
C7A C6A 1_555 1_555
H5A C7A 1_555 1_555
C8A N3A 1_555 1_555
H6A C8A 1_555 1_555
Tb1A N2 1_555 1_555
O1A Tb1A 1_555 1_555
O2A Tb1A 1_555 1_555
O3A Tb1A 1_555 1_555
O4A Tb1A 1_555 1_555
O5A N5A 1_555 1_555
O6A Tb1A 1_555 1_555
O7A Tb1A 1_555 1_555
O8A N6A 1_555 1_555
N5A O3A 1_555 1_555
N6A O6A 1_555 1_555
C9A H7A 1_555 1_555
H8A C9A 1_555 1_555
H9A C9A 1_555 1_555
C10A O1A 1_555 1_555
C11A C10A 1_555 1_555
H10A C11A 1_555 1_555
C12A O2A 1_555 1_555
C13A C12A 1_555 1_555
H11A C13A 1_555 1_555
H12A C13A 1_555 1_555
H13A C13A 1_555 1_555
Tb1A_2 N4 1_555 1_555
N3A_2 Tb1A 1_555 1_555
N4_2 Tb1A 1_555 1_555
O4 N5 1_555 1_555
O7 N6 1_555 1_555
C3 C4 1_555 1_555
C7 C8 1_555 1_555
C11 C12 1_555 1_555
N1A Tb1A 1_555 1_555
N2A C1A 1_555 1_555
C3A C4A 1_555 1_555
N3A Tb1A_2 1_555 1_555
N4A C5A 1_555 1_555
C7A C8A 1_555 1_555
O4A N5A 1_555 1_555
O7A N6A 1_555 1_555
C9A C10A 1_555 1_555
C11A C12A 1_555 1_555

#END
