
#######################################################################
#
#                 Cambridge Crystallographic Data Centre
#                                CCDC 
#
#######################################################################
#
# If this CIF has been generated from an entry in the Cambridge 
# Structural Database, then it will include bibliographic, chemical, 
# crystal, experimental, refinement or atomic coordinate data resulting 
# from the CCDC's data processing and validation procedures.
#
#######################################################################

data_GOGNOH
_symmetry_cell_setting           orthorhombic
_symmetry_space_group_name_H-M   'P b c a'
_symmetry_Int_Tables_number      61
_space_group_name_Hall           '-P 2ac 2ab'
loop_
_symmetry_equiv_pos_site_id
_symmetry_equiv_pos_as_xyz
1 x,y,z
2 1/2-x,-y,1/2+z
3 -x,1/2+y,1/2-z
4 1/2+x,1/2-y,-z
5 -x,-y,-z
6 1/2+x,y,1/2-z
7 x,1/2-y,1/2+z
8 1/2-x,1/2+y,z
_cell_length_a                   8.5458(4)
_cell_length_b                   13.7766(6)
_cell_length_c                   16.5582(7)
_cell_angle_alpha                90
_cell_angle_beta                 90
_cell_angle_gamma                90
_cell_volume                     1949.43
loop_
_atom_site_label
_atom_site_type_symbol
_atom_site_fract_x
_atom_site_fract_y
_atom_site_fract_z
Eu1 Eu 0.14776(3) 0.632916(19) 0.476824(16)
Cl1 Cl -0.07702(15) 0.55801(9) 0.59499(7)
O1 O 0.3982(5) 0.7448(3) 0.5224(2)
O2 O 0.1930(5) 0.7551(3) 0.5996(2)
O3 O 0.3997(5) 0.8436(3) 0.6246(2)
O4 O 0.2231(5) 0.7578(3) 0.3692(2)
H1 H 0.2738 0.8164 0.3808
N1 N 0.3460(5) 0.5285(3) 0.5716(3)
N2 N 0.5832(5) 0.4387(3) 0.5861(3)
N3 N 0.3294(5) 0.7826(3) 0.5831(3)
C1 C 0.4806(6) 0.4912(4) 0.5439(3)
C2 C 0.3158(7) 0.5146(4) 0.6498(3)
H2 H 0.2230 0.5387 0.6711
C3 C 0.4177(7) 0.4656(4) 0.7002(3)
H3 H 0.3983 0.4592 0.7552
C4 C 0.5493(7) 0.4267(4) 0.6649(3)
H4 H 0.6176 0.3907 0.6967
C5 C 0.1589(8) 0.7923(5) 0.2956(4)
H5 H 0.0771 0.7494 0.2782
H6 H 0.2394 0.7946 0.2552
H7 H 0.1169 0.8562 0.3036
N1D N 0.6540(5) 0.4715(3) 0.4284(3)
N2D N 0.4168(5) 0.5613(3) 0.4139(3)
C1D C 0.5194(6) 0.5088(4) 0.4561(3)
C2D C 0.6842(7) 0.4854(4) 0.3502(3)
H2D H 0.7770 0.4613 0.3289
C3D C 0.5823(7) 0.5344(4) 0.2998(3)
H3D H 0.6017 0.5408 0.2448
C4D C 0.4507(7) 0.5733(4) 0.3351(3)
H4D H 0.3824 0.6093 0.3033
Eu1D Eu -0.14776(3) 0.367084(19) 0.523176(16)
Cl1D Cl 0.07702(15) 0.44199(9) 0.40501(7)
O1D O -0.3982(5) 0.2552(3) 0.4776(2)
O2D O -0.1930(5) 0.2449(3) 0.4004(2)
O3D O -0.3997(5) 0.1564(3) 0.3754(2)
O4D O -0.2231(5) 0.2422(3) 0.6308(2)
H1D H -0.2738 0.1836 0.6192
N3D N -0.3294(5) 0.2174(3) 0.4169(3)
C5D C -0.1589(8) 0.2077(5) 0.7044(4)
H5D H -0.0771 0.2506 0.7218
H6D H -0.2394 0.2054 0.7448
H7D H -0.1169 0.1438 0.6964
Eu1C Eu 0.64776(3) 0.867084(19) 0.523176(16)
Eu1D_2 Eu 0.85224(3) 0.367084(19) 0.523176(16)
Eu1G Eu -0.64776(3) 0.132916(19) 0.476824(16)
O1C O -0.1018(5) 0.7552(3) 0.4776(2)
O1G O 0.1018(5) 0.2448(3) 0.5224(2)
O3C O -0.1003(5) 0.6564(3) 0.3754(2)
O3G O 0.1003(5) 0.3436(3) 0.6246(2)
N1D_2 N -0.3460(5) 0.4715(3) 0.4284(3)
N2_2 N -0.4168(5) 0.4387(3) 0.5861(3)
loop_
_geom_bond_atom_site_label_1
_geom_bond_atom_site_label_2
_geom_bond_site_symmetry_1
_geom_bond_site_symmetry_2
Eu1 Cl1 1_555 1_555
Cl1 Eu1D 1_555 1_555
O1 Eu1 1_555 1_555
O2 Eu1 1_555 1_555
O3 N3 1_555 1_555
O4 Eu1 1_555 1_555
H1 O4 1_555 1_555
N1 Eu1 1_555 1_555
N2 C1 1_555 1_555
N3 O1 1_555 1_555
C1 N1 1_555 1_555
C2 N1 1_555 1_555
H2 C2 1_555 1_555
C3 C2 1_555 1_555
H3 C3 1_555 1_555
C4 N2 1_555 1_555
H4 C4 1_555 1_555
C5 O4 1_555 1_555
H5 C5 1_555 1_555
H6 C5 1_555 1_555
H7 C5 1_555 1_555
N1D C1D 1_555 1_555
N2D Eu1 1_555 1_555
C1D C1 1_555 1_555
C2D N1D 1_555 1_555
H2D C2D 1_555 1_555
C3D C2D 1_555 1_555
H3D C3D 1_555 1_555
C4D N2D 1_555 1_555
H4D C4D 1_555 1_555
Eu1D Cl1D 1_555 1_555
Cl1D Eu1 1_555 1_555
O1D Eu1D 1_555 1_555
O2D Eu1D 1_555 1_555
O3D N3D 1_555 1_555
O4D Eu1D 1_555 1_555
H1D O4D 1_555 1_555
N3D O1D 1_555 1_555
C5D O4D 1_555 1_555
H5D C5D 1_555 1_555
H6D C5D 1_555 1_555
H7D C5D 1_555 1_555
Eu1C O1 1_555 1_555
Eu1D_2 N2 1_555 1_555
Eu1G O1D 1_555 1_555
O1C Eu1 1_555 1_555
O1G Eu1D 1_555 1_555
O3C Eu1 1_555 1_555
O3G Eu1D 1_555 1_555
N1D_2 Eu1D 1_555 1_555
N2_2 Eu1D 1_555 1_555
O2 N3 1_555 1_555
O3 Eu1C 1_555 1_555
C3 C4 1_555 1_555
N1D Eu1D_2 1_555 1_555
N2D C1D 1_555 1_555
C3D C4D 1_555 1_555
O2D N3D 1_555 1_555
O3D Eu1G 1_555 1_555

#END
