
#######################################################################
#
#                 Cambridge Crystallographic Data Centre
#                                CCDC 
#
#######################################################################
#
# If this CIF has been generated from an entry in the Cambridge 
# Structural Database, then it will include bibliographic, chemical, 
# crystal, experimental, refinement or atomic coordinate data resulting 
# from the CCDC's data processing and validation procedures.
#
#######################################################################

data_GOGWOP
_symmetry_cell_setting           monoclinic
_symmetry_space_group_name_H-M   'P 21/n'
_symmetry_Int_Tables_number      14
_space_group_name_Hall           '-P 2yn'
loop_
_symmetry_equiv_pos_site_id
_symmetry_equiv_pos_as_xyz
1 x,y,z
2 1/2-x,1/2+y,1/2-z
3 -x,-y,-z
4 1/2+x,1/2-y,1/2+z
_cell_length_a                   7.7884(16)
_cell_length_b                   15.030(3)
_cell_length_c                   15.661(3)
_cell_angle_alpha                90
_cell_angle_beta                 93.89(3)
_cell_angle_gamma                90
_cell_volume                     1829.05
loop_
_atom_site_label
_atom_site_type_symbol
_atom_site_fract_x
_atom_site_fract_y
_atom_site_fract_z
Cd1 Cd 0.26096(4) 1.33042(2) 0.12925(2)
Cd2 Cd 0.26075(5) 0.94859(2) 0.00655(2)
O1 O 0.0985(4) 1.2028(2) 0.1119(2)
O2 O 0.4348(4) 1.2175(2) 0.0873(2)
O3 O 0.0959(4) 1.0645(2) 0.0602(2)
O4 O 0.4413(4) 1.0752(2) 0.0459(2)
O5 O 0.4186(4) 1.3304(2) 0.2573(2)
O6 O 0.0764(4) 1.3619(2) 0.2341(2)
O7 O 0.4166(4) 1.3787(2) 0.3916(2)
O8 O 0.0694(4) 1.3982(2) 0.3716(2)
O9 O 0.2324(5) 0.8127(3) -0.0520(3)
H1 H 0.137(5) 0.810(5) -0.084(4)
H2 H 0.285(8) 0.789(4) -0.094(3)
O10 O 0.2349(5) 1.0269(3) -0.1230(3)
H3 H 0.322(10) 1.056(5) -0.121(4)
H4 H 0.168(10) 1.054(5) -0.119(5)
N1 N 0.3461(6) 1.4820(3) 0.1168(3)
N2 N 0.1714(6) 1.3820(3) -0.0060(3)
C1 C 0.4222(8) 1.5305(4) 0.1799(4)
H5 H 0.4521 1.5029 0.2320
C2 C 0.4588(8) 1.6202(4) 0.1713(4)
H6 H 0.5111 1.6522 0.2168
C3 C 0.4159(8) 1.6606(4) 0.0941(4)
H7 H 0.4411 1.7204 0.0860
C4 C 0.3349(8) 1.6113(3) 0.0286(4)
H8 H 0.3036 1.6377 -0.0239
C5 C 0.3009(6) 1.5222(3) 0.0420(3)
C6 C 0.2114(6) 1.4662(3) -0.0269(3)
C7 C 0.1723(8) 1.4990(4) -0.1081(4)
H9 H 0.1993 1.5574 -0.1215
C8 C 0.0921(9) 1.4438(4) -0.1698(4)
H10 H 0.0637 1.4650 -0.2247
C9 C 0.0553(8) 1.3577(4) -0.1489(4)
H11 H 0.0046 1.3192 -0.1897
C10 C 0.0946(8) 1.3295(4) -0.0666(4)
H12 H 0.0669 1.2714 -0.0522
C11 C 0.1698(6) 1.1354(3) 0.0818(3)
C12 C 0.3664(6) 1.1427(3) 0.0707(3)
C13 C 0.3444(6) 1.3597(3) 0.3207(3)
C14 C 0.1458(6) 1.3750(3) 0.3079(3)
Cd2B Cd 0.73925(5) 1.05141(2) -0.00655(2)
Cd2A Cd 0.23925(5) 1.44859(2) 0.49345(2)
O4B O 0.5587(4) 0.9248(2) -0.0459(2)
O7A O 0.0834(4) 0.8787(2) 0.1084(2)
O8A O 0.4306(4) 0.8982(2) 0.1284(2)
O11 O -0.2546(6) 1.2965(4) 0.2012(4)
loop_
_geom_bond_atom_site_label_1
_geom_bond_atom_site_label_2
_geom_bond_site_symmetry_1
_geom_bond_site_symmetry_2
Cd1 O1 1_555 1_555
Cd2 O3 1_555 1_555
O1 C11 1_555 1_555
O2 Cd1 1_555 1_555
O3 C11 1_555 1_555
O4 Cd2 1_555 1_555
O5 Cd1 1_555 1_555
O6 Cd1 1_555 1_555
O7 C13 1_555 1_555
O8 C14 1_555 1_555
O9 Cd2 1_555 1_555
H1 O9 1_555 1_555
H2 O9 1_555 1_555
O10 Cd2 1_555 1_555
H3 O10 1_555 1_555
H4 O10 1_555 1_555
N1 Cd1 1_555 1_555
N2 Cd1 1_555 1_555
C1 N1 1_555 1_555
H5 C1 1_555 1_555
C2 C1 1_555 1_555
H6 C2 1_555 1_555
C3 C2 1_555 1_555
H7 C3 1_555 1_555
C4 C3 1_555 1_555
H8 C4 1_555 1_555
C5 N1 1_555 1_555
C6 N2 1_555 1_555
C7 C6 1_555 1_555
H9 C7 1_555 1_555
C8 C7 1_555 1_555
H10 C8 1_555 1_555
C9 C8 1_555 1_555
H11 C9 1_555 1_555
C10 N2 1_555 1_555
H12 C10 1_555 1_555
C11 C12 1_555 1_555
C12 O2 1_555 1_555
C13 O5 1_555 1_555
C14 O6 1_555 1_555
Cd2B O4 1_555 1_555
Cd2A O7 1_555 1_555
O4B Cd2 1_555 1_555
O7A Cd2 1_555 1_555
O8A Cd2 1_555 1_555
O4 C12 1_555 1_555
O8 Cd2A 1_555 1_555
C4 C5 1_555 1_555
C5 C6 1_555 1_555
C9 C10 1_555 1_555
C13 C14 1_555 1_555
Cd2B O4B 1_555 1_555

#END
