
#######################################################################
#
#                 Cambridge Crystallographic Data Centre
#                                CCDC 
#
#######################################################################
#
# If this CIF has been generated from an entry in the Cambridge 
# Structural Database, then it will include bibliographic, chemical, 
# crystal, experimental, refinement or atomic coordinate data resulting 
# from the CCDC's data processing and validation procedures.
#
#######################################################################

data_GOHCUB
_symmetry_cell_setting           monoclinic
_symmetry_space_group_name_H-M   'P 21/n'
_symmetry_Int_Tables_number      14
_space_group_name_Hall           '-P 2yn'
loop_
_symmetry_equiv_pos_site_id
_symmetry_equiv_pos_as_xyz
1 x,y,z
2 1/2-x,1/2+y,1/2-z
3 -x,-y,-z
4 1/2+x,1/2-y,1/2+z
_cell_length_a                   11.7188(2)
_cell_length_b                   15.7525(3)
_cell_length_c                   12.8528(1)
_cell_angle_alpha                90
_cell_angle_beta                 93.064(1)
_cell_angle_gamma                90
_cell_volume                     2369.24
loop_
_atom_site_label
_atom_site_type_symbol
_atom_site_fract_x
_atom_site_fract_y
_atom_site_fract_z
S1 S 1.05039(14) 0.09698(11) 1.25255(12)
O1 O 0.9741(4) 0.0556(3) 1.3297(3)
O2 O 1.1637(4) 0.1103(4) 1.3051(4)
O3 O 1.0622(5) 0.0389(3) 1.1644(4)
O4 O 0.9992(5) 0.1771(3) 1.2174(4)
O5 O 1.1605(4) 0.0772(4) 1.5098(4)
N1 N 1.2230(5) 0.4129(4) 0.8238(5)
C1 C 1.2200(6) 0.3337(5) 0.7669(6)
C2 C 1.1296(6) 0.4618(5) 0.8353(6)
N2 N 1.1502(6) 0.5392(4) 0.8764(5)
C3 C 1.0599(9) 0.5903(7) 0.8881(8)
C4 C 0.9486(8) 0.5691(8) 0.8621(9)
C5 C 0.9285(7) 0.4885(7) 0.8219(7)
C6 C 1.0172(7) 0.4349(5) 0.8091(6)
C7 C 1.1746(6) 0.2572(4) 0.8262(5)
C8 C 1.1524(7) 0.1823(5) 0.7736(6)
C9 C 1.1093(7) 0.1143(5) 0.8253(6)
N3 N 1.0875(5) 0.1167(4) 0.9271(5)
C10 C 1.1109(6) 0.1895(5) 0.9782(5)
C11 C 1.1536(6) 0.2614(5) 0.9302(5)
N4 N 0.9100(5) 0.1273(4) 1.5679(4)
C12 C 0.8549(6) 0.1112(5) 1.6557(6)
C13 C 0.8179(7) 0.1727(6) 1.7222(6)
C14 C 0.8393(7) 0.2575(5) 1.6987(6)
C15 C 0.8953(7) 0.2760(4) 1.6101(6)
C16 C 0.9264(5) 0.2098(4) 1.5434(5)
N5 N 0.9739(5) 0.2259(4) 1.4510(5)
C17 C 0.9927(6) 0.3086(5) 1.4092(6)
C18 C 1.1051(6) 0.3509(4) 1.4451(5)
C19 C 1.1981(7) 0.3051(5) 1.4861(6)
C20 C 1.2999(6) 0.3464(5) 1.5102(6)
N6 N 1.3154(5) 0.4299(4) 1.4948(5)
C21 C 1.2250(7) 0.4734(5) 1.4571(7)
C22 C 1.1204(6) 0.4372(5) 1.4324(6)
H1 H 1.2994 0.3198 0.7451
H2 H 1.1695 0.3419 0.7010
H3 H 1.0756 0.6502 0.9175
H4 H 0.8831 0.6103 0.8723
H5 H 0.8471 0.4690 0.8028
H6 H 1.0033 0.3754 0.7794
H7 H 1.1680 0.1778 0.6966
H8 H 1.0929 0.0599 0.7852
H9 H 1.0986 0.1917 1.0552
H10 H 1.1675 0.3161 0.9709
H11 H 0.8399 0.0495 1.6732
H12 H 0.7763 0.1563 1.7867
H13 H 0.8130 0.3045 1.7458
H14 H 0.9153 0.3371 1.5926
H15 H 0.9277 0.3464 1.4298
H16 H 0.9891 0.3050 1.3305
H17 H 1.1907 0.2420 1.4978
H18 H 1.3667 0.3119 1.5411
H19 H 1.2340 0.5367 1.4457
H20 H 1.0542 0.4736 1.4045
H21 H 0.984(6) 0.188(5) 1.414(6)
H22 H 1.222(7) 0.054(5) 1.537(7)
H23 H 1.172(8) 0.086(6) 1.450(8)
H24 H 1.294(17) 0.430(14) 0.842(16)
Cd1 Cd 1.0000 0.0000 1.5000
Cd2 Cd 1.0000 0.0000 1.0000
O1B O 1.0259(4) -0.0556(3) 1.6703(3)
S1B S 0.94961(14) -0.09698(11) 1.74745(12)
O2B O 0.8363(4) -0.1103(4) 1.6949(4)
O3B O 0.9378(5) -0.0389(3) 1.8356(4)
O4B O 1.0008(5) -0.1771(3) 1.7826(4)
O5B O 0.8395(4) -0.0772(4) 1.4902(4)
H22B H 0.778(7) -0.054(5) 1.463(7)
H23B H 0.828(8) -0.086(6) 1.550(8)
N4B N 1.0900(5) -0.1273(4) 1.4321(4)
C12B C 1.1451(6) -0.1112(5) 1.3443(6)
C13B C 1.1821(7) -0.1727(6) 1.2778(6)
C14B C 1.1607(7) -0.2575(5) 1.3013(6)
C15B C 1.1047(7) -0.2760(4) 1.3899(6)
C16B C 1.0736(5) -0.2098(4) 1.4566(5)
N5B N 1.0261(5) -0.2259(4) 1.5490(5)
C17B C 1.0073(6) -0.3086(5) 1.5908(6)
C18B C 0.8949(6) -0.3509(4) 1.5549(5)
C19B C 0.8019(7) -0.3051(5) 1.5139(6)
C20B C 0.7001(6) -0.3464(5) 1.4898(6)
N6B N 0.6846(5) -0.4299(4) 1.5052(5)
C21B C 0.7750(7) -0.4734(5) 1.5429(7)
C22B C 0.8796(6) -0.4372(5) 1.5676(6)
H20B H 0.9458 -0.4736 1.5955
H19B H 0.7660 -0.5367 1.5543
H18B H 0.6333 -0.3119 1.4589
H17B H 0.8093 -0.2420 1.5022
H15B H 1.0723 -0.3464 1.5702
H16B H 1.0109 -0.3050 1.6695
H21B H 1.016(6) -0.188(5) 1.586(6)
H14B H 1.0847 -0.3371 1.4074
H13B H 1.1870 -0.3045 1.2542
H12B H 1.2237 -0.1563 1.2133
H11B H 1.1601 -0.0495 1.3268
O3B_2 O 0.9378(5) -0.0389(3) 0.8356(4)
N1B N 0.7770(5) -0.4129(4) 1.1762(5)
C1B C 0.7800(6) -0.3337(5) 1.2331(6)
C2B C 0.8704(6) -0.4618(5) 1.1647(6)
N2B N 0.8498(6) -0.5392(4) 1.1236(5)
C3B C 0.9401(9) -0.5903(7) 1.1119(8)
C4B C 1.0514(8) -0.5691(8) 1.1379(9)
C5B C 1.0715(7) -0.4885(7) 1.1781(7)
C6B C 0.9828(7) -0.4349(5) 1.1909(6)
C7B C 0.8254(6) -0.2572(4) 1.1738(5)
C8B C 0.8476(7) -0.1823(5) 1.2264(6)
C9B C 0.8907(7) -0.1143(5) 1.1747(6)
N3B N 0.9125(5) -0.1167(4) 1.0729(5)
C10B C 0.8891(6) -0.1895(5) 1.0218(5)
C11B C 0.8464(6) -0.2614(5) 1.0698(5)
H1B H 0.7006 -0.3198 1.2549
H2B H 0.8305 -0.3419 1.2990
H3B H 0.9244 -0.6502 1.0825
H4B H 1.1169 -0.6103 1.1277
H5B H 1.1529 -0.4690 1.1972
H6B H 0.9967 -0.3754 1.2206
H7B H 0.8320 -0.1778 1.3034
H8B H 0.9071 -0.0599 1.2148
H9B H 0.9014 -0.1917 0.9448
H10B H 0.8325 -0.3161 1.0291
H24B H 0.706(17) -0.430(14) 1.158(16)
N6C N 0.8154(5) 0.0701(4) 0.9948(5)
N6A N 1.1846(5) -0.0701(4) 1.0052(5)
Cd2_2 Cd 1.0000 0.0000 2.0000
Cd2C Cd 1.5000 0.5000 1.5000
Cd2C_2 Cd 0.5000 -0.5000 1.5000
loop_
_geom_bond_atom_site_label_1
_geom_bond_atom_site_label_2
_geom_bond_site_symmetry_1
_geom_bond_site_symmetry_2
S1 O1 1_555 1_555
O1 Cd1 1_555 1_555
O2 S1 1_555 1_555
O3 S1 1_555 1_555
O4 S1 1_555 1_555
O5 H22 1_555 1_555
N1 C1 1_555 1_555
C1 C7 1_555 1_555
C2 N1 1_555 1_555
N2 C2 1_555 1_555
C3 N2 1_555 1_555
C4 C3 1_555 1_555
C5 C4 1_555 1_555
C6 C2 1_555 1_555
C7 C8 1_555 1_555
C8 C9 1_555 1_555
C9 N3 1_555 1_555
N3 C10 1_555 1_555
C10 C11 1_555 1_555
C11 C7 1_555 1_555
N4 C12 1_555 1_555
C12 C13 1_555 1_555
C13 C14 1_555 1_555
C14 C15 1_555 1_555
C15 C16 1_555 1_555
C16 N4 1_555 1_555
N5 C16 1_555 1_555
C17 N5 1_555 1_555
C18 C17 1_555 1_555
C19 C18 1_555 1_555
C20 C19 1_555 1_555
N6 C20 1_555 1_555
C21 N6 1_555 1_555
C22 C18 1_555 1_555
H1 C1 1_555 1_555
H2 C1 1_555 1_555
H3 C3 1_555 1_555
H4 C4 1_555 1_555
H5 C5 1_555 1_555
H6 C6 1_555 1_555
H7 C8 1_555 1_555
H8 C9 1_555 1_555
H9 C10 1_555 1_555
H10 C11 1_555 1_555
H11 C12 1_555 1_555
H12 C13 1_555 1_555
H13 C14 1_555 1_555
H14 C15 1_555 1_555
H15 C17 1_555 1_555
H16 C17 1_555 1_555
H17 C19 1_555 1_555
H18 C20 1_555 1_555
H19 C21 1_555 1_555
H20 C22 1_555 1_555
H21 N5 1_555 1_555
H23 O5 1_555 1_555
H24 N1 1_555 1_555
Cd1 O5 1_555 1_555
Cd2 O3 1_555 1_555
O1B Cd1 1_555 1_555
S1B O1B 1_555 1_555
O2B S1B 1_555 1_555
O3B S1B 1_555 1_555
O4B S1B 1_555 1_555
O5B Cd1 1_555 1_555
H22B O5B 1_555 1_555
H23B O5B 1_555 1_555
N4B Cd1 1_555 1_555
C12B N4B 1_555 1_555
C13B C12B 1_555 1_555
C14B C13B 1_555 1_555
C15B C14B 1_555 1_555
C16B N4B 1_555 1_555
N5B C16B 1_555 1_555
C17B N5B 1_555 1_555
C18B C17B 1_555 1_555
C19B C18B 1_555 1_555
C20B C19B 1_555 1_555
N6B C20B 1_555 1_555
C21B N6B 1_555 1_555
C22B C18B 1_555 1_555
H20B C22B 1_555 1_555
H19B C21B 1_555 1_555
H18B C20B 1_555 1_555
H17B C19B 1_555 1_555
H15B C17B 1_555 1_555
H16B C17B 1_555 1_555
H21B N5B 1_555 1_555
H14B C15B 1_555 1_555
H13B C14B 1_555 1_555
H12B C13B 1_555 1_555
H11B C12B 1_555 1_555
O3B_2 Cd2 1_555 1_555
N1B C1B 1_555 1_555
C1B C7B 1_555 1_555
C2B N1B 1_555 1_555
N2B C2B 1_555 1_555
C3B N2B 1_555 1_555
C4B C3B 1_555 1_555
C5B C4B 1_555 1_555
C6B C2B 1_555 1_555
C7B C8B 1_555 1_555
C8B C9B 1_555 1_555
C9B N3B 1_555 1_555
N3B Cd2 1_555 1_555
C10B N3B 1_555 1_555
C11B C7B 1_555 1_555
H1B C1B 1_555 1_555
H2B C1B 1_555 1_555
H3B C3B 1_555 1_555
H4B C4B 1_555 1_555
H5B C5B 1_555 1_555
H6B C6B 1_555 1_555
H7B C8B 1_555 1_555
H8B C9B 1_555 1_555
H9B C10B 1_555 1_555
H10B C11B 1_555 1_555
H24B N1B 1_555 1_555
N6C Cd2 1_555 1_555
N6A Cd2 1_555 1_555
Cd2_2 O3B 1_555 1_555
Cd2C N6 1_555 1_555
Cd2C_2 N6B 1_555 1_555
C5 C6 1_555 1_555
N3 Cd2 1_555 1_555
N4 Cd1 1_555 1_555
C21 C22 1_555 1_555
C15B C16B 1_555 1_555
C21B C22B 1_555 1_555
C5B C6B 1_555 1_555
C10B C11B 1_555 1_555

#END
