
#######################################################################
#
#                 Cambridge Crystallographic Data Centre
#                                CCDC 
#
#######################################################################
#
# If this CIF has been generated from an entry in the Cambridge 
# Structural Database, then it will include bibliographic, chemical, 
# crystal, experimental, refinement or atomic coordinate data resulting 
# from the CCDC's data processing and validation procedures.
#
#######################################################################

data_GOHCIP
_symmetry_cell_setting           monoclinic
_symmetry_space_group_name_H-M   'C 2/c'
_symmetry_Int_Tables_number      15
_space_group_name_Hall           '-C 2yn'
loop_
_symmetry_equiv_pos_site_id
_symmetry_equiv_pos_as_xyz
1 x,y,z
2 1/2+x,1/2+y,z
3 -x,y,1/2-z
4 1/2-x,1/2+y,1/2-z
5 -x,-y,-z
6 1/2-x,1/2-y,-z
7 x,-y,1/2+z
8 1/2+x,1/2-y,1/2+z
_cell_length_a                   8.4931(6)
_cell_length_b                   17.264(1)
_cell_length_c                   17.699(1)
_cell_angle_alpha                90
_cell_angle_beta                 99.517(6)
_cell_angle_gamma                90
_cell_volume                     2559.4
loop_
_atom_site_label
_atom_site_type_symbol
_atom_site_fract_x
_atom_site_fract_y
_atom_site_fract_z
Cd1 Cd 0.5000 -0.11009(2) 0.2500
Cl1 Cl 0.12853(9) -0.14576(4) 0.10547(5)
C1 C 0.5224(4) 0.0405(2) 0.1327(2)
C2 C 0.6067(4) 0.1015(2) 0.1054(2)
C3 C 0.7701(5) 0.0981(2) 0.1143(2)
C4 C 0.8489(5) 0.0356(3) 0.1506(3)
C5 C 0.7611(4) -0.0210(2) 0.1797(2)
C6 C 0.2597(4) 0.0918(2) 0.0722(2)
C7 C 0.2161(3) 0.1637(2) 0.1130(2)
C8 C 0.2461(5) 0.1702(2) 0.1914(2)
C9 C 0.1934(5) 0.2348(2) 0.2260(2)
C10 C 0.0862(4) 0.2864(2) 0.1100(2)
C11 C 0.1350(4) 0.2240(2) 0.0717(2)
N1 N 0.6008(3) -0.0188(1) 0.1723(1)
N2 N 0.3608(3) 0.0380(1) 0.1208(2)
N3 N 0.1136(3) 0.2925(1) 0.1865(1)
O1 O 0.2455(4) -0.1129(2) 0.1640(2)
O2 O 0.1944(5) -0.2100(2) 0.0744(2)
O3 O -0.0025(5) -0.1710(3) 0.1356(3)
O4 O 0.0805(5) -0.0877(2) 0.0502(2)
H1 H 0.318(5) -0.004(2) 0.132(2)
H2 H 0.5484 0.1453 0.0806
H3 H 0.8292 0.1394 0.0950
H4 H 0.9641 0.0311 0.1552
H5 H 0.8185 -0.0643 0.2073
H6 H 0.3131 0.1071 0.0313
H7 H 0.1625 0.0657 0.0505
H8 H 0.3048 0.1305 0.2221
H9 H 0.7836 0.2390 0.2190
H10 H 0.0282 0.3272 0.0800
H11 H 0.1119 0.2212 0.0165
N3A N 0.6136(3) -0.2075(1) 0.1865(1)
Cd1A Cd 0.0000 0.38991(2) 0.2500
N1B N 0.3992(3) -0.0188(1) 0.3277(1)
C1B C 0.4776(4) 0.0405(2) 0.3673(2)
C2B C 0.3933(4) 0.1015(2) 0.3946(2)
C3B C 0.2299(5) 0.0981(2) 0.3857(2)
C4B C 0.1511(5) 0.0356(3) 0.3494(3)
C5B C 0.2389(4) -0.0210(2) 0.3203(2)
H5B H 0.1815 -0.0643 0.2927
H4B H 0.0359 0.0311 0.3448
H3B H 0.1708 0.1394 0.4050
H2B H 0.4516 0.1453 0.4194
N2B N 0.6392(3) 0.0380(1) 0.3792(2)
C6B C 0.7403(4) 0.0918(2) 0.4278(2)
C7B C 0.7839(3) 0.1637(2) 0.3870(2)
C8B C 0.7539(5) 0.1702(2) 0.3086(2)
C9B C 0.8066(5) 0.2348(2) 0.2740(2)
N3B N 0.8864(3) 0.2925(1) 0.3135(1)
Cd1A_2 Cd 1.0000 0.38991(2) 0.2500
C10B C 0.9138(4) 0.2864(2) 0.3900(2)
H8B H 0.6952 0.1305 0.2779
C11B C 0.8650(4) 0.2240(2) 0.4283(2)
H11B H 0.8881 0.2212 0.4835
H6B H 0.6869 0.1071 0.4687
H7B H 0.8375 0.0657 0.4495
H1B H 0.682(5) -0.004(2) 0.368(2)
N3C N 0.3864(3) -0.2075(1) 0.3135(1)
O1B O 0.7545(4) -0.1129(2) 0.3360(2)
Cl1B Cl 0.87147(9) -0.14576(4) 0.39453(5)
O2B O 0.8056(5) -0.2100(2) 0.4256(2)
O3B O 1.0025(5) -0.1710(3) 0.3644(3)
O4B O 0.9195(5) -0.0877(2) 0.4498(2)
H9B H 0.2164 0.2390 0.2810
H10B H 0.9718 0.3272 0.4200
loop_
_geom_bond_atom_site_label_1
_geom_bond_atom_site_label_2
_geom_bond_site_symmetry_1
_geom_bond_site_symmetry_2
Cd1 N1 1_555 1_555
Cl1 O1 1_555 1_555
C1 C2 1_555 1_555
C2 C3 1_555 1_555
C3 C4 1_555 1_555
C4 C5 1_555 1_555
C5 N1 1_555 1_555
C6 C7 1_555 1_555
C7 C8 1_555 1_555
C8 C9 1_555 1_555
C9 N3 1_555 1_555
C10 C11 1_555 1_555
C11 C7 1_555 1_555
N1 C1 1_555 1_555
N2 C1 1_555 1_555
N3 C10 1_555 1_555
O1 Cd1 1_555 1_555
O2 Cl1 1_555 1_555
O3 Cl1 1_555 1_555
O4 Cl1 1_555 1_555
H1 N2 1_555 1_555
H2 C2 1_555 1_555
H3 C3 1_555 1_555
H4 C4 1_555 1_555
H5 C5 1_555 1_555
H6 C6 1_555 1_555
H7 C6 1_555 1_555
H8 C8 1_555 1_555
H9 C9B 1_555 1_555
H10 C10 1_555 1_555
H11 C11 1_555 1_555
N3A Cd1 1_555 1_555
Cd1A N3 1_555 1_555
N1B Cd1 1_555 1_555
C1B N1B 1_555 1_555
C2B C1B 1_555 1_555
C3B C2B 1_555 1_555
C4B C3B 1_555 1_555
C5B N1B 1_555 1_555
H5B C5B 1_555 1_555
H4B C4B 1_555 1_555
H3B C3B 1_555 1_555
H2B C2B 1_555 1_555
N2B C1B 1_555 1_555
C6B N2B 1_555 1_555
C7B C6B 1_555 1_555
C8B C7B 1_555 1_555
C9B C8B 1_555 1_555
N3B C9B 1_555 1_555
Cd1A_2 N3B 1_555 1_555
C10B N3B 1_555 1_555
H8B C8B 1_555 1_555
C11B C7B 1_555 1_555
H11B C11B 1_555 1_555
H6B C6B 1_555 1_555
H7B C6B 1_555 1_555
H1B N2B 1_555 1_555
N3C Cd1 1_555 1_555
O1B Cd1 1_555 1_555
Cl1B O1B 1_555 1_555
O2B Cl1B 1_555 1_555
O3B Cl1B 1_555 1_555
O4B Cl1B 1_555 1_555
H9B C9 1_555 1_555
H10B C10B 1_555 1_555
C6 N2 1_555 1_555
C4B C5B 1_555 1_555
C10B C11B 1_555 1_555

#END
