
#######################################################################
#
#                 Cambridge Crystallographic Data Centre
#                                CCDC 
#
#######################################################################
#
# If this CIF has been generated from an entry in the Cambridge 
# Structural Database, then it will include bibliographic, chemical, 
# crystal, experimental, refinement or atomic coordinate data resulting 
# from the CCDC's data processing and validation procedures.
#
#######################################################################

data_GOHCOV
_symmetry_cell_setting           monoclinic
_symmetry_space_group_name_H-M   'C 2/c'
_symmetry_Int_Tables_number      15
_space_group_name_Hall           '-C 2yn'
loop_
_symmetry_equiv_pos_site_id
_symmetry_equiv_pos_as_xyz
1 x,y,z
2 1/2+x,1/2+y,z
3 -x,y,1/2-z
4 1/2-x,1/2+y,1/2-z
5 -x,-y,-z
6 1/2-x,1/2-y,-z
7 x,-y,1/2+z
8 1/2+x,1/2-y,1/2+z
_cell_length_a                   8.6231(5)
_cell_length_b                   17.288(1)
_cell_length_c                   16.1675(7)
_cell_angle_alpha                90
_cell_angle_beta                 94.730(2)
_cell_angle_gamma                90
_cell_volume                     2401.98
loop_
_atom_site_label
_atom_site_type_symbol
_atom_site_fract_x
_atom_site_fract_y
_atom_site_fract_z
Cd1 Cd 0.5000 -0.36576(4) 0.7500
N1 N 0.6101(7) -0.4623(3) 0.6682(4)
C1 C 0.5365(9) -0.5199(4) 0.6256(4)
N2 N 0.3807(8) -0.5136(3) 0.6111(4)
C2 C 0.2847(9) -0.5662(4) 0.5594(5)
C3 C 0.2338(8) -0.6380(4) 0.6018(4)
C4 C 0.1415(9) -0.6919(4) 0.5588(4)
C5 C 0.0890(9) -0.7562(4) 0.5990(5)
N3 N 0.1222(8) -0.7690(3) 0.6800(4)
C6 C 0.2115(11) -0.7165(5) 0.7209(5)
C7 C 0.270(1) -0.6520(4) 0.6855(5)
C8 C 0.619(1) -0.5833(4) 0.5967(5)
C9 C 0.7773(12) -0.5838(5) 0.6090(6)
C10 C 0.853(1) -0.5239(6) 0.6494(6)
C11 C 0.7679(9) -0.4647(5) 0.6792(5)
N4 N 0.1659(9) -0.3411(4) 0.6132(5)
O1 O 0.1281(16) -0.2786(5) 0.5953(8)
O2 O 0.0841(11) -0.3957(6) 0.5917(9)
O3 O 0.2941(8) -0.3571(4) 0.6451(5)
H1 H 0.3453 -0.5824 0.5122
H2 H 0.1890 -0.5377 0.5373
H3 H 0.1123 -0.6845 0.4982
H4 H 0.9767 -0.7948 0.9340
H5 H 0.2382 -0.7248 0.7816
H6 H 0.3378 -0.6153 0.7197
H7 H 0.5630 -0.6274 0.5678
H8 H 0.8375 -0.6282 0.5882
H9 H 0.9698 -0.5232 0.6573
H10 H 0.8238 -0.4215 0.7101
H11 H 0.341(9) -0.476(5) 0.630(5)
N3A N 0.6222(8) -0.2690(3) 0.6800(4)
Cd1A Cd 0.0000 -0.86576(4) 0.7500
N1B N 0.3899(7) -0.4623(3) 0.8318(4)
C1B C 0.4635(9) -0.5199(4) 0.8744(4)
N2B N 0.6193(8) -0.5136(3) 0.8889(4)
C2B C 0.7153(9) -0.5662(4) 0.9406(5)
C3B C 0.7662(8) -0.6380(4) 0.8982(4)
C4B C 0.8585(9) -0.6919(4) 0.9412(4)
C5B C 0.9110(9) -0.7562(4) 0.9010(5)
N3B N 0.8778(8) -0.7690(3) 0.8200(4)
Cd1A_2 Cd 1.0000 -0.86576(4) 0.7500
C6B C 0.7885(11) -0.7165(5) 0.7791(5)
H3B H 0.8877 -0.6845 1.0018
C7B C 0.730(1) -0.6520(4) 0.8145(5)
H1B H 0.6547 -0.5824 0.9878
H2B H 0.8110 -0.5377 0.9627
H11B H 0.659(9) -0.476(5) 0.870(5)
C8B C 0.381(1) -0.5833(4) 0.9033(5)
C9B C 0.2227(12) -0.5838(5) 0.8910(6)
C10B C 0.147(1) -0.5239(6) 0.8506(6)
C11B C 0.2321(9) -0.4647(5) 0.8208(5)
H10B H 0.1762 -0.4215 0.7899
H9B H 0.0302 -0.5232 0.8427
H8B H 0.1625 -0.6282 0.9118
H7B H 0.4370 -0.6274 0.9322
N3C N 0.3778(8) -0.2690(3) 0.8200(4)
O3B O 0.7059(8) -0.3571(4) 0.8549(5)
N4B N 0.8341(9) -0.3411(4) 0.8868(5)
O1B O 0.8719(16) -0.2786(5) 0.9047(8)
O2B O 0.9159(11) -0.3957(6) 0.9083(9)
H6B H 0.6622 -0.6153 0.7803
H5B H 0.7618 -0.7248 0.7184
H4B H 0.0233 -0.7948 0.5660
loop_
_geom_bond_atom_site_label_1
_geom_bond_atom_site_label_2
_geom_bond_site_symmetry_1
_geom_bond_site_symmetry_2
Cd1 N1 1_555 1_555
N1 C1 1_555 1_555
C1 N2 1_555 1_555
N2 C2 1_555 1_555
C2 C3 1_555 1_555
C3 C4 1_555 1_555
C4 C5 1_555 1_555
C5 N3 1_555 1_555
N3 C6 1_555 1_555
C6 C7 1_555 1_555
C7 C3 1_555 1_555
C8 C1 1_555 1_555
C9 C8 1_555 1_555
C10 C9 1_555 1_555
C11 N1 1_555 1_555
N4 O1 1_555 1_555
O2 N4 1_555 1_555
O3 Cd1 1_555 1_555
H1 C2 1_555 1_555
H2 C2 1_555 1_555
H3 C4 1_555 1_555
H4 C5B 1_555 1_555
H5 C6 1_555 1_555
H6 C7 1_555 1_555
H7 C8 1_555 1_555
H8 C9 1_555 1_555
H9 C10 1_555 1_555
H10 C11 1_555 1_555
H11 N2 1_555 1_555
N3A Cd1 1_555 1_555
Cd1A N3 1_555 1_555
N1B Cd1 1_555 1_555
C1B N1B 1_555 1_555
N2B C1B 1_555 1_555
C2B N2B 1_555 1_555
C3B C2B 1_555 1_555
C4B C3B 1_555 1_555
C5B C4B 1_555 1_555
N3B C5B 1_555 1_555
Cd1A_2 N3B 1_555 1_555
C6B N3B 1_555 1_555
H3B C4B 1_555 1_555
C7B C3B 1_555 1_555
H1B C2B 1_555 1_555
H2B C2B 1_555 1_555
H11B N2B 1_555 1_555
C8B C1B 1_555 1_555
C9B C8B 1_555 1_555
C10B C9B 1_555 1_555
C11B N1B 1_555 1_555
H10B C11B 1_555 1_555
H9B C10B 1_555 1_555
H8B C9B 1_555 1_555
H7B C8B 1_555 1_555
N3C Cd1 1_555 1_555
O3B Cd1 1_555 1_555
N4B O3B 1_555 1_555
O1B N4B 1_555 1_555
O2B N4B 1_555 1_555
H6B C7B 1_555 1_555
H5B C6B 1_555 1_555
H4B C5 1_555 1_555
C10 C11 1_555 1_555
N4 O3 1_555 1_555
C6B C7B 1_555 1_555
C10B C11B 1_555 1_555

#END
