
#######################################################################
#
#                 Cambridge Crystallographic Data Centre
#                                CCDC 
#
#######################################################################
#
# If this CIF has been generated from an entry in the Cambridge 
# Structural Database, then it will include bibliographic, chemical, 
# crystal, experimental, refinement or atomic coordinate data resulting 
# from the CCDC's data processing and validation procedures.
#
#######################################################################

data_GOHCEM
_symmetry_cell_setting           monoclinic
_symmetry_space_group_name_H-M   'P 21/n'
_symmetry_Int_Tables_number      14
_space_group_name_Hall           '-P 2yn'
loop_
_symmetry_equiv_pos_site_id
_symmetry_equiv_pos_as_xyz
1 x,y,z
2 1/2-x,1/2+y,1/2-z
3 -x,-y,-z
4 1/2+x,1/2-y,1/2+z
_cell_length_a                   11.1596(6)
_cell_length_b                   11.5025(7)
_cell_length_c                   23.3465(13)
_cell_angle_alpha                90
_cell_angle_beta                 102.7540(10)
_cell_angle_gamma                90
_cell_volume                     2922.89
loop_
_atom_site_label
_atom_site_type_symbol
_atom_site_fract_x
_atom_site_fract_y
_atom_site_fract_z
O1 O 0.2123(3) 0.4265(3) 0.24647(14)
O2 O -0.0443(3) 0.1155(3) 0.27514(15)
O3 O -0.0366(3) 0.3427(3) 0.20462(14)
O4 O 0.5420(3) 0.1880(4) 0.32757(16)
O5 O 0.3559(3) 0.2112(3) 0.26998(14)
N1 N 0.0134(4) 0.3212(3) 0.33006(18)
N2 N 0.0155(3) 0.1150(3) 0.16956(16)
C1 C -0.0977(4) 0.3830(4) 0.2970(2)
H1 H -0.1197 0.4461 0.3217
H2 H -0.1676 0.3281 0.2878
N3 N 0.2654(4) 0.2958(3) 0.35600(17)
C2 C 0.2690(5) 0.3084(5) 0.0593(2)
H3 H 0.2992 0.3201 0.0248
C3 C -0.1078(4) 0.0302(4) 0.2353(2)
H4 H -0.1902 0.0594 0.2158
H5 H -0.1183 -0.042 0.2568
N4 N 0.1868(4) 0.2720(3) 0.16084(17)
C4 C 0.2523(4) 0.4577(4) 0.2024(2)
C5 C 0.1704(4) 0.1893(4) 0.1190(2)
C6 C -0.0204(5) 0.2218(4) 0.3645(2)
H6 H -0.0674 0.2515 0.3928
H7 H 0.0556 0.185 0.3873
C7 C 0.2841(5) 0.3729(4) 0.4524(2)
H8 H 0.2478 0.4106 0.4806
C8 C 0.2119(5) 0.2047(5) 0.0678(2)
H9 H 0.2013 0.1451 0.0389
C9 C -0.0329(4) 0.0059(4) 0.1902(2)
H10 H 0.0367 -0.0457 0.2075
H11 H -0.0846 -0.035 0.1562
C10 C -0.1374(4) 0.2775(4) 0.1707(2)
H12 H -0.1951 0.33 0.1445
H13 H -0.1826 0.2375 0.1971
C11 C 0.3837(5) 0.2642(4) 0.3700(2)
C12 C 0.2817(5) 0.3952(4) 0.1017(2)
H14 H 0.3176 0.468 0.0962
C13 C 0.4577(5) 0.2823(4) 0.4250(2)
H15 H 0.5416 0.2592 0.434
C14 C 0.2172(5) 0.3539(4) 0.3957(2)
C15 C -0.0964(5) 0.1311(4) 0.3257(2)
H16 H -0.0949 0.0568 0.3473
H17 H -0.1828 0.1573 0.3134
C16 C 0.4316(4) 0.2154(4) 0.3191(2)
C17 C 0.2402(4) 0.3718(4) 0.1523(2)
C18 C -0.0741(4) 0.4346(4) 0.2398(2)
H18 H -0.1499 0.4722 0.2174
H19 H -0.0089 0.4944 0.249
C19 C -0.0846(4) 0.1888(4) 0.1347(2)
H20 H -0.1518 0.1375 0.1143
H21 H -0.0522 0.2306 0.1042
C20 C 0.4044(5) 0.3360(5) 0.4670(2)
H22 H 0.4514 0.347 0.5059
C21 C 0.1029(4) 0.0830(4) 0.1327(2)
H23 H 0.0575 0.0472 0.0956
H24 H 0.1625 0.0253 0.1536
C22 C 0.0898(4) 0.4019(4) 0.3722(2)
H26 H 0.0496 0.4162 0.4054
H27 H 0.0961 0.4772 0.3526
O7 O 0.3042(3) 0.5518(3) 0.19654(15)
Gd1 Gd 0.140563(19) 0.233034(18) 0.258798(9)
O7A O 0.1958(3) 0.0518(3) 0.30346(15)
Gd1A Gd 0.359437(19) 0.733034(18) 0.241202(9)
O6 O 0.6327(4) 0.2086(5) 0.22867(19)
H25 H 0.5959 0.1991 0.256
C23 C 0.5463(5) 0.2242(5) 0.1754(3)
H28 H 0.465 0.1999 0.1802
H29 H 0.57 0.1772 0.1447
H30 H 0.5438 0.3064 0.1642
Cl2 Cl 0.194(3) 0.545(4) 0.5635(7)
Cl1? Cl 0.217(2) 0.574(2) 0.5618(6)
loop_
_geom_bond_atom_site_label_1
_geom_bond_atom_site_label_2
_geom_bond_site_symmetry_1
_geom_bond_site_symmetry_2
O1 C4 1_555 1_555
O2 C3 1_555 1_555
O3 C10 1_555 1_555
O4 C16 1_555 1_555
O5 C16 1_555 1_555
N1 C1 1_555 1_555
N2 C9 1_555 1_555
C1 H1 1_555 1_555
H2 C1 1_555 1_555
N3 C11 1_555 1_555
C2 H3 1_555 1_555
C3 H4 1_555 1_555
H5 C3 1_555 1_555
N4 C5 1_555 1_555
C4 C17 1_555 1_555
C5 C8 1_555 1_555
C6 N1 1_555 1_555
H6 C6 1_555 1_555
H7 C6 1_555 1_555
C7 H8 1_555 1_555
C8 C2 1_555 1_555
H9 C8 1_555 1_555
C9 C3 1_555 1_555
H10 C9 1_555 1_555
H11 C9 1_555 1_555
C10 H12 1_555 1_555
H13 C10 1_555 1_555
C11 C13 1_555 1_555
C12 C2 1_555 1_555
H14 C12 1_555 1_555
C13 H15 1_555 1_555
C14 N3 1_555 1_555
C15 O2 1_555 1_555
H16 C15 1_555 1_555
H17 C15 1_555 1_555
C16 C11 1_555 1_555
C17 N4 1_555 1_555
C18 O3 1_555 1_555
H18 C18 1_555 1_555
H19 C18 1_555 1_555
C19 N2 1_555 1_555
H20 C19 1_555 1_555
H21 C19 1_555 1_555
C20 C7 1_555 1_555
H22 C20 1_555 1_555
C21 N2 1_555 1_555
H23 C21 1_555 1_555
H24 C21 1_555 1_555
O6 H25 1_555 1_555
C22 N1 1_555 1_555
H26 C22 1_555 1_555
H27 C22 1_555 1_555
C23 O6 1_555 1_555
H28 C23 1_555 1_555
H29 C23 1_555 1_555
H30 C23 1_555 1_555
O7 C4 1_555 1_555
Gd1 O1 1_555 1_555
O7A Gd1 1_555 1_555
Gd1A O7 1_555 1_555
O2 Gd1 1_555 1_555
O3 Gd1 1_555 1_555
O5 Gd1 1_555 1_555
N1 Gd1 1_555 1_555
N2 Gd1 1_555 1_555
C1 C18 1_555 1_555
N3 Gd1 1_555 1_555
N4 Gd1 1_555 1_555
C5 C21 1_555 1_555
C6 C15 1_555 1_555
C7 C14 1_555 1_555
C10 C19 1_555 1_555
C12 C17 1_555 1_555
C13 C20 1_555 1_555
C14 C22 1_555 1_555

#END
