
#######################################################################
#
#                 Cambridge Crystallographic Data Centre
#                                CCDC 
#
#######################################################################
#
# If this CIF has been generated from an entry in the Cambridge 
# Structural Database, then it will include bibliographic, chemical, 
# crystal, experimental, refinement or atomic coordinate data resulting 
# from the CCDC's data processing and validation procedures.
#
#######################################################################

data_GOHKOF
_symmetry_cell_setting           monoclinic
_symmetry_space_group_name_H-M   'P 21/c'
_symmetry_Int_Tables_number      14
_space_group_name_Hall           '-P 2ybc'
loop_
_symmetry_equiv_pos_site_id
_symmetry_equiv_pos_as_xyz
1 x,y,z
2 -x,1/2+y,1/2-z
3 -x,-y,-z
4 x,1/2-y,1/2+z
_cell_length_a                   15.902(2)
_cell_length_b                   11.2740(13)
_cell_length_c                   25.701(4)
_cell_angle_alpha                90
_cell_angle_beta                 103.094(12)
_cell_angle_gamma                90
_cell_volume                     4487.85
loop_
_atom_site_label
_atom_site_type_symbol
_atom_site_fract_x
_atom_site_fract_y
_atom_site_fract_z
Li1 Li 0.4751(5) 0.6226(6) 0.2613(3)
O1 O 0.47552(18) 0.4588(2) 0.24386(11)
B1 B 0.4642(3) 0.3764(4) 0.2852(2)
C1 C 0.5074(3) 0.4133(4) 0.1999(2)
H1 H 0.4700 0.3472 0.1832
H2 H 0.5662 0.3812 0.2136
C2 C 0.5103(3) 0.5052(4) 0.15864(18)
H3 H 0.5419 0.5753 0.1763
H4 H 0.4506 0.5305 0.1422
C3 C 0.5531(3) 0.4638(4) 0.11497(17)
H5 H 0.6106 0.4304 0.1312
H6 H 0.5178 0.4003 0.0940
C4 C 0.5630(3) 0.5648(4) 0.07828(19)
H7 H 0.5927 0.6311 0.1003
H8 H 0.5048 0.5930 0.0602
N1 N 0.3935(2) 0.2847(3) 0.26375(15)
N2 N 0.4073(2) 0.1861(3) 0.23658(14)
C5 C 0.3306(3) 0.1380(4) 0.21816(19)
H9 H 0.3207 0.0676 0.1973
C6 C 0.2665(3) 0.2033(4) 0.2332(2)
H10 H 0.2063 0.1872 0.2252
C7 C 0.3076(3) 0.2943(4) 0.2615(2)
H11 H 0.2810 0.3556 0.2775
N3 N 0.4339(2) 0.4527(3) 0.32769(16)
N4 N 0.4353(2) 0.5714(3) 0.32670(16)
C8 C 0.4127(3) 0.6055(4) 0.3709(2)
H12 H 0.4082 0.6859 0.3810
C9 C 0.3967(4) 0.5099(4) 0.4005(2)
H13 H 0.3795 0.5114 0.4335
C10 C 0.4105(4) 0.4152(4) 0.3728(2)
H14 H 0.4050 0.3350 0.3828
N5 N 0.5517(2) 0.3193(3) 0.31475(15)
N6 N 0.5911(2) 0.2308(3) 0.29259(16)
C11 C 0.6677(3) 0.2140(5) 0.3261(2)
H15 H 0.7088 0.1564 0.3212
C12 C 0.6787(3) 0.2899(5) 0.3678(2)
H16 H 0.7278 0.2961 0.3966
C13 C 0.6057(4) 0.3550(5) 0.3602(2)
H17 H 0.5944 0.4159 0.3832
C14 C 0.6126(3) 0.5353(4) 0.03607(18)
C15 C 0.6515(3) 0.4351(5) 0.0285(2)
H18 H 0.6508 0.3648 0.0488
C16 C 0.6970(4) 0.4476(6) -0.0168(2)
H19 H 0.7598 0.4335 -0.0044
H20 H 0.6732 0.3918 -0.0462
C17 C 0.6787(3) 0.5725(6) -0.0337(2)
C18 C 0.7040(4) 0.6384(8) -0.0729(3)
H21 H 0.7388 0.6031 -0.0942
C19 C 0.6796(5) 0.7520(9) -0.0808(3)
H22 H 0.6981 0.7968 -0.1075
C20 C 0.6271(4) 0.8060(7) -0.0503(3)
H23 H 0.6095 0.8862 -0.0568
C21 C 0.6008(3) 0.7416(5) -0.0102(2)
H24 H 0.5657 0.7769 0.0109
C22 C 0.6275(3) 0.6250(5) -0.00222(19)
Li1A Li 0.5249(5) 0.1226(6) 0.2387(3)
N2A N 0.5927(2) 0.6861(3) 0.26342(14)
N6A N 0.4089(2) 0.7308(3) 0.20741(16)
Li2 Li 0.9607(4) 0.8091(6) 0.2547(3)
O2 O 0.95941(16) 0.6353(2) 0.25860(11)
B2 B 0.9309(3) 0.5698(4) 0.2090(2)
C23 C 1.0005(3) 0.5726(3) 0.30567(16)
H25 H 1.0498 0.6198 0.3257
H26 H 1.0235 0.4965 0.2954
C24 C 0.9386(3) 0.5477(4) 0.34158(17)
H27 H 0.9216 0.6236 0.3556
H28 H 0.8858 0.5097 0.3203
C25 C 0.9785(3) 0.4677(4) 0.38778(17)
H29 H 0.9935 0.3909 0.3736
H30 H 1.0327 0.5043 0.4080
C26 C 0.9199(3) 0.4454(4) 0.42517(18)
H31 H 0.9116 0.5211 0.4429
H32 H 0.8628 0.4204 0.4038
N7 N 1.0090(2) 0.5367(3) 0.18310(13)
N8 N 1.0659(2) 0.4473(3) 0.20029(14)
C27 C 1.1256(3) 0.4556(4) 0.17110(18)
H33 H 1.1736 0.4039 0.1743
C28 C 1.1080(3) 0.5494(4) 0.13574(18)
H34 H 1.1404 0.5739 0.1108
C29 C 1.0345(3) 0.5989(4) 0.14431(18)
H35 H 1.0058 0.6661 0.1261
N9 N 0.8734(2) 0.6581(3) 0.17033(13)
N10 N 0.8793(2) 0.7770(3) 0.18244(14)
C30 C 0.8287(3) 0.8290(4) 0.13967(19)
H36 H 0.8190 0.9121 0.1365
C31 C 0.7929(3) 0.7488(4) 0.10134(19)
H37 H 0.7555 0.7646 0.0676
C32 C 0.8224(3) 0.6408(4) 0.12184(17)
H38 H 0.8090 0.5663 0.1047
N11 N 0.87775(19) 0.4582(3) 0.21449(13)
N12 N 0.9151(2) 0.3533(3) 0.23402(13)
C33 C 0.8507(3) 0.2846(4) 0.24094(16)
H39 H 0.8580 0.2062 0.2547
C34 C 0.7712(3) 0.3415(4) 0.22558(18)
H40 H 0.7159 0.3107 0.2263
C35 C 0.7905(2) 0.4510(4) 0.20926(17)
H41 H 0.7500 0.5122 0.1964
C36 C 0.9505(3) 0.3546(4) 0.46716(17)
C37 C 1.0231(3) 0.2900(4) 0.47606(19)
H42 H 1.0653 0.2959 0.4552
C38 C 1.0306(3) 0.2061(5) 0.5232(2)
H43 H 1.0327 0.1222 0.5122
H44 H 1.0821 0.2240 0.5519
C39 C 0.9482(3) 0.2335(4) 0.54042(19)
C40 C 0.9187(3) 0.1893(4) 0.5833(2)
H45 H 0.9500 0.1297 0.6058
C41 C 0.8417(3) 0.2347(5) 0.5926(2)
H46 H 0.8202 0.2052 0.6217
C42 C 0.7970(3) 0.3205(5) 0.5607(2)
H47 H 0.7452 0.3504 0.5682
C43 C 0.8256(3) 0.3657(5) 0.51700(18)
H48 H 0.7935 0.4244 0.4944
C44 C 0.9023(3) 0.3218(4) 0.50780(18)
Li2A Li 1.0393(4) 0.3091(6) 0.2453(3)
N8A N 0.9341(2) 0.9473(3) 0.29971(14)
N12A N 1.0849(2) 0.8533(3) 0.26598(13)
loop_
_geom_bond_atom_site_label_1
_geom_bond_atom_site_label_2
_geom_bond_site_symmetry_1
_geom_bond_site_symmetry_2
Li1 O1 1_555 1_555
O1 B1 1_555 1_555
B1 N1 1_555 1_555
C1 O1 1_555 1_555
H1 C1 1_555 1_555
H2 C1 1_555 1_555
C2 C1 1_555 1_555
H3 C2 1_555 1_555
H4 C2 1_555 1_555
C3 C2 1_555 1_555
H5 C3 1_555 1_555
H6 C3 1_555 1_555
C4 C3 1_555 1_555
H7 C4 1_555 1_555
H8 C4 1_555 1_555
N1 N2 1_555 1_555
N2 C5 1_555 1_555
C5 H9 1_555 1_555
C6 C5 1_555 1_555
H10 C6 1_555 1_555
C7 N1 1_555 1_555
H11 C7 1_555 1_555
N3 B1 1_555 1_555
N4 Li1 1_555 1_555
C8 N4 1_555 1_555
H12 C8 1_555 1_555
C9 C8 1_555 1_555
H13 C9 1_555 1_555
C10 N3 1_555 1_555
H14 C10 1_555 1_555
N5 B1 1_555 1_555
N6 N5 1_555 1_555
C11 N6 1_555 1_555
H15 C11 1_555 1_555
C12 C11 1_555 1_555
H16 C12 1_555 1_555
C13 N5 1_555 1_555
H17 C13 1_555 1_555
C14 C4 1_555 1_555
C15 C14 1_555 1_555
H18 C15 1_555 1_555
C16 C15 1_555 1_555
H19 C16 1_555 1_555
H20 C16 1_555 1_555
C17 C16 1_555 1_555
C18 C17 1_555 1_555
H21 C18 1_555 1_555
C19 C18 1_555 1_555
H22 C19 1_555 1_555
C20 C19 1_555 1_555
H23 C20 1_555 1_555
C21 C20 1_555 1_555
H24 C21 1_555 1_555
C22 C14 1_555 1_555
Li2 O2 1_555 1_555
O2 B2 1_555 1_555
B2 N7 1_555 1_555
C23 O2 1_555 1_555
H25 C23 1_555 1_555
H26 C23 1_555 1_555
C24 C23 1_555 1_555
H27 C24 1_555 1_555
H28 C24 1_555 1_555
C25 C24 1_555 1_555
H29 C25 1_555 1_555
H30 C25 1_555 1_555
C26 C25 1_555 1_555
H31 C26 1_555 1_555
H32 C26 1_555 1_555
N7 N8 1_555 1_555
N8 C27 1_555 1_555
C27 H33 1_555 1_555
C28 C27 1_555 1_555
H34 C28 1_555 1_555
C29 N7 1_555 1_555
H35 C29 1_555 1_555
N9 B2 1_555 1_555
N10 Li2 1_555 1_555
C30 N10 1_555 1_555
H36 C30 1_555 1_555
C31 C30 1_555 1_555
H37 C31 1_555 1_555
C32 N9 1_555 1_555
H38 C32 1_555 1_555
N11 B2 1_555 1_555
N12 N11 1_555 1_555
C33 N12 1_555 1_555
H39 C33 1_555 1_555
C34 C33 1_555 1_555
H40 C34 1_555 1_555
C35 N11 1_555 1_555
H41 C35 1_555 1_555
C36 C26 1_555 1_555
C37 C36 1_555 1_555
H42 C37 1_555 1_555
C38 C37 1_555 1_555
H43 C38 1_555 1_555
H44 C38 1_555 1_555
C39 C38 1_555 1_555
C40 C39 1_555 1_555
H45 C40 1_555 1_555
C41 C40 1_555 1_555
H46 C41 1_555 1_555
C42 C41 1_555 1_555
H47 C42 1_555 1_555
C43 C42 1_555 1_555
H48 C43 1_555 1_555
C44 C36 1_555 1_555
Li1A N2 1_555 1_555
N2A Li1 1_555 1_555
N6A Li1 1_555 1_555
Li2A N8 1_555 1_555
N8A Li2 1_555 1_555
N12A Li2 1_555 1_555
C6 C7 1_555 1_555
N3 N4 1_555 1_555
C9 C10 1_555 1_555
N6 Li1A 1_555 1_555
C12 C13 1_555 1_555
C17 C22 1_555 1_555
C21 C22 1_555 1_555
C28 C29 1_555 1_555
N9 N10 1_555 1_555
C31 C32 1_555 1_555
N12 Li2A 1_555 1_555
C34 C35 1_555 1_555
C39 C44 1_555 1_555
C43 C44 1_555 1_555

#END
