
#######################################################################
#
#                 Cambridge Crystallographic Data Centre
#                                CCDC 
#
#######################################################################
#
# If this CIF has been generated from an entry in the Cambridge 
# Structural Database, then it will include bibliographic, chemical, 
# crystal, experimental, refinement or atomic coordinate data resulting 
# from the CCDC's data processing and validation procedures.
#
#######################################################################

data_GOHMUM
_symmetry_cell_setting           monoclinic
_symmetry_space_group_name_H-M   'P 21/n'
_symmetry_Int_Tables_number      14
_space_group_name_Hall           '-P 2yn'
loop_
_symmetry_equiv_pos_site_id
_symmetry_equiv_pos_as_xyz
1 x,y,z
2 1/2-x,1/2+y,1/2-z
3 -x,-y,-z
4 1/2+x,1/2-y,1/2+z
_cell_length_a                   6.9804(9)
_cell_length_b                   17.787(2)
_cell_length_c                   10.5390(13)
_cell_angle_alpha                90
_cell_angle_beta                 102.030(4)
_cell_angle_gamma                90
_cell_volume                     1279.79
loop_
_atom_site_label
_atom_site_type_symbol
_atom_site_fract_x
_atom_site_fract_y
_atom_site_fract_z
C1 C 0.7759(4) 0.0445(2) 0.6134(3)
Cd1 Cd 0.73290(3) 0.024650(10) 0.923317(17)
Cl1 Cl 0.93728(10) -0.09576(4) 1.00222(7)
N1 N 0.7596(4) -0.00527(16) 0.7066(2)
S1 S 0.83894(14) 0.13915(5) 0.65489(9)
C2 C 0.7627(5) 0.0235(2) 0.4847(3)
H1 H 0.7706 0.0593 0.4217
Cl2 Cl 0.61295(10) 0.04876(4) 1.13849(6)
N2 N 0.5897(4) 0.13692(14) 0.8222(2)
C3 C 0.7377(5) -0.0514(3) 0.4521(3)
H2 H 0.7298 -0.0669 0.3669
C4 C 0.7245(6) -0.1029(2) 0.5471(4)
H3 H 0.7108 -0.1539 0.5278
C5 C 0.7320(5) -0.0775(2) 0.6720(3)
H4 H 0.7170 -0.1123 0.7350
C6 C 0.6438(5) 0.17335(16) 0.7240(3)
C7 C 0.5589(7) 0.24032(19) 0.6745(4)
H5 H 0.589(6) 0.265(2) 0.610(4)
C8 C 0.4118(6) 0.2710(2) 0.7272(4)
H6 H 0.3540 0.3164 0.6967
C9 C 0.3524(6) 0.2330(2) 0.8257(4)
H7 H 0.2512 0.2518 0.8617
C10 C 0.4444(5) 0.1668(2) 0.8706(3)
H8 H 0.4036 0.1417 0.9378
Cd1B Cd 1.26710(3) -0.024650(10) 1.076683(17)
Cd1B_2 Cd 0.26710(3) -0.024650(10) 1.076683(17)
Cl1B Cl 1.06272(10) 0.09576(4) 0.99778(7)
Cl2B Cl 0.38705(10) -0.04876(4) 0.86151(6)
loop_
_geom_bond_atom_site_label_1
_geom_bond_atom_site_label_2
_geom_bond_site_symmetry_1
_geom_bond_site_symmetry_2
C1 N1 1_555 1_555
Cd1 Cl1 1_555 1_555
Cl1 Cd1B 1_555 1_555
N1 Cd1 1_555 1_555
S1 C1 1_555 1_555
C2 C1 1_555 1_555
H1 C2 1_555 1_555
Cl2 Cd1 1_555 1_555
N2 Cd1 1_555 1_555
C3 C2 1_555 1_555
H2 C3 1_555 1_555
C4 C3 1_555 1_555
H3 C4 1_555 1_555
C5 N1 1_555 1_555
H4 C5 1_555 1_555
C6 S1 1_555 1_555
C7 C6 1_555 1_555
H5 C7 1_555 1_555
C8 C7 1_555 1_555
H6 C8 1_555 1_555
C9 C8 1_555 1_555
H7 C9 1_555 1_555
C10 N2 1_555 1_555
H8 C10 1_555 1_555
Cd1B Cl1B 1_555 1_555
Cd1B_2 Cl2 1_555 1_555
Cl1B Cd1 1_555 1_555
Cl2B Cd1 1_555 1_555
N2 C6 1_555 1_555
C4 C5 1_555 1_555
C9 C10 1_555 1_555
Cd1B_2 Cl2B 1_555 1_555

#END
