
#######################################################################
#
#                 Cambridge Crystallographic Data Centre
#                                CCDC 
#
#######################################################################
#
# If this CIF has been generated from an entry in the Cambridge 
# Structural Database, then it will include bibliographic, chemical, 
# crystal, experimental, refinement or atomic coordinate data resulting 
# from the CCDC's data processing and validation procedures.
#
#######################################################################

data_GOHNOH
_symmetry_cell_setting           monoclinic
_symmetry_space_group_name_H-M   'C 2/c'
_symmetry_Int_Tables_number      15
_space_group_name_Hall           '-C 2yn'
loop_
_symmetry_equiv_pos_site_id
_symmetry_equiv_pos_as_xyz
1 x,y,z
2 1/2+x,1/2+y,z
3 -x,y,1/2-z
4 1/2-x,1/2+y,1/2-z
5 -x,-y,-z
6 1/2-x,1/2-y,-z
7 x,-y,1/2+z
8 1/2+x,1/2-y,1/2+z
_cell_length_a                   23.105(9)
_cell_length_b                   3.5683(15)
_cell_length_c                   13.589(6)
_cell_angle_alpha                90.00
_cell_angle_beta                 124.038(4)
_cell_angle_gamma                90.00
_cell_volume                     928.399
loop_
_atom_site_label
_atom_site_type_symbol
_atom_site_fract_x
_atom_site_fract_y
_atom_site_fract_z
N1 N 0.65847(18) 0.6471(11) 0.9653(3)
O1 O 0.76934(15) 0.6673(11) 1.1453(3)
Co1 Co 0.5000 0.5542(2) 0.7500
Cl1 Cl 0.55401(5) 0.0530(3) 0.69915(8)
N2 N 0.59166(17) 0.5388(10) 0.9293(3)
N3 N 0.66559(19) 0.4533(11) 1.1222(3)
C1 C 0.7057(2) 0.5973(12) 1.0843(4)
C2 C 0.5975(2) 0.4253(12) 1.0253(3)
H1 H 0.5606 0.3369 1.0282
H2 H 0.666(3) 0.685(15) 0.918(4)
H3 H 0.681(3) 0.414(14) 1.194(5)
N1B N 0.34153(18) 0.6471(11) 0.5347(3)
O1B O 0.23066(15) 0.6673(11) 0.3547(3)
Co1_2 Co 0.5000 -0.4458(2) 0.7500
Co1_3 Co 0.5000 1.5542(2) 0.7500
Cl1_2 Cl 0.55401(5) 1.0530(3) 0.69915(8)
Cl1B Cl 0.44599(5) 0.0530(3) 0.80085(8)
Cl1B_2 Cl 0.44599(5) 1.0530(3) 0.80085(8)
N2B N 0.40834(17) 0.5388(10) 0.5707(3)
N3B N 0.33441(19) 0.4533(11) 0.3778(3)
C1B C 0.2943(2) 0.5973(12) 0.4157(4)
C2B C 0.4025(2) 0.4253(12) 0.4747(3)
H1B H 0.4394 0.3369 0.4718
H2B H 0.334(3) 0.685(15) 0.582(4)
H3B H 0.319(3) 0.414(14) 0.306(5)
loop_
_geom_bond_atom_site_label_1
_geom_bond_atom_site_label_2
_geom_bond_site_symmetry_1
_geom_bond_site_symmetry_2
N1 N2 1_555 1_555
O1 C1 1_555 1_555
Co1 Cl1 1_555 1_555
Cl1 Co1_2 1_555 1_555
N2 Co1 1_555 1_555
N3 C1 1_555 1_555
C1 N1 1_555 1_555
C2 N2 1_555 1_555
H1 C2 1_555 1_555
H2 N1 1_555 1_555
H3 N3 1_555 1_555
N1B N2B 1_555 1_555
O1B C1B 1_555 1_555
Co1_2 Cl1B 1_555 1_555
Co1_3 Cl1_2 1_555 1_555
Cl1_2 Co1 1_555 1_555
Cl1B Co1 1_555 1_555
Cl1B_2 Co1 1_555 1_555
N2B Co1 1_555 1_555
N3B C1B 1_555 1_555
C1B N1B 1_555 1_555
C2B N2B 1_555 1_555
H1B C2B 1_555 1_555
H2B N1B 1_555 1_555
H3B N3B 1_555 1_555
N3 C2 1_555 1_555
Co1_3 Cl1B_2 1_555 1_555
N3B C2B 1_555 1_555

#END
