
#######################################################################
#
#                 Cambridge Crystallographic Data Centre
#                                CCDC 
#
#######################################################################
#
# If this CIF has been generated from an entry in the Cambridge 
# Structural Database, then it will include bibliographic, chemical, 
# crystal, experimental, refinement or atomic coordinate data resulting 
# from the CCDC's data processing and validation procedures.
#
#######################################################################

data_GOHVUW01
_symmetry_cell_setting           orthorhombic
_symmetry_space_group_name_H-M   'P b c a'
_symmetry_Int_Tables_number      61
_space_group_name_Hall           '-P 2ac 2ab'
loop_
_symmetry_equiv_pos_site_id
_symmetry_equiv_pos_as_xyz
1 x,y,z
2 1/2-x,-y,1/2+z
3 1/2+x,1/2-y,-z
4 -x,1/2+y,1/2-z
5 -x,-y,-z
6 1/2+x,y,1/2-z
7 1/2-x,1/2+y,z
8 x,1/2-y,1/2+z
_cell_length_a                   10.191(2)
_cell_length_b                   8.6030(17)
_cell_length_c                   18.665(4)
_cell_angle_alpha                90
_cell_angle_beta                 90
_cell_angle_gamma                90
_cell_volume                     1636.42
loop_
_atom_site_label
_atom_site_type_symbol
_atom_site_fract_x
_atom_site_fract_y
_atom_site_fract_z
U1 U 0.78604(2) 0.13314(3) 0.56657(2)
O1 O 0.6176(4) 0.0968(5) 0.5880(2)
O2 O 0.9549(4) 0.1643(5) 0.5459(2)
O3 O 0.7915(4) -0.1213(5) 0.5265(3)
H1 H 0.857(11) -0.129(8) 0.499(5)
O4 O 0.8085(4) 0.3024(5) 0.6653(2)
O5 O 0.6541(4) 0.4860(5) 0.6730(2)
N1 N 0.7607(7) 0.3701(5) 0.9295(3)
C1 C 0.7315(6) 0.3901(7) 0.7003(4)
C2 C 0.7374(7) 0.3812(6) 0.7804(4)
C3 C 0.6365(6) 0.4293(7) 0.8241(3)
H2 H 0.5591 0.4668 0.8041
C4 C 0.6503(6) 0.4219(8) 0.8975(3)
H3 H 0.5807 0.4540 0.9261
C5 C 0.8590(6) 0.3206(7) 0.8867(3)
H4 H 0.9354 0.2837 0.9079
C6 C 0.8515(6) 0.3222(7) 0.8132(3)
H5 H 0.9207 0.2850 0.7856
U1F U 0.71396(2) -0.36686(3) 0.56657(2)
U1F_2 U 0.71396(2) 0.63314(3) 0.56657(2)
U1G U 0.78604(2) 0.36686(3) 1.06657(2)
O3F O 0.7085(4) 0.3787(5) 0.5265(3)
O5F O 0.8459(4) -0.0140(5) 0.6730(2)
N1G N 0.7607(7) 0.1299(5) 0.4295(3)
loop_
_geom_bond_atom_site_label_1
_geom_bond_atom_site_label_2
_geom_bond_site_symmetry_1
_geom_bond_site_symmetry_2
U1 O1 1_555 1_555
O2 U1 1_555 1_555
O3 U1 1_555 1_555
H1 O3 1_555 1_555
O4 U1 1_555 1_555
O5 C1 1_555 1_555
N1 C4 1_555 1_555
C1 O4 1_555 1_555
C2 C1 1_555 1_555
C3 C2 1_555 1_555
H2 C3 1_555 1_555
C4 C3 1_555 1_555
H3 C4 1_555 1_555
C5 N1 1_555 1_555
H4 C5 1_555 1_555
C6 C2 1_555 1_555
H5 C6 1_555 1_555
U1F O3 1_555 1_555
U1F_2 O5 1_555 1_555
U1G N1 1_555 1_555
O3F U1 1_555 1_555
O5F U1 1_555 1_555
N1G U1 1_555 1_555
C5 C6 1_555 1_555
U1F_2 O3F 1_555 1_555

#END
