
#######################################################################
#
#                 Cambridge Crystallographic Data Centre
#                                CCDC 
#
#######################################################################
#
# If this CIF has been generated from an entry in the Cambridge 
# Structural Database, then it will include bibliographic, chemical, 
# crystal, experimental, refinement or atomic coordinate data resulting 
# from the CCDC's data processing and validation procedures.
#
#######################################################################

data_GOHVOQ
_symmetry_cell_setting           monoclinic
_symmetry_space_group_name_H-M   'P 21/n'
_symmetry_Int_Tables_number      14
_space_group_name_Hall           '-P 2yn'
loop_
_symmetry_equiv_pos_site_id
_symmetry_equiv_pos_as_xyz
1 x,y,z
2 1/2-x,1/2+y,1/2-z
3 -x,-y,-z
4 1/2+x,1/2-y,1/2+z
_cell_length_a                   10.3358(4)
_cell_length_b                   10.2902(5)
_cell_length_c                   11.6360(5)
_cell_angle_alpha                90
_cell_angle_beta                 111.107(3)
_cell_angle_gamma                90
_cell_volume                     1154.55
loop_
_atom_site_label
_atom_site_type_symbol
_atom_site_fract_x
_atom_site_fract_y
_atom_site_fract_z
U1 U 0.386680(14) 0.80163(2) 0.789326(13)
S1 S 0.62700(10) 0.54150(13) 0.81496(9)
S2 S 0.67659(10) 0.91408(14) 1.04760(9)
O1 O 0.4987(3) 0.8689(4) 0.7213(2)
O2 O 0.2745(3) 0.7340(4) 0.8569(3)
O3 O 0.5022(3) 0.5898(4) 0.8381(2)
O4 O 0.6580(3) 0.6194(4) 0.7260(3)
O5 O 0.7404(3) 0.5171(4) 0.9309(3)
O6 O 0.5589(3) 0.8261(4) 0.9851(3)
O7 O 0.6422(3) 0.9857(4) 1.1435(3)
O8 O 0.8000(3) 0.8321(4) 1.1111(3)
O9 O 0.7041(3) 1.0011(4) 0.9619(2)
O10 O 0.1917(3) 0.9098(4) 0.6358(3)
H1 H 0.1499 0.9707 0.6587
H2 H 0.1941 0.9274 0.5552
N1 N 0.5654(4) 0.1600(5) 0.7620(3)
H3 H 0.5858 0.0872 0.8105
C1 C 0.5778(4) 0.3862(5) 0.7466(4)
C2 C 0.6006(5) 0.2772(6) 0.8170(4)
H4 H 0.6402 0.2832 0.9023
C3 C 0.5097(4) 0.1461(6) 0.6379(4)
H5 H 0.4881 0.0641 0.6026
C4 C 0.4855(6) 0.2554(7) 0.5653(4)
H6 H 0.4474 0.2483 0.4800
C5 C 0.5186(6) 0.3765(7) 0.6208(4)
H7 H 0.5007 0.4512 0.5726
U1B U 0.613320(14) 1.19837(2) 1.210674(13)
U1C U 0.886680(14) 0.69837(2) 1.289326(13)
O7B O 0.3578(3) 1.0143(4) 0.8565(3)
O8C O 0.3000(3) 0.6679(4) 0.6111(3)
loop_
_geom_bond_atom_site_label_1
_geom_bond_atom_site_label_2
_geom_bond_site_symmetry_1
_geom_bond_site_symmetry_2
U1 O1 1_555 1_555
S1 O3 1_555 1_555
S2 O6 1_555 1_555
O2 U1 1_555 1_555
O3 U1 1_555 1_555
O4 S1 1_555 1_555
O5 S1 1_555 1_555
O6 U1 1_555 1_555
O7 S2 1_555 1_555
O8 S2 1_555 1_555
O9 S2 1_555 1_555
O10 U1 1_555 1_555
H1 O10 1_555 1_555
H2 O10 1_555 1_555
N1 H3 1_555 1_555
C1 S1 1_555 1_555
C2 N1 1_555 1_555
H4 C2 1_555 1_555
C3 N1 1_555 1_555
H5 C3 1_555 1_555
C4 C3 1_555 1_555
H6 C4 1_555 1_555
C5 C1 1_555 1_555
H7 C5 1_555 1_555
U1B O7 1_555 1_555
U1C O8 1_555 1_555
O7B U1 1_555 1_555
O8C U1 1_555 1_555
C1 C2 1_555 1_555
C4 C5 1_555 1_555

#END
