
#######################################################################
#
#                 Cambridge Crystallographic Data Centre
#                                CCDC 
#
#######################################################################
#
# If this CIF has been generated from an entry in the Cambridge 
# Structural Database, then it will include bibliographic, chemical, 
# crystal, experimental, refinement or atomic coordinate data resulting 
# from the CCDC's data processing and validation procedures.
#
#######################################################################

data_GOHVUW
_symmetry_cell_setting           orthorhombic
_symmetry_space_group_name_H-M   'P b c a'
_symmetry_Int_Tables_number      61
_space_group_name_Hall           '-P 2ac 2ab'
loop_
_symmetry_equiv_pos_site_id
_symmetry_equiv_pos_as_xyz
1 x,y,z
2 1/2-x,-y,1/2+z
3 -x,1/2+y,1/2-z
4 1/2+x,1/2-y,-z
5 -x,-y,-z
6 1/2+x,y,1/2-z
7 x,1/2-y,1/2+z
8 1/2-x,1/2+y,z
_cell_length_a                   10.2171(13)
_cell_length_b                   8.6271(7)
_cell_length_c                   18.688(3)
_cell_angle_alpha                90
_cell_angle_beta                 90
_cell_angle_gamma                90
_cell_volume                     1647.23
loop_
_atom_site_label
_atom_site_type_symbol
_atom_site_fract_x
_atom_site_fract_y
_atom_site_fract_z
U1 U 0.21440(3) 0.63297(3) 0.433547(19)
O1 O 0.3801(7) 0.5976(7) 0.4143(4)
O2 O 0.0476(7) 0.6654(7) 0.4544(4)
O3 O 0.1546(6) 0.4855(7) 0.3269(4)
O4 O 0.3087(6) 0.3006(7) 0.3341(4)
O5 O 0.2931(6) 0.8779(6) 0.4748(4)
N1 N 0.2588(10) 0.3691(7) 0.0702(4)
C1 C 0.2374(9) 0.3806(9) 0.2201(6)
C2 C 0.3515(10) 0.3215(10) 0.1863(5)
H1 H 0.4204 0.2833 0.2136
C3 C 0.3589(10) 0.3214(11) 0.1126(5)
H2 H 0.4356 0.2871 0.0910
C4 C 0.1523(11) 0.4210(11) 0.1027(6)
H3 H 0.0836 0.4541 0.0738
C5 C 0.1340(10) 0.4303(10) 0.1770(5)
H4 H 0.0566 0.4678 0.1967
C6 C 0.2292(9) 0.3902(9) 0.2994(6)
U1A U 0.28560(3) 0.36703(3) -0.066453(19)
U1G U 0.28560(3) 0.13297(3) 0.433547(19)
U1G_2 U 0.28560(3) 1.13297(3) 0.433547(19)
O4G O 0.1913(6) 0.8006(7) 0.3341(4)
O5G O 0.2069(6) 0.3779(6) 0.4748(4)
N1A N 0.2412(10) 0.6309(7) 0.5702(4)
loop_
_geom_bond_atom_site_label_1
_geom_bond_atom_site_label_2
_geom_bond_site_symmetry_1
_geom_bond_site_symmetry_2
U1 O1 1_555 1_555
O2 U1 1_555 1_555
O3 U1 1_555 1_555
O4 C6 1_555 1_555
O5 U1 1_555 1_555
N1 C3 1_555 1_555
C1 C2 1_555 1_555
C2 H1 1_555 1_555
C3 C2 1_555 1_555
H2 C3 1_555 1_555
C4 N1 1_555 1_555
H3 C4 1_555 1_555
C5 C1 1_555 1_555
H4 C5 1_555 1_555
C6 O3 1_555 1_555
U1A N1 1_555 1_555
U1G O4 1_555 1_555
U1G_2 O5 1_555 1_555
O4G U1 1_555 1_555
O5G U1 1_555 1_555
N1A U1 1_555 1_555
C1 C6 1_555 1_555
C4 C5 1_555 1_555
U1G O5G 1_555 1_555

#END
