
#######################################################################
#
#                 Cambridge Crystallographic Data Centre
#                                CCDC 
#
#######################################################################
#
# If this CIF has been generated from an entry in the Cambridge 
# Structural Database, then it will include bibliographic, chemical, 
# crystal, experimental, refinement or atomic coordinate data resulting 
# from the CCDC's data processing and validation procedures.
#
#######################################################################

data_GOHWOR
_symmetry_cell_setting           triclinic
_symmetry_space_group_name_H-M   'P -1'
_symmetry_Int_Tables_number      2
_space_group_name_Hall           '-P 1'
loop_
_symmetry_equiv_pos_site_id
_symmetry_equiv_pos_as_xyz
1 x,y,z
2 -x,-y,-z
_cell_length_a                   6.1846(5)
_cell_length_b                   7.2933(8)
_cell_length_c                   9.3900(12)
_cell_angle_alpha                98.785(6)
_cell_angle_beta                 103.610(7)
_cell_angle_gamma                102.704(7)
_cell_volume                     392.126
loop_
_atom_site_label
_atom_site_type_symbol
_atom_site_fract_x
_atom_site_fract_y
_atom_site_fract_z
U1 U 0.31180(4) 0.76555(3) 0.86307(2)
O1 O 0.3555(11) 0.6364(10) 1.0078(6)
O2 O 0.2555(11) 0.8831(9) 0.7119(6)
O3 O -0.0918(10) 0.7164(8) 0.8582(6)
O4 O -0.4663(9) 0.6030(7) 0.7357(5)
O5 O 0.0381(9) 0.4596(8) 0.6972(6)
O6 O 0.3182(10) 1.0310(8) 1.0334(6)
H1 H 0.2104 1.0949 1.0457
C1 C -0.2554(13) 0.6020(11) 0.7569(7)
C2 C -0.2022(14) 0.4534(11) 0.6445(8)
H2 H -0.2335 0.4856 0.5454
C3 C -0.3360(14) 0.2457(11) 0.6319(8)
H3 H -0.4181 0.2395 0.7080
H4 H -0.4472 0.1957 0.5340
C4 C -0.1618(16) 0.1309(13) 0.6541(13)
H5 H -0.2029 0.0333 0.7098
H6 H -0.1486 0.0692 0.5586
C5 C 0.0569(18) 0.2778(14) 0.7415(16)
H7 H 0.0757 0.2903 0.8483
H8 H 0.1885 0.2414 0.7182
U1_2 U -0.68820(4) 0.76555(3) 0.86307(2)
U1A U 0.68820(4) 1.23445(3) 1.13693(2)
O4_2 O 0.5337(9) 0.6030(7) 0.7357(5)
O6A O 0.6818(10) 0.9690(8) 0.9666(6)
loop_
_geom_bond_atom_site_label_1
_geom_bond_atom_site_label_2
_geom_bond_site_symmetry_1
_geom_bond_site_symmetry_2
U1 O1 1_555 1_555
O2 U1 1_555 1_555
O3 U1 1_555 1_555
O4 C1 1_555 1_555
O5 U1 1_555 1_555
O6 U1 1_555 1_555
H1 O6 1_555 1_555
C1 O3 1_555 1_555
C2 O5 1_555 1_555
H2 C2 1_555 1_555
C3 C2 1_555 1_555
H3 C3 1_555 1_555
H4 C3 1_555 1_555
C4 C3 1_555 1_555
H5 C4 1_555 1_555
H6 C4 1_555 1_555
C5 O5 1_555 1_555
H7 C5 1_555 1_555
H8 C5 1_555 1_555
U1_2 O4 1_555 1_555
U1A O6 1_555 1_555
O4_2 U1 1_555 1_555
O6A U1 1_555 1_555
C1 C2 1_555 1_555
C4 C5 1_555 1_555
U1A O6A 1_555 1_555

#END
