
#######################################################################
#
#                 Cambridge Crystallographic Data Centre
#                                CCDC 
#
#######################################################################
#
# If this CIF has been generated from an entry in the Cambridge 
# Structural Database, then it will include bibliographic, chemical, 
# crystal, experimental, refinement or atomic coordinate data resulting 
# from the CCDC's data processing and validation procedures.
#
#######################################################################

data_GOHWIL
_symmetry_cell_setting           monoclinic
_symmetry_space_group_name_H-M   'P 21/c'
_symmetry_Int_Tables_number      14
_space_group_name_Hall           '-P 2ybc'
loop_
_symmetry_equiv_pos_site_id
_symmetry_equiv_pos_as_xyz
1 x,y,z
2 -x,1/2+y,1/2-z
3 -x,-y,-z
4 x,1/2-y,1/2+z
_cell_length_a                   10.4268(11)
_cell_length_b                   7.6033(7)
_cell_length_c                   10.6466(6)
_cell_angle_alpha                90
_cell_angle_beta                 113.188(6)
_cell_angle_gamma                90
_cell_volume                     775.859
loop_
_atom_site_label
_atom_site_type_symbol
_atom_site_fract_x
_atom_site_fract_y
_atom_site_fract_z
U1 U 0.91717(2) 0.73661(3) 0.66888(2)
O1 O 1.0185(5) 0.7427(5) 0.5700(5)
O2 O 0.8157(5) 0.7294(5) 0.7668(5)
O3 O 0.7419(5) 0.5491(6) 0.4940(5)
O4 O 0.9035(5) 0.4085(6) 0.6576(4)
O5 O 0.8997(5) 0.0649(6) 0.6612(4)
O6 O 0.7349(5) -0.0765(6) 0.5008(5)
C1 C 0.7178(7) 0.2377(7) 0.4851(6)
C2 C 0.5576(7) 0.2391(7) 0.4616(7)
H1 H 0.5334 0.1490 0.5129
H2 H 0.5247 0.3534 0.4764
C3 C 0.5141(7) 0.1932(10) 0.3099(7)
H3 H 0.4465 0.2741 0.2483
H4 H 0.4841 0.0723 0.2879
C4 C 0.6663(7) 0.2274(8) 0.3242(6)
H5 H 0.6775 0.3369 0.2829
H6 H 0.7064 0.1300 0.2932
C5 C 0.7909(7) 0.4055(9) 0.5477(6)
C6 C 0.7869(7) 0.0691(9) 0.5507(6)
U1_2 U 0.91717(2) -0.26339(3) 0.66888(2)
U1A U 1.08283(2) 0.23661(3) 0.83112(2)
O4A O 1.0965(5) 0.9085(6) 0.8424(4)
O5_2 O 0.8997(5) 1.0649(6) 0.6612(4)
O5A O 1.1003(5) 0.5649(6) 0.8388(4)
O6_2 O 0.7349(5) 0.9235(6) 0.5008(5)
loop_
_geom_bond_atom_site_label_1
_geom_bond_atom_site_label_2
_geom_bond_site_symmetry_1
_geom_bond_site_symmetry_2
U1 O1 1_555 1_555
O2 U1 1_555 1_555
O3 U1 1_555 1_555
O4 U1 1_555 1_555
O5 C6 1_555 1_555
O6 C6 1_555 1_555
C1 C2 1_555 1_555
C2 H1 1_555 1_555
H2 C2 1_555 1_555
C3 C2 1_555 1_555
H3 C3 1_555 1_555
H4 C3 1_555 1_555
C4 C1 1_555 1_555
H5 C4 1_555 1_555
H6 C4 1_555 1_555
C5 O3 1_555 1_555
C6 C1 1_555 1_555
U1_2 O5 1_555 1_555
U1A O4 1_555 1_555
O4A U1 1_555 1_555
O5_2 U1 1_555 1_555
O5A U1 1_555 1_555
O6_2 U1 1_555 1_555
O4 C5 1_555 1_555
O5 U1A 1_555 1_555
O6 U1_2 1_555 1_555
C1 C5 1_555 1_555
C3 C4 1_555 1_555
U1A O5A 1_555 1_555

#END
