
#######################################################################
#
#                 Cambridge Crystallographic Data Centre
#                                CCDC 
#
#######################################################################
#
# If this CIF has been generated from an entry in the Cambridge 
# Structural Database, then it will include bibliographic, chemical, 
# crystal, experimental, refinement or atomic coordinate data resulting 
# from the CCDC's data processing and validation procedures.
#
#######################################################################

data_GOJDIT
_symmetry_cell_setting           triclinic
_symmetry_space_group_name_H-M   'P -1'
_symmetry_Int_Tables_number      2
_space_group_name_Hall           '-P 1'
loop_
_symmetry_equiv_pos_site_id
_symmetry_equiv_pos_as_xyz
1 x,y,z
2 -x,-y,-z
_cell_length_a                   7.7019(8)
_cell_length_b                   7.8068(10)
_cell_length_c                   9.4519(9)
_cell_angle_alpha                77.524(8)
_cell_angle_beta                 66.970(7)
_cell_angle_gamma                79.762(7)
_cell_volume                     507.915
loop_
_atom_site_label
_atom_site_type_symbol
_atom_site_fract_x
_atom_site_fract_y
_atom_site_fract_z
U1 U 0.5000 1.0000 0.0000
U2 U 0.0000 0.5000 0.5000
O1 O 0.4248(11) 1.1735(9) -0.1237(9)
O2 O 0.1150(11) 0.6923(9) 0.4521(9)
O3 O 0.4803(10) 0.7937(9) -0.1583(9)
O4 O 0.2332(10) 0.8246(9) 0.0519(9)
O5 O -0.1145(10) 0.6277(8) 0.2852(8)
O6 O 0.1353(10) 0.4364(9) 0.2280(8)
O7 O 0.2083(10) 1.0745(9) 0.2159(8)
H1 H 0.1382 0.9952 0.1992
H2 H 0.1460 1.1909 0.1888
O8 O 0.3151(10) 0.3344(10) 0.4245(9)
H3 H 0.3919 0.3128 0.4728
H4 H 0.3818 0.2910 0.3413
C1 C 0.3186(16) 0.7498(14) -0.0652(12)
C2 C 0.2399(15) 0.6059(14) -0.0949(12)
H9 H 0.3196 0.4965 -0.0844
H10 H 0.2448 0.6323 -0.2014
C3 C 0.0342(15) 0.5792(13) 0.0155(12)
H11 H -0.0482 0.6860 -0.0023
C4 C 0.0179(15) 0.5472(13) 0.1847(13)
U1_2 U -0.5000 0.0000 0.0000
U2_2 U 0.0000 0.5000 -0.5000
O1A O 0.5752(11) 0.8265(9) 0.1237(9)
O2A O -0.1150(11) 0.3077(9) 0.5479(9)
O3A O 0.5197(10) 1.2063(9) 0.1583(9)
O3A_2 O -0.4803(10) 0.2063(9) 0.1583(9)
O4A O 0.7668(10) 1.1754(9) -0.0519(9)
O4A_2 O -0.2332(10) 0.1754(9) -0.0519(9)
O5A O 0.1145(10) 0.3723(8) 0.7148(8)
O5A_2 O 0.1145(10) 0.3723(8) -0.2852(8)
O6A O -0.1353(10) 0.5636(9) 0.7720(8)
O6A_2 O -0.1353(10) 0.5636(9) -0.2280(8)
O7A O 0.7917(10) 0.9255(9) -0.2159(8)
H1A H 0.8618 1.0048 -0.1992
H2A H 0.8540 0.8091 -0.1888
O8A O -0.3151(10) 0.6656(10) 0.5755(9)
H3A H -0.3919 0.6872 0.5272
H4A H -0.3818 0.7090 0.6587
C1A C -0.3186(16) 0.2502(14) 0.0652(12)
C2A C -0.2399(15) 0.3941(14) 0.0949(12)
H9A H -0.3196 0.5035 0.0844
H10A H -0.2448 0.3677 0.2014
C3A C -0.0342(15) 0.4208(13) -0.0155(12)
H11A H 0.0482 0.3140 0.0023
C4A C -0.0179(15) 0.4528(13) -0.1847(13)
O9 O -0.1409(10) 1.0043(8) 0.2673(9)
H5 H -0.1747 0.9042 0.2546
H6 H -0.2210 0.9996 0.3788
O10 O 0.5866(11) 0.1380(11) 0.5383(9)
H7 H 0.6621 0.1122 0.6056
H8 H 0.5156 0.0608 0.5824
loop_
_geom_bond_atom_site_label_1
_geom_bond_atom_site_label_2
_geom_bond_site_symmetry_1
_geom_bond_site_symmetry_2
U1 O1 1_555 1_555
U2 O2 1_555 1_555
O3 U1 1_555 1_555
O4 U1 1_555 1_555
O5 U2 1_555 1_555
O6 U2 1_555 1_555
O7 U1 1_555 1_555
H1 O7 1_555 1_555
H2 O7 1_555 1_555
O8 U2 1_555 1_555
H3 O8 1_555 1_555
H4 O8 1_555 1_555
O9 H5 1_555 1_555
H6 O9 1_555 1_555
O10 H7 1_555 1_555
H8 O10 1_555 1_555
C1 O3 1_555 1_555
C2 C1 1_555 1_555
H9 C2 1_555 1_555
H10 C2 1_555 1_555
C3 C2 1_555 1_555
H11 C3 1_555 1_555
C4 O5 1_555 1_555
U1_2 O3A_2 1_555 1_555
U2_2 O5A_2 1_555 1_555
O1A U1 1_555 1_555
O2A U2 1_555 1_555
O3A U1 1_555 1_555
O3A_2 C1A 1_555 1_555
O4A U1 1_555 1_555
O4A_2 U1_2 1_555 1_555
O5A U2 1_555 1_555
O5A_2 C4A 1_555 1_555
O6A U2 1_555 1_555
O6A_2 U2_2 1_555 1_555
O7A U1 1_555 1_555
H1A O7A 1_555 1_555
H2A O7A 1_555 1_555
O8A U2 1_555 1_555
H3A O8A 1_555 1_555
H4A O8A 1_555 1_555
C1A O4A_2 1_555 1_555
C2A C1A 1_555 1_555
H9A C2A 1_555 1_555
H10A C2A 1_555 1_555
C3A C3 1_555 1_555
H11A C3A 1_555 1_555
C4A O6A_2 1_555 1_555
O4 C1 1_555 1_555
O6 C4 1_555 1_555
C3 C4 1_555 1_555
C2A C3A 1_555 1_555
C3A C4A 1_555 1_555

#END
