
#######################################################################
#
#                 Cambridge Crystallographic Data Centre
#                                CCDC 
#
#######################################################################
#
# If this CIF has been generated from an entry in the Cambridge 
# Structural Database, then it will include bibliographic, chemical, 
# crystal, experimental, refinement or atomic coordinate data resulting 
# from the CCDC's data processing and validation procedures.
#
#######################################################################

data_GOJDUG
_symmetry_cell_setting           orthorhombic
_symmetry_space_group_name_H-M   'P 21 21 21'
_symmetry_Int_Tables_number      19
_space_group_name_Hall           'P 2ac 2ab'
loop_
_symmetry_equiv_pos_site_id
_symmetry_equiv_pos_as_xyz
1 x,y,z
2 1/2-x,-y,1/2+z
3 1/2+x,1/2-y,-z
4 -x,1/2+y,1/2-z
_cell_length_a                   5.4220(5)
_cell_length_b                   7.9937(7)
_cell_length_c                   19.267(2)
_cell_angle_alpha                90
_cell_angle_beta                 90
_cell_angle_gamma                90
_cell_volume                     835.067
loop_
_atom_site_label
_atom_site_type_symbol
_atom_site_fract_x
_atom_site_fract_y
_atom_site_fract_z
S1 S 0.49304(10) -0.10392(6) 0.33927(2)
O1 O 0.5157(4) -0.28483(18) 0.33948(8)
O2 O 0.2819(3) -0.0487(2) 0.29887(7)
O3 O 0.7217(3) -0.0217(2) 0.32010(8)
N1 N 0.3166(3) 0.0942(2) 0.63445(9)
N2 N 0.1000(3) 0.1318(2) 0.65003(9)
N3 N -0.0882(3) 0.1672(3) 0.66954(10)
C1 C 0.4320(4) -0.0448(3) 0.42651(10)
C2 C 0.2204(4) 0.0433(3) 0.44334(10)
C3 C 0.1787(4) 0.0909(3) 0.51178(10)
C4 C 0.3477(4) 0.0485(3) 0.56286(10)
C5 C 0.5598(4) -0.0410(3) 0.54628(11)
C6 C 0.6009(4) -0.0873(3) 0.47797(11)
H1 H 0.095(4) 0.065(3) 0.4069(12)
H2 H 0.047(5) 0.153(3) 0.5228(12)
H3 H 0.665(5) -0.074(3) 0.5797(13)
H4 H 0.730(5) -0.150(3) 0.4652(13)
K1 K -0.01018(9) -0.32020(6) 0.26487(2)
O1_2 O -0.4843(4) -0.28483(18) 0.33948(8)
O2C O -0.2819(3) -0.5487(2) 0.20113(7)
O3_2 O -0.2783(3) -0.0217(2) 0.32010(8)
O3C O 0.2783(3) -0.5217(2) 0.17990(8)
N1A N 0.1834(3) -0.0942(2) 0.13445(9)
N1B N -0.1834(3) -0.5942(2) 0.36555(9)
N3A N -0.4118(3) -0.1672(3) 0.16954(10)
K1_2 K 0.98982(9) -0.32020(6) 0.26487(2)
K1A K -0.48982(9) 0.32020(6) 0.76487(2)
K1A_2 K 0.51018(9) 0.32020(6) 0.76487(2)
K1B K 0.48982(9) -0.17980(6) 0.73513(2)
K1C K 0.01018(9) 0.17980(6) 0.23513(2)
K1C_2 K 1.01018(9) 0.17980(6) 0.23513(2)
loop_
_geom_bond_atom_site_label_1
_geom_bond_atom_site_label_2
_geom_bond_site_symmetry_1
_geom_bond_site_symmetry_2
S1 O1 1_555 1_555
O1 K1 1_555 1_555
O2 S1 1_555 1_555
O3 S1 1_555 1_555
N1 N2 1_555 1_555
N2 N3 1_555 1_555
N3 K1A 1_555 1_555
C1 S1 1_555 1_555
C2 C1 1_555 1_555
C3 C2 1_555 1_555
C4 N1 1_555 1_555
C5 C4 1_555 1_555
C6 C1 1_555 1_555
H1 C2 1_555 1_555
H2 C3 1_555 1_555
H3 C5 1_555 1_555
H4 C6 1_555 1_555
K1 O2 1_555 1_555
O1_2 K1 1_555 1_555
O2C K1 1_555 1_555
O3_2 K1 1_555 1_555
O3C K1 1_555 1_555
N1A K1 1_555 1_555
N1B K1 1_555 1_555
N3A K1 1_555 1_555
K1_2 O1 1_555 1_555
K1A_2 N1 1_555 1_555
K1B N1 1_555 1_555
K1C O2 1_555 1_555
K1C_2 O3 1_555 1_555
O3 K1_2 1_555 1_555
C3 C4 1_555 1_555
C5 C6 1_555 1_555
O3_2 K1C 1_555 1_555
N1A K1C 1_555 1_555

#END
