
#######################################################################
#
#                 Cambridge Crystallographic Data Centre
#                                CCDC 
#
#######################################################################
#
# If this CIF has been generated from an entry in the Cambridge 
# Structural Database, then it will include bibliographic, chemical, 
# crystal, experimental, refinement or atomic coordinate data resulting 
# from the CCDC's data processing and validation procedures.
#
#######################################################################

data_GOJFUI
_symmetry_cell_setting           monoclinic
_symmetry_space_group_name_H-M   'P 21/n'
_symmetry_Int_Tables_number      14
_space_group_name_Hall           '-P 2yn'
loop_
_symmetry_equiv_pos_site_id
_symmetry_equiv_pos_as_xyz
1 x,y,z
2 1/2-x,1/2+y,1/2-z
3 -x,-y,-z
4 1/2+x,1/2-y,1/2+z
_cell_length_a                   5.1822(2)
_cell_length_b                   16.8686(7)
_cell_length_c                   10.3609(4)
_cell_angle_alpha                90
_cell_angle_beta                 101.737(2)
_cell_angle_gamma                90
_cell_volume                     886.776
loop_
_atom_site_label
_atom_site_type_symbol
_atom_site_fract_x
_atom_site_fract_y
_atom_site_fract_z
Hg1 Hg 0.41274(3) 0.627183(9) 0.432672(13)
O1 O 0.0894(7) 0.6795(2) 0.0359(3)
O2 O 0.6171(6) 0.5740(2) 0.6048(3)
O3 O 0.9550(6) 0.6066(2) 0.5151(4)
N1 N -0.0490(8) 0.7358(2) 0.0955(4)
C1 C 0.2266(7) 0.6675(2) 0.2541(4)
C2 C 0.2494(8) 0.6405(3) 0.1327(4)
C3 C 0.0363(8) 0.7280(3) 0.2239(4)
C4 C 0.4179(11) 0.5783(3) 0.0910(5)
H1 H 0.3297 0.5565 0.0057
H2 H 0.4476 0.5358 0.1569
H3 H 0.5874 0.6014 0.0830
C5 C -0.0737(11) 0.7796(3) 0.3154(5)
H4 H 0.0312 0.8283 0.3322
H5 H -0.0684 0.7516 0.3987
H6 H -0.2565 0.7932 0.2758
C6 C 0.8668(7) 0.5771(2) 0.6056(4)
C7 C 1.0421(8) 0.5419(3) 0.7247(4)
H7 H 1.2268 0.5503 0.7196
H8 H 1.0072 0.4849 0.7280
H9 H 1.0068 0.5673 0.8043
Hg1_2 Hg 1.41274(3) 0.627183(9) 0.432672(13)
O3_2 O -0.0450(6) 0.6066(2) 0.5151(4)
loop_
_geom_bond_atom_site_label_1
_geom_bond_atom_site_label_2
_geom_bond_site_symmetry_1
_geom_bond_site_symmetry_2
Hg1 O2 1_555 1_555
O1 N1 1_555 1_555
O2 C6 1_555 1_555
O3 Hg1 1_555 1_555
N1 C3 1_555 1_555
C1 Hg1 1_555 1_555
C2 O1 1_555 1_555
C3 C1 1_555 1_555
C4 C2 1_555 1_555
H1 C4 1_555 1_555
H2 C4 1_555 1_555
H3 C4 1_555 1_555
C5 C3 1_555 1_555
H4 C5 1_555 1_555
H5 C5 1_555 1_555
H6 C5 1_555 1_555
C6 O3 1_555 1_555
C7 C6 1_555 1_555
H7 C7 1_555 1_555
H8 C7 1_555 1_555
H9 C7 1_555 1_555
Hg1_2 O3 1_555 1_555
O3_2 Hg1 1_555 1_555
C1 C2 1_555 1_555

#END
