
#######################################################################
#
#                 Cambridge Crystallographic Data Centre
#                                CCDC 
#
#######################################################################
#
# If this CIF has been generated from an entry in the Cambridge 
# Structural Database, then it will include bibliographic, chemical, 
# crystal, experimental, refinement or atomic coordinate data resulting 
# from the CCDC's data processing and validation procedures.
#
#######################################################################

data_GOJFIW
_symmetry_cell_setting           orthorhombic
_symmetry_space_group_name_H-M   'C 2 2 21'
_symmetry_Int_Tables_number      20
_space_group_name_Hall           'C 2n 2'
loop_
_symmetry_equiv_pos_site_id
_symmetry_equiv_pos_as_xyz
1 x,y,z
2 -x,-y,1/2+z
3 -x,y,1/2-z
4 x,-y,-z
5 1/2+x,1/2+y,z
6 1/2-x,1/2-y,1/2+z
7 1/2-x,1/2+y,1/2-z
8 1/2+x,1/2-y,-z
_cell_length_a                   7.3529(2)
_cell_length_b                   15.3489(4)
_cell_length_c                   13.4734(4)
_cell_angle_alpha                90
_cell_angle_beta                 90
_cell_angle_gamma                90
_cell_volume                     1520.59
loop_
_atom_site_label
_atom_site_type_symbol
_atom_site_fract_x
_atom_site_fract_y
_atom_site_fract_z
Ba1 Ba 0.5000 0.619137(7) 0.7500
Br1 Br 0.81031(3) 0.695538(11) 0.903604(13)
O1 O 0.24728(16) 0.48948(8) 0.74006(12)
H1 H 0.191(3) 0.4768(16) 0.6899(13)
O2 O 0.41908(15) 0.50590(8) 0.91353(9)
O3 O -0.05537(15) 0.43886(9) 0.92032(9)
H2 H -0.075(3) 0.4029(13) 0.9629(15)
C1 C 0.2598(2) 0.41421(11) 0.80204(14)
H3 H 0.3690 0.3798 0.7842
H4 H 0.1513 0.3769 0.7927
C2 C 0.2722(2) 0.44333(9) 0.90844(12)
H5 H 0.2998 0.3923 0.9521
C3 C 0.1006(2) 0.48937(10) 0.94487(12)
H6 H 0.0910 0.5457 0.9080
C4 C 0.5261(3) 0.5000 1.0000
H7 H 0.6054 0.4480 0.9954
O4 O 0.7263(2) 0.71775(11) 0.63369(12)
H8 H 0.8322(17) 0.7206(19) 0.649(2)
H9 H 0.703(4) 0.7377(19) 0.5787(12)
O1C O 0.24728(16) 0.51052(8) 1.25994(12)
H1C H 0.191(3) 0.5232(16) 1.3101(13)
O2C O 0.41908(15) 0.49410(8) 1.08647(9)
O3C O -0.05537(15) 0.56114(9) 1.07968(9)
H2C H -0.075(3) 0.5971(13) 1.0371(15)
C1C C 0.2598(2) 0.58579(11) 1.19796(14)
H3C H 0.3690 0.6202 1.2158
H4C H 0.1513 0.6231 1.2073
C2C C 0.2722(2) 0.55667(9) 1.09156(12)
H5C H 0.2998 0.6077 1.0479
C3C C 0.1006(2) 0.51063(10) 1.05513(12)
H6C H 0.0910 0.4543 1.0920
H7C H 0.6054 0.5520 1.0046
Br1B Br 0.18969(3) 0.695538(11) 0.596396(13)
O4B O 0.2737(2) 0.71775(11) 0.86631(12)
H8B H 0.1678(17) 0.7206(19) 0.851(2)
H9B H 0.297(4) 0.7377(19) 0.9213(12)
Ba1A Ba 0.5000 0.380863(7) 1.2500
O1B O 0.75272(16) 0.48948(8) 0.75994(12)
O2B O 0.58092(15) 0.50590(8) 0.58647(9)
loop_
_geom_bond_atom_site_label_1
_geom_bond_atom_site_label_2
_geom_bond_site_symmetry_1
_geom_bond_site_symmetry_2
Ba1 Br1 1_555 1_555
O1 Ba1 1_555 1_555
H1 O1 1_555 1_555
O2 Ba1 1_555 1_555
O3 H2 1_555 1_555
C1 O1 1_555 1_555
H3 C1 1_555 1_555
H4 C1 1_555 1_555
C2 O2 1_555 1_555
H5 C2 1_555 1_555
C3 O3 1_555 1_555
H6 C3 1_555 1_555
C4 O2 1_555 1_555
H7 C4 1_555 1_555
O4 Ba1 1_555 1_555
H8 O4 1_555 1_555
H9 O4 1_555 1_555
O1C H1C 1_555 1_555
O2C C4 1_555 1_555
O3C H2C 1_555 1_555
C1C O1C 1_555 1_555
H3C C1C 1_555 1_555
H4C C1C 1_555 1_555
C2C O2C 1_555 1_555
H5C C2C 1_555 1_555
C3C C3 1_555 1_555
H6C C3C 1_555 1_555
H7C C4 1_555 1_555
Br1B Ba1 1_555 1_555
O4B Ba1 1_555 1_555
H8B O4B 1_555 1_555
H9B O4B 1_555 1_555
Ba1A O1C 1_555 1_555
O1B Ba1 1_555 1_555
O2B Ba1 1_555 1_555
C1 C2 1_555 1_555
C2 C3 1_555 1_555
O2C Ba1A 1_555 1_555
O3C C3C 1_555 1_555
C1C C2C 1_555 1_555
C2C C3C 1_555 1_555

#END
