
#######################################################################
#
#                 Cambridge Crystallographic Data Centre
#                                CCDC 
#
#######################################################################
#
# If this CIF has been generated from an entry in the Cambridge 
# Structural Database, then it will include bibliographic, chemical, 
# crystal, experimental, refinement or atomic coordinate data resulting 
# from the CCDC's data processing and validation procedures.
#
#######################################################################

data_GOJGES
_symmetry_cell_setting           triclinic
_symmetry_space_group_name_H-M   'P -1'
_symmetry_Int_Tables_number      2
_space_group_name_Hall           '-P 1'
loop_
_symmetry_equiv_pos_site_id
_symmetry_equiv_pos_as_xyz
1 x,y,z
2 -x,-y,-z
_cell_length_a                   6.9678(17)
_cell_length_b                   9.880(2)
_cell_length_c                   10.313(2)
_cell_angle_alpha                78.820(5)
_cell_angle_beta                 86.037(4)
_cell_angle_gamma                78.203(5)
_cell_volume                     681.461
loop_
_atom_site_label
_atom_site_type_symbol
_atom_site_fract_x
_atom_site_fract_y
_atom_site_fract_z
C1 C -0.1927(7) 0.2218(6) -0.1597(5)
C2 C -0.0773(8) 0.3256(5) -0.2428(5)
H1 H -0.1156 0.4155 -0.2141
H2 H 0.0612 0.2917 -0.2263
C3 C -0.1066(8) 0.3484(6) -0.3902(5)
C4 C -0.0135(8) 0.2536(6) -0.4693(6)
H3 H 0.0751 0.1737 -0.4328
C5 C -0.0529(8) 0.2786(6) -0.6009(5)
H4 H 0.0105 0.2157 -0.6538
C6 C -0.1807(8) 0.3916(5) -0.6537(5)
H5 H -0.2107 0.4058 -0.7424
C7 C -0.2314(8) 0.4640(6) -0.4521(5)
H6 H -0.2947 0.5308 -0.4031
Co1 Co -0.5000 0.5000 0.0000
Co2 Co -0.29127(11) -0.04676(8) -0.04887(7)
N1 N -0.2656(7) 0.4843(5) -0.5797(5)
H7 H -0.3511 0.5622 -0.6156
O1 O -0.5453(5) 0.3983(4) -0.1468(4)
O2 O -0.5212(6) 0.1315(4) -0.0899(4)
O3 O -0.5032(6) 0.2644(4) -0.3266(4)
O4 O -0.2806(6) 0.3292(4) 0.0703(4)
O5 O -0.1983(5) 0.0660(4) 0.0833(4)
O6 O 0.0686(6) 0.2094(4) 0.0324(3)
O7 O -0.1280(5) 0.0832(4) -0.1921(4)
H8 H -0.0001 0.0569 -0.1587
O8 O -0.2808(5) 0.6037(4) -0.1166(3)
H9 H -0.1735 0.5942 -0.0783
H10 H -0.3177 0.6862 -0.1606
O9 O -0.4255(5) -0.1178(4) -0.1992(4)
H11 H -0.4020 -0.0705 -0.2746
H12 H -0.5485 -0.1036 -0.1829
P1 P -0.4612(2) 0.26051(14) -0.18332(13)
P2 P -0.1498(2) 0.21021(15) 0.02048(14)
C1A C -0.8073(7) 0.7782(6) 0.1597(5)
C2A C -0.9227(8) 0.6744(5) 0.2428(5)
H1A H -0.8844 0.5845 0.2141
H2A H -1.0612 0.7083 0.2263
C3A C -0.8934(8) 0.6516(6) 0.3902(5)
C4A C -0.9865(8) 0.7464(6) 0.4693(6)
H3A H -1.0751 0.8263 0.4328
C5A C -0.9471(8) 0.7214(6) 0.6009(5)
H4A H -1.0105 0.7843 0.6538
C6A C -0.8193(8) 0.6084(5) 0.6537(5)
H5A H -0.7893 0.5942 0.7424
C7A C -0.7686(8) 0.5360(6) 0.4521(5)
H6A H -0.7053 0.4692 0.4031
Co2A Co -0.70873(11) 0.04676(8) 0.04887(7)
Co2A_2 Co -0.70873(11) 1.04676(8) 0.04887(7)
Co2A_3 Co 0.29127(11) 0.04676(8) 0.04887(7)
Co2_2 Co -1.29127(11) 0.95324(8) -0.04887(7)
Co2_3 Co -0.29127(11) 0.95324(8) -0.04887(7)
N1A N -0.7344(7) 0.5157(5) 0.5797(5)
H7A H -0.6489 0.4378 0.6156
O1A O -0.4547(5) 0.6017(4) 0.1468(4)
O2A O -0.4788(6) -0.1315(4) 0.0899(4)
O2A_2 O -0.4788(6) 0.8685(4) 0.0899(4)
O2_2 O -0.5212(6) 1.1315(4) -0.0899(4)
O3A O -0.4968(6) 0.7356(4) 0.3266(4)
O4A O -0.7194(6) 0.6708(4) -0.0703(4)
O5A O -0.8017(5) 0.9340(4) -0.0833(4)
O6A O -0.0686(6) -0.2094(4) -0.0324(3)
O6A_2 O -1.0686(6) 0.7906(4) -0.0324(3)
O6_2 O -0.9314(6) 1.2094(4) 0.0324(3)
O7A O -0.8720(5) 0.9168(4) 0.1921(4)
H8A H -0.9999 0.9431 0.1587
O8A O -0.7192(5) 0.3963(4) 0.1166(3)
H9A H -0.8265 0.4058 0.0783
H10A H -0.6823 0.3138 0.1606
O9A O -0.5745(5) 1.1178(4) 0.1992(4)
H11A H -0.5980 1.0705 0.2746
H12A H -0.4515 1.1036 0.1829
P1A P -0.5388(2) 0.73949(14) 0.18332(13)
P2A P -0.8502(2) 0.78979(15) -0.02048(14)
O10 O -0.3569(11) 0.0377(8) -0.4292(7)
H13 H -0.4691 0.0819 -0.4560
H14 H -0.2765 0.0354 -0.4949
loop_
_geom_bond_atom_site_label_1
_geom_bond_atom_site_label_2
_geom_bond_site_symmetry_1
_geom_bond_site_symmetry_2
C1 C2 1_555 1_555
C2 H1 1_555 1_555
H2 C2 1_555 1_555
C3 C2 1_555 1_555
C4 C3 1_555 1_555
H3 C4 1_555 1_555
C5 C4 1_555 1_555
H4 C5 1_555 1_555
C6 C5 1_555 1_555
H5 C6 1_555 1_555
C7 C3 1_555 1_555
H6 C7 1_555 1_555
Co1 O1 1_555 1_555
Co2 O2 1_555 1_555
N1 C6 1_555 1_555
H7 N1 1_555 1_555
O1 P1 1_555 1_555
O2 P1 1_555 1_555
O3 P1 1_555 1_555
O4 Co1 1_555 1_555
O5 Co2 1_555 1_555
O6 P2 1_555 1_555
O7 C1 1_555 1_555
H8 O7 1_555 1_555
O8 Co1 1_555 1_555
H9 O8 1_555 1_555
H10 O8 1_555 1_555
O9 Co2 1_555 1_555
H11 O9 1_555 1_555
H12 O9 1_555 1_555
O10 H13 1_555 1_555
H14 O10 1_555 1_555
P1 C1 1_555 1_555
P2 C1 1_555 1_555
C1A C2A 1_555 1_555
C2A H1A 1_555 1_555
H2A C2A 1_555 1_555
C3A C2A 1_555 1_555
C4A C3A 1_555 1_555
H3A C4A 1_555 1_555
C5A C4A 1_555 1_555
H4A C5A 1_555 1_555
C6A C5A 1_555 1_555
H5A C6A 1_555 1_555
C7A C3A 1_555 1_555
H6A C7A 1_555 1_555
Co2A O2 1_555 1_555
Co2A_2 O2A_2 1_555 1_555
Co2A_3 O6 1_555 1_555
Co2_2 O6A_2 1_555 1_555
Co2_3 O2A_2 1_555 1_555
N1A C6A 1_555 1_555
H7A N1A 1_555 1_555
O1A Co1 1_555 1_555
O2A Co2 1_555 1_555
O2A_2 P1A 1_555 1_555
O2_2 Co2A_2 1_555 1_555
O3A P1A 1_555 1_555
O4A Co1 1_555 1_555
O5A Co2A_2 1_555 1_555
O6A Co2 1_555 1_555
O6A_2 P2A 1_555 1_555
O6_2 Co2A_2 1_555 1_555
O7A C1A 1_555 1_555
H8A O7A 1_555 1_555
O8A Co1 1_555 1_555
H9A O8A 1_555 1_555
H10A O8A 1_555 1_555
O9A Co2A_2 1_555 1_555
H11A O9A 1_555 1_555
H12A O9A 1_555 1_555
P1A C1A 1_555 1_555
P2A C1A 1_555 1_555
C7 N1 1_555 1_555
Co2 O7 1_555 1_555
O4 P2 1_555 1_555
O5 P2 1_555 1_555
C7A N1A 1_555 1_555
Co2A O2A 1_555 1_555
Co2A_2 O7A 1_555 1_555
Co2_3 O2_2 1_555 1_555
O1A P1A 1_555 1_555
O4A P2A 1_555 1_555
O5A P2A 1_555 1_555

#END
