
#######################################################################
#
#                 Cambridge Crystallographic Data Centre
#                                CCDC 
#
#######################################################################
#
# If this CIF has been generated from an entry in the Cambridge 
# Structural Database, then it will include bibliographic, chemical, 
# crystal, experimental, refinement or atomic coordinate data resulting 
# from the CCDC's data processing and validation procedures.
#
#######################################################################

data_GOJHOD
_symmetry_cell_setting           triclinic
_symmetry_space_group_name_H-M   'P -1'
_symmetry_Int_Tables_number      2
_space_group_name_Hall           '-P 1'
loop_
_symmetry_equiv_pos_site_id
_symmetry_equiv_pos_as_xyz
1 x,y,z
2 -x,-y,-z
_cell_length_a                   9.868(3)
_cell_length_b                   10.012(3)
_cell_length_c                   11.865(3)
_cell_angle_alpha                65.386(4)
_cell_angle_beta                 89.490(5)
_cell_angle_gamma                63.081(4)
_cell_volume                     926.62
loop_
_atom_site_label
_atom_site_type_symbol
_atom_site_fract_x
_atom_site_fract_y
_atom_site_fract_z
Zn1 Zn 0.85736(4) -0.01409(5) 0.00111(4)
O1 O 0.9277(3) -0.0797(3) 0.1845(2)
O2 O 0.8556(3) 0.0600(3) -0.1859(2)
O3 O 0.7599(3) 0.2377(3) -0.0438(2)
O4 O 1.0210(3) -0.2518(3) 0.0347(2)
N1 N 0.6475(3) -0.0168(3) 0.0056(2)
C1 C 0.5226(3) 0.1239(4) -0.0782(3)
H1 H 0.5362 0.2129 -0.1339
C2 C 0.6267(4) -0.1451(4) 0.0868(3)
C3 C 0.7634(4) -0.3066(4) 0.1808(3)
H2 H 0.8188 -0.3728 0.1391
H3 H 0.7279 -0.3687 0.2478
H4 H 0.8315 -0.2823 0.2159
C4 C 1.0451(4) -0.0933(4) 0.2401(3)
C5 C 1.0668(4) -0.1531(4) 0.3809(3)
C6 C 1.1804(4) -0.1479(4) 0.4450(3)
H5 H 1.2443 -0.1095 0.4010
C7 C 1.1981(4) -0.1998(4) 0.5738(4)
H6 H 1.2739 -0.1958 0.6163
C8 C 1.1044(5) -0.2578(4) 0.6406(4)
H7 H 1.1160 -0.2914 0.7274
C9 C 0.9939(5) -0.2651(5) 0.5775(4)
H8 H 0.9320 -0.3062 0.6222
C10 C 0.9745(4) -0.2119(4) 0.4489(3)
H9 H 0.8981 -0.2157 0.4070
C11 C 0.8326(4) 0.3174(4) -0.0568(3)
C12 C 0.7389(4) 0.5055(4) -0.1041(3)
C13 C 0.5766(4) 0.5877(4) -0.1299(3)
H10 H 0.5256 0.5252 -0.1130
C14 C 0.4907(4) 0.7621(5) -0.1806(3)
H11 H 0.3824 0.8163 -0.1963
C15 C 0.5666(5) 0.8544(5) -0.2075(3)
H12 H 0.5093 0.9717 -0.2444
C16 C 0.7281(5) 0.7736(5) -0.1799(3)
H13 H 0.7790 0.8362 -0.1962
C17 C 0.8128(4) 0.6004(4) -0.1284(3)
H14 H 0.9211 0.5465 -0.1096
Zn1A Zn 1.14264(4) 0.01409(5) -0.00111(4)
Zn1A_2 Zn 0.14264(4) 0.01409(5) -0.00111(4)
O1A O 1.0723(3) 0.0797(3) -0.1845(2)
O2A O 1.1444(3) -0.0600(3) 0.1859(2)
O3A O 1.2401(3) -0.2377(3) 0.0438(2)
O4A O 0.9790(3) 0.2518(3) -0.0347(2)
N1A N 0.3525(3) 0.0168(3) -0.0056(2)
N1A_2 N 1.3525(3) 0.0168(3) -0.0056(2)
C1A C 0.4774(3) -0.1239(4) 0.0782(3)
H1A H 0.4638 -0.2129 0.1339
C2A C 0.3733(4) 0.1451(4) -0.0868(3)
C3A C 0.2366(4) 0.3066(4) -0.1808(3)
H2A H 0.1812 0.3728 -0.1391
H3A H 0.2721 0.3687 -0.2478
H4A H 0.1685 0.2823 -0.2159
C4A C 0.9549(4) 0.0933(4) -0.2401(3)
C5A C 0.9332(4) 0.1531(4) -0.3809(3)
C6A C 0.8196(4) 0.1479(4) -0.4450(3)
H5A H 0.7557 0.1095 -0.4010
C7A C 0.8019(4) 0.1998(4) -0.5738(4)
H6A H 0.7261 0.1958 -0.6163
C8A C 0.8956(5) 0.2578(4) -0.6406(4)
H7A H 0.8840 0.2914 -0.7274
C9A C 1.0061(5) 0.2651(5) -0.5775(4)
H8A H 1.0680 0.3062 -0.6222
C10A C 1.0255(4) 0.2119(4) -0.4489(3)
H9A H 1.1019 0.2157 -0.4070
C11A C 1.1674(4) -0.3174(4) 0.0568(3)
C12A C 1.2611(4) -0.5055(4) 0.1041(3)
C13A C 1.4234(4) -0.5877(4) 0.1299(3)
H10A H 1.4744 -0.5252 0.1130
C14A C 1.5093(4) -0.7621(5) 0.1806(3)
H11A H 1.6176 -0.8163 0.1963
C15A C 1.4334(5) -0.8544(5) 0.2075(3)
H12A H 1.4907 -0.9717 0.2444
C16A C 1.2719(5) -0.7736(5) 0.1799(3)
H13A H 1.2210 -0.8362 0.1962
C17A C 1.1872(4) -0.6004(4) 0.1284(3)
H14A H 1.0789 -0.5465 0.1096
N2 N 0.5298(3) 0.6106(4) 0.3976(3)
C18 C 0.4420(4) 0.5471(4) 0.3816(3)
H15 H 0.3996 0.5776 0.2993
C19 C 0.5886(4) 0.5628(4) 0.5169(3)
C20 C 0.6889(5) 0.6311(5) 0.5387(4)
H16 H 0.6427 0.7490 0.4796
H17 H 0.6966 0.6170 0.6240
H18 H 0.7910 0.5708 0.5264
N2A N 0.4702(3) 0.3894(4) 0.6024(3)
C18A C 0.5580(4) 0.4529(4) 0.6184(3)
H15A H 0.6004 0.4224 0.7007
C19A C 0.4114(4) 0.4372(4) 0.4831(3)
C20A C 0.3111(5) 0.3689(5) 0.4613(4)
H16A H 0.3573 0.2510 0.5204
H17A H 0.3034 0.3830 0.3760
H18A H 0.2090 0.4292 0.4736
loop_
_geom_bond_atom_site_label_1
_geom_bond_atom_site_label_2
_geom_bond_site_symmetry_1
_geom_bond_site_symmetry_2
Zn1 O1 1_555 1_555
O1 C4 1_555 1_555
O2 Zn1 1_555 1_555
O3 Zn1 1_555 1_555
O4 Zn1 1_555 1_555
N1 Zn1 1_555 1_555
C1 N1 1_555 1_555
H1 C1 1_555 1_555
C2 N1 1_555 1_555
C3 C2 1_555 1_555
H2 C3 1_555 1_555
H3 C3 1_555 1_555
H4 C3 1_555 1_555
C4 C5 1_555 1_555
C5 C6 1_555 1_555
C6 H5 1_555 1_555
C7 C6 1_555 1_555
H6 C7 1_555 1_555
C8 C7 1_555 1_555
H7 C8 1_555 1_555
C9 C8 1_555 1_555
H8 C9 1_555 1_555
C10 C5 1_555 1_555
H9 C10 1_555 1_555
C11 O3 1_555 1_555
C12 C11 1_555 1_555
C13 C12 1_555 1_555
H10 C13 1_555 1_555
C14 C13 1_555 1_555
H11 C14 1_555 1_555
C15 C14 1_555 1_555
H12 C15 1_555 1_555
C16 C15 1_555 1_555
H13 C16 1_555 1_555
C17 C12 1_555 1_555
H14 C17 1_555 1_555
N2 C18 1_555 1_555
C18 H15 1_555 1_555
C19 N2 1_555 1_555
C20 C19 1_555 1_555
H16 C20 1_555 1_555
H17 C20 1_555 1_555
H18 C20 1_555 1_555
Zn1A O1A 1_555 1_555
Zn1A_2 N1A 1_555 1_555
O1A C4A 1_555 1_555
O2A C4 1_555 1_555
O3A Zn1A 1_555 1_555
O4A C11 1_555 1_555
N1A C1A 1_555 1_555
N1A_2 Zn1A 1_555 1_555
C1A C2 1_555 1_555
H1A C1A 1_555 1_555
C2A C1 1_555 1_555
C3A C2A 1_555 1_555
H2A C3A 1_555 1_555
H3A C3A 1_555 1_555
H4A C3A 1_555 1_555
C4A O2 1_555 1_555
C5A C4A 1_555 1_555
C6A C5A 1_555 1_555
H5A C6A 1_555 1_555
C7A C6A 1_555 1_555
H6A C7A 1_555 1_555
C8A C7A 1_555 1_555
H7A C8A 1_555 1_555
C9A C8A 1_555 1_555
H8A C9A 1_555 1_555
C10A C5A 1_555 1_555
H9A C10A 1_555 1_555
C11A O4 1_555 1_555
C12A C11A 1_555 1_555
C13A C12A 1_555 1_555
H10A C13A 1_555 1_555
C14A C13A 1_555 1_555
H11A C14A 1_555 1_555
C15A C14A 1_555 1_555
H12A C15A 1_555 1_555
C16A C15A 1_555 1_555
H13A C16A 1_555 1_555
C17A C12A 1_555 1_555
H14A C17A 1_555 1_555
N2A C18A 1_555 1_555
C18A C19 1_555 1_555
H15A C18A 1_555 1_555
C19A C18 1_555 1_555
C20A C19A 1_555 1_555
H16A C20A 1_555 1_555
H17A C20A 1_555 1_555
H18A C20A 1_555 1_555
C9 C10 1_555 1_555
C16 C17 1_555 1_555
Zn1A O2A 1_555 1_555
Zn1A O4A 1_555 1_555
O3A C11A 1_555 1_555
N1A C2A 1_555 1_555
C9A C10A 1_555 1_555
C16A C17A 1_555 1_555
N2A C19A 1_555 1_555

#END
