
#######################################################################
#
#                 Cambridge Crystallographic Data Centre
#                                CCDC 
#
#######################################################################
#
# If this CIF has been generated from an entry in the Cambridge 
# Structural Database, then it will include bibliographic, chemical, 
# crystal, experimental, refinement or atomic coordinate data resulting 
# from the CCDC's data processing and validation procedures.
#
#######################################################################

data_GOJJOF
_symmetry_cell_setting           monoclinic
_symmetry_space_group_name_H-M   'P 21/c'
_symmetry_Int_Tables_number      14
_space_group_name_Hall           '-P 2ybc'
loop_
_symmetry_equiv_pos_site_id
_symmetry_equiv_pos_as_xyz
1 x,y,z
2 -x,1/2+y,1/2-z
3 -x,-y,-z
4 x,1/2-y,1/2+z
_cell_length_a                   14.6528(4)
_cell_length_b                   12.6997(5)
_cell_length_c                   9.8257(4)
_cell_angle_alpha                90
_cell_angle_beta                 92.838(2)
_cell_angle_gamma                90
_cell_volume                     1826.18
loop_
_atom_site_label
_atom_site_type_symbol
_atom_site_fract_x
_atom_site_fract_y
_atom_site_fract_z
Yb1 Yb 0.978478(19) 0.25719(3) 0.99248(3)
Ag1 Ag 0.47626(4) 0.13997(6) 1.00200(7)
C1 C 0.8303(4) 0.1873(6) 1.2184(8)
C2 C 0.7334(4) 0.1667(6) 1.2493(7)
C3 C 0.6662(4) 0.1658(7) 1.1451(8)
H1 H 0.6833 0.1750 1.0560
C4 C 0.5537(5) 0.1393(7) 1.2958(8)
H2 H 0.4920 0.1330 1.3122
C5 C 0.6163(5) 0.1351(7) 1.4054(8)
H3 H 0.5973 0.1236 1.4931
C6 C 0.7073(5) 0.1482(7) 1.3821(8)
H4 H 0.7511 0.1448 1.4538
C7 C 1.4039(5) 0.3679(7) 1.2059(9)
H5 H 1.4658 0.3771 1.1923
C8 C 1.3434(5) 0.3655(7) 1.0945(9)
H6 H 1.3641 0.3744 1.0072
C9 C 1.2508(5) 0.3497(6) 1.1133(8)
H7 H 1.2087 0.3479 1.0394
C10 C 1.2233(4) 0.3368(6) 1.2438(7)
C11 C 1.2870(4) 0.3411(6) 1.3505(7)
H8 H 1.2676 0.3326 1.4385
C12 C 1.1257(5) 0.3120(6) 1.2720(8)
C13 C 1.0371(5) 0.4958(7) 0.9461(8)
N1 N 0.5773(4) 0.1521(5) 1.1677(7)
N2 N 1.3768(4) 0.3573(5) 1.3328(7)
O1 O 0.8483(3) 0.2148(4) 1.1002(5)
O2 O 0.8889(3) 0.1808(5) 1.3174(5)
O3 O 1.0711(3) 0.3023(5) 1.1709(6)
O4 O 1.1044(3) 0.3043(4) 1.3920(6)
O5 O 1.0545(3) 0.4059(4) 0.9033(5)
O6 O 1.0751(3) 0.5827(4) 0.9157(5)
O11 O 1.0176(4) 0.1010(5) 1.1115(5)
H9 H 1.0717 0.0995 1.0950
H10 H 1.0180 0.1068 1.1947
O12 O 0.9157(3) 0.1084(4) 0.8693(5)
H11 H 0.8603 0.1014 0.8732
H12 H 0.9241 0.1113 0.7878
Yb1C Yb 0.978478(19) 0.24281(3) 0.49248(3)
Yb1C_2 Yb 0.978478(19) 0.24281(3) 1.49248(3)
Yb1B Yb 1.021522(19) 0.74281(3) 1.00752(3)
Ag1C Ag 0.47626(4) 0.36003(6) 0.50200(7)
Ag1C_2 Ag 1.47626(4) 0.36003(6) 1.50200(7)
Ag1_2 Ag 1.47626(4) 0.13997(6) 1.00200(7)
C1C C 0.8303(4) 0.3127(6) 0.7184(8)
C2C C 0.7334(4) 0.3333(6) 0.7493(7)
C3C C 0.6662(4) 0.3342(7) 0.6451(8)
H1C H 0.6833 0.3250 0.5560
C4C C 0.5537(5) 0.3607(7) 0.7958(8)
H2C H 0.4920 0.3670 0.8122
C5C C 0.6163(5) 0.3649(7) 0.9054(8)
H3C H 0.5973 0.3764 0.9931
C6C C 0.7073(5) 0.3518(7) 0.8821(8)
H4C H 0.7511 0.3552 0.9538
C7C C 1.4039(5) 0.1321(7) 0.7059(9)
H5C H 1.4658 0.1229 0.6923
C8C C 1.3434(5) 0.1345(7) 0.5945(9)
H6C H 1.3641 0.1256 0.5072
C9C C 1.2508(5) 0.1503(6) 0.6133(8)
H7C H 1.2087 0.1521 0.5394
C10C C 1.2233(4) 0.1632(6) 0.7438(7)
C11C C 1.2870(4) 0.1589(6) 0.8505(7)
H8C H 1.2676 0.1674 0.9385
C12C C 1.1257(5) 0.1880(6) 0.7720(8)
C13B C 0.9629(5) 0.5042(7) 1.0539(8)
N1C N 0.5773(4) 0.3479(5) 0.6677(7)
N2C N 1.3768(4) 0.1427(5) 0.8328(7)
N2C_2 N 0.3768(4) 0.1427(5) 0.8328(7)
N2_2 N 0.3768(4) 0.3573(5) 0.3328(7)
O1C O 0.8483(3) 0.2852(4) 0.6002(5)
O2C O 0.8889(3) 0.3192(5) 0.8174(5)
O2_2 O 0.8889(3) 0.1808(5) 0.3174(5)
O3C O 1.0711(3) 0.1977(5) 0.6709(6)
O4C O 1.1044(3) 0.1957(4) 0.8920(6)
O4_2 O 1.1044(3) 0.3043(4) 0.3920(6)
O5B O 0.9455(3) 0.5941(4) 1.0967(5)
O5C O 1.0545(3) 0.0941(4) 0.4033(5)
O6B O 0.9249(3) 0.4173(4) 1.0843(5)
O6A O 0.9249(3) 0.0827(4) 0.5843(5)
O11C O 1.0176(4) 0.3990(5) 0.6115(5)
H9C H 1.0717 0.4005 0.5950
H10C H 1.0180 0.3932 0.6947
O12C O 0.9157(3) 0.3916(4) 0.3693(5)
H11C H 0.8603 0.3986 0.3732
H12C H 0.9241 0.3887 0.2878
Cl1 Cl 0.68208(14) 0.0039(2) 0.7997(2)
O7 O 0.7169(7) 0.0487(11) 0.6868(10)
O8 O 0.7450(4) 0.0197(6) 0.9120(8)
O9 O 0.5991(5) 0.0479(9) 0.8292(11)
O10 O 0.6682(5) -0.1042(6) 0.7795(9)
loop_
_geom_bond_atom_site_label_1
_geom_bond_atom_site_label_2
_geom_bond_site_symmetry_1
_geom_bond_site_symmetry_2
Yb1 O1 1_555 1_555
Ag1 N1 1_555 1_555
C1 C2 1_555 1_555
C2 C3 1_555 1_555
C3 H1 1_555 1_555
C4 H2 1_555 1_555
C5 C4 1_555 1_555
H3 C5 1_555 1_555
C6 C2 1_555 1_555
H4 C6 1_555 1_555
C7 H5 1_555 1_555
C8 C7 1_555 1_555
H6 C8 1_555 1_555
C9 C8 1_555 1_555
H7 C9 1_555 1_555
C10 C9 1_555 1_555
C11 C10 1_555 1_555
H8 C11 1_555 1_555
C12 C10 1_555 1_555
C13 O5 1_555 1_555
Cl1 O7 1_555 1_555
N1 C3 1_555 1_555
N2 C7 1_555 1_555
O1 C1 1_555 1_555
O2 C1 1_555 1_555
O3 Yb1 1_555 1_555
O4 C12 1_555 1_555
O5 Yb1 1_555 1_555
O6 C13 1_555 1_555
O8 Cl1 1_555 1_555
O9 Cl1 1_555 1_555
O10 Cl1 1_555 1_555
O11 Yb1 1_555 1_555
H9 O11 1_555 1_555
H10 O11 1_555 1_555
O12 Yb1 1_555 1_555
H11 O12 1_555 1_555
H12 O12 1_555 1_555
Yb1C O1C 1_555 1_555
Yb1C_2 O2 1_555 1_555
Yb1B O6 1_555 1_555
Ag1C N1C 1_555 1_555
Ag1C_2 N2 1_555 1_555
Ag1_2 N2C 1_555 1_555
C1C C2C 1_555 1_555
C2C C3C 1_555 1_555
C3C H1C 1_555 1_555
C4C H2C 1_555 1_555
C5C C4C 1_555 1_555
H3C C5C 1_555 1_555
C6C C2C 1_555 1_555
H4C C6C 1_555 1_555
C7C H5C 1_555 1_555
C8C C7C 1_555 1_555
H6C C8C 1_555 1_555
C9C C8C 1_555 1_555
H7C C9C 1_555 1_555
C10C C9C 1_555 1_555
C11C C10C 1_555 1_555
H8C C11C 1_555 1_555
C12C C10C 1_555 1_555
C13B C13 1_555 1_555
N1C C3C 1_555 1_555
N2C C7C 1_555 1_555
N2C_2 Ag1 1_555 1_555
N2_2 Ag1C 1_555 1_555
O1C C1C 1_555 1_555
O2C Yb1 1_555 1_555
O2_2 Yb1C 1_555 1_555
O3C Yb1C 1_555 1_555
O4C Yb1 1_555 1_555
O4_2 Yb1C 1_555 1_555
O5B Yb1B 1_555 1_555
O5C Yb1C 1_555 1_555
O6B Yb1 1_555 1_555
O6A Yb1C 1_555 1_555
O11C Yb1C 1_555 1_555
H9C O11C 1_555 1_555
H10C O11C 1_555 1_555
O12C Yb1C 1_555 1_555
H11C O12C 1_555 1_555
H12C O12C 1_555 1_555
C4 N1 1_555 1_555
C5 C6 1_555 1_555
C11 N2 1_555 1_555
C12 O3 1_555 1_555
O4 Yb1C_2 1_555 1_555
C1C O2C 1_555 1_555
C4C N1C 1_555 1_555
C5C C6C 1_555 1_555
C11C N2C 1_555 1_555
C12C O3C 1_555 1_555
C12C O4C 1_555 1_555
C13B O5B 1_555 1_555
C13B O6B 1_555 1_555

#END
