
#######################################################################
#
#                 Cambridge Crystallographic Data Centre
#                                CCDC 
#
#######################################################################
#
# If this CIF has been generated from an entry in the Cambridge 
# Structural Database, then it will include bibliographic, chemical, 
# crystal, experimental, refinement or atomic coordinate data resulting 
# from the CCDC's data processing and validation procedures.
#
#######################################################################

data_GOJJIZ
_symmetry_cell_setting           monoclinic
_symmetry_space_group_name_H-M   'P 21/c'
_symmetry_Int_Tables_number      14
_space_group_name_Hall           '-P 2ybc'
loop_
_symmetry_equiv_pos_site_id
_symmetry_equiv_pos_as_xyz
1 x,y,z
2 -x,1/2+y,1/2-z
3 -x,-y,-z
4 x,1/2-y,1/2+z
_cell_length_a                   14.8129(4)
_cell_length_b                   12.7377(3)
_cell_length_c                   9.8903(2)
_cell_angle_alpha                90
_cell_angle_beta                 93.269(2)
_cell_angle_gamma                90
_cell_volume                     1863.09
loop_
_atom_site_label
_atom_site_type_symbol
_atom_site_fract_x
_atom_site_fract_y
_atom_site_fract_z
Tb1 Tb 0.02479(3) -0.25393(3) 0.00718(4)
Ag1 Ag -0.47324(5) -0.36212(7) -0.50153(8)
C1 C 0.1746(5) -0.3116(6) 0.2817(8)
C2 C 0.2715(5) -0.3336(6) 0.2508(8)
C3 C 0.3390(6) -0.3353(7) 0.3546(8)
H1 H 0.3222 -0.3269 0.4431
C4 C 0.4494(6) -0.3606(8) 0.2051(9)
H2 H 0.5102 -0.3676 0.1884
C5 C 0.3871(6) -0.3630(9) 0.0976(9)
H3 H 0.4055 -0.3733 0.0103
C6 C 0.2966(6) -0.3500(8) 0.1204(8)
H4 H 0.2532 -0.3522 0.0486
C7 C -0.3999(6) -0.3683(8) -0.2059(9)
H5 H -0.4609 -0.3777 -0.1916
C8 C -0.3382(6) -0.3638(8) -0.0953(9)
H6 H -0.3576 -0.3710 -0.0080
C9 C -0.2486(6) -0.3488(7) -0.1157(9)
H7 H -0.2064 -0.3468 -0.0425
C10 C -0.2213(5) -0.3368(6) -0.2459(8)
C11 C -0.2859(6) -0.3433(7) -0.3527(9)
H8 H -0.2676 -0.3365 -0.4407
C12 C -0.1248(6) -0.3139(6) -0.2746(8)
C13 C 0.0360(5) -0.5056(7) -0.0529(8)
N1 N 0.4267(5) -0.3485(6) 0.3340(7)
N2 N -0.3739(5) -0.3593(6) -0.3334(7)
O1 O 0.1579(4) -0.2125(5) -0.1003(5)
O2 O 0.1173(4) -0.3184(5) 0.1854(6)
O3 O -0.0703(4) -0.2980(5) -0.1762(6)
O4 O -0.1048(4) -0.1895(5) 0.1045(6)
O5 O 0.0520(4) -0.5947(4) -0.0967(5)
O6 O -0.0747(4) -0.5810(5) 0.0851(6)
O11 O -0.0110(5) -0.0936(5) -0.1150(6)
H9 H -0.0651 -0.0921 -0.0985
H10 H -0.0114 -0.0995 -0.1982
O12 O 0.0894(5) -0.1038(5) 0.1346(6)
H11 H 0.1448 -0.0968 0.1308
H12 H 0.0810 -0.1067 0.2161
Tb1B Tb -0.02479(3) -0.74607(3) -0.00718(4)
Tb1C Tb 0.02479(3) -0.24607(3) -0.49282(4)
Tb1C_2 Tb 0.02479(3) -0.24607(3) 0.50718(4)
Ag1_2 Ag 0.52676(5) -0.36212(7) 0.49847(8)
Ag1C Ag -0.47324(5) -0.13788(7) -0.00153(8)
Ag1C_2 Ag 0.52676(5) -0.13788(7) -0.00153(8)
C1C C 0.1746(5) -0.1884(6) -0.2183(8)
C2C C 0.2715(5) -0.1664(6) -0.2492(8)
C3C C 0.3390(6) -0.1647(7) -0.1454(8)
H1C H 0.3222 -0.1731 -0.0569
C4C C 0.4494(6) -0.1394(8) -0.2949(9)
H2C H 0.5102 -0.1324 -0.3116
C5C C 0.3871(6) -0.1370(9) -0.4024(9)
H3C H 0.4055 -0.1267 -0.4897
C6C C 0.2966(6) -0.1500(8) -0.3796(8)
H4C H 0.2532 -0.1478 -0.4514
C7C C -0.3999(6) -0.1317(8) 0.2941(9)
H5C H -0.4609 -0.1223 0.3084
C8C C -0.3382(6) -0.1362(8) 0.4047(9)
H6C H -0.3576 -0.1290 0.4920
C9C C -0.2486(6) -0.1512(7) 0.3843(9)
H7C H -0.2064 -0.1532 0.4575
C10C C -0.2213(5) -0.1632(6) 0.2541(8)
C11C C -0.2859(6) -0.1567(7) 0.1473(9)
H8C H -0.2676 -0.1635 0.0593
C12C C -0.1248(6) -0.1861(6) 0.2254(8)
C13B C -0.0360(5) -0.4944(7) 0.0529(8)
N1_2 N -0.5733(5) -0.3485(6) -0.6660(7)
N1C N 0.4267(5) -0.1515(6) -0.1660(7)
N1C_2 N -0.5733(5) -0.1515(6) -0.1660(7)
N2C N -0.3739(5) -0.1407(6) 0.1666(7)
O1C O 0.1579(4) -0.2875(5) 0.3997(5)
O1C_2 O 0.1579(4) -0.2875(5) -0.6003(5)
O2C O 0.1173(4) -0.1816(5) -0.3146(6)
O3C O -0.0703(4) -0.2020(5) 0.3238(6)
O3C_2 O -0.0703(4) -0.2020(5) -0.6762(6)
O4C O -0.1048(4) -0.3105(5) -0.3955(6)
O5B O -0.0520(4) -0.4053(4) 0.0967(5)
O5A O -0.0520(4) -0.0947(4) -0.4033(5)
O6B O 0.0747(4) -0.4190(5) -0.0851(6)
O6A O 0.0747(4) -0.0810(5) -0.5851(6)
O11C O -0.0110(5) -0.4064(5) -0.6150(6)
H9C H -0.0651 -0.4079 -0.5985
H10C H -0.0114 -0.4005 -0.6982
O12C O 0.0894(5) -0.3962(5) -0.3654(6)
H11C H 0.1448 -0.4032 -0.3692
H12C H 0.0810 -0.3933 -0.2839
Cl1 Cl -0.32134(17) -0.9941(2) -0.2039(2)
O7 O -0.2852(9) -0.9511(13) -0.3165(12)
O8 O -0.2602(6) -0.9766(8) -0.0898(9)
O9 O -0.4050(6) -0.9495(10) -0.1773(15)
O10 O -0.3321(7) -1.1021(8) -0.2218(12)
loop_
_geom_bond_atom_site_label_1
_geom_bond_atom_site_label_2
_geom_bond_site_symmetry_1
_geom_bond_site_symmetry_2
Tb1 O1 1_555 1_555
Ag1 N2 1_555 1_555
C1 C2 1_555 1_555
C2 C3 1_555 1_555
C3 H1 1_555 1_555
C4 H2 1_555 1_555
C5 C4 1_555 1_555
H3 C5 1_555 1_555
C6 C2 1_555 1_555
H4 C6 1_555 1_555
C7 H5 1_555 1_555
C8 C7 1_555 1_555
H6 C8 1_555 1_555
C9 C8 1_555 1_555
H7 C9 1_555 1_555
C10 C9 1_555 1_555
C11 C10 1_555 1_555
H8 C11 1_555 1_555
C12 C10 1_555 1_555
C13 O5 1_555 1_555
Cl1 O7 1_555 1_555
N1 C3 1_555 1_555
N2 C7 1_555 1_555
O1 C1C 1_555 1_555
O2 Tb1 1_555 1_555
O3 Tb1 1_555 1_555
O4 Tb1 1_555 1_555
O5 Tb1B 1_555 1_555
O6 Tb1B 1_555 1_555
O8 Cl1 1_555 1_555
O9 Cl1 1_555 1_555
O10 Cl1 1_555 1_555
O11 Tb1 1_555 1_555
H9 O11 1_555 1_555
H10 O11 1_555 1_555
O12 Tb1 1_555 1_555
H11 O12 1_555 1_555
H12 O12 1_555 1_555
Tb1C O1C_2 1_555 1_555
Tb1C_2 O1C 1_555 1_555
Ag1_2 N1 1_555 1_555
Ag1C N1C_2 1_555 1_555
Ag1C_2 N1C 1_555 1_555
C1C C2C 1_555 1_555
C2C C3C 1_555 1_555
C3C H1C 1_555 1_555
C4C H2C 1_555 1_555
C5C C4C 1_555 1_555
H3C C5C 1_555 1_555
C6C C2C 1_555 1_555
H4C C6C 1_555 1_555
C7C H5C 1_555 1_555
C8C C7C 1_555 1_555
H6C C8C 1_555 1_555
C9C C8C 1_555 1_555
H7C C9C 1_555 1_555
C10C C9C 1_555 1_555
C11C C10C 1_555 1_555
H8C C11C 1_555 1_555
C12C O4 1_555 1_555
C13B C13 1_555 1_555
N1_2 Ag1 1_555 1_555
N1C C3C 1_555 1_555
N2C Ag1C 1_555 1_555
O1C C1 1_555 1_555
O2C Tb1C 1_555 1_555
O3C Tb1C_2 1_555 1_555
O3C_2 Tb1C 1_555 1_555
O4C C12 1_555 1_555
O5B Tb1 1_555 1_555
O5A Tb1C 1_555 1_555
O6B Tb1 1_555 1_555
O6A Tb1C 1_555 1_555
O11C Tb1C 1_555 1_555
H9C O11C 1_555 1_555
H10C O11C 1_555 1_555
O12C Tb1C 1_555 1_555
H11C O12C 1_555 1_555
H12C O12C 1_555 1_555
C1 O2 1_555 1_555
C4 N1 1_555 1_555
C5 C6 1_555 1_555
C11 N2 1_555 1_555
C12 O3 1_555 1_555
C13 O6B 1_555 1_555
O6 C13B 1_555 1_555
Tb1C O4C 1_555 1_555
C1C O2C 1_555 1_555
C4C N1C 1_555 1_555
C5C C6C 1_555 1_555
C7C N2C 1_555 1_555
C10C C12C 1_555 1_555
C11C N2C 1_555 1_555
C12C O3C 1_555 1_555
C13B O5B 1_555 1_555

#END
