
#######################################################################
#
#                 Cambridge Crystallographic Data Centre
#                                CCDC 
#
#######################################################################
#
# If this CIF has been generated from an entry in the Cambridge 
# Structural Database, then it will include bibliographic, chemical, 
# crystal, experimental, refinement or atomic coordinate data resulting 
# from the CCDC's data processing and validation procedures.
#
#######################################################################

data_GOJJEV
_symmetry_cell_setting           orthorhombic
_symmetry_space_group_name_H-M   'C m c a'
_symmetry_Int_Tables_number      64
_space_group_name_Hall           '-C 2ac 2'
loop_
_symmetry_equiv_pos_site_id
_symmetry_equiv_pos_as_xyz
1 x,y,z
2 1/2+x,1/2+y,z
3 -x,1/2-y,1/2+z
4 -x,1/2+y,1/2-z
5 x,-y,-z
6 1/2-x,-y,1/2+z
7 1/2-x,y,1/2-z
8 1/2+x,1/2-y,-z
9 -x,-y,-z
10 1/2-x,1/2-y,-z
11 x,1/2+y,1/2-z
12 x,1/2-y,1/2+z
13 -x,y,z
14 1/2+x,y,1/2-z
15 1/2+x,-y,1/2+z
16 1/2-x,1/2+y,z
_cell_length_a                   35.2066(12)
_cell_length_b                   12.3551(3)
_cell_length_c                   15.0970(4)
_cell_angle_alpha                90
_cell_angle_beta                 90
_cell_angle_gamma                90
_cell_volume                     6566.91
loop_
_atom_site_label
_atom_site_type_symbol
_atom_site_fract_x
_atom_site_fract_y
_atom_site_fract_z
O7 O 0.1780(3) -0.5000 -0.5000
H13 H 0.1970 -0.5171 -0.4684
H13D H 0.1970 -0.4829 -0.5316
Cl1 Cl 0.9975(3) -0.3171(4) -0.4075(3)
O8 O 0.9943(5) -0.2027(6) -0.4118(8)
O9 O 1.0361(3) -0.3489(11) -0.4183(8)
O10 O 0.9860(4) -0.3509(11) -0.3184(7)
O11 O 0.9739(4) -0.3687(11) -0.4693(9)
Cl1L Cl 1.0025(3) -0.3171(4) -0.4075(3)
O8L O 1.0057(5) -0.2027(6) -0.4118(8)
O9L O 0.9639(3) -0.3489(11) -0.4183(8)
O10L O 1.0140(4) -0.3509(11) -0.3184(7)
O11L O 1.0261(4) -0.3687(11) -0.4693(9)
Ag1 Ag 0.11114(2) -0.38976(5) -0.43595(4)
C1 C 0.1962(2) -0.4249(6) -0.1034(5)
C2 C 0.1572(2) -0.3903(6) -0.0808(5)
C3 C 0.1257(2) -0.4445(7) -0.1112(6)
H1 H 0.1289 -0.5061 -0.1458
C4 C 0.0893(3) -0.4096(8) -0.0917(7)
H2 H 0.0679 -0.4453 -0.1130
C5 C 0.0865(3) -0.3174(7) -0.0379(6)
H3 H 0.0624 -0.2930 -0.0226
C6 C 0.3495(2) -0.3005(6) -0.4717(5)
H4 H 0.3285 -0.2638 -0.4940
Gd1 Gd 0.2500 -0.58367(4) -0.2500
C7 C 0.0688(3) -0.5669(8) -0.3304(7)
H5 H 0.0476 -0.5288 -0.3501
C8 C 0.0634(3) -0.6550(9) -0.2787(9)
H6 H 0.0389 -0.6785 -0.2658
C9 C 0.0949(2) -0.7108(8) -0.2444(7)
H7 H 0.0918 -0.7695 -0.2064
C10 C 0.1311(2) -0.6755(6) -0.2692(5)
C11 C 0.1331(2) -0.5858(5) -0.3229(5)
H8 H 0.1570 -0.5602 -0.3385
C12 C 0.1664(2) -0.7331(6) -0.2378(5)
N1 N 0.10282(18) -0.5330(5) -0.3540(4)
N2 N 0.11620(19) -0.2629(5) -0.0076(4)
O1 O 0.20062(14) -0.4992(4) -0.1576(3)
O2 O 0.27629(15) -0.3750(4) -0.4343(3)
O3 O 0.16234(15) -0.8139(4) -0.1905(4)
O4 O 0.19772(14) -0.6966(4) -0.2654(3)
O5 O 0.25088(15) -0.6653(4) -0.1039(3)
H9 H 0.2399 -0.6582 -0.0564
H10 H 0.2700 -0.7006 -0.0912
O6 O 0.21907(15) -0.4492(4) -0.3368(3)
H11 H 0.2001 -0.4109 -0.3320
H12 H 0.2325 -0.4162 -0.3719
Ag1K Ag 0.11114(2) -0.11024(5) 0.06405(4)
Ag1F Ag 0.38886(2) -0.38976(5) -0.06405(4)
Ag1I Ag 0.38886(2) -0.11024(5) -0.56405(4)
C1F C 0.3038(2) -0.4249(6) -0.3966(5)
C2F C 0.3428(2) -0.3903(6) -0.4192(5)
C3F C 0.3743(2) -0.4445(7) -0.3888(6)
H1F H 0.3711 -0.5061 -0.3542
C4F C 0.4107(3) -0.4096(8) -0.4083(7)
H2F H 0.4321 -0.4453 -0.3870
C5F C 0.4135(3) -0.3174(7) -0.4621(6)
H3F H 0.4376 -0.2930 -0.4774
C6F C 0.1505(2) -0.3005(6) -0.0283(5)
H4F H 0.1715 -0.2638 -0.0060
C7F C 0.4312(3) -0.5669(8) -0.1696(7)
H5F H 0.4524 -0.5288 -0.1499
C8F C 0.4366(3) -0.6550(9) -0.2213(9)
H6F H 0.4611 -0.6785 -0.2342
C9F C 0.4051(2) -0.7108(8) -0.2556(7)
H7F H 0.4082 -0.7695 -0.2936
C10F C 0.3689(2) -0.6755(6) -0.2308(5)
C11F C 0.3669(2) -0.5858(5) -0.1771(5)
H8F H 0.3430 -0.5602 -0.1615
C12F C 0.3336(2) -0.7331(6) -0.2622(5)
N1F N 0.39718(18) -0.5330(5) -0.1460(4)
N2K N 0.11620(19) -0.2371(5) -0.5076(4)
N2I N 0.38380(19) -0.2371(5) 0.0076(4)
N2F N 0.38380(19) -0.2629(5) -0.4924(4)
O1F O 0.29938(14) -0.4992(4) -0.3424(3)
O2F O 0.22371(15) -0.3750(4) -0.0657(3)
O3F O 0.33766(15) -0.8139(4) -0.3095(4)
O4F O 0.30228(14) -0.6966(4) -0.2346(3)
O5F O 0.24912(15) -0.6653(4) -0.3961(3)
H9F H 0.2601 -0.6582 -0.4436
H10F H 0.2300 -0.7006 -0.4088
O6F O 0.28093(15) -0.4492(4) -0.1632(3)
H11F H 0.2999 -0.4109 -0.1680
H12F H 0.2675 -0.4162 -0.1281
loop_
_geom_bond_atom_site_label_1
_geom_bond_atom_site_label_2
_geom_bond_site_symmetry_1
_geom_bond_site_symmetry_2
Ag1 N1 1_555 1_555
C1 C2 1_555 1_555
C2 C3 1_555 1_555
C3 H1 1_555 1_555
C4 C3 1_555 1_555
H2 C4 1_555 1_555
C5 C4 1_555 1_555
H3 C5 1_555 1_555
C6 H4 1_555 1_555
Gd1 O1 1_555 1_555
C7 H5 1_555 1_555
C8 C7 1_555 1_555
H6 C8 1_555 1_555
C9 C8 1_555 1_555
H7 C9 1_555 1_555
C10 C9 1_555 1_555
C11 C10 1_555 1_555
H8 C11 1_555 1_555
C12 C10 1_555 1_555
N1 C7 1_555 1_555
N2 C5 1_555 1_555
O1 C1 1_555 1_555
O2 C1F 1_555 1_555
O3 C12 1_555 1_555
O4 Gd1 1_555 1_555
O5 Gd1 1_555 1_555
H9 O5 1_555 1_555
H10 O5 1_555 1_555
O6 Gd1 1_555 1_555
H11 O6 1_555 1_555
H12 O6 1_555 1_555
O7 H13 1_555 1_555
Cl1 O8 1_555 1_555
O8 Cl1L 1_555 1_555
O9 Cl1 1_555 1_555
O10 Cl1 1_555 1_555
O11 Cl1 1_555 1_555
Ag1K N2 1_555 1_555
Ag1F N1F 1_555 1_555
Ag1I N2F 1_555 1_555
C1F C2F 1_555 1_555
C2F C6 1_555 1_555
C3F C2F 1_555 1_555
H1F C3F 1_555 1_555
C4F C3F 1_555 1_555
H2F C4F 1_555 1_555
C5F C4F 1_555 1_555
H3F C5F 1_555 1_555
C6F C2 1_555 1_555
H4F C6F 1_555 1_555
C7F H5F 1_555 1_555
C8F C7F 1_555 1_555
H6F C8F 1_555 1_555
C9F C8F 1_555 1_555
H7F C9F 1_555 1_555
C10F C9F 1_555 1_555
C11F C10F 1_555 1_555
H8F C11F 1_555 1_555
C12F C10F 1_555 1_555
N1F C7F 1_555 1_555
N2K Ag1 1_555 1_555
N2I Ag1F 1_555 1_555
N2F C6 1_555 1_555
O1F Gd1 1_555 1_555
O2F C1 1_555 1_555
O3F C12F 1_555 1_555
O4F Gd1 1_555 1_555
O5F Gd1 1_555 1_555
H9F O5F 1_555 1_555
H10F O5F 1_555 1_555
O6F Gd1 1_555 1_555
H11F O6F 1_555 1_555
H12F O6F 1_555 1_555
H13D O7 1_555 1_555
Cl1L Cl1 1_555 1_555
O8L Cl1 1_555 1_555
O9L Cl1 1_555 1_555
O10L Cl1 1_555 1_555
O11L Cl1 1_555 1_555
C11 N1 1_555 1_555
C12 O4 1_555 1_555
N2 C6F 1_555 1_555
O8 O8L 1_555 1_555
O9 Cl1L 1_555 1_555
O9 O10L 1_555 1_555
O9 O11L 1_555 1_555
O10 Cl1L 1_555 1_555
O10 O9L 1_555 1_555
O10 O10L 1_555 1_555
O11 Cl1L 1_555 1_555
O11 O9L 1_555 1_555
C1F O1F 1_555 1_555
C5F N2F 1_555 1_555
C11F N1F 1_555 1_555
C12F O4F 1_555 1_555
Cl1L O8L 1_555 1_555
Cl1L O9L 1_555 1_555
Cl1L O10L 1_555 1_555
Cl1L O11L 1_555 1_555

#END
