
#######################################################################
#
#                 Cambridge Crystallographic Data Centre
#                                CCDC 
#
#######################################################################
#
# If this CIF has been generated from an entry in the Cambridge 
# Structural Database, then it will include bibliographic, chemical, 
# crystal, experimental, refinement or atomic coordinate data resulting 
# from the CCDC's data processing and validation procedures.
#
#######################################################################

data_GOJJAR
_symmetry_cell_setting           orthorhombic
_symmetry_space_group_name_H-M   'C m c a'
_symmetry_Int_Tables_number      64
_space_group_name_Hall           '-C 2ac 2'
loop_
_symmetry_equiv_pos_site_id
_symmetry_equiv_pos_as_xyz
1 x,y,z
2 1/2+x,1/2+y,z
3 -x,1/2-y,1/2+z
4 -x,1/2+y,1/2-z
5 x,-y,-z
6 1/2-x,-y,1/2+z
7 1/2-x,y,1/2-z
8 1/2+x,1/2-y,-z
9 -x,-y,-z
10 1/2-x,1/2-y,-z
11 x,1/2+y,1/2-z
12 x,1/2-y,1/2+z
13 -x,y,z
14 1/2+x,y,1/2-z
15 1/2+x,-y,1/2+z
16 1/2-x,1/2+y,z
_cell_length_a                   35.228(3)
_cell_length_b                   12.3545(8)
_cell_length_c                   15.1173(11)
_cell_angle_alpha                90
_cell_angle_beta                 90
_cell_angle_gamma                90
_cell_volume                     6579.42
loop_
_atom_site_label
_atom_site_type_symbol
_atom_site_fract_x
_atom_site_fract_y
_atom_site_fract_z
O7 O 0.1780(4) -0.5000 0.5000
H13 H 0.1971 -0.5171 0.5316
H13D H 0.1971 -0.4829 0.4684
Cl1 Cl -0.0030(5) -0.3168(6) 0.5919(6)
O8 O -0.0064(8) -0.2017(8) 0.5858(13)
O9 O 0.0357(5) -0.3489(17) 0.5788(13)
O10 O -0.0145(7) -0.3503(17) 0.6803(10)
O11 O -0.0270(6) -0.3685(18) 0.5288(14)
Cl1L Cl 0.0030(5) -0.3168(6) 0.5919(6)
O8L O 0.0064(8) -0.2017(8) 0.5858(13)
O9L O -0.0357(5) -0.3489(17) 0.5788(13)
O10L O 0.0145(7) -0.3503(17) 0.6803(10)
O11L O 0.0270(6) -0.3685(18) 0.5288(14)
Ag1 Ag 0.11107(3) -0.39008(9) 0.56396(7)
C1 C 0.1966(3) -0.0752(9) 0.3972(7)
C2 C 0.1571(3) -0.1102(11) 0.4193(8)
C3 C 0.1262(4) -0.0553(12) 0.3897(9)
H1 H 0.1297 0.0073 0.3566
C4 C 0.0900(4) -0.0898(14) 0.4075(12)
H2 H 0.0689 -0.0540 0.3850
C5 C 0.0862(5) -0.1833(12) 0.4623(11)
H3 H 0.0620 -0.2071 0.4774
C6 C 0.1507(4) -0.1989(10) 0.4721(8)
H4 H 0.1716 -0.2348 0.4953
Eu1 Eu 0.2500 0.08371(6) 0.2500
C7 C 0.0685(4) 0.0664(13) 0.1695(11)
H5 H 0.0474 0.0283 0.1497
C8 C 0.0632(4) 0.1558(14) 0.2215(14)
H6 H 0.0388 0.1797 0.2347
C9 C 0.0947(3) 0.2106(13) 0.2546(12)
H7 H 0.0916 0.2699 0.2917
C10 C 0.1310(4) 0.1757(9) 0.2314(8)
C11 C 0.1330(4) 0.0862(10) 0.1768(8)
H8 H 0.1569 0.0618 0.1602
C12 C 0.1661(3) 0.2330(10) 0.2627(9)
N1 N 0.1028(3) 0.0325(8) 0.1465(7)
N2 N 0.1160(3) -0.2371(9) 0.4923(7)
O1 O 0.2006(2) -0.0013(7) 0.3429(5)
O2 O 0.2234(2) -0.1264(7) 0.4338(6)
O3 O 0.1621(2) 0.3146(7) 0.3090(6)
O4 O 0.1974(2) 0.1961(7) 0.2348(5)
O5 O 0.2509(3) 0.1654(7) 0.3965(5)
H9 H 0.2399 0.1584 0.4440
H10 H 0.2701 0.2008 0.4092
O6 O 0.2190(2) -0.0511(6) 0.1631(6)
H11 H 0.2001 -0.0894 0.1679
H12 H 0.2325 -0.0841 0.1280
Ag1F Ag 0.38893(3) -0.39008(9) -0.06396(7)
Ag1K Ag 0.11107(3) -0.10992(9) 0.06396(7)
Ag1I Ag 0.38893(3) -0.10992(9) 0.43604(7)
C1F C 0.3034(3) -0.0752(9) 0.1028(7)
C2F C 0.3429(3) -0.1102(11) 0.0807(8)
C3F C 0.3738(4) -0.0553(12) 0.1103(9)
H1F H 0.3703 0.0073 0.1434
C4F C 0.4100(4) -0.0898(14) 0.0925(12)
H2F H 0.4311 -0.0540 0.1150
C5F C 0.4138(5) -0.1833(12) 0.0377(11)
H3F H 0.4380 -0.2071 0.0226
C6F C 0.3493(4) -0.1989(10) 0.0279(8)
H4F H 0.3284 -0.2348 0.0047
C7F C 0.4315(4) 0.0664(13) 0.3305(11)
H5F H 0.4526 0.0283 0.3503
C8F C 0.4368(4) 0.1558(14) 0.2785(14)
H6F H 0.4612 0.1797 0.2653
C9F C 0.4053(3) 0.2106(13) 0.2454(12)
H7F H 0.4084 0.2699 0.2083
C10F C 0.3690(4) 0.1757(9) 0.2686(8)
C11F C 0.3670(4) 0.0862(10) 0.3232(8)
H8F H 0.3431 0.0618 0.3398
C12F C 0.3339(3) 0.2330(10) 0.2373(9)
N1K N 0.1028(3) -0.5325(8) 0.6465(7)
N1F N 0.3972(3) 0.0325(8) 0.3535(7)
N2F N 0.3840(3) -0.2371(9) 0.0077(7)
N2K N 0.1160(3) -0.2629(9) -0.0077(7)
O1F O 0.2994(2) -0.0013(7) 0.1571(5)
O2F O 0.2766(2) -0.1264(7) 0.0662(6)
O3F O 0.3379(2) 0.3146(7) 0.1910(6)
O4F O 0.3026(2) 0.1961(7) 0.2652(5)
O5F O 0.2491(3) 0.1654(7) 0.1035(5)
H9F H 0.2601 0.1584 0.0560
H10F H 0.2299 0.2008 0.0908
O6F O 0.2810(2) -0.0511(6) 0.3369(6)
H11F H 0.2999 -0.0894 0.3321
H12F H 0.2675 -0.0841 0.3720
loop_
_geom_bond_atom_site_label_1
_geom_bond_atom_site_label_2
_geom_bond_site_symmetry_1
_geom_bond_site_symmetry_2
Ag1 N2 1_555 1_555
C1 C2 1_555 1_555
C2 C3 1_555 1_555
C3 H1 1_555 1_555
C4 C3 1_555 1_555
H2 C4 1_555 1_555
C5 C4 1_555 1_555
H3 C5 1_555 1_555
C6 C2 1_555 1_555
H4 C6 1_555 1_555
Eu1 O1 1_555 1_555
C7 H5 1_555 1_555
C8 C7 1_555 1_555
H6 C8 1_555 1_555
C9 C8 1_555 1_555
H7 C9 1_555 1_555
C10 C9 1_555 1_555
C11 C10 1_555 1_555
H8 C11 1_555 1_555
C12 C10 1_555 1_555
N1 C7 1_555 1_555
N2 C5 1_555 1_555
O1 C1 1_555 1_555
O2 C1 1_555 1_555
O3 C12 1_555 1_555
O4 Eu1 1_555 1_555
O5 Eu1 1_555 1_555
H9 O5 1_555 1_555
H10 O5 1_555 1_555
O6 Eu1 1_555 1_555
H11 O6 1_555 1_555
H12 O6 1_555 1_555
O7 H13 1_555 1_555
Cl1 O8 1_555 1_555
O8 Cl1L 1_555 1_555
O9 Cl1 1_555 1_555
O10 Cl1 1_555 1_555
O11 Cl1 1_555 1_555
Ag1F N2F 1_555 1_555
Ag1K N1 1_555 1_555
Ag1I N1F 1_555 1_555
C1F C2F 1_555 1_555
C2F C3F 1_555 1_555
C3F H1F 1_555 1_555
C4F C3F 1_555 1_555
H2F C4F 1_555 1_555
C5F C4F 1_555 1_555
H3F C5F 1_555 1_555
C6F C2F 1_555 1_555
H4F C6F 1_555 1_555
C7F H5F 1_555 1_555
C8F C7F 1_555 1_555
H6F C8F 1_555 1_555
C9F C8F 1_555 1_555
H7F C9F 1_555 1_555
C10F C9F 1_555 1_555
C11F C10F 1_555 1_555
H8F C11F 1_555 1_555
C12F C10F 1_555 1_555
N1K Ag1 1_555 1_555
N1F C7F 1_555 1_555
N2F C5F 1_555 1_555
N2K Ag1K 1_555 1_555
O1F Eu1 1_555 1_555
O2F C1F 1_555 1_555
O3F C12F 1_555 1_555
O4F Eu1 1_555 1_555
O5F Eu1 1_555 1_555
H9F O5F 1_555 1_555
H10F O5F 1_555 1_555
O6F Eu1 1_555 1_555
H11F O6F 1_555 1_555
H12F O6F 1_555 1_555
H13D O7 1_555 1_555
Cl1L Cl1 1_555 1_555
O8L Cl1 1_555 1_555
O9L Cl1 1_555 1_555
O10L Cl1 1_555 1_555
O11L Cl1 1_555 1_555
C6 N2 1_555 1_555
C11 N1 1_555 1_555
C12 O4 1_555 1_555
O8 O8L 1_555 1_555
O9 Cl1L 1_555 1_555
O9 O10L 1_555 1_555
O9 O11L 1_555 1_555
O10 Cl1L 1_555 1_555
O10 O9L 1_555 1_555
O10 O10L 1_555 1_555
O11 Cl1L 1_555 1_555
O11 O9L 1_555 1_555
C1F O1F 1_555 1_555
C6F N2F 1_555 1_555
C11F N1F 1_555 1_555
C12F O4F 1_555 1_555
Cl1L O8L 1_555 1_555
Cl1L O9L 1_555 1_555
Cl1L O10L 1_555 1_555
Cl1L O11L 1_555 1_555

#END
