
#######################################################################
#
#                 Cambridge Crystallographic Data Centre
#                                CCDC 
#
#######################################################################
#
# If this CIF has been generated from an entry in the Cambridge 
# Structural Database, then it will include bibliographic, chemical, 
# crystal, experimental, refinement or atomic coordinate data resulting 
# from the CCDC's data processing and validation procedures.
#
#######################################################################

data_GOJMUN
_symmetry_cell_setting           orthorhombic
_symmetry_space_group_name_H-M   'F d d d'
_symmetry_Int_Tables_number      70
_space_group_name_Hall           '-F 2uv 2vw'
loop_
_symmetry_equiv_pos_site_id
_symmetry_equiv_pos_as_xyz
1 x,y,z
2 1/4-x,1/4-y,z
3 x,1/4-y,1/4-z
4 1/4-x,y,1/4-z
5 x,1/2+y,1/2+z
6 1/4-x,3/4-y,1/2+z
7 x,3/4-y,3/4-z
8 1/4-x,1/2+y,3/4-z
9 1/2+x,y,1/2+z
10 3/4-x,1/4-y,1/2+z
11 1/2+x,1/4-y,3/4-z
12 3/4-x,y,3/4-z
13 1/2+x,1/2+y,z
14 3/4-x,3/4-y,z
15 1/2+x,3/4-y,1/4-z
16 3/4-x,1/2+y,1/4-z
17 -x,-y,-z
18 3/4+x,3/4+y,-z
19 -x,3/4+y,3/4+z
20 3/4+x,-y,3/4+z
21 -x,1/2-y,1/2-z
22 3/4+x,1/4+y,1/2-z
23 -x,1/4+y,1/4+z
24 3/4+x,1/2-y,1/4+z
25 1/2-x,-y,1/2-z
26 1/4+x,3/4+y,1/2-z
27 1/2-x,3/4+y,1/4+z
28 1/4+x,-y,1/4+z
29 1/2-x,1/2-y,-z
30 1/4+x,1/4+y,-z
31 1/2-x,1/4+y,3/4+z
32 1/4+x,1/2-y,3/4+z
_cell_length_a                   26.08(1)
_cell_length_b                   28.834(5)
_cell_length_c                   12.209(3)
_cell_angle_alpha                90
_cell_angle_beta                 90
_cell_angle_gamma                90
_cell_volume                     9181.05
loop_
_atom_site_label
_atom_site_type_symbol
_atom_site_fract_x
_atom_site_fract_y
_atom_site_fract_z
Cu1 Cu 0.30647(1) 0.12500 0.12500
O1 O 0.3158(1) 0.1761(1) 0.2328(2)
O2 O 0.2172(2) 0.12500 0.12500
O3 O 0.3984(2) 0.12500 0.12500
N1 N 0.3076(1) 0.1766(1) 0.0207(2)
N2 N 0.3377(1) 0.2512(1) 0.2445(2)
C1 C 0.3169(1) 0.2184(1) 0.0665(2)
C2 C 0.3001(2) 0.1739(1) -0.0873(3)
C3 C 0.3014(2) 0.2128(1) -0.1530(3)
C4 C 0.3107(2) 0.2551(1) -0.1064(3)
C5 C 0.3185(1) 0.2581(1) 0.0053(3)
C6 C 0.3237(1) 0.2147(1) 0.1890(2)
C7 C 0.3466(1) 0.2502(1) 0.3623(3)
H1 H 0.29386 0.14447 -0.11972
H2 H 0.29580 0.21028 -0.22965
H3 H 0.31186 0.28223 -0.15052
H4 H 0.32496 0.28724 0.03903
H5 H 0.340(1) 0.275(1) 0.218(2)
H6 H 0.331(1) 0.276(1) 0.394(2)
H7 H 0.333(1) 0.225(1) 0.394(3)
H8 H 0.197(1) 0.132(1) 0.171(2)
H9 H 0.416(2) 0.099(1) 0.086(4)
C7K C 0.4034(1) 0.2502(1) 0.3877(3)
N2K N 0.4123(1) 0.2512(1) 0.5055(2)
C6K C 0.4263(1) 0.2147(1) 0.5610(2)
O1K O 0.4342(1) 0.1761(1) 0.5172(2)
Cu1K Cu 0.44353(1) 0.12500 0.62500
N1K N 0.4424(1) 0.1766(1) 0.7293(2)
C1K C 0.4331(1) 0.2184(1) 0.6835(2)
C5K C 0.4315(1) 0.2581(1) 0.7447(3)
C4K C 0.4393(2) 0.2551(1) 0.8564(3)
C3K C 0.4486(2) 0.2128(1) 0.9030(3)
C2K C 0.4499(2) 0.1739(1) 0.8373(3)
H1K H 0.45614 0.14447 0.86972
H2K H 0.45420 0.21028 0.97965
H3K H 0.43814 0.28223 0.90052
H4K H 0.42504 0.28724 0.71097
H5K H 0.410(1) 0.275(1) 0.532(2)
H6K H 0.419(1) 0.276(1) 0.356(2)
H7K H 0.417(1) 0.225(1) 0.356(3)
O1B O 0.3158(1) 0.0739(1) 0.0172(2)
N1B N 0.3076(1) 0.0734(1) 0.2293(2)
H8B H 0.197(1) 0.118(1) 0.079(2)
H9B H 0.416(2) 0.151(1) 0.164(4)
S1 S 0.12500 0.12500 0.3707(1)
O4 O 0.1571(1) 0.1542(1) 0.3009(2)
O5 O 0.1562(1) 0.0948(1) 0.4403(2)
O4A O 0.0929(1) 0.0958(1) 0.3009(2)
O5A O 0.0938(1) 0.1552(1) 0.4403(2)
O6 O 0.0439(2) 0.12500 0.62500
H10 H 0.064(1) 0.131(1) 0.572(3)
H10B H 0.064(1) 0.119(1) 0.678(3)
O7 O 0.4705(1) 0.0641(1) 0.0460(3)
H11 H 0.474(2) 0.038(2) 0.067(5)
H12 H 0.502(2) 0.083(1) 0.078(4)
O8 O 0.2175(1) 0.2249(1) 0.3764(3)
H13 H 0.197(1) 0.201(1) 0.354(3)
H14 H 0.236(1) 0.207(1) 0.421(3)
loop_
_geom_bond_atom_site_label_1
_geom_bond_atom_site_label_2
_geom_bond_site_symmetry_1
_geom_bond_site_symmetry_2
Cu1 O1 1_555 1_555
O1 C6 1_555 1_555
O2 Cu1 1_555 1_555
O3 Cu1 1_555 1_555
N1 Cu1 1_555 1_555
N2 C6 1_555 1_555
C1 N1 1_555 1_555
C2 N1 1_555 1_555
C3 C2 1_555 1_555
C4 C3 1_555 1_555
C5 C1 1_555 1_555
C6 C1 1_555 1_555
C7 N2 1_555 1_555
H1 C2 1_555 1_555
H2 C3 1_555 1_555
H3 C4 1_555 1_555
H4 C5 1_555 1_555
H5 N2 1_555 1_555
H6 C7 1_555 1_555
H7 C7 1_555 1_555
H8 O2 1_555 1_555
H9 O3 1_555 1_555
S1 O4 1_555 1_555
O5 S1 1_555 1_555
O6 H10 1_555 1_555
O7 H11 1_555 1_555
H12 O7 1_555 1_555
O8 H13 1_555 1_555
H14 O8 1_555 1_555
C7K C7 1_555 1_555
N2K C7K 1_555 1_555
C6K N2K 1_555 1_555
O1K C6K 1_555 1_555
Cu1K O1K 1_555 1_555
N1K Cu1K 1_555 1_555
C1K C6K 1_555 1_555
C5K C1K 1_555 1_555
C4K C5K 1_555 1_555
C3K C4K 1_555 1_555
C2K N1K 1_555 1_555
H1K C2K 1_555 1_555
H2K C3K 1_555 1_555
H3K C4K 1_555 1_555
H4K C5K 1_555 1_555
H5K N2K 1_555 1_555
H6K C7K 1_555 1_555
H7K C7K 1_555 1_555
O1B Cu1 1_555 1_555
N1B Cu1 1_555 1_555
H8B O2 1_555 1_555
H9B O3 1_555 1_555
O4A S1 1_555 1_555
O5A S1 1_555 1_555
H10B O6 1_555 1_555
C4 C5 1_555 1_555
N1K C1K 1_555 1_555
C3K C2K 1_555 1_555

#END
