
#######################################################################
#
#                 Cambridge Crystallographic Data Centre
#                                CCDC 
#
#######################################################################
#
# If this CIF has been generated from an entry in the Cambridge 
# Structural Database, then it will include bibliographic, chemical, 
# crystal, experimental, refinement or atomic coordinate data resulting 
# from the CCDC's data processing and validation procedures.
#
#######################################################################

data_GOJMOH
_symmetry_cell_setting           monoclinic
_symmetry_space_group_name_H-M   'P 21/a'
_symmetry_Int_Tables_number      14
_space_group_name_Hall           '-P 2yab'
loop_
_symmetry_equiv_pos_site_id
_symmetry_equiv_pos_as_xyz
1 x,y,z
2 1/2-x,1/2+y,-z
3 -x,-y,-z
4 1/2+x,1/2-y,z
_cell_length_a                   9.179(2)
_cell_length_b                   13.170(2)
_cell_length_c                   9.886(1)
_cell_angle_alpha                90
_cell_angle_beta                 113.50(1)
_cell_angle_gamma                90
_cell_volume                     1095.97
loop_
_atom_site_label
_atom_site_type_symbol
_atom_site_fract_x
_atom_site_fract_y
_atom_site_fract_z
Cu1 Cu 0.00000 0.00000 0.00000
O1 O -0.1046(4) 0.0112(2) 0.1373(3)
O2 O 0.2737(8) -0.0035(5) 0.2202(6)
N1 N -0.0162(4) 0.1504(2) -0.0019(4)
N2 N -0.1687(5) 0.1225(3) 0.2768(4)
C1 C -0.0738(5) 0.1856(3) 0.0957(4)
C2 C 0.0175(5) 0.2162(3) -0.0876(4)
C3 C -0.0033(6) 0.3194(3) -0.0795(5)
C4 C -0.0589(6) 0.3548(3) 0.0213(5)
C5 C -0.0943(5) 0.2878(3) 0.1117(5)
C6 C -0.1160(5) 0.1008(3) 0.1750(4)
C7 C -0.2086(5) 0.0458(3) 0.3632(5)
C8 C -0.0697(6) 0.0256(3) 0.5083(5)
H1 H 0.05718 0.19121 -0.15650
H2 H 0.02036 0.36490 -0.14252
H3 H -0.07321 0.42570 0.02917
H4 H -0.13168 0.31162 0.18283
H5 H -0.169(5) 0.174(3) 0.300(5)
H6 H -0.23658 -0.01551 0.30814
H7 H -0.29632 0.06905 0.38269
H8 H -0.040(4) 0.086(2) 0.557(4)
H9 H -0.106(4) -0.017(2) 0.563(4)
H10 H 0.27(1) 0.017(5) 0.25(1)
H11 H 0.27(1) -0.032(4) 0.23(1)
C8B C 0.0697(6) -0.0256(3) 0.4917(5)
C7B C 0.2086(5) -0.0458(3) 0.6368(5)
N2B N 0.1687(5) -0.1225(3) 0.7232(4)
C6B C 0.1160(5) -0.1008(3) 0.8250(4)
O1B O 0.1046(4) -0.0112(2) 0.8627(3)
Cu1B Cu 0.00000 0.00000 1.00000
N1B N 0.0162(4) -0.1504(2) 1.0019(4)
C1B C 0.0738(5) -0.1856(3) 0.9043(4)
C5B C 0.0943(5) -0.2878(3) 0.8883(5)
C4B C 0.0589(6) -0.3548(3) 0.9787(5)
C3B C 0.0033(6) -0.3194(3) 1.0795(5)
C2B C -0.0175(5) -0.2162(3) 1.0876(4)
H1B H -0.05718 -0.19121 1.15650
H2B H -0.02036 -0.36490 1.14252
H3B H 0.07321 -0.42570 0.97083
H4B H 0.13168 -0.31162 0.81717
H5B H 0.169(5) -0.174(3) 0.700(5)
H6B H 0.23658 0.01551 0.69186
H7B H 0.29632 -0.06905 0.61731
H8B H 0.040(4) -0.086(2) 0.443(4)
H9B H 0.106(4) 0.017(2) 0.437(4)
O1B_2 O 0.1046(4) -0.0112(2) -0.1373(3)
N1B_2 N 0.0162(4) -0.1504(2) 0.0019(4)
O2B O -0.2737(8) 0.0035(5) -0.2202(6)
H10B H -0.27(1) -0.017(5) -0.25(1)
H11B H -0.27(1) 0.032(4) -0.23(1)
Cl1 Cl 0.2988(2) 0.1803(1) 0.4365(2)
O3 O 0.6579(7) 0.2001(4) 0.6499(5)
H12 H 0.559(5) 0.193(3) 0.580(5)
H13 H 0.688(7) 0.219(4) 0.611(6)
loop_
_geom_bond_atom_site_label_1
_geom_bond_atom_site_label_2
_geom_bond_site_symmetry_1
_geom_bond_site_symmetry_2
Cu1 O1 1_555 1_555
O1 C6 1_555 1_555
O2 Cu1 1_555 1_555
O3 H12 1_555 1_555
N1 Cu1 1_555 1_555
N2 C6 1_555 1_555
C1 N1 1_555 1_555
C2 N1 1_555 1_555
C3 C2 1_555 1_555
C4 C3 1_555 1_555
C5 C1 1_555 1_555
C6 C1 1_555 1_555
C7 N2 1_555 1_555
C8 C7 1_555 1_555
H1 C2 1_555 1_555
H2 C3 1_555 1_555
H3 C4 1_555 1_555
H4 C5 1_555 1_555
H5 N2 1_555 1_555
H6 C7 1_555 1_555
H7 C7 1_555 1_555
H8 C8 1_555 1_555
H9 C8 1_555 1_555
H10 O2 1_555 1_555
H11 O2 1_555 1_555
H13 O3 1_555 1_555
C8B C8 1_555 1_555
C7B C8B 1_555 1_555
N2B C7B 1_555 1_555
C6B N2B 1_555 1_555
O1B C6B 1_555 1_555
Cu1B O1B 1_555 1_555
N1B Cu1B 1_555 1_555
C1B C6B 1_555 1_555
C5B C1B 1_555 1_555
C4B C5B 1_555 1_555
C3B C4B 1_555 1_555
C2B N1B 1_555 1_555
H1B C2B 1_555 1_555
H2B C3B 1_555 1_555
H3B C4B 1_555 1_555
H4B C5B 1_555 1_555
H5B N2B 1_555 1_555
H6B C7B 1_555 1_555
H7B C7B 1_555 1_555
H8B C8B 1_555 1_555
H9B C8B 1_555 1_555
O1B_2 Cu1 1_555 1_555
N1B_2 Cu1 1_555 1_555
O2B Cu1 1_555 1_555
H10B O2B 1_555 1_555
H11B O2B 1_555 1_555
C4 C5 1_555 1_555
N1B C1B 1_555 1_555
C3B C2B 1_555 1_555

#END
