
#######################################################################
#
#                 Cambridge Crystallographic Data Centre
#                                CCDC 
#
#######################################################################
#
# If this CIF has been generated from an entry in the Cambridge 
# Structural Database, then it will include bibliographic, chemical, 
# crystal, experimental, refinement or atomic coordinate data resulting 
# from the CCDC's data processing and validation procedures.
#
#######################################################################

data_GOJRAZ
_symmetry_cell_setting           tetragonal
_symmetry_space_group_name_H-M   'P 42/n m c'
_symmetry_Int_Tables_number      137
_space_group_name_Hall           '-P 4ac 2a'
loop_
_symmetry_equiv_pos_site_id
_symmetry_equiv_pos_as_xyz
1 x,y,z
2 1/2+y,1/2+x,1/2-z
3 y,1/2-x,1/2+z
4 1/2-y,x,1/2+z
5 1/2-x,1/2-y,z
6 1/2+x,-y,-z
7 -x,1/2+y,-z
8 -y,-x,1/2-z
9 -x,-y,-z
10 1/2-y,1/2-x,1/2+z
11 -y,1/2+x,1/2-z
12 1/2+y,-x,1/2-z
13 1/2+x,1/2+y,-z
14 1/2-x,y,z
15 x,1/2-y,z
16 y,x,1/2+z
_cell_length_a                   27.4149(2)
_cell_length_b                   27.4149(2)
_cell_length_c                   13.3062(2)
_cell_angle_alpha                90
_cell_angle_beta                 90
_cell_angle_gamma                90
_cell_volume                     10000.6
loop_
_atom_site_label
_atom_site_type_symbol
_atom_site_fract_x
_atom_site_fract_y
_atom_site_fract_z
O1 O 0.60960(10) 0.11514(9) 0.1337(2)
Cl1 Cl 0.52793(3) 0.02511(3) 0.11239(7)
Cl2 Cl 0.51276(4) 0.13860(4) 0.25227(6)
In1 In 0.568953(8) 0.068953(8) 0.2500
O1A O 0.61514(9) 0.10960(10) 0.3663(2)
Cl1A Cl 0.52511(3) 0.02793(3) 0.38761(7)
Cl2A Cl 0.63860(4) 0.01276(4) 0.24773(6)
O2 O 0.8035(3) 0.1965(3) 0.7500
O3 O 0.7500 -0.1998(3) 0.9963(10)
O4 O 0.7500 0.0063(7) 0.7008(9)
O5 O 0.7500 -0.2500 0.7663(12)
O7 O 0.7500 -0.0657(8) 0.7499(8)
K1 K 0.7500 0.10955(8) 0.61493(14)
K2 K 0.7500 -0.15283(9) 0.82072(19)
C1 C 0.68065(11) 0.01243(12) 0.4847(2)
C2 C 0.68178(11) -0.07021(12) 0.4443(2)
H1 H 0.6730 -0.0820 0.3771
C3 C 0.63550(11) -0.05837(12) 0.5080(2)
H2 H 0.6056 -0.0636 0.4692
C4 C 0.68005(12) -0.12087(12) 0.5853(3)
C5 C 0.60581(12) 0.02110(13) 0.5853(2)
H3 H 0.5738 0.0080 0.5698
H4 H 0.6069 0.0543 0.5601
C6 C 0.60533(12) -0.09561(13) 0.6720(3)
H5 H 0.6064 -0.1285 0.6987
H6 H 0.5727 -0.0901 0.6464
C7 C 0.63988(12) 0.05640(13) 0.7393(2)
C8 C 0.59268(12) -0.01330(14) 0.7604(2)
H7 H 0.5570 -0.0150 0.7567
C9 C 0.61020(10) 0.00475(13) 0.8657(2)
H8 H 0.5825 0.0132 0.9089
C10 C 0.63813(11) -0.07517(12) 0.8397(3)
C11 C 0.66062(10) 0.07949(12) 0.9138(2)
H9 H 0.6407 0.0798 0.9740
H10 H 0.6608 0.1123 0.8866
C12 C 0.66058(12) -0.03746(13) 1.0006(3)
H11 H 0.6620 -0.0710 1.0235
H12 H 0.6410 -0.0194 1.0484
C13 C 0.7500 0.08626(16) 0.8986(3)
C14 C 0.72155(10) 0.03295(12) 1.0209(2)
H13 H 0.7082 0.0440 1.0854
C15 C 0.7500 -0.04622(17) 0.9955(3)
C16 C 0.7500 -0.01545(18) 0.3820(3)
H14 H 0.7500 0.0180 0.3585
H15 H 0.7500 -0.0365 0.3234
C17 C 0.7500 -0.13159(16) 0.4692(4)
H16 H 0.7500 -0.1340 0.3965
H17 H 0.7500 -0.1645 0.4961
N1 N 0.70602(9) -0.02415(9) 0.43942(19)
N2 N 0.64199(9) -0.00735(10) 0.5334(2)
N3 N 0.70577(9) -0.10694(10) 0.5013(2)
N4 N 0.63910(9) -0.09215(10) 0.5904(2)
N5 N 0.61178(9) 0.02213(10) 0.6930(2)
N6 N 0.63866(9) 0.04713(10) 0.8411(2)
N7 N 0.61450(12) -0.06121(11) 0.75418(19)
N8 N 0.63677(10) -0.03633(10) 0.9055(2)
N9 N 0.70998(9) 0.06609(9) 0.9410(2)
N10 N 0.70971(9) -0.01749(10) 1.0009(2)
O8 O 0.69026(9) 0.05623(9) 0.48109(18)
O9 O 0.66139(9) 0.09002(8) 0.69792(18)
O10 O 0.7500 0.11838(12) 0.8344(3)
O11 O 0.69047(10) -0.15361(9) 0.6434(2)
O12 O 0.65610(9) -0.11435(9) 0.85664(19)
O13 O 0.7500 -0.09080(13) 0.9914(3)
O2M O 0.6965(3) 0.1965(3) 0.7500
O2A O 0.6965(3) 0.3035(3) 0.7500
O3A O 0.3002(3) 0.2500 0.5037(10)
O4A O 0.5063(7) 0.2500 0.7992(9)
O5A O 0.2500 0.2500 0.7337(12)
O7A O 0.4343(8) 0.2500 0.7501(8)
K1A K 0.60955(8) 0.2500 0.88507(14)
K1J K 0.89045(8) 0.2500 0.88507(14)
K2A K 0.34717(9) 0.2500 0.67928(19)
K2N K 0.7500 -0.34717(9) 0.82072(19)
C1M C 0.81935(11) 0.01243(12) 0.4847(2)
C1K C 0.51243(12) 0.31935(11) 1.0153(2)
C1A C 0.51243(12) 0.18065(11) 1.0153(2)
C2M C 0.81822(11) -0.07021(12) 0.4443(2)
C2K C 0.42979(12) 0.31822(11) 1.0557(2)
C2A C 0.42979(12) 0.18178(11) 1.0557(2)
H1M H 0.8270 -0.0820 0.3771
H1K H 0.4180 0.3270 1.1229
H1A H 0.4180 0.1730 1.1229
C3M C 0.86450(11) -0.05837(12) 0.5080(2)
C3K C 0.44163(12) 0.36450(11) 0.9920(2)
C3A C 0.44163(12) 0.13550(11) 0.9920(2)
H2M H 0.8944 -0.0636 0.4692
H2K H 0.4364 0.3944 1.0308
H2A H 0.4364 0.1056 1.0308
C4M C 0.81995(12) -0.12087(12) 0.5853(3)
C4K C 0.37913(12) 0.31995(12) 0.9147(3)
C4A C 0.37913(12) 0.18005(12) 0.9147(3)
C5M C 0.89419(12) 0.02110(13) 0.5853(2)
C5K C 0.52110(13) 0.39419(12) 0.9147(2)
C5A C 0.52110(13) 0.10581(12) 0.9147(2)
H3M H 0.9262 0.0080 0.5698
H3K H 0.5080 0.4262 0.9302
H3A H 0.5080 0.0738 0.9302
H4M H 0.8931 0.0543 0.5601
H4K H 0.5543 0.3931 0.9399
H4A H 0.5543 0.1069 0.9399
C6M C 0.89467(12) -0.09561(13) 0.6720(3)
C6K C 0.40439(13) 0.39467(12) 0.8280(3)
C6A C 0.40439(13) 0.10533(12) 0.8280(3)
H5M H 0.8936 -0.1285 0.6987
H5K H 0.3715 0.3936 0.8013
H5A H 0.3715 0.1064 0.8013
H6M H 0.9273 -0.0901 0.6464
H6K H 0.4099 0.4273 0.8536
H6A H 0.4099 0.0727 0.8536
C7M C 0.86012(12) 0.05640(13) 0.7393(2)
C7K C 0.55640(13) 0.36012(12) 0.7607(2)
C7A C 0.55640(13) 0.13988(12) 0.7607(2)
C8M C 0.90732(12) -0.01330(14) 0.7604(2)
C8K C 0.48670(14) 0.40732(12) 0.7396(2)
C8A C 0.48670(14) 0.09268(12) 0.7396(2)
H7M H 0.9430 -0.0150 0.7567
H7K H 0.4850 0.4430 0.7433
H7A H 0.4850 0.0570 0.7433
C9M C 0.88980(10) 0.00475(13) 0.8657(2)
C9K C 0.50475(13) 0.38980(10) 0.6343(2)
C9A C 0.50475(13) 0.11020(10) 0.6343(2)
H8M H 0.9175 0.0132 0.9089
H8K H 0.5132 0.4175 0.5911
H8A H 0.5132 0.0825 0.5911
C10M C 0.86187(11) -0.07517(12) 0.8397(3)
C10K C 0.42483(12) 0.36187(11) 0.6603(3)
C10A C 0.42483(12) 0.13813(11) 0.6603(3)
C11M C 0.83938(10) 0.07949(12) 0.9138(2)
C11K C 0.57949(12) 0.33938(10) 0.5862(2)
C11A C 0.57949(12) 0.16062(10) 0.5862(2)
H9M H 0.8593 0.0798 0.9740
H9K H 0.5798 0.3593 0.5260
H9A H 0.5798 0.1407 0.5260
H10M H 0.8392 0.1123 0.8866
H10K H 0.6123 0.3392 0.6134
H10A H 0.6123 0.1608 0.6134
C12M C 0.83942(12) -0.03746(13) 1.0006(3)
C12K C 0.46254(13) 0.33942(12) 0.4994(3)
C12A C 0.46254(13) 0.16058(12) 0.4994(3)
H11M H 0.8380 -0.0710 1.0235
H11K H 0.4290 0.3380 0.4765
H11A H 0.4290 0.1620 0.4765
H12M H 0.8590 -0.0194 1.0484
H12K H 0.4806 0.3590 0.4516
H12A H 0.4806 0.1410 0.4516
C13A C 0.58626(16) 0.2500 0.6014(3)
C14M C 0.77845(10) 0.03295(12) 1.0209(2)
C14K C 0.53295(12) 0.27845(10) 0.4791(2)
C14A C 0.53295(12) 0.22155(10) 0.4791(2)
H13M H 0.7918 0.0440 1.0854
H13K H 0.5440 0.2918 0.4146
H13A H 0.5440 0.2082 0.4146
C15A C 0.45378(17) 0.2500 0.5045(3)
C16A C 0.48455(18) 0.2500 1.1180(3)
H14A H 0.5180 0.2500 1.1415
H15A H 0.4635 0.2500 1.1766
C17A C 0.36841(16) 0.2500 1.0308(4)
H16A H 0.3660 0.2500 1.1035
H17A H 0.3355 0.2500 1.0039
N1M N 0.79398(9) -0.02415(9) 0.43942(19)
N1K N 0.47585(9) 0.29398(9) 1.06058(19)
N1A N 0.47585(9) 0.20602(9) 1.06058(19)
N2M N 0.85801(9) -0.00735(10) 0.5334(2)
N2K N 0.49265(10) 0.35801(9) 0.9666(2)
N2A N 0.49265(10) 0.14199(9) 0.9666(2)
N3M N 0.79423(9) -0.10694(10) 0.5013(2)
N3K N 0.39306(10) 0.29423(9) 0.9987(2)
N3A N 0.39306(10) 0.20577(9) 0.9987(2)
N4M N 0.86090(9) -0.09215(10) 0.5904(2)
N4K N 0.40785(10) 0.36090(9) 0.9096(2)
N4A N 0.40785(10) 0.13910(9) 0.9096(2)
N5M N 0.88822(9) 0.02213(10) 0.6930(2)
N5K N 0.52213(10) 0.38822(9) 0.8070(2)
N5A N 0.52213(10) 0.11178(9) 0.8070(2)
N6M N 0.86134(9) 0.04713(10) 0.8411(2)
N6K N 0.54713(10) 0.36134(9) 0.6589(2)
N6A N 0.54713(10) 0.13866(9) 0.6589(2)
N7M N 0.88550(12) -0.06121(11) 0.75418(19)
N7K N 0.43879(11) 0.38550(12) 0.74582(19)
N7A N 0.43879(11) 0.11450(12) 0.74582(19)
N8M N 0.86323(10) -0.03633(10) 0.9055(2)
N8K N 0.46367(10) 0.36323(10) 0.5945(2)
N8A N 0.46367(10) 0.13677(10) 0.5945(2)
N9M N 0.79002(9) 0.06609(9) 0.9410(2)
N9K N 0.56609(9) 0.29002(9) 0.5590(2)
N9A N 0.56609(9) 0.20998(9) 0.5590(2)
N10M N 0.79029(9) -0.01749(10) 1.0009(2)
N10K N 0.48251(10) 0.29029(9) 0.4991(2)
N10A N 0.48251(10) 0.20971(9) 0.4991(2)
O8M O 0.80974(9) 0.05623(9) 0.48109(18)
O8K O 0.55623(9) 0.30974(9) 1.01891(18)
O8A O 0.55623(9) 0.19026(9) 1.01891(18)
O9M O 0.83861(9) 0.09002(8) 0.69792(18)
O9K O 0.59002(8) 0.33861(9) 0.80208(18)
O9A O 0.59002(8) 0.16139(9) 0.80208(18)
O10A O 0.61838(12) 0.2500 0.6656(3)
O11M O 0.80953(10) -0.15361(9) 0.6434(2)
O11K O 0.34639(9) 0.30953(10) 0.8566(2)
O11A O 0.34639(9) 0.19047(10) 0.8566(2)
O12M O 0.84390(9) -0.11435(9) 0.85664(19)
O12K O 0.38565(9) 0.34390(9) 0.64336(19)
O12A O 0.38565(9) 0.15610(9) 0.64336(19)
O13A O 0.40920(13) 0.2500 0.5086(3)
O6 O 0.7500 -0.1199(4) 1.2112(6)
Cl3 Cl 0.7027(2) 0.1540(3) 0.1441(8)
loop_
_geom_bond_atom_site_label_1
_geom_bond_atom_site_label_2
_geom_bond_site_symmetry_1
_geom_bond_site_symmetry_2
O1 In1 1_555 1_555
O2 K1 1_555 1_555
O3 K2 1_555 1_555
O4 K1 1_555 1_555
O5 K2 1_555 1_555
O7 K2 1_555 1_555
Cl1 In1 1_555 1_555
Cl2 In1 1_555 1_555
K1 O8 1_555 1_555
K2 O11 1_555 1_555
In1 O1A 1_555 1_555
C1 N1 1_555 1_555
C2 H1 1_555 1_555
C3 C2 1_555 1_555
H2 C3 1_555 1_555
C4 N3 1_555 1_555
C5 H3 1_555 1_555
H4 C5 1_555 1_555
C6 H5 1_555 1_555
H6 C6 1_555 1_555
C7 N5 1_555 1_555
C8 H7 1_555 1_555
C9 C8 1_555 1_555
H8 C9 1_555 1_555
C10 N7 1_555 1_555
C11 H9 1_555 1_555
H10 C11 1_555 1_555
C12 H11 1_555 1_555
H12 C12 1_555 1_555
C13 N9 1_555 1_555
C14 H13 1_555 1_555
C15 N10 1_555 1_555
C16 H14 1_555 1_555
H15 C16 1_555 1_555
C17 H16 1_555 1_555
H17 C17 1_555 1_555
N1 C2 1_555 1_555
N2 C1 1_555 1_555
N3 C2 1_555 1_555
N4 C3 1_555 1_555
N5 C5 1_555 1_555
N6 C7 1_555 1_555
N7 C6 1_555 1_555
N8 C9 1_555 1_555
N9 C11 1_555 1_555
N10 C12 1_555 1_555
O8 C1 1_555 1_555
O9 K1 1_555 1_555
O10 K1 1_555 1_555
O11 C4 1_555 1_555
O12 K2 1_555 1_555
O13 K2 1_555 1_555
O2M K1 1_555 1_555
O2A K1A 1_555 1_555
O3A K2A 1_555 1_555
O4A K1A 1_555 1_555
O5A K2A 1_555 1_555
O7A K2A 1_555 1_555
Cl1A In1 1_555 1_555
Cl2A In1 1_555 1_555
K1A O2M 1_555 1_555
K1J O2 1_555 1_555
K2A O11K 1_555 1_555
K2N O5 1_555 1_555
C1M N1M 1_555 1_555
C1K N1K 1_555 1_555
C1A N1A 1_555 1_555
C2M H1M 1_555 1_555
C2K H1K 1_555 1_555
C2A H1A 1_555 1_555
C3M C2M 1_555 1_555
C3K C2K 1_555 1_555
C3A C2A 1_555 1_555
H2M C3M 1_555 1_555
H2K C3K 1_555 1_555
H2A C3A 1_555 1_555
C4M N3M 1_555 1_555
C4K N3K 1_555 1_555
C4A N3A 1_555 1_555
C5M H3M 1_555 1_555
C5K H3K 1_555 1_555
C5A H3A 1_555 1_555
H4M C5M 1_555 1_555
H4K C5K 1_555 1_555
H4A C5A 1_555 1_555
C6M H5M 1_555 1_555
C6K H5K 1_555 1_555
C6A H5A 1_555 1_555
H6M C6M 1_555 1_555
H6K C6K 1_555 1_555
H6A C6A 1_555 1_555
C7M N5M 1_555 1_555
C7K N5K 1_555 1_555
C7A N5A 1_555 1_555
C8M H7M 1_555 1_555
C8K H7K 1_555 1_555
C8A H7A 1_555 1_555
C9M C8M 1_555 1_555
C9K C8K 1_555 1_555
C9A C8A 1_555 1_555
H8M C9M 1_555 1_555
H8K C9K 1_555 1_555
H8A C9A 1_555 1_555
C10M N7M 1_555 1_555
C10K N7K 1_555 1_555
C10A N7A 1_555 1_555
C11M H9M 1_555 1_555
C11K H9K 1_555 1_555
C11A H9A 1_555 1_555
H10M C11M 1_555 1_555
H10K C11K 1_555 1_555
H10A C11A 1_555 1_555
C12M H11M 1_555 1_555
C12K H11K 1_555 1_555
C12A H11A 1_555 1_555
H12M C12M 1_555 1_555
H12K C12K 1_555 1_555
H12A C12A 1_555 1_555
C13A N9K 1_555 1_555
C14M C14 1_555 1_555
C14K C14A 1_555 1_555
C14A H13A 1_555 1_555
H13M C14M 1_555 1_555
H13K C14K 1_555 1_555
C15A N10K 1_555 1_555
C16A H14A 1_555 1_555
H15A C16A 1_555 1_555
C17A H16A 1_555 1_555
H17A C17A 1_555 1_555
N1M C16 1_555 1_555
N1K C2K 1_555 1_555
N1A C2A 1_555 1_555
N2M C1M 1_555 1_555
N2K C1K 1_555 1_555
N2A C1A 1_555 1_555
N3M C17 1_555 1_555
N3K C2K 1_555 1_555
N3A C2A 1_555 1_555
N4M C3M 1_555 1_555
N4K C3K 1_555 1_555
N4A C3A 1_555 1_555
N5M C5M 1_555 1_555
N5K C5K 1_555 1_555
N5A C5A 1_555 1_555
N6M C7M 1_555 1_555
N6K C7K 1_555 1_555
N6A C7A 1_555 1_555
N7M C6M 1_555 1_555
N7K C6K 1_555 1_555
N7A C6A 1_555 1_555
N8M C9M 1_555 1_555
N8K C9K 1_555 1_555
N8A C9A 1_555 1_555
N9M C13 1_555 1_555
N9K C11K 1_555 1_555
N9A C11A 1_555 1_555
N10M C15 1_555 1_555
N10K C12K 1_555 1_555
N10A C12A 1_555 1_555
O8M K1 1_555 1_555
O8K K1A 1_555 1_555
O8A K1A 1_555 1_555
O9M K1 1_555 1_555
O9K K1A 1_555 1_555
O9A K1A 1_555 1_555
O10A K1A 1_555 1_555
O11M K2 1_555 1_555
O11K C4K 1_555 1_555
O11A K2A 1_555 1_555
O12M K2 1_555 1_555
O12K K2A 1_555 1_555
O12A K2A 1_555 1_555
O13A K2A 1_555 1_555
C3 N2 1_555 1_555
C4 N4 1_555 1_555
C5 N2 1_555 1_555
C6 N4 1_555 1_555
C7 O9 1_555 1_555
C8 N5 1_555 1_555
C8 N7 1_555 1_555
C9 N6 1_555 1_555
C10 N8 1_555 1_555
C10 O12 1_555 1_555
C11 N6 1_555 1_555
C12 N8 1_555 1_555
C13 O10 1_555 1_555
C14 N9 1_555 1_555
C14 N10 1_555 1_555
C15 O13 1_555 1_555
C16 N1 1_555 1_555
C17 N3 1_555 1_555
C1M O8M 1_555 1_555
C1K O8K 1_555 1_555
C1A O8A 1_555 1_555
C2M N1M 1_555 1_555
C2M N3M 1_555 1_555
C3M N2M 1_555 1_555
C3K N2K 1_555 1_555
C3A N2A 1_555 1_555
C4M N4M 1_555 1_555
C4M O11M 1_555 1_555
C4K N4K 1_555 1_555
C4A N4A 1_555 1_555
C4A O11A 1_555 1_555
C5M N2M 1_555 1_555
C5K N2K 1_555 1_555
C5A N2A 1_555 1_555
C6M N4M 1_555 1_555
C6K N4K 1_555 1_555
C6A N4A 1_555 1_555
C7M O9M 1_555 1_555
C7K O9K 1_555 1_555
C7A O9A 1_555 1_555
C8M N5M 1_555 1_555
C8M N7M 1_555 1_555
C8K N5K 1_555 1_555
C8K N7K 1_555 1_555
C8A N5A 1_555 1_555
C8A N7A 1_555 1_555
C9M N6M 1_555 1_555
C9K N6K 1_555 1_555
C9A N6A 1_555 1_555
C10M N8M 1_555 1_555
C10M O12M 1_555 1_555
C10K N8K 1_555 1_555
C10K O12K 1_555 1_555
C10A N8A 1_555 1_555
C10A O12A 1_555 1_555
C11M N6M 1_555 1_555
C11M N9M 1_555 1_555
C11K N6K 1_555 1_555
C11A N6A 1_555 1_555
C12M N8M 1_555 1_555
C12M N10M 1_555 1_555
C12K N8K 1_555 1_555
C12A N8A 1_555 1_555
C13A N9A 1_555 1_555
C13A O10A 1_555 1_555
C14M N9M 1_555 1_555
C14M N10M 1_555 1_555
C14K N9K 1_555 1_555
C14K N10K 1_555 1_555
C14A N9A 1_555 1_555
C14A N10A 1_555 1_555
C15A N10A 1_555 1_555
C15A O13A 1_555 1_555
C16A N1K 1_555 1_555
C16A N1A 1_555 1_555
C17A N3K 1_555 1_555
C17A N3A 1_555 1_555

#END
