
#######################################################################
#
#                 Cambridge Crystallographic Data Centre
#                                CCDC 
#
#######################################################################
#
# If this CIF has been generated from an entry in the Cambridge 
# Structural Database, then it will include bibliographic, chemical, 
# crystal, experimental, refinement or atomic coordinate data resulting 
# from the CCDC's data processing and validation procedures.
#
#######################################################################

data_GOJSAZ
_symmetry_cell_setting           monoclinic
_symmetry_space_group_name_H-M   'P 21/c'
_symmetry_Int_Tables_number      14
_space_group_name_Hall           '-P 2ybc'
loop_
_symmetry_equiv_pos_site_id
_symmetry_equiv_pos_as_xyz
1 x,y,z
2 x,1/2-y,1/2+z
3 -x,-y,-z
4 -x,1/2+y,1/2-z
_cell_length_a                   7.232(4)
_cell_length_b                   16.960(3)
_cell_length_c                   11.950(3)
_cell_angle_alpha                90
_cell_angle_beta                 94.65(3)
_cell_angle_gamma                90
_cell_volume                     1460.9
loop_
_atom_site_label
_atom_site_type_symbol
_atom_site_fract_x
_atom_site_fract_y
_atom_site_fract_z
S1 S -0.3680(5) 0.7286(2) 0.0920(3)
O1 O 0.1626(8) 0.5871(3) -0.0773(4)
N1 N 0.1919(9) 0.5060(4) 0.1542(4)
N2 N 0.508(1) 0.5278(4) 0.4678(4)
N5 N -0.156(1) 0.5963(4) 0.0552(5)
C1 C 0.278(1) 0.5721(5) 0.1909(6)
C2 C 0.386(1) 0.5808(5) 0.2915(6)
C3 C 0.405(1) 0.5155(5) 0.3609(6)
C4 C 0.319(1) 0.4451(5) 0.3262(6)
C5 C 0.218(1) 0.4436(5) 0.2240(6)
C11 C -0.246(1) 0.6515(5) 0.0685(7)
C12 C 0.329(2) 0.5778(6) -0.1274(9)
H1 H 0.2639 0.6187 0.1432
H2 H 0.4472 0.6304 0.3130
H3 H 0.3308 0.3982 0.3725
H4 H 0.1616 0.3937 0.1989
H9 H 0.3748 0.6268 -0.1555
H10 H 0.4268 0.5562 -0.0765
H11 H 0.3152 0.5420 -0.1911
Fe1 Fe 0.0000 0.5000 0.0000
N2B N 0.492(1) 0.4722(4) 0.5322(4)
C3B C 0.595(1) 0.4845(5) 0.6391(6)
C2B C 0.614(1) 0.4192(5) 0.7085(6)
C1B C 0.722(1) 0.4279(5) 0.8091(6)
N1B N 0.8081(9) 0.4940(4) 0.8458(4)
C5B C 0.782(1) 0.5564(5) 0.7760(6)
C4B C 0.681(1) 0.5549(5) 0.6738(6)
H3B H 0.6692 0.6018 0.6275
H4B H 0.8384 0.6063 0.8011
H1B H 0.7361 0.3813 0.8568
H2B H 0.5528 0.3696 0.6870
O1B O -0.1626(8) 0.4129(3) 0.0773(4)
C12B C -0.329(2) 0.4222(6) 0.1274(9)
H9B H -0.3748 0.3732 0.1555
H10B H -0.4268 0.4438 0.0765
H11B H -0.3152 0.4580 0.1911
N1B_2 N -0.1919(9) 0.4940(4) -0.1542(4)
S1B S 0.3680(5) 0.2714(2) -0.0920(3)
N5B N 0.156(1) 0.4037(4) -0.0552(5)
C11B C 0.246(1) 0.3485(5) -0.0685(7)
Fe1B Fe 1.0000 0.5000 1.0000
N3 N -0.082(1) 0.2416(5) 0.5753(8)
N4 N 0.040(1) 0.4834(4) 0.5409(5)
C6 C -0.149(2) 0.2802(6) 0.4836(9)
C7 C -0.113(1) 0.3599(6) 0.4653(8)
C8 C -0.004(1) 0.3992(5) 0.5466(7)
C9 C 0.071(1) 0.3596(6) 0.6405(7)
C10 C 0.027(2) 0.2800(6) 0.6510(8)
H5 H -0.2263 0.2527 0.4236
H6 H -0.1611 0.3876 0.3955
H7 H 0.1548 0.3857 0.6987
H8 H 0.0710 0.2500 0.7206
N4B N -0.040(1) 0.5166(4) 0.4591(5)
C8B C 0.004(1) 0.6008(5) 0.4534(7)
C7B C 0.113(1) 0.6401(6) 0.5347(8)
C6B C 0.149(2) 0.7198(6) 0.5164(9)
N3B N 0.082(1) 0.7584(5) 0.4247(8)
C10B C -0.027(2) 0.7200(6) 0.3490(8)
C9B C -0.071(1) 0.6404(6) 0.3595(7)
H7B H -0.1548 0.6143 0.3013
H8B H -0.0710 0.7500 0.2794
H5B H 0.2263 0.7473 0.5764
H6B H 0.1611 0.6124 0.6045
loop_
_geom_bond_atom_site_label_1
_geom_bond_atom_site_label_2
_geom_bond_site_symmetry_1
_geom_bond_site_symmetry_2
S1 C11 1_555 1_555
O1 C12 1_555 1_555
N1 C1 1_555 1_555
N2 C3 1_555 1_555
N3 C6 1_555 1_555
N4 C8 1_555 1_555
N5 C11 1_555 1_555
C1 C2 1_555 1_555
C2 C3 1_555 1_555
C3 C4 1_555 1_555
C4 C5 1_555 1_555
C5 N1 1_555 1_555
C6 C7 1_555 1_555
C7 C8 1_555 1_555
C8 C9 1_555 1_555
C9 C10 1_555 1_555
C10 N3 1_555 1_555
C12 H9 1_555 1_555
H1 C1 1_555 1_555
H2 C2 1_555 1_555
H3 C4 1_555 1_555
H4 C5 1_555 1_555
H5 C6 1_555 1_555
H6 C7 1_555 1_555
H7 C9 1_555 1_555
H8 C10 1_555 1_555
H10 C12 1_555 1_555
H11 C12 1_555 1_555
Fe1 O1 1_555 1_555
N2B N2 1_555 1_555
C3B N2B 1_555 1_555
C2B C3B 1_555 1_555
C1B C2B 1_555 1_555
N1B C1B 1_555 1_555
C5B N1B 1_555 1_555
C4B C3B 1_555 1_555
H3B C4B 1_555 1_555
H4B C5B 1_555 1_555
H1B C1B 1_555 1_555
H2B C2B 1_555 1_555
N4B N4 1_555 1_555
C8B N4B 1_555 1_555
C7B C8B 1_555 1_555
C6B C7B 1_555 1_555
N3B C6B 1_555 1_555
C10B N3B 1_555 1_555
C9B C8B 1_555 1_555
H7B C9B 1_555 1_555
H8B C10B 1_555 1_555
H5B C6B 1_555 1_555
H6B C7B 1_555 1_555
O1B Fe1 1_555 1_555
C12B O1B 1_555 1_555
H9B C12B 1_555 1_555
H10B C12B 1_555 1_555
H11B C12B 1_555 1_555
N1B_2 Fe1 1_555 1_555
S1B C11B 1_555 1_555
N5B Fe1 1_555 1_555
C11B N5B 1_555 1_555
Fe1B N1B 1_555 1_555
N1 Fe1 1_555 1_555
N5 Fe1 1_555 1_555
C5B C4B 1_555 1_555
C10B C9B 1_555 1_555

#END
