
#######################################################################
#
#                 Cambridge Crystallographic Data Centre
#                                CCDC 
#
#######################################################################
#
# If this CIF has been generated from an entry in the Cambridge 
# Structural Database, then it will include bibliographic, chemical, 
# crystal, experimental, refinement or atomic coordinate data resulting 
# from the CCDC's data processing and validation procedures.
#
#######################################################################

data_GOJSED
_symmetry_cell_setting           triclinic
_symmetry_space_group_name_H-M   'P -1'
_symmetry_Int_Tables_number      2
_space_group_name_Hall           '-P 1'
loop_
_symmetry_equiv_pos_site_id
_symmetry_equiv_pos_as_xyz
1 x,y,z
2 -x,-y,-z
_cell_length_a                   9.017(1)
_cell_length_b                   10.222(1)
_cell_length_c                   7.489(1)
_cell_angle_alpha                104.318(9)
_cell_angle_beta                 96.65(1)
_cell_angle_gamma                107.454(10)
_cell_volume                     624.417
loop_
_atom_site_label
_atom_site_type_symbol
_atom_site_fract_x
_atom_site_fract_y
_atom_site_fract_z
S1 S 0.1189(2) -0.2617(1) 0.4319(2)
O1 O 0.1768(3) -0.0582(2) -0.1348(3)
N1 N 0.1879(4) 0.1889(3) 0.2038(4)
N2 N 0.0247(4) -0.1245(3) 0.1849(4)
C1 C 0.1805(5) 0.3198(3) 0.2277(5)
C2 C 0.2978(5) 0.4433(3) 0.3445(5)
C3 C 0.4339(4) 0.4344(3) 0.4396(4)
C4 C 0.4408(5) 0.2968(3) 0.4155(5)
C5 C 0.3166(5) 0.1790(3) 0.2987(5)
C6 C 0.0656(5) -0.1789(4) 0.2881(5)
H1 H 0.0856 0.3290 0.1597
H2 H 0.2857 0.5370 0.3576
H3 H 0.5327 0.2836 0.4825
H4 H 0.3218 0.0836 0.2848
H5 H 0.2254 -0.1199 -0.1009
H6 H 0.1388 -0.0924 -0.2669
Fe1 Fe 0.0000 0.0000 0.0000
S1A S -0.1189(2) 0.2617(1) -0.4319(2)
O1A O -0.1768(3) 0.0582(2) 0.1348(3)
N1A N 0.8121(4) 0.8111(3) 0.7962(4)
N1A_2 N -0.1879(4) -0.1889(3) -0.2038(4)
N2A N -0.0247(4) 0.1245(3) -0.1849(4)
C1A C 0.8195(5) 0.6802(3) 0.7723(5)
C2A C 0.7022(5) 0.5567(3) 0.6555(5)
C3A C 0.5661(4) 0.5656(3) 0.5604(4)
C4A C 0.5592(5) 0.7032(3) 0.5845(5)
C5A C 0.6834(5) 0.8210(3) 0.7013(5)
C6A C -0.0656(5) 0.1789(4) -0.2881(5)
H1A H 0.9144 0.6710 0.8403
H2A H 0.7143 0.4630 0.6424
H3A H 0.4673 0.7164 0.5175
H4A H 0.6782 0.9164 0.7152
H5A H -0.2254 0.1199 0.1009
H6A H -0.1388 0.0924 0.2669
Fe1_2 Fe 1.0000 1.0000 1.0000
N3 N 0.6905(5) 0.2478(4) 0.0492(5)
C7 C 0.5469(6) 0.2073(4) -0.0562(7)
C8 C 0.4668(6) 0.3005(4) -0.0788(6)
C9 C 0.5402(5) 0.4471(4) 0.0090(5)
C10 C 0.6921(6) 0.4912(4) 0.1208(6)
C11 C 0.7604(6) 0.3887(5) 0.1354(7)
H7 H 0.4918 0.1039 -0.1217
H8 H 0.3570 0.2611 -0.1588
H9 H 0.7495 0.5934 0.1871
H10 H 0.8699 0.4227 0.2115
N3A N 0.3095(5) 0.7522(4) -0.0492(5)
C7A C 0.4531(6) 0.7927(4) 0.0562(7)
C8A C 0.5332(6) 0.6995(4) 0.0788(6)
C9A C 0.4598(5) 0.5529(4) -0.0090(5)
C10A C 0.3079(6) 0.5088(4) -0.1208(6)
C11A C 0.2396(6) 0.6113(5) -0.1354(7)
H7A H 0.5082 0.8961 0.1217
H8A H 0.6430 0.7389 0.1588
H9A H 0.2505 0.4066 -0.1871
H10A H 0.1301 0.5773 -0.2115
loop_
_geom_bond_atom_site_label_1
_geom_bond_atom_site_label_2
_geom_bond_site_symmetry_1
_geom_bond_site_symmetry_2
S1 C6 1_555 1_555
O1 H5 1_555 1_555
N1 C1 1_555 1_555
N2 C6 1_555 1_555
C1 C2 1_555 1_555
C2 C3 1_555 1_555
C3 C4 1_555 1_555
C4 C5 1_555 1_555
C5 N1 1_555 1_555
H1 C1 1_555 1_555
H2 C2 1_555 1_555
H3 C4 1_555 1_555
H4 C5 1_555 1_555
H6 O1 1_555 1_555
Fe1 O1 1_555 1_555
N3 C7 1_555 1_555
C7 C8 1_555 1_555
C8 C9 1_555 1_555
C9 C10 1_555 1_555
C10 C11 1_555 1_555
C11 N3 1_555 1_555
H7 C7 1_555 1_555
H8 C8 1_555 1_555
H9 C10 1_555 1_555
H10 C11 1_555 1_555
S1A C6A 1_555 1_555
O1A Fe1 1_555 1_555
N1A C1A 1_555 1_555
N1A_2 Fe1 1_555 1_555
N2A Fe1 1_555 1_555
C1A C2A 1_555 1_555
C2A C3A 1_555 1_555
C3A C3 1_555 1_555
C4A C3A 1_555 1_555
C5A N1A 1_555 1_555
C6A N2A 1_555 1_555
H1A C1A 1_555 1_555
H2A C2A 1_555 1_555
H3A C4A 1_555 1_555
H4A C5A 1_555 1_555
H5A O1A 1_555 1_555
H6A O1A 1_555 1_555
Fe1_2 N1A 1_555 1_555
N3A C7A 1_555 1_555
C7A C8A 1_555 1_555
C8A C9A 1_555 1_555
C9A C9 1_555 1_555
C10A C9A 1_555 1_555
C11A N3A 1_555 1_555
H7A C7A 1_555 1_555
H8A C8A 1_555 1_555
H9A C10A 1_555 1_555
H10A C11A 1_555 1_555
N1 Fe1 1_555 1_555
N2 Fe1 1_555 1_555
C4A C5A 1_555 1_555
C10A C11A 1_555 1_555

#END
