
#######################################################################
#
#                 Cambridge Crystallographic Data Centre
#                                CCDC 
#
#######################################################################
#
# If this CIF has been generated from an entry in the Cambridge 
# Structural Database, then it will include bibliographic, chemical, 
# crystal, experimental, refinement or atomic coordinate data resulting 
# from the CCDC's data processing and validation procedures.
#
#######################################################################

data_GOJSED02
_symmetry_cell_setting           monoclinic
_symmetry_space_group_name_H-M   'C 2/c'
_symmetry_Int_Tables_number      15
_space_group_name_Hall           '-C 2yn'
loop_
_symmetry_equiv_pos_site_id
_symmetry_equiv_pos_as_xyz
1 x,y,z
2 -x,y,1/2-z
3 1/2+x,1/2+y,z
4 1/2-x,1/2+y,1/2-z
5 -x,-y,-z
6 x,-y,1/2+z
7 1/2-x,1/2-y,-z
8 1/2+x,1/2-y,1/2+z
_cell_length_a                   17.8760(13)
_cell_length_b                   11.5450(5)
_cell_length_c                   14.1520(10)
_cell_angle_alpha                90
_cell_angle_beta                 123.090(7)
_cell_angle_gamma                90
_cell_volume                     2446.98
loop_
_atom_site_label
_atom_site_type_symbol
_atom_site_fract_x
_atom_site_fract_y
_atom_site_fract_z
Fe1 Fe 0.5000 0.10346(3) 0.2500
N1 N 0.5000 0.29378(16) 0.2500
N2 N 0.5000 0.91078(16) 0.2500
C1 C 0.42698(10) 0.35471(14) 0.22455(13)
H1 H 0.3749 0.3133 0.2068
C2 C 0.42392(10) 0.47442(14) 0.22290(13)
H2 H 0.3705 0.5134 0.2035
C3 C 0.5000 0.53789(19) 0.2500
C4 C 0.5000 0.66643(19) 0.2500
C5 C 0.43376(11) 0.72989(14) 0.25082(15)
H3 H 0.3868 0.6909 0.2504
C6 C 0.43684(11) 0.84971(15) 0.25218(15)
H4 H 0.3920 0.8910 0.2548
S1 S 0.31353(4) 0.11138(5) 0.40878(5)
O1 O 0.62261(8) 0.10118(10) 0.40884(10)
H5 H 0.6297 0.0562 0.4598
H6 H 0.6727 0.0884 0.4189
N3 N 0.42838(11) 0.10652(12) 0.33147(14)
C7 C 0.38084(11) 0.10774(14) 0.36369(14)
Fe1_2 Fe 0.5000 1.10346(3) 0.2500
N2_2 N 0.5000 -0.08922(16) 0.2500
C1A C 0.57302(10) 0.35471(14) 0.27545(13)
H1A H 0.6251 0.3133 0.2932
C2A C 0.57608(10) 0.47442(14) 0.27710(13)
H2A H 0.6295 0.5134 0.2965
C5A C 0.56624(11) 0.72989(14) 0.24918(15)
H3A H 0.6132 0.6909 0.2496
C6A C 0.56316(11) 0.84971(15) 0.24782(15)
H4A H 0.6080 0.8910 0.2452
S1A S 0.68647(4) 0.11138(5) 0.09122(5)
O1A O 0.37739(8) 0.10118(10) 0.09116(10)
H5A H 0.3703 0.0562 0.0402
H6A H 0.3273 0.0884 0.0811
N3A N 0.57162(11) 0.10652(12) 0.16853(14)
C7A C 0.61916(11) 0.10774(14) 0.13631(14)
N4 N 0.22244(10) 0.05409(17) 0.07530(13)
C8 C 0.16542(13) 0.1407(2) 0.05346(17)
H7 H 0.1858 0.2179 0.0588
C9 C 0.07800(12) 0.12396(17) 0.02334(15)
H8 H 0.0399 0.1885 0.0075
C10 C 0.04673(11) 0.01155(16) 0.01658(13)
C11 C 0.10664(13) -0.07884(18) 0.04062(17)
H9 H 0.0888 -0.1570 0.0379
C12 C 0.19214(13) -0.0537(2) 0.06841(17)
H10 H 0.2315 -0.1164 0.0834
N4D N -0.22244(10) -0.05409(17) -0.07530(13)
C8D C -0.16542(13) -0.1407(2) -0.05346(17)
H7D H -0.1858 -0.2179 -0.0588
C9D C -0.07800(12) -0.12396(17) -0.02334(15)
H8D H -0.0399 -0.1885 -0.0075
C10D C -0.04673(11) -0.01155(16) -0.01658(13)
C11D C -0.10664(13) 0.07884(18) -0.04062(17)
H9D H -0.0888 0.1570 -0.0379
C12D C -0.19214(13) 0.0537(2) -0.06841(17)
H10D H -0.2315 0.1164 -0.0834
loop_
_geom_bond_atom_site_label_1
_geom_bond_atom_site_label_2
_geom_bond_site_symmetry_1
_geom_bond_site_symmetry_2
Fe1 N1 1_555 1_555
N1 C1 1_555 1_555
N2 C6 1_555 1_555
C1 H1 1_555 1_555
C2 C1 1_555 1_555
H2 C2 1_555 1_555
C3 C2 1_555 1_555
C4 C3 1_555 1_555
C5 C4 1_555 1_555
H3 C5 1_555 1_555
C6 C5 1_555 1_555
H4 C6 1_555 1_555
S1 C7 1_555 1_555
O1 Fe1 1_555 1_555
H5 O1 1_555 1_555
H6 O1 1_555 1_555
N3 Fe1 1_555 1_555
C7 N3 1_555 1_555
N4 C8 1_555 1_555
C8 H7 1_555 1_555
C9 C8 1_555 1_555
H8 C9 1_555 1_555
C10 C9 1_555 1_555
C11 C10 1_555 1_555
H9 C11 1_555 1_555
C12 N4 1_555 1_555
H10 C12 1_555 1_555
Fe1_2 N2 1_555 1_555
N2_2 Fe1 1_555 1_555
C1A N1 1_555 1_555
H1A C1A 1_555 1_555
C2A C3 1_555 1_555
H2A C2A 1_555 1_555
C5A C4 1_555 1_555
H3A C5A 1_555 1_555
C6A N2 1_555 1_555
H4A C6A 1_555 1_555
S1A C7A 1_555 1_555
O1A Fe1 1_555 1_555
H5A O1A 1_555 1_555
H6A O1A 1_555 1_555
N3A Fe1 1_555 1_555
C7A N3A 1_555 1_555
N4D C8D 1_555 1_555
C8D H7D 1_555 1_555
C9D C8D 1_555 1_555
H8D C9D 1_555 1_555
C10D C10 1_555 1_555
C11D C10D 1_555 1_555
H9D C11D 1_555 1_555
C12D N4D 1_555 1_555
H10D C12D 1_555 1_555
C11 C12 1_555 1_555
C1A C2A 1_555 1_555
C5A C6A 1_555 1_555
C9D C10D 1_555 1_555
C11D C12D 1_555 1_555

#END
