
#######################################################################
#
#                 Cambridge Crystallographic Data Centre
#                                CCDC 
#
#######################################################################
#
# If this CIF has been generated from an entry in the Cambridge 
# Structural Database, then it will include bibliographic, chemical, 
# crystal, experimental, refinement or atomic coordinate data resulting 
# from the CCDC's data processing and validation procedures.
#
#######################################################################

data_GOJWIM
_symmetry_cell_setting           monoclinic
_symmetry_space_group_name_H-M   'P 21/c'
_symmetry_Int_Tables_number      14
_space_group_name_Hall           '-P 2ybc'
loop_
_symmetry_equiv_pos_site_id
_symmetry_equiv_pos_as_xyz
1 x,y,z
2 -x,1/2+y,1/2-z
3 -x,-y,-z
4 x,1/2-y,1/2+z
_cell_length_a                   9.965(3)
_cell_length_b                   22.137(8)
_cell_length_c                   9.757(3)
_cell_angle_alpha                90
_cell_angle_beta                 102.560(5)
_cell_angle_gamma                90
_cell_volume                     2100.84
loop_
_atom_site_label
_atom_site_type_symbol
_atom_site_fract_x
_atom_site_fract_y
_atom_site_fract_z
Eu1 Eu 0.33940(2) 0.018132(10) 0.60040(2)
Zn1 Zn 0.09867(6) 0.21854(2) 0.85032(5)
N1 N 0.2912(4) 0.25611(15) 0.8445(3)
N2 N 0.9352(4) 0.16491(16) 0.8798(4)
O1 O 0.1799(3) 0.14800(13) 0.7661(3)
O2 O 0.3616(4) 0.12101(13) 0.6804(3)
O3 O 0.4544(3) 0.42867(12) 0.9493(3)
O4 O 0.6167(4) 0.41237(13) 0.8333(3)
O5 O 1.0899(3) 0.24119(14) 1.0527(3)
O6 O 0.9758(3) 0.22347(14) 1.2217(3)
O7 O 0.5647(3) 0.02884(14) 0.7374(3)
O8 O 0.7286(3) 0.03608(14) 0.6121(3)
O9 O 0.2915(4) 0.01538(15) 0.8347(3)
O10 O 0.1205(4) -0.01947(18) 0.6727(4)
O11 O 0.1340(4) 0.07216(16) 0.4642(4)
C1 C 0.2956(5) 0.1567(2) 0.7408(5)
C2 C 0.3652(5) 0.21761(19) 0.7840(5)
C3 C 0.4907(6) 0.2326(2) 0.7576(5)
H1 H 0.5407 0.2046 0.7182
C4 C 0.5418(6) 0.2905(2) 0.7909(5)
H2 H 0.6267 0.3016 0.7741
C5 C 0.4655(5) 0.3310(2) 0.8489(5)
C6 C 0.3414(5) 0.31213(19) 0.8757(4)
H3 H 0.2906 0.3392 0.9168
C7 C 0.5162(5) 0.3954(2) 0.8796(5)
C8 C 0.9953(5) 0.21693(19) 1.0986(5)
C9 C 0.8984(5) 0.17466(19) 1.0027(5)
C10 C 0.7866(5) 0.1476(2) 1.0352(5)
H4 H 0.7619 0.1562 1.1197
C11 C 0.7100(5) 0.1071(2) 0.9417(5)
H5 H 0.6327 0.0886 0.9619
C12 C 0.7503(5) 0.09465(19) 0.8176(4)
C13 C 0.8621(5) 0.12502(19) 0.7899(5)
H6 H 0.8880 0.1176 0.7055
C14 C 0.6740(5) 0.0496(2) 0.7131(5)
C15 C 0.1704(6) -0.0017(2) 0.7964(5)
C16 C 0.0776(6) -0.0006(2) 0.9022(5)
C17 C -0.0361(6) -0.0344(2) 0.8818(5)
H7 H -0.0608 -0.0578 0.8011
C18 C 0.1157(6) 0.0346(2) 1.0220(5)
H8 H 0.1949 0.0581 1.0360
Eu1C Eu 0.33940(2) 0.481868(10) 0.10040(2)
Eu1C_2 Eu 0.33940(2) 0.481868(10) 1.10040(2)
Eu1A Eu 0.66060(2) 0.518132(10) 0.89960(2)
Eu1B Eu 0.66060(2) -0.018132(10) 0.39960(2)
Eu1B_2 Eu -0.33940(2) -0.018132(10) 1.39960(2)
Zn1C Zn 0.09867(6) 0.28146(2) 0.35032(5)
Zn1_2 Zn 1.09867(6) 0.21854(2) 0.85032(5)
Zn1C_2 Zn 1.09867(6) 0.28146(2) 1.35032(5)
Zn1B Zn -0.09867(6) -0.21854(2) 0.14968(5)
Zn1A Zn -0.09867(6) -0.28146(2) -0.35032(5)
N1C N 0.2912(4) 0.24389(15) 0.3445(3)
N2B N 0.0648(4) -0.16491(16) 0.1202(4)
N2_2 N -0.0648(4) 0.16491(16) 0.8798(4)
N2C N -0.0648(4) 0.33509(16) 0.3798(4)
O1C O 0.1799(3) 0.35200(13) 0.2661(3)
O2C O 0.3616(4) 0.37899(13) 0.1804(3)
O3C O 0.4544(3) 0.07133(12) 0.4493(3)
O3_2 O 0.4544(3) 0.42867(12) -0.0507(3)
O4C O 0.6167(4) 0.08763(13) 0.3333(3)
O4A O 0.3833(4) -0.08763(13) 0.6667(3)
O4B O 0.3833(4) 0.58763(13) 0.1667(3)
O5B O -0.0899(3) -0.24119(14) -0.0527(3)
O5_2 O 0.0899(3) 0.24119(14) 1.0527(3)
O5C O 0.0899(3) 0.25881(14) 0.5527(3)
O6B O 0.0242(3) -0.22347(14) -0.2217(3)
O6C O -0.0242(3) 0.27653(14) 0.7217(3)
O6_2 O -0.0242(3) 0.22347(14) 0.2217(3)
O7B O 0.4353(3) -0.02884(14) 0.2626(3)
O7C O 0.5647(3) 0.47116(14) 0.2374(3)
O8B O 0.2714(3) -0.03608(14) 0.3879(3)
O8A O 0.2714(3) 0.53608(14) -0.1121(3)
O9B O -0.2915(4) -0.01538(15) 1.1653(3)
O9C O 0.2915(4) 0.48462(15) 0.3347(3)
O10B O -0.1205(4) 0.01947(18) 1.3273(4)
O10C O 0.1205(4) 0.51947(18) 0.1727(4)
O11C O 0.1340(4) 0.42784(16) -0.0358(4)
C1C C 0.2956(5) 0.3433(2) 0.2408(5)
C2C C 0.3652(5) 0.28239(19) 0.2840(5)
C3C C 0.4907(6) 0.2674(2) 0.2576(5)
H1C H 0.5407 0.2954 0.2182
C4C C 0.5418(6) 0.2095(2) 0.2909(5)
H2C H 0.6267 0.1984 0.2741
C5C C 0.4655(5) 0.1690(2) 0.3489(5)
C6C C 0.3414(5) 0.18787(19) 0.3757(4)
H3C H 0.2906 0.1608 0.4168
C7C C 0.5162(5) 0.1046(2) 0.3796(5)
C8B C 0.0047(5) -0.21693(19) -0.0986(5)
C9B C 0.1016(5) -0.17466(19) -0.0027(5)
C10B C 0.2134(5) -0.1476(2) -0.0352(5)
H4B H 0.2381 -0.1562 -0.1197
C11B C 0.2900(5) -0.1071(2) 0.0583(5)
H5B H 0.3673 -0.0886 0.0381
C12B C 0.2497(5) -0.09465(19) 0.1824(4)
C13B C 0.1379(5) -0.12502(19) 0.2101(5)
H6B H 0.1120 -0.1176 0.2945
C14B C 0.3260(5) -0.0496(2) 0.2869(5)
C15B C -0.1704(6) 0.0017(2) 1.2036(5)
C16B C -0.0776(6) 0.0006(2) 1.0978(5)
C17B C 0.0361(6) 0.0344(2) 1.1182(5)
H7B H 0.0608 0.0578 1.1989
C18B C -0.1157(6) -0.0346(2) 0.9780(5)
H8B H -0.1949 -0.0581 0.9640
O12 O 0.8861(6) 0.1527(2) 0.4508(5)
O13 O 0.4276(8) 0.0924(4) 0.0458(7)
loop_
_geom_bond_atom_site_label_1
_geom_bond_atom_site_label_2
_geom_bond_site_symmetry_1
_geom_bond_site_symmetry_2
Eu1 O2 1_555 1_555
Zn1 N1 1_555 1_555
N1 C2 1_555 1_555
N2 C9 1_555 1_555
O1 Zn1 1_555 1_555
O2 C1 1_555 1_555
O3 C7 1_555 1_555
O4 C7 1_555 1_555
O5 C8 1_555 1_555
O6 C8 1_555 1_555
O7 Eu1 1_555 1_555
O8 C14 1_555 1_555
O9 Eu1 1_555 1_555
O10 Eu1 1_555 1_555
O11 Eu1 1_555 1_555
C1 O1 1_555 1_555
C2 C1 1_555 1_555
C3 C2 1_555 1_555
H1 C3 1_555 1_555
C4 C3 1_555 1_555
H2 C4 1_555 1_555
C5 C4 1_555 1_555
C6 N1 1_555 1_555
H3 C6 1_555 1_555
C7 C5 1_555 1_555
C8 C9 1_555 1_555
C9 C10 1_555 1_555
C10 H4 1_555 1_555
C11 C10 1_555 1_555
H5 C11 1_555 1_555
C12 C11 1_555 1_555
C13 N2 1_555 1_555
H6 C13 1_555 1_555
C14 O7 1_555 1_555
C15 O9 1_555 1_555
C16 C15 1_555 1_555
C17 C16 1_555 1_555
H7 C17 1_555 1_555
C18 C16 1_555 1_555
H8 C18 1_555 1_555
Eu1C O2C 1_555 1_555
Eu1C_2 O3 1_555 1_555
Eu1A O4 1_555 1_555
Eu1B O8 1_555 1_555
Eu1B_2 O9B 1_555 1_555
Zn1C N1C 1_555 1_555
Zn1_2 N2 1_555 1_555
Zn1C_2 O6 1_555 1_555
Zn1B N2B 1_555 1_555
Zn1A O6B 1_555 1_555
N1C C2C 1_555 1_555
N2B C9B 1_555 1_555
N2_2 Zn1 1_555 1_555
N2C Zn1C 1_555 1_555
O1C Zn1C 1_555 1_555
O2C C1C 1_555 1_555
O3C Eu1 1_555 1_555
O3_2 Eu1C 1_555 1_555
O4C Eu1B 1_555 1_555
O4A Eu1 1_555 1_555
O4B Eu1C 1_555 1_555
O5B Zn1B 1_555 1_555
O5_2 Zn1 1_555 1_555
O5C Zn1C 1_555 1_555
O6B C8B 1_555 1_555
O6C Zn1 1_555 1_555
O6_2 Zn1C 1_555 1_555
O7B Eu1B 1_555 1_555
O7C Eu1C 1_555 1_555
O8B Eu1 1_555 1_555
O8A Eu1C 1_555 1_555
O9B C15B 1_555 1_555
O9C Eu1C 1_555 1_555
O10B Eu1B_2 1_555 1_555
O10C Eu1C 1_555 1_555
O11C Eu1C 1_555 1_555
C1C O1C 1_555 1_555
C2C C1C 1_555 1_555
C3C C2C 1_555 1_555
H1C C3C 1_555 1_555
C4C C3C 1_555 1_555
H2C C4C 1_555 1_555
C5C C4C 1_555 1_555
C6C N1C 1_555 1_555
H3C C6C 1_555 1_555
C7C O3C 1_555 1_555
C8B O5B 1_555 1_555
C9B C8B 1_555 1_555
C10B C9B 1_555 1_555
H4B C10B 1_555 1_555
C11B C10B 1_555 1_555
H5B C11B 1_555 1_555
C12B C11B 1_555 1_555
C13B N2B 1_555 1_555
H6B C13B 1_555 1_555
C14B O7B 1_555 1_555
C15B O10B 1_555 1_555
C16B C15B 1_555 1_555
C17B C18 1_555 1_555
H7B C17B 1_555 1_555
C18B C17 1_555 1_555
H8B C18B 1_555 1_555
O5 Zn1_2 1_555 1_555
O10 C15 1_555 1_555
C5 C6 1_555 1_555
C12 C13 1_555 1_555
C12 C14 1_555 1_555
O4C C7C 1_555 1_555
O8B C14B 1_555 1_555
C5C C6C 1_555 1_555
C5C C7C 1_555 1_555
C12B C13B 1_555 1_555
C12B C14B 1_555 1_555
C16B C17B 1_555 1_555
C16B C18B 1_555 1_555

#END
