
#######################################################################
#
#                 Cambridge Crystallographic Data Centre
#                                CCDC 
#
#######################################################################
#
# If this CIF has been generated from an entry in the Cambridge 
# Structural Database, then it will include bibliographic, chemical, 
# crystal, experimental, refinement or atomic coordinate data resulting 
# from the CCDC's data processing and validation procedures.
#
#######################################################################

data_GOKBOY
_symmetry_cell_setting           monoclinic
_symmetry_space_group_name_H-M   'P 21/c'
_symmetry_Int_Tables_number      14
_space_group_name_Hall           '-P 2ybc'
loop_
_symmetry_equiv_pos_site_id
_symmetry_equiv_pos_as_xyz
1 x,y,z
2 -x,1/2+y,1/2-z
3 -x,-y,-z
4 x,1/2-y,1/2+z
_cell_length_a                   10.263(2)
_cell_length_b                   18.750(2)
_cell_length_c                   9.883(2)
_cell_angle_alpha                90
_cell_angle_beta                 113.24(1)
_cell_angle_gamma                90
_cell_volume                     1747.49
loop_
_atom_site_label
_atom_site_type_symbol
_atom_site_fract_x
_atom_site_fract_y
_atom_site_fract_z
Cu1 Cu 0.21513(6) 0.19199(3) 0.43831(7)
Cu2 Cu 0.09914(6) 0.19015(3) 0.08230(7)
Cu3 Cu 0.33700(6) 0.28305(3) 0.28196(7)
O1 O 0.2697(3) 0.18363(18) 0.2717(4)
O2 O 0.1641(3) 0.21017(18) 0.6021(4)
O3 O 0.1879(4) 0.0742(2) 0.4541(5)
O4 O 0.0228(4) 0.0943(2) 0.0814(5)
O5 O 0.4133(4) 0.2074(2) 0.5851(4)
O6 O 0.5113(4) 0.2660(2) 0.4519(4)
C1 C 0.5181(5) 0.2368(3) 0.5688(5)
C2 C 0.6560(5) 0.2372(4) 0.6994(6)
H1 H 0.6698 0.1906 0.7458
H2 H 0.6499 0.2717 0.7699
C3 C 0.7834(5) 0.2544(3) 0.6672(6)
H3 H 0.7716 0.3018 0.6247
H4 H 0.7877 0.2211 0.5940
C4 C 0.9220(5) 0.2517(3) 0.7993(6)
O7 O 0.9307(4) 0.2133(2) 0.9058(4)
O8 O 1.0225(4) 0.2882(2) 0.7908(4)
O9 O 0.2361(4) 0.1542(2) -0.0547(4)
O10 O 0.3493(4) 0.11284(19) -0.1857(4)
C5 C 0.2870(5) 0.1042(3) -0.0989(6)
C6 C 0.2796(7) 0.0289(3) -0.0445(7)
H5 H 0.1837 0.0205 -0.0524
H6 H 0.3415 0.0265 0.0591
C7 C 0.3200(6) -0.0315(3) -0.1242(7)
H7 H 0.4072 -0.0185 -0.1344
H8 H 0.3393 -0.0739 -0.0631
C8 C 0.2098(6) -0.0498(3) -0.2750(7)
O11 O 0.0877(5) -0.0257(3) -0.3114(5)
O12 O 0.2459(5) -0.0902(3) -0.3530(5)
H9 H 0.3417 0.1538 0.2958
H10 H 0.0948 0.1763 0.6098
H11 H 0.2753 0.0589 0.4814
H12 H 0.1188 0.0464 0.3973
H13 H 0.0915 0.0631 0.1132
H14 H -0.0188 0.0767 0.1360
Cu1C Cu 1.21513(6) 0.30801(3) 0.93831(7)
Cu2C Cu 0.09914(6) 0.30985(3) 0.58230(7)
Cu2_2 Cu 1.09914(6) 0.19015(3) 1.08230(7)
Cu2C_2 Cu 1.09914(6) 0.30985(3) 0.58230(7)
Cu3C Cu 0.33700(6) 0.21695(3) 0.78196(7)
Cu3C_2 Cu 0.33700(6) 0.21695(3) -0.21804(7)
O2C O 0.1641(3) 0.28983(18) 0.1021(4)
O5C O 0.4133(4) 0.2926(2) 0.0851(4)
O7_2 O -0.0693(4) 0.2133(2) -0.0942(4)
O8C O 0.0225(4) 0.2118(2) 0.2908(4)
O9C O 0.2361(4) 0.3458(2) 0.4453(4)
O10C O 0.3493(4) 0.38716(19) 0.3143(4)
H10C H 0.0948 0.3237 0.1098
O13 O 0.5061(4) -0.0890(2) 0.6307(5)
H17 H 0.4925 -0.0801 0.5398
H18 H 0.4239 -0.0899 0.6355
O14 O 0.5323(5) 0.0576(2) 0.6754(6)
H19 H 0.5242 0.0120 0.6631
H20 H 0.4632 0.0818 0.6771
O15 O 0.9727(4) 0.1117(2) 0.6159(5)
H15 H 0.9055 0.1301 0.5388
H16 H 0.9294 0.0918 0.6657
O16 O 0.8287(5) 0.0456(3) 0.7841(6)
H21 H 0.8852 0.0594 0.8721
H22 H 0.7481 0.0652 0.7662
loop_
_geom_bond_atom_site_label_1
_geom_bond_atom_site_label_2
_geom_bond_site_symmetry_1
_geom_bond_site_symmetry_2
Cu1 O1 1_555 1_555
Cu2 O1 1_555 1_555
Cu3 O1 1_555 1_555
O1 H9 1_555 1_555
O2 Cu1 1_555 1_555
O3 Cu1 1_555 1_555
O4 Cu2 1_555 1_555
O5 Cu1 1_555 1_555
O6 Cu3 1_555 1_555
C1 O5 1_555 1_555
C2 C1 1_555 1_555
H1 C2 1_555 1_555
H2 C2 1_555 1_555
C3 C2 1_555 1_555
H3 C3 1_555 1_555
H4 C3 1_555 1_555
C4 C3 1_555 1_555
O7 C4 1_555 1_555
O8 C4 1_555 1_555
O9 Cu2 1_555 1_555
O10 C5 1_555 1_555
C5 O9 1_555 1_555
C6 C5 1_555 1_555
H5 C6 1_555 1_555
H6 C6 1_555 1_555
C7 C6 1_555 1_555
H7 C7 1_555 1_555
H8 C7 1_555 1_555
C8 C7 1_555 1_555
O11 C8 1_555 1_555
O12 C8 1_555 1_555
O13 H17 1_555 1_555
O14 H19 1_555 1_555
O15 H15 1_555 1_555
O16 H21 1_555 1_555
H10 O2 1_555 1_555
H11 O3 1_555 1_555
H12 O3 1_555 1_555
H13 O4 1_555 1_555
H14 O4 1_555 1_555
H16 O15 1_555 1_555
H18 O13 1_555 1_555
H20 O14 1_555 1_555
H22 O16 1_555 1_555
Cu1C O8 1_555 1_555
Cu2C O2 1_555 1_555
Cu2_2 O7 1_555 1_555
Cu2C_2 O8 1_555 1_555
Cu3C O2 1_555 1_555
Cu3C_2 O9 1_555 1_555
O2C Cu2 1_555 1_555
O5C Cu3 1_555 1_555
O7_2 Cu2 1_555 1_555
O8C Cu1 1_555 1_555
O9C Cu3 1_555 1_555
O10C Cu3 1_555 1_555
H10C O2C 1_555 1_555
Cu2 O8C 1_555 1_555
Cu3 O2C 1_555 1_555
O5 Cu3C 1_555 1_555
O6 C1 1_555 1_555
O10 Cu3C_2 1_555 1_555
Cu2C O9C 1_555 1_555

#END
