
#######################################################################
#
#                 Cambridge Crystallographic Data Centre
#                                CCDC 
#
#######################################################################
#
# If this CIF has been generated from an entry in the Cambridge 
# Structural Database, then it will include bibliographic, chemical, 
# crystal, experimental, refinement or atomic coordinate data resulting 
# from the CCDC's data processing and validation procedures.
#
#######################################################################

data_GOKDIT
_symmetry_cell_setting           monoclinic
_symmetry_space_group_name_H-M   'P c'
_symmetry_Int_Tables_number      7
_space_group_name_Hall           'P -2yc'
loop_
_symmetry_equiv_pos_site_id
_symmetry_equiv_pos_as_xyz
1 x,y,z
2 x,-y,1/2+z
_cell_length_a                   3.888(3)
_cell_length_b                   8.641(3)
_cell_length_c                   17.944(11)
_cell_angle_alpha                90
_cell_angle_beta                 92.63(6)
_cell_angle_gamma                90
_cell_volume                     602.215
loop_
_atom_site_label
_atom_site_type_symbol
_atom_site_fract_x
_atom_site_fract_y
_atom_site_fract_z
Cu1 Cu -0.2988(5) 0.1722(1) 0.7609(1)
Br1 Br 0.1326 0.0273(1) 0.8318
N1 N -0.2909(32) 0.3600(13) 0.8286(7)
N2 N -0.5396(36) 0.3109(12) 0.6944(7)
N3 N -0.3453(29) 0.0282(13) 0.6723(6)
O1 O -0.7880(46) 0.5595(15) 0.6865(10)
O2 O -0.7939(51) 0.3313(18) 0.5737(8)
C1 C -0.1518(41) 0.3760(19) 0.8971(9)
C2 C -0.1647(54) 0.5086(21) 0.9379(12)
C3 C -0.3222(60) 0.6388(30) 0.9031(17)
C4 C -0.4748(51) 0.6261(21) 0.8336(14)
C5 C -0.4488(42) 0.4844(17) 0.7965(11)
C6 C -0.6172(46) 0.4563(19) 0.7189(11)
C7 C -0.6446(43) 0.2598(19) 0.6232(8)
C8 C -0.5185(39) 0.0964(17) 0.6126(7)
C9 C -0.5914(46) 0.0157(23) 0.5467(9)
C10 C -0.4778(52) -0.1350(28) 0.5405(11)
C11 C -0.3071(47) -0.2006(19) 0.6021(11)
C12 C -0.2432(43) -0.1164(19) 0.6655(8)
H1 H -0.035(35) 0.272(18) 0.921(8)
H2 H -0.055(36) 0.516(18) 0.994(8)
H3 H -0.375(37) 0.713(18) 0.937(8)
H4 H -0.622(37) 0.706(19) 0.804(8)
H5 H -0.717(37) 0.063(18) 0.504(8)
H6 H -0.516(39) -0.178(16) 0.490(9)
H7 H -0.222(39) -0.320(17) 0.600(9)
H8 H -0.139(39) -0.154(17) 0.701(9)
Br1_2 Br -0.8674 0.0273(1) 0.8318
Cu1_2 Cu 0.7012(5) 0.1722(1) 0.7609(1)
loop_
_geom_bond_atom_site_label_1
_geom_bond_atom_site_label_2
_geom_bond_site_symmetry_1
_geom_bond_site_symmetry_2
Cu1 Br1 1_555 1_555
Br1 Cu1_2 1_555 1_555
N1 Cu1 1_555 1_555
N2 Cu1 1_555 1_555
N3 Cu1 1_555 1_555
O1 C6 1_555 1_555
O2 C7 1_555 1_555
C1 N1 1_555 1_555
C2 C1 1_555 1_555
C3 C2 1_555 1_555
C4 C3 1_555 1_555
C5 N1 1_555 1_555
C6 N2 1_555 1_555
C7 N2 1_555 1_555
C8 N3 1_555 1_555
C9 C8 1_555 1_555
C10 C9 1_555 1_555
C11 C10 1_555 1_555
C12 N3 1_555 1_555
H1 C1 1_555 1_555
H2 C2 1_555 1_555
H3 C3 1_555 1_555
H4 C4 1_555 1_555
H5 C9 1_555 1_555
H6 C10 1_555 1_555
H7 C11 1_555 1_555
H8 C12 1_555 1_555
Br1_2 Cu1 1_555 1_555
C4 C5 1_555 1_555
C5 C6 1_555 1_555
C7 C8 1_555 1_555
C11 C12 1_555 1_555

#END
