
#######################################################################
#
#                 Cambridge Crystallographic Data Centre
#                                CCDC 
#
#######################################################################
#
# If this CIF has been generated from an entry in the Cambridge 
# Structural Database, then it will include bibliographic, chemical, 
# crystal, experimental, refinement or atomic coordinate data resulting 
# from the CCDC's data processing and validation procedures.
#
#######################################################################

data_GOKDOA
_symmetry_cell_setting           monoclinic
_symmetry_space_group_name_H-M   'P 21/c'
_symmetry_Int_Tables_number      14
_space_group_name_Hall           '-P 2ybc'
loop_
_symmetry_equiv_pos_site_id
_symmetry_equiv_pos_as_xyz
1 x,y,z
2 -x,1/2+y,1/2-z
3 -x,-y,-z
4 x,1/2-y,1/2+z
_cell_length_a                   13.2309(9)
_cell_length_b                   12.6158(6)
_cell_length_c                   8.9271(4)
_cell_angle_alpha                90
_cell_angle_beta                 105.862(4)
_cell_angle_gamma                90
_cell_volume                     1433.36
loop_
_atom_site_label
_atom_site_type_symbol
_atom_site_fract_x
_atom_site_fract_y
_atom_site_fract_z
Cu1 Cu -0.50000 0.50000 -0.50000
C1 C -0.32967 0.03843 -0.40376
C2 C -0.31486 -0.05281 -0.3124
C3 C -0.36722 -0.06274 -0.19783
C4 C -0.39771 0.1172 -0.37968
C5 C -0.44784 0.10056 -0.26325
C6 C -0.41952 0.21684 -0.47733
O1 O -0.44737 0.30455 -0.39716
N1 N -0.4324 0.0132 -0.17394
H1 H -0.28845 0.04905 -0.49306
H2 H -0.26239 -0.1157 -0.32796
H3 H -0.35817 -0.1311 -0.12139
H4 H -0.50165 0.15909 -0.23965
H5 H -0.35114 0.23483 -0.52076
H6 H -0.48546 0.20093 -0.58071
H7 H -0.38125 0.34541 -0.34552
C7 C -0.2253 0.67851 -0.12196
C8 C -0.14706 0.74503 -0.03744
C9 C -0.20176 0.58841 -0.19776
C10 C -0.04339 0.71956 -0.03552
C11 C -0.0943 0.57149 -0.18661
C12 C -0.28867 0.51808 -0.28612
C13 C 0.04195 0.47915 -0.25718
C14 C 0.13908 0.76408 0.03509
N2 N -0.01807 0.63566 -0.10797
O2 O -0.36972 0.56905 -0.36767
O3 O -0.28009 0.41882 -0.27387
O4 O -0.06802 0.48922 -0.2646
O5 O 0.0331 0.78594 0.04188
H8 H -0.30741 0.69492 -0.13004
H9 H -0.16365 0.8143 0.0242
H10 H 0.08861 0.4663 -0.13679
H11 H 0.04605 0.41063 -0.32976
H12 H 0.0695 0.55065 -0.3032
H13 H 0.14237 0.76191 -0.08617
H14 H 0.16744 0.68948 0.09465
H15 H 0.18554 0.83078 0.0956
Cu1C Cu -0.50000 0.00000 0.00000
Cu1C_2 Cu -0.50000 1.00000 -1.00000
C1B C -0.67033 0.96157 -0.59624
C2B C -0.68514 1.05281 -0.6876
C3B C -0.63278 1.06274 -0.80217
C4B C -0.60229 0.8828 -0.62032
C5B C -0.55216 0.89944 -0.73675
C6B C -0.58048 0.78316 -0.52267
O1B O -0.55263 0.69545 -0.60284
N1C N -0.4324 0.4868 -0.67394
N1A N -0.5676 0.5132 -0.32606
N1B N -0.5676 0.9868 -0.82606
H1B H -0.71155 0.95095 -0.50694
H2B H -0.73761 1.1157 -0.67204
H3B H -0.64183 1.1311 -0.87861
H4B H -0.49835 0.84091 -0.76035
H5B H -0.64886 0.76517 -0.47924
H6B H -0.51454 0.79907 -0.41929
H7B H -0.61875 0.65459 -0.65448
C7B C -0.7747 0.32149 -0.87804
C8B C -0.85294 0.25497 -0.96256
C9B C -0.79824 0.41159 -0.80224
C10B C -0.95661 0.28044 -0.96448
C11B C -0.9057 0.42851 -0.81339
C12B C -0.71133 0.48192 -0.71388
C13B C -1.04195 0.52085 -0.74282
C14B C -1.13908 0.23592 -1.03509
N2B N -0.98193 0.36434 -0.89203
O2B O -0.63028 0.43095 -0.63233
O3B O -0.71991 0.58118 -0.72613
O4B O -0.93198 0.51078 -0.7354
O5B O -1.0331 0.21406 -1.04188
H8B H -0.69259 0.30508 -0.86996
H9B H -0.83635 0.1857 -1.0242
H10B H -1.08861 0.5337 -0.86321
H11B H -1.04605 0.58937 -0.67024
H12B H -1.0695 0.44935 -0.6968
H13B H -1.14237 0.23809 -0.91383
H14B H -1.16744 0.31052 -1.09465
H15B H -1.18554 0.16922 -1.0956
loop_
_geom_bond_atom_site_label_1
_geom_bond_atom_site_label_2
_geom_bond_site_symmetry_1
_geom_bond_site_symmetry_2
Cu1 O1 1_555 1_555
C1 C2 1_555 1_555
C2 C3 1_555 1_555
C3 N1 1_555 1_555
C4 C1 1_555 1_555
C5 C4 1_555 1_555
C6 C4 1_555 1_555
O1 C6 1_555 1_555
N1 C5 1_555 1_555
H1 C1 1_555 1_555
H2 C2 1_555 1_555
H3 C3 1_555 1_555
H4 C5 1_555 1_555
H5 C6 1_555 1_555
H6 C6 1_555 1_555
H7 O1 1_555 1_555
C7 C8 1_555 1_555
C8 C10 1_555 1_555
C9 C7 1_555 1_555
C10 N2 1_555 1_555
C11 C9 1_555 1_555
C12 C9 1_555 1_555
C13 O4 1_555 1_555
C14 O5 1_555 1_555
N2 C11 1_555 1_555
O2 Cu1 1_555 1_555
O3 C12 1_555 1_555
O4 C11 1_555 1_555
O5 C10 1_555 1_555
H8 C7 1_555 1_555
H9 C8 1_555 1_555
H10 C13 1_555 1_555
H11 C13 1_555 1_555
H12 C13 1_555 1_555
H13 C14 1_555 1_555
H14 C14 1_555 1_555
H15 C14 1_555 1_555
Cu1C N1 1_555 1_555
Cu1C_2 N1B 1_555 1_555
C1B C2B 1_555 1_555
C2B C3B 1_555 1_555
C3B N1B 1_555 1_555
C4B C1B 1_555 1_555
C5B C4B 1_555 1_555
C6B C4B 1_555 1_555
O1B Cu1 1_555 1_555
N1C Cu1 1_555 1_555
N1A Cu1 1_555 1_555
N1B C5B 1_555 1_555
H1B C1B 1_555 1_555
H2B C2B 1_555 1_555
H3B C3B 1_555 1_555
H4B C5B 1_555 1_555
H5B C6B 1_555 1_555
H6B C6B 1_555 1_555
H7B O1B 1_555 1_555
C7B C8B 1_555 1_555
C8B C10B 1_555 1_555
C9B C7B 1_555 1_555
C10B N2B 1_555 1_555
C11B C9B 1_555 1_555
C12B C9B 1_555 1_555
C13B O4B 1_555 1_555
C14B O5B 1_555 1_555
N2B C11B 1_555 1_555
O2B Cu1 1_555 1_555
O3B C12B 1_555 1_555
O4B C11B 1_555 1_555
O5B C10B 1_555 1_555
H8B C7B 1_555 1_555
H9B C8B 1_555 1_555
H10B C13B 1_555 1_555
H11B C13B 1_555 1_555
H12B C13B 1_555 1_555
H13B C14B 1_555 1_555
H14B C14B 1_555 1_555
H15B C14B 1_555 1_555
C12 O2 1_555 1_555
C6B O1B 1_555 1_555
C12B O2B 1_555 1_555

#END
