
#######################################################################
#
#                 Cambridge Crystallographic Data Centre
#                                CCDC 
#
#######################################################################
#
# If this CIF has been generated from an entry in the Cambridge 
# Structural Database, then it will include bibliographic, chemical, 
# crystal, experimental, refinement or atomic coordinate data resulting 
# from the CCDC's data processing and validation procedures.
#
#######################################################################

data_GOKRAZ
_symmetry_cell_setting           rhombohedral
_symmetry_space_group_name_H-M   'R 3 c'
_symmetry_Int_Tables_number      161
_space_group_name_Hall           'R 3 -2"c'
loop_
_symmetry_equiv_pos_site_id
_symmetry_equiv_pos_as_xyz
1 x,y,z
2 -y,x-y,z
3 -y,-x,1/2+z
4 -x+y,-x,z
5 x,x-y,1/2+z
6 -x+y,y,1/2+z
7 1/3+x,2/3+y,2/3+z
8 1/3-y,2/3+x-y,2/3+z
9 1/3-y,2/3-x,1/6+z
10 1/3-x+y,2/3-x,2/3+z
11 1/3+x,2/3+x-y,1/6+z
12 1/3-x+y,2/3+y,1/6+z
13 2/3+x,1/3+y,1/3+z
14 2/3-y,1/3+x-y,1/3+z
15 2/3-y,1/3-x,5/6+z
16 2/3-x+y,1/3-x,1/3+z
17 2/3+x,1/3+x-y,5/6+z
18 2/3-x+y,1/3+y,5/6+z
_cell_length_a                   18.881(2)
_cell_length_b                   18.881(2)
_cell_length_c                   57.320(10)
_cell_angle_alpha                90
_cell_angle_beta                 90
_cell_angle_gamma                120
_cell_volume                     17696.5
loop_
_atom_site_label
_atom_site_type_symbol
_atom_site_fract_x
_atom_site_fract_y
_atom_site_fract_z
Fe1 Fe 0.0000 0.0000 0.0013(2)
Mn1 Mn -0.3335(3) -0.1854(3) 0.0017(1)
Fe2 Fe -0.4826(3) -0.0002(3) 0.0032(1)
Mn2 Mn -0.3333 0.3333 0.0056(2)
O1 O -0.0999(13) -0.0261(13) 0.0219(4)
O2 O -0.0938(12) -0.0934(12) -0.0175(3)
O3 O -0.2327(13) -0.1007(14) 0.0219(4)
O4 O -0.2278(13) -0.1699(14) -0.0178(3)
O5 O -0.4703(11) -0.0828(13) 0.0226(4)
O6 O -0.4021(11) -0.0164(12) -0.0173(4)
O7 O 0.0080(14) 0.4297(13) 0.0225(4)
O8 O 0.0791(13) 0.5010(14) -0.0178(4)
O9 O -0.3984(11) 0.0971(14) 0.0224(4)
O10 O -0.4731(11) 0.0951(12) -0.0167(4)
O11 O -0.4187(14) -0.1657(11) 0.0209(4)
O12 O -0.3562(14) -0.2893(12) 0.0216(4)
O13 O -0.3391(11) -0.0955(12) -0.0187(4)
O14 O -0.4264(14) -0.2819(14) -0.0182(4)
O15 O -0.3400(13) 0.2342(14) 0.0247(4)
O16 O -0.4160(13) 0.2329(12) -0.0157(4)
C1 C -0.1679(17) -0.0843(18) 0.0134(5)
C2 C -0.1653(17) -0.1172(15) -0.0093(7)
C3 C -0.3822(16) 0.1681(18) 0.0142(5)
C4 C -0.4274(15) 0.1677(20) -0.0064(6)
C5 C -0.4276(17) -0.1103(19) 0.0140(5)
C6 C -0.3836(20) -0.0674(21) -0.0098(7)
C7 C -0.4080(15) -0.3523(17) 0.0142(5)
C8 C -0.4487(18) -0.3521(20) -0.0085(6)
O1A O 0.0261(13) -0.0738(18) 0.0219(4)
O2A O 0.0934(12) -0.0004(17) -0.0175(3)
O1C O 0.0738(18) 0.0999(13) 0.0219(4)
C1C C 0.0836(25) 0.1679(17) 0.0134(5)
O3C O 0.1320(19) 0.2327(13) 0.0219(4)
Mn1C Mn 0.1481(4) 0.3335(3) 0.0017(1)
O4C O 0.0579(19) 0.2278(13) -0.0178(3)
C2C C 0.0481(23) 0.1653(17) -0.0093(7)
O2C O 0.0004(17) 0.0938(12) -0.0175(3)
O11C O 0.2530(18) 0.4187(14) 0.0209(4)
C5C C 0.3173(25) 0.4276(17) 0.0140(5)
O5C O 0.3875(17) 0.4703(11) 0.0226(4)
Fe2C Fe 0.4824(4) 0.4826(3) 0.0032(1)
O6C O 0.3857(16) 0.4021(11) -0.0173(4)
C6C C 0.3162(29) 0.3836(20) -0.0098(7)
O13C O 0.2436(16) 0.3391(11) -0.0187(4)
O12C O 0.0669(18) 0.3562(14) 0.0216(4)
C7C C 0.0557(23) 0.4080(15) 0.0142(5)
O7C O -0.5783(19) -0.0080(14) 0.0225(4)
Fe2A Fe 0.0002(3) 0.5176(4) 0.0032(1)
O5A O 0.0828(13) 0.6125(17) 0.0226(4)
O6A O 0.0164(12) 0.6143(16) -0.0173(4)
O8C O -0.5781(19) -0.0791(13) -0.0178(4)
C8C C 0.0966(27) 0.4487(18) -0.0085(6)
O14C O 0.1445(20) 0.4264(14) -0.0182(4)
O9A O -0.0971(14) 0.5045(18) 0.0224(4)
C3A C -0.1681(18) 0.4497(24) 0.0142(5)
O15A O -0.2342(14) 0.4258(19) 0.0247(4)
O7A O -0.4297(13) -0.4217(19) 0.0225(4)
O8A O -0.5010(14) -0.4219(19) -0.0178(4)
O15C O -0.4258(19) 0.3400(13) 0.0247(4)
C3C C -0.4497(24) 0.3822(16) 0.0142(5)
O9C O -0.5045(18) 0.3984(11) 0.0224(4)
Fe2C_2 Fe -0.5176(4) 0.4826(3) 0.0032(1)
O10C O -0.4318(16) 0.4731(11) -0.0167(4)
C4C C -0.4049(25) 0.4274(15) -0.0064(6)
O16C O -0.3511(18) 0.4160(13) -0.0157(4)
O16A O -0.2329(12) 0.3511(18) -0.0157(4)
C4A C -0.1677(20) 0.4049(25) -0.0064(6)
O10A O -0.0951(12) 0.4318(16) -0.0167(4)
Fe2C_3 Fe -0.5176(4) -0.5174(3) 0.0032(1)
P2 P -0.5030(4) -0.5068(4) -0.0989(2)
C21 C -0.4990(14) -0.5014(16) -0.1302(5)
C22 C -0.4285(15) -0.4893(17) -0.1412(4)
C23 C -0.4234(16) -0.4875(17) -0.1657(4)
C24 C -0.4896(15) -0.4964(16) -0.1788(5)
C25 C -0.5604(16) -0.5079(17) -0.1673(4)
C26 C -0.5672(16) -0.5149(16) -0.1428(4)
C27 C -0.5920(16) -0.5102(16) -0.0880(5)
C28 C -0.6659(14) -0.5765(16) -0.0940(5)
C29 C -0.7404(15) -0.5876(16) -0.0862(5)
C30 C -0.7395(15) -0.5389(15) -0.0685(5)
C31 C -0.6674(14) -0.4769(15) -0.0593(5)
C32 C -0.5961(15) -0.4640(16) -0.0695(5)
C33 C -0.5026(16) -0.5987(15) -0.0880(4)
C34 C -0.4711(17) -0.6359(16) -0.1021(5)
C35 C -0.4662(16) -0.7015(15) -0.0923(4)
C36 C -0.4915(16) -0.7250(16) -0.0685(4)
C37 C -0.5241(17) -0.6865(15) -0.0555(5)
C38 C -0.5273(16) -0.6211(15) -0.0648(4)
C39 C -0.4146(16) -0.4164(15) -0.0883(4)
C40 C -0.3791(15) -0.3457(14) -0.10006(5)
C41 C -0.3125(15) -0.2774(15) -0.0907(4)
C42 C -0.2812(16) -0.2777(16) -0.0689(4)
C43 C -0.3191(15) -0.3501(14) -0.0564(5)
C44 C -0.3834(15) -0.4194(15) -0.0661(4)
P1? P 0.0000 0.0000 -0.0993(2)
C9? C 0.0000 0.0000 -0.1296(7)
C10? C -0.0745(25) -0.0413(38) -0.1409(9)
C11? C -0.0735(28) -0.0439(43) -0.1654(9)
C12? C 0.0000 0.0000 -0.1777(8)
C13? C 0.0750(32) 0.0447(50) -0.1667(11)
C14? C 0.0724(31) 0.0461(49) -0.1421(11)
C15? C -0.0079(12) -0.0940(12) -0.0877(4)
C16? C 0.0401(16) -0.0919(15) -0.0695(4)
C17? C 0.0294(15) -0.1638(14) -0.0609(5)
C18? C -0.0313(15) -0.2385(15) -0.0701(5)
C19? C -0.0833(16) -0.2407(15) -0.0878(5)
C20? C -0.0706(15) -0.1671(13) -0.0979(5)
loop_
_geom_bond_atom_site_label_1
_geom_bond_atom_site_label_2
_geom_bond_site_symmetry_1
_geom_bond_site_symmetry_2
Fe1 O1 1_555 1_555
Mn1 O3 1_555 1_555
Fe2 O5 1_555 1_555
Mn2 O15 1_555 1_555
P2 C21 1_555 1_555
O1 C1 1_555 1_555
O2 Fe1 1_555 1_555
O3 C1 1_555 1_555
O4 Mn1 1_555 1_555
O5 C5 1_555 1_555
O6 Fe2 1_555 1_555
O7 C7C 1_555 1_555
O8 Fe2A 1_555 1_555
O9 Fe2 1_555 1_555
O10 Fe2 1_555 1_555
O11 Mn1 1_555 1_555
O12 Mn1 1_555 1_555
O13 Mn1 1_555 1_555
O14 Mn1 1_555 1_555
O15 C3 1_555 1_555
O16 Mn2 1_555 1_555
C1 C2 1_555 1_555
C2 O2 1_555 1_555
C3 O9 1_555 1_555
C4 O10 1_555 1_555
C5 O11 1_555 1_555
C6 O6 1_555 1_555
C7 O12 1_555 1_555
C8 O14 1_555 1_555
C21 C22 1_555 1_555
C22 C23 1_555 1_555
C23 C24 1_555 1_555
C24 C25 1_555 1_555
C25 C26 1_555 1_555
C26 C21 1_555 1_555
C27 P2 1_555 1_555
C28 C27 1_555 1_555
C29 C28 1_555 1_555
C30 C29 1_555 1_555
C31 C30 1_555 1_555
C32 C27 1_555 1_555
C33 P2 1_555 1_555
C34 C33 1_555 1_555
C35 C34 1_555 1_555
C36 C35 1_555 1_555
C37 C36 1_555 1_555
C38 C33 1_555 1_555
C39 P2 1_555 1_555
C40 C39 1_555 1_555
C41 C40 1_555 1_555
C42 C41 1_555 1_555
C43 C42 1_555 1_555
C44 C39 1_555 1_555
O1A Fe1 1_555 1_555
O2A Fe1 1_555 1_555
O1C Fe1 1_555 1_555
C1C O1C 1_555 1_555
O3C C1C 1_555 1_555
Mn1C O3C 1_555 1_555
O4C Mn1C 1_555 1_555
C2C C1C 1_555 1_555
O2C Fe1 1_555 1_555
O11C Mn1C 1_555 1_555
C5C O11C 1_555 1_555
O5C C5C 1_555 1_555
Fe2C O5C 1_555 1_555
O6C Fe2C 1_555 1_555
C6C C5C 1_555 1_555
O13C Mn1C 1_555 1_555
O12C Mn1C 1_555 1_555
C7C O12C 1_555 1_555
O7C Fe2 1_555 1_555
Fe2A O7 1_555 1_555
O5A Fe2A 1_555 1_555
O6A Fe2A 1_555 1_555
O8C Fe2 1_555 1_555
C8C O8 1_555 1_555
O14C Mn1C 1_555 1_555
O9A Fe2A 1_555 1_555
C3A O9A 1_555 1_555
O15A Mn2 1_555 1_555
O7A C7 1_555 1_555
O8A C8 1_555 1_555
O15C Mn2 1_555 1_555
C3C O15C 1_555 1_555
O9C C3C 1_555 1_555
Fe2C_2 O9C 1_555 1_555
O10C Fe2C_2 1_555 1_555
C4C C3C 1_555 1_555
O16C Mn2 1_555 1_555
O16A Mn2 1_555 1_555
C4A C3A 1_555 1_555
O10A Fe2A 1_555 1_555
Fe2C_3 O7A 1_555 1_555
O4 C2 1_555 1_555
O13 C6 1_555 1_555
O16 C4 1_555 1_555
C3 C4 1_555 1_555
C5 C6 1_555 1_555
C7 C8 1_555 1_555
C31 C32 1_555 1_555
C37 C38 1_555 1_555
C43 C44 1_555 1_555
O4C C2C 1_555 1_555
C2C O2C 1_555 1_555
O6C C6C 1_555 1_555
C6C O13C 1_555 1_555
C7C C8C 1_555 1_555
C8C O14C 1_555 1_555
C3A O15A 1_555 1_555
O8A Fe2C_3 1_555 1_555
O10C C4C 1_555 1_555
C4C O16C 1_555 1_555
O16A C4A 1_555 1_555
C4A O10A 1_555 1_555

#END
