
#######################################################################
#
#                 Cambridge Crystallographic Data Centre
#                                CCDC 
#
#######################################################################
#
# If this CIF has been generated from an entry in the Cambridge 
# Structural Database, then it will include bibliographic, chemical, 
# crystal, experimental, refinement or atomic coordinate data resulting 
# from the CCDC's data processing and validation procedures.
#
#######################################################################

data_GOKRAZ01
_symmetry_cell_setting           rhombohedral
_symmetry_space_group_name_H-M   'R 3 c'
_symmetry_Int_Tables_number      161
_space_group_name_Hall           'R 3 -2"c'
loop_
_symmetry_equiv_pos_site_id
_symmetry_equiv_pos_as_xyz
1 x,y,z
2 -y,x-y,z
3 -y,-x,1/2+z
4 -x+y,-x,z
5 x,x-y,1/2+z
6 -x+y,y,1/2+z
7 1/3+x,2/3+y,2/3+z
8 1/3-y,2/3+x-y,2/3+z
9 1/3-y,2/3-x,1/6+z
10 1/3-x+y,2/3-x,2/3+z
11 1/3+x,2/3+x-y,1/6+z
12 1/3-x+y,2/3+y,1/6+z
13 2/3+x,1/3+y,1/3+z
14 2/3-y,1/3+x-y,1/3+z
15 2/3-y,1/3-x,5/6+z
16 2/3-x+y,1/3-x,1/3+z
17 2/3+x,1/3+x-y,5/6+z
18 2/3-x+y,1/3+y,5/6+z
_cell_length_a                   18.826(5)
_cell_length_b                   18.826(5)
_cell_length_c                   56.82(1)
_cell_angle_alpha                90
_cell_angle_beta                 90
_cell_angle_gamma                120
_cell_volume                     17440.1
loop_
_atom_site_label
_atom_site_type_symbol
_atom_site_fract_x
_atom_site_fract_y
_atom_site_fract_z
P1 P 0.0000 0.0000 -0.0977(3)
C9 C 0.0000 0.0000 -0.1296(4)
C10 C -0.0752(6) -0.0358(26) -0.1400(5)
C11 C -0.0831(20) -0.0471(30) -0.1643(6)
C12 C -0.0118(28) -0.0205(26) -0.1782(4)
C13 C -0.0165(22) 0.0471(35) -0.1679(6)
C14 C 0.0715(8) 0.0277(28) -0.1436(6)
C15 C -0.0025(13) -0.0938(11) -0.0880(4)
C16 C -0.0648(13) -0.1643(16) -0.0985(3)
C17 C -0.0844(12) -0.2410(12) -0.0898(4)
C18 C -0.0417(13) -0.2472(8) -0.0706(4)
C19 C 0.0206(11) -0.1767(11) -0.0602(3)
C20 C 0.0402(9) -0.1000(8) -0.0689(3)
C11A C 0.0471(30) -0.0360(36) -0.1643(6)
C10A C 0.0358(26) -0.0394(27) -0.1400(5)
C10C C 0.0394(27) 0.0752(6) -0.1400(5)
C11C C 0.0360(36) 0.0831(20) -0.1643(6)
C12C C -0.0087(38) 0.0118(28) -0.1782(4)
C12A C 0.0205(26) 0.0087(38) -0.1782(4)
C13A C -0.0471(35) -0.0636(41) -0.1679(6)
C14C C -0.0438(29) -0.0715(8) -0.1436(6)
C14A C -0.0277(28) 0.0438(29) -0.1436(6)
C13C C 0.0636(41) 0.0165(22) -0.1679(6)
C15A C 0.0938(11) 0.0913(17) -0.0880(4)
C16A C 0.1643(16) 0.0995(21) -0.0985(3)
C17A C 0.2410(12) 0.1566(17) -0.0898(4)
C18A C 0.2472(8) 0.2055(15) -0.0706(4)
C19A C 0.1767(11) 0.1973(16) -0.0602(3)
C20A C 0.1000(8) 0.1402(12) -0.0689(3)
C15C C -0.0913(17) 0.0025(13) -0.0880(4)
C16C C -0.0995(21) 0.0648(13) -0.0985(3)
C17C C -0.1566(17) 0.0844(12) -0.0898(4)
C18C C -0.2055(15) 0.0417(13) -0.0706(4)
C19C C -0.1973(16) -0.0206(11) -0.0602(3)
C20C C -0.1402(12) -0.0402(9) -0.0689(3)
P2 P -0.5010(4) -0.5091(4) -0.0986(1)
C21 C -0.5052(11) -0.5015(12) -0.1303(2)
C22 C -0.4316(9) -0.4822(10) -0.1412(3)
C23 C -0.4283(11) -0.4881(12) -0.1655(33)
C24 C -0.4986(15) -0.5133(16) -0.1789(2)
C25 C -0.5722(12) -0.5326(15) -0.1681(4)
C26 C -0.5755(9) -0.5267(11) -0.1437(4)
C27 C -0.5900(10) -0.5037(13) -0.0891(4)
C28 C -0.5873(12) -0.4443(11) -0.0740(4)
C29 C -0.6592(17) -0.4547(15) -0.0639(4)
C30 C -0.7337(13) -0.5245(18) -0.0689(4)
C31 C -0.7364(9) -0.5839(13) -0.0840(4)
C32 C -0.6646(13) -0.5735(12) -0.0941(4)
C33 C -0.5067(14) -0.6006(12) -0.0891(4)
C34 C -0.4743(15) -0.6419(16) -0.1014(3)
C35 C -0.4644(15) -0.7020(15) -0.0901(5)
C36 C -0.4869(14) -0.7208(11) -0.0666(5)
C37 C -0.5193(12) -0.6795(13) -0.0544(3)
C38 C -0.5292(12) -0.6194(12) -0.0656(4)
C39 C -0.4196(10) -0.4173(10) -0.0848(4)
C40 C -0.3874(13) -0.4188(11) -0.0629(4)
C41 C -0.3178(14) -0.3495(15) -0.0546(3)
C42 C -0.2804(10) -0.2786(11) -0.0682(4)
C43 C -0.3127(13) -0.2771(10) -0.0901(4)
C44 C -0.3823(13) -0.3464(14) -0.0984(3)
Fe1 Fe 0.0000 0.0000 0.0002(3)
Mn1 Mn -0.3312(5) -0.1837(4) 0.0009(1)
Fe2 Fe -0.4851(4) -0.0033(4) 0.0023(1)
Mn2 Mn -0.3333 0.3333 0.0056(2)
O1 O -0.0992(14) -0.0187(15) 0.0206(4)
O2 O -0.0997(10) -0.0928(9) -0.0158(3)
O3 O -0.2333(12) -0.0999(13) 0.0236(4)
O4 O -0.2337(16) -0.1748(18) -0.0201(5)
O5 O -0.4655(17) -0.0738(17) 0.0246(5)
O6 O -0.3975(12) -0.0141(12) -0.0169(4)
O7 O 0.0139(10) 0.4381(11) 0.0261(3)
O8 O 0.0809(15) 0.4997(14) -0.0175(4)
O9 O -0.3997(12) 0.0999(10) 0.0212(3)
O10 O -0.4821(16) 0.0943(14) -0.0148(5)
O11 O -0.4175(16) -0.1700(17) 0.0244(5)
O12 O -0.3591(15) -0.2888(14) 0.0215(5)
O13 O -0.3377(13) -0.0845(12) -0.0149(4)
O14 O -0.4304(11) -0.2848(11) -0.0147(4)
O15 O -0.3437(16) 0.2308(14) 0.0281(4)
O16 O -0.4153(13) 0.2366(12) -0.0179(4)
C1 C -0.1687(16) -0.0852(18) 0.0140(5)
C2 C -0.1689(16) -0.1265(18) -0.0085(5)
C3 C -0.3937(19) 0.1633(17) 0.0152(5)
C4 C -0.4296(17) 0.1640(15) -0.0089(5)
C5 C -0.4370(13) -0.1183(31) 0.0172(9)
C6 C -0.3883(19) -0.0660(18) -0.0049(6)
C7 C -0.4107(16) -0.3608(17) 0.0191(5)
C8 C -0.4495(19) -0.3450(16) -0.0033(5)
O1A O 0.0187(15) -0.0805(21) 0.0206(4)
O2A O 0.0928(9) -0.0069(13) -0.0158(3)
O1C O 0.0805(21) 0.0992(14) 0.0206(4)
C1C C 0.0835(24) 0.1687(16) 0.0140(5)
O3C O 0.1334(18) 0.2333(12) 0.0236(4)
Mn1C Mn 0.1475(6) 0.3312(5) 0.0009(1)
O4C O 0.0589(24) 0.2337(16) -0.0201(5)
C2C C 0.0424(24) 0.1689(16) -0.0085(5)
O2C O 0.0069(13) 0.0997(10) -0.0158(3)
O11C O 0.2475(23) 0.4175(16) 0.0244(5)
C5C C 0.3187(34) 0.4370(13) 0.0172(9)
O5C O 0.3917(24) 0.4655(17) 0.0246(5)
Fe2C Fe 0.4818(6) 0.4851(4) 0.0023(1)
O6C O 0.3834(17) 0.3975(12) -0.0169(4)
C6C C 0.3223(26) 0.3883(19) -0.0049(6)
O13C O 0.2532(18) 0.3377(13) -0.0149(4)
O12C O 0.0703(21) 0.3591(15) 0.0215(5)
C7C C 0.0499(23) 0.4107(16) 0.0191(5)
O7C O -0.5758(15) -0.0139(10) 0.0261(3)
Fe2A Fe 0.0033(4) 0.5182(6) 0.0023(1)
O5A O 0.0738(17) 0.6083(24) 0.0246(5)
O6A O 0.0141(12) 0.6166(17) -0.0169(4)
O8C O -0.5812(21) -0.0809(15) -0.0175(4)
C8C C 0.1045(25) 0.4495(19) -0.0033(5)
O14C O 0.1456(16) 0.4304(11) -0.0147(4)
O9A O -0.0999(10) 0.5004(16) 0.0212(3)
C3A C -0.1633(17) 0.4430(25) 0.0152(5)
O15A O -0.2308(14) 0.4255(21) 0.0281(4)
O15C O -0.4255(21) 0.3437(16) 0.0281(4)
C3C C -0.4430(25) 0.3937(19) 0.0152(5)
O9C O -0.5004(16) 0.3997(12) 0.0212(3)
Fe2C_2 Fe -0.5182(6) 0.4851(4) 0.0023(1)
O10C O -0.4236(21) 0.4821(16) -0.0148(5)
C4C C -0.4064(23) 0.4296(17) -0.0089(5)
O16C O -0.3481(18) 0.4153(13) -0.0179(4)
O16A O -0.2366(12) 0.3481(18) -0.0179(4)
C4A C -0.1640(15) 0.4064(23) -0.0089(5)
O10A O -0.0943(14) 0.4236(21) -0.0148(5)
O7A O -0.4381(11) -0.4242(15) 0.0261(3)
O8A O -0.4997(14) -0.4188(21) -0.0175(4)
Fe2C_3 Fe -0.5182(6) -0.5149(4) 0.0023(1)
loop_
_geom_bond_atom_site_label_1
_geom_bond_atom_site_label_2
_geom_bond_site_symmetry_1
_geom_bond_site_symmetry_2
Fe1 O1 1_555 1_555
Mn1 O3 1_555 1_555
Fe2 O5 1_555 1_555
Mn2 O15 1_555 1_555
P1 C9 1_555 1_555
P2 C21 1_555 1_555
O1 C1 1_555 1_555
O2 Fe1 1_555 1_555
O3 C1 1_555 1_555
O4 Mn1 1_555 1_555
O5 C5 1_555 1_555
O6 Fe2 1_555 1_555
O7 C7C 1_555 1_555
O8 Fe2A 1_555 1_555
O9 Fe2 1_555 1_555
O10 Fe2 1_555 1_555
O11 Mn1 1_555 1_555
O12 Mn1 1_555 1_555
O13 Mn1 1_555 1_555
O14 Mn1 1_555 1_555
O15 C3 1_555 1_555
O16 Mn2 1_555 1_555
C1 C2 1_555 1_555
C2 O2 1_555 1_555
C3 O9 1_555 1_555
C4 O10 1_555 1_555
C5 O11 1_555 1_555
C6 O6 1_555 1_555
C7 O12 1_555 1_555
C8 O14 1_555 1_555
C9 C10 1_555 1_555
C10 C11 1_555 1_555
C11 C12 1_555 1_555
C12 C13 1_555 1_555
C13 C11 1_555 1_555
C14 C9 1_555 1_555
C15 P1 1_555 1_555
C16 C15 1_555 1_555
C17 C16 1_555 1_555
C18 C17 1_555 1_555
C19 C18 1_555 1_555
C20 C15 1_555 1_555
C21 C22 1_555 1_555
C22 C23 1_555 1_555
C23 C24 1_555 1_555
C24 C25 1_555 1_555
C25 C26 1_555 1_555
C26 C21 1_555 1_555
C27 P2 1_555 1_555
C28 C27 1_555 1_555
C29 C28 1_555 1_555
C30 C29 1_555 1_555
C31 C30 1_555 1_555
C32 C27 1_555 1_555
C33 P2 1_555 1_555
C34 C33 1_555 1_555
C35 C34 1_555 1_555
C36 C35 1_555 1_555
C37 C36 1_555 1_555
C38 C33 1_555 1_555
C39 P2 1_555 1_555
C40 C39 1_555 1_555
C41 C40 1_555 1_555
C42 C41 1_555 1_555
C43 C42 1_555 1_555
C44 C39 1_555 1_555
O1A Fe1 1_555 1_555
O2A Fe1 1_555 1_555
O1C Fe1 1_555 1_555
C1C O1C 1_555 1_555
O3C C1C 1_555 1_555
Mn1C O3C 1_555 1_555
O4C Mn1C 1_555 1_555
C2C C1C 1_555 1_555
O2C Fe1 1_555 1_555
O11C Mn1C 1_555 1_555
C5C O11C 1_555 1_555
O5C C5C 1_555 1_555
Fe2C O5C 1_555 1_555
O6C Fe2C 1_555 1_555
C6C C5C 1_555 1_555
O13C Mn1C 1_555 1_555
O12C Mn1C 1_555 1_555
C7C O12C 1_555 1_555
O7C Fe2 1_555 1_555
Fe2A O7 1_555 1_555
O5A Fe2A 1_555 1_555
O6A Fe2A 1_555 1_555
O8C Fe2 1_555 1_555
C8C O8 1_555 1_555
O14C Mn1C 1_555 1_555
O9A Fe2A 1_555 1_555
C3A O9A 1_555 1_555
O15A Mn2 1_555 1_555
O15C Mn2 1_555 1_555
C3C O15C 1_555 1_555
O9C C3C 1_555 1_555
Fe2C_2 O9C 1_555 1_555
O10C Fe2C_2 1_555 1_555
C4C C3C 1_555 1_555
O16C Mn2 1_555 1_555
O16A Mn2 1_555 1_555
C4A C3A 1_555 1_555
O10A Fe2A 1_555 1_555
C11A C12 1_555 1_555
C10A C9 1_555 1_555
C10C C9 1_555 1_555
C11C C13 1_555 1_555
C12C C11 1_555 1_555
C12A C12 1_555 1_555
C13A C11 1_555 1_555
C14C C9 1_555 1_555
C14A C9 1_555 1_555
C13C C12 1_555 1_555
C15A P1 1_555 1_555
C16A C15A 1_555 1_555
C17A C16A 1_555 1_555
C18A C17A 1_555 1_555
C19A C18A 1_555 1_555
C20A C15A 1_555 1_555
C15C P1 1_555 1_555
C16C C15C 1_555 1_555
C17C C16C 1_555 1_555
C18C C17C 1_555 1_555
C19C C18C 1_555 1_555
C20C C15C 1_555 1_555
O7A C7 1_555 1_555
O8A C8 1_555 1_555
Fe2C_3 O7A 1_555 1_555
O4 C2 1_555 1_555
O13 C6 1_555 1_555
O16 C4 1_555 1_555
C3 C4 1_555 1_555
C5 C6 1_555 1_555
C7 C8 1_555 1_555
C10 C14A 1_555 1_555
C10 C14C 1_555 1_555
C11 C14C 1_555 1_555
C12 C12C 1_555 1_555
C12 C13A 1_555 1_555
C13 C14A 1_555 1_555
C13 C12C 1_555 1_555
C13 C12A 1_555 1_555
C14 C10C 1_555 1_555
C14 C10A 1_555 1_555
C14 C11A 1_555 1_555
C14 C13C 1_555 1_555
C19 C20 1_555 1_555
C31 C32 1_555 1_555
C37 C38 1_555 1_555
C43 C44 1_555 1_555
O4C C2C 1_555 1_555
C2C O2C 1_555 1_555
O6C C6C 1_555 1_555
C6C O13C 1_555 1_555
C7C C8C 1_555 1_555
C8C O14C 1_555 1_555
C3A O15A 1_555 1_555
O10C C4C 1_555 1_555
C4C O16C 1_555 1_555
O16A C4A 1_555 1_555
C4A O10A 1_555 1_555
C11A C10A 1_555 1_555
C11A C13A 1_555 1_555
C11A C13C 1_555 1_555
C11A C12A 1_555 1_555
C10A C14C 1_555 1_555
C10C C11C 1_555 1_555
C10C C14A 1_555 1_555
C11C C12C 1_555 1_555
C11C C12A 1_555 1_555
C11C C13C 1_555 1_555
C11C C14A 1_555 1_555
C12C C12A 1_555 1_555
C12C C13C 1_555 1_555
C12C C13A 1_555 1_555
C12A C13A 1_555 1_555
C12A C13C 1_555 1_555
C13A C14C 1_555 1_555
C19A C20A 1_555 1_555
C19C C20C 1_555 1_555
O8A Fe2C_3 1_555 1_555

#END
