
#######################################################################
#
#                 Cambridge Crystallographic Data Centre
#                                CCDC 
#
#######################################################################
#
# If this CIF has been generated from an entry in the Cambridge 
# Structural Database, then it will include bibliographic, chemical, 
# crystal, experimental, refinement or atomic coordinate data resulting 
# from the CCDC's data processing and validation procedures.
#
#######################################################################

data_GOKTEH
_symmetry_cell_setting           triclinic
_symmetry_space_group_name_H-M   'P -1'
_symmetry_Int_Tables_number      2
_space_group_name_Hall           '-P 1'
loop_
_symmetry_equiv_pos_site_id
_symmetry_equiv_pos_as_xyz
1 x,y,z
2 -x,-y,-z
_cell_length_a                   12.928(3)
_cell_length_b                   15.644(3)
_cell_length_c                   25.739(5)
_cell_angle_alpha                91.980(3)
_cell_angle_beta                 93.995(3)
_cell_angle_gamma                114.215(3)
_cell_volume                     4724.62
loop_
_atom_site_label
_atom_site_type_symbol
_atom_site_fract_x
_atom_site_fract_y
_atom_site_fract_z
Co1 Co 0.30796(14) 0.43501(10) 0.28321(6)
Co2 Co 0.73521(13) 0.17789(10) 1.41442(6)
Co3 Co 0.20276(15) 0.14813(12) 0.85303(6)
N1 N 0.4821(10) 0.4809(7) 0.3018(4)
N2 N 0.1366(10) 0.3865(7) 0.2659(4)
N3 N 0.3374(9) 0.4566(7) 0.2014(4)
N4 N 0.3242(8) 0.5790(6) 0.2917(3)
N5 N 0.2831(9) 0.4173(6) 0.3657(4)
N6 N 0.2079(14) 0.2787(11) 0.5396(5)
N7 N 0.2136(17) 0.2509(14) 0.5915(6)
N8 N 0.2673(12) 0.8784(8) 0.2994(5)
N9 N 0.2948(12) 0.9758(7) 0.3035(6)
N10 N 0.4941(12) 0.4873(8) 0.0260(4)
N11 N 0.2907(8) 1.2912(6) 0.2745(4)
N12 N 0.1604(10) 0.1459(7) 0.7685(4)
N13 N 0.1925(10) 0.0063(7) 0.8488(4)
N14 N 0.3783(11) 0.1925(8) 0.8410(4)
N15 N 0.2462(10) 0.1631(7) 0.9376(4)
N16 N 0.2196(10) -0.7066(7) 0.8582(4)
N17 N 0.0295(12) 0.0974(8) 0.8655(4)
N18 N 0.2193(15) -0.2993(10) 0.8820(7)
N19 N 0.207(2) -0.3926(13) 0.8924(9)
N20 N 0.4572(11) 0.2304(8) 1.1131(4)
N21 N 0.4910(12) 0.2322(9) 1.1658(5)
N22 N 0.6701(8) 0.1792(6) 1.3353(4)
N23 N 0.6139(8) 0.0301(7) 1.4180(4)
N24 N 0.8540(8) 0.1341(7) 1.3866(4)
N25 N 0.7991(7) 0.1710(6) 1.4908(3)
H1 H 0.8467 0.2284 1.5037
H2 H 0.8359 0.1339 1.4903
H3 H 0.7416 0.1479 1.5108
N26 N -0.1479(8) -0.6715(6) 1.4205(4)
N27 N 0.6144(8) 0.2180(7) 1.4415(4)
N28 N 0.2650(9) -0.2703(6) 1.4313(4)
N29 N 0.2007(9) -0.3671(7) 1.4292(4)
S1 S 0.7051(4) 0.5125(4) 0.3313(2)
S2 S -0.0839(5) 0.3693(6) 0.2780(3)
S3 S 0.5630(6) 0.1495(6) 0.8416(3)
S4 S 1.0070(4) 0.0869(3) 1.3360(2)
S5 S 0.4536(4) 0.2880(4) 1.4598(2)
S6 S -0.1904(4) 0.0768(4) 0.8715(2)
C1 C 0.5759(13) 0.4941(8) 0.3151(5)
C2 C 0.0505(14) 0.3786(10) 0.2710(6)
C3 C 0.4025(12) 0.4215(9) 0.1788(5)
H4 H 0.4263 0.3824 0.1980
C4 C 0.4376(12) 0.4384(10) 0.1292(5)
H5 H 0.4863 0.4145 0.1160
C5 C 0.3962(13) 0.4935(9) 0.0997(5)
C6 C 0.4227(14) 0.5141(9) 0.0440(5)
H6 H 0.3882 0.5450 0.0239
C7 C 0.3239(14) 0.5283(11) 0.1226(5)
H7 H 0.2950 0.5651 0.1043
C8 C 0.2967(14) 0.5063(11) 0.1736(5)
H8 H 0.2476 0.5280 0.1883
C9 C 0.4194(12) 0.6531(8) 0.2838(5)
H9 H 0.4835 0.6421 0.2784
C10 C 0.4305(12) 0.7439(8) 0.2829(6)
H10 H 0.4993 0.7916 0.2761
C11 C 0.3420(12) 0.7635(9) 0.2918(5)
C12 C 0.2440(11) 0.6884(8) 0.3015(5)
H11 H 0.1802 0.6988 0.3082
C13 C 0.2379(11) 0.6001(8) 0.3016(5)
H12 H 0.1700 0.5519 0.3089
C14 C 0.3514(14) 0.8588(9) 0.2929(6)
H13 H 0.4215 0.9073 0.2886
C15 C 0.2432(12) 1.0048(10) 0.2702(6)
H14 H 0.1930 0.9631 0.2439
C16 C 0.2614(10) 1.1023(8) 0.2725(5)
C17 C 0.3348(11) 1.1670(9) 0.3097(5)
H15 H 0.3763 1.1497 0.3349
C18 C 0.3463(10) 1.2593(8) 0.3094(5)
H16 H 0.3962 1.3022 0.3353
C19 C 0.2218(11) 1.2284(8) 0.2375(5)
H17 H 0.1829 1.2484 0.2124
C20 C 0.2046(11) 1.1352(8) 0.2340(5)
H18 H 0.1564 1.0943 0.2069
C21 C 0.2083(11) 0.3358(8) 0.3806(5)
H19 H 0.1592 0.2913 0.3551
C22 C 0.2010(12) 0.3147(10) 0.4321(5)
H20 H 0.1465 0.2576 0.4409
C23 C 0.2772(12) 0.3806(11) 0.4719(5)
C24 C 0.3508(12) 0.4641(10) 0.4560(5)
H21 H 0.3992 0.5106 0.4807
C25 C 0.3545(10) 0.4802(9) 0.4051(5)
H22 H 0.4084 0.5371 0.3958
C26 C 0.2734(14) 0.3576(13) 0.5264(5)
H23 H 0.3209 0.4026 0.5520
C27 C 0.107(3) 0.2144(14) 0.6099(7)
H24 H 0.0362 0.2058 0.5940
C28 C 0.1414(13) 0.1921(10) 0.6649(5)
C29 C 0.2236(14) 0.1639(10) 0.6829(6)
H25 H 0.2754 0.1613 0.6603
C30 C 0.2330(12) 0.1389(9) 0.7340(5)
H26 H 0.2881 0.1176 0.7445
C31 C 0.0787(12) 0.1689(9) 0.7512(5)
H27 H 0.0269 0.1713 0.7739
C32 C 0.0676(13) 0.1901(11) 0.6995(5)
H28 H 0.0061 0.2034 0.6885
C33 C 0.4553(15) 0.1760(12) 0.8413(6)
C34 C 0.1176(14) -0.0625(10) 0.8161(6)
H29 H 0.0703 -0.0494 0.7919
C35 C 0.1090(17) -0.1571(11) 0.8180(7)
H30 H 0.0581 -0.2034 0.7939
C36 C 0.1723(18) -0.1805(11) 0.8535(8)
C37 C 0.2516(14) -0.1095(10) 0.8857(6)
H31 H 0.2983 -0.1218 0.9107
C38 C 0.2613(16) -0.0204(12) 0.8805(6)
H32 H 0.3209 0.0272 0.9007
C39 C 0.147(2) -0.2795(13) 0.8534(8)
H33 H 0.0840 -0.3253 0.8341
C40 C 0.1729(14) -0.6749(10) 0.8924(6)
H34 H 0.1308 -0.7153 0.9163
C41 C 0.1833(16) -0.5801(11) 0.8949(7)
H35 H 0.1523 -0.5592 0.9215
C42 C 0.2361(14) -0.5229(10) 0.8602(7)
C43 C 0.2882(14) -0.5557(10) 0.8228(7)
H36 H 0.3277 -0.5170 0.7977
C44 C 0.2796(13) -0.6448(9) 0.8242(6)
H37 H 0.3171 -0.6649 0.8003
C45 C 0.2437(16) -0.4230(12) 0.8603(9)
H38 H 0.2784 -0.3855 0.8338
C46 C 0.3456(14) 0.2295(10) 0.9568(5)
H39 H 0.3909 0.2715 0.9344
C47 C 0.3849(14) 0.2385(10) 1.0098(6)
H40 H 0.4530 0.2876 1.0229
C48 C 0.3175(15) 0.1708(10) 1.0425(5)
C49 C 0.2153(13) 0.1030(11) 1.0219(5)
H41 H 0.1689 0.0579 1.0426
C50 C 0.1829(13) 0.1030(10) 0.9708(5)
H42 H 0.1117 0.0581 0.9577
C51 C 0.3582(14) 0.1733(11) 1.0972(5)
H43 H 0.3112 0.1332 1.1199
C52 C 0.5318(12) 0.1737(11) 1.1800(5)
H44 H 0.5305 0.1289 1.1550
C53 C 0.5802(11) 0.1727(10) 1.2329(5)
C54 C 0.6105(11) 0.1044(9) 1.2487(5)
H45 H 0.6006 0.0541 1.2256
C55 C 0.6558(11) 0.1094(9) 1.2990(5)
H46 H 0.6779 0.0623 1.3088
C56 C 0.6402(10) 0.2456(8) 1.3200(4)
H47 H 0.6488 0.2934 1.3447
C57 C 0.5982(11) 0.2499(9) 1.2716(5)
H48 H 0.5810 0.3000 1.2628
C58 C 0.9155(11) 0.1147(8) 1.3669(5)
C59 C -0.0415(11) -0.6486(10) 1.4155(7)
H49 H -0.0183 -0.6968 1.4096
C60 C 0.0392(13) -0.5585(10) 1.4183(8)
H50 H 0.1144 -0.5466 1.4134
C61 C 0.0092(11) -0.4850(7) 1.4285(4)
C62 C -0.1019(11) -0.5088(9) 1.4334(6)
H51 H -0.1276 -0.4626 1.4407
C63 C -0.1762(11) -0.6003(8) 1.4277(6)
H52 H -0.2531 -0.6140 1.4290
C64 C 0.5473(11) 0.2464(8) 1.4480(5)
C65 C 0.5007(10) 0.0090(9) 1.4145(5)
H53 H 0.4773 0.0572 1.4094
C66 C 0.4183(11) -0.0809(9) 1.4183(6)
H54 H 0.3413 -0.0931 1.4164
C67 C 0.4554(11) -0.1536(8) 1.4253(4)
C68 C 0.5694(12) -0.1303(9) 1.4285(5)
H55 H 0.5961 -0.1764 1.4341
C69 C 0.6434(11) -0.0419(9) 1.4237(5)
H56 H 0.7203 -0.0296 1.4245
C70 C 0.3667(12) -0.2523(8) 1.4263(4)
H57 H 0.3886 -0.3018 1.4232
C71 C 0.0960(12) -0.3869(9) 1.4303(5)
H58 H 0.0725 -0.3381 1.4324
C72 C -0.0651(14) 0.0882(11) 0.8682(5)
N3A N 0.6626(9) 0.5434(7) -0.2014(4)
N10A N 0.5059(12) 0.5127(8) -0.0260(4)
C3A C 0.5975(12) 0.5785(9) -0.1788(5)
H4A H 0.5737 0.6176 -0.1980
C4A C 0.5624(12) 0.5616(10) -0.1292(5)
H5A H 0.5137 0.5855 -0.1160
C5A C 0.6038(13) 0.5065(9) -0.0997(5)
C6A C 0.5773(14) 0.4859(9) -0.0440(5)
H6A H 0.6118 0.4550 -0.0239
C7A C 0.6761(14) 0.4717(11) -0.1226(5)
H7A H 0.7050 0.4349 -0.1043
C8A C 0.7033(14) 0.4937(11) -0.1736(5)
H8A H 0.7524 0.4720 -0.1883
Co1A Co 0.69204(14) 0.56499(10) -0.28321(6)
Co2A Co 0.26479(13) 0.82211(10) -1.41442(6)
Co3A Co 0.79724(15) 0.85187(12) -0.85303(6)
N1A N 0.5179(10) 0.5191(7) -0.3018(4)
N2A N 0.8634(10) 0.6135(7) -0.2659(4)
N4A N 0.6758(8) 0.4210(6) -0.2917(3)
N5A N 0.7169(9) 0.5827(6) -0.3657(4)
N6A N 0.7921(14) 0.7213(11) -0.5396(5)
N7A N 0.7864(17) 0.7491(14) -0.5915(6)
N8A N 0.7327(12) 0.1216(8) -0.2994(5)
N9A N 0.7052(12) 0.0242(7) -0.3035(6)
N11A N 0.7093(8) -0.2912(6) -0.2745(4)
N12A N 0.8396(10) 0.8541(7) -0.7685(4)
N13A N 0.8075(10) 0.9937(7) -0.8488(4)
N14A N 0.6217(11) 0.8075(8) -0.8410(4)
N15A N 0.7538(10) 0.8369(7) -0.9376(4)
N16A N 0.7804(10) 1.7066(7) -0.8582(4)
N17A N 0.9705(12) 0.9026(8) -0.8655(4)
N18A N 0.7807(15) 1.2993(10) -0.8820(7)
N19A N 0.793(2) 1.3926(13) -0.8924(9)
N20A N 0.5428(11) 0.7696(8) -1.1131(4)
N21A N 0.5090(12) 0.7678(9) -1.1658(5)
N22A N 0.3299(8) 0.8208(6) -1.3353(4)
N23A N 0.3861(8) 0.9699(7) -1.4180(4)
N24A N 0.1460(8) 0.8659(7) -1.3866(4)
N25A N 0.2009(7) 0.8290(6) -1.4908(3)
H1A H 0.1533 0.7716 -1.5037
H2A H 0.1641 0.8661 -1.4903
H3A H 0.2584 0.8521 -1.5108
N26A N 1.1479(8) 1.6715(6) -1.4205(4)
N27A N 0.3856(8) 0.7820(7) -1.4415(4)
N28A N 0.7350(9) 1.2703(6) -1.4313(4)
N29A N 0.7993(9) 1.3671(7) -1.4292(4)
S1A S 0.2949(4) 0.4875(4) -0.3313(2)
S2A S 1.0839(5) 0.6307(6) -0.2780(3)
S3A S 0.4370(6) 0.8505(6) -0.8416(3)
S4A S -0.0070(4) 0.9131(3) -1.3360(2)
S5A S 0.5464(4) 0.7120(4) -1.4598(2)
S6A S 1.1904(4) 0.9232(4) -0.8715(2)
C1A C 0.4241(13) 0.5059(8) -0.3151(5)
C2A C 0.9495(14) 0.6214(10) -0.2710(6)
C9A C 0.5806(12) 0.3469(8) -0.2838(5)
H9A H 0.5165 0.3579 -0.2784
C10A C 0.5695(12) 0.2561(8) -0.2829(6)
H10A H 0.5007 0.2084 -0.2761
C11A C 0.6580(12) 0.2365(9) -0.2918(5)
C12A C 0.7560(11) 0.3116(8) -0.3015(5)
H11A H 0.8198 0.3012 -0.3082
C13A C 0.7621(11) 0.3999(8) -0.3016(5)
H12A H 0.8300 0.4481 -0.3089
C14A C 0.6486(14) 0.1412(9) -0.2929(6)
H13A H 0.5785 0.0927 -0.2886
C15A C 0.7568(12) -0.0048(10) -0.2702(6)
H14A H 0.8070 0.0369 -0.2439
C16A C 0.7386(10) -0.1023(8) -0.2725(5)
C17A C 0.6652(11) -0.1670(9) -0.3097(5)
H15A H 0.6237 -0.1497 -0.3349
C18A C 0.6537(10) -0.2593(8) -0.3094(5)
H16A H 0.6038 -0.3022 -0.3353
C19A C 0.7782(11) -0.2284(8) -0.2375(5)
H17A H 0.8171 -0.2484 -0.2124
C20A C 0.7954(11) -0.1352(8) -0.2340(5)
H18A H 0.8436 -0.0943 -0.2069
C21A C 0.7917(11) 0.6642(8) -0.3806(5)
H19A H 0.8408 0.7087 -0.3551
C22A C 0.7990(12) 0.6853(10) -0.4321(5)
H20A H 0.8535 0.7424 -0.4409
C23A C 0.7228(12) 0.6194(11) -0.4719(5)
C24A C 0.6492(12) 0.5359(10) -0.4560(5)
H21A H 0.6008 0.4894 -0.4807
C25A C 0.6455(10) 0.5198(9) -0.4051(5)
H22A H 0.5916 0.4629 -0.3958
C26A C 0.7266(14) 0.6424(13) -0.5264(5)
H23A H 0.6791 0.5974 -0.5520
C27A C 0.893(3) 0.7856(14) -0.6099(7)
H24A H 0.9638 0.7942 -0.5940
C28A C 0.8586(13) 0.8079(10) -0.6649(5)
C29A C 0.7764(14) 0.8361(10) -0.6829(6)
H25A H 0.7246 0.8387 -0.6603
C30A C 0.7670(12) 0.8611(9) -0.7340(5)
H26A H 0.7119 0.8824 -0.7445
C31A C 0.9213(12) 0.8311(9) -0.7512(5)
H27A H 0.9731 0.8287 -0.7739
C32A C 0.9324(13) 0.8099(11) -0.6995(5)
H28A H 0.9939 0.7966 -0.6885
C33A C 0.5447(15) 0.8240(12) -0.8413(6)
C34A C 0.8824(14) 1.0625(10) -0.8161(6)
H29A H 0.9297 1.0494 -0.7919
C35A C 0.8910(17) 1.1571(11) -0.8180(7)
H30A H 0.9419 1.2034 -0.7939
C36A C 0.8277(18) 1.1805(11) -0.8535(8)
C37A C 0.7484(14) 1.1095(10) -0.8857(6)
H31A H 0.7017 1.1218 -0.9107
C38A C 0.7387(16) 1.0204(12) -0.8805(6)
H32A H 0.6791 0.9728 -0.9007
C39A C 0.853(2) 1.2795(13) -0.8534(8)
H33A H 0.9160 1.3253 -0.8341
C40A C 0.8271(14) 1.6749(10) -0.8924(6)
H34A H 0.8692 1.7153 -0.9163
C41A C 0.8167(16) 1.5801(11) -0.8949(7)
H35A H 0.8477 1.5592 -0.9215
C42A C 0.7639(14) 1.5229(10) -0.8602(7)
C43A C 0.7118(14) 1.5557(10) -0.8228(7)
H36A H 0.6723 1.5170 -0.7977
C44A C 0.7204(13) 1.6448(9) -0.8242(6)
H37A H 0.6829 1.6649 -0.8003
C45A C 0.7563(16) 1.4230(12) -0.8603(9)
H38A H 0.7216 1.3855 -0.8338
C46A C 0.6544(14) 0.7705(10) -0.9568(5)
H39A H 0.6091 0.7285 -0.9344
C47A C 0.6151(14) 0.7615(10) -1.0098(6)
H40A H 0.5470 0.7124 -1.0229
C48A C 0.6825(15) 0.8292(10) -1.0425(5)
C49A C 0.7847(13) 0.8970(11) -1.0219(5)
H41A H 0.8311 0.9421 -1.0426
C50A C 0.8171(13) 0.8970(10) -0.9708(5)
H42A H 0.8883 0.9419 -0.9577
C51A C 0.6418(14) 0.8267(11) -1.0972(5)
H43A H 0.6888 0.8668 -1.1199
C52A C 0.4682(12) 0.8263(11) -1.1800(5)
H44A H 0.4695 0.8711 -1.1550
C53A C 0.4198(11) 0.8273(10) -1.2329(5)
C54A C 0.3895(11) 0.8956(9) -1.2487(5)
H45A H 0.3994 0.9459 -1.2256
C55A C 0.3442(11) 0.8906(9) -1.2990(5)
H46A H 0.3221 0.9377 -1.3088
C56A C 0.3598(10) 0.7544(8) -1.3200(4)
H47A H 0.3512 0.7066 -1.3447
C57A C 0.4018(11) 0.7501(9) -1.2716(5)
H48A H 0.4190 0.7000 -1.2628
C58A C 0.0845(11) 0.8853(8) -1.3669(5)
C59A C 1.0415(11) 1.6486(10) -1.4155(7)
H49A H 1.0183 1.6968 -1.4096
C60A C 0.9608(13) 1.5585(10) -1.4183(8)
H50A H 0.8856 1.5466 -1.4134
C61A C 0.9908(11) 1.4850(7) -1.4285(4)
C62A C 1.1019(11) 1.5088(9) -1.4334(6)
H51A H 1.1276 1.4626 -1.4407
C63A C 1.1762(11) 1.6003(8) -1.4277(6)
H52A H 1.2531 1.6140 -1.4290
C64A C 0.4527(11) 0.7536(8) -1.4480(5)
C65A C 0.4993(10) 0.9910(9) -1.4145(5)
H53A H 0.5227 0.9428 -1.4094
C66A C 0.5817(11) 1.0809(9) -1.4183(6)
H54A H 0.6587 1.0931 -1.4164
C67A C 0.5446(11) 1.1536(8) -1.4253(4)
C68A C 0.4306(12) 1.1303(9) -1.4285(5)
H55A H 0.4039 1.1764 -1.4341
C69A C 0.3566(11) 1.0419(9) -1.4237(5)
H56A H 0.2797 1.0296 -1.4245
C70A C 0.6333(12) 1.2523(8) -1.4263(4)
H57A H 0.6114 1.3018 -1.4232
C71A C 0.9040(12) 1.3869(9) -1.4303(5)
H58A H 0.9275 1.3381 -1.4324
C72A C 1.0651(14) 0.9118(11) -0.8682(5)
Co1_2 Co 0.30796(14) 1.43501(10) 0.28321(6)
Co1A_2 Co 0.69204(14) -0.43501(10) -0.28321(6)
Co2_2 Co -0.26479(13) -0.82211(10) 1.41442(6)
Co2A_2 Co 1.26479(13) 1.82211(10) -1.41442(6)
Co3_2 Co 0.20276(15) -0.85187(12) 0.85303(6)
Co3A_2 Co 0.79724(15) 1.85187(12) -0.85303(6)
N11_2 N 0.2907(8) 0.2912(6) 0.2745(4)
N11A_2 N 0.7093(8) 0.7088(6) -0.2745(4)
N16_2 N 0.2196(10) 0.2934(7) 0.8582(4)
N16A_2 N 0.7804(10) 0.7066(7) -0.8582(4)
N26_2 N 0.8521(8) 0.3285(6) 1.4205(4)
N26A_2 N 0.1479(8) 0.6715(6) -1.4205(4)
O1 O 0.004(3) 0.790(3) 0.9629(14)
H59 H -0.0335 0.8233 0.9721
H60 H 0.0788 0.8240 0.9695
O2 O 0.9887(18) 0.5475(14) 0.9873(8)
H61 H 0.9227 0.5530 0.9846
H62 H 0.9962 0.5201 0.9578
loop_
_geom_bond_atom_site_label_1
_geom_bond_atom_site_label_2
_geom_bond_site_symmetry_1
_geom_bond_site_symmetry_2
Co1 N1 1_555 1_555
Co2 N22 1_555 1_555
Co3 N12 1_555 1_555
N1 C1 1_555 1_555
N2 Co1 1_555 1_555
N3 Co1 1_555 1_555
N4 Co1 1_555 1_555
N5 Co1 1_555 1_555
N6 N7 1_555 1_555
N7 C27 1_555 1_555
N8 N9 1_555 1_555
N9 C15 1_555 1_555
N10 C6 1_555 1_555
N11 C18 1_555 1_555
N12 C30 1_555 1_555
N13 Co3 1_555 1_555
N14 Co3 1_555 1_555
N15 Co3 1_555 1_555
N16 C40 1_555 1_555
N17 Co3 1_555 1_555
N18 N19 1_555 1_555
N19 C45 1_555 1_555
N20 N21 1_555 1_555
N21 C52 1_555 1_555
N22 C55 1_555 1_555
N23 Co2 1_555 1_555
N24 Co2 1_555 1_555
N25 Co2 1_555 1_555
H1 N25 1_555 1_555
H2 N25 1_555 1_555
H3 N25 1_555 1_555
N26 C59 1_555 1_555
N27 Co2 1_555 1_555
N28 N29 1_555 1_555
N29 C71 1_555 1_555
S1 C1 1_555 1_555
S2 C2 1_555 1_555
S3 C33 1_555 1_555
S4 C58 1_555 1_555
S5 C64 1_555 1_555
S6 C72 1_555 1_555
C2 N2 1_555 1_555
C3 N3 1_555 1_555
H4 C3 1_555 1_555
C4 C3 1_555 1_555
H5 C4 1_555 1_555
C5 C4 1_555 1_555
C6 C5 1_555 1_555
H6 C6 1_555 1_555
C7 C5 1_555 1_555
H7 C7 1_555 1_555
C8 N3 1_555 1_555
H8 C8 1_555 1_555
C9 N4 1_555 1_555
H9 C9 1_555 1_555
C10 C9 1_555 1_555
H10 C10 1_555 1_555
C11 C10 1_555 1_555
C12 C11 1_555 1_555
H11 C12 1_555 1_555
C13 N4 1_555 1_555
H12 C13 1_555 1_555
C14 N8 1_555 1_555
H13 C14 1_555 1_555
C15 H14 1_555 1_555
C16 C15 1_555 1_555
C17 C16 1_555 1_555
H15 C17 1_555 1_555
C18 C17 1_555 1_555
H16 C18 1_555 1_555
C19 N11 1_555 1_555
H17 C19 1_555 1_555
C20 C16 1_555 1_555
H18 C20 1_555 1_555
C21 N5 1_555 1_555
H19 C21 1_555 1_555
C22 C21 1_555 1_555
H20 C22 1_555 1_555
C23 C22 1_555 1_555
C24 C23 1_555 1_555
H21 C24 1_555 1_555
C25 N5 1_555 1_555
H22 C25 1_555 1_555
C26 N6 1_555 1_555
H23 C26 1_555 1_555
C27 H24 1_555 1_555
C28 C27 1_555 1_555
C29 C28 1_555 1_555
H25 C29 1_555 1_555
C30 C29 1_555 1_555
H26 C30 1_555 1_555
C31 N12 1_555 1_555
H27 C31 1_555 1_555
C32 C28 1_555 1_555
H28 C32 1_555 1_555
C33 N14 1_555 1_555
C34 N13 1_555 1_555
H29 C34 1_555 1_555
C35 C34 1_555 1_555
H30 C35 1_555 1_555
C36 C35 1_555 1_555
C37 C36 1_555 1_555
H31 C37 1_555 1_555
C38 N13 1_555 1_555
H32 C38 1_555 1_555
C39 N18 1_555 1_555
H33 C39 1_555 1_555
C40 H34 1_555 1_555
C41 C40 1_555 1_555
H35 C41 1_555 1_555
C42 C41 1_555 1_555
C43 C42 1_555 1_555
H36 C43 1_555 1_555
C44 N16 1_555 1_555
H37 C44 1_555 1_555
C45 C42 1_555 1_555
H38 C45 1_555 1_555
C46 N15 1_555 1_555
H39 C46 1_555 1_555
C47 C46 1_555 1_555
H40 C47 1_555 1_555
C48 C47 1_555 1_555
C49 C48 1_555 1_555
H41 C49 1_555 1_555
C50 N15 1_555 1_555
H42 C50 1_555 1_555
C51 N20 1_555 1_555
H43 C51 1_555 1_555
C52 H44 1_555 1_555
C53 C52 1_555 1_555
C54 C53 1_555 1_555
H45 C54 1_555 1_555
C55 C54 1_555 1_555
H46 C55 1_555 1_555
C56 N22 1_555 1_555
H47 C56 1_555 1_555
C57 C53 1_555 1_555
H48 C57 1_555 1_555
C58 N24 1_555 1_555
C59 H49 1_555 1_555
C60 C59 1_555 1_555
H50 C60 1_555 1_555
C61 C60 1_555 1_555
C62 C61 1_555 1_555
H51 C62 1_555 1_555
C63 N26 1_555 1_555
H52 C63 1_555 1_555
C64 N27 1_555 1_555
C65 N23 1_555 1_555
H53 C65 1_555 1_555
C66 C65 1_555 1_555
H54 C66 1_555 1_555
C67 C66 1_555 1_555
C68 C67 1_555 1_555
H55 C68 1_555 1_555
C69 N23 1_555 1_555
H56 C69 1_555 1_555
C70 N28 1_555 1_555
H57 C70 1_555 1_555
C71 C61 1_555 1_555
H58 C71 1_555 1_555
C72 N17 1_555 1_555
O1 H59 1_555 1_555
H60 O1 1_555 1_555
O2 H61 1_555 1_555
H62 O2 1_555 1_555
N3A C3A 1_555 1_555
N10A N10 1_555 1_555
C3A H4A 1_555 1_555
C4A C3A 1_555 1_555
H5A C4A 1_555 1_555
C5A C4A 1_555 1_555
C6A N10A 1_555 1_555
H6A C6A 1_555 1_555
C7A C5A 1_555 1_555
H7A C7A 1_555 1_555
C8A N3A 1_555 1_555
H8A C8A 1_555 1_555
Co1A N3A 1_555 1_555
Co2A N22A 1_555 1_555
Co3A N12A 1_555 1_555
N1A Co1A 1_555 1_555
N2A Co1A 1_555 1_555
N4A Co1A 1_555 1_555
N5A Co1A 1_555 1_555
N6A N7A 1_555 1_555
N7A C27A 1_555 1_555
N8A N9A 1_555 1_555
N9A C15A 1_555 1_555
N11A C18A 1_555 1_555
N12A C30A 1_555 1_555
N13A Co3A 1_555 1_555
N14A Co3A 1_555 1_555
N15A Co3A 1_555 1_555
N16A C40A 1_555 1_555
N17A Co3A 1_555 1_555
N18A N19A 1_555 1_555
N19A C45A 1_555 1_555
N20A N21A 1_555 1_555
N21A C52A 1_555 1_555
N22A C55A 1_555 1_555
N23A Co2A 1_555 1_555
N24A Co2A 1_555 1_555
N25A Co2A 1_555 1_555
H1A N25A 1_555 1_555
H2A N25A 1_555 1_555
H3A N25A 1_555 1_555
N26A C59A 1_555 1_555
N27A Co2A 1_555 1_555
N28A N29A 1_555 1_555
N29A C71A 1_555 1_555
S1A C1A 1_555 1_555
S2A C2A 1_555 1_555
S3A C33A 1_555 1_555
S4A C58A 1_555 1_555
S5A C64A 1_555 1_555
S6A C72A 1_555 1_555
C1A N1A 1_555 1_555
C2A N2A 1_555 1_555
C9A N4A 1_555 1_555
H9A C9A 1_555 1_555
C10A C9A 1_555 1_555
H10A C10A 1_555 1_555
C11A C10A 1_555 1_555
C12A C11A 1_555 1_555
H11A C12A 1_555 1_555
C13A N4A 1_555 1_555
H12A C13A 1_555 1_555
C14A N8A 1_555 1_555
H13A C14A 1_555 1_555
C15A H14A 1_555 1_555
C16A C15A 1_555 1_555
C17A C16A 1_555 1_555
H15A C17A 1_555 1_555
C18A C17A 1_555 1_555
H16A C18A 1_555 1_555
C19A N11A 1_555 1_555
H17A C19A 1_555 1_555
C20A C16A 1_555 1_555
H18A C20A 1_555 1_555
C21A N5A 1_555 1_555
H19A C21A 1_555 1_555
C22A C21A 1_555 1_555
H20A C22A 1_555 1_555
C23A C22A 1_555 1_555
C24A C23A 1_555 1_555
H21A C24A 1_555 1_555
C25A N5A 1_555 1_555
H22A C25A 1_555 1_555
C26A N6A 1_555 1_555
H23A C26A 1_555 1_555
C27A H24A 1_555 1_555
C28A C27A 1_555 1_555
C29A C28A 1_555 1_555
H25A C29A 1_555 1_555
C30A C29A 1_555 1_555
H26A C30A 1_555 1_555
C31A N12A 1_555 1_555
H27A C31A 1_555 1_555
C32A C28A 1_555 1_555
H28A C32A 1_555 1_555
C33A N14A 1_555 1_555
C34A N13A 1_555 1_555
H29A C34A 1_555 1_555
C35A C34A 1_555 1_555
H30A C35A 1_555 1_555
C36A C35A 1_555 1_555
C37A C36A 1_555 1_555
H31A C37A 1_555 1_555
C38A N13A 1_555 1_555
H32A C38A 1_555 1_555
C39A N18A 1_555 1_555
H33A C39A 1_555 1_555
C40A H34A 1_555 1_555
C41A C40A 1_555 1_555
H35A C41A 1_555 1_555
C42A C41A 1_555 1_555
C43A C42A 1_555 1_555
H36A C43A 1_555 1_555
C44A N16A 1_555 1_555
H37A C44A 1_555 1_555
C45A C42A 1_555 1_555
H38A C45A 1_555 1_555
C46A N15A 1_555 1_555
H39A C46A 1_555 1_555
C47A C46A 1_555 1_555
H40A C47A 1_555 1_555
C48A C47A 1_555 1_555
C49A C48A 1_555 1_555
H41A C49A 1_555 1_555
C50A N15A 1_555 1_555
H42A C50A 1_555 1_555
C51A N20A 1_555 1_555
H43A C51A 1_555 1_555
C52A H44A 1_555 1_555
C53A C52A 1_555 1_555
C54A C53A 1_555 1_555
H45A C54A 1_555 1_555
C55A C54A 1_555 1_555
H46A C55A 1_555 1_555
C56A N22A 1_555 1_555
H47A C56A 1_555 1_555
C57A C53A 1_555 1_555
H48A C57A 1_555 1_555
C58A N24A 1_555 1_555
C59A H49A 1_555 1_555
C60A C59A 1_555 1_555
H50A C60A 1_555 1_555
C61A C60A 1_555 1_555
C62A C61A 1_555 1_555
H51A C62A 1_555 1_555
C63A N26A 1_555 1_555
H52A C63A 1_555 1_555
C64A N27A 1_555 1_555
C65A N23A 1_555 1_555
H53A C65A 1_555 1_555
C66A C65A 1_555 1_555
H54A C66A 1_555 1_555
C67A C66A 1_555 1_555
C68A C67A 1_555 1_555
H55A C68A 1_555 1_555
C69A N23A 1_555 1_555
H56A C69A 1_555 1_555
C70A N28A 1_555 1_555
H57A C70A 1_555 1_555
C71A C61A 1_555 1_555
H58A C71A 1_555 1_555
C72A N17A 1_555 1_555
Co1_2 N11 1_555 1_555
Co1A_2 N11A 1_555 1_555
Co2_2 N26 1_555 1_555
Co2A_2 N26A 1_555 1_555
Co3_2 N16 1_555 1_555
Co3A_2 N16A 1_555 1_555
N11_2 Co1 1_555 1_555
N11A_2 Co1A 1_555 1_555
N16_2 Co3 1_555 1_555
N16A_2 Co3A 1_555 1_555
N26_2 Co2 1_555 1_555
N26A_2 Co2A 1_555 1_555
C7 C8 1_555 1_555
C11 C14 1_555 1_555
C12 C13 1_555 1_555
C19 C20 1_555 1_555
C23 C26 1_555 1_555
C24 C25 1_555 1_555
C31 C32 1_555 1_555
C36 C39 1_555 1_555
C37 C38 1_555 1_555
C43 C44 1_555 1_555
C48 C51 1_555 1_555
C49 C50 1_555 1_555
C56 C57 1_555 1_555
C62 C63 1_555 1_555
C67 C70 1_555 1_555
C68 C69 1_555 1_555
C5A C6A 1_555 1_555
C7A C8A 1_555 1_555
C11A C14A 1_555 1_555
C12A C13A 1_555 1_555
C19A C20A 1_555 1_555
C23A C26A 1_555 1_555
C24A C25A 1_555 1_555
C31A C32A 1_555 1_555
C36A C39A 1_555 1_555
C37A C38A 1_555 1_555
C43A C44A 1_555 1_555
C48A C51A 1_555 1_555
C49A C50A 1_555 1_555
C56A C57A 1_555 1_555
C62A C63A 1_555 1_555
C67A C70A 1_555 1_555
C68A C69A 1_555 1_555

#END
