
#######################################################################
#
#                 Cambridge Crystallographic Data Centre
#                                CCDC 
#
#######################################################################
#
# If this CIF has been generated from an entry in the Cambridge 
# Structural Database, then it will include bibliographic, chemical, 
# crystal, experimental, refinement or atomic coordinate data resulting 
# from the CCDC's data processing and validation procedures.
#
#######################################################################

data_GOKTOR
_symmetry_cell_setting           triclinic
_symmetry_space_group_name_H-M   'P -1'
_symmetry_Int_Tables_number      2
_space_group_name_Hall           '-P 1'
loop_
_symmetry_equiv_pos_site_id
_symmetry_equiv_pos_as_xyz
1 x,y,z
2 -x,-y,-z
_cell_length_a                   8.2330(12)
_cell_length_b                   9.9191(11)
_cell_length_c                   11.4987(17)
_cell_angle_alpha                112.585(8)
_cell_angle_beta                 95.539(7)
_cell_angle_gamma                109.126(8)
_cell_volume                     792.099
loop_
_atom_site_label
_atom_site_type_symbol
_atom_site_fract_x
_atom_site_fract_y
_atom_site_fract_z
Na1 Na 0.39729(8) 0.12194(7) 0.44703(6)
O1 O 0.34790(15) -0.16291(13) 0.40947(11)
O2 O 0.31492(15) -0.05982(13) 0.20921(11)
N1 N 0.21567(18) 0.05019(16) 0.59721(13)
N2 N -0.07754(18) -0.08084(16) 0.61058(13)
N3 N 0.46659(18) 0.32368(16) 0.35469(13)
N4 N 0.53936(18) 0.59307(16) 0.39223(13)
F1 F 0.17479(16) -0.34642(13) 0.50909(10)
F2 F -0.06676(14) -0.42739(15) 0.36607(13)
F3 F 0.12309(14) -0.53040(11) 0.31833(10)
F4 F -0.08779(14) -0.34583(14) -0.01430(10)
F5 F 0.16461(16) -0.29266(13) -0.06166(10)
F6 F 0.06403(17) -0.11058(13) 0.01014(10)
C1 C 0.1068(2) -0.39360(19) 0.38344(16)
C2 C 0.2012(2) -0.26701(19) 0.33817(16)
C3 C 0.1092(2) -0.28674(19) 0.21966(16)
H1 H -0.0015 -0.3703 0.1770
C4 C 0.1785(2) -0.18498(19) 0.16360(16)
C5 C 0.0773(2) -0.2343(2) 0.02444(17)
C6 C 0.0386(2) -0.00818(18) 0.55761(15)
C7 C -0.0067(2) -0.0970(2) 0.71174(16)
H2 H -0.0824 -0.1470 0.7512
C8 C 0.1749(2) -0.0421(2) 0.75963(17)
H3 H 0.2225 -0.0543 0.8298
C9 C 0.2821(2) 0.0316(2) 0.69852(16)
H4 H 0.4048 0.0699 0.7286
C10 C 0.5019(2) 0.47713(18) 0.43015(16)
C11 C 0.5407(2) 0.5498(2) 0.26739(17)
H5 H 0.5654 0.6270 0.2371
C12 C 0.5072(2) 0.3959(2) 0.18122(17)
H6 H 0.5094 0.3679 0.0946
C13 C 0.4701(2) 0.2854(2) 0.23042(17)
H7 H 0.4466 0.1803 0.1749
N1A N -0.21567(18) -0.05019(16) 0.40279(13)
N2A N 0.07754(18) 0.08084(16) 0.38942(13)
C6A C -0.0386(2) 0.00818(18) 0.44239(15)
C7A C 0.0067(2) 0.0970(2) 0.28826(16)
H2A H 0.0824 0.1470 0.2488
C8A C -0.1749(2) 0.0421(2) 0.24037(17)
H3A H -0.2225 0.0543 0.1702
C9A C -0.2821(2) -0.0316(2) 0.30148(16)
H4A H -0.4048 -0.0699 0.2714
N3A N 0.53341(18) 0.67632(16) 0.64531(13)
N4A N 0.46064(18) 0.40693(16) 0.60777(13)
C10A C 0.4981(2) 0.52287(18) 0.56985(16)
C11A C 0.4593(2) 0.4502(2) 0.73261(17)
H5A H 0.4346 0.3730 0.7629
C12A C 0.4928(2) 0.6041(2) 0.81878(17)
H6A H 0.4906 0.6321 0.9054
C13A C 0.5299(2) 0.7146(2) 0.76958(17)
H7A H 0.5534 0.8197 0.8251
Na1A Na -0.39729(8) -0.12194(7) 0.55297(6)
O1A O -0.34790(15) 0.16291(13) 0.59053(11)
O2A O -0.31492(15) 0.05982(13) 0.79079(11)
F1A F -0.17479(16) 0.34642(13) 0.49091(10)
F2A F 0.06676(14) 0.42739(15) 0.63393(13)
F3A F -0.12309(14) 0.53040(11) 0.68167(10)
F4A F 0.08779(14) 0.34583(14) 1.01430(10)
F5A F -0.16461(16) 0.29266(13) 1.06166(10)
F6A F -0.06403(17) 0.11058(13) 0.98986(10)
C1A C -0.1068(2) 0.39360(19) 0.61656(16)
C2A C -0.2012(2) 0.26701(19) 0.66183(16)
C3A C -0.1092(2) 0.28674(19) 0.78034(16)
H1A H 0.0015 0.3703 0.8230
C4A C -0.1785(2) 0.18498(19) 0.83640(16)
C5A C -0.0773(2) 0.2343(2) 0.97556(17)
Na1_2 Na -0.60271(8) 0.12194(7) 0.44703(6)
Na1A_2 Na 0.60271(8) -0.12194(7) 0.55297(6)
Na1A_3 Na 0.60271(8) 0.87806(7) 0.55297(6)
O1_2 O -0.65210(15) -0.16291(13) 0.40947(11)
O1A_2 O 0.65210(15) 0.16291(13) 0.59053(11)
N3A_2 N -0.46659(18) -0.32368(16) 0.64531(13)
N4_2 N -0.46064(18) -0.40693(16) 0.39223(13)
loop_
_geom_bond_atom_site_label_1
_geom_bond_atom_site_label_2
_geom_bond_site_symmetry_1
_geom_bond_site_symmetry_2
Na1 O1 1_555 1_555
O1 C2 1_555 1_555
O2 Na1 1_555 1_555
N1 Na1 1_555 1_555
N2 C6 1_555 1_555
N3 Na1 1_555 1_555
N4 C10 1_555 1_555
F1 C1 1_555 1_555
F2 C1 1_555 1_555
F3 C1 1_555 1_555
F4 C5 1_555 1_555
F5 C5 1_555 1_555
F6 C5 1_555 1_555
C1 C2 1_555 1_555
C2 C3 1_555 1_555
C3 H1 1_555 1_555
C4 O2 1_555 1_555
C5 C4 1_555 1_555
C6 N1 1_555 1_555
C7 N2 1_555 1_555
H2 C7 1_555 1_555
C8 C7 1_555 1_555
H3 C8 1_555 1_555
C9 N1 1_555 1_555
H4 C9 1_555 1_555
C10 N3 1_555 1_555
C11 N4 1_555 1_555
H5 C11 1_555 1_555
C12 C11 1_555 1_555
H6 C12 1_555 1_555
C13 N3 1_555 1_555
H7 C13 1_555 1_555
N1A C6A 1_555 1_555
N2A Na1 1_555 1_555
C6A C6 1_555 1_555
C7A N2A 1_555 1_555
H2A C7A 1_555 1_555
C8A C7A 1_555 1_555
H3A C8A 1_555 1_555
C9A N1A 1_555 1_555
H4A C9A 1_555 1_555
N3A C10A 1_555 1_555
N4A Na1 1_555 1_555
C10A C10 1_555 1_555
C11A N4A 1_555 1_555
H5A C11A 1_555 1_555
C12A C11A 1_555 1_555
H6A C12A 1_555 1_555
C13A N3A 1_555 1_555
H7A C13A 1_555 1_555
Na1A N2 1_555 1_555
O1A Na1A 1_555 1_555
O2A Na1A 1_555 1_555
F1A C1A 1_555 1_555
F2A C1A 1_555 1_555
F3A C1A 1_555 1_555
F4A C5A 1_555 1_555
F5A C5A 1_555 1_555
F6A C5A 1_555 1_555
C1A C2A 1_555 1_555
C2A O1A 1_555 1_555
C3A C2A 1_555 1_555
H1A C3A 1_555 1_555
C4A O2A 1_555 1_555
C5A C4A 1_555 1_555
Na1_2 O1A 1_555 1_555
Na1A_2 O1 1_555 1_555
Na1A_3 N4 1_555 1_555
O1_2 Na1A 1_555 1_555
O1A_2 Na1 1_555 1_555
N3A_2 Na1A 1_555 1_555
N4_2 Na1A 1_555 1_555
C3 C4 1_555 1_555
C8 C9 1_555 1_555
C12 C13 1_555 1_555
N1A Na1A 1_555 1_555
N2A C6A 1_555 1_555
C8A C9A 1_555 1_555
N3A Na1A_3 1_555 1_555
N4A C10A 1_555 1_555
C12A C13A 1_555 1_555
C3A C4A 1_555 1_555
Na1_2 O1_2 1_555 1_555
Na1A_2 O1A_2 1_555 1_555

#END
