
#######################################################################
#
#                 Cambridge Crystallographic Data Centre
#                                CCDC 
#
#######################################################################
#
# If this CIF has been generated from an entry in the Cambridge 
# Structural Database, then it will include bibliographic, chemical, 
# crystal, experimental, refinement or atomic coordinate data resulting 
# from the CCDC's data processing and validation procedures.
#
#######################################################################

data_GOKYEL
_symmetry_cell_setting           monoclinic
_symmetry_space_group_name_H-M   'C 2/m'
_symmetry_Int_Tables_number      12
_space_group_name_Hall           '-C 2y'
loop_
_symmetry_equiv_pos_site_id
_symmetry_equiv_pos_as_xyz
1 x,y,z
2 -x,y,-z
3 1/2+x,1/2+y,z
4 1/2-x,1/2+y,-z
5 -x,-y,-z
6 x,-y,z
7 1/2-x,1/2-y,-z
8 1/2+x,1/2-y,z
_cell_length_a                   18.8588(6)
_cell_length_b                   7.1857(2)
_cell_length_c                   9.3731(3)
_cell_angle_alpha                90
_cell_angle_beta                 102.938(3)
_cell_angle_gamma                90
_cell_volume                     1237.94
loop_
_atom_site_label
_atom_site_type_symbol
_atom_site_fract_x
_atom_site_fract_y
_atom_site_fract_z
C1 C 0.30584(12) 0.0000 0.7134(3)
C2 C 0.23386(13) 0.0000 0.6078(3)
C3 C 0.46730(13) -0.5000 1.2152(3)
C4 C 0.54218(15) -0.5000 1.3092(3)
N1 N 0.31276(11) 0.0000 0.8580(2)
N2 N 0.38506(11) 0.0000 0.9107(2)
N3 N 0.41810(11) 0.0000 0.8018(2)
N4 N 0.36884(11) 0.0000 0.6738(2)
N5 N 0.43066(8) -0.3457(2) 1.16896(17)
N6 N 0.36690(7) -0.4085(2) 1.08949(17)
O1 O 0.26319(12) 0.0000 1.1743(2)
O2 O 0.39750(12) 0.0000 1.3802(2)
F1 F 0.19396(7) 0.1452(2) 0.62493(17)
F2 F 0.23955(10) 0.0000 0.47154(18)
F3 F 0.55355(7) -0.64742(19) 1.39652(16)
F4 F 0.59306(10) -0.5000 1.2334(2)
Na1 Na 0.2500 -0.2500 1.0000
Na2 Na 0.45090(5) 0.0000 1.17372(10)
H1 H 0.299(2) 0.0000 1.244(4)
H2 H 0.228(2) 0.0000 1.208(4)
H3 H 0.400(3) -0.076(6) 1.457(4)
N1C N 0.18724(11) -0.5000 1.1420(2)
N3A N 0.58190(11) 0.0000 1.1982(2)
N5E N 0.43066(8) -0.6543(2) 1.16896(17)
N5E_2 N 0.43066(8) 0.3457(2) 1.16896(17)
N6E N 0.36690(7) -0.5915(2) 1.08949(17)
N6F N 0.13310(7) -0.0915(2) 0.91051(17)
O1C O 0.23681(12) -0.5000 0.8257(2)
F1E F 0.19396(7) -0.1452(2) 0.62493(17)
F3E F 0.55355(7) -0.35258(19) 1.39652(16)
Na1C Na 0.2500 0.2500 1.0000
Na1C_2 Na 0.2500 -0.7500 1.0000
Na2A Na 0.54910(5) 0.0000 0.82628(10)
Na2_2 Na 0.45090(5) -1.0000 1.17372(10)
H1C H 0.201(2) -0.5000 0.756(4)
H2C H 0.272(2) -0.5000 0.792(4)
H3E H 0.400(3) 0.076(6) 1.457(4)
loop_
_geom_bond_atom_site_label_1
_geom_bond_atom_site_label_2
_geom_bond_site_symmetry_1
_geom_bond_site_symmetry_2
C1 C2 1_555 1_555
C2 F1 1_555 1_555
C3 C4 1_555 1_555
C4 F3 1_555 1_555
N1 C1 1_555 1_555
N2 N1 1_555 1_555
N3 N2 1_555 1_555
N4 C1 1_555 1_555
N5 C3 1_555 1_555
N6 N5 1_555 1_555
O1 Na1 1_555 1_555
O2 Na2 1_555 1_555
F2 C2 1_555 1_555
F4 C4 1_555 1_555
Na1 N1 1_555 1_555
Na2 N2 1_555 1_555
H1 O1 1_555 1_555
H2 O1 1_555 1_555
H3 O2 1_555 1_555
N1C Na1 1_555 1_555
N3A Na2 1_555 1_555
N5E C3 1_555 1_555
N5E_2 Na2 1_555 1_555
N6E N6 1_555 1_555
N6F Na1 1_555 1_555
O1C Na1 1_555 1_555
F1E C2 1_555 1_555
F3E C4 1_555 1_555
Na1C N1 1_555 1_555
Na1C_2 N1C 1_555 1_555
Na2A N3 1_555 1_555
Na2_2 N5E 1_555 1_555
H1C O1C 1_555 1_555
H2C O1C 1_555 1_555
H3E O2 1_555 1_555
N3 N4 1_555 1_555
N5 Na2 1_555 1_555
N6 Na1 1_555 1_555
O1 Na1C 1_555 1_555
N5E N6E 1_555 1_555
N6E Na1C_2 1_555 1_555
O1C Na1C_2 1_555 1_555

#END
