
#######################################################################
#
#                 Cambridge Crystallographic Data Centre
#                                CCDC 
#
#######################################################################
#
# If this CIF has been generated from an entry in the Cambridge 
# Structural Database, then it will include bibliographic, chemical, 
# crystal, experimental, refinement or atomic coordinate data resulting 
# from the CCDC's data processing and validation procedures.
#
#######################################################################

data_GOLBIS
_symmetry_cell_setting           orthorhombic
_symmetry_space_group_name_H-M   'P c a b'
_symmetry_Int_Tables_number      61
_space_group_name_Hall           '-P 2bc 2ac'
loop_
_symmetry_equiv_pos_site_id
_symmetry_equiv_pos_as_xyz
1 x,y,z
2 -x,1/2-y,1/2+z
3 1/2+x,-y,1/2-z
4 1/2-x,1/2+y,-z
5 -x,-y,-z
6 x,1/2+y,1/2-z
7 1/2-x,y,1/2+z
8 1/2+x,1/2-y,z
_cell_length_a                   19.264(4)
_cell_length_b                   12.340(8)
_cell_length_c                   13.591(4)
_cell_angle_alpha                90
_cell_angle_beta                 90
_cell_angle_gamma                90
_cell_volume                     3230.82
loop_
_atom_site_label
_atom_site_type_symbol
_atom_site_fract_x
_atom_site_fract_y
_atom_site_fract_z
Cu1 Cu 0.58125(8) 0.0542(1) 0.7121(1)
Cu2 Cu 0.69315(7) 0.2670(1) 0.7507(1)
Br1 Br 0.599270 0.2469(1) 0.63379(9)
Br2 Br 0.68147(7) -0.0470(1) 0.6656(1)
N1 N 0.5992(5) 0.1202(7) 0.8507(6)
N2 N 0.6685(4) 0.1571(7) 0.8588(6)
C1 C 0.4945(7) -0.035(1) 0.668(1)
C2 C 0.4733(5) 0.045(1) 0.7285(9)
C3 C 0.4611(6) 0.032(1) 0.8364(9)
C4 C 0.4789(6) 0.126(1) 0.8999(8)
C5 C 0.5547(6) 0.1608(9) 0.9092(7)
C6 C 0.5704(5) 0.239(1) 0.9856(9)
C7 C 0.6856(6) -0.001(1) 0.9649(9)
C8 C 0.7090(6) 0.0974(9) 0.9112(8)
C9 C 0.7843(6) 0.123(1) 0.9093(9)
C10 C 0.8176(7) 0.167(2) 0.832(1)
C11 C 0.7998(6) 0.236(1) 0.761(1)
C12 C 0.7892(7) 0.266(1) 0.679(1)
H1 H 0.495(4) 0.001(7) 0.607(6)
H2 H 0.504(4) -0.099(7) 0.686(7)
H3 H 0.462(4) 0.126(7) 0.708(7)
H4 H 0.414(5) 0.014(7) 0.837(7)
H5 H 0.488(4) -0.038(7) 0.861(6)
H6 H 0.456(5) 0.187(7) 0.888(6)
H7 H 0.463(4) 0.118(7) 0.964(6)
H8 H 0.533(4) 0.286(7) 1.009(6)
H9 H 0.605(5) 0.299(9) 0.964(8)
H10 H 0.601(5) 0.2229(8) 1.017(8)
H11 H 0.734(6) -0.019(7) 1.000(8)
H12 H 0.662(6) 0.021(8) 1.025(8)
H13 H 0.652(5) -0.072(8) 0.932(7)
H14 H 0.810(5) 0.066(9) 0.930(8)
H15 H 0.795(5) 0.162(8) 0.960(8)
H16 H 0.878(5) 0.138(8) 0.838(8)
H17 H 0.805(5) 0.110(8) 0.765(8)
H18 H 0.812(6) 0.304(9) 0.821(9)
H19 H 0.779(6) 0.215(8) 0.638(8)
H20 H 0.794(6) 0.338(8) 0.665(8)
Br2E Br 0.68147(7) 0.4530(1) 0.8344(1)
Cu2E Cu 0.69315(7) -0.2330(1) 0.7493(1)
loop_
_geom_bond_atom_site_label_1
_geom_bond_atom_site_label_2
_geom_bond_site_symmetry_1
_geom_bond_site_symmetry_2
Cu1 Br1 1_555 1_555
Cu2 Br1 1_555 1_555
Br2 Cu1 1_555 1_555
N1 Cu1 1_555 1_555
N2 Cu2 1_555 1_555
C1 Cu1 1_555 1_555
C2 Cu1 1_555 1_555
C3 C2 1_555 1_555
C4 C3 1_555 1_555
C5 N1 1_555 1_555
C6 C5 1_555 1_555
C7 C8 1_555 1_555
C8 N2 1_555 1_555
C9 C8 1_555 1_555
C10 C9 1_555 1_555
C11 Cu2 1_555 1_555
C12 Cu2 1_555 1_555
H1 C1 1_555 1_555
H2 C1 1_555 1_555
H3 C2 1_555 1_555
H4 C3 1_555 1_555
H5 C3 1_555 1_555
H6 C4 1_555 1_555
H7 C4 1_555 1_555
H8 C6 1_555 1_555
H9 C6 1_555 1_555
H10 C6 1_555 1_555
H11 C7 1_555 1_555
H12 C7 1_555 1_555
H13 C7 1_555 1_555
H14 C9 1_555 1_555
H15 C9 1_555 1_555
H16 C10 1_555 1_555
H17 C10 1_555 1_555
H18 C11 1_555 1_555
H19 C12 1_555 1_555
H20 C12 1_555 1_555
Br2E Cu2 1_555 1_555
Cu2E Br2 1_555 1_555
N1 N2 1_555 1_555
C1 C2 1_555 1_555
C4 C5 1_555 1_555
C10 C11 1_555 1_555
C11 C12 1_555 1_555

#END
