
#######################################################################
#
#                 Cambridge Crystallographic Data Centre
#                                CCDC 
#
#######################################################################
#
# If this CIF has been generated from an entry in the Cambridge 
# Structural Database, then it will include bibliographic, chemical, 
# crystal, experimental, refinement or atomic coordinate data resulting 
# from the CCDC's data processing and validation procedures.
#
#######################################################################

data_GOLKOI
_symmetry_cell_setting           triclinic
_symmetry_space_group_name_H-M   'P -1'
_symmetry_Int_Tables_number      2
_space_group_name_Hall           '-P 1'
loop_
_symmetry_equiv_pos_site_id
_symmetry_equiv_pos_as_xyz
1 x,y,z
2 -x,-y,-z
_cell_length_a                   7.5254(7)
_cell_length_b                   10.0538(10)
_cell_length_c                   13.5073(13)
_cell_angle_alpha                106.460(2)
_cell_angle_beta                 91.185(2)
_cell_angle_gamma                103.046(2)
_cell_volume                     950.843
loop_
_atom_site_label
_atom_site_type_symbol
_atom_site_fract_x
_atom_site_fract_y
_atom_site_fract_z
Li1 Li 0.3218(5) 0.6867(3) 0.6127(3)
Li2 Li 0.1872(5) 0.3690(4) 0.4990(3)
Li3 Li 0.8564(5) 0.0990(3) 0.5599(3)
Li4 Li 0.4303(5) 0.1686(4) 0.5415(3)
O1 O 0.48354(19) 0.59653(14) 0.66451(11)
H1 H 0.0361(13) 0.716(3) 0.6978(19)
O2 O 0.39750(18) 0.36195(14) 0.58709(11)
O3 O 0.78336(18) 0.44455(14) 0.52670(10)
O4 O 0.94919(18) 0.29830(14) 0.55201(11)
O5 O 0.20599(18) 1.05156(15) 0.57359(10)
O6 O -0.02639(18) 1.04904(15) 0.67106(11)
O7 O 0.60652(17) 1.08648(14) 0.60341(10)
O8 O 0.48228(19) 0.86333(14) 0.60088(11)
O9 O 0.1425(2) 0.7081(2) 0.71036(12)
O10 O 0.1786(2) 0.24140(16) 0.35725(13)
H2 H 0.2810(17) 0.269(3) 0.3365(19)
H3 H 0.155(4) 0.1522(4) 0.345(2)
C1 C 0.4978(3) 0.4711(2) 0.65084(15)
C2 C 0.6375(3) 0.4503(2) 0.72328(15)
C3 C 0.6002(3) 0.4721(2) 0.82590(17)
H4 H 0.4949 0.5017 0.8469
C4 C 0.7155(4) 0.4511(3) 0.89736(17)
H5 H 0.6876 0.4655 0.9658
C5 C 0.8727(4) 0.4085(2) 0.86684(18)
H6 H 0.9518 0.3948 0.9148
C6 C 0.9123(3) 0.3864(2) 0.76557(16)
H7 H 1.0179 0.3567 0.7455
C7 C 0.7972(3) 0.40758(19) 0.69230(15)
C8 C 0.8474(2) 0.3829(2) 0.58303(15)
C9 C 0.1401(3) 1.05967(19) 0.65956(15)
C10 C 0.2681(3) 1.0844(2) 0.75287(15)
C11 C 0.2166(3) 1.1396(2) 0.85110(17)
H8 H 0.1030 1.1615 0.8579
C12 C 0.3293(4) 1.1626(3) 0.93858(18)
H9 H 0.2924 1.1998 1.0038
C13 C 0.4977(4) 1.1299(3) 0.92891(18)
H10 H 0.5747 1.1450 0.9878
C14 C 0.5521(3) 1.0751(2) 0.83213(17)
H11 H 0.6654 1.0525 0.8262
C15 C 0.4401(3) 1.0531(2) 0.74352(15)
C16 C 0.5114(2) 0.9964(2) 0.64110(15)
C17 C 0.1858(3) 0.7394(3) 0.81807(18)
H12 H 0.2974 0.8148 0.8391
H13 H 0.2091 0.6552 0.8322
C18 C 0.0380(4) 0.7851(3) 0.8815(2)
H14 H 0.0126 0.8675 0.8671
H15 H 0.0772 0.8085 0.9538
H16 H -0.0708 0.7087 0.8644
Li1A Li 0.6782(5) 0.3133(3) 0.3873(3)
Li2A Li 0.8128(5) 0.6310(4) 0.5010(3)
Li2_2 Li 1.1872(5) 0.3690(4) 0.4990(3)
Li3A Li 0.1436(5) 0.9010(3) 0.4401(3)
Li3_2 Li -0.1436(5) 1.0990(3) 0.5599(3)
Li3_3 Li 0.8564(5) 1.0990(3) 0.5599(3)
Li4_2 Li 0.4303(5) 1.1686(4) 0.5415(3)
Li4A Li 0.5697(5) 0.8314(4) 0.4585(3)
O3A O 0.21664(18) 0.55545(14) 0.47330(10)
O4_2 O -0.05081(18) 0.29830(14) 0.55201(11)
O5A O 0.79401(18) -0.05156(15) 0.42641(10)
O5_2 O 0.20599(18) 0.05156(15) 0.57359(10)
O6_2 O 0.97361(18) 0.04904(15) 0.67106(11)
O7_2 O 0.60652(17) 0.08648(14) 0.60341(10)
O8A O 0.51772(19) 0.13667(14) 0.39912(11)
loop_
_geom_bond_atom_site_label_1
_geom_bond_atom_site_label_2
_geom_bond_site_symmetry_1
_geom_bond_site_symmetry_2
Li1 O1 1_555 1_555
Li2 O2 1_555 1_555
Li3 O4 1_555 1_555
Li4 O2 1_555 1_555
O1 C1 1_555 1_555
H1 O9 1_555 1_555
O2 C1 1_555 1_555
O3 C8 1_555 1_555
O4 C8 1_555 1_555
O5 C9 1_555 1_555
O6 C9 1_555 1_555
O7 C16 1_555 1_555
O8 Li1 1_555 1_555
O9 Li1 1_555 1_555
O10 Li2 1_555 1_555
H2 O10 1_555 1_555
H3 O10 1_555 1_555
C1 C2 1_555 1_555
C2 C3 1_555 1_555
C3 H4 1_555 1_555
C4 C3 1_555 1_555
H5 C4 1_555 1_555
C5 C4 1_555 1_555
H6 C5 1_555 1_555
C6 C5 1_555 1_555
H7 C6 1_555 1_555
C7 C2 1_555 1_555
C8 C7 1_555 1_555
C9 C10 1_555 1_555
C10 C11 1_555 1_555
C11 H8 1_555 1_555
C12 C11 1_555 1_555
H9 C12 1_555 1_555
C13 C12 1_555 1_555
H10 C13 1_555 1_555
C14 C13 1_555 1_555
H11 C14 1_555 1_555
C15 C10 1_555 1_555
C16 O8 1_555 1_555
C17 O9 1_555 1_555
H12 C17 1_555 1_555
H13 C17 1_555 1_555
C18 C17 1_555 1_555
H14 C18 1_555 1_555
H15 C18 1_555 1_555
H16 C18 1_555 1_555
Li1A O3 1_555 1_555
Li2A O3 1_555 1_555
Li2_2 O4 1_555 1_555
Li3A O5 1_555 1_555
Li3_2 O6 1_555 1_555
Li3_3 O7 1_555 1_555
Li4_2 O5 1_555 1_555
Li4A O8 1_555 1_555
O3A Li1 1_555 1_555
O4_2 Li2 1_555 1_555
O5A Li3 1_555 1_555
O5_2 Li4 1_555 1_555
O6_2 Li3 1_555 1_555
O7_2 Li3 1_555 1_555
O8A Li4 1_555 1_555
Li2 O3A 1_555 1_555
Li4 O7_2 1_555 1_555
O7 Li4_2 1_555 1_555
C6 C7 1_555 1_555
C14 C15 1_555 1_555
C15 C16 1_555 1_555
Li1A O8A 1_555 1_555

#END
