
#######################################################################
#
#                 Cambridge Crystallographic Data Centre
#                                CCDC 
#
#######################################################################
#
# If this CIF has been generated from an entry in the Cambridge 
# Structural Database, then it will include bibliographic, chemical, 
# crystal, experimental, refinement or atomic coordinate data resulting 
# from the CCDC's data processing and validation procedures.
#
#######################################################################

data_GOLLIE
_symmetry_cell_setting           triclinic
_symmetry_space_group_name_H-M   'P -1'
_symmetry_Int_Tables_number      2
_space_group_name_Hall           '-P 1'
loop_
_symmetry_equiv_pos_site_id
_symmetry_equiv_pos_as_xyz
1 x,y,z
2 -x,-y,-z
_cell_length_a                   8.1153(2)
_cell_length_b                   9.0404(2)
_cell_length_c                   10.0759(2)
_cell_angle_alpha                83.1600(10)
_cell_angle_beta                 81.9940(10)
_cell_angle_gamma                77.4230(10)
_cell_volume                     711.434
loop_
_atom_site_label
_atom_site_type_symbol
_atom_site_fract_x
_atom_site_fract_y
_atom_site_fract_z
Mn1 Mn 0.5000 1.0000 0.5000
Mn2 Mn 0.67310(2) 0.63019(2) 0.56849(2)
N1 N 0.49468(13) 0.58131(12) 0.75859(11)
O1 O 0.69813(11) 0.93862(10) 0.34097(9)
O2 O 0.81744(11) 0.69304(9) 0.38176(9)
O3 O 0.43984(10) 0.77516(9) 0.49460(9)
O4 O 0.30799(13) 0.58516(10) 0.49762(11)
O5 O 0.66602(11) 0.85585(9) 0.64449(9)
O6 O 0.83746(14) 0.78614(12) 0.80527(11)
O7 O 0.89280(13) 0.53570(12) 0.67585(11)
H1 H 0.908(3) 0.601(3) 0.718(2)
H2 H 0.980(3) 0.482(2) 0.659(2)
C1 C 0.80320(14) 0.81979(13) 0.31196(12)
C2 C 0.92106(19) 0.83031(17) 0.18292(15)
H3 H 1.0210 0.7471 0.1864
H4 H 0.9572 0.9281 0.1719
H5 H 0.8615 0.8225 0.1066
C3 C 0.30526(14) 0.72234(13) 0.49728(11)
C4 C 0.13774(16) 0.83251(15) 0.50462(17)
H6 H 0.0509 0.7845 0.4793
H7 H 0.1475 0.9232 0.4427
H8 H 0.1053 0.8619 0.5967
C5 C 0.72135(15) 0.87587(13) 0.75330(12)
C6 C 0.6347(2) 1.01701(16) 0.82145(15)
H9 H 0.7028 1.0322 0.8898
H10 H 0.5218 1.0051 0.8644
H11 H 0.6232 1.1054 0.7544
C7 C 0.50630(18) 0.43829(15) 0.81537(14)
H12 H 0.6018 0.3634 0.7860
C8 C 0.3863(2) 0.39423(17) 0.91456(15)
H13 H 0.3998 0.2916 0.9527
C9 C 0.2468(2) 0.5017(2) 0.95705(15)
H14 H 0.1618 0.4746 1.0246
C10 C 0.23278(19) 0.6499(2) 0.89948(15)
H15 H 0.1372 0.7262 0.9261
C11 C 0.36003(17) 0.68556(15) 0.80251(13)
H16 H 0.3516 0.7883 0.7655
Mn2A Mn 0.32690(2) 0.36981(2) 0.43151(2)
N1A N 0.50532(13) 0.41869(12) 0.24141(11)
O1A O 0.30187(11) 0.06138(10) 0.65903(9)
O2A O 0.18256(11) 0.30696(9) 0.61824(9)
O3A O 0.56016(10) 0.22484(9) 0.50540(9)
O4A O 0.69201(13) 0.41484(10) 0.50238(11)
O5A O 0.33398(11) 0.14415(9) 0.35551(9)
O6A O 0.16254(14) 0.21386(12) 0.19473(11)
O7A O 0.10720(13) 0.46430(12) 0.32415(11)
H1A H 0.092(3) 0.399(3) 0.282(2)
H2A H 0.020(3) 0.518(2) 0.341(2)
C1A C 0.19680(14) 0.18021(13) 0.68804(12)
C2A C 0.07894(19) 0.16969(17) 0.81708(15)
H3A H -0.0210 0.2529 0.8136
H4A H 0.0428 0.0719 0.8281
H5A H 0.1385 0.1775 0.8934
C3A C 0.69474(14) 0.27766(13) 0.50272(11)
C4A C 0.86226(16) 0.16749(15) 0.49538(17)
H6A H 0.9491 0.2155 0.5207
H7A H 0.8525 0.0768 0.5573
H8A H 0.8947 0.1381 0.4033
C5A C 0.27865(15) 0.12413(13) 0.24670(12)
C6A C 0.3653(2) -0.01701(16) 0.17855(15)
H9A H 0.2972 -0.0322 0.1102
H10A H 0.4782 -0.0051 0.1356
H11A H 0.3768 -0.1054 0.2456
C7A C 0.49370(18) 0.56171(15) 0.18463(14)
H12A H 0.3982 0.6366 0.2140
C8A C 0.6137(2) 0.60577(17) 0.08544(15)
H13A H 0.6002 0.7084 0.0473
C9A C 0.7532(2) 0.4983(2) 0.04295(15)
H14A H 0.8382 0.5254 -0.0246
C10A C 0.76722(19) 0.3501(2) 0.10052(15)
H15A H 0.8628 0.2738 0.0739
C11A C 0.63997(17) 0.31444(15) 0.19749(13)
H16A H 0.6484 0.2117 0.2345
Mn1_2 Mn 0.5000 0.0000 0.5000
O1A_2 O 0.30187(11) 1.06138(10) 0.65903(9)
O3A_2 O 0.56016(10) 1.22484(9) 0.50540(9)
O5A_2 O 0.33398(11) 1.14415(9) 0.35551(9)
loop_
_geom_bond_atom_site_label_1
_geom_bond_atom_site_label_2
_geom_bond_site_symmetry_1
_geom_bond_site_symmetry_2
Mn1 O1 1_555 1_555
Mn2 N1 1_555 1_555
N1 C7 1_555 1_555
O1 C1 1_555 1_555
O2 Mn2 1_555 1_555
O3 Mn1 1_555 1_555
O4 C3 1_555 1_555
O5 Mn1 1_555 1_555
O6 C5 1_555 1_555
O7 Mn2 1_555 1_555
H1 O7 1_555 1_555
H2 O7 1_555 1_555
C1 O2 1_555 1_555
C2 C1 1_555 1_555
H3 C2 1_555 1_555
H4 C2 1_555 1_555
H5 C2 1_555 1_555
C3 O3 1_555 1_555
C4 C3 1_555 1_555
H6 C4 1_555 1_555
H7 C4 1_555 1_555
H8 C4 1_555 1_555
C5 O5 1_555 1_555
C6 C5 1_555 1_555
H9 C6 1_555 1_555
H10 C6 1_555 1_555
H11 C6 1_555 1_555
C7 H12 1_555 1_555
C8 C7 1_555 1_555
H13 C8 1_555 1_555
C9 C8 1_555 1_555
H14 C9 1_555 1_555
C10 C9 1_555 1_555
H15 C10 1_555 1_555
C11 N1 1_555 1_555
H16 C11 1_555 1_555
Mn2A O4 1_555 1_555
N1A Mn2A 1_555 1_555
O1A C1A 1_555 1_555
O2A Mn2A 1_555 1_555
O3A Mn2A 1_555 1_555
O4A Mn2 1_555 1_555
O5A Mn2A 1_555 1_555
O6A C5A 1_555 1_555
O7A Mn2A 1_555 1_555
H1A O7A 1_555 1_555
H2A O7A 1_555 1_555
C1A O2A 1_555 1_555
C2A C1A 1_555 1_555
H3A C2A 1_555 1_555
H4A C2A 1_555 1_555
H5A C2A 1_555 1_555
C3A O3A 1_555 1_555
C4A C3A 1_555 1_555
H6A C4A 1_555 1_555
H7A C4A 1_555 1_555
H8A C4A 1_555 1_555
C5A O5A 1_555 1_555
C6A C5A 1_555 1_555
H9A C6A 1_555 1_555
H10A C6A 1_555 1_555
H11A C6A 1_555 1_555
C7A N1A 1_555 1_555
H12A C7A 1_555 1_555
C8A C7A 1_555 1_555
H13A C8A 1_555 1_555
C9A C8A 1_555 1_555
H14A C9A 1_555 1_555
C10A C9A 1_555 1_555
H15A C10A 1_555 1_555
C11A N1A 1_555 1_555
H16A C11A 1_555 1_555
Mn1_2 O1A 1_555 1_555
O1A_2 Mn1 1_555 1_555
O3A_2 Mn1 1_555 1_555
O5A_2 Mn1 1_555 1_555
Mn2 O3 1_555 1_555
Mn2 O5 1_555 1_555
C10 C11 1_555 1_555
O3A Mn1_2 1_555 1_555
O4A C3A 1_555 1_555
O5A Mn1_2 1_555 1_555
C10A C11A 1_555 1_555

#END
