
#######################################################################
#
#                 Cambridge Crystallographic Data Centre
#                                CCDC 
#
#######################################################################
#
# If this CIF has been generated from an entry in the Cambridge 
# Structural Database, then it will include bibliographic, chemical, 
# crystal, experimental, refinement or atomic coordinate data resulting 
# from the CCDC's data processing and validation procedures.
#
#######################################################################

data_GOLLEA
_symmetry_cell_setting           monoclinic
_symmetry_space_group_name_H-M   'P 21'
_symmetry_Int_Tables_number      4
_space_group_name_Hall           'P 2yb'
loop_
_symmetry_equiv_pos_site_id
_symmetry_equiv_pos_as_xyz
1 x,y,z
2 -x,1/2+y,-z
_cell_length_a                   17.3212(8)
_cell_length_b                   8.3276(4)
_cell_length_c                   17.9892(9)
_cell_angle_alpha                90
_cell_angle_beta                 111.9220(10)
_cell_angle_gamma                90
_cell_volume                     2407.21
loop_
_atom_site_label
_atom_site_type_symbol
_atom_site_fract_x
_atom_site_fract_y
_atom_site_fract_z
Ag1 Ag 0.75126(4) 0.92170(8) 0.66539(4)
Ag2 Ag 1.28664(4) 1.16008(8) 0.83951(4)
S1 S 0.48537(13) 0.6106(2) 0.39843(11)
S2 S 0.70883(14) 0.1370(3) 0.50989(13)
S3 S 0.87888(13) 0.8395(3) 0.57896(11)
S4 S 0.98074(15) 1.4557(3) 0.63390(13)
S5 S 1.26732(14) 0.9554(3) 0.97727(12)
S6 S 1.50944(12) 0.5189(2) 1.10930(10)
C1 C 0.6022(5) 0.7398(10) 0.5345(5)
H1 H 0.6165 0.8041 0.4994
C2 C 0.6205(5) 0.6592(11) 0.6604(4)
H2 H 0.6476 0.6664 0.7157
C3 C 0.5577(5) 0.5476(11) 0.6295(4)
H3 H 0.5439 0.4817 0.6644
C4 C 0.5385(4) 0.6290(9) 0.5035(4)
C5 C 0.5376(4) 0.4394(10) 0.3829(4)
C6 C 0.5144(6) 0.3749(11) 0.3062(5)
H4 H 0.4693 0.4190 0.2648
C7 C 0.6182(6) 0.1894(11) 0.3530(5)
H5 H 0.6499 0.1066 0.3444
C8 C 0.6367(5) 0.2479(10) 0.4303(5)
C9 C 0.7437(5) 0.2735(11) 0.5918(5)
C10 C 0.7595(5) 0.4342(12) 0.5864(5)
H6 H 0.7470 0.4790 0.5358
C11 C 0.8098(6) 0.4528(12) 0.7220(5)
H7 H 0.8335 0.5122 0.7689
C12 C 0.7945(7) 0.2953(13) 0.7278(6)
H8 H 0.8075 0.2501 0.7783
C13 C 0.9403(5) 0.8865(12) 0.8096(5)
H9 H 0.9137 0.9031 0.8454
C14 C 1.0260(5) 0.8708(12) 0.8392(5)
H10 H 1.0550 0.8791 0.8942
C15 C 1.0230(5) 0.8344(10) 0.7146(5)
H11 H 1.0498 0.8135 0.6795
C16 C 0.9368(4) 0.8538(9) 0.6836(4)
C17 C 0.9033(5) 1.0293(10) 0.5479(4)
C18 C 0.8819(5) 1.0516(13) 0.4657(5)
H12 H 0.8618 0.9656 0.4307
C19 C 0.9189(6) 1.3123(11) 0.4899(5)
H13 H 0.9223 1.4156 0.4717
C20 C 0.9441(5) 1.2865(10) 0.5709(5)
C21 C 1.0315(5) 1.3703(10) 0.7313(5)
C22 C 1.0953(5) 1.2623(10) 0.7464(5)
H14 H 1.1069 1.2210 0.7036
C23 C 1.1213(6) 1.2794(12) 0.8795(5)
H15 H 1.1523 1.2516 0.9324
C24 C 1.0555(6) 1.3868(12) 0.8632(5)
H16 H 1.0417 1.4251 0.9052
C25 C 1.2462(5) 0.7973(10) 0.7668(4)
H17 H 1.2494 0.8395 0.7201
C26 C 1.2225(5) 0.6416(12) 0.7678(5)
H18 H 1.2094 0.5805 0.7214
C27 C 1.2343(5) 0.6644(12) 0.8969(4)
H19 H 1.2307 0.6208 0.9431
C28 C 1.2576(5) 0.8241(10) 0.8968(4)
C29 C 1.3406(5) 0.8566(10) 1.0612(4)
C30 C 1.3495(6) 0.9116(12) 1.1368(5)
H20 H 1.3137 0.9905 1.1416
C31 C 1.4568(6) 0.7389(10) 1.1921(5)
H21 H 1.4997 0.6982 1.2368
C32 C 1.4450(4) 0.6786(10) 1.1169(4)
C33 C 1.4678(4) 0.4957(9) 1.0030(4)
C34 C 1.4053(4) 0.3855(9) 0.9680(4)
H22 H 1.3844 0.3268 1.0003
C35 C 1.4059(5) 0.4527(10) 0.8449(4)
H23 H 1.3853 0.4417 0.7894
C36 C 1.4683(6) 0.5617(11) 0.8818(5)
H24 H 1.4888 0.6227 0.8499
N1 N 0.6438(4) 0.7571(8) 0.6140(4)
N2 N 0.5165(4) 0.5320(8) 0.5509(4)
N3 N 0.5964(4) 0.3711(8) 0.4459(4)
N4 N 0.5549(5) 0.2517(9) 0.2907(4)
N5 N 0.7608(5) 0.2017(10) 0.6623(4)
N6 N 0.7921(5) 0.5283(9) 0.6505(5)
N7 N 0.8949(4) 0.8786(8) 0.7320(4)
N8 N 1.0683(4) 0.8446(9) 0.7925(4)
N9 N 0.9360(4) 1.1440(8) 0.6009(3)
N10 N 0.8900(5) 1.1960(10) 0.4368(4)
N11 N 1.0115(5) 1.4365(10) 0.7885(4)
N12 N 1.1410(4) 1.2151(9) 0.8203(4)
N13 N 1.2656(4) 0.8929(9) 0.8334(4)
N14 N 1.2174(5) 0.5738(8) 0.8327(4)
N15 N 1.3880(4) 0.7385(8) 1.0507(3)
N16 N 1.4079(6) 0.8540(10) 1.2018(4)
N17 N 1.5012(5) 0.5845(8) 0.9617(4)
N18 N 1.3741(4) 0.3610(8) 0.8894(4)
Ag1_2 Ag 0.75126(4) -0.07830(8) 0.66539(4)
Ag2_2 Ag 1.28664(4) 0.16008(8) 0.83951(4)
N5_2 N 0.7608(5) 1.2017(10) 0.6623(4)
N18_2 N 1.3741(4) 1.3610(8) 0.8894(4)
Cl1 Cl 1.27735(13) 1.1903(2) 0.64374(11)
O1 O 1.3026(8) 1.261(2) 0.5897(8)
O2 O 1.2474(10) 1.3007(18) 0.6833(7)
O3 O 1.2083(12) 1.0959(19) 0.6072(9)
O4 O 1.3402(6) 1.1048(12) 0.7035(6)
Cl2 Cl 0.74429(13) 0.8844(3) 0.87389(11)
O5 O 0.8042(8) 0.9636(13) 0.9382(5)
O6 O 0.6756(7) 0.8397(14) 0.8909(8)
O7 O 0.7803(5) 0.7412(11) 0.8557(6)
O8 O 0.7200(8) 0.9829(12) 0.8052(5)
O9 O 0.9316(6) 0.5689(11) 0.9654(6)
H25 H 0.882(4) 0.611(12) 0.937(6)
H26 H 0.926(7) 0.461(2) 0.963(9)
O10 O 0.9201(7) 1.2365(11) 0.9550(7)
H27 H 0.886(7) 1.152(11) 0.949(10)
H28 H 0.972(4) 1.200(17) 0.986(9)
loop_
_geom_bond_atom_site_label_1
_geom_bond_atom_site_label_2
_geom_bond_site_symmetry_1
_geom_bond_site_symmetry_2
Ag1 N1 1_555 1_555
Ag2 N12 1_555 1_555
S1 C4 1_555 1_555
S2 C8 1_555 1_555
S3 C16 1_555 1_555
S4 C20 1_555 1_555
S5 C28 1_555 1_555
S6 C32 1_555 1_555
C1 H1 1_555 1_555
C2 H2 1_555 1_555
C3 C2 1_555 1_555
H3 C3 1_555 1_555
C4 C1 1_555 1_555
C5 S1 1_555 1_555
C6 C5 1_555 1_555
H4 C6 1_555 1_555
C7 H5 1_555 1_555
C8 C7 1_555 1_555
C9 S2 1_555 1_555
C10 C9 1_555 1_555
H6 C10 1_555 1_555
C11 H7 1_555 1_555
C12 C11 1_555 1_555
H8 C12 1_555 1_555
C13 H9 1_555 1_555
C14 C13 1_555 1_555
H10 C14 1_555 1_555
C15 H11 1_555 1_555
C16 C15 1_555 1_555
C17 S3 1_555 1_555
C18 C17 1_555 1_555
H12 C18 1_555 1_555
C19 H13 1_555 1_555
C20 C19 1_555 1_555
C21 S4 1_555 1_555
C22 C21 1_555 1_555
H14 C22 1_555 1_555
C23 H15 1_555 1_555
C24 C23 1_555 1_555
H16 C24 1_555 1_555
C25 H17 1_555 1_555
C26 C25 1_555 1_555
H18 C26 1_555 1_555
C27 H19 1_555 1_555
C28 C27 1_555 1_555
C29 S5 1_555 1_555
C30 C29 1_555 1_555
H20 C30 1_555 1_555
C31 H21 1_555 1_555
C32 C31 1_555 1_555
C33 S6 1_555 1_555
C34 C33 1_555 1_555
H22 C34 1_555 1_555
C35 H23 1_555 1_555
C36 C35 1_555 1_555
H24 C36 1_555 1_555
N1 C1 1_555 1_555
N2 C3 1_555 1_555
N3 C5 1_555 1_555
N4 C6 1_555 1_555
N5 C9 1_555 1_555
N6 C10 1_555 1_555
N7 Ag1 1_555 1_555
N8 C14 1_555 1_555
N9 C17 1_555 1_555
N10 C18 1_555 1_555
N11 C21 1_555 1_555
N12 C22 1_555 1_555
N13 Ag2 1_555 1_555
N14 C26 1_555 1_555
N15 C29 1_555 1_555
N16 C30 1_555 1_555
N17 C33 1_555 1_555
N18 C34 1_555 1_555
Cl1 O1 1_555 1_555
O2 Cl1 1_555 1_555
O3 Cl1 1_555 1_555
O4 Cl1 1_555 1_555
Cl2 O5 1_555 1_555
O6 Cl2 1_555 1_555
O7 Cl2 1_555 1_555
O8 Cl2 1_555 1_555
O9 H25 1_555 1_555
H26 O9 1_555 1_555
O10 H27 1_555 1_555
H28 O10 1_555 1_555
Ag1_2 N5 1_555 1_555
Ag2_2 N18 1_555 1_555
N5_2 Ag1 1_555 1_555
N18_2 Ag2 1_555 1_555
C2 N1 1_555 1_555
C4 N2 1_555 1_555
C7 N4 1_555 1_555
C8 N3 1_555 1_555
C11 N6 1_555 1_555
C12 N5 1_555 1_555
C13 N7 1_555 1_555
C15 N8 1_555 1_555
C16 N7 1_555 1_555
C19 N10 1_555 1_555
C20 N9 1_555 1_555
C23 N12 1_555 1_555
C24 N11 1_555 1_555
C25 N13 1_555 1_555
C27 N14 1_555 1_555
C28 N13 1_555 1_555
C31 N16 1_555 1_555
C32 N15 1_555 1_555
C35 N18 1_555 1_555
C36 N17 1_555 1_555

#END
