
#######################################################################
#
#                 Cambridge Crystallographic Data Centre
#                                CCDC 
#
#######################################################################
#
# If this CIF has been generated from an entry in the Cambridge 
# Structural Database, then it will include bibliographic, chemical, 
# crystal, experimental, refinement or atomic coordinate data resulting 
# from the CCDC's data processing and validation procedures.
#
#######################################################################

data_GOLMUQ
_symmetry_cell_setting           monoclinic
_symmetry_space_group_name_H-M   'P 21/c'
_symmetry_Int_Tables_number      14
_space_group_name_Hall           '-P 2ybc'
loop_
_symmetry_equiv_pos_site_id
_symmetry_equiv_pos_as_xyz
1 x,y,z
2 -x,1/2+y,1/2-z
3 -x,-y,-z
4 x,1/2-y,1/2+z
_cell_length_a                   10.0880(16)
_cell_length_b                   10.430(2)
_cell_length_c                   11.592(2)
_cell_angle_alpha                90
_cell_angle_beta                 99.041(2)
_cell_angle_gamma                90
_cell_volume                     1204.53
loop_
_atom_site_label
_atom_site_type_symbol
_atom_site_fract_x
_atom_site_fract_y
_atom_site_fract_z
Sn1 Sn 0.67183(3) 0.15366(3) 0.10133(2)
O1 O 0.8345(3) 0.2746(3) 0.1623(2)
O2 O 0.6720(3) 0.3482(3) 0.2497(3)
O3 O 0.8140(3) 0.4169(3) 0.5045(2)
O4 O 0.6338(3) 0.5337(3) 0.4559(2)
C1 C 0.8867(4) 0.4597(4) 0.2822(3)
H1 H 0.9542 0.4175 0.3399
C2 C 0.8184(4) 0.5633(3) 0.3471(3)
H2 H 0.8906 0.6163 0.3888
C3 C 0.7305(4) 0.6523(4) 0.2649(4)
H3 H 0.6967 0.7202 0.3095
H4 H 0.6542 0.6049 0.2246
C4 C 0.8092(5) 0.7109(4) 0.1751(4)
H5 H 0.7495 0.7637 0.1209
H6 H 0.8797 0.7655 0.2149
C5 C 0.8706(5) 0.6077(5) 0.1080(4)
H7 H 0.7998 0.5575 0.0630
H8 H 0.9224 0.6475 0.0539
C6 C 0.9609(4) 0.5204(4) 0.1905(4)
H9 H 1.0366 0.5694 0.2296
H10 H 0.9956 0.4531 0.1457
C7 C 0.7883(4) 0.3568(4) 0.2295(3)
C8 C 0.7475(4) 0.5040(3) 0.4394(3)
C9 C 0.5448(4) 0.2734(4) -0.0107(4)
H11 H 0.4773 0.3083 0.0302
H12 H 0.5026 0.2249 -0.0768
H13 H 0.5962 0.3419 -0.0369
C10 C 0.6548(5) 0.0271(4) 0.2389(4)
H14 H 0.5894 0.0594 0.2834
H15 H 0.7401 0.0197 0.2885
H16 H 0.6271 -0.0556 0.2077
Sn1C Sn 0.67183(3) 0.34634(3) 0.60133(2)
O3C O 0.8140(3) 0.0831(3) 0.0045(2)
O4C O 0.6338(3) -0.0337(3) -0.0441(2)
loop_
_geom_bond_atom_site_label_1
_geom_bond_atom_site_label_2
_geom_bond_site_symmetry_1
_geom_bond_site_symmetry_2
Sn1 O1 1_555 1_555
O1 C7 1_555 1_555
O2 Sn1 1_555 1_555
O3 C8 1_555 1_555
O4 C8 1_555 1_555
C1 H1 1_555 1_555
C2 C1 1_555 1_555
H2 C2 1_555 1_555
C3 C2 1_555 1_555
H3 C3 1_555 1_555
H4 C3 1_555 1_555
C4 C3 1_555 1_555
H5 C4 1_555 1_555
H6 C4 1_555 1_555
C5 C4 1_555 1_555
H7 C5 1_555 1_555
H8 C5 1_555 1_555
C6 C1 1_555 1_555
H9 C6 1_555 1_555
H10 C6 1_555 1_555
C7 O2 1_555 1_555
C8 C2 1_555 1_555
C9 Sn1 1_555 1_555
H11 C9 1_555 1_555
H12 C9 1_555 1_555
H13 C9 1_555 1_555
C10 Sn1 1_555 1_555
H14 C10 1_555 1_555
H15 C10 1_555 1_555
H16 C10 1_555 1_555
Sn1C O3 1_555 1_555
O3C Sn1 1_555 1_555
O4C Sn1 1_555 1_555
O4 Sn1C 1_555 1_555
C1 C7 1_555 1_555
C5 C6 1_555 1_555

#END
