
#######################################################################
#
#                 Cambridge Crystallographic Data Centre
#                                CCDC 
#
#######################################################################
#
# If this CIF has been generated from an entry in the Cambridge 
# Structural Database, then it will include bibliographic, chemical, 
# crystal, experimental, refinement or atomic coordinate data resulting 
# from the CCDC's data processing and validation procedures.
#
#######################################################################

data_GOLRUU
_symmetry_cell_setting           cubic
_symmetry_space_group_name_H-M   'P 21 3'
_symmetry_Int_Tables_number      198
_space_group_name_Hall           'P 2ac 2ab 3'
loop_
_symmetry_equiv_pos_site_id
_symmetry_equiv_pos_as_xyz
1 x,y,z
2 1/2-x,-y,1/2+z
3 -x,1/2+y,1/2-z
4 1/2+x,1/2-y,-z
5 z,x,y
6 1/2+z,1/2-x,-y
7 1/2-z,-x,1/2+y
8 -z,1/2+x,1/2-y
9 y,z,x
10 -y,1/2+z,1/2-x
11 1/2+y,1/2-z,-x
12 1/2-y,-z,1/2+x
_cell_length_a                   15.407(4)
_cell_length_b                   15.407(4)
_cell_length_c                   15.407(4)
_cell_angle_alpha                90
_cell_angle_beta                 90
_cell_angle_gamma                90
_cell_volume                     3657.25
loop_
_atom_site_label
_atom_site_type_symbol
_atom_site_fract_x
_atom_site_fract_y
_atom_site_fract_z
Ru1 Ru 0.12654(2) 0.12654(2) 0.12654(2)
N1 N 0.1256(3) 0.2594(2) 0.1147(2)
C1 C 0.1272(3) 0.2902(3) 0.0326(3)
C2 C 0.1303(3) 0.3795(3) 0.0163(3)
H1 H 0.1305 0.4004 -0.0403
C3 C 0.1329(4) 0.4358(3) 0.0855(4)
H2 H 0.1352 0.4953 0.0758
C4 C 0.1321(5) 0.4045(3) 0.1687(4)
H3 H 0.1350 0.4422 0.2157
C5 C 0.1270(4) 0.3162(3) 0.1814(3)
H4 H 0.1244 0.2949 0.2379
N2 N 0.1257(3) 0.1407(2) -0.0058(2)
C6 C 0.1260(3) 0.2233(3) -0.0353(3)
C7 C 0.1243(3) 0.2418(3) -0.1238(3)
H5 H 0.1257 0.2990 -0.1431
C8 C 0.1205(4) 0.1745(4) -0.1819(3)
H6 H 0.1192 0.1855 -0.2413
C9 C 0.1187(5) 0.0924(4) -0.1519(3)
H7 H 0.1156 0.0464 -0.1909
C10 C 0.1214(4) 0.0762(3) -0.0641(3)
H8 H 0.1203 0.0190 -0.0448
N1D N 0.1147(2) 0.1256(3) 0.2594(2)
C1D C 0.0326(3) 0.1272(3) 0.2902(3)
C2D C 0.0163(3) 0.1303(3) 0.3795(3)
H1D H -0.0403 0.1305 0.4004
C3D C 0.0855(4) 0.1329(4) 0.4358(3)
H2D H 0.0758 0.1352 0.4953
C4D C 0.1687(4) 0.1321(5) 0.4045(3)
H3D H 0.2157 0.1350 0.4422
C5D C 0.1814(3) 0.1270(4) 0.3162(3)
H4D H 0.2379 0.1244 0.2949
C6D C -0.0353(3) 0.1260(3) 0.2233(3)
N2D N -0.0058(2) 0.1257(3) 0.1407(2)
N1H N 0.2594(2) 0.1147(2) 0.1256(3)
C1H C 0.2902(3) 0.0326(3) 0.1272(3)
C2H C 0.3795(3) 0.0163(3) 0.1303(3)
H1H H 0.4004 -0.0403 0.1305
C3H C 0.4358(3) 0.0855(4) 0.1329(4)
H2H H 0.4953 0.0758 0.1352
C4H C 0.4045(3) 0.1687(4) 0.1321(5)
H3H H 0.4422 0.2157 0.1350
C5H C 0.3162(3) 0.1814(3) 0.1270(4)
H4H H 0.2949 0.2379 0.1244
C6H C 0.2233(3) -0.0353(3) 0.1260(3)
N2H N 0.1407(2) -0.0058(2) 0.1257(3)
C10H C 0.0762(3) -0.0641(3) 0.1214(4)
C9H C 0.0924(4) -0.1519(3) 0.1187(5)
C8H C 0.1745(4) -0.1819(3) 0.1205(4)
C7H C 0.2418(3) -0.1238(3) 0.1243(3)
H5H H 0.2990 -0.1431 0.1257
H6H H 0.1855 -0.2413 0.1192
H7H H 0.0464 -0.1909 0.1156
H8H H 0.0190 -0.0448 0.1203
C10D C -0.0641(3) 0.1214(4) 0.0762(3)
C9D C -0.1519(3) 0.1187(5) 0.0924(4)
C8D C -0.1819(3) 0.1205(4) 0.1745(4)
C7D C -0.1238(3) 0.1243(3) 0.2418(3)
H5D H -0.1431 0.1257 0.2990
H6D H -0.2413 0.1192 0.1855
H7D H -0.1909 0.1156 0.0464
H8D H -0.0448 0.1203 0.0190
Na1 Na 0.15498(13) 0.65498(13) -0.15498(13)
Al1 Al -0.10331(9) 0.89669(9) -0.10331(9)
O1 O 0.27436(19) 0.6147(2) 0.09373(18)
O2 O 0.39566(18) 0.6081(2) -0.0187(2)
C11 C 0.2470(3) 0.6257(3) 0.0162(3)
C12 C 0.3221(3) 0.6254(3) -0.0518(3)
O3 O 0.17226(19) 0.6362(3) -0.0048(2)
O4 O 0.30673(19) 0.6384(3) -0.1282(2)
O3G O 0.0048(2) 0.67226(19) -0.1362(3)
C11G C -0.0162(3) 0.7470(3) -0.1257(3)
O1G O -0.09373(18) 0.77436(19) -0.1147(2)
Al1C Al 0.39669(9) 0.60331(9) 0.10331(9)
O1K O -0.1147(2) 0.90627(18) -0.22564(19)
O2K O -0.1081(2) 1.0187(2) -0.10434(18)
O1C O -0.22564(19) 0.8853(2) -0.09373(18)
O2C O -0.10434(18) 0.8919(2) 0.0187(2)
O2G O 0.0187(2) 0.89566(18) -0.1081(2)
C12G C 0.0518(3) 0.8221(3) -0.1254(3)
O4G O 0.1282(2) 0.80673(19) -0.1384(3)
O3J O 0.1362(3) 0.5048(2) -0.17226(19)
C11J C 0.1257(3) 0.4838(3) -0.2470(3)
O1J O 0.1147(2) 0.40627(18) -0.27436(19)
Al1B Al 0.10331(9) 0.39669(9) -0.39669(9)
O2J O 0.1081(2) 0.5187(2) -0.39566(18)
C12J C 0.1254(3) 0.5518(3) -0.3221(3)
O4J O 0.1384(3) 0.6282(2) -0.30673(19)
loop_
_geom_bond_atom_site_label_1
_geom_bond_atom_site_label_2
_geom_bond_site_symmetry_1
_geom_bond_site_symmetry_2
Ru1 N1 1_555 1_555
N1 C1 1_555 1_555
C1 C2 1_555 1_555
C2 H1 1_555 1_555
C3 C2 1_555 1_555
H2 C3 1_555 1_555
C4 C3 1_555 1_555
H3 C4 1_555 1_555
C5 N1 1_555 1_555
H4 C5 1_555 1_555
N2 Ru1 1_555 1_555
C6 C1 1_555 1_555
C7 C6 1_555 1_555
H5 C7 1_555 1_555
C8 C7 1_555 1_555
H6 C8 1_555 1_555
C9 C8 1_555 1_555
H7 C9 1_555 1_555
C10 N2 1_555 1_555
H8 C10 1_555 1_555
Na1 O3 1_555 1_555
Al1 O1G 1_555 1_555
O1 C11 1_555 1_555
O2 C12 1_555 1_555
C11 C12 1_555 1_555
C12 O4 1_555 1_555
O3 C11 1_555 1_555
O4 Na1 1_555 1_555
N1D Ru1 1_555 1_555
C1D N1D 1_555 1_555
C2D C1D 1_555 1_555
H1D C2D 1_555 1_555
C3D C2D 1_555 1_555
H2D C3D 1_555 1_555
C4D C3D 1_555 1_555
H3D C4D 1_555 1_555
C5D N1D 1_555 1_555
H4D C5D 1_555 1_555
C6D C1D 1_555 1_555
N2D Ru1 1_555 1_555
N1H Ru1 1_555 1_555
C1H N1H 1_555 1_555
C2H C1H 1_555 1_555
H1H C2H 1_555 1_555
C3H C2H 1_555 1_555
H2H C3H 1_555 1_555
C4H C3H 1_555 1_555
H3H C4H 1_555 1_555
C5H N1H 1_555 1_555
H4H C5H 1_555 1_555
C6H C1H 1_555 1_555
N2H Ru1 1_555 1_555
C10H N2H 1_555 1_555
C9H C10H 1_555 1_555
C8H C9H 1_555 1_555
C7H C6H 1_555 1_555
H5H C7H 1_555 1_555
H6H C8H 1_555 1_555
H7H C9H 1_555 1_555
H8H C10H 1_555 1_555
C10D N2D 1_555 1_555
C9D C10D 1_555 1_555
C8D C9D 1_555 1_555
C7D C6D 1_555 1_555
H5D C7D 1_555 1_555
H6D C8D 1_555 1_555
H7D C9D 1_555 1_555
H8D C10D 1_555 1_555
O3G Na1 1_555 1_555
C11G O3G 1_555 1_555
O1G C11G 1_555 1_555
Al1C O1 1_555 1_555
O1K Al1 1_555 1_555
O2K Al1 1_555 1_555
O1C Al1 1_555 1_555
O2C Al1 1_555 1_555
O2G Al1 1_555 1_555
C12G C11G 1_555 1_555
O4G Na1 1_555 1_555
O3J Na1 1_555 1_555
C11J O3J 1_555 1_555
O1J C11J 1_555 1_555
Al1B O1J 1_555 1_555
O2J Al1B 1_555 1_555
C12J C11J 1_555 1_555
O4J Na1 1_555 1_555
C4 C5 1_555 1_555
N2 C6 1_555 1_555
C9 C10 1_555 1_555
O2 Al1C 1_555 1_555
C4D C5D 1_555 1_555
C6D N2D 1_555 1_555
C4H C5H 1_555 1_555
C6H N2H 1_555 1_555
C8H C7H 1_555 1_555
C8D C7D 1_555 1_555
O2G C12G 1_555 1_555
C12G O4G 1_555 1_555
O2J C12J 1_555 1_555
C12J O4J 1_555 1_555

#END
