
#######################################################################
#
#                 Cambridge Crystallographic Data Centre
#                                CCDC 
#
#######################################################################
#
# If this CIF has been generated from an entry in the Cambridge 
# Structural Database, then it will include bibliographic, chemical, 
# crystal, experimental, refinement or atomic coordinate data resulting 
# from the CCDC's data processing and validation procedures.
#
#######################################################################

data_GOLRII
_symmetry_cell_setting           cubic
_symmetry_space_group_name_H-M   'P 21 3'
_symmetry_Int_Tables_number      198
_space_group_name_Hall           'P 2ac 2ab 3'
loop_
_symmetry_equiv_pos_site_id
_symmetry_equiv_pos_as_xyz
1 x,y,z
2 1/2-x,-y,1/2+z
3 -x,1/2+y,1/2-z
4 1/2+x,1/2-y,-z
5 z,x,y
6 1/2+z,1/2-x,-y
7 1/2-z,-x,1/2+y
8 -z,1/2+x,1/2-y
9 y,z,x
10 -y,1/2+z,1/2-x
11 1/2+y,1/2-z,-x
12 1/2-y,-z,1/2+x
_cell_length_a                   15.5560(12)
_cell_length_b                   15.5560(12)
_cell_length_c                   15.5560(12)
_cell_angle_alpha                90
_cell_angle_beta                 90
_cell_angle_gamma                90
_cell_volume                     3764.38
loop_
_atom_site_label
_atom_site_type_symbol
_atom_site_fract_x
_atom_site_fract_y
_atom_site_fract_z
Ru1 Ru -0.125210(12) -0.125210(12) -0.125210(12)
N1 N -0.12536(14) -0.25758(12) -0.11251(14)
C1 C -0.12637(18) -0.28796(16) -0.03052(17)
C2 C -0.12977(19) -0.37589(19) -0.0131(2)
H1 H -0.1299 -0.3960 0.0445
C3 C -0.1329(2) -0.43348(18) -0.0811(2)
H2 H -0.1355 -0.4936 -0.0706
C4 C -0.1323(2) -0.4024(2) -0.1643(2)
H3 H -0.1348 -0.4409 -0.2117
C5 C -0.1280(2) -0.31458(18) -0.17780(19)
H4 H -0.1269 -0.2937 -0.2352
N2 N -0.12452(15) -0.13835(14) 0.00690(12)
C6 C -0.12469(18) -0.22098(17) 0.03654(16)
C7 C -0.12151(19) -0.23849(18) 0.12476(19)
H5 H -0.1222 -0.2962 0.1448
C8 C -0.1173(2) -0.1706(2) 0.18273(18)
H6 H -0.1150 -0.1814 0.2428
C9 C -0.1165(2) -0.0871(2) 0.15201(18)
H7 H -0.1134 -0.0399 0.1906
C10 C -0.1203(2) -0.07347(19) 0.06419(17)
H8 H -0.1200 -0.0160 0.0434
N1D N -0.11251(14) -0.12536(14) -0.25758(12)
C1D C -0.03052(17) -0.12637(18) -0.28796(16)
C2D C -0.0131(2) -0.12977(19) -0.37589(19)
H1D H 0.0445 -0.1299 -0.3960
C3D C -0.0811(2) -0.1329(2) -0.43348(18)
H2D H -0.0706 -0.1355 -0.4936
C4D C -0.1643(2) -0.1323(2) -0.4024(2)
H3D H -0.2117 -0.1348 -0.4409
C5D C -0.17780(19) -0.1280(2) -0.31458(18)
H4D H -0.2352 -0.1269 -0.2937
C6D C 0.03654(16) -0.12469(18) -0.22098(17)
N2D N 0.00690(12) -0.12452(15) -0.13835(14)
N1H N -0.25758(12) -0.11251(14) -0.12536(14)
C1H C -0.28796(16) -0.03052(17) -0.12637(18)
C2H C -0.37589(19) -0.0131(2) -0.12977(19)
H1H H -0.3960 0.0445 -0.1299
C3H C -0.43348(18) -0.0811(2) -0.1329(2)
H2H H -0.4936 -0.0706 -0.1355
C4H C -0.4024(2) -0.1643(2) -0.1323(2)
H3H H -0.4409 -0.2117 -0.1348
C5H C -0.31458(18) -0.17780(19) -0.1280(2)
H4H H -0.2937 -0.2352 -0.1269
C6H C -0.22098(17) 0.03654(16) -0.12469(18)
N2H N -0.13835(14) 0.00690(12) -0.12452(15)
C10H C -0.07347(19) 0.06419(17) -0.1203(2)
C9H C -0.0871(2) 0.15201(18) -0.1165(2)
C8H C -0.1706(2) 0.18273(18) -0.1173(2)
C7H C -0.23849(18) 0.12476(19) -0.12151(19)
H5H H -0.2962 0.1448 -0.1222
H6H H -0.1814 0.2428 -0.1150
H7H H -0.0399 0.1906 -0.1134
H8H H -0.0160 0.0434 -0.1200
C10D C 0.06419(17) -0.1203(2) -0.07347(19)
C9D C 0.15201(18) -0.1165(2) -0.0871(2)
C8D C 0.18273(18) -0.1173(2) -0.1706(2)
C7D C 0.12476(19) -0.12151(19) -0.23849(18)
H5D H 0.1448 -0.1222 -0.2962
H6D H 0.2428 -0.1150 -0.1814
H7D H 0.1906 -0.1134 -0.0399
H8D H 0.0434 -0.1200 -0.0160
Na1 Na -0.15757(9) -0.65757(9) 0.15757(9)
Ru2 Ru 0.102000(15) -0.898000(15) 0.102000(15)
O1 O -0.26859(13) -0.60960(16) -0.08854(13)
O2 O -0.39548(13) -0.61378(16) 0.02817(12)
C11 C -0.24597(17) -0.62639(19) -0.01114(17)
C12 C -0.32023(18) -0.6294(2) 0.05741(18)
O3 O -0.17107(13) -0.63892(17) 0.01042(14)
O4 O -0.30380(14) -0.64551(17) 0.13281(14)
O3G O -0.01042(14) -0.67107(13) 0.13892(17)
C11G C 0.01114(17) -0.74597(17) 0.12639(19)
O1G O 0.08854(13) -0.76859(13) 0.10960(16)
Ru2C Ru -0.398000(15) -0.602000(15) -0.102000(15)
O1K O 0.10960(16) -0.91146(13) 0.23141(13)
O2K O 0.11378(16) -1.02817(12) 0.10452(13)
O1C O 0.23141(13) -0.89040(16) 0.08854(13)
O2C O 0.10452(13) -0.88622(16) -0.02817(12)
O2G O -0.02817(12) -0.89548(13) 0.11378(16)
C12G C -0.05741(18) -0.82023(18) 0.1294(2)
O4G O -0.13281(14) -0.80380(14) 0.14551(17)
O3J O -0.13892(17) -0.51042(14) 0.17107(13)
C11J C -0.12639(19) -0.48886(17) 0.24597(17)
O1J O -0.10960(16) -0.41146(13) 0.26859(13)
Ru2B Ru -0.102000(15) -0.398000(15) 0.398000(15)
O2J O -0.11378(16) -0.52817(12) 0.39548(13)
C12J C -0.1294(2) -0.55741(18) 0.32023(18)
O4J O -0.14551(17) -0.63281(14) 0.30380(14)
loop_
_geom_bond_atom_site_label_1
_geom_bond_atom_site_label_2
_geom_bond_site_symmetry_1
_geom_bond_site_symmetry_2
Ru1 N1 1_555 1_555
N1 C1 1_555 1_555
C1 C2 1_555 1_555
C2 H1 1_555 1_555
C3 C2 1_555 1_555
H2 C3 1_555 1_555
C4 C3 1_555 1_555
H3 C4 1_555 1_555
C5 N1 1_555 1_555
H4 C5 1_555 1_555
N2 Ru1 1_555 1_555
C6 C1 1_555 1_555
C7 C6 1_555 1_555
H5 C7 1_555 1_555
C8 C7 1_555 1_555
H6 C8 1_555 1_555
C9 C8 1_555 1_555
H7 C9 1_555 1_555
C10 N2 1_555 1_555
H8 C10 1_555 1_555
Na1 O3 1_555 1_555
Ru2 O1G 1_555 1_555
O1 C11 1_555 1_555
O2 C12 1_555 1_555
C11 C12 1_555 1_555
C12 O4 1_555 1_555
O3 C11 1_555 1_555
O4 Na1 1_555 1_555
N1D Ru1 1_555 1_555
C1D N1D 1_555 1_555
C2D C1D 1_555 1_555
H1D C2D 1_555 1_555
C3D C2D 1_555 1_555
H2D C3D 1_555 1_555
C4D C3D 1_555 1_555
H3D C4D 1_555 1_555
C5D N1D 1_555 1_555
H4D C5D 1_555 1_555
C6D C1D 1_555 1_555
N2D Ru1 1_555 1_555
N1H Ru1 1_555 1_555
C1H N1H 1_555 1_555
C2H C1H 1_555 1_555
H1H C2H 1_555 1_555
C3H C2H 1_555 1_555
H2H C3H 1_555 1_555
C4H C3H 1_555 1_555
H3H C4H 1_555 1_555
C5H N1H 1_555 1_555
H4H C5H 1_555 1_555
C6H C1H 1_555 1_555
N2H Ru1 1_555 1_555
C10H N2H 1_555 1_555
C9H C10H 1_555 1_555
C8H C9H 1_555 1_555
C7H C6H 1_555 1_555
H5H C7H 1_555 1_555
H6H C8H 1_555 1_555
H7H C9H 1_555 1_555
H8H C10H 1_555 1_555
C10D N2D 1_555 1_555
C9D C10D 1_555 1_555
C8D C9D 1_555 1_555
C7D C6D 1_555 1_555
H5D C7D 1_555 1_555
H6D C8D 1_555 1_555
H7D C9D 1_555 1_555
H8D C10D 1_555 1_555
O3G Na1 1_555 1_555
C11G O3G 1_555 1_555
O1G C11G 1_555 1_555
Ru2C O1 1_555 1_555
O1K Ru2 1_555 1_555
O2K Ru2 1_555 1_555
O1C Ru2 1_555 1_555
O2C Ru2 1_555 1_555
O2G Ru2 1_555 1_555
C12G C11G 1_555 1_555
O4G Na1 1_555 1_555
O3J Na1 1_555 1_555
C11J O3J 1_555 1_555
O1J C11J 1_555 1_555
Ru2B O1J 1_555 1_555
O2J Ru2B 1_555 1_555
C12J C11J 1_555 1_555
O4J Na1 1_555 1_555
C4 C5 1_555 1_555
N2 C6 1_555 1_555
C9 C10 1_555 1_555
O2 Ru2C 1_555 1_555
C4D C5D 1_555 1_555
C6D N2D 1_555 1_555
C4H C5H 1_555 1_555
C6H N2H 1_555 1_555
C8H C7H 1_555 1_555
C8D C7D 1_555 1_555
O2G C12G 1_555 1_555
C12G O4G 1_555 1_555
O2J C12J 1_555 1_555
C12J O4J 1_555 1_555

#END
