
#######################################################################
#
#                 Cambridge Crystallographic Data Centre
#                                CCDC 
#
#######################################################################
#
# If this CIF has been generated from an entry in the Cambridge 
# Structural Database, then it will include bibliographic, chemical, 
# crystal, experimental, refinement or atomic coordinate data resulting 
# from the CCDC's data processing and validation procedures.
#
#######################################################################

data_GOLSIL
_symmetry_cell_setting           orthorhombic
_symmetry_space_group_name_H-M   'P 21 21 21'
_symmetry_Int_Tables_number      19
_space_group_name_Hall           'P 2ac 2ab'
loop_
_symmetry_equiv_pos_site_id
_symmetry_equiv_pos_as_xyz
1 x,y,z
2 1/2-x,-y,1/2+z
3 1/2+x,1/2-y,-z
4 -x,1/2+y,1/2-z
_cell_length_a                   7.4609(5)
_cell_length_b                   13.3836(10)
_cell_length_c                   16.1104(12)
_cell_angle_alpha                90
_cell_angle_beta                 90
_cell_angle_gamma                90
_cell_volume                     1608.68
loop_
_atom_site_label
_atom_site_type_symbol
_atom_site_fract_x
_atom_site_fract_y
_atom_site_fract_z
Ag1 Ag 0.66834(5) 0.03216(3) 0.09458(3)
S1 S 0.8840(2) 0.12204(10) 0.44265(8)
N1 N 0.6869(7) 0.1465(3) 0.2161(3)
N2 N 0.7505(6) 0.2745(3) 0.3495(3)
C1 C 0.6548(8) 0.2438(4) 0.2100(3)
H1 H 0.6142 0.2699 0.1599
C2 C 0.8466(7) 0.2073(4) 0.5251(3)
C3 C 0.7851(7) 0.1781(4) 0.3532(3)
N3 N 0.8664(7) 0.3676(4) 0.5882(3)
N4 N 0.7851(7) 0.1644(3) 0.5936(3)
C4 C 0.7506(8) 0.1134(4) 0.2878(3)
H2 H 0.7726 0.0454 0.2944
C5 C 0.8901(8) 0.3088(4) 0.5229(3)
H3 H 0.9369 0.3359 0.4744
C6 C 0.7995(9) 0.3245(5) 0.6556(4)
H4 H 0.7774 0.3637 0.7022
C7 C 0.6810(7) 0.3075(3) 0.2775(3)
C8 C 0.7615(10) 0.2233(5) 0.6594(4)
H5 H 0.7188 0.1960 0.7087
S2 S 0.61781(18) 0.43482(9) 0.26829(8)
C9 C 0.7372(7) 0.4874(3) 0.3526(3)
N5 N 0.6445(6) 0.5238(3) 0.4168(2)
C10 C 0.9250(7) 0.5664(4) 0.4765(3)
H6 H 0.9862 0.5941 0.5212
C11 C 0.7399(8) 0.5642(5) 0.4788(3)
H7 H 0.6803 0.5913 0.5242
C12 C 0.9241(7) 0.4920(4) 0.3506(3)
H8 H 0.9848 0.4675 0.3045
N6 N 1.0183(5) 0.5313(4) 0.4140(3)
Ag1A Ag 0.83166(5) -0.03216(3) 0.59458(3)
Ag1C Ag 0.33166(5) 0.53216(3) 0.40542(3)
Ag1C_2 Ag 1.33166(5) 0.53216(3) 0.40542(3)
N4A N 0.7149(7) -0.1644(3) 0.0936(3)
N5C N 0.3555(6) 0.0238(3) 0.0832(2)
N6C N 0.9817(5) 0.0313(4) 0.0860(3)
Cl1 Cl 1.1542(2) 0.32620(10) 0.11613(7)
O1 O 1.1371(8) 0.3228(4) 0.0273(2)
O2 O 1.3161(7) 0.3768(5) 0.1372(4)
O3 O 1.0129(8) 0.3866(6) 0.1508(4)
O4 O 1.1495(15) 0.2304(4) 0.1505(3)
loop_
_geom_bond_atom_site_label_1
_geom_bond_atom_site_label_2
_geom_bond_site_symmetry_1
_geom_bond_site_symmetry_2
Ag1 N1 1_555 1_555
S1 C2 1_555 1_555
N1 C1 1_555 1_555
N2 C3 1_555 1_555
C1 H1 1_555 1_555
C2 N4 1_555 1_555
C3 S1 1_555 1_555
N3 C5 1_555 1_555
N4 C8 1_555 1_555
C4 N1 1_555 1_555
H2 C4 1_555 1_555
C5 C2 1_555 1_555
H3 C5 1_555 1_555
C6 N3 1_555 1_555
H4 C6 1_555 1_555
C7 N2 1_555 1_555
C8 C6 1_555 1_555
H5 C8 1_555 1_555
S2 C7 1_555 1_555
C9 S2 1_555 1_555
N5 C9 1_555 1_555
C10 H6 1_555 1_555
C11 N5 1_555 1_555
H7 C11 1_555 1_555
C12 C9 1_555 1_555
H8 C12 1_555 1_555
N6 C10 1_555 1_555
Cl1 O1 1_555 1_555
O2 Cl1 1_555 1_555
O3 Cl1 1_555 1_555
O4 Cl1 1_555 1_555
Ag1A N4 1_555 1_555
Ag1C N5 1_555 1_555
Ag1C_2 N6 1_555 1_555
N4A Ag1 1_555 1_555
N5C Ag1 1_555 1_555
N6C Ag1 1_555 1_555
C1 C7 1_555 1_555
C3 C4 1_555 1_555
C10 C11 1_555 1_555
C12 N6 1_555 1_555

#END
