
#######################################################################
#
#                 Cambridge Crystallographic Data Centre
#                                CCDC 
#
#######################################################################
#
# If this CIF has been generated from an entry in the Cambridge 
# Structural Database, then it will include bibliographic, chemical, 
# crystal, experimental, refinement or atomic coordinate data resulting 
# from the CCDC's data processing and validation procedures.
#
#######################################################################

data_GOLSUW
_symmetry_cell_setting           triclinic
_symmetry_space_group_name_H-M   'P -1'
_symmetry_Int_Tables_number      2
_space_group_name_Hall           '-P 1'
loop_
_symmetry_equiv_pos_site_id
_symmetry_equiv_pos_as_xyz
1 x,y,z
2 -x,-y,-z
_cell_length_a                   10.321(3)
_cell_length_b                   11.122(3)
_cell_length_c                   12.908(4)
_cell_angle_alpha                67.213(3)
_cell_angle_beta                 76.602(3)
_cell_angle_gamma                76.675(3)
_cell_volume                     1312.42
loop_
_atom_site_label
_atom_site_type_symbol
_atom_site_fract_x
_atom_site_fract_y
_atom_site_fract_z
Cu1 Cu 0.5000 0.0000 0.5000
S1 S 0.60750(10) 0.13642(9) 0.74944(8)
S2 S 0.42947(13) 0.39702(10) 0.69426(11)
S3 S -0.00185(9) 0.78315(9) 0.62689(9)
S4 S 0.02700(10) 1.01392(10) 0.68458(9)
S5 S 0.58105(10) -0.40131(8) 0.77434(7)
S6 S 0.33608(12) -0.34525(10) 0.94441(8)
S7 S 0.15521(18) 0.11517(12) 0.90859(13)
S8 S 0.11321(15) 0.35074(11) 0.97930(11)
N1 N 0.5187(2) 0.0858(2) 0.6070(2)
N2 N 0.4504(3) 0.2109(2) 0.6008(2)
N3 N 0.2075(2) 0.9204(2) 0.5508(2)
N4 N 0.2550(3) 1.0248(2) 0.5561(2)
N5 N 0.5102(3) -0.1771(2) 0.6333(2)
N6 N 0.4134(3) -0.1871(2) 0.7283(2)
N7 N 0.2510(4) 0.1319(3) 1.0804(3)
N8 N 0.2522(4) 0.2173(4) 1.1350(3)
C1 C 0.6013(3) 0.0364(3) 0.6800(3)
H1 H 0.6529 -0.0470 0.6933
C2 C 0.4879(3) 0.2496(3) 0.6710(3)
C3 C 0.3046(4) 0.4799(3) 0.6013(3)
H2 H 0.3478 0.5122 0.5226
H3 H 0.2451 0.4200 0.6088
C4 C 0.2261(4) 0.5940(3) 0.6378(4)
H4 H 0.2884 0.6480 0.6366
H5 H 0.1801 0.5594 0.7154
C5 C 0.1235(4) 0.6790(3) 0.5613(3)
H6 H 0.0789 0.6227 0.5442
H7 H 0.1696 0.7341 0.4901
C6 C 0.0906(3) 0.9029(3) 0.6139(3)
C7 C 0.1716(3) 1.0817(3) 0.6212(3)
H8 H 0.1887 1.1538 0.6326
C8 C 0.6026(3) -0.2808(3) 0.6447(3)
H9 H 0.6739 -0.2882 0.5873
C9 C 0.4384(3) -0.3003(3) 0.8092(3)
C10 C 0.3970(5) -0.2527(4) 1.0086(3)
H10 H 0.3613 -0.2815 1.0893
H11 H 0.4945 -0.2750 1.0011
C11 C 0.3601(5) -0.1024(4) 0.9580(3)
H12 H 0.4071 -0.0620 0.9898
H13 H 0.3898 -0.0730 0.8764
C12 C 0.2129(5) -0.0586(4) 0.9817(4)
H14 H 0.1868 -0.0778 1.0630
H15 H 0.1665 -0.1103 0.9608
C13 C 0.1830(4) 0.1885(4) 0.9971(3)
C14 C 0.1852(4) 0.3311(4) 1.0921(4)
H16 H 0.1762 0.3984 1.1203
Cu1_2 Cu 0.5000 1.0000 0.5000
Cu1_3 Cu 0.5000 -1.0000 0.5000
S1_2 S 0.60750(10) -0.86358(9) 0.74944(8)
S2_2 S 0.42947(13) -0.60298(10) 0.69426(11)
S3_2 S -0.00185(9) -0.21685(9) 0.62689(9)
S4_2 S 0.02700(10) 0.01392(10) 0.68458(9)
S5A S 0.41895(10) 0.40131(8) 0.22566(7)
S6A S 0.66392(12) 0.34525(10) 0.05559(8)
S7A S 0.84479(18) -0.11517(12) 0.09141(13)
S8A S 0.88679(15) -0.35074(11) 0.02070(11)
N1_2 N 0.5187(2) -0.9142(2) 0.6070(2)
N1A N 0.4813(2) -0.0858(2) 0.3930(2)
N2_2 N 0.4504(3) -0.7891(2) 0.6008(2)
N3_2 N 0.2075(2) -0.0796(2) 0.5508(2)
N4_2 N 0.2550(3) 0.0248(2) 0.5561(2)
N4A N 0.7450(3) -0.0248(2) 0.4439(2)
N5A N 0.4898(3) 0.1771(2) 0.3667(2)
N6A N 0.5866(3) 0.1871(2) 0.2717(2)
N7A N 0.7490(4) -0.1319(3) -0.0804(3)
N8A N 0.7478(4) -0.2173(4) -0.1350(3)
C1_2 C 0.6013(3) -0.9636(3) 0.6800(3)
H1_2 H 0.6529 -1.0470 0.6933
C2_2 C 0.4879(3) -0.7504(3) 0.6710(3)
C3_2 C 0.3046(4) -0.5201(3) 0.6013(3)
H2_2 H 0.3478 -0.4878 0.5226
H3_2 H 0.2451 -0.5800 0.6088
C4_2 C 0.2261(4) -0.4060(3) 0.6378(4)
H4_2 H 0.2884 -0.3520 0.6366
H5_2 H 0.1801 -0.4406 0.7154
C5_2 C 0.1235(4) -0.3210(3) 0.5613(3)
H6_2 H 0.0789 -0.3773 0.5442
H7_2 H 0.1696 -0.2659 0.4901
C6_2 C 0.0906(3) -0.0971(3) 0.6139(3)
C7_2 C 0.1716(3) 0.0817(3) 0.6212(3)
H8_2 H 0.1887 0.1538 0.6326
C8A C 0.3974(3) 0.2808(3) 0.3553(3)
H9A H 0.3261 0.2882 0.4127
C9A C 0.5616(3) 0.3003(3) 0.1908(3)
C10A C 0.6030(5) 0.2527(4) -0.0086(3)
H10A H 0.6387 0.2815 -0.0893
H11A H 0.5055 0.2750 -0.0011
C11A C 0.6399(5) 0.1024(4) 0.0420(3)
H12A H 0.5929 0.0620 0.0102
H13A H 0.6102 0.0730 0.1236
C12A C 0.7871(5) 0.0586(4) 0.0183(4)
H14A H 0.8132 0.0778 -0.0630
H15A H 0.8335 0.1103 0.0392
C13A C 0.8170(4) -0.1885(4) 0.0029(3)
C14A C 0.8148(4) -0.3311(4) -0.0921(4)
H16A H 0.8238 -0.3984 -0.1203
Cl1 Cl 0.89564(9) 0.39343(8) 0.71273(7)
O1 O 0.8989(5) 0.4074(5) 0.8153(4)
O2 O 0.8069(6) 0.3095(6) 0.7325(4)
O3 O 1.0235(4) 0.3459(4) 0.6637(4)
O4 O 0.8505(4) 0.5164(4) 0.6350(4)
loop_
_geom_bond_atom_site_label_1
_geom_bond_atom_site_label_2
_geom_bond_site_symmetry_1
_geom_bond_site_symmetry_2
Cu1 N1 1_555 1_555
Cl1 O1 1_555 1_555
S1 C1 1_555 1_555
S2 C2 1_555 1_555
S3 C5 1_555 1_555
S4 C6 1_555 1_555
S5 C8 1_555 1_555
S6 C9 1_555 1_555
S7 C12 1_555 1_555
S8 C13 1_555 1_555
O2 Cl1 1_555 1_555
O3 Cl1 1_555 1_555
O4 Cl1 1_555 1_555
N1 N2 1_555 1_555
N2 C2 1_555 1_555
N3 N4 1_555 1_555
N4 C7 1_555 1_555
N5 Cu1 1_555 1_555
N6 N5 1_555 1_555
N7 N8 1_555 1_555
N8 C14 1_555 1_555
C1 N1 1_555 1_555
H1 C1 1_555 1_555
C2 S1 1_555 1_555
C3 S2 1_555 1_555
H2 C3 1_555 1_555
H3 C3 1_555 1_555
C4 C3 1_555 1_555
H4 C4 1_555 1_555
H5 C4 1_555 1_555
C5 C4 1_555 1_555
H6 C5 1_555 1_555
H7 C5 1_555 1_555
C6 S3 1_555 1_555
C7 S4 1_555 1_555
H8 C7 1_555 1_555
C8 N5 1_555 1_555
H9 C8 1_555 1_555
C9 S5 1_555 1_555
C10 S6 1_555 1_555
H10 C10 1_555 1_555
H11 C10 1_555 1_555
C11 C10 1_555 1_555
H12 C11 1_555 1_555
H13 C11 1_555 1_555
C12 C11 1_555 1_555
H14 C12 1_555 1_555
H15 C12 1_555 1_555
C13 S7 1_555 1_555
C14 S8 1_555 1_555
H16 C14 1_555 1_555
Cu1_2 N4 1_555 1_555
Cu1_3 N1_2 1_555 1_555
S1_2 C1_2 1_555 1_555
S2_2 C2_2 1_555 1_555
S3_2 C5_2 1_555 1_555
S4_2 C6_2 1_555 1_555
S5A C8A 1_555 1_555
S6A C9A 1_555 1_555
S7A C12A 1_555 1_555
S8A C13A 1_555 1_555
N1_2 N2_2 1_555 1_555
N1A Cu1 1_555 1_555
N2_2 C2_2 1_555 1_555
N3_2 N4_2 1_555 1_555
N4_2 Cu1 1_555 1_555
N4A Cu1 1_555 1_555
N5A Cu1 1_555 1_555
N6A N5A 1_555 1_555
N7A N8A 1_555 1_555
N8A C14A 1_555 1_555
C1_2 N1_2 1_555 1_555
H1_2 C1_2 1_555 1_555
C2_2 S1_2 1_555 1_555
C3_2 S2_2 1_555 1_555
H2_2 C3_2 1_555 1_555
H3_2 C3_2 1_555 1_555
C4_2 C3_2 1_555 1_555
H4_2 C4_2 1_555 1_555
H5_2 C4_2 1_555 1_555
C5_2 C4_2 1_555 1_555
H6_2 C5_2 1_555 1_555
H7_2 C5_2 1_555 1_555
C6_2 S3_2 1_555 1_555
C7_2 S4_2 1_555 1_555
H8_2 C7_2 1_555 1_555
C8A N5A 1_555 1_555
H9A C8A 1_555 1_555
C9A S5A 1_555 1_555
C10A S6A 1_555 1_555
H10A C10A 1_555 1_555
H11A C10A 1_555 1_555
C11A C10A 1_555 1_555
H12A C11A 1_555 1_555
H13A C11A 1_555 1_555
C12A C11A 1_555 1_555
H14A C12A 1_555 1_555
H15A C12A 1_555 1_555
C13A S7A 1_555 1_555
C14A S8A 1_555 1_555
H16A C14A 1_555 1_555
N3 C6 1_555 1_555
N6 C9 1_555 1_555
N7 C13 1_555 1_555
N3_2 C6_2 1_555 1_555
N4_2 C7_2 1_555 1_555
N6A C9A 1_555 1_555
N7A C13A 1_555 1_555

#END
