
#######################################################################
#
#                 Cambridge Crystallographic Data Centre
#                                CCDC 
#
#######################################################################
#
# If this CIF has been generated from an entry in the Cambridge 
# Structural Database, then it will include bibliographic, chemical, 
# crystal, experimental, refinement or atomic coordinate data resulting 
# from the CCDC's data processing and validation procedures.
#
#######################################################################

data_GOLSEH
_symmetry_cell_setting           orthorhombic
_symmetry_space_group_name_H-M   'P 21 21 21'
_symmetry_Int_Tables_number      19
_space_group_name_Hall           'P 2ac 2ab'
loop_
_symmetry_equiv_pos_site_id
_symmetry_equiv_pos_as_xyz
1 x,y,z
2 1/2-x,-y,1/2+z
3 1/2+x,1/2-y,-z
4 -x,1/2+y,1/2-z
_cell_length_a                   8.6058(17)
_cell_length_b                   13.283(3)
_cell_length_c                   14.427(3)
_cell_angle_alpha                90
_cell_angle_beta                 90
_cell_angle_gamma                90
_cell_volume                     1649.16
loop_
_atom_site_label
_atom_site_type_symbol
_atom_site_fract_x
_atom_site_fract_y
_atom_site_fract_z
C1 C -0.0508(4) -0.2053(3) -0.1626(2)
H1 H -0.0930 -0.2523 -0.1220
C2 C 0.1052(4) -0.1832(3) -0.1579(2)
H2 H 0.1664 -0.2175 -0.1151
C3 C 0.0800(4) -0.0680(2) -0.2717(2)
H3 H 0.1220 -0.0179 -0.3092
C4 C -0.0769(3) -0.09132(19) -0.27999(17)
C5 C -0.0896(3) -0.02147(18) -0.45961(16)
C6 C -0.1241(3) 0.0527(2) -0.52408(19)
H4 H -0.2004 0.1002 -0.5111
C7 C 0.0635(3) -0.01070(19) -0.61954(18)
H5 H 0.1173 -0.0104 -0.6754
C8 C 0.1012(3) -0.08186(17) -0.55179(16)
C9 C 0.2770(3) -0.22349(19) -0.46662(18)
C10 C 0.2059(3) -0.3441(2) -0.3656(2)
H6 H 0.1422 -0.3976 -0.3486
C11 C 0.3206(3) -0.3139(2) -0.3051(2)
H7 H 0.3333 -0.3481 -0.2494
C12 C 0.3926(3) -0.19087(18) -0.40623(16)
H8 H 0.4554 -0.1369 -0.4228
N1 N -0.1436(3) -0.15964(18) -0.22535(16)
N2 N 0.1714(3) -0.1153(3) -0.2117(2)
N3 N 0.0230(3) -0.08933(16) -0.47270(15)
N4 N -0.0477(3) 0.05616(17) -0.60502(15)
N5 N 0.4141(3) -0.23623(15) -0.32480(15)
N6 N 0.1823(3) -0.30004(19) -0.44708(19)
O1 O -0.4787(8) -0.2974(3) -0.0814(3)
O2 O -0.4958(4) -0.4547(2) -0.0180(2)
O3 O -0.4102(5) -0.4340(4) -0.1700(2)
O4 O -0.2564(4) -0.3861(4) -0.0482(3)
S1 S 0.25736(8) -0.16408(5) -0.57611(4)
S2 S -0.20448(9) -0.02965(6) -0.35777(5)
Cl1 Cl -0.40948(11) -0.39149(5) -0.08083(5)
Ag1 Ag -0.41100(3) -0.176968(16) -0.224067(14)
N4A N -0.4523(3) -0.05616(17) -0.10502(15)
N5_2 N -0.5859(3) -0.23623(15) -0.32480(15)
Ag1_2 Ag 0.58900(3) -0.176968(16) -0.224067(14)
Ag1A Ag -0.08900(3) 0.176968(16) -0.724067(14)
loop_
_geom_bond_atom_site_label_1
_geom_bond_atom_site_label_2
_geom_bond_site_symmetry_1
_geom_bond_site_symmetry_2
C1 H1 1_555 1_555
C2 C1 1_555 1_555
H2 C2 1_555 1_555
C3 H3 1_555 1_555
C4 C3 1_555 1_555
C5 C6 1_555 1_555
C6 H4 1_555 1_555
C7 H5 1_555 1_555
C8 C7 1_555 1_555
C9 C12 1_555 1_555
C10 H6 1_555 1_555
C11 C10 1_555 1_555
H7 C11 1_555 1_555
C12 H8 1_555 1_555
N1 C1 1_555 1_555
N2 C2 1_555 1_555
N3 C5 1_555 1_555
N4 C6 1_555 1_555
N5 C11 1_555 1_555
N6 C9 1_555 1_555
O1 Cl1 1_555 1_555
O2 Cl1 1_555 1_555
O3 Cl1 1_555 1_555
O4 Cl1 1_555 1_555
S1 C8 1_555 1_555
S2 C4 1_555 1_555
Ag1 N1 1_555 1_555
N4A Ag1 1_555 1_555
N5_2 Ag1 1_555 1_555
Ag1_2 N5 1_555 1_555
Ag1A N4 1_555 1_555
C3 N2 1_555 1_555
C4 N1 1_555 1_555
C5 S2 1_555 1_555
C7 N4 1_555 1_555
C8 N3 1_555 1_555
C9 S1 1_555 1_555
C10 N6 1_555 1_555
C12 N5 1_555 1_555
O1 Ag1 1_555 1_555

#END
