
#######################################################################
#
#                 Cambridge Crystallographic Data Centre
#                                CCDC 
#
#######################################################################
#
# If this CIF has been generated from an entry in the Cambridge 
# Structural Database, then it will include bibliographic, chemical, 
# crystal, experimental, refinement or atomic coordinate data resulting 
# from the CCDC's data processing and validation procedures.
#
#######################################################################

data_GOMDES
_symmetry_cell_setting           monoclinic
_symmetry_space_group_name_H-M   'P 21/n'
_symmetry_Int_Tables_number      14
_space_group_name_Hall           '-P 2yn'
loop_
_symmetry_equiv_pos_site_id
_symmetry_equiv_pos_as_xyz
1 x,y,z
2 1/2-x,1/2+y,1/2-z
3 -x,-y,-z
4 1/2+x,1/2-y,1/2+z
_cell_length_a                   11.1129(11)
_cell_length_b                   21.520(2)
_cell_length_c                   12.8719(13)
_cell_angle_alpha                90
_cell_angle_beta                 98.460(2)
_cell_angle_gamma                90
_cell_volume                     3044.81
loop_
_atom_site_label
_atom_site_type_symbol
_atom_site_fract_x
_atom_site_fract_y
_atom_site_fract_z
Cl1 Cl -0.4595(5) -0.6799(3) -0.5104(3)
Cl2 Cl -0.5578(5) -0.5659(3) -0.6014(4)
C1 C -0.4287(11) -0.6043(8) -0.5577(13)
H1 H -0.3817 -0.5807 -0.5015
H2 H -0.3804 -0.6082 -0.6143
P1 P -0.35219(13) -0.08101(7) -0.39816(11)
Cu1 Cu -0.31479(6) -0.00112(3) -0.49993(6)
P2 P -0.36838(13) 0.09603(7) -0.54865(11)
C2 C -0.3307(5) 0.1179(3) -0.6760(4)
C3 C -0.2251(5) -0.1355(3) -0.3782(5)
C4 C -0.3721(5) -0.0659(3) -0.2623(4)
C5 C -0.2733(5) 0.1448(3) -0.4552(4)
C6 C -0.1588(6) 0.1622(3) -0.4724(5)
H3 H -0.1348 0.1538 -0.5372
C7 C -0.3061(6) 0.1576(3) -0.3587(5)
H4 H -0.3825 0.1457 -0.3445
C8 C -0.3251(5) 0.1792(3) -0.7094(5)
H5 H -0.3401 0.2113 -0.6647
C9 C -0.2976(6) 0.1928(3) -0.8074(5)
H6 H -0.2947 0.2340 -0.8287
C10 C -0.3771(6) -0.0060(3) -0.2288(5)
H7 H -0.3749 0.0266 -0.2759
C11 C -0.3069(5) 0.0712(3) -0.7437(5)
H8 H -0.3097 0.0298 -0.7230
C12 C -0.1262(6) -0.1206(3) -0.3046(5)
H9 H -0.1267 -0.0837 -0.2670
C13 C -0.0270(6) -0.1593(4) -0.2857(5)
H10 H 0.0391 -0.1485 -0.2360
C14 C -0.2787(6) 0.0856(3) -0.8423(5)
H11 H -0.2626 0.0539 -0.8875
C15 C -0.1212(6) -0.2286(3) -0.4144(5)
H12 H -0.1200 -0.2654 -0.4520
C16 C -0.2207(6) -0.1894(3) -0.4345(5)
H13 H -0.2849 -0.1996 -0.4865
C17 C -0.0258(6) -0.2139(3) -0.3403(6)
H14 H 0.0402 -0.2408 -0.3267
C18 C -0.2747(6) 0.1464(4) -0.8735(5)
H15 H -0.2563 0.1559 -0.9399
C19 C -0.1137(8) 0.2052(3) -0.3036(7)
H16 H -0.0609 0.2264 -0.2530
C20 C -0.3852(6) -0.1017(4) -0.0911(6)
H17 H -0.3875 -0.1348 -0.0450
C21 C -0.3769(5) -0.1136(3) -0.1927(5)
H18 H -0.3744 -0.1545 -0.2156
C22 C -0.0789(7) 0.1917(4) -0.3968(6)
H19 H -0.0014 0.2024 -0.4099
C23 C -0.3902(7) -0.0429(5) -0.0547(6)
H20 H -0.3966 -0.0354 0.0154
C24 C -0.2268(7) 0.1879(4) -0.2825(6)
H21 H -0.2497 0.1965 -0.2174
C25 C -0.3857(7) 0.0061(4) -0.1242(6)
H22 H -0.3883 0.0469 -0.1007
N1 N -0.8743(4) 0.0015(2) -0.4967(4)
C26 C -0.4795(4) -0.1306(2) -0.4517(4)
H23 H -0.4749 -0.1689 -0.4116
H24 H -0.4708 -0.1412 -0.5234
C27 C -0.9283(6) 0.0236(3) -0.4203(5)
H25 H -0.8807 0.0412 -0.3622
C28 C -1.0519(6) 0.0217(3) -0.4228(5)
H26 H -0.9149 -0.0374 -0.6341
Cl3 Cl -0.3380(2) -0.11985(10) -0.73201(17)
O1 O -0.3853(12) -0.1766(5) -0.6822(9)
O2 O -0.2144(13) -0.1366(9) -0.718(2)
O3 O -0.401(2) -0.1219(14) -0.8318(11)
O4 O -0.3609(5) -0.0759(2) -0.6550(4)
P1B P -0.64781(13) 0.08101(7) -0.60184(11)
Cu1B Cu -0.68521(6) 0.00112(3) -0.50007(6)
Cu1_2 Cu -1.31479(6) -0.00112(3) -0.49993(6)
P2B P -0.63162(13) -0.09603(7) -0.45135(11)
C2B C -0.6693(5) -0.1179(3) -0.3240(4)
C3B C -0.7749(5) 0.1355(3) -0.6218(5)
C4B C -0.6279(5) 0.0659(3) -0.7377(4)
C5B C -0.7267(5) -0.1448(3) -0.5448(4)
C6B C -0.8412(6) -0.1622(3) -0.5276(5)
H3B H -0.8652 -0.1538 -0.4628
C7B C -0.6939(6) -0.1576(3) -0.6413(5)
H4B H -0.6175 -0.1457 -0.6555
C8B C -0.6749(5) -0.1792(3) -0.2906(5)
H5B H -0.6599 -0.2113 -0.3353
C9B C -0.7024(6) -0.1928(3) -0.1926(5)
H6B H -0.7053 -0.2340 -0.1713
C10B C -0.6229(6) 0.0060(3) -0.7712(5)
H7B H -0.6251 -0.0266 -0.7241
C11B C -0.6931(5) -0.0712(3) -0.2563(5)
H8B H -0.6903 -0.0298 -0.2770
C12B C -0.8738(6) 0.1206(3) -0.6954(5)
H9B H -0.8733 0.0837 -0.7330
C13B C -0.9730(6) 0.1593(4) -0.7143(5)
H10B H -1.0391 0.1485 -0.7640
C14B C -0.7213(6) -0.0856(3) -0.1577(5)
H11B H -0.7374 -0.0539 -0.1125
C15B C -0.8788(6) 0.2286(3) -0.5856(5)
H12B H -0.8800 0.2654 -0.5480
C16B C -0.7793(6) 0.1894(3) -0.5655(5)
H13B H -0.7151 0.1996 -0.5135
C17B C -0.9742(6) 0.2139(3) -0.6597(6)
H14B H -1.0402 0.2408 -0.6733
C18B C -0.7253(6) -0.1464(4) -0.1265(5)
H15B H -0.7437 -0.1559 -0.0601
C19B C -0.8863(8) -0.2052(3) -0.6964(7)
H16B H -0.9391 -0.2264 -0.7470
C20B C -0.6148(6) 0.1017(4) -0.9089(6)
H17B H -0.6125 0.1348 -0.9550
C21B C -0.6231(5) 0.1136(3) -0.8073(5)
H18B H -0.6256 0.1545 -0.7844
C22B C -0.9211(7) -0.1917(4) -0.6032(6)
H19B H -0.9986 -0.2024 -0.5901
C23B C -0.6098(7) 0.0429(5) -0.9453(6)
H20B H -0.6034 0.0354 -1.0154
C24B C -0.7732(7) -0.1879(4) -0.7175(6)
H21B H -0.7503 -0.1965 -0.7826
C25B C -0.6143(7) -0.0061(4) -0.8758(6)
H22B H -0.6117 -0.0469 -0.8993
N1B N -0.1257(4) -0.0015(2) -0.5033(4)
N1B_2 N -1.1257(4) -0.0015(2) -0.5033(4)
C26B C -0.5205(4) 0.1306(2) -0.5483(4)
H23B H -0.5251 0.1689 -0.5884
H24B H -0.5292 0.1412 -0.4766
C27B C -1.0717(6) -0.0236(3) -0.5797(5)
H25B H -1.1193 -0.0412 -0.6378
C28B C -0.9481(6) -0.0217(3) -0.5772(5)
H26B H -1.0851 0.0374 -0.3659
Cl3B Cl -0.6620(2) 0.11985(10) -0.26799(17)
O1B O -0.6147(12) 0.1766(5) -0.3178(9)
O2B O -0.7856(13) 0.1366(9) -0.282(2)
O3B O -0.599(2) 0.1219(14) -0.1682(11)
O4B O -0.6391(5) 0.0759(2) -0.3450(4)
O5? O -0.6391(5) 0.0759(2) -0.3450(4)
O6? O -0.7196(12) 0.0766(5) -0.1962(8)
O7? O -0.5489(14) 0.1331(9) -0.2066(12)
O8? O -0.746(3) 0.1663(12) -0.292(2)
loop_
_geom_bond_atom_site_label_1
_geom_bond_atom_site_label_2
_geom_bond_site_symmetry_1
_geom_bond_site_symmetry_2
Cl1 C1 1_555 1_555
Cl2 C1 1_555 1_555
C1 H1 1_555 1_555
H2 C1 1_555 1_555
P1 Cu1 1_555 1_555
Cu1 P2 1_555 1_555
P2 C2 1_555 1_555
C2 C8 1_555 1_555
C3 P1 1_555 1_555
C4 P1 1_555 1_555
C5 P2 1_555 1_555
C6 C5 1_555 1_555
H3 C6 1_555 1_555
C7 C5 1_555 1_555
H4 C7 1_555 1_555
C8 H5 1_555 1_555
C9 C8 1_555 1_555
H6 C9 1_555 1_555
C10 C4 1_555 1_555
H7 C10 1_555 1_555
C11 C2 1_555 1_555
H8 C11 1_555 1_555
C12 C3 1_555 1_555
H9 C12 1_555 1_555
C13 C12 1_555 1_555
H10 C13 1_555 1_555
C14 C11 1_555 1_555
H11 C14 1_555 1_555
C15 H12 1_555 1_555
C16 C3 1_555 1_555
H13 C16 1_555 1_555
C17 C13 1_555 1_555
H14 C17 1_555 1_555
C18 C9 1_555 1_555
H15 C18 1_555 1_555
C19 H16 1_555 1_555
C20 H17 1_555 1_555
C21 C4 1_555 1_555
H18 C21 1_555 1_555
C22 C6 1_555 1_555
H19 C22 1_555 1_555
C23 C20 1_555 1_555
H20 C23 1_555 1_555
C24 C7 1_555 1_555
H21 C24 1_555 1_555
C25 C10 1_555 1_555
H22 C25 1_555 1_555
N1 C27 1_555 1_555
C26 P1 1_555 1_555
H23 C26 1_555 1_555
H24 C26 1_555 1_555
C27 H25 1_555 1_555
C28 C27 1_555 1_555
H26 C28B 1_555 1_555
Cl3 O1 1_555 1_555
O2 Cl3 1_555 1_555
O3 Cl3 1_555 1_555
O4 Cu1 1_555 1_555
P1B Cu1B 1_555 1_555
Cu1B N1 1_555 1_555
Cu1_2 N1B_2 1_555 1_555
P2B C26 1_555 1_555
C2B P2B 1_555 1_555
C3B P1B 1_555 1_555
C4B P1B 1_555 1_555
C5B P2B 1_555 1_555
C6B C5B 1_555 1_555
H3B C6B 1_555 1_555
C7B C5B 1_555 1_555
H4B C7B 1_555 1_555
C8B C2B 1_555 1_555
H5B C8B 1_555 1_555
C9B C8B 1_555 1_555
H6B C9B 1_555 1_555
C10B C4B 1_555 1_555
H7B C10B 1_555 1_555
C11B C2B 1_555 1_555
H8B C11B 1_555 1_555
C12B C3B 1_555 1_555
H9B C12B 1_555 1_555
C13B C12B 1_555 1_555
H10B C13B 1_555 1_555
C14B C11B 1_555 1_555
H11B C14B 1_555 1_555
C15B H12B 1_555 1_555
C16B C3B 1_555 1_555
H13B C16B 1_555 1_555
C17B C13B 1_555 1_555
H14B C17B 1_555 1_555
C18B C9B 1_555 1_555
H15B C18B 1_555 1_555
C19B H16B 1_555 1_555
C20B H17B 1_555 1_555
C21B C4B 1_555 1_555
H18B C21B 1_555 1_555
C22B C6B 1_555 1_555
H19B C22B 1_555 1_555
C23B C20B 1_555 1_555
H20B C23B 1_555 1_555
C24B C7B 1_555 1_555
H21B C24B 1_555 1_555
C25B C10B 1_555 1_555
H22B C25B 1_555 1_555
N1B Cu1 1_555 1_555
N1B_2 C28 1_555 1_555
C26B P2 1_555 1_555
H23B C26B 1_555 1_555
H24B C26B 1_555 1_555
C27B N1B_2 1_555 1_555
H25B C27B 1_555 1_555
C28B N1 1_555 1_555
H26B C28 1_555 1_555
Cl3B O1B 1_555 1_555
O2B Cl3B 1_555 1_555
O3B Cl3B 1_555 1_555
O4B Cu1B 1_555 1_555
C14 C18 1_555 1_555
C15 C16 1_555 1_555
C15 C17 1_555 1_555
C19 C22 1_555 1_555
C19 C24 1_555 1_555
C20 C21 1_555 1_555
C23 C25 1_555 1_555
Cl3 O4 1_555 1_555
P1B C26B 1_555 1_555
Cu1B P2B 1_555 1_555
C14B C18B 1_555 1_555
C15B C16B 1_555 1_555
C15B C17B 1_555 1_555
C19B C22B 1_555 1_555
C19B C24B 1_555 1_555
C20B C21B 1_555 1_555
C23B C25B 1_555 1_555
C27B C28B 1_555 1_555
Cl3B O4B 1_555 1_555

#END
