
#######################################################################
#
#                 Cambridge Crystallographic Data Centre
#                                CCDC 
#
#######################################################################
#
# If this CIF has been generated from an entry in the Cambridge 
# Structural Database, then it will include bibliographic, chemical, 
# crystal, experimental, refinement or atomic coordinate data resulting 
# from the CCDC's data processing and validation procedures.
#
#######################################################################

data_GOMGUM
_symmetry_cell_setting           triclinic
_symmetry_space_group_name_H-M   'P -1'
_symmetry_Int_Tables_number      2
_space_group_name_Hall           '-P 1'
loop_
_symmetry_equiv_pos_site_id
_symmetry_equiv_pos_as_xyz
1 x,y,z
2 -x,-y,-z
_cell_length_a                   10.7106(19)
_cell_length_b                   12.991(2)
_cell_length_c                   13.191(2)
_cell_angle_alpha                86.517(2)
_cell_angle_beta                 87.155(2)
_cell_angle_gamma                78.985(2)
_cell_volume                     1796.92
loop_
_atom_site_label
_atom_site_type_symbol
_atom_site_fract_x
_atom_site_fract_y
_atom_site_fract_z
O1 O 0.7886(12) 0.9046(10) 0.5016(6)
H1 H 0.7961 0.9060 0.4371
H2 H 0.7393 0.8629 0.5222
O2 O 0.7310(2) 0.71784(18) 0.3172(2)
H3 H 0.7400 0.7307 0.3786
H4 H 0.6995 0.7744 0.2844
C1 C 0.7186(2) 0.1755(2) 0.3382(2)
H5 H 0.7839 0.1666 0.2886
C2 C 0.7143(2) 0.25324(19) 0.40481(19)
H6 H 0.7770 0.2941 0.4005
C3 C 0.6163(2) 0.27108(17) 0.47887(17)
C4 C 0.5292(2) 0.2038(2) 0.48297(18)
H7 H 0.4630 0.2112 0.5319
C5 C 0.5410(2) 0.12569(19) 0.41423(19)
H8 H 0.4824 0.0811 0.4191
C6 C 0.6067(2) 0.35819(18) 0.54783(17)
C7 C 0.7128(2) 0.40191(19) 0.56405(18)
H9 H 0.7907 0.3747 0.5325
C8 C 0.7040(2) 0.4857(2) 0.62676(19)
C9 C 0.5871(2) 0.5257(2) 0.67495(18)
H10 H 0.5795 0.5816 0.7171
C10 C 0.4832(2) 0.48114(18) 0.65921(17)
C11 C 0.4904(2) 0.39918(18) 0.59670(17)
H11 H 0.4185 0.3712 0.5870
C12 C 0.8169(3) 0.5345(2) 0.6377(2)
C13 C 0.9390(3) 0.4740(2) 0.6459(2)
H12 H 0.9511 0.4011 0.6469
C14 C 1.0420(3) 0.5231(3) 0.6526(3)
H13 H 1.1225 0.4813 0.6577
C15 C 0.9151(4) 0.6844(3) 0.6444(4)
H14 H 0.9058 0.7571 0.6436
C16 C 0.8059(3) 0.6422(3) 0.6374(3)
H15 H 0.7266 0.6860 0.6326
C17 C 0.3419(2) 0.51135(18) 0.80357(17)
C18 C 0.2423(2) 0.58333(18) 0.84529(18)
H16 H 0.1994 0.6387 0.8047
C19 C 0.2069(2) 0.57243(18) 0.94735(18)
C20 C 0.2729(2) 0.48904(18) 1.00733(18)
H17 H 0.2513 0.4823 1.0763
C21 C 0.3711(2) 0.41572(18) 0.96441(18)
C22 C 0.4054(2) 0.42756(18) 0.86200(18)
H18 H 0.4708 0.3793 0.8329
C23 C 0.0966(2) 0.64659(19) 0.98929(19)
C24 C 0.0673(3) 0.7508(2) 0.9527(2)
H19 H 0.1202 0.7773 0.9040
C25 C -0.0420(3) 0.8144(2) 0.9900(2)
H20 H -0.0604 0.8838 0.9647
C26 C -0.0925(3) 0.6829(2) 1.0974(2)
H21 H -0.1461 0.6595 1.1475
C27 C 0.0147(3) 0.6134(2) 1.0651(2)
H22 H 0.0321 0.5452 1.0935
C28 C 0.4326(2) 0.32148(18) 1.02520(17)
C29 C 0.3694(2) 0.2785(2) 1.1069(2)
H23 H 0.2872 0.3105 1.1265
C30 C 0.5549(2) 0.2686(2) 1.0004(2)
H24 H 0.6019 0.2944 0.9468
C31 C 0.6063(2) 0.1781(2) 1.05492(19)
H25 H 0.6875 0.1434 1.0359
C32 C 0.4285(2) 0.1882(2) 1.1590(2)
H26 H 0.3847 0.1616 1.2141
C33 C -0.1237(2) -0.04085(19) 0.22548(19)
C34 C 0.0205(2) -0.06209(19) 0.2192(2)
H27 H 0.0466 -0.0555 0.1472
C35 C 0.0853(2) -0.1698(2) 0.2596(2)
H28 H 0.0531 -0.2236 0.2266
H29 H 0.0668 -0.1776 0.3321
C36 C 0.0693(2) 0.0228(2) 0.2731(2)
H30 H 0.0281 0.0916 0.2469
H31 H 0.0480 0.0170 0.3453
C37 C 0.2135(2) 0.0114(2) 0.2568(2)
H32 H 0.2429 0.0620 0.2963
H33 H 0.2333 0.0271 0.1856
C38 C 0.2296(2) -0.18310(19) 0.2392(2)
H34 H 0.2705 -0.2518 0.2660
H35 H 0.2477 -0.1796 0.1664
C39 C 0.2845(2) -0.09903(19) 0.28755(19)
H36 H 0.2728 -0.1091 0.3614
C40 C 0.4277(2) -0.10832(19) 0.26333(18)
N1 N 0.63363(19) 0.11135(16) 0.34056(15)
N2 N 0.54508(18) 0.13758(15) 1.13410(15)
N3 N 1.0319(3) 0.6274(3) 0.6520(3)
N4 N -0.1227(2) 0.78258(19) 1.05990(19)
Ni1 Ni 0.63918(2) 0.01149(2) 0.22168(2)
O3 O 0.36425(16) 0.52562(14) 0.70036(12)
O4 O -0.18089(15) 0.03288(13) 0.16828(14)
O5 O -0.18628(16) -0.09099(14) 0.28697(14)
O6 O 0.47591(16) -0.03031(13) 0.28048(13)
O7 O 0.48829(17) -0.19172(15) 0.22778(18)
O8 O 0.64519(18) -0.09000(15) 0.10682(15)
H37 H 0.596(4) -0.130(3) 0.133(4)
H38 H 0.7121(18) -0.1363(19) 0.099(3)
N2_2 N 0.54508(18) 0.13758(15) 0.13410(15)
Ni1_2 Ni -0.36082(2) 0.01149(2) 0.22168(2)
Ni1_3 Ni 0.63918(2) 0.01149(2) 1.22168(2)
O4_2 O 0.81911(15) 0.03288(13) 0.16828(14)
O5_2 O 0.81372(16) -0.09099(14) 0.28697(14)
loop_
_geom_bond_atom_site_label_1
_geom_bond_atom_site_label_2
_geom_bond_site_symmetry_1
_geom_bond_site_symmetry_2
O1 H1 1_555 1_555
H2 O1 1_555 1_555
O2 H3 1_555 1_555
H4 O2 1_555 1_555
C1 H5 1_555 1_555
C2 C1 1_555 1_555
H6 C2 1_555 1_555
C3 C2 1_555 1_555
C4 C3 1_555 1_555
H7 C4 1_555 1_555
C5 C4 1_555 1_555
H8 C5 1_555 1_555
C6 C3 1_555 1_555
C7 C6 1_555 1_555
H9 C7 1_555 1_555
C8 C7 1_555 1_555
C9 C8 1_555 1_555
H10 C9 1_555 1_555
C10 C9 1_555 1_555
C11 C6 1_555 1_555
H11 C11 1_555 1_555
C12 C8 1_555 1_555
C13 C12 1_555 1_555
H12 C13 1_555 1_555
C14 C13 1_555 1_555
H13 C14 1_555 1_555
C15 H14 1_555 1_555
C16 C12 1_555 1_555
H15 C16 1_555 1_555
C17 C18 1_555 1_555
C18 H16 1_555 1_555
C19 C18 1_555 1_555
C20 C19 1_555 1_555
H17 C20 1_555 1_555
C21 C20 1_555 1_555
C22 C17 1_555 1_555
H18 C22 1_555 1_555
C23 C19 1_555 1_555
C24 C23 1_555 1_555
H19 C24 1_555 1_555
C25 C24 1_555 1_555
H20 C25 1_555 1_555
C26 H21 1_555 1_555
C27 C23 1_555 1_555
H22 C27 1_555 1_555
C28 C21 1_555 1_555
C29 C28 1_555 1_555
H23 C29 1_555 1_555
C30 C28 1_555 1_555
H24 C30 1_555 1_555
C31 C30 1_555 1_555
H25 C31 1_555 1_555
C32 C29 1_555 1_555
H26 C32 1_555 1_555
C33 C34 1_555 1_555
C34 H27 1_555 1_555
C35 C34 1_555 1_555
H28 C35 1_555 1_555
H29 C35 1_555 1_555
C36 C34 1_555 1_555
H30 C36 1_555 1_555
H31 C36 1_555 1_555
C37 C36 1_555 1_555
H32 C37 1_555 1_555
H33 C37 1_555 1_555
C38 C35 1_555 1_555
H34 C38 1_555 1_555
H35 C38 1_555 1_555
C39 C37 1_555 1_555
H36 C39 1_555 1_555
C40 C39 1_555 1_555
N1 C1 1_555 1_555
N2 C31 1_555 1_555
N3 C14 1_555 1_555
N4 C25 1_555 1_555
Ni1 N1 1_555 1_555
O3 C10 1_555 1_555
O4 C33 1_555 1_555
O5 C33 1_555 1_555
O6 C40 1_555 1_555
O7 C40 1_555 1_555
O8 Ni1 1_555 1_555
H37 O8 1_555 1_555
H38 O8 1_555 1_555
N2_2 Ni1 1_555 1_555
Ni1_2 O4 1_555 1_555
Ni1_3 N2 1_555 1_555
O4_2 Ni1 1_555 1_555
O5_2 Ni1 1_555 1_555
C5 N1 1_555 1_555
C10 C11 1_555 1_555
C15 C16 1_555 1_555
C15 N3 1_555 1_555
C17 O3 1_555 1_555
C21 C22 1_555 1_555
C26 C27 1_555 1_555
C26 N4 1_555 1_555
C32 N2 1_555 1_555
C38 C39 1_555 1_555
Ni1 O6 1_555 1_555
O5 Ni1_2 1_555 1_555

#END
