
#######################################################################
#
#                 Cambridge Crystallographic Data Centre
#                                CCDC 
#
#######################################################################
#
# If this CIF has been generated from an entry in the Cambridge 
# Structural Database, then it will include bibliographic, chemical, 
# crystal, experimental, refinement or atomic coordinate data resulting 
# from the CCDC's data processing and validation procedures.
#
#######################################################################

data_GOMGEV
_symmetry_cell_setting           triclinic
_symmetry_space_group_name_H-M   'P -1'
_symmetry_Int_Tables_number      2
_space_group_name_Hall           '-P 1'
loop_
_symmetry_equiv_pos_site_id
_symmetry_equiv_pos_as_xyz
1 x,y,z
2 -x,-y,-z
_cell_length_a                   9.5387(7)
_cell_length_b                   17.0009(13)
_cell_length_c                   17.5107(13)
_cell_angle_alpha                78.4700(10)
_cell_angle_beta                 74.2670(10)
_cell_angle_gamma                85.9820(10)
_cell_volume                     2677.73
loop_
_atom_site_label
_atom_site_type_symbol
_atom_site_fract_x
_atom_site_fract_y
_atom_site_fract_z
Ho1 Ho 0.733634(12) 0.499120(8) 1.005519(8)
S1 S 0.54875(9) 0.38166(5) 1.34531(5)
S2 S 1.10880(7) 0.57672(4) 1.29256(4)
S3 S 0.63897(8) 0.74281(4) 1.15497(5)
O1 O 0.8389(2) 0.36489(12) 1.04983(13)
H1 H 0.8342 0.3301 1.0230
H2 H 0.8229 0.3442 1.0985
O2 O 0.8549(2) 0.62498(12) 0.97910(12)
H3 H 0.8055 0.6606 1.0010
H4 H 0.9435 0.6321 0.9730
O3 O 0.4421(3) 0.76353(15) 1.42676(15)
O4 O 0.7024(2) 0.38097(15) 1.33936(14)
O5 O 0.4643(3) 0.31330(14) 1.39062(14)
O6 O 0.5430(2) 0.43309(13) 1.10032(12)
O7 O 0.3026(2) 0.42808(12) 1.11997(12)
O8 O 1.0886(3) 0.95671(16) 1.3734(2)
O9 O 1.2655(2) 0.57882(12) 1.27043(13)
O10 O 1.0337(2) 0.51782(13) 1.35902(13)
O11 O 0.80085(19) 0.50006(12) 1.12759(12)
O12 O 1.04113(19) 0.51554(12) 1.08214(11)
O13 O 0.4798(4) 1.14469(17) 1.0576(2)
O14 O 0.7283(2) 0.74683(13) 1.07371(13)
O15 O 0.6997(2) 0.71095(13) 1.22191(14)
O16 O 0.5645(2) 0.59618(13) 1.04733(13)
O17 O 0.3239(2) 0.59358(12) 1.06335(12)
N1 N 0.2766(3) 0.66489(16) 1.48425(15)
H5 H 0.1915 0.6558 1.5168
N2 N 0.5383(3) 0.39386(16) 1.25340(15)
H6 H 0.6169 0.3973 1.2147
N3 N 0.8853(3) 0.88670(16) 1.39153(17)
H7 H 0.7918 0.8895 1.4075
N4 N 1.0649(2) 0.56606(15) 1.21315(14)
H8 H 1.1297 0.5756 1.1676
N5 N 0.4212(3) 1.07477(17) 1.18610(19)
H9 H 0.3785 1.0799 1.2349
N6 N 0.4976(3) 0.69032(15) 1.16905(15)
H10 H 0.4686 0.6574 1.2141
C1 C 0.2284(5) 0.7931(2) 1.5255(3)
H11 H 0.2086 0.8423 1.4920
H12 H 0.1386 0.7662 1.5538
H13 H 0.2755 0.8048 1.5639
C2 C 0.3266(4) 0.7398(2) 1.4738(2)
C3 C 0.3446(3) 0.59971(19) 1.44924(18)
C4 C 0.2762(3) 0.5262(2) 1.47712(19)
H14 H 0.1887 0.5218 1.5172
C5 C 0.3374(4) 0.4592(2) 1.44581(19)
H15 H 0.2909 0.4101 1.4649
C6 C 0.4671(3) 0.46538(19) 1.38636(17)
C7 C 0.5346(3) 0.5396(2) 1.3577(2)
H16 H 0.6214 0.5440 1.3172
C8 C 0.4745(3) 0.6064(2) 1.38861(19)
H17 H 0.5205 0.6556 1.3691
C9 C 0.3965(3) 0.39917(19) 1.23497(17)
H18 H 0.3484 0.3479 1.2555
H19 H 0.3356 0.4393 1.2613
C10 C 0.4161(3) 0.42160(16) 1.14450(17)
C11 C 0.8622(4) 1.0177(2) 1.4268(3)
H20 H 0.8795 1.0662 1.3869
H21 H 0.7618 1.0035 1.4393
H22 H 0.8846 1.0260 1.4749
C12 C 0.9569(4) 0.9516(2) 1.3947(2)
C13 C 0.9440(3) 0.81526(19) 1.36551(19)
C14 C 0.8469(3) 0.7536(2) 1.3769(2)
H23 H 0.7482 0.7612 1.4002
C15 C 0.8964(3) 0.68130(19) 1.35375(19)
H24 H 0.8314 0.6402 1.3621
C16 C 1.0440(3) 0.67020(18) 1.31791(17)
C17 C 1.1398(3) 0.73189(19) 1.30557(19)
H25 H 1.2380 0.7248 1.2810
C18 C 1.0909(3) 0.8040(2) 1.3294(2)
H26 H 1.1563 0.8448 1.3213
C19 C 0.9212(3) 0.54111(18) 1.21351(17)
H27 H 0.8896 0.4963 1.2578
H28 H 0.8519 0.5850 1.2223
C20 C 0.9229(3) 0.51653(16) 1.13482(16)
C21 C 0.3839(6) 1.2191(2) 1.1627(3)
H29 H 0.3563 1.2594 1.1223
H30 H 0.3021 1.2074 1.2091
H31 H 0.4624 1.2383 1.1782
C22 C 0.4328(5) 1.1435(2) 1.1288(3)
C23 C 0.4702(4) 0.9967(2) 1.1753(2)
C24 C 0.4526(4) 0.9367(2) 1.2436(2)
H32 H 0.4055 0.9486 1.2940
C25 C 0.5039(4) 0.85954(19) 1.2379(2)
H33 H 0.4918 0.8199 1.2842
C26 C 0.5736(3) 0.84145(18) 1.16266(18)
C27 C 0.5904(4) 0.9001(2) 1.0947(2)
H34 H 0.6372 0.8878 1.0445
C28 C 0.5383(4) 0.9775(2) 1.1001(2)
H35 H 0.5487 1.0166 1.0535
C29 C 0.4166(3) 0.69632(17) 1.10846(18)
H36 H 0.3139 0.7038 1.1335
H37 H 0.4486 0.7431 1.0667
C30 C 0.4369(3) 0.62217(17) 1.07007(17)
Ho1A Ho 0.266366(12) 0.500880(8) 0.994481(8)
Ho1A_2 Ho 1.266366(12) 0.500880(8) 0.994481(8)
O7A O 0.6974(2) 0.57192(12) 0.88003(12)
O12A O 0.95887(19) 0.48446(12) 0.91786(11)
O17A O 0.6761(2) 0.40642(12) 0.93665(12)
O18 O 0.4928(4) 0.9428(2) 0.6023(2)
H38 H 0.5711 0.9438 0.6150
H39 H 0.4730 0.8952 0.6035
O19 O 0.7449(3) 0.91196(17) 0.65277(19)
H40 H 0.7792 0.8763 0.6264
H41 H 0.8061 0.9468 0.6461
O20 O 0.7952(3) 0.78118(18) 0.5809(2)
H42 H 0.8287 0.7638 0.6205
H43 H 0.7197 0.7576 0.5844
O21 O 0.9414(3) 0.6574(2) 0.76648(17)
H44 H 0.8735 0.6321 0.8011
H45 H 0.9881 0.6822 0.7869
O22 O 0.9813(3) 0.64960(16) 0.60750(17)
H46 H 0.9639 0.6546 0.6562
H47 H 0.9618 0.6024 0.6067
O23 O 0.4321(3) 0.10433(17) 0.54977(19)
H48 H 0.4792 0.0630 0.5610
H49 H 0.4642 0.1473 0.5754
O24 O 0.8172(3) 0.27585(17) 0.20453(16)
H50 H 0.7251 0.2813 0.2131
H51 H 0.8421 0.2275 0.2079
N7 N 0.1248(3) 0.76974(19) 0.0269(2)
N8 N -0.1004(4) 1.1136(2) 0.2054(3)
C31 C 0.1726(5) 0.8434(3) -0.0094(3)
H52 H 0.2349 0.8498 -0.0612
C32 C 0.1353(4) 0.9100(2) 0.0252(3)
H53 H 0.1719 0.9598 -0.0032
C33 C 0.0431(4) 0.9036(2) 0.1025(2)
C34 C -0.0065(4) 0.8271(2) 0.1404(2)
H54 H -0.0689 0.8187 0.1922
C35 C 0.0369(4) 0.7638(2) 0.1010(2)
H55 H 0.0024 0.7133 0.1281
C36 C 0.0321(5) 1.1071(3) 0.1588(3)
H56 H 0.0936 1.1505 0.1471
C37 C 0.0859(5) 1.0397(3) 0.1260(3)
H57 H 0.1814 1.0382 0.0944
C38 C -0.0036(4) 0.9748(2) 0.1407(2)
C39 C -0.1420(4) 0.9809(2) 0.1909(2)
H58 H -0.2059 0.9384 0.2042
C40 C -0.1848(5) 1.0505(3) 0.2212(3)
H59 H -0.2785 1.0531 0.2546
loop_
_geom_bond_atom_site_label_1
_geom_bond_atom_site_label_2
_geom_bond_site_symmetry_1
_geom_bond_site_symmetry_2
Ho1 O1 1_555 1_555
S1 O4 1_555 1_555
S2 O9 1_555 1_555
S3 O14 1_555 1_555
O1 H1 1_555 1_555
H2 O1 1_555 1_555
O2 Ho1 1_555 1_555
H3 O2 1_555 1_555
H4 O2 1_555 1_555
O3 C2 1_555 1_555
O5 S1 1_555 1_555
O6 Ho1 1_555 1_555
O7 C10 1_555 1_555
O8 C12 1_555 1_555
O10 S2 1_555 1_555
O11 Ho1 1_555 1_555
O12 C20 1_555 1_555
O13 C22 1_555 1_555
O15 S3 1_555 1_555
O16 Ho1 1_555 1_555
O17 C30 1_555 1_555
N1 H5 1_555 1_555
N2 S1 1_555 1_555
H6 N2 1_555 1_555
N3 H7 1_555 1_555
N4 S2 1_555 1_555
H8 N4 1_555 1_555
N5 H9 1_555 1_555
N6 S3 1_555 1_555
H10 N6 1_555 1_555
C1 H11 1_555 1_555
H12 C1 1_555 1_555
H13 C1 1_555 1_555
C2 N1 1_555 1_555
C3 N1 1_555 1_555
C4 C3 1_555 1_555
H14 C4 1_555 1_555
C5 C4 1_555 1_555
H15 C5 1_555 1_555
C6 S1 1_555 1_555
C7 C6 1_555 1_555
H16 C7 1_555 1_555
C8 C3 1_555 1_555
H17 C8 1_555 1_555
C9 N2 1_555 1_555
H18 C9 1_555 1_555
H19 C9 1_555 1_555
C10 O6 1_555 1_555
C11 H20 1_555 1_555
H21 C11 1_555 1_555
H22 C11 1_555 1_555
C12 N3 1_555 1_555
C13 N3 1_555 1_555
C14 C13 1_555 1_555
H23 C14 1_555 1_555
C15 C14 1_555 1_555
H24 C15 1_555 1_555
C16 S2 1_555 1_555
C17 C16 1_555 1_555
H25 C17 1_555 1_555
C18 C13 1_555 1_555
H26 C18 1_555 1_555
C19 N4 1_555 1_555
H27 C19 1_555 1_555
H28 C19 1_555 1_555
C20 O11 1_555 1_555
C21 H29 1_555 1_555
H30 C21 1_555 1_555
H31 C21 1_555 1_555
C22 N5 1_555 1_555
C23 N5 1_555 1_555
C24 C23 1_555 1_555
H32 C24 1_555 1_555
C25 C24 1_555 1_555
H33 C25 1_555 1_555
C26 S3 1_555 1_555
C27 C26 1_555 1_555
H34 C27 1_555 1_555
C28 C23 1_555 1_555
H35 C28 1_555 1_555
C29 N6 1_555 1_555
H36 C29 1_555 1_555
H37 C29 1_555 1_555
C30 O16 1_555 1_555
O18 H38 1_555 1_555
H39 O18 1_555 1_555
O19 H40 1_555 1_555
H41 O19 1_555 1_555
O20 H42 1_555 1_555
H43 O20 1_555 1_555
O21 H44 1_555 1_555
H45 O21 1_555 1_555
O22 H46 1_555 1_555
H47 O22 1_555 1_555
O23 H48 1_555 1_555
H49 O23 1_555 1_555
O24 H50 1_555 1_555
H51 O24 1_555 1_555
N7 C31 1_555 1_555
N8 C36 1_555 1_555
C31 H52 1_555 1_555
C32 C31 1_555 1_555
H53 C32 1_555 1_555
C33 C32 1_555 1_555
C34 C33 1_555 1_555
H54 C34 1_555 1_555
C35 N7 1_555 1_555
H55 C35 1_555 1_555
C36 H56 1_555 1_555
C37 C36 1_555 1_555
H57 C37 1_555 1_555
C38 C33 1_555 1_555
C39 C38 1_555 1_555
H58 C39 1_555 1_555
C40 N8 1_555 1_555
H59 C40 1_555 1_555
Ho1A O7 1_555 1_555
Ho1A_2 O12 1_555 1_555
O7A Ho1 1_555 1_555
O12A Ho1 1_555 1_555
O17A Ho1 1_555 1_555
O17 Ho1A 1_555 1_555
C1 C2 1_555 1_555
C5 C6 1_555 1_555
C7 C8 1_555 1_555
C9 C10 1_555 1_555
C11 C12 1_555 1_555
C15 C16 1_555 1_555
C17 C18 1_555 1_555
C19 C20 1_555 1_555
C21 C22 1_555 1_555
C25 C26 1_555 1_555
C27 C28 1_555 1_555
C29 C30 1_555 1_555
C34 C35 1_555 1_555
C37 C38 1_555 1_555
C39 C40 1_555 1_555

#END
