
#######################################################################
#
#                 Cambridge Crystallographic Data Centre
#                                CCDC 
#
#######################################################################
#
# If this CIF has been generated from an entry in the Cambridge 
# Structural Database, then it will include bibliographic, chemical, 
# crystal, experimental, refinement or atomic coordinate data resulting 
# from the CCDC's data processing and validation procedures.
#
#######################################################################

data_GOMGAS
_symmetry_cell_setting           monoclinic
_symmetry_space_group_name_H-M   'C 2/c'
_symmetry_Int_Tables_number      15
_space_group_name_Hall           '-C 2yn'
loop_
_symmetry_equiv_pos_site_id
_symmetry_equiv_pos_as_xyz
1 x,y,z
2 -x,y,1/2-z
3 1/2+x,1/2+y,z
4 1/2-x,1/2+y,1/2-z
5 -x,-y,-z
6 x,-y,1/2+z
7 1/2-x,1/2-y,-z
8 1/2+x,1/2-y,1/2+z
_cell_length_a                   13.3778(10)
_cell_length_b                   11.3937(9)
_cell_length_c                   19.2967(14)
_cell_angle_alpha                90
_cell_angle_beta                 96.0440(10)
_cell_angle_gamma                90
_cell_volume                     2924.9
loop_
_atom_site_label
_atom_site_type_symbol
_atom_site_fract_x
_atom_site_fract_y
_atom_site_fract_z
Zn1 Zn 0.0000 -0.25751(4) 0.2500
S1 S -0.15626(5) -0.23586(6) 0.31854(3)
S2 S 0.23120(5) -0.27432(7) 0.38709(3)
S3 S 0.00163(6) -0.11977(9) 0.57434(4)
N1 N 0.03446(15) -0.24435(19) 0.36060(11)
N2 N -0.06795(16) -0.1810(2) 0.44531(11)
H1 H -0.1302(12) -0.159(4) 0.452(2)
N3 N 0.10238(17) -0.2033(2) 0.47401(11)
H2 H 0.1554(16) -0.204(3) 0.5060(13)
N4 N 0.0000 -0.0656(3) 0.2500
N5 N 0.0000 0.5559(3) 0.2500
C1 C -0.05729(19) -0.2188(2) 0.37983(13)
C2 C 0.11676(19) -0.2389(2) 0.40807(13)
C3 C 0.0122(2) -0.1694(3) 0.49499(14)
C4 C 0.08277(19) -0.0048(2) 0.27253(13)
H3 H 0.1418 -0.0470 0.2889
C5 C 0.08640(19) 0.1160(2) 0.27312(13)
H4 H 0.1470 0.1555 0.2891
C6 C 0.0000 0.1803(3) 0.2500
C7 C 0.0000 0.3096(3) 0.2500
C8 C 0.08786(19) 0.3736(2) 0.24401(14)
H5 H 0.1491 0.3340 0.2389
C9 C 0.08491(19) 0.4946(2) 0.24564(14)
H6 H 0.1459 0.5366 0.2436
C4A C -0.08277(19) -0.0048(2) 0.22747(13)
H3A H -0.1418 -0.0470 0.2111
C5A C -0.08640(19) 0.1160(2) 0.22688(13)
H4A H -0.1470 0.1555 0.2109
C8A C -0.08786(19) 0.3736(2) 0.25599(14)
H5A H -0.1491 0.3340 0.2611
C9A C -0.08491(19) 0.4946(2) 0.25436(14)
H6A H -0.1459 0.5366 0.2564
S1A S 0.15626(5) -0.23586(6) 0.18146(3)
S2A S -0.23120(5) -0.27432(7) 0.11291(3)
S3A S -0.00163(6) -0.11977(9) -0.07434(4)
N1A N -0.03446(15) -0.24435(19) 0.13940(11)
N2A N 0.06795(16) -0.1810(2) 0.05469(11)
H1A H 0.1302(12) -0.159(4) 0.048(2)
N3A N -0.10238(17) -0.2033(2) 0.02599(11)
H2A H -0.1554(16) -0.204(3) -0.0060(13)
C1A C 0.05729(19) -0.2188(2) 0.12017(13)
C2A C -0.11676(19) -0.2389(2) 0.09193(13)
C3A C -0.0122(2) -0.1694(3) 0.00501(14)
Zn1_2 Zn 0.0000 0.74249(4) 0.2500
N5_2 N 0.0000 -0.4441(3) 0.2500
N6 N 0.24493(17) 0.6013(2) 0.97455(12)
C10 C 0.2264(2) 0.5473(3) 1.03241(17)
H7 H 0.2807 0.5360 1.0677
C11 C 0.1323(2) 0.5063(3) 1.04454(17)
H8 H 0.1234 0.4686 1.0874
C12 C 0.05152(19) 0.5201(2) 0.99461(13)
C13 C 0.0710(3) 0.5755(4) 0.93421(17)
H9 H 0.0185 0.5866 0.8977
C14 C 0.1672(3) 0.6151(4) 0.92657(18)
H10 H 0.1781 0.6543 0.8846
N6D N -0.24493(17) 0.3987(2) 1.02545(12)
C10D C -0.2264(2) 0.4527(3) 0.96759(17)
H7D H -0.2807 0.4640 0.9323
C11D C -0.1323(2) 0.4937(3) 0.95546(17)
H8D H -0.1234 0.5314 0.9126
C12D C -0.05152(19) 0.4799(2) 1.00539(13)
C13D C -0.0710(3) 0.4245(4) 1.06579(17)
H9D H -0.0185 0.4134 1.1023
C14D C -0.1672(3) 0.3849(4) 1.07343(18)
H10D H -0.1781 0.3457 1.1154
loop_
_geom_bond_atom_site_label_1
_geom_bond_atom_site_label_2
_geom_bond_site_symmetry_1
_geom_bond_site_symmetry_2
Zn1 S1 1_555 1_555
S1 C1 1_555 1_555
S2 C2 1_555 1_555
S3 C3 1_555 1_555
N1 Zn1 1_555 1_555
N2 H1 1_555 1_555
N3 H2 1_555 1_555
N4 Zn1 1_555 1_555
N5 C9 1_555 1_555
C1 N1 1_555 1_555
C2 N1 1_555 1_555
C3 N2 1_555 1_555
C4 N4 1_555 1_555
H3 C4 1_555 1_555
C5 C4 1_555 1_555
H4 C5 1_555 1_555
C6 C5 1_555 1_555
C7 C6 1_555 1_555
C8 C7 1_555 1_555
H5 C8 1_555 1_555
C9 C8 1_555 1_555
H6 C9 1_555 1_555
N6 C10 1_555 1_555
C10 H7 1_555 1_555
C11 C10 1_555 1_555
H8 C11 1_555 1_555
C12 C11 1_555 1_555
C13 C12 1_555 1_555
H9 C13 1_555 1_555
C14 N6 1_555 1_555
H10 C14 1_555 1_555
C4A N4 1_555 1_555
H3A C4A 1_555 1_555
C5A C6 1_555 1_555
H4A C5A 1_555 1_555
C8A C7 1_555 1_555
H5A C8A 1_555 1_555
C9A N5 1_555 1_555
H6A C9A 1_555 1_555
S1A Zn1 1_555 1_555
S2A C2A 1_555 1_555
S3A C3A 1_555 1_555
N1A Zn1 1_555 1_555
N2A H1A 1_555 1_555
N3A H2A 1_555 1_555
C1A S1A 1_555 1_555
C2A N1A 1_555 1_555
C3A N2A 1_555 1_555
Zn1_2 N5 1_555 1_555
N5_2 Zn1 1_555 1_555
N6D C10D 1_555 1_555
C10D H7D 1_555 1_555
C11D C10D 1_555 1_555
H8D C11D 1_555 1_555
C12D C12 1_555 1_555
C13D C12D 1_555 1_555
H9D C13D 1_555 1_555
C14D N6D 1_555 1_555
H10D C14D 1_555 1_555
N2 C1 1_555 1_555
N3 C2 1_555 1_555
N3 C3 1_555 1_555
C13 C14 1_555 1_555
C4A C5A 1_555 1_555
C8A C9A 1_555 1_555
N1A C1A 1_555 1_555
N2A C1A 1_555 1_555
N3A C2A 1_555 1_555
N3A C3A 1_555 1_555
C11D C12D 1_555 1_555
C13D C14D 1_555 1_555

#END
