
#######################################################################
#
#                 Cambridge Crystallographic Data Centre
#                                CCDC 
#
#######################################################################
#
# If this CIF has been generated from an entry in the Cambridge 
# Structural Database, then it will include bibliographic, chemical, 
# crystal, experimental, refinement or atomic coordinate data resulting 
# from the CCDC's data processing and validation procedures.
#
#######################################################################

data_GOMHUM
_symmetry_cell_setting           triclinic
_symmetry_space_group_name_H-M   'P -1'
_symmetry_Int_Tables_number      2
_space_group_name_Hall           '-P 1'
loop_
_symmetry_equiv_pos_site_id
_symmetry_equiv_pos_as_xyz
1 x,y,z
2 -x,-y,-z
_cell_length_a                   9.5751(8)
_cell_length_b                   16.9839(14)
_cell_length_c                   17.5203(16)
_cell_angle_alpha                78.3110(10)
_cell_angle_beta                 74.1580(10)
_cell_angle_gamma                86.1060(10)
_cell_volume                     2683.89
loop_
_atom_site_label
_atom_site_type_symbol
_atom_site_fract_x
_atom_site_fract_y
_atom_site_fract_z
Eu1 Eu 0.265786(15) 0.500738(10) 0.994326(9)
S1 S 0.63872(8) 0.74440(5) 1.15509(5)
S2 S 0.45246(10) 0.61811(5) 0.65322(5)
S3 S -0.10875(8) 0.42257(5) 0.70682(5)
O1 O 0.1438(2) 0.37187(13) 1.02074(13)
H1 H 0.0548 0.3683 1.0290
H2 H 0.1884 0.3350 0.9997
O2 O 0.1612(2) 0.63786(13) 0.94867(14)
H3 H 0.1654 0.6744 0.9732
H4 H 0.1797 0.6554 0.8992
O3 O 0.4787(5) 1.14519(19) 1.0572(2)
O4 O 0.6990(2) 0.71236(14) 1.22171(15)
O5 O 0.7277(2) 0.74888(14) 1.07389(14)
O6 O 0.3224(2) 0.59571(13) 1.06437(13)
O7 O 0.5614(2) 0.59801(14) 1.04736(15)
O8 O 0.2026(2) 0.50038(13) 0.86832(12)
O9 O -0.0366(2) 0.48475(13) 0.91593(12)
O10 O -0.2643(2) 0.42000(13) 0.72930(13)
O11 O -0.0339(3) 0.48196(14) 0.63986(13)
O12 O -0.0885(3) 0.04293(17) 0.6268(2)
O13 O 0.4617(2) 0.56738(15) 0.89802(13)
O14 O 0.7009(2) 0.57328(13) 0.87636(13)
O15 O 0.2997(3) 0.61849(16) 0.65941(15)
O16 O 0.5369(3) 0.68671(15) 0.60738(14)
O17 O 0.5568(3) 0.23580(16) 0.57386(16)
N1 N 0.4202(4) 1.07571(19) 1.1860(2)
H5 H 0.3782 1.0808 1.2348
N2 N 0.4983(3) 0.69140(16) 1.16891(16)
H6 H 0.4704 0.6575 1.2136
N3 N 0.7226(3) 0.33432(17) 0.51661(16)
H7 H 0.8081 0.3432 0.4845
N4 N 0.4630(3) 0.60589(17) 0.74525(15)
H8 H 0.3850 0.6023 0.7843
N5 N 0.1139(3) 0.11295(17) 0.60882(19)
H9 H 0.2071 0.1102 0.5930
N6 N -0.0643(3) 0.43364(15) 0.78575(15)
H10 H -0.1289 0.4248 0.8314
C1 C 0.3823(6) 1.2202(3) 1.1616(4)
H11 H 0.4599 1.2393 1.1776
H12 H 0.2996 1.2089 1.2075
H13 H 0.3564 1.2605 1.1205
C2 C 0.4310(5) 1.1440(3) 1.1284(3)
C3 C 0.4697(4) 0.9978(2) 1.1748(2)
C4 C 0.5370(5) 0.9792(2) 1.1001(2)
H14 H 0.5475 1.0185 1.0535
C5 C 0.5890(4) 0.9014(2) 1.0950(2)
H15 H 0.6348 0.8890 1.0447
C6 C 0.5735(3) 0.84290(19) 1.1631(2)
C7 C 0.5045(4) 0.8611(2) 1.2377(2)
H16 H 0.4926 0.8215 1.2841
C8 C 0.4533(4) 0.9377(2) 1.2433(2)
H17 H 0.4069 0.9495 1.2938
C9 C 0.4165(3) 0.69817(19) 1.10947(19)
H18 H 0.4482 0.7452 1.0677
H19 H 0.3144 0.7056 1.1352
C10 C 0.4355(3) 0.62392(18) 1.07088(18)
C11 C 0.7702(5) 0.2062(2) 0.4759(3)
H20 H 0.8107 0.1645 0.5098
H21 H 0.8471 0.2376 0.4372
H22 H 0.7155 0.1825 0.4481
C12 C 0.6718(4) 0.2595(2) 0.5271(2)
C13 C 0.6545(4) 0.3996(2) 0.55109(19)
C14 C 0.7232(4) 0.4733(2) 0.5226(2)
H23 H 0.8105 0.4777 0.4824
C15 C 0.6628(4) 0.5401(2) 0.5535(2)
H24 H 0.7092 0.5894 0.5341
C16 C 0.5337(3) 0.5340(2) 0.61322(18)
C17 C 0.4663(4) 0.4601(2) 0.6418(2)
H25 H 0.3793 0.4557 0.6821
C18 C 0.5255(4) 0.3932(2) 0.6116(2)
H26 H 0.4793 0.3439 0.6316
C19 C 0.6048(3) 0.6010(2) 0.76263(18)
H27 H 0.6528 0.6523 0.7413
H28 H 0.6650 0.5608 0.7363
C20 C 0.5873(3) 0.57884(17) 0.85312(18)
C21 C 0.1376(5) -0.0182(2) 0.5735(3)
H29 H 0.0966 -0.0692 0.6027
H30 H 0.2329 -0.0145 0.5803
H31 H 0.1438 -0.0136 0.5172
C22 C 0.0429(5) 0.0482(2) 0.6054(2)
C23 C 0.0557(4) 0.1843(2) 0.6348(2)
C24 C 0.1521(4) 0.2461(2) 0.6234(2)
H32 H 0.2505 0.2388 0.6001
C25 C 0.1028(4) 0.3180(2) 0.6464(2)
H33 H 0.1676 0.3593 0.6381
C26 C -0.0432(3) 0.32894(19) 0.68182(18)
C27 C -0.1388(4) 0.2677(2) 0.6941(2)
H34 H -0.2369 0.2752 0.7182
C28 C -0.0907(4) 0.1951(2) 0.6710(2)
H35 H -0.1559 0.1540 0.6796
C29 C 0.0794(3) 0.45779(19) 0.78442(18)
H36 H 0.1117 0.5021 0.7395
H37 H 0.1471 0.4133 0.7761
C30 C 0.0800(3) 0.48335(17) 0.86249(17)
Eu1A Eu 0.734214(15) 0.499262(10) 1.005674(9)
Eu1A_2 Eu -0.265786(15) 0.499262(10) 1.005674(9)
O7A O 0.4386(2) 0.40199(14) 0.95264(15)
O9A O 0.0366(2) 0.51525(13) 1.08407(12)
O14A O 0.2991(2) 0.42672(13) 1.12364(13)
O18 O 0.1840(3) 0.72448(18) 0.79419(18)
H38 H 0.2605 0.7261 0.7576
H39 H 0.1553 0.7706 0.8011
O19 O 0.4937(4) 0.9421(2) 0.6017(2)
H40 H 0.5734 0.9441 0.6118
H41 H 0.4686 0.8944 0.6089
O20 O 0.5705(3) 0.89621(18) 0.4494(2)
H42 H 0.5184 0.8610 0.4456
H43 H 0.5375 0.9420 0.4364
O21 O 0.0167(3) 0.35030(16) 0.39478(18)
H44 H 0.0322 0.3481 0.3459
H45 H 0.0399 0.3954 0.3988
O22 O 0.0554(4) 0.3416(2) 0.23650(19)
H46 H 0.0008 0.3211 0.2165
H47 H 0.1188 0.3689 0.1999
O23 O 0.2036(4) 0.21901(18) 0.4191(2)
H48 H 0.2808 0.2400 0.4170
H49 H 0.1737 0.2380 0.3781
O24 O 0.2554(3) 0.08843(18) 0.34717(19)
H50 H 0.2297 0.1269 0.3704
H51 H 0.1880 0.0569 0.3559
N7 N 0.1264(4) 0.7716(2) 0.0257(2)
N8 N -0.1027(5) 1.1138(3) 0.2065(3)
C31 C 0.0379(4) 0.7655(2) 0.0994(3)
H52 H 0.0025 0.7147 0.1260
C32 C -0.0054(4) 0.8281(2) 0.1397(2)
H53 H -0.0674 0.8190 0.1916
C33 C 0.0434(4) 0.9045(2) 0.1027(2)
C34 C 0.1361(5) 0.9124(3) 0.0254(3)
H54 H 0.1727 0.9625 -0.0027
C35 C 0.1736(5) 0.8457(3) -0.0096(3)
H55 H 0.2361 0.8527 -0.0614
C36 C -0.1858(5) 1.0498(3) 0.2216(3)
H56 H -0.2797 1.0518 0.2547
C37 C -0.1419(5) 0.9809(3) 0.1913(3)
H57 H -0.2051 0.9380 0.2046
C38 C -0.0045(4) 0.9752(3) 0.1412(3)
C39 C 0.0852(5) 1.0408(3) 0.1262(3)
H58 H 0.1806 1.0396 0.0948
C40 C 0.0302(6) 1.1081(3) 0.1588(4)
H59 H 0.0906 1.1521 0.1464
loop_
_geom_bond_atom_site_label_1
_geom_bond_atom_site_label_2
_geom_bond_site_symmetry_1
_geom_bond_site_symmetry_2
Eu1 O1 1_555 1_555
S1 O4 1_555 1_555
S2 O15 1_555 1_555
S3 O10 1_555 1_555
O1 H1 1_555 1_555
H2 O1 1_555 1_555
O2 Eu1 1_555 1_555
H3 O2 1_555 1_555
H4 O2 1_555 1_555
O3 C2 1_555 1_555
O5 S1 1_555 1_555
O6 Eu1 1_555 1_555
O7 C10 1_555 1_555
O8 Eu1 1_555 1_555
O9 C30 1_555 1_555
O11 S3 1_555 1_555
O12 C22 1_555 1_555
O13 Eu1 1_555 1_555
O14 C20 1_555 1_555
O16 S2 1_555 1_555
O17 C12 1_555 1_555
N1 H5 1_555 1_555
N2 S1 1_555 1_555
H6 N2 1_555 1_555
N3 H7 1_555 1_555
N4 S2 1_555 1_555
H8 N4 1_555 1_555
N5 H9 1_555 1_555
N6 S3 1_555 1_555
H10 N6 1_555 1_555
C1 H11 1_555 1_555
H12 C1 1_555 1_555
H13 C1 1_555 1_555
C2 N1 1_555 1_555
C3 N1 1_555 1_555
C4 C3 1_555 1_555
H14 C4 1_555 1_555
C5 C4 1_555 1_555
H15 C5 1_555 1_555
C6 S1 1_555 1_555
C7 C6 1_555 1_555
H16 C7 1_555 1_555
C8 C3 1_555 1_555
H17 C8 1_555 1_555
C9 N2 1_555 1_555
H18 C9 1_555 1_555
H19 C9 1_555 1_555
C10 O6 1_555 1_555
C11 H20 1_555 1_555
H21 C11 1_555 1_555
H22 C11 1_555 1_555
C12 N3 1_555 1_555
C13 N3 1_555 1_555
C14 C13 1_555 1_555
H23 C14 1_555 1_555
C15 C14 1_555 1_555
H24 C15 1_555 1_555
C16 S2 1_555 1_555
C17 C16 1_555 1_555
H25 C17 1_555 1_555
C18 C13 1_555 1_555
H26 C18 1_555 1_555
C19 N4 1_555 1_555
H27 C19 1_555 1_555
H28 C19 1_555 1_555
C20 O13 1_555 1_555
C21 H29 1_555 1_555
H30 C21 1_555 1_555
H31 C21 1_555 1_555
C22 N5 1_555 1_555
C23 N5 1_555 1_555
C24 C23 1_555 1_555
H32 C24 1_555 1_555
C25 C24 1_555 1_555
H33 C25 1_555 1_555
C26 S3 1_555 1_555
C27 C26 1_555 1_555
H34 C27 1_555 1_555
C28 C23 1_555 1_555
H35 C28 1_555 1_555
C29 N6 1_555 1_555
H36 C29 1_555 1_555
H37 C29 1_555 1_555
C30 O8 1_555 1_555
O18 H38 1_555 1_555
H39 O18 1_555 1_555
O19 H40 1_555 1_555
H41 O19 1_555 1_555
O20 H42 1_555 1_555
H43 O20 1_555 1_555
O21 H44 1_555 1_555
H45 O21 1_555 1_555
O22 H46 1_555 1_555
H47 O22 1_555 1_555
O23 H48 1_555 1_555
H49 O23 1_555 1_555
O24 H50 1_555 1_555
H51 O24 1_555 1_555
N7 C31 1_555 1_555
N8 C36 1_555 1_555
C31 H52 1_555 1_555
C32 C31 1_555 1_555
H53 C32 1_555 1_555
C33 C32 1_555 1_555
C34 C33 1_555 1_555
H54 C34 1_555 1_555
C35 N7 1_555 1_555
H55 C35 1_555 1_555
C36 H56 1_555 1_555
C37 C36 1_555 1_555
H57 C37 1_555 1_555
C38 C33 1_555 1_555
C39 C38 1_555 1_555
H58 C39 1_555 1_555
C40 N8 1_555 1_555
H59 C40 1_555 1_555
Eu1A O7 1_555 1_555
Eu1A_2 O9 1_555 1_555
O7A Eu1 1_555 1_555
O9A Eu1 1_555 1_555
O14A Eu1 1_555 1_555
O14 Eu1A 1_555 1_555
C1 C2 1_555 1_555
C5 C6 1_555 1_555
C7 C8 1_555 1_555
C9 C10 1_555 1_555
C11 C12 1_555 1_555
C15 C16 1_555 1_555
C17 C18 1_555 1_555
C19 C20 1_555 1_555
C21 C22 1_555 1_555
C25 C26 1_555 1_555
C27 C28 1_555 1_555
C29 C30 1_555 1_555
C34 C35 1_555 1_555
C37 C38 1_555 1_555
C39 C40 1_555 1_555

#END
