
#######################################################################
#
#                 Cambridge Crystallographic Data Centre
#                                CCDC 
#
#######################################################################
#
# If this CIF has been generated from an entry in the Cambridge 
# Structural Database, then it will include bibliographic, chemical, 
# crystal, experimental, refinement or atomic coordinate data resulting 
# from the CCDC's data processing and validation procedures.
#
#######################################################################

data_GOMLUR
_symmetry_cell_setting           monoclinic
_symmetry_space_group_name_H-M   'C 2/m'
_symmetry_Int_Tables_number      12
_space_group_name_Hall           '-C 2y'
loop_
_symmetry_equiv_pos_site_id
_symmetry_equiv_pos_as_xyz
1 x,y,z
2 -x,y,-z
3 1/2+x,1/2+y,z
4 1/2-x,1/2+y,-z
5 -x,-y,-z
6 x,-y,z
7 1/2-x,1/2-y,-z
8 1/2+x,1/2-y,z
_cell_length_a                   19.896(15)
_cell_length_b                   7.014(5)
_cell_length_c                   11.209(7)
_cell_angle_alpha                90
_cell_angle_beta                 110.91(6)
_cell_angle_gamma                90
_cell_volume                     1461.21
loop_
_atom_site_label
_atom_site_type_symbol
_atom_site_fract_x
_atom_site_fract_y
_atom_site_fract_z
O4 O 0.4938(7) 0.0000 0.6154(9)
C11 C 0.5178(4) 0.1657(10) 0.57369(12)
H5 H 0.5698 0.1647 0.5994
H6 H 0.5036 0.2779 0.6095
O4A O 0.5062(7) 0.0000 0.3846(9)
C11A C 0.4822(4) 0.1657(10) 0.42631(12)
H5A H 0.4302 0.1647 0.4006
H6A H 0.4964 0.2779 0.3905
C11D C 0.4822(4) -0.1657(10) 0.42631(12)
H5D H 0.4302 -0.1647 0.4006
H6D H 0.4964 -0.2779 0.3905
C11E C 0.5178(4) -0.1657(10) 0.57369(12)
H5E H 0.5698 -0.1647 0.5994
H6E H 0.5036 -0.2779 0.6095
Zn1 Zn 0.0000 0.0000 0.0000
S1 S 0.15576(13) 0.0000 0.4457(2)
F1 F 0.2508(3) 0.0000 -0.0631(7)
F2 F 0.1655(3) 0.1517(12) -0.1915(6)
O1 O 0.0721(3) 0.0000 -0.0866(5)
O2 O 0.0791(3) 0.0000 0.1741(5)
O3 O 0.0000 0.3109(10) 0.0000
C1 C 0.1473(4) 0.0000 0.1969(7)
C2 C 0.1766(4) 0.0000 0.1006(8)
H1 H 0.2266 0.0000 0.1268
C3 C 0.1400(4) 0.0000 -0.0265(8)
C4 C 0.1935(4) 0.0000 0.3307(7)
C5 C 0.2378(6) 0.0000 0.5636(9)
H2 H 0.2445 0.0000 0.6500
C6 C 0.2922(5) 0.0000 0.5193(8)
H3 H 0.3402 0.0000 0.5730
C7 C 0.2704(4) 0.0000 0.3824(7)
H4 H 0.3009 0.0000 0.3359
C8 C 0.1809(5) 0.0000 -0.1164(10)
C9 C 0.0202(12) 0.416(2) -0.0882(16)
C10 C 0.0321(11) 0.412(2) 0.1141(10)
F2E F 0.1655(3) -0.1517(12) -0.1915(6)
C9A C -0.0202(12) 0.416(2) 0.0882(16)
C10A C -0.0321(11) 0.412(2) -0.1141(10)
O3D O 0.0000 0.6891(10) 0.0000
C9D C -0.0202(12) 0.584(2) 0.0882(16)
C10D C -0.0321(11) 0.588(2) -0.1141(10)
C9E C 0.0202(12) 0.584(2) -0.0882(16)
C10E C 0.0321(11) 0.588(2) 0.1141(10)
S1A S -0.15576(13) 0.0000 -0.4457(2)
F1A F -0.2508(3) 0.0000 0.0631(7)
F2A F -0.1655(3) 0.1517(12) 0.1915(6)
O1A O -0.0721(3) 0.0000 0.0866(5)
O2A O -0.0791(3) 0.0000 -0.1741(5)
C1A C -0.1473(4) 0.0000 -0.1969(7)
C2A C -0.1766(4) 0.0000 -0.1006(8)
H1A H -0.2266 0.0000 -0.1268
C3A C -0.1400(4) 0.0000 0.0265(8)
C4A C -0.1935(4) 0.0000 -0.3307(7)
C5A C -0.2378(6) 0.0000 -0.5636(9)
H2A H -0.2445 0.0000 -0.6500
C6A C -0.2922(5) 0.0000 -0.5193(8)
H3A H -0.3402 0.0000 -0.5730
C7A C -0.2704(4) 0.0000 -0.3824(7)
H4A H -0.3009 0.0000 -0.3359
C8A C -0.1809(5) 0.0000 0.1164(10)
F2D F -0.1655(3) -0.1517(12) 0.1915(6)
Zn1_2 Zn 0.0000 1.0000 0.0000
O3D_2 O 0.0000 -0.3109(10) 0.0000
H7? H 0.0132 0.3435 -0.1654
H8? H 0.0700 0.4569 -0.0518
H9? H 0.0807 0.4522 0.1252
H10? H 0.0326 0.3393 0.1879
loop_
_geom_bond_atom_site_label_1
_geom_bond_atom_site_label_2
_geom_bond_site_symmetry_1
_geom_bond_site_symmetry_2
Zn1 O1 1_555 1_555
S1 C4 1_555 1_555
F1 C8 1_555 1_555
F2 C8 1_555 1_555
O1 C3 1_555 1_555
O2 Zn1 1_555 1_555
O3 Zn1 1_555 1_555
C1 O2 1_555 1_555
C2 C1 1_555 1_555
H1 C2 1_555 1_555
C3 C2 1_555 1_555
C4 C1 1_555 1_555
C5 S1 1_555 1_555
H2 C5 1_555 1_555
C6 C5 1_555 1_555
H3 C6 1_555 1_555
C7 C4 1_555 1_555
H4 C7 1_555 1_555
C8 C3 1_555 1_555
C9 O3 1_555 1_555
C10 O3 1_555 1_555
O4 C11 1_555 1_555
C11 H5 1_555 1_555
H6 C11 1_555 1_555
F2E C8 1_555 1_555
C9A O3 1_555 1_555
C10A O3 1_555 1_555
O3D C9D 1_555 1_555
C9D C10 1_555 1_555
C10D C9 1_555 1_555
C9E C9 1_555 1_555
C10E C10 1_555 1_555
S1A C4A 1_555 1_555
F1A C8A 1_555 1_555
F2A C8A 1_555 1_555
O1A Zn1 1_555 1_555
O2A Zn1 1_555 1_555
C1A O2A 1_555 1_555
C2A C1A 1_555 1_555
H1A C2A 1_555 1_555
C3A O1A 1_555 1_555
C4A C1A 1_555 1_555
C5A S1A 1_555 1_555
H2A C5A 1_555 1_555
C6A C5A 1_555 1_555
H3A C6A 1_555 1_555
C7A C4A 1_555 1_555
H4A C7A 1_555 1_555
C8A C3A 1_555 1_555
F2D C8A 1_555 1_555
Zn1_2 O3D 1_555 1_555
O3D_2 Zn1 1_555 1_555
O4A C11A 1_555 1_555
C11A C11 1_555 1_555
H5A C11A 1_555 1_555
H6A C11A 1_555 1_555
C11D O4A 1_555 1_555
H5D C11D 1_555 1_555
H6D C11D 1_555 1_555
C11E O4 1_555 1_555
H5E C11E 1_555 1_555
H6E C11E 1_555 1_555
C6 C7 1_555 1_555
C9 C10A 1_555 1_555
C10 C9A 1_555 1_555
C9A C9D 1_555 1_555
C9A C10E 1_555 1_555
C10A C10D 1_555 1_555
C10A C9E 1_555 1_555
O3D C10D 1_555 1_555
O3D C9E 1_555 1_555
O3D C10E 1_555 1_555
C9D C10E 1_555 1_555
C10D C9E 1_555 1_555
C2A C3A 1_555 1_555
C6A C7A 1_555 1_555
C11D C11E 1_555 1_555

#END
