
#######################################################################
#
#                 Cambridge Crystallographic Data Centre
#                                CCDC 
#
#######################################################################
#
# If this CIF has been generated from an entry in the Cambridge 
# Structural Database, then it will include bibliographic, chemical, 
# crystal, experimental, refinement or atomic coordinate data resulting 
# from the CCDC's data processing and validation procedures.
#
#######################################################################

data_GOMTAF
_symmetry_cell_setting           monoclinic
_symmetry_space_group_name_H-M   'P 21/c'
_symmetry_Int_Tables_number      14
_space_group_name_Hall           '-P 2ybc'
loop_
_symmetry_equiv_pos_site_id
_symmetry_equiv_pos_as_xyz
1 x,y,z
2 -x,1/2+y,1/2-z
3 -x,-y,-z
4 x,1/2-y,1/2+z
_cell_length_a                   6.541(1)
_cell_length_b                   10.083(1)
_cell_length_c                   17.649(4)
_cell_angle_alpha                90
_cell_angle_beta                 98.320(1)
_cell_angle_gamma                90
_cell_volume                     1151.75
loop_
_atom_site_label
_atom_site_type_symbol
_atom_site_fract_x
_atom_site_fract_y
_atom_site_fract_z
Sn1 Sn 0.57631(3) 0.667244(19) 0.224919(11)
O1 O 0.6605(4) 0.5284(2) 0.14333(14)
O2 O 0.5004(5) 0.3541(2) 0.18479(15)
C1 C 0.7039(7) 0.8221(3) 0.1662(3)
H1 H 0.6184 0.8995 0.1659
H2 H 0.7109 0.7951 0.1145
H3 H 0.8403 0.8421 0.1916
C2 C 0.7690(5) 0.5803(4) 0.3176(2)
H4 H 0.6941 0.5123 0.3400
H5 H 0.8128 0.6469 0.3554
H6 H 0.8877 0.5421 0.2998
C3 C 0.2537(5) 0.6444(4) 0.2058(2)
H7 H 0.2162 0.5832 0.1644
H8 H 0.1899 0.7288 0.1928
H9 H 0.2077 0.6109 0.2513
C4 C 0.6167(5) 0.4043(3) 0.14343(18)
C5 C 0.7190(5) 0.3229(3) 0.08897(17)
C6 C 0.6448(6) 0.1979(3) 0.0665(2)
H10 H 0.5307 0.1641 0.0859
C7 C 0.7385(6) 0.1229(4) 0.0154(2)
H11 H 0.6859 0.0397 0.0003
C8 C 0.9086(6) 0.1707(4) -0.0132(2)
H12 H 0.9709 0.1203 -0.0476
C9 C 0.9858(7) 0.2927(4) 0.0094(3)
H13 H 1.1019 0.3249 -0.0095
C10 C 0.8918(6) 0.3693(3) 0.0603(2)
H14 H 0.9455 0.4522 0.0752
Sn1A Sn 0.42369(3) 0.167244(19) 0.275081(11)
O2A O 0.4996(5) 0.8541(2) 0.31521(15)
loop_
_geom_bond_atom_site_label_1
_geom_bond_atom_site_label_2
_geom_bond_site_symmetry_1
_geom_bond_site_symmetry_2
Sn1 O1 1_555 1_555
O1 C4 1_555 1_555
O2 C4 1_555 1_555
C1 Sn1 1_555 1_555
H1 C1 1_555 1_555
H2 C1 1_555 1_555
H3 C1 1_555 1_555
C2 Sn1 1_555 1_555
H4 C2 1_555 1_555
H5 C2 1_555 1_555
H6 C2 1_555 1_555
C3 Sn1 1_555 1_555
H7 C3 1_555 1_555
H8 C3 1_555 1_555
H9 C3 1_555 1_555
C4 C5 1_555 1_555
C5 C6 1_555 1_555
C6 H10 1_555 1_555
C7 C6 1_555 1_555
H11 C7 1_555 1_555
C8 C7 1_555 1_555
H12 C8 1_555 1_555
C9 C8 1_555 1_555
H13 C9 1_555 1_555
C10 C5 1_555 1_555
H14 C10 1_555 1_555
Sn1A O2 1_555 1_555
O2A Sn1 1_555 1_555
C9 C10 1_555 1_555

#END
