
#######################################################################
#
#                 Cambridge Crystallographic Data Centre
#                                CCDC 
#
#######################################################################
#
# If this CIF has been generated from an entry in the Cambridge 
# Structural Database, then it will include bibliographic, chemical, 
# crystal, experimental, refinement or atomic coordinate data resulting 
# from the CCDC's data processing and validation procedures.
#
#######################################################################

data_GONMAZ
_symmetry_cell_setting           tetragonal
_symmetry_space_group_name_H-M   'I -4'
_symmetry_Int_Tables_number      82
_space_group_name_Hall           'I -4'
loop_
_symmetry_equiv_pos_site_id
_symmetry_equiv_pos_as_xyz
1 x,y,z
2 -x,-y,z
3 y,-x,-z
4 -y,x,-z
5 1/2+x,1/2+y,1/2+z
6 1/2-x,1/2-y,1/2+z
7 1/2+y,1/2-x,1/2-z
8 1/2-y,1/2+x,1/2-z
_cell_length_a                   22.201(4)
_cell_length_b                   22.201(4)
_cell_length_c                   5.971(2)
_cell_angle_alpha                90
_cell_angle_beta                 90
_cell_angle_gamma                90
_cell_volume                     2943.01
loop_
_atom_site_label
_atom_site_type_symbol
_atom_site_fract_x
_atom_site_fract_y
_atom_site_fract_z
Ag1 Ag 0.05646(6) -0.03029(5) 0.2592(3)
S1 S 0.1034(2) 0.07148(18) 0.4099(8)
S2 S 0.00963(15) 0.1187(2) 0.0960(7)
C1 C 0.0751(4) 0.1270(5) 0.253(2)
N1 N 0.1054(4) 0.1787(4) 0.232(2)
C2 C 0.0830(7) 0.2317(5) 0.106(3)
H1 H 0.0596 0.2179 -0.0213
H2 H 0.1172 0.2542 0.0484
C3 C 0.0453(5) 0.2724(5) 0.245(4)
C4 C 0.0399(7) 0.3305(6) 0.162(3)
H3 H 0.0590 0.3422 0.0302
N2 N 0.0045(7) 0.3708(8) 0.284(6)
C5 C -0.0202(8) 0.3536(10) 0.479(5)
H4 H -0.0424 0.3815 0.5613
C6 C -0.0139(7) 0.2963(10) 0.562(3)
H5 H -0.0325 0.2848 0.6944
C7 C 0.0201(6) 0.2570(7) 0.445(3)
H6 H 0.0265 0.2186 0.5019
C8 C 0.1592(6) 0.1878(7) 0.364(3)
H7 H 0.1576 0.1627 0.4969
H8 H 0.1615 0.2295 0.4115
C9 C 0.2146(4) 0.1720(4) 0.228(3)
C10 C 0.2700(5) 0.1887(6) 0.315(2)
H9 H 0.2696 0.2106 0.4476
N3 N 0.3228(6) 0.1767(7) 0.228(4)
C11 C 0.3228(7) 0.1441(7) 0.040(4)
H10 H 0.3596 0.1340 -0.0245
C12 C 0.2700(8) 0.1243(6) -0.065(2)
H11 H 0.2713 0.1016 -0.1965
C13 C 0.2153(6) 0.1400(6) 0.035(2)
H12 H 0.1792 0.1284 -0.0309
Ag1A Ag -0.05646(6) 0.03029(5) 0.2592(3)
Ag1C Ag 0.03029(5) 0.05646(6) -0.2592(3)
Ag1C_2 Ag 0.03029(5) 0.05646(6) 0.7408(3)
S1B S 0.07148(18) -0.1034(2) 0.5901(8)
S2A S -0.00963(15) -0.1187(2) 0.0960(7)
S2B S 0.1187(2) -0.00963(15) -0.0960(7)
loop_
_geom_bond_atom_site_label_1
_geom_bond_atom_site_label_2
_geom_bond_site_symmetry_1
_geom_bond_site_symmetry_2
Ag1 S1 1_555 1_555
S1 C1 1_555 1_555
S2 C1 1_555 1_555
C1 N1 1_555 1_555
N1 C2 1_555 1_555
C2 H1 1_555 1_555
H2 C2 1_555 1_555
C3 C2 1_555 1_555
C4 C3 1_555 1_555
H3 C4 1_555 1_555
N2 C4 1_555 1_555
C5 N2 1_555 1_555
H4 C5 1_555 1_555
C6 C5 1_555 1_555
H5 C6 1_555 1_555
C7 C3 1_555 1_555
H6 C7 1_555 1_555
C8 N1 1_555 1_555
H7 C8 1_555 1_555
H8 C8 1_555 1_555
C9 C8 1_555 1_555
C10 C9 1_555 1_555
H9 C10 1_555 1_555
N3 C10 1_555 1_555
C11 N3 1_555 1_555
H10 C11 1_555 1_555
C12 C11 1_555 1_555
H11 C12 1_555 1_555
C13 C9 1_555 1_555
H12 C13 1_555 1_555
Ag1A Ag1 1_555 1_555
Ag1C S2 1_555 1_555
Ag1C_2 S1 1_555 1_555
S1B Ag1 1_555 1_555
S2A Ag1 1_555 1_555
S2B Ag1 1_555 1_555
S2 Ag1A 1_555 1_555
C6 C7 1_555 1_555
C12 C13 1_555 1_555
Ag1C S2B 1_555 1_555

#END
