
#######################################################################
#
#                 Cambridge Crystallographic Data Centre
#                                CCDC 
#
#######################################################################
#
# If this CIF has been generated from an entry in the Cambridge 
# Structural Database, then it will include bibliographic, chemical, 
# crystal, experimental, refinement or atomic coordinate data resulting 
# from the CCDC's data processing and validation procedures.
#
#######################################################################

data_GONNAA
_symmetry_cell_setting           monoclinic
_symmetry_space_group_name_H-M   'P 21/n'
_symmetry_Int_Tables_number      14
_space_group_name_Hall           '-P 2yn'
loop_
_symmetry_equiv_pos_site_id
_symmetry_equiv_pos_as_xyz
1 x,y,z
2 1/2-x,1/2+y,1/2-z
3 -x,-y,-z
4 1/2+x,1/2-y,1/2+z
_cell_length_a                   15.7345(5)
_cell_length_b                   20.5801(4)
_cell_length_c                   15.7442(4)
_cell_angle_alpha                90
_cell_angle_beta                 112.1180(10)
_cell_angle_gamma                90
_cell_volume                     4723.07
loop_
_atom_site_label
_atom_site_type_symbol
_atom_site_fract_x
_atom_site_fract_y
_atom_site_fract_z
Zn1 Zn 0.35371(4) 0.09174(2) 0.71213(4)
Zn2 Zn 0.20349(4) 0.08950(2) 0.85605(3)
Zn3 Zn 0.62763(3) 0.25519(2) 0.63653(3)
Cl1 Cl 0.33995(10) 0.02717(5) 0.59744(9)
Cl2 Cl 0.08897(9) 0.02506(5) 0.85109(10)
O1 O 0.7420(2) 0.19672(15) 0.7070(2)
O2 O 0.5773(2) 0.18118(16) 0.5420(2)
O3 O 0.5108(3) 0.31068(17) 0.5682(3)
O4 O 0.6793(2) 0.32585(16) 0.7366(2)
N1 N 0.4555(3) 0.15764(17) 0.7488(2)
N2 N 0.4827(3) 0.17388(18) 0.6797(3)
N3 N 0.5505(3) 0.21437(16) 0.7120(3)
N4 N 0.5714(3) 0.22649(16) 0.8016(3)
N5 N 0.2432(2) 0.15257(16) 0.9604(2)
N6 N 0.1734(3) 0.16609(18) 0.9889(3)
N7 N 0.2068(3) 0.20518(16) 1.0587(3)
N8 N 0.2968(3) 0.21847(17) 1.0776(3)
N9 N 0.5808(3) 0.02101(15) 1.1623(3)
N10 N 0.6388(3) -0.02945(16) 1.1843(3)
N11 N 0.6916(3) -0.02743(16) 1.1370(3)
N12 N 0.6709(3) 0.02415(16) 1.0825(3)
N13 N 0.7041(3) 0.31501(17) 1.1257(3)
N14 N 0.7362(3) 0.35746(16) 1.1933(3)
N15 N 0.6818(3) 0.35951(16) 1.2397(3)
N16 N 0.6120(3) 0.31828(17) 1.2029(3)
N17 N 0.8635(3) 0.1398(2) 0.7001(3)
N18 N 0.5209(3) 0.13155(19) 0.4054(3)
N19 N 0.4118(3) 0.3899(2) 0.4911(3)
N20 N 0.7474(3) 0.3381(2) 0.8905(3)
C1 C 0.5100(3) 0.19142(19) 0.8222(3)
C2 C 0.5101(3) 0.18704(19) 0.9168(3)
C3 C 0.4109(2) 0.18979(15) 0.9156(2)
H1 H 0.3816 0.2313 0.8882
H2 H 0.3741 0.1538 0.8777
C4 C 0.4131(3) 0.18408(19) 1.0131(3)
C5 C 0.4591(3) 0.11950(17) 1.0553(3)
H3 H 0.4228 0.0828 1.0189
H4 H 0.4606 0.1156 1.1185
C6 C 0.5584(2) 0.11597(14) 1.0573(2)
C7 C 0.6143(2) 0.17293(14) 1.1146(2)
H5 H 0.6776 0.1714 1.1158
H6 H 0.6175 0.1691 1.1785
C8 C 0.5692(2) 0.23825(14) 1.0733(2)
C9 C 0.5660(3) 0.24361(19) 0.9751(3)
H7 H 0.6291 0.2426 0.9757
H8 H 0.5375 0.2854 0.9479
C10 C 0.4704(3) 0.24034(18) 1.0714(3)
H9 H 0.4719 0.2370 1.1347
H10 H 0.4415 0.2823 1.0454
C11 C 0.5555(3) 0.12213(18) 0.9597(3)
H11 H 0.5202 0.0854 0.9222
H12 H 0.6186 0.1202 0.9604
C12 C 0.3168(3) 0.18576(19) 1.0152(3)
C13 C 0.6026(2) 0.05343(15) 1.0995(2)
C14 C 0.6269(3) 0.29159(15) 1.1321(3)
C15 C 0.7759(4) 0.1554(2) 0.6689(3)
H13 H 0.7359 0.1346 0.6147
C16 C 0.9288(4) 0.1716(3) 0.7790(4)
H14 H 0.9411 0.2153 0.7621
H15 H 0.9859 0.1465 0.8015
H16 H 0.9038 0.1745 0.8273
C17 C 0.8980(4) 0.0922(3) 0.6525(4)
H17 H 0.8464 0.0724 0.6027
H18 H 0.9321 0.0583 0.6957
H19 H 0.9388 0.1137 0.6271
C18 C 0.5642(3) 0.1792(2) 0.4602(3)
H20 H 0.5866 0.2141 0.4349
C19 C 0.4879(5) 0.0753(3) 0.4399(4)
H21 H 0.5008 0.0811 0.5053
H22 H 0.5191 0.0362 0.4311
H23 H 0.4216 0.0707 0.4064
C20 C 0.5103(5) 0.1320(3) 0.3110(4)
H24 H 0.5410 0.1703 0.2990
H25 H 0.4449 0.1335 0.2722
H26 H 0.5377 0.0926 0.2974
C21 C 0.4939(4) 0.3611(2) 0.5242(3)
H27 H 0.5427 0.3815 0.5128
C22 C 0.3316(5) 0.3651(3) 0.5070(6)
H28 H 0.2861 0.3489 0.4492
H29 H 0.3045 0.4001 0.5307
H30 H 0.3505 0.3296 0.5517
C23 C 0.3966(5) 0.4474(3) 0.4343(5)
H31 H 0.3756 0.4830 0.4628
H32 H 0.3499 0.4382 0.3735
H33 H 0.4540 0.4600 0.4280
C24 C 0.7400(4) 0.3122(2) 0.8113(4)
H34 H 0.7845 0.2809 0.8117
C25 C 0.6766(4) 0.3829(3) 0.8933(4)
H35 H 0.7019 0.4270 0.9059
H36 H 0.6555 0.3696 0.9419
H37 H 0.6248 0.3823 0.8342
C26 C 0.8211(4) 0.3209(3) 0.9745(4)
H38 H 0.8616 0.2896 0.9616
H39 H 0.7959 0.3015 1.0168
H40 H 0.8560 0.3600 1.0024
Zn1B Zn 0.64629(4) -0.09174(2) 1.28787(4)
Zn1C Zn 0.85371(4) 0.40826(2) 1.21213(4)
Zn2B Zn 0.79651(4) -0.08950(2) 1.14395(3)
Zn2C Zn 0.70349(4) 0.41050(2) 1.35605(3)
Zn3C Zn 0.12763(3) 0.24481(2) 1.13653(3)
N7C N 0.7068(3) 0.29482(16) 0.5587(3)
N10B N 0.3612(3) 0.02945(16) 0.8157(3)
N11B N 0.3084(3) 0.02743(16) 0.8630(3)
N14C N 0.2362(3) 0.14254(16) 0.6933(3)
N15C N 0.1818(3) 0.14049(16) 0.7397(3)
O5 O 0.7365(4) 0.1874(2) 0.3482(4)
N21 N 0.8374(4) 0.1075(3) 0.3424(5)
C27 C 0.7733(6) 0.1345(4) 0.3701(5)
H41 H 0.7552 0.1094 0.4111
C28 C 0.8663(6) 0.1409(4) 0.2781(6)
H42 H 0.8543 0.1136 0.2238
H43 H 0.9321 0.1502 0.3065
H44 H 0.8322 0.1818 0.2599
C29 C 0.8787(7) 0.0444(4) 0.3753(7)
H45 H 0.8404 0.0206 0.4016
H46 H 0.9401 0.0507 0.4225
H47 H 0.8833 0.0196 0.3242
O6 O 0.2299(4) 0.4901(2) 0.1613(4)
N22 N 0.1839(3) 0.5001(2) 0.2800(3)
C30 C 0.2357(4) 0.5164(2) 0.2336(4)
H48 H 0.2797 0.5501 0.2574
C31 C 0.1170(5) 0.4486(4) 0.2498(6)
H49 H 0.0576 0.4645 0.2481
H50 H 0.1371 0.4119 0.2925
H51 H 0.1108 0.4344 0.1884
C32 C 0.1934(7) 0.5338(4) 0.3628(5)
H52 H 0.2024 0.5022 0.4120
H53 H 0.1379 0.5592 0.3531
H54 H 0.2465 0.5629 0.3800
loop_
_geom_bond_atom_site_label_1
_geom_bond_atom_site_label_2
_geom_bond_site_symmetry_1
_geom_bond_site_symmetry_2
Zn1 Cl1 1_555 1_555
Zn2 Cl2 1_555 1_555
Zn3 O1 1_555 1_555
O1 C15 1_555 1_555
O2 Zn3 1_555 1_555
O3 Zn3 1_555 1_555
O4 Zn3 1_555 1_555
N1 Zn1 1_555 1_555
N2 N1 1_555 1_555
N3 Zn3 1_555 1_555
N4 N3 1_555 1_555
N5 Zn2 1_555 1_555
N6 N5 1_555 1_555
N7 N6 1_555 1_555
N8 N7 1_555 1_555
N9 N10 1_555 1_555
N10 N11 1_555 1_555
N11 N12 1_555 1_555
N12 C13 1_555 1_555
N13 N14 1_555 1_555
N14 N15 1_555 1_555
N15 N16 1_555 1_555
N16 C14 1_555 1_555
N17 C15 1_555 1_555
N18 C18 1_555 1_555
N19 C21 1_555 1_555
N20 C24 1_555 1_555
C1 N1 1_555 1_555
C2 C1 1_555 1_555
C3 C2 1_555 1_555
H1 C3 1_555 1_555
H2 C3 1_555 1_555
C4 C3 1_555 1_555
C5 C4 1_555 1_555
H3 C5 1_555 1_555
H4 C5 1_555 1_555
C6 C5 1_555 1_555
C7 C6 1_555 1_555
H5 C7 1_555 1_555
H6 C7 1_555 1_555
C8 C7 1_555 1_555
C9 C2 1_555 1_555
H7 C9 1_555 1_555
H8 C9 1_555 1_555
C10 C4 1_555 1_555
H9 C10 1_555 1_555
H10 C10 1_555 1_555
C11 C2 1_555 1_555
H11 C11 1_555 1_555
H12 C11 1_555 1_555
C12 N5 1_555 1_555
C13 N9 1_555 1_555
C14 N13 1_555 1_555
C15 H13 1_555 1_555
C16 N17 1_555 1_555
H14 C16 1_555 1_555
H15 C16 1_555 1_555
H16 C16 1_555 1_555
C17 N17 1_555 1_555
H17 C17 1_555 1_555
H18 C17 1_555 1_555
H19 C17 1_555 1_555
C18 O2 1_555 1_555
H20 C18 1_555 1_555
C19 N18 1_555 1_555
H21 C19 1_555 1_555
H22 C19 1_555 1_555
H23 C19 1_555 1_555
C20 N18 1_555 1_555
H24 C20 1_555 1_555
H25 C20 1_555 1_555
H26 C20 1_555 1_555
C21 O3 1_555 1_555
H27 C21 1_555 1_555
C22 N19 1_555 1_555
H28 C22 1_555 1_555
H29 C22 1_555 1_555
H30 C22 1_555 1_555
C23 N19 1_555 1_555
H31 C23 1_555 1_555
H32 C23 1_555 1_555
H33 C23 1_555 1_555
C24 O4 1_555 1_555
H34 C24 1_555 1_555
C25 N20 1_555 1_555
H35 C25 1_555 1_555
H36 C25 1_555 1_555
H37 C25 1_555 1_555
C26 N20 1_555 1_555
H38 C26 1_555 1_555
H39 C26 1_555 1_555
H40 C26 1_555 1_555
O5 C27 1_555 1_555
N21 C27 1_555 1_555
C27 H41 1_555 1_555
C28 N21 1_555 1_555
H42 C28 1_555 1_555
H43 C28 1_555 1_555
H44 C28 1_555 1_555
C29 N21 1_555 1_555
H45 C29 1_555 1_555
H46 C29 1_555 1_555
H47 C29 1_555 1_555
O6 C30 1_555 1_555
N22 C30 1_555 1_555
C30 H48 1_555 1_555
C31 N22 1_555 1_555
H49 C31 1_555 1_555
H50 C31 1_555 1_555
H51 C31 1_555 1_555
C32 N22 1_555 1_555
H52 C32 1_555 1_555
H53 C32 1_555 1_555
H54 C32 1_555 1_555
Zn1B N10 1_555 1_555
Zn1C N14 1_555 1_555
Zn2B N11 1_555 1_555
Zn2C N15 1_555 1_555
Zn3C N7 1_555 1_555
N7C Zn3 1_555 1_555
N10B Zn1 1_555 1_555
N11B Zn2 1_555 1_555
N14C Zn1 1_555 1_555
N15C Zn2 1_555 1_555
N2 N3 1_555 1_555
N4 C1 1_555 1_555
N8 C12 1_555 1_555
C4 C12 1_555 1_555
C6 C11 1_555 1_555
C6 C13 1_555 1_555
C8 C9 1_555 1_555
C8 C10 1_555 1_555
C8 C14 1_555 1_555
N10B N11B 1_555 1_555
N14C N15C 1_555 1_555

#END
