
#######################################################################
#
#                 Cambridge Crystallographic Data Centre
#                                CCDC 
#
#######################################################################
#
# If this CIF has been generated from an entry in the Cambridge 
# Structural Database, then it will include bibliographic, chemical, 
# crystal, experimental, refinement or atomic coordinate data resulting 
# from the CCDC's data processing and validation procedures.
#
#######################################################################

data_GONRUY
_symmetry_cell_setting           triclinic
_symmetry_space_group_name_H-M   'P -1'
_symmetry_Int_Tables_number      2
_space_group_name_Hall           '-P 1'
loop_
_symmetry_equiv_pos_site_id
_symmetry_equiv_pos_as_xyz
1 x,y,z
2 -x,-y,-z
_cell_length_a                   6.8966(7)
_cell_length_b                   7.2707(7)
_cell_length_c                   11.2682(11)
_cell_angle_alpha                78.9140(10)
_cell_angle_beta                 89.728(2)
_cell_angle_gamma                75.112(2)
_cell_volume                     535.271
loop_
_atom_site_label
_atom_site_type_symbol
_atom_site_fract_x
_atom_site_fract_y
_atom_site_fract_z
Ag1 Ag 0.24673(13) 0.71637(9) 0.36195(7)
Sr1 Sr 0.69427(10) 0.17252(10) 0.05807(6)
C1 C 0.2367(11) 0.0765(10) 0.1446(6)
C2 C 0.2577(11) 0.4820(10) 0.1499(7)
C3 C 0.2318(11) 0.3445(10) 0.2636(7)
C4 C 0.2327(11) 0.1529(11) 0.2619(7)
C5 C 0.2142(15) 0.2805(13) 0.4704(7)
H1 H 0.2047 0.3213 0.5440
C6 C 0.2223(14) 0.0892(12) 0.4686(7)
H2 H 0.2235 0.0030 0.5414
N1 N 0.2198(10) 0.4091(9) 0.3680(6)
N2 N 0.2284(10) 0.0249(9) 0.3644(6)
N3 N 0.6948(12) 0.3791(13) 0.2973(10)
O1 O 0.1942(9) 0.6613(8) 0.1477(5)
O2 O 0.3424(8) 0.4107(8) 0.0662(5)
O3 O 0.4041(8) -0.0132(8) 0.1168(5)
O4 O 0.0741(8) 0.1044(8) 0.0887(5)
O5 O 0.6888(12) 0.2168(10) 0.2861(6)
O6 O 0.7094(16) 0.4868(16) 0.1988(10)
O7 O 0.6993(16) 0.4259(16) 0.3935(10)
O8 O 0.8171(9) -0.1573(8) 0.2046(6)
H3 H 0.9330 -0.2062 0.2302
H4 H 0.7368 -0.2228 0.2451
Ag1_2 Ag 0.24673(13) -0.28363(9) 0.36195(7)
Sr1_2 Sr -0.30573(10) 0.17252(10) 0.05807(6)
Sr1A Sr 0.30573(10) -0.17252(10) -0.05807(6)
Sr1A_2 Sr 0.30573(10) 0.82748(10) -0.05807(6)
N2_2 N 0.2284(10) 1.0249(9) 0.3644(6)
O1A O 0.8058(9) 0.3387(8) -0.1477(5)
O2A O 0.6576(8) 0.5893(8) -0.0662(5)
O3A O 0.5959(8) 0.0132(8) -0.1168(5)
O4_2 O 1.0741(8) 0.1044(8) 0.0887(5)
O4A O 0.9259(8) -0.1044(8) -0.0887(5)
loop_
_geom_bond_atom_site_label_1
_geom_bond_atom_site_label_2
_geom_bond_site_symmetry_1
_geom_bond_site_symmetry_2
Ag1 N1 1_555 1_555
Sr1 O2 1_555 1_555
C1 C4 1_555 1_555
C2 C3 1_555 1_555
C3 C4 1_555 1_555
C4 N2 1_555 1_555
C5 H1 1_555 1_555
C6 C5 1_555 1_555
H2 C6 1_555 1_555
N1 C3 1_555 1_555
N2 C6 1_555 1_555
N3 O5 1_555 1_555
O1 Ag1 1_555 1_555
O2 C2 1_555 1_555
O3 Sr1 1_555 1_555
O4 C1 1_555 1_555
O5 Sr1 1_555 1_555
O6 Sr1 1_555 1_555
O7 N3 1_555 1_555
O8 Sr1 1_555 1_555
H3 O8 1_555 1_555
H4 O8 1_555 1_555
Ag1_2 N2 1_555 1_555
Sr1_2 O4 1_555 1_555
Sr1A O3 1_555 1_555
Sr1A_2 O1 1_555 1_555
N2_2 Ag1 1_555 1_555
O1A Sr1 1_555 1_555
O2A Sr1 1_555 1_555
O3A Sr1 1_555 1_555
O4_2 Sr1 1_555 1_555
O4A Sr1 1_555 1_555
C1 O3 1_555 1_555
C2 O1 1_555 1_555
C5 N1 1_555 1_555
N3 O6 1_555 1_555
O2 Sr1A_2 1_555 1_555
O4 Sr1A 1_555 1_555
Sr1A O3A 1_555 1_555
Sr1A_2 O2A 1_555 1_555

#END
