
#######################################################################
#
#                 Cambridge Crystallographic Data Centre
#                                CCDC 
#
#######################################################################
#
# If this CIF has been generated from an entry in the Cambridge 
# Structural Database, then it will include bibliographic, chemical, 
# crystal, experimental, refinement or atomic coordinate data resulting 
# from the CCDC's data processing and validation procedures.
#
#######################################################################

data_GONRUW
_symmetry_cell_setting           triclinic
_symmetry_space_group_name_H-M   'P -1'
_symmetry_Int_Tables_number      2
_space_group_name_Hall           '-P 1'
loop_
_symmetry_equiv_pos_site_id
_symmetry_equiv_pos_as_xyz
1 x,y,z
2 -x,-y,-z
_cell_length_a                   10.5793(1)
_cell_length_b                   13.1590(2)
_cell_length_c                   13.5431(3)
_cell_angle_alpha                106.86(2)
_cell_angle_beta                 110.8850(10)
_cell_angle_gamma                96.035(1)
_cell_volume                     1639.3
loop_
_atom_site_label
_atom_site_type_symbol
_atom_site_fract_x
_atom_site_fract_y
_atom_site_fract_z
Cu1 Cu 0.0650(2) 0.0658(1) 0.1439(1)
Mo1 Mo 0.3281(1) -0.0002(1) 0.0009(1)
Mo2 Mo 0.6294(1) 0.2378(1) 0.2211(1)
Mo3 Mo 0.5049(1) 0.2423(1) -0.0428(1)
Mo4 Mo 0.3742(1) 0.0037(1) -0.2659(1)
O1 O 0.1687(9) 0.0040(7) 0.0071(7)
O2 O 0.4284(8) 0.1365(7) 0.0528(7)
O3 O 0.3050(9) -0.0693(7) -0.1411(7)
O4 O 0.4175(8) -0.0714(6) 0.0889(7)
O5 O 0.7968(9) 0.2890(7) 0.3181(7)
O6 O 0.5424(10) 0.3346(7) 0.2590(8)
O7 O 0.6537(8) 0.2640(7) 0.0959(7)
O8 O 0.4179(10) 0.3383(8) -0.0044(8)
O9 O 0.5898(10) 0.2945(8) -0.1090(8)
O10 O 0.3552(8) 0.1323(6) -0.1672(7)
O11 O 0.2103(10) -0.0432(8) -0.3675(8)
O12 O 0.4695(10) 0.0556(7) -0.3269(8)
O13 O 0.5619(9) 0.1266(7) 0.2665(7)
N3 N 0.0759(10) 0.2118(8) 0.1423(9)
N4 N 0.0603(10) 0.9314(8) 0.1738(9)
C13 C -0.0178(13) 0.2655(10) 0.1658(11)
C14 C -0.0202(12) 0.3688(10) 0.1636(11)
C15 C 0.0751(12) 0.4229(9) 0.1363(11)
C16 C 0.1724(13) 0.3658(11) 0.1120(11)
C17 C 0.1675(14) 0.2625(9) 0.1149(10)
C18 C 0.0842(14) 0.5363(11) 0.1376(11)
C19 C 0.0119(11) 0.6049(9) 0.1734(10)
C20 C 0.0304(12) 0.7169(10) 0.1749(10)
C21 C 0.1358(14) 0.7657(10) 0.1550(11)
C22 C -0.0601(12) 0.7829(10) 0.1971(11)
C23 C -0.0440(13) 0.8867(10) 0.1959(11)
C24 C 0.1465(12) 0.8696(9) 0.1548(9)
H11 H -0.0831(13) 0.2311(10) 0.1841(11)
H12 H -0.0863(12) 0.4029(10) 0.1806(11)
H13 H 0.2396(13) 0.3983(11) 0.0942(11)
H14 H 0.2311(14) 0.2256(9) 0.0968(10)
H15 H 0.1459(14) 0.5623(11) 0.1111(11)
H16 H -0.0525(11) 0.5803(9) 0.1984(10)
H17 H 0.2004(14) 0.7272(10) 0.1415(11)
H18 H -0.1321(12) 0.7551(10) 0.2130(11)
H19 H -0.1057(13) 0.9280(10) 0.2106(11)
H20 H 0.2190(12) 0.8992(9) 0.1404(9)
Cu1A Cu -0.0650(2) -0.0658(1) -0.1439(1)
O1A O -0.1687(9) -0.0040(7) -0.0071(7)
N4_2 N 0.0603(10) -0.0686(8) 0.1738(9)
Cu1_2 Cu 0.0650(2) 1.0658(1) 0.1439(1)
N3A N -0.0759(10) -0.2118(8) -0.1423(9)
C13A C 0.0178(13) -0.2655(10) -0.1658(11)
C14A C 0.0202(12) -0.3688(10) -0.1636(11)
C15A C -0.0751(12) -0.4229(9) -0.1363(11)
C16A C -0.1724(13) -0.3658(11) -0.1120(11)
C17A C -0.1675(14) -0.2625(9) -0.1149(10)
H14A H -0.2311(14) -0.2256(9) -0.0968(10)
H13A H -0.2396(13) -0.3983(11) -0.0942(11)
C18A C -0.0842(14) -0.5363(11) -0.1376(11)
C19A C -0.0119(11) -0.6049(9) -0.1734(10)
C20A C -0.0304(12) -0.7169(10) -0.1749(10)
C21A C -0.1358(14) -0.7657(10) -0.1550(11)
C24A C -0.1465(12) -0.8696(9) -0.1548(9)
N4A N -0.0603(10) -0.9314(8) -0.1738(9)
Cu1A_2 Cu -0.0650(2) -1.0658(1) -0.1439(1)
C23A C 0.0440(13) -0.8867(10) -0.1959(11)
C22A C 0.0601(12) -0.7829(10) -0.1971(11)
H19A H 0.1057(13) -0.9280(10) -0.2106(11)
H20A H -0.2190(12) -0.8992(9) -0.1404(9)
H17A H -0.2004(14) -0.7272(10) -0.1415(11)
H16A H 0.0525(11) -0.5803(9) -0.1984(10)
H15A H -0.1459(14) -0.5623(11) -0.1111(11)
H12A H 0.0863(12) -0.4029(10) -0.1806(11)
H11A H 0.0831(13) -0.2311(10) -0.1841(11)
N4A_2 N -0.0603(10) 0.0686(8) -0.1738(9)
Mo2A Mo 0.3706(1) -0.2378(1) -0.2211(1)
Mo3A Mo 0.4951(1) -0.2423(1) 0.0428(1)
Mo4A Mo 0.6258(1) -0.0037(1) 0.2659(1)
O3A O 0.6950(9) 0.0693(7) 0.1411(7)
Mo1A Mo 0.6719(1) 0.0002(1) -0.0009(1)
O1A_2 O 0.8313(9) -0.0040(7) -0.0071(7)
Cu1A_3 Cu 0.9350(2) -0.0658(1) -0.1439(1)
Cu1_3 Cu 1.0650(2) 0.0658(1) 0.1439(1)
O2A O 0.5716(8) -0.1365(7) -0.0528(7)
O4A O 0.5825(8) 0.0714(6) -0.0889(7)
O13A O 0.4381(9) -0.1266(7) -0.2665(7)
H18A H 0.1321(12) -0.7551(10) -0.2130(11)
O5A O 0.2032(9) -0.2890(7) -0.3181(7)
O6A O 0.4576(10) -0.3346(7) -0.2590(8)
O7A O 0.3463(8) -0.2640(7) -0.0959(7)
O8A O 0.5821(10) -0.3383(8) 0.0044(8)
O9A O 0.4102(10) -0.2945(8) 0.1090(8)
O10A O 0.6448(8) -0.1323(6) 0.1672(7)
O11A O 0.7897(10) 0.0432(8) 0.3675(8)
O12A O 0.5305(10) -0.0556(7) 0.3269(8)
O1_2 O 1.1687(9) 0.0040(7) 0.0071(7)
Cu2 Cu 0.3026(2) -0.0743(1) 0.4310(2)
N1 N 0.3127(12) -0.2188(8) 0.4209(9)
N2 N 0.2839(12) 0.0675(8) 0.4308(9)
C1 C 0.2392(15) -0.2735(10) 0.4597(11)
C2 C 0.2411(16) -0.3782(11) 0.4556(12)
C3 C 0.3213(13) -0.4364(9) 0.4069(10)
C4 C 0.3968(14) -0.3788(10) 0.3622(11)
C5 C 0.3868(14) -0.2734(11) 0.3715(11)
C6 C 0.3462(13) 0.1172(10) 0.3808(11)
C7 C 0.3395(13) 0.2190(11) 0.3807(11)
C8 C 0.2646(14) 0.2793(10) 0.4296(11)
C9 C 0.1931(16) 0.2249(11) 0.4783(12)
C10 C 0.2048(17) 0.1193(12) 0.4761(13)
C11 C 0.2573(16) 0.3907(11) 0.4338(12)
C12 C 0.3278(12) -0.5490(10) 0.3991(11)
H1 H 0.1836(15) -0.2382(10) 0.4913(11)
H2 H 0.1890(16) -0.4114(11) 0.4852(12)
H3 H 0.4512(14) -0.4121(10) 0.3278(11)
H4 H 0.4351(14) -0.2373(11) 0.3412(11)
H5 H 0.3963(13) 0.0797(10) 0.3446(11)
H6 H 0.3871(13) 0.2496(11) 0.3643(11)
H7 H 0.1386(16) 0.2597(11) 0.5115(12)
H8 H 0.1564(17) 0.0844(12) 0.5071(13)
H9 H 0.1978(16) 0.4219(11) 0.4635(12)
H10 H 0.3856(14) -0.5803(10) 0.3675(11)
C11_2 C 0.2573(16) -0.6093(11) 0.4338(12)
C8_2 C 0.2646(14) -0.7207(10) 0.4296(11)
C7_2 C 0.3395(13) -0.7810(11) 0.3807(11)
C6_2 C 0.3462(13) -0.8828(10) 0.3808(11)
N2_2 N 0.2839(12) -0.9325(8) 0.4308(9)
Cu2_2 Cu 0.3026(2) -1.0743(1) 0.4310(2)
C10_2 C 0.2048(17) -0.8807(12) 0.4761(13)
C9_2 C 0.1931(16) -0.7751(11) 0.4783(12)
H7_2 H 0.1386(16) -0.7403(11) 0.5115(12)
H8_2 H 0.1564(17) -0.9156(12) 0.5071(13)
H5_2 H 0.3963(13) -0.9203(10) 0.3446(11)
H6_2 H 0.3871(13) -0.7504(11) 0.3643(11)
H9_2 H 0.1978(16) -0.5781(11) 0.4635(12)
C12_2 C 0.3278(12) 0.4510(10) 0.3991(11)
C3_2 C 0.3213(13) 0.5636(9) 0.4069(10)
C2_2 C 0.2411(16) 0.6218(11) 0.4556(12)
C1_2 C 0.2392(15) 0.7265(10) 0.4597(11)
N1_2 N 0.3127(12) 0.7812(8) 0.4209(9)
Cu2_3 Cu 0.3026(2) 0.9257(1) 0.4310(2)
N2_3 N 0.2839(12) 1.0675(8) 0.4308(9)
C5_2 C 0.3868(14) 0.7266(11) 0.3715(11)
C4_2 C 0.3968(14) 0.6212(10) 0.3622(11)
H3_2 H 0.4512(14) 0.5879(10) 0.3278(11)
H4_2 H 0.4351(14) 0.7627(11) 0.3412(11)
H1_2 H 0.1836(15) 0.7618(10) 0.4913(11)
H2_2 H 0.1890(16) 0.5886(11) 0.4852(12)
H10_2 H 0.3856(14) 0.4197(10) 0.3675(11)
O14 O 0.1548(18) -0.5370(12) -0.3420(14)
O15 O 0.4198(21) -0.5439(11) -0.1926(12)
loop_
_geom_bond_atom_site_label_1
_geom_bond_atom_site_label_2
_geom_bond_site_symmetry_1
_geom_bond_site_symmetry_2
Cu1 O1 1_555 1_555
Mo1 O1 1_555 1_555
Mo2 O2 1_555 1_555
Mo3 O2 1_555 1_555
Mo4 O3 1_555 1_555
Cu2 N1 1_555 1_555
O1 Cu1A 1_555 1_555
O2 Mo1 1_555 1_555
O3 Mo1 1_555 1_555
O4 Mo1 1_555 1_555
O5 Mo2 1_555 1_555
O6 Mo2 1_555 1_555
O7 Mo2 1_555 1_555
O8 Mo3 1_555 1_555
O9 Mo3 1_555 1_555
O10 Mo3 1_555 1_555
O11 Mo4 1_555 1_555
O12 Mo4 1_555 1_555
O13 Mo2 1_555 1_555
N1 C1 1_555 1_555
N2 Cu2 1_555 1_555
N3 Cu1 1_555 1_555
N4 C23 1_555 1_555
C1 C2 1_555 1_555
C2 C3 1_555 1_555
C3 C4 1_555 1_555
C4 C5 1_555 1_555
C5 N1 1_555 1_555
C6 N2 1_555 1_555
C7 C6 1_555 1_555
C8 C7 1_555 1_555
C9 C8 1_555 1_555
C10 N2 1_555 1_555
C11 C8 1_555 1_555
C12 C3 1_555 1_555
C13 N3 1_555 1_555
C14 C13 1_555 1_555
C15 C14 1_555 1_555
C16 C15 1_555 1_555
C17 N3 1_555 1_555
C18 C15 1_555 1_555
C19 C18 1_555 1_555
C20 C19 1_555 1_555
C21 C20 1_555 1_555
C22 C20 1_555 1_555
C23 C22 1_555 1_555
C24 N4 1_555 1_555
H1 C1 1_555 1_555
H2 C2 1_555 1_555
H3 C4 1_555 1_555
H4 C5 1_555 1_555
H5 C6 1_555 1_555
H6 C7 1_555 1_555
H7 C9 1_555 1_555
H8 C10 1_555 1_555
H9 C11 1_555 1_555
H10 C12 1_555 1_555
H11 C13 1_555 1_555
H12 C14 1_555 1_555
H13 C16 1_555 1_555
H14 C17 1_555 1_555
H15 C18 1_555 1_555
H16 C19 1_555 1_555
H17 C21 1_555 1_555
H18 C22 1_555 1_555
H19 C23 1_555 1_555
H20 C24 1_555 1_555
Cu1A O1A 1_555 1_555
O1A Cu1 1_555 1_555
N4_2 Cu1 1_555 1_555
Cu1_2 N4 1_555 1_555
N3A Cu1A 1_555 1_555
C13A N3A 1_555 1_555
C14A C13A 1_555 1_555
C15A C14A 1_555 1_555
C16A C15A 1_555 1_555
C17A N3A 1_555 1_555
H14A C17A 1_555 1_555
H13A C16A 1_555 1_555
C18A C15A 1_555 1_555
C19A C18A 1_555 1_555
C20A C19A 1_555 1_555
C21A C20A 1_555 1_555
C24A C21A 1_555 1_555
N4A C24A 1_555 1_555
Cu1A_2 N4A 1_555 1_555
C23A N4A 1_555 1_555
C22A C20A 1_555 1_555
H19A C23A 1_555 1_555
H20A C24A 1_555 1_555
H17A C21A 1_555 1_555
H16A C19A 1_555 1_555
H15A C18A 1_555 1_555
H12A C14A 1_555 1_555
H11A C13A 1_555 1_555
N4A_2 Cu1A 1_555 1_555
Mo2A O3 1_555 1_555
Mo3A O4 1_555 1_555
Mo4A O4 1_555 1_555
O3A Mo2 1_555 1_555
Mo1A O3A 1_555 1_555
O1A_2 Mo1A 1_555 1_555
Cu1A_3 O1A_2 1_555 1_555
Cu1_3 O1A_2 1_555 1_555
O2A Mo2A 1_555 1_555
O4A Mo3 1_555 1_555
O13A Mo4 1_555 1_555
C11_2 C12 1_555 1_555
C8_2 C11_2 1_555 1_555
C7_2 C8_2 1_555 1_555
C6_2 C7_2 1_555 1_555
N2_2 C6_2 1_555 1_555
Cu2_2 N2_2 1_555 1_555
C10_2 N2_2 1_555 1_555
C9_2 C8_2 1_555 1_555
H7_2 C9_2 1_555 1_555
H8_2 C10_2 1_555 1_555
H5_2 C6_2 1_555 1_555
H6_2 C7_2 1_555 1_555
H9_2 C11_2 1_555 1_555
C12_2 C11 1_555 1_555
C3_2 C12_2 1_555 1_555
C2_2 C3_2 1_555 1_555
C1_2 C2_2 1_555 1_555
N1_2 C1_2 1_555 1_555
Cu2_3 N1_2 1_555 1_555
N2_3 Cu2_3 1_555 1_555
C5_2 N1_2 1_555 1_555
C4_2 C3_2 1_555 1_555
H3_2 C4_2 1_555 1_555
H4_2 C5_2 1_555 1_555
H1_2 C1_2 1_555 1_555
H2_2 C2_2 1_555 1_555
H10_2 C12_2 1_555 1_555
H18A C22A 1_555 1_555
O5A Mo2A 1_555 1_555
O6A Mo2A 1_555 1_555
O7A Mo2A 1_555 1_555
O8A Mo3A 1_555 1_555
O9A Mo3A 1_555 1_555
O10A Mo3A 1_555 1_555
O11A Mo4A 1_555 1_555
O12A Mo4A 1_555 1_555
O1_2 Cu1A_3 1_555 1_555
Mo3 O7 1_555 1_555
Mo4 O4A 1_555 1_555
Mo4 O10 1_555 1_555
O13 Mo4A 1_555 1_555
C9 C10 1_555 1_555
C16 C17 1_555 1_555
C21 C24 1_555 1_555
C16A C17A 1_555 1_555
C23A C22A 1_555 1_555
Mo2A O13A 1_555 1_555
Mo3A O2A 1_555 1_555
Mo3A O7A 1_555 1_555
Mo4A O3A 1_555 1_555
Mo4A O10A 1_555 1_555
Mo1A O2A 1_555 1_555
Mo1A O4A 1_555 1_555
Cu1_3 O1_2 1_555 1_555
C10_2 C9_2 1_555 1_555
C5_2 C4_2 1_555 1_555

#END
