
#######################################################################
#
#                 Cambridge Crystallographic Data Centre
#                                CCDC 
#
#######################################################################
#
# If this CIF has been generated from an entry in the Cambridge 
# Structural Database, then it will include bibliographic, chemical, 
# crystal, experimental, refinement or atomic coordinate data resulting 
# from the CCDC's data processing and validation procedures.
#
#######################################################################

data_GONSAF
_symmetry_cell_setting           monoclinic
_symmetry_space_group_name_H-M   'C 2/c'
_symmetry_Int_Tables_number      15
_space_group_name_Hall           '-C 2yn'
loop_
_symmetry_equiv_pos_site_id
_symmetry_equiv_pos_as_xyz
1 x,y,z
2 -x,y,1/2-z
3 1/2+x,1/2+y,z
4 1/2-x,1/2+y,1/2-z
5 -x,-y,-z
6 x,-y,1/2+z
7 1/2-x,1/2-y,-z
8 1/2+x,1/2-y,1/2+z
_cell_length_a                   10.0971(9)
_cell_length_b                   12.6952(12)
_cell_length_c                   11.4569(11)
_cell_angle_alpha                90
_cell_angle_beta                 96.573(2)
_cell_angle_gamma                90
_cell_volume                     1458.95
loop_
_atom_site_label
_atom_site_type_symbol
_atom_site_fract_x
_atom_site_fract_y
_atom_site_fract_z
O1 O 0.6655(3) 0.5824(2) 0.0876(3)
O2 O 1.0000 0.9753(3) 0.2500
O3 O 0.4250(3) 0.6923(2) -0.0680(2)
C1 C 0.4397(4) 0.7019(3) 0.0418(3)
N1 N 0.4896(3) 0.8811(2) 0.0965(3)
C2 C 0.5401(4) 0.7830(3) 0.0927(3)
Ag1 Ag 0.22757(3) 0.57474(2) -0.05379(3)
Ca1 Ca 1.0000 0.78776(8) 0.2500
C3 C 0.7055(4) 0.9387(3) 0.1718(4)
H1 H 0.7611 0.9946 0.1968
N2 N 0.7559(3) 0.8413(2) 0.1719(3)
O4 O 0.8586(3) 0.6479(2) 0.1700(3)
O5 O 0.3726(3) 0.6569(2) 0.1114(3)
C4 C 0.6745(4) 0.7635(3) 0.1319(3)
C5 C 0.5738(4) 0.9579(3) 0.1357(3)
H2 H 0.5418 1.0264 0.1386
C6 C 0.7385(4) 0.6551(3) 0.1306(3)
H3 H 0.9991 1.0125 0.1892
H3A H 1.0009 1.0125 0.3108
O1A O 1.3345(3) 0.5824(2) 0.4124(3)
O3A O 1.5750(3) 0.6923(2) 0.5680(2)
C1A C 1.5603(4) 0.7019(3) 0.4582(3)
N1A N 1.5104(3) 0.8811(2) 0.4035(3)
C2A C 1.4599(4) 0.7830(3) 0.4073(3)
Ag1A Ag 1.77243(3) 0.57474(2) 0.55379(3)
C3A C 1.2945(4) 0.9387(3) 0.3282(4)
H1A H 1.2389 0.9946 0.3032
N2A N 1.2441(3) 0.8413(2) 0.3281(3)
O4A O 1.1414(3) 0.6479(2) 0.3300(3)
O5A O 1.6274(3) 0.6569(2) 0.3886(3)
C4A C 1.3255(4) 0.7635(3) 0.3681(3)
C5A C 1.4262(4) 0.9579(3) 0.3643(3)
H2A H 1.4582 1.0264 0.3614
C6A C 1.2615(4) 0.6551(3) 0.3694(3)
O1D O 0.3345(3) 0.4176(2) -0.0876(3)
O1E O 1.6655(3) 0.4176(2) 0.5876(3)
O3F O 1.0750(3) 0.8077(2) 0.0680(2)
O3G O 0.9250(3) 0.8077(2) 0.4320(2)
N1F N 0.0104(3) 0.6189(2) -0.0965(3)
N1G N 1.9896(3) 0.6189(2) 0.5965(3)
Ag1D Ag 0.77243(3) 0.42526(2) 0.05379(3)
Ag1E Ag 1.22757(3) 0.42526(2) 0.44621(3)
Ag1F Ag 0.27243(3) 0.92526(2) 0.05379(3)
Ag1G Ag 1.72757(3) 0.92526(2) 0.44621(3)
Ca1F Ca 0.5000 0.71224(8) -0.2500
Ca1F_2 Ca 1.5000 0.71224(8) 0.7500
loop_
_geom_bond_atom_site_label_1
_geom_bond_atom_site_label_2
_geom_bond_site_symmetry_1
_geom_bond_site_symmetry_2
O1 C6 1_555 1_555
O2 Ca1 1_555 1_555
O3 C1 1_555 1_555
C1 C2 1_555 1_555
N1 C2 1_555 1_555
C2 C4 1_555 1_555
Ag1 O3 1_555 1_555
Ca1 N2 1_555 1_555
C3 H1 1_555 1_555
N2 C3 1_555 1_555
O4 Ca1 1_555 1_555
O5 C1 1_555 1_555
C4 N2 1_555 1_555
C5 N1 1_555 1_555
H2 C5 1_555 1_555
C6 O4 1_555 1_555
H3 O2 1_555 1_555
H3A O2 1_555 1_555
O1A C6A 1_555 1_555
O3A C1A 1_555 1_555
C1A C2A 1_555 1_555
N1A C2A 1_555 1_555
C2A C4A 1_555 1_555
Ag1A O3A 1_555 1_555
C3A H1A 1_555 1_555
N2A Ca1 1_555 1_555
O4A Ca1 1_555 1_555
O5A C1A 1_555 1_555
C4A N2A 1_555 1_555
C5A N1A 1_555 1_555
H2A C5A 1_555 1_555
C6A O4A 1_555 1_555
O1D Ag1 1_555 1_555
O1E Ag1A 1_555 1_555
O3F Ca1 1_555 1_555
O3G Ca1 1_555 1_555
N1F Ag1 1_555 1_555
N1G Ag1A 1_555 1_555
Ag1D O1 1_555 1_555
Ag1E O1A 1_555 1_555
Ag1F N1 1_555 1_555
Ag1G N1A 1_555 1_555
Ca1F O3 1_555 1_555
Ca1F_2 O3A 1_555 1_555
Ag1 O5 1_555 1_555
C3 C5 1_555 1_555
C4 C6 1_555 1_555
Ag1A O5A 1_555 1_555
C3A N2A 1_555 1_555
C3A C5A 1_555 1_555
C4A C6A 1_555 1_555

#END
