
#######################################################################
#
#                 Cambridge Crystallographic Data Centre
#                                CCDC 
#
#######################################################################
#
# If this CIF has been generated from an entry in the Cambridge 
# Structural Database, then it will include bibliographic, chemical, 
# crystal, experimental, refinement or atomic coordinate data resulting 
# from the CCDC's data processing and validation procedures.
#
#######################################################################

data_GONSAD
_symmetry_cell_setting           triclinic
_symmetry_space_group_name_H-M   'P -1'
_symmetry_Int_Tables_number      2
_space_group_name_Hall           '-P 1'
loop_
_symmetry_equiv_pos_site_id
_symmetry_equiv_pos_as_xyz
1 x,y,z
2 -x,-y,-z
_cell_length_a                   9.8995(4)
_cell_length_b                   9.9102(3)
_cell_length_c                   10.6930(4)
_cell_angle_alpha                89.093(1)
_cell_angle_beta                 72.909(1)
_cell_angle_gamma                72.650(1)
_cell_volume                     954.129
loop_
_atom_site_label
_atom_site_type_symbol
_atom_site_fract_x
_atom_site_fract_y
_atom_site_fract_z
Mo1 Mo 0.3178(1) 0.5349(1) 0.4820(1)
Mo2 Mo 0.4074(1) 0.8016(1) 0.5571(1)
Mo3 Mo 0.4010(1) 0.5453(1) 0.7808(1)
Mo4 Mo 0.2995(1) 0.2770(1) 0.7051(1)
Cu1 Cu 0.4253(1) -0.0309(1) 0.8618(1)
Cu2 Cu 0.5240(1) 0.2356(1) 0.9325(1)
O1 O 0.1371(7) 0.2354(7) 0.7545(6)
O2 O 0.2116(6) 0.4329(6) 0.5741(5)
O3 O 0.3103(7) 0.6884(6) 0.8937(5)
O4 O 0.2043(6) 0.6405(6) 0.4037(6)
O5 O 0.2919(6) 0.6653(5) 0.6294(5)
O6 O 0.2502(6) 0.4554(5) 0.8037(5)
O7 O 0.2921(7) 0.8956(6) 0.4742(6)
O8 O 0.5945(6) 0.8241(6) 0.4642(5)
O9 O 0.4465(6) 0.3842(5) 0.3452(5)
O10 O 0.5094(5) 0.6054(5) 0.4131(5)
O11 O 0.4104(7) 0.1767(6) 0.7954(6)
O12 O 0.3614(7) 0.9049(6) 0.7000(5)
O13 O 0.5175(7) 0.4269(6) 0.8530(5)
N1 N 0.2505(7) -0.0034(7) 1.0225(6)
N2 N 0.3581(7) 0.2759(7) 1.0996(6)
N3 N 0.6270(8) -0.1720(7) 0.8136(7)
N4 N 0.7258(8) 0.1005(7) 0.8871(6)
C1 C -0.0034(10) 0.0964(11) 1.1549(9)
C2 C 0.0227(10) -0.0044(11) 1.2443(9)
C3 C 0.7340(9) -0.1848(9) 0.6993(8)
C4 C 0.8600(11) -0.3022(11) 0.6642(9)
C5 C 0.8774(10) -0.4097(10) 0.7499(9)
C6 C 0.2395(10) 0.3891(10) 1.1330(9)
C7 C 0.1189(10) 0.0915(9) 1.0452(8)
C8 C 0.8374(10) 0.1001(9) 0.7819(8)
H1 H -0.0960(10) 0.1628(11) 1.1670(9)
H2 H -0.0525(10) -0.0069(11) 1.3199(9)
H3 H 0.7235(9) -0.1133(9) 0.6422(8)
H4 H 0.9325(11) -0.3094(11) 0.5840(9)
H5 H 0.9609(10) -0.4895(10) 0.7305(9)
H6 H 0.2332(10) 0.4598(10) 1.0748(9)
H7 H 0.1060(10) 0.1594(9) 0.9851(8)
H8 H 0.8203(10) 0.1680(9) 0.7227(8)
O9A O 0.5535(6) 0.6158(5) 0.6548(5)
Mo1A Mo 0.6822(1) 0.4651(1) 0.5180(1)
Mo2A Mo 0.5926(1) 0.1984(1) 0.4429(1)
O5A O 0.7081(6) 0.3347(5) 0.3706(5)
O2A O 0.7884(6) 0.5671(6) 0.4259(5)
Mo4A Mo 0.7005(1) 0.7230(1) 0.2949(1)
O1A O 0.8629(7) 0.7646(7) 0.2455(6)
O6A O 0.7498(6) 0.5446(5) 0.1963(5)
Mo3A Mo 0.5990(1) 0.4547(1) 0.2192(1)
O3A O 0.6897(7) 0.3116(6) 0.1063(5)
O4A O 0.7957(6) 0.3595(6) 0.5963(6)
O10A O 0.4906(5) 0.3946(5) 0.5869(5)
O7A O 0.7079(7) 0.1044(6) 0.5258(6)
O8A O 0.4055(6) 0.1759(6) 0.5358(5)
O12_2 O 0.3614(7) -0.0951(6) 0.7000(5)
Cu1A Cu 0.5747(1) 0.0309(1) 0.1382(1)
O12A O 0.6386(7) 0.0951(6) 0.3000(5)
N2A N 0.6419(7) -0.2759(7) 0.9004(6)
N1A N 0.7495(7) 0.0034(7) 0.9775(6)
C2A C 0.9773(10) 0.0044(11) 0.7557(9)
O13A O 0.4825(7) 0.5731(6) 0.1470(5)
Cu2A Cu 0.4760(1) 0.7644(1) 0.0675(1)
O11A O 0.5896(7) 0.8233(6) 0.2046(6)
Cu1A_2 Cu 0.5747(1) 1.0309(1) 0.1382(1)
Cu1_2 Cu 0.4253(1) 0.9691(1) 0.8618(1)
N4A N 0.2742(8) -0.1005(7) 1.1129(6)
Cu2A_2 Cu 0.4760(1) -0.2356(1) 1.0675(1)
O11A_2 O 0.5896(7) -0.1767(6) 1.2046(6)
Cu1A_3 Cu 0.5747(1) 0.0309(1) 1.1382(1)
C8A C 0.1626(10) -0.1001(9) 1.2181(8)
H8A H 0.1797(10) -0.1680(9) 1.2773(8)
N3A N 0.3730(8) 0.1720(7) 1.1864(7)
C3A C 0.2660(9) 0.1848(9) 1.3007(8)
C4A C 0.1400(11) 0.3022(11) 1.3358(9)
C5A C 0.1226(10) 0.4097(10) 1.2501(9)
H4A H 0.0675(11) 0.3094(11) 1.4160(9)
H3A H 0.2765(9) 0.1133(9) 1.3578(8)
C6A C 0.7605(10) -0.3891(10) 0.8670(9)
H6A H 0.7668(10) -0.4598(10) 0.9252(9)
O12A_2 O 0.6386(7) 0.0951(6) 1.3000(5)
C7A C 0.8811(10) -0.0915(9) 0.9548(8)
C1A C 1.0034(10) -0.0964(11) 0.8451(9)
H1A H 1.0960(10) -0.1628(11) 0.8330(9)
H7A H 0.8940(10) -0.1594(9) 1.0149(8)
H2A H 1.0525(10) 0.0069(11) 0.6801(9)
O11_2 O 0.4104(7) 1.1767(6) 0.7954(6)
N1_2 N 0.2505(7) 0.9966(7) 1.0225(6)
N3_2 N 0.6270(8) 0.8280(7) 0.8136(7)
H5A H 0.0391(10) 0.4895(10) 1.2695(9)
loop_
_geom_bond_atom_site_label_1
_geom_bond_atom_site_label_2
_geom_bond_site_symmetry_1
_geom_bond_site_symmetry_2
Mo1 Mo2 1_555 1_555
Mo2 O5 1_555 1_555
Mo3 O3 1_555 1_555
Mo4 O1 1_555 1_555
Cu1 O11 1_555 1_555
Cu2 O11 1_555 1_555
O2 Mo1 1_555 1_555
O4 Mo1 1_555 1_555
O5 Mo1 1_555 1_555
O6 Mo3 1_555 1_555
O7 Mo2 1_555 1_555
O8 Mo2 1_555 1_555
O9 Mo1 1_555 1_555
O10 Mo1 1_555 1_555
O11 Mo4 1_555 1_555
O12 Mo2 1_555 1_555
O13 Mo3 1_555 1_555
N1 Cu1 1_555 1_555
N2 Cu2 1_555 1_555
N3 Cu1 1_555 1_555
N4 Cu2 1_555 1_555
C1 C2 1_555 1_555
C2 H2 1_555 1_555
C3 N3 1_555 1_555
C4 C3 1_555 1_555
C5 C4 1_555 1_555
C6 N2 1_555 1_555
C7 N1 1_555 1_555
C8 N4 1_555 1_555
H1 C1 1_555 1_555
H3 C3 1_555 1_555
H4 C4 1_555 1_555
H5 C5 1_555 1_555
H6 C6 1_555 1_555
H7 C7 1_555 1_555
H8 C8 1_555 1_555
O9A Mo2 1_555 1_555
Mo1A O10 1_555 1_555
Mo2A O9 1_555 1_555
O5A Mo1A 1_555 1_555
O2A Mo1A 1_555 1_555
Mo4A O8 1_555 1_555
O1A Mo4A 1_555 1_555
O6A Mo4A 1_555 1_555
Mo3A O9 1_555 1_555
O3A Mo3A 1_555 1_555
O4A Mo1A 1_555 1_555
O10A Mo1 1_555 1_555
O7A Mo2A 1_555 1_555
O8A Mo4 1_555 1_555
O12_2 Cu1 1_555 1_555
Cu1A O12A 1_555 1_555
O12A Mo2A 1_555 1_555
N2A N3 1_555 1_555
N1A N4 1_555 1_555
C2A C8 1_555 1_555
O13A Mo3A 1_555 1_555
Cu2A O13A 1_555 1_555
O11A Mo4A 1_555 1_555
Cu1A_2 O11A 1_555 1_555
Cu1_2 O12 1_555 1_555
N4A N1 1_555 1_555
Cu2A_2 N2A 1_555 1_555
O11A_2 Cu2A_2 1_555 1_555
Cu1A_3 N1A 1_555 1_555
C8A C2 1_555 1_555
H8A C8A 1_555 1_555
N3A N2 1_555 1_555
C3A N3A 1_555 1_555
C4A C3A 1_555 1_555
C5A C6 1_555 1_555
H4A C4A 1_555 1_555
H3A C3A 1_555 1_555
C6A C5 1_555 1_555
H6A C6A 1_555 1_555
O12A_2 Cu1A_3 1_555 1_555
C7A N1A 1_555 1_555
C1A C2A 1_555 1_555
H1A C1A 1_555 1_555
H7A C7A 1_555 1_555
H2A C2A 1_555 1_555
O11_2 Cu1_2 1_555 1_555
N1_2 Cu1_2 1_555 1_555
N3_2 Cu1_2 1_555 1_555
H5A C5A 1_555 1_555
Mo2 O10 1_555 1_555
Mo3 O5 1_555 1_555
Mo3 O9A 1_555 1_555
Mo3 O10A 1_555 1_555
Mo4 O2 1_555 1_555
Mo4 O6 1_555 1_555
Cu2 O13 1_555 1_555
O10 Mo3A 1_555 1_555
C1 C7 1_555 1_555
O9A Mo1A 1_555 1_555
Mo1A Mo2A 1_555 1_555
Mo1A O10A 1_555 1_555
Mo2A O5A 1_555 1_555
Mo2A O10A 1_555 1_555
Mo2A O8A 1_555 1_555
O5A Mo3A 1_555 1_555
O2A Mo4A 1_555 1_555
O6A Mo3A 1_555 1_555
N2A C6A 1_555 1_555
Cu2A O11A 1_555 1_555
N4A Cu2A_2 1_555 1_555
N4A C8A 1_555 1_555
O11A_2 Cu1A_3 1_555 1_555
Cu1A_3 N3A 1_555 1_555
C4A C5A 1_555 1_555
C7A C1A 1_555 1_555

#END
