
#######################################################################
#
#                 Cambridge Crystallographic Data Centre
#                                CCDC 
#
#######################################################################
#
# If this CIF has been generated from an entry in the Cambridge 
# Structural Database, then it will include bibliographic, chemical, 
# crystal, experimental, refinement or atomic coordinate data resulting 
# from the CCDC's data processing and validation procedures.
#
#######################################################################

data_GONTAG
_symmetry_cell_setting           monoclinic
_symmetry_space_group_name_H-M   'C 2/c'
_symmetry_Int_Tables_number      15
_space_group_name_Hall           '-C 2yn'
loop_
_symmetry_equiv_pos_site_id
_symmetry_equiv_pos_as_xyz
1 x,y,z
2 -x,y,1/2-z
3 1/2+x,1/2+y,z
4 1/2-x,1/2+y,1/2-z
5 -x,-y,-z
6 x,-y,1/2+z
7 1/2-x,1/2-y,-z
8 1/2+x,1/2-y,1/2+z
_cell_length_a                   10.95(2)
_cell_length_b                   17.70(3)
_cell_length_c                   7.843(15)
_cell_angle_alpha                90
_cell_angle_beta                 102.33(4)
_cell_angle_gamma                90
_cell_volume                     1485.03
loop_
_atom_site_label
_atom_site_type_symbol
_atom_site_fract_x
_atom_site_fract_y
_atom_site_fract_z
Ca1 Ca 0.5000 0.53217(6) 0.2500
C1 C 0.3590(3) 0.4000(2) 0.0925(5)
C2 C 0.3026(3) 0.3232(2) 0.0441(5)
C3 C 0.1788(4) 0.3077(3) 0.0379(8)
C4 C 0.1274(4) 0.2376(3) -0.0060(7)
C5 C 0.2057(6) 0.6039(6) 0.0819(11)
H1 H 0.1591 0.5723 -0.0086
H2 H 0.1765 0.6550 0.0642
H3 H 0.1945 0.5864 0.1933
F1 F 0.1048(3) 0.36471(19) 0.0712(8)
F2 F 0.0047(3) 0.22824(19) -0.0119(8)
O1 O 0.3537(3) 0.42601(16) 0.2372(4)
O2 O 0.4116(3) 0.43239(15) -0.0156(4)
O3 O 0.3317(3) 0.6010(2) 0.0773(4)
H4 H 0.3442 0.6025 -0.0221
C1F C 0.1410(3) 0.1000(2) -0.0925(5)
C2F C 0.1974(3) 0.1768(2) -0.0441(5)
C3F C 0.3212(4) 0.1923(3) -0.0379(8)
C4F C 0.3726(4) 0.2624(3) 0.0060(7)
F1F F 0.3952(3) 0.13529(19) -0.0712(8)
F2F F 0.4953(3) 0.27176(19) 0.0119(8)
O1F O 0.1463(3) 0.07399(16) -0.2372(4)
O2F O 0.0884(3) 0.06761(15) 0.0156(4)
C5A C 0.7943(6) 0.6039(6) 0.4181(11)
H1A H 0.8409 0.5723 0.5086
H2A H 0.8235 0.6550 0.4358
H3A H 0.8055 0.5864 0.3067
O3A O 0.6683(3) 0.6010(2) 0.4227(4)
H4A H 0.6558 0.6025 0.5221
Ca1B Ca 0.0000 0.03217(6) 0.2500
Ca1D Ca 0.5000 0.46783(6) -0.2500
Ca1F Ca 0.0000 -0.03217(6) -0.2500
O1A O 0.6463(3) 0.42601(16) 0.2628(4)
O2A O 0.5884(3) 0.43239(15) 0.5156(4)
O2D O 0.5884(3) 0.56761(15) 0.0156(4)
O2E O 0.4116(3) 0.56761(15) 0.4844(4)
loop_
_geom_bond_atom_site_label_1
_geom_bond_atom_site_label_2
_geom_bond_site_symmetry_1
_geom_bond_site_symmetry_2
Ca1 O1 1_555 1_555
C1 C2 1_555 1_555
C2 C3 1_555 1_555
C3 C4 1_555 1_555
C4 F2 1_555 1_555
C5 H1 1_555 1_555
H2 C5 1_555 1_555
H3 C5 1_555 1_555
F1 C3 1_555 1_555
O1 C1 1_555 1_555
O2 Ca1 1_555 1_555
O3 Ca1 1_555 1_555
H4 O3 1_555 1_555
C1F C2F 1_555 1_555
C2F C4 1_555 1_555
C3F C2F 1_555 1_555
C4F C2 1_555 1_555
F1F C3F 1_555 1_555
F2F C4F 1_555 1_555
O1F C1F 1_555 1_555
O2F C1F 1_555 1_555
C5A H1A 1_555 1_555
H2A C5A 1_555 1_555
H3A C5A 1_555 1_555
O3A Ca1 1_555 1_555
H4A O3A 1_555 1_555
Ca1B O2F 1_555 1_555
Ca1D O2 1_555 1_555
Ca1F O1F 1_555 1_555
O1A Ca1 1_555 1_555
O2A Ca1 1_555 1_555
O2D Ca1 1_555 1_555
O2E Ca1 1_555 1_555
C1 O2 1_555 1_555
C5 O3 1_555 1_555
C3F C4F 1_555 1_555
O2F Ca1F 1_555 1_555
C5A O3A 1_555 1_555
Ca1D O2D 1_555 1_555

#END
