
#######################################################################
#
#                 Cambridge Crystallographic Data Centre
#                                CCDC 
#
#######################################################################
#
# If this CIF has been generated from an entry in the Cambridge 
# Structural Database, then it will include bibliographic, chemical, 
# crystal, experimental, refinement or atomic coordinate data resulting 
# from the CCDC's data processing and validation procedures.
#
#######################################################################

data_GONVAG
_symmetry_cell_setting           monoclinic
_symmetry_space_group_name_H-M   'C 2/c'
_symmetry_Int_Tables_number      15
_space_group_name_Hall           '-C 2yn'
loop_
_symmetry_equiv_pos_site_id
_symmetry_equiv_pos_as_xyz
1 x,y,z
2 -x,y,1/2-z
3 1/2+x,1/2+y,z
4 1/2-x,1/2+y,1/2-z
5 -x,-y,-z
6 x,-y,1/2+z
7 1/2-x,1/2-y,-z
8 1/2+x,1/2-y,1/2+z
_cell_length_a                   22.143(2)
_cell_length_b                   9.239(2)
_cell_length_c                   7.553(3)
_cell_angle_alpha                90
_cell_angle_beta                 101.41(2)
_cell_angle_gamma                90
_cell_volume                     1514.65
loop_
_atom_site_label
_atom_site_type_symbol
_atom_site_fract_x
_atom_site_fract_y
_atom_site_fract_z
Cd1 Cd 0.5000 0.5529(1) 0.2500
S1 S 0.3941(1) 0.6522(2) 0.1445(2)
C1 C 0.4150(2) 0.6750(5) -0.0639(7)
O1 O 0.4684(2) 0.6367(4) -0.0823(5)
N1 N 0.3751(2) 0.7350(5) -0.2013(6)
C2 C 0.3114(3) 0.7698(8) -0.1902(9)
C3 C 0.2679(3) 0.6454(11) -0.2413(12)
C4 C 0.3919(3) 0.7596(8) -0.3782(8)
C5 C 0.4079(5) 0.9114(10) -0.4090(15)
H1 H 0.2976(3) 0.8509(8) -0.2694(9)
H2 H 0.3102(3) 0.7995(8) -0.0677(9)
H3 H 0.2271(3) 0.6743(11) -0.2316(12)
H4 H 0.2808(3) 0.5654(11) -0.1617(12)
H5 H 0.2681(3) 0.6169(11) -0.3634(12)
H6 H 0.3577(3) 0.7307(8) -0.4726(8)
H7 H 0.4268(3) 0.6985(8) -0.3876(8)
H8 H 0.4183(5) 0.9201(10) -0.5260(15)
H9 H 0.4425(5) 0.9402(10) -0.3179(15)
H10 H 0.3733(5) 0.9725(10) -0.4030(15)
S1A S 0.6059(1) 0.6522(2) 0.3555(2)
C1A C 0.5850(2) 0.6750(5) 0.5639(7)
O1A O 0.5316(2) 0.6367(4) 0.5823(5)
O1D O 0.5316(2) 0.3633(4) 0.0823(5)
Cd1D Cd 0.5000 0.4471(1) -0.2500
O1E O 0.4684(2) 0.3633(4) 0.4177(5)
Cd1E Cd 0.5000 0.4471(1) 0.7500
N1A N 0.6249(2) 0.7350(5) 0.7013(6)
C2A C 0.6886(3) 0.7698(8) 0.6902(9)
C3A C 0.7321(3) 0.6454(11) 0.7413(12)
H3A H 0.7729(3) 0.6743(11) 0.7316(12)
H4A H 0.7192(3) 0.5654(11) 0.6617(12)
H5A H 0.7319(3) 0.6169(11) 0.8634(12)
H1A H 0.7024(3) 0.8509(8) 0.7694(9)
H2A H 0.6898(3) 0.7995(8) 0.5677(9)
C4A C 0.6081(3) 0.7596(8) 0.8782(8)
C5A C 0.5921(5) 0.9114(10) 0.9090(15)
H8A H 0.5817(5) 0.9201(10) 1.0260(15)
H9A H 0.5575(5) 0.9402(10) 0.8179(15)
H10A H 0.6267(5) 0.9725(10) 0.9030(15)
H6A H 0.6423(3) 0.7307(8) 0.9726(8)
H7A H 0.5732(3) 0.6985(8) 0.8876(8)
loop_
_geom_bond_atom_site_label_1
_geom_bond_atom_site_label_2
_geom_bond_site_symmetry_1
_geom_bond_site_symmetry_2
Cd1 S1 1_555 1_555
S1 C1 1_555 1_555
C1 O1 1_555 1_555
O1 Cd1 1_555 1_555
N1 C1 1_555 1_555
C2 N1 1_555 1_555
C3 C2 1_555 1_555
C4 N1 1_555 1_555
C5 C4 1_555 1_555
H1 C2 1_555 1_555
H2 C2 1_555 1_555
H3 C3 1_555 1_555
H4 C3 1_555 1_555
H5 C3 1_555 1_555
H6 C4 1_555 1_555
H7 C4 1_555 1_555
H8 C5 1_555 1_555
H9 C5 1_555 1_555
H10 C5 1_555 1_555
S1A Cd1 1_555 1_555
C1A S1A 1_555 1_555
O1A Cd1 1_555 1_555
O1D Cd1 1_555 1_555
Cd1D O1 1_555 1_555
O1E Cd1 1_555 1_555
Cd1E O1A 1_555 1_555
N1A C1A 1_555 1_555
C2A N1A 1_555 1_555
C3A C2A 1_555 1_555
H3A C3A 1_555 1_555
H4A C3A 1_555 1_555
H5A C3A 1_555 1_555
H1A C2A 1_555 1_555
H2A C2A 1_555 1_555
C4A N1A 1_555 1_555
C5A C4A 1_555 1_555
H8A C5A 1_555 1_555
H9A C5A 1_555 1_555
H10A C5A 1_555 1_555
H6A C4A 1_555 1_555
H7A C4A 1_555 1_555
C1A O1A 1_555 1_555
O1D Cd1D 1_555 1_555
O1E Cd1E 1_555 1_555

#END
