
#######################################################################
#
#                 Cambridge Crystallographic Data Centre
#                                CCDC 
#
#######################################################################
#
# If this CIF has been generated from an entry in the Cambridge 
# Structural Database, then it will include bibliographic, chemical, 
# crystal, experimental, refinement or atomic coordinate data resulting 
# from the CCDC's data processing and validation procedures.
#
#######################################################################

data_GONXEM
_symmetry_cell_setting           triclinic
_symmetry_space_group_name_H-M   'P -1'
_symmetry_Int_Tables_number      2
_space_group_name_Hall           '-P 1'
loop_
_symmetry_equiv_pos_site_id
_symmetry_equiv_pos_as_xyz
1 x,y,z
2 -x,-y,-z
_cell_length_a                   8.281(1)
_cell_length_b                   10.011(3)
_cell_length_c                   11.488(4)
_cell_angle_alpha                106.16(2)
_cell_angle_beta                 97.04(3)
_cell_angle_gamma                91.75(3)
_cell_volume                     905.751
loop_
_atom_site_label
_atom_site_type_symbol
_atom_site_fract_x
_atom_site_fract_y
_atom_site_fract_z
Ag1 Ag -0.4666(1) 0.6038(1) 0.8613(1)
C1 C -0.2346(10) 0.2598(9) 0.5299(7)
C2 C -0.3837(10) 0.2883(9) 0.5694(7)
C3 C -0.4589(10) 0.2038(9) 0.6246(8)
C4 C -0.3870(11) 0.0805(10) 0.6378(8)
C5 C -0.2404(11) 0.0505(9) 0.5933(8)
C6 C -0.1645(10) 0.1383(9) 0.5401(8)
C7 C -0.1472(10) 0.3623(9) 0.4828(8)
S1 S -0.2521(3) 0.3964(2) 0.3471(2)
N1 N -0.3465(9) 0.2316(8) 0.1300(7)
C8 C -0.2385(10) 0.2415(10) 0.2288(8)
C9 C -0.1291(11) 0.1440(10) 0.2350(9)
C10 C -0.1284(12) 0.0294(10) 0.1353(10)
C11 C -0.2408(13) 0.0181(10) 0.0317(9)
C12 C -0.3436(11) 0.1201(9) 0.0328(9)
C13 C -0.6161(10) 0.2405(10) 0.6729(8)
S2 S -0.5723(2) 0.3424(2) 0.8352(2)
N2 N -0.7694(8) 0.3500(7) 0.9975(6)
C14 C -0.7690(10) 0.3445(8) 0.8797(8)
C15 C -0.9121(11) 0.3335(10) 0.7993(8)
C16 C -1.0591(10) 0.3263(10) 0.8419(9)
C17 C -1.0622(11) 0.3294(9) 0.9621(9)
C18 C -0.9141(11) 0.3444(9) 1.0376(8)
N3 N -0.7173(8) 0.2938(8) 0.3224(7)
O1 O -0.7732(8) 0.2888(7) 0.4185(6)
O2 O -0.7010(8) 0.4073(7) 0.2989(7)
O3 O -0.6807(10) 0.1865(7) 0.2512(7)
H1 H -0.4351(10) 0.3682(9) 0.5582(7)
H2 H -0.4380(11) 0.0208(10) 0.6759(8)
H3 H -0.1910(11) -0.0321(9) 0.5996(8)
H4 H -0.0638(10) 0.1157(9) 0.5102(8)
H5 H -0.1271(10) 0.4516(9) 0.5485(8)
H6 H -0.0397(10) 0.3278(9) 0.4646(8)
H7 H -0.0542(11) 0.1549(10) 0.3071(9)
H8 H -0.0534(12) -0.0401(10) 0.1371(10)
H9 H -0.2448(13) -0.0601(10) -0.0384(9)
H10 H -0.4180(11) 0.1128(9) -0.0389(9)
H11 H -0.6770(10) 0.2960(10) 0.6253(8)
H12 H -0.6840(10) 0.1545(10) 0.6649(8)
H13 H -0.9082(11) 0.3311(10) 0.7165(8)
H14 H -1.1582(10) 0.3191(10) 0.7885(9)
H15 H -1.1626(11) 0.3214(9) 0.9926(9)
H16 H -0.9156(11) 0.3511(9) 1.1216(8)
S2A S -0.4277(2) 0.6576(2) 0.1648(2)
Ag1A Ag -0.5334(1) 0.3962(1) 0.1387(1)
Ag1A_2 Ag -0.5334(1) 0.3962(1) 1.1387(1)
N2_2 N -0.7694(8) 0.3500(7) -0.0025(6)
loop_
_geom_bond_atom_site_label_1
_geom_bond_atom_site_label_2
_geom_bond_site_symmetry_1
_geom_bond_site_symmetry_2
Ag1 S2 1_555 1_555
C1 C2 1_555 1_555
C2 C3 1_555 1_555
C3 C4 1_555 1_555
C4 C5 1_555 1_555
C5 C6 1_555 1_555
C6 C1 1_555 1_555
C7 C1 1_555 1_555
S1 C7 1_555 1_555
N1 C8 1_555 1_555
C8 S1 1_555 1_555
C9 C8 1_555 1_555
C10 C9 1_555 1_555
C11 C10 1_555 1_555
C12 N1 1_555 1_555
C13 C3 1_555 1_555
S2 C13 1_555 1_555
N2 C14 1_555 1_555
C14 S2 1_555 1_555
C15 C14 1_555 1_555
C16 C15 1_555 1_555
C17 C16 1_555 1_555
C18 N2 1_555 1_555
N3 O1 1_555 1_555
O2 N3 1_555 1_555
O3 N3 1_555 1_555
H1 C2 1_555 1_555
H2 C4 1_555 1_555
H3 C5 1_555 1_555
H4 C6 1_555 1_555
H5 C7 1_555 1_555
H6 C7 1_555 1_555
H7 C9 1_555 1_555
H8 C10 1_555 1_555
H9 C11 1_555 1_555
H10 C12 1_555 1_555
H11 C13 1_555 1_555
H12 C13 1_555 1_555
H13 C15 1_555 1_555
H14 C16 1_555 1_555
H15 C17 1_555 1_555
H16 C18 1_555 1_555
S2A Ag1A 1_555 1_555
Ag1A N1 1_555 1_555
Ag1A_2 N2 1_555 1_555
N2_2 Ag1A 1_555 1_555
C11 C12 1_555 1_555
C17 C18 1_555 1_555
O2 Ag1A 1_555 1_555

#END
