
#######################################################################
#
#                 Cambridge Crystallographic Data Centre
#                                CCDC 
#
#######################################################################
#
# If this CIF has been generated from an entry in the Cambridge 
# Structural Database, then it will include bibliographic, chemical, 
# crystal, experimental, refinement or atomic coordinate data resulting 
# from the CCDC's data processing and validation procedures.
#
#######################################################################

data_GOPCEV
_symmetry_cell_setting           triclinic
_symmetry_space_group_name_H-M   'P -1'
_symmetry_Int_Tables_number      2
_space_group_name_Hall           '-P 1'
loop_
_symmetry_equiv_pos_site_id
_symmetry_equiv_pos_as_xyz
1 x,y,z
2 -x,-y,-z
_cell_length_a                   9.753(6)
_cell_length_b                   14.101(8)
_cell_length_c                   14.740(8)
_cell_angle_alpha                116.334(10)
_cell_angle_beta                 108.889(10)
_cell_angle_gamma                90.034(10)
_cell_volume                     1693.9
loop_
_atom_site_label
_atom_site_type_symbol
_atom_site_fract_x
_atom_site_fract_y
_atom_site_fract_z
O1 O 0.6029(6) 0.5939(4) 0.6561(5)
C1 C 0.6308(9) 0.6044(7) 0.4204(7)
H1 H 0.5499 0.5502 0.3876
C2 C 0.7938(8) 0.7453(7) 0.5373(7)
C3 C 0.8303(9) 0.6972(7) 0.4450(7)
C4 C 0.9540(10) 0.7365(9) 0.4384(9)
H2 H 0.9789 0.7035 0.3769
C5 C 1.0387(11) 0.8287(10) 0.5300(10)
H3 H 1.1238 0.8586 0.5301
C6 C 1.0001(12) 0.8799(10) 0.6246(11)
H4 H 1.0584 0.9423 0.6849
C7 C 0.8770(10) 0.8356(8) 0.6240(8)
H5 H 0.8497 0.8679 0.6843
C8 C 0.7170(10) 0.5319(8) 0.2648(7)
H6 H 0.7543 0.4694 0.2683
H7 H 0.7809 0.5630 0.2429
C9 C 0.5668(10) 0.4965(8) 0.1804(8)
H8 H 0.5693 0.4434 0.1111
H9 H 0.5012 0.4642 0.2003
C10 C 0.3871(10) 0.5693(8) 0.0929(8)
C11 C 0.3505(10) 0.6609(8) 0.0861(8)
H10 H 0.4125 0.7265 0.1344
C12 C 0.2240(11) 0.6551(8) 0.0091(9)
H11 H 0.2021 0.7168 0.0032
C13 C 0.1258(10) 0.5591(8) -0.0615(8)
C14 C 0.1640(10) 0.4673(8) -0.0540(7)
C15 C 0.2965(11) 0.4741(8) 0.0242(8)
H12 H 0.3226 0.4126 0.0291
C16 C 0.0645(10) 0.3670(8) -0.1270(8)
H13 H 0.0884 0.3041 -0.1245
C17 C -0.0640(10) 0.3659(8) -0.1990(8)
C18 C -0.1022(11) 0.4562(9) -0.2070(8)
H14 H -0.1915 0.4526 -0.2578
C19 C -0.0092(11) 0.5499(9) -0.1409(9)
H15 H -0.0346 0.6106 -0.1476
C20 C -0.1419(11) 0.1738(9) -0.2791(8)
H16 H -0.1087 0.1772 -0.2079
H17 H -0.0684 0.1487 -0.3116
C21 C -0.2900(10) 0.1007(8) -0.3510(8)
H18 H -0.2778 0.0278 -0.3652
H19 H -0.3570 0.1221 -0.3119
C22 C -0.4198(10) 0.1796(8) -0.4666(8)
H20 H -0.4365 0.2387 -0.4115
C23 C -0.3530(9) 0.0283(7) -0.5524(8)
C24 C -0.2977(10) -0.0675(9) -0.5848(10)
H21 H -0.2520 -0.0928 -0.5359
C25 C -0.3137(13) -0.1232(10) -0.6927(10)
H22 H -0.2826 -0.1892 -0.7194
C26 C -0.3775(12) -0.0788(9) -0.7613(9)
H23 H -0.3826 -0.1152 -0.8329
C27 C -0.4324(10) 0.0142(8) -0.7299(8)
H24 H -0.4780 0.0398 -0.7785
C28 C -0.4169(9) 0.0683(7) -0.6224(7)
C29 C 0.2772(9) 0.6206(7) 0.5527(8)
C30 C 0.1326(8) 0.5584(7) 0.5237(7)
C31 C 0.0603(8) 0.5931(7) 0.5965(7)
H25 H 0.1009 0.6564 0.6614
C32 C -0.0708(8) 0.5356(7) 0.5746(7)
H26 H -0.1177 0.5592 0.6247
C33 C 0.7764(10) 0.8200(8) 0.8337(8)
C34 C 0.8897(9) 0.9146(7) 0.9207(7)
C35 C 0.8914(11) 1.0103(8) 0.9214(9)
H27 H 0.8181 1.0189 0.8680
C36 C 1.0002(12) 0.9053(8) 1.0003(9)
H28 H 1.0013 0.8397 1.0009
Co1 Co 0.53535(12) 0.71720(10) 0.61333(10)
N1 N 0.6650(7) 0.6834(6) 0.5180(6)
N2 N 0.7243(7) 0.6085(6) 0.3708(6)
N3 N -0.3538(8) 0.1019(6) -0.4507(6)
N4 N -0.4588(8) 0.1651(6) -0.5667(6)
O2 O 0.5172(7) 0.5852(6) 0.1723(6)
O3 O -0.1682(7) 0.2757(6) -0.2714(6)
O4 O 0.3369(6) 0.6976(5) 0.6440(5)
O5 O 0.3414(6) 0.5910(5) 0.4834(5)
O6 O 0.6784(6) 0.8297(5) 0.7610(5)
O7 O 0.7849(8) 0.7349(6) 0.8408(6)
C29A C -0.2772(9) 0.3794(7) 0.4473(8)
C30A C -0.1326(8) 0.4416(7) 0.4763(7)
C31A C -0.0603(8) 0.4069(7) 0.4035(7)
H25A H -0.1009 0.3436 0.3386
C32A C 0.0708(8) 0.4644(7) 0.4254(7)
H26A H 0.1177 0.4408 0.3753
O4A O -0.3369(6) 0.3024(5) 0.3560(5)
O5A O -0.3414(6) 0.4090(5) 0.5166(5)
C33A C 1.2236(10) 1.1800(8) 1.1663(8)
C34A C 1.1103(9) 1.0854(7) 1.0793(7)
C35A C 1.1086(11) 0.9897(8) 1.0786(9)
H27A H 1.1819 0.9811 1.1320
C36A C 0.9998(12) 1.0947(8) 0.9997(9)
H28A H 0.9987 1.1603 0.9991
O6A O 1.3216(6) 1.1703(5) 1.2390(5)
O7A O 1.2151(8) 1.2651(6) 1.1592(6)
O1A O -0.6029(6) 0.4061(4) -0.6561(5)
C1A C -0.6308(9) 0.3956(7) -0.4204(7)
H1A H -0.5499 0.4498 -0.3876
C2A C -0.7938(8) 0.2547(7) -0.5373(7)
C3A C -0.8303(9) 0.3028(7) -0.4450(7)
C4A C -0.9540(10) 0.2635(9) -0.4384(9)
H2A H -0.9789 0.2965 -0.3769
C5A C -1.0387(11) 0.1713(10) -0.5300(10)
H3A H -1.1238 0.1414 -0.5301
C6A C -1.0001(12) 0.1201(10) -0.6246(11)
H4A H -1.0584 0.0577 -0.6849
C7A C -0.8770(10) 0.1644(8) -0.6240(8)
H5A H -0.8497 0.1321 -0.6843
C8A C -0.7170(10) 0.4681(8) -0.2648(7)
H6A H -0.7543 0.5306 -0.2683
H7A H -0.7809 0.4370 -0.2429
C9A C -0.5668(10) 0.5035(8) -0.1804(8)
H8A H -0.5693 0.5566 -0.1111
H9A H -0.5012 0.5358 -0.2003
C10A C -0.3871(10) 0.4307(8) -0.0929(8)
C11A C -0.3505(10) 0.3391(8) -0.0861(8)
H10A H -0.4125 0.2735 -0.1344
C12A C -0.2240(11) 0.3449(8) -0.0091(9)
H11A H -0.2021 0.2832 -0.0032
C13A C -0.1258(10) 0.4409(8) 0.0615(8)
C14A C -0.1640(10) 0.5327(8) 0.0540(7)
C15A C -0.2965(11) 0.5259(8) -0.0242(8)
H12A H -0.3226 0.5874 -0.0291
C16A C -0.0645(10) 0.6330(8) 0.1270(8)
H13A H -0.0884 0.6959 0.1245
C17A C 0.0640(10) 0.6341(8) 0.1990(8)
C18A C 0.1022(11) 0.5438(9) 0.2070(8)
H14A H 0.1915 0.5474 0.2578
C19A C 0.0092(11) 0.4501(9) 0.1409(9)
H15A H 0.0346 0.3894 0.1476
C20A C 0.1419(11) 0.8262(9) 0.2791(8)
H16A H 0.1087 0.8228 0.2079
H17A H 0.0684 0.8513 0.3116
C21A C 0.2900(10) 0.8993(8) 0.3510(8)
H18A H 0.2778 0.9722 0.3652
H19A H 0.3570 0.8779 0.3119
C22A C 0.4198(10) 0.8204(8) 0.4666(8)
H20A H 0.4365 0.7613 0.4115
C23A C 0.3530(9) 0.9717(7) 0.5524(8)
C24A C 0.2977(10) 1.0675(9) 0.5848(10)
H21A H 0.2520 1.0928 0.5359
C25A C 0.3137(13) 1.1232(10) 0.6927(10)
H22A H 0.2826 1.1892 0.7194
C26A C 0.3775(12) 1.0788(9) 0.7613(9)
H23A H 0.3826 1.1152 0.8329
C27A C 0.4324(10) 0.9858(8) 0.7299(8)
H24A H 0.4780 0.9602 0.7785
C28A C 0.4169(9) 0.9317(7) 0.6224(7)
Co1A Co -0.53535(12) 0.28280(10) -0.61333(10)
N1A N -0.6650(7) 0.3166(6) -0.5180(6)
N2A N -0.7243(7) 0.3915(6) -0.3708(6)
N3A N 0.3538(8) 0.8981(6) 0.4507(6)
N4A N 0.4588(8) 0.8349(6) 0.5667(6)
O2A O -0.5172(7) 0.4148(6) -0.1723(6)
O3A O 0.1682(7) 0.7243(6) 0.2714(6)
Co1A_2 Co -0.53535(12) 0.28280(10) 0.38667(10)
Co1A_3 Co 1.46465(12) 1.28280(10) 1.38667(10)
O4A_2 O -0.3369(6) 0.3024(5) -0.6440(5)
O5A_2 O -0.3414(6) 0.4090(5) -0.4834(5)
O6A_2 O -0.6784(6) 0.1703(5) -0.7610(5)
O8 O -0.5000 0.0000 -1.0000
O9 O -0.371(4) 0.219(3) -0.872(3)
loop_
_geom_bond_atom_site_label_1
_geom_bond_atom_site_label_2
_geom_bond_site_symmetry_1
_geom_bond_site_symmetry_2
O1 Co1 1_555 1_555
C1 H1 1_555 1_555
C2 C3 1_555 1_555
C3 C4 1_555 1_555
C4 H2 1_555 1_555
C5 C4 1_555 1_555
H3 C5 1_555 1_555
C6 C5 1_555 1_555
H4 C6 1_555 1_555
C7 C2 1_555 1_555
H5 C7 1_555 1_555
C8 H6 1_555 1_555
H7 C8 1_555 1_555
C9 C8 1_555 1_555
H8 C9 1_555 1_555
H9 C9 1_555 1_555
C10 C11 1_555 1_555
C11 H10 1_555 1_555
C12 C11 1_555 1_555
H11 C12 1_555 1_555
C13 C12 1_555 1_555
C14 C13 1_555 1_555
C15 C10 1_555 1_555
H12 C15 1_555 1_555
C16 C14 1_555 1_555
H13 C16 1_555 1_555
C17 C16 1_555 1_555
C18 C17 1_555 1_555
H14 C18 1_555 1_555
C19 C13 1_555 1_555
H15 C19 1_555 1_555
C20 H16 1_555 1_555
H17 C20 1_555 1_555
C21 C20 1_555 1_555
H18 C21 1_555 1_555
H19 C21 1_555 1_555
C22 H20 1_555 1_555
C23 C24 1_555 1_555
C24 H21 1_555 1_555
C25 C24 1_555 1_555
H22 C25 1_555 1_555
C26 C25 1_555 1_555
H23 C26 1_555 1_555
C27 C26 1_555 1_555
H24 C27 1_555 1_555
C28 C23 1_555 1_555
C29 C30 1_555 1_555
C30 C31 1_555 1_555
C31 H25 1_555 1_555
C32 C31 1_555 1_555
H26 C32 1_555 1_555
C33 C34 1_555 1_555
C34 C35 1_555 1_555
C35 H27 1_555 1_555
C36 C34 1_555 1_555
H28 C36 1_555 1_555
Co1 N1 1_555 1_555
N1 C1 1_555 1_555
N2 C1 1_555 1_555
N3 C21 1_555 1_555
N4 C22 1_555 1_555
O2 C9 1_555 1_555
O3 C17 1_555 1_555
O4 C29 1_555 1_555
O5 C29 1_555 1_555
O6 C33 1_555 1_555
O7 C33 1_555 1_555
C29A C30A 1_555 1_555
C30A C32 1_555 1_555
C31A C30A 1_555 1_555
H25A C31A 1_555 1_555
C32A C30 1_555 1_555
H26A C32A 1_555 1_555
O4A C29A 1_555 1_555
O5A C29A 1_555 1_555
C33A C34A 1_555 1_555
C34A C35A 1_555 1_555
C35A C36 1_555 1_555
H27A C35A 1_555 1_555
C36A C35 1_555 1_555
H28A C36A 1_555 1_555
O6A C33A 1_555 1_555
O7A C33A 1_555 1_555
O1A Co1A 1_555 1_555
C1A H1A 1_555 1_555
C2A C3A 1_555 1_555
C3A C4A 1_555 1_555
C4A H2A 1_555 1_555
C5A C4A 1_555 1_555
H3A C5A 1_555 1_555
C6A C5A 1_555 1_555
H4A C6A 1_555 1_555
C7A C2A 1_555 1_555
H5A C7A 1_555 1_555
C8A H6A 1_555 1_555
H7A C8A 1_555 1_555
C9A C8A 1_555 1_555
H8A C9A 1_555 1_555
H9A C9A 1_555 1_555
C10A C11A 1_555 1_555
C11A H10A 1_555 1_555
C12A C11A 1_555 1_555
H11A C12A 1_555 1_555
C13A C12A 1_555 1_555
C14A C13A 1_555 1_555
C15A C10A 1_555 1_555
H12A C15A 1_555 1_555
C16A C14A 1_555 1_555
H13A C16A 1_555 1_555
C17A C16A 1_555 1_555
C18A C17A 1_555 1_555
H14A C18A 1_555 1_555
C19A C13A 1_555 1_555
H15A C19A 1_555 1_555
C20A H16A 1_555 1_555
H17A C20A 1_555 1_555
C21A C20A 1_555 1_555
H18A C21A 1_555 1_555
H19A C21A 1_555 1_555
C22A H20A 1_555 1_555
C23A C24A 1_555 1_555
C24A H21A 1_555 1_555
C25A C24A 1_555 1_555
H22A C25A 1_555 1_555
C26A C25A 1_555 1_555
H23A C26A 1_555 1_555
C27A C26A 1_555 1_555
H24A C27A 1_555 1_555
C28A C23A 1_555 1_555
Co1A N4 1_555 1_555
N1A C1A 1_555 1_555
N2A C1A 1_555 1_555
N3A C21A 1_555 1_555
N4A Co1 1_555 1_555
O2A C9A 1_555 1_555
O3A C17A 1_555 1_555
Co1A_2 O4A 1_555 1_555
Co1A_3 O6A 1_555 1_555
O4A_2 Co1A 1_555 1_555
O5A_2 Co1A 1_555 1_555
O6A_2 Co1A 1_555 1_555
C2 N1 1_555 1_555
C3 N2 1_555 1_555
C6 C7 1_555 1_555
C8 N2 1_555 1_555
C10 O2 1_555 1_555
C14 C15 1_555 1_555
C18 C19 1_555 1_555
C20 O3 1_555 1_555
C22 N3 1_555 1_555
C23 N3 1_555 1_555
C27 C28 1_555 1_555
C28 N4 1_555 1_555
Co1 O4 1_555 1_555
Co1 O5 1_555 1_555
Co1 O6 1_555 1_555
C31A C32A 1_555 1_555
O5A Co1A_2 1_555 1_555
C34A C36A 1_555 1_555
C2A N1A 1_555 1_555
C3A N2A 1_555 1_555
C6A C7A 1_555 1_555
C8A N2A 1_555 1_555
C10A O2A 1_555 1_555
C14A C15A 1_555 1_555
C18A C19A 1_555 1_555
C20A O3A 1_555 1_555
C22A N3A 1_555 1_555
C22A N4A 1_555 1_555
C23A N3A 1_555 1_555
C27A C28A 1_555 1_555
C28A N4A 1_555 1_555
Co1A N1A 1_555 1_555

#END
