
#######################################################################
#
#                 Cambridge Crystallographic Data Centre
#                                CCDC 
#
#######################################################################
#
# If this CIF has been generated from an entry in the Cambridge 
# Structural Database, then it will include bibliographic, chemical, 
# crystal, experimental, refinement or atomic coordinate data resulting 
# from the CCDC's data processing and validation procedures.
#
#######################################################################

data_GOPCIZ
_symmetry_cell_setting           orthorhombic
_symmetry_space_group_name_H-M   'P b c a'
_symmetry_Int_Tables_number      61
_space_group_name_Hall           '-P 2ac 2ab'
loop_
_symmetry_equiv_pos_site_id
_symmetry_equiv_pos_as_xyz
1 x,y,z
2 1/2-x,-y,1/2+z
3 -x,1/2+y,1/2-z
4 1/2+x,1/2-y,-z
5 -x,-y,-z
6 1/2+x,y,1/2-z
7 x,1/2-y,1/2+z
8 1/2-x,1/2+y,z
_cell_length_a                   18.724(7)
_cell_length_b                   19.302(7)
_cell_length_c                   20.004(8)
_cell_angle_alpha                90
_cell_angle_beta                 90
_cell_angle_gamma                90
_cell_volume                     7229.66
loop_
_atom_site_label
_atom_site_type_symbol
_atom_site_fract_x
_atom_site_fract_y
_atom_site_fract_z
N1 N 0.80084(17) 0.62577(17) 0.67427(17)
C1 C 0.7436(2) 0.5936(2) 0.6946(2)
H1 H 0.7448 0.5529 0.7194
N2 N 0.68317(17) 0.62468(18) 0.67628(18)
C2 C 0.6107(2) 0.5988(2) 0.6888(2)
H2 H 0.5766 0.6355 0.6803
H3 H 0.6064 0.5855 0.7354
O1 O 0.4562(3) 0.51652(19) 0.77861(18)
C3 C 0.4098(5) 0.4716(3) 0.7720(3)
Zn1 Zn 0.59626(2) 0.09210(2) 0.67309(2)
C4 C 0.5267(2) 0.09641(19) 0.5406(2)
H4 H 0.4903 0.1231 0.5588
C5 C 0.6220(2) 0.03543(19) 0.5302(2)
C6 C 0.5911(2) 0.0408(2) 0.4672(2)
C7 C 0.6201(3) 0.0097(2) 0.4124(2)
H5 H 0.5991 0.0132 0.3704
C8 C 0.6817(3) -0.0266(3) 0.4223(3)
H6 H 0.7029 -0.0485 0.3859
C9 C 0.7138(3) -0.0322(3) 0.4842(3)
H7 H 0.7562 -0.0569 0.4884
C10 C 0.6842(2) -0.0017(2) 0.5399(2)
H8 H 0.7051 -0.0059 0.5819
C11 C 0.4841(2) 0.1069(2) 0.4246(2)
H9 H 0.4369 0.1150 0.4430
H10 H 0.4796 0.0728 0.3893
C12 C 0.5123(2) 0.1735(2) 0.3956(2)
H11 H 0.5601 0.1670 0.3781
H12 H 0.4816 0.1898 0.3599
C13 C 0.5389(2) 0.2872(2) 0.4376(2)
C14 C 0.5571(2) 0.3106(2) 0.3737(2)
H13 H 0.5536 0.2811 0.3370
C15 C 0.5799(2) 0.3769(3) 0.3658(2)
H14 H 0.5917 0.3925 0.3231
C16 C 0.5863(2) 0.4226(2) 0.4198(2)
C17 C 0.5689(2) 0.3986(2) 0.4843(2)
C18 C 0.5452(2) 0.3297(2) 0.4916(2)
H15 H 0.5336 0.3131 0.5338
C19 C 0.5748(2) 0.4442(2) 0.5392(2)
H16 H 0.5648 0.4285 0.5821
C20 C 0.5949(2) 0.5106(2) 0.5294(2)
C21 C 0.6115(2) 0.5348(2) 0.4653(2)
H17 H 0.6252 0.5807 0.4592
C22 C 0.6078(2) 0.4921(3) 0.4124(2)
H18 H 0.6196 0.5087 0.3702
C23 C 0.5938(2) 0.5378(2) 0.6452(2)
H19 H 0.6262 0.4999 0.6547
H20 H 0.5453 0.5222 0.6531
C24 C 0.7023(2) 0.6823(2) 0.6401(3)
C25 C 0.7763(2) 0.6827(2) 0.6402(2)
C26 C 0.8130(3) 0.7359(3) 0.6095(3)
H21 H 0.8627 0.7368 0.6090
C27 C 0.7742(3) 0.7871(3) 0.5800(4)
H22 H 0.7978 0.8241 0.5598
C28 C 0.7004(4) 0.7851(4) 0.5794(4)
H23 H 0.6753 0.8208 0.5587
C29 C 0.6630(3) 0.7319(3) 0.6084(4)
H24 H 0.6134 0.7298 0.6067
C30 C 0.4908(2) 0.1970(2) 0.6866(2)
C31 C 0.4712(2) 0.2695(2) 0.7066(2)
C32 C 0.5225(2) 0.3198(2) 0.7147(2)
H25 H 0.5704 0.3095 0.7073
C33 C 0.5023(3) 0.3861(2) 0.7340(2)
H26 H 0.5367 0.4205 0.7383
C34 C 0.4320(3) 0.4012(2) 0.7467(2)
C35 C 0.3823(3) 0.3511(3) 0.7392(3)
H27 H 0.3346 0.3611 0.7478
C36 C 0.4011(2) 0.2853(3) 0.7191(3)
H28 H 0.3662 0.2515 0.7140
N3 N 0.57963(17) 0.07138(16) 0.57610(16)
N4 N 0.53000(17) 0.08003(16) 0.47626(17)
O2 O 0.51288(16) 0.22174(15) 0.44980(14)
O3 O 0.60182(16) 0.56009(15) 0.57803(15)
O4 O 0.44570(16) 0.15890(16) 0.66172(16)
O5 O 0.55521(15) 0.17999(14) 0.69847(15)
O6 O 0.3482(3) 0.4813(3) 0.7885(3)
N1G N 0.69916(17) 0.12577(17) 0.67427(17)
O1B O 0.5438(3) 0.01652(19) 0.72139(18)
Zn1B Zn 0.40374(2) 0.59210(2) 0.82691(2)
Zn1G Zn 0.90374(2) 0.59210(2) 0.67309(2)
O6B O 0.6518(3) -0.0187(3) 0.7115(3)
C37 C 0.7413(6) 0.1781(5) 0.4170(6)
H29 H 0.7305 0.1354 0.3944
H30 H 0.7088 0.1844 0.4536
H31 H 0.7893 0.1765 0.4336
C38 C 0.7588(5) 0.3034(5) 0.3871(6)
H32 H 0.7552 0.3325 0.3483
H33 H 0.8077 0.3013 0.4014
H34 H 0.7300 0.3223 0.4224
C39 C 0.7056(4) 0.2182(7) 0.3141(6)
H35 H 0.7065 0.2517 0.2807
N5 N 0.7341(3) 0.2349(4) 0.3709(5)
O7 O 0.6792(4) 0.1657(4) 0.3007(4)
O8 O 0.7006(4) 0.0623(4) 0.2327(6)
loop_
_geom_bond_atom_site_label_1
_geom_bond_atom_site_label_2
_geom_bond_site_symmetry_1
_geom_bond_site_symmetry_2
N1 C1 1_555 1_555
C1 H1 1_555 1_555
N2 C1 1_555 1_555
C2 N2 1_555 1_555
H2 C2 1_555 1_555
H3 C2 1_555 1_555
O1 C3 1_555 1_555
C3 C34 1_555 1_555
Zn1 N3 1_555 1_555
C4 H4 1_555 1_555
C5 C6 1_555 1_555
C6 C7 1_555 1_555
C7 H5 1_555 1_555
C8 C7 1_555 1_555
H6 C8 1_555 1_555
C9 C8 1_555 1_555
H7 C9 1_555 1_555
C10 C5 1_555 1_555
H8 C10 1_555 1_555
C11 H9 1_555 1_555
H10 C11 1_555 1_555
C12 C11 1_555 1_555
H11 C12 1_555 1_555
H12 C12 1_555 1_555
C13 C14 1_555 1_555
C14 H13 1_555 1_555
C15 C14 1_555 1_555
H14 C15 1_555 1_555
C16 C15 1_555 1_555
C17 C16 1_555 1_555
C18 C13 1_555 1_555
H15 C18 1_555 1_555
C19 C17 1_555 1_555
H16 C19 1_555 1_555
C20 C19 1_555 1_555
C21 C20 1_555 1_555
H17 C21 1_555 1_555
C22 C16 1_555 1_555
H18 C22 1_555 1_555
C23 C2 1_555 1_555
H19 C23 1_555 1_555
H20 C23 1_555 1_555
C24 N2 1_555 1_555
C25 N1 1_555 1_555
C26 C25 1_555 1_555
H21 C26 1_555 1_555
C27 C26 1_555 1_555
H22 C27 1_555 1_555
C28 C27 1_555 1_555
H23 C28 1_555 1_555
C29 C24 1_555 1_555
H24 C29 1_555 1_555
C30 C31 1_555 1_555
C31 C32 1_555 1_555
C32 H25 1_555 1_555
C33 C32 1_555 1_555
H26 C33 1_555 1_555
C34 C33 1_555 1_555
C35 C34 1_555 1_555
H27 C35 1_555 1_555
C36 C31 1_555 1_555
H28 C36 1_555 1_555
N3 C4 1_555 1_555
N4 C4 1_555 1_555
O2 C12 1_555 1_555
O3 C20 1_555 1_555
O4 C30 1_555 1_555
O5 Zn1 1_555 1_555
O6 C3 1_555 1_555
C37 H29 1_555 1_555
H30 C37 1_555 1_555
H31 C37 1_555 1_555
C38 H32 1_555 1_555
H33 C38 1_555 1_555
H34 C38 1_555 1_555
C39 H35 1_555 1_555
N5 C37 1_555 1_555
O7 C39 1_555 1_555
N1G Zn1 1_555 1_555
O1B Zn1 1_555 1_555
Zn1B O1 1_555 1_555
Zn1G N1 1_555 1_555
O6B Zn1 1_555 1_555
C5 N3 1_555 1_555
C6 N4 1_555 1_555
C9 C10 1_555 1_555
C11 N4 1_555 1_555
C13 O2 1_555 1_555
C17 C18 1_555 1_555
C21 C22 1_555 1_555
C23 O3 1_555 1_555
C24 C25 1_555 1_555
C28 C29 1_555 1_555
C30 O5 1_555 1_555
C35 C36 1_555 1_555
O6 Zn1B 1_555 1_555
C38 N5 1_555 1_555
C39 N5 1_555 1_555

#END
