
#######################################################################
#
#                 Cambridge Crystallographic Data Centre
#                                CCDC 
#
#######################################################################
#
# If this CIF has been generated from an entry in the Cambridge 
# Structural Database, then it will include bibliographic, chemical, 
# crystal, experimental, refinement or atomic coordinate data resulting 
# from the CCDC's data processing and validation procedures.
#
#######################################################################

data_GOPDIA
_symmetry_cell_setting           monoclinic
_symmetry_space_group_name_H-M   'P 21'
_symmetry_Int_Tables_number      4
_space_group_name_Hall           'P 2yb'
loop_
_symmetry_equiv_pos_site_id
_symmetry_equiv_pos_as_xyz
1 x,y,z
2 -x,1/2+y,-z
_cell_length_a                   21.55268(12)
_cell_length_b                   8.46554(3)
_cell_length_c                   24.00872(15)
_cell_angle_alpha                90
_cell_angle_beta                 115.2762(7)
_cell_angle_gamma                90
_cell_volume                     3961.12
loop_
_atom_site_label
_atom_site_type_symbol
_atom_site_fract_x
_atom_site_fract_y
_atom_site_fract_z
Cu1 Cu 0.47219(2) 0.50431(5) 0.407129(19)
N1 N 0.48837(13) 0.5612(3) 0.33463(12)
N2 N 0.43449(13) 0.3958(3) 0.45480(12)
O1 O 0.46101(12) 0.1973(3) 0.52824(11)
N3 N 0.38294(13) 0.5908(3) 0.36461(12)
C1 C 0.56084(16) 0.6101(4) 0.35326(15)
H1 H 0.5720 0.6985 0.3830
H2 H 0.5660 0.6489 0.3166
C2 C 0.36562(16) 0.4371(4) 0.43958(15)
C3 C 0.33715(16) 0.5454(4) 0.38916(14)
O2 O 0.31896(12) 0.7412(3) 0.27772(11)
C4 C 0.23141(16) 0.5452(4) 0.40078(17)
H3 H 0.1855 0.5807 0.3878
N4 N 0.54585(13) 0.3427(3) 0.43495(12)
C5 C 0.52296(16) 0.2193(4) 0.38600(15)
H4 H 0.4766 0.1825 0.3789
H5 H 0.5545 0.1278 0.4004
C6 C 0.54544(16) 0.2787(4) 0.49246(15)
H6 H 0.5787 0.3387 0.5281
H7 H 0.5607 0.1671 0.4974
C7 C 0.61222(16) 0.4736(4) 0.38293(15)
C8 C 0.47417(17) 0.2874(4) 0.49291(15)
C9 C 0.27008(17) 0.5982(4) 0.37040(16)
H8 H 0.2507 0.6700 0.3370
C10 C 0.32625(17) 0.3868(4) 0.46963(16)
H9 H 0.3449 0.3159 0.5034
C11 C 0.52104(17) 0.2793(4) 0.32471(15)
C12 C 0.37186(16) 0.6736(4) 0.31398(15)
C13 C 0.61316(15) 0.4111(4) 0.44385(14)
H10 H 0.6491 0.3291 0.4612
H11 H 0.6250 0.4988 0.4739
C14 C 0.68407(16) 0.5358(4) 0.39692(16)
H12 H 0.6854 0.5722 0.3587
H13 H 0.7177 0.4510 0.4150
H14 H 0.6951 0.6239 0.4261
C15 C 0.59289(16) 0.3380(4) 0.33672(15)
H15 H 0.6265 0.2509 0.3534
H16 H 0.5933 0.3747 0.2977
C16 C 0.43812(17) 0.6892(4) 0.30431(15)
H17 H 0.4258 0.6879 0.2596
H18 H 0.4599 0.7923 0.3208
C17 C 0.49903(19) 0.1421(5) 0.27883(17)
H19 H 0.5320 0.0553 0.2951
H20 H 0.4976 0.1777 0.2395
H21 H 0.4534 0.1055 0.2725
C18 C 0.47060(17) 0.4165(4) 0.29625(15)
H22 H 0.4692 0.4423 0.2555
H23 H 0.4241 0.3817 0.2895
C19 C 0.25940(17) 0.4416(4) 0.44962(17)
H24 H 0.2325 0.4071 0.4699
Cu1A Cu 0.52781(2) 0.00431(5) 0.592871(19)
O1A O 0.53899(12) 0.6973(3) 0.47176(11)
Cu2 Cu 0.06820(2) 0.54309(5) 0.08976(2)
N5 N 0.11062(13) 0.3802(3) 0.05770(12)
N6 N 0.02744(14) 0.6301(3) 0.13908(12)
N7 N -0.01534(13) 0.4290(3) 0.05034(12)
C20 C 0.05194(17) 0.3104(4) 0.00455(15)
H25 H 0.0623 0.1983 0.0002
H26 H 0.0465 0.3664 -0.0335
N8 N 0.15773(13) 0.6089(3) 0.15520(12)
C21 C -0.13003(17) 0.4066(4) 0.05174(16)
H27 H -0.1466 0.3351 0.0180
O3 O 0.05501(13) 0.7886(3) 0.22556(11)
C22 C -0.14882(18) 0.5565(5) 0.12886(17)
H28 H -0.1776 0.5855 0.1481
C23 C -0.06411(16) 0.4669(4) 0.07292(14)
C24 C 0.20643(16) 0.6569(4) 0.12923(15)
H29 H 0.2488 0.6986 0.1628
H30 H 0.1856 0.7428 0.0990
C25 C 0.16390(16) 0.4487(4) 0.04104(15)
H31 H 0.1430 0.5331 0.0101
H32 H 0.1809 0.3655 0.0220
C26 C -0.01619(16) 0.3192(4) 0.01091(15)
C27 C -0.04010(16) 0.5773(4) 0.12239(15)
C28 C -0.17226(17) 0.4512(4) 0.08009(17)
H33 H -0.2173 0.4089 0.0658
C29 C 0.06794(17) 0.7183(4) 0.18601(15)
C30 C -0.08268(18) 0.6205(4) 0.14995(16)
H34 H -0.0669 0.6936 0.1832
C31 C 0.14086(16) 0.2627(4) 0.10824(15)
H35 H 0.1566 0.1698 0.0927
H36 H 0.1049 0.2265 0.1206
C32 C 0.20153(17) 0.3288(4) 0.16504(16)
C33 C 0.22513(15) 0.5179(4) 0.09738(15)
C34 C 0.13983(17) 0.7392(4) 0.18711(16)
H37 H 0.1412 0.8406 0.1671
H38 H 0.1746 0.7442 0.2304
C35 C 0.25630(17) 0.3873(4) 0.14505(16)
H39 H 0.2964 0.4285 0.1811
H40 H 0.2718 0.2991 0.1271
C36 C 0.18270(17) 0.4682(4) 0.19600(15)
H41 H 0.1466 0.4338 0.2085
H42 H 0.2236 0.4984 0.2337
C37 C 0.27680(17) 0.5792(4) 0.07434(17)
H43 H 0.2554 0.6624 0.0437
H44 H 0.2911 0.4922 0.0555
H45 H 0.3170 0.6222 0.1091
O4 O -0.06464(12) 0.2290(3) -0.02069(11)
C38 C 0.2291(2) 0.1954(5) 0.21221(18)
H46 H 0.1931 0.1604 0.2241
H47 H 0.2686 0.2337 0.2487
H48 H 0.2433 0.1068 0.1941
Cu2A Cu -0.06820(2) 0.04309(5) -0.08976(2)
O4A O 0.06464(12) 0.7290(3) 0.02069(11)
Cu3 Cu 0.44270(2) 0.52276(5) 0.907194(19)
N9 N 0.52553(13) 0.6268(3) 0.95898(12)
N10 N 0.39357(13) 0.6804(3) 0.93398(12)
N11 N 0.49411(14) 0.4435(3) 0.86578(12)
C39 C 0.44675(16) 0.7399(4) 0.99356(16)
H49 H 0.4456 0.6756 1.0276
H50 H 0.4358 0.8503 0.9996
O5 O 0.48123(13) 0.2744(3) 0.78507(11)
C40 C 0.37274(16) 0.8063(4) 0.88652(15)
H51 H 0.4138 0.8437 0.8818
H52 H 0.3541 0.8966 0.9007
C41 C 0.64816(17) 0.6454(4) 0.97576(16)
H53 H 0.6605 0.7118 1.0108
O6 O 0.56558(12) 0.8232(3) 1.03311(11)
C42 C 0.25548(17) 0.6924(4) 0.83152(16)
H54 H 0.2190 0.6587 0.7914
H55 H 0.2371 0.7786 0.8481
C43 C 0.56312(16) 0.4893(4) 0.89259(14)
C44 C 0.58082(16) 0.5918(4) 0.94450(15)
C45 C 0.51986(16) 0.7338(4) 0.99653(15)
C46 C 0.33275(16) 0.6117(4) 0.93910(16)
H56 H 0.3122 0.6925 0.9559
H57 H 0.3478 0.5221 0.9684
N12 N 0.35956(13) 0.4680(3) 0.83248(12)
C47 C 0.30203(16) 0.4184(4) 0.84737(16)
H58 H 0.3171 0.3279 0.8762
H59 H 0.2631 0.3825 0.8092
C48 C 0.69712(17) 0.6013(4) 0.95544(18)
H60 H 0.7429 0.6383 0.9767
C49 C 0.67989(17) 0.5035(5) 0.90439(18)
H61 H 0.7139 0.4746 0.8910
C50 C 0.61292(18) 0.4477(4) 0.87286(17)
H62 H 0.6013 0.3813 0.8379
C51 C 0.45977(18) 0.3524(4) 0.81730(16)
C52 C 0.34269(17) 0.6154(4) 0.79480(15)
H63 H 0.3064 0.5917 0.7533
H64 H 0.3839 0.6505 0.7899
C53 C 0.30042(19) 0.8909(5) 0.77902(18)
H65 H 0.2811 0.9761 0.7944
H66 H 0.2667 0.8582 0.7381
H67 H 0.3420 0.9287 0.7763
C54 C 0.21658(17) 0.4903(5) 0.88694(18)
H68 H 0.1971 0.5761 0.9018
H69 H 0.2322 0.4053 0.9176
H70 H 0.1815 0.4493 0.8481
C55 C 0.31825(16) 0.7505(4) 0.82307(15)
C56 C 0.38284(18) 0.3406(4) 0.80319(16)
H71 H 0.3552 0.3450 0.7580
H72 H 0.3743 0.2370 0.8177
C57 C 0.27759(15) 0.5529(4) 0.87650(15)
Cu3A Cu 0.55730(2) 1.02276(5) 1.092806(19)
O6A O 0.43442(12) 0.3232(3) 0.96689(11)
Cu4 Cu 0.01727(2) 0.51133(5) 0.590636(19)
N13 N -0.05434(13) 0.6777(3) 0.56070(12)
N14 N 0.06379(13) 0.6249(3) 0.55174(13)
O7 O 0.04637(12) 0.8274(3) 0.48173(11)
C58 C 0.13289(16) 0.5811(4) 0.57217(15)
O8 O 0.15995(12) 0.2677(3) 0.72686(11)
N15 N -0.00955(13) 0.4437(3) 0.65586(12)
C59 C 0.15511(16) 0.4646(4) 0.61990(14)
N16 N 0.10358(13) 0.4146(3) 0.63705(12)
C60 C 0.24616(17) 0.5820(4) 0.57502(16)
H73 H 0.2775 0.6214 0.5601
C61 C 0.26768(17) 0.4684(4) 0.62146(16)
H74 H 0.3136 0.4308 0.6381
C62 C -0.12385(15) 0.6084(4) 0.54335(14)
H75 H -0.1323 0.5253 0.5120
H76 H -0.1589 0.6918 0.5247
C63 C -0.13163(15) 0.5367(4) 0.59902(14)
C64 C -0.04572(17) 0.7510(4) 0.50792(15)
H77 H -0.0586 0.8640 0.5052
H78 H -0.0775 0.6992 0.4693
C65 C 0.02794(16) 0.7382(4) 0.51326(15)
C66 C 0.17891(17) 0.6382(4) 0.55023(15)
H79 H 0.1645 0.7154 0.5184
C67 C -0.03681(17) 0.7927(4) 0.61179(15)
H80 H -0.0673 0.8857 0.5967
H81 H 0.0110 0.8291 0.6245
C68 C 0.03805(17) 0.3130(4) 0.68724(16)
H82 H 0.0171 0.2120 0.6672
H83 H 0.0447 0.3079 0.7306
C69 C 0.10870(17) 0.3314(4) 0.68590(15)
C70 C -0.08338(16) 0.3970(4) 0.62970(15)
H84 H -0.0939 0.3540 0.6631
H85 H -0.0918 0.3123 0.5989
C71 C 0.00480(17) 0.5834(4) 0.69766(15)
H86 H 0.0527 0.6181 0.7098
H87 H 0.0006 0.5510 0.7355
C72 C -0.0263(2) 0.8548(5) 0.71666(17)
H88 H 0.0215 0.8879 0.7297
H89 H -0.0324 0.8150 0.7523
H90 H -0.0568 0.9452 0.6989
C73 C -0.04367(17) 0.7242(4) 0.66836(16)
C74 C -0.11730(17) 0.6654(4) 0.64759(15)
H91 H -0.1234 0.6224 0.6833
H92 H -0.1499 0.7540 0.6301
C75 C 0.22210(17) 0.4098(4) 0.64364(16)
H93 H 0.2370 0.3320 0.6752
C76 C -0.20535(17) 0.4757(4) 0.57565(17)
H94 H -0.2375 0.5638 0.5588
H95 H -0.2120 0.4273 0.6098
H96 H -0.2138 0.3967 0.5433
Cu4A Cu -0.01727(2) 1.01133(5) 0.409364(19)
O7A O -0.04637(12) 0.3274(3) 0.51827(11)
O9 O 0.95448(17) 0.5903(4) 0.82383(16)
H97 H 0.9436 0.5093 0.8015
C77 C 1.0266(3) 0.5893(5) 0.86171(19)
H98 H 1.0494 0.6612 0.8444
H99 H 1.0444 0.4820 0.8634
H100 H 1.0354 0.6239 0.9034
C78 C 0.6667(2) 0.5521(5) 0.63302(18)
H101 H 0.6389 0.6139 0.5962
H102 H 0.6728 0.4448 0.6208
H103 H 0.7117 0.6023 0.6548
O10 O 0.63305(13) 0.5452(3) 0.67239(13)
H104 H 0.6528 0.4787 0.7004
O11 O 0.52426(13) 0.4683(3) 0.17695(13)
H105 H 0.5281 0.5525 0.1967
C79 C 0.4565(2) 0.4539(5) 0.13118(18)
H106 H 0.4573 0.4153 0.0930
H107 H 0.4339 0.5573 0.1238
H108 H 0.4312 0.3791 0.1449
O12 O 0.12860(16) -0.0521(4) 0.69550(16)
H109 H 0.1381 0.0327 0.7156
C80 C 0.1400(3) -0.0340(6) 0.6424(2)
H110 H 0.0986 0.0086 0.6089
H111 H 0.1511 -0.1369 0.6302
H112 H 0.1784 0.0389 0.6511
loop_
_geom_bond_atom_site_label_1
_geom_bond_atom_site_label_2
_geom_bond_site_symmetry_1
_geom_bond_site_symmetry_2
Cu1 N1 1_555 1_555
N1 C1 1_555 1_555
N2 Cu1 1_555 1_555
O1 C8 1_555 1_555
N3 Cu1 1_555 1_555
C1 H1 1_555 1_555
H2 C1 1_555 1_555
C2 N2 1_555 1_555
C3 N3 1_555 1_555
O2 C12 1_555 1_555
C4 H3 1_555 1_555
N4 Cu1 1_555 1_555
C5 N4 1_555 1_555
H4 C5 1_555 1_555
H5 C5 1_555 1_555
C6 N4 1_555 1_555
H6 C6 1_555 1_555
H7 C6 1_555 1_555
C7 C1 1_555 1_555
C8 N2 1_555 1_555
C9 C3 1_555 1_555
H8 C9 1_555 1_555
C10 C2 1_555 1_555
H9 C10 1_555 1_555
C11 C5 1_555 1_555
C12 N3 1_555 1_555
C13 N4 1_555 1_555
H10 C13 1_555 1_555
H11 C13 1_555 1_555
C14 C7 1_555 1_555
H12 C14 1_555 1_555
H13 C14 1_555 1_555
H14 C14 1_555 1_555
C15 C7 1_555 1_555
H15 C15 1_555 1_555
H16 C15 1_555 1_555
C16 N1 1_555 1_555
H17 C16 1_555 1_555
H18 C16 1_555 1_555
C17 C11 1_555 1_555
H19 C17 1_555 1_555
H20 C17 1_555 1_555
H21 C17 1_555 1_555
C18 N1 1_555 1_555
H22 C18 1_555 1_555
H23 C18 1_555 1_555
C19 C4 1_555 1_555
H24 C19 1_555 1_555
Cu2 N5 1_555 1_555
N5 C20 1_555 1_555
N6 Cu2 1_555 1_555
N7 Cu2 1_555 1_555
C20 H25 1_555 1_555
H26 C20 1_555 1_555
N8 Cu2 1_555 1_555
C21 H27 1_555 1_555
O3 C29 1_555 1_555
C22 H28 1_555 1_555
C23 N7 1_555 1_555
C24 N8 1_555 1_555
H29 C24 1_555 1_555
H30 C24 1_555 1_555
C25 N5 1_555 1_555
H31 C25 1_555 1_555
H32 C25 1_555 1_555
C26 N7 1_555 1_555
C27 N6 1_555 1_555
C28 C21 1_555 1_555
H33 C28 1_555 1_555
C29 N6 1_555 1_555
C30 C22 1_555 1_555
H34 C30 1_555 1_555
C31 N5 1_555 1_555
H35 C31 1_555 1_555
H36 C31 1_555 1_555
C32 C31 1_555 1_555
C33 C24 1_555 1_555
C34 N8 1_555 1_555
H37 C34 1_555 1_555
H38 C34 1_555 1_555
C35 C32 1_555 1_555
H39 C35 1_555 1_555
H40 C35 1_555 1_555
C36 N8 1_555 1_555
H41 C36 1_555 1_555
H42 C36 1_555 1_555
C37 C33 1_555 1_555
H43 C37 1_555 1_555
H44 C37 1_555 1_555
H45 C37 1_555 1_555
O4 C26 1_555 1_555
C38 C32 1_555 1_555
H46 C38 1_555 1_555
H47 C38 1_555 1_555
H48 C38 1_555 1_555
Cu3 N9 1_555 1_555
N9 C44 1_555 1_555
N10 Cu3 1_555 1_555
N11 Cu3 1_555 1_555
C39 N10 1_555 1_555
H49 C39 1_555 1_555
H50 C39 1_555 1_555
O5 C51 1_555 1_555
C40 N10 1_555 1_555
H51 C40 1_555 1_555
H52 C40 1_555 1_555
C41 H53 1_555 1_555
O6 C45 1_555 1_555
C42 H54 1_555 1_555
H55 C42 1_555 1_555
C43 N11 1_555 1_555
C44 C41 1_555 1_555
C45 N9 1_555 1_555
C46 N10 1_555 1_555
H56 C46 1_555 1_555
H57 C46 1_555 1_555
N12 Cu3 1_555 1_555
C47 N12 1_555 1_555
H58 C47 1_555 1_555
H59 C47 1_555 1_555
C48 C41 1_555 1_555
H60 C48 1_555 1_555
C49 C48 1_555 1_555
H61 C49 1_555 1_555
C50 C43 1_555 1_555
H62 C50 1_555 1_555
C51 N11 1_555 1_555
C52 N12 1_555 1_555
H63 C52 1_555 1_555
H64 C52 1_555 1_555
C53 H65 1_555 1_555
H66 C53 1_555 1_555
H67 C53 1_555 1_555
C54 H68 1_555 1_555
H69 C54 1_555 1_555
H70 C54 1_555 1_555
C55 C40 1_555 1_555
C56 N12 1_555 1_555
H71 C56 1_555 1_555
H72 C56 1_555 1_555
C57 C42 1_555 1_555
Cu4 N13 1_555 1_555
N13 C62 1_555 1_555
N14 Cu4 1_555 1_555
O7 C65 1_555 1_555
C58 N14 1_555 1_555
O8 C69 1_555 1_555
N15 Cu4 1_555 1_555
C59 C58 1_555 1_555
N16 Cu4 1_555 1_555
C60 H73 1_555 1_555
C61 C60 1_555 1_555
H74 C61 1_555 1_555
C62 H75 1_555 1_555
H76 C62 1_555 1_555
C63 C62 1_555 1_555
C64 N13 1_555 1_555
H77 C64 1_555 1_555
H78 C64 1_555 1_555
C65 N14 1_555 1_555
C66 C58 1_555 1_555
H79 C66 1_555 1_555
C67 N13 1_555 1_555
H80 C67 1_555 1_555
H81 C67 1_555 1_555
C68 N15 1_555 1_555
H82 C68 1_555 1_555
H83 C68 1_555 1_555
C69 N16 1_555 1_555
C70 N15 1_555 1_555
H84 C70 1_555 1_555
H85 C70 1_555 1_555
C71 N15 1_555 1_555
H86 C71 1_555 1_555
H87 C71 1_555 1_555
C72 H88 1_555 1_555
H89 C72 1_555 1_555
H90 C72 1_555 1_555
C73 C67 1_555 1_555
C74 C63 1_555 1_555
H91 C74 1_555 1_555
H92 C74 1_555 1_555
C75 C59 1_555 1_555
H93 C75 1_555 1_555
C76 C63 1_555 1_555
H94 C76 1_555 1_555
H95 C76 1_555 1_555
H96 C76 1_555 1_555
O9 H97 1_555 1_555
C77 O9 1_555 1_555
H98 C77 1_555 1_555
H99 C77 1_555 1_555
H100 C77 1_555 1_555
C78 H101 1_555 1_555
H102 C78 1_555 1_555
H103 C78 1_555 1_555
O10 C78 1_555 1_555
H104 O10 1_555 1_555
O11 H105 1_555 1_555
C79 O11 1_555 1_555
H106 C79 1_555 1_555
H107 C79 1_555 1_555
H108 C79 1_555 1_555
O12 H109 1_555 1_555
C80 O12 1_555 1_555
H110 C80 1_555 1_555
H111 C80 1_555 1_555
H112 C80 1_555 1_555
Cu1A O1 1_555 1_555
O1A Cu1 1_555 1_555
Cu2A O4 1_555 1_555
O4A Cu2 1_555 1_555
Cu3A O6 1_555 1_555
O6A Cu3 1_555 1_555
Cu4A O7 1_555 1_555
O7A Cu4 1_555 1_555
C2 C3 1_555 1_555
C4 C9 1_555 1_555
C6 C8 1_555 1_555
C7 C13 1_555 1_555
C10 C19 1_555 1_555
C11 C15 1_555 1_555
C11 C18 1_555 1_555
C12 C16 1_555 1_555
C20 C26 1_555 1_555
C21 C23 1_555 1_555
C22 C28 1_555 1_555
C23 C27 1_555 1_555
C25 C33 1_555 1_555
C27 C30 1_555 1_555
C29 C34 1_555 1_555
C32 C36 1_555 1_555
C33 C35 1_555 1_555
C39 C45 1_555 1_555
C42 C55 1_555 1_555
C43 C44 1_555 1_555
C46 C57 1_555 1_555
C47 C57 1_555 1_555
C49 C50 1_555 1_555
C51 C56 1_555 1_555
C52 C55 1_555 1_555
C53 C55 1_555 1_555
C54 C57 1_555 1_555
C59 N16 1_555 1_555
C60 C66 1_555 1_555
C61 C75 1_555 1_555
C63 C70 1_555 1_555
C64 C65 1_555 1_555
C68 C69 1_555 1_555
C71 C73 1_555 1_555
C72 C73 1_555 1_555
C73 C74 1_555 1_555

#END
