
#######################################################################
#
#                 Cambridge Crystallographic Data Centre
#                                CCDC 
#
#######################################################################
#
# If this CIF has been generated from an entry in the Cambridge 
# Structural Database, then it will include bibliographic, chemical, 
# crystal, experimental, refinement or atomic coordinate data resulting 
# from the CCDC's data processing and validation procedures.
#
#######################################################################

data_GOPGAV
_symmetry_cell_setting           triclinic
_symmetry_space_group_name_H-M   'P -1'
_symmetry_Int_Tables_number      2
_space_group_name_Hall           '-P 1'
loop_
_symmetry_equiv_pos_site_id
_symmetry_equiv_pos_as_xyz
1 x,y,z
2 -x,-y,-z
_cell_length_a                   8.8112(12)
_cell_length_b                   9.2356(12)
_cell_length_c                   15.011(2)
_cell_angle_alpha                97.941(2)
_cell_angle_beta                 106.866(2)
_cell_angle_gamma                94.495(2)
_cell_volume                     1148.71
loop_
_atom_site_label
_atom_site_type_symbol
_atom_site_fract_x
_atom_site_fract_y
_atom_site_fract_z
Yb1 Yb 0.23119(3) 0.89624(3) 0.23881(2)
Na1 Na 0.7337(3) 0.3992(2) 0.24236(17)
Na2 Na 0.6143(3) 0.0308(3) 0.15772(18)
Na3 Na 0.9296(3) 0.1131(3) 0.36022(17)
O1 O 0.3779(5) 0.7106(4) 0.2113(3)
O2 O 0.5691(6) 0.5683(5) 0.2640(3)
O3 O 0.5435(5) 0.9520(5) 0.6908(3)
O4 O 0.3299(5) 0.7934(5) 0.6710(3)
O5 O 0.2185(5) 1.0225(4) 0.5363(3)
O6 O 0.1629(5) 0.9858(4) 0.3785(3)
O7 O 0.0623(5) 1.0559(4) 0.1983(3)
O8 O -0.1156(5) 1.2059(4) 0.2131(3)
O9 O -0.2780(5) 0.9859(5) 0.0307(3)
O10 O -0.3263(4) 1.0237(4) -0.1180(3)
O11 O -0.0216(5) 1.2837(4) -0.2262(3)
O12 O 0.1804(5) 1.4566(5) -0.1425(3)
O13 O 0.5282(5) 0.2580(5) 0.1108(3)
H1 H 0.5207 0.2789 0.0567
H2 H 0.5339 0.3323 0.1525
O14 O 0.7685(6) -0.1084(5) 0.2634(4)
H3 H 0.7036 -0.1454 0.2888
H4 H 0.8493 -0.1546 0.2735
O15 O 1.0581(6) 0.2750(5) 0.4959(3)
H5 H 1.0175 0.3395 0.5246
H6 H 1.1118 0.2232 0.5326
O16 O 0.9801(6) 0.5232(6) 0.3623(4)
H7 H 1.0212 0.4473 0.3781
H8 H 1.0351 0.5688 0.3344
N1 N 0.3590(5) 0.7945(5) 0.3790(3)
N2 N 0.5404(6) 0.7000(5) 0.5381(3)
N3 N -0.0757(5) 1.2153(5) -0.0765(3)
N4 N 0.1207(6) 1.3198(5) 0.1047(3)
C1 C 0.4608(6) 0.6971(6) 0.3728(4)
C2 C 0.5523(7) 0.6507(6) 0.4533(4)
H9 H 0.6251 0.5820 0.4476
C3 C 0.4369(7) 0.7985(6) 0.5441(4)
C4 C 0.3457(6) 0.8456(6) 0.4634(3)
C5 C 0.4717(7) 0.6518(6) 0.2751(4)
C6 C 0.4338(7) 0.8522(6) 0.6430(4)
C7 C 0.2319(7) 0.9610(6) 0.4605(4)
C8 C -0.0034(6) 1.2148(6) 0.0878(4)
C9 C -0.1046(7) 1.1643(6) -0.0034(4)
C10 C 0.0499(7) 1.3158(6) -0.0610(4)
C11 C 0.1459(7) 1.3691(6) 0.0306(4)
H10 H 0.2327 1.4436 0.0407
C12 C -0.0228(6) 1.1549(6) 0.1728(4)
C13 C -0.2476(7) 1.0482(6) -0.0307(4)
C14 C 0.0719(7) 1.3589(6) -0.1501(4)
Yb1A Yb -0.23119(3) 1.10376(3) -0.23881(2)
Yb1A_2 Yb 0.76881(3) 1.10376(3) 0.76119(2)
Na1_2 Na -0.2663(3) 1.3992(2) 0.24236(17)
Na1A Na 0.2663(3) 0.6008(2) 0.75764(17)
Na1A_2 Na 0.2663(3) 1.6008(2) -0.24236(17)
Na2_2 Na -0.3857(3) 1.0308(3) 0.15772(18)
Na2A Na -0.6143(3) 0.9692(3) -0.15772(18)
Na2A_2 Na 0.3857(3) 0.9692(3) 0.84228(18)
Na3_2 Na -0.0704(3) 1.1131(3) 0.36022(17)
Na3A Na 0.0704(3) 0.8869(3) 0.63978(17)
O3A O 0.4565(5) 0.0480(5) 0.3092(3)
O3A_2 O 0.4565(5) 1.0480(5) 0.3092(3)
O4A O 0.6701(5) 0.2066(5) 0.3290(3)
O5A O 0.7815(5) -0.0225(4) 0.4637(3)
O6_2 O 1.1629(5) -0.0142(4) 0.3785(3)
O7_2 O 1.0623(5) 0.0559(4) 0.1983(3)
O8_2 O 0.8844(5) 0.2059(4) 0.2131(3)
O9_2 O 0.7220(5) -0.0141(5) 0.0307(3)
O10A O 0.3263(4) -0.0237(4) 0.1180(3)
O10A_2 O 0.3263(4) 0.9763(4) 0.1180(3)
O11A O 0.0216(5) 0.7163(4) 0.2262(3)
O12A O 0.8196(5) 0.5434(5) 0.1425(3)
N3A N 0.0757(5) 0.7847(5) 0.0765(3)
O17 O 0.7654(6) 0.5827(6) 0.6852(4)
H11 H 0.6955 0.6243 0.6499
H12 H 0.7792 0.6233 0.7417
O18 O 0.4997(8) 0.6615(9) 0.0608(4)
H13 H 0.4530 0.6845 0.1019
H14 H 0.5823 0.6288 0.0915
loop_
_geom_bond_atom_site_label_1
_geom_bond_atom_site_label_2
_geom_bond_site_symmetry_1
_geom_bond_site_symmetry_2
Yb1 O1 1_555 1_555
Na1 O2 1_555 1_555
Na2 O13 1_555 1_555
Na3 O14 1_555 1_555
O1 C5 1_555 1_555
O2 C5 1_555 1_555
O3 C6 1_555 1_555
O4 C6 1_555 1_555
O5 C7 1_555 1_555
O6 Yb1 1_555 1_555
O7 Yb1 1_555 1_555
O8 C12 1_555 1_555
O9 C13 1_555 1_555
O10 C13 1_555 1_555
O11 C14 1_555 1_555
O12 C14 1_555 1_555
O13 Na1 1_555 1_555
H1 O13 1_555 1_555
H2 O13 1_555 1_555
O14 Na2 1_555 1_555
H3 O14 1_555 1_555
H4 O14 1_555 1_555
O15 Na3 1_555 1_555
H5 O15 1_555 1_555
H6 O15 1_555 1_555
O16 Na1 1_555 1_555
H7 O16 1_555 1_555
H8 O16 1_555 1_555
N1 Yb1 1_555 1_555
N2 C2 1_555 1_555
N3 C9 1_555 1_555
N4 C8 1_555 1_555
C1 N1 1_555 1_555
C2 C1 1_555 1_555
H9 C2 1_555 1_555
C3 N2 1_555 1_555
C4 N1 1_555 1_555
C5 C1 1_555 1_555
C6 C3 1_555 1_555
C7 O6 1_555 1_555
C8 C9 1_555 1_555
C9 C13 1_555 1_555
C10 N3 1_555 1_555
C11 N4 1_555 1_555
H10 C11 1_555 1_555
C12 O7 1_555 1_555
C14 C10 1_555 1_555
O17 H11 1_555 1_555
H12 O17 1_555 1_555
O18 H13 1_555 1_555
H14 O18 1_555 1_555
Yb1A O10 1_555 1_555
Yb1A_2 O3 1_555 1_555
Na1_2 O8 1_555 1_555
Na1A O4 1_555 1_555
Na1A_2 O12 1_555 1_555
Na2_2 O8 1_555 1_555
Na2A O10 1_555 1_555
Na2A_2 O3 1_555 1_555
Na3_2 O6 1_555 1_555
Na3A O4 1_555 1_555
O3A Na2 1_555 1_555
O3A_2 Yb1 1_555 1_555
O4A Na1 1_555 1_555
O5A Na3 1_555 1_555
O6_2 Na3 1_555 1_555
O7_2 Na3 1_555 1_555
O8_2 Na1 1_555 1_555
O9_2 Na2 1_555 1_555
O10A Na2 1_555 1_555
O10A_2 Yb1 1_555 1_555
O11A Yb1 1_555 1_555
O12A Na1 1_555 1_555
N3A Yb1 1_555 1_555
Na2 O4A 1_555 1_555
Na2 O8_2 1_555 1_555
Na3 O4A 1_555 1_555
Na3 O8_2 1_555 1_555
O4 Na2A_2 1_555 1_555
O5 Na3A 1_555 1_555
O7 Na3_2 1_555 1_555
O8 Na3_2 1_555 1_555
O9 Na2_2 1_555 1_555
O11 Yb1A 1_555 1_555
N3 Yb1A 1_555 1_555
C3 C4 1_555 1_555
C4 C7 1_555 1_555
C8 C12 1_555 1_555
C10 C11 1_555 1_555

#END
