
#######################################################################
#
#                 Cambridge Crystallographic Data Centre
#                                CCDC 
#
#######################################################################
#
# If this CIF has been generated from an entry in the Cambridge 
# Structural Database, then it will include bibliographic, chemical, 
# crystal, experimental, refinement or atomic coordinate data resulting 
# from the CCDC's data processing and validation procedures.
#
#######################################################################

data_GOPGID
_symmetry_cell_setting           triclinic
_symmetry_space_group_name_H-M   'P -1'
_symmetry_Int_Tables_number      2
_space_group_name_Hall           '-P 1'
loop_
_symmetry_equiv_pos_site_id
_symmetry_equiv_pos_as_xyz
1 x,y,z
2 -x,-y,-z
_cell_length_a                   8.8294(9)
_cell_length_b                   9.2401(10)
_cell_length_c                   15.0407(16)
_cell_angle_alpha                98.120(2)
_cell_angle_beta                 106.659(2)
_cell_angle_gamma                94.655(2)
_cell_volume                     1154.19
loop_
_atom_site_label
_atom_site_type_symbol
_atom_site_fract_x
_atom_site_fract_y
_atom_site_fract_z
Er1 Er 0.23053(6) 0.89620(5) 0.23882(3)
Na1 Na 0.7321(5) 0.3992(5) 0.2411(3)
Na2 Na 0.6135(6) 0.0302(6) 0.1585(3)
Na3 Na 0.9316(6) 0.1165(6) 0.3600(3)
O1 O 0.3794(9) 0.7092(8) 0.2124(5)
O2 O 0.5678(11) 0.5700(10) 0.2651(6)
O3 O 0.5422(9) 0.9511(9) 0.6903(5)
O4 O 0.3283(9) 0.7928(9) 0.6703(5)
O5 O 0.2199(10) 1.0212(8) 0.5368(5)
O6 O 0.1635(8) 0.9858(8) 0.3810(4)
O7 O 0.0614(9) 1.0570(9) 0.1999(5)
O8 O -0.1159(9) 1.2080(8) 0.2129(5)
O9 O -0.2783(9) 0.9889(9) 0.0320(5)
O10 O -0.3265(8) 1.0273(8) -0.1158(5)
O11 O -0.0197(9) 1.2864(8) -0.2239(5)
O12 O 0.1829(10) 1.4604(9) -0.1390(6)
O13 O 0.5267(10) 0.2610(10) 0.1113(6)
H1 H 0.5193 0.2818 0.0572
H2 H 0.5324 0.3352 0.1530
O14 O 0.7687(11) -0.1073(10) 0.2648(7)
H3 H 0.7038 -0.1443 0.2902
H4 H 0.8495 -0.1535 0.2749
O15 O 1.0613(11) 0.2715(10) 0.4956(6)
H5 H 1.0206 0.3361 0.5243
H6 H 1.1149 0.2198 0.5323
O16 O 0.9775(11) 0.5282(11) 0.3601(7)
H7 H 1.0185 0.4523 0.3759
H8 H 1.0324 0.5738 0.3322
N1 N 0.3589(9) 0.7922(9) 0.3795(6)
N2 N 0.5401(10) 0.6984(10) 0.5378(6)
N3 N -0.0764(10) 1.2160(9) -0.0750(6)
N4 N 0.1201(10) 1.3231(9) 0.1064(6)
C1 C 0.4603(13) 0.6959(11) 0.3731(7)
C2 C 0.5529(12) 0.6498(11) 0.4534(7)
H9 H 0.6249 0.5838 0.4476
C3 C 0.4360(11) 0.7976(10) 0.5441(7)
C4 C 0.3469(11) 0.8424(10) 0.4635(7)
C5 C 0.4732(14) 0.6503(13) 0.2771(8)
C6 C 0.4335(12) 0.8489(12) 0.6424(7)
C7 C 0.2326(11) 0.9632(11) 0.4616(7)
C8 C -0.0048(11) 1.2180(10) 0.0889(7)
C9 C -0.1055(12) 1.1679(11) -0.0018(7)
C10 C 0.0493(12) 1.3195(11) -0.0599(7)
C11 C 0.1435(13) 1.3715(12) 0.0314(7)
H10 H 0.2283 1.4446 0.0411
C12 C -0.0246(12) 1.1616(10) 0.1742(6)
C13 C -0.2486(12) 1.0508(11) -0.0298(7)
C14 C 0.0746(13) 1.3623(12) -0.1478(8)
Er1A Er -0.23053(6) 1.10380(5) -0.23882(3)
Er1A_2 Er 0.76947(6) 1.10380(5) 0.76118(3)
Na1_2 Na -0.2679(5) 1.3992(5) 0.2411(3)
Na1A Na 0.2679(5) 0.6008(5) 0.7589(3)
Na1A_2 Na 0.2679(5) 1.6008(5) -0.2411(3)
Na2_2 Na -0.3865(6) 1.0302(6) 0.1585(3)
Na2A Na -0.6135(6) 0.9698(6) -0.1585(3)
Na2A_2 Na 0.3865(6) 0.9698(6) 0.8415(3)
Na3_2 Na -0.0684(6) 1.1165(6) 0.3600(3)
Na3A Na 0.0684(6) 0.8835(6) 0.6400(3)
O3A O 0.4578(9) 0.0489(9) 0.3097(5)
O3A_2 O 0.4578(9) 1.0489(9) 0.3097(5)
O4A O 0.6717(9) 0.2072(9) 0.3297(5)
O5A O 0.7801(10) -0.0212(8) 0.4632(5)
O6_2 O 1.1635(8) -0.0142(8) 0.3810(4)
O7_2 O 1.0614(9) 0.0570(9) 0.1999(5)
O8_2 O 0.8841(9) 0.2080(8) 0.2129(5)
O9_2 O 0.7217(9) -0.0111(9) 0.0320(5)
O10A O 0.3265(8) -0.0273(8) 0.1158(5)
O10A_2 O 0.3265(8) 0.9727(8) 0.1158(5)
O11A O 0.0197(9) 0.7136(8) 0.2239(5)
O12A O 0.8171(10) 0.5396(9) 0.1390(6)
N3A N 0.0764(10) 0.7840(9) 0.0750(6)
O17 O 0.7665(12) 0.5865(11) 0.6828(7)
H11 H 0.6966 0.6281 0.6475
H12 H 0.7803 0.6271 0.7393
O18 O 0.5019(14) 0.6626(17) 0.0620(8)
H13 H 0.4552 0.6856 0.1032
H14 H 0.5845 0.6299 0.0927
loop_
_geom_bond_atom_site_label_1
_geom_bond_atom_site_label_2
_geom_bond_site_symmetry_1
_geom_bond_site_symmetry_2
Er1 O1 1_555 1_555
Na1 O2 1_555 1_555
Na2 O13 1_555 1_555
Na3 O14 1_555 1_555
O1 C5 1_555 1_555
O2 C5 1_555 1_555
O3 C6 1_555 1_555
O4 C6 1_555 1_555
O5 C7 1_555 1_555
O6 Er1 1_555 1_555
O7 Er1 1_555 1_555
O8 C12 1_555 1_555
O9 C13 1_555 1_555
O10 C13 1_555 1_555
O11 C14 1_555 1_555
O12 C14 1_555 1_555
O13 Na1 1_555 1_555
H1 O13 1_555 1_555
H2 O13 1_555 1_555
O14 Na2 1_555 1_555
H3 O14 1_555 1_555
H4 O14 1_555 1_555
O15 Na3 1_555 1_555
H5 O15 1_555 1_555
H6 O15 1_555 1_555
O16 Na1 1_555 1_555
H7 O16 1_555 1_555
H8 O16 1_555 1_555
N1 Er1 1_555 1_555
N2 C2 1_555 1_555
N3 C9 1_555 1_555
N4 C8 1_555 1_555
C1 N1 1_555 1_555
C2 C1 1_555 1_555
H9 C2 1_555 1_555
C3 N2 1_555 1_555
C4 N1 1_555 1_555
C5 C1 1_555 1_555
C6 C3 1_555 1_555
C7 O6 1_555 1_555
C8 C9 1_555 1_555
C9 C13 1_555 1_555
C10 N3 1_555 1_555
C11 N4 1_555 1_555
H10 C11 1_555 1_555
C12 O7 1_555 1_555
C14 C10 1_555 1_555
O17 H11 1_555 1_555
H12 O17 1_555 1_555
O18 H13 1_555 1_555
H14 O18 1_555 1_555
Er1A O10 1_555 1_555
Er1A_2 O3 1_555 1_555
Na1_2 O8 1_555 1_555
Na1A O4 1_555 1_555
Na1A_2 O12 1_555 1_555
Na2_2 O8 1_555 1_555
Na2A O10 1_555 1_555
Na2A_2 O3 1_555 1_555
Na3_2 O6 1_555 1_555
Na3A O4 1_555 1_555
O3A Na2 1_555 1_555
O3A_2 Er1 1_555 1_555
O4A Na1 1_555 1_555
O5A Na3 1_555 1_555
O6_2 Na3 1_555 1_555
O7_2 Na3 1_555 1_555
O8_2 Na1 1_555 1_555
O9_2 Na2 1_555 1_555
O10A Na2 1_555 1_555
O10A_2 Er1 1_555 1_555
O11A Er1 1_555 1_555
O12A Na1 1_555 1_555
N3A Er1 1_555 1_555
Na2 O4A 1_555 1_555
Na2 O8_2 1_555 1_555
Na3 O4A 1_555 1_555
Na3 O8_2 1_555 1_555
O4 Na2A_2 1_555 1_555
O5 Na3A 1_555 1_555
O7 Na3_2 1_555 1_555
O8 Na3_2 1_555 1_555
O9 Na2_2 1_555 1_555
O11 Er1A 1_555 1_555
N3 Er1A 1_555 1_555
C3 C4 1_555 1_555
C4 C7 1_555 1_555
C8 C12 1_555 1_555
C10 C11 1_555 1_555

#END
