
#######################################################################
#
#                 Cambridge Crystallographic Data Centre
#                                CCDC 
#
#######################################################################
#
# If this CIF has been generated from an entry in the Cambridge 
# Structural Database, then it will include bibliographic, chemical, 
# crystal, experimental, refinement or atomic coordinate data resulting 
# from the CCDC's data processing and validation procedures.
#
#######################################################################

data_GOPTUC
_symmetry_cell_setting           monoclinic
_symmetry_space_group_name_H-M   'P 21/c'
_symmetry_Int_Tables_number      14
_space_group_name_Hall           '-P 2ybc'
loop_
_symmetry_equiv_pos_site_id
_symmetry_equiv_pos_as_xyz
1 x,y,z
2 -x,1/2+y,1/2-z
3 -x,-y,-z
4 x,1/2-y,1/2+z
_cell_length_a                   15.591(3)
_cell_length_b                   16.362(3)
_cell_length_c                   21.032(3)
_cell_angle_alpha                90
_cell_angle_beta                 120.491(5)
_cell_angle_gamma                90
_cell_volume                     4623.29
loop_
_atom_site_label
_atom_site_type_symbol
_atom_site_fract_x
_atom_site_fract_y
_atom_site_fract_z
C1 C -0.0832(3) 0.0327(3) -0.1778(2)
C2 C -0.0711(3) 0.0999(2) -0.1256(2)
C3 C -0.1523(3) 0.1415(3) -0.1335(2)
C4 C -0.2532(4) 0.1112(3) -0.1775(2)
C5 C -0.1372(3) 0.2098(3) -0.0909(2)
H1 H -0.1925 0.2395 -0.0984
C6 C -0.0463(4) 0.2360(2) -0.0387(2)
C7 C 0.0349(4) 0.1921(3) -0.0291(2)
C8 C 0.0197(4) 0.1253(3) -0.0740(2)
H2 H 0.0749 0.0968 -0.0681
C9 C 0.1347(3) 0.2149(2) 0.0276(2)
C10 C 0.1693(3) 0.2914(3) 0.0303(2)
H3 H 0.1307 0.3291 -0.0063
C11 C 0.2594(4) 0.3127(3) 0.0859(2)
H4 H 0.2831 0.3652 0.0872
C12 C 0.3169(4) 0.2588(3) 0.1406(2)
C13 C 0.2814(4) 0.1807(3) 0.1368(2)
H5 H 0.3192 0.1432 0.1738
C14 C 0.1930(4) 0.1585(3) 0.0800(2)
H6 H 0.1711 0.1048 0.0761
C15 C 0.4121(4) 0.2853(3) 0.2035(2)
C16 C -0.0380(3) 0.3056(3) 0.0089(2)
C17 C -0.0771(4) 0.3810(3) -0.0210(2)
H7 H -0.1068 0.3887 -0.0717
C18 C -0.0727(4) 0.4452(3) 0.0231(2)
H8 H -0.0978 0.4961 0.0022
C19 C -0.0317(4) 0.4342(3) 0.0969(2)
C20 C 0.0058(4) 0.3588(3) 0.1248(2)
H9 H 0.0333 0.3501 0.1752
C21 C 0.0047(4) 0.2959(3) 0.0821(2)
H10 H 0.0335 0.2461 0.1037
C22 C -0.0294(4) 0.5004(3) 0.1447(3)
C23 C 0.5995(5) 0.5185(5) 0.1621(4)
H11 H 0.6654 0.5025 0.1819
C24 C 0.5522(6) 0.5727(6) 0.1071(5)
H12 H 0.5803 0.6034 0.0850
C25 C 0.4580(4) 0.5266(3) 0.1386(3)
H13 H 0.4004 0.5180 0.1406
C26 C 0.3842(4) 0.6203(3) 0.0319(3)
C27 C 0.3908(4) 0.7026(3) 0.0371(2)
H14 H 0.4407 0.7259 0.0806
C28 C 0.3270(4) 0.7531(3) -0.0191(2)
C29 C 0.2563(4) 0.7141(3) -0.0800(2)
C30 C 0.2486(4) 0.6301(3) -0.0845(2)
H15 H 0.1980 0.6065 -0.1275
C31 C 0.2987(4) 0.4891(3) -0.0350(3)
H16 H 0.2538 0.4730 -0.0187
H17 H 0.3620 0.4633 -0.0048
H18 H 0.2719 0.4729 -0.0855
C32 C 0.3386(4) 0.8438(3) -0.0117(3)
H19 H 0.3144 0.8677 -0.0595
H20 H 0.4076 0.8572 0.0196
H21 H 0.3011 0.8647 0.0095
C33 C 0.1692(5) 0.7483(3) -0.2112(2)
H22 H 0.1991 0.7102 -0.2266
C34 C 0.0995(5) 0.8013(3) -0.2530(3)
H23 H 0.0718 0.8067 -0.3037
C35 C 0.1286(4) 0.8202(3) -0.1452(2)
H24 H 0.1267 0.8404 -0.1046
C36 C 0.4560(4) 0.4553(3) 0.3350(3)
H25 H 0.4008 0.4227 0.3060
C37 C 0.4630(4) 0.5072(3) 0.3855(3)
H26 H 0.4146 0.5181 0.3978
C38 C 0.5951(4) 0.5076(3) 0.3818(2)
H27 H 0.6595 0.5194 0.3928
C39 C 0.5979(4) 0.5993(3) 0.4733(2)
C40 C 0.5604(4) 0.6778(3) 0.4628(2)
C41 C 0.6121(4) 0.7301(3) 0.5219(2)
H28 H 0.5912 0.7841 0.5181
C42 C 0.6923(4) 0.7043(3) 0.5850(2)
C43 C 0.7286(4) 0.6261(3) 0.5943(3)
C44 C 0.6764(4) 0.5740(3) 0.5351(2)
H29 H 0.6969 0.5200 0.5389
C45 C 0.8168(5) 0.5989(3) 0.6624(3)
H30 H 0.8377 0.5466 0.6544
H31 H 0.8010 0.5943 0.7009
H32 H 0.8695 0.6378 0.6767
C46 C 0.4763(4) 0.7078(3) 0.3930(2)
H33 H 0.4809 0.6861 0.3524
H34 H 0.4782 0.7664 0.3920
H35 H 0.4149 0.6904 0.3890
C47 C 0.8152(4) 0.8094(3) 0.6522(2)
H36 H 0.8401 0.8099 0.6203
C48 C 0.7928(5) 0.8365(4) 0.7383(3)
H37 H 0.7978 0.8599 0.7803
C49 C 0.7272(5) 0.7791(4) 0.6978(3)
H38 H 0.6798 0.7552 0.7062
C50 C 0.3116(4) 0.5807(3) -0.0289(3)
Co1 Co 0.56390(5) 0.40619(4) 0.25697(3)
Co2 Co -0.03510(5) -0.07081(3) -0.24663(3)
N1 N 0.5406(3) 0.4921(2) 0.1833(2)
N2 N 0.4605(4) 0.5743(3) 0.0905(2)
N3 N 0.1883(3) 0.7601(2) -0.14224(18)
N4 N 0.0742(3) 0.8467(2) -0.21137(19)
N5 N 0.5377(3) 0.4561(2) 0.3313(2)
N6 N 0.5536(3) 0.5411(2) 0.4154(2)
N7 N 0.7433(3) 0.7630(2) 0.64236(19)
N8 N 0.8506(3) 0.8558(2) 0.71063(18)
O1 O -0.0153(2) -0.02143(17) -0.15415(15)
O2 O -0.1508(3) 0.03497(18) -0.24105(15)
O3 O -0.2722(2) 0.04029(19) -0.16942(17)
O4 O -0.3201(2) 0.16112(18) -0.21715(16)
O5 O -0.0095(3) 0.48050(19) 0.20745(17)
O6 O -0.0543(3) 0.5709(2) 0.12115(18)
O7 O 0.4462(3) 0.3504(2) 0.19298(17)
O8 O 0.4526(3) 0.2457(3) 0.25850(19)
Co1C Co -0.43610(5) 0.09381(4) -0.24303(3)
Co2_2 Co -0.03510(5) 0.92919(3) -0.24663(3)
Co2_3 Co 0.96490(5) 0.92919(3) 0.75337(3)
Co2C Co -0.03510(5) 0.57081(3) 0.25337(3)
N4_2 N 0.0742(3) -0.1533(2) -0.21137(19)
N8_2 N -0.1494(3) -0.1442(2) -0.28937(18)
O3C O 0.7278(2) 0.45971(19) 0.33058(17)
O4C O 0.6799(2) 0.33888(18) 0.28285(16)
O5C O -0.0095(3) 0.01950(19) -0.29255(17)
O9 O 0.6275(3) 0.1721(2) 0.2984(2)
H39 H 0.6118 0.2024 0.2630
H40 H 0.5809 0.1467 0.2966
O10 O 0.1478(4) 0.9447(3) 0.9817(2)
H41 H 0.1660 0.8968 0.9897
H42 H 0.1048 0.9565 0.9916
loop_
_geom_bond_atom_site_label_1
_geom_bond_atom_site_label_2
_geom_bond_site_symmetry_1
_geom_bond_site_symmetry_2
C1 C2 1_555 1_555
C2 C3 1_555 1_555
C3 C4 1_555 1_555
C4 O3 1_555 1_555
C5 C3 1_555 1_555
H1 C5 1_555 1_555
C6 C5 1_555 1_555
C7 C6 1_555 1_555
C8 C2 1_555 1_555
H2 C8 1_555 1_555
C9 C7 1_555 1_555
C10 C9 1_555 1_555
H3 C10 1_555 1_555
C11 C10 1_555 1_555
H4 C11 1_555 1_555
C12 C11 1_555 1_555
C13 C12 1_555 1_555
H5 C13 1_555 1_555
C14 C9 1_555 1_555
H6 C14 1_555 1_555
C15 C12 1_555 1_555
C16 C6 1_555 1_555
C17 C16 1_555 1_555
H7 C17 1_555 1_555
C18 C17 1_555 1_555
H8 C18 1_555 1_555
C19 C18 1_555 1_555
C20 C19 1_555 1_555
H9 C20 1_555 1_555
C21 C16 1_555 1_555
H10 C21 1_555 1_555
C22 C19 1_555 1_555
C23 H11 1_555 1_555
C24 C23 1_555 1_555
H12 C24 1_555 1_555
C25 H13 1_555 1_555
C26 C27 1_555 1_555
C27 H14 1_555 1_555
C28 C27 1_555 1_555
C29 C28 1_555 1_555
C30 C29 1_555 1_555
H15 C30 1_555 1_555
C31 H16 1_555 1_555
H17 C31 1_555 1_555
H18 C31 1_555 1_555
C32 C28 1_555 1_555
H19 C32 1_555 1_555
H20 C32 1_555 1_555
H21 C32 1_555 1_555
C33 H22 1_555 1_555
C34 C33 1_555 1_555
H23 C34 1_555 1_555
C35 H24 1_555 1_555
C36 H25 1_555 1_555
C37 C36 1_555 1_555
H26 C37 1_555 1_555
C38 H27 1_555 1_555
C39 C40 1_555 1_555
C40 C41 1_555 1_555
C41 H28 1_555 1_555
C42 C41 1_555 1_555
C43 C42 1_555 1_555
C44 C39 1_555 1_555
H29 C44 1_555 1_555
C45 C43 1_555 1_555
H30 C45 1_555 1_555
H31 C45 1_555 1_555
H32 C45 1_555 1_555
C46 C40 1_555 1_555
H33 C46 1_555 1_555
H34 C46 1_555 1_555
H35 C46 1_555 1_555
C47 H36 1_555 1_555
C48 H37 1_555 1_555
C49 C48 1_555 1_555
H38 C49 1_555 1_555
C50 C26 1_555 1_555
Co1 N1 1_555 1_555
Co2 O1 1_555 1_555
N1 C23 1_555 1_555
N2 C24 1_555 1_555
N3 C29 1_555 1_555
N4 C34 1_555 1_555
N5 C36 1_555 1_555
N6 C37 1_555 1_555
N7 C42 1_555 1_555
N8 C47 1_555 1_555
O1 C1 1_555 1_555
O2 C1 1_555 1_555
O3 Co1C 1_555 1_555
O4 C4 1_555 1_555
O5 C22 1_555 1_555
O6 C22 1_555 1_555
O7 C15 1_555 1_555
O8 C15 1_555 1_555
O9 H39 1_555 1_555
H40 O9 1_555 1_555
O10 H41 1_555 1_555
H42 O10 1_555 1_555
Co1C O4 1_555 1_555
Co2_2 N4 1_555 1_555
Co2_3 N8 1_555 1_555
Co2C O5 1_555 1_555
N4_2 Co2 1_555 1_555
N8_2 Co2 1_555 1_555
O3C Co1 1_555 1_555
O4C Co1 1_555 1_555
O5C Co2 1_555 1_555
C7 C8 1_555 1_555
C13 C14 1_555 1_555
C20 C21 1_555 1_555
C25 N1 1_555 1_555
C25 N2 1_555 1_555
C26 N2 1_555 1_555
C30 C50 1_555 1_555
C31 C50 1_555 1_555
C33 N3 1_555 1_555
C35 N3 1_555 1_555
C35 N4 1_555 1_555
C38 N5 1_555 1_555
C38 N6 1_555 1_555
C39 N6 1_555 1_555
C43 C44 1_555 1_555
C47 N7 1_555 1_555
C48 N8 1_555 1_555
C49 N7 1_555 1_555
Co1 N5 1_555 1_555
Co1 O7 1_555 1_555

#END
