
#######################################################################
#
#                 Cambridge Crystallographic Data Centre
#                                CCDC 
#
#######################################################################
#
# If this CIF has been generated from an entry in the Cambridge 
# Structural Database, then it will include bibliographic, chemical, 
# crystal, experimental, refinement or atomic coordinate data resulting 
# from the CCDC's data processing and validation procedures.
#
#######################################################################

data_GOPTOW
_symmetry_cell_setting           monoclinic
_symmetry_space_group_name_H-M   'C 2/c'
_symmetry_Int_Tables_number      15
_space_group_name_Hall           '-C 2yn'
loop_
_symmetry_equiv_pos_site_id
_symmetry_equiv_pos_as_xyz
1 x,y,z
2 -x,y,1/2-z
3 1/2+x,1/2+y,z
4 1/2-x,1/2+y,1/2-z
5 -x,-y,-z
6 x,-y,1/2+z
7 1/2-x,1/2-y,-z
8 1/2+x,1/2-y,1/2+z
_cell_length_a                   19.7798(6)
_cell_length_b                   12.5466(11)
_cell_length_c                   25.8545(6)
_cell_angle_alpha                90
_cell_angle_beta                 110.619(3)
_cell_angle_gamma                90
_cell_volume                     6005.28
loop_
_atom_site_label
_atom_site_type_symbol
_atom_site_fract_x
_atom_site_fract_y
_atom_site_fract_z
C1 C 0.30072(19) 0.6526(3) 0.94487(14)
C2 C 0.30530(19) 0.6139(3) 0.89101(14)
C3 C 0.36025(19) 0.5503(3) 0.88534(14)
C4 C 0.4144(2) 0.4944(3) 0.93361(15)
C5 C 0.3588(2) 0.5287(3) 0.83284(15)
H1 H 0.3975 0.4918 0.8290
C6 C 0.3031(2) 0.5589(3) 0.78549(15)
C7 C 0.2436(2) 0.6101(3) 0.79138(14)
C8 C 0.24652(19) 0.6388(3) 0.84400(14)
H2 H 0.2079 0.6759 0.8479
C9 C 0.1734(2) 0.6292(3) 0.74453(15)
C10 C 0.1645(2) 0.7059(4) 0.70629(17)
H3 H 0.2029 0.7506 0.7085
C11 C 0.0980(2) 0.7194(3) 0.66307(16)
H4 H 0.0927 0.7730 0.6371
C12 C 0.0408(2) 0.6537(3) 0.65897(15)
C13 C 0.0492(2) 0.5774(4) 0.69860(18)
H5 H 0.0107 0.5334 0.6969
C14 C 0.1153(2) 0.5657(4) 0.74142(18)
H6 H 0.1203 0.5141 0.7684
C15 C -0.0294(2) 0.6618(3) 0.61072(16)
C16 C 0.3100(2) 0.5266(3) 0.73109(15)
C17 C 0.2602(2) 0.4638(3) 0.69431(16)
H7 H 0.2163 0.4498 0.6986
C18 C 0.2752(2) 0.4201(3) 0.64983(15)
H8 H 0.2412 0.3763 0.6248
C19 C 0.3398(2) 0.4407(3) 0.64234(15)
C20 C 0.3880(2) 0.5091(4) 0.67805(17)
H9 H 0.4304 0.5271 0.6723
C21 C 0.3739(3) 0.5512(4) 0.72239(17)
H10 H 0.4074 0.5965 0.7468
C22 C 0.3588(2) 0.3838(3) 0.59745(15)
C23 C 0.3949(3) 1.0035(4) 0.9735(2)
H11 H 0.4403 0.9757 0.9782
C24 C 0.3689(2) 1.0946(4) 0.9478(2)
H12 H 0.3922 1.1406 0.9313
C25 C 0.2905(2) 1.0232(3) 0.97743(16)
H13 H 0.2487 1.0126 0.9854
C26 C 0.2511(2) 1.1925(3) 0.92990(16)
C27 C 0.2701(2) 1.2816(3) 0.90805(19)
H14 H 0.3156 1.2870 0.9052
C28 C 0.2207(3) 1.3637(4) 0.8903(2)
H15 H 0.2328 1.4235 0.8741
C29 C 0.1535(3) 1.3589(3) 0.89594(19)
H16 H 0.1212 1.4155 0.8850
C30 C 0.1361(2) 1.2686(3) 0.91808(17)
C31 C 0.1835(2) 1.1841(3) 0.93374(17)
H17 H 0.1700 1.1217 0.9468
C32 C 0.0577(2) 1.1997(3) 0.96587(17)
H18 H 0.0918 1.1530 0.9886
C33 C -0.0407(2) 1.2859(4) 0.9267(2)
H19 H -0.0879 1.3103 0.9176
C34 C 0.0063(3) 1.3168(4) 0.9016(2)
H20 H -0.0025 1.3654 0.8728
Co1 Co 0.45307(3) 0.64331(4) 1.027214(19)
Co2 Co 0.34329(3) 0.82035(4) 1.036216(19)
N1 N 0.34526(17) 0.9567(3) 0.99195(13)
N2 N 0.30147(17) 1.1077(3) 0.95010(14)
N3 N 0.06965(19) 1.2613(3) 0.92756(14)
N4 N -0.00721(18) 1.2122(3) 0.96785(14)
O1 O 0.34673(13) 0.7191(2) 0.97332(9)
O2 O 0.24824(13) 0.6201(2) 0.95653(10)
O3 O 0.41372(14) 0.5133(2) 0.98079(9)
O4 O 0.45257(14) 0.4250(2) 0.92271(10)
O5 O 0.40672(15) 0.4203(2) 0.58262(11)
O6 O 0.32315(16) 0.3011(2) 0.58014(11)
O7 O -0.08393(15) 0.6148(3) 0.61316(12)
O8 O -0.03230(14) 0.7118(2) 0.56877(10)
Co1B Co -0.04693(3) 1.14331(4) 1.027214(19)
Co1D Co 0.54693(3) 0.35669(4) 0.972786(19)
Co1E Co 0.45307(3) 0.35669(4) 0.527214(19)
Co1G Co -0.04693(3) 0.85669(4) 0.527214(19)
Co2E Co 0.34329(3) 0.17965(4) 0.536216(19)
Co2F Co 0.15671(3) 0.67965(4) 0.963784(19)
Co2G Co -0.15671(3) 0.67965(4) 0.536216(19)
N4B N 0.49279(18) 0.7122(3) 0.96785(14)
O2F O 0.25176(13) 0.8799(2) 1.04347(10)
O4D O 0.54743(14) 0.5750(2) 1.07729(10)
O5E O 0.40672(15) 0.5797(2) 1.08262(11)
O6E O 0.32315(16) 0.6989(2) 1.08014(11)
O7G O 0.41607(15) 0.8852(3) 1.11316(12)
O8G O 0.46770(14) 0.7882(2) 1.06877(10)
loop_
_geom_bond_atom_site_label_1
_geom_bond_atom_site_label_2
_geom_bond_site_symmetry_1
_geom_bond_site_symmetry_2
C1 C2 1_555 1_555
C2 C3 1_555 1_555
C3 C4 1_555 1_555
C4 O3 1_555 1_555
C5 C3 1_555 1_555
H1 C5 1_555 1_555
C6 C5 1_555 1_555
C7 C6 1_555 1_555
C8 C2 1_555 1_555
H2 C8 1_555 1_555
C9 C7 1_555 1_555
C10 C9 1_555 1_555
H3 C10 1_555 1_555
C11 C10 1_555 1_555
H4 C11 1_555 1_555
C12 C11 1_555 1_555
C13 C12 1_555 1_555
H5 C13 1_555 1_555
C14 C9 1_555 1_555
H6 C14 1_555 1_555
C15 C12 1_555 1_555
C16 C6 1_555 1_555
C17 C16 1_555 1_555
H7 C17 1_555 1_555
C18 C17 1_555 1_555
H8 C18 1_555 1_555
C19 C18 1_555 1_555
C20 C19 1_555 1_555
H9 C20 1_555 1_555
C21 C16 1_555 1_555
H10 C21 1_555 1_555
C22 C19 1_555 1_555
C23 H11 1_555 1_555
C24 C23 1_555 1_555
H12 C24 1_555 1_555
C25 H13 1_555 1_555
C26 C27 1_555 1_555
C27 H14 1_555 1_555
C28 C27 1_555 1_555
H15 C28 1_555 1_555
C29 C28 1_555 1_555
H16 C29 1_555 1_555
C30 C29 1_555 1_555
C31 C26 1_555 1_555
H17 C31 1_555 1_555
C32 H18 1_555 1_555
C33 H19 1_555 1_555
C34 C33 1_555 1_555
H20 C34 1_555 1_555
Co1 O1 1_555 1_555
Co2 N1 1_555 1_555
N1 C23 1_555 1_555
N2 C24 1_555 1_555
N3 C30 1_555 1_555
N4 C32 1_555 1_555
O1 C1 1_555 1_555
O2 C1 1_555 1_555
O3 Co1 1_555 1_555
O4 C4 1_555 1_555
O5 C22 1_555 1_555
O6 C22 1_555 1_555
O7 C15 1_555 1_555
O8 C15 1_555 1_555
Co1B N4 1_555 1_555
Co1D O4 1_555 1_555
Co1E O5 1_555 1_555
Co1G O8 1_555 1_555
Co2E O6 1_555 1_555
Co2F O2 1_555 1_555
Co2G O7 1_555 1_555
N4B Co1 1_555 1_555
O2F Co2 1_555 1_555
O4D Co1 1_555 1_555
O5E Co1 1_555 1_555
O6E Co2 1_555 1_555
O7G Co2 1_555 1_555
O8G Co1 1_555 1_555
C7 C8 1_555 1_555
C13 C14 1_555 1_555
C20 C21 1_555 1_555
C25 N1 1_555 1_555
C25 N2 1_555 1_555
C26 N2 1_555 1_555
C30 C31 1_555 1_555
C32 N3 1_555 1_555
C33 N4 1_555 1_555
C34 N3 1_555 1_555
Co2 O1 1_555 1_555
Co2 O8G 1_555 1_555
O8 Co2G 1_555 1_555

#END
