
#######################################################################
#
#                 Cambridge Crystallographic Data Centre
#                                CCDC 
#
#######################################################################
#
# If this CIF has been generated from an entry in the Cambridge 
# Structural Database, then it will include bibliographic, chemical, 
# crystal, experimental, refinement or atomic coordinate data resulting 
# from the CCDC's data processing and validation procedures.
#
#######################################################################

data_GOPTEM
_symmetry_cell_setting           triclinic
_symmetry_space_group_name_H-M   'P -1'
_symmetry_Int_Tables_number      2
_space_group_name_Hall           '-P 1'
loop_
_symmetry_equiv_pos_site_id
_symmetry_equiv_pos_as_xyz
1 x,y,z
2 -x,-y,-z
_cell_length_a                   7.7686(11)
_cell_length_b                   13.6512(7)
_cell_length_c                   19.8766(11)
_cell_angle_alpha                99.250(3)
_cell_angle_beta                 94.563(3)
_cell_angle_gamma                97.512(3)
_cell_volume                     2051.74
loop_
_atom_site_label
_atom_site_type_symbol
_atom_site_fract_x
_atom_site_fract_y
_atom_site_fract_z
Ni1 Ni 0.0000 0.5000 0.5000
N1 N 0.0379(7) 0.6530(4) 0.5351(3)
O1 O 0.0142(6) 0.5355(3) 0.4002(2)
O2 O 0.2668(4) 0.5045(2) 0.52052(11)
C1 C 0.1137(11) 0.7020(5) 0.5981(4)
C2 C -0.0002(9) 0.7240(5) 0.5017(4)
C3 C 0.1503(8) 0.5553(5) 0.3727(3)
H1 H 0.2804 0.4533 0.5356
H2 H 0.2789 0.5016 0.4796
H3 H 0.1549 0.6707 0.6331
C4 C 0.1203(11) 0.8014(5) 0.6022(4)
H4 H -0.0535 0.7126 0.4570
N2 N 0.0476(8) 0.8160(4) 0.5404(3)
C5 C 0.1397(8) 0.6083(5) 0.3116(3)
O3 O 0.2989(6) 0.5368(4) 0.3922(2)
H5 H 0.1653 0.8507 0.6397
C6 C 0.0238(9) 0.9096(5) 0.5198(4)
C7 C -0.0030(8) 0.5868(5) 0.2610(3)
C8 C 0.2764(8) 0.6814(5) 0.3051(3)
C9 C -0.0140(9) 0.9876(5) 0.5674(4)
C10 C 0.0370(9) 0.9217(5) 0.4523(4)
C11 C -0.1566(8) 0.5069(5) 0.2603(3)
C12 C -0.0002(9) 0.6390(5) 0.2067(3)
C13 C 0.2799(8) 0.7342(5) 0.2503(3)
H6 H 0.3705 0.6960 0.3389
H7 H -0.0240 0.9791 0.6125
H8 H 0.0611 0.8690 0.4203
O4 O -0.1325(6) 0.4178(3) 0.2513(3)
O5 O -0.3020(6) 0.5359(4) 0.2656(3)
H9 H -0.0957 0.6249 0.1736
C14 C 0.1364(9) 0.7110(5) 0.1988(3)
C15 C 0.4305(8) 0.8124(5) 0.2495(3)
C16 C 0.1272(8) 0.7575(4) 0.1330(3)
C17 C 0.4106(9) 0.9045(5) 0.2307(3)
C18 C 0.6005(9) 0.7945(5) 0.2668(4)
C19 C 0.2573(11) 0.7559(6) 0.0938(4)
C20 C -0.0185(10) 0.7969(6) 0.1167(4)
H10 H 0.2990 0.9192 0.2203
C21 C 0.5541(9) 0.9747(5) 0.2273(3)
C22 C 0.7437(9) 0.8662(5) 0.2657(3)
H11 H 0.6177 0.7334 0.2792
H12 H 0.3562 0.7289 0.1067
C23 C 0.2454(11) 0.7949(6) 0.0333(4)
C24 C -0.0351(10) 0.8356(6) 0.0566(4)
H13 H -0.1068 0.7980 0.1457
H14 H 0.5377 1.0347 0.2129
C25 C 0.7211(8) 0.9569(5) 0.2451(3)
H15 H 0.8552 0.8537 0.2788
H16 H 0.3372 0.7950 0.0059
C26 C 0.0960(11) 0.8336(6) 0.0139(4)
H17 H -0.1348 0.8628 0.0451
C27 C 0.8772(8) 1.0330(5) 0.2403(3)
C28 C 0.0707(13) 0.8688(6) -0.0527(4)
O6 O 0.8458(6) 1.1136(3) 0.2194(2)
O7 O 1.0244(6) 1.0156(4) 0.2581(3)
O8 O -0.0612(8) 0.9013(4) -0.0709(3)
O9 O 0.2014(9) 0.8595(6) -0.0897(3)
H18 H 0.1740 0.8703 -0.1283
O1A O -0.0142(6) 0.4645(3) 0.5998(2)
O2A O -0.2668(4) 0.4955(2) 0.47948(11)
N1A N -0.0379(7) 0.3470(4) 0.4649(3)
C3A C -0.1503(8) 0.4447(5) 0.6273(3)
H1A H -0.2804 0.5467 0.4644
H2A H -0.2789 0.4984 0.5204
C5A C -0.1397(8) 0.3917(5) 0.6884(3)
O3A O -0.2989(6) 0.4632(4) 0.6078(2)
C7A C 0.0030(8) 0.4132(5) 0.7390(3)
C8A C -0.2764(8) 0.3186(5) 0.6949(3)
C11A C 0.1566(8) 0.4931(5) 0.7397(3)
C12A C 0.0002(9) 0.3610(5) 0.7933(3)
C13A C -0.2799(8) 0.2658(5) 0.7497(3)
H6A H -0.3705 0.3040 0.6611
C10A C -0.0370(9) 1.0783(5) 0.5477(4)
C9A C 0.0140(9) 1.0124(5) 0.4326(4)
O4A O 0.1325(6) 0.5822(3) 0.7487(3)
O5A O 0.3020(6) 0.4641(4) 0.7344(3)
H9A H 0.0957 0.3751 0.8264
C14A C -0.1364(9) 0.2890(5) 0.8012(3)
C15A C -0.4305(8) 0.1876(5) 0.7505(3)
C6A C -0.0238(9) 1.0904(5) 0.4802(4)
H8A H -0.0611 1.1310 0.5797
H7A H 0.0240 1.0209 0.3875
C16A C -0.1272(8) 0.2425(4) 0.8670(3)
C17A C -0.4106(9) 0.0955(5) 0.7693(3)
C18A C -0.6005(9) 0.2055(5) 0.7332(4)
N2A N -0.0476(8) 1.1840(4) 0.4596(3)
C19A C -0.2573(11) 0.2441(6) 0.9062(4)
C20A C 0.0185(10) 0.2031(6) 0.8833(4)
H10A H -0.2990 0.0808 0.7797
C21A C -0.5541(9) 0.0253(5) 0.7727(3)
C22A C -0.7437(9) 0.1338(5) 0.7343(3)
H11A H -0.6177 0.2666 0.7208
C4A C -0.1203(11) 1.1986(5) 0.3978(4)
C2A C 0.0002(9) 1.2760(5) 0.4983(4)
H12A H -0.3562 0.2711 0.8933
C23A C -0.2454(11) 0.2051(6) 0.9667(4)
C24A C 0.0351(10) 0.1644(6) 0.9434(4)
H13A H 0.1068 0.2020 0.8543
H14A H -0.5377 -0.0347 0.7871
C25A C -0.7211(8) 0.0431(5) 0.7549(3)
H15A H -0.8552 0.1463 0.7212
C1A C -0.1137(11) 1.2980(5) 0.4019(4)
H5A H -0.1653 1.1493 0.3603
H4A H 0.0535 1.2874 0.5430
N1A_2 N -0.0379(7) 1.3470(4) 0.4649(3)
H16A H -0.3372 0.2050 0.9941
C26A C -0.0960(11) 0.1664(6) 0.9861(4)
H17A H 0.1348 0.1372 0.9549
C27A C -0.8772(8) -0.0330(5) 0.7597(3)
H3A H -0.1549 1.3293 0.3669
Ni1_2 Ni 0.0000 1.5000 0.5000
C28A C -0.0707(13) 0.1312(6) 1.0527(4)
O6A O -0.8458(6) -0.1136(3) 0.7806(2)
O7A O -1.0244(6) -0.0156(4) 0.7419(3)
O8A O 0.0612(8) 0.0987(4) 1.0709(3)
O9A O -0.2014(9) 0.1405(6) 1.0897(3)
H18A H -0.1740 0.1297 1.1283
C29 C 0.4210(18) 0.2979(7) 0.3988(5)
H19 H 0.4229 0.3668 0.4024
C30 C 0.4524(18) 0.2514(7) 0.4517(5)
H20 H 0.4785 0.2811 0.4976
C31 C 0.3999(10) 0.1446(5) 0.3578(4)
H21 H 0.3846 0.0841 0.3272
C32 C 0.4696(9) 0.0744(5) 0.4634(3)
C33 C 0.5213(10) -0.0120(5) 0.4311(4)
H22 H 0.5373 -0.0195 0.3847
C34 C 0.4503(10) 0.0882(5) 0.5324(4)
H23 H 0.4188 0.1477 0.5543
C35 C 0.4128(11) 0.2957(6) 0.0914(4)
H24 H 0.5062 0.2595 0.0887
C36 C 0.3498(11) 0.3404(6) 0.0409(4)
H25 H 0.3898 0.3407 -0.0020
C37 C 0.2011(10) 0.3657(5) 0.1294(4)
H26 H 0.1189 0.3876 0.1576
C38 C 0.1035(10) 0.4432(5) 0.0317(4)
C39 C 0.1668(11) 0.4949(6) -0.0168(4)
H27 H 0.2799 0.4915 -0.0282
C40 C -0.0627(11) 0.4476(6) 0.0490(4)
H28 H -0.1054 0.4124 0.0820
N3 N 0.3860(7) 0.2316(4) 0.3395(3)
N4 N 0.4387(8) 0.1530(4) 0.4257(3)
N5 N 0.3211(8) 0.3106(4) 0.1468(3)
N6 N 0.2141(8) 0.3857(4) 0.0658(3)
Ni2 Ni 0.34967(10) 0.26876(6) 0.24239(4)
O10 O 0.6093(3) 0.2580(2) 0.22742(12)
H29 H 0.6509 0.2052 0.2217
H30 H 0.6821 0.3087 0.2336
O11 O 0.4127(3) 0.41912(14) 0.28037(11)
H31 H 0.5098 0.4461 0.2744
H32 H 0.3657 0.4508 0.3105
O12 O 0.2696(4) 0.11979(16) 0.19825(12)
H33 H 0.2122 0.0830 0.2197
H34 H 0.2357 0.1123 0.1574
O13 O 0.0922(2) 0.28063(19) 0.25641(11)
H35 H 0.0202 0.2296 0.2491
H36 H 0.0501 0.3330 0.2590
C29A C 0.5790(18) -0.2979(7) 0.6012(5)
H19A H 0.5771 -0.3668 0.5976
C30A C 0.5476(18) -0.2514(7) 0.5483(5)
H20A H 0.5215 -0.2811 0.5024
C31A C 0.6001(10) -0.1446(5) 0.6422(4)
H21A H 0.6154 -0.0841 0.6728
C32A C 0.5304(9) -0.0744(5) 0.5366(3)
C33A C 0.4787(10) 0.0120(5) 0.5689(4)
H22A H 0.4627 0.0195 0.6153
C34A C 0.5497(10) -0.0882(5) 0.4676(4)
H23A H 0.5812 -0.1477 0.4457
N3A N 0.6140(7) -0.2316(4) 0.6605(3)
N4A N 0.5613(8) -0.1530(4) 0.5743(3)
C35A C -0.4128(11) 0.7043(6) -0.0914(4)
H24A H -0.5062 0.7405 -0.0887
C36A C -0.3498(11) 0.6596(6) -0.0409(4)
H25A H -0.3898 0.6593 0.0020
C37A C -0.2011(10) 0.6343(5) -0.1294(4)
H26A H -0.1189 0.6124 -0.1576
C38A C -0.1035(10) 0.5568(5) -0.0317(4)
C39A C -0.1668(11) 0.5051(6) 0.0168(4)
H27A H -0.2799 0.5085 0.0282
C40A C 0.0627(11) 0.5524(6) -0.0490(4)
H28A H 0.1054 0.5876 -0.0820
N5A N -0.3211(8) 0.6894(4) -0.1468(3)
N6A N -0.2141(8) 0.6143(4) -0.0658(3)
Ni2A Ni -0.34967(10) 0.73124(6) -0.24239(4)
O10A O -0.6093(3) 0.7420(2) -0.22742(12)
H29A H -0.6509 0.7948 -0.2217
H30A H -0.6821 0.6913 -0.2336
O11A O -0.4127(3) 0.58088(14) -0.28037(11)
H31A H -0.5098 0.5539 -0.2744
H32A H -0.3657 0.5492 -0.3105
O12A O -0.2696(4) 0.88021(16) -0.19825(12)
H33A H -0.2122 0.9170 -0.2197
H34A H -0.2357 0.8877 -0.1574
O13A O -0.0922(2) 0.71937(19) -0.25641(11)
H35A H -0.0202 0.7704 -0.2491
H36A H -0.0501 0.6670 -0.2590
N3A_2 N -0.3860(7) 0.7684(4) -0.3395(3)
Ni2A_2 Ni 0.65033(10) -0.26876(6) 0.75761(4)
O14 O 0.3590(5) 0.3668(3) 0.60056(10)
H37 H 0.4659 0.3791 0.6059
H38 H 0.3106 0.3856 0.6346
O15 O 0.5313(7) 0.5777(2) 0.13315(16)
H39 H 0.5368 0.5717 0.1749
H40 H 0.5806 0.6361 0.1250
loop_
_geom_bond_atom_site_label_1
_geom_bond_atom_site_label_2
_geom_bond_site_symmetry_1
_geom_bond_site_symmetry_2
Ni1 N1 1_555 1_555
N1 C1 1_555 1_555
O1 Ni1 1_555 1_555
O2 Ni1 1_555 1_555
C1 H3 1_555 1_555
C2 N1 1_555 1_555
C3 O1 1_555 1_555
H1 O2 1_555 1_555
H2 O2 1_555 1_555
C4 C1 1_555 1_555
H4 C2 1_555 1_555
N2 C2 1_555 1_555
C5 C3 1_555 1_555
O3 C3 1_555 1_555
H5 C4 1_555 1_555
C6 N2 1_555 1_555
C7 C5 1_555 1_555
C8 C5 1_555 1_555
C9 C6 1_555 1_555
C10 C6 1_555 1_555
C11 C7 1_555 1_555
C12 C7 1_555 1_555
C13 C8 1_555 1_555
H6 C8 1_555 1_555
H7 C9 1_555 1_555
H8 C10 1_555 1_555
O4 C11 1_555 1_555
O5 C11 1_555 1_555
H9 C12 1_555 1_555
C14 C12 1_555 1_555
C15 C13 1_555 1_555
C16 C14 1_555 1_555
C17 C15 1_555 1_555
C18 C15 1_555 1_555
C19 C16 1_555 1_555
C20 C16 1_555 1_555
H10 C17 1_555 1_555
C21 C17 1_555 1_555
C22 C18 1_555 1_555
H11 C18 1_555 1_555
H12 C19 1_555 1_555
C23 C19 1_555 1_555
C24 C20 1_555 1_555
H13 C20 1_555 1_555
H14 C21 1_555 1_555
C25 C21 1_555 1_555
H15 C22 1_555 1_555
H16 C23 1_555 1_555
C26 C23 1_555 1_555
H17 C24 1_555 1_555
C27 C25 1_555 1_555
C28 C26 1_555 1_555
O6 C27 1_555 1_555
O7 C27 1_555 1_555
O8 C28 1_555 1_555
O9 C28 1_555 1_555
H18 O9 1_555 1_555
C29 H19 1_555 1_555
C30 C29 1_555 1_555
H20 C30 1_555 1_555
C31 H21 1_555 1_555
C32 C33 1_555 1_555
C33 H22 1_555 1_555
C34 C32 1_555 1_555
H23 C34 1_555 1_555
C35 H24 1_555 1_555
C36 C35 1_555 1_555
H25 C36 1_555 1_555
C37 H26 1_555 1_555
C38 C39 1_555 1_555
C39 H27 1_555 1_555
C40 C38 1_555 1_555
H28 C40 1_555 1_555
N3 C29 1_555 1_555
N4 C30 1_555 1_555
N5 C35 1_555 1_555
N6 C36 1_555 1_555
Ni2 N3 1_555 1_555
O10 Ni2 1_555 1_555
H29 O10 1_555 1_555
H30 O10 1_555 1_555
O11 Ni2 1_555 1_555
H31 O11 1_555 1_555
H32 O11 1_555 1_555
O12 Ni2 1_555 1_555
H33 O12 1_555 1_555
H34 O12 1_555 1_555
O13 Ni2 1_555 1_555
H35 O13 1_555 1_555
H36 O13 1_555 1_555
O14 H37 1_555 1_555
H38 O14 1_555 1_555
O15 H39 1_555 1_555
H40 O15 1_555 1_555
O1A Ni1 1_555 1_555
O2A Ni1 1_555 1_555
N1A Ni1 1_555 1_555
C3A O1A 1_555 1_555
H1A O2A 1_555 1_555
H2A O2A 1_555 1_555
C5A C3A 1_555 1_555
O3A C3A 1_555 1_555
C7A C5A 1_555 1_555
C8A C5A 1_555 1_555
C11A C7A 1_555 1_555
C12A C7A 1_555 1_555
C13A C8A 1_555 1_555
H6A C8A 1_555 1_555
C10A C9 1_555 1_555
C9A C10 1_555 1_555
O4A C11A 1_555 1_555
O5A C11A 1_555 1_555
H9A C12A 1_555 1_555
C14A C12A 1_555 1_555
C15A C13A 1_555 1_555
C6A C10A 1_555 1_555
H8A C10A 1_555 1_555
H7A C9A 1_555 1_555
C16A C14A 1_555 1_555
C17A C15A 1_555 1_555
C18A C15A 1_555 1_555
N2A C6A 1_555 1_555
C19A C16A 1_555 1_555
C20A C16A 1_555 1_555
H10A C17A 1_555 1_555
C21A C17A 1_555 1_555
C22A C18A 1_555 1_555
H11A C18A 1_555 1_555
C4A N2A 1_555 1_555
C2A N2A 1_555 1_555
H12A C19A 1_555 1_555
C23A C19A 1_555 1_555
C24A C20A 1_555 1_555
H13A C20A 1_555 1_555
H14A C21A 1_555 1_555
C25A C21A 1_555 1_555
H15A C22A 1_555 1_555
C1A C4A 1_555 1_555
H5A C4A 1_555 1_555
H4A C2A 1_555 1_555
N1A_2 C2A 1_555 1_555
H16A C23A 1_555 1_555
C26A C23A 1_555 1_555
H17A C24A 1_555 1_555
C27A C25A 1_555 1_555
H3A C1A 1_555 1_555
Ni1_2 N1A_2 1_555 1_555
C28A C26A 1_555 1_555
O6A C27A 1_555 1_555
O7A C27A 1_555 1_555
O8A C28A 1_555 1_555
O9A C28A 1_555 1_555
H18A O9A 1_555 1_555
C29A H19A 1_555 1_555
C30A C29A 1_555 1_555
H20A C30A 1_555 1_555
C31A H21A 1_555 1_555
C32A C33A 1_555 1_555
C33A C34 1_555 1_555
H22A C33A 1_555 1_555
C34A C33 1_555 1_555
H23A C34A 1_555 1_555
N3A C29A 1_555 1_555
N4A C30A 1_555 1_555
C35A H24A 1_555 1_555
C36A C35A 1_555 1_555
H25A C36A 1_555 1_555
C37A H26A 1_555 1_555
C38A C39A 1_555 1_555
C39A C40 1_555 1_555
H27A C39A 1_555 1_555
C40A C39 1_555 1_555
H28A C40A 1_555 1_555
N5A C35A 1_555 1_555
N6A C36A 1_555 1_555
Ni2A N5A 1_555 1_555
O10A Ni2A 1_555 1_555
H29A O10A 1_555 1_555
H30A O10A 1_555 1_555
O11A Ni2A 1_555 1_555
H31A O11A 1_555 1_555
H32A O11A 1_555 1_555
O12A Ni2A 1_555 1_555
H33A O12A 1_555 1_555
H34A O12A 1_555 1_555
O13A Ni2A 1_555 1_555
H35A O13A 1_555 1_555
H36A O13A 1_555 1_555
N3A_2 Ni2A 1_555 1_555
Ni2A_2 N3A 1_555 1_555
C4 N2 1_555 1_555
C13 C14 1_555 1_555
C22 C25 1_555 1_555
C24 C26 1_555 1_555
C31 N3 1_555 1_555
C31 N4 1_555 1_555
C32 N4 1_555 1_555
C37 N5 1_555 1_555
C37 N6 1_555 1_555
C38 N6 1_555 1_555
N5 Ni2 1_555 1_555
C13A C14A 1_555 1_555
C9A C6A 1_555 1_555
C22A C25A 1_555 1_555
C24A C26A 1_555 1_555
C1A N1A_2 1_555 1_555
C31A N3A 1_555 1_555
C31A N4A 1_555 1_555
C32A C34A 1_555 1_555
C32A N4A 1_555 1_555
C37A N5A 1_555 1_555
C37A N6A 1_555 1_555
C38A C40A 1_555 1_555
C38A N6A 1_555 1_555

#END
