
#######################################################################
#
#                 Cambridge Crystallographic Data Centre
#                                CCDC 
#
#######################################################################
#
# If this CIF has been generated from an entry in the Cambridge 
# Structural Database, then it will include bibliographic, chemical, 
# crystal, experimental, refinement or atomic coordinate data resulting 
# from the CCDC's data processing and validation procedures.
#
#######################################################################

data_GOQKIG
_symmetry_cell_setting           triclinic
_symmetry_space_group_name_H-M   'P -1'
_symmetry_Int_Tables_number      2
_space_group_name_Hall           '-P 1'
loop_
_symmetry_equiv_pos_site_id
_symmetry_equiv_pos_as_xyz
1 x,y,z
2 -x,-y,-z
_cell_length_a                   8.455(4)
_cell_length_b                   9.778(3)
_cell_length_c                   12.065(5)
_cell_angle_alpha                89.86(3)
_cell_angle_beta                 78.25(3)
_cell_angle_gamma                75.08(3)
_cell_volume                     942.307
loop_
_atom_site_label
_atom_site_type_symbol
_atom_site_fract_x
_atom_site_fract_y
_atom_site_fract_z
Mn1 Mn 0.28983(5) 0.03062(4) 0.01132(3)
N1 N 0.1094(3) -0.0563(3) 0.1328(2)
N2 N 0.0044(3) -0.1008(2) 0.1085(2)
N3 N -0.1014(3) -0.1464(3) 0.0877(2)
N4 N 0.5071(3) 0.0842(2) -0.0974(2)
N5 N 0.5248(3) 0.1114(3) -0.1942(2)
N6 N 0.5443(6) 0.1341(4) -0.2890(3)
N7 N 0.2224(3) 0.2348(2) 0.1212(2)
C1 C 0.2456(4) 0.2367(3) 0.2277(2)
H1 H 0.2788(4) 0.1500(3) 0.2596(2)
C2 C 0.2238(4) 0.3585(3) 0.2936(2)
C3 C 0.1736(4) 0.4888(3) 0.2464(3)
C4 C 0.1460(5) 0.4869(3) 0.1376(3)
H2 H 0.1095(5) 0.5719(3) 0.1042(3)
C5 C 0.1718(4) 0.3608(3) 0.0782(3)
H3 H 0.1533(4) 0.3631(3) 0.0048(3)
C6 C 0.2553(6) 0.3524(4) 0.4131(3)
H4 H 0.3490(6) 0.3919(4) 0.4144(3)
H5 H 0.1578(6) 0.4130(4) 0.4630(3)
C7 C 0.2918(7) 0.2075(5) 0.4612(3)
H6 H 0.3065(43) 0.2162(6) 0.5375(11)
H7 H 0.3921(23) 0.1476(12) 0.4156(17)
H8 H 0.1999(19) 0.1668(15) 0.4612(26)
C8 C 0.1503(6) 0.6276(4) 0.3092(3)
H9 H 0.2538(11) 0.6310(13) 0.3287(21)
H10 H 0.0655(26) 0.6361(14) 0.3771(13)
H11 H 0.1165(36) 0.7042(4) 0.2620(10)
N8 N 0.3255(3) -0.1649(2) -0.1067(2)
C9 C 0.2939(4) -0.1542(4) -0.2110(3)
H12 H 0.2741(4) -0.0647(4) -0.2403(3)
C10 C 0.2884(5) -0.2663(4) -0.2785(3)
C11 C 0.3219(5) -0.4012(4) -0.2365(4)
C12 C 0.3596(5) -0.4129(4) -0.1321(3)
H13 H 0.3859(5) -0.5018(4) -0.1023(3)
C13 C 0.3592(4) -0.2947(3) -0.0696(3)
H14 H 0.3838(4) -0.3068(3) 0.0020(3)
C14 C 0.2462(8) -0.2412(7) -0.3943(4)
H15 H 0.3517(8) -0.2669(7) -0.4491(4)
H16 H 0.1855(8) -0.3095(7) -0.4068(4)
C15 C 0.1620(10) -0.1192(7) -0.4223(4)
H17 H 0.1356(63) -0.1303(14) -0.4949(23)
H18 H 0.2282(27) -0.0523(18) -0.4261(46)
H19 H 0.0603(33) -0.0854(29) -0.3664(26)
C16 C 0.3146(7) -0.5301(5) -0.3036(5)
H20 H 0.3920(37) -0.5408(25) -0.3753(15)
H21 H 0.2033(14) -0.5176(20) -0.3161(30)
H22 H 0.3439(50) -0.6132(8) -0.2618(16)
N3A N 0.1014(3) 0.1464(3) -0.0877(2)
Mn1A Mn -0.28983(5) -0.03062(4) -0.01132(3)
Mn1A_2 Mn 0.71017(5) -0.03062(4) -0.01132(3)
N4A N 0.4929(3) -0.0842(2) 0.0974(2)
loop_
_geom_bond_atom_site_label_1
_geom_bond_atom_site_label_2
_geom_bond_site_symmetry_1
_geom_bond_site_symmetry_2
Mn1 N1 1_555 1_555
N1 N2 1_555 1_555
N2 N3 1_555 1_555
N3 Mn1A 1_555 1_555
N4 Mn1 1_555 1_555
N5 N4 1_555 1_555
N6 N5 1_555 1_555
N7 Mn1 1_555 1_555
C1 N7 1_555 1_555
H1 C1 1_555 1_555
C2 C1 1_555 1_555
C3 C2 1_555 1_555
C4 C3 1_555 1_555
H2 C4 1_555 1_555
C5 N7 1_555 1_555
H3 C5 1_555 1_555
C6 C2 1_555 1_555
H4 C6 1_555 1_555
H5 C6 1_555 1_555
C7 C6 1_555 1_555
H6 C7 1_555 1_555
H7 C7 1_555 1_555
H8 C7 1_555 1_555
C8 C3 1_555 1_555
H9 C8 1_555 1_555
H10 C8 1_555 1_555
H11 C8 1_555 1_555
N8 Mn1 1_555 1_555
C9 N8 1_555 1_555
H12 C9 1_555 1_555
C10 C9 1_555 1_555
C11 C10 1_555 1_555
C12 C11 1_555 1_555
H13 C12 1_555 1_555
C13 N8 1_555 1_555
H14 C13 1_555 1_555
C14 C10 1_555 1_555
H15 C14 1_555 1_555
H16 C14 1_555 1_555
C15 C14 1_555 1_555
H17 C15 1_555 1_555
H18 C15 1_555 1_555
H19 C15 1_555 1_555
C16 C11 1_555 1_555
H20 C16 1_555 1_555
H21 C16 1_555 1_555
H22 C16 1_555 1_555
N3A Mn1 1_555 1_555
Mn1A_2 N4 1_555 1_555
N4A Mn1 1_555 1_555
C4 C5 1_555 1_555
C12 C13 1_555 1_555
Mn1A_2 N4A 1_555 1_555

#END
