
#######################################################################
#
#                 Cambridge Crystallographic Data Centre
#                                CCDC 
#
#######################################################################
#
# If this CIF has been generated from an entry in the Cambridge 
# Structural Database, then it will include bibliographic, chemical, 
# crystal, experimental, refinement or atomic coordinate data resulting 
# from the CCDC's data processing and validation procedures.
#
#######################################################################

data_GOQKII
_symmetry_cell_setting           triclinic
_symmetry_space_group_name_H-M   'P -1'
_symmetry_Int_Tables_number      2
_space_group_name_Hall           '-P 1'
loop_
_symmetry_equiv_pos_site_id
_symmetry_equiv_pos_as_xyz
1 x,y,z
2 -x,-y,-z
_cell_length_a                   9.3395(3)
_cell_length_b                   12.6055(4)
_cell_length_c                   16.7998(6)
_cell_angle_alpha                87.865(2)
_cell_angle_beta                 76.551(2)
_cell_angle_gamma                73.180(2)
_cell_volume                     1840.33
loop_
_atom_site_label
_atom_site_type_symbol
_atom_site_fract_x
_atom_site_fract_y
_atom_site_fract_z
Ag1 Ag -0.05643(6) -0.00030(5) 0.91574(4)
Ag2 Ag 0.90307(7) 0.54909(6) 0.43319(4)
S1 S 0.3567(3) 0.37629(19) 0.68716(15)
S2 S 1.2958(3) 0.86477(19) 0.19977(15)
N1 N 0.0949(6) 0.0814(5) 0.8359(3)
N2 N 0.7378(6) 0.4833(5) 0.5148(3)
N3 N 1.0328(7) 0.6444(6) 0.3546(4)
N4 N 1.7652(6) 0.9315(4) -0.0147(3)
O1 O 1.2026(10) 0.2469(7) 0.4368(5)
O2 O 1.0622(9) 0.3496(7) 0.3584(5)
F1 F 1.1877(9) 0.1812(9) 0.2461(5)
F2 F 1.3376(11) 0.0965(7) 0.3161(6)
F3 F 1.3425(17) 0.3396(10) 0.2267(10)
F4 F 1.4813(13) 0.2468(14) 0.2942(7)
F5 F 1.4759(8) 0.1813(7) 0.1846(4)
C1 C 0.1966(8) 0.0282(6) 0.7692(4)
H1 H 0.2020 -0.0452 0.7594
C2 C 0.2922(9) 0.0745(6) 0.7151(5)
H2 H 0.3595 0.0337 0.6695
C3 C 0.2884(7) 0.1793(6) 0.7282(4)
C4 C 0.1840(8) 0.2384(6) 0.7964(5)
H3 H 0.1769 0.3120 0.8067
C5 C 0.0906(8) 0.1845(6) 0.8488(4)
H4 H 0.0221 0.2233 0.8949
C6 C 0.4012(8) 0.2291(6) 0.6629(5)
H5 H 0.3883 0.2187 0.6083
H6 H 0.5070 0.1917 0.6644
C7 C 0.5100(8) 0.4107(6) 0.6179(4)
C8 C 0.6335(8) 0.3369(6) 0.5652(4)
H7 H 0.6413 0.2617 0.5639
C9 C 0.7426(8) 0.3771(6) 0.5156(4)
H8 H 0.8245 0.3274 0.4806
C10 C 0.6171(8) 0.5532(7) 0.5660(4)
H9 H 0.6114 0.6281 0.5663
C11 C 0.5035(8) 0.5204(6) 0.6172(4)
H10 H 0.4223 0.5719 0.6513
C12 C 1.1400(9) 0.6014(8) 0.2888(5)
H11 H 1.1603 0.5268 0.2754
C13 C 1.2267(8) 0.6650(7) 0.2370(5)
H12 H 1.3007 0.6331 0.1904
C14 C 1.1971(8) 0.7739(6) 0.2584(5)
C15 C 1.0880(9) 0.8203(8) 0.3251(5)
H13 H 1.0663 0.8948 0.3392
C16 C 1.0094(9) 0.7538(8) 0.3718(5)
H14 H 0.9351 0.7858 0.4184
C17 C 1.4219(9) 0.7762(7) 0.1169(4)
H15 H 1.4738 0.7059 0.1371
H16 H 1.3644 0.7621 0.0793
C18 C 1.5444(8) 0.8377(6) 0.0716(4)
C19 C 1.6465(9) 0.7864(6) 0.0042(5)
H17 H 1.6432 0.7185 -0.0140
C20 C 1.7545(8) 0.8332(6) -0.0374(5)
H18 H 1.8243 0.7958 -0.0836
C21 C 1.6622(7) 0.9848(6) 0.0506(4)
H19 H 1.6653 1.0538 0.0667
C22 C 1.5491(8) 0.9395(7) 0.0958(4)
H20 H 1.4783 0.9776 0.1414
C23 C 1.1651(12) 0.2723(10) 0.3714(7)
C24 C 1.2674(13) 0.1996(10) 0.2969(7)
C25 C 1.3893(18) 0.2409(13) 0.2473(10)
Ag1_2 Ag 1.94357(6) 0.99970(5) -0.08426(4)
Ag2A Ag 1.09693(7) 0.45091(6) 0.56681(4)
N4_2 N -0.2348(6) -0.0685(4) 0.9853(3)
O3 O 0.1336(8) -0.2046(5) 0.8597(4)
O4 O 0.1852(9) -0.1955(5) 0.9815(4)
F6 F 0.3946(13) -0.3951(8) 0.9510(8)
F7 F 0.3474(9) -0.4037(6) 0.8335(4)
F8 F 0.0745(14) -0.4184(9) 0.8984(10)
F9 F 0.1134(18) -0.4112(8) 1.0151(7)
F10 F 0.2555(14) -0.5446(5) 0.9319(6)
C26 C 0.1850(10) -0.2419(7) 0.9191(6)
C27 C 0.2722(15) -0.3671(9) 0.9107(7)
C28 C 0.184(3) -0.4384(16) 0.9400(13)
O5 O 0.1699(8) -0.2716(8) 0.6958(5)
H21 H 0.1746 -0.2780 0.7469
H22 H 0.1222 -0.3222 0.6895
O6 O 0.214(2) -0.1142(11) 0.5824(7)
O7 O 1.4768(18) 0.1078(12) 0.4850(7)
H23 H 1.5416 0.1428 0.4608
H24 H 1.3896 0.1508 0.4702
O8? O 0.092(5) 0.025(3) 0.4740(19)
loop_
_geom_bond_atom_site_label_1
_geom_bond_atom_site_label_2
_geom_bond_site_symmetry_1
_geom_bond_site_symmetry_2
Ag1 N1 1_555 1_555
Ag2 N2 1_555 1_555
S1 C6 1_555 1_555
S2 C14 1_555 1_555
N1 C1 1_555 1_555
N2 C9 1_555 1_555
N3 Ag2 1_555 1_555
N4 C20 1_555 1_555
O1 C23 1_555 1_555
O2 Ag2 1_555 1_555
F1 C24 1_555 1_555
F2 C24 1_555 1_555
F3 C25 1_555 1_555
F4 C25 1_555 1_555
F5 C25 1_555 1_555
C1 H1 1_555 1_555
C2 C1 1_555 1_555
H2 C2 1_555 1_555
C3 C2 1_555 1_555
C4 C3 1_555 1_555
H3 C4 1_555 1_555
C5 N1 1_555 1_555
H4 C5 1_555 1_555
C6 C3 1_555 1_555
H5 C6 1_555 1_555
H6 C6 1_555 1_555
C7 S1 1_555 1_555
C8 C7 1_555 1_555
H7 C8 1_555 1_555
C9 C8 1_555 1_555
H8 C9 1_555 1_555
C10 N2 1_555 1_555
H9 C10 1_555 1_555
C11 C7 1_555 1_555
H10 C11 1_555 1_555
C12 N3 1_555 1_555
H11 C12 1_555 1_555
C13 C12 1_555 1_555
H12 C13 1_555 1_555
C14 C13 1_555 1_555
C15 C14 1_555 1_555
H13 C15 1_555 1_555
C16 N3 1_555 1_555
H14 C16 1_555 1_555
C17 S2 1_555 1_555
H15 C17 1_555 1_555
H16 C17 1_555 1_555
C18 C17 1_555 1_555
C19 C18 1_555 1_555
H17 C19 1_555 1_555
C20 C19 1_555 1_555
H18 C20 1_555 1_555
C21 N4 1_555 1_555
H19 C21 1_555 1_555
C22 C18 1_555 1_555
H20 C22 1_555 1_555
C23 O2 1_555 1_555
C24 C23 1_555 1_555
C25 C24 1_555 1_555
O3 C26 1_555 1_555
O4 C26 1_555 1_555
F6 C27 1_555 1_555
F7 C27 1_555 1_555
F8 C28 1_555 1_555
F9 C28 1_555 1_555
F10 C28 1_555 1_555
C26 C27 1_555 1_555
C27 C28 1_555 1_555
O5 H21 1_555 1_555
H22 O5 1_555 1_555
O7 H23 1_555 1_555
H24 O7 1_555 1_555
Ag1_2 N4 1_555 1_555
Ag2A Ag2 1_555 1_555
N4_2 Ag1 1_555 1_555
C4 C5 1_555 1_555
C10 C11 1_555 1_555
C15 C16 1_555 1_555
C21 C22 1_555 1_555

#END
