
#######################################################################
#
#                 Cambridge Crystallographic Data Centre
#                                CCDC 
#
#######################################################################
#
# If this CIF has been generated from an entry in the Cambridge 
# Structural Database, then it will include bibliographic, chemical, 
# crystal, experimental, refinement or atomic coordinate data resulting 
# from the CCDC's data processing and validation procedures.
#
#######################################################################

data_GOQMUW
_symmetry_cell_setting           triclinic
_symmetry_space_group_name_H-M   'P -1'
_symmetry_Int_Tables_number      2
_space_group_name_Hall           '-P 1'
loop_
_symmetry_equiv_pos_site_id
_symmetry_equiv_pos_as_xyz
1 x,y,z
2 -x,-y,-z
_cell_length_a                   10.267(4)
_cell_length_b                   12.136(6)
_cell_length_c                   22.648(10)
_cell_angle_alpha                102.16(3)
_cell_angle_beta                 95.99(3)
_cell_angle_gamma                102.80(3)
_cell_volume                     2656.11
loop_
_atom_site_label
_atom_site_type_symbol
_atom_site_fract_x
_atom_site_fract_y
_atom_site_fract_z
Ag1 Ag 1.11810(4) 0.36466(5) 0.20767(2)
Ag2 Ag 0.84389(4) 0.33428(4) 0.11627(2)
Ag3 Ag -0.13119(4) 0.00806(4) 0.46081(2)
S1 S 0.6614(3) 0.0813(2) 0.34855(13)
C1 C 0.6559(6) 0.1827(7) 0.4204(3)
H1 H 0.7307 0.1872 0.4515
H2 H 0.6600 0.2601 0.4143
O1 O 1.0978(4) 0.5609(4) 0.2463(2)
O2 O 0.8945(4) 0.5352(3) 0.18829(18)
O3 O 1.0842(4) 0.7763(4) 0.30686(18)
H3 H 1.1245 0.8127 0.2848
O4 O 0.9322(6) 0.7911(4) 0.4178(2)
O5 O 0.7778(5) 0.8236(4) 0.3566(2)
O6 O 0.9605(7) 0.8754(5) 0.1608(3)
O7 O 1.1191(5) 0.8092(6) 0.2046(3)
N1 N 0.6795(4) 0.2665(3) 0.16162(16)
N2 N 0.0220(3) 0.1007(4) 0.41998(17)
N3 N 0.2961(4) 0.0432(4) 0.49080(17)
N4 N 1.7081(2) 0.6009(2) -0.15942(9)
C2 C 1.6178(3) 0.4920(2) -0.17133(16)
H4 H 1.6283 0.4310 -0.2015
C3 C 1.5117(3) 0.4744(4) -0.1381(2)
H5 H 1.4513 0.4016 -0.1461
C4 C 1.4960(3) 0.5656(5) -0.09302(19)
C5 C 1.5863(4) 0.6745(4) -0.08111(15)
H6 H 1.5758 0.7355 -0.0509
C6 C 1.6924(3) 0.6921(3) -0.11431(13)
H7 H 1.7528 0.7649 -0.1063
S2 S 1.3641(2) 0.57837(16) -0.03465(9)
C7 C 1.2803(8) 0.4223(5) -0.0605(3)
H8 H 1.2300 0.3997 -0.1017
H9 H 1.3399 0.3721 -0.0553
C8 C 1.19003(18) 0.4375(2) -0.00938(9)
C9 C 1.1106(2) 0.3238(2) -0.02334(13)
H10 H 1.1217 0.2696 -0.0569
C10 C 1.0148(3) 0.2912(3) 0.01292(17)
H11 H 0.9617 0.2151 0.0036
N5 N 0.9983(3) 0.3723(4) 0.06312(16)
C11 C 1.0777(3) 0.4860(3) 0.07708(12)
H12 H 1.0667 0.5402 0.1107
C12 C 1.1736(2) 0.5186(2) 0.04083(11)
H13 H 1.2267 0.5946 0.0502
C13 C 0.5979(5) 0.1580(4) 0.1457(2)
H14 H 0.6133 0.1045 0.1128
C14 C 0.4977(5) 0.1247(4) 0.1746(2)
H15 H 0.4453 0.0483 0.1617
C15 C 0.4662(3) 0.1998(4) 0.22434(17)
C16 C 0.5526(4) 0.3115(4) 0.2421(2)
H16 H 0.5434 0.3651 0.2764
C17 C 0.6494(5) 0.3395(4) 0.2083(2)
H17 H 0.7000 0.4165 0.2183
S3 S 0.33465(17) 0.27075(16) 0.31859(8)
C18 C 0.3572(4) 0.1487(5) 0.2593(2)
H18 H 0.3851 0.0911 0.2782
H19 H 0.2728 0.1113 0.2316
C19 C 0.2134(4) 0.1979(4) 0.35240(17)
C20 C 0.1414(6) 0.0827(5) 0.3318(3)
H20 H 0.1556 0.0353 0.2963
C21 C 0.0489(6) 0.0420(6) 0.3659(3)
H21 H -0.0019 -0.0345 0.3507
C22 C 0.0970(5) 0.2114(4) 0.4400(2)
H22 H 0.0882 0.2548 0.4778
C23 C 0.1842(6) 0.2615(5) 0.4071(3)
H23 H 0.2266 0.3404 0.4208
C24 C 0.3863(6) 0.1495(6) 0.5158(3)
H24 H 0.3698 0.1962 0.5510
C25 C 0.4930(6) 0.1879(7) 0.4930(3)
H25 H 0.5540 0.2572 0.5143
C26 C 0.5187(4) 0.1307(5) 0.4391(2)
C27 C 0.4315(6) 0.0186(6) 0.4112(2)
H26 H 0.4478 -0.0273 0.3757
C28 C 0.3202(6) -0.0200(6) 0.4391(3)
H27 H 0.2610 -0.0922 0.4211
C29 C 0.78200(19) 0.1662(2) 0.31548(10)
C30 C 0.8479(3) 0.2832(2) 0.33816(14)
H28 H 0.8285 0.3250 0.3741
C31 C 0.9427(3) 0.3376(3) 0.3071(2)
H29 H 0.9867 0.4159 0.3223
N6 N 0.9716(3) 0.2750(4) 0.25339(19)
C32 C 0.9058(4) 0.1580(4) 0.23071(14)
H30 H 0.9251 0.1161 0.1948
C33 C 0.8110(3) 0.1036(3) 0.26176(11)
H31 H 0.7669 0.0253 0.2466
C34 C 0.9894(5) 0.5916(4) 0.2320(2)
C35 C 0.9618(5) 0.7053(4) 0.2738(2)
C36 C 0.8779(5) 0.6663(4) 0.3170(2)
H32 H 0.9181 0.6148 0.3362
H33 H 0.7894 0.6219 0.2949
C37 C 0.8599(6) 0.7712(5) 0.3692(2)
C38 C 0.9102(6) 0.7710(5) 0.2379(2)
H34 H 0.8853 0.8336 0.2650
H35 H 0.8277 0.7217 0.2121
C39 C 1.0072(4) 0.8274(5) 0.1947(2)
Ag1A Ag 1.88190(4) 0.63534(5) -0.20767(2)
Ag3A Ag 0.13119(4) -0.00806(4) 0.53919(2)
N3A N -0.2961(4) -0.0432(4) 0.50920(17)
N4A N 1.2919(2) 0.3991(2) 0.15942(9)
O8 O 1.1356(9) 0.7057(11) 0.4457(4)
O9 O 1.2861(7) 0.6323(10) 0.3460(4)
O10 O 1.9246(15) 0.9634(11) -0.1068(5)
C40? C 0.6438(7) 0.1175(12) 0.3338(3)
H36? H 0.6237 0.0334 0.3274
H37? H 0.5713 0.1381 0.3111
S4? S 0.6695(4) 0.1897(5) 0.41603(18)
C41? C 1.4042(8) 0.5848(7) -0.0421(4)
H38? H 1.3524 0.6410 -0.0472
H39? H 1.4550 0.6063 -0.0010
S5? S 1.2992(8) 0.4340(6) -0.0629(4)
C42? C 0.2931(10) 0.2618(7) 0.3096(3)
H40? H 0.3817 0.3069 0.3314
H41? H 0.2449 0.3145 0.2960
S6? S 0.3108(4) 0.1509(5) 0.2432(2)
loop_
_geom_bond_atom_site_label_1
_geom_bond_atom_site_label_2
_geom_bond_site_symmetry_1
_geom_bond_site_symmetry_2
Ag1 Ag2 1_555 1_555
Ag2 O2 1_555 1_555
Ag3 N2 1_555 1_555
S1 C1 1_555 1_555
C1 H1 1_555 1_555
H2 C1 1_555 1_555
O1 Ag1 1_555 1_555
O2 C34 1_555 1_555
O3 H3 1_555 1_555
O4 C37 1_555 1_555
O5 C37 1_555 1_555
O6 C39 1_555 1_555
O7 C39 1_555 1_555
N1 Ag2 1_555 1_555
N2 C21 1_555 1_555
N3 C24 1_555 1_555
N4 C2 1_555 1_555
C2 H4 1_555 1_555
C3 C2 1_555 1_555
H5 C3 1_555 1_555
C4 C3 1_555 1_555
C5 C4 1_555 1_555
H6 C5 1_555 1_555
C6 N4 1_555 1_555
H7 C6 1_555 1_555
S2 C4 1_555 1_555
C7 S2 1_555 1_555
H8 C7 1_555 1_555
H9 C7 1_555 1_555
C8 C7 1_555 1_555
C9 C8 1_555 1_555
H10 C9 1_555 1_555
C10 C9 1_555 1_555
H11 C10 1_555 1_555
N5 Ag2 1_555 1_555
C11 N5 1_555 1_555
H12 C11 1_555 1_555
C12 C8 1_555 1_555
H13 C12 1_555 1_555
C13 N1 1_555 1_555
H14 C13 1_555 1_555
C14 C13 1_555 1_555
H15 C14 1_555 1_555
C15 C14 1_555 1_555
C16 C15 1_555 1_555
H16 C16 1_555 1_555
C17 N1 1_555 1_555
H17 C17 1_555 1_555
S3 C18 1_555 1_555
C18 C15 1_555 1_555
H18 C18 1_555 1_555
H19 C18 1_555 1_555
C19 S3 1_555 1_555
C20 C19 1_555 1_555
H20 C20 1_555 1_555
C21 C20 1_555 1_555
H21 C21 1_555 1_555
C22 N2 1_555 1_555
H22 C22 1_555 1_555
C23 C19 1_555 1_555
H23 C23 1_555 1_555
C24 H24 1_555 1_555
C25 C24 1_555 1_555
H25 C25 1_555 1_555
C26 C1 1_555 1_555
C27 C26 1_555 1_555
H26 C27 1_555 1_555
C28 N3 1_555 1_555
H27 C28 1_555 1_555
C29 S1 1_555 1_555
C30 C29 1_555 1_555
H28 C30 1_555 1_555
C31 C30 1_555 1_555
H29 C31 1_555 1_555
N6 Ag1 1_555 1_555
C32 N6 1_555 1_555
H30 C32 1_555 1_555
C33 C29 1_555 1_555
H31 C33 1_555 1_555
C34 O1 1_555 1_555
C35 O3 1_555 1_555
C36 C35 1_555 1_555
H32 C36 1_555 1_555
H33 C36 1_555 1_555
C37 C36 1_555 1_555
C38 C35 1_555 1_555
H34 C38 1_555 1_555
H35 C38 1_555 1_555
C39 C38 1_555 1_555
Ag1A N4 1_555 1_555
Ag3A Ag3 1_555 1_555
N3A Ag3 1_555 1_555
N4A Ag1 1_555 1_555
N3 Ag3A 1_555 1_555
C5 C6 1_555 1_555
C10 N5 1_555 1_555
C11 C12 1_555 1_555
C16 C17 1_555 1_555
C22 C23 1_555 1_555
C25 C26 1_555 1_555
C27 C28 1_555 1_555
C31 N6 1_555 1_555
C32 C33 1_555 1_555
C34 C35 1_555 1_555

#END
