
#######################################################################
#
#                 Cambridge Crystallographic Data Centre
#                                CCDC 
#
#######################################################################
#
# If this CIF has been generated from an entry in the Cambridge 
# Structural Database, then it will include bibliographic, chemical, 
# crystal, experimental, refinement or atomic coordinate data resulting 
# from the CCDC's data processing and validation procedures.
#
#######################################################################

data_GOQPAF
_symmetry_cell_setting           orthorhombic
_symmetry_space_group_name_H-M   'P c c n'
_symmetry_Int_Tables_number      56
_space_group_name_Hall           '-P 2ab 2ac'
loop_
_symmetry_equiv_pos_site_id
_symmetry_equiv_pos_as_xyz
1 x,y,z
2 1/2-x,1/2-y,z
3 1/2+x,-y,1/2-z
4 -x,1/2+y,1/2-z
5 -x,-y,-z
6 1/2+x,1/2+y,-z
7 1/2-x,y,1/2+z
8 x,1/2-y,1/2+z
_cell_length_a                   13.8424(6)
_cell_length_b                   16.8817(8)
_cell_length_c                   13.4428(6)
_cell_angle_alpha                90
_cell_angle_beta                 90
_cell_angle_gamma                90
_cell_volume                     3141.36
loop_
_atom_site_label
_atom_site_type_symbol
_atom_site_fract_x
_atom_site_fract_y
_atom_site_fract_z
Ag1 Ag 1.03173(3) 0.54721(3) 0.38458(4)
S1 S 0.50821(10) 0.48892(10) 0.35858(14)
N1 N 0.8765(3) 0.5590(3) 0.3821(3)
N2 N 0.1854(3) 0.5340(3) 0.3824(3)
C1 C 0.8221(4) 0.4945(3) 0.3783(4)
H1 H 0.8517 0.4451 0.3778
C2 C 0.7221(4) 0.4989(3) 0.3750(4)
H2 H 0.6855 0.4527 0.3730
C3 C 0.6771(4) 0.5708(3) 0.3748(4)
C4 C 0.7344(4) 0.6358(3) 0.3769(5)
H3 H 0.7067 0.6860 0.3755
C5 C 0.8325(4) 0.6283(4) 0.3811(5)
H4 H 0.8699 0.6740 0.3835
C6 C 0.5667(3) 0.5837(3) 0.3730(5)
H5 H 0.5495 0.6182 0.3181
H6 H 0.5459 0.6085 0.4344
C7 C 0.3837(4) 0.5124(3) 0.3706(4)
C8 C 0.3228(4) 0.4488(3) 0.3674(4)
H7 H 0.3471 0.3977 0.3613
C9 C 0.2256(4) 0.4618(3) 0.3735(4)
H8 H 0.1847 0.4181 0.3714
C10 C 0.2470(4) 0.5955(4) 0.3867(4)
H9 H 0.2218 0.6463 0.3938
C11 C 0.3451(4) 0.5868(4) 0.3812(4)
H10 H 0.3853 0.6309 0.3845
Ag1_2 Ag 0.03173(3) 0.54721(3) 0.38458(4)
N2_2 N 1.1854(3) 0.5340(3) 0.3824(3)
O1 O 0.2500 0.2500 0.3333(11)
O2 O 1.0623(6) 0.6994(5) 0.4826(6)
O3 O 0.9335(4) 0.7645(3) 0.5547(6)
O4 O 0.9831(4) 0.6340(3) 0.6123(5)
F1 F 1.0420(8) 0.7733(6) 0.7377(6)
F2 F 1.1549(4) 0.7051(3) 0.6828(6)
F3 F 1.1255(5) 0.8168(3) 0.6202(6)
S2 S 1.00449(12) 0.70831(10) 0.57049(16)
C12 C 1.0897(7) 0.7517(4) 0.6534(8)
loop_
_geom_bond_atom_site_label_1
_geom_bond_atom_site_label_2
_geom_bond_site_symmetry_1
_geom_bond_site_symmetry_2
Ag1 N1 1_555 1_555
S1 C6 1_555 1_555
N1 C1 1_555 1_555
N2 C9 1_555 1_555
C1 H1 1_555 1_555
C2 C1 1_555 1_555
H2 C2 1_555 1_555
C3 C2 1_555 1_555
C4 C3 1_555 1_555
H3 C4 1_555 1_555
C5 N1 1_555 1_555
H4 C5 1_555 1_555
C6 C3 1_555 1_555
H5 C6 1_555 1_555
H6 C6 1_555 1_555
C7 S1 1_555 1_555
C8 C7 1_555 1_555
H7 C8 1_555 1_555
C9 C8 1_555 1_555
H8 C9 1_555 1_555
C10 N2 1_555 1_555
H9 C10 1_555 1_555
C11 C7 1_555 1_555
H10 C11 1_555 1_555
O2 S2 1_555 1_555
O3 S2 1_555 1_555
O4 S2 1_555 1_555
F1 C12 1_555 1_555
F2 C12 1_555 1_555
F3 C12 1_555 1_555
S2 C12 1_555 1_555
Ag1_2 N2 1_555 1_555
N2_2 Ag1 1_555 1_555
C4 C5 1_555 1_555
C10 C11 1_555 1_555

#END
