
#######################################################################
#
#                 Cambridge Crystallographic Data Centre
#                                CCDC 
#
#######################################################################
#
# If this CIF has been generated from an entry in the Cambridge 
# Structural Database, then it will include bibliographic, chemical, 
# crystal, experimental, refinement or atomic coordinate data resulting 
# from the CCDC's data processing and validation procedures.
#
#######################################################################

data_GOQWIU
_symmetry_cell_setting           monoclinic
_symmetry_space_group_name_H-M   'P 21/c'
_symmetry_Int_Tables_number      14
_space_group_name_Hall           '-P 2ybc'
loop_
_symmetry_equiv_pos_site_id
_symmetry_equiv_pos_as_xyz
1 x,y,z
2 -x,1/2+y,1/2-z
3 -x,-y,-z
4 x,1/2-y,1/2+z
_cell_length_a                   10.043(2)
_cell_length_b                   23.389(5)
_cell_length_c                   15.850(5)
_cell_angle_alpha                90
_cell_angle_beta                 118.40(2)
_cell_angle_gamma                90
_cell_volume                     3275.02
loop_
_atom_site_label
_atom_site_type_symbol
_atom_site_fract_x
_atom_site_fract_y
_atom_site_fract_z
Cd1 Cd 0.28474(6) 1.00944(3) 0.41438(4)
Cd2 Cd 0.09233(6) 1.17922(3) 0.16051(4)
O1 O 0.3462(6) 1.0380(3) 0.2962(5)
O2 O 0.5540(6) 1.0191(3) 0.4270(4)
O3 O 0.3345(7) 1.1578(3) 0.2233(6)
O4 O 0.2649(14) 1.1028(6) 0.1009(10)
O5 O 0.9884(11) 1.1358(4) 0.2363(7)
O6 O 0.8127(14) 1.1530(7) 0.1122(11)
O7 O 1.0543(6) 1.0222(3) 0.4126(5)
O8 O 1.0100(8) 1.0143(4) 0.2678(6)
N1 N 0.2682(7) 0.9135(3) 0.3784(5)
N2 N 0.1156(7) 0.7632(3) 0.1392(5)
N3 N 0.0732(8) 0.8514(3) 0.0837(5)
H1 H 0.0742 0.8882 0.0828
N4 N 0.0193(7) 0.8157(3) 0.0049(5)
N5 N -0.0588(6) 0.7247(3) -0.1138(5)
N6 N -0.2063(8) 0.6628(3) -0.3489(5)
H2 H -0.1979 0.6262 -0.3457
N7 N -0.2618(9) 0.6961(3) -0.4316(5)
N8 N -0.1917(7) 0.7527(3) -0.3030(5)
N9 N -0.3323(7) 0.9015(3) -0.4892(5)
C1 C 0.3094(8) 0.8734(4) 0.4478(6)
H3 H 0.3499 0.8851 0.5114
C2 C 0.2933(9) 0.8151(4) 0.4273(6)
H4 H 0.3191 0.7884 0.4761
C3 C 0.2384(9) 0.7974(4) 0.3334(6)
H5 H 0.2322 0.7586 0.3191
C4 C 0.1929(9) 0.8372(4) 0.2612(6)
C5 C 0.2101(9) 0.8955(4) 0.2848(6)
H6 H 0.1818 0.9226 0.2362
C6 C 0.1230(9) 0.8187(3) 0.1610(5)
C7 C 0.0499(8) 0.7628(3) 0.0426(5)
C8 C 0.0048(8) 0.7114(4) -0.0198(6)
C9 C 0.0255(8) 0.6575(4) 0.0152(6)
H7 H 0.0687 0.6507 0.0808
C10 C -0.0184(10) 0.6141(5) -0.0478(7)
H8 H -0.0043 0.5766 -0.0255
C11 C -0.0846(9) 0.6243(4) -0.1461(6)
H9 H -0.1154 0.5944 -0.1900
C12 C -0.1027(8) 0.6810(3) -0.1757(6)
C13 C -0.1690(8) 0.6984(3) -0.2762(6)
C14 C -0.2520(9) 0.7489(4) -0.4016(6)
C15 C -0.3019(9) 0.7987(4) -0.4668(6)
C16 C -0.3563(9) 0.7902(4) -0.5672(6)
H10 H -0.3640 0.7536 -0.5923
C17 C -0.3986(9) 0.8392(4) -0.6277(7)
H11 H -0.4353 0.8360 -0.6935
C18 C -0.3822(8) 0.8926(4) -0.5834(6)
H12 H -0.4082 0.9247 -0.6226
C19 C -0.2928(8) 0.8532(3) -0.4320(6)
H13 H -0.2582 0.8578 -0.3666
C20 C 0.4850(8) 1.0359(3) 0.3407(6)
C21 C 0.5777(8) 1.0583(3) 0.2977(5)
C22 C 0.7274(7) 1.0382(3) 0.3308(6)
H14 H 0.7666 1.0121 0.3811
C23 C 0.8165(8) 1.0552(3) 0.2924(5)
C24 C 0.7606(9) 1.0969(4) 0.2182(6)
C25 C 0.6159(9) 1.1147(4) 0.1838(6)
H15 H 0.5775 1.1402 0.1326
C26 C 0.5210(9) 1.0974(4) 0.2204(6)
C27 C 0.9719(9) 1.0293(4) 0.3272(7)
C28 C 0.3637(10) 1.1237(5) 0.1789(8)
C29 C 0.8600(13) 1.1225(6) 0.1800(10)
Cd1_2 Cd 1.28474(6) 1.00944(3) 0.41438(4)
Cd1B Cd -0.28474(6) 0.99056(3) -0.41438(4)
Cd1B_2 Cd 0.71526(6) 0.99056(3) 0.58562(4)
Cd2_2 Cd 1.09233(6) 1.17922(3) 0.16051(4)
Cd2B Cd -0.09233(6) 0.82078(3) -0.16051(4)
O2B O 0.4460(6) 0.9809(3) 0.5730(4)
O5_2 O -0.0116(11) 1.1358(4) 0.2363(7)
O6_2 O -0.1873(14) 1.1530(7) 0.1122(11)
O7_2 O 0.0543(6) 1.0222(3) 0.4126(5)
O8_2 O 0.0100(8) 1.0143(4) 0.2678(6)
N4B N -0.0193(7) 1.1843(3) -0.0049(5)
N5B N 0.0588(6) 1.2753(3) 0.1138(5)
N8B N 0.1917(7) 1.2473(3) 0.3030(5)
N9B N 0.3323(7) 1.0985(3) 0.4892(5)
loop_
_geom_bond_atom_site_label_1
_geom_bond_atom_site_label_2
_geom_bond_site_symmetry_1
_geom_bond_site_symmetry_2
Cd1 O1 1_555 1_555
Cd2 O3 1_555 1_555
O1 C20 1_555 1_555
O2 Cd1 1_555 1_555
O3 C28 1_555 1_555
O4 C28 1_555 1_555
O5 C29 1_555 1_555
O6 C29 1_555 1_555
O7 C27 1_555 1_555
O8 C27 1_555 1_555
N1 Cd1 1_555 1_555
N2 C6 1_555 1_555
N3 H1 1_555 1_555
N4 N3 1_555 1_555
N5 C8 1_555 1_555
N6 H2 1_555 1_555
N7 N6 1_555 1_555
N8 C13 1_555 1_555
N9 C18 1_555 1_555
C1 N1 1_555 1_555
H3 C1 1_555 1_555
C2 C1 1_555 1_555
H4 C2 1_555 1_555
C3 C2 1_555 1_555
H5 C3 1_555 1_555
C4 C3 1_555 1_555
C5 N1 1_555 1_555
H6 C5 1_555 1_555
C6 N3 1_555 1_555
C7 N2 1_555 1_555
C8 C7 1_555 1_555
C9 C8 1_555 1_555
H7 C9 1_555 1_555
C10 C9 1_555 1_555
H8 C10 1_555 1_555
C11 C10 1_555 1_555
H9 C11 1_555 1_555
C12 N5 1_555 1_555
C13 N6 1_555 1_555
C14 N7 1_555 1_555
C15 C14 1_555 1_555
C16 C15 1_555 1_555
H10 C16 1_555 1_555
C17 C16 1_555 1_555
H11 C17 1_555 1_555
C18 C17 1_555 1_555
H12 C18 1_555 1_555
C19 N9 1_555 1_555
H13 C19 1_555 1_555
C20 O2 1_555 1_555
C21 C20 1_555 1_555
C22 C21 1_555 1_555
H14 C22 1_555 1_555
C23 C22 1_555 1_555
C24 C23 1_555 1_555
C25 C24 1_555 1_555
H15 C25 1_555 1_555
C26 C21 1_555 1_555
C27 C23 1_555 1_555
C28 C26 1_555 1_555
C29 C24 1_555 1_555
Cd1_2 O7 1_555 1_555
Cd1B N9 1_555 1_555
Cd1B_2 O2 1_555 1_555
Cd2_2 O5 1_555 1_555
Cd2B N4 1_555 1_555
O2B Cd1 1_555 1_555
O5_2 Cd2 1_555 1_555
O6_2 Cd2 1_555 1_555
O7_2 Cd1 1_555 1_555
O8_2 Cd1 1_555 1_555
N4B Cd2 1_555 1_555
N5B Cd2 1_555 1_555
N8B Cd2 1_555 1_555
N9B Cd1 1_555 1_555
O6 Cd2_2 1_555 1_555
O8 Cd1_2 1_555 1_555
N4 C7 1_555 1_555
N5 Cd2B 1_555 1_555
N8 C14 1_555 1_555
N8 Cd2B 1_555 1_555
C4 C5 1_555 1_555
C4 C6 1_555 1_555
C11 C12 1_555 1_555
C12 C13 1_555 1_555
C15 C19 1_555 1_555
C25 C26 1_555 1_555
Cd1B_2 O2B 1_555 1_555

#END
