
#######################################################################
#
#                 Cambridge Crystallographic Data Centre
#                                CCDC 
#
#######################################################################
#
# If this CIF has been generated from an entry in the Cambridge 
# Structural Database, then it will include bibliographic, chemical, 
# crystal, experimental, refinement or atomic coordinate data resulting 
# from the CCDC's data processing and validation procedures.
#
#######################################################################

data_GOQXAN
_symmetry_cell_setting           orthorhombic
_symmetry_space_group_name_H-M   'P 21 21 21'
_symmetry_Int_Tables_number      19
_space_group_name_Hall           'P 2ac 2ab'
loop_
_symmetry_equiv_pos_site_id
_symmetry_equiv_pos_as_xyz
1 x,y,z
2 1/2-x,-y,1/2+z
3 1/2+x,1/2-y,-z
4 -x,1/2+y,1/2-z
_cell_length_a                   6.1983(5)
_cell_length_b                   15.0070(15)
_cell_length_c                   16.5317(16)
_cell_angle_alpha                90
_cell_angle_beta                 90
_cell_angle_gamma                90
_cell_volume                     1537.74
loop_
_atom_site_label
_atom_site_type_symbol
_atom_site_fract_x
_atom_site_fract_y
_atom_site_fract_z
Cd1 Cd 0.09273(7) 0.29166(3) 0.14465(3)
O1 O 0.6398(8) 0.7605(3) 0.4653(3)
N1 N 0.2980(10) 0.4184(4) 0.1710(4)
C1 C 0.4966(11) 0.4275(4) 0.1417(5)
H1 H 0.5445 0.3871 0.1030
C2 C 0.6353(12) 0.4947(5) 0.1665(4)
H2 H 0.7740 0.4979 0.1452
C3 C 0.2316(12) 0.4792(5) 0.2247(5)
H3 H 0.0927 0.4739 0.2454
C4 C 0.5680(11) 0.5571(4) 0.2227(4)
C5 C 0.3579(11) 0.5499(5) 0.2516(4)
H4 H 0.3032 0.5914 0.2880
O2 O 0.5502(8) 0.6389(3) 0.5347(3)
O3 O 1.0538(8) 0.6358(4) 0.4065(3)
H5 H 1.087(11) 0.656(5) 0.4531(13)
O4 O -0.2434(9) 0.2706(4) 0.2037(3)
C6 C 0.6099(11) 0.6787(4) 0.4722(4)
O5 O -0.0052(9) 0.3209(4) 0.2877(4)
C7 C -0.1938(12) 0.2980(6) 0.2728(4)
C8 C 0.8816(12) 0.5742(4) 0.4126(4)
H6 H 0.8814 0.5478 0.4662
H7 H 0.9021 0.5267 0.3735
N2 N 0.6683(9) 0.6763(4) 0.3251(3)
H8 H 0.5354 0.7013 0.3195
C9 C 0.7181(11) 0.6321(4) 0.2487(4)
H9 H 0.8632 0.6081 0.2523
H10 H 0.7189 0.6768 0.2063
C10 C 0.6607(11) 0.6205(4) 0.3970(4)
H11 H 0.5482 0.5752 0.3906
C11 C -0.3657(15) 0.3058(7) 0.3362(6)
H12 H -0.5002 0.2847 0.3147
H13 H -0.3806 0.3671 0.3519
H14 H -0.3265 0.2707 0.3824
Cd1A Cd 0.40727(7) 0.70834(3) 0.64465(3)
Cd1C Cd 0.90727(7) 0.79166(3) 0.35535(3)
O1C O 0.3602(8) 0.2605(3) 0.0347(3)
O2A O -0.0502(8) 0.3611(3) 0.0347(3)
O3C O -0.0538(8) 0.1358(4) 0.0935(3)
N2C N 0.3317(9) 0.1763(4) 0.1749(3)
O6 O 0.1219(14) 0.3480(5) 0.4490(5)
H15 H 0.0805 0.3593 0.4010
H16 H 0.1452 0.2945 0.4345
O7 O 0.7368(13) 0.6696(5) 0.0499(4)
H17 H 0.8214 0.6274 0.0369
H18 H 0.6292 0.6701 0.0181
O8 O 0.5584(15) -0.0504(5) -0.0136(7)
H19 H 0.6722 -0.0707 -0.0357
H20 H 0.5479 0.0051 -0.0232
loop_
_geom_bond_atom_site_label_1
_geom_bond_atom_site_label_2
_geom_bond_site_symmetry_1
_geom_bond_site_symmetry_2
Cd1 N1 1_555 1_555
O1 C6 1_555 1_555
N1 C1 1_555 1_555
C1 H1 1_555 1_555
C2 C1 1_555 1_555
H2 C2 1_555 1_555
C3 N1 1_555 1_555
H3 C3 1_555 1_555
C4 C2 1_555 1_555
C5 C3 1_555 1_555
H4 C5 1_555 1_555
O2 C6 1_555 1_555
O3 H5 1_555 1_555
O4 Cd1 1_555 1_555
C6 C10 1_555 1_555
O5 Cd1 1_555 1_555
C7 O4 1_555 1_555
C8 O3 1_555 1_555
H6 C8 1_555 1_555
H7 C8 1_555 1_555
N2 H8 1_555 1_555
C9 C4 1_555 1_555
H9 C9 1_555 1_555
H10 C9 1_555 1_555
C10 C8 1_555 1_555
H11 C10 1_555 1_555
C11 C7 1_555 1_555
H12 C11 1_555 1_555
H13 C11 1_555 1_555
H14 C11 1_555 1_555
O6 H15 1_555 1_555
H16 O6 1_555 1_555
O7 H17 1_555 1_555
H18 O7 1_555 1_555
O8 H19 1_555 1_555
H20 O8 1_555 1_555
Cd1A O2 1_555 1_555
Cd1C O1 1_555 1_555
O1C Cd1 1_555 1_555
O2A Cd1 1_555 1_555
O3C Cd1 1_555 1_555
N2C Cd1 1_555 1_555
C4 C5 1_555 1_555
O3 Cd1C 1_555 1_555
O5 C7 1_555 1_555
N2 C9 1_555 1_555
N2 C10 1_555 1_555
N2 Cd1C 1_555 1_555

#END
