
#######################################################################
#
#                 Cambridge Crystallographic Data Centre
#                                CCDC 
#
#######################################################################
#
# If this CIF has been generated from an entry in the Cambridge 
# Structural Database, then it will include bibliographic, chemical, 
# crystal, experimental, refinement or atomic coordinate data resulting 
# from the CCDC's data processing and validation procedures.
#
#######################################################################

data_GOQYES
_symmetry_cell_setting           monoclinic
_symmetry_space_group_name_H-M   'C 2/c'
_symmetry_Int_Tables_number      15
_space_group_name_Hall           '-C 2yn'
loop_
_symmetry_equiv_pos_site_id
_symmetry_equiv_pos_as_xyz
1 x,y,z
2 -x,y,1/2-z
3 1/2+x,1/2+y,z
4 1/2-x,1/2+y,1/2-z
5 -x,-y,-z
6 x,-y,1/2+z
7 1/2-x,1/2-y,-z
8 1/2+x,1/2-y,1/2+z
_cell_length_a                   16.775(3)
_cell_length_b                   16.761(3)
_cell_length_c                   18.085(3)
_cell_angle_alpha                90
_cell_angle_beta                 97.470(4)
_cell_angle_gamma                90
_cell_volume                     5041.73
loop_
_atom_site_label
_atom_site_type_symbol
_atom_site_fract_x
_atom_site_fract_y
_atom_site_fract_z
Mn1 Mn 0.5000 1.09504(10) 0.7500
Mn2 Mn 0.74724(5) 0.84258(9) 0.75048(5)
Mn3 Mn 0.5000 0.59015(10) 0.7500
N1 N 0.9165(4) 1.0121(4) 0.6910(4)
N2 N 0.8312(4) 0.7651(4) 0.8101(4)
N3 N 0.5840(4) 1.0177(4) 0.8105(4)
N4 N 0.6636(4) 0.7649(4) 0.6904(4)
N5 N 0.5711(4) 0.6668(4) 0.6941(4)
N6 N 0.8167(4) 0.9209(4) 0.6947(4)
N7 N 0.6756(4) 0.9187(4) 0.8067(4)
N8 N 0.9299(4) 0.6731(4) 0.8057(4)
C1 C 0.7022(5) 1.0598(5) 0.5575(5)
H1 H 0.6517 1.0685 0.5282
C2 C 0.6919(5) 0.5680(5) 0.5600(5)
H2 H 0.6971 0.5204 0.5325
C3 C 1.0494(5) 0.8098(5) 0.9406(4)
H3 H 1.1010 0.8187 0.9678
C4 C 0.5560(5) 0.8198(6) 0.9423(5)
H4 H 0.5513 0.7731 0.9710
C5 C 0.5001(5) 0.8821(5) 0.9445(5)
H5 H 0.4581 0.8765 0.9746
C6 C 0.7472(4) 0.6297(5) 0.5555(5)
H6 H 0.7888 0.6235 0.5250
C7 C 0.9868(5) 0.8653(5) 0.9451(5)
H7 H 0.9970 0.9108 0.9762
C8 C 0.7641(5) 1.1159(5) 0.5557(5)
H8 H 0.7544 1.1625 0.5259
C9 C 0.9597(4) 0.7323(4) 0.8559(4)
C10 C 0.7887(4) 0.9806(4) 0.6439(4)
C11 C 0.5986(4) 0.7386(4) 0.7176(4)
H9 H 0.5730 0.7691 0.7519
C12 C 0.8980(4) 0.7886(4) 0.8593(4)
C13 C 0.8550(4) 0.6968(4) 0.7810(4)
H10 H 0.8207 0.6671 0.7451
C14 C 0.5051(4) 0.9521(4) 0.9034(4)
H11 H 0.4678 0.9944 0.9058
C15 C 0.9107(4) 0.8554(4) 0.9054(4)
H12 H 0.8689 0.8928 0.9096
C16 C 0.8502(4) 1.0363(4) 0.6418(4)
C17 C 0.5663(4) 0.9576(4) 0.8591(4)
C18 C 0.6488(4) 0.9897(4) 0.7821(4)
H13 H 0.6740 1.0190 0.7466
C19 C 0.6180(4) 0.8260(4) 0.8984(4)
H14 H 0.6561 0.7842 0.8971
C20 C 0.7418(4) 0.7003(5) 0.5956(4)
H15 H 0.7780 0.7433 0.5918
C21 C 0.6811(4) 0.7053(4) 0.6417(4)
C22 C 0.6248(4) 0.6438(4) 0.6438(4)
C23 C 1.0356(4) 0.7425(4) 0.8965(4)
H16 H 1.0768 0.7042 0.8939
C24 C 0.7138(4) 0.9908(4) 0.6021(4)
H17 H 0.6721 0.9528 0.6036
C25 C 0.8923(4) 0.9440(4) 0.7198(4)
H18 H 0.9263 0.9140 0.7556
C26 C 0.8392(4) 1.1047(4) 0.5967(4)
H19 H 0.8816 1.1419 0.5943
C27 C 0.6227(4) 0.8952(4) 0.8563(4)
C28 C 0.6295(4) 0.5741(4) 0.6032(4)
H20 H 0.5917 0.5322 0.6049
Mn2A Mn 0.25276(5) 0.84258(9) 0.74952(5)
N1A N 0.0835(4) 1.0121(4) 0.8090(4)
N2A N 0.1688(4) 0.7651(4) 0.6899(4)
N3A N 0.4160(4) 1.0177(4) 0.6895(4)
N4A N 0.3364(4) 0.7649(4) 0.8096(4)
N5A N 0.4289(4) 0.6668(4) 0.8059(4)
N6A N 0.1833(4) 0.9209(4) 0.8053(4)
N7A N 0.3244(4) 0.9187(4) 0.6933(4)
N8A N 0.0701(4) 0.6731(4) 0.6943(4)
C1A C 0.2978(5) 1.0598(5) 0.9425(5)
H1A H 0.3483 1.0685 0.9718
C2A C 0.3081(5) 0.5680(5) 0.9400(5)
H2A H 0.3029 0.5204 0.9675
C3A C -0.0494(5) 0.8098(5) 0.5594(4)
H3A H -0.1010 0.8187 0.5322
C4A C 0.4440(5) 0.8198(6) 0.5577(5)
H4A H 0.4487 0.7731 0.5290
C5A C 0.4999(5) 0.8821(5) 0.5555(5)
H5A H 0.5419 0.8765 0.5254
C6A C 0.2528(4) 0.6297(5) 0.9445(5)
H6A H 0.2112 0.6235 0.9750
C7A C 0.0132(5) 0.8653(5) 0.5549(5)
H7A H 0.0030 0.9108 0.5238
C8A C 0.2359(5) 1.1159(5) 0.9443(5)
H8A H 0.2456 1.1625 0.9741
C9A C 0.0403(4) 0.7323(4) 0.6441(4)
C10A C 0.2113(4) 0.9806(4) 0.8561(4)
C11A C 0.4014(4) 0.7386(4) 0.7824(4)
H9A H 0.4270 0.7691 0.7481
C12A C 0.1020(4) 0.7886(4) 0.6407(4)
C13A C 0.1450(4) 0.6968(4) 0.7190(4)
H10A H 0.1793 0.6671 0.7549
C14A C 0.4949(4) 0.9521(4) 0.5966(4)
H11A H 0.5322 0.9944 0.5942
C15A C 0.0893(4) 0.8554(4) 0.5946(4)
H12A H 0.1311 0.8928 0.5904
C16A C 0.1498(4) 1.0363(4) 0.8582(4)
C17A C 0.4337(4) 0.9576(4) 0.6409(4)
C18A C 0.3512(4) 0.9897(4) 0.7179(4)
H13A H 0.3260 1.0190 0.7534
C19A C 0.3820(4) 0.8260(4) 0.6016(4)
H14A H 0.3439 0.7842 0.6029
C20A C 0.2582(4) 0.7003(5) 0.9044(4)
H15A H 0.2220 0.7433 0.9082
C21A C 0.3189(4) 0.7053(4) 0.8583(4)
C22A C 0.3752(4) 0.6438(4) 0.8562(4)
C23A C -0.0356(4) 0.7425(4) 0.6035(4)
H16A H -0.0768 0.7042 0.6061
C24A C 0.2862(4) 0.9908(4) 0.8979(4)
H17A H 0.3279 0.9528 0.8964
C25A C 0.1077(4) 0.9440(4) 0.7802(4)
H18A H 0.0737 0.9140 0.7444
C26A C 0.1608(4) 1.1047(4) 0.9033(4)
H19A H 0.1184 1.1419 0.9057
C27A C 0.3773(4) 0.8952(4) 0.6437(4)
C28A C 0.3705(4) 0.5741(4) 0.8968(4)
H20A H 0.4083 0.5322 0.8951
Mn1B Mn 0.0000 0.59504(10) 0.7500
Mn1B_2 Mn 1.0000 0.59504(10) 0.7500
Mn3B Mn 0.0000 1.09015(10) 0.7500
Mn3B_2 Mn 1.0000 1.09015(10) 0.7500
N1B N 0.4165(4) 0.5121(4) 0.6910(4)
N1C N 0.5835(4) 0.5121(4) 0.8090(4)
N8B N 0.4299(4) 1.1731(4) 0.8057(4)
N8C N 0.5701(4) 1.1731(4) 0.6943(4)
loop_
_geom_bond_atom_site_label_1
_geom_bond_atom_site_label_2
_geom_bond_site_symmetry_1
_geom_bond_site_symmetry_2
Mn1 N3 1_555 1_555
Mn2 N2 1_555 1_555
Mn3 N5 1_555 1_555
N1 C16 1_555 1_555
N2 C12 1_555 1_555
N3 C17 1_555 1_555
N4 Mn2 1_555 1_555
N5 C11 1_555 1_555
N6 Mn2 1_555 1_555
N7 Mn2 1_555 1_555
N8 C9 1_555 1_555
C1 H1 1_555 1_555
C2 H2 1_555 1_555
C3 H3 1_555 1_555
C4 H4 1_555 1_555
C5 C4 1_555 1_555
H5 C5 1_555 1_555
C6 C2 1_555 1_555
H6 C6 1_555 1_555
C7 C3 1_555 1_555
H7 C7 1_555 1_555
C8 C1 1_555 1_555
H8 C8 1_555 1_555
C9 C12 1_555 1_555
C10 N6 1_555 1_555
C11 N4 1_555 1_555
H9 C11 1_555 1_555
C12 C15 1_555 1_555
C13 N2 1_555 1_555
H10 C13 1_555 1_555
C14 C5 1_555 1_555
H11 C14 1_555 1_555
C15 C7 1_555 1_555
H12 C15 1_555 1_555
C16 C10 1_555 1_555
C17 C14 1_555 1_555
C18 N3 1_555 1_555
H13 C18 1_555 1_555
C19 C4 1_555 1_555
H14 C19 1_555 1_555
C20 C6 1_555 1_555
H15 C20 1_555 1_555
C21 N4 1_555 1_555
C22 N5 1_555 1_555
C23 C3 1_555 1_555
H16 C23 1_555 1_555
C24 C1 1_555 1_555
H17 C24 1_555 1_555
C25 N1 1_555 1_555
H18 C25 1_555 1_555
C26 C8 1_555 1_555
H19 C26 1_555 1_555
C27 N7 1_555 1_555
C28 C2 1_555 1_555
H20 C28 1_555 1_555
Mn2A N2A 1_555 1_555
N1A C16A 1_555 1_555
N2A C12A 1_555 1_555
N3A Mn1 1_555 1_555
N4A Mn2A 1_555 1_555
N5A Mn3 1_555 1_555
N6A Mn2A 1_555 1_555
N7A Mn2A 1_555 1_555
N8A C9A 1_555 1_555
C1A H1A 1_555 1_555
C2A H2A 1_555 1_555
C3A H3A 1_555 1_555
C4A H4A 1_555 1_555
C5A C4A 1_555 1_555
H5A C5A 1_555 1_555
C6A C2A 1_555 1_555
H6A C6A 1_555 1_555
C7A C3A 1_555 1_555
H7A C7A 1_555 1_555
C8A C1A 1_555 1_555
H8A C8A 1_555 1_555
C9A C12A 1_555 1_555
C10A N6A 1_555 1_555
C11A N4A 1_555 1_555
H9A C11A 1_555 1_555
C12A C15A 1_555 1_555
C13A N2A 1_555 1_555
H10A C13A 1_555 1_555
C14A C5A 1_555 1_555
H11A C14A 1_555 1_555
C15A C7A 1_555 1_555
H12A C15A 1_555 1_555
C16A C10A 1_555 1_555
C17A N3A 1_555 1_555
C18A N3A 1_555 1_555
H13A C18A 1_555 1_555
C19A C4A 1_555 1_555
H14A C19A 1_555 1_555
C20A C6A 1_555 1_555
H15A C20A 1_555 1_555
C21A N4A 1_555 1_555
C22A N5A 1_555 1_555
C23A C3A 1_555 1_555
H16A C23A 1_555 1_555
C24A C1A 1_555 1_555
H17A C24A 1_555 1_555
C25A N1A 1_555 1_555
H18A C25A 1_555 1_555
C26A C8A 1_555 1_555
H19A C26A 1_555 1_555
C27A N7A 1_555 1_555
C28A C2A 1_555 1_555
H20A C28A 1_555 1_555
Mn1B N8A 1_555 1_555
Mn1B_2 N8 1_555 1_555
Mn3B N1A 1_555 1_555
Mn3B_2 N1 1_555 1_555
N1B Mn3 1_555 1_555
N1C Mn3 1_555 1_555
N8B Mn1 1_555 1_555
N8C Mn1 1_555 1_555
N6 C25 1_555 1_555
N7 C18 1_555 1_555
N8 C13 1_555 1_555
C9 C23 1_555 1_555
C10 C24 1_555 1_555
C16 C26 1_555 1_555
C17 C27 1_555 1_555
C19 C27 1_555 1_555
C20 C21 1_555 1_555
C21 C22 1_555 1_555
C22 C28 1_555 1_555
N5A C11A 1_555 1_555
N6A C25A 1_555 1_555
N7A C18A 1_555 1_555
N8A C13A 1_555 1_555
C9A C23A 1_555 1_555
C10A C24A 1_555 1_555
C14A C17A 1_555 1_555
C16A C26A 1_555 1_555
C17A C27A 1_555 1_555
C19A C27A 1_555 1_555
C20A C21A 1_555 1_555
C21A C22A 1_555 1_555
C22A C28A 1_555 1_555

#END
