
#######################################################################
#
#                 Cambridge Crystallographic Data Centre
#                                CCDC 
#
#######################################################################
#
# If this CIF has been generated from an entry in the Cambridge 
# Structural Database, then it will include bibliographic, chemical, 
# crystal, experimental, refinement or atomic coordinate data resulting 
# from the CCDC's data processing and validation procedures.
#
#######################################################################

data_GORBAQ
_symmetry_cell_setting           triclinic
_symmetry_space_group_name_H-M   'P -1'
_symmetry_Int_Tables_number      2
_space_group_name_Hall           '-P 1'
loop_
_symmetry_equiv_pos_site_id
_symmetry_equiv_pos_as_xyz
1 x,y,z
2 -x,-y,-z
_cell_length_a                   9.823(2)
_cell_length_b                   12.453(2)
_cell_length_c                   20.643(4)
_cell_angle_alpha                98.49(3)
_cell_angle_beta                 101.40(3)
_cell_angle_gamma                108.69(3)
_cell_volume                     2283.5
loop_
_atom_site_label
_atom_site_type_symbol
_atom_site_fract_x
_atom_site_fract_y
_atom_site_fract_z
Er1 Er -0.85496(3) 0.10844(3) 0.17821(1)
Er2 Er -1.21927(3) 0.30798(3) 0.31208(1)
Na1 Na -0.5487(3) -0.0972(3) 0.0509(2)
O1 O -1.1169(6) 0.3487(5) 0.2207(2)
O2 O -1.1940(6) 0.4984(4) 0.3552(2)
O3 O -1.4341(6) 0.2238(5) 0.3467(3)
O4 O -1.3717(7) 0.1369(5) 0.2225(3)
O5 O -1.1194(6) 0.1640(5) 0.3256(3)
O6 O -1.0082(6) 0.1456(5) 0.2439(3)
O7 O -0.7228(7) -0.0099(5) 0.1597(3)
O8 O -0.6483(7) -0.1608(5) 0.1467(3)
O9 O -1.2228(7) 0.1190(6) 0.0199(3)
O10 O -1.0635(6) 0.0806(5) 0.0959(3)
O11 O -0.6106(6) 0.2285(5) 0.2186(3)
O12 O -0.3906(6) 0.3685(4) 0.2423(2)
O13 O -1.1574(6) 0.3216(5) 0.4277(2)
O14 O -1.0314(6) 0.3641(6) 0.5351(3)
O15 O -0.7648(6) 0.0934(5) 0.2897(3)
O16 O -1.0074(6) -0.0796(4) 0.1709(3)
O17 O -0.7892(7) 0.1383(6) 0.0773(3)
O18 O -0.8374(6) 0.3031(4) 0.1886(3)
O19 O -0.9671(6) 0.4115(5) 0.3529(3)
N1 N -0.8445(7) 0.0365(5) 0.3281(3)
N2 N -0.9744(7) -0.1633(5) 0.1973(3)
N3 N -0.8331(7) 0.1998(5) 0.0354(3)
N4 N -0.7420(7) 0.3888(5) 0.1705(3)
N5 N -0.8697(6) 0.3842(5) 0.3956(3)
C1 C -0.9717(9) 0.0518(6) 0.3358(3)
C2 C -1.0487(11) -0.0078(8) 0.3777(4)
C3 C -0.9914(12) -0.0798(10) 0.4112(5)
C4 C -0.8629(12) -0.0912(9) 0.4027(5)
C5 C -0.7850(11) -0.0296(8) 0.3611(4)
C6 C -1.0360(8) 0.1278(6) 0.2989(3)
C7 C -0.8440(8) -0.1805(6) 0.1977(3)
C8 C -0.8214(9) -0.2710(7) 0.2262(4)
C9 C -0.9235(11) -0.3379(8) 0.2536(4)
C10 C -1.0541(10) -0.3189(8) 0.2502(4)
C11 C -1.0778(10) -0.2309(8) 0.2234(4)
C12 C -0.7297(8) -0.1110(6) 0.1648(3)
C13 C -0.9740(9) 0.1969(7) 0.0183(3)
C14 C -1.0086(10) 0.2678(7) -0.0248(4)
C15 C -0.9007(12) 0.3368(8) -0.0490(4)
C16 C -0.7594(12) 0.3358(8) -0.0318(4)
C17 C -0.7271(10) 0.2661(8) 0.0099(4)
C18 C -1.0961(9) 0.1260(7) 0.0470(4)
C19 C -0.5928(8) 0.4060(6) 0.1835(3)
C20 C -0.4982(9) 0.4992(7) 0.1628(4)
C21 C -0.5589(10) 0.5675(7) 0.1289(4)
C22 C -0.7102(10) 0.5467(7) 0.1170(4)
C23 C -0.7991(8) 0.4562(6) 0.1377(3)
C24 C -0.5260(8) 0.3271(6) 0.2173(3)
C25 C -0.8924(8) 0.3547(6) 0.4547(3)
C26 C -0.7857(10) 0.3325(8) 0.4968(4)
C27 C -0.6543(12) 0.3367(9) 0.4805(5)
C28 C -0.6354(11) 0.3674(9) 0.4211(4)
C29 C -0.7434(10) 0.3895(8) 0.3783(4)
C30 C -1.0404(8) 0.3480(6) 0.4733(3)
N6 N -0.7194(8) -0.3533(6) -0.0562(3)
O20 O -0.8519(8) -0.4110(7) -0.0649(4)
O21 O -0.6734(8) -0.3280(7) -0.1059(3)
O22 O -0.6302(8) -0.3154(6) 0.0017(3)
O26 O -0.5298(7) 0.0964(5) 0.0561(3)
O27 O -0.3197(7) -0.0340(6) 0.1312(3)
Er2_2 Er -0.21927(3) 0.30798(3) 0.31208(1)
O12_2 O -1.3906(6) 0.3685(4) 0.2423(2)
O9A O -0.7772(7) -0.1190(6) -0.0199(3)
Na1A Na -0.4513(3) 0.0972(3) -0.0509(2)
O26A O -0.4702(7) -0.0964(5) -0.0561(3)
Na1A_2 Na -1.4513(3) 0.0972(3) -0.0509(2)
N7 N 0.5423(10) 0.6413(9) 0.3289(3)
O23 O 0.6646(11) 0.7056(11) 0.3276(7)
O24 O 0.4297(12) 0.6611(12) 0.3142(5)
O25 O 0.5431(9) 0.5488(7) 0.3426(4)
O28 O 0.5420(10) 0.1381(8) 0.4579(4)
O29 O 0.6264(10) 0.8478(9) 0.2347(5)
O30 O 0.3003(10) 0.6858(9) 0.4296(4)
O31 O 0.6162(27) 0.9279(22) 0.4324(12)
loop_
_geom_bond_atom_site_label_1
_geom_bond_atom_site_label_2
_geom_bond_site_symmetry_1
_geom_bond_site_symmetry_2
Er1 O6 1_555 1_555
Er2 O1 1_555 1_555
Na1 O8 1_555 1_555
O2 Er2 1_555 1_555
O3 Er2 1_555 1_555
O4 Er2 1_555 1_555
O5 Er2 1_555 1_555
O6 C6 1_555 1_555
O7 Er1 1_555 1_555
O8 C12 1_555 1_555
O9 C18 1_555 1_555
O10 Er1 1_555 1_555
O11 Er1 1_555 1_555
O12 C24 1_555 1_555
O13 Er2 1_555 1_555
O14 C30 1_555 1_555
O15 Er1 1_555 1_555
O16 Er1 1_555 1_555
O17 Er1 1_555 1_555
O18 Er1 1_555 1_555
O19 Er2 1_555 1_555
N1 O15 1_555 1_555
N2 O16 1_555 1_555
N3 O17 1_555 1_555
N4 O18 1_555 1_555
N5 O19 1_555 1_555
C1 N1 1_555 1_555
C2 C1 1_555 1_555
C3 C2 1_555 1_555
C4 C3 1_555 1_555
C5 N1 1_555 1_555
C6 O5 1_555 1_555
C7 N2 1_555 1_555
C8 C7 1_555 1_555
C9 C8 1_555 1_555
C10 C9 1_555 1_555
C11 N2 1_555 1_555
C12 O7 1_555 1_555
C13 N3 1_555 1_555
C14 C13 1_555 1_555
C15 C14 1_555 1_555
C16 C15 1_555 1_555
C17 N3 1_555 1_555
C18 O10 1_555 1_555
C19 N4 1_555 1_555
C20 C19 1_555 1_555
C21 C20 1_555 1_555
C22 C21 1_555 1_555
C23 N4 1_555 1_555
C24 O11 1_555 1_555
C25 N5 1_555 1_555
C26 C25 1_555 1_555
C27 C26 1_555 1_555
C28 C27 1_555 1_555
C29 N5 1_555 1_555
C30 O13 1_555 1_555
N6 O20 1_555 1_555
O21 N6 1_555 1_555
O22 Na1 1_555 1_555
N7 O23 1_555 1_555
O24 N7 1_555 1_555
O25 N7 1_555 1_555
O26 Na1 1_555 1_555
O27 Na1 1_555 1_555
Er2_2 O12 1_555 1_555
O12_2 Er2 1_555 1_555
O9A Na1 1_555 1_555
Na1A O26 1_555 1_555
O26A Na1 1_555 1_555
Na1A_2 O9 1_555 1_555
C1 C6 1_555 1_555
C4 C5 1_555 1_555
C7 C12 1_555 1_555
C10 C11 1_555 1_555
C13 C18 1_555 1_555
C16 C17 1_555 1_555
C19 C24 1_555 1_555
C22 C23 1_555 1_555
C25 C30 1_555 1_555
C28 C29 1_555 1_555
N6 O22 1_555 1_555
Na1A O26A 1_555 1_555

#END
