
#######################################################################
#
#                 Cambridge Crystallographic Data Centre
#                                CCDC 
#
#######################################################################
#
# If this CIF has been generated from an entry in the Cambridge 
# Structural Database, then it will include bibliographic, chemical, 
# crystal, experimental, refinement or atomic coordinate data resulting 
# from the CCDC's data processing and validation procedures.
#
#######################################################################

data_GORCUL
_symmetry_cell_setting           monoclinic
_symmetry_space_group_name_H-M   'C 2/c'
_symmetry_Int_Tables_number      15
_space_group_name_Hall           '-C 2yn'
loop_
_symmetry_equiv_pos_site_id
_symmetry_equiv_pos_as_xyz
1 x,y,z
2 1/2+x,1/2+y,z
3 -x,y,1/2-z
4 1/2-x,1/2+y,1/2-z
5 -x,-y,-z
6 1/2-x,1/2-y,-z
7 x,-y,1/2+z
8 1/2+x,1/2-y,1/2+z
_cell_length_a                   19.229(7)
_cell_length_b                   11.281(5)
_cell_length_c                   7.621(2)
_cell_angle_alpha                90
_cell_angle_beta                 104.305(12)
_cell_angle_gamma                90
_cell_volume                     1601.91
loop_
_atom_site_label
_atom_site_type_symbol
_atom_site_fract_x
_atom_site_fract_y
_atom_site_fract_z
Cu1 Cu 0.0000 0.37032(9) 0.2500
F1 F -0.2021(2) 0.5426(3) -0.0757(5)
F2 F -0.1841(2) 0.6510(4) 0.1480(4)
F3 F -0.1651(2) 0.7114(3) -0.0931(6)
N1 N -0.0656(2) 0.2351(3) 0.1442(5)
O1 O -0.0787(2) 0.4789(3) 0.1597(4)
O2 O -0.0342(2) 0.6320(3) 0.0362(4)
C1 C -0.1293(3) 0.2386(5) 0.0363(7)
H1 H -0.1503(3) 0.3119(5) 0.0017(7)
C2 C -0.1676(3) 0.1358(6) -0.0298(7)
H2 H -0.2131(3) 0.1413(6) -0.1075(7)
C3 C -0.1380(3) 0.0290(5) 0.0197(7)
H3 H -0.1636(3) -0.0397(5) -0.0217(7)
C4 C -0.0692(3) 0.0213(4) 0.1329(7)
C5 C -0.0350(2) 0.1275(4) 0.1922(5)
C6 C -0.0323(3) -0.0873(4) 0.1938(8)
H4 H -0.0542(3) -0.1592(4) 0.1536(8)
C7 C -0.0812(3) 0.5735(4) 0.0735(6)
C8 C -0.1573(3) 0.6208(5) 0.0157(7)
C5B C 0.0350(2) 0.1275(4) 0.3078(5)
N1B N 0.0656(2) 0.2351(3) 0.3558(5)
C1B C 0.1293(3) 0.2386(5) 0.4637(7)
H1B H 0.1503(3) 0.3119(5) 0.4983(7)
C2B C 0.1676(3) 0.1358(6) 0.5298(7)
H2B H 0.2131(3) 0.1413(6) 0.6075(7)
C3B C 0.1380(3) 0.0290(5) 0.4803(7)
H3B H 0.1636(3) -0.0397(5) 0.5217(7)
C4B C 0.0692(3) 0.0213(4) 0.3671(7)
C6B C 0.0323(3) -0.0873(4) 0.3062(8)
H4B H 0.0542(3) -0.1592(4) 0.3464(8)
F1B F 0.2021(2) 0.5426(3) 0.5757(5)
F2B F 0.1841(2) 0.6510(4) 0.3520(4)
F3B F 0.1651(2) 0.7114(3) 0.5931(6)
O1B O 0.0787(2) 0.4789(3) 0.3403(4)
O2B O 0.0342(2) 0.6320(3) 0.4638(4)
C7B C 0.0812(3) 0.5735(4) 0.4265(6)
C8B C 0.1573(3) 0.6208(5) 0.4843(7)
O2F O -0.0342(2) 0.3680(3) 0.5362(4)
O2D O 0.0342(2) 0.3680(3) -0.0362(4)
Cu1F Cu 0.0000 0.62968(9) 0.7500
Cu1D Cu 0.0000 0.62968(9) -0.2500
loop_
_geom_bond_atom_site_label_1
_geom_bond_atom_site_label_2
_geom_bond_site_symmetry_1
_geom_bond_site_symmetry_2
Cu1 N1 1_555 1_555
F1 C8 1_555 1_555
F2 C8 1_555 1_555
F3 C8 1_555 1_555
N1 C1 1_555 1_555
O1 Cu1 1_555 1_555
O2 C7 1_555 1_555
C1 H1 1_555 1_555
C2 C1 1_555 1_555
H2 C2 1_555 1_555
C3 C2 1_555 1_555
H3 C3 1_555 1_555
C4 C3 1_555 1_555
C5 N1 1_555 1_555
C6 C4 1_555 1_555
H4 C6 1_555 1_555
C7 O1 1_555 1_555
C8 C7 1_555 1_555
C5B C5 1_555 1_555
N1B Cu1 1_555 1_555
C1B N1B 1_555 1_555
H1B C1B 1_555 1_555
C2B C1B 1_555 1_555
H2B C2B 1_555 1_555
C3B C2B 1_555 1_555
H3B C3B 1_555 1_555
C4B C5B 1_555 1_555
C6B C6 1_555 1_555
H4B C6B 1_555 1_555
F1B C8B 1_555 1_555
F2B C8B 1_555 1_555
F3B C8B 1_555 1_555
O1B Cu1 1_555 1_555
O2B C7B 1_555 1_555
C7B O1B 1_555 1_555
C8B C7B 1_555 1_555
O2F Cu1 1_555 1_555
O2D Cu1 1_555 1_555
Cu1F O2B 1_555 1_555
Cu1D O2 1_555 1_555
C4 C5 1_555 1_555
C5B N1B 1_555 1_555
C3B C4B 1_555 1_555
C4B C6B 1_555 1_555

#END
