
#######################################################################
#
#                 Cambridge Crystallographic Data Centre
#                                CCDC 
#
#######################################################################
#
# If this CIF has been generated from an entry in the Cambridge 
# Structural Database, then it will include bibliographic, chemical, 
# crystal, experimental, refinement or atomic coordinate data resulting 
# from the CCDC's data processing and validation procedures.
#
#######################################################################

data_GORFOK
_symmetry_cell_setting           monoclinic
_symmetry_space_group_name_H-M   'P 21/n'
_symmetry_Int_Tables_number      14
_space_group_name_Hall           '-P 2yn'
loop_
_symmetry_equiv_pos_site_id
_symmetry_equiv_pos_as_xyz
1 x,y,z
2 1/2-x,1/2+y,1/2-z
3 -x,-y,-z
4 1/2+x,1/2-y,1/2+z
_cell_length_a                   8.15961
_cell_length_b                   11.21043
_cell_length_c                   17.04066(1)
_cell_angle_alpha                90
_cell_angle_beta                 94.4222(3)
_cell_angle_gamma                90
_cell_volume                     1554.12
loop_
_atom_site_label
_atom_site_type_symbol
_atom_site_fract_x
_atom_site_fract_y
_atom_site_fract_z
C1 C 0.3887(4) 0.8643(3) 0.02874(18)
H1 H 0.3889 0.8920 -0.0227
C2 C 0.2591(4) 0.8451(3) 0.14794(19)
H2 H 0.1708 0.8577 0.1783
C3 C 0.2552(4) 0.8867(3) 0.07231(18)
H3 H 0.1649 0.9291 0.0505
C4 C 0.5216(4) 0.8007(3) 0.06220(16)
C5 C 1.0538(4) 0.6187(3) 0.07090(16)
C6 C 0.9523(4) 0.7311(3) -0.05195(17)
H4 H 1.0508 0.7169 -0.0745
C7 C 0.9276(4) 0.6894(3) 0.02273(16)
C8 C 0.6676(4) 0.7746(3) 0.01807(16)
C9 C 1.1960(4) 0.5776(3) 0.04078(17)
H5 H 1.2144 0.5913 -0.0116
C10 C 0.6823(4) 0.8150(3) -0.05837(17)
H6 H 0.5962 0.8551 -0.0859
C11 C 0.8273(4) 0.7942(3) -0.09212(18)
H7 H 0.8411 0.8228 -0.1424
C12 C 1.2795(4) 0.4971(3) 0.1660(2)
H8 H 1.3555 0.4571 0.1999
C13 C 1.1346(4) 0.5383(3) 0.19199(18)
H9 H 1.1134 0.5238 0.2440
C14 C 0.3967(4) 0.7840(3) 0.17816(17)
H10 H 0.3998 0.7578 0.2300
C15 C 1.3098(4) 0.5163(3) 0.08884(19)
H11 H 1.4059 0.4882 0.0694
N1 N 0.6939(4) 0.5461(2) 0.33709(14)
N2 N 0.8368(3) 0.8739(2) 0.30582(15)
N3 N 0.7980(3) 0.9456(2) 0.35115(15)
N4 N 0.7881(3) 0.7123(2) 0.05681(13)
N5 N 0.5259(3) 0.7606(2) 0.13681(13)
N6 N 1.0228(3) 0.5979(2) 0.14608(13)
N7 N 0.8860(4) 0.8049(3) 0.26147(16)
O1 O 0.5941(3) 0.5998(2) 0.28856(12)
O2 O 0.6454(3) 0.5013(2) 0.39697(12)
O3 O 0.8412(3) 0.5409(2) 0.32210(13)
Cd1 Cd 0.76295(3) 0.651393(19) 0.187190(11)
N3A N 0.7020(3) 0.4456(2) 0.14885(15)
Cd1A Cd 0.73705(3) 1.151393(19) 0.312810(11)
loop_
_geom_bond_atom_site_label_1
_geom_bond_atom_site_label_2
_geom_bond_site_symmetry_1
_geom_bond_site_symmetry_2
C1 H1 1_555 1_555
C2 H2 1_555 1_555
C3 C1 1_555 1_555
H3 C3 1_555 1_555
C4 C1 1_555 1_555
C5 C7 1_555 1_555
C6 H4 1_555 1_555
C7 C6 1_555 1_555
C8 C4 1_555 1_555
C9 C5 1_555 1_555
H5 C9 1_555 1_555
C10 C8 1_555 1_555
H6 C10 1_555 1_555
C11 C6 1_555 1_555
H7 C11 1_555 1_555
C12 H8 1_555 1_555
C13 C12 1_555 1_555
H9 C13 1_555 1_555
C14 C2 1_555 1_555
H10 C14 1_555 1_555
C15 C9 1_555 1_555
H11 C15 1_555 1_555
N1 O1 1_555 1_555
N2 N3 1_555 1_555
N3 Cd1A 1_555 1_555
N4 C7 1_555 1_555
N5 C4 1_555 1_555
N6 C5 1_555 1_555
N7 N2 1_555 1_555
O1 Cd1 1_555 1_555
O2 N1 1_555 1_555
O3 N1 1_555 1_555
Cd1 N4 1_555 1_555
N3A Cd1 1_555 1_555
C2 C3 1_555 1_555
C8 N4 1_555 1_555
C10 C11 1_555 1_555
C12 C15 1_555 1_555
C13 N6 1_555 1_555
C14 N5 1_555 1_555
N5 Cd1 1_555 1_555
N6 Cd1 1_555 1_555
N7 Cd1 1_555 1_555
O3 Cd1 1_555 1_555

#END
