
#######################################################################
#
#                 Cambridge Crystallographic Data Centre
#                                CCDC 
#
#######################################################################
#
# If this CIF has been generated from an entry in the Cambridge 
# Structural Database, then it will include bibliographic, chemical, 
# crystal, experimental, refinement or atomic coordinate data resulting 
# from the CCDC's data processing and validation procedures.
#
#######################################################################

data_GORFEA
_symmetry_cell_setting           monoclinic
_symmetry_space_group_name_H-M   'P 21/n'
_symmetry_Int_Tables_number      14
_space_group_name_Hall           '-P 2yn'
loop_
_symmetry_equiv_pos_site_id
_symmetry_equiv_pos_as_xyz
1 x,y,z
2 1/2-x,1/2+y,1/2-z
3 -x,-y,-z
4 1/2+x,1/2-y,1/2+z
_cell_length_a                   8.5178(3)
_cell_length_b                   14.4262(6)
_cell_length_c                   14.9256(5)
_cell_angle_alpha                90
_cell_angle_beta                 100.234(3)
_cell_angle_gamma                90
_cell_volume                     1804.87
loop_
_atom_site_label
_atom_site_type_symbol
_atom_site_fract_x
_atom_site_fract_y
_atom_site_fract_z
Cd1 Cd 0.18985(3) 0.343504(18) 0.187459(14)
O1 O 0.2778(3) 0.4658(2) 0.31000(16)
N1 N 0.2185(3) 0.25420(19) 0.06061(17)
N2 N -0.0288(3) 0.2404(2) 0.14825(18)
C1 C -0.0300(4) 0.1838(2) 0.0766(2)
C2 C 0.4601(4) 0.3389(3) 0.0613(2)
C3 C 0.2573(5) 0.1471(3) -0.0842(3)
H1 H 0.2710 0.1103 -0.1335
N3 N 0.4329(3) 0.3805(2) 0.13764(19)
C4 C 0.1083(4) 0.1920(3) 0.0281(2)
N4 N 0.0860(4) 0.4707(3) 0.1056(2)
C5 C 0.3484(4) 0.2659(3) 0.0222(2)
C6 C 0.3715(5) 0.2108(3) -0.0500(2)
H2 H 0.4634 0.2168 -0.0751
O2 O 0.0423(3) 0.4093(2) 0.29656(17)
N5 N 0.1454(4) 0.4649(3) 0.33468(19)
C7 C -0.1524(4) 0.1219(3) 0.0501(3)
H3 H -0.1520 0.0839 -0.0001
C8 C 0.0642(4) 0.5474(3) 0.1138(2)
N6 N 0.0215(6) 0.6324(3) 0.1187(4)
C9 C -0.1494(5) 0.2344(3) 0.1944(3)
H4 H -0.1496 0.2735 0.2439
C10 C 0.1246(5) 0.1373(3) -0.0469(2)
H5 H 0.0458 0.0949 -0.0706
C11 C -0.2737(5) 0.1725(3) 0.1712(3)
H6 H -0.3552 0.1692 0.2050
C12 C 0.5309(4) 0.4472(3) 0.1751(3)
H7 H 0.5103 0.4761 0.2275
C13 C 0.5887(5) 0.3665(4) 0.0224(3)
H8 H 0.6066 0.3386 -0.0310
O3 O 0.1166(4) 0.5152(3) 0.3949(2)
C14 C 0.6609(5) 0.4752(4) 0.1397(3)
H9 H 0.7283 0.5212 0.1683
C15 C -0.2745(5) 0.1166(3) 0.0982(3)
H10 H -0.3576 0.0749 0.0809
C16 C 0.1171(5) 0.6922(3) 0.1627(3)
N7 N 0.1869(6) 0.7492(3) 0.2003(3)
C17 C 0.6894(5) 0.4345(4) 0.0621(3)
H11 H 0.7762 0.4527 0.0363
Cd1A Cd 0.31015(3) 0.843504(18) 0.312541(14)
N7A N 0.3131(6) 0.2492(3) 0.2997(3)
loop_
_geom_bond_atom_site_label_1
_geom_bond_atom_site_label_2
_geom_bond_site_symmetry_1
_geom_bond_site_symmetry_2
Cd1 O1 1_555 1_555
O1 N5 1_555 1_555
N1 Cd1 1_555 1_555
N2 Cd1 1_555 1_555
C1 N2 1_555 1_555
C2 N3 1_555 1_555
C3 H1 1_555 1_555
N3 Cd1 1_555 1_555
C4 N1 1_555 1_555
N4 Cd1 1_555 1_555
C5 N1 1_555 1_555
C6 C3 1_555 1_555
H2 C6 1_555 1_555
O2 Cd1 1_555 1_555
N5 O2 1_555 1_555
C7 C1 1_555 1_555
H3 C7 1_555 1_555
C8 N4 1_555 1_555
N6 C8 1_555 1_555
C9 N2 1_555 1_555
H4 C9 1_555 1_555
C10 C3 1_555 1_555
H5 C10 1_555 1_555
C11 C9 1_555 1_555
H6 C11 1_555 1_555
C12 N3 1_555 1_555
H7 C12 1_555 1_555
C13 C2 1_555 1_555
H8 C13 1_555 1_555
O3 N5 1_555 1_555
C14 C12 1_555 1_555
H9 C14 1_555 1_555
C15 C7 1_555 1_555
H10 C15 1_555 1_555
C16 N6 1_555 1_555
N7 C16 1_555 1_555
C17 C13 1_555 1_555
H11 C17 1_555 1_555
Cd1A N7 1_555 1_555
N7A Cd1 1_555 1_555
C1 C4 1_555 1_555
C2 C5 1_555 1_555
C4 C10 1_555 1_555
C5 C6 1_555 1_555
C11 C15 1_555 1_555
C14 C17 1_555 1_555

#END
