
#######################################################################
#
#                 Cambridge Crystallographic Data Centre
#                                CCDC 
#
#######################################################################
#
# If this CIF has been generated from an entry in the Cambridge 
# Structural Database, then it will include bibliographic, chemical, 
# crystal, experimental, refinement or atomic coordinate data resulting 
# from the CCDC's data processing and validation procedures.
#
#######################################################################

data_GORGEB
_symmetry_cell_setting           monoclinic
_symmetry_space_group_name_H-M   'P 21/n'
_symmetry_Int_Tables_number      14
_space_group_name_Hall           '-P 2yn'
loop_
_symmetry_equiv_pos_site_id
_symmetry_equiv_pos_as_xyz
1 x,y,z
2 1/2-x,1/2+y,1/2-z
3 -x,-y,-z
4 1/2+x,1/2-y,1/2+z
_cell_length_a                   9.2897(4)
_cell_length_b                   8.9304(3)
_cell_length_c                   31.2856(11)
_cell_angle_alpha                90
_cell_angle_beta                 97.826(3)
_cell_angle_gamma                90
_cell_volume                     2571.3
loop_
_atom_site_label
_atom_site_type_symbol
_atom_site_fract_x
_atom_site_fract_y
_atom_site_fract_z
Cd1 Cd 0.66520(4) 0.29464(5) 0.617790(13)
N1 N 0.7026(6) 0.5538(6) 0.62664(16)
O1 O 0.8549(6) 0.2910(7) 0.57013(16)
N2 N 0.6552(5) 0.2487(5) 0.69215(13)
N3 N 0.4342(4) 0.3577(5) 0.63843(13)
N4 N 0.9524(6) 0.2754(6) 0.60095(19)
O2 O 0.9186(5) 0.2692(6) 0.63778(15)
N5 N 0.4950(5) 0.3439(5) 0.55784(13)
C1 C 0.5118(6) 0.2206(7) 0.74883(16)
H1 H 0.4255 0.2393 0.7599
C2 C 0.6714(7) 0.6736(7) 0.63242(18)
C3 C 0.5315(5) 0.2751(6) 0.70895(15)
C4 C 0.4210(5) 0.3644(6) 0.68067(15)
C5 C 0.5145(7) 0.3026(8) 0.51814(17)
H2 H 0.6032 0.2611 0.5139
N6 N 0.2345(4) 0.5463(5) 0.66539(13)
C6 C 0.3523(5) 0.4433(6) 0.60987(15)
C7 C 0.2593(5) 0.5489(6) 0.62442(16)
C8 C 0.1929(6) 0.6776(7) 0.59867(17)
C9 C 0.3104(5) 0.4526(6) 0.69340(16)
C10 C 0.3679(6) 0.4082(6) 0.56396(15)
O3 O 1.0812(5) 0.2637(7) 0.59546(19)
C11 C 0.6206(6) 0.1381(7) 0.77240(18)
H3 H 0.6074 0.0985 0.7991
C12 C 0.2712(6) 0.4542(6) 0.73818(16)
N7 N 0.6358(7) 1.0402(7) 0.6072(2)
C13 C 0.7471(7) 0.1154(8) 0.75617(19)
H4 H 0.8234 0.0639 0.7721
C14 C 0.7604(6) 0.1699(7) 0.71579(18)
H5 H 0.8460 0.1514 0.7044
C15 C 0.2572(6) 0.4270(7) 0.53032(17)
H6 H 0.1693 0.4691 0.5351
N8 N 0.3623(5) 0.5249(6) 0.76818(14)
C16 C 0.1461(6) 0.3851(7) 0.74640(18)
H7 H 0.0845 0.3393 0.7243
N9 N 0.2792(6) 0.7454(6) 0.57396(17)
C17 C 0.6371(7) 0.9270(8) 0.6226(2)
C18 C 0.1137(7) 0.3850(8) 0.7878(2)
H8 H 0.0307 0.3371 0.7945
C19 C 0.3256(8) 0.5263(8) 0.80814(19)
H9 H 0.3852 0.5776 0.8296
C20 C 0.0560(7) 0.7285(9) 0.6033(2)
H10 H -0.0015 0.6776 0.6206
C21 C 0.2786(8) 0.3823(9) 0.48926(18)
H11 H 0.2054 0.3951 0.4661
N10 N 0.6302(9) 0.8022(9) 0.6437(2)
C22 C 0.4081(8) 0.3191(8) 0.48306(18)
H12 H 0.4243 0.2879 0.4558
C23 C 0.2047(8) 0.4559(8) 0.8190(2)
H13 H 0.1852 0.4567 0.8474
C24 C 0.0916(11) 0.9265(10) 0.5565(2)
H14 H 0.0592 1.0120 0.5411
C25 C 0.0063(9) 0.8567(10) 0.5817(3)
H15 H -0.0852 0.8945 0.5845
C26 C 0.2266(10) 0.8697(9) 0.5538(2)
H16 H 0.2855 0.9206 0.5368
Cd1_2 Cd 0.66520(4) 1.29464(5) 0.617790(13)
N7_2 N 0.6358(7) 0.0402(7) 0.6072(2)
loop_
_geom_bond_atom_site_label_1
_geom_bond_atom_site_label_2
_geom_bond_site_symmetry_1
_geom_bond_site_symmetry_2
Cd1 N1 1_555 1_555
N1 C2 1_555 1_555
O1 Cd1 1_555 1_555
N2 Cd1 1_555 1_555
N3 Cd1 1_555 1_555
N4 O1 1_555 1_555
O2 Cd1 1_555 1_555
N5 Cd1 1_555 1_555
C1 H1 1_555 1_555
C2 N10 1_555 1_555
C3 N2 1_555 1_555
C4 N3 1_555 1_555
C5 N5 1_555 1_555
H2 C5 1_555 1_555
N6 C7 1_555 1_555
C6 N3 1_555 1_555
C7 C6 1_555 1_555
C8 C7 1_555 1_555
C9 C4 1_555 1_555
C10 N5 1_555 1_555
O3 N4 1_555 1_555
C11 C1 1_555 1_555
H3 C11 1_555 1_555
C12 C9 1_555 1_555
N7 C17 1_555 1_555
C13 C11 1_555 1_555
H4 C13 1_555 1_555
C14 N2 1_555 1_555
H5 C14 1_555 1_555
C15 C10 1_555 1_555
H6 C15 1_555 1_555
N8 C12 1_555 1_555
C16 C12 1_555 1_555
H7 C16 1_555 1_555
N9 C8 1_555 1_555
C17 N10 1_555 1_555
C18 C16 1_555 1_555
H8 C18 1_555 1_555
C19 N8 1_555 1_555
H9 C19 1_555 1_555
C20 C8 1_555 1_555
H10 C20 1_555 1_555
C21 C15 1_555 1_555
H11 C21 1_555 1_555
C22 C5 1_555 1_555
H12 C22 1_555 1_555
C23 C18 1_555 1_555
H13 C23 1_555 1_555
C24 H14 1_555 1_555
C25 C20 1_555 1_555
H15 C25 1_555 1_555
C26 N9 1_555 1_555
H16 C26 1_555 1_555
Cd1_2 N7 1_555 1_555
N7_2 Cd1 1_555 1_555
N4 O2 1_555 1_555
C1 C3 1_555 1_555
C3 C4 1_555 1_555
N6 C9 1_555 1_555
C6 C10 1_555 1_555
C13 C14 1_555 1_555
C19 C23 1_555 1_555
C21 C22 1_555 1_555
C24 C25 1_555 1_555
C24 C26 1_555 1_555

#END
