
#######################################################################
#
#                 Cambridge Crystallographic Data Centre
#                                CCDC 
#
#######################################################################
#
# If this CIF has been generated from an entry in the Cambridge 
# Structural Database, then it will include bibliographic, chemical, 
# crystal, experimental, refinement or atomic coordinate data resulting 
# from the CCDC's data processing and validation procedures.
#
#######################################################################

data_GORGIF
_symmetry_cell_setting           monoclinic
_symmetry_space_group_name_H-M   'P 21/c'
_symmetry_Int_Tables_number      14
_space_group_name_Hall           '-P 2ybc'
loop_
_symmetry_equiv_pos_site_id
_symmetry_equiv_pos_as_xyz
1 x,y,z
2 -x,1/2+y,1/2-z
3 -x,-y,-z
4 x,1/2-y,1/2+z
_cell_length_a                   9.4767(3)
_cell_length_b                   12.5129(4)
_cell_length_c                   14.3126(5)
_cell_angle_alpha                90
_cell_angle_beta                 106.191(4)
_cell_angle_gamma                90
_cell_volume                     1629.89
loop_
_atom_site_label
_atom_site_type_symbol
_atom_site_fract_x
_atom_site_fract_y
_atom_site_fract_z
C1 C 0.2189(4) 0.7036(3) 0.1787(3)
H1 H 0.1305 0.6867 0.1914
C2 C 0.2882(4) 0.7969(3) 0.2163(3)
H2 H 0.2458 0.8433 0.2515
C3 C 0.4216(4) 0.8201(3) 0.2008(2)
H3 H 0.4731 0.8812 0.2276
C4 C 0.4778(4) 0.7512(3) 0.1450(2)
H4 H 0.5682 0.7650 0.1338
C5 C 0.3986(3) 0.6618(2) 0.1058(2)
C6 C 0.4522(3) 0.5815(2) 0.0462(2)
C7 C 0.4656(3) 0.3984(2) 0.0198(2)
C8 C 0.4282(3) 0.2924(2) 0.0544(2)
C9 C 0.5217(4) 0.2062(3) 0.0670(2)
H5 H 0.6079 0.2104 0.0482
C10 C 0.4867(4) 0.1133(3) 0.1079(3)
H6 H 0.5482 0.0541 0.1163
C11 C 0.3599(4) 0.1104(3) 0.1359(3)
H7 H 0.3335 0.0490 0.1635
C12 C 0.2719(4) 0.2001(3) 0.1222(3)
H8 H 0.1857 0.1974 0.1412
N1 N 0.2721(3) 0.6359(2) 0.12472(19)
N2 N 0.4184(3) 0.4812(2) 0.06239(19)
N3 N 0.3039(3) 0.2907(2) 0.08322(19)
N4 N -0.0682(3) 0.5430(2) 0.0696(2)
N5 N -0.1392(3) 0.5439(2) 0.1266(2)
N6 N -0.2066(5) 0.5462(4) 0.1820(3)
N7 N 0.1439(4) 0.3809(3) 0.2681(3)
O1 O 0.2441(3) 0.4443(2) 0.2634(2)
O2 O 0.0544(3) 0.3452(2) 0.1931(2)
O3 O 0.1316(6) 0.3452(4) 0.3677(3)
Cd1 Cd 0.17204(2) 0.458875(18) 0.094806(16)
C1B C 0.7811(4) 0.2964(3) -0.1787(3)
H1B H 0.8695 0.3133 -0.1914
C2B C 0.7118(4) 0.2031(3) -0.2163(3)
H2B H 0.7542 0.1567 -0.2515
C3B C 0.5784(4) 0.1799(3) -0.2008(2)
H3B H 0.5269 0.1188 -0.2276
C4B C 0.5222(4) 0.2488(3) -0.1450(2)
H4B H 0.4318 0.2350 -0.1338
C5B C 0.6014(3) 0.3382(2) -0.1058(2)
C6B C 0.5478(3) 0.4185(2) -0.0462(2)
C7B C 0.5344(3) 0.6016(2) -0.0198(2)
C8B C 0.5718(3) 0.7076(2) -0.0544(2)
C9B C 0.4783(4) 0.7938(3) -0.0670(2)
H5B H 0.3921 0.7896 -0.0482
C10B C 0.5133(4) 0.8867(3) -0.1079(3)
H6B H 0.4518 0.9459 -0.1163
C11B C 0.6401(4) 0.8896(3) -0.1359(3)
H7B H 0.6665 0.9510 -0.1635
C12B C 0.7281(4) 0.7999(3) -0.1222(3)
H8B H 0.8143 0.8026 -0.1412
N1B N 0.7279(3) 0.3641(2) -0.12472(19)
N2B N 0.5816(3) 0.5188(2) -0.06239(19)
N3B N 0.6961(3) 0.7093(2) -0.08322(19)
N4B N 0.0682(3) 0.4570(2) -0.0696(2)
N5B N 0.1392(3) 0.4561(2) -0.1266(2)
N6B N 0.2066(5) 0.4538(4) -0.1820(3)
N7B N -0.1439(4) 0.6191(3) -0.2681(3)
O1B O -0.2441(3) 0.5557(2) -0.2634(2)
O2B O -0.0544(3) 0.6548(2) -0.1931(2)
O3B O -0.1316(6) 0.6548(4) -0.3677(3)
Cd1B Cd -0.17204(2) 0.541125(18) -0.094806(16)
N1B_2 N -0.2721(3) 0.3641(2) -0.12472(19)
N2B_2 N -0.4184(3) 0.5188(2) -0.06239(19)
N3B_2 N -0.3039(3) 0.7093(2) -0.08322(19)
Cd1B_2 Cd 0.82796(2) 0.541125(18) -0.094806(16)
C13 C 0.1118(7) 0.8834(6) -0.0718(6)
H9 H 0.0248 0.8988 -0.0524
H10 H 0.0965 0.9032 -0.1387
H11 H 0.1929 0.9234 -0.0319
O4 O 0.1413(5) 0.7796(4) -0.0613(5)
H12 H 0.1017 0.7486 -0.1123
loop_
_geom_bond_atom_site_label_1
_geom_bond_atom_site_label_2
_geom_bond_site_symmetry_1
_geom_bond_site_symmetry_2
C1 H1 1_555 1_555
C2 C1 1_555 1_555
H2 C2 1_555 1_555
C3 C2 1_555 1_555
H3 C3 1_555 1_555
C4 C3 1_555 1_555
H4 C4 1_555 1_555
C5 C4 1_555 1_555
C6 C5 1_555 1_555
C7 C8 1_555 1_555
C8 C9 1_555 1_555
C9 H5 1_555 1_555
C10 C9 1_555 1_555
H6 C10 1_555 1_555
C11 C10 1_555 1_555
H7 C11 1_555 1_555
C12 C11 1_555 1_555
H8 C12 1_555 1_555
N1 C1 1_555 1_555
N2 C6 1_555 1_555
N3 C8 1_555 1_555
N4 N5 1_555 1_555
N5 N6 1_555 1_555
N7 O1 1_555 1_555
O1 Cd1 1_555 1_555
O2 N7 1_555 1_555
O3 N7 1_555 1_555
Cd1 N1 1_555 1_555
C13 H9 1_555 1_555
H10 C13 1_555 1_555
H11 C13 1_555 1_555
O4 C13 1_555 1_555
H12 O4 1_555 1_555
C1B H1B 1_555 1_555
C2B C1B 1_555 1_555
H2B C2B 1_555 1_555
C3B C2B 1_555 1_555
H3B C3B 1_555 1_555
C4B C3B 1_555 1_555
H4B C4B 1_555 1_555
C5B C4B 1_555 1_555
C6B C7 1_555 1_555
C7B C6 1_555 1_555
C8B C7B 1_555 1_555
C9B C8B 1_555 1_555
H5B C9B 1_555 1_555
C10B C9B 1_555 1_555
H6B C10B 1_555 1_555
C11B C10B 1_555 1_555
H7B C11B 1_555 1_555
C12B C11B 1_555 1_555
H8B C12B 1_555 1_555
N1B C1B 1_555 1_555
N2B C6B 1_555 1_555
N3B C8B 1_555 1_555
N4B Cd1 1_555 1_555
N5B N4B 1_555 1_555
N6B N5B 1_555 1_555
N7B O1B 1_555 1_555
O1B Cd1B 1_555 1_555
O2B N7B 1_555 1_555
O3B N7B 1_555 1_555
Cd1B N4 1_555 1_555
N1B_2 Cd1B 1_555 1_555
N2B_2 Cd1B 1_555 1_555
N3B_2 Cd1B 1_555 1_555
Cd1B_2 N1B 1_555 1_555
C5 N1 1_555 1_555
C7 N2 1_555 1_555
C12 N3 1_555 1_555
N2 Cd1 1_555 1_555
N3 Cd1 1_555 1_555
N4 Cd1 1_555 1_555
O2 Cd1 1_555 1_555
C5B C6B 1_555 1_555
C5B N1B 1_555 1_555
C7B N2B 1_555 1_555
C12B N3B 1_555 1_555
N2B Cd1B_2 1_555 1_555
N3B Cd1B_2 1_555 1_555
N4B Cd1B 1_555 1_555
O2B Cd1B 1_555 1_555

#END
