
#######################################################################
#
#                 Cambridge Crystallographic Data Centre
#                                CCDC 
#
#######################################################################
#
# If this CIF has been generated from an entry in the Cambridge 
# Structural Database, then it will include bibliographic, chemical, 
# crystal, experimental, refinement or atomic coordinate data resulting 
# from the CCDC's data processing and validation procedures.
#
#######################################################################

data_GORGOL
_symmetry_cell_setting           triclinic
_symmetry_space_group_name_H-M   'P -1'
_symmetry_Int_Tables_number      2
_space_group_name_Hall           '-P 1'
loop_
_symmetry_equiv_pos_site_id
_symmetry_equiv_pos_as_xyz
1 x,y,z
2 -x,-y,-z
_cell_length_a                   7.9227(7)
_cell_length_b                   8.9657(9)
_cell_length_c                   10.1460(10)
_cell_angle_alpha                74.850(8)
_cell_angle_beta                 74.240(8)
_cell_angle_gamma                83.61(3)
_cell_volume                     668.867
loop_
_atom_site_label
_atom_site_type_symbol
_atom_site_fract_x
_atom_site_fract_y
_atom_site_fract_z
Cd1 Cd 0.20178(2) 0.87457(2) 0.46181(2)
N1 N 0.3079(3) 0.6518(3) 0.6300(3)
N2 N 0.1262(3) 0.6041(3) 0.4611(3)
N3 N -0.1577(3) 0.1548(3) 0.7572(3)
N4 N 0.4725(4) 0.9354(4) 0.3270(3)
N5 N 0.6000(4) 0.9514(3) 0.3580(3)
N6 N -0.1363(5) 0.6837(4) 0.8292(4)
N7 N -0.0714(3) 0.8657(3) 0.6119(3)
N8 N -0.1035(3) 0.7735(3) 0.7220(3)
N9 N 0.7307(4) 0.9702(4) 0.3791(4)
C1 C -0.2267(4) 0.0536(3) 0.8774(3)
H1 H -0.2762 -0.0336 0.8727
C2 C -0.0274(4) 0.3951(3) 0.6265(3)
C3 C -0.1545(5) 0.2002(4) 1.0157(4)
H2 H -0.1532 0.2145 1.1029
C4 C -0.0831(4) 0.3064(3) 0.8934(3)
H3 H -0.0343 0.3947 0.8966
C5 C 0.2420(4) 0.5109(3) 0.6591(3)
C6 C 0.1062(4) 0.5015(3) 0.5849(3)
C7 C 0.4379(4) 0.6630(4) 0.6871(4)
H4 H 0.4843 0.7594 0.6682
C8 C 0.3068(4) 0.3823(3) 0.7425(4)
H5 H 0.2611 0.2861 0.7589
C9 C -0.0850(4) 0.2800(3) 0.7655(3)
C10 C 0.5064(5) 0.5408(4) 0.7718(5)
H6 H 0.5971 0.5544 0.8090
C11 C -0.2279(5) 0.0723(4) 1.0070(4)
H7 H -0.2778 -0.0006 1.0885
C12 C 0.4397(5) 0.3974(4) 0.8013(4)
H8 H 0.4831 0.3125 0.8596
N1A N -0.3079(3) 0.3482(3) 0.3700(3)
N2A N -0.1262(3) 0.3959(3) 0.5389(3)
N3A N 0.1577(3) 0.8452(3) 0.2428(3)
C1A C 0.2267(4) 0.9464(3) 0.1226(3)
H1A H 0.2762 1.0336 0.1273
C2A C 0.0274(4) 0.6049(3) 0.3735(3)
C3A C 0.1545(5) 0.7998(4) -0.0157(4)
H2A H 0.1532 0.7855 -0.1029
C4A C 0.0831(4) 0.6936(3) 0.1066(3)
H3A H 0.0343 0.6053 0.1034
C5A C -0.2420(4) 0.4891(3) 0.3409(3)
C6A C -0.1062(4) 0.4985(3) 0.4151(3)
C7A C -0.4379(4) 0.3370(4) 0.3129(4)
H4A H -0.4843 0.2406 0.3318
C8A C -0.3068(4) 0.6177(3) 0.2575(4)
H5A H -0.2611 0.7139 0.2411
C9A C 0.0850(4) 0.7200(3) 0.2345(3)
C10A C -0.5064(5) 0.4592(4) 0.2282(5)
H6A H -0.5971 0.4456 0.1910
C11A C 0.2279(5) 0.9277(4) -0.0070(4)
H7A H 0.2778 1.0006 -0.0885
C12A C -0.4397(5) 0.6026(4) 0.1987(4)
H8A H -0.4831 0.6875 0.1404
Cd1A Cd -0.20178(2) 0.12543(2) 0.53819(2)
N4A N -0.4725(4) 0.0646(4) 0.6730(3)
N5A N -0.6000(4) 0.0486(3) 0.6420(3)
N6A N 0.1363(5) 0.3163(4) 0.1708(4)
N7A N 0.0714(3) 0.1343(3) 0.3881(3)
N8A N 0.1035(3) 0.2265(3) 0.2780(3)
N9A N -0.7307(4) 0.0298(4) 0.6209(4)
Cd1_2 Cd -0.79822(2) -0.12543(2) 0.46181(2)
Cd1_3 Cd 0.20178(2) -0.12543(2) 0.46181(2)
Cd1A_2 Cd -0.20178(2) 1.12543(2) 0.53819(2)
Cd1A_3 Cd 0.79822(2) 1.12543(2) 0.53819(2)
N7_2 N -0.0714(3) -0.1343(3) 0.6119(3)
N7A_2 N 0.0714(3) 1.1343(3) 0.3881(3)
N9_2 N -0.2693(4) -0.0298(4) 0.3791(4)
N9A_2 N 0.2693(4) 1.0298(4) 0.6209(4)
loop_
_geom_bond_atom_site_label_1
_geom_bond_atom_site_label_2
_geom_bond_site_symmetry_1
_geom_bond_site_symmetry_2
Cd1 N1 1_555 1_555
N1 C5 1_555 1_555
N2 Cd1 1_555 1_555
N3 C1 1_555 1_555
N4 Cd1 1_555 1_555
N5 N4 1_555 1_555
N6 N8 1_555 1_555
N7 Cd1 1_555 1_555
N8 N7 1_555 1_555
N9 N5 1_555 1_555
C1 H1 1_555 1_555
C2 C6 1_555 1_555
C3 H2 1_555 1_555
C4 C3 1_555 1_555
H3 C4 1_555 1_555
C5 C6 1_555 1_555
C6 N2 1_555 1_555
C7 N1 1_555 1_555
H4 C7 1_555 1_555
C8 C5 1_555 1_555
H5 C8 1_555 1_555
C9 N3 1_555 1_555
C10 C7 1_555 1_555
H6 C10 1_555 1_555
C11 C1 1_555 1_555
H7 C11 1_555 1_555
C12 C8 1_555 1_555
H8 C12 1_555 1_555
N1A C5A 1_555 1_555
N2A C2 1_555 1_555
N3A Cd1 1_555 1_555
C1A N3A 1_555 1_555
H1A C1A 1_555 1_555
C2A N2 1_555 1_555
C3A H2A 1_555 1_555
C4A C3A 1_555 1_555
H3A C4A 1_555 1_555
C5A C6A 1_555 1_555
C6A N2A 1_555 1_555
C7A N1A 1_555 1_555
H4A C7A 1_555 1_555
C8A C5A 1_555 1_555
H5A C8A 1_555 1_555
C9A N3A 1_555 1_555
C10A C7A 1_555 1_555
H6A C10A 1_555 1_555
C11A C1A 1_555 1_555
H7A C11A 1_555 1_555
C12A C8A 1_555 1_555
H8A C12A 1_555 1_555
Cd1A N3 1_555 1_555
N4A Cd1A 1_555 1_555
N5A N4A 1_555 1_555
N6A N8A 1_555 1_555
N7A Cd1A 1_555 1_555
N8A N7A 1_555 1_555
N9A N5A 1_555 1_555
Cd1_2 N9A 1_555 1_555
Cd1_3 N7A 1_555 1_555
Cd1A_2 N7 1_555 1_555
Cd1A_3 N9 1_555 1_555
N7_2 Cd1A 1_555 1_555
N7A_2 Cd1 1_555 1_555
N9_2 Cd1A 1_555 1_555
N9A_2 Cd1 1_555 1_555
C2 C9 1_555 1_555
C3 C11 1_555 1_555
C4 C9 1_555 1_555
C10 C12 1_555 1_555
N1A Cd1A 1_555 1_555
N2A Cd1A 1_555 1_555
C2A C6A 1_555 1_555
C2A C9A 1_555 1_555
C3A C11A 1_555 1_555
C4A C9A 1_555 1_555
C10A C12A 1_555 1_555
Cd1_3 N7_2 1_555 1_555
Cd1A_2 N7A_2 1_555 1_555

#END
