
#######################################################################
#
#                 Cambridge Crystallographic Data Centre
#                                CCDC 
#
#######################################################################
#
# If this CIF has been generated from an entry in the Cambridge 
# Structural Database, then it will include bibliographic, chemical, 
# crystal, experimental, refinement or atomic coordinate data resulting 
# from the CCDC's data processing and validation procedures.
#
#######################################################################

data_GOSCEY
_symmetry_cell_setting           orthorhombic
_symmetry_space_group_name_H-M   'P n a 21'
_symmetry_Int_Tables_number      33
_space_group_name_Hall           'P 2c -2n'
loop_
_symmetry_equiv_pos_site_id
_symmetry_equiv_pos_as_xyz
1 x,y,z
2 -x,-y,1/2+z
3 1/2+x,1/2-y,z
4 1/2-x,1/2+y,1/2+z
_cell_length_a                   14.5064(2)
_cell_length_b                   7.64640(10)
_cell_length_c                   14.0872(2)
_cell_angle_alpha                90
_cell_angle_beta                 90
_cell_angle_gamma                90
_cell_volume                     1562.58
loop_
_atom_site_label
_atom_site_type_symbol
_atom_site_fract_x
_atom_site_fract_y
_atom_site_fract_z
Zn1 Zn 0.520133(5) 0.861418(9) 0.888041(7)
S1 S 0.432645(13) 0.87877(3) 0.752441(14)
S2 S 0.287513(13) 0.93818(3) 0.905335(14)
N1 N 0.65337(5) 0.92308(9) 0.85294(5)
H1 H 0.6853(9) 0.8251(17) 0.8607(10)
H2 H 0.6708(8) 0.9953(17) 0.8916(12)
N2 N 0.89884(5) 1.17757(11) 0.64694(6)
H3 H 0.8978(8) 1.2799(17) 0.6730(10)
H4 H 0.9385(11) 1.1208(17) 0.6836(12)
N3 N 0.52915(5) 0.62689(8) 0.95395(5)
H5 H 0.5597(12) 0.6410(18) 1.0109(13)
H6 H 0.5595(8) 0.5591(16) 0.9164(10)
N4 N 0.49134(5) 0.04547(8) 0.98902(5)
H7 H 0.5261(8) 0.0421(17) 1.0401(10)
H8 H 0.4327(9) 0.0180(17) 1.0107(10)
N5 N 0.29699(5) 0.90567(13) 0.54042(6)
N6 N 0.08681(5) 1.03234(12) 0.75127(6)
C1 C 0.67444(5) 0.99755(10) 0.75813(6)
H9 H 0.6327 1.0973 0.7455
H10 H 0.6633 0.9077 0.7089
C2 C 0.77422(5) 1.05956(10) 0.75199(6)
H11 H 0.7818 1.1639 0.7929
H12 H 0.8149 0.9666 0.7772
C3 C 0.80503(6) 1.10526(11) 0.65178(6)
H13 H 0.8021 0.9986 0.6121
H14 H 0.7614 1.1915 0.6247
C4 C 0.44065(5) 0.53946(10) 0.97626(7)
H15 H 0.4039 0.5300 0.9173
H16 H 0.4057 0.6135 1.0213
C5 C 0.45167(6) 0.35779(9) 1.01903(6)
H17 H 0.4928 0.3654 1.0750
H18 H 0.3908 0.3161 1.0412
C6 C 0.49111(6) 0.22542(10) 0.94962(6)
H19 H 0.4542 0.2272 0.8905
H20 H 0.5550 0.2594 0.9332
C7 C 0.32035(5) 0.92327(9) 0.78991(5)
C8 C 0.25510(5) 0.94520(9) 0.71637(5)
C9 C 0.27895(5) 0.92398(11) 0.61971(6)
C10 C 0.16258(5) 0.99294(11) 0.73667(5)
Zn1_2 Zn 0.520133(5) -0.138582(9) 0.888041(7)
N4_2 N 0.49134(5) 1.04547(8) 0.98902(5)
loop_
_geom_bond_atom_site_label_1
_geom_bond_atom_site_label_2
_geom_bond_site_symmetry_1
_geom_bond_site_symmetry_2
Zn1 S1 1_555 1_555
S1 C7 1_555 1_555
S2 C7 1_555 1_555
N1 Zn1 1_555 1_555
H1 N1 1_555 1_555
H2 N1 1_555 1_555
N2 H3 1_555 1_555
H4 N2 1_555 1_555
N3 Zn1 1_555 1_555
H5 N3 1_555 1_555
H6 N3 1_555 1_555
N4 H7 1_555 1_555
H8 N4 1_555 1_555
N5 C9 1_555 1_555
N6 C10 1_555 1_555
C1 N1 1_555 1_555
H9 C1 1_555 1_555
H10 C1 1_555 1_555
C2 C1 1_555 1_555
H11 C2 1_555 1_555
H12 C2 1_555 1_555
C3 N2 1_555 1_555
H13 C3 1_555 1_555
H14 C3 1_555 1_555
C4 N3 1_555 1_555
H15 C4 1_555 1_555
H16 C4 1_555 1_555
C5 C4 1_555 1_555
H17 C5 1_555 1_555
H18 C5 1_555 1_555
C6 N4 1_555 1_555
H19 C6 1_555 1_555
H20 C6 1_555 1_555
C7 C8 1_555 1_555
C8 C9 1_555 1_555
C10 C8 1_555 1_555
Zn1_2 N4 1_555 1_555
N4_2 Zn1 1_555 1_555
C2 C3 1_555 1_555
C5 C6 1_555 1_555

#END
