
#######################################################################
#
#                 Cambridge Crystallographic Data Centre
#                                CCDC 
#
#######################################################################
#
# If this CIF has been generated from an entry in the Cambridge 
# Structural Database, then it will include bibliographic, chemical, 
# crystal, experimental, refinement or atomic coordinate data resulting 
# from the CCDC's data processing and validation procedures.
#
#######################################################################

data_GOSFUP
_symmetry_cell_setting           orthorhombic
_symmetry_space_group_name_H-M   'P n a 21'
_symmetry_Int_Tables_number      33
_space_group_name_Hall           'P 2c -2n'
loop_
_symmetry_equiv_pos_site_id
_symmetry_equiv_pos_as_xyz
1 x,y,z
2 -x,-y,1/2+z
3 1/2+x,1/2-y,z
4 1/2-x,1/2+y,1/2+z
_cell_length_a                   18.6778(5)
_cell_length_b                   5.1046(2)
_cell_length_c                   16.6257(2)
_cell_angle_alpha                90
_cell_angle_beta                 90
_cell_angle_gamma                90
_cell_volume                     1585.14
loop_
_atom_site_label
_atom_site_type_symbol
_atom_site_fract_x
_atom_site_fract_y
_atom_site_fract_z
Cu1 Cu -0.21033(8) -0.2846(3) 0.06491(9)
Cu2 Cu -0.43025(7) -0.3491(2) 0.02601(8)
Cu3 Cu -0.33727(8) 0.0826(3) 0.10997(9)
Cl1 Cl -0.31480(13) -0.5715(5) 0.0288(2)
Cl2 Cl -0.24098(14) -0.0859(6) 0.1791(2)
Cl3 Cl -0.43885(15) -0.1155(5) 0.1499(2)
N1 N -0.1611(5) -0.1600(17) -0.0406(5)
N2 N -0.1241(4) -0.5414(16) 0.0574(5)
N3 N -0.0066(4) -0.8714(15) 0.0338(5)
N4 N 0.0784(4) -0.4078(17) -0.0664(5)
C1 C -0.1875(6) 0.0237(20) -0.0905(7)
H1 H -0.2225(6) 0.1374(20) -0.0713(7)
C2 C -0.1648(6) 0.0503(23) -0.1692(7)
H2 H -0.1827(6) 0.1835(23) -0.2016(7)
C3 C -0.1153(6) -0.1236(20) -0.1986(7)
H3 H -0.1002(6) -0.1125(20) -0.2518(7)
C4 C -0.0878(6) -0.3158(22) -0.1486(6)
H4 H -0.0553(6) -0.4378(22) -0.1685(6)
C5 C -0.1089(5) -0.3254(20) -0.0688(6)
C6 C -0.0820(6) -0.5150(21) -0.0079(6)
C7 C -0.0198(5) -0.6681(19) -0.0160(6)
C8 C -0.0510(5) -0.8943(20) 0.0984(7)
H5 H -0.0431(5) -1.0268(20) 0.1357(7)
C9 C -0.1077(6) -0.7241(21) 0.1094(7)
H6 H -0.1353(6) -0.7399(21) 0.1557(7)
C10 C 0.0384(5) -0.6252(20) -0.0774(6)
C11 C 0.0477(6) -0.7932(21) -0.1409(6)
H7 H 0.0175(6) -0.9366(21) -0.1472(6)
C12 C 0.1019(5) -0.7491(21) -0.1956(6)
H8 H 0.1093(5) -0.8629(21) -0.2385(6)
C13 C 0.1455(5) -0.5291(23) -0.1849(7)
H9 H 0.1825(5) -0.4929(23) -0.2206(7)
C14 C 0.1320(5) -0.3649(20) -0.1193(6)
H10 H 0.1613(5) -0.2196(20) -0.1117(6)
N3B N -0.5066(4) -0.6286(15) 0.0338(5)
Cl1_2 Cl -0.31480(13) 0.4285(5) 0.0288(2)
Cu2B Cu 0.06975(7) -0.1509(2) 0.02601(8)
Cu2B_2 Cu 0.06975(7) -1.1509(2) 0.02601(8)
N4B N -0.4216(4) -0.0922(17) -0.0664(5)
Cu3_2 Cu -0.33727(8) -0.9174(3) 0.10997(9)
loop_
_geom_bond_atom_site_label_1
_geom_bond_atom_site_label_2
_geom_bond_site_symmetry_1
_geom_bond_site_symmetry_2
Cu1 Cl1 1_555 1_555
Cu2 Cl1 1_555 1_555
Cu3 Cl2 1_555 1_555
Cl1 Cu3_2 1_555 1_555
Cl2 Cu1 1_555 1_555
Cl3 Cu2 1_555 1_555
N1 Cu1 1_555 1_555
N2 Cu1 1_555 1_555
N3 C7 1_555 1_555
N4 C10 1_555 1_555
C1 N1 1_555 1_555
H1 C1 1_555 1_555
C2 C1 1_555 1_555
H2 C2 1_555 1_555
C3 C2 1_555 1_555
H3 C3 1_555 1_555
C4 C3 1_555 1_555
H4 C4 1_555 1_555
C5 N1 1_555 1_555
C6 N2 1_555 1_555
C7 C6 1_555 1_555
C8 N3 1_555 1_555
H5 C8 1_555 1_555
C9 N2 1_555 1_555
H6 C9 1_555 1_555
C10 C7 1_555 1_555
C11 C10 1_555 1_555
H7 C11 1_555 1_555
C12 C11 1_555 1_555
H8 C12 1_555 1_555
C13 C12 1_555 1_555
H9 C13 1_555 1_555
C14 N4 1_555 1_555
H10 C14 1_555 1_555
N3B Cu2 1_555 1_555
Cl1_2 Cu3 1_555 1_555
Cu2B N4 1_555 1_555
Cu2B_2 N3 1_555 1_555
N4B Cu2 1_555 1_555
Cu3 Cl3 1_555 1_555
C4 C5 1_555 1_555
C5 C6 1_555 1_555
C8 C9 1_555 1_555
C13 C14 1_555 1_555

#END
