
#######################################################################
#
#                 Cambridge Crystallographic Data Centre
#                                CCDC 
#
#######################################################################
#
# If this CIF has been generated from an entry in the Cambridge 
# Structural Database, then it will include bibliographic, chemical, 
# crystal, experimental, refinement or atomic coordinate data resulting 
# from the CCDC's data processing and validation procedures.
#
#######################################################################

data_GOSGIE
_symmetry_cell_setting           monoclinic
_symmetry_space_group_name_H-M   'P 21/n'
_symmetry_Int_Tables_number      14
_space_group_name_Hall           '-P 2yn'
loop_
_symmetry_equiv_pos_site_id
_symmetry_equiv_pos_as_xyz
1 x,y,z
2 1/2+x,1/2-y,1/2+z
3 -x,-y,-z
4 1/2-x,1/2+y,1/2-z
_cell_length_a                   12.8549(2)
_cell_length_b                   9.08750(10)
_cell_length_c                   16.0023(2)
_cell_angle_alpha                90
_cell_angle_beta                 110.4760(10)
_cell_angle_gamma                90
_cell_volume                     1751.26
loop_
_atom_site_label
_atom_site_type_symbol
_atom_site_fract_x
_atom_site_fract_y
_atom_site_fract_z
Cu1 Cu -0.23396(4) 0.01692(5) 0.10992(3)
Cu2 Cu 0.10502(3) 0.20278(5) 0.08240(3)
Cu3 Cu 0.39355(3) -0.15673(5) 0.06977(3)
N1 N 0.0590(2) 0.2834(3) -0.04805(18)
N2 N 0.1855(2) 0.4143(3) 0.10257(18)
N3 N 0.3368(2) 0.6349(3) 0.10628(19)
N4 N 0.3837(2) 0.7085(3) -0.03886(19)
C1 C -0.3598(3) -0.0750(4) 0.1162(2)
N5 N -0.1016(2) 0.1062(3) 0.1192(2)
C2 C -0.0205(3) 0.1505(4) 0.1115(2)
N6 N 0.2325(2) 0.0724(3) 0.0966(2)
C3 C 0.2928(3) -0.0129(4) 0.0855(2)
N7 N -0.4455(2) -0.1199(3) 0.1136(2)
C4 C -0.0258(3) 0.2351(4) -0.1191(2)
C5 C -0.0584(3) 0.3055(4) -0.2004(2)
C6 C -0.0024(3) 0.4312(4) -0.2102(2)
C7 C 0.0842(3) 0.4826(4) -0.1373(2)
C8 C 0.1132(3) 0.4061(4) -0.0573(2)
C9 C 0.1992(3) 0.4595(4) 0.0263(2)
C10 C 0.2449(3) 0.4812(4) 0.1786(2)
C11 C 0.3133(3) 0.6006(4) 0.1785(2)
C12 C 0.2856(3) 0.5573(3) 0.0308(2)
C13 C 0.3356(3) 0.5766(4) -0.0390(2)
C14 C 0.3434(3) 0.4607(4) -0.0931(2)
C15 C 0.3997(3) 0.4806(4) -0.1517(2)
C16 C 0.4486(3) 0.6166(4) -0.1524(3)
C17 C 0.4402(3) 0.7268(4) -0.0952(3)
H1 H -0.059(3) 0.152(4) -0.111(2)
H2 H -0.121(4) 0.279(5) -0.252(3)
H3 H -0.026(3) 0.478(4) -0.264(2)
H4 H 0.119(3) 0.567(4) -0.141(2)
H5 H 0.236(3) 0.450(4) 0.235(2)
H6 H 0.345(3) 0.660(4) 0.227(3)
H7 H 0.317(3) 0.377(4) -0.088(2)
H8 H 0.404(3) 0.406(4) -0.188(2)
H9 H 0.489(3) 0.634(4) -0.188(3)
H10 H 0.481(3) 0.828(4) -0.091(2)
Cu3_2 Cu -0.60645(3) -0.15673(5) 0.06977(3)
N7_2 N 0.5545(2) -0.1199(3) 0.1136(2)
N3_2 N 0.3368(2) -0.3651(3) 0.10628(19)
Cu3_3 Cu 0.39355(3) 0.84327(5) 0.06977(3)
N4_2 N 0.3837(2) -0.2915(3) -0.03886(19)
loop_
_geom_bond_atom_site_label_1
_geom_bond_atom_site_label_2
_geom_bond_site_symmetry_1
_geom_bond_site_symmetry_2
Cu1 C1 1_555 1_555
Cu2 N1 1_555 1_555
Cu3 C3 1_555 1_555
N1 C4 1_555 1_555
N2 Cu2 1_555 1_555
N3 C11 1_555 1_555
N4 C13 1_555 1_555
C1 N7 1_555 1_555
N5 Cu1 1_555 1_555
C2 Cu2 1_555 1_555
N6 Cu2 1_555 1_555
C3 N6 1_555 1_555
N7 Cu3_2 1_555 1_555
C4 C5 1_555 1_555
C5 C6 1_555 1_555
C6 C7 1_555 1_555
C7 C8 1_555 1_555
C8 N1 1_555 1_555
C9 N2 1_555 1_555
C10 N2 1_555 1_555
C11 C10 1_555 1_555
C12 N3 1_555 1_555
C13 C12 1_555 1_555
C14 C13 1_555 1_555
C15 C14 1_555 1_555
C16 C15 1_555 1_555
C17 N4 1_555 1_555
H1 C4 1_555 1_555
H2 C5 1_555 1_555
H3 C6 1_555 1_555
H4 C7 1_555 1_555
H5 C10 1_555 1_555
H6 C11 1_555 1_555
H7 C14 1_555 1_555
H8 C15 1_555 1_555
H9 C16 1_555 1_555
H10 C17 1_555 1_555
N7_2 Cu3 1_555 1_555
N3_2 Cu3 1_555 1_555
Cu3_3 N3 1_555 1_555
N4_2 Cu3 1_555 1_555
N4 Cu3_3 1_555 1_555
N5 C2 1_555 1_555
C8 C9 1_555 1_555
C9 C12 1_555 1_555
C16 C17 1_555 1_555

#END
