
#######################################################################
#
#                 Cambridge Crystallographic Data Centre
#                                CCDC 
#
#######################################################################
#
# If this CIF has been generated from an entry in the Cambridge 
# Structural Database, then it will include bibliographic, chemical, 
# crystal, experimental, refinement or atomic coordinate data resulting 
# from the CCDC's data processing and validation procedures.
#
#######################################################################

data_GOSMAE
_symmetry_cell_setting           triclinic
_symmetry_space_group_name_H-M   'P -1'
_symmetry_Int_Tables_number      2
_space_group_name_Hall           '-P 1'
loop_
_symmetry_equiv_pos_site_id
_symmetry_equiv_pos_as_xyz
1 x,y,z
2 -x,-y,-z
_cell_length_a                   8.1876(4)
_cell_length_b                   8.2228(4)
_cell_length_c                   11.8147(6)
_cell_angle_alpha                109.876(2)
_cell_angle_beta                 91.188(2)
_cell_angle_gamma                98.745(2)
_cell_volume                     737.098
loop_
_atom_site_label
_atom_site_type_symbol
_atom_site_fract_x
_atom_site_fract_y
_atom_site_fract_z
Zn1 Zn 0.300513(18) -0.015898(18) 0.518546(13)
N1 N 0.52549(13) 0.17338(14) 0.57966(9)
N2 N 0.55548(13) 0.28867(14) 0.67643(10)
N3 N 0.58483(15) 0.39988(15) 0.76889(11)
N4 N 0.15504(14) 0.17572(15) 0.63434(10)
N5 N 0.03021(14) 0.20321(13) 0.59937(9)
N6 N -0.09422(14) 0.23473(14) 0.56620(10)
N7 N 0.31240(14) -0.11105(14) 0.66429(10)
N8 N 0.33996(16) -0.27997(15) 0.96080(10)
N9 N 0.32716(14) -0.44038(15) 0.94459(9)
N10 N 0.31612(15) -0.57720(15) 0.94629(10)
N11 N 0.24895(14) 0.08271(14) 0.37644(10)
N12 N 0.07567(15) 0.24958(15) 0.10529(10)
N13 N 0.06130(14) 0.40662(15) 0.13001(10)
N14 N 0.03974(15) 0.54184(16) 0.13761(11)
C1 C 0.33239(17) -0.00051(17) 0.77927(12)
H1 H 0.3406 0.1190 0.7937
C2 C 0.34136(18) -0.05514(17) 0.87688(12)
H2 H 0.3549 0.0258 0.9551
C3 C 0.32975(16) -0.23340(17) 0.85644(12)
C4 C 0.30755(17) -0.35072(17) 0.73814(12)
H3 H 0.2980 -0.4709 0.7214
C5 C 0.30010(18) -0.28279(17) 0.64599(12)
H4 H 0.2857 -0.3609 0.5668
C6 C 0.23811(17) 0.25246(17) 0.40147(12)
H5 H 0.2704 0.3298 0.4795
C7 C 0.18181(17) 0.31898(17) 0.31804(12)
H6 H 0.1746 0.4373 0.3393
C8 C 0.13626(16) 0.20271(17) 0.20100(11)
C9 C 0.14918(17) 0.02739(17) 0.17271(12)
H7 H 0.1204 -0.0522 0.0948
C10 C 0.20565(17) -0.02607(17) 0.26271(12)
H8 H 0.2142 -0.1438 0.2436
Zn1A Zn -0.300513(18) 0.015898(18) 0.481454(13)
Zn1A_2 Zn 0.699487(18) 0.015898(18) 0.481454(13)
N1A N 0.47451(13) -0.17338(14) 0.42034(9)
N6A N 0.09422(14) -0.23473(14) 0.43380(10)
loop_
_geom_bond_atom_site_label_1
_geom_bond_atom_site_label_2
_geom_bond_site_symmetry_1
_geom_bond_site_symmetry_2
Zn1 N1 1_555 1_555
N1 N2 1_555 1_555
N2 N3 1_555 1_555
N4 Zn1 1_555 1_555
N5 N4 1_555 1_555
N6 N5 1_555 1_555
N7 Zn1 1_555 1_555
N8 N9 1_555 1_555
N9 N10 1_555 1_555
N11 Zn1 1_555 1_555
N12 N13 1_555 1_555
N13 N14 1_555 1_555
C1 N7 1_555 1_555
H1 C1 1_555 1_555
C2 C1 1_555 1_555
H2 C2 1_555 1_555
C3 N8 1_555 1_555
C4 C3 1_555 1_555
H3 C4 1_555 1_555
C5 N7 1_555 1_555
H4 C5 1_555 1_555
C6 N11 1_555 1_555
H5 C6 1_555 1_555
C7 C6 1_555 1_555
H6 C7 1_555 1_555
C8 N12 1_555 1_555
C9 C8 1_555 1_555
H7 C9 1_555 1_555
C10 N11 1_555 1_555
H8 C10 1_555 1_555
Zn1A N6 1_555 1_555
Zn1A_2 N1 1_555 1_555
N1A Zn1 1_555 1_555
N6A Zn1 1_555 1_555
C2 C3 1_555 1_555
C4 C5 1_555 1_555
C7 C8 1_555 1_555
C9 C10 1_555 1_555
Zn1A_2 N1A 1_555 1_555

#END
