
#######################################################################
#
#                 Cambridge Crystallographic Data Centre
#                                CCDC 
#
#######################################################################
#
# If this CIF has been generated from an entry in the Cambridge 
# Structural Database, then it will include bibliographic, chemical, 
# crystal, experimental, refinement or atomic coordinate data resulting 
# from the CCDC's data processing and validation procedures.
#
#######################################################################

data_GOSSEM01
_symmetry_cell_setting           monoclinic
_symmetry_space_group_name_H-M   'P 21/n'
_symmetry_Int_Tables_number      14
_space_group_name_Hall           '-P 2yn'
loop_
_symmetry_equiv_pos_site_id
_symmetry_equiv_pos_as_xyz
1 x,y,z
2 1/2-x,1/2+y,1/2-z
3 -x,-y,-z
4 1/2+x,1/2-y,1/2+z
_cell_length_a                   11.3602(6)
_cell_length_b                   22.771(1)
_cell_length_c                   15.8580(9)
_cell_angle_alpha                90
_cell_angle_beta                 93.956(1)
_cell_angle_gamma                90
_cell_volume                     4092.42
loop_
_atom_site_label
_atom_site_type_symbol
_atom_site_fract_x
_atom_site_fract_y
_atom_site_fract_z
Ni1 Ni 0.243075 0.237795 0.254245
O1 O 0.212350 0.244350 0.123250
O2 O 0.249750 0.280500 0.005000
O3 O 0.347150 0.207950 0.049950
O4 O 0.244250 0.229250 0.386050
O5 O 0.195550 0.267600 0.502200
O6 O 0.374450 0.267200 0.474100
N1 N 0.243100 0.331350 0.258000
N2 N 0.255700 0.643750 0.248400
N3 N 0.428700 0.240800 0.256050
N4 N 1.054500 0.239950 0.253550
N5 N 0.268250 0.245350 0.057150
N6 N 0.265050 0.253650 0.454550
C1 C 0.308600 0.362500 0.315750
C2 C 0.312450 0.422850 0.317250
C3 C 0.246900 0.454800 0.255600
C4 C 0.178950 0.422750 0.196150
C5 C 0.178750 0.362200 0.199750
C6 C 0.249900 0.519950 0.253900
C7 C 0.264550 0.553350 0.326700
C8 C 0.266000 0.614050 0.321700
C9 C 0.238350 0.550600 0.178100
C10 C 0.242650 0.610950 0.177800
C11 C 0.483150 0.269550 0.196050
C12 C 0.604250 0.271800 0.192750
C13 C 0.675900 0.244850 0.255350
C14 C 0.619550 0.216750 0.319200
C15 C 0.498200 0.215050 0.316600
C16 C 0.806600 0.244600 0.255450
C17 C 0.861450 0.226500 0.184250
C18 C 0.983400 0.224500 0.186350
C19 C 0.878950 0.261000 0.325700
C20 C 1.000650 0.258550 0.321700
N1A N 0.256900 -0.168650 0.242000
N2A N 0.244300 0.143750 0.251600
C1A C 0.191400 -0.137500 0.184250
C2A C 0.187550 -0.077150 0.182750
C3A C 0.253100 -0.045200 0.244400
C4A C 0.321050 -0.077250 0.303850
C5A C 0.321250 -0.137800 0.300250
C6A C 0.250100 0.019950 0.246100
C7A C 0.235450 0.053350 0.173300
C8A C 0.234000 0.114050 0.178300
C9A C 0.261650 0.050600 0.321900
C10A C 0.257350 0.110950 0.322200
N4_2 N 0.054500 0.239950 0.253550
Ni1A Ni 0.256925 -0.262205 0.245755
Ni1A_2 Ni 0.256925 0.737795 0.245755
Ni1_2 Ni 1.243075 0.237795 0.254245
O1A O 0.287650 0.744350 0.376750
O4A O 0.255750 0.729250 0.113950
N1A_2 N 0.256900 0.831350 0.242000
N3A N 0.071300 0.740800 0.243950
N4A N 0.445500 0.739950 0.246450
N5A N 0.231750 0.745350 0.442850
N6A N 0.234950 0.753650 0.045450
C1A_2 C 0.191400 0.862500 0.184250
C5A_2 C 0.321250 0.862200 0.300250
O2A O 0.250250 0.780500 0.495000
O3A O 0.152850 0.707950 0.450050
O5A O 0.304450 0.767600 -0.002200
O6A O 0.125550 0.767200 0.025900
C2A_2 C 0.187550 0.922850 0.182750
C4A_2 C 0.321050 0.922750 0.303850
C3A_2 C 0.253100 0.954800 0.244400
C6A_2 C 0.250100 1.019950 0.246100
C7A_2 C 0.235450 1.053350 0.173300
C9A_2 C 0.261650 1.050600 0.321900
C8A_2 C 0.234000 1.114050 0.178300
C10A_2 C 0.257350 1.110950 0.322200
N2A_2 N 0.244300 1.143750 0.251600
Ni1_3 Ni 0.243075 1.237795 0.254245
C21 C 0.372250 0.512400 0.566700
C22 C 0.340150 0.452300 0.581500
C23 C 0.399550 0.408000 0.549400
C24 C 0.499450 0.417400 0.499600
C25 C 0.564450 0.371650 0.465900
C26 C 0.656450 0.384500 0.417150
C27 C 0.312200 0.558600 0.599100
C28 C 0.468450 0.523800 0.516700
C27B C 0.687800 0.441400 0.400900
C21B C 0.627750 0.487600 0.433300
C22B C 0.659850 0.547700 0.418500
C23B C 0.600450 0.592000 0.450600
C24B C 0.500550 0.582600 0.500400
C25B C 0.435550 0.628350 0.534100
C26B C 0.343550 0.615500 0.582850
C28B C 0.531550 0.476200 0.483300
C29 C 0.534400 0.512300 0.192650
C30 C 0.549800 0.572300 0.194450
C31 C 0.544100 0.604250 0.120550
C32 C 0.523850 0.576450 0.041950
C33 C 0.520900 0.607900 -0.037200
C34 C 0.504500 0.579750 -0.111500
C35 C 0.512500 0.482350 0.116700
C36 C 0.508450 0.515000 0.039400
C35B C 0.487500 0.517650 -0.116700
C29B C 0.465600 0.487700 -0.192650
C30B C 0.450200 0.427700 -0.194450
C31B C 0.455900 0.395750 -0.120550
C32B C 0.476150 0.423550 -0.041950
C33B C 0.479100 0.392100 0.037200
C34B C 0.495500 0.420250 0.111500
C36B C 0.491550 0.485000 -0.039400
C37 C 0.175450 0.578950 -0.084850
C38 C 0.120850 0.631050 -0.066550
C39 C 0.019550 0.632150 -0.023600
C40 C -0.030100 0.581050 0.003400
C41 C -0.136750 0.580050 0.047100
C42 C -0.180700 0.529850 0.073650
C43 C 0.129200 0.525550 -0.058700
C44 C 0.025150 0.526400 -0.013850
C43B C -0.129200 0.474450 0.058700
C37B C -0.175450 0.421050 0.084850
C38B C -0.120850 0.368950 0.066550
C39B C -0.019550 0.367850 0.023600
C40B C 0.030100 0.418950 -0.003400
C41B C 0.136750 0.419950 -0.047100
C42B C 0.180700 0.470150 -0.073650
C44B C -0.025150 0.473600 0.013850
C45 C 0.036950 0.491450 0.692950
C46 C 0.050750 0.431500 0.697200
C47 C 0.042500 0.397550 0.623700
C48 C 0.022650 0.423850 0.545350
C49 C 0.017500 0.391050 0.467350
C50 C 0.001050 0.417700 0.391650
C51 C 0.014500 0.520150 0.616000
C52 C 0.009000 0.485900 0.540050
C51B C -0.014500 0.479850 0.384000
C45B C -0.036950 0.508550 0.307050
C46B C -0.050750 0.568500 0.302800
C47B C -0.042500 0.602450 0.376300
C48B C -0.022650 0.576150 0.454650
C49B C -0.017500 0.608950 0.532650
C50B C -0.001050 0.582300 0.608350
C52B C -0.009000 0.514100 0.459950
loop_
_geom_bond_atom_site_label_1
_geom_bond_atom_site_label_2
_geom_bond_site_symmetry_1
_geom_bond_site_symmetry_2
Ni1 O1 1_555 1_555
O1 N5 1_555 1_555
O2 N5 1_555 1_555
O3 N5 1_555 1_555
O4 Ni1 1_555 1_555
O5 N6 1_555 1_555
O6 N6 1_555 1_555
N1 Ni1 1_555 1_555
N2 C8 1_555 1_555
N3 Ni1 1_555 1_555
N4 C18 1_555 1_555
N6 O4 1_555 1_555
C1 N1 1_555 1_555
C2 C1 1_555 1_555
C3 C2 1_555 1_555
C4 C3 1_555 1_555
C5 N1 1_555 1_555
C6 C3 1_555 1_555
C7 C6 1_555 1_555
C8 C7 1_555 1_555
C9 C6 1_555 1_555
C10 N2 1_555 1_555
C11 N3 1_555 1_555
C12 C11 1_555 1_555
C13 C12 1_555 1_555
C14 C13 1_555 1_555
C15 N3 1_555 1_555
C16 C13 1_555 1_555
C17 C16 1_555 1_555
C18 C17 1_555 1_555
C19 C16 1_555 1_555
C20 N4 1_555 1_555
C21 C22 1_555 1_555
C22 C23 1_555 1_555
C23 C24 1_555 1_555
C24 C25 1_555 1_555
C25 C26 1_555 1_555
C26 C27B 1_555 1_555
C27 C21 1_555 1_555
C28 C21 1_555 1_555
C29 C30 1_555 1_555
C30 C31 1_555 1_555
C31 C32 1_555 1_555
C32 C33 1_555 1_555
C33 C34 1_555 1_555
C34 C35B 1_555 1_555
C35 C29 1_555 1_555
C36 C32 1_555 1_555
C37 C38 1_555 1_555
C38 C39 1_555 1_555
C39 C40 1_555 1_555
C40 C41 1_555 1_555
C41 C42 1_555 1_555
C42 C43B 1_555 1_555
C43 C37 1_555 1_555
C44 C40 1_555 1_555
C45 C46 1_555 1_555
C46 C47 1_555 1_555
C47 C48 1_555 1_555
C48 C49 1_555 1_555
C49 C50 1_555 1_555
C50 C51B 1_555 1_555
C51 C45 1_555 1_555
C52 C48 1_555 1_555
C27B C21B 1_555 1_555
C21B C22B 1_555 1_555
C22B C23B 1_555 1_555
C23B C24B 1_555 1_555
C24B C28 1_555 1_555
C25B C24B 1_555 1_555
C26B C27 1_555 1_555
C28B C24 1_555 1_555
C35B C29B 1_555 1_555
C29B C30B 1_555 1_555
C30B C31B 1_555 1_555
C31B C32B 1_555 1_555
C32B C33B 1_555 1_555
C33B C34B 1_555 1_555
C34B C35 1_555 1_555
C36B C36 1_555 1_555
C43B C37B 1_555 1_555
C37B C38B 1_555 1_555
C38B C39B 1_555 1_555
C39B C40B 1_555 1_555
C40B C41B 1_555 1_555
C41B C42B 1_555 1_555
C42B C43 1_555 1_555
C44B C44 1_555 1_555
C51B C45B 1_555 1_555
C45B C46B 1_555 1_555
C46B C47B 1_555 1_555
C47B C48B 1_555 1_555
C48B C49B 1_555 1_555
C49B C50B 1_555 1_555
C50B C51 1_555 1_555
C52B C52 1_555 1_555
N1A C1A 1_555 1_555
N2A Ni1 1_555 1_555
C1A C2A 1_555 1_555
C2A C3A 1_555 1_555
C3A C4A 1_555 1_555
C4A C5A 1_555 1_555
C5A N1A 1_555 1_555
C6A C3A 1_555 1_555
C7A C6A 1_555 1_555
C8A N2A 1_555 1_555
C9A C6A 1_555 1_555
C10A N2A 1_555 1_555
N4_2 Ni1 1_555 1_555
Ni1A N1A 1_555 1_555
Ni1A_2 N2 1_555 1_555
Ni1_2 N4 1_555 1_555
O1A Ni1A_2 1_555 1_555
O4A Ni1A_2 1_555 1_555
N1A_2 Ni1A_2 1_555 1_555
N3A Ni1A_2 1_555 1_555
N4A Ni1A_2 1_555 1_555
N5A O1A 1_555 1_555
N6A O4A 1_555 1_555
C1A_2 N1A_2 1_555 1_555
C5A_2 N1A_2 1_555 1_555
O2A N5A 1_555 1_555
O3A N5A 1_555 1_555
O5A N6A 1_555 1_555
O6A N6A 1_555 1_555
C2A_2 C1A_2 1_555 1_555
C4A_2 C5A_2 1_555 1_555
C3A_2 C2A_2 1_555 1_555
C6A_2 C3A_2 1_555 1_555
C7A_2 C6A_2 1_555 1_555
C9A_2 C6A_2 1_555 1_555
C8A_2 C7A_2 1_555 1_555
C10A_2 C9A_2 1_555 1_555
N2A_2 C8A_2 1_555 1_555
Ni1_3 N2A_2 1_555 1_555
C4 C5 1_555 1_555
C9 C10 1_555 1_555
C14 C15 1_555 1_555
C19 C20 1_555 1_555
C28 C28B 1_555 1_555
C35 C36 1_555 1_555
C43 C44 1_555 1_555
C51 C52 1_555 1_555
C21B C28B 1_555 1_555
C25B C26B 1_555 1_555
C35B C36B 1_555 1_555
C32B C36B 1_555 1_555
C43B C44B 1_555 1_555
C40B C44B 1_555 1_555
C51B C52B 1_555 1_555
C48B C52B 1_555 1_555
C7A C8A 1_555 1_555
C9A C10A 1_555 1_555
C4A_2 C3A_2 1_555 1_555
C10A_2 N2A_2 1_555 1_555

#END
