
#######################################################################
#
#                 Cambridge Crystallographic Data Centre
#                                CCDC 
#
#######################################################################
#
# If this CIF has been generated from an entry in the Cambridge 
# Structural Database, then it will include bibliographic, chemical, 
# crystal, experimental, refinement or atomic coordinate data resulting 
# from the CCDC's data processing and validation procedures.
#
#######################################################################

data_GOSXAP
_symmetry_cell_setting           monoclinic
_symmetry_space_group_name_H-M   'P 21/n'
_symmetry_Int_Tables_number      14
_space_group_name_Hall           '-P 2yn'
loop_
_symmetry_equiv_pos_site_id
_symmetry_equiv_pos_as_xyz
1 x,y,z
2 1/2-x,1/2+y,1/2-z
3 -x,-y,-z
4 1/2+x,1/2-y,1/2+z
_cell_length_a                   10.168(9)
_cell_length_b                   8.500(7)
_cell_length_c                   18.582(12)
_cell_angle_alpha                90
_cell_angle_beta                 100.88(5)
_cell_angle_gamma                90
_cell_volume                     1577.14
loop_
_atom_site_label
_atom_site_type_symbol
_atom_site_fract_x
_atom_site_fract_y
_atom_site_fract_z
Zn1 Zn 0.04376(3) 1.09675(4) 0.205952(18)
N1 N 0.2029(2) 1.1125(3) 0.15964(13)
N2 N -0.0474(2) 1.2415(3) 0.10821(13)
N3 N 0.4234(2) 0.7656(3) 0.20325(13)
C1 C 0.3230(3) 1.0364(4) 0.16359(16)
C2 C 0.3852(3) 1.0945(4) 0.10889(19)
H1 H 0.4695 1.0642 0.0999
C3 C 0.2996(3) 1.2070(4) 0.06935(18)
H2 H 0.3146 1.2648 0.0285
C4 C 0.1898(3) 1.2159(4) 0.10201(16)
C5 C 0.0692(3) 1.3197(4) 0.08636(18)
H3 H 0.0880 1.4187 0.1133
H4 H 0.0484 1.3441 0.0339
C6 C -0.1586(3) 1.3527(4) 0.11054(19)
H5 H -0.1729 1.4219 0.0676
H6 H -0.1400 1.4174 0.1550
C7 C -0.2788(3) 1.2485(4) 0.1105(2)
H7 H -0.3609 1.2999 0.0852
H8 H -0.2886 1.2235 0.1607
C8 C -0.2503(3) 1.0995(4) 0.0697(2)
H9 H -0.2527 1.0060 0.1002
H10 H -0.3162 1.0868 0.0242
C9 C -0.1109(3) 1.1243(4) 0.05336(18)
H11 H -0.0602 1.0256 0.0586
H12 H -0.1158 1.1644 0.0035
C10 C 0.3657(3) 0.9172(4) 0.22348(17)
H13 H 0.4321 0.9672 0.2617
H14 H 0.2875 0.8924 0.2453
C11 C 0.3342(3) 0.6858(4) 0.14081(19)
H15 H 0.2739 0.7620 0.1119
H16 H 0.2803 0.6045 0.1588
C12 C 0.4259(5) 0.6137(6) 0.0953(2)
H17 H 0.4493 0.5058 0.1114
H18 H 0.3829 0.6117 0.0435
C13 C 0.5453(5) 0.7128(6) 0.1062(3)
H19 H 0.5365 0.7944 0.0683
H20 H 0.6249 0.6495 0.1038
C14 C 0.5568(3) 0.7864(4) 0.18090(19)
H21 H 0.6274 0.7346 0.2161
H22 H 0.5787 0.8985 0.1789
C15 C -0.0554(4) 0.9086(4) 0.2303(2)
H23 H -0.0147 0.8746 0.2799
H24 H -0.1475 0.9407 0.2314
C16 C -0.0609(4) 0.7686(5) 0.1799(3)
H25 H -0.1006 0.7997 0.1304
H26 H -0.1146 0.6863 0.1962
H27 H 0.0291 0.7297 0.1809
Zn1A Zn 0.45624(3) 0.59675(4) 0.294048(18)
N3A N 0.0766(2) 1.2656(3) 0.29675(13)
loop_
_geom_bond_atom_site_label_1
_geom_bond_atom_site_label_2
_geom_bond_site_symmetry_1
_geom_bond_site_symmetry_2
Zn1 N1 1_555 1_555
N1 C1 1_555 1_555
N2 Zn1 1_555 1_555
N3 C10 1_555 1_555
C1 C2 1_555 1_555
C2 H1 1_555 1_555
C3 C2 1_555 1_555
H2 C3 1_555 1_555
C4 N1 1_555 1_555
C5 N2 1_555 1_555
H3 C5 1_555 1_555
H4 C5 1_555 1_555
C6 N2 1_555 1_555
H5 C6 1_555 1_555
H6 C6 1_555 1_555
C7 C6 1_555 1_555
H7 C7 1_555 1_555
H8 C7 1_555 1_555
C8 C7 1_555 1_555
H9 C8 1_555 1_555
H10 C8 1_555 1_555
C9 N2 1_555 1_555
H11 C9 1_555 1_555
H12 C9 1_555 1_555
C10 C1 1_555 1_555
H13 C10 1_555 1_555
H14 C10 1_555 1_555
C11 N3 1_555 1_555
H15 C11 1_555 1_555
H16 C11 1_555 1_555
C12 C11 1_555 1_555
H17 C12 1_555 1_555
H18 C12 1_555 1_555
C13 C12 1_555 1_555
H19 C13 1_555 1_555
H20 C13 1_555 1_555
C14 N3 1_555 1_555
H21 C14 1_555 1_555
H22 C14 1_555 1_555
C15 Zn1 1_555 1_555
H23 C15 1_555 1_555
H24 C15 1_555 1_555
C16 C15 1_555 1_555
H25 C16 1_555 1_555
H26 C16 1_555 1_555
H27 C16 1_555 1_555
Zn1A N3 1_555 1_555
N3A Zn1 1_555 1_555
C3 C4 1_555 1_555
C4 C5 1_555 1_555
C8 C9 1_555 1_555
C13 C14 1_555 1_555

#END
