
#######################################################################
#
#                 Cambridge Crystallographic Data Centre
#                                CCDC 
#
#######################################################################
#
# If this CIF has been generated from an entry in the Cambridge 
# Structural Database, then it will include bibliographic, chemical, 
# crystal, experimental, refinement or atomic coordinate data resulting 
# from the CCDC's data processing and validation procedures.
#
#######################################################################

data_GOTDIE
_symmetry_cell_setting           tetragonal
_symmetry_space_group_name_H-M   'I 41/a'
_symmetry_Int_Tables_number      88
_space_group_name_Hall           '-I 4ad'
loop_
_symmetry_equiv_pos_site_id
_symmetry_equiv_pos_as_xyz
1 x,y,z
2 1/2-x,-y,1/2+z
3 3/4-y,1/4+x,1/4+z
4 3/4+y,3/4-x,3/4+z
5 1/2+x,1/2+y,1/2+z
6 -x,1/2-y,z
7 1/4-y,3/4+x,3/4+z
8 1/4+y,1/4-x,1/4+z
9 -x,-y,-z
10 1/2+x,y,1/2-z
11 1/4+y,3/4-x,3/4-z
12 1/4-y,1/4+x,1/4-z
13 1/2-x,1/2-y,1/2-z
14 x,1/2+y,-z
15 3/4+y,1/4-x,1/4-z
16 3/4-y,3/4+x,3/4-z
_cell_length_a                   39.2197(9)
_cell_length_b                   39.2197(9)
_cell_length_c                   9.1561(3)
_cell_angle_alpha                90
_cell_angle_beta                 90
_cell_angle_gamma                90
_cell_volume                     14083.8
loop_
_atom_site_label
_atom_site_type_symbol
_atom_site_fract_x
_atom_site_fract_y
_atom_site_fract_z
C1 C 0.7666(7) 0.6092(11) 1.427(4)
H1 H 0.7463 0.6025 1.3832
C2 C 0.7743(7) 0.5975(9) 1.568(3)
H2 H 0.7587 0.5850 1.6226
C3 C 0.8033(7) 0.6048(8) 1.616(3)
H3 H 0.8109 0.5954 1.7035
C4 C 0.9578(7) 0.7092(7) 1.470(4)
H4 H 0.9786 0.7184 1.4427
C5 C 0.9130(7) 0.7069(7) 1.625(3)
H5 H 0.9022 0.7151 1.7076
Cl1 Cl 0.9769(3) 0.4954(2) 0.7617(11)
N1 N 0.7870(5) 0.6292(8) 1.357(3)
O1 O 0.9246(3) 0.5973(3) 1.5339(13)
C6 C 0.8237(6) 0.6266(7) 1.540(2)
H6 H 0.8447 0.6327 1.5796
C7 C 0.8148(4) 0.6396(5) 1.4102(18)
C8 C 0.8341(4) 0.6948(4) 1.3160(19)
C9 C 0.8592(4) 0.7103(4) 1.2217(15)
C10 C 0.8614(5) 0.7444(4) 1.185(2)
H7 H 0.8464 0.7603 1.2244
C11 C 0.8868(7) 0.7542(5) 1.088(2)
H8 H 0.8891 0.7769 1.0595
C12 C 0.9075(6) 0.7304(4) 1.037(2)
H9 H 0.9251 0.7369 0.9740
C13 C 0.9043(4) 0.6969(3) 1.0717(15)
C14 C 0.9256(4) 0.6686(3) 1.0276(16)
C15 C 0.9306(3) 0.6089(3) 1.0561(14)
C16 C 0.9230(4) 0.5847(4) 0.9553(16)
H10 H 0.9049 0.5884 0.8919
C17 C 0.9411(4) 0.5551(4) 0.944(2)
H11 H 0.9352 0.5394 0.8717
C18 C 0.9741(4) 0.5705(4) 1.1279(15)
H12 H 0.9919 0.5656 1.1915
C19 C 0.9569(3) 0.6017(3) 1.1430(17)
H13 H 0.9639 0.6173 1.2134
C20 C 0.9396(8) 0.7227(5) 1.581(3)
H14 H 0.9462 0.7430 1.6242
C21 C 0.8999(5) 0.6799(6) 1.561(2)
H15 H 0.8794 0.6708 1.5948
C22 C 0.9159(4) 0.6658(4) 1.4508(15)
C23 C 0.9061(4) 0.6061(4) 1.4338(16)
C24 C 0.8853(3) 0.5803(3) 1.3496(15)
C25 C 0.8820(4) 0.5465(3) 1.3841(17)
H16 H 0.8948 0.5368 1.4586
C26 C 0.8592(4) 0.5275(4) 1.306(2)
H17 H 0.8556 0.5048 1.3303
C27 C 0.8412(4) 0.5422(3) 1.1868(17)
H18 H 0.8265 0.5293 1.1292
C28 C 0.8463(3) 0.5766(3) 1.1603(14)
C29 C 0.8282(3) 0.5977(4) 1.0526(14)
C30 C 0.8211(3) 0.6559(3) 0.9755(12)
C31 C 0.7903(3) 0.6669(4) 1.0316(15)
H19 H 0.7810 0.6571 1.1152
C32 C 0.7740(3) 0.6930(4) 0.9582(17)
H20 H 0.7535 0.7009 0.9965
C33 C 0.8146(4) 0.6974(4) 0.7949(16)
H21 H 0.8237 0.7084 0.7139
C34 C 0.8340(3) 0.6714(4) 0.8580(13)
H22 H 0.8550 0.6652 0.8198
Cd1 Cd 1.0000 0.5000 1.0000
Co1 Co 0.87260(4) 0.64101(4) 1.20738(17)
N2 N 0.8359(3) 0.6593(3) 1.3278(11)
N3 N 0.8791(3) 0.6880(2) 1.1637(11)
N4 N 0.9111(2) 0.6383(2) 1.0737(12)
N5 N 0.9662(2) 0.5483(2) 1.0300(12)
N6 N 0.9442(5) 0.6806(4) 1.396(2)
N7 N 0.9024(3) 0.6374(3) 1.3780(12)
N8 N 0.8675(2) 0.5941(2) 1.2427(11)
N9 N 0.8400(2) 0.6300(2) 1.0521(10)
N10 N 0.7850(2) 0.7071(3) 0.8412(11)
O2 O 0.8046(3) 0.5861(2) 0.9770(10)
O3 O 0.8126(3) 0.7123(3) 1.3893(15)
O4 O 0.9510(3) 0.6720(3) 0.9518(12)
C1H C 1.2334(7) 0.3908(11) 0.573(4)
H1H H 1.2537 0.3975 0.6168
C2H C 1.2257(7) 0.4025(9) 0.432(3)
H2H H 1.2413 0.4150 0.3774
C3H C 1.1967(7) 0.3952(8) 0.384(3)
H3H H 1.1891 0.4046 0.2965
C4H C 1.0422(7) 0.2908(7) 0.530(4)
H4H H 1.0214 0.2816 0.5573
C5H C 1.0870(7) 0.2931(7) 0.375(3)
H5H H 1.0978 0.2849 0.2924
Cl1H Cl 1.0231(3) 0.5046(2) 1.2383(11)
N1H N 1.2130(5) 0.3708(8) 0.643(3)
O1H O 1.0754(3) 0.4027(3) 0.4661(13)
C6H C 1.1763(6) 0.3734(7) 0.460(2)
H6H H 1.1553 0.3673 0.4204
C7H C 1.1852(4) 0.3604(5) 0.5898(18)
C8H C 1.1659(4) 0.3052(4) 0.6840(19)
C9H C 1.1408(4) 0.2897(4) 0.7783(15)
C10H C 1.1386(5) 0.2556(4) 0.815(2)
H7H H 1.1536 0.2397 0.7756
C11H C 1.1132(7) 0.2458(5) 0.912(2)
H8H H 1.1109 0.2231 0.9405
C12H C 1.0925(6) 0.2696(4) 0.963(2)
H9H H 1.0749 0.2631 1.0260
C13H C 1.0957(4) 0.3031(3) 0.9283(15)
C14H C 1.0744(4) 0.3314(3) 0.9724(16)
C15H C 1.0694(3) 0.3911(3) 0.9439(14)
C16H C 1.0770(4) 0.4153(4) 1.0447(16)
H10H H 1.0951 0.4116 1.1081
C17H C 1.0589(4) 0.4449(4) 1.056(2)
H11H H 1.0648 0.4606 1.1283
C18H C 1.0259(4) 0.4295(4) 0.8721(15)
H12H H 1.0081 0.4344 0.8085
C19H C 1.0431(3) 0.3983(3) 0.8570(17)
H13H H 1.0361 0.3827 0.7866
C20H C 1.0604(8) 0.2773(5) 0.419(3)
H14H H 1.0538 0.2570 0.3758
C21H C 1.1001(5) 0.3201(6) 0.439(2)
H15H H 1.1206 0.3292 0.4052
C22H C 1.0841(4) 0.3342(4) 0.5492(15)
C23H C 1.0939(4) 0.3939(4) 0.5662(16)
C24H C 1.1147(3) 0.4197(3) 0.6504(15)
C25H C 1.1180(4) 0.4535(3) 0.6159(17)
H16H H 1.1052 0.4632 0.5414
C26H C 1.1408(4) 0.4725(4) 0.694(2)
H17H H 1.1444 0.4952 0.6697
C27H C 1.1588(4) 0.4578(3) 0.8132(17)
H18H H 1.1735 0.4707 0.8708
C28H C 1.1537(3) 0.4234(3) 0.8397(14)
C29H C 1.1718(3) 0.4023(4) 0.9474(14)
C30H C 1.1789(3) 0.3441(3) 1.0245(12)
C31H C 1.2097(3) 0.3331(4) 0.9684(15)
H19H H 1.2190 0.3429 0.8848
C32H C 1.2260(3) 0.3070(4) 1.0418(17)
H20H H 1.2465 0.2991 1.0035
C33H C 1.1854(4) 0.3026(4) 1.2051(16)
H21H H 1.1763 0.2916 1.2861
C34H C 1.1660(3) 0.3286(4) 1.1420(13)
H22H H 1.1450 0.3348 1.1802
Co1H Co 1.12740(4) 0.35899(4) 0.79262(17)
N2H N 1.1641(3) 0.3407(3) 0.6722(11)
N3H N 1.1209(3) 0.3120(2) 0.8363(11)
N4H N 1.0889(2) 0.3617(2) 0.9263(12)
N5H N 1.0338(2) 0.4517(2) 0.9700(12)
N6H N 1.0558(5) 0.3194(4) 0.604(2)
N7H N 1.0976(3) 0.3626(3) 0.6220(12)
N8H N 1.1325(2) 0.4059(2) 0.7573(11)
N9H N 1.1600(2) 0.3700(2) 0.9479(10)
N10H N 1.2150(2) 0.2929(3) 1.1588(11)
O2H O 1.1954(3) 0.4139(2) 1.0230(10)
O3H O 1.1874(3) 0.2877(3) 0.6107(15)
O4H O 1.0490(3) 0.3280(3) 1.0482(12)
Cd1B Cd 1.2500 0.2500 1.2500
Cd1F Cd 0.7500 0.7500 0.7500
N10G N 0.9571(3) 0.4650(2) 1.0912(11)
N10O N 1.0429(3) 0.5350(2) 0.9088(11)
O5 O 0.7863(3) 0.7823(4) 1.2280(19)
O6 O 0.7745(4) 0.4810(4) 1.194(2)
loop_
_geom_bond_atom_site_label_1
_geom_bond_atom_site_label_2
_geom_bond_site_symmetry_1
_geom_bond_site_symmetry_2
C1 H1 1_555 1_555
C2 C1 1_555 1_555
H2 C2 1_555 1_555
C3 C2 1_555 1_555
H3 C3 1_555 1_555
C4 H4 1_555 1_555
C5 H5 1_555 1_555
Cl1 Cd1 1_555 1_555
N1 C1 1_555 1_555
O1 C23 1_555 1_555
C6 C3 1_555 1_555
H6 C6 1_555 1_555
C7 N1 1_555 1_555
C8 C9 1_555 1_555
C9 C10 1_555 1_555
C10 H7 1_555 1_555
C11 C10 1_555 1_555
H8 C11 1_555 1_555
C12 C11 1_555 1_555
H9 C12 1_555 1_555
C13 C12 1_555 1_555
C14 C13 1_555 1_555
C15 C16 1_555 1_555
C16 H10 1_555 1_555
C17 C16 1_555 1_555
H11 C17 1_555 1_555
C18 H12 1_555 1_555
C19 C15 1_555 1_555
H13 C19 1_555 1_555
C20 C4 1_555 1_555
H14 C20 1_555 1_555
C21 C5 1_555 1_555
H15 C21 1_555 1_555
C22 C21 1_555 1_555
C23 C24 1_555 1_555
C24 C25 1_555 1_555
C25 H16 1_555 1_555
C26 C25 1_555 1_555
H17 C26 1_555 1_555
C27 C26 1_555 1_555
H18 C27 1_555 1_555
C28 C27 1_555 1_555
C29 C28 1_555 1_555
C30 C31 1_555 1_555
C31 H19 1_555 1_555
C32 C31 1_555 1_555
H20 C32 1_555 1_555
C33 H21 1_555 1_555
C34 C30 1_555 1_555
H22 C34 1_555 1_555
Cd1 N5 1_555 1_555
Co1 N2 1_555 1_555
N2 C7 1_555 1_555
N3 C9 1_555 1_555
N4 C14 1_555 1_555
N5 C17 1_555 1_555
N6 C4 1_555 1_555
N7 C22 1_555 1_555
N8 C24 1_555 1_555
N9 C29 1_555 1_555
N10 C32 1_555 1_555
O2 C29 1_555 1_555
O3 C8 1_555 1_555
O4 C14 1_555 1_555
C1H H1H 1_555 1_555
C2H C1H 1_555 1_555
H2H C2H 1_555 1_555
C3H C2H 1_555 1_555
H3H C3H 1_555 1_555
C4H H4H 1_555 1_555
C5H H5H 1_555 1_555
Cl1H Cd1 1_555 1_555
N1H C1H 1_555 1_555
O1H C23H 1_555 1_555
C6H C3H 1_555 1_555
H6H C6H 1_555 1_555
C7H N1H 1_555 1_555
C8H C9H 1_555 1_555
C9H C10H 1_555 1_555
C10H H7H 1_555 1_555
C11H C10H 1_555 1_555
H8H C11H 1_555 1_555
C12H C11H 1_555 1_555
H9H C12H 1_555 1_555
C13H C12H 1_555 1_555
C14H C13H 1_555 1_555
C15H C16H 1_555 1_555
C16H H10H 1_555 1_555
C17H C16H 1_555 1_555
H11H C17H 1_555 1_555
C18H H12H 1_555 1_555
C19H C15H 1_555 1_555
H13H C19H 1_555 1_555
C20H C4H 1_555 1_555
H14H C20H 1_555 1_555
C21H C5H 1_555 1_555
H15H C21H 1_555 1_555
C22H C21H 1_555 1_555
C23H C24H 1_555 1_555
C24H C25H 1_555 1_555
C25H H16H 1_555 1_555
C26H C25H 1_555 1_555
H17H C26H 1_555 1_555
C27H C26H 1_555 1_555
H18H C27H 1_555 1_555
C28H C27H 1_555 1_555
C29H C28H 1_555 1_555
C30H C31H 1_555 1_555
C31H H19H 1_555 1_555
C32H C31H 1_555 1_555
H20H C32H 1_555 1_555
C33H H21H 1_555 1_555
C34H C30H 1_555 1_555
H22H C34H 1_555 1_555
Co1H N2H 1_555 1_555
N2H C7H 1_555 1_555
N3H C9H 1_555 1_555
N4H C14H 1_555 1_555
N5H Cd1 1_555 1_555
N6H C4H 1_555 1_555
N7H C22H 1_555 1_555
N8H C24H 1_555 1_555
N9H C29H 1_555 1_555
N10H C32H 1_555 1_555
O2H C29H 1_555 1_555
O3H C8H 1_555 1_555
O4H C14H 1_555 1_555
Cd1B N10H 1_555 1_555
Cd1F N10 1_555 1_555
N10G Cd1 1_555 1_555
N10O Cd1 1_555 1_555
C5 C20 1_555 1_555
C6 C7 1_555 1_555
C8 N2 1_555 1_555
C13 N3 1_555 1_555
C15 N4 1_555 1_555
C18 C19 1_555 1_555
C18 N5 1_555 1_555
C22 N6 1_555 1_555
C23 N7 1_555 1_555
C28 N8 1_555 1_555
C30 N9 1_555 1_555
C33 C34 1_555 1_555
C33 N10 1_555 1_555
Co1 N3 1_555 1_555
Co1 N4 1_555 1_555
Co1 N7 1_555 1_555
Co1 N8 1_555 1_555
Co1 N9 1_555 1_555
C5H C20H 1_555 1_555
C6H C7H 1_555 1_555
C8H N2H 1_555 1_555
C13H N3H 1_555 1_555
C15H N4H 1_555 1_555
C17H N5H 1_555 1_555
C18H C19H 1_555 1_555
C18H N5H 1_555 1_555
C22H N6H 1_555 1_555
C23H N7H 1_555 1_555
C28H N8H 1_555 1_555
C30H N9H 1_555 1_555
C33H C34H 1_555 1_555
C33H N10H 1_555 1_555
Co1H N3H 1_555 1_555
Co1H N4H 1_555 1_555
Co1H N7H 1_555 1_555
Co1H N8H 1_555 1_555
Co1H N9H 1_555 1_555

#END
