
#######################################################################
#
#                 Cambridge Crystallographic Data Centre
#                                CCDC 
#
#######################################################################
#
# If this CIF has been generated from an entry in the Cambridge 
# Structural Database, then it will include bibliographic, chemical, 
# crystal, experimental, refinement or atomic coordinate data resulting 
# from the CCDC's data processing and validation procedures.
#
#######################################################################

data_GOTDOK
_symmetry_cell_setting           monoclinic
_symmetry_space_group_name_H-M   'P 21/c'
_symmetry_Int_Tables_number      14
_space_group_name_Hall           '-P 2ybc'
loop_
_symmetry_equiv_pos_site_id
_symmetry_equiv_pos_as_xyz
1 x,y,z
2 -x,1/2+y,1/2-z
3 -x,-y,-z
4 x,1/2-y,1/2+z
_cell_length_a                   10.089(5)
_cell_length_b                   21.465(5)
_cell_length_c                   18.275(5)
_cell_angle_alpha                90
_cell_angle_beta                 97.183(5)
_cell_angle_gamma                90
_cell_volume                     3926.58
loop_
_atom_site_label
_atom_site_type_symbol
_atom_site_fract_x
_atom_site_fract_y
_atom_site_fract_z
C1 C 0.5180(9) 0.4507(3) 0.1617(5)
H1 H 0.5069 0.4901 0.1814
C2 C 0.5808(9) 0.4470(4) 0.1000(5)
H2 H 0.6081 0.4827 0.0772
C3 C 0.6023(9) 0.3892(4) 0.0728(4)
H3 H 0.6466 0.3848 0.0314
C4 C 0.5574(9) 0.3372(4) 0.1074(4)
H4 H 0.5736 0.2974 0.0905
C5 C 0.4890(7) 0.3451(3) 0.1668(4)
C6 C 0.3129(8) 0.2751(3) 0.1862(4)
C7 C 0.2836(7) 0.2180(3) 0.2298(4)
C8 C 0.1651(8) 0.1859(4) 0.2259(5)
H5 H 0.0904 0.1997 0.1951
C9 C 0.1585(10) 0.1326(4) 0.2686(5)
H6 H 0.0789 0.1105 0.2669
C10 C 0.2704(9) 0.1129(4) 0.3132(5)
H7 H 0.2673 0.0776 0.3425
C11 C 0.3880(7) 0.1465(3) 0.3139(4)
C12 C 0.5175(7) 0.1344(3) 0.3618(4)
C13 C 0.7276(7) 0.1793(3) 0.4025(4)
C14 C 0.7535(8) 0.2238(3) 0.4580(4)
H8 H 0.6932 0.2560 0.4625
C15 C 0.8682(9) 0.2196(4) 0.5057(4)
H9 H 0.8862 0.2485 0.5437
C16 C 0.9571(9) 0.1723(5) 0.4973(5)
H10 H 1.0345 0.1699 0.5306
C17 C 0.8242(9) 0.1345(4) 0.3975(5)
H11 H 0.8100 0.1056 0.3595
C18 C 0.4707(9) 0.0343(4) 0.1100(5)
H12 H 0.4316 -0.0019 0.0892
C19 C 0.4290(9) 0.0906(4) 0.0800(5)
H13 H 0.3642 0.0926 0.0391
C20 C 0.4851(8) 0.1444(3) 0.1117(4)
H14 H 0.4581 0.1831 0.0923
C21 C 0.5796(7) 0.1407(3) 0.1712(4)
C22 C 0.6211(7) 0.0816(3) 0.1976(4)
H15 H 0.6893 0.0788 0.2367
C23 C 0.7584(7) 0.2144(3) 0.1946(4)
C24 C 0.7951(7) 0.2732(3) 0.2382(4)
C25 C 0.9066(8) 0.3108(4) 0.2333(4)
H16 H 0.9692 0.3008 0.2020
C26 C 0.9200(8) 0.3635(4) 0.2769(4)
H17 H 0.9937 0.3892 0.2751
C27 C 0.8270(8) 0.3788(3) 0.3228(4)
H18 H 0.8371 0.4144 0.3519
C28 C 0.7184(7) 0.3402(3) 0.3246(4)
C29 C 0.6056(8) 0.3491(3) 0.3693(4)
C30 C 0.3967(7) 0.3047(3) 0.3902(4)
C31 C 0.3718(8) 0.2585(4) 0.4382(4)
H19 H 0.4345 0.2270 0.4492
C32 C 0.2591(10) 0.2577(4) 0.4697(5)
H20 H 0.2428 0.2257 0.5017
C33 C 0.1680(10) 0.3046(5) 0.4543(6)
H21 H 0.0886 0.3051 0.4752
C34 C 0.1982(9) 0.3517(4) 0.4061(5)
H22 H 0.1384 0.3846 0.3967
C35 C -0.0408(10) 0.4822(5) 0.1204(6)
H23 H -0.0980 0.4802 0.1586
H24 H -0.0848 0.4633 0.0763
H25 H -0.0211 0.5250 0.1108
C36 C 0.1859(11) 0.4540(5) 0.0705(6)
H26 H 0.2719 0.4343 0.0768
H27 H 0.1967 0.4979 0.0629
H28 H 0.1321 0.4364 0.0286
N1 N 0.4707(7) 0.4014(3) 0.1963(3)
N2 N 0.4423(6) 0.2926(2) 0.2036(3)
N3 N 0.3900(6) 0.1975(2) 0.2738(3)
N4 N 0.6062(6) 0.1799(2) 0.3539(3)
N5 N 0.9383(8) 0.1302(4) 0.4446(5)
N6 N 0.5656(7) 0.0290(3) 0.1683(3)
N7 N 0.6364(6) 0.1944(2) 0.2071(3)
N8 N 0.7051(5) 0.2897(2) 0.2819(3)
N9 N 0.5121(6) 0.3037(2) 0.3541(3)
N10 N 0.3084(6) 0.3517(3) 0.3732(3)
O1 O 0.2271(5) 0.2992(2) 0.1414(3)
O2 O 0.5323(6) 0.0886(2) 0.4026(3)
O3 O 0.8331(5) 0.1910(2) 0.1537(3)
O4 O 0.6041(5) 0.3910(2) 0.4145(3)
O5 O 0.1815(7) 0.4809(3) 0.2079(3)
S1 S 0.1079(3) 0.44233(11) 0.14898(14)
Co1 Co 0.54882(9) 0.24290(4) 0.27912(5)
Ag1 Ag 0.35967(7) 0.42843(3) 0.29701(4)
N6A N 0.4344(7) 0.5290(3) 0.3317(3)
Ag1A Ag 0.64033(7) -0.07157(3) 0.20299(4)
C37 C 0.2069(14) 0.5457(9) 0.4543(6)
H29 H 0.2785 0.5197 0.4422
H30 H 0.1785 0.5317 0.4998
H31 H 0.2373 0.5880 0.4596
C38 C -0.0256(18) 0.5914(6) 0.4270(9)
H32 H -0.1088 0.5964 0.3959
H33 H 0.0176 0.6311 0.4347
H34 H -0.0420 0.5744 0.4736
O6 O 0.0182(9) 0.4795(4) 0.3912(5)
S2 S 0.0760(3) 0.54137(12) 0.38545(14)
O7 O 0.672(4) 0.0578(18) 0.315(2)
loop_
_geom_bond_atom_site_label_1
_geom_bond_atom_site_label_2
_geom_bond_site_symmetry_1
_geom_bond_site_symmetry_2
C1 H1 1_555 1_555
C2 C1 1_555 1_555
H2 C2 1_555 1_555
C3 C2 1_555 1_555
H3 C3 1_555 1_555
C4 C3 1_555 1_555
H4 C4 1_555 1_555
C5 C4 1_555 1_555
C6 C7 1_555 1_555
C7 C8 1_555 1_555
C8 H5 1_555 1_555
C9 C8 1_555 1_555
H6 C9 1_555 1_555
C10 C9 1_555 1_555
H7 C10 1_555 1_555
C11 C10 1_555 1_555
C12 C11 1_555 1_555
C13 C14 1_555 1_555
C14 H8 1_555 1_555
C15 C14 1_555 1_555
H9 C15 1_555 1_555
C16 C15 1_555 1_555
H10 C16 1_555 1_555
C17 C13 1_555 1_555
H11 C17 1_555 1_555
C18 H12 1_555 1_555
C19 C18 1_555 1_555
H13 C19 1_555 1_555
C20 C19 1_555 1_555
H14 C20 1_555 1_555
C21 C20 1_555 1_555
C22 C21 1_555 1_555
H15 C22 1_555 1_555
C23 C24 1_555 1_555
C24 C25 1_555 1_555
C25 H16 1_555 1_555
C26 C25 1_555 1_555
H17 C26 1_555 1_555
C27 C26 1_555 1_555
H18 C27 1_555 1_555
C28 C27 1_555 1_555
C29 C28 1_555 1_555
C30 C31 1_555 1_555
C31 H19 1_555 1_555
C32 C31 1_555 1_555
H20 C32 1_555 1_555
C33 C32 1_555 1_555
H21 C33 1_555 1_555
C34 C33 1_555 1_555
H22 C34 1_555 1_555
C35 H23 1_555 1_555
H24 C35 1_555 1_555
H25 C35 1_555 1_555
C36 H26 1_555 1_555
H27 C36 1_555 1_555
H28 C36 1_555 1_555
N1 C1 1_555 1_555
N2 C5 1_555 1_555
N3 C7 1_555 1_555
N4 C12 1_555 1_555
N5 C16 1_555 1_555
N6 C18 1_555 1_555
N7 C21 1_555 1_555
N8 C24 1_555 1_555
N9 C29 1_555 1_555
N10 C30 1_555 1_555
O1 C6 1_555 1_555
O2 C12 1_555 1_555
O3 C23 1_555 1_555
O4 C29 1_555 1_555
O5 S1 1_555 1_555
S1 C35 1_555 1_555
Co1 N2 1_555 1_555
Ag1 N1 1_555 1_555
C37 H29 1_555 1_555
H30 C37 1_555 1_555
H31 C37 1_555 1_555
C38 H32 1_555 1_555
H33 C38 1_555 1_555
H34 C38 1_555 1_555
O6 S2 1_555 1_555
S2 C37 1_555 1_555
N6A Ag1 1_555 1_555
Ag1A N6 1_555 1_555
C5 N1 1_555 1_555
C6 N2 1_555 1_555
C11 N3 1_555 1_555
C13 N4 1_555 1_555
C17 N5 1_555 1_555
C22 N6 1_555 1_555
C23 N7 1_555 1_555
C28 N8 1_555 1_555
C30 N9 1_555 1_555
C34 N10 1_555 1_555
C36 S1 1_555 1_555
N3 Co1 1_555 1_555
N4 Co1 1_555 1_555
N7 Co1 1_555 1_555
N8 Co1 1_555 1_555
N9 Co1 1_555 1_555
N10 Ag1 1_555 1_555
O5 Ag1 1_555 1_555
C38 S2 1_555 1_555

#END
