
#######################################################################
#
#                 Cambridge Crystallographic Data Centre
#                                CCDC 
#
#######################################################################
#
# If this CIF has been generated from an entry in the Cambridge 
# Structural Database, then it will include bibliographic, chemical, 
# crystal, experimental, refinement or atomic coordinate data resulting 
# from the CCDC's data processing and validation procedures.
#
#######################################################################

data_GOTDUQ
_symmetry_cell_setting           orthorhombic
_symmetry_space_group_name_H-M   'P n a 21'
_symmetry_Int_Tables_number      33
_space_group_name_Hall           'P 2c -2n'
loop_
_symmetry_equiv_pos_site_id
_symmetry_equiv_pos_as_xyz
1 x,y,z
2 -x,-y,1/2+z
3 1/2-x,1/2+y,1/2+z
4 1/2+x,1/2-y,z
_cell_length_a                   18.887(5)
_cell_length_b                   9.770(5)
_cell_length_c                   17.236(5)
_cell_angle_alpha                90
_cell_angle_beta                 90
_cell_angle_gamma                90
_cell_volume                     3180.49
loop_
_atom_site_label
_atom_site_type_symbol
_atom_site_fract_x
_atom_site_fract_y
_atom_site_fract_z
C1 C 0.7272(3) 0.6429(6) 0.6408(4)
H1 H 0.7386 0.7066 0.6789
C2 C 0.6704(3) 0.6687(6) 0.5938(4)
H2 H 0.6431 0.7469 0.6012
C3 C 0.6539(3) 0.5782(7) 0.5356(4)
H3 H 0.6170 0.5955 0.5013
C4 C 0.6942(3) 0.4605(6) 0.5300(4)
H4 H 0.6840 0.3961 0.4918
C5 C 0.7493(3) 0.4384(5) 0.5806(3)
C6 C 0.7735(3) 0.2173(5) 0.6284(3)
C7 C 0.8174(3) 0.0931(5) 0.6180(3)
C8 C 0.8198(3) -0.0207(5) 0.6652(3)
H5 H 0.7905 -0.0286 0.7083
C9 C 0.8674(3) -0.1224(6) 0.6461(3)
H6 H 0.8705 -0.1997 0.6775
C10 C 0.9101(3) -0.1125(6) 0.5825(3)
H7 H 0.9417 -0.1822 0.5701
C11 C 0.9053(3) 0.0028(5) 0.5369(3)
C12 C 0.9498(3) 0.0376(5) 0.4664(3)
C13 C 0.9772(3) 0.2216(5) 0.3816(3)
C14 C 0.9478(3) 0.2731(7) 0.3134(3)
C15 C 0.9942(4) 0.3433(7) 0.2639(3)
H8 H 0.9748 0.3834 0.2199
C16 C 1.0883(3) 0.3003(6) 0.3370(4)
H9 H 1.1370 0.3056 0.3447
C17 C 1.0497(3) 0.2338(7) 0.3920(3)
C18 C 0.9566(4) 0.2332(7) 0.7572(3)
H10 H 0.9340 0.2474 0.8044
C19 C 1.0087(4) 0.1386(7) 0.7544(4)
H11 H 1.0197 0.0862 0.7978
C20 C 1.0450(4) 0.1215(7) 0.6863(4)
H12 H 1.0829 0.0609 0.6832
C21 C 1.0241(4) 0.1964(7) 0.6223(3)
H13 H 1.0477 0.1863 0.5753
C22 C 0.9683(3) 0.2859(5) 0.6284(3)
C23 C 0.9586(3) 0.4757(6) 0.5411(3)
C24 C 0.9169(3) 0.5246(5) 0.4723(3)
C25 C 0.9230(3) 0.6453(6) 0.4326(3)
H14 H 0.9574 0.7090 0.4461
C26 C 0.8768(3) 0.6706(6) 0.3720(3)
H15 H 0.8789 0.7541 0.3461
C27 C 0.8284(3) 0.5753(6) 0.3495(3)
H16 H 0.7975 0.5923 0.3086
C28 C 0.8265(3) 0.4533(5) 0.3890(3)
C29 C 0.7816(3) 0.3308(5) 0.3701(3)
C30 C 0.7562(3) 0.1042(5) 0.4113(3)
C31 C 0.7064(3) 0.0571(6) 0.4630(3)
H17 H 0.6966 0.1063 0.5079
C32 C 0.6704(4) -0.0656(7) 0.4476(4)
H18 H 0.6366 -0.0949 0.4832
C33 C 0.7307(4) -0.0991(7) 0.3378(4)
H19 H 0.7407 -0.1530 0.2947
C34 C 0.7690(4) 0.0219(6) 0.3471(4)
H20 H 0.8028 0.0473 0.3107
N1 N 0.7671(3) 0.5309(5) 0.6347(3)
N2 N 0.7901(2) 0.3153(4) 0.5774(2)
N3 N 0.8599(2) 0.1011(4) 0.5558(2)
N4 N 0.9331(2) 0.1616(4) 0.4398(2)
N5 N 1.0629(3) 0.3574(5) 0.2743(3)
N6 N 0.9359(3) 0.3070(4) 0.6969(3)
N7 N 0.9383(2) 0.3502(4) 0.5629(2)
N8 N 0.8686(2) 0.4315(4) 0.4488(2)
N9 N 0.7906(2) 0.2296(4) 0.4223(2)
N10 N 0.6816(4) -0.1418(6) 0.3858(4)
O1 O 0.7261(2) 0.2239(4) 0.67886(19)
O2 O 0.9945(2) -0.0445(3) 0.4424(2)
O3 O 0.7426(2) 0.3277(4) 0.3126(2)
O4 O 1.0040(2) 0.5492(4) 0.5716(2)
Co1 Co 0.86294(3) 0.26515(6) 0.50103(4)
Ag1 Ag 0.86568(2) 0.50188(5) 0.70435(3)
N5A N 0.9371(3) 0.6426(5) 0.7743(3)
Ag1A Ag 1.13432(2) 0.49812(5) 0.20435(3)
O5 O 1.1333(3) 0.5092(5) 0.6524(4)
loop_
_geom_bond_atom_site_label_1
_geom_bond_atom_site_label_2
_geom_bond_site_symmetry_1
_geom_bond_site_symmetry_2
C1 H1 1_555 1_555
C2 C1 1_555 1_555
H2 C2 1_555 1_555
C3 C2 1_555 1_555
H3 C3 1_555 1_555
C4 C3 1_555 1_555
H4 C4 1_555 1_555
C5 C4 1_555 1_555
C6 C7 1_555 1_555
C7 C8 1_555 1_555
C8 H5 1_555 1_555
C9 C8 1_555 1_555
H6 C9 1_555 1_555
C10 C9 1_555 1_555
H7 C10 1_555 1_555
C11 C10 1_555 1_555
C12 C11 1_555 1_555
C13 C14 1_555 1_555
C14 C15 1_555 1_555
C15 H8 1_555 1_555
C16 H9 1_555 1_555
C17 C13 1_555 1_555
C18 H10 1_555 1_555
C19 C18 1_555 1_555
H11 C19 1_555 1_555
C20 C19 1_555 1_555
H12 C20 1_555 1_555
C21 C20 1_555 1_555
H13 C21 1_555 1_555
C22 C21 1_555 1_555
C23 C24 1_555 1_555
C24 C25 1_555 1_555
C25 H14 1_555 1_555
C26 C25 1_555 1_555
H15 C26 1_555 1_555
C27 C26 1_555 1_555
H16 C27 1_555 1_555
C28 C27 1_555 1_555
C29 C28 1_555 1_555
C30 C31 1_555 1_555
C31 H17 1_555 1_555
C32 C31 1_555 1_555
H18 C32 1_555 1_555
C33 H19 1_555 1_555
C34 C30 1_555 1_555
H20 C34 1_555 1_555
N1 C1 1_555 1_555
N2 C5 1_555 1_555
N3 C7 1_555 1_555
N4 C12 1_555 1_555
N5 C15 1_555 1_555
N6 C18 1_555 1_555
N7 C22 1_555 1_555
N8 C24 1_555 1_555
N9 C29 1_555 1_555
N10 C32 1_555 1_555
O1 C6 1_555 1_555
O2 C12 1_555 1_555
O3 C29 1_555 1_555
O4 C23 1_555 1_555
Co1 N2 1_555 1_555
Ag1 N1 1_555 1_555
N5A Ag1 1_555 1_555
Ag1A N5 1_555 1_555
C5 N1 1_555 1_555
C6 N2 1_555 1_555
C11 N3 1_555 1_555
C13 N4 1_555 1_555
C16 C17 1_555 1_555
C16 N5 1_555 1_555
C22 N6 1_555 1_555
C23 N7 1_555 1_555
C28 N8 1_555 1_555
C30 N9 1_555 1_555
C33 C34 1_555 1_555
C33 N10 1_555 1_555
N3 Co1 1_555 1_555
N4 Co1 1_555 1_555
N6 Ag1 1_555 1_555
N7 Co1 1_555 1_555
N8 Co1 1_555 1_555
N9 Co1 1_555 1_555

#END
