
#######################################################################
#
#                 Cambridge Crystallographic Data Centre
#                                CCDC 
#
#######################################################################
#
# If this CIF has been generated from an entry in the Cambridge 
# Structural Database, then it will include bibliographic, chemical, 
# crystal, experimental, refinement or atomic coordinate data resulting 
# from the CCDC's data processing and validation procedures.
#
#######################################################################

data_GOTJUU
_symmetry_cell_setting           orthorhombic
_symmetry_space_group_name_H-M   'I b a m'
_symmetry_Int_Tables_number      72
_space_group_name_Hall           '-I 2 2c'
loop_
_symmetry_equiv_pos_site_id
_symmetry_equiv_pos_as_xyz
1 x,y,z
2 -x,-y,z
3 x,-y,1/2-z
4 -x,y,1/2-z
5 1/2+x,1/2+y,1/2+z
6 1/2-x,1/2-y,1/2+z
7 1/2+x,1/2-y,-z
8 1/2-x,1/2+y,-z
9 -x,-y,-z
10 x,y,-z
11 -x,y,1/2+z
12 x,-y,1/2+z
13 1/2-x,1/2-y,1/2-z
14 1/2+x,1/2+y,1/2-z
15 1/2-x,1/2+y,z
16 1/2+x,1/2-y,z
_cell_length_a                   11.6084(7)
_cell_length_b                   12.3793(7)
_cell_length_c                   15.2789(9)
_cell_angle_alpha                90
_cell_angle_beta                 90
_cell_angle_gamma                90
_cell_volume                     2195.64
loop_
_atom_site_label
_atom_site_type_symbol
_atom_site_fract_x
_atom_site_fract_y
_atom_site_fract_z
Cd1 Cd 0.5000 0.0000 0.2500
O1 O 0.5035(3) 0.1338(4) 0.3578(3)
N1 N 0.6952(5) 0.0000 0.2500
C1 C 0.7550(3) -0.0882(3) 0.2739(3)
C2 C 0.8741(3) -0.0916(3) 0.2743(3)
C3 C 0.9362(5) 0.0000 0.2500
H1 H 0.5049 0.1885 0.4018
H2 H 0.5869 0.1743 0.3813
H3 H 0.7097 -0.1625 0.2946
H4 H 0.9192 -0.1590 0.2959
O1A O 0.4965(3) -0.1338(4) 0.3578(3)
H1A H 0.4951 -0.1885 0.4018
H2A H 0.4131 -0.1743 0.3813
O1B O 0.5035(3) -0.1338(4) 0.1422(3)
H1B H 0.5049 -0.1885 0.0982
H2B H 0.5869 -0.1743 0.1187
O1C O 0.4965(3) 0.1338(4) 0.1422(3)
H1C H 0.4951 0.1885 0.0982
H2C H 0.4131 0.1743 0.1187
C2B C 0.8741(3) 0.0916(3) 0.2257(3)
C1B C 0.7550(3) 0.0882(3) 0.2261(3)
H3B H 0.7097 0.1625 0.2054
H4B H 0.9192 0.1590 0.2041
C3A C 1.0638(5) 0.0000 0.2500
C2A C 1.1259(3) 0.0916(3) 0.2743(3)
C1A C 1.2450(3) 0.0882(3) 0.2739(3)
N1A N 1.3048(5) 0.0000 0.2500
Cd1A Cd 1.5000 0.0000 0.2500
C1C C 1.2450(3) -0.0882(3) 0.2261(3)
C2C C 1.1259(3) -0.0916(3) 0.2257(3)
H4C H 1.0808 -0.1590 0.2041
H3C H 1.2903 -0.1625 0.2054
H3A H 1.2903 0.1625 0.2946
H4A H 1.0808 0.1590 0.2959
N1A_2 N 0.3048(5) 0.0000 0.2500
S1 S 0.7733(1) 0.2290(1) 0.5000
F1 F 0.9369(4) 0.1146(4) 0.4308(2)
F2 F 0.8103(9) 0.0241(5) 0.5000
O2 O 0.8518(4) 0.3188(4) 0.5000
O3 O 0.7086(3) 0.2181(3) 0.4200(3)
C4 C 0.8681(8) 0.1133(6) 0.5000
O3I O 0.7086(3) 0.2181(3) 0.5800(3)
F1I F 0.9369(4) 0.1146(4) 0.5692(2)
loop_
_geom_bond_atom_site_label_1
_geom_bond_atom_site_label_2
_geom_bond_site_symmetry_1
_geom_bond_site_symmetry_2
Cd1 O1 1_555 1_555
O1 H1 1_555 1_555
N1 Cd1 1_555 1_555
C1 N1 1_555 1_555
C2 C1 1_555 1_555
C3 C2 1_555 1_555
H2 O1 1_555 1_555
H3 C1 1_555 1_555
H4 C2 1_555 1_555
S1 O2 1_555 1_555
F1 C4 1_555 1_555
F2 C4 1_555 1_555
O3 S1 1_555 1_555
C4 S1 1_555 1_555
O1A Cd1 1_555 1_555
H1A O1A 1_555 1_555
H2A O1A 1_555 1_555
O1B Cd1 1_555 1_555
H1B O1B 1_555 1_555
H2B O1B 1_555 1_555
O1C Cd1 1_555 1_555
H1C O1C 1_555 1_555
H2C O1C 1_555 1_555
C2B C3 1_555 1_555
C1B N1 1_555 1_555
H3B C1B 1_555 1_555
H4B C2B 1_555 1_555
C3A C3 1_555 1_555
C2A C3A 1_555 1_555
C1A C2A 1_555 1_555
N1A C1A 1_555 1_555
Cd1A N1A 1_555 1_555
C1C N1A 1_555 1_555
C2C C3A 1_555 1_555
H4C C2C 1_555 1_555
H3C C1C 1_555 1_555
H3A C1A 1_555 1_555
H4A C2A 1_555 1_555
N1A_2 Cd1 1_555 1_555
O3I S1 1_555 1_555
F1I C4 1_555 1_555
C2B C1B 1_555 1_555
C1C C2C 1_555 1_555

#END
