
#######################################################################
#
#                 Cambridge Crystallographic Data Centre
#                                CCDC 
#
#######################################################################
#
# If this CIF has been generated from an entry in the Cambridge 
# Structural Database, then it will include bibliographic, chemical, 
# crystal, experimental, refinement or atomic coordinate data resulting 
# from the CCDC's data processing and validation procedures.
#
#######################################################################

data_GOTJAA
_symmetry_cell_setting           monoclinic
_symmetry_space_group_name_H-M   'P 21'
_symmetry_Int_Tables_number      4
_space_group_name_Hall           'P 2yb'
loop_
_symmetry_equiv_pos_site_id
_symmetry_equiv_pos_as_xyz
1 x,y,z
2 -x,1/2+y,-z
_cell_length_a                   11.890(3)
_cell_length_b                   6.9960(15)
_cell_length_c                   19.972(4)
_cell_angle_alpha                90
_cell_angle_beta                 102.987(10)
_cell_angle_gamma                90
_cell_volume                     1618.82
loop_
_atom_site_label
_atom_site_type_symbol
_atom_site_fract_x
_atom_site_fract_y
_atom_site_fract_z
Rb1 Rb 0.86256(4) -0.07308(7) 0.49229(2)
Rb2 Rb 0.58631(4) -0.33172(7) 0.50413(2)
N1 N 0.8469(3) 0.2305(5) 0.61110(19)
S1 S 0.71513(9) 0.1784(2) 0.60759(6)
S2 S 0.89992(9) 0.4390(2) 0.62329(6)
O1 O 0.7004(3) -0.0158(5) 0.58249(17)
O2 O 0.6330(3) 0.3158(5) 0.57088(15)
O3 O 1.0175(2) 0.4267(6) 0.61574(15)
O4 O 0.8296(3) 0.5889(5) 0.58516(18)
C1 C 0.6935(3) 0.1718(8) 0.6931(2)
C2 C 0.5928(4) 0.2523(6) 0.7064(2)
H1 H 0.5366 0.3096 0.6706
C3 C 0.5773(4) 0.2459(7) 0.7739(3)
H2 H 0.5092 0.2982 0.7840
C4 C 0.6600(4) 0.1642(8) 0.8260(2)
C5 C 0.7595(4) 0.0839(7) 0.8115(3)
H3 H 0.8157 0.0266 0.8473
C6 C 0.7764(4) 0.0876(7) 0.7449(3)
H4 H 0.8440 0.0331 0.7349
C7 C 0.9075(4) 0.4861(7) 0.7120(2)
C8 C 0.8165(4) 0.5791(7) 0.7309(3)
H5 H 0.7554 0.6324 0.6971
C9 C 0.8161(4) 0.5930(7) 0.8004(3)
H6 H 0.7547 0.6564 0.8145
C10 C 0.9063(4) 0.5134(7) 0.8489(3)
C11 C 0.9994(4) 0.4283(9) 0.8300(2)
H7 H 1.0625 0.3815 0.8640
C12 C 0.9997(4) 0.4118(8) 0.7609(2)
H8 H 1.0620 0.3505 0.7470
C13 C 0.6383(4) 0.1553(9) 0.8970(2)
O5 O 0.5484(3) 0.2130(6) 0.90982(17)
O6 O 0.7242(3) 0.0823(7) 0.9426(2)
H9 H 0.716(9) 0.046(15) 0.988(3)
C14 C 0.8968(5) 0.5173(8) 0.9227(3)
O7 O 0.8102(4) 0.5818(6) 0.9376(2)
O8 O 0.9840(3) 0.4477(8) 0.9661(2)
H10 H 0.975(6) 0.455(14) 1.013(2)
N2 N 0.7483(3) 0.2695(5) 0.4098(2)
S3 S 0.79918(10) 0.47333(18) 0.39808(6)
S4 S 0.61651(10) 0.20963(17) 0.38346(6)
O9 O 0.9134(3) 0.4806(5) 0.44142(16)
O10 O 0.7235(3) 0.6318(5) 0.40393(17)
O11 O 0.6059(3) 0.0265(5) 0.41549(17)
O12 O 0.5334(3) 0.3531(5) 0.39102(16)
C15 C 0.8160(4) 0.4779(7) 0.3115(2)
C16 C 0.7294(4) 0.5595(7) 0.2612(3)
H11 H 0.6638 0.6154 0.2731
C17 C 0.7398(4) 0.5587(7) 0.1932(3)
H12 H 0.6805 0.6121 0.1582
C18 C 0.8373(4) 0.4793(7) 0.1766(2)
C19 C 0.9239(4) 0.3997(7) 0.2276(2)
H13 H 0.9902 0.3460 0.2157
C20 C 0.9143(4) 0.3980(8) 0.2958(2)
H14 H 0.9733 0.3438 0.3307
C21 C 0.6004(3) 0.1663(8) 0.2938(2)
C22 C 0.5054(4) 0.2410(7) 0.2468(2)
H15 H 0.4455 0.3049 0.2623
C23 C 0.5000(4) 0.2202(7) 0.1772(3)
H16 H 0.4352 0.2675 0.1446
C24 C 0.5880(4) 0.1315(8) 0.1552(3)
C25 C 0.6813(4) 0.0539(7) 0.2023(3)
H17 H 0.7408 -0.0106 0.1865
C26 C 0.6873(4) 0.0709(7) 0.2720(3)
H18 H 0.7504 0.0177 0.3044
C27 C 0.8549(4) 0.4835(8) 0.1052(3)
O13 O 0.9451(3) 0.4292(7) 0.09131(17)
O14 O 0.7672(3) 0.5507(7) 0.0604(2)
H19 H 0.784(5) 0.559(9) 0.015(2)
C28 C 0.5934(5) 0.1261(8) 0.0805(3)
O15 O 0.6771(3) 0.0544(6) 0.0634(2)
O16 O 0.5054(3) 0.2001(7) 0.0377(2)
H20 H 0.519(5) 0.197(12) -0.008(2)
O3A O 0.9825(2) -0.0733(6) 0.38426(15)
O4_2 O 0.8296(3) -0.4111(5) 0.58516(18)
O9_2 O 0.9134(3) -0.5194(5) 0.44142(16)
O9A O 1.0866(3) -0.0194(5) 0.55858(16)
O10_2 O 0.7235(3) -0.3682(5) 0.40393(17)
Rb2A Rb 0.41369(4) -0.83172(7) 0.49587(2)
Rb2A_2 Rb 0.41369(4) 0.16828(7) 0.49587(2)
O2_2 O 0.6330(3) -0.6842(5) 0.57088(15)
O2A O 0.3670(3) -0.1842(5) 0.42912(15)
O11A O 0.3941(3) -0.4735(5) 0.58451(17)
O12_2 O 0.5334(3) -0.6469(5) 0.39102(16)
O12A O 0.4666(3) -0.1469(5) 0.60898(16)
Rb2_2 Rb 0.58631(4) 0.66828(7) 0.50413(2)
Rb1A Rb 1.13744(4) 0.42692(7) 0.50771(2)
Rb1_2 Rb 0.86256(4) 0.92692(7) 0.49229(2)
loop_
_geom_bond_atom_site_label_1
_geom_bond_atom_site_label_2
_geom_bond_site_symmetry_1
_geom_bond_site_symmetry_2
Rb1 N1 1_555 1_555
Rb2 O1 1_555 1_555
N1 S1 1_555 1_555
S1 O1 1_555 1_555
S2 N1 1_555 1_555
O1 Rb1 1_555 1_555
O2 S1 1_555 1_555
O3 S2 1_555 1_555
O4 S2 1_555 1_555
C1 S1 1_555 1_555
C2 C1 1_555 1_555
H1 C2 1_555 1_555
C3 C2 1_555 1_555
H2 C3 1_555 1_555
C4 C3 1_555 1_555
C5 C4 1_555 1_555
H3 C5 1_555 1_555
C6 C1 1_555 1_555
H4 C6 1_555 1_555
C7 S2 1_555 1_555
C8 C7 1_555 1_555
H5 C8 1_555 1_555
C9 C8 1_555 1_555
H6 C9 1_555 1_555
C10 C9 1_555 1_555
C11 C10 1_555 1_555
H7 C11 1_555 1_555
C12 C7 1_555 1_555
H8 C12 1_555 1_555
C13 C4 1_555 1_555
O5 C13 1_555 1_555
O6 C13 1_555 1_555
H9 O6 1_555 1_555
C14 C10 1_555 1_555
O7 C14 1_555 1_555
O8 C14 1_555 1_555
H10 O8 1_555 1_555
N2 Rb1 1_555 1_555
S3 N2 1_555 1_555
S4 N2 1_555 1_555
O9 S3 1_555 1_555
O10 S3 1_555 1_555
O11 Rb1 1_555 1_555
O12 S4 1_555 1_555
C15 S3 1_555 1_555
C16 C15 1_555 1_555
H11 C16 1_555 1_555
C17 C16 1_555 1_555
H12 C17 1_555 1_555
C18 C17 1_555 1_555
C19 C18 1_555 1_555
H13 C19 1_555 1_555
C20 C15 1_555 1_555
H14 C20 1_555 1_555
C21 S4 1_555 1_555
C22 C21 1_555 1_555
H15 C22 1_555 1_555
C23 C22 1_555 1_555
H16 C23 1_555 1_555
C24 C23 1_555 1_555
C25 C24 1_555 1_555
H17 C25 1_555 1_555
C26 C21 1_555 1_555
H18 C26 1_555 1_555
C27 C18 1_555 1_555
O13 C27 1_555 1_555
O14 C27 1_555 1_555
H19 O14 1_555 1_555
C28 C24 1_555 1_555
O15 C28 1_555 1_555
O16 C28 1_555 1_555
H20 O16 1_555 1_555
O3A Rb1 1_555 1_555
O4_2 Rb1 1_555 1_555
O9_2 Rb1 1_555 1_555
O9A Rb1 1_555 1_555
O10_2 Rb1 1_555 1_555
Rb2A O2_2 1_555 1_555
Rb2A_2 O2 1_555 1_555
O2_2 Rb2 1_555 1_555
O2A Rb2 1_555 1_555
O11A Rb2 1_555 1_555
O12_2 Rb2 1_555 1_555
O12A Rb2 1_555 1_555
Rb2_2 O2 1_555 1_555
Rb1A O3 1_555 1_555
Rb1_2 O4 1_555 1_555
Rb2 O11 1_555 1_555
Rb2 O4_2 1_555 1_555
Rb2 O10_2 1_555 1_555
O4 Rb2_2 1_555 1_555
C5 C6 1_555 1_555
C11 C12 1_555 1_555
S4 O11 1_555 1_555
O9 Rb1_2 1_555 1_555
O9 Rb1A 1_555 1_555
O10 Rb1_2 1_555 1_555
O10 Rb2_2 1_555 1_555
O11 Rb2A_2 1_555 1_555
O12 Rb2_2 1_555 1_555
O12 Rb2A_2 1_555 1_555
C19 C20 1_555 1_555
C25 C26 1_555 1_555
O9A Rb1A 1_555 1_555
Rb2A O11A 1_555 1_555
Rb2A O12_2 1_555 1_555
Rb2A_2 O2A 1_555 1_555
Rb2A_2 O12A 1_555 1_555

#END
