
#######################################################################
#
#                 Cambridge Crystallographic Data Centre
#                                CCDC 
#
#######################################################################
#
# If this CIF has been generated from an entry in the Cambridge 
# Structural Database, then it will include bibliographic, chemical, 
# crystal, experimental, refinement or atomic coordinate data resulting 
# from the CCDC's data processing and validation procedures.
#
#######################################################################

data_GOTKEF
_symmetry_cell_setting           monoclinic
_symmetry_space_group_name_H-M   'C 2/c'
_symmetry_Int_Tables_number      15
_space_group_name_Hall           '-C 2yn'
loop_
_symmetry_equiv_pos_site_id
_symmetry_equiv_pos_as_xyz
1 x,y,z
2 -x,y,1/2-z
3 1/2+x,1/2+y,z
4 1/2-x,1/2+y,1/2-z
5 -x,-y,-z
6 x,-y,1/2+z
7 1/2-x,1/2-y,-z
8 1/2+x,1/2-y,1/2+z
_cell_length_a                   20.505(1)
_cell_length_b                   11.8106(7)
_cell_length_c                   23.266(1)
_cell_angle_alpha                90
_cell_angle_beta                 104.186(1)
_cell_angle_gamma                90
_cell_volume                     5462.65
loop_
_atom_site_label
_atom_site_type_symbol
_atom_site_fract_x
_atom_site_fract_y
_atom_site_fract_z
S1 S 0.24224(6) 0.4322(1) -0.68574(6)
F1 F 0.1486(2) 0.4640(4) -0.6309(2)
F2 F 0.1511(3) 0.3014(4) -0.6613(2)
F3 F 0.2243(2) 0.3581(5) -0.5861(2)
O1 O 0.1971(2) 0.4687(4) -0.7383(2)
O2 O 0.2791(3) 0.3354(3) -0.6950(2)
O3 O 0.2801(2) 0.5209(4) -0.6508(2)
C1 C 0.1900(3) 0.3821(5) -0.6394(2)
O4 O 0.1167(1) -0.0503(2) -0.2206(1)
N1 N -0.0082(1) 0.0546(2) -0.6514(1)
N2 N 0.0000 0.2563(3) 0.2500
N3 N 0.0000 0.8554(3) 0.2500
C2 C -0.0577(2) 0.0022(3) -0.6350(1)
C3 C -0.0569(2) -0.0207(3) -0.5763(1)
C4 C -0.0022(2) 0.0121(3) -0.5318(1)
C5 C 0.0481(2) 0.0712(3) -0.5491(1)
C6 C 0.0432(2) 0.0909(3) -0.6085(2)
C7 C 0.0276(2) 0.3149(3) 0.2130(2)
C8 C 0.0288(2) 0.4317(3) 0.2117(2)
C9 C 0.0000 0.4918(4) 0.2500
C10 C 0.0000 0.6179(4) 0.2500
C11 C -0.0560(2) 0.6787(3) 0.2557(2)
C12 C -0.0537(2) 0.7960(3) 0.2551(2)
H1 H -0.0957 -0.0210 -0.6648
H2 H -0.0937 -0.0589 -0.5668
H3 H 0.0859 0.0985 -0.5201
H4 H 0.0780 0.1325 -0.6193
H5 H -0.0472 0.2743 0.3137
H6 H -0.0494 0.4700 0.3151
H7 H 0.0953 0.6406 0.2399
H8 H 0.0925 0.8364 0.2414
H9 H 0.1426 -0.0475 -0.2495
H10 H 0.1392 -0.0496 -0.1796
Cd1 Cd 0.0000 -0.05786(2) -0.2500
C4D C 0.0022(2) -0.0121(3) -0.4682(1)
C3D C 0.0569(2) 0.0207(3) -0.4237(1)
C2D C 0.0577(2) -0.0022(3) -0.3650(1)
N1D N 0.0082(1) -0.0546(2) -0.3486(1)
C6D C -0.0432(2) -0.0909(3) -0.3915(2)
C5D C -0.0481(2) -0.0712(3) -0.4509(1)
H3D H -0.0859 -0.0985 -0.4799
H4D H -0.0780 -0.1325 -0.3807
Cd1D Cd 0.0000 0.05786(2) -0.7500
O4A O -0.1167(1) -0.0503(2) -0.2794(1)
H9A H -0.1426 -0.0475 -0.2505
H10A H -0.1392 -0.0496 -0.3204
N1E N -0.0082(1) -0.0546(2) -0.1514(1)
C2E C -0.0577(2) -0.0022(3) -0.1350(1)
C3E C -0.0569(2) 0.0207(3) -0.0763(1)
C4E C -0.0022(2) -0.0121(3) -0.0318(1)
C4A C 0.0022(2) 0.0121(3) 0.0318(1)
C3A C 0.0569(2) -0.0207(3) 0.0763(1)
C2A C 0.0577(2) 0.0022(3) 0.1350(1)
N1A N 0.0082(1) 0.0546(2) 0.1514(1)
C6A C -0.0432(2) 0.0909(3) 0.1085(2)
C5A C -0.0481(2) 0.0712(3) 0.0491(1)
H3A H -0.0859 0.0985 0.0201
H4A H -0.0780 0.1325 0.1193
Cd1D_2 Cd 0.0000 0.05786(2) 0.2500
O4E O 0.1167(1) 0.0503(2) 0.2794(1)
O4D O -0.1167(1) 0.0503(2) 0.2206(1)
N1_2 N -0.0082(1) 0.0546(2) 0.3486(1)
C8A C -0.0288(2) 0.4317(3) 0.2883(2)
C7A C -0.0276(2) 0.3149(3) 0.2870(2)
C12A C 0.0537(2) 0.7960(3) 0.2449(2)
C11A C 0.0560(2) 0.6787(3) 0.2443(2)
Cd1D_3 Cd 0.0000 1.05786(2) 0.2500
H8A H -0.0925 0.8364 0.2586
H7A H -0.0953 0.6406 0.2601
H6A H 0.0494 0.4700 0.1849
H5A H 0.0472 0.2743 0.1863
N3_2 N 0.0000 -0.1446(3) 0.2500
H1A H 0.0957 -0.0210 0.1648
H2A H 0.0937 -0.0589 0.0668
C5E C 0.0481(2) -0.0712(3) -0.0491(1)
C6E C 0.0432(2) -0.0909(3) -0.1085(2)
H4E H 0.0780 -0.1325 -0.1193
H3E H 0.0859 -0.0985 -0.0201
H2E H -0.0937 0.0589 -0.0668
H1E H -0.0957 0.0210 -0.1648
N2D N 0.0000 -0.2563(3) -0.2500
C7E C 0.0276(2) -0.3149(3) -0.2870(2)
C8E C 0.0288(2) -0.4317(3) -0.2883(2)
C9D C 0.0000 -0.4918(4) -0.2500
C8D C -0.0288(2) -0.4317(3) -0.2117(2)
C7D C -0.0276(2) -0.3149(3) -0.2130(2)
H5E H -0.0472 -0.2743 -0.1863
H6E H -0.0494 -0.4700 -0.1849
C10D C 0.0000 -0.6179(4) -0.2500
C11E C -0.0560(2) -0.6787(3) -0.2443(2)
C12E C -0.0537(2) -0.7960(3) -0.2449(2)
N3D N 0.0000 -0.8554(3) -0.2500
C12D C 0.0537(2) -0.7960(3) -0.2551(2)
C11D C 0.0560(2) -0.6787(3) -0.2557(2)
H7E H 0.0953 -0.6406 -0.2601
H8E H 0.0925 -0.8364 -0.2586
Cd1_2 Cd 0.0000 -1.05786(2) -0.2500
H8D H -0.0925 -0.8364 -0.2414
H7D H -0.0953 -0.6406 -0.2399
H6D H 0.0494 -0.4700 -0.3151
H5D H 0.0472 -0.2743 -0.3137
N3D_2 N 0.0000 0.1446(3) -0.2500
H1D H 0.0957 0.0210 -0.3352
H2D H 0.0937 0.0589 -0.4332
H9E H 0.1426 0.0475 0.2505
H10E H 0.1392 0.0496 0.3204
H9D H -0.1426 0.0475 0.2495
H10D H -0.1392 0.0496 0.1796
O5 O 0.3176(2) 0.6899(3) -0.7208(2)
O6 O -0.0532(2) 0.2576(3) -0.4690(2)
O7 O -0.1341(2) 0.7273(3) -0.5485(2)
O8 O -0.0886(3) 0.6708(3) -0.4595(2)
N4 N -0.1108(2) 0.6516(3) -0.5129(2)
N5 N -0.1614(2) 0.5837(3) -0.6383(2)
C13 C -0.0787(2) 0.3454(4) -0.5066(2)
C14 C -0.0808(2) 0.4556(4) -0.4910(2)
C15 C -0.1086(2) 0.5368(3) -0.5342(2)
C16 C -0.1344(2) 0.5095(4) -0.5937(2)
C17 C -0.1301(2) 0.3940(4) -0.6077(2)
C18 C -0.1035(2) 0.3150(4) -0.5661(2)
C19 C -0.0323(3) 0.2841(6) -0.4077(2)
H11 H -0.1635 0.6622 -0.6300
H12 H -0.1777 0.5568 -0.6777
H13 H -0.0635 0.4781 -0.4509
H14 H -0.1465 0.3704 -0.6477
H15 H -0.1017 0.2380 -0.5776
H16 H 0.0025 0.3391 -0.4016
H17 H -0.0158 0.2174 -0.3859
H18 H -0.0693 0.3130 -0.3945
N6 N -0.3102(2) 0.4308(4) -0.6238(2)
C20 C -0.2935(3) 0.4707(5) -0.5694(3)
C21 C -0.2703(3) 0.4028(5) -0.5196(2)
C22 C -0.2625(2) 0.2876(4) -0.5261(2)
C23 C -0.2778(3) 0.2462(5) -0.5837(2)
C24 C -0.3015(3) 0.3188(6) -0.6308(2)
H19 H -0.2974 0.5499 -0.5638
H20 H -0.2598 0.4360 -0.4812
H21 H -0.2716 0.1683 -0.5909
H22 H -0.3123 0.2889 -0.6698
C22F C -0.2375(2) 0.2124(4) -0.4739(2)
C21F C -0.2297(3) 0.0972(5) -0.4804(2)
C20F C -0.2065(3) 0.0293(5) -0.4306(3)
N6F N -0.1898(2) 0.0692(4) -0.3762(2)
C24F C -0.1985(3) 0.1812(6) -0.3692(2)
C23F C -0.2222(3) 0.2538(5) -0.4163(2)
H21F H -0.2284 0.3317 -0.4091
H22F H -0.1877 0.2111 -0.3302
H19F H -0.2026 -0.0499 -0.4362
H20F H -0.2402 0.0640 -0.5188
loop_
_geom_bond_atom_site_label_1
_geom_bond_atom_site_label_2
_geom_bond_site_symmetry_1
_geom_bond_site_symmetry_2
S1 O1 1_555 1_555
F1 C1 1_555 1_555
F2 C1 1_555 1_555
F3 C1 1_555 1_555
O2 S1 1_555 1_555
O3 S1 1_555 1_555
C1 S1 1_555 1_555
O4 H9 1_555 1_555
N1 C2 1_555 1_555
N2 C7 1_555 1_555
N3 C12 1_555 1_555
C2 C3 1_555 1_555
C3 C4 1_555 1_555
C4 C5 1_555 1_555
C5 C6 1_555 1_555
C6 N1 1_555 1_555
C7 C8 1_555 1_555
C8 C9 1_555 1_555
C9 C10 1_555 1_555
C10 C11 1_555 1_555
C11 C12 1_555 1_555
C12 H8A 1_555 1_555
H1 C2 1_555 1_555
H2 C3 1_555 1_555
H3 C5 1_555 1_555
H4 C6 1_555 1_555
H5 C7A 1_555 1_555
H6 C8A 1_555 1_555
H7 C11A 1_555 1_555
H8 C12A 1_555 1_555
H10 O4 1_555 1_555
Cd1 O4 1_555 1_555
O6 C13 1_555 1_555
O7 N4 1_555 1_555
O8 N4 1_555 1_555
N4 C15 1_555 1_555
N5 C16 1_555 1_555
C13 C14 1_555 1_555
C14 C15 1_555 1_555
C15 C16 1_555 1_555
C16 C17 1_555 1_555
C17 C18 1_555 1_555
C18 C13 1_555 1_555
C19 O6 1_555 1_555
H11 N5 1_555 1_555
H12 N5 1_555 1_555
H13 C14 1_555 1_555
H14 C17 1_555 1_555
H15 C18 1_555 1_555
H16 C19 1_555 1_555
H17 C19 1_555 1_555
H18 C19 1_555 1_555
N6 C20 1_555 1_555
C20 C21 1_555 1_555
C21 C22 1_555 1_555
C22 C23 1_555 1_555
C23 C24 1_555 1_555
C24 N6 1_555 1_555
H19 C20 1_555 1_555
H20 C21 1_555 1_555
H21 C23 1_555 1_555
H22 C24 1_555 1_555
C4D C4 1_555 1_555
C3D C4D 1_555 1_555
C2D C3D 1_555 1_555
N1D Cd1 1_555 1_555
C6D N1D 1_555 1_555
C5D C4D 1_555 1_555
H3D C5D 1_555 1_555
H4D C6D 1_555 1_555
Cd1D N1 1_555 1_555
O4A Cd1 1_555 1_555
H9A O4A 1_555 1_555
H10A O4A 1_555 1_555
N1E Cd1 1_555 1_555
C2E N1E 1_555 1_555
C3E C2E 1_555 1_555
C4E C3E 1_555 1_555
C4A C4E 1_555 1_555
C3A C4A 1_555 1_555
C2A C3A 1_555 1_555
N1A C2A 1_555 1_555
C6A N1A 1_555 1_555
C5A C4A 1_555 1_555
H3A C5A 1_555 1_555
H4A C6A 1_555 1_555
Cd1D_2 N2 1_555 1_555
O4E Cd1D_2 1_555 1_555
O4D Cd1D_2 1_555 1_555
N1_2 Cd1D_2 1_555 1_555
C8A C9 1_555 1_555
C7A N2 1_555 1_555
C12A N3 1_555 1_555
C11A C10 1_555 1_555
Cd1D_3 N3 1_555 1_555
H7A C11 1_555 1_555
H6A C8 1_555 1_555
H5A C7 1_555 1_555
N3_2 Cd1D_2 1_555 1_555
H1A C2A 1_555 1_555
H2A C3A 1_555 1_555
C5E C4E 1_555 1_555
C6E N1E 1_555 1_555
H4E C6E 1_555 1_555
H3E C5E 1_555 1_555
H2E C3E 1_555 1_555
H1E C2E 1_555 1_555
N2D Cd1 1_555 1_555
C7E N2D 1_555 1_555
C8E C7E 1_555 1_555
C9D C8E 1_555 1_555
C8D C9D 1_555 1_555
C7D N2D 1_555 1_555
H5E C7D 1_555 1_555
H6E C8D 1_555 1_555
C10D C9D 1_555 1_555
C11E C10D 1_555 1_555
C12E C11E 1_555 1_555
N3D C12E 1_555 1_555
C12D N3D 1_555 1_555
C11D C10D 1_555 1_555
H7E C11D 1_555 1_555
H8E C12D 1_555 1_555
Cd1_2 N3D 1_555 1_555
H8D C12E 1_555 1_555
H7D C11E 1_555 1_555
H6D C8E 1_555 1_555
H5D C7E 1_555 1_555
N3D_2 Cd1 1_555 1_555
H1D C2D 1_555 1_555
H2D C3D 1_555 1_555
H9E O4E 1_555 1_555
H10E O4E 1_555 1_555
H9D O4D 1_555 1_555
H10D O4D 1_555 1_555
C22F C22 1_555 1_555
C21F C22F 1_555 1_555
C20F C21F 1_555 1_555
N6F C20F 1_555 1_555
C24F N6F 1_555 1_555
C23F C22F 1_555 1_555
H21F C23F 1_555 1_555
H22F C24F 1_555 1_555
H19F C20F 1_555 1_555
H20F C21F 1_555 1_555
C2D N1D 1_555 1_555
C6D C5D 1_555 1_555
N1A Cd1D_2 1_555 1_555
C6A C5A 1_555 1_555
C8A C7A 1_555 1_555
C12A C11A 1_555 1_555
C5E C6E 1_555 1_555
C8D C7D 1_555 1_555
C12D C11D 1_555 1_555
C24F C23F 1_555 1_555

#END
