
#######################################################################
#
#                 Cambridge Crystallographic Data Centre
#                                CCDC 
#
#######################################################################
#
# If this CIF has been generated from an entry in the Cambridge 
# Structural Database, then it will include bibliographic, chemical, 
# crystal, experimental, refinement or atomic coordinate data resulting 
# from the CCDC's data processing and validation procedures.
#
#######################################################################

data_GOTKAB
_symmetry_cell_setting           orthorhombic
_symmetry_space_group_name_H-M   'P c c n'
_symmetry_Int_Tables_number      56
_space_group_name_Hall           '-P 2ab 2ac'
loop_
_symmetry_equiv_pos_site_id
_symmetry_equiv_pos_as_xyz
1 x,y,z
2 1/2-x,1/2-y,z
3 1/2+x,-y,1/2-z
4 -x,1/2+y,1/2-z
5 -x,-y,-z
6 1/2+x,1/2+y,-z
7 1/2-x,y,1/2+z
8 x,1/2-y,1/2+z
_cell_length_a                   7.9908(4)
_cell_length_b                   15.3013(8)
_cell_length_c                   23.404(1)
_cell_angle_alpha                90
_cell_angle_beta                 90
_cell_angle_gamma                90
_cell_volume                     2861.6
loop_
_atom_site_label
_atom_site_type_symbol
_atom_site_fract_x
_atom_site_fract_y
_atom_site_fract_z
Cd1 Cd -0.7500 -0.2500 -0.11777(2)
S1 S -0.4191(3) -0.4070(1) -0.12458(7)
F1 F -0.374(1) -0.3393(5) -0.2231(3)
F2 F -0.2284(9) -0.4487(5) -0.2097(3)
F3 F -0.476(1) -0.4616(7) -0.2239(3)
O1 O -0.5496(6) -0.1435(3) -0.1141(2)
O2 O -0.5763(8) -0.3701(4) -0.1206(2)
O3 O -0.2982(9) -0.348(1) -0.1041(3)
O4 O -0.402(2) -0.4877(6) -0.1044(5)
N1 N -0.7500 -0.2500 -0.0192(2)
N2 N -0.7500 -0.2500 0.2839(2)
C1 C -0.368(1) -0.4104(7) -0.1995(4)
C2 C -0.719(1) -0.3223(4) 0.0104(2)
C3 C -0.718(1) -0.3249(4) 0.0691(2)
C4 C -0.7500 -0.2500 0.1000(3)
C5 C -0.7500 -0.2500 0.1637(3)
C6 C -0.666(1) -0.3134(4) 0.1951(2)
C7 C -0.6688(9) -0.3109(4) 0.2542(3)
H1 H -0.6952 -0.3746 -0.0101
H2 H -0.6967 -0.3784 0.0884
H3 H -0.6061 -0.3584 0.1759
H4 H -0.8899 -0.1450 0.2745
H5 H -0.5805 -0.0830 -0.1123
H6 H -0.4334 -0.1581 -0.1141
O1A O -0.9504(6) -0.3565(3) -0.1141(2)
H5A H -0.9195 -0.4170 -0.1123
H6A H -1.0666 -0.3419 -0.1141
O2A O -0.9237(8) -0.1299(4) -0.1206(2)
S1A S -1.0809(3) -0.0930(1) -0.12458(7)
O3A O -1.2018(9) -0.152(1) -0.1041(3)
O4A O -1.098(2) -0.0123(6) -0.1044(5)
C1A C -1.132(1) -0.0896(7) -0.1995(4)
F1A F -1.126(1) -0.1607(5) -0.2231(3)
F2A F -1.2716(9) -0.0513(5) -0.2097(3)
F3A F -1.024(1) -0.0384(7) -0.2239(3)
C3A C -0.782(1) -0.1751(4) 0.0691(2)
C2A C -0.781(1) -0.1777(4) 0.0104(2)
H1A H -0.8048 -0.1254 -0.0101
H2A H -0.8033 -0.1216 0.0884
N2F N -0.7500 -0.2500 -0.2161(2)
Cd1F Cd -0.7500 -0.2500 0.38223(2)
C7A C -0.8312(9) -0.1891(4) 0.2542(3)
C6A C -0.834(1) -0.1866(4) 0.1951(2)
H3A H -0.8939 -0.1416 0.1759
H4A H -0.6101 -0.3550 0.2745
N3 N -0.3780(8) -0.0267(4) 0.0820(3)
C8 C -0.2777(8) -0.2036(4) 0.0828(3)
C9 C -0.327(1) -0.1611(5) 0.1311(3)
C10 C -0.377(1) -0.0742(6) 0.1292(3)
C11 C -0.330(1) -0.0679(5) 0.0357(3)
C12 C -0.279(1) -0.1556(5) 0.0338(3)
H7 H -0.3280 -0.1915 0.1666
H8 H -0.4137 -0.0477 0.1635
H9 H -0.3290 -0.0358 0.0009
H10 H -0.2463 -0.1814 -0.0015
C8A C -0.2223(8) -0.2964(4) 0.0828(3)
C9A C -0.173(1) -0.3389(5) 0.1311(3)
C10A C -0.123(1) -0.4258(6) 0.1292(3)
N3A N -0.1220(8) -0.4733(4) 0.0820(3)
C11A C -0.170(1) -0.4321(5) 0.0357(3)
C12A C -0.221(1) -0.3444(5) 0.0338(3)
H10A H -0.2537 -0.3186 -0.0015
H9A H -0.1710 -0.4642 0.0009
H8A H -0.0863 -0.4523 0.1635
H7A H -0.1720 -0.3085 0.1666
loop_
_geom_bond_atom_site_label_1
_geom_bond_atom_site_label_2
_geom_bond_site_symmetry_1
_geom_bond_site_symmetry_2
Cd1 O1 1_555 1_555
S1 O2 1_555 1_555
F1 C1 1_555 1_555
F2 C1 1_555 1_555
F3 C1 1_555 1_555
O1 H5 1_555 1_555
O2 Cd1 1_555 1_555
O3 S1 1_555 1_555
O4 S1 1_555 1_555
N1 Cd1 1_555 1_555
N2 C7 1_555 1_555
C1 S1 1_555 1_555
C2 N1 1_555 1_555
C3 C2 1_555 1_555
C4 C3 1_555 1_555
C5 C4 1_555 1_555
C6 C5 1_555 1_555
C7 C6 1_555 1_555
H1 C2 1_555 1_555
H2 C3 1_555 1_555
H3 C6 1_555 1_555
H4 C7A 1_555 1_555
H6 O1 1_555 1_555
N3 C10 1_555 1_555
C8 C9 1_555 1_555
C9 C10 1_555 1_555
C10 H8 1_555 1_555
C11 N3 1_555 1_555
C12 C8 1_555 1_555
H7 C9 1_555 1_555
H9 C11 1_555 1_555
H10 C12 1_555 1_555
O1A Cd1 1_555 1_555
H5A O1A 1_555 1_555
H6A O1A 1_555 1_555
O2A Cd1 1_555 1_555
S1A O2A 1_555 1_555
O3A S1A 1_555 1_555
O4A S1A 1_555 1_555
C1A S1A 1_555 1_555
F1A C1A 1_555 1_555
F2A C1A 1_555 1_555
F3A C1A 1_555 1_555
C3A C4 1_555 1_555
C2A N1 1_555 1_555
H1A C2A 1_555 1_555
H2A C3A 1_555 1_555
N2F Cd1 1_555 1_555
Cd1F N2 1_555 1_555
C7A N2 1_555 1_555
C6A C5 1_555 1_555
H3A C6A 1_555 1_555
H4A C7 1_555 1_555
C8A C8 1_555 1_555
C9A C8A 1_555 1_555
C10A C9A 1_555 1_555
N3A C10A 1_555 1_555
C11A N3A 1_555 1_555
C12A C8A 1_555 1_555
H10A C12A 1_555 1_555
H9A C11A 1_555 1_555
H8A C10A 1_555 1_555
H7A C9A 1_555 1_555
C11 C12 1_555 1_555
C3A C2A 1_555 1_555
C7A C6A 1_555 1_555
C11A C12A 1_555 1_555

#END
