
#######################################################################
#
#                 Cambridge Crystallographic Data Centre
#                                CCDC 
#
#######################################################################
#
# If this CIF has been generated from an entry in the Cambridge 
# Structural Database, then it will include bibliographic, chemical, 
# crystal, experimental, refinement or atomic coordinate data resulting 
# from the CCDC's data processing and validation procedures.
#
#######################################################################

data_GOTLIM
_symmetry_cell_setting           monoclinic
_symmetry_space_group_name_H-M   'C c'
_symmetry_Int_Tables_number      9
_space_group_name_Hall           'C -2yc'
loop_
_symmetry_equiv_pos_site_id
_symmetry_equiv_pos_as_xyz
1 x,y,z
2 x,-y,1/2+z
3 1/2+x,1/2+y,z
4 1/2+x,1/2-y,1/2+z
_cell_length_a                   21.383(5)
_cell_length_b                   18.940(5)
_cell_length_c                   9.587(2)
_cell_angle_alpha                90
_cell_angle_beta                 94.379(8)
_cell_angle_gamma                90
_cell_volume                     3871.34
loop_
_atom_site_label
_atom_site_type_symbol
_atom_site_fract_x
_atom_site_fract_y
_atom_site_fract_z
Zn1 Zn 0.53555(3) 0.39544(4) 1.60423(6)
Zn2 Zn 0.54305(3) 0.10365(4) 0.78341(6)
O1 O 0.6339(2) 0.1028(2) 0.7420(5)
C1 C 0.2337(3) 0.0007(3) 0.3969(7)
C2 C 0.6438(3) -0.0217(3) 0.7356(6)
O2 O 0.5548(2) 0.0054(3) 0.8593(5)
C3 C 0.7449(3) -0.0012(3) 0.5708(7)
N1 N 0.2829(3) 0.1319(2) 0.4466(8)
C4 C 0.2312(3) 0.1237(3) 0.3634(7)
H1 H 0.2111 0.1640 0.3272
O3 O 0.4762(2) 0.1340(2) 0.9019(4)
C5 C 0.3969(3) 0.0232(3) 0.6542(7)
H2 H 0.3727 -0.0200 0.6452
H3 H 0.4057 0.0330 0.7531
C6 C 0.7149(3) 0.0554(3) 0.6237(6)
N2 N 0.3608(3) 0.0808(3) 0.5893(6)
N3 N 0.7883(3) 0.1300(3) 0.5202(6)
C7 C 0.4520(4) 0.2789(3) 1.2946(7)
C8 C 0.1312(3) -0.0196(3) 0.2011(6)
N4 N 0.7952(3) 0.0040(3) 0.4972(6)
C9 C 0.6610(3) 0.0481(3) 0.7043(6)
C10 C 0.4898(3) 0.2441(3) 1.2077(6)
H4 H 0.5327 0.2525 1.2144
C11 C 0.3965(3) 0.1469(3) 0.5964(7)
H5 H 0.4063 0.1601 0.6933
H6 H 0.3717 0.1843 0.5508
O4 O 0.5619(2) 0.1630(3) 1.0291(6)
C12 C 0.8158(3) 0.0699(3) 0.4788(6)
C13 C 0.1599(3) -0.0729(3) 0.2731(7)
H7 H 0.1451 -0.1184 0.2542
N5 N 0.4941(2) 0.0796(3) 0.5926(5)
H8 H 0.5245 0.0721 0.5328
C14 C 0.2049(3) 0.0578(3) 0.3267(7)
C15 C 0.4573(3) 0.0137(3) 0.5873(8)
H9 H 0.4816 -0.0235 0.6354
H10 H 0.4485 -0.0006 0.4907
N6 N 0.2086(2) -0.0657(3) 0.3712(6)
N7 N 0.2858(2) 0.0061(2) 0.4845(5)
C16 C 0.3081(3) 0.0714(3) 0.5054(6)
C17 C 0.4550(3) 0.1373(3) 0.5264(7)
H11 H 0.4787 0.1810 0.5313
H12 H 0.4448 0.1263 0.4285
C18 C 0.2346(3) -0.1295(3) 0.4415(7)
H13 H 0.2008 -0.1559 0.4792
H14 H 0.2638 -0.1158 0.5190
C19 C 0.7394(3) 0.1216(3) 0.5914(7)
H15 H 0.7195 0.1617 0.6225
N8 N 0.7218(3) -0.0685(3) 0.5930(7)
C20 C 0.6747(4) -0.0755(4) 0.6774(8)
H16 H 0.6623 -0.1212 0.6976
C21 C 0.5943(3) -0.0400(3) 0.8317(6)
O5 O 0.5942(2) -0.1008(2) 0.8814(6)
N9 N 0.8678(2) 0.0774(3) 0.4088(5)
O6 O 0.4438(3) 0.3616(3) 1.4769(5)
C22 C 0.3869(4) 0.2684(3) 1.2836(7)
H17 H 0.3612 0.2932 1.3404
C23 C 0.5040(3) 0.1621(3) 1.0086(7)
O7 O 0.5374(3) 0.3311(3) 1.4321(7)
C24 C 0.4638(3) 0.1965(3) 1.1100(6)
C25 C 0.4004(3) 0.1863(3) 1.1002(7)
H18 H 0.3826 0.1553 1.0331
C26 C 0.3622(3) 0.2208(4) 1.1873(7)
H19 H 0.3193 0.2116 1.1807
C27 C 0.4802(5) 0.3269(4) 1.4082(7)
C28 C 0.1499(3) 0.0518(3) 0.2313(6)
C29 C 0.9467(3) 0.1544(3) 0.3118(7)
H20 H 0.9746 0.1937 0.3353
H21 H 0.9194 0.1678 0.2306
C30 C 0.9026(3) 0.0147(3) 0.3710(7)
H22 H 0.8734 -0.0232 0.3455
H23 H 0.9298 -0.0007 0.4508
C31 C 0.9076(3) 0.1401(4) 0.4323(7)
H24 H 0.9350 0.1334 0.5167
H25 H 0.8812 0.1808 0.4466
C32 C 0.9414(3) 0.0305(4) 0.2501(7)
H26 H 0.9657 -0.0112 0.2304
H27 H 0.9136 0.0404 0.1679
C33 C 0.2673(4) -0.1758(5) 0.3449(9)
H28 H 0.2398 -0.1858 0.2635
H29 H 0.2792 -0.2191 0.3915
H30 H 0.3042 -0.1522 0.3173
N10 N 0.9850(2) 0.0910(3) 0.2757(5)
H31 H 1.0121 0.0806 0.3507
O8 O 0.1244(2) 0.1074(2) 0.1812(5)
O9 O 0.0768(3) -0.1016(3) 0.0500(6)
C34 C 0.0803(3) -0.0398(4) 0.0864(7)
O10 O 0.0454(2) 0.0085(3) 0.0317(5)
C35 C 0.7430(5) -0.1340(5) 0.5095(11)
H32 H 0.7326 -0.1468 0.4170
C36 C 0.7813(6) -0.1676(7) 0.6113(12)
O11 O 0.5605(3) 0.2230(3) 0.7250(6)
H33 H 0.5808 0.2452 0.7951
H34 H 0.5248 0.2450 0.7051
Zn1C Zn 0.03555(3) 0.10456(4) 0.10423(6)
Zn1C_2 Zn 1.03555(3) 0.10456(4) 0.10423(6)
N10C N 0.4850(2) 0.4090(3) 1.7757(5)
O8C O 0.6244(2) 0.3926(2) 1.6812(5)
O10C O 0.5454(2) 0.4915(3) 1.5317(5)
O12 O 0.6285(3) 0.2304(3) 0.4824(7)
H35 H 0.6678 0.2339 0.4759
H36 H 0.6072 0.2580 0.4273
O13 O 0.6296(4) 0.7237(4) 0.4699(9)
H37 H 0.6397 0.7469 0.5441
H38 H 0.6107 0.6856 0.4866
loop_
_geom_bond_atom_site_label_1
_geom_bond_atom_site_label_2
_geom_bond_site_symmetry_1
_geom_bond_site_symmetry_2
Zn1 O6 1_555 1_555
Zn2 O1 1_555 1_555
O1 C9 1_555 1_555
C1 C14 1_555 1_555
C2 C9 1_555 1_555
O2 Zn2 1_555 1_555
C3 C6 1_555 1_555
N1 C4 1_555 1_555
C4 H1 1_555 1_555
O3 Zn2 1_555 1_555
C5 H2 1_555 1_555
H3 C5 1_555 1_555
C6 C9 1_555 1_555
N2 C5 1_555 1_555
N3 C12 1_555 1_555
C7 C10 1_555 1_555
C8 C13 1_555 1_555
N4 C3 1_555 1_555
C10 H4 1_555 1_555
C11 N2 1_555 1_555
H5 C11 1_555 1_555
H6 C11 1_555 1_555
O4 C23 1_555 1_555
C12 N4 1_555 1_555
C13 H7 1_555 1_555
N5 Zn2 1_555 1_555
H8 N5 1_555 1_555
C14 C4 1_555 1_555
C15 C5 1_555 1_555
H9 C15 1_555 1_555
H10 C15 1_555 1_555
N6 C1 1_555 1_555
N7 C1 1_555 1_555
C16 N1 1_555 1_555
C17 C11 1_555 1_555
H11 C17 1_555 1_555
H12 C17 1_555 1_555
C18 N6 1_555 1_555
H13 C18 1_555 1_555
H14 C18 1_555 1_555
C19 C6 1_555 1_555
H15 C19 1_555 1_555
N8 C3 1_555 1_555
C20 C2 1_555 1_555
H16 C20 1_555 1_555
C21 C2 1_555 1_555
O5 C21 1_555 1_555
N9 C12 1_555 1_555
O6 C27 1_555 1_555
C22 C7 1_555 1_555
H17 C22 1_555 1_555
C23 O3 1_555 1_555
O7 Zn1 1_555 1_555
C24 C10 1_555 1_555
C25 C24 1_555 1_555
H18 C25 1_555 1_555
C26 C22 1_555 1_555
H19 C26 1_555 1_555
C27 C7 1_555 1_555
C28 C8 1_555 1_555
C29 H20 1_555 1_555
H21 C29 1_555 1_555
C30 N9 1_555 1_555
H22 C30 1_555 1_555
H23 C30 1_555 1_555
C31 N9 1_555 1_555
H24 C31 1_555 1_555
H25 C31 1_555 1_555
C32 C30 1_555 1_555
H26 C32 1_555 1_555
H27 C32 1_555 1_555
C33 C18 1_555 1_555
H28 C33 1_555 1_555
H29 C33 1_555 1_555
H30 C33 1_555 1_555
N10 C29 1_555 1_555
H31 N10 1_555 1_555
O8 C28 1_555 1_555
O9 C34 1_555 1_555
C34 C8 1_555 1_555
O10 C34 1_555 1_555
C35 N8 1_555 1_555
H32 C35 1_555 1_555
C36 C35 1_555 1_555
O11 Zn2 1_555 1_555
H33 O11 1_555 1_555
H34 O11 1_555 1_555
O12 H35 1_555 1_555
H36 O12 1_555 1_555
O13 H37 1_555 1_555
H38 O13 1_555 1_555
Zn1C O8 1_555 1_555
Zn1C_2 N10 1_555 1_555
N10C Zn1 1_555 1_555
O8C Zn1 1_555 1_555
O10C Zn1 1_555 1_555
O2 C21 1_555 1_555
N2 C16 1_555 1_555
N3 C19 1_555 1_555
C13 N6 1_555 1_555
N5 C15 1_555 1_555
N5 C17 1_555 1_555
C14 C28 1_555 1_555
N7 C16 1_555 1_555
N8 C20 1_555 1_555
C23 C24 1_555 1_555
O7 C27 1_555 1_555
C25 C26 1_555 1_555
C29 C31 1_555 1_555
C32 N10 1_555 1_555
O10 Zn1C 1_555 1_555

#END
