
#######################################################################
#
#                 Cambridge Crystallographic Data Centre
#                                CCDC 
#
#######################################################################
#
# If this CIF has been generated from an entry in the Cambridge 
# Structural Database, then it will include bibliographic, chemical, 
# crystal, experimental, refinement or atomic coordinate data resulting 
# from the CCDC's data processing and validation procedures.
#
#######################################################################

data_GOTNAG
_symmetry_cell_setting           monoclinic
_symmetry_space_group_name_H-M   'P 21/c'
_symmetry_Int_Tables_number      14
_space_group_name_Hall           '-P 2ybc'
loop_
_symmetry_equiv_pos_site_id
_symmetry_equiv_pos_as_xyz
1 x,y,z
2 -x,1/2+y,1/2-z
3 -x,-y,-z
4 x,1/2-y,1/2+z
_cell_length_a                   14.06551(16)
_cell_length_b                   29.3960(3)
_cell_length_c                   18.4286(3)
_cell_angle_alpha                90
_cell_angle_beta                 107.0581(14)
_cell_angle_gamma                90
_cell_volume                     7284.46
loop_
_atom_site_label
_atom_site_type_symbol
_atom_site_fract_x
_atom_site_fract_y
_atom_site_fract_z
Dy1 Dy 0.173030(10) 0.328940(5) 0.327298(8)
Dy2 Dy 0.313160(10) 0.255946(5) 0.179014(8)
O1 O -0.16274(18) -0.10110(8) 0.10872(14)
O2 O -0.06074(18) -0.10585(8) 0.22418(14)
O3 O 0.04975(19) -0.03878(8) 0.28402(14)
H1 H 0.0197 -0.0629 0.2816
O4 O 0.17448(19) 0.25098(8) 0.33680(14)
O5 O 0.23987(17) 0.21422(8) 0.25712(14)
O6 O 0.24725(18) 0.12559(8) 0.27377(16)
H2 H 0.2623 0.1501 0.2590
O7 O 0.34427(17) 0.31752(9) 0.37758(15)
O8 O 0.40627(17) 0.27630(9) 0.30078(13)
O9 O 0.59110(18) 0.25810(10) 0.33538(14)
H3 H 0.5325 0.2585 0.3100
O10 O 1.1141(2) 0.19591(9) 0.70469(14)
O11 O 1.14111(17) 0.24094(9) 0.61710(15)
O12 O 0.98838(17) 0.27147(8) 0.51121(15)
H4 H 1.0458 0.2711 0.5390
O13 O 0.70132(18) 0.68386(8) 0.38810(13)
O14 O 0.58753(17) 0.68622(8) 0.27806(13)
O15 O 0.45706(19) 0.62348(8) 0.23586(14)
O16 O 0.30952(19) 0.33464(8) 0.17842(14)
O17 O 0.25108(18) 0.37510(8) 0.25811(14)
O18 O 0.2726(2) 0.46118(9) 0.26607(18)
H5 H 0.2535 0.4360 0.2750
O19 O 0.46877(18) 0.26728(10) 0.15913(16)
O20 O 0.19583(19) 0.30612(9) 0.45913(13)
H6 H 0.2430 0.3218 0.4887
H7 H 0.1419 0.3109 0.4709
O21 O 0.01214(18) 0.31323(10) 0.34453(17)
H8 H 0.0195 0.2963 0.3839
H9 H -0.0246 0.2992 0.3053
O22 O 0.2856(2) 0.27592(9) 0.04389(14)
H10 H 0.3360 0.2669 0.0272
H11 H 0.2798 0.3059 0.0372
N1 N 0.6314(2) 0.27154(13) 0.1661(2)
C1 C -0.0946(2) -0.08395(11) 0.1617(2)
C2 C -0.0524(2) -0.03824(11) 0.1538(2)
C3 C -0.0830(3) -0.01571(12) 0.0857(2)
H12 H -0.1309 -0.0291 0.0455
C4 C -0.0443(3) 0.02704(12) 0.0747(2)
C5 C -0.0780(3) 0.05055(14) 0.0049(2)
H13 H -0.1290 0.0382 -0.0344
C6 C -0.0367(3) 0.09113(15) -0.0057(3)
H14 H -0.0619 0.1072 -0.0507
C7 C 0.0437(3) 0.10824(14) 0.0517(3)
H15 H 0.0748 0.1347 0.0431
C8 C 0.0776(3) 0.08704(12) 0.1201(2)
H16 H 0.1309 0.0994 0.1574
C9 C 0.0324(2) 0.04592(12) 0.1354(2)
C10 C 0.0623(2) 0.02415(11) 0.2073(2)
C11 C 0.0203(2) -0.01749(11) 0.21486(19)
C12 C 0.1376(2) 0.04593(11) 0.2744(2)
H17 H 0.1998 0.0495 0.2622
H18 H 0.1497 0.0255 0.3175
C13 C 0.1062(2) 0.09206(11) 0.2971(2)
C14 C 0.0185(3) 0.09674(12) 0.3207(2)
C15 C -0.0409(3) 0.05906(13) 0.3287(2)
H19 H -0.0219 0.0299 0.3191
C16 C -0.1250(3) 0.06464(15) 0.3500(2)
H20 H -0.1620 0.0393 0.3552
C17 C -0.1565(3) 0.10800(16) 0.3641(3)
H21 H -0.2151 0.1116 0.3772
C18 C -0.1008(3) 0.14477(15) 0.3587(3)
H22 H -0.1211 0.1735 0.3695
C19 C -0.0127(3) 0.14056(12) 0.3370(2)
C20 C 0.0459(3) 0.17854(12) 0.3322(2)
H23 H 0.0265 0.2072 0.3439
C21 C 0.1309(3) 0.17420(11) 0.31072(19)
C22 C 0.1607(2) 0.13035(11) 0.2935(2)
C23 C 0.1854(2) 0.21620(11) 0.30139(18)
C24 C 0.4154(2) 0.29902(12) 0.3609(2)
C25 C 0.5188(2) 0.30406(12) 0.41434(18)
C26 C 0.5337(2) 0.33029(12) 0.47857(19)
H24 H 0.4791 0.3434 0.4892
C27 C 0.6292(2) 0.33792(12) 0.52865(18)
C28 C 0.6446(3) 0.36632(13) 0.5926(2)
H25 H 0.5899 0.3791 0.6037
C29 C 0.7373(3) 0.37552(15) 0.6385(2)
H26 H 0.7458 0.3940 0.6808
C30 C 0.8205(3) 0.35692(14) 0.6216(2)
H27 H 0.8840 0.3638 0.6524
C31 C 0.8091(2) 0.32886(12) 0.5607(2)
H28 H 0.8651 0.3168 0.5508
C32 C 0.7132(2) 0.31767(12) 0.51215(18)
C33 C 0.6980(2) 0.28873(12) 0.44798(18)
C34 C 0.6031(2) 0.28359(12) 0.39946(18)
C35 C 0.7854(2) 0.26564(13) 0.42989(18)
H29 H 0.7616 0.2511 0.3806
H30 H 0.8332 0.2888 0.4265
C36 C 0.8384(2) 0.23017(11) 0.48791(18)
C37 C 0.7892(2) 0.18917(12) 0.49845(19)
C38 C 0.6946(3) 0.17694(14) 0.4498(2)
H31 H 0.6597 0.1972 0.4127
C39 C 0.6542(3) 0.13556(16) 0.4572(3)
H32 H 0.5924 0.1278 0.4244
C40 C 0.7029(3) 0.10526(16) 0.5119(3)
H33 H 0.6742 0.0771 0.5151
C41 C 0.7926(3) 0.11578(14) 0.5616(3)
H34 H 0.8241 0.0950 0.5991
C42 C 0.8386(3) 0.15812(13) 0.5568(2)
C43 C 0.9324(3) 0.16918(12) 0.6046(2)
H35 H 0.9613 0.1508 0.6463
C44 C 0.9830(2) 0.20668(12) 0.59147(18)
C45 C 0.9370(2) 0.23600(11) 0.52934(18)
C46 C 1.0852(2) 0.21498(12) 0.6418(2)
C47 C 0.6299(2) 0.66484(11) 0.33857(19)
C48 C 0.5946(2) 0.61866(11) 0.35110(18)
C49 C 0.6440(3) 0.59469(12) 0.4147(2)
H36 H 0.6988 0.6077 0.4498
C50 C 0.6131(3) 0.55067(12) 0.4279(2)
C51 C 0.6652(3) 0.52622(14) 0.4937(2)
H37 H 0.7175 0.5400 0.5301
C52 C 0.6392(3) 0.48256(14) 0.5041(3)
H38 H 0.6768 0.4658 0.5455
C53 C 0.5567(3) 0.46317(13) 0.4529(2)
H39 H 0.5381 0.4337 0.4613
C54 C 0.5019(3) 0.48642(12) 0.3903(2)
H40 H 0.4461 0.4727 0.3576
C55 C 0.5287(3) 0.53117(11) 0.3744(2)
C56 C 0.4756(2) 0.55621(11) 0.30905(19)
C57 C 0.5093(2) 0.59924(11) 0.29804(18)
C58 C 0.3800(2) 0.53857(11) 0.2535(2)
H41 H 0.3312 0.5344 0.2807
H42 H 0.3546 0.5617 0.2152
C59 C 0.3887(2) 0.49438(11) 0.2136(2)
C60 C 0.4530(3) 0.49092(12) 0.1677(2)
C61 C 0.5186(6) 0.5264(3) 0.1606(5)
H43 H 0.5091 0.5549 0.1793
C62 C 0.5935(6) 0.5223(3) 0.1289(5)
H44 H 0.6301 0.5477 0.1233
C63 C 0.6158(7) 0.4795(3) 0.1045(5)
H45 H 0.6680 0.4760 0.0835
C64 C 0.5595(6) 0.4430(3) 0.1122(5)
H46 H 0.5725 0.4146 0.0949
C65 C 0.4823(5) 0.4476(3) 0.1457(4)
C66 C 0.4252(5) 0.4093(3) 0.1581(4)
H47 H 0.4396 0.3806 0.1425
C67 C 0.3487(3) 0.41323(11) 0.19263(19)
C68 C 0.3357(2) 0.45643(12) 0.2234(2)
C69 C 0.2998(2) 0.37104(11) 0.21006(19)
C70 C 0.5534(3) 0.25038(15) 0.1712(2)
H48 H 0.5608 0.2199 0.1851
C71 C 0.6251(4) 0.31900(19) 0.1439(3)
H49 H 0.5693 0.3233 0.0997
H50 H 0.6851 0.3277 0.1328
H51 H 0.6168 0.3374 0.1846
C72 C 0.7290(3) 0.25092(19) 0.1846(3)
H52 H 0.7258 0.2205 0.2029
H53 H 0.7749 0.2686 0.2232
H54 H 0.7511 0.2500 0.1401
H55 H 0.4885(14) 0.6473(5) 0.240(2)
Dy1A Dy -0.173030(10) -0.171060(5) 0.172702(8)
Dy1C Dy 1.173030(10) 0.171060(5) 0.827298(8)
Dy2A Dy 0.686840(10) 0.755946(5) 0.320986(8)
Dy2C Dy 1.313160(10) 0.244054(5) 0.679014(8)
O1A O 0.16274(18) 0.39890(8) 0.39128(14)
O2A O 0.06074(18) 0.39415(8) 0.27582(14)
O10C O 0.1141(2) 0.30409(9) 0.20469(14)
O11C O 0.14111(17) 0.25906(9) 0.11710(15)
O13A O 0.29868(18) 0.18386(8) 0.11190(13)
O14A O 0.41247(17) 0.18622(8) 0.22194(13)
O23 O 0.8320(3) 0.35287(13) 0.3042(2)
N2 N 0.7311(3) 0.41192(14) 0.3079(2)
C79 C 0.8080(4) 0.39294(18) 0.2932(3)
H61 H 0.8474 0.4114 0.2729
C80 C 0.7099(5) 0.4603(2) 0.2991(4)
H62 H 0.6428 0.4657 0.2996
H63 H 0.7178 0.4705 0.2517
H64 H 0.7550 0.4765 0.3401
C81 C 0.6639(5) 0.3862(3) 0.3379(4)
H65 H 0.6785 0.3920 0.3913
H66 H 0.6717 0.3544 0.3297
H67 H 0.5967 0.3952 0.3126
O24 O 0.2050(6) 0.3631(2) -0.0010(4)
N3 N 0.1404(4) 0.42312(13) 0.0237(3)
C82 C 0.1425(9) 0.37742(17) 0.0212(6)
H68 H 0.0976 0.3590 0.0359
C83 C 0.1956(5) 0.45922(19) 0.0015(4)
H69 H 0.1501 0.4810 -0.0288
H70 H 0.2360 0.4468 -0.0275
H71 H 0.2374 0.4739 0.0460
C84 C 0.0673(6) 0.4358(3) 0.0601(5)
H72 H 0.0998 0.4451 0.1113
H73 H 0.0249 0.4102 0.0605
H74 H 0.0280 0.4605 0.0329
O25 O 0.4266(10) 0.2903(5) -0.0337(7)
C73? C 0.4953(7) 0.5314(3) 0.1443(6)
H56? H 0.4867 0.5599 0.1634
C74? C 0.5484(7) 0.5263(3) 0.0932(5)
H57? H 0.5844 0.5509 0.0835
C75? C 0.5502(7) 0.4850(3) 0.0551(6)
H58? H 0.5843 0.4834 0.0189
C76? C 0.5038(7) 0.4482(3) 0.0700(6)
H59? H 0.5077 0.4213 0.0445
C77? C 0.4466(5) 0.4486(3) 0.1254(5)
C78? C 0.4009(6) 0.4114(3) 0.1405(5)
H60? H 0.4044 0.3843 0.1155
O26? O 0.3764(10) 0.3301(5) -0.0257(8)
loop_
_geom_bond_atom_site_label_1
_geom_bond_atom_site_label_2
_geom_bond_site_symmetry_1
_geom_bond_site_symmetry_2
Dy1 O4 1_555 1_555
Dy2 O5 1_555 1_555
O1 C1 1_555 1_555
O2 C1 1_555 1_555
O3 H1 1_555 1_555
O4 C23 1_555 1_555
O5 C23 1_555 1_555
O6 H2 1_555 1_555
O7 Dy1 1_555 1_555
O8 Dy2 1_555 1_555
O9 H3 1_555 1_555
O10 C46 1_555 1_555
O11 C46 1_555 1_555
O12 H4 1_555 1_555
O13 C47 1_555 1_555
O14 C47 1_555 1_555
O15 C57 1_555 1_555
O16 Dy2 1_555 1_555
O17 Dy1 1_555 1_555
O18 H5 1_555 1_555
O19 Dy2 1_555 1_555
O20 Dy1 1_555 1_555
H6 O20 1_555 1_555
H7 O20 1_555 1_555
O21 Dy1 1_555 1_555
H8 O21 1_555 1_555
H9 O21 1_555 1_555
O22 Dy2 1_555 1_555
H10 O22 1_555 1_555
H11 O22 1_555 1_555
N1 C70 1_555 1_555
C1 C2 1_555 1_555
C2 C3 1_555 1_555
C3 H12 1_555 1_555
C4 C3 1_555 1_555
C5 C4 1_555 1_555
H13 C5 1_555 1_555
C6 C5 1_555 1_555
H14 C6 1_555 1_555
C7 C6 1_555 1_555
H15 C7 1_555 1_555
C8 C7 1_555 1_555
H16 C8 1_555 1_555
C9 C4 1_555 1_555
C10 C9 1_555 1_555
C11 O3 1_555 1_555
C12 C10 1_555 1_555
H17 C12 1_555 1_555
H18 C12 1_555 1_555
C13 C12 1_555 1_555
C14 C13 1_555 1_555
C15 C14 1_555 1_555
H19 C15 1_555 1_555
C16 C15 1_555 1_555
H20 C16 1_555 1_555
C17 C16 1_555 1_555
H21 C17 1_555 1_555
C18 C17 1_555 1_555
H22 C18 1_555 1_555
C19 C14 1_555 1_555
C20 C19 1_555 1_555
H23 C20 1_555 1_555
C21 C20 1_555 1_555
C22 O6 1_555 1_555
C23 C21 1_555 1_555
C24 O7 1_555 1_555
C25 C24 1_555 1_555
C26 C25 1_555 1_555
H24 C26 1_555 1_555
C27 C26 1_555 1_555
C28 C27 1_555 1_555
H25 C28 1_555 1_555
C29 C28 1_555 1_555
H26 C29 1_555 1_555
C30 C29 1_555 1_555
H27 C30 1_555 1_555
C31 C30 1_555 1_555
H28 C31 1_555 1_555
C32 C27 1_555 1_555
C33 C32 1_555 1_555
C34 O9 1_555 1_555
C35 C33 1_555 1_555
H29 C35 1_555 1_555
H30 C35 1_555 1_555
C36 C35 1_555 1_555
C37 C36 1_555 1_555
C38 C37 1_555 1_555
H31 C38 1_555 1_555
C39 C38 1_555 1_555
H32 C39 1_555 1_555
C40 C39 1_555 1_555
H33 C40 1_555 1_555
C41 C40 1_555 1_555
H34 C41 1_555 1_555
C42 C37 1_555 1_555
C43 C42 1_555 1_555
H35 C43 1_555 1_555
C44 C43 1_555 1_555
C45 O12 1_555 1_555
C46 C44 1_555 1_555
C47 C48 1_555 1_555
C48 C49 1_555 1_555
C49 H36 1_555 1_555
C50 C49 1_555 1_555
C51 C50 1_555 1_555
H37 C51 1_555 1_555
C52 C51 1_555 1_555
H38 C52 1_555 1_555
C53 C52 1_555 1_555
H39 C53 1_555 1_555
C54 C53 1_555 1_555
H40 C54 1_555 1_555
C55 C50 1_555 1_555
C56 C55 1_555 1_555
C57 C48 1_555 1_555
C58 C56 1_555 1_555
H41 C58 1_555 1_555
H42 C58 1_555 1_555
C59 C58 1_555 1_555
C60 C59 1_555 1_555
C61 C60 1_555 1_555
H43 C61 1_555 1_555
C62 C61 1_555 1_555
H44 C62 1_555 1_555
C63 C62 1_555 1_555
H45 C63 1_555 1_555
C64 C63 1_555 1_555
H46 C64 1_555 1_555
C65 C60 1_555 1_555
C66 C65 1_555 1_555
H47 C66 1_555 1_555
C67 C66 1_555 1_555
C68 O18 1_555 1_555
C69 O16 1_555 1_555
C70 O19 1_555 1_555
H48 C70 1_555 1_555
C71 N1 1_555 1_555
H49 C71 1_555 1_555
H50 C71 1_555 1_555
H51 C71 1_555 1_555
C72 N1 1_555 1_555
H52 C72 1_555 1_555
H53 C72 1_555 1_555
H54 C72 1_555 1_555
H55 O15 1_555 1_555
O23 C79 1_555 1_555
N2 C79 1_555 1_555
C79 H61 1_555 1_555
C80 N2 1_555 1_555
H62 C80 1_555 1_555
H63 C80 1_555 1_555
H64 C80 1_555 1_555
C81 N2 1_555 1_555
H65 C81 1_555 1_555
H66 C81 1_555 1_555
H67 C81 1_555 1_555
O24 C82 1_555 1_555
N3 C82 1_555 1_555
C82 H68 1_555 1_555
C83 N3 1_555 1_555
H69 C83 1_555 1_555
H70 C83 1_555 1_555
H71 C83 1_555 1_555
C84 N3 1_555 1_555
H72 C84 1_555 1_555
H73 C84 1_555 1_555
H74 C84 1_555 1_555
Dy1A O1 1_555 1_555
Dy1C O10 1_555 1_555
Dy2A O13 1_555 1_555
Dy2C O11 1_555 1_555
O1A Dy1 1_555 1_555
O2A Dy1 1_555 1_555
O10C Dy1 1_555 1_555
O11C Dy2 1_555 1_555
O13A Dy2 1_555 1_555
O14A Dy2 1_555 1_555
O2 Dy1A 1_555 1_555
O8 C24 1_555 1_555
O14 Dy2A 1_555 1_555
O17 C69 1_555 1_555
C2 C11 1_555 1_555
C8 C9 1_555 1_555
C10 C11 1_555 1_555
C13 C22 1_555 1_555
C18 C19 1_555 1_555
C21 C22 1_555 1_555
C25 C34 1_555 1_555
C31 C32 1_555 1_555
C33 C34 1_555 1_555
C36 C45 1_555 1_555
C41 C42 1_555 1_555
C44 C45 1_555 1_555
C54 C55 1_555 1_555
C56 C57 1_555 1_555
C59 C68 1_555 1_555
C64 C65 1_555 1_555
C67 C68 1_555 1_555
C67 C69 1_555 1_555

#END
