
#######################################################################
#
#                 Cambridge Crystallographic Data Centre
#                                CCDC 
#
#######################################################################
#
# If this CIF has been generated from an entry in the Cambridge 
# Structural Database, then it will include bibliographic, chemical, 
# crystal, experimental, refinement or atomic coordinate data resulting 
# from the CCDC's data processing and validation procedures.
#
#######################################################################

data_GOTSOZ
_symmetry_cell_setting           triclinic
_symmetry_space_group_name_H-M   'P -1'
_symmetry_Int_Tables_number      2
_space_group_name_Hall           '-P 1'
loop_
_symmetry_equiv_pos_site_id
_symmetry_equiv_pos_as_xyz
1 x,y,z
2 -x,-y,-z
_cell_length_a                   8.5706(17)
_cell_length_b                   9.7965(19)
_cell_length_c                   15.534(4)
_cell_angle_alpha                85.46(2)
_cell_angle_beta                 78.36(2)
_cell_angle_gamma                74.18(2)
_cell_volume                     1228.65
loop_
_atom_site_label
_atom_site_type_symbol
_atom_site_fract_x
_atom_site_fract_y
_atom_site_fract_z
Cu1 Cu 0.832515(17) 0.485916(14) 0.474646(9)
Cu2 Cu 0.089753(19) 0.923089(18) 0.933159(10)
O1 O 0.69600(11) 0.52864(10) 0.59344(6)
O2 O 1.02054(11) 0.35647(9) 0.51276(6)
O3 O 0.95113(12) 0.18490(10) 0.45722(7)
O4 O -0.24945(13) 0.96987(13) 1.05683(7)
O5 O -0.09663(14) 0.83639(14) 0.94493(8)
O6 O 0.18031(16) 0.78580(13) 1.02153(7)
O7 O 0.02649(16) 0.91630(14) 1.13471(7)
N1 N 0.89931(12) 0.48152(10) 0.34282(6)
N2 N 0.63602(12) 0.61384(11) 0.44313(6)
N3 N 0.51775(12) 0.67981(11) 0.51072(6)
N4 N 0.24658(13) 0.81028(12) 0.81954(7)
C1 C 1.03357(15) 0.39608(13) 0.29595(8)
H1 H 1.1171 0.3400 0.3255
C2 C 1.05453(17) 0.38696(14) 0.20541(9)
H2 H 1.1513 0.3263 0.1732
C3 C 0.93171(17) 0.46796(15) 0.16312(8)
H3 H 0.9416 0.4613 0.1015
C4 C 0.79361(16) 0.55931(14) 0.21134(8)
H4 H 0.7094 0.6172 0.1830
C5 C 0.78088(14) 0.56457(12) 0.30184(7)
C6 C 0.63627(14) 0.65355(12) 0.36119(7)
C7 C 0.56440(14) 0.62513(12) 0.58567(7)
C8 C 0.45237(14) 0.68813(12) 0.66703(7)
C9 C 0.30435(15) 0.78930(14) 0.66311(8)
H5 H 0.2711 0.8179 0.6083
C10 C 0.20631(15) 0.84762(14) 0.74028(8)
H6 H 0.1058 0.9174 0.7371
C11 C 0.49473(15) 0.64752(14) 0.74904(8)
H7 H 0.5944 0.5778 0.7541
C12 C 0.38820(16) 0.71108(15) 0.82308(8)
H8 H 0.4170 0.6829 0.8790
C13 C 0.51507(14) 0.77350(12) 0.32863(7)
C14 C 0.34722(15) 0.80374(13) 0.36613(8)
H9 H 0.3093 0.7445 0.4125
C15 C 0.23555(16) 0.91957(14) 0.33616(9)
H10 H 0.1218 0.9397 0.3623
C16 C 0.28957(18) 1.00622(14) 0.26797(9)
H11 H 0.2126 1.0845 0.2468
C17 C 0.45662(17) 0.97823(14) 0.23065(9)
H12 H 0.4936 1.0380 0.1844
C18 C 0.56942(16) 0.86319(14) 0.26091(8)
H13 H 0.6835 0.8451 0.2358
C19 C 1.04198(14) 0.22378(12) 0.49611(8)
C20 C 1.18595(17) 0.12015(14) 0.52762(10)
H14 H 1.1811 0.0230 0.5205
H15 H 1.1808 0.1355 0.5898
H16 H 1.2895 0.1346 0.4930
C21 C 0.13475(17) 0.80975(15) 1.10200(9)
C22 C 0.2183(2) 0.70174(17) 1.16439(11)
H17 H 0.2787 0.6144 1.1330
H18 H 0.1349 0.6809 1.2130
H19 H 0.2955 0.7397 1.1877
C23 C -0.22547(16) 0.87538(15) 1.00207(8)
C24 C -0.36238(19) 0.80390(18) 1.00447(10)
H20 H -0.3142 0.7033 0.9912
H21 H -0.4292 0.8496 0.9607
H22 H -0.4323 0.8125 1.0631
Cu1A Cu 1.167485(17) 0.514084(14) 0.525354(9)
Cu2A Cu -0.089753(19) 1.076911(18) 1.066841(10)
O2A O 0.97946(11) 0.64353(9) 0.48724(6)
O4A O 0.24945(13) 1.03013(13) 0.94317(7)
O7A O -0.02649(16) 1.08370(14) 0.86529(7)
loop_
_geom_bond_atom_site_label_1
_geom_bond_atom_site_label_2
_geom_bond_site_symmetry_1
_geom_bond_site_symmetry_2
Cu1 O1 1_555 1_555
Cu2 O5 1_555 1_555
O1 C7 1_555 1_555
O2 Cu1 1_555 1_555
O3 C19 1_555 1_555
O4 C23 1_555 1_555
O5 C23 1_555 1_555
O6 Cu2 1_555 1_555
O7 C21 1_555 1_555
N1 Cu1 1_555 1_555
N2 Cu1 1_555 1_555
N3 N2 1_555 1_555
N4 Cu2 1_555 1_555
C1 N1 1_555 1_555
H1 C1 1_555 1_555
C2 C1 1_555 1_555
H2 C2 1_555 1_555
C3 C2 1_555 1_555
H3 C3 1_555 1_555
C4 C3 1_555 1_555
H4 C4 1_555 1_555
C5 N1 1_555 1_555
C6 N2 1_555 1_555
C7 N3 1_555 1_555
C8 C7 1_555 1_555
C9 C8 1_555 1_555
H5 C9 1_555 1_555
C10 N4 1_555 1_555
H6 C10 1_555 1_555
C11 C8 1_555 1_555
H7 C11 1_555 1_555
C12 N4 1_555 1_555
H8 C12 1_555 1_555
C13 C6 1_555 1_555
C14 C13 1_555 1_555
H9 C14 1_555 1_555
C15 C14 1_555 1_555
H10 C15 1_555 1_555
C16 C15 1_555 1_555
H11 C16 1_555 1_555
C17 C16 1_555 1_555
H12 C17 1_555 1_555
C18 C13 1_555 1_555
H13 C18 1_555 1_555
C19 O2 1_555 1_555
C20 C19 1_555 1_555
H14 C20 1_555 1_555
H15 C20 1_555 1_555
H16 C20 1_555 1_555
C21 O6 1_555 1_555
C22 C21 1_555 1_555
H17 C22 1_555 1_555
H18 C22 1_555 1_555
H19 C22 1_555 1_555
C23 C24 1_555 1_555
C24 H20 1_555 1_555
H21 C24 1_555 1_555
H22 C24 1_555 1_555
Cu1A O2 1_555 1_555
Cu2A Cu2 1_555 1_555
O2A Cu1 1_555 1_555
O4A Cu2 1_555 1_555
O7A Cu2 1_555 1_555
O4 Cu2A 1_555 1_555
O7 Cu2A 1_555 1_555
C4 C5 1_555 1_555
C5 C6 1_555 1_555
C9 C10 1_555 1_555
C11 C12 1_555 1_555
C17 C18 1_555 1_555
Cu1A O2A 1_555 1_555

#END
