
#######################################################################
#
#                 Cambridge Crystallographic Data Centre
#                                CCDC 
#
#######################################################################
#
# If this CIF has been generated from an entry in the Cambridge 
# Structural Database, then it will include bibliographic, chemical, 
# crystal, experimental, refinement or atomic coordinate data resulting 
# from the CCDC's data processing and validation procedures.
#
#######################################################################

data_GOTYOF
_symmetry_cell_setting           triclinic
_symmetry_space_group_name_H-M   'P -1'
_symmetry_Int_Tables_number      2
_space_group_name_Hall           '-P 1'
loop_
_symmetry_equiv_pos_site_id
_symmetry_equiv_pos_as_xyz
1 x,y,z
2 -x,-y,-z
_cell_length_a                   6.6038(15)
_cell_length_b                   7.8617(17)
_cell_length_c                   16.040(3)
_cell_angle_alpha                93.776(3)
_cell_angle_beta                 90.395(3)
_cell_angle_gamma                91.200(3)
_cell_volume                     830.732
loop_
_atom_site_label
_atom_site_type_symbol
_atom_site_fract_x
_atom_site_fract_y
_atom_site_fract_z
S1 S 0.21400(15) 0.27115(13) 0.90259(6)
F1 F -0.0939(5) 0.3197(5) 0.21586(18)
O1 O 0.0326(5) 0.3711(5) 0.8965(2)
O2 O 0.1863(6) 0.1313(5) 0.9555(2)
O3 O 0.3904(5) 0.3791(5) 0.9257(2)
O4 O 0.5450(5) 0.0404(4) 0.85308(19)
O5 O 0.2808(5) 0.1601(6) 0.4710(2)
O6 O -0.2695(5) 0.3319(5) 0.5455(2)
C1 C 0.7247(8) -0.0560(8) 0.8369(3)
H1 H 0.7897 -0.0768 0.8889
H2 H 0.8157 0.0072 0.8035
H3 H 0.6889 -0.1628 0.8075
C2 C 0.4346(6) 0.0808(5) 0.7851(3)
C3 C 0.4758(6) 0.0275(6) 0.7041(3)
H4 H 0.5866 -0.0413 0.6931
C4 C 0.3572(7) 0.0731(6) 0.6381(3)
H5 H 0.3908 0.0365 0.5837
C5 C 0.1872(6) 0.1736(5) 0.6524(3)
C6 C 0.1477(6) 0.2288(5) 0.7349(3)
H6 H 0.0378 0.2985 0.7460
C7 C 0.2664(6) 0.1833(5) 0.8005(2)
C8 C 0.0536(6) 0.2226(5) 0.5828(3)
C9 C 0.1182(6) 0.2135(6) 0.4958(3)
C10 C -0.0300(6) 0.2744(5) 0.4361(3)
C11 C 0.0116(7) 0.2737(6) 0.3519(3)
H7 H 0.1363 0.2378 0.3316
C12 C -0.1321(8) 0.3261(6) 0.2989(3)
C13 C -0.3186(7) 0.3845(6) 0.3256(3)
H8 H -0.4128 0.4209 0.2877
C14 C -0.3612(7) 0.3874(6) 0.4088(3)
H9 H -0.4850 0.4265 0.4286
C15 C -0.2173(7) 0.3310(6) 0.4636(3)
C16 C -0.1334(7) 0.2782(7) 0.6009(3)
H10 H -0.1727 0.2799 0.6565
Cs1 Cs -0.27216(4) 0.24576(3) 1.032634(16)
F1_2 F -0.0939(5) 0.3197(5) 1.21586(18)
O1A O -0.0326(5) 0.6289(5) 1.1035(2)
O2A O -0.1863(6) -0.1313(5) 1.0445(2)
O3_2 O -0.6096(5) 0.3791(5) 0.9257(2)
O3A O -0.3904(5) 0.6209(5) 1.0743(2)
O4_2 O -0.4550(5) 0.0404(4) 0.85308(19)
O4A O -0.5450(5) -0.0404(4) 1.14692(19)
Cs1_2 Cs -0.27216(4) 0.24576(3) 0.032634(16)
Cs1_3 Cs 0.72784(4) 0.24576(3) 1.032634(16)
Cs1A Cs 0.27216(4) -0.24576(3) 0.967366(16)
Cs1A_2 Cs 0.27216(4) 0.75424(3) 0.967366(16)
O7 O 0.6835(8) 0.4847(9) 0.8044(4)
H11 H 0.754(11) 0.440(10) 0.819(5)
H12 H 0.636(11) 0.528(10) 0.845(5)
loop_
_geom_bond_atom_site_label_1
_geom_bond_atom_site_label_2
_geom_bond_site_symmetry_1
_geom_bond_site_symmetry_2
S1 O1 1_555 1_555
F1 C12 1_555 1_555
O1 Cs1 1_555 1_555
O2 S1 1_555 1_555
O3 S1 1_555 1_555
O4 C1 1_555 1_555
O5 C9 1_555 1_555
O6 C15 1_555 1_555
C1 H1 1_555 1_555
H2 C1 1_555 1_555
H3 C1 1_555 1_555
C2 O4 1_555 1_555
C3 C2 1_555 1_555
H4 C3 1_555 1_555
C4 C3 1_555 1_555
H5 C4 1_555 1_555
C5 C4 1_555 1_555
C6 C5 1_555 1_555
H6 C6 1_555 1_555
C7 S1 1_555 1_555
C8 C5 1_555 1_555
C9 C8 1_555 1_555
C10 C9 1_555 1_555
C11 C10 1_555 1_555
H7 C11 1_555 1_555
C12 C11 1_555 1_555
C13 C12 1_555 1_555
H8 C13 1_555 1_555
C14 C13 1_555 1_555
H9 C14 1_555 1_555
C15 C10 1_555 1_555
C16 O6 1_555 1_555
H10 C16 1_555 1_555
Cs1 O2 1_555 1_555
O7 H11 1_555 1_555
H12 O7 1_555 1_555
F1_2 Cs1 1_555 1_555
O1A Cs1 1_555 1_555
O2A Cs1 1_555 1_555
O3_2 Cs1 1_555 1_555
O3A Cs1 1_555 1_555
O4_2 Cs1 1_555 1_555
O4A Cs1 1_555 1_555
Cs1_2 F1 1_555 1_555
Cs1_3 O3 1_555 1_555
Cs1A O2 1_555 1_555
Cs1A_2 O1 1_555 1_555
O3 Cs1A_2 1_555 1_555
O4 Cs1_3 1_555 1_555
O4 Cs1A 1_555 1_555
C2 C7 1_555 1_555
C6 C7 1_555 1_555
C8 C16 1_555 1_555
C14 C15 1_555 1_555
O1A Cs1A_2 1_555 1_555
O2A Cs1A 1_555 1_555

#END
