
#######################################################################
#
#                 Cambridge Crystallographic Data Centre
#                                CCDC 
#
#######################################################################
#
# If this CIF has been generated from an entry in the Cambridge 
# Structural Database, then it will include bibliographic, chemical, 
# crystal, experimental, refinement or atomic coordinate data resulting 
# from the CCDC's data processing and validation procedures.
#
#######################################################################

data_GOTYUL
_symmetry_cell_setting           triclinic
_symmetry_space_group_name_H-M   'P -1'
_symmetry_Int_Tables_number      2
_space_group_name_Hall           '-P 1'
loop_
_symmetry_equiv_pos_site_id
_symmetry_equiv_pos_as_xyz
1 x,y,z
2 -x,-y,-z
_cell_length_a                   6.4690(10)
_cell_length_b                   11.4970(10)
_cell_length_c                   12.6640(10)
_cell_angle_alpha                92.120(10)
_cell_angle_beta                 98.460(10)
_cell_angle_gamma                95.590(10)
_cell_volume                     925.933
loop_
_atom_site_label
_atom_site_type_symbol
_atom_site_fract_x
_atom_site_fract_y
_atom_site_fract_z
Cs1 Cs 1.22145(4) 0.86076(2) -0.04226(2)
S1 S 0.74121(15) 0.77237(8) 0.07261(8)
O1 O -0.0037(4) 0.6658(3) 0.3747(2)
O2 O 0.5021(5) 0.8125(3) 0.5845(2)
O3 O -0.3687(5) 0.5475(3) 0.6523(3)
H1 H -0.3555 0.5500 0.7177
O4 O -0.0454(5) 0.6517(3) 0.8054(2)
O5 O 0.3074(5) 0.7577(3) 0.7398(2)
O6 O 1.0130(5) 0.9622(3) 0.2002(2)
O7 O 0.7336(5) 0.8707(2) 0.0030(2)
O8 O 0.9399(5) 0.7227(3) 0.0845(2)
O9 O 0.5600(5) 0.6855(2) 0.0410(2)
C1 C -0.0082(6) 0.6622(3) 0.4823(3)
C2 C -0.1856(6) 0.6063(4) 0.5143(3)
H2 H -0.2965 0.5726 0.4639
C3 C -0.1957(6) 0.6013(3) 0.6217(3)
C4 C -0.0285(7) 0.6530(3) 0.6978(3)
C5 C 0.1488(7) 0.7070(3) 0.6645(3)
C6 C 0.1640(6) 0.7124(3) 0.5546(3)
C7 C 0.3490(6) 0.7682(3) 0.5192(3)
C8 C 0.3426(6) 0.7687(3) 0.4034(3)
C9 C 0.1669(6) 0.7198(4) 0.3406(3)
H3 H 0.1630 0.7237 0.2671
C10 C 0.5230(6) 0.8211(3) 0.3536(3)
C11 C 0.6676(7) 0.9110(4) 0.4044(3)
H4 H 0.6550 0.9388 0.4729
C12 C 0.8307(7) 0.9600(4) 0.3542(3)
H5 H 0.9241 1.0207 0.3892
C13 C 0.8554(6) 0.9198(3) 0.2540(3)
C14 C 0.7125(6) 0.8292(3) 0.2012(3)
C15 C 0.5518(6) 0.7808(3) 0.2520(3)
H6 H 0.4598 0.7194 0.2172
C16 C 0.0551(9) 0.5590(5) 0.8579(4)
H7 H 0.0555 0.5684 0.9336
H8 H 0.1971 0.5615 0.8436
H9 H -0.0202 0.4850 0.8316
C17 C 1.1778(7) 1.0432(4) 0.2575(4)
H10 H 1.2833 1.0614 0.2129
H11 H 1.2396 1.0088 0.3209
H12 H 1.1209 1.1136 0.2768
H13 H 0.398(8) 0.782(6) 0.704(5)
Cs1_2 Cs 0.22145(4) 0.86076(2) -0.04226(2)
Cs1_3 Cs 0.22145(4) 0.86076(2) 0.95774(2)
Cs1A Cs 0.77855(4) 1.13924(2) 0.04226(2)
O4_2 O 0.9546(5) 0.6517(3) -0.1946(2)
O5_2 O 1.3074(5) 0.7577(3) -0.2602(2)
O6A O 0.9870(5) 1.0378(3) -0.2002(2)
O7_2 O 1.7336(5) 0.8707(2) 0.0030(2)
O7A O 1.2664(5) 1.1293(2) -0.0030(2)
O9_2 O 1.5600(5) 0.6855(2) 0.0410(2)
O10 O -0.4283(7) 0.5184(3) 0.8574(3)
H14 H -0.478(10) 0.464(4) 0.888(4)
H15 H -0.383(11) 0.574(3) 0.899(4)
loop_
_geom_bond_atom_site_label_1
_geom_bond_atom_site_label_2
_geom_bond_site_symmetry_1
_geom_bond_site_symmetry_2
Cs1 O7 1_555 1_555
S1 O7 1_555 1_555
O1 C1 1_555 1_555
O2 C7 1_555 1_555
O3 H1 1_555 1_555
O4 C4 1_555 1_555
O5 C5 1_555 1_555
O6 C13 1_555 1_555
O7 Cs1_2 1_555 1_555
O8 Cs1 1_555 1_555
O9 S1 1_555 1_555
C1 C2 1_555 1_555
C2 H2 1_555 1_555
C3 O3 1_555 1_555
C4 C3 1_555 1_555
C5 C4 1_555 1_555
C6 C1 1_555 1_555
C7 C6 1_555 1_555
C8 C7 1_555 1_555
C9 O1 1_555 1_555
H3 C9 1_555 1_555
C10 C8 1_555 1_555
C11 C10 1_555 1_555
H4 C11 1_555 1_555
C12 C11 1_555 1_555
H5 C12 1_555 1_555
C13 C12 1_555 1_555
C14 S1 1_555 1_555
C15 C10 1_555 1_555
H6 C15 1_555 1_555
C16 O4 1_555 1_555
H7 C16 1_555 1_555
H8 C16 1_555 1_555
H9 C16 1_555 1_555
C17 O6 1_555 1_555
H10 C17 1_555 1_555
H11 C17 1_555 1_555
H12 C17 1_555 1_555
H13 O5 1_555 1_555
O10 H14 1_555 1_555
H15 O10 1_555 1_555
Cs1_2 O9 1_555 1_555
Cs1_3 O4 1_555 1_555
Cs1A O6 1_555 1_555
O4_2 Cs1 1_555 1_555
O5_2 Cs1 1_555 1_555
O6A Cs1 1_555 1_555
O7_2 Cs1 1_555 1_555
O7A Cs1 1_555 1_555
O9_2 Cs1 1_555 1_555
S1 O8 1_555 1_555
O5 Cs1_3 1_555 1_555
O7 Cs1A 1_555 1_555
C2 C3 1_555 1_555
C5 C6 1_555 1_555
C8 C9 1_555 1_555
C13 C14 1_555 1_555
C14 C15 1_555 1_555
Cs1A O7A 1_555 1_555

#END
