
#######################################################################
#
#                 Cambridge Crystallographic Data Centre
#                                CCDC 
#
#######################################################################
#
# If this CIF has been generated from an entry in the Cambridge 
# Structural Database, then it will include bibliographic, chemical, 
# crystal, experimental, refinement or atomic coordinate data resulting 
# from the CCDC's data processing and validation procedures.
#
#######################################################################

data_GOTZAS
_symmetry_cell_setting           triclinic
_symmetry_space_group_name_H-M   'P -1'
_symmetry_Int_Tables_number      2
_space_group_name_Hall           '-P 1'
loop_
_symmetry_equiv_pos_site_id
_symmetry_equiv_pos_as_xyz
1 x,y,z
2 -x,-y,-z
_cell_length_a                   6.372(3)
_cell_length_b                   11.366(6)
_cell_length_c                   12.573(6)
_cell_angle_alpha                92.545(9)
_cell_angle_beta                 98.373(10)
_cell_angle_gamma                94.658(9)
_cell_volume                     896.446
loop_
_atom_site_label
_atom_site_type_symbol
_atom_site_fract_x
_atom_site_fract_y
_atom_site_fract_z
Rb1 Rb 1.28588(9) 1.14202(5) 0.04775(4)
S1 S 1.2332(2) 0.78404(11) 0.06645(10)
O1 O 1.2156(6) 0.8847(3) -0.0005(3)
O2 O 1.4364(6) 0.7346(3) 0.0748(3)
O3 O 1.0521(6) 0.6952(3) 0.0346(3)
O4 O 1.5062(6) 0.9712(3) 0.1973(3)
O5 O 1.0038(6) 0.8121(3) 0.5860(3)
O6 O 0.4921(5) 0.6670(3) 0.3759(2)
O7 O 0.8082(6) 0.7585(3) 0.7423(3)
H1 H 0.9056 0.7867 0.7127
O8 O 0.4552(6) 0.6514(3) 0.8089(3)
O9 O 0.1295(7) 0.5444(4) 0.6556(3)
C1 C 1.2061(8) 0.8362(4) 0.1991(4)
C2 C 1.0477(8) 0.7858(4) 0.2493(4)
H2 H 0.9543 0.7253 0.2127
C3 C 1.0216(8) 0.8223(4) 0.3539(4)
C4 C 1.1679(8) 0.9111(4) 0.4053(4)
H3 H 1.1558 0.9375 0.4751
C5 C 1.3317(9) 0.9617(4) 0.3564(4)
H4 H 1.4281 1.0203 0.3938
C6 C 1.3529(8) 0.9255(4) 0.2521(4)
C7 C 1.6797(8) 1.0473(4) 0.2552(4)
H5 H 1.7632 1.0029 0.3062
H6 H 1.6248 1.1106 0.2927
H7 H 1.7673 1.0793 0.2056
C8 C 0.6629(8) 0.7206(4) 0.3408(4)
H8 H 0.6580 0.7240 0.2667
C9 C 0.8412(8) 0.7699(4) 0.4037(4)
C10 C 0.8490(8) 0.7679(4) 0.5201(4)
C11 C 0.6631(8) 0.7131(4) 0.5569(4)
C12 C 0.4881(8) 0.6615(4) 0.4843(4)
C13 C 0.3105(8) 0.6057(4) 0.5154(4)
H9 H 0.1978 0.5725 0.4648
C14 C 0.3037(8) 0.6001(4) 0.6248(4)
C15 C 0.4727(8) 0.6517(4) 0.6999(4)
C16 C 0.6492(8) 0.7074(4) 0.6668(4)
C17 C 0.5687(11) 0.5609(5) 0.8624(5)
H10 H 0.5519 0.5640 0.9371
H11 H 0.7171 0.5736 0.8562
H12 H 0.5127 0.4848 0.8296
H13 H 0.142(12) 0.549(6) 0.716(5)
Rb1A Rb 0.71412(9) 0.85798(5) -0.04775(4)
Rb1A_2 Rb 0.71412(9) 0.85798(5) 0.95225(4)
Rb1A_3 Rb 1.71412(9) 0.85798(5) -0.04775(4)
O1A O 0.7844(6) 1.1153(3) 0.0005(3)
O1A_2 O 1.7844(6) 1.1153(3) 0.0005(3)
O2A O 1.5636(6) 1.2654(3) -0.0748(3)
O3A O 0.9479(6) 1.3048(3) -0.0346(3)
O7A O 1.1918(6) 1.2415(3) 0.2577(3)
O8A O 1.5448(6) 1.3486(3) 0.1911(3)
O10 O 0.0858(8) 0.5111(4) 0.8642(3)
H14 H 0.039(11) 0.453(4) 0.893(5)
H15 H 0.103(12) 0.560(5) 0.915(4)
loop_
_geom_bond_atom_site_label_1
_geom_bond_atom_site_label_2
_geom_bond_site_symmetry_1
_geom_bond_site_symmetry_2
Rb1 O1 1_555 1_555
S1 O1 1_555 1_555
O1 Rb1A 1_555 1_555
O2 S1 1_555 1_555
O3 S1 1_555 1_555
O4 Rb1 1_555 1_555
O5 C10 1_555 1_555
O6 C8 1_555 1_555
O7 H1 1_555 1_555
O8 C15 1_555 1_555
O9 C14 1_555 1_555
C1 S1 1_555 1_555
C2 C1 1_555 1_555
H2 C2 1_555 1_555
C3 C2 1_555 1_555
C4 C3 1_555 1_555
H3 C4 1_555 1_555
C5 C4 1_555 1_555
H4 C5 1_555 1_555
C6 O4 1_555 1_555
C7 O4 1_555 1_555
H5 C7 1_555 1_555
H6 C7 1_555 1_555
H7 C7 1_555 1_555
C8 H8 1_555 1_555
C9 C3 1_555 1_555
C10 C9 1_555 1_555
C11 C10 1_555 1_555
C12 O6 1_555 1_555
C13 C12 1_555 1_555
H9 C13 1_555 1_555
C14 C13 1_555 1_555
C15 C14 1_555 1_555
C16 O7 1_555 1_555
C17 O8 1_555 1_555
H10 C17 1_555 1_555
H11 C17 1_555 1_555
H12 C17 1_555 1_555
H13 O9 1_555 1_555
O10 H14 1_555 1_555
H15 O10 1_555 1_555
Rb1A O3 1_555 1_555
Rb1A_2 O7 1_555 1_555
Rb1A_3 O1 1_555 1_555
O1A Rb1 1_555 1_555
O1A_2 Rb1 1_555 1_555
O2A Rb1 1_555 1_555
O3A Rb1 1_555 1_555
O7A Rb1 1_555 1_555
O8A Rb1 1_555 1_555
O2 Rb1A_3 1_555 1_555
O8 Rb1A_2 1_555 1_555
C1 C6 1_555 1_555
C5 C6 1_555 1_555
C8 C9 1_555 1_555
C11 C12 1_555 1_555
C11 C16 1_555 1_555
C15 C16 1_555 1_555
Rb1A O1A 1_555 1_555
Rb1A_3 O1A_2 1_555 1_555

#END
