
#######################################################################
#
#                 Cambridge Crystallographic Data Centre
#                                CCDC 
#
#######################################################################
#
# If this CIF has been generated from an entry in the Cambridge 
# Structural Database, then it will include bibliographic, chemical, 
# crystal, experimental, refinement or atomic coordinate data resulting 
# from the CCDC's data processing and validation procedures.
#
#######################################################################

data_GOTZEW
_symmetry_cell_setting           triclinic
_symmetry_space_group_name_H-M   'P -1'
_symmetry_Int_Tables_number      2
_space_group_name_Hall           '-P 1'
loop_
_symmetry_equiv_pos_site_id
_symmetry_equiv_pos_as_xyz
1 x,y,z
2 -x,-y,-z
_cell_length_a                   9.4967(19)
_cell_length_b                   10.756(2)
_cell_length_c                   11.336(2)
_cell_angle_alpha                107.58(3)
_cell_angle_beta                 114.17(3)
_cell_angle_gamma                100.47(3)
_cell_volume                     942.958
loop_
_atom_site_label
_atom_site_type_symbol
_atom_site_fract_x
_atom_site_fract_y
_atom_site_fract_z
Cl1 Cl 0.4349(8) 0.2520(8) 0.4652(8)
N4 N 0.3605(16) 0.000(2) 0.3844(19)
C12 C 0.6173(19) 0.117(2) 0.6084(19)
H9 H 0.6936 0.2022 0.6821
C13 C 0.474(2) 0.1141(16) 0.486(3)
Cl1A Cl 0.5651(8) -0.2520(8) 0.5348(8)
N4A N 0.6395(16) 0.000(2) 0.6156(19)
C12A C 0.3827(19) -0.117(2) 0.3916(19)
H9A H 0.3064 -0.2022 0.3179
C13A C 0.526(2) -0.1141(16) 0.514(3)
Cl2 Cl 0.3490(14) 1.0789(9) 0.0934(9)
N5 N 0.085(3) 1.125(2) 0.076(2)
C14 C 0.078(3) 0.9001(19) -0.025(2)
H10 H 0.1255 0.8318 -0.0365
C15 C 0.162(3) 1.037(3) 0.044(2)
Cl2A Cl -0.3490(14) 0.9211(9) -0.0934(9)
N5A N -0.085(3) 0.875(2) -0.076(2)
C14A C -0.078(3) 1.0999(19) 0.025(2)
H10A H -0.1255 1.1682 0.0365
C15A C -0.162(3) 0.963(3) -0.044(2)
Fe1 Fe 0.5000 0.5000 0.0000
S1 S 0.8614(3) 0.4925(3) -0.2038(3)
S2 S 1.03668(18) 0.17140(16) 0.43160(17)
S3 S 0.91683(19) 0.28429(15) 0.50622(15)
N1 N 0.6766(6) -0.2768(5) 0.1454(5)
N2 N 0.6525(6) 0.4688(5) -0.0907(5)
N3 N 0.6469(5) 0.4360(5) 0.1706(5)
C1 C 0.8149(6) 0.3401(5) 0.3718(5)
C2 C 0.7374(7) 0.3585(6) 0.1517(6)
H1 H 0.7441 0.3364 0.0687
C3 C 0.8213(7) 0.3093(6) 0.2480(6)
H2 H 0.8822 0.2554 0.2291
C4 C 0.8362(7) -0.2372(6) 0.1820(6)
H3 H 0.8763 -0.3042 0.1480
C5 C 0.7245(8) 0.4239(6) 0.3960(6)
H4 H 0.7196 0.4496 0.4798
C6 C 0.6246(7) -0.1749(6) 0.1998(7)
H5 H 0.5148 -0.1995 0.1776
C7 C 0.8879(7) 0.0002(5) 0.3204(5)
C8 C 0.7382(7) 0.4769(6) -0.1382(6)
C9 C 0.7249(7) -0.0388(6) 0.2853(7)
H6 H 0.6832 0.0267 0.3193
C10 C 0.6434(7) 0.4676(6) 0.2947(6)
H7 H 0.5822 0.5221 0.3116
C11 C 0.9431(7) -0.1026(6) 0.2672(6)
H8 H 1.0528 -0.0800 0.2893
S2A S -0.03668(18) -0.17140(16) -0.43160(17)
S3A S 0.08317(19) -0.28429(15) -0.50622(15)
N1A N 0.3234(6) 0.2768(5) -0.1454(5)
N3A N 0.3531(5) -0.4360(5) -0.1706(5)
C1A C 0.1851(6) -0.3401(5) -0.3718(5)
C2A C 0.2626(7) -0.3585(6) -0.1517(6)
H1A H 0.2559 -0.3364 -0.0687
C3A C 0.1787(7) -0.3093(6) -0.2480(6)
H2A H 0.1178 -0.2554 -0.2291
C4A C 0.1638(7) 0.2372(6) -0.1820(6)
H3A H 0.1237 0.3042 -0.1480
C5A C 0.2755(8) -0.4239(6) -0.3960(6)
H4A H 0.2804 -0.4496 -0.4798
C6A C 0.3754(7) 0.1749(6) -0.1998(7)
H5A H 0.4852 0.1995 -0.1776
C7A C 0.1121(7) -0.0002(5) -0.3204(5)
C9A C 0.2751(7) 0.0388(6) -0.2853(7)
H6A H 0.3168 -0.0267 -0.3193
C10A C 0.3566(7) -0.4676(6) -0.2947(6)
H7A H 0.4178 -0.5221 -0.3116
C11A C 0.0569(7) 0.1026(6) -0.2672(6)
H8A H -0.0528 0.0800 -0.2893
S1A S 0.1386(3) 0.5075(3) 0.2038(3)
N2A N 0.3475(6) 0.5312(5) 0.0907(5)
C8A C 0.2618(7) 0.5231(6) 0.1382(6)
Fe1_2 Fe 0.5000 -0.5000 0.0000
N1_2 N 0.6766(6) 0.7232(5) 0.1454(5)
N3A_2 N 0.3531(5) 0.5640(5) -0.1706(5)
loop_
_geom_bond_atom_site_label_1
_geom_bond_atom_site_label_2
_geom_bond_site_symmetry_1
_geom_bond_site_symmetry_2
Fe1 N2 1_555 1_555
S1 C8 1_555 1_555
S2 S3 1_555 1_555
S3 C1 1_555 1_555
N1 C4 1_555 1_555
N2 C8 1_555 1_555
N3 Fe1 1_555 1_555
C1 C3 1_555 1_555
C2 N3 1_555 1_555
H1 C2 1_555 1_555
C3 C2 1_555 1_555
H2 C3 1_555 1_555
C4 H3 1_555 1_555
C5 C1 1_555 1_555
H4 C5 1_555 1_555
C6 N1 1_555 1_555
H5 C6 1_555 1_555
C7 S2 1_555 1_555
C9 C6 1_555 1_555
H6 C9 1_555 1_555
C10 N3 1_555 1_555
H7 C10 1_555 1_555
C11 C4 1_555 1_555
H8 C11 1_555 1_555
Cl1 C13 1_555 1_555
N4 C13 1_555 1_555
C12 H9 1_555 1_555
C13 C12 1_555 1_555
Cl2 C15 1_555 1_555
N5 C15 1_555 1_555
C14 H10 1_555 1_555
C15 C14 1_555 1_555
S2A S3A 1_555 1_555
S3A C1A 1_555 1_555
N1A Fe1 1_555 1_555
N3A C2A 1_555 1_555
C1A C3A 1_555 1_555
C2A H1A 1_555 1_555
C3A C2A 1_555 1_555
H2A C3A 1_555 1_555
C4A N1A 1_555 1_555
H3A C4A 1_555 1_555
C5A C1A 1_555 1_555
H4A C5A 1_555 1_555
C6A N1A 1_555 1_555
H5A C6A 1_555 1_555
C7A S2A 1_555 1_555
C9A C6A 1_555 1_555
H6A C9A 1_555 1_555
C10A N3A 1_555 1_555
H7A C10A 1_555 1_555
C11A C4A 1_555 1_555
H8A C11A 1_555 1_555
S1A C8A 1_555 1_555
N2A Fe1 1_555 1_555
C8A N2A 1_555 1_555
Fe1_2 N1 1_555 1_555
N1_2 Fe1 1_555 1_555
N3A_2 Fe1 1_555 1_555
Cl1A C13A 1_555 1_555
N4A C12 1_555 1_555
C12A N4 1_555 1_555
H9A C12A 1_555 1_555
C13A N4A 1_555 1_555
Cl2A C15A 1_555 1_555
N5A C14 1_555 1_555
C14A N5 1_555 1_555
H10A C14A 1_555 1_555
C15A N5A 1_555 1_555
C5 C10 1_555 1_555
C7 C9 1_555 1_555
C7 C11 1_555 1_555
N3A Fe1_2 1_555 1_555
C5A C10A 1_555 1_555
C7A C9A 1_555 1_555
C7A C11A 1_555 1_555
C12A C13A 1_555 1_555
C14A C15A 1_555 1_555

#END
