
#######################################################################
#
#                 Cambridge Crystallographic Data Centre
#                                CCDC 
#
#######################################################################
#
# If this CIF has been generated from an entry in the Cambridge 
# Structural Database, then it will include bibliographic, chemical, 
# crystal, experimental, refinement or atomic coordinate data resulting 
# from the CCDC's data processing and validation procedures.
#
#######################################################################

data_GOVFEC
_symmetry_cell_setting           triclinic
_symmetry_space_group_name_H-M   'P -1'
_symmetry_Int_Tables_number      2
_space_group_name_Hall           '-P 1'
loop_
_symmetry_equiv_pos_site_id
_symmetry_equiv_pos_as_xyz
1 x,y,z
2 -x,-y,-z
_cell_length_a                   4.7239(5)
_cell_length_b                   7.902(1)
_cell_length_c                   10.552(2)
_cell_angle_alpha                105.80(1)
_cell_angle_beta                 98.864(7)
_cell_angle_gamma                104.69(1)
_cell_volume                     355.926
loop_
_atom_site_label
_atom_site_type_symbol
_atom_site_fract_x
_atom_site_fract_y
_atom_site_fract_z
Mn1 Mn 0.5000 0.5000 0.0000
O1 O 0.2570(3) 0.3952(3) 0.1314(2)
O2 O -0.2196(3) 0.3139(2) 0.0155(2)
O3 O -0.6438(4) -0.0459(3) 0.3271(2)
O4 O 0.2790(3) 0.3376(3) 0.5658(2)
N1 N -0.1908(4) 0.1545(3) 0.4445(2)
N2 N 0.1182(4) 0.3420(3) 0.3534(2)
C1 C -0.1326(5) 0.3048(4) 0.2394(3)
C2 C -0.3375(6) 0.1093(4) 0.2045(3)
C3 C -0.4095(5) 0.0651(3) 0.3271(3)
C4 C 0.0850(5) 0.2852(3) 0.4590(2)
C5 C -0.0215(5) 0.3369(3) 0.1171(2)
O5 O 0.7961(4) 0.7040(3) 0.1854(2)
H1 H -0.232(6) 0.131(4) 0.514(3)
H2 H 0.282(5) 0.421(4) 0.364(3)
H3 H -0.269(5) 0.390(3) 0.274(3)
H4 H -0.502(8) 0.087(5) 0.148(4)
H5 H -0.211(7) 0.011(5) 0.183(4)
H6 H 0.978(9) 0.756(6) 0.209(5)
H7 H 0.764(8) 0.714(6) 0.258(5)
O2_2 O 0.7804(3) 0.3139(2) 0.0155(2)
Mn1_2 Mn -0.5000 0.5000 0.0000
O1A O -0.2570(3) 0.6048(3) -0.1314(2)
C5A C 0.0215(5) 0.6631(3) -0.1171(2)
O2A O 0.2196(3) 0.6861(2) -0.0155(2)
O1A_2 O 0.7430(3) 0.6048(3) -0.1314(2)
O5A O 0.2039(4) 0.2960(3) -0.1854(2)
H6A H 0.022(9) 0.244(6) -0.209(5)
H7A H 0.236(8) 0.286(6) -0.258(5)
C1A C 0.1326(5) 0.6952(4) -0.2394(3)
N2A N -0.1182(4) 0.6580(3) -0.3534(2)
C4A C -0.0850(5) 0.7148(3) -0.4590(2)
O4A O -0.2790(3) 0.6624(3) -0.5658(2)
N1A N 0.1908(4) 0.8455(3) -0.4445(2)
C3A C 0.4095(5) 0.9349(3) -0.3271(3)
O3A O 0.6438(4) 1.0459(3) -0.3271(2)
C2A C 0.3375(6) 0.8907(4) -0.2045(3)
H3A H 0.269(5) 0.610(3) -0.274(3)
H4A H 0.502(8) 0.913(5) -0.148(4)
H5A H 0.211(7) 0.989(5) -0.183(4)
H1A H 0.232(6) 0.869(4) -0.514(3)
H2A H -0.282(5) 0.579(4) -0.364(3)
loop_
_geom_bond_atom_site_label_1
_geom_bond_atom_site_label_2
_geom_bond_site_symmetry_1
_geom_bond_site_symmetry_2
Mn1 O1 1_555 1_555
O1 C5 1_555 1_555
O2 C5 1_555 1_555
O3 C3 1_555 1_555
O4 C4 1_555 1_555
N1 C3 1_555 1_555
N2 C1 1_555 1_555
C1 C2 1_555 1_555
C2 C3 1_555 1_555
C4 N1 1_555 1_555
C5 C1 1_555 1_555
O5 Mn1 1_555 1_555
H1 N1 1_555 1_555
H2 N2 1_555 1_555
H3 C1 1_555 1_555
H4 C2 1_555 1_555
H5 C2 1_555 1_555
H6 O5 1_555 1_555
H7 O5 1_555 1_555
O2_2 Mn1 1_555 1_555
Mn1_2 O2 1_555 1_555
O1A Mn1_2 1_555 1_555
C5A O1A 1_555 1_555
O2A Mn1 1_555 1_555
O1A_2 Mn1 1_555 1_555
O5A Mn1 1_555 1_555
H6A O5A 1_555 1_555
H7A O5A 1_555 1_555
C1A C5A 1_555 1_555
N2A C1A 1_555 1_555
C4A N2A 1_555 1_555
O4A C4A 1_555 1_555
N1A C4A 1_555 1_555
C3A N1A 1_555 1_555
O3A C3A 1_555 1_555
C2A C1A 1_555 1_555
H3A C1A 1_555 1_555
H4A C2A 1_555 1_555
H5A C2A 1_555 1_555
H1A N1A 1_555 1_555
H2A N2A 1_555 1_555
N2 C4 1_555 1_555
C5A O2A 1_555 1_555
C3A C2A 1_555 1_555

#END
