
#######################################################################
#
#                 Cambridge Crystallographic Data Centre
#                                CCDC 
#
#######################################################################
#
# If this CIF has been generated from an entry in the Cambridge 
# Structural Database, then it will include bibliographic, chemical, 
# crystal, experimental, refinement or atomic coordinate data resulting 
# from the CCDC's data processing and validation procedures.
#
#######################################################################

data_GOVGUV
_symmetry_cell_setting           triclinic
_symmetry_space_group_name_H-M   'P -1'
_symmetry_Int_Tables_number      2
_space_group_name_Hall           '-P 1'
loop_
_symmetry_equiv_pos_site_id
_symmetry_equiv_pos_as_xyz
1 x,y,z
2 -x,-y,-z
_cell_length_a                   13.154(19)
_cell_length_b                   16.62(2)
_cell_length_c                   32.83(5)
_cell_angle_alpha                83.342(19)
_cell_angle_beta                 87.62(2)
_cell_angle_gamma                73.813(18)
_cell_volume                     6845.94
loop_
_atom_site_label
_atom_site_type_symbol
_atom_site_fract_x
_atom_site_fract_y
_atom_site_fract_z
Cl2 Cl 0.4960(8) 0.2403(7) 0.6027(2)
Zn1 Zn 0.36687(14) -0.03192(10) 0.19131(6)
Cl3 Cl 0.5037(3) -0.07476(19) 0.14824(12)
Cl4 Cl 0.4149(3) 0.0117(3) 0.24971(13)
Cl5 Cl 0.2422(3) 0.0823(3) 0.16152(16)
Cl6 Cl 0.3231(9) -0.1507(6) 0.2167(4)
Zn2 Zn 0.21428(14) 0.44125(10) 0.45989(6)
Cl7 Cl 0.2059(3) 0.4138(2) 0.39518(11)
Cl8 Cl 0.3598(3) 0.4808(2) 0.46919(15)
Cl9 Cl 0.2075(5) 0.3310(3) 0.50638(15)
Cl10 Cl 0.0627(5) 0.5539(4) 0.4657(2)
Zn3 Zn 1.00303(16) 0.81062(11) 0.15438(7)
Cl11 Cl 1.0530(3) 0.9222(3) 0.16876(16)
Cl12 Cl 1.0826(5) 0.7575(4) 0.0986(2)
Cl13 Cl 0.8255(4) 0.8595(4) 0.1439(3)
Cl14 Cl 1.0623(7) 0.7037(6) 0.2052(4)
O1 O 1.1029(5) -0.0035(5) 0.5140(2)
O2 O 1.0764(8) -0.0304(9) 0.6077(2)
O3 O 0.5187(6) 0.2083(5) 0.3151(2)
O4 O 0.5216(7) 0.4981(5) 0.3194(3)
O5 O 0.3715(7) 0.3804(7) 0.3223(3)
O6 O 0.7276(5) 0.2236(4) 0.2990(2)
O7 O 0.7017(6) 0.3959(4) 0.2637(2)
O8 O 0.9220(10) 0.3799(6) 0.2036(3)
O9 O 0.7201(10) 0.3803(6) 0.1753(3)
O10 O 0.3884(7) 0.5211(5) -0.0109(3)
Ca1 Ca 0.94899(15) 0.07525(12) 0.55355(6)
Ca2 Ca 0.56906(18) 0.34455(13) 0.31346(6)
Ca3 Ca 0.82068(17) 0.27213(13) 0.22734(7)
Ca4 Ca 0.46708(18) 0.64250(14) -0.01846(7)
C1 C 0.9404(9) 0.2457(6) 0.4764(3)
C2 C 0.9474(8) 0.3545(5) 0.4233(3)
H1 H 0.9921 0.3930 0.4252
C3 C 0.8379(7) 0.3812(6) 0.4490(3)
H2 H 0.8295 0.4345 0.4612
C4 C 0.7980(8) 0.3744(6) 0.3800(4)
C5 C 0.7826(7) 0.3091(6) 0.5174(3)
H3 H 0.7580 0.3670 0.5246
H4 H 0.8231 0.2740 0.5406
C6 C 0.6467(7) 0.4172(5) 0.4279(3)
H5 H 0.6339 0.4614 0.4463
H6 H 0.6103 0.4423 0.4021
C7 C 0.6946(9) 0.1950(7) 0.5183(3)
C8 C 0.5914(7) 0.3293(6) 0.4918(3)
H7 H 0.5572 0.3789 0.5064
C9 C 0.5220(7) 0.2647(5) 0.4930(3)
H8 H 0.4589 0.2808 0.5110
C10 C 0.5402(8) 0.3174(6) 0.4236(4)
C11 C 0.5737(7) 0.1026(6) 0.5154(3)
H9 H 0.6120 0.0691 0.5394
H10 H 0.4979 0.1100 0.5204
C12 C 0.4275(8) 0.2203(6) 0.4363(3)
H11 H 0.3829 0.2522 0.4134
H12 H 0.3809 0.2092 0.4590
C13 C 0.6551(7) -0.0309(6) 0.4802(4)
C14 C 0.6022(6) 0.0992(6) 0.4364(3)
H13 H 0.6480 0.1378 0.4319
C15 C 0.6395(7) 0.0203(5) 0.4102(3)
H14 H 0.6978 0.0258 0.3910
C16 C 0.4653(9) 0.0974(7) 0.3925(3)
C17 C 0.7135(8) -0.1347(6) 0.4332(3)
H15 H 0.6545 -0.1599 0.4329
H16 H 0.7617 -0.1664 0.4551
C18 C 0.5457(8) -0.0231(7) 0.3542(4)
H17 H 0.5134 -0.0686 0.3634
H18 H 0.5020 0.0131 0.3321
C19 C 0.8789(11) -0.1612(6) 0.3915(4)
C20 C 0.7192(8) -0.1399(6) 0.3534(3)
H19 H 0.6846 -0.1858 0.3538
C21 C 0.8170(7) -0.1514(6) 0.3224(3)
H20 H 0.8193 -0.1953 0.3041
C22 C 0.7014(9) -0.0146(7) 0.3094(3)
C23 C 1.0170(8) -0.2057(6) 0.3364(3)
H21 H 1.0585 -0.2426 0.3589
H22 H 1.0185 -0.2399 0.3139
C24 C 0.8612(8) -0.0499(6) 0.2641(3)
H23 H 0.8813 -0.0992 0.2487
H24 H 0.8168 -0.0031 0.2462
C25 C 1.1235(7) -0.1096(5) 0.3483(3)
C26 C 1.0610(7) -0.0934(5) 0.2813(3)
H25 H 1.0819 -0.1308 0.2592
C27 C 1.1382(7) -0.0350(6) 0.2840(3)
H26 H 1.2024 -0.0531 0.2668
C28 C 0.9676(10) 0.0536(7) 0.2641(3)
C29 C 1.2340(7) -0.0089(6) 0.3481(3)
H27 H 1.2600 -0.0436 0.3738
H28 H 1.2954 -0.0075 0.3304
C30 C 1.1103(8) 0.1239(6) 0.2600(3)
H29 H 1.1847 0.1078 0.2512
H30 H 1.0689 0.1602 0.2374
C31 C 1.1430(7) 0.0938(6) 0.3946(3)
C32 C 1.1806(7) 0.1511(5) 0.3290(3)
H31 H 1.2523 0.1491 0.3180
C33 C 1.1386(7) 0.2250(6) 0.3555(3)
H32 H 1.1885 0.2597 0.3561
C34 C 1.0196(8) 0.2407(6) 0.3015(3)
C35 C 1.1073(7) 0.2221(6) 0.4349(3)
H33 H 1.1325 0.1793 0.4582
H34 H 1.1503 0.2620 0.4335
C36 C 0.9739(8) 0.3584(6) 0.3462(3)
H35 H 1.0234 0.3911 0.3504
H36 H 0.9301 0.3874 0.3226
N1 N 0.9984(6) 0.2665(4) 0.4424(2)
N2 N 0.8526(6) 0.3070(5) 0.4811(2)
N3 N 0.9067(6) 0.3596(5) 0.3814(2)
N4 N 0.7594(6) 0.3889(5) 0.4195(2)
N5 N 0.6895(6) 0.2786(5) 0.5106(3)
N6 N 0.5955(6) 0.1869(5) 0.5095(2)
N7 N 0.6006(6) 0.3517(5) 0.4461(2)
N8 N 0.4914(6) 0.2701(5) 0.4490(2)
N9 N 0.6073(6) 0.0575(5) 0.4787(3)
N10 N 0.6740(7) -0.0491(5) 0.4412(3)
N11 N 0.4929(6) 0.1396(5) 0.4234(3)
N12 N 0.5441(7) 0.0270(5) 0.3886(3)
N13 N 0.7702(7) -0.1409(5) 0.3934(3)
N14 N 0.9072(6) -0.1756(5) 0.3505(3)
N15 N 0.6506(6) -0.0595(5) 0.3379(3)
N16 N 0.7969(6) -0.0687(5) 0.3003(3)
N17 N 1.0675(6) -0.1409(5) 0.3227(3)
N18 N 1.1646(6) -0.0488(5) 0.3276(2)
N19 N 0.9559(6) -0.0283(5) 0.2732(3)
N20 N 1.0743(5) 0.0481(5) 0.2688(2)
N21 N 1.1812(6) 0.0753(5) 0.3570(3)
N22 N 1.1232(6) 0.1811(5) 0.3972(3)
N23 N 1.1004(6) 0.1714(5) 0.2952(2)
N24 N 1.0372(5) 0.2729(4) 0.3355(3)
O11 O 0.9709(5) 0.1759(4) 0.50005(19)
O12 O 0.7692(5) 0.1361(4) 0.5330(2)
O13 O 0.6757(6) -0.0802(4) 0.5141(2)
O14 O 0.9371(5) -0.1672(4) 0.4201(2)
O15 O 1.1385(5) -0.1330(4) 0.3874(2)
O16 O 1.1371(5) 0.0412(4) 0.4247(2)
O17 O 0.7483(6) 0.3769(5) 0.3487(2)
O18 O 0.5341(5) 0.3260(4) 0.3854(2)
O19 O 0.3770(5) 0.1226(4) 0.3737(2)
O20 O 0.6636(5) 0.0605(4) 0.2933(2)
O21 O 0.8962(5) 0.1160(4) 0.2522(2)
O22 O 0.9404(5) 0.2732(4) 0.2784(2)
C37 C 0.4337(9) 0.3773(7) 0.2175(4)
C38 C 0.2968(8) 0.4423(6) 0.1705(3)
H37 H 0.2213 0.4656 0.1777
C39 C 0.3263(8) 0.3454(6) 0.1700(3)
H38 H 0.2664 0.3222 0.1790
C40 C 0.3573(7) 0.4071(6) 0.1040(3)
C41 C 0.4652(8) 0.2256(6) 0.2115(3)
H39 H 0.4088 0.1974 0.2159
H40 H 0.5007 0.2198 0.2378
C42 C 0.3659(7) 0.2531(6) 0.1091(3)
H41 H 0.3147 0.2259 0.1230
H42 H 0.3466 0.2668 0.0801
C43 C 0.6507(9) 0.1731(7) 0.1866(4)
C44 C 0.5203(8) 0.1384(6) 0.1492(3)
H43 H 0.4777 0.0996 0.1595
C45 C 0.6304(8) 0.0886(6) 0.1327(3)
H44 H 0.6424 0.0267 0.1374
C46 C 0.5390(9) 0.1814(7) 0.0804(4)
C47 C 0.8207(7) 0.0855(5) 0.1577(3)
H45 H 0.8459 0.0911 0.1846
H46 H 0.8404 0.0253 0.1541
C48 C 0.7144(8) 0.0914(6) 0.0603(3)
H47 H 0.6836 0.0999 0.0329
H48 H 0.7456 0.0307 0.0670
C49 C 0.9261(8) 0.1809(8) 0.1375(4)
C50 C 0.8941(7) 0.1049(6) 0.0850(3)
H49 H 0.9315 0.0444 0.0843
C51 C 0.9620(8) 0.1645(7) 0.0657(3)
H50 H 1.0273 0.1338 0.0519
C52 C 0.7967(10) 0.2101(7) 0.0327(3)
C53 C 1.0592(7) 0.2535(6) 0.1029(4)
H51 H 1.1165 0.2353 0.0831
H52 H 1.0907 0.2447 0.1302
C54 C 0.9198(9) 0.2921(6) 0.0099(3)
H53 H 0.8815 0.3012 -0.0159
H54 H 0.9958 0.2736 0.0039
C55 C 1.0341(9) 0.4058(6) 0.1100(3)
C56 C 0.9004(7) 0.3760(6) 0.0736(3)
H55 H 0.8496 0.3495 0.0890
C57 C 0.8701(8) 0.4724(6) 0.0774(3)
H56 H 0.8006 0.4916 0.0913
C58 C 0.8799(7) 0.4478(7) 0.0068(4)
C59 C 0.9650(8) 0.5616(6) 0.1140(3)
H57 H 1.0075 0.5865 0.0938
H58 H 1.0000 0.5516 0.1406
C60 C 0.8431(8) 0.6011(6) 0.0223(3)
H59 H 0.9099 0.6167 0.0215
H60 H 0.8131 0.6157 -0.0053
C61 C 0.7957(9) 0.6124(6) 0.1497(4)
C62 C 0.8058(9) 0.6836(6) 0.0845(4)
H61 H 0.8473 0.7240 0.0757
C63 C 0.6979(8) 0.7270(5) 0.1047(3)
H62 H 0.6930 0.7861 0.1088
C64 C 0.6656(9) 0.6746(6) 0.0437(4)
C65 C 0.6165(8) 0.6944(6) 0.1759(3)
H63 H 0.5898 0.7558 0.1754
H64 H 0.6488 0.6721 0.2027
C66 C 0.5042(8) 0.7609(6) 0.0775(3)
H65 H 0.4920 0.8133 0.0902
H66 H 0.4736 0.7752 0.0500
C67 C 0.5070(9) 0.5955(6) 0.1987(3)
C68 C 0.4337(7) 0.7061(6) 0.1470(3)
H67 H 0.4046 0.7640 0.1547
C69 C 0.3543(7) 0.6505(6) 0.1581(3)
H68 H 0.2829 0.6849 0.1653
C70 C 0.4087(8) 0.6477(6) 0.0878(4)
C71 C 0.3563(8) 0.5333(6) 0.2177(3)
H69 H 0.3884 0.5216 0.2450
H70 H 0.2807 0.5609 0.2212
C72 C 0.2819(7) 0.5612(5) 0.1116(3)
H71 H 0.2139 0.5855 0.1249
H72 H 0.2692 0.5651 0.0821
N25 N 0.3675(6) 0.4544(5) 0.2016(2)
N26 N 0.4176(6) 0.3143(5) 0.1992(3)
N27 N 0.3206(6) 0.4726(5) 0.1274(2)
N28 N 0.3583(6) 0.3315(5) 0.1271(3)
N29 N 0.5425(6) 0.1818(5) 0.1819(3)
N30 N 0.7018(7) 0.1188(5) 0.1570(3)
N31 N 0.4718(6) 0.1934(4) 0.1124(3)
N32 N 0.6292(6) 0.1198(4) 0.0896(3)
N33 N 0.8720(6) 0.1277(5) 0.1268(3)
N34 N 0.9839(7) 0.2009(5) 0.1026(3)
N35 N 0.7994(6) 0.1328(5) 0.0585(2)
N36 N 0.8896(7) 0.2279(5) 0.0375(3)
N37 N 1.0060(6) 0.3457(5) 0.0925(3)
N38 N 0.9569(6) 0.4826(5) 0.1019(3)
N39 N 0.8947(7) 0.3714(5) 0.0291(3)
N40 N 0.8660(7) 0.5090(5) 0.0329(3)
N41 N 0.8590(7) 0.6192(5) 0.1169(3)
N42 N 0.6974(7) 0.6748(5) 0.1441(3)
N43 N 0.7734(7) 0.6487(5) 0.0493(3)
N44 N 0.6202(7) 0.7224(5) 0.0736(3)
N45 N 0.5265(6) 0.6593(5) 0.1712(2)
N46 N 0.4043(6) 0.5923(5) 0.1923(2)
N47 N 0.4495(6) 0.7053(5) 0.1020(3)
N48 N 0.3545(6) 0.6114(5) 0.1181(2)
O23 O 0.5031(5) 0.3675(4) 0.2454(2)
O24 O 0.6918(6) 0.2081(5) 0.2107(2)
O25 O 0.9262(5) 0.2096(4) 0.1708(2)
O26 O 1.1145(6) 0.3940(5) 0.1303(3)
O27 O 0.8138(5) 0.5589(4) 0.1823(2)
O28 O 0.5694(6) 0.5513(5) 0.2259(2)
O29 O 0.3768(5) 0.4161(4) 0.0658(2)
O30 O 0.5169(5) 0.2211(4) 0.0440(2)
O31 O 0.7210(6) 0.2492(5) 0.0101(2)
O32 O 0.8730(5) 0.4640(4) -0.0306(2)
O33 O 0.6177(6) 0.6550(4) 0.0158(2)
O34 O 0.4127(5) 0.6317(4) 0.0516(2)
O1A O 0.8971(5) 0.0035(5) 0.4860(2)
Ca1A Ca 1.05101(15) -0.07525(12) 0.44645(6)
Ca4A Ca 0.53292(18) 0.35750(14) 0.01846(7)
O14A O 1.0629(5) 0.1672(4) 0.5799(2)
O15A O 0.8615(5) 0.1330(4) 0.6126(2)
O16A O 0.8629(5) -0.0412(4) 0.5753(2)
O29A O 0.6232(5) 0.5839(4) -0.0658(2)
O30A O 0.4831(5) 0.7789(4) -0.0440(2)
O31A O 0.2790(6) 0.7508(5) -0.0101(2)
Cl15 Cl 0.3670(3) 0.6509(4) -0.09359(15)
Cl1 Cl 0.7726(6) 0.8321(5) -0.0084(3)
Cl16? Cl 0.4729(6) -0.0906(5) 0.2258(3)
loop_
_geom_bond_atom_site_label_1
_geom_bond_atom_site_label_2
_geom_bond_site_symmetry_1
_geom_bond_site_symmetry_2
Zn1 Cl3 1_555 1_555
Cl4 Zn1 1_555 1_555
Cl5 Zn1 1_555 1_555
Cl6 Zn1 1_555 1_555
Zn2 Cl7 1_555 1_555
Cl8 Zn2 1_555 1_555
Cl9 Zn2 1_555 1_555
Cl10 Zn2 1_555 1_555
Zn3 Cl11 1_555 1_555
Cl12 Zn3 1_555 1_555
Cl13 Zn3 1_555 1_555
Cl14 Zn3 1_555 1_555
O1 Ca1 1_555 1_555
O2 Ca1 1_555 1_555
O3 Ca2 1_555 1_555
O4 Ca2 1_555 1_555
O5 Ca2 1_555 1_555
O6 Ca2 1_555 1_555
O7 Ca2 1_555 1_555
O8 Ca3 1_555 1_555
O9 Ca3 1_555 1_555
O10 Ca4 1_555 1_555
Ca1 O11 1_555 1_555
Ca2 O18 1_555 1_555
Ca3 O6 1_555 1_555
Ca4 O33 1_555 1_555
C1 N1 1_555 1_555
C2 H1 1_555 1_555
C3 C2 1_555 1_555
H2 C3 1_555 1_555
C4 N3 1_555 1_555
C5 H3 1_555 1_555
H4 C5 1_555 1_555
C6 H5 1_555 1_555
H6 C6 1_555 1_555
C7 N5 1_555 1_555
C8 H7 1_555 1_555
C9 C8 1_555 1_555
H8 C9 1_555 1_555
C10 N7 1_555 1_555
C11 H9 1_555 1_555
H10 C11 1_555 1_555
C12 H11 1_555 1_555
H12 C12 1_555 1_555
C13 N9 1_555 1_555
C14 H13 1_555 1_555
C15 C14 1_555 1_555
H14 C15 1_555 1_555
C16 N11 1_555 1_555
C17 H15 1_555 1_555
H16 C17 1_555 1_555
C18 H17 1_555 1_555
H18 C18 1_555 1_555
C19 N13 1_555 1_555
C20 H19 1_555 1_555
C21 C20 1_555 1_555
H20 C21 1_555 1_555
C22 N15 1_555 1_555
C23 H21 1_555 1_555
H22 C23 1_555 1_555
C24 H23 1_555 1_555
H24 C24 1_555 1_555
C25 N17 1_555 1_555
C26 H25 1_555 1_555
C27 C26 1_555 1_555
H26 C27 1_555 1_555
C28 N19 1_555 1_555
C29 H27 1_555 1_555
H28 C29 1_555 1_555
C30 H29 1_555 1_555
H30 C30 1_555 1_555
C31 N21 1_555 1_555
C32 H31 1_555 1_555
C33 C32 1_555 1_555
H32 C33 1_555 1_555
C34 N23 1_555 1_555
C35 H33 1_555 1_555
H34 C35 1_555 1_555
C36 H35 1_555 1_555
H36 C36 1_555 1_555
N1 C2 1_555 1_555
N2 C1 1_555 1_555
N3 C2 1_555 1_555
N4 C3 1_555 1_555
N5 C5 1_555 1_555
N6 C7 1_555 1_555
N7 C6 1_555 1_555
N8 C9 1_555 1_555
N9 C11 1_555 1_555
N10 C13 1_555 1_555
N11 C12 1_555 1_555
N12 C15 1_555 1_555
N13 C17 1_555 1_555
N14 C19 1_555 1_555
N15 C18 1_555 1_555
N16 C21 1_555 1_555
N17 C23 1_555 1_555
N18 C25 1_555 1_555
N19 C24 1_555 1_555
N20 C27 1_555 1_555
N21 C29 1_555 1_555
N22 C31 1_555 1_555
N23 C30 1_555 1_555
N24 C33 1_555 1_555
O11 C1 1_555 1_555
O12 Ca1 1_555 1_555
O13 C13 1_555 1_555
O14 C19 1_555 1_555
O15 C25 1_555 1_555
O16 C31 1_555 1_555
O17 C4 1_555 1_555
O18 C10 1_555 1_555
O19 C16 1_555 1_555
O20 C22 1_555 1_555
O21 Ca3 1_555 1_555
O22 Ca3 1_555 1_555
C37 N25 1_555 1_555
C38 H37 1_555 1_555
C39 C38 1_555 1_555
H38 C39 1_555 1_555
C40 N27 1_555 1_555
C41 H39 1_555 1_555
H40 C41 1_555 1_555
C42 H41 1_555 1_555
H42 C42 1_555 1_555
C43 N29 1_555 1_555
C44 H43 1_555 1_555
C45 C44 1_555 1_555
H44 C45 1_555 1_555
C46 N31 1_555 1_555
C47 H45 1_555 1_555
H46 C47 1_555 1_555
C48 H47 1_555 1_555
H48 C48 1_555 1_555
C49 N33 1_555 1_555
C50 H49 1_555 1_555
C51 C50 1_555 1_555
H50 C51 1_555 1_555
C52 N35 1_555 1_555
C53 H51 1_555 1_555
H52 C53 1_555 1_555
C54 H53 1_555 1_555
H54 C54 1_555 1_555
C55 N37 1_555 1_555
C56 H55 1_555 1_555
C57 C56 1_555 1_555
H56 C57 1_555 1_555
C58 N39 1_555 1_555
C59 H57 1_555 1_555
H58 C59 1_555 1_555
C60 H59 1_555 1_555
H60 C60 1_555 1_555
C61 N41 1_555 1_555
C62 H61 1_555 1_555
C63 C62 1_555 1_555
H62 C63 1_555 1_555
C64 N43 1_555 1_555
C65 H63 1_555 1_555
H64 C65 1_555 1_555
C66 H65 1_555 1_555
H66 C66 1_555 1_555
C67 N45 1_555 1_555
C68 H67 1_555 1_555
C69 C68 1_555 1_555
H68 C69 1_555 1_555
C70 N47 1_555 1_555
C71 H69 1_555 1_555
H70 C71 1_555 1_555
C72 H71 1_555 1_555
H72 C72 1_555 1_555
N25 C38 1_555 1_555
N26 C37 1_555 1_555
N27 C38 1_555 1_555
N28 C39 1_555 1_555
N29 C41 1_555 1_555
N30 C43 1_555 1_555
N31 C42 1_555 1_555
N32 C45 1_555 1_555
N33 C47 1_555 1_555
N34 C49 1_555 1_555
N35 C48 1_555 1_555
N36 C51 1_555 1_555
N37 C53 1_555 1_555
N38 C55 1_555 1_555
N39 C54 1_555 1_555
N40 C57 1_555 1_555
N41 C59 1_555 1_555
N42 C61 1_555 1_555
N43 C60 1_555 1_555
N44 C63 1_555 1_555
N45 C65 1_555 1_555
N46 C67 1_555 1_555
N47 C66 1_555 1_555
N48 C69 1_555 1_555
O23 Ca2 1_555 1_555
O24 Ca3 1_555 1_555
O25 Ca3 1_555 1_555
O26 C55 1_555 1_555
O27 C61 1_555 1_555
O28 C67 1_555 1_555
O29 C40 1_555 1_555
O30 C46 1_555 1_555
O31 C52 1_555 1_555
O32 C58 1_555 1_555
O33 C64 1_555 1_555
O34 Ca4 1_555 1_555
O1A Ca1 1_555 1_555
Ca1A O1 1_555 1_555
Ca4A O29 1_555 1_555
O14A Ca1 1_555 1_555
O15A Ca1 1_555 1_555
O16A Ca1 1_555 1_555
O29A Ca4 1_555 1_555
O30A Ca4 1_555 1_555
O31A Ca4 1_555 1_555
O7 Ca3 1_555 1_555
C3 N2 1_555 1_555
C4 N4 1_555 1_555
C5 N2 1_555 1_555
C6 N4 1_555 1_555
C7 O12 1_555 1_555
C8 N5 1_555 1_555
C8 N7 1_555 1_555
C9 N6 1_555 1_555
C10 N8 1_555 1_555
C11 N6 1_555 1_555
C12 N8 1_555 1_555
C14 N9 1_555 1_555
C14 N11 1_555 1_555
C15 N10 1_555 1_555
C16 N12 1_555 1_555
C17 N10 1_555 1_555
C18 N12 1_555 1_555
C20 N13 1_555 1_555
C20 N15 1_555 1_555
C21 N14 1_555 1_555
C22 N16 1_555 1_555
C23 N14 1_555 1_555
C24 N16 1_555 1_555
C26 N17 1_555 1_555
C26 N19 1_555 1_555
C27 N18 1_555 1_555
C28 N20 1_555 1_555
C28 O21 1_555 1_555
C29 N18 1_555 1_555
C30 N20 1_555 1_555
C32 N21 1_555 1_555
C32 N23 1_555 1_555
C33 N22 1_555 1_555
C34 N24 1_555 1_555
C34 O22 1_555 1_555
C35 N1 1_555 1_555
C35 N22 1_555 1_555
C36 N3 1_555 1_555
C36 N24 1_555 1_555
O14 Ca1A 1_555 1_555
O15 Ca1A 1_555 1_555
O16 Ca1A 1_555 1_555
C37 O23 1_555 1_555
C39 N26 1_555 1_555
C40 N28 1_555 1_555
C41 N26 1_555 1_555
C42 N28 1_555 1_555
C43 O24 1_555 1_555
C44 N29 1_555 1_555
C44 N31 1_555 1_555
C45 N30 1_555 1_555
C46 N32 1_555 1_555
C47 N30 1_555 1_555
C48 N32 1_555 1_555
C49 O25 1_555 1_555
C50 N33 1_555 1_555
C50 N35 1_555 1_555
C51 N34 1_555 1_555
C52 N36 1_555 1_555
C53 N34 1_555 1_555
C54 N36 1_555 1_555
C56 N37 1_555 1_555
C56 N39 1_555 1_555
C57 N38 1_555 1_555
C58 N40 1_555 1_555
C59 N38 1_555 1_555
C60 N40 1_555 1_555
C62 N41 1_555 1_555
C62 N43 1_555 1_555
C63 N42 1_555 1_555
C64 N44 1_555 1_555
C65 N42 1_555 1_555
C66 N44 1_555 1_555
C68 N45 1_555 1_555
C68 N47 1_555 1_555
C69 N46 1_555 1_555
C70 N48 1_555 1_555
C70 O34 1_555 1_555
C71 N25 1_555 1_555
C71 N46 1_555 1_555
C72 N27 1_555 1_555
C72 N48 1_555 1_555
O30 Ca4A 1_555 1_555
O31 Ca4A 1_555 1_555
O1A Ca1A 1_555 1_555

#END
