
#######################################################################
#
#                 Cambridge Crystallographic Data Centre
#                                CCDC 
#
#######################################################################
#
# If this CIF has been generated from an entry in the Cambridge 
# Structural Database, then it will include bibliographic, chemical, 
# crystal, experimental, refinement or atomic coordinate data resulting 
# from the CCDC's data processing and validation procedures.
#
#######################################################################

data_GOVHAC
_symmetry_cell_setting           triclinic
_symmetry_space_group_name_H-M   'P -1'
_symmetry_Int_Tables_number      2
_space_group_name_Hall           '-P 1'
loop_
_symmetry_equiv_pos_site_id
_symmetry_equiv_pos_as_xyz
1 x,y,z
2 -x,-y,-z
_cell_length_a                   12.823(10)
_cell_length_b                   16.194(13)
_cell_length_c                   19.302(16)
_cell_angle_alpha                92.083(10)
_cell_angle_beta                 104.001(10)
_cell_angle_gamma                107.167(10)
_cell_volume                     3690.64
loop_
_atom_site_label
_atom_site_type_symbol
_atom_site_fract_x
_atom_site_fract_y
_atom_site_fract_z
Zn1 Zn 1.59797(8) 0.88222(6) 0.24971(5)
Cl2 Cl 1.58555(18) 0.78080(13) 0.32752(11)
Cl3 Cl 1.7791(2) 0.94321(13) 0.24658(14)
Cl4 Cl 1.4873(2) 0.81947(16) 0.13966(12)
Cl5 Cl 1.5309(3) 0.98686(17) 0.28620(17)
O1 O 0.8843(3) 0.4927(3) 0.0118(2)
O2 O 1.0090(3) 0.4202(3) 0.5312(2)
O3 O 0.7716(4) 0.2697(3) 0.4695(2)
O4 O 0.8865(5) 0.4988(3) 0.3176(3)
O5 O 0.7268(6) 0.5488(5) 0.3904(4)
O6 O 0.6056(4) 0.3812(4) 0.4309(3)
Sr1 Sr 0.97731(5) 0.37040(4) 0.04751(3)
Sr2 Sr 0.82305(5) 0.42447(4) 0.42697(3)
Cl6 Cl 0.93406(16) 0.40507(15) 0.18642(10)
C1 C 1.2250(4) 0.4744(4) 0.1938(3)
C2 C 1.3322(5) 0.5569(4) 0.3059(3)
H1 H 1.4149 0.5856 0.3167
C3 C 1.3033(5) 0.4582(4) 0.3138(3)
H2 H 1.3721 0.4408 0.3313
C4 C 1.2319(5) 0.5261(4) 0.3927(3)
C5 C 1.2222(5) 0.3258(4) 0.2199(3)
H3 H 1.2251 0.3202 0.1697
H4 H 1.2849 0.3089 0.2490
C6 C 1.1921(5) 0.3667(4) 0.3929(3)
H5 H 1.1732 0.3782 0.4378
H6 H 1.2518 0.3392 0.4041
C7 C 1.0286(5) 0.2329(4) 0.1686(3)
C8 C 1.0955(5) 0.2372(4) 0.2934(3)
H7 H 1.1468 0.2053 0.3169
C9 C 0.9701(5) 0.1777(4) 0.2683(3)
H8 H 0.9613 0.1176 0.2805
C10 C 0.9845(5) 0.2958(4) 0.3486(3)
C11 C 0.8353(5) 0.1315(4) 0.1418(3)
H9 H 0.8092 0.0745 0.1585
H10 H 0.8478 0.1217 0.0945
C12 C 0.7954(5) 0.1855(4) 0.3069(3)
H11 H 0.7761 0.1220 0.3031
H12 H 0.7863 0.2051 0.3531
C13 C 0.7301(5) 0.2268(4) 0.0843(3)
C14 C 0.6680(5) 0.1596(4) 0.1789(3)
H13 H 0.6295 0.0973 0.1807
C15 C 0.5832(5) 0.2069(4) 0.1421(3)
H14 H 0.5064 0.1656 0.1209
C16 C 0.6665(5) 0.2698(4) 0.2615(3)
C17 C 0.5835(5) 0.2971(4) 0.0365(3)
H15 H 0.5010 0.2751 0.0275
H16 H 0.6022 0.2897 -0.0092
C18 C 0.5107(5) 0.3191(4) 0.1938(3)
H17 H 0.4388 0.2885 0.1586
H18 H 0.4947 0.3277 0.2402
C19 C 0.6284(5) 0.4531(4) 0.0184(3)
C20 C 0.6550(5) 0.4223(4) 0.1386(3)
H19 H 0.7187 0.4047 0.1670
C21 C 0.6874(5) 0.5236(4) 0.1378(3)
H20 H 0.7683 0.5524 0.1625
C22 C 0.5480(5) 0.4792(4) 0.1987(3)
C23 C 0.6677(5) 0.6148(4) 0.0330(3)
H21 H 0.6742 0.6110 -0.0165
H22 H 0.5967 0.6265 0.0321
C24 C 0.6192(5) 0.6361(4) 0.1945(4)
H23 H 0.6050 0.6417 0.2418
H24 H 0.5595 0.6498 0.1591
C25 C 0.8665(5) 0.7061(4) 0.0645(3)
C26 C 0.7561(5) 0.7417(4) 0.1345(3)
H25 H 0.7046 0.7761 0.1174
C27 C 0.8800(5) 0.8012(4) 0.1643(3)
H26 H 0.8868 0.8637 0.1655
C28 C 0.8237(6) 0.7162(4) 0.2531(4)
C29 C 1.0569(5) 0.8151(4) 0.1166(3)
H27 H 1.0662 0.8092 0.0680
H28 H 1.0786 0.8773 0.1328
C30 C 1.0172(6) 0.8209(4) 0.2875(3)
H29 H 1.0415 0.8818 0.2782
H30 H 1.0057 0.8201 0.3359
C31 C 1.1647(5) 0.7086(4) 0.1436(3)
C32 C 1.1831(5) 0.8088(4) 0.2394(3)
H31 H 1.2223 0.8723 0.2468
C33 C 1.2674(5) 0.7566(4) 0.2642(3)
H32 H 1.3471 0.7944 0.2753
C34 C 1.1435(5) 0.7356(4) 0.3374(3)
C35 C 1.3042(5) 0.6346(4) 0.1945(3)
H33 H 1.2912 0.6167 0.1433
H34 H 1.3849 0.6664 0.2138
C36 C 1.3072(5) 0.6805(4) 0.3770(3)
H35 H 1.3873 0.7105 0.3810
H36 H 1.2949 0.6882 0.4247
N1 N 1.2760(4) 0.5584(3) 0.2305(2)
N2 N 1.2398(4) 0.4173(3) 0.2423(2)
N3 N 1.2841(4) 0.5904(3) 0.3571(2)
N4 N 1.2354(4) 0.4486(3) 0.3660(2)
N5 N 1.1188(4) 0.2667(3) 0.2257(2)
N6 N 0.9417(4) 0.1813(3) 0.1909(2)
N7 N 1.0926(4) 0.3064(3) 0.3430(2)
N8 N 0.9128(4) 0.2220(3) 0.3069(2)
N9 N 0.7469(4) 0.1717(3) 0.1338(2)
N10 N 0.6343(4) 0.2478(3) 0.0871(2)
N11 N 0.7167(4) 0.2079(3) 0.2503(2)
N12 N 0.5854(4) 0.2659(3) 0.2003(3)
N13 N 0.6239(4) 0.3893(3) 0.0639(3)
N14 N 0.6646(5) 0.5324(3) 0.0609(3)
N15 N 0.5600(4) 0.4036(3) 0.1714(3)
N16 N 0.6159(4) 0.5472(3) 0.1764(3)
N17 N 0.7606(4) 0.6852(3) 0.0757(2)
N18 N 0.9372(4) 0.7744(3) 0.1142(3)
N19 N 0.7312(4) 0.6986(3) 0.1954(3)
N20 N 0.9102(4) 0.7752(3) 0.2356(3)
N21 N 1.1321(4) 0.7774(3) 0.1639(2)
N22 N 1.2391(4) 0.6932(3) 0.2020(2)
N23 N 1.1059(4) 0.7835(3) 0.2853(3)
N24 N 1.2387(4) 0.7219(3) 0.3272(2)
O7 O 1.1802(3) 0.4584(2) 0.12989(19)
O8 O 1.0272(3) 0.2461(3) 0.10579(19)
O9 O 0.7852(3) 0.2518(3) 0.04029(19)
O10 O 0.6060(4) 0.4443(3) -0.0466(2)
O11 O 0.8920(3) 0.6697(3) 0.0177(2)
O12 O 1.1333(3) 0.6688(3) 0.0823(2)
O13 O 1.1880(3) 0.5351(3) 0.4422(2)
O14 O 0.9573(3) 0.3443(3) 0.3870(2)
O15 O 0.6885(3) 0.3185(3) 0.3174(2)
O16 O 0.4809(4) 0.4822(3) 0.2349(3)
O17 O 0.8270(4) 0.6851(3) 0.3110(2)
O18 O 1.1014(4) 0.7137(3) 0.3872(2)
O1A O 1.1157(3) 0.5073(3) -0.0118(2)
O2A O 0.9910(3) 0.5798(3) 0.4688(2)
Sr1A Sr 1.02269(5) 0.62960(4) -0.04751(3)
Sr2A Sr 1.17695(5) 0.57553(4) 0.57303(3)
O11A O 1.1080(3) 0.3303(3) -0.0177(2)
O12A O 0.8667(3) 0.3312(3) -0.0823(2)
O13A O 0.8120(3) 0.4649(3) 0.5578(2)
Cl1 Cl 1.0824(3) 0.0301(2) 0.1993(3)
loop_
_geom_bond_atom_site_label_1
_geom_bond_atom_site_label_2
_geom_bond_site_symmetry_1
_geom_bond_site_symmetry_2
Zn1 Cl2 1_555 1_555
Cl3 Zn1 1_555 1_555
Cl4 Zn1 1_555 1_555
Cl5 Zn1 1_555 1_555
O1 Sr1 1_555 1_555
O2 Sr2 1_555 1_555
O3 Sr2 1_555 1_555
O4 Sr2 1_555 1_555
O5 Sr2 1_555 1_555
O6 Sr2 1_555 1_555
Sr1 Cl6 1_555 1_555
Sr2 O14 1_555 1_555
C1 N1 1_555 1_555
C2 H1 1_555 1_555
C3 C2 1_555 1_555
H2 C3 1_555 1_555
C4 N3 1_555 1_555
C5 H3 1_555 1_555
H4 C5 1_555 1_555
C6 H5 1_555 1_555
H6 C6 1_555 1_555
C7 N5 1_555 1_555
C8 H7 1_555 1_555
C9 C8 1_555 1_555
H8 C9 1_555 1_555
C10 N7 1_555 1_555
C11 H9 1_555 1_555
H10 C11 1_555 1_555
C12 H11 1_555 1_555
H12 C12 1_555 1_555
C13 N9 1_555 1_555
C14 H13 1_555 1_555
C15 C14 1_555 1_555
H14 C15 1_555 1_555
C16 N11 1_555 1_555
C17 H15 1_555 1_555
H16 C17 1_555 1_555
C18 H17 1_555 1_555
H18 C18 1_555 1_555
C19 N13 1_555 1_555
C20 H19 1_555 1_555
C21 C20 1_555 1_555
H20 C21 1_555 1_555
C22 N15 1_555 1_555
C23 H21 1_555 1_555
H22 C23 1_555 1_555
C24 H23 1_555 1_555
H24 C24 1_555 1_555
C25 N17 1_555 1_555
C26 H25 1_555 1_555
C27 C26 1_555 1_555
H26 C27 1_555 1_555
C28 N19 1_555 1_555
C29 H27 1_555 1_555
H28 C29 1_555 1_555
C30 H29 1_555 1_555
H30 C30 1_555 1_555
C31 N21 1_555 1_555
C32 H31 1_555 1_555
C33 C32 1_555 1_555
H32 C33 1_555 1_555
C34 N23 1_555 1_555
C35 H33 1_555 1_555
H34 C35 1_555 1_555
C36 H35 1_555 1_555
H36 C36 1_555 1_555
N1 C2 1_555 1_555
N2 C1 1_555 1_555
N3 C2 1_555 1_555
N4 C3 1_555 1_555
N5 C5 1_555 1_555
N6 C7 1_555 1_555
N7 C6 1_555 1_555
N8 C9 1_555 1_555
N9 C11 1_555 1_555
N10 C13 1_555 1_555
N11 C12 1_555 1_555
N12 C15 1_555 1_555
N13 C17 1_555 1_555
N14 C19 1_555 1_555
N15 C18 1_555 1_555
N16 C21 1_555 1_555
N17 C23 1_555 1_555
N18 C25 1_555 1_555
N19 C24 1_555 1_555
N20 C27 1_555 1_555
N21 C29 1_555 1_555
N22 C31 1_555 1_555
N23 C30 1_555 1_555
N24 C33 1_555 1_555
O7 Sr1 1_555 1_555
O8 Sr1 1_555 1_555
O9 Sr1 1_555 1_555
O10 C19 1_555 1_555
O11 C25 1_555 1_555
O12 C31 1_555 1_555
O13 C4 1_555 1_555
O14 C10 1_555 1_555
O15 Sr2 1_555 1_555
O16 C22 1_555 1_555
O17 C28 1_555 1_555
O18 C34 1_555 1_555
O1A Sr1 1_555 1_555
O2A Sr2 1_555 1_555
Sr1A O1 1_555 1_555
Sr2A O2 1_555 1_555
O11A Sr1 1_555 1_555
O12A Sr1 1_555 1_555
O13A Sr2 1_555 1_555
C1 O7 1_555 1_555
C3 N2 1_555 1_555
C4 N4 1_555 1_555
C5 N2 1_555 1_555
C6 N4 1_555 1_555
C7 O8 1_555 1_555
C8 N5 1_555 1_555
C8 N7 1_555 1_555
C9 N6 1_555 1_555
C10 N8 1_555 1_555
C11 N6 1_555 1_555
C12 N8 1_555 1_555
C13 O9 1_555 1_555
C14 N9 1_555 1_555
C14 N11 1_555 1_555
C15 N10 1_555 1_555
C16 N12 1_555 1_555
C16 O15 1_555 1_555
C17 N10 1_555 1_555
C18 N12 1_555 1_555
C20 N13 1_555 1_555
C20 N15 1_555 1_555
C21 N14 1_555 1_555
C22 N16 1_555 1_555
C23 N14 1_555 1_555
C24 N16 1_555 1_555
C26 N17 1_555 1_555
C26 N19 1_555 1_555
C27 N18 1_555 1_555
C28 N20 1_555 1_555
C29 N18 1_555 1_555
C30 N20 1_555 1_555
C32 N21 1_555 1_555
C32 N23 1_555 1_555
C33 N22 1_555 1_555
C34 N24 1_555 1_555
C35 N1 1_555 1_555
C35 N22 1_555 1_555
C36 N3 1_555 1_555
C36 N24 1_555 1_555
O11 Sr1A 1_555 1_555
O12 Sr1A 1_555 1_555
O13 Sr2A 1_555 1_555
O1A Sr1A 1_555 1_555
O2A Sr2A 1_555 1_555

#END
