
#######################################################################
#
#                 Cambridge Crystallographic Data Centre
#                                CCDC 
#
#######################################################################
#
# If this CIF has been generated from an entry in the Cambridge 
# Structural Database, then it will include bibliographic, chemical, 
# crystal, experimental, refinement or atomic coordinate data resulting 
# from the CCDC's data processing and validation procedures.
#
#######################################################################

data_GOVJAC
_symmetry_cell_setting           triclinic
_symmetry_space_group_name_H-M   'P -1'
_symmetry_Int_Tables_number      2
_space_group_name_Hall           '-P 1'
loop_
_symmetry_equiv_pos_site_id
_symmetry_equiv_pos_as_xyz
1 x,y,z
2 -x,-y,-z
_cell_length_a                   7.450(4)
_cell_length_b                   7.519(7)
_cell_length_c                   9.646(5)
_cell_angle_alpha                85.78(7)
_cell_angle_beta                 88.60(4)
_cell_angle_gamma                76.78(7)
_cell_volume                     524.574
loop_
_atom_site_label
_atom_site_type_symbol
_atom_site_fract_x
_atom_site_fract_y
_atom_site_fract_z
Cu1 Cu 0.14521(13) 0.24366(8) 0.33986(6)
O1 O 0.0713(9) 0.5151(6) 0.3280(4)
O2 O -0.0668(8) 0.7333(6) 0.4616(4)
N1 N 0.2163(10) -0.0240(7) 0.3800(5)
H1 H 0.2788 -0.0456 0.4605
H2 H 0.1119 -0.0640 0.3949
N2 N 0.2404(11) 0.3138(9) -0.0748(6)
H3 H 0.2547 0.3795 -0.1493
N3 N 0.1932(10) 0.2336(7) 0.1418(5)
C1 C 0.3256(13) -0.1359(9) 0.2788(7)
H4 H 0.3441 -0.2640 0.3110
H5 H 0.4456 -0.1063 0.2694
C2 C 0.2317(15) -0.1048(10) 0.1383(7)
H6 H 0.2962 -0.1972 0.0783
H7 H 0.1065 -0.1205 0.1506
C3 C 0.2260(12) 0.0797(9) 0.0683(7)
C4 C 0.2509(15) 0.1311(11) -0.0652(7)
H8 H 0.2718 0.0548 -0.1383
C5 C 0.2036(12) 0.3737(9) 0.0521(7)
H9 H 0.1879 0.4946 0.0742
C6 C 0.0040(12) 0.5713(7) 0.4382(6)
Cl1 Cl 0.6430(3) 0.3049(2) 0.29946(17)
O3 O 0.5054(12) 0.2338(11) 0.3766(7)
O4 O 0.8083(11) 0.1749(9) 0.3052(7)
O5 O 0.6677(13) 0.4652(9) 0.3562(9)
O6 O 0.5909(14) 0.3489(12) 0.1578(7)
C6A C -0.0040(12) 0.4287(7) 0.5618(6)
O1A O -0.0713(9) 0.4849(6) 0.6720(4)
O2A O 0.0668(8) 0.2667(6) 0.5384(4)
Cl1_2 Cl -0.3570(3) 0.3049(2) 0.29946(17)
O3_2 O -0.4946(12) 0.2338(11) 0.3766(7)
O4_2 O -0.1917(11) 0.1749(9) 0.3052(7)
O5_2 O -0.3323(13) 0.4652(9) 0.3562(9)
O6_2 O -0.4091(14) 0.3489(12) 0.1578(7)
Cu1A Cu -0.14521(13) 0.75634(8) 0.66014(6)
N1A N -0.2163(10) 1.0240(7) 0.6200(5)
H1A H -0.2788 1.0456 0.5395
H2A H -0.1119 1.0640 0.6051
N2A N -0.2404(11) 0.6862(9) 1.0748(6)
H3A H -0.2547 0.6205 1.1493
N3A N -0.1932(10) 0.7664(7) 0.8582(5)
C1A C -0.3256(13) 1.1359(9) 0.7212(7)
H4A H -0.3441 1.2640 0.6890
H5A H -0.4456 1.1063 0.7306
C2A C -0.2317(15) 1.1048(10) 0.8617(7)
H6A H -0.2962 1.1972 0.9217
H7A H -0.1065 1.1205 0.8494
C3A C -0.2260(12) 0.9203(9) 0.9317(7)
C4A C -0.2509(15) 0.8689(11) 1.0652(7)
H8A H -0.2718 0.9452 1.1383
C5A C -0.2036(12) 0.6263(9) 0.9479(7)
H9A H -0.1879 0.5054 0.9258
Cu1_2 Cu 1.14521(13) 0.24366(8) 0.33986(6)
Cu1_3 Cu -0.85479(13) 0.24366(8) 0.33986(6)
O3A O -0.5054(12) 0.7662(11) 0.6234(7)
O4A O 0.1917(11) 0.8251(9) 0.6948(7)
loop_
_geom_bond_atom_site_label_1
_geom_bond_atom_site_label_2
_geom_bond_site_symmetry_1
_geom_bond_site_symmetry_2
Cu1 O1 1_555 1_555
O1 C6 1_555 1_555
O2 C6 1_555 1_555
N1 Cu1 1_555 1_555
H1 N1 1_555 1_555
H2 N1 1_555 1_555
N2 H3 1_555 1_555
N3 Cu1 1_555 1_555
C1 N1 1_555 1_555
H4 C1 1_555 1_555
H5 C1 1_555 1_555
C2 C1 1_555 1_555
H6 C2 1_555 1_555
H7 C2 1_555 1_555
C3 N3 1_555 1_555
C4 N2 1_555 1_555
H8 C4 1_555 1_555
C5 N2 1_555 1_555
H9 C5 1_555 1_555
C6 C6A 1_555 1_555
Cl1 O3 1_555 1_555
O3 Cu1 1_555 1_555
O4 Cl1 1_555 1_555
O5 Cl1 1_555 1_555
O6 Cl1 1_555 1_555
C6A O1A 1_555 1_555
O1A Cu1A 1_555 1_555
O2A Cu1 1_555 1_555
Cl1_2 O3_2 1_555 1_555
O3_2 Cu1_3 1_555 1_555
O4_2 Cu1 1_555 1_555
O5_2 Cl1_2 1_555 1_555
O6_2 Cl1_2 1_555 1_555
Cu1A O2 1_555 1_555
N1A Cu1A 1_555 1_555
H1A N1A 1_555 1_555
H2A N1A 1_555 1_555
N2A H3A 1_555 1_555
N3A Cu1A 1_555 1_555
C1A N1A 1_555 1_555
H4A C1A 1_555 1_555
H5A C1A 1_555 1_555
C2A C1A 1_555 1_555
H6A C2A 1_555 1_555
H7A C2A 1_555 1_555
C3A N3A 1_555 1_555
C4A N2A 1_555 1_555
H8A C4A 1_555 1_555
C5A N2A 1_555 1_555
H9A C5A 1_555 1_555
Cu1_2 O4 1_555 1_555
O3A Cu1A 1_555 1_555
O4A Cu1A 1_555 1_555
N3 C5 1_555 1_555
C2 C3 1_555 1_555
C3 C4 1_555 1_555
C6A O2A 1_555 1_555
Cl1_2 O4_2 1_555 1_555
N3A C5A 1_555 1_555
C2A C3A 1_555 1_555
C3A C4A 1_555 1_555

#END
