
#######################################################################
#
#                 Cambridge Crystallographic Data Centre
#                                CCDC 
#
#######################################################################
#
# If this CIF has been generated from an entry in the Cambridge 
# Structural Database, then it will include bibliographic, chemical, 
# crystal, experimental, refinement or atomic coordinate data resulting 
# from the CCDC's data processing and validation procedures.
#
#######################################################################

data_GOVMEJ
_symmetry_cell_setting           rhombohedral
_symmetry_space_group_name_H-M   'R -3'
_symmetry_Int_Tables_number      148
_space_group_name_Hall           '-R 3'
loop_
_symmetry_equiv_pos_site_id
_symmetry_equiv_pos_as_xyz
1 x,y,z
2 -y,x-y,z
3 -x+y,-x,z
4 2/3+x,1/3+y,1/3+z
5 2/3-y,1/3+x-y,1/3+z
6 2/3-x+y,1/3-x,1/3+z
7 1/3+x,2/3+y,2/3+z
8 2/3+y,1/3-x+y,1/3-z
9 2/3+x-y,1/3+x,1/3-z
10 -x,-y,-z
11 y,-x+y,-z
12 x-y,x,-z
13 1/3-x,2/3-y,2/3-z
14 1/3+y,2/3-x+y,2/3-z
15 1/3+x-y,2/3+x,2/3-z
16 2/3-x,1/3-y,1/3-z
17 1/3-y,2/3+x-y,2/3+z
18 1/3-x+y,2/3-x,2/3+z
_cell_length_a                   19.546(1)
_cell_length_b                   19.546(1)
_cell_length_c                   42.028(1)
_cell_angle_alpha                90
_cell_angle_beta                 90
_cell_angle_gamma                120.00
_cell_volume                     13905.5
loop_
_atom_site_label
_atom_site_type_symbol
_atom_site_fract_x
_atom_site_fract_y
_atom_site_fract_z
C22 C 0.2619(11) 0.1450(14) 0.1521(3)
H20 H 0.2149 0.1314 0.1415
C23 C 0.3308(14) 0.2246(14) 0.1496(3)
H21 H 0.3281 0.2642 0.1384
C24 C 0.2689(10) 0.0948(10) 0.1694(4)
H22 H 0.2245 0.0453 0.1722
C24O C 0.3978(10) 0.2385(10) 0.1639(4)
C22O C 0.4048(11) 0.1883(14) 0.1812(3)
H20O H 0.4518 0.2019 0.1918
C23O C 0.3359(14) 0.1087(14) 0.1837(3)
H21O H 0.3386 0.0691 0.1949
H22O H 0.4422 0.2880 0.1611
O7 O 0.4429(9) 0.5440(7) 0.0156(3)
C25 C 0.4413(12) 0.6049(11) -0.0006(4)
C26 C 0.5024(16) 0.6261(16) -0.0281(6)
H23 H 0.4798 0.5777 -0.0400
C27 C 0.5780(16) 0.6420(18) -0.0235(7)
H24 H 0.6045 0.6525 -0.0437
H25 H 0.5774 0.5974 -0.0137
H26 H 0.6054 0.6875 -0.0100
C28 C 0.4955(16) 0.6839(15) -0.0521(6)
H27 H 0.4412 0.6612 -0.0585
H28 H 0.5100 0.7325 -0.0412
C29 C 0.542(2) 0.701(2) -0.0795(7)
H29 H 0.5348 0.7371 -0.0927
H30 H 0.5267 0.6533 -0.0911
H31 H 0.5967 0.7248 -0.0735
Ni1 Ni 0.15541(4) 0.33361(4) 0.086713(18)
O1 O 0.0945(2) 0.2143(2) 0.09562(10)
O2 O 0.1889(2) 0.1850(2) 0.08392(12)
O3 O 0.2614(3) 0.3362(3) 0.0949(2)
H1 H 0.293(3) 0.376(3) 0.0783(12)
H2 H 0.246(3) 0.285(2) 0.0856(13)
C1 C 0.1186(3) 0.1662(3) 0.08976(14)
C2 C 0.0571(3) 0.0805(3) 0.08972(13)
C3 C 0.0797(3) 0.0230(3) 0.08956(13)
H3 H 0.134(4) 0.038(3) 0.0899(13)
O5 O 0.2138(2) 0.4523(2) 0.07750(11)
O6 O 0.3384(2) 0.4818(2) 0.06893(12)
C4 C 0.2866(3) 0.5001(3) 0.07362(15)
C5 C 0.3109(3) 0.5868(3) 0.07413(14)
C6 C 0.2539(3) 0.6100(3) 0.07394(14)
H4 H 0.201(4) 0.576(4) 0.0777(17)
N1 N 0.1575(3) 0.3586(3) 0.13583(12)
C7 C 0.1510(5) 0.4191(4) 0.14625(18)
H5 H 0.152(4) 0.456(3) 0.1317(11)
C8 C 0.1548(6) 0.4375(5) 0.1786(2)
H6 H 0.1501 0.4804 0.1852
C9 C 0.1654(6) 0.3919(6) 0.2003(2)
H7 H 0.1674 0.4024 0.2220
C10 C 0.1732(6) 0.3288(6) 0.18905(18)
H8 H 0.1812 0.2967 0.2031
C11 C 0.1687(5) 0.3154(5) 0.15684(16)
H9 H 0.1738 0.2733 0.1495
N2 N 0.0485(3) 0.3346(3) 0.08296(12)
C12 C 0.0439(4) 0.3891(4) 0.06458(17)
H10 H 0.091(2) 0.423(3) 0.0542(13)
C13 C -0.0236(4) 0.3947(5) 0.0625(2)
H11 H -0.0248 0.4330 0.0497
C14 C -0.0883(4) 0.3434(5) 0.0795(2)
H12 H -0.136(3) 0.343(5) 0.081(2)
C15 C -0.0846(4) 0.2869(5) 0.09812(19)
H13 H -0.125(3) 0.253(3) 0.1117(13)
C16 C -0.0156(4) 0.2843(4) 0.09885(16)
H14 H -0.011(4) 0.247(3) 0.1108(13)
N3 N 0.1492(3) 0.3061(3) 0.03792(12)
C17 C 0.2107(4) 0.3459(4) 0.01792(16)
H15 H 0.257(2) 0.387(2) 0.0263(13)
C18 C 0.2054(5) 0.3291(5) -0.01406(17)
H16 H 0.2490 0.3573 -0.0272
C19 C 0.1350(5) 0.2703(5) -0.02658(16)
H17 H 0.1305 0.2594 -0.0483
C20 C 0.0720(4) 0.2284(4) -0.00685(17)
H18 H 0.0243 0.1881 -0.0147
C21 C 0.0812(4) 0.2476(4) 0.02529(16)
H19 H 0.037(2) 0.228(3) 0.0383(10)
C2B C 0.0234(4) -0.0571(3) 0.08972(13)
C1B C 0.0476(4) -0.1186(3) 0.08976(14)
O1B O 0.1198(3) -0.0945(2) 0.09562(10)
O2B O -0.0039(3) -0.1889(2) 0.08392(12)
C3B C -0.0567(4) -0.0797(3) 0.08956(13)
C2A C -0.0805(3) -0.0234(4) 0.08972(13)
C1A C -0.1662(3) -0.0476(4) 0.08976(14)
O1A O -0.2143(2) -0.1198(3) 0.09562(10)
O2A O -0.1850(2) 0.0039(3) 0.08392(12)
C3A C -0.0230(3) 0.0567(4) 0.08956(13)
H3A H -0.038(3) 0.096(5) 0.0899(13)
H3B H -0.096(5) -0.134(4) 0.0899(13)
C5B C 0.2759(4) 0.6891(3) 0.07413(14)
C4B C 0.2135(4) 0.7134(3) 0.07362(15)
O5B O 0.2385(3) 0.7862(2) 0.07750(11)
O6B O 0.1434(3) 0.6616(2) 0.06893(12)
C6B C 0.3561(4) 0.7461(3) 0.07394(14)
C5A C 0.4132(3) 0.7241(4) 0.07413(14)
C4A C 0.4999(3) 0.7865(4) 0.07362(15)
O5A O 0.5477(2) 0.7615(3) 0.07750(11)
O6A O 0.5182(2) 0.8566(3) 0.06893(12)
C6A C 0.3900(3) 0.6439(4) 0.07394(14)
H4A H 0.424(4) 0.625(6) 0.0777(17)
H4B H 0.375(6) 0.799(4) 0.0777(17)
Ni1B Ni 0.17820(6) -0.15541(4) 0.086713(18)
Ni1A Ni -0.33361(4) -0.17820(6) 0.086713(18)
Ni1B_2 Ni 0.17820(6) 0.84459(4) 0.086713(18)
Ni1A_2 Ni 0.66639(4) 0.82180(6) 0.086713(18)
O3B O 0.0748(4) -0.2614(3) 0.0949(2)
H1B H 0.083(4) -0.293(3) 0.0783(12)
H2B H 0.039(4) -0.246(3) 0.0856(13)
O5B_2 O 0.2385(3) -0.2138(2) 0.07750(11)
O6B_2 O 0.1434(3) -0.3384(2) 0.06893(12)
C4B_2 C 0.2135(4) -0.2866(3) 0.07362(15)
C5B_2 C 0.2759(4) -0.3109(3) 0.07413(14)
C6B_2 C 0.3561(4) -0.2539(3) 0.07394(14)
H4B_2 H 0.375(6) -0.201(4) 0.0777(17)
C5A_2 C 0.4132(3) -0.2759(4) 0.07413(14)
C4A_2 C 0.4999(3) -0.2135(4) 0.07362(15)
O5A_2 O 0.5477(2) -0.2385(3) 0.07750(11)
O6A_2 O 0.5182(2) -0.1434(3) 0.06893(12)
C6A_2 C 0.3900(3) -0.3561(4) 0.07394(14)
C5_2 C 0.3109(3) -0.4132(3) 0.07413(14)
C4_2 C 0.2866(3) -0.4999(3) 0.07362(15)
O5_2 O 0.2138(2) -0.5477(2) 0.07750(11)
O6_2 O 0.3384(2) -0.5182(2) 0.06893(12)
C6_2 C 0.2539(3) -0.3900(3) 0.07394(14)
H4_2 H 0.201(4) -0.424(4) 0.0777(17)
H4A_2 H 0.424(4) -0.375(6) 0.0777(17)
N1B N 0.2011(4) -0.1575(3) 0.13583(12)
C7B C 0.2681(6) -0.1510(5) 0.14625(18)
H5B H 0.304(5) -0.152(4) 0.1317(11)
C8B C 0.2827(8) -0.1548(6) 0.1786(2)
H6B H 0.3303 -0.1501 0.1852
C9B C 0.2265(8) -0.1654(6) 0.2003(2)
H7B H 0.2350 -0.1674 0.2220
C10B C 0.1556(8) -0.1732(6) 0.18905(18)
H8B H 0.1155 -0.1812 0.2031
C11B C 0.1467(7) -0.1687(5) 0.15684(16)
H9B H 0.0995 -0.1738 0.1495
N2B N 0.2861(4) -0.0485(3) 0.08296(12)
C12B C 0.3452(6) -0.0439(4) 0.06458(17)
H10B H 0.332(4) -0.091(2) 0.0542(13)
C13B C 0.4183(6) 0.0236(4) 0.0625(2)
H11B H 0.4578 0.0248 0.0497
C14B C 0.4317(6) 0.0883(4) 0.0795(2)
H12B H 0.479(6) 0.136(3) 0.081(2)
C15B C 0.3715(6) 0.0846(4) 0.09812(19)
H13B H 0.378(4) 0.125(3) 0.1117(13)
C16B C 0.2999(6) 0.0156(4) 0.09885(16)
H14B H 0.258(5) 0.011(4) 0.1108(13)
N3B N 0.1569(4) -0.1492(3) 0.03792(12)
C17B C 0.1352(6) -0.2107(4) 0.01792(16)
H15B H 0.130(3) -0.257(2) 0.0263(13)
C18B C 0.1237(7) -0.2054(5) -0.01406(17)
H16B H 0.1083 -0.2490 -0.0272
C19B C 0.1353(7) -0.1350(5) -0.02658(16)
H17B H 0.1289 -0.1305 -0.0483
C20B C 0.1564(6) -0.0720(4) -0.00685(17)
H18B H 0.1638 -0.0243 -0.0147
C21B C 0.1664(6) -0.0812(4) 0.02529(16)
H19B H 0.191(4) -0.037(2) 0.0383(10)
O3A O -0.3362(3) -0.0748(4) 0.0949(2)
H1A H -0.376(3) -0.083(4) 0.0783(12)
H2A H -0.285(2) -0.039(4) 0.0856(13)
O5A_3 O -0.4523(2) -0.2385(3) 0.07750(11)
O6A_3 O -0.4818(2) -0.1434(3) 0.06893(12)
C4A_3 C -0.5001(3) -0.2135(4) 0.07362(15)
C5A_3 C -0.5868(3) -0.2759(4) 0.07413(14)
C6A_3 C -0.6100(3) -0.3561(4) 0.07394(14)
H4A_3 H -0.576(4) -0.375(6) 0.0777(17)
C5_3 C -0.6891(3) -0.4132(3) 0.07413(14)
C4_3 C -0.7134(3) -0.4999(3) 0.07362(15)
O5_3 O -0.7862(2) -0.5477(2) 0.07750(11)
O6_3 O -0.6616(2) -0.5182(2) 0.06893(12)
C6_3 C -0.7461(3) -0.3900(3) 0.07394(14)
C5B_3 C -0.7241(4) -0.3109(3) 0.07413(14)
C4B_3 C -0.7865(4) -0.2866(3) 0.07362(15)
O5B_3 O -0.7615(3) -0.2138(2) 0.07750(11)
O6B_3 O -0.8566(3) -0.3384(2) 0.06893(12)
C6B_3 C -0.6439(4) -0.2539(3) 0.07394(14)
H4B_3 H -0.625(6) -0.201(4) 0.0777(17)
H4_3 H -0.799(4) -0.424(4) 0.0777(17)
N1A N -0.3586(3) -0.2011(4) 0.13583(12)
C7A C -0.4191(4) -0.2681(6) 0.14625(18)
H5A H -0.456(3) -0.304(5) 0.1317(11)
C8A C -0.4375(5) -0.2827(8) 0.1786(2)
H6A H -0.4804 -0.3303 0.1852
C9A C -0.3919(6) -0.2265(8) 0.2003(2)
H7A H -0.4024 -0.2350 0.2220
C10A C -0.3288(6) -0.1556(8) 0.18905(18)
H8A H -0.2967 -0.1155 0.2031
C11A C -0.3154(5) -0.1467(7) 0.15684(16)
H9A H -0.2733 -0.0995 0.1495
N2A N -0.3346(3) -0.2861(4) 0.08296(12)
C12A C -0.3891(4) -0.3452(6) 0.06458(17)
H10A H -0.423(3) -0.332(4) 0.0542(13)
C13A C -0.3947(5) -0.4183(6) 0.0625(2)
H11A H -0.4330 -0.4578 0.0497
C14A C -0.3434(5) -0.4317(6) 0.0795(2)
H12A H -0.343(5) -0.479(6) 0.081(2)
C15A C -0.2869(5) -0.3715(6) 0.09812(19)
H13A H -0.253(3) -0.378(4) 0.1117(13)
C16A C -0.2843(4) -0.2999(6) 0.09885(16)
H14A H -0.247(3) -0.258(5) 0.1108(13)
N3A N -0.3061(3) -0.1569(4) 0.03792(12)
C17A C -0.3459(4) -0.1352(6) 0.01792(16)
H15A H -0.387(2) -0.130(3) 0.0263(13)
C18A C -0.3291(5) -0.1237(7) -0.01406(17)
H16A H -0.3573 -0.1083 -0.0272
C19A C -0.2703(5) -0.1353(7) -0.02658(16)
H17A H -0.2594 -0.1289 -0.0483
C20A C -0.2284(4) -0.1564(6) -0.00685(17)
H18A H -0.1881 -0.1638 -0.0147
C21A C -0.2476(4) -0.1664(6) 0.02529(16)
H19A H -0.228(3) -0.191(4) 0.0383(10)
Ni1A_3 Ni 0.66639(4) -0.17820(6) 0.086713(18)
Ni1_2 Ni 0.15541(4) -0.66639(4) 0.086713(18)
Ni1_3 Ni -0.84459(4) -0.66639(4) 0.086713(18)
Ni1B_3 Ni -0.82180(6) -0.15541(4) 0.086713(18)
O1B_2 O 0.1198(3) 0.9055(2) 0.09562(10)
O3B_2 O 0.0748(4) 0.7386(3) 0.0949(2)
N1B_2 N 0.2011(4) 0.8425(3) 0.13583(12)
N2B_2 N 0.2861(4) 0.9515(3) 0.08296(12)
N3B_2 N 0.1569(4) 0.8508(3) 0.03792(12)
O1A_2 O 0.7857(2) -0.1198(3) 0.09562(10)
O3A_2 O 0.6638(3) -0.0748(4) 0.0949(2)
N1A_2 N 0.6414(3) -0.2011(4) 0.13583(12)
N2A_2 N 0.6654(3) -0.2861(4) 0.08296(12)
N3A_2 N 0.6939(3) -0.1569(4) 0.03792(12)
O1_2 O -0.9055(2) -0.7857(2) 0.09562(10)
O3_2 O -0.7386(3) -0.6638(3) 0.0949(2)
N1_2 N -0.8425(3) -0.6414(3) 0.13583(12)
N2_2 N -0.9515(3) -0.6654(3) 0.08296(12)
N3_2 N -0.8508(3) -0.6939(3) 0.03792(12)
H1B_2 H 0.083(4) 0.707(3) 0.0783(12)
H2B_2 H 0.039(4) 0.754(3) 0.0856(13)
C7B_2 C 0.2681(6) 0.8490(5) 0.14625(18)
C11B_2 C 0.1467(7) 0.8313(5) 0.15684(16)
C12B_2 C 0.3452(6) 0.9561(4) 0.06458(17)
C16B_2 C 0.2999(6) 1.0156(4) 0.09885(16)
C17B_2 C 0.1352(6) 0.7893(4) 0.01792(16)
C21B_2 C 0.1664(6) 0.9188(4) 0.02529(16)
H1A_2 H 0.624(3) -0.083(4) 0.0783(12)
H2A_2 H 0.715(2) -0.039(4) 0.0856(13)
C7A_2 C 0.5809(4) -0.2681(6) 0.14625(18)
C11A_2 C 0.6846(5) -0.1467(7) 0.15684(16)
C12A_2 C 0.6109(4) -0.3452(6) 0.06458(17)
C16A_2 C 0.7157(4) -0.2999(6) 0.09885(16)
C17A_2 C 0.6541(4) -0.1352(6) 0.01792(16)
C21A_2 C 0.7524(4) -0.1664(6) 0.02529(16)
H1_2 H -0.707(3) -0.624(3) 0.0783(12)
H2_2 H -0.754(3) -0.715(2) 0.0856(13)
C7_2 C -0.8490(5) -0.5809(4) 0.14625(18)
C11_2 C -0.8313(5) -0.6846(5) 0.15684(16)
C12_2 C -0.9561(4) -0.6109(4) 0.06458(17)
C16_2 C -1.0156(4) -0.7157(4) 0.09885(16)
C17_2 C -0.7893(4) -0.6541(4) 0.01792(16)
C21_2 C -0.9188(4) -0.7524(4) 0.02529(16)
H5B_2 H 0.304(5) 0.848(4) 0.1317(11)
C8B_2 C 0.2827(8) 0.8452(6) 0.1786(2)
C10B_2 C 0.1556(8) 0.8268(6) 0.18905(18)
H9B_2 H 0.0995 0.8262 0.1495
H10B_2 H 0.332(4) 0.909(2) 0.0542(13)
C13B_2 C 0.4183(6) 1.0236(4) 0.0625(2)
C15B_2 C 0.3715(6) 1.0846(4) 0.09812(19)
H14B_2 H 0.258(5) 1.011(4) 0.1108(13)
H15B_2 H 0.130(3) 0.743(2) 0.0263(13)
C18B_2 C 0.1237(7) 0.7946(5) -0.01406(17)
C20B_2 C 0.1564(6) 0.9280(4) -0.00685(17)
H19B_2 H 0.191(4) 0.963(2) 0.0383(10)
H5A_2 H 0.544(3) -0.304(5) 0.1317(11)
C8A_2 C 0.5625(5) -0.2827(8) 0.1786(2)
C10A_2 C 0.6712(6) -0.1556(8) 0.18905(18)
H9A_2 H 0.7267 -0.0995 0.1495
H10A_2 H 0.577(3) -0.332(4) 0.0542(13)
C13A_2 C 0.6053(5) -0.4183(6) 0.0625(2)
C15A_2 C 0.7131(5) -0.3715(6) 0.09812(19)
H14A_2 H 0.753(3) -0.258(5) 0.1108(13)
H15A_2 H 0.613(2) -0.130(3) 0.0263(13)
C18A_2 C 0.6709(5) -0.1237(7) -0.01406(17)
C20A_2 C 0.7716(4) -0.1564(6) -0.00685(17)
H19A_2 H 0.772(3) -0.191(4) 0.0383(10)
H5_2 H -0.848(4) -0.544(3) 0.1317(11)
C8_2 C -0.8452(6) -0.5625(5) 0.1786(2)
C10_2 C -0.8268(6) -0.6712(6) 0.18905(18)
H9_2 H -0.8262 -0.7267 0.1495
H10_2 H -0.909(2) -0.577(3) 0.0542(13)
C13_2 C -1.0236(4) -0.6053(5) 0.0625(2)
C15_2 C -1.0846(4) -0.7131(5) 0.09812(19)
H14_2 H -1.011(4) -0.753(3) 0.1108(13)
H15_2 H -0.743(2) -0.613(2) 0.0263(13)
C18_2 C -0.7946(5) -0.6709(5) -0.01406(17)
C20_2 C -0.9280(4) -0.7716(4) -0.00685(17)
H19_2 H -0.963(2) -0.772(3) 0.0383(10)
H6B_2 H 0.3303 0.8499 0.1852
C9B_2 C 0.2265(8) 0.8346(6) 0.2003(2)
H8B_2 H 0.1155 0.8188 0.2031
H11B_2 H 0.4578 1.0248 0.0497
C14B_2 C 0.4317(6) 1.0883(4) 0.0795(2)
H13B_2 H 0.378(4) 1.125(3) 0.1117(13)
H16B_2 H 0.1083 0.7510 -0.0272
C19B_2 C 0.1353(7) 0.8650(5) -0.02658(16)
H18B_2 H 0.1638 0.9757 -0.0147
H6A_2 H 0.5196 -0.3303 0.1852
C9A_2 C 0.6081(6) -0.2265(8) 0.2003(2)
H8A_2 H 0.7033 -0.1155 0.2031
H11A_2 H 0.5670 -0.4578 0.0497
C14A_2 C 0.6566(5) -0.4317(6) 0.0795(2)
H13A_2 H 0.747(3) -0.378(4) 0.1117(13)
H16A_2 H 0.6427 -0.1083 -0.0272
C19A_2 C 0.7297(5) -0.1353(7) -0.02658(16)
H18A_2 H 0.8119 -0.1638 -0.0147
H6_2 H -0.8499 -0.5196 0.1852
C9_2 C -0.8346(6) -0.6081(6) 0.2003(2)
H8_2 H -0.8188 -0.7033 0.2031
H11_2 H -1.0248 -0.5670 0.0497
C14_2 C -1.0883(4) -0.6566(5) 0.0795(2)
H13_2 H -1.125(3) -0.747(3) 0.1117(13)
H16_2 H -0.7510 -0.6427 -0.0272
C19_2 C -0.8650(5) -0.7297(5) -0.02658(16)
H18_2 H -0.9757 -0.8119 -0.0147
H7B_2 H 0.2350 0.8326 0.2220
H12B_2 H 0.479(6) 1.136(3) 0.081(2)
H17B_2 H 0.1289 0.8695 -0.0483
H7A_2 H 0.5976 -0.2350 0.2220
H12A_2 H 0.657(5) -0.479(6) 0.081(2)
H17A_2 H 0.7406 -0.1289 -0.0483
H7_2 H -0.8326 -0.5976 0.2220
H12_2 H -1.136(3) -0.657(5) 0.081(2)
H17_2 H -0.8695 -0.7406 -0.0483
O4? O 0.2651(16) 0.3366(15) 0.0817(10)
N4? N 0.2619(11) 0.1450(14) 0.1521(3)
C30? C 0.468(2) 0.632(2) -0.0317(9)
H32? H 0.4337 0.5898 -0.0455
C31? C 0.554(3) 0.650(3) -0.0398(12)
H33? H 0.5662 0.6675 -0.0615
H34? H 0.5570 0.6029 -0.0370
H35? H 0.5912 0.6907 -0.0259
C32? C 0.451(3) 0.696(2) -0.0383(9)
H36? H 0.4883 0.7421 -0.0269
H37? H 0.3994 0.6805 -0.0297
C33? C 0.452(3) 0.719(3) -0.0727(11)
H38? H 0.4424 0.7627 -0.0738
H39? H 0.4112 0.6750 -0.0842
H40? H 0.5023 0.7340 -0.0819
O8? O 0.017(3) 0.137(2) 0.1990(11)
C34? C 0.017(3) 0.137(2) 0.1990(11)
C35? C 0.055(2) 0.088(2) 0.1871(9)
C36? C 0.0000 0.0000 0.1856(17)
loop_
_geom_bond_atom_site_label_1
_geom_bond_atom_site_label_2
_geom_bond_site_symmetry_1
_geom_bond_site_symmetry_2
Ni1 O1 1_555 1_555
O1 C1 1_555 1_555
O2 C1 1_555 1_555
O3 Ni1 1_555 1_555
H1 O3 1_555 1_555
H2 O3 1_555 1_555
C1 C2 1_555 1_555
C2 C3 1_555 1_555
C3 H3 1_555 1_555
O5 Ni1 1_555 1_555
O6 C4 1_555 1_555
C4 O5 1_555 1_555
C5 C4 1_555 1_555
C6 C5 1_555 1_555
H4 C6 1_555 1_555
N1 Ni1 1_555 1_555
C7 N1 1_555 1_555
H5 C7 1_555 1_555
C8 C7 1_555 1_555
H6 C8 1_555 1_555
C9 C8 1_555 1_555
H7 C9 1_555 1_555
C10 C9 1_555 1_555
H8 C10 1_555 1_555
C11 N1 1_555 1_555
H9 C11 1_555 1_555
N2 Ni1 1_555 1_555
C12 N2 1_555 1_555
H10 C12 1_555 1_555
C13 C12 1_555 1_555
H11 C13 1_555 1_555
C14 C13 1_555 1_555
H12 C14 1_555 1_555
C15 C14 1_555 1_555
H13 C15 1_555 1_555
C16 N2 1_555 1_555
H14 C16 1_555 1_555
N3 Ni1 1_555 1_555
C17 N3 1_555 1_555
H15 C17 1_555 1_555
C18 C17 1_555 1_555
H16 C18 1_555 1_555
C19 C18 1_555 1_555
H17 C19 1_555 1_555
C20 C19 1_555 1_555
H18 C20 1_555 1_555
C21 N3 1_555 1_555
H19 C21 1_555 1_555
C22 H20 1_555 1_555
C23 C22 1_555 1_555
H21 C23 1_555 1_555
C24 C22 1_555 1_555
H22 C24 1_555 1_555
O7 C25 1_555 1_555
C25 C26 1_555 1_555
C26 H23 1_555 1_555
C27 C26 1_555 1_555
H24 C27 1_555 1_555
H25 C27 1_555 1_555
H26 C27 1_555 1_555
C28 C26 1_555 1_555
H27 C28 1_555 1_555
H28 C28 1_555 1_555
C29 C28 1_555 1_555
H29 C29 1_555 1_555
H30 C29 1_555 1_555
H31 C29 1_555 1_555
C2B C3 1_555 1_555
C1B C2B 1_555 1_555
O1B C1B 1_555 1_555
O2B C1B 1_555 1_555
C3B C2B 1_555 1_555
C2A C3B 1_555 1_555
C1A C2A 1_555 1_555
O1A C1A 1_555 1_555
O2A C1A 1_555 1_555
C3A C2 1_555 1_555
H3A C3A 1_555 1_555
H3B C3B 1_555 1_555
C5B C6 1_555 1_555
C4B C5B 1_555 1_555
O5B C4B 1_555 1_555
O6B C4B 1_555 1_555
C6B C5B 1_555 1_555
C5A C6B 1_555 1_555
C4A C5A 1_555 1_555
O5A C4A 1_555 1_555
O6A C4A 1_555 1_555
C6A C5 1_555 1_555
H4A C6A 1_555 1_555
H4B C6B 1_555 1_555
C24O C23 1_555 1_555
C22O C24O 1_555 1_555
H20O C22O 1_555 1_555
C23O C24 1_555 1_555
H21O C23O 1_555 1_555
H22O C24O 1_555 1_555
Ni1B O1B 1_555 1_555
Ni1A O1A 1_555 1_555
Ni1B_2 O5B 1_555 1_555
Ni1A_2 O5A 1_555 1_555
O3B Ni1B 1_555 1_555
H1B O3B 1_555 1_555
H2B O3B 1_555 1_555
O5B_2 Ni1B 1_555 1_555
O6B_2 C4B_2 1_555 1_555
C4B_2 O5B_2 1_555 1_555
C5B_2 C4B_2 1_555 1_555
C6B_2 C5B_2 1_555 1_555
H4B_2 C6B_2 1_555 1_555
C5A_2 C6B_2 1_555 1_555
C4A_2 C5A_2 1_555 1_555
O5A_2 C4A_2 1_555 1_555
O6A_2 C4A_2 1_555 1_555
C6A_2 C5A_2 1_555 1_555
C5_2 C6A_2 1_555 1_555
C4_2 C5_2 1_555 1_555
O5_2 C4_2 1_555 1_555
O6_2 C4_2 1_555 1_555
C6_2 C5B_2 1_555 1_555
H4_2 C6_2 1_555 1_555
H4A_2 C6A_2 1_555 1_555
N1B Ni1B 1_555 1_555
C7B N1B 1_555 1_555
H5B C7B 1_555 1_555
C8B C7B 1_555 1_555
H6B C8B 1_555 1_555
C9B C8B 1_555 1_555
H7B C9B 1_555 1_555
C10B C9B 1_555 1_555
H8B C10B 1_555 1_555
C11B N1B 1_555 1_555
H9B C11B 1_555 1_555
N2B Ni1B 1_555 1_555
C12B N2B 1_555 1_555
H10B C12B 1_555 1_555
C13B C12B 1_555 1_555
H11B C13B 1_555 1_555
C14B C13B 1_555 1_555
H12B C14B 1_555 1_555
C15B C14B 1_555 1_555
H13B C15B 1_555 1_555
C16B N2B 1_555 1_555
H14B C16B 1_555 1_555
N3B Ni1B 1_555 1_555
C17B N3B 1_555 1_555
H15B C17B 1_555 1_555
C18B C17B 1_555 1_555
H16B C18B 1_555 1_555
C19B C18B 1_555 1_555
H17B C19B 1_555 1_555
C20B C19B 1_555 1_555
H18B C20B 1_555 1_555
C21B N3B 1_555 1_555
H19B C21B 1_555 1_555
O3A Ni1A 1_555 1_555
H1A O3A 1_555 1_555
H2A O3A 1_555 1_555
O5A_3 Ni1A 1_555 1_555
O6A_3 C4A_3 1_555 1_555
C4A_3 O5A_3 1_555 1_555
C5A_3 C4A_3 1_555 1_555
C6A_3 C5A_3 1_555 1_555
H4A_3 C6A_3 1_555 1_555
C5_3 C6A_3 1_555 1_555
C4_3 C5_3 1_555 1_555
O5_3 C4_3 1_555 1_555
O6_3 C4_3 1_555 1_555
C6_3 C5_3 1_555 1_555
C5B_3 C6_3 1_555 1_555
C4B_3 C5B_3 1_555 1_555
O5B_3 C4B_3 1_555 1_555
O6B_3 C4B_3 1_555 1_555
C6B_3 C5A_3 1_555 1_555
H4B_3 C6B_3 1_555 1_555
H4_3 C6_3 1_555 1_555
N1A Ni1A 1_555 1_555
C7A N1A 1_555 1_555
H5A C7A 1_555 1_555
C8A C7A 1_555 1_555
H6A C8A 1_555 1_555
C9A C8A 1_555 1_555
H7A C9A 1_555 1_555
C10A C9A 1_555 1_555
H8A C10A 1_555 1_555
C11A N1A 1_555 1_555
H9A C11A 1_555 1_555
N2A Ni1A 1_555 1_555
C12A N2A 1_555 1_555
H10A C12A 1_555 1_555
C13A C12A 1_555 1_555
H11A C13A 1_555 1_555
C14A C13A 1_555 1_555
H12A C14A 1_555 1_555
C15A C14A 1_555 1_555
H13A C15A 1_555 1_555
C16A N2A 1_555 1_555
H14A C16A 1_555 1_555
N3A Ni1A 1_555 1_555
C17A N3A 1_555 1_555
H15A C17A 1_555 1_555
C18A C17A 1_555 1_555
H16A C18A 1_555 1_555
C19A C18A 1_555 1_555
H17A C19A 1_555 1_555
C20A C19A 1_555 1_555
H18A C20A 1_555 1_555
C21A N3A 1_555 1_555
H19A C21A 1_555 1_555
Ni1A_3 O5A_2 1_555 1_555
Ni1_2 O5_2 1_555 1_555
Ni1_3 O5_3 1_555 1_555
Ni1B_3 O5B_3 1_555 1_555
O1B_2 Ni1B_2 1_555 1_555
O3B_2 Ni1B_2 1_555 1_555
N1B_2 Ni1B_2 1_555 1_555
N2B_2 Ni1B_2 1_555 1_555
N3B_2 Ni1B_2 1_555 1_555
O1A_2 Ni1A_3 1_555 1_555
O3A_2 Ni1A_3 1_555 1_555
N1A_2 Ni1A_3 1_555 1_555
N2A_2 Ni1A_3 1_555 1_555
N3A_2 Ni1A_3 1_555 1_555
O1_2 Ni1_3 1_555 1_555
O3_2 Ni1_3 1_555 1_555
N1_2 Ni1_3 1_555 1_555
N2_2 Ni1_3 1_555 1_555
N3_2 Ni1_3 1_555 1_555
H1B_2 O3B_2 1_555 1_555
H2B_2 O3B_2 1_555 1_555
C7B_2 N1B_2 1_555 1_555
C11B_2 N1B_2 1_555 1_555
C12B_2 N2B_2 1_555 1_555
C16B_2 N2B_2 1_555 1_555
C17B_2 N3B_2 1_555 1_555
C21B_2 N3B_2 1_555 1_555
H1A_2 O3A_2 1_555 1_555
H2A_2 O3A_2 1_555 1_555
C7A_2 N1A_2 1_555 1_555
C11A_2 N1A_2 1_555 1_555
C12A_2 N2A_2 1_555 1_555
C16A_2 N2A_2 1_555 1_555
C17A_2 N3A_2 1_555 1_555
C21A_2 N3A_2 1_555 1_555
H1_2 O3_2 1_555 1_555
H2_2 O3_2 1_555 1_555
C7_2 N1_2 1_555 1_555
C11_2 N1_2 1_555 1_555
C12_2 N2_2 1_555 1_555
C16_2 N2_2 1_555 1_555
C17_2 N3_2 1_555 1_555
C21_2 N3_2 1_555 1_555
H5B_2 C7B_2 1_555 1_555
C8B_2 C7B_2 1_555 1_555
C10B_2 C11B_2 1_555 1_555
H9B_2 C11B_2 1_555 1_555
H10B_2 C12B_2 1_555 1_555
C13B_2 C12B_2 1_555 1_555
C15B_2 C16B_2 1_555 1_555
H14B_2 C16B_2 1_555 1_555
H15B_2 C17B_2 1_555 1_555
C18B_2 C17B_2 1_555 1_555
C20B_2 C21B_2 1_555 1_555
H19B_2 C21B_2 1_555 1_555
H5A_2 C7A_2 1_555 1_555
C8A_2 C7A_2 1_555 1_555
C10A_2 C11A_2 1_555 1_555
H9A_2 C11A_2 1_555 1_555
H10A_2 C12A_2 1_555 1_555
C13A_2 C12A_2 1_555 1_555
C15A_2 C16A_2 1_555 1_555
H14A_2 C16A_2 1_555 1_555
H15A_2 C17A_2 1_555 1_555
C18A_2 C17A_2 1_555 1_555
C20A_2 C21A_2 1_555 1_555
H19A_2 C21A_2 1_555 1_555
H5_2 C7_2 1_555 1_555
C8_2 C7_2 1_555 1_555
C10_2 C11_2 1_555 1_555
H9_2 C11_2 1_555 1_555
H10_2 C12_2 1_555 1_555
C13_2 C12_2 1_555 1_555
C15_2 C16_2 1_555 1_555
H14_2 C16_2 1_555 1_555
H15_2 C17_2 1_555 1_555
C18_2 C17_2 1_555 1_555
C20_2 C21_2 1_555 1_555
H19_2 C21_2 1_555 1_555
H6B_2 C8B_2 1_555 1_555
C9B_2 C8B_2 1_555 1_555
H8B_2 C10B_2 1_555 1_555
H11B_2 C13B_2 1_555 1_555
C14B_2 C13B_2 1_555 1_555
H13B_2 C15B_2 1_555 1_555
H16B_2 C18B_2 1_555 1_555
C19B_2 C18B_2 1_555 1_555
H18B_2 C20B_2 1_555 1_555
H6A_2 C8A_2 1_555 1_555
C9A_2 C8A_2 1_555 1_555
H8A_2 C10A_2 1_555 1_555
H11A_2 C13A_2 1_555 1_555
C14A_2 C13A_2 1_555 1_555
H13A_2 C15A_2 1_555 1_555
H16A_2 C18A_2 1_555 1_555
C19A_2 C18A_2 1_555 1_555
H18A_2 C20A_2 1_555 1_555
H6_2 C8_2 1_555 1_555
C9_2 C8_2 1_555 1_555
H8_2 C10_2 1_555 1_555
H11_2 C13_2 1_555 1_555
C14_2 C13_2 1_555 1_555
H13_2 C15_2 1_555 1_555
H16_2 C18_2 1_555 1_555
C19_2 C18_2 1_555 1_555
H18_2 C20_2 1_555 1_555
H7B_2 C9B_2 1_555 1_555
H12B_2 C14B_2 1_555 1_555
H17B_2 C19B_2 1_555 1_555
H7A_2 C9A_2 1_555 1_555
H12A_2 C14A_2 1_555 1_555
H17A_2 C19A_2 1_555 1_555
H7_2 C9_2 1_555 1_555
H12_2 C14_2 1_555 1_555
H17_2 C19_2 1_555 1_555
C10 C11 1_555 1_555
C15 C16 1_555 1_555
C20 C21 1_555 1_555
C2A C3A 1_555 1_555
C5A C6A 1_555 1_555
C22O C23O 1_555 1_555
C5_2 C6_2 1_555 1_555
C10B C11B 1_555 1_555
C15B C16B 1_555 1_555
C20B C21B 1_555 1_555
C5B_3 C6B_3 1_555 1_555
C10A C11A 1_555 1_555
C15A C16A 1_555 1_555
C20A C21A 1_555 1_555
C10B_2 C9B_2 1_555 1_555
C15B_2 C14B_2 1_555 1_555
C20B_2 C19B_2 1_555 1_555
C10A_2 C9A_2 1_555 1_555
C15A_2 C14A_2 1_555 1_555
C20A_2 C19A_2 1_555 1_555
C10_2 C9_2 1_555 1_555
C15_2 C14_2 1_555 1_555
C20_2 C19_2 1_555 1_555

#END
