
#######################################################################
#
#                 Cambridge Crystallographic Data Centre
#                                CCDC 
#
#######################################################################
#
# If this CIF has been generated from an entry in the Cambridge 
# Structural Database, then it will include bibliographic, chemical, 
# crystal, experimental, refinement or atomic coordinate data resulting 
# from the CCDC's data processing and validation procedures.
#
#######################################################################

data_GOVXAS
_symmetry_cell_setting           monoclinic
_symmetry_space_group_name_H-M   'P 21/c'
_symmetry_Int_Tables_number      14
_space_group_name_Hall           '-P 2ybc'
loop_
_symmetry_equiv_pos_site_id
_symmetry_equiv_pos_as_xyz
1 x,y,z
2 -x,1/2+y,1/2-z
3 -x,-y,-z
4 x,1/2-y,1/2+z
_cell_length_a                   12.9014(3)
_cell_length_b                   15.0969(4)
_cell_length_c                   12.6756(3)
_cell_angle_alpha                90
_cell_angle_beta                 102.381(2)
_cell_angle_gamma                90
_cell_volume                     2411.42
loop_
_atom_site_label
_atom_site_type_symbol
_atom_site_fract_x
_atom_site_fract_y
_atom_site_fract_z
Co1 Co 0.52357(3) 0.48491(2) 0.60968(2)
O1 O 0.88337(15) 0.47598(13) 1.12332(13)
O2 O 0.40232(13) 0.57109(12) 0.60621(12)
O3 O 0.36739(14) 0.59724(12) 0.42773(12)
O4 O -0.38469(14) 0.58836(12) 0.57247(13)
O5 O -0.41795(14) 0.61615(12) 0.39625(13)
N1 N 0.58840(16) 0.50014(13) 0.77142(14)
N2 N 0.72268(17) 0.54413(15) 1.09862(15)
H1 H 0.6826 0.5759 1.1324
C1 C 0.5400(2) 0.54764(19) 0.83598(18)
H2 H 0.4719 0.5715 0.8059
C2 C 0.5827(2) 0.56395(19) 0.94283(18)
H3 H 0.5451 0.5987 0.9847
C3 C 0.6826(2) 0.52868(17) 0.98962(17)
C4 C 0.7344(2) 0.4806(2) 0.9223(2)
H4 H 0.8029 0.4564 0.9494
C5 C 0.6841(2) 0.46895(19) 0.81518(19)
H5 H 0.7204 0.4365 0.7701
C6 C 0.8182(2) 0.51545(18) 1.16018(17)
C7 C 0.8342(2) 0.54014(18) 1.27850(17)
H6 H 0.7743 0.5166 1.3074
H7 H 0.8337 0.6055 1.2851
C8 C 0.9381(2) 0.50436(18) 1.34605(18)
H8 H 0.9419 0.4399 1.3333
H9 H 0.9982 0.5328 1.3220
C9 C 0.9495(2) 0.52062(18) 1.46631(17)
H10 H 0.8871 0.4955 1.4896
H11 H 0.9504 0.5852 1.4798
C10 C 0.35058(19) 0.60883(16) 0.52172(17)
C11 C 0.26446(19) 0.67040(16) 0.53349(17)
C12 C 0.2389(2) 0.68615(17) 0.63332(18)
H12 H 0.2776 0.6570 0.6960
C13 C 0.1582(2) 0.74360(18) 0.64186(18)
H13 H 0.1414 0.7527 0.7104
C14 C 0.1008(2) 0.78847(16) 0.55251(18)
C15 C 0.1269(2) 0.77301(19) 0.45288(19)
H14 H 0.0887 0.8027 0.3904
C16 C 0.2069(2) 0.71555(19) 0.44383(19)
H15 H 0.2234 0.7063 0.3751
C17 C 0.0110(2) 0.84953(17) 0.5622(2)
H16 H 0.0049 0.8972 0.5076
H17 H 0.0258 0.8773 0.6347
C18 C -0.09193(19) 0.79852(16) 0.54531(19)
C19 C -0.1189(2) 0.75027(18) 0.62947(18)
H18 H -0.0751 0.7539 0.6998
C20 C -0.2080(2) 0.69756(18) 0.61227(18)
H19 H -0.2251 0.6656 0.6708
C21 C -0.27353(19) 0.69066(16) 0.50960(17)
C22 C -0.2486(2) 0.73982(17) 0.42552(18)
H20 H -0.2930 0.7367 0.3554
C23 C -0.1591(2) 0.79332(17) 0.44387(18)
H21 H -0.1434 0.8270 0.3860
C24 C -0.3649(2) 0.62813(17) 0.49197(19)
O1B O 1.11663(15) 0.52402(13) 1.87668(13)
N1B N 1.41160(16) 0.49986(13) 2.22858(14)
N2B N 1.27732(17) 0.45587(15) 1.90138(15)
H1B H 1.3174 0.4241 1.8676
C1B C 1.4600(2) 0.45236(19) 2.16402(18)
H2B H 1.5281 0.4285 2.1941
C2B C 1.4173(2) 0.43605(19) 2.05717(18)
H3B H 1.4549 0.4013 2.0153
C3B C 1.3174(2) 0.47132(17) 2.01038(17)
C4B C 1.2656(2) 0.5194(2) 2.0777(2)
H4B H 1.1971 0.5436 2.0506
C5B C 1.3159(2) 0.53105(19) 2.18482(19)
H5B H 1.2796 0.5635 2.2299
C6B C 1.1818(2) 0.48455(18) 1.83982(17)
C7B C 1.1658(2) 0.45986(18) 1.72150(17)
H6B H 1.2257 0.4834 1.6926
H7B H 1.1663 0.3945 1.7149
C8B C 1.0619(2) 0.49564(18) 1.65395(18)
H8B H 1.0581 0.5601 1.6667
H9B H 1.0018 0.4672 1.6780
C9B C 1.0505(2) 0.47938(18) 1.53369(17)
H10B H 1.1129 0.5045 1.5104
H11B H 1.0496 0.4148 1.5202
Co1B Co -0.52357(3) 0.51509(2) 0.39032(2)
O2B O -0.40232(13) 0.42891(12) 0.39379(12)
O3B O -0.36739(14) 0.40276(12) 0.57227(12)
O4B O 0.38469(14) 0.41164(12) 0.42753(13)
O5B O 0.41795(14) 0.38385(12) 0.60375(13)
C10B C -0.35058(19) 0.39117(16) 0.47828(17)
C11B C -0.26446(19) 0.32960(16) 0.46651(17)
C12B C -0.2389(2) 0.31385(17) 0.36668(18)
H12B H -0.2776 0.3430 0.3040
C13B C -0.1582(2) 0.25640(18) 0.35814(18)
H13B H -0.1414 0.2473 0.2896
C14B C -0.1008(2) 0.21153(16) 0.44749(18)
C15B C -0.1269(2) 0.22699(19) 0.54712(19)
H14B H -0.0887 0.1973 0.6096
C16B C -0.2069(2) 0.28445(19) 0.55617(19)
H15B H -0.2234 0.2937 0.6249
C17B C -0.0110(2) 0.15047(17) 0.4378(2)
H16B H -0.0049 0.1028 0.4924
H17B H -0.0258 0.1227 0.3653
C18B C 0.09193(19) 0.20148(16) 0.45469(19)
C19B C 0.1189(2) 0.24973(18) 0.37053(18)
H18B H 0.0751 0.2461 0.3002
C20B C 0.2080(2) 0.30244(18) 0.38773(18)
H19B H 0.2251 0.3344 0.3292
C21B C 0.27353(19) 0.30934(16) 0.49040(17)
C22B C 0.2486(2) 0.26018(17) 0.57448(18)
H20B H 0.2930 0.2633 0.6446
C23B C 0.1591(2) 0.20668(17) 0.55613(18)
H21B H 0.1434 0.1730 0.6140
C24B C 0.3649(2) 0.37187(17) 0.50803(19)
Co1_2 Co -0.47643(3) 0.48491(2) 0.60968(2)
Co1B_2 Co 0.47643(3) 0.51509(2) 0.39032(2)
Co1B_3 Co 1.47643(3) 0.51509(2) 2.39032(2)
O3_2 O -0.63261(14) 0.59724(12) 0.42773(12)
O3B_2 O 0.63261(14) 0.40276(12) 0.57227(12)
O4_2 O 0.61531(14) 0.58836(12) 0.57247(13)
O4B_2 O -0.61531(14) 0.41164(12) 0.42753(13)
N1B_2 N -0.58840(16) 0.49986(13) 0.22858(14)
O6 O -0.41081(15) 0.65534(13) 0.18969(14)
H22 H -0.4030 0.6478 0.2566
C25 C -0.4908(3) 0.7187(2) 0.1545(2)
H23 H -0.5073 0.7211 0.0754
H24 H -0.4662 0.7769 0.1836
H25 H -0.5547 0.7021 0.1799
loop_
_geom_bond_atom_site_label_1
_geom_bond_atom_site_label_2
_geom_bond_site_symmetry_1
_geom_bond_site_symmetry_2
Co1 O2 1_555 1_555
O1 C6 1_555 1_555
O2 C10 1_555 1_555
O3 C10 1_555 1_555
O4 C24 1_555 1_555
O5 C24 1_555 1_555
N1 Co1 1_555 1_555
N2 H1 1_555 1_555
C1 N1 1_555 1_555
H2 C1 1_555 1_555
C2 C1 1_555 1_555
H3 C2 1_555 1_555
C3 N2 1_555 1_555
C4 C3 1_555 1_555
H4 C4 1_555 1_555
C5 N1 1_555 1_555
H5 C5 1_555 1_555
C6 N2 1_555 1_555
C7 C6 1_555 1_555
H6 C7 1_555 1_555
H7 C7 1_555 1_555
C8 C7 1_555 1_555
H8 C8 1_555 1_555
H9 C8 1_555 1_555
C9 C8 1_555 1_555
H10 C9 1_555 1_555
H11 C9 1_555 1_555
C10 C11 1_555 1_555
C11 C12 1_555 1_555
C12 H12 1_555 1_555
C13 C12 1_555 1_555
H13 C13 1_555 1_555
C14 C13 1_555 1_555
C15 C14 1_555 1_555
H14 C15 1_555 1_555
C16 C11 1_555 1_555
H15 C16 1_555 1_555
C17 C14 1_555 1_555
H16 C17 1_555 1_555
H17 C17 1_555 1_555
C18 C17 1_555 1_555
C19 C18 1_555 1_555
H18 C19 1_555 1_555
C20 C19 1_555 1_555
H19 C20 1_555 1_555
C21 C20 1_555 1_555
C22 C21 1_555 1_555
H20 C22 1_555 1_555
C23 C18 1_555 1_555
H21 C23 1_555 1_555
C24 C21 1_555 1_555
O6 H22 1_555 1_555
C25 O6 1_555 1_555
H23 C25 1_555 1_555
H24 C25 1_555 1_555
H25 C25 1_555 1_555
O1B C6B 1_555 1_555
N1B C1B 1_555 1_555
N2B H1B 1_555 1_555
C1B H2B 1_555 1_555
C2B C1B 1_555 1_555
H3B C2B 1_555 1_555
C3B N2B 1_555 1_555
C4B C3B 1_555 1_555
H4B C4B 1_555 1_555
C5B N1B 1_555 1_555
H5B C5B 1_555 1_555
C6B N2B 1_555 1_555
C7B C6B 1_555 1_555
H6B C7B 1_555 1_555
H7B C7B 1_555 1_555
C8B C7B 1_555 1_555
H8B C8B 1_555 1_555
H9B C8B 1_555 1_555
C9B C9 1_555 1_555
H10B C9B 1_555 1_555
H11B C9B 1_555 1_555
Co1B O5 1_555 1_555
O2B Co1B 1_555 1_555
O3B C10B 1_555 1_555
O4B C24B 1_555 1_555
O5B Co1 1_555 1_555
C10B O2B 1_555 1_555
C11B C10B 1_555 1_555
C12B C11B 1_555 1_555
H12B C12B 1_555 1_555
C13B C12B 1_555 1_555
H13B C13B 1_555 1_555
C14B C13B 1_555 1_555
C15B C14B 1_555 1_555
H14B C15B 1_555 1_555
C16B C11B 1_555 1_555
H15B C16B 1_555 1_555
C17B C14B 1_555 1_555
H16B C17B 1_555 1_555
H17B C17B 1_555 1_555
C18B C17B 1_555 1_555
C19B C18B 1_555 1_555
H18B C19B 1_555 1_555
C20B C19B 1_555 1_555
H19B C20B 1_555 1_555
C21B C20B 1_555 1_555
C22B C21B 1_555 1_555
H20B C22B 1_555 1_555
C23B C18B 1_555 1_555
H21B C23B 1_555 1_555
C24B O5B 1_555 1_555
Co1_2 O4 1_555 1_555
Co1B_2 Co1 1_555 1_555
Co1B_3 N1B 1_555 1_555
O3_2 Co1B 1_555 1_555
O3B_2 Co1 1_555 1_555
O4_2 Co1 1_555 1_555
O4B_2 Co1B 1_555 1_555
N1B_2 Co1B 1_555 1_555
O3 Co1B_2 1_555 1_555
C2 C3 1_555 1_555
C4 C5 1_555 1_555
C15 C16 1_555 1_555
C22 C23 1_555 1_555
C2B C3B 1_555 1_555
C4B C5B 1_555 1_555
C8B C9B 1_555 1_555
Co1B Co1_2 1_555 1_555
O3B Co1_2 1_555 1_555
O4B Co1B_2 1_555 1_555
C15B C16B 1_555 1_555
C21B C24B 1_555 1_555
C22B C23B 1_555 1_555

#END
