
#######################################################################
#
#                 Cambridge Crystallographic Data Centre
#                                CCDC 
#
#######################################################################
#
# If this CIF has been generated from an entry in the Cambridge 
# Structural Database, then it will include bibliographic, chemical, 
# crystal, experimental, refinement or atomic coordinate data resulting 
# from the CCDC's data processing and validation procedures.
#
#######################################################################

data_GOVYUN
_symmetry_cell_setting           triclinic
_symmetry_space_group_name_H-M   'P -1'
_symmetry_Int_Tables_number      2
_space_group_name_Hall           '-P 1'
loop_
_symmetry_equiv_pos_site_id
_symmetry_equiv_pos_as_xyz
1 x,y,z
2 -x,-y,-z
_cell_length_a                   9.6705(5)
_cell_length_b                   11.6246(6)
_cell_length_c                   11.7082(6)
_cell_angle_alpha                66.363(1)
_cell_angle_beta                 82.283(1)
_cell_angle_gamma                68.217(1)
_cell_volume                     1119.5
loop_
_atom_site_label
_atom_site_type_symbol
_atom_site_fract_x
_atom_site_fract_y
_atom_site_fract_z
Zn1 Zn -0.55467(2) 1.20898(2) 1.27940(2)
S1 S -0.76000(9) 0.70255(8) 1.34099(7)
S2 S -0.56721(10) 0.55737(7) 1.32511(6)
O1 O -0.35472(16) 1.09283(16) 1.35112(16)
O2 O -0.3208(2) 1.28101(17) 1.31692(18)
O3 O -0.67421(18) 1.27880(17) 1.39964(17)
O4 O -0.8327(2) 1.3895(2) 1.24294(19)
N1 N -0.62029(19) 1.05376(18) 1.28818(16)
N2 N -0.4765(2) 0.7006(2) 0.90781(18)
C1 C -0.5355(3) 0.9279(2) 1.3535(2)
H1 H -0.4473 0.9139 1.3890
C2 C -0.5705(3) 0.8179(2) 1.3713(2)
H2 H -0.5083 0.7321 1.4186
C3 C -0.6996(3) 0.8371(2) 1.3180(2)
C4 C -0.7908(3) 0.9671(3) 1.2521(2)
H3 H -0.8800 0.9835 1.2166
C5 C -0.7479(3) 1.0719(2) 1.2399(2)
H4 H -0.8104 1.1590 1.1962
C6 C -0.6119(3) 0.7438(4) 0.9501(3)
H5 H -0.6880 0.8060 0.8927
C7 C -0.6459(3) 0.7016(5) 1.0744(3)
H6 H -0.7436 0.7330 1.0991
C8 C -0.5376(3) 0.6146(2) 1.1607(2)
C9 C -0.3987(3) 0.5675(3) 1.1187(2)
H7 H -0.3213 0.5052 1.1748
C10 C -0.3725(3) 0.6122(2) 0.9925(2)
H8 H -0.2764 0.5783 0.9658
C11 C -0.0871(2) 0.9364(2) 1.48409(18)
H9 H -0.1456 0.8934 1.4732
C12 C -0.13312(19) 1.07560(18) 1.43088(17)
C13 C -0.0439(2) 1.13884(19) 1.44720(18)
H10 H -0.0728 1.2318 1.4117
C14 C -0.2787(2) 1.1584(2) 1.36010(18)
C15 C -0.8674(3) 1.4011(3) 1.5499(2)
H11 H -0.7777 1.3338 1.5846
C16 C -0.9035(2) 1.4340(2) 1.4277(2)
C17 C -1.0369(3) 1.5331(3) 1.3785(2)
H12 H -1.0633 1.5562 1.2966
C18 C -0.7986(3) 1.3645(2) 1.3486(2)
O1A O 0.35472(16) 0.90717(16) 1.64888(16)
O2A O 0.3208(2) 0.71899(17) 1.68308(18)
C11A C 0.0871(2) 1.0636(2) 1.51591(18)
H9A H 0.1456 1.1066 1.5268
C12A C 0.13312(19) 0.92440(18) 1.56912(17)
C13A C 0.0439(2) 0.86116(19) 1.55280(18)
H10A H 0.0728 0.7682 1.5883
C14A C 0.2787(2) 0.8416(2) 1.63990(18)
O3A O -1.32579(18) 1.72120(17) 1.60036(17)
O4A O -1.1673(2) 1.6105(2) 1.75706(19)
C15A C -1.1326(3) 1.5989(3) 1.4501(2)
H11A H -1.2223 1.6662 1.4154
C16A C -1.0965(2) 1.5660(2) 1.5723(2)
C17A C -0.9631(3) 1.4669(3) 1.6215(2)
H12A H -0.9367 1.4438 1.7034
C18A C -1.2014(3) 1.6355(2) 1.6514(2)
Zn1A Zn -1.44533(2) 1.79102(2) 1.72060(2)
S1A S -1.24000(9) 2.29745(8) 1.65901(7)
S2A S -1.43279(10) 2.44263(7) 1.67489(6)
N1A N -1.37971(19) 1.94624(18) 1.71182(16)
N2A N -1.5235(2) 2.2994(2) 2.09219(18)
C1A C -1.4645(3) 2.0721(2) 1.6465(2)
H1A H -1.5527 2.0861 1.6110
C2A C -1.4295(3) 2.1821(2) 1.6287(2)
H2A H -1.4917 2.2679 1.5814
C3A C -1.3004(3) 2.1629(2) 1.6820(2)
C4A C -1.2092(3) 2.0329(3) 1.7479(2)
H3A H -1.1200 2.0165 1.7834
C5A C -1.2521(3) 1.9281(2) 1.7601(2)
H4A H -1.1896 1.8410 1.8038
C6A C -1.3881(3) 2.2562(4) 2.0499(3)
H5A H -1.3120 2.1940 2.1073
C7A C -1.3541(3) 2.2984(5) 1.9256(3)
H6A H -1.2564 2.2670 1.9009
C8A C -1.4624(3) 2.3854(2) 1.8393(2)
C9A C -1.6013(3) 2.4325(3) 1.8813(2)
H7A H -1.6787 2.4948 1.8252
C10A C -1.6275(3) 2.3878(2) 2.0075(2)
H8A H -1.7236 2.4217 2.0342
Zn1_2 Zn -1.55467(2) 2.20898(2) 2.27940(2)
Zn1A_2 Zn -0.44533(2) 0.79102(2) 0.72060(2)
Zn1A_3 Zn 0.55467(2) 0.79102(2) 1.72060(2)
O1A_2 O -1.64528(16) 1.90717(16) 1.64888(16)
N2_2 N -1.4765(2) 1.7006(2) 1.90781(18)
N2A_2 N -0.5235(2) 1.2994(2) 1.09219(18)
loop_
_geom_bond_atom_site_label_1
_geom_bond_atom_site_label_2
_geom_bond_site_symmetry_1
_geom_bond_site_symmetry_2
Zn1 O1 1_555 1_555
S1 S2 1_555 1_555
S2 C8 1_555 1_555
O1 C14 1_555 1_555
O2 C14 1_555 1_555
O3 Zn1 1_555 1_555
O4 C18 1_555 1_555
N1 Zn1 1_555 1_555
N2 C6 1_555 1_555
C1 N1 1_555 1_555
H1 C1 1_555 1_555
C2 C1 1_555 1_555
H2 C2 1_555 1_555
C3 S1 1_555 1_555
C4 C3 1_555 1_555
H3 C4 1_555 1_555
C5 N1 1_555 1_555
H4 C5 1_555 1_555
C6 H5 1_555 1_555
C7 C6 1_555 1_555
H6 C7 1_555 1_555
C8 C7 1_555 1_555
C9 C8 1_555 1_555
H7 C9 1_555 1_555
C10 N2 1_555 1_555
H8 C10 1_555 1_555
C11 H9 1_555 1_555
C12 C11 1_555 1_555
C13 C12 1_555 1_555
H10 C13 1_555 1_555
C14 C12 1_555 1_555
C15 H11 1_555 1_555
C16 C15 1_555 1_555
C17 C16 1_555 1_555
H12 C17 1_555 1_555
C18 O3 1_555 1_555
O1A C14A 1_555 1_555
O2A C14A 1_555 1_555
C11A C13 1_555 1_555
H9A C11A 1_555 1_555
C12A C11A 1_555 1_555
C13A C11 1_555 1_555
H10A C13A 1_555 1_555
C14A C12A 1_555 1_555
O3A C18A 1_555 1_555
O4A C18A 1_555 1_555
C15A C17 1_555 1_555
H11A C15A 1_555 1_555
C16A C15A 1_555 1_555
C17A C15 1_555 1_555
H12A C17A 1_555 1_555
C18A C16A 1_555 1_555
Zn1A O3A 1_555 1_555
S1A S2A 1_555 1_555
S2A C8A 1_555 1_555
N1A Zn1A 1_555 1_555
N2A C6A 1_555 1_555
C1A N1A 1_555 1_555
H1A C1A 1_555 1_555
C2A C1A 1_555 1_555
H2A C2A 1_555 1_555
C3A S1A 1_555 1_555
C4A C3A 1_555 1_555
H3A C4A 1_555 1_555
C5A N1A 1_555 1_555
H4A C5A 1_555 1_555
C6A H5A 1_555 1_555
C7A C6A 1_555 1_555
H6A C7A 1_555 1_555
C8A C7A 1_555 1_555
C9A C8A 1_555 1_555
H7A C9A 1_555 1_555
C10A N2A 1_555 1_555
H8A C10A 1_555 1_555
Zn1_2 N2A 1_555 1_555
Zn1A_2 N2 1_555 1_555
Zn1A_3 O1A 1_555 1_555
O1A_2 Zn1A 1_555 1_555
N2_2 Zn1A 1_555 1_555
N2A_2 Zn1 1_555 1_555
C2 C3 1_555 1_555
C4 C5 1_555 1_555
C9 C10 1_555 1_555
C16 C18 1_555 1_555
C12A C13A 1_555 1_555
C16A C17A 1_555 1_555
C2A C3A 1_555 1_555
C4A C5A 1_555 1_555
C9A C10A 1_555 1_555

#END
