
#######################################################################
#
#                 Cambridge Crystallographic Data Centre
#                                CCDC 
#
#######################################################################
#
# If this CIF has been generated from an entry in the Cambridge 
# Structural Database, then it will include bibliographic, chemical, 
# crystal, experimental, refinement or atomic coordinate data resulting 
# from the CCDC's data processing and validation procedures.
#
#######################################################################

data_GOVYOH
_symmetry_cell_setting           triclinic
_symmetry_space_group_name_H-M   'P -1'
_symmetry_Int_Tables_number      2
_space_group_name_Hall           '-P 1'
loop_
_symmetry_equiv_pos_site_id
_symmetry_equiv_pos_as_xyz
1 x,y,z
2 -x,-y,-z
_cell_length_a                   9.4960(11)
_cell_length_b                   11.5347(13)
_cell_length_c                   11.8048(13)
_cell_angle_alpha                67.494(2)
_cell_angle_beta                 81.395(2)
_cell_angle_gamma                69.474(2)
_cell_volume                     1118.53
loop_
_atom_site_label
_atom_site_type_symbol
_atom_site_fract_x
_atom_site_fract_y
_atom_site_fract_z
Zn1 Zn -0.55076(6) 1.20314(5) 1.27838(5)
S1 S -0.77066(19) 0.69881(16) 1.34192(15)
S2 S -0.5763(2) 0.56276(15) 1.31492(16)
O1 O -0.3546(4) 1.0949(4) 1.3542(4)
O2 O -0.2925(4) 1.2780(4) 1.2999(4)
O3 O -0.6694(4) 1.2802(3) 1.3979(4)
O4 O -0.8315(4) 1.3786(5) 1.2474(4)
N1 N -0.6207(4) 1.0486(4) 1.2933(4)
N2 N -0.4843(5) 0.7096(4) 0.9040(4)
C1 C -0.5421(5) 0.9255(5) 1.3645(5)
H1 H -0.4560 0.9138 1.4047
C2 C -0.5815(6) 0.8150(5) 1.3815(5)
H2 H -0.5239 0.7291 1.4322
C3 C -0.7078(6) 0.8337(5) 1.3223(5)
C4 C -0.7887(5) 0.9582(5) 1.2497(5)
H3 H -0.8747 0.9723 1.2079
C5 C -0.7420(5) 1.0640(5) 1.2385(5)
H4 H -0.7993 1.1509 1.1896
C6 C -0.6217(7) 0.7595(10) 0.9480(7)
H5 H -0.6971 0.8245 0.8915
C7 C -0.6581(8) 0.7210(10) 1.0701(7)
H6 H -0.7559 0.7602 1.0980
C8 C -0.5499(8) 0.6237(6) 1.1529(6)
C9 C -0.4104(10) 0.5747(7) 1.1086(7)
H7 H -0.3322 0.5105 1.1627
C10 C -0.3841(9) 0.6202(7) 0.9824(7)
H8 H -0.2868 0.5834 0.9522
C11 C -0.0895(5) 0.9374(5) 1.4792(4)
H9 H -0.1507 0.8949 1.4645
C12 C -0.1280(5) 1.0754(5) 1.4297(4)
C13 C -0.0375(5) 1.1375(5) 1.4505(4)
H10 H -0.0632 1.2312 1.4163
C14 C -0.2673(5) 1.1576(5) 1.3557(5)
C15 C -0.8636(5) 1.4091(5) 1.5464(5)
H11 H -0.7694 1.3467 1.5785
C16 C -0.9022(5) 1.4302(5) 1.4299(4)
C17 C -1.0408(5) 1.5231(5) 1.3836(5)
H12 H -1.0689 1.5393 1.3037
C18 C -0.7955(5) 1.3590(5) 1.3516(5)
O1A O 0.3546(4) 0.9051(4) 1.6458(4)
O2A O 0.2925(4) 0.7220(4) 1.7001(4)
C11A C 0.0895(5) 1.0626(5) 1.5208(4)
H9A H 0.1507 1.1051 1.5355
C12A C 0.1280(5) 0.9246(5) 1.5703(4)
C13A C 0.0375(5) 0.8625(5) 1.5495(4)
H10A H 0.0632 0.7688 1.5837
C14A C 0.2673(5) 0.8424(5) 1.6443(5)
O3A O -1.3306(4) 1.7198(3) 1.6021(4)
O4A O -1.1685(4) 1.6214(5) 1.7526(4)
C15A C -1.1364(5) 1.5909(5) 1.4536(5)
H11A H -1.2306 1.6533 1.4215
C16A C -1.0978(5) 1.5698(5) 1.5701(4)
C17A C -0.9592(5) 1.4769(5) 1.6164(5)
H12A H -0.9311 1.4607 1.6963
C18A C -1.2045(5) 1.6410(5) 1.6484(5)
Zn1A Zn -1.44924(6) 1.79686(5) 1.72162(5)
S1A S -1.22934(19) 2.30119(16) 1.65808(15)
S2A S -1.4237(2) 2.43724(15) 1.68508(16)
N1A N -1.3793(4) 1.9514(4) 1.7067(4)
N2A N -1.5157(5) 2.2904(4) 2.0960(4)
C1A C -1.4579(5) 2.0745(5) 1.6355(5)
H1A H -1.5440 2.0862 1.5953
C2A C -1.4185(6) 2.1850(5) 1.6185(5)
H2A H -1.4761 2.2709 1.5678
C3A C -1.2922(6) 2.1663(5) 1.6777(5)
C4A C -1.2113(5) 2.0418(5) 1.7503(5)
H3A H -1.1253 2.0277 1.7921
C5A C -1.2580(5) 1.9360(5) 1.7615(5)
H4A H -1.2007 1.8491 1.8104
C6A C -1.3783(7) 2.2405(10) 2.0520(7)
H5A H -1.3029 2.1755 2.1085
C7A C -1.3419(8) 2.2790(10) 1.9299(7)
H6A H -1.2441 2.2398 1.9020
C8A C -1.4501(8) 2.3763(6) 1.8471(6)
C9A C -1.5896(10) 2.4253(7) 1.8914(7)
H7A H -1.6678 2.4895 1.8373
C10A C -1.6159(9) 2.3798(7) 2.0176(7)
H8A H -1.7132 2.4166 2.0478
Zn1_2 Zn -1.55076(6) 2.20314(5) 2.27838(5)
Zn1A_2 Zn -0.44924(6) 0.79686(5) 0.72162(5)
Zn1A_3 Zn 0.55076(6) 0.79686(5) 1.72162(5)
O1A_2 O -1.6454(4) 1.9051(4) 1.6458(4)
N2_2 N -1.4843(5) 1.7096(4) 1.9040(4)
N2A_2 N -0.5157(5) 1.2904(4) 1.0960(4)
O5 O -0.9297(6) 1.6366(7) 0.8522(5)
H13 H -0.9841 1.6169 0.8142
H14 H -0.8773 1.6806 0.7982
O6 O -0.9947(11) 1.6592(11) 1.0742(9)
H15 H -0.9967 1.6424 1.0076
H16 H -0.9702 1.5857 1.1430
O7 O -1.063(2) 1.9233(18) 1.0740(16)
H17 H -1.0913 2.0039 1.0651
C19 C -1.185(3) 1.873(3) 1.095(2)
H18 H -1.2394 1.9077 1.0192
H19 H -1.2513 1.9050 1.1568
H20 H -1.1503 1.7764 1.1262
loop_
_geom_bond_atom_site_label_1
_geom_bond_atom_site_label_2
_geom_bond_site_symmetry_1
_geom_bond_site_symmetry_2
Zn1 O1 1_555 1_555
S1 S2 1_555 1_555
S2 C8 1_555 1_555
O1 C14 1_555 1_555
O2 C14 1_555 1_555
O3 Zn1 1_555 1_555
O4 C18 1_555 1_555
N1 Zn1 1_555 1_555
N2 C6 1_555 1_555
C1 N1 1_555 1_555
H1 C1 1_555 1_555
C2 C1 1_555 1_555
H2 C2 1_555 1_555
C3 S1 1_555 1_555
C4 C3 1_555 1_555
H3 C4 1_555 1_555
C5 N1 1_555 1_555
H4 C5 1_555 1_555
C6 H5 1_555 1_555
C7 C6 1_555 1_555
H6 C7 1_555 1_555
C8 C7 1_555 1_555
C9 C8 1_555 1_555
H7 C9 1_555 1_555
C10 N2 1_555 1_555
H8 C10 1_555 1_555
C11 H9 1_555 1_555
C12 C11 1_555 1_555
C13 C12 1_555 1_555
H10 C13 1_555 1_555
C14 C12 1_555 1_555
C15 H11 1_555 1_555
C16 C15 1_555 1_555
C17 C16 1_555 1_555
H12 C17 1_555 1_555
C18 O3 1_555 1_555
O5 H13 1_555 1_555
H14 O5 1_555 1_555
O6 H15 1_555 1_555
H16 O6 1_555 1_555
O7 H17 1_555 1_555
C19 O7 1_555 1_555
H18 C19 1_555 1_555
H19 C19 1_555 1_555
H20 C19 1_555 1_555
O1A C14A 1_555 1_555
O2A C14A 1_555 1_555
C11A C13 1_555 1_555
H9A C11A 1_555 1_555
C12A C11A 1_555 1_555
C13A C11 1_555 1_555
H10A C13A 1_555 1_555
C14A C12A 1_555 1_555
O3A C18A 1_555 1_555
O4A C18A 1_555 1_555
C15A C17 1_555 1_555
H11A C15A 1_555 1_555
C16A C15A 1_555 1_555
C17A C15 1_555 1_555
H12A C17A 1_555 1_555
C18A C16A 1_555 1_555
Zn1A O3A 1_555 1_555
S1A S2A 1_555 1_555
S2A C8A 1_555 1_555
N1A Zn1A 1_555 1_555
N2A C6A 1_555 1_555
C1A N1A 1_555 1_555
H1A C1A 1_555 1_555
C2A C1A 1_555 1_555
H2A C2A 1_555 1_555
C3A S1A 1_555 1_555
C4A C3A 1_555 1_555
H3A C4A 1_555 1_555
C5A N1A 1_555 1_555
H4A C5A 1_555 1_555
C6A H5A 1_555 1_555
C7A C6A 1_555 1_555
H6A C7A 1_555 1_555
C8A C7A 1_555 1_555
C9A C8A 1_555 1_555
H7A C9A 1_555 1_555
C10A N2A 1_555 1_555
H8A C10A 1_555 1_555
Zn1_2 N2A 1_555 1_555
Zn1A_2 N2 1_555 1_555
Zn1A_3 O1A 1_555 1_555
O1A_2 Zn1A 1_555 1_555
N2_2 Zn1A 1_555 1_555
N2A_2 Zn1 1_555 1_555
C2 C3 1_555 1_555
C4 C5 1_555 1_555
C9 C10 1_555 1_555
C16 C18 1_555 1_555
C12A C13A 1_555 1_555
C16A C17A 1_555 1_555
C2A C3A 1_555 1_555
C4A C5A 1_555 1_555
C9A C10A 1_555 1_555

#END
