
#######################################################################
#
#                 Cambridge Crystallographic Data Centre
#                                CCDC 
#
#######################################################################
#
# If this CIF has been generated from an entry in the Cambridge 
# Structural Database, then it will include bibliographic, chemical, 
# crystal, experimental, refinement or atomic coordinate data resulting 
# from the CCDC's data processing and validation procedures.
#
#######################################################################

data_GOVZAU
_symmetry_cell_setting           triclinic
_symmetry_space_group_name_H-M   'P -1'
_symmetry_Int_Tables_number      2
_space_group_name_Hall           '-P 1'
loop_
_symmetry_equiv_pos_site_id
_symmetry_equiv_pos_as_xyz
1 x,y,z
2 -x,-y,-z
_cell_length_a                   9.5666(4)
_cell_length_b                   11.5400(5)
_cell_length_c                   11.8627(5)
_cell_angle_alpha                67.610(1)
_cell_angle_beta                 80.961(1)
_cell_angle_gamma                68.932(1)
_cell_volume                     1129.64
loop_
_atom_site_label
_atom_site_type_symbol
_atom_site_fract_x
_atom_site_fract_y
_atom_site_fract_z
Zn1 Zn -0.54615(3) 1.20320(3) 1.27849(3)
S1 S -0.76723(12) 0.70104(10) 1.34332(9)
S2 S -0.57601(14) 0.56376(9) 1.31278(8)
O1 O -0.3512(2) 1.0947(2) 1.3530(2)
O2 O -0.2919(3) 1.2770(2) 1.3000(2)
O3 O -0.6678(2) 1.2808(2) 1.3960(2)
O4 O -0.8297(3) 1.3771(3) 1.2490(2)
N1 N -0.6136(2) 1.0471(2) 1.2928(2)
N2 N -0.4879(3) 0.7103(2) 0.9023(2)
C1 C -0.5379(3) 0.9255(3) 1.3625(3)
H1 H -0.4536 0.9133 1.4011
C2 C -0.5778(4) 0.8158(3) 1.3808(3)
H2 H -0.5226 0.7317 1.4309
C3 C -0.7033(3) 0.8352(3) 1.3218(3)
C4 C -0.7834(4) 0.9608(3) 1.2503(3)
H3 H -0.8680 0.9756 1.2106
C5 C -0.7365(3) 1.0647(3) 1.2384(3)
H4 H -0.7919 1.1502 1.1910
C6 C -0.6240(4) 0.7588(5) 0.9489(4)
H5 H -0.6985 0.8227 0.8952
C7 C -0.6596(4) 0.7198(6) 1.0705(4)
H6 H -0.7556 0.7569 1.0983
C8 C -0.5510(4) 0.6244(3) 1.1517(3)
C9 C -0.4120(5) 0.5748(4) 1.1051(3)
H7 H -0.3360 0.5106 1.1572
C10 C -0.3836(4) 0.6197(4) 0.9809(3)
H8 H -0.2878 0.5852 0.9513
C11 C -0.0890(3) 0.9375(3) 1.4807(2)
H9 H -0.1485 0.8953 1.4681
C12 C -0.1270(3) 1.0753(2) 1.4283(2)
C13 C -0.0367(3) 1.1366(3) 1.4487(2)
H10 H -0.0613 1.2283 1.4144
C14 C -0.2656(3) 1.1569(3) 1.3548(2)
C15 C -0.8633(3) 1.4083(3) 1.5460(3)
H11 H -0.7720 1.3465 1.5778
C16 C -0.9009(3) 1.4304(3) 1.4292(3)
C17 C -1.0397(3) 1.5228(3) 1.3857(3)
H12 H -1.0672 1.5380 1.3082
C18 C -0.7942(3) 1.3596(3) 1.3510(3)
O1A O 0.3512(2) 0.9053(2) 1.6470(2)
O2A O 0.2919(3) 0.7230(2) 1.7000(2)
C11A C 0.0890(3) 1.0625(3) 1.5193(2)
H9A H 0.1485 1.1047 1.5319
C12A C 0.1270(3) 0.9247(2) 1.5717(2)
C13A C 0.0367(3) 0.8634(3) 1.5513(2)
H10A H 0.0613 0.7717 1.5856
C14A C 0.2656(3) 0.8431(3) 1.6452(2)
O3A O -1.3322(2) 1.7192(2) 1.6040(2)
O4A O -1.1703(3) 1.6229(3) 1.7510(2)
C15A C -1.1367(3) 1.5917(3) 1.4540(3)
H11A H -1.2280 1.6535 1.4222
C16A C -1.0991(3) 1.5696(3) 1.5708(3)
C17A C -0.9603(3) 1.4772(3) 1.6143(3)
H12A H -0.9328 1.4620 1.6918
C18A C -1.2058(3) 1.6404(3) 1.6490(3)
Zn1A Zn -1.45385(3) 1.79680(3) 1.72151(3)
S1A S -1.23277(12) 2.29896(10) 1.65668(9)
S2A S -1.42399(14) 2.43624(9) 1.68722(8)
N1A N -1.3864(2) 1.9529(2) 1.7072(2)
N2A N -1.5121(3) 2.2897(2) 2.0977(2)
C1A C -1.4621(3) 2.0745(3) 1.6375(3)
H1A H -1.5464 2.0867 1.5989
C2A C -1.4222(4) 2.1842(3) 1.6192(3)
H2A H -1.4774 2.2683 1.5691
C3A C -1.2967(3) 2.1648(3) 1.6782(3)
C4A C -1.2166(4) 2.0392(3) 1.7497(3)
H3A H -1.1320 2.0244 1.7894
C5A C -1.2635(3) 1.9353(3) 1.7616(3)
H4A H -1.2081 1.8498 1.8090
C6A C -1.3760(4) 2.2412(5) 2.0511(4)
H5A H -1.3015 2.1773 2.1048
C7A C -1.3404(4) 2.2802(6) 1.9295(4)
H6A H -1.2444 2.2431 1.9017
C8A C -1.4490(4) 2.3756(3) 1.8483(3)
C9A C -1.5880(5) 2.4252(4) 1.8949(3)
H7A H -1.6640 2.4894 1.8428
C10A C -1.6164(4) 2.3803(4) 2.0191(3)
H8A H -1.7122 2.4148 2.0487
Zn1_2 Zn -1.54615(3) 2.20320(3) 2.27849(3)
Zn1A_2 Zn -0.45385(3) 0.79680(3) 0.72151(3)
Zn1A_3 Zn 0.54615(3) 0.79680(3) 1.72151(3)
O1A_2 O -1.6488(2) 1.9053(2) 1.6470(2)
N2_2 N -1.4879(3) 1.7103(2) 1.9023(2)
N2A_2 N -0.5121(3) 1.2897(2) 1.0977(2)
O5 O -0.9368(6) 1.6372(5) 0.8563(5)
H13 H -0.9912 1.6175 0.8184
H14 H -0.8844 1.6812 0.8024
O6 O -0.9978(14) 1.6796(13) 1.0569(9)
H15 H -0.9998 1.6628 0.9903
H16 H -0.9733 1.6061 1.1257
loop_
_geom_bond_atom_site_label_1
_geom_bond_atom_site_label_2
_geom_bond_site_symmetry_1
_geom_bond_site_symmetry_2
Zn1 O1 1_555 1_555
S1 S2 1_555 1_555
S2 C8 1_555 1_555
O1 C14 1_555 1_555
O2 C14 1_555 1_555
O3 Zn1 1_555 1_555
O4 C18 1_555 1_555
N1 Zn1 1_555 1_555
N2 C6 1_555 1_555
C1 N1 1_555 1_555
H1 C1 1_555 1_555
C2 C1 1_555 1_555
H2 C2 1_555 1_555
C3 S1 1_555 1_555
C4 C3 1_555 1_555
H3 C4 1_555 1_555
C5 N1 1_555 1_555
H4 C5 1_555 1_555
C6 H5 1_555 1_555
C7 C6 1_555 1_555
H6 C7 1_555 1_555
C8 C7 1_555 1_555
C9 C8 1_555 1_555
H7 C9 1_555 1_555
C10 N2 1_555 1_555
H8 C10 1_555 1_555
C11 H9 1_555 1_555
C12 C11 1_555 1_555
C13 C12 1_555 1_555
H10 C13 1_555 1_555
C14 C12 1_555 1_555
C15 H11 1_555 1_555
C16 C15 1_555 1_555
C17 C16 1_555 1_555
H12 C17 1_555 1_555
C18 O3 1_555 1_555
O5 H13 1_555 1_555
H14 O5 1_555 1_555
O6 H15 1_555 1_555
H16 O6 1_555 1_555
O1A C14A 1_555 1_555
O2A C14A 1_555 1_555
C11A C13 1_555 1_555
H9A C11A 1_555 1_555
C12A C11A 1_555 1_555
C13A C11 1_555 1_555
H10A C13A 1_555 1_555
C14A C12A 1_555 1_555
O3A C18A 1_555 1_555
O4A C18A 1_555 1_555
C15A C17 1_555 1_555
H11A C15A 1_555 1_555
C16A C15A 1_555 1_555
C17A C15 1_555 1_555
H12A C17A 1_555 1_555
C18A C16A 1_555 1_555
Zn1A O3A 1_555 1_555
S1A S2A 1_555 1_555
S2A C8A 1_555 1_555
N1A Zn1A 1_555 1_555
N2A C6A 1_555 1_555
C1A N1A 1_555 1_555
H1A C1A 1_555 1_555
C2A C1A 1_555 1_555
H2A C2A 1_555 1_555
C3A S1A 1_555 1_555
C4A C3A 1_555 1_555
H3A C4A 1_555 1_555
C5A N1A 1_555 1_555
H4A C5A 1_555 1_555
C6A H5A 1_555 1_555
C7A C6A 1_555 1_555
H6A C7A 1_555 1_555
C8A C7A 1_555 1_555
C9A C8A 1_555 1_555
H7A C9A 1_555 1_555
C10A N2A 1_555 1_555
H8A C10A 1_555 1_555
Zn1_2 N2A 1_555 1_555
Zn1A_2 N2 1_555 1_555
Zn1A_3 O1A 1_555 1_555
O1A_2 Zn1A 1_555 1_555
N2_2 Zn1A 1_555 1_555
N2A_2 Zn1 1_555 1_555
C2 C3 1_555 1_555
C4 C5 1_555 1_555
C9 C10 1_555 1_555
C16 C18 1_555 1_555
C12A C13A 1_555 1_555
C16A C17A 1_555 1_555
C2A C3A 1_555 1_555
C4A C5A 1_555 1_555
C9A C10A 1_555 1_555

#END
