
#######################################################################
#
#                 Cambridge Crystallographic Data Centre
#                                CCDC 
#
#######################################################################
#
# If this CIF has been generated from an entry in the Cambridge 
# Structural Database, then it will include bibliographic, chemical, 
# crystal, experimental, refinement or atomic coordinate data resulting 
# from the CCDC's data processing and validation procedures.
#
#######################################################################

data_GOWHOR
_symmetry_cell_setting           monoclinic
_symmetry_space_group_name_H-M   'C 2/c'
_symmetry_Int_Tables_number      15
_space_group_name_Hall           '-C 2yn'
loop_
_symmetry_equiv_pos_site_id
_symmetry_equiv_pos_as_xyz
1 x,y,z
2 -x,y,1/2-z
3 1/2+x,1/2+y,z
4 1/2-x,1/2+y,1/2-z
5 -x,-y,-z
6 x,-y,1/2+z
7 1/2-x,1/2-y,-z
8 1/2+x,1/2-y,1/2+z
_cell_length_a                   16.0685(17)
_cell_length_b                   14.6258(12)
_cell_length_c                   9.3457(9)
_cell_angle_alpha                90
_cell_angle_beta                 117.798(8)
_cell_angle_gamma                90
_cell_volume                     1942.91
loop_
_atom_site_label
_atom_site_type_symbol
_atom_site_fract_x
_atom_site_fract_y
_atom_site_fract_z
Mg1 Mg 0.5000 0.95728(9) -0.2500
O1 O 0.60729(18) 0.94682(18) -0.0193(3)
O2 O 0.60016(17) 1.03281(17) 0.1710(3)
N1 N 1.0000 0.8062(3) 0.7500
N2 N 1.0000 0.6158(2) 0.7500
O3 O 0.5000 0.8170(3) -0.2500
N3 N 0.5000 0.6653(4) -0.2500
C1 C 0.6341(2) 0.9689(2) 0.1242(4)
C2 C 0.7156(2) 0.9156(2) 0.2519(4)
C3 C 0.7417(2) 0.8315(3) 0.2155(4)
H1 H 0.7118 0.8099 0.1098
C4 C 0.8120(2) 0.7796(2) 0.3356(4)
H2 H 0.8281 0.7230 0.3101
C5 C 0.8586(2) 0.8119(2) 0.4944(4)
C6 C 0.8327(3) 0.8967(2) 0.5289(4)
H3 H 0.8639 0.9196 0.6337
C7 C 0.7615(3) 0.9474(2) 0.4097(4)
H4 H 0.7442 1.0033 0.4356
C8 C 0.9341(2) 0.7587(2) 0.6271(4)
C9 C 0.9359(2) 0.6637(2) 0.6264(4)
H5 H 0.8909 0.6326 0.5369
C10 C 0.5144(6) 0.7565(6) -0.1854(11)
H6 H 0.5361 0.7253 -0.0878
C11 C 0.4549(8) 0.6209(9) -0.3986(15)
H7 H 0.4991 0.5827 -0.4126
H8 H 0.4297 0.6654 -0.4839
H9 H 0.4046 0.5839 -0.4018
O1A O 1.39271(18) 0.94682(18) 1.5193(3)
O2A O 1.39984(17) 1.03281(17) 1.3290(3)
C1A C 1.3659(2) 0.9689(2) 1.3758(4)
C2A C 1.2844(2) 0.9156(2) 1.2481(4)
C3A C 1.2583(2) 0.8315(3) 1.2845(4)
H1A H 1.2882 0.8099 1.3902
C4A C 1.1880(2) 0.7796(2) 1.1644(4)
H2A H 1.1719 0.7230 1.1899
C5A C 1.1414(2) 0.8119(2) 1.0056(4)
C6A C 1.1673(3) 0.8967(2) 0.9711(4)
H3A H 1.1361 0.9196 0.8663
C7A C 1.2385(3) 0.9474(2) 1.0903(4)
H4A H 1.2558 1.0033 1.0644
C8A C 1.0659(2) 0.7587(2) 0.8729(4)
C9A C 1.0641(2) 0.6637(2) 0.8736(4)
H5A H 1.1091 0.6326 0.9631
C10A C 0.4856(6) 0.7565(6) -0.3146(11)
H6A H 0.4639 0.7253 -0.4122
C11A C 0.5451(8) 0.6209(9) -0.1014(15)
H7A H 0.5009 0.5827 -0.0874
H8A H 0.5703 0.6654 -0.0161
H9A H 0.5954 0.5839 -0.0982
Mg1_2 Mg 1.5000 0.95728(9) 1.7500
Mg1B Mg 1.0000 0.45728(9) 0.7500
Mg1D Mg 0.5000 1.04272(9) 0.2500
Mg1D_2 Mg 1.5000 1.04272(9) 1.2500
O1A_2 O 0.39271(18) 0.94682(18) -0.4807(3)
O2D O 0.39984(17) 0.96719(17) -0.1710(3)
O2E O 0.60016(17) 0.96719(17) -0.3290(3)
N2B N 0.5000 1.1158(2) -0.2500
loop_
_geom_bond_atom_site_label_1
_geom_bond_atom_site_label_2
_geom_bond_site_symmetry_1
_geom_bond_site_symmetry_2
Mg1 O1 1_555 1_555
O1 C1 1_555 1_555
O2 C1 1_555 1_555
N1 C8 1_555 1_555
N2 C9 1_555 1_555
O3 Mg1 1_555 1_555
N3 C10 1_555 1_555
C1 C2 1_555 1_555
C2 C3 1_555 1_555
C3 H1 1_555 1_555
C4 C3 1_555 1_555
H2 C4 1_555 1_555
C5 C4 1_555 1_555
C6 C5 1_555 1_555
H3 C6 1_555 1_555
C7 C2 1_555 1_555
H4 C7 1_555 1_555
C8 C5 1_555 1_555
C9 C8 1_555 1_555
H5 C9 1_555 1_555
C10 O3 1_555 1_555
H6 C10 1_555 1_555
C11 N3 1_555 1_555
H7 C11 1_555 1_555
H8 C11 1_555 1_555
H9 C11 1_555 1_555
O1A C1A 1_555 1_555
O2A C1A 1_555 1_555
C1A C2A 1_555 1_555
C2A C3A 1_555 1_555
C3A H1A 1_555 1_555
C4A C3A 1_555 1_555
H2A C4A 1_555 1_555
C5A C4A 1_555 1_555
C6A C5A 1_555 1_555
H3A C6A 1_555 1_555
C7A C2A 1_555 1_555
H4A C7A 1_555 1_555
C8A N1 1_555 1_555
C9A N2 1_555 1_555
H5A C9A 1_555 1_555
C10A O3 1_555 1_555
H6A C10A 1_555 1_555
C11A N3 1_555 1_555
H7A C11A 1_555 1_555
H8A C11A 1_555 1_555
H9A C11A 1_555 1_555
Mg1_2 O1A 1_555 1_555
Mg1B N2 1_555 1_555
Mg1D O2 1_555 1_555
Mg1D_2 O2A 1_555 1_555
O1A_2 Mg1 1_555 1_555
O2D Mg1 1_555 1_555
O2E Mg1 1_555 1_555
N2B Mg1 1_555 1_555
N3 C10A 1_555 1_555
C6 C7 1_555 1_555
C10 C10A 1_555 1_555
C5A C8A 1_555 1_555
C6A C7A 1_555 1_555
C8A C9A 1_555 1_555

#END
