
#######################################################################
#
#                 Cambridge Crystallographic Data Centre
#                                CCDC 
#
#######################################################################
#
# If this CIF has been generated from an entry in the Cambridge 
# Structural Database, then it will include bibliographic, chemical, 
# crystal, experimental, refinement or atomic coordinate data resulting 
# from the CCDC's data processing and validation procedures.
#
#######################################################################

data_GOWMIQ
_symmetry_cell_setting           monoclinic
_symmetry_space_group_name_H-M   'P 21/c'
_symmetry_Int_Tables_number      14
_space_group_name_Hall           '-P 2ybc'
loop_
_symmetry_equiv_pos_site_id
_symmetry_equiv_pos_as_xyz
1 x,y,z
2 -x,1/2+y,1/2-z
3 -x,-y,-z
4 x,1/2-y,1/2+z
_cell_length_a                   10.247(2)
_cell_length_b                   23.161(5)
_cell_length_c                   19.960(4)
_cell_angle_alpha                90
_cell_angle_beta                 106.049(9)
_cell_angle_gamma                90
_cell_volume                     4552.5
loop_
_atom_site_label
_atom_site_type_symbol
_atom_site_fract_x
_atom_site_fract_y
_atom_site_fract_z
Zn2 Zn 0.31871(5) 0.26787(2) 0.58354(2)
O7 O 0.4438(3) 0.28555(17) 0.67609(15)
O8 O 0.2547(4) 0.2894(2) 0.70935(18)
O9 O 0.2632(4) 0.2543(2) 0.9487(2)
O10 O 0.4558(4) 0.24020(19) 1.02967(17)
O11 O 0.8692(4) 0.3118(3) 0.9669(2)
O12 O 0.8825(4) 0.2924(3) 0.8642(2)
N6 N 0.8180(4) 0.2972(2) 0.9076(2)
N7 N 0.1663(4) 0.32502(18) 0.55139(19)
N8 N 0.0197(6) 0.3942(2) 0.5503(2)
N9 N 0.2486(4) 0.18758(17) 0.5923(2)
N10 N 0.1448(6) 0.1054(2) 0.5615(4)
C19 C 0.3792(5) 0.2870(2) 0.7218(2)
C20 C 0.4631(4) 0.28301(19) 0.7967(2)
C21 C 0.6029(5) 0.2889(2) 0.8157(2)
H18 H 0.6492 0.2945 0.7821
C22 C 0.6726(5) 0.2864(2) 0.8860(2)
C23 C 0.6093(5) 0.2746(2) 0.9367(2)
H19 H 0.6590 0.2720 0.9832
C24 C 0.4683(5) 0.2665(2) 0.9168(2)
C25 C 0.3968(5) 0.2727(2) 0.8474(2)
H20 H 0.3026 0.2699 0.8346
C26 C 0.3898(5) 0.2523(3) 0.9687(2)
C27 C 0.1734(6) 0.1572(2) 0.5404(3)
H21 H 0.1439 0.1703 0.4946
C28 C 0.2713(7) 0.1537(3) 0.6497(3)
H22 H 0.3238 0.1635 0.6942
C29 C 0.2038(10) 0.1030(3) 0.6310(5)
H23 H 0.1992 0.0724 0.6605
C30 C 0.0634(15) 0.0593(4) 0.5134(6)
C31 C 0.1398(6) 0.3720(2) 0.5828(3)
H24 H 0.1983 0.3876 0.6229
C32 C 0.0546(6) 0.3161(3) 0.4955(3)
H25 H 0.0437 0.2860 0.4637
C33 C -0.0373(7) 0.3589(3) 0.4947(4)
H26 H -0.1220 0.3632 0.4627
C34 C -0.0393(9) 0.4476(3) 0.5691(4)
H27 H 0.0114 0.4593 0.6156
H28 H -0.1323 0.4403 0.5695
C35 C -0.0371(14) 0.4951(4) 0.5190(6)
H29 H -0.1280 0.4950 0.4874
H30 H -0.0314 0.5300 0.5466
C36 C 0.1064(13) 0.0101(5) 0.5077(6)
C37 C -0.0252(14) 0.0404(6) 0.5449(7)
N7B N -0.1663(4) 0.67498(18) 0.44861(19)
N8B N -0.0197(6) 0.6058(2) 0.4497(2)
C31B C -0.1398(6) 0.6280(2) 0.4172(3)
H24B H -0.1983 0.6124 0.3771
C32B C -0.0546(6) 0.6839(3) 0.5045(3)
H25B H -0.0437 0.7140 0.5363
C33B C 0.0373(7) 0.6411(3) 0.5053(4)
H26B H 0.1220 0.6368 0.5373
C34B C 0.0393(9) 0.5524(3) 0.4309(4)
H27B H -0.0114 0.5407 0.3844
H28B H 0.1323 0.5597 0.4305
C35B C 0.0371(14) 0.5049(4) 0.4810(6)
H29B H 0.1280 0.5050 0.5126
H30B H 0.0314 0.4700 0.4534
N9B N -0.2486(4) -0.18758(17) 0.4077(2)
N10B N -0.1448(6) -0.1054(2) 0.4385(4)
C27B C -0.1734(6) -0.1572(2) 0.4596(3)
H21B H -0.1439 -0.1703 0.5054
C28B C -0.2713(7) -0.1537(3) 0.3503(3)
H22B H -0.3238 -0.1635 0.3058
C29B C -0.2038(10) -0.1030(3) 0.3690(5)
H23B H -0.1992 -0.0724 0.3395
C30B C -0.0634(15) -0.0593(4) 0.4866(6)
C36B C -0.1064(13) -0.0101(5) 0.4923(6)
C37B C 0.0252(14) -0.0404(6) 0.4551(7)
Zn2B Zn -0.31871(5) -0.26787(2) 0.41646(2)
O7B O -0.4438(3) -0.28555(17) 0.32391(15)
O8B O -0.2547(4) -0.2894(2) 0.29065(18)
O9B O -0.2632(4) -0.2543(2) 0.0513(2)
O10B O -0.4558(4) -0.24020(19) -0.02967(17)
O11B O -0.8692(4) -0.3118(3) 0.0331(2)
O12B O -0.8825(4) -0.2924(3) 0.1358(2)
N6B N -0.8180(4) -0.2972(2) 0.0924(2)
C19B C -0.3792(5) -0.2870(2) 0.2782(2)
C20B C -0.4631(4) -0.28301(19) 0.2033(2)
C21B C -0.6029(5) -0.2889(2) 0.1843(2)
H18B H -0.6492 -0.2945 0.2179
C22B C -0.6726(5) -0.2864(2) 0.1140(2)
C23B C -0.6093(5) -0.2746(2) 0.0633(2)
H19B H -0.6590 -0.2720 0.0168
C24B C -0.4683(5) -0.2665(2) 0.0832(2)
C25B C -0.3968(5) -0.2727(2) 0.1526(2)
H20B H -0.3026 -0.2699 0.1654
C26B C -0.3898(5) -0.2523(3) 0.0313(2)
Zn2A Zn -0.31871(5) -0.23213(2) -0.08354(2)
Zn2B_2 Zn -0.31871(5) 0.73213(2) 0.41646(2)
Zn2C Zn 0.31871(5) 0.23213(2) 1.08354(2)
O10A O -0.4558(4) -0.25980(19) 0.47033(17)
O10C O 0.4558(4) 0.25980(19) 0.52967(17)
N7B_2 N -0.1663(4) -0.32502(18) 0.44861(19)
O13 O 0.5813(11) -0.0265(6) 0.8791(8)
O14 O 0.6012(18) 0.1728(13) 0.6937(12)
Zn1 Zn -0.09215(5) 0.43980(3) 0.77334(3)
O1 O 0.0924(3) 0.43388(18) 0.8404(2)
N1 N -0.1376(3) 0.37332(17) 0.70778(19)
O2 O -0.2097(3) 0.43540(17) 0.8378(2)
N2 N -0.1040(5) 0.5192(2) 0.7298(3)
C1 C 0.1807(5) 0.4346(2) 0.8063(3)
C2 C -0.0523(4) 0.3345(2) 0.6960(2)
C3 C -0.2646(5) 0.3541(2) 0.6703(3)
C4 C -0.2102(9) 0.5456(4) 0.6837(5)
C5 C -0.0033(8) 0.5567(3) 0.7385(4)
O3 O 0.1520(4) 0.4377(2) 0.7419(3)
C6 C 0.3276(5) 0.4328(2) 0.8469(3)
N3 N -0.1169(4) 0.29235(18) 0.6542(2)
H1 H 0.0415 0.3363 0.7145
H2 H -0.3462 0.3727 0.6681
C7 C -0.2524(5) 0.3048(2) 0.6378(3)
H3 H -0.2965 0.5300 0.6660
C8 C -0.1702(12) 0.5977(4) 0.6680(6)
H4 H 0.0835 0.5504 0.7676
N4 N -0.0394(8) 0.6040(3) 0.7012(3)
C9 C 0.3680(5) 0.4256(2) 0.9188(4)
C10 C 0.4259(5) 0.4387(2) 0.8116(3)
C11 C -0.0544(6) 0.2394(2) 0.6367(3)
H5 H -0.3226 0.2832 0.6094
H6 H -0.2246 0.6247 0.6388
C12 C 0.0438(11) 0.6553(3) 0.6981(5)
H7 H 0.3038 0.4222 0.9437
C13 C 0.5050(5) 0.4237(2) 0.9527(3)
C14 C 0.5636(5) 0.4366(2) 0.8463(3)
H8 H 0.3991 0.4442 0.7636
H9 H 0.0421 0.2457 0.6441
H10 H -0.0938 0.2304 0.5877
C15 C -0.0752(9) 0.1899(3) 0.6796(4)
H11 H 0.1389 0.6443 0.7111
C16 C 0.0235(12) 0.7010(3) 0.7444(4)
H12 H 0.0206 0.6697 0.6507
N5 N 0.5467(6) 0.4159(3) 1.0295(3)
C17 C 0.6035(5) 0.4282(2) 0.9174(3)
C18 C 0.6653(5) 0.4430(2) 0.8055(3)
H13 H -0.0295 0.1563 0.6679
H14 H -0.1714 0.1813 0.6684
H15 H 0.0668 0.7358 0.7338
H16 H -0.0731 0.7088 0.7337
O4 O 0.6694(6) 0.4127(4) 1.0575(3)
O5 O 0.4634(6) 0.4163(4) 1.0608(3)
H17 H 0.6951 0.4256 0.9413
O6 O 0.6269(4) 0.4547(2) 0.7431(2)
C16A C -0.0235(12) 0.2010(3) 0.7556(4)
C15A C 0.0752(9) 0.6899(3) 0.8204(4)
O2_2 O 0.7903(3) 0.43540(17) 0.8378(2)
H16A H 0.0731 0.2088 0.7663
H15A H -0.0668 0.2358 0.7662
C12A C -0.0438(11) 0.1553(3) 0.8019(5)
C11A C 0.0544(6) 0.7394(2) 0.8633(3)
H14A H 0.1714 0.6813 0.8316
H13A H 0.0295 0.6563 0.8321
Zn1_2 Zn 0.90785(5) 0.43980(3) 0.77334(3)
N4A N 0.0394(8) 0.1040(3) 0.7988(3)
H11A H -0.1389 0.1443 0.7889
H12A H -0.0206 0.1697 0.8493
H9A H -0.0421 0.7457 0.8559
N3A N 0.1169(4) 0.79235(18) 0.8458(2)
H10A H 0.0938 0.7304 0.9123
C5A C 0.0033(8) 0.0567(3) 0.7615(4)
C8A C 0.1702(12) 0.0977(4) 0.8320(6)
C2A C 0.0523(4) 0.8345(2) 0.8040(2)
C7A C 0.2524(5) 0.8048(2) 0.8622(3)
N2A N 0.1040(5) 0.0192(2) 0.7702(3)
H4A H -0.0835 0.0504 0.7324
C4A C 0.2102(9) 0.0456(4) 0.8163(5)
H6A H 0.2246 0.1247 0.8612
H1A H -0.0415 0.8363 0.7855
N1A N 0.1376(3) 0.87332(17) 0.79222(19)
C3A C 0.2646(5) 0.8541(2) 0.8297(3)
H5A H 0.3226 0.7832 0.8906
Zn1A Zn 0.09215(5) -0.06020(3) 0.72666(3)
H3A H 0.2965 0.0300 0.8340
Zn1A_2 Zn 0.09215(5) 0.93980(3) 0.72666(3)
H2A H 0.3462 0.8727 0.8319
O1A O -0.0924(3) 0.93388(18) 0.6596(2)
N2A_2 N 0.1040(5) 1.0192(2) 0.7702(3)
O2A O 0.2097(3) 0.93540(17) 0.6622(2)
C1A C -0.1807(5) 0.9346(2) 0.6937(3)
C6A C -0.3276(5) 0.9328(2) 0.6531(3)
O3A O -0.1520(4) 0.9377(2) 0.7581(3)
C10A C -0.4259(5) 0.9387(2) 0.6884(3)
C9A C -0.3680(5) 0.9256(2) 0.5812(4)
H8A H -0.3991 0.9442 0.7364
C14A C -0.5636(5) 0.9366(2) 0.6537(3)
C13A C -0.5050(5) 0.9237(2) 0.5473(3)
H7A H -0.3038 0.9222 0.5563
C18A C -0.6653(5) 0.9430(2) 0.6945(3)
C17A C -0.6035(5) 0.9282(2) 0.5826(3)
N5A N -0.5467(6) 0.9159(3) 0.4705(3)
O2A_2 O -0.7903(3) 0.93540(17) 0.6622(2)
O6A O -0.6269(4) 0.9547(2) 0.7569(2)
H17A H -0.6951 0.9256 0.5587
O5A O -0.4634(6) 0.9163(4) 0.4392(3)
O4A O -0.6694(6) 0.9127(4) 0.4425(3)
Zn1A_3 Zn -0.90785(5) 0.93980(3) 0.72666(3)
loop_
_geom_bond_atom_site_label_1
_geom_bond_atom_site_label_2
_geom_bond_site_symmetry_1
_geom_bond_site_symmetry_2
Zn1 O1 1_555 1_555
O1 C1 1_555 1_555
N1 Zn1 1_555 1_555
O2 Zn1 1_555 1_555
N2 Zn1 1_555 1_555
C1 O3 1_555 1_555
C2 N1 1_555 1_555
C3 N1 1_555 1_555
C4 N2 1_555 1_555
C5 N2 1_555 1_555
C6 C1 1_555 1_555
N3 C2 1_555 1_555
H1 C2 1_555 1_555
H2 C3 1_555 1_555
C7 C3 1_555 1_555
H3 C4 1_555 1_555
C8 C4 1_555 1_555
H4 C5 1_555 1_555
N4 C5 1_555 1_555
C9 C6 1_555 1_555
C10 C6 1_555 1_555
C11 N3 1_555 1_555
H5 C7 1_555 1_555
H6 C8 1_555 1_555
C12 N4 1_555 1_555
H7 C9 1_555 1_555
C13 C9 1_555 1_555
C14 C10 1_555 1_555
H8 C10 1_555 1_555
H9 C11 1_555 1_555
H10 C11 1_555 1_555
C15 C11 1_555 1_555
H11 C12 1_555 1_555
C16 C12 1_555 1_555
H12 C12 1_555 1_555
N5 C13 1_555 1_555
C17 C13 1_555 1_555
C18 C14 1_555 1_555
H13 C15 1_555 1_555
H14 C15 1_555 1_555
H15 C16 1_555 1_555
H16 C16 1_555 1_555
O4 N5 1_555 1_555
O5 N5 1_555 1_555
H17 C17 1_555 1_555
O6 C18 1_555 1_555
Zn2 O7 1_555 1_555
O7 C19 1_555 1_555
O8 C19 1_555 1_555
O9 C26 1_555 1_555
O10 C26 1_555 1_555
O11 N6 1_555 1_555
O12 N6 1_555 1_555
N6 C22 1_555 1_555
N7 Zn2 1_555 1_555
N8 C31 1_555 1_555
N9 Zn2 1_555 1_555
N10 C27 1_555 1_555
C19 C20 1_555 1_555
C20 C21 1_555 1_555
C21 H18 1_555 1_555
C22 C21 1_555 1_555
C23 C22 1_555 1_555
H19 C23 1_555 1_555
C24 C23 1_555 1_555
C25 C20 1_555 1_555
H20 C25 1_555 1_555
C26 C24 1_555 1_555
C27 N9 1_555 1_555
H21 C27 1_555 1_555
C28 N9 1_555 1_555
H22 C28 1_555 1_555
C29 N10 1_555 1_555
H23 C29 1_555 1_555
C30 N10 1_555 1_555
C31 N7 1_555 1_555
H24 C31 1_555 1_555
C32 N7 1_555 1_555
H25 C32 1_555 1_555
C33 N8 1_555 1_555
H26 C33 1_555 1_555
C34 N8 1_555 1_555
H27 C34 1_555 1_555
H28 C34 1_555 1_555
C35 C34 1_555 1_555
H29 C35 1_555 1_555
H30 C35 1_555 1_555
C36 C30 1_555 1_555
C37 C30 1_555 1_555
C16A C15 1_555 1_555
C15A C16 1_555 1_555
O2_2 C18 1_555 1_555
H16A C16A 1_555 1_555
H15A C16A 1_555 1_555
C12A C16A 1_555 1_555
C11A C15A 1_555 1_555
H14A C15A 1_555 1_555
H13A C15A 1_555 1_555
Zn1_2 O2_2 1_555 1_555
N4A C12A 1_555 1_555
H11A C12A 1_555 1_555
H12A C12A 1_555 1_555
H9A C11A 1_555 1_555
N3A C11A 1_555 1_555
H10A C11A 1_555 1_555
C5A N4A 1_555 1_555
C8A N4A 1_555 1_555
C2A N3A 1_555 1_555
C7A N3A 1_555 1_555
N2A C5A 1_555 1_555
H4A C5A 1_555 1_555
C4A C8A 1_555 1_555
H6A C8A 1_555 1_555
H1A C2A 1_555 1_555
N1A C2A 1_555 1_555
C3A C7A 1_555 1_555
H5A C7A 1_555 1_555
Zn1A N2A 1_555 1_555
H3A C4A 1_555 1_555
Zn1A_2 N1A 1_555 1_555
H2A C3A 1_555 1_555
O1A Zn1A_2 1_555 1_555
N2A_2 Zn1A_2 1_555 1_555
O2A Zn1A_2 1_555 1_555
C1A O1A 1_555 1_555
C6A C1A 1_555 1_555
O3A C1A 1_555 1_555
C10A C6A 1_555 1_555
C9A C6A 1_555 1_555
H8A C10A 1_555 1_555
C14A C10A 1_555 1_555
C13A C9A 1_555 1_555
H7A C9A 1_555 1_555
C18A C14A 1_555 1_555
C17A C14A 1_555 1_555
N5A C13A 1_555 1_555
O2A_2 C18A 1_555 1_555
O6A C18A 1_555 1_555
H17A C17A 1_555 1_555
O5A N5A 1_555 1_555
O4A N5A 1_555 1_555
Zn1A_3 O2A_2 1_555 1_555
N7B C31B 1_555 1_555
N8B C31B 1_555 1_555
C31B H24B 1_555 1_555
C32B N7B 1_555 1_555
H25B C32B 1_555 1_555
C33B N8B 1_555 1_555
H26B C33B 1_555 1_555
C34B N8B 1_555 1_555
H27B C34B 1_555 1_555
H28B C34B 1_555 1_555
C35B C35 1_555 1_555
H29B C35B 1_555 1_555
H30B C35B 1_555 1_555
N9B C27B 1_555 1_555
N10B C27B 1_555 1_555
C27B H21B 1_555 1_555
C28B N9B 1_555 1_555
H22B C28B 1_555 1_555
C29B N10B 1_555 1_555
H23B C29B 1_555 1_555
C30B N10B 1_555 1_555
C36B C37 1_555 1_555
C37B C36 1_555 1_555
Zn2B N9B 1_555 1_555
O7B Zn2B 1_555 1_555
O8B C19B 1_555 1_555
O9B C26B 1_555 1_555
O10B C26B 1_555 1_555
O11B N6B 1_555 1_555
O12B N6B 1_555 1_555
N6B C22B 1_555 1_555
C19B O7B 1_555 1_555
C20B C19B 1_555 1_555
C21B C20B 1_555 1_555
H18B C21B 1_555 1_555
C22B C21B 1_555 1_555
C23B C22B 1_555 1_555
H19B C23B 1_555 1_555
C24B C23B 1_555 1_555
C25B C20B 1_555 1_555
H20B C25B 1_555 1_555
C26B C24B 1_555 1_555
Zn2A O10B 1_555 1_555
Zn2B_2 N7B 1_555 1_555
Zn2C O10 1_555 1_555
O10A Zn2B 1_555 1_555
O10C Zn2 1_555 1_555
N7B_2 Zn2B 1_555 1_555
N3 C7 1_555 1_555
C8 N4 1_555 1_555
C14 C17 1_555 1_555
C24 C25 1_555 1_555
C28 C29 1_555 1_555
C32 C33 1_555 1_555
N2A C4A 1_555 1_555
N1A C3A 1_555 1_555
C13A C17A 1_555 1_555
C32B C33B 1_555 1_555
C34B C35B 1_555 1_555
C28B C29B 1_555 1_555
C30B C36B 1_555 1_555
C30B C37B 1_555 1_555
C24B C25B 1_555 1_555

#END
