
#######################################################################
#
#                 Cambridge Crystallographic Data Centre
#                                CCDC 
#
#######################################################################
#
# If this CIF has been generated from an entry in the Cambridge 
# Structural Database, then it will include bibliographic, chemical, 
# crystal, experimental, refinement or atomic coordinate data resulting 
# from the CCDC's data processing and validation procedures.
#
#######################################################################

data_GOWMEM
_symmetry_cell_setting           triclinic
_symmetry_space_group_name_H-M   'P -1'
_symmetry_Int_Tables_number      2
_space_group_name_Hall           '-P 1'
loop_
_symmetry_equiv_pos_site_id
_symmetry_equiv_pos_as_xyz
1 x,y,z
2 -x,-y,-z
_cell_length_a                   11.562(8)
_cell_length_b                   12.576(8)
_cell_length_c                   13.534(8)
_cell_angle_alpha                62.825(14)
_cell_angle_beta                 86.35(2)
_cell_angle_gamma                85.12(2)
_cell_volume                     1743.64
loop_
_atom_site_label
_atom_site_type_symbol
_atom_site_fract_x
_atom_site_fract_y
_atom_site_fract_z
Zn1 Zn 0.97243(6) 0.55086(6) 0.08154(6)
Zn2 Zn 0.48149(6) 0.17076(7) -0.21776(6)
O1 O 0.8186(4) 0.4799(4) 0.0968(4)
O2 O 0.8612(4) 0.4038(5) -0.0234(4)
O3 O 0.5489(5) 0.2294(5) -0.1243(4)
O4 O 0.3701(5) 0.2497(5) -0.0676(5)
O5 O 0.3063(5) 0.3730(7) 0.2278(6)
O6 O 0.4432(5) 0.4355(8) 0.2775(6)
O7 O 1.0369(4) 0.3819(4) 0.1796(4)
O8 O 1.0846(5) 0.3074(4) 0.0590(4)
O9 O 1.3679(6) -0.0502(8) 0.1904(8)
O10 O 1.4287(7) -0.1180(7) 0.3504(7)
O11 O 1.1544(6) -0.0665(6) 0.6248(5)
O12 O 1.0625(7) 0.1042(7) 0.5747(5)
N1 N 0.9660(4) 0.6190(4) 0.1906(4)
N2 N 1.0312(5) 0.6814(5) 0.3025(4)
N3 N 1.3441(5) 0.5092(5) 0.5653(4)
N4 N 1.4137(5) 0.3224(5) 0.6565(4)
N5 N 0.3570(5) 0.0558(5) -0.1629(4)
N6 N 0.2192(5) -0.0527(5) -0.0553(5)
N7 N 1.1231(6) 0.0326(7) 0.5541(6)
N8 N 0.4069(6) 0.3909(7) 0.2244(6)
C1 C 0.7942(6) 0.4253(6) 0.0432(6)
C2 C 0.4754(7) 0.2556(6) -0.0665(6)
C3 C 0.6742(5) 0.3833(6) 0.0600(5)
C4 C 0.6338(6) 0.3327(6) -0.0023(5)
H1 H 0.6842 0.3191 -0.0522
C5 C 0.5190(6) 0.3019(6) 0.0086(5)
C6 C 0.4447(6) 0.3231(6) 0.0816(6)
H2 H 0.3668 0.3072 0.0870
C7 C 0.4863(6) 0.3677(6) 0.1460(5)
C8 C 0.5989(5) 0.4006(6) 0.1356(5)
H3 H 0.6237 0.4339 0.1787
C9 C 1.0797(6) 0.3026(6) 0.1542(6)
C10 C 1.3602(8) -0.0563(8) 0.2808(11)
C11 C 1.1296(5) 0.1907(6) 0.2470(6)
C12 C 1.2102(6) 0.1152(6) 0.2227(6)
H4 H 1.2261 0.1311 0.1492
C13 C 1.2653(6) 0.0187(6) 0.3062(6)
C14 C 1.2379(6) -0.0086(6) 0.4159(6)
H5 H 1.2747 -0.0744 0.4734
C15 C 1.1555(6) 0.0629(6) 0.4382(6)
C16 C 1.1033(6) 0.1631(6) 0.3560(6)
H6 H 1.0503 0.2122 0.3738
C17 C 0.8782(6) 0.6894(6) 0.2093(5)
H7 H 0.8048 0.7083 0.1791
C18 C 0.9185(6) 0.7263(6) 0.2800(5)
H8 H 0.8770 0.7737 0.3081
C19 C 1.1108(6) 0.7017(6) 0.3717(5)
H9 H 1.0979 0.7839 0.3598
H10 H 1.1900 0.6913 0.3478
C20 C 1.0969(6) 0.6197(6) 0.4933(5)
H11 H 1.1145 0.5377 0.5059
H12 H 1.0167 0.6265 0.5164
C21 C 1.1747(6) 0.6468(6) 0.5638(5)
H13 H 1.1562 0.5953 0.6413
H14 H 1.1561 0.7288 0.5506
C22 C 1.3044(6) 0.6314(6) 0.5444(6)
H15 H 1.3245 0.6863 0.4682
H16 H 1.3452 0.6529 0.5926
C23 C 1.3801(6) 0.4226(6) 0.6620(6)
H17 H 1.3816 0.4315 0.7265
C24 C 1.3960(7) 0.3481(7) 0.5484(6)
H18 H 1.4111 0.2947 0.5184
C25 C 1.3534(7) 0.4627(8) 0.4920(6)
H19 H 1.3342 0.5020 0.4175
C26 C 1.0558(6) 0.6173(5) 0.2466(5)
H20 H 1.1272 0.5769 0.2472
C27 C 0.3032(6) 0.0055(7) -0.2171(6)
H21 H 0.3230 0.0155 -0.2884
C28 C 0.2178(7) -0.0605(7) -0.1519(6)
H22 H 0.1676 -0.1029 -0.1695
C29 C 0.1420(7) -0.1063(7) 0.0409(7)
H23 H 0.1864 -0.1362 0.1078
H24 H 0.1081 -0.1739 0.0401
C30 C 0.0435(7) -0.0165(8) 0.0439(6)
H25 H 0.0041 -0.0513 0.1161
H26 H 0.0772 0.0555 0.0348
C31 C 0.3031(6) 0.0176(6) -0.0654(6)
H27 H 0.3215 0.0374 -0.0102
N5A N -0.3570(5) -0.0558(5) 0.1629(4)
N6A N -0.2192(5) 0.0527(5) 0.0553(5)
C27A C -0.3032(6) -0.0055(7) 0.2171(6)
H21A H -0.3230 -0.0155 0.2884
C28A C -0.2178(7) 0.0605(7) 0.1519(6)
H22A H -0.1676 0.1029 0.1695
C29A C -0.1420(7) 0.1063(7) -0.0409(7)
H23A H -0.1864 0.1362 -0.1078
H24A H -0.1081 0.1739 -0.0401
C30A C -0.0435(7) 0.0165(8) -0.0439(6)
H25A H -0.0041 0.0513 -0.1161
H26A H -0.0772 -0.0555 -0.0348
C31A C -0.3031(6) -0.0176(6) 0.0654(6)
H27A H -0.3215 -0.0374 0.0102
Zn1A Zn -0.97243(6) -0.55086(6) -0.08154(6)
Zn2A Zn -0.48149(6) -0.17076(7) 0.21776(6)
O1A O -0.8186(4) -0.4799(4) -0.0968(4)
O2A O -0.8612(4) -0.4038(5) 0.0234(4)
O3A O -0.5489(5) -0.2294(5) 0.1243(4)
O4A O -0.3701(5) -0.2497(5) 0.0676(5)
O5A O -0.3063(5) -0.3730(7) -0.2278(6)
O6A O -0.4432(5) -0.4355(8) -0.2775(6)
O7A O -1.0369(4) -0.3819(4) -0.1796(4)
O8A O -1.0846(5) -0.3074(4) -0.0590(4)
O9A O -1.3679(6) 0.0502(8) -0.1904(8)
O10A O -1.4287(7) 0.1180(7) -0.3504(7)
O11A O -1.1544(6) 0.0665(6) -0.6248(5)
O12A O -1.0625(7) -0.1042(7) -0.5747(5)
N1A N -0.9660(4) -0.6190(4) -0.1906(4)
N2A N -1.0312(5) -0.6814(5) -0.3025(4)
N3A N -1.3441(5) -0.5092(5) -0.5653(4)
N4A N -1.4137(5) -0.3224(5) -0.6565(4)
N7A N -1.1231(6) -0.0326(7) -0.5541(6)
N8A N -0.4069(6) -0.3909(7) -0.2244(6)
C1A C -0.7942(6) -0.4253(6) -0.0432(6)
C2A C -0.4754(7) -0.2556(6) 0.0665(6)
C3A C -0.6742(5) -0.3833(6) -0.0600(5)
C4A C -0.6338(6) -0.3327(6) 0.0023(5)
H1A H -0.6842 -0.3191 0.0522
C5A C -0.5190(6) -0.3019(6) -0.0086(5)
C6A C -0.4447(6) -0.3231(6) -0.0816(6)
H2A H -0.3668 -0.3072 -0.0870
C7A C -0.4863(6) -0.3677(6) -0.1460(5)
C8A C -0.5989(5) -0.4006(6) -0.1356(5)
H3A H -0.6237 -0.4339 -0.1787
C9A C -1.0797(6) -0.3026(6) -0.1542(6)
C10A C -1.3602(8) 0.0563(8) -0.2808(11)
C11A C -1.1296(5) -0.1907(6) -0.2470(6)
C12A C -1.2102(6) -0.1152(6) -0.2227(6)
H4A H -1.2261 -0.1311 -0.1492
C13A C -1.2653(6) -0.0187(6) -0.3062(6)
C14A C -1.2379(6) 0.0086(6) -0.4159(6)
H5A H -1.2747 0.0744 -0.4734
C15A C -1.1555(6) -0.0629(6) -0.4382(6)
C16A C -1.1033(6) -0.1631(6) -0.3560(6)
H6A H -1.0503 -0.2122 -0.3738
C17A C -0.8782(6) -0.6894(6) -0.2093(5)
H7A H -0.8048 -0.7083 -0.1791
C18A C -0.9185(6) -0.7263(6) -0.2800(5)
H8A H -0.8770 -0.7737 -0.3081
C19A C -1.1108(6) -0.7017(6) -0.3717(5)
H9A H -1.0979 -0.7839 -0.3598
H10A H -1.1900 -0.6913 -0.3478
C20A C -1.0969(6) -0.6197(6) -0.4933(5)
H11A H -1.1145 -0.5377 -0.5059
H12A H -1.0167 -0.6265 -0.5164
C21A C -1.1747(6) -0.6468(6) -0.5638(5)
H13A H -1.1562 -0.5953 -0.6413
H14A H -1.1561 -0.7288 -0.5506
C22A C -1.3044(6) -0.6314(6) -0.5444(6)
H15A H -1.3245 -0.6863 -0.4682
H16A H -1.3452 -0.6529 -0.5926
C23A C -1.3801(6) -0.4226(6) -0.6620(6)
H17A H -1.3816 -0.4315 -0.7265
C24A C -1.3960(7) -0.3481(7) -0.5484(6)
H18A H -1.4111 -0.2947 -0.5184
C25A C -1.3534(7) -0.4627(8) -0.4920(6)
H19A H -1.3342 -0.5020 -0.4175
C26A C -1.0558(6) -0.6173(5) -0.2466(5)
H20A H -1.1272 -0.5769 -0.2472
Zn1_2 Zn -1.02757(6) -0.44914(6) 0.08154(6)
Zn1A_2 Zn 1.02757(6) 0.44914(6) -0.08154(6)
Zn2_2 Zn -1.51851(6) 0.17076(7) -0.21776(6)
Zn2_3 Zn 1.48149(6) 0.17076(7) 0.78224(6)
Zn2A_2 Zn -1.48149(6) -0.17076(7) -0.78224(6)
Zn2A_3 Zn 1.51851(6) -0.17076(7) 0.21776(6)
O2_2 O -1.1388(4) -0.5962(5) -0.0234(4)
O2A_2 O 1.1388(4) 0.5962(5) 0.0234(4)
O8_2 O -0.9154(5) -0.6926(4) 0.0590(4)
O8A_2 O 0.9154(5) 0.6926(4) -0.0590(4)
O9_2 O -0.6321(6) -0.0502(8) 0.1904(8)
O9A_2 O 0.6321(6) 0.0502(8) -0.1904(8)
O10_2 O -0.5713(7) -0.1180(7) 0.3504(7)
O10A_2 O 0.5713(7) 0.1180(7) -0.3504(7)
N4_2 N 0.4137(5) 0.3224(5) -0.3435(4)
N4A_2 N -0.4137(5) -0.3224(5) 0.3435(4)
O13 O 1.4984(19) -0.109(2) 0.563(2)
loop_
_geom_bond_atom_site_label_1
_geom_bond_atom_site_label_2
_geom_bond_site_symmetry_1
_geom_bond_site_symmetry_2
Zn1 O1 1_555 1_555
Zn2 O3 1_555 1_555
O1 C1 1_555 1_555
O2 C1 1_555 1_555
O3 C2 1_555 1_555
O4 C2 1_555 1_555
O5 N8 1_555 1_555
O6 N8 1_555 1_555
O7 Zn1 1_555 1_555
O8 C9 1_555 1_555
O9 C10 1_555 1_555
O10 C10 1_555 1_555
O11 N7 1_555 1_555
O12 N7 1_555 1_555
N1 Zn1 1_555 1_555
N2 C18 1_555 1_555
N3 C22 1_555 1_555
N4 C23 1_555 1_555
N5 Zn2 1_555 1_555
N6 C28 1_555 1_555
N7 C15 1_555 1_555
N8 C7 1_555 1_555
C1 C3 1_555 1_555
C2 C5 1_555 1_555
C3 C4 1_555 1_555
C4 H1 1_555 1_555
C5 C4 1_555 1_555
C6 C5 1_555 1_555
H2 C6 1_555 1_555
C7 C6 1_555 1_555
C8 C3 1_555 1_555
H3 C8 1_555 1_555
C9 O7 1_555 1_555
C10 C13 1_555 1_555
C11 C9 1_555 1_555
C12 C11 1_555 1_555
H4 C12 1_555 1_555
C13 C12 1_555 1_555
C14 C13 1_555 1_555
H5 C14 1_555 1_555
C15 C14 1_555 1_555
C16 C11 1_555 1_555
H6 C16 1_555 1_555
C17 N1 1_555 1_555
H7 C17 1_555 1_555
C18 C17 1_555 1_555
H8 C18 1_555 1_555
C19 N2 1_555 1_555
H9 C19 1_555 1_555
H10 C19 1_555 1_555
C20 C19 1_555 1_555
H11 C20 1_555 1_555
H12 C20 1_555 1_555
C21 C20 1_555 1_555
H13 C21 1_555 1_555
H14 C21 1_555 1_555
C22 C21 1_555 1_555
H15 C22 1_555 1_555
H16 C22 1_555 1_555
C23 N3 1_555 1_555
H17 C23 1_555 1_555
C24 N4 1_555 1_555
H18 C24 1_555 1_555
C25 N3 1_555 1_555
H19 C25 1_555 1_555
C26 N1 1_555 1_555
H20 C26 1_555 1_555
C27 N5 1_555 1_555
H21 C27 1_555 1_555
C28 C27 1_555 1_555
H22 C28 1_555 1_555
C29 N6 1_555 1_555
H23 C29 1_555 1_555
H24 C29 1_555 1_555
C30 C29 1_555 1_555
H25 C30 1_555 1_555
H26 C30 1_555 1_555
C31 N5 1_555 1_555
H27 C31 1_555 1_555
N5A C27A 1_555 1_555
N6A C28A 1_555 1_555
C27A H21A 1_555 1_555
C28A C27A 1_555 1_555
H22A C28A 1_555 1_555
C29A N6A 1_555 1_555
H23A C29A 1_555 1_555
H24A C29A 1_555 1_555
C30A C30 1_555 1_555
H25A C30A 1_555 1_555
H26A C30A 1_555 1_555
C31A N5A 1_555 1_555
H27A C31A 1_555 1_555
Zn1A O1A 1_555 1_555
Zn2A N5A 1_555 1_555
O1A C1A 1_555 1_555
O2A C1A 1_555 1_555
O3A Zn2A 1_555 1_555
O4A C2A 1_555 1_555
O5A N8A 1_555 1_555
O6A N8A 1_555 1_555
O7A Zn1A 1_555 1_555
O8A C9A 1_555 1_555
O9A C10A 1_555 1_555
O10A C10A 1_555 1_555
O11A N7A 1_555 1_555
O12A N7A 1_555 1_555
N1A Zn1A 1_555 1_555
N2A C18A 1_555 1_555
N3A C22A 1_555 1_555
N4A C23A 1_555 1_555
N7A C15A 1_555 1_555
N8A C7A 1_555 1_555
C1A C3A 1_555 1_555
C2A O3A 1_555 1_555
C3A C4A 1_555 1_555
C4A H1A 1_555 1_555
C5A C2A 1_555 1_555
C6A C5A 1_555 1_555
H2A C6A 1_555 1_555
C7A C6A 1_555 1_555
C8A C3A 1_555 1_555
H3A C8A 1_555 1_555
C9A O7A 1_555 1_555
C10A C13A 1_555 1_555
C11A C9A 1_555 1_555
C12A C11A 1_555 1_555
H4A C12A 1_555 1_555
C13A C12A 1_555 1_555
C14A C13A 1_555 1_555
H5A C14A 1_555 1_555
C15A C14A 1_555 1_555
C16A C11A 1_555 1_555
H6A C16A 1_555 1_555
C17A N1A 1_555 1_555
H7A C17A 1_555 1_555
C18A C17A 1_555 1_555
H8A C18A 1_555 1_555
C19A N2A 1_555 1_555
H9A C19A 1_555 1_555
H10A C19A 1_555 1_555
C20A C19A 1_555 1_555
H11A C20A 1_555 1_555
H12A C20A 1_555 1_555
C21A C20A 1_555 1_555
H13A C21A 1_555 1_555
H14A C21A 1_555 1_555
C22A C21A 1_555 1_555
H15A C22A 1_555 1_555
H16A C22A 1_555 1_555
C23A N3A 1_555 1_555
H17A C23A 1_555 1_555
C24A N4A 1_555 1_555
H18A C24A 1_555 1_555
C25A N3A 1_555 1_555
H19A C25A 1_555 1_555
C26A N1A 1_555 1_555
H20A C26A 1_555 1_555
Zn1_2 O2A 1_555 1_555
Zn1A_2 O2 1_555 1_555
Zn2_2 O9A 1_555 1_555
Zn2_3 N4 1_555 1_555
Zn2A_2 N4A 1_555 1_555
Zn2A_3 O9 1_555 1_555
O2_2 Zn1A 1_555 1_555
O2A_2 Zn1 1_555 1_555
O8_2 Zn1A 1_555 1_555
O8A_2 Zn1 1_555 1_555
O9_2 Zn2A 1_555 1_555
O9A_2 Zn2 1_555 1_555
O10_2 Zn2A 1_555 1_555
O10A_2 Zn2 1_555 1_555
N4_2 Zn2 1_555 1_555
N4A_2 Zn2A 1_555 1_555
O8 Zn1A_2 1_555 1_555
O10 Zn2A_3 1_555 1_555
N2 C26 1_555 1_555
N6 C31 1_555 1_555
C7 C8 1_555 1_555
C15 C16 1_555 1_555
C24 C25 1_555 1_555
N6A C31A 1_555 1_555
C29A C30A 1_555 1_555
O8A Zn1_2 1_555 1_555
O10A Zn2_2 1_555 1_555
N2A C26A 1_555 1_555
C4A C5A 1_555 1_555
C7A C8A 1_555 1_555
C15A C16A 1_555 1_555
C24A C25A 1_555 1_555

#END
