
#######################################################################
#
#                 Cambridge Crystallographic Data Centre
#                                CCDC 
#
#######################################################################
#
# If this CIF has been generated from an entry in the Cambridge 
# Structural Database, then it will include bibliographic, chemical, 
# crystal, experimental, refinement or atomic coordinate data resulting 
# from the CCDC's data processing and validation procedures.
#
#######################################################################

data_GOWRUF
_symmetry_cell_setting           monoclinic
_symmetry_space_group_name_H-M   'P 21/n'
_symmetry_Int_Tables_number      14
_space_group_name_Hall           '-P 2yn'
loop_
_symmetry_equiv_pos_site_id
_symmetry_equiv_pos_as_xyz
1 x,y,z
2 1/2+x,1/2-y,1/2+z
3 -x,-y,-z
4 1/2-x,1/2+y,1/2-z
_cell_length_a                   9.4944(1)
_cell_length_b                   12.9445(2)
_cell_length_c                   16.9514(1)
_cell_angle_alpha                90
_cell_angle_beta                 90.924(1)
_cell_angle_gamma                90
_cell_volume                     2083.06
loop_
_atom_site_label
_atom_site_type_symbol
_atom_site_fract_x
_atom_site_fract_y
_atom_site_fract_z
Cu1 Cu -0.74841(4) 0.24438(3) 0.19109(2)
Cu2 Cu -0.55413(4) 0.20036(3) 0.07333(2)
Br1 Br -0.74053(3) 0.07340(2) 0.114130(17)
Br2 Br -0.56874(3) 0.37660(2) 0.147350(19)
N1 N -0.6965(3) 0.21115(19) 0.30249(13)
N2 N -0.4258(3) 0.18433(19) 0.65353(13)
N3 N -0.3693(3) 0.1499(2) 0.11836(13)
N4 N -0.1001(3) 0.2560(2) 0.46283(14)
C1 C -0.7098(3) 0.1167(2) 0.33367(17)
C2 C -0.6751(3) 0.0935(2) 0.41133(17)
C3 C -0.6234(3) 0.1706(2) 0.46085(15)
C4 C -0.6095(4) 0.2680(2) 0.42865(17)
C5 C -0.6468(4) 0.2861(2) 0.35097(17)
C6 C -0.5841(3) 0.1489(2) 0.54403(15)
C7 C -0.6572(4) 0.0803(3) 0.5906(2)
C8 C -0.6127(4) 0.0643(3) 0.6674(2)
H1 H -0.6606 0.0181 0.6993
C9 C -0.4977(3) 0.1166(3) 0.69666(17)
C10 C -0.4699(3) 0.1990(2) 0.57865(15)
C11 C -0.3301(3) 0.1793(2) 0.19181(15)
C12 C -0.2039(3) 0.1526(2) 0.22799(14)
C13 C -0.1122(3) 0.0916(2) 0.18543(18)
C14 C -0.1518(3) 0.0603(3) 0.11031(19)
C15 C -0.2792(3) 0.0906(2) 0.07924(17)
C16 C -0.1692(3) 0.1893(2) 0.30898(14)
C17 C -0.2265(4) 0.2781(3) 0.34026(17)
C18 C -0.1898(4) 0.3084(3) 0.41605(18)
C19 C -0.0478(4) 0.1694(3) 0.43297(19)
C20 C -0.0785(4) 0.1343(3) 0.35763(18)
H2 H -0.737(3) 0.064(3) 0.2990(19)
H3 H -0.684(4) 0.025(3) 0.427(2)
H4 H -0.581(4) 0.332(3) 0.460(2)
H5 H -0.636(4) 0.354(3) 0.325(2)
H6 H -0.733(4) 0.047(3) 0.568(2)
H7 H -0.462(3) 0.110(3) 0.751(2)
H8 H -0.415(4) 0.248(3) 0.550(2)
H9 H -0.398(3) 0.225(3) 0.2191(19)
H10 H -0.035(4) 0.072(3) 0.206(2)
H11 H -0.087(4) 0.018(3) 0.079(2)
H12 H -0.311(3) 0.070(2) 0.0295(19)
H13 H -0.288(4) 0.321(3) 0.310(2)
H14 H -0.229(3) 0.370(3) 0.4373(19)
H15 H 0.012(4) 0.137(3) 0.467(2)
H16 H -0.040(4) 0.070(3) 0.338(2)
N2A N -0.9258(3) 0.31567(19) 0.15353(13)
Cu1A Cu -0.24841(4) 0.25562(3) 0.69109(2)
Br1A Br -0.24053(3) 0.42660(2) 0.614130(17)
Cu2A Cu -0.05413(4) 0.29964(3) 0.57333(2)
Br2A Br -0.06874(3) 0.12340(2) 0.647350(19)
N4A N -0.6001(3) 0.2440(2) -0.03717(14)
loop_
_geom_bond_atom_site_label_1
_geom_bond_atom_site_label_2
_geom_bond_site_symmetry_1
_geom_bond_site_symmetry_2
Cu1 Br1 1_555 1_555
Cu2 Br1 1_555 1_555
Br2 Cu1 1_555 1_555
N1 Cu1 1_555 1_555
N2 C9 1_555 1_555
N3 Cu2 1_555 1_555
N4 C18 1_555 1_555
C1 N1 1_555 1_555
C2 C1 1_555 1_555
C3 C2 1_555 1_555
C4 C3 1_555 1_555
C5 N1 1_555 1_555
C6 C3 1_555 1_555
C7 C6 1_555 1_555
C8 C7 1_555 1_555
H1 C8 1_555 1_555
C9 C8 1_555 1_555
C10 N2 1_555 1_555
C11 N3 1_555 1_555
C12 C11 1_555 1_555
C13 C12 1_555 1_555
C14 C13 1_555 1_555
C15 N3 1_555 1_555
C16 C12 1_555 1_555
C17 C16 1_555 1_555
C18 C17 1_555 1_555
C19 N4 1_555 1_555
C20 C16 1_555 1_555
H2 C1 1_555 1_555
H3 C2 1_555 1_555
H4 C4 1_555 1_555
H5 C5 1_555 1_555
H6 C7 1_555 1_555
H7 C9 1_555 1_555
H8 C10 1_555 1_555
H9 C11 1_555 1_555
H10 C13 1_555 1_555
H11 C14 1_555 1_555
H12 C15 1_555 1_555
H13 C17 1_555 1_555
H14 C18 1_555 1_555
H15 C19 1_555 1_555
H16 C20 1_555 1_555
N2A Cu1 1_555 1_555
Cu1A N2 1_555 1_555
Br1A Cu1A 1_555 1_555
Cu2A N4 1_555 1_555
Br2A Cu1A 1_555 1_555
N4A Cu2 1_555 1_555
Cu2 Br2 1_555 1_555
C4 C5 1_555 1_555
C6 C10 1_555 1_555
C14 C15 1_555 1_555
C19 C20 1_555 1_555
Br1A Cu2A 1_555 1_555
Cu2A Br2A 1_555 1_555

#END
