
#######################################################################
#
#                 Cambridge Crystallographic Data Centre
#                                CCDC 
#
#######################################################################
#
# If this CIF has been generated from an entry in the Cambridge 
# Structural Database, then it will include bibliographic, chemical, 
# crystal, experimental, refinement or atomic coordinate data resulting 
# from the CCDC's data processing and validation procedures.
#
#######################################################################

data_GOWTIX
_symmetry_cell_setting           triclinic
_symmetry_space_group_name_H-M   'P -1'
_symmetry_Int_Tables_number      2
_space_group_name_Hall           '-P 1'
loop_
_symmetry_equiv_pos_site_id
_symmetry_equiv_pos_as_xyz
1 x,y,z
2 -x,-y,-z
_cell_length_a                   11.222(2)
_cell_length_b                   14.784(3)
_cell_length_c                   17.474(3)
_cell_angle_alpha                66.87(3)
_cell_angle_beta                 77.87(3)
_cell_angle_gamma                89.41(3)
_cell_volume                     2598.05
loop_
_atom_site_label
_atom_site_type_symbol
_atom_site_fract_x
_atom_site_fract_y
_atom_site_fract_z
C1 C 0.6845(14) 0.4762(10) 0.8219(12)
C2 C 0.7655(15) 0.5103(12) 0.7478(13)
C3 C 0.7279(15) 0.5489(12) 0.6680(13)
C4 C 0.6017(17) 0.5444(13) 0.6694(13)
C5 C 0.5214(16) 0.5068(14) 0.7498(15)
C6 C 0.5604(15) 0.4731(12) 0.8259(13)
C7 C 0.4761(17) 0.4365(15) 0.9119(14)
H1 H 0.4007 0.4675 0.9077
H2 H 0.5133 0.4521 0.9503
H3 H 0.4598 0.3662 0.9330
C8 C 0.5575(19) 0.5835(14) 0.5910(16)
H4 H 0.6138 0.6365 0.5484
H5 H 0.4787 0.6077 0.6018
H6 H 0.5508 0.5323 0.5711
C9 C 0.9041(13) 0.5245(14) 0.7430(12)
H7 H 0.9157 0.5198 0.7973
H8 H 0.9365 0.5882 0.7000
H9 H 0.9458 0.4742 0.7289
C10 C 0.7308(17) 0.4376(12) 0.9053(13)
H10 H 0.6661 0.3954 0.9520
H11 H 0.7992 0.3983 0.8998
C11 C 0.8163(16) 0.5875(13) 0.5823(12)
H12 H 0.8971 0.5677 0.5899
H13 H 0.7916 0.5582 0.5466
C12 C 0.3837(15) 0.4939(15) 0.7520(15)
H14 H 0.3748 0.4900 0.6993
H15 H 0.3478 0.4326 0.7989
C13 C 0.8046(16) 0.7591(14) 0.5744(13)
H16 H 0.7826 0.7420 0.6330
C14 C 0.850(2) 0.8391(17) 0.4390(15)
H17 H 0.8680 0.8901 0.3849
C15 C 0.844(2) 0.7394(17) 0.4567(15)
H18 H 0.8548 0.7099 0.4178
C16 C 0.3617(14) 0.6642(13) 0.7581(12)
H19 H 0.4437 0.6820 0.7515
C17 C 0.1917(13) 0.5764(13) 0.7758(11)
H20 H 0.1377 0.5255 0.7818
C18 C 0.1615(13) 0.6663(11) 0.7786(12)
H21 H 0.0833 0.6870 0.7878
C19 C 0.7564(16) 0.6149(14) 0.8871(13)
H22 H 0.7159 0.6420 0.8429
C20 C 0.8595(16) 0.6019(15) 0.9815(12)
H23 H 0.9044 0.6184 1.0139
C21 C 0.8326(16) 0.5087(16) 0.9865(13)
H24 H 0.8538 0.4499 1.0248
C22 C 0.6720(14) 1.2016(12) 0.8400(11)
C23 C 0.7467(13) 1.2463(11) 0.7601(11)
C24 C 0.7037(15) 1.2808(11) 0.6889(10)
C25 C 0.5731(16) 1.2774(12) 0.6975(12)
C26 C 0.4999(14) 1.2353(12) 0.7786(14)
C27 C 0.5481(16) 1.1972(13) 0.8498(12)
C28 C 0.8887(14) 1.2457(14) 0.7479(13)
H25 H 0.9232 1.2380 0.6959
H26 H 0.9084 1.1920 0.7953
H27 H 0.9217 1.3069 0.7451
C29 C 0.7858(18) 1.3331(12) 0.5992(12)
H28 H 0.7493 1.3919 0.5674
H29 H 0.8649 1.3534 0.6039
C30 C 0.5190(19) 1.3137(14) 0.6204(14)
H30 H 0.5711 1.3008 0.5753
H31 H 0.5116 1.3834 0.6020
H32 H 0.4396 1.2802 0.6343
C31 C 0.3615(15) 1.2391(15) 0.7848(16)
H33 H 0.3234 1.2457 0.8374
H34 H 0.3470 1.2973 0.7377
C32 C 0.4614(17) 1.1469(15) 0.9382(14)
H35 H 0.4413 1.1945 0.9626
H36 H 0.5008 1.0948 0.9748
H37 H 0.3880 1.1200 0.9324
C33 C 0.7309(16) 1.1638(13) 0.9143(12)
H38 H 0.8027 1.2072 0.9028
H39 H 0.6744 1.1646 0.9643
C34 C 0.7955(18) 1.1690(15) 0.5839(15)
H40 H 0.7776 1.1279 0.6417
C35 C 0.845(2) 1.2235(16) 0.4507(13)
H41 H 0.8661 1.2260 0.3955
C36 C 0.8368(19) 1.3022(14) 0.4690(15)
H42 H 0.8525 1.3676 0.4301
C37 C 0.7582(14) 1.0091(14) 0.8903(11)
H43 H 0.7186 1.0278 0.8453
C38 C 0.8297(16) 1.0136(14) 0.9917(11)
H44 H 0.8506 1.0338 1.0316
C39 C 0.8566(15) 0.9274(14) 0.9818(12)
H45 H 0.8995 0.8781 1.0139
C40 C 0.1798(14) 1.1458(12) 0.7881(11)
H46 H 0.1239 1.1914 0.7925
C41 C 0.1576(14) 1.0544(13) 0.7853(12)
H47 H 0.0814 1.0282 0.7873
C42 C 0.3476(14) 1.0729(13) 0.7791(13)
H48 H 0.4296 1.0609 0.7765
Cd1 Cd 0.27734(11) 0.86834(11) 0.76736(11)
Cd2 Cd 0.83400(11) 0.82921(10) 0.84756(9)
Cd3 Cd 0.82510(14) 0.98541(10) 0.53759(10)
N1 N 0.8218(12) 0.6962(10) 0.5388(10)
N2 N 0.8225(13) 0.8500(11) 0.5163(10)
N3 N 0.3179(11) 0.5769(10) 0.7624(9)
N4 N 0.2720(10) 0.7199(10) 0.7647(9)
N5 N 0.7688(11) 0.5180(10) 0.9248(10)
N6 N 0.8061(14) 0.6662(11) 0.9181(11)
N7 N 0.8092(11) 0.9276(10) 0.9166(9)
N8 N 0.7673(11) 1.0627(11) 0.9324(10)
N9 N 0.8164(12) 1.1360(11) 0.5242(10)
N10 N 0.8019(14) 1.2702(11) 0.5542(12)
N11 N 0.2629(11) 1.0096(10) 0.7793(8)
N12 N 0.3034(11) 1.1526(10) 0.7830(10)
N13 N 0.1037(14) 0.7792(13) 0.9410(14)
O1 O 0.6747(16) 0.9209(14) 0.6531(11)
O2 O 0.6591(14) 0.8394(13) 0.8049(10)
O3 O 0.623(2) 1.0014(19) 0.7485(15)
O4 O 0.4788(11) 0.8737(11) 0.7544(11)
O5 O 0.1399(9) 0.9118(9) 0.6776(8)
O6 O -0.0050(10) 0.9525(8) 0.5911(7)
O7 O -0.0502(9) 0.8101(8) 0.7244(7)
O8 O -0.0561(10) 0.9666(8) 0.7262(7)
O9 O 0.2200(12) 0.7873(11) 0.9238(9)
O10 O 0.0588(10) 0.8139(9) 0.8772(9)
O11 O 0.0424(14) 0.7418(11) 1.0152(10)
S1 S 0.6092(5) 0.8946(6) 0.7392(5)
S2 S 0.0077(4) 0.9099(3) 0.6800(3)
Cd2_2 Cd -0.16600(11) 0.82921(10) 0.84756(9)
Cd3_2 Cd -0.17490(14) 0.98541(10) 0.53759(10)
Cd3A Cd 0.17490(14) 1.01459(10) 0.46241(10)
O6_2 O 0.9950(10) 0.9525(8) 0.5911(7)
O6A O 1.0050(10) 1.0475(8) 0.4089(7)
O7_2 O 0.9498(9) 0.8101(8) 0.7244(7)
O8_2 O 0.9439(10) 0.9666(8) 0.7262(7)
O10_2 O 1.0588(10) 0.8139(9) 0.8772(9)
N14 N 0.8271(16) 0.5629(11) 0.3716(11)
O12 O 0.7201(12) 0.5383(12) 0.4102(10)
O13 O 0.9132(10) 0.5448(9) 0.4046(8)
O14 O 0.8466(12) 0.6072(11) 0.2918(12)
O15 O 0.3722(17) 0.9698(12) 0.5589(12)
loop_
_geom_bond_atom_site_label_1
_geom_bond_atom_site_label_2
_geom_bond_site_symmetry_1
_geom_bond_site_symmetry_2
C1 C2 1_555 1_555
C2 C3 1_555 1_555
C3 C4 1_555 1_555
C4 C5 1_555 1_555
C5 C6 1_555 1_555
C6 C1 1_555 1_555
C7 C6 1_555 1_555
H1 C7 1_555 1_555
H2 C7 1_555 1_555
H3 C7 1_555 1_555
C8 C4 1_555 1_555
H4 C8 1_555 1_555
H5 C8 1_555 1_555
H6 C8 1_555 1_555
C9 C2 1_555 1_555
H7 C9 1_555 1_555
H8 C9 1_555 1_555
H9 C9 1_555 1_555
C10 C1 1_555 1_555
H10 C10 1_555 1_555
H11 C10 1_555 1_555
C11 C3 1_555 1_555
H12 C11 1_555 1_555
H13 C11 1_555 1_555
C12 C5 1_555 1_555
H14 C12 1_555 1_555
H15 C12 1_555 1_555
C13 H16 1_555 1_555
C14 H17 1_555 1_555
C15 C14 1_555 1_555
H18 C15 1_555 1_555
C16 H19 1_555 1_555
C17 H20 1_555 1_555
C18 C17 1_555 1_555
H21 C18 1_555 1_555
C19 H22 1_555 1_555
C20 H23 1_555 1_555
C21 C20 1_555 1_555
H24 C21 1_555 1_555
C22 C23 1_555 1_555
C23 C24 1_555 1_555
C24 C25 1_555 1_555
C25 C26 1_555 1_555
C26 C27 1_555 1_555
C27 C22 1_555 1_555
C28 C23 1_555 1_555
H25 C28 1_555 1_555
H26 C28 1_555 1_555
H27 C28 1_555 1_555
C29 C24 1_555 1_555
H28 C29 1_555 1_555
H29 C29 1_555 1_555
C30 C25 1_555 1_555
H30 C30 1_555 1_555
H31 C30 1_555 1_555
H32 C30 1_555 1_555
C31 C26 1_555 1_555
H33 C31 1_555 1_555
H34 C31 1_555 1_555
C32 C27 1_555 1_555
H35 C32 1_555 1_555
H36 C32 1_555 1_555
H37 C32 1_555 1_555
C33 C22 1_555 1_555
H38 C33 1_555 1_555
H39 C33 1_555 1_555
C34 H40 1_555 1_555
C35 H41 1_555 1_555
C36 C35 1_555 1_555
H42 C36 1_555 1_555
C37 H43 1_555 1_555
C38 H44 1_555 1_555
C39 C38 1_555 1_555
H45 C39 1_555 1_555
C40 H46 1_555 1_555
C41 C40 1_555 1_555
H47 C41 1_555 1_555
C42 H48 1_555 1_555
Cd1 N4 1_555 1_555
Cd2 N6 1_555 1_555
Cd3 N2 1_555 1_555
N1 C11 1_555 1_555
N2 C13 1_555 1_555
N3 C12 1_555 1_555
N4 C16 1_555 1_555
N5 C10 1_555 1_555
N6 C19 1_555 1_555
N7 C37 1_555 1_555
N8 C33 1_555 1_555
N9 C34 1_555 1_555
N10 C29 1_555 1_555
N11 C41 1_555 1_555
N12 C31 1_555 1_555
N13 O9 1_555 1_555
O1 Cd3 1_555 1_555
O2 Cd2 1_555 1_555
O3 S1 1_555 1_555
O4 Cd1 1_555 1_555
O5 Cd1 1_555 1_555
O6 S2 1_555 1_555
O7 S2 1_555 1_555
O8 S2 1_555 1_555
O9 Cd1 1_555 1_555
O10 Cd1 1_555 1_555
O11 N13 1_555 1_555
S1 O1 1_555 1_555
S2 O5 1_555 1_555
N14 O12 1_555 1_555
O13 N14 1_555 1_555
O14 N14 1_555 1_555
Cd2_2 O7 1_555 1_555
Cd3_2 O6 1_555 1_555
Cd3A O6 1_555 1_555
O6_2 Cd3 1_555 1_555
O6A Cd3 1_555 1_555
O7_2 Cd2 1_555 1_555
O8_2 Cd2 1_555 1_555
O10_2 Cd2 1_555 1_555
C13 N1 1_555 1_555
C14 N2 1_555 1_555
C15 N1 1_555 1_555
C16 N3 1_555 1_555
C17 N3 1_555 1_555
C18 N4 1_555 1_555
C19 N5 1_555 1_555
C20 N6 1_555 1_555
C21 N5 1_555 1_555
C34 N10 1_555 1_555
C35 N9 1_555 1_555
C36 N10 1_555 1_555
C37 N8 1_555 1_555
C38 N8 1_555 1_555
C39 N7 1_555 1_555
C40 N12 1_555 1_555
C42 N11 1_555 1_555
C42 N12 1_555 1_555
Cd1 N11 1_555 1_555
Cd2 N7 1_555 1_555
Cd3 N9 1_555 1_555
N13 O10 1_555 1_555
O2 S1 1_555 1_555
O4 S1 1_555 1_555
O8 Cd2_2 1_555 1_555
O10 Cd2_2 1_555 1_555

#END
