
#######################################################################
#
#                 Cambridge Crystallographic Data Centre
#                                CCDC 
#
#######################################################################
#
# If this CIF has been generated from an entry in the Cambridge 
# Structural Database, then it will include bibliographic, chemical, 
# crystal, experimental, refinement or atomic coordinate data resulting 
# from the CCDC's data processing and validation procedures.
#
#######################################################################

data_GOWVEV
_symmetry_cell_setting           monoclinic
_symmetry_space_group_name_H-M   'P 2/c'
_symmetry_Int_Tables_number      13
_space_group_name_Hall           '-P 2yc'
loop_
_symmetry_equiv_pos_site_id
_symmetry_equiv_pos_as_xyz
1 x,y,z
2 -x,y,1/2-z
3 -x,-y,-z
4 x,-y,1/2+z
_cell_length_a                   9.561(3)
_cell_length_b                   9.564(2)
_cell_length_c                   14.495(3)
_cell_angle_alpha                90
_cell_angle_beta                 125.187(13)
_cell_angle_gamma                90
_cell_volume                     1083.25
loop_
_atom_site_label
_atom_site_type_symbol
_atom_site_fract_x
_atom_site_fract_y
_atom_site_fract_z
Cu1 Cu 0.5000 0.39207(15) 0.2500
N1 N 0.5851(8) 0.5300(7) 0.3726(6)
N2 N 0.5964(10) 0.6929(8) 0.4826(7)
O1 O 0.3552(8) 0.2450(6) 0.1433(5)
O2 O 0.1884(8) 0.3001(7) 0.1960(6)
F1 F 0.0638(7) 0.2117(6) -0.0940(4)
F2 F -0.1385(7) 0.0035(6) -0.2231(4)
C1 C 0.3066(11) 0.6358(11) 0.3104(9)
H1 H 0.2741 0.6763 0.2400
H2 H 0.2694 0.6954 0.3456
H3 H 0.2542 0.5456 0.2967
C2 C 0.4939(11) 0.6208(10) 0.3851(7)
C3 C 0.7520(11) 0.5494(10) 0.4623(8)
H4 H 0.8456 0.5009 0.4745
C4 C 0.7588(13) 0.6507(10) 0.5305(8)
H5 H 0.8562 0.6843 0.5970
C5 C 0.5433(14) 0.8021(9) 0.5274(8)
H6 H 0.6246 0.8059 0.6088
H7 H 0.4325 0.7776 0.5109
C6 C 0.5314(14) 0.9456(9) 0.4785(9)
H8 H 0.6433 0.9726 0.4982
H9 H 0.4540 0.9413 0.3968
C7 C 0.2236(11) 0.2291(9) 0.1418(8)
C8 C 0.1083(10) 0.1116(9) 0.0690(7)
C9 C 0.0347(11) 0.1083(10) -0.0456(7)
C10 C -0.0695(11) -0.0017(10) -0.1116(8)
N1B N 0.4149(8) 1.4700(7) 0.6274(6)
N2B N 0.4036(10) 1.3071(8) 0.5174(7)
C1B C 0.6934(11) 1.3642(11) 0.6896(9)
H1B H 0.7259 1.3237 0.7600
H2B H 0.7306 1.3046 0.6544
H3B H 0.7458 1.4544 0.7033
C2B C 0.5061(11) 1.3792(10) 0.6149(7)
C3B C 0.2480(11) 1.4506(10) 0.5377(8)
H4B H 0.1544 1.4991 0.5255
C4B C 0.2412(13) 1.3493(10) 0.4695(8)
H5B H 0.1438 1.3157 0.4030
C5B C 0.4567(14) 1.1979(9) 0.4726(8)
H6B H 0.3754 1.1941 0.3912
H7B H 0.5675 1.2224 0.4891
C6B C 0.4686(14) 1.0544(9) 0.5215(9)
H8B H 0.3567 1.0274 0.5018
H9B H 0.5460 1.0587 0.6032
O1B O -0.3552(8) -0.2450(6) -0.1433(5)
O2B O -0.1884(8) -0.3001(7) -0.1960(6)
F1B F -0.0638(7) -0.2117(6) 0.0940(4)
F2B F 0.1385(7) -0.0035(6) 0.2231(4)
C7B C -0.2236(11) -0.2291(9) -0.1418(8)
C8B C -0.1083(10) -0.1116(9) -0.0690(7)
C9B C -0.0347(11) -0.1083(10) 0.0456(7)
C10B C 0.0695(11) 0.0017(10) 0.1116(8)
Cu1B Cu -0.5000 -0.39207(15) -0.2500
Cu1B_2 Cu 0.5000 1.60793(15) 0.7500
N1A N 0.4149(8) 0.5300(7) 0.1274(6)
O1A O 0.6448(8) 0.2450(6) 0.3567(5)
O2A O 0.8116(8) 0.3001(7) 0.3040(6)
loop_
_geom_bond_atom_site_label_1
_geom_bond_atom_site_label_2
_geom_bond_site_symmetry_1
_geom_bond_site_symmetry_2
Cu1 N1 1_555 1_555
N1 C2 1_555 1_555
N2 C2 1_555 1_555
O1 Cu1 1_555 1_555
O2 Cu1 1_555 1_555
F1 C9 1_555 1_555
F2 C10 1_555 1_555
C1 H1 1_555 1_555
H2 C1 1_555 1_555
H3 C1 1_555 1_555
C2 C1 1_555 1_555
C3 N1 1_555 1_555
H4 C3 1_555 1_555
C4 N2 1_555 1_555
H5 C4 1_555 1_555
C5 N2 1_555 1_555
H6 C5 1_555 1_555
H7 C5 1_555 1_555
C6 C5 1_555 1_555
H8 C6 1_555 1_555
H9 C6 1_555 1_555
C7 O1 1_555 1_555
C8 C7 1_555 1_555
C9 C8 1_555 1_555
C10 C9 1_555 1_555
N1B C2B 1_555 1_555
N2B C2B 1_555 1_555
C1B H1B 1_555 1_555
H2B C1B 1_555 1_555
H3B C1B 1_555 1_555
C2B C1B 1_555 1_555
C3B N1B 1_555 1_555
H4B C3B 1_555 1_555
C4B N2B 1_555 1_555
H5B C4B 1_555 1_555
C5B N2B 1_555 1_555
H6B C5B 1_555 1_555
H7B C5B 1_555 1_555
C6B C6 1_555 1_555
H8B C6B 1_555 1_555
H9B C6B 1_555 1_555
O1B C7B 1_555 1_555
O2B C7B 1_555 1_555
F1B C9B 1_555 1_555
F2B C10B 1_555 1_555
C7B C8B 1_555 1_555
C8B C10 1_555 1_555
C9B C8B 1_555 1_555
C10B C8 1_555 1_555
Cu1B O1B 1_555 1_555
Cu1B_2 N1B 1_555 1_555
N1A Cu1 1_555 1_555
O1A Cu1 1_555 1_555
O2A Cu1 1_555 1_555
O2 C7 1_555 1_555
C3 C4 1_555 1_555
C3B C4B 1_555 1_555
C5B C6B 1_555 1_555
O2B Cu1B 1_555 1_555
C9B C10B 1_555 1_555

#END
