
#######################################################################
#
#                 Cambridge Crystallographic Data Centre
#                                CCDC 
#
#######################################################################
#
# If this CIF has been generated from an entry in the Cambridge 
# Structural Database, then it will include bibliographic, chemical, 
# crystal, experimental, refinement or atomic coordinate data resulting 
# from the CCDC's data processing and validation procedures.
#
#######################################################################

data_GOWVOF
_symmetry_cell_setting           triclinic
_symmetry_space_group_name_H-M   'P -1'
_symmetry_Int_Tables_number      2
_space_group_name_Hall           '-P 1'
loop_
_symmetry_equiv_pos_site_id
_symmetry_equiv_pos_as_xyz
1 x,y,z
2 -x,-y,-z
_cell_length_a                   8.9246(16)
_cell_length_b                   11.0620(19)
_cell_length_c                   12.490(2)
_cell_angle_alpha                96.362(3)
_cell_angle_beta                 91.334(2)
_cell_angle_gamma                97.685(3)
_cell_volume                     1213.55
loop_
_atom_site_label
_atom_site_type_symbol
_atom_site_fract_x
_atom_site_fract_y
_atom_site_fract_z
Cd1 Cd 0.52412(3) 0.24797(2) 0.21821(2)
N1 N 0.4110(3) 0.3273(3) 0.0830(3)
N2 N 0.2817(4) 0.4432(3) -0.0055(3)
N3 N 0.2999(5) 0.2571(4) 0.3151(3)
N4 N 0.1144(4) 0.2119(3) 0.4230(3)
O1 O 0.6282(4) 0.1088(3) -0.0119(3)
O2 O 0.7400(3) 0.1867(3) 0.1455(3)
O3 O 0.6921(3) 0.2690(3) 0.3756(3)
O4 O 0.6836(4) 0.4375(3) 0.2947(3)
O5 O 0.4332(5) 0.0388(3) 0.1976(3)
H1 H 0.4181 -0.0116 0.1254
F1 F 0.8461(3) -0.0506(2) 0.1783(2)
F2 F 1.0858(3) -0.1625(3) 0.1292(2)
F3 F 1.0059(3) 0.5075(3) 0.2843(2)
F4 F 0.7555(3) 0.3868(3) 0.5917(2)
C1 C 0.3605(5) 0.2631(4) -0.0154(3)
H2 H 0.3787 0.1842 -0.0402
C2 C 0.2796(5) 0.3341(5) -0.0700(4)
H3 H 0.2322 0.3129 -0.1379
C3 C 0.3612(4) 0.4359(4) 0.0864(3)
C4 C 0.3833(6) 0.5341(4) 0.1791(4)
H4 H 0.2917 0.5336 0.2180
H5 H 0.4086 0.6124 0.1531
H6 H 0.4639 0.5195 0.2262
C5 C 0.2104(5) 0.5491(4) -0.0347(4)
H7 H 0.1993 0.5437 -0.1126
H8 H 0.2767 0.6243 -0.0100
C6 C 0.0559(5) 0.5553(5) 0.0134(5)
H9 H 0.0696 0.5707 0.0912
H10 H 0.0147 0.6248 -0.0110
C7 C 0.0408(6) 0.0484(5) 0.5431(4)
H11 H 0.1465 0.0372 0.5489
H12 H -0.0032 0.0376 0.6123
C8 C 0.0293(6) 0.1802(5) 0.5161(4)
H13 H -0.0762 0.1880 0.5025
H14 H 0.0663 0.2381 0.5781
C9 C 0.1599(5) 0.2229(4) 0.2522(4)
H15 H 0.1497 0.2200 0.1776
C10 C 0.0498(5) 0.1968(4) 0.3164(4)
H16 H -0.0517 0.1728 0.2963
C11 C 0.2614(5) 0.2481(4) 0.4140(4)
C12 C 0.3707(7) 0.2811(6) 0.5073(5)
H17 H 0.4720 0.2842 0.4824
H18 H 0.3540 0.2206 0.5567
H19 H 0.3570 0.3601 0.5430
C13 C 0.7330(4) 0.1240(4) 0.0558(4)
C14 C 0.8720(4) 0.0607(4) 0.0271(3)
C15 C 0.9213(4) -0.0228(4) 0.0900(3)
C16 C 1.0462(5) -0.0818(4) 0.0638(3)
C17 C 0.7377(5) 0.3780(4) 0.3626(3)
C18 C 0.8725(4) 0.4437(4) 0.4336(3)
C19 C 0.9997(5) 0.5025(4) 0.3917(3)
C20 C 0.8773(5) 0.4431(4) 0.5443(3)
C21 C 0.4585(15) -0.0404(8) 0.2743(8)
H20 H 0.5433 0.0005 0.3205
H21 H 0.4922 -0.1122 0.2355
C22 C 0.3430(16) -0.0847(14) 0.3442(11)
H22 H 0.2610 -0.0370 0.3421
H23 H 0.3844 -0.0776 0.4166
H24 H 0.3065 -0.1693 0.3205
N1A N -0.4110(3) 0.6727(3) -0.0830(3)
N2A N -0.2817(4) 0.5568(3) 0.0055(3)
C1A C -0.3605(5) 0.7369(4) 0.0154(3)
H2A H -0.3787 0.8158 0.0402
C2A C -0.2796(5) 0.6659(5) 0.0700(4)
H3A H -0.2322 0.6871 0.1379
C3A C -0.3612(4) 0.5641(4) -0.0864(3)
C4A C -0.3833(6) 0.4659(4) -0.1791(4)
H4A H -0.2917 0.4664 -0.2180
H5A H -0.4086 0.3876 -0.1531
H6A H -0.4639 0.4805 -0.2262
C5A C -0.2104(5) 0.4509(4) 0.0347(4)
H7A H -0.1993 0.4563 0.1126
H8A H -0.2767 0.3757 0.0100
C6A C -0.0559(5) 0.4447(5) -0.0134(5)
H9A H -0.0696 0.4293 -0.0912
H10A H -0.0147 0.3752 0.0110
N3A N -0.2999(5) -0.2571(4) 0.6849(3)
N4A N -0.1144(4) -0.2119(3) 0.5770(3)
C7A C -0.0408(6) -0.0484(5) 0.4569(4)
H11A H -0.1465 -0.0372 0.4511
H12A H 0.0032 -0.0376 0.3877
C8A C -0.0293(6) -0.1802(5) 0.4839(4)
H13A H 0.0762 -0.1880 0.4975
H14A H -0.0663 -0.2381 0.4219
C9A C -0.1599(5) -0.2229(4) 0.7478(4)
H15A H -0.1497 -0.2200 0.8224
C10A C -0.0498(5) -0.1968(4) 0.6836(4)
H16A H 0.0517 -0.1728 0.7037
C11A C -0.2614(5) -0.2481(4) 0.5860(4)
C12A C -0.3707(7) -0.2811(6) 0.4927(5)
H17A H -0.4720 -0.2842 0.5176
H18A H -0.3540 -0.2206 0.4433
H19A H -0.3570 -0.3601 0.4570
O1A O 1.3718(4) -0.1088(3) 0.0119(3)
O2A O 1.2600(3) -0.1867(3) -0.1455(3)
F1A F 1.1539(3) 0.0506(2) -0.1783(2)
F2A F 0.9142(3) 0.1625(3) -0.1292(2)
C13A C 1.2670(4) -0.1240(4) -0.0558(4)
C14A C 1.1280(4) -0.0607(4) -0.0271(3)
C15A C 1.0787(4) 0.0228(4) -0.0900(3)
C16A C 0.9538(5) 0.0818(4) -0.0638(3)
O3A O 1.3079(3) 0.7310(3) 0.6244(3)
O4A O 1.3164(4) 0.5625(3) 0.7053(3)
F3A F 0.9941(3) 0.4925(3) 0.7157(2)
F4A F 1.2445(3) 0.6132(3) 0.4083(2)
C17A C 1.2623(5) 0.6220(4) 0.6374(3)
C18A C 1.1275(4) 0.5563(4) 0.5664(3)
C19A C 1.0003(5) 0.4975(4) 0.6083(3)
C20A C 1.1227(5) 0.5569(4) 0.4557(3)
Cd1A Cd -0.52412(3) -0.24797(2) 0.78179(2)
O5A O -0.4332(5) -0.0388(3) 0.8024(3)
H1A H -0.4181 0.0116 0.8746
C21A C -0.4585(15) 0.0404(8) 0.7257(8)
H20A H -0.5433 -0.0005 0.6795
H21A H -0.4922 0.1122 0.7645
C22A C -0.3430(16) 0.0847(14) 0.6558(11)
H22A H -0.2610 0.0370 0.6579
H23A H -0.3844 0.0776 0.5834
H24A H -0.3065 0.1693 0.6795
Cd1A_2 Cd -0.52412(3) 0.75203(2) -0.21821(2)
Cd1A_3 Cd 1.47588(3) -0.24797(2) -0.21821(2)
Cd1A_4 Cd 1.47588(3) 0.75203(2) 0.78179(2)
N1A_2 N -0.4110(3) -0.3273(3) 0.9170(3)
O2A_2 O -0.7400(3) -0.1867(3) 0.8545(3)
O3A_2 O -0.6921(3) -0.2690(3) 0.6244(3)
O4A_2 O -0.6836(4) -0.4375(3) 0.7053(3)
loop_
_geom_bond_atom_site_label_1
_geom_bond_atom_site_label_2
_geom_bond_site_symmetry_1
_geom_bond_site_symmetry_2
Cd1 N1 1_555 1_555
N1 C1 1_555 1_555
N2 C2 1_555 1_555
N3 Cd1 1_555 1_555
N4 C8 1_555 1_555
O1 C13 1_555 1_555
O2 Cd1 1_555 1_555
O3 Cd1 1_555 1_555
O4 Cd1 1_555 1_555
O5 Cd1 1_555 1_555
H1 O5 1_555 1_555
F1 C15 1_555 1_555
F2 C16 1_555 1_555
F3 C19 1_555 1_555
F4 C20 1_555 1_555
C1 H2 1_555 1_555
C2 C1 1_555 1_555
H3 C2 1_555 1_555
C3 N1 1_555 1_555
C4 C3 1_555 1_555
H4 C4 1_555 1_555
H5 C4 1_555 1_555
H6 C4 1_555 1_555
C5 N2 1_555 1_555
H7 C5 1_555 1_555
H8 C5 1_555 1_555
C6 C5 1_555 1_555
H9 C6 1_555 1_555
H10 C6 1_555 1_555
C7 H11 1_555 1_555
H12 C7 1_555 1_555
C8 C7 1_555 1_555
H13 C8 1_555 1_555
H14 C8 1_555 1_555
C9 N3 1_555 1_555
H15 C9 1_555 1_555
C10 N4 1_555 1_555
H16 C10 1_555 1_555
C11 N3 1_555 1_555
C12 C11 1_555 1_555
H17 C12 1_555 1_555
H18 C12 1_555 1_555
H19 C12 1_555 1_555
C13 O2 1_555 1_555
C14 C13 1_555 1_555
C15 C14 1_555 1_555
C16 C15 1_555 1_555
C17 O3 1_555 1_555
C18 C17 1_555 1_555
C19 C18 1_555 1_555
C20 C18 1_555 1_555
C21 O5 1_555 1_555
H20 C21 1_555 1_555
H21 C21 1_555 1_555
C22 C21 1_555 1_555
H22 C22 1_555 1_555
H23 C22 1_555 1_555
H24 C22 1_555 1_555
N1A C1A 1_555 1_555
N2A C2A 1_555 1_555
C1A H2A 1_555 1_555
C2A C1A 1_555 1_555
H3A C2A 1_555 1_555
C3A N1A 1_555 1_555
C4A C3A 1_555 1_555
H4A C4A 1_555 1_555
H5A C4A 1_555 1_555
H6A C4A 1_555 1_555
C5A N2A 1_555 1_555
H7A C5A 1_555 1_555
H8A C5A 1_555 1_555
C6A C6 1_555 1_555
H9A C6A 1_555 1_555
H10A C6A 1_555 1_555
N3A C9A 1_555 1_555
N4A C8A 1_555 1_555
C7A C7 1_555 1_555
H11A C7A 1_555 1_555
H12A C7A 1_555 1_555
C8A C7A 1_555 1_555
H13A C8A 1_555 1_555
H14A C8A 1_555 1_555
C9A H15A 1_555 1_555
C10A N4A 1_555 1_555
H16A C10A 1_555 1_555
C11A N3A 1_555 1_555
C12A C11A 1_555 1_555
H17A C12A 1_555 1_555
H18A C12A 1_555 1_555
H19A C12A 1_555 1_555
O1A C13A 1_555 1_555
O2A C13A 1_555 1_555
F1A C15A 1_555 1_555
F2A C16A 1_555 1_555
C13A C14A 1_555 1_555
C14A C16 1_555 1_555
C15A C14A 1_555 1_555
C16A C14 1_555 1_555
O3A C17A 1_555 1_555
O4A C17A 1_555 1_555
F3A C19A 1_555 1_555
F4A C20A 1_555 1_555
C17A C18A 1_555 1_555
C18A C19A 1_555 1_555
C19A C20 1_555 1_555
C20A C19 1_555 1_555
Cd1A N3A 1_555 1_555
O5A Cd1A 1_555 1_555
H1A O5A 1_555 1_555
C21A O5A 1_555 1_555
H20A C21A 1_555 1_555
H21A C21A 1_555 1_555
C22A C21A 1_555 1_555
H22A C22A 1_555 1_555
H23A C22A 1_555 1_555
H24A C22A 1_555 1_555
Cd1A_2 N1A 1_555 1_555
Cd1A_3 O2A 1_555 1_555
Cd1A_4 O3A 1_555 1_555
N1A_2 Cd1A 1_555 1_555
O2A_2 Cd1A 1_555 1_555
O3A_2 Cd1A 1_555 1_555
O4A_2 Cd1A 1_555 1_555
N2 C3 1_555 1_555
N4 C11 1_555 1_555
O4 C17 1_555 1_555
C9 C10 1_555 1_555
N2A C3A 1_555 1_555
C5A C6A 1_555 1_555
N4A C11A 1_555 1_555
C9A C10A 1_555 1_555
C15A C16A 1_555 1_555
O4A Cd1A_4 1_555 1_555
C18A C20A 1_555 1_555

#END
