
#######################################################################
#
#                 Cambridge Crystallographic Data Centre
#                                CCDC 
#
#######################################################################
#
# If this CIF has been generated from an entry in the Cambridge 
# Structural Database, then it will include bibliographic, chemical, 
# crystal, experimental, refinement or atomic coordinate data resulting 
# from the CCDC's data processing and validation procedures.
#
#######################################################################

data_GOWVIZ
_symmetry_cell_setting           orthorhombic
_symmetry_space_group_name_H-M   'P n n a'
_symmetry_Int_Tables_number      52
_space_group_name_Hall           '-P 2a 2bc'
loop_
_symmetry_equiv_pos_site_id
_symmetry_equiv_pos_as_xyz
1 x,y,z
2 1/2-x,-y,z
3 1/2-x,1/2+y,1/2-z
4 x,1/2-y,1/2-z
5 -x,-y,-z
6 1/2+x,y,-z
7 1/2+x,1/2-y,1/2+z
8 -x,1/2+y,1/2+z
_cell_length_a                   18.1037(18)
_cell_length_b                   13.8016(14)
_cell_length_c                   9.3201(10)
_cell_angle_alpha                90
_cell_angle_beta                 90
_cell_angle_gamma                90
_cell_volume                     2328.72
loop_
_atom_site_label
_atom_site_type_symbol
_atom_site_fract_x
_atom_site_fract_y
_atom_site_fract_z
Zn1 Zn 0.301734(17) 0.7500 0.2500
N1 N 0.24117(9) 0.67856(13) 0.10683(19)
N2 N 0.16313(10) 0.57436(15) 0.0159(2)
O1 O 0.36178(9) 0.84939(11) 0.15984(19)
O2 O 0.41935(11) 0.75322(14) 0.0049(2)
F1 F 0.55703(8) 0.85471(11) 0.16015(19)
F2 F 0.36162(7) 0.98690(12) -0.10686(17)
C1 C 0.40933(12) 0.83017(17) 0.0650(3)
C2 C 0.45727(12) 0.91709(16) 0.0280(2)
C3 C 0.52784(12) 0.92634(17) 0.0801(2)
C4 C 0.43067(12) 0.99242(18) -0.0533(2)
C5 C 0.24668(14) 0.6810(2) -0.0406(3)
H1 H 0.2787 0.7202 -0.0927
C6 C 0.19839(14) 0.6176(2) -0.0968(3)
H2 H 0.1905 0.6055 -0.1938
C7 C 0.18981(11) 0.61325(16) 0.1374(3)
C8 C 0.16409(15) 0.5889(2) 0.2828(3)
H3 H 0.2010 0.6075 0.3515
H4 H 0.1556 0.5204 0.2893
H5 H 0.1190 0.6230 0.3025
C9 C 0.10602(12) 0.49890(19) 0.0041(3)
H6 H 0.1123 0.4527 0.0815
H7 H 0.1125 0.4645 -0.0858
C10 C 0.02869(12) 0.53971(18) 0.0102(3)
H8 H 0.0228 0.5882 -0.0642
H9 H 0.0210 0.5710 0.1022
N1D N -0.24117(9) 0.32144(13) -0.10683(19)
N2D N -0.16313(10) 0.42564(15) -0.0159(2)
C5D C -0.24668(14) 0.3190(2) 0.0406(3)
H1D H -0.2787 0.2798 0.0927
C6D C -0.19839(14) 0.3824(2) 0.0968(3)
H2D H -0.1905 0.3945 0.1938
C7D C -0.18981(11) 0.38675(16) -0.1374(3)
C8D C -0.16409(15) 0.4111(2) -0.2828(3)
H3D H -0.2010 0.3925 -0.3515
H4D H -0.1556 0.4796 -0.2893
H5D H -0.1190 0.3770 -0.3025
C9D C -0.10602(12) 0.50110(19) -0.0041(3)
H6D H -0.1123 0.5473 -0.0815
H7D H -0.1125 0.5355 0.0858
C10D C -0.02869(12) 0.46029(18) -0.0102(3)
H8D H -0.0228 0.4118 0.0642
H9D H -0.0210 0.4290 -0.1022
O1D O 0.63822(9) 1.15061(11) -0.15984(19)
O2D O 0.58065(11) 1.24678(14) -0.0049(2)
F1D F 0.44297(8) 1.14529(11) -0.16015(19)
F2D F 0.63838(7) 1.01310(12) 0.10686(17)
C1D C 0.59067(12) 1.16983(17) -0.0650(3)
C2D C 0.54273(12) 1.08291(16) -0.0280(2)
C3D C 0.47216(12) 1.07366(17) -0.0801(2)
C4D C 0.56933(12) 1.00758(18) 0.0533(2)
Zn1D Zn -0.301734(17) 0.2500 -0.2500
Zn1D_2 Zn 0.698266(17) 1.2500 -0.2500
N1C N 0.24117(9) 0.82144(13) 0.39317(19)
O1C O 0.36178(9) 0.65061(11) 0.34016(19)
O3 O 1.0135(2) 0.7500 0.2500
H10 H 0.9829(17) 0.751(3) 0.185(3)
H10C H 0.9829(17) 0.749(3) 0.315(3)
loop_
_geom_bond_atom_site_label_1
_geom_bond_atom_site_label_2
_geom_bond_site_symmetry_1
_geom_bond_site_symmetry_2
Zn1 N1 1_555 1_555
N1 C5 1_555 1_555
N2 C6 1_555 1_555
O1 Zn1 1_555 1_555
O2 C1 1_555 1_555
F1 C3 1_555 1_555
F2 C4 1_555 1_555
C1 O1 1_555 1_555
C2 C1 1_555 1_555
C3 C2 1_555 1_555
C4 C2 1_555 1_555
C5 H1 1_555 1_555
C6 C5 1_555 1_555
H2 C6 1_555 1_555
C7 N1 1_555 1_555
C8 C7 1_555 1_555
H3 C8 1_555 1_555
H4 C8 1_555 1_555
H5 C8 1_555 1_555
C9 N2 1_555 1_555
H6 C9 1_555 1_555
H7 C9 1_555 1_555
C10 C9 1_555 1_555
H8 C10 1_555 1_555
H9 C10 1_555 1_555
O3 H10 1_555 1_555
N1D C5D 1_555 1_555
N2D C6D 1_555 1_555
C5D H1D 1_555 1_555
C6D C5D 1_555 1_555
H2D C6D 1_555 1_555
C7D N1D 1_555 1_555
C8D C7D 1_555 1_555
H3D C8D 1_555 1_555
H4D C8D 1_555 1_555
H5D C8D 1_555 1_555
C9D N2D 1_555 1_555
H6D C9D 1_555 1_555
H7D C9D 1_555 1_555
C10D C10 1_555 1_555
H8D C10D 1_555 1_555
H9D C10D 1_555 1_555
O1D C1D 1_555 1_555
O2D C1D 1_555 1_555
F1D C3D 1_555 1_555
F2D C4D 1_555 1_555
C1D C2D 1_555 1_555
C2D C3D 1_555 1_555
C3D C4 1_555 1_555
C4D C3 1_555 1_555
Zn1D N1D 1_555 1_555
Zn1D_2 O1D 1_555 1_555
N1C Zn1 1_555 1_555
O1C Zn1 1_555 1_555
H10C O3 1_555 1_555
N2 C7 1_555 1_555
N2D C7D 1_555 1_555
C9D C10D 1_555 1_555
C2D C4D 1_555 1_555

#END
