
#######################################################################
#
#                 Cambridge Crystallographic Data Centre
#                                CCDC 
#
#######################################################################
#
# If this CIF has been generated from an entry in the Cambridge 
# Structural Database, then it will include bibliographic, chemical, 
# crystal, experimental, refinement or atomic coordinate data resulting 
# from the CCDC's data processing and validation procedures.
#
#######################################################################

data_GOWVAR
_symmetry_cell_setting           monoclinic
_symmetry_space_group_name_H-M   'P 21/c'
_symmetry_Int_Tables_number      14
_space_group_name_Hall           '-P 2ybc'
loop_
_symmetry_equiv_pos_site_id
_symmetry_equiv_pos_as_xyz
1 x,y,z
2 -x,1/2+y,1/2-z
3 -x,-y,-z
4 x,1/2-y,1/2+z
_cell_length_a                   13.733(3)
_cell_length_b                   11.218(2)
_cell_length_c                   33.679(6)
_cell_angle_alpha                90
_cell_angle_beta                 106.480(7)
_cell_angle_gamma                90
_cell_volume                     4975.33
loop_
_atom_site_label
_atom_site_type_symbol
_atom_site_fract_x
_atom_site_fract_y
_atom_site_fract_z
Co1 Co 0.12228(3) 0.76390(3) 0.212908(12)
O1 O 0.19143(18) 0.88136(19) 0.25983(7)
N1 N 0.20617(18) 0.6326(2) 0.25440(7)
N2 N 0.03222(19) 0.8980(2) 0.17395(8)
O2 O 0.03141(16) 0.6363(2) 0.16949(7)
O3 O -0.02158(18) 0.6729(2) 0.22376(8)
N3 N 0.23122(19) 0.7520(2) 0.17751(8)
C1 C 0.1355(2) 0.9184(2) 0.28132(9)
C2 C 0.1771(2) 0.5239(3) 0.26041(9)
C3 C 0.3027(2) 0.6455(3) 0.28122(9)
C4 C -0.0122(2) 0.8888(3) 0.13151(9)
C5 C -0.0033(2) 0.9986(3) 0.18480(9)
O4 O 0.04257(18) 0.9016(2) 0.27342(7)
C6 C 0.1880(2) 0.9862(2) 0.32046(8)
N4 N 0.24994(18) 0.4657(2) 0.28949(8)
H1 H 0.1145 0.4913 0.2464
H2 H 0.3422 0.7140 0.2840
C7 C 0.3311(2) 0.5426(3) 0.30296(9)
H3 H -0.0021 0.8261 0.1151
C8 C -0.0726(3) 0.9848(3) 0.11760(9)
N5 N -0.06657(19) 1.0546(2) 0.15203(8)
H4 H 0.0132 1.0274 0.2118
C9 C 0.1379(2) 1.0793(2) 0.33428(9)
C10 C 0.2828(2) 0.9514(2) 0.34546(9)
C11 C 0.2404(2) 0.3457(3) 0.30580(9)
H5 H 0.3925 0.5274 0.3228
H6 H -0.1103 1.0003 0.0905
C12 C -0.1287(2) 1.1608(3) 0.15393(9)
C13 C 0.1866(2) 1.1380(3) 0.37090(9)
C14 C 0.0349(2) 1.1297(2) 0.31103(10)
C15 C 0.3301(2) 1.0060(3) 0.38367(9)
H7 H 0.3163 0.8894 0.3365
H8 H 0.1716 0.3174 0.2937
H9 H 0.2516 0.3512 0.3355
C16 C 0.3139(2) 0.2551(2) 0.29711(9)
C17 C -0.1530(2) 1.2336(2) 0.11444(9)
H10 H -0.0925 1.2105 0.1770
H11 H -0.1917 1.1356 0.1590
C18 C 0.2816(2) 1.1045(3) 0.39597(9)
H12 H 0.1542 1.2026 0.3790
C19 C 0.4303(2) 0.9516(3) 0.40797(10)
C20 C 0.2847(2) 0.1939(3) 0.25913(9)
C21 C 0.4059(2) 0.2283(3) 0.32624(9)
C22 C -0.0841(2) 1.3219(3) 0.10981(9)
C23 C -0.2436(2) 1.2150(3) 0.08358(9)
C24 C 0.3192(2) 1.1861(3) 0.43398(10)
O5 O 0.47017(19) 0.8772(2) 0.39141(8)
O6 O 0.47242(18) 0.9837(2) 0.44603(7)
C25 C 0.3419(2) 0.0977(3) 0.25244(9)
C26 C 0.1917(2) 0.2343(3) 0.22590(10)
C27 C 0.4652(2) 0.1327(3) 0.31881(9)
C28 C 0.4447(2) 0.2992(3) 0.36589(9)
C29 C -0.1084(2) 1.3917(2) 0.07375(9)
C30 C 0.0157(2) 1.3386(3) 0.14246(10)
C31 C -0.2655(2) 1.2834(3) 0.04732(9)
C32 C -0.3183(3) 1.1212(3) 0.08906(11)
O7 O 0.38291(19) 1.1452(2) 0.46636(7)
O8 O 0.28628(19) 1.2896(2) 0.43119(7)
C33 C 0.3036(3) 0.0268(3) 0.21268(9)
C34 C 0.4323(2) 0.0644(3) 0.28221(9)
H13 H 0.1833 0.1859 0.2017
H14 H 0.1997 0.3162 0.2191
H15 H 0.1330 0.2265 0.2358
C35 C 0.5641(2) 0.1021(3) 0.35111(9)
H16 H 0.5008 0.3479 0.3642
H17 H 0.4665 0.2454 0.3889
H18 H 0.3912 0.3490 0.3697
C36 C -0.0359(2) 1.4924(3) 0.07087(10)
C37 C -0.1967(2) 1.3694(3) 0.04159(9)
H19 H 0.0095 1.3118 0.1687
H20 H 0.0338 1.4215 0.1443
H21 H 0.0674 1.2932 0.1352
C38 C -0.3664(3) 1.2655(3) 0.01477(11)
H22 H -0.2818 1.0535 0.1033
H23 H -0.3605 1.0967 0.0624
H24 H -0.3601 1.1539 0.1049
H25 H 0.2784 1.3101 0.4534
N6 N 0.3280(2) 0.0865(2) 0.17777(8)
H26 H 0.3342 -0.0519 0.2165
H27 H 0.2306 0.0170 0.2064
C39 C 0.4915(3) -0.0443(3) 0.27547(11)
N7 N 0.64911(19) 0.1771(2) 0.34773(8)
H28 H 0.5551 0.1119 0.3785
H29 H 0.5805 0.0192 0.3480
N8 N 0.0642(2) 1.4473(2) 0.07037(8)
H30 H -0.0651 1.5379 0.0458
H31 H -0.0278 1.5455 0.0943
C40 C -0.2163(3) 1.4366(3) 0.00088(10)
N9 N -0.36936(19) 1.1568(2) -0.01028(8)
H32 H -0.4199 1.2611 0.0283
H33 H -0.3799 1.3342 -0.0035
C41 C 0.4192(3) 0.1361(3) 0.17821(10)
C42 C 0.2674(2) 0.0929(3) 0.13854(9)
H34 H 0.4558 -0.1152 0.2790
H35 H 0.5575 -0.0438 0.2952
H36 H 0.4986 -0.0425 0.2479
C43 C 0.6907(2) 0.1789(3) 0.31597(9)
C44 C 0.7048(3) 0.2550(3) 0.37708(10)
C45 C 0.0817(2) 1.3460(3) 0.05212(10)
C46 C 0.1570(3) 1.4906(3) 0.09302(11)
H37 H -0.2520 1.5092 0.0024
H38 H -0.2566 1.3880 -0.0212
H39 H -0.1528 1.4549 -0.0043
C47 C -0.4576(2) 1.1050(3) -0.03426(10)
C48 C -0.2910(2) 1.0872(3) -0.01307(10)
H40 H 0.4756 0.1450 0.2011
C49 C 0.4113(3) 0.1697(3) 0.13876(10)
N10 N 0.3156(2) 0.1428(2) 0.11378(8)
H41 H 0.2007 0.0659 0.1300
H42 H 0.6668 0.1336 0.2921
H43 H 0.6944 0.2734 0.4025
C50 C 0.7781(3) 0.2996(3) 0.36128(10)
N11 N 0.1797(2) 1.3215(2) 0.06136(8)
H44 H 0.0310 1.2990 0.0351
H45 H 0.1690 1.5593 0.1092
C51 C 0.2277(3) 1.4127(3) 0.08708(11)
H46 H -0.5237 1.1322 -0.0381
C52 C -0.4281(2) 1.0066(3) -0.05101(10)
N12 N -0.3241(2) 0.9941(2) -0.03773(8)
H47 H -0.2231 1.1024 0.0004
H48 H 0.4626 0.2055 0.1299
Co2 Co 0.24922(3) 0.16217(4) 0.049228(12)
H49 H 0.8274 0.3544 0.3746
H50 H 0.2975 1.4199 0.0986
H51 H -0.4721 0.9545 -0.0690
O9 O 0.37893(16) 0.26240(19) 0.04307(7)
O10 O 0.17817(19) 0.1766(3) -0.01467(7)
O11 O 0.1109(2) 0.0703(2) 0.05084(8)
O2A O -0.03141(16) 1.1363(2) 0.33051(7)
O3A O 0.02158(18) 1.1729(2) 0.27624(8)
Co1A Co -0.12228(3) 1.26390(3) 0.287092(12)
N3A N 0.76878(19) 0.2520(2) 0.32249(8)
Co1A_2 Co 0.87772(3) 0.26390(3) 0.287092(12)
Co2_2 Co 0.24922(3) 1.16217(4) 0.049228(12)
Co2B Co -0.24922(3) 0.83783(4) -0.049228(12)
N11_2 N 0.1797(2) 0.3215(2) 0.06136(8)
N12B N 0.3241(2) 0.0059(2) 0.03773(8)
Cl1 Cl 0.05577(7) 0.81108(9) 0.03267(3)
loop_
_geom_bond_atom_site_label_1
_geom_bond_atom_site_label_2
_geom_bond_site_symmetry_1
_geom_bond_site_symmetry_2
Co1 O1 1_555 1_555
O1 C1 1_555 1_555
N1 Co1 1_555 1_555
N2 Co1 1_555 1_555
O2 Co1 1_555 1_555
O3 Co1 1_555 1_555
N3 Co1 1_555 1_555
C1 O4 1_555 1_555
C2 N1 1_555 1_555
C3 N1 1_555 1_555
C4 N2 1_555 1_555
C5 N2 1_555 1_555
C6 C1 1_555 1_555
N4 C2 1_555 1_555
H1 C2 1_555 1_555
H2 C3 1_555 1_555
C7 C3 1_555 1_555
H3 C4 1_555 1_555
C8 C4 1_555 1_555
N5 C5 1_555 1_555
H4 C5 1_555 1_555
C9 C6 1_555 1_555
C10 C6 1_555 1_555
C11 N4 1_555 1_555
H5 C7 1_555 1_555
H6 C8 1_555 1_555
C12 N5 1_555 1_555
C13 C9 1_555 1_555
C14 C9 1_555 1_555
C15 C10 1_555 1_555
H7 C10 1_555 1_555
H8 C11 1_555 1_555
H9 C11 1_555 1_555
C16 C11 1_555 1_555
C17 C12 1_555 1_555
H10 C12 1_555 1_555
H11 C12 1_555 1_555
C18 C13 1_555 1_555
H12 C13 1_555 1_555
C19 C15 1_555 1_555
C20 C16 1_555 1_555
C21 C16 1_555 1_555
C22 C17 1_555 1_555
C23 C17 1_555 1_555
C24 C18 1_555 1_555
O5 C19 1_555 1_555
O6 C19 1_555 1_555
C25 C20 1_555 1_555
C26 C20 1_555 1_555
C27 C21 1_555 1_555
C28 C21 1_555 1_555
C29 C22 1_555 1_555
C30 C22 1_555 1_555
C31 C23 1_555 1_555
C32 C23 1_555 1_555
O7 C24 1_555 1_555
O8 C24 1_555 1_555
C33 C25 1_555 1_555
C34 C25 1_555 1_555
H13 C26 1_555 1_555
H14 C26 1_555 1_555
H15 C26 1_555 1_555
C35 C27 1_555 1_555
H16 C28 1_555 1_555
H17 C28 1_555 1_555
H18 C28 1_555 1_555
C36 C29 1_555 1_555
C37 C29 1_555 1_555
H19 C30 1_555 1_555
H20 C30 1_555 1_555
H21 C30 1_555 1_555
C38 C31 1_555 1_555
H22 C32 1_555 1_555
H23 C32 1_555 1_555
H24 C32 1_555 1_555
H25 O8 1_555 1_555
N6 C33 1_555 1_555
H26 C33 1_555 1_555
H27 C33 1_555 1_555
C39 C34 1_555 1_555
N7 C35 1_555 1_555
H28 C35 1_555 1_555
H29 C35 1_555 1_555
N8 C36 1_555 1_555
H30 C36 1_555 1_555
H31 C36 1_555 1_555
C40 C37 1_555 1_555
N9 C38 1_555 1_555
H32 C38 1_555 1_555
H33 C38 1_555 1_555
C41 N6 1_555 1_555
C42 N6 1_555 1_555
H34 C39 1_555 1_555
H35 C39 1_555 1_555
H36 C39 1_555 1_555
C43 N7 1_555 1_555
C44 N7 1_555 1_555
C45 N8 1_555 1_555
C46 N8 1_555 1_555
H37 C40 1_555 1_555
H38 C40 1_555 1_555
H39 C40 1_555 1_555
C47 N9 1_555 1_555
C48 N9 1_555 1_555
H40 C41 1_555 1_555
C49 C41 1_555 1_555
N10 C42 1_555 1_555
H41 C42 1_555 1_555
H42 C43 1_555 1_555
H43 C44 1_555 1_555
C50 C44 1_555 1_555
N11 C45 1_555 1_555
H44 C45 1_555 1_555
H45 C46 1_555 1_555
C51 C46 1_555 1_555
H46 C47 1_555 1_555
C52 C47 1_555 1_555
N12 C48 1_555 1_555
H47 C48 1_555 1_555
H48 C49 1_555 1_555
Co2 N10 1_555 1_555
H49 C50 1_555 1_555
H50 C51 1_555 1_555
H51 C52 1_555 1_555
O9 Co2 1_555 1_555
O10 Co2 1_555 1_555
O11 Co2 1_555 1_555
O2A C14 1_555 1_555
O3A C14 1_555 1_555
Co1A O2A 1_555 1_555
N3A C43 1_555 1_555
Co1A_2 N3A 1_555 1_555
Co2_2 N11 1_555 1_555
Co2B N12 1_555 1_555
N11_2 Co2 1_555 1_555
N12B Co2 1_555 1_555
N4 C7 1_555 1_555
C8 N5 1_555 1_555
C15 C18 1_555 1_555
C27 C34 1_555 1_555
C31 C37 1_555 1_555
C49 N10 1_555 1_555
C50 N3A 1_555 1_555
N11 C51 1_555 1_555
C52 N12 1_555 1_555
O3A Co1A 1_555 1_555

#END
