
#######################################################################
#
#                 Cambridge Crystallographic Data Centre
#                                CCDC 
#
#######################################################################
#
# If this CIF has been generated from an entry in the Cambridge 
# Structural Database, then it will include bibliographic, chemical, 
# crystal, experimental, refinement or atomic coordinate data resulting 
# from the CCDC's data processing and validation procedures.
#
#######################################################################

data_GOWZEZ
_symmetry_cell_setting           triclinic
_symmetry_space_group_name_H-M   'P -1'
_symmetry_Int_Tables_number      2
_space_group_name_Hall           '-P 1'
loop_
_symmetry_equiv_pos_site_id
_symmetry_equiv_pos_as_xyz
1 x,y,z
2 -x,-y,-z
_cell_length_a                   7.563(6)
_cell_length_b                   8.340(7)
_cell_length_c                   9.721(6)
_cell_angle_alpha                68.15(3)
_cell_angle_beta                 79.933(15)
_cell_angle_gamma                63.506(9)
_cell_volume                     509.312
loop_
_atom_site_label
_atom_site_type_symbol
_atom_site_fract_x
_atom_site_fract_y
_atom_site_fract_z
Cd1 Cd 0.0000 1.0000 0.0000
O1 O 0.0042(9) 1.2590(9) 0.0529(8)
H1 H -0.0852 1.3717 0.0208
H2 H 0.0153 1.2314 0.1452
N1 N 0.6672(9) 0.6306(9) -0.0124(7)
N2 N 0.5853(10) 0.6630(10) -0.1384(8)
N3 N 0.3992(10) 0.7745(9) -0.1406(7)
N4 N 0.3508(9) 0.8204(9) -0.0163(6)
N5 N 0.9814(9) 0.1667(9) 0.7519(7)
N6 N 0.8437(9) 0.3843(9) 0.5433(7)
C1 C 0.4326(12) 0.8825(11) 0.2532(8)
H3 H 0.3405 0.9920 0.1896
C2 C 0.4571(12) 0.8755(11) 0.3919(9)
H4 H 0.3823 0.9813 0.4212
C3 C 0.5917(12) 0.7128(11) 0.4894(9)
H5 H 0.6061 0.7079 0.5841
C4 C 0.7050(11) 0.5568(11) 0.4428(8)
C5 C 0.6800(11) 0.5636(11) 0.3034(8)
H6 H 0.7539 0.4584 0.2733
C6 C 0.5439(11) 0.7282(11) 0.2080(8)
C7 C 0.5176(11) 0.7292(11) 0.0603(8)
C8 C 0.8529(12) 0.3423(11) 0.6904(8)
H7 H 0.7783 0.4262 0.7416
C9 C 1.0596(12) 0.0959(11) 0.6371(8)
H8 H 1.1557 -0.0261 0.6470
C10 C 0.9767(12) 0.2289(12) 0.5085(9)
H9 H 1.0047 0.2170 0.4148
O1A O -0.0042(9) 0.7410(9) -0.0529(8)
H1A H 0.0852 0.6283 -0.0208
H2A H -0.0153 0.7686 -0.1452
N1A N -0.6672(9) 1.3694(9) 0.0124(7)
N2A N -0.5853(10) 1.3370(10) 0.1384(8)
N3A N -0.3992(10) 1.2255(9) 0.1406(7)
N4A N -0.3508(9) 1.1796(9) 0.0163(6)
N5A N -0.9814(9) 1.8333(9) -0.7519(7)
N6A N -0.8437(9) 1.6157(9) -0.5433(7)
C1A C -0.4326(12) 1.1175(11) -0.2532(8)
H3A H -0.3405 1.0080 -0.1896
C2A C -0.4571(12) 1.1245(11) -0.3919(9)
H4A H -0.3823 1.0187 -0.4212
C3A C -0.5917(12) 1.2872(11) -0.4894(9)
H5A H -0.6061 1.2921 -0.5841
C4A C -0.7050(11) 1.4432(11) -0.4428(8)
C5A C -0.6800(11) 1.4364(11) -0.3034(8)
H6A H -0.7539 1.5416 -0.2733
C6A C -0.5439(11) 1.2718(11) -0.2080(8)
C7A C -0.5176(11) 1.2708(11) -0.0603(8)
C8A C -0.8529(12) 1.6577(11) -0.6904(8)
H7A H -0.7783 1.5738 -0.7416
C9A C -1.0596(12) 1.9041(11) -0.6371(8)
H8A H -1.1557 2.0261 -0.6470
C10A C -0.9767(12) 1.7711(12) -0.5085(9)
H9A H -1.0047 1.7830 -0.4148
Cd1_2 Cd -1.0000 2.0000 -1.0000
Cd1_3 Cd 1.0000 0.0000 1.0000
N5_2 N -0.0186(9) 1.1667(9) -0.2481(7)
N5A_2 N 0.0186(9) 0.8333(9) 0.2481(7)
O2 O 0.5000 0.0000 0.0000
loop_
_geom_bond_atom_site_label_1
_geom_bond_atom_site_label_2
_geom_bond_site_symmetry_1
_geom_bond_site_symmetry_2
Cd1 O1 1_555 1_555
O1 H1 1_555 1_555
H2 O1 1_555 1_555
N1 N2 1_555 1_555
N2 N3 1_555 1_555
N3 N4 1_555 1_555
N4 Cd1 1_555 1_555
N5 C8 1_555 1_555
N6 C4 1_555 1_555
C1 H3 1_555 1_555
C2 C1 1_555 1_555
H4 C2 1_555 1_555
C3 C2 1_555 1_555
H5 C3 1_555 1_555
C4 C3 1_555 1_555
C5 C4 1_555 1_555
H6 C5 1_555 1_555
C6 C1 1_555 1_555
C7 N1 1_555 1_555
C8 N6 1_555 1_555
H7 C8 1_555 1_555
C9 N5 1_555 1_555
H8 C9 1_555 1_555
C10 N6 1_555 1_555
H9 C10 1_555 1_555
O1A Cd1 1_555 1_555
H1A O1A 1_555 1_555
H2A O1A 1_555 1_555
N1A N2A 1_555 1_555
N2A N3A 1_555 1_555
N3A N4A 1_555 1_555
N4A Cd1 1_555 1_555
N5A C8A 1_555 1_555
N6A C4A 1_555 1_555
C1A H3A 1_555 1_555
C2A C1A 1_555 1_555
H4A C2A 1_555 1_555
C3A C2A 1_555 1_555
H5A C3A 1_555 1_555
C4A C3A 1_555 1_555
C5A C4A 1_555 1_555
H6A C5A 1_555 1_555
C6A C1A 1_555 1_555
C7A N1A 1_555 1_555
C8A N6A 1_555 1_555
H7A C8A 1_555 1_555
C9A N5A 1_555 1_555
H8A C9A 1_555 1_555
C10A N6A 1_555 1_555
H9A C10A 1_555 1_555
Cd1_2 N5A 1_555 1_555
Cd1_3 N5 1_555 1_555
N5_2 Cd1 1_555 1_555
N5A_2 Cd1 1_555 1_555
N4 C7 1_555 1_555
C5 C6 1_555 1_555
C6 C7 1_555 1_555
C9 C10 1_555 1_555
N4A C7A 1_555 1_555
C5A C6A 1_555 1_555
C6A C7A 1_555 1_555
C9A C10A 1_555 1_555

#END
