
#######################################################################
#
#                 Cambridge Crystallographic Data Centre
#                                CCDC 
#
#######################################################################
#
# If this CIF has been generated from an entry in the Cambridge 
# Structural Database, then it will include bibliographic, chemical, 
# crystal, experimental, refinement or atomic coordinate data resulting 
# from the CCDC's data processing and validation procedures.
#
#######################################################################

data_GOWZOJ
_symmetry_cell_setting           monoclinic
_symmetry_space_group_name_H-M   'P 21/n'
_symmetry_Int_Tables_number      14
_space_group_name_Hall           '-P 2yn'
loop_
_symmetry_equiv_pos_site_id
_symmetry_equiv_pos_as_xyz
1 x,y,z
2 1/2-x,1/2+y,1/2-z
3 -x,-y,-z
4 1/2+x,1/2-y,1/2+z
_cell_length_a                   7.784(4)
_cell_length_b                   13.039(6)
_cell_length_c                   11.761(5)
_cell_angle_alpha                90
_cell_angle_beta                 93.106(6)
_cell_angle_gamma                90
_cell_volume                     1191.94
loop_
_atom_site_label
_atom_site_type_symbol
_atom_site_fract_x
_atom_site_fract_y
_atom_site_fract_z
Cd1 Cd 0.0000 0.0000 0.5000
C1 C 0.3322(18) 0.0053(9) 1.1804(10)
H1 H 0.3772 0.0249 1.2519
N1 N 0.1295(13) -0.0840(7) 0.8569(8)
N2 N 0.3619(14) 0.2581(8) 1.0367(9)
N3 N 0.0474(15) -0.0736(8) 0.6739(8)
N4 N 0.5057(15) 0.2056(8) 1.1936(9)
N5 N 0.5431(16) 0.3050(8) 1.1759(10)
C2 C 0.1976(15) -0.0541(9) 0.9664(10)
C3 C 0.3271(15) 0.0744(8) 1.0913(10)
C4 C 0.2707(18) -0.0924(10) 1.1628(12)
H2 H 0.2737 -0.1383 1.2234
C5 C 0.2035(17) -0.1244(9) 1.0557(11)
H3 H 0.1638 -0.1911 1.0445
C6 C 0.063(2) -0.1793(10) 0.8229(12)
H4 H 0.0544 -0.2374 0.8681
C7 C 0.013(2) -0.1706(11) 0.7126(11)
H5 H -0.0372 -0.2227 0.6684
C8 C 0.3944(15) 0.1799(9) 1.1081(10)
C9 C 0.1162(19) -0.0242(9) 0.7632(11)
H6 H 0.1513 0.0440 0.7617
N6 N 0.4576(15) 0.3351(8) 1.0835(9)
C10 C 0.2633(16) 0.0448(9) 0.9853(10)
H7 H 0.2636 0.0911 0.9251
O1 O 0.2971(14) 0.0303(10) 0.5143(11)
H8 H 0.3211 0.0691 0.5710
H9 H 0.3082 0.0653 0.4542
C1B C -0.3322(18) -0.0053(9) -0.1804(10)
H1B H -0.3772 -0.0249 -0.2519
N1B N -0.1295(13) 0.0840(7) 0.1431(8)
N2B N -0.3619(14) -0.2581(8) -0.0367(9)
N3B N -0.0474(15) 0.0736(8) 0.3261(8)
N4B N -0.5057(15) -0.2056(8) -0.1936(9)
N5B N -0.5431(16) -0.3050(8) -0.1759(10)
C2B C -0.1976(15) 0.0541(9) 0.0336(10)
C3B C -0.3271(15) -0.0744(8) -0.0913(10)
C4B C -0.2707(18) 0.0924(10) -0.1628(12)
H2B H -0.2737 0.1383 -0.2234
C5B C -0.2035(17) 0.1244(9) -0.0557(11)
H3B H -0.1638 0.1911 -0.0445
C6B C -0.063(2) 0.1793(10) 0.1771(12)
H4B H -0.0544 0.2374 0.1319
C7B C -0.013(2) 0.1706(11) 0.2874(11)
H5B H 0.0372 0.2227 0.3316
C8B C -0.3944(15) -0.1799(9) -0.1081(10)
C9B C -0.1162(19) 0.0242(9) 0.2368(11)
H6B H -0.1513 -0.0440 0.2383
N6B N -0.4576(15) -0.3351(8) -0.0835(9)
C10B C -0.2633(16) -0.0448(9) 0.0147(10)
H7B H -0.2636 -0.0911 0.0749
O1B O -0.2971(14) -0.0303(10) 0.4857(11)
H8B H -0.3211 -0.0691 0.4290
H9B H -0.3082 -0.0653 0.5458
Cd1A Cd -0.5000 -0.5000 0.0000
Cd1A_2 Cd 0.5000 0.5000 1.0000
N6A N 0.0424(15) -0.1649(8) 0.4165(9)
N6C N -0.0424(15) 0.1649(8) 0.5835(9)
O2 O 0.5606(13) 0.1530(8) 0.4242(8)
H10 H 0.6643 0.1329 0.4332
H11 H 0.5563 0.1984 0.3723
loop_
_geom_bond_atom_site_label_1
_geom_bond_atom_site_label_2
_geom_bond_site_symmetry_1
_geom_bond_site_symmetry_2
Cd1 N3 1_555 1_555
C1 H1 1_555 1_555
N1 C2 1_555 1_555
N2 C8 1_555 1_555
N3 C7 1_555 1_555
N4 N5 1_555 1_555
N5 N6 1_555 1_555
C2 C5 1_555 1_555
C3 C1 1_555 1_555
C4 C1 1_555 1_555
H2 C4 1_555 1_555
C5 C4 1_555 1_555
H3 C5 1_555 1_555
C6 N1 1_555 1_555
H4 C6 1_555 1_555
C7 C6 1_555 1_555
H5 C7 1_555 1_555
C8 N4 1_555 1_555
C9 N1 1_555 1_555
H6 C9 1_555 1_555
N6 N2 1_555 1_555
C10 C2 1_555 1_555
H7 C10 1_555 1_555
O1 Cd1 1_555 1_555
H8 O1 1_555 1_555
H9 O1 1_555 1_555
O2 H10 1_555 1_555
H11 O2 1_555 1_555
C1B H1B 1_555 1_555
N1B C2B 1_555 1_555
N2B C8B 1_555 1_555
N3B Cd1 1_555 1_555
N4B N5B 1_555 1_555
N5B N6B 1_555 1_555
C2B C5B 1_555 1_555
C3B C1B 1_555 1_555
C4B C1B 1_555 1_555
H2B C4B 1_555 1_555
C5B C4B 1_555 1_555
H3B C5B 1_555 1_555
C6B N1B 1_555 1_555
H4B C6B 1_555 1_555
C7B N3B 1_555 1_555
H5B C7B 1_555 1_555
C8B N4B 1_555 1_555
C9B N1B 1_555 1_555
H6B C9B 1_555 1_555
N6B N2B 1_555 1_555
C10B C2B 1_555 1_555
H7B C10B 1_555 1_555
O1B Cd1 1_555 1_555
H8B O1B 1_555 1_555
H9B O1B 1_555 1_555
Cd1A N6B 1_555 1_555
Cd1A_2 N6 1_555 1_555
N6A Cd1 1_555 1_555
N6C Cd1 1_555 1_555
N3 C9 1_555 1_555
C3 C8 1_555 1_555
C3 C10 1_555 1_555
N3B C9B 1_555 1_555
C3B C8B 1_555 1_555
C3B C10B 1_555 1_555
C6B C7B 1_555 1_555

#END
