
#######################################################################
#
#                 Cambridge Crystallographic Data Centre
#                                CCDC 
#
#######################################################################
#
# If this CIF has been generated from an entry in the Cambridge 
# Structural Database, then it will include bibliographic, chemical, 
# crystal, experimental, refinement or atomic coordinate data resulting 
# from the CCDC's data processing and validation procedures.
#
#######################################################################

data_GOXBIG
_symmetry_cell_setting           monoclinic
_symmetry_space_group_name_H-M   'P 21/c'
_symmetry_Int_Tables_number      14
_space_group_name_Hall           '-P 2ybc'
loop_
_symmetry_equiv_pos_site_id
_symmetry_equiv_pos_as_xyz
1 x,y,z
2 -x,1/2+y,1/2-z
3 -x,-y,-z
4 x,1/2-y,1/2+z
_cell_length_a                   9.8675(15)
_cell_length_b                   7.7516(13)
_cell_length_c                   17.034(3)
_cell_angle_alpha                90
_cell_angle_beta                 107.209(2)
_cell_angle_gamma                90
_cell_volume                     1244.58
loop_
_atom_site_label
_atom_site_type_symbol
_atom_site_fract_x
_atom_site_fract_y
_atom_site_fract_z
I1 I -0.09507(2) 0.25415(3) 0.014037(14)
Cd1 Cd 0.06423(2) 0.20693(4) -0.087926(14)
C1 C 0.9695(3) 0.0258(4) 0.25480(17)
C2 C 0.8176(3) 0.0319(4) 0.24809(17)
C3 C 0.7681(3) -0.0063(5) 0.31476(19)
H1 H 0.8313 -0.0417 0.3643
C4 C 0.6254(3) 0.0084(5) 0.3073(2)
H2 H 0.5931 -0.0168 0.3521
C5 C 0.5295(3) 0.0605(5) 0.2337(2)
H3 H 0.4335 0.0707 0.2290
C6 C 0.5788(3) 0.0970(4) 0.16756(17)
C7 C 0.7212(3) 0.0830(4) 0.17434(17)
H4 H 0.7528 0.1078 0.1293
C8 C 0.3428(3) 0.1233(4) 0.06175(19)
H5 H 0.2906 0.0607 0.0894
C9 C 0.5200(3) 0.2527(5) 0.0330(2)
H6 H 0.6096 0.2951 0.0361
C10 C 0.4003(4) 0.2749(5) -0.0292(2)
H7 H 0.3937 0.3363 -0.0771
N1 N 1.0234(2) -0.0359(4) 0.19694(14)
N2 N 1.1655(3) -0.0121(4) 0.22579(16)
N3 N 1.1951(3) 0.0615(4) 0.29718(16)
N4 N 1.0740(2) 0.0860(4) 0.31770(15)
N5 N 0.4838(2) 0.1548(4) 0.09128(15)
N6 N 0.2895(3) 0.1934(4) -0.01142(16)
Cd1B Cd 0.93577(2) -0.20693(4) 0.087926(14)
Cd1C Cd 1.06423(2) 0.29307(4) 0.412074(14)
N1B N -0.0234(2) 0.0359(4) -0.19694(14)
N4C N 0.0740(2) 0.4140(4) -0.18230(15)
loop_
_geom_bond_atom_site_label_1
_geom_bond_atom_site_label_2
_geom_bond_site_symmetry_1
_geom_bond_site_symmetry_2
I1 Cd1 1_555 1_555
Cd1 N6 1_555 1_555
C1 C2 1_555 1_555
C2 C3 1_555 1_555
C3 H1 1_555 1_555
C4 C3 1_555 1_555
H2 C4 1_555 1_555
C5 C4 1_555 1_555
H3 C5 1_555 1_555
C6 C5 1_555 1_555
C7 C2 1_555 1_555
H4 C7 1_555 1_555
C8 H5 1_555 1_555
C9 H6 1_555 1_555
C10 C9 1_555 1_555
H7 C10 1_555 1_555
N1 C1 1_555 1_555
N2 N1 1_555 1_555
N3 N2 1_555 1_555
N4 C1 1_555 1_555
N5 C6 1_555 1_555
N6 C8 1_555 1_555
Cd1B N1 1_555 1_555
Cd1C N4 1_555 1_555
N1B Cd1 1_555 1_555
N4C Cd1 1_555 1_555
C6 C7 1_555 1_555
C8 N5 1_555 1_555
C9 N5 1_555 1_555
C10 N6 1_555 1_555
N3 N4 1_555 1_555

#END
