
#######################################################################
#
#                 Cambridge Crystallographic Data Centre
#                                CCDC 
#
#######################################################################
#
# If this CIF has been generated from an entry in the Cambridge 
# Structural Database, then it will include bibliographic, chemical, 
# crystal, experimental, refinement or atomic coordinate data resulting 
# from the CCDC's data processing and validation procedures.
#
#######################################################################

data_GOXBEC
_symmetry_cell_setting           triclinic
_symmetry_space_group_name_H-M   'P -1'
_symmetry_Int_Tables_number      2
_space_group_name_Hall           '-P 1'
loop_
_symmetry_equiv_pos_site_id
_symmetry_equiv_pos_as_xyz
1 x,y,z
2 -x,-y,-z
_cell_length_a                   4.268(3)
_cell_length_b                   8.108(5)
_cell_length_c                   17.578(11)
_cell_angle_alpha                95.734(9)
_cell_angle_beta                 94.064(8)
_cell_angle_gamma                103.239(8)
_cell_volume                     586.39
loop_
_atom_site_label
_atom_site_type_symbol
_atom_site_fract_x
_atom_site_fract_y
_atom_site_fract_z
Cd1 Cd 0.0000 0.0000 0.0000
C1 C 0.191(3) 0.7284(17) 0.4574(7)
C2 C 0.083(3) 0.6830(15) 0.3773(6)
C3 C -0.074(3) 0.7887(16) 0.3398(7)
H1 H -0.1021 0.8892 0.3658
C4 C -0.190(3) 0.7417(18) 0.2622(8)
H2 H -0.3031 0.8093 0.2372
C5 C -0.139(3) 0.5988(17) 0.2232(7)
H3 H -0.2130 0.5714 0.1713
C6 C 0.020(3) 0.4932(16) 0.2591(6)
C7 C 0.127(3) 0.5374(15) 0.3355(7)
H4 H 0.2330 0.4666 0.3602
C8 C 0.027(3) 0.2993(18) 0.1418(7)
H5 H -0.0521 0.3641 0.1077
C9 C 0.188(4) 0.2194(17) 0.2471(7)
H6 H 0.2402 0.2127 0.2988
C10 C 0.206(3) 0.1080(17) 0.1876(8)
H7 H 0.2835 0.0105 0.1914
N1 N 0.371(2) 0.6457(13) 0.5002(6)
N2 N 0.429(3) 0.7329(14) 0.5725(6)
N3 N 0.304(3) 0.8600(14) 0.5753(6)
N4 N 0.149(2) 0.8613(13) 0.5041(6)
N5 N 0.079(2) 0.3449(12) 0.2163(5)
N6 N 0.097(2) 0.1552(14) 0.1202(5)
I1 I 0.4062(2) -0.23521(13) 0.05118(5)
C1A C -0.191(3) -0.7284(17) -0.4574(7)
C2A C -0.083(3) -0.6830(15) -0.3773(6)
C3A C 0.074(3) -0.7887(16) -0.3398(7)
H1A H 0.1021 -0.8892 -0.3658
C4A C 0.190(3) -0.7417(18) -0.2622(8)
H2A H 0.3031 -0.8093 -0.2372
C5A C 0.139(3) -0.5988(17) -0.2232(7)
H3A H 0.2130 -0.5714 -0.1713
C6A C -0.020(3) -0.4932(16) -0.2591(6)
C7A C -0.127(3) -0.5374(15) -0.3355(7)
H4A H -0.2330 -0.4666 -0.3602
C8A C -0.027(3) -0.2993(18) -0.1418(7)
H5A H 0.0521 -0.3641 -0.1077
C9A C -0.188(4) -0.2194(17) -0.2471(7)
H6A H -0.2402 -0.2127 -0.2988
C10A C -0.206(3) -0.1080(17) -0.1876(8)
H7A H -0.2835 -0.0105 -0.1914
N1A N -0.371(2) -0.6457(13) -0.5002(6)
N2A N -0.429(3) -0.7329(14) -0.5725(6)
N3A N -0.304(3) -0.8600(14) -0.5753(6)
N4A N -0.149(2) -0.8613(13) -0.5041(6)
N5A N -0.079(2) -0.3449(12) -0.2163(5)
N6A N -0.097(2) -0.1552(14) -0.1202(5)
I1A I -0.4062(2) 0.23521(13) -0.05118(5)
Cd1_2 Cd -1.0000 0.0000 0.0000
Cd1_3 Cd 1.0000 0.0000 0.0000
I1_2 I -0.5938(2) -0.23521(13) 0.05118(5)
I1A_2 I 0.5938(2) 0.23521(13) -0.05118(5)
loop_
_geom_bond_atom_site_label_1
_geom_bond_atom_site_label_2
_geom_bond_site_symmetry_1
_geom_bond_site_symmetry_2
Cd1 N6 1_555 1_555
C1 C2 1_555 1_555
C2 C3 1_555 1_555
C3 H1 1_555 1_555
C4 C3 1_555 1_555
H2 C4 1_555 1_555
C5 C4 1_555 1_555
H3 C5 1_555 1_555
C6 C5 1_555 1_555
C7 C2 1_555 1_555
H4 C7 1_555 1_555
C8 H5 1_555 1_555
C9 H6 1_555 1_555
C10 C9 1_555 1_555
H7 C10 1_555 1_555
N1 C1 1_555 1_555
N2 N1 1_555 1_555
N3 N2 1_555 1_555
N4 C1 1_555 1_555
N5 C6 1_555 1_555
N6 C8 1_555 1_555
I1 Cd1 1_555 1_555
C1A C2A 1_555 1_555
C2A C3A 1_555 1_555
C3A H1A 1_555 1_555
C4A C3A 1_555 1_555
H2A C4A 1_555 1_555
C5A C4A 1_555 1_555
H3A C5A 1_555 1_555
C6A C5A 1_555 1_555
C7A C2A 1_555 1_555
H4A C7A 1_555 1_555
C8A H5A 1_555 1_555
C9A H6A 1_555 1_555
C10A C9A 1_555 1_555
H7A C10A 1_555 1_555
N1A C1A 1_555 1_555
N2A N1A 1_555 1_555
N3A N2A 1_555 1_555
N4A C1A 1_555 1_555
N5A C6A 1_555 1_555
N6A Cd1 1_555 1_555
I1A Cd1 1_555 1_555
Cd1_2 I1A 1_555 1_555
Cd1_3 I1 1_555 1_555
I1_2 Cd1 1_555 1_555
I1A_2 Cd1 1_555 1_555
C6 C7 1_555 1_555
C8 N5 1_555 1_555
C9 N5 1_555 1_555
C10 N6 1_555 1_555
N3 N4 1_555 1_555
C6A C7A 1_555 1_555
C8A N5A 1_555 1_555
C8A N6A 1_555 1_555
C9A N5A 1_555 1_555
C10A N6A 1_555 1_555
N3A N4A 1_555 1_555
Cd1_2 I1_2 1_555 1_555
Cd1_3 I1A_2 1_555 1_555

#END
