
#######################################################################
#
#                 Cambridge Crystallographic Data Centre
#                                CCDC 
#
#######################################################################
#
# If this CIF has been generated from an entry in the Cambridge 
# Structural Database, then it will include bibliographic, chemical, 
# crystal, experimental, refinement or atomic coordinate data resulting 
# from the CCDC's data processing and validation procedures.
#
#######################################################################

data_GOXBOM
_symmetry_cell_setting           rhombohedral
_symmetry_space_group_name_H-M   'R -3'
_symmetry_Int_Tables_number      148
_space_group_name_Hall           '-R 3'
loop_
_symmetry_equiv_pos_site_id
_symmetry_equiv_pos_as_xyz
1 x,y,z
2 -y,x-y,z
3 -x+y,-x,z
4 2/3+x,1/3+y,1/3+z
5 2/3-y,1/3+x-y,1/3+z
6 2/3-x+y,1/3-x,1/3+z
7 1/3+x,2/3+y,2/3+z
8 1/3-y,2/3+x-y,2/3+z
9 1/3-x+y,2/3-x,2/3+z
10 -x,-y,-z
11 y,-x+y,-z
12 x-y,x,-z
13 1/3-x,2/3-y,2/3-z
14 1/3+y,2/3-x+y,2/3-z
15 1/3+x-y,2/3+x,2/3-z
16 2/3-x,1/3-y,1/3-z
17 2/3+y,1/3-x+y,1/3-z
18 2/3+x-y,1/3+x,1/3-z
_cell_length_a                   17.3547(15)
_cell_length_b                   17.3547(15)
_cell_length_c                   16.3898(14)
_cell_angle_alpha                90
_cell_angle_beta                 90
_cell_angle_gamma                120
_cell_volume                     4275.02
loop_
_atom_site_label
_atom_site_type_symbol
_atom_site_fract_x
_atom_site_fract_y
_atom_site_fract_z
Cd1 Cd 0.0000 0.0000 0.0000
Cd2 Cd 0.3333 0.6667 -0.087419(13)
N1 N 0.40505(12) 0.61314(12) -0.00801(12)
N2 N 0.42355(11) 0.52017(11) 0.06643(10)
N3 N 0.18409(11) 0.17818(11) 0.06581(10)
N4 N 0.11481(11) 0.10090(11) 0.08541(10)
N5 N 0.12082(11) 0.08335(11) 0.16056(11)
N6 N 0.19455(11) 0.14839(11) 0.19175(10)
C1 C 0.36556(14) 0.53899(15) 0.03236(14)
H1 H 0.3041 0.5034 0.0369
C2 C 0.49351(14) 0.64388(14) 0.00083(14)
H2 H 0.5386 0.6962 -0.0219
C3 C 0.50610(14) 0.58813(14) 0.04679(13)
H3 H 0.5604 0.5942 0.0624
C4 C 0.40449(13) 0.44441(13) 0.11294(12)
C5 C 0.46070(14) 0.45360(14) 0.17444(13)
H4 H 0.5096 0.5090 0.1861
C6 C 0.44480(15) 0.38074(15) 0.21893(14)
H5 H 0.4845 0.3859 0.2596
C7 C 0.37077(14) 0.30007(14) 0.20417(13)
H6 H 0.3594 0.2512 0.2361
C8 C 0.31364(12) 0.29067(13) 0.14317(12)
C9 C 0.33168(12) 0.36335(13) 0.09595(12)
H7 H 0.2945 0.3574 0.0526
C10 C 0.23167(12) 0.20553(13) 0.13222(12)
N1A N -0.61314(12) -0.20809(17) -0.00801(12)
N2A N -0.52017(11) -0.09662(16) 0.06643(10)
N3A N -0.17818(11) 0.00591(16) 0.06581(10)
N4A N -0.10090(11) 0.01391(16) 0.08541(10)
N5A N -0.08335(11) 0.03747(16) 0.16056(11)
N6A N -0.14839(11) 0.04616(16) 0.19175(10)
C1A C -0.53899(15) -0.17343(21) 0.03236(14)
H1A H -0.5034 -0.1993 0.0369
C2A C -0.64388(14) -0.15037(20) 0.00083(14)
H2A H -0.6962 -0.1576 -0.0219
C3A C -0.58813(14) -0.08203(20) 0.04679(13)
H3A H -0.5942 -0.0338 0.0624
C4A C -0.44441(13) -0.03992(18) 0.11294(12)
C5A C -0.45360(14) 0.00710(20) 0.17444(13)
H4A H -0.5090 0.0006 0.1861
C6A C -0.38074(15) 0.06406(21) 0.21893(14)
H5A H -0.3859 0.0986 0.2596
C7A C -0.30007(14) 0.07070(20) 0.20417(13)
H6A H -0.2512 0.1082 0.2361
C8A C -0.29067(13) 0.02297(18) 0.14317(12)
C9A C -0.36335(13) -0.03167(18) 0.09595(12)
H7A H -0.3574 -0.0629 0.0526
C10A C -0.20553(13) 0.02614(18) 0.13222(12)
N1B N 0.20809(17) -0.40505(12) -0.00801(12)
N2B N 0.09662(16) -0.42355(11) 0.06643(10)
N3B N -0.00591(16) -0.18409(11) 0.06581(10)
N4B N -0.01391(16) -0.11481(11) 0.08541(10)
N5B N -0.03747(16) -0.12082(11) 0.16056(11)
N6B N -0.04616(16) -0.19455(11) 0.19175(10)
C1B C 0.17343(21) -0.36556(14) 0.03236(14)
H1B H 0.1993 -0.3041 0.0369
C2B C 0.15037(20) -0.49351(14) 0.00083(14)
H2B H 0.1576 -0.5386 -0.0219
C3B C 0.08203(20) -0.50610(14) 0.04679(13)
H3B H 0.0338 -0.5604 0.0624
C4B C 0.03992(18) -0.40449(13) 0.11294(12)
C5B C -0.00710(20) -0.46070(14) 0.17444(13)
H4B H -0.0006 -0.5096 0.1861
C6B C -0.06406(21) -0.44480(15) 0.21893(14)
H5B H -0.0986 -0.4845 0.2596
C7B C -0.07070(20) -0.37077(14) 0.20417(13)
H6B H -0.1082 -0.3594 0.2361
C8B C -0.02297(18) -0.31364(12) 0.14317(12)
C9B C 0.03167(18) -0.33168(12) 0.09595(12)
H7B H 0.0629 -0.2945 0.0526
C10B C -0.02614(18) -0.23167(12) 0.13222(12)
Cd2I Cd -0.3333 -0.6667 0.087419(13)
N1I N -0.40505(12) -0.61314(12) 0.00801(12)
N2I N -0.42355(11) -0.52017(11) -0.06643(10)
N3I N -0.18409(11) -0.17818(11) -0.06581(10)
N4I N -0.11481(11) -0.10090(11) -0.08541(10)
N5I N -0.12082(11) -0.08335(11) -0.16056(11)
N6I N -0.19455(11) -0.14839(11) -0.19175(10)
C1I C -0.36556(14) -0.53899(15) -0.03236(14)
H1I H -0.3041 -0.5034 -0.0369
C2I C -0.49351(14) -0.64388(14) -0.00083(14)
H2I H -0.5386 -0.6962 0.0219
C3I C -0.50610(14) -0.58813(14) -0.04679(13)
H3I H -0.5604 -0.5942 -0.0624
C4I C -0.40449(13) -0.44441(13) -0.11294(12)
C5I C -0.46070(14) -0.45360(14) -0.17444(13)
H4I H -0.5096 -0.5090 -0.1861
C6I C -0.44480(15) -0.38074(15) -0.21893(14)
H5I H -0.4845 -0.3859 -0.2596
C7I C -0.37077(14) -0.30007(14) -0.20417(13)
H6I H -0.3594 -0.2512 -0.2361
C8I C -0.31364(12) -0.29067(13) -0.14317(12)
C9I C -0.33168(12) -0.36335(13) -0.09595(12)
H7I H -0.2945 -0.3574 -0.0526
C10I C -0.23167(12) -0.20553(13) -0.13222(12)
N1J N 0.61314(12) 0.20809(17) 0.00801(12)
N2J N 0.52017(11) 0.09662(16) -0.06643(10)
N3J N 0.17818(11) -0.00591(16) -0.06581(10)
N4J N 0.10090(11) -0.01391(16) -0.08541(10)
N5J N 0.08335(11) -0.03747(16) -0.16056(11)
N6J N 0.14839(11) -0.04616(16) -0.19175(10)
C1J C 0.53899(15) 0.17343(21) -0.03236(14)
H1J H 0.5034 0.1993 -0.0369
C2J C 0.64388(14) 0.15037(20) -0.00083(14)
H2J H 0.6962 0.1576 0.0219
C3J C 0.58813(14) 0.08203(20) -0.04679(13)
H3J H 0.5942 0.0338 -0.0624
C4J C 0.44441(13) 0.03992(18) -0.11294(12)
C5J C 0.45360(14) -0.00710(20) -0.17444(13)
H4J H 0.5090 -0.0006 -0.1861
C6J C 0.38074(15) -0.06406(21) -0.21893(14)
H5J H 0.3859 -0.0986 -0.2596
C7J C 0.30007(14) -0.07070(20) -0.20417(13)
H6J H 0.2512 -0.1082 -0.2361
C8J C 0.29067(13) -0.02297(18) -0.14317(12)
C9J C 0.36335(13) 0.03167(18) -0.09595(12)
H7J H 0.3574 0.0629 -0.0526
C10J C 0.20553(13) -0.02614(18) -0.13222(12)
N1K N -0.20809(17) 0.40505(12) 0.00801(12)
N2K N -0.09662(16) 0.42355(11) -0.06643(10)
N3K N 0.00591(16) 0.18409(11) -0.06581(10)
N4K N 0.01391(16) 0.11481(11) -0.08541(10)
N5K N 0.03747(16) 0.12082(11) -0.16056(11)
N6K N 0.04616(16) 0.19455(11) -0.19175(10)
C1K C -0.17343(21) 0.36556(14) -0.03236(14)
H1K H -0.1993 0.3041 -0.0369
C2K C -0.15037(20) 0.49351(14) -0.00083(14)
H2K H -0.1576 0.5386 0.0219
C3K C -0.08203(20) 0.50610(14) -0.04679(13)
H3K H -0.0338 0.5604 -0.0624
C4K C -0.03992(18) 0.40449(13) -0.11294(12)
C5K C 0.00710(20) 0.46070(14) -0.17444(13)
H4K H 0.0006 0.5096 -0.1861
C6K C 0.06406(21) 0.44480(15) -0.21893(14)
H5K H 0.0986 0.4845 -0.2596
C7K C 0.07070(20) 0.37077(14) -0.20417(13)
H6K H 0.1082 0.3594 -0.2361
C8K C 0.02297(18) 0.31364(12) -0.14317(12)
C9K C -0.03167(18) 0.33168(12) -0.09595(12)
H7K H -0.0629 0.2945 -0.0526
C10K C 0.02614(18) 0.23167(12) -0.13222(12)
Cd2_2 Cd -0.6667 -0.3333 -0.087419(13)
Cd2_3 Cd 0.3333 -0.3333 -0.087419(13)
Cd2C Cd -0.0000 0.0000 0.245914(13)
Cd2I_2 Cd -0.3333 0.3333 0.087419(13)
Cd2I_3 Cd 0.6667 0.3333 0.087419(13)
Cd2L Cd 0.0000 -0.0000 -0.245914(13)
N1A_2 N 0.38686(12) 0.79191(17) -0.00801(12)
N1B_2 N 0.20809(17) 0.59495(12) -0.00801(12)
N1J_2 N -0.38686(12) -0.79191(17) 0.00801(12)
N1K_2 N -0.20809(17) -0.59495(12) 0.00801(12)
N5F N 0.45415(11) 0.75002(11) -0.17277(11)
N5G N 0.24998(11) 0.70414(16) -0.17277(11)
N5H N 0.29586(16) 0.54585(11) -0.17277(11)
N5O N -0.45415(11) -0.75002(11) 0.17277(11)
N5P N -0.24998(11) -0.70414(16) 0.17277(11)
N5Q N -0.29586(16) -0.54585(11) 0.17277(11)
loop_
_geom_bond_atom_site_label_1
_geom_bond_atom_site_label_2
_geom_bond_site_symmetry_1
_geom_bond_site_symmetry_2
Cd1 N4 1_555 1_555
Cd2 N1 1_555 1_555
N1 C1 1_555 1_555
N2 C1 1_555 1_555
N3 N4 1_555 1_555
N4 N5 1_555 1_555
N5 N6 1_555 1_555
N6 C10 1_555 1_555
C1 H1 1_555 1_555
C2 N1 1_555 1_555
H2 C2 1_555 1_555
C3 N2 1_555 1_555
H3 C3 1_555 1_555
C4 N2 1_555 1_555
C5 C4 1_555 1_555
H4 C5 1_555 1_555
C6 C5 1_555 1_555
H5 C6 1_555 1_555
C7 C6 1_555 1_555
H6 C7 1_555 1_555
C8 C7 1_555 1_555
C9 C4 1_555 1_555
H7 C9 1_555 1_555
C10 N3 1_555 1_555
N1A C1A 1_555 1_555
N2A C1A 1_555 1_555
N3A N4A 1_555 1_555
N4A Cd1 1_555 1_555
N5A N4A 1_555 1_555
N6A N5A 1_555 1_555
C1A H1A 1_555 1_555
C2A N1A 1_555 1_555
H2A C2A 1_555 1_555
C3A N2A 1_555 1_555
H3A C3A 1_555 1_555
C4A N2A 1_555 1_555
C5A C4A 1_555 1_555
H4A C5A 1_555 1_555
C6A C5A 1_555 1_555
H5A C6A 1_555 1_555
C7A C6A 1_555 1_555
H6A C7A 1_555 1_555
C8A C7A 1_555 1_555
C9A C4A 1_555 1_555
H7A C9A 1_555 1_555
C10A N3A 1_555 1_555
N1B C1B 1_555 1_555
N2B C1B 1_555 1_555
N3B N4B 1_555 1_555
N4B Cd1 1_555 1_555
N5B N4B 1_555 1_555
N6B N5B 1_555 1_555
C1B H1B 1_555 1_555
C2B N1B 1_555 1_555
H2B C2B 1_555 1_555
C3B N2B 1_555 1_555
H3B C3B 1_555 1_555
C4B N2B 1_555 1_555
C5B C4B 1_555 1_555
H4B C5B 1_555 1_555
C6B C5B 1_555 1_555
H5B C6B 1_555 1_555
C7B C6B 1_555 1_555
H6B C7B 1_555 1_555
C8B C7B 1_555 1_555
C9B C4B 1_555 1_555
H7B C9B 1_555 1_555
C10B N3B 1_555 1_555
Cd2I N1I 1_555 1_555
N1I C1I 1_555 1_555
N2I C1I 1_555 1_555
N3I N4I 1_555 1_555
N4I Cd1 1_555 1_555
N5I N4I 1_555 1_555
N6I N5I 1_555 1_555
C1I H1I 1_555 1_555
C2I N1I 1_555 1_555
H2I C2I 1_555 1_555
C3I N2I 1_555 1_555
H3I C3I 1_555 1_555
C4I N2I 1_555 1_555
C5I C4I 1_555 1_555
H4I C5I 1_555 1_555
C6I C5I 1_555 1_555
H5I C6I 1_555 1_555
C7I C6I 1_555 1_555
H6I C7I 1_555 1_555
C8I C7I 1_555 1_555
C9I C4I 1_555 1_555
H7I C9I 1_555 1_555
C10I N3I 1_555 1_555
N1J C1J 1_555 1_555
N2J C1J 1_555 1_555
N3J N4J 1_555 1_555
N4J Cd1 1_555 1_555
N5J N4J 1_555 1_555
N6J N5J 1_555 1_555
C1J H1J 1_555 1_555
C2J N1J 1_555 1_555
H2J C2J 1_555 1_555
C3J N2J 1_555 1_555
H3J C3J 1_555 1_555
C4J N2J 1_555 1_555
C5J C4J 1_555 1_555
H4J C5J 1_555 1_555
C6J C5J 1_555 1_555
H5J C6J 1_555 1_555
C7J C6J 1_555 1_555
H6J C7J 1_555 1_555
C8J C7J 1_555 1_555
C9J C4J 1_555 1_555
H7J C9J 1_555 1_555
C10J N3J 1_555 1_555
N1K C1K 1_555 1_555
N2K C1K 1_555 1_555
N3K N4K 1_555 1_555
N4K Cd1 1_555 1_555
N5K N4K 1_555 1_555
N6K N5K 1_555 1_555
C1K H1K 1_555 1_555
C2K N1K 1_555 1_555
H2K C2K 1_555 1_555
C3K N2K 1_555 1_555
H3K C3K 1_555 1_555
C4K N2K 1_555 1_555
C5K C4K 1_555 1_555
H4K C5K 1_555 1_555
C6K C5K 1_555 1_555
H5K C6K 1_555 1_555
C7K C6K 1_555 1_555
H6K C7K 1_555 1_555
C8K C7K 1_555 1_555
C9K C4K 1_555 1_555
H7K C9K 1_555 1_555
C10K N3K 1_555 1_555
Cd2_2 N1A 1_555 1_555
Cd2_3 N1B 1_555 1_555
Cd2C N5 1_555 1_555
Cd2I_2 N1K 1_555 1_555
Cd2I_3 N1J 1_555 1_555
Cd2L N5I 1_555 1_555
N1A_2 Cd2 1_555 1_555
N1B_2 Cd2 1_555 1_555
N1J_2 Cd2I 1_555 1_555
N1K_2 Cd2I 1_555 1_555
N5F Cd2 1_555 1_555
N5G Cd2 1_555 1_555
N5H Cd2 1_555 1_555
N5O Cd2I 1_555 1_555
N5P Cd2I 1_555 1_555
N5Q Cd2I 1_555 1_555
C2 C3 1_555 1_555
C8 C9 1_555 1_555
C8 C10 1_555 1_555
N5A Cd2C 1_555 1_555
N6A C10A 1_555 1_555
C2A C3A 1_555 1_555
C8A C9A 1_555 1_555
C8A C10A 1_555 1_555
N5B Cd2C 1_555 1_555
N6B C10B 1_555 1_555
C2B C3B 1_555 1_555
C8B C9B 1_555 1_555
C8B C10B 1_555 1_555
N6I C10I 1_555 1_555
C2I C3I 1_555 1_555
C8I C9I 1_555 1_555
C8I C10I 1_555 1_555
N5J Cd2L 1_555 1_555
N6J C10J 1_555 1_555
C2J C3J 1_555 1_555
C8J C9J 1_555 1_555
C8J C10J 1_555 1_555
N5K Cd2L 1_555 1_555
N6K C10K 1_555 1_555
C2K C3K 1_555 1_555
C8K C9K 1_555 1_555
C8K C10K 1_555 1_555

#END
