
#######################################################################
#
#                 Cambridge Crystallographic Data Centre
#                                CCDC 
#
#######################################################################
#
# If this CIF has been generated from an entry in the Cambridge 
# Structural Database, then it will include bibliographic, chemical, 
# crystal, experimental, refinement or atomic coordinate data resulting 
# from the CCDC's data processing and validation procedures.
#
#######################################################################

data_GOXDOM
_symmetry_cell_setting           monoclinic
_symmetry_space_group_name_H-M   'P 21/m'
_symmetry_Int_Tables_number      11
_space_group_name_Hall           '-P 2yb'
loop_
_symmetry_equiv_pos_site_id
_symmetry_equiv_pos_as_xyz
1 x,y,z
2 x,1/2-y,z
3 -x,-y,-z
4 -x,1/2+y,-z
_cell_length_a                   6.5473(7)
_cell_length_b                   14.671(2)
_cell_length_c                   7.2687(11)
_cell_angle_alpha                90
_cell_angle_beta                 114.929(9)
_cell_angle_gamma                90
_cell_volume                     633.148
loop_
_atom_site_label
_atom_site_type_symbol
_atom_site_fract_x
_atom_site_fract_y
_atom_site_fract_z
N1 N 0.7218(4) 0.2493(9) -0.7305(4)
O7 O 0.7526(24) 0.3248(7) -0.6700(12)
O7A O 0.7526(24) 0.1752(7) -0.6700(12)
O8 O 0.6769(2) -0.01430(9) -0.6235(2)
H8 H 0.6892(37) 0.0468(2) -0.6222(35)
H9 H 0.7113(37) -0.0315(16) -0.4951(13)
C1 C 0.1878(2) 0.17951(8) -0.7854(2)
O1 O 0.1849(2) 0.09446(6) -0.77801(14)
C2 C 0.1024(3) 0.2500 -0.9521(3)
O2 O 0.0105(3) 0.2500 -1.1363(2)
C3 C 0.2711(3) 0.2500 -0.6381(3)
C4 C 0.3962(5) 0.2500 -0.4146(3)
H1 H 0.4249(5) 0.1883 -0.3664(3)
O3 O 0.2926(2) -0.06533(8) -0.9549(2)
H4 H 0.4171(22) -0.0510(15) -0.8432(20)
H5 H 0.3114(36) -0.1175(8) -1.0109(30)
O4 O -0.0112(2) -0.07058(7) -0.7636(2)
H6 H 0.0051(34) -0.1312(2) -0.7704(30)
H7 H -0.1283(22) -0.0572(14) -0.7342(31)
Ni1 Ni 0.0000 0.0000 -1.0000
O1B O -0.1849(2) -0.09446(6) -1.22199(14)
C1A C 0.1878(2) 0.32049(8) -0.7854(2)
O1A O 0.1849(2) 0.40554(6) -0.77801(14)
Ni1A Ni 0.0000 0.5000 -1.0000
H1A H 0.4249(5) 0.3117 -0.3664(3)
O3B O -0.2926(2) 0.06533(8) -1.0451(2)
H4B H -0.4171(22) 0.0510(15) -1.1568(20)
H5B H -0.3114(36) 0.1175(8) -0.9891(30)
O4B O 0.0112(2) 0.07058(7) -1.2364(2)
H6B H -0.0051(34) 0.1312(2) -1.2296(30)
H7B H 0.1283(22) 0.0572(14) -1.2658(31)
H2? H -0.3078(5) -0.2199 -1.6443(3)
H3? H -0.5365(5) -0.2184 -1.6234(3)
O5? O 0.6444(6) 0.2378(7) -0.9163(4)
O6? O 0.7714(22) 0.1808(8) -0.6130(9)
loop_
_geom_bond_atom_site_label_1
_geom_bond_atom_site_label_2
_geom_bond_site_symmetry_1
_geom_bond_site_symmetry_2
C1 O1 1_555 1_555
O1 Ni1 1_555 1_555
C2 C1 1_555 1_555
O2 C2 1_555 1_555
C3 C1 1_555 1_555
C4 C3 1_555 1_555
H1 C4 1_555 1_555
O3 H4 1_555 1_555
H5 O3 1_555 1_555
O4 H6 1_555 1_555
H7 O4 1_555 1_555
Ni1 O3 1_555 1_555
N1 O7 1_555 1_555
O8 H8 1_555 1_555
H9 O8 1_555 1_555
O1B Ni1 1_555 1_555
C1A C2 1_555 1_555
O1A C1A 1_555 1_555
Ni1A O1A 1_555 1_555
H1A C4 1_555 1_555
O3B Ni1 1_555 1_555
H4B O3B 1_555 1_555
H5B O3B 1_555 1_555
O4B Ni1 1_555 1_555
H6B O4B 1_555 1_555
H7B O4B 1_555 1_555
O7A N1 1_555 1_555
C3 C1A 1_555 1_555
O4 Ni1 1_555 1_555

#END
