
#######################################################################
#
#                 Cambridge Crystallographic Data Centre
#                                CCDC 
#
#######################################################################
#
# If this CIF has been generated from an entry in the Cambridge 
# Structural Database, then it will include bibliographic, chemical, 
# crystal, experimental, refinement or atomic coordinate data resulting 
# from the CCDC's data processing and validation procedures.
#
#######################################################################

data_GOXKUZ
_symmetry_cell_setting           monoclinic
_symmetry_space_group_name_H-M   'C 2/c'
_symmetry_Int_Tables_number      15
_space_group_name_Hall           '-C 2yn'
loop_
_symmetry_equiv_pos_site_id
_symmetry_equiv_pos_as_xyz
1 x,y,z
2 1/2+x,1/2+y,z
3 x,-y,1/2+z
4 1/2+x,1/2-y,1/2+z
5 -x,-y,-z
6 1/2-x,1/2-y,-z
7 -x,y,1/2-z
8 1/2-x,1/2+y,1/2-z
_cell_length_a                   26.286(5)
_cell_length_b                   22.269(4)
_cell_length_c                   8.484(2)
_cell_angle_alpha                90
_cell_angle_beta                 99.04(3)
_cell_angle_gamma                90
_cell_volume                     4904.53
loop_
_atom_site_label
_atom_site_type_symbol
_atom_site_fract_x
_atom_site_fract_y
_atom_site_fract_z
Zn1 Zn 0.31573(3) 0.09754(4) 0.51241(10)
S1 S 0.27450(8) 0.00654(9) 0.4671(2)
S2 S 0.20285(8) 0.09669(11) 0.5756(2)
S3 S 0.34289(9) 0.12254(10) 0.7731(2)
S4 S 0.41771(12) 0.20572(14) 0.9402(3)
C1 C 0.2196(3) 0.0288(3) 0.5333(8)
O1 O 0.1895(2) -0.0193(2) 0.5437(6)
C2 C 0.1424(4) -0.0118(4) 0.6006(11)
H1 H 0.1220 0.0186 0.5377
H2 H 0.1490 0.0018 0.7105
C3 C 0.1142(5) -0.0672(7) 0.5916(15)
H3 H 0.1342 -0.0922 0.6741
C4 C 0.1083(6) -0.1027(7) 0.4594(19)
H4 H 0.0918 -0.1396 0.4814
H5 H 0.1415 -0.1114 0.4310
H6 H 0.0875 -0.0823 0.3727
C5 C 0.0636(6) -0.0590(7) 0.6500(18)
H7 H 0.0690 -0.0375 0.7494
H8 H 0.0488 -0.0975 0.6655
H9 H 0.0405 -0.0366 0.5726
C6 C 0.3812(3) 0.1816(4) 0.7795(10)
O2 O 0.3820(2) 0.2084(3) 0.6391(7)
C7 C 0.4142(7) 0.2582(6) 0.6292(14)
H10 H 0.3998 0.2912 0.6825
H11 H 0.4472 0.2487 0.6929
C8 C 0.4241(6) 0.2795(6) 0.4900(16)
H12 H 0.3903 0.2976 0.4546
C9 C 0.4247(5) 0.2417(5) 0.3564(13)
H13 H 0.4261 0.2658 0.2633
H14 H 0.3941 0.2176 0.3401
H15 H 0.4544 0.2160 0.3750
C10 C 0.4548(5) 0.3337(5) 0.4783(14)
H16 H 0.4557 0.3425 0.3680
H17 H 0.4893 0.3273 0.5327
H18 H 0.4396 0.3668 0.5265
N1 N 0.2872(2) 0.1564(3) 0.3368(7)
C11 C 0.2876(3) 0.2146(4) 0.3459(9)
H19 H 0.2986 0.2318 0.4451
C12 C 0.2728(4) 0.2524(3) 0.2195(11)
H20 H 0.2735 0.2937 0.2361
C13 C 0.2571(3) 0.2304(3) 0.0700(8)
C14 C 0.2546(3) 0.1696(4) 0.0606(9)
H21 H 0.2430 0.1513 -0.0370
C15 C 0.2691(4) 0.1350(3) 0.1935(11)
H22 H 0.2660 0.0935 0.1822
N2 N 0.3858(2) 0.0766(3) 0.4221(8)
C16 C 0.3854(3) 0.0614(4) 0.2718(11)
H23 H 0.3538 0.0527 0.2105
C17 C 0.4286(3) 0.0576(4) 0.1988(10)
H24 H 0.4257 0.0476 0.0913
C18 C 0.4763(3) 0.0688(3) 0.2881(10)
C19 C 0.4773(3) 0.0824(4) 0.4457(10)
H25 H 0.5085 0.0890 0.5118
C20 C 0.4316(4) 0.0865(4) 0.5060(9)
H26 H 0.4333 0.0969 0.6129
C13E C 0.2429(3) 0.2696(3) -0.0700(8)
C12E C 0.2272(4) 0.2476(3) -0.2195(11)
C11E C 0.2124(3) 0.2854(4) -0.3459(9)
N1E N 0.2128(2) 0.3436(3) -0.3368(7)
Zn1E Zn 0.18427(3) 0.40246(4) -0.51241(10)
C15E C 0.2309(4) 0.3650(3) -0.1935(11)
C14E C 0.2454(3) 0.3304(4) -0.0606(9)
H21E H 0.2570 0.3487 0.0370
H22E H 0.2340 0.4065 -0.1822
H19E H 0.2014 0.2682 -0.4451
H20E H 0.2265 0.2063 -0.2361
C18F C 0.5237(3) 0.0688(3) 0.2119(10)
C17F C 0.5714(3) 0.0576(4) 0.3012(10)
C16F C 0.6146(3) 0.0614(4) 0.2282(11)
N2F N 0.6142(2) 0.0766(3) 0.0779(8)
Zn1F Zn 0.68427(3) 0.09754(4) -0.01241(10)
S1F S 0.72550(8) 0.00654(9) 0.0329(2)
C1F C 0.7804(3) 0.0288(3) -0.0333(8)
S2F S 0.79715(8) 0.09669(11) -0.0756(2)
O1F O 0.8105(2) -0.0193(2) -0.0437(6)
C2F C 0.8576(4) -0.0118(4) -0.1006(11)
H1F H 0.8780 0.0186 -0.0377
H2F H 0.8510 0.0018 -0.2105
C3F C 0.8858(5) -0.0672(7) -0.0916(15)
H3F H 0.8658 -0.0922 -0.1741
C4F C 0.8917(6) -0.1027(7) 0.0406(19)
H4F H 0.9082 -0.1396 0.0186
H5F H 0.8585 -0.1114 0.0690
H6F H 0.9125 -0.0823 0.1273
C5F C 0.9364(6) -0.0590(7) -0.1500(18)
H7F H 0.9310 -0.0375 -0.2494
H8F H 0.9512 -0.0975 -0.1655
H9F H 0.9595 -0.0366 -0.0726
S3F S 0.65711(9) 0.12254(10) -0.2731(2)
C6F C 0.6188(3) 0.1816(4) -0.2795(10)
S4F S 0.58229(12) 0.20572(14) -0.4402(3)
O2F O 0.6180(2) 0.2084(3) -0.1391(7)
C7F C 0.5858(7) 0.2582(6) -0.1292(14)
H10F H 0.6002 0.2912 -0.1825
H11F H 0.5528 0.2487 -0.1929
C8F C 0.5759(6) 0.2795(6) 0.0100(16)
H12F H 0.6097 0.2976 0.0454
C9F C 0.5753(5) 0.2417(5) 0.1436(13)
H13F H 0.5739 0.2658 0.2367
H14F H 0.6059 0.2176 0.1599
H15F H 0.5456 0.2160 0.1250
C10F C 0.5452(5) 0.3337(5) 0.0217(14)
H16F H 0.5443 0.3425 0.1320
H17F H 0.5107 0.3273 -0.0327
H18F H 0.5604 0.3668 -0.0265
N1F N 0.7128(2) 0.1564(3) 0.1632(7)
C20F C 0.5684(4) 0.0865(4) -0.0060(9)
C19F C 0.5227(3) 0.0824(4) 0.0543(10)
H25F H 0.4915 0.0890 -0.0118
H26F H 0.5667 0.0969 -0.1129
H23F H 0.6462 0.0527 0.2895
H24F H 0.5743 0.0476 0.4087
loop_
_geom_bond_atom_site_label_1
_geom_bond_atom_site_label_2
_geom_bond_site_symmetry_1
_geom_bond_site_symmetry_2
Zn1 S1 1_555 1_555
S1 C1 1_555 1_555
S2 C1 1_555 1_555
S3 Zn1 1_555 1_555
S4 C6 1_555 1_555
C1 O1 1_555 1_555
O1 C2 1_555 1_555
C2 H1 1_555 1_555
H2 C2 1_555 1_555
C3 C2 1_555 1_555
H3 C3 1_555 1_555
C4 C3 1_555 1_555
H4 C4 1_555 1_555
H5 C4 1_555 1_555
H6 C4 1_555 1_555
C5 C3 1_555 1_555
H7 C5 1_555 1_555
H8 C5 1_555 1_555
H9 C5 1_555 1_555
C6 S3 1_555 1_555
O2 C6 1_555 1_555
C7 O2 1_555 1_555
H10 C7 1_555 1_555
H11 C7 1_555 1_555
C8 C7 1_555 1_555
H12 C8 1_555 1_555
C9 C8 1_555 1_555
H13 C9 1_555 1_555
H14 C9 1_555 1_555
H15 C9 1_555 1_555
C10 C8 1_555 1_555
H16 C10 1_555 1_555
H17 C10 1_555 1_555
H18 C10 1_555 1_555
N1 Zn1 1_555 1_555
C11 N1 1_555 1_555
H19 C11 1_555 1_555
C12 C11 1_555 1_555
H20 C12 1_555 1_555
C13 C12 1_555 1_555
C14 C13 1_555 1_555
H21 C14 1_555 1_555
C15 N1 1_555 1_555
H22 C15 1_555 1_555
N2 Zn1 1_555 1_555
C16 N2 1_555 1_555
H23 C16 1_555 1_555
C17 C16 1_555 1_555
H24 C17 1_555 1_555
C18 C17 1_555 1_555
C19 C18 1_555 1_555
H25 C19 1_555 1_555
C20 N2 1_555 1_555
H26 C20 1_555 1_555
C13E C13 1_555 1_555
C12E C13E 1_555 1_555
C11E C12E 1_555 1_555
N1E C11E 1_555 1_555
Zn1E N1E 1_555 1_555
C15E N1E 1_555 1_555
C14E C13E 1_555 1_555
H21E C14E 1_555 1_555
H22E C15E 1_555 1_555
H19E C11E 1_555 1_555
H20E C12E 1_555 1_555
C18F C18 1_555 1_555
C17F C18F 1_555 1_555
C16F C17F 1_555 1_555
N2F C16F 1_555 1_555
Zn1F N2F 1_555 1_555
S1F Zn1F 1_555 1_555
C1F S1F 1_555 1_555
S2F C1F 1_555 1_555
O1F C1F 1_555 1_555
C2F O1F 1_555 1_555
H1F C2F 1_555 1_555
H2F C2F 1_555 1_555
C3F C2F 1_555 1_555
H3F C3F 1_555 1_555
C4F C3F 1_555 1_555
H4F C4F 1_555 1_555
H5F C4F 1_555 1_555
H6F C4F 1_555 1_555
C5F C3F 1_555 1_555
H7F C5F 1_555 1_555
H8F C5F 1_555 1_555
H9F C5F 1_555 1_555
S3F Zn1F 1_555 1_555
C6F S3F 1_555 1_555
S4F C6F 1_555 1_555
O2F C6F 1_555 1_555
C7F O2F 1_555 1_555
H10F C7F 1_555 1_555
H11F C7F 1_555 1_555
C8F C7F 1_555 1_555
H12F C8F 1_555 1_555
C9F C8F 1_555 1_555
H13F C9F 1_555 1_555
H14F C9F 1_555 1_555
H15F C9F 1_555 1_555
C10F C8F 1_555 1_555
H16F C10F 1_555 1_555
H17F C10F 1_555 1_555
H18F C10F 1_555 1_555
N1F Zn1F 1_555 1_555
C20F N2F 1_555 1_555
C19F C18F 1_555 1_555
H25F C19F 1_555 1_555
H26F C20F 1_555 1_555
H23F C16F 1_555 1_555
H24F C17F 1_555 1_555
C14 C15 1_555 1_555
C19 C20 1_555 1_555
C15E C14E 1_555 1_555
C20F C19F 1_555 1_555

#END
