
#######################################################################
#
#                 Cambridge Crystallographic Data Centre
#                                CCDC 
#
#######################################################################
#
# If this CIF has been generated from an entry in the Cambridge 
# Structural Database, then it will include bibliographic, chemical, 
# crystal, experimental, refinement or atomic coordinate data resulting 
# from the CCDC's data processing and validation procedures.
#
#######################################################################

data_GOXPUG
_symmetry_cell_setting           orthorhombic
_symmetry_space_group_name_H-M   'P n a b'
_symmetry_Int_Tables_number      60
_space_group_name_Hall           '-P 2bc 2n'
loop_
_symmetry_equiv_pos_site_id
_symmetry_equiv_pos_as_xyz
1 x,y,z
2 -x,1/2-y,1/2+z
3 1/2+x,1/2-y,1/2-z
4 1/2-x,y,-z
5 -x,-y,-z
6 x,1/2+y,1/2-z
7 1/2-x,1/2+y,1/2+z
8 1/2+x,-y,z
_cell_length_a                   10.8373(5)
_cell_length_b                   11.0663(5)
_cell_length_c                   21.8829(14)
_cell_angle_alpha                90
_cell_angle_beta                 90
_cell_angle_gamma                90
_cell_volume                     2624.39
loop_
_atom_site_label
_atom_site_type_symbol
_atom_site_fract_x
_atom_site_fract_y
_atom_site_fract_z
C1 C -0.0244(11) 0.0061(6) 0.3606(3)
H1 H -0.0631 -0.0342 0.3287
C2 C 0.0979(5) 0.1524(6) 0.3940(3)
H2 H 0.1495 0.2179 0.3862
C3 C 0.0823(5) 0.1167(6) 0.4543(3)
H3 H 0.1214 0.1592 0.4855
C4 C 0.0104(5) 0.0202(4) 0.4681(2)
C5 C -0.0426(11) -0.0358(6) 0.4194(3)
H4 H -0.0920 -0.1034 0.4258
C6 C 0.0751(5) 0.1396(5) 0.1047(2)
H5 H 0.0051 0.0938 0.1131
C7 C 0.2218(9) 0.2607(12) 0.1348(3)
H6 H 0.2597 0.3065 0.1651
C8 C 0.1204(6) 0.1386(5) 0.0459(2)
H7 H 0.0793 0.0946 0.0160
C9 C 0.2734(9) 0.2612(14) 0.0775(3)
H8 H 0.3452 0.3051 0.0706
C10 C 0.2222(4) 0.1996(6) 0.0312(2)
N1 N 0.1246(3) 0.2009(4) 0.14908(16)
N2 N 0.0450(4) 0.1001(3) 0.34756(18)
O1 O -0.0807(2) 0.0701(2) 0.22003(14)
O2 O -0.2430(4) 0.0823(3) 0.12862(15)
O3 O -0.0409(3) 0.3190(3) 0.2629(2)
O4 O 0.2354(3) 0.2634(2) 0.27830(14)
O5 O 0.1852(3) 0.0016(3) 0.23708(15)
Cr1 Cr -0.22662(6) 0.09535(5) 0.20108(3)
Mn1 Mn 0.08038(5) 0.16369(5) 0.24932(3)
C1D C 0.0244(11) -0.0061(6) 0.6394(3)
H1D H 0.0631 0.0342 0.6713
C2D C -0.0979(5) -0.1524(6) 0.6060(3)
H2D H -0.1495 -0.2179 0.6138
C3D C -0.0823(5) -0.1167(6) 0.5457(3)
H3D H -0.1214 -0.1592 0.5145
C4D C -0.0104(5) -0.0202(4) 0.5319(2)
C5D C 0.0426(11) 0.0358(6) 0.5806(3)
H4D H 0.0920 0.1034 0.5742
N2D N -0.0450(4) -0.1001(3) 0.65244(18)
C6C C 0.4249(5) 0.1396(5) -0.1047(2)
H5C H 0.4949 0.0938 -0.1131
C7C C 0.2782(9) 0.2607(12) -0.1348(3)
H6C H 0.2403 0.3065 -0.1651
C8C C 0.3796(6) 0.1386(5) -0.0459(2)
H7C H 0.4207 0.0946 -0.0160
C9C C 0.2266(9) 0.2612(14) -0.0775(3)
H8C H 0.1548 0.3051 -0.0706
C10C C 0.2778(4) 0.1996(6) -0.0312(2)
N1C N 0.3754(3) 0.2009(4) -0.14908(16)
O1C O 0.5807(2) 0.0701(2) -0.22003(14)
O2C O 0.7430(4) 0.0823(3) -0.12862(15)
O3C O 0.5409(3) 0.3190(3) -0.2629(2)
O4C O 0.2646(3) 0.2634(2) -0.27830(14)
O5C O 0.3148(3) 0.0016(3) -0.23708(15)
Cr1C Cr 0.72662(6) 0.09535(5) -0.20108(3)
Mn1C Mn 0.41962(5) 0.16369(5) -0.24932(3)
N2C N 0.4550(4) 0.1001(3) -0.34756(18)
O4A O 0.7646(3) 0.2366(2) -0.22170(14)
O4B O -0.2646(3) 0.2366(2) 0.22170(14)
O5D O 0.8148(3) -0.0016(3) -0.23708(15)
O5G O -0.3148(3) -0.0016(3) 0.23708(15)
Cr1A Cr 0.22662(6) 0.40465(5) -0.29892(3)
Cr1B Cr 0.27338(6) 0.40465(5) 0.29892(3)
Cr1D Cr 0.22662(6) -0.09535(5) -0.20108(3)
Cr1G Cr 0.27338(6) -0.09535(5) 0.20108(3)
Mn1D Mn -0.08038(5) -0.16369(5) 0.75068(3)
O6 O -0.2500 0.1581(8) 0.0000
loop_
_geom_bond_atom_site_label_1
_geom_bond_atom_site_label_2
_geom_bond_site_symmetry_1
_geom_bond_site_symmetry_2
C1 H1 1_555 1_555
C2 H2 1_555 1_555
C3 C2 1_555 1_555
H3 C3 1_555 1_555
C4 C3 1_555 1_555
C5 C1 1_555 1_555
H4 C5 1_555 1_555
C6 H5 1_555 1_555
C7 H6 1_555 1_555
C8 C6 1_555 1_555
H7 C8 1_555 1_555
C9 C7 1_555 1_555
H8 C9 1_555 1_555
C10 C8 1_555 1_555
N1 C6 1_555 1_555
N2 C1 1_555 1_555
O1 Cr1 1_555 1_555
O2 Cr1 1_555 1_555
O3 Mn1 1_555 1_555
O4 Mn1 1_555 1_555
O5 Mn1 1_555 1_555
Cr1 O4B 1_555 1_555
Mn1 N1 1_555 1_555
C1D H1D 1_555 1_555
C2D H2D 1_555 1_555
C3D C2D 1_555 1_555
H3D C3D 1_555 1_555
C4D C4 1_555 1_555
C5D C1D 1_555 1_555
H4D C5D 1_555 1_555
N2D C1D 1_555 1_555
C6C H5C 1_555 1_555
C7C H6C 1_555 1_555
C8C C6C 1_555 1_555
H7C C8C 1_555 1_555
C9C C7C 1_555 1_555
H8C C9C 1_555 1_555
C10C C10 1_555 1_555
N1C C6C 1_555 1_555
O1C Cr1C 1_555 1_555
O2C Cr1C 1_555 1_555
O3C Mn1C 1_555 1_555
O4C Mn1C 1_555 1_555
O5C Mn1C 1_555 1_555
Cr1C O4A 1_555 1_555
Mn1C N1C 1_555 1_555
N2C Mn1C 1_555 1_555
O5D Cr1C 1_555 1_555
O5G Cr1 1_555 1_555
Cr1A O4C 1_555 1_555
Cr1B O4 1_555 1_555
Cr1D O5C 1_555 1_555
Cr1G O5 1_555 1_555
Mn1D N2D 1_555 1_555
C2 N2 1_555 1_555
C4 C5 1_555 1_555
C7 N1 1_555 1_555
C9 C10 1_555 1_555
N2 Mn1 1_555 1_555
O1 Mn1 1_555 1_555
C2D N2D 1_555 1_555
C3D C4D 1_555 1_555
C4D C5D 1_555 1_555
C7C N1C 1_555 1_555
C8C C10C 1_555 1_555
C9C C10C 1_555 1_555
O1C Mn1C 1_555 1_555

#END
