
#######################################################################
#
#                 Cambridge Crystallographic Data Centre
#                                CCDC 
#
#######################################################################
#
# If this CIF has been generated from an entry in the Cambridge 
# Structural Database, then it will include bibliographic, chemical, 
# crystal, experimental, refinement or atomic coordinate data resulting 
# from the CCDC's data processing and validation procedures.
#
#######################################################################

data_GOXSIV
_symmetry_cell_setting           monoclinic
_symmetry_space_group_name_H-M   'P 21/c'
_symmetry_Int_Tables_number      14
_space_group_name_Hall           '-P 2ybc'
loop_
_symmetry_equiv_pos_site_id
_symmetry_equiv_pos_as_xyz
1 x,y,z
2 x,1/2-y,1/2+z
3 -x,-y,-z
4 -x,1/2+y,1/2-z
_cell_length_a                   7.356(4)
_cell_length_b                   17.096(6)
_cell_length_c                   12.310(5)
_cell_angle_alpha                90
_cell_angle_beta                 93.66(4)
_cell_angle_gamma                90
_cell_volume                     1544.93
loop_
_atom_site_label
_atom_site_type_symbol
_atom_site_fract_x
_atom_site_fract_y
_atom_site_fract_z
Mn1 Mn 0.0000 0.0000 0.0000
S1 S -0.3630(3) 0.2305(1) 0.0897(3)
O1 O -0.1671(6) -0.0835(3) 0.0852(4)
C1 C -0.4960(8) -0.0268(4) -0.4609(5)
C2 C -0.283(1) -0.0720(4) -0.1838(6)
N1 N -0.1495(8) 0.1004(4) 0.0551(5)
N2 N -0.1984(8) -0.0061(3) -0.1517(4)
C3 C -0.3153(8) 0.0529(4) -0.3179(5)
C4 C -0.3999(8) -0.0175(4) -0.3531(5)
C5 C -0.3859(9) -0.0794(4) -0.2823(6)
C6 C -0.2390(9) 0.1541(4) 0.0678(6)
C7 C -0.2187(9) 0.0557(4) -0.2192(5)
C14 C -0.340(1) -0.0738(5) 0.1269(9)
H1 H -0.1734(6) -0.1262(3) 0.0497(4)
H2 H -0.4478(9) -0.1275(4) -0.3009(6)
H4 H -0.271(1) -0.1164(4) -0.1363(6)
H5 H -0.3269(8) 0.0985(4) -0.3633(5)
H7 H -0.1618(9) 0.1040(4) -0.1962(5)
H9 H -0.5596(8) -0.0751(4) -0.4749(5)
H12 H -0.378(1) -0.1216(5) 0.1597(9)
H13 H -0.333(1) -0.0330(5) 0.1805(9)
H14 H -0.426(1) -0.0597(5) 0.0684(9)
O1B O 0.1671(6) 0.0835(3) -0.0852(4)
C14B C 0.340(1) 0.0738(5) -0.1269(9)
H12B H 0.378(1) 0.1216(5) -0.1597(9)
H13B H 0.333(1) 0.0330(5) -0.1805(9)
H14B H 0.426(1) 0.0597(5) -0.0684(9)
H1B H 0.1734(6) 0.1262(3) -0.0497(4)
N1B N 0.1495(8) -0.1004(4) -0.0551(5)
C6B C 0.2390(9) -0.1541(4) -0.0678(6)
S1B S 0.3630(3) -0.2305(1) -0.0897(3)
C1B C -0.5040(8) 0.0268(4) -0.5391(5)
C4B C -0.6001(8) 0.0175(4) -0.6469(5)
C3B C -0.6847(8) -0.0529(4) -0.6821(5)
C7B C -0.7813(9) -0.0557(4) -0.7808(5)
N2B N -0.8016(8) 0.0061(3) -0.8483(4)
Mn1B Mn -1.0000 0.0000 -1.0000
C2B C -0.717(1) 0.0720(4) -0.8162(6)
C5B C -0.6141(9) 0.0794(4) -0.7177(6)
H2B H -0.5522(9) 0.1275(4) -0.6991(6)
H4B H -0.729(1) 0.1164(4) -0.8637(6)
H7B H -0.8382(9) -0.1040(4) -0.8038(5)
H5B H -0.6731(8) -0.0985(4) -0.6367(5)
H9B H -0.4404(8) 0.0751(4) -0.5251(5)
N2B_2 N 0.1984(8) 0.0061(3) 0.1517(4)
C8 C 0.027(1) -0.4777(4) 0.0417(6)
N3 N -0.086(1) -0.2364(4) 0.0878(7)
C9 C 0.014(1) -0.2778(5) 0.1589(9)
C10 C -0.0098(9) -0.3936(5) 0.0532(7)
C11 C -0.116(1) -0.3517(5) -0.0229(8)
C12 C -0.148(1) -0.2741(5) -0.002(1)
C13 C 0.057(1) -0.3551(5) 0.1456(8)
H3 H 0.059(1) -0.2516(5) 0.2241(9)
H6 H -0.163(1) -0.3770(5) -0.0882(8)
H8 H -0.224(1) -0.2449(5) -0.054(1)
H10 H 0.135(1) -0.3825(5) 0.1987(8)
H11 H 0.098(1) -0.5021(4) 0.1006(6)
C8B C -0.027(1) -0.5223(4) -0.0417(6)
C10B C 0.0098(9) -0.6064(5) -0.0532(7)
C11B C 0.116(1) -0.6483(5) 0.0229(8)
C12B C 0.148(1) -0.7259(5) 0.002(1)
N3B N 0.086(1) -0.7636(4) -0.0878(7)
C9B C -0.014(1) -0.7222(5) -0.1589(9)
C13B C -0.057(1) -0.6449(5) -0.1456(8)
H10B H -0.135(1) -0.6175(5) -0.1987(8)
H3B H -0.059(1) -0.7484(5) -0.2241(9)
H8B H 0.224(1) -0.7551(5) 0.054(1)
H6B H 0.163(1) -0.6230(5) 0.0882(8)
H11B H -0.098(1) -0.4979(4) -0.1006(6)
loop_
_geom_bond_atom_site_label_1
_geom_bond_atom_site_label_2
_geom_bond_site_symmetry_1
_geom_bond_site_symmetry_2
Mn1 O1 1_555 1_555
S1 C6 1_555 1_555
O1 C14 1_555 1_555
C1 C4 1_555 1_555
C2 N2 1_555 1_555
N1 Mn1 1_555 1_555
N2 Mn1 1_555 1_555
C3 C4 1_555 1_555
C4 C5 1_555 1_555
C5 C2 1_555 1_555
C6 N1 1_555 1_555
C7 N2 1_555 1_555
C8 C10 1_555 1_555
N3 C9 1_555 1_555
C9 C13 1_555 1_555
C10 C11 1_555 1_555
C11 C12 1_555 1_555
C12 N3 1_555 1_555
C13 C10 1_555 1_555
C14 H12 1_555 1_555
H1 O1 1_555 1_555
H2 C5 1_555 1_555
H3 C9 1_555 1_555
H4 C2 1_555 1_555
H5 C3 1_555 1_555
H6 C11 1_555 1_555
H7 C7 1_555 1_555
H8 C12 1_555 1_555
H9 C1 1_555 1_555
H10 C13 1_555 1_555
H11 C8 1_555 1_555
H13 C14 1_555 1_555
H14 C14 1_555 1_555
O1B Mn1 1_555 1_555
C14B O1B 1_555 1_555
H12B C14B 1_555 1_555
H13B C14B 1_555 1_555
H14B C14B 1_555 1_555
H1B O1B 1_555 1_555
N1B Mn1 1_555 1_555
C6B N1B 1_555 1_555
S1B C6B 1_555 1_555
C1B C1 1_555 1_555
C4B C1B 1_555 1_555
C3B C4B 1_555 1_555
C7B C3B 1_555 1_555
N2B C7B 1_555 1_555
Mn1B N2B 1_555 1_555
C2B N2B 1_555 1_555
C5B C4B 1_555 1_555
H2B C5B 1_555 1_555
H4B C2B 1_555 1_555
H7B C7B 1_555 1_555
H5B C3B 1_555 1_555
H9B C1B 1_555 1_555
N2B_2 Mn1 1_555 1_555
C8B C8 1_555 1_555
C10B C8B 1_555 1_555
C11B C10B 1_555 1_555
C12B C11B 1_555 1_555
N3B C12B 1_555 1_555
C9B N3B 1_555 1_555
C13B C10B 1_555 1_555
H10B C13B 1_555 1_555
H3B C9B 1_555 1_555
H8B C12B 1_555 1_555
H6B C11B 1_555 1_555
H11B C8B 1_555 1_555
C3 C7 1_555 1_555
C2B C5B 1_555 1_555
C9B C13B 1_555 1_555

#END
