
#######################################################################
#
#                 Cambridge Crystallographic Data Centre
#                                CCDC 
#
#######################################################################
#
# If this CIF has been generated from an entry in the Cambridge 
# Structural Database, then it will include bibliographic, chemical, 
# crystal, experimental, refinement or atomic coordinate data resulting 
# from the CCDC's data processing and validation procedures.
#
#######################################################################

data_GOXSER
_symmetry_cell_setting           monoclinic
_symmetry_space_group_name_H-M   'P 21/n'
_symmetry_Int_Tables_number      14
_space_group_name_Hall           '-P 2yn'
loop_
_symmetry_equiv_pos_site_id
_symmetry_equiv_pos_as_xyz
1 x,y,z
2 1/2-x,1/2+y,1/2-z
3 -x,-y,-z
4 1/2+x,1/2-y,1/2+z
_cell_length_a                   10.382(4)
_cell_length_b                   13.482(7)
_cell_length_c                   14.038(4)
_cell_angle_alpha                90
_cell_angle_beta                 91.71(3)
_cell_angle_gamma                90
_cell_volume                     1964.03
loop_
_atom_site_label
_atom_site_type_symbol
_atom_site_fract_x
_atom_site_fract_y
_atom_site_fract_z
Mn1 Mn 0.0125(4) 0.2341(1) -0.0825(1)
N1 N 0.017(2) 0.2414(8) -0.2479(6)
N2 N 0.013(2) 0.2218(8) -0.9194(6)
C1 C 0.189(3) 0.436(1) -0.0794(7)
S1 S 0.2763(9) 0.5376(3) -0.0899(3)
C2 C -0.204(3) 0.054(1) -0.0962(8)
S2 S -0.3237(9) -0.0261(3) -0.0984(3)
O1 O -0.158(2) 0.3410(7) -0.0792(6)
C3 C -0.180(2) 0.410(1) -0.1513(9)
O2 O 0.186(2) 0.1331(8) -0.0781(7)
C4 C 0.255(3) 0.096(1) -0.151(1)
C5 C 0.041(2) 0.262(1) -0.5537(8)
N3 N 0.148(3) 0.362(1) -0.0716(8)
C6 C -0.008(2) 0.199(1) -0.615(1)
C7 C 0.113(2) 0.308(1) -0.3895(9)
C8 C 0.000(2) 0.210(1) -0.7196(8)
C9 C -0.025(2) 0.130(1) -0.7767(9)
C10 C -0.066(2) 0.191(1) -0.4025(9)
C11 C -0.025(2) 0.138(1) -0.8745(9)
N4 N -0.124(2) 0.1100(9) -0.0915(8)
C12 C -0.065(2) 0.1871(9) -0.3044(9)
C13 C 0.043(2) 0.298(1) -0.8617(9)
C14 C 0.099(3) 0.300(1) -0.292(1)
C15 C 0.045(2) 0.2935(9) -0.7641(8)
C16 C 0.028(2) 0.2503(9) -0.4468(8)
H1 H 0.076(2) 0.322(1) -0.5773(8)
H2 H -0.041(2) 0.138(1) -0.591(1)
H3 H -0.042(2) 0.067(1) -0.7488(9)
H4 H -0.053(2) 0.083(1) -0.9130(9)
H5 H 0.068(2) 0.359(1) -0.8917(9)
H6 H 0.075(2) 0.3486(9) -0.7263(8)
H7 H -0.126(2) 0.1446(9) -0.2746(9)
H8 H -0.123(2) 0.150(1) -0.4409(9)
H9 H -0.149(2) 0.3739(7) -0.0279(6)
H10 H 0.180(2) 0.348(1) -0.4159(9)
H11 H -0.255(2) 0.449(1) -0.1378(9)
H12 H -0.106(2) 0.453(1) -0.1542(9)
H13 H -0.193(2) 0.377(1) -0.2112(9)
H14 H 0.162(2) 0.0824(8) -0.0474(7)
H15 H 0.145(3) 0.347(1) -0.252(1)
H16 H 0.324(3) 0.054(1) -0.126(1)
H17 H 0.198(3) 0.057(1) -0.191(1)
H18 H 0.291(3) 0.149(1) -0.186(1)
N2_2 N 0.013(2) 0.2218(8) 0.0806(6)
Mn1_2 Mn 0.0125(4) 0.2341(1) -1.0825(1)
loop_
_geom_bond_atom_site_label_1
_geom_bond_atom_site_label_2
_geom_bond_site_symmetry_1
_geom_bond_site_symmetry_2
Mn1 N1 1_555 1_555
N1 C12 1_555 1_555
N2 C11 1_555 1_555
C1 S1 1_555 1_555
C2 S2 1_555 1_555
O1 Mn1 1_555 1_555
C3 O1 1_555 1_555
O2 Mn1 1_555 1_555
C4 O2 1_555 1_555
C5 C6 1_555 1_555
N3 Mn1 1_555 1_555
C6 C8 1_555 1_555
C7 C14 1_555 1_555
C8 C9 1_555 1_555
C9 C11 1_555 1_555
C10 C12 1_555 1_555
C11 H4 1_555 1_555
N4 Mn1 1_555 1_555
C12 H7 1_555 1_555
C13 N2 1_555 1_555
C14 N1 1_555 1_555
C15 C8 1_555 1_555
C16 C5 1_555 1_555
H1 C5 1_555 1_555
H2 C6 1_555 1_555
H3 C9 1_555 1_555
H5 C13 1_555 1_555
H6 C15 1_555 1_555
H8 C10 1_555 1_555
H9 O1 1_555 1_555
H10 C7 1_555 1_555
H11 C3 1_555 1_555
H12 C3 1_555 1_555
H13 C3 1_555 1_555
H14 O2 1_555 1_555
H15 C14 1_555 1_555
H16 C4 1_555 1_555
H17 C4 1_555 1_555
H18 C4 1_555 1_555
N2_2 Mn1 1_555 1_555
Mn1_2 N2 1_555 1_555
C1 N3 1_555 1_555
C2 N4 1_555 1_555
C7 C16 1_555 1_555
C10 C16 1_555 1_555
C13 C15 1_555 1_555

#END
