
#######################################################################
#
#                 Cambridge Crystallographic Data Centre
#                                CCDC 
#
#######################################################################
#
# If this CIF has been generated from an entry in the Cambridge 
# Structural Database, then it will include bibliographic, chemical, 
# crystal, experimental, refinement or atomic coordinate data resulting 
# from the CCDC's data processing and validation procedures.
#
#######################################################################

data_GOXXIC
_symmetry_cell_setting           triclinic
_symmetry_space_group_name_H-M   'P -1'
_symmetry_Int_Tables_number      2
_space_group_name_Hall           '-P 1'
loop_
_symmetry_equiv_pos_site_id
_symmetry_equiv_pos_as_xyz
1 x,y,z
2 -x,-y,-z
_cell_length_a                   10.1126(16)
_cell_length_b                   12.3344(19)
_cell_length_c                   14.390(2)
_cell_angle_alpha                94.368(6)
_cell_angle_beta                 101.891(4)
_cell_angle_gamma                112.023(4)
_cell_volume                     1604.77
loop_
_atom_site_label
_atom_site_type_symbol
_atom_site_fract_x
_atom_site_fract_y
_atom_site_fract_z
Cu1 Cu 0.4292(2) 0.54954(17) 0.44479(12)
Cu2 Cu 0.0474(2) 0.82190(19) 0.14164(13)
Cu3 Cu -0.1654(2) 0.97716(19) 0.22572(13)
Cl1 Cl 0.0865(6) 0.9952(5) 0.2497(4)
O1 O 0.6246(11) 0.6640(10) 0.4406(7)
O2 O 0.4386(11) 0.4429(9) 0.3412(7)
O3 O 0.5578(14) 0.3568(11) 0.4356(7)
O4 O 0.7453(12) 0.5795(11) 0.5368(8)
O5 O 0.4817(12) 0.8862(12) 0.1967(8)
O6 O -0.1480(12) 0.7206(10) 0.1509(8)
O7 O -0.2497(14) 0.8124(11) 0.2386(8)
O8 O 0.1373(14) 0.6900(11) -0.2922(8)
N1 N 0.2964(14) 0.6238(12) 0.3513(9)
N2 N 0.1336(15) 0.7239(13) 0.2363(9)
N3 N 0.2456(14) 0.8777(13) 0.1269(8)
N4 N -0.0206(13) 0.7957(13) -0.0077(9)
N5 N 0.2471(14) 1.0427(12) -0.0756(8)
N6 N 0.1174(14) 0.8571(12) -0.2244(8)
N7 N 0.2321(13) 0.9811(13) -0.3456(9)
N8 N 0.3287(18) 0.8960(15) -0.4897(12)
C1 C 0.069(2) 0.6410(17) 0.2861(13)
H1 H -0.0307 0.6169 0.2822
C2 C 0.1510(19) 0.5901(16) 0.3439(11)
H2 H 0.1043 0.5321 0.3777
C3 C 0.3563(19) 0.7056(15) 0.3010(10)
H3 H 0.4562 0.7297 0.3040
C4 C 0.2762(17) 0.7575(15) 0.2436(10)
C5 C 0.3481(17) 0.8486(16) 0.1865(10)
C6 C 0.2964(16) 0.9663(15) 0.0721(10)
C7 C 0.4282(17) 1.0635(15) 0.1041(11)
H4 H 0.4905 1.0703 0.1636
C8 C 0.469(2) 1.1510(15) 0.0490(11)
H5 H 0.5570 1.2177 0.0710
C9 C 0.0676(15) 0.8493(14) -0.0658(10)
C10 C -0.1450(18) 0.6983(17) -0.0468(12)
H6 H -0.2055 0.6636 -0.0073
C11 C -0.1870(18) 0.6476(18) -0.1425(11)
H7 H -0.2742 0.5807 -0.1671
C12 C -0.2423(17) 0.7215(15) 0.1972(10)
C13 C -0.358(2) 0.6032(16) 0.1966(14)
H8 H -0.3182 0.5440 0.1933
H9 H -0.4398 0.5846 0.1416
H10 H -0.3912 0.6046 0.2544
C14 C 0.3752(19) 1.1371(16) -0.0397(11)
H11 H 0.4024 1.1964 -0.0768
C15 C 0.2049(15) 0.9548(14) -0.0212(9)
C16 C -0.096(2) 0.6983(16) -0.2010(13)
H12 H -0.1204 0.6649 -0.2655
C17 C 0.0299(19) 0.7992(15) -0.1625(11)
C18 C 0.1531(19) 0.7937(16) -0.2861(11)
C19 C 0.2226(18) 0.8674(16) -0.3553(11)
C20 C 0.2715(19) 0.8251(17) -0.4276(13)
H13 H 0.2652 0.7476 -0.4337
C21 C 0.332(2) 1.0021(19) -0.4800(16)
H14 H 0.3669 1.0508 -0.5235
C22 C 0.286(2) 1.0459(17) -0.4073(14)
H15 H 0.2931 1.1237 -0.4023
C23 C 0.7396(18) 0.6558(16) 0.4869(12)
C24 C 0.8875(19) 0.7491(18) 0.4807(14)
H16 H 0.8811 0.7635 0.4156
H17 H 0.9636 0.7206 0.4998
H18 H 0.9105 0.8215 0.5227
C25 C 0.4942(18) 0.3701(15) 0.3554(11)
C26 C 0.489(2) 0.291(2) 0.2698(13)
H19 H 0.4552 0.3177 0.2122
H20 H 0.4224 0.2113 0.2692
H21 H 0.5857 0.2935 0.2729
Cu1A Cu 0.5708(2) 0.45046(17) 0.55521(12)
Cu3A Cu 0.1654(2) 1.02284(19) -0.22572(13)
O3A O 0.4422(14) 0.6432(11) 0.5644(7)
O4A O 0.2547(12) 0.4205(11) 0.4632(8)
N5A N -0.2471(14) 0.9573(12) 0.0756(8)
N6A N -0.1174(14) 1.1429(12) 0.2244(8)
N7A N -0.2321(13) 1.0189(13) 0.3456(9)
O9 O 0.777(2) 0.403(2) 0.1351(13)
H22 H 0.8364 0.4088 0.1854
C27 C 0.849(3) 0.423(2) 0.0591(17)
H23 H 0.9518 0.4725 0.0853
H24 H 0.8054 0.4615 0.0144
H25 H 0.8388 0.3484 0.0265
O10 O 0.879(6) 0.501(4) 0.410(4)
H26 H 0.94(4) 0.48(4) 0.46(4)
H27 H 0.78(3) 0.44(3) 0.39(4)
loop_
_geom_bond_atom_site_label_1
_geom_bond_atom_site_label_2
_geom_bond_site_symmetry_1
_geom_bond_site_symmetry_2
Cu1 O1 1_555 1_555
Cu2 Cl1 1_555 1_555
Cu3 Cl1 1_555 1_555
O1 C23 1_555 1_555
O2 Cu1 1_555 1_555
O3 C25 1_555 1_555
O4 C23 1_555 1_555
O5 C5 1_555 1_555
O6 Cu2 1_555 1_555
O7 Cu3 1_555 1_555
O8 C18 1_555 1_555
N1 Cu1 1_555 1_555
N2 Cu2 1_555 1_555
N3 Cu2 1_555 1_555
N4 Cu2 1_555 1_555
N5 C14 1_555 1_555
N6 C17 1_555 1_555
N7 C19 1_555 1_555
N8 C20 1_555 1_555
C1 N2 1_555 1_555
H1 C1 1_555 1_555
C2 N1 1_555 1_555
H2 C2 1_555 1_555
C3 N1 1_555 1_555
H3 C3 1_555 1_555
C4 N2 1_555 1_555
C5 N3 1_555 1_555
C6 N3 1_555 1_555
C7 C6 1_555 1_555
H4 C7 1_555 1_555
C8 C7 1_555 1_555
H5 C8 1_555 1_555
C9 N4 1_555 1_555
C10 N4 1_555 1_555
H6 C10 1_555 1_555
C11 C10 1_555 1_555
H7 C11 1_555 1_555
C12 O6 1_555 1_555
C13 C12 1_555 1_555
H8 C13 1_555 1_555
H9 C13 1_555 1_555
H10 C13 1_555 1_555
C14 C8 1_555 1_555
H11 C14 1_555 1_555
C15 N5 1_555 1_555
C16 C11 1_555 1_555
H12 C16 1_555 1_555
C17 C9 1_555 1_555
C18 N6 1_555 1_555
C19 C18 1_555 1_555
C20 C19 1_555 1_555
H13 C20 1_555 1_555
C21 N8 1_555 1_555
H14 C21 1_555 1_555
C22 N7 1_555 1_555
H15 C22 1_555 1_555
C23 C24 1_555 1_555
C24 H16 1_555 1_555
H17 C24 1_555 1_555
H18 C24 1_555 1_555
C25 O2 1_555 1_555
C26 C25 1_555 1_555
H19 C26 1_555 1_555
H20 C26 1_555 1_555
H21 C26 1_555 1_555
O9 H22 1_555 1_555
C27 O9 1_555 1_555
H23 C27 1_555 1_555
H24 C27 1_555 1_555
H25 C27 1_555 1_555
O10 H26 1_555 1_555
H27 O10 1_555 1_555
Cu1A Cu1 1_555 1_555
Cu3A N5 1_555 1_555
O3A Cu1 1_555 1_555
O4A Cu1 1_555 1_555
N5A Cu3 1_555 1_555
N6A Cu3 1_555 1_555
N7A Cu3 1_555 1_555
O3 Cu1A 1_555 1_555
O4 Cu1A 1_555 1_555
O7 C12 1_555 1_555
N6 Cu3A 1_555 1_555
N7 Cu3A 1_555 1_555
C1 C2 1_555 1_555
C3 C4 1_555 1_555
C4 C5 1_555 1_555
C6 C15 1_555 1_555
C9 C15 1_555 1_555
C16 C17 1_555 1_555
C21 C22 1_555 1_555

#END
