
#######################################################################
#
#                 Cambridge Crystallographic Data Centre
#                                CCDC 
#
#######################################################################
#
# If this CIF has been generated from an entry in the Cambridge 
# Structural Database, then it will include bibliographic, chemical, 
# crystal, experimental, refinement or atomic coordinate data resulting 
# from the CCDC's data processing and validation procedures.
#
#######################################################################

data_GOXZUQ
_symmetry_cell_setting           triclinic
_symmetry_space_group_name_H-M   'P 1'
_symmetry_Int_Tables_number      1
_space_group_name_Hall           'P 1'
loop_
_symmetry_equiv_pos_site_id
_symmetry_equiv_pos_as_xyz
1 x,y,z
_cell_length_a                   5.2170(12)
_cell_length_b                   15.759(4)
_cell_length_c                   15.870(4)
_cell_angle_alpha                118.034(4)
_cell_angle_beta                 95.106(4)
_cell_angle_gamma                90.313(4)
_cell_volume                     1145.43
loop_
_atom_site_label
_atom_site_type_symbol
_atom_site_fract_x
_atom_site_fract_y
_atom_site_fract_z
Cu1 Cu 0.49717(9) 0.47020(4) 0.48127(4)
N1 N 0.4568(9) 0.4193(3) 0.3359(4)
O1 O 0.9308(7) 0.4873(3) 0.4903(3)
H1 H 0.9905 0.4351 0.4505
H2 H 0.9927 0.5325 0.4820
O2 O 0.4900(8) 0.3394(3) 0.4689(3)
C1 C 0.2815(11) 0.2893(4) 0.4311(4)
C2 C 0.2524(10) 0.1979(3) 0.4401(4)
O3 O 0.1000(7) 0.3078(3) 0.3883(4)
N2 N -0.0311(14) -0.2162(5) -0.2094(7)
O4 O 0.7700(8) -0.3788(3) 0.4341(3)
N3 N 0.5092(9) 0.5197(3) 0.6257(3)
C3 C 0.4341(11) 0.1765(4) 0.4955(4)
H3 H 0.5864 0.2145 0.5219
O5 O 0.4391(8) -0.3996(3) 0.5045(3)
C4 C 0.3893(11) 0.0984(4) 0.5116(4)
H4 H 0.5113 0.0841 0.5488
N4 N 0.9698(19) 1.1264(6) 1.1035(8)
N5 N 0.2474(9) 0.3043(4) -0.0214(3)
H5 H 0.1044 0.3076 0.0029
O6 O 0.0829(7) -0.0247(3) 0.4987(3)
C5 C 0.1669(11) 0.0433(4) 0.4727(4)
O7 O 0.6836(8) 0.3182(4) 0.0061(3)
N6 N 0.0438(10) 0.1177(4) -0.1756(4)
H6 H 0.1952 0.1008 -0.1655
C6 C -0.0097(12) 0.0601(4) 0.4125(5)
H7 H -0.1561 0.0193 0.3825
O8 O -0.3853(9) 0.0820(3) -0.1950(4)
N7 N 0.7215(10) 0.6303(4) 0.9806(4)
H8 H 0.8638 0.6259 0.9556
C7 C 0.0345(11) 0.1384(4) 0.3976(4)
H9 H -0.0851 0.1509 0.3583
N8 N 0.9252(10) 0.8165(4) 1.1280(4)
H10 H 0.7721 0.8325 1.1186
O9 O 0.2876(8) 0.6189(3) 0.9540(3)
C8 C 0.2372(10) -0.0961(3) 0.4982(4)
O10 O 1.3527(9) 0.8524(4) 1.1413(4)
C9 C 0.1428(12) -0.1403(4) 0.5487(4)
H11 H 0.0075 -0.1149 0.5862
C10 C 0.2555(11) -0.2227(4) 0.5419(4)
H12 H 0.1921 -0.2537 0.5737
C11 C 0.4606(10) -0.2589(4) 0.4883(4)
C12 C 0.5582(10) -0.2104(4) 0.4430(4)
H13 H 0.7018 -0.2323 0.4095
C13 C 0.4419(10) -0.1289(4) 0.4477(4)
H14 H 0.5053 -0.0975 0.4163
C14 C 0.5727(10) -0.3528(3) 0.4733(4)
C15 C 0.6174(11) 0.3531(4) 0.2832(4)
H15 H 0.7287 0.3276 0.3136
C16 C 0.6253(11) 0.3211(4) 0.1865(4)
H16 H 0.7471 0.2783 0.1534
C17 C 0.4475(11) 0.3540(4) 0.1391(4)
C18 C 0.2752(12) 0.4190(4) 0.1911(4)
H17 H 0.1526 0.4414 0.1613
C19 C 0.2874(11) 0.4506(4) 0.2897(4)
H18 H 0.1726 0.4956 0.3249
C20 C 0.4693(11) 0.3233(4) 0.0342(4)
C21 C 0.2429(11) 0.2778(5) -0.1244(5)
H19 H 0.4032 0.2469 -0.1473
C22 C 0.2290(13) 0.3672(5) -0.1380(5)
H20 H 0.0767 0.4009 -0.1118
H21 H 0.3787 0.4101 -0.1028
C23 C 0.2189(13) 0.3421(5) -0.2423(5)
H22 H 0.2002 0.4002 -0.2484
H23 H 0.3795 0.3149 -0.2667
C24 C -0.0018(13) 0.2711(5) -0.3013(5)
H24 H 0.0053 0.2525 -0.3686
H25 H -0.1635 0.3012 -0.2825
C25 C 0.0088(13) 0.1824(5) -0.2874(5)
H26 H 0.1600 0.1482 -0.3138
H27 H -0.1418 0.1401 -0.3227
C26 C 0.0186(12) 0.2062(4) -0.1818(4)
H28 H -0.1423 0.2348 -0.1568
C27 C -0.1615(12) 0.0614(4) -0.1851(5)
C28 C -0.1078(12) -0.0354(5) -0.1923(5)
C29 C -0.2816(14) -0.1116(5) -0.2491(5)
H29 H -0.4279 -0.1037 -0.2822
C30 C -0.2309(16) -0.2002(5) -0.2551(7)
H30 H -0.3463 -0.2520 -0.2942
C31 C 0.1314(17) -0.1420(7) -0.1554(9)
H31 H 0.2724 -0.1518 -0.1214
C32 C 0.1070(15) -0.0509(6) -0.1457(7)
H32 H 0.2314 -0.0017 -0.1089
C33 C 0.6912(12) 0.4915(5) 0.6714(5)
H33 H 0.8115 0.4494 0.6361
C34 C 0.7048(12) 0.5229(5) 0.7686(5)
H34 H 0.8369 0.5045 0.7989
C35 C 0.5198(11) 0.5822(4) 0.8206(4)
C36 C 0.3347(12) 0.6106(4) 0.7739(5)
H35 H 0.2081 0.6505 0.8071
C37 C 0.3381(12) 0.5793(4) 0.6765(4)
H36 H 0.2157 0.6008 0.6457
C38 C 0.5005(11) 0.6123(4) 0.9252(4)
C39 C 0.7316(11) 0.6575(4) 1.0828(4)
H37 H 0.5713 0.6879 1.1064
C40 C 0.7508(13) 0.5684(5) 1.0974(5)
H38 H 0.8984 0.5335 1.0680
H39 H 0.5976 0.5263 1.0655
C41 C 0.7782(12) 0.5945(5) 1.2042(5)
H40 H 0.6232 0.6234 1.2325
H41 H 0.7999 0.5366 1.2105
C42 C 1.0103(12) 0.6647(5) 1.2569(5)
H42 H 1.1667 0.6342 1.2314
H43 H 1.0233 0.6824 1.3245
C43 C 0.9815(13) 0.7552(5) 1.2446(5)
H44 H 0.8306 0.7877 1.2736
H45 H 1.1312 0.7990 1.2773
C44 C 0.9547(11) 0.7297(4) 1.1394(4)
H46 H 1.1135 0.7006 1.1126
C45 C 1.1253(13) 0.8718(5) 1.1317(5)
C46 C 1.0633(13) 0.9595(5) 1.1218(6)
C47 C 1.2305(16) 1.0386(5) 1.1647(7)
H47 H 1.3815 1.0376 1.2001
C48 C 1.177(2) 1.1206(6) 1.1557(9)
H48 H 1.2916 1.1741 1.1879
C49 C 0.805(2) 1.0491(8) 1.0620(10)
H49 H 0.6585 1.0509 1.0253
C50 C 0.8419(17) 0.9662(7) 1.0707(8)
H50 H 0.7181 0.9154 1.0423
Cu1_2 Cu 0.49717(9) -0.52980(4) 0.48127(4)
O5_2 O 0.4391(8) 0.6004(3) 0.5045(3)
loop_
_geom_bond_atom_site_label_1
_geom_bond_atom_site_label_2
_geom_bond_site_symmetry_1
_geom_bond_site_symmetry_2
Cu1 N1 1_555 1_555
N1 C15 1_555 1_555
O1 Cu1 1_555 1_555
H1 O1 1_555 1_555
H2 O1 1_555 1_555
O2 Cu1 1_555 1_555
C1 O2 1_555 1_555
C2 C1 1_555 1_555
O3 C1 1_555 1_555
N2 C30 1_555 1_555
O4 C14 1_555 1_555
N3 Cu1 1_555 1_555
C3 C2 1_555 1_555
H3 C3 1_555 1_555
O5 C14 1_555 1_555
C4 C3 1_555 1_555
H4 C4 1_555 1_555
N4 C48 1_555 1_555
N5 H5 1_555 1_555
O6 C5 1_555 1_555
C5 C4 1_555 1_555
O7 C20 1_555 1_555
N6 H6 1_555 1_555
C6 C5 1_555 1_555
H7 C6 1_555 1_555
O8 C27 1_555 1_555
N7 H8 1_555 1_555
C7 C2 1_555 1_555
H9 C7 1_555 1_555
N8 H10 1_555 1_555
O9 C38 1_555 1_555
C8 O6 1_555 1_555
O10 C45 1_555 1_555
C9 C8 1_555 1_555
H11 C9 1_555 1_555
C10 C9 1_555 1_555
H12 C10 1_555 1_555
C11 C10 1_555 1_555
C12 C11 1_555 1_555
H13 C12 1_555 1_555
C13 C8 1_555 1_555
H14 C13 1_555 1_555
C14 C11 1_555 1_555
C15 H15 1_555 1_555
C16 C15 1_555 1_555
H16 C16 1_555 1_555
C17 C16 1_555 1_555
C18 C17 1_555 1_555
H17 C18 1_555 1_555
C19 N1 1_555 1_555
H18 C19 1_555 1_555
C20 N5 1_555 1_555
C21 N5 1_555 1_555
H19 C21 1_555 1_555
C22 C21 1_555 1_555
H20 C22 1_555 1_555
H21 C22 1_555 1_555
C23 C22 1_555 1_555
H22 C23 1_555 1_555
H23 C23 1_555 1_555
C24 C23 1_555 1_555
H24 C24 1_555 1_555
H25 C24 1_555 1_555
C25 C24 1_555 1_555
H26 C25 1_555 1_555
H27 C25 1_555 1_555
C26 N6 1_555 1_555
H28 C26 1_555 1_555
C27 N6 1_555 1_555
C28 C27 1_555 1_555
C29 C28 1_555 1_555
H29 C29 1_555 1_555
C30 C29 1_555 1_555
H30 C30 1_555 1_555
C31 N2 1_555 1_555
H31 C31 1_555 1_555
C32 C28 1_555 1_555
H32 C32 1_555 1_555
C33 N3 1_555 1_555
H33 C33 1_555 1_555
C34 C33 1_555 1_555
H34 C34 1_555 1_555
C35 C34 1_555 1_555
C36 C35 1_555 1_555
H35 C36 1_555 1_555
C37 N3 1_555 1_555
H36 C37 1_555 1_555
C38 N7 1_555 1_555
C39 N7 1_555 1_555
H37 C39 1_555 1_555
C40 C39 1_555 1_555
H38 C40 1_555 1_555
H39 C40 1_555 1_555
C41 C40 1_555 1_555
H40 C41 1_555 1_555
H41 C41 1_555 1_555
C42 C41 1_555 1_555
H42 C42 1_555 1_555
H43 C42 1_555 1_555
C43 C42 1_555 1_555
H44 C43 1_555 1_555
H45 C43 1_555 1_555
C44 N8 1_555 1_555
H46 C44 1_555 1_555
C45 N8 1_555 1_555
C46 C45 1_555 1_555
C47 C46 1_555 1_555
H47 C47 1_555 1_555
C48 C47 1_555 1_555
H48 C48 1_555 1_555
C49 N4 1_555 1_555
H49 C49 1_555 1_555
C50 C46 1_555 1_555
H50 C50 1_555 1_555
Cu1_2 O5 1_555 1_555
O5_2 Cu1 1_555 1_555
C6 C7 1_555 1_555
C12 C13 1_555 1_555
C17 C20 1_555 1_555
C18 C19 1_555 1_555
C21 C26 1_555 1_555
C25 C26 1_555 1_555
C31 C32 1_555 1_555
C35 C38 1_555 1_555
C36 C37 1_555 1_555
C39 C44 1_555 1_555
C43 C44 1_555 1_555
C49 C50 1_555 1_555

#END
