
#######################################################################
#
#                 Cambridge Crystallographic Data Centre
#                                CCDC 
#
#######################################################################
#
# If this CIF has been generated from an entry in the Cambridge 
# Structural Database, then it will include bibliographic, chemical, 
# crystal, experimental, refinement or atomic coordinate data resulting 
# from the CCDC's data processing and validation procedures.
#
#######################################################################

data_GOXZOK
_symmetry_cell_setting           monoclinic
_symmetry_space_group_name_H-M   'C 2/m'
_symmetry_Int_Tables_number      12
_space_group_name_Hall           '-C 2y'
loop_
_symmetry_equiv_pos_site_id
_symmetry_equiv_pos_as_xyz
1 x,y,z
2 -x,y,-z
3 1/2+x,1/2+y,z
4 1/2-x,1/2+y,-z
5 -x,-y,-z
6 x,-y,z
7 1/2-x,1/2-y,-z
8 1/2+x,1/2-y,z
_cell_length_a                   16.5382(14)
_cell_length_b                   29.639(3)
_cell_length_c                   10.0978(9)
_cell_angle_alpha                90
_cell_angle_beta                 125.1430(10)
_cell_angle_gamma                90
_cell_volume                     4047.46
loop_
_atom_site_label
_atom_site_type_symbol
_atom_site_fract_x
_atom_site_fract_y
_atom_site_fract_z
Cu1 Cu 0.13330(6) 0.0000 0.71842(12)
Cl1 Cl 0.06020(13) 0.0000 0.8933(2)
O1 O 0.0000 0.03356(14) 0.5000
N1 N 0.2043(3) 0.05895(12) 0.7947(5)
C1 C 0.1697(4) 0.09118(14) 0.8418(6)
H1 H 0.1105 0.0861 0.8303
Cu2 Cu -0.09926(6) 0.0000 0.83005(12)
O2 O 0.3589(2) 0.19915(11) 1.1148(4)
N2 N -0.1759(3) -0.05782(11) 0.7319(4)
C2 C 0.2170(3) 0.13141(14) 0.9061(6)
H2 H 0.1911 0.1523 0.9408
O3 O -0.3636(3) -0.18987(12) 0.3769(4)
N3 N 0.3983(2) 0.20494(10) 0.9349(4)
H3 H 0.3916 0.1935 0.8507
C3 C 0.3030(3) 0.14109(13) 0.9197(5)
N4 N -0.3967(2) -0.19625(11) 0.5645(4)
H4 H -0.3889 -0.1849 0.6494
C4 C 0.3375(4) 0.10877(15) 0.8653(7)
H5 H 0.3939 0.1141 0.8680
C5 C 0.2872(4) 0.06863(16) 0.8070(8)
H6 H 0.3126 0.0468 0.7741
C6 C 0.3555(3) 0.18416(14) 0.9984(5)
C7 C 0.4553(3) 0.24589(12) 1.0043(5)
H7 H 0.4798 0.2469 1.1187
C8 C 0.3927(3) 0.28834(13) 0.9214(6)
H8 H 0.3669 0.2879 0.8075
H9 H 0.3371 0.2885 0.9296
C9 C 0.4544(3) 0.33098(13) 0.9998(5)
H10 H 0.4145 0.3572 0.9412
H11 H 0.4738 0.3331 1.1104
C10 C -0.2414(4) -0.07159(15) 0.7606(6)
H12 H -0.2483 -0.0544 0.8306
C11 C -0.2990(4) -0.10927(15) 0.6940(6)
H13 H -0.3426 -0.1173 0.7202
C12 C -0.2921(3) -0.13541(14) 0.5875(5)
C13 C -0.2230(3) -0.12168(15) 0.5586(6)
H14 H -0.2144 -0.1383 0.4894
C14 C -0.1679(3) -0.08383(15) 0.6316(6)
H15 H -0.1220 -0.0756 0.6106
C15 C -0.3530(3) -0.17632(14) 0.5007(5)
C16 C -0.4568(3) -0.23675(13) 0.4916(5)
H16 H -0.4840 -0.2367 0.3760
C17 C -0.3942(3) -0.27953(14) 0.5680(6)
H17 H -0.3417 -0.2798 0.5520
H18 H -0.3639 -0.2793 0.6836
C18 C -0.4566(3) -0.32219(14) 0.4941(6)
H19 H -0.4806 -0.3243 0.3812
H20 H -0.4158 -0.3484 0.5499
N1A N 0.7957(3) 0.05895(12) 1.2053(5)
C1A C 0.8303(4) 0.09118(14) 1.1582(6)
H1A H 0.8895 0.0861 1.1697
O2A O 0.6411(2) 0.19915(11) 0.8852(4)
C2A C 0.7830(3) 0.13141(14) 1.0939(6)
H2A H 0.8089 0.1523 1.0592
N3A N 0.6017(2) 0.20494(10) 1.0651(4)
H3A H 0.6084 0.1935 1.1493
C3A C 0.6970(3) 0.14109(13) 1.0803(5)
C4A C 0.6625(4) 0.10877(15) 1.1347(7)
H5A H 0.6061 0.1141 1.1320
C5A C 0.7128(4) 0.06863(16) 1.1930(8)
H6A H 0.6874 0.0468 1.2259
C6A C 0.6445(3) 0.18416(14) 1.0016(5)
C7A C 0.5447(3) 0.24589(12) 0.9957(5)
H7A H 0.5202 0.2469 0.8813
C8A C 0.6073(3) 0.28834(13) 1.0786(6)
H8A H 0.6331 0.2879 1.1925
H9A H 0.6629 0.2885 1.0704
C9A C 0.5456(3) 0.33098(13) 1.0002(5)
H10A H 0.5855 0.3572 1.0588
H11A H 0.5262 0.3331 0.8896
N2A N -0.8241(3) -0.05782(11) 0.2681(4)
O3A O -0.6364(3) -0.18987(12) 0.6231(4)
N4A N -0.6033(2) -0.19625(11) 0.4355(4)
H4A H -0.6111 -0.1849 0.3506
C10A C -0.7586(4) -0.07159(15) 0.2394(6)
H12A H -0.7517 -0.0544 0.1694
C11A C -0.7010(4) -0.10927(15) 0.3060(6)
H13A H -0.6574 -0.1173 0.2798
C12A C -0.7079(3) -0.13541(14) 0.4125(5)
C13A C -0.7770(3) -0.12168(15) 0.4414(6)
H14A H -0.7856 -0.1383 0.5106
C14A C -0.8321(3) -0.08383(15) 0.3684(6)
H15A H -0.8780 -0.0756 0.3894
C15A C -0.6470(3) -0.17632(14) 0.4993(5)
C16A C -0.5432(3) -0.23675(13) 0.5084(5)
H16A H -0.5160 -0.2367 0.6240
C17A C -0.6058(3) -0.27953(14) 0.4320(6)
H17A H -0.6583 -0.2798 0.4480
H18A H -0.6361 -0.2793 0.3164
C18A C -0.5434(3) -0.32219(14) 0.5059(6)
H19A H -0.5194 -0.3243 0.6188
H20A H -0.5842 -0.3484 0.4501
Cu1A Cu -0.13330(6) 0.0000 0.28158(12)
Cu1A_2 Cu 0.86670(6) 0.0000 1.28158(12)
Cl1A Cl -0.06020(13) 0.0000 1.1067(2)
O1D O 0.0000 -0.03356(14) 0.5000
N1E N 0.2043(3) -0.05895(12) 0.7947(5)
Cu2A Cu -0.90074(6) 0.0000 0.16995(12)
Cu2A_2 Cu 0.09926(6) 0.0000 1.16995(12)
N2E N -0.1759(3) 0.05782(11) 0.7319(4)
loop_
_geom_bond_atom_site_label_1
_geom_bond_atom_site_label_2
_geom_bond_site_symmetry_1
_geom_bond_site_symmetry_2
Cu1 Cl1 1_555 1_555
Cl1 Cu2 1_555 1_555
O1 Cu1 1_555 1_555
N1 Cu1 1_555 1_555
C1 N1 1_555 1_555
H1 C1 1_555 1_555
Cu2 N2 1_555 1_555
O2 C6 1_555 1_555
N2 C10 1_555 1_555
C2 C1 1_555 1_555
H2 C2 1_555 1_555
O3 C15 1_555 1_555
N3 H3 1_555 1_555
C3 C2 1_555 1_555
N4 H4 1_555 1_555
C4 C3 1_555 1_555
H5 C4 1_555 1_555
C5 N1 1_555 1_555
H6 C5 1_555 1_555
C6 N3 1_555 1_555
C7 N3 1_555 1_555
H7 C7 1_555 1_555
C8 C7 1_555 1_555
H8 C8 1_555 1_555
H9 C8 1_555 1_555
C9 C8 1_555 1_555
H10 C9 1_555 1_555
H11 C9 1_555 1_555
C10 H12 1_555 1_555
C11 C10 1_555 1_555
H13 C11 1_555 1_555
C12 C11 1_555 1_555
C13 C12 1_555 1_555
H14 C13 1_555 1_555
C14 N2 1_555 1_555
H15 C14 1_555 1_555
C15 N4 1_555 1_555
C16 N4 1_555 1_555
H16 C16 1_555 1_555
C17 C16 1_555 1_555
H17 C17 1_555 1_555
H18 C17 1_555 1_555
C18 C17 1_555 1_555
H19 C18 1_555 1_555
H20 C18 1_555 1_555
N1A C1A 1_555 1_555
C1A H1A 1_555 1_555
O2A C6A 1_555 1_555
C2A C1A 1_555 1_555
H2A C2A 1_555 1_555
N3A H3A 1_555 1_555
C3A C2A 1_555 1_555
C4A C3A 1_555 1_555
H5A C4A 1_555 1_555
C5A N1A 1_555 1_555
H6A C5A 1_555 1_555
C6A N3A 1_555 1_555
C7A C7 1_555 1_555
H7A C7A 1_555 1_555
C8A C7A 1_555 1_555
H8A C8A 1_555 1_555
H9A C8A 1_555 1_555
C9A C9 1_555 1_555
H10A C9A 1_555 1_555
H11A C9A 1_555 1_555
N2A C10A 1_555 1_555
O3A C15A 1_555 1_555
N4A H4A 1_555 1_555
C10A H12A 1_555 1_555
C11A C10A 1_555 1_555
H13A C11A 1_555 1_555
C12A C11A 1_555 1_555
C13A C12A 1_555 1_555
H14A C13A 1_555 1_555
C14A N2A 1_555 1_555
H15A C14A 1_555 1_555
C15A N4A 1_555 1_555
C16A C16 1_555 1_555
H16A C16A 1_555 1_555
C17A C16A 1_555 1_555
H17A C17A 1_555 1_555
H18A C17A 1_555 1_555
C18A C18 1_555 1_555
H19A C18A 1_555 1_555
H20A C18A 1_555 1_555
Cu1A O1 1_555 1_555
Cu1A_2 N1A 1_555 1_555
Cl1A Cu2 1_555 1_555
O1D Cu1 1_555 1_555
N1E Cu1 1_555 1_555
Cu2A N2A 1_555 1_555
Cu2A_2 Cl1 1_555 1_555
N2E Cu2 1_555 1_555
C3 C6 1_555 1_555
C4 C5 1_555 1_555
C12 C15 1_555 1_555
C13 C14 1_555 1_555
N3A C7A 1_555 1_555
C3A C6A 1_555 1_555
C4A C5A 1_555 1_555
C8A C9A 1_555 1_555
N4A C16A 1_555 1_555
C12A C15A 1_555 1_555
C13A C14A 1_555 1_555
C17A C18A 1_555 1_555
Cu1A O1D 1_555 1_555
Cl1A Cu2A_2 1_555 1_555

#END
