
#######################################################################
#
#                 Cambridge Crystallographic Data Centre
#                                CCDC 
#
#######################################################################
#
# If this CIF has been generated from an entry in the Cambridge 
# Structural Database, then it will include bibliographic, chemical, 
# crystal, experimental, refinement or atomic coordinate data resulting 
# from the CCDC's data processing and validation procedures.
#
#######################################################################

data_GOYDUV
_symmetry_cell_setting           monoclinic
_symmetry_space_group_name_H-M   'P 21/c'
_symmetry_Int_Tables_number      14
_space_group_name_Hall           '-P 2ybc'
loop_
_symmetry_equiv_pos_site_id
_symmetry_equiv_pos_as_xyz
1 x,y,z
2 -x,1/2+y,1/2-z
3 -x,-y,-z
4 x,1/2-y,1/2+z
_cell_length_a                   8.577(2)
_cell_length_b                   25.656(7)
_cell_length_c                   13.513(3)
_cell_angle_alpha                90
_cell_angle_beta                 91.555(3)
_cell_angle_gamma                90
_cell_volume                     2972.46
loop_
_atom_site_label
_atom_site_type_symbol
_atom_site_fract_x
_atom_site_fract_y
_atom_site_fract_z
Br1 Br 0.15516(9) 0.68688(3) 0.56353(6)
Cu1 Cu 0.36654(9) 0.70228(2) 0.67649(5)
Cu2 Cu 0.0000 0.5000 1.5000
Br2 Br 0.63690(9) 0.69841(3) 0.72549(6)
Br3 Br 0.27590(10) 0.51141(4) 1.50905(6)
S1 S 0.1330(2) 0.68773(7) 0.85069(15)
S2 S -0.0661(3) 0.57725(8) 1.31779(15)
C1 C 0.3004(7) 0.50093(19) 0.9238(4)
N1 N 0.2284(6) 0.58974(17) 0.8832(3)
N2 N 0.0855(6) 0.51345(17) 1.1965(3)
N3 N 0.5105(6) 0.36113(17) 0.8442(3)
C2 C 0.2263(7) 0.4624(2) 1.0791(4)
C3 C 0.3047(7) 0.5468(2) 0.8552(4)
N4 N 0.0191(7) 0.48205(19) 1.3560(4)
C4 C 0.4960(7) 0.3248(2) 1.0046(4)
H1 H 0.4726 0.3279 1.0711
C5 C 0.3808(7) 0.4553(2) 0.9008(4)
H2 H 0.4325 0.4530 0.8413
C6 C 0.3081(6) 0.4177(2) 1.0547(4)
H3 H 0.3119 0.3901 1.0991
C7 C 0.4678(7) 0.3649(2) 0.9388(4)
C8 C 0.3844(7) 0.4132(2) 0.9657(4)
C9 C 0.1332(7) 0.4256(2) 1.2407(4)
H4 H 0.1655 0.3923 1.2233
C10 C 0.1456(7) 0.4673(2) 1.1749(4)
C11 C 0.2374(7) 0.6317(2) 0.8259(4)
N5 N 0.3262(6) 0.63525(18) 0.7450(4)
C12 C 0.0241(8) 0.5186(2) 1.2847(5)
C13 C 0.3832(8) 0.5461(2) 0.7673(4)
H5 H 0.4261 0.5153 0.7438
C14 C 0.2222(7) 0.5042(2) 1.0114(4)
H6 H 0.1664 0.5342 1.0259
C15 C 0.3964(8) 0.5916(2) 0.7156(5)
H7 H 0.4555 0.5922 0.6589
C16 C 0.0725(8) 0.4350(2) 1.3308(4)
H8 H 0.0679 0.4080 1.3764
C17 C 0.0369(9) 0.6724(3) 0.9637(5)
H9 H 0.0032 0.6363 0.9630
H10 H 0.1077 0.6775 1.0200
C18 C -0.0149(10) 0.6205(3) 1.2211(5)
H11 H 0.0968 0.6196 1.2120
H12 H -0.0668 0.6102 1.1595
C19 C -0.1020(9) 0.7080(3) 0.9711(6)
H13 H -0.1743 0.7012 0.9172
H14 H -0.0680 0.7436 0.9682
H15 H -0.1521 0.7020 1.0327
C20 C -0.0659(12) 0.6755(3) 1.2501(7)
H16 H -0.1776 0.6768 1.2526
H17 H -0.0307 0.7000 1.2019
H18 H -0.0214 0.6842 1.3139
S3 S 0.6431(3) 0.31065(7) 0.69510(13)
C21 C 0.5603(7) 0.2800(2) 0.9677(4)
H19 H 0.5799 0.2524 1.0107
C22 C 0.5734(8) 0.3173(2) 0.8151(4)
C23 C 0.5946(12) 0.3725(3) 0.6380(6)
H20 H 0.5961 0.3996 0.6882
H21 H 0.6723 0.3811 0.5898
C24 C 0.4527(13) 0.3710(4) 0.5930(8)
H22 H 0.3743 0.3671 0.6418
H23 H 0.4476 0.3420 0.5481
H24 H 0.4349 0.4028 0.5569
N6 N 0.5958(6) 0.27456(17) 0.8729(3)
Br1B Br -0.15516(9) 0.31312(3) 2.43647(6)
Cu1B Cu -0.36654(9) 0.29772(2) 2.32351(5)
Br2B Br -0.63690(9) 0.30159(3) 2.27451(6)
Br3B Br -0.27590(10) 0.48859(4) 1.49095(6)
S1B S -0.1330(2) 0.31227(7) 2.14931(15)
S2B S 0.0661(3) 0.42275(8) 1.68221(15)
C1B C -0.3004(7) 0.49907(19) 2.0762(4)
N1B N -0.2284(6) 0.41026(17) 2.1168(3)
N2B N -0.0855(6) 0.48655(17) 1.8035(3)
N3B N -0.5105(6) 0.63887(17) 2.1558(3)
C2B C -0.2263(7) 0.5376(2) 1.9209(4)
C3B C -0.3047(7) 0.4532(2) 2.1448(4)
N4B N -0.0191(7) 0.51795(19) 1.6440(4)
C4B C -0.4960(7) 0.6752(2) 1.9954(4)
H1B H -0.4726 0.6721 1.9289
C5B C -0.3808(7) 0.5447(2) 2.0992(4)
H2B H -0.4325 0.5470 2.1587
C6B C -0.3081(6) 0.5823(2) 1.9453(4)
H3B H -0.3119 0.6099 1.9009
C7B C -0.4678(7) 0.6351(2) 2.0612(4)
C8B C -0.3844(7) 0.5868(2) 2.0343(4)
C9B C -0.1332(7) 0.5744(2) 1.7593(4)
H4B H -0.1655 0.6077 1.7767
C10B C -0.1456(7) 0.5327(2) 1.8251(4)
C11B C -0.2374(7) 0.3683(2) 2.1741(4)
N5B N -0.3262(6) 0.36475(18) 2.2550(4)
C12B C -0.0241(8) 0.4814(2) 1.7153(5)
C13B C -0.3832(8) 0.4539(2) 2.2327(4)
H5B H -0.4261 0.4847 2.2562
C14B C -0.2222(7) 0.4958(2) 1.9886(4)
H6B H -0.1664 0.4658 1.9741
C15B C -0.3964(8) 0.4084(2) 2.2844(5)
H7B H -0.4555 0.4078 2.3411
C16B C -0.0725(8) 0.5650(2) 1.6692(4)
H8B H -0.0679 0.5920 1.6236
C17B C -0.0369(9) 0.3276(3) 2.0363(5)
H9B H -0.0032 0.3637 2.0370
H10B H -0.1077 0.3225 1.9800
C18B C 0.0149(10) 0.3795(3) 1.7789(5)
H11B H -0.0968 0.3804 1.7880
H12B H 0.0668 0.3898 1.8405
C19B C 0.1020(9) 0.2920(3) 2.0289(6)
H13B H 0.1743 0.2988 2.0828
H14B H 0.0680 0.2564 2.0318
H15B H 0.1521 0.2980 1.9673
C20B C 0.0659(12) 0.3245(3) 1.7499(7)
H16B H 0.1776 0.3232 1.7474
H17B H 0.0307 0.3000 1.7981
H18B H 0.0214 0.3158 1.6861
S3B S -0.6431(3) 0.68935(7) 2.30490(13)
C21B C -0.5603(7) 0.7200(2) 2.0323(4)
H19B H -0.5799 0.7476 1.9893
C22B C -0.5734(8) 0.6827(2) 2.1849(4)
C23B C -0.5946(12) 0.6275(3) 2.3620(6)
H20B H -0.5961 0.6004 2.3118
H21B H -0.6723 0.6189 2.4102
C24B C -0.4527(13) 0.6290(4) 2.4070(8)
H22B H -0.3743 0.6329 2.3582
H23B H -0.4476 0.6580 2.4519
H24B H -0.4349 0.5972 2.4431
N6B N -0.5958(6) 0.72544(17) 2.1271(3)
Cu1A Cu 0.63346(9) 0.20228(2) 0.82351(5)
Cu1C Cu -0.63346(9) 0.79772(2) 2.17649(5)
N6A N 0.4042(6) 0.77456(17) 0.6271(3)
N6C N -0.4042(6) 0.22544(17) 2.3729(3)
loop_
_geom_bond_atom_site_label_1
_geom_bond_atom_site_label_2
_geom_bond_site_symmetry_1
_geom_bond_site_symmetry_2
Br1 Cu1 1_555 1_555
Cu1 Br2 1_555 1_555
Cu2 Br3 1_555 1_555
S1 C11 1_555 1_555
S2 C12 1_555 1_555
C1 C3 1_555 1_555
N1 C3 1_555 1_555
N2 C10 1_555 1_555
N3 C7 1_555 1_555
C2 C6 1_555 1_555
C3 C13 1_555 1_555
N4 Cu2 1_555 1_555
C4 H1 1_555 1_555
C5 C1 1_555 1_555
H2 C5 1_555 1_555
C6 H3 1_555 1_555
C7 C4 1_555 1_555
C8 C5 1_555 1_555
C9 H4 1_555 1_555
C10 C2 1_555 1_555
C11 N1 1_555 1_555
N5 Cu1 1_555 1_555
C12 N2 1_555 1_555
C13 H5 1_555 1_555
C14 C1 1_555 1_555
H6 C14 1_555 1_555
C15 N5 1_555 1_555
H7 C15 1_555 1_555
C16 N4 1_555 1_555
H8 C16 1_555 1_555
C17 S1 1_555 1_555
H9 C17 1_555 1_555
H10 C17 1_555 1_555
C18 S2 1_555 1_555
H11 C18 1_555 1_555
H12 C18 1_555 1_555
C19 C17 1_555 1_555
H13 C19 1_555 1_555
H14 C19 1_555 1_555
H15 C19 1_555 1_555
C20 C18 1_555 1_555
H16 C20 1_555 1_555
H17 C20 1_555 1_555
H18 C20 1_555 1_555
S3 C22 1_555 1_555
C21 C4 1_555 1_555
H19 C21 1_555 1_555
C22 N3 1_555 1_555
C23 S3 1_555 1_555
H20 C23 1_555 1_555
H21 C23 1_555 1_555
C24 C23 1_555 1_555
H22 C24 1_555 1_555
H23 C24 1_555 1_555
H24 C24 1_555 1_555
N6 C21 1_555 1_555
Br1B Cu1B 1_555 1_555
Cu1B Br2B 1_555 1_555
Br3B Cu2 1_555 1_555
S1B C11B 1_555 1_555
S2B C12B 1_555 1_555
C1B C3B 1_555 1_555
N1B C3B 1_555 1_555
N2B C10B 1_555 1_555
N3B C7B 1_555 1_555
C2B C6B 1_555 1_555
C3B C13B 1_555 1_555
N4B Cu2 1_555 1_555
C4B H1B 1_555 1_555
C5B C1B 1_555 1_555
H2B C5B 1_555 1_555
C6B H3B 1_555 1_555
C7B C4B 1_555 1_555
C8B C5B 1_555 1_555
C9B H4B 1_555 1_555
C10B C2B 1_555 1_555
C11B N1B 1_555 1_555
N5B Cu1B 1_555 1_555
C12B N2B 1_555 1_555
C13B H5B 1_555 1_555
C14B C1B 1_555 1_555
H6B C14B 1_555 1_555
C15B N5B 1_555 1_555
H7B C15B 1_555 1_555
C16B N4B 1_555 1_555
H8B C16B 1_555 1_555
C17B S1B 1_555 1_555
H9B C17B 1_555 1_555
H10B C17B 1_555 1_555
C18B S2B 1_555 1_555
H11B C18B 1_555 1_555
H12B C18B 1_555 1_555
C19B C17B 1_555 1_555
H13B C19B 1_555 1_555
H14B C19B 1_555 1_555
H15B C19B 1_555 1_555
C20B C18B 1_555 1_555
H16B C20B 1_555 1_555
H17B C20B 1_555 1_555
H18B C20B 1_555 1_555
S3B C22B 1_555 1_555
C21B C4B 1_555 1_555
H19B C21B 1_555 1_555
C22B N3B 1_555 1_555
C23B S3B 1_555 1_555
H20B C23B 1_555 1_555
H21B C23B 1_555 1_555
C24B C23B 1_555 1_555
H22B C24B 1_555 1_555
H23B C24B 1_555 1_555
H24B C24B 1_555 1_555
N6B C21B 1_555 1_555
Cu1A N6 1_555 1_555
Cu1C N6B 1_555 1_555
N6A Cu1 1_555 1_555
N6C Cu1B 1_555 1_555
C2 C14 1_555 1_555
N4 C12 1_555 1_555
C6 C8 1_555 1_555
C7 C8 1_555 1_555
C9 C10 1_555 1_555
C9 C16 1_555 1_555
C11 N5 1_555 1_555
C13 C15 1_555 1_555
C22 N6 1_555 1_555
C2B C14B 1_555 1_555
N4B C12B 1_555 1_555
C6B C8B 1_555 1_555
C7B C8B 1_555 1_555
C9B C10B 1_555 1_555
C9B C16B 1_555 1_555
C11B N5B 1_555 1_555
C13B C15B 1_555 1_555
C22B N6B 1_555 1_555

#END
