
#######################################################################
#
#                 Cambridge Crystallographic Data Centre
#                                CCDC 
#
#######################################################################
#
# If this CIF has been generated from an entry in the Cambridge 
# Structural Database, then it will include bibliographic, chemical, 
# crystal, experimental, refinement or atomic coordinate data resulting 
# from the CCDC's data processing and validation procedures.
#
#######################################################################

data_GOYJAF
_symmetry_cell_setting           monoclinic
_symmetry_space_group_name_H-M   'C 2/c'
_symmetry_Int_Tables_number      15
_space_group_name_Hall           '-C 2yn'
loop_
_symmetry_equiv_pos_site_id
_symmetry_equiv_pos_as_xyz
1 x,y,z
2 1/2+x,1/2+y,z
3 x,-y,1/2+z
4 1/2+x,1/2-y,1/2+z
5 -x,-y,-z
6 1/2-x,1/2-y,-z
7 -x,y,1/2-z
8 1/2-x,1/2+y,1/2-z
_cell_length_a                   20.802(9)
_cell_length_b                   11.124(4)
_cell_length_c                   20.806(9)
_cell_angle_alpha                90
_cell_angle_beta                 119.27(4)
_cell_angle_gamma                90
_cell_volume                     4199.84
loop_
_atom_site_label
_atom_site_type_symbol
_atom_site_fract_x
_atom_site_fract_y
_atom_site_fract_z
Co1 Co 0.71781(4) 0.88374(7) 0.84279(5)
N1 N 0.6244(3) 0.9897(5) 0.7667(3)
C1 C 0.6236(4) 1.1093(7) 0.7675(4)
H1 H 0.6648 1.1505 0.8052
C2 C 0.5644(4) 1.1766(7) 0.7149(4)
H2 H 0.5656 1.2620 0.7167
C3 C 0.5037(4) 1.1167(8) 0.6598(4)
C4 C 0.5035(4) 0.9947(8) 0.6592(4)
H3 H 0.4626 0.9511 0.6229
C5 C 0.5643(3) 0.9360(7) 0.7128(4)
H4 H 0.5638 0.8507 0.7115
N2 N 0.4403(4) 1.1735(7) 0.5950(4)
N3 N 0.6254(3) 0.7659(6) 0.8732(3)
O1 O 0.6422(3) 0.7356(4) 0.8237(3)
O2 O 0.6606(3) 0.8535(5) 0.9131(3)
O3 O 0.5770(3) 0.7145(6) 0.8794(4)
N4 N 0.7560(3) 0.8691(5) 0.7359(3)
O4 O 0.7777(3) 0.9498(4) 0.7878(3)
O5 O 0.7092(3) 0.7961(4) 0.7342(3)
O6 O 0.7803(3) 0.8668(5) 0.6920(3)
N5 N 0.7756(3) 1.0200(5) 0.9272(3)
C6 C 0.3076(3) 1.3855(6) 0.4139(4)
H5 H -0.2018 1.1290 -0.1349
C7 C 0.3549(4) 1.3073(7) 0.4710(5)
H6 H -0.1237 1.2602 -0.0395
C8 C 0.3702(4) 1.3305(8) 0.5438(5)
C9 C -0.1618(5) 1.0736(10) 0.0584(5)
H7 H -0.1517 1.0562 0.1071
C10 C -0.2098(4) 1.0023(8) -0.0011(4)
H8 H -0.2340 0.9377 0.0082
N6 N 0.4286(4) 1.2693(7) 0.6120(4)
N7 N 0.8066(3) 0.7572(5) 0.8997(3)
C11 C 0.7954(5) 0.6386(7) 0.8865(5)
H9 H 0.7463 0.6114 0.8561
C12 C 0.8506(6) 0.5546(8) 0.9143(5)
H10 H 0.8393 0.4720 0.9028
C13 C 0.9215(5) 0.5897(10) 0.9585(5)
C14 C 0.9354(4) 0.7111(10) 0.9731(5)
H11 H 0.9844 0.7389 1.0032
C15 C 0.8762(4) 0.7929(8) 0.9428(4)
H12 H 0.8860 0.8761 0.9534
N8 N 0.9755(4) 0.4723(7) 0.9812(4)
N5C N 0.2756(3) 1.4800(5) 0.4272(3)
Co1C Co 0.21781(4) 1.61626(7) 0.34279(5)
N1C N 0.1244(3) 1.5103(5) 0.2667(3)
C1C C 0.1236(4) 1.3907(7) 0.2675(4)
H1C H 0.1648 1.3495 0.3052
C2C C 0.0644(4) 1.3234(7) 0.2149(4)
H2C H 0.0656 1.2380 0.2167
C3C C 0.0037(4) 1.3833(8) 0.1598(4)
C4C C 0.0035(4) 1.5053(8) 0.1592(4)
H3C H -0.0374 1.5489 0.1229
C5C C 0.0643(3) 1.5640(7) 0.2128(4)
H4C H 0.0638 1.6493 0.2115
N2C N -0.0597(4) 1.3265(7) 0.0950(4)
N6C N -0.0714(4) 1.2307(7) 0.1120(4)
C8C C -0.1298(4) 1.1695(8) 0.0438(5)
C7C C -0.1451(4) 1.1927(7) -0.0290(5)
C6C C -0.1924(3) 1.1145(6) -0.0861(4)
N5_2 N -0.2244(3) 1.0200(5) -0.0728(3)
Co1_2 Co -0.28219(4) 0.88374(7) -0.15721(5)
Co1D Co 1.28219(4) 0.11626(7) 1.15721(5)
N7D N 1.1934(3) 0.2428(5) 1.1003(3)
C11D C 1.2046(5) 0.3614(7) 1.1135(5)
H9D H 1.2537 0.3886 1.1439
C12D C 1.1494(6) 0.4454(8) 1.0857(5)
H10D H 1.1607 0.5280 1.0972
C13D C 1.0785(5) 0.4103(10) 1.0415(5)
C14D C 1.0646(4) 0.2889(10) 1.0269(5)
H11D H 1.0156 0.2611 0.9968
C15D C 1.1238(4) 0.2071(8) 1.0572(4)
H12D H 1.1140 0.1239 1.0466
N8D N 1.0245(4) 0.5277(7) 1.0188(4)
O1C O 0.1422(3) 1.7644(4) 0.3237(3)
N3C N 0.1254(3) 1.7341(6) 0.3732(3)
O2C O 0.1606(3) 1.6465(5) 0.4131(3)
O4C O 0.2777(3) 1.5502(4) 0.2878(3)
N4C N 0.2560(3) 1.6309(5) 0.2359(3)
O5C O 0.2092(3) 1.7039(4) 0.2342(3)
N7C N 0.3066(3) 1.7428(5) 0.3997(3)
O6C O 0.2803(3) 1.6332(5) 0.1920(3)
O3C O 0.0770(3) 1.7855(6) 0.3794(4)
C10C C 0.2902(4) 1.4977(8) 0.4989(4)
C9C C 0.3382(5) 1.4264(10) 0.5584(5)
H7C H 0.3483 1.4438 0.6071
H8C H 0.2660 1.5623 0.5082
H5C H 0.2982 1.3710 0.3651
H6C H 0.3763 1.2398 0.4605
C16 C 0.9309(9) 1.0671(16) 0.8117(8)
H13 H 0.9436 1.1529 0.8115
H14 H 0.8767 1.0608 0.7885
Cl1 Cl 0.9618(6) 0.9827(10) 0.7592(7)
Cl2 Cl 0.9705(4) 1.0165(7) 0.9011(6)
loop_
_geom_bond_atom_site_label_1
_geom_bond_atom_site_label_2
_geom_bond_site_symmetry_1
_geom_bond_site_symmetry_2
Co1 N1 1_555 1_555
N1 C1 1_555 1_555
C1 H1 1_555 1_555
C2 C1 1_555 1_555
H2 C2 1_555 1_555
C3 C2 1_555 1_555
C4 C3 1_555 1_555
H3 C4 1_555 1_555
C5 N1 1_555 1_555
H4 C5 1_555 1_555
N2 C3 1_555 1_555
N3 O1 1_555 1_555
O1 Co1 1_555 1_555
O2 Co1 1_555 1_555
O3 N3 1_555 1_555
N4 O4 1_555 1_555
O4 Co1 1_555 1_555
O5 Co1 1_555 1_555
O6 N4 1_555 1_555
N5 Co1 1_555 1_555
C6 C7 1_555 1_555
H5 C6C 1_555 1_555
C7 C8 1_555 1_555
H6 C7C 1_555 1_555
C8 N6 1_555 1_555
C9 H7 1_555 1_555
C10 C9 1_555 1_555
H8 C10 1_555 1_555
N6 N2 1_555 1_555
N7 Co1 1_555 1_555
C11 N7 1_555 1_555
H9 C11 1_555 1_555
C12 C11 1_555 1_555
H10 C12 1_555 1_555
C13 C12 1_555 1_555
C14 C13 1_555 1_555
H11 C14 1_555 1_555
C15 N7 1_555 1_555
H12 C15 1_555 1_555
N8 C13 1_555 1_555
C16 H13 1_555 1_555
H14 C16 1_555 1_555
Cl1 C16 1_555 1_555
Cl2 C16 1_555 1_555
N5C C6 1_555 1_555
Co1C N5C 1_555 1_555
N1C Co1C 1_555 1_555
C1C N1C 1_555 1_555
H1C C1C 1_555 1_555
C2C C1C 1_555 1_555
H2C C2C 1_555 1_555
C3C C2C 1_555 1_555
C4C C3C 1_555 1_555
H3C C4C 1_555 1_555
C5C N1C 1_555 1_555
H4C C5C 1_555 1_555
N2C C3C 1_555 1_555
N6C N2C 1_555 1_555
C8C C9 1_555 1_555
C7C C8C 1_555 1_555
C6C C7C 1_555 1_555
N5_2 C10 1_555 1_555
Co1_2 N5_2 1_555 1_555
Co1D N7D 1_555 1_555
N7D C11D 1_555 1_555
C11D H9D 1_555 1_555
C12D C11D 1_555 1_555
H10D C12D 1_555 1_555
C13D C12D 1_555 1_555
C14D C13D 1_555 1_555
H11D C14D 1_555 1_555
C15D N7D 1_555 1_555
H12D C15D 1_555 1_555
N8D N8 1_555 1_555
O1C Co1C 1_555 1_555
N3C O1C 1_555 1_555
O2C Co1C 1_555 1_555
O4C Co1C 1_555 1_555
N4C O4C 1_555 1_555
O5C Co1C 1_555 1_555
N7C Co1C 1_555 1_555
O6C N4C 1_555 1_555
O3C N3C 1_555 1_555
C10C N5C 1_555 1_555
C9C C8 1_555 1_555
H7C C9C 1_555 1_555
H8C C10C 1_555 1_555
H5C C6 1_555 1_555
H6C C7 1_555 1_555
C4 C5 1_555 1_555
N3 O2 1_555 1_555
N4 O5 1_555 1_555
C14 C15 1_555 1_555
C4C C5C 1_555 1_555
N6C C8C 1_555 1_555
C6C N5_2 1_555 1_555
C13D N8D 1_555 1_555
C14D C15D 1_555 1_555
N3C O2C 1_555 1_555
N4C O5C 1_555 1_555
C10C C9C 1_555 1_555

#END
