
#######################################################################
#
#                 Cambridge Crystallographic Data Centre
#                                CCDC 
#
#######################################################################
#
# If this CIF has been generated from an entry in the Cambridge 
# Structural Database, then it will include bibliographic, chemical, 
# crystal, experimental, refinement or atomic coordinate data resulting 
# from the CCDC's data processing and validation procedures.
#
#######################################################################

data_GOYJEJ
_symmetry_cell_setting           monoclinic
_symmetry_space_group_name_H-M   'C 2/c'
_symmetry_Int_Tables_number      15
_space_group_name_Hall           '-C 2yn'
loop_
_symmetry_equiv_pos_site_id
_symmetry_equiv_pos_as_xyz
1 x,y,z
2 1/2+x,1/2+y,z
3 x,-y,1/2+z
4 1/2+x,1/2-y,1/2+z
5 -x,-y,-z
6 1/2-x,1/2-y,-z
7 -x,y,1/2-z
8 1/2-x,1/2+y,1/2-z
_cell_length_a                   21.197(5)
_cell_length_b                   11.166(12)
_cell_length_c                   21.389(4)
_cell_angle_alpha                90
_cell_angle_beta                 122.24(2)
_cell_angle_gamma                90
_cell_volume                     4281.94
loop_
_atom_site_label
_atom_site_type_symbol
_atom_site_fract_x
_atom_site_fract_y
_atom_site_fract_z
Cd1 Cd -0.21593(2) 0.11694(3) 0.15717(2)
N1 N 0.1936(2) -0.7573(4) 0.6024(3)
C2 C 0.2062(3) -0.8734(5) 0.6204(3)
H3 H 0.2561 -0.8974 0.6547
N2 N 0.0303(3) -1.0189(5) 0.5217(3)
C3 C 0.1527(3) -0.9594(6) 0.5934(3)
H4 H 0.1643 -1.0410 0.6073
C4 C 0.0836(3) -0.9237(5) 0.5467(3)
C5 C -0.0700(3) -1.1951(6) 0.4722(4)
H5 H -0.0203 -1.2213 0.5058
C6 C -0.1263(3) -1.2751(6) 0.4437(4)
H6 H -0.1158 -1.3568 0.4580
N3 N -0.1236(3) 0.2511(5) 0.1229(3)
O3 O -0.0778(4) 0.3032(7) 0.1135(4)
O4 O -0.1585(2) 0.1640(4) 0.0820(3)
O5 O -0.1350(2) 0.2781(4) 0.1754(2)
N4 N -0.2647(3) 0.1283(5) 0.2643(3)
O6 O -0.2169(3) 0.2003(4) 0.2693(2)
O7 O -0.2922(3) 0.1359(5) 0.3059(3)
O8 O -0.2842(2) 0.0466(4) 0.2155(2)
N5 N -0.1172(2) 0.0085(5) 0.2396(3)
C7 C -0.0585(3) 0.0658(7) 0.2896(3)
H7 H -0.0579 0.1509 0.2883
C8 C 0.0011(3) 0.0071(8) 0.3429(4)
H8 H 0.0437 0.0502 0.3792
C9 C 0.0004(3) -0.1125(8) 0.3448(3)
C10 C -0.0584(4) -0.1742(7) 0.2939(4)
H9 H -0.0589 -0.2593 0.2941
C11 C -0.1173(3) -0.1105(6) 0.2417(3)
H10 H -0.1605 -0.1523 0.2051
N6 N 0.2267(2) -0.4678(4) 0.5699(3)
C12 C 0.2166(4) -0.4803(8) 0.5011(4)
H11 H 0.7433 0.0419 0.9943
N7 N 0.0808(4) -0.2556(7) 0.3920(4)
C13 C 0.1705(5) -0.4096(9) 0.4423(5)
H12 H 0.6629 -0.0786 0.8948
N8 N 0.0620(4) -0.1674(7) 0.4062(4)
C14 C 0.1351(4) -0.3178(7) 0.4571(4)
C15 C 0.6451(3) -0.1978(6) 1.0269(4)
H13 H 0.6202 -0.2605 1.0354
C16 C 0.6915(3) -0.1207(6) 1.0826(4)
H14 H 0.6990 -0.1296 1.1303
N1C N -0.3064(2) 0.2573(4) 0.1024(3)
Cd1C Cd 0.28407(2) -0.61694(3) 0.65717(2)
N2D N -0.0303(3) -0.9811(5) 0.4783(3)
C4D C -0.0836(3) -1.0763(5) 0.4533(3)
C3D C -0.1527(3) -1.0406(6) 0.4066(3)
C2D C -0.2062(3) -1.1266(5) 0.3796(3)
N1D N -0.1936(2) -1.2427(4) 0.3976(3)
Cd1G Cd -0.28407(2) -1.38306(3) 0.34283(2)
H3D H -0.2561 -1.1026 0.3453
H4D H -0.1643 -0.9590 0.3927
C5D C 0.0700(3) -0.8049(6) 0.5278(4)
H5D H 0.0203 -0.7787 0.4942
C6D C 0.1263(3) -0.7249(6) 0.5563(4)
H6D H 0.1158 -0.6432 0.5420
O4C O 0.3415(2) -0.6640(4) 0.5820(3)
N3C N 0.3764(3) -0.7511(5) 0.6229(3)
O3C O 0.4222(4) -0.8032(7) 0.6135(4)
O5C O 0.3650(2) -0.7781(4) 0.6754(2)
O6C O 0.2831(3) -0.7003(4) 0.7693(2)
N4C N 0.2353(3) -0.6283(5) 0.7643(3)
O7C O 0.2078(3) -0.6359(5) 0.8059(3)
O8C O 0.2158(2) -0.5466(4) 0.7155(2)
N5C N 0.3828(2) -0.5085(5) 0.7396(3)
C7C C 0.4415(3) -0.5658(7) 0.7896(3)
H7C H 0.4421 -0.6509 0.7883
C8C C 0.5011(3) -0.5071(8) 0.8429(4)
H8C H 0.5437 -0.5502 0.8792
C9C C 0.5004(3) -0.3875(8) 0.8448(3)
C10C C 0.4416(4) -0.3258(7) 0.7939(4)
H9C H 0.4411 -0.2407 0.7941
C11C C 0.3827(3) -0.3895(6) 0.7417(3)
H10C H 0.3395 -0.3477 0.7051
N8C N 0.5620(4) -0.3326(7) 0.9062(4)
N7C N 0.5808(4) -0.2444(7) 0.8920(4)
C14C C 0.6351(4) -0.1822(7) 0.9571(4)
C13C C 0.6705(5) -0.0904(9) 0.9423(5)
C12C C 0.7166(4) -0.0197(8) 1.0011(4)
N6C N 0.7267(2) -0.0322(4) 1.0699(3)
Cd1_2 Cd 0.78407(2) 0.11694(3) 1.15717(2)
C16C C 0.1915(3) -0.3793(6) 0.5826(4)
C15C C 0.1451(3) -0.3022(6) 0.5269(4)
H13C H 0.1202 -0.2395 0.5354
H14C H 0.1990 -0.3704 0.6303
H11C H 0.2433 -0.5419 0.4943
H12C H 0.1629 -0.4214 0.3948
N6C_2 N -0.2733(2) -0.0322(4) 0.0699(3)
C1 C -0.9423(7) 0.5509(12) -0.3153(7)
H1 H -0.9555 0.6367 -0.3188
H2 H -0.8872 0.5453 -0.2858
Cl1 Cl -0.9739(2) 0.4989(4) -0.4025(2)
Cl2 Cl -0.9783(3) 0.4724(5) -0.2648(3)
O1 O -0.9223(7) 0.6741(12) -0.3547(7)
Cl2F Cl -1.0217(3) 0.4724(5) -0.2352(3)
C1F C -1.0577(7) 0.5509(12) -0.1847(7)
H1F H -1.0445 0.6367 -0.1812
H2F H -1.1128 0.5453 -0.2142
Cl1F Cl -1.0261(2) 0.4989(4) -0.0975(2)
O2? O 0.0045(13) 0.496(2) 0.5322(11)
loop_
_geom_bond_atom_site_label_1
_geom_bond_atom_site_label_2
_geom_bond_site_symmetry_1
_geom_bond_site_symmetry_2
Cd1 O4 1_555 1_555
N1 C2 1_555 1_555
C1 H1 1_555 1_555
H2 C1 1_555 1_555
Cl1 C1 1_555 1_555
C2 H3 1_555 1_555
N2 C4 1_555 1_555
Cl2 C1 1_555 1_555
C3 C2 1_555 1_555
H4 C3 1_555 1_555
C4 C3 1_555 1_555
C5 H5 1_555 1_555
C6 C5 1_555 1_555
H6 C6 1_555 1_555
N3 O3 1_555 1_555
O4 N3 1_555 1_555
O5 Cd1 1_555 1_555
N4 O6 1_555 1_555
O6 Cd1 1_555 1_555
O7 N4 1_555 1_555
O8 Cd1 1_555 1_555
N5 Cd1 1_555 1_555
C7 N5 1_555 1_555
H7 C7 1_555 1_555
C8 C7 1_555 1_555
H8 C8 1_555 1_555
C9 C8 1_555 1_555
C10 C9 1_555 1_555
H9 C10 1_555 1_555
C11 N5 1_555 1_555
H10 C11 1_555 1_555
N6 C12 1_555 1_555
C12 C13 1_555 1_555
H11 C12C 1_555 1_555
N7 N8 1_555 1_555
C13 C14 1_555 1_555
H12 C13C 1_555 1_555
N8 C9 1_555 1_555
C14 N7 1_555 1_555
C15 H13 1_555 1_555
C16 C15 1_555 1_555
H14 C16 1_555 1_555
N1C Cd1 1_555 1_555
Cd1C N1 1_555 1_555
N2D N2 1_555 1_555
C4D C5 1_555 1_555
C3D C4D 1_555 1_555
C2D C3D 1_555 1_555
N1D C6 1_555 1_555
Cd1G N1D 1_555 1_555
H3D C2D 1_555 1_555
H4D C3D 1_555 1_555
C5D C4 1_555 1_555
H5D C5D 1_555 1_555
C6D N1 1_555 1_555
H6D C6D 1_555 1_555
O4C Cd1C 1_555 1_555
N3C O4C 1_555 1_555
O3C N3C 1_555 1_555
O5C Cd1C 1_555 1_555
O6C Cd1C 1_555 1_555
N4C O6C 1_555 1_555
O7C N4C 1_555 1_555
O8C Cd1C 1_555 1_555
N5C Cd1C 1_555 1_555
C7C N5C 1_555 1_555
H7C C7C 1_555 1_555
C8C C7C 1_555 1_555
H8C C8C 1_555 1_555
C9C C8C 1_555 1_555
C10C C9C 1_555 1_555
H9C C10C 1_555 1_555
C11C N5C 1_555 1_555
H10C C11C 1_555 1_555
N8C C9C 1_555 1_555
N7C N8C 1_555 1_555
C14C C15 1_555 1_555
C13C C14C 1_555 1_555
C12C C13C 1_555 1_555
N6C C16 1_555 1_555
Cd1_2 N6C 1_555 1_555
C16C N6 1_555 1_555
C15C C14 1_555 1_555
H13C C15C 1_555 1_555
H14C C16C 1_555 1_555
H11C C12 1_555 1_555
H12C C13 1_555 1_555
N6C_2 Cd1 1_555 1_555
Cl2F C1F 1_555 1_555
C1F H1F 1_555 1_555
H2F C1F 1_555 1_555
Cl1F C1F 1_555 1_555
N3 O5 1_555 1_555
N4 O8 1_555 1_555
C10 C11 1_555 1_555
N6 Cd1C 1_555 1_555
N2D C4D 1_555 1_555
C2D N1D 1_555 1_555
C5D C6D 1_555 1_555
N3C O5C 1_555 1_555
N4C O8C 1_555 1_555
C10C C11C 1_555 1_555
N7C C14C 1_555 1_555
C12C N6C 1_555 1_555
C16C C15C 1_555 1_555

#END
