
#######################################################################
#
#                 Cambridge Crystallographic Data Centre
#                                CCDC 
#
#######################################################################
#
# If this CIF has been generated from an entry in the Cambridge 
# Structural Database, then it will include bibliographic, chemical, 
# crystal, experimental, refinement or atomic coordinate data resulting 
# from the CCDC's data processing and validation procedures.
#
#######################################################################

data_GOYLOX
_symmetry_cell_setting           monoclinic
_symmetry_space_group_name_H-M   'P 21/c'
_symmetry_Int_Tables_number      14
_space_group_name_Hall           '-P 2ybc'
loop_
_symmetry_equiv_pos_site_id
_symmetry_equiv_pos_as_xyz
1 x,y,z
2 -x,1/2+y,1/2-z
3 -x,-y,-z
4 x,1/2-y,1/2+z
_cell_length_a                   14.9717(5)
_cell_length_b                   11.5420(3)
_cell_length_c                   7.0890(3)
_cell_angle_alpha                90
_cell_angle_beta                 97.291(2)
_cell_angle_gamma                90
_cell_volume                     1215.1
loop_
_atom_site_label
_atom_site_type_symbol
_atom_site_fract_x
_atom_site_fract_y
_atom_site_fract_z
Cd1 Cd 0.361941(13) 0.259258(16) 0.65417(3)
C1 C 0.43073(19) 0.7754(2) 1.0019(4)
C2 C 0.41629(18) 0.6557(2) 1.0006(4)
H1 H 0.4640 0.6056 1.0496
C3 C 0.33322(18) 0.6085(2) 0.9287(4)
C4 C 0.26488(17) 0.6851(2) 0.8581(4)
C5 C 0.27779(19) 0.8043(2) 0.8577(4)
H2 H 0.2303 0.8544 0.8073
C6 C 0.36002(18) 0.8490(2) 0.9312(4)
H3 H 0.3689 0.9305 0.9341
S1 S 0.53522(5) 0.84187(6) 1.07810(10)
N1 N 0.17644(16) 0.6410(2) 0.7836(3)
O1 O 0.15631(14) 0.54208(19) 0.8250(3)
O2 O 0.12472(14) 0.7051(2) 0.6811(3)
C7 C 0.32554(17) 0.4779(2) 0.9206(4)
O3 O 0.32405(14) 0.42699(16) 1.0756(3)
O4 O 0.32610(14) 0.43399(16) 0.7592(3)
O5 O 0.24784(13) 0.30091(17) 0.3943(3)
C8 C 0.19825(19) 0.3875(2) 0.3950(4)
H4 H 0.2157 0.4464 0.4859
N2 N 0.12301(16) 0.4033(2) 0.2780(3)
C9 C 0.0703(2) 0.5094(3) 0.2818(4)
H5 H 0.0925 0.5546 0.3952
H6 H 0.0069 0.4897 0.2852
H7 H 0.0761 0.5553 0.1677
C10 C 0.0933(2) 0.3190(3) 0.1315(4)
H8 H 0.1149 0.3418 0.0121
H9 H 0.0274 0.3155 0.1133
H10 H 0.1177 0.2426 0.1703
Cd1A Cd 0.638059(13) 0.759258(16) 0.84583(3)
Cd1B Cd 0.638059(13) 0.740742(16) 1.34583(3)
Cd1C Cd 0.361941(13) 0.240742(16) 0.15417(3)
Cd1C_2 Cd 0.361941(13) 0.240742(16) 1.15417(3)
S1A S 0.46478(5) 0.34187(6) 0.42190(10)
S1B S 0.46478(5) 0.15813(6) 0.92190(10)
O3C O 0.32405(14) 0.07301(16) 0.5756(3)
O5C O 0.24784(13) 0.19909(17) 0.8943(3)
loop_
_geom_bond_atom_site_label_1
_geom_bond_atom_site_label_2
_geom_bond_site_symmetry_1
_geom_bond_site_symmetry_2
Cd1 O4 1_555 1_555
C1 C2 1_555 1_555
C2 H1 1_555 1_555
C3 C2 1_555 1_555
C4 C3 1_555 1_555
C5 C4 1_555 1_555
H2 C5 1_555 1_555
C6 C1 1_555 1_555
H3 C6 1_555 1_555
S1 C1 1_555 1_555
N1 C4 1_555 1_555
O1 N1 1_555 1_555
O2 N1 1_555 1_555
C7 C3 1_555 1_555
O3 C7 1_555 1_555
O4 C7 1_555 1_555
O5 Cd1 1_555 1_555
C8 O5 1_555 1_555
H4 C8 1_555 1_555
N2 C8 1_555 1_555
C9 N2 1_555 1_555
H5 C9 1_555 1_555
H6 C9 1_555 1_555
H7 C9 1_555 1_555
C10 N2 1_555 1_555
H8 C10 1_555 1_555
H9 C10 1_555 1_555
H10 C10 1_555 1_555
Cd1A S1 1_555 1_555
Cd1B S1 1_555 1_555
Cd1C O5 1_555 1_555
Cd1C_2 O3 1_555 1_555
S1A Cd1 1_555 1_555
S1B Cd1 1_555 1_555
O3C Cd1 1_555 1_555
O5C Cd1 1_555 1_555
C5 C6 1_555 1_555
Cd1C S1A 1_555 1_555
Cd1C_2 S1B 1_555 1_555
Cd1C_2 O5C 1_555 1_555

#END
