
#######################################################################
#
#                 Cambridge Crystallographic Data Centre
#                                CCDC 
#
#######################################################################
#
# If this CIF has been generated from an entry in the Cambridge 
# Structural Database, then it will include bibliographic, chemical, 
# crystal, experimental, refinement or atomic coordinate data resulting 
# from the CCDC's data processing and validation procedures.
#
#######################################################################

data_GOYLEN
_symmetry_cell_setting           triclinic
_symmetry_space_group_name_H-M   'P -1'
_symmetry_Int_Tables_number      2
_space_group_name_Hall           '-P 1'
loop_
_symmetry_equiv_pos_site_id
_symmetry_equiv_pos_as_xyz
1 x,y,z
2 -x,-y,-z
_cell_length_a                   11.4374(3)
_cell_length_b                   11.8795(3)
_cell_length_c                   12.0302(3)
_cell_angle_alpha                86.8270(10)
_cell_angle_beta                 68.4300(10)
_cell_angle_gamma                71.9300(10)
_cell_volume                     1441.92
loop_
_atom_site_label
_atom_site_type_symbol
_atom_site_fract_x
_atom_site_fract_y
_atom_site_fract_z
Tb1 Tb 0.892400(11) 0.669279(10) 0.040581(10)
C1 C 1.5440(2) 0.5970(2) -0.2072(2)
C2 C 1.4351(2) 0.5568(2) -0.1605(2)
H1 H 1.4212 0.5061 -0.2094
C3 C 1.3458(2) 0.5892(2) -0.0437(2)
C4 C 1.3750(2) 0.6587(2) 0.0258(2)
C5 C 1.4863(2) 0.6954(2) -0.0180(2)
H2 H 1.5045 0.7404 0.0328
C6 C 1.5706(2) 0.6664(2) -0.1360(2)
H3 H 1.6456 0.6935 -0.1680
C7 C 1.2186(2) 0.5578(2) -0.0112(2)
O1 O 1.23335(17) 0.45022(16) -0.02536(18)
O2 O 1.11376(17) 0.64318(15) 0.01657(16)
N1 N 1.2880(2) 0.6924(2) 0.1514(2)
O3 O 1.2111(2) 0.63734(19) 0.20159(17)
O4 O 1.2966(2) 0.7757(2) 0.2006(2)
S1 S 1.64337(7) 0.55108(7) -0.35981(6)
S2 S 1.71629(7) 0.68444(8) -0.42808(6)
C8 C 1.8731(3) 0.6489(2) -0.4160(2)
C9 C 1.9093(3) 0.5741(2) -0.3320(2)
H4 H 1.8520 0.5328 -0.2829
C10 C 2.0290(2) 0.5606(2) -0.3209(2)
C11 C 2.1092(3) 0.6237(2) -0.3945(2)
C12 C 2.0761(3) 0.6936(3) -0.4807(2)
H5 H 2.1345 0.7331 -0.5317
C13 C 1.9585(3) 0.7054(3) -0.4916(2)
H6 H 1.9350 0.7524 -0.5512
C14 C 2.0623(2) 0.4810(2) -0.2266(2)
O5 O 2.11491(17) 0.37252(15) -0.24990(15)
O6 O 2.02673(17) 0.52744(15) -0.12208(14)
N2 N 2.2330(2) 0.6179(2) -0.38094(19)
O7 O 2.2685(2) 0.5491(2) -0.31326(19)
O8 O 2.2945(2) 0.6839(2) -0.43788(19)
O9 O 0.66856(18) 0.76740(18) 0.16084(16)
C15 C 0.5669(3) 0.8048(3) 0.2521(3)
C16 C 0.5446(3) 0.7308(3) 0.3613(3)
H7 H 0.4754 0.6957 0.3680
H8 H 0.5172 0.7817 0.4336
H9 H 0.6270 0.6675 0.3524
N3 N 0.4757(2) 0.9062(2) 0.2586(2)
C17 C 0.4941(4) 0.9775(3) 0.1536(3)
H10 H 0.5762 0.9352 0.0882
H11 H 0.4992 1.0539 0.1744
H12 H 0.4191 0.9910 0.1279
C18 C 0.3535(3) 0.9503(3) 0.3624(3)
H13 H 0.3355 0.8839 0.4105
H14 H 0.2802 0.9883 0.3354
H15 H 0.3625 1.0082 0.4110
O10 O 0.88377(19) 0.85286(16) 0.10261(16)
C19 C 0.8253(3) 0.9402(2) 0.1770(3)
C20 C 0.7805(4) 0.9229(3) 0.3100(3)
H16 H 0.7914 0.8387 0.3228
H17 H 0.6871 0.9693 0.3492
H18 H 0.8340 0.9495 0.3441
N4 N 0.8015(2) 1.0485(2) 0.1415(2)
C21 C 0.7344(3) 1.1544(3) 0.2243(3)
H19 H 0.6390 1.1779 0.2420
H20 H 0.7684 1.2192 0.1877
H21 H 0.7509 1.1370 0.2988
C22 C 0.8336(3) 1.0670(3) 0.0134(3)
H22 H 0.9010 0.9957 -0.0338
H23 H 0.8675 1.1348 -0.0063
H24 H 0.7537 1.0828 -0.0053
O11 O 0.98410(18) 0.78008(16) -0.14499(16)
O12 O 0.78317(18) 0.77835(17) -0.09291(16)
N5 N 0.8765(2) 0.81526(19) -0.16193(19)
O13 O 0.8613(2) 0.88141(19) -0.24064(18)
Tb1_2 Tb 1.892400(11) 0.669279(10) 0.040581(10)
Tb1A Tb 1.107600(11) 0.330721(10) -0.040581(10)
Tb1A_2 Tb 2.107600(11) 0.330721(10) -0.040581(10)
O1A O 0.76665(17) 0.54978(16) 0.02536(18)
O5A O 0.88509(17) 0.62748(15) 0.24990(15)
O6_2 O 1.02673(17) 0.52744(15) -0.12208(14)
O6A O 0.97327(17) 0.47256(15) 0.12208(14)
loop_
_geom_bond_atom_site_label_1
_geom_bond_atom_site_label_2
_geom_bond_site_symmetry_1
_geom_bond_site_symmetry_2
Tb1 O2 1_555 1_555
C1 C2 1_555 1_555
C2 H1 1_555 1_555
C3 C2 1_555 1_555
C4 C3 1_555 1_555
C5 C4 1_555 1_555
H2 C5 1_555 1_555
C6 C1 1_555 1_555
H3 C6 1_555 1_555
C7 C3 1_555 1_555
O1 C7 1_555 1_555
O2 C7 1_555 1_555
N1 C4 1_555 1_555
O3 N1 1_555 1_555
O4 N1 1_555 1_555
S1 C1 1_555 1_555
S2 S1 1_555 1_555
C8 S2 1_555 1_555
C9 C8 1_555 1_555
H4 C9 1_555 1_555
C10 C9 1_555 1_555
C11 C10 1_555 1_555
C12 C11 1_555 1_555
H5 C12 1_555 1_555
C13 C8 1_555 1_555
H6 C13 1_555 1_555
C14 C10 1_555 1_555
O5 C14 1_555 1_555
O6 C14 1_555 1_555
N2 C11 1_555 1_555
O7 N2 1_555 1_555
O8 N2 1_555 1_555
O9 Tb1 1_555 1_555
C15 O9 1_555 1_555
C16 C15 1_555 1_555
H7 C16 1_555 1_555
H8 C16 1_555 1_555
H9 C16 1_555 1_555
N3 C15 1_555 1_555
C17 N3 1_555 1_555
H10 C17 1_555 1_555
H11 C17 1_555 1_555
H12 C17 1_555 1_555
C18 N3 1_555 1_555
H13 C18 1_555 1_555
H14 C18 1_555 1_555
H15 C18 1_555 1_555
O10 Tb1 1_555 1_555
C19 O10 1_555 1_555
C20 C19 1_555 1_555
H16 C20 1_555 1_555
H17 C20 1_555 1_555
H18 C20 1_555 1_555
N4 C19 1_555 1_555
C21 N4 1_555 1_555
H19 C21 1_555 1_555
H20 C21 1_555 1_555
H21 C21 1_555 1_555
C22 N4 1_555 1_555
H22 C22 1_555 1_555
H23 C22 1_555 1_555
H24 C22 1_555 1_555
O11 Tb1 1_555 1_555
O12 Tb1 1_555 1_555
N5 O11 1_555 1_555
O13 N5 1_555 1_555
Tb1_2 O6 1_555 1_555
Tb1A O1 1_555 1_555
Tb1A_2 O5 1_555 1_555
O1A Tb1 1_555 1_555
O5A Tb1 1_555 1_555
O6_2 Tb1 1_555 1_555
O6A Tb1 1_555 1_555
C5 C6 1_555 1_555
C12 C13 1_555 1_555
O6 Tb1A_2 1_555 1_555
O12 N5 1_555 1_555
Tb1A O6_2 1_555 1_555
Tb1A O6A 1_555 1_555

#END
