
#######################################################################
#
#                 Cambridge Crystallographic Data Centre
#                                CCDC 
#
#######################################################################
#
# If this CIF has been generated from an entry in the Cambridge 
# Structural Database, then it will include bibliographic, chemical, 
# crystal, experimental, refinement or atomic coordinate data resulting 
# from the CCDC's data processing and validation procedures.
#
#######################################################################

data_GOYLAJ
_symmetry_cell_setting           monoclinic
_symmetry_space_group_name_H-M   'P 21/c'
_symmetry_Int_Tables_number      14
_space_group_name_Hall           '-P 2ybc'
loop_
_symmetry_equiv_pos_site_id
_symmetry_equiv_pos_as_xyz
1 x,y,z
2 -x,1/2+y,1/2-z
3 -x,-y,-z
4 x,1/2-y,1/2+z
_cell_length_a                   11.9815(3)
_cell_length_b                   22.3576(5)
_cell_length_c                   8.5072(2)
_cell_angle_alpha                90
_cell_angle_beta                 91.7710(10)
_cell_angle_gamma                90
_cell_volume                     2277.8
loop_
_atom_site_label
_atom_site_type_symbol
_atom_site_fract_x
_atom_site_fract_y
_atom_site_fract_z
Pr1 Pr 0.467139(11) 1.004976(6) 0.244844(16)
C1 C -0.0064(2) 0.88975(12) 0.1156(3)
C2 C -0.1123(2) 0.90939(13) 0.0675(3)
H1 H -0.1589 0.8839 0.0048
C3 C -0.1513(2) 0.96546(12) 0.1094(3)
C4 C -0.0788(2) 1.00149(12) 0.1992(3)
C5 C 0.0275(2) 0.98264(14) 0.2467(3)
H2 H 0.0750 1.0084 0.3072
C6 C 0.0636(2) 0.92645(13) 0.2058(3)
H3 H 0.1358 0.9129 0.2390
C7 C -0.2737(2) 0.97889(12) 0.0713(3)
O1 O -0.33225(16) 0.99167(10) 0.1856(2)
O2 O -0.30460(16) 0.97165(9) -0.0696(2)
N1 N -0.1128(2) 1.06181(11) 0.2457(3)
O3 O -0.0675(2) 1.08363(12) 0.3636(3)
O4 O -0.18346(19) 1.08778(10) 0.1650(3)
S1 S 0.02942(6) 0.81683(3) 0.05063(10)
S2 S 0.12872(6) 0.78084(3) 0.22510(10)
C8 C 0.2649(2) 0.78217(13) 0.1464(3)
C9 C 0.3113(2) 0.83384(12) 0.0848(3)
H4 H 0.2688 0.8697 0.0798
C10 C 0.4189(2) 0.83323(12) 0.0309(3)
C11 C 0.4783(2) 0.77986(13) 0.0428(3)
C12 C 0.4339(2) 0.72769(13) 0.1005(4)
H5 H 0.4764 0.6918 0.1038
C13 C 0.3257(2) 0.72900(13) 0.1535(4)
H6 H 0.2931 0.6938 0.1946
C14 C 0.4639(2) 0.88800(12) -0.0484(3)
O5 O 0.49335(18) 0.88396(9) -0.1877(2)
O6 O 0.46542(16) 0.93696(8) 0.0248(2)
N2 N 0.5959(2) 0.77940(11) -0.0012(3)
O7 O 0.6314(2) 0.73591(11) -0.0717(4)
O8 O 0.65350(18) 0.82290(10) 0.0374(3)
O9 O 0.42259(18) 0.96055(10) 0.5269(2)
C15 C 0.3363(2) 0.93423(13) 0.4736(3)
H7 H 0.2925 0.9115 0.5431
O10 O 0.30738(16) 0.93732(10) 0.3334(2)
O11 O 0.33603(17) 1.07327(9) 0.3937(2)
C16 C 0.2820(2) 1.11482(13) 0.3306(3)
H8 H 0.2995 1.1257 0.2262
N3 N 0.2019(2) 1.14473(11) 0.3992(3)
C17 C 0.1478(3) 1.19521(15) 0.3192(4)
H9 H 0.1801 1.2007 0.2158
H10 H 0.1593 1.2315 0.3821
H11 H 0.0676 1.1873 0.3061
C18 C 0.1679(3) 1.13071(16) 0.5572(4)
H12 H 0.2010 1.0925 0.5905
H13 H 0.0863 1.1278 0.5584
H14 H 0.1933 1.1624 0.6294
O12 O 0.5477(2) 0.89934(10) 0.3246(3)
H15 H 0.5817 0.9076 0.4339
H16 H 0.5846 0.8752 0.2376
Pr1_2 Pr -0.532861(11) 1.004976(6) 0.244844(16)
Pr1B Pr -0.467139(11) 0.995024(6) -0.244844(16)
Pr1B_2 Pr 0.532861(11) 0.995024(6) -0.244844(16)
Pr1B_3 Pr 0.532861(11) 0.995024(6) 0.755156(16)
O1_2 O 0.66775(16) 0.99167(10) 0.1856(2)
O2B O 0.30460(16) 1.02835(9) 0.0696(2)
O5B O 0.50665(18) 1.11604(9) 0.1877(2)
O6B O 0.53458(16) 1.06304(8) -0.0248(2)
O9B O 0.57741(18) 1.03945(10) 0.4731(2)
loop_
_geom_bond_atom_site_label_1
_geom_bond_atom_site_label_2
_geom_bond_site_symmetry_1
_geom_bond_site_symmetry_2
Pr1 O6 1_555 1_555
C1 C2 1_555 1_555
C2 H1 1_555 1_555
C3 C2 1_555 1_555
C4 C3 1_555 1_555
C5 C4 1_555 1_555
H2 C5 1_555 1_555
C6 C1 1_555 1_555
H3 C6 1_555 1_555
C7 C3 1_555 1_555
O1 C7 1_555 1_555
O2 C7 1_555 1_555
N1 C4 1_555 1_555
O3 N1 1_555 1_555
O4 N1 1_555 1_555
S1 C1 1_555 1_555
S2 S1 1_555 1_555
C8 S2 1_555 1_555
C9 C8 1_555 1_555
H4 C9 1_555 1_555
C10 C9 1_555 1_555
C11 C10 1_555 1_555
C12 C11 1_555 1_555
H5 C12 1_555 1_555
C13 C8 1_555 1_555
H6 C13 1_555 1_555
C14 C10 1_555 1_555
O5 C14 1_555 1_555
O6 C14 1_555 1_555
N2 C11 1_555 1_555
O7 N2 1_555 1_555
O8 N2 1_555 1_555
O9 Pr1 1_555 1_555
C15 O9 1_555 1_555
H7 C15 1_555 1_555
O10 Pr1 1_555 1_555
O11 Pr1 1_555 1_555
C16 O11 1_555 1_555
H8 C16 1_555 1_555
N3 C16 1_555 1_555
C17 N3 1_555 1_555
H9 C17 1_555 1_555
H10 C17 1_555 1_555
H11 C17 1_555 1_555
C18 N3 1_555 1_555
H12 C18 1_555 1_555
H13 C18 1_555 1_555
H14 C18 1_555 1_555
O12 Pr1 1_555 1_555
H15 O12 1_555 1_555
H16 O12 1_555 1_555
Pr1_2 O1 1_555 1_555
Pr1B O2 1_555 1_555
Pr1B_2 O5 1_555 1_555
Pr1B_3 O9 1_555 1_555
O1_2 Pr1 1_555 1_555
O2B Pr1 1_555 1_555
O5B Pr1 1_555 1_555
O6B Pr1 1_555 1_555
O9B Pr1 1_555 1_555
C5 C6 1_555 1_555
C12 C13 1_555 1_555
O6 Pr1B_2 1_555 1_555
C15 O10 1_555 1_555
Pr1B_2 O6B 1_555 1_555
Pr1B_3 O9B 1_555 1_555

#END
