
#######################################################################
#
#                 Cambridge Crystallographic Data Centre
#                                CCDC 
#
#######################################################################
#
# If this CIF has been generated from an entry in the Cambridge 
# Structural Database, then it will include bibliographic, chemical, 
# crystal, experimental, refinement or atomic coordinate data resulting 
# from the CCDC's data processing and validation procedures.
#
#######################################################################

data_GOYRET
_symmetry_cell_setting           triclinic
_symmetry_space_group_name_H-M   'P -1'
_symmetry_Int_Tables_number      2
_space_group_name_Hall           '-P 1'
loop_
_symmetry_equiv_pos_site_id
_symmetry_equiv_pos_as_xyz
1 x,y,z
2 -x,-y,-z
_cell_length_a                   8.0853(4)
_cell_length_b                   8.2115(4)
_cell_length_c                   11.7269(6)
_cell_angle_alpha                109.802(2)
_cell_angle_beta                 91.023(3)
_cell_angle_gamma                98.359(2)
_cell_volume                     722.872
loop_
_atom_site_label
_atom_site_type_symbol
_atom_site_fract_x
_atom_site_fract_y
_atom_site_fract_z
Ni1 Ni 0.30223(7) 0.48646(7) 0.51717(6)
N1 N 0.4755(5) 0.3317(5) 0.4224(4)
N2 N 0.4458(5) 0.2164(5) 0.3261(4)
N3 N 0.4166(5) 0.1035(5) 0.2338(4)
N4 N 0.3180(5) 0.3924(5) 0.6608(4)
N5 N 0.3406(5) 0.2209(5) 0.9595(4)
N6 N 0.3273(5) 0.0599(5) 0.9437(4)
N7 N 0.3163(5) -0.0747(5) 0.9465(4)
N8 N 0.2569(5) 0.5828(5) 0.3779(4)
N9 N 0.0753(5) 0.7515(5) 0.1074(4)
N10 N 0.0608(5) 0.9085(5) 0.1323(4)
N11 N 0.0403(6) 1.0448(5) 0.1398(4)
N12 N 0.1000(5) 0.2792(5) 0.4383(4)
N13 N -0.1563(5) 0.3331(5) 0.3722(4)
N14 N -0.0281(5) 0.3087(5) 0.4061(4)
C1 C 0.3362(6) 0.5015(6) 0.7769(4)
H1 H 0.3448 0.6238 0.7922
C2 C 0.3431(6) 0.4461(6) 0.8743(5)
H2 H 0.3552 0.5287 0.9546
C3 C 0.3323(6) 0.2681(6) 0.8548(4)
C4 C 0.3117(6) 0.1520(6) 0.7357(4)
H3 H 0.3018 0.0291 0.7183
C5 C 0.3062(6) 0.2202(6) 0.6428(5)
H4 H 0.2933 0.1406 0.5614
C6 C 0.2452(6) 0.7532(6) 0.4021(4)
H5 H 0.2795 0.8325 0.4819
C7 C 0.1870(6) 0.8196(6) 0.3194(4)
H6 H 0.1801 0.9408 0.3416
C8 C 0.1384(6) 0.7045(6) 0.2018(4)
C9 C 0.1515(6) 0.5286(6) 0.1737(4)
H7 H 0.1200 0.4473 0.0941
C10 C 0.2106(6) 0.4749(6) 0.2627(4)
H8 H 0.2196 0.3544 0.2423
Ni1A Ni -0.30223(7) 0.51354(7) 0.48283(6)
Ni1A_2 Ni 0.69777(7) 0.51354(7) 0.48283(6)
N1A N 0.5245(5) 0.6683(5) 0.5776(4)
N13A N 0.1563(5) 0.6669(5) 0.6278(4)
loop_
_geom_bond_atom_site_label_1
_geom_bond_atom_site_label_2
_geom_bond_site_symmetry_1
_geom_bond_site_symmetry_2
Ni1 N1 1_555 1_555
N1 N2 1_555 1_555
N2 N3 1_555 1_555
N4 Ni1 1_555 1_555
N5 N6 1_555 1_555
N6 N7 1_555 1_555
N8 Ni1 1_555 1_555
N9 N10 1_555 1_555
N10 N11 1_555 1_555
N12 Ni1 1_555 1_555
N13 N14 1_555 1_555
N14 N12 1_555 1_555
C1 N4 1_555 1_555
H1 C1 1_555 1_555
C2 C1 1_555 1_555
H2 C2 1_555 1_555
C3 N5 1_555 1_555
C4 C3 1_555 1_555
H3 C4 1_555 1_555
C5 N4 1_555 1_555
H4 C5 1_555 1_555
C6 N8 1_555 1_555
H5 C6 1_555 1_555
C7 C6 1_555 1_555
H6 C7 1_555 1_555
C8 N9 1_555 1_555
C9 C8 1_555 1_555
H7 C9 1_555 1_555
C10 N8 1_555 1_555
H8 C10 1_555 1_555
Ni1A N13 1_555 1_555
Ni1A_2 N1 1_555 1_555
N1A Ni1 1_555 1_555
N13A Ni1 1_555 1_555
C2 C3 1_555 1_555
C4 C5 1_555 1_555
C7 C8 1_555 1_555
C9 C10 1_555 1_555
Ni1A_2 N1A 1_555 1_555

#END
