
#######################################################################
#
#                 Cambridge Crystallographic Data Centre
#                                CCDC 
#
#######################################################################
#
# If this CIF has been generated from an entry in the Cambridge 
# Structural Database, then it will include bibliographic, chemical, 
# crystal, experimental, refinement or atomic coordinate data resulting 
# from the CCDC's data processing and validation procedures.
#
#######################################################################

data_GOYRIX
_symmetry_cell_setting           triclinic
_symmetry_space_group_name_H-M   'P -1'
_symmetry_Int_Tables_number      2
_space_group_name_Hall           '-P 1'
loop_
_symmetry_equiv_pos_site_id
_symmetry_equiv_pos_as_xyz
1 x,y,z
2 -x,-y,-z
_cell_length_a                   8.1567(3)
_cell_length_b                   8.2244(3)
_cell_length_c                   11.8075(4)
_cell_angle_alpha                109.953(2)
_cell_angle_beta                 90.990(2)
_cell_angle_gamma                98.578(2)
_cell_volume                     734.235
loop_
_atom_site_label
_atom_site_type_symbol
_atom_site_fract_x
_atom_site_fract_y
_atom_site_fract_z
Co1 Co 0.80167(2) -0.01432(2) 0.017648(16)
N1 N 1.02615(14) 0.17123(15) 0.08026(10)
N2 N 1.05601(14) 0.28730(15) 0.17685(10)
N3 N 1.08494(16) 0.39922(16) 0.26903(11)
N4 N 0.59719(14) -0.22630(15) -0.06488(11)
N5 N 0.47026(14) -0.19719(14) -0.09658(10)
N6 N 0.34278(14) -0.17198(15) -0.13000(11)
N7 N 0.75213(14) 0.08387(15) -0.12440(10)
N8 N 0.57453(16) 0.25117(16) -0.39426(11)
N9 N 0.56045(15) 0.40833(16) -0.36930(11)
N10 N 0.53898(16) 0.54396(17) -0.36121(12)
N11 N 0.81529(14) -0.11053(15) 0.16322(10)
N12 N 0.84032(16) -0.27988(16) 0.46004(11)
N13 N 0.82740(15) -0.44012(16) 0.44402(10)
N14 N 0.81626(16) -0.57651(16) 0.44632(11)
C1 C 0.70806(17) -0.02478(18) -0.23825(13)
H1 H 0.7172 -0.1424 -0.2578
C2 C 0.65000(18) 0.02903(18) -0.32776(12)
H2 H 0.6205 -0.0506 -0.4055
C3 C 0.63654(17) 0.20425(18) -0.29935(12)
C4 C 0.68290(17) 0.32036(18) -0.18220(12)
H3 H 0.6754 0.4387 -0.1606
C5 C 0.74047(17) 0.25362(18) -0.09928(12)
H4 H 0.7732 0.3310 -0.0213
C6 C 0.83444(17) -0.00035(18) 0.27832(13)
H5 H 0.8424 0.1191 0.2928
C7 C 0.84299(18) -0.05495(18) 0.37615(13)
H6 H 0.8565 0.0261 0.4544
C8 C 0.83105(17) -0.23337(18) 0.35571(12)
C9 C 0.80918(18) -0.35031(18) 0.23709(13)
H7 H 0.7992 -0.4705 0.2202
C10 C 0.80283(18) -0.28237(18) 0.14527(13)
H8 H 0.7891 -0.3605 0.0661
Co1A Co 0.19833(2) 0.01432(2) -0.017648(16)
Co1A_2 Co 1.19833(2) 0.01432(2) -0.017648(16)
N1A N 0.97385(14) -0.17123(15) -0.08026(10)
N6A N 0.65722(14) 0.17198(15) 0.13000(11)
loop_
_geom_bond_atom_site_label_1
_geom_bond_atom_site_label_2
_geom_bond_site_symmetry_1
_geom_bond_site_symmetry_2
Co1 N1 1_555 1_555
N1 N2 1_555 1_555
N2 N3 1_555 1_555
N4 Co1 1_555 1_555
N5 N4 1_555 1_555
N6 N5 1_555 1_555
N7 Co1 1_555 1_555
N8 N9 1_555 1_555
N9 N10 1_555 1_555
N11 Co1 1_555 1_555
N12 N13 1_555 1_555
N13 N14 1_555 1_555
C1 N7 1_555 1_555
H1 C1 1_555 1_555
C2 C1 1_555 1_555
H2 C2 1_555 1_555
C3 N8 1_555 1_555
C4 C3 1_555 1_555
H3 C4 1_555 1_555
C5 N7 1_555 1_555
H4 C5 1_555 1_555
C6 N11 1_555 1_555
H5 C6 1_555 1_555
C7 C6 1_555 1_555
H6 C7 1_555 1_555
C8 N12 1_555 1_555
C9 C8 1_555 1_555
H7 C9 1_555 1_555
C10 N11 1_555 1_555
H8 C10 1_555 1_555
Co1A N6 1_555 1_555
Co1A_2 N1 1_555 1_555
N1A Co1 1_555 1_555
N6A Co1 1_555 1_555
C2 C3 1_555 1_555
C4 C5 1_555 1_555
C7 C8 1_555 1_555
C9 C10 1_555 1_555
Co1A_2 N1A 1_555 1_555

#END
