
#######################################################################
#
#                 Cambridge Crystallographic Data Centre
#                                CCDC 
#
#######################################################################
#
# If this CIF has been generated from an entry in the Cambridge 
# Structural Database, then it will include bibliographic, chemical, 
# crystal, experimental, refinement or atomic coordinate data resulting 
# from the CCDC's data processing and validation procedures.
#
#######################################################################

data_GOYROD
_symmetry_cell_setting           triclinic
_symmetry_space_group_name_H-M   'P -1'
_symmetry_Int_Tables_number      2
_space_group_name_Hall           '-P 1'
loop_
_symmetry_equiv_pos_site_id
_symmetry_equiv_pos_as_xyz
1 x,y,z
2 -x,-y,-z
_cell_length_a                   8.2657(5)
_cell_length_b                   8.4546(4)
_cell_length_c                   12.0767(9)
_cell_angle_alpha                82.283(2)
_cell_angle_beta                 70.177(2)
_cell_angle_gamma                80.151(2)
_cell_volume                     779.595
loop_
_atom_site_label
_atom_site_type_symbol
_atom_site_fract_x
_atom_site_fract_y
_atom_site_fract_z
Cd1 Cd 0.038629(16) 0.792574(17) 0.478987(11)
N1 N 0.1096(2) 0.9698(2) 0.58354(16)
N2 N 0.1139(2) 0.9391(2) 0.68244(16)
N3 N 0.1214(3) 0.9096(3) 0.77701(17)
N4 N 0.1840(2) 0.5795(2) 0.57363(16)
N5 N 0.1153(2) 0.4631(2) 0.60864(15)
N6 N 0.0492(2) 0.3457(2) 0.64573(16)
N7 N 0.2928(2) 0.8073(2) 0.32336(15)
N8 N 0.7464(2) 0.8386(3) 0.03285(16)
N9 N 0.8905(2) 0.8272(2) 0.04982(15)
N10 N 1.0270(2) 0.8171(2) 0.05013(16)
N11 N -0.2156(2) 0.7370(2) 0.62963(15)
N12 N -0.6442(2) 0.5732(3) 0.89654(16)
N13 N -0.7768(2) 0.5589(2) 0.87297(15)
N14 N -0.9039(2) 0.5376(2) 0.86681(17)
C1 C 0.2932(3) 0.8249(3) 0.21116(19)
H1 H 0.1859 0.8300 0.1972
C2 C 0.4412(3) 0.8360(3) 0.11513(18)
H2 H 0.4358 0.8481 0.0371
C3 C 0.5997(3) 0.8292(3) 0.13472(18)
C4 C 0.6017(3) 0.8097(3) 0.25029(19)
H3 H 0.7072 0.8029 0.2669
C5 C 0.4465(3) 0.8003(3) 0.34027(19)
H4 H 0.4482 0.7882 0.4192
C6 C -0.2171(3) 0.6959(3) 0.74119(19)
H5 H -0.1166 0.7043 0.7602
C7 C -0.3570(3) 0.6420(3) 0.82952(18)
H6 H -0.3527 0.6139 0.9074
C8 C -0.5048(3) 0.6295(3) 0.80229(17)
C9 C -0.5068(3) 0.6718(3) 0.68706(18)
H7 H -0.6057 0.6643 0.6658
C10 C -0.3601(3) 0.7248(3) 0.60500(18)
H8 H -0.3610 0.7545 0.5265
Cd1A Cd -0.038629(16) 0.207426(17) 0.521013(11)
Cd1A_2 Cd -0.038629(16) 1.207426(17) 0.521013(11)
N1A N -0.1096(2) 1.0302(2) 0.41646(16)
N6A N -0.0492(2) 0.6543(2) 0.35427(16)
loop_
_geom_bond_atom_site_label_1
_geom_bond_atom_site_label_2
_geom_bond_site_symmetry_1
_geom_bond_site_symmetry_2
Cd1 N1 1_555 1_555
N1 N2 1_555 1_555
N2 N3 1_555 1_555
N4 Cd1 1_555 1_555
N5 N4 1_555 1_555
N6 N5 1_555 1_555
N7 Cd1 1_555 1_555
N8 N9 1_555 1_555
N9 N10 1_555 1_555
N11 Cd1 1_555 1_555
N12 N13 1_555 1_555
N13 N14 1_555 1_555
C1 N7 1_555 1_555
H1 C1 1_555 1_555
C2 C1 1_555 1_555
H2 C2 1_555 1_555
C3 N8 1_555 1_555
C4 C3 1_555 1_555
H3 C4 1_555 1_555
C5 N7 1_555 1_555
H4 C5 1_555 1_555
C6 N11 1_555 1_555
H5 C6 1_555 1_555
C7 C6 1_555 1_555
H6 C7 1_555 1_555
C8 N12 1_555 1_555
C9 C8 1_555 1_555
H7 C9 1_555 1_555
C10 N11 1_555 1_555
H8 C10 1_555 1_555
Cd1A N6 1_555 1_555
Cd1A_2 N1 1_555 1_555
N1A Cd1 1_555 1_555
N6A Cd1 1_555 1_555
C2 C3 1_555 1_555
C4 C5 1_555 1_555
C7 C8 1_555 1_555
C9 C10 1_555 1_555
Cd1A_2 N1A 1_555 1_555

#END
