
#######################################################################
#
#                 Cambridge Crystallographic Data Centre
#                                CCDC 
#
#######################################################################
#
# If this CIF has been generated from an entry in the Cambridge 
# Structural Database, then it will include bibliographic, chemical, 
# crystal, experimental, refinement or atomic coordinate data resulting 
# from the CCDC's data processing and validation procedures.
#
#######################################################################

data_GOYSIW
_symmetry_cell_setting           orthorhombic
_symmetry_space_group_name_H-M   'P n a 21'
_symmetry_Int_Tables_number      33
_space_group_name_Hall           'P 2c -2n'
loop_
_symmetry_equiv_pos_site_id
_symmetry_equiv_pos_as_xyz
1 x,y,z
2 -x,-y,1/2+z
3 1/2+x,1/2-y,z
4 1/2-x,1/2+y,1/2+z
_cell_length_a                   12.793(10)
_cell_length_b                   13.167(8)
_cell_length_c                   7.731(3)
_cell_angle_alpha                90
_cell_angle_beta                 90
_cell_angle_gamma                90
_cell_volume                     1302.25
loop_
_atom_site_label
_atom_site_type_symbol
_atom_site_fract_x
_atom_site_fract_y
_atom_site_fract_z
Cu1 Cu -0.09971(5) 0.44317(6) -0.17518(14)
N1 N -0.1694(4) 0.3849(4) -0.3742(9)
N2 N -0.3206(4) 0.3474(4) -0.4968(9)
N3 N -0.2483(3) 0.4620(4) -0.0909(8)
O1 O -0.0485(3) 0.4910(4) 0.0466(7)
O2 O -0.0435(3) 0.5923(4) 0.2731(6)
C1 C -0.1528(6) 0.3444(5) -0.5369(10)
H1 H -0.0859 0.3352 -0.5906
C2 C -0.2447(5) 0.3225(5) -0.6047(12)
H2 H -0.2549 0.2907 -0.7151
C3 C -0.4304(6) 0.3388(8) -0.5279(16)
H3 H -0.4416 0.3095 -0.6401
H4 H -0.4617 0.2963 -0.4413
H5 H -0.4616 0.4051 -0.5237
C4 C -0.2719(5) 0.3863(5) -0.3498(10)
C5 C -0.3140(4) 0.4269(4) -0.1999(10)
H6 H -0.3880 0.4291 -0.1797
C6 C -0.2771(5) 0.5086(7) 0.0660(10)
H7 H -0.2773 0.4584 0.1561
H8 H -0.3465 0.5357 0.0560
C7 C -0.1998(4) 0.5923(6) 0.1153(10)
H9 H -0.2247 0.6264 0.2170
H10 H -0.1982 0.6409 0.0228
C8 C -0.0897(4) 0.5554(5) 0.1469(11)
O2A O 0.0435(3) 0.4077(4) -0.2269(6)
Cu1A Cu 0.09971(5) 0.55683(6) 0.32482(14)
O3 O -0.1149(4) 0.6182(4) -0.2939(8)
H11 H -0.1892 0.6289 -0.3454
H12 H -0.1156 0.6116 -0.1625
Cl1 Cl -0.09769(14) 0.16550(14) 0.0041(2)
O4 O -0.1193(9) 0.2692(4) 0.0186(19)
O5 O -0.0842(8) 0.1447(9) -0.1767(7)
O6 O 0.0004(5) 0.1399(9) 0.0793(14)
O7 O -0.1770(5) 0.1031(6) 0.0676(16)
O8? O -0.0630(9) 0.2653(5) 0.0314(18)
O9? O -0.2091(4) 0.1679(12) -0.0095(19)
O10? O -0.0718(10) 0.1019(7) 0.1436(10)
O11? O -0.0601(9) 0.1285(9) -0.1557(9)
loop_
_geom_bond_atom_site_label_1
_geom_bond_atom_site_label_2
_geom_bond_site_symmetry_1
_geom_bond_site_symmetry_2
Cu1 N1 1_555 1_555
N1 C1 1_555 1_555
N2 C2 1_555 1_555
N3 Cu1 1_555 1_555
O1 Cu1 1_555 1_555
O2 C8 1_555 1_555
C1 H1 1_555 1_555
C2 C1 1_555 1_555
H2 C2 1_555 1_555
C3 N2 1_555 1_555
H3 C3 1_555 1_555
H4 C3 1_555 1_555
H5 C3 1_555 1_555
C4 N1 1_555 1_555
C5 N3 1_555 1_555
H6 C5 1_555 1_555
C6 N3 1_555 1_555
H7 C6 1_555 1_555
H8 C6 1_555 1_555
C7 C6 1_555 1_555
H9 C7 1_555 1_555
H10 C7 1_555 1_555
C8 O1 1_555 1_555
O3 H11 1_555 1_555
H12 O3 1_555 1_555
Cl1 O4 1_555 1_555
O5 Cl1 1_555 1_555
O6 Cl1 1_555 1_555
O7 Cl1 1_555 1_555
O2A Cu1 1_555 1_555
Cu1A O2 1_555 1_555
N2 C4 1_555 1_555
C4 C5 1_555 1_555
C7 C8 1_555 1_555

#END
