
#######################################################################
#
#                 Cambridge Crystallographic Data Centre
#                                CCDC 
#
#######################################################################
#
# If this CIF has been generated from an entry in the Cambridge 
# Structural Database, then it will include bibliographic, chemical, 
# crystal, experimental, refinement or atomic coordinate data resulting 
# from the CCDC's data processing and validation procedures.
#
#######################################################################

data_GOYYUQ
_symmetry_cell_setting           monoclinic
_symmetry_space_group_name_H-M   'P 21/c'
_symmetry_Int_Tables_number      14
_space_group_name_Hall           '-P 2ybc'
loop_
_symmetry_equiv_pos_site_id
_symmetry_equiv_pos_as_xyz
1 x,y,z
2 -x,1/2+y,1/2-z
3 -x,-y,-z
4 x,1/2-y,1/2+z
_cell_length_a                   12.0112(4)
_cell_length_b                   22.4197(6)
_cell_length_c                   8.5925(3)
_cell_angle_alpha                90
_cell_angle_beta                 91.5980(10)
_cell_angle_gamma                90
_cell_volume                     2312.95
loop_
_atom_site_label
_atom_site_type_symbol
_atom_site_fract_x
_atom_site_fract_y
_atom_site_fract_z
La1 La 0.467576(8) 1.003882(5) 0.244940(12)
C1 C -0.00505(16) 0.88811(10) 0.1128(2)
C2 C -0.11055(16) 0.90793(10) 0.0642(2)
H1 H -0.1569 0.8827 0.0018
C3 C -0.14880(16) 0.96405(10) 0.1058(2)
C4 C -0.07699(17) 0.99979(9) 0.1955(2)
C5 C 0.02850(17) 0.98050(11) 0.2434(3)
H2 H 0.0756 1.0059 0.3042
C6 C 0.06475(17) 0.92439(10) 0.2026(3)
H3 H 0.1365 0.9108 0.2355
C7 C -0.27091(16) 0.97783(9) 0.0680(2)
O1 O -0.30158(12) 0.97122(7) -0.07159(16)
O2 O -0.32936(12) 0.98985(7) 0.18136(17)
N1 N -0.11057(15) 1.06001(9) 0.2413(2)
O3 O -0.06485(17) 1.08168(10) 0.3578(3)
O4 O -0.18105(14) 1.08594(8) 0.1614(2)
S1 S 0.03108(4) 0.81564(3) 0.04784(7)
S2 S 0.12996(5) 0.77972(3) 0.21975(7)
C8 C 0.26607(17) 0.78143(10) 0.1429(2)
C9 C 0.31105(17) 0.83339(9) 0.0804(2)
H4 H 0.2678 0.8688 0.0742
C10 C 0.41913(17) 0.83306(9) 0.0275(2)
C11 C 0.47950(17) 0.78000(10) 0.0411(3)
C12 C 0.43623(18) 0.72824(10) 0.1007(3)
H5 H 0.4795 0.6928 0.1065
C13 C 0.32773(18) 0.72911(10) 0.1522(3)
H6 H 0.2957 0.6940 0.1937
C14 C 0.46354(16) 0.88748(9) -0.0523(2)
O5 O 0.49419(13) 0.88262(7) -0.18902(17)
O6 O 0.46410(12) 0.93641(6) 0.01959(16)
N2 N 0.59716(15) 0.78030(9) -0.0001(2)
O7 O 0.65351(13) 0.82400(8) 0.0381(2)
O8 O 0.63449(15) 0.73700(9) -0.0683(3)
O9 O 0.33610(12) 1.07476(7) 0.39642(17)
C15 C 0.28137(17) 1.11552(10) 0.3324(2)
H7 H 0.2995 1.1262 0.2291
N3 N 0.20003(15) 1.14481(9) 0.3980(2)
C16 C 0.1453(2) 1.19484(12) 0.3189(3)
H8 H 0.1775 1.2005 0.2164
H9 H 0.1561 1.2311 0.3811
H10 H 0.0655 1.1866 0.3061
C17 C 0.16500(19) 1.13113(12) 0.5546(3)
H11 H 0.1977 1.0930 0.5883
H12 H 0.0836 1.1283 0.5552
H13 H 0.1901 1.1628 0.6258
O10 O 0.58149(12) 1.03870(7) 0.47321(16)
C18 C 0.66732(17) 1.06594(10) 0.5260(2)
H14 H 0.7201 1.0937 0.4478
O11 O 0.69546(12) 1.06389(7) 0.66573(17)
O12 O 0.54732(13) 0.89772(7) 0.32520(17)
H15 H 0.5865 0.9032 0.4028
H16 H 0.5934 0.8829 0.2676
La1_2 La -0.532424(8) 1.003882(5) 0.244940(12)
La1B La -0.467576(8) 0.996118(5) -0.244940(12)
La1B_2 La 0.532424(8) 0.996118(5) -0.244940(12)
La1B_3 La 0.532424(8) 0.996118(5) 0.755060(12)
O1B O 0.30158(12) 1.02878(7) 0.07159(16)
O2_2 O 0.67064(12) 0.98985(7) 0.18136(17)
O5B O 0.50581(13) 1.11738(7) 0.18902(17)
O6B O 0.53590(12) 1.06359(6) -0.01959(16)
O10B O 0.41851(12) 0.96130(7) 0.52679(16)
O11B O 0.30454(12) 0.93611(7) 0.33427(17)
loop_
_geom_bond_atom_site_label_1
_geom_bond_atom_site_label_2
_geom_bond_site_symmetry_1
_geom_bond_site_symmetry_2
La1 O6 1_555 1_555
C1 C2 1_555 1_555
C2 H1 1_555 1_555
C3 C2 1_555 1_555
C4 C3 1_555 1_555
C5 C4 1_555 1_555
H2 C5 1_555 1_555
C6 C1 1_555 1_555
H3 C6 1_555 1_555
C7 C3 1_555 1_555
O1 C7 1_555 1_555
O2 C7 1_555 1_555
N1 C4 1_555 1_555
O3 N1 1_555 1_555
O4 N1 1_555 1_555
S1 C1 1_555 1_555
S2 S1 1_555 1_555
C8 S2 1_555 1_555
C9 C8 1_555 1_555
H4 C9 1_555 1_555
C10 C9 1_555 1_555
C11 C10 1_555 1_555
C12 C11 1_555 1_555
H5 C12 1_555 1_555
C13 C8 1_555 1_555
H6 C13 1_555 1_555
C14 C10 1_555 1_555
O5 C14 1_555 1_555
O6 C14 1_555 1_555
N2 C11 1_555 1_555
O7 N2 1_555 1_555
O8 N2 1_555 1_555
O9 La1 1_555 1_555
C15 O9 1_555 1_555
H7 C15 1_555 1_555
N3 C15 1_555 1_555
C16 N3 1_555 1_555
H8 C16 1_555 1_555
H9 C16 1_555 1_555
H10 C16 1_555 1_555
C17 N3 1_555 1_555
H11 C17 1_555 1_555
H12 C17 1_555 1_555
H13 C17 1_555 1_555
O10 La1 1_555 1_555
C18 O10 1_555 1_555
H14 C18 1_555 1_555
O11 C18 1_555 1_555
O12 La1 1_555 1_555
H15 O12 1_555 1_555
H16 O12 1_555 1_555
La1_2 O2 1_555 1_555
La1B O1 1_555 1_555
La1B_2 O5 1_555 1_555
La1B_3 O10 1_555 1_555
O1B La1 1_555 1_555
O2_2 La1 1_555 1_555
O5B La1 1_555 1_555
O6B La1 1_555 1_555
O10B La1 1_555 1_555
O11B La1 1_555 1_555
C5 C6 1_555 1_555
C12 C13 1_555 1_555
O6 La1B_2 1_555 1_555
O11 La1B_3 1_555 1_555
La1B_2 O6B 1_555 1_555
La1B_3 O10B 1_555 1_555

#END
