
#######################################################################
#
#                 Cambridge Crystallographic Data Centre
#                                CCDC 
#
#######################################################################
#
# If this CIF has been generated from an entry in the Cambridge 
# Structural Database, then it will include bibliographic, chemical, 
# crystal, experimental, refinement or atomic coordinate data resulting 
# from the CCDC's data processing and validation procedures.
#
#######################################################################

data_GOZMAL
_symmetry_cell_setting           monoclinic
_symmetry_space_group_name_H-M   'C 2/c'
_symmetry_Int_Tables_number      15
_space_group_name_Hall           '-C 2yn'
loop_
_symmetry_equiv_pos_site_id
_symmetry_equiv_pos_as_xyz
1 x,y,z
2 -x,y,1/2-z
3 1/2+x,1/2+y,z
4 1/2-x,1/2+y,1/2-z
5 -x,-y,-z
6 x,-y,1/2+z
7 1/2-x,1/2-y,-z
8 1/2+x,1/2-y,1/2+z
_cell_length_a                   29.560(2)
_cell_length_b                   4.0181(4)
_cell_length_c                   21.5536(17)
_cell_angle_alpha                90
_cell_angle_beta                 127.454(3)
_cell_angle_gamma                90
_cell_volume                     2032.26
loop_
_atom_site_label
_atom_site_type_symbol
_atom_site_fract_x
_atom_site_fract_y
_atom_site_fract_z
V1 V 0.0000 0.77730(19) 0.2500
S1 S 0.19204(3) 0.5359(2) 0.42637(4)
O1 O 0.0000 1.1811(8) 0.2500
O2 O 0.00684(8) 0.6625(6) 0.34199(12)
N1 N 0.08816(10) 0.7206(7) 0.31683(14)
C1 C 0.04598(12) 0.4974(8) 0.40565(16)
C2 C 0.03267(13) 0.3814(8) 0.45427(17)
H1 H -0.0036 0.4196 0.4398
C3 C 0.07152(14) 0.2135(9) 0.52243(17)
H2 H 0.0613 0.1412 0.5533
C4 C 0.12607(14) 0.1504(9) 0.54572(18)
H3 H 0.1525 0.0376 0.5921
C5 C 0.14035(13) 0.2568(9) 0.49933(17)
H4 H 0.1768 0.2135 0.5147
C6 C 0.10130(12) 0.4307(8) 0.42876(16)
C7 C 0.12024(12) 0.5627(8) 0.38549(16)
C8 C 0.17955(12) 0.7549(8) 0.34847(17)
C9 C 0.12187(12) 0.8371(8) 0.29546(17)
C10 C 0.10289(13) 1.0303(8) 0.23048(17)
H5 H 0.0647 1.0901 0.1954
C11 C 0.14185(14) 1.1316(9) 0.21897(19)
H6 H 0.1297 1.2617 0.1757
C12 C 0.19935(14) 1.0425(9) 0.2711(2)
H7 H 0.2246 1.1107 0.2615
C13 C 0.21914(13) 0.8545(9) 0.3368(2)
H8 H 0.2574 0.7965 0.3719
S1A S -0.19204(3) 0.5359(2) 0.07363(4)
O2A O -0.00684(8) 0.6625(6) 0.15801(12)
N1A N -0.08816(10) 0.7206(7) 0.18317(14)
C1A C -0.04598(12) 0.4974(8) 0.09435(16)
C2A C -0.03267(13) 0.3814(8) 0.04573(17)
H1A H 0.0036 0.4196 0.0602
C3A C -0.07152(14) 0.2135(9) -0.02243(17)
H2A H -0.0613 0.1412 -0.0533
C4A C -0.12607(14) 0.1504(9) -0.04572(18)
H3A H -0.1525 0.0376 -0.0921
C5A C -0.14035(13) 0.2568(9) 0.00067(17)
H4A H -0.1768 0.2135 -0.0147
C6A C -0.10130(12) 0.4307(8) 0.07124(16)
C7A C -0.12024(12) 0.5627(8) 0.11451(16)
C8A C -0.17955(12) 0.7549(8) 0.15153(17)
C9A C -0.12187(12) 0.8371(8) 0.20454(17)
C10A C -0.10289(13) 1.0303(8) 0.26952(17)
H5A H -0.0647 1.0901 0.3046
C11A C -0.14185(14) 1.1316(9) 0.28103(19)
H6A H -0.1297 1.2617 0.3243
C12A C -0.19935(14) 1.0425(9) 0.2289(2)
H7A H -0.2246 1.1107 0.2385
C13A C -0.21914(13) 0.8545(9) 0.1632(2)
H8A H -0.2574 0.7965 0.1281
V1_2 V 0.0000 1.77730(19) 0.2500
O1_2 O 0.0000 0.1811(8) 0.2500
loop_
_geom_bond_atom_site_label_1
_geom_bond_atom_site_label_2
_geom_bond_site_symmetry_1
_geom_bond_site_symmetry_2
V1 O1 1_555 1_555
S1 C7 1_555 1_555
O1 V1_2 1_555 1_555
O2 V1 1_555 1_555
N1 V1 1_555 1_555
C1 O2 1_555 1_555
C2 C1 1_555 1_555
H1 C2 1_555 1_555
C3 C2 1_555 1_555
H2 C3 1_555 1_555
C4 C3 1_555 1_555
H3 C4 1_555 1_555
C5 C4 1_555 1_555
H4 C5 1_555 1_555
C6 C1 1_555 1_555
C7 N1 1_555 1_555
C8 S1 1_555 1_555
C9 N1 1_555 1_555
C10 C9 1_555 1_555
H5 C10 1_555 1_555
C11 C10 1_555 1_555
H6 C11 1_555 1_555
C12 C11 1_555 1_555
H7 C12 1_555 1_555
C13 C8 1_555 1_555
H8 C13 1_555 1_555
S1A C7A 1_555 1_555
O2A V1 1_555 1_555
N1A V1 1_555 1_555
C1A O2A 1_555 1_555
C2A C1A 1_555 1_555
H1A C2A 1_555 1_555
C3A C2A 1_555 1_555
H2A C3A 1_555 1_555
C4A C3A 1_555 1_555
H3A C4A 1_555 1_555
C5A C4A 1_555 1_555
H4A C5A 1_555 1_555
C6A C1A 1_555 1_555
C7A N1A 1_555 1_555
C8A S1A 1_555 1_555
C9A N1A 1_555 1_555
C10A C9A 1_555 1_555
H5A C10A 1_555 1_555
C11A C10A 1_555 1_555
H6A C11A 1_555 1_555
C12A C11A 1_555 1_555
H7A C12A 1_555 1_555
C13A C8A 1_555 1_555
H8A C13A 1_555 1_555
O1_2 V1 1_555 1_555
C5 C6 1_555 1_555
C6 C7 1_555 1_555
C8 C9 1_555 1_555
C12 C13 1_555 1_555
C5A C6A 1_555 1_555
C6A C7A 1_555 1_555
C8A C9A 1_555 1_555
C12A C13A 1_555 1_555

#END
