
#######################################################################
#
#                 Cambridge Crystallographic Data Centre
#                                CCDC 
#
#######################################################################
#
# If this CIF has been generated from an entry in the Cambridge 
# Structural Database, then it will include bibliographic, chemical, 
# crystal, experimental, refinement or atomic coordinate data resulting 
# from the CCDC's data processing and validation procedures.
#
#######################################################################

data_GOZMUF
_symmetry_cell_setting           monoclinic
_symmetry_space_group_name_H-M   'C c'
_symmetry_Int_Tables_number      9
_space_group_name_Hall           'C -2yc'
loop_
_symmetry_equiv_pos_site_id
_symmetry_equiv_pos_as_xyz
1 x,y,z
2 x,-y,1/2+z
3 1/2+x,1/2+y,z
4 1/2+x,1/2-y,1/2+z
_cell_length_a                   17.570(3)
_cell_length_b                   10.6061(15)
_cell_length_c                   6.9846(10)
_cell_angle_alpha                90
_cell_angle_beta                 111.5980(10)
_cell_angle_gamma                90
_cell_volume                     1210.19
loop_
_atom_site_label
_atom_site_type_symbol
_atom_site_fract_x
_atom_site_fract_y
_atom_site_fract_z
Pr1 Pr 0.24921(5) 0.247219(13) 0.25002(10)
N1 N 0.10471(16) 0.1924(2) -0.0338(4)
N2 N 0.13229(16) 0.4223(2) 0.1227(4)
O1 O 0.24216(13) 0.0526(2) 0.0615(4)
O2 O 0.17025(14) -0.1130(2) -0.1091(4)
O3 O -0.10938(14) 0.2839(2) -0.2030(4)
O4 O 0.28359(15) 0.4538(2) 0.4056(4)
O5 O 0.26071(14) 0.6588(2) 0.4353(3)
O6 O -0.06839(15) 0.4968(2) -0.2664(4)
H1 H -0.0869 0.4263 -0.2624
O7 O 0.33196(18) 0.2190(3) 0.6429(4)
H2 H 0.3472 0.1529 0.6484
H3 H 0.3119 0.2424 0.7285
C1 C 0.0374(2) 0.2667(3) -0.0785(5)
C2 C -0.0427(2) 0.2141(3) -0.1743(5)
C3 C -0.0481(2) 0.0887(3) -0.2336(5)
H4 H -0.0995 0.0526 -0.2990
C4 C 0.0208(2) 0.0163(3) -0.1977(5)
H5 H 0.0167 -0.0670 -0.2420
C5 C 0.09672(19) 0.0713(3) -0.0933(5)
C6 C 0.17607(19) -0.0016(3) -0.0422(5)
C7 C 0.05681(18) 0.4016(3) -0.0216(5)
C8 C 0.00588(19) 0.5070(3) -0.1175(5)
C9 C 0.0363(2) 0.6286(3) -0.0622(5)
H6 H 0.0046 0.6979 -0.1261
C10 C 0.1130(2) 0.6469(3) 0.0865(5)
H7 H 0.1337 0.7277 0.1243
C11 C 0.1588(2) 0.5405(3) 0.1788(5)
C12 C 0.2408(2) 0.5523(3) 0.3521(5)
Pr1A Pr 0.24921(5) -0.247219(13) -0.24998(10)
Pr1A_2 Pr 0.24921(5) 0.752781(13) 0.75002(10)
Pr1C Pr -0.25079(5) 0.252781(13) -0.24998(10)
O2A O 0.17025(14) 0.1130(2) 0.3909(4)
O3C O 0.39062(14) 0.2161(2) 0.2970(4)
O5A O 0.26071(14) 0.3412(2) -0.0647(3)
loop_
_geom_bond_atom_site_label_1
_geom_bond_atom_site_label_2
_geom_bond_site_symmetry_1
_geom_bond_site_symmetry_2
Pr1 N1 1_555 1_555
N1 C1 1_555 1_555
N2 Pr1 1_555 1_555
O1 Pr1 1_555 1_555
O2 C6 1_555 1_555
O3 C2 1_555 1_555
O4 Pr1 1_555 1_555
O5 C12 1_555 1_555
O6 H1 1_555 1_555
O7 Pr1 1_555 1_555
H2 O7 1_555 1_555
H3 O7 1_555 1_555
C1 C2 1_555 1_555
C2 C3 1_555 1_555
C3 H4 1_555 1_555
C4 C3 1_555 1_555
H5 C4 1_555 1_555
C5 N1 1_555 1_555
C6 O1 1_555 1_555
C7 N2 1_555 1_555
C8 O6 1_555 1_555
C9 C8 1_555 1_555
H6 C9 1_555 1_555
C10 C9 1_555 1_555
H7 C10 1_555 1_555
C11 N2 1_555 1_555
C12 O4 1_555 1_555
Pr1A O2 1_555 1_555
Pr1A_2 O5 1_555 1_555
Pr1C O3 1_555 1_555
O2A Pr1 1_555 1_555
O3C Pr1 1_555 1_555
O5A Pr1 1_555 1_555
C1 C7 1_555 1_555
C4 C5 1_555 1_555
C5 C6 1_555 1_555
C7 C8 1_555 1_555
C10 C11 1_555 1_555
C11 C12 1_555 1_555

#END
