
#######################################################################
#
#                 Cambridge Crystallographic Data Centre
#                                CCDC 
#
#######################################################################
#
# If this CIF has been generated from an entry in the Cambridge 
# Structural Database, then it will include bibliographic, chemical, 
# crystal, experimental, refinement or atomic coordinate data resulting 
# from the CCDC's data processing and validation procedures.
#
#######################################################################

data_GOZMIT
_symmetry_cell_setting           monoclinic
_symmetry_space_group_name_H-M   'C c'
_symmetry_Int_Tables_number      9
_space_group_name_Hall           'C -2yc'
loop_
_symmetry_equiv_pos_site_id
_symmetry_equiv_pos_as_xyz
1 x,y,z
2 x,-y,1/2+z
3 1/2+x,1/2+y,z
4 1/2+x,1/2-y,1/2+z
_cell_length_a                   17.724(3)
_cell_length_b                   10.6818(15)
_cell_length_c                   7.0003(10)
_cell_angle_alpha                90
_cell_angle_beta                 111.8390(10)
_cell_angle_gamma                90
_cell_volume                     1230.21
loop_
_atom_site_label
_atom_site_type_symbol
_atom_site_fract_x
_atom_site_fract_y
_atom_site_fract_z
La1 La 0.24960(5) 0.253995(11) 0.25019(10)
N1 N 0.10358(13) 0.3060(2) -0.0416(3)
N2 N 0.13210(14) 0.0770(2) 0.1168(3)
O1 O 0.23980(12) 0.44794(19) 0.0508(3)
O2 O 0.16684(13) 0.61167(18) -0.1147(3)
O3 O 0.28262(12) 0.04436(19) 0.4039(3)
O4 O 0.25962(12) -0.15965(17) 0.4282(3)
O5 O -0.10796(13) 0.2139(2) -0.2055(4)
O6 O -0.06747(13) 0.0030(2) -0.2717(3)
H1 H -0.0862 0.0726 -0.2666
O7 O 0.33177(16) 0.2835(2) 0.6480(4)
H2 H 0.3509 0.3556 0.6628
H3 H 0.3021 0.2743 0.7147
C1 C 0.09559(17) 0.4269(3) -0.1002(4)
C2 C 0.01993(18) 0.4804(3) -0.2036(5)
H4 H 0.0154 0.5631 -0.2482
C3 C -0.04853(18) 0.4081(3) -0.2388(5)
H5 H -0.0997 0.4433 -0.3046
C4 C -0.04215(19) 0.2835(3) -0.1776(5)
C5 C 0.0377(2) 0.2307(3) -0.0841(5)
C6 C 0.17362(16) 0.5008(3) -0.0500(4)
C7 C 0.05710(16) 0.0975(3) -0.0269(4)
C8 C 0.00635(17) -0.0071(3) -0.1224(5)
C9 C 0.03670(17) -0.1275(3) -0.0685(4)
H6 H 0.0054 -0.1961 -0.1333
C10 C 0.11305(18) -0.1458(3) 0.0806(4)
H7 H 0.1336 -0.2260 0.1184
C11 C 0.15839(17) -0.0403(3) 0.1726(4)
C12 C 0.23993(17) -0.0529(3) 0.3469(4)
La1A La 0.24960(5) -0.253995(11) 0.75019(10)
La1A_2 La 0.24960(5) 0.746005(11) -0.24981(10)
La1C La -0.25040(5) 0.246005(11) -0.24981(10)
O2A O 0.16684(13) 0.38833(18) 0.3853(3)
O4A O 0.25962(12) 0.15965(17) -0.0718(3)
O5C O 0.39204(13) 0.2861(2) 0.2945(4)
loop_
_geom_bond_atom_site_label_1
_geom_bond_atom_site_label_2
_geom_bond_site_symmetry_1
_geom_bond_site_symmetry_2
La1 N1 1_555 1_555
N1 C1 1_555 1_555
N2 La1 1_555 1_555
O1 La1 1_555 1_555
O2 C6 1_555 1_555
O3 La1 1_555 1_555
O4 C12 1_555 1_555
O5 C4 1_555 1_555
O6 H1 1_555 1_555
O7 La1 1_555 1_555
H2 O7 1_555 1_555
H3 O7 1_555 1_555
C1 C2 1_555 1_555
C2 H4 1_555 1_555
C3 C2 1_555 1_555
H5 C3 1_555 1_555
C4 C3 1_555 1_555
C5 N1 1_555 1_555
C6 O1 1_555 1_555
C7 N2 1_555 1_555
C8 O6 1_555 1_555
C9 C8 1_555 1_555
H6 C9 1_555 1_555
C10 C9 1_555 1_555
H7 C10 1_555 1_555
C11 N2 1_555 1_555
C12 O3 1_555 1_555
La1A O4 1_555 1_555
La1A_2 O2 1_555 1_555
La1C O5 1_555 1_555
O2A La1 1_555 1_555
O4A La1 1_555 1_555
O5C La1 1_555 1_555
C1 C6 1_555 1_555
C4 C5 1_555 1_555
C5 C7 1_555 1_555
C7 C8 1_555 1_555
C10 C11 1_555 1_555
C11 C12 1_555 1_555

#END
