
#######################################################################
#
#                 Cambridge Crystallographic Data Centre
#                                CCDC 
#
#######################################################################
#
# If this CIF has been generated from an entry in the Cambridge 
# Structural Database, then it will include bibliographic, chemical, 
# crystal, experimental, refinement or atomic coordinate data resulting 
# from the CCDC's data processing and validation procedures.
#
#######################################################################

data_GOZNIU
_symmetry_cell_setting           monoclinic
_symmetry_space_group_name_H-M   'P 21/c'
_symmetry_Int_Tables_number      14
_space_group_name_Hall           '-P 2ybc'
loop_
_symmetry_equiv_pos_site_id
_symmetry_equiv_pos_as_xyz
1 x,y,z
2 -x,1/2+y,1/2-z
3 -x,-y,-z
4 x,1/2-y,1/2+z
_cell_length_a                   13.6349(12)
_cell_length_b                   34.8022(13)
_cell_length_c                   12.2471(11)
_cell_angle_alpha                90
_cell_angle_beta                 102.085(2)
_cell_angle_gamma                90
_cell_volume                     5682.75
loop_
_atom_site_label
_atom_site_type_symbol
_atom_site_fract_x
_atom_site_fract_y
_atom_site_fract_z
C1 C 0.4967(4) 0.36963(15) 0.0551(4)
C2 C 0.4893(3) 0.41914(13) 0.3576(4)
C3 C 0.4929(4) 0.31677(13) 0.1945(4)
C4 C 0.3368(4) 0.35959(13) 0.2011(4)
C5 C 0.4840(4) 0.34786(12) 0.3770(4)
C6 C 0.6439(4) 0.36197(13) 0.2793(4)
C7 C 0.5831(4) 0.42465(13) 0.1878(4)
C8 C 0.3932(4) 0.42348(13) 0.1401(4)
C9 C 0.5230(4) 0.47282(17) 0.7679(4)
C10 C 0.5346(5) 0.4619(2) 0.8849(6)
H1 H 0.5618 0.4364 0.8956
H2 H 0.4703 0.4626 0.9053
H3 H 0.5792 0.4796 0.9308
C11 C 0.2532(4) 0.31314(17) -0.2796(5)
H4 H 0.2818 0.2980 -0.3272
C12 C 0.1500(4) 0.31010(14) -0.2846(4)
H5 H 0.1103 0.2939 -0.3361
C13 C 0.1084(4) 0.33179(14) -0.2109(4)
C14 C 0.1673(4) 0.35702(14) -0.1386(4)
H6 H 0.1400 0.3722 -0.0899
C15 C 0.2690(4) 0.35911(14) -0.1407(4)
H7 H 0.3091 0.3764 -0.0932
C16 C -0.2946(4) 0.30953(15) -0.2296(4)
H8 H -0.3338 0.2941 -0.2838
C17 C -0.1934(4) 0.31169(15) -0.2269(4)
H9 H -0.1650 0.2980 -0.2777
C18 C -0.1352(4) 0.33458(14) -0.1475(4)
C19 C -0.1783(4) 0.35361(14) -0.0715(4)
H10 H -0.1395 0.3685 -0.0155
C20 C -0.2804(4) 0.35025(14) -0.0798(5)
H11 H -0.3098 0.3636 -0.0291
C21 C 0.7137(4) 0.48165(14) 0.4434(5)
H12 H 0.6720 0.4679 0.3871
C22 C 0.8159(4) 0.48246(14) 0.4436(4)
H13 H 0.8417 0.4700 0.3887
C23 C 0.8775(4) 0.50254(15) 0.5287(4)
C24 C 0.8363(4) 0.52028(15) 0.6110(5)
H14 H 0.8771 0.5331 0.6701
C25 C 0.7332(4) 0.51833(14) 0.6029(4)
H15 H 0.7055 0.5304 0.6570
Mn1 Mn 0.48546(5) 0.330451(19) -0.19242(6)
Mn2 Mn 0.5000 0.5000 0.5000
N1 N 0.5016(3) 0.36476(12) -0.0369(3)
N2 N 0.4923(3) 0.44208(12) 0.4265(3)
N3 N 0.4947(3) 0.28443(13) 0.1764(4)
N4 N 0.2547(3) 0.34899(13) 0.1871(4)
N5 N 0.4799(3) 0.33087(14) 0.4598(4)
N6 N 0.7273(3) 0.35281(13) 0.3047(4)
N7 N 0.6310(3) 0.44984(11) 0.1679(3)
N8 N 0.3437(3) 0.44748(10) 0.0951(3)
N9 N 0.5152(3) 0.47926(11) 0.6773(3)
N10 N 0.3123(3) 0.33700(13) -0.2091(4)
N11 N 0.0030(3) 0.32690(13) -0.2195(3)
N12 N -0.0290(3) 0.33886(13) -0.1383(4)
N13 N -0.3399(3) 0.32844(12) -0.1584(4)
N14 N 0.6719(3) 0.49946(13) 0.5190(4)
N15 N 0.9836(3) 0.50654(14) 0.5407(4)
O1 O 0.4963(3) 0.38012(9) -0.2970(4)
H16 H 0.5109 0.3718 -0.3666
H17 H 0.5488 0.3968 -0.2595
O2 O 0.4669(3) 0.29558(10) -0.3396(3)
H18 H 0.4619 0.2691 -0.3195
H19 H 0.5234 0.2989 -0.3740
O3 O 0.4789(2) 0.27805(9) -0.1011(3)
H20 H 0.4859 0.2837 -0.0232
H21 H 0.5324 0.2614 -0.1112
W1 W 0.489439(14) 0.378271(5) 0.226243(16)
C21B C 1.2863(4) 0.51835(14) 0.5566(5)
H12B H 1.3280 0.5321 0.6129
C22B C 1.1841(4) 0.51754(14) 0.5564(4)
H13B H 1.1583 0.5300 0.6113
C23B C 1.1225(4) 0.49746(15) 0.4713(4)
C24B C 1.1637(4) 0.47972(15) 0.3890(5)
H14B H 1.1229 0.4669 0.3299
C25B C 1.2668(4) 0.48167(14) 0.3971(4)
H15B H 1.2945 0.4696 0.3430
N14B N 1.3281(3) 0.50054(13) 0.4810(4)
N15B N 1.0164(3) 0.49346(14) 0.4593(4)
C1B C 0.5033(4) 0.63037(15) 0.9449(4)
C2B C 0.5107(3) 0.58086(13) 0.6424(4)
C3B C 0.5071(4) 0.68323(13) 0.8055(4)
C4B C 0.6632(4) 0.64041(13) 0.7989(4)
C5B C 0.5160(4) 0.65214(12) 0.6230(4)
C6B C 0.3561(4) 0.63803(13) 0.7207(4)
C7B C 0.4169(4) 0.57535(13) 0.8122(4)
C8B C 0.6068(4) 0.57652(13) 0.8599(4)
C9B C 0.4770(4) 0.52718(17) 0.2321(4)
C10B C 0.4654(5) 0.5381(2) 0.1151(6)
H1B H 0.4382 0.5636 0.1044
H2B H 0.5297 0.5374 0.0947
H3B H 0.4208 0.5204 0.0692
C11B C 0.7468(4) 0.68686(17) 1.2796(5)
H4B H 0.7182 0.7020 1.3272
C12B C 0.8500(4) 0.68990(14) 1.2846(4)
H5B H 0.8897 0.7061 1.3361
C13B C 0.8916(4) 0.66821(14) 1.2109(4)
C14B C 0.8327(4) 0.64298(14) 1.1386(4)
H6B H 0.8600 0.6278 1.0899
C15B C 0.7310(4) 0.64089(14) 1.1407(4)
H7B H 0.6909 0.6236 1.0932
C16B C 1.2946(4) 0.69047(15) 1.2296(4)
H8B H 1.3338 0.7059 1.2838
C17B C 1.1934(4) 0.68831(15) 1.2269(4)
H9B H 1.1650 0.7020 1.2777
C18B C 1.1352(4) 0.66542(14) 1.1475(4)
C19B C 1.1783(4) 0.64639(14) 1.0715(4)
H10B H 1.1395 0.6315 1.0155
C20B C 1.2804(4) 0.64975(14) 1.0798(5)
H11B H 1.3098 0.6364 1.0291
Mn1B Mn 0.51454(5) 0.669549(19) 1.19242(6)
N1B N 0.4984(3) 0.63524(12) 1.0369(3)
N2B N 0.5077(3) 0.55792(12) 0.5735(3)
N3B N 0.5053(3) 0.71557(13) 0.8236(4)
N4B N 0.7453(3) 0.65101(13) 0.8129(4)
N5B N 0.5201(3) 0.66913(14) 0.5402(4)
N6B N 0.2727(3) 0.64719(13) 0.6953(4)
N7B N 0.3690(3) 0.55016(11) 0.8321(3)
N8B N 0.6563(3) 0.55252(10) 0.9049(3)
N9B N 0.4848(3) 0.52074(11) 0.3227(3)
N10B N 0.6877(3) 0.66300(13) 1.2091(4)
N11B N 0.9970(3) 0.67310(13) 1.2195(3)
N12B N 1.0290(3) 0.66114(13) 1.1383(4)
N13B N 1.3399(3) 0.67156(12) 1.1584(4)
O1B O 0.5037(3) 0.61988(9) 1.2970(4)
H16B H 0.4891 0.6282 1.3666
H17B H 0.4512 0.6032 1.2595
O2B O 0.5331(3) 0.70442(10) 1.3396(3)
H18B H 0.5381 0.7309 1.3195
H19B H 0.4766 0.7011 1.3740
O3B O 0.5211(2) 0.72195(9) 1.1011(3)
H20B H 0.5141 0.7163 1.0232
H21B H 0.4676 0.7386 1.1112
W1B W 0.510561(14) 0.621729(5) 0.773757(16)
Mn1_2 Mn -0.51454(5) 0.330451(19) -0.19242(6)
Mn1B_2 Mn 1.51454(5) 0.669549(19) 1.19242(6)
Mn2_2 Mn 1.5000 0.5000 0.5000
N13_2 N 0.6601(3) 0.32844(12) -0.1584(4)
N13B_2 N 0.3399(3) 0.67156(12) 1.1584(4)
N14B_2 N 0.3281(3) 0.50054(13) 0.4810(4)
C26 C 0.7435(4) 0.42228(14) 0.7297(5)
H22 H 0.7213 0.4355 0.7859
C27 C 0.8432(4) 0.42541(13) 0.7219(4)
H23 H 0.8876 0.4402 0.7731
C28 C 0.8758(4) 0.40634(15) 0.6372(5)
C29 C 0.8091(5) 0.38459(15) 0.5625(5)
H24 H 0.8291 0.3716 0.5045
C30 C 0.7120(4) 0.38268(14) 0.5764(5)
H25 H 0.6667 0.3680 0.5259
C31 C 1.2776(4) 0.41893(14) 0.6382(4)
H26 H 1.3218 0.4330 0.6916
C32 C 1.1763(4) 0.42045(14) 0.6390(4)
H27 H 1.1527 0.4351 0.6916
C33 C 1.1115(4) 0.39946(14) 0.5589(4)
C34 C 1.1481(4) 0.37881(13) 0.4786(4)
H28 H 1.1053 0.3656 0.4219
C35 C 1.2490(4) 0.37878(13) 0.4866(5)
H29 H 1.2740 0.3643 0.4346
N16 N 0.6785(3) 0.40063(13) 0.6582(4)
N17 N 0.9821(3) 0.41055(12) 0.6365(4)
N18 N 1.0071(3) 0.39696(13) 0.5552(4)
N19 N 1.3154(3) 0.39807(12) 0.5639(4)
C36 C 0.3017(4) 0.77170(14) 0.0416(5)
H30 H 0.3463 0.7873 0.0899
C37 C 0.1990(4) 0.77390(15) 0.0445(5)
H31 H 0.1759 0.7903 0.0935
C38 C 0.1338(4) 0.75039(15) -0.0296(5)
C39 C 0.1721(4) 0.72690(15) -0.1037(5)
H32 H 0.1301 0.7118 -0.1563
C40 C 0.2745(4) 0.72703(14) -0.0957(5)
H33 H 0.3003 0.7107 -0.1428
C41 C -0.2625(4) 0.72870(15) -0.0042(5)
H34 H -0.3047 0.7114 -0.0494
C42 C -0.1626(4) 0.73091(15) -0.0154(4)
H35 H -0.1398 0.7160 -0.0681
C43 C -0.0990(4) 0.75545(15) 0.0529(5)
C44 C -0.1355(4) 0.77772(15) 0.1291(4)
H36 H -0.0941 0.7947 0.1764
C45 C -0.2388(4) 0.77375(15) 0.1326(4)
H37 H -0.2645 0.7886 0.1832
N20 N 0.3383(3) 0.74848(13) -0.0265(4)
N21 N 0.0308(4) 0.74865(13) -0.0338(4)
N22 N 0.0065(3) 0.75889(13) 0.0556(4)
N23 N -0.3001(3) 0.74977(14) 0.0668(4)
C46 C 0.1078(5) 0.5749(2) 0.8293(6)
H38 H 0.1678 0.5748 0.8045
C47 C 0.0894(6) 0.5437(3) 0.8838(7)
H39 H 0.1334 0.5230 0.8973
C48 C 0.0001(5) 0.5443(2) 0.9189(6)
C49 C -0.0653(6) 0.57559(18) 0.8905(5)
H40 H -0.1286 0.5745 0.9075
C50 C -0.0399(4) 0.6067(2) 0.8404(5)
H41 H -0.0820 0.6280 0.8293
N24 N 0.0496(5) 0.60717(19) 0.8047(5)
N25 N -0.0368(4) 0.51056(16) 0.9752(5)
C46B C -0.1078(5) 0.4251(2) 1.1707(6)
H38B H -0.1678 0.4252 1.1955
C47B C -0.0894(6) 0.4563(3) 1.1162(7)
H39B H -0.1334 0.4770 1.1027
C48B C -0.0001(5) 0.4557(2) 1.0811(6)
C49B C 0.0653(6) 0.42441(18) 1.1095(5)
H40B H 0.1286 0.4255 1.0925
C50B C 0.0399(4) 0.3933(2) 1.1596(5)
H41B H 0.0820 0.3720 1.1707
N24B N -0.0496(5) 0.39283(19) 1.1953(5)
N25B N 0.0368(4) 0.48944(16) 1.0248(5)
O4 O 0.7208(3) 0.52485(13) 0.1420(4)
H42 H 0.7385 0.5323 0.0829
H43 H 0.6902 0.5035 0.1301
loop_
_geom_bond_atom_site_label_1
_geom_bond_atom_site_label_2
_geom_bond_site_symmetry_1
_geom_bond_site_symmetry_2
C1 N1 1_555 1_555
C2 N2 1_555 1_555
C3 N3 1_555 1_555
C4 N4 1_555 1_555
C5 N5 1_555 1_555
C6 N6 1_555 1_555
C7 N7 1_555 1_555
C8 N8 1_555 1_555
C9 C10 1_555 1_555
C10 H1 1_555 1_555
H2 C10 1_555 1_555
H3 C10 1_555 1_555
C11 H4 1_555 1_555
C12 C11 1_555 1_555
H5 C12 1_555 1_555
C13 C12 1_555 1_555
C14 C13 1_555 1_555
H6 C14 1_555 1_555
C15 C14 1_555 1_555
H7 C15 1_555 1_555
C16 H8 1_555 1_555
C17 C16 1_555 1_555
H9 C17 1_555 1_555
C18 C17 1_555 1_555
C19 C18 1_555 1_555
H10 C19 1_555 1_555
C20 C19 1_555 1_555
H11 C20 1_555 1_555
C21 H12 1_555 1_555
C22 C21 1_555 1_555
H13 C22 1_555 1_555
C23 C22 1_555 1_555
C24 C23 1_555 1_555
H14 C24 1_555 1_555
C25 C24 1_555 1_555
H15 C25 1_555 1_555
Mn1 N1 1_555 1_555
Mn2 N2 1_555 1_555
N9 C9 1_555 1_555
N10 C11 1_555 1_555
N11 C13 1_555 1_555
N12 C18 1_555 1_555
N13 C16 1_555 1_555
N14 C21 1_555 1_555
N15 C23 1_555 1_555
O1 Mn1 1_555 1_555
H16 O1 1_555 1_555
H17 O1 1_555 1_555
O2 Mn1 1_555 1_555
H18 O2 1_555 1_555
H19 O2 1_555 1_555
O3 Mn1 1_555 1_555
H20 O3 1_555 1_555
H21 O3 1_555 1_555
W1 C1 1_555 1_555
C26 H22 1_555 1_555
C27 C26 1_555 1_555
H23 C27 1_555 1_555
C28 C27 1_555 1_555
C29 C28 1_555 1_555
H24 C29 1_555 1_555
C30 C29 1_555 1_555
H25 C30 1_555 1_555
C31 H26 1_555 1_555
C32 C31 1_555 1_555
H27 C32 1_555 1_555
C33 C32 1_555 1_555
C34 C33 1_555 1_555
H28 C34 1_555 1_555
C35 C34 1_555 1_555
H29 C35 1_555 1_555
N16 C26 1_555 1_555
N17 C28 1_555 1_555
N18 C33 1_555 1_555
N19 C31 1_555 1_555
C36 H30 1_555 1_555
C37 C36 1_555 1_555
H31 C37 1_555 1_555
C38 C37 1_555 1_555
C39 C38 1_555 1_555
H32 C39 1_555 1_555
C40 C39 1_555 1_555
H33 C40 1_555 1_555
C41 H34 1_555 1_555
C42 C41 1_555 1_555
H35 C42 1_555 1_555
C43 C42 1_555 1_555
C44 C43 1_555 1_555
H36 C44 1_555 1_555
C45 C44 1_555 1_555
H37 C45 1_555 1_555
N20 C36 1_555 1_555
N21 C38 1_555 1_555
N22 C43 1_555 1_555
N23 C41 1_555 1_555
C46 H38 1_555 1_555
C47 C46 1_555 1_555
H39 C47 1_555 1_555
C48 C47 1_555 1_555
C49 C48 1_555 1_555
H40 C49 1_555 1_555
C50 C49 1_555 1_555
H41 C50 1_555 1_555
N24 C46 1_555 1_555
N25 C48 1_555 1_555
O4 H42 1_555 1_555
H43 O4 1_555 1_555
C21B H12B 1_555 1_555
C22B C21B 1_555 1_555
H13B C22B 1_555 1_555
C23B C22B 1_555 1_555
C24B C23B 1_555 1_555
H14B C24B 1_555 1_555
C25B C24B 1_555 1_555
H15B C25B 1_555 1_555
N14B C21B 1_555 1_555
N15B N15 1_555 1_555
C1B N1B 1_555 1_555
C2B N2B 1_555 1_555
C3B N3B 1_555 1_555
C4B N4B 1_555 1_555
C5B N5B 1_555 1_555
C6B N6B 1_555 1_555
C7B N7B 1_555 1_555
C8B N8B 1_555 1_555
C9B C10B 1_555 1_555
C10B H1B 1_555 1_555
H2B C10B 1_555 1_555
H3B C10B 1_555 1_555
C11B H4B 1_555 1_555
C12B C11B 1_555 1_555
H5B C12B 1_555 1_555
C13B C12B 1_555 1_555
C14B C13B 1_555 1_555
H6B C14B 1_555 1_555
C15B C14B 1_555 1_555
H7B C15B 1_555 1_555
C16B H8B 1_555 1_555
C17B C16B 1_555 1_555
H9B C17B 1_555 1_555
C18B C17B 1_555 1_555
C19B C18B 1_555 1_555
H10B C19B 1_555 1_555
C20B C19B 1_555 1_555
H11B C20B 1_555 1_555
Mn1B N1B 1_555 1_555
N2B Mn2 1_555 1_555
N9B Mn2 1_555 1_555
N10B C11B 1_555 1_555
N11B C13B 1_555 1_555
N12B C18B 1_555 1_555
N13B C16B 1_555 1_555
O1B Mn1B 1_555 1_555
H16B O1B 1_555 1_555
H17B O1B 1_555 1_555
O2B Mn1B 1_555 1_555
H18B O2B 1_555 1_555
H19B O2B 1_555 1_555
O3B Mn1B 1_555 1_555
H20B O3B 1_555 1_555
H21B O3B 1_555 1_555
W1B C1B 1_555 1_555
Mn1_2 N13 1_555 1_555
Mn1B_2 N13B 1_555 1_555
Mn2_2 N14B 1_555 1_555
N13_2 Mn1 1_555 1_555
N13B_2 Mn1B 1_555 1_555
N14B_2 Mn2 1_555 1_555
C46B H38B 1_555 1_555
C47B C46B 1_555 1_555
H39B C47B 1_555 1_555
C48B C47B 1_555 1_555
C49B C48B 1_555 1_555
H40B C49B 1_555 1_555
C50B C49B 1_555 1_555
H41B C50B 1_555 1_555
N24B C46B 1_555 1_555
N25B N25 1_555 1_555
C2 W1 1_555 1_555
C3 W1 1_555 1_555
C4 W1 1_555 1_555
C5 W1 1_555 1_555
C6 W1 1_555 1_555
C7 W1 1_555 1_555
C8 W1 1_555 1_555
C15 N10 1_555 1_555
C20 N13 1_555 1_555
C25 N14 1_555 1_555
Mn1 N10 1_555 1_555
Mn2 N9 1_555 1_555
Mn2 N14 1_555 1_555
N11 N12 1_555 1_555
C30 N16 1_555 1_555
C35 N19 1_555 1_555
N17 N18 1_555 1_555
C40 N20 1_555 1_555
C45 N23 1_555 1_555
N21 N22 1_555 1_555
C50 N24 1_555 1_555
C23B N15B 1_555 1_555
C25B N14B 1_555 1_555
C2B W1B 1_555 1_555
C3B W1B 1_555 1_555
C4B W1B 1_555 1_555
C5B W1B 1_555 1_555
C6B W1B 1_555 1_555
C7B W1B 1_555 1_555
C8B W1B 1_555 1_555
C9B N9B 1_555 1_555
C15B N10B 1_555 1_555
C20B N13B 1_555 1_555
Mn1B N10B 1_555 1_555
N11B N12B 1_555 1_555
C48B N25B 1_555 1_555
C50B N24B 1_555 1_555

#END
