
#######################################################################
#
#                 Cambridge Crystallographic Data Centre
#                                CCDC 
#
#######################################################################
#
# If this CIF has been generated from an entry in the Cambridge 
# Structural Database, then it will include bibliographic, chemical, 
# crystal, experimental, refinement or atomic coordinate data resulting 
# from the CCDC's data processing and validation procedures.
#
#######################################################################

data_GOZPUI
_symmetry_cell_setting           triclinic
_symmetry_space_group_name_H-M   'P -1'
_symmetry_Int_Tables_number      2
_space_group_name_Hall           '-P 1'
loop_
_symmetry_equiv_pos_site_id
_symmetry_equiv_pos_as_xyz
1 x,y,z
2 -x,-y,-z
_cell_length_a                   8.6975(12)
_cell_length_b                   9.9815(13)
_cell_length_c                   10.1160(13)
_cell_angle_alpha                93.095(2)
_cell_angle_beta                 111.272(2)
_cell_angle_gamma                105.188(2)
_cell_volume                     778.872
loop_
_atom_site_label
_atom_site_type_symbol
_atom_site_fract_x
_atom_site_fract_y
_atom_site_fract_z
Cu1 Cu 0.5000 0.5000 1.0000
Cu2 Cu 0.77963(4) 0.60863(3) 0.66397(3)
C1 C 0.4081(6) 1.1104(4) 0.6867(4)
H1 H 0.4325 1.1931 0.6498
C2 C 0.3846(6) 0.9796(4) 0.6237(4)
H2 H 0.3878 0.9549 0.5350
C3 C 0.3568(4) 0.9656(3) 0.8289(3)
H3 H 0.3379 0.9294 0.9064
C4 C 0.3228(3) 0.7376(3) 0.6938(3)
H4 H 0.2295 0.6968 0.6008
H5 H 0.2850 0.6990 0.7668
C5 C 0.4818(3) 0.6943(2) 0.7004(3)
N1 N 0.3551(3) 0.8909(2) 0.7159(3)
N2 N 0.3894(3) 1.0989(3) 0.8141(3)
H6 H 0.3975 1.1672 0.8744
O1 O 0.5367(2) 0.74504(19) 0.58880(19)
H7 H 0.4783 0.6766 0.5033
O2 O 0.7343(2) 0.91693(19) 0.9053(2)
O3 O 0.8048(2) 0.69501(19) 0.85335(19)
O4 O 0.6055(2) 0.69841(18) 0.98560(19)
O5 O 0.5680(2) 0.46063(18) 0.65026(19)
O6 O 0.3758(2) 0.44448(18) 0.79156(19)
O7 O 0.2549(2) 0.45524(19) 0.53019(19)
O8 O 0.9502(3) 0.4772(3) 0.7549(3)
H8 H 0.9451 0.4080 0.7066
H9 H 1.0418 0.4943 0.8405
O9 O 0.9608(3) 0.7745(2) 0.6558(2)
H10 H 0.9832 0.8571 0.6976
H11 H 0.9563 0.7735 0.5681
O10 O 0.7587(3) 0.4523(2) 0.9931(2)
H12 H 0.7521 0.3602 0.9587
H13 H 0.7887 0.5174 0.9426
P1 P 0.66944(8) 0.75830(6) 0.87224(7)
P2 P 0.41673(8) 0.49915(6) 0.66722(6)
Cu2A Cu 0.22037(4) 0.39137(3) 0.33603(3)
C1A C 0.5919(6) -0.1104(4) 0.3133(4)
H1A H 0.5675 -0.1931 0.3502
C2A C 0.6154(6) 0.0204(4) 0.3763(4)
H2A H 0.6122 0.0451 0.4650
C3A C 0.6432(4) 0.0344(3) 0.1711(3)
H3A H 0.6621 0.0706 0.0936
C4A C 0.6772(3) 0.2624(3) 0.3062(3)
H4A H 0.7705 0.3032 0.3992
H5A H 0.7150 0.3010 0.2332
C5A C 0.5182(3) 0.3057(2) 0.2996(3)
N1A N 0.6449(3) 0.1091(2) 0.2841(3)
N2A N 0.6106(3) -0.0989(3) 0.1859(3)
H6A H 0.6025 -0.1672 0.1256
O1A O 0.4633(2) 0.25496(19) 0.41120(19)
H7A H 0.5217 0.3234 0.4967
O2A O 0.2657(2) 0.08307(19) 0.0947(2)
O3A O 0.1952(2) 0.30499(19) 0.14665(19)
O4A O 0.3945(2) 0.30159(18) 0.01440(19)
O5A O 0.4320(2) 0.53937(18) 0.34974(19)
O6A O 0.6242(2) 0.55552(18) 0.20844(19)
O7A O 0.7451(2) 0.54476(19) 0.46981(19)
O8A O 0.0498(3) 0.5228(3) 0.2451(3)
H8A H 0.0549 0.5920 0.2934
H9A H -0.0418 0.5057 0.1595
O9A O 0.0392(3) 0.2255(2) 0.3442(2)
H10A H 0.0168 0.1429 0.3024
H11A H 0.0437 0.2265 0.4319
P1A P 0.33056(8) 0.24170(6) 0.12776(7)
P2A P 0.58327(8) 0.50085(6) 0.33278(6)
O10A O 0.2413(3) 0.5477(2) 1.0069(2)
H12A H 0.2479 0.6398 1.0413
H13A H 0.2113 0.4826 1.0574
Cu1_2 Cu 0.5000 0.5000 0.0000
O4A_2 O 0.3945(2) 0.30159(18) 1.01440(19)
O6A_2 O 0.6242(2) 0.55552(18) 1.20844(19)
O11 O 0.8300(3) 0.2088(3) 0.9778(3)
H14 H 0.9537 0.2262 1.0236
H15 H 0.8001 0.1173 0.9233
O12 O 0.9692(3) 0.7631(3) 0.3720(3)
H16 H 0.9858 0.8347 0.3197
H17 H 0.8690 0.6991 0.3135
O13 O 0.0093(3) 0.9788(2) 0.1945(2)
H18 H -0.0873 0.9429 0.1084
H19 H 0.1046 1.0155 0.1844
loop_
_geom_bond_atom_site_label_1
_geom_bond_atom_site_label_2
_geom_bond_site_symmetry_1
_geom_bond_site_symmetry_2
Cu1 O4 1_555 1_555
Cu2 O1 1_555 1_555
C1 H1 1_555 1_555
C2 C1 1_555 1_555
H2 C2 1_555 1_555
C3 H3 1_555 1_555
C4 H4 1_555 1_555
H5 C4 1_555 1_555
C5 C4 1_555 1_555
N1 C2 1_555 1_555
N2 C1 1_555 1_555
H6 N2 1_555 1_555
O1 C5 1_555 1_555
H7 O1 1_555 1_555
O2 P1 1_555 1_555
O3 Cu2 1_555 1_555
O4 P1 1_555 1_555
O5 Cu2 1_555 1_555
O6 Cu1 1_555 1_555
O7 P2 1_555 1_555
O8 Cu2 1_555 1_555
H8 O8 1_555 1_555
H9 O8 1_555 1_555
O9 Cu2 1_555 1_555
H10 O9 1_555 1_555
H11 O9 1_555 1_555
O10 Cu1 1_555 1_555
H12 O10 1_555 1_555
H13 O10 1_555 1_555
P1 C5 1_555 1_555
P2 C5 1_555 1_555
O11 H14 1_555 1_555
H15 O11 1_555 1_555
O12 H16 1_555 1_555
H17 O12 1_555 1_555
O13 H18 1_555 1_555
H19 O13 1_555 1_555
Cu2A O7 1_555 1_555
C1A H1A 1_555 1_555
C2A C1A 1_555 1_555
H2A C2A 1_555 1_555
C3A H3A 1_555 1_555
C4A H4A 1_555 1_555
H5A C4A 1_555 1_555
C5A C4A 1_555 1_555
N1A C2A 1_555 1_555
N2A C1A 1_555 1_555
H6A N2A 1_555 1_555
O1A Cu2A 1_555 1_555
H7A O1A 1_555 1_555
O2A P1A 1_555 1_555
O3A Cu2A 1_555 1_555
O4A P1A 1_555 1_555
O5A Cu2A 1_555 1_555
O6A P2A 1_555 1_555
O7A Cu2 1_555 1_555
O8A Cu2A 1_555 1_555
H8A O8A 1_555 1_555
H9A O8A 1_555 1_555
O9A Cu2A 1_555 1_555
H10A O9A 1_555 1_555
H11A O9A 1_555 1_555
P1A C5A 1_555 1_555
P2A C5A 1_555 1_555
O10A Cu1 1_555 1_555
H12A O10A 1_555 1_555
H13A O10A 1_555 1_555
Cu1_2 O4A 1_555 1_555
O4A_2 Cu1 1_555 1_555
O6A_2 Cu1 1_555 1_555
C3 N1 1_555 1_555
C3 N2 1_555 1_555
C4 N1 1_555 1_555
O3 P1 1_555 1_555
O5 P2 1_555 1_555
O6 P2 1_555 1_555
C3A N1A 1_555 1_555
C3A N2A 1_555 1_555
C4A N1A 1_555 1_555
C5A O1A 1_555 1_555
O3A P1A 1_555 1_555
O5A P2A 1_555 1_555
O6A Cu1_2 1_555 1_555
O7A P2A 1_555 1_555

#END
