
#######################################################################
#
#                 Cambridge Crystallographic Data Centre
#                                CCDC 
#
#######################################################################
#
# If this CIF has been generated from an entry in the Cambridge 
# Structural Database, then it will include bibliographic, chemical, 
# crystal, experimental, refinement or atomic coordinate data resulting 
# from the CCDC's data processing and validation procedures.
#
#######################################################################

data_GOZREU
_symmetry_cell_setting           triclinic
_symmetry_space_group_name_H-M   'P -1'
_symmetry_Int_Tables_number      2
_space_group_name_Hall           '-P 1'
loop_
_symmetry_equiv_pos_site_id
_symmetry_equiv_pos_as_xyz
1 x,y,z
2 -x,-y,-z
_cell_length_a                   7.265(5)
_cell_length_b                   10.517(5)
_cell_length_c                   16.411(5)
_cell_angle_alpha                96.040(5)
_cell_angle_beta                 93.620(5)
_cell_angle_gamma                95.753(5)
_cell_volume                     1237.21
loop_
_atom_site_label
_atom_site_type_symbol
_atom_site_fract_x
_atom_site_fract_y
_atom_site_fract_z
Co1 Co 1.0000 1.0000 0.0000
Mo1 Mo 0.65264(5) 0.83734(4) 0.11027(3)
Mo2 Mo 0.37846(5) 0.52958(4) 0.16648(3)
Mo3 Mo 0.36395(5) 0.23744(4) 0.08565(3)
Mo4 Mo 0.27533(5) 0.46854(3) -0.04537(3)
C1 C 0.8288(7) 0.7287(5) 0.2708(3)
H1 H 0.7180 0.6764 0.2717
C2 C 1.0321(6) 0.8594(4) 0.2322(3)
H2 H 1.0982 0.9167 0.2025
C3 C 1.2788(6) 0.8438(5) 0.3454(3)
H3 H 1.3398 0.7659 0.3381
H4 H 1.3533 0.9113 0.3226
C4 C 1.2125(7) 0.8494(5) 0.5528(3)
C5 C 1.1687(6) 0.7858(5) 0.6251(3)
C6 C 1.1270(7) 0.6529(5) 0.6195(4)
H5 H 1.1299 0.6031 0.5694
C7 C 1.0819(8) 0.5957(6) 0.6876(4)
H6 H 1.0548 0.5069 0.6843
C8 C 1.1145(7) 0.7955(5) 0.7675(3)
H7 H 1.1079 0.8431 0.8181
C9 C 1.1632(7) 0.8556(5) 0.7008(3)
H8 H 1.1930 0.9444 0.7065
C10 C 1.2615(6) 0.9960(5) 0.4764(3)
C11 C 1.2933(6) 1.1253(5) 0.4474(3)
C12 C 1.2916(8) 1.2320(5) 0.5028(4)
H9 H 1.2671 1.2242 0.5571
C13 C 1.3272(8) 1.3509(6) 0.4760(4)
H10 H 1.3281 1.4254 0.5120
C14 C 1.3612(8) 1.3579(6) 0.3957(4)
H11 H 1.3863 1.4373 0.3764
C15 C 1.3579(8) 1.2483(6) 0.3447(4)
H12 H 1.3813 1.2548 0.2902
N1 N 0.8622(5) 0.8033(4) 0.2103(2)
N2 N 0.9639(6) 0.7356(4) 0.3280(3)
N3 N 1.0939(5) 0.8221(4) 0.3020(3)
N4 N 1.2641(5) 0.8804(4) 0.4319(3)
N5 N 1.2324(5) 0.7853(4) 0.4808(3)
N6 N 1.2301(5) 0.9797(4) 0.5535(3)
N7 N 1.0771(6) 0.6692(5) 0.7594(3)
H13 H 1.0483 0.6323 0.8019
N8 N 1.3227(6) 1.1295(5) 0.3684(3)
O1 O 0.8246(4) 0.9581(3) 0.0936(2)
O2 O 0.5208(4) 0.9053(3) 0.1805(2)
O3 O 0.5609(4) 0.6512(3) 0.12525(19)
O4 O 0.5174(5) 0.4962(3) 0.2474(2)
O5 O 0.2261(4) 0.6223(3) 0.2103(2)
O6 O 0.2123(4) 0.5590(3) 0.0415(2)
O7 O 0.2347(4) 0.3620(3) 0.1455(2)
O8 O 0.5312(4) 0.2142(3) 0.1568(2)
O9 O 0.1997(4) 0.1054(3) 0.0830(2)
O10 O 0.4928(4) 0.1740(3) -0.0113(2)
O11 O 0.2011(4) 0.2979(3) -0.02713(19)
O12 O 0.1324(4) 0.5032(3) -0.1235(2)
O13 O 0.5022(4) 0.5765(3) -0.06131(19)
O14 O 1.1305(4) 0.8388(3) 0.0102(3)
H14 H 1.2468 0.8338 0.0150
H15 H 1.0638 0.7751 0.0243
Mo1A Mo 0.34736(5) 0.16266(4) -0.11027(3)
Mo2A Mo 0.62154(5) 0.47042(4) -0.16648(3)
Mo3A Mo 0.63605(5) 0.76256(4) -0.08565(3)
Mo4A Mo 0.72467(5) 0.53146(3) 0.04537(3)
C1A C 0.1712(7) 0.2713(5) -0.2708(3)
H1A H 0.2820 0.3236 -0.2717
C2A C -0.0321(6) 0.1406(4) -0.2322(3)
H2A H -0.0982 0.0833 -0.2025
C3A C -0.2788(6) 0.1562(5) -0.3454(3)
H3A H -0.3398 0.2341 -0.3381
H4A H -0.3533 0.0887 -0.3226
C4A C -0.2125(7) 0.1506(5) -0.5528(3)
C5A C -0.1687(6) 0.2142(5) -0.6251(3)
C6A C -0.1270(7) 0.3471(5) -0.6195(4)
H5A H -0.1299 0.3969 -0.5694
C7A C -0.0819(8) 0.4043(6) -0.6876(4)
H6A H -0.0548 0.4931 -0.6843
C8A C -0.1145(7) 0.2045(5) -0.7675(3)
H7A H -0.1079 0.1569 -0.8181
C9A C -0.1632(7) 0.1444(5) -0.7008(3)
H8A H -0.1930 0.0556 -0.7065
C10A C -0.2615(6) 0.0040(5) -0.4764(3)
C11A C -0.2933(6) -0.1253(5) -0.4474(3)
C12A C -0.2916(8) -0.2320(5) -0.5028(4)
H9A H -0.2671 -0.2242 -0.5571
C13A C -0.3272(8) -0.3509(6) -0.4760(4)
H10A H -0.3281 -0.4254 -0.5120
C14A C -0.3612(8) -0.3579(6) -0.3957(4)
H11A H -0.3863 -0.4373 -0.3764
C15A C -0.3579(8) -0.2483(6) -0.3447(4)
H12A H -0.3813 -0.2548 -0.2902
N1A N 0.1378(5) 0.1967(4) -0.2103(2)
N2A N 0.0361(6) 0.2644(4) -0.3280(3)
N3A N -0.0939(5) 0.1779(4) -0.3020(3)
N4A N -0.2641(5) 0.1196(4) -0.4319(3)
N5A N -0.2324(5) 0.2147(4) -0.4808(3)
N6A N -0.2301(5) 0.0203(4) -0.5535(3)
N7A N -0.0771(6) 0.3308(5) -0.7594(3)
H13A H -0.0483 0.3677 -0.8019
N8A N -0.3227(6) -0.1295(5) -0.3684(3)
O1A O 0.1754(4) 0.0419(3) -0.0936(2)
O2A O 0.4792(4) 0.0947(3) -0.1805(2)
O3A O 0.4391(4) 0.3488(3) -0.12525(19)
O4A O 0.4826(5) 0.5038(3) -0.2474(2)
O5A O 0.7739(4) 0.3777(3) -0.2103(2)
O6A O 0.7877(4) 0.4410(3) -0.0415(2)
O7A O 0.7653(4) 0.6380(3) -0.1455(2)
O8A O 0.4688(4) 0.7858(3) -0.1568(2)
O9A O 0.8003(4) 0.8946(3) -0.0830(2)
O10A O 0.5072(4) 0.8260(3) 0.0113(2)
O11A O 0.7989(4) 0.7021(3) 0.02713(19)
O12A O 0.8676(4) 0.4968(3) 0.1235(2)
O13A O 0.4978(4) 0.4235(3) 0.06131(19)
O14A O 0.8695(4) 1.1612(3) -0.0102(3)
H14A H 0.7532 1.1662 -0.0150
H15A H 0.9362 1.2249 -0.0243
Co1_2 Co 0.0000 0.0000 0.0000
O1A_2 O 1.1754(4) 1.0419(3) -0.0936(2)
O9_2 O 1.1997(4) 1.1054(3) 0.0830(2)
loop_
_geom_bond_atom_site_label_1
_geom_bond_atom_site_label_2
_geom_bond_site_symmetry_1
_geom_bond_site_symmetry_2
Co1 O1 1_555 1_555
Mo1 N1 1_555 1_555
Mo2 O3 1_555 1_555
Mo3 O7 1_555 1_555
Mo4 O6 1_555 1_555
C1 H1 1_555 1_555
C2 H2 1_555 1_555
C3 H3 1_555 1_555
H4 C3 1_555 1_555
C4 C5 1_555 1_555
C5 C6 1_555 1_555
C6 H5 1_555 1_555
C7 C6 1_555 1_555
H6 C7 1_555 1_555
C8 H7 1_555 1_555
C9 C5 1_555 1_555
H8 C9 1_555 1_555
C10 C11 1_555 1_555
C11 C12 1_555 1_555
C12 H9 1_555 1_555
C13 C12 1_555 1_555
H10 C13 1_555 1_555
C14 C13 1_555 1_555
H11 C14 1_555 1_555
C15 C14 1_555 1_555
H12 C15 1_555 1_555
N1 C1 1_555 1_555
N2 C1 1_555 1_555
N3 C2 1_555 1_555
N4 C3 1_555 1_555
N5 C4 1_555 1_555
N6 C4 1_555 1_555
N7 C7 1_555 1_555
H13 N7 1_555 1_555
N8 C11 1_555 1_555
O1 Mo1 1_555 1_555
O2 Mo1 1_555 1_555
O3 Mo1 1_555 1_555
O4 Mo2 1_555 1_555
O5 Mo2 1_555 1_555
O6 Mo2 1_555 1_555
O7 Mo2 1_555 1_555
O8 Mo3 1_555 1_555
O9 Mo3 1_555 1_555
O10 Mo3 1_555 1_555
O11 Mo3 1_555 1_555
O12 Mo4 1_555 1_555
O13 Mo4 1_555 1_555
O14 Co1 1_555 1_555
H14 O14 1_555 1_555
H15 O14 1_555 1_555
Mo1A O10 1_555 1_555
Mo2A O13 1_555 1_555
Mo3A O13 1_555 1_555
Mo4A O3 1_555 1_555
C1A H1A 1_555 1_555
C2A H2A 1_555 1_555
C3A H3A 1_555 1_555
H4A C3A 1_555 1_555
C4A C5A 1_555 1_555
C5A C6A 1_555 1_555
C6A H5A 1_555 1_555
C7A C6A 1_555 1_555
H6A C7A 1_555 1_555
C8A H7A 1_555 1_555
C9A C5A 1_555 1_555
H8A C9A 1_555 1_555
C10A C11A 1_555 1_555
C11A C12A 1_555 1_555
C12A H9A 1_555 1_555
C13A C12A 1_555 1_555
H10A C13A 1_555 1_555
C14A C13A 1_555 1_555
H11A C14A 1_555 1_555
C15A C14A 1_555 1_555
H12A C15A 1_555 1_555
N1A Mo1A 1_555 1_555
N2A C1A 1_555 1_555
N3A C2A 1_555 1_555
N4A C3A 1_555 1_555
N5A C4A 1_555 1_555
N6A C4A 1_555 1_555
N7A C7A 1_555 1_555
H13A N7A 1_555 1_555
N8A C11A 1_555 1_555
O1A Mo1A 1_555 1_555
O2A Mo1A 1_555 1_555
O3A Mo4 1_555 1_555
O4A Mo2A 1_555 1_555
O5A Mo2A 1_555 1_555
O6A Mo2A 1_555 1_555
O7A Mo2A 1_555 1_555
O8A Mo3A 1_555 1_555
O9A Co1 1_555 1_555
O10A Mo1 1_555 1_555
O11A Mo1 1_555 1_555
O12A Mo4A 1_555 1_555
O13A Mo2 1_555 1_555
O14A Co1 1_555 1_555
H14A O14A 1_555 1_555
H15A O14A 1_555 1_555
Co1_2 O9 1_555 1_555
O1A_2 Co1 1_555 1_555
O9_2 Co1 1_555 1_555
Mo3 O13A 1_555 1_555
Mo4 O11 1_555 1_555
Mo4 O13A 1_555 1_555
C2 N1 1_555 1_555
C3 N3 1_555 1_555
C8 C9 1_555 1_555
C8 N7 1_555 1_555
C10 N4 1_555 1_555
C10 N6 1_555 1_555
C15 N8 1_555 1_555
N2 N3 1_555 1_555
N4 N5 1_555 1_555
O11 Mo1A 1_555 1_555
O13 Mo4A 1_555 1_555
Mo1A O3A 1_555 1_555
Mo2A O3A 1_555 1_555
Mo3A O7A 1_555 1_555
Mo3A O9A 1_555 1_555
Mo3A O10A 1_555 1_555
Mo3A O11A 1_555 1_555
Mo4A O6A 1_555 1_555
Mo4A O11A 1_555 1_555
Mo4A O13A 1_555 1_555
C1A N1A 1_555 1_555
C2A N1A 1_555 1_555
C3A N3A 1_555 1_555
C8A C9A 1_555 1_555
C8A N7A 1_555 1_555
C10A N4A 1_555 1_555
C10A N6A 1_555 1_555
C15A N8A 1_555 1_555
N2A N3A 1_555 1_555
N4A N5A 1_555 1_555
O1A Co1_2 1_555 1_555

#END
