
#######################################################################
#
#                 Cambridge Crystallographic Data Centre
#                                CCDC 
#
#######################################################################
#
# If this CIF has been generated from an entry in the Cambridge 
# Structural Database, then it will include bibliographic, chemical, 
# crystal, experimental, refinement or atomic coordinate data resulting 
# from the CCDC's data processing and validation procedures.
#
#######################################################################

data_GOZROE
_symmetry_cell_setting           triclinic
_symmetry_space_group_name_H-M   'P -1'
_symmetry_Int_Tables_number      2
_space_group_name_Hall           '-P 1'
loop_
_symmetry_equiv_pos_site_id
_symmetry_equiv_pos_as_xyz
1 x,y,z
2 -x,-y,-z
_cell_length_a                   12.365(5)
_cell_length_b                   15.110(5)
_cell_length_c                   16.998(5)
_cell_angle_alpha                107.701(5)
_cell_angle_beta                 107.640(5)
_cell_angle_gamma                95.000(5)
_cell_volume                     2826.42
loop_
_atom_site_label
_atom_site_type_symbol
_atom_site_fract_x
_atom_site_fract_y
_atom_site_fract_z
Cu1 Cu -0.23255(6) 0.14588(5) 0.18704(5)
Cu2 Cu -0.53281(6) -0.39650(6) 0.31835(5)
Mo1 Mo 0.15156(4) 0.09444(4) 0.30359(3)
Mo2 Mo 0.40342(4) 0.03426(4) 0.35243(3)
Mo3 Mo 0.27999(4) -0.16308(4) 0.36172(3)
Mo4 Mo 0.18658(4) -0.11998(4) 0.16038(3)
Mo5 Mo 0.03457(4) -0.09669(4) 0.31281(3)
Mo6 Mo -0.05891(4) -0.05532(4) 0.11217(3)
Mo7 Mo -0.18657(4) -0.24674(4) 0.12376(4)
Mo8 Mo 0.06593(4) -0.30947(4) 0.17348(3)
C1 C -0.1568(6) 0.3447(5) 0.1901(5)
H1 H -0.2104 0.3679 0.2153
C2 C -0.0619(5) 0.2498(4) 0.1367(4)
H2 H -0.0327 0.1961 0.1163
C3 C 0.0682(5) 0.3645(5) 0.1120(4)
H3 H 0.0465 0.4091 0.0822
H4 H 0.0828 0.3102 0.0712
C4 C 0.2599(5) 0.4790(4) 0.2056(4)
C5 C 0.2828(5) 0.5313(4) 0.1510(4)
C6 C 0.2223(5) 0.5128(4) 0.0643(4)
H5 H 0.1607 0.4614 0.0332
C7 C 0.2537(6) 0.5716(5) 0.0232(4)
H6 H 0.2134 0.5603 -0.0359
C8 C 0.3433(6) 0.6453(5) 0.0696(5)
H7 H 0.3642 0.6865 0.0433
C9 C 0.4043(6) 0.6593(5) 0.1571(4)
H8 H 0.4671 0.7096 0.1886
C10 C 0.2873(5) 0.4366(4) 0.3172(4)
C11 C 0.3374(5) 0.4251(4) 0.4048(4)
C12 C 0.3547(5) 0.4974(5) 0.4811(4)
H9 H 0.3306 0.5537 0.4798
C13 C 0.4089(5) 0.4861(5) 0.5613(4)
H10 H 0.4208 0.5357 0.6133
C14 C 0.4217(6) 0.3347(5) 0.4898(4)
H11 H 0.4423 0.2776 0.4922
C15 C 0.3701(6) 0.3412(5) 0.4089(4)
H12 H 0.3572 0.2901 0.3577
C16 C -0.0455(5) 0.2611(4) 0.3611(4)
H13 H -0.0279 0.3012 0.3327
C17 C 0.0121(5) 0.2850(5) 0.4501(4)
H14 H 0.0671 0.3408 0.4814
C18 C -0.0123(5) 0.2258(5) 0.4920(4)
H15 H 0.0254 0.2413 0.5522
C19 C -0.0938(5) 0.1422(4) 0.4438(4)
H16 H -0.1110 0.1004 0.4707
C20 C -0.1482(5) 0.1229(4) 0.3554(4)
C21 C -0.2406(5) 0.0411(4) 0.2974(4)
C22 C -0.2508(5) -0.0631(4) 0.3889(4)
H17 H -0.1672 -0.0503 0.4161
H18 H -0.2815 -0.0246 0.4309
C23 C -0.2976(5) -0.3030(5) 0.3454(4)
H19 H -0.2755 -0.3614 0.3372
C24 C -0.4001(5) -0.2010(4) 0.3585(4)
H20 H -0.4604 -0.1693 0.3627
C25 C -0.3849(5) -0.0412(4) 0.1842(4)
C26 C -0.4799(5) -0.0690(4) 0.0976(4)
C27 C -0.5567(5) -0.0109(4) 0.0825(4)
H21 H -0.5522 0.0448 0.1271
C28 C -0.6412(5) -0.0358(5) 0.0001(4)
H22 H -0.6927 0.0044 -0.0093
C29 C -0.5791(5) -0.1725(4) -0.0493(4)
H23 H -0.5869 -0.2288 -0.0943
C30 C -0.4927(5) -0.1532(5) 0.0313(4)
H24 H -0.4447 -0.1959 0.0405
N1 N -0.1470(4) 0.2521(3) 0.1687(3)
N2 N -0.0862(5) 0.3979(4) 0.1729(4)
N3 N -0.0246(4) 0.3344(4) 0.1382(3)
N4 N 0.1738(4) 0.4094(3) 0.1896(3)
N5 N 0.1905(4) 0.3802(4) 0.2595(3)
N6 N 0.3328(4) 0.4991(3) 0.2876(3)
N7 N 0.3758(4) 0.6032(4) 0.1971(3)
N8 N 0.4442(4) 0.4059(4) 0.5654(3)
N9 N -0.1268(4) 0.1813(3) 0.3139(3)
N10 N -0.3037(4) 0.0403(3) 0.2170(3)
N11 N -0.2824(4) -0.0364(3) 0.3085(3)
N12 N -0.3762(4) -0.0902(3) 0.2365(3)
N13 N -0.2953(4) -0.1610(3) 0.3684(3)
N14 N -0.2274(4) -0.2273(4) 0.3610(4)
N15 N -0.4062(4) -0.2922(3) 0.3418(3)
N16 N -0.6520(4) -0.1144(3) -0.0659(3)
O1 O 0.1021(3) 0.1758(3) 0.2595(3)
O2 O 0.1756(4) 0.1433(3) 0.4123(3)
O3 O 0.3061(3) 0.1094(3) 0.3020(3)
O4 O 0.4183(4) 0.0894(3) 0.4586(3)
O5 O 0.5320(4) 0.0707(3) 0.3443(3)
O6 O 0.4067(3) -0.0925(3) 0.3529(2)
O7 O 0.3295(3) -0.2660(3) 0.3606(3)
O8 O 0.2910(3) -0.1081(3) 0.4672(3)
O9 O 0.2147(3) -0.2221(3) 0.2079(2)
O10 O 0.1656(4) -0.1772(3) 0.0528(3)
O11 O 0.3283(3) -0.0571(3) 0.2053(2)
O12 O 0.1989(3) -0.0483(3) 0.3107(2)
O13 O 0.1108(3) -0.0127(3) 0.1558(2)
O14 O 0.0026(3) 0.0046(3) 0.2664(2)
O15 O -0.1076(3) 0.0478(3) 0.1158(3)
O16 O -0.0779(3) -0.1135(3) 0.0044(3)
O17 O 0.0185(3) -0.1694(3) 0.1619(2)
O18 O 0.1074(3) -0.2052(3) 0.3172(2)
O19 O 0.1110(3) -0.3906(3) 0.2200(3)
O20 O 0.0457(4) -0.3617(3) 0.0654(3)
O21 O -0.0911(3) -0.3252(3) 0.1698(3)
O22 O -0.2050(4) -0.2993(3) 0.0147(3)
O23 O -0.3159(3) -0.2824(3) 0.1315(3)
O24 O -0.1086(3) -0.1588(3) 0.2659(3)
O25 O -0.1896(3) -0.1215(3) 0.1227(3)
O26 O 0.0520(3) -0.0397(3) 0.4195(2)
O27 O -0.4444(5) -0.5202(4) 0.2407(3)
H25 H -0.4402 -0.5773 0.2120
H26 H -0.4097 -0.5041 0.2095
O28 O -0.3462(5) 0.2643(5) 0.2610(4)
Cu1A Cu -0.76745(6) -0.14588(5) -0.18704(5)
Cu2_2 Cu 0.46719(6) -0.39650(6) 0.31835(5)
Cu2_3 Cu 0.46719(6) 0.60350(6) 0.31835(5)
Cu2A Cu 0.53281(6) 0.39650(6) 0.68165(5)
N6_2 N -0.6672(4) -0.5009(3) 0.2876(3)
N7_2 N -0.6242(4) -0.3968(4) 0.1971(3)
N8A N -0.4442(4) -0.4059(4) 0.4346(3)
N16A N -0.3480(4) 0.1144(3) 0.0659(3)
O7_2 O -0.6705(3) -0.2660(3) 0.3606(3)
O29 O 0.2936(4) 0.1523(4) 0.1460(3)
H27 H 0.2297 0.1371 0.1033
H28 H 0.2946 0.1476 0.1933
O30 O 0.6722(5) 0.2625(4) 0.4276(3)
H29 H 0.6731 0.2710 0.3814
H30 H 0.6324 0.2060 0.4123
O31 O -0.0901(5) -0.4128(4) 0.2978(4)
H31 H -0.0926 -0.3873 0.2593
H32 H -0.0195 -0.4034 0.3301
O32 O 0.1598(5) -0.3781(4) 0.4087(3)
H33 H 0.1815 -0.3763 0.3648
H34 H 0.1461 -0.3227 0.4299
O33 O -0.6003(6) -0.6868(4) 0.1386(4)
H35 H -0.5845 -0.7405 0.1228
H36 H -0.6625 -0.6857 0.0989
O34 O -0.4232(11) -0.4746(9) 0.0869(8)
O35 O -0.3350(15) -0.4682(12) 0.1446(11)
O36 O -0.202(2) -0.5183(18) 0.3575(16)
O37 O 0.100(2) -0.4878(16) 0.499(2)
loop_
_geom_bond_atom_site_label_1
_geom_bond_atom_site_label_2
_geom_bond_site_symmetry_1
_geom_bond_site_symmetry_2
Cu1 N1 1_555 1_555
Cu2 N15 1_555 1_555
Mo1 O1 1_555 1_555
Mo2 O3 1_555 1_555
Mo3 O6 1_555 1_555
Mo4 O9 1_555 1_555
Mo5 O12 1_555 1_555
Mo6 O13 1_555 1_555
Mo7 O17 1_555 1_555
Mo8 O9 1_555 1_555
C1 H1 1_555 1_555
C2 H2 1_555 1_555
C3 H3 1_555 1_555
H4 C3 1_555 1_555
C4 C5 1_555 1_555
C5 C6 1_555 1_555
C6 H5 1_555 1_555
C7 C6 1_555 1_555
H6 C7 1_555 1_555
C8 C7 1_555 1_555
H7 C8 1_555 1_555
C9 C8 1_555 1_555
H8 C9 1_555 1_555
C10 C11 1_555 1_555
C11 C12 1_555 1_555
C12 H9 1_555 1_555
C13 C12 1_555 1_555
H10 C13 1_555 1_555
C14 H11 1_555 1_555
C15 C11 1_555 1_555
H12 C15 1_555 1_555
C16 H13 1_555 1_555
C17 C16 1_555 1_555
H14 C17 1_555 1_555
C18 C17 1_555 1_555
H15 C18 1_555 1_555
C19 C18 1_555 1_555
H16 C19 1_555 1_555
C20 C19 1_555 1_555
C21 C20 1_555 1_555
C22 H17 1_555 1_555
H18 C22 1_555 1_555
C23 H19 1_555 1_555
C24 H20 1_555 1_555
C25 C26 1_555 1_555
C26 C27 1_555 1_555
C27 H21 1_555 1_555
C28 C27 1_555 1_555
H22 C28 1_555 1_555
C29 H23 1_555 1_555
C30 C26 1_555 1_555
H24 C30 1_555 1_555
N1 C1 1_555 1_555
N2 C1 1_555 1_555
N3 C2 1_555 1_555
N4 C3 1_555 1_555
N5 C10 1_555 1_555
N6 C4 1_555 1_555
N7 C5 1_555 1_555
N8 C13 1_555 1_555
N9 Cu1 1_555 1_555
N10 Cu1 1_555 1_555
N11 C21 1_555 1_555
N12 C25 1_555 1_555
N13 C22 1_555 1_555
N14 C23 1_555 1_555
N15 C23 1_555 1_555
N16 C28 1_555 1_555
O2 Mo1 1_555 1_555
O3 Mo1 1_555 1_555
O4 Mo2 1_555 1_555
O5 Mo2 1_555 1_555
O6 Mo2 1_555 1_555
O7 Mo3 1_555 1_555
O8 Mo3 1_555 1_555
O9 Mo3 1_555 1_555
O10 Mo4 1_555 1_555
O11 Mo2 1_555 1_555
O12 Mo1 1_555 1_555
O13 Mo1 1_555 1_555
O14 Mo1 1_555 1_555
O15 Cu1 1_555 1_555
O16 Mo6 1_555 1_555
O17 Mo4 1_555 1_555
O18 Mo3 1_555 1_555
O19 Mo8 1_555 1_555
O20 Mo8 1_555 1_555
O21 Mo7 1_555 1_555
O22 Mo7 1_555 1_555
O23 Mo7 1_555 1_555
O24 Mo5 1_555 1_555
O25 Mo6 1_555 1_555
O26 Mo5 1_555 1_555
O27 Cu2 1_555 1_555
H25 O27 1_555 1_555
H26 O27 1_555 1_555
O28 Cu1 1_555 1_555
O29 H27 1_555 1_555
H28 O29 1_555 1_555
O30 H29 1_555 1_555
H30 O30 1_555 1_555
O31 H31 1_555 1_555
H32 O31 1_555 1_555
O32 H33 1_555 1_555
H34 O32 1_555 1_555
O33 H35 1_555 1_555
H36 O33 1_555 1_555
Cu1A N16 1_555 1_555
Cu2_2 O7 1_555 1_555
Cu2_3 N6 1_555 1_555
Cu2A N8 1_555 1_555
N6_2 Cu2 1_555 1_555
N7_2 Cu2 1_555 1_555
N8A Cu2 1_555 1_555
N16A Cu1 1_555 1_555
O7_2 Cu2 1_555 1_555
Mo2 O12 1_555 1_555
Mo3 O12 1_555 1_555
Mo4 O11 1_555 1_555
Mo4 O12 1_555 1_555
Mo4 O13 1_555 1_555
Mo5 O14 1_555 1_555
Mo5 O17 1_555 1_555
Mo5 O18 1_555 1_555
Mo6 O14 1_555 1_555
Mo6 O15 1_555 1_555
Mo6 O17 1_555 1_555
Mo7 O24 1_555 1_555
Mo7 O25 1_555 1_555
Mo8 O17 1_555 1_555
Mo8 O18 1_555 1_555
Mo8 O21 1_555 1_555
C2 N1 1_555 1_555
C3 N3 1_555 1_555
C4 N4 1_555 1_555
C9 N7 1_555 1_555
C10 N6 1_555 1_555
C14 C15 1_555 1_555
C14 N8 1_555 1_555
C16 N9 1_555 1_555
C20 N9 1_555 1_555
C21 N10 1_555 1_555
C22 N11 1_555 1_555
C24 N13 1_555 1_555
C24 N15 1_555 1_555
C25 N10 1_555 1_555
C29 C30 1_555 1_555
C29 N16 1_555 1_555
N2 N3 1_555 1_555
N4 N5 1_555 1_555
N7 Cu2_3 1_555 1_555
N11 N12 1_555 1_555
N13 N14 1_555 1_555

#END
