
#######################################################################
#
#                 Cambridge Crystallographic Data Centre
#                                CCDC 
#
#######################################################################
#
# If this CIF has been generated from an entry in the Cambridge 
# Structural Database, then it will include bibliographic, chemical, 
# crystal, experimental, refinement or atomic coordinate data resulting 
# from the CCDC's data processing and validation procedures.
#
#######################################################################

data_GOZRAQ
_symmetry_cell_setting           triclinic
_symmetry_space_group_name_H-M   'P -1'
_symmetry_Int_Tables_number      2
_space_group_name_Hall           '-P 1'
loop_
_symmetry_equiv_pos_site_id
_symmetry_equiv_pos_as_xyz
1 x,y,z
2 -x,-y,-z
_cell_length_a                   7.274(5)
_cell_length_b                   10.523(5)
_cell_length_c                   16.408(5)
_cell_angle_alpha                96.036(5)
_cell_angle_beta                 93.633(5)
_cell_angle_gamma                95.758(5)
_cell_volume                     1239.2
loop_
_atom_site_label
_atom_site_type_symbol
_atom_site_fract_x
_atom_site_fract_y
_atom_site_fract_z
Zn1 Zn 0.0000 -0.5000 0.5000
Mo1 Mo 0.34677(5) -0.33724(4) 0.38965(2)
Mo2 Mo 0.36393(5) -0.26260(4) 0.58584(2)
Mo3 Mo 0.27541(5) -0.03170(4) 0.45480(2)
Mo4 Mo 0.62089(5) -0.02974(4) 0.33344(2)
C1 C 0.1690(7) -0.2283(5) 0.2291(3)
H1 H 0.2794 -0.1758 0.2282
C2 C -0.0325(6) -0.3600(5) 0.2679(3)
H2 H -0.0979 -0.4179 0.2974
C3 C -0.2785(7) -0.3446(5) 0.1549(3)
H3 H -0.3517 -0.4127 0.1776
H4 H -0.3403 -0.2672 0.1626
C4 C -0.2123(7) -0.3499(5) -0.0527(3)
C5 C -0.1674(7) -0.2847(5) -0.1258(3)
C6 C -0.1622(7) -0.3563(5) -0.2012(3)
H5 H -0.1909 -0.4450 -0.2070
C7 C -0.1135(7) -0.2937(6) -0.2676(3)
H6 H -0.1070 -0.3401 -0.3186
C8 C -0.1274(8) -0.1530(5) -0.1195(3)
H7 H -0.1319 -0.1035 -0.0694
C9 C -0.0811(8) -0.0960(6) -0.1873(4)
H8 H -0.0530 -0.0074 -0.1838
C10 C -0.2604(6) -0.4968(5) 0.0234(3)
C11 C -0.2920(7) -0.6246(5) 0.0524(3)
C12 C -0.2924(8) -0.7332(6) -0.0026(3)
H9 H -0.2702 -0.7264 -0.0572
C13 C -0.3259(9) -0.8506(6) 0.0247(4)
H10 H -0.3254 -0.9252 -0.0111
C14 C -0.3567(8) -0.7469(7) 0.1548(3)
H11 H -0.3801 -0.7529 0.2094
C15 C -0.3600(9) -0.8578(6) 0.1043(4)
H12 H -0.3851 -0.9370 0.1239
N1 N 0.1361(5) -0.3028(4) 0.2896(2)
N2 N 0.0352(6) -0.2354(4) 0.1722(2)
N3 N -0.0940(5) -0.3223(4) 0.1976(2)
N4 N -0.2637(5) -0.3805(4) 0.0677(2)
N5 N -0.2315(5) -0.2851(4) 0.0187(2)
N6 N -0.2299(6) -0.4799(4) -0.0535(2)
N7 N -0.0766(6) -0.1689(5) -0.2585(3)
H13 H -0.0478 -0.1316 -0.3009
N8 N -0.3220(7) -0.6292(5) 0.1315(2)
O1 O 0.1744(4) -0.4583(3) 0.40573(18)
O2 O 0.4788(4) -0.4049(3) 0.31924(18)
O3 O 0.4913(4) -0.3270(3) 0.48845(17)
O4 O 0.1993(4) -0.3947(3) 0.58451(17)
O5 O 0.5320(4) -0.2858(3) 0.65704(18)
O6 O 0.2008(4) -0.2023(3) 0.47332(16)
O7 O 0.2126(4) 0.0590(3) 0.54128(17)
O8 O 0.5029(4) 0.0761(3) 0.43889(16)
O9 O 0.1320(4) 0.0020(3) 0.37584(17)
O10 O 0.7644(4) 0.1378(3) 0.35416(17)
O11 O 0.4812(5) 0.0037(3) 0.25254(18)
O12 O 0.7737(5) -0.1219(4) 0.2895(2)
O13 O 0.4388(4) -0.1514(3) 0.37397(16)
O14 O 0.1307(5) -0.6624(4) 0.5095(2)
H14 H 0.2463 -0.6657 0.5154
H15 H 0.0620 -0.7289 0.5178
Mo1A Mo -0.34677(5) -0.66276(4) 0.61035(2)
Mo2A Mo -0.36393(5) -0.73740(4) 0.41416(2)
Mo3A Mo -0.27541(5) -0.96830(4) 0.54520(2)
Mo4A Mo -0.62089(5) -0.97026(4) 0.66656(2)
C1A C -0.1690(7) -0.7717(5) 0.7709(3)
H1A H -0.2794 -0.8242 0.7718
C2A C 0.0325(6) -0.6400(5) 0.7321(3)
H2A H 0.0979 -0.5821 0.7026
C3A C 0.2785(7) -0.6554(5) 0.8451(3)
H3A H 0.3517 -0.5873 0.8224
H4A H 0.3403 -0.7328 0.8374
C4A C 0.2123(7) -0.6501(5) 1.0527(3)
C5A C 0.1674(7) -0.7153(5) 1.1258(3)
C6A C 0.1622(7) -0.6437(5) 1.2012(3)
H5A H 0.1909 -0.5550 1.2070
C7A C 0.1135(7) -0.7063(6) 1.2676(3)
H6A H 0.1070 -0.6599 1.3186
C8A C 0.1274(8) -0.8470(5) 1.1195(3)
H7A H 0.1319 -0.8965 1.0694
C9A C 0.0811(8) -0.9040(6) 1.1873(4)
H8A H 0.0530 -0.9926 1.1838
C10A C 0.2604(6) -0.5032(5) 0.9766(3)
C11A C 0.2920(7) -0.3754(5) 0.9476(3)
C12A C 0.2924(8) -0.2668(6) 1.0026(3)
H9A H 0.2702 -0.2736 1.0572
C13A C 0.3259(9) -0.1494(6) 0.9753(4)
H10A H 0.3254 -0.0748 1.0111
C14A C 0.3567(8) -0.2531(7) 0.8452(3)
H11A H 0.3801 -0.2471 0.7906
C15A C 0.3600(9) -0.1422(6) 0.8957(4)
H12A H 0.3851 -0.0630 0.8761
N1A N -0.1361(5) -0.6972(4) 0.7104(2)
N2A N -0.0352(6) -0.7646(4) 0.8278(2)
N3A N 0.0940(5) -0.6777(4) 0.8024(2)
N4A N 0.2637(5) -0.6195(4) 0.9323(2)
N5A N 0.2315(5) -0.7149(4) 0.9813(2)
N6A N 0.2299(6) -0.5201(4) 1.0535(2)
N7A N 0.0766(6) -0.8311(5) 1.2585(3)
H13A H 0.0478 -0.8684 1.3009
N8A N 0.3220(7) -0.3708(5) 0.8685(2)
O1A O -0.1744(4) -0.5417(3) 0.59427(18)
O2A O -0.4788(4) -0.5951(3) 0.68076(18)
O3A O -0.4913(4) -0.6730(3) 0.51155(17)
O4A O -0.1993(4) -0.6053(3) 0.41549(17)
O5A O -0.5320(4) -0.7142(3) 0.34296(18)
O6A O -0.2008(4) -0.7977(3) 0.52668(16)
O7A O -0.2126(4) -1.0590(3) 0.45872(17)
O8A O -0.5029(4) -1.0761(3) 0.56111(16)
O9A O -0.1320(4) -1.0020(3) 0.62416(17)
O10A O -0.7644(4) -1.1378(3) 0.64584(17)
O11A O -0.4812(5) -1.0037(3) 0.74746(18)
O12A O -0.7737(5) -0.8781(4) 0.7105(2)
O13A O -0.4388(4) -0.8486(3) 0.62603(16)
O14A O -0.1307(5) -0.3376(4) 0.4905(2)
H14A H -0.2463 -0.3343 0.4846
H15A H -0.0620 -0.2711 0.4822
Mo2_2 Mo -0.63607(5) -1.26260(4) 0.58584(2)
Mo2A_2 Mo 0.63607(5) 0.26260(4) 0.41416(2)
Mo3_2 Mo -0.72459(5) -1.03170(4) 0.45480(2)
Mo3A_2 Mo 0.72459(5) 0.03170(4) 0.54520(2)
Mo4_2 Mo -0.37911(5) -1.02974(4) 0.33344(2)
Mo4A_2 Mo 0.37911(5) 0.02974(4) 0.66656(2)
O7_2 O -0.7874(4) -0.9410(3) 0.54128(17)
O7A_2 O 0.7874(4) -0.0590(3) 0.45872(17)
O8_2 O -0.4971(4) -0.9239(3) 0.43889(16)
O8A_2 O 0.4971(4) -0.0761(3) 0.56111(16)
O10_2 O -0.2356(4) -0.8622(3) 0.35416(17)
O10A_2 O 0.2356(4) -0.1378(3) 0.64584(17)
loop_
_geom_bond_atom_site_label_1
_geom_bond_atom_site_label_2
_geom_bond_site_symmetry_1
_geom_bond_site_symmetry_2
Zn1 O1 1_555 1_555
Mo1 N1 1_555 1_555
Mo2 O3 1_555 1_555
Mo3 O6 1_555 1_555
Mo4 O8 1_555 1_555
C1 H1 1_555 1_555
C2 H2 1_555 1_555
C3 H3 1_555 1_555
H4 C3 1_555 1_555
C4 C5 1_555 1_555
C5 C6 1_555 1_555
C6 H5 1_555 1_555
C7 C6 1_555 1_555
H6 C7 1_555 1_555
C8 C5 1_555 1_555
H7 C8 1_555 1_555
C9 C8 1_555 1_555
H8 C9 1_555 1_555
C10 C11 1_555 1_555
C11 C12 1_555 1_555
C12 H9 1_555 1_555
C13 C12 1_555 1_555
H10 C13 1_555 1_555
C14 H11 1_555 1_555
C15 C13 1_555 1_555
H12 C15 1_555 1_555
N1 C1 1_555 1_555
N2 C1 1_555 1_555
N3 C2 1_555 1_555
N4 C3 1_555 1_555
N5 C4 1_555 1_555
N6 C4 1_555 1_555
N7 C7 1_555 1_555
H13 N7 1_555 1_555
N8 C11 1_555 1_555
O1 Mo1 1_555 1_555
O2 Mo1 1_555 1_555
O3 Mo1 1_555 1_555
O4 Zn1 1_555 1_555
O5 Mo2 1_555 1_555
O6 Mo1 1_555 1_555
O7 Mo3 1_555 1_555
O8 Mo3 1_555 1_555
O9 Mo3 1_555 1_555
O10 Mo4 1_555 1_555
O11 Mo4 1_555 1_555
O12 Mo4 1_555 1_555
O13 Mo1 1_555 1_555
O14 Zn1 1_555 1_555
H14 O14 1_555 1_555
H15 O14 1_555 1_555
Mo1A N1A 1_555 1_555
Mo2A O3A 1_555 1_555
Mo3A O6A 1_555 1_555
Mo4A O8A 1_555 1_555
C1A H1A 1_555 1_555
C2A H2A 1_555 1_555
C3A H3A 1_555 1_555
H4A C3A 1_555 1_555
C4A C5A 1_555 1_555
C5A C6A 1_555 1_555
C6A H5A 1_555 1_555
C7A C6A 1_555 1_555
H6A C7A 1_555 1_555
C8A C5A 1_555 1_555
H7A C8A 1_555 1_555
C9A C8A 1_555 1_555
H8A C9A 1_555 1_555
C10A C11A 1_555 1_555
C11A C12A 1_555 1_555
C12A H9A 1_555 1_555
C13A C12A 1_555 1_555
H10A C13A 1_555 1_555
C14A H11A 1_555 1_555
C15A C13A 1_555 1_555
H12A C15A 1_555 1_555
N1A C1A 1_555 1_555
N2A C1A 1_555 1_555
N3A C2A 1_555 1_555
N4A C3A 1_555 1_555
N5A C4A 1_555 1_555
N6A C4A 1_555 1_555
N7A C7A 1_555 1_555
H13A N7A 1_555 1_555
N8A C11A 1_555 1_555
O1A Zn1 1_555 1_555
O2A Mo1A 1_555 1_555
O3A Mo1A 1_555 1_555
O4A Zn1 1_555 1_555
O5A Mo2A 1_555 1_555
O6A Mo1A 1_555 1_555
O7A Mo3A 1_555 1_555
O8A Mo3A 1_555 1_555
O9A Mo3A 1_555 1_555
O10A Mo4A 1_555 1_555
O11A Mo4A 1_555 1_555
O12A Mo4A 1_555 1_555
O13A Mo1A 1_555 1_555
O14A Zn1 1_555 1_555
H14A O14A 1_555 1_555
H15A O14A 1_555 1_555
Mo2_2 O8A 1_555 1_555
Mo2A_2 O8 1_555 1_555
Mo3_2 O8A 1_555 1_555
Mo3A_2 O8 1_555 1_555
Mo4_2 O7A 1_555 1_555
Mo4A_2 O7 1_555 1_555
O7_2 Mo4A 1_555 1_555
O7A_2 Mo4 1_555 1_555
O8_2 Mo2A 1_555 1_555
O8A_2 Mo2 1_555 1_555
O10_2 Mo2A 1_555 1_555
O10A_2 Mo2 1_555 1_555
Mo2 O4 1_555 1_555
Mo2 O6 1_555 1_555
Mo3 O13 1_555 1_555
Mo3 O8A_2 1_555 1_555
Mo4 O13 1_555 1_555
C2 N1 1_555 1_555
C3 N3 1_555 1_555
C9 N7 1_555 1_555
C10 N4 1_555 1_555
C10 N6 1_555 1_555
C14 C15 1_555 1_555
C14 N8 1_555 1_555
N2 N3 1_555 1_555
N4 N5 1_555 1_555
O10 Mo2A_2 1_555 1_555
Mo1A O1A 1_555 1_555
Mo2A O4A 1_555 1_555
Mo2A O6A 1_555 1_555
Mo3A O13A 1_555 1_555
Mo3A O8_2 1_555 1_555
Mo4A O13A 1_555 1_555
C2A N1A 1_555 1_555
C3A N3A 1_555 1_555
C9A N7A 1_555 1_555
C10A N4A 1_555 1_555
C10A N6A 1_555 1_555
C14A C15A 1_555 1_555
C14A N8A 1_555 1_555
N2A N3A 1_555 1_555
N4A N5A 1_555 1_555
O10A Mo2_2 1_555 1_555
Mo3_2 O7_2 1_555 1_555
Mo3_2 O8_2 1_555 1_555
Mo3A_2 O7A_2 1_555 1_555
Mo3A_2 O8A_2 1_555 1_555
Mo4_2 O8_2 1_555 1_555
Mo4_2 O10_2 1_555 1_555
Mo4A_2 O8A_2 1_555 1_555
Mo4A_2 O10A_2 1_555 1_555

#END
