
#######################################################################
#
#                 Cambridge Crystallographic Data Centre
#                                CCDC 
#
#######################################################################
#
# If this CIF has been generated from an entry in the Cambridge 
# Structural Database, then it will include bibliographic, chemical, 
# crystal, experimental, refinement or atomic coordinate data resulting 
# from the CCDC's data processing and validation procedures.
#
#######################################################################

data_GOZRIY
_symmetry_cell_setting           monoclinic
_symmetry_space_group_name_H-M   'P 21/n'
_symmetry_Int_Tables_number      14
_space_group_name_Hall           '-P 2yn'
loop_
_symmetry_equiv_pos_site_id
_symmetry_equiv_pos_as_xyz
1 x,y,z
2 1/2-x,1/2+y,1/2-z
3 -x,-y,-z
4 1/2+x,1/2-y,1/2+z
_cell_length_a                   9.864(5)
_cell_length_b                   14.652(5)
_cell_length_c                   18.636(5)
_cell_angle_alpha                90
_cell_angle_beta                 97.586(5)
_cell_angle_gamma                90
_cell_volume                     2669.84
loop_
_atom_site_label
_atom_site_type_symbol
_atom_site_fract_x
_atom_site_fract_y
_atom_site_fract_z
Cu1 Cu 0.39309(5) 0.37340(4) -0.17252(3)
Mo1 Mo 0.42339(3) 0.11963(2) -0.12322(2)
Mo2 Mo 0.40747(3) -0.09274(2) -0.04097(2)
Mo3 Mo 0.18706(4) -0.11036(2) 0.07550(2)
Mo4 Mo -0.18956(3) -0.08904(2) 0.01761(2)
C1 C 0.1089(4) 0.4183(3) -0.2229(2)
H1 H 0.1317 0.4796 -0.2263
C2 C 0.1133(5) 0.2770(3) -0.2001(3)
H2 H 0.1453 0.2202 -0.1832
C3 C -0.1366(4) 0.4307(3) -0.2717(3)
H3 H -0.1745 0.4048 -0.3180
H4 H -0.1173 0.4948 -0.2787
C4 C -0.3532(4) 0.3772(3) -0.2220(2)
C5 C -0.4334(4) 0.3243(3) -0.2796(3)
C6 C -0.3863(5) 0.2855(3) -0.3381(3)
H5 H -0.2946 0.2905 -0.3444
C7 C -0.4774(5) 0.2385(3) -0.3883(3)
H6 H -0.4482 0.2122 -0.4290
C8 C -0.6103(5) 0.2318(3) -0.3765(3)
H7 H -0.6738 0.2015 -0.4095
C9 C -0.6494(5) 0.2700(3) -0.3157(3)
H8 H -0.7401 0.2641 -0.3078
C10 C -0.3043(4) 0.4421(3) -0.1188(3)
C11 C -0.3130(4) 0.4772(3) -0.0465(3)
C12 C -0.3596(4) 0.4245(3) 0.0072(3)
H9 H -0.3782 0.3628 -0.0003
C13 C -0.3779(4) 0.4656(3) 0.0719(3)
H10 H -0.4093 0.4303 0.1078
C14 C -0.3016(5) 0.6036(3) 0.0343(3)
H11 H -0.2808 0.6647 0.0437
C15 C -0.2792(5) 0.5677(3) -0.0309(3)
H12 H -0.2417 0.6035 -0.0645
N1 N 0.1931(3) 0.3528(2) -0.1971(2)
N2 N -0.0132(4) 0.2920(3) -0.2291(2)
N3 N -0.0124(3) 0.3828(2) -0.2428(2)
N4 N -0.2324(3) 0.4204(2) -0.2193(2)
N5 N -0.1995(3) 0.4612(2) -0.1537(2)
N6 N -0.4023(3) 0.3917(2) -0.1593(2)
N7 N -0.5636(3) 0.3154(2) -0.2669(2)
N8 N -0.3523(3) 0.5542(2) 0.0851(2)
O1 O 0.4165(3) 0.23605(18) -0.11155(16)
O2 O 0.4442(3) 0.10733(19) -0.21220(16)
O3 O 0.4082(3) 0.07052(18) -0.01183(15)
O4 O 0.4344(3) -0.04046(18) -0.12208(16)
O5 O 0.4127(3) -0.20573(19) -0.05874(18)
O6 O 0.3902(3) -0.10143(18) 0.07312(16)
O7 O 0.2236(3) -0.06750(18) -0.03523(16)
O8 O 0.2000(3) 0.04211(19) 0.07056(16)
O9 O 0.2012(3) -0.1050(2) 0.16721(18)
O10 O 0.1714(3) -0.2223(2) 0.05564(19)
O11 O -0.0070(3) -0.0790(2) 0.05030(17)
O12 O -0.2375(3) -0.09206(18) 0.12086(16)
O13 O -0.2077(3) -0.20150(19) -0.00052(18)
O14 O 0.3815(4) 0.5171(2) -0.2456(2)
H13 H 0.3429 0.5540 -0.2753
H14 H 0.4395 0.5448 -0.2156
Cu1_2 Cu -0.60691(5) 0.37340(4) -0.17252(3)
Cu1B Cu -0.39309(5) 0.62660(4) 0.17252(3)
Mo1B Mo -0.42339(3) -0.11963(2) 0.12322(2)
Mo1B_2 Mo 0.57661(3) -0.11963(2) 0.12322(2)
Mo2B Mo 0.59253(3) 0.09274(2) 0.04097(2)
Mo4B Mo 0.18956(3) 0.08904(2) -0.01761(2)
N6_2 N 0.5977(3) 0.3917(2) -0.1593(2)
N7_2 N 0.4364(3) 0.3154(2) -0.2669(2)
N8B N 0.3523(3) 0.4458(2) -0.0851(2)
O3B O -0.4082(3) -0.07052(18) 0.01183(15)
O3B_2 O 0.5918(3) -0.07052(18) 0.01183(15)
O6B O 0.6098(3) 0.10143(18) -0.07312(16)
O7B O -0.2236(3) 0.06750(18) 0.03523(16)
O8B O -0.2000(3) -0.04211(19) -0.07056(16)
O12B O 0.2375(3) 0.09206(18) -0.12086(16)
O15 O 0.1090(4) -0.1259(3) 0.3022(2)
H15 H 0.1445 -0.1072 0.2650
H16 H 0.0748 -0.1789 0.2904
loop_
_geom_bond_atom_site_label_1
_geom_bond_atom_site_label_2
_geom_bond_site_symmetry_1
_geom_bond_site_symmetry_2
Cu1 N1 1_555 1_555
Mo1 O1 1_555 1_555
Mo2 O3 1_555 1_555
Mo3 O6 1_555 1_555
Mo4 O11 1_555 1_555
C1 H1 1_555 1_555
C2 H2 1_555 1_555
C3 H3 1_555 1_555
H4 C3 1_555 1_555
C4 C5 1_555 1_555
C5 C6 1_555 1_555
C6 H5 1_555 1_555
C7 C6 1_555 1_555
H6 C7 1_555 1_555
C8 C7 1_555 1_555
H7 C8 1_555 1_555
C9 C8 1_555 1_555
H8 C9 1_555 1_555
C10 C11 1_555 1_555
C11 C12 1_555 1_555
C12 H9 1_555 1_555
C13 C12 1_555 1_555
H10 C13 1_555 1_555
C14 H11 1_555 1_555
C15 C11 1_555 1_555
H12 C15 1_555 1_555
N1 C1 1_555 1_555
N2 C2 1_555 1_555
N3 C1 1_555 1_555
N4 C3 1_555 1_555
N5 C10 1_555 1_555
N6 C4 1_555 1_555
N7 C5 1_555 1_555
N8 C13 1_555 1_555
O1 Cu1 1_555 1_555
O2 Mo1 1_555 1_555
O3 Mo1 1_555 1_555
O4 Mo1 1_555 1_555
O5 Mo2 1_555 1_555
O6 Mo2 1_555 1_555
O7 Mo2 1_555 1_555
O8 Mo3 1_555 1_555
O9 Mo3 1_555 1_555
O10 Mo3 1_555 1_555
O11 Mo3 1_555 1_555
O12 Mo4 1_555 1_555
O13 Mo4 1_555 1_555
O14 Cu1 1_555 1_555
H13 O14 1_555 1_555
H14 O14 1_555 1_555
O15 H15 1_555 1_555
H16 O15 1_555 1_555
Cu1_2 N6 1_555 1_555
Cu1B N8 1_555 1_555
Mo1B O12 1_555 1_555
Mo1B_2 O6 1_555 1_555
Mo2B O3 1_555 1_555
Mo4B O3 1_555 1_555
N6_2 Cu1 1_555 1_555
N7_2 Cu1 1_555 1_555
N8B Cu1 1_555 1_555
O3B Mo4 1_555 1_555
O3B_2 Mo2 1_555 1_555
O6B Mo1 1_555 1_555
O7B Mo4 1_555 1_555
O8B Mo4 1_555 1_555
O12B Mo1 1_555 1_555
Mo2 O4 1_555 1_555
Mo3 O7 1_555 1_555
C2 N1 1_555 1_555
C3 N3 1_555 1_555
C4 N4 1_555 1_555
C9 N7 1_555 1_555
C10 N6 1_555 1_555
C14 C15 1_555 1_555
C14 N8 1_555 1_555
N2 N3 1_555 1_555
N4 N5 1_555 1_555
N7 Cu1_2 1_555 1_555
O7 Mo4B 1_555 1_555
O8 Mo4B 1_555 1_555
Mo1B O3B 1_555 1_555
Mo1B_2 O3B_2 1_555 1_555
Mo2B O3B_2 1_555 1_555
Mo2B O6B 1_555 1_555
Mo4B O12B 1_555 1_555

#END
