
#######################################################################
#
#                 Cambridge Crystallographic Data Centre
#                                CCDC 
#
#######################################################################
#
# If this CIF has been generated from an entry in the Cambridge 
# Structural Database, then it will include bibliographic, chemical, 
# crystal, experimental, refinement or atomic coordinate data resulting 
# from the CCDC's data processing and validation procedures.
#
#######################################################################

data_GOZTUM
_symmetry_cell_setting           monoclinic
_symmetry_space_group_name_H-M   'C 2/c'
_symmetry_Int_Tables_number      15
_space_group_name_Hall           '-C 2yn'
loop_
_symmetry_equiv_pos_site_id
_symmetry_equiv_pos_as_xyz
1 x,y,z
2 -x,y,1/2-z
3 1/2+x,1/2+y,z
4 1/2-x,1/2+y,1/2-z
5 -x,-y,-z
6 x,-y,1/2+z
7 1/2-x,1/2-y,-z
8 1/2+x,1/2-y,1/2+z
_cell_length_a                   13.879(3)
_cell_length_b                   11.952(2)
_cell_length_c                   10.784(2)
_cell_angle_alpha                90
_cell_angle_beta                 111.61(3)
_cell_angle_gamma                90
_cell_volume                     1663.13
loop_
_atom_site_label
_atom_site_type_symbol
_atom_site_fract_x
_atom_site_fract_y
_atom_site_fract_z
H1 H 0.1365(17) -0.0266(11) 0.179(2)
H2 H 0.0964(17) 0.0442(15) 0.0688(10)
C1 C 0.15819(11) -0.13756(11) 0.38319(14)
C2 C 0.21049(11) -0.20910(12) 0.50642(14)
H3 H 0.2445 -0.1602 0.5816
H4 H 0.1576 -0.2506 0.5258
C3 C 0.07314(10) 0.22722(11) 0.47731(14)
H5 H 0.0369 0.1950 0.5255
C4 C 0.14362(11) 0.25496(12) 0.33244(14)
H6 H 0.1649 0.2442 0.2610
C5 C 0.16467(11) 0.34674(12) 0.41204(15)
H7 H 0.2021 0.4095 0.4056
C6 C 0.11707(13) 0.40689(13) 0.60704(16)
H8 H 0.1873 0.4277 0.6625
H9 H 0.0856 0.3711 0.6635
C7 C 0.05542(13) 0.51224(14) 0.54424(19)
H10 H 0.0557 0.5628 0.6148
H11 H 0.0896 0.5499 0.4920
Co1 Co 0.0000 0.047916(19) 0.2500
N1 N 0.08586(9) 0.17998(10) 0.37355(11)
N2 N 0.11949(9) 0.32817(10) 0.50419(12)
O1 O 0.08736(8) -0.07212(8) 0.38927(10)
O2 O 0.18623(11) -0.14574(11) 0.28690(12)
O3 O 0.10834(8) 0.03696(8) 0.15158(10)
C1F C 0.34181(11) -0.36244(11) 0.61681(14)
C2F C 0.28951(11) -0.29090(12) 0.49358(14)
H3F H 0.2555 -0.3398 0.4184
H4F H 0.3424 -0.2494 0.4742
O1F O 0.41264(8) -0.42788(8) 0.61073(10)
O2F O 0.31377(11) -0.35426(11) 0.71310(12)
C3D C -0.07314(10) 0.77278(11) 0.52269(14)
H5D H -0.0369 0.8050 0.4745
C4D C -0.14362(11) 0.74504(12) 0.66756(14)
H6D H -0.1649 0.7558 0.7390
C5D C -0.16467(11) 0.65326(12) 0.58796(15)
H7D H -0.2021 0.5905 0.5944
C6D C -0.11707(13) 0.59311(13) 0.39296(16)
H8D H -0.1873 0.5723 0.3375
H9D H -0.0856 0.6289 0.3365
C7D C -0.05542(13) 0.48776(14) 0.45576(19)
H10D H -0.0557 0.4372 0.3852
H11D H -0.0896 0.4501 0.5080
N1D N -0.08586(9) 0.82002(10) 0.62645(11)
N2D N -0.11949(9) 0.67183(10) 0.49581(12)
H1A H -0.1365(17) -0.0266(11) 0.321(2)
H2A H -0.0964(17) 0.0442(15) 0.4312(10)
O3A O -0.10834(8) 0.03696(8) 0.34842(10)
Co1D Co 0.0000 0.952084(19) 0.7500
Co1F Co 0.5000 -0.547916(19) 0.7500
N1A N -0.08586(9) 0.17998(10) 0.12645(11)
O1A O -0.08736(8) -0.07212(8) 0.11073(10)
loop_
_geom_bond_atom_site_label_1
_geom_bond_atom_site_label_2
_geom_bond_site_symmetry_1
_geom_bond_site_symmetry_2
H1 O3 1_555 1_555
H2 O3 1_555 1_555
C1 C2 1_555 1_555
C2 H3 1_555 1_555
H4 C2 1_555 1_555
C3 H5 1_555 1_555
C4 H6 1_555 1_555
C5 C4 1_555 1_555
H7 C5 1_555 1_555
C6 H8 1_555 1_555
H9 C6 1_555 1_555
C7 C6 1_555 1_555
H10 C7 1_555 1_555
H11 C7 1_555 1_555
Co1 N1 1_555 1_555
N1 C3 1_555 1_555
N2 C3 1_555 1_555
O1 C1 1_555 1_555
O2 C1 1_555 1_555
O3 Co1 1_555 1_555
C1F C2F 1_555 1_555
C2F C2 1_555 1_555
H3F C2F 1_555 1_555
H4F C2F 1_555 1_555
O1F C1F 1_555 1_555
O2F C1F 1_555 1_555
C3D H5D 1_555 1_555
C4D H6D 1_555 1_555
C5D C4D 1_555 1_555
H7D C5D 1_555 1_555
C6D H8D 1_555 1_555
H9D C6D 1_555 1_555
C7D C7 1_555 1_555
H10D C7D 1_555 1_555
H11D C7D 1_555 1_555
N1D C3D 1_555 1_555
N2D C3D 1_555 1_555
H1A O3A 1_555 1_555
H2A O3A 1_555 1_555
O3A Co1 1_555 1_555
Co1D N1D 1_555 1_555
Co1F O1F 1_555 1_555
N1A Co1 1_555 1_555
O1A Co1 1_555 1_555
C4 N1 1_555 1_555
C5 N2 1_555 1_555
C6 N2 1_555 1_555
Co1 O1 1_555 1_555
C4D N1D 1_555 1_555
C5D N2D 1_555 1_555
C6D C7D 1_555 1_555
C6D N2D 1_555 1_555

#END
