
#######################################################################
#
#                 Cambridge Crystallographic Data Centre
#                                CCDC 
#
#######################################################################
#
# If this CIF has been generated from an entry in the Cambridge 
# Structural Database, then it will include bibliographic, chemical, 
# crystal, experimental, refinement or atomic coordinate data resulting 
# from the CCDC's data processing and validation procedures.
#
#######################################################################

data_GOZTEW
_symmetry_cell_setting           monoclinic
_symmetry_space_group_name_H-M   'P 21/c'
_symmetry_Int_Tables_number      14
_space_group_name_Hall           '-P 2ybc'
loop_
_symmetry_equiv_pos_site_id
_symmetry_equiv_pos_as_xyz
1 x,y,z
2 -x,1/2+y,1/2-z
3 -x,-y,-z
4 x,1/2-y,1/2+z
_cell_length_a                   7.6685(15)
_cell_length_b                   15.510(3)
_cell_length_c                   11.891(4)
_cell_angle_alpha                90
_cell_angle_beta                 114.36(2)
_cell_angle_gamma                90
_cell_volume                     1288.38
loop_
_atom_site_label
_atom_site_type_symbol
_atom_site_fract_x
_atom_site_fract_y
_atom_site_fract_z
Co1 Co 0.08638(4) 0.490817(17) 0.41414(2)
C1 C 0.3087(3) 0.45691(14) 0.2635(2)
H1 H 0.4106 0.4887 0.3190
C2 C 0.0371(4) 0.39326(17) 0.1750(2)
H2 H -0.0851 0.3729 0.1585
C3 C 0.1340(4) 0.37957(19) 0.1040(2)
H3 H 0.0915 0.3485 0.0306
C4 C 0.4589(4) 0.42641(17) 0.1169(2)
H4 H 0.4746 0.3709 0.0847
H5 H 0.5785 0.4407 0.1858
C5 C 0.4153(3) 0.49404(16) 0.0173(2)
H6 H 0.3867 0.5484 0.0464
H7 H 0.3034 0.4768 -0.0552
C6 C 0.3530(3) 0.70858(13) 0.6207(2)
C7 C 0.5199(3) 0.72664(14) 0.6054(2)
H8 H 0.5488 0.6956 0.5484
C8 C 0.6430(3) 0.79086(14) 0.6753(2)
H9 H 0.7538 0.8031 0.6645
C9 C 0.6009(3) 0.83700(13) 0.76139(19)
C10 C 0.4319(3) 0.82062(14) 0.7742(2)
H10 H 0.4018 0.8524 0.8301
C11 C 0.3079(3) 0.75699(15) 0.7037(2)
H11 H 0.1943 0.7466 0.7119
C12 C 0.2312(3) 0.63218(14) 0.5582(2)
C13 C 0.7405(3) 0.90218(13) 0.8435(2)
N1 N 0.1479(3) 0.44213(12) 0.27564(17)
N2 N 0.3065(3) 0.42022(13) 0.16081(17)
O1 O 0.2597(2) 0.59580(10) 0.47236(15)
O2 O 0.1119(2) 0.60738(11) 0.59832(16)
O3 O 0.8637(2) 0.93186(10) 0.81003(15)
O4 O 0.7230(2) 0.92248(10) 0.94086(15)
C1B C 0.6913(3) 0.54309(14) -0.2635(2)
H1B H 0.5894 0.5113 -0.3190
C2B C 0.9629(4) 0.60674(17) -0.1750(2)
H2B H 1.0851 0.6271 -0.1585
C3B C 0.8660(4) 0.62043(19) -0.1040(2)
H3B H 0.9085 0.6515 -0.0306
C4B C 0.5411(4) 0.57359(17) -0.1169(2)
H4B H 0.5254 0.6291 -0.0847
H5B H 0.4215 0.5593 -0.1858
C5B C 0.5847(3) 0.50596(16) -0.0173(2)
H6B H 0.6133 0.4516 -0.0464
H7B H 0.6966 0.5232 0.0552
N1B N 0.8521(3) 0.55787(12) -0.27564(17)
N2B N 0.6935(3) 0.57978(13) -0.16081(17)
Co1B Co -0.08638(4) 0.509183(17) 0.58586(2)
C6B C -0.3530(3) 0.29142(13) 0.3793(2)
C7B C -0.5199(3) 0.27336(14) 0.3946(2)
H8B H -0.5488 0.3044 0.4516
C8B C -0.6430(3) 0.20914(14) 0.3247(2)
H9B H -0.7538 0.1969 0.3355
C9B C -0.6009(3) 0.16300(13) 0.23861(19)
C10B C -0.4319(3) 0.17938(14) 0.2258(2)
H10B H -0.4018 0.1476 0.1699
C11B C -0.3079(3) 0.24301(15) 0.2963(2)
H11B H -0.1943 0.2534 0.2881
C12B C -0.2312(3) 0.36782(14) 0.4418(2)
C13B C -0.7405(3) 0.09782(13) 0.1565(2)
O1B O -0.2597(2) 0.40420(10) 0.52764(15)
O2B O -0.1119(2) 0.39262(11) 0.40168(16)
O3B O -0.8637(2) 0.06814(10) 0.18997(15)
O4B O -0.7230(2) 0.07752(10) 0.05914(15)
Co1A Co -1.08638(4) -0.009183(17) 0.08586(2)
Co1A_2 Co 0.91362(4) 0.990817(17) 1.08586(2)
Co1B_2 Co 0.91362(4) 0.509183(17) -0.41414(2)
Co1C Co -0.91362(4) 0.009183(17) -0.08586(2)
Co1C_2 Co 1.08638(4) 1.009183(17) 0.91414(2)
N1B_2 N -0.1479(3) 0.55787(12) 0.72436(17)
O3A O 0.1363(2) 0.43186(10) 0.68997(15)
O3C O -0.1363(2) 0.56814(10) 0.31003(15)
O4A O 0.2770(2) 0.42248(10) 0.55914(15)
O4C O -0.2770(2) 0.57752(10) 0.44086(15)
loop_
_geom_bond_atom_site_label_1
_geom_bond_atom_site_label_2
_geom_bond_site_symmetry_1
_geom_bond_site_symmetry_2
Co1 N1 1_555 1_555
C1 H1 1_555 1_555
C2 H2 1_555 1_555
C3 C2 1_555 1_555
H3 C3 1_555 1_555
C4 H4 1_555 1_555
H5 C4 1_555 1_555
C5 C4 1_555 1_555
H6 C5 1_555 1_555
H7 C5 1_555 1_555
C6 C7 1_555 1_555
C7 H8 1_555 1_555
C8 C7 1_555 1_555
H9 C8 1_555 1_555
C9 C8 1_555 1_555
C10 C9 1_555 1_555
H10 C10 1_555 1_555
C11 C6 1_555 1_555
H11 C11 1_555 1_555
C12 C6 1_555 1_555
C13 C9 1_555 1_555
N1 C1 1_555 1_555
N2 C1 1_555 1_555
O1 Co1 1_555 1_555
O2 C12 1_555 1_555
O3 C13 1_555 1_555
O4 C13 1_555 1_555
C1B H1B 1_555 1_555
C2B H2B 1_555 1_555
C3B C2B 1_555 1_555
H3B C3B 1_555 1_555
C4B H4B 1_555 1_555
H5B C4B 1_555 1_555
C5B C5 1_555 1_555
H6B C5B 1_555 1_555
H7B C5B 1_555 1_555
N1B C1B 1_555 1_555
N2B C1B 1_555 1_555
Co1B Co1 1_555 1_555
C6B C7B 1_555 1_555
C7B H8B 1_555 1_555
C8B C7B 1_555 1_555
H9B C8B 1_555 1_555
C9B C8B 1_555 1_555
C10B C9B 1_555 1_555
H10B C10B 1_555 1_555
C11B C6B 1_555 1_555
H11B C11B 1_555 1_555
C12B C6B 1_555 1_555
C13B C9B 1_555 1_555
O1B Co1B 1_555 1_555
O2B Co1 1_555 1_555
O3B C13B 1_555 1_555
O4B C13B 1_555 1_555
Co1A O3B 1_555 1_555
Co1A_2 O4 1_555 1_555
Co1B_2 N1B 1_555 1_555
Co1C O4B 1_555 1_555
Co1C_2 O3 1_555 1_555
N1B_2 Co1B 1_555 1_555
O3A Co1B 1_555 1_555
O3C Co1 1_555 1_555
O4A Co1 1_555 1_555
O4C Co1B 1_555 1_555
C2 N1 1_555 1_555
C3 N2 1_555 1_555
C4 N2 1_555 1_555
C10 C11 1_555 1_555
C12 O1 1_555 1_555
O2 Co1B 1_555 1_555
C2B N1B 1_555 1_555
C3B N2B 1_555 1_555
C4B C5B 1_555 1_555
C4B N2B 1_555 1_555
C10B C11B 1_555 1_555
C12B O1B 1_555 1_555
C12B O2B 1_555 1_555
Co1A Co1C 1_555 1_555
Co1A_2 Co1C_2 1_555 1_555

#END
