
#######################################################################
#
#                 Cambridge Crystallographic Data Centre
#                                CCDC 
#
#######################################################################
#
# If this CIF has been generated from an entry in the Cambridge 
# Structural Database, then it will include bibliographic, chemical, 
# crystal, experimental, refinement or atomic coordinate data resulting 
# from the CCDC's data processing and validation procedures.
#
#######################################################################

data_GOZTIA
_symmetry_cell_setting           monoclinic
_symmetry_space_group_name_H-M   'C 2/c'
_symmetry_Int_Tables_number      15
_space_group_name_Hall           '-C 2yn'
loop_
_symmetry_equiv_pos_site_id
_symmetry_equiv_pos_as_xyz
1 x,y,z
2 -x,y,1/2-z
3 1/2+x,1/2+y,z
4 1/2-x,1/2+y,1/2-z
5 -x,-y,-z
6 x,-y,1/2+z
7 1/2-x,1/2-y,-z
8 1/2+x,1/2-y,1/2+z
_cell_length_a                   13.989(2)
_cell_length_b                   11.8329(19)
_cell_length_c                   10.7551(18)
_cell_angle_alpha                90
_cell_angle_beta                 111.597(2)
_cell_angle_gamma                90
_cell_volume                     1655.31
loop_
_atom_site_label
_atom_site_type_symbol
_atom_site_fract_x
_atom_site_fract_y
_atom_site_fract_z
C1 C 0.15800(18) 0.63658(19) 0.3829(2)
C2 C 0.2101(2) 0.7099(2) 0.5056(2)
H1 H 0.1578 0.7535 0.5233
H2 H 0.2424 0.6609 0.5819
C3 C 0.07233(17) 0.27465(19) 0.4755(2)
H3 H 0.0360 0.3072 0.5234
C4 C 0.14238(18) 0.2461(2) 0.3311(2)
H4 H 0.1635 0.2564 0.2594
C5 C 0.16341(19) 0.1546(2) 0.4115(3)
H5 H 0.2009 0.0912 0.4057
C6 C 0.1155(2) 0.0944(2) 0.6070(3)
H6 H 0.0875 0.1326 0.6659
H7 H 0.1849 0.0704 0.6601
C7 C 0.0505(3) -0.0078(4) 0.5464(4)
H8 H 0.0874 -0.0523 0.5027
H9 H 0.0463 -0.0532 0.6193
H10 H -0.094(2) 0.455(2) 0.4298(12)
H11 H -0.134(2) 0.5239(16) 0.324(3)
N1 N 0.08480(14) 0.32218(15) 0.37130(18)
N2 N 0.11869(15) 0.17348(16) 0.5034(2)
Ni1 Ni 0.0000 0.45221(3) 0.2500
O1 O 0.08597(12) 0.57391(13) 0.38765(15)
O2 O 0.18873(18) 0.64096(19) 0.2890(2)
O3 O -0.10410(13) 0.46132(13) 0.34768(16)
C1F C 0.34200(18) 0.86342(19) 0.6171(2)
C2F C 0.2899(2) 0.7901(2) 0.4944(2)
H1F H 0.3422 0.7465 0.4767
H2F H 0.2576 0.8391 0.4181
O1F O 0.41403(12) 0.92609(13) 0.61235(15)
O2F O 0.31127(18) 0.85904(19) 0.7110(2)
C3D C -0.07233(17) -0.27465(19) 0.5245(2)
H3D H -0.0360 -0.3072 0.4766
C4D C -0.14238(18) -0.2461(2) 0.6689(2)
H4D H -0.1635 -0.2564 0.7406
C5D C -0.16341(19) -0.1546(2) 0.5885(3)
H5D H -0.2009 -0.0912 0.5943
C6D C -0.1155(2) -0.0944(2) 0.3930(3)
H6D H -0.0875 -0.1326 0.3341
H7D H -0.1849 -0.0704 0.3399
C7D C -0.0505(3) 0.0078(4) 0.4536(4)
H8D H -0.0874 0.0523 0.4973
H9D H -0.0463 0.0532 0.3807
N1D N -0.08480(14) -0.32218(15) 0.62870(18)
N2D N -0.11869(15) -0.17348(16) 0.4966(2)
H10A H 0.094(2) 0.455(2) 0.0702(12)
H11A H 0.134(2) 0.5239(16) 0.176(3)
O3A O 0.10410(13) 0.46132(13) 0.15232(16)
N1A N -0.08480(14) 0.32218(15) 0.12870(18)
Ni1D Ni 0.0000 -0.45221(3) 0.7500
Ni1F Ni 0.5000 1.04779(3) 0.7500
O1A O -0.08597(12) 0.57391(13) 0.11235(15)
loop_
_geom_bond_atom_site_label_1
_geom_bond_atom_site_label_2
_geom_bond_site_symmetry_1
_geom_bond_site_symmetry_2
C1 C2 1_555 1_555
C2 H1 1_555 1_555
H2 C2 1_555 1_555
C3 H3 1_555 1_555
C4 H4 1_555 1_555
C5 C4 1_555 1_555
H5 C5 1_555 1_555
C6 H6 1_555 1_555
H7 C6 1_555 1_555
C7 C6 1_555 1_555
H8 C7 1_555 1_555
H9 C7 1_555 1_555
H10 O3 1_555 1_555
H11 O3 1_555 1_555
N1 C3 1_555 1_555
N2 C3 1_555 1_555
Ni1 N1 1_555 1_555
O1 C1 1_555 1_555
O2 C1 1_555 1_555
O3 Ni1 1_555 1_555
C1F C2F 1_555 1_555
C2F C2 1_555 1_555
H1F C2F 1_555 1_555
H2F C2F 1_555 1_555
O1F C1F 1_555 1_555
O2F C1F 1_555 1_555
C3D H3D 1_555 1_555
C4D H4D 1_555 1_555
C5D C4D 1_555 1_555
H5D C5D 1_555 1_555
C6D H6D 1_555 1_555
H7D C6D 1_555 1_555
C7D C7 1_555 1_555
H8D C7D 1_555 1_555
H9D C7D 1_555 1_555
N1D C3D 1_555 1_555
N2D C3D 1_555 1_555
H10A O3A 1_555 1_555
H11A O3A 1_555 1_555
O3A Ni1 1_555 1_555
N1A Ni1 1_555 1_555
Ni1D N1D 1_555 1_555
Ni1F O1F 1_555 1_555
O1A Ni1 1_555 1_555
C4 N1 1_555 1_555
C5 N2 1_555 1_555
C6 N2 1_555 1_555
Ni1 O1 1_555 1_555
C4D N1D 1_555 1_555
C5D N2D 1_555 1_555
C6D C7D 1_555 1_555
C6D N2D 1_555 1_555

#END
