
#######################################################################
#
#                 Cambridge Crystallographic Data Centre
#                                CCDC 
#
#######################################################################
#
# If this CIF has been generated from an entry in the Cambridge 
# Structural Database, then it will include bibliographic, chemical, 
# crystal, experimental, refinement or atomic coordinate data resulting 
# from the CCDC's data processing and validation procedures.
#
#######################################################################

data_GOZVAS
_symmetry_cell_setting           monoclinic
_symmetry_space_group_name_H-M   'P 21/n'
_symmetry_Int_Tables_number      14
_space_group_name_Hall           '-P 2yn'
loop_
_symmetry_equiv_pos_site_id
_symmetry_equiv_pos_as_xyz
1 x,y,z
2 1/2+x,1/2-y,1/2+z
3 -x,-y,-z
4 1/2-x,1/2+y,1/2-z
_cell_length_a                   8.317(2)
_cell_length_b                   15.580(2)
_cell_length_c                   15.878(1)
_cell_angle_alpha                90
_cell_angle_beta                 92.79(1)
_cell_angle_gamma                90
_cell_volume                     2055.01
loop_
_atom_site_label
_atom_site_type_symbol
_atom_site_fract_x
_atom_site_fract_y
_atom_site_fract_z
Ag1 Ag 0.41248(7) 0.20835(3) 0.25797(3)
S1 S 0.4248(2) 0.3162(1) 0.38210(9)
S2 S 0.2424(2) 0.12811(10) 0.36039(9)
S3 S -0.0790(2) 0.1000(1) 0.45657(9)
S4 S -0.1382(2) 0.2054(1) 0.61906(8)
S5 S 0.0763(2) 0.37971(10) 0.65870(8)
S6 S 0.3364(2) 0.43537(10) 0.53165(9)
C1 C 0.2729(6) 0.2817(3) 0.4511(3)
C2 C 0.1849(7) 0.2068(4) 0.4354(3)
C3 C 0.0519(7) 0.1873(3) 0.4830(3)
C4 C 0.0218(6) 0.2366(3) 0.5548(3)
C5 C 0.1147(6) 0.3102(3) 0.5724(3)
C6 C 0.2356(6) 0.3351(3) 0.5190(3)
C7 C 0.3849(9) 0.0695(5) 0.4278(5)
C8 C -0.1507(9) 0.1226(5) 0.3504(4)
C9 C -0.0727(9) 0.1014(4) 0.6586(4)
C10 C -0.0777(9) 0.4460(5) 0.6095(5)
C11 C 0.4503(8) 0.4268(5) 0.6300(4)
C12 C 0.6099(8) 0.3055(5) 0.4451(5)
S4A S 0.3618(2) 0.2946(1) 0.11906(8)
Ag1A Ag -0.08752(7) 0.29165(3) 0.75797(3)
S5A S 0.5763(2) 0.12029(10) 0.15870(8)
P1 P 0.9221(2) 0.3574(1) 0.2270(1)
F1 F 1.0333(9) 0.2772(5) 0.2295(6)
F2 F 0.7715(6) 0.2958(3) 0.2300(4)
F3 F 0.9438(10) 0.3527(6) 0.3248(4)
F4 F 0.8192(9) 0.4357(4) 0.2372(7)
F5 F 1.0731(7) 0.4187(4) 0.2254(4)
F6 F 0.909(1) 0.3578(7) 0.1336(4)
loop_
_geom_bond_atom_site_label_1
_geom_bond_atom_site_label_2
_geom_bond_site_symmetry_1
_geom_bond_site_symmetry_2
Ag1 S1 1_555 1_555
S1 C1 1_555 1_555
S2 Ag1 1_555 1_555
S3 C3 1_555 1_555
S4 C4 1_555 1_555
S5 C5 1_555 1_555
S6 C6 1_555 1_555
P1 F1 1_555 1_555
F2 P1 1_555 1_555
F3 P1 1_555 1_555
F4 P1 1_555 1_555
F5 P1 1_555 1_555
F6 P1 1_555 1_555
C1 C2 1_555 1_555
C2 S2 1_555 1_555
C3 C2 1_555 1_555
C4 C3 1_555 1_555
C5 C4 1_555 1_555
C6 C1 1_555 1_555
C7 S2 1_555 1_555
C8 S3 1_555 1_555
C9 S4 1_555 1_555
C10 S5 1_555 1_555
C11 S6 1_555 1_555
C12 S1 1_555 1_555
S4A Ag1 1_555 1_555
Ag1A S4 1_555 1_555
S5A Ag1 1_555 1_555
S5 Ag1A 1_555 1_555
C5 C6 1_555 1_555

#END
