
#######################################################################
#
#                 Cambridge Crystallographic Data Centre
#                                CCDC 
#
#######################################################################
#
# If this CIF has been generated from an entry in the Cambridge 
# Structural Database, then it will include bibliographic, chemical, 
# crystal, experimental, refinement or atomic coordinate data resulting 
# from the CCDC's data processing and validation procedures.
#
#######################################################################

data_GUBHES
_symmetry_cell_setting           monoclinic
_symmetry_space_group_name_H-M   'C 2/c'
_symmetry_Int_Tables_number      15
_space_group_name_Hall           '-C 2yn'
loop_
_symmetry_equiv_pos_site_id
_symmetry_equiv_pos_as_xyz
1 x,y,z
2 -x,y,1/2-z
3 1/2+x,1/2+y,z
4 1/2-x,1/2+y,1/2-z
5 -x,-y,-z
6 x,-y,1/2+z
7 1/2-x,1/2-y,-z
8 1/2+x,1/2-y,1/2+z
_cell_length_a                   15.1034(11)
_cell_length_b                   23.9203(17)
_cell_length_c                   9.5545(7)
_cell_angle_alpha                90
_cell_angle_beta                 111.666(5)
_cell_angle_gamma                90
_cell_volume                     3207.96
loop_
_atom_site_label
_atom_site_type_symbol
_atom_site_fract_x
_atom_site_fract_y
_atom_site_fract_z
C1 C -0.12379(19) -0.00589(12) 0.1500(3)
C2 C -0.20394(19) -0.04756(12) 0.0950(3)
C3 C -0.2621(2) -0.04458(14) -0.0556(4)
H1 H -0.2482 -0.0190 -0.1179
C4 C -0.3408(2) -0.07921(15) -0.1148(4)
H2 H -0.3791 -0.0770 -0.2164
C5 C -0.3623(2) -0.11697(15) -0.0232(4)
H3 H -0.4149 -0.1403 -0.0624
C6 C -0.3053(2) -0.11988(14) 0.1265(4)
H4 H -0.3209 -0.1450 0.1881
C7 C -0.2250(2) -0.08646(13) 0.1890(3)
C8 C -0.1625(2) -0.09568(13) 0.3513(4)
C9 C 0.1591(2) 0.14027(13) 0.2305(4)
H5 H 0.1685 0.1152 0.3092
C10 C 0.2169(2) 0.18678(13) 0.2566(3)
C11 C 0.2032(2) 0.22422(15) 0.1411(4)
H6 H 0.2405 0.2562 0.1552
C12 C 0.1323(2) 0.21287(15) 0.0036(4)
H7 H 0.1215 0.2374 -0.0765
C13 C 0.0777(2) 0.16568(14) -0.0155(4)
H8 H 0.0307 0.1585 -0.1091
C14 C 0.3735(2) 0.21469(16) 0.4379(4)
C15 C 0.4381(2) 0.21085(14) 0.6003(4)
C16 C 0.4692(2) 0.25979(15) 0.6742(4)
H9 H 0.4497 0.2935 0.6239
C17 C 0.4683(2) 0.15836(14) 0.6733(4)
C18 C 0.4399(3) 0.10632(16) 0.6000(5)
H10 H 0.3996 0.1057 0.4992
C19 C 0.4701(3) 0.05750(18) 0.6735(5)
H11 H 0.4512 0.0238 0.6227
Cu1 Cu 0.01495(2) 0.060300(15) 0.07617(4)
H12 H 0.279(2) 0.1749(14) 0.470(4)
N1 N 0.09071(16) 0.12951(10) 0.0982(3)
N2 N 0.28514(19) 0.19269(13) 0.4027(3)
O1 O -0.06978(13) -0.00251(8) 0.0758(2)
O2 O -0.11949(13) 0.02560(8) 0.2565(2)
O3 O -0.19611(19) -0.11485(14) 0.4392(3)
O4 O -0.07512(14) -0.08307(9) 0.3837(2)
O5 O 0.3975(2) 0.23840(17) 0.3459(3)
C9A C 0.8409(2) 0.14027(13) 1.2695(4)
H5A H 0.8315 0.1152 1.1908
C10A C 0.7831(2) 0.18678(13) 1.2434(3)
C11A C 0.7968(2) 0.22422(15) 1.3589(4)
H6A H 0.7595 0.2562 1.3448
C12A C 0.8677(2) 0.21287(15) 1.4964(4)
H7A H 0.8785 0.2374 1.5765
C13A C 0.9223(2) 0.16568(14) 1.5155(4)
H8A H 0.9693 0.1585 1.6091
C14A C 0.6265(2) 0.21469(16) 1.0621(4)
C15A C 0.5619(2) 0.21085(14) 0.8997(4)
C16A C 0.5308(2) 0.25979(15) 0.8258(4)
H9A H 0.5503 0.2935 0.8761
C17A C 0.5317(2) 0.15836(14) 0.8267(4)
C18A C 0.5601(3) 0.10632(16) 0.9000(5)
H10A H 0.6004 0.1057 1.0008
C19A C 0.5299(3) 0.05750(18) 0.8265(5)
H11A H 0.5488 0.0238 0.8773
H12A H 0.721(2) 0.1749(14) 1.030(4)
N1A N 0.90929(16) 0.12951(10) 1.4018(3)
N2A N 0.71486(19) 0.19269(13) 1.0973(3)
O5A O 0.6025(2) 0.23840(17) 1.1541(3)
C1A C 0.12379(19) -0.00589(12) 0.3500(3)
C2A C 0.20394(19) -0.04756(12) 0.4050(3)
C3A C 0.2621(2) -0.04458(14) 0.5556(4)
H1A H 0.2482 -0.0190 0.6179
C4A C 0.3408(2) -0.07921(15) 0.6148(4)
H2A H 0.3791 -0.0770 0.7164
C5A C 0.3623(2) -0.11697(15) 0.5232(4)
H3A H 0.4149 -0.1403 0.5624
C6A C 0.3053(2) -0.11988(14) 0.3735(4)
H4A H 0.3209 -0.1450 0.3119
C7A C 0.2250(2) -0.08646(13) 0.3110(3)
C8A C 0.1625(2) -0.09568(13) 0.1487(4)
Cu1A Cu -0.01495(2) 0.060300(15) 0.42383(4)
O1A O 0.06978(13) -0.00251(8) 0.4242(2)
O2A O 0.11949(13) 0.02560(8) 0.2435(2)
O3A O 0.19611(19) -0.11485(14) 0.0608(3)
O4A O 0.07512(14) -0.08307(9) 0.1163(2)
Cu1A_2 Cu 0.98505(2) 0.060300(15) 1.42383(4)
Cu1D Cu -0.01495(2) -0.060300(15) -0.07617(4)
Cu1E Cu 0.01495(2) -0.060300(15) 0.57617(4)
N1A_2 N -0.09071(16) 0.12951(10) 0.4018(3)
O1D O 0.06978(13) 0.00251(8) -0.0758(2)
O1E O -0.06978(13) 0.00251(8) 0.5758(2)
O4D O 0.07512(14) 0.08307(9) 0.6163(2)
O4E O -0.07512(14) 0.08307(9) -0.1163(2)
loop_
_geom_bond_atom_site_label_1
_geom_bond_atom_site_label_2
_geom_bond_site_symmetry_1
_geom_bond_site_symmetry_2
C1 C2 1_555 1_555
C2 C3 1_555 1_555
C3 H1 1_555 1_555
C4 C3 1_555 1_555
H2 C4 1_555 1_555
C5 C4 1_555 1_555
H3 C5 1_555 1_555
C6 C5 1_555 1_555
H4 C6 1_555 1_555
C7 C2 1_555 1_555
C8 C7 1_555 1_555
C9 H5 1_555 1_555
C10 C9 1_555 1_555
C11 C10 1_555 1_555
H6 C11 1_555 1_555
C12 C11 1_555 1_555
H7 C12 1_555 1_555
C13 C12 1_555 1_555
H8 C13 1_555 1_555
C14 C15 1_555 1_555
C15 C16 1_555 1_555
C16 H9 1_555 1_555
C17 C15 1_555 1_555
C18 C17 1_555 1_555
H10 C18 1_555 1_555
C19 C18 1_555 1_555
H11 C19 1_555 1_555
Cu1 N1 1_555 1_555
H12 N2 1_555 1_555
N1 C9 1_555 1_555
N2 C10 1_555 1_555
O1 C1 1_555 1_555
O2 C1 1_555 1_555
O3 C8 1_555 1_555
O4 C8 1_555 1_555
O5 C14 1_555 1_555
C9A H5A 1_555 1_555
C10A C9A 1_555 1_555
C11A C10A 1_555 1_555
H6A C11A 1_555 1_555
C12A C11A 1_555 1_555
H7A C12A 1_555 1_555
C13A C12A 1_555 1_555
H8A C13A 1_555 1_555
C14A C15A 1_555 1_555
C15A C16A 1_555 1_555
C16A C16 1_555 1_555
H9A C16A 1_555 1_555
C17A C17 1_555 1_555
C18A C17A 1_555 1_555
H10A C18A 1_555 1_555
C19A C19 1_555 1_555
H11A C19A 1_555 1_555
H12A N2A 1_555 1_555
N1A C9A 1_555 1_555
N2A C10A 1_555 1_555
O5A C14A 1_555 1_555
C1A C2A 1_555 1_555
C2A C3A 1_555 1_555
C3A H1A 1_555 1_555
C4A C3A 1_555 1_555
H2A C4A 1_555 1_555
C5A C4A 1_555 1_555
H3A C5A 1_555 1_555
C6A C5A 1_555 1_555
H4A C6A 1_555 1_555
C7A C2A 1_555 1_555
C8A C7A 1_555 1_555
Cu1A O2 1_555 1_555
O1A C1A 1_555 1_555
O2A Cu1 1_555 1_555
O3A C8A 1_555 1_555
O4A C8A 1_555 1_555
Cu1A_2 N1A 1_555 1_555
Cu1D O1 1_555 1_555
Cu1E O4 1_555 1_555
N1A_2 Cu1A 1_555 1_555
O1D Cu1 1_555 1_555
O1E Cu1A 1_555 1_555
O4D Cu1A 1_555 1_555
O4E Cu1 1_555 1_555
C6 C7 1_555 1_555
C13 N1 1_555 1_555
C14 N2 1_555 1_555
Cu1 O1 1_555 1_555
C13A N1A 1_555 1_555
C14A N2A 1_555 1_555
C15A C17A 1_555 1_555
C18A C19A 1_555 1_555
C1A O2A 1_555 1_555
C6A C7A 1_555 1_555
Cu1A O1A 1_555 1_555
O1A Cu1E 1_555 1_555
O4A Cu1D 1_555 1_555
Cu1D O1D 1_555 1_555
Cu1E O1E 1_555 1_555

#END
