
#######################################################################
#
#                 Cambridge Crystallographic Data Centre
#                                CCDC 
#
#######################################################################
#
# If this CIF has been generated from an entry in the Cambridge 
# Structural Database, then it will include bibliographic, chemical, 
# crystal, experimental, refinement or atomic coordinate data resulting 
# from the CCDC's data processing and validation procedures.
#
#######################################################################

data_GUBKUL
_symmetry_cell_setting           monoclinic
_symmetry_space_group_name_H-M   'I 2/a'
_symmetry_Int_Tables_number      15
_space_group_name_Hall           '-I 2ya'
loop_
_symmetry_equiv_pos_site_id
_symmetry_equiv_pos_as_xyz
1 x,y,z
2 1/2-x,y,-z
3 1/2+x,1/2+y,1/2+z
4 -x,1/2+y,1/2-z
5 -x,-y,-z
6 1/2+x,-y,z
7 1/2-x,1/2-y,1/2-z
8 x,1/2-y,1/2+z
_cell_length_a                   13.4109(2)
_cell_length_b                   16.2568(4)
_cell_length_c                   27.9028(6)
_cell_angle_alpha                90
_cell_angle_beta                 98.984(2)
_cell_angle_gamma                90
_cell_volume                     6008.69
loop_
_atom_site_label
_atom_site_type_symbol
_atom_site_fract_x
_atom_site_fract_y
_atom_site_fract_z
Ba1 Ba 0.37181(2) 0.74371(2) 0.820152(12)
Ba2 Ba 0.65078(2) 0.86001(2) 0.768072(13)
Ba3 Ba 0.38622(2) 0.59438(2) 0.959000(12)
C1 C 0.6125(4) 0.5877(3) 0.81462(19)
C2 C 0.6209(4) 0.6738(3) 0.7962(2)
O1 O 0.6856(3) 0.6874(3) 0.76950(17)
O2 O 0.5653(3) 0.7285(3) 0.81014(17)
C3 C 0.6048(4) 0.5728(3) 0.86295(18)
C4 C 0.5905(4) 0.6443(3) 0.8952(2)
O3 O 0.5025(3) 0.6664(3) 0.89923(16)
O4 O 0.6698(4) 0.6784(3) 0.91671(17)
C5 C 0.6211(4) 0.4936(3) 0.88182(18)
C6 C 0.6221(4) 0.4777(3) 0.93467(19)
O5 O 0.5621(3) 0.5150(3) 0.95718(15)
O6 O 0.6836(3) 0.4239(3) 0.95419(15)
C7 C 0.6392(4) 0.4291(3) 0.85146(19)
C8 C 0.6702(4) 0.3449(3) 0.87279(19)
O7 O 0.6012(3) 0.2966(3) 0.87956(16)
O8 O 0.7620(3) 0.3301(3) 0.88096(15)
C9 C 0.6307(4) 0.4419(3) 0.80130(19)
C10 C 0.6260(4) 0.3713(3) 0.76689(19)
O9 O 0.6866(3) 0.3120(3) 0.77463(15)
O10 O 0.5553(3) 0.3743(3) 0.73114(14)
C11 C 0.6193(4) 0.5218(3) 0.78326(19)
C12 C 0.6154(4) 0.5399(4) 0.7295(2)
O11 O 0.6919(4) 0.5256(3) 0.71034(17)
O12 O 0.5345(4) 0.5728(3) 0.70863(18)
O13 O 0.4760(6) 0.8523(5) 0.8916(2)
O14 O 0.2554(5) 0.8829(4) 0.8274(2)
O15 O 0.7713(4) 0.7990(3) 0.85956(19)
O16 O 0.5986(4) 0.9582(4) 0.84435(19)
O17 O 0.6222(4) 0.9570(4) 0.6860(2)
O18 O 0.5652(4) 0.7589(4) 0.6853(2)
O19 O 0.3464(4) 0.4342(4) 0.9161(2)
O20 O 0.5088(3) 0.6754(3) 1.0395(2)
O21 O 0.3322(6) 0.7605(4) 0.9730(3)
O22 O 0.3836(4) 0.6053(4) 0.7613(2)
Ba1C Ba 0.62819(2) 0.24371(2) 0.679848(12)
Ba1E Ba 0.87181(2) 0.25629(2) 0.820152(12)
Ba2C Ba 0.34922(2) 0.36001(2) 0.731928(13)
Ba2F Ba 0.84922(2) 0.63999(2) 0.731928(13)
Ba3D Ba 0.61378(2) 0.40562(2) 1.041000(12)
Ba3E Ba 0.88622(2) 0.40562(2) 0.959000(12)
O1F O 0.8144(3) 0.8126(3) 0.73050(17)
O5D O 0.4379(3) 0.4850(3) 1.04282(15)
O6D O 0.3164(3) 0.5761(3) 1.04581(15)
O6E O 0.1836(3) 0.5761(3) 0.95419(15)
O8E O 0.2620(3) 0.6699(3) 0.88096(15)
O9C O 0.3134(3) 0.8120(3) 0.72537(15)
O9E O 0.1866(3) 0.6880(3) 0.77463(15)
O10C O 0.4447(3) 0.8743(3) 0.76886(14)
O11F O 0.8081(4) 0.9744(3) 0.78966(17)
O23 O 0.2312(11) 0.4578(15) 0.5884(6)
O24 O 0.1919(8) 0.8482(7) 0.9113(4)
O25 O 0.0851(9) 0.2914(6) 0.4787(4)
O26 O 0.250 0.3955(9) 0.500
O27 O 0.0599(11) 0.9778(9) 1.0465(5)
loop_
_geom_bond_atom_site_label_1
_geom_bond_atom_site_label_2
_geom_bond_site_symmetry_1
_geom_bond_site_symmetry_2
Ba1 O2 1_555 1_555
Ba2 O1 1_555 1_555
Ba3 O3 1_555 1_555
C1 C2 1_555 1_555
C2 O1 1_555 1_555
O1 Ba2F 1_555 1_555
O2 Ba2 1_555 1_555
C3 C1 1_555 1_555
C4 C3 1_555 1_555
O3 Ba1 1_555 1_555
O4 C4 1_555 1_555
C5 C3 1_555 1_555
C6 C5 1_555 1_555
O5 Ba3 1_555 1_555
O6 C6 1_555 1_555
C7 C5 1_555 1_555
C8 C7 1_555 1_555
O7 C8 1_555 1_555
O8 C8 1_555 1_555
C9 C7 1_555 1_555
C10 C9 1_555 1_555
O9 C10 1_555 1_555
O10 C10 1_555 1_555
C11 C1 1_555 1_555
C12 C11 1_555 1_555
O11 C12 1_555 1_555
O12 C12 1_555 1_555
O13 Ba1 1_555 1_555
O14 Ba1 1_555 1_555
O15 Ba2 1_555 1_555
O16 Ba2 1_555 1_555
O17 Ba2 1_555 1_555
O18 Ba2 1_555 1_555
O19 Ba3 1_555 1_555
O20 Ba3 1_555 1_555
O21 Ba3 1_555 1_555
O22 Ba1 1_555 1_555
Ba1C O9 1_555 1_555
Ba1E O8 1_555 1_555
Ba2C O10 1_555 1_555
Ba2F O11 1_555 1_555
Ba3D O5 1_555 1_555
Ba3E O6 1_555 1_555
O1F Ba2 1_555 1_555
O5D Ba3 1_555 1_555
O6D Ba3 1_555 1_555
O6E Ba3 1_555 1_555
O8E Ba1 1_555 1_555
O9C Ba1 1_555 1_555
O9E Ba1 1_555 1_555
O10C Ba1 1_555 1_555
O11F Ba2 1_555 1_555
Ba2 O10C 1_555 1_555
Ba3 O8E 1_555 1_555
C2 O2 1_555 1_555
C4 O3 1_555 1_555
C6 O5 1_555 1_555
O6 Ba3D 1_555 1_555
O8 Ba3E 1_555 1_555
C9 C11 1_555 1_555
O9 Ba1E 1_555 1_555
O10 Ba1C 1_555 1_555
Ba2F O1F 1_555 1_555
Ba3D O5D 1_555 1_555

#END
