
#######################################################################
#
#                 Cambridge Crystallographic Data Centre
#                                CCDC 
#
#######################################################################
#
# If this CIF has been generated from an entry in the Cambridge 
# Structural Database, then it will include bibliographic, chemical, 
# crystal, experimental, refinement or atomic coordinate data resulting 
# from the CCDC's data processing and validation procedures.
#
#######################################################################

data_GUBLIA
_symmetry_cell_setting           orthorhombic
_symmetry_space_group_name_H-M   'P b c a'
_symmetry_Int_Tables_number      61
_space_group_name_Hall           '-P 2ac 2ab'
loop_
_symmetry_equiv_pos_site_id
_symmetry_equiv_pos_as_xyz
1 x,y,z
2 1/2-x,-y,1/2+z
3 -x,1/2+y,1/2-z
4 1/2+x,1/2-y,-z
5 -x,-y,-z
6 1/2+x,y,1/2-z
7 x,1/2-y,1/2+z
8 1/2-x,1/2+y,z
_cell_length_a                   18.3790(19)
_cell_length_b                   10.6606(11)
_cell_length_c                   31.736(3)
_cell_angle_alpha                90
_cell_angle_beta                 90
_cell_angle_gamma                90
_cell_volume                     6218.07
loop_
_atom_site_label
_atom_site_type_symbol
_atom_site_fract_x
_atom_site_fract_y
_atom_site_fract_z
C1 C 0.38144(19) 0.7475(4) 0.16588(11)
C2 C 0.32832(19) 0.7938(3) 0.13340(11)
C3 C 0.33190(19) 0.7453(3) 0.09260(11)
H1 H 0.3665 0.6845 0.0864
C4 C 0.28469(19) 0.7859(4) 0.06091(11)
C5 C 0.2316(2) 0.8751(4) 0.07231(12)
H2 H 0.1987 0.9030 0.0521
C6 C 0.2271(2) 0.9223(4) 0.11295(12)
H3 H 0.1913 0.9803 0.1199
C7 C 0.2762(2) 0.8827(4) 0.14314(12)
H4 H 0.2741 0.9160 0.1702
C8 C 0.2906(2) 0.7377(4) 0.01816(11)
C9 C 0.3365(2) 0.6501(4) 0.00182(12)
H5 H 0.3714 0.6090 0.0179
C10 C 0.3268(2) 0.6266(4) -0.04171(12)
H6 H 0.3540 0.5683 -0.0568
C11 C 0.2730(2) 0.6985(4) -0.05935(11)
C12 C 0.2461(2) 0.7028(3) -0.10282(12)
C13 C 0.1890(2) 0.7802(3) -0.11392(11)
H7 H 0.1683 0.8313 -0.0934
C14 C 0.1613(2) 0.7847(4) -0.15428(11)
C15 C 0.1926(2) 0.7102(4) -0.18557(12)
H8 H 0.1748 0.7124 -0.2130
C16 C 0.2505(2) 0.6330(4) -0.17543(12)
H9 H 0.2721 0.5841 -0.1962
C17 C 0.2768(2) 0.6281(4) -0.13441(12)
H10 H 0.3152 0.5747 -0.1279
C18 C 0.0955(2) 0.8648(4) -0.16231(12)
C19 C 0.3839(4) 0.6404(6) 0.27151(15)
H11 H 0.3596 0.6964 0.2540
C20 C 0.3729(4) 0.6277(6) 0.31305(16)
H12 H 0.3390 0.6711 0.3292
C21 C 0.45670(19) 0.4980(4) 0.29338(10)
H13 H 0.4916 0.4348 0.2941
C22 C 0.42647(18) 0.4990(4) 0.36980(10)
C23 C 0.3792(4) 0.5468(6) 0.39857(14)
H14 H 0.3447 0.6058 0.3904
C24 C 0.3827(3) 0.5070(7) 0.44008(14)
H15 H 0.3499 0.5407 0.4593
C25 C 0.4317(2) 0.4213(4) 0.45390(11)
C26 C 0.4775(2) 0.3732(4) 0.42375(13)
H16 H 0.5115 0.3128 0.4315
C27 C 0.4745(3) 0.4120(5) 0.38238(13)
H17 H 0.5063 0.3773 0.3628
C28 C 0.43302(18) 0.3790(4) 0.49823(11)
C29 C 0.3868(2) 0.4263(4) 0.52785(12)
H18 H 0.3540 0.4884 0.5200
C30 C 0.3871(2) 0.3849(4) 0.56933(12)
H19 H 0.3536 0.4171 0.5885
C31 C 0.4358(2) 0.2981(4) 0.58193(11)
C32 C 0.4861(4) 0.2586(7) 0.55395(16)
H20 H 0.5227 0.2044 0.5627
C33 C 0.4839(4) 0.2974(7) 0.51254(16)
H21 H 0.5185 0.2667 0.4938
C34 C 0.4645(2) 0.1412(4) 0.63572(12)
H22 H 0.4846 0.0839 0.6170
C35 C 0.4124(2) 0.3092(4) 0.66062(11)
H23 H 0.3906 0.3876 0.6628
C36 C 0.4262(2) 0.2276(4) 0.69216(11)
H24 H 0.4148 0.2411 0.7204
N1 N 0.43646(18) 0.5579(3) 0.25905(9)
N2 N 0.42025(17) 0.5404(3) 0.32721(9)
N3 N 0.45935(17) 0.1219(3) 0.67664(9)
N4 N 0.43759(17) 0.2516(3) 0.62429(8)
O1 O 0.40363(14) 0.6361(3) 0.16135(8)
O2 O 0.40070(15) 0.8207(3) 0.19445(8)
O3 O 0.06831(15) 0.8634(3) -0.19952(7)
O4 O 0.06926(16) 0.9270(3) -0.13299(9)
S1 S 0.23391(5) 0.79364(9) -0.02131(3)
Zn1 Zn 0.47231(2) 0.55288(4) 0.199545(12)
N3F N 0.45935(17) 0.3781(3) 0.17664(9)
O3C O 0.56831(15) 0.6366(3) 0.19952(7)
Zn1C Zn -0.02769(2) 0.94712(4) -0.199545(12)
Zn1F Zn 0.47231(2) -0.05288(4) 0.699545(12)
loop_
_geom_bond_atom_site_label_1
_geom_bond_atom_site_label_2
_geom_bond_site_symmetry_1
_geom_bond_site_symmetry_2
C1 C2 1_555 1_555
C2 C3 1_555 1_555
C3 H1 1_555 1_555
C4 C3 1_555 1_555
C5 C4 1_555 1_555
H2 C5 1_555 1_555
C6 C5 1_555 1_555
H3 C6 1_555 1_555
C7 C2 1_555 1_555
H4 C7 1_555 1_555
C8 C4 1_555 1_555
C9 C8 1_555 1_555
H5 C9 1_555 1_555
C10 C9 1_555 1_555
H6 C10 1_555 1_555
C11 C10 1_555 1_555
C12 C11 1_555 1_555
C13 C12 1_555 1_555
H7 C13 1_555 1_555
C14 C13 1_555 1_555
C15 C14 1_555 1_555
H8 C15 1_555 1_555
C16 C15 1_555 1_555
H9 C16 1_555 1_555
C17 C12 1_555 1_555
H10 C17 1_555 1_555
C18 C14 1_555 1_555
C19 H11 1_555 1_555
C20 C19 1_555 1_555
H12 C20 1_555 1_555
C21 H13 1_555 1_555
C22 C23 1_555 1_555
C23 H14 1_555 1_555
C24 C23 1_555 1_555
H15 C24 1_555 1_555
C25 C24 1_555 1_555
C26 C25 1_555 1_555
H16 C26 1_555 1_555
C27 C22 1_555 1_555
H17 C27 1_555 1_555
C28 C25 1_555 1_555
C29 C28 1_555 1_555
H18 C29 1_555 1_555
C30 C29 1_555 1_555
H19 C30 1_555 1_555
C31 C30 1_555 1_555
C32 C31 1_555 1_555
H20 C32 1_555 1_555
C33 C28 1_555 1_555
H21 C33 1_555 1_555
C34 H22 1_555 1_555
C35 H23 1_555 1_555
C36 C35 1_555 1_555
H24 C36 1_555 1_555
N1 C19 1_555 1_555
N2 C20 1_555 1_555
N3 C34 1_555 1_555
N4 C31 1_555 1_555
O1 C1 1_555 1_555
O2 C1 1_555 1_555
O3 C18 1_555 1_555
O4 C18 1_555 1_555
S1 C8 1_555 1_555
Zn1 N1 1_555 1_555
N3F Zn1 1_555 1_555
O3C Zn1 1_555 1_555
Zn1C O3 1_555 1_555
Zn1F N3 1_555 1_555
C6 C7 1_555 1_555
C11 S1 1_555 1_555
C16 C17 1_555 1_555
C21 N1 1_555 1_555
C21 N2 1_555 1_555
C22 N2 1_555 1_555
C26 C27 1_555 1_555
C32 C33 1_555 1_555
C34 N4 1_555 1_555
C35 N4 1_555 1_555
C36 N3 1_555 1_555
O1 Zn1 1_555 1_555

#END
