
#######################################################################
#
#                 Cambridge Crystallographic Data Centre
#                                CCDC 
#
#######################################################################
#
# If this CIF has been generated from an entry in the Cambridge 
# Structural Database, then it will include bibliographic, chemical, 
# crystal, experimental, refinement or atomic coordinate data resulting 
# from the CCDC's data processing and validation procedures.
#
#######################################################################

data_GUBLEW
_symmetry_cell_setting           triclinic
_symmetry_space_group_name_H-M   'P -1'
_symmetry_Int_Tables_number      2
_space_group_name_Hall           '-P 1'
loop_
_symmetry_equiv_pos_site_id
_symmetry_equiv_pos_as_xyz
1 x,y,z
2 -x,-y,-z
_cell_length_a                   7.9902(17)
_cell_length_b                   11.043(2)
_cell_length_c                   13.430(4)
_cell_angle_alpha                105.463(6)
_cell_angle_beta                 102.922(6)
_cell_angle_gamma                107.508(4)
_cell_volume                     1027.98
loop_
_atom_site_label
_atom_site_type_symbol
_atom_site_fract_x
_atom_site_fract_y
_atom_site_fract_z
C1 C 1.3431(5) 0.4941(4) 0.4223(3)
C2 C 1.1796(5) 0.4877(4) 0.3395(3)
C3 C 1.0003(6) 0.4089(5) 0.3271(4)
H1 H 0.9796 0.3580 0.3714
C4 C 1.2002(6) 0.5582(5) 0.2689(3)
H2 H 1.3186 0.6117 0.2736
C5 C 0.8503(6) 0.4054(5) 0.2484(4)
H3 H 0.7302 0.3533 0.2422
C6 C 1.0461(6) 0.5498(4) 0.1914(3)
H4 H 1.0636 0.5982 0.1450
N1 N 0.8739(4) 0.4750(4) 0.1812(3)
Zn1 Zn 0.64758(6) 0.47621(5) 0.07247(4)
S1 S 0.20425(18) 0.13803(12) 0.40113(9)
O1 O 0.2162(4) 0.3899(3) -0.0081(2)
O2 O 0.4343(4) 0.3552(3) 0.1044(3)
C7 C 0.2665(6) 0.3356(4) 0.0581(3)
C8 C 0.1205(6) 0.2394(4) 0.0824(3)
C9 C 0.1675(6) 0.1846(4) 0.1615(4)
H5 H 0.2919 0.2115 0.2019
C10 C 0.0298(6) 0.0892(5) 0.1812(4)
C11 C -0.1532(7) 0.0485(6) 0.1199(4)
H6 H -0.2449 -0.0174 0.1305
C12 C -0.2027(7) 0.1043(6) 0.0428(5)
H7 H -0.3274 0.0773 0.0031
C13 C -0.0665(7) 0.2009(5) 0.0242(4)
H8 H -0.1004 0.2394 -0.0268
C14 C 0.0774(6) 0.0328(5) 0.2670(4)
C15 C 0.0300(7) -0.0995(5) 0.2569(4)
H9 H -0.0392 -0.1717 0.1909
C16 C 0.0968(7) -0.1166(5) 0.3570(4)
H10 H 0.0750 -0.2015 0.3632
C17 C 0.1961(6) 0.0026(5) 0.4434(4)
C18 C 0.2938(6) 0.0236(5) 0.5567(4)
C19 C 0.3359(6) 0.1423(5) 0.6425(3)
H11 H 0.2952 0.2085 0.6285
C20 C 0.4376(6) 0.1653(4) 0.7491(3)
C21 C 0.4973(6) 0.0669(5) 0.7704(4)
H12 H 0.5684 0.0820 0.8408
C22 C 0.4505(8) -0.0546(5) 0.6858(4)
H13 H 0.4864 -0.1223 0.7007
C23 C 0.3521(7) -0.0762(5) 0.5807(4)
H14 H 0.3239 -0.1577 0.5248
C24 C 1.6607(6) 0.5070(5) 0.4750(3)
C25 C 1.5083(6) 0.5011(4) 0.3977(3)
H15 H 1.5144 0.5018 0.3295
C26 C 0.4715(6) 0.2920(5) 0.8418(3)
O3 O 0.3789(4) 0.3624(3) 0.8225(2)
O4 O 0.5881(5) 0.3179(3) 0.9328(2)
C1A C 1.6569(5) 0.5059(4) 0.5777(3)
C2A C 1.8204(5) 0.5123(4) 0.6605(3)
C3A C 1.9997(6) 0.5911(5) 0.6729(4)
H1A H 2.0204 0.6420 0.6286
C4A C 1.7998(6) 0.4418(5) 0.7311(3)
H2A H 1.6814 0.3883 0.7264
C5A C 2.1497(6) 0.5946(5) 0.7516(4)
H3A H 2.2698 0.6467 0.7578
C6A C 1.9539(6) 0.4502(4) 0.8086(3)
H4A H 1.9364 0.4018 0.8550
N1A N 2.1261(4) 0.5250(4) 0.8188(3)
C24A C 1.3393(6) 0.4930(5) 0.5250(3)
C25A C 1.4917(6) 0.4989(4) 0.6023(3)
H15A H 1.4856 0.4982 0.6705
Zn1A Zn 0.35242(6) 0.52379(5) -0.07247(4)
S1A S 0.79575(18) 0.86197(12) -0.40113(9)
O1A O 0.7838(4) 0.6101(3) 0.0081(2)
O2A O 0.5657(4) 0.6448(3) -0.1044(3)
C7A C 0.7335(6) 0.6644(4) -0.0581(3)
C8A C 0.8795(6) 0.7606(4) -0.0824(3)
C9A C 0.8325(6) 0.8154(4) -0.1615(4)
H5A H 0.7081 0.7885 -0.2019
C10A C 0.9702(6) 0.9108(5) -0.1812(4)
C11A C 1.1532(7) 0.9515(6) -0.1199(4)
H6A H 1.2449 1.0174 -0.1305
C12A C 1.2027(7) 0.8957(6) -0.0428(5)
H7A H 1.3274 0.9227 -0.0031
C13A C 1.0665(7) 0.7991(5) -0.0242(4)
H8A H 1.1004 0.7606 0.0268
C14A C 0.9226(6) 0.9672(5) -0.2670(4)
C15A C 0.9700(7) 1.0995(5) -0.2569(4)
H9A H 1.0392 1.1717 -0.1909
C16A C 0.9032(7) 1.1166(5) -0.3570(4)
H10A H 0.9250 1.2015 -0.3632
C17A C 0.8039(6) 0.9974(5) -0.4434(4)
C18A C 0.7062(6) 0.9764(5) -0.5567(4)
C19A C 0.6641(6) 0.8577(5) -0.6425(3)
H11A H 0.7048 0.7915 -0.6285
C20A C 0.5624(6) 0.8347(4) -0.7491(3)
C21A C 0.5027(6) 0.9331(5) -0.7704(4)
H12A H 0.4316 0.9180 -0.8408
C22A C 0.5495(8) 1.0546(5) -0.6858(4)
H13A H 0.5136 1.1223 -0.7007
C23A C 0.6479(7) 1.0762(5) -0.5807(4)
H14A H 0.6761 1.1577 -0.5248
C26A C 0.5285(6) 0.7080(5) -0.8418(3)
O3A O 0.6211(4) 0.6376(3) -0.8225(2)
O4A O 0.4119(5) 0.6821(3) -0.9328(2)
N1A_2 N 0.1261(4) 0.5250(4) -0.1812(3)
Zn1_2 Zn 0.64758(6) 0.47621(5) -0.92753(4)
Zn1_3 Zn 0.64758(6) 0.47621(5) 1.07247(4)
Zn1A_2 Zn 0.35242(6) 0.52379(5) -1.07247(4)
Zn1A_3 Zn 0.35242(6) 0.52379(5) 0.92753(4)
Zn1A_4 Zn 2.35242(6) 0.52379(5) 0.92753(4)
O3_2 O 0.3789(4) 0.3624(3) -0.1775(2)
O3A_2 O 0.6211(4) 0.6376(3) 0.1775(2)
O4_2 O 0.5881(5) 0.3179(3) -0.0672(2)
O4A_2 O 0.4119(5) 0.6821(3) 0.0672(2)
loop_
_geom_bond_atom_site_label_1
_geom_bond_atom_site_label_2
_geom_bond_site_symmetry_1
_geom_bond_site_symmetry_2
C1 C2 1_555 1_555
C2 C3 1_555 1_555
C3 H1 1_555 1_555
C4 C2 1_555 1_555
H2 C4 1_555 1_555
C5 C3 1_555 1_555
H3 C5 1_555 1_555
C6 C4 1_555 1_555
H4 C6 1_555 1_555
N1 C5 1_555 1_555
Zn1 N1 1_555 1_555
S1 C14 1_555 1_555
O1 C7 1_555 1_555
O2 Zn1 1_555 1_555
C7 O2 1_555 1_555
C8 C7 1_555 1_555
C9 C8 1_555 1_555
H5 C9 1_555 1_555
C10 C9 1_555 1_555
C11 C10 1_555 1_555
H6 C11 1_555 1_555
C12 C11 1_555 1_555
H7 C12 1_555 1_555
C13 C8 1_555 1_555
H8 C13 1_555 1_555
C14 C10 1_555 1_555
C15 C14 1_555 1_555
H9 C15 1_555 1_555
C16 C15 1_555 1_555
H10 C16 1_555 1_555
C17 S1 1_555 1_555
C18 C17 1_555 1_555
C19 C18 1_555 1_555
H11 C19 1_555 1_555
C20 C19 1_555 1_555
C21 C20 1_555 1_555
H12 C21 1_555 1_555
C22 C21 1_555 1_555
H13 C22 1_555 1_555
C23 C18 1_555 1_555
H14 C23 1_555 1_555
C24 C25 1_555 1_555
C25 C1 1_555 1_555
H15 C25 1_555 1_555
C26 C20 1_555 1_555
O3 C26 1_555 1_555
O4 C26 1_555 1_555
C1A C24 1_555 1_555
C2A C1A 1_555 1_555
C3A C2A 1_555 1_555
H1A C3A 1_555 1_555
C4A C2A 1_555 1_555
H2A C4A 1_555 1_555
C5A C3A 1_555 1_555
H3A C5A 1_555 1_555
C6A C4A 1_555 1_555
H4A C6A 1_555 1_555
N1A C5A 1_555 1_555
C24A C1 1_555 1_555
C25A C1A 1_555 1_555
H15A C25A 1_555 1_555
Zn1A O1 1_555 1_555
S1A C14A 1_555 1_555
O1A Zn1 1_555 1_555
O2A Zn1A 1_555 1_555
C7A O1A 1_555 1_555
C8A C7A 1_555 1_555
C9A C8A 1_555 1_555
H5A C9A 1_555 1_555
C10A C9A 1_555 1_555
C11A C10A 1_555 1_555
H6A C11A 1_555 1_555
C12A C11A 1_555 1_555
H7A C12A 1_555 1_555
C13A C8A 1_555 1_555
H8A C13A 1_555 1_555
C14A C10A 1_555 1_555
C15A C14A 1_555 1_555
H9A C15A 1_555 1_555
C16A C15A 1_555 1_555
H10A C16A 1_555 1_555
C17A S1A 1_555 1_555
C18A C17A 1_555 1_555
C19A C18A 1_555 1_555
H11A C19A 1_555 1_555
C20A C19A 1_555 1_555
C21A C20A 1_555 1_555
H12A C21A 1_555 1_555
C22A C21A 1_555 1_555
H13A C22A 1_555 1_555
C23A C18A 1_555 1_555
H14A C23A 1_555 1_555
C26A C20A 1_555 1_555
O3A C26A 1_555 1_555
O4A C26A 1_555 1_555
N1A_2 Zn1A 1_555 1_555
Zn1_2 O3A 1_555 1_555
Zn1_3 O4 1_555 1_555
Zn1A_2 O4A 1_555 1_555
Zn1A_3 O3 1_555 1_555
Zn1A_4 N1A 1_555 1_555
O3_2 Zn1A 1_555 1_555
O3A_2 Zn1 1_555 1_555
O4_2 Zn1 1_555 1_555
O4A_2 Zn1A 1_555 1_555
C6 N1 1_555 1_555
C12 C13 1_555 1_555
C16 C17 1_555 1_555
C22 C23 1_555 1_555
C6A N1A 1_555 1_555
C24A C25A 1_555 1_555
O2A C7A 1_555 1_555
C12A C13A 1_555 1_555
C16A C17A 1_555 1_555
C22A C23A 1_555 1_555

#END
