
#######################################################################
#
#                 Cambridge Crystallographic Data Centre
#                                CCDC 
#
#######################################################################
#
# If this CIF has been generated from an entry in the Cambridge 
# Structural Database, then it will include bibliographic, chemical, 
# crystal, experimental, refinement or atomic coordinate data resulting 
# from the CCDC's data processing and validation procedures.
#
#######################################################################

data_GUBPAW
_symmetry_cell_setting           triclinic
_symmetry_space_group_name_H-M   'P -1'
_symmetry_Int_Tables_number      2
_space_group_name_Hall           '-P 1'
loop_
_symmetry_equiv_pos_site_id
_symmetry_equiv_pos_as_xyz
1 x,y,z
2 -x,-y,-z
_cell_length_a                   10.551(3)
_cell_length_b                   13.573(4)
_cell_length_c                   30.865(5)
_cell_angle_alpha                80.126(11)
_cell_angle_beta                 79.263(11)
_cell_angle_gamma                74.635(10)
_cell_volume                     4152.6
loop_
_atom_site_label
_atom_site_type_symbol
_atom_site_fract_x
_atom_site_fract_y
_atom_site_fract_z
Ru1 Ru 0.94134(3) 0.066711(18) 0.478076(8)
Ru2 Ru 0.52575(2) 0.485174(18) 0.283954(8)
Ru3 Ru 0.46817(2) 0.522896(18) 0.213933(8)
Ru4 Ru 0.05663(2) 0.932850(18) 0.022477(8)
F1 F 1.7076(3) 0.1154(3) 0.36531(9)
F2 F 1.0732(3) -0.38457(19) 0.31408(8)
F3 F -0.1486(2) 0.25813(18) 0.33996(7)
F4 F 0.0916(3) 1.0882(2) 0.29701(12)
F5 F -0.7146(3) 0.8956(2) 0.13037(9)
F6 F -0.0813(3) 1.38905(17) 0.18341(8)
F7 F 1.1380(2) 0.75412(18) 0.15914(7)
F8 F 0.8883(3) -0.08278(19) 0.20151(12)
O1 O 1.1175(2) 0.09381(18) 0.44188(8)
O2 O 1.2316(2) -0.03681(17) 0.48514(8)
O3 O 0.9403(2) -0.03315(17) 0.43495(8)
O4 O 1.0562(2) -0.16438(17) 0.47773(8)
O5 O 0.4233(2) 0.62882(16) 0.29712(7)
O6 O 0.3674(2) 0.66453(17) 0.22885(7)
O7 O 0.3597(2) 0.43198(17) 0.30583(7)
O8 O 0.3034(2) 0.46849(17) 0.23735(7)
O9 O 0.6240(3) 0.29647(19) 0.52246(8)
O10 O -0.1189(2) 0.90707(17) 0.05583(7)
O11 O -0.2287(2) 1.03696(17) 0.01142(7)
O12 O 0.0530(2) 1.03069(16) 0.06567(7)
O13 O -0.0567(2) 1.16200(16) 0.02151(7)
O14 O 0.5694(2) 0.37946(16) 0.20068(7)
O15 O 0.6253(2) 0.34334(17) 0.26949(8)
O16 O 0.6346(2) 0.57460(17) 0.19221(7)
O17 O 0.6907(2) 0.53858(17) 0.26088(7)
O18 O 0.3830(4) 0.7051(2) -0.02422(9)
N1 N 0.8061(3) 0.2032(2) 0.44298(9)
N2 N 0.5800(3) 0.4376(2) 0.35312(9)
N3 N 0.4161(3) 0.5692(2) 0.14599(9)
N4 N 0.1846(3) 0.7960(2) 0.05639(9)
C1 C 1.2255(3) 0.0365(3) 0.45346(12)
C2 C 1.3540(4) 0.0562(3) 0.42911(12)
C3 C 1.4727(4) 0.0023(3) 0.44388(13)
H1 H 1.4720 -0.0497 0.4687
C4 C 1.5924(4) 0.0234(4) 0.42289(13)
H2 H 1.6736 -0.0123 0.4334
C5 C 1.5904(4) 0.0973(4) 0.38654(14)
C6 C 1.4762(5) 0.1521(5) 0.37152(17)
H3 H 1.4779 0.2048 0.3469
C7 C 1.3576(5) 0.1305(4) 0.39243(16)
H4 H 1.2773 0.1670 0.3815
C8 C 1.0011(3) -0.1267(2) 0.44355(11)
C9 C 1.0123(4) -0.1968(3) 0.40987(12)
C10 C 0.9549(4) -0.1607(3) 0.37184(12)
H5 H 0.9026 -0.0920 0.3678
C11 C 0.9732(4) -0.2245(3) 0.33936(13)
H6 H 0.9325 -0.2011 0.3133
C12 C 1.0521(5) -0.3229(3) 0.34607(13)
C13 C 1.1104(5) -0.3616(3) 0.38366(15)
H7 H 1.1639 -0.4300 0.3872
C14 C 1.0887(4) -0.2979(3) 0.41630(13)
H8 H 1.1258 -0.3230 0.4430
C15 C 0.7238(3) 0.2769(2) 0.43922(10)
C16 C 0.6268(3) 0.3701(3) 0.43292(11)
C17 C 0.6030(3) 0.4052(2) 0.38857(11)
C18 C 0.5626(3) 0.4343(2) 0.46666(11)
C19 C 0.5649(4) 0.3982(3) 0.51312(11)
C20 C 0.4941(4) 0.5375(3) 0.45526(11)
H9 H 0.4888 0.5631 0.4248
C21 C 0.6132(5) 0.2515(3) 0.56774(12)
H10 H 0.660(3) 0.2845(19) 0.5846(5)
H11 H 0.655(3) 0.176(2) 0.56952(15)
H12 H 0.517(3) 0.263(2) 0.5810(5)
C22 C 0.2838(3) 0.4333(2) 0.27818(11)
C23 C 0.1668(3) 0.3891(2) 0.29480(11)
C24 C 0.0821(4) 0.3842(3) 0.26574(12)
H13 H 0.0981 0.4108 0.2352
C25 C -0.0244(4) 0.3408(3) 0.28127(12)
H14 H -0.0827 0.3377 0.2618
C26 C -0.0449(4) 0.3022(3) 0.32508(12)
C27 C 0.0353(4) 0.3056(3) 0.35506(12)
H15 H 0.0183 0.2780 0.3854
C28 C 0.1417(4) 0.3508(3) 0.33945(12)
H16 H 0.1976 0.3555 0.3594
C29 C 0.3646(3) 0.6896(2) 0.26647(11)
C30 C 0.2916(3) 0.7954(2) 0.27529(11)
C31 C 0.2902(4) 0.8289(3) 0.31584(13)
H17 H 0.3359 0.7836 0.3381
C32 C 0.2217(4) 0.9287(3) 0.32359(15)
H18 H 0.2191 0.9528 0.3510
C33 C 0.1576(4) 0.9915(3) 0.28979(17)
C34 C 0.1598(4) 0.9612(3) 0.24935(15)
H19 H 0.1161 1.0075 0.2269
C35 C 0.2269(4) 0.8619(3) 0.24207(13)
H20 H 0.2290 0.8389 0.2145
C36 C -0.2268(3) 0.9638(2) 0.04345(10)
C37 C -0.3562(4) 0.9467(3) 0.06702(12)
C38 C -0.4737(4) 1.0073(3) 0.05354(12)
H21 H -0.4711 1.0614 0.0296
C39 C -0.5954(4) 0.9896(3) 0.07472(13)
H22 H -0.6763 1.0311 0.0657
C40 C -0.5958(4) 0.9115(4) 0.10868(14)
C41 C -0.4812(5) 0.8475(4) 0.12243(16)
H23 H -0.4849 0.7922 0.1458
C42 C -0.3608(4) 0.8663(3) 0.10120(15)
H24 H -0.2804 0.8236 0.1101
C43 C -0.0058(3) 1.1248(2) 0.05688(11)
C44 C -0.0194(3) 1.1957(2) 0.08985(11)
C45 C 0.0356(3) 1.1606(3) 0.12914(11)
H25 H 0.0863 1.0917 0.1342
C46 C 0.0163(4) 1.2264(3) 0.16048(12)
H26 H 0.0544 1.2040 0.1871
C47 C -0.0598(4) 1.3254(3) 0.15232(13)
C48 C -0.1144(4) 1.3632(3) 0.11392(13)
H27 H -0.1652 1.4323 0.1092
C49 C -0.0925(4) 1.2970(3) 0.08226(12)
H28 H -0.1277 1.3211 0.0551
C50 C 0.2731(3) 0.7248(2) 0.05988(10)
C51 C 0.3751(3) 0.6361(2) 0.06664(10)
C52 C 0.3966(3) 0.6019(2) 0.11037(11)
C53 C 0.4398(3) 0.5684(2) 0.03232(10)
C54 C 0.4399(4) 0.6020(3) -0.01317(11)
C55 C 0.5023(4) 0.4650(3) 0.04447(11)
H29 H 0.5052 0.4401 0.0751
C56 C 0.3948(4) 0.7468(3) -0.06836(14)
H30 H 0.492(3) 0.741(2) -0.0807(4)
H31 H 0.346(3) 0.822(2) -0.07104(18)
H32 H 0.355(3) 0.7085(18) -0.0857(5)
C57 C 0.7121(3) 0.5737(2) 0.21964(10)
C58 C 0.8291(3) 0.6170(2) 0.20319(11)
C59 C 0.9121(4) 0.6219(3) 0.23265(12)
H33 H 0.8959 0.5944 0.2630
C60 C 1.0189(4) 0.6674(3) 0.21732(12)
H34 H 1.0772 0.6704 0.2368
C61 C 1.0376(4) 0.7078(3) 0.17331(12)
C62 C 0.9570(4) 0.7025(3) 0.14308(12)
H35 H 0.9733 0.7301 0.1127
C63 C 0.8538(4) 0.6562(3) 0.15858(12)
H36 H 0.7983 0.6507 0.1386
C64 C 0.6262(3) 0.3180(2) 0.23125(11)
C65 C 0.6973(3) 0.2117(2) 0.22277(11)
C66 C 0.6950(4) 0.1780(3) 0.18284(13)
H37 H 0.6486 0.2234 0.1608
C67 C 0.7604(4) 0.0785(3) 0.17528(15)
H38 H 0.7616 0.0552 0.1478
C68 C 0.8230(4) 0.0145(3) 0.20805(17)
C69 C 0.8265(4) 0.0452(3) 0.24815(16)
H39 H 0.8719 -0.0013 0.2701
C70 C 0.7630(4) 0.1448(3) 0.25552(13)
H40 H 0.7639 0.1677 0.2828
O9A O 0.3760(3) 0.70353(19) 0.47754(8)
N1A N 0.1939(3) 0.7968(2) 0.55702(9)
N2A N 0.4200(3) 0.5624(2) 0.64688(9)
C15A C 0.2762(3) 0.7231(2) 0.56078(10)
C16A C 0.3732(3) 0.6299(3) 0.56708(11)
C17A C 0.3970(3) 0.5948(2) 0.61143(11)
C18A C 0.4374(3) 0.5657(2) 0.53334(11)
C19A C 0.4351(4) 0.6018(3) 0.48688(11)
C20A C 0.5059(4) 0.4625(3) 0.54474(11)
H9A H 0.5112 0.4369 0.5752
C21A C 0.3868(5) 0.7485(3) 0.43226(12)
H10A H 0.340(3) 0.7155(19) 0.4154(5)
H11A H 0.345(3) 0.824(2) 0.43048(15)
H12A H 0.483(3) 0.737(2) 0.4190(5)
O18A O 0.6170(4) 0.2949(2) 0.02422(9)
N3A N 0.5839(3) 0.4308(2) -0.14599(9)
N4A N 0.8154(3) 0.2040(2) -0.05639(9)
C50A C 0.7269(3) 0.2752(2) -0.05988(10)
C51A C 0.6249(3) 0.3639(2) -0.06664(10)
C52A C 0.6034(3) 0.3981(2) -0.11037(11)
C53A C 0.5602(3) 0.4316(2) -0.03232(10)
C54A C 0.5601(4) 0.3980(3) 0.01317(11)
C55A C 0.4977(4) 0.5350(3) -0.04447(11)
H29A H 0.4948 0.5599 -0.0751
C56A C 0.6052(4) 0.2532(3) 0.06836(14)
H30A H 0.508(3) 0.259(2) 0.0807(4)
H31A H 0.654(3) 0.178(2) 0.07104(18)
H32A H 0.645(3) 0.2915(18) 0.0857(5)
Ru4A Ru -0.05663(2) 1.067150(18) -0.022477(8)
F5A F 0.7146(3) 1.1044(2) -0.13037(9)
F6A F 0.0813(3) 0.61095(17) -0.18341(8)
O10A O 0.1189(2) 1.09293(17) -0.05583(7)
O11A O 0.2287(2) 0.96304(17) -0.01142(7)
O12A O -0.0530(2) 0.96931(16) -0.06567(7)
O13A O 0.0567(2) 0.83800(16) -0.02151(7)
C36A C 0.2268(3) 1.0362(2) -0.04345(10)
C37A C 0.3562(4) 1.0533(3) -0.06702(12)
C38A C 0.4737(4) 0.9927(3) -0.05354(12)
H21A H 0.4711 0.9386 -0.0296
C39A C 0.5954(4) 1.0104(3) -0.07472(13)
H22A H 0.6763 0.9689 -0.0657
C40A C 0.5958(4) 1.0885(4) -0.10868(14)
C41A C 0.4812(5) 1.1525(4) -0.12243(16)
H23A H 0.4849 1.2078 -0.1458
C42A C 0.3608(4) 1.1337(3) -0.10120(15)
H24A H 0.2804 1.1764 -0.1101
C43A C 0.0058(3) 0.8752(2) -0.05688(11)
C44A C 0.0194(3) 0.8043(2) -0.08985(11)
C45A C -0.0356(3) 0.8394(3) -0.12914(11)
H25A H -0.0863 0.9083 -0.1342
C46A C -0.0163(4) 0.7736(3) -0.16048(12)
H26A H -0.0544 0.7960 -0.1871
C47A C 0.0598(4) 0.6746(3) -0.15232(13)
C48A C 0.1144(4) 0.6368(3) -0.11392(13)
H27A H 0.1652 0.5677 -0.1092
C49A C 0.0925(4) 0.7030(3) -0.08226(12)
H28A H 0.1277 0.6789 -0.0551
Ru2A Ru 0.47425(2) 0.514826(18) 0.716046(8)
Ru3A Ru 0.53183(2) 0.477104(18) 0.786067(8)
F3A F 1.1486(2) 0.74187(18) 0.66004(7)
F4A F 0.9084(3) -0.0882(2) 0.70299(12)
F7A F -0.1380(2) 0.24588(18) 0.84086(7)
F8A F 0.1117(3) 1.08278(19) 0.79849(12)
O5A O 0.5767(2) 0.37118(16) 0.70288(7)
O6A O 0.6326(2) 0.33547(17) 0.77115(7)
O7A O 0.6403(2) 0.56802(17) 0.69417(7)
O8A O 0.6966(2) 0.53151(17) 0.76265(7)
O14A O 0.4306(2) 0.62054(16) 0.79932(7)
O15A O 0.3747(2) 0.65666(17) 0.73051(8)
O16A O 0.3654(2) 0.42540(17) 0.80779(7)
O17A O 0.3093(2) 0.46142(17) 0.73912(7)
C22A C 0.7162(3) 0.5667(2) 0.72182(11)
C23A C 0.8332(3) 0.6109(2) 0.70520(11)
C24A C 0.9179(4) 0.6158(3) 0.73426(12)
H13A H 0.9019 0.5892 0.7648
C25A C 1.0244(4) 0.6592(3) 0.71873(12)
H14A H 1.0827 0.6623 0.7382
C26A C 1.0449(4) 0.6978(3) 0.67492(12)
C27A C 0.9647(4) 0.6944(3) 0.64494(12)
H15A H 0.9817 0.7220 0.6146
C28A C 0.8583(4) 0.6492(3) 0.66055(12)
H16A H 0.8024 0.6445 0.6406
C29A C 0.6354(3) 0.3104(2) 0.73353(11)
C30A C 0.7084(3) 0.2046(2) 0.72471(11)
C31A C 0.7098(4) 0.1711(3) 0.68416(13)
H17A H 0.6641 0.2164 0.6619
C32A C 0.7783(4) 0.0713(3) 0.67641(15)
H18A H 0.7809 0.0472 0.6490
C33A C 0.8424(4) 0.0085(3) 0.71021(17)
C34A C 0.8402(4) 0.0388(3) 0.75065(15)
H19A H 0.8839 -0.0075 0.7731
C35A C 0.7731(4) 0.1381(3) 0.75793(13)
H20A H 0.7710 0.1611 0.7855
C57A C 0.2879(3) 0.4263(2) 0.78036(10)
C58A C 0.1709(3) 0.3830(2) 0.79681(11)
C59A C 0.0879(4) 0.3781(3) 0.76735(12)
H33A H 0.1041 0.4056 0.7370
C60A C -0.0189(4) 0.3326(3) 0.78268(12)
H34A H -0.0772 0.3296 0.7632
C61A C -0.0376(4) 0.2922(3) 0.82669(12)
C62A C 0.0430(4) 0.2975(3) 0.85692(12)
H35A H 0.0267 0.2699 0.8873
C63A C 0.1462(4) 0.3438(3) 0.84142(12)
H36A H 0.2017 0.3493 0.8614
C64A C 0.3738(3) 0.6820(2) 0.76875(11)
C65A C 0.3027(3) 0.7883(2) 0.77723(11)
C66A C 0.3050(4) 0.8220(3) 0.81716(13)
H37A H 0.3514 0.7766 0.8392
C67A C 0.2396(4) 0.9215(3) 0.82472(15)
H38A H 0.2384 0.9448 0.8522
C68A C 0.1770(4) 0.9855(3) 0.79195(17)
C69A C 0.1735(4) 0.9548(3) 0.75185(16)
H39A H 0.1281 1.0013 0.7299
C70A C 0.2370(4) 0.8552(3) 0.74448(13)
H40A H 0.2361 0.8323 0.7172
Ru1A Ru 1.05866(3) -0.066711(18) 0.521924(8)
F1A F 0.2924(3) -0.1154(3) 0.63469(9)
F2A F 0.9268(3) 0.38457(19) 0.68592(8)
O1A O 0.8825(2) -0.09381(18) 0.55812(8)
O2A O 0.7684(2) 0.03681(17) 0.51486(8)
O3A O 1.0597(2) 0.03315(17) 0.56505(8)
O4A O 0.9438(2) 0.16438(17) 0.52227(8)
C1A C 0.7745(3) -0.0365(3) 0.54654(12)
C2A C 0.6460(4) -0.0562(3) 0.57089(12)
C3A C 0.5273(4) -0.0023(3) 0.55612(13)
H1A H 0.5280 0.0497 0.5313
C4A C 0.4076(4) -0.0234(4) 0.57711(13)
H2A H 0.3264 0.0123 0.5666
C5A C 0.4096(4) -0.0973(4) 0.61346(14)
C6A C 0.5238(5) -0.1521(5) 0.62848(17)
H3A H 0.5221 -0.2048 0.6531
C7A C 0.6424(5) -0.1305(4) 0.60757(16)
H4A H 0.7227 -0.1670 0.6185
C8A C 0.9989(3) 0.1267(2) 0.55645(11)
C9A C 0.9877(4) 0.1968(3) 0.59013(12)
C10A C 1.0451(4) 0.1607(3) 0.62816(12)
H5A H 1.0974 0.0920 0.6322
C11A C 1.0268(4) 0.2245(3) 0.66064(13)
H6A H 1.0675 0.2011 0.6867
C12A C 0.9479(5) 0.3229(3) 0.65393(13)
C13A C 0.8896(5) 0.3616(3) 0.61634(15)
H7A H 0.8361 0.4300 0.6128
C14A C 0.9113(4) 0.2979(3) 0.58370(13)
H8A H 0.8742 0.3230 0.5570
Ru1A_2 Ru 0.05866(3) 0.933289(18) 0.521924(8)
Ru3A_2 Ru 0.53183(2) 0.477104(18) -0.213933(8)
Ru4A_2 Ru 0.94337(2) 0.067150(18) -0.022477(8)
N1A_2 N 1.1939(3) -0.2032(2) 0.55702(9)
N3A_2 N 0.5839(3) 0.4308(2) 0.85401(9)
N4A_2 N -0.1846(3) 1.2040(2) -0.05639(9)
loop_
_geom_bond_atom_site_label_1
_geom_bond_atom_site_label_2
_geom_bond_site_symmetry_1
_geom_bond_site_symmetry_2
Ru1 O1 1_555 1_555
Ru2 Ru3 1_555 1_555
Ru3 O6 1_555 1_555
Ru4 O10 1_555 1_555
F1 C5 1_555 1_555
F2 C12 1_555 1_555
F3 C26 1_555 1_555
F4 C33 1_555 1_555
F5 C40 1_555 1_555
F6 C47 1_555 1_555
F7 C61 1_555 1_555
F8 C68 1_555 1_555
O1 C1 1_555 1_555
O2 C1 1_555 1_555
O3 Ru1 1_555 1_555
O4 C8 1_555 1_555
O5 Ru2 1_555 1_555
O6 C29 1_555 1_555
O7 Ru2 1_555 1_555
O8 Ru3 1_555 1_555
O9 C19 1_555 1_555
O10 C36 1_555 1_555
O11 C36 1_555 1_555
O12 Ru4 1_555 1_555
O13 C43 1_555 1_555
O14 Ru3 1_555 1_555
O15 Ru2 1_555 1_555
O16 Ru3 1_555 1_555
O17 Ru2 1_555 1_555
O18 C54 1_555 1_555
N1 Ru1 1_555 1_555
N2 Ru2 1_555 1_555
N3 Ru3 1_555 1_555
N4 Ru4 1_555 1_555
C1 C2 1_555 1_555
C2 C3 1_555 1_555
C3 H1 1_555 1_555
C4 C3 1_555 1_555
H2 C4 1_555 1_555
C5 C4 1_555 1_555
C6 C5 1_555 1_555
H3 C6 1_555 1_555
C7 C2 1_555 1_555
H4 C7 1_555 1_555
C8 O3 1_555 1_555
C9 C8 1_555 1_555
C10 C9 1_555 1_555
H5 C10 1_555 1_555
C11 C10 1_555 1_555
H6 C11 1_555 1_555
C12 C11 1_555 1_555
C13 C12 1_555 1_555
H7 C13 1_555 1_555
C14 C9 1_555 1_555
H8 C14 1_555 1_555
C15 N1 1_555 1_555
C16 C15 1_555 1_555
C17 N2 1_555 1_555
C18 C16 1_555 1_555
C19 C18 1_555 1_555
C20 C18 1_555 1_555
H9 C20 1_555 1_555
C21 O9 1_555 1_555
H10 C21 1_555 1_555
H11 C21 1_555 1_555
H12 C21 1_555 1_555
C22 O7 1_555 1_555
C23 C22 1_555 1_555
C24 C23 1_555 1_555
H13 C24 1_555 1_555
C25 C24 1_555 1_555
H14 C25 1_555 1_555
C26 C25 1_555 1_555
C27 C26 1_555 1_555
H15 C27 1_555 1_555
C28 C23 1_555 1_555
H16 C28 1_555 1_555
C29 O5 1_555 1_555
C30 C29 1_555 1_555
C31 C30 1_555 1_555
H17 C31 1_555 1_555
C32 C31 1_555 1_555
H18 C32 1_555 1_555
C33 C32 1_555 1_555
C34 C33 1_555 1_555
H19 C34 1_555 1_555
C35 C30 1_555 1_555
H20 C35 1_555 1_555
C36 C37 1_555 1_555
C37 C38 1_555 1_555
C38 H21 1_555 1_555
C39 C38 1_555 1_555
H22 C39 1_555 1_555
C40 C39 1_555 1_555
C41 C40 1_555 1_555
H23 C41 1_555 1_555
C42 C37 1_555 1_555
H24 C42 1_555 1_555
C43 O12 1_555 1_555
C44 C43 1_555 1_555
C45 C44 1_555 1_555
H25 C45 1_555 1_555
C46 C45 1_555 1_555
H26 C46 1_555 1_555
C47 C46 1_555 1_555
C48 C47 1_555 1_555
H27 C48 1_555 1_555
C49 C44 1_555 1_555
H28 C49 1_555 1_555
C50 N4 1_555 1_555
C51 C50 1_555 1_555
C52 N3 1_555 1_555
C53 C51 1_555 1_555
C54 C53 1_555 1_555
C55 C53 1_555 1_555
H29 C55 1_555 1_555
C56 O18 1_555 1_555
H30 C56 1_555 1_555
H31 C56 1_555 1_555
H32 C56 1_555 1_555
C57 O16 1_555 1_555
C58 C57 1_555 1_555
C59 C58 1_555 1_555
H33 C59 1_555 1_555
C60 C59 1_555 1_555
H34 C60 1_555 1_555
C61 C60 1_555 1_555
C62 C61 1_555 1_555
H35 C62 1_555 1_555
C63 C58 1_555 1_555
H36 C63 1_555 1_555
C64 O14 1_555 1_555
C65 C64 1_555 1_555
C66 C65 1_555 1_555
H37 C66 1_555 1_555
C67 C66 1_555 1_555
H38 C67 1_555 1_555
C68 C67 1_555 1_555
C69 C68 1_555 1_555
H39 C69 1_555 1_555
C70 C65 1_555 1_555
H40 C70 1_555 1_555
O9A C19A 1_555 1_555
N1A C15A 1_555 1_555
N2A C17A 1_555 1_555
C15A C16A 1_555 1_555
C16A C17A 1_555 1_555
C18A C16A 1_555 1_555
C19A C20 1_555 1_555
C20A C19 1_555 1_555
H9A C20A 1_555 1_555
C21A O9A 1_555 1_555
H10A C21A 1_555 1_555
H11A C21A 1_555 1_555
H12A C21A 1_555 1_555
O18A C54A 1_555 1_555
N3A C52A 1_555 1_555
N4A C50A 1_555 1_555
C50A C51A 1_555 1_555
C51A C52A 1_555 1_555
C53A C51A 1_555 1_555
C54A C55 1_555 1_555
C55A C54 1_555 1_555
H29A C55A 1_555 1_555
C56A O18A 1_555 1_555
H30A C56A 1_555 1_555
H31A C56A 1_555 1_555
H32A C56A 1_555 1_555
Ru4A Ru4 1_555 1_555
F5A C40A 1_555 1_555
F6A C47A 1_555 1_555
O10A Ru4A 1_555 1_555
O11A Ru4 1_555 1_555
O12A Ru4A 1_555 1_555
O13A Ru4 1_555 1_555
C36A O10A 1_555 1_555
C37A C36A 1_555 1_555
C38A C37A 1_555 1_555
H21A C38A 1_555 1_555
C39A C38A 1_555 1_555
H22A C39A 1_555 1_555
C40A C39A 1_555 1_555
C41A C40A 1_555 1_555
H23A C41A 1_555 1_555
C42A C37A 1_555 1_555
H24A C42A 1_555 1_555
C43A O12A 1_555 1_555
C44A C43A 1_555 1_555
C45A C44A 1_555 1_555
H25A C45A 1_555 1_555
C46A C45A 1_555 1_555
H26A C46A 1_555 1_555
C47A C46A 1_555 1_555
C48A C47A 1_555 1_555
H27A C48A 1_555 1_555
C49A C44A 1_555 1_555
H28A C49A 1_555 1_555
Ru2A N2A 1_555 1_555
Ru3A Ru2A 1_555 1_555
F3A C26A 1_555 1_555
F4A C33A 1_555 1_555
F7A C61A 1_555 1_555
F8A C68A 1_555 1_555
O5A Ru2A 1_555 1_555
O6A Ru3A 1_555 1_555
O7A Ru2A 1_555 1_555
O8A Ru3A 1_555 1_555
O14A Ru3A 1_555 1_555
O15A Ru2A 1_555 1_555
O16A Ru3A 1_555 1_555
O17A Ru2A 1_555 1_555
C22A O7A 1_555 1_555
C23A C22A 1_555 1_555
C24A C23A 1_555 1_555
H13A C24A 1_555 1_555
C25A C24A 1_555 1_555
H14A C25A 1_555 1_555
C26A C25A 1_555 1_555
C27A C26A 1_555 1_555
H15A C27A 1_555 1_555
C28A C23A 1_555 1_555
H16A C28A 1_555 1_555
C29A O5A 1_555 1_555
C30A C29A 1_555 1_555
C31A C30A 1_555 1_555
H17A C31A 1_555 1_555
C32A C31A 1_555 1_555
H18A C32A 1_555 1_555
C33A C32A 1_555 1_555
C34A C33A 1_555 1_555
H19A C34A 1_555 1_555
C35A C30A 1_555 1_555
H20A C35A 1_555 1_555
C57A O16A 1_555 1_555
C58A C57A 1_555 1_555
C59A C58A 1_555 1_555
H33A C59A 1_555 1_555
C60A C59A 1_555 1_555
H34A C60A 1_555 1_555
C61A C60A 1_555 1_555
C62A C61A 1_555 1_555
H35A C62A 1_555 1_555
C63A C58A 1_555 1_555
H36A C63A 1_555 1_555
C64A O14A 1_555 1_555
C65A C64A 1_555 1_555
C66A C65A 1_555 1_555
H37A C66A 1_555 1_555
C67A C66A 1_555 1_555
H38A C67A 1_555 1_555
C68A C67A 1_555 1_555
C69A C68A 1_555 1_555
H39A C69A 1_555 1_555
C70A C65A 1_555 1_555
H40A C70A 1_555 1_555
Ru1A Ru1 1_555 1_555
F1A C5A 1_555 1_555
F2A C12A 1_555 1_555
O1A Ru1A 1_555 1_555
O2A Ru1 1_555 1_555
O3A Ru1A 1_555 1_555
O4A Ru1 1_555 1_555
C1A O1A 1_555 1_555
C2A C1A 1_555 1_555
C3A C2A 1_555 1_555
H1A C3A 1_555 1_555
C4A C3A 1_555 1_555
H2A C4A 1_555 1_555
C5A C4A 1_555 1_555
C6A C5A 1_555 1_555
H3A C6A 1_555 1_555
C7A C2A 1_555 1_555
H4A C7A 1_555 1_555
C8A O3A 1_555 1_555
C9A C8A 1_555 1_555
C10A C9A 1_555 1_555
H5A C10A 1_555 1_555
C11A C10A 1_555 1_555
H6A C11A 1_555 1_555
C12A C11A 1_555 1_555
C13A C12A 1_555 1_555
H7A C13A 1_555 1_555
C14A C9A 1_555 1_555
H8A C14A 1_555 1_555
Ru1A_2 N1A 1_555 1_555
Ru3A_2 N3A 1_555 1_555
Ru4A_2 N4A 1_555 1_555
N1A_2 Ru1A 1_555 1_555
N3A_2 Ru3A 1_555 1_555
N4A_2 Ru4A 1_555 1_555
O2 Ru1A 1_555 1_555
O4 Ru1A 1_555 1_555
O8 C22 1_555 1_555
O11 Ru4A 1_555 1_555
O13 Ru4A 1_555 1_555
O15 C64 1_555 1_555
O17 C57 1_555 1_555
C6 C7 1_555 1_555
C13 C14 1_555 1_555
C16 C17 1_555 1_555
C27 C28 1_555 1_555
C34 C35 1_555 1_555
C41 C42 1_555 1_555
C48 C49 1_555 1_555
C51 C52 1_555 1_555
C62 C63 1_555 1_555
C69 C70 1_555 1_555
C18A C19A 1_555 1_555
C18A C20A 1_555 1_555
C53A C54A 1_555 1_555
C53A C55A 1_555 1_555
O11A C36A 1_555 1_555
O13A C43A 1_555 1_555
C41A C42A 1_555 1_555
C48A C49A 1_555 1_555
O6A C29A 1_555 1_555
O8A C22A 1_555 1_555
O15A C64A 1_555 1_555
O17A C57A 1_555 1_555
C27A C28A 1_555 1_555
C34A C35A 1_555 1_555
C62A C63A 1_555 1_555
C69A C70A 1_555 1_555
O2A C1A 1_555 1_555
O4A C8A 1_555 1_555
C6A C7A 1_555 1_555
C13A C14A 1_555 1_555

#END
