
#######################################################################
#
#                 Cambridge Crystallographic Data Centre
#                                CCDC 
#
#######################################################################
#
# If this CIF has been generated from an entry in the Cambridge 
# Structural Database, then it will include bibliographic, chemical, 
# crystal, experimental, refinement or atomic coordinate data resulting 
# from the CCDC's data processing and validation procedures.
#
#######################################################################

data_GUBSED
_symmetry_cell_setting           monoclinic
_symmetry_space_group_name_H-M   'P 21/c'
_symmetry_Int_Tables_number      14
_space_group_name_Hall           '-P 2ybc'
loop_
_symmetry_equiv_pos_site_id
_symmetry_equiv_pos_as_xyz
1 x,y,z
2 -x,1/2+y,1/2-z
3 -x,-y,-z
4 x,1/2-y,1/2+z
_cell_length_a                   15.5653(18)
_cell_length_b                   15.3856(18)
_cell_length_c                   14.8364(17)
_cell_angle_alpha                90
_cell_angle_beta                 109.7250(10)
_cell_angle_gamma                90
_cell_volume                     3344.56
loop_
_atom_site_label
_atom_site_type_symbol
_atom_site_fract_x
_atom_site_fract_y
_atom_site_fract_z
Cd1 Cd 0.62229(8) 0.85035(8) 0.74346(8)
Cd2 Cd 0.82242(8) 0.67823(8) 0.76684(8)
N1 N 0.4714(9) 0.2545(9) 0.3518(10)
N2 N 0.7279(9) 0.9431(9) 0.8465(9)
N3 N 0.7393(9) 0.5756(9) 0.6615(9)
N4 N 0.8194(8) 0.5952(9) 0.9042(8)
N5 N 1.0659(9) 1.2286(9) 1.1379(10)
N6 N 0.9865(11) 0.6216(12) 0.7302(11)
C1 C 0.4856(12) 0.3306(11) 0.3181(12)
H1 H 0.4573 0.3418 0.2532
C2 C 0.5406(11) 0.3944(11) 0.3748(11)
H2 H 0.5478 0.4473 0.3480
C3 C 0.5849(11) 0.3792(11) 0.4718(12)
C4 C 0.5715(12) 0.2986(12) 0.5049(12)
H3 H 0.6011 0.2842 0.5687
C5 C 0.5145(12) 0.2389(12) 0.4443(12)
H4 H 0.5058 0.1854 0.4691
C6 C 0.7910(11) 0.9175(11) 0.9279(12)
H5 H 0.7910 0.8596 0.9458
C7 C 0.8559(11) 0.9718(12) 0.9869(12)
H6 H 0.8994 0.9498 1.0418
C8 C 0.8569(11) 1.0590(11) 0.9648(12)
C9 C 0.7902(11) 1.0868(12) 0.8809(12)
H7 H 0.7871 1.1449 0.8632
C10 C 0.7287(12) 1.0280(12) 0.8242(13)
H8 H 0.6856 1.0479 0.7678
C11 C 1.0249(12) 1.2420(13) 1.0438(12)
H9 H 1.0435 1.2892 1.0157
C12 C 0.9565(12) 1.1892(12) 0.9867(12)
H10 H 0.9301 1.2014 0.9218
C13 C 0.9273(11) 1.1188(11) 1.0253(12)
C14 C 0.9690(12) 1.1054(13) 1.1233(12)
H11 H 0.9512 1.0591 1.1532
C15 C 1.0367(12) 1.1610(12) 1.1757(13)
H12 H 1.0635 1.1509 1.2411
C16 C 0.6721(11) 0.5966(11) 0.5806(11)
H13 H 0.6589 0.6549 0.5662
C17 C 0.6215(11) 0.5343(11) 0.5177(11)
H14 H 0.5749 0.5512 0.4625
C18 C 0.6399(11) 0.4467(11) 0.5366(11)
C19 C 0.7117(12) 0.4259(11) 0.6190(12)
H15 H 0.7282 0.3681 0.6334
C20 C 0.7583(12) 0.4909(12) 0.6794(12)
H16 H 0.8051 0.4755 0.7352
C21 C 0.7040(10) 0.7024(11) 0.9049(11)
C22 C 0.7711(10) 0.6309(10) 0.9550(10)
C23 C 0.7784(10) 0.6033(10) 1.0466(11)
C24 C 0.8342(12) 0.5321(12) 1.0827(12)
H17 H 0.8401 0.5106 1.1430
C25 C 0.8809(12) 0.4934(11) 1.0294(12)
H18 H 0.9178 0.4452 1.0527
C26 C 0.8719(11) 0.5274(11) 0.9413(11)
H19 H 0.9042 0.5016 0.9059
C27 C 0.7325(11) 0.6456(11) 1.1107(11)
O1 O 0.7124(7) 0.7342(7) 0.8284(7)
O2 O 0.6458(8) 0.7236(9) 0.9397(8)
O3 O 0.5263(10) 0.8430(11) 0.8335(11)
H20 H 0.5065 0.7868 0.8405
H21 H 0.4731 0.8749 0.8067
O4 O 0.5116(10) 0.9621(10) 0.6784(10)
H22 H 0.5365 1.0142 0.6930
H23 H 0.4661 0.9585 0.7013
O5 O 0.6688(9) 0.6022(9) 1.1228(9)
O6 O 0.7646(9) 0.7139(9) 1.1515(9)
O7 O 0.9384(10) 0.6802(10) 0.6791(10)
O8 O 0.9564(9) 0.5821(10) 0.7864(9)
O9 O 1.0606(12) 0.6019(16) 0.7246(15)
Cd1B Cd 0.37771(8) 0.14965(8) 0.25654(8)
Cd1C Cd 0.62229(8) 0.64965(8) 1.24346(8)
Cd2B Cd 1.17758(8) 1.32177(8) 1.23316(8)
Cd2C Cd 0.82242(8) 0.82177(8) 1.26684(8)
N1B N 0.5286(9) 0.7455(9) 0.6482(10)
N5B N 0.9341(9) 0.7714(9) 0.8621(10)
O5C O 0.6688(9) 0.8978(9) 0.6228(9)
O6C O 0.7646(9) 0.7861(9) 0.6515(9)
N7 N 0.3031(19) 0.837(2) 0.668(2)
O10 O 0.3397(19) 0.908(2) 0.651(3)
O11 O 0.2254(16) 0.818(2) 0.626(3)
O12 O 0.3517(15) 0.7885(18) 0.7343(17)
O13 O 0.597(4) 0.449(4) 0.043(4)
H24 H 0.6134 0.4118 0.0099
H25 H 0.6401 0.4854 0.0667
O14 O 0.764(6) 0.185(5) 0.607(10)
H26 H 0.7476 0.2317 0.6278
H27 H 0.7797 0.1981 0.5592
O15 O 0.9215(9) 0.3476(8) 0.8237(9)
H28 H 0.8975 0.3881 0.8461
H29 H 0.9793 0.3448 0.8408
loop_
_geom_bond_atom_site_label_1
_geom_bond_atom_site_label_2
_geom_bond_site_symmetry_1
_geom_bond_site_symmetry_2
Cd1 N2 1_555 1_555
Cd2 N3 1_555 1_555
N1 C1 1_555 1_555
N2 C6 1_555 1_555
N3 C16 1_555 1_555
N4 Cd2 1_555 1_555
N5 C11 1_555 1_555
N6 O7 1_555 1_555
C1 H1 1_555 1_555
C2 C1 1_555 1_555
H2 C2 1_555 1_555
C3 C2 1_555 1_555
C4 C3 1_555 1_555
H3 C4 1_555 1_555
C5 N1 1_555 1_555
H4 C5 1_555 1_555
C6 H5 1_555 1_555
C7 C6 1_555 1_555
H6 C7 1_555 1_555
C8 C7 1_555 1_555
C9 C8 1_555 1_555
H7 C9 1_555 1_555
C10 N2 1_555 1_555
H8 C10 1_555 1_555
C11 H9 1_555 1_555
C12 C11 1_555 1_555
H10 C12 1_555 1_555
C13 C8 1_555 1_555
C14 C13 1_555 1_555
H11 C14 1_555 1_555
C15 N5 1_555 1_555
H12 C15 1_555 1_555
C16 H13 1_555 1_555
C17 C16 1_555 1_555
H14 C17 1_555 1_555
C18 C3 1_555 1_555
C19 C18 1_555 1_555
H15 C19 1_555 1_555
C20 N3 1_555 1_555
H16 C20 1_555 1_555
C21 C22 1_555 1_555
C22 N4 1_555 1_555
C23 C22 1_555 1_555
C24 C23 1_555 1_555
H17 C24 1_555 1_555
C25 C24 1_555 1_555
H18 C25 1_555 1_555
C26 N4 1_555 1_555
H19 C26 1_555 1_555
C27 C23 1_555 1_555
O1 Cd1 1_555 1_555
O2 C21 1_555 1_555
O3 Cd1 1_555 1_555
H20 O3 1_555 1_555
H21 O3 1_555 1_555
O4 Cd1 1_555 1_555
H22 O4 1_555 1_555
H23 O4 1_555 1_555
O5 C27 1_555 1_555
O6 C27 1_555 1_555
O7 Cd2 1_555 1_555
O8 Cd2 1_555 1_555
O9 N6 1_555 1_555
N7 O10 1_555 1_555
O11 N7 1_555 1_555
O12 N7 1_555 1_555
O13 H24 1_555 1_555
H25 O13 1_555 1_555
O14 H26 1_555 1_555
H27 O14 1_555 1_555
O15 H28 1_555 1_555
H29 O15 1_555 1_555
Cd1B N1 1_555 1_555
Cd1C O5 1_555 1_555
Cd2B N5 1_555 1_555
Cd2C O6 1_555 1_555
N1B Cd1 1_555 1_555
N5B Cd2 1_555 1_555
O5C Cd1 1_555 1_555
O6C Cd2 1_555 1_555
Cd2 O1 1_555 1_555
N6 O8 1_555 1_555
C4 C5 1_555 1_555
C9 C10 1_555 1_555
C12 C13 1_555 1_555
C14 C15 1_555 1_555
C17 C18 1_555 1_555
C19 C20 1_555 1_555
C21 O1 1_555 1_555
C25 C26 1_555 1_555

#END
