
#######################################################################
#
#                 Cambridge Crystallographic Data Centre
#                                CCDC 
#
#######################################################################
#
# If this CIF has been generated from an entry in the Cambridge 
# Structural Database, then it will include bibliographic, chemical, 
# crystal, experimental, refinement or atomic coordinate data resulting 
# from the CCDC's data processing and validation procedures.
#
#######################################################################

data_GUBTED
_symmetry_cell_setting           monoclinic
_symmetry_space_group_name_H-M   'P 21/c'
_symmetry_Int_Tables_number      14
_space_group_name_Hall           '-P 2ybc'
loop_
_symmetry_equiv_pos_site_id
_symmetry_equiv_pos_as_xyz
1 x,y,z
2 -x,1/2+y,1/2-z
3 -x,-y,-z
4 x,1/2-y,1/2+z
_cell_length_a                   9.2256(6)
_cell_length_b                   7.4634(5)
_cell_length_c                   17.9595(10)
_cell_angle_alpha                90
_cell_angle_beta                 90.124(4)
_cell_angle_gamma                90
_cell_volume                     1236.59
loop_
_atom_site_label
_atom_site_type_symbol
_atom_site_fract_x
_atom_site_fract_y
_atom_site_fract_z
Co1 Co 0.62489(2) 0.53319(3) 0.137710(10)
C1 C 0.9051(2) 0.6959(3) 0.06643(10)
H1 H 0.8432 0.7632 0.0365
C2 C 1.0527(2) 0.7015(3) 0.05287(11)
H2 H 1.0896 0.7744 0.0154
C3 C 1.14384(19) 0.5985(3) 0.09521(11)
H3 H 1.2429 0.5974 0.0857
C4 C 1.08700(19) 0.4961(3) 0.15240(10)
H4 H 1.1470 0.4257 0.1821
C5 C 0.93923(17) 0.5006(2) 0.16442(9)
C6 C 0.86831(16) 0.4022(2) 0.22824(9)
H5 H 0.9312 0.3063 0.2453
H6 H 0.8527 0.4839 0.2694
C7 C 0.62714(16) 0.2924(2) 0.26531(8)
H7 H 0.6421 0.3807 0.3042
H8 H 0.6465 0.1749 0.2862
C8 C 0.47027(16) 0.3009(2) 0.23828(8)
C9 C 0.74670(18) 0.1682(2) 0.15516(9)
H9 H 0.7107 0.0640 0.1816
H10 H 0.8494 0.1500 0.1466
C10 C 0.67011(17) 0.1789(2) 0.07989(8)
N1 N 0.84880(14) 0.59663(18) 0.12129(7)
N2 N 0.72845(13) 0.32734(17) 0.20333(7)
O1 O 0.53199(15) 0.71294(16) 0.06763(7)
H11 H 0.482(2) 0.694(3) 0.0289(8)
H12 H 0.574(2) 0.814(2) 0.0656(13)
O2 O 0.44352(11) 0.39376(15) 0.18114(6)
O4 O 0.37453(12) 0.22085(16) 0.27463(6)
O5 O 0.62820(13) 0.33157(15) 0.05723(6)
O6 O 0.65898(17) 0.03850(16) 0.04405(7)
Co1A Co 0.37511(2) 0.03319(3) 0.362290(10)
O4A O 0.62547(12) 0.72085(16) 0.22537(6)
O3 O 0.7332(3) -0.1005(3) -0.10199(10)
H13 H 0.698(3) -0.054(4) -0.0632(12)
H14 H 0.689(4) -0.194(3) -0.115(2)
loop_
_geom_bond_atom_site_label_1
_geom_bond_atom_site_label_2
_geom_bond_site_symmetry_1
_geom_bond_site_symmetry_2
Co1 N1 1_555 1_555
C1 H1 1_555 1_555
C2 C1 1_555 1_555
H2 C2 1_555 1_555
C3 C2 1_555 1_555
H3 C3 1_555 1_555
C4 C3 1_555 1_555
H4 C4 1_555 1_555
C5 C4 1_555 1_555
C6 C5 1_555 1_555
H5 C6 1_555 1_555
H6 C6 1_555 1_555
C7 H7 1_555 1_555
H8 C7 1_555 1_555
C8 C7 1_555 1_555
C9 H9 1_555 1_555
H10 C9 1_555 1_555
C10 C9 1_555 1_555
N1 C1 1_555 1_555
N2 Co1 1_555 1_555
O1 Co1 1_555 1_555
H11 O1 1_555 1_555
H12 O1 1_555 1_555
O2 Co1 1_555 1_555
O3 H13 1_555 1_555
H14 O3 1_555 1_555
O4 C8 1_555 1_555
O5 Co1 1_555 1_555
O6 C10 1_555 1_555
Co1A O4 1_555 1_555
O4A Co1 1_555 1_555
C5 N1 1_555 1_555
C6 N2 1_555 1_555
C7 N2 1_555 1_555
C8 O2 1_555 1_555
C9 N2 1_555 1_555
C10 O5 1_555 1_555

#END
