
#######################################################################
#
#                 Cambridge Crystallographic Data Centre
#                                CCDC 
#
#######################################################################
#
# If this CIF has been generated from an entry in the Cambridge 
# Structural Database, then it will include bibliographic, chemical, 
# crystal, experimental, refinement or atomic coordinate data resulting 
# from the CCDC's data processing and validation procedures.
#
#######################################################################

data_GUBTIH
_symmetry_cell_setting           monoclinic
_symmetry_space_group_name_H-M   'P 21/c'
_symmetry_Int_Tables_number      14
_space_group_name_Hall           '-P 2ybc'
loop_
_symmetry_equiv_pos_site_id
_symmetry_equiv_pos_as_xyz
1 x,y,z
2 -x,1/2+y,1/2-z
3 -x,-y,-z
4 x,1/2-y,1/2+z
_cell_length_a                   9.2208(11)
_cell_length_b                   7.3987(9)
_cell_length_c                   17.990(2)
_cell_angle_alpha                90
_cell_angle_beta                 90.043(1)
_cell_angle_gamma                90
_cell_volume                     1227.31
loop_
_atom_site_label
_atom_site_type_symbol
_atom_site_fract_x
_atom_site_fract_y
_atom_site_fract_z
Ni1 Ni 0.87436(2) 0.46942(3) 0.139259(10)
O1 O 0.84408(17) 0.96008(16) 0.04328(7)
O2 O 0.87390(13) 0.66356(15) 0.05761(6)
O3 O 1.12865(12) 0.78234(15) 0.27416(6)
O4 O 1.05826(12) 0.60607(15) 0.18085(6)
O5 O 0.97550(14) 0.28728(16) 0.07251(7)
N1 N 0.65782(14) 0.40231(18) 0.11809(7)
N2 N 0.77413(14) 0.66922(17) 0.20332(7)
C1 C 0.6035(2) 0.3027(2) 0.06203(10)
H1 H 0.6673 0.2409 0.0311
C2 C 0.4564(2) 0.2889(3) 0.04888(11)
H2 H 0.4218 0.2153 0.0109
C3 C 0.3616(2) 0.3854(3) 0.09267(11)
H3 H 0.2624 0.3805 0.0837
C4 C 0.4159(2) 0.4901(3) 0.15046(11)
H4 H 0.3539 0.5572 0.1805
C5 C 0.56439(18) 0.4924(2) 0.16245(9)
C6 C 0.63287(17) 0.5921(2) 0.22721(9)
H5 H 0.5690 0.6882 0.2437
H6 H 0.6477 0.5095 0.2684
C7 C 0.75517(18) 0.8306(2) 0.15505(9)
H7 H 0.7912 0.9359 0.1814
H8 H 0.6524 0.8487 0.1463
C8 C 0.83255(17) 0.8182(2) 0.07962(8)
C9 C 0.87496(17) 0.7048(2) 0.26598(8)
H9 H 0.8614 0.6143 0.3044
H10 H 0.8543 0.8224 0.2873
C10 C 1.03190(16) 0.6996(2) 0.23823(8)
H11 H 0.936(2) 0.182(2) 0.0693(12)
H12 H 1.017(2) 0.317(3) 0.0307(10)
Ni1A Ni 1.12564(2) 0.96942(3) 0.360741(10)
O3A O 0.87135(12) 0.28234(15) 0.22584(6)
O6 O 0.7640(2) 0.1043(3) 0.89822(10)
H13 H 0.801(4) 0.045(4) 0.9343(15)
H14 H 0.815(4) 0.194(4) 0.883(2)
loop_
_geom_bond_atom_site_label_1
_geom_bond_atom_site_label_2
_geom_bond_site_symmetry_1
_geom_bond_site_symmetry_2
Ni1 O2 1_555 1_555
O1 C8 1_555 1_555
O2 C8 1_555 1_555
O3 C10 1_555 1_555
O4 Ni1 1_555 1_555
O5 Ni1 1_555 1_555
O6 H13 1_555 1_555
N1 Ni1 1_555 1_555
N2 Ni1 1_555 1_555
C1 N1 1_555 1_555
H1 C1 1_555 1_555
C2 C1 1_555 1_555
H2 C2 1_555 1_555
C3 C2 1_555 1_555
H3 C3 1_555 1_555
C4 C3 1_555 1_555
H4 C4 1_555 1_555
C5 N1 1_555 1_555
C6 N2 1_555 1_555
H5 C6 1_555 1_555
H6 C6 1_555 1_555
C7 N2 1_555 1_555
H7 C7 1_555 1_555
H8 C7 1_555 1_555
C8 C7 1_555 1_555
C9 N2 1_555 1_555
H9 C9 1_555 1_555
H10 C9 1_555 1_555
C10 O4 1_555 1_555
H11 O5 1_555 1_555
H12 O5 1_555 1_555
H14 O6 1_555 1_555
Ni1A O3 1_555 1_555
O3A Ni1 1_555 1_555
C4 C5 1_555 1_555
C5 C6 1_555 1_555
C9 C10 1_555 1_555

#END
