
#######################################################################
#
#                 Cambridge Crystallographic Data Centre
#                                CCDC 
#
#######################################################################
#
# If this CIF has been generated from an entry in the Cambridge 
# Structural Database, then it will include bibliographic, chemical, 
# crystal, experimental, refinement or atomic coordinate data resulting 
# from the CCDC's data processing and validation procedures.
#
#######################################################################

data_GUBVUW
_symmetry_cell_setting           monoclinic
_symmetry_space_group_name_H-M   'P 21/c'
_symmetry_Int_Tables_number      14
_space_group_name_Hall           '-P 2ybc'
loop_
_symmetry_equiv_pos_site_id
_symmetry_equiv_pos_as_xyz
1 x,y,z
2 -x,1/2+y,1/2-z
3 -x,-y,-z
4 x,1/2-y,1/2+z
_cell_length_a                   11.133(2)
_cell_length_b                   9.5491(18)
_cell_length_c                   8.1800(16)
_cell_angle_alpha                90
_cell_angle_beta                 104.451(2)
_cell_angle_gamma                90
_cell_volume                     842.103
loop_
_atom_site_label
_atom_site_type_symbol
_atom_site_fract_x
_atom_site_fract_y
_atom_site_fract_z
Mo1 Mo 0.63159(3) 0.79114(3) 0.56500(4)
Zn1 Zn 0.55656(4) 0.47385(4) 0.69537(5)
O1 O 0.5451(3) 0.6271(3) 0.5226(3)
O2 O 0.6241(3) 0.8672(3) 0.3668(4)
O3 O 0.7848(3) 0.7669(4) 0.6627(4)
O4 O 0.5643(3) 0.9114(3) 0.6799(4)
N1 N 0.7101(3) 0.3501(4) 0.7710(5)
C1 C 0.8212(5) 0.3995(5) 0.8504(6)
H1 H 0.8324 0.4960 0.8586
C2 C 0.9202(5) 0.3139(5) 0.9211(7)
H2 H 0.9965 0.3535 0.9731
C3 C 0.9073(4) 0.1696(5) 0.9153(6)
C4 C 0.7925(5) 0.1199(6) 0.8337(7)
H3 H 0.7782 0.0238 0.8263
C5 C 0.6979(5) 0.2115(5) 0.7625(7)
H4 H 0.6217 0.1744 0.7056
C6 C 1.0153(4) 0.0769(5) 0.9946(6)
H5 H 1.0521 0.1109 1.1077
H6 H 1.0773 0.0856 0.9303
N1B N 1.2899(3) -0.3501(4) 1.2290(5)
C1B C 1.1788(5) -0.3995(5) 1.1496(6)
H1B H 1.1676 -0.4960 1.1414
C2B C 1.0798(5) -0.3139(5) 1.0789(7)
H2B H 1.0035 -0.3535 1.0269
C3B C 1.0927(4) -0.1696(5) 1.0847(6)
C4B C 1.2075(5) -0.1199(6) 1.1663(7)
H3B H 1.2218 -0.0238 1.1737
C5B C 1.3021(5) -0.2115(5) 1.2375(7)
H4B H 1.3783 -0.1744 1.2944
C6B C 0.9847(4) -0.0769(5) 1.0054(6)
H5B H 0.9479 -0.1109 0.8923
H6B H 0.9227 -0.0856 1.0697
Mo1B Mo 0.36841(3) 0.20886(3) 0.43500(4)
Zn1B Zn 0.44344(4) 0.52615(4) 0.30463(5)
O1B O 0.4549(3) 0.3729(3) 0.4774(3)
O2B O 0.3759(3) 0.1328(3) 0.6332(4)
O3B O 0.2152(3) 0.2331(4) 0.3373(4)
O4B O 0.4357(3) 0.0886(3) 0.3201(4)
Zn1A Zn 0.44344(4) -0.02615(4) 0.80463(5)
Zn1A_2 Zn 0.44344(4) 0.97385(4) 0.80463(5)
Zn1B_2 Zn 1.44344(4) -0.47385(4) 1.30463(5)
Zn1C Zn 0.55656(4) 0.02615(4) 0.19537(5)
Zn1C_2 Zn 0.55656(4) 1.02615(4) 0.19537(5)
O2A O 0.3759(3) 0.3672(3) 0.1332(4)
O2C O 0.6241(3) 0.6328(3) 0.8668(4)
O4A O 0.4357(3) 0.4114(3) 0.8201(4)
O4C O 0.5643(3) 0.5886(3) 0.1799(4)
N1B_2 N 0.2899(3) 0.6499(4) 0.2290(5)
loop_
_geom_bond_atom_site_label_1
_geom_bond_atom_site_label_2
_geom_bond_site_symmetry_1
_geom_bond_site_symmetry_2
Mo1 O1 1_555 1_555
Zn1 O1 1_555 1_555
O1 Zn1B 1_555 1_555
O2 Mo1 1_555 1_555
O3 Mo1 1_555 1_555
O4 Mo1 1_555 1_555
N1 Zn1 1_555 1_555
C1 N1 1_555 1_555
H1 C1 1_555 1_555
C2 C1 1_555 1_555
H2 C2 1_555 1_555
C3 C2 1_555 1_555
C4 C3 1_555 1_555
H3 C4 1_555 1_555
C5 N1 1_555 1_555
H4 C5 1_555 1_555
C6 C3 1_555 1_555
H5 C6 1_555 1_555
H6 C6 1_555 1_555
N1B C1B 1_555 1_555
C1B H1B 1_555 1_555
C2B C1B 1_555 1_555
H2B C2B 1_555 1_555
C3B C2B 1_555 1_555
C4B C3B 1_555 1_555
H3B C4B 1_555 1_555
C5B N1B 1_555 1_555
H4B C5B 1_555 1_555
C6B C6 1_555 1_555
H5B C6B 1_555 1_555
H6B C6B 1_555 1_555
Mo1B O1B 1_555 1_555
Zn1B O1B 1_555 1_555
O1B Zn1 1_555 1_555
O2B Mo1B 1_555 1_555
O3B Mo1B 1_555 1_555
O4B Mo1B 1_555 1_555
Zn1A O2B 1_555 1_555
Zn1A_2 O4 1_555 1_555
Zn1B_2 N1B 1_555 1_555
Zn1C O4B 1_555 1_555
Zn1C_2 O2 1_555 1_555
O2A Zn1B 1_555 1_555
O2C Zn1 1_555 1_555
O4A Zn1 1_555 1_555
O4C Zn1B 1_555 1_555
N1B_2 Zn1B 1_555 1_555
C4 C5 1_555 1_555
C3B C6B 1_555 1_555
C4B C5B 1_555 1_555

#END
