
#######################################################################
#
#                 Cambridge Crystallographic Data Centre
#                                CCDC 
#
#######################################################################
#
# If this CIF has been generated from an entry in the Cambridge 
# Structural Database, then it will include bibliographic, chemical, 
# crystal, experimental, refinement or atomic coordinate data resulting 
# from the CCDC's data processing and validation procedures.
#
#######################################################################

data_GUBXOR01
_symmetry_cell_setting           triclinic
_symmetry_space_group_name_H-M   'P -1'
_symmetry_Int_Tables_number      2
_space_group_name_Hall           '-P 1'
loop_
_symmetry_equiv_pos_site_id
_symmetry_equiv_pos_as_xyz
1 x,y,z
2 -x,-y,-z
_cell_length_a                   7.6567(4)
_cell_length_b                   9.7852(4)
_cell_length_c                   11.5435(5)
_cell_angle_alpha                73.765(1)
_cell_angle_beta                 77.402(1)
_cell_angle_gamma                75.773(1)
_cell_volume                     794.471
loop_
_atom_site_label
_atom_site_type_symbol
_atom_site_fract_x
_atom_site_fract_y
_atom_site_fract_z
Ag1 Ag 0.36039(2) 0.510504(15) 0.422355(13)
S1 S 0.11255(7) 0.48150(5) 0.61432(4)
O1 O 0.1661(2) 0.69730(15) 0.96124(13)
O2 O 0.5473(2) 0.29579(16) 0.42017(14)
O3 O 0.4067(2) 0.32439(16) 0.26339(14)
N1 N 0.2880(2) 0.45638(18) 1.03612(15)
N2 N 0.2562(2) 0.61704(18) 1.15101(15)
N3 N 0.2748(2) 0.72709(17) 1.29791(14)
C1 C 0.0210(3) 0.6658(2) 0.62652(19)
C2 C 0.2046(2) 0.3957(2) 0.75148(16)
C3 C 0.2086(3) 0.4705(2) 0.83635(17)
C4 C 0.2800(2) 0.3929(2) 0.94308(17)
C5 C 0.3480(3) 0.2434(2) 0.96123(18)
C6 C 0.3416(3) 0.1719(2) 0.87492(19)
C7 C 0.2695(3) 0.2465(2) 0.76919(18)
C8 C 0.2312(2) 0.5990(2) 1.04158(17)
C9 C 0.2235(2) 0.7442(2) 1.18938(16)
C10 C 0.1436(3) 0.8805(2) 1.12321(18)
C11 C 0.1203(3) 1.0000(2) 1.17053(19)
C12 C 0.1777(3) 0.9828(2) 1.28096(19)
C13 C 0.2534(3) 0.8458(2) 1.34128(18)
C14 C 0.5178(3) 0.2529(2) 0.33377(17)
C15 C 0.6237(3) 0.1064(2) 0.3148(2)
H1 H 0.330(3) 0.409(3) 1.088(2)
H2 H 0.297(4) 0.552(3) 1.190(3)
H3 H -0.069(4) 0.664(3) 0.693(3)
H4 H 0.117(4) 0.717(3) 0.630(3)
H5 H -0.033(4) 0.708(3) 0.551(3)
H6 H 0.168(4) 0.574(3) 0.825(2)
H7 H 0.393(3) 0.193(3) 1.036(2)
H8 H 0.380(4) 0.071(4) 0.892(3)
H9 H 0.264(4) 0.196(3) 0.709(3)
H10 H 0.107(3) 0.894(3) 1.046(2)
H11 H 0.075(4) 1.079(3) 1.131(3)
H12 H 0.172(4) 1.056(4) 1.308(3)
H13 H 0.296(3) 0.831(3) 1.415(3)
H14 H 0.700(5) 0.067(4) 0.369(3)
H15 H 0.550(5) 0.041(4) 0.333(3)
H16 H 0.687(5) 0.115(4) 0.232(4)
Ag1_2 Ag 0.36039(2) 0.510504(15) 1.422355(13)
N3_2 N 0.2748(2) 0.72709(17) 0.29791(14)
loop_
_geom_bond_atom_site_label_1
_geom_bond_atom_site_label_2
_geom_bond_site_symmetry_1
_geom_bond_site_symmetry_2
Ag1 S1 1_555 1_555
S1 C1 1_555 1_555
O1 C8 1_555 1_555
O2 Ag1 1_555 1_555
O3 C14 1_555 1_555
N1 C4 1_555 1_555
N2 C8 1_555 1_555
N3 C9 1_555 1_555
C1 H3 1_555 1_555
C2 S1 1_555 1_555
C3 C2 1_555 1_555
C4 C3 1_555 1_555
C5 C4 1_555 1_555
C6 C5 1_555 1_555
C7 C2 1_555 1_555
C8 N1 1_555 1_555
C9 N2 1_555 1_555
C10 C9 1_555 1_555
C11 C10 1_555 1_555
C12 C11 1_555 1_555
C13 N3 1_555 1_555
C14 O2 1_555 1_555
C15 C14 1_555 1_555
H1 N1 1_555 1_555
H2 N2 1_555 1_555
H4 C1 1_555 1_555
H5 C1 1_555 1_555
H6 C3 1_555 1_555
H7 C5 1_555 1_555
H8 C6 1_555 1_555
H9 C7 1_555 1_555
H10 C10 1_555 1_555
H11 C11 1_555 1_555
H12 C12 1_555 1_555
H13 C13 1_555 1_555
H14 C15 1_555 1_555
H15 C15 1_555 1_555
H16 C15 1_555 1_555
Ag1_2 N3 1_555 1_555
N3_2 Ag1 1_555 1_555
C6 C7 1_555 1_555
C12 C13 1_555 1_555

#END
