
#######################################################################
#
#                 Cambridge Crystallographic Data Centre
#                                CCDC 
#
#######################################################################
#
# If this CIF has been generated from an entry in the Cambridge 
# Structural Database, then it will include bibliographic, chemical, 
# crystal, experimental, refinement or atomic coordinate data resulting 
# from the CCDC's data processing and validation procedures.
#
#######################################################################

data_GUBYOS
_symmetry_cell_setting           triclinic
_symmetry_space_group_name_H-M   'P -1'
_symmetry_Int_Tables_number      2
_space_group_name_Hall           '-P 1'
loop_
_symmetry_equiv_pos_site_id
_symmetry_equiv_pos_as_xyz
1 x,y,z
2 -x,-y,-z
_cell_length_a                   13.000(3)
_cell_length_b                   13.300(3)
_cell_length_c                   14.084(3)
_cell_angle_alpha                74.66(3)
_cell_angle_beta                 63.59(3)
_cell_angle_gamma                87.00(3)
_cell_volume                     2097.25
loop_
_atom_site_label
_atom_site_type_symbol
_atom_site_fract_x
_atom_site_fract_y
_atom_site_fract_z
C1 C -0.3803(19) 0.2792(17) 0.0988(19)
H1 H -0.3765 0.3079 0.0293
C2 C -0.3404(15) 0.1980(15) 0.2244(18)
H2 H -0.3034 0.1596 0.2640
C3 C -0.5032(19) 0.2513(16) 0.3801(19)
H3 H -0.5853 0.2482 0.4020
H4 H -0.4886 0.1955 0.4319
C4 C -0.4634(18) 0.3576(15) 0.3813(16)
C5 C -0.3652(18) 0.3677(18) 0.3917(18)
H5 H -0.3271 0.3092 0.4071
C6 C -0.3248(17) 0.4628(19) 0.3796(15)
H6 H -0.2577 0.4688 0.3868
C7 C -0.3772(16) 0.5525(15) 0.3571(14)
C8 C -0.4762(18) 0.5418(17) 0.3493(18)
H7 H -0.5156 0.6004 0.3375
C9 C -0.5197(18) 0.4434(16) 0.3588(18)
H8 H -0.5855 0.4368 0.3499
C10 C -0.3273(19) 0.6577(17) 0.3392(17)
H9 H -0.3858 0.7075 0.3465
H10 H -0.3017 0.6556 0.3947
C11 C -0.1208(19) 0.7120(15) 0.2029(17)
H11 H -0.0913 0.7080 0.2529
C12 C -0.1399(19) 0.7374(16) 0.0593(18)
H12 H -0.1238 0.7535 -0.0146
N1 N -0.3002(14) 0.2215(13) 0.1144(14)
N2 N -0.4390(13) 0.2375(12) 0.2665(13)
N3 N -0.4670(17) 0.2933(16) 0.1903(19)
N4 N -0.2313(13) 0.6911(12) 0.2312(12)
N5 N -0.2458(14) 0.7102(12) 0.1415(14)
N6 N -0.0574(14) 0.7392(11) 0.0937(13)
Ag1 Ag 0.12275(14) 0.76669(14) 0.00103(14)
C1A C 0.3803(19) 0.7208(17) -0.0988(19)
H1A H 0.3765 0.6921 -0.0293
C2A C 0.3404(15) 0.8020(15) -0.2244(18)
H2A H 0.3034 0.8404 -0.2640
C3A C 0.5032(19) 0.7487(16) -0.3801(19)
H3A H 0.5853 0.7518 -0.4020
H4A H 0.4886 0.8045 -0.4319
C4A C 0.4634(18) 0.6424(15) -0.3813(16)
C5A C 0.3652(18) 0.6323(18) -0.3917(18)
H5A H 0.3271 0.6908 -0.4071
C6A C 0.3248(17) 0.5372(19) -0.3796(15)
H6A H 0.2577 0.5312 -0.3868
C7A C 0.3772(16) 0.4475(15) -0.3571(14)
C8A C 0.4762(18) 0.4582(17) -0.3493(18)
H7A H 0.5156 0.3996 -0.3375
C9A C 0.5197(18) 0.5566(16) -0.3588(18)
H8A H 0.5855 0.5632 -0.3499
C10A C 0.3273(19) 0.3423(17) -0.3392(17)
H9A H 0.3858 0.2925 -0.3465
H10A H 0.3017 0.3444 -0.3947
C11A C 0.1208(19) 0.2880(15) -0.2029(17)
H11A H 0.0913 0.2920 -0.2529
C12A C 0.1399(19) 0.2626(16) -0.0593(18)
H12A H 0.1238 0.2465 0.0146
N1A N 0.3002(14) 0.7785(13) -0.1144(14)
N2A N 0.4390(13) 0.7625(12) -0.2665(13)
N3A N 0.4670(17) 0.7067(16) -0.1903(19)
N4A N 0.2313(13) 0.3089(12) -0.2312(12)
N5A N 0.2458(14) 0.2898(12) -0.1415(14)
N6A N 0.0574(14) 0.2608(11) -0.0937(13)
Ag1A Ag -0.12275(14) 0.23331(14) -0.00103(14)
C13 C 0.2296(19) 1.0578(17) -0.2254(15)
H13 H 0.1883 1.0611 -0.2655
C14 C 0.2622(15) 1.0365(15) -0.0899(15)
H14 H 0.2561 1.0248 -0.0194
C15 C 0.478(2) 1.082(3) -0.200(2)
H15 H 0.5312 1.0492 -0.2548
H16 H 0.4988 1.1570 -0.2275
C16 C 0.4886(16) 1.042(2) -0.0965(18)
C17 C 0.503(2) 1.1044(18) -0.040(2)
H17 H 0.5055 1.1766 -0.0661
C18 C 0.488(3) 0.938(2) -0.054(3)
H18 H 0.4799 0.8934 -0.0917
N7 N 0.1763(13) 1.0303(12) -0.1119(14)
N8 N 0.3615(12) 1.0623(13) -0.1832(14)
N9 N 0.3378(14) 1.0785(15) -0.2722(14)
Ag2 Ag 0.0000 1.0000 0.0000
C13A C 0.7704(19) 0.9422(17) 0.2254(15)
H13A H 0.8117 0.9389 0.2655
C14A C 0.7378(15) 0.9635(15) 0.0899(15)
H14A H 0.7439 0.9752 0.0194
C15A C 0.522(2) 0.918(3) 0.200(2)
H15A H 0.4688 0.9508 0.2548
H16A H 0.5012 0.8430 0.2275
C16A C 0.5114(16) 0.958(2) 0.0965(18)
C17A C 0.497(2) 0.8956(18) 0.040(2)
H17A H 0.4945 0.8234 0.0661
C18A C 0.512(3) 1.062(2) 0.054(3)
H18A H 0.5201 1.1066 0.0917
N7A N 0.8237(13) 0.9697(12) 0.1119(14)
N7A_2 N -0.1763(13) 0.9697(12) 0.1119(14)
N8A N 0.6385(12) 0.9377(13) 0.1832(14)
N9A N 0.6622(14) 0.9215(15) 0.2722(14)
Ag2_2 Ag 1.0000 1.0000 0.0000
C19 C 0.871(2) 1.3812(16) -0.2522(16)
H19 H 0.8696 1.3181 -0.2686
C20 C 0.8953(17) 1.5401(17) -0.2718(17)
H20 H 0.9113 1.6121 -0.3006
C21 C 0.824(2) 1.5358(17) -0.0728(18)
H21 H 0.8176 1.6105 -0.0953
H22 H 0.7502 1.5046 -0.0123
C22 C 0.915(2) 1.5163(15) -0.0358(16)
C23 C 1.028(2) 1.5369(16) -0.1084(17)
H23 H 1.0498 1.5602 -0.1835
C24 C 0.891(2) 1.4755(15) 0.0740(15)
H24 H 0.8146 1.4561 0.1258
N10 N 0.9152(18) 1.4716(13) -0.3327(15)
N11 N 0.8502(16) 1.4912(13) -0.1659(13)
N12 N 0.8318(17) 1.3862(12) -0.1529(13)
Ag3 Ag 1.0000 1.5000 -0.5000
C19A C 1.129(2) 1.6188(16) 0.2522(16)
H19A H 1.1304 1.6819 0.2686
C20A C 1.1047(17) 1.4599(17) 0.2718(17)
H20A H 1.0887 1.3879 0.3006
C21A C 1.176(2) 1.4642(17) 0.0728(18)
H21A H 1.1824 1.3895 0.0953
H22A H 1.2498 1.4954 0.0123
C22A C 1.085(2) 1.4837(15) 0.0358(16)
C23A C 0.972(2) 1.4631(16) 0.1084(17)
H23A H 0.9502 1.4398 0.1835
C24A C 1.109(2) 1.5245(15) -0.0740(15)
H24A H 1.1854 1.5439 -0.1258
N10A N 1.0848(18) 1.5284(13) 0.3327(15)
N10A_2 N 1.0848(18) 1.5284(13) -0.6673(15)
N11A N 1.1498(16) 1.5088(13) 0.1659(13)
N12A N 1.1682(17) 1.6138(12) 0.1529(13)
Ag3_2 Ag 1.0000 1.5000 0.5000
O2 O 1.433(4) 1.362(4) -0.089(4)
O4 O 0.594(4) 0.528(3) -0.113(4)
Mo1 Mo 0.77436(14) 0.85072(15) 0.74333(16)
Mo2 Mo 0.91094(18) 1.06929(13) 0.74782(15)
Mo3 Mo 1.05803(18) 0.84202(15) 0.70981(17)
Mo4 Mo 0.71862(14) 0.99886(15) 0.52678(14)
Mo5 Mo 0.84038(17) 1.22050(13) 0.54176(16)
Mo6 Mo 0.87315(14) 0.77434(12) 0.49725(14)
Si1 Si 1.0000 1.0000 0.5000
O1 O 0.8142(16) 0.6712(11) 0.4910(15)
O3 O 0.8847(17) 0.9233(15) 0.5430(15)
O5 O 1.0039(15) 0.9600(12) 0.768(2)
O6 O 0.7725(14) 1.3260(12) 0.5601(16)
O7 O 0.9469(18) 0.9607(15) 0.6401(16)
O8 O 0.7272(17) 1.1245(16) 0.5670(11)
O9 O 0.5852(11) 0.9992(12) 0.5453(13)
O10 O 1.2060(17) 0.9214(14) 0.6184(11)
O11 O 0.8047(17) 0.7600(14) 0.6484(11)
O12 O 1.0417(11) 1.1611(12) 0.6570(11)
O13 O 1.1037(17) 0.7573(15) 0.6154(10)
O14 O 0.8717(14) 1.1045(14) 0.8628(12)
O15 O 0.9039(14) 0.7950(11) 0.765(2)
O16 O 0.6736(11) 0.7753(10) 0.8549(10)
O17 O 0.8291(11) 1.1615(12) 0.6848(10)
O18 O 0.7895(16) 0.9638(12) 0.796(3)
O19 O 1.0864(11) 0.7739(9) 0.8102(10)
O20 O 0.6875(17) 0.9262(15) 0.6769(11)
O21 O 0.9946(11) 1.2787(11) 0.5019(10)
O22 O 1.0184(17) 0.9055(15) 0.4512(16)
O23 O 0.8998(18) 1.0763(16) 0.4817(17)
O24 O 0.7615(15) 0.8756(13) 0.4877(11)
Mo1A Mo 1.22564(14) 1.14928(15) 0.25667(16)
Mo2A Mo 1.08906(18) 0.93071(13) 0.25218(15)
Mo3A Mo 0.94197(18) 1.15798(15) 0.29019(17)
Mo4A Mo 1.28138(14) 1.00114(15) 0.47322(14)
Mo5A Mo 1.15962(17) 0.77950(13) 0.45824(16)
Mo6A Mo 1.12685(14) 1.22566(12) 0.50275(14)
O1A O 1.1858(16) 1.3288(11) 0.5090(15)
O3A O 1.1153(17) 1.0767(15) 0.4570(15)
O5A O 0.9961(15) 1.0400(12) 0.232(2)
O6A O 1.2275(14) 0.6740(12) 0.4399(16)
O7A O 1.0531(18) 1.0393(15) 0.3599(16)
O8A O 1.2728(17) 0.8755(16) 0.4330(11)
O9A O 1.4148(11) 1.0008(12) 0.4547(13)
O10A O 0.7940(17) 1.0786(14) 0.3816(11)
O11A O 1.1953(17) 1.2400(14) 0.3516(11)
O12A O 0.9583(11) 0.8389(12) 0.3430(11)
O13A O 0.8963(17) 1.2427(15) 0.3846(10)
O14A O 1.1283(14) 0.8955(14) 0.1372(12)
O15A O 1.0961(14) 1.2050(11) 0.235(2)
O16A O 1.3264(11) 1.2247(10) 0.1451(10)
O17A O 1.1709(11) 0.8385(12) 0.3152(10)
O18A O 1.2105(16) 1.0362(12) 0.204(3)
O19A O 0.9136(11) 1.2261(9) 0.1898(10)
O20A O 1.3125(17) 1.0738(15) 0.3231(11)
O21A O 1.0054(11) 0.7213(11) 0.4981(10)
O22A O 0.9816(17) 1.0945(15) 0.5488(16)
O23A O 1.1002(18) 0.9237(16) 0.5183(17)
O24A O 1.2385(15) 1.1244(13) 0.5123(11)
loop_
_geom_bond_atom_site_label_1
_geom_bond_atom_site_label_2
_geom_bond_site_symmetry_1
_geom_bond_site_symmetry_2
Mo1 O3 1_555 1_555
Mo2 O5 1_555 1_555
Mo3 O5 1_555 1_555
Mo4 O3 1_555 1_555
Mo5 O6 1_555 1_555
Mo6 O1 1_555 1_555
Si1 O3 1_555 1_555
C1 H1 1_555 1_555
C2 H2 1_555 1_555
C3 H3 1_555 1_555
H4 C3 1_555 1_555
C4 C3 1_555 1_555
C5 C4 1_555 1_555
H5 C5 1_555 1_555
C6 C5 1_555 1_555
H6 C6 1_555 1_555
C7 C6 1_555 1_555
C8 C7 1_555 1_555
H7 C8 1_555 1_555
C9 C4 1_555 1_555
H8 C9 1_555 1_555
C10 C7 1_555 1_555
H9 C10 1_555 1_555
H10 C10 1_555 1_555
C11 H11 1_555 1_555
C12 H12 1_555 1_555
C13 H13 1_555 1_555
C14 H14 1_555 1_555
C15 H15 1_555 1_555
H16 C15 1_555 1_555
C16 C15 1_555 1_555
C17 C16 1_555 1_555
H17 C17 1_555 1_555
C18 C16 1_555 1_555
H18 C18 1_555 1_555
C19 H19 1_555 1_555
C20 H20 1_555 1_555
C21 H21 1_555 1_555
H22 C21 1_555 1_555
C22 C21 1_555 1_555
C23 C22 1_555 1_555
H23 C23 1_555 1_555
C24 C22 1_555 1_555
H24 C24 1_555 1_555
N1 C1 1_555 1_555
N2 C2 1_555 1_555
N3 C1 1_555 1_555
N4 C10 1_555 1_555
N5 C12 1_555 1_555
N6 C11 1_555 1_555
N7 C13 1_555 1_555
N8 C14 1_555 1_555
N9 C13 1_555 1_555
N10 C19 1_555 1_555
N11 C20 1_555 1_555
N12 C19 1_555 1_555
O3 Mo6 1_555 1_555
O7 Mo1 1_555 1_555
O8 Mo4 1_555 1_555
O9 Mo4 1_555 1_555
O10 Mo3 1_555 1_555
O11 Mo1 1_555 1_555
O12 Mo2 1_555 1_555
O13 Mo3 1_555 1_555
O14 Mo2 1_555 1_555
O15 Mo1 1_555 1_555
O16 Mo1 1_555 1_555
O17 Mo2 1_555 1_555
O18 Mo1 1_555 1_555
O19 Mo3 1_555 1_555
O20 Mo1 1_555 1_555
O21 Mo5 1_555 1_555
O22 Mo6 1_555 1_555
O23 Mo4 1_555 1_555
O24 Mo4 1_555 1_555
Ag1 N6 1_555 1_555
Ag2 N7 1_555 1_555
Ag3 N10 1_555 1_555
Mo1A O3A 1_555 1_555
Mo2A O22 1_555 1_555
Mo3A O23 1_555 1_555
Mo4A O10 1_555 1_555
Mo5A O13 1_555 1_555
Mo6A O12 1_555 1_555
C1A H1A 1_555 1_555
C2A H2A 1_555 1_555
C3A H3A 1_555 1_555
H4A C3A 1_555 1_555
C4A C3A 1_555 1_555
C5A C4A 1_555 1_555
H5A C5A 1_555 1_555
C6A C5A 1_555 1_555
H6A C6A 1_555 1_555
C7A C6A 1_555 1_555
C8A C7A 1_555 1_555
H7A C8A 1_555 1_555
C9A C4A 1_555 1_555
H8A C9A 1_555 1_555
C10A C7A 1_555 1_555
H9A C10A 1_555 1_555
H10A C10A 1_555 1_555
C11A H11A 1_555 1_555
C12A H12A 1_555 1_555
C13A H13A 1_555 1_555
C14A H14A 1_555 1_555
C15A H15A 1_555 1_555
H16A C15A 1_555 1_555
C16A C15A 1_555 1_555
C17A C18 1_555 1_555
H17A C17A 1_555 1_555
C18A C17 1_555 1_555
H18A C18A 1_555 1_555
C19A H19A 1_555 1_555
C20A H20A 1_555 1_555
C21A H21A 1_555 1_555
H22A C21A 1_555 1_555
C22A C21A 1_555 1_555
C23A C24 1_555 1_555
H23A C23A 1_555 1_555
C24A C23 1_555 1_555
H24A C24A 1_555 1_555
N1A Ag1 1_555 1_555
N2A C2A 1_555 1_555
N3A C1A 1_555 1_555
N4A C10A 1_555 1_555
N5A C12A 1_555 1_555
N6A C11A 1_555 1_555
N7A C13A 1_555 1_555
N7A_2 Ag2 1_555 1_555
N8A C14A 1_555 1_555
N9A C13A 1_555 1_555
N10A C19A 1_555 1_555
N10A_2 Ag3 1_555 1_555
N11A C20A 1_555 1_555
N12A C19A 1_555 1_555
O1A Mo6A 1_555 1_555
O3A Si1 1_555 1_555
O5A Mo2A 1_555 1_555
O6A Mo5A 1_555 1_555
O7A Si1 1_555 1_555
O8A Mo4A 1_555 1_555
O9A Mo4A 1_555 1_555
O10A Mo4 1_555 1_555
O11A Mo1A 1_555 1_555
O12A Mo6 1_555 1_555
O13A Mo5 1_555 1_555
O14A Mo2A 1_555 1_555
O15A Mo1A 1_555 1_555
O16A Mo1A 1_555 1_555
O17A Mo2A 1_555 1_555
O18A Mo1A 1_555 1_555
O19A Mo3A 1_555 1_555
O20A Mo1A 1_555 1_555
O21A Mo6 1_555 1_555
O22A Mo2 1_555 1_555
O23A Mo3 1_555 1_555
O24A Mo4A 1_555 1_555
Ag1A N1 1_555 1_555
Ag2_2 N7A 1_555 1_555
Ag3_2 N10A 1_555 1_555
Mo2 O7 1_555 1_555
Mo2 O18 1_555 1_555
Mo3 O7 1_555 1_555
Mo3 O15 1_555 1_555
Mo4 O20 1_555 1_555
Mo5 O8 1_555 1_555
Mo5 O17 1_555 1_555
Mo5 O23 1_555 1_555
Mo5 O22A 1_555 1_555
Mo6 O11 1_555 1_555
Mo6 O24 1_555 1_555
Si1 O7 1_555 1_555
Si1 O22 1_555 1_555
Si1 O23 1_555 1_555
Si1 O22A 1_555 1_555
Si1 O23A 1_555 1_555
C2 N1 1_555 1_555
C3 N2 1_555 1_555
C8 C9 1_555 1_555
C11 N4 1_555 1_555
C12 N6 1_555 1_555
C14 N7 1_555 1_555
C15 N8 1_555 1_555
C20 N10 1_555 1_555
C21 N11 1_555 1_555
N2 N3 1_555 1_555
N4 N5 1_555 1_555
N8 N9 1_555 1_555
N11 N12 1_555 1_555
O21 Mo6A 1_555 1_555
O22 Mo5A 1_555 1_555
Mo1A O7A 1_555 1_555
Mo2A O7A 1_555 1_555
Mo2A O12A 1_555 1_555
Mo2A O18A 1_555 1_555
Mo3A O5A 1_555 1_555
Mo3A O7A 1_555 1_555
Mo3A O10A 1_555 1_555
Mo3A O13A 1_555 1_555
Mo3A O15A 1_555 1_555
Mo4A O3A 1_555 1_555
Mo4A O20A 1_555 1_555
Mo4A O23A 1_555 1_555
Mo5A O8A 1_555 1_555
Mo5A O17A 1_555 1_555
Mo5A O21A 1_555 1_555
Mo5A O23A 1_555 1_555
Mo6A O3A 1_555 1_555
Mo6A O11A 1_555 1_555
Mo6A O22A 1_555 1_555
Mo6A O24A 1_555 1_555
C1A N1A 1_555 1_555
C2A N1A 1_555 1_555
C3A N2A 1_555 1_555
C8A C9A 1_555 1_555
C11A N4A 1_555 1_555
C12A N6A 1_555 1_555
C14A N7A 1_555 1_555
C15A N8A 1_555 1_555
C16A C17A 1_555 1_555
C16A C18A 1_555 1_555
C20A N10A 1_555 1_555
C21A N11A 1_555 1_555
C22A C23A 1_555 1_555
C22A C24A 1_555 1_555
N2A N3A 1_555 1_555
N4A N5A 1_555 1_555
N6A Ag1A 1_555 1_555
N8A N9A 1_555 1_555
N11A N12A 1_555 1_555

#END
