
#######################################################################
#
#                 Cambridge Crystallographic Data Centre
#                                CCDC 
#
#######################################################################
#
# If this CIF has been generated from an entry in the Cambridge 
# Structural Database, then it will include bibliographic, chemical, 
# crystal, experimental, refinement or atomic coordinate data resulting 
# from the CCDC's data processing and validation procedures.
#
#######################################################################

data_GUBYEI
_symmetry_cell_setting           orthorhombic
_symmetry_space_group_name_H-M   'P 21 21 21'
_symmetry_Int_Tables_number      19
_space_group_name_Hall           'P 2ac 2ab'
loop_
_symmetry_equiv_pos_site_id
_symmetry_equiv_pos_as_xyz
1 x,y,z
2 1/2-x,-y,1/2+z
3 -x,1/2+y,1/2-z
4 1/2+x,1/2-y,-z
_cell_length_a                   8.7396(2)
_cell_length_b                   12.2836(2)
_cell_length_c                   15.3536(3)
_cell_angle_alpha                90
_cell_angle_beta                 90
_cell_angle_gamma                90
_cell_volume                     1648.27
loop_
_atom_site_label
_atom_site_type_symbol
_atom_site_fract_x
_atom_site_fract_y
_atom_site_fract_z
Ag1 Ag 0.59906(2) 1.088852(15) 0.168853(13)
S1 S 0.46129(7) 0.91783(5) 0.18344(4)
O1 O 0.5390(2) 0.67624(15) 0.47014(12)
N1 N 0.7731(3) 0.7006(2) 0.40772(14)
H1 H 0.857(5) 0.701(3) 0.421(3)
N2 N 0.7489(2) 0.71609(18) 0.55463(14)
H2 H 0.833(4) 0.744(3) 0.551(2)
N3 N 0.7366(2) 0.77920(17) 0.69606(13)
C1 C 0.4058(4) 0.8944(2) 0.07152(17)
H3 H 0.3478 0.8263 0.0676
H4 H 0.4976 0.8893 0.0351
H5 H 0.3420 0.9549 0.0513
C2 C 0.5865(3) 0.80704(18) 0.20791(15)
C3 C 0.6278(3) 0.7951(2) 0.29552(16)
H6 H 0.5912 0.8449 0.3380
C4 C 0.7229(3) 0.7098(2) 0.31945(15)
C5 C 0.7739(3) 0.6344(2) 0.25838(18)
H7 H 0.8372 0.5753 0.2754
C6 C 0.7304(3) 0.6474(2) 0.17194(18)
H8 H 0.7656 0.5971 0.1294
C7 C 0.6358(3) 0.73313(19) 0.14690(16)
H9 H 0.6054 0.7405 0.0878
C8 C 0.6779(3) 0.69663(19) 0.47708(17)
C9 C 0.6810(3) 0.70996(19) 0.63643(15)
C10 C 0.5658(3) 0.6347(2) 0.65563(16)
H10 H 0.5270 0.5871 0.6121
C11 C 0.5099(3) 0.6317(2) 0.74035(18)
H11 H 0.4316 0.5815 0.7555
C12 C 0.5683(3) 0.7018(2) 0.80280(17)
H12 H 0.5314 0.7002 0.8610
C13 C 0.6812(3) 0.7740(2) 0.77832(16)
H13 H 0.7218 0.8220 0.8209
Ag1A Ag 0.90094(2) 0.911148(15) 0.668853(13)
N3A N 0.7634(2) 1.22080(17) 0.19606(13)
P1 P 0.87893(8) 0.97335(5) 0.99244(4)
F1 F 0.8001(3) 0.85561(15) 0.98981(16)
F2 F 0.7160(2) 1.02979(16) 0.97815(13)
F3 F 0.8532(3) 0.97888(17) 1.09537(11)
F4 F 0.9561(2) 1.09071(15) 0.99343(13)
F5 F 1.0423(2) 0.91818(18) 1.00755(11)
F6 F 0.9021(2) 0.96651(14) 0.88903(10)
loop_
_geom_bond_atom_site_label_1
_geom_bond_atom_site_label_2
_geom_bond_site_symmetry_1
_geom_bond_site_symmetry_2
Ag1 S1 1_555 1_555
S1 C1 1_555 1_555
P1 F1 1_555 1_555
O1 C8 1_555 1_555
N1 H1 1_555 1_555
N2 H2 1_555 1_555
N3 C9 1_555 1_555
F2 P1 1_555 1_555
F3 P1 1_555 1_555
F4 P1 1_555 1_555
F5 P1 1_555 1_555
F6 P1 1_555 1_555
C1 H3 1_555 1_555
H4 C1 1_555 1_555
H5 C1 1_555 1_555
C2 S1 1_555 1_555
C3 C2 1_555 1_555
H6 C3 1_555 1_555
C4 N1 1_555 1_555
C5 C4 1_555 1_555
H7 C5 1_555 1_555
C6 C5 1_555 1_555
H8 C6 1_555 1_555
C7 C2 1_555 1_555
H9 C7 1_555 1_555
C8 N1 1_555 1_555
C9 N2 1_555 1_555
C10 C9 1_555 1_555
H10 C10 1_555 1_555
C11 C10 1_555 1_555
H11 C11 1_555 1_555
C12 C11 1_555 1_555
H12 C12 1_555 1_555
C13 N3 1_555 1_555
H13 C13 1_555 1_555
Ag1A N3 1_555 1_555
N3A Ag1 1_555 1_555
N2 C8 1_555 1_555
C3 C4 1_555 1_555
C6 C7 1_555 1_555
C12 C13 1_555 1_555

#END
