
#######################################################################
#
#                 Cambridge Crystallographic Data Centre
#                                CCDC 
#
#######################################################################
#
# If this CIF has been generated from an entry in the Cambridge 
# Structural Database, then it will include bibliographic, chemical, 
# crystal, experimental, refinement or atomic coordinate data resulting 
# from the CCDC's data processing and validation procedures.
#
#######################################################################

data_GUBYAE
_symmetry_cell_setting           triclinic
_symmetry_space_group_name_H-M   'P -1'
_symmetry_Int_Tables_number      2
_space_group_name_Hall           '-P 1'
loop_
_symmetry_equiv_pos_site_id
_symmetry_equiv_pos_as_xyz
1 x,y,z
2 -x,-y,-z
_cell_length_a                   7.9094(2)
_cell_length_b                   9.6883(3)
_cell_length_c                   10.6752(3)
_cell_angle_alpha                89.97(1)
_cell_angle_beta                 69.83(1)
_cell_angle_gamma                75.89(1)
_cell_volume                     741.551
loop_
_atom_site_label
_atom_site_type_symbol
_atom_site_fract_x
_atom_site_fract_y
_atom_site_fract_z
Ag1 Ag 0.68266(2) 0.944887(14) 0.581142(14)
S1 S 0.80353(7) 1.15860(5) 0.53372(5)
O1 O 1.2779(2) 0.88093(18) 0.11884(16)
O2 O 0.7712(3) 0.74519(18) 0.40430(16)
O3 O 0.6717(2) 0.93938(15) 0.32225(16)
O4 O 0.8037(3) 0.73995(18) 0.19443(16)
N1 N 1.1588(2) 1.07545(19) 0.02450(17)
N2 N 1.4163(3) 0.90707(19) -0.10505(17)
N3 N 1.6672(2) 0.77122(17) -0.27654(16)
N4 N 0.7502(2) 0.80707(18) 0.30615(17)
C1 C 0.6291(4) 1.3072(2) 0.6410(2)
C2 C 0.8255(3) 1.20708(19) 0.36939(19)
C3 C 0.9703(3) 1.1165(2) 0.26577(18)
C4 C 1.0102(3) 1.1536(2) 0.13571(19)
C5 C 0.9014(3) 1.2800(3) 0.1095(2)
C6 C 0.7565(3) 1.3665(3) 0.2130(2)
C7 C 0.7160(3) 1.3317(2) 0.3448(2)
C8 C 1.2827(3) 0.9483(2) 0.0223(2)
C9 C 1.5593(3) 0.7826(2) -0.1468(2)
C10 C 1.5893(4) 0.6751(3) -0.0632(2)
C11 C 1.7370(4) 0.5563(3) -0.1173(3)
C12 C 1.8501(3) 0.5436(2) -0.2506(2)
C13 C 1.8089(3) 0.6526(2) -0.3259(2)
H1 H 1.176(4) 1.115(3) -0.045(3)
H2 H 1.398(4) 0.954(4) -0.165(3)
H3 H 0.622(5) 1.279(4) 0.727(4)
H4 H 0.508(4) 1.327(3) 0.622(3)
H5 H 0.675(5) 1.395(4) 0.626(3)
H6 H 1.953(4) 0.466(3) -0.290(3)
H7 H 1.049(4) 1.034(3) 0.280(3)
H8 H 0.931(5) 1.303(4) 0.021(3)
H9 H 0.681(5) 1.449(4) 0.193(4)
H10 H 0.625(4) 1.394(3) 0.413(3)
H11 H 1.514(5) 0.689(4) 0.026(4)
H12 H 1.760(5) 0.479(4) -0.066(4)
H13 H 1.878(4) 0.649(3) -0.413(3)
Ag1A Ag 0.31734(2) 1.055113(14) 0.418858(14)
Ag1_2 Ag 1.68266(2) 0.944887(14) -0.418858(14)
O3A O 0.3283(2) 1.06062(15) 0.67775(16)
N3_2 N 0.6672(2) 0.77122(17) 0.72346(16)
loop_
_geom_bond_atom_site_label_1
_geom_bond_atom_site_label_2
_geom_bond_site_symmetry_1
_geom_bond_site_symmetry_2
Ag1 S1 1_555 1_555
S1 C1 1_555 1_555
O1 C8 1_555 1_555
O2 Ag1 1_555 1_555
O3 N4 1_555 1_555
O4 N4 1_555 1_555
N1 C4 1_555 1_555
N2 C8 1_555 1_555
N3 C9 1_555 1_555
N4 O2 1_555 1_555
C1 H3 1_555 1_555
C2 S1 1_555 1_555
C3 C2 1_555 1_555
C4 C3 1_555 1_555
C5 C4 1_555 1_555
C6 C5 1_555 1_555
C7 C2 1_555 1_555
C8 N1 1_555 1_555
C9 N2 1_555 1_555
C10 C9 1_555 1_555
C11 C10 1_555 1_555
C12 C11 1_555 1_555
C13 N3 1_555 1_555
H1 N1 1_555 1_555
H2 N2 1_555 1_555
H4 C1 1_555 1_555
H5 C1 1_555 1_555
H6 C12 1_555 1_555
H7 C3 1_555 1_555
H8 C5 1_555 1_555
H9 C6 1_555 1_555
H10 C7 1_555 1_555
H11 C10 1_555 1_555
H12 C11 1_555 1_555
H13 C13 1_555 1_555
Ag1A O3 1_555 1_555
Ag1_2 N3 1_555 1_555
O3A Ag1 1_555 1_555
N3_2 Ag1 1_555 1_555
C6 C7 1_555 1_555
C12 C13 1_555 1_555

#END
