
#######################################################################
#
#                 Cambridge Crystallographic Data Centre
#                                CCDC 
#
#######################################################################
#
# If this CIF has been generated from an entry in the Cambridge 
# Structural Database, then it will include bibliographic, chemical, 
# crystal, experimental, refinement or atomic coordinate data resulting 
# from the CCDC's data processing and validation procedures.
#
#######################################################################

data_GUBYUY
_symmetry_cell_setting           triclinic
_symmetry_space_group_name_H-M   'P -1'
_symmetry_Int_Tables_number      2
_space_group_name_Hall           '-P 1'
loop_
_symmetry_equiv_pos_site_id
_symmetry_equiv_pos_as_xyz
1 x,y,z
2 -x,-y,-z
_cell_length_a                   12.790(3)
_cell_length_b                   13.830(3)
_cell_length_c                   14.210(3)
_cell_angle_alpha                71.01(3)
_cell_angle_beta                 65.67(3)
_cell_angle_gamma                63.80(3)
_cell_volume                     2023.1
loop_
_atom_site_label
_atom_site_type_symbol
_atom_site_fract_x
_atom_site_fract_y
_atom_site_fract_z
Cu1 Cu 1.0000 1.0000 -0.5000
N1 N 0.941(2) 1.0021(19) -0.3640(15)
N2 N 0.824(2) 1.0502(16) -0.2042(17)
N3 N 0.9100(18) 0.9522(18) -0.1951(18)
C1 C 0.979(2) 0.919(2) -0.284(2)
H1 H 1.0432 0.8522 -0.2924
C2 C 0.852(3) 1.074(2) -0.307(2)
H2 H 0.8083 1.1418 -0.3395
C3 C 0.919(2) 0.8992(19) -0.0944(16)
H3 H 0.8401 0.8941 -0.0487
H4 H 0.9780 0.8251 -0.0987
C4 C 0.958(2) 0.955(2) -0.0436(18)
C5 C 0.988(3) 1.045(2) -0.0951(19)
H5 H 0.9886 1.0724 -0.1642
C6 C 0.981(2) 0.9056(18) 0.0475(17)
H6 H 0.9767 0.8365 0.0784
Cu1_2 Cu 1.0000 1.0000 0.5000
N1A N 1.059(2) 0.9979(19) -0.6360(15)
N1A_2 N 1.059(2) 0.9979(19) 0.3640(15)
N2A N 1.176(2) 0.9498(16) 0.2042(17)
N3A N 1.0900(18) 1.0478(18) 0.1951(18)
C1A C 1.021(2) 1.081(2) 0.284(2)
H1A H 0.9568 1.1478 0.2924
C2A C 1.148(3) 0.926(2) 0.307(2)
H2A H 1.1917 0.8582 0.3395
C3A C 1.081(2) 1.1008(19) 0.0944(16)
H3A H 1.1599 1.1059 0.0487
H4A H 1.0220 1.1749 0.0987
C4A C 1.042(2) 1.045(2) 0.0436(18)
C5A C 1.012(3) 0.955(2) 0.0951(19)
H5A H 1.0114 0.9276 0.1642
C6A C 1.019(2) 1.0944(18) -0.0475(17)
H6A H 1.0233 1.1635 -0.0784
Cu2 Cu 0.5000 0.0000 0.0000
N4 N 0.549(2) 0.1178(17) -0.0511(17)
N5 N 0.604(2) 0.265(2) -0.1612(19)
N6 N 0.6341(18) 0.2320(14) -0.0700(14)
C7 C 0.605(2) 0.147(2) -0.007(2)
H7 H 0.6210 0.1132 0.0565
C8 C 0.559(3) 0.190(3) -0.141(2)
H8 H 0.5323 0.1869 -0.1917
C9 C 0.687(2) 0.2932(17) -0.0505(17)
H9 H 0.7208 0.2516 0.0069
H10 H 0.7545 0.3046 -0.1124
C10 C 0.595(2) 0.4005(19) -0.0238(17)
C11 C 0.527(3) 0.414(2) 0.075(2)
H11 H 0.5448 0.3559 0.1279
C12 C 0.570(3) 0.4895(18) -0.1034(17)
H12 H 0.6159 0.4851 -0.1734
Cu2_2 Cu 0.5000 1.0000 0.0000
N4A N 0.451(2) -0.1178(17) 0.0511(17)
N4A_2 N 0.451(2) 0.8822(17) 0.0511(17)
N5A N 0.396(2) 0.735(2) 0.1612(19)
N6A N 0.3659(18) 0.7680(14) 0.0700(14)
C7A C 0.395(2) 0.853(2) 0.007(2)
H7A H 0.3790 0.8868 -0.0565
C8A C 0.441(3) 0.810(3) 0.141(2)
H8A H 0.4677 0.8131 0.1917
C9A C 0.313(2) 0.7068(17) 0.0505(17)
H9A H 0.2792 0.7484 -0.0069
H10A H 0.2455 0.6954 0.1124
C10A C 0.405(2) 0.5995(19) 0.0238(17)
C11A C 0.473(3) 0.586(2) -0.075(2)
H11A H 0.4552 0.6441 -0.1279
C12A C 0.430(3) 0.5105(18) 0.1034(17)
H12A H 0.3841 0.5149 0.1734
Mo1 Mo 0.30525(19) 0.87779(15) 0.70821(15)
Mo2 Mo 0.18264(19) 1.14631(15) 0.58059(18)
Mo3 Mo 0.6134(2) 0.71992(14) 0.59627(15)
Mo4 Mo 0.33360(19) 1.09468(14) 0.32109(14)
Mo5 Mo 0.35914(19) 1.09148(13) 0.74161(14)
Mo6 Mo 0.40498(18) 0.82033(13) 0.45418(14)
Cu3 Cu -0.1203(3) 1.4398(3) 0.5891(3)
Si1 Si 0.5000 1.0000 0.5000
N7 N -0.0811(17) 1.4665(14) 0.6888(15)
N8 N -0.0833(18) 1.5322(15) -0.1894(13)
N9 N 0.019(2) 1.4477(19) -0.2033(17)
N10 N -0.2494(18) 1.4349(15) 0.3771(12)
N11 N -0.144(2) 1.3411(17) 0.3595(15)
N12 N -0.1565(18) 1.4159(15) 0.4863(14)
O1 O 0.3211(14) 0.9475(11) 0.3867(13)
O2 O 0.4510(15) 0.7648(15) 0.7010(11)
O3 O 0.3041(17) 0.8324(16) 0.5879(12)
O4 O 0.461(2) 0.8888(17) 0.5470(19)
O5 O 0.3218(18) 0.9569(13) 0.7770(18)
O6 O 0.476(2) 0.9685(18) 0.420(2)
O7 O 0.5431(16) 0.7155(16) 0.5121(10)
O8 O 0.1815(19) 1.0127(11) 0.6588(17)
O9 O 0.380(2) 1.022(2) 0.6073(18)
O10 O 0.649(2) 0.7790(14) 0.6872(12)
O11 O 0.7536(18) 0.7338(13) 0.4947(12)
O12 O 0.2328(16) 1.1614(11) 0.6910(15)
O13 O 0.4831(13) 1.0299(10) 0.2362(11)
O14 O 0.2490(16) 1.1342(13) 0.2473(11)
O15 O 0.0332(13) 1.2234(11) 0.6218(15)
O16 O 0.2086(15) 0.8204(11) 0.8017(11)
O17 O 0.6612(14) 0.5908(9) 0.6490(10)
O18 O 0.5537(15) 0.8194(11) 0.3315(12)
O19 O 0.3740(14) 0.7290(12) 0.4281(14)
O20 O 0.2985(16) 1.1195(12) 0.8627(10)
O21 O 0.202(2) 1.1268(14) 0.4537(13)
O22 O 0.619(2) 0.8965(18) 0.543(2)
C13 C -0.092(2) 1.3339(15) 0.4272(17)
H13 H -0.0190 1.2784 0.4340
C14 C -0.253(2) 1.471(2) 0.4567(16)
H14 H -0.3178 1.5293 0.4868
C15 C -0.332(2) 1.463(2) 0.3220(19)
H15 H -0.3530 1.4005 0.3319
H16 H -0.4074 1.5213 0.3508
C16 C -0.279(2) 1.5018(18) 0.2049(17)
C17 C -0.218(3) 1.4297(18) 0.1339(17)
H17 H -0.2072 1.3561 0.1594
C18 C -0.275(2) 1.609(2) 0.159(2)
H18 H -0.3119 1.6625 0.2005
C19 C -0.221(3) 1.632(2) 0.060(2)
H19 H -0.2205 1.7031 0.0347
C20 C -0.167(2) 1.5655(15) -0.0100(19)
C21 C -0.173(3) 1.4625(19) 0.029(2)
H20 H -0.1460 1.4152 -0.0170
C22 C -0.106(3) 1.6035(18) -0.1234(16)
H21 H -0.0294 1.6074 -0.1311
H22 H -0.1589 1.6765 -0.1459
C23 C 0.017(2) 1.406(2) 0.731(2)
H23 H 0.0760 1.3394 0.7112
C24 C -0.135(2) 1.5470(16) 0.7402(17)
H24 H -0.2030 1.6080 0.7293
Mo1A Mo 0.69475(19) 1.12221(15) 0.29179(15)
Mo2A Mo 0.81736(19) 0.85369(15) 0.41941(18)
Mo3A Mo 0.3866(2) 1.28008(14) 0.40373(15)
Mo4A Mo 0.66640(19) 0.90532(14) 0.67891(14)
Mo5A Mo 0.64086(19) 0.90852(13) 0.25839(14)
Mo6A Mo 0.59502(18) 1.17967(13) 0.54582(14)
Cu3_2 Cu 0.8797(3) 0.4398(3) 0.5891(3)
Cu3_3 Cu -0.1203(3) 1.4398(3) -0.4109(3)
Cu3A Cu 0.1203(3) 1.5602(3) 0.4109(3)
Cu3A_2 Cu 1.1203(3) 0.5602(3) 0.4109(3)
Cu3A_3 Cu 1.1203(3) 0.5602(3) 1.4109(3)
N7_2 N -0.0811(17) 1.4665(14) -0.3112(15)
N7A N 1.0811(17) 0.5335(14) 0.3112(15)
N7A_2 N 1.0811(17) 0.5335(14) 1.3112(15)
N8_2 N -0.0833(18) 1.5322(15) 0.8106(13)
N8A N 1.0833(18) 0.4678(15) 1.1894(13)
N9_2 N 0.019(2) 1.4477(19) 0.7967(17)
N9A N 0.981(2) 0.5523(19) 1.2033(17)
N10A N 1.2494(18) 0.5651(15) 0.6229(12)
N11A N 1.144(2) 0.6589(17) 0.6405(15)
N12A N 1.1565(18) 0.5841(15) 0.5137(14)
O1A O 0.6789(14) 1.0525(11) 0.6133(13)
O2A O 0.5490(15) 1.2352(15) 0.2990(11)
O3A O 0.6959(17) 1.1676(16) 0.4121(12)
O4A O 0.539(2) 1.1112(17) 0.4530(19)
O5A O 0.6782(18) 1.0431(13) 0.2230(18)
O6A O 0.524(2) 1.0315(18) 0.580(2)
O7A O 0.4569(16) 1.2845(16) 0.4879(10)
O8A O 0.8185(19) 0.9873(11) 0.3412(17)
O9A O 0.620(2) 0.978(2) 0.3927(18)
O10A O 0.351(2) 1.2210(14) 0.3128(12)
O11A O 0.2464(18) 1.2662(13) 0.5053(12)
O12A O 0.7672(16) 0.8386(11) 0.3090(15)
O13A O 0.5169(13) 0.9701(10) 0.7638(11)
O14A O 0.7510(16) 0.8658(13) 0.7527(11)
O15A O 0.9668(13) 0.7766(11) 0.3782(15)
O16A O 0.7914(15) 1.1796(11) 0.1983(11)
O17_2 O -0.3388(14) 1.5908(9) 0.6490(10)
O17A O 0.3388(14) 1.4092(9) 0.3510(10)
O17A_2 O 1.3388(14) 0.4092(9) 0.3510(10)
O18A O 0.4463(15) 1.1806(11) 0.6685(12)
O19A O 0.6260(14) 1.2710(12) 0.5719(14)
O20A O 0.7015(16) 0.8805(12) 0.1373(10)
O21A O 0.798(2) 0.8732(14) 0.5463(13)
O22A O 0.381(2) 1.1035(18) 0.457(2)
C13A C 1.092(2) 0.6661(15) 0.5728(17)
H13A H 1.0190 0.7216 0.5660
C14A C 1.253(2) 0.529(2) 0.5433(16)
H14A H 1.3178 0.4707 0.5132
C15A C 1.332(2) 0.537(2) 0.6780(19)
H15A H 1.3530 0.5995 0.6681
H16A H 1.4074 0.4787 0.6492
C16A C 1.279(2) 0.4982(18) 0.7951(17)
C17A C 1.218(3) 0.5703(18) 0.8661(17)
H17A H 1.2072 0.6439 0.8406
C18A C 1.275(2) 0.391(2) 0.841(2)
H18A H 1.3119 0.3375 0.7995
C19A C 1.221(3) 0.368(2) 0.940(2)
H19A H 1.2205 0.2969 0.9653
C20A C 1.167(2) 0.4345(15) 1.0100(19)
C21A C 1.173(3) 0.5375(19) 0.971(2)
H20A H 1.1460 0.5848 1.0170
C22A C 1.106(3) 0.3965(18) 1.1234(16)
H21A H 1.0294 0.3926 1.1311
H22A H 1.1589 0.3235 1.1459
C23_2 C 0.017(2) 1.406(2) -0.269(2)
C23A C 0.983(2) 0.594(2) 1.269(2)
H23_2 H 0.0760 1.3394 -0.2888
H23A H 0.9240 0.6606 1.2888
C24_2 C -0.135(2) 1.5470(16) -0.2598(17)
C24A C 1.135(2) 0.4530(16) 1.2598(17)
H24_2 H -0.2030 1.6080 -0.2707
H24A H 1.2030 0.3920 1.2707
loop_
_geom_bond_atom_site_label_1
_geom_bond_atom_site_label_2
_geom_bond_site_symmetry_1
_geom_bond_site_symmetry_2
Mo1 O2 1_555 1_555
Mo2 O8 1_555 1_555
Mo3 O2 1_555 1_555
Mo4 O1 1_555 1_555
Mo5 O5 1_555 1_555
Mo6 O1 1_555 1_555
Cu1 N1 1_555 1_555
Cu2 N4 1_555 1_555
Cu3 N7 1_555 1_555
Si1 O4 1_555 1_555
N1 C1 1_555 1_555
N2 N3 1_555 1_555
N3 C1 1_555 1_555
N4 C7 1_555 1_555
N5 N6 1_555 1_555
N6 C7 1_555 1_555
N7 C23 1_555 1_555
N8 N9 1_555 1_555
N9 C23_2 1_555 1_555
N10 N11 1_555 1_555
N11 C13 1_555 1_555
N12 Cu3 1_555 1_555
O3 Mo1 1_555 1_555
O4 Mo1 1_555 1_555
O5 Mo1 1_555 1_555
O6 Mo4 1_555 1_555
O7 Mo3 1_555 1_555
O8 Mo1 1_555 1_555
O9 Mo1 1_555 1_555
O10 Mo3 1_555 1_555
O11 Mo3 1_555 1_555
O12 Mo2 1_555 1_555
O13 Mo4 1_555 1_555
O14 Mo4 1_555 1_555
O15 Mo2 1_555 1_555
O16 Mo1 1_555 1_555
O17 Mo3 1_555 1_555
O18 Mo6 1_555 1_555
O19 Mo6 1_555 1_555
O20 Mo5 1_555 1_555
O21 Mo2 1_555 1_555
O22 Mo3 1_555 1_555
C1 H1 1_555 1_555
C2 N1 1_555 1_555
H2 C2 1_555 1_555
C3 N3 1_555 1_555
H3 C3 1_555 1_555
H4 C3 1_555 1_555
C4 C3 1_555 1_555
C5 C4 1_555 1_555
H5 C5 1_555 1_555
C6 C4 1_555 1_555
H6 C6 1_555 1_555
C7 H7 1_555 1_555
C8 N4 1_555 1_555
H8 C8 1_555 1_555
C9 N6 1_555 1_555
H9 C9 1_555 1_555
H10 C9 1_555 1_555
C10 C9 1_555 1_555
C11 C10 1_555 1_555
H11 C11 1_555 1_555
C12 C10 1_555 1_555
H12 C12 1_555 1_555
C13 N12 1_555 1_555
H13 C13 1_555 1_555
C14 N10 1_555 1_555
H14 C14 1_555 1_555
C15 N10 1_555 1_555
H15 C15 1_555 1_555
H16 C15 1_555 1_555
C16 C15 1_555 1_555
C17 C16 1_555 1_555
H17 C17 1_555 1_555
C18 C16 1_555 1_555
H18 C18 1_555 1_555
C19 C18 1_555 1_555
H19 C19 1_555 1_555
C20 C19 1_555 1_555
C21 C17 1_555 1_555
H20 C21 1_555 1_555
C22 N8 1_555 1_555
H21 C22 1_555 1_555
H22 C22 1_555 1_555
C23 H23 1_555 1_555
C24 N7 1_555 1_555
H24 C24 1_555 1_555
Mo1A O2A 1_555 1_555
Mo2A O11 1_555 1_555
Mo3A O2A 1_555 1_555
Mo4A O10 1_555 1_555
Mo5A O6 1_555 1_555
Mo6A O1A 1_555 1_555
Cu1_2 N1A_2 1_555 1_555
Cu2_2 N4A_2 1_555 1_555
Cu3_2 O17 1_555 1_555
Cu3_3 N7_2 1_555 1_555
Cu3A O17A 1_555 1_555
Cu3A_2 N7A 1_555 1_555
Cu3A_3 N7A_2 1_555 1_555
N1A Cu1 1_555 1_555
N1A_2 C1A 1_555 1_555
N2A N3A 1_555 1_555
N3A C1A 1_555 1_555
N4A Cu2 1_555 1_555
N4A_2 C7A 1_555 1_555
N5A N6A 1_555 1_555
N6A C7A 1_555 1_555
N7_2 C23_2 1_555 1_555
N7A_2 C23A 1_555 1_555
N8_2 C24 1_555 1_555
N8A N9A 1_555 1_555
N9_2 C23 1_555 1_555
N9A C23A 1_555 1_555
N10A N11A 1_555 1_555
N11A C13A 1_555 1_555
N12A Cu3A_2 1_555 1_555
O1A Mo4A 1_555 1_555
O3A Mo1A 1_555 1_555
O4A Si1 1_555 1_555
O5A Mo1A 1_555 1_555
O6A Mo5 1_555 1_555
O7A Mo3A 1_555 1_555
O8A Mo1A 1_555 1_555
O9A Si1 1_555 1_555
O10A Mo4 1_555 1_555
O11A Mo2 1_555 1_555
O12A Mo2A 1_555 1_555
O13A Mo5 1_555 1_555
O14A Mo4A 1_555 1_555
O15A Mo2A 1_555 1_555
O16A Mo1A 1_555 1_555
O17_2 Cu3 1_555 1_555
O17A Mo3A 1_555 1_555
O17A_2 Cu3A_2 1_555 1_555
O18A Mo5 1_555 1_555
O19A Mo6A 1_555 1_555
O20A Mo5A 1_555 1_555
O21A Mo2A 1_555 1_555
O22A Mo2 1_555 1_555
C1A H1A 1_555 1_555
C2A N1A_2 1_555 1_555
H2A C2A 1_555 1_555
C3A N3A 1_555 1_555
H3A C3A 1_555 1_555
H4A C3A 1_555 1_555
C4A C3A 1_555 1_555
C5A C6 1_555 1_555
H5A C5A 1_555 1_555
C6A C5 1_555 1_555
H6A C6A 1_555 1_555
C7A H7A 1_555 1_555
C8A N4A_2 1_555 1_555
H8A C8A 1_555 1_555
C9A N6A 1_555 1_555
H9A C9A 1_555 1_555
H10A C9A 1_555 1_555
C10A C9A 1_555 1_555
C11A C12 1_555 1_555
H11A C11A 1_555 1_555
C12A C11 1_555 1_555
H12A C12A 1_555 1_555
C13A N12A 1_555 1_555
H13A C13A 1_555 1_555
C14A N10A 1_555 1_555
H14A C14A 1_555 1_555
C15A N10A 1_555 1_555
H15A C15A 1_555 1_555
H16A C15A 1_555 1_555
C16A C15A 1_555 1_555
C17A C16A 1_555 1_555
H17A C17A 1_555 1_555
C18A C16A 1_555 1_555
H18A C18A 1_555 1_555
C19A C18A 1_555 1_555
H19A C19A 1_555 1_555
C20A C19A 1_555 1_555
C21A C17A 1_555 1_555
H20A C21A 1_555 1_555
C22A N8A 1_555 1_555
H21A C22A 1_555 1_555
H22A C22A 1_555 1_555
C23_2 H23_2 1_555 1_555
C23A H23A 1_555 1_555
C24_2 N8 1_555 1_555
C24A N7A_2 1_555 1_555
H24_2 C24_2 1_555 1_555
H24A C24A 1_555 1_555
Mo2 O9 1_555 1_555
Mo3 O4 1_555 1_555
Mo4 O21 1_555 1_555
Mo4 O22A 1_555 1_555
Mo5 O9 1_555 1_555
Mo5 O12 1_555 1_555
Mo6 O3 1_555 1_555
Mo6 O4 1_555 1_555
Mo6 O6 1_555 1_555
Mo6 O7 1_555 1_555
Cu3 O15 1_555 1_555
Si1 O6 1_555 1_555
Si1 O9 1_555 1_555
Si1 O22 1_555 1_555
Si1 O6A 1_555 1_555
Si1 O22A 1_555 1_555
N2 C2 1_555 1_555
N5 C8 1_555 1_555
N12 C14 1_555 1_555
O13 Mo5A 1_555 1_555
O18 Mo5A 1_555 1_555
O22 Mo2A 1_555 1_555
O22 Mo4A 1_555 1_555
C20 C21 1_555 1_555
C20 C22 1_555 1_555
Mo1A O4A 1_555 1_555
Mo1A O9A 1_555 1_555
Mo2A O8A 1_555 1_555
Mo2A O9A 1_555 1_555
Mo3A O4A 1_555 1_555
Mo3A O10A 1_555 1_555
Mo3A O11A 1_555 1_555
Mo3A O22A 1_555 1_555
Mo4A O6A 1_555 1_555
Mo4A O13A 1_555 1_555
Mo4A O21A 1_555 1_555
Mo5A O5A 1_555 1_555
Mo5A O9A 1_555 1_555
Mo5A O12A 1_555 1_555
Mo6A O3A 1_555 1_555
Mo6A O4A 1_555 1_555
Mo6A O6A 1_555 1_555
Mo6A O7A 1_555 1_555
Mo6A O18A 1_555 1_555
Cu3A_2 O15A 1_555 1_555
N2A C2A 1_555 1_555
N5A C8A 1_555 1_555
N7_2 C24_2 1_555 1_555
N8_2 N9_2 1_555 1_555
N8A C24A 1_555 1_555
N12A C14A 1_555 1_555
C4A C5A 1_555 1_555
C4A C6A 1_555 1_555
C10A C11A 1_555 1_555
C10A C12A 1_555 1_555
C20A C21A 1_555 1_555
C20A C22A 1_555 1_555

#END
