
#######################################################################
#
#                 Cambridge Crystallographic Data Centre
#                                CCDC 
#
#######################################################################
#
# If this CIF has been generated from an entry in the Cambridge 
# Structural Database, then it will include bibliographic, chemical, 
# crystal, experimental, refinement or atomic coordinate data resulting 
# from the CCDC's data processing and validation procedures.
#
#######################################################################

data_GUBZIN
_symmetry_cell_setting           triclinic
_symmetry_space_group_name_H-M   'P -1'
_symmetry_Int_Tables_number      2
_space_group_name_Hall           '-P 1'
loop_
_symmetry_equiv_pos_site_id
_symmetry_equiv_pos_as_xyz
1 x,y,z
2 -x,-y,-z
_cell_length_a                   10.260(2)
_cell_length_b                   13.550(3)
_cell_length_c                   14.860(3)
_cell_angle_alpha                105.70(3)
_cell_angle_beta                 90.80(3)
_cell_angle_gamma                108.80(3)
_cell_volume                     1871.07
loop_
_atom_site_label
_atom_site_type_symbol
_atom_site_fract_x
_atom_site_fract_y
_atom_site_fract_z
O6 O 0.653(4) 1.049(3) 0.052(2)
O8 O 0.118(3) 0.812(3) -0.022(2)
O10 O 0.037(2) 1.107(2) 0.1678(17)
Mo1 Mo 0.4755(2) 1.37813(15) 0.75560(13)
Mo2 Mo 0.6150(2) 1.27845(16) 0.91690(14)
Mo3 Mo 0.4113(2) 1.62539(17) 0.83983(14)
Mo4 Mo 0.7149(2) 1.76316(16) 1.00345(14)
Mo5 Mo 0.8044(2) 1.53379(17) 0.88533(14)
Mo6 Mo 0.1733(2) 1.38413(17) 0.86699(15)
Mn1 Mn 0.6488(4) 1.0082(3) 0.7608(2)
N1 N 0.629(2) 0.8426(16) 0.6725(15)
N2 N 0.641(2) 0.6807(16) 0.6244(13)
N3 N 0.535(3) 0.6744(19) 0.5636(14)
N4 N 1.2374(19) 0.7644(16) 0.4068(14)
N5 N 1.294(2) 0.8620(17) 0.4814(13)
N6 N 1.2924(19) 0.9002(16) 0.3451(13)
N7 N 0.427(2) 0.9821(17) 0.7206(15)
N8 N 0.199(2) 0.9285(19) 0.7316(16)
N9 N 0.236(2) 1.0165(15) 0.7021(13)
O1 O 0.580(2) 0.9399(16) 0.8751(14)
O2 O 0.416(3) 1.474(3) 0.896(2)
O3 O 0.8624(19) 1.0574(17) 0.8292(14)
O4 O 0.576(3) 1.443(2) 0.919(2)
O5 O 0.497(3) 1.617(2) 0.9856(19)
O7 O 0.328(3) 1.419(2) 0.995(2)
O9 O 0.799(3) 1.6715(17) 0.9092(13)
O11 O 0.419(2) 1.204(2) 0.9291(13)
O12 O 0.235(2) 1.5141(14) 0.8413(19)
O13 O 0.762(2) 1.3863(14) 0.9029(15)
O14 O 0.880(3) 1.5726(19) 1.0181(12)
O15 O 0.817(2) 1.8846(14) 0.9950(15)
O16 O 0.586(2) 1.729(2) 0.8889(12)
O17 O 0.471(2) 1.3262(14) 0.6405(10)
O18 O 0.6581(18) 1.1684(12) 0.8676(12)
O19 O 0.523(2) 1.2826(17) 0.8005(18)
O20 O 0.358(2) 1.6852(16) 0.7694(12)
O21 O 0.292(2) 1.3362(15) 0.772(2)
O22 O 0.812(3) 1.7446(18) 1.0951(13)
O23 O 0.677(2) 1.4713(15) 0.7848(16)
O24 O 0.462(2) 1.5232(14) 0.7570(19)
O25 O 0.0228(18) 1.3152(14) 0.7990(13)
O26 O 0.9486(18) 1.5457(17) 0.8354(13)
O27 O 0.655(2) 1.295(2) 1.0402(14)
Si1 Si 0.5000 1.5000 1.0000
C1 C 0.534(3) 0.780(2) 0.5999(16)
H1 H 0.4707 0.8052 0.5753
C2 C 0.691(3) 0.779(2) 0.687(2)
H2 H 0.7625 0.7985 0.7343
C3 C 0.687(3) 0.586(2) 0.611(2)
H3 H 0.7066 0.5770 0.6721
H4 H 0.6130 0.5206 0.5753
C4 C 0.818(3) 0.6008(19) 0.5589(17)
C5 C 0.811(3) 0.593(2) 0.4683(19)
H5 H 0.7255 0.5775 0.4361
C6 C 0.930(3) 0.606(2) 0.417(2)
H6 H 0.9220 0.5952 0.3523
C7 C 1.058(3) 0.6355(19) 0.4691(15)
C8 C 1.068(2) 0.6533(19) 0.5664(19)
H7 H 1.1529 0.6770 0.6026
C9 C 0.941(4) 0.633(2) 0.6066(18)
H8 H 0.9453 0.6435 0.6711
C10 C 1.191(3) 0.6561(18) 0.4206(18)
H9 H 1.2639 0.6494 0.4586
H10 H 1.1752 0.6014 0.3601
C11 C 1.236(2) 0.7907(17) 0.3271(16)
H11 H 1.2019 0.7415 0.2680
C12 C 1.321(3) 0.9332(19) 0.4385(19)
H12 H 1.3609 1.0068 0.4710
C13 C 0.372(3) 1.0488(19) 0.6965(16)
H13 H 0.4216 1.1097 0.6784
C14 C 0.316(3) 0.907(2) 0.7377(19)
H14 H 0.3198 0.8452 0.7524
C15 C 0.140(3) 1.073(2) 0.6933(18)
H15 H 0.0727 1.0614 0.7379
H16 H 0.1904 1.1503 0.7085
C16 C 0.063(2) 1.0309(17) 0.5915(17)
C17 C 0.080(3) 1.105(2) 0.542(2)
H17 H 0.1365 1.1764 0.5690
C18 C -0.014(3) 0.924(2) 0.549(2)
H18 H -0.0231 0.8715 0.5800
Mo1A Mo 0.5245(2) 1.62187(15) 1.24440(13)
Mo2A Mo 0.3850(2) 1.72155(16) 1.08310(14)
Mo3A Mo 0.5887(2) 1.37461(17) 1.16017(14)
Mo4A Mo 0.2851(2) 1.23684(16) 0.99655(14)
Mo5A Mo 0.1956(2) 1.46621(17) 1.11467(14)
Mo6A Mo 0.8267(2) 1.61587(17) 1.13301(15)
Mn1A Mn 0.3512(4) 1.9918(3) 1.2392(2)
Mn1A_2 Mn 1.3512(4) 0.9918(3) 0.2392(2)
Mn1A_3 Mn -0.6488(4) 0.9918(3) 0.2392(2)
N1A N 1.371(2) 1.1574(16) 0.3275(15)
N1A_2 N 0.371(2) 2.1574(16) 1.3275(15)
N2A N 1.359(2) 1.3193(16) 0.3756(13)
N3A N 1.465(3) 1.3256(19) 0.4364(14)
N4A N 0.7626(19) 1.2356(16) 0.5932(14)
N5A N 0.706(2) 1.1380(17) 0.5186(13)
N6A N 0.7076(19) 1.0998(16) 0.6549(13)
N6_2 N 0.2924(19) 1.9002(16) 1.3451(13)
N7A N -0.427(2) 1.0179(17) 0.2794(15)
N7A_2 N 0.573(2) 2.0179(17) 1.2794(15)
N8A N -0.199(2) 1.0715(19) 0.2684(16)
N9A N -0.236(2) 0.9835(15) 0.2979(13)
O1A O 0.420(2) 2.0601(16) 1.1249(14)
O2A O 0.584(3) 1.526(3) 1.104(2)
O3A O 0.1376(19) 1.9426(17) 1.1708(14)
O4A O 0.424(3) 1.557(2) 1.081(2)
O5A O 0.503(3) 1.383(2) 1.0144(19)
O7A O 0.672(3) 1.581(2) 1.005(2)
O9A O 0.201(3) 1.3285(17) 1.0908(13)
O11A O 0.581(2) 1.796(2) 1.0709(13)
O12A O 0.765(2) 1.4859(14) 1.1587(19)
O13A O 0.238(2) 1.6137(14) 1.0971(15)
O14A O 0.120(3) 1.4274(19) 0.9819(12)
O15A O 0.183(2) 1.1154(14) 1.0050(15)
O16A O 0.414(2) 1.271(2) 1.1111(12)
O17A O 0.529(2) 1.6738(14) 1.3595(10)
O18A O 0.3419(18) 1.8316(12) 1.1324(12)
O19A O 0.477(2) 1.7174(17) 1.1995(18)
O20A O 0.642(2) 1.3148(16) 1.2306(12)
O21A O 0.708(2) 1.6638(15) 1.228(2)
O22A O 0.188(3) 1.2554(18) 0.9049(13)
O23A O 0.323(2) 1.5287(15) 1.2152(16)
O24A O 0.538(2) 1.4768(14) 1.2430(19)
O25A O 0.9772(18) 1.6848(14) 1.2010(13)
O26A O 0.0514(18) 1.4543(17) 1.1646(13)
O27A O 0.345(2) 1.705(2) 0.9598(14)
C1A C 1.466(3) 1.220(2) 0.4001(16)
H1A H 1.5293 1.1948 0.4247
C2A C 1.309(3) 1.221(2) 0.313(2)
H2A H 1.2375 1.2015 0.2657
C3A C 1.313(3) 1.414(2) 0.389(2)
H3A H 1.2934 1.4230 0.3279
H4A H 1.3870 1.4794 0.4247
C4A C 1.182(3) 1.3992(19) 0.4411(17)
C5A C 1.189(3) 1.407(2) 0.5317(19)
H5A H 1.2745 1.4225 0.5639
C6A C 1.070(3) 1.394(2) 0.583(2)
H6A H 1.0780 1.4048 0.6477
C7A C 0.942(3) 1.3645(19) 0.5309(15)
C8A C 0.932(2) 1.3467(19) 0.4336(19)
H7A H 0.8471 1.3230 0.3974
C9A C 1.059(4) 1.367(2) 0.3934(18)
H8A H 1.0547 1.3565 0.3289
C10A C 0.809(3) 1.3439(18) 0.5794(18)
H9A H 0.7361 1.3506 0.5414
H10A H 0.8248 1.3986 0.6399
C11A C 0.764(2) 1.2093(17) 0.6729(16)
H11A H 0.7981 1.2585 0.7320
C12A C 0.679(3) 1.0668(19) 0.5615(19)
H12A H 0.6391 0.9932 0.5290
C13A C -0.372(3) 0.9512(19) 0.3035(16)
H13A H -0.4216 0.8903 0.3216
C14A C -0.316(3) 1.093(2) 0.2623(19)
H14A H -0.3198 1.1548 0.2476
C15A C -0.140(3) 0.927(2) 0.3067(18)
H15A H -0.0727 0.9386 0.2621
H16A H -0.1904 0.8497 0.2915
C16A C -0.063(2) 0.9691(17) 0.4085(17)
C17A C -0.080(3) 0.895(2) 0.458(2)
H17A H -0.1365 0.8236 0.4310
C18A C 0.014(3) 1.076(2) 0.451(2)
H18A H 0.0231 1.1285 0.4200
loop_
_geom_bond_atom_site_label_1
_geom_bond_atom_site_label_2
_geom_bond_site_symmetry_1
_geom_bond_site_symmetry_2
Mo1 O2 1_555 1_555
Mo2 O4 1_555 1_555
Mo3 O2 1_555 1_555
Mo4 O5 1_555 1_555
Mo5 O4 1_555 1_555
Mo6 O2 1_555 1_555
Mn1 N1 1_555 1_555
N1 C1 1_555 1_555
N2 N3 1_555 1_555
N3 C1 1_555 1_555
N4 N5 1_555 1_555
N5 C12 1_555 1_555
N6 C11 1_555 1_555
N7 Mn1 1_555 1_555
N8 N9 1_555 1_555
N9 C13 1_555 1_555
O1 Mn1 1_555 1_555
O2 Si1 1_555 1_555
O3 Mn1 1_555 1_555
O4 Mo1 1_555 1_555
O5 Mo3 1_555 1_555
O7 Mo6 1_555 1_555
O9 Mo4 1_555 1_555
O11 Mo2 1_555 1_555
O12 Mo3 1_555 1_555
O13 Mo2 1_555 1_555
O14 Mo5 1_555 1_555
O15 Mo4 1_555 1_555
O16 Mo3 1_555 1_555
O17 Mo1 1_555 1_555
O18 Mo2 1_555 1_555
O19 Mo1 1_555 1_555
O20 Mo3 1_555 1_555
O21 Mo1 1_555 1_555
O22 Mo4 1_555 1_555
O23 Mo1 1_555 1_555
O24 Mo1 1_555 1_555
O25 Mo6 1_555 1_555
O26 Mo5 1_555 1_555
O27 Mo2 1_555 1_555
Si1 O4 1_555 1_555
C1 H1 1_555 1_555
C2 N1 1_555 1_555
H2 C2 1_555 1_555
C3 N2 1_555 1_555
H3 C3 1_555 1_555
H4 C3 1_555 1_555
C4 C3 1_555 1_555
C5 C4 1_555 1_555
H5 C5 1_555 1_555
C6 C5 1_555 1_555
H6 C6 1_555 1_555
C7 C6 1_555 1_555
C8 C7 1_555 1_555
H7 C8 1_555 1_555
C9 C4 1_555 1_555
H8 C9 1_555 1_555
C10 N4 1_555 1_555
H9 C10 1_555 1_555
H10 C10 1_555 1_555
C11 N4 1_555 1_555
H11 C11 1_555 1_555
C12 N6 1_555 1_555
H12 C12 1_555 1_555
C13 N7 1_555 1_555
H13 C13 1_555 1_555
C14 N7 1_555 1_555
H14 C14 1_555 1_555
C15 N9 1_555 1_555
H15 C15 1_555 1_555
H16 C15 1_555 1_555
C16 C15 1_555 1_555
C17 C16 1_555 1_555
H17 C17 1_555 1_555
C18 C16 1_555 1_555
H18 C18 1_555 1_555
Mo1A O2A 1_555 1_555
Mo2A O5 1_555 1_555
Mo3A O27 1_555 1_555
Mo4A O7 1_555 1_555
Mo5A O7 1_555 1_555
Mo6A O14 1_555 1_555
Mn1A N1A_2 1_555 1_555
Mn1A_2 N6 1_555 1_555
Mn1A_3 N7A 1_555 1_555
N1A Mn1A_2 1_555 1_555
N2A N3A 1_555 1_555
N3A C1A 1_555 1_555
N4A N5A 1_555 1_555
N5A C12A 1_555 1_555
N6A Mn1 1_555 1_555
N6_2 Mn1A 1_555 1_555
N7A C13A 1_555 1_555
N7A_2 Mn1A 1_555 1_555
N8A N9A 1_555 1_555
N9A C13A 1_555 1_555
O1A Mn1A 1_555 1_555
O2A Si1 1_555 1_555
O3A Mn1A 1_555 1_555
O4A Si1 1_555 1_555
O5A Mo2 1_555 1_555
O7A Mo4 1_555 1_555
O9A Mo4A 1_555 1_555
O11A Mo4 1_555 1_555
O12A Mo3A 1_555 1_555
O13A Mo2A 1_555 1_555
O14A Mo6 1_555 1_555
O15A Mo4A 1_555 1_555
O16A Mo3A 1_555 1_555
O17A Mo1A 1_555 1_555
O18A Mo2A 1_555 1_555
O19A Mo1A 1_555 1_555
O20A Mo3A 1_555 1_555
O21A Mo1A 1_555 1_555
O22A Mo6 1_555 1_555
O23A Mo1A 1_555 1_555
O24A Mo1A 1_555 1_555
O25A Mo6A 1_555 1_555
O26A Mo5A 1_555 1_555
O27A Mo3 1_555 1_555
C1A N1A 1_555 1_555
H1A C1A 1_555 1_555
C2A N1A 1_555 1_555
H2A C2A 1_555 1_555
C3A N2A 1_555 1_555
H3A C3A 1_555 1_555
H4A C3A 1_555 1_555
C4A C3A 1_555 1_555
C5A C4A 1_555 1_555
H5A C5A 1_555 1_555
C6A C5A 1_555 1_555
H6A C6A 1_555 1_555
C7A C6A 1_555 1_555
C8A C7A 1_555 1_555
H7A C8A 1_555 1_555
C9A C4A 1_555 1_555
H8A C9A 1_555 1_555
C10A N4A 1_555 1_555
H9A C10A 1_555 1_555
H10A C10A 1_555 1_555
C11A N4A 1_555 1_555
H11A C11A 1_555 1_555
C12A N6A 1_555 1_555
H12A C12A 1_555 1_555
C13A H13A 1_555 1_555
C14A N7A 1_555 1_555
H14A C14A 1_555 1_555
C15A N9A 1_555 1_555
H15A C15A 1_555 1_555
H16A C15A 1_555 1_555
C16A C15A 1_555 1_555
C17A C18 1_555 1_555
H17A C17A 1_555 1_555
C18A C17 1_555 1_555
H18A C18A 1_555 1_555
Mo2 O19 1_555 1_555
Mo3 O24 1_555 1_555
Mo4 O16 1_555 1_555
Mo5 O9 1_555 1_555
Mo5 O13 1_555 1_555
Mo5 O23 1_555 1_555
Mo5 O7A 1_555 1_555
Mo6 O12 1_555 1_555
Mo6 O21 1_555 1_555
Mn1 O18 1_555 1_555
N2 C2 1_555 1_555
N8 C14 1_555 1_555
O5 Si1 1_555 1_555
O7 Si1 1_555 1_555
O11 Mo4A 1_555 1_555
O22 Mo6A 1_555 1_555
Si1 O5A 1_555 1_555
Si1 O7A 1_555 1_555
C7 C10 1_555 1_555
C8 C9 1_555 1_555
Mo1A O4A 1_555 1_555
Mo2A O4A 1_555 1_555
Mo2A O11A 1_555 1_555
Mo2A O19A 1_555 1_555
Mo2A O27A 1_555 1_555
Mo3A O2A 1_555 1_555
Mo3A O5A 1_555 1_555
Mo3A O24A 1_555 1_555
Mo4A O5A 1_555 1_555
Mo4A O16A 1_555 1_555
Mo4A O22A 1_555 1_555
Mo5A O4A 1_555 1_555
Mo5A O9A 1_555 1_555
Mo5A O13A 1_555 1_555
Mo5A O14A 1_555 1_555
Mo5A O23A 1_555 1_555
Mo6A O2A 1_555 1_555
Mo6A O7A 1_555 1_555
Mo6A O12A 1_555 1_555
Mo6A O21A 1_555 1_555
Mn1A O18A 1_555 1_555
N2A C2A 1_555 1_555
N6A C11A 1_555 1_555
N8A C14A 1_555 1_555
C7A C10A 1_555 1_555
C8A C9A 1_555 1_555
C16A C17A 1_555 1_555
C16A C18A 1_555 1_555

#END
