
#######################################################################
#
#                 Cambridge Crystallographic Data Centre
#                                CCDC 
#
#######################################################################
#
# If this CIF has been generated from an entry in the Cambridge 
# Structural Database, then it will include bibliographic, chemical, 
# crystal, experimental, refinement or atomic coordinate data resulting 
# from the CCDC's data processing and validation procedures.
#
#######################################################################

data_GUCDOZ
_symmetry_cell_setting           monoclinic
_symmetry_space_group_name_H-M   'P 21/c'
_symmetry_Int_Tables_number      14
_space_group_name_Hall           '-P 2ybc'
loop_
_symmetry_equiv_pos_site_id
_symmetry_equiv_pos_as_xyz
1 x,y,z
2 -x,1/2+y,1/2-z
3 -x,-y,-z
4 x,1/2-y,1/2+z
_cell_length_a                   9.742(2)
_cell_length_b                   7.2774(16)
_cell_length_c                   14.090(3)
_cell_angle_alpha                90
_cell_angle_beta                 103.074(2)
_cell_angle_gamma                90
_cell_volume                     973.037
loop_
_atom_site_label
_atom_site_type_symbol
_atom_site_fract_x
_atom_site_fract_y
_atom_site_fract_z
Er1 Er 0.282607(16) 0.11932(2) 0.813723(11)
O1 O -0.3017(3) 0.3865(3) 0.9787(2)
O2 O -0.3004(3) 0.4787(4) 0.8284(2)
O3 O -0.1448(3) 0.3536(4) 0.6930(2)
O4 O 0.0649(3) 0.2215(4) 0.71622(19)
O5 O 0.3328(4) 0.3620(4) 0.7202(3)
O6 O 0.4790(3) 0.5455(5) 0.6653(2)
O7 O 0.4035(3) 0.3276(4) 0.9313(2)
H1 H 0.3669 0.4108 0.9570
H2 H 0.4898 0.3417 0.9399
O8 O 0.3428(3) -0.0386(4) 0.9635(2)
H3 H 0.3400 -0.1525 0.9637
H4 H 0.3865 0.0026 1.0166
N1 N 0.1112(3) 0.2175(4) 0.9070(2)
N2 N -0.0265(3) 0.2680(5) 1.0080(2)
H5 H -0.0553 0.2722 1.0613
C1 C 0.1013(4) 0.2113(6) 0.9995(3)
H6 H 0.1729 0.1730 1.0511
C2 C -0.1038(4) 0.3182(5) 0.9175(3)
C3 C -0.0167(4) 0.2850(5) 0.8554(3)
C4 C -0.2457(4) 0.4000(5) 0.9060(3)
C5 C -0.0354(4) 0.2903(5) 0.7477(3)
C6 C 0.4112(4) 0.4965(6) 0.7266(3)
H7 H 0.4211 0.5684 0.7823
Er1A Er -0.282607(16) 0.61932(2) 0.686277(11)
Er1A_2 Er 0.717393(16) 0.61932(2) 0.686277(11)
O2A O 0.3004(3) -0.0213(4) 0.6716(2)
O3A O 0.1448(3) -0.1464(4) 0.8070(2)
O6A O 0.5210(3) 0.0455(5) 0.8347(2)
loop_
_geom_bond_atom_site_label_1
_geom_bond_atom_site_label_2
_geom_bond_site_symmetry_1
_geom_bond_site_symmetry_2
Er1 O4 1_555 1_555
O1 C4 1_555 1_555
O2 C4 1_555 1_555
O3 C5 1_555 1_555
O4 C5 1_555 1_555
O5 Er1 1_555 1_555
O6 C6 1_555 1_555
O7 Er1 1_555 1_555
H1 O7 1_555 1_555
H2 O7 1_555 1_555
O8 Er1 1_555 1_555
H3 O8 1_555 1_555
H4 O8 1_555 1_555
N1 Er1 1_555 1_555
N2 H5 1_555 1_555
C1 N1 1_555 1_555
H6 C1 1_555 1_555
C2 N2 1_555 1_555
C3 N1 1_555 1_555
C4 C2 1_555 1_555
C5 C3 1_555 1_555
C6 O5 1_555 1_555
H7 C6 1_555 1_555
Er1A O2 1_555 1_555
Er1A_2 O6 1_555 1_555
O2A Er1 1_555 1_555
O3A Er1 1_555 1_555
O6A Er1 1_555 1_555
O3 Er1A 1_555 1_555
N2 C1 1_555 1_555
C2 C3 1_555 1_555

#END
