
#######################################################################
#
#                 Cambridge Crystallographic Data Centre
#                                CCDC 
#
#######################################################################
#
# If this CIF has been generated from an entry in the Cambridge 
# Structural Database, then it will include bibliographic, chemical, 
# crystal, experimental, refinement or atomic coordinate data resulting 
# from the CCDC's data processing and validation procedures.
#
#######################################################################

data_GUCFIV
_symmetry_cell_setting           monoclinic
_symmetry_space_group_name_H-M   'P n'
_symmetry_Int_Tables_number      7
_space_group_name_Hall           'P -2yac'
loop_
_symmetry_equiv_pos_site_id
_symmetry_equiv_pos_as_xyz
1 x,y,z
2 1/2+x,-y,1/2+z
_cell_length_a                   12.6433(7)
_cell_length_b                   13.3950(5)
_cell_length_c                   19.9230(8)
_cell_angle_alpha                90
_cell_angle_beta                 107.131(5)
_cell_angle_gamma                90
_cell_volume                     3224.4
loop_
_atom_site_label
_atom_site_type_symbol
_atom_site_fract_x
_atom_site_fract_y
_atom_site_fract_z
Mg1 Mg 0.72813(11) 0.75262(10) 0.48153(7)
Mg2 Mg 0.46618(12) 0.74628(10) 0.35480(7)
Mg3 Mg 0.20919(11) 0.73906(10) 0.22683(6)
O1 O 0.6915(2) 0.9030(2) 0.51123(14)
O2 O 0.5971(3) 0.83694(19) 0.41086(14)
O3 O 0.7370(2) 0.6317(2) 0.41965(14)
O4 O 0.5816(3) 0.6568(3) 0.33328(16)
O5 O 1.1265(2) 0.3138(2) 0.02932(13)
O6 O 0.9677(3) 0.3283(2) -0.05574(14)
O7 O 0.3522(3) 0.8367(2) 0.37806(16)
O8 O 0.1834(2) 0.8277(2) 0.30200(14)
O9 O -0.2034(3) 1.1595(3) 0.68838(16)
O10 O -0.0357(3) 1.1821(3) 0.76499(15)
O11 O 0.3387(2) 1.6529(2) 0.29646(14)
O12 O 0.1697(3) 1.5958(2) 0.27331(17)
O13 O 0.8596(3) 0.7256(3) 0.5699(2)
O14 O 0.8437(3) 0.8160(3) 0.43583(18)
O15 O 0.0523(3) 0.7668(3) 0.16311(15)
O16 O 0.2253(3) 0.6440(3) 0.14624(16)
N1 N 1.0240(5) 0.7400(5) 0.6525(3)
N2 N 0.9163(4) 0.7571(3) 0.3522(2)
N3 N -0.1031(4) 0.7223(4) 0.0770(2)
N4 N 0.3176(4) 0.5691(4) 0.0793(2)
C1 C 0.6190(3) 0.9115(3) 0.45347(19)
C2 C 0.5596(4) 1.0070(3) 0.4320(2)
C3 C 0.4888(5) 1.0221(3) 0.3667(2)
H1 H 0.4753 0.9688 0.3338
C4 C 0.4358(5) 1.1124(4) 0.3465(3)
H2 H 0.3846 1.1194 0.3011
C5 C 0.4572(4) 1.1927(3) 0.3925(3)
C6 C 0.5293(5) 1.1795(4) 0.4595(3)
H3 H 0.5454 1.2337 0.4917
C7 C 0.5778(4) 1.0872(3) 0.4793(2)
H4 H 0.6243 1.0780 0.5260
C8 C 0.6767(4) 0.6221(3) 0.3579(2)
C9 C 0.7234(4) 0.5670(3) 0.3069(2)
C10 C 0.6723(4) 0.5798(4) 0.2345(3)
H5 H 0.6066 0.6184 0.2188
C11 C 0.7172(4) 0.5369(4) 0.1861(2)
H6 H 0.6820 0.5463 0.1374
C12 C 0.8124(4) 0.4805(3) 0.2076(2)
C13 C 0.8618(4) 0.4646(4) 0.2799(2)
H7 H 0.9261 0.4242 0.2957
C14 C 0.8159(4) 0.5082(3) 0.3280(2)
H8 H 0.8494 0.4971 0.3767
C15 C 1.0262(3) 0.3350(3) 0.00573(19)
C16 C 0.9693(4) 0.3743(3) 0.05766(19)
C17 C 0.8558(4) 0.3679(4) 0.0426(2)
H9 H 0.8128 0.3416 -0.0013
C18 C 0.8042(4) 0.3997(4) 0.0914(2)
H10 H 0.7263 0.3935 0.0814
C19 C 0.8670(4) 0.4412(3) 0.1558(2)
C20 C 0.9795(4) 0.4483(3) 0.16980(19)
H11 H 1.0221 0.4765 0.2131
C21 C 1.0330(4) 0.4148(3) 0.12176(19)
H12 H 1.1112 0.4194 0.1324
C22 C 0.2520(4) 0.8514(3) 0.3599(2)
C23 C 0.2041(4) 0.9032(4) 0.4129(2)
C24 C 0.0974(4) 0.9412(4) 0.3927(2)
H13 H 0.0552 0.9408 0.3446
C25 C 0.0528(4) 0.9796(4) 0.4427(2)
H14 H -0.0193 1.0078 0.4282
C26 C 0.1109(4) 0.9778(4) 0.5138(2)
C27 C 0.2167(4) 0.9424(5) 0.5327(2)
H15 H 0.2586 0.9435 0.5809
C28 C 0.2663(4) 0.9041(4) 0.4827(2)
H16 H 0.3401 0.8797 0.4969
C29 C -0.1003(4) 1.1503(3) 0.7086(2)
C30 C -0.0438(4) 1.1003(4) 0.6599(2)
C31 C -0.1068(4) 1.0502(4) 0.5997(2)
H17 H -0.1847 1.0442 0.5906
C32 C -0.0560(4) 1.0097(4) 0.5537(2)
H18 H -0.0995 0.9757 0.5131
C33 C 0.0577(4) 1.0174(4) 0.5655(2)
C34 C 0.1210(4) 1.0618(4) 0.6288(2)
H19 H 0.1995 1.0635 0.6404
C35 C 0.0674(5) 1.1032(5) 0.6742(3)
H20 H 0.1102 1.1343 0.7163
C36 C 0.2691(4) 1.5832(3) 0.2982(2)
C37 C 0.3183(4) 1.4821(3) 0.3261(2)
C38 C 0.2489(5) 1.3981(4) 0.3158(3)
H21 H 0.1717 1.4050 0.2936
C39 C 0.2940(5) 1.3041(4) 0.3385(3)
H22 H 0.2469 1.2474 0.3318
C40 C 0.4057(5) 1.2929(3) 0.3703(2)
C41 C 0.4711(4) 1.3769(4) 0.3797(3)
H23 H 0.5481 1.3704 0.4026
C42 C 0.4292(4) 1.4709(3) 0.3571(2)
H24 H 0.4773 1.5269 0.3632
C43 C 0.9537(6) 0.7556(5) 0.5916(3)
H25 H 0.9791 0.7954 0.5600
C44 C 0.9936(8) 0.6852(9) 0.7081(4)
H26 H 0.9255 0.6474 0.6874
H27 H 0.9818 0.7326 0.7427
H28 H 1.0534 0.6391 0.7313
C45 C 1.1384(8) 0.7829(9) 0.6712(5)
H29 H 1.1405 0.8456 0.6969
H30 H 1.1587 0.7957 0.6281
H31 H 1.1909 0.7354 0.7007
C46 C 0.8453(4) 0.8067(5) 0.3757(3)
H32 H 0.7876 0.8396 0.3412
C47 C 1.0052(5) 0.7052(6) 0.4027(4)
H33 H 0.9756 0.6694 0.4361
H34 H 1.0608 0.7536 0.4280
H35 H 1.0395 0.6575 0.3781
C48 C 0.9100(6) 0.7564(6) 0.2793(3)
H36 H 0.8499 0.8003 0.2534
H37 H 0.8956 0.6882 0.2610
H38 H 0.9802 0.7800 0.2737
C49 C -0.0051(4) 0.7062(5) 0.1223(3)
H39 H 0.0241 0.6407 0.1234
C50 C -0.1529(8) 0.8239(7) 0.0717(5)
H40 H -0.0941 0.8742 0.0815
H41 H -0.1945 0.8303 0.1060
H42 H -0.2030 0.8340 0.0243
C51 C -0.1677(7) 0.6452(6) 0.0300(3)
H43 H -0.1261 0.5824 0.0375
H44 H -0.1818 0.6665 -0.0189
H45 H -0.2383 0.6354 0.0401
C52 C 0.3120(5) 0.6112(5) 0.1384(3)
H46 H 0.3779 0.6164 0.1765
C53 C 0.4221(6) 0.5327(7) 0.0697(4)
H47 H 0.4813 0.5380 0.1142
H48 H 0.4411 0.5731 0.0339
H49 H 0.4135 0.4628 0.0546
C54 C 0.2223(5) 0.5617(5) 0.0213(3)
H50 H 0.1784 0.6229 0.0175
H51 H 0.1780 0.5044 0.0276
H52 H 0.2440 0.5527 -0.0216
Mg1A Mg 1.22813(11) 0.24738(10) -0.01847(7)
Mg2_2 Mg 0.46618(12) 1.74628(10) 0.35480(7)
Mg2A Mg -0.03382(12) 1.25372(10) 0.85480(7)
Mg2A_2 Mg 0.96618(12) 0.25372(10) -0.14520(7)
Mg3_2 Mg 0.20919(11) 1.73906(10) 0.22683(6)
Mg3A Mg -0.29081(11) 1.26094(10) 0.72683(6)
O5A O 0.6265(2) 0.6862(2) 0.52932(13)
O6A O 0.4677(3) 0.6717(2) 0.44426(14)
O9A O 0.2966(3) 0.8405(3) 0.18838(16)
O10A O 0.4643(3) 0.8179(3) 0.26499(15)
O11_2 O 0.3387(2) 0.6529(2) 0.29646(14)
O12_2 O 0.1697(3) 0.5958(2) 0.27331(17)
O17 O 0.8965(5) 0.0119(5) 0.2120(3)
N5 N 1.0521(6) 0.0809(4) 0.1838(3)
C55 C 0.9897(7) 0.0016(6) 0.2025(4)
H53 H 1.0212 -0.0634 0.2082
C56 C 1.1560(9) 0.0598(11) 0.1774(5)
H54 H 1.1492 0.0104 0.1401
H55 H 1.2032 0.0329 0.2219
H56 H 1.1891 0.1211 0.1658
C57 C 0.9960(11) 0.1733(7) 0.1756(7)
H57 H 0.9386 0.1747 0.1301
H58 H 1.0488 0.2276 0.1775
H59 H 0.9618 0.1818 0.2134
loop_
_geom_bond_atom_site_label_1
_geom_bond_atom_site_label_2
_geom_bond_site_symmetry_1
_geom_bond_site_symmetry_2
Mg1 O1 1_555 1_555
Mg2 O2 1_555 1_555
Mg3 O8 1_555 1_555
O1 C1 1_555 1_555
O2 Mg1 1_555 1_555
O3 Mg1 1_555 1_555
O4 Mg2 1_555 1_555
O5 C15 1_555 1_555
O6 C15 1_555 1_555
O7 Mg2 1_555 1_555
O8 C22 1_555 1_555
O9 C29 1_555 1_555
O10 C29 1_555 1_555
O11 C36 1_555 1_555
O12 C36 1_555 1_555
O13 Mg1 1_555 1_555
O14 Mg1 1_555 1_555
O15 Mg3 1_555 1_555
O16 Mg3 1_555 1_555
N1 C43 1_555 1_555
N2 C46 1_555 1_555
N3 C49 1_555 1_555
N4 C52 1_555 1_555
C1 O2 1_555 1_555
C2 C1 1_555 1_555
C3 C2 1_555 1_555
H1 C3 1_555 1_555
C4 C3 1_555 1_555
H2 C4 1_555 1_555
C5 C4 1_555 1_555
C6 C5 1_555 1_555
H3 C6 1_555 1_555
C7 C2 1_555 1_555
H4 C7 1_555 1_555
C8 O3 1_555 1_555
C9 C8 1_555 1_555
C10 C9 1_555 1_555
H5 C10 1_555 1_555
C11 C10 1_555 1_555
H6 C11 1_555 1_555
C12 C11 1_555 1_555
C13 C12 1_555 1_555
H7 C13 1_555 1_555
C14 C9 1_555 1_555
H8 C14 1_555 1_555
C15 C16 1_555 1_555
C16 C17 1_555 1_555
C17 H9 1_555 1_555
C18 C17 1_555 1_555
H10 C18 1_555 1_555
C19 C12 1_555 1_555
C20 C19 1_555 1_555
H11 C20 1_555 1_555
C21 C16 1_555 1_555
H12 C21 1_555 1_555
C22 O7 1_555 1_555
C23 C22 1_555 1_555
C24 C23 1_555 1_555
H13 C24 1_555 1_555
C25 C24 1_555 1_555
H14 C25 1_555 1_555
C26 C25 1_555 1_555
C27 C26 1_555 1_555
H15 C27 1_555 1_555
C28 C23 1_555 1_555
H16 C28 1_555 1_555
C29 C30 1_555 1_555
C30 C31 1_555 1_555
C31 H17 1_555 1_555
C32 C31 1_555 1_555
H18 C32 1_555 1_555
C33 C26 1_555 1_555
C34 C33 1_555 1_555
H19 C34 1_555 1_555
C35 C30 1_555 1_555
H20 C35 1_555 1_555
C36 C37 1_555 1_555
C37 C38 1_555 1_555
C38 H21 1_555 1_555
C39 C38 1_555 1_555
H22 C39 1_555 1_555
C40 C5 1_555 1_555
C41 C40 1_555 1_555
H23 C41 1_555 1_555
C42 C37 1_555 1_555
H24 C42 1_555 1_555
C43 O13 1_555 1_555
H25 C43 1_555 1_555
C44 N1 1_555 1_555
H26 C44 1_555 1_555
H27 C44 1_555 1_555
H28 C44 1_555 1_555
C45 N1 1_555 1_555
H29 C45 1_555 1_555
H30 C45 1_555 1_555
H31 C45 1_555 1_555
C46 O14 1_555 1_555
H32 C46 1_555 1_555
C47 N2 1_555 1_555
H33 C47 1_555 1_555
H34 C47 1_555 1_555
H35 C47 1_555 1_555
C48 N2 1_555 1_555
H36 C48 1_555 1_555
H37 C48 1_555 1_555
H38 C48 1_555 1_555
C49 O15 1_555 1_555
H39 C49 1_555 1_555
C50 N3 1_555 1_555
H40 C50 1_555 1_555
H41 C50 1_555 1_555
H42 C50 1_555 1_555
C51 N3 1_555 1_555
H43 C51 1_555 1_555
H44 C51 1_555 1_555
H45 C51 1_555 1_555
C52 O16 1_555 1_555
H46 C52 1_555 1_555
C53 N4 1_555 1_555
H47 C53 1_555 1_555
H48 C53 1_555 1_555
H49 C53 1_555 1_555
C54 N4 1_555 1_555
H50 C54 1_555 1_555
H51 C54 1_555 1_555
H52 C54 1_555 1_555
O17 C55 1_555 1_555
N5 C55 1_555 1_555
C55 H53 1_555 1_555
C56 N5 1_555 1_555
H54 C56 1_555 1_555
H55 C56 1_555 1_555
H56 C56 1_555 1_555
C57 N5 1_555 1_555
H57 C57 1_555 1_555
H58 C57 1_555 1_555
H59 C57 1_555 1_555
Mg1A O5 1_555 1_555
Mg2_2 O11 1_555 1_555
Mg2A O10 1_555 1_555
Mg2A_2 O6 1_555 1_555
Mg3_2 O11 1_555 1_555
Mg3A O9 1_555 1_555
O5A Mg1 1_555 1_555
O6A Mg2 1_555 1_555
O9A Mg3 1_555 1_555
O10A Mg2 1_555 1_555
O11_2 Mg2 1_555 1_555
O12_2 Mg3 1_555 1_555
Mg3 O11_2 1_555 1_555
O4 C8 1_555 1_555
O12 Mg3_2 1_555 1_555
C6 C7 1_555 1_555
C13 C14 1_555 1_555
C18 C19 1_555 1_555
C20 C21 1_555 1_555
C27 C28 1_555 1_555
C32 C33 1_555 1_555
C34 C35 1_555 1_555
C39 C40 1_555 1_555
C41 C42 1_555 1_555

#END
