
#######################################################################
#
#                 Cambridge Crystallographic Data Centre
#                                CCDC 
#
#######################################################################
#
# If this CIF has been generated from an entry in the Cambridge 
# Structural Database, then it will include bibliographic, chemical, 
# crystal, experimental, refinement or atomic coordinate data resulting 
# from the CCDC's data processing and validation procedures.
#
#######################################################################

data_GUCJAR
_symmetry_cell_setting           triclinic
_symmetry_space_group_name_H-M   'P -1'
_symmetry_Int_Tables_number      2
_space_group_name_Hall           '-P 1'
loop_
_symmetry_equiv_pos_site_id
_symmetry_equiv_pos_as_xyz
1 x,y,z
2 -x,-y,-z
_cell_length_a                   10.3201(13)
_cell_length_b                   10.8466(14)
_cell_length_c                   12.7508(17)
_cell_angle_alpha                94.475(2)
_cell_angle_beta                 96.731(2)
_cell_angle_gamma                106.684(2)
_cell_volume                     1348.4
loop_
_atom_site_label
_atom_site_type_symbol
_atom_site_fract_x
_atom_site_fract_y
_atom_site_fract_z
Cu1 Cu 0.0000 0.5000 0.5000
Cu2 Cu 0.09263(5) 0.78273(5) 0.82891(5)
O1 O 0.3449(4) 0.4545(4) 0.6578(3)
O2 O -0.2190(3) 0.0081(3) 0.8473(2)
O3 O 0.1724(3) 0.4123(3) 0.5250(3)
O4 O -0.1582(3) 0.1790(3) 0.9722(3)
O5 O 0.0427(3) 0.5767(3) 0.6674(2)
O6 O -0.0274(3) -0.0841(3) 0.6628(3)
O7 O 0.0537(3) -0.0509(3) 0.8365(2)
O8 O 0.1275(3) 0.6114(3) 0.8388(2)
N1 N -0.6435(4) 0.1316(3) 1.0306(3)
H1 H -0.6779 0.0726 1.0716
N2 N -0.0993(4) 0.6840(3) 0.8453(3)
N3 N 0.1410(4) 0.6570(3) 0.4737(3)
N4 N -0.4846(4) 0.4164(4) 0.8406(3)
H2 H -0.5456 0.4231 0.7888
N5 N 0.7281(4) 1.1406(3) 0.2271(3)
N6 N 0.3938(4) 1.0002(3) 0.3901(3)
H3 H 0.3688 1.0661 0.4160
C1 C 0.0629(4) 0.3950(4) 0.7543(4)
C2 C -0.3334(5) 0.5894(4) 0.7705(4)
H4 H -0.4060 0.5876 0.7167
C3 C 0.2405(5) 0.6527(5) 0.4172(4)
H5 H 0.2498 0.5702 0.3958
C4 C 0.0790(4) 0.5370(4) 0.7518(4)
C5 C -0.2073(5) 0.6778(5) 0.7739(4)
H6 H -0.1961 0.7379 0.7228
C6 C 0.0099(4) -0.0158(4) 0.7494(4)
C7 C -0.3550(4) 0.5019(4) 0.8462(4)
C8 C -0.0220(4) 0.3237(4) 0.8189(4)
H7 H -0.0663 0.3669 0.8640
C9 C 0.6584(5) 1.2155(4) 0.2703(4)
H8 H 0.6880 1.3058 0.2646
C10 C -0.6696(4) 0.2879(4) 0.9177(4)
H9 H -0.7278 0.3306 0.8829
C11 C -0.5314(5) 0.3217(4) 0.9056(4)
C12 C 0.6788(5) 1.0137(4) 0.2365(4)
H10 H 0.7236 0.9576 0.2061
C13 C -0.5113(5) 0.1614(4) 1.0179(4)
H11 H -0.4561 0.1165 1.0537
C14 C 0.5485(5) 1.1692(4) 0.3213(4)
H12 H 0.5039 1.2270 0.3494
C15 C 0.1302(4) 0.7732(4) 0.5037(4)
H13 H 0.0613 0.7785 0.5457
C16 C 0.1276(4) 0.3313(4) 0.6883(4)
C17 C -0.7212(5) 0.1931(4) 0.9799(3)
H14 H -0.8155 0.1708 0.9868
C18 C -0.4522(5) 0.2529(4) 0.9562(4)
H15 H -0.3587 0.2694 0.9479
C19 C 0.1052(4) 0.1987(4) 0.6881(3)
H16 H 0.1492 0.1559 0.6424
C20 C 0.5006(4) 1.0362(4) 0.3326(4)
C21 C 0.2133(4) 0.8858(4) 0.4772(4)
H17 H 0.2008 0.9665 0.5001
C22 C 0.2228(5) 0.4055(4) 0.6179(4)
C23 C -0.0444(4) 0.1910(4) 0.8198(3)
C24 C -0.1466(4) 0.1230(4) 0.8881(4)
C25 C 0.0203(4) 0.1269(4) 0.7527(3)
C26 C 0.5688(5) 0.9582(4) 0.2865(4)
H18 H 0.5400 0.8673 0.2894
C27 C -0.2442(4) 0.5117(4) 0.9241(4)
H19 H -0.2538 0.4570 0.9792
C28 C 0.3172(4) 0.8819(4) 0.4159(4)
C29 C 0.3309(5) 0.7606(4) 0.3878(4)
H20 H 0.4016 0.7519 0.3490
C30 C -0.1215(5) 0.6014(4) 0.9196(4)
H21 H -0.0468 0.6059 0.9725
Cu2A Cu -0.09263(5) 0.21727(5) 0.17109(5)
O1A O -0.3449(4) 0.5455(4) 0.3422(3)
O2A O 0.2190(3) 0.9919(3) 0.1527(2)
O3A O -0.1724(3) 0.5877(3) 0.4750(3)
O4A O 0.1582(3) 0.8210(3) 0.0278(3)
O5A O -0.0427(3) 0.4233(3) 0.3326(2)
O6A O 0.0274(3) 1.0841(3) 0.3372(3)
O7A O -0.0537(3) 1.0509(3) 0.1635(2)
O8A O -0.1275(3) 0.3886(3) 0.1612(2)
N1A N 0.6435(4) 0.8684(3) -0.0306(3)
H1A H 0.6779 0.9274 -0.0716
N2A N 0.0993(4) 0.3160(3) 0.1547(3)
N3A N -0.1410(4) 0.3430(3) 0.5263(3)
N4A N 0.4846(4) 0.5836(4) 0.1594(3)
H2A H 0.5456 0.5769 0.2112
N5A N -0.7281(4) -0.1406(3) 0.7729(3)
N6A N -0.3938(4) -0.0002(3) 0.6099(3)
H3A H -0.3688 -0.0661 0.5840
C1A C -0.0629(4) 0.6050(4) 0.2457(4)
C2A C 0.3334(5) 0.4106(4) 0.2295(4)
H4A H 0.4060 0.4124 0.2833
C3A C -0.2405(5) 0.3473(5) 0.5828(4)
H5A H -0.2498 0.4298 0.6042
C4A C -0.0790(4) 0.4630(4) 0.2482(4)
C5A C 0.2073(5) 0.3222(5) 0.2261(4)
H6A H 0.1961 0.2621 0.2772
C6A C -0.0099(4) 1.0158(4) 0.2506(4)
C7A C 0.3550(4) 0.4981(4) 0.1538(4)
C8A C 0.0220(4) 0.6763(4) 0.1811(4)
H7A H 0.0663 0.6331 0.1360
C9A C -0.6584(5) -0.2155(4) 0.7297(4)
H8A H -0.6880 -0.3058 0.7354
C10A C 0.6696(4) 0.7121(4) 0.0823(4)
H9A H 0.7278 0.6694 0.1171
C11A C 0.5314(5) 0.6783(4) 0.0944(4)
C12A C -0.6788(5) -0.0137(4) 0.7635(4)
H10A H -0.7236 0.0424 0.7939
C13A C 0.5113(5) 0.8386(4) -0.0179(4)
H11A H 0.4561 0.8835 -0.0537
C14A C -0.5485(5) -0.1692(4) 0.6787(4)
H12A H -0.5039 -0.2270 0.6506
C15A C -0.1302(4) 0.2268(4) 0.4963(4)
H13A H -0.0613 0.2215 0.4543
C16A C -0.1276(4) 0.6687(4) 0.3117(4)
C17A C 0.7212(5) 0.8069(4) 0.0201(3)
H14A H 0.8155 0.8292 0.0132
C18A C 0.4522(5) 0.7471(4) 0.0438(4)
H15A H 0.3587 0.7306 0.0521
C19A C -0.1052(4) 0.8013(4) 0.3119(3)
H16A H -0.1492 0.8441 0.3576
C20A C -0.5006(4) -0.0362(4) 0.6674(4)
C21A C -0.2133(4) 0.1142(4) 0.5228(4)
H17A H -0.2008 0.0335 0.4999
C22A C -0.2228(5) 0.5945(4) 0.3821(4)
C23A C 0.0444(4) 0.8090(4) 0.1802(3)
C24A C 0.1466(4) 0.8770(4) 0.1119(4)
C25A C -0.0203(4) 0.8731(4) 0.2473(3)
C26A C -0.5688(5) 0.0418(4) 0.7135(4)
H18A H -0.5400 0.1327 0.7106
C27A C 0.2442(4) 0.4883(4) 0.0759(4)
H19A H 0.2538 0.5430 0.0208
C28A C -0.3172(4) 0.1181(4) 0.5841(4)
C29A C -0.3309(5) 0.2394(4) 0.6122(4)
H20A H -0.4016 0.2481 0.6510
C30A C 0.1215(5) 0.3986(4) 0.0804(4)
H21A H 0.0468 0.3941 0.0275
Cu2_2 Cu -0.90737(5) -0.21727(5) 0.82891(5)
Cu2_3 Cu 0.09263(5) -0.21727(5) 0.82891(5)
Cu2_4 Cu 0.09263(5) 0.78273(5) -0.17109(5)
Cu2A_2 Cu -0.09263(5) 0.21727(5) 1.17109(5)
Cu2A_3 Cu -0.09263(5) 1.21727(5) 0.17109(5)
Cu2A_4 Cu 0.90737(5) 1.21727(5) 0.17109(5)
O4_2 O -0.1582(3) 0.1790(3) -0.0278(3)
O4A_2 O 0.1582(3) 0.8210(3) 1.0278(3)
O7_2 O 0.0537(3) 0.9491(3) 0.8365(2)
O7A_2 O -0.0537(3) 0.0509(3) 0.1635(2)
N5_2 N -0.2719(4) 0.1406(3) 0.2271(3)
N5A_2 N 0.2719(4) 0.8594(3) 0.7729(3)
O9 O 0.2843(4) 1.1920(3) 0.4636(3)
H22 H 0.3163 1.2753 0.4817
H23 H 0.2041 1.1737 0.4255
O10 O 0.4818(9) 0.4313(7) 0.4901(8)
H24 H 0.5480 0.4857 0.4660
H25 H 0.4644 0.4680 0.5478
O10A O 0.5182(9) 0.5687(7) 0.5099(8)
H24A H 0.4520 0.5143 0.5340
H25A H 0.5356 0.5320 0.4522
loop_
_geom_bond_atom_site_label_1
_geom_bond_atom_site_label_2
_geom_bond_site_symmetry_1
_geom_bond_site_symmetry_2
Cu1 O3 1_555 1_555
Cu2 O8 1_555 1_555
O1 C22 1_555 1_555
O2 C24 1_555 1_555
O3 C22 1_555 1_555
O4 C24 1_555 1_555
O5 Cu1 1_555 1_555
O6 C6 1_555 1_555
O7 C6 1_555 1_555
O8 C4 1_555 1_555
N1 H1 1_555 1_555
N2 Cu2 1_555 1_555
N3 Cu1 1_555 1_555
N4 H2 1_555 1_555
N5 C9 1_555 1_555
N6 H3 1_555 1_555
C1 C4 1_555 1_555
C2 H4 1_555 1_555
C3 N3 1_555 1_555
H5 C3 1_555 1_555
C4 O5 1_555 1_555
C5 N2 1_555 1_555
H6 C5 1_555 1_555
C6 C25 1_555 1_555
C7 N4 1_555 1_555
C8 C1 1_555 1_555
H7 C8 1_555 1_555
C9 H8 1_555 1_555
C10 H9 1_555 1_555
C11 N4 1_555 1_555
C12 N5 1_555 1_555
H10 C12 1_555 1_555
C13 N1 1_555 1_555
H11 C13 1_555 1_555
C14 C9 1_555 1_555
H12 C14 1_555 1_555
C15 N3 1_555 1_555
H13 C15 1_555 1_555
C16 C1 1_555 1_555
C17 N1 1_555 1_555
H14 C17 1_555 1_555
C18 C11 1_555 1_555
H15 C18 1_555 1_555
C19 C16 1_555 1_555
H16 C19 1_555 1_555
C20 N6 1_555 1_555
C21 C15 1_555 1_555
H17 C21 1_555 1_555
C22 C16 1_555 1_555
C23 C8 1_555 1_555
C24 C23 1_555 1_555
C25 C19 1_555 1_555
C26 C12 1_555 1_555
H18 C26 1_555 1_555
C27 C7 1_555 1_555
H19 C27 1_555 1_555
C28 N6 1_555 1_555
C29 C3 1_555 1_555
H20 C29 1_555 1_555
C30 N2 1_555 1_555
H21 C30 1_555 1_555
O9 H22 1_555 1_555
H23 O9 1_555 1_555
O10 H24 1_555 1_555
H25 O10 1_555 1_555
Cu2A O8A 1_555 1_555
O1A C22A 1_555 1_555
O2A C24A 1_555 1_555
O3A Cu1 1_555 1_555
O4A C24A 1_555 1_555
O5A Cu1 1_555 1_555
O6A C6A 1_555 1_555
O7A C6A 1_555 1_555
O8A C4A 1_555 1_555
N1A H1A 1_555 1_555
N2A Cu2A 1_555 1_555
N3A Cu1 1_555 1_555
N4A H2A 1_555 1_555
N5A C9A 1_555 1_555
N6A H3A 1_555 1_555
C1A C4A 1_555 1_555
C2A H4A 1_555 1_555
C3A N3A 1_555 1_555
H5A C3A 1_555 1_555
C4A O5A 1_555 1_555
C5A N2A 1_555 1_555
H6A C5A 1_555 1_555
C6A C25A 1_555 1_555
C7A N4A 1_555 1_555
C8A C1A 1_555 1_555
H7A C8A 1_555 1_555
C9A H8A 1_555 1_555
C10A H9A 1_555 1_555
C11A N4A 1_555 1_555
C12A N5A 1_555 1_555
H10A C12A 1_555 1_555
C13A N1A 1_555 1_555
H11A C13A 1_555 1_555
C14A C9A 1_555 1_555
H12A C14A 1_555 1_555
C15A N3A 1_555 1_555
H13A C15A 1_555 1_555
C16A C1A 1_555 1_555
C17A N1A 1_555 1_555
H14A C17A 1_555 1_555
C18A C11A 1_555 1_555
H15A C18A 1_555 1_555
C19A C16A 1_555 1_555
H16A C19A 1_555 1_555
C20A N6A 1_555 1_555
C21A C15A 1_555 1_555
H17A C21A 1_555 1_555
C22A O3A 1_555 1_555
C23A C8A 1_555 1_555
C24A C23A 1_555 1_555
C25A C19A 1_555 1_555
C26A C12A 1_555 1_555
H18A C26A 1_555 1_555
C27A C7A 1_555 1_555
H19A C27A 1_555 1_555
C28A N6A 1_555 1_555
C29A C3A 1_555 1_555
H20A C29A 1_555 1_555
C30A N2A 1_555 1_555
H21A C30A 1_555 1_555
Cu2_2 N5A 1_555 1_555
Cu2_3 O7 1_555 1_555
Cu2_4 O4A 1_555 1_555
Cu2A_2 O4 1_555 1_555
Cu2A_3 O7A 1_555 1_555
Cu2A_4 N5 1_555 1_555
O4_2 Cu2A 1_555 1_555
O4A_2 Cu2 1_555 1_555
O7_2 Cu2 1_555 1_555
O7A_2 Cu2A 1_555 1_555
N5_2 Cu2A 1_555 1_555
N5A_2 Cu2 1_555 1_555
O10A H24A 1_555 1_555
H25A O10A 1_555 1_555
C2 C5 1_555 1_555
C2 C7 1_555 1_555
C10 C11 1_555 1_555
C10 C17 1_555 1_555
C13 C18 1_555 1_555
C14 C20 1_555 1_555
C20 C26 1_555 1_555
C21 C28 1_555 1_555
C23 C25 1_555 1_555
C27 C30 1_555 1_555
C28 C29 1_555 1_555
C2A C5A 1_555 1_555
C2A C7A 1_555 1_555
C10A C11A 1_555 1_555
C10A C17A 1_555 1_555
C13A C18A 1_555 1_555
C14A C20A 1_555 1_555
C16A C22A 1_555 1_555
C20A C26A 1_555 1_555
C21A C28A 1_555 1_555
C23A C25A 1_555 1_555
C27A C30A 1_555 1_555
C28A C29A 1_555 1_555

#END
