
#######################################################################
#
#                 Cambridge Crystallographic Data Centre
#                                CCDC 
#
#######################################################################
#
# If this CIF has been generated from an entry in the Cambridge 
# Structural Database, then it will include bibliographic, chemical, 
# crystal, experimental, refinement or atomic coordinate data resulting 
# from the CCDC's data processing and validation procedures.
#
#######################################################################

data_GUCJAQ
_symmetry_cell_setting           monoclinic
_symmetry_space_group_name_H-M   'C 2/c'
_symmetry_Int_Tables_number      15
_space_group_name_Hall           '-C 2yn'
loop_
_symmetry_equiv_pos_site_id
_symmetry_equiv_pos_as_xyz
1 x,y,z
2 -x,y,1/2-z
3 1/2+x,1/2+y,z
4 1/2-x,1/2+y,1/2-z
5 -x,-y,-z
6 x,-y,1/2+z
7 1/2-x,1/2-y,-z
8 1/2+x,1/2-y,1/2+z
_cell_length_a                   22.8823(6)
_cell_length_b                   18.4474(5)
_cell_length_c                   9.6823(3)
_cell_angle_alpha                90
_cell_angle_beta                 95.477(1)
_cell_angle_gamma                90
_cell_volume                     4068.42
loop_
_atom_site_label
_atom_site_type_symbol
_atom_site_fract_x
_atom_site_fract_y
_atom_site_fract_z
Zn1 Zn 0.084582(11) 0.033453(14) 0.01854(3)
P1 P 0.0000 -0.00757(5) 0.2500
O1 O 0.04195(7) 0.04290(9) 0.18154(17)
O2 O -0.03304(7) -0.05669(9) 0.14327(16)
O3 O 0.13510(7) 0.11851(9) 0.05198(18)
O4 O 0.18616(9) 0.07622(11) -0.1139(2)
O5 O 0.27764(9) 0.06813(10) 0.1300(2)
O6 O 0.35022(9) 0.09485(12) 0.0014(3)
C1 C 0.19009(10) 0.25528(14) -0.0296(3)
C2 C 0.21521(10) 0.18758(13) -0.0073(2)
C3 C 0.27596(10) 0.18255(13) 0.0245(3)
C4 C 0.17675(11) 0.12100(14) -0.0257(3)
C5 C 0.30501(12) 0.11027(15) 0.0504(3)
C6 C 0.14990(11) -0.08654(14) -0.1003(3)
C7 C 0.16711(12) -0.15619(14) -0.1214(3)
C8 C 0.15465(11) -0.21079(14) -0.0304(3)
C9 C 0.12601(14) -0.19007(15) 0.0830(3)
C10 C 0.10988(13) -0.11863(15) 0.0986(3)
C11 C 0.17034(12) -0.28750(14) -0.0522(3)
C12 C 0.20560(13) -0.30866(15) -0.1522(3)
C13 C 0.21811(13) -0.38077(16) -0.1725(3)
C14 C 0.1650(3) -0.4130(2) 0.0011(5)
C15 C 0.1504(2) -0.34211(19) 0.0271(5)
N1 N 0.12038(9) -0.06712(11) 0.0075(2)
N2 N 0.19759(13) -0.43223(13) -0.0973(3)
H1 H 0.1453 0.2582 -0.0531
H2 H 0.1597 -0.0500 -0.1644
H3 H 0.1880 -0.1674 -0.2001
H4 H 0.1172 -0.2256 0.1501
H5 H 0.0900 -0.1051 0.1792
H6 H 0.2223 -0.2721 -0.2094
H7 H 0.2427 -0.3938 -0.2451
H8 H 0.1518 -0.4514 0.0616
H9 H 0.1277 -0.3304 0.1048
H10 H 0.2057 -0.4801 -0.1122
Zn1A Zn -0.084582(11) 0.033453(14) 0.48146(3)
Zn1D Zn -0.084582(11) -0.033453(14) -0.01854(3)
Zn1E Zn 0.084582(11) -0.033453(14) 0.51854(3)
Zn1F Zn 0.415418(11) 0.466547(14) -0.01854(3)
O1A O -0.04195(7) 0.04290(9) 0.31846(17)
O2A O 0.03304(7) -0.05669(9) 0.35673(16)
O2D O 0.03304(7) 0.05669(9) -0.14327(16)
O2E O -0.03304(7) 0.05669(9) 0.64327(16)
O3F O 0.36490(7) 0.38149(9) -0.05198(18)
O3A O -0.13510(7) 0.11851(9) 0.44802(18)
O4F O 0.31384(9) 0.42378(11) 0.1139(2)
O5F O 0.22236(9) 0.43187(10) -0.1300(2)
O6F O 0.14978(9) 0.40515(12) -0.0014(3)
C1F C 0.30991(10) 0.24472(14) 0.0296(3)
C2F C 0.28479(10) 0.31242(13) 0.0073(2)
C3F C 0.22404(10) 0.31745(13) -0.0245(3)
C4F C 0.32325(11) 0.37900(14) 0.0257(3)
C5F C 0.19499(12) 0.38973(15) -0.0504(3)
C6A C -0.14990(11) -0.08654(14) 0.6003(3)
C7A C -0.16711(12) -0.15619(14) 0.6214(3)
C8A C -0.15465(11) -0.21079(14) 0.5304(3)
C9A C -0.12601(14) -0.19007(15) 0.4170(3)
C10A C -0.10988(13) -0.11863(15) 0.4014(3)
C11A C -0.17034(12) -0.28750(14) 0.5522(3)
C12A C -0.20560(13) -0.30866(15) 0.6522(3)
C13A C -0.21811(13) -0.38077(16) 0.6725(3)
C14A C -0.1650(3) -0.4130(2) 0.4989(5)
C15A C -0.1504(2) -0.34211(19) 0.4729(5)
N1A N -0.12038(9) -0.06712(11) 0.4925(2)
N2A N -0.19759(13) -0.43223(13) 0.5973(3)
H1F H 0.3547 0.2418 0.0531
H2A H -0.1597 -0.0500 0.6644
H3A H -0.1880 -0.1674 0.7001
H4A H -0.1172 -0.2256 0.3499
H5A H -0.0900 -0.1051 0.3208
H6A H -0.2223 -0.2721 0.7094
H7A H -0.2427 -0.3938 0.7451
H8A H -0.1518 -0.4514 0.4384
H9A H -0.1277 -0.3304 0.3952
H10A H -0.2057 -0.4801 0.6122
C16 C -0.0348(3) -0.2188(3) -0.1768(6)
C17 C -0.03712(18) -0.2927(2) -0.1734(5)
C18 C 0.0000 -0.3315(2) -0.2500
C19 C 0.0000 -0.4109(2) -0.2500
C20 C -0.0537(5) -0.4480(8) -0.2430(18)
C21 C -0.0512(6) -0.5232(7) -0.249(2)
N3 N 0.0000 -0.1835(3) -0.2500
N4 N 0.0000 -0.5624(4) -0.2500
H11 H -0.0637 -0.1938 -0.1182
H12 H -0.0634 -0.3186 -0.1161
H13 H 0.0000 -0.1333 -0.2500
C16A C 0.0348(3) -0.2188(3) -0.3232(6)
C17A C 0.03712(18) -0.2927(2) -0.3266(5)
C20A C 0.0537(5) -0.4480(8) -0.2570(18)
C21A C 0.0512(6) -0.5232(7) -0.251(2)
H11A H 0.0637 -0.1938 -0.3818
H12A H 0.0634 -0.3186 -0.3839
C22? C -0.0320(14) -0.4497(8) -0.163(4)
C23? C -0.0265(16) -0.5257(8) -0.161(4)
loop_
_geom_bond_atom_site_label_1
_geom_bond_atom_site_label_2
_geom_bond_site_symmetry_1
_geom_bond_site_symmetry_2
Zn1 O1 1_555 1_555
P1 O1 1_555 1_555
O2 P1 1_555 1_555
O3 Zn1 1_555 1_555
O4 C4 1_555 1_555
O5 C5 1_555 1_555
O6 C5 1_555 1_555
C1 C2 1_555 1_555
C2 C3 1_555 1_555
C3 C5 1_555 1_555
C4 O3 1_555 1_555
C6 C7 1_555 1_555
C7 C8 1_555 1_555
C8 C9 1_555 1_555
C9 C10 1_555 1_555
C10 N1 1_555 1_555
C11 C8 1_555 1_555
C12 C11 1_555 1_555
C13 C12 1_555 1_555
C14 C15 1_555 1_555
C15 C11 1_555 1_555
C16 C17 1_555 1_555
C17 C18 1_555 1_555
C18 C19 1_555 1_555
C19 C20 1_555 1_555
C20 C21 1_555 1_555
C21 N4 1_555 1_555
N1 Zn1 1_555 1_555
N2 C13 1_555 1_555
N3 C16 1_555 1_555
N4 C21A 1_555 1_555
H1 C1 1_555 1_555
H2 C6 1_555 1_555
H3 C7 1_555 1_555
H4 C9 1_555 1_555
H5 C10 1_555 1_555
H6 C12 1_555 1_555
H7 C13 1_555 1_555
H8 C14 1_555 1_555
H9 C15 1_555 1_555
H10 N2 1_555 1_555
H11 C16 1_555 1_555
H12 C17 1_555 1_555
H13 N3 1_555 1_555
Zn1A O1A 1_555 1_555
Zn1D O2 1_555 1_555
Zn1E O2A 1_555 1_555
Zn1F O3F 1_555 1_555
O1A P1 1_555 1_555
O2A P1 1_555 1_555
O2D Zn1 1_555 1_555
O2E Zn1A 1_555 1_555
O3F C4F 1_555 1_555
O3A Zn1A 1_555 1_555
O4F C4F 1_555 1_555
O5F C5F 1_555 1_555
O6F C5F 1_555 1_555
C1F C3 1_555 1_555
C2F C1F 1_555 1_555
C3F C1 1_555 1_555
C4F C2F 1_555 1_555
C5F C3F 1_555 1_555
C6A C7A 1_555 1_555
C7A C8A 1_555 1_555
C8A C9A 1_555 1_555
C9A C10A 1_555 1_555
C10A N1A 1_555 1_555
C11A C8A 1_555 1_555
C12A C11A 1_555 1_555
C13A C12A 1_555 1_555
C14A C15A 1_555 1_555
C15A C11A 1_555 1_555
C16A N3 1_555 1_555
C17A C18 1_555 1_555
C20A C19 1_555 1_555
C21A C20A 1_555 1_555
N1A Zn1A 1_555 1_555
N2A C13A 1_555 1_555
H1F C1F 1_555 1_555
H2A C6A 1_555 1_555
H3A C7A 1_555 1_555
H4A C9A 1_555 1_555
H5A C10A 1_555 1_555
H6A C12A 1_555 1_555
H7A C13A 1_555 1_555
H8A C14A 1_555 1_555
H9A C15A 1_555 1_555
H10A N2A 1_555 1_555
H11A C16A 1_555 1_555
H12A C17A 1_555 1_555
C2 C4 1_555 1_555
C6 N1 1_555 1_555
C14 N2 1_555 1_555
C2F C3F 1_555 1_555
C6A N1A 1_555 1_555
C14A N2A 1_555 1_555
C16A C17A 1_555 1_555

#END
