
#######################################################################
#
#                 Cambridge Crystallographic Data Centre
#                                CCDC 
#
#######################################################################
#
# If this CIF has been generated from an entry in the Cambridge 
# Structural Database, then it will include bibliographic, chemical, 
# crystal, experimental, refinement or atomic coordinate data resulting 
# from the CCDC's data processing and validation procedures.
#
#######################################################################

data_GUCLUN
_symmetry_cell_setting           monoclinic
_symmetry_space_group_name_H-M   'P 21/n'
_symmetry_Int_Tables_number      14
_space_group_name_Hall           '-P 2yn'
loop_
_symmetry_equiv_pos_site_id
_symmetry_equiv_pos_as_xyz
1 x,y,z
2 1/2-x,1/2+y,1/2-z
3 -x,-y,-z
4 1/2+x,1/2-y,1/2+z
_cell_length_a                   12.308(5)
_cell_length_b                   17.729(5)
_cell_length_c                   16.151(5)
_cell_angle_alpha                90
_cell_angle_beta                 98.042(5)
_cell_angle_gamma                90
_cell_volume                     3489.63
loop_
_atom_site_label
_atom_site_type_symbol
_atom_site_fract_x
_atom_site_fract_y
_atom_site_fract_z
Sm1 Sm 0.95123(3) 0.150776(18) 0.74273(2)
C1 C 0.6696(6) -0.0668(4) 0.6071(4)
H1 H 0.6199 -0.1030 0.5838
C2 C 0.6812(5) 0.1818(4) 0.6341(4)
H2 H 0.6719 0.1362 0.6607
C3 C 0.6832(6) -0.0522(4) 0.6909(4)
H3 H 0.6413 -0.0781 0.7252
N1 N 0.8211(4) 0.0409(3) 0.6794(3)
O1 O 0.7885(4) 0.1547(3) 0.8231(3)
O2 O 0.9008(4) 0.2472(3) 0.8463(3)
N2 N 0.9738(4) 0.2899(3) 0.6868(3)
N3 N 0.9514(4) 0.1212(3) 0.5858(3)
N4 N 0.6594(4) -0.0846(3) 0.4155(3)
C4 C 0.6998(5) 0.3189(3) 0.5624(4)
N5 N 0.7754(5) -0.0238(3) 0.3434(3)
O3 O 0.7436(5) 0.2536(3) 0.8908(4)
N6 N 0.7777(4) 0.2169(3) 0.6518(3)
C5 C 0.8804(5) 0.0681(3) 0.5461(4)
C6 C 0.6024(6) 0.2776(4) 0.5422(4)
H4 H 0.5447 0.2966 0.5046
C7 C 0.7599(6) 0.0015(4) 0.7253(4)
H5 H 0.7682 0.0099 0.7826
C8 C 1.0167(5) 0.1574(4) 0.5415(4)
H6 H 1.0630 0.1939 0.5686
C9 C 0.9506(6) 0.0929(4) 0.4158(4)
H7 H 0.9507 0.0838 0.3591
C10 C 0.8110(5) 0.0269(3) 0.5950(4)
C11 C 0.6919(5) -0.0746(3) 0.3422(4)
N7 N 0.8094(5) 0.2198(4) 0.8547(4)
C12 C 0.7332(5) -0.0254(3) 0.5571(4)
C13 C 0.8786(5) 0.0539(3) 0.4597(4)
C14 C 0.9065(5) 0.3979(3) 0.6039(4)
C15 C 0.8912(5) 0.3245(3) 0.6358(4)
C16 C 0.7994(5) -0.0004(3) 0.4242(4)
C17 C 1.0215(6) 0.1451(4) 0.4567(4)
H8 H 1.0711 0.1712 0.4289
C18 C 0.7880(5) 0.2854(3) 0.6164(4)
C19 C 1.0674(6) 0.3270(4) 0.7067(5)
H9 H 1.1227 0.3038 0.7429
C20 C 0.7278(5) -0.0371(3) 0.4679(4)
C21 C 0.5945(6) 0.2089(4) 0.5788(5)
H10 H 0.5308 0.1804 0.5666
C22 C 1.0079(5) 0.4342(4) 0.6244(4)
H11 H 1.0201 0.4815 0.6027
C23 C 1.0885(6) 0.3987(4) 0.6768(5)
H12 H 1.1561 0.4217 0.6924
N8 N 0.6483(4) 0.4412(3) 0.4859(3)
H13 H 0.5814 0.4324 0.4650
N9 N 0.8080(5) 0.5028(3) 0.5164(3)
C24 C 0.7164(5) 0.3936(3) 0.5345(4)
C25 C 0.7060(6) 0.5053(3) 0.4765(4)
C26 C 0.8146(5) 0.4323(3) 0.5526(4)
C27 C 0.6403(5) -0.1091(3) 0.2617(4)
C28 C 0.6607(5) 0.5711(4) 0.4273(4)
C29 C 0.6970(5) -0.1450(3) 0.2033(4)
C30 C 0.8177(5) -0.1618(3) 0.2212(4)
C31 C 0.5783(5) 0.5664(3) 0.3562(4)
C32 C 0.5296(5) 0.4933(3) 0.3220(4)
C33 C 0.7072(6) 0.6417(4) 0.4491(5)
H14 H 0.7600 0.6461 0.4961
C34 C 0.5269(5) -0.1007(4) 0.2429(4)
H15 H 0.4880 -0.0774 0.2812
C35 C 0.5260(6) -0.1608(4) 0.1099(4)
H16 H 0.4882 -0.1777 0.0594
C36 C 0.5483(6) 0.6315(3) 0.3116(4)
H17 H 0.4946 0.6284 0.2651
C37 C 0.6398(6) -0.1697(4) 0.1279(4)
H18 H 0.6778 -0.1925 0.0888
C38 C 0.6750(7) 0.7059(4) 0.4012(5)
H19 H 0.7082 0.7521 0.4156
C39 C 0.4713(6) -0.1268(4) 0.1677(5)
H20 H 0.3956 -0.1211 0.1565
C40 C 0.5951(7) 0.7010(4) 0.3333(5)
H21 H 0.5725 0.7438 0.3022
O4 O 0.8627(3) -0.1646(2) 0.2970(3)
O5 O 0.5507(4) 0.4758(2) 0.2492(3)
O6 O 0.4705(4) 0.4528(2) 0.3605(3)
O7 O 0.8724(4) -0.1731(2) 0.1620(3)
H22 H 0.814(4) -0.014(3) 0.304(3)
Sm1B Sm 1.04877(3) -0.150776(18) 0.25727(2)
Sm1C Sm 0.45123(3) 0.349224(18) 0.24273(2)
O4B O 1.1373(3) 0.1646(2) 0.7030(3)
O5C O 1.0507(4) 0.0242(2) 0.7492(3)
O6C O 0.9705(4) 0.0472(2) 0.8605(3)
O7B O 1.1276(4) 0.1731(2) 0.8380(3)
loop_
_geom_bond_atom_site_label_1
_geom_bond_atom_site_label_2
_geom_bond_site_symmetry_1
_geom_bond_site_symmetry_2
Sm1 N1 1_555 1_555
C1 H1 1_555 1_555
C2 H2 1_555 1_555
C3 C1 1_555 1_555
H3 C3 1_555 1_555
N1 C7 1_555 1_555
O1 Sm1 1_555 1_555
O2 Sm1 1_555 1_555
N2 Sm1 1_555 1_555
N3 Sm1 1_555 1_555
N4 C11 1_555 1_555
C4 C6 1_555 1_555
N5 C11 1_555 1_555
O3 N7 1_555 1_555
N6 Sm1 1_555 1_555
C5 N3 1_555 1_555
C6 H4 1_555 1_555
C7 C3 1_555 1_555
H5 C7 1_555 1_555
C8 N3 1_555 1_555
H6 C8 1_555 1_555
C9 H7 1_555 1_555
C10 N1 1_555 1_555
C11 C27 1_555 1_555
N7 O1 1_555 1_555
C12 C1 1_555 1_555
C13 C5 1_555 1_555
C14 C15 1_555 1_555
C15 N2 1_555 1_555
C16 N5 1_555 1_555
C17 C8 1_555 1_555
H8 C17 1_555 1_555
C18 C4 1_555 1_555
C19 N2 1_555 1_555
H9 C19 1_555 1_555
C20 N4 1_555 1_555
C21 C2 1_555 1_555
H10 C21 1_555 1_555
C22 C14 1_555 1_555
H11 C22 1_555 1_555
C23 C19 1_555 1_555
H12 C23 1_555 1_555
N8 H13 1_555 1_555
N9 C25 1_555 1_555
C24 C4 1_555 1_555
C25 N8 1_555 1_555
C26 C14 1_555 1_555
C27 C29 1_555 1_555
C28 C25 1_555 1_555
C29 C30 1_555 1_555
C30 O4 1_555 1_555
C31 C28 1_555 1_555
C32 C31 1_555 1_555
C33 C28 1_555 1_555
H14 C33 1_555 1_555
C34 C27 1_555 1_555
H15 C34 1_555 1_555
C35 H16 1_555 1_555
C36 C31 1_555 1_555
H17 C36 1_555 1_555
C37 C29 1_555 1_555
H18 C37 1_555 1_555
C38 C33 1_555 1_555
H19 C38 1_555 1_555
C39 C34 1_555 1_555
H20 C39 1_555 1_555
C40 C36 1_555 1_555
H21 C40 1_555 1_555
O4 Sm1B 1_555 1_555
O5 C32 1_555 1_555
O6 C32 1_555 1_555
O7 C30 1_555 1_555
H22 N5 1_555 1_555
Sm1B O7 1_555 1_555
Sm1C O5 1_555 1_555
O4B Sm1 1_555 1_555
O5C Sm1 1_555 1_555
O6C Sm1 1_555 1_555
O7B Sm1 1_555 1_555
C2 N6 1_555 1_555
O2 N7 1_555 1_555
N6 C18 1_555 1_555
C5 C10 1_555 1_555
C6 C21 1_555 1_555
C9 C13 1_555 1_555
C9 C17 1_555 1_555
C10 C12 1_555 1_555
C12 C20 1_555 1_555
C13 C16 1_555 1_555
C15 C18 1_555 1_555
C16 C20 1_555 1_555
C22 C23 1_555 1_555
N8 C24 1_555 1_555
N9 C26 1_555 1_555
C24 C26 1_555 1_555
C35 C37 1_555 1_555
C35 C39 1_555 1_555
C38 C40 1_555 1_555
O6 Sm1C 1_555 1_555

#END
