
#######################################################################
#
#                 Cambridge Crystallographic Data Centre
#                                CCDC 
#
#######################################################################
#
# If this CIF has been generated from an entry in the Cambridge 
# Structural Database, then it will include bibliographic, chemical, 
# crystal, experimental, refinement or atomic coordinate data resulting 
# from the CCDC's data processing and validation procedures.
#
#######################################################################

data_GUCLOH
_symmetry_cell_setting           monoclinic
_symmetry_space_group_name_H-M   'P 21/n'
_symmetry_Int_Tables_number      14
_space_group_name_Hall           '-P 2yn'
loop_
_symmetry_equiv_pos_site_id
_symmetry_equiv_pos_as_xyz
1 x,y,z
2 1/2-x,1/2+y,1/2-z
3 -x,-y,-z
4 1/2+x,1/2-y,1/2+z
_cell_length_a                   12.286(3)
_cell_length_b                   17.634(4)
_cell_length_c                   16.052(3)
_cell_angle_alpha                90
_cell_angle_beta                 97.85(3)
_cell_angle_gamma                90
_cell_volume                     3445.1
loop_
_atom_site_label
_atom_site_type_symbol
_atom_site_fract_x
_atom_site_fract_y
_atom_site_fract_z
Eu1 Eu 0.45224(5) 0.34961(3) 0.74409(3)
C1 C 0.5693(10) 0.1741(6) 0.7087(8)
H1 H 0.6237 0.1976 0.7458
C2 C 0.5911(9) 0.1015(6) 0.6785(8)
H2 H 0.6586 0.0781 0.6944
C3 C 0.5107(9) 0.0664(7) 0.6255(7)
H3 H 0.5235 0.0191 0.6033
C4 C 0.4088(8) 0.1019(6) 0.6044(6)
C5 C 0.3160(9) 0.0678(6) 0.5539(7)
C6 C 0.2204(10) 0.1057(7) 0.5352(7)
C7 C 0.2018(9) 0.1817(6) 0.5646(7)
C8 C 0.1030(9) 0.2229(6) 0.5448(7)
H4 H 0.0450 0.2032 0.5078
C9 C 0.0944(10) 0.2924(7) 0.5810(7)
H5 H 0.0310 0.3214 0.5682
C10 C 0.1822(9) 0.3191(7) 0.6376(7)
H6 H 0.1727 0.3646 0.6649
C11 C 0.2896(9) 0.2153(6) 0.6168(6)
C12 C 0.3938(9) 0.1752(6) 0.6372(6)
C13 C 0.2070(10) -0.0059(6) 0.4763(7)
C14 C 0.1610(9) -0.0719(6) 0.4277(7)
C15 C 0.2093(9) -0.1434(6) 0.4492(8)
H7 H 0.2632 -0.1475 0.4956
C16 C 0.1771(10) -0.2073(6) 0.4017(8)
H8 H 0.2108 -0.2536 0.4159
C17 C 0.0953(10) -0.2028(7) 0.3336(7)
H9 H 0.0717 -0.2460 0.3031
C18 C 0.0485(10) -0.1318(6) 0.3113(8)
H10 H -0.0043 -0.1281 0.2641
C19 C 0.0787(9) -0.0672(6) 0.3575(7)
C20 C 0.0289(9) 0.0062(6) 0.3214(7)
C21 C 0.2612(9) 0.4994(7) 0.7284(7)
H11 H 0.2695 0.4907 0.7861
C22 C 0.1847(9) 0.5547(6) 0.6948(7)
H12 H 0.1444 0.5824 0.7294
C23 C 0.1713(9) 0.5665(6) 0.6089(8)
H13 H 0.1202 0.6019 0.5849
C24 C 0.2340(9) 0.5258(6) 0.5579(6)
C25 C 0.2265(9) 0.5372(6) 0.4694(7)
C26 C 0.2999(9) 0.4989(6) 0.4252(6)
C27 C 0.3783(8) 0.4450(6) 0.4608(6)
C28 C 0.4502(9) 0.4060(6) 0.4167(7)
H14 H 0.4500 0.4157 0.3597
C29 C 0.5218(9) 0.3532(6) 0.4562(6)
H15 H 0.5701 0.3265 0.4272
C30 C 0.5187(9) 0.3413(6) 0.5421(7)
H16 H 0.5664 0.3054 0.5693
C31 C 0.3806(8) 0.4309(6) 0.5483(6)
C32 C 0.3114(9) 0.4729(6) 0.5982(7)
C33 C 0.1917(9) 0.5740(6) 0.3404(7)
C34 C 0.1387(8) 0.6082(6) 0.2605(6)
C35 C 0.0260(8) 0.6006(6) 0.2424(7)
H17 H -0.0126 0.5775 0.2814
C36 C -0.0314(9) 0.6269(6) 0.1668(7)
H18 H -0.1074 0.6221 0.1564
C37 C 0.0240(9) 0.6592(7) 0.1087(7)
H19 H -0.0134 0.6746 0.0572
C38 C 0.1396(9) 0.6694(6) 0.1267(7)
H20 H 0.1768 0.6936 0.0875
C39 C 0.1974(8) 0.6442(6) 0.2007(7)
C40 C 0.3154(10) 0.6613(6) 0.2185(8)
O1 O -0.0287(6) 0.0489(4) 0.3623(4)
O2 O 0.0496(6) 0.0236(4) 0.2498(4)
O3 O 0.3746(6) 0.6729(4) 0.1595(4)
O4 O 0.3626(6) 0.6648(4) 0.2954(4)
O5 O 0.2913(6) 0.3456(4) 0.8244(5)
O6 O 0.4036(7) 0.2529(5) 0.8472(5)
O7 O 0.2428(7) 0.2460(5) 0.8920(5)
N1 N 0.4754(7) 0.2109(5) 0.6872(6)
N2 N 0.2808(7) 0.2835(5) 0.6556(5)
N3 N 0.1486(8) 0.0582(5) 0.4863(6)
H21 H 0.0813 0.0673 0.4664
N4 N 0.3097(8) -0.0039(5) 0.5173(6)
N5 N 0.3229(7) 0.4586(5) 0.6818(5)
N6 N 0.4520(7) 0.3780(5) 0.5881(6)
N7 N 0.1592(7) 0.5837(5) 0.4147(5)
N8 N 0.2757(7) 0.5222(5) 0.3433(5)
H22 H 0.3072 0.5072 0.3015
N9 N 0.3089(9) 0.2796(6) 0.8554(6)
Eu1B Eu 0.54776(5) 0.65039(3) 0.25591(3)
Eu1C Eu -0.04776(5) 0.15039(3) 0.24409(3)
O1C O 0.4713(6) 0.4511(4) 0.8623(4)
O2C O 0.5496(6) 0.4764(4) 0.7498(4)
O3B O 0.6254(6) 0.3271(4) 0.8405(4)
O4B O 0.6374(6) 0.3352(4) 0.7046(4)
loop_
_geom_bond_atom_site_label_1
_geom_bond_atom_site_label_2
_geom_bond_site_symmetry_1
_geom_bond_site_symmetry_2
Eu1 O5 1_555 1_555
C1 H1 1_555 1_555
C2 C1 1_555 1_555
H2 C2 1_555 1_555
C3 C2 1_555 1_555
H3 C3 1_555 1_555
C4 C3 1_555 1_555
C5 C4 1_555 1_555
C6 C5 1_555 1_555
C7 C6 1_555 1_555
C8 C7 1_555 1_555
H4 C8 1_555 1_555
C9 C8 1_555 1_555
H5 C9 1_555 1_555
C10 C9 1_555 1_555
H6 C10 1_555 1_555
C11 C7 1_555 1_555
C12 C4 1_555 1_555
C13 C14 1_555 1_555
C14 C15 1_555 1_555
C15 H7 1_555 1_555
C16 C15 1_555 1_555
H8 C16 1_555 1_555
C17 C16 1_555 1_555
H9 C17 1_555 1_555
C18 C17 1_555 1_555
H10 C18 1_555 1_555
C19 C14 1_555 1_555
C20 C19 1_555 1_555
C21 H11 1_555 1_555
C22 C21 1_555 1_555
H12 C22 1_555 1_555
C23 C22 1_555 1_555
H13 C23 1_555 1_555
C24 C23 1_555 1_555
C25 C24 1_555 1_555
C26 C25 1_555 1_555
C27 C26 1_555 1_555
C28 C27 1_555 1_555
H14 C28 1_555 1_555
C29 C28 1_555 1_555
H15 C29 1_555 1_555
C30 C29 1_555 1_555
H16 C30 1_555 1_555
C31 C27 1_555 1_555
C32 C24 1_555 1_555
C33 C34 1_555 1_555
C34 C35 1_555 1_555
C35 H17 1_555 1_555
C36 C35 1_555 1_555
H18 C36 1_555 1_555
C37 C36 1_555 1_555
H19 C37 1_555 1_555
C38 C37 1_555 1_555
H20 C38 1_555 1_555
C39 C34 1_555 1_555
C40 C39 1_555 1_555
O1 C20 1_555 1_555
O2 C20 1_555 1_555
O3 C40 1_555 1_555
O4 C40 1_555 1_555
O5 N9 1_555 1_555
O6 Eu1 1_555 1_555
O7 N9 1_555 1_555
N1 Eu1 1_555 1_555
N2 Eu1 1_555 1_555
N3 C6 1_555 1_555
H21 N3 1_555 1_555
N4 C5 1_555 1_555
N5 Eu1 1_555 1_555
N6 Eu1 1_555 1_555
N7 C25 1_555 1_555
N8 C26 1_555 1_555
H22 N8 1_555 1_555
N9 O6 1_555 1_555
Eu1B O3 1_555 1_555
Eu1C O1 1_555 1_555
O1C Eu1 1_555 1_555
O2C Eu1 1_555 1_555
O3B Eu1 1_555 1_555
O4B Eu1 1_555 1_555
C1 N1 1_555 1_555
C10 N2 1_555 1_555
C11 C12 1_555 1_555
C11 N2 1_555 1_555
C12 N1 1_555 1_555
C13 N3 1_555 1_555
C13 N4 1_555 1_555
C18 C19 1_555 1_555
C21 N5 1_555 1_555
C30 N6 1_555 1_555
C31 C32 1_555 1_555
C31 N6 1_555 1_555
C32 N5 1_555 1_555
C33 N7 1_555 1_555
C33 N8 1_555 1_555
C38 C39 1_555 1_555
O2 Eu1C 1_555 1_555
O4 Eu1B 1_555 1_555

#END
