
#######################################################################
#
#                 Cambridge Crystallographic Data Centre
#                                CCDC 
#
#######################################################################
#
# If this CIF has been generated from an entry in the Cambridge 
# Structural Database, then it will include bibliographic, chemical, 
# crystal, experimental, refinement or atomic coordinate data resulting 
# from the CCDC's data processing and validation procedures.
#
#######################################################################

data_GUCLEX
_symmetry_cell_setting           orthorhombic
_symmetry_space_group_name_H-M   'P b c a'
_symmetry_Int_Tables_number      61
_space_group_name_Hall           '-P 2ac 2ab'
loop_
_symmetry_equiv_pos_site_id
_symmetry_equiv_pos_as_xyz
1 x,y,z
2 1/2-x,-y,1/2+z
3 -x,1/2+y,1/2-z
4 1/2+x,1/2-y,-z
5 -x,-y,-z
6 1/2+x,y,1/2-z
7 x,1/2-y,1/2+z
8 1/2-x,1/2+y,z
_cell_length_a                   15.0789(15)
_cell_length_b                   9.2997(9)
_cell_length_c                   20.287(2)
_cell_angle_alpha                90
_cell_angle_beta                 90
_cell_angle_gamma                90
_cell_volume                     2844.83
loop_
_atom_site_label
_atom_site_type_symbol
_atom_site_fract_x
_atom_site_fract_y
_atom_site_fract_z
Tb1 Tb 0.127070(12) 0.516844(19) 0.011490(10)
O1 O 0.12354(18) 0.2675(3) 0.05495(15)
O2 O 0.05392(18) 0.5442(3) 0.11336(15)
O3 O 0.2365(2) 0.5863(4) 0.09065(19)
C1 C 0.0416(3) 0.2497(4) 0.0428(2)
C2 C -0.0038(3) 0.1192(5) 0.0660(2)
C3 C 0.0417(3) 0.0074(5) 0.0933(2)
H1 H 0.1039 0.0072 0.1009
C4 C -0.0343(3) 0.6332(5) 0.1996(2)
O4 O -0.2320(2) 0.5562(5) 0.17798(19)
H2 H -0.1889 0.5475 0.1521
C5 C -0.0234(3) 0.5647(5) 0.1344(2)
C6 C -0.1130(3) 0.6681(5) 0.2377(2)
C7 C 0.0335(3) 0.6976(5) 0.2321(2)
H3 H 0.0939 0.6924 0.2189
C8 C -0.2059(3) 0.6233(7) 0.2322(3)
O5 O 0.0041(2) 0.7705(4) 0.28595(17)
C9 C -0.0853(3) 0.7510(6) 0.2879(3)
H4 H -0.1232 0.7909 0.3205
O6 O -0.0132(2) -0.1036(3) 0.10810(17)
O7 O -0.2596(2) 0.6450(6) 0.27633(18)
O8 O 0.00038(18) 0.3459(3) 0.01012(15)
C10 C -0.0955(3) 0.0725(5) 0.0636(2)
C11 C -0.1780(3) 0.1432(4) 0.0401(2)
C12 C -0.0964(3) -0.0612(5) 0.0897(2)
H5 H -0.1482 -0.1183 0.0946
O9 O -0.24480(19) 0.0624(3) 0.03362(16)
O10 O -0.17983(19) 0.2753(3) 0.02934(17)
O11 O -0.09361(19) 0.5365(3) 0.10183(16)
H6 H 0.273(4) 0.641(6) 0.080(3)
H7 H 0.233(5) 0.601(8) 0.135(4)
Tb1C Tb -0.372930(12) -0.016844(19) -0.011490(10)
Tb1D Tb -0.127070(12) 0.483156(19) -0.011490(10)
O8D O -0.00038(18) 0.6541(3) -0.01012(15)
O9C O 0.25520(19) 0.4376(3) -0.03362(16)
O10D O 0.17983(19) 0.7247(3) -0.02934(17)
O11D O 0.09361(19) 0.4635(3) -0.10183(16)
loop_
_geom_bond_atom_site_label_1
_geom_bond_atom_site_label_2
_geom_bond_site_symmetry_1
_geom_bond_site_symmetry_2
Tb1 O1 1_555 1_555
O1 C1 1_555 1_555
O2 Tb1 1_555 1_555
O3 Tb1 1_555 1_555
C1 C2 1_555 1_555
C2 C3 1_555 1_555
C3 H1 1_555 1_555
C4 C5 1_555 1_555
O4 H2 1_555 1_555
C5 O2 1_555 1_555
C6 C4 1_555 1_555
C7 C4 1_555 1_555
H3 C7 1_555 1_555
C8 O4 1_555 1_555
O5 C7 1_555 1_555
C9 C6 1_555 1_555
H4 C9 1_555 1_555
O6 C3 1_555 1_555
O7 C8 1_555 1_555
O8 Tb1 1_555 1_555
C10 C2 1_555 1_555
C11 C10 1_555 1_555
C12 O6 1_555 1_555
H5 C12 1_555 1_555
O9 C11 1_555 1_555
O10 C11 1_555 1_555
O11 C5 1_555 1_555
H6 O3 1_555 1_555
H7 O3 1_555 1_555
Tb1C O9 1_555 1_555
Tb1D O8 1_555 1_555
O8D Tb1 1_555 1_555
O9C Tb1 1_555 1_555
O10D Tb1 1_555 1_555
O11D Tb1 1_555 1_555
C1 O8 1_555 1_555
C6 C8 1_555 1_555
O5 C9 1_555 1_555
C10 C12 1_555 1_555
O10 Tb1D 1_555 1_555
O11 Tb1D 1_555 1_555
Tb1D O8D 1_555 1_555

#END
