
#######################################################################
#
#                 Cambridge Crystallographic Data Centre
#                                CCDC 
#
#######################################################################
#
# If this CIF has been generated from an entry in the Cambridge 
# Structural Database, then it will include bibliographic, chemical, 
# crystal, experimental, refinement or atomic coordinate data resulting 
# from the CCDC's data processing and validation procedures.
#
#######################################################################

data_GUCLIB
_symmetry_cell_setting           orthorhombic
_symmetry_space_group_name_H-M   'P b c a'
_symmetry_Int_Tables_number      61
_space_group_name_Hall           '-P 2ac 2ab'
loop_
_symmetry_equiv_pos_site_id
_symmetry_equiv_pos_as_xyz
1 x,y,z
2 1/2+x,1/2-y,-z
3 -x,1/2+y,1/2-z
4 1/2-x,-y,1/2+z
5 -x,-y,-z
6 1/2-x,1/2+y,z
7 x,1/2-y,1/2+z
8 1/2+x,y,1/2-z
_cell_length_a                   15.122(2)
_cell_length_b                   9.3656(14)
_cell_length_c                   20.290(3)
_cell_angle_alpha                90
_cell_angle_beta                 90
_cell_angle_gamma                90
_cell_volume                     2873.6
loop_
_atom_site_label
_atom_site_type_symbol
_atom_site_fract_x
_atom_site_fract_y
_atom_site_fract_z
Eu1 Eu 0.872259(9) -0.018655(15) -0.011823(8)
O1 O 0.87654(13) 0.2311(2) -0.05521(11)
O2 O 0.99931(13) 0.1555(2) -0.01017(10)
O3 O 0.90498(15) 0.0387(3) 0.10244(11)
O4 O 1.05217(14) 0.0447(2) 0.11440(11)
O5 O 1.00219(16) 0.2733(3) 0.28598(12)
O6 O 1.01131(15) 0.6009(2) -0.10845(13)
O7 O 1.24114(15) 0.4403(2) -0.03182(12)
O8 O 1.17911(14) 0.2272(2) -0.03125(13)
O9 O 0.76455(17) -0.0955(3) -0.09223(13)
C1 C 0.95808(19) 0.2498(3) -0.04333(15)
C2 C 0.9753(2) 0.0669(3) 0.13507(16)
C3 C 0.9643(2) 0.1361(3) 0.19979(16)
C4 C 0.8855(2) 0.1722(4) 0.23749(17)
C5 C 0.7922(2) 0.1294(5) 0.23120(19)
O10 O 0.73886(18) 0.1540(4) 0.27506(13)
O11 O 0.76679(17) 0.0630(4) 0.17751(14)
H1 H 0.8090 0.0544 0.1525
C6 C 0.9133(2) 0.2546(4) 0.28756(18)
H2 H 0.8762 0.2939 0.3193
C7 C 1.0321(2) 0.1986(4) 0.23278(17)
H3 H 1.0913 0.1915 0.2207
C8 C 1.00233(19) 0.3804(3) -0.06623(15)
C9 C 0.9567(2) 0.4905(4) -0.09399(18)
H4 H 0.8962 0.4899 -0.1020
C10 C 1.0938(2) 0.5603(4) -0.08988(17)
H5 H 1.1440 0.6167 -0.0946
C11 C 1.0936(2) 0.4274(3) -0.06364(15)
C12 C 1.1762(2) 0.3587(3) -0.04012(16)
H6 H 0.766(3) -0.107(5) -0.135(2)
H7 H 0.715(3) -0.154(5) -0.079(2)
Eu1A Eu 1.372259(9) 0.518655(15) 0.011823(8)
Eu1D Eu 1.127741(9) 0.018655(15) 0.011823(8)
O2D O 1.00069(13) -0.1555(2) 0.01017(10)
O4D O 0.94783(14) -0.0447(2) -0.11440(11)
O7A O 0.74114(15) 0.0597(2) 0.03182(12)
O8D O 0.82089(14) -0.2272(2) 0.03125(13)
loop_
_geom_bond_atom_site_label_1
_geom_bond_atom_site_label_2
_geom_bond_site_symmetry_1
_geom_bond_site_symmetry_2
Eu1 O1 1_555 1_555
O1 C1 1_555 1_555
O2 Eu1 1_555 1_555
O3 Eu1 1_555 1_555
O4 C2 1_555 1_555
O5 C6 1_555 1_555
O6 C9 1_555 1_555
O7 C12 1_555 1_555
O8 C12 1_555 1_555
O9 Eu1 1_555 1_555
C1 O2 1_555 1_555
C2 O3 1_555 1_555
C3 C2 1_555 1_555
C4 C3 1_555 1_555
C5 C4 1_555 1_555
O10 C5 1_555 1_555
O11 C5 1_555 1_555
H1 O11 1_555 1_555
C6 C4 1_555 1_555
H2 C6 1_555 1_555
C7 O5 1_555 1_555
H3 C7 1_555 1_555
C8 C1 1_555 1_555
C9 C8 1_555 1_555
H4 C9 1_555 1_555
C10 O6 1_555 1_555
H5 C10 1_555 1_555
C11 C8 1_555 1_555
C12 C11 1_555 1_555
H6 O9 1_555 1_555
H7 O9 1_555 1_555
Eu1A O7 1_555 1_555
Eu1D O2 1_555 1_555
O2D Eu1 1_555 1_555
O4D Eu1 1_555 1_555
O7A Eu1 1_555 1_555
O8D Eu1 1_555 1_555
O4 Eu1D 1_555 1_555
O8 Eu1D 1_555 1_555
C3 C7 1_555 1_555
C10 C11 1_555 1_555
Eu1D O2D 1_555 1_555

#END
