
#######################################################################
#
#                 Cambridge Crystallographic Data Centre
#                                CCDC 
#
#######################################################################
#
# If this CIF has been generated from an entry in the Cambridge 
# Structural Database, then it will include bibliographic, chemical, 
# crystal, experimental, refinement or atomic coordinate data resulting 
# from the CCDC's data processing and validation procedures.
#
#######################################################################

data_GUCMEY
_symmetry_cell_setting           monoclinic
_symmetry_space_group_name_H-M   'P 21/n'
_symmetry_Int_Tables_number      14
_space_group_name_Hall           '-P 2yn'
loop_
_symmetry_equiv_pos_site_id
_symmetry_equiv_pos_as_xyz
1 x,y,z
2 1/2-x,1/2+y,1/2-z
3 -x,-y,-z
4 1/2+x,1/2-y,1/2+z
_cell_length_a                   12.3102(17)
_cell_length_b                   17.633(2)
_cell_length_c                   15.978(2)
_cell_angle_alpha                90
_cell_angle_beta                 97.623(3)
_cell_angle_gamma                90
_cell_volume                     3437.63
loop_
_atom_site_label
_atom_site_type_symbol
_atom_site_fract_x
_atom_site_fract_y
_atom_site_fract_z
Nd1 Nd 0.45333(3) 0.15062(2) 0.74564(3)
C1 C 0.3813(5) 0.0676(4) 0.5470(5)
C2 C 0.4506(5) 0.0918(3) 0.4147(5)
H1 H 0.4504 0.0825 0.3574
C3 C 0.1942(5) -0.1442(4) 0.2011(4)
C4 C 0.1684(6) -0.0665(4) 0.6080(5)
H2 H 0.1167 -0.1017 0.5850
C5 C 0.2264(5) -0.0365(3) 0.4681(5)
C6 C 0.1832(6) -0.0523(4) 0.6928(5)
H3 H 0.1418 -0.0786 0.7278
C7 C 0.5216(5) 0.1431(4) 0.4558(5)
H4 H 0.5706 0.1693 0.4269
N1 N 0.4527(4) 0.1193(3) 0.5862(4)
N2 N 0.1502(4) 0.4427(3) 0.4874(4)
H5 H 0.0832 0.4338 0.4669
C8 C 0.0248(5) -0.1002(4) 0.2436(5)
H6 H -0.0139 -0.0774 0.2830
C9 C 0.4088(5) 0.3998(3) 0.6040(4)
N3 N 0.3229(4) 0.0400(3) 0.6803(4)
N4 N 0.4761(4) 0.2899(3) 0.6866(4)
N5 N 0.2744(4) -0.0232(3) 0.3430(4)
H7 H 0.3065 -0.0094 0.3009
C10 C 0.0965(6) 0.2097(4) 0.5812(5)
H8 H 0.0324 0.1814 0.5699
N6 N 0.2804(4) 0.2179(3) 0.6532(4)
C11 C 0.1897(5) -0.0735(4) 0.3408(5)
N7 N 0.1584(4) -0.0833(3) 0.4151(4)
C12 C 0.1837(6) 0.1819(4) 0.6361(5)
H9 H 0.1750 0.1358 0.6627
C13 C 0.5195(5) 0.1557(4) 0.5410(5)
H10 H 0.5673 0.1916 0.5680
C14 C 0.2983(5) 0.0009(3) 0.4234(5)
C15 C 0.3099(5) 0.0255(3) 0.5959(4)
C16 C 0.3782(5) 0.0532(4) 0.4603(4)
C17 C 0.2600(6) 0.0013(4) 0.7274(5)
H11 H 0.2676 0.0103 0.7852
C18 C 0.1371(6) -0.1698(4) 0.1264(4)
H12 H 0.1745 -0.1934 0.0867
C19 C 0.2026(6) 0.3199(4) 0.5647(5)
C20 C 0.1044(6) 0.2778(4) 0.5441(5)
H13 H 0.0471 0.2967 0.5060
C21 C 0.2320(5) -0.0273(3) 0.5569(5)
C22 C 0.1379(5) -0.1076(3) 0.2613(5)
C23 C 0.3951(5) 0.3258(3) 0.6357(4)
C24 C 0.2199(6) 0.3943(4) 0.5360(5)
C25 C 0.0250(6) -0.1607(4) 0.1098(5)
H14 H -0.0125 -0.1780 0.0590
C26 C 0.3161(6) 0.4332(4) 0.5532(4)
C27 C -0.0313(6) -0.1263(4) 0.1681(5)
H15 H -0.1069 -0.1205 0.1570
N8 N 0.3092(5) 0.5046(3) 0.5170(4)
C28 C 0.1618(6) 0.5741(4) 0.4285(5)
C29 C 0.2900(6) 0.2860(4) 0.6173(4)
C30 C 0.5109(5) 0.4348(4) 0.6235(5)
H16 H 0.5239 0.4819 0.6007
C31 C 0.2079(6) 0.5080(4) 0.4781(5)
C32 C 0.5702(6) 0.3277(4) 0.7063(5)
H17 H 0.6256 0.3046 0.7428
C33 C 0.5904(6) 0.3997(4) 0.6755(5)
H18 H 0.6578 0.4231 0.6908
C34 C 0.0808(5) 0.5684(4) 0.3581(5)
C35 C 0.0476(6) 0.6345(3) 0.3124(5)
H19 H -0.0076 0.6320 0.2667
C36 C 0.1765(6) 0.7090(4) 0.4034(5)
H20 H 0.2080 0.7558 0.4182
C37 C 0.2098(6) 0.6447(4) 0.4503(5)
H21 H 0.2642 0.6486 0.4963
C38 C 0.0970(7) 0.7026(4) 0.3352(5)
H22 H 0.0758 0.7456 0.3035
O1 O 0.0526(4) 0.4768(2) 0.2514(3)
O2 O 0.3589(4) -0.1646(2) 0.2955(3)
O3 O 0.3697(4) -0.1728(2) 0.1591(3)
O4 O -0.0290(4) 0.4541(2) 0.3627(3)
C39 C 0.3162(6) -0.1615(4) 0.2199(5)
C40 C 0.0309(6) 0.4952(4) 0.3230(5)
O5 O 0.2893(4) 0.1559(3) 0.8274(3)
O6 O 0.4018(4) 0.2509(3) 0.8494(4)
O7 O 0.2412(4) 0.2569(3) 0.8921(4)
N9 N 0.3095(5) 0.2221(3) 0.8573(4)
Nd1B Nd 0.54667(3) -0.15062(2) 0.25436(3)
Nd1C Nd -0.04667(3) 0.34938(2) 0.24564(3)
O1C O 0.5526(4) 0.0232(2) 0.7514(3)
O2B O 0.6411(4) 0.1646(2) 0.7045(3)
O3B O 0.6303(4) 0.1728(2) 0.8409(3)
O4C O 0.4710(4) 0.0459(2) 0.8627(3)
loop_
_geom_bond_atom_site_label_1
_geom_bond_atom_site_label_2
_geom_bond_site_symmetry_1
_geom_bond_site_symmetry_2
Nd1 N1 1_555 1_555
C1 N1 1_555 1_555
C2 H1 1_555 1_555
C3 C18 1_555 1_555
C4 H2 1_555 1_555
C5 N7 1_555 1_555
C6 C4 1_555 1_555
H3 C6 1_555 1_555
C7 C2 1_555 1_555
H4 C7 1_555 1_555
N1 C13 1_555 1_555
N2 H5 1_555 1_555
C8 H6 1_555 1_555
C9 C23 1_555 1_555
N3 Nd1 1_555 1_555
N4 Nd1 1_555 1_555
N5 H7 1_555 1_555
C10 H8 1_555 1_555
N6 Nd1 1_555 1_555
C11 N5 1_555 1_555
N7 C11 1_555 1_555
C12 C10 1_555 1_555
H9 C12 1_555 1_555
C13 C7 1_555 1_555
H10 C13 1_555 1_555
C14 C5 1_555 1_555
C15 C1 1_555 1_555
C16 C1 1_555 1_555
C17 C6 1_555 1_555
H11 C17 1_555 1_555
C18 H12 1_555 1_555
C19 C20 1_555 1_555
C20 C10 1_555 1_555
H13 C20 1_555 1_555
C21 C4 1_555 1_555
C22 C3 1_555 1_555
C23 N4 1_555 1_555
C24 N2 1_555 1_555
C25 C18 1_555 1_555
H14 C25 1_555 1_555
C26 C9 1_555 1_555
C27 C8 1_555 1_555
H15 C27 1_555 1_555
N8 C26 1_555 1_555
C28 C31 1_555 1_555
C29 N6 1_555 1_555
C30 C9 1_555 1_555
H16 C30 1_555 1_555
C31 N2 1_555 1_555
C32 N4 1_555 1_555
H17 C32 1_555 1_555
C33 C30 1_555 1_555
H18 C33 1_555 1_555
C34 C28 1_555 1_555
C35 C34 1_555 1_555
H19 C35 1_555 1_555
C36 H20 1_555 1_555
C37 C28 1_555 1_555
H21 C37 1_555 1_555
C38 C35 1_555 1_555
H22 C38 1_555 1_555
O1 C40 1_555 1_555
O2 C39 1_555 1_555
O3 C39 1_555 1_555
O4 C40 1_555 1_555
C39 C3 1_555 1_555
C40 C34 1_555 1_555
O5 Nd1 1_555 1_555
O6 Nd1 1_555 1_555
O7 N9 1_555 1_555
N9 O5 1_555 1_555
Nd1B O2 1_555 1_555
Nd1C O1 1_555 1_555
O1C Nd1 1_555 1_555
O2B Nd1 1_555 1_555
O3B Nd1 1_555 1_555
O4C Nd1 1_555 1_555
C2 C16 1_555 1_555
C5 C21 1_555 1_555
C8 C22 1_555 1_555
N3 C15 1_555 1_555
N3 C17 1_555 1_555
N5 C14 1_555 1_555
N6 C12 1_555 1_555
C11 C22 1_555 1_555
C14 C16 1_555 1_555
C15 C21 1_555 1_555
C19 C24 1_555 1_555
C19 C29 1_555 1_555
C23 C29 1_555 1_555
C24 C26 1_555 1_555
C25 C27 1_555 1_555
N8 C31 1_555 1_555
C32 C33 1_555 1_555
C36 C37 1_555 1_555
C36 C38 1_555 1_555
O3 Nd1B 1_555 1_555
O4 Nd1C 1_555 1_555
O6 N9 1_555 1_555

#END
