
#######################################################################
#
#                 Cambridge Crystallographic Data Centre
#                                CCDC 
#
#######################################################################
#
# If this CIF has been generated from an entry in the Cambridge 
# Structural Database, then it will include bibliographic, chemical, 
# crystal, experimental, refinement or atomic coordinate data resulting 
# from the CCDC's data processing and validation procedures.
#
#######################################################################

data_GUCROM
_symmetry_cell_setting           monoclinic
_symmetry_space_group_name_H-M   'P 21/n'
_symmetry_Int_Tables_number      14
_space_group_name_Hall           '-P 2yn'
loop_
_symmetry_equiv_pos_site_id
_symmetry_equiv_pos_as_xyz
1 x,y,z
2 1/2-x,1/2+y,1/2-z
3 -x,-y,-z
4 1/2+x,1/2-y,1/2+z
_cell_length_a                   12.913(3)
_cell_length_b                   13.519(3)
_cell_length_c                   25.206(5)
_cell_angle_alpha                90
_cell_angle_beta                 92.80(3)
_cell_angle_gamma                90
_cell_volume                     4394.98
loop_
_atom_site_label
_atom_site_type_symbol
_atom_site_fract_x
_atom_site_fract_y
_atom_site_fract_z
Zn1 Zn -0.11978(4) 0.39459(4) 0.60885(2)
K1 K -0.08436(11) 0.32457(11) 0.74981(5)
N1 N -0.1850(3) 0.2818(3) 0.64251(16)
N2 N -0.1832(3) 0.4769(3) 0.66235(15)
N3 N -0.0302(3) 0.4074(3) 0.55373(15)
C1 C -0.2604(4) 0.3215(4) 0.67546(19)
H1 H -0.3217 0.2823 0.6832
C2 C -0.2586(4) 0.4189(4) 0.68572(19)
H2 H -0.3160 0.4502 0.7034
C3 C -0.2098(4) 0.1899(4) 0.6186(2)
C4 C -0.3002(5) 0.1787(4) 0.5848(2)
C5 C -0.3250(5) 0.0856(5) 0.5634(2)
H3 H -0.3849 0.0778 0.5418
C6 C -0.2618(6) 0.0062(5) 0.5738(3)
H4 H -0.2799 -0.0556 0.5601
C7 C -0.1717(5) 0.0173(5) 0.6045(3)
H5 H -0.1280 -0.0367 0.6099
C8 C -0.1444(4) 0.1074(5) 0.6275(2)
C9 C -0.3698(5) 0.2652(4) 0.5687(2)
H6 H -0.3456 0.3217 0.5904
C10 C -0.4836(5) 0.2508(6) 0.5798(3)
H7 H -0.4896 0.2333 0.6165
H8 H -0.5122 0.1989 0.5576
H9 H -0.5208 0.3111 0.5724
C11 C -0.3555(5) 0.2942(5) 0.5106(3)
H10 H -0.2834 0.3057 0.5055
H11 H -0.3942 0.3534 0.5024
H12 H -0.3801 0.2416 0.4877
C12 C -0.0485(4) 0.1137(4) 0.6643(2)
H13 H -0.0319 0.1841 0.6684
C13 C -0.0720(5) 0.0756(5) 0.7190(3)
H14 H -0.1328 0.1080 0.7309
H15 H -0.0143 0.0891 0.7434
H16 H -0.0839 0.0055 0.7173
C14 C 0.0470(5) 0.0643(5) 0.6447(3)
H17 H 0.1035 0.0729 0.6705
H18 H 0.0645 0.0935 0.6116
H19 H 0.0337 -0.0050 0.6396
C15 C -0.2019(4) 0.5810(4) 0.6633(2)
C16 C -0.1383(4) 0.6427(4) 0.6956(2)
C17 C -0.1581(5) 0.7435(5) 0.6966(2)
H20 H -0.1170 0.7840 0.7188
C18 C -0.2354(6) 0.7841(5) 0.6662(3)
H21 H -0.2454 0.8522 0.6665
C19 C -0.2993(6) 0.7254(5) 0.6350(3)
H22 H -0.3548 0.7538 0.6156
C20 C -0.2828(5) 0.6232(4) 0.6315(2)
C21 C -0.0535(5) 0.5973(4) 0.7304(2)
H23 H -0.0270 0.5403 0.7113
C22 C 0.0392(5) 0.6666(6) 0.7435(3)
H24 H 0.0681 0.6884 0.7111
H25 H 0.0912 0.6316 0.7646
H26 H 0.0162 0.7228 0.7630
C23 C -0.0972(5) 0.5584(4) 0.7815(2)
H27 H -0.0424 0.5293 0.8033
H28 H -0.1492 0.5094 0.7730
H29 H -0.1275 0.6120 0.8003
C24 C -0.3506(5) 0.5608(5) 0.5947(2)
H30 H -0.3236 0.4931 0.5970
C25 C -0.4632(5) 0.5569(6) 0.6103(3)
H31 H -0.4660 0.5322 0.6459
H32 H -0.5019 0.5138 0.5864
H33 H -0.4925 0.6221 0.6084
C26 C -0.3434(5) 0.5948(5) 0.5362(2)
H34 H -0.2721 0.5954 0.5271
H35 H -0.3718 0.6601 0.5322
H36 H -0.3817 0.5499 0.5132
C27 C -0.0342(3) 0.4872(4) 0.51842(19)
H37 H -0.0915 0.5284 0.5205
C28 C 0.0538(4) 0.3400(4) 0.5485(2)
C29 C 0.1424(4) 0.3507(4) 0.5830(2)
C30 C 0.2204(5) 0.2804(5) 0.5796(3)
H38 H 0.2794 0.2849 0.6022
C31 C 0.2120(5) 0.2054(5) 0.5440(3)
H39 H 0.2651 0.1591 0.5431
C32 C 0.1271(6) 0.1955(4) 0.5089(3)
H40 H 0.1241 0.1446 0.4840
C33 C 0.0464(5) 0.2626(4) 0.5114(2)
C34 C 0.1557(5) 0.4344(5) 0.6214(3)
H41 H 0.0931 0.4751 0.6171
C35 C 0.2445(7) 0.4991(7) 0.6090(3)
H42 H 0.2492 0.5529 0.6338
H43 H 0.2341 0.5248 0.5736
H44 H 0.3076 0.4614 0.6115
C36 C 0.1629(7) 0.4012(6) 0.6778(3)
H45 H 0.1041 0.3605 0.6847
H46 H 0.1639 0.4578 0.7007
H47 H 0.2254 0.3637 0.6842
C37 C -0.0478(5) 0.2517(5) 0.4728(2)
H48 H -0.0989 0.3015 0.4821
C38 C -0.0977(5) 0.1516(5) 0.4766(3)
H49 H -0.1163 0.1402 0.5125
H50 H -0.0498 0.1015 0.4665
H51 H -0.1588 0.1491 0.4534
C39 C -0.0195(5) 0.2707(5) 0.4135(3)
H52 H 0.0109 0.3352 0.4106
H53 H -0.0813 0.2670 0.3907
H54 H 0.0290 0.2216 0.4029
C40 C 0.0559(9) 0.3870(11) 0.8766(6)
H55 H 0.0655 0.3404 0.9056
H56 H -0.0144 0.4124 0.8760
C41 C 0.1327(10) 0.4685(9) 0.8815(6)
H57 H 0.1240 0.5037 0.9140
H58 H 0.1223 0.5130 0.8520
H59 H 0.2015 0.4416 0.8815
C42 C 0.1720(10) 0.2899(10) 0.8277(6)
H60 H 0.2278 0.3347 0.8196
H61 H 0.1873 0.2621 0.8627
C43 C 0.1645(10) 0.2090(10) 0.7874(5)
H62 H 0.2273 0.1708 0.7893
H63 H 0.1545 0.2371 0.7526
H64 H 0.1068 0.1669 0.7945
O1 O 0.0773(6) 0.3422(6) 0.8274(3)
Zn1B Zn 0.11978(4) 0.60541(4) 0.39115(2)
Zn1A Zn -0.38022(4) -0.10541(4) 0.89115(2)
K1A K -0.41564(11) 0.82457(11) 0.75019(5)
K1A_2 K -0.41564(11) -0.17543(11) 0.75019(5)
N1A N -0.3150(3) -0.2182(3) 0.85749(16)
N1B N 0.1850(3) 0.7182(3) 0.35749(16)
N1A_2 N -0.3150(3) 0.7818(3) 0.85749(16)
N2A N -0.3168(3) -0.0231(3) 0.83765(15)
N2B N 0.1832(3) 0.5231(3) 0.33765(15)
N2A_2 N -0.3168(3) 0.9769(3) 0.83765(15)
N3B N 0.0302(3) 0.5926(3) 0.44627(15)
C1A C -0.2396(4) -0.1785(4) 0.82454(19)
C1A_2 C -0.2396(4) 0.8215(4) 0.82454(19)
H1A H -0.1783 -0.2177 0.8168
H1A_2 H -0.1783 0.7823 0.8168
C2A C -0.2414(4) -0.0811(4) 0.81428(19)
C2A_2 C -0.2414(4) 0.9189(4) 0.81428(19)
H2A H -0.1840 -0.0498 0.7966
H2A_2 H -0.1840 0.9502 0.7966
C3A C -0.2902(4) -0.3101(4) 0.8814(2)
C4A C -0.1998(5) -0.3213(4) 0.9152(2)
C5A C -0.1750(5) -0.4144(5) 0.9366(2)
H3A H -0.1151 -0.4222 0.9582
C6A C -0.2382(6) -0.4938(5) 0.9262(3)
H4A H -0.2201 -0.5556 0.9399
C7A C -0.3283(5) -0.4827(5) 0.8955(3)
H5A H -0.3720 -0.5367 0.8901
C8A C -0.3556(4) -0.3926(5) 0.8725(2)
C9A C -0.1302(5) -0.2348(4) 0.9313(2)
H6A H -0.1544 -0.1783 0.9096
C10A C -0.0164(5) -0.2492(6) 0.9202(3)
H7A H -0.0104 -0.2667 0.8835
H8A H 0.0122 -0.3011 0.9424
H9A H 0.0208 -0.1889 0.9276
C11A C -0.1445(5) -0.2058(5) 0.9894(3)
H10A H -0.2166 -0.1943 0.9945
H11A H -0.1058 -0.1466 0.9976
H12A H -0.1199 -0.2584 1.0123
C12A C -0.4515(4) -0.3863(4) 0.8357(2)
H13A H -0.4681 -0.3159 0.8316
C13A C -0.4280(5) -0.4244(5) 0.7810(3)
H14A H -0.3672 -0.3920 0.7691
H15A H -0.4857 -0.4109 0.7566
H16A H -0.4161 -0.4945 0.7827
C14A C -0.5470(5) -0.4357(5) 0.8553(3)
H17A H -0.6035 -0.4271 0.8295
H18A H -0.5645 -0.4065 0.8884
H19A H -0.5337 -0.5050 0.8604
C15A C -0.2981(4) 0.0810(4) 0.8367(2)
C16A C -0.3617(4) 0.1427(4) 0.8044(2)
C17A C -0.3419(5) 0.2435(5) 0.8034(2)
H20A H -0.3830 0.2840 0.7812
C18A C -0.2646(6) 0.2841(5) 0.8338(3)
H21A H -0.2546 0.3522 0.8335
C19A C -0.2007(6) 0.2254(5) 0.8650(3)
H22A H -0.1452 0.2538 0.8844
C20A C -0.2172(5) 0.1232(4) 0.8685(2)
C21A C -0.4465(5) 0.0973(4) 0.7696(2)
H23A H -0.4730 0.0403 0.7887
C22A C -0.5392(5) 0.1666(6) 0.7565(3)
H24A H -0.5681 0.1884 0.7889
H25A H -0.5912 0.1316 0.7354
H26A H -0.5162 0.2228 0.7370
C23A C -0.4028(5) 0.0584(4) 0.7185(2)
H27A H -0.4576 0.0293 0.6967
H28A H -0.3508 0.0094 0.7270
H29A H -0.3725 0.1120 0.6997
C24A C -0.1494(5) 0.0608(5) 0.9053(2)
H30A H -0.1764 -0.0069 0.9030
C25A C -0.0368(5) 0.0569(6) 0.8897(3)
H31A H -0.0340 0.0322 0.8541
H32A H 0.0019 0.0138 0.9136
H33A H -0.0075 0.1221 0.8916
C26A C -0.1566(5) 0.0948(5) 0.9638(2)
H34A H -0.2279 0.0954 0.9729
H35A H -0.1282 0.1601 0.9678
H36A H -0.1183 0.0499 0.9868
C27B C 0.0342(3) 0.5128(4) 0.48158(19)
H37B H 0.0915 0.4716 0.4795
C28B C -0.0538(4) 0.6600(4) 0.4515(2)
C29B C -0.1424(4) 0.6493(4) 0.4170(2)
C30B C -0.2204(5) 0.7196(5) 0.4204(3)
H38B H -0.2794 0.7151 0.3978
C31B C -0.2120(5) 0.7946(5) 0.4560(3)
H39B H -0.2651 0.8409 0.4569
C32B C -0.1271(6) 0.8045(4) 0.4911(3)
H40B H -0.1241 0.8554 0.5160
C33B C -0.0464(5) 0.7374(4) 0.4886(2)
C34B C -0.1557(5) 0.5656(5) 0.3786(3)
H41B H -0.0931 0.5249 0.3829
C35B C -0.2445(7) 0.5009(7) 0.3910(3)
H42B H -0.2492 0.4471 0.3662
H43B H -0.2341 0.4752 0.4264
H44B H -0.3076 0.5386 0.3885
C36B C -0.1629(7) 0.5988(6) 0.3222(3)
H45B H -0.1041 0.6395 0.3153
H46B H -0.1639 0.5422 0.2993
H47B H -0.2254 0.6363 0.3158
C37B C 0.0478(5) 0.7483(5) 0.5272(2)
H48B H 0.0989 0.6985 0.5179
C38B C 0.0977(5) 0.8484(5) 0.5234(3)
H49B H 0.1163 0.8598 0.4875
H50B H 0.0498 0.8985 0.5335
H51B H 0.1588 0.8509 0.5466
C39B C 0.0195(5) 0.7293(5) 0.5865(3)
H52B H -0.0109 0.6648 0.5894
H53B H 0.0813 0.7330 0.6093
H54B H -0.0290 0.7784 0.5971
C40A C -0.5559(9) 0.8870(11) 0.6234(6)
H55A H -0.5655 0.8404 0.5944
H56A H -0.4856 0.9124 0.6240
C41A C -0.6327(10) 0.9685(9) 0.6185(6)
H57A H -0.6240 1.0037 0.5860
H58A H -0.6223 1.0130 0.6480
H59A H -0.7015 0.9416 0.6185
C42A C -0.6720(10) 0.7899(10) 0.6723(6)
H60A H -0.7278 0.8347 0.6804
H61A H -0.6873 0.7621 0.6373
C43A C -0.6645(10) 0.7090(10) 0.7126(5)
H62A H -0.7273 0.6708 0.7107
H63A H -0.6545 0.7371 0.7474
H64A H -0.6068 0.6669 0.7055
O1A O -0.5773(6) 0.8422(6) 0.6726(3)
loop_
_geom_bond_atom_site_label_1
_geom_bond_atom_site_label_2
_geom_bond_site_symmetry_1
_geom_bond_site_symmetry_2
Zn1 N1 1_555 1_555
K1 N1 1_555 1_555
N1 C1 1_555 1_555
N2 Zn1 1_555 1_555
N3 Zn1 1_555 1_555
C1 K1 1_555 1_555
H1 C1 1_555 1_555
C2 K1 1_555 1_555
H2 C2 1_555 1_555
C3 N1 1_555 1_555
C4 C3 1_555 1_555
C5 C4 1_555 1_555
H3 C5 1_555 1_555
C6 C5 1_555 1_555
H4 C6 1_555 1_555
C7 C6 1_555 1_555
H5 C7 1_555 1_555
C8 C3 1_555 1_555
C9 C4 1_555 1_555
H6 C9 1_555 1_555
C10 C9 1_555 1_555
H7 C10 1_555 1_555
H8 C10 1_555 1_555
H9 C10 1_555 1_555
C11 C9 1_555 1_555
H10 C11 1_555 1_555
H11 C11 1_555 1_555
H12 C11 1_555 1_555
C12 C8 1_555 1_555
H13 C12 1_555 1_555
C13 C12 1_555 1_555
H14 C13 1_555 1_555
H15 C13 1_555 1_555
H16 C13 1_555 1_555
C14 C12 1_555 1_555
H17 C14 1_555 1_555
H18 C14 1_555 1_555
H19 C14 1_555 1_555
C15 N2 1_555 1_555
C16 C15 1_555 1_555
C17 C16 1_555 1_555
H20 C17 1_555 1_555
C18 C17 1_555 1_555
H21 C18 1_555 1_555
C19 C18 1_555 1_555
H22 C19 1_555 1_555
C20 C15 1_555 1_555
C21 C16 1_555 1_555
H23 C21 1_555 1_555
C22 C21 1_555 1_555
H24 C22 1_555 1_555
H25 C22 1_555 1_555
H26 C22 1_555 1_555
C23 C21 1_555 1_555
H27 C23 1_555 1_555
H28 C23 1_555 1_555
H29 C23 1_555 1_555
C24 C20 1_555 1_555
H30 C24 1_555 1_555
C25 C24 1_555 1_555
H31 C25 1_555 1_555
H32 C25 1_555 1_555
H33 C25 1_555 1_555
C26 C24 1_555 1_555
H34 C26 1_555 1_555
H35 C26 1_555 1_555
H36 C26 1_555 1_555
C27 N3 1_555 1_555
H37 C27 1_555 1_555
C28 N3 1_555 1_555
C29 C28 1_555 1_555
C30 C29 1_555 1_555
H38 C30 1_555 1_555
C31 C30 1_555 1_555
H39 C31 1_555 1_555
C32 C31 1_555 1_555
H40 C32 1_555 1_555
C33 C28 1_555 1_555
C34 C29 1_555 1_555
H41 C34 1_555 1_555
C35 C34 1_555 1_555
H42 C35 1_555 1_555
H43 C35 1_555 1_555
H44 C35 1_555 1_555
C36 C34 1_555 1_555
H45 C36 1_555 1_555
H46 C36 1_555 1_555
H47 C36 1_555 1_555
C37 C33 1_555 1_555
H48 C37 1_555 1_555
C38 C37 1_555 1_555
H49 C38 1_555 1_555
H50 C38 1_555 1_555
H51 C38 1_555 1_555
C39 C37 1_555 1_555
H52 C39 1_555 1_555
H53 C39 1_555 1_555
H54 C39 1_555 1_555
C40 H55 1_555 1_555
H56 C40 1_555 1_555
C41 C40 1_555 1_555
H57 C41 1_555 1_555
H58 C41 1_555 1_555
H59 C41 1_555 1_555
C42 H60 1_555 1_555
H61 C42 1_555 1_555
C43 C42 1_555 1_555
H62 C43 1_555 1_555
H63 C43 1_555 1_555
H64 C43 1_555 1_555
O1 K1 1_555 1_555
Zn1B N1B 1_555 1_555
Zn1A N1A 1_555 1_555
K1A C18 1_555 1_555
K1A_2 N1A 1_555 1_555
N1A C1A 1_555 1_555
N1A_2 K1A 1_555 1_555
N2A Zn1A 1_555 1_555
N2B Zn1B 1_555 1_555
N2A_2 K1A 1_555 1_555
N3B Zn1B 1_555 1_555
C1A K1A_2 1_555 1_555
C1A_2 K1A 1_555 1_555
H1A C1A 1_555 1_555
H1A_2 C1A_2 1_555 1_555
C2A K1A_2 1_555 1_555
C2A_2 K1A 1_555 1_555
H2A C2A 1_555 1_555
H2A_2 C2A_2 1_555 1_555
C3A N1A 1_555 1_555
C4A C3A 1_555 1_555
C5A C4A 1_555 1_555
H3A C5A 1_555 1_555
C6A C5A 1_555 1_555
H4A C6A 1_555 1_555
C7A C6A 1_555 1_555
H5A C7A 1_555 1_555
C8A C3A 1_555 1_555
C9A C4A 1_555 1_555
H6A C9A 1_555 1_555
C10A C9A 1_555 1_555
H7A C10A 1_555 1_555
H8A C10A 1_555 1_555
H9A C10A 1_555 1_555
C11A C9A 1_555 1_555
H10A C11A 1_555 1_555
H11A C11A 1_555 1_555
H12A C11A 1_555 1_555
C12A C8A 1_555 1_555
H13A C12A 1_555 1_555
C13A C12A 1_555 1_555
H14A C13A 1_555 1_555
H15A C13A 1_555 1_555
H16A C13A 1_555 1_555
C14A C12A 1_555 1_555
H17A C14A 1_555 1_555
H18A C14A 1_555 1_555
H19A C14A 1_555 1_555
C15A N2A 1_555 1_555
C16A C15A 1_555 1_555
C17A C16A 1_555 1_555
H20A C17A 1_555 1_555
C18A K1 1_555 1_555
H21A C18A 1_555 1_555
C19A C18A 1_555 1_555
H22A C19A 1_555 1_555
C20A C15A 1_555 1_555
C21A C16A 1_555 1_555
H23A C21A 1_555 1_555
C22A C21A 1_555 1_555
H24A C22A 1_555 1_555
H25A C22A 1_555 1_555
H26A C22A 1_555 1_555
C23A C21A 1_555 1_555
H27A C23A 1_555 1_555
H28A C23A 1_555 1_555
H29A C23A 1_555 1_555
C24A C20A 1_555 1_555
H30A C24A 1_555 1_555
C25A C24A 1_555 1_555
H31A C25A 1_555 1_555
H32A C25A 1_555 1_555
H33A C25A 1_555 1_555
C26A C24A 1_555 1_555
H34A C26A 1_555 1_555
H35A C26A 1_555 1_555
H36A C26A 1_555 1_555
C27B C27 1_555 1_555
H37B C27B 1_555 1_555
C28B N3B 1_555 1_555
C29B C28B 1_555 1_555
C30B C29B 1_555 1_555
H38B C30B 1_555 1_555
C31B C30B 1_555 1_555
H39B C31B 1_555 1_555
C32B C31B 1_555 1_555
H40B C32B 1_555 1_555
C33B C28B 1_555 1_555
C34B C29B 1_555 1_555
H41B C34B 1_555 1_555
C35B C34B 1_555 1_555
H42B C35B 1_555 1_555
H43B C35B 1_555 1_555
H44B C35B 1_555 1_555
C36B C34B 1_555 1_555
H45B C36B 1_555 1_555
H46B C36B 1_555 1_555
H47B C36B 1_555 1_555
C37B C33B 1_555 1_555
H48B C37B 1_555 1_555
C38B C37B 1_555 1_555
H49B C38B 1_555 1_555
H50B C38B 1_555 1_555
H51B C38B 1_555 1_555
C39B C37B 1_555 1_555
H52B C39B 1_555 1_555
H53B C39B 1_555 1_555
H54B C39B 1_555 1_555
C40A H55A 1_555 1_555
H56A C40A 1_555 1_555
C41A C40A 1_555 1_555
H57A C41A 1_555 1_555
H58A C41A 1_555 1_555
H59A C41A 1_555 1_555
C42A H60A 1_555 1_555
H61A C42A 1_555 1_555
C43A C42A 1_555 1_555
H62A C43A 1_555 1_555
H63A C43A 1_555 1_555
H64A C43A 1_555 1_555
O1A K1A 1_555 1_555
K1 N2 1_555 1_555
N2 C2 1_555 1_555
C1 C2 1_555 1_555
C7 C8 1_555 1_555
C19 C20 1_555 1_555
C32 C33 1_555 1_555
C40 O1 1_555 1_555
C42 O1 1_555 1_555
K1A_2 N2A 1_555 1_555
N1A_2 C1A_2 1_555 1_555
N2A C2A 1_555 1_555
N2A_2 C2A_2 1_555 1_555
N3B C27B 1_555 1_555
C1A C2A 1_555 1_555
C1A_2 C2A_2 1_555 1_555
C7A C8A 1_555 1_555
C17A C18A 1_555 1_555
C19A C20A 1_555 1_555
C32B C33B 1_555 1_555
C40A O1A 1_555 1_555
C42A O1A 1_555 1_555

#END
