
#######################################################################
#
#                 Cambridge Crystallographic Data Centre
#                                CCDC 
#
#######################################################################
#
# If this CIF has been generated from an entry in the Cambridge 
# Structural Database, then it will include bibliographic, chemical, 
# crystal, experimental, refinement or atomic coordinate data resulting 
# from the CCDC's data processing and validation procedures.
#
#######################################################################

data_GUCTUU02
_symmetry_cell_setting           monoclinic
_symmetry_space_group_name_H-M   'P 21/c'
_symmetry_Int_Tables_number      14
_space_group_name_Hall           '-P 2ybc'
loop_
_symmetry_equiv_pos_site_id
_symmetry_equiv_pos_as_xyz
1 x,y,z
2 -x,1/2+y,1/2-z
3 -x,-y,-z
4 x,1/2-y,1/2+z
_cell_length_a                   10.935(2)
_cell_length_b                   7.0319(14)
_cell_length_c                   19.761(4)
_cell_angle_alpha                90
_cell_angle_beta                 99.459(3)
_cell_angle_gamma                90
_cell_volume                     1498.84
loop_
_atom_site_label
_atom_site_type_symbol
_atom_site_fract_x
_atom_site_fract_y
_atom_site_fract_z
Mn1 Mn 0.34889(2) 0.17597(4) 0.174803(13)
N1 N 0.17013(12) 0.3337(2) 0.17673(7)
N2 N 0.24822(13) 0.1871(2) 0.06445(7)
N3 N -0.17881(13) 0.2813(2) -0.05990(7)
N4 N -0.24344(13) 0.3975(2) 0.03318(8)
O1 O 0.24066(14) -0.0851(2) 0.18059(7)
H1 H 0.2688 -0.1437 0.2156
O2 O 0.51245(12) 0.02368(19) 0.15085(8)
H2 H 0.5185 -0.0794 0.1705
O3 O 0.39422(12) 0.16181(17) 0.28534(6)
O4 O 0.55931(11) -0.05537(19) 0.32728(7)
O5 O 0.42390(13) 0.0620(2) 0.40256(7)
O6 O 0.34682(11) -0.16311(18) 0.31341(7)
S1 S 0.43131(3) -0.00031(6) 0.33283(2)
C1 C 0.13706(16) 0.4162(3) 0.23136(9)
H3 H 0.1962 0.4279 0.2707
C2 C 0.01824(17) 0.4863(3) 0.23272(9)
H4 H -0.0006 0.5451 0.2719
C3 C -0.07065(16) 0.4670(2) 0.17521(9)
H5 H -0.1510 0.5101 0.1753
C4 C -0.03857(14) 0.3815(2) 0.11618(8)
C5 C 0.08518(14) 0.3187(2) 0.11858(8)
C6 C 0.12700(14) 0.2398(2) 0.05787(8)
C7 C 0.04498(15) 0.2250(2) -0.00491(8)
C8 C 0.09235(17) 0.1552(2) -0.06224(9)
H6 H 0.0409 0.1419 -0.1044
C9 C 0.21554(18) 0.1071(3) -0.05512(9)
H7 H 0.2489 0.0639 -0.0927
C10 C 0.29029(17) 0.1238(3) 0.00910(9)
H8 H 0.3733 0.0890 0.0134
C11 C -0.08077(15) 0.2834(2) -0.00574(8)
C12 C -0.11985(14) 0.3559(2) 0.05231(8)
C13 C -0.27354(16) 0.3500(3) -0.03356(9)
H9 H -0.3528 0.3641 -0.0586
H10 H -0.295(2) 0.442(4) 0.0562(14)
H11 H 0.569(2) 0.105(3) 0.1646(14)
H12 H 0.226(3) -0.160(4) 0.1466(12)
Mn1A Mn 0.65111(2) -0.32403(4) 0.325197(13)
O4A O 0.44069(11) 0.44463(19) 0.17272(7)
loop_
_geom_bond_atom_site_label_1
_geom_bond_atom_site_label_2
_geom_bond_site_symmetry_1
_geom_bond_site_symmetry_2
Mn1 N1 1_555 1_555
N1 C1 1_555 1_555
N2 Mn1 1_555 1_555
N3 C11 1_555 1_555
N4 C12 1_555 1_555
O1 Mn1 1_555 1_555
H1 O1 1_555 1_555
O2 Mn1 1_555 1_555
H2 O2 1_555 1_555
O3 Mn1 1_555 1_555
O4 S1 1_555 1_555
O5 S1 1_555 1_555
O6 S1 1_555 1_555
S1 O3 1_555 1_555
C1 H3 1_555 1_555
C2 C1 1_555 1_555
H4 C2 1_555 1_555
C3 C2 1_555 1_555
H5 C3 1_555 1_555
C4 C3 1_555 1_555
C5 N1 1_555 1_555
C6 N2 1_555 1_555
C7 C6 1_555 1_555
C8 C7 1_555 1_555
H6 C8 1_555 1_555
C9 C8 1_555 1_555
H7 C9 1_555 1_555
C10 N2 1_555 1_555
H8 C10 1_555 1_555
C11 C7 1_555 1_555
C12 C4 1_555 1_555
C13 N3 1_555 1_555
H9 C13 1_555 1_555
H10 N4 1_555 1_555
H11 O2 1_555 1_555
H12 O1 1_555 1_555
Mn1A O4 1_555 1_555
O4A Mn1 1_555 1_555
N4 C13 1_555 1_555
C4 C5 1_555 1_555
C5 C6 1_555 1_555
C9 C10 1_555 1_555
C11 C12 1_555 1_555

#END
