
#######################################################################
#
#                 Cambridge Crystallographic Data Centre
#                                CCDC 
#
#######################################################################
#
# If this CIF has been generated from an entry in the Cambridge 
# Structural Database, then it will include bibliographic, chemical, 
# crystal, experimental, refinement or atomic coordinate data resulting 
# from the CCDC's data processing and validation procedures.
#
#######################################################################

data_GUCTOO
_symmetry_cell_setting           monoclinic
_symmetry_space_group_name_H-M   'P 21/c'
_symmetry_Int_Tables_number      14
_space_group_name_Hall           '-P 2ybc'
loop_
_symmetry_equiv_pos_site_id
_symmetry_equiv_pos_as_xyz
1 x,y,z
2 -x,1/2+y,1/2-z
3 -x,-y,-z
4 x,1/2-y,1/2+z
_cell_length_a                   10.731(3)
_cell_length_b                   6.9651(18)
_cell_length_c                   19.709(5)
_cell_angle_alpha                90
_cell_angle_beta                 99.721(4)
_cell_angle_gamma                90
_cell_volume                     1451.95
loop_
_atom_site_label
_atom_site_type_symbol
_atom_site_fract_x
_atom_site_fract_y
_atom_site_fract_z
Zn1 Zn 0.84554(4) 0.82754(6) 0.175368(19)
S1 S 1.06619(8) 0.50505(12) 0.16983(4)
O1 O 0.7377(2) 1.0832(4) 0.18036(12)
H1 H 0.7718 1.1466 0.2134
H2 H 0.7085 1.1504 0.1471
O2 O 0.9365(2) 0.5605(4) 0.17552(13)
O3 O 1.0050(2) 0.9757(3) 0.15490(12)
H3 H 1.0650 0.9007 0.1640
H4 H 1.0243 1.0870 0.1663
O4 O 1.1043(2) 0.3408(3) 0.21711(13)
O5 O 1.0733(2) 0.4428(4) 0.09955(12)
O6 O 1.1525(2) 0.6678(3) 0.18895(13)
N1 N 0.6754(3) 0.6745(4) 0.18049(14)
N2 N 0.7562(3) 0.8176(4) 0.06909(15)
N3 N 0.2569(3) 0.6023(4) 0.03408(14)
H5 H 0.2071 0.5548 0.0596
N4 N 0.3236(3) 0.7182(4) -0.05903(15)
C1 C 0.6424(3) 0.5917(5) 0.23538(18)
H6 H 0.7022 0.5824 0.2753
C2 C 0.5222(3) 0.5186(5) 0.23606(17)
H7 H 0.5028 0.4603 0.2754
C3 C 0.4326(3) 0.5333(5) 0.17785(18)
H8 H 0.3515 0.4857 0.1774
C4 C 0.4644(3) 0.6204(5) 0.11887(17)
C5 C 0.3828(3) 0.6444(5) 0.05370(17)
C6 C 0.2271(3) 0.6492(5) -0.03198(18)
H9 H 0.1461 0.6351 -0.0571
C7 C 0.4237(3) 0.7163(5) -0.00364(17)
C8 C 0.5511(3) 0.7756(5) -0.00253(17)
C9 C 0.6013(3) 0.8448(5) -0.05949(18)
H10 H 0.5500 0.8572 -0.1023
C10 C 0.7267(4) 0.8923(5) -0.05090(18)
H11 H 0.7616 0.9344 -0.0884
C11 C 0.8009(3) 0.8788(5) 0.01339(18)
H12 H 0.8855 0.9138 0.0182
C12 C 0.6333(3) 0.7634(5) 0.06135(16)
C13 C 0.5895(3) 0.6851(4) 0.12193(17)
Zn1A Zn 1.15446(4) 0.32754(6) 0.324632(19)
O4A O 0.8957(2) 0.8408(3) 0.28289(13)
loop_
_geom_bond_atom_site_label_1
_geom_bond_atom_site_label_2
_geom_bond_site_symmetry_1
_geom_bond_site_symmetry_2
Zn1 O1 1_555 1_555
S1 O2 1_555 1_555
O1 H1 1_555 1_555
H2 O1 1_555 1_555
O2 Zn1 1_555 1_555
O3 Zn1 1_555 1_555
H3 O3 1_555 1_555
H4 O3 1_555 1_555
O4 S1 1_555 1_555
O5 S1 1_555 1_555
O6 S1 1_555 1_555
N1 Zn1 1_555 1_555
N2 Zn1 1_555 1_555
N3 H5 1_555 1_555
N4 C6 1_555 1_555
C1 N1 1_555 1_555
H6 C1 1_555 1_555
C2 C1 1_555 1_555
H7 C2 1_555 1_555
C3 C2 1_555 1_555
H8 C3 1_555 1_555
C4 C3 1_555 1_555
C5 N3 1_555 1_555
C6 N3 1_555 1_555
H9 C6 1_555 1_555
C7 N4 1_555 1_555
C8 C7 1_555 1_555
C9 C8 1_555 1_555
H10 C9 1_555 1_555
C10 C9 1_555 1_555
H11 C10 1_555 1_555
C11 N2 1_555 1_555
H12 C11 1_555 1_555
C12 N2 1_555 1_555
C13 N1 1_555 1_555
Zn1A O4 1_555 1_555
O4A Zn1 1_555 1_555
C4 C5 1_555 1_555
C4 C13 1_555 1_555
C5 C7 1_555 1_555
C8 C12 1_555 1_555
C10 C11 1_555 1_555
C12 C13 1_555 1_555

#END
