
#######################################################################
#
#                 Cambridge Crystallographic Data Centre
#                                CCDC 
#
#######################################################################
#
# If this CIF has been generated from an entry in the Cambridge 
# Structural Database, then it will include bibliographic, chemical, 
# crystal, experimental, refinement or atomic coordinate data resulting 
# from the CCDC's data processing and validation procedures.
#
#######################################################################

data_GUCTUU01
_symmetry_cell_setting           monoclinic
_symmetry_space_group_name_H-M   'P 21/c'
_symmetry_Int_Tables_number      14
_space_group_name_Hall           '-P 2ybc'
loop_
_symmetry_equiv_pos_site_id
_symmetry_equiv_pos_as_xyz
1 x,y,z
2 -x,1/2+y,1/2-z
3 -x,-y,-z
4 x,1/2-y,1/2+z
_cell_length_a                   10.9135(6)
_cell_length_b                   7.0230(4)
_cell_length_c                   19.7034(10)
_cell_angle_alpha                90
_cell_angle_beta                 99.3190(10)
_cell_angle_gamma                90
_cell_volume                     1490.25
loop_
_atom_site_label
_atom_site_type_symbol
_atom_site_fract_x
_atom_site_fract_y
_atom_site_fract_z
Mn1 Mn 0.84874(3) 0.82338(5) 0.174835(16)
S1 S 0.93151(5) 0.99943(8) 0.33293(3)
C1 C 0.5925(2) 0.8449(3) -0.06238(11)
H1 H 0.5410 0.8585 -0.1046
C2 C 0.58492(18) 0.6808(3) 0.11866(10)
C3 C 0.46132(18) 0.6183(3) 0.11616(10)
C4 C 0.62696(18) 0.7599(3) 0.05777(10)
C5 C 0.38037(18) 0.6443(3) 0.05224(11)
C6 C 0.4297(2) 0.5325(3) 0.17540(11)
H2 H 0.3493 0.4889 0.1756
C7 C 0.7900(2) 0.8760(3) 0.00886(11)
H3 H 0.8731 0.9109 0.0131
C8 C 0.6366(2) 0.5828(3) 0.23133(11)
H4 H 0.6958 0.5703 0.2707
C9 C 0.2270(2) 0.6505(3) -0.03358(11)
H5 H 0.1477 0.6361 -0.0587
C10 C 0.5179(2) 0.5137(3) 0.23266(11)
H6 H 0.4987 0.4553 0.2720
C11 C 0.7159(2) 0.8928(3) -0.05506(12)
H7 H 0.7496 0.9362 -0.0927
C12 C 0.54532(19) 0.7750(3) -0.00488(10)
C13 C 0.41960(19) 0.7166(3) -0.00570(10)
N1 N 0.74822(16) 0.8126(3) 0.06439(9)
N2 N 0.66973(16) 0.6655(3) 0.17676(9)
N3 N 0.25671(16) 0.6034(3) 0.03299(9)
H8 H 0.2076 0.5565 0.0587
N4 N 0.32177(17) 0.7194(3) -0.05987(9)
O1 O 1.05927(14) 1.0548(2) 0.32707(9)
O2 O 0.84729(14) 1.1621(2) 0.31357(8)
O3 O 0.89433(14) 0.8377(2) 0.28552(8)
O4 O 0.74093(16) 1.0845(2) 0.18084(8)
H9 H 0.7265 1.1594 0.1468
H10 H 0.7748 1.1517 0.2144
O5 O 0.92407(15) 0.9384(3) 0.40273(8)
O6 O 1.01173(14) 0.9757(2) 0.15077(9)
H11 H 1.0328 1.0816 0.1687
H12 H 1.0694 0.8975 0.1641
Mn1A Mn 1.15126(3) 1.32338(5) 0.325165(16)
O1A O 0.94073(14) 0.5548(2) 0.17293(9)
loop_
_geom_bond_atom_site_label_1
_geom_bond_atom_site_label_2
_geom_bond_site_symmetry_1
_geom_bond_site_symmetry_2
Mn1 N1 1_555 1_555
S1 O1 1_555 1_555
C1 H1 1_555 1_555
C2 C3 1_555 1_555
C3 C5 1_555 1_555
C4 C2 1_555 1_555
C5 C13 1_555 1_555
C6 C3 1_555 1_555
H2 C6 1_555 1_555
C7 H3 1_555 1_555
C8 H4 1_555 1_555
C9 H5 1_555 1_555
C10 C6 1_555 1_555
H6 C10 1_555 1_555
C11 C1 1_555 1_555
H7 C11 1_555 1_555
C12 C1 1_555 1_555
C13 C12 1_555 1_555
N1 C4 1_555 1_555
N2 Mn1 1_555 1_555
N3 C5 1_555 1_555
H8 N3 1_555 1_555
N4 C9 1_555 1_555
O1 Mn1A 1_555 1_555
O2 S1 1_555 1_555
O3 Mn1 1_555 1_555
O4 Mn1 1_555 1_555
H9 O4 1_555 1_555
H10 O4 1_555 1_555
O5 S1 1_555 1_555
O6 Mn1 1_555 1_555
H11 O6 1_555 1_555
H12 O6 1_555 1_555
O1A Mn1 1_555 1_555
S1 O3 1_555 1_555
C2 N2 1_555 1_555
C4 C12 1_555 1_555
C7 C11 1_555 1_555
C7 N1 1_555 1_555
C8 C10 1_555 1_555
C8 N2 1_555 1_555
C9 N3 1_555 1_555
C13 N4 1_555 1_555

#END
