
#######################################################################
#
#                 Cambridge Crystallographic Data Centre
#                                CCDC 
#
#######################################################################
#
# If this CIF has been generated from an entry in the Cambridge 
# Structural Database, then it will include bibliographic, chemical, 
# crystal, experimental, refinement or atomic coordinate data resulting 
# from the CCDC's data processing and validation procedures.
#
#######################################################################

data_GUCTUU
_symmetry_cell_setting           monoclinic
_symmetry_space_group_name_H-M   'P 21/c'
_symmetry_Int_Tables_number      14
_space_group_name_Hall           '-P 2ybc'
loop_
_symmetry_equiv_pos_site_id
_symmetry_equiv_pos_as_xyz
1 x,y,z
2 -x,1/2+y,1/2-z
3 -x,-y,-z
4 x,1/2-y,1/2+z
_cell_length_a                   10.916(4)
_cell_length_b                   7.017(2)
_cell_length_c                   19.690(6)
_cell_angle_alpha                90
_cell_angle_beta                 99.353(7)
_cell_angle_gamma                90
_cell_volume                     1488.16
loop_
_atom_site_label
_atom_site_type_symbol
_atom_site_fract_x
_atom_site_fract_y
_atom_site_fract_z
Mn1 Mn 0.34885(7) 0.82387(12) 0.17471(4)
S1 S 0.56891(12) 0.5001(2) 0.16741(6)
O1 O 0.2407(3) 1.0837(4) 0.18054(15)
H1 H 0.2101 1.1595 0.1497
H2 H 0.2838 1.1444 0.2118
O2 O 0.5124(3) 0.9758(5) 0.15092(14)
H3 H 0.5468 1.0808 0.1597
H4 H 0.5684 0.8912 0.1619
O3 O 0.4399(3) 0.5544(5) 0.17257(15)
O4 O 0.5754(3) 0.4377(5) 0.09748(14)
O5 O 0.6527(3) 0.6637(5) 0.18649(14)
O6 O 0.6063(3) 0.3385(5) 0.21489(14)
N1 N 0.1702(3) 0.6663(6) 0.17652(19)
N2 N 0.2490(4) 0.8133(6) 0.06481(18)
N3 N -0.2430(3) 0.6036(5) 0.03263(18)
H5 H -0.2923 0.5562 0.0581
N4 N -0.1774(4) 0.7187(6) -0.05999(18)
C1 C 0.1372(5) 0.5847(7) 0.2312(2)
H6 H 0.1962 0.5730 0.2708
C2 C 0.0180(5) 0.5155(8) 0.2322(2)
H7 H -0.0010 0.4579 0.2717
C3 C -0.0700(5) 0.5319(7) 0.1759(2)
H8 H -0.1499 0.4865 0.1763
C4 C -0.0387(5) 0.6196(7) 0.1158(2)
C5 C -0.1181(5) 0.6449(7) 0.0530(2)
C6 C -0.2725(4) 0.6506(7) -0.0335(2)
H9 H -0.3519 0.6371 -0.0585
C7 C -0.0812(5) 0.7161(7) -0.0066(2)
C8 C 0.0451(4) 0.7758(6) -0.0044(2)
C9 C 0.0917(5) 0.8453(7) -0.0625(2)
H10 H 0.0403 0.8583 -0.1048
C10 C 0.2158(5) 0.8934(7) -0.0545(2)
H11 H 0.2494 0.9376 -0.0921
C11 C 0.2905(5) 0.8758(7) 0.0093(2)
H12 H 0.3737 0.9097 0.0133
C12 C 0.1273(4) 0.7593(7) 0.0572(2)
C13 C 0.0853(5) 0.6821(7) 0.1187(2)
Mn1A Mn 0.65115(7) 0.32387(12) 0.32529(4)
O6A O 0.3937(3) 0.8385(5) 0.28511(14)
loop_
_geom_bond_atom_site_label_1
_geom_bond_atom_site_label_2
_geom_bond_site_symmetry_1
_geom_bond_site_symmetry_2
Mn1 O1 1_555 1_555
S1 O3 1_555 1_555
O1 H1 1_555 1_555
H2 O1 1_555 1_555
O2 Mn1 1_555 1_555
H3 O2 1_555 1_555
H4 O2 1_555 1_555
O3 Mn1 1_555 1_555
O4 S1 1_555 1_555
O5 S1 1_555 1_555
O6 S1 1_555 1_555
N1 Mn1 1_555 1_555
N2 Mn1 1_555 1_555
N3 H5 1_555 1_555
N4 C6 1_555 1_555
C1 N1 1_555 1_555
H6 C1 1_555 1_555
C2 C1 1_555 1_555
H7 C2 1_555 1_555
C3 C2 1_555 1_555
H8 C3 1_555 1_555
C4 C3 1_555 1_555
C5 N3 1_555 1_555
C6 N3 1_555 1_555
H9 C6 1_555 1_555
C7 N4 1_555 1_555
C8 C7 1_555 1_555
C9 C8 1_555 1_555
H10 C9 1_555 1_555
C10 C9 1_555 1_555
H11 C10 1_555 1_555
C11 N2 1_555 1_555
H12 C11 1_555 1_555
C12 N2 1_555 1_555
C13 N1 1_555 1_555
Mn1A O6 1_555 1_555
O6A Mn1 1_555 1_555
C4 C5 1_555 1_555
C4 C13 1_555 1_555
C5 C7 1_555 1_555
C8 C12 1_555 1_555
C10 C11 1_555 1_555
C12 C13 1_555 1_555

#END
