
#######################################################################
#
#                 Cambridge Crystallographic Data Centre
#                                CCDC 
#
#######################################################################
#
# If this CIF has been generated from an entry in the Cambridge 
# Structural Database, then it will include bibliographic, chemical, 
# crystal, experimental, refinement or atomic coordinate data resulting 
# from the CCDC's data processing and validation procedures.
#
#######################################################################

data_GUCWUX
_symmetry_cell_setting           orthorhombic
_symmetry_space_group_name_H-M   'P 21 21 2'
_symmetry_Int_Tables_number      18
_space_group_name_Hall           'P 2 2ab'
loop_
_symmetry_equiv_pos_site_id
_symmetry_equiv_pos_as_xyz
1 x,y,z
2 -x,-y,z
3 1/2-x,1/2+y,-z
4 1/2+x,1/2-y,-z
_cell_length_a                   25.355(4)
_cell_length_b                   6.7343(10)
_cell_length_c                   11.0811(17)
_cell_angle_alpha                90
_cell_angle_beta                 90
_cell_angle_gamma                90
_cell_volume                     1892.08
loop_
_atom_site_label
_atom_site_type_symbol
_atom_site_fract_x
_atom_site_fract_y
_atom_site_fract_z
Cd1 Cd 0.29812(5) 0.4061(2) 0.09270(11)
O1 O 0.2611(3) 0.2964(15) 0.2403(7)
O2 O 0.1808(4) 0.4233(17) 0.2044(8)
O3 O 0.1913(4) 0.2001(14) 0.8457(7)
O4 O 0.1119(4) 0.3101(17) 0.8058(8)
N1 N 0.3751(4) 0.3145(17) 0.1586(9)
N2 N 0.3411(4) 0.3730(15) -0.0678(9)
N3 N 0.5242(4) 0.2343(17) -0.1989(9)
N4 N 0.5513(4) 0.2211(17) -0.0069(10)
H1 H 0.5727 0.2122 0.0531
C1 C 0.3236(5) 0.400(2) -0.1825(12)
H2 H 0.2883 0.4336 -0.1934
C2 C 0.3538(6) 0.382(2) -0.2808(13)
H3 H 0.3398 0.4030 -0.3573
C3 C 0.4083(5) 0.330(2) -0.2660(12)
H4 H 0.4304 0.3183 -0.3326
C4 C 0.4276(5) 0.2960(18) -0.1496(11)
C5 C 0.3929(5) 0.3191(17) -0.0550(11)
C6 C 0.4812(5) 0.2574(17) -0.1265(12)
C7 C 0.5645(5) 0.2103(17) -0.1300(12)
H5 H 0.5985 0.1884 -0.1583
C8 C 0.4990(6) 0.2477(17) -0.0009(10)
C9 C 0.4649(4) 0.2615(16) 0.0958(12)
C10 C 0.4780(5) 0.248(2) 0.2200(11)
H6 H 0.5128 0.2264 0.2428
C11 C 0.4406(6) 0.266(2) 0.3047(12)
H7 H 0.4490 0.2570 0.3862
C12 C 0.3909(6) 0.298(2) 0.2694(14)
H8 H 0.3654 0.3098 0.3294
C13 C 0.4105(5) 0.2956(17) 0.0712(10)
C14 C 0.2143(5) 0.3438(18) 0.2724(11)
C15 C 0.1997(5) 0.3153(17) 0.3995(10)
C16 C 0.2363(5) 0.253(2) 0.4850(12)
H9 H 0.2705 0.2233 0.4609
C17 C 0.2227(5) 0.2366(18) 0.6033(11)
H10 H 0.2478 0.1953 0.6591
C18 C 0.1722(5) 0.2799(19) 0.6416(10)
C19 C 0.1346(5) 0.340(2) 0.5605(10)
H11 H 0.1005 0.3672 0.5864
C20 C 0.1479(5) 0.362(2) 0.4376(11)
H12 H 0.1230 0.4068 0.3824
C21 C 0.1577(5) 0.2613(18) 0.7749(10)
O5 O 0.2296(3) 0.4858(15) 0.0008(7)
H13 H 0.2050 0.4723 0.0453
H14 H 0.2187 0.4024 -0.0441
Cd1B Cd 0.20188(5) -0.0939(2) 0.90730(11)
O3B O 0.3087(4) 0.7001(14) 0.1543(7)
O6 O 0.0006(15) 0.378(5) 0.447(2)
H15 H 0.0097 0.3447 0.3776
H16 H 0.0303 0.3724 0.4835
loop_
_geom_bond_atom_site_label_1
_geom_bond_atom_site_label_2
_geom_bond_site_symmetry_1
_geom_bond_site_symmetry_2
Cd1 O1 1_555 1_555
O1 C14 1_555 1_555
O2 C14 1_555 1_555
O3 C21 1_555 1_555
O4 C21 1_555 1_555
N1 Cd1 1_555 1_555
N2 Cd1 1_555 1_555
N3 C6 1_555 1_555
N4 H1 1_555 1_555
C1 N2 1_555 1_555
H2 C1 1_555 1_555
C2 C1 1_555 1_555
H3 C2 1_555 1_555
C3 C2 1_555 1_555
H4 C3 1_555 1_555
C4 C3 1_555 1_555
C5 N2 1_555 1_555
C6 C4 1_555 1_555
C7 N3 1_555 1_555
H5 C7 1_555 1_555
C8 N4 1_555 1_555
C9 C8 1_555 1_555
C10 C9 1_555 1_555
H6 C10 1_555 1_555
C11 C10 1_555 1_555
H7 C11 1_555 1_555
C12 N1 1_555 1_555
H8 C12 1_555 1_555
C13 N1 1_555 1_555
C14 C15 1_555 1_555
C15 C16 1_555 1_555
C16 H9 1_555 1_555
C17 C16 1_555 1_555
H10 C17 1_555 1_555
C18 C17 1_555 1_555
C19 C18 1_555 1_555
H11 C19 1_555 1_555
C20 C15 1_555 1_555
H12 C20 1_555 1_555
C21 C18 1_555 1_555
O5 Cd1 1_555 1_555
H13 O5 1_555 1_555
H14 O5 1_555 1_555
O6 H15 1_555 1_555
H16 O6 1_555 1_555
Cd1B O3 1_555 1_555
O3B Cd1 1_555 1_555
N4 C7 1_555 1_555
C4 C5 1_555 1_555
C5 C13 1_555 1_555
C6 C8 1_555 1_555
C9 C13 1_555 1_555
C11 C12 1_555 1_555
C19 C20 1_555 1_555

#END
