
#######################################################################
#
#                 Cambridge Crystallographic Data Centre
#                                CCDC 
#
#######################################################################
#
# If this CIF has been generated from an entry in the Cambridge 
# Structural Database, then it will include bibliographic, chemical, 
# crystal, experimental, refinement or atomic coordinate data resulting 
# from the CCDC's data processing and validation procedures.
#
#######################################################################

data_GUCWUY
_symmetry_cell_setting           triclinic
_symmetry_space_group_name_H-M   'P -1'
_symmetry_Int_Tables_number      2
_space_group_name_Hall           '-P 1'
loop_
_symmetry_equiv_pos_site_id
_symmetry_equiv_pos_as_xyz
1 x,y,z
2 -x,-y,-z
_cell_length_a                   13.362(4)
_cell_length_b                   20.179(6)
_cell_length_c                   20.186(7)
_cell_angle_alpha                76.11(4)
_cell_angle_beta                 72.33(3)
_cell_angle_gamma                72.24(3)
_cell_volume                     4873.19
loop_
_atom_site_label
_atom_site_type_symbol
_atom_site_fract_x
_atom_site_fract_y
_atom_site_fract_z
Mo1 Mo 0.96089(11) 0.13146(8) 0.19685(8)
Mo2 Mo 0.74972(16) 0.14644(8) 0.35362(8)
Mo3 Mo 1.01596(13) 0.28871(10) 0.21001(11)
Mo4 Mo 0.96134(14) 0.27419(8) 0.05310(8)
Mo5 Mo 0.69399(14) 0.13244(8) 0.19730(12)
Mo6 Mo 0.80573(13) 0.30270(12) 0.36761(8)
Mo7 Mo 0.6943(3) 0.27391(14) 0.05468(9)
Mo8 Mo 0.53895(11) 0.30325(8) 0.36841(7)
Mo9 Mo 0.8053(3) 0.44532(10) 0.22613(14)
Mo10 Mo 0.75003(17) 0.43079(10) 0.06928(10)
Mo11 Mo 0.48429(13) 0.29004(11) 0.21090(9)
Mo12 Mo 0.53841(14) 0.44723(8) 0.22561(8)
K1 K 1.061(3) 0.4477(15) 0.0506(15)
P1 P 0.7499(3) 0.28867(18) 0.21105(18)
O1 O 1.0627(10) 0.0594(6) 0.1887(6)
O2 O 0.8887(12) 0.1199(10) 0.2922(9)
O3 O 0.7487(16) 0.0816(10) 0.4211(10)
O4 O 0.8063(11) 0.2051(8) 0.3831(9)
O5 O 0.9460(15) 0.2837(8) 0.3071(9)
O6 O 1.0279(15) 0.1917(7) 0.2190(9)
O7 O 1.1406(15) 0.2886(9) 0.2095(9)
O8 O 1.0266(12) 0.2982(7) 0.1117(8)
O9 O 0.9898(12) 0.1824(7) 0.1030(8)
O10 O 1.0595(16) 0.2676(10) -0.0204(10)
O11 O 0.8527(16) 0.2559(8) 0.0251(11)
O12 O 0.7124(16) 0.1825(9) 0.1025(10)
O13 O 0.8471(12) 0.1072(10) 0.1793(8)
O14 O 0.6647(12) 0.0621(7) 0.1895(8)
O15 O 0.6931(11) 0.1170(10) 0.2942(8)
O16 O 0.6127(12) 0.2069(9) 0.3817(10)
O17 O 0.8338(12) 0.3116(7) 0.4385(7)
O18 O 0.9444(19) 0.3855(8) 0.2035(9)
O19 O 0.8876(16) 0.3713(8) 0.0415(11)
O20 O 0.6653(16) 0.2692(10) -0.0198(10)
O21 O 0.5540(14) 0.1923(9) 0.2161(8)
O22 O 0.4355(10) 0.3119(6) 0.4396(6)
O23 O 0.6528(12) 0.3204(8) 0.3937(10)
O24 O 0.7881(15) 0.3956(9) 0.3183(9)
O25 O 0.8304(15) 0.5177(10) 0.2334(10)
O26 O 0.8073(19) 0.4590(14) 0.1294(9)
O27 O 0.6932(18) 0.3708(9) 0.0419(13)
O28 O 0.7503(14) 0.5001(9) -0.0009(9)
O29 O 0.5529(18) 0.2967(9) 0.1148(8)
O30 O 0.3592(14) 0.2919(8) 0.2105(8)
O31 O 0.4705(16) 0.2829(9) 0.3074(7)
O32 O 0.5137(12) 0.3954(8) 0.3171(7)
O33 O 0.6463(16) 0.4739(10) 0.2436(9)
O34 O 0.6088(18) 0.4605(11) 0.1289(8)
O35 O 0.4763(12) 0.3883(8) 0.2007(7)
O36 O 0.4404(15) 0.5198(9) 0.2312(9)
O37 O 0.7106(19) 0.3659(12) 0.1957(12)
O38 O 0.7183(14) 0.2650(9) 0.2903(9)
O39 O 0.8635(14) 0.2608(9) 0.1782(9)
O40 O 0.6755(15) 0.2590(10) 0.1832(10)
K2 K 0.443(3) 0.4502(14) 0.0488(15)
K1A K 0.939(3) 0.5523(15) -0.0506(15)
O28A O 0.2497(14) 0.4999(9) 0.0009(9)
O28A_2 O 1.2497(14) 0.4999(9) 0.0009(9)
K2A K 0.557(3) 0.5498(14) -0.0488(15)
Cr1 Cr 1.04757(19) 0.16574(13) 0.78482(12)
Cr2 Cr 0.9873(2) 0.32561(13) 0.69306(14)
Cr3 Cr 1.04782(18) 0.18417(12) 0.61736(12)
O41 O 1.1528(10) 0.2124(7) 0.7923(7)
O42 O 1.0868(11) 0.3271(7) 0.7474(7)
O43 O 0.9306(10) 0.2260(6) 0.8482(6)
O44 O 0.8698(10) 0.3285(6) 0.7805(6)
O45 O 1.1023(10) 0.3398(6) 0.6061(6)
O46 O 1.1296(9) 0.2502(6) 0.5516(6)
O47 O 0.8798(9) 0.3422(5) 0.6380(5)
O48 O 0.9119(8) 0.2449(5) 0.5944(5)
O49 O 1.1889(9) 0.1179(5) 0.6260(5)
O50 O 1.1721(9) 0.0941(6) 0.7414(6)
O51 O 0.9664(8) 0.1137(5) 0.6723(5)
O52 O 0.9422(9) 0.1132(6) 0.7876(6)
O53 O 1.0285(8) 0.2251(5) 0.6986(5)
N1 N 1.0745(11) 0.0985(8) 0.8804(7)
N2 N 0.9436(12) 0.4354(8) 0.6847(8)
N3 N 1.0673(11) 0.1364(7) 0.5297(7)
C1 C 1.1554(18) 0.2762(11) 0.7772(11)
C2 C 0.8677(16) 0.2870(10) 0.8356(10)
C3 C 1.1466(15) 0.3058(9) 0.5576(9)
C4 C 0.8604(12) 0.3040(8) 0.6045(8)
C5 C 1.2233(13) 0.0866(8) 0.6800(8)
C6 C 0.9246(12) 0.0965(8) 0.7373(8)
C7 C 1.0889(14) 0.0290(10) 0.8852(8)
C8 C 1.1252(14) -0.0193(11) 0.9414(9)
C9 C 1.1473(13) 0.0055(10) 0.9930(9)
C10 C 1.1302(16) 0.0779(10) 0.9876(9)
C11 C 1.0905(16) 0.1249(10) 0.9307(9)
C12 C 1.1959(14) -0.0464(12) 1.0490(9)
C13 C 1.0168(18) 0.4774(10) 0.6663(10)
C14 C 0.990(2) 0.5484(11) 0.6575(12)
C15 C 0.880(2) 0.5844(10) 0.6578(11)
C16 C 0.803(2) 0.5451(12) 0.6772(12)
C17 C 0.8345(16) 0.4725(9) 0.6887(10)
C18 C 0.847(3) 0.6651(10) 0.6445(10)
C19 C 1.0507(14) 0.1751(8) 0.4694(8)
C20 C 1.0695(15) 0.1452(9) 0.4087(9)
C21 C 1.0995(12) 0.0721(9) 0.4141(8)
C22 C 1.1134(13) 0.0319(9) 0.4793(8)
C23 C 1.0994(13) 0.0668(9) 0.5355(8)
C24 C 1.1210(14) 0.0376(10) 0.3514(8)
Cr4 Cr 0.4878(2) 0.19290(14) 0.82521(13)
Cr5 Cr 0.54762(19) 0.28502(13) 0.66548(13)
Cr6 Cr 0.54779(18) 0.11762(12) 0.68402(12)
O54 O 0.5900(11) 0.2468(7) 0.8264(7)
O55 O 0.6517(10) 0.2924(6) 0.7134(6)
O56 O 0.3692(9) 0.2811(6) 0.8280(6)
O57 O 0.4321(9) 0.3485(6) 0.7242(6)
O58 O 0.6722(9) 0.2410(6) 0.5943(6)
O59 O 0.6883(8) 0.1257(5) 0.6180(5)
O60 O 0.4444(9) 0.2878(6) 0.6132(6)
O61 O 0.4674(8) 0.1718(5) 0.6134(5)
O62 O 0.6298(9) 0.0511(6) 0.7491(6)
O63 O 0.6020(10) 0.1064(6) 0.8399(6)
O64 O 0.4123(8) 0.0943(5) 0.7438(5)
O65 O 0.3804(9) 0.1381(6) 0.8422(6)
O66 O 0.5278(8) 0.1989(5) 0.7242(5)
N4 N 0.4452(11) 0.1843(8) 0.9356(7)
N5 N 0.5746(11) 0.3804(7) 0.5988(8)
N6 N 0.5678(10) 0.0306(7) 0.6372(6)
C25 C 0.6523(16) 0.2793(10) 0.7761(10)
C26 C 0.3723(15) 0.3358(10) 0.7845(10)
C27 C 0.7213(14) 0.1800(9) 0.5866(9)
C28 C 0.4240(13) 0.2369(8) 0.5974(8)
C29 C 0.6460(14) 0.0572(9) 0.8059(9)
C30 C 0.3593(13) 0.1047(8) 0.8046(8)
C31 C 0.3336(15) 0.1891(11) 0.9735(10)
C32 C 0.3029(19) 0.1780(12) 1.0467(11)
C33 C 0.381(2) 0.1581(12) 1.0852(10)
C34 C 0.4870(18) 0.1565(11) 1.0486(10)
C35 C 0.5164(19) 0.1680(10) 0.9764(11)
C36 C 0.343(3) 0.1456(12) 1.1642(10)
C37 C 0.5913(14) 0.4306(9) 0.6230(11)
C38 C 0.6321(14) 0.4875(9) 0.5768(10)
C39 C 0.6485(14) 0.4916(9) 0.5070(11)
C40 C 0.6242(12) 0.4416(9) 0.4806(9)
C41 C 0.5877(14) 0.3861(8) 0.5293(9)
C42 C 0.6958(15) 0.5495(9) 0.4548(11)
C43 C 0.5976(14) 0.0347(9) 0.5663(9)
C44 C 0.6154(12) -0.0213(8) 0.5326(8)
C45 C 0.6027(11) -0.0879(7) 0.5724(9)
C46 C 0.5706(15) -0.0928(9) 0.6438(8)
C47 C 0.5529(15) -0.0314(9) 0.6750(9)
C48 C 0.6220(17) -0.1486(9) 0.5376(10)
O67? O 0.6355(17) 0.3220(11) 0.2413(11)
O68? O 0.8234(15) 0.3172(10) 0.2408(10)
O69? O 0.7850(15) 0.2090(10) 0.2348(10)
O70? O 0.7865(17) 0.3068(11) 0.1341(11)
K3? K 1.194(3) 0.4340(19) 0.1438(19)
loop_
_geom_bond_atom_site_label_1
_geom_bond_atom_site_label_2
_geom_bond_site_symmetry_1
_geom_bond_site_symmetry_2
Mo1 O1 1_555 1_555
Mo2 O2 1_555 1_555
Mo3 O5 1_555 1_555
Mo4 O8 1_555 1_555
Mo5 O12 1_555 1_555
Mo6 O4 1_555 1_555
Mo7 O11 1_555 1_555
Mo8 O16 1_555 1_555
Mo9 O18 1_555 1_555
Mo10 O19 1_555 1_555
Mo11 O21 1_555 1_555
Mo12 O32 1_555 1_555
K1 O8 1_555 1_555
P1 O37 1_555 1_555
O2 Mo1 1_555 1_555
O3 Mo2 1_555 1_555
O4 Mo2 1_555 1_555
O5 Mo6 1_555 1_555
O6 Mo1 1_555 1_555
O7 Mo3 1_555 1_555
O8 Mo3 1_555 1_555
O9 Mo1 1_555 1_555
O10 Mo4 1_555 1_555
O11 Mo4 1_555 1_555
O12 Mo7 1_555 1_555
O13 Mo1 1_555 1_555
O14 Mo5 1_555 1_555
O15 Mo2 1_555 1_555
O16 Mo2 1_555 1_555
O17 Mo6 1_555 1_555
O18 Mo3 1_555 1_555
O19 Mo4 1_555 1_555
O20 Mo7 1_555 1_555
O21 Mo5 1_555 1_555
O22 Mo8 1_555 1_555
O23 Mo6 1_555 1_555
O24 Mo6 1_555 1_555
O25 Mo9 1_555 1_555
O26 Mo9 1_555 1_555
O27 Mo7 1_555 1_555
O28 Mo10 1_555 1_555
O29 Mo7 1_555 1_555
O30 Mo11 1_555 1_555
O31 Mo8 1_555 1_555
O32 Mo8 1_555 1_555
O33 Mo9 1_555 1_555
O34 Mo10 1_555 1_555
O35 Mo11 1_555 1_555
O36 Mo12 1_555 1_555
O37 Mo9 1_555 1_555
O38 Mo2 1_555 1_555
O39 Mo1 1_555 1_555
O40 Mo5 1_555 1_555
K2 O27 1_555 1_555
Cr1 O41 1_555 1_555
Cr2 O42 1_555 1_555
Cr3 O46 1_555 1_555
O41 C1 1_555 1_555
O42 C1 1_555 1_555
O43 Cr1 1_555 1_555
O44 Cr2 1_555 1_555
O45 Cr2 1_555 1_555
O46 C3 1_555 1_555
O47 Cr2 1_555 1_555
O48 Cr3 1_555 1_555
O49 Cr3 1_555 1_555
O50 Cr1 1_555 1_555
O51 Cr3 1_555 1_555
O52 Cr1 1_555 1_555
O53 Cr1 1_555 1_555
N1 Cr1 1_555 1_555
N2 Cr2 1_555 1_555
N3 Cr3 1_555 1_555
C2 O43 1_555 1_555
C3 O45 1_555 1_555
C4 O47 1_555 1_555
C5 O49 1_555 1_555
C6 O51 1_555 1_555
C7 N1 1_555 1_555
C8 C7 1_555 1_555
C9 C8 1_555 1_555
C10 C9 1_555 1_555
C11 N1 1_555 1_555
C12 C9 1_555 1_555
C13 N2 1_555 1_555
C14 C13 1_555 1_555
C15 C14 1_555 1_555
C16 C15 1_555 1_555
C17 N2 1_555 1_555
C18 C15 1_555 1_555
C19 N3 1_555 1_555
C20 C19 1_555 1_555
C21 C20 1_555 1_555
C22 C21 1_555 1_555
C23 N3 1_555 1_555
C24 C21 1_555 1_555
Cr4 O54 1_555 1_555
Cr5 O55 1_555 1_555
Cr6 O59 1_555 1_555
O54 C25 1_555 1_555
O55 C25 1_555 1_555
O56 Cr4 1_555 1_555
O57 Cr5 1_555 1_555
O58 Cr5 1_555 1_555
O59 C27 1_555 1_555
O60 Cr5 1_555 1_555
O61 Cr6 1_555 1_555
O62 Cr6 1_555 1_555
O63 Cr4 1_555 1_555
O64 Cr6 1_555 1_555
O65 Cr4 1_555 1_555
O66 Cr4 1_555 1_555
N4 Cr4 1_555 1_555
N5 Cr5 1_555 1_555
N6 Cr6 1_555 1_555
C26 O56 1_555 1_555
C27 O58 1_555 1_555
C28 O60 1_555 1_555
C29 O62 1_555 1_555
C30 O64 1_555 1_555
C31 N4 1_555 1_555
C32 C31 1_555 1_555
C33 C32 1_555 1_555
C34 C33 1_555 1_555
C35 N4 1_555 1_555
C36 C33 1_555 1_555
C37 N5 1_555 1_555
C38 C37 1_555 1_555
C39 C38 1_555 1_555
C40 C39 1_555 1_555
C41 N5 1_555 1_555
C42 C39 1_555 1_555
C43 N6 1_555 1_555
C44 C43 1_555 1_555
C45 C44 1_555 1_555
C46 C45 1_555 1_555
C47 N6 1_555 1_555
C48 C45 1_555 1_555
K1A K1 1_555 1_555
O28A K2 1_555 1_555
O28A_2 K1 1_555 1_555
K2A O28 1_555 1_555
Mo3 O6 1_555 1_555
Mo3 O39 1_555 1_555
Mo4 O9 1_555 1_555
Mo4 O39 1_555 1_555
Mo5 O13 1_555 1_555
Mo5 O15 1_555 1_555
Mo6 O38 1_555 1_555
Mo7 O40 1_555 1_555
Mo8 O23 1_555 1_555
Mo8 O38 1_555 1_555
Mo9 O24 1_555 1_555
Mo10 O26 1_555 1_555
Mo10 O27 1_555 1_555
Mo10 O37 1_555 1_555
Mo11 O29 1_555 1_555
Mo11 O31 1_555 1_555
Mo11 O40 1_555 1_555
Mo12 O33 1_555 1_555
Mo12 O34 1_555 1_555
Mo12 O35 1_555 1_555
Mo12 O37 1_555 1_555
K1 O18 1_555 1_555
K1 O19 1_555 1_555
K1 O26 1_555 1_555
P1 O38 1_555 1_555
P1 O39 1_555 1_555
P1 O40 1_555 1_555
O28 K1A 1_555 1_555
O29 K2 1_555 1_555
O34 K2 1_555 1_555
O35 K2 1_555 1_555
K2 K2A 1_555 1_555
Cr2 O53 1_555 1_555
Cr3 O53 1_555 1_555
O44 C2 1_555 1_555
O48 C4 1_555 1_555
O50 C5 1_555 1_555
O52 C6 1_555 1_555
C10 C11 1_555 1_555
C16 C17 1_555 1_555
C22 C23 1_555 1_555
Cr5 O66 1_555 1_555
Cr6 O66 1_555 1_555
O57 C26 1_555 1_555
O61 C28 1_555 1_555
O63 C29 1_555 1_555
O65 C30 1_555 1_555
C34 C35 1_555 1_555
C40 C41 1_555 1_555
C46 C47 1_555 1_555

#END
