
#######################################################################
#
#                 Cambridge Crystallographic Data Centre
#                                CCDC 
#
#######################################################################
#
# If this CIF has been generated from an entry in the Cambridge 
# Structural Database, then it will include bibliographic, chemical, 
# crystal, experimental, refinement or atomic coordinate data resulting 
# from the CCDC's data processing and validation procedures.
#
#######################################################################

data_GUCWIL
_symmetry_cell_setting           monoclinic
_symmetry_space_group_name_H-M   'C 2/c'
_symmetry_Int_Tables_number      15
_space_group_name_Hall           '-C 2yn'
loop_
_symmetry_equiv_pos_site_id
_symmetry_equiv_pos_as_xyz
1 x,y,z
2 -x,y,1/2-z
3 1/2+x,1/2+y,z
4 1/2-x,1/2+y,1/2-z
5 -x,-y,-z
6 x,-y,1/2+z
7 1/2-x,1/2-y,-z
8 1/2+x,1/2-y,1/2+z
_cell_length_a                   20.533(3)
_cell_length_b                   18.506(3)
_cell_length_c                   26.518(4)
_cell_angle_alpha                90
_cell_angle_beta                 99.683(5)
_cell_angle_gamma                90
_cell_volume                     9932.85
loop_
_atom_site_label
_atom_site_type_symbol
_atom_site_fract_x
_atom_site_fract_y
_atom_site_fract_z
Cd1 Cd 0.80311(3) 0.88115(3) 0.05681(2)
Cd2 Cd 0.46401(3) 1.13594(3) 0.51124(2)
N1 N 0.8786(3) 0.9750(3) 0.0710(3)
N2 N 0.8343(3) 0.9096(3) -0.0202(2)
N3 N 0.3930(3) 1.1895(3) 0.4417(2)
N4 N 0.3891(3) 1.2128(3) 0.5422(3)
N5 N 0.2421(3) 1.4209(3) 0.4853(3)
H1 H 0.2320 1.4413 0.5120
N6 N 0.2455(4) 1.4029(4) 0.4040(3)
N7 N 0.9554(4) 1.0968(4) -0.1006(3)
H2 H 0.9481 1.0889 -0.1330
N8 N 0.9947(4) 1.1478(4) -0.0244(3)
O1 O 0.7111(3) 1.0009(3) 0.0701(2)
O2 O 0.7517(3) 0.9118(3) 0.12201(19)
O3 O 0.5499(3) 1.2038(3) 0.4551(2)
O4 O 0.5270(3) 1.0870(3) 0.45820(19)
O5 O 0.6264(3) 1.3080(3) 0.37965(19)
O6 O 0.6848(3) 1.2571(3) 0.44741(19)
O7 O 0.7391(3) 1.1186(3) 0.2669(2)
O8 O 0.6050(3) 0.8852(3) 0.0692(2)
O9 O 0.5066(3) 0.9105(3) 0.08743(19)
C1 C 0.9407(4) 1.0647(4) 0.0313(3)
C2 C 0.5675(5) 0.9161(4) 0.0957(3)
C3 C 0.2818(4) 1.3589(4) 0.4840(3)
C4 C 0.6622(4) 1.1645(4) 0.3388(2)
H3 H 0.6876 1.2002 0.3269
C5 C 0.5548(4) 1.1410(4) 0.4404(3)
C6 C 0.6560(4) 1.0990(4) 0.3145(3)
C7 C 0.5961(4) 1.1260(4) 0.3988(2)
C8 C 0.3535(4) 1.2576(4) 0.5080(3)
C9 C 0.2835(4) 1.3487(4) 0.4333(3)
C10 C 0.6325(4) 1.1790(3) 0.3797(3)
C11 C 0.6008(4) 0.9621(4) 0.1395(2)
C12 C 0.6658(4) 0.9822(4) 0.1457(2)
C13 C 0.3569(4) 1.2451(4) 0.4539(3)
C14 C 0.3133(4) 1.3201(5) 0.5760(3)
H4 H 0.2875 1.3556 0.5878
C15 C 0.3150(4) 1.3147(4) 0.5234(3)
C16 C 0.8985(4) 1.0043(4) 0.0282(3)
C17 C 0.9006(4) 1.0032(4) 0.1162(3)
H5 H 0.8869 0.9831 0.1449
C18 C 0.8915(4) 0.9948(4) -0.0659(3)
C19 C 0.9568(4) 1.0907(4) -0.0147(3)
C20 C 0.3858(4) 1.2210(5) 0.5916(3)
H6 H 0.4096 1.1891 0.6148
C21 C 0.6552(4) 1.0439(4) 0.2244(3)
C22 C 0.5916(4) 1.0588(4) 0.3763(3)
H7 H 0.5682 1.0224 0.3896
C23 C 0.6474(4) 1.2527(4) 0.4046(3)
C24 C 0.6214(4) 1.0444(4) 0.3340(3)
H8 H 0.6182 0.9989 0.3190
C25 C 0.3232(4) 1.2754(5) 0.3664(3)
H9 H 0.2996 1.3035 0.3406
C26 C 0.7115(4) 0.9633(4) 0.1093(3)
C27 C 0.6928(4) 1.0222(4) 0.1877(3)
H10 H 0.7372 1.0352 0.1918
C28 C 0.5614(4) 0.9845(4) 0.1754(3)
H11 H 0.5170 0.9719 0.1708
C29 C 0.9440(5) 1.0626(5) 0.1230(4)
H12 H 0.9587 1.0814 0.1554
C30 C 0.8738(4) 0.9683(4) -0.0203(3)
C31 C 0.5891(4) 1.0258(4) 0.2179(3)
H13 H 0.5632 1.0408 0.2415
C32 C 0.9639(4) 1.0921(4) 0.0807(4)
H14 H 0.9933 1.1308 0.0846
C33 C 0.3934(4) 1.1764(4) 0.3938(3)
H15 H 0.4169 1.1365 0.3853
C34 C 0.2240(4) 1.4409(4) 0.4382(4)
H16 H 0.1969 1.4808 0.4296
C35 C 0.3608(5) 1.2187(5) 0.3548(3)
H17 H 0.3643 1.2089 0.3210
C36 C 0.3208(4) 1.2900(4) 0.4160(3)
C37 C 0.8677(4) 0.9585(5) -0.1106(3)
H18 H 0.8781 0.9749 -0.1414
C38 C 0.8287(5) 0.8985(5) -0.1099(3)
H19 H 0.8129 0.8738 -0.1400
C39 C 0.9907(5) 1.1473(5) -0.0746(5)
H20 H 1.0123 1.1820 -0.0910
C40 C 0.9323(4) 1.0583(4) -0.0607(3)
C41 C 0.8136(4) 0.8756(4) -0.0643(3)
H21 H 0.7876 0.8345 -0.0640
C42 C 0.3494(5) 1.2735(5) 0.6104(3)
H22 H 0.3491 1.2775 0.6453
C43 C 0.6855(5) 1.0882(5) 0.2691(3)
O10 O 0.7006(3) 0.8608(3) 0.0103(2)
H23 H 0.6961 0.8263 -0.0081
H24 H 0.6729 0.8679 0.0277
O11 O 0.4027(3) 1.0318(3) 0.50405(18)
H25 H 0.3707 1.0235 0.4832
H26 H 0.4235 0.9972 0.5152
Cd1C Cd 0.69689(3) 1.38115(3) 0.44319(2)
Cd2E Cd 0.46401(3) 0.86406(3) 0.01124(2)
O5C O 0.8736(3) 0.8080(3) 0.12035(19)
O6C O 0.8152(3) 0.7571(3) 0.05259(19)
O9E O 0.5066(3) 1.0895(3) 0.58743(19)
O12 O 0.9365(12) 0.8235(11) 0.2284(8)
H27 H 0.9174 0.8206 0.1995
H28 H 0.9325 0.8528 0.2498
O13 O 0.7711(8) 0.8508(8) 0.2238(6)
H29 H 0.7519 0.8188 0.2073
H30 H 0.7684 0.8807 0.2018
O14 O 0.0421(4) 0.2478(3) 0.0563(3)
H31 H 0.0291 0.2198 0.0339
H32 H 0.0601 0.2863 0.0601
O15 O 0.3107(11) 0.8890(12) 0.2013(6)
H33 H 0.2931 0.8950 0.1723
H34 H 0.2877 0.8796 0.2219
O16 O 0.6912(11) 0.7786(11) 0.1540(7)
H35 H 0.7192 0.8049 0.1468
H36 H 0.6602 0.7983 0.1373
O17 O 0.0440(8) 0.2433(6) 0.1608(4)
H37 H 0.0439 0.2449 0.1306
H38 H 0.0740 0.2511 0.1835
O18 O 0.9253(9) 0.0801(7) 0.7947(4)
O19 O 0.0537(10) 0.6576(11) 0.7838(7)
H39 H 0.0293 0.6824 0.7968
H40 H 0.0916 0.6453 0.7877
H41? H 0.8936 0.8094 0.1947
H42? H 0.9086 0.8429 0.2447
H43? H 0.1725 0.8566 0.7671
H44? H 0.1173 0.8256 0.7500
H45? H 0.2838 0.8885 0.2235
H46? H 0.2897 0.9066 0.1706
O20? O 0.8985(14) 0.8102(11) 0.2252(8)
O21? O 0.137(2) 0.848(2) 0.7738(14)
O22? O 0.2899(13) 0.9139(13) 0.2003(7)
loop_
_geom_bond_atom_site_label_1
_geom_bond_atom_site_label_2
_geom_bond_site_symmetry_1
_geom_bond_site_symmetry_2
Cd1 N1 1_555 1_555
Cd2 N3 1_555 1_555
N1 C16 1_555 1_555
N2 Cd1 1_555 1_555
N3 C13 1_555 1_555
N4 Cd2 1_555 1_555
N5 H1 1_555 1_555
N6 C9 1_555 1_555
N7 H2 1_555 1_555
N8 C19 1_555 1_555
O1 C26 1_555 1_555
O2 Cd1 1_555 1_555
O3 C5 1_555 1_555
O4 Cd2 1_555 1_555
O5 C23 1_555 1_555
O6 C23 1_555 1_555
O7 C43 1_555 1_555
O8 C2 1_555 1_555
O9 C2 1_555 1_555
C1 C16 1_555 1_555
C2 C11 1_555 1_555
C3 N5 1_555 1_555
C4 H3 1_555 1_555
C5 O4 1_555 1_555
C6 C4 1_555 1_555
C7 C5 1_555 1_555
C8 N4 1_555 1_555
C9 C3 1_555 1_555
C10 C4 1_555 1_555
C11 C12 1_555 1_555
C12 C26 1_555 1_555
C13 C8 1_555 1_555
C14 H4 1_555 1_555
C15 C3 1_555 1_555
C16 C30 1_555 1_555
C17 N1 1_555 1_555
H5 C17 1_555 1_555
C18 C30 1_555 1_555
C19 C1 1_555 1_555
C20 N4 1_555 1_555
H6 C20 1_555 1_555
C21 C27 1_555 1_555
C22 C7 1_555 1_555
H7 C22 1_555 1_555
C23 C10 1_555 1_555
C24 C6 1_555 1_555
H8 C24 1_555 1_555
C25 H9 1_555 1_555
C26 O2 1_555 1_555
C27 C12 1_555 1_555
H10 C27 1_555 1_555
C28 C11 1_555 1_555
H11 C28 1_555 1_555
C29 C17 1_555 1_555
H12 C29 1_555 1_555
C30 N2 1_555 1_555
C31 C21 1_555 1_555
H13 C31 1_555 1_555
C32 C1 1_555 1_555
H14 C32 1_555 1_555
C33 N3 1_555 1_555
H15 C33 1_555 1_555
C34 N5 1_555 1_555
H16 C34 1_555 1_555
C35 C25 1_555 1_555
H17 C35 1_555 1_555
C36 C9 1_555 1_555
C37 C18 1_555 1_555
H18 C37 1_555 1_555
C38 C37 1_555 1_555
H19 C38 1_555 1_555
C39 N7 1_555 1_555
H20 C39 1_555 1_555
C40 N7 1_555 1_555
C41 N2 1_555 1_555
H21 C41 1_555 1_555
C42 C14 1_555 1_555
H22 C42 1_555 1_555
C43 C6 1_555 1_555
O10 Cd1 1_555 1_555
H23 O10 1_555 1_555
H24 O10 1_555 1_555
O11 Cd2 1_555 1_555
H25 O11 1_555 1_555
H26 O11 1_555 1_555
O12 H27 1_555 1_555
H28 O12 1_555 1_555
O13 H29 1_555 1_555
H30 O13 1_555 1_555
O14 H31 1_555 1_555
H32 O14 1_555 1_555
O15 H33 1_555 1_555
H34 O15 1_555 1_555
O16 H35 1_555 1_555
H36 O16 1_555 1_555
O17 H37 1_555 1_555
H38 O17 1_555 1_555
O19 H39 1_555 1_555
H40 O19 1_555 1_555
Cd1C O5 1_555 1_555
Cd2E O9 1_555 1_555
O5C Cd1 1_555 1_555
O6C Cd1 1_555 1_555
O9E Cd2 1_555 1_555
N6 C34 1_555 1_555
N8 C39 1_555 1_555
O6 Cd1C 1_555 1_555
C7 C10 1_555 1_555
C8 C15 1_555 1_555
C13 C36 1_555 1_555
C14 C15 1_555 1_555
C18 C40 1_555 1_555
C19 C40 1_555 1_555
C20 C42 1_555 1_555
C21 C43 1_555 1_555
C22 C24 1_555 1_555
C25 C36 1_555 1_555
C28 C31 1_555 1_555
C29 C32 1_555 1_555
C33 C35 1_555 1_555
C38 C41 1_555 1_555

#END
