
#######################################################################
#
#                 Cambridge Crystallographic Data Centre
#                                CCDC 
#
#######################################################################
#
# If this CIF has been generated from an entry in the Cambridge 
# Structural Database, then it will include bibliographic, chemical, 
# crystal, experimental, refinement or atomic coordinate data resulting 
# from the CCDC's data processing and validation procedures.
#
#######################################################################

data_GUCYIN
_symmetry_cell_setting           monoclinic
_symmetry_space_group_name_H-M   'P 21/c'
_symmetry_Int_Tables_number      14
_space_group_name_Hall           '-P 2ybc'
loop_
_symmetry_equiv_pos_site_id
_symmetry_equiv_pos_as_xyz
1 x,y,z
2 -x,1/2+y,1/2-z
3 -x,-y,-z
4 x,1/2-y,1/2+z
_cell_length_a                   9.6268(15)
_cell_length_b                   12.892(2)
_cell_length_c                   17.778(3)
_cell_angle_alpha                90
_cell_angle_beta                 90.000(2)
_cell_angle_gamma                90
_cell_volume                     2206.4
loop_
_atom_site_label
_atom_site_type_symbol
_atom_site_fract_x
_atom_site_fract_y
_atom_site_fract_z
Zn1 Zn -0.05293(3) 1.11364(2) 0.200454(16)
C1 C 0.0869(3) 0.8618(2) 0.43652(14)
C2 C 0.0078(3) 0.7859(2) 0.47092(14)
H1 H -0.0875 0.7823 0.4630
C3 C 0.0737(3) 0.7153(2) 0.51741(15)
C4 C 0.2154(3) 0.7210(2) 0.52920(15)
H2 H 0.2595 0.6722 0.5594
C5 C 0.2913(3) 0.7994(2) 0.49599(15)
C6 C 0.2274(3) 0.8705(2) 0.44825(15)
H3 H 0.2786 0.9226 0.4249
C7 C -0.1102(3) 0.9818(2) 0.41084(15)
H4 H -0.1639 0.9675 0.4531
C8 C -0.1392(3) 1.0493(2) 0.35578(15)
H5 H -0.2178 1.0911 0.3539
C9 C 0.0557(3) 0.9799(2) 0.32641(15)
H6 H 0.1375 0.9632 0.3013
C10 C 0.4931(4) 0.7864(3) 0.5825(2)
H7 H 0.4501 0.7550 0.6234
C11 C 0.6261(4) 0.8162(3) 0.5775(2)
H8 H 0.6914 0.8074 0.6155
C12 C 0.5361(4) 0.8558(3) 0.4740(2)
H9 H 0.5244 0.8802 0.4252
C13 C -0.1329(3) 0.5969(2) 0.52699(18)
H10 H -0.1847 0.6212 0.4865
C14 C -0.1666(3) 0.5182(2) 0.57306(17)
H11 H -0.2477 0.4792 0.5701
C15 C 0.0301(3) 0.5752(2) 0.61083(15)
H12 H 0.1116 0.5839 0.6382
C16 C 0.3353(3) 1.2466(2) 0.20786(14)
C17 C 0.3039(3) 1.3464(2) 0.23086(17)
H13 H 0.2117 1.3677 0.2338
C18 C 0.4098(3) 1.4146(2) 0.24947(19)
H14 H 0.3887 1.4823 0.2634
C19 C 0.5472(3) 1.3821(2) 0.24732(17)
H15 H 0.6178 1.4274 0.2613
C20 C 0.5794(3) 1.28175(19) 0.22430(14)
C21 C 0.4727(3) 1.2150(2) 0.20424(14)
H16 H 0.4936 1.1481 0.1882
C22 C 0.2198(3) 1.1719(2) 0.19077(15)
C23 C 0.7272(3) 1.2446(2) 0.22746(15)
N1 N -0.0362(2) 1.04773(17) 0.30251(12)
N2 N 0.0152(2) 0.93785(17) 0.39225(12)
N3 N -0.0633(2) 0.50412(17) 0.62510(12)
N4 N -0.0064(2) 0.63452(17) 0.55139(12)
N5 N 0.6534(3) 0.8604(3) 0.51049(18)
N6 N 0.4333(2) 0.81171(18) 0.51481(13)
O1 O 0.09865(18) 1.21066(14) 0.18760(11)
O2 O 0.2451(2) 1.07853(17) 0.18301(15)
O3 O 0.75575(18) 1.16266(14) 0.18980(11)
O4 O 0.8122(2) 1.29123(16) 0.26650(13)
Zn1_2 Zn 0.94707(3) 1.11364(2) 0.200454(16)
Zn1C Zn -0.05293(3) 0.38636(2) 0.700454(16)
N3C N -0.0633(2) 0.99588(17) 0.12510(12)
O3_2 O -0.24425(18) 1.16266(14) 0.18980(11)
O5 O 0.4186(5) 0.9877(3) 0.0700(2)
loop_
_geom_bond_atom_site_label_1
_geom_bond_atom_site_label_2
_geom_bond_site_symmetry_1
_geom_bond_site_symmetry_2
Zn1 N1 1_555 1_555
C1 C2 1_555 1_555
C2 H1 1_555 1_555
C3 C2 1_555 1_555
C4 C3 1_555 1_555
H2 C4 1_555 1_555
C5 C4 1_555 1_555
C6 C1 1_555 1_555
H3 C6 1_555 1_555
C7 H4 1_555 1_555
C8 C7 1_555 1_555
H5 C8 1_555 1_555
C9 H6 1_555 1_555
C10 H7 1_555 1_555
C11 C10 1_555 1_555
H8 C11 1_555 1_555
C12 H9 1_555 1_555
C13 H10 1_555 1_555
C14 C13 1_555 1_555
H11 C14 1_555 1_555
C15 H12 1_555 1_555
C16 C17 1_555 1_555
C17 H13 1_555 1_555
C18 C17 1_555 1_555
H14 C18 1_555 1_555
C19 C18 1_555 1_555
H15 C19 1_555 1_555
C20 C19 1_555 1_555
C21 C16 1_555 1_555
H16 C21 1_555 1_555
C22 C16 1_555 1_555
C23 C20 1_555 1_555
N1 C8 1_555 1_555
N2 C1 1_555 1_555
N3 C14 1_555 1_555
N4 C3 1_555 1_555
N5 C11 1_555 1_555
N6 C5 1_555 1_555
O1 Zn1 1_555 1_555
O2 C22 1_555 1_555
O3 C23 1_555 1_555
O4 C23 1_555 1_555
Zn1_2 O3 1_555 1_555
Zn1C N3 1_555 1_555
N3C Zn1 1_555 1_555
O3_2 Zn1 1_555 1_555
C5 C6 1_555 1_555
C7 N2 1_555 1_555
C9 N1 1_555 1_555
C9 N2 1_555 1_555
C10 N6 1_555 1_555
C12 N5 1_555 1_555
C12 N6 1_555 1_555
C13 N4 1_555 1_555
C15 N3 1_555 1_555
C15 N4 1_555 1_555
C20 C21 1_555 1_555
C22 O1 1_555 1_555

#END
