
#######################################################################
#
#                 Cambridge Crystallographic Data Centre
#                                CCDC 
#
#######################################################################
#
# If this CIF has been generated from an entry in the Cambridge 
# Structural Database, then it will include bibliographic, chemical, 
# crystal, experimental, refinement or atomic coordinate data resulting 
# from the CCDC's data processing and validation procedures.
#
#######################################################################

data_GUCYUZ
_symmetry_cell_setting           monoclinic
_symmetry_space_group_name_H-M   'P 21/n'
_symmetry_Int_Tables_number      14
_space_group_name_Hall           '-P 2yn'
loop_
_symmetry_equiv_pos_site_id
_symmetry_equiv_pos_as_xyz
1 x,y,z
2 1/2-x,1/2+y,1/2-z
3 -x,-y,-z
4 1/2+x,1/2-y,1/2+z
_cell_length_a                   11.1930(17)
_cell_length_b                   17.775(3)
_cell_length_c                   12.4971(18)
_cell_angle_alpha                90
_cell_angle_beta                 110.768(3)
_cell_angle_gamma                90
_cell_volume                     2324.81
loop_
_atom_site_label
_atom_site_type_symbol
_atom_site_fract_x
_atom_site_fract_y
_atom_site_fract_z
Zn1 Zn 0.38531(4) 0.21985(2) 0.19488(3)
Zn2 Zn 0.20400(5) 0.44707(2) -0.05441(3)
C1 C 0.6619(4) 0.04992(18) -0.0019(3)
C2 C 0.6929(4) 0.05129(19) -0.0989(3)
H1 H 0.6571 0.0870 -0.1556
C3 C 0.7785(4) -0.00147(19) -0.1107(3)
C4 C 0.8389(4) -0.05165(19) -0.0242(3)
H2 H 0.8973 -0.0863 -0.0322
C5 C 0.8105(4) -0.04917(19) 0.0746(3)
C6 C 0.7207(4) -0.00022(19) 0.0863(3)
H3 H 0.6997 -0.0007 0.1519
C7 C 0.4855(4) 0.14382(19) -0.0793(3)
H4 H 0.4801 0.1446 -0.1552
C8 C 0.4150(4) 0.1844(2) -0.0332(3)
H5 H 0.3520 0.2186 -0.0726
C9 C 0.5409(4) 0.1176(2) 0.1024(3)
H6 H 0.5824 0.0961 0.1739
C10 C 0.8782(5) -0.0961(3) 0.2754(3)
H7 H 0.8337 -0.0625 0.3044
C11 C 0.9574(4) -0.1509(2) 0.3333(3)
H8 H 0.9774 -0.1611 0.4107
C12 C 0.9519(4) -0.1563(2) 0.1628(3)
H9 H 0.9669 -0.1714 0.0974
C13 C 0.9014(4) -0.0437(2) -0.2326(3)
H10 H 0.9646 -0.0721 -0.1795
C14 C 0.8867(4) -0.0321(2) -0.3435(3)
H11 H 0.9397 -0.0513 -0.3798
C15 C 0.7352(4) 0.0271(2) -0.3142(3)
H12 H 0.6629 0.0564 -0.3252
C16 C 0.0023(4) 0.26841(19) 0.1058(3)
C17 C -0.0645(4) 0.2370(2) 0.1692(3)
H13 H -0.0200 0.2158 0.2403
C18 C -0.1952(5) 0.2367(3) 0.1284(4)
H14 H -0.2391 0.2163 0.1723
C19 C -0.2615(5) 0.2667(3) 0.0227(4)
H15 H -0.3504 0.2663 -0.0055
C20 C -0.1966(4) 0.2973(2) -0.0413(3)
H16 H -0.2422 0.3172 -0.1130
C21 C -0.0654(4) 0.29918(19) -0.0018(3)
C22 C 0.1466(4) 0.2666(2) 0.1585(3)
C23 C 0.0010(4) 0.3412(2) -0.0660(3)
Cl1 Cl 0.33476(11) 0.38792(6) -0.12629(9)
Cl2 Cl 0.09274(11) 0.53525(6) -0.17377(9)
N1 N 0.4500(3) 0.16758(16) 0.0813(2)
N2 N 0.5674(3) 0.10074(15) 0.0073(2)
N3 N 1.0036(3) -0.18886(17) 0.2635(2)
N4 N 0.8759(3) -0.09948(16) 0.1656(2)
N5 N 0.7820(3) 0.01207(17) -0.3941(2)
N6 N 0.8049(3) -0.00522(16) -0.2143(2)
O1 O 0.2031(3) 0.30285(16) 0.2454(2)
O2 O 0.2022(2) 0.22220(14) 0.1107(2)
O3 O 0.1024(3) 0.37327(15) -0.0074(2)
O4 O -0.0467(3) 0.34735(14) -0.1736(2)
Zn1A Zn 1.11469(4) -0.28015(2) 0.30512(3)
Zn1C Zn -0.11469(4) 0.28015(2) -0.30512(3)
Zn2C Zn 0.70400(5) 0.05293(2) -0.55441(3)
N3A N 0.4964(3) 0.31114(17) 0.2365(2)
N5C N 0.2820(3) 0.48793(17) 0.1059(2)
O4C O 0.4533(3) 0.15265(14) 0.3264(2)
loop_
_geom_bond_atom_site_label_1
_geom_bond_atom_site_label_2
_geom_bond_site_symmetry_1
_geom_bond_site_symmetry_2
Zn1 N1 1_555 1_555
Zn2 Cl1 1_555 1_555
C1 C2 1_555 1_555
C2 H1 1_555 1_555
C3 C2 1_555 1_555
C4 C3 1_555 1_555
H2 C4 1_555 1_555
C5 C4 1_555 1_555
C6 C1 1_555 1_555
H3 C6 1_555 1_555
C7 H4 1_555 1_555
C8 C7 1_555 1_555
H5 C8 1_555 1_555
C9 H6 1_555 1_555
C10 H7 1_555 1_555
C11 C10 1_555 1_555
H8 C11 1_555 1_555
C12 H9 1_555 1_555
C13 H10 1_555 1_555
C14 C13 1_555 1_555
H11 C14 1_555 1_555
C15 H12 1_555 1_555
C16 C17 1_555 1_555
C17 H13 1_555 1_555
C18 C17 1_555 1_555
H14 C18 1_555 1_555
C19 C18 1_555 1_555
H15 C19 1_555 1_555
C20 C19 1_555 1_555
H16 C20 1_555 1_555
C21 C16 1_555 1_555
C22 C16 1_555 1_555
C23 C21 1_555 1_555
Cl2 Zn2 1_555 1_555
N1 C8 1_555 1_555
N2 C1 1_555 1_555
N3 C11 1_555 1_555
N4 C5 1_555 1_555
N5 C14 1_555 1_555
N6 C3 1_555 1_555
O1 C22 1_555 1_555
O2 Zn1 1_555 1_555
O3 Zn2 1_555 1_555
O4 C23 1_555 1_555
Zn1A N3 1_555 1_555
Zn1C O4 1_555 1_555
Zn2C N5 1_555 1_555
N3A Zn1 1_555 1_555
N5C Zn2 1_555 1_555
O4C Zn1 1_555 1_555
C5 C6 1_555 1_555
C7 N2 1_555 1_555
C9 N1 1_555 1_555
C9 N2 1_555 1_555
C10 N4 1_555 1_555
C12 N3 1_555 1_555
C12 N4 1_555 1_555
C13 N6 1_555 1_555
C15 N5 1_555 1_555
C15 N6 1_555 1_555
C20 C21 1_555 1_555
C22 O2 1_555 1_555
C23 O3 1_555 1_555

#END
