
#######################################################################
#
#                 Cambridge Crystallographic Data Centre
#                                CCDC 
#
#######################################################################
#
# If this CIF has been generated from an entry in the Cambridge 
# Structural Database, then it will include bibliographic, chemical, 
# crystal, experimental, refinement or atomic coordinate data resulting 
# from the CCDC's data processing and validation procedures.
#
#######################################################################

data_GUCYOT
_symmetry_cell_setting           monoclinic
_symmetry_space_group_name_H-M   'P 21/n'
_symmetry_Int_Tables_number      14
_space_group_name_Hall           '-P 2yn'
loop_
_symmetry_equiv_pos_site_id
_symmetry_equiv_pos_as_xyz
1 x,y,z
2 1/2-x,1/2+y,1/2-z
3 -x,-y,-z
4 1/2+x,1/2-y,1/2+z
_cell_length_a                   13.8446(12)
_cell_length_b                   15.6176(14)
_cell_length_c                   15.4016(14)
_cell_angle_alpha                90
_cell_angle_beta                 105.371(2)
_cell_angle_gamma                90
_cell_volume                     3211.01
loop_
_atom_site_label
_atom_site_type_symbol
_atom_site_fract_x
_atom_site_fract_y
_atom_site_fract_z
Zn1 Zn -0.22413(5) 0.06739(3) 0.19448(4)
Zn2 Zn 0.32217(5) 0.64697(3) 0.27127(4)
C1 C 0.0722(4) 0.4040(3) 0.0732(3)
C2 C -0.0025(4) 0.3490(3) 0.0823(3)
H1 H -0.0294 0.3541 0.1314
C3 C -0.0367(4) 0.2876(3) 0.0192(3)
C4 C 0.0004(4) 0.2797(3) -0.0559(3)
H2 H -0.0236 0.2378 -0.0991
C5 C 0.0742(4) 0.3361(3) -0.0644(3)
C6 C 0.1101(4) 0.3989(3) -0.0013(3)
H3 H 0.1589 0.4372 -0.0086
C7 C 0.0834(6) 0.4773(5) 0.2183(5)
H4 H 0.0294 0.4518 0.2334
C8 C 0.1480(6) 0.5354(5) 0.2674(5)
H5 H 0.1459 0.5557 0.3236
C9 C 0.1893(5) 0.5189(3) 0.1482(4)
H6 H 0.2199 0.5269 0.1019
C10 C -0.1793(4) 0.1854(3) -0.0336(3)
H7 H -0.1908 0.1916 -0.0956
C11 C -0.2284(4) 0.1332(3) 0.0092(3)
H8 H -0.2812 0.0973 -0.0185
C12 C -0.1176(4) 0.1975(3) 0.1117(3)
H9 H -0.0776 0.2152 0.1673
C13 C 0.1392(4) 0.2507(3) -0.1748(3)
H10 H 0.1196 0.1961 -0.1622
C14 C 0.1920(4) 0.2709(3) -0.2332(3)
H11 H 0.2172 0.2317 -0.2670
C15 C 0.1599(4) 0.3886(3) -0.1762(3)
H12 H 0.1574 0.4464 -0.1626
C16 C -0.5446(4) -0.2442(3) 0.0878(3)
C17 C -0.5658(4) -0.2400(3) -0.0046(4)
H13 H -0.6119 -0.2778 -0.0397
C18 C -0.5194(5) -0.1805(4) -0.0452(4)
H14 H -0.5346 -0.1779 -0.1077
C19 C -0.4510(4) -0.1249(3) 0.0055(4)
H15 H -0.4204 -0.0845 -0.0228
C20 C -0.4268(4) -0.1283(3) 0.0990(3)
C21 C -0.4756(4) -0.1887(3) 0.1383(3)
H16 H -0.4610 -0.1915 0.2007
C22 C -0.5998(4) -0.3064(3) 0.1330(4)
C23 C -0.3542(4) -0.0674(3) 0.1569(4)
C24 C 0.0243(4) -0.0716(3) 0.3263(3)
C25 C 0.0334(5) -0.0663(4) 0.4173(4)
H17 H -0.0080 -0.0291 0.4381
C26 C 0.1023(5) -0.1150(4) 0.4782(4)
H18 H 0.1089 -0.1094 0.5396
C27 C 0.1613(5) -0.1720(4) 0.4476(4)
H19 H 0.2065 -0.2065 0.4883
C28 C 0.1538(4) -0.1785(3) 0.3557(3)
C29 C 0.0867(4) -0.1277(3) 0.2968(3)
H20 H 0.0828 -0.1307 0.2357
C30 C -0.0537(4) -0.0227(3) 0.2604(4)
C31 C 0.2168(4) -0.2414(3) 0.3193(4)
N1 N 0.2160(4) 0.5597(3) 0.2233(3)
N2 N 0.1139(4) 0.4642(3) 0.1425(3)
N3 N -0.1879(3) 0.1413(2) 0.1011(3)
N4 N -0.1092(3) 0.2276(2) 0.0314(3)
N5 N 0.2034(3) 0.3583(2) -0.2358(3)
N6 N 0.1196(3) 0.3261(2) -0.1373(3)
O1 O -0.5811(3) -0.2985(2) 0.2190(2)
O2 O -0.6600(3) -0.3569(3) 0.0894(3)
O3 O -0.3401(3) -0.0696(3) 0.2396(3)
O4 O -0.3096(3) -0.0160(2) 0.1165(2)
O5 O -0.1135(3) 0.0227(2) 0.2902(2)
O6 O -0.0578(3) -0.0270(2) 0.1786(2)
O7 O 0.2732(3) -0.2918(2) 0.3727(3)
O8 O 0.2108(3) -0.2425(2) 0.2379(3)
O9 O 0.4212(4) 0.5781(3) 0.3678(3)
H22 H 0.426(8) 0.575(6) 0.422(2)
H24 H 0.449(8) 0.536(4) 0.353(6)
Zn1C Zn 0.27587(5) 0.43261(3) -0.30552(4)
Zn2_2 Zn -0.67783(5) -0.35303(3) 0.27127(4)
Zn2_3 Zn 0.32217(5) -0.35303(3) 0.27127(4)
N5C N -0.2966(3) 0.1417(2) 0.2642(3)
O1_2 O 0.4189(3) 0.7015(2) 0.2190(2)
O7_2 O 0.2732(3) 0.7082(2) 0.3727(3)
O8_2 O 0.2108(3) 0.7575(2) 0.2379(3)
O10 O 0.2279(4) 0.5700(3) -0.0673(3)
H21 H 0.226(8) 0.591(6) -0.117(3)
H25 H 0.271(6) 0.598(6) -0.030(5)
O11 O 0.3395(6) -0.4181(5) 0.5038(4)
H23 H 0.391(6) -0.390(7) 0.522(9)
H26 H 0.339(9) -0.438(6) 0.553(4)
loop_
_geom_bond_atom_site_label_1
_geom_bond_atom_site_label_2
_geom_bond_site_symmetry_1
_geom_bond_site_symmetry_2
Zn1 N3 1_555 1_555
Zn2 N1 1_555 1_555
C1 C2 1_555 1_555
C2 H1 1_555 1_555
C3 C2 1_555 1_555
C4 C3 1_555 1_555
H2 C4 1_555 1_555
C5 C4 1_555 1_555
C6 C1 1_555 1_555
H3 C6 1_555 1_555
C7 H4 1_555 1_555
C8 C7 1_555 1_555
H5 C8 1_555 1_555
C9 H6 1_555 1_555
C10 H7 1_555 1_555
C11 C10 1_555 1_555
H8 C11 1_555 1_555
C12 H9 1_555 1_555
C13 H10 1_555 1_555
C14 C13 1_555 1_555
H11 C14 1_555 1_555
C15 H12 1_555 1_555
C16 C17 1_555 1_555
C17 H13 1_555 1_555
C18 C17 1_555 1_555
H14 C18 1_555 1_555
C19 C18 1_555 1_555
H15 C19 1_555 1_555
C20 C19 1_555 1_555
C21 C16 1_555 1_555
H16 C21 1_555 1_555
C22 C16 1_555 1_555
C23 C20 1_555 1_555
C24 C25 1_555 1_555
C25 H17 1_555 1_555
C26 C25 1_555 1_555
H18 C26 1_555 1_555
C27 C26 1_555 1_555
H19 C27 1_555 1_555
C28 C27 1_555 1_555
C29 C24 1_555 1_555
H20 C29 1_555 1_555
C30 C24 1_555 1_555
C31 C28 1_555 1_555
N1 C8 1_555 1_555
N2 C1 1_555 1_555
N3 C11 1_555 1_555
N4 C3 1_555 1_555
N5 C14 1_555 1_555
N6 C5 1_555 1_555
O1 C22 1_555 1_555
O2 C22 1_555 1_555
O3 C23 1_555 1_555
O4 Zn1 1_555 1_555
O5 Zn1 1_555 1_555
O6 C30 1_555 1_555
O7 C31 1_555 1_555
O8 C31 1_555 1_555
O9 Zn2 1_555 1_555
O10 H21 1_555 1_555
O11 H23 1_555 1_555
H22 O9 1_555 1_555
H24 O9 1_555 1_555
H25 O10 1_555 1_555
H26 O11 1_555 1_555
Zn1C N5 1_555 1_555
Zn2_2 O1 1_555 1_555
Zn2_3 O7 1_555 1_555
N5C Zn1 1_555 1_555
O1_2 Zn2 1_555 1_555
O7_2 Zn2 1_555 1_555
O8_2 Zn2 1_555 1_555
C5 C6 1_555 1_555
C7 N2 1_555 1_555
C9 N1 1_555 1_555
C9 N2 1_555 1_555
C10 N4 1_555 1_555
C12 N3 1_555 1_555
C12 N4 1_555 1_555
C13 N6 1_555 1_555
C15 N5 1_555 1_555
C15 N6 1_555 1_555
C20 C21 1_555 1_555
C23 O4 1_555 1_555
C28 C29 1_555 1_555
C30 O5 1_555 1_555
O8 Zn2_3 1_555 1_555

#END
