
#######################################################################
#
#                 Cambridge Crystallographic Data Centre
#                                CCDC 
#
#######################################################################
#
# If this CIF has been generated from an entry in the Cambridge 
# Structural Database, then it will include bibliographic, chemical, 
# crystal, experimental, refinement or atomic coordinate data resulting 
# from the CCDC's data processing and validation procedures.
#
#######################################################################

data_GUCZOU
_symmetry_cell_setting           triclinic
_symmetry_space_group_name_H-M   'P -1'
_symmetry_Int_Tables_number      2
_space_group_name_Hall           '-P 1'
loop_
_symmetry_equiv_pos_site_id
_symmetry_equiv_pos_as_xyz
1 x,y,z
2 -x,-y,-z
_cell_length_a                   12.2042(13)
_cell_length_b                   13.5443(15)
_cell_length_c                   13.9699(14)
_cell_angle_alpha                89.426(2)
_cell_angle_beta                 73.780(3)
_cell_angle_gamma                82.520(2)
_cell_volume                     2197.56
loop_
_atom_site_label
_atom_site_type_symbol
_atom_site_fract_x
_atom_site_fract_y
_atom_site_fract_z
Zn1 Zn 0.84454(6) 0.33743(5) 0.09921(4)
Zn2 Zn 1.15100(5) 0.01288(5) -0.72648(4)
Zn3 Zn 0.62145(5) 1.22895(5) 0.51653(4)
Br1 Br 1.64900(7) -0.45474(7) -1.05274(5)
C1 C 1.1066(4) 0.3289(4) -0.4689(4)
C2 C 1.1351(4) 0.4245(4) -0.4812(4)
H1 H 1.1789 0.4441 -0.5424
C3 C 1.0966(4) 0.4905(4) -0.3998(4)
C4 C 1.0246(4) 0.4639(4) -0.3112(4)
H2 H 0.9956 0.5096 -0.2581
C5 C 0.9965(4) 0.3687(4) -0.3028(4)
C6 C 1.0389(4) 0.2984(4) -0.3807(4)
H3 H 1.0219 0.2333 -0.3733
C7 C 1.2472(5) 0.2691(5) -0.6314(4)
H4 H 1.2928 0.3203 -0.6409
C8 C 1.2593(6) 0.1897(5) -0.6924(4)
H5 H 1.3163 0.1768 -0.7526
C9 C 1.1139(5) 0.1746(4) -0.5686(4)
H6 H 1.0509 0.1502 -0.5257
C10 C 1.0725(5) 0.6726(4) -0.3539(4)
H7 H 1.0025 0.6781 -0.3046
C11 C 1.1377(5) 0.7445(4) -0.3836(4)
H8 H 1.1201 0.8098 -0.3586
C12 C 1.2264(5) 0.6137(4) -0.4699(4)
H9 H 1.2815 0.5701 -0.5150
C13 C 0.8496(5) 0.2714(5) -0.1934(4)
H10 H 0.8307 0.2362 -0.2421
C14 C 0.8065(5) 0.2659(5) -0.0946(4)
H11 H 0.7519 0.2255 -0.0626
C15 C 0.9258(5) 0.3722(4) -0.1183(4)
H12 H 0.9697 0.4200 -0.1073
C16 C 0.7359(4) 0.7247(4) 0.2127(4)
C17 C 0.7781(4) 0.7635(4) 0.1194(4)
H13 H 0.7983 0.7228 0.0623
C18 C 0.7897(4) 0.8623(4) 0.1127(4)
C19 C 0.7586(4) 0.9256(4) 0.1957(4)
H14 H 0.7673 0.9928 0.1897
C20 C 0.7142(4) 0.8858(4) 0.2880(4)
C21 C 0.7039(4) 0.7862(4) 0.2972(3)
H15 H 0.6757 0.7602 0.3598
C22 C 0.6632(5) 0.5711(4) 0.2971(4)
H16 H 0.6168 0.5986 0.3580
C23 C 0.6808(5) 0.4750(4) 0.2676(4)
H17 H 0.6466 0.4243 0.3049
C24 C 0.7827(5) 0.5514(4) 0.1486(4)
H18 H 0.8336 0.5651 0.0883
C25 C 0.9569(5) 0.8952(5) -0.0266(4)
H19 H 1.0149 0.8767 0.0038
C26 C 0.9704(6) 0.9237(5) -0.1210(4)
H20 H 1.0407 0.9289 -0.1674
C27 C 0.7924(5) 0.9249(5) -0.0546(4)
H21 H 0.7135 0.9294 -0.0461
C28 C 0.6561(5) 0.9222(4) 0.4723(4)
H22 H 0.6529 0.8576 0.4953
C29 C 0.6372(5) 1.0062(4) 0.5281(4)
H23 H 0.6188 1.0094 0.5974
C30 C 0.6754(5) 1.0494(4) 0.3764(4)
H24 H 0.6885 1.0879 0.3199
C31 C 1.5646(5) -0.3389(5) -0.9779(4)
C32 C 1.5170(5) -0.3457(4) -0.8791(4)
H25 H 1.5232 -0.4067 -0.8486
C33 C 1.4583(4) -0.2608(4) -0.8226(4)
C34 C 1.4453(4) -0.1707(4) -0.8688(4)
C35 C 1.4956(5) -0.1657(5) -0.9712(4)
H26 H 1.4889 -0.1055 -1.0030
C36 C 1.5558(6) -0.2509(6) -1.0255(5)
H27 H 1.5898 -0.2479 -1.0938
C37 C 1.4157(5) -0.2709(5) -0.7111(4)
C38 C 1.3688(5) -0.0784(5) -0.8164(4)
Cl1 Cl 1.02687(13) 0.36393(12) 0.09309(10)
Cl2 Cl 0.75474(14) 0.21041(11) 0.16575(12)
Cl3 Cl 0.48113(13) 1.31648(12) 0.46301(10)
Cl4 Cl 0.97967(13) -0.03061(11) -0.64407(11)
N1 N 1.1766(4) 0.1310(3) -0.6535(3)
N2 N 1.1533(4) 0.2588(3) -0.5524(3)
N3 N 1.2356(4) 0.7077(3) -0.4573(3)
N4 N 1.1287(4) 0.5876(3) -0.4102(3)
N5 N 0.8558(4) 0.3293(3) -0.0480(3)
N6 N 0.9270(4) 0.3390(3) -0.2092(3)
N7 N 0.7570(4) 0.4630(3) 0.1738(3)
N8 N 0.7272(4) 0.6209(3) 0.2197(3)
N9 N 0.8666(4) 0.9437(3) -0.1382(3)
N10 N 0.8417(4) 0.8989(3) 0.0158(3)
N11 N 0.6490(4) 1.0854(3) 0.4684(3)
N12 N 0.6809(4) 0.9502(3) 0.3750(3)
O1 O 1.3699(5) -0.3430(4) -0.6769(3)
O2 O 1.4350(3) -0.2038(3) -0.6589(2)
O3 O 1.2738(3) -0.0981(3) -0.7558(3)
O4 O 1.3940(4) 0.0045(3) -0.8379(3)
Zn2A Zn 0.84900(5) 0.98712(5) -0.27352(4)
Zn3A Zn 1.37855(5) 0.77105(5) -0.51653(4)
Zn3A_2 Zn 1.37855(5) -0.22895(5) -0.51653(4)
N3A N 0.7644(4) 1.2923(3) 0.4573(3)
N9A N 1.1334(4) 0.0563(3) -0.8618(3)
O2A O 0.5650(3) 1.2038(3) 0.6589(2)
O5 O 0.7172(8) 0.5065(5) 0.6968(4)
O6 O 0.4864(14) 0.316(2) 0.2315(14)
loop_
_geom_bond_atom_site_label_1
_geom_bond_atom_site_label_2
_geom_bond_site_symmetry_1
_geom_bond_site_symmetry_2
Zn1 Cl1 1_555 1_555
Zn2 Cl4 1_555 1_555
Zn3 Cl3 1_555 1_555
Br1 C31 1_555 1_555
C1 C2 1_555 1_555
C2 H1 1_555 1_555
C3 C2 1_555 1_555
C4 C3 1_555 1_555
H2 C4 1_555 1_555
C5 C4 1_555 1_555
C6 C1 1_555 1_555
H3 C6 1_555 1_555
C7 H4 1_555 1_555
C8 C7 1_555 1_555
H5 C8 1_555 1_555
C9 H6 1_555 1_555
C10 H7 1_555 1_555
C11 C10 1_555 1_555
H8 C11 1_555 1_555
C12 H9 1_555 1_555
C13 H10 1_555 1_555
C14 C13 1_555 1_555
H11 C14 1_555 1_555
C15 H12 1_555 1_555
C16 C17 1_555 1_555
C17 H13 1_555 1_555
C18 C17 1_555 1_555
C19 C18 1_555 1_555
H14 C19 1_555 1_555
C20 C19 1_555 1_555
C21 C16 1_555 1_555
H15 C21 1_555 1_555
C22 H16 1_555 1_555
C23 C22 1_555 1_555
H17 C23 1_555 1_555
C24 H18 1_555 1_555
C25 H19 1_555 1_555
C26 C25 1_555 1_555
H20 C26 1_555 1_555
C27 H21 1_555 1_555
C28 H22 1_555 1_555
C29 C28 1_555 1_555
H23 C29 1_555 1_555
C30 H24 1_555 1_555
C31 C32 1_555 1_555
C32 H25 1_555 1_555
C33 C32 1_555 1_555
C34 C33 1_555 1_555
C35 C34 1_555 1_555
H26 C35 1_555 1_555
C36 C31 1_555 1_555
H27 C36 1_555 1_555
C37 C33 1_555 1_555
C38 C34 1_555 1_555
Cl2 Zn1 1_555 1_555
N1 Zn2 1_555 1_555
N2 C1 1_555 1_555
N3 C11 1_555 1_555
N4 C3 1_555 1_555
N5 Zn1 1_555 1_555
N6 C5 1_555 1_555
N7 Zn1 1_555 1_555
N8 C16 1_555 1_555
N9 C26 1_555 1_555
N10 C18 1_555 1_555
N11 Zn3 1_555 1_555
N12 C20 1_555 1_555
O1 C37 1_555 1_555
O2 C37 1_555 1_555
O3 Zn2 1_555 1_555
O4 C38 1_555 1_555
Zn2A N9 1_555 1_555
Zn3A N3 1_555 1_555
Zn3A_2 O2 1_555 1_555
N3A Zn3 1_555 1_555
N9A Zn2 1_555 1_555
O2A Zn3 1_555 1_555
C5 C6 1_555 1_555
C7 N2 1_555 1_555
C8 N1 1_555 1_555
C9 N1 1_555 1_555
C9 N2 1_555 1_555
C10 N4 1_555 1_555
C12 N3 1_555 1_555
C12 N4 1_555 1_555
C13 N6 1_555 1_555
C14 N5 1_555 1_555
C15 N5 1_555 1_555
C15 N6 1_555 1_555
C20 C21 1_555 1_555
C22 N8 1_555 1_555
C23 N7 1_555 1_555
C24 N7 1_555 1_555
C24 N8 1_555 1_555
C25 N10 1_555 1_555
C27 N9 1_555 1_555
C27 N10 1_555 1_555
C28 N12 1_555 1_555
C29 N11 1_555 1_555
C30 N11 1_555 1_555
C30 N12 1_555 1_555
C35 C36 1_555 1_555
C38 O3 1_555 1_555

#END
