
#######################################################################
#
#                 Cambridge Crystallographic Data Centre
#                                CCDC 
#
#######################################################################
#
# If this CIF has been generated from an entry in the Cambridge 
# Structural Database, then it will include bibliographic, chemical, 
# crystal, experimental, refinement or atomic coordinate data resulting 
# from the CCDC's data processing and validation procedures.
#
#######################################################################

data_GUDBIR
_symmetry_cell_setting           orthorhombic
_symmetry_space_group_name_H-M   'P 21 21 2'
_symmetry_Int_Tables_number      18
_space_group_name_Hall           'P 2 2ab'
loop_
_symmetry_equiv_pos_site_id
_symmetry_equiv_pos_as_xyz
1 x,y,z
2 -x,-y,z
3 1/2-x,1/2+y,-z
4 1/2+x,1/2-y,-z
_cell_length_a                   13.7585(14)
_cell_length_b                   17.730(2)
_cell_length_c                   8.6877(8)
_cell_angle_alpha                90
_cell_angle_beta                 90
_cell_angle_gamma                90
_cell_volume                     2119.26
loop_
_atom_site_label
_atom_site_type_symbol
_atom_site_fract_x
_atom_site_fract_y
_atom_site_fract_z
Ag1 Ag 0.15424(2) 0.79567(2) 0.93467(5)
O1 O 0.0924(6) 0.9040(3) 0.7848(10)
H1 H 0.142(5) 0.932(5) 0.750(14)
H2 H 0.031(3) 0.912(7) 0.753(14)
N1 N 0.3121(3) 0.7807(2) 0.9542(5)
N2 N 0.5043(3) 0.7414(2) 1.0106(5)
C1 C 0.3579(3) 0.8065(2) 1.0751(6)
C2 C 0.3611(3) 0.7347(3) 0.8527(6)
C3 C 0.3137(4) 0.7070(3) 0.7213(6)
H3 H 0.2500 0.7212 0.7005
C4 C 0.3614(4) 0.6590(3) 0.6237(6)
H4 H 0.3296 0.6407 0.5369
C5 C 0.4563(4) 0.6375(3) 0.6526(7)
H5 H 0.4877 0.6047 0.5853
C6 C 0.5049(4) 0.6644(3) 0.7810(6)
H6 H 0.5688 0.6501 0.8002
C7 C 0.4564(3) 0.7135(3) 0.8820(5)
C8 C 0.4587(3) 0.7870(3) 1.1029(5)
C9 C 0.3026(3) 0.8568(3) 1.1806(6)
C10 C 0.2627(4) 0.9227(3) 1.1250(7)
H7 H 0.2707 0.9361 1.0223
C11 C 0.2096(5) 0.9696(3) 1.2254(7)
H8 H 0.1816 1.0139 1.1887
C12 C 0.1991(5) 0.9501(3) 1.3774(7)
H9 H 0.1637 0.9810 1.4431
C13 C 0.2407(4) 0.8850(3) 1.4335(7)
H10 H 0.2343 0.8728 1.5372
C14 C 0.2921(4) 0.8373(3) 1.3362(7)
H11 H 0.3194 0.7930 1.3738
C15 C 0.5113(3) 0.8175(3) 1.2374(6)
C16 C 0.5346(4) 0.8940(3) 1.2416(8)
H12 H 0.5162 0.9259 1.1616
C17 C 0.5856(5) 0.9219(4) 1.3669(9)
H13 H 0.6032 0.9725 1.3680
C18 C 0.6108(4) 0.8774(4) 1.4883(8)
H14 H 0.6439 0.8974 1.5723
C19 C 0.5865(5) 0.8027(4) 1.4838(7)
H15 H 0.6030 0.7718 1.5663
C20 C 0.5373(4) 0.7718(3) 1.3582(6)
H16 H 0.5223 0.7207 1.3563
Ag1C Ag 0.65424(2) 0.70433(2) 1.06533(5)
N2C N 0.0043(3) 0.7586(2) 0.9894(5)
B1 B 0.1844(8) 1.0934(5) 1.8194(10)
F1 F 0.2580(12) 1.1068(10) 1.9206(14)
F2 F 0.1835(9) 1.1559(3) 1.7568(7)
F3 F 0.1142(6) 1.0763(4) 1.9213(9)
F4 F 0.2185(5) 1.0350(3) 1.7430(8)
O2 O 0.4583(17) 0.9496(16) 1.787(3)
H17 H 0.514(6) 0.925(8) 1.77(2)
H18 H 0.396(3) 0.957(8) 1.812(17)
loop_
_geom_bond_atom_site_label_1
_geom_bond_atom_site_label_2
_geom_bond_site_symmetry_1
_geom_bond_site_symmetry_2
Ag1 O1 1_555 1_555
O1 H1 1_555 1_555
H2 O1 1_555 1_555
N1 Ag1 1_555 1_555
N2 C7 1_555 1_555
C1 N1 1_555 1_555
C2 N1 1_555 1_555
C3 C2 1_555 1_555
H3 C3 1_555 1_555
C4 C3 1_555 1_555
H4 C4 1_555 1_555
C5 C4 1_555 1_555
H5 C5 1_555 1_555
C6 C5 1_555 1_555
H6 C6 1_555 1_555
C7 C2 1_555 1_555
C8 N2 1_555 1_555
C9 C1 1_555 1_555
C10 C9 1_555 1_555
H7 C10 1_555 1_555
C11 C10 1_555 1_555
H8 C11 1_555 1_555
C12 C11 1_555 1_555
H9 C12 1_555 1_555
C13 C12 1_555 1_555
H10 C13 1_555 1_555
C14 C9 1_555 1_555
H11 C14 1_555 1_555
C15 C8 1_555 1_555
C16 C15 1_555 1_555
H12 C16 1_555 1_555
C17 C16 1_555 1_555
H13 C17 1_555 1_555
C18 C17 1_555 1_555
H14 C18 1_555 1_555
C19 C18 1_555 1_555
H15 C19 1_555 1_555
C20 C15 1_555 1_555
H16 C20 1_555 1_555
B1 F1 1_555 1_555
F2 B1 1_555 1_555
F3 B1 1_555 1_555
F4 B1 1_555 1_555
O2 H17 1_555 1_555
H18 O2 1_555 1_555
Ag1C N2 1_555 1_555
N2C Ag1 1_555 1_555
C1 C8 1_555 1_555
C6 C7 1_555 1_555
C13 C14 1_555 1_555
C19 C20 1_555 1_555

#END
