
#######################################################################
#
#                 Cambridge Crystallographic Data Centre
#                                CCDC 
#
#######################################################################
#
# If this CIF has been generated from an entry in the Cambridge 
# Structural Database, then it will include bibliographic, chemical, 
# crystal, experimental, refinement or atomic coordinate data resulting 
# from the CCDC's data processing and validation procedures.
#
#######################################################################

data_GUDBUD
_symmetry_cell_setting           orthorhombic
_symmetry_space_group_name_H-M   'P 21 21 21'
_symmetry_Int_Tables_number      19
_space_group_name_Hall           'P 2ac 2ab'
loop_
_symmetry_equiv_pos_site_id
_symmetry_equiv_pos_as_xyz
1 x,y,z
2 1/2-x,-y,1/2+z
3 -x,1/2+y,1/2-z
4 1/2+x,1/2-y,-z
_cell_length_a                   10.6166(19)
_cell_length_b                   12.740(2)
_cell_length_c                   15.739(2)
_cell_angle_alpha                90
_cell_angle_beta                 90
_cell_angle_gamma                90
_cell_volume                     2128.79
loop_
_atom_site_label
_atom_site_type_symbol
_atom_site_fract_x
_atom_site_fract_y
_atom_site_fract_z
Ag1 Ag 0.35128(4) 0.25222(2) 0.21547(2)
N1 N 0.4083(3) 0.0850(3) 0.2206(2)
N2 N 0.5469(3) -0.0971(3) 0.2517(2)
N3 N 0.1512(4) 0.3290(4) 0.2131(3)
C1 C 0.4098(4) 0.0417(3) 0.2967(3)
C2 C 0.4821(4) -0.0519(3) 0.3121(3)
C3 C 0.5448(4) -0.0537(3) 0.1713(3)
C4 C 0.6137(4) -0.0996(3) 0.1046(3)
H1 H 0.6598 -0.1606 0.1141
C5 C 0.6128(5) -0.0548(4) 0.0263(3)
H2 H 0.6590 -0.0849 -0.0175
C6 C 0.5429(5) 0.0363(4) 0.0110(3)
H3 H 0.5433 0.0659 -0.0430
C7 C 0.4742(5) 0.0825(4) 0.0741(3)
H4 H 0.4283 0.1432 0.0631
C8 C 0.4733(4) 0.0374(3) 0.1558(3)
C9 C 0.4918(4) -0.0992(3) 0.3986(3)
C10 C 0.3872(5) -0.1399(4) 0.4400(3)
H5 H 0.3090 -0.1404 0.4134
C11 C 0.4003(5) -0.1799(4) 0.5216(3)
H6 H 0.3301 -0.2055 0.5501
C12 C 0.5155(5) -0.1820(4) 0.5603(3)
H7 H 0.5232 -0.2095 0.6148
C13 C 0.6209(5) -0.1434(4) 0.5188(3)
H8 H 0.6993 -0.1450 0.5451
C14 C 0.6080(4) -0.1022(4) 0.4377(3)
H9 H 0.6784 -0.0765 0.4094
C15 C 0.3373(4) 0.0947(3) 0.3642(3)
C16 C 0.3889(5) 0.1179(4) 0.4430(3)
H10 H 0.4723 0.1009 0.4545
C17 C 0.3156(5) 0.1668(5) 0.5048(3)
H11 H 0.3513 0.1839 0.5570
C18 C 0.1920(5) 0.1899(5) 0.4898(3)
H12 H 0.1434 0.2211 0.5320
C19 C 0.1393(5) 0.1667(4) 0.4117(4)
H13 H 0.0552 0.1826 0.4014
C20 C 0.2110(4) 0.1202(4) 0.3492(3)
H14 H 0.1752 0.1057 0.2965
C21 C 0.0888(5) 0.3825(5) 0.2509(4)
C22 C 0.0110(8) 0.4527(7) 0.3012(6)
H15 H 0.0462 0.4595 0.3571
H16 H -0.0727 0.4246 0.3052
H17 H 0.0080 0.5204 0.2745
Ag1B Ag 0.64872(4) -0.24778(2) 0.28453(2)
N2B N 0.4531(3) 0.4029(3) 0.2483(2)
Cl1 Cl 0.75118(12) 0.18957(12) 0.27701(8)
O1 O 0.7318(7) 0.1396(7) 0.1998(3)
O2 O 0.7416(11) 0.2992(7) 0.2727(7)
O3 O 0.6684(9) 0.1567(10) 0.3359(4)
O4 O 0.8735(7) 0.1787(8) 0.3040(6)
loop_
_geom_bond_atom_site_label_1
_geom_bond_atom_site_label_2
_geom_bond_site_symmetry_1
_geom_bond_site_symmetry_2
Ag1 N1 1_555 1_555
N1 C1 1_555 1_555
N2 C2 1_555 1_555
N3 Ag1 1_555 1_555
C1 C2 1_555 1_555
C2 C9 1_555 1_555
C3 N2 1_555 1_555
C4 C3 1_555 1_555
H1 C4 1_555 1_555
C5 C4 1_555 1_555
H2 C5 1_555 1_555
C6 C5 1_555 1_555
H3 C6 1_555 1_555
C7 C6 1_555 1_555
H4 C7 1_555 1_555
C8 N1 1_555 1_555
C9 C10 1_555 1_555
C10 H5 1_555 1_555
C11 C10 1_555 1_555
H6 C11 1_555 1_555
C12 C11 1_555 1_555
H7 C12 1_555 1_555
C13 C12 1_555 1_555
H8 C13 1_555 1_555
C14 C9 1_555 1_555
H9 C14 1_555 1_555
C15 C1 1_555 1_555
C16 C15 1_555 1_555
H10 C16 1_555 1_555
C17 C16 1_555 1_555
H11 C17 1_555 1_555
C18 C17 1_555 1_555
H12 C18 1_555 1_555
C19 C18 1_555 1_555
H13 C19 1_555 1_555
C20 C15 1_555 1_555
H14 C20 1_555 1_555
C21 N3 1_555 1_555
C22 C21 1_555 1_555
H15 C22 1_555 1_555
H16 C22 1_555 1_555
H17 C22 1_555 1_555
Cl1 O1 1_555 1_555
O2 Cl1 1_555 1_555
O3 Cl1 1_555 1_555
O4 Cl1 1_555 1_555
Ag1B N2 1_555 1_555
N2B Ag1 1_555 1_555
C3 C8 1_555 1_555
C7 C8 1_555 1_555
C13 C14 1_555 1_555
C19 C20 1_555 1_555

#END
