
#######################################################################
#
#                 Cambridge Crystallographic Data Centre
#                                CCDC 
#
#######################################################################
#
# If this CIF has been generated from an entry in the Cambridge 
# Structural Database, then it will include bibliographic, chemical, 
# crystal, experimental, refinement or atomic coordinate data resulting 
# from the CCDC's data processing and validation procedures.
#
#######################################################################

data_GUDBAK
_symmetry_cell_setting           triclinic
_symmetry_space_group_name_H-M   'P -1'
_symmetry_Int_Tables_number      2
_space_group_name_Hall           '-P 1'
loop_
_symmetry_equiv_pos_site_id
_symmetry_equiv_pos_as_xyz
1 x,y,z
2 -x,-y,-z
_cell_length_a                   9.3767(14)
_cell_length_b                   10.1451(15)
_cell_length_c                   12.1488(17)
_cell_angle_alpha                102.6450(10)
_cell_angle_beta                 108.856(2)
_cell_angle_gamma                98.807(2)
_cell_volume                     1035.3
loop_
_atom_site_label
_atom_site_type_symbol
_atom_site_fract_x
_atom_site_fract_y
_atom_site_fract_z
Co1 Co 0.21820(4) 0.92044(4) 0.83035(3)
O1 O 0.2636(2) 0.8141(2) 0.94805(18)
O2 O 0.4433(2) 0.7608(2) 0.87474(18)
N1 N -0.2099(3) 1.0111(3) 0.8025(2)
N2 N 0.0103(3) 0.9478(2) 0.8348(2)
N3 N 0.1582(3) 0.8030(2) 0.6564(2)
C1 C 0.5230(3) 0.6824(3) 1.1264(2)
N4 N 0.1524(3) 0.6507(3) 0.4950(2)
C2 C 0.3687(3) 0.7500(3) 0.9400(2)
C3 C 0.3925(3) 0.6533(3) 1.0209(2)
C4 C -0.0648(3) 1.0414(3) 0.8037(3)
H1 H -0.0227 1.1187 0.7848
O3 O 0.1510(3) 0.5279(3) 0.7964(2)
C5 C -0.4172(3) 1.0384(3) 0.6258(3)
C6 C 0.5328(4) 0.5988(3) 1.2043(3)
H2 H 0.6210 0.6197 1.2742
C7 C 0.3768(4) 0.3898(3) 0.4701(3)
H3 H 0.2940 0.3142 0.4503
C8 C 0.2770(3) 0.5341(3) 0.9962(3)
C9 C 0.2180(3) 0.7021(3) 0.6160(3)
H4 H 0.2958 0.6707 0.6652
C10 C 0.4130(4) 0.4855(3) 1.1787(3)
H5 H 0.4191 0.4321 1.2325
N5 N 0.1412(3) 0.4903(3) 0.8829(3)
C11 C 0.3477(3) 0.5179(3) 0.4643(3)
C12 C -0.5757(3) 1.0232(3) 0.5791(3)
H6 H -0.6285 1.0388 0.6318
C13 C 0.0428(4) 0.7223(3) 0.4551(3)
H7 H -0.0220 0.7091 0.3752
C14 C 0.0480(3) 0.8158(3) 0.5552(3)
H8 H -0.0138 0.8793 0.5555
C15 C 0.5258(4) 0.3713(3) 0.5045(3)
H9 H 0.5419 0.2836 0.5070
C16 C -0.3425(4) 1.0148(3) 0.5447(3)
H10 H -0.2356 1.0247 0.5740
C17 C 0.2858(4) 0.4521(3) 1.0743(3)
H11 H 0.2055 0.3748 1.0557
C18 C -0.3293(3) 1.0863(3) 0.7626(3)
H12 H -0.2807 1.1850 0.7873
H13 H -0.4025 1.0734 0.8026
C19 C -0.0925(4) 0.8538(3) 0.8562(3)
H14 H -0.0713 0.7760 0.8809
O4 O 0.0232(3) 0.4128(3) 0.8777(3)
C20 C -0.2277(4) 0.8911(4) 0.8361(3)
H15 H -0.3162 0.8446 0.8436
C21 C 0.1834(4) 0.5323(3) 0.4177(3)
H16 H 0.1595 0.5437 0.3370
H17 H 0.1140 0.4469 0.4107
C22 C 0.6572(3) 0.8093(3) 1.1660(3)
O5 O 0.7858(3) 0.8076(3) 1.2328(2)
O6 O 0.6216(2) 0.9123(2) 1.12855(19)
N1A N -0.7901(3) 0.9889(3) 0.1975(2)
N2A N -1.0103(3) 1.0522(2) 0.1652(2)
C4A C -0.9352(3) 0.9586(3) 0.1963(3)
H1A H -0.9773 0.8813 0.2152
C5A C -0.5828(3) 0.9616(3) 0.3742(3)
C12A C -0.4243(3) 0.9768(3) 0.4209(3)
H6A H -0.3715 0.9612 0.3682
C16A C -0.6575(4) 0.9852(3) 0.4553(3)
H10A H -0.7644 0.9753 0.4260
C18A C -0.6707(3) 0.9137(3) 0.2374(3)
H12A H -0.7193 0.8150 0.2127
H13A H -0.5975 0.9266 0.1974
C19A C -0.9075(4) 1.1462(3) 0.1438(3)
H14A H -0.9287 1.2240 0.1191
C20A C -0.7723(4) 1.1089(4) 0.1639(3)
H15A H -0.6838 1.1554 0.1564
N3A N 0.8418(3) 0.1970(2) 0.3436(2)
N4A N 0.8476(3) 0.3493(3) 0.5050(2)
C7A C 0.6232(4) 0.6102(3) 0.5299(3)
H3A H 0.7060 0.6858 0.5497
C9A C 0.7820(3) 0.2979(3) 0.3840(3)
H4A H 0.7042 0.3293 0.3348
C11A C 0.6523(3) 0.4821(3) 0.5357(3)
C13A C 0.9572(4) 0.2777(3) 0.5449(3)
H7A H 1.0220 0.2909 0.6248
C14A C 0.9520(3) 0.1842(3) 0.4448(3)
H8A H 1.0138 0.1207 0.4445
C15A C 0.4742(4) 0.6287(3) 0.4955(3)
H9A H 0.4581 0.7164 0.4930
C21A C 0.8166(4) 0.4677(3) 0.5823(3)
H16A H 0.8405 0.4563 0.6630
H17A H 0.8860 0.5531 0.5893
Co1A Co -1.21820(4) 1.07956(4) 0.16965(3)
O1A O -1.2636(2) 1.1859(2) 0.05195(18)
O2A O -1.4433(2) 1.2392(2) 0.12526(18)
C1A C -1.5230(3) 1.3176(3) -0.1264(2)
C2A C -1.3687(3) 1.2500(3) 0.0600(2)
C3A C -1.3925(3) 1.3467(3) -0.0209(2)
O3A O -1.1510(3) 1.4721(3) 0.2036(2)
C6A C -1.5328(4) 1.4012(3) -0.2043(3)
H2A H -1.6210 1.3803 -0.2742
C8A C -1.2770(3) 1.4659(3) 0.0038(3)
C10A C -1.4130(4) 1.5145(3) -0.1787(3)
H5A H -1.4191 1.5679 -0.2325
N5A N -1.1412(3) 1.5097(3) 0.1171(3)
C17A C -1.2858(4) 1.5479(3) -0.0743(3)
H11A H -1.2055 1.6252 -0.0557
O4A O -1.0232(3) 1.5872(3) 0.1223(3)
C22A C -1.6572(3) 1.1907(3) -0.1660(3)
O5A O -1.7858(3) 1.1924(3) -0.2328(2)
O6A O -1.6216(2) 1.0877(2) -0.12855(19)
Co1_2 Co -1.78180(4) 0.92044(4) -0.16965(3)
Co1A_2 Co 0.78180(4) 0.07956(4) 0.16965(3)
Co1A_3 Co 0.78180(4) 1.07956(4) 1.16965(3)
N3A_2 N -1.1582(3) 1.1970(2) 0.3436(2)
O6_2 O -1.3784(2) 0.9123(2) 0.12855(19)
O6A_2 O 0.3784(2) 1.0877(2) 0.87145(19)
loop_
_geom_bond_atom_site_label_1
_geom_bond_atom_site_label_2
_geom_bond_site_symmetry_1
_geom_bond_site_symmetry_2
Co1 O1 1_555 1_555
O1 C2 1_555 1_555
O2 C2 1_555 1_555
N1 C4 1_555 1_555
N2 Co1 1_555 1_555
N3 Co1 1_555 1_555
C1 C3 1_555 1_555
N4 C9 1_555 1_555
C2 C3 1_555 1_555
C3 C8 1_555 1_555
C4 N2 1_555 1_555
H1 C4 1_555 1_555
O3 N5 1_555 1_555
C5 C12 1_555 1_555
C6 C1 1_555 1_555
H2 C6 1_555 1_555
C7 H3 1_555 1_555
C8 N5 1_555 1_555
C9 N3 1_555 1_555
H4 C9 1_555 1_555
C10 C6 1_555 1_555
H5 C10 1_555 1_555
N5 O4 1_555 1_555
C11 C7 1_555 1_555
C12 H6 1_555 1_555
C13 N4 1_555 1_555
H7 C13 1_555 1_555
C14 N3 1_555 1_555
H8 C14 1_555 1_555
C15 C7 1_555 1_555
H9 C15 1_555 1_555
C16 C5 1_555 1_555
H10 C16 1_555 1_555
C17 C8 1_555 1_555
H11 C17 1_555 1_555
C18 N1 1_555 1_555
H12 C18 1_555 1_555
H13 C18 1_555 1_555
C19 N2 1_555 1_555
H14 C19 1_555 1_555
C20 N1 1_555 1_555
H15 C20 1_555 1_555
C21 N4 1_555 1_555
H16 C21 1_555 1_555
H17 C21 1_555 1_555
C22 C1 1_555 1_555
O5 C22 1_555 1_555
O6 C22 1_555 1_555
N1A C4A 1_555 1_555
N2A C4A 1_555 1_555
C4A H1A 1_555 1_555
C5A C12A 1_555 1_555
C12A C16 1_555 1_555
H6A C12A 1_555 1_555
C16A C12 1_555 1_555
H10A C16A 1_555 1_555
C18A N1A 1_555 1_555
H12A C18A 1_555 1_555
H13A C18A 1_555 1_555
C19A N2A 1_555 1_555
H14A C19A 1_555 1_555
C20A N1A 1_555 1_555
H15A C20A 1_555 1_555
N3A C9A 1_555 1_555
N4A C9A 1_555 1_555
C7A H3A 1_555 1_555
C9A H4A 1_555 1_555
C11A C15 1_555 1_555
C13A N4A 1_555 1_555
H7A C13A 1_555 1_555
C14A N3A 1_555 1_555
H8A C14A 1_555 1_555
C15A C11 1_555 1_555
H9A C15A 1_555 1_555
C21A N4A 1_555 1_555
H16A C21A 1_555 1_555
H17A C21A 1_555 1_555
Co1A N2A 1_555 1_555
O1A Co1A 1_555 1_555
O2A C2A 1_555 1_555
C1A C3A 1_555 1_555
C2A O1A 1_555 1_555
C3A C2A 1_555 1_555
O3A N5A 1_555 1_555
C6A C1A 1_555 1_555
H2A C6A 1_555 1_555
C8A C3A 1_555 1_555
C10A C6A 1_555 1_555
H5A C10A 1_555 1_555
N5A C8A 1_555 1_555
C17A C8A 1_555 1_555
H11A C17A 1_555 1_555
O4A N5A 1_555 1_555
C22A C1A 1_555 1_555
O5A C22A 1_555 1_555
O6A C22A 1_555 1_555
Co1_2 O6A 1_555 1_555
Co1A_2 N3A 1_555 1_555
Co1A_3 O6 1_555 1_555
N3A_2 Co1A 1_555 1_555
O6_2 Co1A 1_555 1_555
O6A_2 Co1 1_555 1_555
C5 C18 1_555 1_555
C10 C17 1_555 1_555
C11 C21 1_555 1_555
C13 C14 1_555 1_555
C19 C20 1_555 1_555
C5A C16A 1_555 1_555
C5A C18A 1_555 1_555
C19A C20A 1_555 1_555
C7A C11A 1_555 1_555
C7A C15A 1_555 1_555
C11A C21A 1_555 1_555
C13A C14A 1_555 1_555
C10A C17A 1_555 1_555

#END
