
#######################################################################
#
#                 Cambridge Crystallographic Data Centre
#                                CCDC 
#
#######################################################################
#
# If this CIF has been generated from an entry in the Cambridge 
# Structural Database, then it will include bibliographic, chemical, 
# crystal, experimental, refinement or atomic coordinate data resulting 
# from the CCDC's data processing and validation procedures.
#
#######################################################################

data_GUDBEO
_symmetry_cell_setting           monoclinic
_symmetry_space_group_name_H-M   'C 2/c'
_symmetry_Int_Tables_number      15
_space_group_name_Hall           '-C 2yn'
loop_
_symmetry_equiv_pos_site_id
_symmetry_equiv_pos_as_xyz
1 x,y,z
2 -x,y,1/2-z
3 1/2+x,1/2+y,z
4 1/2-x,1/2+y,1/2-z
5 -x,-y,-z
6 x,-y,1/2+z
7 1/2-x,1/2-y,-z
8 1/2+x,1/2-y,1/2+z
_cell_length_a                   13.454(3)
_cell_length_b                   13.426(3)
_cell_length_c                   20.166(4)
_cell_angle_alpha                90
_cell_angle_beta                 107.06(3)
_cell_angle_gamma                90
_cell_volume                     3482.37
loop_
_atom_site_label
_atom_site_type_symbol
_atom_site_fract_x
_atom_site_fract_y
_atom_site_fract_z
Sr1 Sr 0.5000 0.97654(6) 0.7500
Sr2 Sr 0.5000 1.0000 1.0000
Sr3 Sr 0.22394(5) 0.84807(5) 0.73740(3)
O1 O 0.8209(4) 1.1128(3) 1.1475(2)
O2 O 0.4651(4) 1.1523(4) 0.9281(3)
H1 H 0.4062 1.1793 0.9095
H2 H 0.4995 1.1530 0.8988
O3 O 0.6647(3) 1.0611(4) 1.0848(2)
O4 O 0.6587(3) 1.0109(3) 0.7071(2)
H3 H 0.6649 0.9986 0.6698
H4 H 0.6838 1.0670 0.7225
O5 O 0.6998(3) 1.1137(3) 0.9649(2)
O6 O 0.5789(4) 0.8098(4) 0.7034(3)
H5 H 0.5351 0.8113 0.6634
H6 H 0.5681 0.7637 0.7291
O7 O 0.7127(4) 1.1789(4) 0.7968(2)
O8 O 0.0319(4) 0.8145(5) 0.6848(3)
H7 H -0.0280 0.8417 0.6779
H8 H 0.0226 0.7513 0.6889
O9 O 0.5764(3) 1.1270(3) 0.8299(2)
O10 O 0.1171(5) 1.0215(5) 0.6962(4)
H9 H 0.0854 0.9992 0.6561
H10 H 0.0711 1.0269 0.7190
O11 O 0.0956(4) 0.8322(5) 0.3122(3)
O12 O 0.2656(4) 0.7971(4) 0.3470(2)
O13 O 0.2779(3) 0.8634(3) 0.4785(2)
O14 O 0.4355(3) 0.9135(3) 0.5933(2)
O15 O 0.3270(4) 0.9154(3) 0.6582(2)
C1 C 0.7536(5) 1.0967(5) 1.0908(3)
C2 C 0.7786(5) 1.1228(5) 1.0271(3)
C3 C 0.8646(5) 1.1613(5) 1.0140(3)
H11 H 0.9281 1.1748 1.0465
C4 C 0.8392(5) 1.1767(5) 0.9420(3)
H12 H 0.8828 1.2028 0.9180
C5 C 0.7394(5) 1.1463(4) 0.9139(3)
C6 C 0.6706(5) 1.1515(4) 0.8413(3)
C7 C 0.1821(6) 0.8281(5) 0.3569(3)
C8 C 0.1838(5) 0.8595(5) 0.4280(3)
C9 C 0.1072(5) 0.8834(6) 0.4556(4)
H13 H 0.0366 0.8869 0.4319
C10 C 0.1529(5) 0.9021(5) 0.5267(3)
H14 H 0.1185 0.9199 0.5589
C11 C 0.2558(5) 0.8894(5) 0.5392(3)
C12 C 0.3468(5) 0.9066(4) 0.6011(3)
Sr3A Sr 0.77606(5) 0.84807(5) 0.76260(3)
O1A O 0.1791(4) 1.1128(3) 0.3525(2)
O3A O 0.3353(3) 1.0611(4) 0.4152(2)
O4A O 0.3413(3) 1.0109(3) 0.7929(2)
H3A H 0.3351 0.9986 0.8302
H4A H 0.3162 1.0670 0.7775
O5A O 0.3002(3) 1.1137(3) 0.5351(2)
O6A O 0.4211(4) 0.8098(4) 0.7966(3)
H5A H 0.4649 0.8113 0.8366
H6A H 0.4319 0.7637 0.7709
O7A O 0.2873(4) 1.1789(4) 0.7032(2)
O8A O 0.9681(4) 0.8145(5) 0.8152(3)
H7A H 1.0280 0.8417 0.8221
H8A H 0.9774 0.7513 0.8111
O9A O 0.4236(3) 1.1270(3) 0.6701(2)
O10A O 0.8829(5) 1.0215(5) 0.8038(4)
H9A H 0.9146 0.9992 0.8439
H10A H 0.9289 1.0269 0.7810
O11A O 0.9044(4) 0.8322(5) 1.1878(3)
O12A O 0.7344(4) 0.7971(4) 1.1530(2)
O13A O 0.7221(3) 0.8634(3) 1.0215(2)
O14A O 0.5645(3) 0.9135(3) 0.9067(2)
O15A O 0.6730(4) 0.9154(3) 0.8418(2)
C1A C 0.2464(5) 1.0967(5) 0.4092(3)
C2A C 0.2214(5) 1.1228(5) 0.4729(3)
C3A C 0.1354(5) 1.1613(5) 0.4860(3)
H11A H 0.0719 1.1748 0.4535
C4A C 0.1608(5) 1.1767(5) 0.5580(3)
H12A H 0.1172 1.2028 0.5820
C5A C 0.2606(5) 1.1463(4) 0.5861(3)
C6A C 0.3294(5) 1.1515(4) 0.6587(3)
C7A C 0.8179(6) 0.8281(5) 1.1431(3)
C8A C 0.8162(5) 0.8595(5) 1.0720(3)
C9A C 0.8928(5) 0.8834(6) 1.0444(4)
H13A H 0.9634 0.8869 1.0681
C10A C 0.8471(5) 0.9021(5) 0.9733(3)
H14A H 0.8815 0.9199 0.9411
C11A C 0.7442(5) 0.8894(5) 0.9608(3)
C12A C 0.6532(5) 0.9066(4) 0.8989(3)
O2D O 0.5349(4) 0.8477(4) 1.0719(3)
H1D H 0.5938 0.8207 1.0905
H2D H 0.5005 0.8470 1.1012
Sr2A Sr 0.5000 1.0000 0.5000
Sr3B Sr 0.72394(5) 1.34807(5) 0.73740(3)
Sr3C Sr 0.27606(5) 1.34807(5) 0.76260(3)
Sr3D Sr 0.77606(5) 1.15193(5) 1.26260(3)
Sr3E Sr 0.22394(5) 1.15193(5) 0.23740(3)
Sr3F Sr 0.27606(5) 0.65193(5) 0.26260(3)
Sr3G Sr 0.72394(5) 0.65193(5) 1.23740(3)
O1D O 0.1791(4) 0.8872(3) 0.8525(2)
O1E O 0.8209(4) 0.8872(3) 0.6475(2)
O3D O 0.3353(3) 0.9389(4) 0.9152(2)
O7B O 0.2127(4) 0.6789(4) 0.7968(2)
O7C O 0.7873(4) 0.6789(4) 0.7032(2)
O12F O 0.2344(4) 0.7029(4) 0.6530(2)
O12G O 0.7656(4) 0.7029(4) 0.8470(2)
O14E O 0.4355(3) 1.0865(3) 1.0933(2)
loop_
_geom_bond_atom_site_label_1
_geom_bond_atom_site_label_2
_geom_bond_site_symmetry_1
_geom_bond_site_symmetry_2
Sr1 O4 1_555 1_555
Sr2 O2 1_555 1_555
Sr3 O8 1_555 1_555
O1 C1 1_555 1_555
O2 H1 1_555 1_555
H2 O2 1_555 1_555
O3 Sr2 1_555 1_555
O4 H3 1_555 1_555
H4 O4 1_555 1_555
O5 C2 1_555 1_555
O6 Sr1 1_555 1_555
H5 O6 1_555 1_555
H6 O6 1_555 1_555
O7 C6 1_555 1_555
O8 H7 1_555 1_555
H8 O8 1_555 1_555
O9 Sr1 1_555 1_555
O10 Sr3 1_555 1_555
H9 O10 1_555 1_555
H10 O10 1_555 1_555
O11 C7 1_555 1_555
O12 C7 1_555 1_555
O13 C8 1_555 1_555
O14 C12 1_555 1_555
O15 Sr1 1_555 1_555
C1 O3 1_555 1_555
C2 C1 1_555 1_555
C3 C2 1_555 1_555
H11 C3 1_555 1_555
C4 C3 1_555 1_555
H12 C4 1_555 1_555
C5 O5 1_555 1_555
C6 O9 1_555 1_555
C7 C8 1_555 1_555
C8 C9 1_555 1_555
C9 H13 1_555 1_555
C10 C9 1_555 1_555
H14 C10 1_555 1_555
C11 O13 1_555 1_555
C12 O15 1_555 1_555
Sr3A O4 1_555 1_555
O1A C1A 1_555 1_555
O3A C1A 1_555 1_555
O4A Sr1 1_555 1_555
H3A O4A 1_555 1_555
H4A O4A 1_555 1_555
O5A C2A 1_555 1_555
O6A Sr1 1_555 1_555
H5A O6A 1_555 1_555
H6A O6A 1_555 1_555
O7A C6A 1_555 1_555
O8A Sr3A 1_555 1_555
H7A O8A 1_555 1_555
H8A O8A 1_555 1_555
O9A Sr1 1_555 1_555
O10A Sr3A 1_555 1_555
H9A O10A 1_555 1_555
H10A O10A 1_555 1_555
O11A C7A 1_555 1_555
O12A C7A 1_555 1_555
O13A C8A 1_555 1_555
O14A Sr2 1_555 1_555
O15A Sr1 1_555 1_555
C1A C2A 1_555 1_555
C2A C3A 1_555 1_555
C3A H11A 1_555 1_555
C4A C3A 1_555 1_555
H12A C4A 1_555 1_555
C5A O5A 1_555 1_555
C6A O9A 1_555 1_555
C7A C8A 1_555 1_555
C8A C9A 1_555 1_555
C9A H13A 1_555 1_555
C10A C9A 1_555 1_555
H14A C10A 1_555 1_555
C11A O13A 1_555 1_555
C12A O14A 1_555 1_555
O2D Sr2 1_555 1_555
H1D O2D 1_555 1_555
H2D O2D 1_555 1_555
Sr2A O14 1_555 1_555
Sr3B O7 1_555 1_555
Sr3C O7A 1_555 1_555
Sr3D O1 1_555 1_555
Sr3E O1A 1_555 1_555
Sr3F O12 1_555 1_555
Sr3G O12A 1_555 1_555
O1D Sr3 1_555 1_555
O1E Sr3A 1_555 1_555
O3D Sr2 1_555 1_555
O7B Sr3 1_555 1_555
O7C Sr3A 1_555 1_555
O12F Sr3 1_555 1_555
O12G Sr3A 1_555 1_555
O14E Sr2 1_555 1_555
Sr3 O15 1_555 1_555
Sr3 O4A 1_555 1_555
Sr3 O6A 1_555 1_555
O6 Sr3A 1_555 1_555
C4 C5 1_555 1_555
C5 C6 1_555 1_555
C10 C11 1_555 1_555
C11 C12 1_555 1_555
Sr3A O15A 1_555 1_555
O3A Sr2A 1_555 1_555
O15A C12A 1_555 1_555
C4A C5A 1_555 1_555
C5A C6A 1_555 1_555
C10A C11A 1_555 1_555
C11A C12A 1_555 1_555

#END
