
#######################################################################
#
#                 Cambridge Crystallographic Data Centre
#                                CCDC 
#
#######################################################################
#
# If this CIF has been generated from an entry in the Cambridge 
# Structural Database, then it will include bibliographic, chemical, 
# crystal, experimental, refinement or atomic coordinate data resulting 
# from the CCDC's data processing and validation procedures.
#
#######################################################################

data_GUDBIS
_symmetry_cell_setting           triclinic
_symmetry_space_group_name_H-M   'P -1'
_symmetry_Int_Tables_number      2
_space_group_name_Hall           '-P 1'
loop_
_symmetry_equiv_pos_site_id
_symmetry_equiv_pos_as_xyz
1 x,y,z
2 -x,-y,-z
_cell_length_a                   6.8382(14)
_cell_length_b                   10.932(2)
_cell_length_c                   25.571(5)
_cell_angle_alpha                94.64(3)
_cell_angle_beta                 95.41(3)
_cell_angle_gamma                107.83(3)
_cell_volume                     1799.45
loop_
_atom_site_label
_atom_site_type_symbol
_atom_site_fract_x
_atom_site_fract_y
_atom_site_fract_z
O1 O 0.7825(10) -0.1262(6) 0.2066(3)
O2 O 0.6184(10) -0.2691(6) 0.1365(3)
C1 C 0.7012(14) -0.1564(9) 0.1590(4)
C2 C 0.7112(14) -0.0526(9) 0.1253(4)
C3 C 0.6520(15) -0.0566(8) 0.0725(4)
H1 H 0.5893 -0.1305 0.0487
O3 O 0.4398(12) 0.4176(6) 0.1419(3)
O4 O 0.3704(11) 0.4103(6) 0.0548(3)
C4 C 0.3826(14) 0.3581(9) 0.0965(4)
O5 O 0.2090(10) -0.1645(6) 0.1613(2)
C5 C 0.2813(14) -0.0452(8) 0.1706(4)
O6 O 0.8578(10) 0.0562(6) 0.3693(3)
O7 O 0.9175(14) 0.0819(7) 0.4572(3)
C6 C 0.9164(15) 0.1237(9) 0.4130(4)
O8 O 0.4687(11) 0.1351(6) 0.4153(3)
C7 C 0.4862(15) 0.1996(9) 0.3769(4)
Ba1 Ba 1.02389(9) 0.73433(5) 0.25151(2)
Ba2 Ba 1.47474(9) 0.88369(5) 0.38802(2)
Ba3 Ba 1.21249(9) 0.60362(5) 0.10523(2)
Ba4 Ba 0.60228(9) 0.28609(5) 0.24375(2)
C8 C 0.7902(14) 0.1466(9) 0.1067(4)
C9 C 1.0656(13) 0.4486(8) 0.3779(3)
O9 O 0.9951(9) 0.3165(5) 0.3670(2)
O10 O 0.3496(9) 0.1636(5) 0.1377(2)
O11 O 1.1315(11) 0.9397(6) 0.3274(3)
O12 O 0.9169(10) 0.3570(6) 0.0847(3)
O13 O 1.3280(11) 0.6561(7) 0.0072(3)
O14 O 1.4576(10) 0.8619(7) 0.2803(3)
O15 O 0.9759(10) 0.4731(6) 0.2892(2)
O16 O 0.3700(11) 0.0185(6) 0.2141(3)
O17 O 1.2655(11) 0.5807(7) 0.2144(3)
O18 O 0.5609(10) 0.4085(6) 0.3456(2)
O19 O 0.6324(11) 0.5831(7) 0.2761(3)
O20 O 0.8473(12) 0.1275(7) 0.2667(3)
O21 O 0.4628(11) 0.1554(6) 0.3295(3)
O22 O 0.8614(10) 0.5803(7) 0.1595(3)
C10 C 0.5704(15) 0.4253(9) 0.4335(4)
H2 H 0.5623 0.4050 0.4680
O23 O 1.6332(12) 0.8376(8) 0.4851(3)
O24 O 1.1733(10) 0.6463(6) 0.3434(3)
C11 C 0.1807(15) 0.0030(9) 0.0750(4)
H3 H 0.1132 -0.0794 0.0576
C12 C 0.2635(14) 0.0321(8) 0.1253(3)
C13 C 0.3141(14) 0.2139(9) 0.0919(4)
O25 O 0.8758(11) 0.3300(6) 0.1692(3)
C14 C 0.9953(13) 0.2678(8) 0.4144(3)
O26 O 0.7150(11) 0.7461(7) 0.3416(3)
C15 C 1.0734(14) 0.5268(9) 0.3329(4)
C16 C 1.1108(15) 0.4814(9) 0.4306(4)
H4 H 1.1642 0.5650 0.4479
O27 O 0.8927(12) 0.6723(8) 0.0458(3)
O28 O 1.1280(16) 0.8257(9) 0.4415(4)
O29 O 0.2168(12) 0.2940(8) 0.2402(4)
C17 C 1.0632(16) 0.3671(9) 0.4546(4)
H5 H 1.0752 0.3601 0.4907
C18 C 0.2141(14) 0.1195(9) 0.0531(4)
H6 H 0.1746 0.1296 0.0183
O30 O 0.7932(9) 0.0726(6) 0.1478(2)
C19 C 0.5371(13) 0.3415(8) 0.3897(3)
C20 C 0.6124(14) 0.5372(8) 0.3643(4)
C21 C 0.8680(14) 0.2880(8) 0.1212(4)
C22 C 0.7037(15) 0.0713(9) 0.0609(4)
H7 H 0.6825 0.0990 0.0280
C23 C 0.6194(15) 0.5490(8) 0.4172(4)
H8 H 0.6513 0.6262 0.4393
C24 C 0.6554(14) 0.6285(10) 0.3240(5)
H9 H 1.416(12) 0.627(9) -0.006(2)
H10 H 1.251(10) 0.676(10) -0.0160(18)
H11 H 0.833(14) 0.107(7) 0.2980(14)
H12 H 0.802(14) 0.058(4) 0.246(2)
H13 H 1.578(10) 0.856(10) 0.5115(16)
H14 H 1.764(3) 0.866(10) 0.493(2)
H15 H 0.864(10) 0.641(9) 0.0136(13)
H16 H 0.782(7) 0.661(10) 0.060(2)
H17 H 1.177(12) 0.799(8) 0.468(2)
H18 H 1.128(14) 0.902(4) 0.450(3)
H19 H 0.121(7) 0.239(6) 0.252(4)
H20 H 0.182(8) 0.359(5) 0.233(4)
H21 H 1.440(14) 0.917(8) 0.260(3)
H22 H 1.181(10) 0.509(5) 0.218(4)
H23 H 0.756(9) 0.605(8) 0.157(4)
H24 H 0.831(13) 0.499(3) 0.153(4)
H25 H 1.039(12) 0.964(9) 0.341(4)
H26 H 1.189(14) 0.996(7) 0.308(4)
H27 H 1.385(6) 0.592(9) 0.230(4)
H28 H 1.573(9) 0.851(10) 0.275(4)
O1_2 O 0.7825(10) 0.8738(6) 0.2066(3)
O2_2 O 1.6184(10) 0.7309(6) 0.1365(3)
O3_2 O 1.4398(12) 0.4176(6) 0.1419(3)
O4_2 O 1.3704(11) 0.4103(6) 0.0548(3)
O5_2 O 1.2090(10) 0.8355(6) 0.1613(2)
O6_2 O 1.8578(10) 1.0562(6) 0.3693(3)
O8_2 O 1.4687(11) 1.1351(6) 0.4153(3)
Ba1_2 Ba 0.02389(9) -0.26567(5) 0.25151(2)
Ba1_3 Ba 1.02389(9) -0.26567(5) 0.25151(2)
Ba2_2 Ba 0.47474(9) -0.11631(5) 0.38802(2)
Ba2_3 Ba 0.47474(9) 0.88369(5) 0.38802(2)
Ba3_2 Ba 0.21249(9) -0.39638(5) 0.10523(2)
Ba3_3 Ba 0.21249(9) 0.60362(5) 0.10523(2)
O26_2 O 1.7150(11) 0.7461(7) 0.3416(3)
loop_
_geom_bond_atom_site_label_1
_geom_bond_atom_site_label_2
_geom_bond_site_symmetry_1
_geom_bond_site_symmetry_2
O1 C1 1_555 1_555
O2 C1 1_555 1_555
C1 C2 1_555 1_555
C2 C3 1_555 1_555
C3 H1 1_555 1_555
O3 C4 1_555 1_555
O4 C4 1_555 1_555
C4 C13 1_555 1_555
O5 C5 1_555 1_555
C5 O16 1_555 1_555
O6 C6 1_555 1_555
O7 C6 1_555 1_555
C6 C14 1_555 1_555
O8 C7 1_555 1_555
C7 O21 1_555 1_555
Ba1 O11 1_555 1_555
Ba2 O11 1_555 1_555
Ba3 O12 1_555 1_555
Ba4 O10 1_555 1_555
C8 O30 1_555 1_555
C9 O9 1_555 1_555
O9 C14 1_555 1_555
O10 C12 1_555 1_555
O11 H25 1_555 1_555
O12 C21 1_555 1_555
O13 Ba3 1_555 1_555
O14 Ba1 1_555 1_555
O15 Ba1 1_555 1_555
O16 Ba4 1_555 1_555
O17 Ba1 1_555 1_555
O18 Ba4 1_555 1_555
O19 Ba1 1_555 1_555
O20 Ba4 1_555 1_555
O21 Ba4 1_555 1_555
O22 Ba1 1_555 1_555
C10 H2 1_555 1_555
O23 Ba2 1_555 1_555
O24 Ba1 1_555 1_555
C11 H3 1_555 1_555
C12 C5 1_555 1_555
C13 O10 1_555 1_555
O25 Ba4 1_555 1_555
C14 C17 1_555 1_555
O26 C24 1_555 1_555
C15 C9 1_555 1_555
C16 C9 1_555 1_555
H4 C16 1_555 1_555
O27 Ba3 1_555 1_555
O28 Ba2 1_555 1_555
O29 Ba4 1_555 1_555
C17 C16 1_555 1_555
H5 C17 1_555 1_555
C18 C11 1_555 1_555
H6 C18 1_555 1_555
O30 C2 1_555 1_555
C19 C7 1_555 1_555
C20 O18 1_555 1_555
C21 C8 1_555 1_555
C22 C3 1_555 1_555
H7 C22 1_555 1_555
C23 C10 1_555 1_555
H8 C23 1_555 1_555
C24 O19 1_555 1_555
H9 O13 1_555 1_555
H10 O13 1_555 1_555
H11 O20 1_555 1_555
H12 O20 1_555 1_555
H13 O23 1_555 1_555
H14 O23 1_555 1_555
H15 O27 1_555 1_555
H16 O27 1_555 1_555
H17 O28 1_555 1_555
H18 O28 1_555 1_555
H19 O29 1_555 1_555
H20 O29 1_555 1_555
H21 O14 1_555 1_555
H22 O17 1_555 1_555
H23 O22 1_555 1_555
H24 O22 1_555 1_555
H26 O11 1_555 1_555
H27 O17 1_555 1_555
H28 O14 1_555 1_555
O1_2 Ba1 1_555 1_555
O2_2 Ba3 1_555 1_555
O3_2 Ba3 1_555 1_555
O4_2 Ba3 1_555 1_555
O5_2 Ba1 1_555 1_555
O6_2 Ba2 1_555 1_555
O8_2 Ba2 1_555 1_555
Ba1_2 O5 1_555 1_555
Ba1_3 O1 1_555 1_555
Ba2_2 O6 1_555 1_555
Ba2_3 O26 1_555 1_555
Ba3_2 O2 1_555 1_555
Ba3_3 O3 1_555 1_555
O26_2 Ba2 1_555 1_555
O4 Ba3_3 1_555 1_555
O5 Ba3_2 1_555 1_555
O8 Ba2_2 1_555 1_555
Ba2 O14 1_555 1_555
Ba2 O24 1_555 1_555
Ba3 O17 1_555 1_555
Ba3 O22 1_555 1_555
Ba3 O5_2 1_555 1_555
Ba4 O15 1_555 1_555
Ba4 O19 1_555 1_555
C8 C22 1_555 1_555
O15 C15 1_555 1_555
O18 C19 1_555 1_555
C10 C19 1_555 1_555
O24 C15 1_555 1_555
C11 C12 1_555 1_555
C13 C18 1_555 1_555
O25 C21 1_555 1_555
C20 C23 1_555 1_555
C20 C24 1_555 1_555

#END
