
#######################################################################
#
#                 Cambridge Crystallographic Data Centre
#                                CCDC 
#
#######################################################################
#
# If this CIF has been generated from an entry in the Cambridge 
# Structural Database, then it will include bibliographic, chemical, 
# crystal, experimental, refinement or atomic coordinate data resulting 
# from the CCDC's data processing and validation procedures.
#
#######################################################################

data_GUDBOX
_symmetry_cell_setting           orthorhombic
_symmetry_space_group_name_H-M   'P 21 21 21'
_symmetry_Int_Tables_number      19
_space_group_name_Hall           'P 2ac 2ab'
loop_
_symmetry_equiv_pos_site_id
_symmetry_equiv_pos_as_xyz
1 x,y,z
2 1/2-x,-y,1/2+z
3 -x,1/2+y,1/2-z
4 1/2+x,1/2-y,-z
_cell_length_a                   10.5122(9)
_cell_length_b                   12.9009(16)
_cell_length_c                   15.5862(12)
_cell_angle_alpha                90
_cell_angle_beta                 90
_cell_angle_gamma                90
_cell_volume                     2113.75
loop_
_atom_site_label
_atom_site_type_symbol
_atom_site_fract_x
_atom_site_fract_y
_atom_site_fract_z
Ag1 Ag 0.85720(4) 0.75533(2) 0.21686(2)
C1 C 0.9124(4) 0.5466(3) 0.2980(3)
C2 C 0.9765(4) 0.5420(3) 0.1554(3)
C3 C 0.9785(5) 0.5871(4) 0.0732(3)
H1 H 0.9347 0.6484 0.0626
C4 C 1.0454(5) 0.5398(4) 0.0091(3)
H2 H 1.0468 0.5694 -0.0452
C5 C 1.1117(5) 0.4480(4) 0.0238(3)
H3 H 1.1571 0.4175 -0.0207
C6 C 1.1106(5) 0.4025(3) 0.1023(3)
H4 H 1.1541 0.3407 0.1114
C7 C 1.0432(4) 0.4496(3) 0.1701(3)
C8 C 0.9810(4) 0.4518(3) 0.3124(3)
C9 C 0.8396(4) 0.5989(3) 0.3666(3)
C10 C 0.8914(5) 0.6205(4) 0.4461(3)
H5 H 0.9753 0.6026 0.4577
C11 C 0.8193(6) 0.6683(4) 0.5082(3)
H6 H 0.8558 0.6842 0.5610
C12 C 0.6946(6) 0.6928(5) 0.4935(4)
H7 H 0.6461 0.7237 0.5363
C13 C 0.6412(6) 0.6714(4) 0.4146(4)
H8 H 0.5564 0.6880 0.4043
C14 C 0.7127(4) 0.6255(4) 0.3510(3)
H9 H 0.6766 0.6121 0.2977
C15 C 0.9886(4) 0.4031(3) 0.3994(3)
C16 C 0.8826(5) 0.3638(4) 0.4404(3)
H10 H 0.8038 0.3647 0.4132
C17 C 0.8942(5) 0.3230(4) 0.5220(4)
H11 H 0.8229 0.2970 0.5500
C18 C 1.0120(6) 0.3208(4) 0.5625(3)
H12 H 1.0189 0.2936 0.6175
C19 C 1.1180(5) 0.3583(4) 0.5217(3)
H13 H 1.1967 0.3565 0.5488
C20 C 1.1067(5) 0.3993(4) 0.4394(3)
H14 H 1.1784 0.4242 0.4111
C21 C 0.5885(6) 0.8829(5) 0.2480(4)
C22 C 0.5037(8) 0.9529(6) 0.2951(6)
H15 H 0.4182 0.9269 0.2925
H16 H 0.5069 1.0206 0.2697
H17 H 0.5306 0.9570 0.3539
N1 N 0.9126(3) 0.5898(3) 0.2216(2)
N2 N 1.0439(4) 0.4058(3) 0.2510(2)
N3 N 0.6543(4) 0.8299(4) 0.2133(3)
Ag1B Ag 1.14280(4) 0.25533(2) 0.28314(2)
N2B N 0.9561(4) 0.9058(3) 0.2490(2)
B1 B 0.7445(6) 0.1816(6) 0.2227(5)
F1 F 0.7681(14) 0.2819(7) 0.2271(7)
F2 F 0.7618(6) 0.1370(6) 0.2968(3)
F3 F 0.8203(7) 0.1496(7) 0.1634(4)
F4 F 0.6271(5) 0.1830(7) 0.1976(5)
loop_
_geom_bond_atom_site_label_1
_geom_bond_atom_site_label_2
_geom_bond_site_symmetry_1
_geom_bond_site_symmetry_2
Ag1 N1 1_555 1_555
C1 C8 1_555 1_555
C2 C3 1_555 1_555
C3 H1 1_555 1_555
C4 C3 1_555 1_555
H2 C4 1_555 1_555
C5 C4 1_555 1_555
H3 C5 1_555 1_555
C6 C5 1_555 1_555
H4 C6 1_555 1_555
C7 C2 1_555 1_555
C8 C15 1_555 1_555
C9 C1 1_555 1_555
C10 C9 1_555 1_555
H5 C10 1_555 1_555
C11 C10 1_555 1_555
H6 C11 1_555 1_555
C12 C11 1_555 1_555
H7 C12 1_555 1_555
C13 C12 1_555 1_555
H8 C13 1_555 1_555
C14 C9 1_555 1_555
H9 C14 1_555 1_555
C15 C16 1_555 1_555
C16 H10 1_555 1_555
C17 C16 1_555 1_555
H11 C17 1_555 1_555
C18 C17 1_555 1_555
H12 C18 1_555 1_555
C19 C18 1_555 1_555
H13 C19 1_555 1_555
C20 C15 1_555 1_555
H14 C20 1_555 1_555
C21 C22 1_555 1_555
C22 H15 1_555 1_555
H16 C22 1_555 1_555
H17 C22 1_555 1_555
N1 C1 1_555 1_555
N2 C7 1_555 1_555
N3 Ag1 1_555 1_555
B1 F1 1_555 1_555
F2 B1 1_555 1_555
F3 B1 1_555 1_555
F4 B1 1_555 1_555
Ag1B N2 1_555 1_555
N2B Ag1 1_555 1_555
C2 N1 1_555 1_555
C6 C7 1_555 1_555
C8 N2 1_555 1_555
C13 C14 1_555 1_555
C19 C20 1_555 1_555
C21 N3 1_555 1_555

#END
