
#######################################################################
#
#                 Cambridge Crystallographic Data Centre
#                                CCDC 
#
#######################################################################
#
# If this CIF has been generated from an entry in the Cambridge 
# Structural Database, then it will include bibliographic, chemical, 
# crystal, experimental, refinement or atomic coordinate data resulting 
# from the CCDC's data processing and validation procedures.
#
#######################################################################

data_GUDCAK
_symmetry_cell_setting           monoclinic
_symmetry_space_group_name_H-M   'P 21/n'
_symmetry_Int_Tables_number      14
_space_group_name_Hall           '-P 2yn'
loop_
_symmetry_equiv_pos_site_id
_symmetry_equiv_pos_as_xyz
1 x,y,z
2 1/2-x,1/2+y,1/2-z
3 -x,-y,-z
4 1/2+x,1/2-y,1/2+z
_cell_length_a                   9.234(2)
_cell_length_b                   14.113(2)
_cell_length_c                   17.395(4)
_cell_angle_alpha                90
_cell_angle_beta                 95.320(17)
_cell_angle_gamma                90
_cell_volume                     2257.14
loop_
_atom_site_label
_atom_site_type_symbol
_atom_site_fract_x
_atom_site_fract_y
_atom_site_fract_z
Ag1 Ag 0.20629(11) 0.64194(6) 0.71359(6)
C1 C 0.3244(10) 0.4403(7) 0.7054(5)
C2 C 0.1236(12) 0.4393(8) 0.7682(6)
C3 C -0.0022(15) 0.4854(9) 0.7962(8)
H1 H -0.0172 0.5497 0.7867
C4 C -0.0964(15) 0.4381(10) 0.8351(8)
H2 H -0.1771 0.4693 0.8512
C5 C -0.0751(15) 0.3411(9) 0.8522(8)
H3 H -0.1397 0.3089 0.8807
C6 C 0.0381(14) 0.2961(9) 0.8272(7)
H4 H 0.0507 0.2318 0.8375
C7 C 0.1379(12) 0.3435(9) 0.7861(6)
C8 C 0.3453(13) 0.3415(9) 0.7181(6)
C9 C 0.4319(14) 0.4932(8) 0.6600(7)
C10 C 0.5763(14) 0.4967(11) 0.6798(8)
H5 H 0.6148 0.4628 0.7228
C11 C 0.6679(15) 0.5477(10) 0.6391(9)
H6 H 0.7671 0.5499 0.6541
C12 C 0.6086(17) 0.5966(10) 0.5742(8)
H7 H 0.6692 0.6322 0.5456
C13 C 0.4654(15) 0.5933(9) 0.5521(8)
H8 H 0.4275 0.6243 0.5075
C14 C 0.3745(15) 0.5428(7) 0.5969(6)
H9 H 0.2745 0.5428 0.5838
C15 C 0.4635(13) 0.2820(8) 0.6876(7)
C16 C 0.5863(16) 0.2618(10) 0.7333(9)
H10 H 0.5969 0.2790 0.7851
C17 C 0.6992(16) 0.2127(11) 0.6986(12)
H11 H 0.7875 0.2010 0.7273
C18 C 0.6786(18) 0.1832(11) 0.6241(10)
H12 H 0.7522 0.1499 0.6029
C19 C 0.554(2) 0.2009(13) 0.5805(9)
H13 H 0.5438 0.1804 0.5294
C20 C 0.436(2) 0.2513(11) 0.6113(8)
H14 H 0.3481 0.2626 0.5823
N1 N 0.2199(10) 0.4826(7) 0.7292(5)
N2 N 0.2511(10) 0.2915(6) 0.7593(5)
S1 S 0.0120(4) 0.7204(3) 0.5452(2)
O1 O 0.0124(13) 0.6440(9) 0.5989(6)
O2 O -0.1221(14) 0.7706(9) 0.5380(9)
O3 O 0.1373(15) 0.7740(11) 0.5501(7)
F1 F -0.0020(13) 0.7233(10) 0.3947(6)
F2 F -0.1062(13) 0.6046(9) 0.4399(7)
F3 F 0.1277(13) 0.6114(11) 0.4457(7)
C21 C 0.0073(16) 0.6584(13) 0.4532(9)
Ag1A Ag 0.29371(11) 0.14194(6) 0.78641(6)
N2A N 0.2489(10) 0.7915(6) 0.7407(5)
loop_
_geom_bond_atom_site_label_1
_geom_bond_atom_site_label_2
_geom_bond_site_symmetry_1
_geom_bond_site_symmetry_2
Ag1 N1 1_555 1_555
C1 C8 1_555 1_555
C2 C3 1_555 1_555
C3 H1 1_555 1_555
C4 C3 1_555 1_555
H2 C4 1_555 1_555
C5 C4 1_555 1_555
H3 C5 1_555 1_555
C6 C5 1_555 1_555
H4 C6 1_555 1_555
C7 C2 1_555 1_555
C8 C15 1_555 1_555
C9 C1 1_555 1_555
C10 C9 1_555 1_555
H5 C10 1_555 1_555
C11 C10 1_555 1_555
H6 C11 1_555 1_555
C12 C11 1_555 1_555
H7 C12 1_555 1_555
C13 C12 1_555 1_555
H8 C13 1_555 1_555
C14 C9 1_555 1_555
H9 C14 1_555 1_555
C15 C16 1_555 1_555
C16 H10 1_555 1_555
C17 C16 1_555 1_555
H11 C17 1_555 1_555
C18 C17 1_555 1_555
H12 C18 1_555 1_555
C19 C18 1_555 1_555
H13 C19 1_555 1_555
C20 C15 1_555 1_555
H14 C20 1_555 1_555
N1 C1 1_555 1_555
N2 C7 1_555 1_555
S1 O1 1_555 1_555
O1 Ag1 1_555 1_555
O2 S1 1_555 1_555
O3 S1 1_555 1_555
F1 C21 1_555 1_555
F2 C21 1_555 1_555
F3 C21 1_555 1_555
C21 S1 1_555 1_555
Ag1A N2 1_555 1_555
N2A Ag1 1_555 1_555
C2 N1 1_555 1_555
C6 C7 1_555 1_555
C8 N2 1_555 1_555
C13 C14 1_555 1_555
C19 C20 1_555 1_555

#END
