
#######################################################################
#
#                 Cambridge Crystallographic Data Centre
#                                CCDC 
#
#######################################################################
#
# If this CIF has been generated from an entry in the Cambridge 
# Structural Database, then it will include bibliographic, chemical, 
# crystal, experimental, refinement or atomic coordinate data resulting 
# from the CCDC's data processing and validation procedures.
#
#######################################################################

data_GUDCIT01
_symmetry_cell_setting           rhombohedral
_symmetry_space_group_name_H-M   'R -3'
_symmetry_Int_Tables_number      148
_space_group_name_Hall           '-R 3'
loop_
_symmetry_equiv_pos_site_id
_symmetry_equiv_pos_as_xyz
1 x,y,z
2 -y,x-y,z
3 -x+y,-x,z
4 2/3+x,1/3+y,1/3+z
5 2/3-y,1/3+x-y,1/3+z
6 2/3-x+y,1/3-x,1/3+z
7 1/3+x,2/3+y,2/3+z
8 1/3-y,2/3+x-y,2/3+z
9 1/3-x+y,2/3-x,2/3+z
10 -x,-y,-z
11 y,-x+y,-z
12 x-y,x,-z
13 1/3-x,2/3-y,2/3-z
14 1/3+y,2/3-x+y,2/3-z
15 1/3+x-y,2/3+x,2/3-z
16 2/3-x,1/3-y,1/3-z
17 2/3+y,1/3-x+y,1/3-z
18 2/3+x-y,1/3+x,1/3-z
_cell_length_a                   28.306(2)
_cell_length_b                   28.306(2)
_cell_length_c                   8.3971(9)
_cell_angle_alpha                90
_cell_angle_beta                 90
_cell_angle_gamma                120
_cell_volume                     5826.62
loop_
_atom_site_label
_atom_site_type_symbol
_atom_site_fract_x
_atom_site_fract_y
_atom_site_fract_z
C1 C 0.61938(9) 0.72984(13) 0.4696(3)
C2 C 0.60720(9) 0.77385(9) 0.4263(3)
C3 C 0.63596(10) 0.90981(10) 0.5853(3)
C4 C 0.61669(10) 0.86109(9) 0.4815(3)
C5 C 0.62332(9) 0.81762(9) 0.5282(3)
H1 H 0.6384 0.8180 0.6269
C6 C 0.58347(10) 0.77233(10) 0.2798(3)
H2 H 0.5715 0.7420 0.2142
C7 C 0.57756(10) 0.81620(10) 0.2314(3)
C8 C 0.56031(12) 0.78748(12) -0.0514(3)
H3 H 0.5903 0.7806 -0.0345
H4 H 0.5686 0.8098 -0.1463
C9 C 0.50932(12) 0.73375(11) -0.0819(3)
C10 C 0.50935(16) 0.69928(14) -0.1973(4)
H5 H 0.5416 0.7085 -0.2508
C11 C 0.4627(2) 0.65143(16) -0.2350(5)
H6 H 0.4636 0.6288 -0.3137
C12 C 0.4153(2) 0.63720(17) -0.1577(6)
H7 H 0.3834 0.6054 -0.1850
C13 C 0.41495(17) 0.67011(18) -0.0396(6)
H8 H 0.3830 0.6600 0.0170
C14 C 0.46216(14) 0.71868(15) -0.0034(5)
H9 H 0.4613 0.7412 0.0759
C15 C 0.59394(10) 0.85995(10) 0.3348(3)
H10 H 0.5895 0.8891 0.3047
O1 O 0.60058(8) 0.68805(6) 0.3827(2)
O2 O 0.64870(7) 0.73776(10) 0.5895(2)
O3 O 0.64268(8) 0.95290(7) 0.5212(2)
O4 O 0.64504(7) 0.90533(10) 0.7292(2)
Zn1 Zn 0.632066(11) 1.012493(11) 0.57748(3)
N1 N 0.55796(10) 0.81830(9) 0.0825(3)
H11 H 0.5438 0.8387 0.0690
O1J O 0.68805(6) 1.08747(10) 0.6173(2)
O2Q O 0.57761(12) 0.98203(7) 0.7438(2)
O4H O 0.59362(12) 1.02163(7) 0.3959(2)
Zn1D Zn 0.654174(11) 0.952906(16) 0.91081(3)
Zn1K Zn 0.619573(16) 0.632066(11) 0.42252(3)
Zn1P Zn 0.679160(11) 0.713760(16) 0.75585(3)
loop_
_geom_bond_atom_site_label_1
_geom_bond_atom_site_label_2
_geom_bond_site_symmetry_1
_geom_bond_site_symmetry_2
C1 C2 1_555 1_555
C2 C5 1_555 1_555
C3 C4 1_555 1_555
C4 C5 1_555 1_555
C5 H1 1_555 1_555
C6 C2 1_555 1_555
H2 C6 1_555 1_555
C7 C6 1_555 1_555
C8 H3 1_555 1_555
H4 C8 1_555 1_555
C9 C8 1_555 1_555
C10 C9 1_555 1_555
H5 C10 1_555 1_555
C11 C10 1_555 1_555
H6 C11 1_555 1_555
C12 C11 1_555 1_555
H7 C12 1_555 1_555
C13 C12 1_555 1_555
H8 C13 1_555 1_555
C14 C9 1_555 1_555
H9 C14 1_555 1_555
C15 C4 1_555 1_555
H10 C15 1_555 1_555
O1 C1 1_555 1_555
O2 C1 1_555 1_555
O3 C3 1_555 1_555
O4 C3 1_555 1_555
Zn1 O3 1_555 1_555
N1 C7 1_555 1_555
H11 N1 1_555 1_555
O1J Zn1 1_555 1_555
O2Q Zn1 1_555 1_555
O4H Zn1 1_555 1_555
Zn1D O4 1_555 1_555
Zn1K O1 1_555 1_555
Zn1P O2 1_555 1_555
C7 C15 1_555 1_555
C8 N1 1_555 1_555
C13 C14 1_555 1_555

#END
