
#######################################################################
#
#                 Cambridge Crystallographic Data Centre
#                                CCDC 
#
#######################################################################
#
# If this CIF has been generated from an entry in the Cambridge 
# Structural Database, then it will include bibliographic, chemical, 
# crystal, experimental, refinement or atomic coordinate data resulting 
# from the CCDC's data processing and validation procedures.
#
#######################################################################

data_GUDCEO
_symmetry_cell_setting           monoclinic
_symmetry_space_group_name_H-M   'C 2/c'
_symmetry_Int_Tables_number      15
_space_group_name_Hall           '-C 2yn'
loop_
_symmetry_equiv_pos_site_id
_symmetry_equiv_pos_as_xyz
1 x,y,z
2 -x,y,1/2-z
3 1/2+x,1/2+y,z
4 1/2-x,1/2+y,1/2-z
5 -x,-y,-z
6 x,-y,1/2+z
7 1/2-x,1/2-y,-z
8 1/2+x,1/2-y,1/2+z
_cell_length_a                   20.0935(11)
_cell_length_b                   8.6749(5)
_cell_length_c                   26.4858(15)
_cell_angle_alpha                90
_cell_angle_beta                 106.362(2)
_cell_angle_gamma                90
_cell_volume                     4429.74
loop_
_atom_site_label
_atom_site_type_symbol
_atom_site_fract_x
_atom_site_fract_y
_atom_site_fract_z
Sb1 Sb 0.36120(3) -0.31731(5) 0.08894(2)
F1 F 0.4350(6) -0.1877(10) 0.1175(6)
F2 F 0.3142(8) -0.1774(11) 0.0417(6)
F3 F 0.3045(6) -0.4652(9) 0.0504(4)
F4 F 0.3958(10) -0.4474(10) 0.1397(4)
F5 F 0.3132(13) -0.224(3) 0.1242(9)
F6 F 0.4185(9) -0.379(4) 0.0580(10)
Ag1 Ag 0.5000 0.18537(7) 0.2500
Ag2 Ag 0.2500 0.2500 0.0000
C1 C 0.3624(2) 0.2053(5) 0.16566(14)
C2 C 0.4496(2) 0.1809(5) 0.12473(15)
C3 C 0.5210(2) 0.1700(6) 0.1270(2)
H1 H 0.5546 0.1650 0.1599
C4 C 0.5407(3) 0.1669(7) 0.0828(2)
H2 H 0.5882 0.1624 0.0848
C5 C 0.4908(3) 0.1705(7) 0.0327(2)
H3 H 0.5053 0.1691 0.0020
C6 C 0.4211(3) 0.1758(6) 0.02900(18)
H4 H 0.3880 0.1752 -0.0041
C7 C 0.4002(2) 0.1823(5) 0.07489(15)
C8 C 0.3118(2) 0.1978(5) 0.11563(15)
C9 C 0.3437(2) 0.2320(5) 0.21510(15)
C10 C 0.3018(3) 0.1297(7) 0.23250(18)
H5 H 0.2854 0.0394 0.2134
C11 C 0.2844(3) 0.1629(9) 0.2786(2)
H6 H 0.2557 0.0948 0.2905
C12 C 0.3089(4) 0.2951(9) 0.3072(2)
H7 H 0.2970 0.3160 0.3384
C13 C 0.3499(3) 0.3939(8) 0.2902(2)
H8 H 0.3666 0.4832 0.3098
C14 C 0.3676(3) 0.3647(6) 0.24391(18)
H9 H 0.3958 0.4346 0.2322
C15 C 0.2359(2) 0.1927(6) 0.10891(16)
C16 C 0.2029(3) 0.3077(8) 0.1302(2)
H10 H 0.2286 0.3908 0.1488
C17 C 0.1325(4) 0.2978(12) 0.1236(3)
H11 H 0.1099 0.3757 0.1372
C18 C 0.0947(3) 0.1742(12) 0.0971(3)
H12 H 0.0470 0.1664 0.0939
C19 C 0.1268(3) 0.0636(10) 0.0758(3)
H13 H 0.1008 -0.0186 0.0570
C20 C 0.1976(2) 0.0714(7) 0.08147(19)
H14 H 0.2194 -0.0053 0.0667
N1 N 0.43018(18) 0.1950(4) 0.16941(12)
N2 N 0.33041(18) 0.1904(4) 0.07184(12)
Ag2A Ag 0.7500 0.2500 0.5000
C1A C 0.6376(2) 0.2053(5) 0.33434(14)
C2A C 0.5504(2) 0.1809(5) 0.37527(15)
C3A C 0.4790(2) 0.1700(6) 0.3730(2)
H1A H 0.4454 0.1650 0.3401
C4A C 0.4593(3) 0.1669(7) 0.4172(2)
H2A H 0.4118 0.1624 0.4152
C5A C 0.5092(3) 0.1705(7) 0.4673(2)
H3A H 0.4947 0.1691 0.4980
C6A C 0.5789(3) 0.1758(6) 0.47100(18)
H4A H 0.6120 0.1752 0.5041
C7A C 0.5998(2) 0.1823(5) 0.42511(15)
C8A C 0.6882(2) 0.1978(5) 0.38437(15)
C9A C 0.6563(2) 0.2320(5) 0.28490(15)
C10A C 0.6982(3) 0.1297(7) 0.26750(18)
H5A H 0.7146 0.0394 0.2866
C11A C 0.7156(3) 0.1629(9) 0.2214(2)
H6A H 0.7443 0.0948 0.2095
C12A C 0.6911(4) 0.2951(9) 0.1928(2)
H7A H 0.7030 0.3160 0.1616
C13A C 0.6501(3) 0.3939(8) 0.2098(2)
H8A H 0.6334 0.4832 0.1902
C14A C 0.6324(3) 0.3647(6) 0.25609(18)
H9A H 0.6042 0.4346 0.2678
C15A C 0.7641(2) 0.1927(6) 0.39109(16)
C16A C 0.7971(3) 0.3077(8) 0.3698(2)
H10A H 0.7714 0.3908 0.3512
C17A C 0.8675(4) 0.2978(12) 0.3764(3)
H11A H 0.8901 0.3757 0.3628
C18A C 0.9053(3) 0.1742(12) 0.4029(3)
H12A H 0.9530 0.1664 0.4061
C19A C 0.8732(3) 0.0636(10) 0.4242(3)
H13A H 0.8992 -0.0186 0.4430
C20A C 0.8024(2) 0.0714(7) 0.41853(19)
H14A H 0.7806 -0.0053 0.4333
N1A N 0.56982(18) 0.1950(4) 0.33059(12)
N2A N 0.66959(18) 0.1904(4) 0.42816(12)
N2F N 0.16959(18) 0.3096(4) -0.07184(12)
C21 C 0.5000 -0.256(2) 0.2500
H15 H 0.4811 -0.3217 0.2201
Cl1 Cl 0.43423(19) -0.1467(4) 0.26147(14)
H15A H 0.5189 -0.3217 0.2799
Cl1A Cl 0.56577(19) -0.1467(4) 0.23853(14)
loop_
_geom_bond_atom_site_label_1
_geom_bond_atom_site_label_2
_geom_bond_site_symmetry_1
_geom_bond_site_symmetry_2
Sb1 F1 1_555 1_555
Ag1 N1 1_555 1_555
Ag2 N2 1_555 1_555
C1 C8 1_555 1_555
C2 C3 1_555 1_555
C3 H1 1_555 1_555
C4 C3 1_555 1_555
H2 C4 1_555 1_555
C5 C4 1_555 1_555
H3 C5 1_555 1_555
C6 C5 1_555 1_555
H4 C6 1_555 1_555
C7 C2 1_555 1_555
C8 C15 1_555 1_555
C9 C1 1_555 1_555
C10 C9 1_555 1_555
H5 C10 1_555 1_555
C11 C10 1_555 1_555
H6 C11 1_555 1_555
C12 C11 1_555 1_555
H7 C12 1_555 1_555
C13 C12 1_555 1_555
H8 C13 1_555 1_555
C14 C9 1_555 1_555
H9 C14 1_555 1_555
C15 C16 1_555 1_555
C16 H10 1_555 1_555
C17 C16 1_555 1_555
H11 C17 1_555 1_555
C18 C17 1_555 1_555
H12 C18 1_555 1_555
C19 C18 1_555 1_555
H13 C19 1_555 1_555
C20 C15 1_555 1_555
H14 C20 1_555 1_555
N1 C1 1_555 1_555
N2 C7 1_555 1_555
C21 H15 1_555 1_555
Cl1 C21 1_555 1_555
F2 Sb1 1_555 1_555
F3 Sb1 1_555 1_555
F4 Sb1 1_555 1_555
F5 Sb1 1_555 1_555
F6 Sb1 1_555 1_555
Ag2A N2A 1_555 1_555
C1A C8A 1_555 1_555
C2A C3A 1_555 1_555
C3A H1A 1_555 1_555
C4A C3A 1_555 1_555
H2A C4A 1_555 1_555
C5A C4A 1_555 1_555
H3A C5A 1_555 1_555
C6A C5A 1_555 1_555
H4A C6A 1_555 1_555
C7A C2A 1_555 1_555
C8A C15A 1_555 1_555
C9A C1A 1_555 1_555
C10A C9A 1_555 1_555
H5A C10A 1_555 1_555
C11A C10A 1_555 1_555
H6A C11A 1_555 1_555
C12A C11A 1_555 1_555
H7A C12A 1_555 1_555
C13A C12A 1_555 1_555
H8A C13A 1_555 1_555
C14A C9A 1_555 1_555
H9A C14A 1_555 1_555
C15A C16A 1_555 1_555
C16A H10A 1_555 1_555
C17A C16A 1_555 1_555
H11A C17A 1_555 1_555
C18A C17A 1_555 1_555
H12A C18A 1_555 1_555
C19A C18A 1_555 1_555
H13A C19A 1_555 1_555
C20A C15A 1_555 1_555
H14A C20A 1_555 1_555
N1A Ag1 1_555 1_555
N2A C7A 1_555 1_555
N2F Ag2 1_555 1_555
H15A C21 1_555 1_555
Cl1A C21 1_555 1_555
C2 N1 1_555 1_555
C6 C7 1_555 1_555
C8 N2 1_555 1_555
C13 C14 1_555 1_555
C19 C20 1_555 1_555
C1A N1A 1_555 1_555
C2A N1A 1_555 1_555
C6A C7A 1_555 1_555
C8A N2A 1_555 1_555
C13A C14A 1_555 1_555
C19A C20A 1_555 1_555

#END
