
#######################################################################
#
#                 Cambridge Crystallographic Data Centre
#                                CCDC 
#
#######################################################################
#
# If this CIF has been generated from an entry in the Cambridge 
# Structural Database, then it will include bibliographic, chemical, 
# crystal, experimental, refinement or atomic coordinate data resulting 
# from the CCDC's data processing and validation procedures.
#
#######################################################################

data_GUDCOY
_symmetry_cell_setting           monoclinic
_symmetry_space_group_name_H-M   'C 2/c'
_symmetry_Int_Tables_number      15
_space_group_name_Hall           '-C 2yn'
loop_
_symmetry_equiv_pos_site_id
_symmetry_equiv_pos_as_xyz
1 x,y,z
2 -x,y,1/2-z
3 1/2+x,1/2+y,z
4 1/2-x,1/2+y,1/2-z
5 -x,-y,-z
6 x,-y,1/2+z
7 1/2-x,1/2-y,-z
8 1/2+x,1/2-y,1/2+z
_cell_length_a                   27.502(4)
_cell_length_b                   14.046(2)
_cell_length_c                   21.041(2)
_cell_angle_alpha                90
_cell_angle_beta                 126.911(8)
_cell_angle_gamma                90
_cell_volume                     6498.89
loop_
_atom_site_label
_atom_site_type_symbol
_atom_site_fract_x
_atom_site_fract_y
_atom_site_fract_z
Ag1 Ag 0.34117(3) 0.62211(5) 0.23836(4)
Ag2 Ag 0.65861(3) 0.62935(5) 0.61625(3)
Ag3 Ag 0.34298(3) 0.38167(5) 0.06038(3)
C1 C 0.4703(3) 0.6969(5) 0.3838(4)
C2 C 0.4723(3) 0.5320(5) 0.3866(4)
C3 C 0.4427(3) 0.4448(5) 0.3532(4)
H1 H 0.4022 0.4431 0.3087
C4 C 0.4748(4) 0.3617(5) 0.3878(4)
H2 H 0.4558 0.3036 0.3654
C5 C 0.5357(4) 0.3626(5) 0.4563(4)
H3 H 0.5563 0.3056 0.4792
C6 C 0.5643(3) 0.4472(5) 0.4887(4)
H4 H 0.6046 0.4476 0.5337
C7 C 0.5339(3) 0.5339(5) 0.4554(4)
C8 C 0.5323(3) 0.6978(5) 0.4561(4)
C9 C 0.4372(3) 0.7849(5) 0.3414(4)
C10 C 0.3800(3) 0.8012(5) 0.3211(4)
H5 H 0.3639 0.7593 0.3382
C11 C 0.3466(4) 0.8790(6) 0.2758(5)
H6 H 0.3080 0.8891 0.2623
C12 C 0.3702(4) 0.9422(6) 0.2503(5)
H7 H 0.3472 0.9939 0.2186
C13 C 0.4282(4) 0.9279(5) 0.2721(5)
H8 H 0.4444 0.9709 0.2558
C14 C 0.4622(4) 0.8504(5) 0.3180(4)
H9 H 0.5014 0.8417 0.3333
C15 C 0.5633(3) 0.7889(5) 0.4969(4)
C16 C 0.5372(4) 0.8516(5) 0.5201(4)
H10 H 0.4991 0.8393 0.5074
C17 C 0.5693(4) 0.9326(6) 0.5624(5)
H11 H 0.5528 0.9750 0.5788
C18 C 0.6256(4) 0.9503(6) 0.5803(5)
H12 H 0.6466 1.0051 0.6085
C19 C 0.6515(4) 0.8894(6) 0.5576(5)
H13 H 0.6897 0.9024 0.5707
C20 C 0.6204(3) 0.8090(5) 0.5154(4)
H14 H 0.6373 0.7676 0.4991
C21 C 0.4691(3) 0.4728(5) 0.2160(4)
C22 C 0.4383(4) 0.5603(5) 0.1831(4)
H15 H 0.3975 0.5611 0.1393
C23 C 0.4687(4) 0.6424(5) 0.2161(5)
H16 H 0.4487 0.7000 0.1945
C24 C 0.4694(3) 0.3079(5) 0.2142(4)
C25 C 0.4369(3) 0.2176(5) 0.1730(4)
C26 C 0.3801(3) 0.2008(6) 0.1546(4)
H17 H 0.3644 0.2434 0.1719
C27 C 0.3466(4) 0.1220(5) 0.1111(5)
H18 H 0.3084 0.1114 0.0987
C28 C 0.3707(4) 0.0587(6) 0.0863(5)
H19 H 0.3484 0.0054 0.0568
C29 C 0.4278(4) 0.0741(5) 0.1048(5)
H20 H 0.4436 0.0312 0.0879
C30 C 0.4613(4) 0.1535(5) 0.1486(4)
H21 H 0.4997 0.1639 0.1615
N1 N 0.4419(3) 0.6157(4) 0.3526(3)
N2 N 0.5625(3) 0.6183(4) 0.4897(3)
N3 N 0.4397(3) 0.3883(4) 0.1810(3)
N4 N 0.7246(3) 0.5760(5) 0.5431(4)
N5 N 0.7085(3) 0.7846(5) 0.7405(4)
N6 N 0.2732(3) 0.4119(5) 0.1281(4)
O1 O 0.3173(3) 0.4667(5) 0.1585(4)
O2 O 0.2399(3) 0.4103(5) 0.1502(4)
O3 O 0.2630(3) 0.3530(4) 0.0766(3)
O4 O 0.7306(3) 0.6483(4) 0.5813(4)
O5 O 0.6992(4) 0.5061(5) 0.5468(5)
O6 O 0.7457(4) 0.5738(6) 0.5053(5)
O7 O 0.6636(3) 0.7322(5) 0.7156(4)
O8 O 0.7392(3) 0.7730(5) 0.7148(4)
O9 O 0.7220(3) 0.8524(4) 0.7890(3)
O10 O 0.3123(4) 0.6989(5) 0.1241(4)
O11 O 0.2985(3) 0.5113(4) 0.2912(3)
O12 O 0.3205(3) 0.2914(5) -0.0494(4)
Ag1D Ag 0.65883(3) 0.37789(5) 0.76164(4)
Ag2D Ag 0.34139(3) 0.37065(5) 0.38375(3)
Ag2A Ag 0.34139(3) 0.62935(5) -0.11625(3)
Ag3A Ag 0.65702(3) 0.38167(5) 0.43962(3)
Ag3D Ag 0.65702(3) 0.61833(5) 0.93962(3)
C1D C 0.5297(3) 0.3031(5) 0.6162(4)
C2D C 0.5277(3) 0.4680(5) 0.6134(4)
C3D C 0.5573(3) 0.5552(5) 0.6468(4)
H1D H 0.5978 0.5569 0.6913
C4D C 0.5252(4) 0.6383(5) 0.6122(4)
H2D H 0.5442 0.6964 0.6346
C5D C 0.4643(4) 0.6374(5) 0.5437(4)
H3D H 0.4437 0.6944 0.5208
C6D C 0.4357(3) 0.5528(5) 0.5113(4)
H4D H 0.3954 0.5524 0.4663
C7D C 0.4661(3) 0.4661(5) 0.5446(4)
C8D C 0.4677(3) 0.3022(5) 0.5439(4)
C9D C 0.5628(3) 0.2151(5) 0.6586(4)
C10D C 0.6200(3) 0.1988(5) 0.6789(4)
H5D H 0.6361 0.2407 0.6618
C11D C 0.6534(4) 0.1210(6) 0.7242(5)
H6D H 0.6920 0.1109 0.7377
C12D C 0.6298(4) 0.0578(6) 0.7497(5)
H7D H 0.6528 0.0061 0.7814
C13D C 0.5718(4) 0.0721(5) 0.7279(5)
H8D H 0.5556 0.0291 0.7442
C14D C 0.5378(4) 0.1496(5) 0.6820(4)
H9D H 0.4986 0.1583 0.6667
C15D C 0.4367(3) 0.2111(5) 0.5031(4)
C16D C 0.4628(4) 0.1484(5) 0.4799(4)
H10D H 0.5009 0.1607 0.4926
C17D C 0.4307(4) 0.0674(6) 0.4376(5)
H11D H 0.4472 0.0250 0.4212
C18D C 0.3744(4) 0.0497(6) 0.4197(5)
H12D H 0.3534 -0.0051 0.3915
C19D C 0.3485(4) 0.1106(6) 0.4424(5)
H13D H 0.3103 0.0976 0.4293
C20D C 0.3796(3) 0.1910(5) 0.4846(4)
H14D H 0.3627 0.2324 0.5009
C21A C 0.5309(3) 0.4728(5) 0.2840(4)
C22A C 0.5617(4) 0.5603(5) 0.3169(4)
H15A H 0.6025 0.5611 0.3607
C23A C 0.5313(4) 0.6424(5) 0.2839(5)
H16A H 0.5513 0.7000 0.3055
C24A C 0.5306(3) 0.3079(5) 0.2858(4)
C25A C 0.5631(3) 0.2176(5) 0.3270(4)
C26A C 0.6199(3) 0.2008(6) 0.3454(4)
H17A H 0.6356 0.2434 0.3281
C27A C 0.6534(4) 0.1220(5) 0.3889(5)
H18A H 0.6916 0.1114 0.4013
C28A C 0.6293(4) 0.0587(6) 0.4137(5)
H19A H 0.6516 0.0054 0.4432
C29A C 0.5722(4) 0.0741(5) 0.3952(5)
H20A H 0.5564 0.0312 0.4121
C30A C 0.5387(4) 0.1535(5) 0.3514(4)
H21A H 0.5003 0.1639 0.3385
N1D N 0.5581(3) 0.3843(4) 0.6474(3)
N2D N 0.4375(3) 0.3817(4) 0.5103(3)
N3A N 0.5603(3) 0.3883(4) 0.3190(3)
N4A N 0.2754(3) 0.5760(5) -0.0431(4)
N5D N 0.2915(3) 0.2154(5) 0.2595(4)
N6D N 0.7268(3) 0.5881(5) 0.8719(4)
O1D O 0.6827(3) 0.5333(5) 0.8415(4)
O2D O 0.7601(3) 0.5897(5) 0.8498(4)
O3D O 0.7370(3) 0.6470(4) 0.9234(3)
O3A O 0.7370(3) 0.3530(4) 0.4234(3)
O4A O 0.2694(3) 0.6483(4) -0.0813(4)
O4D O 0.2694(3) 0.3517(4) 0.4187(4)
O5A O 0.3008(4) 0.5061(5) -0.0468(5)
O6A O 0.2543(4) 0.5738(6) -0.0053(5)
O7D O 0.3364(3) 0.2678(5) 0.2844(4)
O8D O 0.2608(3) 0.2270(5) 0.2852(4)
O9D O 0.2780(3) 0.1476(4) 0.2110(3)
O10D O 0.6877(4) 0.3011(5) 0.8759(4)
O11D O 0.7015(3) 0.4887(4) 0.7088(3)
O12A O 0.6795(3) 0.2914(5) 0.5494(4)
loop_
_geom_bond_atom_site_label_1
_geom_bond_atom_site_label_2
_geom_bond_site_symmetry_1
_geom_bond_site_symmetry_2
Ag1 N1 1_555 1_555
Ag2 N2 1_555 1_555
Ag3 N3 1_555 1_555
C1 C8 1_555 1_555
C2 C3 1_555 1_555
C3 H1 1_555 1_555
C4 C3 1_555 1_555
H2 C4 1_555 1_555
C5 C4 1_555 1_555
H3 C5 1_555 1_555
C6 C5 1_555 1_555
H4 C6 1_555 1_555
C7 C2 1_555 1_555
C8 C15 1_555 1_555
C9 C1 1_555 1_555
C10 C9 1_555 1_555
H5 C10 1_555 1_555
C11 C10 1_555 1_555
H6 C11 1_555 1_555
C12 C11 1_555 1_555
H7 C12 1_555 1_555
C13 C12 1_555 1_555
H8 C13 1_555 1_555
C14 C9 1_555 1_555
H9 C14 1_555 1_555
C15 C16 1_555 1_555
C16 H10 1_555 1_555
C17 C16 1_555 1_555
H11 C17 1_555 1_555
C18 C17 1_555 1_555
H12 C18 1_555 1_555
C19 C18 1_555 1_555
H13 C19 1_555 1_555
C20 C15 1_555 1_555
H14 C20 1_555 1_555
C21 C22 1_555 1_555
C22 H15 1_555 1_555
C23 C22 1_555 1_555
H16 C23 1_555 1_555
C24 C25 1_555 1_555
C25 C26 1_555 1_555
C26 H17 1_555 1_555
C27 C26 1_555 1_555
H18 C27 1_555 1_555
C28 C27 1_555 1_555
H19 C28 1_555 1_555
C29 C28 1_555 1_555
H20 C29 1_555 1_555
C30 C25 1_555 1_555
H21 C30 1_555 1_555
N1 C1 1_555 1_555
N2 C7 1_555 1_555
N3 C21 1_555 1_555
N4 O4 1_555 1_555
N5 O7 1_555 1_555
N6 O1 1_555 1_555
O1 Ag1 1_555 1_555
O2 N6 1_555 1_555
O3 Ag3 1_555 1_555
O4 Ag2 1_555 1_555
O5 N4 1_555 1_555
O6 N4 1_555 1_555
O7 Ag2 1_555 1_555
O8 N5 1_555 1_555
O9 N5 1_555 1_555
O10 Ag1 1_555 1_555
O11 Ag1 1_555 1_555
O12 Ag3 1_555 1_555
Ag1D N1D 1_555 1_555
Ag2D O11 1_555 1_555
Ag2A O4A 1_555 1_555
Ag3A O5 1_555 1_555
Ag3D O3D 1_555 1_555
C1D C8D 1_555 1_555
C2D C3D 1_555 1_555
C3D H1D 1_555 1_555
C4D C3D 1_555 1_555
H2D C4D 1_555 1_555
C5D C4D 1_555 1_555
H3D C5D 1_555 1_555
C6D C5D 1_555 1_555
H4D C6D 1_555 1_555
C7D C2D 1_555 1_555
C8D C15D 1_555 1_555
C9D C1D 1_555 1_555
C10D C9D 1_555 1_555
H5D C10D 1_555 1_555
C11D C10D 1_555 1_555
H6D C11D 1_555 1_555
C12D C11D 1_555 1_555
H7D C12D 1_555 1_555
C13D C12D 1_555 1_555
H8D C13D 1_555 1_555
C14D C9D 1_555 1_555
H9D C14D 1_555 1_555
C15D C16D 1_555 1_555
C16D H10D 1_555 1_555
C17D C16D 1_555 1_555
H11D C17D 1_555 1_555
C18D C17D 1_555 1_555
H12D C18D 1_555 1_555
C19D C18D 1_555 1_555
H13D C19D 1_555 1_555
C20D C15D 1_555 1_555
H14D C20D 1_555 1_555
C21A C21 1_555 1_555
C22A C21A 1_555 1_555
H15A C22A 1_555 1_555
C23A C23 1_555 1_555
H16A C23A 1_555 1_555
C24A C24 1_555 1_555
C25A C24A 1_555 1_555
C26A C25A 1_555 1_555
H17A C26A 1_555 1_555
C27A C26A 1_555 1_555
H18A C27A 1_555 1_555
C28A C27A 1_555 1_555
H19A C28A 1_555 1_555
C29A C28A 1_555 1_555
H20A C29A 1_555 1_555
C30A C25A 1_555 1_555
H21A C30A 1_555 1_555
N1D C1D 1_555 1_555
N2D Ag2D 1_555 1_555
N3A Ag3A 1_555 1_555
N4A O4A 1_555 1_555
N5D O7D 1_555 1_555
N6D O1D 1_555 1_555
O1D Ag1D 1_555 1_555
O2D N6D 1_555 1_555
O3D N6D 1_555 1_555
O3A Ag3A 1_555 1_555
O4D Ag2D 1_555 1_555
O5A Ag3 1_555 1_555
O6A N4A 1_555 1_555
O7D Ag2D 1_555 1_555
O8D N5D 1_555 1_555
O9D N5D 1_555 1_555
O10D Ag1D 1_555 1_555
O11D Ag2 1_555 1_555
O12A Ag3A 1_555 1_555
C2 N1 1_555 1_555
C6 C7 1_555 1_555
C8 N2 1_555 1_555
C13 C14 1_555 1_555
C19 C20 1_555 1_555
C24 N3 1_555 1_555
C29 C30 1_555 1_555
N6 O3 1_555 1_555
Ag1D O11D 1_555 1_555
C2D N1D 1_555 1_555
C6D C7D 1_555 1_555
C7D N2D 1_555 1_555
C8D N2D 1_555 1_555
C13D C14D 1_555 1_555
C19D C20D 1_555 1_555
C21A N3A 1_555 1_555
C22A C23A 1_555 1_555
C24A N3A 1_555 1_555
C29A C30A 1_555 1_555
N4A O5A 1_555 1_555

#END
