
#######################################################################
#
#                 Cambridge Crystallographic Data Centre
#                                CCDC 
#
#######################################################################
#
# If this CIF has been generated from an entry in the Cambridge 
# Structural Database, then it will include bibliographic, chemical, 
# crystal, experimental, refinement or atomic coordinate data resulting 
# from the CCDC's data processing and validation procedures.
#
#######################################################################

data_GUDCUE
_symmetry_cell_setting           monoclinic
_symmetry_space_group_name_H-M   'C 2/c'
_symmetry_Int_Tables_number      15
_space_group_name_Hall           '-C 2yn'
loop_
_symmetry_equiv_pos_site_id
_symmetry_equiv_pos_as_xyz
1 x,y,z
2 -x,y,1/2-z
3 1/2+x,1/2+y,z
4 1/2-x,1/2+y,1/2-z
5 -x,-y,-z
6 x,-y,1/2+z
7 1/2-x,1/2-y,-z
8 1/2+x,1/2-y,1/2+z
_cell_length_a                   25.557(2)
_cell_length_b                   14.3511(13)
_cell_length_c                   6.9580(5)
_cell_angle_alpha                90
_cell_angle_beta                 103.308(7)
_cell_angle_gamma                90
_cell_volume                     2483.46
loop_
_atom_site_label
_atom_site_type_symbol
_atom_site_fract_x
_atom_site_fract_y
_atom_site_fract_z
Ag1 Ag 0.356774(13) 0.60454(2) 0.82063(5)
C1 C 0.47300(13) 0.6916(2) 0.7640(5)
C2 C 0.47279(14) 0.5308(2) 0.7574(5)
C3 C 0.44601(15) 0.4453(3) 0.7631(5)
H1 H 0.4102 0.4446 0.7717
C4 C 0.47290(16) 0.3633(3) 0.7560(5)
H2 H 0.4551 0.3070 0.7593
C5 C 0.44460(15) 0.7790(3) 0.7957(6)
C6 C 0.39189(16) 0.7937(3) 0.6913(6)
H3 H 0.3758 0.7519 0.5930
C7 C 0.3632(2) 0.8700(4) 0.7327(8)
H4 H 0.3279 0.8796 0.6628
C8 C 0.3873(2) 0.9318(3) 0.8786(8)
H5 H 0.3678 0.9824 0.9087
C9 C 0.4393(2) 0.9194(3) 0.9790(8)
H6 H 0.4554 0.9623 1.0746
C10 C 0.46839(17) 0.8428(3) 0.9389(6)
H7 H 0.5038 0.8344 1.0081
C11 C 0.31753(18) 0.7643(3) 1.1110(7)
C12 C 0.2967(2) 0.8451(4) 1.1905(9)
H8 H 0.2654 0.8673 1.0976
H9 H 0.3236 0.8930 1.2152
H10 H 0.2872 0.8288 1.3119
N1 N 0.44670(12) 0.61304(19) 0.7721(4)
N2 N 0.3341(2) 0.7017(3) 1.0433(7)
N3 N 0.29303(13) 0.4258(2) 0.8948(5)
O1 O 0.33891(12) 0.4569(3) 0.9703(5)
O2 O 0.26391(15) 0.4666(3) 0.7545(6)
O3 O 0.27823(16) 0.3542(3) 0.9651(6)
Ag1A Ag 0.643226(13) 0.60454(2) 0.67937(5)
Ag1E Ag 0.356774(13) 0.39546(2) 1.32063(5)
Ag1E_2 Ag 0.356774(13) 0.39546(2) 0.32063(5)
C1A C 0.52700(13) 0.6916(2) 0.7360(5)
C2A C 0.52721(14) 0.5308(2) 0.7426(5)
C3A C 0.55399(15) 0.4453(3) 0.7369(5)
H1A H 0.5898 0.4446 0.7283
C4A C 0.52710(16) 0.3633(3) 0.7440(5)
H2A H 0.5449 0.3070 0.7407
C5A C 0.55540(15) 0.7790(3) 0.7043(6)
C6A C 0.60811(16) 0.7937(3) 0.8087(6)
H3A H 0.6242 0.7519 0.9070
C7A C 0.6368(2) 0.8700(4) 0.7673(8)
H4A H 0.6721 0.8796 0.8372
C8A C 0.6127(2) 0.9318(3) 0.6214(8)
H5A H 0.6322 0.9824 0.5913
C9A C 0.5607(2) 0.9194(3) 0.5210(8)
H6A H 0.5446 0.9623 0.4254
C10A C 0.53161(17) 0.8428(3) 0.5611(6)
H7A H 0.4962 0.8344 0.4919
C11A C 0.68247(18) 0.7643(3) 0.3890(7)
C12A C 0.7033(2) 0.8451(4) 0.3095(9)
H8A H 0.7346 0.8673 0.4024
H9A H 0.6764 0.8930 0.2848
H10A H 0.7128 0.8288 0.1881
N1A N 0.55330(12) 0.61304(19) 0.7279(4)
N2A N 0.6659(2) 0.7017(3) 0.4567(7)
N3E N 0.29303(13) 0.5742(2) 0.3948(5)
O1E O 0.33891(12) 0.5431(3) 0.4703(5)
O1A O 0.66109(12) 0.4569(3) 0.5297(5)
O1D O 0.66109(12) 0.5431(3) 1.0297(5)
O2E O 0.26391(15) 0.5334(3) 0.2545(6)
O3E O 0.27823(16) 0.6458(3) 0.4651(6)
loop_
_geom_bond_atom_site_label_1
_geom_bond_atom_site_label_2
_geom_bond_site_symmetry_1
_geom_bond_site_symmetry_2
Ag1 N1 1_555 1_555
C1 C5 1_555 1_555
C2 C3 1_555 1_555
C3 H1 1_555 1_555
C4 C3 1_555 1_555
H2 C4 1_555 1_555
C5 C6 1_555 1_555
C6 H3 1_555 1_555
C7 C6 1_555 1_555
H4 C7 1_555 1_555
C8 C7 1_555 1_555
H5 C8 1_555 1_555
C9 C8 1_555 1_555
H6 C9 1_555 1_555
C10 C5 1_555 1_555
H7 C10 1_555 1_555
C11 C12 1_555 1_555
C12 H8 1_555 1_555
H9 C12 1_555 1_555
H10 C12 1_555 1_555
N1 C1 1_555 1_555
N2 Ag1 1_555 1_555
N3 O1 1_555 1_555
O1 Ag1 1_555 1_555
O2 N3 1_555 1_555
O3 N3 1_555 1_555
Ag1A N1A 1_555 1_555
Ag1E O1 1_555 1_555
Ag1E_2 O1E 1_555 1_555
C1A C1 1_555 1_555
C2A C2 1_555 1_555
C3A C2A 1_555 1_555
H1A C3A 1_555 1_555
C4A C4 1_555 1_555
H2A C4A 1_555 1_555
C5A C1A 1_555 1_555
C6A C5A 1_555 1_555
H3A C6A 1_555 1_555
C7A C6A 1_555 1_555
H4A C7A 1_555 1_555
C8A C7A 1_555 1_555
H5A C8A 1_555 1_555
C9A C8A 1_555 1_555
H6A C9A 1_555 1_555
C10A C5A 1_555 1_555
H7A C10A 1_555 1_555
C11A C12A 1_555 1_555
C12A H8A 1_555 1_555
H9A C12A 1_555 1_555
H10A C12A 1_555 1_555
N1A C1A 1_555 1_555
N2A Ag1A 1_555 1_555
N3E O1E 1_555 1_555
O1E Ag1 1_555 1_555
O1A Ag1A 1_555 1_555
O1D Ag1A 1_555 1_555
O2E N3E 1_555 1_555
O3E N3E 1_555 1_555
C2 N1 1_555 1_555
C9 C10 1_555 1_555
C11 N2 1_555 1_555
C2A N1A 1_555 1_555
C3A C4A 1_555 1_555
C9A C10A 1_555 1_555
C11A N2A 1_555 1_555

#END
