
#######################################################################
#
#                 Cambridge Crystallographic Data Centre
#                                CCDC 
#
#######################################################################
#
# If this CIF has been generated from an entry in the Cambridge 
# Structural Database, then it will include bibliographic, chemical, 
# crystal, experimental, refinement or atomic coordinate data resulting 
# from the CCDC's data processing and validation procedures.
#
#######################################################################

data_GUDCIT
_symmetry_cell_setting           rhombohedral
_symmetry_space_group_name_H-M   'R -3'
_symmetry_Int_Tables_number      148
_space_group_name_Hall           '-R 3'
loop_
_symmetry_equiv_pos_site_id
_symmetry_equiv_pos_as_xyz
1 x,y,z
2 -y,x-y,z
3 -x+y,-x,z
4 2/3+x,1/3+y,1/3+z
5 2/3-y,1/3+x-y,1/3+z
6 2/3-x+y,1/3-x,1/3+z
7 1/3+x,2/3+y,2/3+z
8 1/3-y,2/3+x-y,2/3+z
9 1/3-x+y,2/3-x,2/3+z
10 -x,-y,-z
11 y,-x+y,-z
12 x-y,x,-z
13 1/3-x,2/3-y,2/3-z
14 1/3+y,2/3-x+y,2/3-z
15 1/3+x-y,2/3+x,2/3-z
16 2/3-x,1/3-y,1/3-z
17 2/3+y,1/3-x+y,1/3-z
18 2/3+x-y,1/3+x,1/3-z
_cell_length_a                   28.354(2)
_cell_length_b                   28.354(2)
_cell_length_c                   8.3821(8)
_cell_angle_alpha                90
_cell_angle_beta                 90
_cell_angle_gamma                120
_cell_volume                     5835.96
loop_
_atom_site_label
_atom_site_type_symbol
_atom_site_fract_x
_atom_site_fract_y
_atom_site_fract_z
Zn1 Zn 0.34585(3) 0.29875(3) 0.58926(8)
O1 O 0.42066(16) 0.35452(16) 0.5485(5)
O2 O 0.42277(17) 0.40439(18) 0.7568(5)
O3 O 0.59327(17) 0.57129(17) 0.8959(5)
O4 O 0.64369(18) 0.61999(17) 0.6867(5)
N1 N 0.5937(2) 0.4851(2) 0.2499(6)
H1 H 0.6281 0.5058 0.2359
C1 C 0.4443(2) 0.3966(2) 0.6367(7)
C2 C 0.4998(2) 0.4402(2) 0.5915(7)
C3 C 0.5279(2) 0.4841(2) 0.6940(7)
H2 H 0.5132 0.4844 0.7929
C4 C 0.5780(2) 0.5275(2) 0.6485(7)
C5 C 0.6072(2) 0.5767(3) 0.7518(7)
C6 C 0.5997(2) 0.5266(2) 0.5007(7)
H3 H 0.6332 0.5558 0.4703
C7 C 0.5722(3) 0.4829(3) 0.3983(7)
C8 C 0.5227(2) 0.4390(2) 0.4474(7)
H4 H 0.5049 0.4085 0.3823
C9 C 0.5603(3) 0.4538(3) 0.1156(8)
H5 H 0.5739 0.4761 0.0205
H6 H 0.5235 0.4466 0.1333
C10 C 0.5579(3) 0.4005(3) 0.0835(8)
C11 C 0.5234(3) 0.3660(4) -0.0313(10)
H7 H 0.5004 0.3751 -0.0854
C12 C 0.5223(4) 0.3180(4) -0.0680(12)
H8 H 0.4988 0.2954 -0.1468
C13 C 0.5553(5) 0.3029(4) 0.0095(14)
H9 H 0.5553 0.2710 -0.0165
C14 C 0.5882(5) 0.3368(5) 0.1266(14)
H10 H 0.6098 0.3267 0.1843
C15 C 0.5907(4) 0.3855(4) 0.1630(10)
H11 H 0.6147 0.4081 0.2411
Zn1D Zn 0.36792(3) 0.38043(4) 0.92259(8)
Zn1Q Zn 0.71377(4) 0.67918(3) 0.74407(8)
Zn1M Zn 0.63208(3) 0.61957(4) 1.07741(8)
O2H O 0.31495(25) 0.24390(17) 0.4235(5)
O3N O 0.35531(24) 0.25994(17) 0.7708(5)
O4P O 0.28666(17) 0.30963(25) 0.6466(5)
loop_
_geom_bond_atom_site_label_1
_geom_bond_atom_site_label_2
_geom_bond_site_symmetry_1
_geom_bond_site_symmetry_2
Zn1 O1 1_555 1_555
O1 C1 1_555 1_555
O2 C1 1_555 1_555
O3 C5 1_555 1_555
O4 C5 1_555 1_555
N1 H1 1_555 1_555
C1 C2 1_555 1_555
C2 C3 1_555 1_555
C3 H2 1_555 1_555
C4 C3 1_555 1_555
C5 C4 1_555 1_555
C6 C4 1_555 1_555
H3 C6 1_555 1_555
C7 N1 1_555 1_555
C8 C2 1_555 1_555
H4 C8 1_555 1_555
C9 N1 1_555 1_555
H5 C9 1_555 1_555
H6 C9 1_555 1_555
C10 C9 1_555 1_555
C11 C10 1_555 1_555
H7 C11 1_555 1_555
C12 C11 1_555 1_555
H8 C12 1_555 1_555
C13 C12 1_555 1_555
H9 C13 1_555 1_555
C14 C13 1_555 1_555
H10 C14 1_555 1_555
C15 C10 1_555 1_555
H11 C15 1_555 1_555
Zn1D O2 1_555 1_555
Zn1Q O4 1_555 1_555
Zn1M O3 1_555 1_555
O2H Zn1 1_555 1_555
O3N Zn1 1_555 1_555
O4P Zn1 1_555 1_555
C6 C7 1_555 1_555
C7 C8 1_555 1_555
C14 C15 1_555 1_555

#END
