
#######################################################################
#
#                 Cambridge Crystallographic Data Centre
#                                CCDC 
#
#######################################################################
#
# If this CIF has been generated from an entry in the Cambridge 
# Structural Database, then it will include bibliographic, chemical, 
# crystal, experimental, refinement or atomic coordinate data resulting 
# from the CCDC's data processing and validation procedures.
#
#######################################################################

data_GUDDEP
_symmetry_cell_setting           orthorhombic
_symmetry_space_group_name_H-M   'P b c a'
_symmetry_Int_Tables_number      61
_space_group_name_Hall           '-P 2ac 2ab'
loop_
_symmetry_equiv_pos_site_id
_symmetry_equiv_pos_as_xyz
1 x,y,z
2 1/2-x,-y,1/2+z
3 -x,1/2+y,1/2-z
4 1/2+x,1/2-y,-z
5 -x,-y,-z
6 1/2+x,y,1/2-z
7 x,1/2-y,1/2+z
8 1/2-x,1/2+y,z
_cell_length_a                   13.7510(8)
_cell_length_b                   14.8210(7)
_cell_length_c                   22.1401(13)
_cell_angle_alpha                90
_cell_angle_beta                 90
_cell_angle_gamma                90
_cell_volume                     4512.23
loop_
_atom_site_label
_atom_site_type_symbol
_atom_site_fract_x
_atom_site_fract_y
_atom_site_fract_z
Ag1 Ag 0.458103(10) 0.823103(7) 0.756768(7)
S1 S 0.19760(3) 0.78582(3) 0.78154(2)
C1 C 0.46277(10) 1.02541(9) 0.70520(8)
C2 C 0.51534(11) 1.02745(9) 0.80406(8)
C3 C 0.53261(14) 0.98255(11) 0.85870(9)
H1 H 0.5155 0.9214 0.8629
C4 C 0.57403(15) 1.02735(13) 0.90572(9)
H2 H 0.5858 0.9969 0.9422
C5 C 0.59931(14) 1.11871(13) 0.90017(9)
H3 H 0.6281 1.1488 0.9330
C6 C 0.58257(14) 1.16442(11) 0.84778(9)
H4 H 0.5993 1.2257 0.8446
C7 C 0.54026(10) 1.11943(9) 0.79848(8)
C8 C 0.48670(10) 1.11994(9) 0.69951(7)
C9 C 0.42329(11) 0.97268(9) 0.65374(7)
C10 C 0.47468(13) 0.96589(11) 0.60013(9)
H5 H 0.5349 0.9952 0.5959
C11 C 0.43713(15) 0.91583(12) 0.55265(10)
H6 H 0.4720 0.9108 0.5163
C12 C 0.34830(16) 0.87335(12) 0.55894(10)
H7 H 0.3224 0.8402 0.5265
C13 C 0.29756(14) 0.87906(12) 0.61216(10)
H8 H 0.2375 0.8494 0.6162
C14 C 0.33497(12) 0.92854(10) 0.65984(8)
H9 H 0.3004 0.9322 0.6964
C15 C 0.47439(11) 1.16911(8) 0.64175(8)
C16 C 0.38760(12) 1.16707(10) 0.60911(9)
H10 H 0.3341 1.1344 0.6239
C17 C 0.38041(14) 1.21306(12) 0.55499(9)
H11 H 0.3219 1.2114 0.5330
C18 C 0.45858(15) 1.26144(12) 0.53295(10)
H12 H 0.4534 1.2925 0.4961
C19 C 0.54386(14) 1.26410(11) 0.56504(9)
H13 H 0.5971 1.2970 0.5500
C20 C 0.55199(12) 1.21872(10) 0.61937(8)
H14 H 0.6105 1.2215 0.6413
C21 C 0.20345(11) 0.68496(10) 0.82445(9)
C22 C 0.17469(14) 0.68556(11) 0.88396(10)
H15 H 0.1453 0.7371 0.9006
C23 C 0.18940(14) 0.60963(13) 0.91912(10)
H16 H 0.1690 0.6099 0.9596
C24 C 0.23356(13) 0.53317(12) 0.89590(10)
C25 C 0.26103(14) 0.53344(11) 0.83592(10)
H17 H 0.2905 0.4819 0.8193
C26 C 0.24582(13) 0.60839(11) 0.79989(9)
H18 H 0.2641 0.6074 0.7590
C27 C 0.24974(18) 0.45134(14) 0.93541(14)
H19 H 0.2813 0.4043 0.9121
H20 H 0.1876 0.4295 0.9502
H21 H 0.2907 0.4677 0.9694
N1 N 0.47633(10) 0.98162(8) 0.75627(6)
N2 N 0.52391(10) 1.16494(8) 0.74552(6)
O1 O 0.28825(8) 0.83191(8) 0.79516(7)
O2 O 0.11429(9) 0.83512(8) 0.80443(8)
O3 O 0.18957(13) 0.76021(12) 0.71915(7)
Ag1B Ag 0.541897(10) 1.323103(7) 0.743232(7)
Ag1E Ag -0.041897(10) 0.823103(7) 0.743232(7)
N2B N 0.47609(10) 0.66494(8) 0.75448(6)
O2E O 0.61429(9) 0.83512(8) 0.69557(8)
loop_
_geom_bond_atom_site_label_1
_geom_bond_atom_site_label_2
_geom_bond_site_symmetry_1
_geom_bond_site_symmetry_2
Ag1 N1 1_555 1_555
S1 C21 1_555 1_555
C1 C8 1_555 1_555
C2 C3 1_555 1_555
C3 H1 1_555 1_555
C4 C3 1_555 1_555
H2 C4 1_555 1_555
C5 C4 1_555 1_555
H3 C5 1_555 1_555
C6 C5 1_555 1_555
H4 C6 1_555 1_555
C7 C2 1_555 1_555
C8 C15 1_555 1_555
C9 C1 1_555 1_555
C10 C9 1_555 1_555
H5 C10 1_555 1_555
C11 C10 1_555 1_555
H6 C11 1_555 1_555
C12 C11 1_555 1_555
H7 C12 1_555 1_555
C13 C12 1_555 1_555
H8 C13 1_555 1_555
C14 C9 1_555 1_555
H9 C14 1_555 1_555
C15 C16 1_555 1_555
C16 H10 1_555 1_555
C17 C16 1_555 1_555
H11 C17 1_555 1_555
C18 C17 1_555 1_555
H12 C18 1_555 1_555
C19 C18 1_555 1_555
H13 C19 1_555 1_555
C20 C15 1_555 1_555
H14 C20 1_555 1_555
C21 C22 1_555 1_555
C22 H15 1_555 1_555
C23 C22 1_555 1_555
H16 C23 1_555 1_555
C24 C23 1_555 1_555
C25 C24 1_555 1_555
H17 C25 1_555 1_555
C26 C21 1_555 1_555
H18 C26 1_555 1_555
C27 C24 1_555 1_555
H19 C27 1_555 1_555
H20 C27 1_555 1_555
H21 C27 1_555 1_555
N1 C1 1_555 1_555
N2 C7 1_555 1_555
O1 Ag1 1_555 1_555
O2 S1 1_555 1_555
O3 S1 1_555 1_555
Ag1B N2 1_555 1_555
Ag1E O2 1_555 1_555
N2B Ag1 1_555 1_555
O2E Ag1 1_555 1_555
S1 O1 1_555 1_555
C2 N1 1_555 1_555
C6 C7 1_555 1_555
C8 N2 1_555 1_555
C13 C14 1_555 1_555
C19 C20 1_555 1_555
C25 C26 1_555 1_555

#END
