
#######################################################################
#
#                 Cambridge Crystallographic Data Centre
#                                CCDC 
#
#######################################################################
#
# If this CIF has been generated from an entry in the Cambridge 
# Structural Database, then it will include bibliographic, chemical, 
# crystal, experimental, refinement or atomic coordinate data resulting 
# from the CCDC's data processing and validation procedures.
#
#######################################################################

data_GUDDUF
_symmetry_cell_setting           triclinic
_symmetry_space_group_name_H-M   'P -1'
_symmetry_Int_Tables_number      2
_space_group_name_Hall           '-P 1'
loop_
_symmetry_equiv_pos_site_id
_symmetry_equiv_pos_as_xyz
1 x,y,z
2 -x,-y,-z
_cell_length_a                   5.7375(4)
_cell_length_b                   9.7464(3)
_cell_length_c                   10.613(3)
_cell_angle_alpha                78.971(5)
_cell_angle_beta                 88.685(6)
_cell_angle_gamma                73.881(5)
_cell_volume                     559.331
loop_
_atom_site_label
_atom_site_type_symbol
_atom_site_fract_x
_atom_site_fract_y
_atom_site_fract_z
Cs1 Cs 0.79708(3) 0.360132(16) 0.124719(14)
O1 O 0.8254(3) 0.0153(2) 0.2023(2)
O2 O 0.5445(4) 0.1300(3) 0.3179(2)
C1 C 0.6171(4) 0.0376(3) 0.2467(2)
C2 C 0.4428(5) -0.0395(3) 0.2138(2)
H1 H 0.298(7) -0.014(4) 0.246(3)
C3 C 0.4716(5) -0.1373(3) 0.1385(2)
H2 H 0.334(7) -0.171(4) 0.118(3)
C4 C 0.6838(5) -0.2051(3) 0.0653(2)
O3 O 0.8846(3) -0.1676(2) 0.06803(19)
H3 H 0.882(9) -0.103(4) 0.119(4)
O4 O 0.6640(4) -0.2953(2) 0.0033(2)
O5 O 1.1239(4) 0.1844(3) 0.3925(2)
H4 H 1.283(4) 0.140(4) 0.370(3)
O6 O 1.2564(3) 0.2876(2) 0.53308(18)
C5 C 1.0922(4) 0.2519(3) 0.4862(2)
C6 C 0.8378(5) 0.2881(3) 0.5313(2)
H5 H 0.726(6) 0.257(4) 0.489(3)
C7 C 0.7451(5) 0.3639(3) 0.6214(2)
H6 H 0.583(7) 0.374(4) 0.642(3)
C8 C 0.8559(5) 0.4336(3) 0.7086(2)
O7 O 1.0831(4) 0.4358(2) 0.69461(18)
H7 H 1.144(7) 0.384(4) 0.636(3)
O8 O 0.7348(4) 0.4878(3) 0.7910(2)
Cs1A Cs 0.20292(3) 0.639868(16) -0.124719(14)
Cs1A_2 Cs 1.20292(3) 0.639868(16) -0.124719(14)
Cs1A_3 Cs 1.20292(3) -0.360132(16) -0.124719(14)
Cs1_2 Cs 0.79708(3) -0.639868(16) 0.124719(14)
Cs1A_4 Cs 0.20292(3) -0.360132(16) -0.124719(14)
Cs1A_5 Cs 1.20292(3) 0.639868(16) 0.875281(14)
Cs1A_6 Cs 0.20292(3) 0.639868(16) 0.875281(14)
O3A O 1.1154(3) 0.1676(2) -0.06803(19)
H3A H 1.118(9) 0.103(4) -0.119(4)
O4_2 O 0.6640(4) 0.7047(2) 0.0033(2)
O4A O 0.3360(4) 0.2953(2) -0.0033(2)
O4A_2 O 1.3360(4) 0.2953(2) -0.0033(2)
O7A O 0.9169(4) 0.5642(2) 0.30539(18)
H7A H 0.856(7) 0.616(4) 0.364(3)
O8A O 0.2652(4) 0.5122(3) 0.2090(2)
loop_
_geom_bond_atom_site_label_1
_geom_bond_atom_site_label_2
_geom_bond_site_symmetry_1
_geom_bond_site_symmetry_2
Cs1 O1 1_555 1_555
O1 C1 1_555 1_555
O2 Cs1 1_555 1_555
C1 O2 1_555 1_555
C2 C1 1_555 1_555
H1 C2 1_555 1_555
C3 C2 1_555 1_555
H2 C3 1_555 1_555
C4 C3 1_555 1_555
O3 C4 1_555 1_555
H3 O3 1_555 1_555
O4 C4 1_555 1_555
O5 Cs1 1_555 1_555
H4 O5 1_555 1_555
O6 C5 1_555 1_555
C5 O5 1_555 1_555
C6 C5 1_555 1_555
H5 C6 1_555 1_555
C7 C6 1_555 1_555
H6 C7 1_555 1_555
C8 C7 1_555 1_555
O7 C8 1_555 1_555
H7 O7 1_555 1_555
O8 C8 1_555 1_555
Cs1A O4_2 1_555 1_555
Cs1A_2 O4_2 1_555 1_555
Cs1A_3 O3 1_555 1_555
Cs1_2 O4 1_555 1_555
Cs1A_4 O4 1_555 1_555
Cs1A_5 O7 1_555 1_555
Cs1A_6 O8 1_555 1_555
O3A Cs1 1_555 1_555
H3A O3A 1_555 1_555
O4_2 Cs1 1_555 1_555
O4A Cs1 1_555 1_555
O4A_2 Cs1 1_555 1_555
O7A Cs1 1_555 1_555
H7A O7A 1_555 1_555
O8A Cs1 1_555 1_555
O4 Cs1A_3 1_555 1_555
Cs1A O4A 1_555 1_555
Cs1A_2 O4A_2 1_555 1_555

#END
