
#######################################################################
#
#                 Cambridge Crystallographic Data Centre
#                                CCDC 
#
#######################################################################
#
# If this CIF has been generated from an entry in the Cambridge 
# Structural Database, then it will include bibliographic, chemical, 
# crystal, experimental, refinement or atomic coordinate data resulting 
# from the CCDC's data processing and validation procedures.
#
#######################################################################

data_GUDFIV
_symmetry_cell_setting           orthorhombic
_symmetry_space_group_name_H-M   'P b c 21'
_symmetry_Int_Tables_number      29
_space_group_name_Hall           'P 2c -2b'
loop_
_symmetry_equiv_pos_site_id
_symmetry_equiv_pos_as_xyz
1 x,y,z
2 -x,-y,1/2+z
3 -x,1/2+y,z
4 x,1/2-y,1/2+z
_cell_length_a                   4.6743(3)
_cell_length_b                   7.9969(4)
_cell_length_c                   16.455(1)
_cell_angle_alpha                90
_cell_angle_beta                 90
_cell_angle_gamma                90
_cell_volume                     615.086
loop_
_atom_site_label
_atom_site_type_symbol
_atom_site_fract_x
_atom_site_fract_y
_atom_site_fract_z
Rb1 Rb -0.23778(4) 0.24987(7) 1.0000(3)
O1 O 0.2643(9) 0.4142(5) 0.9240(4)
O2 O 0.0248(11) 0.3001(6) 0.8244(4)
C1 C 0.2258(10) 0.3985(7) 0.8483(4)
C2 C 0.4004(12) 0.4904(9) 0.7910(5)
H1 H 0.527(9) 0.571(5) 0.821(3)
C3 C 0.4112(12) 0.4854(8) 0.7103(5)
H2 H 0.558(8) 0.534(4) 0.686(2)
C4 C 0.2189(11) 0.3961(7) 0.6495(4)
O3 O 0.0255(12) 0.2973(6) 0.6767(4)
O4 O 0.2703(9) 0.4235(4) 0.5786(4)
H3 H 0.023(6) 0.298(3) 0.7239(17)
Rb1_2 Rb 0.76222(4) 0.24987(7) 1.0000(3)
Rb1B Rb 0.23778(4) 0.74987(7) 1.0000(3)
Rb1C Rb -0.23778(4) 0.25013(7) 0.5000(3)
Rb1A Rb 0.23778(4) 0.75013(7) 0.5000(3)
Rb1C_2 Rb 0.76222(4) 0.25013(7) 0.5000(3)
O1_2 O -0.7357(9) 0.4142(5) 0.9240(4)
O1B O -0.2643(9) -0.0858(5) 0.9240(4)
O3C O 0.0255(12) 0.2027(6) 1.1767(4)
O4A O -0.2703(9) 0.5765(4) 1.0786(4)
O4C O -0.7297(9) 0.0765(4) 1.0786(4)
O4C_2 O 0.2703(9) 0.0765(4) 1.0786(4)
H3C H 0.023(6) 0.202(3) 1.2239(17)
loop_
_geom_bond_atom_site_label_1
_geom_bond_atom_site_label_2
_geom_bond_site_symmetry_1
_geom_bond_site_symmetry_2
Rb1 O1 1_555 1_555
O1 C1 1_555 1_555
O2 Rb1 1_555 1_555
C1 O2 1_555 1_555
C2 C1 1_555 1_555
H1 C2 1_555 1_555
C3 C2 1_555 1_555
H2 C3 1_555 1_555
C4 C3 1_555 1_555
O3 C4 1_555 1_555
O4 C4 1_555 1_555
H3 O3 1_555 1_555
Rb1_2 O1 1_555 1_555
Rb1B O1 1_555 1_555
Rb1C O3 1_555 1_555
Rb1A O4 1_555 1_555
Rb1C_2 O4 1_555 1_555
O1_2 Rb1 1_555 1_555
O1B Rb1 1_555 1_555
O3C Rb1 1_555 1_555
O4A Rb1 1_555 1_555
O4C Rb1 1_555 1_555
O4C_2 Rb1 1_555 1_555
H3C O3C 1_555 1_555
O4 Rb1C 1_555 1_555
Rb1_2 O4C_2 1_555 1_555
Rb1B O4A 1_555 1_555

#END
