
#######################################################################
#
#                 Cambridge Crystallographic Data Centre
#                                CCDC 
#
#######################################################################
#
# If this CIF has been generated from an entry in the Cambridge 
# Structural Database, then it will include bibliographic, chemical, 
# crystal, experimental, refinement or atomic coordinate data resulting 
# from the CCDC's data processing and validation procedures.
#
#######################################################################

data_GUDJEW
_symmetry_cell_setting           orthorhombic
_symmetry_space_group_name_H-M   'P b c n'
_symmetry_Int_Tables_number      60
_space_group_name_Hall           '-P 2n 2ab'
loop_
_symmetry_equiv_pos_site_id
_symmetry_equiv_pos_as_xyz
1 x,y,z
2 1/2-x,1/2-y,1/2+z
3 1/2+x,1/2-y,-z
4 -x,y,1/2-z
5 -x,-y,-z
6 1/2+x,1/2+y,1/2-z
7 1/2-x,1/2+y,z
8 x,-y,1/2+z
_cell_length_a                   28.483(2)
_cell_length_b                   7.3333(5)
_cell_length_c                   12.3482(9)
_cell_angle_alpha                90
_cell_angle_beta                 90
_cell_angle_gamma                90
_cell_volume                     2579.22
loop_
_atom_site_label
_atom_site_type_symbol
_atom_site_fract_x
_atom_site_fract_y
_atom_site_fract_z
K1 K 0.05272(4) 0.21521(14) 0.04405(8)
Mn1 Mn 0.0000 -0.13907(11) 0.2500
C1 C 0.06629(13) 0.1574(5) 0.3313(3)
C2 C 0.11118(12) 0.2000(5) 0.3940(3)
C3 C 0.15446(13) 0.1904(5) 0.3418(3)
C4 C 0.19539(13) 0.2493(5) 0.3920(3)
C5 C 0.19313(13) 0.3190(5) 0.4966(3)
C6 C 0.15056(13) 0.3209(5) 0.5506(3)
C7 C 0.10950(12) 0.2602(5) 0.5010(3)
C8 C 0.06299(13) 0.2703(5) 0.5612(3)
Cl1 Cl 0.15723(4) 0.09472(16) 0.21386(8)
Cl2 Cl 0.24811(4) 0.24004(19) 0.32449(9)
Cl3 Cl 0.24284(4) 0.40285(18) 0.55765(9)
Cl4 Cl 0.14725(4) 0.40986(16) 0.68016(8)
O1 O 0.04294(10) 0.0213(4) 0.3615(2)
O2 O 0.05668(10) 0.2620(4) 0.2565(2)
O3 O 0.03849(12) 0.4058(5) 0.5439(3)
O4 O 0.05346(10) 0.1406(4) 0.6234(2)
O5 O 0.03938(11) -0.3744(4) 0.3281(2)
H1 H 0.0229 -0.4138 0.3773
H2 H 0.0495 -0.4418 0.2805
O6 O 0.1391(2) 0.2492(8) -0.0528(4)
H3 H 0.1626 0.2696 -0.0163
H4 H 0.1411 0.2242 -0.1173
K1C K -0.05272(4) 0.21521(14) 0.45595(8)
C1C C -0.06629(13) 0.1574(5) 0.1687(3)
C2C C -0.11118(12) 0.2000(5) 0.1060(3)
C3C C -0.15446(13) 0.1904(5) 0.1582(3)
C4C C -0.19539(13) 0.2493(5) 0.1080(3)
C5C C -0.19313(13) 0.3190(5) 0.0034(3)
C6C C -0.15056(13) 0.3209(5) -0.0506(3)
C7C C -0.10950(12) 0.2602(5) -0.0010(3)
C8C C -0.06299(13) 0.2703(5) -0.0612(3)
Cl1C Cl -0.15723(4) 0.09472(16) 0.28614(8)
Cl2C Cl -0.24811(4) 0.24004(19) 0.17551(9)
Cl3C Cl -0.24284(4) 0.40285(18) -0.05765(9)
Cl4C Cl -0.14725(4) 0.40986(16) -0.18016(8)
O1C O -0.04294(10) 0.0213(4) 0.1385(2)
O2C O -0.05668(10) 0.2620(4) 0.2435(2)
O3C O -0.03849(12) 0.4058(5) -0.0439(3)
O4C O -0.05346(10) 0.1406(4) -0.1234(2)
O5C O -0.03938(11) -0.3744(4) 0.1719(2)
H1C H -0.0229 -0.4138 0.1227
H2C H -0.0495 -0.4418 0.2195
O6C O -0.1391(2) 0.2492(8) 0.5528(4)
H3C H -0.1626 0.2696 0.5163
H4C H -0.1411 0.2242 0.6173
K1D K -0.05272(4) -0.21521(14) -0.04405(8)
K1D_2 K -0.05272(4) 0.78479(14) -0.04405(8)
K1G K 0.05272(4) -0.21521(14) 0.54405(8)
K1G_2 K 0.05272(4) 0.78479(14) 0.54405(8)
Mn1D Mn 0.0000 0.13907(11) -0.2500
Mn1D_2 Mn 0.0000 0.13907(11) 0.7500
O1D O -0.04294(10) -0.0213(4) 0.6385(2)
O1G O 0.04294(10) -0.0213(4) -0.1385(2)
O3D O -0.03849(12) 0.5942(5) 0.4561(3)
O3G O 0.03849(12) 0.5942(5) 0.0439(3)
O4D O -0.05346(10) -0.1406(4) 0.3766(2)
O4G O 0.05346(10) -0.1406(4) 0.1234(2)
O5D O -0.03938(11) 0.3744(4) 0.6719(2)
O5G O 0.03938(11) 0.3744(4) -0.1719(2)
loop_
_geom_bond_atom_site_label_1
_geom_bond_atom_site_label_2
_geom_bond_site_symmetry_1
_geom_bond_site_symmetry_2
K1 O2 1_555 1_555
Mn1 O1 1_555 1_555
C1 C2 1_555 1_555
C2 C3 1_555 1_555
C3 C4 1_555 1_555
C4 C5 1_555 1_555
C5 C6 1_555 1_555
C6 C7 1_555 1_555
C7 C2 1_555 1_555
C8 C7 1_555 1_555
Cl1 C3 1_555 1_555
Cl2 C4 1_555 1_555
Cl3 C5 1_555 1_555
Cl4 C6 1_555 1_555
O1 C1 1_555 1_555
O2 C1 1_555 1_555
O3 C8 1_555 1_555
O4 C8 1_555 1_555
O5 Mn1 1_555 1_555
H1 O5 1_555 1_555
H2 O5 1_555 1_555
O6 K1 1_555 1_555
H3 O6 1_555 1_555
H4 O6 1_555 1_555
K1C O1 1_555 1_555
C1C C2C 1_555 1_555
C2C C3C 1_555 1_555
C3C C4C 1_555 1_555
C4C C5C 1_555 1_555
C5C C6C 1_555 1_555
C6C C7C 1_555 1_555
C7C C2C 1_555 1_555
C8C C7C 1_555 1_555
Cl1C C3C 1_555 1_555
Cl2C C4C 1_555 1_555
Cl3C C5C 1_555 1_555
Cl4C C6C 1_555 1_555
O1C K1 1_555 1_555
O2C K1C 1_555 1_555
O3C K1 1_555 1_555
O4C C8C 1_555 1_555
O5C Mn1 1_555 1_555
H1C O5C 1_555 1_555
H2C O5C 1_555 1_555
O6C K1C 1_555 1_555
H3C O6C 1_555 1_555
H4C O6C 1_555 1_555
K1D O1C 1_555 1_555
K1D_2 O3C 1_555 1_555
K1G O1 1_555 1_555
K1G_2 O3 1_555 1_555
Mn1D O4C 1_555 1_555
Mn1D_2 O4 1_555 1_555
O1D K1C 1_555 1_555
O1G K1 1_555 1_555
O3D K1C 1_555 1_555
O3G K1 1_555 1_555
O4D Mn1 1_555 1_555
O4G K1 1_555 1_555
O5D K1C 1_555 1_555
O5G K1 1_555 1_555
Mn1 O1C 1_555 1_555
Mn1 O4G 1_555 1_555
O3 K1C 1_555 1_555
O4 K1G 1_555 1_555
O5 K1G 1_555 1_555
K1C O4D 1_555 1_555
C1C O1C 1_555 1_555
C1C O2C 1_555 1_555
C8C O3C 1_555 1_555
O4C K1D 1_555 1_555
O5C K1D 1_555 1_555
K1D O1G 1_555 1_555
K1D_2 O3G 1_555 1_555
K1G O1D 1_555 1_555
K1G_2 O3D 1_555 1_555
Mn1D O1G 1_555 1_555
Mn1D O5G 1_555 1_555
Mn1D_2 O1D 1_555 1_555
Mn1D_2 O5D 1_555 1_555

#END
