
#######################################################################
#
#                 Cambridge Crystallographic Data Centre
#                                CCDC 
#
#######################################################################
#
# If this CIF has been generated from an entry in the Cambridge 
# Structural Database, then it will include bibliographic, chemical, 
# crystal, experimental, refinement or atomic coordinate data resulting 
# from the CCDC's data processing and validation procedures.
#
#######################################################################

data_GUDJOG
_symmetry_cell_setting           monoclinic
_symmetry_space_group_name_H-M   'C 2/c'
_symmetry_Int_Tables_number      15
_space_group_name_Hall           '-C 2yn'
loop_
_symmetry_equiv_pos_site_id
_symmetry_equiv_pos_as_xyz
1 x,y,z
2 -x,y,1/2-z
3 1/2+x,1/2+y,z
4 1/2-x,1/2+y,1/2-z
5 -x,-y,-z
6 x,-y,1/2+z
7 1/2-x,1/2-y,-z
8 1/2+x,1/2-y,1/2+z
_cell_length_a                   32.599(5)
_cell_length_b                   8.8449(14)
_cell_length_c                   34.246(8)
_cell_angle_alpha                90
_cell_angle_beta                 116.457(2)
_cell_angle_gamma                90
_cell_volume                     8840.17
loop_
_atom_site_label
_atom_site_type_symbol
_atom_site_fract_x
_atom_site_fract_y
_atom_site_fract_z
Sm1 Sm 0.493377(11) 0.87809(4) 0.118359(10)
C1 C 0.88943(18) -0.3520(7) 0.47635(17)
C2 C 0.58010(19) 0.7182(7) 0.24924(18)
C3 C 0.8117(2) -0.1088(8) 0.33292(19)
H1 H 0.8000 -0.1969 0.3144
H2 H 0.8408 -0.0813 0.3337
C4 C 0.5760(2) 0.7751(7) 0.28478(19)
H3 H 0.5547 0.8497 0.2817
C5 C 0.61096(19) 0.6021(7) 0.25313(18)
H4 H 0.6119 0.5625 0.2284
C6 C 0.6826(2) 0.3843(8) 0.26568(19)
H5 H 0.6959 0.4676 0.2567
H6 H 0.6553 0.3510 0.2405
C7 C 0.7163(2) 0.2568(7) 0.28240(18)
C8 C 0.7635(2) 0.2889(7) 0.3038(2)
C9 C 0.7782(2) 0.0211(7) 0.31489(19)
C10 C 0.7004(2) 0.1043(7) 0.27876(19)
N1 N 0.67064(19) 0.4345(6) 0.29975(16)
H7 H 0.6836 0.3911 0.3248
C11 C 0.8501(2) -0.2426(8) 0.4040(2)
C12 C 0.8563(2) -0.2567(7) 0.4469(2)
H8 H 0.8379 -0.2010 0.4559
C13 C 0.6052(2) 0.7166(8) 0.3257(2)
N2 N 0.81766(19) -0.1427(7) 0.37626(17)
H9 H 0.8001 -0.0982 0.3854
C14 C 0.6399(2) 0.5468(7) 0.2939(2)
C15 C 0.9178(2) -0.4350(6) 0.46308(19)
H10 H 0.9409 -0.4965 0.4828
C16 C 0.8777(2) -0.3296(6) 0.39113(19)
H11 H 0.8736 -0.3239 0.3625
C17 C 0.7947(2) 0.1665(7) 0.3206(2)
C18 C 0.7317(2) -0.0098(7) 0.2953(2)
C19 C 0.8957(2) -0.3645(9) 0.52180(19)
C20 C 0.7805(2) 0.4499(7) 0.3113(2)
H12 H 0.7556 0.5172 0.2951
H13 H 0.8040 0.4618 0.3019
H14 H 0.7928 0.4733 0.3419
C21 C 0.6364(2) 0.6047(8) 0.33015(19)
H15 H 0.6554 0.5672 0.3578
C22 C 0.7142(2) -0.1692(7) 0.2917(2)
H16 H 0.6864 -0.1691 0.2949
H17 H 0.7368 -0.2301 0.3142
H18 H 0.7082 -0.2100 0.2637
C23 C 0.6491(2) 0.0746(7) 0.2581(2)
H19 H 0.6386 0.0476 0.2280
H20 H 0.6334 0.1641 0.2600
H21 H 0.6428 -0.0067 0.2732
C24 C 0.8459(2) 0.2021(8) 0.3449(2)
H22 H 0.8611 0.1236 0.3657
H23 H 0.8501 0.2970 0.3598
H24 H 0.8585 0.2080 0.3244
C25 C 0.55034(19) 0.7797(7) 0.2040(2)
O1 O 0.53003(13) 0.9071(4) 0.19979(12)
O2 O 0.54556(14) 0.7033(5) 0.17131(13)
O3 O 0.86433(15) -0.2939(6) 0.52807(13)
H25 H 0.8736 -0.2776 0.5542
O4 O 0.47666(14) 1.1284(6) 0.12491(14)
C26 C 0.6012(3) 0.7695(8) 0.3658(2)
C27 C 0.5382(3) 1.3057(10) 0.1710(3)
H26 H 0.5560 1.2551 0.1590
H27 H 0.5524 1.2927 0.2020
H28 H 0.5364 1.4116 0.1642
C28 C 0.4875(5) 1.2353(11) 0.1504(3)
C29 C 0.4727(4) 1.4327(10) 0.1927(3)
H29 H 0.5051 1.4509 0.2077
H30 H 0.4614 1.4092 0.2135
H31 H 0.4575 1.5214 0.1766
C30 C 0.4133(4) 1.2262(14) 0.1477(5)
H32 H 0.3896 1.2987 0.1324
H33 H 0.4107 1.1909 0.1729
H34 H 0.4103 1.1424 0.1288
O5 O 0.47378(15) 0.6382(6) 0.08318(14)
N3 N 0.4638(5) 1.3064(9) 0.1629(3)
C31 C 0.5379(3) 0.5129(11) 0.0749(3)
H35 H 0.5545 0.4413 0.0976
H36 H 0.5523 0.6102 0.0829
H37 H 0.5380 0.4802 0.0482
C32 C 0.4808(5) 0.5255(12) 0.0676(3)
C33 C 0.4758(4) 0.2886(9) 0.0309(3)
H38 H 0.5037 0.2903 0.0279
H39 H 0.4502 0.2772 0.0027
H40 H 0.4766 0.2053 0.0492
C34 C 0.4146(3) 0.4363(10) 0.0449(4)
H41 H 0.4125 0.5170 0.0626
H42 H 0.4071 0.3423 0.0541
H43 H 0.3936 0.4546 0.0149
O6 O 0.63494(16) 0.7489(7) 0.40216(14)
N4 N 0.4714(5) 0.4271(9) 0.0502(3)
C35 C 0.9109(2) -0.4240(6) 0.42032(19)
O7 O 0.92816(14) -0.4301(4) 0.54989(12)
C36 C 0.9408(2) -0.5115(7) 0.4053(2)
O8 O 0.97213(14) -0.5921(5) 0.43189(13)
O9 O 0.93365(14) -0.5025(5) 0.36640(13)
O10 O 0.56481(15) 0.8252(5) 0.36111(13)
Sm1A Sm 0.506623(11) 0.87809(4) 0.381641(10)
Sm1C Sm 1.006623(11) -0.62191(4) 0.381641(10)
Sm1G Sm 0.993377(11) -0.37809(4) 0.618359(10)
O7G O 0.42816(14) 0.9301(4) 0.04989(12)
O8C O 0.52787(14) 0.9079(5) 0.06811(13)
O9C O 0.56635(14) 0.9975(5) 0.13360(13)
O10A O 0.43519(15) 0.8252(5) 0.13889(13)
loop_
_geom_bond_atom_site_label_1
_geom_bond_atom_site_label_2
_geom_bond_site_symmetry_1
_geom_bond_site_symmetry_2
Sm1 O1 1_555 1_555
C1 C12 1_555 1_555
C2 C4 1_555 1_555
C3 H1 1_555 1_555
H2 C3 1_555 1_555
C4 H3 1_555 1_555
C5 C2 1_555 1_555
H4 C5 1_555 1_555
C6 H5 1_555 1_555
H6 C6 1_555 1_555
C7 C6 1_555 1_555
C8 C7 1_555 1_555
C9 C3 1_555 1_555
C10 C7 1_555 1_555
N1 C6 1_555 1_555
H7 N1 1_555 1_555
C11 C12 1_555 1_555
C12 H8 1_555 1_555
C13 C4 1_555 1_555
N2 C3 1_555 1_555
H9 N2 1_555 1_555
C14 C5 1_555 1_555
C15 C1 1_555 1_555
H10 C15 1_555 1_555
C16 C11 1_555 1_555
H11 C16 1_555 1_555
C17 C8 1_555 1_555
C18 C9 1_555 1_555
C19 C1 1_555 1_555
C20 C8 1_555 1_555
H12 C20 1_555 1_555
H13 C20 1_555 1_555
H14 C20 1_555 1_555
C21 C13 1_555 1_555
H15 C21 1_555 1_555
C22 C18 1_555 1_555
H16 C22 1_555 1_555
H17 C22 1_555 1_555
H18 C22 1_555 1_555
C23 C10 1_555 1_555
H19 C23 1_555 1_555
H20 C23 1_555 1_555
H21 C23 1_555 1_555
C24 C17 1_555 1_555
H22 C24 1_555 1_555
H23 C24 1_555 1_555
H24 C24 1_555 1_555
C25 C2 1_555 1_555
O1 C25 1_555 1_555
O2 Sm1 1_555 1_555
O3 C19 1_555 1_555
H25 O3 1_555 1_555
O4 Sm1 1_555 1_555
C26 C13 1_555 1_555
C27 H26 1_555 1_555
H27 C27 1_555 1_555
H28 C27 1_555 1_555
C28 O4 1_555 1_555
C29 H29 1_555 1_555
H30 C29 1_555 1_555
H31 C29 1_555 1_555
C30 H32 1_555 1_555
H33 C30 1_555 1_555
H34 C30 1_555 1_555
O5 Sm1 1_555 1_555
N3 C28 1_555 1_555
C31 H35 1_555 1_555
H36 C31 1_555 1_555
H37 C31 1_555 1_555
C32 O5 1_555 1_555
C33 H38 1_555 1_555
H39 C33 1_555 1_555
H40 C33 1_555 1_555
C34 H41 1_555 1_555
H42 C34 1_555 1_555
H43 C34 1_555 1_555
O6 C26 1_555 1_555
N4 C32 1_555 1_555
C35 C15 1_555 1_555
O7 C19 1_555 1_555
C36 C35 1_555 1_555
O8 C36 1_555 1_555
O9 C36 1_555 1_555
O10 C26 1_555 1_555
Sm1A O10 1_555 1_555
Sm1C O8 1_555 1_555
Sm1G O7 1_555 1_555
O7G Sm1 1_555 1_555
O8C Sm1 1_555 1_555
O9C Sm1 1_555 1_555
O10A Sm1 1_555 1_555
C9 C17 1_555 1_555
C10 C18 1_555 1_555
N1 C14 1_555 1_555
C11 N2 1_555 1_555
C14 C21 1_555 1_555
C16 C35 1_555 1_555
C25 O2 1_555 1_555
C27 C28 1_555 1_555
C29 N3 1_555 1_555
C30 N3 1_555 1_555
C31 C32 1_555 1_555
C33 N4 1_555 1_555
C34 N4 1_555 1_555
O9 Sm1C 1_555 1_555

#END
