
#######################################################################
#
#                 Cambridge Crystallographic Data Centre
#                                CCDC 
#
#######################################################################
#
# If this CIF has been generated from an entry in the Cambridge 
# Structural Database, then it will include bibliographic, chemical, 
# crystal, experimental, refinement or atomic coordinate data resulting 
# from the CCDC's data processing and validation procedures.
#
#######################################################################

data_GUDRUT
_symmetry_cell_setting           monoclinic
_symmetry_space_group_name_H-M   'P n'
_symmetry_Int_Tables_number      7
_space_group_name_Hall           'P -2yac'
loop_
_symmetry_equiv_pos_site_id
_symmetry_equiv_pos_as_xyz
1 x,y,z
2 1/2+x,-y,1/2+z
_cell_length_a                   9.428(2)
_cell_length_b                   10.093(3)
_cell_length_c                   13.372(3)
_cell_angle_alpha                90
_cell_angle_beta                 105.29(3)
_cell_angle_gamma                90
_cell_volume                     1227.4
loop_
_atom_site_label
_atom_site_type_symbol
_atom_site_fract_x
_atom_site_fract_y
_atom_site_fract_z
Ag1 Ag 1.01868(8) 0.74776(3) 0.51344(6)
N1 N 1.1706(4) 0.7104(4) 0.6671(3)
N2 N 0.9461(4) 0.9012(3) 0.6525(3)
N3 N 0.0926(3) 0.8693(3) 0.3718(2)
N4 N -0.1469(4) 0.6961(4) 0.3665(3)
C1 C 1.3007(5) 0.6504(4) 0.6764(4)
H1 H 1.3234 0.6196 0.6169
C2 C 1.4017(6) 0.6327(5) 0.7708(4)
H2 H 1.4909 0.5909 0.7749
C3 C 1.3696(6) 0.6765(5) 0.8560(4)
H3 H 1.4359 0.6655 0.9206
C4 C 1.2380(8) 0.7377(4) 0.8472(5)
H4 H 1.2158 0.7703 0.9064
C5 C 1.1364(9) 0.7522(3) 0.7517(5)
C6 C 0.9907(5) 0.8146(7) 0.7429(4)
H5 H 0.9174 0.7458 0.7380
H6 H 0.9950 0.8658 0.8051
C7 C 0.7887(5) 0.9194(4) 0.6136(3)
C8 C 0.6996(5) 0.8126(5) 0.5976(4)
H7 H 0.7402 0.7287 0.6130
C9 C 0.5498(5) 0.8256(4) 0.5588(4)
H8 H 0.4905 0.7507 0.5521
C10 C 0.4859(4) 0.9473(4) 0.5297(3)
C11 C 0.5761(5) 1.0551(4) 0.5423(3)
H9 H 0.5352 1.1379 0.5221
C12 C 0.7290(5) 1.0451(4) 0.5847(3)
H10 H 0.7887 1.1198 0.5934
C13 C 0.3190(5) 0.9667(5) 0.4903(4)
H11 H 0.2735 0.9426 0.5449
H12 H 0.2983 1.0595 0.4742
C14 C 0.2522(5) 0.8848(5) 0.3954(4)
H13 H 0.2764 0.9256 0.3363
H14 H 0.2970 0.7976 0.4047
C15 C 0.0417(6) 0.7739(5) 0.2886(4)
H15 H 0.1082 0.6987 0.3006
H16 H 0.0456 0.8145 0.2236
C16 C -0.1143(7) 0.7241(5) 0.2784(5)
C17 C -0.2098(6) 0.7020(6) 0.1824(4)
H17 H -0.1829 0.7217 0.1220
C18 C -0.3482(6) 0.6494(5) 0.1785(5)
H18 H -0.4161 0.6340 0.1152
C19 C -0.3816(6) 0.6209(5) 0.2692(4)
H19 H -0.4728 0.5853 0.2686
C20 C -0.2797(5) 0.6453(5) 0.3612(4)
H20 H -0.3039 0.6257 0.4226
C21 C 1.0298(5) 1.0233(5) 0.6662(5)
H21 H 1.0023 1.0774 0.7170
H22 H 1.0098 1.0700 0.6014
H23 H 1.1328 1.0032 0.6891
C22 C 0.0159(6) 0.9972(4) 0.3468(5)
H24 H 0.0431 1.0546 0.4061
H25 H -0.0884 0.9828 0.3287
H26 H 0.0430 1.0375 0.2895
Ag1_2 Ag 0.01868(8) 0.74776(3) 0.51344(6)
N3_2 N 1.0926(3) 0.8693(3) 0.3718(2)
N4_2 N 0.8531(4) 0.6961(4) 0.3665(3)
Cl1 Cl 0.81694(12) 0.56039(11) 0.90867(9)
O1 O 0.7041(6) 0.4991(5) 0.9461(4)
O2 O 0.7923(5) 0.5317(5) 0.8024(3)
O3 O 0.8014(9) 0.6948(5) 0.9214(5)
O4 O 0.9535(7) 0.5162(13) 0.9628(6)
O5 O 0.7490(7) 0.4163(8) 0.5940(4)
H27 H 0.6494 0.4093 0.5650
H28 H 0.7535 0.3768 0.6520
loop_
_geom_bond_atom_site_label_1
_geom_bond_atom_site_label_2
_geom_bond_site_symmetry_1
_geom_bond_site_symmetry_2
Ag1 N1 1_555 1_555
N1 C1 1_555 1_555
N2 Ag1 1_555 1_555
N3 C14 1_555 1_555
N4 C16 1_555 1_555
C1 H1 1_555 1_555
C2 C1 1_555 1_555
H2 C2 1_555 1_555
C3 C2 1_555 1_555
H3 C3 1_555 1_555
C4 C3 1_555 1_555
H4 C4 1_555 1_555
C5 N1 1_555 1_555
C6 N2 1_555 1_555
H5 C6 1_555 1_555
H6 C6 1_555 1_555
C7 N2 1_555 1_555
C8 C7 1_555 1_555
H7 C8 1_555 1_555
C9 C8 1_555 1_555
H8 C9 1_555 1_555
C10 C9 1_555 1_555
C11 C10 1_555 1_555
H9 C11 1_555 1_555
C12 C7 1_555 1_555
H10 C12 1_555 1_555
C13 C10 1_555 1_555
H11 C13 1_555 1_555
H12 C13 1_555 1_555
C14 C13 1_555 1_555
H13 C14 1_555 1_555
H14 C14 1_555 1_555
C15 N3 1_555 1_555
H15 C15 1_555 1_555
H16 C15 1_555 1_555
C16 C15 1_555 1_555
C17 C16 1_555 1_555
H17 C17 1_555 1_555
C18 C17 1_555 1_555
H18 C18 1_555 1_555
C19 C18 1_555 1_555
H19 C19 1_555 1_555
C20 N4 1_555 1_555
H20 C20 1_555 1_555
C21 N2 1_555 1_555
H21 C21 1_555 1_555
H22 C21 1_555 1_555
H23 C21 1_555 1_555
C22 N3 1_555 1_555
H24 C22 1_555 1_555
H25 C22 1_555 1_555
H26 C22 1_555 1_555
Cl1 O1 1_555 1_555
O2 Cl1 1_555 1_555
O3 Cl1 1_555 1_555
O4 Cl1 1_555 1_555
O5 H27 1_555 1_555
H28 O5 1_555 1_555
Ag1_2 N3 1_555 1_555
N3_2 Ag1 1_555 1_555
N4_2 Ag1 1_555 1_555
N4 Ag1_2 1_555 1_555
C4 C5 1_555 1_555
C5 C6 1_555 1_555
C11 C12 1_555 1_555
C19 C20 1_555 1_555

#END
