
#######################################################################
#
#                 Cambridge Crystallographic Data Centre
#                                CCDC 
#
#######################################################################
#
# If this CIF has been generated from an entry in the Cambridge 
# Structural Database, then it will include bibliographic, chemical, 
# crystal, experimental, refinement or atomic coordinate data resulting 
# from the CCDC's data processing and validation procedures.
#
#######################################################################

data_GUDRIH
_symmetry_cell_setting           orthorhombic
_symmetry_space_group_name_H-M   'P 21 21 21'
_symmetry_Int_Tables_number      19
_space_group_name_Hall           'P 2ac 2ab'
loop_
_symmetry_equiv_pos_site_id
_symmetry_equiv_pos_as_xyz
1 x,y,z
2 1/2-x,-y,1/2+z
3 1/2+x,1/2-y,-z
4 -x,1/2+y,1/2-z
_cell_length_a                   8.709(3)
_cell_length_b                   13.440(4)
_cell_length_c                   18.810(3)
_cell_angle_alpha                90
_cell_angle_beta                 90
_cell_angle_gamma                90
_cell_volume                     2201.69
loop_
_atom_site_label
_atom_site_type_symbol
_atom_site_fract_x
_atom_site_fract_y
_atom_site_fract_z
Ag1 Ag 0.44346(3) 0.228006(17) 0.147691(13)
N1 N 0.3631(3) 0.0563(2) 0.11119(14)
N2 N 0.2022(3) 0.23987(18) 0.09306(12)
N3 N 0.3728(3) 0.66705(17) 0.26335(13)
N4 N 0.3729(3) 0.84892(17) 0.33589(12)
C1 C 0.4435(5) -0.0255(2) 0.09724(16)
H1 H 0.5469 -0.0262 0.1096
C2 C 0.3831(4) -0.1096(3) 0.06543(18)
H2 H 0.4444 -0.1646 0.0557
C3 C 0.2288(5) -0.1094(2) 0.04850(19)
H3 H 0.1838 -0.1644 0.0270
C4 C 0.1434(4) -0.0268(2) 0.06387(17)
H4 H 0.0388 -0.0260 0.0540
C5 C 0.2127(4) 0.0556(2) 0.09412(16)
C6 C 0.1224(4) 0.1470(2) 0.11225(18)
H5 H 0.0246 0.1446 0.0876
H6 H 0.1016 0.1473 0.1629
C7 C 0.1080(4) 0.3248(2) 0.11911(17)
H7 H 0.0855 0.3150 0.1691
H8 H 0.0113 0.3258 0.0936
C8 C 0.1875(4) 0.4237(2) 0.10964(17)
C9 C 0.2773(3) 0.4619(2) 0.16442(15)
H9 H 0.2851 0.4268 0.2069
C10 C 0.3555(3) 0.5516(2) 0.15695(17)
C11 C 0.3434(4) 0.6025(2) 0.09306(17)
H10 H 0.3977 0.6614 0.0867
C12 C 0.2518(5) 0.5668(2) 0.03873(18)
H11 H 0.2424 0.6024 -0.0034
C13 C 0.1737(4) 0.4775(2) 0.04748(17)
H12 H 0.1114 0.4538 0.0111
C14 C 0.4502(4) 0.5932(2) 0.21727(15)
H13 H 0.4839 0.5382 0.2468
H14 H 0.5413 0.6239 0.1973
C15 C 0.3358(3) 0.7585(2) 0.22490(15)
H15 H 0.2510 0.7460 0.1927
H16 H 0.4238 0.7786 0.1967
C16 C 0.2928(3) 0.8419(2) 0.27498(15)
C17 C 0.1789(4) 0.9097(2) 0.25769(17)
H17 H 0.1242 0.9029 0.2155
C18 C 0.1473(4) 0.9871(2) 0.30309(18)
H18 H 0.0722 1.0337 0.2918
C19 C 0.2285(4) 0.9945(2) 0.36555(18)
H19 H 0.2081 1.0453 0.3977
C20 C 0.3405(4) 0.9250(2) 0.37939(16)
H20 H 0.3968 0.9312 0.4212
C21 C 0.2234(4) 0.2447(3) 0.01563(15)
H21 H 0.2757 0.1860 -0.0004
H22 H 0.2834 0.3023 0.0038
H23 H 0.1250 0.2491 -0.0072
C22 C 0.2355(4) 0.6265(2) 0.29704(18)
H24 H 0.1998 0.6718 0.3329
H25 H 0.2596 0.5636 0.3185
H26 H 0.1569 0.6174 0.2619
Ag1C Ag 0.55654(3) 0.728006(17) 0.352309(13)
N3C N 0.6272(3) 0.16705(17) 0.23665(13)
N4C N 0.6271(3) 0.34892(17) 0.16411(12)
Cl1 Cl 0.18818(8) 0.28124(5) 0.34596(4)
O1 O 0.1724(3) 0.38704(15) 0.34569(15)
O2 O 0.0481(3) 0.2383(2) 0.3655(2)
O3 O 0.2309(4) 0.2469(2) 0.27722(13)
O4 O 0.3038(3) 0.2518(2) 0.39490(13)
loop_
_geom_bond_atom_site_label_1
_geom_bond_atom_site_label_2
_geom_bond_site_symmetry_1
_geom_bond_site_symmetry_2
Ag1 N1 1_555 1_555
N1 C1 1_555 1_555
N2 Ag1 1_555 1_555
N3 C14 1_555 1_555
N4 C16 1_555 1_555
C1 H1 1_555 1_555
C2 C1 1_555 1_555
H2 C2 1_555 1_555
C3 C2 1_555 1_555
H3 C3 1_555 1_555
C4 C3 1_555 1_555
H4 C4 1_555 1_555
C5 N1 1_555 1_555
C6 N2 1_555 1_555
H5 C6 1_555 1_555
H6 C6 1_555 1_555
C7 N2 1_555 1_555
H7 C7 1_555 1_555
H8 C7 1_555 1_555
C8 C7 1_555 1_555
C9 C8 1_555 1_555
H9 C9 1_555 1_555
C10 C9 1_555 1_555
C11 C10 1_555 1_555
H10 C11 1_555 1_555
C12 C11 1_555 1_555
H11 C12 1_555 1_555
C13 C8 1_555 1_555
H12 C13 1_555 1_555
C14 C10 1_555 1_555
H13 C14 1_555 1_555
H14 C14 1_555 1_555
C15 N3 1_555 1_555
H15 C15 1_555 1_555
H16 C15 1_555 1_555
C16 C15 1_555 1_555
C17 C16 1_555 1_555
H17 C17 1_555 1_555
C18 C17 1_555 1_555
H18 C18 1_555 1_555
C19 C18 1_555 1_555
H19 C19 1_555 1_555
C20 N4 1_555 1_555
H20 C20 1_555 1_555
C21 N2 1_555 1_555
H21 C21 1_555 1_555
H22 C21 1_555 1_555
H23 C21 1_555 1_555
C22 N3 1_555 1_555
H24 C22 1_555 1_555
H25 C22 1_555 1_555
H26 C22 1_555 1_555
Cl1 O1 1_555 1_555
O2 Cl1 1_555 1_555
O3 Cl1 1_555 1_555
O4 Cl1 1_555 1_555
Ag1C N3 1_555 1_555
N3C Ag1 1_555 1_555
N4C Ag1 1_555 1_555
N4 Ag1C 1_555 1_555
C4 C5 1_555 1_555
C5 C6 1_555 1_555
C12 C13 1_555 1_555
C19 C20 1_555 1_555

#END
