
#######################################################################
#
#                 Cambridge Crystallographic Data Centre
#                                CCDC 
#
#######################################################################
#
# If this CIF has been generated from an entry in the Cambridge 
# Structural Database, then it will include bibliographic, chemical, 
# crystal, experimental, refinement or atomic coordinate data resulting 
# from the CCDC's data processing and validation procedures.
#
#######################################################################

data_GUDRED
_symmetry_cell_setting           monoclinic
_symmetry_space_group_name_H-M   'P 21/c'
_symmetry_Int_Tables_number      14
_space_group_name_Hall           '-P 2ybc'
loop_
_symmetry_equiv_pos_site_id
_symmetry_equiv_pos_as_xyz
1 x,y,z
2 -x,1/2+y,1/2-z
3 -x,-y,-z
4 x,1/2-y,1/2+z
_cell_length_a                   11.664(3)
_cell_length_b                   17.641(4)
_cell_length_c                   10.200(3)
_cell_angle_alpha                90
_cell_angle_beta                 103.34(3)
_cell_angle_gamma                90
_cell_volume                     2042.17
loop_
_atom_site_label
_atom_site_type_symbol
_atom_site_fract_x
_atom_site_fract_y
_atom_site_fract_z
Ag1 Ag 0.26352(3) 0.40094(2) 0.48031(4)
N1 N 0.4026(3) 0.4496(2) 0.3679(4)
N2 N 0.4436(3) 0.3371(2) 0.5611(4)
N3 N 0.0931(3) 0.1686(2) 0.8876(4)
N4 N 0.1145(3) 0.0640(2) 1.0909(4)
C1 C 0.3881(5) 0.5025(3) 0.2743(5)
H1 H 0.3208 0.5325 0.2613
C2 C 0.4658(5) 0.5159(3) 0.1951(6)
H2 H 0.4523 0.5551 0.1324
C3 C 0.5638(5) 0.4711(3) 0.2091(6)
H3 H 0.6166 0.4774 0.1541
C4 C 0.5810(5) 0.4163(3) 0.3083(6)
H4 H 0.6481 0.3860 0.3233
C5 C 0.5005(4) 0.4063(2) 0.3839(5)
C6 C 0.5173(4) 0.3478(2) 0.4902(5)
H5 H 0.5846 0.3178 0.5053
C7 C 0.4667(4) 0.2771(3) 0.6632(5)
H6 H 0.4847 0.2992 0.7527
H7 H 0.5336 0.2468 0.6532
C8 C 0.3568(4) 0.2275(2) 0.6442(5)
C9 C 0.2717(4) 0.2451(2) 0.7108(4)
H8 H 0.2833 0.2859 0.7703
C10 C 0.1679(4) 0.2036(3) 0.6919(5)
C11 C 0.1533(5) 0.1440(3) 0.5999(6)
H9 H 0.0832 0.1166 0.5815
C12 C 0.2400(6) 0.1253(4) 0.5368(6)
H10 H 0.2307 0.0836 0.4796
C13 C 0.3412(5) 0.1679(3) 0.5572(5)
H11 H 0.3992 0.1559 0.5114
C14 C 0.0773(4) 0.2206(3) 0.7710(6)
H12 H 0.0854 0.2726 0.8023
H13 H -0.0011 0.2143 0.7139
C15 C 0.0096(4) 0.1609(2) 0.9469(5)
H14 H -0.0597 0.1882 0.9168
C16 C 0.0199(4) 0.1098(2) 1.0617(5)
C17 C -0.0663(5) 0.1077(3) 1.1342(6)
H15 H -0.1320 0.1390 1.1110
C18 C -0.0537(5) 0.0587(4) 1.2412(6)
H16 H -0.1096 0.0579 1.2931
C19 C 0.0398(5) 0.0117(3) 1.2709(6)
H17 H 0.0485 -0.0224 1.3420
C20 C 0.1231(4) 0.0154(3) 1.1927(5)
H18 H 0.1872 -0.0173 1.2124
Ag1C Ag 0.26352(3) 0.09906(2) 0.98031(4)
N3C N 0.0931(3) 0.3314(2) 0.3876(4)
N4C N 0.1145(3) 0.4360(2) 0.5909(4)
B1 B 0.7527(6) 0.1681(5) 0.5127(8)
F1 F 0.6358(4) 0.1658(2) 0.4866(5)
F2 F 0.7870(6) 0.1409(7) 0.6383(13)
F3 F 0.7890(6) 0.2351(4) 0.5077(7)
F4 F 0.7946(10) 0.1198(8) 0.4517(14)
loop_
_geom_bond_atom_site_label_1
_geom_bond_atom_site_label_2
_geom_bond_site_symmetry_1
_geom_bond_site_symmetry_2
Ag1 N1 1_555 1_555
N1 C1 1_555 1_555
N2 Ag1 1_555 1_555
N3 C14 1_555 1_555
N4 C16 1_555 1_555
C1 H1 1_555 1_555
C2 C1 1_555 1_555
H2 C2 1_555 1_555
C3 C2 1_555 1_555
H3 C3 1_555 1_555
C4 C3 1_555 1_555
H4 C4 1_555 1_555
C5 N1 1_555 1_555
C6 N2 1_555 1_555
H5 C6 1_555 1_555
C7 N2 1_555 1_555
H6 C7 1_555 1_555
H7 C7 1_555 1_555
C8 C7 1_555 1_555
C9 C8 1_555 1_555
H8 C9 1_555 1_555
C10 C9 1_555 1_555
C11 C10 1_555 1_555
H9 C11 1_555 1_555
C12 C11 1_555 1_555
H10 C12 1_555 1_555
C13 C8 1_555 1_555
H11 C13 1_555 1_555
C14 C10 1_555 1_555
H12 C14 1_555 1_555
H13 C14 1_555 1_555
C15 N3 1_555 1_555
H14 C15 1_555 1_555
C16 C15 1_555 1_555
C17 C16 1_555 1_555
H15 C17 1_555 1_555
C18 C17 1_555 1_555
H16 C18 1_555 1_555
C19 C18 1_555 1_555
H17 C19 1_555 1_555
C20 N4 1_555 1_555
H18 C20 1_555 1_555
B1 F1 1_555 1_555
F2 B1 1_555 1_555
F3 B1 1_555 1_555
F4 B1 1_555 1_555
Ag1C N3 1_555 1_555
N3C Ag1 1_555 1_555
N4C Ag1 1_555 1_555
N4 Ag1C 1_555 1_555
C4 C5 1_555 1_555
C5 C6 1_555 1_555
C12 C13 1_555 1_555
C19 C20 1_555 1_555

#END
