
#######################################################################
#
#                 Cambridge Crystallographic Data Centre
#                                CCDC 
#
#######################################################################
#
# If this CIF has been generated from an entry in the Cambridge 
# Structural Database, then it will include bibliographic, chemical, 
# crystal, experimental, refinement or atomic coordinate data resulting 
# from the CCDC's data processing and validation procedures.
#
#######################################################################

data_GUDSUU
_symmetry_cell_setting           triclinic
_symmetry_space_group_name_H-M   'P -1'
_symmetry_Int_Tables_number      2
_space_group_name_Hall           '-P 1'
loop_
_symmetry_equiv_pos_site_id
_symmetry_equiv_pos_as_xyz
1 x,y,z
2 -x,-y,-z
_cell_length_a                   8.222(2)
_cell_length_b                   8.698(2)
_cell_length_c                   10.157(2)
_cell_angle_alpha                112.56(3)
_cell_angle_beta                 104.79(3)
_cell_angle_gamma                101.47(3)
_cell_volume                     611.691
loop_
_atom_site_label
_atom_site_type_symbol
_atom_site_fract_x
_atom_site_fract_y
_atom_site_fract_z
Eu1 Eu 0.39773(2) 0.835011(19) 0.639764(17)
C1 C 0.1527(5) 0.3744(5) -0.1958(4)
C2 C 0.1220(5) 0.5390(5) -0.1613(4)
H1 H 0.0621 0.5600 -0.2402
C3 C 0.1801(5) 0.6654(5) -0.0132(4)
H2 H 0.1626 0.7734 0.0074
C4 C 0.2665(5) 0.6358(4) 0.1099(4)
C5 C 0.2930(5) 0.4779(5) 0.0758(4)
H3 H 0.3473 0.4537 0.1544
C6 C 0.3234(4) 0.7713(4) 0.2715(4)
C7 C 0.5536(5) 0.9369(4) 1.0019(4)
C8 C 0.4069(5) 0.4427(4) 0.4868(4)
N1 N 0.2408(5) 0.3556(4) -0.0721(4)
H4 H 0.2647 0.2595 -0.0894
O1 O 0.1041(4) 0.2509(4) -0.3281(3)
O2 O 0.0807(4) 0.7253(5) 0.5820(4)
O3 O 0.3396(4) 0.7227(3) 0.3733(3)
O4 O 0.2752(4) 1.0320(4) 0.5695(3)
O5 O 0.3502(3) 0.9301(3) 0.2962(3)
O6 O 0.5505(4) 0.8292(3) 0.8770(3)
O7 O 0.6336(4) 0.9517(3) 1.1314(3)
O8 O 0.3134(4) 0.5210(3) 0.5465(3)
O9 O 0.3646(3) 0.2792(3) 0.4057(3)
H5 H 0.2172 1.1023 0.5946
H6 H 0.2727 1.0259 0.4833
H7 H 0.0189 0.7532 0.5190
H8 H -0.0249 0.6515 0.5364
Eu1A Eu 0.60227(2) 1.164989(19) 0.360236(17)
Eu1A_2 Eu 0.60227(2) 1.164989(19) 1.360236(17)
Eu1A_3 Eu 0.60227(2) 0.164989(19) 0.360236(17)
C1A C 0.8473(5) 1.6256(5) 1.1958(4)
C2A C 0.8780(5) 1.4610(5) 1.1613(4)
H1A H 0.9379 1.4400 1.2402
C3A C 0.8199(5) 1.3346(5) 1.0132(4)
H2A H 0.8374 1.2266 0.9926
C4A C 0.7335(5) 1.3642(4) 0.8901(4)
C5A C 0.7070(5) 1.5221(5) 0.9242(4)
H3A H 0.6527 1.5463 0.8456
C6A C 0.6766(4) 1.2287(4) 0.7285(4)
C7A C 0.4464(5) 1.0631(4) 0.9981(4)
C8A C 0.5931(5) 0.5573(4) 0.5132(4)
N1A N 0.7592(5) 1.6444(4) 1.0721(4)
H4A H 0.7353 1.7405 1.0894
O1A O 0.8959(4) 1.7491(4) 1.3281(3)
O2A O 0.9193(4) 1.2747(5) 0.4180(4)
O3A O 0.6604(4) 1.2773(3) 0.6267(3)
O4A O 0.7248(4) 0.9680(4) 0.4305(3)
O5A O 0.6498(3) 1.0699(3) 0.7038(3)
O6A O 0.4495(4) 1.1708(3) 1.1230(3)
O6A_2 O 0.4495(4) 1.1708(3) 0.1230(3)
O7A O 0.3664(4) 1.0483(3) 0.8686(3)
O7_2 O 0.6336(4) 0.9517(3) 0.1314(3)
O8A O 0.6866(4) 0.4790(3) 0.4535(3)
O8A_2 O 0.6866(4) 1.4790(3) 0.4535(3)
O9A O 0.6354(3) 0.7208(3) 0.5943(3)
O9_2 O 0.3646(3) 1.2792(3) 0.4057(3)
H5A H 0.7828 0.8977 0.4054
H6A H 0.7273 0.9741 0.5167
H7A H 0.9811 1.2468 0.4810
H8A H 1.0249 1.3485 0.4636
O10 O 0.9747(5) 0.9217(7) 0.8454(5)
H9 H 0.8751 0.8102 0.7766
H10 H 0.8648 0.9109 0.8217
loop_
_geom_bond_atom_site_label_1
_geom_bond_atom_site_label_2
_geom_bond_site_symmetry_1
_geom_bond_site_symmetry_2
Eu1 O2 1_555 1_555
C1 C2 1_555 1_555
C2 H1 1_555 1_555
C3 C2 1_555 1_555
H2 C3 1_555 1_555
C4 C3 1_555 1_555
C5 C4 1_555 1_555
H3 C5 1_555 1_555
C6 C4 1_555 1_555
C7 O6 1_555 1_555
C8 O8 1_555 1_555
N1 C1 1_555 1_555
H4 N1 1_555 1_555
O1 C1 1_555 1_555
O2 H7 1_555 1_555
O3 Eu1 1_555 1_555
O4 Eu1 1_555 1_555
O5 C6 1_555 1_555
O6 Eu1 1_555 1_555
O7 C7 1_555 1_555
O8 Eu1 1_555 1_555
O9 C8 1_555 1_555
H5 O4 1_555 1_555
H6 O4 1_555 1_555
H8 O2 1_555 1_555
O10 H9 1_555 1_555
H10 O10 1_555 1_555
Eu1A O5 1_555 1_555
Eu1A_2 O7 1_555 1_555
Eu1A_3 O9 1_555 1_555
C1A C2A 1_555 1_555
C2A H1A 1_555 1_555
C3A C2A 1_555 1_555
H2A C3A 1_555 1_555
C4A C3A 1_555 1_555
C5A C4A 1_555 1_555
H3A C5A 1_555 1_555
C6A C4A 1_555 1_555
C7A C7 1_555 1_555
C8A C8 1_555 1_555
N1A C1A 1_555 1_555
H4A N1A 1_555 1_555
O1A C1A 1_555 1_555
O2A Eu1A 1_555 1_555
O3A Eu1A 1_555 1_555
O4A Eu1A 1_555 1_555
O5A Eu1 1_555 1_555
O6A Eu1A_2 1_555 1_555
O6A_2 Eu1A 1_555 1_555
O7A Eu1 1_555 1_555
O7_2 Eu1A 1_555 1_555
O8A Eu1A_3 1_555 1_555
O8A_2 Eu1A 1_555 1_555
O9A Eu1 1_555 1_555
O9_2 Eu1A 1_555 1_555
H5A O4A 1_555 1_555
H6A O4A 1_555 1_555
H7A O2A 1_555 1_555
H8A O2A 1_555 1_555
C5 N1 1_555 1_555
C6 O3 1_555 1_555
C5A N1A 1_555 1_555
C6A O3A 1_555 1_555
C6A O5A 1_555 1_555
C7A O6A 1_555 1_555
C7A O7A 1_555 1_555
C8A O8A 1_555 1_555
C8A O9A 1_555 1_555

#END
