
#######################################################################
#
#                 Cambridge Crystallographic Data Centre
#                                CCDC 
#
#######################################################################
#
# If this CIF has been generated from an entry in the Cambridge 
# Structural Database, then it will include bibliographic, chemical, 
# crystal, experimental, refinement or atomic coordinate data resulting 
# from the CCDC's data processing and validation procedures.
#
#######################################################################

data_GUDTAB
_symmetry_cell_setting           triclinic
_symmetry_space_group_name_H-M   'P -1'
_symmetry_Int_Tables_number      2
_space_group_name_Hall           '-P 1'
loop_
_symmetry_equiv_pos_site_id
_symmetry_equiv_pos_as_xyz
1 x,y,z
2 -x,-y,-z
_cell_length_a                   8.222(2)
_cell_length_b                   8.668(4)
_cell_length_c                   10.103(3)
_cell_angle_alpha                112.59(2)
_cell_angle_beta                 104.52(3)
_cell_angle_gamma                101.54(3)
_cell_volume                     607.141
loop_
_atom_site_label
_atom_site_type_symbol
_atom_site_fract_x
_atom_site_fract_y
_atom_site_fract_z
Gd1 Gd 0.101621(17) 0.164998(16) -0.139896(13)
C1 C 0.3498(4) 0.6271(4) 0.6978(3)
C2 C 0.3803(4) 0.4611(5) 0.6620(4)
H1 H 0.4410 0.4398 0.7405
C3 C 0.3206(4) 0.3352(4) 0.5136(3)
H2 H 0.3373 0.2264 0.4923
C4 C 0.2340(4) 0.3648(4) 0.3909(3)
C5 C 0.2077(4) 0.5234(4) 0.4249(4)
H3 H 0.1535 0.5477 0.3461
C6 C 0.1755(4) 0.2281(4) 0.2286(3)
C7 C 0.0932(4) 0.5579(4) 0.0133(3)
C8 C 0.0528(4) -0.0640(4) -0.4984(3)
N1 N 0.2603(4) 0.6460(4) 0.5735(3)
H4 H 0.2211 0.7397 0.5895
O1 O 0.1598(3) 0.2770(3) 0.1264(2)
O2 O 0.4183(3) 0.2758(4) -0.0802(4)
H5 H 0.4469 0.2026 -0.1637
H6 H 0.4729 0.3969 -0.0099
O3 O 0.1491(3) 0.0690(3) 0.2036(2)
O4 O 0.2232(3) -0.0323(3) -0.0697(3)
H7 H 0.2789 -0.0880 -0.1027
H8 H 0.2008 -0.0414 0.0096
O5 O 0.3982(3) 0.7502(3) 0.8300(3)
O6 O 0.1865(3) 0.4789(3) -0.0480(3)
O7 O 0.1343(3) -0.0471(3) -0.3677(2)
O8 O 0.0505(3) -0.1714(3) -0.6236(2)
O9 O 0.1350(3) 0.7214(3) 0.0933(2)
Gd1A Gd -0.101621(17) -0.164998(16) 0.139896(13)
Gd1A_2 Gd -0.101621(17) -0.164998(16) -0.860104(13)
Gd1A_3 Gd -0.101621(17) 0.835002(16) 0.139896(13)
C1A C -0.3498(4) -0.6271(4) -0.6978(3)
C2A C -0.3803(4) -0.4611(5) -0.6620(4)
H1A H -0.4410 -0.4398 -0.7405
C3A C -0.3206(4) -0.3352(4) -0.5136(3)
H2A H -0.3373 -0.2264 -0.4923
C4A C -0.2340(4) -0.3648(4) -0.3909(3)
C5A C -0.2077(4) -0.5234(4) -0.4249(4)
H3A H -0.1535 -0.5477 -0.3461
C6A C -0.1755(4) -0.2281(4) -0.2286(3)
C7A C -0.0932(4) 0.4421(4) -0.0133(3)
C8A C -0.0528(4) 0.0640(4) -0.5016(3)
N1A N -0.2603(4) -0.6460(4) -0.5735(3)
H4A H -0.2211 -0.7397 -0.5895
O1A O -0.1598(3) -0.2770(3) -0.1264(2)
O2A O -0.4183(3) -0.2758(4) 0.0802(4)
H5A H -0.4469 -0.2026 0.1637
H6A H -0.4729 -0.3969 0.0099
O3A O -0.1491(3) -0.0690(3) -0.2036(2)
O4A O -0.2232(3) 0.0323(3) 0.0697(3)
H7A H -0.2789 0.0880 0.1027
H8A H -0.2008 0.0414 -0.0096
O5A O -0.3982(3) -0.7502(3) -0.8300(3)
O6A O -0.1865(3) 0.5211(3) 0.0480(3)
O6A_2 O -0.1865(3) -0.4789(3) 0.0480(3)
O7A O -0.1343(3) 0.0471(3) -0.6323(2)
O7A_2 O -0.1343(3) 0.0471(3) 0.3677(2)
O8A O -0.0505(3) 0.1714(3) -0.3764(2)
O8_2 O 0.0505(3) -0.1714(3) 0.3764(2)
O9A O -0.1350(3) 0.2786(3) -0.0933(2)
O9_2 O 0.1350(3) -0.2786(3) 0.0933(2)
O10 O 0.4700(4) 0.9185(7) 0.3443(5)
H9 H 0.3584 0.8659 0.2747
H10 H 0.5341 0.8671 0.3025
loop_
_geom_bond_atom_site_label_1
_geom_bond_atom_site_label_2
_geom_bond_site_symmetry_1
_geom_bond_site_symmetry_2
Gd1 O1 1_555 1_555
C1 C2 1_555 1_555
C2 H1 1_555 1_555
C3 C2 1_555 1_555
H2 C3 1_555 1_555
C4 C3 1_555 1_555
C5 C4 1_555 1_555
H3 C5 1_555 1_555
C6 C4 1_555 1_555
C7 O6 1_555 1_555
C8 O7 1_555 1_555
N1 C1 1_555 1_555
H4 N1 1_555 1_555
O1 C6 1_555 1_555
O2 Gd1 1_555 1_555
H5 O2 1_555 1_555
H6 O2 1_555 1_555
O3 C6 1_555 1_555
O4 Gd1 1_555 1_555
H7 O4 1_555 1_555
H8 O4 1_555 1_555
O5 C1 1_555 1_555
O6 Gd1 1_555 1_555
O7 Gd1 1_555 1_555
O8 C8 1_555 1_555
O9 C7 1_555 1_555
O10 H9 1_555 1_555
H10 O10 1_555 1_555
Gd1A O3 1_555 1_555
Gd1A_2 O8 1_555 1_555
Gd1A_3 O9 1_555 1_555
C1A C2A 1_555 1_555
C2A H1A 1_555 1_555
C3A C2A 1_555 1_555
H2A C3A 1_555 1_555
C4A C3A 1_555 1_555
C5A C4A 1_555 1_555
H3A C5A 1_555 1_555
C6A C4A 1_555 1_555
C7A C7 1_555 1_555
C8A C8 1_555 1_555
N1A C1A 1_555 1_555
H4A N1A 1_555 1_555
O1A Gd1A 1_555 1_555
O2A Gd1A 1_555 1_555
H5A O2A 1_555 1_555
H6A O2A 1_555 1_555
O3A Gd1 1_555 1_555
O4A Gd1A 1_555 1_555
H7A O4A 1_555 1_555
H8A O4A 1_555 1_555
O5A C1A 1_555 1_555
O6A Gd1A_3 1_555 1_555
O6A_2 Gd1A 1_555 1_555
O7A Gd1A_2 1_555 1_555
O7A_2 Gd1A 1_555 1_555
O8A Gd1 1_555 1_555
O8_2 Gd1A 1_555 1_555
O9A Gd1 1_555 1_555
O9_2 Gd1A 1_555 1_555
C5 N1 1_555 1_555
C5A N1A 1_555 1_555
C6A O1A 1_555 1_555
C6A O3A 1_555 1_555
C7A O6A 1_555 1_555
C7A O9A 1_555 1_555
C8A O7A 1_555 1_555
C8A O8A 1_555 1_555

#END
