
#######################################################################
#
#                 Cambridge Crystallographic Data Centre
#                                CCDC 
#
#######################################################################
#
# If this CIF has been generated from an entry in the Cambridge 
# Structural Database, then it will include bibliographic, chemical, 
# crystal, experimental, refinement or atomic coordinate data resulting 
# from the CCDC's data processing and validation procedures.
#
#######################################################################

data_GUDVOS
_symmetry_cell_setting           triclinic
_symmetry_space_group_name_H-M   'P -1'
_symmetry_Int_Tables_number      2
_space_group_name_Hall           '-P 1'
loop_
_symmetry_equiv_pos_site_id
_symmetry_equiv_pos_as_xyz
1 x,y,z
2 -x,-y,-z
_cell_length_a                   11.521(2)
_cell_length_b                   18.119(4)
_cell_length_c                   18.175(4)
_cell_angle_alpha                113.43(3)
_cell_angle_beta                 99.28(3)
_cell_angle_gamma                105.07(3)
_cell_volume                     3208.01
loop_
_atom_site_label
_atom_site_type_symbol
_atom_site_fract_x
_atom_site_fract_y
_atom_site_fract_z
Cu1 Cu 0.89093(10) 1.03343(7) 0.48492(6)
Cu2 Cu 0.62110(10) 0.89580(7) 0.45048(7)
Cu3 Cu 0.64679(10) 1.06047(7) 0.43378(7)
Cu4 Cu 0.71884(10) 1.07055(7) 0.61336(7)
O1 O 0.7256(5) 1.0157(3) 0.4999(3)
O2 O 0.9360(5) 0.9467(4) 0.5369(4)
O3 O 0.7406(5) 0.8507(4) 0.4882(4)
O4 O 0.5104(5) 0.2147(4) 0.5824(4)
O5 O 0.6355(6) 0.1412(4) 0.5428(4)
O6 O 0.5144(5) 0.9098(4) 0.3622(4)
O7 O 0.3217(6) 0.8741(4) 0.2840(4)
O8 O -0.1158(6) 0.1606(4) -0.3250(4)
O9 O -0.0228(6) 0.1498(4) -0.4250(4)
O10 O 0.5522(6) 1.1014(4) 0.3715(4)
O11 O 0.3898(6) 1.0456(4) 0.4078(4)
O12 O 0.2932(6) 0.9821(4) -0.3344(4)
O13 O 0.1844(6) 1.0583(4) -0.3672(4)
N1 N 0.9555(8) 0.5791(6) 0.6147(6)
N2 N 0.3894(8) 0.5542(5) -0.0583(5)
N3 N 0.1602(8) 1.1147(5) 0.0503(5)
C1 C 0.8533(9) 0.8753(6) 0.5224(6)
C2 C 0.8974(8) 0.8184(5) 0.5525(6)
C3 C 1.0161(9) 0.8461(7) 0.6054(6)
H1 H 1.0690 0.9028 0.6253
C4 C 1.0604(9) 0.7931(7) 0.6305(6)
H2 H 1.1401 0.8152 0.6685
C5 C 0.9869(9) 0.7080(6) 0.5994(7)
C6 C 0.8660(10) 0.6787(7) 0.5490(7)
H3 H 0.8141 0.6219 0.5294
C7 C 0.8194(9) 0.7343(6) 0.5264(6)
H4 H 0.7362 0.7144 0.4940
C8 C 1.0402(9) 0.6462(6) 0.6151(6)
C9 C 1.1666(9) 0.6587(7) 0.6276(7)
H5 H 1.2221 0.7062 0.6274
C10 C 1.2089(10) 0.5980(7) 0.6406(7)
C11 C 1.1251(10) 0.5300(7) 0.6406(8)
H6 H 1.1517 0.4900 0.6512
C12 C 1.0000(10) 0.5209(7) 0.6249(7)
C13 C 1.3470(12) 0.6084(8) 0.6520(9)
C14 C 1.4113(12) 0.6360(10) 0.6044(11)
H7 H 1.3701 0.6505 0.5668
C15 C 1.5375(14) 0.6429(13) 0.6114(14)
H8 H 1.5775 0.6581 0.5762
C16 C 1.6014(17) 0.6267(13) 0.6714(17)
H9 H 1.6857 0.6330 0.6783
C17 C 1.5396(16) 0.6014(13) 0.7204(14)
H10 H 1.5818 0.5906 0.7609
C18 C 1.4117(13) 0.5916(10) 0.7090(11)
H11 H 1.3700 0.5731 0.7418
C19 C 0.9015(9) 0.4416(7) 0.6154(7)
C20 C 0.9170(9) 0.3628(7) 0.5840(7)
H12 H 0.9912 0.3594 0.5716
C21 C 0.8239(9) 0.2894(7) 0.5709(7)
H13 H 0.8374 0.2374 0.5511
C22 C 0.7108(9) 0.2912(6) 0.5866(6)
C23 C 0.6937(10) 0.3706(6) 0.6174(8)
H14 H 0.6184 0.3735 0.6283
C24 C 0.7876(11) 0.4450(7) 0.6317(8)
H15 H 0.7750 0.4972 0.6523
C25 C 0.6110(9) 0.2108(6) 0.5681(6)
C26 C 0.4286(10) 0.8660(6) 0.2933(6)
C27 C 0.4484(9) 0.8016(6) 0.2172(6)
C28 C 0.5524(10) 0.7782(6) 0.2224(6)
H16 H 0.6119 0.8005 0.2742
C29 C 0.5682(9) 0.7219(6) 0.1512(6)
H17 H 0.6407 0.7083 0.1552
C30 C 0.4802(9) 0.6849(7) 0.0744(6)
C31 C 0.3756(10) 0.7068(7) 0.0685(6)
H18 H 0.3158 0.6825 0.0164
C32 C 0.3564(10) 0.7655(8) 0.1398(6)
H19 H 0.2847 0.7799 0.1356
C33 C 0.4962(10) 0.6193(7) -0.0006(6)
C34 C 0.6167(10) 0.6262(6) -0.0101(6)
H20 H 0.6864 0.6747 0.0279
C35 C 0.6316(9) 0.5601(6) -0.0766(7)
C36 C 0.5214(10) 0.4929(7) -0.1350(6)
H21 H 0.5264 0.4479 -0.1809
C37 C 0.4040(10) 0.4931(6) -0.1247(6)
C38 C 0.7565(11) 0.5607(8) -0.0850(7)
C39 C 0.8515(13) 0.6345(9) -0.0684(12)
H22 H 0.8372 0.6862 -0.0500
C40 C 0.9691(18) 0.6338(13) -0.0784(14)
H23 H 1.0312 0.6850 -0.0664
C41 C 0.9941(16) 0.5629(13) -0.1041(14)
H24 H 1.0740 0.5640 -0.1081
C42 C 0.9004(17) 0.4868(11) -0.1251(12)
H25 H 0.9159 0.4356 -0.1463
C43 C 0.7805(13) 0.4851(10) -0.1149(11)
H26 H 0.7184 0.4333 -0.1283
C44 C 0.2863(10) 0.4194(6) -0.1837(6)
C45 C 0.2811(9) 0.3693(7) -0.2646(6)
H27 H 0.3488 0.3858 -0.2835
C46 C 0.1797(9) 0.2955(6) -0.3192(6)
H28 H 0.1800 0.2637 -0.3738
C47 C 0.0777(9) 0.2685(6) -0.2932(5)
C48 C 0.0798(9) 0.3198(6) -0.2128(6)
H29 H 0.0111 0.3043 -0.1942
C49 C 0.1838(11) 0.3950(7) -0.1583(6)
H30 H 0.1830 0.4286 -0.1043
C50 C -0.0290(8) 0.1863(6) -0.3515(6)
C51 C 0.4355(10) 1.0774(6) 0.3633(6)
C52 C 0.3536(9) 1.0914(6) 0.3024(6)
C53 C 0.4016(10) 1.1231(7) 0.2516(7)
H31 H 0.4873 1.1379 0.2570
C54 C 0.3254(10) 1.1328(8) 0.1941(7)
H32 H 0.3602 1.1542 0.1606
C55 C 0.1977(9) 1.1121(7) 0.1832(6)
C56 C 0.1492(9) 1.0802(7) 0.2335(6)
H33 H 0.0636 1.0661 0.2281
C57 C 0.2243(9) 1.0689(7) 0.2912(6)
H34 H 0.1890 1.0459 0.3234
C58 C 0.1176(10) 1.1216(7) 0.1173(6)
C59 C 0.0040(10) 1.1315(7) 0.1214(7)
H35 H -0.0208 1.1372 0.1690
C60 C -0.0749(10) 1.1330(7) 0.0552(6)
C61 C -0.0332(9) 1.1220(6) -0.0151(6)
H36 H -0.0840 1.1184 -0.0626
C62 C 0.0845(10) 1.1164(7) -0.0135(7)
C63 C -0.2012(10) 1.1414(8) 0.0558(8)
C64 C -0.2171(12) 1.1945(11) 0.1267(8)
H37 H -0.1491 1.2270 0.1754
C65 C -0.3380(16) 1.2016(13) 0.1281(10)
H38 H -0.3503 1.2371 0.1773
C66 C -0.4341(15) 1.1545(15) 0.0548(13)
H39 H -0.5125 1.1598 0.0534
C67 C -0.4172(13) 1.1000(13) -0.0164(10)
H40 H -0.4841 1.0687 -0.0657
C68 C -0.3025(11) 1.0905(10) -0.0166(8)
H41 H -0.2930 1.0505 -0.0645
C69 C 0.1358(9) 1.1035(6) -0.0870(6)
C70 C 0.2177(9) 1.0590(7) -0.1028(6)
H42 H 0.2481 1.0416 -0.0643
C71 C 0.2556(10) 1.0397(7) -0.1758(6)
H43 H 0.3110 1.0101 -0.1857
C72 C 0.2098(8) 1.0650(6) -0.2320(6)
C73 C 0.1274(9) 1.1110(7) -0.2179(6)
H44 H 0.0965 1.1280 -0.2566
C74 C 0.0943(10) 1.1299(7) -0.1455(6)
H45 H 0.0418 1.1617 -0.1347
C75 C 0.2326(8) 1.0336(6) -0.3170(6)
Cu1_2 Cu -0.10907(10) 0.03343(7) -0.51508(6)
Cu1A Cu 0.10907(10) 0.96657(7) -0.48492(6)
Cu1A_2 Cu 1.10907(10) 0.96657(7) 0.51508(6)
Cu2A Cu 0.37890(10) 0.10420(7) 0.54952(7)
Cu2A_2 Cu 0.37890(10) 1.10420(7) 0.54952(7)
Cu3_2 Cu 0.64679(10) 0.06047(7) 0.43378(7)
Cu3A Cu 0.35321(10) 0.93953(7) -0.43378(7)
Cu4_2 Cu -0.28116(10) 0.07055(7) -0.38664(7)
Cu4_3 Cu 0.71884(10) 0.07055(7) 0.61336(7)
Cu4A Cu 0.28116(10) 0.92945(7) 0.38664(7)
O2A O 1.0640(5) 1.0533(4) 0.4631(4)
O4A O 0.4896(5) 0.7853(4) 0.4176(4)
O5_2 O 0.6355(6) 1.1412(4) 0.5428(4)
O7A O 0.6783(6) 1.1259(4) 0.7160(4)
O8_2 O 0.8842(6) 1.1606(4) 0.6750(4)
O9_2 O 0.9772(6) 1.1498(4) 0.5750(4)
O11A O 0.6102(6) 0.9544(4) 0.5922(4)
O12A O 0.7068(6) 1.0179(4) 0.3344(4)
O13A O 0.8156(6) 0.9417(4) 0.3672(4)
loop_
_geom_bond_atom_site_label_1
_geom_bond_atom_site_label_2
_geom_bond_site_symmetry_1
_geom_bond_site_symmetry_2
Cu1 O1 1_555 1_555
Cu2 O1 1_555 1_555
Cu3 O1 1_555 1_555
Cu4 O1 1_555 1_555
O2 Cu1 1_555 1_555
O3 Cu2 1_555 1_555
O4 C25 1_555 1_555
O5 C25 1_555 1_555
O6 Cu2 1_555 1_555
O7 C26 1_555 1_555
O8 C50 1_555 1_555
O9 C50 1_555 1_555
O10 Cu3 1_555 1_555
O11 C51 1_555 1_555
O12 C75 1_555 1_555
O13 C75 1_555 1_555
N1 C8 1_555 1_555
N2 C33 1_555 1_555
N3 C58 1_555 1_555
C1 O2 1_555 1_555
C2 C1 1_555 1_555
C3 C2 1_555 1_555
H1 C3 1_555 1_555
C4 C3 1_555 1_555
H2 C4 1_555 1_555
C5 C4 1_555 1_555
C6 C5 1_555 1_555
H3 C6 1_555 1_555
C7 C2 1_555 1_555
H4 C7 1_555 1_555
C8 C5 1_555 1_555
C9 C8 1_555 1_555
H5 C9 1_555 1_555
C10 C9 1_555 1_555
C11 C10 1_555 1_555
H6 C11 1_555 1_555
C12 N1 1_555 1_555
C13 C10 1_555 1_555
C14 C13 1_555 1_555
H7 C14 1_555 1_555
C15 C14 1_555 1_555
H8 C15 1_555 1_555
C16 C15 1_555 1_555
H9 C16 1_555 1_555
C17 C16 1_555 1_555
H10 C17 1_555 1_555
C18 C13 1_555 1_555
H11 C18 1_555 1_555
C19 C12 1_555 1_555
C20 C19 1_555 1_555
H12 C20 1_555 1_555
C21 C20 1_555 1_555
H13 C21 1_555 1_555
C22 C21 1_555 1_555
C23 C22 1_555 1_555
H14 C23 1_555 1_555
C24 C19 1_555 1_555
H15 C24 1_555 1_555
C25 C22 1_555 1_555
C26 O6 1_555 1_555
C27 C26 1_555 1_555
C28 C27 1_555 1_555
H16 C28 1_555 1_555
C29 C28 1_555 1_555
H17 C29 1_555 1_555
C30 C29 1_555 1_555
C31 C30 1_555 1_555
H18 C31 1_555 1_555
C32 C27 1_555 1_555
H19 C32 1_555 1_555
C33 C30 1_555 1_555
C34 C33 1_555 1_555
H20 C34 1_555 1_555
C35 C34 1_555 1_555
C36 C35 1_555 1_555
H21 C36 1_555 1_555
C37 N2 1_555 1_555
C38 C35 1_555 1_555
C39 C38 1_555 1_555
H22 C39 1_555 1_555
C40 C39 1_555 1_555
H23 C40 1_555 1_555
C41 C40 1_555 1_555
H24 C41 1_555 1_555
C42 C41 1_555 1_555
H25 C42 1_555 1_555
C43 C38 1_555 1_555
H26 C43 1_555 1_555
C44 C37 1_555 1_555
C45 C44 1_555 1_555
H27 C45 1_555 1_555
C46 C45 1_555 1_555
H28 C46 1_555 1_555
C47 C46 1_555 1_555
C48 C47 1_555 1_555
H29 C48 1_555 1_555
C49 C44 1_555 1_555
H30 C49 1_555 1_555
C50 C47 1_555 1_555
C51 O10 1_555 1_555
C52 C51 1_555 1_555
C53 C52 1_555 1_555
H31 C53 1_555 1_555
C54 C53 1_555 1_555
H32 C54 1_555 1_555
C55 C54 1_555 1_555
C56 C55 1_555 1_555
H33 C56 1_555 1_555
C57 C52 1_555 1_555
H34 C57 1_555 1_555
C58 C55 1_555 1_555
C59 C58 1_555 1_555
H35 C59 1_555 1_555
C60 C59 1_555 1_555
C61 C60 1_555 1_555
H36 C61 1_555 1_555
C62 N3 1_555 1_555
C63 C60 1_555 1_555
C64 C63 1_555 1_555
H37 C64 1_555 1_555
C65 C64 1_555 1_555
H38 C65 1_555 1_555
C66 C65 1_555 1_555
H39 C66 1_555 1_555
C67 C66 1_555 1_555
H40 C67 1_555 1_555
C68 C63 1_555 1_555
H41 C68 1_555 1_555
C69 C62 1_555 1_555
C70 C69 1_555 1_555
H42 C70 1_555 1_555
C71 C70 1_555 1_555
H43 C71 1_555 1_555
C72 C71 1_555 1_555
C73 C72 1_555 1_555
H44 C73 1_555 1_555
C74 C69 1_555 1_555
H45 C74 1_555 1_555
C75 C72 1_555 1_555
Cu1_2 O9 1_555 1_555
Cu1A O13 1_555 1_555
Cu1A_2 O2 1_555 1_555
Cu2A O4 1_555 1_555
Cu2A_2 O11 1_555 1_555
Cu3_2 O5 1_555 1_555
Cu3A O12 1_555 1_555
Cu4_2 O8 1_555 1_555
Cu4_3 O5 1_555 1_555
Cu4A O7 1_555 1_555
O2A Cu1 1_555 1_555
O4A Cu2 1_555 1_555
O5_2 Cu3 1_555 1_555
O7A Cu4 1_555 1_555
O8_2 Cu4 1_555 1_555
O9_2 Cu1 1_555 1_555
O11A Cu2 1_555 1_555
O12A Cu3 1_555 1_555
O13A Cu1 1_555 1_555
Cu3 O6 1_555 1_555
Cu4 O5_2 1_555 1_555
Cu4 O11A 1_555 1_555
O3 C1 1_555 1_555
O11 Cu4A 1_555 1_555
C6 C7 1_555 1_555
C11 C12 1_555 1_555
C17 C18 1_555 1_555
C23 C24 1_555 1_555
C31 C32 1_555 1_555
C36 C37 1_555 1_555
C42 C43 1_555 1_555
C48 C49 1_555 1_555
C56 C57 1_555 1_555
C61 C62 1_555 1_555
C67 C68 1_555 1_555
C73 C74 1_555 1_555
Cu1A_2 O2A 1_555 1_555

#END
