
#######################################################################
#
#                 Cambridge Crystallographic Data Centre
#                                CCDC 
#
#######################################################################
#
# If this CIF has been generated from an entry in the Cambridge 
# Structural Database, then it will include bibliographic, chemical, 
# crystal, experimental, refinement or atomic coordinate data resulting 
# from the CCDC's data processing and validation procedures.
#
#######################################################################

data_GUFBEQ
_symmetry_cell_setting           orthorhombic
_symmetry_space_group_name_H-M   'P b c n'
_symmetry_Int_Tables_number      60
_space_group_name_Hall           '-P 2n 2ab'
loop_
_symmetry_equiv_pos_site_id
_symmetry_equiv_pos_as_xyz
1 x,y,z
2 1/2-x,1/2-y,1/2+z
3 -x,y,1/2-z
4 1/2+x,1/2-y,-z
5 -x,-y,-z
6 1/2+x,1/2+y,1/2-z
7 x,-y,1/2+z
8 1/2-x,1/2+y,z
_cell_length_a                   39.469(5)
_cell_length_b                   12.6053(17)
_cell_length_c                   11.4425(15)
_cell_angle_alpha                90
_cell_angle_beta                 90
_cell_angle_gamma                90
_cell_volume                     5692.86
loop_
_atom_site_label
_atom_site_type_symbol
_atom_site_fract_x
_atom_site_fract_y
_atom_site_fract_z
Co1 Co 0.315778(14) 0.43750(4) 0.23881(5)
C1 C 0.48889(12) -0.0554(4) 0.7068(5)
C2 C 0.44186(10) 0.0041(4) 0.5617(4)
C3 C 0.41812(11) 0.0796(4) 0.5067(4)
C4 C 0.38369(11) 0.0760(4) 0.5304(4)
H1 H 0.3751 0.0239 0.5798
C5 C 0.36201(11) 0.1495(4) 0.4809(4)
H2 H 0.3390 0.1474 0.4988
C6 C 0.37403(11) 0.2262(4) 0.4052(4)
C7 C 0.40832(12) 0.2298(4) 0.3813(5)
H3 H 0.4167 0.2808 0.3301
C8 C 0.43031(12) 0.1580(4) 0.4332(5)
H4 H 0.4534 0.1626 0.4184
C9 C 0.35072(11) 0.3046(3) 0.3476(4)
C10 C 0.44104(10) -0.1022(4) 0.5582(4)
C11 C 0.41714(10) -0.1691(3) 0.4905(4)
C12 C 0.40567(12) -0.2650(4) 0.5346(5)
H5 H 0.4136 -0.2887 0.6066
C13 C 0.38273(12) -0.3258(4) 0.4737(4)
H6 H 0.3754 -0.3900 0.5046
C14 C 0.37062(11) -0.2921(3) 0.3671(4)
C15 C 0.38280(12) -0.1980(4) 0.3208(4)
H7 H 0.3752 -0.1752 0.2481
C16 C 0.40601(13) -0.1378(4) 0.3810(5)
H8 H 0.4143 -0.0757 0.3480
C17 C 0.34474(11) -0.3544(4) 0.2982(4)
C18 C 0.30594(13) 0.2371(4) 0.0878(5)
H9 H 0.3295 0.2340 0.0879
C19 C 0.28807(14) 0.1615(4) 0.0267(5)
H10 H 0.2995 0.1085 -0.0139
C20 C 0.25367(15) 0.1646(4) 0.0261(5)
H11 H 0.2413 0.1137 -0.0146
C21 C 0.23716(12) 0.2442(4) 0.0869(5)
H12 H 0.2136 0.2477 0.0879
C22 C 0.25644(11) 0.3182(3) 0.1458(4)
C23 C 0.24180(11) 0.4094(3) 0.2114(4)
C24 C 0.20708(12) 0.4247(4) 0.2231(5)
H13 H 0.1919 0.3754 0.1931
C25 C 0.19557(13) 0.5146(5) 0.2804(5)
H14 H 0.1725 0.5273 0.2880
C26 C 0.21886(13) 0.5853(4) 0.3262(5)
H15 H 0.2118 0.6466 0.3641
C27 C 0.25241(12) 0.5629(3) 0.3145(4)
H16 H 0.2680 0.6096 0.3473
N1 N 0.29062(9) 0.3146(3) 0.1466(4)
N2 N 0.26430(9) 0.4766(3) 0.2580(3)
O1 O 0.36032(8) 0.3512(3) 0.2565(3)
O2 O 0.32196(8) 0.3217(3) 0.3912(3)
O3 O 0.33439(8) -0.4420(2) 0.3421(3)
O4 O 0.33461(11) -0.3166(3) 0.2055(4)
O5 O 0.32246(10) 0.5120(3) 0.0789(3)
H17 H 0.3408 0.5471 0.0803
H18 H 0.3235 0.4654 0.0253
S1 S 0.47362(3) 0.06348(9) 0.64622(13)
S2 S 0.47187(3) -0.17001(9) 0.64162(12)
C1B C 0.51111(12) -0.0554(4) 0.7932(5)
C2B C 0.55814(10) 0.0041(4) 0.9383(4)
C3B C 0.58188(11) 0.0796(4) 0.9933(4)
C4B C 0.61631(11) 0.0760(4) 0.9696(4)
H1B H 0.6249 0.0239 0.9202
C5B C 0.63799(11) 0.1495(4) 1.0191(4)
H2B H 0.6610 0.1474 1.0012
C6B C 0.62597(11) 0.2262(4) 1.0948(4)
C7B C 0.59168(12) 0.2298(4) 1.1187(5)
H3B H 0.5833 0.2808 1.1699
C8B C 0.56969(12) 0.1580(4) 1.0668(5)
H4B H 0.5466 0.1626 1.0816
C9B C 0.64928(11) 0.3046(3) 1.1524(4)
C10B C 0.55896(10) -0.1022(4) 0.9418(4)
C11B C 0.58286(10) -0.1691(3) 1.0095(4)
C12B C 0.59433(12) -0.2650(4) 0.9654(5)
H5B H 0.5864 -0.2887 0.8934
C13B C 0.61727(12) -0.3258(4) 1.0263(4)
H6B H 0.6246 -0.3900 0.9954
C14B C 0.62938(11) -0.2921(3) 1.1329(4)
C15B C 0.61720(12) -0.1980(4) 1.1792(4)
H7B H 0.6248 -0.1752 1.2519
C16B C 0.59399(13) -0.1378(4) 1.1190(5)
H8B H 0.5857 -0.0757 1.1520
C17B C 0.65526(11) -0.3544(4) 1.2018(4)
O1B O 0.63968(8) 0.3512(3) 1.2435(3)
O2B O 0.67804(8) 0.3217(3) 1.1088(3)
O3B O 0.66561(8) -0.4420(2) 1.1579(3)
O4B O 0.66539(11) -0.3166(3) 1.2945(4)
S1B S 0.52638(3) 0.06348(9) 0.85378(13)
S2B S 0.52813(3) -0.17001(9) 0.85838(12)
Co1B Co 0.684222(14) 0.43750(4) 1.26119(5)
C18B C 0.69406(13) 0.2371(4) 1.4122(5)
H9B H 0.6705 0.2340 1.4121
C19B C 0.71193(14) 0.1615(4) 1.4733(5)
H10B H 0.7005 0.1085 1.5139
C20B C 0.74633(15) 0.1646(4) 1.4739(5)
H11B H 0.7587 0.1137 1.5146
C21B C 0.76284(12) 0.2442(4) 1.4131(5)
H12B H 0.7864 0.2477 1.4121
C22B C 0.74356(11) 0.3182(3) 1.3542(4)
C23B C 0.75820(11) 0.4094(3) 1.2886(4)
C24B C 0.79292(12) 0.4247(4) 1.2769(5)
H13B H 0.8081 0.3754 1.3069
C25B C 0.80443(13) 0.5146(5) 1.2196(5)
H14B H 0.8275 0.5273 1.2120
C26B C 0.78114(13) 0.5853(4) 1.1738(5)
H15B H 0.7882 0.6466 1.1359
C27B C 0.74759(12) 0.5629(3) 1.1855(4)
H16B H 0.7320 0.6096 1.1527
N1B N 0.70938(9) 0.3146(3) 1.3534(4)
N2B N 0.73570(9) 0.4766(3) 1.2420(3)
O5B O 0.67754(10) 0.5120(3) 1.4211(3)
H17B H 0.6592 0.5471 1.4197
H18B H 0.6765 0.4654 1.4747
Co1_2 Co 0.315778(14) -0.56250(4) 0.23881(5)
Co1B_2 Co 0.684222(14) -0.56250(4) 1.26119(5)
O3_2 O 0.33439(8) 0.5580(2) 0.3421(3)
O3B_2 O 0.66561(8) 0.5580(2) 1.1579(3)
loop_
_geom_bond_atom_site_label_1
_geom_bond_atom_site_label_2
_geom_bond_site_symmetry_1
_geom_bond_site_symmetry_2
Co1 N1 1_555 1_555
C1 S1 1_555 1_555
C2 C3 1_555 1_555
C3 C4 1_555 1_555
C4 H1 1_555 1_555
C5 C4 1_555 1_555
H2 C5 1_555 1_555
C6 C5 1_555 1_555
C7 C6 1_555 1_555
H3 C7 1_555 1_555
C8 C3 1_555 1_555
H4 C8 1_555 1_555
C9 C6 1_555 1_555
C10 C2 1_555 1_555
C11 C10 1_555 1_555
C12 C11 1_555 1_555
H5 C12 1_555 1_555
C13 C12 1_555 1_555
H6 C13 1_555 1_555
C14 C13 1_555 1_555
C15 C14 1_555 1_555
H7 C15 1_555 1_555
C16 C11 1_555 1_555
H8 C16 1_555 1_555
C17 C14 1_555 1_555
C18 H9 1_555 1_555
C19 C18 1_555 1_555
H10 C19 1_555 1_555
C20 C19 1_555 1_555
H11 C20 1_555 1_555
C21 C20 1_555 1_555
H12 C21 1_555 1_555
C22 C21 1_555 1_555
C23 C22 1_555 1_555
C24 C23 1_555 1_555
H13 C24 1_555 1_555
C25 C24 1_555 1_555
H14 C25 1_555 1_555
C26 C25 1_555 1_555
H15 C26 1_555 1_555
C27 C26 1_555 1_555
H16 C27 1_555 1_555
N1 C18 1_555 1_555
N2 Co1 1_555 1_555
O1 Co1 1_555 1_555
O2 Co1 1_555 1_555
O3 C17 1_555 1_555
O4 C17 1_555 1_555
O5 Co1 1_555 1_555
H17 O5 1_555 1_555
H18 O5 1_555 1_555
S1 C2 1_555 1_555
S2 C1 1_555 1_555
C1B C1 1_555 1_555
C2B C3B 1_555 1_555
C3B C4B 1_555 1_555
C4B H1B 1_555 1_555
C5B C4B 1_555 1_555
H2B C5B 1_555 1_555
C6B C5B 1_555 1_555
C7B C6B 1_555 1_555
H3B C7B 1_555 1_555
C8B C3B 1_555 1_555
H4B C8B 1_555 1_555
C9B C6B 1_555 1_555
C10B C2B 1_555 1_555
C11B C10B 1_555 1_555
C12B C11B 1_555 1_555
H5B C12B 1_555 1_555
C13B C12B 1_555 1_555
H6B C13B 1_555 1_555
C14B C13B 1_555 1_555
C15B C14B 1_555 1_555
H7B C15B 1_555 1_555
C16B C11B 1_555 1_555
H8B C16B 1_555 1_555
C17B C14B 1_555 1_555
O1B C9B 1_555 1_555
O2B C9B 1_555 1_555
O3B C17B 1_555 1_555
O4B C17B 1_555 1_555
S1B C1B 1_555 1_555
S2B C1B 1_555 1_555
Co1B O1B 1_555 1_555
C18B H9B 1_555 1_555
C19B C18B 1_555 1_555
H10B C19B 1_555 1_555
C20B C19B 1_555 1_555
H11B C20B 1_555 1_555
C21B C20B 1_555 1_555
H12B C21B 1_555 1_555
C22B C21B 1_555 1_555
C23B C22B 1_555 1_555
C24B C23B 1_555 1_555
H13B C24B 1_555 1_555
C25B C24B 1_555 1_555
H14B C25B 1_555 1_555
C26B C25B 1_555 1_555
H15B C26B 1_555 1_555
C27B C26B 1_555 1_555
H16B C27B 1_555 1_555
N1B Co1B 1_555 1_555
N2B Co1B 1_555 1_555
O5B Co1B 1_555 1_555
H17B O5B 1_555 1_555
H18B O5B 1_555 1_555
Co1_2 O3 1_555 1_555
Co1B_2 O3B 1_555 1_555
O3_2 Co1 1_555 1_555
O3B_2 Co1B 1_555 1_555
C7 C8 1_555 1_555
C9 O1 1_555 1_555
C9 O2 1_555 1_555
C10 S2 1_555 1_555
C15 C16 1_555 1_555
C22 N1 1_555 1_555
C23 N2 1_555 1_555
C27 N2 1_555 1_555
C2B S1B 1_555 1_555
C7B C8B 1_555 1_555
C10B S2B 1_555 1_555
C15B C16B 1_555 1_555
O2B Co1B 1_555 1_555
C18B N1B 1_555 1_555
C22B N1B 1_555 1_555
C23B N2B 1_555 1_555
C27B N2B 1_555 1_555

#END
