
#######################################################################
#
#                 Cambridge Crystallographic Data Centre
#                                CCDC 
#
#######################################################################
#
# If this CIF has been generated from an entry in the Cambridge 
# Structural Database, then it will include bibliographic, chemical, 
# crystal, experimental, refinement or atomic coordinate data resulting 
# from the CCDC's data processing and validation procedures.
#
#######################################################################

data_GUFBUF
_symmetry_cell_setting           orthorhombic
_symmetry_space_group_name_H-M   'P 21 21 21'
_symmetry_Int_Tables_number      19
_space_group_name_Hall           'P 2ac 2ab'
loop_
_symmetry_equiv_pos_site_id
_symmetry_equiv_pos_as_xyz
1 x,y,z
2 1/2-x,-y,1/2+z
3 1/2+x,1/2-y,-z
4 -x,1/2+y,1/2-z
_cell_length_a                   6.694(5)
_cell_length_b                   12.540(15)
_cell_length_c                   15.755(11)
_cell_angle_alpha                90
_cell_angle_beta                 90
_cell_angle_gamma                90
_cell_volume                     1322.52
loop_
_atom_site_label
_atom_site_type_symbol
_atom_site_fract_x
_atom_site_fract_y
_atom_site_fract_z
Cu1 Cu 0.23123(5) 0.99173(2) 0.24060(2)
N1 N 0.4911(4) 1.05416(18) 0.27123(14)
H1 H 0.5402 1.0205 0.3164
H2 H 0.4753 1.1230 0.2833
H3 H 0.5753 1.0473 0.2279
N2 N 0.3818(4) 0.86962(19) 0.13474(15)
H4 H 0.4152 0.8086 0.1599
H5 H 0.4905 0.8997 0.1127
H6 H 0.2939 0.8567 0.0936
N3 N -0.0343(3) 0.93065(18) 0.21735(14)
H7 H -0.0602 0.8793 0.2548
H8 H -0.0363 0.9035 0.1651
H9 H -0.1266 0.9815 0.2216
N4 N 0.0455(4) 1.1159(2) 0.34812(17)
H10 H 0.0398 1.0842 0.3986
H11 H -0.0779 1.1284 0.3295
H12 H 0.1113 1.1773 0.3528
O1 O 0.2638(4) 0.89527(14) 0.33562(12)
O2 O 0.3499(4) 0.74380(16) 0.26978(14)
O3 O 0.2314(4) 0.40706(15) 0.43501(12)
O4 O 0.1623(4) 0.41948(16) 0.57211(13)
O5 O 0.3537(4) 0.75992(17) 0.71981(14)
O6 O 0.2947(4) 0.90956(15) 0.64668(12)
C1 C 0.3043(4) 0.7965(2) 0.33425(16)
C2 C 0.3164(4) 0.8090(2) 0.65283(17)
C3 C 0.2168(5) 0.4606(2) 0.50237(16)
C4 C 0.2934(4) 0.74074(19) 0.41850(15)
C5 C 0.2994(4) 0.7993(2) 0.49351(16)
H13 H 0.3058 0.8733 0.4915
C6 C 0.2960(4) 0.74702(19) 0.57171(16)
C7 C 0.2732(4) 0.63636(19) 0.57484(15)
H14 H 0.2683 0.6015 0.6269
C8 C 0.2578(4) 0.5785(2) 0.49971(15)
C9 C 0.2756(4) 0.62977(19) 0.42165(16)
H15 H 0.2756 0.5902 0.3717
Cu1A Cu 0.26877(5) 1.00827(2) 0.74060(2)
O6A O 0.2053(4) 1.09044(15) 0.14668(12)
O7 O 0.2068(5) 0.8150(2) -0.02372(18)
loop_
_geom_bond_atom_site_label_1
_geom_bond_atom_site_label_2
_geom_bond_site_symmetry_1
_geom_bond_site_symmetry_2
Cu1 N1 1_555 1_555
N1 H1 1_555 1_555
H2 N1 1_555 1_555
H3 N1 1_555 1_555
N2 Cu1 1_555 1_555
H4 N2 1_555 1_555
H5 N2 1_555 1_555
H6 N2 1_555 1_555
N3 Cu1 1_555 1_555
H7 N3 1_555 1_555
H8 N3 1_555 1_555
H9 N3 1_555 1_555
N4 Cu1 1_555 1_555
H10 N4 1_555 1_555
H11 N4 1_555 1_555
H12 N4 1_555 1_555
O1 Cu1 1_555 1_555
O2 C1 1_555 1_555
O3 C3 1_555 1_555
O4 C3 1_555 1_555
O5 C2 1_555 1_555
O6 C2 1_555 1_555
C1 O1 1_555 1_555
C2 C6 1_555 1_555
C3 C8 1_555 1_555
C4 C1 1_555 1_555
C5 C4 1_555 1_555
H13 C5 1_555 1_555
C6 C5 1_555 1_555
C7 C6 1_555 1_555
H14 C7 1_555 1_555
C8 C7 1_555 1_555
C9 C4 1_555 1_555
H15 C9 1_555 1_555
Cu1A O6 1_555 1_555
O6A Cu1 1_555 1_555
C8 C9 1_555 1_555

#END
