
#######################################################################
#
#                 Cambridge Crystallographic Data Centre
#                                CCDC 
#
#######################################################################
#
# If this CIF has been generated from an entry in the Cambridge 
# Structural Database, then it will include bibliographic, chemical, 
# crystal, experimental, refinement or atomic coordinate data resulting 
# from the CCDC's data processing and validation procedures.
#
#######################################################################

data_GUFBUG
_symmetry_cell_setting           orthorhombic
_symmetry_space_group_name_H-M   'I b a m'
_symmetry_Int_Tables_number      72
_space_group_name_Hall           '-I 2 2c'
loop_
_symmetry_equiv_pos_site_id
_symmetry_equiv_pos_as_xyz
1 x,y,z
2 -x,-y,z
3 1/2-x,1/2+y,-z
4 1/2+x,1/2-y,-z
5 1/2+x,1/2+y,1/2+z
6 1/2-x,1/2-y,1/2+z
7 -x,y,1/2-z
8 x,-y,1/2-z
9 -x,-y,-z
10 x,y,-z
11 1/2+x,1/2-y,z
12 1/2-x,1/2+y,z
13 1/2-x,1/2-y,1/2-z
14 1/2+x,1/2+y,1/2-z
15 x,-y,1/2+z
16 -x,y,1/2+z
_cell_length_a                   10.4489(9)
_cell_length_b                   21.5552(19)
_cell_length_c                   38.344(3)
_cell_angle_alpha                90
_cell_angle_beta                 90
_cell_angle_gamma                90
_cell_volume                     8636.15
loop_
_atom_site_label
_atom_site_type_symbol
_atom_site_fract_x
_atom_site_fract_y
_atom_site_fract_z
Ba1 Ba 0.19843(7) 0.49181(4) 1.0000
C1 C 0.0169(9) 0.6259(4) 0.9103(2)
C2 C 0.1035(11) 0.6469(6) 0.8870(3)
H1 H 0.1897 0.6374 0.8899
C3 C 0.0637(11) 0.6833(6) 0.8582(3)
H2 H 0.1233 0.6984 0.8423
C4 C -0.0642(10) 0.6959(5) 0.8541(2)
C5 C -0.1502(10) 0.6738(5) 0.8783(3)
H3 H -0.2368 0.6829 0.8760
C6 C -0.1090(10) 0.6377(5) 0.9065(3)
H4 H -0.1678 0.6220 0.9224
C7 C 0.0595(11) 0.5871(5) 0.9411(3)
C8 C -0.1092(11) 0.7345(5) 0.8248(3)
C9 C -0.0945(11) 0.7943(5) 0.8196(3)
C10 C -0.0348(10) 0.8400(5) 0.8428(3)
C11 C -0.0420(10) 0.8328(5) 0.8790(3)
H5 H -0.0850 0.7990 0.8885
C12 C 0.0147(10) 0.8756(5) 0.9005(3)
H6 H 0.0074 0.8712 0.9246
C13 C 0.0807(9) 0.9239(5) 0.8874(3)
C14 C 0.0884(11) 0.9329(5) 0.8515(3)
H7 H 0.1317 0.9668 0.8422
C15 C 0.0298(11) 0.8898(5) 0.8300(3)
H8 H 0.0346 0.8952 0.8060
C16 C 0.1452(9) 0.9678(5) 0.9124(3)
C17 C -0.2195(14) 0.7522(6) 0.7647(3)
O1 O -0.0227(9) 0.5682(4) 0.9618(2)
O2 O 0.1759(7) 0.5730(3) 0.94400(19)
O3 O 0.1353(7) 0.9619(4) 0.9438(2)
O4 O 0.2109(8) 1.0123(4) 0.8961(2)
H9 H 0.2452 1.0348 0.9106
O5 O 0.4251(11) 0.5652(5) 1.0000
H10 H 0.4606 0.5662 0.9769
O6 O 0.2784(14) 0.3617(8) 1.0000
H11 H 0.3113 0.3526 1.0196
S1 S -0.1892(5) 0.69056(17) 0.79271(10)
S2 S -0.1619(4) 0.82441(16) 0.78074(9)
C1L C -0.5169(9) 0.8741(4) 0.5897(2)
C2L C -0.6035(11) 0.8531(6) 0.6130(3)
H1L H -0.6897 0.8626 0.6101
C3L C -0.5637(11) 0.8167(6) 0.6418(3)
H2L H -0.6233 0.8016 0.6577
C4L C -0.4358(10) 0.8041(5) 0.6459(2)
C5L C -0.3498(10) 0.8262(5) 0.6217(3)
H3L H -0.2632 0.8171 0.6240
C6L C -0.3910(10) 0.8623(5) 0.5935(3)
H4L H -0.3322 0.8780 0.5776
C7L C -0.5595(11) 0.9129(5) 0.5589(3)
C8L C -0.3908(11) 0.7655(5) 0.6752(3)
C9L C -0.4055(11) 0.7057(5) 0.6804(3)
C10L C -0.4652(10) 0.6600(5) 0.6572(3)
C11L C -0.4580(10) 0.6672(5) 0.6210(3)
H5L H -0.4150 0.7010 0.6115
C12L C -0.5147(10) 0.6244(5) 0.5995(3)
H6L H -0.5074 0.6288 0.5754
C13L C -0.5807(9) 0.5761(5) 0.6126(3)
C14L C -0.5884(11) 0.5671(5) 0.6485(3)
H7L H -0.6317 0.5332 0.6578
C15L C -0.5298(11) 0.6102(5) 0.6700(3)
H8L H -0.5346 0.6048 0.6940
C16L C -0.6452(9) 0.5322(5) 0.5876(3)
C17L C -0.2805(14) 0.7478(6) 0.7353(3)
O1L O -0.4773(9) 0.9318(4) 0.5382(2)
O2L O -0.6759(7) 0.9270(3) 0.55600(19)
O3L O -0.6353(7) 0.5381(4) 0.5562(2)
O4L O -0.7109(8) 0.4877(4) 0.6039(2)
H9L H -0.7452 0.4652 0.5894
S1L S -0.3108(5) 0.80944(17) 0.70729(10)
S2L S -0.3381(4) 0.67559(16) 0.71926(9)
H10I H 0.4606 0.5662 1.0231
H11I H 0.3113 0.3526 0.9804
Ba1A Ba -0.19843(7) 0.50819(4) 1.0000
Ba1B Ba 0.30157(7) 0.99181(4) 1.0000
Ba1D Ba -0.30157(7) 0.99181(4) 0.5000
Ba1E Ba -0.69843(7) 1.00819(4) 0.5000
Ba1G Ba -0.80157(7) 0.50819(4) 0.5000
O1A O 0.0227(9) 0.4318(4) 0.9618(2)
O1H O 0.0227(9) 0.4318(4) 1.0382(2)
O1I O -0.0227(9) 0.5682(4) 1.0382(2)
O2I O 0.1759(7) 0.5730(3) 1.05600(19)
O3B O 0.3647(7) 0.4619(4) 1.0562(2)
O3K O 0.3647(7) 0.4619(4) 0.9438(2)
loop_
_geom_bond_atom_site_label_1
_geom_bond_atom_site_label_2
_geom_bond_site_symmetry_1
_geom_bond_site_symmetry_2
Ba1 O1 1_555 1_555
C1 C2 1_555 1_555
C2 H1 1_555 1_555
C3 C2 1_555 1_555
H2 C3 1_555 1_555
C4 C3 1_555 1_555
C5 C4 1_555 1_555
H3 C5 1_555 1_555
C6 C1 1_555 1_555
H4 C6 1_555 1_555
C7 C1 1_555 1_555
C8 C4 1_555 1_555
C9 C8 1_555 1_555
C10 C9 1_555 1_555
C11 C10 1_555 1_555
H5 C11 1_555 1_555
C12 C11 1_555 1_555
H6 C12 1_555 1_555
C13 C12 1_555 1_555
C14 C13 1_555 1_555
H7 C14 1_555 1_555
C15 C10 1_555 1_555
H8 C15 1_555 1_555
C16 C13 1_555 1_555
C17 S1 1_555 1_555
O1 C7 1_555 1_555
O2 Ba1 1_555 1_555
O3 C16 1_555 1_555
O4 C16 1_555 1_555
H9 O4 1_555 1_555
O5 Ba1 1_555 1_555
H10 O5 1_555 1_555
O6 Ba1 1_555 1_555
H11 O6 1_555 1_555
S1 C8 1_555 1_555
S2 C9 1_555 1_555
C1L C2L 1_555 1_555
C2L H1L 1_555 1_555
C3L C2L 1_555 1_555
H2L C3L 1_555 1_555
C4L C3L 1_555 1_555
C5L C4L 1_555 1_555
H3L C5L 1_555 1_555
C6L C1L 1_555 1_555
H4L C6L 1_555 1_555
C7L C1L 1_555 1_555
C8L C4L 1_555 1_555
C9L C8L 1_555 1_555
C10L C9L 1_555 1_555
C11L C10L 1_555 1_555
H5L C11L 1_555 1_555
C12L C11L 1_555 1_555
H6L C12L 1_555 1_555
C13L C12L 1_555 1_555
C14L C13L 1_555 1_555
H7L C14L 1_555 1_555
C15L C10L 1_555 1_555
H8L C15L 1_555 1_555
C16L C13L 1_555 1_555
C17L C17 1_555 1_555
O1L C7L 1_555 1_555
O2L C7L 1_555 1_555
O3L C16L 1_555 1_555
O4L C16L 1_555 1_555
H9L O4L 1_555 1_555
S1L C8L 1_555 1_555
S2L C9L 1_555 1_555
H10I O5 1_555 1_555
H11I O6 1_555 1_555
Ba1A O1 1_555 1_555
Ba1B O3 1_555 1_555
Ba1D O1L 1_555 1_555
Ba1E O1L 1_555 1_555
Ba1G O3L 1_555 1_555
O1A Ba1 1_555 1_555
O1H Ba1 1_555 1_555
O1I Ba1 1_555 1_555
O2I Ba1 1_555 1_555
O3B Ba1 1_555 1_555
O3K Ba1 1_555 1_555
C5 C6 1_555 1_555
C7 O2 1_555 1_555
C14 C15 1_555 1_555
C17 S2 1_555 1_555
C5L C6L 1_555 1_555
C14L C15L 1_555 1_555
C17L S1L 1_555 1_555
C17L S2L 1_555 1_555
O2L Ba1E 1_555 1_555
Ba1A O1A 1_555 1_555
Ba1A O1H 1_555 1_555
Ba1A O1I 1_555 1_555

#END
