
#######################################################################
#
#                 Cambridge Crystallographic Data Centre
#                                CCDC 
#
#######################################################################
#
# If this CIF has been generated from an entry in the Cambridge 
# Structural Database, then it will include bibliographic, chemical, 
# crystal, experimental, refinement or atomic coordinate data resulting 
# from the CCDC's data processing and validation procedures.
#
#######################################################################

data_GUFGOE
_symmetry_cell_setting           orthorhombic
_symmetry_space_group_name_H-M   'P c c n'
_symmetry_Int_Tables_number      56
_space_group_name_Hall           '-P 2ab 2ac'
loop_
_symmetry_equiv_pos_site_id
_symmetry_equiv_pos_as_xyz
1 x,y,z
2 1/2-x,1/2-y,z
3 -x,1/2+y,1/2-z
4 1/2+x,-y,1/2-z
5 -x,-y,-z
6 1/2+x,1/2+y,-z
7 x,1/2-y,1/2+z
8 1/2-x,y,1/2+z
_cell_length_a                   35.730(2)
_cell_length_b                   24.3704(16)
_cell_length_c                   25.3606(18)
_cell_angle_alpha                90
_cell_angle_beta                 90
_cell_angle_gamma                90
_cell_volume                     22082.9
loop_
_atom_site_label
_atom_site_type_symbol
_atom_site_fract_x
_atom_site_fract_y
_atom_site_fract_z
Pt1 Pt 0.090340(18) 0.64723(3) 0.10697(2)
Pt2 Pt -0.00274(2) 0.42605(4) 0.33640(4)
Pt3 Pt 0.598730(19) 0.33080(3) 0.10420(3)
Pt4 Pt 0.67100(2) 0.60313(3) 0.30241(4)
Co1 Co 0.16999(6) 0.53374(9) 0.31715(8)
Co2 Co 0.51084(6) 0.46426(11) 0.29894(10)
S1 S 0.14611(11) 0.60304(17) 0.11467(15)
S2 S 0.11554(11) 0.68556(16) 0.18063(16)
S3 S 0.05445(15) 0.3871(2) 0.3308(2)
S4 S 0.03207(17) 0.4761(3) 0.3924(3)
S5 S 0.57343(12) 0.2984(2) 0.18008(18)
S6 S 0.54158(14) 0.3706(2) 0.10647(18)
S7 S 0.61091(17) 0.6340(2) 0.2958(2)
S8 S 0.64137(14) 0.5558(2) 0.3664(2)
N1 N 0.0687(4) 0.6083(5) 0.0416(5)
H1 H 0.0833 0.6150 0.0134
H2 H 0.0684 0.5718 0.0470
N2 N 0.0389(3) 0.6860(5) 0.1065(5)
H3 H 0.0273 0.6804 0.1376
H4 H 0.0421 0.7224 0.1025
N3 N -0.0291(5) 0.3824(9) 0.2847(7)
H5 H -0.0235 0.3952 0.2524
H6 H -0.0206 0.3477 0.2866
N4 N -0.0535(5) 0.4660(9) 0.3402(9)
H7 H -0.0648 0.4597 0.3713
H8 H -0.0506 0.5024 0.3360
N5 N 0.6522(3) 0.2984(6) 0.1064(5)
H9 H 0.6632 0.3069 0.1372
H10 H 0.6511 0.2616 0.1037
N6 N 0.6199(4) 0.3632(6) 0.0375(5)
H11 H 0.6061 0.3518 0.0099
H12 H 0.6182 0.4000 0.0392
N7 N 0.7256(5) 0.5680(7) 0.3109(9)
H13 H 0.7362 0.5783 0.3414
H14 H 0.7246 0.5311 0.3096
N8 N 0.6903(6) 0.6487(9) 0.2394(8)
H15 H 0.6777 0.6410 0.2096
H16 H 0.6890 0.6850 0.2458
N9 N 0.4586(4) 0.4606(7) 0.3401(6)
N10 N 0.2239(5) 0.5331(7) 0.3560(6)
N11 N 0.3449(4) 0.4982(8) 0.4589(8)
O1 O 0.1975(3) 0.5306(5) 0.2471(5)
O2 O 0.2128(4) 0.5608(6) 0.1666(6)
O3 O 0.1734(3) 0.6169(4) 0.3118(4)
O4 O 0.1686(3) 0.6944(5) 0.2692(4)
O5 O 0.1647(4) 0.4508(5) 0.3245(5)
O6 O 0.1372(4) 0.3749(6) 0.3463(7)
O7 O 0.1430(3) 0.5391(5) 0.3872(4)
O8 O 0.1002(4) 0.5170(6) 0.4476(5)
O9 O 0.5145(3) 0.3797(6) 0.3040(5)
O10 O 0.5211(3) 0.2965(6) 0.2715(5)
O11 O 0.4835(4) 0.4528(7) 0.2298(6)
O12 O 0.4719(4) 0.4121(7) 0.1539(6)
O13 O 0.5381(3) 0.4726(5) 0.3680(5)
O14 O 0.5766(4) 0.5089(5) 0.4258(5)
O15 O 0.5071(4) 0.5471(6) 0.2951(6)
O16 O 0.5281(4) 0.6301(7) 0.3179(7)
C1 C 0.1510(4) 0.6322(6) 0.1785(6)
C2 C 0.1724(4) 0.6162(6) 0.2174(7)
C3 C 0.1980(5) 0.5646(8) 0.2100(8)
C4 C 0.1717(4) 0.6445(8) 0.2723(8)
C5 C 0.1798(5) 0.6437(9) 0.0772(7)
H17 H 0.2039 0.6254 0.0785
H18 H 0.1719 0.6446 0.0406
C6 C 0.1847(7) 0.7022(11) 0.0963(13)
H19 H 0.2039 0.6985 0.1231
H20 H 0.1971 0.7197 0.0668
C7 C 0.1634(9) 0.7418(8) 0.1152(14)
H21 H 0.1797 0.7736 0.1164
H22 H 0.1455 0.7492 0.0874
C8 C 0.1438(5) 0.7447(7) 0.1588(7)
H23 H 0.1270 0.7757 0.1553
H24 H 0.1611 0.7534 0.1871
C9 C 0.0314(7) 0.6273(12) 0.0312(11)
H25 H 0.0396 0.6549 0.0057
C10 C 0.0097(6) 0.5951(8) -0.0091(9)
H26 H 0.0221 0.5984 -0.0429
H27 H 0.0100 0.5567 0.0008
C11 C -0.0294(11) 0.6132(11) -0.0147(13)
H28 H -0.0322 0.6285 -0.0498
H29 H -0.0451 0.5807 -0.0132
C12 C -0.0423(6) 0.6467(14) 0.0167(11)
H30 H -0.0622 0.6272 0.0348
H31 H -0.0546 0.6740 -0.0051
C13 C -0.0220(5) 0.6809(7) 0.0613(8)
H32 H -0.0237 0.7198 0.0534
H33 H -0.0341 0.6744 0.0950
C14 C 0.0158(6) 0.6653(11) 0.0643(9)
H34 H 0.0234 0.6955 0.0411
C15 C 0.0747(6) 0.4432(7) 0.3665(7)
C16 C 0.1092(6) 0.4549(8) 0.3707(7)
C17 C 0.1385(6) 0.4240(9) 0.3454(8)
C18 C 0.1162(5) 0.5059(12) 0.4027(9)
C19 C 0.0435(16) 0.3195(10) 0.3517(15)
H35 H 0.0179 0.3085 0.3442
H36 H 0.0612 0.2920 0.3397
C20 C 0.0496(9) 0.3375(8) 0.4071(15)
H37 H 0.0765 0.3429 0.4071
H38 H 0.0459 0.3032 0.4257
C21 C 0.0379(11) 0.3783(14) 0.4493(13)
H39 H 0.0574 0.3733 0.4755
H40 H 0.0161 0.3604 0.4643
C22 C 0.0279(9) 0.4399(12) 0.4567(8)
H41 H 0.0447 0.4564 0.4823
H42 H 0.0025 0.4432 0.4700
C23 C -0.0685(7) 0.3812(14) 0.2899(14)
H43 H -0.0784 0.3584 0.3185
C24 C -0.0898(9) 0.3787(15) 0.2382(12)
H44 H -0.0891 0.3405 0.2275
H45 H -0.0745 0.3984 0.2130
C25 C -0.1299(11) 0.3977(19) 0.228(2)
H46 H -0.1472 0.3769 0.2495
H47 H -0.1363 0.3918 0.1911
C26 C -0.1325(16) 0.4589(17) 0.2413(15)
H48 H -0.1585 0.4705 0.2404
H49 H -0.1188 0.4801 0.2154
C27 C -0.1159(8) 0.4695(11) 0.2977(12)
H50 H -0.1312 0.4529 0.3249
H51 H -0.1133 0.5085 0.3048
C28 C -0.0766(9) 0.4407(13) 0.2936(13)
H52 H -0.0653 0.4564 0.2618
C29 C 0.5364(5) 0.3455(9) 0.1714(7)
C30 C 0.5139(5) 0.3668(8) 0.2084(7)
C31 C 0.5171(5) 0.3485(12) 0.2674(9)
C32 C 0.4878(5) 0.4162(11) 0.1977(9)
C33 C 0.5476(7) 0.2409(10) 0.1608(8)
H53 H 0.5620 0.2091 0.1720
H54 H 0.5250 0.2410 0.1820
C34 C 0.5359(9) 0.2300(12) 0.1065(12)
H55 H 0.5548 0.2398 0.0808
H56 H 0.5277 0.1925 0.1011
C35 C 0.5046(9) 0.2694(12) 0.1082(15)
H57 H 0.5016 0.2825 0.1441
H58 H 0.4817 0.2505 0.0984
C36 C 0.5102(6) 0.3195(14) 0.0710(7)
H59 H 0.4863 0.3363 0.0629
H60 H 0.5218 0.3079 0.0383
C37 C 0.6730(6) 0.3203(15) 0.0641(12)
H61 H 0.6780 0.3536 0.0847
C38 C 0.7130(6) 0.3071(10) 0.0642(8)
H62 H 0.7231 0.3156 0.0988
H63 H 0.7158 0.2679 0.0588
C39 C 0.7342(8) 0.334(2) 0.0273(16)
H64 H 0.7494 0.3602 0.0462
H65 H 0.7513 0.3068 0.0127
C40 C 0.7202(9) 0.3586(15) -0.0109(16)
H66 H 0.7235 0.3349 -0.0413
H67 H 0.7359 0.3904 -0.0169
C41 C 0.6800(6) 0.3791(10) -0.0136(9)
H68 H 0.6792 0.4183 -0.0074
H69 H 0.6696 0.3718 -0.0482
C42 C 0.6574(7) 0.3484(12) 0.0293(12)
H70 H 0.6514 0.3169 0.0067
C43 C 0.5973(6) 0.5792(8) 0.3413(7)
C44 C 0.5638(5) 0.5557(8) 0.3477(7)
C45 C 0.5603(6) 0.5099(9) 0.3843(9)
C46 C 0.5280(6) 0.5779(10) 0.3175(9)
C47 C 0.6051(8) 0.6952(8) 0.3350(9)
H71 H 0.6222 0.7232 0.3220
H72 H 0.5798 0.7088 0.3303
C48 C 0.6122(10) 0.6868(14) 0.3927(11)
H73 H 0.6182 0.7230 0.4062
H74 H 0.5879 0.6777 0.4074
C49 C 0.6391(10) 0.6490(12) 0.4197(16)
H75 H 0.6629 0.6615 0.4060
H76 H 0.6384 0.6624 0.4557
C50 C 0.6460(8) 0.5896(9) 0.4276(7)
H77 H 0.6282 0.5748 0.4527
H78 H 0.6710 0.5840 0.4415
C51 C 0.7465(7) 0.5907(12) 0.2645(13)
H79 H 0.7381 0.5613 0.2410
C52 C 0.7868(7) 0.5703(13) 0.2652(13)
H80 H 0.7996 0.5890 0.2938
H81 H 0.7862 0.5316 0.2742
C53 C 0.8109(10) 0.5763(14) 0.2166(12)
H82 H 0.8370 0.5802 0.2264
H83 H 0.8083 0.5444 0.1941
C54 C 0.7975(8) 0.6264(13) 0.1888(12)
H84 H 0.8005 0.6196 0.1514
H85 H 0.8148 0.6556 0.1978
C55 C 0.7589(8) 0.6492(15) 0.1962(14)
H86 H 0.7468 0.6463 0.1621
H87 H 0.7621 0.6881 0.2029
C56 C 0.7300(9) 0.6290(17) 0.2368(15)
H88 H 0.7379 0.6572 0.2620
C57 C 0.2297(7) 0.5033(11) 0.3911(10)
H89 H 0.2117 0.4778 0.4011
C58 C 0.2703(6) 0.5066(10) 0.4229(8)
H90 H 0.2753 0.4860 0.4530
C59 C 0.2938(7) 0.5393(10) 0.4028(11)
C60 C 0.2864(6) 0.5710(10) 0.3632(13)
H91 H 0.3034 0.5967 0.3504
C61 C 0.2523(6) 0.5639(9) 0.3422(9)
H92 H 0.2481 0.5847 0.3120
C62 C 0.3325(6) 0.5428(11) 0.4350(11)
H93 H 0.3517 0.5549 0.4107
H94 H 0.3297 0.5712 0.4615
C63 C 0.3549(5) 0.4545(8) 0.4257(8)
H95 H 0.3352 0.4496 0.3999
H96 H 0.3560 0.4213 0.4467
C64 C 0.3910(5) 0.4601(9) 0.3969(7)
C65 C 0.3996(5) 0.4233(8) 0.3568(8)
H97 H 0.3822 0.3964 0.3481
C66 C 0.4333(5) 0.4252(9) 0.3292(8)
H98 H 0.4374 0.4001 0.3022
C67 C 0.4492(5) 0.4970(9) 0.3773(8)
H99 H 0.4664 0.5245 0.3847
C68 C 0.4162(5) 0.4976(8) 0.4059(8)
H100 H 0.4121 0.5245 0.4313
N12 N 0.0912(5) 0.5415(6) 0.2562(11)
O17 O 0.1178(5) 0.5167(9) 0.2613(9)
O18 O 0.0915(8) 0.5891(8) 0.2541(15)
O19 O 0.0612(5) 0.5193(8) 0.2535(7)
Co2C Co 0.01084(6) 0.53574(11) 0.20106(10)
O19C O 0.5612(5) 0.4807(8) 0.2465(7)
N13 N 0.0685(7) 0.8184(9) 0.0771(12)
O20 O 0.0548(5) 0.8006(7) 0.1181(8)
O21 O 0.0607(7) 0.7925(9) 0.0398(8)
O22 O 0.0873(8) 0.8562(10) 0.0744(10)
N14 N 0.1235(9) 0.6686(11) 0.9303(11)
O23 O 0.1358(9) 0.6846(11) 0.9649(10)
O24 O 0.1305(6) 0.6797(9) 0.8879(9)
O25 O 0.1024(10) 0.6370(10) 0.9338(14)
N15 N 0.4092(6) 0.3239(9) 0.2492(7)
O26 O 0.4202(10) 0.3643(12) 0.2745(12)
O27 O 0.3929(10) 0.3374(14) 0.2083(8)
O28 O 0.3923(9) 0.2914(12) 0.2773(11)
O29 O 0.0300 0.2850(8) 0.2704(9)
O30 O 0.0926(15) 0.501(3) 0.5555(13)
O31 O 0.2003(17) 0.2582(13) 0.698(2)
loop_
_geom_bond_atom_site_label_1
_geom_bond_atom_site_label_2
_geom_bond_site_symmetry_1
_geom_bond_site_symmetry_2
Pt1 S1 1_555 1_555
Pt2 S3 1_555 1_555
Pt3 S5 1_555 1_555
Pt4 S7 1_555 1_555
Co1 N10 1_555 1_555
Co2 N9 1_555 1_555
S1 C1 1_555 1_555
S2 Pt1 1_555 1_555
S3 C15 1_555 1_555
S4 Pt2 1_555 1_555
S5 C29 1_555 1_555
S6 Pt3 1_555 1_555
S7 C43 1_555 1_555
S8 Pt4 1_555 1_555
N1 Pt1 1_555 1_555
H1 N1 1_555 1_555
H2 N1 1_555 1_555
N2 Pt1 1_555 1_555
H3 N2 1_555 1_555
H4 N2 1_555 1_555
N3 Pt2 1_555 1_555
H5 N3 1_555 1_555
H6 N3 1_555 1_555
N4 Pt2 1_555 1_555
H7 N4 1_555 1_555
H8 N4 1_555 1_555
N5 Pt3 1_555 1_555
H9 N5 1_555 1_555
H10 N5 1_555 1_555
N6 Pt3 1_555 1_555
H11 N6 1_555 1_555
H12 N6 1_555 1_555
N7 Pt4 1_555 1_555
H13 N7 1_555 1_555
H14 N7 1_555 1_555
N8 Pt4 1_555 1_555
H15 N8 1_555 1_555
H16 N8 1_555 1_555
N9 C66 1_555 1_555
N10 C57 1_555 1_555
N11 C62 1_555 1_555
O1 Co1 1_555 1_555
O2 C3 1_555 1_555
O3 Co1 1_555 1_555
O4 C4 1_555 1_555
O5 Co1 1_555 1_555
O6 C17 1_555 1_555
O7 Co1 1_555 1_555
O8 C18 1_555 1_555
O9 Co2 1_555 1_555
O10 C31 1_555 1_555
O11 Co2 1_555 1_555
O12 C32 1_555 1_555
O13 Co2 1_555 1_555
O14 C45 1_555 1_555
O15 Co2 1_555 1_555
O16 C46 1_555 1_555
C1 S2 1_555 1_555
C2 C1 1_555 1_555
C3 O1 1_555 1_555
C4 O3 1_555 1_555
C5 S1 1_555 1_555
H17 C5 1_555 1_555
H18 C5 1_555 1_555
C6 C5 1_555 1_555
H19 C6 1_555 1_555
H20 C6 1_555 1_555
C7 C6 1_555 1_555
H21 C7 1_555 1_555
H22 C7 1_555 1_555
C8 S2 1_555 1_555
H23 C8 1_555 1_555
H24 C8 1_555 1_555
C9 N1 1_555 1_555
H25 C9 1_555 1_555
C10 C9 1_555 1_555
H26 C10 1_555 1_555
H27 C10 1_555 1_555
C11 C10 1_555 1_555
H28 C11 1_555 1_555
H29 C11 1_555 1_555
C12 C11 1_555 1_555
H30 C12 1_555 1_555
H31 C12 1_555 1_555
C13 C12 1_555 1_555
H32 C13 1_555 1_555
H33 C13 1_555 1_555
C14 N2 1_555 1_555
H34 C14 1_555 1_555
C15 S4 1_555 1_555
C16 C15 1_555 1_555
C17 O5 1_555 1_555
C18 O7 1_555 1_555
C19 S3 1_555 1_555
H35 C19 1_555 1_555
H36 C19 1_555 1_555
C20 C19 1_555 1_555
H37 C20 1_555 1_555
H38 C20 1_555 1_555
C21 C20 1_555 1_555
H39 C21 1_555 1_555
H40 C21 1_555 1_555
C22 S4 1_555 1_555
H41 C22 1_555 1_555
H42 C22 1_555 1_555
C23 N3 1_555 1_555
H43 C23 1_555 1_555
C24 C23 1_555 1_555
H44 C24 1_555 1_555
H45 C24 1_555 1_555
C25 C24 1_555 1_555
H46 C25 1_555 1_555
H47 C25 1_555 1_555
C26 C25 1_555 1_555
H48 C26 1_555 1_555
H49 C26 1_555 1_555
C27 C26 1_555 1_555
H50 C27 1_555 1_555
H51 C27 1_555 1_555
C28 N4 1_555 1_555
H52 C28 1_555 1_555
C29 S6 1_555 1_555
C30 C29 1_555 1_555
C31 O9 1_555 1_555
C32 O11 1_555 1_555
C33 S5 1_555 1_555
H53 C33 1_555 1_555
H54 C33 1_555 1_555
C34 C33 1_555 1_555
H55 C34 1_555 1_555
H56 C34 1_555 1_555
C35 C34 1_555 1_555
H57 C35 1_555 1_555
H58 C35 1_555 1_555
C36 S6 1_555 1_555
H59 C36 1_555 1_555
H60 C36 1_555 1_555
C37 N5 1_555 1_555
H61 C37 1_555 1_555
C38 C37 1_555 1_555
H62 C38 1_555 1_555
H63 C38 1_555 1_555
C39 C38 1_555 1_555
H64 C39 1_555 1_555
H65 C39 1_555 1_555
C40 C39 1_555 1_555
H66 C40 1_555 1_555
H67 C40 1_555 1_555
C41 C40 1_555 1_555
H68 C41 1_555 1_555
H69 C41 1_555 1_555
C42 N6 1_555 1_555
H70 C42 1_555 1_555
C43 S8 1_555 1_555
C44 C43 1_555 1_555
C45 O13 1_555 1_555
C46 O15 1_555 1_555
C47 S7 1_555 1_555
H71 C47 1_555 1_555
H72 C47 1_555 1_555
C48 C47 1_555 1_555
H73 C48 1_555 1_555
H74 C48 1_555 1_555
C49 C48 1_555 1_555
H75 C49 1_555 1_555
H76 C49 1_555 1_555
C50 S8 1_555 1_555
H77 C50 1_555 1_555
H78 C50 1_555 1_555
C51 N7 1_555 1_555
H79 C51 1_555 1_555
C52 C51 1_555 1_555
H80 C52 1_555 1_555
H81 C52 1_555 1_555
C53 C52 1_555 1_555
H82 C53 1_555 1_555
H83 C53 1_555 1_555
C54 C53 1_555 1_555
H84 C54 1_555 1_555
H85 C54 1_555 1_555
C55 C54 1_555 1_555
H86 C55 1_555 1_555
H87 C55 1_555 1_555
C56 N8 1_555 1_555
H88 C56 1_555 1_555
C57 H89 1_555 1_555
C58 C57 1_555 1_555
H90 C58 1_555 1_555
C59 C58 1_555 1_555
C60 C59 1_555 1_555
H91 C60 1_555 1_555
C61 N10 1_555 1_555
H92 C61 1_555 1_555
C62 C59 1_555 1_555
H93 C62 1_555 1_555
H94 C62 1_555 1_555
C63 N11 1_555 1_555
H95 C63 1_555 1_555
H96 C63 1_555 1_555
C64 C63 1_555 1_555
C65 C64 1_555 1_555
H97 C65 1_555 1_555
C66 C65 1_555 1_555
H98 C66 1_555 1_555
C67 N9 1_555 1_555
H99 C67 1_555 1_555
C68 C64 1_555 1_555
H100 C68 1_555 1_555
N12 O17 1_555 1_555
O17 Co1 1_555 1_555
O18 N12 1_555 1_555
O19 N12 1_555 1_555
N13 O20 1_555 1_555
O21 N13 1_555 1_555
O22 N13 1_555 1_555
N14 O23 1_555 1_555
O24 N14 1_555 1_555
O25 N14 1_555 1_555
N15 O26 1_555 1_555
O27 N15 1_555 1_555
O28 N15 1_555 1_555
Co2C O19 1_555 1_555
O19C Co2 1_555 1_555
C2 C3 1_555 1_555
C2 C4 1_555 1_555
C7 C8 1_555 1_555
C9 C14 1_555 1_555
C13 C14 1_555 1_555
C16 C17 1_555 1_555
C16 C18 1_555 1_555
C21 C22 1_555 1_555
C23 C28 1_555 1_555
C27 C28 1_555 1_555
C30 C31 1_555 1_555
C30 C32 1_555 1_555
C35 C36 1_555 1_555
C37 C42 1_555 1_555
C41 C42 1_555 1_555
C44 C45 1_555 1_555
C44 C46 1_555 1_555
C49 C50 1_555 1_555
C51 C56 1_555 1_555
C55 C56 1_555 1_555
C60 C61 1_555 1_555
C67 C68 1_555 1_555

#END
