
#######################################################################
#
#                 Cambridge Crystallographic Data Centre
#                                CCDC 
#
#######################################################################
#
# If this CIF has been generated from an entry in the Cambridge 
# Structural Database, then it will include bibliographic, chemical, 
# crystal, experimental, refinement or atomic coordinate data resulting 
# from the CCDC's data processing and validation procedures.
#
#######################################################################

data_GUFHEV
_symmetry_cell_setting           triclinic
_symmetry_space_group_name_H-M   'P -1'
_symmetry_Int_Tables_number      2
_space_group_name_Hall           '-P 1'
loop_
_symmetry_equiv_pos_site_id
_symmetry_equiv_pos_as_xyz
1 x,y,z
2 -x,-y,-z
_cell_length_a                   8.872(3)
_cell_length_b                   9.886(3)
_cell_length_c                   13.595(4)
_cell_angle_alpha                86.793(8)
_cell_angle_beta                 89.864(8)
_cell_angle_gamma                79.971(8)
_cell_volume                     1172.31
loop_
_atom_site_label
_atom_site_type_symbol
_atom_site_fract_x
_atom_site_fract_y
_atom_site_fract_z
Zn1 Zn 0.72220(6) 0.84227(6) 0.77115(4)
N1 N 0.6311(5) 0.7522(5) 0.9007(3)
N2 N 0.5025(5) 0.9728(5) 0.7885(3)
N3 N 0.6317(5) 0.7164(4) 0.6687(3)
C1 C 0.4971(6) 0.8216(5) 0.9332(3)
C2 C 0.4214(6) 0.9432(5) 0.8687(3)
C3 C 0.3034(7) 1.1570(6) 0.7430(5)
H1 H 0.2644 1.2299 0.6988
C4 C 0.2210(7) 1.1275(7) 0.8245(5)
H2 H 0.1267 1.1811 0.8370
C5 C 0.7026(6) 0.6449(6) 0.9568(4)
H3 H 0.7962 0.5985 0.9354
C6 C 0.4415(7) 1.0794(6) 0.7273(4)
H4 H 0.4964 1.1007 0.6719
C7 C 0.5107(7) 0.6705(7) 1.0774(4)
H5 H 0.4699 0.6426 1.1366
C8 C 0.6457(7) 0.5995(6) 1.0441(4)
H6 H 0.6975 0.5224 1.0797
C9 C 0.2803(6) 1.0173(6) 0.8873(4)
H7 H 0.2250 0.9935 0.9419
C10 C 0.4346(7) 0.7854(7) 1.0219(4)
H8 H 0.3440 0.8363 1.0442
C11 C 0.5268(6) 0.5462(5) 0.5357(3)
C12 C 0.4935(9) 0.5389(7) 0.6337(4)
H9 H 0.4354 0.4750 0.6582
C13 C 0.5450(9) 0.6245(8) 0.6956(4)
H10 H 0.5174 0.6181 0.7616
C14 C 0.6638(11) 0.7217(9) 0.5753(5)
H11 H 0.7243 0.7849 0.5529
C15 C 0.6147(12) 0.6404(9) 0.5073(5)
H12 H 0.6420 0.6502 0.4415
S1 S 1.08419(15) 0.63587(14) 0.74369(9)
O1 O 0.9261(4) 0.6822(5) 0.7709(3)
O2 O 1.1907(5) 0.6777(5) 0.8118(3)
O3 O 1.1116(6) 0.4899(4) 0.7267(3)
C16 C 1.1113(6) 0.7216(5) 0.6283(3)
C17 C 1.1481(6) 0.8547(6) 0.4461(3)
C18 C 1.1753(7) 0.8395(6) 0.6230(4)
H13 H 1.2061 0.8751 0.6800
C19 C 1.1931(6) 0.9041(6) 0.5315(4)
H14 H 1.2368 0.9832 0.5280
C20 C 1.0844(8) 0.7343(7) 0.4519(4)
H15 H 1.0543 0.6981 0.3950
C21 C 1.0669(8) 0.6701(7) 0.5431(4)
H16 H 1.0242 0.5905 0.5470
C22 C 1.1645(6) 0.9264(6) 0.3469(4)
O4 O 1.2183(4) 1.0370(4) 0.3467(2)
O5 O 1.1225(6) 0.8757(5) 0.2727(3)
O6 O 0.8352(5) 0.9483(4) 0.8736(3)
H17 H 0.902(5) 0.898(6) 0.911(4)
H18 H 0.881(6) 0.999(6) 0.835(4)
Zn1A Zn 0.27780(6) 0.15773(6) 0.22885(4)
Zn1_2 Zn -0.27780(6) -0.15773(6) 0.77115(4)
Zn1A_2 Zn 1.27780(6) 1.15773(6) 0.22885(4)
N1A N 0.3689(5) 0.2478(5) 0.0993(3)
N2A N 0.4975(5) 0.0272(5) 0.2115(3)
N3A N 0.3683(5) 0.2836(4) 0.3313(3)
C1A C 0.5029(6) 0.1784(5) 0.0668(3)
C2A C 0.5786(6) 0.0568(5) 0.1313(3)
C3A C 0.6966(7) -0.1570(6) 0.2570(5)
H1A H 0.7356 -0.2299 0.3012
C4A C 0.7790(7) -0.1275(7) 0.1755(5)
H2A H 0.8733 -0.1811 0.1630
C5A C 0.2974(6) 0.3551(6) 0.0432(4)
H3A H 0.2038 0.4015 0.0646
C6A C 0.5585(7) -0.0794(6) 0.2727(4)
H4A H 0.5036 -0.1007 0.3281
C7A C 0.4893(7) 0.3295(7) -0.0774(4)
H5A H 0.5301 0.3574 -0.1366
C8A C 0.3543(7) 0.4005(6) -0.0441(4)
H6A H 0.3025 0.4776 -0.0797
C9A C 0.7197(6) -0.0173(6) 0.1127(4)
H7A H 0.7750 0.0065 0.0581
C10A C 0.5654(7) 0.2146(7) -0.0219(4)
H8A H 0.6560 0.1637 -0.0442
C11A C 0.4732(6) 0.4538(5) 0.4643(3)
C12A C 0.5065(9) 0.4611(7) 0.3663(4)
H9A H 0.5646 0.5250 0.3418
C13A C 0.4550(9) 0.3755(8) 0.3044(4)
H10A H 0.4826 0.3819 0.2384
C14A C 0.3362(11) 0.2783(9) 0.4247(5)
H11A H 0.2757 0.2151 0.4471
C15A C 0.3853(12) 0.3596(9) 0.4927(5)
H12A H 0.3580 0.3498 0.5585
S1A S -0.08419(15) 0.36413(14) 0.25631(9)
O1A O 0.0739(4) 0.3178(5) 0.2291(3)
O2A O -0.1907(5) 0.3223(5) 0.1882(3)
O3A O -0.1116(6) 0.5101(4) 0.2733(3)
C16A C -0.1113(6) 0.2784(5) 0.3717(3)
C17A C -0.1481(6) 0.1453(6) 0.5539(3)
C18A C -0.1753(7) 0.1605(6) 0.3770(4)
H13A H -0.2061 0.1249 0.3200
C19A C -0.1931(6) 0.0959(6) 0.4685(4)
H14A H -0.2368 0.0168 0.4720
C20A C -0.0844(8) 0.2657(7) 0.5481(4)
H15A H -0.0543 0.3019 0.6050
C21A C -0.0669(8) 0.3299(7) 0.4569(4)
H16A H -0.0242 0.4095 0.4530
C22A C -0.1645(6) 0.0736(6) 0.6531(4)
O4A O -0.2183(4) -0.0370(4) 0.6533(2)
O4_2 O 0.2183(4) 0.0370(4) 0.3467(2)
O4A_2 O 0.7817(4) 0.9630(4) 0.6533(2)
O5A O -0.1225(6) 0.1243(5) 0.7273(3)
O6A O 0.1648(5) 0.0517(4) 0.1264(3)
H17A H 0.098(5) 0.102(6) 0.089(4)
H18A H 0.119(6) 0.001(6) 0.165(4)
O7 O 1.1396(7) 0.6372(6) 0.1726(3)
H19 H 1.063(4) 0.607(7) 0.197(4)
H21 H 1.213(5) 0.618(8) 0.214(4)
O8 O 1.0539(6) 0.7777(6) 0.9870(4)
H20 H 1.076(7) 0.717(5) 1.034(3)
H22 H 1.109(7) 0.753(6) 0.938(3)
loop_
_geom_bond_atom_site_label_1
_geom_bond_atom_site_label_2
_geom_bond_site_symmetry_1
_geom_bond_site_symmetry_2
Zn1 N1 1_555 1_555
N1 C1 1_555 1_555
N2 Zn1 1_555 1_555
N3 Zn1 1_555 1_555
C1 C2 1_555 1_555
C2 N2 1_555 1_555
C3 H1 1_555 1_555
C4 C3 1_555 1_555
H2 C4 1_555 1_555
C5 N1 1_555 1_555
H3 C5 1_555 1_555
C6 N2 1_555 1_555
H4 C6 1_555 1_555
C7 H5 1_555 1_555
C8 C5 1_555 1_555
H6 C8 1_555 1_555
C9 C2 1_555 1_555
H7 C9 1_555 1_555
C10 C1 1_555 1_555
H8 C10 1_555 1_555
C11 C12 1_555 1_555
C12 H9 1_555 1_555
C13 N3 1_555 1_555
H10 C13 1_555 1_555
C14 N3 1_555 1_555
H11 C14 1_555 1_555
C15 C11 1_555 1_555
H12 C15 1_555 1_555
S1 O1 1_555 1_555
O1 Zn1 1_555 1_555
O2 S1 1_555 1_555
O3 S1 1_555 1_555
C16 S1 1_555 1_555
C17 C19 1_555 1_555
C18 C16 1_555 1_555
H13 C18 1_555 1_555
C19 C18 1_555 1_555
H14 C19 1_555 1_555
C20 C17 1_555 1_555
H15 C20 1_555 1_555
C21 C16 1_555 1_555
H16 C21 1_555 1_555
C22 C17 1_555 1_555
O4 C22 1_555 1_555
O5 C22 1_555 1_555
O6 Zn1 1_555 1_555
O7 H19 1_555 1_555
O8 H20 1_555 1_555
H17 O6 1_555 1_555
H18 O6 1_555 1_555
H21 O7 1_555 1_555
H22 O8 1_555 1_555
Zn1A N1A 1_555 1_555
Zn1_2 O4A 1_555 1_555
Zn1A_2 O4 1_555 1_555
N1A C1A 1_555 1_555
N2A Zn1A 1_555 1_555
N3A Zn1A 1_555 1_555
C1A C2A 1_555 1_555
C2A N2A 1_555 1_555
C3A H1A 1_555 1_555
C4A C3A 1_555 1_555
H2A C4A 1_555 1_555
C5A N1A 1_555 1_555
H3A C5A 1_555 1_555
C6A N2A 1_555 1_555
H4A C6A 1_555 1_555
C7A H5A 1_555 1_555
C8A C5A 1_555 1_555
H6A C8A 1_555 1_555
C9A C2A 1_555 1_555
H7A C9A 1_555 1_555
C10A C1A 1_555 1_555
H8A C10A 1_555 1_555
C11A C11 1_555 1_555
C12A C11A 1_555 1_555
H9A C12A 1_555 1_555
C13A N3A 1_555 1_555
H10A C13A 1_555 1_555
C14A N3A 1_555 1_555
H11A C14A 1_555 1_555
C15A C11A 1_555 1_555
H12A C15A 1_555 1_555
S1A O1A 1_555 1_555
O1A Zn1A 1_555 1_555
O2A S1A 1_555 1_555
O3A S1A 1_555 1_555
C16A S1A 1_555 1_555
C17A C19A 1_555 1_555
C18A C16A 1_555 1_555
H13A C18A 1_555 1_555
C19A C18A 1_555 1_555
H14A C19A 1_555 1_555
C20A C17A 1_555 1_555
H15A C20A 1_555 1_555
C21A C16A 1_555 1_555
H16A C21A 1_555 1_555
C22A C17A 1_555 1_555
O4A C22A 1_555 1_555
O4_2 Zn1A 1_555 1_555
O4A_2 Zn1 1_555 1_555
O5A C22A 1_555 1_555
O6A Zn1A 1_555 1_555
H17A O6A 1_555 1_555
H18A O6A 1_555 1_555
C3 C6 1_555 1_555
C4 C9 1_555 1_555
C7 C8 1_555 1_555
C7 C10 1_555 1_555
C12 C13 1_555 1_555
C14 C15 1_555 1_555
C20 C21 1_555 1_555
C3A C6A 1_555 1_555
C4A C9A 1_555 1_555
C7A C8A 1_555 1_555
C7A C10A 1_555 1_555
C12A C13A 1_555 1_555
C14A C15A 1_555 1_555
C20A C21A 1_555 1_555

#END
