
#######################################################################
#
#                 Cambridge Crystallographic Data Centre
#                                CCDC 
#
#######################################################################
#
# If this CIF has been generated from an entry in the Cambridge 
# Structural Database, then it will include bibliographic, chemical, 
# crystal, experimental, refinement or atomic coordinate data resulting 
# from the CCDC's data processing and validation procedures.
#
#######################################################################

data_GUFHAR
_symmetry_cell_setting           triclinic
_symmetry_space_group_name_H-M   'P -1'
_symmetry_Int_Tables_number      2
_space_group_name_Hall           '-P 1'
loop_
_symmetry_equiv_pos_site_id
_symmetry_equiv_pos_as_xyz
1 x,y,z
2 -x,-y,-z
_cell_length_a                   7.3840(7)
_cell_length_b                   10.5394(9)
_cell_length_c                   13.5034(12)
_cell_angle_alpha                67.3870(10)
_cell_angle_beta                 83.6740(10)
_cell_angle_gamma                78.4830(10)
_cell_volume                     949.905
loop_
_atom_site_label
_atom_site_type_symbol
_atom_site_fract_x
_atom_site_fract_y
_atom_site_fract_z
Zn1 Zn 0.72660(3) 0.72365(2) 0.778605(16)
O1 O 0.7050(2) 0.92070(15) 0.65202(12)
O2 O 0.7532(2) 0.52816(14) 0.90484(11)
O3 O 1.01669(19) 0.68112(16) 0.72805(13)
N1 N 0.8073(2) 0.80897(16) 0.88404(13)
C1 C 0.9583(3) 0.95939(19) 0.97733(15)
C2 C 0.7110(3) 0.9255(2) 0.89390(19)
H1 H 0.5915 0.9564 0.8689
C4 C 0.9748(3) 0.7645(2) 0.92514(16)
H2 H 1.0415 0.6808 0.9228
C5 C 0.7798(3) 1.0021(2) 0.93917(19)
H3 H 0.7070 1.0824 0.9443
C6 C 1.0545(3) 0.8350(2) 0.97063(17)
H4 H 1.1728 0.7997 0.9970
O7 O 0.44112(19) 0.75783(16) 0.83256(13)
N2 N 0.6482(2) 0.65150(17) 0.66404(13)
C11 C 0.5320(3) 0.5336(2) 0.53239(15)
C14 C 0.4822(3) 0.6979(2) 0.61968(18)
H9 H 0.4048 0.7711 0.6332
C15 C 0.7589(3) 0.5524(2) 0.6373(2)
H10 H 0.8780 0.5229 0.6629
C16 C 0.4209(3) 0.6425(2) 0.55528(18)
H11 H 0.3042 0.6783 0.5268
C17 C 0.7071(3) 0.4914(2) 0.5740(2)
H12 H 0.7897 0.4214 0.5589
H13 H 0.766(4) 0.980(3) 0.654(2)
H14 H 0.687(4) 0.477(3) 0.895(2)
H15 H 1.100(3) 0.620(2) 0.768(2)
H16 H 0.729(4) 0.912(3) 0.5917(14)
H17 H 0.363(3) 0.820(2) 0.791(2)
H18 H 0.733(4) 0.528(3) 0.9677(13)
H19 H 1.051(4) 0.7601(15) 0.708(3)
H20 H 0.404(4) 0.6802(15) 0.855(3)
Zn1A Zn 0.27340(3) 0.27635(2) 0.221395(16)
Zn1A_2 Zn 1.27340(3) 1.27635(2) 1.221395(16)
O1A O 0.2950(2) 0.07930(15) 0.34798(12)
O2A O 0.2468(2) 0.47184(14) 0.09516(11)
O3A O -0.01669(19) 0.31888(16) 0.27195(13)
N1A N 1.1927(2) 1.19103(16) 1.11596(13)
N1A_2 N 0.1927(2) 0.19103(16) 0.11596(13)
C1A C 1.0417(3) 1.04061(19) 1.02267(15)
C2A C 1.2890(3) 1.0745(2) 1.10610(19)
H1A H 1.4085 1.0436 1.1311
C4A C 1.0252(3) 1.2355(2) 1.07486(16)
H2A H 0.9585 1.3192 1.0772
C5A C 1.2202(3) 0.9979(2) 1.06083(19)
H3A H 1.2930 0.9176 1.0557
C6A C 0.9455(3) 1.1650(2) 1.02937(17)
H4A H 0.8272 1.2003 1.0030
O7A O 0.55888(19) 0.24217(16) 0.16744(13)
N2A N 0.3518(2) 0.34850(17) 0.33596(13)
C11A C 0.4680(3) 0.4664(2) 0.46761(15)
C14A C 0.5178(3) 0.3021(2) 0.38032(18)
H9A H 0.5952 0.2289 0.3668
C15A C 0.2411(3) 0.4476(2) 0.3627(2)
H10A H 0.1220 0.4771 0.3371
C16A C 0.5791(3) 0.3575(2) 0.44472(18)
H11A H 0.6958 0.3217 0.4732
C17A C 0.2929(3) 0.5086(2) 0.4260(2)
H12A H 0.2103 0.5786 0.4411
H13A H 0.234(4) 0.020(3) 0.346(2)
H14A H 0.313(4) 0.523(3) 0.105(2)
H15A H -0.100(3) 0.380(2) 0.232(2)
H16A H 0.271(4) 0.088(3) 0.4083(14)
H17A H 0.637(3) 0.180(2) 0.209(2)
H18A H 0.267(4) 0.472(3) 0.0323(13)
H19A H -0.051(4) 0.2399(15) 0.292(3)
H20A H 0.596(4) 0.3198(15) 0.145(3)
S1 S 0.90118(7) 0.91795(5) 1.36313(4)
O4 O 0.8406(2) 1.06551(15) 1.30265(15)
C3 C 0.8162(3) 0.82559(19) 1.29795(15)
O5 O 1.1012(2) 0.88131(18) 1.35784(18)
O6 O 0.8218(4) 0.8722(3) 1.46954(15)
O8 O 0.7062(2) 0.49798(15) 1.12979(13)
O9 O 0.4348(2) 0.63971(16) 1.12161(15)
C7 C 0.8672(3) 0.6729(2) 1.20012(16)
H5 H 0.9484 0.6187 1.1683
C8 C 0.6774(3) 0.67768(19) 1.19975(15)
C9 C 0.6005(3) 0.59945(19) 1.14620(16)
C10 C 0.9361(3) 0.7481(2) 1.24735(16)
H6 H 1.0628 0.7466 1.2452
C12 C 0.6264(3) 0.8291(2) 1.29985(18)
H7 H 0.5457 0.8797 1.3347
C13 C 0.5591(3) 0.7573(2) 1.24993(18)
H8 H 0.4320 0.7619 1.2497
loop_
_geom_bond_atom_site_label_1
_geom_bond_atom_site_label_2
_geom_bond_site_symmetry_1
_geom_bond_site_symmetry_2
Zn1 O1 1_555 1_555
S1 O4 1_555 1_555
O1 H13 1_555 1_555
O2 Zn1 1_555 1_555
O3 Zn1 1_555 1_555
N1 Zn1 1_555 1_555
C1 C5 1_555 1_555
C2 N1 1_555 1_555
H1 C2 1_555 1_555
C3 S1 1_555 1_555
C4 N1 1_555 1_555
H2 C4 1_555 1_555
O5 S1 1_555 1_555
O6 S1 1_555 1_555
C5 C2 1_555 1_555
H3 C5 1_555 1_555
C6 C1 1_555 1_555
H4 C6 1_555 1_555
O7 Zn1 1_555 1_555
O8 C9 1_555 1_555
O9 C9 1_555 1_555
N2 Zn1 1_555 1_555
C7 H5 1_555 1_555
C8 C7 1_555 1_555
C9 C8 1_555 1_555
C10 C3 1_555 1_555
H6 C10 1_555 1_555
C11 C16 1_555 1_555
C12 C3 1_555 1_555
H7 C12 1_555 1_555
C13 C8 1_555 1_555
H8 C13 1_555 1_555
C14 N2 1_555 1_555
H9 C14 1_555 1_555
C15 N2 1_555 1_555
H10 C15 1_555 1_555
C16 C14 1_555 1_555
H11 C16 1_555 1_555
C17 C11 1_555 1_555
H12 C17 1_555 1_555
H14 O2 1_555 1_555
H15 O3 1_555 1_555
H16 O1 1_555 1_555
H17 O7 1_555 1_555
H18 O2 1_555 1_555
H19 O3 1_555 1_555
H20 O7 1_555 1_555
Zn1A O1A 1_555 1_555
Zn1A_2 N1A 1_555 1_555
O1A H13A 1_555 1_555
O2A Zn1A 1_555 1_555
O3A Zn1A 1_555 1_555
N1A C2A 1_555 1_555
N1A_2 Zn1A 1_555 1_555
C1A C1 1_555 1_555
C2A H1A 1_555 1_555
C4A N1A 1_555 1_555
H2A C4A 1_555 1_555
C5A C1A 1_555 1_555
H3A C5A 1_555 1_555
C6A C1A 1_555 1_555
H4A C6A 1_555 1_555
O7A Zn1A 1_555 1_555
N2A Zn1A 1_555 1_555
C11A C11 1_555 1_555
C14A N2A 1_555 1_555
H9A C14A 1_555 1_555
C15A N2A 1_555 1_555
H10A C15A 1_555 1_555
C16A C11A 1_555 1_555
H11A C16A 1_555 1_555
C17A C11A 1_555 1_555
H12A C17A 1_555 1_555
H14A O2A 1_555 1_555
H15A O3A 1_555 1_555
H16A O1A 1_555 1_555
H17A O7A 1_555 1_555
H18A O2A 1_555 1_555
H19A O3A 1_555 1_555
H20A O7A 1_555 1_555
C4 C6 1_555 1_555
C7 C10 1_555 1_555
C12 C13 1_555 1_555
C15 C17 1_555 1_555
C2A C5A 1_555 1_555
C4A C6A 1_555 1_555
C14A C16A 1_555 1_555
C15A C17A 1_555 1_555

#END
