
#######################################################################
#
#                 Cambridge Crystallographic Data Centre
#                                CCDC 
#
#######################################################################
#
# If this CIF has been generated from an entry in the Cambridge 
# Structural Database, then it will include bibliographic, chemical, 
# crystal, experimental, refinement or atomic coordinate data resulting 
# from the CCDC's data processing and validation procedures.
#
#######################################################################

data_GUFQIJ
_symmetry_cell_setting           monoclinic
_symmetry_space_group_name_H-M   'C 2/c'
_symmetry_Int_Tables_number      15
_space_group_name_Hall           '-C 2yn'
loop_
_symmetry_equiv_pos_site_id
_symmetry_equiv_pos_as_xyz
1 x,y,z
2 -x,y,1/2-z
3 1/2+x,1/2+y,z
4 1/2-x,1/2+y,1/2-z
5 -x,-y,-z
6 x,-y,1/2+z
7 1/2-x,1/2-y,-z
8 1/2+x,1/2-y,1/2+z
_cell_length_a                   26.758(9)
_cell_length_b                   10.635(4)
_cell_length_c                   29.565(8)
_cell_angle_alpha                90
_cell_angle_beta                 116.906(11)
_cell_angle_gamma                90
_cell_volume                     7502.61
loop_
_atom_site_label
_atom_site_type_symbol
_atom_site_fract_x
_atom_site_fract_y
_atom_site_fract_z
C1 C 0.4654(3) 0.4772(7) 0.0851(3)
C2 C 0.4558(3) 0.5558(7) 0.1230(3)
C3 C 0.4622(3) 0.6844(7) 0.1226(3)
H1 H 0.4745 0.7211 0.1009
C4 C 0.4391(3) 0.5013(8) 0.1560(3)
H2 H 0.4357 0.4144 0.1570
C5 C 0.4272(3) 0.5795(9) 0.1884(3)
H3 H 0.4153 0.5436 0.2106
C6 C 0.4503(3) 0.7570(7) 0.1546(3)
H4 H 0.4542 0.8437 0.1536
C7 C 0.4328(3) 0.7087(8) 0.1878(3)
C8 C 0.4168(3) 0.7891(7) 0.2211(2)
H5 H 0.4370 0.7601 0.2559
H6 H 0.4281 0.8752 0.2199
C9 C 0.3443(3) 0.8710(7) 0.2381(2)
H7 H 0.3040 0.8753 0.2254
H8 H 0.3574 0.9546 0.2357
C10 C 0.3704(3) 0.8327(7) 0.2931(3)
C11 C 0.3928(3) 0.9227(6) 0.3304(3)
H9 H 0.3935 1.0066 0.3217
C12 C 0.3685(3) 0.7113(8) 0.3063(3)
H10 H 0.3522 0.6508 0.2811
C13 C 0.3904(3) 0.6762(6) 0.3568(3)
H11 H 0.3899 0.5923 0.3654
C14 C 0.4141(3) 0.8882(7) 0.3798(3)
H12 H 0.4300 0.9498 0.4046
C15 C 0.4132(3) 0.7674(6) 0.3947(2)
C16 C 0.4371(3) 0.7305(8) 0.4487(3)
C17 C 0.3241(2) 0.8247(7) 0.1531(2)
H13 H 0.3355 0.7745 0.1320
H14 H 0.3327 0.9118 0.1498
C18 C 0.2617(3) 0.8117(8) 0.1338(2)
C19 C 0.2260(3) 0.9053(7) 0.1064(3)
H15 H 0.2406 0.9789 0.1001
C20 C 0.1683(3) 0.8932(7) 0.0877(3)
H16 H 0.1448 0.9579 0.0686
C21 C 0.2386(3) 0.7059(8) 0.1423(3)
H17 H 0.2620 0.6402 0.1603
C22 C 0.1813(3) 0.6925(7) 0.1249(3)
H18 H 0.1669 0.6197 0.1321
C23 C 0.1459(3) 0.7868(6) 0.0972(2)
C24 C 0.0842(3) 0.7740(7) 0.0779(2)
C25 C 0.3947(3) 0.1035(7) 0.0726(3)
H19 H 0.3970 0.1759 0.0911
C26 C 0.3508(3) 0.0259(7) 0.0616(3)
H20 H 0.3242 0.0457 0.0726
C27 C 0.4307(3) -0.0235(7) 0.0347(3)
H21 H 0.4588 -0.0428 0.0256
C28 C 0.3871(3) -0.1107(7) 0.0217(2)
H22 H 0.3867 -0.1853 0.0051
C29 C 0.3451(3) -0.0815(7) 0.0343(3)
C30 C 0.2960(3) -0.1691(7) 0.0176(3)
C31 C 0.2422(3) -0.1265(7) -0.0031(3)
C32 C 0.3036(3) -0.2942(7) 0.0202(3)
H23 H 0.3396 -0.3274 0.0336
C33 C 0.1879 0.0568 -0.0453
H24 H 0.1725 0.1235 -0.0330
H25 H 0.1590 -0.0059 -0.0620
C34 C 0.2086 0.1100 -0.0823
H26 H 0.1988 0.0446 -0.1078
H27 H 0.1826 0.1782 -0.0990
C35 C 0.2637 0.1596 -0.0778
H28 H 0.2902 0.0905 -0.0659
H29 H 0.2769 0.2221 -0.0510
C36 C 0.2685 0.2183 -0.1230
H30 H 0.3065 0.2440 -0.1127
H31 H 0.2443 0.2902 -0.1348
H32 H 0.2577 0.1577 -0.1498
O1 O 0.2353 0.0016 -0.0042
Co1 Co 0.48354(4) 0.22742(8) 0.05279(3)
Co2 Co 0.5000 0.5000 0.0000
N1 N 0.4352(2) 0.0832(5) 0.0587(2)
N2 N 0.3568(2) 0.7862(5) 0.20585(19)
O2 O 0.46339(18) 0.3587(4) 0.08874(16)
O3 O 0.47245(18) 0.5360(4) 0.05179(16)
O4 O 0.43404(17) 0.6189(5) 0.46028(17)
O5 O 0.4590(2) 0.8158(4) 0.48122(16)
O6 O 0.06411(17) 0.6835(4) 0.09217(16)
O7 O 0.05150(17) 0.8528(4) 0.04751(16)
C25F C 0.1053(3) -0.6035(7) -0.0726(3)
H19F H 0.1030 -0.6759 -0.0911
C26F C 0.1492(3) -0.5259(7) -0.0616(3)
H20F H 0.1758 -0.5457 -0.0726
C27F C 0.0693(3) -0.4765(7) -0.0347(3)
H21F H 0.0412 -0.4572 -0.0256
C28F C 0.1129(3) -0.3893(7) -0.0217(2)
H22F H 0.1133 -0.3147 -0.0051
C29F C 0.1549(3) -0.4185(7) -0.0343(3)
C30F C 0.2040(3) -0.3309(7) -0.0176(3)
C31F C 0.2578(3) -0.3735(7) 0.0031(3)
C32F C 0.1964(3) -0.2058(7) -0.0202(3)
H23F H 0.1604 -0.1726 -0.0336
C33F C 0.3121 -0.5568 0.0453
H24F H 0.3275 -0.6235 0.0330
H25F H 0.3410 -0.4941 0.0620
C34F C 0.2914 -0.6100 0.0823
H26F H 0.3012 -0.5446 0.1078
H27F H 0.3174 -0.6782 0.0990
C35F C 0.2363 -0.6596 0.0778
H28F H 0.2098 -0.5905 0.0659
H29F H 0.2231 -0.7221 0.0510
C36F C 0.2315 -0.7183 0.1230
H30F H 0.1935 -0.7440 0.1127
H31F H 0.2557 -0.7902 0.1348
H32F H 0.2423 -0.6577 0.1498
O1F O 0.2647 -0.5016 0.0042
N1F N 0.0648(2) -0.5832(5) -0.0587(2)
C1A C 0.5346(3) 0.4772(7) 0.4149(3)
C2A C 0.5442(3) 0.5558(7) 0.3770(3)
C3A C 0.5378(3) 0.6844(7) 0.3774(3)
H1A H 0.5255 0.7211 0.3991
C4A C 0.5609(3) 0.5013(8) 0.3440(3)
H2A H 0.5643 0.4144 0.3430
C5A C 0.5728(3) 0.5795(9) 0.3116(3)
H3A H 0.5847 0.5436 0.2894
C6A C 0.5497(3) 0.7570(7) 0.3454(3)
H4A H 0.5458 0.8437 0.3464
C7A C 0.5672(3) 0.7087(8) 0.3122(3)
C8A C 0.5832(3) 0.7891(7) 0.2789(2)
H5A H 0.5630 0.7601 0.2441
H6A H 0.5719 0.8752 0.2801
C9A C 0.6557(3) 0.8710(7) 0.2619(2)
H7A H 0.6960 0.8753 0.2746
H8A H 0.6426 0.9546 0.2643
C10A C 0.6296(3) 0.8327(7) 0.2069(3)
C11A C 0.6072(3) 0.9227(6) 0.1696(3)
H9A H 0.6065 1.0066 0.1783
C12A C 0.6315(3) 0.7113(8) 0.1937(3)
H10A H 0.6478 0.6508 0.2189
C13A C 0.6096(3) 0.6762(6) 0.1432(3)
H11A H 0.6101 0.5923 0.1346
C14A C 0.5859(3) 0.8882(7) 0.1202(3)
H12A H 0.5700 0.9498 0.0954
C15A C 0.5868(3) 0.7674(6) 0.1053(2)
C16A C 0.5629(3) 0.7305(8) 0.0513(3)
C17A C 0.6759(2) 0.8247(7) 0.3469(2)
H13A H 0.6645 0.7745 0.3680
H14A H 0.6673 0.9118 0.3502
C18A C 0.7383(3) 0.8117(8) 0.3662(2)
C19A C 0.7740(3) 0.9053(7) 0.3936(3)
H15A H 0.7594 0.9789 0.3999
C20A C 0.8317(3) 0.8932(7) 0.4123(3)
H16A H 0.8552 0.9579 0.4314
C21A C 0.7614(3) 0.7059(8) 0.3577(3)
H17A H 0.7380 0.6402 0.3397
C22A C 0.8187(3) 0.6925(7) 0.3751(3)
H18A H 0.8331 0.6197 0.3679
C23A C 0.8541(3) 0.7868(6) 0.4028(2)
C24A C 0.9158(3) 0.7740(7) 0.4221(2)
Co1A Co 0.51646(4) 0.22742(8) 0.44721(3)
N2A N 0.6432(2) 0.7862(5) 0.29415(19)
O2A O 0.53661(18) 0.3587(4) 0.41126(16)
O3A O 0.52755(18) 0.5360(4) 0.44821(16)
O4A O 0.56596(17) 0.6189(5) 0.03972(17)
O5A O 0.5410(2) 0.8158(4) 0.01878(16)
O6A O 0.93589(17) 0.6835(4) 0.40783(16)
O7A O 0.94850(17) 0.8528(4) 0.45249(16)
Co1B Co -0.01646(4) 0.72742(8) 0.05279(3)
Co1C Co 1.01646(4) 0.72742(8) 0.44721(3)
Co1D Co 0.51646(4) 0.77258(8) -0.05279(3)
Co1E Co 0.48354(4) 0.77258(8) 0.55279(3)
Co1F Co 0.01646(4) -0.72742(8) -0.05279(3)
Co2A Co 0.5000 0.5000 0.5000
Co2B Co 0.0000 1.0000 0.0000
Co2C Co 1.0000 1.0000 0.5000
N1A N 0.5648(2) 0.0832(5) 0.4413(2)
O3D O 0.52755(18) 0.4640(4) -0.05179(16)
O4E O 0.43404(17) 0.3811(5) -0.03972(17)
O5D O 0.5410(2) 0.1842(4) 0.51878(16)
O5E O 0.4590(2) 0.1842(4) -0.01878(16)
O6B O 0.56411(17) 0.1835(4) 0.09217(16)
O6C O 0.43589(17) 0.1835(4) 0.40783(16)
O7B O 0.55150(17) 0.3528(4) 0.04751(16)
O7C O 0.44850(17) 0.3528(4) 0.45249(16)
O7F O 0.44850(17) 0.6472(4) -0.04751(16)
loop_
_geom_bond_atom_site_label_1
_geom_bond_atom_site_label_2
_geom_bond_site_symmetry_1
_geom_bond_site_symmetry_2
C1 C2 1_555 1_555
C2 C3 1_555 1_555
C3 H1 1_555 1_555
C4 C2 1_555 1_555
H2 C4 1_555 1_555
C5 C4 1_555 1_555
H3 C5 1_555 1_555
C6 C3 1_555 1_555
H4 C6 1_555 1_555
C7 C5 1_555 1_555
C8 C7 1_555 1_555
H5 C8 1_555 1_555
H6 C8 1_555 1_555
C9 H7 1_555 1_555
H8 C9 1_555 1_555
C10 C9 1_555 1_555
C11 C10 1_555 1_555
H9 C11 1_555 1_555
C12 C10 1_555 1_555
H10 C12 1_555 1_555
C13 C12 1_555 1_555
H11 C13 1_555 1_555
C14 C11 1_555 1_555
H12 C14 1_555 1_555
C15 C13 1_555 1_555
C16 C15 1_555 1_555
C17 H13 1_555 1_555
H14 C17 1_555 1_555
C18 C17 1_555 1_555
C19 C18 1_555 1_555
H15 C19 1_555 1_555
C20 C19 1_555 1_555
H16 C20 1_555 1_555
C21 C18 1_555 1_555
H17 C21 1_555 1_555
C22 C21 1_555 1_555
H18 C22 1_555 1_555
C23 C20 1_555 1_555
C24 C23 1_555 1_555
C25 H19 1_555 1_555
C26 C25 1_555 1_555
H20 C26 1_555 1_555
C27 H21 1_555 1_555
C28 C27 1_555 1_555
H22 C28 1_555 1_555
C29 C26 1_555 1_555
C30 C29 1_555 1_555
C31 C30 1_555 1_555
C32 C30 1_555 1_555
H23 C32 1_555 1_555
C33 H24 1_555 1_555
H25 C33 1_555 1_555
C34 C33 1_555 1_555
H26 C34 1_555 1_555
H27 C34 1_555 1_555
C35 C34 1_555 1_555
H28 C35 1_555 1_555
H29 C35 1_555 1_555
C36 C35 1_555 1_555
H30 C36 1_555 1_555
H31 C36 1_555 1_555
H32 C36 1_555 1_555
O1 C31 1_555 1_555
Co1 N1 1_555 1_555
Co2 O3 1_555 1_555
N1 C25 1_555 1_555
N2 C8 1_555 1_555
O2 C1 1_555 1_555
O3 C1 1_555 1_555
O4 C16 1_555 1_555
O5 C16 1_555 1_555
O6 C24 1_555 1_555
O7 C24 1_555 1_555
C25F H19F 1_555 1_555
C26F C25F 1_555 1_555
H20F C26F 1_555 1_555
C27F H21F 1_555 1_555
C28F C27F 1_555 1_555
H22F C28F 1_555 1_555
C29F C26F 1_555 1_555
C30F C29F 1_555 1_555
C31F C32 1_555 1_555
C32F C31 1_555 1_555
H23F C32F 1_555 1_555
C33F H24F 1_555 1_555
H25F C33F 1_555 1_555
C34F C33F 1_555 1_555
H26F C34F 1_555 1_555
H27F C34F 1_555 1_555
C35F C34F 1_555 1_555
H28F C35F 1_555 1_555
H29F C35F 1_555 1_555
C36F C35F 1_555 1_555
H30F C36F 1_555 1_555
H31F C36F 1_555 1_555
H32F C36F 1_555 1_555
O1F C31F 1_555 1_555
N1F C25F 1_555 1_555
C1A C2A 1_555 1_555
C2A C3A 1_555 1_555
C3A H1A 1_555 1_555
C4A C2A 1_555 1_555
H2A C4A 1_555 1_555
C5A C4A 1_555 1_555
H3A C5A 1_555 1_555
C6A C3A 1_555 1_555
H4A C6A 1_555 1_555
C7A C5A 1_555 1_555
C8A C7A 1_555 1_555
H5A C8A 1_555 1_555
H6A C8A 1_555 1_555
C9A H7A 1_555 1_555
H8A C9A 1_555 1_555
C10A C9A 1_555 1_555
C11A C10A 1_555 1_555
H9A C11A 1_555 1_555
C12A C10A 1_555 1_555
H10A C12A 1_555 1_555
C13A C12A 1_555 1_555
H11A C13A 1_555 1_555
C14A C11A 1_555 1_555
H12A C14A 1_555 1_555
C15A C13A 1_555 1_555
C16A C15A 1_555 1_555
C17A H13A 1_555 1_555
H14A C17A 1_555 1_555
C18A C17A 1_555 1_555
C19A C18A 1_555 1_555
H15A C19A 1_555 1_555
C20A C19A 1_555 1_555
H16A C20A 1_555 1_555
C21A C18A 1_555 1_555
H17A C21A 1_555 1_555
C22A C21A 1_555 1_555
H18A C22A 1_555 1_555
C23A C20A 1_555 1_555
C24A C23A 1_555 1_555
Co1A O2A 1_555 1_555
N2A C8A 1_555 1_555
O2A C1A 1_555 1_555
O3A C1A 1_555 1_555
O4A Co2 1_555 1_555
O5A C16A 1_555 1_555
O6A C24A 1_555 1_555
O7A C24A 1_555 1_555
Co1B O6 1_555 1_555
Co1C O6A 1_555 1_555
Co1D O5A 1_555 1_555
Co1E O5 1_555 1_555
Co1F N1F 1_555 1_555
Co2A O4 1_555 1_555
Co2B O7 1_555 1_555
Co2C O7A 1_555 1_555
N1A Co1A 1_555 1_555
O3D Co2 1_555 1_555
O4E Co2 1_555 1_555
O5D Co1A 1_555 1_555
O5E Co1 1_555 1_555
O6B Co1 1_555 1_555
O6C Co1A 1_555 1_555
O7B Co1 1_555 1_555
O7C Co1A 1_555 1_555
O7F Co2 1_555 1_555
C6 C7 1_555 1_555
C9 N2 1_555 1_555
C14 C15 1_555 1_555
C17 N2 1_555 1_555
C22 C23 1_555 1_555
C27 N1 1_555 1_555
C28 C29 1_555 1_555
C33 O1 1_555 1_555
Co1 O2 1_555 1_555
Co2 O7B 1_555 1_555
O7 Co1B 1_555 1_555
C27F N1F 1_555 1_555
C28F C29F 1_555 1_555
C30F C31F 1_555 1_555
C30F C32F 1_555 1_555
C33F O1F 1_555 1_555
C6A C7A 1_555 1_555
C9A N2A 1_555 1_555
C14A C15A 1_555 1_555
C16A O4A 1_555 1_555
C17A N2A 1_555 1_555
C22A C23A 1_555 1_555
O3A Co2A 1_555 1_555
O7A Co1C 1_555 1_555
Co1D O7F 1_555 1_555
Co2A O7C 1_555 1_555

#END
