
#######################################################################
#
#                 Cambridge Crystallographic Data Centre
#                                CCDC 
#
#######################################################################
#
# If this CIF has been generated from an entry in the Cambridge 
# Structural Database, then it will include bibliographic, chemical, 
# crystal, experimental, refinement or atomic coordinate data resulting 
# from the CCDC's data processing and validation procedures.
#
#######################################################################

data_GUFQOO
_symmetry_cell_setting           monoclinic
_symmetry_space_group_name_H-M   'P 21/n'
_symmetry_Int_Tables_number      14
_space_group_name_Hall           '-P 2yn'
loop_
_symmetry_equiv_pos_site_id
_symmetry_equiv_pos_as_xyz
1 x,y,z
2 1/2-x,1/2+y,1/2-z
3 -x,-y,-z
4 1/2+x,1/2-y,1/2+z
_cell_length_a                   8.5342(9)
_cell_length_b                   23.754(3)
_cell_length_c                   10.6278(12)
_cell_angle_alpha                90
_cell_angle_beta                 98.2580(10)
_cell_angle_gamma                90
_cell_volume                     2132.14
loop_
_atom_site_label
_atom_site_type_symbol
_atom_site_fract_x
_atom_site_fract_y
_atom_site_fract_z
Zn1 Zn 0.69284(3) 0.879871(9) 0.38391(2)
O1 O 0.81999(18) 0.94018(6) 0.32206(15)
O2 O 0.68349(19) 0.99645(6) 0.43185(17)
O3 O 0.8546(2) 1.25059(7) 0.10213(17)
O4 O 0.69955(18) 1.31457(6) 0.17211(14)
N1 N 0.70386(19) 0.87444(6) 0.57580(15)
N2 N 1.4710(2) 0.88614(7) 1.28408(16)
C1 C 0.8377(2) 1.09430(8) 0.3611(2)
C2 C 0.7615(2) 1.12896(8) 0.2658(2)
H1 H 0.7474 1.1164 0.1821
C3 C 0.7062(2) 1.18188(8) 0.2928(2)
C4 C 0.7291(3) 1.19997(10) 0.4179(3)
H2 H 0.6917 1.2351 0.4381
C5 C 0.8069(3) 1.16646(11) 0.5131(3)
H3 H 0.8229 1.1794 0.5966
C6 C 0.8610(3) 1.11397(10) 0.4848(2)
H4 H 0.9135 1.0916 0.5494
C7 C 0.8927(3) 1.03643(8) 0.3305(3)
H5 H 0.9989 1.0308 0.3751
H6 H 0.8984 1.0345 0.2401
C8 C 0.7875(2) 0.98848(8) 0.3652(2)
C9 C 0.6255(3) 1.21940(9) 0.1879(3)
H7 H 0.5351 1.2376 0.2163
H8 H 0.5870 1.1966 0.1142
C10 C 0.7383(3) 1.26408(8) 0.1503(2)
C11 C 0.6186(2) 0.90796(9) 0.6409(2)
H9 H 0.5480 0.9333 0.5965
C12 C 0.6317(2) 0.90626(9) 0.7714(2)
H10 H 0.5709 0.9305 0.8132
C13 C 0.7339(2) 0.86899(9) 0.84123(19)
C14 C 0.8209(3) 0.83428(9) 0.7729(2)
H11 H 0.8914 0.8084 0.8151
C15 C 0.8031(2) 0.83807(9) 0.6425(2)
H12 H 0.8627 0.8143 0.5986
C16 C 0.7457(3) 0.86559(11) 0.9847(2)
H13 H 0.6788 0.8350 1.0057
H14 H 0.7037 0.9002 1.0151
C17 C 0.9125(3) 0.85650(11) 1.0567(2)
H15 H 0.9054 0.8502 1.1459
H16 H 0.9576 0.8230 1.0241
C18 C 1.0215(3) 0.90587(10) 1.0449(2)
H17 H 1.0379 0.9097 0.9569
H18 H 0.9715 0.9401 1.0691
C19 C 1.4127(3) 0.84563(10) 1.2032(2)
H19 H 1.4710 0.8127 1.1997
C20 C 1.2701(3) 0.85057(10) 1.1249(2)
H20 H 1.2343 0.8213 1.0701
C21 C 1.1798(3) 0.89894(9) 1.1273(2)
C22 C 1.2399(3) 0.93994(10) 1.2129(2)
H21 H 1.1829 0.9729 1.2195
C23 C 1.3828(3) 0.93241(10) 1.2883(2)
H22 H 1.4201 0.9608 1.3450
Zn1_2 Zn 1.69284(3) 0.879871(9) 1.38391(2)
Zn1A Zn 0.80716(3) 1.379871(9) 0.11609(2)
O4A O 0.80045(18) 0.81457(6) 0.32789(14)
N2_2 N 0.4710(2) 0.88614(7) 0.28408(16)
loop_
_geom_bond_atom_site_label_1
_geom_bond_atom_site_label_2
_geom_bond_site_symmetry_1
_geom_bond_site_symmetry_2
Zn1 O1 1_555 1_555
O1 C8 1_555 1_555
O2 C8 1_555 1_555
O3 C10 1_555 1_555
O4 C10 1_555 1_555
N1 Zn1 1_555 1_555
N2 C19 1_555 1_555
C1 C2 1_555 1_555
C2 H1 1_555 1_555
C3 C2 1_555 1_555
C4 C3 1_555 1_555
H2 C4 1_555 1_555
C5 C4 1_555 1_555
H3 C5 1_555 1_555
C6 C1 1_555 1_555
H4 C6 1_555 1_555
C7 C1 1_555 1_555
H5 C7 1_555 1_555
H6 C7 1_555 1_555
C8 C7 1_555 1_555
C9 C3 1_555 1_555
H7 C9 1_555 1_555
H8 C9 1_555 1_555
C10 C9 1_555 1_555
C11 N1 1_555 1_555
H9 C11 1_555 1_555
C12 C11 1_555 1_555
H10 C12 1_555 1_555
C13 C12 1_555 1_555
C14 C13 1_555 1_555
H11 C14 1_555 1_555
C15 N1 1_555 1_555
H12 C15 1_555 1_555
C16 C13 1_555 1_555
H13 C16 1_555 1_555
H14 C16 1_555 1_555
C17 C16 1_555 1_555
H15 C17 1_555 1_555
H16 C17 1_555 1_555
C18 C17 1_555 1_555
H17 C18 1_555 1_555
H18 C18 1_555 1_555
C19 H19 1_555 1_555
C20 C19 1_555 1_555
H20 C20 1_555 1_555
C21 C18 1_555 1_555
C22 C21 1_555 1_555
H21 C22 1_555 1_555
C23 N2 1_555 1_555
H22 C23 1_555 1_555
Zn1_2 N2 1_555 1_555
Zn1A O4 1_555 1_555
O4A Zn1 1_555 1_555
N2_2 Zn1 1_555 1_555
C5 C6 1_555 1_555
C14 C15 1_555 1_555
C20 C21 1_555 1_555
C22 C23 1_555 1_555

#END
