
#######################################################################
#
#                 Cambridge Crystallographic Data Centre
#                                CCDC 
#
#######################################################################
#
# If this CIF has been generated from an entry in the Cambridge 
# Structural Database, then it will include bibliographic, chemical, 
# crystal, experimental, refinement or atomic coordinate data resulting 
# from the CCDC's data processing and validation procedures.
#
#######################################################################

data_GUFQEF
_symmetry_cell_setting           triclinic
_symmetry_space_group_name_H-M   'P -1'
_symmetry_Int_Tables_number      2
_space_group_name_Hall           '-P 1'
loop_
_symmetry_equiv_pos_site_id
_symmetry_equiv_pos_as_xyz
1 x,y,z
2 -x,-y,-z
_cell_length_a                   10.6129(4)
_cell_length_b                   14.9365(6)
_cell_length_c                   18.7658(8)
_cell_angle_alpha                108.9870(10)
_cell_angle_beta                 92.3480(10)
_cell_angle_gamma                106.1340(10)
_cell_volume                     2673.7
loop_
_atom_site_label
_atom_site_type_symbol
_atom_site_fract_x
_atom_site_fract_y
_atom_site_fract_z
Co1 Co 1.21932(4) 0.33577(3) 0.33319(2)
O1 O 1.0237(2) 0.23409(17) 0.30581(13)
O2 O 0.4063(2) -0.55696(17) 0.36405(13)
O3 O 1.1574(2) 0.43638(17) 0.41791(13)
H1 H 1.1701 0.4276 0.4598
H2 H 1.0753 0.4269 0.4063
O4 O 0.6096(2) -0.50996(18) 0.33502(14)
N1 N 1.2896(3) 0.2325(2) 0.24392(15)
C1 C 1.3615(3) -0.0265(2) -0.00538(19)
O5 O 1.2265(2) -0.05043(18) -0.00901(14)
N2 N 1.1618(3) 0.39611(19) 0.24839(15)
N3 N 1.2813(3) 0.2574(2) 0.40248(16)
O6 O 0.9070(2) 0.32481(18) 0.37507(15)
O7 O 0.9309(3) 0.5948(2) 0.13841(15)
O8 O 0.3256(3) -0.4298(2) -0.19561(15)
H3 H 0.3414 -0.4623 -0.2389
C2 C 0.9580(4) -0.1722(4) 0.0016(3)
H4 H 1.0092 -0.1215 0.0485
H5 H 0.9766 -0.2337 -0.0029
N4 N 0.4249(3) -0.1723(2) 0.21699(17)
C3 C 0.5000(3) -0.4953(2) 0.34945(18)
C4 C 1.3844(3) 0.1093(2) 0.12344(18)
C5 C 0.7919(3) 0.1599(2) 0.29490(19)
C6 C 1.0863(3) 0.4644(2) 0.13440(19)
C7 C 0.3357(4) -0.3046(3) 0.33814(19)
H6 H 0.2524 -0.2959 0.3411
C8 C 1.0070(3) 0.4507(3) 0.1891(2)
H7 H 0.9272 0.4652 0.1893
C9 C 1.2612(3) 0.0751(3) 0.14500(19)
H8 H 1.2081 0.0098 0.1201
C10 C 0.4789(3) -0.4013(2) 0.34570(18)
C11 C 1.0430(3) 0.4867(2) 0.06712(19)
C12 C 0.6699(3) 0.1719(3) 0.3104(2)
H9 H 0.6656 0.2337 0.3410
C13 C 1.4396(3) 0.0494(2) 0.06014(19)
C14 C 1.4395(4) 0.0624(2) 0.47897(19)
O9 O 1.2373(3) -0.0137(2) 0.51340(19)
C15 C 1.2180(3) 0.1384(3) 0.20344(19)
H10 H 1.1340 0.1141 0.2154
C16 C 1.0782(3) 0.4409(2) -0.0027(2)
H11 H 1.1316 0.4004 -0.0048
C17 C 0.3822(4) -0.3856(3) -0.0629(2)
C18 C 1.2088(3) 0.4482(3) 0.1418(2)
H12 H 1.2686 0.4598 0.1085
C19 C 0.9164(3) 0.2463(2) 0.32806(19)
C20 C 0.3583(3) -0.3850(2) 0.35146(19)
H13 H 0.2903 -0.4288 0.3646
C21 C 0.4383(4) -0.3454(3) 0.0715(2)
H14 H 0.4903 -0.3480 0.1115
C22 C 0.4365(4) -0.2367(2) 0.32036(19)
C23 C 1.4110(4) 0.2635(3) 0.2258(2)
H15 H 1.4657 0.3269 0.2549
C24 C 0.4128(4) -0.1543(3) 0.2978(2)
H16 H 0.3248 -0.1503 0.3067
H17 H 0.4768 -0.0913 0.3288
C25 C 0.5561(4) 0.0006(3) 0.2339(2)
C26 C 1.2411(3) 0.4152(3) 0.19832(19)
H18 H 1.3237 0.4055 0.2018
C27 C 1.4554(4) 0.2281(3) 0.4675(2)
H19 H 1.5411 0.2535 0.4938
C28 C 0.3424(4) -0.2979(3) 0.0877(2)
C29 C 0.4005(4) -0.4392(3) -0.1417(2)
C30 C 1.5717(4) 0.0701(3) 0.4734(2)
H20 H 1.6208 0.1177 0.4550
C31 C 1.4028(4) 0.2879(3) 0.4410(2)
H21 H 1.4549 0.3531 0.4505
C32 C 1.0458(3) 0.4156(3) 0.2435(2)
H22 H 0.9889 0.4050 0.2784
C33 C 1.1457(4) -0.1296(3) -0.0741(2)
H23 H 1.1653 -0.1908 -0.0789
H24 H 1.1635 -0.1144 -0.1198
C34 C 0.9622(4) 0.5476(3) 0.0693(2)
C35 C 1.4592(4) 0.2065(2) 0.16634(19)
H25 H 1.5426 0.2334 0.1548
O10 O 0.4772(3) -0.4866(3) -0.15519(17)
C36 C 0.2893(4) -0.3356(3) -0.0476(2)
H26 H 0.2395 -0.3308 -0.0873
C37 C 0.4306(4) -0.0835(3) 0.1982(2)
H27 H 0.3557 -0.0612 0.2150
H28 H 0.4224 -0.1011 0.1434
C38 C 0.2699(4) -0.2922(3) 0.0273(2)
H29 H 0.2070 -0.2588 0.0369
C39 C 1.3655(4) -0.0101(3) 0.5059(2)
C40 C 0.7938(4) 0.0668(3) 0.2486(2)
H30 H 0.8746 0.0568 0.2375
C41 C 1.5772(3) 0.0732(2) 0.06362(19)
H31 H 1.6301 0.1226 0.1071
C42 C 1.2084(4) 0.1635(3) 0.3916(2)
H32 H 1.1225 0.1407 0.3659
C43 C 1.3815(4) 0.1302(3) 0.45530(19)
C44 C 0.8119(4) -0.1872(4) 0.0064(3)
H33 H 0.7898 -0.2061 0.0497
H34 H 0.7605 -0.2387 -0.0391
H35 H 0.7930 -0.1263 0.0118
C45 C 0.3140(4) -0.2575(3) 0.1682(2)
H36 H 0.2350 -0.2371 0.1672
H37 H 0.2966 -0.3099 0.1897
C46 C 0.5828(4) -0.3301(3) 0.3323(2)
H38 H 0.6670 -0.3374 0.3315
C47 C 1.1503(5) -0.0906(4) 0.5340(3)
H39 H 1.0719 -0.0723 0.5489
H40 H 1.1945 -0.0976 0.5772
C48 C 0.6781(4) -0.0115(3) 0.2185(2)
H41 H 0.6822 -0.0732 0.1875
C49 C 1.0021(4) -0.1419(3) -0.0643(2)
H42 H 0.9856 -0.0794 -0.0585
H43 H 0.9474 -0.1913 -0.1106
C50 C 0.5536(4) 0.0926(3) 0.2808(2)
H44 H 0.4729 0.1018 0.2928
C51 C 1.2535(4) 0.0992(3) 0.4162(2)
H45 H 1.1985 0.0349 0.4068
C52 C 0.5613(4) -0.2493(3) 0.3203(2)
H46 H 0.6316 -0.2022 0.3119
C53 C 0.8616(7) 0.6639(4) 0.1420(3)
H47 H 0.7736 0.6294 0.1131
H48 H 0.9079 0.7115 0.1196
C54 C 1.1107(8) -0.1869(6) 0.4692(5)
H49 H 1.1139 -0.1712 0.4229
H50 H 1.1793 -0.2177 0.4715
C55 C 0.9825(8) -0.2639(6) 0.4593(5)
H51 H 0.9697 -0.2724 0.5079
H52 H 0.9123 -0.2400 0.4456
C56 C 0.4587(4) -0.3885(3) -0.0018(2)
H53 H 0.5238 -0.4199 -0.0109
C57 C 0.9684(7) -0.3591(5) 0.4034(4)
H54 H 0.8826 -0.4041 0.4014
H55 H 1.0359 -0.3847 0.4168
H56 H 0.9771 -0.3526 0.3545
C58 C 1.0069(10) 0.8903(7) 0.2395(5)
H57 H 1.0583 0.9452 0.2833
H58 H 0.9305 0.9049 0.2231
H59 H 1.0599 0.8798 0.1991
C59 C 0.9611(10) 0.7936(7) 0.2607(6)
H60 H 1.0355 0.7675 0.2588
H61 H 0.9460 0.8144 0.3134
C60 C 0.8514(9) 0.7152(6) 0.2197(4)
H62 H 0.7761 0.7400 0.2203
H63 H 0.8329 0.6674 0.2457
N1A N 1.7104(3) -0.2325(2) -0.24392(15)
C1A C 1.6385(3) 0.0265(2) 0.00538(19)
O5A O 1.7735(2) 0.05043(18) 0.00901(14)
C2A C 2.0420(4) 0.1722(4) -0.0016(3)
H4A H 1.9908 0.1215 -0.0485
H5A H 2.0234 0.2337 0.0029
C4A C 1.6156(3) -0.1093(2) -0.12344(18)
C9A C 1.7388(3) -0.0751(3) -0.14500(19)
H8A H 1.7919 -0.0098 -0.1201
C13A C 1.5604(3) -0.0494(2) -0.06014(19)
C15A C 1.7820(3) -0.1384(3) -0.20344(19)
H10A H 1.8660 -0.1141 -0.2154
C23A C 1.5890(4) -0.2635(3) -0.2258(2)
H15A H 1.5343 -0.3269 -0.2549
C33A C 1.8543(4) 0.1296(3) 0.0741(2)
H23A H 1.8347 0.1908 0.0789
H24A H 1.8365 0.1144 0.1198
C35A C 1.5408(4) -0.2065(2) -0.16634(19)
H25A H 1.4574 -0.2334 -0.1548
C41A C 1.4228(3) -0.0732(2) -0.06362(19)
H31A H 1.3699 -0.1226 -0.1071
C44A C 2.1881(4) 0.1872(4) -0.0064(3)
H33A H 2.2102 0.2061 -0.0497
H34A H 2.2395 0.2387 0.0391
H35A H 2.2070 0.1263 -0.0118
C49A C 1.9979(4) 0.1419(3) 0.0643(2)
H42A H 2.0144 0.0794 0.0585
H43A H 2.0526 0.1913 0.1106
N2A N 0.8382(3) 0.60389(19) -0.24839(15)
O7A O 1.0691(3) 0.4052(2) -0.13841(15)
C6A C 0.9137(3) 0.5356(2) -0.13440(19)
C8A C 0.9930(3) 0.5493(3) -0.1891(2)
H7A H 1.0728 0.5348 -0.1893
C11A C 0.9570(3) 0.5133(2) -0.06712(19)
C16A C 0.9218(3) 0.5591(2) 0.0027(2)
H11A H 0.8684 0.5996 0.0048
C18A C 0.7912(3) 0.5518(3) -0.1418(2)
H12A H 0.7314 0.5402 -0.1085
C26A C 0.7589(3) 0.5848(3) -0.19832(19)
H18A H 0.6763 0.5945 -0.2018
C32A C 0.9542(3) 0.5844(3) -0.2435(2)
H22A H 1.0111 0.5950 -0.2784
C34A C 1.0378(4) 0.4524(3) -0.0693(2)
C53A C 1.1384(7) 0.3361(4) -0.1420(3)
H47A H 1.2264 0.3706 -0.1131
H48A H 1.0921 0.2885 -0.1196
C58A C 0.9931(10) 0.1097(7) -0.2395(5)
H57A H 0.9417 0.0548 -0.2833
H58A H 1.0695 0.0951 -0.2231
H59A H 0.9401 0.1202 -0.1991
C59A C 1.0389(10) 0.2064(7) -0.2607(6)
H60A H 0.9645 0.2325 -0.2588
H61A H 1.0540 0.1856 -0.3134
C60A C 1.1486(9) 0.2848(6) -0.2197(4)
H62A H 1.2239 0.2600 -0.2203
H63A H 1.1671 0.3326 -0.2457
N3A N 1.7187(3) -0.2574(2) 0.59752(16)
C14A C 1.5605(4) -0.0624(2) 0.52103(19)
O9A O 1.7627(3) 0.0137(2) 0.48660(19)
C27A C 1.5446(4) -0.2281(3) 0.5325(2)
H19A H 1.4589 -0.2535 0.5062
C30A C 1.4283(4) -0.0701(3) 0.5266(2)
H20A H 1.3792 -0.1177 0.5450
C31A C 1.5972(4) -0.2879(3) 0.5590(2)
H21A H 1.5451 -0.3531 0.5495
C39A C 1.6345(4) 0.0101(3) 0.4941(2)
C42A C 1.7916(4) -0.1635(3) 0.6084(2)
H32A H 1.8775 -0.1407 0.6341
C43A C 1.6185(4) -0.1302(3) 0.54470(19)
C47A C 1.8497(5) 0.0906(4) 0.4660(3)
H39A H 1.9281 0.0723 0.4511
H40A H 1.8055 0.0976 0.4228
C51A C 1.7465(4) -0.0992(3) 0.5838(2)
H45A H 1.8015 -0.0349 0.5932
C54A C 1.8893(8) 0.1869(6) 0.5308(5)
H49A H 1.8861 0.1712 0.5771
H50A H 1.8207 0.2177 0.5285
C55A C 2.0175(8) 0.2639(6) 0.5407(5)
H51A H 2.0303 0.2724 0.4921
H52A H 2.0877 0.2400 0.5544
C57A C 2.0316(7) 0.3591(5) 0.5966(4)
H54A H 2.1174 0.4041 0.5986
H55A H 1.9641 0.3847 0.5832
H56A H 2.0229 0.3526 0.6455
Co1A Co 0.78068(4) 0.66423(3) -0.33319(2)
O1A O 0.9763(2) 0.76591(17) -0.30581(13)
O2A O 1.5937(2) 1.55696(17) -0.36405(13)
O3A O 0.8426(2) 0.56362(17) -0.41791(13)
H1A H 0.8299 0.5724 -0.4598
H2A H 0.9247 0.5731 -0.4063
O4A O 1.3904(2) 1.50996(18) -0.33502(14)
O6A O 1.0930(2) 0.67519(18) -0.37507(15)
O8A O 1.6744(3) 1.4298(2) 0.19561(15)
H3A H 1.6586 1.4623 0.2389
N4A N 1.5751(3) 1.1723(2) -0.21699(17)
C3A C 1.5000(3) 1.4953(2) -0.34945(18)
C5A C 1.2081(3) 0.8401(2) -0.29490(19)
C7A C 1.6643(4) 1.3046(3) -0.33814(19)
H6A H 1.7476 1.2959 -0.3411
C10A C 1.5211(3) 1.4013(2) -0.34570(18)
C12A C 1.3301(3) 0.8281(3) -0.3104(2)
H9A H 1.3344 0.7663 -0.3410
C17A C 1.6178(4) 1.3856(3) 0.0629(2)
C19A C 1.0836(3) 0.7537(2) -0.32806(19)
C20A C 1.6417(3) 1.3850(2) -0.35146(19)
H13A H 1.7097 1.4288 -0.3646
C21A C 1.5617(4) 1.3454(3) -0.0715(2)
H14A H 1.5097 1.3480 -0.1115
C22A C 1.5635(4) 1.2367(2) -0.32036(19)
C24A C 1.5872(4) 1.1543(3) -0.2978(2)
H16A H 1.6752 1.1503 -0.3067
H17A H 1.5232 1.0913 -0.3288
C25A C 1.4439(4) 0.9994(3) -0.2339(2)
C28A C 1.6576(4) 1.2979(3) -0.0877(2)
C29A C 1.5995(4) 1.4392(3) 0.1417(2)
O10A O 1.5228(3) 1.4866(3) 0.15519(17)
C36A C 1.7107(4) 1.3356(3) 0.0476(2)
H26A H 1.7605 1.3308 0.0873
C37A C 1.5694(4) 1.0835(3) -0.1982(2)
H27A H 1.6443 1.0612 -0.2150
H28A H 1.5776 1.1011 -0.1434
C38A C 1.7301(4) 1.2922(3) -0.0273(2)
H29A H 1.7930 1.2588 -0.0369
C40A C 1.2062(4) 0.9332(3) -0.2486(2)
H30A H 1.1254 0.9432 -0.2375
C45A C 1.6860(4) 1.2575(3) -0.1682(2)
H36A H 1.7650 1.2371 -0.1672
H37A H 1.7034 1.3099 -0.1897
C46A C 1.4172(4) 1.3301(3) -0.3323(2)
H38A H 1.3330 1.3374 -0.3315
C48A C 1.3219(4) 1.0115(3) -0.2185(2)
H41A H 1.3178 1.0732 -0.1875
C50A C 1.4464(4) 0.9074(3) -0.2808(2)
H44A H 1.5271 0.8982 -0.2928
C52A C 1.4387(4) 1.2493(3) -0.3203(2)
H46A H 1.3684 1.2022 -0.3119
C56A C 1.5413(4) 1.3885(3) 0.0018(2)
H53A H 1.4762 1.4199 0.0109
Co1_2 Co 0.21932(4) -0.66423(3) 0.33319(2)
Co1A_2 Co 1.78068(4) -0.33577(3) -0.33319(2)
Co1A_3 Co 1.78068(4) -0.33577(3) 0.66681(2)
Co1A_4 Co 1.78068(4) 1.66423(3) -0.33319(2)
O2_2 O 1.4063(2) 0.44304(17) 0.36405(13)
O2A_2 O 0.5937(2) 0.55696(17) -0.36405(13)
N1A_2 N 0.7104(3) 0.7675(2) -0.24392(15)
N3A_2 N 0.7187(3) 0.7426(2) -0.40248(16)
O11 O 0.2714(3) 0.5703(2) 0.55795(14)
H64 H 0.2528 0.5669 0.6008
H65 H 0.2780 0.6282 0.5577
loop_
_geom_bond_atom_site_label_1
_geom_bond_atom_site_label_2
_geom_bond_site_symmetry_1
_geom_bond_site_symmetry_2
Co1 O1 1_555 1_555
O1 C19 1_555 1_555
O2 C3 1_555 1_555
O3 Co1 1_555 1_555
H1 O3 1_555 1_555
H2 O3 1_555 1_555
O4 C3 1_555 1_555
N1 Co1 1_555 1_555
C1 O5 1_555 1_555
O5 C33 1_555 1_555
N2 Co1 1_555 1_555
N3 Co1 1_555 1_555
O6 C19 1_555 1_555
O7 C34 1_555 1_555
O8 H3 1_555 1_555
C2 H4 1_555 1_555
H5 C2 1_555 1_555
N4 C24 1_555 1_555
C3 C10 1_555 1_555
C4 C9 1_555 1_555
C5 C12 1_555 1_555
C6 C8 1_555 1_555
C7 H6 1_555 1_555
C8 H7 1_555 1_555
C9 H8 1_555 1_555
C10 C20 1_555 1_555
C11 C6 1_555 1_555
C12 H9 1_555 1_555
C13 C1 1_555 1_555
C14 C30 1_555 1_555
O9 C39 1_555 1_555
C15 N1 1_555 1_555
H10 C15 1_555 1_555
C16 C11 1_555 1_555
H11 C16 1_555 1_555
C17 C29 1_555 1_555
C18 C6 1_555 1_555
H12 C18 1_555 1_555
C19 C5 1_555 1_555
C20 C7 1_555 1_555
H13 C20 1_555 1_555
C21 H14 1_555 1_555
C22 C7 1_555 1_555
C23 N1 1_555 1_555
H15 C23 1_555 1_555
C24 C22 1_555 1_555
H16 C24 1_555 1_555
H17 C24 1_555 1_555
C25 C37 1_555 1_555
C26 N2 1_555 1_555
H18 C26 1_555 1_555
C27 H19 1_555 1_555
C28 C21 1_555 1_555
C29 O8 1_555 1_555
C30 H20 1_555 1_555
C31 N3 1_555 1_555
H21 C31 1_555 1_555
C32 N2 1_555 1_555
H22 C32 1_555 1_555
C33 H23 1_555 1_555
H24 C33 1_555 1_555
C34 C11 1_555 1_555
C35 C4 1_555 1_555
H25 C35 1_555 1_555
O10 C29 1_555 1_555
C36 C17 1_555 1_555
H26 C36 1_555 1_555
C37 N4 1_555 1_555
H27 C37 1_555 1_555
H28 C37 1_555 1_555
C38 C28 1_555 1_555
H29 C38 1_555 1_555
C39 C14 1_555 1_555
C40 C5 1_555 1_555
H30 C40 1_555 1_555
C41 C13 1_555 1_555
H31 C41 1_555 1_555
C42 N3 1_555 1_555
H32 C42 1_555 1_555
C43 C14 1_555 1_555
C44 C2 1_555 1_555
H33 C44 1_555 1_555
H34 C44 1_555 1_555
H35 C44 1_555 1_555
C45 N4 1_555 1_555
H36 C45 1_555 1_555
H37 C45 1_555 1_555
C46 C10 1_555 1_555
H38 C46 1_555 1_555
C47 O9 1_555 1_555
H39 C47 1_555 1_555
H40 C47 1_555 1_555
C48 C25 1_555 1_555
H41 C48 1_555 1_555
C49 C2 1_555 1_555
H42 C49 1_555 1_555
H43 C49 1_555 1_555
C50 C12 1_555 1_555
H44 C50 1_555 1_555
C51 C42 1_555 1_555
H45 C51 1_555 1_555
C52 C22 1_555 1_555
H46 C52 1_555 1_555
C53 O7 1_555 1_555
H47 C53 1_555 1_555
H48 C53 1_555 1_555
C54 C47 1_555 1_555
H49 C54 1_555 1_555
H50 C54 1_555 1_555
C55 C54 1_555 1_555
H51 C55 1_555 1_555
H52 C55 1_555 1_555
C56 C17 1_555 1_555
H53 C56 1_555 1_555
C57 C55 1_555 1_555
H54 C57 1_555 1_555
H55 C57 1_555 1_555
H56 C57 1_555 1_555
C58 H57 1_555 1_555
H58 C58 1_555 1_555
H59 C58 1_555 1_555
C59 C58 1_555 1_555
H60 C59 1_555 1_555
H61 C59 1_555 1_555
C60 C53 1_555 1_555
H62 C60 1_555 1_555
H63 C60 1_555 1_555
O11 H64 1_555 1_555
H65 O11 1_555 1_555
N1A C15A 1_555 1_555
C1A C41 1_555 1_555
O5A C1A 1_555 1_555
C2A H4A 1_555 1_555
H5A C2A 1_555 1_555
C4A C9A 1_555 1_555
C9A H8A 1_555 1_555
C13A C1A 1_555 1_555
C15A C9A 1_555 1_555
H10A C15A 1_555 1_555
C23A N1A 1_555 1_555
H15A C23A 1_555 1_555
C33A O5A 1_555 1_555
H23A C33A 1_555 1_555
H24A C33A 1_555 1_555
C35A C4A 1_555 1_555
H25A C35A 1_555 1_555
C41A C1 1_555 1_555
H31A C41A 1_555 1_555
C44A C2A 1_555 1_555
H33A C44A 1_555 1_555
H34A C44A 1_555 1_555
H35A C44A 1_555 1_555
C49A C2A 1_555 1_555
H42A C49A 1_555 1_555
H43A C49A 1_555 1_555
N2A C26A 1_555 1_555
O7A C34A 1_555 1_555
C6A C8A 1_555 1_555
C8A H7A 1_555 1_555
C11A C6A 1_555 1_555
C16A C34 1_555 1_555
H11A C16A 1_555 1_555
C18A C6A 1_555 1_555
H12A C18A 1_555 1_555
C26A C18A 1_555 1_555
H18A C26A 1_555 1_555
C32A N2A 1_555 1_555
H22A C32A 1_555 1_555
C34A C16 1_555 1_555
C53A O7A 1_555 1_555
H47A C53A 1_555 1_555
H48A C53A 1_555 1_555
C58A H57A 1_555 1_555
H58A C58A 1_555 1_555
H59A C58A 1_555 1_555
C59A C58A 1_555 1_555
H60A C59A 1_555 1_555
H61A C59A 1_555 1_555
C60A C53A 1_555 1_555
H62A C60A 1_555 1_555
H63A C60A 1_555 1_555
N3A C31A 1_555 1_555
C14A C30A 1_555 1_555
O9A C39A 1_555 1_555
C27A H19A 1_555 1_555
C30A C39 1_555 1_555
H20A C30A 1_555 1_555
C31A C27A 1_555 1_555
H21A C31A 1_555 1_555
C39A C30 1_555 1_555
C42A N3A 1_555 1_555
H32A C42A 1_555 1_555
C43A C14A 1_555 1_555
C47A O9A 1_555 1_555
H39A C47A 1_555 1_555
H40A C47A 1_555 1_555
C51A C42A 1_555 1_555
H45A C51A 1_555 1_555
C54A C47A 1_555 1_555
H49A C54A 1_555 1_555
H50A C54A 1_555 1_555
C55A C54A 1_555 1_555
H51A C55A 1_555 1_555
H52A C55A 1_555 1_555
C57A C55A 1_555 1_555
H54A C57A 1_555 1_555
H55A C57A 1_555 1_555
H56A C57A 1_555 1_555
Co1A N2A 1_555 1_555
O1A Co1A 1_555 1_555
O2A C3A 1_555 1_555
O3A Co1A 1_555 1_555
H1A O3A 1_555 1_555
H2A O3A 1_555 1_555
O4A C3A 1_555 1_555
O6A C19A 1_555 1_555
O8A H3A 1_555 1_555
N4A C24A 1_555 1_555
C3A C10A 1_555 1_555
C5A C12A 1_555 1_555
C7A H6A 1_555 1_555
C10A C20A 1_555 1_555
C12A H9A 1_555 1_555
C17A C29A 1_555 1_555
C19A O1A 1_555 1_555
C20A C7A 1_555 1_555
H13A C20A 1_555 1_555
C21A H14A 1_555 1_555
C22A C7A 1_555 1_555
C24A C22A 1_555 1_555
H16A C24A 1_555 1_555
H17A C24A 1_555 1_555
C25A C37A 1_555 1_555
C28A C21A 1_555 1_555
C29A O8A 1_555 1_555
O10A C29A 1_555 1_555
C36A C17A 1_555 1_555
H26A C36A 1_555 1_555
C37A N4A 1_555 1_555
H27A C37A 1_555 1_555
H28A C37A 1_555 1_555
C38A C28A 1_555 1_555
H29A C38A 1_555 1_555
C40A C5A 1_555 1_555
H30A C40A 1_555 1_555
C45A N4A 1_555 1_555
H36A C45A 1_555 1_555
H37A C45A 1_555 1_555
C46A C10A 1_555 1_555
H38A C46A 1_555 1_555
C48A C25A 1_555 1_555
H41A C48A 1_555 1_555
C50A C12A 1_555 1_555
H44A C50A 1_555 1_555
C52A C22A 1_555 1_555
H46A C52A 1_555 1_555
C56A C17A 1_555 1_555
H53A C56A 1_555 1_555
Co1_2 O2 1_555 1_555
Co1A_2 N1A 1_555 1_555
Co1A_3 N3A 1_555 1_555
Co1A_4 O2A 1_555 1_555
O2_2 Co1 1_555 1_555
O2A_2 Co1A 1_555 1_555
N1A_2 Co1A 1_555 1_555
N3A_2 Co1A 1_555 1_555
C4 C13 1_555 1_555
C8 C32 1_555 1_555
C9 C15 1_555 1_555
C18 C26 1_555 1_555
C21 C56 1_555 1_555
C23 C35 1_555 1_555
C25 C50 1_555 1_555
C27 C31 1_555 1_555
C27 C43 1_555 1_555
C28 C45 1_555 1_555
C33 C49 1_555 1_555
C36 C38 1_555 1_555
C40 C48 1_555 1_555
C43 C51 1_555 1_555
C46 C52 1_555 1_555
C59 C60 1_555 1_555
C4A C13A 1_555 1_555
C13A C41A 1_555 1_555
C23A C35A 1_555 1_555
C33A C49A 1_555 1_555
C8A C32A 1_555 1_555
C11A C16A 1_555 1_555
C11A C34A 1_555 1_555
C59A C60A 1_555 1_555
C14A C39A 1_555 1_555
C27A C43A 1_555 1_555
C43A C51A 1_555 1_555
C5A C19A 1_555 1_555
C21A C56A 1_555 1_555
C25A C50A 1_555 1_555
C28A C45A 1_555 1_555
C36A C38A 1_555 1_555
C40A C48A 1_555 1_555
C46A C52A 1_555 1_555

#END
