
#######################################################################
#
#                 Cambridge Crystallographic Data Centre
#                                CCDC 
#
#######################################################################
#
# If this CIF has been generated from an entry in the Cambridge 
# Structural Database, then it will include bibliographic, chemical, 
# crystal, experimental, refinement or atomic coordinate data resulting 
# from the CCDC's data processing and validation procedures.
#
#######################################################################

data_GUFRAB
_symmetry_cell_setting           triclinic
_symmetry_space_group_name_H-M   'P -1'
_symmetry_Int_Tables_number      2
_space_group_name_Hall           '-P 1'
loop_
_symmetry_equiv_pos_site_id
_symmetry_equiv_pos_as_xyz
1 x,y,z
2 -x,-y,-z
_cell_length_a                   7.991(4)
_cell_length_b                   11.514(5)
_cell_length_c                   12.075(5)
_cell_angle_alpha                107.352(6)
_cell_angle_beta                 97.505(6)
_cell_angle_gamma                108.925(6)
_cell_volume                     970.798
loop_
_atom_site_label
_atom_site_type_symbol
_atom_site_fract_x
_atom_site_fract_y
_atom_site_fract_z
Cd1 Cd 0.064125(18) 0.180749(13) 0.754514(12)
O1 O 0.2963(2) 0.12355(16) 0.85076(14)
O2 O 0.2209(2) 0.04690(16) 0.65341(14)
O3 O -0.0410(2) -0.27845(17) 1.04856(14)
O4 O 0.1590(2) -0.27756(19) 1.19118(15)
O5 O -0.1211(2) 0.14170(17) 0.56708(14)
H1 H -0.145(3) 0.083(2) 0.4982(14)
H2 H -0.214(3) 0.159(3) 0.577(2)
N1 N 0.2775(2) 0.36493(17) 0.74385(16)
N2 N 0.8675(2) 0.97680(17) 0.74761(16)
C1 C 0.2974(3) 0.0475(2) 0.7531(2)
C2 C 0.3879(3) -0.0505(2) 0.7515(2)
H5 H 0.4242 -0.0744 0.6770
H6 H 0.4971 -0.0095 0.8171
C3 C 0.2593(3) -0.1738(2) 0.7634(2)
C4 C 0.2867(3) -0.1986(2) 0.8687(2)
H7 H 0.3841 -0.1377 0.9331
C5 C 0.1721(3) -0.3122(2) 0.88018(19)
C6 C 0.0255(3) -0.4017(2) 0.7846(2)
H8 H -0.0530 -0.4778 0.7911
C7 C -0.0042(4) -0.3776(3) 0.6793(2)
H9 H -0.1030 -0.4376 0.6155
C8 C 0.1124(4) -0.2649(3) 0.6688(2)
H10 H 0.0920 -0.2502 0.5975
C9 C 0.2088(3) -0.3376(2) 0.9951(2)
H11 H 0.3381 -0.2915 1.0343
H12 H 0.1803 -0.4311 0.9751
C10 C 0.1012(3) -0.2952(2) 1.08313(19)
C11 C 0.2458(3) 0.4104(2) 0.6569(2)
H13 H 0.1388 0.3617 0.5960
C12 C 0.3638(3) 0.5259(2) 0.6531(2)
H14 H 0.3365 0.5529 0.5900
C13 C 0.5233(3) 0.6020(2) 0.74317(19)
C14 C 0.5586(3) 0.5538(2) 0.8329(2)
H15 H 0.6651 0.6002 0.8944
C15 C 0.4339(3) 0.4368(2) 0.8295(2)
H16 H 0.4595 0.4059 0.8900
C16 C 0.6461(3) 0.7305(2) 0.74496(19)
C17 C 0.6576(3) 0.7546(2) 0.63899(19)
H17 H 0.5902 0.6888 0.5653
C18 C 0.7700(3) 0.8771(2) 0.6446(2)
H18 H 0.7783 0.8909 0.5731
C19 C 0.8557(3) 0.9544(2) 0.8497(2)
H19 H 0.9223 1.0229 0.9221
C20 C 0.7492(3) 0.8343(2) 0.8524(2)
H20 H 0.7462 0.8227 0.9253
Cd1A Cd -0.064125(18) -0.180749(13) 1.245486(12)
Cd1_2 Cd 1.064125(18) 1.180749(13) 0.754514(12)
O3A O 0.0410(2) 0.27845(17) 0.95144(14)
O4A O -0.1590(2) 0.27756(19) 0.80882(15)
N2_2 N -0.1325(2) -0.02320(17) 0.74761(16)
O6 O 0.5797(3) 0.2218(3) 0.6107(2)
H3 H 0.644(4) 0.251(4) 0.6820(15)
H4 H 0.4689(19) 0.180(4) 0.608(3)
loop_
_geom_bond_atom_site_label_1
_geom_bond_atom_site_label_2
_geom_bond_site_symmetry_1
_geom_bond_site_symmetry_2
Cd1 O1 1_555 1_555
O1 C1 1_555 1_555
O2 Cd1 1_555 1_555
O3 C10 1_555 1_555
O4 C10 1_555 1_555
O5 Cd1 1_555 1_555
H1 O5 1_555 1_555
H2 O5 1_555 1_555
O6 H3 1_555 1_555
H4 O6 1_555 1_555
N1 Cd1 1_555 1_555
N2 C18 1_555 1_555
C1 O2 1_555 1_555
C2 C1 1_555 1_555
H5 C2 1_555 1_555
H6 C2 1_555 1_555
C3 C2 1_555 1_555
C4 C3 1_555 1_555
H7 C4 1_555 1_555
C5 C4 1_555 1_555
C6 C5 1_555 1_555
H8 C6 1_555 1_555
C7 C6 1_555 1_555
H9 C7 1_555 1_555
C8 C3 1_555 1_555
H10 C8 1_555 1_555
C9 C5 1_555 1_555
H11 C9 1_555 1_555
H12 C9 1_555 1_555
C10 C9 1_555 1_555
C11 N1 1_555 1_555
H13 C11 1_555 1_555
C12 C11 1_555 1_555
H14 C12 1_555 1_555
C13 C12 1_555 1_555
C14 C13 1_555 1_555
H15 C14 1_555 1_555
C15 N1 1_555 1_555
H16 C15 1_555 1_555
C16 C13 1_555 1_555
C17 C16 1_555 1_555
H17 C17 1_555 1_555
C18 C17 1_555 1_555
H18 C18 1_555 1_555
C19 N2 1_555 1_555
H19 C19 1_555 1_555
C20 C16 1_555 1_555
H20 C20 1_555 1_555
Cd1A O3 1_555 1_555
Cd1_2 N2 1_555 1_555
O3A Cd1 1_555 1_555
O4A Cd1 1_555 1_555
N2_2 Cd1 1_555 1_555
O4 Cd1A 1_555 1_555
C7 C8 1_555 1_555
C14 C15 1_555 1_555
C19 C20 1_555 1_555

#END
