
#######################################################################
#
#                 Cambridge Crystallographic Data Centre
#                                CCDC 
#
#######################################################################
#
# If this CIF has been generated from an entry in the Cambridge 
# Structural Database, then it will include bibliographic, chemical, 
# crystal, experimental, refinement or atomic coordinate data resulting 
# from the CCDC's data processing and validation procedures.
#
#######################################################################

data_GUFVOU
_symmetry_cell_setting           triclinic
_symmetry_space_group_name_H-M   'P -1'
_symmetry_Int_Tables_number      2
_space_group_name_Hall           '-P 1'
loop_
_symmetry_equiv_pos_site_id
_symmetry_equiv_pos_as_xyz
1 x,y,z
2 -x,-y,-z
_cell_length_a                   9.6873(4)
_cell_length_b                   10.9691(5)
_cell_length_c                   14.6472(6)
_cell_angle_alpha                71.0490(10)
_cell_angle_beta                 86.4130(10)
_cell_angle_gamma                69.0450(10)
_cell_volume                     1372.17
loop_
_atom_site_label
_atom_site_type_symbol
_atom_site_fract_x
_atom_site_fract_y
_atom_site_fract_z
Cl2 Cl 0.6049(7) 0.6012(11) 0.0871(6)
O5 O 0.6457(16) 0.5193(14) 0.0228(9)
O6 O 0.7057(14) 0.6728(16) 0.0780(10)
O7 O 0.4569(10) 0.6965(12) 0.0618(12)
O8 O 0.6193(15) 0.5092(14) 0.1859(7)
Cl3 Cl 0.7310(6) 0.2931(5) 0.4669(4)
O13 O 0.7390(5) 0.2452(4) 0.5757(3)
O14 O 0.5874(6) 0.3223(6) 0.4351(4)
O15 O 0.7896(9) 0.3962(7) 0.4341(4)
O16 O 0.8260(7) 0.1722(6) 0.4425(4)
C1 C 0.9759(4) 0.6280(4) 0.3966(2)
H2 H 1.0598 0.6120 0.4352
C2 C 0.8458(4) 0.6358(3) 0.2832(2)
H3 H 0.8141 0.6279 0.2260
C3 C 0.5955(4) 0.7494(4) 0.3375(3)
H4 H 0.5582 0.7180 0.4021
H5 H 0.5549 0.7176 0.2930
C4 C 0.4601(3) 1.1930(3) 0.2320(2)
C5 C 0.5251(4) 1.1184(4) 0.3249(3)
H6 H 0.5414 1.1653 0.3651
C6 C 0.5660(4) 0.9771(4) 0.3590(3)
H7 H 0.6104 0.9273 0.4226
C7 C 0.5431(4) 0.9056(3) 0.3013(3)
C8 C 0.4759(4) 0.9813(4) 0.2095(2)
H8 H 0.4584 0.9348 0.1694
C9 C 0.4337(4) 1.1237(4) 0.1752(3)
H9 H 0.3865 1.1740 0.1124
C10 C 1.0716(4) 0.3709(3) 0.0952(2)
H10 H 1.1308 0.4086 0.0487
C11 C 0.9701(4) 0.3142(3) 0.2259(2)
H11 H 0.9397 0.3013 0.2902
C12 C 0.8357(4) 0.1849(4) 0.1757(3)
H12 H 0.7479 0.2356 0.1295
H13 H 0.8005 0.1669 0.2420
C13 C 1.0816(3) -0.1998(3) 0.1263(2)
C14 C 1.1491(4) -0.1458(3) 0.1761(2)
H14 H 1.2501 -0.1930 0.1988
C15 C 1.0688(4) -0.0226(4) 0.1926(3)
H15 H 1.1155 0.0130 0.2274
C16 C 0.9220(4) 0.0494(3) 0.1595(2)
C17 C 0.8548(4) -0.0055(3) 0.1105(2)
H16 H 0.7540 0.0423 0.0874
C18 C 0.9332(4) -0.1296(4) 0.0946(2)
H17 H 0.8852 -0.1668 0.0620
Cd1 Cd 1.19291(2) 0.47422(2) 0.250616(15)
N1 N 0.7574(3) 0.6888(3) 0.34372(19)
N2 N 0.8399(3) 0.6838(3) 0.4181(2)
N3 N 0.9867(3) 0.5950(3) 0.31465(19)
N4 N 0.4184(3) 1.3411(3) 0.1972(2)
H18 H 0.4108 1.3697 0.1307
H19 H 0.4943 1.3622 0.2149
N5 N 0.9279(3) 0.2696(3) 0.16271(19)
N6 N 0.9912(3) 0.3050(3) 0.07768(18)
N7 N 1.0617(3) 0.3797(3) 0.18566(19)
N8 N 1.1637(3) -0.3289(3) 0.11108(18)
H20 H 1.2559 -0.3289 0.0918
H21 H 1.1161 -0.3361 0.0617
O18 O 1.2322(3) 0.2939(3) 0.39457(17)
H22 H 1.219(5) 0.304(4) 0.4481(18)
H23 H 1.211(5) 0.230(3) 0.396(3)
O19 O 1.3419(3) 0.5438(3) 0.3293(2)
H24 H 1.427(3) 0.499(4) 0.348(3)
H25 H 1.304(4) 0.591(4) 0.364(3)
Cd1_2 Cd 0.19291(2) 1.47422(2) 0.250616(15)
Cd1_3 Cd 1.19291(2) -0.52578(2) 0.250616(15)
N4_2 N 1.4184(3) 0.3411(3) 0.1972(2)
N8_2 N 1.1637(3) 0.6711(3) 0.11108(18)
O20 O 0.1783(4) 0.0629(4) 0.4008(3)
Cl1? Cl 0.5940(16) 0.6257(18) 0.0763(11)
O1? O 0.671(2) 0.532(2) 0.0246(17)
O2? O 0.678(2) 0.708(2) 0.0800(18)
O3? O 0.572(3) 0.549(2) 0.1729(12)
O4? O 0.4517(16) 0.715(2) 0.0267(18)
S1? S 0.7252(13) 0.3162(11) 0.4672(11)
O9? O 0.6604(11) 0.2210(9) 0.5173(7)
O10? O 0.6595(9) 0.3578(10) 0.3610(6)
H1? H 0.6595 0.4178 0.3110
O11? O 0.6846(11) 0.4381(8) 0.4842(6)
O12? O 0.8765(8) 0.2570(10) 0.4540(5)
O17? O 0.9229(18) -0.0003(17) 0.3875(11)
loop_
_geom_bond_atom_site_label_1
_geom_bond_atom_site_label_2
_geom_bond_site_symmetry_1
_geom_bond_site_symmetry_2
Cl2 O5 1_555 1_555
O6 Cl2 1_555 1_555
O7 Cl2 1_555 1_555
O8 Cl2 1_555 1_555
Cl3 O13 1_555 1_555
O14 Cl3 1_555 1_555
O15 Cl3 1_555 1_555
O16 Cl3 1_555 1_555
C1 H2 1_555 1_555
C2 H3 1_555 1_555
C3 H4 1_555 1_555
H5 C3 1_555 1_555
C4 C5 1_555 1_555
C5 H6 1_555 1_555
C6 C5 1_555 1_555
H7 C6 1_555 1_555
C7 C3 1_555 1_555
C8 C7 1_555 1_555
H8 C8 1_555 1_555
C9 C4 1_555 1_555
H9 C9 1_555 1_555
C10 H10 1_555 1_555
C11 H11 1_555 1_555
C12 H12 1_555 1_555
H13 C12 1_555 1_555
C13 C14 1_555 1_555
C14 H14 1_555 1_555
C15 C14 1_555 1_555
H15 C15 1_555 1_555
C16 C12 1_555 1_555
C17 C16 1_555 1_555
H16 C17 1_555 1_555
C18 C13 1_555 1_555
H17 C18 1_555 1_555
Cd1 N3 1_555 1_555
N1 C2 1_555 1_555
N2 C1 1_555 1_555
N3 C1 1_555 1_555
N4 C4 1_555 1_555
H18 N4 1_555 1_555
H19 N4 1_555 1_555
N5 C11 1_555 1_555
N6 C10 1_555 1_555
N7 C10 1_555 1_555
N8 C13 1_555 1_555
H20 N8 1_555 1_555
H21 N8 1_555 1_555
O18 Cd1 1_555 1_555
H22 O18 1_555 1_555
H23 O18 1_555 1_555
O19 Cd1 1_555 1_555
H24 O19 1_555 1_555
H25 O19 1_555 1_555
Cd1_2 N4 1_555 1_555
Cd1_3 N8 1_555 1_555
N4_2 Cd1 1_555 1_555
N8_2 Cd1 1_555 1_555
C2 N3 1_555 1_555
C3 N1 1_555 1_555
C6 C7 1_555 1_555
C8 C9 1_555 1_555
C11 N7 1_555 1_555
C12 N5 1_555 1_555
C15 C16 1_555 1_555
C17 C18 1_555 1_555
Cd1 N7 1_555 1_555
N1 N2 1_555 1_555
N5 N6 1_555 1_555

#END
