
#######################################################################
#
#                 Cambridge Crystallographic Data Centre
#                                CCDC 
#
#######################################################################
#
# If this CIF has been generated from an entry in the Cambridge 
# Structural Database, then it will include bibliographic, chemical, 
# crystal, experimental, refinement or atomic coordinate data resulting 
# from the CCDC's data processing and validation procedures.
#
#######################################################################

data_GUFWEL
_symmetry_cell_setting           monoclinic
_symmetry_space_group_name_H-M   'P 21/c'
_symmetry_Int_Tables_number      14
_space_group_name_Hall           '-P 2ybc'
loop_
_symmetry_equiv_pos_site_id
_symmetry_equiv_pos_as_xyz
1 x,y,z
2 -x,1/2+y,1/2-z
3 -x,-y,-z
4 x,1/2-y,1/2+z
_cell_length_a                   23.4183(7)
_cell_length_b                   12.9661(3)
_cell_length_c                   22.7238(7)
_cell_angle_alpha                90
_cell_angle_beta                 109.508(2)
_cell_angle_gamma                90
_cell_volume                     6503.85
loop_
_atom_site_label
_atom_site_type_symbol
_atom_site_fract_x
_atom_site_fract_y
_atom_site_fract_z
W1 W -0.35447(3) 0.46549(4) -0.21419(3)
W2 W -0.17559(3) 0.70249(5) -0.16046(3)
W3 W -0.20584(3) 0.42787(5) -0.13670(3)
W4 W -0.32781(3) 0.38808(4) -0.41795(3)
W5 W -0.27852(3) 0.27710(4) -0.25822(3)
W6 W -0.40370(3) 0.57558(4) -0.37427(3)
W7 W -0.32353(3) 0.73842(4) -0.23860(3)
W8 W -0.16555(3) 0.34408(4) -0.33283(3)
W9 W -0.09247(3) 0.49551(4) -0.21045(3)
W10 W -0.29974(3) 0.63429(4) -0.44088(3)
W11 W -0.22107(3) 0.80084(4) -0.30557(3)
W12 W -0.13742(3) 0.59239(4) -0.35521(3)
Cu1 Cu -0.03892(8) -0.18324(14) -0.37489(9)
Cu2 Cu -0.42289(8) 0.00401(13) -0.57455(9)
Cu3 Cu -0.34877(8) 0.22103(13) -0.56986(9)
Si1 Si -0.24841(15) 0.5373(2) -0.28689(16)
O1 O -0.1402(5) 0.2394(8) -0.3605(5)
O2 O -0.4159(4) 0.1469(7) -0.5607(5)
O3 O -0.3710(4) 0.6866(7) -0.3171(5)
O4 O -0.0581(5) -0.1603(8) -0.2980(5)
O5 O -0.1970(5) 0.5744(8) -0.1342(5)
O6 O -0.3554(5) 0.2928(8) -0.4721(5)
O7 O -0.1710(6) 0.3943(8) -0.0617(5)
O8 O -0.2872(5) 0.4432(8) -0.1377(5)
O9 O -0.2898(5) 0.1498(8) -0.2594(6)
O10 O -0.1312(5) 0.7573(8) -0.0932(5)
O11 O -0.1698(5) 0.8038(7) -0.2195(5)
O12 O -0.3948(4) 0.4973(7) -0.3003(5)
O13 O -0.3011(4) 0.5349(6) -0.3553(4)
O14 O -0.3368(4) 0.6105(7) -0.2051(5)
O15 O -0.4015(5) 0.4487(7) -0.4181(5)
O16 O -0.3748(5) 0.8175(7) -0.2222(5)
O17 O -0.4794(4) 0.6033(8) -0.3991(5)
O18 O -0.1161(4) 0.6213(7) -0.1835(4)
O19 O -0.3196(4) 0.4960(8) -0.4715(5)
O20 O -0.1849(4) 0.5046(6) -0.2942(4)
O21 O -0.0209(4) 0.4790(8) -0.1586(5)
O22 O -0.3463(5) 0.3246(7) -0.2355(5)
O23 O -0.2043(5) 0.9182(7) -0.3284(5)
O24 O -0.3226(4) 0.3185(7) -0.3431(5)
O25 O -0.1397(5) 0.4303(7) -0.1680(5)
O26 O -0.2743(4) 0.7449(7) -0.3807(4)
O27 O -0.2424(4) 0.3665(7) -0.3949(4)
O28 O -0.4113(5) 0.4574(8) -0.1836(5)
O29 O -0.2428(4) 0.6530(7) -0.2579(4)
O30 O -0.3060(5) 0.6943(8) -0.5095(5)
O31 O -0.2155(4) 0.5977(7) -0.4142(4)
O32 O -0.2528(4) 0.7569(7) -0.1651(5)
O33 O -0.2877(5) 0.8364(7) -0.2805(5)
O34 O -0.3807(5) 0.6480(7) -0.4373(5)
O35 O -0.2278(5) 0.2934(7) -0.1721(5)
O36 O -0.1589(4) 0.7144(7) -0.3193(5)
O37 O -0.1322(4) 0.4512(7) -0.3734(5)
O38 O -0.0935(4) 0.6444(8) -0.3954(5)
O39 O -0.0760(4) 0.5692(7) -0.2761(4)
O40 O -0.2657(4) 0.4570(6) -0.2407(4)
O41 O -0.0981(4) 0.3734(7) -0.2600(5)
O42 O -0.2087(4) 0.2891(7) -0.2837(4)
O43 O -0.3354(4) -0.0255(8) -0.5405(5)
O44 O -0.2890(4) 0.1274(7) -0.5150(4)
N1 N -0.5119(6) 0.0100(9) -0.5868(7)
C1 C -0.5444(7) 0.0927(11) -0.5827(9)
H1 H -0.5248 0.1560 -0.5729
C2 C -0.6055(7) 0.0881(12) -0.5922(8)
H2 H -0.6267 0.1476 -0.5895
C3 C -0.6349(8) -0.0043(12) -0.6057(9)
H3 H -0.6763 -0.0092 -0.6126
C4 C -0.6014(7) -0.0897(13) -0.6088(10)
H4 H -0.6202 -0.1538 -0.6173
C5 C -0.5418(7) -0.0819(11) -0.5998(9)
C6 C -0.5029(7) -0.1674(11) -0.6061(8)
C7 C -0.5217(8) -0.2675(13) -0.6200(8)
H5 H -0.5620 -0.2848 -0.6272
C8 C -0.4796(9) -0.3454(13) -0.6234(11)
H6 H -0.4913 -0.4140 -0.6308
C9 C -0.4215(7) -0.3152(12) -0.6154(8)
H7 H -0.3931 -0.3630 -0.6187
C10 C -0.4053(7) -0.2131(11) -0.6025(8)
H8 H -0.3656 -0.1938 -0.5968
N2 N -0.4440(6) -0.1412(9) -0.5979(6)
N3 N -0.3995(5) 0.2983(9) -0.6431(6)
C11 C -0.4558(8) 0.2782(13) -0.6780(8)
H9 H -0.4742 0.2205 -0.6679
C12 C -0.4897(7) 0.3369(14) -0.7289(8)
H10 H -0.5298 0.3210 -0.7516
C13 C -0.4599(9) 0.4218(14) -0.7439(8)
H11 H -0.4809 0.4638 -0.7772
C14 C -0.4021(8) 0.4437(13) -0.7115(8)
H12 H -0.3821 0.4977 -0.7232
C15 C -0.3726(7) 0.3822(12) -0.6588(8)
C16 C -0.3093(6) 0.3985(11) -0.6137(7)
C17 C -0.2759(10) 0.4869(13) -0.6175(9)
H13 H -0.2908 0.5346 -0.6495
C18 C -0.2198(8) 0.5005(13) -0.5717(10)
H14 H -0.1968 0.5590 -0.5717
C19 C -0.1986(7) 0.4260(12) -0.5261(8)
H15 H -0.1618 0.4340 -0.4942
C20 C -0.2337(7) 0.3398(11) -0.5295(7)
H16 H -0.2187 0.2877 -0.5003
C21 C -0.0275(8) -0.1343(13) -0.4970(8)
H17 H -0.0608 -0.0915 -0.5029
C22 C -0.0010(9) -0.1402(15) -0.5450(9)
H18 H -0.0175 -0.1032 -0.5819
C23 C 0.0482(9) -0.2003(16) -0.5362(11)
H19 H 0.0672 -0.2048 -0.5661
C24 C 0.0697(8) -0.2562(14) -0.4797(9)
H20 H 0.1029 -0.2995 -0.4727
C25 C 0.0429(7) -0.2482(12) -0.4350(8)
C26 C 0.0620(7) -0.2997(11) -0.3748(8)
C27 C 0.1109(9) -0.3678(14) -0.3581(10)
H21 H 0.1334 -0.3784 -0.3844
C28 C 0.1250(10) -0.4187(17) -0.3025(10)
H22 H 0.1573 -0.4648 -0.2908
C29 C 0.0428(7) -0.3297(12) -0.2846(7)
H23 H 0.0190 -0.3160 -0.2600
C30 C -0.1308(7) -0.0188(11) -0.4098(8)
H24 H -0.1010 0.0167 -0.3789
C31 C -0.1848(7) 0.0301(11) -0.4382(7)
H25 H -0.1905 0.0979 -0.4280
C32 C -0.2302(6) -0.0223(10) -0.4818(7)
C33 C -0.2183(6) -0.1208(10) -0.4969(7)
H26 H -0.2477 -0.1579 -0.5273
C34 C -0.1618(7) -0.1644(12) -0.4665(8)
H27 H -0.1545 -0.2315 -0.4765
C35 C -0.2896(6) 0.0318(10) -0.5154(6)
N4 N -0.2876(5) 0.3270(9) -0.5722(6)
N5 N -0.0067(6) -0.1865(9) -0.4452(6)
N6 N 0.0303(5) -0.2815(9) -0.3385(6)
N7 N -0.1182(5) -0.1141(9) -0.4238(6)
C36 C 0.0907(9) -0.4016(13) -0.2627(9)
H28 H 0.0991 -0.4353 -0.2246
Cu1_2 Cu -0.03892(8) 0.81676(14) -0.37489(9)
Cu1A Cu 0.03892(8) 0.31676(14) -0.12511(9)
Cu2C Cu -0.42289(8) 0.49599(13) -0.07455(9)
O21A O 0.0209(4) -0.0210(8) -0.3414(5)
O28C O -0.4113(5) 0.0426(8) -0.6836(5)
O38_2 O -0.0935(4) -0.3556(8) -0.3954(5)
O45 O 0.0021(9) 0.360(2) -0.3243(8)
O46 O 0.0590(17) 1.068(3) 0.0122(18)
loop_
_geom_bond_atom_site_label_1
_geom_bond_atom_site_label_2
_geom_bond_site_symmetry_1
_geom_bond_site_symmetry_2
W1 O8 1_555 1_555
W2 O5 1_555 1_555
W3 O5 1_555 1_555
W4 O6 1_555 1_555
W5 O9 1_555 1_555
W6 O3 1_555 1_555
W7 O3 1_555 1_555
W8 O1 1_555 1_555
W9 O18 1_555 1_555
W10 O13 1_555 1_555
W11 O11 1_555 1_555
W12 O20 1_555 1_555
Cu1 O4 1_555 1_555
Cu2 O2 1_555 1_555
Cu3 O2 1_555 1_555
Si1 O13 1_555 1_555
O6 Cu3 1_555 1_555
O7 W3 1_555 1_555
O8 W3 1_555 1_555
O10 W2 1_555 1_555
O11 W2 1_555 1_555
O12 W1 1_555 1_555
O13 W4 1_555 1_555
O14 W1 1_555 1_555
O15 W4 1_555 1_555
O16 W7 1_555 1_555
O17 W6 1_555 1_555
O18 W2 1_555 1_555
O19 W4 1_555 1_555
O20 W8 1_555 1_555
O21 W9 1_555 1_555
O22 W1 1_555 1_555
O23 W11 1_555 1_555
O24 W4 1_555 1_555
O25 W3 1_555 1_555
O26 W10 1_555 1_555
O27 W4 1_555 1_555
O28 W1 1_555 1_555
O29 W2 1_555 1_555
O30 W10 1_555 1_555
O31 W10 1_555 1_555
O32 W2 1_555 1_555
O33 W7 1_555 1_555
O34 W6 1_555 1_555
O35 W3 1_555 1_555
O36 W11 1_555 1_555
O37 W8 1_555 1_555
O38 W12 1_555 1_555
O39 W9 1_555 1_555
O40 W1 1_555 1_555
O41 W8 1_555 1_555
O42 W5 1_555 1_555
O43 Cu2 1_555 1_555
O44 Cu3 1_555 1_555
N1 Cu2 1_555 1_555
C1 N1 1_555 1_555
H1 C1 1_555 1_555
C2 C1 1_555 1_555
H2 C2 1_555 1_555
C3 C2 1_555 1_555
H3 C3 1_555 1_555
C4 C3 1_555 1_555
H4 C4 1_555 1_555
C5 N1 1_555 1_555
C6 C5 1_555 1_555
C7 C6 1_555 1_555
H5 C7 1_555 1_555
C8 C7 1_555 1_555
H6 C8 1_555 1_555
C9 C8 1_555 1_555
H7 C9 1_555 1_555
C10 C9 1_555 1_555
H8 C10 1_555 1_555
N2 Cu2 1_555 1_555
N3 Cu3 1_555 1_555
C11 N3 1_555 1_555
H9 C11 1_555 1_555
C12 C11 1_555 1_555
H10 C12 1_555 1_555
C13 C12 1_555 1_555
H11 C13 1_555 1_555
C14 C13 1_555 1_555
H12 C14 1_555 1_555
C15 N3 1_555 1_555
C16 C15 1_555 1_555
C17 C16 1_555 1_555
H13 C17 1_555 1_555
C18 C17 1_555 1_555
H14 C18 1_555 1_555
C19 C18 1_555 1_555
H15 C19 1_555 1_555
C20 C19 1_555 1_555
H16 C20 1_555 1_555
C21 H17 1_555 1_555
C22 C21 1_555 1_555
H18 C22 1_555 1_555
C23 C22 1_555 1_555
H19 C23 1_555 1_555
C24 C23 1_555 1_555
H20 C24 1_555 1_555
C25 C24 1_555 1_555
C26 C25 1_555 1_555
C27 C26 1_555 1_555
H21 C27 1_555 1_555
C28 C27 1_555 1_555
H22 C28 1_555 1_555
C29 H23 1_555 1_555
C30 H24 1_555 1_555
C31 C30 1_555 1_555
H25 C31 1_555 1_555
C32 C31 1_555 1_555
C33 C32 1_555 1_555
H26 C33 1_555 1_555
C34 C33 1_555 1_555
H27 C34 1_555 1_555
C35 O43 1_555 1_555
N4 Cu3 1_555 1_555
N5 Cu1 1_555 1_555
N6 Cu1 1_555 1_555
N7 Cu1 1_555 1_555
C36 C28 1_555 1_555
H28 C36 1_555 1_555
Cu1_2 O38 1_555 1_555
Cu1A O21 1_555 1_555
Cu2C O28 1_555 1_555
O21A Cu1 1_555 1_555
O28C Cu2 1_555 1_555
O38_2 Cu1 1_555 1_555
W3 O40 1_555 1_555
W5 O22 1_555 1_555
W5 O24 1_555 1_555
W5 O35 1_555 1_555
W5 O40 1_555 1_555
W6 O12 1_555 1_555
W6 O13 1_555 1_555
W6 O15 1_555 1_555
W7 O14 1_555 1_555
W7 O29 1_555 1_555
W7 O32 1_555 1_555
W8 O27 1_555 1_555
W8 O42 1_555 1_555
W9 O20 1_555 1_555
W9 O25 1_555 1_555
W9 O41 1_555 1_555
W10 O19 1_555 1_555
W10 O34 1_555 1_555
W11 O26 1_555 1_555
W11 O29 1_555 1_555
W11 O33 1_555 1_555
W12 O31 1_555 1_555
W12 O36 1_555 1_555
W12 O37 1_555 1_555
W12 O39 1_555 1_555
Si1 O20 1_555 1_555
Si1 O29 1_555 1_555
Si1 O40 1_555 1_555
O44 C35 1_555 1_555
C4 C5 1_555 1_555
C6 N2 1_555 1_555
C10 N2 1_555 1_555
C14 C15 1_555 1_555
C16 N4 1_555 1_555
C20 N4 1_555 1_555
C21 N5 1_555 1_555
C25 N5 1_555 1_555
C26 N6 1_555 1_555
C29 N6 1_555 1_555
C29 C36 1_555 1_555
C30 N7 1_555 1_555
C32 C35 1_555 1_555
C34 N7 1_555 1_555

#END
