
#######################################################################
#
#                 Cambridge Crystallographic Data Centre
#                                CCDC 
#
#######################################################################
#
# If this CIF has been generated from an entry in the Cambridge 
# Structural Database, then it will include bibliographic, chemical, 
# crystal, experimental, refinement or atomic coordinate data resulting 
# from the CCDC's data processing and validation procedures.
#
#######################################################################

data_GUFYAJ
_symmetry_cell_setting           triclinic
_symmetry_space_group_name_H-M   'P -1'
_symmetry_Int_Tables_number      2
_space_group_name_Hall           '-P 1'
loop_
_symmetry_equiv_pos_site_id
_symmetry_equiv_pos_as_xyz
1 x,y,z
2 -x,-y,-z
_cell_length_a                   9.6128(5)
_cell_length_b                   10.5970(6)
_cell_length_c                   12.3183(7)
_cell_angle_alpha                78.8140(10)
_cell_angle_beta                 79.9040(10)
_cell_angle_gamma                85.3680(10)
_cell_volume                     1210.51
loop_
_atom_site_label
_atom_site_type_symbol
_atom_site_fract_x
_atom_site_fract_y
_atom_site_fract_z
Ag1 Ag 0.04607(3) 0.93197(3) 0.30677(2)
Ag2 Ag 1.0000 0.5000 0.0000
Ag3 Ag -0.5000 0.5000 0.5000
N1 N 0.6049(3) 0.4155(3) 0.1966(2)
N2 N 0.6586(3) 0.4493(3) 0.2820(2)
N3 N 0.8275(3) 0.4432(3) 0.1321(2)
N4 N 0.1118(3) 0.8634(3) 0.1271(2)
H1 H 0.0315 0.8497 0.1007
H2 H 0.1597 0.9271 0.0762
N5 N -0.6377(3) 0.8761(3) 0.3466(2)
N6 N -0.7661(3) 0.8214(3) 0.3706(2)
N7 N -0.5959(3) 0.6737(3) 0.4157(2)
N8 N -0.0560(3) 1.1337(3) 0.2758(2)
H3 H -0.0457 1.1773 0.3313
H4 H -0.0156 1.1793 0.2077
C1 C 0.7917(4) 0.4649(3) 0.2387(3)
H5 H 0.8580 0.4895 0.2786
C2 C 0.7063(3) 0.4131(3) 0.1087(3)
H6 H 0.6938 0.3929 0.0392
C3 C 0.4545(3) 0.3967(3) 0.2057(3)
H7 H 0.4186 0.3517 0.2825
H8 H 0.4418 0.3406 0.1529
C4 C 0.3679(3) 0.5210(3) 0.1808(3)
C5 C 0.2210(3) 0.5179(3) 0.2009(3)
H9 H 0.1774 0.4382 0.2296
C6 C 0.1375(3) 0.6302(3) 0.1792(3)
H10 H 0.0374 0.6264 0.1926
C7 C 0.1986(4) 0.7484(3) 0.1381(3)
C8 C 0.3462(4) 0.7520(3) 0.1166(3)
H11 H 0.3899 0.8314 0.0869
C9 C 0.4284(3) 0.6395(3) 0.1387(3)
H12 H 0.5285 0.6431 0.1247
C10 C -0.7356(3) 0.6995(3) 0.4112(3)
H13 H -0.8046 0.6362 0.4349
C11 C -0.5377(3) 0.7860(3) 0.3730(3)
H14 H -0.4395 0.8000 0.3628
C12 C -0.6295(3) 1.0145(3) 0.2982(3)
H15 H -0.6951 1.0648 0.3469
H16 H -0.6590 1.0311 0.2235
C13 C -0.4817(3) 1.0572(3) 0.2871(3)
C14 C -0.4407(4) 1.1044(3) 0.3740(3)
H17 H -0.5089 1.1167 0.4374
C15 C -0.3018(4) 1.1336(3) 0.3690(3)
H18 H -0.2749 1.1653 0.4289
C16 C -0.2019(3) 1.1167(3) 0.2764(3)
C17 C -0.2433(4) 1.0744(4) 0.1870(3)
H19 H -0.1761 1.0658 0.1220
C18 C -0.3818(4) 1.0452(3) 0.1931(3)
H20 H -0.4094 1.0163 0.1320
Cl1 Cl -0.15294(9) 0.71282(9) 0.49046(7)
O1 O -0.1829(7) 0.8304(6) 0.4291(8)
O2 O -0.2816(4) 0.6533(4) 0.5326(3)
O3 O -0.0752(4) 0.7216(5) 0.5756(3)
O4 O -0.0682(4) 0.6533(8) 0.4145(5)
Ag1A Ag -1.04607(3) 0.06803(3) 0.69323(2)
N1A N -1.6049(3) 0.5845(3) 0.8034(2)
N2A N -1.6586(3) 0.5507(3) 0.7180(2)
N3A N -1.8275(3) 0.5568(3) 0.8679(2)
N4A N -1.1118(3) 0.1366(3) 0.8729(2)
H1A H -1.0315 0.1503 0.8993
H2A H -1.1597 0.0729 0.9238
N5A N -0.3623(3) 0.1239(3) 0.6534(2)
N6A N -0.2339(3) 0.1786(3) 0.6294(2)
N7A N -0.4041(3) 0.3263(3) 0.5843(2)
N8A N -0.9440(3) -0.1337(3) 0.7242(2)
H3A H -0.9543 -0.1773 0.6687
H4A H -0.9844 -0.1793 0.7923
C1A C -1.7917(4) 0.5351(3) 0.7613(3)
H5A H -1.8580 0.5105 0.7214
C2A C -1.7063(3) 0.5869(3) 0.8913(3)
H6A H -1.6938 0.6071 0.9608
C3A C -1.4545(3) 0.6033(3) 0.7943(3)
H7A H -1.4186 0.6483 0.7175
H8A H -1.4418 0.6594 0.8471
C4A C -1.3679(3) 0.4790(3) 0.8192(3)
C5A C -1.2210(3) 0.4821(3) 0.7991(3)
H9A H -1.1774 0.5618 0.7704
C6A C -1.1375(3) 0.3698(3) 0.8208(3)
H10A H -1.0374 0.3736 0.8074
C7A C -1.1986(4) 0.2516(3) 0.8619(3)
C8A C -1.3462(4) 0.2480(3) 0.8834(3)
H11A H -1.3899 0.1686 0.9131
C9A C -1.4284(3) 0.3605(3) 0.8613(3)
H12A H -1.5285 0.3569 0.8753
C10A C -0.2644(3) 0.3005(3) 0.5888(3)
H13A H -0.1954 0.3638 0.5651
C11A C -0.4623(3) 0.2140(3) 0.6270(3)
H14A H -0.5605 0.2000 0.6372
C12A C -0.3705(3) -0.0145(3) 0.7018(3)
H15A H -0.3049 -0.0648 0.6531
H16A H -0.3410 -0.0311 0.7765
C13A C -0.5183(3) -0.0572(3) 0.7129(3)
C14A C -0.5593(4) -0.1044(3) 0.6260(3)
H17A H -0.4911 -0.1167 0.5626
C15A C -0.6982(4) -0.1336(3) 0.6310(3)
H18A H -0.7251 -0.1653 0.5711
C16A C -0.7981(3) -0.1167(3) 0.7236(3)
C17A C -0.7567(4) -0.0744(4) 0.8130(3)
H19A H -0.8239 -0.0658 0.8780
C18A C -0.6182(4) -0.0452(3) 0.8069(3)
H20A H -0.5906 -0.0163 0.8680
Cl1A Cl -0.84706(9) 0.28718(9) 0.50954(7)
O1A O -0.8171(7) 0.1696(6) 0.5709(8)
O2A O -0.7184(4) 0.3467(4) 0.4674(3)
O3A O -0.9248(4) 0.2784(5) 0.4244(3)
O4A O -0.9318(4) 0.3467(8) 0.5855(5)
Ag1_2 Ag -0.95393(3) 0.93197(3) 0.30677(2)
Ag1A_2 Ag -0.04607(3) 0.06803(3) 0.69323(2)
Ag2_2 Ag -2.0000 0.5000 1.0000
N3A_2 N 1.1725(3) 0.5568(3) -0.1321(2)
N6_2 N 0.2339(3) 0.8214(3) 0.3706(2)
N6A_2 N -1.2339(3) 0.1786(3) 0.6294(2)
Cl2 Cl 0.22254(8) 0.20109(8) -0.00014(7)
O5 O 0.2384(3) 0.3013(3) 0.0593(3)
O6 O 0.2436(3) 0.2490(3) -0.1186(2)
O7 O 0.3213(3) 0.0951(3) 0.0269(2)
O8 O 0.0807(3) 0.1557(3) 0.0342(2)
loop_
_geom_bond_atom_site_label_1
_geom_bond_atom_site_label_2
_geom_bond_site_symmetry_1
_geom_bond_site_symmetry_2
Ag1 N4 1_555 1_555
Ag2 N3 1_555 1_555
Ag3 N7 1_555 1_555
N1 N2 1_555 1_555
N2 C1 1_555 1_555
N3 C1 1_555 1_555
N4 H1 1_555 1_555
H2 N4 1_555 1_555
N5 N6 1_555 1_555
N6 C10 1_555 1_555
N7 C10 1_555 1_555
N8 Ag1 1_555 1_555
H3 N8 1_555 1_555
H4 N8 1_555 1_555
C1 H5 1_555 1_555
C2 N1 1_555 1_555
H6 C2 1_555 1_555
C3 N1 1_555 1_555
H7 C3 1_555 1_555
H8 C3 1_555 1_555
C4 C3 1_555 1_555
C5 C4 1_555 1_555
H9 C5 1_555 1_555
C6 C5 1_555 1_555
H10 C6 1_555 1_555
C7 N4 1_555 1_555
C8 C7 1_555 1_555
H11 C8 1_555 1_555
C9 C4 1_555 1_555
H12 C9 1_555 1_555
C10 H13 1_555 1_555
C11 N5 1_555 1_555
H14 C11 1_555 1_555
C12 N5 1_555 1_555
H15 C12 1_555 1_555
H16 C12 1_555 1_555
C13 C12 1_555 1_555
C14 C13 1_555 1_555
H17 C14 1_555 1_555
C15 C14 1_555 1_555
H18 C15 1_555 1_555
C16 N8 1_555 1_555
C17 C16 1_555 1_555
H19 C17 1_555 1_555
C18 C13 1_555 1_555
H20 C18 1_555 1_555
Cl1 O1 1_555 1_555
O1 Ag1 1_555 1_555
O2 Cl1 1_555 1_555
O3 Cl1 1_555 1_555
O4 Cl1 1_555 1_555
Cl2 O5 1_555 1_555
O6 Cl2 1_555 1_555
O7 Cl2 1_555 1_555
O8 Cl2 1_555 1_555
Ag1A N4A 1_555 1_555
N1A N2A 1_555 1_555
N2A C1A 1_555 1_555
N3A C1A 1_555 1_555
N4A H1A 1_555 1_555
H2A N4A 1_555 1_555
N5A N6A 1_555 1_555
N6A C10A 1_555 1_555
N7A Ag3 1_555 1_555
N8A Ag1A 1_555 1_555
H3A N8A 1_555 1_555
H4A N8A 1_555 1_555
C1A H5A 1_555 1_555
C2A N1A 1_555 1_555
H6A C2A 1_555 1_555
C3A N1A 1_555 1_555
H7A C3A 1_555 1_555
H8A C3A 1_555 1_555
C4A C3A 1_555 1_555
C5A C4A 1_555 1_555
H9A C5A 1_555 1_555
C6A C5A 1_555 1_555
H10A C6A 1_555 1_555
C7A N4A 1_555 1_555
C8A C7A 1_555 1_555
H11A C8A 1_555 1_555
C9A C4A 1_555 1_555
H12A C9A 1_555 1_555
C10A N7A 1_555 1_555
H13A C10A 1_555 1_555
C11A N5A 1_555 1_555
H14A C11A 1_555 1_555
C12A N5A 1_555 1_555
H15A C12A 1_555 1_555
H16A C12A 1_555 1_555
C13A C12A 1_555 1_555
C14A C13A 1_555 1_555
H17A C14A 1_555 1_555
C15A C14A 1_555 1_555
H18A C15A 1_555 1_555
C16A N8A 1_555 1_555
C17A C16A 1_555 1_555
H19A C17A 1_555 1_555
C18A C13A 1_555 1_555
H20A C18A 1_555 1_555
Cl1A O1A 1_555 1_555
O1A Ag1A 1_555 1_555
O2A Cl1A 1_555 1_555
O3A Cl1A 1_555 1_555
O4A Cl1A 1_555 1_555
Ag1_2 N6 1_555 1_555
Ag1A_2 N6A 1_555 1_555
Ag2_2 N3A 1_555 1_555
N3A_2 Ag2 1_555 1_555
N6_2 Ag1 1_555 1_555
N6A_2 Ag1A 1_555 1_555
N3 C2 1_555 1_555
N7 C11 1_555 1_555
C6 C7 1_555 1_555
C8 C9 1_555 1_555
C15 C16 1_555 1_555
C17 C18 1_555 1_555
N3A C2A 1_555 1_555
N7A C11A 1_555 1_555
C6A C7A 1_555 1_555
C8A C9A 1_555 1_555
C15A C16A 1_555 1_555
C17A C18A 1_555 1_555

#END
