
#######################################################################
#
#                 Cambridge Crystallographic Data Centre
#                                CCDC 
#
#######################################################################
#
# If this CIF has been generated from an entry in the Cambridge 
# Structural Database, then it will include bibliographic, chemical, 
# crystal, experimental, refinement or atomic coordinate data resulting 
# from the CCDC's data processing and validation procedures.
#
#######################################################################

data_GUFYEN
_symmetry_cell_setting           triclinic
_symmetry_space_group_name_H-M   'P -1'
_symmetry_Int_Tables_number      2
_space_group_name_Hall           '-P 1'
loop_
_symmetry_equiv_pos_site_id
_symmetry_equiv_pos_as_xyz
1 x,y,z
2 -x,-y,-z
_cell_length_a                   9.5176(18)
_cell_length_b                   11.006(2)
_cell_length_c                   12.411(2)
_cell_angle_alpha                89.458(2)
_cell_angle_beta                 80.103(2)
_cell_angle_gamma                69.138(2)
_cell_volume                     1194.86
loop_
_atom_site_label
_atom_site_type_symbol
_atom_site_fract_x
_atom_site_fract_y
_atom_site_fract_z
Cd1 Cd 1.238867(18) 0.069704(15) 0.699447(14)
S1 S 1.26167(8) -0.05913(8) 0.49563(6)
N1 N 0.9582(2) -0.17303(19) 0.80814(17)
N2 N 1.0036(2) -0.1618(2) 0.90399(17)
N3 N 1.0921(2) -0.0490(2) 0.77580(17)
N4 N 1.1843(2) -0.79155(19) 0.86301(18)
H1 H 1.1279 -0.8186 0.9169
H2 H 1.2729 -0.8002 0.8844
N5 N 0.8095(2) 0.3265(2) 0.60390(18)
N6 N 0.9037(3) 0.3522(3) 0.5202(2)
N7 N 1.0372(2) 0.2199(2) 0.63467(17)
N8 N 0.4424(2) 0.91483(19) 0.78319(18)
H3 H 0.5234 0.9404 0.7724
H4 H 0.4090 0.9190 0.8559
N9 N 1.5642(3) -0.1278(2) 0.38829(17)
C1 C 1.0835(3) -0.0870(2) 0.8805(2)
H5 H 1.1307 -0.0618 0.9313
C2 C 1.0102(3) -0.1059(2) 0.7341(2)
H6 H 0.9922 -0.0992 0.6625
C3 C 0.8655(3) -0.2529(3) 0.7985(3)
H7 H 0.8376 -0.2451 0.7265
H8 H 0.7720 -0.2206 0.8525
C4 C 0.9503(3) -0.3945(2) 0.8154(2)
C5 C 1.1025(3) -0.4565(3) 0.7691(3)
H9 H 1.1540 -0.4103 0.7261
C6 C 1.1795(3) -0.5859(3) 0.7857(3)
H10 H 1.2822 -0.6259 0.7547
C7 C 1.1035(3) -0.6555(2) 0.8484(2)
C8 C 0.9513(3) -0.5957(2) 0.8931(2)
H11 H 0.8991 -0.6427 0.9342
C9 C 0.8755(3) -0.4654(3) 0.8770(2)
H12 H 0.7728 -0.4255 0.9081
C10 C 1.0386(3) 0.2863(3) 0.5432(3)
H13 H 1.1287 0.2855 0.4995
C11 C 0.8895(3) 0.2486(2) 0.6700(2)
H14 H 0.8479 0.2179 0.7329
C12 C 0.6430(3) 0.3865(3) 0.6136(3)
H15 H 0.5945 0.3374 0.6620
H16 H 0.6155 0.3836 0.5422
C13 C 0.5853(3) 0.5264(2) 0.6583(2)
C14 C 0.5023(3) 0.5625(3) 0.7624(3)
H17 H 0.4779 0.5004 0.8052
C15 C 0.4543(3) 0.6899(3) 0.8051(2)
H18 H 0.3965 0.7130 0.8753
C16 C 0.4925(3) 0.7820(2) 0.7431(2)
C17 C 0.5763(3) 0.7469(2) 0.6378(2)
H19 H 0.6022 0.8086 0.5956
C18 C 0.6211(3) 0.6205(3) 0.5958(2)
H20 H 0.6761 0.5979 0.5248
C19 C 1.4393(3) -0.0990(2) 0.43303(19)
Cd1_2 Cd 0.238867(18) 1.069704(15) 0.699447(14)
Cd1_3 Cd 1.238867(18) -0.930296(15) 0.699447(14)
Cd1A Cd 1.761133(18) -0.069704(15) 0.300553(14)
N4_2 N 1.1843(2) 0.20845(19) 0.86301(18)
N8_2 N 1.4424(2) -0.08517(19) 0.78319(18)
N9A N 1.4358(3) 0.1278(2) 0.61171(17)
Cl1 Cl 0.38152(8) 0.85786(7) 0.09648(6)
O1 O 0.3353(4) 0.9642(3) 0.0259(2)
O2 O 0.3557(4) 0.9130(3) 0.2044(2)
O3 O 0.2855(4) 0.7868(4) 0.0891(2)
O4 O 0.5343(3) 0.7854(4) 0.0555(4)
loop_
_geom_bond_atom_site_label_1
_geom_bond_atom_site_label_2
_geom_bond_site_symmetry_1
_geom_bond_site_symmetry_2
Cd1 S1 1_555 1_555
S1 C19 1_555 1_555
N1 N2 1_555 1_555
N2 C1 1_555 1_555
N3 Cd1 1_555 1_555
N4 H1 1_555 1_555
H2 N4 1_555 1_555
N5 N6 1_555 1_555
N6 C10 1_555 1_555
N7 Cd1 1_555 1_555
N8 H3 1_555 1_555
H4 N8 1_555 1_555
N9 C19 1_555 1_555
C1 N3 1_555 1_555
H5 C1 1_555 1_555
C2 N1 1_555 1_555
H6 C2 1_555 1_555
C3 N1 1_555 1_555
H7 C3 1_555 1_555
H8 C3 1_555 1_555
C4 C3 1_555 1_555
C5 C4 1_555 1_555
H9 C5 1_555 1_555
C6 C5 1_555 1_555
H10 C6 1_555 1_555
C7 N4 1_555 1_555
C8 C7 1_555 1_555
H11 C8 1_555 1_555
C9 C4 1_555 1_555
H12 C9 1_555 1_555
C10 N7 1_555 1_555
H13 C10 1_555 1_555
C11 N5 1_555 1_555
H14 C11 1_555 1_555
C12 N5 1_555 1_555
H15 C12 1_555 1_555
H16 C12 1_555 1_555
C13 C12 1_555 1_555
C14 C13 1_555 1_555
H17 C14 1_555 1_555
C15 C14 1_555 1_555
H18 C15 1_555 1_555
C16 N8 1_555 1_555
C17 C16 1_555 1_555
H19 C17 1_555 1_555
C18 C13 1_555 1_555
H20 C18 1_555 1_555
Cl1 O1 1_555 1_555
O2 Cl1 1_555 1_555
O3 Cl1 1_555 1_555
O4 Cl1 1_555 1_555
Cd1_2 N8 1_555 1_555
Cd1_3 N4 1_555 1_555
Cd1A N9 1_555 1_555
N4_2 Cd1 1_555 1_555
N8_2 Cd1 1_555 1_555
N9A Cd1 1_555 1_555
N3 C2 1_555 1_555
N7 C11 1_555 1_555
C6 C7 1_555 1_555
C8 C9 1_555 1_555
C15 C16 1_555 1_555
C17 C18 1_555 1_555

#END
