
#######################################################################
#
#                 Cambridge Crystallographic Data Centre
#                                CCDC 
#
#######################################################################
#
# If this CIF has been generated from an entry in the Cambridge 
# Structural Database, then it will include bibliographic, chemical, 
# crystal, experimental, refinement or atomic coordinate data resulting 
# from the CCDC's data processing and validation procedures.
#
#######################################################################

data_GUGHUN
_symmetry_cell_setting           orthorhombic
_symmetry_space_group_name_H-M   'F d d 2'
_symmetry_Int_Tables_number      43
_space_group_name_Hall           'F 2 -2d'
loop_
_symmetry_equiv_pos_site_id
_symmetry_equiv_pos_as_xyz
1 x,y,z
2 -x,-y,z
3 1/4-x,1/4+y,1/4+z
4 1/4+x,1/4-y,1/4+z
5 x,1/2+y,1/2+z
6 -x,1/2-y,1/2+z
7 1/4-x,3/4+y,3/4+z
8 1/4+x,3/4-y,3/4+z
9 1/2+x,y,1/2+z
10 1/2-x,-y,1/2+z
11 3/4-x,1/4+y,3/4+z
12 3/4+x,1/4-y,3/4+z
13 1/2+x,1/2+y,z
14 1/2-x,1/2-y,z
15 3/4-x,3/4+y,1/4+z
16 3/4+x,3/4-y,1/4+z
_cell_length_a                   24.756(5)
_cell_length_b                   29.808(5)
_cell_length_c                   10.109(5)
_cell_angle_alpha                90
_cell_angle_beta                 90
_cell_angle_gamma                90
_cell_volume                     7459.7
loop_
_atom_site_label
_atom_site_type_symbol
_atom_site_fract_x
_atom_site_fract_y
_atom_site_fract_z
Cd1 Cd 0.321024(17) 0.125207(15) 0.88443(4)
C1 C 0.2654(2) 0.05677(19) 0.6723(5)
H1 H 0.2769 0.0780 0.6053
H2 H 0.2962 0.0383 0.6955
C2 C 0.1987(2) 0.10881(15) 0.7535(6)
H3 H 0.1850 0.1246 0.8304
H4 H 0.2093 0.1311 0.6885
C3 C 0.22932(19) 0.04782(18) 0.8912(6)
H5 H 0.2600 0.0295 0.9165
H6 H 0.2162 0.0629 0.9700
C4 C 0.2074(2) -0.0035(2) 0.7200(7)
H7 H 0.2382 -0.0220 0.7436
H8 H 0.1797 -0.0230 0.6843
C5 C 0.1415(2) 0.0467(2) 0.8000(5)
H9 H 0.1277 0.0621 0.8775
H10 H 0.1129 0.0275 0.7664
C6 C 0.1776(2) 0.0559(2) 0.5832(6)
H11 H 0.1497 0.0368 0.5462
H12 H 0.1882 0.0773 0.5155
C7 C 0.29062(19) 0.15233(17) 1.3727(6)
C8 C 0.2629(2) 0.16353(19) 1.2534(5)
C9 C 0.22297(19) 0.19314(17) 1.2906(5)
C10 C 0.33936(18) 0.1224(2) 1.3891(10)
H13 H 0.3510 0.1230 1.4797
H14 H 0.3680 0.1329 1.3332
H15 H 0.3300 0.0922 1.3648
C11 C 0.2760(2) 0.14966(18) 1.1189(6)
C12 C 0.1814(2) 0.2167(2) 1.2141(6)
H16 H 0.1947 0.2457 1.1883
H17 H 0.1496 0.2203 1.2673
H18 H 0.1727 0.1996 1.1365
C13 C 0.18978(18) 0.2188(2) 1.5130(5)
H19 H 0.1746 0.2453 1.4715
H20 H 0.2091 0.2284 1.5916
C14 C 0.14407(18) 0.18758(17) 1.5536(5)
N1 N 0.24719(17) 0.08214(15) 0.7926(4)
N2 N 0.18671(18) 0.01884(17) 0.8393(5)
N3 N 0.22373(16) 0.02870(14) 0.6185(5)
N4 N 0.15522(15) 0.08059(15) 0.6975(4)
N5 N 0.22753(16) 0.19801(15) 1.4226(4)
N6 N 0.26857(16) 0.17284(15) 1.4753(4)
O1 O 0.30351(18) 0.18270(12) 0.7402(4)
H21 H 0.296(2) 0.2083(10) 0.770(5)
H22 H 0.293(2) 0.1782(17) 0.664(3)
O2 O 0.25615(15) 0.16827(15) 1.0194(4)
O3 O 0.31044(15) 0.11787(14) 1.1066(3)
O4 O 0.13324(14) 0.15506(12) 1.4827(4)
O5 O 0.12027(13) 0.19665(13) 1.6600(3)
Cd1K Cd 0.071024(17) 0.124793(15) 0.63443(4)
Cd1K_2 Cd 0.071024(17) 0.124793(15) 1.63443(4)
N4C N 0.40522(15) 0.16941(15) 0.9475(4)
O4C O 0.38324(14) 0.09494(12) 0.7327(4)
O5C O 0.37027(13) 0.05335(13) 0.9100(3)
O6 O 0.19176(18) 0.23061(14) 0.8529(4)
H23 H 0.210(2) 0.2160(19) 0.912(5)
H24 H 0.170(2) 0.2145(18) 0.813(6)
loop_
_geom_bond_atom_site_label_1
_geom_bond_atom_site_label_2
_geom_bond_site_symmetry_1
_geom_bond_site_symmetry_2
Cd1 N1 1_555 1_555
C1 H1 1_555 1_555
H2 C1 1_555 1_555
C2 H3 1_555 1_555
H4 C2 1_555 1_555
C3 H5 1_555 1_555
H6 C3 1_555 1_555
C4 H7 1_555 1_555
H8 C4 1_555 1_555
C5 H9 1_555 1_555
H10 C5 1_555 1_555
C6 H11 1_555 1_555
H12 C6 1_555 1_555
C7 C8 1_555 1_555
C8 C9 1_555 1_555
C9 C12 1_555 1_555
C10 C7 1_555 1_555
H13 C10 1_555 1_555
H14 C10 1_555 1_555
H15 C10 1_555 1_555
C11 C8 1_555 1_555
C12 H16 1_555 1_555
H17 C12 1_555 1_555
H18 C12 1_555 1_555
C13 H19 1_555 1_555
H20 C13 1_555 1_555
C14 C13 1_555 1_555
N1 C1 1_555 1_555
N2 C3 1_555 1_555
N3 C1 1_555 1_555
N4 C2 1_555 1_555
N5 C9 1_555 1_555
N6 C7 1_555 1_555
O1 Cd1 1_555 1_555
H21 O1 1_555 1_555
H22 O1 1_555 1_555
O2 Cd1 1_555 1_555
O3 Cd1 1_555 1_555
O4 C14 1_555 1_555
O5 C14 1_555 1_555
O6 H23 1_555 1_555
H24 O6 1_555 1_555
Cd1K N4 1_555 1_555
Cd1K_2 O4 1_555 1_555
N4C Cd1 1_555 1_555
O4C Cd1 1_555 1_555
O5C Cd1 1_555 1_555
C2 N1 1_555 1_555
C3 N1 1_555 1_555
C4 N2 1_555 1_555
C4 N3 1_555 1_555
C5 N2 1_555 1_555
C5 N4 1_555 1_555
C6 N3 1_555 1_555
C6 N4 1_555 1_555
C11 O2 1_555 1_555
C11 O3 1_555 1_555
C13 N5 1_555 1_555
N5 N6 1_555 1_555
O5 Cd1K_2 1_555 1_555

#END
