
#######################################################################
#
#                 Cambridge Crystallographic Data Centre
#                                CCDC 
#
#######################################################################
#
# If this CIF has been generated from an entry in the Cambridge 
# Structural Database, then it will include bibliographic, chemical, 
# crystal, experimental, refinement or atomic coordinate data resulting 
# from the CCDC's data processing and validation procedures.
#
#######################################################################

data_GUGJAV
_symmetry_cell_setting           monoclinic
_symmetry_space_group_name_H-M   'P 21'
_symmetry_Int_Tables_number      4
_space_group_name_Hall           'P 2yb'
loop_
_symmetry_equiv_pos_site_id
_symmetry_equiv_pos_as_xyz
1 x,y,z
2 -x,1/2+y,-z
_cell_length_a                   8.912(5)
_cell_length_b                   14.028(5)
_cell_length_c                   22.554(5)
_cell_angle_alpha                90
_cell_angle_beta                 99.932(5)
_cell_angle_gamma                90
_cell_volume                     2777.39
loop_
_atom_site_label
_atom_site_type_symbol
_atom_site_fract_x
_atom_site_fract_y
_atom_site_fract_z
Mn1 Mn 0.23297(7) 0.77121(3) 0.23615(2)
Mn2 Mn 0.73393(7) 0.86727(4) 0.23339(2)
C1 C -0.0074(6) 0.5987(5) 0.0023(2)
C2 C -0.0482(5) 0.5307(4) 0.0417(2)
C3 C -0.1221(5) 0.5806(3) 0.08016(19)
C4 C 0.0796(6) 0.5926(6) -0.0488(2)
H1 H 0.0912 0.6553 -0.0645
H2 H 0.0252 0.5529 -0.0800
H3 H 0.1783 0.5656 -0.0347
C5 C -0.0260(6) 0.4227(4) 0.0435(2)
C6 C -0.1896(6) 0.5469(4) 0.1328(2)
H4 H -0.1317 0.5721 0.1693
H5 H -0.1872 0.4785 0.1342
H6 H -0.2931 0.5685 0.1286
C7 C -0.1810(5) 0.7526(3) 0.09363(17)
H7 H -0.2708 0.7334 0.1095
H8 H -0.2111 0.8026 0.0642
C8 C -0.0648(5) 0.7926(3) 0.14451(16)
C9 C 0.4317(5) 0.7714(3) 0.50447(17)
C10 C 0.4895(6) 0.6848(3) 0.4865(2)
C11 C 0.5660(5) 0.7086(3) 0.43951(18)
C12 C 0.3414(6) 0.7901(4) 0.55245(19)
H9 H 0.2679 0.8391 0.5395
H10 H 0.4080 0.8106 0.5883
H11 H 0.2898 0.7329 0.5608
C13 C 0.4769(6) 0.5927(3) 0.5143(2)
C14 C 0.6514(6) 0.6492(3) 0.4013(2)
H12 H 0.5829 0.6278 0.3663
H13 H 0.6950 0.5950 0.4240
H14 H 0.7312 0.6866 0.3892
C15 C 0.6005(5) 0.8612(3) 0.38630(16)
H15 H 0.7054 0.8453 0.3843
H16 H 0.5979 0.9275 0.3985
C16 C 0.5052(4) 0.8503(3) 0.32398(15)
C17 C 0.5031(5) 0.9567(3) -0.01882(17)
C18 C 0.4773(5) 1.0406(3) 0.01042(18)
C19 C 0.3992(4) 1.0156(3) 0.05645(17)
C20 C 0.5853(6) 0.9385(4) -0.0701(2)
H17 H 0.5827 0.8715 -0.0791
H18 H 0.6892 0.9590 -0.0594
H19 H 0.5367 0.9732 -0.1049
C21 C 0.5200(5) 1.1370(3) -0.00753(18)
C22 C 0.3437(5) 1.0710(3) 0.10398(19)
H20 H 0.2470 1.0463 0.1100
H21 H 0.3325 1.1366 0.0921
H22 H 0.4156 1.0661 0.1408
C23 C 0.3196(5) 0.8553(3) 0.09120(16)
H23 H 0.2849 0.7975 0.0694
H24 H 0.2327 0.8842 0.1048
C24 C 0.4384(4) 0.8299(3) 0.14520(16)
C25 C 0.9302(5) 0.8861(3) 0.50294(17)
C26 C 0.9890(5) 0.9720(3) 0.48403(18)
C27 C 1.0636(5) 0.9479(3) 0.43740(17)
C28 C 0.8385(5) 0.8691(4) 0.55083(17)
H25 H 0.8288 0.8017 0.5567
H26 H 0.7393 0.8967 0.5392
H27 H 0.8882 0.8978 0.5877
C29 C 0.9737(6) 1.0665(3) 0.5109(2)
C30 C 1.1516(6) 1.0041(4) 0.3992(2)
H28 H 1.2573 0.9869 0.4087
H29 H 1.1403 1.0708 0.4067
H30 H 1.1140 0.9907 0.3576
C31 C 1.1017(5) 0.7931(3) 0.38692(16)
H31 H 1.1030 0.7276 0.4008
H32 H 1.2054 0.8105 0.3839
C32 C 1.0047(4) 0.7986(3) 0.32464(16)
C33 C 0.2278(5) 0.5582(3) 0.19546(19)
H33 H 0.2111 0.5880 0.1581
C34 C 0.2193(5) 0.4591(3) 0.19762(19)
H34 H 0.1946 0.4242 0.1622
C35 C 0.2480(6) 0.4124(3) 0.2530(2)
C36 C 0.2827(6) 0.4704(3) 0.3040(2)
H35 H 0.3047 0.4429 0.3420
C37 C 0.2843(6) 0.5672(3) 0.2981(2)
H36 H 0.3041 0.6043 0.3327
C38 C 0.1409(6) 0.1569(3) 0.2210(2)
H37 H 0.0702 0.1229 0.1939
C39 C 0.1396(6) 0.2558(3) 0.2160(2)
H38 H 0.0714 0.2863 0.1862
C40 C 0.2417(6) 0.3072(3) 0.2564(2)
C41 C 0.3411(7) 0.2576(4) 0.2994(2)
H39 H 0.4117 0.2899 0.3275
C42 C 0.3340(7) 0.1579(4) 0.3000(3)
H40 H 0.4016 0.1252 0.3290
C43 C 0.7315(5) 1.0869(3) 0.1919(2)
H41 H 0.7128 1.0604 0.1535
C44 C 0.7244(6) 1.1838(3) 0.1975(2)
H42 H 0.6985 1.2219 0.1635
C45 C 0.7561(6) 1.2250(4) 0.2542(2)
C46 C 0.7938(6) 1.1651(4) 0.3032(2)
H43 H 0.8190 1.1899 0.3419
C47 C 0.7933(6) 1.0680(3) 0.2937(2)
H44 H 0.8144 1.0283 0.3271
C48 C 0.6305(6) 1.4803(3) 0.2404(2)
H45 H 0.5501 1.5145 0.2185
C49 C 0.6337(5) 1.3834(3) 0.2321(2)
H46 H 0.5559 1.3542 0.2055
C50 C 0.7499(6) 1.3290(4) 0.2625(2)
C51 C 0.8594(7) 1.3794(4) 0.3005(2)
H47 H 0.9420 1.3468 0.3222
C52 C 0.8497(7) 1.4757(4) 0.3073(3)
H48 H 0.9264 1.5064 0.3336
N1 N -0.1256(4) 0.6717(3) 0.06365(14)
N2 N -0.0535(4) 0.6881(4) 0.01562(16)
N3 N 0.5499(4) 0.8022(2) 0.43169(14)
N4 N 0.4671(4) 0.8417(2) 0.47081(14)
N5 N 0.3793(4) 0.9207(2) 0.05104(13)
N6 N 0.4445(4) 0.8826(2) 0.00571(14)
N7 N 1.0509(4) 0.8532(2) 0.43133(13)
N8 N 0.9665(4) 0.8140(2) 0.47019(15)
N9 N 0.2584(4) 0.6113(3) 0.24398(17)
N10 N 0.2358(5) 0.1076(3) 0.26153(19)
N11 N 0.7646(5) 1.0280(3) 0.23968(17)
N12 N 0.7353(5) 1.5283(3) 0.27781(18)
O1 O 0.0614(3) 0.7532(2) 0.15484(11)
O2 O -0.1040(3) 0.8648(2) 0.17171(11)
O3 O -0.0492(6) 0.3753(3) 0.08500(18)
O4 O 0.0168(5) 0.3892(3) -0.00469(17)
H49 H 0.0308 0.3238 -0.0079
O5 O 0.5506(3) 0.89735(19) 0.28357(11)
O6 O 0.3898(3) 0.7988(2) 0.31818(12)
O7 O 0.5262(5) 0.5200(2) 0.48421(16)
H50 H 0.5169 0.4700 0.5020
O8 O 0.4296(5) 0.5811(3) 0.56101(16)
O9 O 0.5620(3) 0.8714(2) 0.15301(11)
O10 O 0.4005(3) 0.7644(2) 0.17888(11)
O11 O 0.5568(5) 1.1525(2) -0.05487(15)
O12 O 0.5108(5) 1.2036(2) 0.03220(16)
H51 H 0.5452 1.2536 0.0212
O13 O 0.8916(3) 0.8514(2) 0.31656(12)
O14 O 1.0485(3) 0.7480(2) 0.28554(11)
O15 O 0.9198(5) 1.0776(3) 0.55577(17)
O16 O 1.0257(5) 1.1372(2) 0.48145(16)
H52 H 1.0501 1.1819 0.5045
O17 O 0.1781(4) 0.9213(2) 0.22282(18)
H53 H 0.083(3) 0.918(4) 0.2061(19)
H54 H 0.182(6) 0.947(4) 0.2575(14)
O18 O 0.6813(4) 0.7160(2) 0.23340(16)
H55 H 0.5888 0.7083 0.2250
H56 H 0.7144 0.6640 0.2458
Mn1_2 Mn 1.23297(7) 0.77121(3) 0.23615(2)
Mn2_2 Mn -0.26607(7) 0.86727(4) 0.23339(2)
O2_2 O 0.8960(3) 0.8648(2) 0.17171(11)
O14_2 O 0.0485(3) 0.7480(2) 0.28554(11)
loop_
_geom_bond_atom_site_label_1
_geom_bond_atom_site_label_2
_geom_bond_site_symmetry_1
_geom_bond_site_symmetry_2
Mn1 N9 1_555 1_555
Mn2 N11 1_555 1_555
C1 C2 1_555 1_555
C2 C3 1_555 1_555
C3 C6 1_555 1_555
C4 C1 1_555 1_555
H1 C4 1_555 1_555
H2 C4 1_555 1_555
H3 C4 1_555 1_555
C5 C2 1_555 1_555
C6 H4 1_555 1_555
H5 C6 1_555 1_555
H6 C6 1_555 1_555
C7 H7 1_555 1_555
H8 C7 1_555 1_555
C8 C7 1_555 1_555
C9 C10 1_555 1_555
C10 C11 1_555 1_555
C11 C14 1_555 1_555
C12 C9 1_555 1_555
H9 C12 1_555 1_555
H10 C12 1_555 1_555
H11 C12 1_555 1_555
C13 C10 1_555 1_555
C14 H12 1_555 1_555
H13 C14 1_555 1_555
H14 C14 1_555 1_555
C15 H15 1_555 1_555
H16 C15 1_555 1_555
C16 C15 1_555 1_555
C17 C18 1_555 1_555
C18 C19 1_555 1_555
C19 C22 1_555 1_555
C20 C17 1_555 1_555
H17 C20 1_555 1_555
H18 C20 1_555 1_555
H19 C20 1_555 1_555
C21 C18 1_555 1_555
C22 H20 1_555 1_555
H21 C22 1_555 1_555
H22 C22 1_555 1_555
C23 H23 1_555 1_555
H24 C23 1_555 1_555
C24 C23 1_555 1_555
C25 C26 1_555 1_555
C26 C27 1_555 1_555
C27 C30 1_555 1_555
C28 C25 1_555 1_555
H25 C28 1_555 1_555
H26 C28 1_555 1_555
H27 C28 1_555 1_555
C29 C26 1_555 1_555
C30 H28 1_555 1_555
H29 C30 1_555 1_555
H30 C30 1_555 1_555
C31 H31 1_555 1_555
H32 C31 1_555 1_555
C32 C31 1_555 1_555
C33 H33 1_555 1_555
C34 C33 1_555 1_555
H34 C34 1_555 1_555
C35 C34 1_555 1_555
C36 C35 1_555 1_555
H35 C36 1_555 1_555
C37 C36 1_555 1_555
H36 C37 1_555 1_555
C38 H37 1_555 1_555
C39 C38 1_555 1_555
H38 C39 1_555 1_555
C40 C35 1_555 1_555
C41 C40 1_555 1_555
H39 C41 1_555 1_555
C42 C41 1_555 1_555
H40 C42 1_555 1_555
C43 H41 1_555 1_555
C44 C43 1_555 1_555
H42 C44 1_555 1_555
C45 C44 1_555 1_555
C46 C45 1_555 1_555
H43 C46 1_555 1_555
C47 C46 1_555 1_555
H44 C47 1_555 1_555
C48 H45 1_555 1_555
C49 C48 1_555 1_555
H46 C49 1_555 1_555
C50 C45 1_555 1_555
C51 C50 1_555 1_555
H47 C51 1_555 1_555
C52 C51 1_555 1_555
H48 C52 1_555 1_555
N1 C3 1_555 1_555
N2 C1 1_555 1_555
N3 C11 1_555 1_555
N4 C9 1_555 1_555
N5 C19 1_555 1_555
N6 C17 1_555 1_555
N7 C27 1_555 1_555
N8 C25 1_555 1_555
N9 C33 1_555 1_555
N10 C38 1_555 1_555
N11 C43 1_555 1_555
N12 C48 1_555 1_555
O1 Mn1 1_555 1_555
O2 C8 1_555 1_555
O3 C5 1_555 1_555
O4 C5 1_555 1_555
H49 O4 1_555 1_555
O5 Mn2 1_555 1_555
O6 Mn1 1_555 1_555
O7 C13 1_555 1_555
H50 O7 1_555 1_555
O8 C13 1_555 1_555
O9 Mn2 1_555 1_555
O10 Mn1 1_555 1_555
O11 C21 1_555 1_555
O12 C21 1_555 1_555
H51 O12 1_555 1_555
O13 Mn2 1_555 1_555
O14 C32 1_555 1_555
O15 C29 1_555 1_555
O16 C29 1_555 1_555
H52 O16 1_555 1_555
O17 Mn1 1_555 1_555
H53 O17 1_555 1_555
H54 O17 1_555 1_555
O18 Mn2 1_555 1_555
H55 O18 1_555 1_555
H56 O18 1_555 1_555
Mn1_2 O14 1_555 1_555
Mn2_2 O2 1_555 1_555
O2_2 Mn2 1_555 1_555
O14_2 Mn1 1_555 1_555
C7 N1 1_555 1_555
C8 O1 1_555 1_555
C15 N3 1_555 1_555
C16 O5 1_555 1_555
C16 O6 1_555 1_555
C23 N5 1_555 1_555
C24 O9 1_555 1_555
C24 O10 1_555 1_555
C31 N7 1_555 1_555
C32 O13 1_555 1_555
C37 N9 1_555 1_555
C39 C40 1_555 1_555
C42 N10 1_555 1_555
C47 N11 1_555 1_555
C49 C50 1_555 1_555
C52 N12 1_555 1_555
N1 N2 1_555 1_555
N3 N4 1_555 1_555
N5 N6 1_555 1_555
N7 N8 1_555 1_555

#END
