
#######################################################################
#
#                 Cambridge Crystallographic Data Centre
#                                CCDC 
#
#######################################################################
#
# If this CIF has been generated from an entry in the Cambridge 
# Structural Database, then it will include bibliographic, chemical, 
# crystal, experimental, refinement or atomic coordinate data resulting 
# from the CCDC's data processing and validation procedures.
#
#######################################################################

data_GUGKEA
_symmetry_cell_setting           monoclinic
_symmetry_space_group_name_H-M   'P 21'
_symmetry_Int_Tables_number      4
_space_group_name_Hall           'P 2yb'
loop_
_symmetry_equiv_pos_site_id
_symmetry_equiv_pos_as_xyz
1 x,y,z
2 -x,1/2+y,-z
_cell_length_a                   10.3030(2)
_cell_length_b                   25.2045(4)
_cell_length_c                   10.39070(10)
_cell_angle_alpha                90
_cell_angle_beta                 92.9320(10)
_cell_angle_gamma                90
_cell_volume                     2694.75
loop_
_atom_site_label
_atom_site_type_symbol
_atom_site_fract_x
_atom_site_fract_y
_atom_site_fract_z
Pb1 Pb 0.84760(3) 0.000864(11) 0.85038(3)
O1 O 0.9998(6) 0.0481(2) 0.6956(5)
O2 O 0.8715(6) -0.0085(2) 0.5853(5)
O3 O 1.0184(6) 0.0498(3) -0.0024(6)
O4 O 0.9033(7) -0.0121(2) 0.0868(5)
N1 N 0.7876(7) -0.0989(3) 0.8793(7)
N2 N 1.0366(7) -0.0639(3) 0.8501(7)
C1 C 0.9547(8) 0.0276(3) 0.5916(8)
C2 C 1.0078(8) 0.0498(3) 0.4662(7)
H1 H 0.9837 0.0877 0.4594
H2 H 1.1038 0.0479 0.4739
C3 C 0.9622(9) 0.0225(4) 0.3413(8)
H3 H 0.9812 -0.0160 0.3477
H4 H 0.8671 0.0269 0.3273
C4 C 1.0298(9) 0.0457(4) 0.2283(8)
H5 H 1.1242 0.0387 0.2403
H6 H 1.0174 0.0847 0.2281
C5 C 0.9798(8) 0.0229(4) 0.0924(8)
C6 C 0.6667(9) -0.1154(4) 0.8988(10)
H7 H 0.5989 -0.0898 0.8979
C7 C 0.6360(9) -0.1680(4) 0.9202(10)
H8 H 0.5487 -0.1782 0.9325
C8 C 0.7332(10) -0.2053(4) 0.9234(10)
H9 H 0.7136 -0.2416 0.9380
C9 C 0.8623(9) -0.1896(4) 0.9049(10)
C10 C 0.9709(11) -0.2260(3) 0.9078(11)
H10 H 0.9557 -0.2625 0.9240
C11 C 1.0894(10) -0.2103(4) 0.8888(11)
H11 H 1.1577 -0.2356 0.8863
C12 C 1.1168(8) -0.1546(4) 0.8716(9)
C13 C 1.2443(9) -0.1347(4) 0.8608(9)
H12 H 1.3158 -0.1585 0.8640
C14 C 1.2655(9) -0.0819(4) 0.8460(8)
H13 H 1.3511 -0.0684 0.8400
C15 C 1.1564(8) -0.0476(4) 0.8396(9)
H14 H 1.1709 -0.0107 0.8271
C16 C 1.0151(8) -0.1174(3) 0.8662(8)
C17 C 0.8849(8) -0.1351(3) 0.8837(8)
Pb2 Pb 0.86489(3) 0.156722(13) 1.76344(3)
O5 O 0.8329(6) 0.1744(2) 1.5127(6)
O6 O 0.7196(6) 0.1093(2) 1.5994(6)
O7 O 0.8069(6) 0.1778(2) 0.9998(5)
O8 O 0.7334(6) 0.1032(2) 0.9114(6)
N3 N 0.6630(7) 0.2119(3) 1.7509(7)
N4 N 0.9034(7) 0.2583(3) 1.7599(7)
C18 C 0.7530(9) 0.1353(3) 1.5024(8)
C19 C 0.6899(8) 0.1213(4) 1.3721(8)
H15 H 0.5980 0.1328 1.3709
H16 H 0.6903 0.0822 1.3633
C20 C 0.7508(9) 0.1448(4) 1.2548(8)
H17 H 0.8465 0.1417 1.2646
H18 H 0.7283 0.1829 1.2472
C21 C 0.7010(9) 0.1154(4) 1.1328(8)
H19 H 0.7219 0.0773 1.1442
H20 H 0.6052 0.1186 1.1262
C22 C 0.7515(8) 0.1329(3) 1.0087(9)
C23 C 0.5473(8) 0.1883(4) 1.7402(7)
H21 H 0.5424 0.1509 1.7281
C24 C 0.4320(10) 0.2181(5) 1.7466(10)
H22 H 0.3497 0.2010 1.7407
C25 C 0.4400(10) 0.2724(4) 1.7615(10)
H23 H 0.3631 0.2931 1.7650
C26 C 0.5591(9) 0.2965(4) 1.7712(9)
C27 C 0.5747(12) 0.3543(4) 1.7900(10)
H24 H 0.4999 0.3760 1.7956
C28 C 0.6916(12) 0.3762(4) 1.7992(11)
H25 H 0.6989 0.4134 1.8128
C29 C 0.8093(9) 0.3447(4) 1.7889(8)
C30 C 0.9349(12) 0.3673(4) 1.7928(10)
H26 H 0.9460 0.4044 1.8041
C31 C 1.0396(11) 0.3354(5) 1.7803(11)
H27 H 1.1250 0.3497 1.7836
C32 C 1.0186(10) 0.2800(4) 1.7621(11)
H28 H 1.0918 0.2578 1.7511
C33 C 0.7979(9) 0.2901(3) 1.7730(9)
C34 C 0.6716(9) 0.2646(3) 1.7647(8)
Pb1_2 Pb 0.84760(3) 0.000864(11) -0.14962(3)
O3_2 O 1.0184(6) 0.0498(3) 0.9976(6)
O4_2 O 0.9033(7) -0.0121(2) 1.0868(5)
Pb2_2 Pb 0.86489(3) 0.156722(13) 0.76344(3)
O7_2 O 0.8069(6) 0.1778(2) 1.9998(5)
O8_2 O 0.7334(6) 0.1032(2) 1.9114(6)
Pb3 Pb 0.57594(3) -0.001814(11) 0.53901(2)
O9 O 0.4249(6) 0.0458(2) 0.6874(5)
O10 O 0.5606(6) -0.0095(2) 0.7880(5)
O11 O 0.4051(6) 0.0390(2) 1.3812(6)
O12 O 0.5274(7) -0.0208(2) 1.2939(6)
N5 N 0.6407(7) -0.1043(3) 0.5476(7)
N6 N 0.3900(6) -0.0678(3) 0.5419(6)
C35 C 0.4754(9) 0.0261(3) 0.7903(8)
C36 C 0.4288(8) 0.0464(3) 0.9167(8)
H29 H 0.3328 0.0483 0.9096
H30 H 0.4617 0.0830 0.9298
C37 C 0.4687(8) 0.0138(3) 1.0366(7)
H31 H 0.4457 -0.0239 1.0222
H32 H 0.5638 0.0163 1.0542
C38 C 0.3987(8) 0.0352(4) 1.1502(8)
H33 H 0.3056 0.0258 1.1378
H34 H 0.4046 0.0744 1.1486
C39 C 0.4467(8) 0.0164(3) 1.2833(7)
C40 C 0.7625(9) -0.1222(4) 0.5486(11)
H35 H 0.8309 -0.0971 0.5438
C41 C 0.7936(10) -0.1752(4) 0.5563(11)
H36 H 0.8817 -0.1862 0.5543
C42 C 0.6964(10) -0.2123(4) 0.5669(11)
H37 H 0.7169 -0.2490 0.5733
C43 C 0.5667(9) -0.1953(4) 0.5679(9)
C44 C 0.4600(10) -0.2320(3) 0.5695(10)
H38 H 0.4768 -0.2689 0.5774
C45 C 0.3376(9) -0.2146(4) 0.5599(9)
H39 H 0.2681 -0.2394 0.5593
C46 C 0.3088(8) -0.1580(4) 0.5503(8)
C47 C 0.1822(9) -0.1379(4) 0.5371(9)
H40 H 0.1105 -0.1616 0.5333
C48 C 0.1609(8) -0.0849(4) 0.5295(8)
H41 H 0.0749 -0.0712 0.5223
C49 C 0.2678(8) -0.0509(3) 0.5325(8)
H42 H 0.2525 -0.0138 0.5276
C50 C 0.4120(8) -0.1211(3) 0.5496(8)
C51 C 0.5442(8) -0.1396(3) 0.5545(9)
Pb3_2 Pb 0.57594(3) -0.001814(11) 1.53901(2)
O11_2 O 0.4051(6) 0.0390(2) 0.3812(6)
O12_2 O 0.5274(7) -0.0208(2) 0.2939(6)
O13 O 0.7890(5) 0.6127(3) 0.3001(6)
H43 H 0.8412 0.5868 0.3063
H44 H 0.7127 0.6012 0.2980
O14 O 0.8411(7) 0.6450(3) 0.0430(7)
H45 H 0.8279 0.6483 0.1242
H46 H 0.9122 0.6277 0.0392
O15 O 0.7300(7) 0.9183(3) 0.2092(8)
H47 H 0.6906 0.9379 0.2595
H48 H 0.7535 0.9365 0.1468
O16 O 0.6202(8) 0.6723(3) 0.8865(9)
H49 H 0.6293 0.6735 0.8069
H50 H 0.6881 0.6649 0.9300
O17 O 0.6693(9) 0.6453(3) 0.6283(9)
H51 H 0.6233 0.6330 0.5636
H52 H 0.7423 0.6549 0.5968
O18 O 0.4153(8) 0.7461(3) 0.9286(9)
H53 H 0.4724 0.7244 0.9019
H54 H 0.3555 0.7262 0.9562
O19 O 0.8818(8) 0.6872(3) 0.4876(9)
H55 H 0.8468 0.6617 0.4466
H56 H 0.9639 0.6873 0.4895
loop_
_geom_bond_atom_site_label_1
_geom_bond_atom_site_label_2
_geom_bond_site_symmetry_1
_geom_bond_site_symmetry_2
Pb1 O1 1_555 1_555
O1 C1 1_555 1_555
O2 Pb1 1_555 1_555
O3 C5 1_555 1_555
O4 C5 1_555 1_555
N1 Pb1 1_555 1_555
N2 Pb1 1_555 1_555
C1 O2 1_555 1_555
C2 C1 1_555 1_555
H1 C2 1_555 1_555
H2 C2 1_555 1_555
C3 C2 1_555 1_555
H3 C3 1_555 1_555
H4 C3 1_555 1_555
C4 C3 1_555 1_555
H5 C4 1_555 1_555
H6 C4 1_555 1_555
C5 C4 1_555 1_555
C6 N1 1_555 1_555
H7 C6 1_555 1_555
C7 C6 1_555 1_555
H8 C7 1_555 1_555
C8 C7 1_555 1_555
H9 C8 1_555 1_555
C9 C8 1_555 1_555
C10 C9 1_555 1_555
H10 C10 1_555 1_555
C11 C10 1_555 1_555
H11 C11 1_555 1_555
C12 C11 1_555 1_555
C13 C12 1_555 1_555
H12 C13 1_555 1_555
C14 C13 1_555 1_555
H13 C14 1_555 1_555
C15 N2 1_555 1_555
H14 C15 1_555 1_555
C16 N2 1_555 1_555
C17 N1 1_555 1_555
Pb2 O5 1_555 1_555
O5 C18 1_555 1_555
O6 Pb2 1_555 1_555
O7 C22 1_555 1_555
O8 Pb1 1_555 1_555
N3 Pb2 1_555 1_555
N4 Pb2 1_555 1_555
C18 O6 1_555 1_555
C19 C18 1_555 1_555
H15 C19 1_555 1_555
H16 C19 1_555 1_555
C20 C19 1_555 1_555
H17 C20 1_555 1_555
H18 C20 1_555 1_555
C21 C20 1_555 1_555
H19 C21 1_555 1_555
H20 C21 1_555 1_555
C22 O8 1_555 1_555
C23 N3 1_555 1_555
H21 C23 1_555 1_555
C24 C23 1_555 1_555
H22 C24 1_555 1_555
C25 C24 1_555 1_555
H23 C25 1_555 1_555
C26 C25 1_555 1_555
C27 C26 1_555 1_555
H24 C27 1_555 1_555
C28 C27 1_555 1_555
H25 C28 1_555 1_555
C29 C28 1_555 1_555
C30 C29 1_555 1_555
H26 C30 1_555 1_555
C31 C30 1_555 1_555
H27 C31 1_555 1_555
C32 N4 1_555 1_555
H28 C32 1_555 1_555
C33 N4 1_555 1_555
C34 N3 1_555 1_555
Pb3 O9 1_555 1_555
O9 C35 1_555 1_555
O10 Pb3 1_555 1_555
O11 C39 1_555 1_555
O12 C39 1_555 1_555
N5 Pb3 1_555 1_555
N6 Pb3 1_555 1_555
C35 O10 1_555 1_555
C36 C35 1_555 1_555
H29 C36 1_555 1_555
H30 C36 1_555 1_555
C37 C36 1_555 1_555
H31 C37 1_555 1_555
H32 C37 1_555 1_555
C38 C37 1_555 1_555
H33 C38 1_555 1_555
H34 C38 1_555 1_555
C39 C38 1_555 1_555
C40 N5 1_555 1_555
H35 C40 1_555 1_555
C41 C40 1_555 1_555
H36 C41 1_555 1_555
C42 C41 1_555 1_555
H37 C42 1_555 1_555
C43 C42 1_555 1_555
C44 C43 1_555 1_555
H38 C44 1_555 1_555
C45 C44 1_555 1_555
H39 C45 1_555 1_555
C46 C45 1_555 1_555
C47 C46 1_555 1_555
H40 C47 1_555 1_555
C48 C47 1_555 1_555
H41 C48 1_555 1_555
C49 N6 1_555 1_555
H42 C49 1_555 1_555
C50 N6 1_555 1_555
C51 N5 1_555 1_555
O13 H43 1_555 1_555
H44 O13 1_555 1_555
O14 H45 1_555 1_555
H46 O14 1_555 1_555
O15 H47 1_555 1_555
H48 O15 1_555 1_555
O16 H49 1_555 1_555
H50 O16 1_555 1_555
O17 H51 1_555 1_555
H52 O17 1_555 1_555
O18 H53 1_555 1_555
H54 O18 1_555 1_555
O19 H55 1_555 1_555
H56 O19 1_555 1_555
Pb1_2 O3 1_555 1_555
O3_2 Pb1 1_555 1_555
O4_2 Pb1 1_555 1_555
Pb2_2 O7 1_555 1_555
O7_2 Pb2 1_555 1_555
O8_2 Pb2 1_555 1_555
Pb3_2 O11 1_555 1_555
O11_2 Pb3 1_555 1_555
O12_2 Pb3 1_555 1_555
O4 Pb1_2 1_555 1_555
C9 C17 1_555 1_555
C12 C16 1_555 1_555
C14 C15 1_555 1_555
C16 C17 1_555 1_555
O8 Pb2_2 1_555 1_555
C21 C22 1_555 1_555
C26 C34 1_555 1_555
C29 C33 1_555 1_555
C31 C32 1_555 1_555
C33 C34 1_555 1_555
O12 Pb3_2 1_555 1_555
C43 C51 1_555 1_555
C46 C50 1_555 1_555
C48 C49 1_555 1_555
C50 C51 1_555 1_555

#END
