
#######################################################################
#
#                 Cambridge Crystallographic Data Centre
#                                CCDC 
#
#######################################################################
#
# If this CIF has been generated from an entry in the Cambridge 
# Structural Database, then it will include bibliographic, chemical, 
# crystal, experimental, refinement or atomic coordinate data resulting 
# from the CCDC's data processing and validation procedures.
#
#######################################################################

data_GUGKIE01
_symmetry_cell_setting           monoclinic
_symmetry_space_group_name_H-M   'P 21/n'
_symmetry_Int_Tables_number      14
_space_group_name_Hall           '-P 2yn'
loop_
_symmetry_equiv_pos_site_id
_symmetry_equiv_pos_as_xyz
1 x,y,z
2 1/2-x,1/2+y,1/2-z
3 -x,-y,-z
4 1/2+x,1/2-y,1/2+z
_cell_length_a                   11.12310(10)
_cell_length_b                   29.0062(4)
_cell_length_c                   14.7756(2)
_cell_angle_alpha                90
_cell_angle_beta                 91.5430(10)
_cell_angle_gamma                90
_cell_volume                     4765.45
loop_
_atom_site_label
_atom_site_type_symbol
_atom_site_fract_x
_atom_site_fract_y
_atom_site_fract_z
Zn1 Zn 0.08517(3) 0.672007(12) 0.35520(2)
O1 O 0.13586(18) 0.68607(7) 0.48132(13)
O2 O 0.01806(18) 0.60890(7) 0.36932(13)
N1 N 0.2451(2) 0.67152(9) 0.28958(17)
O3 O -0.04885(17) 0.71201(7) 0.31935(13)
C1 C 0.1389(2) 0.72864(10) 0.50058(19)
C2 C 0.0923(3) 0.58184(10) 0.40998(19)
C3 C 0.3444(3) 0.66860(11) 0.3438(2)
C4 C 0.2589(3) 0.66486(12) 0.2009(2)
C5 C -0.0869(3) 0.70698(10) 0.23834(19)
O4 O 0.1367(2) 0.76034(8) 0.44411(14)
C6 C 0.1557(3) 0.74067(10) 0.59935(18)
O5 O 0.20300(19) 0.58787(8) 0.41491(16)
C7 C 0.0411(3) 0.53995(10) 0.45636(19)
H1 H 0.3372 0.6746 0.4067
C8 C 0.4553(3) 0.65729(11) 0.3120(2)
C9 C 0.3683(3) 0.65369(12) 0.1642(2)
H2 H 0.1906 0.6679 0.1613
C10 C -0.2082(3) 0.72782(10) 0.21542(19)
O6 O -0.0299(2) 0.68728(8) 0.17852(15)
C11 C 0.2649(3) 0.76069(10) 0.62541(19)
C12 C 0.0698(2) 0.73215(9) 0.66455(18)
C13 C -0.0773(3) 0.53764(10) 0.48645(19)
C14 C 0.1166(3) 0.50223(10) 0.47113(19)
H3 H 0.5228 0.6556 0.3527
C15 C 0.4696(3) 0.64827(10) 0.2208(2)
H4 H 0.3743 0.6497 0.1006
C16 C -0.2942(2) 0.73666(9) 0.28045(18)
H5 H 0.3227 0.7667 0.5807
C17 C 0.0962(2) 0.74317(10) 0.75456(19)
C18 C -0.0514(2) 0.71119(9) 0.64178(19)
C19 C -0.1630(3) 0.57769(10) 0.48175(19)
H6 H 0.1972 0.5038 0.4517
C20 C 0.5880(3) 0.63339(10) 0.1865(2)
C21 C -0.2778(2) 0.72429(10) 0.37932(18)
H7 H 0.0386 0.7368 0.7992
O7 O -0.10843(18) 0.69142(8) 0.70134(14)
O8 O -0.08704(18) 0.71523(7) 0.55969(13)
O9 O -0.25735(19) 0.57430(8) 0.43595(15)
O10 O -0.13210(19) 0.61172(7) 0.53194(13)
C22 C 0.6193(3) 0.64029(12) 0.0968(2)
C23 C 0.6721(3) 0.61212(11) 0.2442(2)
O11 O -0.26434(18) 0.68187(7) 0.39674(13)
O12 O -0.2836(2) 0.75527(8) 0.43656(14)
Zn2 Zn -0.21211(3) 0.671828(12) 0.52326(2)
H8 H 0.5644 0.6547 0.0555
C24 C 0.7302(3) 0.62610(12) 0.0684(2)
C25 C 0.7816(3) 0.59893(11) 0.2129(2)
H9 H 0.6533 0.6067 0.3056
N2 N -0.3717(2) 0.66372(9) 0.58475(17)
N3 N 0.8090(2) 0.60563(9) 0.12562(18)
H10 H 0.7512 0.6309 0.0072
H11 H 0.8387 0.5849 0.2531
C26 C -0.4088(3) 0.68670(11) 0.6565(2)
C27 C -0.4468(3) 0.63181(13) 0.5468(2)
C28 C 0.9313(3) 0.59219(12) 0.0949(3)
C29 C -0.5201(3) 0.67917(12) 0.6936(2)
H12 H -0.3570 0.7092 0.6834
H13 H -0.4204 0.6147 0.4962
C30 C -0.5595(3) 0.62330(13) 0.5790(2)
H14 H 0.9919 0.6132 0.1228
H15 H 0.9343 0.5959 0.0284
C31 C 0.9628(3) 0.54331(12) 0.1196(2)
C32 C -0.5982(3) 0.64729(11) 0.6538(2)
H16 H -0.5429 0.6957 0.7459
H17 H -0.6104 0.6011 0.5501
C33 C 1.0576(3) 0.53403(13) 0.1790(2)
C34 C 0.8982(3) 0.50693(13) 0.0812(3)
C35 C -0.7181(3) 0.63751(11) 0.6914(2)
H18 H 1.1037 0.5587 0.2039
C36 C 1.0864(3) 0.48880(13) 0.2027(2)
C37 C 0.9272(3) 0.46203(13) 0.1039(2)
H19 H 0.8338 0.5129 0.0393
C38 C -0.7434(3) 0.64839(11) 0.7801(2)
C39 C -0.8083(3) 0.61680(12) 0.6382(2)
H20 H 1.1513 0.4828 0.2442
C40 C 1.0203(3) 0.45266(12) 0.1658(2)
H21 H 0.8832 0.4373 0.0770
C41 C -0.8525(3) 0.63692(11) 0.8147(2)
H22 H -0.6849 0.6638 0.8171
H23 H -0.7953 0.6104 0.5761
C42 C -0.9157(3) 0.60568(12) 0.6757(2)
C43 C 1.0460(3) 0.40307(12) 0.1948(2)
N4 N -0.9355(2) 0.61505(9) 0.76311(18)
H24 H -0.8695 0.6445 0.8756
H25 H -0.9768 0.5912 0.6396
H26 H 1.0664 0.3841 0.1416
H27 H 1.1146 0.4021 0.2388
C11C C -0.2351(3) 0.73931(10) 0.12541(19)
C10C C 0.2918(3) 0.77218(10) 0.71542(19)
C14B C -0.1166(3) 0.49777(10) 0.52887(19)
C13B C 0.0773(3) 0.46236(10) 0.51355(19)
H5C H -0.1773 0.7333 0.0807
C6C C -0.3443(3) 0.75933(10) 0.09935(18)
C17C C -0.4038(2) 0.75683(10) 0.25456(19)
C5C C 0.4131(3) 0.79302(10) 0.73834(19)
C16C C 0.2058(2) 0.76334(9) 0.78045(18)
C7B C -0.0411(3) 0.46005(10) 0.54364(19)
H6B H -0.1972 0.4962 0.5483
C19B C 0.1630(3) 0.42231(10) 0.51825(19)
C12C C -0.4302(2) 0.76785(9) 0.16455(18)
C1C C -0.3611(2) 0.77136(10) 0.00058(19)
H7C H -0.4614 0.7632 0.2992
O3C O 0.45115(17) 0.78799(7) 0.81935(13)
O6C O 0.4701(2) 0.81272(8) 0.67852(15)
C21C C 0.2222(2) 0.77571(10) 0.87932(18)
C2B C -0.0923(3) 0.41816(10) 0.59002(19)
O9B O 0.25735(19) 0.42570(8) 0.56405(15)
O10B O 0.13210(19) 0.38828(7) 0.46806(13)
C18C C -0.5514(2) 0.78881(9) 0.14178(19)
O4C O -0.3633(2) 0.73966(8) -0.05589(14)
O1C O -0.36414(18) 0.81393(7) -0.01868(13)
Zn1C Zn 0.58517(3) 0.827993(12) 0.85520(2)
O11C O 0.23566(18) 0.81813(7) 0.89674(13)
O12C O 0.2164(2) 0.74473(8) 0.93656(14)
O2B O -0.01806(18) 0.39110(7) 0.63068(13)
O5B O -0.20300(19) 0.41213(8) 0.58509(16)
Zn2B Zn 0.21211(3) 0.328172(12) 0.47674(2)
O7C O -0.60843(18) 0.80858(8) 0.20134(14)
O8C O -0.58704(18) 0.78477(7) 0.05969(13)
Zn1C_2 Zn -0.41483(3) 0.827993(12) -0.14480(2)
Zn2C Zn 0.28789(3) 0.828172(12) 1.02326(2)
Zn1B Zn -0.08517(3) 0.327993(12) 0.64480(2)
N2B N 0.3717(2) 0.33628(9) 0.41525(17)
O8B O 0.08704(18) 0.28477(7) 0.44031(13)
O11B O 0.26434(18) 0.31813(7) 0.60326(13)
Zn2C_2 Zn -0.71211(3) 0.828172(12) 0.02326(2)
O1B O -0.13586(18) 0.31393(7) 0.51868(13)
N1B N -0.2451(2) 0.32848(9) 0.71042(17)
O3B O 0.04885(17) 0.28799(7) 0.68065(13)
C26B C 0.4088(3) 0.31330(11) 0.3435(2)
C27B C 0.4468(3) 0.36819(13) 0.4532(2)
C3B C -0.3444(3) 0.33140(11) 0.6562(2)
C4B C -0.2589(3) 0.33514(12) 0.7991(2)
C29B C 0.5201(3) 0.32083(12) 0.3064(2)
H12B H 0.3570 0.2908 0.3166
H13B H 0.4204 0.3853 0.5038
C30B C 0.5595(3) 0.37670(13) 0.4210(2)
H1B H -0.3372 0.3254 0.5933
C8B C -0.4553(3) 0.34271(11) 0.6880(2)
C9B C -0.3683(3) 0.34631(12) 0.8358(2)
H2B H -0.1906 0.3321 0.8387
C32B C 0.5982(3) 0.35271(11) 0.3462(2)
H16B H 0.5429 0.3043 0.2541
H17B H 0.6104 0.3989 0.4499
H3B H -0.5228 0.3444 0.6473
C15B C -0.4696(3) 0.35173(10) 0.7792(2)
H4B H -0.3743 0.3503 0.8994
C35B C 0.7181(3) 0.36249(11) 0.3086(2)
C20B C -0.5880(3) 0.36661(10) 0.8135(2)
C38B C 0.7434(3) 0.35161(11) 0.2199(2)
C39B C 0.8083(3) 0.38320(12) 0.3618(2)
C22B C -0.6193(3) 0.35971(12) 0.9032(2)
C23B C -0.6721(3) 0.38788(11) 0.7558(2)
C41B C 0.8525(3) 0.36308(11) 0.1853(2)
H22B H 0.6849 0.3362 0.1829
H23B H 0.7953 0.3896 0.4239
C42B C 0.9157(3) 0.39432(12) 0.3243(2)
N4B N 0.9355(2) 0.38495(9) 0.23689(18)
C43B C -1.0460(3) 0.59693(12) 0.8052(2)
H8B H -0.5644 0.3453 0.9445
C24B C -0.7302(3) 0.37390(12) 0.9316(2)
C25B C -0.7816(3) 0.40107(11) 0.7871(2)
H9B H -0.6533 0.3933 0.6944
H24B H 0.8695 0.3555 0.1244
H25B H 0.9768 0.4088 0.3604
C40B C -1.0203(3) 0.54734(12) 0.8342(2)
H26B H -1.0664 0.6159 0.8584
H27B H -1.1146 0.5979 0.7612
N3B N -0.8090(2) 0.39437(9) 0.87438(18)
H10B H -0.7512 0.3691 0.9928
H11B H -0.8387 0.4151 0.7469
C36B C -1.0864(3) 0.51120(13) 0.7973(2)
C37B C -0.9272(3) 0.53797(13) 0.8961(2)
C28B C -0.9313(3) 0.40781(12) 0.9051(3)
C33B C -1.0576(3) 0.46597(13) 0.8210(2)
H20B H -1.1513 0.5172 0.7558
C34B C -0.8982(3) 0.49307(13) 0.9188(3)
H21B H -0.8832 0.5627 0.9230
H14B H -0.9919 0.3868 0.8772
H15B H -0.9343 0.4041 0.9716
C31B C -0.9628(3) 0.45669(12) 0.8804(2)
H18B H -1.1037 0.4413 0.7961
H19B H -0.8338 0.4871 0.9607
O13 O 0.5478(3) 0.81936(11) 0.4969(2)
H28 H 0.597(4) 0.7998(15) 0.481(3)
H29 H 0.516(5) 0.8141(18) 0.546(2)
O14 O 0.5756(2) 0.31206(9) 0.05589(17)
H30 H 0.6383(19) 0.2979(12) 0.046(3)
H31 H 0.515(2) 0.2955(11) 0.057(3)
O15 O 0.3642(4) 0.54310(17) 0.2998(3)
H32 H 0.416(5) 0.539(3) 0.341(3)
H33 H 0.307(5) 0.559(2) 0.317(4)
O16 O 0.2490(3) 0.32943(10) 0.1458(2)
O17 O 0.672(3) 0.4915(10) 0.351(2)
O18 O 0.4245(14) 0.5385(3) 0.1177(7)
O19 O 0.3547(8) 0.4590(2) 0.0295(6)
O20 O 0.5908(8) 0.4544(3) 0.2379(9)
O21 O 0.6586(9) 0.4100(4) 0.0368(7)
O22 O 0.4477(8) 0.3874(3) 0.1367(5)
O23 O 0.319(3) 0.4367(13) 0.313(3)
O24? O 0.160(2) 0.3115(9) 0.1156(14)
O25? O 0.448(4) 0.496(2) 0.423(4)
O26? O 0.3641(12) 0.5188(9) 0.1193(13)
O27? O 0.6082(8) 0.5081(5) 0.0989(10)
O28? O 0.564(2) 0.4135(10) 0.0577(19)
O29? O 0.3534(10) 0.4143(4) 0.1727(10)
O30? O 0.5639(6) 0.5070(2) 0.4057(5)
O31? O 0.606(4) 0.486(2) 0.182(2)
loop_
_geom_bond_atom_site_label_1
_geom_bond_atom_site_label_2
_geom_bond_site_symmetry_1
_geom_bond_site_symmetry_2
Zn1 O1 1_555 1_555
O1 C1 1_555 1_555
O2 Zn1 1_555 1_555
N1 Zn1 1_555 1_555
O3 Zn1 1_555 1_555
C1 O4 1_555 1_555
C2 O2 1_555 1_555
C3 N1 1_555 1_555
C4 N1 1_555 1_555
C5 O3 1_555 1_555
C6 C1 1_555 1_555
O5 C2 1_555 1_555
C7 C2 1_555 1_555
H1 C3 1_555 1_555
C8 C3 1_555 1_555
C9 C4 1_555 1_555
H2 C4 1_555 1_555
C10 C5 1_555 1_555
O6 C5 1_555 1_555
C11 C6 1_555 1_555
C12 C6 1_555 1_555
C13 C7 1_555 1_555
C14 C7 1_555 1_555
H3 C8 1_555 1_555
C15 C8 1_555 1_555
H4 C9 1_555 1_555
C16 C10 1_555 1_555
H5 C11 1_555 1_555
C17 C12 1_555 1_555
C18 C12 1_555 1_555
C19 C13 1_555 1_555
H6 C14 1_555 1_555
C20 C15 1_555 1_555
C21 C16 1_555 1_555
H7 C17 1_555 1_555
O7 C18 1_555 1_555
O8 C18 1_555 1_555
O9 C19 1_555 1_555
O10 C19 1_555 1_555
C22 C20 1_555 1_555
C23 C20 1_555 1_555
O11 C21 1_555 1_555
O12 C21 1_555 1_555
Zn2 O8 1_555 1_555
H8 C22 1_555 1_555
C24 C22 1_555 1_555
C25 C23 1_555 1_555
H9 C23 1_555 1_555
N2 Zn2 1_555 1_555
N3 C24 1_555 1_555
H10 C24 1_555 1_555
H11 C25 1_555 1_555
C26 N2 1_555 1_555
C27 N2 1_555 1_555
C28 N3 1_555 1_555
C29 C26 1_555 1_555
H12 C26 1_555 1_555
H13 C27 1_555 1_555
C30 C27 1_555 1_555
H14 C28 1_555 1_555
H15 C28 1_555 1_555
C31 C28 1_555 1_555
C32 C29 1_555 1_555
H16 C29 1_555 1_555
H17 C30 1_555 1_555
C33 C31 1_555 1_555
C34 C31 1_555 1_555
C35 C32 1_555 1_555
H18 C33 1_555 1_555
C36 C33 1_555 1_555
C37 C34 1_555 1_555
H19 C34 1_555 1_555
C38 C35 1_555 1_555
C39 C35 1_555 1_555
H20 C36 1_555 1_555
C40 C36 1_555 1_555
H21 C37 1_555 1_555
C41 C38 1_555 1_555
H22 C38 1_555 1_555
H23 C39 1_555 1_555
C42 C39 1_555 1_555
C43 C40 1_555 1_555
N4 C41 1_555 1_555
H24 C41 1_555 1_555
H25 C42 1_555 1_555
H26 C43 1_555 1_555
H27 C43 1_555 1_555
O13 H28 1_555 1_555
H29 O13 1_555 1_555
O14 H30 1_555 1_555
H31 O14 1_555 1_555
O15 H32 1_555 1_555
H33 O15 1_555 1_555
C11C C10 1_555 1_555
C10C C11 1_555 1_555
C14B C13 1_555 1_555
C13B C14 1_555 1_555
H5C C11C 1_555 1_555
C6C C11C 1_555 1_555
C17C C16 1_555 1_555
C5C C10C 1_555 1_555
C16C C17 1_555 1_555
C7B C14B 1_555 1_555
H6B C14B 1_555 1_555
C19B C13B 1_555 1_555
C12C C6C 1_555 1_555
C1C C6C 1_555 1_555
H7C C17C 1_555 1_555
O3C C5C 1_555 1_555
O6C C5C 1_555 1_555
C21C C16C 1_555 1_555
C2B C7B 1_555 1_555
O9B C19B 1_555 1_555
O10B C19B 1_555 1_555
C18C C12C 1_555 1_555
O4C C1C 1_555 1_555
O1C C1C 1_555 1_555
Zn1C O3C 1_555 1_555
O11C C21C 1_555 1_555
O12C C21C 1_555 1_555
O2B C2B 1_555 1_555
O5B C2B 1_555 1_555
Zn2B O10B 1_555 1_555
O7C C18C 1_555 1_555
O8C C18C 1_555 1_555
Zn1C_2 O1C 1_555 1_555
Zn2C O11C 1_555 1_555
Zn1B O2B 1_555 1_555
N2B Zn2B 1_555 1_555
O8B Zn2B 1_555 1_555
O11B Zn2B 1_555 1_555
Zn2C_2 O8C 1_555 1_555
O1B Zn1B 1_555 1_555
N1B Zn1B 1_555 1_555
O3B Zn1B 1_555 1_555
C26B N2B 1_555 1_555
C27B N2B 1_555 1_555
C3B N1B 1_555 1_555
C4B N1B 1_555 1_555
C29B C26B 1_555 1_555
H12B C26B 1_555 1_555
H13B C27B 1_555 1_555
C30B C27B 1_555 1_555
H1B C3B 1_555 1_555
C8B C3B 1_555 1_555
C9B C4B 1_555 1_555
H2B C4B 1_555 1_555
C32B C29B 1_555 1_555
H16B C29B 1_555 1_555
H17B C30B 1_555 1_555
H3B C8B 1_555 1_555
C15B C8B 1_555 1_555
H4B C9B 1_555 1_555
C35B C32B 1_555 1_555
C20B C15B 1_555 1_555
C38B C35B 1_555 1_555
C39B C35B 1_555 1_555
C22B C20B 1_555 1_555
C23B C20B 1_555 1_555
C41B C38B 1_555 1_555
H22B C38B 1_555 1_555
H23B C39B 1_555 1_555
C42B C39B 1_555 1_555
N4B C43 1_555 1_555
C43B N4 1_555 1_555
H8B C22B 1_555 1_555
C24B C22B 1_555 1_555
C25B C23B 1_555 1_555
H9B C23B 1_555 1_555
H24B C41B 1_555 1_555
H25B C42B 1_555 1_555
C40B C43B 1_555 1_555
H26B C43B 1_555 1_555
H27B C43B 1_555 1_555
N3B C24B 1_555 1_555
H10B C24B 1_555 1_555
H11B C25B 1_555 1_555
C36B C40B 1_555 1_555
C37B C40B 1_555 1_555
C28B N3B 1_555 1_555
C33B C36B 1_555 1_555
H20B C36B 1_555 1_555
C34B C37B 1_555 1_555
H21B C37B 1_555 1_555
H14B C28B 1_555 1_555
H15B C28B 1_555 1_555
C31B C28B 1_555 1_555
H18B C33B 1_555 1_555
H19B C34B 1_555 1_555
C9 C15 1_555 1_555
O10 Zn2 1_555 1_555
O11 Zn2 1_555 1_555
C25 N3 1_555 1_555
C30 C32 1_555 1_555
C37 C40 1_555 1_555
C42 N4 1_555 1_555
C10C C16C 1_555 1_555
C13B C7B 1_555 1_555
C17C C12C 1_555 1_555
C30B C32B 1_555 1_555
C9B C15B 1_555 1_555
C41B N4B 1_555 1_555
C42B N4B 1_555 1_555
C25B N3B 1_555 1_555
C33B C31B 1_555 1_555
C34B C31B 1_555 1_555

#END
