
#######################################################################
#
#                 Cambridge Crystallographic Data Centre
#                                CCDC 
#
#######################################################################
#
# If this CIF has been generated from an entry in the Cambridge 
# Structural Database, then it will include bibliographic, chemical, 
# crystal, experimental, refinement or atomic coordinate data resulting 
# from the CCDC's data processing and validation procedures.
#
#######################################################################

data_GUGPIJ
_symmetry_cell_setting           monoclinic
_symmetry_space_group_name_H-M   'P 21/n'
_symmetry_Int_Tables_number      14
_space_group_name_Hall           '-P 2yn'
loop_
_symmetry_equiv_pos_site_id
_symmetry_equiv_pos_as_xyz
1 x,y,z
2 1/2-x,1/2+y,1/2-z
3 -x,-y,-z
4 1/2+x,1/2-y,1/2+z
_cell_length_a                   10.8803(3)
_cell_length_b                   16.1412(5)
_cell_length_c                   11.5205(4)
_cell_angle_alpha                90
_cell_angle_beta                 101.72
_cell_angle_gamma                90
_cell_volume                     1981.06
loop_
_atom_site_label
_atom_site_type_symbol
_atom_site_fract_x
_atom_site_fract_y
_atom_site_fract_z
Dy1 Dy 0.891075(10) 1.027856(7) 0.110401(10)
N1 N 0.8208(3) 0.97491(16) 0.2981(2)
N2 N 0.4644(3) 0.8962(2) 0.7354(3)
O1 O 0.7706(2) 0.90614(14) 0.03247(19)
O2 O 0.92927(17) 0.92719(11) -0.05216(17)
O3 O 0.9673(2) 0.90820(15) -0.2820(2)
O4 O 1.0896(2) 0.81812(15) -0.1428(3)
O5 O 1.0145(3) 0.7696(2) -0.3446(3)
O6 O 0.68191(19) 0.58599(13) -0.42211(17)
O7 O 0.5343(2) 0.57409(13) -0.31202(18)
S1 S 0.99021(8) 0.82092(5) -0.24923(8)
C1 C 0.8352(2) 0.88454(16) -0.0413(2)
C2 C 0.7963(3) 0.80875(17) -0.1163(2)
C3 C 0.6933(3) 0.76592(19) -0.0925(3)
H1 H 0.6582 0.7827 -0.0291
C4 C 0.6413(3) 0.69885(19) -0.1607(3)
H2 H 0.5729 0.6709 -0.1426
C5 C 0.6921(3) 0.67385(17) -0.2557(2)
C6 C 0.7975(3) 0.71382(17) -0.2786(2)
H3 H 0.8330 0.6958 -0.3410
C7 C 0.8510(3) 0.78018(17) -0.2099(2)
C8 C 0.6312(3) 0.60539(16) -0.3370(2)
C9 C 0.8242(6) 1.0223(3) 0.3920(4)
H4 H 0.8695 1.0714 0.3966
C10 C 0.7649(6) 1.0036(4) 0.4837(4)
H5 H 0.7706 1.0401 0.5470
C11 C 0.6982(3) 0.9321(2) 0.4823(3)
C12 C 0.7061(6) 0.8799(3) 0.3931(4)
H6 H 0.6701 0.8276 0.3913
C13 C 0.7672(6) 0.9034(3) 0.3041(4)
H7 H 0.7703 0.8653 0.2442
C14 C 0.6224(3) 0.9157(2) 0.5735(3)
C15 C 0.6331(5) 0.9644(3) 0.6726(4)
H8 H 0.6946 1.0052 0.6878
C16 C 0.5525(5) 0.9529(3) 0.7502(4)
H9 H 0.5613 0.9873 0.8162
C17 C 0.4588(5) 0.8460(4) 0.6439(4)
H10 H 0.4003 0.8033 0.6344
C18 C 0.5344(5) 0.8531(3) 0.5614(4)
H11 H 0.5261 0.8161 0.4984
O8 O 0.6843(2) 1.07336(16) 0.1045(2)
Dy1A Dy 0.608925(10) 0.527856(7) -0.610401(10)
Dy1B Dy 1.108925(10) 0.972144(7) -0.110401(10)
Dy1C Dy 0.391075(10) 0.472144(7) -0.389599(10)
O2B O 1.07073(17) 1.07281(11) 0.05216(17)
O3B O 1.0327(2) 1.09180(15) 0.2820(2)
O4B O 0.9104(2) 1.18188(15) 0.1428(3)
O6A O 0.81809(19) 1.08599(13) -0.07789(17)
O7C O 1.0343(2) 0.92591(13) 0.18798(18)
O9 O 0.4874(3) 0.1072(2) 0.9240(3)
loop_
_geom_bond_atom_site_label_1
_geom_bond_atom_site_label_2
_geom_bond_site_symmetry_1
_geom_bond_site_symmetry_2
Dy1 N1 1_555 1_555
N1 C9 1_555 1_555
N2 C16 1_555 1_555
O1 Dy1 1_555 1_555
O2 Dy1 1_555 1_555
O3 S1 1_555 1_555
O4 S1 1_555 1_555
O5 S1 1_555 1_555
O6 C8 1_555 1_555
O7 C8 1_555 1_555
S1 C7 1_555 1_555
C1 O1 1_555 1_555
C2 C1 1_555 1_555
C3 C2 1_555 1_555
H1 C3 1_555 1_555
C4 C3 1_555 1_555
H2 C4 1_555 1_555
C5 C4 1_555 1_555
C6 C5 1_555 1_555
H3 C6 1_555 1_555
C7 C2 1_555 1_555
C8 C5 1_555 1_555
C9 H4 1_555 1_555
C10 C9 1_555 1_555
H5 C10 1_555 1_555
C11 C10 1_555 1_555
C12 C11 1_555 1_555
H6 C12 1_555 1_555
C13 N1 1_555 1_555
H7 C13 1_555 1_555
C14 C11 1_555 1_555
C15 C14 1_555 1_555
H8 C15 1_555 1_555
C16 C15 1_555 1_555
H9 C16 1_555 1_555
C17 N2 1_555 1_555
H10 C17 1_555 1_555
C18 C14 1_555 1_555
H11 C18 1_555 1_555
O8 Dy1 1_555 1_555
Dy1A O6 1_555 1_555
Dy1B O2 1_555 1_555
Dy1C O7 1_555 1_555
O2B Dy1 1_555 1_555
O3B Dy1 1_555 1_555
O4B Dy1 1_555 1_555
O6A Dy1 1_555 1_555
O7C Dy1 1_555 1_555
O2 C1 1_555 1_555
O3 Dy1B 1_555 1_555
O4 Dy1B 1_555 1_555
C6 C7 1_555 1_555
C12 C13 1_555 1_555
C17 C18 1_555 1_555
Dy1B O2B 1_555 1_555

#END
