
#######################################################################
#
#                 Cambridge Crystallographic Data Centre
#                                CCDC 
#
#######################################################################
#
# If this CIF has been generated from an entry in the Cambridge 
# Structural Database, then it will include bibliographic, chemical, 
# crystal, experimental, refinement or atomic coordinate data resulting 
# from the CCDC's data processing and validation procedures.
#
#######################################################################

data_GUGPOP
_symmetry_cell_setting           monoclinic
_symmetry_space_group_name_H-M   'P 21/n'
_symmetry_Int_Tables_number      14
_space_group_name_Hall           '-P 2yn'
loop_
_symmetry_equiv_pos_site_id
_symmetry_equiv_pos_as_xyz
1 x,y,z
2 1/2-x,1/2+y,1/2-z
3 -x,-y,-z
4 1/2+x,1/2-y,1/2+z
_cell_length_a                   10.8801(3)
_cell_length_b                   16.1493(5)
_cell_length_c                   11.5190(4)
_cell_angle_alpha                90
_cell_angle_beta                 101.75
_cell_angle_gamma                90
_cell_volume                     1981.55
loop_
_atom_site_label
_atom_site_type_symbol
_atom_site_fract_x
_atom_site_fract_y
_atom_site_fract_z
Eu1 Eu 0.891032(7) -0.027883(5) 0.610331(7)
N1 N 0.82037(19) 0.02512(12) 0.79812(18)
N2 N 0.4642(2) 0.10351(18) 1.2354(2)
O1 O 0.77043(14) 0.09372(10) 0.53224(14)
O2 O 0.92933(13) 0.07283(9) 0.44784(12)
O3 O 1.08973(15) 0.18197(11) 0.35794(19)
O4 O 0.96764(17) 0.09185(11) 0.21798(15)
O5 O 1.01473(19) 0.23046(13) 0.15593(19)
O6 O 0.68211(13) 0.41422(10) 0.07837(13)
O7 O 0.53428(14) 0.42605(9) 0.18795(13)
O8 O 0.68493(14) -0.07307(12) 0.60448(15)
H1 H 0.639(2) -0.0983(14) 0.5472(17)
H2 H 0.6472(19) -0.0881(17) 0.6594(16)
S1 S 0.99046(5) 0.17927(4) 0.25100(5)
C1 C 0.79607(19) 0.19114(12) 0.38383(18)
C2 C 0.6930(2) 0.23402(14) 0.4074(2)
H3 H 0.6578 0.2173 0.4706
C3 C 0.6413(2) 0.30095(14) 0.3393(2)
H4 H 0.5727 0.3288 0.3574
C4 C 0.69206(19) 0.32625(12) 0.24423(18)
C5 C 0.79771(19) 0.28620(13) 0.22147(19)
H5 H 0.8330 0.3041 0.1588
C6 C 0.85168(18) 0.21996(13) 0.29035(18)
C7 C 0.83522(18) 0.11534(12) 0.45853(18)
C8 C 0.63140(19) 0.39470(12) 0.16321(18)
C9 C 0.8246(4) -0.0220(2) 0.8923(3)
H6 H 0.8700 -0.0711 0.8967
C10 C 0.7663(4) -0.0032(2) 0.9847(3)
H7 H 0.7735 -0.0391 1.0490
C11 C 0.6981(2) 0.06781(15) 0.9819(2)
C12 C 0.7043(4) 0.1196(2) 0.8920(3)
H8 H 0.6664 0.1714 0.8890
C13 C 0.7667(4) 0.0963(2) 0.8035(3)
H9 H 0.7703 0.1345 0.7439
C14 C 0.6219(2) 0.08380(16) 1.0734(2)
C15 C 0.6333(3) 0.0351(2) 1.1727(3)
H10 H 0.6949 -0.0057 1.1879
C16 C 0.5531(3) 0.0467(2) 1.2502(3)
H11 H 0.5623 0.0126 1.3164
C17 C 0.4586(3) 0.1534(3) 1.1443(3)
H12 H 0.3999 0.1960 1.1348
C18 C 0.5345(3) 0.1468(2) 1.0613(3)
H13 H 0.5265 0.1841 0.9987
Eu1A Eu 0.608968(7) 0.472117(5) -0.110331(7)
Eu1B Eu 1.108968(7) 0.027883(5) 0.389669(7)
Eu1C Eu 0.391032(7) 0.527883(5) 0.110331(7)
O2B O 1.07067(13) -0.07283(9) 0.55216(12)
O3B O 0.91027(15) -0.18197(11) 0.64206(19)
O4B O 1.03236(17) -0.09185(11) 0.78202(15)
O6A O 0.81789(13) -0.08578(10) 0.42163(13)
O7C O 1.03428(14) 0.07395(9) 0.68795(13)
O9 O 0.4880(3) 0.89296(17) 0.4239(2)
H14 H 0.4977 0.8383 0.4021
H15 H 0.4185 0.9161 0.4497
loop_
_geom_bond_atom_site_label_1
_geom_bond_atom_site_label_2
_geom_bond_site_symmetry_1
_geom_bond_site_symmetry_2
Eu1 N1 1_555 1_555
N1 C9 1_555 1_555
N2 C16 1_555 1_555
O1 Eu1 1_555 1_555
O2 Eu1 1_555 1_555
O3 S1 1_555 1_555
O4 S1 1_555 1_555
O5 S1 1_555 1_555
O6 C8 1_555 1_555
O7 C8 1_555 1_555
O8 Eu1 1_555 1_555
H1 O8 1_555 1_555
H2 O8 1_555 1_555
S1 C6 1_555 1_555
C1 C2 1_555 1_555
C2 H3 1_555 1_555
C3 C2 1_555 1_555
H4 C3 1_555 1_555
C4 C3 1_555 1_555
C5 C4 1_555 1_555
H5 C5 1_555 1_555
C6 C1 1_555 1_555
C7 O1 1_555 1_555
C8 C4 1_555 1_555
C9 H6 1_555 1_555
C10 C9 1_555 1_555
H7 C10 1_555 1_555
C11 C10 1_555 1_555
C12 C11 1_555 1_555
H8 C12 1_555 1_555
C13 N1 1_555 1_555
H9 C13 1_555 1_555
C14 C11 1_555 1_555
C15 C14 1_555 1_555
H10 C15 1_555 1_555
C16 C15 1_555 1_555
H11 C16 1_555 1_555
C17 N2 1_555 1_555
H12 C17 1_555 1_555
C18 C14 1_555 1_555
H13 C18 1_555 1_555
O9 H14 1_555 1_555
H15 O9 1_555 1_555
Eu1A O6 1_555 1_555
Eu1B O2 1_555 1_555
Eu1C O7 1_555 1_555
O2B Eu1 1_555 1_555
O3B Eu1 1_555 1_555
O4B Eu1 1_555 1_555
O6A Eu1 1_555 1_555
O7C Eu1 1_555 1_555
O2 C7 1_555 1_555
O3 Eu1B 1_555 1_555
O4 Eu1B 1_555 1_555
C1 C7 1_555 1_555
C5 C6 1_555 1_555
C12 C13 1_555 1_555
C17 C18 1_555 1_555
Eu1B O2B 1_555 1_555

#END
