
#######################################################################
#
#                 Cambridge Crystallographic Data Centre
#                                CCDC 
#
#######################################################################
#
# If this CIF has been generated from an entry in the Cambridge 
# Structural Database, then it will include bibliographic, chemical, 
# crystal, experimental, refinement or atomic coordinate data resulting 
# from the CCDC's data processing and validation procedures.
#
#######################################################################

data_GUGPAA
_symmetry_cell_setting           triclinic
_symmetry_space_group_name_H-M   'P -1'
_symmetry_Int_Tables_number      2
_space_group_name_Hall           '-P 1'
loop_
_symmetry_equiv_pos_site_id
_symmetry_equiv_pos_as_xyz
1 x,y,z
2 -x,-y,-z
_cell_length_a                   8.762(5)
_cell_length_b                   10.555(5)
_cell_length_c                   12.204(5)
_cell_angle_alpha                100.934(5)
_cell_angle_beta                 100.595(5)
_cell_angle_gamma                107.276(5)
_cell_volume                     1022.86
loop_
_atom_site_label
_atom_site_type_symbol
_atom_site_fract_x
_atom_site_fract_y
_atom_site_fract_z
Ag1 Ag 0.80379(7) 0.54388(7) -0.17924(5)
O1 O 0.5277(7) 0.4253(7) -0.2763(5)
N1 N 0.9148(7) 0.4802(6) -0.0238(6)
N2 N -0.1538(8) 0.1299(7) -0.0496(6)
N3 N 0.3281(8) 0.3257(8) -0.4452(6)
C1 C 0.8216(9) 0.4302(7) 0.0382(7)
H1 H 0.8703 0.4245 0.1107
C2 C 0.6462(9) 0.3831(8) -0.0001(7)
H2 H 0.5984 0.3845 -0.0743
C3 C 0.5448(8) 0.3361(7) 0.0664(6)
H3 H 0.5961 0.3366 0.1404
C4 C 0.3665(9) 0.2855(7) 0.0347(6)
C5 C 0.2823(10) 0.2448(8) 0.1169(7)
H4 H 0.3423 0.2505 0.1900
C6 C 0.1118(9) 0.1968(7) 0.0903(6)
H5 H 0.0594 0.1757 0.1476
C7 C 0.0132(9) 0.1783(7) -0.0227(7)
C8 C 0.1028(9) 0.2165(8) -0.1038(6)
H6 H 0.0446 0.2052 -0.1790
C9 C 0.2712(9) 0.2692(7) -0.0758(6)
H7 H 0.3241 0.2951 -0.1316
C10 C -0.2407(9) 0.0863(8) 0.0348(8)
H8 H -0.3578 0.0554 0.0016
H9 H -0.2107 0.1622 0.1015
H10 H -0.2110 0.0127 0.0572
C11 C -0.2500(10) 0.1062(9) -0.1671(8)
H11 H -0.3657 0.0722 -0.1705
H12 H -0.2235 0.0399 -0.2186
H13 H -0.2241 0.1909 -0.1895
C12 C 0.4816(10) 0.3606(9) -0.3803(7)
H14 H 0.5586 0.3355 -0.4143
C13 C 0.2000(11) 0.3618(12) -0.3975(8)
H15 H 0.0982 0.3285 -0.4567
H16 H 0.2338 0.4599 -0.3699
H17 H 0.1844 0.3207 -0.3349
C14 C 0.2815(12) 0.2524(11) -0.5670(7)
H18 H 0.1669 0.2365 -0.5993
H19 H 0.2992 0.1660 -0.5744
H20 H 0.3478 0.3065 -0.6074
O5 O 0.9295(9) 0.4978(7) -0.3272(6)
H21 H 0.9048 0.5334 -0.3787
H22 H 0.9817 0.5723 -0.2807
Ag1A Ag 1.19621(7) 0.45612(7) 0.17924(5)
Ag1A_2 Ag 0.19621(7) 0.45612(7) 0.17924(5)
Ag1_2 Ag 1.80379(7) 0.54388(7) -0.17924(5)
O1A O 1.4723(7) 0.5747(7) 0.2763(5)
N1A N 1.0852(7) 0.5198(6) 0.0238(6)
N2A N 2.1538(8) 0.8701(7) 0.0496(6)
N3A N 1.6719(8) 0.6743(8) 0.4452(6)
C1A C 1.1784(9) 0.5698(7) -0.0382(7)
H1A H 1.1297 0.5755 -0.1107
C2A C 1.3538(9) 0.6169(8) 0.0001(7)
H2A H 1.4016 0.6155 0.0743
C3A C 1.4552(8) 0.6639(7) -0.0664(6)
H3A H 1.4039 0.6634 -0.1404
C4A C 1.6335(9) 0.7145(7) -0.0347(6)
C5A C 1.7177(10) 0.7552(8) -0.1169(7)
C5A_2 C 0.7177(10) 0.7552(8) -0.1169(7)
C5_2 C 1.2823(10) 0.2448(8) 0.1169(7)
H4A H 1.6577 0.7495 -0.1900
H4A_2 H 0.6577 0.7495 -0.1900
H4_2 H 1.3423 0.2505 0.1900
C6A C 1.8882(9) 0.8032(7) -0.0903(6)
C6A_2 C 0.8882(9) 0.8032(7) -0.0903(6)
C6_2 C 1.1118(9) 0.1968(7) 0.0903(6)
H5A H 1.9406 0.8243 -0.1476
H5A_2 H 0.9406 0.8243 -0.1476
H5_2 H 1.0594 0.1757 0.1476
C7A C 1.9868(9) 0.8217(7) 0.0227(7)
C8A C 1.8972(9) 0.7835(8) 0.1038(6)
H6A H 1.9554 0.7948 0.1790
C9A C 1.7288(9) 0.7308(7) 0.0758(6)
H7A H 1.6759 0.7049 0.1316
C10A C 2.2407(9) 0.9137(8) -0.0348(8)
H8A H 2.3578 0.9446 -0.0016
H9A H 2.2107 0.8378 -0.1015
H10A H 2.2110 0.9873 -0.0572
C11A C 2.2500(10) 0.8938(9) 0.1671(8)
H11A H 2.3657 0.9278 0.1705
H12A H 2.2235 0.9601 0.2186
H13A H 2.2241 0.8091 0.1895
C12A C 1.5184(10) 0.6394(9) 0.3803(7)
H14A H 1.4414 0.6645 0.4143
C13A C 1.8000(11) 0.6382(12) 0.3975(8)
H15A H 1.9018 0.6715 0.4567
H16A H 1.7662 0.5401 0.3699
H17A H 1.8156 0.6793 0.3349
C14A C 1.7185(12) 0.7476(11) 0.5670(7)
H18A H 1.8331 0.7635 0.5993
H19A H 1.7008 0.8340 0.5744
H20A H 1.6522 0.6935 0.6074
O5A O 1.0705(9) 0.5022(7) 0.3272(6)
H21A H 1.0952 0.4666 0.3787
H22A H 1.0183 0.4277 0.2807
S1 S 0.2612(2) -0.2037(2) -0.37461(18)
F1 F 0.3004(10) 0.0488(7) -0.2763(7)
F2 F 0.1494(9) -0.0264(9) -0.4511(9)
F3 F 0.4118(8) 0.0290(6) -0.4149(6)
O2 O 0.4119(9) -0.1878(8) -0.2960(7)
O3 O 0.1129(8) -0.2468(7) -0.3353(6)
O4 O 0.2430(9) -0.2719(8) -0.4921(6)
C15 C 0.2825(12) -0.0279(11) -0.3797(9)
loop_
_geom_bond_atom_site_label_1
_geom_bond_atom_site_label_2
_geom_bond_site_symmetry_1
_geom_bond_site_symmetry_2
Ag1 O1 1_555 1_555
S1 O2 1_555 1_555
F1 C15 1_555 1_555
F2 C15 1_555 1_555
F3 C15 1_555 1_555
O1 C12 1_555 1_555
O3 S1 1_555 1_555
O4 S1 1_555 1_555
N1 Ag1 1_555 1_555
N2 C7 1_555 1_555
N3 C12 1_555 1_555
C1 N1 1_555 1_555
H1 C1 1_555 1_555
C2 C1 1_555 1_555
H2 C2 1_555 1_555
C3 C2 1_555 1_555
H3 C3 1_555 1_555
C4 C3 1_555 1_555
C5 C4 1_555 1_555
H4 C5 1_555 1_555
C6 C5 1_555 1_555
H5 C6 1_555 1_555
C7 C6 1_555 1_555
C8 C7 1_555 1_555
H6 C8 1_555 1_555
C9 C4 1_555 1_555
H7 C9 1_555 1_555
C10 N2 1_555 1_555
H8 C10 1_555 1_555
H9 C10 1_555 1_555
H10 C10 1_555 1_555
C11 N2 1_555 1_555
H11 C11 1_555 1_555
H12 C11 1_555 1_555
H13 C11 1_555 1_555
C12 H14 1_555 1_555
C13 N3 1_555 1_555
H15 C13 1_555 1_555
H16 C13 1_555 1_555
H17 C13 1_555 1_555
C14 N3 1_555 1_555
H18 C14 1_555 1_555
H19 C14 1_555 1_555
H20 C14 1_555 1_555
C15 S1 1_555 1_555
O5 Ag1 1_555 1_555
H21 O5 1_555 1_555
H22 O5 1_555 1_555
Ag1A O1A 1_555 1_555
Ag1A_2 C5 1_555 1_555
Ag1_2 C5A 1_555 1_555
O1A C12A 1_555 1_555
N1A N1 1_555 1_555
N2A C7A 1_555 1_555
N3A C12A 1_555 1_555
C1A N1A 1_555 1_555
H1A C1A 1_555 1_555
C2A C1A 1_555 1_555
H2A C2A 1_555 1_555
C3A C2A 1_555 1_555
H3A C3A 1_555 1_555
C4A C3A 1_555 1_555
C5A C4A 1_555 1_555
C5A_2 Ag1 1_555 1_555
C5_2 Ag1A 1_555 1_555
H4A C5A 1_555 1_555
H4A_2 C5A_2 1_555 1_555
H4_2 C5_2 1_555 1_555
C6A Ag1_2 1_555 1_555
C6A_2 Ag1 1_555 1_555
C6_2 Ag1A 1_555 1_555
H5A C6A 1_555 1_555
H5A_2 C6A_2 1_555 1_555
H5_2 C6_2 1_555 1_555
C7A C6A 1_555 1_555
C8A C7A 1_555 1_555
H6A C8A 1_555 1_555
C9A C4A 1_555 1_555
H7A C9A 1_555 1_555
C10A N2A 1_555 1_555
H8A C10A 1_555 1_555
H9A C10A 1_555 1_555
H10A C10A 1_555 1_555
C11A N2A 1_555 1_555
H11A C11A 1_555 1_555
H12A C11A 1_555 1_555
H13A C11A 1_555 1_555
C12A H14A 1_555 1_555
C13A N3A 1_555 1_555
H15A C13A 1_555 1_555
H16A C13A 1_555 1_555
H17A C13A 1_555 1_555
C14A N3A 1_555 1_555
H18A C14A 1_555 1_555
H19A C14A 1_555 1_555
H20A C14A 1_555 1_555
O5A Ag1A 1_555 1_555
H21A O5A 1_555 1_555
H22A O5A 1_555 1_555
C6 Ag1A_2 1_555 1_555
C8 C9 1_555 1_555
Ag1A N1A 1_555 1_555
C5A C6A 1_555 1_555
C5A_2 C6A_2 1_555 1_555
C5_2 C6_2 1_555 1_555
C8A C9A 1_555 1_555

#END
