
#######################################################################
#
#                 Cambridge Crystallographic Data Centre
#                                CCDC 
#
#######################################################################
#
# If this CIF has been generated from an entry in the Cambridge 
# Structural Database, then it will include bibliographic, chemical, 
# crystal, experimental, refinement or atomic coordinate data resulting 
# from the CCDC's data processing and validation procedures.
#
#######################################################################

data_GUGPUV
_symmetry_cell_setting           orthorhombic
_symmetry_space_group_name_H-M   'P 21 21 21'
_symmetry_Int_Tables_number      19
_space_group_name_Hall           'P 2ac 2ab'
loop_
_symmetry_equiv_pos_site_id
_symmetry_equiv_pos_as_xyz
1 x,y,z
2 1/2-x,-y,1/2+z
3 -x,1/2+y,1/2-z
4 1/2+x,1/2-y,-z
_cell_length_a                   5.4990(4)
_cell_length_b                   9.3162(9)
_cell_length_c                   21.4233(13)
_cell_angle_alpha                90
_cell_angle_beta                 90
_cell_angle_gamma                90
_cell_volume                     1097.51
loop_
_atom_site_label
_atom_site_type_symbol
_atom_site_fract_x
_atom_site_fract_y
_atom_site_fract_z
Ag1 Ag 0.93632(10) 0.78855(7) 0.08250(3)
C1 C 0.6791(12) 0.7726(10) 0.1522(3)
N1 N 0.5391(10) 0.7655(7) 0.1921(2)
C2 C 0.3641(12) 0.7522(9) 0.2399(3)
C3 C 0.1887(13) 0.6491(8) 0.2355(3)
H1 H 0.1832 0.5880 0.2012
C4 C 0.0187(13) 0.6367(8) 0.2830(3)
H2 H -0.1018 0.5669 0.2805
C5 C 0.0267(11) 0.7267(8) 0.3338(3)
C6 C 0.2044(12) 0.8337(8) 0.3365(3)
H3 H 0.2069 0.8978 0.3698
C7 C 0.3743(12) 0.8443(8) 0.2903(3)
H4 H 0.4964 0.9132 0.2928
N2 N -0.1442(8) 0.7178(7) 0.3824(2)
H5 H -0.1737 0.7959 0.4024
C8 C -0.2653(13) 0.6019(9) 0.4008(3)
O1 O -0.2273(12) 0.4842(6) 0.3796(2)
C9 C -0.4488(14) 0.6260(9) 0.4524(3)
H6 H -0.6059 0.5934 0.4389
H7 H -0.4568 0.7265 0.4621
H8 H -0.4002 0.5736 0.4888
N3 N 1.3247(10) 0.5735(7) 0.0455(3)
O2 O 1.2545(8) 0.6913(6) 0.0268(2)
O3 O 1.2310(11) 0.5212(6) 0.0924(2)
O4 O 1.4817(10) 0.5099(6) 0.0158(3)
Ag1B Ag 0.06368(10) 0.28855(7) 0.41750(3)
Ag1C Ag 1.43632(10) 0.71145(7) -0.08250(3)
O1B O 1.2273(12) 0.9842(6) 0.1204(2)
O2C O 0.7545(8) 0.8087(6) -0.0268(2)
loop_
_geom_bond_atom_site_label_1
_geom_bond_atom_site_label_2
_geom_bond_site_symmetry_1
_geom_bond_site_symmetry_2
Ag1 C1 1_555 1_555
C1 N1 1_555 1_555
N1 C2 1_555 1_555
C2 C3 1_555 1_555
C3 H1 1_555 1_555
C4 C3 1_555 1_555
H2 C4 1_555 1_555
C5 C4 1_555 1_555
C6 C5 1_555 1_555
H3 C6 1_555 1_555
C7 C2 1_555 1_555
H4 C7 1_555 1_555
N2 C5 1_555 1_555
H5 N2 1_555 1_555
C8 N2 1_555 1_555
O1 C8 1_555 1_555
C9 C8 1_555 1_555
H6 C9 1_555 1_555
H7 C9 1_555 1_555
H8 C9 1_555 1_555
N3 O2 1_555 1_555
O2 Ag1 1_555 1_555
O3 N3 1_555 1_555
O4 N3 1_555 1_555
Ag1B O1 1_555 1_555
Ag1C O2 1_555 1_555
O1B Ag1 1_555 1_555
O2C Ag1 1_555 1_555
C6 C7 1_555 1_555

#END
