
#######################################################################
#
#                 Cambridge Crystallographic Data Centre
#                                CCDC 
#
#######################################################################
#
# If this CIF has been generated from an entry in the Cambridge 
# Structural Database, then it will include bibliographic, chemical, 
# crystal, experimental, refinement or atomic coordinate data resulting 
# from the CCDC's data processing and validation procedures.
#
#######################################################################

data_GUGQEG
_symmetry_cell_setting           monoclinic
_symmetry_space_group_name_H-M   'P 21/n'
_symmetry_Int_Tables_number      14
_space_group_name_Hall           '-P 2yn'
loop_
_symmetry_equiv_pos_site_id
_symmetry_equiv_pos_as_xyz
1 x,y,z
2 1/2-x,1/2+y,1/2-z
3 -x,-y,-z
4 1/2+x,1/2-y,1/2+z
_cell_length_a                   10.9803(18)
_cell_length_b                   15.495(3)
_cell_length_c                   12.646(2)
_cell_angle_alpha                90
_cell_angle_beta                 112.908(4)
_cell_angle_gamma                90
_cell_volume                     1981.89
loop_
_atom_site_label
_atom_site_type_symbol
_atom_site_fract_x
_atom_site_fract_y
_atom_site_fract_z
Ag1 Ag 0.28378(5) 0.10053(3) 0.40040(4)
C1 C 0.3922(7) 0.0171(4) 0.3388(6)
N1 N 0.4401(5) -0.0287(3) 0.2959(4)
C2 C 0.4998(6) -0.0837(4) 0.2424(5)
C3 C 0.4946(6) -0.1722(4) 0.2567(5)
H1 H 0.4516 -0.1950 0.3008
C4 C 0.5545(6) -0.2253(4) 0.2043(5)
H2 H 0.5524 -0.2847 0.2136
C5 C 0.6182(5) -0.1917(4) 0.1377(5)
C6 C 0.6188(6) -0.1032(4) 0.1233(5)
H3 H 0.6598 -0.0802 0.0777
C7 C 0.5604(6) -0.0487(4) 0.1750(5)
H4 H 0.5616 0.0107 0.1648
N2 N 0.6817(5) -0.2429(3) 0.0838(4)
H5 H 0.6949 -0.2192 0.0277
C8 C 0.7254(6) -0.3257(4) 0.1089(7)
O1 O 0.7105(6) -0.3666(3) 0.1837(6)
C9 C 0.7940(7) -0.3605(5) 0.0363(7)
H6 H 0.8846 -0.3729 0.0838
H7 H 0.7906 -0.3185 -0.0206
H8 H 0.7509 -0.4125 -0.0010
C10 C 0.1795(7) 0.1151(4) 0.5069(6)
N3 N 0.1306(5) 0.1196(3) 0.5715(4)
C11 C 0.0700(6) 0.1210(4) 0.6503(5)
C12 C 0.0509(6) 0.0440(4) 0.6952(5)
H9 H 0.0781 -0.0078 0.6742
C13 C -0.0095(6) 0.0454(4) 0.7722(5)
H10 H -0.0237 -0.0062 0.8031
C14 C -0.0495(6) 0.1220(3) 0.8046(5)
C15 C -0.0279(6) 0.1988(4) 0.7587(5)
H11 H -0.0540 0.2508 0.7798
C16 C 0.0325(6) 0.1975(4) 0.6817(5)
H12 H 0.0478 0.2490 0.6511
N4 N -0.1130(5) 0.1160(3) 0.8820(4)
H13 H -0.1358 0.0649 0.8938
C17 C -0.1424(6) 0.1803(4) 0.9396(5)
O2 O -0.1174(5) 0.2554(3) 0.9296(4)
C18 C -0.2074(7) 0.1512(4) 1.0180(5)
H14 H -0.1467 0.1576 1.0964
H15 H -0.2325 0.0916 1.0032
H16 H -0.2847 0.1856 1.0048
N5 N 0.1958(6) 0.1226(4) 0.1156(5)
O3 O 0.1401(5) 0.1366(3) 0.1826(4)
O4 O 0.2635(11) 0.1729(6) 0.1015(6)
O5 O 0.1822(6) 0.0559(4) 0.0636(5)
Ag1C Ag -0.21622(5) 0.39947(3) 0.90040(4)
O2C O 0.3826(5) 0.2446(3) 0.4296(4)
loop_
_geom_bond_atom_site_label_1
_geom_bond_atom_site_label_2
_geom_bond_site_symmetry_1
_geom_bond_site_symmetry_2
Ag1 C1 1_555 1_555
C1 N1 1_555 1_555
N1 C2 1_555 1_555
C2 C3 1_555 1_555
C3 H1 1_555 1_555
C4 C3 1_555 1_555
H2 C4 1_555 1_555
C5 C4 1_555 1_555
C6 C5 1_555 1_555
H3 C6 1_555 1_555
C7 C2 1_555 1_555
H4 C7 1_555 1_555
N2 C5 1_555 1_555
H5 N2 1_555 1_555
C8 N2 1_555 1_555
O1 C8 1_555 1_555
C9 C8 1_555 1_555
H6 C9 1_555 1_555
H7 C9 1_555 1_555
H8 C9 1_555 1_555
C10 Ag1 1_555 1_555
N3 C10 1_555 1_555
C11 N3 1_555 1_555
C12 C11 1_555 1_555
H9 C12 1_555 1_555
C13 C12 1_555 1_555
H10 C13 1_555 1_555
C14 C13 1_555 1_555
C15 C14 1_555 1_555
H11 C15 1_555 1_555
C16 C11 1_555 1_555
H12 C16 1_555 1_555
N4 C14 1_555 1_555
H13 N4 1_555 1_555
C17 N4 1_555 1_555
O2 C17 1_555 1_555
C18 C17 1_555 1_555
H14 C18 1_555 1_555
H15 C18 1_555 1_555
H16 C18 1_555 1_555
N5 O3 1_555 1_555
O3 Ag1 1_555 1_555
O4 N5 1_555 1_555
O5 N5 1_555 1_555
Ag1C O2 1_555 1_555
O2C Ag1 1_555 1_555
C6 C7 1_555 1_555
C15 C16 1_555 1_555

#END
