
#######################################################################
#
#                 Cambridge Crystallographic Data Centre
#                                CCDC 
#
#######################################################################
#
# If this CIF has been generated from an entry in the Cambridge 
# Structural Database, then it will include bibliographic, chemical, 
# crystal, experimental, refinement or atomic coordinate data resulting 
# from the CCDC's data processing and validation procedures.
#
#######################################################################

data_GUGQIK
_symmetry_cell_setting           triclinic
_symmetry_space_group_name_H-M   'P -1'
_symmetry_Int_Tables_number      2
_space_group_name_Hall           '-P 1'
loop_
_symmetry_equiv_pos_site_id
_symmetry_equiv_pos_as_xyz
1 x,y,z
2 -x,-y,-z
_cell_length_a                   10.022(2)
_cell_length_b                   15.506(3)
_cell_length_c                   15.864(3)
_cell_angle_alpha                95.75(3)
_cell_angle_beta                 102.23(3)
_cell_angle_gamma                104.70(3)
_cell_volume                     2299.36
loop_
_atom_site_label
_atom_site_type_symbol
_atom_site_fract_x
_atom_site_fract_y
_atom_site_fract_z
Ag1 Ag 0.61252(9) 0.70820(5) 0.41687(4)
C1 C 0.5313(11) 0.7895(6) 0.4959(6)
N1 N 0.4828(8) 0.8296(5) 0.5376(4)
C2 C 0.4217(9) 0.8786(5) 0.5908(5)
C3 C 0.3646(10) 0.9441(6) 0.5607(5)
H1 H 0.3651 0.9565 0.5046
C4 C 0.3073(9) 0.9909(6) 0.6127(5)
H2 H 0.2684 1.0354 0.5919
C5 C 0.3059(8) 0.9733(5) 0.6967(4)
C6 C 0.3608(9) 0.9053(6) 0.7254(5)
H3 H 0.3568 0.8905 0.7803
C7 C 0.4216(10) 0.8593(5) 0.6725(6)
H4 H 0.4624 0.8152 0.6926
N2 N 0.2465(6) 1.0256(4) 0.7468(4)
H5 H 0.2337 1.0736 0.7279
C8 C 0.2068(8) 1.0098(6) 0.8211(5)
O1 O 0.2111(7) 0.9427(5) 0.8535(4)
C9 C 0.1560(10) 1.0833(6) 0.8613(6)
H6 H 0.0773 1.0917 0.8199
H7 H 0.2321 1.1385 0.8772
H8 H 0.1262 1.0666 0.9125
C10 C 0.7196(9) 0.6085(5) 0.4149(5)
N3 N 0.7712(7) 0.5517(4) 0.4113(4)
C11 C 0.8333(7) 0.4796(4) 0.4046(4)
C12 C 0.9073(8) 0.4733(5) 0.3425(5)
H9 H 0.9200 0.5172 0.3068
C13 C 0.9634(8) 0.4007(5) 0.3330(4)
H10 H 1.0139 0.3955 0.2908
C14 C 0.9439(7) 0.3361(4) 0.3867(4)
C15 C 0.8705(8) 0.3449(5) 0.4490(4)
H11 H 0.8586 0.3016 0.4853
C16 C 0.8127(8) 0.4172(5) 0.4595(5)
H12 H 0.7624 0.4227 0.5018
N4 N 1.0014(7) 0.2621(4) 0.3826(4)
H13 H 1.0045 0.2347 0.4272
C17 C 1.0517(8) 0.2289(5) 0.3190(5)
O2 O 1.0574(7) 0.2626(4) 0.2519(4)
C18 C 1.1046(10) 0.1485(5) 0.3352(6)
H14 H 1.0361 0.0948 0.3008
H15 H 1.1181 0.1434 0.3961
H16 H 1.1935 0.1557 0.3192
Ag2 Ag 1.03802(8) 0.18919(5) 0.10462(4)
C19 C 0.9496(10) 0.2775(6) 0.0342(6)
N5 N 0.9089(7) 0.3265(5) -0.0063(5)
C20 C 0.8578(8) 0.3812(5) -0.0638(5)
C21 C 0.8567(10) 0.3624(6) -0.1494(6)
H17 H 0.8922 0.3160 -0.1680
C22 C 0.8031(10) 0.4118(6) -0.2092(6)
H18 H 0.7986 0.3969 -0.2682
C23 C 0.7563(8) 0.4832(5) -0.1805(5)
C24 C 0.7608(9) 0.5021(6) -0.0919(5)
H19 H 0.7280 0.5496 -0.0725
C25 C 0.8127(10) 0.4523(6) -0.0327(6)
H20 H 0.8172 0.4661 0.0264
N6 N 0.7020(7) 0.5379(4) -0.2362(4)
H21 H 0.6969 0.5882 -0.2110
C26 C 0.6566(9) 0.5215(6) -0.3250(6)
O3 O 0.6616(7) 0.4554(5) -0.3686(4)
C27 C 0.6056(11) 0.5947(6) -0.3636(5)
H22 H 0.6774 0.6299 -0.3877
H23 H 0.5864 0.6330 -0.3189
H24 H 0.5200 0.5684 -0.4090
C28 C 1.1386(9) 0.0856(5) 0.1122(5)
N7 N 1.2006(7) 0.0336(4) 0.1193(4)
C29 C 1.2777(8) -0.0304(5) 0.1274(5)
C30 C 1.3302(9) -0.0561(6) 0.0596(5)
H25 H 1.3178 -0.0298 0.0094
C31 C 1.4015(9) -0.1209(5) 0.0657(5)
H26 H 1.4359 -0.1394 0.0190
C32 C 1.4226(8) -0.1594(5) 0.1420(4)
C33 C 1.3682(8) -0.1315(5) 0.2105(5)
H27 H 1.3818 -0.1558 0.2619
C34 C 1.2943(8) -0.0679(5) 0.2021(5)
H28 H 1.2557 -0.0504 0.2472
N8 N 1.4929(6) -0.2272(4) 0.1417(4)
H29 H 1.5118 -0.2436 0.0932
C35 C 1.5341(8) -0.2694(5) 0.2083(5)
O4 O 1.5130(7) -0.2537(4) 0.2801(4)
C36 C 1.6074(10) -0.3393(6) 0.1866(6)
H30 H 1.7008 -0.3241 0.2251
H31 H 1.6153 -0.3407 0.1272
H32 H 1.5530 -0.3976 0.1935
Ag1_2 Ag 1.61252(9) -0.29180(5) 0.41687(4)
O4_2 O 0.5130(7) 0.7463(4) 0.2801(4)
C37 C 0.0470(11) 0.7756(7) 0.3304(6)
F1 F -0.0204(7) 0.6924(4) 0.3333(5)
F2 F 0.1845(7) 0.7845(5) 0.3580(5)
F3 F 0.0251(8) 0.7858(5) 0.2464(4)
S1 S -0.0111(3) 0.85650(15) 0.39122(14)
O5 O 0.0739(8) 0.9421(4) 0.3807(5)
O6 O -0.1595(6) 0.8355(4) 0.3503(4)
O7 O 0.0204(8) 0.8354(5) 0.4773(4)
C38 C 0.6017(14) 0.3538(14) 0.1551(9)
F4 F 0.7046(8) 0.3401(7) 0.1263(7)
F5 F 0.6008(12) 0.4337(5) 0.1609(11)
F6 F 0.6226(10) 0.3296(9) 0.2360(6)
S2 S 0.4318(3) 0.27830(18) 0.09650(15)
O8 O 0.3322(7) 0.3044(5) 0.1360(5)
O9 O 0.4203(12) 0.2932(11) 0.0115(5)
O10 O 0.4519(12) 0.1904(6) 0.1019(9)
loop_
_geom_bond_atom_site_label_1
_geom_bond_atom_site_label_2
_geom_bond_site_symmetry_1
_geom_bond_site_symmetry_2
Ag1 C1 1_555 1_555
C1 N1 1_555 1_555
N1 C2 1_555 1_555
C2 C3 1_555 1_555
C3 H1 1_555 1_555
C4 C3 1_555 1_555
H2 C4 1_555 1_555
C5 C4 1_555 1_555
C6 C5 1_555 1_555
H3 C6 1_555 1_555
C7 C2 1_555 1_555
H4 C7 1_555 1_555
N2 C5 1_555 1_555
H5 N2 1_555 1_555
C8 N2 1_555 1_555
O1 C8 1_555 1_555
C9 C8 1_555 1_555
H6 C9 1_555 1_555
H7 C9 1_555 1_555
H8 C9 1_555 1_555
C10 Ag1 1_555 1_555
N3 C10 1_555 1_555
C11 N3 1_555 1_555
C12 C11 1_555 1_555
H9 C12 1_555 1_555
C13 C12 1_555 1_555
H10 C13 1_555 1_555
C14 C13 1_555 1_555
C15 C14 1_555 1_555
H11 C15 1_555 1_555
C16 C11 1_555 1_555
H12 C16 1_555 1_555
N4 C14 1_555 1_555
H13 N4 1_555 1_555
C17 N4 1_555 1_555
O2 C17 1_555 1_555
C18 C17 1_555 1_555
H14 C18 1_555 1_555
H15 C18 1_555 1_555
H16 C18 1_555 1_555
Ag2 O2 1_555 1_555
C19 Ag2 1_555 1_555
N5 C19 1_555 1_555
C20 N5 1_555 1_555
C21 C20 1_555 1_555
H17 C21 1_555 1_555
C22 C21 1_555 1_555
H18 C22 1_555 1_555
C23 C22 1_555 1_555
C24 C23 1_555 1_555
H19 C24 1_555 1_555
C25 C20 1_555 1_555
H20 C25 1_555 1_555
N6 C23 1_555 1_555
H21 N6 1_555 1_555
C26 N6 1_555 1_555
O3 C26 1_555 1_555
C27 C26 1_555 1_555
H22 C27 1_555 1_555
H23 C27 1_555 1_555
H24 C27 1_555 1_555
C28 Ag2 1_555 1_555
N7 C28 1_555 1_555
C29 N7 1_555 1_555
C30 C29 1_555 1_555
H25 C30 1_555 1_555
C31 C30 1_555 1_555
H26 C31 1_555 1_555
C32 C31 1_555 1_555
C33 C32 1_555 1_555
H27 C33 1_555 1_555
C34 C29 1_555 1_555
H28 C34 1_555 1_555
N8 C32 1_555 1_555
H29 N8 1_555 1_555
C35 N8 1_555 1_555
O4 C35 1_555 1_555
C36 C35 1_555 1_555
H30 C36 1_555 1_555
H31 C36 1_555 1_555
H32 C36 1_555 1_555
C37 F1 1_555 1_555
F2 C37 1_555 1_555
F3 C37 1_555 1_555
S1 C37 1_555 1_555
O5 S1 1_555 1_555
O6 S1 1_555 1_555
O7 S1 1_555 1_555
C38 F4 1_555 1_555
F5 C38 1_555 1_555
F6 C38 1_555 1_555
S2 C38 1_555 1_555
O8 S2 1_555 1_555
O9 S2 1_555 1_555
O10 S2 1_555 1_555
Ag1_2 O4 1_555 1_555
O4_2 Ag1 1_555 1_555
C6 C7 1_555 1_555
C15 C16 1_555 1_555
C24 C25 1_555 1_555
C33 C34 1_555 1_555

#END
