
#######################################################################
#
#                 Cambridge Crystallographic Data Centre
#                                CCDC 
#
#######################################################################
#
# If this CIF has been generated from an entry in the Cambridge 
# Structural Database, then it will include bibliographic, chemical, 
# crystal, experimental, refinement or atomic coordinate data resulting 
# from the CCDC's data processing and validation procedures.
#
#######################################################################

data_GUGQOQ
_symmetry_cell_setting           monoclinic
_symmetry_space_group_name_H-M   'C c'
_symmetry_Int_Tables_number      9
_space_group_name_Hall           'C -2yc'
loop_
_symmetry_equiv_pos_site_id
_symmetry_equiv_pos_as_xyz
1 x,y,z
2 x,-y,1/2+z
3 1/2+x,1/2+y,z
4 1/2+x,1/2-y,1/2+z
_cell_length_a                   11.6416(5)
_cell_length_b                   15.9955(4)
_cell_length_c                   12.1545(4)
_cell_angle_alpha                90
_cell_angle_beta                 113.130(5)
_cell_angle_gamma                90
_cell_volume                     2081.39
loop_
_atom_site_label
_atom_site_type_symbol
_atom_site_fract_x
_atom_site_fract_y
_atom_site_fract_z
Ag1 Ag -0.09213(5) 0.09636(2) 0.59249(5)
C1 C 0.0128(7) 0.1072(4) 0.4873(6)
N1 N 0.0620(5) 0.1123(3) 0.4237(5)
C2 C 0.1225(6) 0.1165(4) 0.3437(5)
C3 C 0.1359(6) 0.1915(3) 0.2957(5)
H1 H 0.1028 0.2397 0.3146
C4 C 0.1972(6) 0.1964(3) 0.2202(5)
H2 H 0.2059 0.2476 0.1881
C5 C 0.2462(5) 0.1245(3) 0.1917(4)
C6 C 0.2306(5) 0.0485(3) 0.2411(5)
H3 H 0.2633 -0.0001 0.2229
C7 C 0.1689(6) 0.0444(3) 0.3148(5)
H4 H 0.1578 -0.0067 0.3457
N2 N 0.3093(4) 0.1226(3) 0.1150(4)
H5 H 0.3248 0.0739 0.0943
C8 C 0.3487(5) 0.1882(3) 0.0697(4)
O1 O 0.3359(4) 0.2600(2) 0.0911(4)
C9 C 0.4161(6) 0.1618(4) -0.0096(5)
H6 H 0.4950 0.1902 0.0155
H7 H 0.3661 0.1760 -0.0912
H8 H 0.4300 0.1025 -0.0031
C10 C -0.1891(6) 0.0156(5) 0.6610(6)
N3 N -0.2376(5) -0.0304(4) 0.7039(4)
C11 C -0.2943(6) -0.0851(4) 0.7552(5)
C12 C -0.3562(6) -0.0537(3) 0.8223(5)
H9 H -0.3578 0.0036 0.8343
C13 C -0.4158(6) -0.1071(3) 0.8714(5)
H10 H -0.4579 -0.0864 0.9166
C14 C -0.4120(5) -0.1925(3) 0.8523(4)
C15 C -0.3500(6) -0.2227(3) 0.7866(5)
H11 H -0.3491 -0.2800 0.7740
C16 C -0.2888(5) -0.1705(4) 0.7387(5)
H12 H -0.2444 -0.1918 0.6959
N4 N -0.4788(4) -0.2426(3) 0.9034(4)
H13 H -0.5065 -0.2173 0.9505
C17 C -0.5042(5) -0.3254(3) 0.8872(5)
O2 O -0.4628(4) -0.3699(3) 0.8291(4)
C18 C -0.5816(6) -0.3592(4) 0.9503(6)
H14 H -0.5291 -0.3698 1.0325
H15 H -0.6206 -0.4104 0.9127
H16 H -0.6446 -0.3192 0.9460
Ag1C Ag 0.40787(5) 0.40364(2) 0.09249(5)
O1C O -0.1641(4) 0.2400(2) 0.5911(4)
B1 B 0.4359(6) 0.1173(2) -0.3620(4)
F1 F 0.5329(7) 0.1308(5) -0.3534(12)
F2 F 0.3746(10) 0.1832(4) -0.4246(8)
F3 F 0.4455(14) 0.1236(4) -0.2566(6)
F4 F 0.3887(9) 0.0446(2) -0.4075(7)
loop_
_geom_bond_atom_site_label_1
_geom_bond_atom_site_label_2
_geom_bond_site_symmetry_1
_geom_bond_site_symmetry_2
Ag1 C1 1_555 1_555
C1 N1 1_555 1_555
N1 C2 1_555 1_555
C2 C3 1_555 1_555
C3 H1 1_555 1_555
C4 C3 1_555 1_555
H2 C4 1_555 1_555
C5 C4 1_555 1_555
C6 C5 1_555 1_555
H3 C6 1_555 1_555
C7 C2 1_555 1_555
H4 C7 1_555 1_555
N2 C5 1_555 1_555
H5 N2 1_555 1_555
C8 N2 1_555 1_555
O1 C8 1_555 1_555
C9 C8 1_555 1_555
H6 C9 1_555 1_555
H7 C9 1_555 1_555
H8 C9 1_555 1_555
C10 Ag1 1_555 1_555
N3 C10 1_555 1_555
C11 N3 1_555 1_555
C12 C11 1_555 1_555
H9 C12 1_555 1_555
C13 C12 1_555 1_555
H10 C13 1_555 1_555
C14 C13 1_555 1_555
C15 C14 1_555 1_555
H11 C15 1_555 1_555
C16 C11 1_555 1_555
H12 C16 1_555 1_555
N4 C14 1_555 1_555
H13 N4 1_555 1_555
C17 N4 1_555 1_555
O2 C17 1_555 1_555
C18 C17 1_555 1_555
H14 C18 1_555 1_555
H15 C18 1_555 1_555
H16 C18 1_555 1_555
B1 F1 1_555 1_555
F2 B1 1_555 1_555
F3 B1 1_555 1_555
F4 B1 1_555 1_555
Ag1C O1 1_555 1_555
O1C Ag1 1_555 1_555
C6 C7 1_555 1_555
C15 C16 1_555 1_555

#END
