
#######################################################################
#
#                 Cambridge Crystallographic Data Centre
#                                CCDC 
#
#######################################################################
#
# If this CIF has been generated from an entry in the Cambridge 
# Structural Database, then it will include bibliographic, chemical, 
# crystal, experimental, refinement or atomic coordinate data resulting 
# from the CCDC's data processing and validation procedures.
#
#######################################################################

data_GUGSOS
_symmetry_cell_setting           monoclinic
_symmetry_space_group_name_H-M   'P 21/c'
_symmetry_Int_Tables_number      14
_space_group_name_Hall           '-P 2ybc'
loop_
_symmetry_equiv_pos_site_id
_symmetry_equiv_pos_as_xyz
1 x,y,z
2 -x,1/2+y,1/2-z
3 -x,-y,-z
4 x,1/2-y,1/2+z
_cell_length_a                   13.2905(10)
_cell_length_b                   11.1617(11)
_cell_length_c                   18.037(2)
_cell_angle_alpha                90
_cell_angle_beta                 128.309(6)
_cell_angle_gamma                90
_cell_volume                     2099.56
loop_
_atom_site_label
_atom_site_type_symbol
_atom_site_fract_x
_atom_site_fract_y
_atom_site_fract_z
Zn1 Zn 0.06801(3) -0.57091(3) -0.10551(2)
O1 O -0.07007(18) -0.65686(19) -0.11744(14)
O2 O -0.2199(2) -0.5198(2) -0.20888(16)
O3 O -0.1420(2) -0.5265(2) -0.00811(15)
O4 O -0.2330(2) -0.6043(3) 0.04754(16)
N1 N 0.1960(2) -0.7100(2) -0.06928(17)
N2 N 0.0131(2) -0.5328(2) -0.23616(16)
C1 C -0.2765(2) -0.6895(2) -0.16378(18)
C2 C -0.2930(2) -0.6837(2) -0.09555(18)
C3 C -0.3857(3) -0.7573(3) -0.1034(2)
H1 H -0.3975 -0.7522 -0.0578
C4 C -0.4578(3) -0.8353(3) -0.1765(2)
H2 H -0.5190 -0.8823 -0.1807
C5 C -0.4407(3) -0.8457(3) -0.2457(2)
C6 C -0.5121(4) -0.9281(4) -0.3209(3)
H3 H -0.5724 -0.9766 -0.3252
C7 C -0.4947(4) -0.9378(4) -0.3864(3)
H4 H -0.5413 -0.9939 -0.4346
C8 C -0.4070(3) -0.8642(4) -0.3823(2)
H5 H -0.3957 -0.8712 -0.4281
C9 C -0.3376(3) -0.7821(3) -0.3119(2)
H6 H -0.2804 -0.7327 -0.3109
C10 C -0.3509(2) -0.7707(3) -0.24067(19)
C11 C -0.1826(3) -0.6120(3) -0.16304(19)
C12 C -0.2176(3) -0.5996(3) -0.01286(19)
C13 C 0.2590(3) -0.7633(3) 0.0148(2)
H7 H 0.2393 -0.7413 0.0542
C14 C 0.3519(3) -0.8493(3) 0.0461(2)
H8 H 0.3930 -0.8838 0.1054
C15 C 0.3838(3) -0.8843(3) -0.0103(2)
C16 C 0.3150(4) -0.8325(4) -0.0982(3)
H9 H 0.3299 -0.8556 -0.1402
C17 C 0.2243(3) -0.7465(4) -0.1244(2)
H10 H 0.1805 -0.7121 -0.1839
C18 C 0.4887(3) -0.9705(3) 0.0256(2)
H11 H 0.5439 -0.9844 0.0904
C19 C 0.0732(5) -0.4564(4) -0.2513(3)
H12 H 0.1303 -0.4034 -0.2030
C20 C 0.0572(5) -0.4495(4) -0.3337(3)
H13 H 0.1024 -0.3922 -0.3399
C21 C -0.0234(3) -0.5248(3) -0.4063(2)
C22 C -0.0931(4) -0.5970(5) -0.3935(3)
H14 H -0.1563 -0.6456 -0.4428
C23 C -0.0718(4) -0.5995(5) -0.3088(3)
H15 H -0.1207 -0.6517 -0.3026
C24 C -0.0363(3) -0.5277(3) -0.4928(2)
H16 H -0.1028 -0.5737 -0.5424
N1B N 0.8040(2) -1.2900(2) 0.06928(17)
C13B C 0.7410(3) -1.2367(3) -0.0148(2)
H7B H 0.7607 -1.2587 -0.0542
C14B C 0.6481(3) -1.1507(3) -0.0461(2)
H8B H 0.6070 -1.1162 -0.1054
C15B C 0.6162(3) -1.1157(3) 0.0103(2)
C16B C 0.6850(4) -1.1675(4) 0.0982(3)
H9B H 0.6701 -1.1444 0.1402
C17B C 0.7757(3) -1.2535(4) 0.1244(2)
H10B H 0.8195 -1.2879 0.1839
C18B C 0.5113(3) -1.0295(3) -0.0256(2)
H11B H 0.4561 -1.0156 -0.0904
N2B N -0.0131(2) -0.4672(2) -0.76384(16)
C19B C -0.0732(5) -0.5436(4) -0.7487(3)
H12B H -0.1303 -0.5966 -0.7970
C20B C -0.0572(5) -0.5505(4) -0.6663(3)
H13B H -0.1024 -0.6078 -0.6601
C21B C 0.0234(3) -0.4752(3) -0.5937(2)
C22B C 0.0931(4) -0.4030(5) -0.6065(3)
H14B H 0.1563 -0.3544 -0.5572
C23B C 0.0718(4) -0.4005(5) -0.6912(3)
H15B H 0.1207 -0.3483 -0.6974
C24B C 0.0363(3) -0.4723(3) -0.5072(2)
H16B H 0.1028 -0.4263 -0.4576
Zn1B Zn -0.06801(3) -0.42909(3) -0.89449(2)
O1B O 0.07007(18) -0.34314(19) -0.88256(14)
O2B O 0.2199(2) -0.4802(2) -0.79112(16)
O3B O 0.1420(2) -0.4735(2) -0.99189(15)
O4B O 0.2330(2) -0.3957(3) -1.04754(16)
C1B C 0.2765(2) -0.3105(2) -0.83622(18)
C2B C 0.2930(2) -0.3163(2) -0.90445(18)
C3B C 0.3857(3) -0.2427(3) -0.8966(2)
H1B H 0.3975 -0.2478 -0.9422
C4B C 0.4578(3) -0.1647(3) -0.8235(2)
H2B H 0.5190 -0.1177 -0.8193
C5B C 0.4407(3) -0.1543(3) -0.7543(2)
C6B C 0.5121(4) -0.0719(4) -0.6791(3)
H3B H 0.5724 -0.0234 -0.6748
C7B C 0.4947(4) -0.0622(4) -0.6136(3)
H4B H 0.5413 -0.0061 -0.5654
C8B C 0.4070(3) -0.1358(4) -0.6177(2)
H5B H 0.3957 -0.1288 -0.5719
C9B C 0.3376(3) -0.2179(3) -0.6881(2)
H6B H 0.2804 -0.2673 -0.6891
C10B C 0.3509(2) -0.2293(3) -0.75933(19)
C11B C 0.1826(3) -0.3880(3) -0.83696(19)
C12B C 0.2176(3) -0.4004(3) -0.98714(19)
Zn1_2 Zn 0.06801(3) -0.57091(3) -1.10551(2)
Zn1B_2 Zn -0.06801(3) -0.42909(3) 0.10551(2)
Zn1B_3 Zn 0.93199(3) -1.42909(3) 0.10551(2)
O3_2 O -0.1420(2) -0.5265(2) -1.00811(15)
O3B_2 O 0.1420(2) -0.4735(2) 0.00811(15)
N1B_2 N -0.1960(2) -0.2900(2) -0.93072(17)
O5 O -0.1056(3) -0.3010(3) -0.1112(3)
H17 H -0.0854 -0.2905 -0.0568
H18 H -0.0518 -0.3498 -0.1051
O6 O 0.7156(13) -0.1314(14) -0.2029(11)
H19 H 0.7623 -0.1928 -0.1747
H20 H 0.7627 -0.0761 -0.1988
loop_
_geom_bond_atom_site_label_1
_geom_bond_atom_site_label_2
_geom_bond_site_symmetry_1
_geom_bond_site_symmetry_2
Zn1 O1 1_555 1_555
O1 C11 1_555 1_555
O2 C11 1_555 1_555
O3 C12 1_555 1_555
O4 C12 1_555 1_555
N1 Zn1 1_555 1_555
N2 Zn1 1_555 1_555
C1 C2 1_555 1_555
C2 C3 1_555 1_555
C3 H1 1_555 1_555
C4 C3 1_555 1_555
H2 C4 1_555 1_555
C5 C4 1_555 1_555
C6 C5 1_555 1_555
H3 C6 1_555 1_555
C7 C6 1_555 1_555
H4 C7 1_555 1_555
C8 C7 1_555 1_555
H5 C8 1_555 1_555
C9 C8 1_555 1_555
H6 C9 1_555 1_555
C10 C1 1_555 1_555
C11 C1 1_555 1_555
C12 C2 1_555 1_555
C13 N1 1_555 1_555
H7 C13 1_555 1_555
C14 C13 1_555 1_555
H8 C14 1_555 1_555
C15 C14 1_555 1_555
C16 C15 1_555 1_555
H9 C16 1_555 1_555
C17 N1 1_555 1_555
H10 C17 1_555 1_555
C18 C15 1_555 1_555
H11 C18 1_555 1_555
C19 N2 1_555 1_555
H12 C19 1_555 1_555
C20 C19 1_555 1_555
H13 C20 1_555 1_555
C21 C20 1_555 1_555
C22 C21 1_555 1_555
H14 C22 1_555 1_555
C23 N2 1_555 1_555
H15 C23 1_555 1_555
C24 C21 1_555 1_555
H16 C24 1_555 1_555
O5 H17 1_555 1_555
H18 O5 1_555 1_555
O6 H19 1_555 1_555
H20 O6 1_555 1_555
N1B C13B 1_555 1_555
C13B H7B 1_555 1_555
C14B C13B 1_555 1_555
H8B C14B 1_555 1_555
C15B C14B 1_555 1_555
C16B C15B 1_555 1_555
H9B C16B 1_555 1_555
C17B N1B 1_555 1_555
H10B C17B 1_555 1_555
C18B C18 1_555 1_555
H11B C18B 1_555 1_555
N2B C19B 1_555 1_555
C19B H12B 1_555 1_555
C20B C19B 1_555 1_555
H13B C20B 1_555 1_555
C21B C20B 1_555 1_555
C22B C21B 1_555 1_555
H14B C22B 1_555 1_555
C23B N2B 1_555 1_555
H15B C23B 1_555 1_555
C24B C24 1_555 1_555
H16B C24B 1_555 1_555
Zn1B N2B 1_555 1_555
O1B Zn1B 1_555 1_555
O2B C11B 1_555 1_555
O3B C12B 1_555 1_555
O4B C12B 1_555 1_555
C1B C2B 1_555 1_555
C2B C3B 1_555 1_555
C3B H1B 1_555 1_555
C4B C3B 1_555 1_555
H2B C4B 1_555 1_555
C5B C4B 1_555 1_555
C6B C5B 1_555 1_555
H3B C6B 1_555 1_555
C7B C6B 1_555 1_555
H4B C7B 1_555 1_555
C8B C7B 1_555 1_555
H5B C8B 1_555 1_555
C9B C8B 1_555 1_555
H6B C9B 1_555 1_555
C10B C1B 1_555 1_555
C11B O1B 1_555 1_555
C12B C2B 1_555 1_555
Zn1_2 O3B 1_555 1_555
Zn1B_2 O3 1_555 1_555
Zn1B_3 N1B 1_555 1_555
O3_2 Zn1B 1_555 1_555
O3B_2 Zn1 1_555 1_555
N1B_2 Zn1B 1_555 1_555
C5 C10 1_555 1_555
C9 C10 1_555 1_555
C16 C17 1_555 1_555
C22 C23 1_555 1_555
C15B C18B 1_555 1_555
C16B C17B 1_555 1_555
C21B C24B 1_555 1_555
C22B C23B 1_555 1_555
C1B C11B 1_555 1_555
C5B C10B 1_555 1_555
C9B C10B 1_555 1_555

#END
