
#######################################################################
#
#                 Cambridge Crystallographic Data Centre
#                                CCDC 
#
#######################################################################
#
# If this CIF has been generated from an entry in the Cambridge 
# Structural Database, then it will include bibliographic, chemical, 
# crystal, experimental, refinement or atomic coordinate data resulting 
# from the CCDC's data processing and validation procedures.
#
#######################################################################

data_GUGSOR
_symmetry_cell_setting           orthorhombic
_symmetry_space_group_name_H-M   'P c a 21'
_symmetry_Int_Tables_number      29
_space_group_name_Hall           'P 2c -2ac'
loop_
_symmetry_equiv_pos_site_id
_symmetry_equiv_pos_as_xyz
1 x,y,z
2 -x,-y,1/2+z
3 1/2-x,y,1/2+z
4 1/2+x,-y,z
_cell_length_a                   15.9022(15)
_cell_length_b                   9.9651(9)
_cell_length_c                   7.5081(7)
_cell_angle_alpha                90
_cell_angle_beta                 90
_cell_angle_gamma                90
_cell_volume                     1189.79
loop_
_atom_site_label
_atom_site_type_symbol
_atom_site_fract_x
_atom_site_fract_y
_atom_site_fract_z
Co1 Co -0.36672(2) -0.07379(3) 0.21790(6)
O1 O -0.40261(13) -0.17813(17) -0.0259(3)
O2 O -0.50803(12) 0.11473(18) -0.1701(3)
O3 O -0.41929(14) 0.07033(17) 0.0515(3)
O4 O -0.15117(14) 0.0436(2) -0.0694(3)
O5 O -0.24846(14) -0.05532(17) 0.0964(3)
N1 N -0.34750(14) -0.2819(2) 0.2718(3)
C1 C -0.32019(19) -0.3321(3) 0.4221(4)
H1 H -0.3006 -0.2736 0.5092
C2 C -0.3191(2) -0.4712(3) 0.4580(5)
H2 H -0.2999 -0.5027 0.5673
C3 C -0.3463(2) -0.5585(3) 0.3320(5)
H3 H -0.3464 -0.6502 0.3551
C4 C -0.37441(15) -0.5101(3) 0.1664(4)
C5 C -0.4039(2) -0.5920(3) 0.0251(5)
H4 H -0.4039 -0.6849 0.0378
C6 C -0.4320(2) -0.5364(3) -0.1275(5)
H5 H -0.4511 -0.5918 -0.2186
C7 C -0.43311(19) -0.3954(3) -0.1519(5)
H6 H -0.4530 -0.3585 -0.2576
C8 C -0.40471(18) -0.3148(3) -0.0189(4)
C9 C -0.37440(16) -0.3682(3) 0.1422(4)
C10 C -0.45693(18) -0.1078(3) -0.1449(4)
H7 H -0.5124 -0.1483 -0.1445
H8 H -0.4348 -0.1117 -0.2652
C11 C -0.46218(17) 0.0379(3) -0.0822(4)
C12 C -0.20313(17) 0.0417(3) 0.0584(4)
C13 C -0.2071(2) 0.1687(3) 0.1672(4)
H9 H -0.2134 0.1463 0.2909
H10 H -0.2542 0.2217 0.1293
H11 H -0.1562 0.2190 0.1508
Co1A Co -0.63328(2) 0.07379(3) -0.28210(6)
Co1B Co -0.13328(2) -0.07379(3) -0.28210(6)
O2A O -0.49197(12) -0.11473(18) 0.3299(3)
O4B O -0.34883(14) 0.0436(2) 0.4306(3)
loop_
_geom_bond_atom_site_label_1
_geom_bond_atom_site_label_2
_geom_bond_site_symmetry_1
_geom_bond_site_symmetry_2
Co1 O1 1_555 1_555
O1 C8 1_555 1_555
O2 C11 1_555 1_555
O3 Co1 1_555 1_555
O4 C12 1_555 1_555
O5 Co1 1_555 1_555
N1 Co1 1_555 1_555
C1 N1 1_555 1_555
H1 C1 1_555 1_555
C2 C1 1_555 1_555
H2 C2 1_555 1_555
C3 C2 1_555 1_555
H3 C3 1_555 1_555
C4 C3 1_555 1_555
C5 C4 1_555 1_555
H4 C5 1_555 1_555
C6 C5 1_555 1_555
H5 C6 1_555 1_555
C7 C6 1_555 1_555
H6 C7 1_555 1_555
C8 C7 1_555 1_555
C9 N1 1_555 1_555
C10 O1 1_555 1_555
H7 C10 1_555 1_555
H8 C10 1_555 1_555
C11 O3 1_555 1_555
C12 O5 1_555 1_555
C13 C12 1_555 1_555
H9 C13 1_555 1_555
H10 C13 1_555 1_555
H11 C13 1_555 1_555
Co1A O2 1_555 1_555
Co1B O4 1_555 1_555
O2A Co1 1_555 1_555
O4B Co1 1_555 1_555
C4 C9 1_555 1_555
C8 C9 1_555 1_555
C10 C11 1_555 1_555

#END
