
#######################################################################
#
#                 Cambridge Crystallographic Data Centre
#                                CCDC 
#
#######################################################################
#
# If this CIF has been generated from an entry in the Cambridge 
# Structural Database, then it will include bibliographic, chemical, 
# crystal, experimental, refinement or atomic coordinate data resulting 
# from the CCDC's data processing and validation procedures.
#
#######################################################################

data_GUGSUX
_symmetry_cell_setting           orthorhombic
_symmetry_space_group_name_H-M   'P c a 21'
_symmetry_Int_Tables_number      29
_space_group_name_Hall           'P 2c -2ac'
loop_
_symmetry_equiv_pos_site_id
_symmetry_equiv_pos_as_xyz
1 x,y,z
2 -x,-y,1/2+z
3 1/2-x,y,1/2+z
4 1/2+x,-y,z
_cell_length_a                   15.9740(16)
_cell_length_b                   10.0241(10)
_cell_length_c                   7.6552(8)
_cell_angle_alpha                90
_cell_angle_beta                 90
_cell_angle_gamma                90
_cell_volume                     1225.79
loop_
_atom_site_label
_atom_site_type_symbol
_atom_site_fract_x
_atom_site_fract_y
_atom_site_fract_z
Mn1 Mn -0.363323(18) -0.43625(3) 0.65716(5)
O1 O -0.40077(10) -0.32138(15) 0.4099(2)
O2 O -0.41741(11) -0.57298(15) 0.4730(2)
O3 O -0.50908(10) -0.60753(16) 0.2590(3)
O4 O -0.24086(12) -0.45849(16) 0.5406(3)
N1 N -0.34465(12) -0.21664(19) 0.7025(2)
C1 C -0.31856(15) -0.1655(2) 0.8522(3)
H1 H -0.2989 -0.2229 0.9384
C2 C -0.31947(17) -0.0280(3) 0.8861(3)
H2 H -0.3009 0.0041 0.9932
C3 C -0.34718(17) 0.0575(2) 0.7639(4)
H3 H -0.3479 0.1486 0.7867
C4 C -0.37512(13) 0.0092(2) 0.6013(4)
C5 C -0.40514(16) 0.0915(2) 0.4638(4)
H4 H -0.4060 0.1837 0.4771
C6 C -0.43255(16) 0.0354(2) 0.3131(4)
H5 H -0.4517 0.0904 0.2238
C7 C -0.43284(15) -0.1038(2) 0.2879(4)
H6 H -0.4525 -0.1400 0.1838
C8 C -0.40402(13) -0.1850(2) 0.4180(3)
C9 C -0.37322(12) -0.1316(2) 0.5766(3)
C10 C -0.45416(14) -0.3897(2) 0.2891(3)
H7 H -0.4310 -0.3844 0.1721
H8 H -0.5092 -0.3488 0.2881
C11 C -0.46070(14) -0.5347(2) 0.3462(3)
C12 C -0.19809(14) -0.5578(2) 0.5007(3)
C13 C -0.20237(19) -0.6825(2) 0.6090(4)
H9 H -0.2068 -0.6591 0.7302
H10 H -0.1526 -0.7344 0.5908
H11 H -0.2505 -0.7338 0.5751
O5 O -0.15055(12) -0.56312(19) 0.3697(3)
Mn1A Mn -0.636677(18) -0.56375(3) 0.15716(5)
Mn1B Mn -0.136677(18) -0.43625(3) 0.15716(5)
O3A O -0.49092(10) -0.39247(16) 0.7590(3)
O5B O -0.34945(12) -0.56312(19) 0.8697(3)
loop_
_geom_bond_atom_site_label_1
_geom_bond_atom_site_label_2
_geom_bond_site_symmetry_1
_geom_bond_site_symmetry_2
Mn1 O1 1_555 1_555
O1 C8 1_555 1_555
O2 Mn1 1_555 1_555
O3 C11 1_555 1_555
O4 Mn1 1_555 1_555
N1 Mn1 1_555 1_555
C1 N1 1_555 1_555
H1 C1 1_555 1_555
C2 C1 1_555 1_555
H2 C2 1_555 1_555
C3 C2 1_555 1_555
H3 C3 1_555 1_555
C4 C3 1_555 1_555
C5 C4 1_555 1_555
H4 C5 1_555 1_555
C6 C5 1_555 1_555
H5 C6 1_555 1_555
C7 C6 1_555 1_555
H6 C7 1_555 1_555
C8 C7 1_555 1_555
C9 N1 1_555 1_555
C10 O1 1_555 1_555
H7 C10 1_555 1_555
H8 C10 1_555 1_555
C11 O2 1_555 1_555
C12 O4 1_555 1_555
C13 C12 1_555 1_555
H9 C13 1_555 1_555
H10 C13 1_555 1_555
H11 C13 1_555 1_555
O5 C12 1_555 1_555
Mn1A O3 1_555 1_555
Mn1B O5 1_555 1_555
O3A Mn1 1_555 1_555
O5B Mn1 1_555 1_555
C4 C9 1_555 1_555
C8 C9 1_555 1_555
C10 C11 1_555 1_555

#END
