
#######################################################################
#
#                 Cambridge Crystallographic Data Centre
#                                CCDC 
#
#######################################################################
#
# If this CIF has been generated from an entry in the Cambridge 
# Structural Database, then it will include bibliographic, chemical, 
# crystal, experimental, refinement or atomic coordinate data resulting 
# from the CCDC's data processing and validation procedures.
#
#######################################################################

data_GUGSIL
_symmetry_cell_setting           orthorhombic
_symmetry_space_group_name_H-M   'P b c a'
_symmetry_Int_Tables_number      61
_space_group_name_Hall           '-P 2ac 2ab'
loop_
_symmetry_equiv_pos_site_id
_symmetry_equiv_pos_as_xyz
1 x,y,z
2 1/2-x,-y,1/2+z
3 -x,1/2+y,1/2-z
4 1/2+x,1/2-y,-z
5 -x,-y,-z
6 1/2+x,y,1/2-z
7 x,1/2-y,1/2+z
8 1/2-x,1/2+y,z
_cell_length_a                   16.5177(19)
_cell_length_b                   7.1669(8)
_cell_length_c                   18.958(2)
_cell_angle_alpha                90
_cell_angle_beta                 90
_cell_angle_gamma                90
_cell_volume                     2244.26
loop_
_atom_site_label
_atom_site_type_symbol
_atom_site_fract_x
_atom_site_fract_y
_atom_site_fract_z
Co1 Co 0.631415(19) 0.13362(4) 0.708095(15)
N1 N 0.65136(12) 0.1865(3) 0.59801(10)
O1 O 0.59136(11) -0.1145(2) 0.65461(8)
O2 O 0.48393(11) -0.2420(3) 0.80805(9)
O3 O 0.58270(11) -0.0408(3) 0.78654(8)
O4 O 0.74362(11) -0.0009(3) 0.71392(8)
O5 O 0.83720(12) -0.1556(3) 0.77423(10)
C1 C 0.68041(16) 0.3408(3) 0.57015(13)
H1 H 0.6994 0.4337 0.6001
C2 C 0.68395(16) 0.3711(4) 0.49690(13)
H2 H 0.7043 0.4829 0.4794
C3 C 0.65774(17) 0.2373(3) 0.45194(12)
H3 H 0.6599 0.2571 0.4035
C4 C 0.62731(14) 0.0683(4) 0.47869(12)
C5 C 0.59855(17) -0.0789(4) 0.43650(13)
H4 H 0.6006 -0.0689 0.3876
C6 C 0.56779(17) -0.2358(4) 0.46678(13)
H5 H 0.5487 -0.3317 0.4382
C7 C 0.56440(16) -0.2556(3) 0.54078(12)
H6 H 0.5435 -0.3638 0.5608
C8 C 0.59206(14) -0.1149(3) 0.58261(12)
C9 C 0.62472(13) 0.0495(3) 0.55310(12)
C10 C 0.53848(17) -0.2358(3) 0.69224(13)
H7 H 0.5588 -0.3627 0.6907
H8 H 0.4849 -0.2338 0.6713
C11 C 0.53471(14) -0.1668(3) 0.76836(12)
C12 C 0.78068(16) -0.0412(4) 0.76781(14)
H9 H 0.7649 0.0207 0.8087
Co1B Co 0.368585(19) -0.36638(4) 0.791905(15)
Co1G Co 0.868585(19) -0.36638(4) 0.708095(15)
O2B O 0.51607(11) 0.2580(3) 0.69195(9)
O5G O 0.66280(12) 0.3444(3) 0.77423(10)
loop_
_geom_bond_atom_site_label_1
_geom_bond_atom_site_label_2
_geom_bond_site_symmetry_1
_geom_bond_site_symmetry_2
Co1 N1 1_555 1_555
N1 C1 1_555 1_555
O1 Co1 1_555 1_555
O2 C11 1_555 1_555
O3 Co1 1_555 1_555
O4 Co1 1_555 1_555
O5 C12 1_555 1_555
C1 H1 1_555 1_555
C2 C1 1_555 1_555
H2 C2 1_555 1_555
C3 C2 1_555 1_555
H3 C3 1_555 1_555
C4 C3 1_555 1_555
C5 C4 1_555 1_555
H4 C5 1_555 1_555
C6 C5 1_555 1_555
H5 C6 1_555 1_555
C7 C6 1_555 1_555
H6 C7 1_555 1_555
C8 O1 1_555 1_555
C9 N1 1_555 1_555
C10 O1 1_555 1_555
H7 C10 1_555 1_555
H8 C10 1_555 1_555
C11 O3 1_555 1_555
C12 O4 1_555 1_555
H9 C12 1_555 1_555
Co1B O2 1_555 1_555
Co1G O5 1_555 1_555
O2B Co1 1_555 1_555
O5G Co1 1_555 1_555
C4 C9 1_555 1_555
C7 C8 1_555 1_555
C8 C9 1_555 1_555
C10 C11 1_555 1_555

#END
