
#######################################################################
#
#                 Cambridge Crystallographic Data Centre
#                                CCDC 
#
#######################################################################
#
# If this CIF has been generated from an entry in the Cambridge 
# Structural Database, then it will include bibliographic, chemical, 
# crystal, experimental, refinement or atomic coordinate data resulting 
# from the CCDC's data processing and validation procedures.
#
#######################################################################

data_GUGVIP
_symmetry_cell_setting           orthorhombic
_symmetry_space_group_name_H-M   'P 21 21 21'
_symmetry_Int_Tables_number      19
_space_group_name_Hall           'P 2ac 2ab'
loop_
_symmetry_equiv_pos_site_id
_symmetry_equiv_pos_as_xyz
1 x,y,z
2 1/2-x,-y,1/2+z
3 -x,1/2+y,1/2-z
4 1/2+x,1/2-y,-z
_cell_length_a                   5.7622(4)
_cell_length_b                   14.8303(11)
_cell_length_c                   22.8112(17)
_cell_angle_alpha                90
_cell_angle_beta                 90
_cell_angle_gamma                90
_cell_volume                     1949.33
loop_
_atom_site_label
_atom_site_type_symbol
_atom_site_fract_x
_atom_site_fract_y
_atom_site_fract_z
Zn1 Zn 0.19556(3) 0.518454(11) 0.410280(7)
O1 O 0.36148(17) 0.63932(7) 0.40753(5)
C1 C 0.2911(3) 0.71706(10) 0.39580(6)
H1 H 0.1604 0.7221 0.3706
O2 O 0.3779(2) 0.78804(8) 0.41433(6)
O3 O -0.13726(17) 0.56294(7) 0.40181(5)
H2 H -0.175(3) 0.6143(10) 0.4213(7)
H3 H -0.251(3) 0.5258(11) 0.4062(8)
N1 N 0.1911(2) 0.52980(8) 0.50642(5)
C2 C 0.3722(3) 0.56520(11) 0.53473(6)
H4 H 0.4918 0.5925 0.5122
C3 C 0.3952(3) 0.56430(11) 0.59533(7)
H5 H 0.5275 0.5906 0.6134
C4 C 0.2225(2) 0.52447(10) 0.62959(6)
C5 C 0.0305(3) 0.49002(11) 0.59982(6)
H6 H -0.0943 0.4640 0.6211
C6 C 0.0220(3) 0.49374(11) 0.53933(6)
H7 H -0.1103 0.4695 0.5201
N2 N 0.2803(2) 0.50229(8) 0.81704(5)
C7 C 0.4442(3) 0.54338(10) 0.78526(6)
H8 H 0.5757 0.5672 0.8050
C8 C 0.4316(3) 0.55279(11) 0.72498(6)
H9 H 0.5524 0.5827 0.7044
C9 C 0.2416(2) 0.51842(10) 0.69447(6)
C10 C 0.0700(2) 0.47650(12) 0.72813(6)
H10 H -0.0639 0.4523 0.7097
C11 C 0.0951(3) 0.47023(11) 0.78824(6)
H11 H -0.0246 0.4419 0.8102
O4 O 0.50984(17) 0.44874(7) 0.41944(4)
O5 O 0.67952(19) 0.32150(7) 0.44823(5)
C12 C 0.5051(3) 0.36737(11) 0.43551(6)
C13 C 0.2678(2) 0.32152(10) 0.44196(6)
H12 H 0.2376 0.3126 0.4847
O6 O 0.09202(18) 0.37995(7) 0.41945(4)
H13 H -0.044(3) 0.3609(13) 0.4313(7)
C14 C 0.2609(2) 0.22865(9) 0.41223(7)
H14 H 0.3955 0.1930 0.4260
H15 H 0.1186 0.1969 0.4250
C15 C 0.2648(3) 0.23076(10) 0.34600(7)
C16 C 0.0794(3) 0.19613(11) 0.31425(7)
H16 H -0.0514 0.1727 0.3345
C17 C 0.0822(3) 0.19517(13) 0.25322(8)
H17 H -0.0454 0.1704 0.2323
C18 C 0.2687(3) 0.22993(11) 0.22286(7)
H18 H 0.2692 0.2300 0.1812
C19 C 0.4552(3) 0.26474(13) 0.25363(8)
H19 H 0.5841 0.2889 0.2330
C20 C 0.4552(3) 0.26450(12) 0.31470(7)
H20 H 0.5856 0.2875 0.3353
Zn1A Zn 0.30444(3) 0.481546(11) 0.910280(7)
N2A N 0.2197(2) 0.49771(8) 0.31704(5)
O7 O -0.1887(2) 0.71651(9) 0.46053(6)
H21 H -0.328(3) 0.7422(14) 0.4495(9)
H22 H -0.170(4) 0.7154(14) 0.5007(7)
loop_
_geom_bond_atom_site_label_1
_geom_bond_atom_site_label_2
_geom_bond_site_symmetry_1
_geom_bond_site_symmetry_2
Zn1 O1 1_555 1_555
O1 C1 1_555 1_555
C1 H1 1_555 1_555
O2 C1 1_555 1_555
O3 Zn1 1_555 1_555
H2 O3 1_555 1_555
H3 O3 1_555 1_555
N1 Zn1 1_555 1_555
C2 N1 1_555 1_555
H4 C2 1_555 1_555
C3 C2 1_555 1_555
H5 C3 1_555 1_555
C4 C3 1_555 1_555
C5 C4 1_555 1_555
H6 C5 1_555 1_555
C6 N1 1_555 1_555
H7 C6 1_555 1_555
N2 C7 1_555 1_555
C7 H8 1_555 1_555
C8 C7 1_555 1_555
H9 C8 1_555 1_555
C9 C4 1_555 1_555
C10 C9 1_555 1_555
H10 C10 1_555 1_555
C11 N2 1_555 1_555
H11 C11 1_555 1_555
O4 Zn1 1_555 1_555
O5 C12 1_555 1_555
C12 O4 1_555 1_555
C13 C12 1_555 1_555
H12 C13 1_555 1_555
O6 Zn1 1_555 1_555
H13 O6 1_555 1_555
C14 C13 1_555 1_555
H14 C14 1_555 1_555
H15 C14 1_555 1_555
C15 C14 1_555 1_555
C16 C15 1_555 1_555
H16 C16 1_555 1_555
C17 C16 1_555 1_555
H17 C17 1_555 1_555
C18 C17 1_555 1_555
H18 C18 1_555 1_555
C19 C18 1_555 1_555
H19 C19 1_555 1_555
C20 C15 1_555 1_555
H20 C20 1_555 1_555
O7 H21 1_555 1_555
H22 O7 1_555 1_555
Zn1A N2 1_555 1_555
N2A Zn1 1_555 1_555
C5 C6 1_555 1_555
C8 C9 1_555 1_555
C10 C11 1_555 1_555
C13 O6 1_555 1_555
C19 C20 1_555 1_555

#END
