
#######################################################################
#
#                 Cambridge Crystallographic Data Centre
#                                CCDC 
#
#######################################################################
#
# If this CIF has been generated from an entry in the Cambridge 
# Structural Database, then it will include bibliographic, chemical, 
# crystal, experimental, refinement or atomic coordinate data resulting 
# from the CCDC's data processing and validation procedures.
#
#######################################################################

data_GUGWAI
_symmetry_cell_setting           monoclinic
_symmetry_space_group_name_H-M   'P 21'
_symmetry_Int_Tables_number      4
_space_group_name_Hall           'P 2yb'
loop_
_symmetry_equiv_pos_site_id
_symmetry_equiv_pos_as_xyz
1 x,y,z
2 -x,1/2+y,-z
_cell_length_a                   5.7402(2)
_cell_length_b                   16.9314(7)
_cell_length_c                   11.5360(5)
_cell_angle_alpha                90
_cell_angle_beta                 98.002(1)
_cell_angle_gamma                90
_cell_volume                     1110.26
loop_
_atom_site_label
_atom_site_type_symbol
_atom_site_fract_x
_atom_site_fract_y
_atom_site_fract_z
Zn1 Zn 0.19319(3) 0.344103(13) 0.274289(16)
O1 O -0.1488(2) 0.30451(9) 0.24125(12)
H1 H -0.259(3) 0.3323(14) 0.2605(17)
H2 H -0.155(3) 0.2546(14) 0.2690(19)
N1 N 0.1855(2) 0.34419(14) 0.07959(11)
C1 C 0.0097(3) 0.37588(12) 0.00610(17)
H3 H -0.1159 0.4002 0.0383
C2 C 0.0007(3) 0.37517(12) -0.11436(16)
H4 H -0.1285 0.3987 -0.1625
C3 C 0.1817(3) 0.33979(15) -0.16517(13)
C4 C 0.3633(3) 0.30621(12) -0.08802(16)
H5 H 0.4899 0.2806 -0.1177
C5 C 0.3599(3) 0.31007(12) 0.03101(16)
H6 H 0.4875 0.2874 0.0814
C6 C 0.0166(3) 0.37808(12) -0.48880(16)
H7 H -0.1066 0.4037 -0.5383
C7 C 0.0081(3) 0.37750(12) -0.36979(17)
H8 H -0.1191 0.4023 -0.3396
C8 C 0.1841(3) 0.34092(16) -0.29403(13)
C9 C 0.3644(3) 0.30613(13) -0.34554(17)
H9 H 0.4902 0.2804 -0.2980
C10 C 0.3609(3) 0.30895(13) -0.46524(17)
H10 H 0.4860 0.2846 -0.4978
N2 N 0.1899(2) 0.34430(14) -0.53789(11)
O2 O 0.3545(2) 0.23766(7) 0.28036(11)
O3 O 0.0434(2) 0.16543(8) 0.31586(14)
C11 C 0.2455(3) 0.17323(12) 0.28939(16)
C12 C 0.3783(3) 0.09825(11) 0.26438(17)
H11 H 0.5322 0.0975 0.3170
O4 O 0.2460(3) 0.03081(9) 0.28943(14)
H12 H 0.118(3) 0.0490(14) 0.305(2)
C13 C 0.4271(3) 0.09707(11) 0.13771(17)
H13 H 0.5264 0.1441 0.1261
C14 C 0.2020(4) 0.10331(14) 0.05049(19)
H14 H 0.2417 0.1027 -0.0294
H15 H 0.1208 0.1527 0.0638
H16 H 0.0991 0.0585 0.0611
C15 C 0.5679(4) 0.02348(13) 0.1153(2)
H17 H 0.5988 0.0235 0.0339
H18 H 0.4777 -0.0238 0.1297
H19 H 0.7175 0.0235 0.1679
O5 O 0.5105(2) 0.40471(8) 0.28519(11)
O6 O 0.6625(2) 0.50930(9) 0.20419(14)
C16 C 0.4971(3) 0.47371(11) 0.24019(16)
C17 C 0.2638(3) 0.51812(12) 0.23342(17)
H20 H 0.2120 0.5333 0.1500
O7 O 0.0925(2) 0.46538(8) 0.26970(12)
H21 H -0.040(3) 0.4811(13) 0.2458(17)
C18 C 0.2969(4) 0.59329(13) 0.30673(19)
H22 H 0.4266 0.6241 0.2784
C19 C 0.0782(4) 0.64534(15) 0.2900(3)
H23 H 0.0325 0.6559 0.2064
H24 H 0.1122 0.6953 0.3317
H25 H -0.0506 0.6182 0.3211
C20 C 0.3733(5) 0.57561(16) 0.4353(2)
H26 H 0.5135 0.5419 0.4437
H27 H 0.2460 0.5483 0.4674
H28 H 0.4098 0.6252 0.4779
Zn1_2 Zn 0.19319(3) 0.344103(13) -0.725711(16)
N2_2 N 0.1899(2) 0.34430(14) 0.46211(11)
loop_
_geom_bond_atom_site_label_1
_geom_bond_atom_site_label_2
_geom_bond_site_symmetry_1
_geom_bond_site_symmetry_2
Zn1 O1 1_555 1_555
O1 H1 1_555 1_555
H2 O1 1_555 1_555
N1 Zn1 1_555 1_555
C1 N1 1_555 1_555
H3 C1 1_555 1_555
C2 C1 1_555 1_555
H4 C2 1_555 1_555
C3 C2 1_555 1_555
C4 C3 1_555 1_555
H5 C4 1_555 1_555
C5 N1 1_555 1_555
H6 C5 1_555 1_555
C6 H7 1_555 1_555
C7 C6 1_555 1_555
H8 C7 1_555 1_555
C8 C3 1_555 1_555
C9 C8 1_555 1_555
H9 C9 1_555 1_555
C10 C9 1_555 1_555
H10 C10 1_555 1_555
N2 C6 1_555 1_555
O2 Zn1 1_555 1_555
O3 C11 1_555 1_555
C11 O2 1_555 1_555
C12 C11 1_555 1_555
H11 C12 1_555 1_555
O4 C12 1_555 1_555
H12 O4 1_555 1_555
C13 C12 1_555 1_555
H13 C13 1_555 1_555
C14 C13 1_555 1_555
H14 C14 1_555 1_555
H15 C14 1_555 1_555
H16 C14 1_555 1_555
C15 C13 1_555 1_555
H17 C15 1_555 1_555
H18 C15 1_555 1_555
H19 C15 1_555 1_555
O5 Zn1 1_555 1_555
O6 C16 1_555 1_555
C16 O5 1_555 1_555
C17 C16 1_555 1_555
H20 C17 1_555 1_555
O7 Zn1 1_555 1_555
H21 O7 1_555 1_555
C18 C17 1_555 1_555
H22 C18 1_555 1_555
C19 C18 1_555 1_555
H23 C19 1_555 1_555
H24 C19 1_555 1_555
H25 C19 1_555 1_555
C20 C18 1_555 1_555
H26 C20 1_555 1_555
H27 C20 1_555 1_555
H28 C20 1_555 1_555
Zn1_2 N2 1_555 1_555
N2_2 Zn1 1_555 1_555
C4 C5 1_555 1_555
C7 C8 1_555 1_555
C10 N2 1_555 1_555
C17 O7 1_555 1_555

#END
