
#######################################################################
#
#                 Cambridge Crystallographic Data Centre
#                                CCDC 
#
#######################################################################
#
# If this CIF has been generated from an entry in the Cambridge 
# Structural Database, then it will include bibliographic, chemical, 
# crystal, experimental, refinement or atomic coordinate data resulting 
# from the CCDC's data processing and validation procedures.
#
#######################################################################

data_GUGZOZ
_symmetry_cell_setting           triclinic
_symmetry_space_group_name_H-M   'P -1'
_symmetry_Int_Tables_number      2
_space_group_name_Hall           '-P 1'
loop_
_symmetry_equiv_pos_site_id
_symmetry_equiv_pos_as_xyz
1 x,y,z
2 -x,-y,-z
_cell_length_a                   10.9548(4)
_cell_length_b                   18.8300(8)
_cell_length_c                   26.6494(11)
_cell_angle_alpha                102.556(3)
_cell_angle_beta                 96.568(3)
_cell_angle_gamma                96.004(3)
_cell_volume                     5282.8
loop_
_atom_site_label
_atom_site_type_symbol
_atom_site_fract_x
_atom_site_fract_y
_atom_site_fract_z
Zn1 Zn 0.50692(7) 0.71865(4) 0.21688(3)
Zn2 Zn 0.55010(7) 0.83421(4) 0.31802(3)
Zn3 Zn 0.47951(7) 0.29287(4) 0.20241(3)
Zn4 Zn 0.49875(7) 0.24350(4) 0.30278(3)
C1 C 0.9046(7) 0.7836(4) 0.2699(3)
C2 C 0.9842(6) 0.8372(4) 0.3054(3)
C3 C 1.1133(7) 0.8339(4) 0.3058(3)
H1 H 1.1692 0.8693 0.3297
C4 C 1.1591(6) 0.7788(4) 0.2713(3)
C5 C 1.0757(6) 0.7269(4) 0.2357(3)
C6 C 0.9501(6) 0.7298(4) 0.2344(3)
H2 H 0.8947 0.6954 0.2096
C7 C 0.7642(6) 0.7791(4) 0.2674(3)
C8 C 1.2941(7) 0.7803(4) 0.2727(3)
C9 C 0.9515(6) 0.9001(4) 0.3448(3)
C10 C 0.8944(7) 0.9591(4) 0.3250(4)
C11 C 0.8608(8) 1.0147(5) 0.3608(4)
H3 H 0.8757 1.0142 0.3957
C12 C 0.8074(9) 1.0699(5) 0.3474(5)
H4 H 0.7900 1.1081 0.3731
C13 C 0.7782(8) 1.0704(6) 0.2966(6)
H5 H 0.7338 1.1058 0.2868
C14 C 0.8168(8) 1.0165(5) 0.2597(5)
H6 H 0.8035 1.0175 0.2247
C15 C 0.8737(7) 0.9625(5) 0.2743(4)
H7 H 0.8992 0.9268 0.2492
C16 C 1.1138(7) 0.6639(5) 0.1973(4)
C17 C 1.1528(7) 0.5984(4) 0.2143(4)
C18 C 1.1501(8) 0.5929(5) 0.2648(4)
H8 H 1.1239 0.6304 0.2883
C19 C 1.1864(9) 0.5313(5) 0.2813(5)
H9 H 1.1818 0.5259 0.3149
C20 C 1.2290(10) 0.4795(6) 0.2454(6)
H10 H 1.2607 0.4403 0.2559
C21 C 1.2267(10) 0.4832(6) 0.1952(6)
H11 H 1.2492 0.4447 0.1712
C22 C 1.1909(9) 0.5443(5) 0.1793(5)
H12 H 1.1928 0.5481 0.1452
C23 C 0.5139(6) 0.6063(4) 0.3400(3)
C24 C 0.5108(6) 0.5338(4) 0.3122(3)
H13 H 0.5086 0.5238 0.2764
C25 C 0.5109(7) 0.4763(4) 0.3375(3)
C26 C 0.5185(7) 0.4936(4) 0.3919(3)
C27 C 0.5177(7) 0.5645(4) 0.4188(3)
H14 H 0.5197 0.5746 0.4546
C28 C 0.5140(7) 0.6217(4) 0.3932(3)
C29 C 0.5208(6) 0.6672(4) 0.3113(3)
C30 C 0.5046(6) 0.4003(4) 0.3062(3)
C31 C 0.5280(9) 0.4354(4) 0.4245(3)
C32 C 0.6402(13) 0.4043(7) 0.4337(5)
C33 C 0.6396(12) 0.3446(7) 0.4555(5)
H15 H 0.5686 0.3295 0.4685
C34 C 0.7365(15) 0.3070(8) 0.4589(6)
H16 H 0.7298 0.2658 0.4729
C35 C 0.8469(15) 0.3288(8) 0.4418(6)
H17 H 0.9165 0.3057 0.4475
C36 C 0.8514(14) 0.3879(8) 0.4151(6)
H18 H 0.9206 0.4002 0.3999
C37 C 0.7445(14) 0.4277(8) 0.4125(6)
H19 H 0.7455 0.4677 0.3973
C38 C 0.5065(8) 0.6976(4) 0.4259(3)
C39 C 0.3903(8) 0.7264(5) 0.4245(3)
C40 C 0.3856(10) 0.7991(5) 0.4487(4)
H20 H 0.4596 0.8285 0.4643
C41 C 0.2791(13) 0.8295(6) 0.4508(5)
H21 H 0.2808 0.8784 0.4677
C42 C 0.1686(13) 0.7878(8) 0.4279(5)
H22 H 0.0945 0.8077 0.4288
C43 C 0.1700(10) 0.7147(7) 0.4031(4)
H23 H 0.0958 0.6855 0.3876
C44 C 0.2813(9) 0.6843(6) 0.4012(4)
H24 H 0.2807 0.6356 0.3841
C45 C 0.1139(7) 0.2614(4) 0.2439(3)
C46 C 0.0499(6) 0.2219(4) 0.2736(3)
C47 C -0.0732(7) 0.2314(4) 0.2790(3)
H25 H -0.1159 0.2040 0.2982
C48 C -0.1330(6) 0.2804(4) 0.2567(3)
C49 C -0.0706(7) 0.3187(4) 0.2261(3)
C50 C 0.0509(6) 0.3083(4) 0.2200(3)
H26 H 0.0917 0.3336 0.1991
C51 C 0.2466(7) 0.2604(4) 0.2418(4)
C52 C -0.2720(7) 0.2797(4) 0.2578(3)
C53 C 0.1027(7) 0.1654(5) 0.2993(4)
C54 C 0.1353(7) 0.0986(5) 0.2657(4)
C55 C 0.1997(8) 0.0513(5) 0.2886(4)
H27 H 0.2236 0.0623 0.3244
C56 C 0.2279(9) -0.0121(6) 0.2579(5)
H28 H 0.2715 -0.0433 0.2736
C57 C 0.1947(10) -0.0302(6) 0.2064(6)
H29 H 0.2171 -0.0726 0.1865
C58 C 0.1275(11) 0.0143(6) 0.1833(5)
H30 H 0.1002 0.0009 0.1478
C59 C 0.0998(9) 0.0798(5) 0.2129(4)
H31 H 0.0571 0.1109 0.1968
C60 C -0.1251(7) 0.3754(5) 0.2005(4)
C61 C -0.1528(8) 0.4439(5) 0.2351(5)
C62 C -0.1165(9) 0.4601(5) 0.2873(5)
H32 H -0.0806 0.4257 0.3023
C63 C -0.1318(11) 0.5274(7) 0.3191(5)
H33 H -0.1044 0.5391 0.3547
C64 C -0.1896(12) 0.5758(8) 0.2953(6)
H34 H -0.2045 0.6198 0.3159
C65 C -0.2234(11) 0.5631(7) 0.2465(6)
H35 H -0.2589 0.5987 0.2328
C66 C -0.2088(8) 0.4960(6) 0.2122(5)
H36 H -0.2346 0.4868 0.1767
C67 C 0.4980(7) 0.0579(4) 0.1754(3)
C68 C 0.5074(6) 0.0052(4) 0.2058(3)
H37 H 0.5051 0.0192 0.2413
H38 H 0.5134 -0.0491 0.0649
C69 C 0.5198(6) -0.0660(4) 0.1839(3)
C70 C 0.5223(7) -0.0864(4) 0.1307(3)
C71 C 0.5124(7) -0.0346(4) 0.1008(3)
C72 C 0.5015(7) 0.0364(4) 0.1231(3)
C73 C 0.4864(7) 0.1352(4) 0.2046(3)
C74 C 0.5246(6) -0.1216(4) 0.2165(3)
C75 C 0.5385(8) -0.1625(5) 0.1013(3)
C76 C 0.6631(10) -0.1850(5) 0.1056(4)
C77 C 0.6778(11) -0.2567(6) 0.0853(5)
H39 H 0.6083 -0.2897 0.0689
C78 C 0.7894(17) -0.2808(9) 0.0883(7)
H40 H 0.7945 -0.3302 0.0752
C79 C 0.8983(15) -0.2327(10) 0.1108(7)
H41 H 0.9761 -0.2484 0.1115
C80 C 0.8832(12) -0.1598(9) 0.1323(5)
H42 H 0.9521 -0.1259 0.1483
C81 C 0.7639(11) -0.1375(7) 0.1297(4)
H43 H 0.7549 -0.0893 0.1448
C82 C 0.4959(17) 0.0906(6) 0.0849(5)
O1 O 0.580(3) 0.1208(14) 0.0764(11)
C83 C 0.367(16) 0.103(10) 0.065(5)
C84 C 0.261(3) 0.0675(14) 0.0769(10)
H44 H 0.2688 0.0359 0.0992
C85 C 0.146(3) 0.0784(15) 0.0566(11)
H45 H 0.0754 0.0543 0.0650
C86 C 0.135(2) 0.1259(14) 0.0232(10)
H46 H 0.0566 0.1337 0.0094
C87 C 0.239(2) 0.1607(11) 0.0110(8)
H47 H 0.2317 0.1920 -0.0115
C88 C 0.3546(19) 0.1503(10) 0.0314(7)
H48 H 0.4249 0.1748 0.0230
C89 C 0.2884(7) 0.1151(4) 0.5814(3)
H49 H 0.2439 0.1542 0.5907
C90 C 0.4168(7) 0.0414(4) 0.5816(3)
H50 H 0.4826 0.0184 0.5927
C91 C 0.1626(7) 0.0550(5) 0.4935(3)
H51 H 0.1151 0.0066 0.4868
H52 H 0.1069 0.0913 0.5016
C92 C 0.2210(8) 0.0643(5) 0.4459(3)
H53 H 0.1577 0.0533 0.4157
H54 H 0.2816 0.0306 0.4395
C93 C 0.2842(8) 0.1434(4) 0.4548(3)
H55 H 0.2211 0.1758 0.4538
H56 H 0.3328 0.1577 0.4890
C94 C 0.3826(7) 0.2060(4) 0.3922(3)
H57 H 0.3393 0.2463 0.3961
C95 C 0.5028(8) 0.1298(5) 0.3684(4)
H58 H 0.5621 0.1068 0.3510
C96 C 0.5051(13) 0.4148(8) -0.1271(6)
H59 H 0.4405 0.4349 -0.1423
C97 C 0.6340(10) 0.3460(7) -0.1106(5)
H60 H 0.6807 0.3074 -0.1110
C98 C 0.7365(17) 0.4190(11) -0.0251(7)
H61 H 0.7808 0.3771 -0.0246
H62 H 0.7953 0.4625 -0.0216
C99 C 0.6357(18) 0.4312(11) 0.0245(8)
H63 H 0.6747 0.4630 0.0573
H64 H 0.5563 0.4454 0.0133
C100 C 0.6317(14) 0.3565(9) 0.0232(5)
H65 H 0.7132 0.3430 0.0318
H66 H 0.5921 0.3259 -0.0100
C101 C 0.3872(11) 0.3366(6) 0.1015(4)
H67 H 0.3047 0.3321 0.1070
C102 C 0.5723(9) 0.3334(6) 0.1103(4)
H68 H 0.6513 0.3244 0.1218
N1 N 0.3880(5) 0.1030(3) 0.6105(2)
N2 N 0.2615(5) 0.0640(4) 0.5375(2)
N3 N 0.3458(7) 0.0148(4) 0.5361(3)
N4 N 0.4693(5) 0.1953(3) 0.3621(2)
N5 N 0.3651(6) 0.1527(4) 0.4159(3)
N6 N 0.4438(6) 0.1028(4) 0.4010(3)
N7 N 0.4798(6) 0.3253(3) 0.1352(3)
N8 N 0.4237(11) 0.3547(6) 0.0597(3)
N9 N 0.5465(9) 0.3548(6) 0.0687(4)
N10 N 0.6430(13) 0.4058(8) -0.0732(6)
N11 N 0.5741(15) 0.4455(7) -0.0797(6)
N12 N 0.5440(8) 0.3514(4) -0.1483(3)
O2 O 0.7271(4) 0.8193(3) 0.3056(2)
O3 O 0.6964(4) 0.7348(3) 0.2298(2)
O4 O 1.3343(4) 0.7391(3) 0.2366(2)
O5 O 1.3648(4) 0.8256(3) 0.3100(2)
O6 O 0.9773(5) 0.9024(3) 0.3908(2)
O7 O 1.0999(6) 0.6638(4) 0.1506(3)
O8 O 0.5370(4) 0.7315(2) 0.3374(2)
O9 O 0.5073(5) 0.6465(3) 0.2618(2)
O10 O 0.4990(5) 0.3500(3) 0.3323(2)
O11 O 0.4955(5) 0.3881(3) 0.2591(2)
O12 O 0.6002(6) 0.7283(3) 0.4548(3)
O13 O 0.4391(6) 0.4190(3) 0.4450(3)
O14 O -0.3158(5) 0.2620(3) 0.2958(2)
O15 O -0.3309(4) 0.2995(3) 0.2216(2)
O16 O 0.3081(5) 0.2396(3) 0.2770(2)
O17 O 0.2920(4) 0.2816(3) 0.2052(2)
O18 O -0.1343(6) 0.3653(4) 0.1531(3)
O19 O 0.1105(5) 0.1739(4) 0.3470(3)
O20 O 0.4743(5) 0.1821(3) 0.1767(2)
O21 O 0.4968(5) 0.1478(3) 0.2523(2)
O22 O 0.5104(5) -0.1882(3) 0.1908(2)
O23 O 0.5415(5) -0.1000(3) 0.2652(2)
O24 O 0.4520(6) -0.2015(3) 0.0730(3)
Zn1_2 Zn 0.50692(7) -0.28135(4) 0.21688(3)
Zn1_3 Zn 1.50692(7) 0.71865(4) 0.21688(3)
Zn1A Zn 0.49308(7) 0.28135(4) -0.21688(3)
Zn2_2 Zn 0.55010(7) -0.16579(4) 0.31802(3)
Zn2_3 Zn 1.55010(7) 0.83421(4) 0.31802(3)
Zn2A Zn 0.44990(7) 0.16579(4) 0.68198(3)
Zn3_2 Zn -0.52049(7) 0.29287(4) 0.20241(3)
Zn4_2 Zn -0.50125(7) 0.24350(4) 0.30278(3)
N1A N 0.6120(5) 0.8970(3) 0.3895(2)
N12A N 0.4560(8) 0.6486(4) 0.1483(3)
O4_2 O 0.3343(4) 0.7391(3) 0.2366(2)
O5_2 O 0.3648(4) 0.8256(3) 0.3100(2)
O14_2 O 0.6842(5) 0.2620(3) 0.2958(2)
O15_2 O 0.6691(4) 0.2995(3) 0.2216(2)
O22_2 O 0.5104(5) 0.8118(3) 0.1908(2)
O23_2 O 0.5415(5) 0.9000(3) 0.2652(2)
O26 O 0.9495(11) 0.5508(7) 0.0692(5)
O25? O 0.397(11) 0.093(7) 0.062(4)
C103? C 0.628(6) 0.124(4) 0.084(3)
C104? C 0.637(4) 0.161(2) 0.0435(15)
H69? H 0.5667 0.1591 0.0197
C105? C 0.749(4) 0.1997(19) 0.0388(15)
H70? H 0.7541 0.2236 0.0118
C106? C 0.855(4) 0.2027(19) 0.0746(17)
H71? H 0.9296 0.2289 0.0718
C107? C 0.847(4) 0.165(2) 0.1151(15)
H72? H 0.9171 0.1669 0.1387
C108? C 0.735(4) 0.127(2) 0.1199(16)
H73? H 0.7313 0.1023 0.1467
loop_
_geom_bond_atom_site_label_1
_geom_bond_atom_site_label_2
_geom_bond_site_symmetry_1
_geom_bond_site_symmetry_2
Zn1 O3 1_555 1_555
Zn2 O2 1_555 1_555
Zn3 N7 1_555 1_555
Zn4 N4 1_555 1_555
C1 C2 1_555 1_555
C2 C3 1_555 1_555
C3 H1 1_555 1_555
C4 C3 1_555 1_555
C5 C4 1_555 1_555
C6 C1 1_555 1_555
H2 C6 1_555 1_555
C7 C1 1_555 1_555
C8 C4 1_555 1_555
C9 C2 1_555 1_555
C10 C9 1_555 1_555
C11 C10 1_555 1_555
H3 C11 1_555 1_555
C12 C11 1_555 1_555
H4 C12 1_555 1_555
C13 C12 1_555 1_555
H5 C13 1_555 1_555
C14 C13 1_555 1_555
H6 C14 1_555 1_555
C15 C10 1_555 1_555
H7 C15 1_555 1_555
C16 C5 1_555 1_555
C17 C16 1_555 1_555
C18 C17 1_555 1_555
H8 C18 1_555 1_555
C19 C18 1_555 1_555
H9 C19 1_555 1_555
C20 C19 1_555 1_555
H10 C20 1_555 1_555
C21 C20 1_555 1_555
H11 C21 1_555 1_555
C22 C17 1_555 1_555
H12 C22 1_555 1_555
C23 C24 1_555 1_555
C24 H13 1_555 1_555
C25 C24 1_555 1_555
C26 C25 1_555 1_555
C27 C26 1_555 1_555
H14 C27 1_555 1_555
C28 C23 1_555 1_555
C29 C23 1_555 1_555
C30 C25 1_555 1_555
C31 C26 1_555 1_555
C32 C31 1_555 1_555
C33 C32 1_555 1_555
H15 C33 1_555 1_555
C34 C33 1_555 1_555
H16 C34 1_555 1_555
C35 C34 1_555 1_555
H17 C35 1_555 1_555
C36 C35 1_555 1_555
H18 C36 1_555 1_555
C37 C32 1_555 1_555
H19 C37 1_555 1_555
C38 C28 1_555 1_555
C39 C38 1_555 1_555
C40 C39 1_555 1_555
H20 C40 1_555 1_555
C41 C40 1_555 1_555
H21 C41 1_555 1_555
C42 C41 1_555 1_555
H22 C42 1_555 1_555
C43 C42 1_555 1_555
H23 C43 1_555 1_555
C44 C39 1_555 1_555
H24 C44 1_555 1_555
C45 C46 1_555 1_555
C46 C47 1_555 1_555
C47 H25 1_555 1_555
C48 C47 1_555 1_555
C49 C48 1_555 1_555
C50 C45 1_555 1_555
H26 C50 1_555 1_555
C51 C45 1_555 1_555
C52 C48 1_555 1_555
C53 C46 1_555 1_555
C54 C53 1_555 1_555
C55 C54 1_555 1_555
H27 C55 1_555 1_555
C56 C55 1_555 1_555
H28 C56 1_555 1_555
C57 C56 1_555 1_555
H29 C57 1_555 1_555
C58 C57 1_555 1_555
H30 C58 1_555 1_555
C59 C54 1_555 1_555
H31 C59 1_555 1_555
C60 C49 1_555 1_555
C61 C60 1_555 1_555
C62 C61 1_555 1_555
H32 C62 1_555 1_555
C63 C62 1_555 1_555
H33 C63 1_555 1_555
C64 C63 1_555 1_555
H34 C64 1_555 1_555
C65 C64 1_555 1_555
H35 C65 1_555 1_555
C66 C61 1_555 1_555
H36 C66 1_555 1_555
C67 C68 1_555 1_555
C68 H37 1_555 1_555
H38 C71 1_555 1_555
C69 C68 1_555 1_555
C70 C69 1_555 1_555
C71 C70 1_555 1_555
C72 C67 1_555 1_555
C73 C67 1_555 1_555
C74 C69 1_555 1_555
C75 C70 1_555 1_555
C76 C75 1_555 1_555
C77 C76 1_555 1_555
H39 C77 1_555 1_555
C78 C77 1_555 1_555
H40 C78 1_555 1_555
C79 C78 1_555 1_555
H41 C79 1_555 1_555
C80 C79 1_555 1_555
H42 C80 1_555 1_555
C81 C76 1_555 1_555
H43 C81 1_555 1_555
C82 C72 1_555 1_555
O1 C82 1_555 1_555
C83 C82 1_555 1_555
C84 C83 1_555 1_555
H44 C84 1_555 1_555
C85 C84 1_555 1_555
H45 C85 1_555 1_555
C86 C85 1_555 1_555
H46 C86 1_555 1_555
C87 C86 1_555 1_555
H47 C87 1_555 1_555
C88 C83 1_555 1_555
H48 C88 1_555 1_555
C89 H49 1_555 1_555
C90 H50 1_555 1_555
C91 H51 1_555 1_555
H52 C91 1_555 1_555
C92 C91 1_555 1_555
H53 C92 1_555 1_555
H54 C92 1_555 1_555
C93 C92 1_555 1_555
H55 C93 1_555 1_555
H56 C93 1_555 1_555
C94 H57 1_555 1_555
C95 H58 1_555 1_555
C96 H59 1_555 1_555
C97 H60 1_555 1_555
C98 H61 1_555 1_555
H62 C98 1_555 1_555
C99 C98 1_555 1_555
H63 C99 1_555 1_555
H64 C99 1_555 1_555
C100 C99 1_555 1_555
H65 C100 1_555 1_555
H66 C100 1_555 1_555
C101 H67 1_555 1_555
C102 H68 1_555 1_555
N1 C89 1_555 1_555
N2 C89 1_555 1_555
N3 C90 1_555 1_555
N4 C94 1_555 1_555
N5 C93 1_555 1_555
N6 C95 1_555 1_555
N7 C101 1_555 1_555
N8 C101 1_555 1_555
N9 C100 1_555 1_555
N10 C97 1_555 1_555
N11 C96 1_555 1_555
N12 C96 1_555 1_555
O2 C7 1_555 1_555
O3 C7 1_555 1_555
O4 C8 1_555 1_555
O5 C8 1_555 1_555
O6 C9 1_555 1_555
O7 C16 1_555 1_555
O8 Zn2 1_555 1_555
O9 Zn1 1_555 1_555
O10 Zn4 1_555 1_555
O11 Zn3 1_555 1_555
O12 C38 1_555 1_555
O13 C31 1_555 1_555
O14 C52 1_555 1_555
O15 C52 1_555 1_555
O16 Zn4 1_555 1_555
O17 Zn3 1_555 1_555
O18 C60 1_555 1_555
O19 C53 1_555 1_555
O20 Zn3 1_555 1_555
O21 Zn4 1_555 1_555
O22 C74 1_555 1_555
O23 C74 1_555 1_555
O24 C75 1_555 1_555
Zn1_2 O22 1_555 1_555
Zn1_3 O4 1_555 1_555
Zn1A N12 1_555 1_555
Zn2_2 O23 1_555 1_555
Zn2_3 O5 1_555 1_555
Zn2A N1 1_555 1_555
Zn3_2 O15 1_555 1_555
Zn4_2 O14 1_555 1_555
N1A Zn2 1_555 1_555
N12A Zn1 1_555 1_555
O4_2 Zn1 1_555 1_555
O5_2 Zn2 1_555 1_555
O14_2 Zn4 1_555 1_555
O15_2 Zn3 1_555 1_555
O22_2 Zn1 1_555 1_555
O23_2 Zn2 1_555 1_555
C5 C6 1_555 1_555
C14 C15 1_555 1_555
C21 C22 1_555 1_555
C27 C28 1_555 1_555
C29 O8 1_555 1_555
C29 O9 1_555 1_555
C30 O10 1_555 1_555
C30 O11 1_555 1_555
C36 C37 1_555 1_555
C43 C44 1_555 1_555
C49 C50 1_555 1_555
C51 O16 1_555 1_555
C51 O17 1_555 1_555
C58 C59 1_555 1_555
C65 C66 1_555 1_555
C71 C72 1_555 1_555
C73 O20 1_555 1_555
C73 O21 1_555 1_555
C80 C81 1_555 1_555
C87 C88 1_555 1_555
C90 N1 1_555 1_555
C91 N2 1_555 1_555
C94 N5 1_555 1_555
C95 N4 1_555 1_555
C97 N12 1_555 1_555
C98 N10 1_555 1_555
C102 N7 1_555 1_555
C102 N9 1_555 1_555
N2 N3 1_555 1_555
N5 N6 1_555 1_555
N8 N9 1_555 1_555
N10 N11 1_555 1_555

#END
