
#######################################################################
#
#                 Cambridge Crystallographic Data Centre
#                                CCDC 
#
#######################################################################
#
# If this CIF has been generated from an entry in the Cambridge 
# Structural Database, then it will include bibliographic, chemical, 
# crystal, experimental, refinement or atomic coordinate data resulting 
# from the CCDC's data processing and validation procedures.
#
#######################################################################

data_GUHCUJ
_symmetry_cell_setting           monoclinic
_symmetry_space_group_name_H-M   'P 21/c'
_symmetry_Int_Tables_number      14
_space_group_name_Hall           '-P 2ybc'
loop_
_symmetry_equiv_pos_site_id
_symmetry_equiv_pos_as_xyz
1 x,y,z
2 -x,1/2+y,1/2-z
3 -x,-y,-z
4 x,1/2-y,1/2+z
_cell_length_a                   9.3508(4)
_cell_length_b                   19.7441(10)
_cell_length_c                   10.3532(6)
_cell_angle_alpha                90
_cell_angle_beta                 90.439(6)
_cell_angle_gamma                90
_cell_volume                     1911.38
loop_
_atom_site_label
_atom_site_type_symbol
_atom_site_fract_x
_atom_site_fract_y
_atom_site_fract_z
Zn1 Zn 0.5000 0.5000 0.0000
N1 N 0.3652(3) 0.45394(14) -0.1561(3)
N2 N 0.1637(4) 0.41537(18) -0.3424(3)
N3 N 0.3182(3) 0.55948(13) 0.0056(3)
N4 N 0.2692(3) 0.61424(14) 0.0733(3)
N5 N 0.0983(3) 0.58096(15) -0.0698(3)
N6 N -0.4001(3) 0.92864(14) 0.3560(3)
C1 C 0.3906(4) 0.40357(18) -0.2390(4)
H1 H 0.4772 0.3805 -0.2343
C2 C 0.2915(5) 0.3852(2) -0.3309(4)
H2 H 0.3140 0.3504 -0.3876
C3 C 0.1384(4) 0.4641(2) -0.2562(4)
H3 H 0.0492 0.4850 -0.2574
C4 C 0.2371(4) 0.48498(17) -0.1657(4)
C5 C 0.2153(4) 0.54174(17) -0.0772(3)
C6 C 0.1378(4) 0.62465(17) 0.0251(3)
C7 C 0.0432(4) 0.67994(18) 0.0710(3)
C8 C -0.1018(4) 0.67864(18) 0.0418(3)
H4 H -0.1387 0.6441 -0.0095
C9 C -0.1917(4) 0.72839(18) 0.0883(3)
H5 H -0.2890 0.7263 0.0692
C10 C -0.1396(4) 0.78114(18) 0.1628(3)
C11 C 0.0068(4) 0.78355(19) 0.1903(4)
H6 H 0.0442 0.8191 0.2390
C12 C 0.0974(4) 0.73262(18) 0.1447(4)
H7 H 0.1947 0.7342 0.1640
C13 C -0.2366(4) 0.83320(18) 0.2194(3)
C14 C -0.3588(4) 0.81463(18) 0.2843(4)
H8 H -0.3895 0.7698 0.2832
C15 C -0.4358(4) 0.86339(18) 0.3515(4)
H9 H -0.5169 0.8496 0.3959
C16 C -0.2854(4) 0.94708(19) 0.2866(4)
H10 H -0.2608 0.9927 0.2841
C17 C -0.2021(4) 0.90137(18) 0.2187(4)
H11 H -0.1232 0.9165 0.1728
N1B N 0.6348(3) 0.54606(14) 0.1561(3)
N2B N 0.8363(4) 0.58463(18) 0.3424(3)
N3B N 0.6818(3) 0.44052(13) -0.0056(3)
N4B N 0.7308(3) 0.38576(14) -0.0733(3)
N5B N 0.9017(3) 0.41904(15) 0.0698(3)
N6B N 1.4001(3) 0.07136(14) -0.3560(3)
C1B C 0.6094(4) 0.59643(18) 0.2390(4)
H1B H 0.5228 0.6195 0.2343
C2B C 0.7085(5) 0.6148(2) 0.3309(4)
H2B H 0.6860 0.6496 0.3876
C3B C 0.8616(4) 0.5359(2) 0.2562(4)
H3B H 0.9508 0.5150 0.2574
C4B C 0.7629(4) 0.51502(17) 0.1657(4)
C5B C 0.7847(4) 0.45826(17) 0.0772(3)
C6B C 0.8622(4) 0.37535(17) -0.0251(3)
C7B C 0.9568(4) 0.32006(18) -0.0710(3)
C8B C 1.1018(4) 0.32136(18) -0.0418(3)
H4B H 1.1387 0.3559 0.0095
C9B C 1.1917(4) 0.27161(18) -0.0883(3)
H5B H 1.2890 0.2737 -0.0692
C10B C 1.1396(4) 0.21886(18) -0.1628(3)
C11B C 0.9932(4) 0.21645(19) -0.1903(4)
H6B H 0.9558 0.1809 -0.2390
C12B C 0.9026(4) 0.26738(18) -0.1447(4)
H7B H 0.8053 0.2658 -0.1640
C13B C 1.2366(4) 0.16680(18) -0.2194(3)
C14B C 1.3588(4) 0.18537(18) -0.2843(4)
H8B H 1.3895 0.2302 -0.2832
C15B C 1.4358(4) 0.13661(18) -0.3515(4)
H9B H 1.5169 0.1504 -0.3959
C16B C 1.2854(4) 0.05292(19) -0.2866(4)
H10B H 1.2608 0.0073 -0.2841
C17B C 1.2021(4) 0.09863(18) -0.2187(4)
H11B H 1.1232 0.0835 -0.1728
Zn1A Zn -0.5000 1.0000 0.5000
Zn1A_2 Zn 1.5000 0.0000 -0.5000
N6A N 0.4001(3) 0.42864(14) 0.1440(3)
N6C N 0.5999(3) 0.57136(14) -0.1440(3)
N7 N 0.2968(4) 0.6316(3) 0.4785(4)
O1 O 0.4673(5) 0.7122(2) 0.4760(5)
C18 C 0.3506(7) 0.6910(3) 0.4468(6)
H12 H 0.2929 0.7193 0.3971
C19 C 0.3809(7) 0.5860(4) 0.5498(7)
H13 H 0.3737 0.5417 0.5122
H14 H 0.3478 0.5845 0.6373
H15 H 0.4788 0.6006 0.5489
C20 C 0.1577(7) 0.6099(4) 0.4407(7)
H16 H 0.1012 0.6486 0.4165
H17 H 0.1131 0.5870 0.5116
H18 H 0.1647 0.5796 0.3686
loop_
_geom_bond_atom_site_label_1
_geom_bond_atom_site_label_2
_geom_bond_site_symmetry_1
_geom_bond_site_symmetry_2
Zn1 N1 1_555 1_555
N1 C1 1_555 1_555
N2 C2 1_555 1_555
N3 Zn1 1_555 1_555
N4 N3 1_555 1_555
N5 C5 1_555 1_555
N6 C15 1_555 1_555
C1 H1 1_555 1_555
C2 C1 1_555 1_555
H2 C2 1_555 1_555
C3 N2 1_555 1_555
H3 C3 1_555 1_555
C4 N1 1_555 1_555
C5 N3 1_555 1_555
C6 N4 1_555 1_555
C7 C6 1_555 1_555
C8 C7 1_555 1_555
H4 C8 1_555 1_555
C9 C8 1_555 1_555
H5 C9 1_555 1_555
C10 C9 1_555 1_555
C11 C10 1_555 1_555
H6 C11 1_555 1_555
C12 C7 1_555 1_555
H7 C12 1_555 1_555
C13 C10 1_555 1_555
C14 C13 1_555 1_555
H8 C14 1_555 1_555
C15 C14 1_555 1_555
H9 C15 1_555 1_555
C16 N6 1_555 1_555
H10 C16 1_555 1_555
C17 C13 1_555 1_555
H11 C17 1_555 1_555
N7 C18 1_555 1_555
O1 C18 1_555 1_555
C18 H12 1_555 1_555
C19 N7 1_555 1_555
H13 C19 1_555 1_555
H14 C19 1_555 1_555
H15 C19 1_555 1_555
C20 N7 1_555 1_555
H16 C20 1_555 1_555
H17 C20 1_555 1_555
H18 C20 1_555 1_555
N1B Zn1 1_555 1_555
N2B C2B 1_555 1_555
N3B Zn1 1_555 1_555
N4B N3B 1_555 1_555
N5B C5B 1_555 1_555
N6B C15B 1_555 1_555
C1B N1B 1_555 1_555
H1B C1B 1_555 1_555
C2B C1B 1_555 1_555
H2B C2B 1_555 1_555
C3B N2B 1_555 1_555
H3B C3B 1_555 1_555
C4B N1B 1_555 1_555
C5B N3B 1_555 1_555
C6B N4B 1_555 1_555
C7B C6B 1_555 1_555
C8B C7B 1_555 1_555
H4B C8B 1_555 1_555
C9B C8B 1_555 1_555
H5B C9B 1_555 1_555
C10B C9B 1_555 1_555
C11B C10B 1_555 1_555
H6B C11B 1_555 1_555
C12B C7B 1_555 1_555
H7B C12B 1_555 1_555
C13B C10B 1_555 1_555
C14B C13B 1_555 1_555
H8B C14B 1_555 1_555
C15B C14B 1_555 1_555
H9B C15B 1_555 1_555
C16B N6B 1_555 1_555
H10B C16B 1_555 1_555
C17B C13B 1_555 1_555
H11B C17B 1_555 1_555
Zn1A N6 1_555 1_555
Zn1A_2 N6B 1_555 1_555
N6A Zn1 1_555 1_555
N6C Zn1 1_555 1_555
N5 C6 1_555 1_555
C3 C4 1_555 1_555
C4 C5 1_555 1_555
C11 C12 1_555 1_555
C16 C17 1_555 1_555
N5B C6B 1_555 1_555
C3B C4B 1_555 1_555
C4B C5B 1_555 1_555
C11B C12B 1_555 1_555
C16B C17B 1_555 1_555

#END
