
#######################################################################
#
#                 Cambridge Crystallographic Data Centre
#                                CCDC 
#
#######################################################################
#
# If this CIF has been generated from an entry in the Cambridge 
# Structural Database, then it will include bibliographic, chemical, 
# crystal, experimental, refinement or atomic coordinate data resulting 
# from the CCDC's data processing and validation procedures.
#
#######################################################################

data_GUHDAQ
_symmetry_cell_setting           cubic
_symmetry_space_group_name_H-M   'P a -3'
_symmetry_Int_Tables_number      205
_space_group_name_Hall           '-P 2ac 2ab 3'
loop_
_symmetry_equiv_pos_site_id
_symmetry_equiv_pos_as_xyz
1 x,y,z
2 1/2-x,-y,1/2+z
3 -x,1/2+y,1/2-z
4 1/2+x,1/2-y,-z
5 z,x,y
6 1/2+z,1/2-x,-y
7 1/2-z,-x,1/2+y
8 -z,1/2+x,1/2-y
9 y,z,x
10 -y,1/2+z,1/2-x
11 1/2+y,1/2-z,-x
12 1/2-y,-z,1/2+x
13 -x,-y,-z
14 1/2+x,y,1/2-z
15 x,1/2-y,1/2+z
16 1/2-x,1/2+y,z
17 -z,-x,-y
18 1/2-z,1/2+x,y
19 1/2+z,x,1/2-y
20 z,1/2-x,1/2+y
21 -y,-z,-x
22 y,1/2-z,1/2+x
23 1/2-y,1/2+z,x
24 1/2+y,z,1/2-x
_cell_length_a                   20.86790(10)
_cell_length_b                   20.86790(10)
_cell_length_c                   20.86790(10)
_cell_angle_alpha                90
_cell_angle_beta                 90
_cell_angle_gamma                90
_cell_volume                     9087.33
loop_
_atom_site_label
_atom_site_type_symbol
_atom_site_fract_x
_atom_site_fract_y
_atom_site_fract_z
Co1 Co 0.12533(4) 0.39021(4) 0.02562(4)
Co2 Co 0.0000 0.5000 0.0000
Co3 Co 0.26705(6) 0.39241(6) -0.02692(6)
P1 P -0.01255(8) 0.33862(8) 0.02205(8)
Mg1 Mg -0.12492(9) 0.37508(9) 0.12492(9)
N1 N 0.1008(3) 0.3024(3) 0.0779(3)
O1 O 0.3287(3) 0.4696(3) -0.0480(3)
O2 O 0.3243(2) 0.4272(3) 0.0482(3)
O3 O -0.0023(2) 0.3055(2) -0.0435(2)
O4 O 0.1275(3) 0.3883(2) 0.2231(2)
O5 O 0.1290(2) 0.4215(2) 0.1203(2)
O6 O 0.2071(2) 0.3307(2) 0.0209(2)
O7 O 0.2386(3) 0.2300(3) 0.0074(3)
C1 C 0.1312(4) 0.2492(3) 0.0422(4)
H1 H 0.1059 0.2387 0.0047
H2 H 0.1339 0.2115 0.0692
O8 O 0.0248(2) 0.4030(2) 0.0167(2)
O9 O -0.0813(2) 0.3434(2) 0.0421(2)
O10 O -0.2109(3) 0.3235(3) 0.1025(3)
O11 O 0.3368(3) 0.3223(3) -0.0412(4)
H3 H 0.3211 0.2868 -0.0352
C2 C 0.4351(4) 0.4950(4) 0.0845(4)
H4 H 0.4237 0.4595 0.1089
C3 C 0.3991(4) 0.5119(4) 0.0312(4)
C4 C 0.3473(4) 0.4671(4) 0.0097(4)
C5 C 0.1991(4) 0.2705(4) 0.0217(3)
C6 C 0.1307(4) 0.3095(3) 0.1413(3)
H5 H 0.1750 0.2955 0.1391
H6 H 0.1086 0.2824 0.1719
C7 C 0.1282(3) 0.3788(3) 0.1638(3)
C8 C 0.0304(3) 0.2957(3) 0.0836(3)
H7 H 0.0169 0.3114 0.1252
H8 H 0.0192 0.2506 0.0811
H9 H 0.365(4) 0.318(4) -0.031(4)
O1F O 0.5480(3) 0.6713(3) -0.0304(3)
O2F O 0.4518(3) 0.6757(2) -0.0728(3)
C2F C 0.4155(4) 0.5649(4) -0.0050(4)
H4F H 0.3911 0.5763 -0.0405
C3F C 0.4688(4) 0.6009(4) 0.0119(4)
C4F C 0.4903(4) 0.6527(4) -0.0329(4)
O1I O 0.5304(3) 0.4520(3) 0.1713(3)
O2I O 0.5728(3) 0.5482(3) 0.1757(2)
C2I C 0.5050(4) 0.5845(4) 0.0649(4)
H4I H 0.5405 0.6089 0.0763
C3I C 0.4881(4) 0.5312(4) 0.1009(4)
C4I C 0.5329(4) 0.5097(4) 0.1527(4)
Co1F Co 0.47438(4) 0.87467(4) -0.10979(4)
Co3F Co 0.52692(6) 0.73295(6) -0.10759(6)
P1F P 0.47795(8) 1.01255(8) -0.16138(8)
N1F N 0.4221(3) 0.8992(3) -0.1976(3)
O3F O 0.5435(2) 1.0023(2) -0.1945(2)
O4F O 0.2769(2) 0.8725(3) -0.1117(2)
O5F O 0.3797(2) 0.8710(2) -0.0785(2)
O6F O 0.4791(2) 0.7929(2) -0.1693(2)
O7F O 0.4926(3) 0.7614(3) -0.2700(3)
C1F C 0.4578(4) 0.8688(4) -0.2508(3)
H1F H 0.4953 0.8941 -0.2613
H2F H 0.4308 0.8661 -0.2885
O8F O 0.4833(2) 0.9752(2) -0.0970(2)
O9F O 0.4579(2) 1.0813(2) -0.1566(2)
O11F O 0.5412(4) 0.6632(3) -0.1777(3)
H3F H 0.5352 0.6789 -0.2132
C5F C 0.4783(3) 0.8009(4) -0.2295(4)
C6F C 0.3587(3) 0.8693(4) -0.1905(3)
H5F H 0.3609 0.8250 -0.2045
H6F H 0.3281 0.8914 -0.2176
C7F C 0.3362(3) 0.8718(3) -0.1212(3)
C8F C 0.4164(3) 0.9696(3) -0.2043(3)
H7F H 0.3748 0.9831 -0.1886
H8F H 0.4189 0.9808 -0.2494
H9F H 0.531(4) 0.635(4) -0.182(4)
Co1I Co 0.60979(4) 0.52562(4) 0.37467(4)
Co3I Co 0.60759(6) 0.47308(6) 0.23295(6)
P1I P 0.66138(8) 0.52205(8) 0.51255(8)
N1I N 0.6976(3) 0.5779(3) 0.3992(3)
O3I O 0.6945(2) 0.4565(2) 0.5023(2)
O4I O 0.6117(2) 0.7231(2) 0.3725(3)
O5I O 0.5785(2) 0.6203(2) 0.3710(2)
O6I O 0.6693(2) 0.5209(2) 0.2929(2)
O7I O 0.7700(3) 0.5074(3) 0.2614(3)
C1I C 0.7508(3) 0.5422(4) 0.3688(4)
H1I H 0.7613 0.5047 0.3941
H2I H 0.7885 0.5692 0.3661
O8I O 0.5970(2) 0.5167(2) 0.4752(2)
O9I O 0.6566(2) 0.5421(2) 0.5813(2)
O11I O 0.6777(3) 0.4588(4) 0.1632(3)
H3I H 0.7132 0.4648 0.1789
C5I C 0.7295(4) 0.5217(3) 0.3009(4)
C6I C 0.6905(3) 0.6413(3) 0.3693(4)
H5I H 0.7045 0.6391 0.3250
H6I H 0.7176 0.6719 0.3914
C7I C 0.6212(3) 0.6638(3) 0.3718(3)
C8I C 0.7043(3) 0.5836(3) 0.4696(3)
H7I H 0.6886 0.6252 0.4831
H8I H 0.7494 0.5811 0.4808
H9I H 0.682(4) 0.469(4) 0.135(4)
Co1L Co -0.12533(4) 0.60979(4) -0.02562(4)
Co3L Co -0.26705(6) 0.60759(6) 0.02692(6)
P1L P 0.01255(8) 0.66138(8) -0.02205(8)
Mg1L Mg 0.12492(9) 0.62492(9) -0.12492(9)
N1L N -0.1008(3) 0.6976(3) -0.0779(3)
O1L O -0.3287(3) 0.5304(3) 0.0480(3)
O2L O -0.3243(2) 0.5728(3) -0.0482(3)
O3L O 0.0023(2) 0.6945(2) 0.0435(2)
O4L O -0.1275(3) 0.6117(2) -0.2231(2)
O5L O -0.1290(2) 0.5785(2) -0.1203(2)
O6L O -0.2071(2) 0.6693(2) -0.0209(2)
O7L O -0.2386(3) 0.7700(3) -0.0074(3)
C1L C -0.1312(4) 0.7508(3) -0.0422(4)
H1L H -0.1059 0.7613 -0.0047
H2L H -0.1339 0.7885 -0.0692
O8L O -0.0248(2) 0.5970(2) -0.0167(2)
O9L O 0.0813(2) 0.6566(2) -0.0421(2)
O10L O 0.2109(3) 0.6765(3) -0.1025(3)
O11L O -0.3368(3) 0.6777(3) 0.0412(4)
H3L H -0.3211 0.7132 0.0352
C2L C -0.4351(4) 0.5050(4) -0.0845(4)
H4L H -0.4237 0.5405 -0.1089
C3L C -0.3991(4) 0.4881(4) -0.0312(4)
C4L C -0.3473(4) 0.5329(4) -0.0097(4)
C5L C -0.1991(4) 0.7295(4) -0.0217(3)
C6L C -0.1307(4) 0.6905(3) -0.1413(3)
H5L H -0.1750 0.7045 -0.1391
H6L H -0.1086 0.7176 -0.1719
C7L C -0.1282(3) 0.6212(3) -0.1638(3)
C8L C -0.0304(3) 0.7043(3) -0.0836(3)
H7L H -0.0169 0.6886 -0.1252
H8L H -0.0192 0.7494 -0.0811
H9L H -0.365(4) 0.682(4) 0.031(4)
O1R O -0.5480(3) 0.3287(3) 0.0304(3)
O2R O -0.4518(3) 0.3243(2) 0.0728(3)
C2R C -0.4155(4) 0.4351(4) 0.0050(4)
H4R H -0.3911 0.4237 0.0405
C3R C -0.4688(4) 0.3991(4) -0.0119(4)
C4R C -0.4903(4) 0.3473(4) 0.0329(4)
O1U O -0.5304(3) 0.5480(3) -0.1713(3)
O2U O -0.5728(3) 0.4518(3) -0.1757(2)
C2U C -0.5050(4) 0.4155(4) -0.0649(4)
H4U H -0.5405 0.3911 -0.0763
C3U C -0.4881(4) 0.4688(4) -0.1009(4)
C4U C -0.5329(4) 0.4903(4) -0.1527(4)
Co1R Co -0.47438(4) 0.12533(4) 0.10979(4)
Co3R Co -0.52692(6) 0.26705(6) 0.10759(6)
P1R P -0.47795(8) -0.01255(8) 0.16138(8)
N1R N -0.4221(3) 0.1008(3) 0.1976(3)
O3R O -0.5435(2) -0.0023(2) 0.1945(2)
O4R O -0.2769(2) 0.1275(3) 0.1117(2)
O5R O -0.3797(2) 0.1290(2) 0.0785(2)
O6R O -0.4791(2) 0.2071(2) 0.1693(2)
O7R O -0.4926(3) 0.2386(3) 0.2700(3)
C1R C -0.4578(4) 0.1312(4) 0.2508(3)
H1R H -0.4953 0.1059 0.2613
H2R H -0.4308 0.1339 0.2885
O8R O -0.4833(2) 0.0248(2) 0.0970(2)
O9R O -0.4579(2) -0.0813(2) 0.1566(2)
O11R O -0.5412(4) 0.3368(3) 0.1777(3)
H3R H -0.5352 0.3211 0.2132
C5R C -0.4783(3) 0.1991(4) 0.2295(4)
C6R C -0.3587(3) 0.1307(4) 0.1905(3)
H5R H -0.3609 0.1750 0.2045
H6R H -0.3281 0.1086 0.2176
C7R C -0.3362(3) 0.1282(3) 0.1212(3)
C8R C -0.4164(3) 0.0304(3) 0.2043(3)
H7R H -0.3748 0.0169 0.1886
H8R H -0.4189 0.0192 0.2494
H9R H -0.531(4) 0.365(4) 0.182(4)
Co1U Co -0.60979(4) 0.47438(4) -0.37467(4)
Co3U Co -0.60759(6) 0.52692(6) -0.23295(6)
P1U P -0.66138(8) 0.47795(8) -0.51255(8)
N1U N -0.6976(3) 0.4221(3) -0.3992(3)
O3U O -0.6945(2) 0.5435(2) -0.5023(2)
O4U O -0.6117(2) 0.2769(2) -0.3725(3)
O5U O -0.5785(2) 0.3797(2) -0.3710(2)
O6U O -0.6693(2) 0.4791(2) -0.2929(2)
O7U O -0.7700(3) 0.4926(3) -0.2614(3)
C1U C -0.7508(3) 0.4578(4) -0.3688(4)
H1U H -0.7613 0.4953 -0.3941
H2U H -0.7885 0.4308 -0.3661
O8U O -0.5970(2) 0.4833(2) -0.4752(2)
O9U O -0.6566(2) 0.4579(2) -0.5813(2)
O11U O -0.6777(3) 0.5412(4) -0.1632(3)
H3U H -0.7132 0.5352 -0.1789
C5U C -0.7295(4) 0.4783(3) -0.3009(4)
C6U C -0.6905(3) 0.3587(3) -0.3693(4)
H5U H -0.7045 0.3609 -0.3250
H6U H -0.7176 0.3281 -0.3914
C7U C -0.6212(3) 0.3362(3) -0.3718(3)
C8U C -0.7043(3) 0.4164(3) -0.4696(3)
H7U H -0.6886 0.3748 -0.4831
H8U H -0.7494 0.4189 -0.4808
H9U H -0.682(4) 0.531(4) -0.135(4)
O10G O -0.1025(3) 0.2891(3) 0.1765(3)
O10J O -0.1765(3) 0.3975(3) 0.2109(3)
O10S O 0.1025(3) 0.7109(3) -0.1765(3)
O10V O 0.1765(3) 0.6025(3) -0.2109(3)
Co1A Co -0.62533(4) 0.60979(4) -0.47438(4)
Co1C Co -0.37467(4) 0.10979(4) -0.02562(4)
Co1E Co -0.47438(4) 0.37467(4) -0.39021(4)
Co1G Co -0.02562(4) 0.62533(4) 0.10979(4)
Co1H Co -0.60979(4) 0.02562(4) 0.12533(4)
Co1J Co -0.10979(4) 0.47438(4) -0.12533(4)
Co1M Co 0.62533(4) 0.39021(4) 0.47438(4)
Co1O Co 0.37467(4) 0.89021(4) 0.02562(4)
Co1Q Co 0.47438(4) 0.62533(4) 0.39021(4)
Co1S Co 0.02562(4) 0.37467(4) -0.10979(4)
Co1T Co 0.60979(4) 0.97438(4) -0.12533(4)
Co1V Co 0.10979(4) 0.52562(4) 0.12533(4)
Co2A Co -0.5000 0.5000 -0.5000
Co2A_2 Co 0.5000 0.5000 0.5000
Co2C Co -0.5000 0.0000 0.0000
Co2C_2 Co 0.5000 1.0000 0.0000
Co3A Co -0.76705(6) 0.60759(6) -0.52692(6)
Co3C Co -0.23295(6) 0.10759(6) 0.02692(6)
Co3E Co -0.52692(6) 0.23295(6) -0.39241(6)
Co3G Co 0.02692(6) 0.76705(6) 0.10759(6)
Co3H Co -0.60759(6) -0.02692(6) 0.26705(6)
Co3J Co -0.10759(6) 0.52692(6) -0.26705(6)
Co3M Co 0.76705(6) 0.39241(6) 0.52692(6)
Co3O Co 0.23295(6) 0.89241(6) -0.02692(6)
Co3Q Co 0.52692(6) 0.76705(6) 0.39241(6)
Co3S Co -0.02692(6) 0.23295(6) -0.10759(6)
Co3T Co 0.60759(6) 1.02692(6) -0.26705(6)
Co3V Co 0.10759(6) 0.47308(6) 0.26705(6)
Mg1A Mg 0.62492(9) 0.62492(9) 0.62492(9)
Mg1C Mg 0.37508(9) 1.12492(9) -0.12492(9)
Mg1M Mg -0.62492(9) 0.37508(9) -0.62492(9)
Mg1O Mg -0.37508(9) -0.12492(9) 0.12492(9)
O3C O -0.5023(2) 0.1945(2) 0.0435(2)
O3E O -0.5435(2) 0.5023(2) -0.3055(2)
O3J O -0.1945(2) 0.5435(2) 0.0023(2)
O3O O 0.5023(2) 0.8055(2) -0.0435(2)
O3Q O 0.5435(2) 0.4977(2) 0.3055(2)
O3V O 0.1945(2) 0.4565(2) -0.0023(2)
O4A O -0.6275(3) 0.6117(2) -0.2769(2)
O4G O -0.2231(2) 0.6275(3) 0.1117(2)
O4H O -0.6117(2) 0.2231(2) 0.1275(3)
O4M O 0.6275(3) 0.3883(2) 0.2769(2)
O4S O 0.2231(2) 0.3725(3) -0.1117(2)
O4T O 0.6117(2) 0.7769(2) -0.1275(3)
O5A O -0.6290(2) 0.5785(2) -0.3797(2)
O5G O -0.1203(2) 0.6290(2) 0.0785(2)
O5H O -0.5785(2) 0.1203(2) 0.1290(2)
O5M O 0.6290(2) 0.4215(2) 0.3797(2)
O5S O 0.1203(2) 0.3710(2) -0.0785(2)
O5T O 0.5785(2) 0.8797(2) -0.1290(2)
O8G O -0.0167(2) 0.5248(2) 0.0970(2)
O8J O -0.0970(2) 0.4833(2) -0.0248(2)
O8S O 0.0167(2) 0.4752(2) -0.0970(2)
O8V O 0.0970(2) 0.5167(2) 0.0248(2)
O9G O -0.0421(2) 0.4187(2) 0.1566(2)
O9J O -0.1566(2) 0.4579(2) 0.0813(2)
O9S O 0.0421(2) 0.5813(2) -0.1566(2)
O9V O 0.1566(2) 0.5421(2) -0.0813(2)
O12 O 0.6628(5) 0.3045(5) 0.1639(5)
loop_
_geom_bond_atom_site_label_1
_geom_bond_atom_site_label_2
_geom_bond_site_symmetry_1
_geom_bond_site_symmetry_2
Co1 N1 1_555 1_555
Co2 O8 1_555 1_555
Co3 O1 1_555 1_555
P1 O3 1_555 1_555
Mg1 O9 1_555 1_555
N1 C1 1_555 1_555
O1 C4 1_555 1_555
O2 Co3 1_555 1_555
O3 Co1S 1_555 1_555
O4 C7 1_555 1_555
O5 Co1 1_555 1_555
O6 Co1 1_555 1_555
O7 C5 1_555 1_555
C1 H1 1_555 1_555
H2 C1 1_555 1_555
O8 Co1 1_555 1_555
O9 P1 1_555 1_555
O10 Mg1 1_555 1_555
O11 Co3 1_555 1_555
H3 O11 1_555 1_555
C2 H4 1_555 1_555
C3 C2 1_555 1_555
C4 O2 1_555 1_555
C5 O6 1_555 1_555
C6 N1 1_555 1_555
H5 C6 1_555 1_555
H6 C6 1_555 1_555
C7 O5 1_555 1_555
C8 P1 1_555 1_555
H7 C8 1_555 1_555
H8 C8 1_555 1_555
H9 O11 1_555 1_555
O1F C4F 1_555 1_555
O2F C4F 1_555 1_555
C2F C3 1_555 1_555
H4F C2F 1_555 1_555
C3F C2F 1_555 1_555
C4F C3F 1_555 1_555
O1I C4I 1_555 1_555
O2I C4I 1_555 1_555
C2I C3F 1_555 1_555
H4I C2I 1_555 1_555
C3I C2 1_555 1_555
C4I C3I 1_555 1_555
Co1F N1F 1_555 1_555
Co3F O1F 1_555 1_555
P1F O3F 1_555 1_555
N1F C1F 1_555 1_555
O3F Co1T 1_555 1_555
O4F C7F 1_555 1_555
O5F Co1F 1_555 1_555
O6F Co1F 1_555 1_555
O7F C5F 1_555 1_555
C1F H1F 1_555 1_555
H2F C1F 1_555 1_555
O8F Co1F 1_555 1_555
O9F P1F 1_555 1_555
O11F Co3F 1_555 1_555
H3F O11F 1_555 1_555
C5F O6F 1_555 1_555
C6F N1F 1_555 1_555
H5F C6F 1_555 1_555
H6F C6F 1_555 1_555
C7F O5F 1_555 1_555
C8F P1F 1_555 1_555
H7F C8F 1_555 1_555
H8F C8F 1_555 1_555
H9F O11F 1_555 1_555
Co1I N1I 1_555 1_555
Co3I O1I 1_555 1_555
P1I O3I 1_555 1_555
N1I C1I 1_555 1_555
O3I Co1M 1_555 1_555
O4I C7I 1_555 1_555
O5I Co1I 1_555 1_555
O6I Co1I 1_555 1_555
O7I C5I 1_555 1_555
C1I H1I 1_555 1_555
H2I C1I 1_555 1_555
O8I Co1I 1_555 1_555
O9I P1I 1_555 1_555
O11I Co3I 1_555 1_555
H3I O11I 1_555 1_555
C5I O6I 1_555 1_555
C6I N1I 1_555 1_555
H5I C6I 1_555 1_555
H6I C6I 1_555 1_555
C7I O5I 1_555 1_555
C8I P1I 1_555 1_555
H7I C8I 1_555 1_555
H8I C8I 1_555 1_555
H9I O11I 1_555 1_555
Co1L N1L 1_555 1_555
Co3L O1L 1_555 1_555
P1L O3L 1_555 1_555
Mg1L O9L 1_555 1_555
N1L C1L 1_555 1_555
O1L C4L 1_555 1_555
O2L Co3L 1_555 1_555
O3L Co1G 1_555 1_555
O4L C7L 1_555 1_555
O5L Co1L 1_555 1_555
O6L Co1L 1_555 1_555
O7L C5L 1_555 1_555
C1L H1L 1_555 1_555
H2L C1L 1_555 1_555
O8L Co2 1_555 1_555
O9L P1L 1_555 1_555
O10L Mg1L 1_555 1_555
O11L Co3L 1_555 1_555
H3L O11L 1_555 1_555
C2L H4L 1_555 1_555
C3L C2L 1_555 1_555
C4L O2L 1_555 1_555
C5L O6L 1_555 1_555
C6L N1L 1_555 1_555
H5L C6L 1_555 1_555
H6L C6L 1_555 1_555
C7L O5L 1_555 1_555
C8L P1L 1_555 1_555
H7L C8L 1_555 1_555
H8L C8L 1_555 1_555
H9L O11L 1_555 1_555
O1R C4R 1_555 1_555
O2R C4R 1_555 1_555
C2R C3L 1_555 1_555
H4R C2R 1_555 1_555
C3R C2R 1_555 1_555
C4R C3R 1_555 1_555
O1U C4U 1_555 1_555
O2U C4U 1_555 1_555
C2U C3R 1_555 1_555
H4U C2U 1_555 1_555
C3U C2L 1_555 1_555
C4U C3U 1_555 1_555
Co1R N1R 1_555 1_555
Co3R O1R 1_555 1_555
P1R O3R 1_555 1_555
N1R C1R 1_555 1_555
O3R Co1H 1_555 1_555
O4R C7R 1_555 1_555
O5R Co1R 1_555 1_555
O6R Co1R 1_555 1_555
O7R C5R 1_555 1_555
C1R H1R 1_555 1_555
H2R C1R 1_555 1_555
O8R Co1R 1_555 1_555
O9R P1R 1_555 1_555
O11R Co3R 1_555 1_555
H3R O11R 1_555 1_555
C5R O6R 1_555 1_555
C6R N1R 1_555 1_555
H5R C6R 1_555 1_555
H6R C6R 1_555 1_555
C7R O5R 1_555 1_555
C8R P1R 1_555 1_555
H7R C8R 1_555 1_555
H8R C8R 1_555 1_555
H9R O11R 1_555 1_555
Co1U N1U 1_555 1_555
Co3U O1U 1_555 1_555
P1U O3U 1_555 1_555
N1U C1U 1_555 1_555
O3U Co1A 1_555 1_555
O4U C7U 1_555 1_555
O5U Co1U 1_555 1_555
O6U Co1U 1_555 1_555
O7U C5U 1_555 1_555
C1U H1U 1_555 1_555
H2U C1U 1_555 1_555
O8U Co1U 1_555 1_555
O9U P1U 1_555 1_555
O11U Co3U 1_555 1_555
H3U O11U 1_555 1_555
C5U O6U 1_555 1_555
C6U N1U 1_555 1_555
H5U C6U 1_555 1_555
H6U C6U 1_555 1_555
C7U O5U 1_555 1_555
C8U P1U 1_555 1_555
H7U C8U 1_555 1_555
H8U C8U 1_555 1_555
H9U O11U 1_555 1_555
O10G Mg1 1_555 1_555
O10J Mg1 1_555 1_555
O10S Mg1L 1_555 1_555
O10V Mg1L 1_555 1_555
Co1A O5A 1_555 1_555
Co1C O5R 1_555 1_555
Co1E O5U 1_555 1_555
Co1G O5G 1_555 1_555
Co1H O5H 1_555 1_555
Co1J O5L 1_555 1_555
Co1M O5M 1_555 1_555
Co1O O5F 1_555 1_555
Co1Q O5I 1_555 1_555
Co1S O5S 1_555 1_555
Co1T O5T 1_555 1_555
Co1V O5 1_555 1_555
Co2A O8U 1_555 1_555
Co2A_2 O8I 1_555 1_555
Co2C O8R 1_555 1_555
Co2C_2 O8F 1_555 1_555
Co3A O3U 1_555 1_555
Co3C O4R 1_555 1_555
Co3E O4U 1_555 1_555
Co3G O3L 1_555 1_555
Co3H O3R 1_555 1_555
Co3J O4L 1_555 1_555
Co3M O3I 1_555 1_555
Co3O O4F 1_555 1_555
Co3Q O4I 1_555 1_555
Co3S O3 1_555 1_555
Co3T O3F 1_555 1_555
Co3V O4 1_555 1_555
Mg1A O9I 1_555 1_555
Mg1C O9F 1_555 1_555
Mg1M O9U 1_555 1_555
Mg1O O9R 1_555 1_555
O3C Co1R 1_555 1_555
O3E Co1U 1_555 1_555
O3J Co1L 1_555 1_555
O3O Co1F 1_555 1_555
O3Q Co1I 1_555 1_555
O3V Co1 1_555 1_555
O4A Co3U 1_555 1_555
O4G Co3L 1_555 1_555
O4H Co3R 1_555 1_555
O4M Co3I 1_555 1_555
O4S Co3 1_555 1_555
O4T Co3F 1_555 1_555
O5A Co1U 1_555 1_555
O5G Co1L 1_555 1_555
O5H Co1R 1_555 1_555
O5M Co1I 1_555 1_555
O5S Co1 1_555 1_555
O5T Co1F 1_555 1_555
O8G Co2 1_555 1_555
O8J Co2 1_555 1_555
O8S Co2 1_555 1_555
O8V Co2 1_555 1_555
O9G Mg1 1_555 1_555
O9J Mg1 1_555 1_555
O9S Mg1L 1_555 1_555
O9V Mg1L 1_555 1_555
Co3 O6 1_555 1_555
Co3 O3V 1_555 1_555
P1 O8 1_555 1_555
N1 C8 1_555 1_555
C1 C5 1_555 1_555
C3 C4 1_555 1_555
C6 C7 1_555 1_555
O2F Co3F 1_555 1_555
O2I Co3I 1_555 1_555
C2I C3I 1_555 1_555
Co3F O6F 1_555 1_555
Co3F O3O 1_555 1_555
P1F O8F 1_555 1_555
N1F C8F 1_555 1_555
C1F C5F 1_555 1_555
C6F C7F 1_555 1_555
Co3I O6I 1_555 1_555
Co3I O3Q 1_555 1_555
P1I O8I 1_555 1_555
N1I C8I 1_555 1_555
C1I C5I 1_555 1_555
C6I C7I 1_555 1_555
Co1L O8L 1_555 1_555
Co3L O6L 1_555 1_555
Co3L O3J 1_555 1_555
P1L O8L 1_555 1_555
N1L C8L 1_555 1_555
C1L C5L 1_555 1_555
C3L C4L 1_555 1_555
C6L C7L 1_555 1_555
O2R Co3R 1_555 1_555
O2U Co3U 1_555 1_555
C2U C3U 1_555 1_555
Co3R O6R 1_555 1_555
Co3R O3C 1_555 1_555
P1R O8R 1_555 1_555
N1R C8R 1_555 1_555
C1R C5R 1_555 1_555
C6R C7R 1_555 1_555
Co3U O6U 1_555 1_555
Co3U O3E 1_555 1_555
P1U O8U 1_555 1_555
N1U C8U 1_555 1_555
C1U C5U 1_555 1_555
C6U C7U 1_555 1_555
Co1G O8G 1_555 1_555
Co1J O8J 1_555 1_555
Co1S O8S 1_555 1_555
Co1V O8V 1_555 1_555

#END
