
#######################################################################
#
#                 Cambridge Crystallographic Data Centre
#                                CCDC 
#
#######################################################################
#
# If this CIF has been generated from an entry in the Cambridge 
# Structural Database, then it will include bibliographic, chemical, 
# crystal, experimental, refinement or atomic coordinate data resulting 
# from the CCDC's data processing and validation procedures.
#
#######################################################################

data_GUHDEU
_symmetry_cell_setting           cubic
_symmetry_space_group_name_H-M   'P a -3'
_symmetry_Int_Tables_number      205
_space_group_name_Hall           '-P 2ac 2ab 3'
loop_
_symmetry_equiv_pos_site_id
_symmetry_equiv_pos_as_xyz
1 x,y,z
2 1/2-x,-y,1/2+z
3 -x,1/2+y,1/2-z
4 1/2+x,1/2-y,-z
5 z,x,y
6 1/2+z,1/2-x,-y
7 1/2-z,-x,1/2+y
8 -z,1/2+x,1/2-y
9 y,z,x
10 -y,1/2+z,1/2-x
11 1/2+y,1/2-z,-x
12 1/2-y,-z,1/2+x
13 -x,-y,-z
14 1/2+x,y,1/2-z
15 x,1/2-y,1/2+z
16 1/2-x,1/2+y,z
17 -z,-x,-y
18 1/2-z,1/2+x,y
19 1/2+z,x,1/2-y
20 z,1/2-x,1/2+y
21 -y,-z,-x
22 y,1/2-z,1/2+x
23 1/2-y,1/2+z,x
24 1/2+y,z,1/2-x
_cell_length_a                   21.04640(10)
_cell_length_b                   21.04640(10)
_cell_length_c                   21.04640(10)
_cell_angle_alpha                90
_cell_angle_beta                 90
_cell_angle_gamma                90
_cell_volume                     9322.52
loop_
_atom_site_label
_atom_site_type_symbol
_atom_site_fract_x
_atom_site_fract_y
_atom_site_fract_z
O1 O 0.15922(12) 0.46144(12) 0.57918(12)
C1 C 0.20606(18) 0.41714(17) 0.46919(16)
H1 H 0.2509 0.4201 0.4792
H2 H 0.1909 0.3762 0.4839
Co1 Co 0.10729(2) 0.52608(2) 0.23296(2)
Co2 Co 0.11002(2) 0.47332(2) 0.37431(2)
Co3 Co 0.0000 0.5000 0.5000
Ca1 Ca 0.12860(3) 0.37140(3) 0.62860(3)
P1 P 0.16354(4) 0.47957(4) 0.51028(4)
O2 O 0.03010(13) 0.54775(13) 0.17081(13)
O3 O 0.17811(16) 0.53849(17) 0.16400(16)
O4 O 0.07163(12) 0.45168(12) 0.17495(12)
O5 O 0.1779(2) 0.3942(2) 0.7260(2)
O6 O 0.19551(11) 0.54415(12) 0.49823(12)
O7 O 0.11080(12) 0.27711(12) 0.37461(14)
O8 O 0.16904(12) 0.47927(12) 0.29372(12)
O9 O 0.26924(14) 0.49143(16) 0.26066(14)
O10 O 0.07831(12) 0.37891(11) 0.37325(12)
O11 O 0.09949(11) 0.48384(12) 0.47332(11)
C2 C -0.06478(18) 0.50502(17) 0.08406(18)
H3 H -0.0761 0.5401 0.1084
C3 C -0.01168(18) 0.46848(17) 0.10017(17)
C4 C 0.03227(18) 0.48973(18) 0.15213(17)
C5 C 0.12113(17) 0.33592(18) 0.37325(17)
C6 C 0.22912(18) 0.47682(16) 0.30156(19)
C7 C 0.24994(18) 0.45612(19) 0.36696(19)
H4 H 0.2868 0.4287 0.3636
H5 H 0.2616 0.4930 0.3920
N1 N 0.19730(14) 0.42154(14) 0.39865(13)
C8 C 0.18874(18) 0.35746(17) 0.37029(17)
H6 H 0.2153 0.3272 0.3928
H7 H 0.2025 0.3584 0.3263
H8 H 0.2143(14) 0.531(2) 0.177(3)
H9 H 0.180(3) 0.371(2) 0.7612(14)
H10 H 0.206(2) 0.422(2) 0.737(3)
H11 H 0.175(3) 0.528(3) 0.1264(13)
O2G O -0.17081(13) 0.53010(13) -0.04775(13)
O4G O -0.17495(12) 0.57163(12) 0.04832(12)
C2G C -0.08406(18) 0.43522(18) -0.00502(17)
H3G H -0.1084 0.4239 -0.0401
C3G C -0.10017(17) 0.48832(18) 0.03152(17)
C4G C -0.15213(17) 0.53227(18) 0.01027(18)
O2J O 0.04775(13) 0.32919(13) -0.03010(13)
O4J O -0.04832(12) 0.32505(12) -0.07163(12)
C2J C 0.00502(17) 0.41594(18) 0.06478(18)
H3J H 0.0401 0.3916 0.0761
C3J C -0.03152(17) 0.39983(17) 0.01168(18)
C4J C -0.01027(18) 0.34787(17) -0.03227(18)
O1E O 0.07918(12) 0.34078(12) 0.53856(12)
C1E C -0.03081(16) 0.29394(18) 0.58286(17)
H1E H -0.0208 0.2491 0.5799
H2E H -0.0161 0.3091 0.6238
Co1E Co -0.26704(2) 0.39271(2) 0.47392(2)
Co2E Co -0.12569(2) 0.38998(2) 0.52668(2)
P1E P 0.01028(4) 0.33646(4) 0.52043(4)
O3E O -0.33600(16) 0.32189(16) 0.46151(17)
O5E O 0.2260(2) 0.3221(2) 0.6058(2)
O6E O -0.00177(12) 0.30449(11) 0.45585(12)
O7E O -0.12539(14) 0.38920(12) 0.72289(12)
O8E O -0.20628(12) 0.33096(12) 0.52073(12)
O9E O -0.23934(14) 0.23076(14) 0.50857(16)
O10E O -0.12675(12) 0.42169(12) 0.62109(11)
O11E O -0.02668(11) 0.40051(11) 0.51616(12)
C5E C -0.12675(17) 0.37887(17) 0.66408(18)
C6E C -0.19844(19) 0.27088(18) 0.52318(16)
C7E C -0.13304(19) 0.25006(18) 0.54388(19)
H4E H -0.1364 0.2132 0.5713
H5E H -0.1080 0.2384 0.5070
N1E N -0.10135(13) 0.30270(14) 0.57846(14)
C8E C -0.12971(17) 0.31126(18) 0.64254(17)
H6E H -0.1072 0.2847 0.6728
H7E H -0.1737 0.2975 0.6416
H8E H -0.323(3) 0.2857(14) 0.469(2)
H9E H 0.2612(14) 0.320(3) 0.629(2)
H10E H 0.237(3) 0.294(2) 0.578(2)
H11E H -0.3736(13) 0.325(3) 0.472(3)
O1K O 0.03856(12) 0.42082(12) 0.65922(12)
C1K C 0.08286(17) 0.53081(16) 0.70606(18)
H1K H 0.0799 0.5208 0.7509
H2K H 0.1238 0.5161 0.6909
Co1K Co -0.02608(2) 0.76704(2) 0.60729(2)
Co2K Co 0.02668(2) 0.62569(2) 0.61002(2)
P1K P 0.02043(4) 0.48972(4) 0.66354(4)
O3K O -0.03849(17) 0.83600(16) 0.67811(16)
O5K O 0.1058(2) 0.2740(2) 0.6779(2)
O6K O -0.04415(12) 0.50177(12) 0.69551(11)
O7K O 0.22289(12) 0.62539(14) 0.61080(12)
O8K O 0.02073(12) 0.70628(12) 0.66904(12)
O9K O 0.00857(16) 0.73934(14) 0.76924(14)
O10K O 0.12109(11) 0.62675(12) 0.57831(12)
O11K O 0.01616(12) 0.52668(11) 0.59949(11)
C5K C 0.16408(18) 0.62675(17) 0.62113(17)
C6K C 0.02318(16) 0.69844(19) 0.72912(18)
C7K C 0.04388(19) 0.63304(19) 0.74994(18)
H4K H 0.0713 0.6364 0.7868
H5K H 0.0070 0.6080 0.7616
N1K N 0.07846(14) 0.60135(13) 0.69730(14)
C8K C 0.14254(17) 0.62971(17) 0.68874(18)
H6K H 0.1728 0.6072 0.7153
H7K H 0.1416 0.6737 0.7025
H8K H -0.031(2) 0.823(3) 0.7143(14)
H9K H 0.129(2) 0.2388(14) 0.680(3)
H10K H 0.078(2) 0.263(3) 0.706(2)
H11K H -0.028(3) 0.8736(13) 0.675(3)
O1L O -0.15922(12) 0.53856(12) 0.42082(12)
C1L C -0.20606(18) 0.58286(17) 0.53081(16)
H1L H -0.2509 0.5799 0.5208
H2L H -0.1909 0.6238 0.5161
Co1L Co -0.10729(2) 0.47392(2) 0.76704(2)
Co2L Co -0.11002(2) 0.52668(2) 0.62569(2)
Ca1L Ca -0.12860(3) 0.62860(3) 0.37140(3)
P1L P -0.16354(4) 0.52043(4) 0.48972(4)
O2L O -0.03010(13) 0.45225(13) 0.82919(13)
O3L O -0.17811(16) 0.46151(17) 0.83600(16)
O4L O -0.07163(12) 0.54832(12) 0.82505(12)
O5L O -0.1779(2) 0.6058(2) 0.2740(2)
O6L O -0.19551(11) 0.45585(12) 0.50177(12)
O7L O -0.11080(12) 0.72289(12) 0.62539(14)
O8L O -0.16904(12) 0.52073(12) 0.70628(12)
O9L O -0.26924(14) 0.50857(16) 0.73934(14)
O10L O -0.07831(12) 0.62109(11) 0.62675(12)
O11L O -0.09949(11) 0.51616(12) 0.52668(11)
C2L C 0.06478(18) 0.49498(17) 0.91594(18)
H3L H 0.0761 0.4599 0.8916
C3L C 0.01168(18) 0.53152(17) 0.89983(17)
C4L C -0.03227(18) 0.51027(18) 0.84787(17)
C5L C -0.12113(17) 0.66408(18) 0.62675(17)
C6L C -0.22912(18) 0.52318(16) 0.69844(19)
C7L C -0.24994(18) 0.54388(19) 0.63304(19)
H4L H -0.2868 0.5713 0.6364
H5L H -0.2616 0.5070 0.6080
N1L N -0.19730(14) 0.57846(14) 0.60135(13)
C8L C -0.18874(18) 0.64254(17) 0.62971(17)
H6L H -0.2153 0.6728 0.6072
H7L H -0.2025 0.6416 0.6737
H8L H -0.2143(14) 0.469(2) 0.823(3)
H9L H -0.180(3) 0.629(2) 0.2388(14)
H10L H -0.206(2) 0.578(2) 0.263(3)
H11L H -0.175(3) 0.472(3) 0.8736(13)
O2S O 0.17081(13) 0.46990(13) 1.04775(13)
O4S O 0.17495(12) 0.42837(12) 0.95168(12)
C2S C 0.08406(18) 0.56478(18) 1.00502(17)
H3S H 0.1084 0.5761 1.0401
C3S C 0.10017(17) 0.51168(18) 0.96848(17)
C4S C 0.15213(17) 0.46773(18) 0.98973(18)
O2V O -0.04775(13) 0.67081(13) 1.03010(13)
O4V O 0.04832(12) 0.67495(12) 1.07163(12)
C2V C -0.00502(17) 0.58406(18) 0.93522(18)
H3V H -0.0401 0.6084 0.9239
C3V C 0.03152(17) 0.60017(17) 0.98832(18)
C4V C 0.01027(18) 0.65213(17) 1.03227(18)
O1Q O -0.07918(12) 0.65922(12) 0.46144(12)
C1Q C 0.03081(16) 0.70606(18) 0.41714(17)
H1Q H 0.0208 0.7509 0.4201
H2Q H 0.0161 0.6909 0.3762
Co1Q Co 0.26704(2) 0.60729(2) 0.52608(2)
Co2Q Co 0.12569(2) 0.61002(2) 0.47332(2)
P1Q P -0.01028(4) 0.66354(4) 0.47957(4)
O3Q O 0.33600(16) 0.67811(16) 0.53849(17)
O5Q O -0.2260(2) 0.6779(2) 0.3942(2)
O6Q O 0.00177(12) 0.69551(11) 0.54415(12)
O7Q O 0.12539(14) 0.61080(12) 0.27711(12)
O8Q O 0.20628(12) 0.66904(12) 0.47927(12)
O9Q O 0.23934(14) 0.76924(14) 0.49143(16)
O10Q O 0.12675(12) 0.57831(12) 0.37891(11)
O11Q O 0.02668(11) 0.59949(11) 0.48384(12)
C5Q C 0.12675(17) 0.62113(17) 0.33592(18)
C6Q C 0.19844(19) 0.72912(18) 0.47682(16)
C7Q C 0.13304(19) 0.74994(18) 0.45612(19)
H4Q H 0.1364 0.7868 0.4287
H5Q H 0.1080 0.7616 0.4930
N1Q N 0.10135(13) 0.69730(14) 0.42154(14)
C8Q C 0.12971(17) 0.68874(18) 0.35746(17)
H6Q H 0.1072 0.7153 0.3272
H7Q H 0.1737 0.7025 0.3584
H8Q H 0.323(3) 0.7143(14) 0.531(2)
H9Q H -0.2612(14) 0.680(3) 0.371(2)
H10Q H -0.237(3) 0.706(2) 0.422(2)
H11Q H 0.3736(13) 0.675(3) 0.528(3)
O1W O -0.03856(12) 0.57918(12) 0.34078(12)
C1W C -0.08286(17) 0.46919(16) 0.29394(18)
H1W H -0.0799 0.4792 0.2491
H2W H -0.1238 0.4839 0.3091
Co1W Co 0.02608(2) 0.23296(2) 0.39271(2)
Co2W Co -0.02668(2) 0.37431(2) 0.38998(2)
P1W P -0.02043(4) 0.51028(4) 0.33646(4)
O3W O 0.03849(17) 0.16400(16) 0.32189(16)
O5W O -0.1058(2) 0.7260(2) 0.3221(2)
O6W O 0.04415(12) 0.49823(12) 0.30449(11)
O7W O -0.22289(12) 0.37461(14) 0.38920(12)
O8W O -0.02073(12) 0.29372(12) 0.33096(12)
O9W O -0.00857(16) 0.26066(14) 0.23076(14)
O10W O -0.12109(11) 0.37325(12) 0.42169(12)
O11W O -0.01616(12) 0.47332(11) 0.40051(11)
C5W C -0.16408(18) 0.37325(17) 0.37887(17)
C6W C -0.02318(16) 0.30156(19) 0.27088(18)
C7W C -0.04388(19) 0.36696(19) 0.25006(18)
H4W H -0.0713 0.3636 0.2132
H5W H -0.0070 0.3920 0.2384
N1W N -0.07846(14) 0.39865(13) 0.30270(14)
C8W C -0.14254(17) 0.37029(17) 0.31126(18)
H6W H -0.1728 0.3928 0.2847
H7W H -0.1416 0.3263 0.2975
H8W H 0.031(2) 0.177(3) 0.2857(14)
H9W H -0.129(2) 0.7612(14) 0.320(3)
H10W H -0.078(2) 0.737(3) 0.294(2)
H11W H 0.028(3) 0.1264(13) 0.325(3)
Co1G Co -0.23296(2) 0.60729(2) -0.02608(2)
Co1J Co 0.02608(2) 0.26704(2) -0.10729(2)
Co1S Co 0.23296(2) 0.39271(2) 1.02608(2)
Co1V Co -0.02608(2) 0.73296(2) 1.10729(2)
O2E O -0.32919(13) 0.46990(13) 0.45225(13)
O2K O -0.04775(13) 0.82919(13) 0.53010(13)
O2Q O 0.32919(13) 0.53010(13) 0.54775(13)
O2W O 0.04775(13) 0.17081(13) 0.46990(13)
O4E O -0.32505(12) 0.42837(12) 0.54832(12)
O4K O 0.04832(12) 0.82505(12) 0.57163(12)
O4Q O 0.32505(12) 0.57163(12) 0.45168(12)
O4W O -0.04832(12) 0.17495(12) 0.42837(12)
O12 O 0.1983(2) 0.3315(2) 0.8460(2)
H12 H 0.183(3) 0.3669(17) 0.8629(13)
H13 H 0.179(3) 0.2961(19) 0.840(2)
loop_
_geom_bond_atom_site_label_1
_geom_bond_atom_site_label_2
_geom_bond_site_symmetry_1
_geom_bond_site_symmetry_2
O1 Ca1 1_555 1_555
C1 H1 1_555 1_555
H2 C1 1_555 1_555
Co1 O2 1_555 1_555
Co2 O8 1_555 1_555
Co3 O11 1_555 1_555
Ca1 O5 1_555 1_555
P1 O1 1_555 1_555
O2 C4 1_555 1_555
O3 Co1 1_555 1_555
O4 Co1 1_555 1_555
O5 H9 1_555 1_555
O6 P1 1_555 1_555
O7 C5 1_555 1_555
O8 Co1 1_555 1_555
O9 C6 1_555 1_555
O10 Co2 1_555 1_555
O11 Co2 1_555 1_555
C2 H3 1_555 1_555
C3 C2 1_555 1_555
C4 O4 1_555 1_555
C5 O10 1_555 1_555
C6 O8 1_555 1_555
C7 C6 1_555 1_555
H4 C7 1_555 1_555
H5 C7 1_555 1_555
N1 C1 1_555 1_555
C8 C5 1_555 1_555
H6 C8 1_555 1_555
H7 C8 1_555 1_555
H8 O3 1_555 1_555
H10 O5 1_555 1_555
H11 O3 1_555 1_555
O12 H12 1_555 1_555
H13 O12 1_555 1_555
O2G C4G 1_555 1_555
O4G C4G 1_555 1_555
C2G H3G 1_555 1_555
C3G C2 1_555 1_555
C4G C3G 1_555 1_555
O2J C4J 1_555 1_555
O4J C4J 1_555 1_555
C2J C3 1_555 1_555
H3J C2J 1_555 1_555
C3J C2G 1_555 1_555
C4J C3J 1_555 1_555
O1E Ca1 1_555 1_555
C1E H1E 1_555 1_555
H2E C1E 1_555 1_555
Co1E O3E 1_555 1_555
Co2E O8E 1_555 1_555
P1E O1E 1_555 1_555
O3E H8E 1_555 1_555
O5E Ca1 1_555 1_555
O6E P1E 1_555 1_555
O7E C5E 1_555 1_555
O8E Co1E 1_555 1_555
O9E C6E 1_555 1_555
O10E Co2E 1_555 1_555
O11E Co3 1_555 1_555
C5E O10E 1_555 1_555
C6E O8E 1_555 1_555
C7E C6E 1_555 1_555
H4E C7E 1_555 1_555
H5E C7E 1_555 1_555
N1E C1E 1_555 1_555
C8E C5E 1_555 1_555
H6E C8E 1_555 1_555
H7E C8E 1_555 1_555
H9E O5E 1_555 1_555
H10E O5E 1_555 1_555
H11E O3E 1_555 1_555
O1K Ca1 1_555 1_555
C1K H1K 1_555 1_555
H2K C1K 1_555 1_555
Co1K O3K 1_555 1_555
Co2K O8K 1_555 1_555
P1K O1K 1_555 1_555
O3K H8K 1_555 1_555
O5K Ca1 1_555 1_555
O6K P1K 1_555 1_555
O7K C5K 1_555 1_555
O8K Co1K 1_555 1_555
O9K C6K 1_555 1_555
O10K Co2K 1_555 1_555
O11K Co3 1_555 1_555
C5K O10K 1_555 1_555
C6K O8K 1_555 1_555
C7K C6K 1_555 1_555
H4K C7K 1_555 1_555
H5K C7K 1_555 1_555
N1K C1K 1_555 1_555
C8K C5K 1_555 1_555
H6K C8K 1_555 1_555
H7K C8K 1_555 1_555
H9K O5K 1_555 1_555
H10K O5K 1_555 1_555
H11K O3K 1_555 1_555
O1L Ca1L 1_555 1_555
C1L H1L 1_555 1_555
H2L C1L 1_555 1_555
Co1L O7E 1_555 1_555
Co2L O10E 1_555 1_555
Ca1L O5L 1_555 1_555
P1L O1L 1_555 1_555
O2L Co1L 1_555 1_555
O3L Co1L 1_555 1_555
O4L Co1L 1_555 1_555
O5L H9L 1_555 1_555
O6L Co1E 1_555 1_555
O7L Co1K 1_555 1_555
O8L Co1L 1_555 1_555
O9L C6L 1_555 1_555
O10L Co2K 1_555 1_555
O11L Co3 1_555 1_555
C2L H3L 1_555 1_555
C3L C2L 1_555 1_555
C4L O2L 1_555 1_555
C5L O7L 1_555 1_555
C6L O8L 1_555 1_555
C7L C6L 1_555 1_555
H4L C7L 1_555 1_555
H5L C7L 1_555 1_555
N1L C1L 1_555 1_555
C8L C5L 1_555 1_555
H6L C8L 1_555 1_555
H7L C8L 1_555 1_555
H8L O3L 1_555 1_555
H10L O5L 1_555 1_555
H11L O3L 1_555 1_555
O2S C4S 1_555 1_555
O4S C4S 1_555 1_555
C2S H3S 1_555 1_555
C3S C2L 1_555 1_555
C4S C3S 1_555 1_555
O2V C4V 1_555 1_555
O4V C4V 1_555 1_555
C2V C3L 1_555 1_555
H3V C2V 1_555 1_555
C3V C2S 1_555 1_555
C4V C3V 1_555 1_555
O1Q Ca1L 1_555 1_555
C1Q H1Q 1_555 1_555
H2Q C1Q 1_555 1_555
Co1Q O6 1_555 1_555
Co2Q O6 1_555 1_555
P1Q O1Q 1_555 1_555
O3Q Co1Q 1_555 1_555
O5Q Ca1L 1_555 1_555
O6Q Co1K 1_555 1_555
O7Q Co1 1_555 1_555
O8Q Co1Q 1_555 1_555
O9Q C6Q 1_555 1_555
O10Q Co2 1_555 1_555
O11Q Co3 1_555 1_555
C5Q O7Q 1_555 1_555
C6Q O8Q 1_555 1_555
C7Q C6Q 1_555 1_555
H4Q C7Q 1_555 1_555
H5Q C7Q 1_555 1_555
N1Q C1Q 1_555 1_555
C8Q C5Q 1_555 1_555
H6Q C8Q 1_555 1_555
H7Q C8Q 1_555 1_555
H8Q O3Q 1_555 1_555
H9Q O5Q 1_555 1_555
H10Q O5Q 1_555 1_555
H11Q O3Q 1_555 1_555
O1W Ca1L 1_555 1_555
C1W H1W 1_555 1_555
H2W C1W 1_555 1_555
Co1W O7 1_555 1_555
Co2W O10 1_555 1_555
P1W O1W 1_555 1_555
O3W Co1W 1_555 1_555
O5W Ca1L 1_555 1_555
O6W Co1 1_555 1_555
O7W Co1E 1_555 1_555
O8W Co1W 1_555 1_555
O9W C6W 1_555 1_555
O10W Co2E 1_555 1_555
O11W Co3 1_555 1_555
C5W O7W 1_555 1_555
C6W O8W 1_555 1_555
C7W C6W 1_555 1_555
H4W C7W 1_555 1_555
H5W C7W 1_555 1_555
N1W C1W 1_555 1_555
C8W C5W 1_555 1_555
H6W C8W 1_555 1_555
H7W C8W 1_555 1_555
H8W O3W 1_555 1_555
H9W O5W 1_555 1_555
H10W O5W 1_555 1_555
H11W O3W 1_555 1_555
Co1G O2G 1_555 1_555
Co1J O2J 1_555 1_555
Co1S O2S 1_555 1_555
Co1V O2V 1_555 1_555
O2E Co1E 1_555 1_555
O2K Co1K 1_555 1_555
O2Q Co1Q 1_555 1_555
O2W Co1W 1_555 1_555
O4E Co1E 1_555 1_555
O4K Co1K 1_555 1_555
O4Q Co1Q 1_555 1_555
O4W Co1W 1_555 1_555
C1 P1 1_555 1_555
Co2 N1 1_555 1_555
Co2 O6W 1_555 1_555
P1 O11 1_555 1_555
C3 C4 1_555 1_555
C7 N1 1_555 1_555
N1 C8 1_555 1_555
O4G Co1G 1_555 1_555
C2G C3G 1_555 1_555
O4J Co1J 1_555 1_555
C2J C3J 1_555 1_555
C1E P1E 1_555 1_555
Co2E O11E 1_555 1_555
Co2E N1E 1_555 1_555
Co2E O6L 1_555 1_555
P1E O11E 1_555 1_555
O6E Co1W 1_555 1_555
O6E Co2W 1_555 1_555
C7E N1E 1_555 1_555
N1E C8E 1_555 1_555
C1K P1K 1_555 1_555
Co2K O11K 1_555 1_555
Co2K N1K 1_555 1_555
Co2K O6Q 1_555 1_555
P1K O11K 1_555 1_555
O6K Co1L 1_555 1_555
O6K Co2L 1_555 1_555
O7K Co1Q 1_555 1_555
O10K Co2Q 1_555 1_555
C7K N1K 1_555 1_555
N1K C8K 1_555 1_555
C1L P1L 1_555 1_555
Co2L O8L 1_555 1_555
Co2L O10L 1_555 1_555
Co2L O11L 1_555 1_555
Co2L N1L 1_555 1_555
P1L O6L 1_555 1_555
P1L O11L 1_555 1_555
O4L C4L 1_555 1_555
O10L C5L 1_555 1_555
C3L C4L 1_555 1_555
C7L N1L 1_555 1_555
N1L C8L 1_555 1_555
O4S Co1S 1_555 1_555
C2S C3S 1_555 1_555
O4V Co1V 1_555 1_555
C2V C3V 1_555 1_555
C1Q P1Q 1_555 1_555
Co2Q O8Q 1_555 1_555
Co2Q O10Q 1_555 1_555
Co2Q O11Q 1_555 1_555
Co2Q N1Q 1_555 1_555
P1Q O6Q 1_555 1_555
P1Q O11Q 1_555 1_555
O10Q C5Q 1_555 1_555
C7Q N1Q 1_555 1_555
N1Q C8Q 1_555 1_555
C1W P1W 1_555 1_555
Co2W O8W 1_555 1_555
Co2W O10W 1_555 1_555
Co2W O11W 1_555 1_555
Co2W N1W 1_555 1_555
P1W O6W 1_555 1_555
P1W O11W 1_555 1_555
O10W C5W 1_555 1_555
C7W N1W 1_555 1_555
N1W C8W 1_555 1_555

#END
