
#######################################################################
#
#                 Cambridge Crystallographic Data Centre
#                                CCDC 
#
#######################################################################
#
# If this CIF has been generated from an entry in the Cambridge 
# Structural Database, then it will include bibliographic, chemical, 
# crystal, experimental, refinement or atomic coordinate data resulting 
# from the CCDC's data processing and validation procedures.
#
#######################################################################

data_GUHFUM
_symmetry_cell_setting           orthorhombic
_symmetry_space_group_name_H-M   'P 21 21 21'
_symmetry_Int_Tables_number      19
_space_group_name_Hall           'P 2ac 2ab'
loop_
_symmetry_equiv_pos_site_id
_symmetry_equiv_pos_as_xyz
1 x,y,z
2 1/2-x,-y,1/2+z
3 1/2+x,1/2-y,-z
4 -x,1/2+y,1/2-z
_cell_length_a                   7.4900(15)
_cell_length_b                   15.950(3)
_cell_length_c                   16.980(3)
_cell_angle_alpha                90
_cell_angle_beta                 90
_cell_angle_gamma                90
_cell_volume                     2028.52
loop_
_atom_site_label
_atom_site_type_symbol
_atom_site_fract_x
_atom_site_fract_y
_atom_site_fract_z
Cu1 Cu -0.46518(9) -0.03434(4) -0.37511(3)
Cl1 Cl -0.4821(3) -0.14546(11) -0.44154(9)
Cl2 Cl -0.4638(3) 0.07465(11) -0.30437(10)
Cu2 Cu -0.51519(7) -0.12475(3) 0.09754(2)
N1 N -0.3427(4) -0.17140(18) 0.00615(16)
N2 N -0.0484(4) -0.33077(19) -0.20556(15)
N3 N -0.2229(4) -0.28003(19) -0.07545(15)
N4 N -0.4920(5) -0.02113(17) 0.03182(16)
C1 C -0.3473(6) -0.3935(2) 0.0485(3)
H1 H -0.3831 -0.4100 -0.0016
C2 C -0.3517(7) -0.4505(3) 0.1101(3)
H2 H -0.3913 -0.5049 0.1015
C3 C -0.2971(8) -0.4262(4) 0.1843(3)
H3 H -0.3009 -0.4646 0.2255
C4 C -0.2372(7) -0.3460(4) 0.1983(3)
H4 H -0.1985 -0.3312 0.2485
C5 C -0.2342(5) -0.2862(3) 0.1373(2)
H5 H -0.1969 -0.2315 0.1469
C6 C -0.2888(5) -0.3111(2) 0.0616(2)
C7 C -0.2831(5) -0.2503(3) -0.0057(2)
C8 C 0.0262(6) -0.3620(3) -0.2715(2)
H6 H 0.1029 -0.4076 -0.2669
C9 C -0.0060(7) -0.3293(3) -0.3463(2)
H7 H 0.0499 -0.3520 -0.3903
C10 C -0.1222(6) -0.2628(3) -0.3538(2)
H8 H -0.1497 -0.2414 -0.4033
C11 C -0.1980(6) -0.2279(3) -0.2864(2)
H9 H -0.2748 -0.1823 -0.2901
C12 C -0.1571(5) -0.2626(2) -0.21323(19)
C13 C -0.2266(5) -0.2271(2) -0.1376(2)
C14 C -0.5603(6) 0.0551(2) 0.0478(3)
H10 H -0.6137 0.0637 0.0965
C15 C -0.5548(6) 0.1212(3) -0.0049(3)
H11 H -0.6053 0.1726 0.0083
C16 C -0.4745(7) 0.1104(2) -0.0767(3)
H12 H -0.4689 0.1543 -0.1128
C17 C -0.4014(6) 0.0325(3) -0.0945(3)
H13 H -0.3461 0.0234 -0.1427
C18 C -0.4120(4) -0.0315(2) -0.0395(2)
C19 C -0.3433(4) -0.1182(2) -0.0557(2)
C20 C -0.2883(5) -0.1450(2) -0.1301(2)
H14 H -0.2928 -0.1093 -0.1733
Cu2B Cu -0.01519(7) -0.37525(3) -0.09754(2)
N2B N -0.5484(4) -0.16923(19) 0.20556(15)
N3B N -0.7229(4) -0.21997(19) 0.07545(15)
loop_
_geom_bond_atom_site_label_1
_geom_bond_atom_site_label_2
_geom_bond_site_symmetry_1
_geom_bond_site_symmetry_2
Cu1 Cl1 1_555 1_555
Cl2 Cu1 1_555 1_555
Cu2 N1 1_555 1_555
N1 C7 1_555 1_555
N2 C8 1_555 1_555
N3 C7 1_555 1_555
N4 Cu2 1_555 1_555
C1 H1 1_555 1_555
C2 C1 1_555 1_555
H2 C2 1_555 1_555
C3 C2 1_555 1_555
H3 C3 1_555 1_555
C4 C3 1_555 1_555
H4 C4 1_555 1_555
C5 C4 1_555 1_555
H5 C5 1_555 1_555
C6 C1 1_555 1_555
C7 C6 1_555 1_555
C8 H6 1_555 1_555
C9 C8 1_555 1_555
H7 C9 1_555 1_555
C10 C9 1_555 1_555
H8 C10 1_555 1_555
C11 C10 1_555 1_555
H9 C11 1_555 1_555
C12 N2 1_555 1_555
C13 N3 1_555 1_555
C14 N4 1_555 1_555
H10 C14 1_555 1_555
C15 C14 1_555 1_555
H11 C15 1_555 1_555
C16 C15 1_555 1_555
H12 C16 1_555 1_555
C17 C16 1_555 1_555
H13 C17 1_555 1_555
C18 N4 1_555 1_555
C19 N1 1_555 1_555
C20 C13 1_555 1_555
H14 C20 1_555 1_555
Cu2B N2 1_555 1_555
N2B Cu2 1_555 1_555
N3B Cu2 1_555 1_555
N3 Cu2B 1_555 1_555
C5 C6 1_555 1_555
C11 C12 1_555 1_555
C12 C13 1_555 1_555
C17 C18 1_555 1_555
C18 C19 1_555 1_555
C19 C20 1_555 1_555

#END
