
#######################################################################
#
#                 Cambridge Crystallographic Data Centre
#                                CCDC 
#
#######################################################################
#
# If this CIF has been generated from an entry in the Cambridge 
# Structural Database, then it will include bibliographic, chemical, 
# crystal, experimental, refinement or atomic coordinate data resulting 
# from the CCDC's data processing and validation procedures.
#
#######################################################################

data_GUHHIC
_symmetry_cell_setting           monoclinic
_symmetry_space_group_name_H-M   'P 21/c'
_symmetry_Int_Tables_number      14
_space_group_name_Hall           '-P 2ybc'
loop_
_symmetry_equiv_pos_site_id
_symmetry_equiv_pos_as_xyz
1 x,y,z
2 -x,1/2+y,1/2-z
3 -x,-y,-z
4 x,1/2-y,1/2+z
_cell_length_a                   12.9528(3)
_cell_length_b                   11.6301(3)
_cell_length_c                   18.0915(5)
_cell_angle_alpha                90
_cell_angle_beta                 129.554(2)
_cell_angle_gamma                90
_cell_volume                     2101.31
loop_
_atom_site_label
_atom_site_type_symbol
_atom_site_fract_x
_atom_site_fract_y
_atom_site_fract_z
Zn1 Zn 1.07796(3) 0.56433(3) 0.89553(2)
N1 N 1.0108(2) 0.52923(19) 0.76050(15)
N2 N 1.2116(2) 0.6966(2) 0.93102(16)
O1 O 0.93698(18) 0.65246(17) 0.88270(13)
O2 O 0.7772(2) 0.52230(18) 0.78889(15)
O3 O 0.8526(2) 0.52371(19) 0.98680(14)
O4 O 0.7726(2) 0.6076(2) 1.04800(15)
C1 C 0.8191(3) 0.6112(2) 0.83599(18)
C2 C 0.7818(3) 0.5998(2) 0.98439(18)
C3 C 0.7234(2) 0.6882(2) 0.83427(17)
C4 C 0.6509(3) 0.7706(2) 0.75924(18)
C5 C 0.6647(3) 0.7821(3) 0.6882(2)
H1 H 0.7202 0.7316 0.6880
C6 C 0.5988(3) 0.8653(3) 0.6203(2)
H2 H 0.6105 0.8716 0.5748
C7 C 0.5138(4) 0.9414(3) 0.6179(3)
H3 H 0.4697 0.9985 0.5714
C8 C 0.4952(3) 0.9322(3) 0.6836(2)
H4 H 0.4374 0.9828 0.6811
C9 C 0.5625(3) 0.8470(3) 0.7555(2)
C10 C 0.5436(3) 0.8360(3) 0.8237(2)
H5 H 0.4830 0.8837 0.8203
C11 C 0.6130(3) 0.7565(3) 0.89426(19)
H6 H 0.5993 0.7505 0.9387
C12 C 0.7061(2) 0.6822(2) 0.90199(17)
C13 C 1.0505(3) 0.4388(3) 0.7397(2)
H7 H 1.0968 0.3805 0.7850
C14 C 0.9415(3) 0.6094(3) 0.6924(2)
H8 H 0.9089 0.6720 0.7040
C15 C 0.9159(3) 0.6042(3) 0.6064(2)
H9 H 0.8689 0.6633 0.5621
C16 C 1.0262(3) 0.4273(3) 0.6543(2)
H10 H 1.0552 0.3617 0.6429
C17 C 0.9598(3) 0.5115(3) 0.58561(19)
C18 C 0.9383(3) 0.5045(4) 0.4936(2)
H11 H 0.8826 0.4382 0.4577
H12 H 0.8897 0.5724 0.4556
C19 C 1.2656(3) 0.7618(3) 1.0084(2)
H13 H 1.2523 0.7411 1.0514
C20 C 1.2375(3) 0.7281(3) 0.8733(2)
H14 H 1.2051 0.6819 0.8205
C21 C 1.3087(4) 0.8241(3) 0.8871(3)
H15 H 1.3216 0.8423 0.8434
C22 C 1.3399(3) 0.8578(3) 1.0271(3)
H16 H 1.3768 0.8999 1.0826
C23 C 1.3608(4) 0.8932(3) 0.9641(3)
C24 C 1.4301(4) 1.0050(4) 0.9741(4)
H17 H 1.3888 1.0342 0.9106
H18 H 1.4150 1.0611 1.0060
N1B N 0.9892(2) 0.47077(19) 0.23950(15)
C13B C 0.9495(3) 0.5612(3) 0.2603(2)
H7B H 0.9032 0.6195 0.2150
C14B C 1.0585(3) 0.3906(3) 0.3076(2)
H8B H 1.0911 0.3280 0.2960
C15B C 1.0841(3) 0.3958(3) 0.3936(2)
H9B H 1.1311 0.3367 0.4379
C16B C 0.9738(3) 0.5727(3) 0.3457(2)
H10B H 0.9448 0.6383 0.3571
C17B C 1.0402(3) 0.4885(3) 0.41439(19)
C18B C 1.0617(3) 0.4955(4) 0.5064(2)
H11B H 1.1174 0.5618 0.5423
H12B H 1.1103 0.4276 0.5444
N2B N 1.7884(2) 1.3034(2) 1.06898(16)
C19B C 1.7344(3) 1.2382(3) 0.9916(2)
H13B H 1.7477 1.2589 0.9486
C20B C 1.7625(3) 1.2719(3) 1.1267(2)
H14B H 1.7949 1.3181 1.1795
C21B C 1.6913(4) 1.1759(3) 1.1129(3)
H15B H 1.6784 1.1577 1.1566
C22B C 1.6601(3) 1.1422(3) 0.9729(3)
H16B H 1.6232 1.1001 0.9174
C23B C 1.6392(4) 1.1068(3) 1.0359(3)
C24B C 1.5699(4) 0.9950(4) 1.0259(4)
H17B H 1.6112 0.9658 1.0894
H18B H 1.5850 0.9389 0.9940
Zn1B Zn 0.92204(3) 0.43567(3) 0.10447(2)
O1B O 1.06302(18) 0.34754(17) 0.11730(13)
O2B O 1.2228(2) 0.47770(18) 0.21111(15)
O3B O 1.1474(2) 0.47629(19) 0.01320(14)
O4B O 1.2274(2) 0.3924(2) -0.04800(15)
C1B C 1.1809(3) 0.3888(2) 0.16401(18)
C2B C 1.2182(3) 0.4002(2) 0.01561(18)
C3B C 1.2766(2) 0.3118(2) 0.16573(17)
C4B C 1.3491(3) 0.2294(2) 0.24076(18)
C5B C 1.3353(3) 0.2179(3) 0.3118(2)
H1B H 1.2798 0.2684 0.3120
C6B C 1.4012(3) 0.1347(3) 0.3797(2)
H2B H 1.3895 0.1284 0.4252
C7B C 1.4862(4) 0.0586(3) 0.3821(3)
H3B H 1.5303 0.0015 0.4286
C8B C 1.5048(3) 0.0678(3) 0.3164(2)
H4B H 1.5626 0.0172 0.3189
C9B C 1.4375(3) 0.1530(3) 0.2445(2)
C10B C 1.4564(3) 0.1640(3) 0.1763(2)
H5B H 1.5170 0.1163 0.1797
C11B C 1.3870(3) 0.2435(3) 0.10574(19)
H6B H 1.4007 0.2495 0.0613
C12B C 1.2939(2) 0.3178(2) 0.09801(17)
Zn1_2 Zn 1.07796(3) 0.56433(3) -0.10447(2)
Zn1B_2 Zn 0.92204(3) 0.43567(3) 1.10447(2)
Zn1B_3 Zn 1.92204(3) 1.43567(3) 1.10447(2)
N2B_2 N 0.7884(2) 0.3034(2) 0.06898(16)
O3_2 O 0.8526(2) 0.52371(19) -0.01320(14)
O3B_2 O 1.1474(2) 0.47629(19) 1.01320(14)
O4_2 O 0.7726(2) 0.6076(2) 0.04800(15)
O4B_2 O 1.2274(2) 0.3924(2) 0.95200(15)
O5 O 0.1096(3) 0.8065(2) 0.6049(2)
H19 H 0.0638 0.8195 0.5453
H20 H 0.1421 0.8698 0.6348
O6 O 0.2823(14) 0.6387(12) 0.7065(11)
H21 H 0.2465 0.6850 0.6597
H22 H 0.2236 0.5976 0.7011
loop_
_geom_bond_atom_site_label_1
_geom_bond_atom_site_label_2
_geom_bond_site_symmetry_1
_geom_bond_site_symmetry_2
Zn1 N1 1_555 1_555
N1 C13 1_555 1_555
N2 Zn1 1_555 1_555
O1 Zn1 1_555 1_555
O2 C1 1_555 1_555
O3 C2 1_555 1_555
O4 C2 1_555 1_555
C1 O1 1_555 1_555
C2 C12 1_555 1_555
C3 C1 1_555 1_555
C4 C3 1_555 1_555
C5 C4 1_555 1_555
H1 C5 1_555 1_555
C6 C5 1_555 1_555
H2 C6 1_555 1_555
C7 C6 1_555 1_555
H3 C7 1_555 1_555
C8 C7 1_555 1_555
H4 C8 1_555 1_555
C9 C4 1_555 1_555
C10 C9 1_555 1_555
H5 C10 1_555 1_555
C11 C10 1_555 1_555
H6 C11 1_555 1_555
C12 C3 1_555 1_555
C13 H7 1_555 1_555
C14 N1 1_555 1_555
H8 C14 1_555 1_555
C15 C14 1_555 1_555
H9 C15 1_555 1_555
C16 C13 1_555 1_555
H10 C16 1_555 1_555
C17 C15 1_555 1_555
C18 C17 1_555 1_555
H11 C18 1_555 1_555
H12 C18 1_555 1_555
C19 N2 1_555 1_555
H13 C19 1_555 1_555
C20 N2 1_555 1_555
H14 C20 1_555 1_555
C21 C20 1_555 1_555
H15 C21 1_555 1_555
C22 C19 1_555 1_555
H16 C22 1_555 1_555
C23 C21 1_555 1_555
C24 C23 1_555 1_555
H17 C24 1_555 1_555
H18 C24 1_555 1_555
O5 H19 1_555 1_555
H20 O5 1_555 1_555
O6 H21 1_555 1_555
H22 O6 1_555 1_555
N1B C13B 1_555 1_555
C13B H7B 1_555 1_555
C14B N1B 1_555 1_555
H8B C14B 1_555 1_555
C15B C14B 1_555 1_555
H9B C15B 1_555 1_555
C16B C13B 1_555 1_555
H10B C16B 1_555 1_555
C17B C15B 1_555 1_555
C18B C18 1_555 1_555
H11B C18B 1_555 1_555
H12B C18B 1_555 1_555
N2B C19B 1_555 1_555
C19B H13B 1_555 1_555
C20B N2B 1_555 1_555
H14B C20B 1_555 1_555
C21B C20B 1_555 1_555
H15B C21B 1_555 1_555
C22B C19B 1_555 1_555
H16B C22B 1_555 1_555
C23B C21B 1_555 1_555
C24B C24 1_555 1_555
H17B C24B 1_555 1_555
H18B C24B 1_555 1_555
Zn1B N1B 1_555 1_555
O1B Zn1B 1_555 1_555
O2B C1B 1_555 1_555
O3B C2B 1_555 1_555
O4B C2B 1_555 1_555
C1B O1B 1_555 1_555
C2B C12B 1_555 1_555
C3B C1B 1_555 1_555
C4B C3B 1_555 1_555
C5B C4B 1_555 1_555
H1B C5B 1_555 1_555
C6B C5B 1_555 1_555
H2B C6B 1_555 1_555
C7B C6B 1_555 1_555
H3B C7B 1_555 1_555
C8B C7B 1_555 1_555
H4B C8B 1_555 1_555
C9B C4B 1_555 1_555
C10B C9B 1_555 1_555
H5B C10B 1_555 1_555
C11B C10B 1_555 1_555
H6B C11B 1_555 1_555
C12B C3B 1_555 1_555
Zn1_2 O3B 1_555 1_555
Zn1B_2 O3 1_555 1_555
Zn1B_3 N2B 1_555 1_555
N2B_2 Zn1B 1_555 1_555
O3_2 Zn1B 1_555 1_555
O3B_2 Zn1 1_555 1_555
O4_2 Zn1B 1_555 1_555
O4B_2 Zn1 1_555 1_555
O4 Zn1B_2 1_555 1_555
C8 C9 1_555 1_555
C11 C12 1_555 1_555
C16 C17 1_555 1_555
C22 C23 1_555 1_555
C16B C17B 1_555 1_555
C17B C18B 1_555 1_555
C22B C23B 1_555 1_555
C23B C24B 1_555 1_555
O4B Zn1_2 1_555 1_555
C8B C9B 1_555 1_555
C11B C12B 1_555 1_555

#END
