
#######################################################################
#
#                 Cambridge Crystallographic Data Centre
#                                CCDC 
#
#######################################################################
#
# If this CIF has been generated from an entry in the Cambridge 
# Structural Database, then it will include bibliographic, chemical, 
# crystal, experimental, refinement or atomic coordinate data resulting 
# from the CCDC's data processing and validation procedures.
#
#######################################################################

data_GUHHOH
_symmetry_cell_setting           triclinic
_symmetry_space_group_name_H-M   'P -1'
_symmetry_Int_Tables_number      2
_space_group_name_Hall           '-P 1'
loop_
_symmetry_equiv_pos_site_id
_symmetry_equiv_pos_as_xyz
1 x,y,z
2 -x,-y,-z
_cell_length_a                   6.0335(2)
_cell_length_b                   6.0515(2)
_cell_length_c                   11.3412(4)
_cell_angle_alpha                103.6910(10)
_cell_angle_beta                 91.3570(10)
_cell_angle_gamma                102.5920(10)
_cell_volume                     391.405
loop_
_atom_site_label
_atom_site_type_symbol
_atom_site_fract_x
_atom_site_fract_y
_atom_site_fract_z
Ni1 Ni 1.0000 0.0000 0.0000
C1 C 0.5462(2) 0.4591(2) 0.54713(12)
C2 C 0.6928(2) 0.3041(3) 0.51081(12)
C3 C 0.7453(2) 0.2315(3) 0.39379(12)
H1 H 0.8371 0.1250 0.3741
C4 C 0.6579(2) 0.3211(3) 0.30292(12)
C5 C 0.7222(2) 0.2493(2) 0.17399(12)
N1 N 0.7950(2) 0.2093(2) 0.60142(11)
O1 O 0.65271(17) 0.34393(18) 0.09649(9)
O2 O 0.84029(18) 0.10007(19) 0.15381(9)
O3 O 0.8047(2) 0.00373(19) 0.57128(10)
O4 O 0.86856(19) 0.3405(2) 0.70163(9)
O5 O 0.79242(17) -0.32988(18) -0.03518(9)
O6 O 0.76945(18) 0.08509(18) -0.10865(9)
H2 H 0.784(4) -0.398(4) 0.0178(19)
H3 H 0.817(4) 0.145(4) -0.1638(16)
H4 H 0.665(3) -0.328(4) -0.0636(17)
H5 H 0.706(4) 0.176(4) -0.0591(17)
C6 C 0.4836(2) 0.5279(3) 0.66782(12)
H6 H 0.5396 0.4695 0.7283
Ni1_2 Ni 0.0000 1.0000 1.0000
C1A C 0.4538(2) 0.5409(2) 0.45287(12)
C2A C 0.3072(2) 0.6959(3) 0.48919(12)
C3A C 0.2547(2) 0.7685(3) 0.60621(12)
H1A H 0.1629 0.8750 0.6259
C4A C 0.3421(2) 0.6789(3) 0.69708(12)
C5A C 0.2778(2) 0.7507(2) 0.82601(12)
N1A N 0.2050(2) 0.7907(2) 0.39858(11)
O1A O 0.34729(17) 0.65607(18) 0.90351(9)
O2A O 0.15971(18) 0.89993(19) 0.84619(9)
O2A_2 O 1.15971(18) -0.10007(19) -0.15381(9)
O3A O 0.1953(2) 0.99627(19) 0.42872(10)
O4A O 0.13144(19) 0.6595(2) 0.29837(9)
O5A O 1.20758(17) 0.32988(18) 0.03518(9)
O6A O 1.23055(18) -0.08509(18) 0.10865(9)
H2A H 1.216(4) 0.398(4) -0.0178(19)
H3A H 1.183(4) -0.145(4) 0.1638(16)
H4A H 1.335(3) 0.328(4) 0.0636(17)
H5A H 1.294(4) -0.176(4) 0.0591(17)
C6A C 0.5164(2) 0.4721(3) 0.33218(12)
H6A H 0.4604 0.5305 0.2717
loop_
_geom_bond_atom_site_label_1
_geom_bond_atom_site_label_2
_geom_bond_site_symmetry_1
_geom_bond_site_symmetry_2
Ni1 O2 1_555 1_555
C1 C2 1_555 1_555
C2 C3 1_555 1_555
C3 H1 1_555 1_555
C4 C3 1_555 1_555
C5 C4 1_555 1_555
N1 C2 1_555 1_555
O1 C5 1_555 1_555
O2 C5 1_555 1_555
O3 N1 1_555 1_555
O4 N1 1_555 1_555
O5 Ni1 1_555 1_555
O6 Ni1 1_555 1_555
H2 O5 1_555 1_555
H3 O6 1_555 1_555
H4 O5 1_555 1_555
H5 O6 1_555 1_555
C6 C1 1_555 1_555
H6 C6 1_555 1_555
Ni1_2 O2A 1_555 1_555
C1A C1 1_555 1_555
C2A C1A 1_555 1_555
C3A C2A 1_555 1_555
H1A C3A 1_555 1_555
C4A C6 1_555 1_555
C5A C4A 1_555 1_555
N1A C2A 1_555 1_555
O1A C5A 1_555 1_555
O2A C5A 1_555 1_555
O2A_2 Ni1 1_555 1_555
O3A N1A 1_555 1_555
O4A N1A 1_555 1_555
O5A Ni1 1_555 1_555
O6A Ni1 1_555 1_555
H2A O5A 1_555 1_555
H3A O6A 1_555 1_555
H4A O5A 1_555 1_555
H5A O6A 1_555 1_555
C6A C4 1_555 1_555
H6A C6A 1_555 1_555
C1A C6A 1_555 1_555
C3A C4A 1_555 1_555

#END
