
#######################################################################
#
#                 Cambridge Crystallographic Data Centre
#                                CCDC 
#
#######################################################################
#
# If this CIF has been generated from an entry in the Cambridge 
# Structural Database, then it will include bibliographic, chemical, 
# crystal, experimental, refinement or atomic coordinate data resulting 
# from the CCDC's data processing and validation procedures.
#
#######################################################################

data_GUHJUP
_symmetry_cell_setting           monoclinic
_symmetry_space_group_name_H-M   'C 2/c'
_symmetry_Int_Tables_number      15
_space_group_name_Hall           '-C 2yn'
loop_
_symmetry_equiv_pos_site_id
_symmetry_equiv_pos_as_xyz
1 x,y,z
2 -x,y,1/2-z
3 1/2+x,1/2+y,z
4 1/2-x,1/2+y,1/2-z
5 -x,-y,-z
6 x,-y,1/2+z
7 1/2-x,1/2-y,-z
8 1/2+x,1/2-y,1/2+z
_cell_length_a                   31.490(3)
_cell_length_b                   6.871(2)
_cell_length_c                   18.172(3)
_cell_angle_alpha                90
_cell_angle_beta                 109.20(3)
_cell_angle_gamma                90
_cell_volume                     3713.13
loop_
_atom_site_label
_atom_site_type_symbol
_atom_site_fract_x
_atom_site_fract_y
_atom_site_fract_z
Cd1 Cd 0.04578(3) 0.39395(15) 0.17716(5)
C1 C 0.1016(4) 0.3731(17) 0.4290(8)
C2 C 0.1408(6) 0.354(2) 0.4964(8)
C3 C 0.1368(8) 0.311(3) 0.5692(9)
H1 H 0.1085 0.3001 0.5747
C4 C 0.1759(6) 0.284(3) 0.6341(9)
H2 H 0.1735 0.2550 0.6826
C5 C 0.2172(5) 0.301(2) 0.6263(8)
C6 C 0.2223(5) 0.361(2) 0.5573(8)
H3 H 0.2507 0.3890 0.5547
C7 C 0.1848(5) 0.380(2) 0.4925(9)
H4 H 0.1882 0.4108 0.4450
C8 C 0.0619(4) 0.8929(17) 0.2092(8)
C9 C 0.0884(5) 0.8809(18) 0.2921(9)
C10 C 0.0692(7) 0.886(2) 0.3488(9)
H5 H 0.0380 0.8934 0.3350
C11 C 0.0956(5) 0.880(3) 0.4284(9)
H6 H 0.0824 0.8937 0.4670
C12 C 0.1422(5) 0.8540(19) 0.4481(8)
C13 C 0.1622(6) 0.857(3) 0.3905(9)
H7 H 0.1933 0.8553 0.4039
C14 C 0.1356(6) 0.862(3) 0.3138(10)
H8 H 0.1489 0.8531 0.2752
N1 N 0.1023(4) 0.3729(16) 0.3546(6)
N2 N 0.0582(4) 0.3906(14) 0.3106(6)
N3 N 0.0337(4) 0.3926(16) 0.3556(6)
N4 N 0.0594(4) 0.3801(16) 0.4309(6)
N5 N 0.2591(7) 0.281(3) 0.6952(9)
N6 N 0.0462(4) 0.739(2) 0.1654(6)
N7 N 0.0230(5) 0.802(2) 0.0919(7)
N8 N 0.0240(5) 0.9931(15) 0.0967(7)
N9 N 0.0475(5) 1.0534(18) 0.1690(6)
N10 N 0.1716(6) 0.845(2) 0.5315(9)
O1 O 0.2936(6) 0.291(3) 0.6837(11)
O2 O 0.2526(5) 0.233(3) 0.7546(9)
O3 O 0.2121(6) 0.863(2) 0.5452(9)
O4 O 0.1533(6) 0.818(3) 0.5792(8)
O5 O 0.1255(4) 0.3885(16) 0.2103(6)
H9 H 0.1408 0.5002 0.2128
H10 H 0.1403 0.2743 0.2203
O6 O 0.0420(3) 0.3740(13) 0.0486(5)
H11 H 0.0675 0.3681 0.0366
H12 H 0.0151 0.3718 0.0105
Cd1A Cd -0.04578(3) 0.39395(15) 0.32284(5)
Cd1_2 Cd 0.04578(3) 1.39395(15) 0.17716(5)
N3A N -0.0337(4) 0.3926(16) 0.1444(6)
N9_2 N 0.0475(5) 0.0534(18) 0.1690(6)
loop_
_geom_bond_atom_site_label_1
_geom_bond_atom_site_label_2
_geom_bond_site_symmetry_1
_geom_bond_site_symmetry_2
Cd1 N2 1_555 1_555
C1 C2 1_555 1_555
C2 C3 1_555 1_555
C3 H1 1_555 1_555
C4 C3 1_555 1_555
H2 C4 1_555 1_555
C5 C4 1_555 1_555
C6 C5 1_555 1_555
H3 C6 1_555 1_555
C7 C2 1_555 1_555
H4 C7 1_555 1_555
C8 C9 1_555 1_555
C9 C10 1_555 1_555
C10 H5 1_555 1_555
C11 C10 1_555 1_555
H6 C11 1_555 1_555
C12 C11 1_555 1_555
C13 C12 1_555 1_555
H7 C13 1_555 1_555
C14 C9 1_555 1_555
H8 C14 1_555 1_555
N1 C1 1_555 1_555
N2 N1 1_555 1_555
N3 N2 1_555 1_555
N4 C1 1_555 1_555
N5 C5 1_555 1_555
N6 Cd1 1_555 1_555
N7 N6 1_555 1_555
N8 N7 1_555 1_555
N9 C8 1_555 1_555
N10 C12 1_555 1_555
O1 N5 1_555 1_555
O2 N5 1_555 1_555
O3 N10 1_555 1_555
O4 N10 1_555 1_555
O5 Cd1 1_555 1_555
H9 O5 1_555 1_555
H10 O5 1_555 1_555
O6 Cd1 1_555 1_555
H11 O6 1_555 1_555
H12 O6 1_555 1_555
Cd1A N3 1_555 1_555
Cd1_2 N9 1_555 1_555
N3A Cd1 1_555 1_555
N9_2 Cd1 1_555 1_555
C6 C7 1_555 1_555
C8 N6 1_555 1_555
C13 C14 1_555 1_555
N3 N4 1_555 1_555
N8 N9 1_555 1_555

#END
