
#######################################################################
#
#                 Cambridge Crystallographic Data Centre
#                                CCDC 
#
#######################################################################
#
# If this CIF has been generated from an entry in the Cambridge 
# Structural Database, then it will include bibliographic, chemical, 
# crystal, experimental, refinement or atomic coordinate data resulting 
# from the CCDC's data processing and validation procedures.
#
#######################################################################

data_GUHJOJ
_symmetry_cell_setting           monoclinic
_symmetry_space_group_name_H-M   'P 21/c'
_symmetry_Int_Tables_number      14
_space_group_name_Hall           '-P 2ybc'
loop_
_symmetry_equiv_pos_site_id
_symmetry_equiv_pos_as_xyz
1 x,y,z
2 -x,1/2+y,1/2-z
3 -x,-y,-z
4 x,1/2-y,1/2+z
_cell_length_a                   12.408(3)
_cell_length_b                   9.2082(18)
_cell_length_c                   8.8092(18)
_cell_angle_alpha                90
_cell_angle_beta                 102.32(3)
_cell_angle_gamma                90
_cell_volume                     983.32
loop_
_atom_site_label
_atom_site_type_symbol
_atom_site_fract_x
_atom_site_fract_y
_atom_site_fract_z
Cd1 Cd 0.0000 0.5000 1.0000
C1 C 0.13249(14) 0.16947(19) 1.1105(2)
C2 C 0.22092(14) 0.1717(2) 1.0220(2)
C3 C 0.25182(18) 0.0439(2) 0.9579(2)
H1 H 0.2112 -0.0406 0.9603
C4 C 0.34333(19) 0.0428(3) 0.8904(2)
H2 H 0.3645 -0.0417 0.8467
C5 C 0.40178(16) 0.1697(3) 0.8898(2)
C6 C 0.37087(17) 0.2984(2) 0.9469(2)
H3 H 0.4107 0.3831 0.9415
C7 C 0.27877(16) 0.2989(2) 1.0128(2)
H4 H 0.2558 0.3851 1.0511
N1 N 0.06499(13) 0.28018(17) 1.12644(17)
N2 N 0.00608(12) 0.23395(17) 1.22847(17)
N3 N 0.03776(13) 0.10161(17) 1.27099(17)
N4 N 0.11708(13) 0.05750(18) 1.19823(18)
N5 N 0.50211(17) 0.1685(3) 0.8266(3)
O1 O 0.52270(16) 0.0638(3) 0.7551(2)
O2 O 0.5634(2) 0.2722(3) 0.8526(4)
O3 O 0.16994(11) 0.61306(15) 1.06784(16)
H5 H 0.1844 0.6706 1.1436
H6 H 0.2018 0.6458 0.9970
Cd1A Cd 0.0000 0.0000 1.5000
Cd1A_2 Cd 0.0000 1.0000 0.5000
C1B C -0.13249(14) 0.83053(19) 0.8895(2)
C2B C -0.22092(14) 0.8283(2) 0.9780(2)
C3B C -0.25182(18) 0.9561(2) 1.0421(2)
H1B H -0.2112 1.0406 1.0397
C4B C -0.34333(19) 0.9572(3) 1.1096(2)
H2B H -0.3645 1.0417 1.1533
C5B C -0.40178(16) 0.8303(3) 1.1102(2)
C6B C -0.37087(17) 0.7016(2) 1.0531(2)
H3B H -0.4107 0.6169 1.0585
C7B C -0.27877(16) 0.7011(2) 0.9872(2)
H4B H -0.2558 0.6149 0.9489
N1B N -0.06499(13) 0.71982(17) 0.87356(17)
N2B N -0.00608(12) 0.76605(17) 0.77153(17)
N3B N -0.03776(13) 0.89839(17) 0.72901(17)
N3A N -0.03776(13) 0.60161(17) 1.22901(17)
N3C N 0.03776(13) 0.39839(17) 0.77099(17)
N4B N -0.11708(13) 0.94250(18) 0.80177(18)
N5B N -0.50211(17) 0.8315(3) 1.1734(3)
O1B O -0.52270(16) 0.9362(3) 1.2449(2)
O2B O -0.5634(2) 0.7278(3) 1.1474(4)
O3B O -0.16994(11) 0.38694(15) 0.93216(16)
H5B H -0.1844 0.3294 0.8564
H6B H -0.2018 0.3542 1.0030
O4 O 0.24517(12) 0.81651(15) 0.30183(17)
H7 H 0.2149 0.8967 0.2646
H8 H 0.3095 0.8521 0.2883
loop_
_geom_bond_atom_site_label_1
_geom_bond_atom_site_label_2
_geom_bond_site_symmetry_1
_geom_bond_site_symmetry_2
Cd1 N1 1_555 1_555
C1 C2 1_555 1_555
C2 C3 1_555 1_555
C3 H1 1_555 1_555
C4 C3 1_555 1_555
H2 C4 1_555 1_555
C5 C4 1_555 1_555
C6 C5 1_555 1_555
H3 C6 1_555 1_555
C7 C2 1_555 1_555
H4 C7 1_555 1_555
N1 C1 1_555 1_555
N2 N1 1_555 1_555
N3 N2 1_555 1_555
N4 C1 1_555 1_555
N5 C5 1_555 1_555
O1 N5 1_555 1_555
O2 N5 1_555 1_555
O3 Cd1 1_555 1_555
H5 O3 1_555 1_555
H6 O3 1_555 1_555
O4 H7 1_555 1_555
H8 O4 1_555 1_555
Cd1A N3 1_555 1_555
Cd1A_2 N3B 1_555 1_555
C1B C2B 1_555 1_555
C2B C3B 1_555 1_555
C3B H1B 1_555 1_555
C4B C3B 1_555 1_555
H2B C4B 1_555 1_555
C5B C4B 1_555 1_555
C6B C5B 1_555 1_555
H3B C6B 1_555 1_555
C7B C2B 1_555 1_555
H4B C7B 1_555 1_555
N1B Cd1 1_555 1_555
N2B N1B 1_555 1_555
N3B N2B 1_555 1_555
N3A Cd1 1_555 1_555
N3C Cd1 1_555 1_555
N4B C1B 1_555 1_555
N5B C5B 1_555 1_555
O1B N5B 1_555 1_555
O2B N5B 1_555 1_555
O3B Cd1 1_555 1_555
H5B O3B 1_555 1_555
H6B O3B 1_555 1_555
C6 C7 1_555 1_555
N3 N4 1_555 1_555
C1B N1B 1_555 1_555
C6B C7B 1_555 1_555
N3B N4B 1_555 1_555

#END
