
#######################################################################
#
#                 Cambridge Crystallographic Data Centre
#                                CCDC 
#
#######################################################################
#
# If this CIF has been generated from an entry in the Cambridge 
# Structural Database, then it will include bibliographic, chemical, 
# crystal, experimental, refinement or atomic coordinate data resulting 
# from the CCDC's data processing and validation procedures.
#
#######################################################################

data_GUHLOM
_symmetry_cell_setting           cubic
_symmetry_space_group_name_H-M   'P a -3'
_symmetry_Int_Tables_number      205
_space_group_name_Hall           '-P 2ac 2ab 3'
loop_
_symmetry_equiv_pos_site_id
_symmetry_equiv_pos_as_xyz
1 x,y,z
2 1/2-x,-y,1/2+z
3 -x,1/2+y,1/2-z
4 1/2+x,1/2-y,-z
5 z,x,y
6 1/2+z,1/2-x,-y
7 1/2-z,-x,1/2+y
8 -z,1/2+x,1/2-y
9 y,z,x
10 -y,1/2+z,1/2-x
11 1/2+y,1/2-z,-x
12 1/2-y,-z,1/2+x
13 -x,-y,-z
14 1/2+x,y,1/2-z
15 x,1/2-y,1/2+z
16 1/2-x,1/2+y,z
17 -z,-x,-y
18 1/2-z,1/2+x,y
19 1/2+z,x,1/2-y
20 z,1/2-x,1/2+y
21 -y,-z,-x
22 y,1/2-z,1/2+x
23 1/2-y,1/2+z,x
24 1/2+y,z,1/2-x
_cell_length_a                   20.85170(10)
_cell_length_b                   20.85170(10)
_cell_length_c                   20.85170(10)
_cell_angle_alpha                90
_cell_angle_beta                 90
_cell_angle_gamma                90
_cell_volume                     9066.18
loop_
_atom_site_label
_atom_site_type_symbol
_atom_site_fract_x
_atom_site_fract_y
_atom_site_fract_z
N1 N 0.07796(10) 0.39942(10) 0.80218(10)
P1 P 0.02221(3) 0.51312(3) 0.83833(3)
Mg1 Mg -0.02559(4) 0.23377(4) 0.89297(4)
Mg2 Mg 0.02424(4) 0.37518(4) 0.89284(4)
Mg3 Mg 0.0000 0.5000 1.0000
Mg4 Mg 0.12546(4) 0.62546(4) 0.87454(4)
O1 O -0.03914(12) 0.16367(11) 0.82330(11)
O2 O -0.04769(9) 0.17178(9) 0.96935(10)
O3 O 0.04955(9) 0.17655(9) 0.92806(9)
O4 O 0.10290(12) 0.71023(12) 0.82291(13)
O5 O 0.00807(12) 0.26013(10) 0.73168(10)
O6 O 0.02224(9) 0.29286(9) 0.83264(9)
O7 O 0.22201(9) 0.37256(10) 0.89043(9)
O8 O 0.11929(8) 0.37273(9) 0.92265(8)
O9 O -0.04287(8) 0.50265(9) 0.80541(8)
O10 O 0.04265(9) 0.58173(8) 0.84308(9)
O11 O 0.01538(9) 0.47622(8) 0.90257(8)
C1 C 0.08492(13) 0.06482(14) 0.99533(13)
H1 H 0.1097 0.0763 0.9600
C2 C 0.03141(13) 0.10130(13) 1.01166(13)
C3 C 0.01022(13) 0.15295(13) 0.96751(13)
C4 C 0.04278(14) 0.36771(13) 0.75001(13)
H2 H 0.0698 0.3646 0.7123
H3 H 0.0051 0.3926 0.7389
C5 C 0.02283(13) 0.30081(13) 0.77185(13)
C6 C 0.14220(12) 0.37061(13) 0.81052(13)
H4 H 0.1730 0.3937 0.7843
H5 H 0.1413 0.3264 0.7960
C7 C 0.16327(12) 0.37267(12) 0.87965(13)
C8 C 0.08367(13) 0.47019(12) 0.79452(13)
H6 H 0.0806 0.4810 0.7494
H7 H 0.1255 0.4838 0.8096
H8 H -0.0218(16) 0.1277(11) 0.8234(17)
H9 H -0.0769(9) 0.1664(19) 0.8230(19)
H10 H 0.1278(16) 0.7416(15) 0.822(2)
H11 H 0.0678(13) 0.724(2) 0.811(3)
O2D O -0.03065(10) -0.04769(9) 1.17178(9)
O3D O -0.07194(9) 0.04955(9) 1.17655(9)
C1D C -0.00467(13) 0.08492(13) 1.06482(14)
H1D H -0.0400 0.1097 1.0763
C2D C 0.01166(13) 0.03141(13) 1.10130(13)
C3D C -0.03249(13) 0.01022(13) 1.15295(13)
O2H O 0.17178(9) -0.03065(10) 0.95231(9)
O3H O 0.17655(9) -0.07194(9) 1.04955(9)
C1H C 0.06482(14) -0.00467(13) 1.08492(13)
H1H H 0.0763 -0.0400 1.1097
C2H C 0.10130(13) 0.01166(13) 1.03141(13)
C3H C 0.15295(13) -0.03249(13) 1.01022(13)
N1D N -0.19782(10) 0.07796(10) 1.39942(10)
P1D P -0.16167(3) 0.02221(3) 1.51312(3)
Mg1D Mg -0.10703(4) -0.02559(4) 1.23377(4)
Mg2D Mg -0.10716(4) 0.02424(4) 1.37518(4)
O1D O -0.17670(11) -0.03914(12) 1.16367(11)
O5D O -0.26832(10) 0.00807(12) 1.26013(10)
O6D O -0.16736(9) 0.02224(9) 1.29286(9)
O7D O -0.10957(9) 0.22201(9) 1.37256(10)
O8D O -0.07735(8) 0.11929(8) 1.37273(9)
O9D O -0.19459(8) -0.04287(8) 1.50265(9)
O10D O -0.15692(9) 0.04265(9) 1.58173(8)
O11D O -0.09743(8) 0.01538(9) 1.47622(8)
C4D C -0.24999(13) 0.04278(14) 1.36771(13)
H2D H -0.2877 0.0698 1.3646
H3D H -0.2611 0.0051 1.3926
C5D C -0.22815(13) 0.02283(13) 1.30081(13)
C6D C -0.18948(13) 0.14220(12) 1.37061(13)
H4D H -0.2157 0.1730 1.3937
H5D H -0.2040 0.1413 1.3264
C7D C -0.12035(13) 0.16327(12) 1.37267(12)
C8D C -0.20548(13) 0.08367(13) 1.47019(12)
H6D H -0.2506 0.0806 1.4810
H7D H -0.1904 0.1255 1.4838
H8D H -0.1766(17) -0.0218(16) 1.1277(11)
H9D H -0.1770(19) -0.0769(9) 1.1664(19)
N1H N 0.39942(10) -0.19782(10) 1.07796(10)
P1H P 0.51312(3) -0.16167(3) 1.02221(3)
Mg1H Mg 0.23377(4) -0.10703(4) 0.97441(4)
Mg2H Mg 0.37518(4) -0.10716(4) 1.02424(4)
O1H O 0.16367(11) -0.17670(11) 0.96086(12)
O5H O 0.26013(10) -0.26832(10) 1.00807(12)
O6H O 0.29286(9) -0.16736(9) 1.02224(9)
O7H O 0.37256(10) -0.10957(9) 1.22201(9)
O8H O 0.37273(9) -0.07735(8) 1.11929(8)
O9H O 0.50265(9) -0.19459(8) 0.95713(8)
O10H O 0.58173(8) -0.15692(9) 1.04265(9)
O11H O 0.47622(8) -0.09743(8) 1.01538(9)
C4H C 0.36771(13) -0.24999(13) 1.04278(14)
H2H H 0.3646 -0.2877 1.0698
H3H H 0.3926 -0.2611 1.0051
C5H C 0.30081(13) -0.22815(13) 1.02283(13)
C6H C 0.37061(13) -0.18948(13) 1.14220(12)
H4H H 0.3937 -0.2157 1.1730
H5H H 0.3264 -0.2040 1.1413
C7H C 0.37267(12) -0.12035(13) 1.16327(12)
C8H C 0.47019(12) -0.20548(13) 1.08367(13)
H6H H 0.4810 -0.2506 1.0806
H7H H 0.4838 -0.1904 1.1255
H8H H 0.1277(11) -0.1766(17) 0.9782(16)
H9H H 0.1664(19) -0.1770(19) 0.9231(9)
N1L N -0.07796(10) 0.60058(10) 1.19782(10)
P1L P -0.02221(3) 0.48688(3) 1.16167(3)
Mg1L Mg 0.02559(4) 0.76623(4) 1.10703(4)
Mg2L Mg -0.02424(4) 0.62482(4) 1.10716(4)
Mg4L Mg -0.12546(4) 0.37454(4) 1.12546(4)
O1L O 0.03914(12) 0.83633(11) 1.17670(11)
O2L O 0.04769(9) 0.82822(9) 1.03065(10)
O3L O -0.04955(9) 0.82345(9) 1.07194(9)
O4L O -0.10290(12) 0.28977(12) 1.17709(13)
O5L O -0.00807(12) 0.73987(10) 1.26832(10)
O6L O -0.02224(9) 0.70714(9) 1.16736(9)
O7L O -0.22201(9) 0.62744(10) 1.10957(9)
O8L O -0.11929(8) 0.62727(9) 1.07735(8)
O9L O 0.04287(8) 0.49735(9) 1.19459(8)
O10L O -0.04265(9) 0.41827(8) 1.15692(9)
O11L O -0.01538(9) 0.52378(8) 1.09743(8)
C1L C -0.08492(13) 0.93518(14) 1.00467(13)
H1L H -0.1097 0.9237 1.0400
C2L C -0.03141(13) 0.89870(13) 0.98834(13)
C3L C -0.01022(13) 0.84705(13) 1.03249(13)
C4L C -0.04278(14) 0.63229(13) 1.24999(13)
H2L H -0.0698 0.6354 1.2877
H3L H -0.0051 0.6074 1.2611
C5L C -0.02283(13) 0.69919(13) 1.22815(13)
C6L C -0.14220(12) 0.62939(13) 1.18948(13)
H4L H -0.1730 0.6063 1.2157
H5L H -0.1413 0.6736 1.2040
C7L C -0.16327(12) 0.62733(12) 1.12035(13)
C8L C -0.08367(13) 0.52981(12) 1.20548(13)
H6L H -0.0806 0.5190 1.2506
H7L H -0.1255 0.5162 1.1904
H8L H 0.0218(16) 0.8723(11) 1.1766(17)
H9L H 0.0769(9) 0.8336(19) 1.1770(19)
H10L H -0.1278(16) 0.2584(15) 1.178(2)
H11L H -0.0678(13) 0.276(2) 1.189(3)
O2P O 0.03065(10) 1.04769(9) 0.82822(9)
O3P O 0.07194(9) 0.95045(9) 0.82345(9)
C1P C 0.00467(13) 0.91508(13) 0.93518(14)
H1P H 0.0400 0.8903 0.9237
C2P C -0.01166(13) 0.96859(13) 0.89870(13)
C3P C 0.03249(13) 0.98978(13) 0.84705(13)
O2T O -0.17178(9) 1.03065(10) 1.04769(9)
O3T O -0.17655(9) 1.07194(9) 0.95045(9)
C1T C -0.06482(14) 1.00467(13) 0.91508(13)
H1T H -0.0763 1.0400 0.8903
C2T C -0.10130(13) 0.98834(13) 0.96859(13)
C3T C -0.15295(13) 1.03249(13) 0.98978(13)
N1T N -0.39942(10) 1.19782(10) 0.92204(10)
P1T P -0.51312(3) 1.16167(3) 0.97779(3)
Mg1T Mg -0.23377(4) 1.10703(4) 1.02559(4)
Mg2T Mg -0.37518(4) 1.10716(4) 0.97576(4)
O1T O -0.16367(11) 1.17670(11) 1.03914(12)
O5T O -0.26013(10) 1.26832(10) 0.99193(12)
O6T O -0.29286(9) 1.16736(9) 0.97776(9)
O7T O -0.37256(10) 1.10957(9) 0.77799(9)
O8T O -0.37273(9) 1.07735(8) 0.88071(8)
O9T O -0.50265(9) 1.19459(8) 1.04287(8)
O10T O -0.58173(8) 1.15692(9) 0.95735(9)
O11T O -0.47622(8) 1.09743(8) 0.98462(9)
C4T C -0.36771(13) 1.24999(13) 0.95722(14)
H2T H -0.3646 1.2877 0.9302
H3T H -0.3926 1.2611 0.9949
C5T C -0.30081(13) 1.22815(13) 0.97717(13)
C6T C -0.37061(13) 1.18948(13) 0.85780(12)
H4T H -0.3937 1.2157 0.8270
H5T H -0.3264 1.2040 0.8587
C7T C -0.37267(12) 1.12035(13) 0.83673(12)
C8T C -0.47019(12) 1.20548(13) 0.91633(13)
H6T H -0.4810 1.2506 0.9194
H7T H -0.4838 1.1904 0.8745
H8T H -0.1277(11) 1.1766(17) 1.0218(16)
H9T H -0.1664(19) 1.1770(19) 1.0769(9)
N1S N -0.19782(10) 0.42204(10) 0.89942(10)
P1S P -0.16167(3) 0.47779(3) 1.01312(3)
Mg1S Mg -0.10703(4) 0.52559(4) 0.73377(4)
Mg2S Mg -0.10716(4) 0.47576(4) 0.87518(4)
O1S O -0.17670(11) 0.53914(12) 0.66367(11)
O5S O -0.26832(10) 0.49193(12) 0.76013(10)
O6S O -0.16736(9) 0.47776(9) 0.79286(9)
O7S O -0.10957(9) 0.27799(9) 0.87256(10)
O8S O -0.07735(8) 0.38071(8) 0.87273(9)
O9S O -0.19459(8) 0.54287(8) 1.00265(9)
O10S O -0.15692(9) 0.45735(9) 1.08173(8)
O11S O -0.09743(8) 0.48462(9) 0.97622(8)
C4S C -0.24999(13) 0.45722(14) 0.86771(13)
H2S H -0.2877 0.4302 0.8646
H3S H -0.2611 0.4949 0.8926
C5S C -0.22815(13) 0.47717(13) 0.80081(13)
C6S C -0.18948(13) 0.35780(12) 0.87061(13)
H4S H -0.2157 0.3270 0.8937
H5S H -0.2040 0.3587 0.8264
C7S C -0.12035(13) 0.33673(12) 0.87267(12)
C8S C -0.20548(13) 0.41633(13) 0.97019(12)
H6S H -0.2506 0.4194 0.9810
H7S H -0.1904 0.3745 0.9838
H8S H -0.1766(17) 0.5218(16) 0.6277(11)
H9S H -0.1770(19) 0.5769(9) 0.6664(19)
O4G O 0.17709(13) 0.60290(12) 0.78977(12)
H10G H 0.178(2) 0.6278(16) 0.7584(15)
H11G H 0.189(3) 0.5678(13) 0.776(2)
O4J O 0.21023(12) 0.67709(13) 0.89710(12)
H10J H 0.2416(15) 0.678(2) 0.8722(16)
H11J H 0.224(2) 0.689(3) 0.9322(13)
O4S O -0.17709(13) 0.39710(12) 1.21023(12)
H10S H -0.178(2) 0.3722(16) 1.2416(15)
H11S H -0.189(3) 0.4322(13) 1.224(2)
O4V O -0.21023(12) 0.32291(13) 1.10290(12)
H10V H -0.2416(15) 0.322(2) 1.1278(16)
H11V H -0.224(2) 0.311(3) 1.0678(13)
Mg1C Mg -0.52559(4) 1.26623(4) 1.10703(4)
Mg1F Mg -0.39297(4) 1.02559(4) 0.73377(4)
Mg1G Mg 0.10703(4) 0.47441(4) 1.26623(4)
Mg1J Mg -0.26623(4) 0.60703(4) 1.02559(4)
Mg1N Mg -0.02559(4) 0.26623(4) 1.39297(4)
Mg1O Mg 0.52559(4) -0.26623(4) 0.89297(4)
Mg1P Mg 0.10703(4) 1.02559(4) 0.76623(4)
Mg1R Mg 0.39297(4) -0.02559(4) 1.26623(4)
Mg1V Mg 0.26623(4) 0.39297(4) 0.97441(4)
Mg1W Mg -0.26623(4) -0.10703(4) 1.52559(4)
Mg2C Mg -0.47576(4) 1.12482(4) 1.10716(4)
Mg2F Mg -0.39284(4) 0.97576(4) 0.87518(4)
Mg2G Mg 0.10716(4) 0.52424(4) 1.12482(4)
Mg2J Mg -0.12482(4) 0.60716(4) 0.97576(4)
Mg2N Mg 0.02424(4) 0.12482(4) 1.39284(4)
Mg2O Mg 0.47576(4) -0.12482(4) 0.89284(4)
Mg2R Mg 0.39284(4) 0.02424(4) 1.12482(4)
Mg2V Mg 0.12482(4) 0.39284(4) 1.02424(4)
Mg2W Mg -0.12482(4) -0.10716(4) 1.47576(4)
Mg3B Mg 0.0000 0.0000 1.5000
Mg3C Mg -0.5000 1.0000 1.0000
Mg3C_2 Mg 0.5000 0.0000 1.0000
Mg4B Mg -0.12546(4) 0.12546(4) 1.62546(4)
Mg4C Mg 0.62546(4) -0.12546(4) 1.12546(4)
Mg4O Mg -0.62546(4) 1.12546(4) 0.87454(4)
O2S O -0.03065(10) 0.54769(9) 0.67178(9)
O3S O -0.07194(9) 0.45045(9) 0.67655(9)
O7C O -0.27799(9) 1.12744(10) 1.10957(9)
O7G O 0.10957(9) 0.72201(9) 1.12744(10)
O7J O -0.12744(10) 0.60957(9) 0.77799(9)
O7O O 0.27799(9) -0.12744(10) 0.89043(9)
O7W O -0.12744(10) -0.10957(9) 1.27799(9)
O8C O -0.38071(8) 1.12727(9) 1.07735(8)
O8G O 0.07735(8) 0.61929(8) 1.12727(9)
O8J O -0.12727(9) 0.57735(8) 0.88071(8)
O8O O 0.38071(8) -0.12727(9) 0.92265(8)
O8W O -0.12727(9) -0.07735(8) 1.38071(8)
O9F O -0.30541(8) 1.04287(8) 1.00265(9)
O9J O 0.00265(9) 0.69459(8) 1.04287(8)
O9N O -0.04287(8) -0.00265(9) 1.30541(8)
O9R O 0.30541(8) -0.04287(8) 0.99735(9)
O9V O -0.00265(9) 0.30541(8) 0.95713(8)
O10G O 0.15692(9) 0.54265(9) 0.91827(8)
O10J O 0.08173(8) 0.65692(9) 0.95735(9)
O10V O -0.08173(8) 0.34308(9) 1.04265(9)
O11G O 0.09743(8) 0.51538(9) 1.02378(8)
O11J O -0.02378(8) 0.59743(8) 0.98462(9)
O11V O 0.02378(8) 0.40257(8) 1.01538(9)
O12 O 0.1638(2) 0.83652(18) 0.8043(2)
H12 H 0.1322(17) 0.830(2) 0.829(2)
H13 H 0.1930(19) 0.808(2) 0.801(3)
loop_
_geom_bond_atom_site_label_1
_geom_bond_atom_site_label_2
_geom_bond_site_symmetry_1
_geom_bond_site_symmetry_2
N1 Mg2 1_555 1_555
P1 O9 1_555 1_555
Mg1 O1 1_555 1_555
Mg2 O6 1_555 1_555
Mg3 O11 1_555 1_555
Mg4 O4 1_555 1_555
O1 H8 1_555 1_555
O2 Mg1 1_555 1_555
O3 Mg1 1_555 1_555
O4 H10 1_555 1_555
O5 C5 1_555 1_555
O6 Mg1 1_555 1_555
O7 C7 1_555 1_555
O8 Mg2 1_555 1_555
O9 Mg1S 1_555 1_555
O10 P1 1_555 1_555
O11 P1 1_555 1_555
C1 H1 1_555 1_555
C2 C1 1_555 1_555
C3 O2 1_555 1_555
C4 N1 1_555 1_555
H2 C4 1_555 1_555
H3 C4 1_555 1_555
C5 O6 1_555 1_555
C6 N1 1_555 1_555
H4 C6 1_555 1_555
H5 C6 1_555 1_555
C7 O8 1_555 1_555
C8 N1 1_555 1_555
H6 C8 1_555 1_555
H7 C8 1_555 1_555
H9 O1 1_555 1_555
H11 O4 1_555 1_555
O12 H12 1_555 1_555
H13 O12 1_555 1_555
O2D C3D 1_555 1_555
O3D C3D 1_555 1_555
C1D C2 1_555 1_555
H1D C1D 1_555 1_555
C2D C1D 1_555 1_555
C3D C2D 1_555 1_555
O2H C3H 1_555 1_555
O3H C3H 1_555 1_555
C1H C2D 1_555 1_555
H1H C1H 1_555 1_555
C2H C1 1_555 1_555
C3H C2H 1_555 1_555
N1D Mg2D 1_555 1_555
P1D O9D 1_555 1_555
Mg1D O2D 1_555 1_555
Mg2D O6D 1_555 1_555
O1D Mg1D 1_555 1_555
O5D C5D 1_555 1_555
O6D Mg1D 1_555 1_555
O7D C7D 1_555 1_555
O8D Mg2D 1_555 1_555
O9D Mg1W 1_555 1_555
O10D P1D 1_555 1_555
O11D P1D 1_555 1_555
C4D N1D 1_555 1_555
H2D C4D 1_555 1_555
H3D C4D 1_555 1_555
C5D O6D 1_555 1_555
C6D N1D 1_555 1_555
H4D C6D 1_555 1_555
H5D C6D 1_555 1_555
C7D O8D 1_555 1_555
C8D N1D 1_555 1_555
H6D C8D 1_555 1_555
H7D C8D 1_555 1_555
H8D O1D 1_555 1_555
H9D O1D 1_555 1_555
N1H Mg2H 1_555 1_555
P1H O9H 1_555 1_555
Mg1H O2H 1_555 1_555
Mg2H O6H 1_555 1_555
O1H Mg1H 1_555 1_555
O5H C5H 1_555 1_555
O6H Mg1H 1_555 1_555
O7H C7H 1_555 1_555
O8H Mg2H 1_555 1_555
O9H Mg1O 1_555 1_555
O10H P1H 1_555 1_555
O11H P1H 1_555 1_555
C4H N1H 1_555 1_555
H2H C4H 1_555 1_555
H3H C4H 1_555 1_555
C5H O6H 1_555 1_555
C6H N1H 1_555 1_555
H4H C6H 1_555 1_555
H5H C6H 1_555 1_555
C7H O8H 1_555 1_555
C8H N1H 1_555 1_555
H6H C8H 1_555 1_555
H7H C8H 1_555 1_555
H8H O1H 1_555 1_555
H9H O1H 1_555 1_555
N1L Mg2L 1_555 1_555
P1L O9L 1_555 1_555
Mg1L O1L 1_555 1_555
Mg2L O6L 1_555 1_555
Mg4L O4L 1_555 1_555
O1L H8L 1_555 1_555
O2L Mg1L 1_555 1_555
O3L Mg1L 1_555 1_555
O4L H10L 1_555 1_555
O5L C5L 1_555 1_555
O6L Mg1L 1_555 1_555
O7L C7L 1_555 1_555
O8L Mg2L 1_555 1_555
O9L Mg1G 1_555 1_555
O10L P1L 1_555 1_555
O11L Mg3 1_555 1_555
C1L H1L 1_555 1_555
C2L C1L 1_555 1_555
C3L O2L 1_555 1_555
C4L N1L 1_555 1_555
H2L C4L 1_555 1_555
H3L C4L 1_555 1_555
C5L O6L 1_555 1_555
C6L N1L 1_555 1_555
H4L C6L 1_555 1_555
H5L C6L 1_555 1_555
C7L O8L 1_555 1_555
C8L N1L 1_555 1_555
H6L C8L 1_555 1_555
H7L C8L 1_555 1_555
H9L O1L 1_555 1_555
H11L O4L 1_555 1_555
O2P C3P 1_555 1_555
O3P C3P 1_555 1_555
C1P C2L 1_555 1_555
H1P C1P 1_555 1_555
C2P C1P 1_555 1_555
C3P C2P 1_555 1_555
O2T C3T 1_555 1_555
O3T C3T 1_555 1_555
C1T C2P 1_555 1_555
H1T C1T 1_555 1_555
C2T C1L 1_555 1_555
C3T C2T 1_555 1_555
N1T Mg2T 1_555 1_555
P1T O9T 1_555 1_555
Mg1T O2T 1_555 1_555
Mg2T O6T 1_555 1_555
O1T Mg1T 1_555 1_555
O5T C5T 1_555 1_555
O6T Mg1T 1_555 1_555
O7T C7T 1_555 1_555
O8T Mg2T 1_555 1_555
O9T Mg1C 1_555 1_555
O10T P1T 1_555 1_555
O11T P1T 1_555 1_555
C4T N1T 1_555 1_555
H2T C4T 1_555 1_555
H3T C4T 1_555 1_555
C5T O6T 1_555 1_555
C6T N1T 1_555 1_555
H4T C6T 1_555 1_555
H5T C6T 1_555 1_555
C7T O8T 1_555 1_555
C8T N1T 1_555 1_555
H6T C8T 1_555 1_555
H7T C8T 1_555 1_555
H8T O1T 1_555 1_555
H9T O1T 1_555 1_555
N1S Mg2S 1_555 1_555
P1S O9S 1_555 1_555
Mg1S O1S 1_555 1_555
Mg2S O9 1_555 1_555
O1S H8S 1_555 1_555
O5S C5S 1_555 1_555
O6S Mg1S 1_555 1_555
O7S Mg1 1_555 1_555
O8S Mg2 1_555 1_555
O9S Mg1J 1_555 1_555
O10S Mg4L 1_555 1_555
O11S Mg3 1_555 1_555
C4S N1S 1_555 1_555
H2S C4S 1_555 1_555
H3S C4S 1_555 1_555
C5S O6S 1_555 1_555
C6S N1S 1_555 1_555
H4S C6S 1_555 1_555
H5S C6S 1_555 1_555
C7S O7S 1_555 1_555
C8S N1S 1_555 1_555
H6S C8S 1_555 1_555
H7S C8S 1_555 1_555
H9S O1S 1_555 1_555
O4G Mg4 1_555 1_555
H10G O4G 1_555 1_555
H11G O4G 1_555 1_555
O4J Mg4 1_555 1_555
H10J O4J 1_555 1_555
H11J O4J 1_555 1_555
O4S Mg4L 1_555 1_555
H10S O4S 1_555 1_555
H11S O4S 1_555 1_555
O4V Mg4L 1_555 1_555
H10V O4V 1_555 1_555
H11V O4V 1_555 1_555
Mg1F O7T 1_555 1_555
Mg1J O7L 1_555 1_555
Mg1N O7D 1_555 1_555
Mg1P O2P 1_555 1_555
Mg1R O7H 1_555 1_555
Mg1V O7 1_555 1_555
Mg2C O9T 1_555 1_555
Mg2F O8T 1_555 1_555
Mg2G O9L 1_555 1_555
Mg2J O8L 1_555 1_555
Mg2N O8D 1_555 1_555
Mg2O O9H 1_555 1_555
Mg2R O8H 1_555 1_555
Mg2V O8 1_555 1_555
Mg2W O9D 1_555 1_555
Mg3B O11D 1_555 1_555
Mg3C O11T 1_555 1_555
Mg3C_2 O11H 1_555 1_555
Mg4B O10D 1_555 1_555
Mg4C O10H 1_555 1_555
Mg4O O10T 1_555 1_555
O2S Mg1S 1_555 1_555
O3S Mg1S 1_555 1_555
O7C Mg1T 1_555 1_555
O7G Mg1L 1_555 1_555
O7J Mg1S 1_555 1_555
O7O Mg1H 1_555 1_555
O7W Mg1D 1_555 1_555
O8C Mg2T 1_555 1_555
O8G Mg2L 1_555 1_555
O8J Mg2S 1_555 1_555
O8O Mg2H 1_555 1_555
O8W Mg2D 1_555 1_555
O9F Mg1T 1_555 1_555
O9J Mg1L 1_555 1_555
O9N Mg1D 1_555 1_555
O9R Mg1H 1_555 1_555
O9V Mg1 1_555 1_555
O10G Mg4 1_555 1_555
O10J Mg4 1_555 1_555
O10V Mg4L 1_555 1_555
O11G Mg3 1_555 1_555
O11J Mg3 1_555 1_555
O11V Mg3 1_555 1_555
P1 C8 1_555 1_555
Mg2 O11 1_555 1_555
Mg2 O9V 1_555 1_555
Mg4 O10 1_555 1_555
O3 C3 1_555 1_555
C2 C3 1_555 1_555
C4 C5 1_555 1_555
C6 C7 1_555 1_555
O3D Mg1D 1_555 1_555
O3H Mg1H 1_555 1_555
C1H C2H 1_555 1_555
P1D C8D 1_555 1_555
Mg2D O11D 1_555 1_555
Mg2D O9N 1_555 1_555
C4D C5D 1_555 1_555
C6D C7D 1_555 1_555
P1H C8H 1_555 1_555
Mg2H O11H 1_555 1_555
Mg2H O9R 1_555 1_555
C4H C5H 1_555 1_555
C6H C7H 1_555 1_555
P1L O11L 1_555 1_555
P1L C8L 1_555 1_555
Mg2L O11L 1_555 1_555
Mg2L O9J 1_555 1_555
Mg4L O10L 1_555 1_555
O3L C3L 1_555 1_555
C2L C3L 1_555 1_555
C4L C5L 1_555 1_555
C6L C7L 1_555 1_555
O3P Mg1P 1_555 1_555
O3T Mg1T 1_555 1_555
C1T C2T 1_555 1_555
P1T C8T 1_555 1_555
Mg2T O11T 1_555 1_555
Mg2T O9F 1_555 1_555
C4T C5T 1_555 1_555
C6T C7T 1_555 1_555
P1S O10S 1_555 1_555
P1S O11S 1_555 1_555
P1S C8S 1_555 1_555
Mg2S O6S 1_555 1_555
Mg2S O8S 1_555 1_555
Mg2S O11S 1_555 1_555
O8S C7S 1_555 1_555
O9S Mg2J 1_555 1_555
C4S C5S 1_555 1_555
C6S C7S 1_555 1_555
Mg2C O8C 1_555 1_555
Mg2G O8G 1_555 1_555
Mg2G O11G 1_555 1_555
Mg2J O8J 1_555 1_555
Mg2J O11J 1_555 1_555
Mg2O O8O 1_555 1_555
Mg2V O11V 1_555 1_555
Mg2W O8W 1_555 1_555

#END
