
#######################################################################
#
#                 Cambridge Crystallographic Data Centre
#                                CCDC 
#
#######################################################################
#
# If this CIF has been generated from an entry in the Cambridge 
# Structural Database, then it will include bibliographic, chemical, 
# crystal, experimental, refinement or atomic coordinate data resulting 
# from the CCDC's data processing and validation procedures.
#
#######################################################################

data_GUHNUU
_symmetry_cell_setting           monoclinic
_symmetry_space_group_name_H-M   'C 2/c'
_symmetry_Int_Tables_number      15
_space_group_name_Hall           '-C 2yn'
loop_
_symmetry_equiv_pos_site_id
_symmetry_equiv_pos_as_xyz
1 x,y,z
2 -x,y,1/2-z
3 1/2+x,1/2+y,z
4 1/2-x,1/2+y,1/2-z
5 -x,-y,-z
6 x,-y,1/2+z
7 1/2-x,1/2-y,-z
8 1/2+x,1/2-y,1/2+z
_cell_length_a                   32.985(7)
_cell_length_b                   8.9901(19)
_cell_length_c                   34.432(7)
_cell_angle_alpha                90
_cell_angle_beta                 115.591(2)
_cell_angle_gamma                90
_cell_volume                     9208.77
loop_
_atom_site_label
_atom_site_type_symbol
_atom_site_fract_x
_atom_site_fract_y
_atom_site_fract_z
La1 La -0.003603(11) -0.35750(4) 0.119026(9)
O1 O 0.04928(16) -0.1810(5) 0.17394(12)
O2 O 0.03234(14) -0.3782(5) 0.20213(12)
O3 O 0.42873(15) 1.0179(6) 0.36586(13)
O4 O 0.46766(16) 1.0974(6) 0.43149(14)
O5 O 0.42924(14) 0.9069(5) 0.54928(12)
O6 O 0.36753(18) 0.7689(8) 0.52932(14)
H1 H 0.3782 0.7444 0.5547
O7 O 0.06515(15) -0.2990(6) 0.36154(14)
O8 O -0.0203(2) -0.1138(6) 0.08220(18)
O9 O -0.02051(18) -0.6123(5) 0.12749(17)
O10 O 0.1333(2) -0.2248(9) 0.40144(15)
N1 N 0.1717(3) 0.0828(9) 0.3008(2)
H2 H 0.1852 0.1223 0.3259
N2 N 0.3157(3) 0.6578(8) 0.3754(2)
H3 H 0.2988 0.6126 0.3848
N3 N -0.0342(3) -0.7927(9) 0.1641(2)
N4 N -0.0290(3) 0.1032(9) 0.0462(2)
C1 C 0.3082(2) 0.6280(8) 0.33175(19)
H4 H 0.3364 0.6031 0.3309
H5 H 0.2960 0.7158 0.3142
C2 C 0.2754(2) 0.4992(7) 0.31402(18)
C3 C 0.2293(2) 0.5278(7) 0.29424(18)
C4 C 0.1988(2) 0.4092(7) 0.27854(19)
C5 C 0.2156(2) 0.2632(7) 0.28328(18)
C6 C 0.2622(2) 0.2344(7) 0.30426(18)
C7 C 0.2923(2) 0.3540(8) 0.3195(2)
C8 C 0.1824(2) 0.1362(7) 0.26675(19)
H6 H 0.1552 0.1698 0.2427
H7 H 0.1953 0.0561 0.2568
C9 C 0.1488(2) 0.4377(10) 0.2579(3)
H8 H 0.1428 0.5308 0.2680
H9 H 0.1338 0.3590 0.2655
H10 H 0.1380 0.4412 0.2272
C10 C 0.2116(3) 0.6850(8) 0.2910(3)
H11 H 0.2342 0.7542 0.2920
H12 H 0.2041 0.7038 0.3145
H13 H 0.1852 0.6966 0.2642
C11 C 0.3424(3) 0.3222(10) 0.3419(3)
H14 H 0.3556 0.3401 0.3223
H15 H 0.3471 0.2202 0.3511
H16 H 0.3562 0.3861 0.3665
C12 C 0.2790(3) 0.0768(9) 0.3106(2)
H17 H 0.2548 0.0111 0.2938
H18 H 0.2902 0.0508 0.3405
H19 H 0.3026 0.0676 0.3016
C13 C 0.1409(2) -0.0287(7) 0.29484(18)
C14 C 0.11320(19) -0.0859(7) 0.25493(18)
H20 H 0.1154 -0.0499 0.2306
C15 C 0.08213(19) -0.1958(7) 0.25046(17)
C16 C 0.07773(19) -0.2510(7) 0.28628(17)
H21 H 0.0565 -0.3236 0.2833
C17 C 0.1060(2) -0.1945(7) 0.32647(18)
C18 C 0.1372(2) -0.0870(7) 0.33062(19)
H22 H 0.1563 -0.0526 0.3579
C19 C 0.05273(19) -0.2550(7) 0.20613(17)
C20 C 0.43592(19) 1.0211(7) 0.40461(17)
C21 C 0.40731(19) 0.9308(7) 0.41928(17)
C22 C 0.4161(2) 0.9301(7) 0.46256(17)
H23 H 0.4393 0.9871 0.4825
C23 C 0.3890(2) 0.8411(7) 0.47565(18)
C24 C 0.3555(2) 0.7553(8) 0.44624(18)
H24 H 0.3377 0.6980 0.4553
C25 C 0.3475(2) 0.7519(7) 0.40293(18)
C26 C 0.3738(2) 0.8420(7) 0.38974(18)
H25 H 0.3688 0.8424 0.3610
C27 C 0.3971(2) 0.8413(7) 0.52199(19)
C28 C 0.1000(2) -0.2450(8) 0.36512(19)
C29 C -0.0047(3) -0.0124(10) 0.0690(3)
C30 C -0.0073(3) -0.7216(10) 0.1517(3)
C31 C -0.0794(4) -0.7243(13) 0.1467(4)
H26 H -0.0846 -0.6835 0.1700
H27 H -0.1017 -0.7985 0.1320
H28 H -0.0812 -0.6464 0.1270
C32 C -0.0252(4) -0.9233(12) 0.1908(4)
H29 H -0.0341 -1.0103 0.1729
H30 H -0.0419 -0.9181 0.2078
H31 H 0.0063 -0.9286 0.2096
C33 C 0.0387(3) -0.7907(12) 0.1746(4)
H32 H 0.0609 -0.7226 0.1743
H33 H 0.0398 -0.8810 0.1602
H34 H 0.0445 -0.8124 0.2038
C34 C 0.0439(3) 0.0068(13) 0.0751(4)
H35 H 0.0553 0.1009 0.0886
H36 H 0.0446 0.0033 0.0475
H37 H 0.0621 -0.0719 0.0930
C35 C -0.0749(4) 0.0872(14) 0.0437(4)
H38 H -0.0942 0.0411 0.0169
H39 H -0.0866 0.1836 0.0454
H40 H -0.0737 0.0266 0.0671
C36 C -0.0159(4) 0.2287(12) 0.0289(4)
H41 H -0.0272 0.3180 0.0359
H42 H -0.0279 0.2190 -0.0019
H43 H 0.0163 0.2333 0.0409
La1A La 0.003603(11) -0.35750(4) 0.380974(9)
La1C La 0.503603(11) 1.14250(4) 0.380974(9)
La1G La 0.496397(11) 0.85750(4) 0.619026(9)
O3C O 0.07127(15) -0.4821(6) 0.13414(13)
O4C O 0.03234(16) -0.4026(6) 0.06851(14)
O5G O -0.07076(14) -0.4069(5) 0.04928(12)
O7A O -0.06515(15) -0.2990(6) 0.13846(14)
loop_
_geom_bond_atom_site_label_1
_geom_bond_atom_site_label_2
_geom_bond_site_symmetry_1
_geom_bond_site_symmetry_2
La1 O1 1_555 1_555
O1 C19 1_555 1_555
O2 La1 1_555 1_555
O3 C20 1_555 1_555
O4 C20 1_555 1_555
O5 C27 1_555 1_555
O6 H1 1_555 1_555
O7 C28 1_555 1_555
O8 La1 1_555 1_555
O9 La1 1_555 1_555
O10 C28 1_555 1_555
N1 H2 1_555 1_555
N2 H3 1_555 1_555
N3 C30 1_555 1_555
N4 C29 1_555 1_555
C1 N2 1_555 1_555
H4 C1 1_555 1_555
H5 C1 1_555 1_555
C2 C1 1_555 1_555
C3 C2 1_555 1_555
C4 C3 1_555 1_555
C5 C4 1_555 1_555
C6 C5 1_555 1_555
C7 C2 1_555 1_555
C8 N1 1_555 1_555
H6 C8 1_555 1_555
H7 C8 1_555 1_555
C9 C4 1_555 1_555
H8 C9 1_555 1_555
H9 C9 1_555 1_555
H10 C9 1_555 1_555
C10 C3 1_555 1_555
H11 C10 1_555 1_555
H12 C10 1_555 1_555
H13 C10 1_555 1_555
C11 C7 1_555 1_555
H14 C11 1_555 1_555
H15 C11 1_555 1_555
H16 C11 1_555 1_555
C12 C6 1_555 1_555
H17 C12 1_555 1_555
H18 C12 1_555 1_555
H19 C12 1_555 1_555
C13 N1 1_555 1_555
C14 C13 1_555 1_555
H20 C14 1_555 1_555
C15 C14 1_555 1_555
C16 C15 1_555 1_555
H21 C16 1_555 1_555
C17 C16 1_555 1_555
C18 C13 1_555 1_555
H22 C18 1_555 1_555
C19 O2 1_555 1_555
C20 C21 1_555 1_555
C21 C22 1_555 1_555
C22 H23 1_555 1_555
C23 C22 1_555 1_555
C24 C23 1_555 1_555
H24 C24 1_555 1_555
C25 N2 1_555 1_555
C26 C21 1_555 1_555
H25 C26 1_555 1_555
C27 O6 1_555 1_555
C28 C17 1_555 1_555
C29 O8 1_555 1_555
C30 O9 1_555 1_555
C31 N3 1_555 1_555
H26 C31 1_555 1_555
H27 C31 1_555 1_555
H28 C31 1_555 1_555
C32 N3 1_555 1_555
H29 C32 1_555 1_555
H30 C32 1_555 1_555
H31 C32 1_555 1_555
C33 C30 1_555 1_555
H32 C33 1_555 1_555
H33 C33 1_555 1_555
H34 C33 1_555 1_555
C34 C29 1_555 1_555
H35 C34 1_555 1_555
H36 C34 1_555 1_555
H37 C34 1_555 1_555
C35 N4 1_555 1_555
H38 C35 1_555 1_555
H39 C35 1_555 1_555
H40 C35 1_555 1_555
C36 N4 1_555 1_555
H41 C36 1_555 1_555
H42 C36 1_555 1_555
H43 C36 1_555 1_555
La1A O7 1_555 1_555
La1C O3 1_555 1_555
La1G O5 1_555 1_555
O3C La1 1_555 1_555
O4C La1 1_555 1_555
O5G La1 1_555 1_555
O7A La1 1_555 1_555
O4 La1C 1_555 1_555
C5 C8 1_555 1_555
C6 C7 1_555 1_555
C15 C19 1_555 1_555
C17 C18 1_555 1_555
C23 C27 1_555 1_555
C24 C25 1_555 1_555
C25 C26 1_555 1_555

#END
