
#######################################################################
#
#                 Cambridge Crystallographic Data Centre
#                                CCDC 
#
#######################################################################
#
# If this CIF has been generated from an entry in the Cambridge 
# Structural Database, then it will include bibliographic, chemical, 
# crystal, experimental, refinement or atomic coordinate data resulting 
# from the CCDC's data processing and validation procedures.
#
#######################################################################

data_GUHPAC
_symmetry_cell_setting           monoclinic
_symmetry_space_group_name_H-M   'C 2/c'
_symmetry_Int_Tables_number      15
_space_group_name_Hall           '-C 2yn'
loop_
_symmetry_equiv_pos_site_id
_symmetry_equiv_pos_as_xyz
1 x,y,z
2 -x,y,1/2-z
3 1/2+x,1/2+y,z
4 1/2-x,1/2+y,1/2-z
5 -x,-y,-z
6 x,-y,1/2+z
7 1/2-x,1/2-y,-z
8 1/2+x,1/2-y,1/2+z
_cell_length_a                   32.84(3)
_cell_length_b                   8.998(8)
_cell_length_c                   34.21(3)
_cell_angle_alpha                90
_cell_angle_beta                 115.564(11)
_cell_angle_gamma                90
_cell_volume                     9119.24
loop_
_atom_site_label
_atom_site_type_symbol
_atom_site_fract_x
_atom_site_fract_y
_atom_site_fract_z
Sm1 Sm 0.003808(16) 0.85755(6) -0.118967(14)
O1 O 0.0685(2) 0.9135(8) -0.05094(18)
O2 O 0.1309(3) 0.7711(11) -0.0305(2)
O3 O 0.0298(2) 1.0986(8) 0.06839(19)
O4 O 0.0705(2) 1.0290(8) 0.13444(18)
O5 O 0.4532(2) -0.1824(8) 0.32786(18)
O6 O 0.4689(2) -0.3829(8) 0.30034(18)
O7 O 0.4388(2) -0.2953(8) 0.1394(2)
O8 O 0.0217(2) 0.6220(9) -0.0821(2)
O9 O 0.0216(2) 1.1004(8) -0.1262(2)
O10 O 0.3684(3) -0.2296(14) 0.0996(2)
H1 H 0.3735 -0.2636 0.0799
N1 N 0.3306(3) 0.0820(12) 0.2000(3)
H2 H 0.3176 0.1218 0.1748
N2 N 0.1833(3) 0.6599(11) 0.1247(2)
H3 H 0.1999 0.6140 0.1149
N3 N 0.0327(5) 0.4002(15) -0.0474(4)
N4 N 0.0352(5) 1.2847(15) -0.1641(4)
C1 C 0.4028(4) -0.2481(13) 0.1356(3)
C2 C 0.3973(3) -0.1920(12) 0.1755(3)
C3 C 0.4245(3) -0.2521(12) 0.2154(3)
H4 H 0.4450 -0.3274 0.2182
C4 C 0.4202(3) -0.1961(12) 0.2511(3)
C5 C 0.3893(3) -0.0872(11) 0.2471(3)
H5 H 0.3868 -0.0526 0.2716
C6 C 0.3612(3) -0.0272(12) 0.2057(3)
C7 C 0.3648(3) -0.0878(12) 0.1702(3)
H6 H 0.3451 -0.0577 0.1425
C8 C 0.4496(3) -0.2589(13) 0.2960(3)
C9 C 0.3180(3) 0.1375(12) 0.2335(3)
H7 H 0.3448 0.1723 0.2581
H8 H 0.3051 0.0570 0.2434
C10 C 0.2842(3) 0.2632(13) 0.2168(3)
C11 C 0.2377(3) 0.2328(13) 0.1951(3)
C12 C 0.2080(3) 0.3567(13) 0.1802(3)
C13 C 0.2242(3) 0.5001(13) 0.1859(3)
C14 C 0.2705(3) 0.5297(13) 0.2052(3)
C15 C 0.3005(3) 0.4117(13) 0.2210(3)
C16 C 0.2206(4) 0.0754(13) 0.1889(3)
H9 H 0.2124 0.0451 0.1595
H10 H 0.1946 0.0695 0.1948
H11 H 0.2438 0.0110 0.2083
C17 C 0.1575(3) 0.3250(13) 0.1581(3)
H12 H 0.1451 0.3352 0.1787
H13 H 0.1526 0.2255 0.1468
H14 H 0.1430 0.3941 0.1348
C18 C 0.3517(3) 0.4440(14) 0.2409(4)
H15 H 0.3680 0.3522 0.2453
H16 H 0.3606 0.4937 0.2682
H17 H 0.3583 0.5063 0.2216
C19 C 0.1911(3) 0.6305(12) 0.1685(3)
H18 H 0.1628 0.6059 0.1697
H19 H 0.2036 0.7179 0.1863
C20 C 0.1514(3) 0.7554(12) 0.0972(3)
C21 C 0.1436(3) 0.7601(12) 0.0538(3)
H20 H 0.1617 0.7046 0.0445
C22 C 0.1088(3) 0.8473(12) 0.0241(3)
C23 C 0.0821(3) 0.9356(12) 0.0371(3)
H21 H 0.0593 0.9947 0.0173
C24 C 0.0906(3) 0.9326(12) 0.0805(3)
C25 C 0.1248(3) 0.8461(12) 0.1101(3)
H22 H 0.1302 0.8481 0.1391
C26 C 0.1012(4) 0.8443(13) -0.0233(3)
C27 C 0.0632(3) 1.0300(12) 0.0960(3)
C28 C 0.2887(4) 0.6860(12) 0.2091(4)
H23 H 0.2645 0.7524 0.1924
H24 H 0.3113 0.6889 0.1983
H25 H 0.3018 0.7158 0.2389
C29 C 0.0057(4) 0.5168(14) -0.0692(4)
C30 C -0.0431(4) 0.5000(16) -0.0756(5)
H26 H -0.0610 0.5791 -0.0937
H27 H -0.0441 0.5040 -0.0480
H28 H -0.0548 0.4062 -0.0892
C31 C 0.0154(5) 0.2804(17) -0.0314(5)
H29 H -0.0165 0.2938 -0.0407
H30 H 0.0303 0.2793 -0.0003
H31 H 0.0206 0.1879 -0.0424
C32 C 0.0781(5) 0.4188(18) -0.0439(5)
H32 H 0.0896 0.3242 -0.0474
H33 H 0.0973 0.4589 -0.0160
H34 H 0.0774 0.4856 -0.0661
C33 C 0.0083(5) 1.2117(13) -0.1492(4)
C34 C -0.0370(4) 1.2860(16) -0.1731(5)
H35 H -0.0549 1.2705 -0.1575
H36 H -0.0521 1.2441 -0.2016
H37 H -0.0327 1.3906 -0.1753
C35 C 0.0237(5) 1.4146(16) -0.1908(5)
H38 H 0.0190 1.4964 -0.1752
H39 H -0.0034 1.3964 -0.2166
H40 H 0.0478 1.4381 -0.1985
C36 C 0.0804(5) 1.2208(18) -0.1450(5)
H41 H 0.0788 1.1187 -0.1376
H42 H 0.0991 1.2752 -0.1194
H43 H 0.0931 1.2262 -0.1655
Sm1D Sm -0.003808(16) 1.14245(6) 0.118967(14)
Sm1F Sm 0.496192(16) -0.35755(6) 0.118967(14)
Sm1G Sm 0.503808(16) -0.35755(6) 0.381033(14)
O3D O -0.0298(2) 0.9014(8) -0.06839(19)
O4D O -0.0705(2) 0.9710(8) -0.13444(18)
O5G O -0.0468(2) 0.6824(8) -0.17214(18)
O6G O -0.0311(2) 0.8829(8) -0.19966(18)
O7F O 0.0612(2) 0.7953(8) -0.1394(2)
loop_
_geom_bond_atom_site_label_1
_geom_bond_atom_site_label_2
_geom_bond_site_symmetry_1
_geom_bond_site_symmetry_2
Sm1 O1 1_555 1_555
O1 C26 1_555 1_555
O2 C26 1_555 1_555
O3 C27 1_555 1_555
O4 C27 1_555 1_555
O5 C8 1_555 1_555
O6 C8 1_555 1_555
O7 C1 1_555 1_555
O8 Sm1 1_555 1_555
O9 Sm1 1_555 1_555
O10 H1 1_555 1_555
N1 H2 1_555 1_555
N2 H3 1_555 1_555
N3 C29 1_555 1_555
N4 C33 1_555 1_555
C1 O10 1_555 1_555
C2 C1 1_555 1_555
C3 C2 1_555 1_555
H4 C3 1_555 1_555
C4 C3 1_555 1_555
C5 C4 1_555 1_555
H5 C5 1_555 1_555
C6 N1 1_555 1_555
C7 C2 1_555 1_555
H6 C7 1_555 1_555
C8 C4 1_555 1_555
C9 N1 1_555 1_555
H7 C9 1_555 1_555
H8 C9 1_555 1_555
C10 C9 1_555 1_555
C11 C10 1_555 1_555
C12 C11 1_555 1_555
C13 C12 1_555 1_555
C14 C13 1_555 1_555
C15 C10 1_555 1_555
C16 C11 1_555 1_555
H9 C16 1_555 1_555
H10 C16 1_555 1_555
H11 C16 1_555 1_555
C17 C12 1_555 1_555
H12 C17 1_555 1_555
H13 C17 1_555 1_555
H14 C17 1_555 1_555
C18 C15 1_555 1_555
H15 C18 1_555 1_555
H16 C18 1_555 1_555
H17 C18 1_555 1_555
C19 N2 1_555 1_555
H18 C19 1_555 1_555
H19 C19 1_555 1_555
C20 N2 1_555 1_555
C21 C20 1_555 1_555
H20 C21 1_555 1_555
C22 C21 1_555 1_555
C23 C22 1_555 1_555
H21 C23 1_555 1_555
C24 C23 1_555 1_555
C25 C20 1_555 1_555
H22 C25 1_555 1_555
C26 C22 1_555 1_555
C27 C24 1_555 1_555
C28 C14 1_555 1_555
H23 C28 1_555 1_555
H24 C28 1_555 1_555
H25 C28 1_555 1_555
C29 O8 1_555 1_555
C30 C29 1_555 1_555
H26 C30 1_555 1_555
H27 C30 1_555 1_555
H28 C30 1_555 1_555
C31 N3 1_555 1_555
H29 C31 1_555 1_555
H30 C31 1_555 1_555
H31 C31 1_555 1_555
C32 N3 1_555 1_555
H32 C32 1_555 1_555
H33 C32 1_555 1_555
H34 C32 1_555 1_555
C33 O9 1_555 1_555
C34 C33 1_555 1_555
H35 C34 1_555 1_555
H36 C34 1_555 1_555
H37 C34 1_555 1_555
C35 N4 1_555 1_555
H38 C35 1_555 1_555
H39 C35 1_555 1_555
H40 C35 1_555 1_555
C36 N4 1_555 1_555
H41 C36 1_555 1_555
H42 C36 1_555 1_555
H43 C36 1_555 1_555
Sm1D O3 1_555 1_555
Sm1F O7 1_555 1_555
Sm1G O5 1_555 1_555
O3D Sm1 1_555 1_555
O4D Sm1 1_555 1_555
O5G Sm1 1_555 1_555
O6G Sm1 1_555 1_555
O7F Sm1 1_555 1_555
O4 Sm1D 1_555 1_555
O6 Sm1G 1_555 1_555
C5 C6 1_555 1_555
C6 C7 1_555 1_555
C13 C19 1_555 1_555
C14 C15 1_555 1_555
C24 C25 1_555 1_555

#END
