
#######################################################################
#
#                 Cambridge Crystallographic Data Centre
#                                CCDC 
#
#######################################################################
#
# If this CIF has been generated from an entry in the Cambridge 
# Structural Database, then it will include bibliographic, chemical, 
# crystal, experimental, refinement or atomic coordinate data resulting 
# from the CCDC's data processing and validation procedures.
#
#######################################################################

data_GUHPIK
_symmetry_cell_setting           triclinic
_symmetry_space_group_name_H-M   'P -1'
_symmetry_Int_Tables_number      2
_space_group_name_Hall           '-P 1'
loop_
_symmetry_equiv_pos_site_id
_symmetry_equiv_pos_as_xyz
1 x,y,z
2 -x,-y,-z
_cell_length_a                   10.9298(5)
_cell_length_b                   14.6132(7)
_cell_length_c                   18.2117(7)
_cell_angle_alpha                68.057(4)
_cell_angle_beta                 76.895(4)
_cell_angle_gamma                73.529(4)
_cell_volume                     2563.36
loop_
_atom_site_label
_atom_site_type_symbol
_atom_site_fract_x
_atom_site_fract_y
_atom_site_fract_z
Zn1 Zn 0.53722(4) 0.39061(2) 1.00936(2)
Zn2 Zn 0.53051(4) 0.97261(2) 0.42407(2)
C1 C 0.7351(3) 0.4974(3) 1.0041(2)
C2 C 0.8718(3) 0.4969(2) 1.0039(2)
C3 C 0.9629(4) 0.4075(2) 1.0298(2)
C4 C 0.9116(3) 0.5885(3) 0.9739(2)
H1 H 0.8513 0.6485 0.9560
C5 C 0.9296(4) 0.3045(3) 1.0669(3)
C6 C 0.8752(4) 0.2740(3) 1.1528(2)
C7 C 0.8448(4) 0.3398(3) 1.1949(3)
H2 H 0.8553 0.4058 1.1688
C8 C 0.7985(5) 0.3092(4) 1.2764(3)
H3 H 0.7773 0.3544 1.3045
C9 C 0.7846(5) 0.2117(4) 1.3141(3)
H4 H 0.7541 0.1903 1.3684
C10 C 0.8148(6) 0.1461(4) 1.2731(4)
H5 H 0.8049 0.0800 1.2997
C11 C 0.8604(5) 0.1756(3) 1.1923(3)
H6 H 0.8810 0.1298 1.1647
C12 C 0.5440(3) 0.5497(2) 0.84802(19)
C13 C 0.5342(3) 0.8131(2) 0.5808(2)
C14 C 0.5626(3) 0.5751(2) 0.76035(19)
C15 C 0.5449(3) 0.6751(2) 0.71226(19)
H7 H 0.5238 0.7251 0.7358
C16 C 0.5578(3) 0.7033(2) 0.62980(19)
C17 C 0.5918(4) 0.6276(2) 0.5943(2)
C18 C 0.6114(4) 0.5272(2) 0.6428(2)
H8 H 0.6348 0.4769 0.6194
C19 C 0.5972(4) 0.4998(2) 0.7248(2)
C20 C 0.6005(4) 0.6498(2) 0.5054(2)
C21 C 0.4797(4) 0.6659(3) 0.4749(2)
C22 C 0.4677(5) 0.7223(3) 0.3950(3)
H9 H 0.5360 0.7491 0.3612
C23 C 0.3542(7) 0.7384(4) 0.3662(4)
H10 H 0.3458 0.7774 0.3132
C24 C 0.2563(6) 0.6985(4) 0.4136(4)
H11 H 0.1806 0.7101 0.3931
C25 C 0.2664(5) 0.6400(4) 0.4929(4)
H12 H 0.1991 0.6107 0.5252
C26 C 0.3770(5) 0.6262(3) 0.5229(3)
H13 H 0.3830 0.5893 0.5765
C27 C 0.6183(4) 0.3878(2) 0.7723(2)
C28 C 0.5046(5) 0.3419(2) 0.8019(2)
C29 C 0.3809(5) 0.3996(3) 0.7949(3)
H14 H 0.3678 0.4695 0.7717
C30 C 0.2761(6) 0.3546(4) 0.8222(4)
H15 H 0.1930 0.3940 0.8176
C31 C 0.2953(8) 0.2519(5) 0.8558(4)
H16 H 0.2250 0.2215 0.8748
C32 C 0.4181(8) 0.1931(4) 0.8619(4)
H17 H 0.4305 0.1231 0.8834
C33 C 0.5231(6) 0.2375(3) 0.8364(3)
H18 H 0.6057 0.1977 0.8423
C34 C 0.7313(4) 0.9950(2) 0.5216(2)
C35 C 0.8701(3) 0.9944(2) 0.5135(2)
C36 C 0.9685(3) 0.9141(2) 0.5012(2)
C37 C 0.9043(3) 1.0797(2) 0.5126(2)
H19 H 0.8402 1.1334 0.5214
C38 C 0.9412(4) 0.8156(3) 0.5064(3)
C39 C 0.9102(4) 0.7442(3) 0.5884(3)
C40 C 0.8884(6) 0.7707(4) 0.6557(4)
H20 H 0.8879 0.8365 0.6508
C41 C 0.8670(6) 0.7013(5) 0.7307(4)
H21 H 0.8488 0.7203 0.7761
C42 C 0.8731(7) 0.6045(5) 0.7369(5)
H22 H 0.8624 0.5570 0.7875
C43 C 0.8935(6) 0.5755(4) 0.6745(4)
H23 H 0.8962 0.5086 0.6813
C44 C 0.9114(5) 0.6460(4) 0.5962(4)
H24 H 0.9237 0.6266 0.5514
C45 C 0.7501(4) 0.8689(2) 0.3382(2)
H25 H 0.7759 0.8250 0.3870
C46 C 0.6456(4) 0.9795(3) 0.2500(2)
H26 H 0.5795 1.0304 0.2257
C47 C 0.9488(4) 0.8151(3) 0.2491(3)
H27 H 0.9457 0.7779 0.2155
H28 H 0.9797 0.7667 0.2981
C48 C 1.0402(4) 0.8851(3) 0.2067(3)
C49 C 1.0796(4) 0.9060(3) 0.1252(2)
H29 H 1.0485 0.8770 0.0977
C50 C 1.1635(4) 0.9686(3) 0.0842(3)
C51 C 1.2098(5) 1.0090(3) 0.1260(4)
H30 H 1.2680 1.0504 0.0994
C52 C 1.1716(6) 0.9894(4) 0.2074(4)
H31 H 1.2028 1.0186 0.2348
C53 C 1.0874(5) 0.9268(3) 0.2475(3)
H32 H 1.0626 0.9126 0.3022
C54 C 1.2051(5) 0.9880(3) -0.0041(3)
H33 H 1.1322 0.9952 -0.0294
H34 H 1.2351 1.0506 -0.0278
C55 C 1.3025(4) 0.8117(3) -0.0073(3)
H35 H 1.2265 0.7885 0.0083
C56 C 1.4903(4) 0.8230(3) -0.0427(3)
H36 H 1.5788 0.8060 -0.0575
N1 N 0.6402(3) 0.93569(19) 0.32961(16)
N2 N 0.7523(4) 0.9443(3) 0.20945(19)
N3 N 0.8185(3) 0.8731(2) 0.26787(18)
N4 N 1.3094(3) 0.9037(2) -0.01802(19)
N5 N 1.4157(3) 0.75682(18) -0.02130(16)
N6 N 1.4304(4) 0.9132(2) -0.0415(3)
O1 O 0.7107(2) 0.41532(18) 1.01275(16)
O2 O 0.6545(3) 0.5803(2) 0.99540(19)
O3 O 0.9597(3) 0.2464(2) 1.0292(2)
O4 O 0.5659(3) 0.45789(16) 0.88963(13)
O5 O 0.5089(3) 0.62104(17) 0.87532(14)
O6 O 0.5019(2) 0.87615(15) 0.61696(14)
O7 O 0.5447(3) 0.83421(16) 0.50658(14)
O8 O 0.7043(3) 0.6481(2) 0.46335(17)
O9 O 0.7270(3) 0.33760(19) 0.77853(19)
O10 O 0.6990(2) 0.97101(18) 0.47069(15)
O11 O 0.6564(2) 1.02206(18) 0.57675(16)
O12 O 0.9575(3) 0.7936(2) 0.4468(2)
C1A C 1.2649(3) 0.5026(3) 0.9959(2)
C2A C 1.1282(3) 0.5031(2) 0.9961(2)
C3A C 1.0371(4) 0.5925(2) 0.9702(2)
C4A C 1.0884(3) 0.4115(3) 1.0261(2)
H1A H 1.1487 0.3515 1.0440
C5A C 1.0704(4) 0.6955(3) 0.9331(3)
C6A C 1.1248(4) 0.7260(3) 0.8472(2)
C7A C 1.1552(4) 0.6602(3) 0.8051(3)
H2A H 1.1447 0.5942 0.8312
C8A C 1.2015(5) 0.6908(4) 0.7236(3)
H3A H 1.2227 0.6456 0.6955
C9A C 1.2154(5) 0.7883(4) 0.6859(3)
H4A H 1.2459 0.8097 0.6316
C10A C 1.1852(6) 0.8539(4) 0.7269(4)
H5A H 1.1951 0.9200 0.7003
C11A C 1.1396(5) 0.8244(3) 0.8077(3)
H6A H 1.1190 0.8702 0.8353
O1A O 1.2893(2) 0.58468(18) 0.98725(16)
O2A O 1.3455(3) 0.4197(2) 1.00460(19)
O3A O 1.0403(3) 0.7536(2) 0.9708(2)
C34A C 1.2687(4) 1.0050(2) 0.4784(2)
C35A C 1.1299(3) 1.0056(2) 0.4865(2)
C36A C 1.0315(3) 1.0859(2) 0.4988(2)
C37A C 1.0957(3) 0.9203(2) 0.4874(2)
H19A H 1.1598 0.8666 0.4786
C38A C 1.0588(4) 1.1844(3) 0.4936(3)
C39A C 1.0898(4) 1.2558(3) 0.4116(3)
C40A C 1.1116(6) 1.2293(4) 0.3443(4)
H20A H 1.1121 1.1635 0.3492
C41A C 1.1330(6) 1.2987(5) 0.2693(4)
H21A H 1.1512 1.2797 0.2239
C42A C 1.1269(7) 1.3955(5) 0.2631(5)
H22A H 1.1376 1.4430 0.2125
C43A C 1.1065(6) 1.4245(4) 0.3255(4)
H23A H 1.1038 1.4914 0.3187
C44A C 1.0886(5) 1.3540(4) 0.4038(4)
H24A H 1.0763 1.3734 0.4486
O10A O 1.3010(2) 1.02899(18) 0.52931(15)
O11A O 1.3436(2) 0.97794(18) 0.42325(16)
O12A O 1.0425(3) 1.2064(2) 0.5532(2)
Zn1A Zn 0.46278(4) 0.60939(2) 0.99064(2)
Zn2A Zn 0.46949(4) 0.02739(2) 1.57593(2)
C12A C 0.4560(3) 0.4503(2) 1.15198(19)
C13A C 0.4658(3) 0.1869(2) 1.4192(2)
C14A C 0.4374(3) 0.4249(2) 1.23965(19)
C15A C 0.4551(3) 0.3249(2) 1.28774(19)
H7A H 0.4762 0.2749 1.2642
C16A C 0.4422(3) 0.2967(2) 1.37020(19)
C17A C 0.4082(4) 0.3724(2) 1.4057(2)
C18A C 0.3886(4) 0.4728(2) 1.3572(2)
H8A H 0.3652 0.5231 1.3806
C19A C 0.4028(4) 0.5002(2) 1.2752(2)
C20A C 0.3995(4) 0.3502(2) 1.4946(2)
C21A C 0.5203(4) 0.3341(3) 1.5251(2)
C22A C 0.5323(5) 0.2777(3) 1.6050(3)
H9A H 0.4640 0.2509 1.6388
C23A C 0.6458(7) 0.2616(4) 1.6338(4)
H10A H 0.6542 0.2226 1.6868
C24A C 0.7437(6) 0.3015(4) 1.5864(4)
H11A H 0.8194 0.2899 1.6069
C25A C 0.7336(5) 0.3600(4) 1.5071(4)
H12A H 0.8009 0.3893 1.4748
C26A C 0.6230(5) 0.3738(3) 1.4771(3)
H13A H 0.6170 0.4107 1.4235
C27A C 0.3817(4) 0.6122(2) 1.2277(2)
C28A C 0.4954(5) 0.6581(2) 1.1981(2)
C29A C 0.6191(5) 0.6004(3) 1.2051(3)
H14A H 0.6322 0.5305 1.2283
C30A C 0.7239(6) 0.6454(4) 1.1778(4)
H15A H 0.8070 0.6060 1.1824
C31A C 0.7047(8) 0.7481(5) 1.1442(4)
H16A H 0.7750 0.7785 1.1252
C32A C 0.5819(8) 0.8069(4) 1.1381(4)
H17A H 0.5695 0.8769 1.1166
C33A C 0.4769(6) 0.7625(3) 1.1636(3)
H18A H 0.3943 0.8023 1.1577
C45A C 0.2499(4) 0.1311(2) 1.6618(2)
H25A H 0.2241 0.1750 1.6130
C46A C 0.3544(4) 0.0205(3) 1.7500(2)
H26A H 0.4205 -0.0304 1.7743
C47A C 0.0512(4) 0.1849(3) 1.7509(3)
H27A H 0.0543 0.2221 1.7845
H28A H 0.0203 0.2333 1.7019
C48A C -0.0402(4) 0.1149(3) 1.7933(3)
C49A C -0.0796(4) 0.0940(3) 1.8748(2)
H29A H -0.0485 0.1230 1.9023
C50A C -0.1635(4) 0.0314(3) 1.9158(3)
C51A C -0.2098(5) -0.0090(3) 1.8740(4)
H30A H -0.2680 -0.0504 1.9006
C52A C -0.1716(6) 0.0106(4) 1.7926(4)
H31A H -0.2028 -0.0186 1.7652
C53A C -0.0874(5) 0.0732(3) 1.7525(3)
H32A H -0.0626 0.0874 1.6978
C54A C -0.2051(5) 0.0120(3) 2.0041(3)
H33A H -0.1322 0.0048 2.0294
H34A H -0.2351 -0.0506 2.0278
C55A C -0.3025(4) 0.1883(3) 2.0073(3)
H35A H -0.2265 0.2115 1.9917
C56A C -0.4903(4) 0.1770(3) 2.0427(3)
H36A H -0.5788 0.1940 2.0575
N1A N 0.3598(3) 0.06431(19) 1.67039(16)
N2A N 0.2477(4) 0.0557(3) 1.79055(19)
N3A N 0.1815(3) 0.1269(2) 1.73213(18)
N4A N -0.3094(3) 0.0963(2) 2.01802(19)
N5A N -0.4157(3) 0.24318(18) 2.02130(16)
N6A N -0.4304(4) 0.0868(2) 2.0415(3)
O4A O 0.4341(3) 0.54211(16) 1.11037(13)
O5A O 0.4911(3) 0.37896(17) 1.12468(14)
O6A O 0.4981(2) 0.12385(15) 1.38304(14)
O7A O 0.4553(3) 0.16579(16) 1.49342(14)
O8A O 0.2957(3) 0.3519(2) 1.53665(17)
O9A O 0.2730(3) 0.66240(19) 1.22147(19)
Zn1_2 Zn -0.46278(4) 0.39061(2) 2.00936(2)
Zn1_3 Zn 1.53722(4) 0.39061(2) 1.00936(2)
Zn1A_2 Zn 1.46278(4) 0.60939(2) -0.00936(2)
Zn1A_3 Zn 1.46278(4) 0.60939(2) 0.99064(2)
Zn2_2 Zn 0.53051(4) -0.02739(2) 1.42407(2)
Zn2_3 Zn 1.53051(4) 0.97261(2) 0.42407(2)
Zn2A_2 Zn 0.46949(4) 1.02739(2) 0.57593(2)
Zn2A_3 Zn 1.46949(4) 1.02739(2) 0.57593(2)
N5_2 N 0.4157(3) 0.75682(18) 0.97870(16)
N5A_2 N 0.5843(3) 0.24318(18) 1.02130(16)
O1A_2 O 0.2893(2) 0.58468(18) 0.98725(16)
O2A_2 O 0.3455(3) 0.4197(2) 1.00460(19)
O6_2 O 0.5019(2) -0.12385(15) 1.61696(14)
O6A_2 O 0.4981(2) 1.12385(15) 0.38304(14)
O10A_2 O 0.3010(2) 0.02899(18) 1.52931(15)
O11_2 O 0.6564(2) 0.02206(18) 1.57675(16)
O11A_2 O 0.3436(2) 0.97794(18) 0.42325(16)
O13 O 0.0635(6) 0.6575(4) 0.1433(3)
H37 H 0.0678 0.6879 0.0929
H38 H 0.1286 0.6639 0.1585
loop_
_geom_bond_atom_site_label_1
_geom_bond_atom_site_label_2
_geom_bond_site_symmetry_1
_geom_bond_site_symmetry_2
Zn1 O1 1_555 1_555
Zn2 N1 1_555 1_555
C1 C2 1_555 1_555
C2 C3 1_555 1_555
C3 C5 1_555 1_555
C4 C2 1_555 1_555
H1 C4 1_555 1_555
C5 C6 1_555 1_555
C6 C7 1_555 1_555
C7 H2 1_555 1_555
C8 C7 1_555 1_555
H3 C8 1_555 1_555
C9 C8 1_555 1_555
H4 C9 1_555 1_555
C10 C9 1_555 1_555
H5 C10 1_555 1_555
C11 C6 1_555 1_555
H6 C11 1_555 1_555
C12 C14 1_555 1_555
C13 C16 1_555 1_555
C14 C15 1_555 1_555
C15 H7 1_555 1_555
C16 C15 1_555 1_555
C17 C16 1_555 1_555
C18 C17 1_555 1_555
H8 C18 1_555 1_555
C19 C14 1_555 1_555
C20 C17 1_555 1_555
C21 C20 1_555 1_555
C22 C21 1_555 1_555
H9 C22 1_555 1_555
C23 C22 1_555 1_555
H10 C23 1_555 1_555
C24 C23 1_555 1_555
H11 C24 1_555 1_555
C25 C24 1_555 1_555
H12 C25 1_555 1_555
C26 C21 1_555 1_555
H13 C26 1_555 1_555
C27 C19 1_555 1_555
C28 C27 1_555 1_555
C29 C28 1_555 1_555
H14 C29 1_555 1_555
C30 C29 1_555 1_555
H15 C30 1_555 1_555
C31 C30 1_555 1_555
H16 C31 1_555 1_555
C32 C31 1_555 1_555
H17 C32 1_555 1_555
C33 C28 1_555 1_555
H18 C33 1_555 1_555
C34 C35 1_555 1_555
C35 C36 1_555 1_555
C36 C38 1_555 1_555
C37 C35 1_555 1_555
H19 C37 1_555 1_555
C38 C39 1_555 1_555
C39 C40 1_555 1_555
C40 H20 1_555 1_555
C41 C40 1_555 1_555
H21 C41 1_555 1_555
C42 C41 1_555 1_555
H22 C42 1_555 1_555
C43 C42 1_555 1_555
H23 C43 1_555 1_555
C44 C39 1_555 1_555
H24 C44 1_555 1_555
C45 H25 1_555 1_555
C46 H26 1_555 1_555
C47 H27 1_555 1_555
H28 C47 1_555 1_555
C48 C47 1_555 1_555
C49 C48 1_555 1_555
H29 C49 1_555 1_555
C50 C49 1_555 1_555
C51 C50 1_555 1_555
H30 C51 1_555 1_555
C52 C51 1_555 1_555
H31 C52 1_555 1_555
C53 C48 1_555 1_555
H32 C53 1_555 1_555
C54 C50 1_555 1_555
H33 C54 1_555 1_555
H34 C54 1_555 1_555
C55 H35 1_555 1_555
C56 H36 1_555 1_555
N1 C45 1_555 1_555
N2 C46 1_555 1_555
N3 C45 1_555 1_555
N4 C54 1_555 1_555
N5 C55 1_555 1_555
N6 C56 1_555 1_555
O1 C1 1_555 1_555
O2 C1 1_555 1_555
O3 C5 1_555 1_555
O4 Zn1 1_555 1_555
O5 C12 1_555 1_555
O6 C13 1_555 1_555
O7 Zn2 1_555 1_555
O8 C20 1_555 1_555
O9 C27 1_555 1_555
O10 Zn2 1_555 1_555
O11 C34 1_555 1_555
O12 C38 1_555 1_555
O13 H37 1_555 1_555
H38 O13 1_555 1_555
C1A C2A 1_555 1_555
C2A C3A 1_555 1_555
C3A C4 1_555 1_555
C4A C3 1_555 1_555
H1A C4A 1_555 1_555
C5A C3A 1_555 1_555
C6A C5A 1_555 1_555
C7A C6A 1_555 1_555
H2A C7A 1_555 1_555
C8A C7A 1_555 1_555
H3A C8A 1_555 1_555
C9A C8A 1_555 1_555
H4A C9A 1_555 1_555
C10A C9A 1_555 1_555
H5A C10A 1_555 1_555
C11A C6A 1_555 1_555
H6A C11A 1_555 1_555
O1A C1A 1_555 1_555
O2A C1A 1_555 1_555
O3A C5A 1_555 1_555
C34A C35A 1_555 1_555
C35A C36A 1_555 1_555
C36A C37 1_555 1_555
C37A C36 1_555 1_555
H19A C37A 1_555 1_555
C38A C36A 1_555 1_555
C39A C38A 1_555 1_555
C40A C39A 1_555 1_555
H20A C40A 1_555 1_555
C41A C40A 1_555 1_555
H21A C41A 1_555 1_555
C42A C41A 1_555 1_555
H22A C42A 1_555 1_555
C43A C42A 1_555 1_555
H23A C43A 1_555 1_555
C44A C39A 1_555 1_555
H24A C44A 1_555 1_555
O10A C34A 1_555 1_555
O11A C34A 1_555 1_555
O12A C38A 1_555 1_555
Zn1A O2 1_555 1_555
Zn2A N1A 1_555 1_555
C12A C14A 1_555 1_555
C13A C16A 1_555 1_555
C14A C15A 1_555 1_555
C15A H7A 1_555 1_555
C16A C15A 1_555 1_555
C17A C16A 1_555 1_555
C18A C17A 1_555 1_555
H8A C18A 1_555 1_555
C19A C14A 1_555 1_555
C20A C17A 1_555 1_555
C21A C20A 1_555 1_555
C22A C21A 1_555 1_555
H9A C22A 1_555 1_555
C23A C22A 1_555 1_555
H10A C23A 1_555 1_555
C24A C23A 1_555 1_555
H11A C24A 1_555 1_555
C25A C24A 1_555 1_555
H12A C25A 1_555 1_555
C26A C21A 1_555 1_555
H13A C26A 1_555 1_555
C27A C19A 1_555 1_555
C28A C27A 1_555 1_555
C29A C28A 1_555 1_555
H14A C29A 1_555 1_555
C30A C29A 1_555 1_555
H15A C30A 1_555 1_555
C31A C30A 1_555 1_555
H16A C31A 1_555 1_555
C32A C31A 1_555 1_555
H17A C32A 1_555 1_555
C33A C28A 1_555 1_555
H18A C33A 1_555 1_555
C45A H25A 1_555 1_555
C46A H26A 1_555 1_555
C47A H27A 1_555 1_555
H28A C47A 1_555 1_555
C48A C47A 1_555 1_555
C49A C48A 1_555 1_555
H29A C49A 1_555 1_555
C50A C49A 1_555 1_555
C51A C50A 1_555 1_555
H30A C51A 1_555 1_555
C52A C51A 1_555 1_555
H31A C52A 1_555 1_555
C53A C48A 1_555 1_555
H32A C53A 1_555 1_555
C54A C50A 1_555 1_555
H33A C54A 1_555 1_555
H34A C54A 1_555 1_555
C55A H35A 1_555 1_555
C56A H36A 1_555 1_555
N1A C45A 1_555 1_555
N2A C46A 1_555 1_555
N3A C45A 1_555 1_555
N4A C54A 1_555 1_555
N5A C55A 1_555 1_555
N6A C56A 1_555 1_555
O4A Zn1A 1_555 1_555
O5A Zn1 1_555 1_555
O6A C13A 1_555 1_555
O7A Zn2A 1_555 1_555
O8A C20A 1_555 1_555
O9A C27A 1_555 1_555
Zn1_2 N5A 1_555 1_555
Zn1_3 O2A 1_555 1_555
Zn1A_2 N5 1_555 1_555
Zn1A_3 O1A 1_555 1_555
Zn2_2 O6A 1_555 1_555
Zn2_3 O11A 1_555 1_555
Zn2A_2 O6 1_555 1_555
Zn2A_3 O10A 1_555 1_555
N5_2 Zn1A 1_555 1_555
N5A_2 Zn1 1_555 1_555
O1A_2 Zn1A 1_555 1_555
O2A_2 Zn1 1_555 1_555
O6_2 Zn2A 1_555 1_555
O6A_2 Zn2 1_555 1_555
O10A_2 Zn2A 1_555 1_555
O11_2 Zn2A 1_555 1_555
O11A_2 Zn2 1_555 1_555
C10 C11 1_555 1_555
C12 O4 1_555 1_555
C13 O7 1_555 1_555
C18 C19 1_555 1_555
C25 C26 1_555 1_555
C32 C33 1_555 1_555
C34 O10 1_555 1_555
C43 C44 1_555 1_555
C46 N1 1_555 1_555
C47 N3 1_555 1_555
C52 C53 1_555 1_555
C55 N4 1_555 1_555
C56 N5 1_555 1_555
N2 N3 1_555 1_555
N4 N6 1_555 1_555
O5 Zn1A 1_555 1_555
O11 Zn2A_2 1_555 1_555
C2A C4A 1_555 1_555
C10A C11A 1_555 1_555
C35A C37A 1_555 1_555
C43A C44A 1_555 1_555
C12A O4A 1_555 1_555
C12A O5A 1_555 1_555
C13A O7A 1_555 1_555
C18A C19A 1_555 1_555
C25A C26A 1_555 1_555
C32A C33A 1_555 1_555
C46A N1A 1_555 1_555
C47A N3A 1_555 1_555
C52A C53A 1_555 1_555
C55A N4A 1_555 1_555
C56A N5A 1_555 1_555
N2A N3A 1_555 1_555
N4A N6A 1_555 1_555

#END
