
#######################################################################
#
#                 Cambridge Crystallographic Data Centre
#                                CCDC 
#
#######################################################################
#
# If this CIF has been generated from an entry in the Cambridge 
# Structural Database, then it will include bibliographic, chemical, 
# crystal, experimental, refinement or atomic coordinate data resulting 
# from the CCDC's data processing and validation procedures.
#
#######################################################################

data_GUHPEG
_symmetry_cell_setting           monoclinic
_symmetry_space_group_name_H-M   'C 2/c'
_symmetry_Int_Tables_number      15
_space_group_name_Hall           '-C 2yn'
loop_
_symmetry_equiv_pos_site_id
_symmetry_equiv_pos_as_xyz
1 x,y,z
2 -x,y,1/2-z
3 1/2+x,1/2+y,z
4 1/2-x,1/2+y,1/2-z
5 -x,-y,-z
6 x,-y,1/2+z
7 1/2-x,1/2-y,-z
8 1/2+x,1/2-y,1/2+z
_cell_length_a                   32.14(2)
_cell_length_b                   9.156(6)
_cell_length_c                   26.864(18)
_cell_angle_alpha                90
_cell_angle_beta                 112.859(7)
_cell_angle_gamma                90
_cell_volume                     7284.51
loop_
_atom_site_label
_atom_site_type_symbol
_atom_site_fract_x
_atom_site_fract_y
_atom_site_fract_z
Sm1 Sm 0.111664(15) -0.10511(5) 0.908810(19)
O1 O 0.4230(2) 1.4162(6) 0.6928(2)
O2 O 0.3767(2) 1.2366(7) 0.6565(3)
O3 O 0.5378(2) 1.3072(8) 0.8841(3)
O4 O 0.5226(2) 1.1250(10) 0.9293(3)
O5 O 0.1711(2) 0.0331(9) 0.8973(3)
O6 O 0.1922(2) -0.0857(8) 0.9719(3)
O7 O 0.4055(3) 0.0136(9) 1.0301(4)
H1 H 0.4243 -0.0521 1.0368
O8 O 0.3675(2) -0.1586(7) 1.0496(3)
O9 O 0.1025(3) -0.0502(9) 0.9907(3)
O10 O 0.0816(3) 0.1289(8) 0.8947(4)
N1 N 0.3712(3) 0.9384(10) 0.8117(4)
H2 H 0.3804 0.8933 0.8422
N2 N 0.2982(3) 0.3711(8) 0.9129(3)
H3 H 0.3232 0.4190 0.9255
N3 N 0.0745(4) 0.0099(12) 1.0485(4)
N4 N 0.0720(4) 0.3238(13) 0.8490(4)
C1 C 0.5128(3) 1.2094(14) 0.8891(4)
C2 C 0.4674(3) 1.1881(11) 0.8430(4)
C3 C 0.4558(3) 1.2616(10) 0.7940(4)
H4 H 0.4749 1.3333 0.7904
C4 C 0.4163(3) 1.2293(9) 0.7509(3)
C5 C 0.3875(3) 1.1197(10) 0.7557(4)
H5 H 0.3614 1.0947 0.7261
C6 C 0.3984(3) 1.0478(10) 0.8057(4)
C7 C 0.4381(3) 1.0804(10) 0.8479(4)
H6 H 0.4457 1.0304 0.8804
C8 C 0.4042(3) 1.2975(10) 0.6974(4)
C9 C 0.3289(3) 0.8941(10) 0.7710(4)
H7 H 0.3332 0.8645 0.7386
H8 H 0.3078 0.9751 0.7619
C10 C 0.3101(3) 0.7665(9) 0.7926(3)
C11 C 0.3207(3) 0.6239(10) 0.7847(4)
C12 C 0.3049(3) 0.5099(9) 0.8079(4)
C13 C 0.2788(3) 0.5438(10) 0.8382(4)
C14 C 0.2692(3) 0.6864(11) 0.8465(4)
C15 C 0.2856(3) 0.7976(10) 0.8230(4)
C16 C 0.2768(4) 0.9554(11) 0.8357(4)
H9 H 0.2894 1.0217 0.8176
H10 H 0.2907 0.9715 0.8739
H11 H 0.2449 0.9715 0.8234
C17 C 0.2427(4) 0.7186(12) 0.8803(5)
H12 H 0.2177 0.6522 0.8709
H13 H 0.2316 0.8170 0.8738
H14 H 0.2618 0.7072 0.9178
C18 C 0.3159(4) 0.3501(10) 0.8011(5)
H15 H 0.3104 0.3319 0.7638
H16 H 0.2971 0.2873 0.8120
H17 H 0.3471 0.3311 0.8230
C19 C 0.3479(4) 0.5883(13) 0.7511(5)
H18 H 0.3417 0.6594 0.7229
H19 H 0.3398 0.4929 0.7355
H20 H 0.3795 0.5900 0.7737
C20 C 0.2616(3) 0.4195(11) 0.8635(4)
H21 H 0.2364 0.4535 0.8717
H22 H 0.2513 0.3388 0.8383
C21 C 0.2924(3) 0.2477(10) 0.9393(4)
C22 C 0.2507(3) 0.1861(9) 0.9291(4)
H23 H 0.2251 0.2295 0.9038
C23 C 0.2460(3) 0.0617(9) 0.9556(4)
C24 C 0.2846(3) -0.0103(10) 0.9911(4)
H24 H 0.2821 -0.0948 1.0089
C25 C 0.3265(3) 0.0468(10) 0.9992(4)
C26 C 0.3312(3) 0.1769(11) 0.9754(4)
H25 H 0.3596 0.2170 0.9833
C27 C 0.3672(4) -0.0399(13) 1.0287(5)
C28 C 0.2008(3) -0.0010(10) 0.9421(4)
C29 C 0.0949(5) -0.0784(15) 1.0316(5)
C30 C 0.1140(6) -0.2151(17) 1.0615(8)
H26 H 0.1369 -0.1914 1.0961
H27 H 0.1269 -0.2725 1.0412
H28 H 0.0904 -0.2698 1.0665
C31 C 0.0651(5) -0.0025(17) 1.0992(6)
H29 H 0.0349 0.0303 1.0919
H30 H 0.0862 0.0568 1.1271
H31 H 0.0681 -0.1025 1.1108
C32 C 0.0550(6) 0.1494(14) 1.0190(7)
H32 H 0.0790 0.2152 1.0217
H33 H 0.0359 0.1938 1.0347
H34 H 0.0375 0.1282 0.9816
C33 C 0.0563(4) 0.2282(16) 0.8686(6)
C34 C 0.0070(5) 0.2405(19) 0.8584(8)
H35 H -0.0016 0.1601 0.8753
H36 H -0.0106 0.2385 0.8202
H37 H 0.0016 0.3307 0.8732
C35 C 0.0435(5) 0.4480(16) 0.8160(7)
H38 H 0.0134 0.4399 0.8149
H39 H 0.0426 0.4435 0.7799
H40 H 0.0563 0.5395 0.8322
C36 C 0.1202(4) 0.3278(17) 0.8535(7)
H41 H 0.1398 0.2943 0.8887
H42 H 0.1281 0.4260 0.8483
H43 H 0.1234 0.2655 0.8265
Sm1B Sm 0.611664(15) 1.39489(5) 0.908810(19)
Sm1C Sm 0.388336(15) 1.39489(5) 0.591190(19)
Sm1F Sm 0.388336(15) -0.39489(5) 1.091190(19)
O1C O 0.0770(2) -0.0838(6) 0.8072(2)
O2C O 0.1233(2) -0.2634(7) 0.8435(3)
O3B O 0.0378(2) -0.1928(8) 0.8841(3)
O8F O 0.1325(2) -0.3414(7) 0.9504(3)
loop_
_geom_bond_atom_site_label_1
_geom_bond_atom_site_label_2
_geom_bond_site_symmetry_1
_geom_bond_site_symmetry_2
Sm1 O5 1_555 1_555
O1 C8 1_555 1_555
O2 C8 1_555 1_555
O3 C1 1_555 1_555
O4 C1 1_555 1_555
O5 C28 1_555 1_555
O6 Sm1 1_555 1_555
O7 H1 1_555 1_555
O8 C27 1_555 1_555
O9 Sm1 1_555 1_555
O10 Sm1 1_555 1_555
N1 H2 1_555 1_555
N2 H3 1_555 1_555
N3 C29 1_555 1_555
N4 C33 1_555 1_555
C1 C2 1_555 1_555
C2 C3 1_555 1_555
C3 H4 1_555 1_555
C4 C3 1_555 1_555
C5 C4 1_555 1_555
H5 C5 1_555 1_555
C6 N1 1_555 1_555
C7 C2 1_555 1_555
H6 C7 1_555 1_555
C8 C4 1_555 1_555
C9 N1 1_555 1_555
H7 C9 1_555 1_555
H8 C9 1_555 1_555
C10 C9 1_555 1_555
C11 C10 1_555 1_555
C12 C11 1_555 1_555
C13 C12 1_555 1_555
C14 C13 1_555 1_555
C15 C10 1_555 1_555
C16 C15 1_555 1_555
H9 C16 1_555 1_555
H10 C16 1_555 1_555
H11 C16 1_555 1_555
C17 C14 1_555 1_555
H12 C17 1_555 1_555
H13 C17 1_555 1_555
H14 C17 1_555 1_555
C18 C12 1_555 1_555
H15 C18 1_555 1_555
H16 C18 1_555 1_555
H17 C18 1_555 1_555
C19 C11 1_555 1_555
H18 C19 1_555 1_555
H19 C19 1_555 1_555
H20 C19 1_555 1_555
C20 N2 1_555 1_555
H21 C20 1_555 1_555
H22 C20 1_555 1_555
C21 N2 1_555 1_555
C22 C21 1_555 1_555
H23 C22 1_555 1_555
C23 C22 1_555 1_555
C24 C23 1_555 1_555
H24 C24 1_555 1_555
C25 C24 1_555 1_555
C26 C21 1_555 1_555
H25 C26 1_555 1_555
C27 O7 1_555 1_555
C28 O6 1_555 1_555
C29 O9 1_555 1_555
C30 C29 1_555 1_555
H26 C30 1_555 1_555
H27 C30 1_555 1_555
H28 C30 1_555 1_555
C31 N3 1_555 1_555
H29 C31 1_555 1_555
H30 C31 1_555 1_555
H31 C31 1_555 1_555
C32 N3 1_555 1_555
H32 C32 1_555 1_555
H33 C32 1_555 1_555
H34 C32 1_555 1_555
C33 O10 1_555 1_555
C34 C33 1_555 1_555
H35 C34 1_555 1_555
H36 C34 1_555 1_555
H37 C34 1_555 1_555
C35 N4 1_555 1_555
H38 C35 1_555 1_555
H39 C35 1_555 1_555
H40 C35 1_555 1_555
C36 N4 1_555 1_555
H41 C36 1_555 1_555
H42 C36 1_555 1_555
H43 C36 1_555 1_555
Sm1B O3 1_555 1_555
Sm1C O1 1_555 1_555
Sm1F O8 1_555 1_555
O1C Sm1 1_555 1_555
O2C Sm1 1_555 1_555
O3B Sm1 1_555 1_555
O8F Sm1 1_555 1_555
O2 Sm1C 1_555 1_555
C5 C6 1_555 1_555
C6 C7 1_555 1_555
C13 C20 1_555 1_555
C14 C15 1_555 1_555
C23 C28 1_555 1_555
C25 C26 1_555 1_555
C25 C27 1_555 1_555

#END
