
#######################################################################
#
#                 Cambridge Crystallographic Data Centre
#                                CCDC 
#
#######################################################################
#
# If this CIF has been generated from an entry in the Cambridge 
# Structural Database, then it will include bibliographic, chemical, 
# crystal, experimental, refinement or atomic coordinate data resulting 
# from the CCDC's data processing and validation procedures.
#
#######################################################################

data_GUHSIN
_symmetry_cell_setting           orthorhombic
_symmetry_space_group_name_H-M   'P b c n'
_symmetry_Int_Tables_number      60
_space_group_name_Hall           '-P 2n 2ab'
loop_
_symmetry_equiv_pos_site_id
_symmetry_equiv_pos_as_xyz
1 x,y,z
2 1/2-x,1/2-y,1/2+z
3 -x,y,1/2-z
4 1/2+x,1/2-y,-z
5 -x,-y,-z
6 1/2+x,1/2+y,1/2-z
7 x,-y,1/2+z
8 1/2-x,1/2+y,z
_cell_length_a                   24.3291(5)
_cell_length_b                   7.8637(2)
_cell_length_c                   15.5960(3)
_cell_angle_alpha                90
_cell_angle_beta                 90
_cell_angle_gamma                90
_cell_volume                     2983.78
loop_
_atom_site_label
_atom_site_type_symbol
_atom_site_fract_x
_atom_site_fract_y
_atom_site_fract_z
Cu1 Cu 0.503110(9) 0.62265(3) 0.443903(16)
O1 O 0.44487(5) 0.47877(16) 0.39277(8)
O2 O 0.43983(5) 0.26323(16) 0.48610(8)
O3 O 0.55564(5) 0.26343(16) 0.49057(8)
O4 O 0.56245(5) 0.47876(16) 0.39694(8)
O5 O 0.31720(6) 0.52083(17) 0.46403(9)
O6 O 0.69341(6) 0.03095(17) 0.29720(9)
N1 N 0.50073(5) 0.78466(19) 0.32872(10)
N2 N 0.44983(6) 1.0047(2) 0.25119(9)
C1 C 0.42309(7) 0.3448(2) 0.42155(11)
C2 C 0.37410(7) 0.2763(2) 0.37251(12)
H1 H 0.3492 0.2173 0.4129
H2 H 0.3870 0.1919 0.3300
C3 C 0.34219(7) 0.4153(2) 0.32626(11)
H3 H 0.3675 0.4774 0.2877
H4 H 0.3134 0.3620 0.2904
C4 C 0.31558(7) 0.5403(2) 0.38673(12)
C5 C 0.28599(8) 0.6875(3) 0.34653(13)
H5 H 0.2688 0.7565 0.3915
H6 H 0.2576 0.6448 0.3075
H7 H 0.3122 0.7573 0.3144
C6 C 0.57819(7) 0.3388(2) 0.42873(11)
C7 C 0.62692(7) 0.2570(2) 0.38501(11)
H8 H 0.6557 0.3448 0.3772
H9 H 0.6153 0.2195 0.3272
C8 C 0.65257(7) 0.1058(2) 0.43096(11)
H10 H 0.6769 0.1480 0.4772
H11 H 0.6231 0.0376 0.4580
C9 C 0.68541(7) -0.0070(2) 0.37164(12)
C10 C 0.70763(9) -0.1691(3) 0.40893(13)
H12 H 0.7267 -0.2337 0.3641
H13 H 0.6773 -0.2372 0.4318
H14 H 0.7335 -0.1423 0.4552
C11 C 0.45127(7) 0.8961(2) 0.32774(11)
H15 H 0.4178 0.8246 0.3292
H16 H 0.4513 0.9686 0.3796
C12 C 0.54989(7) 0.8963(2) 0.32529(11)
H17 H 0.5507 0.9689 0.3771
H18 H 0.5834 0.8249 0.3255
C13 C 0.5000 0.6789(3) 0.2500
H19 H 0.4671 0.6048 0.2507
C14 C 0.5000 1.1092(3) 0.2500
H20 H 0.4995 1.1833 0.1987
N1B N 0.49927(5) 0.78466(19) 0.17128(10)
N2B N 0.55017(6) 1.0047(2) 0.24881(9)
C11B C 0.54873(7) 0.8961(2) 0.17226(11)
H15B H 0.5822 0.8246 0.1708
H16B H 0.5487 0.9686 0.1204
C12B C 0.45011(7) 0.8963(2) 0.17471(11)
H17B H 0.4493 0.9689 0.1229
H18B H 0.4166 0.8249 0.1745
H19B H 0.5329 0.6048 0.2493
H20B H 0.5005 1.1833 0.3013
Cu1B Cu 0.496890(9) 0.62265(3) 0.056097(16)
O1B O 0.55513(5) 0.47877(16) 0.10723(8)
O2B O 0.56017(5) 0.26323(16) 0.01390(8)
O3B O 0.44436(5) 0.26343(16) 0.00943(8)
O4B O 0.43755(5) 0.47876(16) 0.10306(8)
O5B O 0.68280(6) 0.52083(17) 0.03597(9)
O6B O 0.30659(6) 0.03095(17) 0.20280(9)
C1B C 0.57691(7) 0.3448(2) 0.07845(11)
C2B C 0.62590(7) 0.2763(2) 0.12749(12)
H1B H 0.6508 0.2173 0.0871
H2B H 0.6130 0.1919 0.1700
C3B C 0.65781(7) 0.4153(2) 0.17374(11)
H3B H 0.6325 0.4774 0.2123
H4B H 0.6866 0.3620 0.2096
C4B C 0.68442(7) 0.5403(2) 0.11327(12)
C5B C 0.71401(8) 0.6875(3) 0.15347(13)
H5B H 0.7312 0.7565 0.1085
H6B H 0.7424 0.6448 0.1925
H7B H 0.6878 0.7573 0.1856
C6B C 0.42181(7) 0.3388(2) 0.07127(11)
C7B C 0.37308(7) 0.2570(2) 0.11499(11)
H8B H 0.3443 0.3448 0.1228
H9B H 0.3847 0.2195 0.1728
C8B C 0.34743(7) 0.1058(2) 0.06904(11)
H10B H 0.3231 0.1480 0.0228
H11B H 0.3769 0.0376 0.0420
C9B C 0.31459(7) -0.0070(2) 0.12836(12)
C10B C 0.29237(9) -0.1691(3) 0.09107(13)
H12B H 0.2733 -0.2337 0.1359
H13B H 0.3227 -0.2372 0.0682
H14B H 0.2665 -0.1423 0.0448
Cu1D Cu 0.496890(9) 0.37735(3) 0.556097(16)
Cu1F Cu 0.503110(9) 0.37735(3) -0.056097(16)
O2D O 0.56017(5) 0.73677(16) 0.51390(8)
O2F O 0.43983(5) 0.73677(16) -0.01390(8)
O3D O 0.44436(5) 0.73657(16) 0.50943(8)
O3F O 0.55564(5) 0.73657(16) -0.00943(8)
loop_
_geom_bond_atom_site_label_1
_geom_bond_atom_site_label_2
_geom_bond_site_symmetry_1
_geom_bond_site_symmetry_2
Cu1 O1 1_555 1_555
O1 C1 1_555 1_555
O2 C1 1_555 1_555
O3 C6 1_555 1_555
O4 Cu1 1_555 1_555
O5 C4 1_555 1_555
O6 C9 1_555 1_555
N1 Cu1 1_555 1_555
N2 C11 1_555 1_555
C1 C2 1_555 1_555
C2 H1 1_555 1_555
H2 C2 1_555 1_555
C3 C2 1_555 1_555
H3 C3 1_555 1_555
H4 C3 1_555 1_555
C4 C3 1_555 1_555
C5 C4 1_555 1_555
H5 C5 1_555 1_555
H6 C5 1_555 1_555
H7 C5 1_555 1_555
C6 O4 1_555 1_555
C7 C6 1_555 1_555
H8 C7 1_555 1_555
H9 C7 1_555 1_555
C8 C7 1_555 1_555
H10 C8 1_555 1_555
H11 C8 1_555 1_555
C9 C8 1_555 1_555
C10 C9 1_555 1_555
H12 C10 1_555 1_555
H13 C10 1_555 1_555
H14 C10 1_555 1_555
C11 N1 1_555 1_555
H15 C11 1_555 1_555
H16 C11 1_555 1_555
C12 N1 1_555 1_555
H17 C12 1_555 1_555
H18 C12 1_555 1_555
C13 N1 1_555 1_555
H19 C13 1_555 1_555
C14 N2 1_555 1_555
H20 C14 1_555 1_555
N1B C13 1_555 1_555
N2B C12 1_555 1_555
C11B N1B 1_555 1_555
H15B C11B 1_555 1_555
H16B C11B 1_555 1_555
C12B N2 1_555 1_555
H17B C12B 1_555 1_555
H18B C12B 1_555 1_555
H19B C13 1_555 1_555
H20B C14 1_555 1_555
Cu1B N1B 1_555 1_555
O1B Cu1B 1_555 1_555
O2B C1B 1_555 1_555
O3B C6B 1_555 1_555
O4B Cu1B 1_555 1_555
O5B C4B 1_555 1_555
O6B C9B 1_555 1_555
C1B O1B 1_555 1_555
C2B C1B 1_555 1_555
H1B C2B 1_555 1_555
H2B C2B 1_555 1_555
C3B C2B 1_555 1_555
H3B C3B 1_555 1_555
H4B C3B 1_555 1_555
C4B C3B 1_555 1_555
C5B C4B 1_555 1_555
H5B C5B 1_555 1_555
H6B C5B 1_555 1_555
H7B C5B 1_555 1_555
C6B O4B 1_555 1_555
C7B C6B 1_555 1_555
H8B C7B 1_555 1_555
H9B C7B 1_555 1_555
C8B C7B 1_555 1_555
H10B C8B 1_555 1_555
H11B C8B 1_555 1_555
C9B C8B 1_555 1_555
C10B C9B 1_555 1_555
H12B C10B 1_555 1_555
H13B C10B 1_555 1_555
H14B C10B 1_555 1_555
Cu1D Cu1 1_555 1_555
Cu1F Cu1B 1_555 1_555
O2D Cu1 1_555 1_555
O2F Cu1B 1_555 1_555
O3D Cu1 1_555 1_555
O3F Cu1B 1_555 1_555
O2 Cu1D 1_555 1_555
O3 Cu1D 1_555 1_555
C14 N2B 1_555 1_555
N1B C12B 1_555 1_555
N2B C11B 1_555 1_555
O2B Cu1F 1_555 1_555
O3B Cu1F 1_555 1_555

#END
