
#######################################################################
#
#                 Cambridge Crystallographic Data Centre
#                                CCDC 
#
#######################################################################
#
# If this CIF has been generated from an entry in the Cambridge 
# Structural Database, then it will include bibliographic, chemical, 
# crystal, experimental, refinement or atomic coordinate data resulting 
# from the CCDC's data processing and validation procedures.
#
#######################################################################

data_GUHSUZ
_symmetry_cell_setting           monoclinic
_symmetry_space_group_name_H-M   'C 2/c'
_symmetry_Int_Tables_number      15
_space_group_name_Hall           '-C 2yn'
loop_
_symmetry_equiv_pos_site_id
_symmetry_equiv_pos_as_xyz
1 x,y,z
2 -x,y,1/2-z
3 1/2+x,1/2+y,z
4 1/2-x,1/2+y,1/2-z
5 -x,-y,-z
6 x,-y,1/2+z
7 1/2-x,1/2-y,-z
8 1/2+x,1/2-y,1/2+z
_cell_length_a                   18.5213(5)
_cell_length_b                   5.3351(2)
_cell_length_c                   23.0685(7)
_cell_angle_alpha                90
_cell_angle_beta                 101.8280(10)
_cell_angle_gamma                90
_cell_volume                     2231.07
loop_
_atom_site_label
_atom_site_type_symbol
_atom_site_fract_x
_atom_site_fract_y
_atom_site_fract_z
Cu1 Cu 0.5000 0.71007(4) 0.2500
O1 O 0.41750(4) 0.71873(16) 0.28956(3)
O2 O 0.36925(5) 1.08952(18) 0.25732(4)
O3 O 0.37566(6) 0.78694(19) 0.43228(4)
O4 O 0.5000 0.2983(3) 0.2500
H1 H 0.4627(9) 0.221(4) 0.2531(9)
N1 N 0.56858(5) 0.72432(19) 0.33020(4)
C1 C 0.36717(5) 0.8857(2) 0.28275(5)
C2 C 0.30065(6) 0.8206(2) 0.30902(5)
H2 H 0.2569 0.8017 0.2765
H3 H 0.2909 0.9606 0.3345
C3 C 0.31139(6) 0.5800(2) 0.34552(5)
H4 H 0.2650 0.5385 0.3584
H5 H 0.3229 0.4405 0.3206
C4 C 0.37329(7) 0.6065(2) 0.39953(5)
C5 C 0.43050(7) 0.4034(3) 0.41052(6)
H6 H 0.4646 0.4343 0.4483
H7 H 0.4579 0.4025 0.3784
H8 H 0.4063 0.2408 0.4120
C6 C 0.62384(6) 0.5573(2) 0.34271(5)
H9 H 0.6317 0.4453 0.3126
C7 C 0.66982(6) 0.5433(2) 0.39814(5)
H10 H 0.7079 0.4211 0.4058
C8 C 0.66012(6) 0.7085(2) 0.44260(4)
C9 C 0.60338(6) 0.8827(2) 0.42918(5)
H11 H 0.5952 0.9999 0.4581
C10 C 0.55884(6) 0.8831(2) 0.37292(5)
H12 H 0.5197 1.0011 0.3643
C11 C 0.71167(6) 0.7008(3) 0.50210(5)
H13 H 0.7160 0.5263 0.5170
H14 H 0.6913 0.8044 0.5306
H1A H 0.5373(9) 0.221(4) 0.2469(9)
N1F N 0.93142(5) 0.77568(19) 0.66980(4)
C6F C 0.87616(6) 0.9427(2) 0.65729(5)
H9F H 0.8683 1.0547 0.6874
C7F C 0.83018(6) 0.9567(2) 0.60186(5)
H10F H 0.7921 1.0789 0.5942
C8F C 0.83988(6) 0.7915(2) 0.55740(4)
C9F C 0.89662(6) 0.6173(2) 0.57082(5)
H11F H 0.9048 0.5001 0.5419
C10F C 0.94116(6) 0.6169(2) 0.62708(5)
H12F H 0.9803 0.4989 0.6357
C11F C 0.78833(6) 0.7992(3) 0.49790(5)
H13F H 0.7840 0.9737 0.4830
H14F H 0.8087 0.6956 0.4694
O1A O 0.58250(4) 0.71873(16) 0.21044(3)
O2A O 0.63075(5) 1.08952(18) 0.24268(4)
O3A O 0.62434(6) 0.78694(19) 0.06772(4)
C1A C 0.63283(5) 0.8857(2) 0.21725(5)
C2A C 0.69935(6) 0.8206(2) 0.19098(5)
H2A H 0.7431 0.8017 0.2235
H3A H 0.7091 0.9606 0.1655
C3A C 0.68861(6) 0.5800(2) 0.15448(5)
H4A H 0.7350 0.5385 0.1416
H5A H 0.6771 0.4405 0.1794
C4A C 0.62671(7) 0.6065(2) 0.10047(5)
C5A C 0.56950(7) 0.4034(3) 0.08948(6)
H6A H 0.5354 0.4343 0.0517
H7A H 0.5421 0.4025 0.1216
H8A H 0.5937 0.2408 0.0880
Cu1F Cu 1.0000 0.78993(4) 0.7500
N1A N 0.43142(5) 0.72432(19) 0.16980(4)
loop_
_geom_bond_atom_site_label_1
_geom_bond_atom_site_label_2
_geom_bond_site_symmetry_1
_geom_bond_site_symmetry_2
Cu1 O1 1_555 1_555
O1 C1 1_555 1_555
O2 C1 1_555 1_555
O3 C4 1_555 1_555
O4 Cu1 1_555 1_555
H1 O4 1_555 1_555
N1 Cu1 1_555 1_555
C1 C2 1_555 1_555
C2 H2 1_555 1_555
H3 C2 1_555 1_555
C3 C2 1_555 1_555
H4 C3 1_555 1_555
H5 C3 1_555 1_555
C4 C3 1_555 1_555
C5 C4 1_555 1_555
H6 C5 1_555 1_555
H7 C5 1_555 1_555
H8 C5 1_555 1_555
C6 N1 1_555 1_555
H9 C6 1_555 1_555
C7 C6 1_555 1_555
H10 C7 1_555 1_555
C8 C7 1_555 1_555
C9 C8 1_555 1_555
H11 C9 1_555 1_555
C10 N1 1_555 1_555
H12 C10 1_555 1_555
C11 C8 1_555 1_555
H13 C11 1_555 1_555
H14 C11 1_555 1_555
H1A O4 1_555 1_555
N1F C6F 1_555 1_555
C6F H9F 1_555 1_555
C7F C6F 1_555 1_555
H10F C7F 1_555 1_555
C8F C7F 1_555 1_555
C9F C8F 1_555 1_555
H11F C9F 1_555 1_555
C10F N1F 1_555 1_555
H12F C10F 1_555 1_555
C11F C11 1_555 1_555
H13F C11F 1_555 1_555
H14F C11F 1_555 1_555
O1A Cu1 1_555 1_555
O2A C1A 1_555 1_555
O3A C4A 1_555 1_555
C1A O1A 1_555 1_555
C2A C1A 1_555 1_555
H2A C2A 1_555 1_555
H3A C2A 1_555 1_555
C3A C2A 1_555 1_555
H4A C3A 1_555 1_555
H5A C3A 1_555 1_555
C4A C3A 1_555 1_555
C5A C4A 1_555 1_555
H6A C5A 1_555 1_555
H7A C5A 1_555 1_555
H8A C5A 1_555 1_555
Cu1F N1F 1_555 1_555
N1A Cu1 1_555 1_555
C9 C10 1_555 1_555
C8F C11F 1_555 1_555
C9F C10F 1_555 1_555

#END
