
#######################################################################
#
#                 Cambridge Crystallographic Data Centre
#                                CCDC 
#
#######################################################################
#
# If this CIF has been generated from an entry in the Cambridge 
# Structural Database, then it will include bibliographic, chemical, 
# crystal, experimental, refinement or atomic coordinate data resulting 
# from the CCDC's data processing and validation procedures.
#
#######################################################################

data_GUHWIR
_symmetry_cell_setting           orthorhombic
_symmetry_space_group_name_H-M   'P b c n'
_symmetry_Int_Tables_number      60
_space_group_name_Hall           '-P 2n 2ab'
loop_
_symmetry_equiv_pos_site_id
_symmetry_equiv_pos_as_xyz
1 x,y,z
2 1/2-x,1/2-y,1/2+z
3 -x,y,1/2-z
4 1/2+x,1/2-y,-z
5 -x,-y,-z
6 1/2+x,1/2+y,1/2-z
7 x,-y,1/2+z
8 1/2-x,1/2+y,z
_cell_length_a                   17.644(3)
_cell_length_b                   9.9627(19)
_cell_length_c                   7.8160(15)
_cell_angle_alpha                90
_cell_angle_beta                 90
_cell_angle_gamma                90
_cell_volume                     1373.91
loop_
_atom_site_label
_atom_site_type_symbol
_atom_site_fract_x
_atom_site_fract_y
_atom_site_fract_z
Ca1 Ca 0.5000 0.04993(4) 0.2500
O1 O 0.40994(5) 0.20740(10) 0.12520(12)
H1 H 0.3629 0.1929 0.1655
H2 H 0.4086 0.1988 0.0107
O2 O 0.58523(5) -0.14668(10) 0.21809(12)
C1 C 0.71782(8) -0.37537(14) 0.25360(16)
O3 O 0.55856(5) -0.10067(9) 0.48715(12)
C2 C 0.58068(7) -0.18090(13) 0.37294(16)
C3 C 0.59849(8) -0.32410(14) 0.42594(18)
H3 H 0.5507 -0.3682 0.4616
H4 H 0.6324 -0.3215 0.5269
C4 C 0.63568(8) -0.40979(13) 0.28835(19)
H5 H 0.6326 -0.5052 0.3232
H6 H 0.6066 -0.3997 0.1807
O4 O 0.74945(6) -0.28329(10) 0.32774(13)
C5 C 0.75831(8) -0.46004(14) 0.12409(18)
H7 H 0.8107 -0.4287 0.1123
H8 H 0.7325 -0.4530 0.0135
H9 H 0.7583 -0.5539 0.1618
O1B O 0.59006(5) 0.20740(10) 0.37480(12)
H1B H 0.6371 0.1929 0.3345
H2B H 0.5914 0.1988 0.4893
O2B O 0.41477(5) -0.14668(10) 0.28191(12)
C1B C 0.28218(8) -0.37537(14) 0.24640(16)
O3B O 0.44144(5) -0.10067(9) 0.01285(12)
C2B C 0.41932(7) -0.18090(13) 0.12706(16)
C3B C 0.40151(8) -0.32410(14) 0.07406(18)
H3B H 0.4493 -0.3682 0.0384
H4B H 0.3676 -0.3215 -0.0269
C4B C 0.36432(8) -0.40979(13) 0.21165(19)
H5B H 0.3674 -0.5052 0.1768
H6B H 0.3934 -0.3997 0.3193
O4B O 0.25055(6) -0.28329(10) 0.17226(13)
C5B C 0.24169(8) -0.46004(14) 0.37591(18)
H7B H 0.1893 -0.4287 0.3877
H8B H 0.2675 -0.4530 0.4865
H9B H 0.2417 -0.5539 0.3382
Ca1D Ca 0.5000 -0.04993(4) -0.2500
Ca1D_2 Ca 0.5000 -0.04993(4) 0.7500
O3D O 0.44144(5) 0.10067(9) 0.51285(12)
O3F O 0.55856(5) 0.10067(9) -0.01285(12)
loop_
_geom_bond_atom_site_label_1
_geom_bond_atom_site_label_2
_geom_bond_site_symmetry_1
_geom_bond_site_symmetry_2
Ca1 O1 1_555 1_555
O1 H1 1_555 1_555
H2 O1 1_555 1_555
O2 Ca1 1_555 1_555
C1 C4 1_555 1_555
O3 Ca1 1_555 1_555
C2 O2 1_555 1_555
C3 C2 1_555 1_555
H3 C3 1_555 1_555
H4 C3 1_555 1_555
C4 C3 1_555 1_555
H5 C4 1_555 1_555
H6 C4 1_555 1_555
O4 C1 1_555 1_555
C5 C1 1_555 1_555
H7 C5 1_555 1_555
H8 C5 1_555 1_555
H9 C5 1_555 1_555
O1B Ca1 1_555 1_555
H1B O1B 1_555 1_555
H2B O1B 1_555 1_555
O2B Ca1 1_555 1_555
C1B C4B 1_555 1_555
O3B Ca1 1_555 1_555
C2B O2B 1_555 1_555
C3B C2B 1_555 1_555
H3B C3B 1_555 1_555
H4B C3B 1_555 1_555
C4B C3B 1_555 1_555
H5B C4B 1_555 1_555
H6B C4B 1_555 1_555
O4B C1B 1_555 1_555
C5B C1B 1_555 1_555
H7B C5B 1_555 1_555
H8B C5B 1_555 1_555
H9B C5B 1_555 1_555
Ca1D O3B 1_555 1_555
Ca1D_2 O3 1_555 1_555
O3D Ca1 1_555 1_555
O3F Ca1 1_555 1_555
O3 C2 1_555 1_555
O3B C2B 1_555 1_555
Ca1D O3F 1_555 1_555
Ca1D_2 O3D 1_555 1_555

#END
