
#######################################################################
#
#                 Cambridge Crystallographic Data Centre
#                                CCDC 
#
#######################################################################
#
# If this CIF has been generated from an entry in the Cambridge 
# Structural Database, then it will include bibliographic, chemical, 
# crystal, experimental, refinement or atomic coordinate data resulting 
# from the CCDC's data processing and validation procedures.
#
#######################################################################

data_GUHXUE
_symmetry_cell_setting           monoclinic
_symmetry_space_group_name_H-M   'P 21/n'
_symmetry_Int_Tables_number      14
_space_group_name_Hall           '-P 2yn'
loop_
_symmetry_equiv_pos_site_id
_symmetry_equiv_pos_as_xyz
1 x,y,z
2 1/2-x,1/2+y,1/2-z
3 -x,-y,-z
4 1/2+x,1/2-y,1/2+z
_cell_length_a                   3.7792(4)
_cell_length_b                   29.891(4)
_cell_length_c                   7.0139(8)
_cell_angle_alpha                90
_cell_angle_beta                 94.036(10)
_cell_angle_gamma                90
_cell_volume                     790.354
loop_
_atom_site_label
_atom_site_type_symbol
_atom_site_fract_x
_atom_site_fract_y
_atom_site_fract_z
Cu1 Cu 0.5000 0.0000 0.5000
Cl1 Cl 0.91406(17) 0.03090(2) 0.71647(9)
O1 O 0.3701(7) 0.17679(8) -0.1593(3)
O2 O 0.1672(6) 0.20909(6) 0.0994(3)
N1 N 0.4707(6) 0.05771(7) 0.3486(3)
C1 C 0.5365(7) 0.05831(9) 0.1633(4)
H1 H 0.6172 0.0316 0.1070
C2 C 0.4918(7) 0.09617(9) 0.0505(4)
H2 H 0.5444 0.0955 -0.0800
C3 C 0.3693(7) 0.13491(9) 0.1308(4)
C4 C 0.3076(8) 0.13494(9) 0.3240(4)
H3 H 0.2278 0.1613 0.3837
C5 C 0.3647(8) 0.09584(9) 0.4276(4)
H4 H 0.3272 0.0961 0.5601
C6 C 0.3063(8) 0.17503(10) 0.0051(4)
C7 C 0.0886(11) 0.24908(11) -0.0132(5)
H5 H 0.3090 0.2613 -0.0577
H6 H -0.0224 0.2714 0.0657
H7 H -0.0739 0.2416 -0.1236
Cl1B Cl 0.08594(17) -0.03090(2) 0.28353(9)
O1B O 0.6299(7) -0.17679(8) 1.1593(3)
O2B O 0.8328(6) -0.20909(6) 0.9006(3)
N1B N 0.5293(6) -0.05771(7) 0.6514(3)
C1B C 0.4635(7) -0.05831(9) 0.8367(4)
H1B H 0.3828 -0.0316 0.8930
C2B C 0.5082(7) -0.09617(9) 0.9495(4)
H2B H 0.4556 -0.0955 1.0800
C3B C 0.6307(7) -0.13491(9) 0.8692(4)
C4B C 0.6924(8) -0.13494(9) 0.6760(4)
H3B H 0.7722 -0.1613 0.6163
C5B C 0.6353(8) -0.09584(9) 0.5724(4)
H4B H 0.6728 -0.0961 0.4399
C6B C 0.6937(8) -0.17503(10) 0.9949(4)
C7B C 0.9114(11) -0.24908(11) 1.0132(5)
H5B H 0.6910 -0.2613 1.0577
H6B H 1.0224 -0.2714 0.9343
H7B H 1.0739 -0.2416 1.1236
Cu1_2 Cu -0.5000 0.0000 0.5000
Cu1_3 Cu 1.5000 0.0000 0.5000
Cl1_2 Cl -0.08594(17) 0.03090(2) 0.71647(9)
Cl1B_2 Cl 1.08594(17) -0.03090(2) 0.28353(9)
loop_
_geom_bond_atom_site_label_1
_geom_bond_atom_site_label_2
_geom_bond_site_symmetry_1
_geom_bond_site_symmetry_2
Cu1 Cl1 1_555 1_555
Cl1 Cu1_3 1_555 1_555
O1 C6 1_555 1_555
O2 C6 1_555 1_555
N1 Cu1 1_555 1_555
C1 N1 1_555 1_555
H1 C1 1_555 1_555
C2 C1 1_555 1_555
H2 C2 1_555 1_555
C3 C2 1_555 1_555
C4 C3 1_555 1_555
H3 C4 1_555 1_555
C5 N1 1_555 1_555
H4 C5 1_555 1_555
C6 C3 1_555 1_555
C7 O2 1_555 1_555
H5 C7 1_555 1_555
H6 C7 1_555 1_555
H7 C7 1_555 1_555
Cl1B Cu1 1_555 1_555
O1B C6B 1_555 1_555
O2B C6B 1_555 1_555
N1B Cu1 1_555 1_555
C1B N1B 1_555 1_555
H1B C1B 1_555 1_555
C2B C1B 1_555 1_555
H2B C2B 1_555 1_555
C3B C2B 1_555 1_555
C4B C3B 1_555 1_555
H3B C4B 1_555 1_555
C5B N1B 1_555 1_555
H4B C5B 1_555 1_555
C6B C3B 1_555 1_555
C7B O2B 1_555 1_555
H5B C7B 1_555 1_555
H6B C7B 1_555 1_555
H7B C7B 1_555 1_555
Cu1_2 Cl1B 1_555 1_555
Cu1_3 Cl1B_2 1_555 1_555
Cl1_2 Cu1 1_555 1_555
Cl1B_2 Cu1 1_555 1_555
C4 C5 1_555 1_555
C4B C5B 1_555 1_555
Cu1_2 Cl1_2 1_555 1_555

#END
