
#######################################################################
#
#                 Cambridge Crystallographic Data Centre
#                                CCDC 
#
#######################################################################
#
# If this CIF has been generated from an entry in the Cambridge 
# Structural Database, then it will include bibliographic, chemical, 
# crystal, experimental, refinement or atomic coordinate data resulting 
# from the CCDC's data processing and validation procedures.
#
#######################################################################

data_GUHZUG
_symmetry_cell_setting           monoclinic
_symmetry_space_group_name_H-M   'C 2/c'
_symmetry_Int_Tables_number      15
_space_group_name_Hall           '-C 2yn'
loop_
_symmetry_equiv_pos_site_id
_symmetry_equiv_pos_as_xyz
1 x,y,z
2 -x,y,1/2-z
3 1/2+x,1/2+y,z
4 1/2-x,1/2+y,1/2-z
5 -x,-y,-z
6 x,-y,1/2+z
7 1/2-x,1/2-y,-z
8 1/2+x,1/2-y,1/2+z
_cell_length_a                   21.5864(9)
_cell_length_b                   11.8700(5)
_cell_length_c                   23.8077(11)
_cell_angle_alpha                90
_cell_angle_beta                 94.0940(10)
_cell_angle_gamma                90
_cell_volume                     6084.69
loop_
_atom_site_label
_atom_site_type_symbol
_atom_site_fract_x
_atom_site_fract_y
_atom_site_fract_z
Zn1 Zn 1.0000 0.22532(3) 0.2500
N1 N 0.91645(7) 0.22581(15) 0.28660(7)
N2 N 1.04669(8) 0.22541(16) 0.32857(7)
N3 N 1.0000 0.0256(2) 0.2500
N4 N 1.0000 -0.5738(2) 0.2500
C1 C 0.85855(9) 0.22605(18) 0.25900(9)
C2 C 0.81235(10) 0.2277(2) 0.29972(9)
H1 H 0.7686 0.2281 0.2918
C3 C 0.84294(10) 0.2285(2) 0.35128(9)
H2 H 0.8247 0.2297 0.3864
C4 C 0.90852(9) 0.22727(18) 0.34302(9)
C5 C 0.95621(10) 0.22717(19) 0.38646(9)
C6 C 1.02035(10) 0.2261(2) 0.37895(9)
C7 C 1.06873(11) 0.2256(2) 0.42420(10)
H3 H 1.0630 0.2257 0.4634
C8 C 1.12355(11) 0.2248(2) 0.40024(10)
H4 H 1.1637 0.2241 0.4194
C9 C 1.10959(9) 0.22515(19) 0.33991(9)
C10 C 0.84603(9) 0.22563(19) 0.20031(9)
C11 C 0.93854(9) 0.2307(2) 0.44644(9)
C12 C 0.92823(11) 0.1305(2) 0.47539(10)
C13 C 0.91473(12) 0.1362(3) 0.53178(11)
H5 H 0.9075 0.0684 0.5514
C14 C 0.91153(12) 0.2375(3) 0.55981(11)
C15 C 0.92129(12) 0.3353(3) 0.53050(11)
H6 H 0.9188 0.4056 0.5493
C16 C 0.93477(11) 0.3339(2) 0.47406(10)
C17 C 0.94436(15) 0.4424(2) 0.44350(12)
H7 H 0.9869 0.4452 0.4317
H8 H 0.9375 0.5059 0.4686
H9 H 0.9149 0.4468 0.4103
C18 C 0.93094(15) 0.0191(3) 0.44679(12)
H10 H 0.9220 -0.0408 0.4734
H11 H 0.9725 0.0079 0.4337
H12 H 0.9001 0.0171 0.4146
C19 C 0.89685(17) 0.2414(4) 0.62118(12)
H13 H 0.9141 0.3105 0.6386
H14 H 0.9153 0.1758 0.6410
H15 H 0.8517 0.2405 0.6236
C20 C 0.77899(9) 0.2266(2) 0.17820(9)
C21 C 0.74868(10) 0.3287(2) 0.16610(10)
C22 C 0.68699(11) 0.3264(2) 0.14429(11)
H16 H 0.6661 0.3956 0.1364
C23 C 0.65514(10) 0.2266(2) 0.13382(10)
C24 C 0.68586(11) 0.1268(2) 0.14672(10)
H17 H 0.6643 0.0576 0.1406
C25 C 0.74755(10) 0.1244(2) 0.16849(10)
C26 C 0.77979(12) 0.0134(2) 0.17981(13)
H18 H 0.7507 -0.0483 0.1706
H19 H 0.7944 0.0090 0.2197
H20 H 0.8153 0.0074 0.1565
C27 C 0.78189(12) 0.4397(2) 0.17501(13)
H21 H 0.7953 0.4484 0.2150
H22 H 0.7537 0.5014 0.1632
H23 H 0.8182 0.4414 0.1526
C28 C 0.58893(12) 0.2272(3) 0.10754(13)
H24 H 0.5688 0.2984 0.1165
H25 H 0.5659 0.1642 0.1226
H26 H 0.5894 0.2194 0.0666
C29 C 0.95041(11) -0.0340(2) 0.26241(11)
H27 H 0.9144 0.0060 0.2716
C30 C 0.94833(10) -0.14972(19) 0.26273(11)
H28 H 0.9115 -0.1874 0.2717
C31 C 1.0000 -0.2115(3) 0.2500
C32 C 1.0000 -0.3369(2) 0.2500
C33 C 0.94630(11) -0.3990(2) 0.25529(12)
H29 H 0.9079 -0.3615 0.2588
C34 C 0.94854(11) -0.5147(2) 0.25548(12)
H30 H 0.9111 -0.5547 0.2598
N1A N 1.08355(7) 0.22581(15) 0.21340(7)
N2A N 0.95331(8) 0.22541(16) 0.17143(7)
C1A C 1.14145(9) 0.22605(18) 0.24100(9)
C2A C 1.18765(10) 0.2277(2) 0.20028(9)
H1A H 1.2314 0.2281 0.2082
C3A C 1.15706(10) 0.2285(2) 0.14872(9)
H2A H 1.1753 0.2297 0.1136
C4A C 1.09148(9) 0.22727(18) 0.15698(9)
C5A C 1.04379(10) 0.22717(19) 0.11354(9)
C6A C 0.97965(10) 0.2261(2) 0.12105(9)
C7A C 0.93127(11) 0.2256(2) 0.07580(10)
H3A H 0.9370 0.2257 0.0366
C8A C 0.87645(11) 0.2248(2) 0.09976(10)
H4A H 0.8363 0.2241 0.0806
C9A C 0.89041(9) 0.22515(19) 0.16009(9)
C10A C 1.15397(9) 0.22563(19) 0.29969(9)
C11A C 1.06146(9) 0.2307(2) 0.05356(9)
C12A C 1.07177(11) 0.1305(2) 0.02461(10)
C13A C 1.08527(12) 0.1362(3) -0.03178(11)
H5A H 1.0925 0.0684 -0.0514
C14A C 1.08847(12) 0.2375(3) -0.05981(11)
C15A C 1.07871(12) 0.3353(3) -0.03050(11)
H6A H 1.0812 0.4056 -0.0493
C16A C 1.06523(11) 0.3339(2) 0.02594(10)
C17A C 1.05564(15) 0.4424(2) 0.05650(12)
H7A H 1.0131 0.4452 0.0683
H8A H 1.0625 0.5059 0.0314
H9A H 1.0851 0.4468 0.0897
C18A C 1.06906(15) 0.0191(3) 0.05321(12)
H10A H 1.0780 -0.0408 0.0266
H11A H 1.0275 0.0079 0.0663
H12A H 1.0999 0.0171 0.0854
C19A C 1.10315(17) 0.2414(4) -0.12118(12)
H13A H 1.0859 0.3105 -0.1386
H14A H 1.0847 0.1758 -0.1410
H15A H 1.1483 0.2405 -0.1236
C20A C 1.22101(9) 0.2266(2) 0.32180(9)
C21A C 1.25132(10) 0.3287(2) 0.33390(10)
C22A C 1.31301(11) 0.3264(2) 0.35571(11)
H16A H 1.3339 0.3956 0.3636
C23A C 1.34486(10) 0.2266(2) 0.36618(10)
C24A C 1.31414(11) 0.1268(2) 0.35328(10)
H17A H 1.3357 0.0576 0.3594
C25A C 1.25245(10) 0.1244(2) 0.33151(10)
C26A C 1.22021(12) 0.0134(2) 0.32019(13)
H18A H 1.2493 -0.0483 0.3294
H19A H 1.2056 0.0090 0.2803
H20A H 1.1847 0.0074 0.3435
C27A C 1.21811(12) 0.4397(2) 0.32499(13)
H21A H 1.2047 0.4484 0.2850
H22A H 1.2463 0.5014 0.3368
H23A H 1.1818 0.4414 0.3474
C28A C 1.41107(12) 0.2272(3) 0.39246(13)
H24A H 1.4312 0.2984 0.3835
H25A H 1.4341 0.1642 0.3774
H26A H 1.4106 0.2194 0.4334
C29A C 1.04959(11) -0.0340(2) 0.23759(11)
H27A H 1.0856 0.0060 0.2284
C30A C 1.05167(10) -0.14972(19) 0.23727(11)
H28A H 1.0885 -0.1874 0.2283
C33A C 1.05370(11) -0.3990(2) 0.24471(12)
H29A H 1.0921 -0.3615 0.2412
C34A C 1.05146(11) -0.5147(2) 0.24452(12)
H30A H 1.0889 -0.5547 0.2402
Zn1_2 Zn 1.0000 -0.77468(3) 0.2500
N4_2 N 1.0000 0.4262(2) 0.2500
C35 C 0.7576(4) 0.2824(13) 0.4870(3)
H31 H 0.7313 0.2860 0.4512
H32 H 0.8012 0.2694 0.4782
C36 C 0.7511(4) 0.4115(11) 0.5269(4)
H33 H 0.7091 0.4153 0.5409
H34 H 0.7815 0.4092 0.5601
C37 C 0.7597(17) 0.4941(13) 0.5009(10)
H35 H 0.7966 0.4841 0.4798
H36 H 0.7660 0.5580 0.5267
H37 H 0.7235 0.5086 0.4746
C35F C 0.7424(4) 0.2176(13) 0.5130(3)
H31F H 0.7687 0.2140 0.5488
H32F H 0.6988 0.2306 0.5218
C36F C 0.7489(4) 0.0885(11) 0.4731(4)
H33F H 0.7909 0.0847 0.4591
H34F H 0.7185 0.0908 0.4399
C37F C 0.7403(17) 0.0059(13) 0.4991(10)
H35F H 0.7034 0.0159 0.5202
H36F H 0.7340 -0.0580 0.4733
H37F H 0.7765 -0.0086 0.5254
C38? C 0.759(2) 0.5370(14) 0.4948(10)
H38? H 0.7224 0.5528 0.5152
H39? H 0.7595 0.5862 0.4618
H40? H 0.7968 0.5507 0.5196
C39? C 0.7579(5) 0.3863(15) 0.4715(4)
H41? H 0.7241 0.3742 0.4418
H42? H 0.7978 0.3659 0.4562
C40? C 0.7498(5) 0.3327(11) 0.5101(6)
H43? H 0.7094 0.3527 0.5246
H44? H 0.7828 0.3480 0.5402
loop_
_geom_bond_atom_site_label_1
_geom_bond_atom_site_label_2
_geom_bond_site_symmetry_1
_geom_bond_site_symmetry_2
Zn1 N1 1_555 1_555
N1 C1 1_555 1_555
N2 Zn1 1_555 1_555
N3 Zn1 1_555 1_555
N4 C34 1_555 1_555
C1 C2 1_555 1_555
C2 H1 1_555 1_555
C3 C2 1_555 1_555
H2 C3 1_555 1_555
C4 N1 1_555 1_555
C5 C4 1_555 1_555
C6 N2 1_555 1_555
C7 C6 1_555 1_555
H3 C7 1_555 1_555
C8 C7 1_555 1_555
H4 C8 1_555 1_555
C9 N2 1_555 1_555
C10 C1 1_555 1_555
C11 C5 1_555 1_555
C12 C11 1_555 1_555
C13 C12 1_555 1_555
H5 C13 1_555 1_555
C14 C13 1_555 1_555
C15 C14 1_555 1_555
H6 C15 1_555 1_555
C16 C11 1_555 1_555
C17 C16 1_555 1_555
H7 C17 1_555 1_555
H8 C17 1_555 1_555
H9 C17 1_555 1_555
C18 C12 1_555 1_555
H10 C18 1_555 1_555
H11 C18 1_555 1_555
H12 C18 1_555 1_555
C19 C14 1_555 1_555
H13 C19 1_555 1_555
H14 C19 1_555 1_555
H15 C19 1_555 1_555
C20 C10 1_555 1_555
C21 C20 1_555 1_555
C22 C21 1_555 1_555
H16 C22 1_555 1_555
C23 C22 1_555 1_555
C24 C23 1_555 1_555
H17 C24 1_555 1_555
C25 C20 1_555 1_555
C26 C25 1_555 1_555
H18 C26 1_555 1_555
H19 C26 1_555 1_555
H20 C26 1_555 1_555
C27 C21 1_555 1_555
H21 C27 1_555 1_555
H22 C27 1_555 1_555
H23 C27 1_555 1_555
C28 C23 1_555 1_555
H24 C28 1_555 1_555
H25 C28 1_555 1_555
H26 C28 1_555 1_555
C29 N3 1_555 1_555
H27 C29 1_555 1_555
C30 C29 1_555 1_555
H28 C30 1_555 1_555
C31 C30 1_555 1_555
C32 C31 1_555 1_555
C33 C32 1_555 1_555
H29 C33 1_555 1_555
C34 C33 1_555 1_555
H30 C34 1_555 1_555
C35 H31 1_555 1_555
H32 C35 1_555 1_555
C36 C35 1_555 1_555
H33 C36 1_555 1_555
H34 C36 1_555 1_555
C37 C36 1_555 1_555
H35 C37 1_555 1_555
H36 C37 1_555 1_555
H37 C37 1_555 1_555
N1A Zn1 1_555 1_555
N2A Zn1 1_555 1_555
C1A N1A 1_555 1_555
C2A C1A 1_555 1_555
H1A C2A 1_555 1_555
C3A C2A 1_555 1_555
H2A C3A 1_555 1_555
C4A N1A 1_555 1_555
C5A C4A 1_555 1_555
C6A N2A 1_555 1_555
C7A C6A 1_555 1_555
H3A C7A 1_555 1_555
C8A C7A 1_555 1_555
H4A C8A 1_555 1_555
C9A C10 1_555 1_555
C10A C9 1_555 1_555
C11A C5A 1_555 1_555
C12A C11A 1_555 1_555
C13A C12A 1_555 1_555
H5A C13A 1_555 1_555
C14A C13A 1_555 1_555
C15A C14A 1_555 1_555
H6A C15A 1_555 1_555
C16A C11A 1_555 1_555
C17A C16A 1_555 1_555
H7A C17A 1_555 1_555
H8A C17A 1_555 1_555
H9A C17A 1_555 1_555
C18A C12A 1_555 1_555
H10A C18A 1_555 1_555
H11A C18A 1_555 1_555
H12A C18A 1_555 1_555
C19A C14A 1_555 1_555
H13A C19A 1_555 1_555
H14A C19A 1_555 1_555
H15A C19A 1_555 1_555
C20A C10A 1_555 1_555
C21A C20A 1_555 1_555
C22A C21A 1_555 1_555
H16A C22A 1_555 1_555
C23A C22A 1_555 1_555
C24A C23A 1_555 1_555
H17A C24A 1_555 1_555
C25A C20A 1_555 1_555
C26A C25A 1_555 1_555
H18A C26A 1_555 1_555
H19A C26A 1_555 1_555
H20A C26A 1_555 1_555
C27A C21A 1_555 1_555
H21A C27A 1_555 1_555
H22A C27A 1_555 1_555
H23A C27A 1_555 1_555
C28A C23A 1_555 1_555
H24A C28A 1_555 1_555
H25A C28A 1_555 1_555
H26A C28A 1_555 1_555
C29A N3 1_555 1_555
H27A C29A 1_555 1_555
C30A C31 1_555 1_555
H28A C30A 1_555 1_555
C33A C32 1_555 1_555
H29A C33A 1_555 1_555
C34A N4 1_555 1_555
H30A C34A 1_555 1_555
Zn1_2 N4 1_555 1_555
N4_2 Zn1 1_555 1_555
C35F C35 1_555 1_555
H31F C35F 1_555 1_555
H32F C35F 1_555 1_555
C36F C35F 1_555 1_555
H33F C36F 1_555 1_555
H34F C36F 1_555 1_555
C37F C36F 1_555 1_555
H35F C37F 1_555 1_555
H36F C37F 1_555 1_555
H37F C37F 1_555 1_555
C3 C4 1_555 1_555
C5 C6 1_555 1_555
C8 C9 1_555 1_555
C15 C16 1_555 1_555
C24 C25 1_555 1_555
N2A C9A 1_555 1_555
C1A C10A 1_555 1_555
C3A C4A 1_555 1_555
C5A C6A 1_555 1_555
C8A C9A 1_555 1_555
C15A C16A 1_555 1_555
C24A C25A 1_555 1_555
C29A C30A 1_555 1_555
C33A C34A 1_555 1_555

#END
