
#######################################################################
#
#                 Cambridge Crystallographic Data Centre
#                                CCDC 
#
#######################################################################
#
# If this CIF has been generated from an entry in the Cambridge 
# Structural Database, then it will include bibliographic, chemical, 
# crystal, experimental, refinement or atomic coordinate data resulting 
# from the CCDC's data processing and validation procedures.
#
#######################################################################

data_GUHZIT
_symmetry_cell_setting           monoclinic
_symmetry_space_group_name_H-M   'P 21/c'
_symmetry_Int_Tables_number      14
_space_group_name_Hall           '-P 2ybc'
loop_
_symmetry_equiv_pos_site_id
_symmetry_equiv_pos_as_xyz
1 x,y,z
2 -x,1/2+y,1/2-z
3 -x,-y,-z
4 x,1/2-y,1/2+z
_cell_length_a                   17.6782(6)
_cell_length_b                   26.3698(10)
_cell_length_c                   13.6688(4)
_cell_angle_alpha                90
_cell_angle_beta                 95.370(3)
_cell_angle_gamma                90
_cell_volume                     6344.03
loop_
_atom_site_label
_atom_site_type_symbol
_atom_site_fract_x
_atom_site_fract_y
_atom_site_fract_z
Zn1 Zn 0.712644(17) 0.202045(12) 0.30359(2)
Zn2 Zn 0.856126(17) 0.033922(12) 0.28826(2)
Zn3 Zn 0.735586(17) -0.171406(12) 0.43743(2)
C1 C 0.78363(14) 0.21491(10) 0.12020(18)
C2 C 0.82868(14) 0.24502(10) 0.20335(18)
C3 C 0.82362(15) 0.16393(10) 0.11022(18)
H1 H 0.8023 0.1477 0.0484
H2 H 0.8781 0.1705 0.1041
C4 C 0.81771(14) 0.12664(10) 0.19364(18)
C5 C 0.78107(15) 0.24396(10) 0.02360(18)
H3 H 0.7511 0.2241 -0.0279
H4 H 0.8334 0.2470 0.0041
C6 C 0.74673(14) 0.29684(10) 0.02779(18)
C7 C 0.74366(15) -0.03763(10) 0.18962(19)
C8 C 0.70839(15) -0.00977(10) 0.27206(19)
C9 C 0.72080(16) -0.09351(10) 0.18425(19)
H5 H 0.6658 -0.0955 0.1628
H6 H 0.7482 -0.1100 0.1328
C10 C 0.73574(15) -0.12362(11) 0.2779(2)
C11 C 0.71820(16) -0.01121(11) 0.09175(19)
H7 H 0.6632 -0.0173 0.0758
H8 H 0.7255 0.0258 0.1003
C12 C 0.75981(19) -0.02839(11) 0.0060(2)
C13 C 0.60086(18) 0.11099(12) 0.2819(3)
H9 H 0.6448 0.0906 0.2783
C14 C 0.5304(2) 0.08752(14) 0.2795(3)
H10 H 0.5268 0.0516 0.2753
C15 C 0.46642(18) 0.11609(14) 0.2831(2)
H11 H 0.4180 0.1002 0.2798
C16 C 0.47243(16) 0.16873(13) 0.29169(19)
C17 C 0.40925(17) 0.20183(14) 0.2953(2)
H12 H 0.3596 0.1879 0.2943
C18 C 0.41805(17) 0.25222(14) 0.3001(2)
H13 H 0.3746 0.2734 0.3009
C19 C 0.49188(16) 0.27463(12) 0.30402(19)
C20 C 0.50550(18) 0.32725(13) 0.3093(2)
H14 H 0.4642 0.3502 0.3106
C21 C 0.57788(19) 0.34515(12) 0.3126(2)
H15 H 0.5874 0.3806 0.3160
C22 C 0.63803(17) 0.31083(11) 0.3111(2)
H16 H 0.6883 0.3238 0.3127
C23 C 0.55562(15) 0.24318(11) 0.30261(18)
C24 C 0.54625(15) 0.18937(11) 0.29506(18)
C25 C 0.87225(18) 0.10247(11) 0.4711(2)
H17 H 0.8202 0.1109 0.4556
C26 C 0.9113(2) 0.12399(11) 0.5542(2)
H18 H 0.8863 0.1467 0.5943
C27 C 0.98619(19) 0.11197(11) 0.5773(2)
H19 H 1.0132 0.1260 0.6342
C28 C 1.02288(17) 0.07893(10) 0.5170(2)
C29 C 1.10067(17) 0.06445(12) 0.5348(2)
H20 H 1.1298 0.0769 0.5917
C30 C 1.13352(16) 0.03386(12) 0.4734(2)
H21 H 1.1855 0.0251 0.4875
C31 C 1.09197(16) 0.01385(11) 0.3866(2)
C32 C 1.12304(17) -0.01707(12) 0.3192(3)
H22 H 1.1753 -0.0259 0.3284
C33 C 1.07911(18) -0.03488(13) 0.2397(3)
H23 H 1.1001 -0.0563 0.1934
C34 C 1.00259(18) -0.02112(12) 0.2274(2)
H24 H 0.9722 -0.0335 0.1715
C35 C 1.01457(15) 0.02625(10) 0.3682(2)
C36 C 0.97967(15) 0.05931(10) 0.4340(2)
C37 C 0.72726(17) -0.10768(12) 0.6281(2)
H25 H 0.6785 -0.0974 0.5999
C38 C 0.75317(18) -0.08811(12) 0.7192(2)
H26 H 0.7227 -0.0655 0.7527
C39 C 0.8241(2) -0.10223(13) 0.7600(2)
H27 H 0.8431 -0.0895 0.8225
C40 C 0.86803(18) -0.13520(11) 0.7094(2)
C41 C 0.94330(19) -0.15112(13) 0.7444(2)
H28 H 0.9648 -0.1399 0.8070
C42 C 0.98376(18) -0.18131(13) 0.6913(2)
H29 H 1.0333 -0.1914 0.7170
C43 C 0.95458(16) -0.19890(12) 0.5965(2)
C44 C 0.99501(17) -0.22975(12) 0.5371(3)
H30 H 1.0442 -0.2415 0.5605
C45 C 0.96449(18) -0.24305(12) 0.4460(2)
H31 H 0.9923 -0.2635 0.4047
C46 C 0.89107(17) -0.22602(11) 0.4136(2)
H32 H 0.8699 -0.2354 0.3497
C47 C 0.88095(15) -0.18421(10) 0.5589(2)
C48 C 0.83732(15) -0.15271(10) 0.6167(2)
C49 C 0.72048(17) -0.28894(12) 0.4435(2)
H33 H 0.7741 -0.2896 0.4418
C50 C 0.6814(2) -0.33517(12) 0.4448(2)
H34 H 0.7081 -0.3664 0.4425
C51 C 0.60452(19) -0.33489(13) 0.4493(2)
H35 H 0.5774 -0.3659 0.4517
C52 C 0.56614(17) -0.28879(12) 0.4502(2)
C53 C 0.48545(18) -0.28460(15) 0.4506(2)
H36 H 0.4559 -0.3146 0.4525
C54 C 0.45070(18) -0.23978(15) 0.4483(2)
H37 H 0.3970 -0.2384 0.4489
C55 C 0.49279(16) -0.19372(13) 0.4450(2)
C56 C 0.45893(19) -0.14578(15) 0.4394(3)
H38 H 0.4055 -0.1424 0.4405
C57 C 0.5027(2) -0.10447(15) 0.4325(3)
H39 H 0.4803 -0.0717 0.4292
C58 C 0.58183(18) -0.10960(13) 0.4301(2)
H40 H 0.6118 -0.0801 0.4235
C59 C 0.57208(16) -0.19609(12) 0.44313(19)
C60 C 0.60923(15) -0.24415(11) 0.44660(19)
O1 O 0.70759(10) 0.20727(7) 0.14476(12)
O2 O 0.80127(10) 0.24838(7) 0.28564(12)
O3 O 0.89098(10) 0.26139(7) 0.18555(13)
O4 O 0.78461(10) 0.13644(7) 0.26748(13)
O5 O 0.85041(10) 0.08420(7) 0.18119(13)
O6 O 0.72669(10) 0.31852(7) -0.05431(12)
O7 O 0.74113(11) 0.31714(7) 0.10742(13)
O8 O 0.82461(10) -0.03379(7) 0.20785(13)
O9 O 0.75173(10) 0.01971(7) 0.32665(13)
O10 O 0.63975(10) -0.01493(8) 0.27897(14)
O11 O 0.74527(11) -0.10117(7) 0.35891(13)
O12 O 0.73506(11) -0.17116(7) 0.27346(15)
O13 O 0.82830(12) -0.04409(8) 0.02414(15)
O14 O 0.72829(16) -0.02435(11) -0.07775(16)
N1 N 0.60883(13) 0.16082(9) 0.28920(16)
N2 N 0.62803(12) 0.26144(9) 0.30750(15)
N3 N 0.90495(13) 0.07086(8) 0.41314(16)
N4 N 0.97028(13) 0.00838(9) 0.28984(17)
N5 N 0.76616(12) -0.13972(9) 0.57813(16)
N6 N 0.85008(13) -0.19735(9) 0.46836(17)
N7 N 0.68599(13) -0.24467(9) 0.44474(16)
N8 N 0.61540(13) -0.15450(10) 0.43681(17)
H41 H 0.691(2) 0.1815(10) 0.112(3)
H42 H 0.845(2) -0.0371(18) 0.1547(17)
Zn1C Zn 0.712644(17) 0.297955(12) -0.19641(2)
O6C O 0.72669(10) 0.18148(7) 0.44569(12)
O15 O 1.01114(13) 0.18293(10) 0.77510(17)
H43 H 0.9756(16) 0.2005(14) 0.744(3)
H44 H 0.9896(19) 0.1637(14) 0.815(3)
O16 O 0.84232(14) -0.20614(10) 0.14494(18)
H45 H 0.8076(14) -0.1959(18) 0.180(2)
H46 H 0.8855(10) -0.2008(17) 0.177(3)
O17 O 0.73495(16) 0.08686(11) 0.9025(2)
H47 H 0.7745(16) 0.1031(16) 0.888(3)
H48 H 0.716(2) 0.0709(15) 0.853(2)
O18 O 0.87408(15) -0.14328(9) -0.00974(18)
H49 H 0.860(3) -0.1130(6) 0.000(3)
H50 H 0.871(3) -0.1612(11) 0.0416(18)
O19 O 0.51977(14) 0.06807(9) 0.04077(18)
H51 H 0.502(3) 0.0647(14) -0.0193(12)
H52 H 0.522(3) 0.0387(8) 0.067(2)
O20 O 0.65680(14) 0.37925(9) 0.55339(17)
H53 H 0.678(2) 0.3871(17) 0.5019(19)
H54 H 0.6155(14) 0.3953(15) 0.555(3)
O21 O 0.83745(18) 0.15117(11) 0.8459(3)
H55 H 0.827(2) 0.1827(6) 0.834(3)
H56 H 0.8865(7) 0.1499(14) 0.859(4)
O22 O 0.51768(15) -0.03263(12) 0.1459(2)
H57 H 0.522(3) -0.0652(4) 0.153(3)
H58 H 0.548(2) -0.0194(12) 0.192(2)
O23 O 1.02477(17) -0.13416(14) 0.0470(3)
H59 H 0.9788(11) -0.1419(16) 0.025(3)
H60 H 1.040(2) -0.1112(14) 0.009(3)
O24 O 0.38381(19) -0.01288(16) 0.2179(3)
H61 H 0.407(2) 0.0070(17) 0.177(3)
H62 H 0.3393(11) -0.0168(17) 0.187(3)
O25 O 0.7109(2) 0.08305(13) 0.6607(3)
H63 H 0.736(3) 0.0881(14) 0.715(2)
H64 H 0.699(3) 0.0526(6) 0.651(3)
O26 O 1.0808(2) -0.04723(12) -0.0217(2)
H65 H 1.1241(15) -0.0534(16) 0.009(3)
H66 H 1.064(2) -0.0194(11) 0.002(3)
O27 O 0.5908(3) -0.0233(2) 0.6139(4)
H67 H 0.558(3) -0.009(3) 0.574(5)
H68 H 0.630(3) -0.004(3) 0.625(7)
O28 O 0.5658(3) 0.0115(2) 0.4431(4)
H69 H 0.593(4) 0.036(2) 0.467(5)
H70 H 0.585(4) 0.001(3) 0.392(4)
O29 O 0.6873(2) 0.07933(16) 0.4704(3)
O30? O 0.6817(5) 0.0223(3) 0.5050(5)
loop_
_geom_bond_atom_site_label_1
_geom_bond_atom_site_label_2
_geom_bond_site_symmetry_1
_geom_bond_site_symmetry_2
Zn1 O1 1_555 1_555
Zn2 O5 1_555 1_555
Zn3 O11 1_555 1_555
C1 C2 1_555 1_555
C2 O2 1_555 1_555
C3 C1 1_555 1_555
H1 C3 1_555 1_555
H2 C3 1_555 1_555
C4 C3 1_555 1_555
C5 C1 1_555 1_555
H3 C5 1_555 1_555
H4 C5 1_555 1_555
C6 C5 1_555 1_555
C7 C8 1_555 1_555
C8 O9 1_555 1_555
C9 C7 1_555 1_555
H5 C9 1_555 1_555
H6 C9 1_555 1_555
C10 C9 1_555 1_555
C11 C7 1_555 1_555
H7 C11 1_555 1_555
H8 C11 1_555 1_555
C12 C11 1_555 1_555
C13 H9 1_555 1_555
C14 C13 1_555 1_555
H10 C14 1_555 1_555
C15 C14 1_555 1_555
H11 C15 1_555 1_555
C16 C15 1_555 1_555
C17 C16 1_555 1_555
H12 C17 1_555 1_555
C18 C17 1_555 1_555
H13 C18 1_555 1_555
C19 C18 1_555 1_555
C20 C19 1_555 1_555
H14 C20 1_555 1_555
C21 C20 1_555 1_555
H15 C21 1_555 1_555
C22 C21 1_555 1_555
H16 C22 1_555 1_555
C23 C19 1_555 1_555
C24 C16 1_555 1_555
C25 H17 1_555 1_555
C26 C25 1_555 1_555
H18 C26 1_555 1_555
C27 C26 1_555 1_555
H19 C27 1_555 1_555
C28 C27 1_555 1_555
C29 C28 1_555 1_555
H20 C29 1_555 1_555
C30 C29 1_555 1_555
H21 C30 1_555 1_555
C31 C30 1_555 1_555
C32 C31 1_555 1_555
H22 C32 1_555 1_555
C33 C32 1_555 1_555
H23 C33 1_555 1_555
C34 C33 1_555 1_555
H24 C34 1_555 1_555
C35 C31 1_555 1_555
C36 C28 1_555 1_555
C37 H25 1_555 1_555
C38 C37 1_555 1_555
H26 C38 1_555 1_555
C39 C38 1_555 1_555
H27 C39 1_555 1_555
C40 C39 1_555 1_555
C41 C40 1_555 1_555
H28 C41 1_555 1_555
C42 C41 1_555 1_555
H29 C42 1_555 1_555
C43 C42 1_555 1_555
C44 C43 1_555 1_555
H30 C44 1_555 1_555
C45 C44 1_555 1_555
H31 C45 1_555 1_555
C46 C45 1_555 1_555
H32 C46 1_555 1_555
C47 C43 1_555 1_555
C48 C40 1_555 1_555
C49 H33 1_555 1_555
C50 C49 1_555 1_555
H34 C50 1_555 1_555
C51 C50 1_555 1_555
H35 C51 1_555 1_555
C52 C51 1_555 1_555
C53 C52 1_555 1_555
H36 C53 1_555 1_555
C54 C53 1_555 1_555
H37 C54 1_555 1_555
C55 C54 1_555 1_555
C56 C55 1_555 1_555
H38 C56 1_555 1_555
C57 C56 1_555 1_555
H39 C57 1_555 1_555
C58 C57 1_555 1_555
H40 C58 1_555 1_555
C59 C55 1_555 1_555
C60 C52 1_555 1_555
O1 C1 1_555 1_555
O2 Zn1 1_555 1_555
O3 C2 1_555 1_555
O4 Zn1 1_555 1_555
O5 C4 1_555 1_555
O6 C6 1_555 1_555
O7 C6 1_555 1_555
O8 Zn2 1_555 1_555
O9 Zn2 1_555 1_555
O10 C8 1_555 1_555
O11 C10 1_555 1_555
O12 Zn3 1_555 1_555
O13 C12 1_555 1_555
O14 C12 1_555 1_555
N1 Zn1 1_555 1_555
N2 Zn1 1_555 1_555
N3 Zn2 1_555 1_555
N4 Zn2 1_555 1_555
N5 Zn3 1_555 1_555
N6 Zn3 1_555 1_555
N7 Zn3 1_555 1_555
N8 Zn3 1_555 1_555
O15 H43 1_555 1_555
O16 H45 1_555 1_555
O17 H47 1_555 1_555
O18 H49 1_555 1_555
O19 H51 1_555 1_555
O20 H53 1_555 1_555
O21 H55 1_555 1_555
O22 H57 1_555 1_555
O23 H59 1_555 1_555
O24 H61 1_555 1_555
O25 H63 1_555 1_555
O26 H65 1_555 1_555
O27 H67 1_555 1_555
O28 H69 1_555 1_555
H41 O1 1_555 1_555
H42 O8 1_555 1_555
H44 O15 1_555 1_555
H46 O16 1_555 1_555
H48 O17 1_555 1_555
H50 O18 1_555 1_555
H52 O19 1_555 1_555
H54 O20 1_555 1_555
H56 O21 1_555 1_555
H58 O22 1_555 1_555
H60 O23 1_555 1_555
H62 O24 1_555 1_555
H64 O25 1_555 1_555
H66 O26 1_555 1_555
H68 O27 1_555 1_555
H70 O28 1_555 1_555
Zn1C O6 1_555 1_555
O6C Zn1 1_555 1_555
C4 O4 1_555 1_555
C7 O8 1_555 1_555
C10 O12 1_555 1_555
C13 N1 1_555 1_555
C22 N2 1_555 1_555
C23 C24 1_555 1_555
C23 N2 1_555 1_555
C24 N1 1_555 1_555
C25 N3 1_555 1_555
C34 N4 1_555 1_555
C35 C36 1_555 1_555
C35 N4 1_555 1_555
C36 N3 1_555 1_555
C37 N5 1_555 1_555
C46 N6 1_555 1_555
C47 C48 1_555 1_555
C47 N6 1_555 1_555
C48 N5 1_555 1_555
C49 N7 1_555 1_555
C58 N8 1_555 1_555
C59 C60 1_555 1_555
C59 N8 1_555 1_555
C60 N7 1_555 1_555

#END
