
#######################################################################
#
#                 Cambridge Crystallographic Data Centre
#                                CCDC 
#
#######################################################################
#
# If this CIF has been generated from an entry in the Cambridge 
# Structural Database, then it will include bibliographic, chemical, 
# crystal, experimental, refinement or atomic coordinate data resulting 
# from the CCDC's data processing and validation procedures.
#
#######################################################################

data_GUJBOD
_symmetry_cell_setting           monoclinic
_symmetry_space_group_name_H-M   'C 2/c'
_symmetry_Int_Tables_number      15
_space_group_name_Hall           '-C 2yn'
loop_
_symmetry_equiv_pos_site_id
_symmetry_equiv_pos_as_xyz
1 x,y,z
2 -x,y,1/2-z
3 1/2+x,1/2+y,z
4 1/2-x,1/2+y,1/2-z
5 -x,-y,-z
6 x,-y,1/2+z
7 1/2-x,1/2-y,-z
8 1/2+x,1/2-y,1/2+z
_cell_length_a                   22.194(4)
_cell_length_b                   9.5006(11)
_cell_length_c                   13.380(3)
_cell_angle_alpha                90
_cell_angle_beta                 121.435(8)
_cell_angle_gamma                90
_cell_volume                     2407.19
loop_
_atom_site_label
_atom_site_type_symbol
_atom_site_fract_x
_atom_site_fract_y
_atom_site_fract_z
Br1 Br 0.31367(2) 0.73342(4) -0.08177(4)
Br2 Br 0.16502(2) 1.03595(4) -0.15990(4)
Cu1 Cu 0.19061(3) 0.78974(6) -0.10514(5)
Cu2 Cu 0.27325(3) 0.48367(6) -0.05209(5)
N1 N 0.17024(17) 0.4966(3) -0.1712(3)
N2 N 0.13416(17) 0.6238(3) -0.2033(3)
N3 N 0.06060(16) 0.4572(3) -0.3099(3)
N4 N -0.18604(19) 0.1586(4) -0.6272(3)
H1 H -0.2264 0.1999 -0.6633
H2 H -0.1830 0.0704 -0.6387
C1 C -0.0026(2) 0.3828(4) -0.3930(3)
C2 C 0.0016(2) 0.2410(4) -0.4133(4)
H3 H 0.0450 0.1952 -0.3756
C3 C -0.0593(2) 0.1682(5) -0.4901(4)
H4 H -0.0566 0.0727 -0.5026
C4 C -0.1244(2) 0.2357(4) -0.5489(3)
C5 C -0.1275(2) 0.3778(4) -0.5286(3)
H5 H -0.1708 0.4241 -0.5673
C6 C -0.0671(2) 0.4515(4) -0.4515(3)
H6 H -0.0698 0.5469 -0.4389
C7 C 0.1248(2) 0.3999(4) -0.2371(4)
H7 H 0.135(3) 0.305(5) -0.236(4)
C8 C 0.0697(2) 0.5980(4) -0.2849(3)
H8 H 0.039(2) 0.660(5) -0.318(4)
Br1F Br 0.18633(2) 0.76658(4) 0.08177(4)
Br2F Br 0.33498(2) 0.46405(4) 0.15990(4)
Cu1F Cu 0.30939(3) 0.71026(6) 0.10514(5)
Cu1G Cu 0.69061(3) -0.28974(6) 0.39486(5)
Cu2F Cu 0.22675(3) 1.01633(6) 0.05209(5)
Cu2G Cu -0.22675(3) 0.01633(6) -0.55209(5)
Cu2G_2 Cu 0.77325(3) 0.01633(6) 0.44791(5)
N1G N 0.67024(17) 0.0034(3) 0.3288(3)
N1F N 0.32976(17) 1.0034(3) 0.1712(3)
N2G N 0.63416(17) -0.1238(3) 0.2967(3)
N2F N 0.36584(17) 0.8762(3) 0.2033(3)
N3G N 0.56060(16) 0.0428(3) 0.1901(3)
N4G N 0.31396(19) 0.3414(4) -0.1272(3)
N4A N 0.18604(19) 1.1586(4) 0.1272(3)
H1G H 0.2736 0.3001 -0.1633
H1A H 0.2264 1.1999 0.1633
H2G H 0.3170 0.4296 -0.1387
H2A H 0.1830 1.0704 0.1387
C1G C 0.4974(2) 0.1172(4) 0.1070(3)
C2G C 0.5016(2) 0.2590(4) 0.0867(4)
H3G H 0.5450 0.3048 0.1244
C3G C 0.4407(2) 0.3318(5) 0.0099(4)
H4G H 0.4434 0.4273 -0.0026
C4G C 0.3756(2) 0.2643(4) -0.0489(3)
C5G C 0.3725(2) 0.1222(4) -0.0286(3)
H5G H 0.3292 0.0759 -0.0673
C6G C 0.4329(2) 0.0485(4) 0.0485(3)
H6G H 0.4302 -0.0469 0.0611
C7G C 0.6248(2) 0.1001(4) 0.2629(4)
H7G H 0.635(3) 0.195(5) 0.264(4)
C8G C 0.5697(2) -0.0980(4) 0.2151(3)
H8G H 0.539(2) -0.160(5) 0.182(4)
O1 O 0.5000 0.6271(10) 0.2500
C9? C 0.4908(19) 0.612(4) 0.167(3)
loop_
_geom_bond_atom_site_label_1
_geom_bond_atom_site_label_2
_geom_bond_site_symmetry_1
_geom_bond_site_symmetry_2
Br1 Cu1 1_555 1_555
Br2 Cu1 1_555 1_555
Cu1 N2 1_555 1_555
Cu2 Br1 1_555 1_555
N1 Cu2 1_555 1_555
N2 N1 1_555 1_555
N3 C1 1_555 1_555
N4 H1 1_555 1_555
H2 N4 1_555 1_555
C1 C2 1_555 1_555
C2 H3 1_555 1_555
C3 C2 1_555 1_555
H4 C3 1_555 1_555
C4 N4 1_555 1_555
C5 C4 1_555 1_555
H5 C5 1_555 1_555
C6 C1 1_555 1_555
H6 C6 1_555 1_555
C7 N1 1_555 1_555
H7 C7 1_555 1_555
C8 N2 1_555 1_555
H8 C8 1_555 1_555
Br1F Cu1 1_555 1_555
Br2F Cu2 1_555 1_555
Cu1F Br1 1_555 1_555
Cu1G N2G 1_555 1_555
Cu2F Br2 1_555 1_555
Cu2G N4 1_555 1_555
Cu2G_2 N1G 1_555 1_555
N1G N2G 1_555 1_555
N1F Cu2F 1_555 1_555
N2G C8G 1_555 1_555
N2F Cu1F 1_555 1_555
N3G C1G 1_555 1_555
N4G Cu2 1_555 1_555
N4A Cu2F 1_555 1_555
H1G N4G 1_555 1_555
H1A N4A 1_555 1_555
H2G N4G 1_555 1_555
H2A N4A 1_555 1_555
C1G C2G 1_555 1_555
C2G H3G 1_555 1_555
C3G C2G 1_555 1_555
H4G C3G 1_555 1_555
C4G N4G 1_555 1_555
C5G C4G 1_555 1_555
H5G C5G 1_555 1_555
C6G C1G 1_555 1_555
H6G C6G 1_555 1_555
C7G N1G 1_555 1_555
H7G C7G 1_555 1_555
C8G N3G 1_555 1_555
H8G C8G 1_555 1_555
N3 C7 1_555 1_555
N3 C8 1_555 1_555
C3 C4 1_555 1_555
C5 C6 1_555 1_555
Br1F Cu1F 1_555 1_555
Br1F Cu2F 1_555 1_555
Br2F Cu1F 1_555 1_555
N1F N2F 1_555 1_555
N3G C7G 1_555 1_555
C3G C4G 1_555 1_555
C5G C6G 1_555 1_555

#END
