
#######################################################################
#
#                 Cambridge Crystallographic Data Centre
#                                CCDC 
#
#######################################################################
#
# If this CIF has been generated from an entry in the Cambridge 
# Structural Database, then it will include bibliographic, chemical, 
# crystal, experimental, refinement or atomic coordinate data resulting 
# from the CCDC's data processing and validation procedures.
#
#######################################################################

data_GUJBUJ
_symmetry_cell_setting           monoclinic
_symmetry_space_group_name_H-M   'P 21/c'
_symmetry_Int_Tables_number      14
_space_group_name_Hall           '-P 2ybc'
loop_
_symmetry_equiv_pos_site_id
_symmetry_equiv_pos_as_xyz
1 x,y,z
2 -x,1/2+y,1/2-z
3 -x,-y,-z
4 x,1/2-y,1/2+z
_cell_length_a                   11.4972(8)
_cell_length_b                   22.8702(10)
_cell_length_c                   11.4218(8)
_cell_angle_alpha                90
_cell_angle_beta                 111.243(3)
_cell_angle_gamma                90
_cell_volume                     2799.22
loop_
_atom_site_label
_atom_site_type_symbol
_atom_site_fract_x
_atom_site_fract_y
_atom_site_fract_z
W1 W 0.17199(3) 0.525828(18) 0.38187(4)
W2 W 0.30829(4) 0.432560(18) 0.64568(4)
W3 W 0.29013(4) 0.386250(19) 0.34115(4)
W4 W 0.36447(4) 0.594680(19) 0.23896(4)
W5 W 0.38112(4) 0.638386(18) 0.54263(4)
W6 W 0.47766(5) 0.45576(3) 0.19291(4)
P1 P 0.5000 0.5000 0.5000
O1 O 0.1838(10) 0.4523(4) 0.3112(8)
O2 O 0.2322(12) 0.5937(4) 0.4796(9)
O3 O 0.2181(12) 0.5619(5) 0.2558(9)
O4 O 0.1980(10) 0.4853(4) 0.5361(8)
O5 O 0.2201(10) 0.3988(4) 0.7141(10)
O6 O 0.4634(9) 0.3932(5) 0.7223(15)
O7 O 0.2832(10) 0.3839(4) 0.5038(8)
O8 O 0.1913(10) 0.3335(4) 0.2675(9)
O9 O 0.3730(11) 0.6439(4) 0.3748(9)
O10 O 0.3251(9) 0.7041(4) 0.5628(11)
O11 O 0.3801(9) 0.5238(5) 0.1600(14)
O12 O 0.3039(9) 0.6402(4) 0.1179(8)
O13 O 0.4684(10) 0.4350(4) 0.0499(8)
O14 O 0.3441(10) 0.4153(7) 0.2131(11)
O15 O 0.3784(9) 0.4957(5) 0.7552(14)
O16 O 0.0187(8) 0.5377(7) 0.3248(10)
O17 O 0.4163(9) 0.6028(6) 0.7016(10)
O18 O 0.4452(9) 0.3465(6) 0.4066(10)
O19 O 0.4754(12) 0.4453(6) 0.4134(11)
O20 O 0.5096(12) 0.5239(5) 0.3715(11)
O21 O 0.3936(10) 0.5434(5) 0.4434(10)
O22 O 0.3757(11) 0.4755(5) 0.4741(11)
H17 H -0.056(5) 0.537(8) 0.321(16)
W1B W 0.82801(3) 0.474172(18) 0.61813(4)
W2B W 0.69171(4) 0.567440(18) 0.35432(4)
W3B W 0.70987(4) 0.613750(19) 0.65885(4)
W4B W 0.63553(4) 0.405320(19) 0.76104(4)
W5B W 0.61888(4) 0.361614(18) 0.45737(4)
W6B W 0.52234(5) 0.54424(3) 0.80709(4)
O1B O 0.8162(10) 0.5477(4) 0.6888(8)
O2B O 0.7678(12) 0.4063(4) 0.5204(9)
O3B O 0.7819(12) 0.4381(5) 0.7442(9)
O4B O 0.8020(10) 0.5147(4) 0.4639(8)
O5B O 0.7799(10) 0.6012(4) 0.2859(10)
O6B O 0.5366(9) 0.6068(5) 0.2777(15)
O7B O 0.7168(10) 0.6161(4) 0.4962(8)
O8B O 0.8087(10) 0.6665(4) 0.7325(9)
O9B O 0.6270(11) 0.3561(4) 0.6252(9)
O10B O 0.6749(9) 0.2959(4) 0.4372(11)
O11B O 0.6199(9) 0.4762(5) 0.8400(14)
O12B O 0.6961(9) 0.3598(4) 0.8821(8)
O13B O 0.5316(10) 0.5650(4) 0.9501(8)
O14B O 0.6559(10) 0.5847(7) 0.7869(11)
O15B O 0.6216(9) 0.5043(5) 0.2448(14)
O16B O 0.9813(8) 0.4623(7) 0.6752(10)
O17B O 0.5837(9) 0.3972(6) 0.2984(10)
O18B O 0.5548(9) 0.6535(6) 0.5934(10)
O19B O 0.5246(12) 0.5547(6) 0.5866(11)
O20B O 0.4904(12) 0.4761(5) 0.6285(11)
O21B O 0.6064(10) 0.4566(5) 0.5566(10)
O22B O 0.6243(11) 0.5245(5) 0.5259(11)
H17B H 1.056(5) 0.463(8) 0.679(16)
Cu1 Cu 0.71636(12) 0.26595(8) 1.21343(14)
N1 N 0.5392(7) 0.2727(3) 1.1295(8)
C1 C 0.4848(9) 0.2994(5) 1.0190(9)
H1 H 0.5353 0.3176 0.9822
C2 C 0.3568(9) 0.3012(5) 0.9570(9)
H2 H 0.3226 0.3204 0.8802
C3 C 0.2798(8) 0.2741(4) 1.0106(9)
C4 C 0.3361(9) 0.2476(5) 1.1257(9)
H3 H 0.2880 0.2293 1.1651
C5 C 0.4640(9) 0.2484(5) 1.1818(9)
H4 H 0.5002 0.2311 1.2604
N2 N -0.1166(8) 0.2577(5) 0.8133(11)
C6 C -0.0538(10) 0.2220(6) 0.9089(14)
H5 H -0.0975 0.1921 0.9298
C7 C 0.0723(10) 0.2274(6) 0.9775(12)
H6 H 0.1109 0.2029 1.0455
C8 C 0.1410(8) 0.2699(5) 0.9437(10)
C9 C 0.0766(10) 0.3064(6) 0.8434(12)
H7 H 0.1184 0.3356 0.8177
C10 C -0.0519(10) 0.2984(6) 0.7820(13)
H8 H -0.0940 0.3232 0.7155
N3 N 0.8117(13) 0.3448(5) 1.1647(13)
C11 C 0.8956(14) 0.3285(4) 1.1084(15)
H9 H 0.9126 0.2892 1.1016
C12 C 0.9542(13) 0.3710(6) 1.0623(14)
H10 H 1.0103 0.3601 1.0247
C13 C 0.9289(13) 0.4298(5) 1.0725(13)
C14 C 0.8450(15) 0.4461(4) 1.1288(15)
H11 H 0.8280 0.4855 1.1356
C15 C 0.7864(13) 0.4036(6) 1.1749(15)
H12 H 0.7303 0.4145 1.2126
N4 N 0.8958(17) 0.4444(7) 1.0864(17)
C16 C 0.8533(14) 0.5018(8) 1.0685(16)
H13 H 0.7873 0.5131 1.0921
C17 C 0.9095(15) 0.5423(6) 1.0151(17)
H14 H 0.8811 0.5807 1.0031
C18 C 0.9918(16) 0.4746(7) 1.0203(18)
C19 C 0.9494(15) 0.5320(8) 1.0023(19)
H15 H 0.8833 0.5433 1.0260
C20 C 0.9945(17) 0.4275(6) 1.0510(18)
H16 H 1.0229 0.3891 1.0630
Cu1C Cu 1.71636(12) 0.23405(8) 1.71343(14)
Cu1C_2 Cu -0.28364(12) 0.23405(8) 0.71343(14)
Cu1B Cu 1.28364(12) 0.73405(8) 0.78657(14)
N1C N 1.5392(7) 0.2273(3) 1.6295(8)
C1C C 1.4848(9) 0.2006(5) 1.5190(9)
H1C H 1.5353 0.1824 1.4822
C2C C 1.3568(9) 0.1988(5) 1.4570(9)
H2C H 1.3226 0.1796 1.3802
C3C C 1.2798(8) 0.2259(4) 1.5106(9)
C4C C 1.3361(9) 0.2524(5) 1.6257(9)
H3C H 1.2880 0.2707 1.6651
C5C C 1.4640(9) 0.2516(5) 1.6818(9)
H4C H 1.5002 0.2689 1.7604
N2C N 0.8834(8) 0.2423(5) 1.3133(11)
N2_2 N 1.8834(8) 0.2577(5) 1.8133(11)
C6C C 0.9462(10) 0.2780(6) 1.4089(14)
H5C H 0.9025 0.3079 1.4298
C7C C 1.0723(10) 0.2726(6) 1.4775(12)
H6C H 1.1109 0.2971 1.5455
C8C C 1.1410(8) 0.2301(5) 1.4437(10)
C9C C 1.0766(10) 0.1936(6) 1.3434(12)
H7C H 1.1184 0.1644 1.3177
C10C C 0.9481(10) 0.2016(6) 1.2820(13)
H8C H 0.9060 0.1768 1.2155
N3B N 1.1883(13) 0.6552(5) 0.8353(13)
N3C N 1.8117(13) 0.1552(5) 1.6647(13)
C11B C 1.1044(14) 0.6715(4) 0.8916(15)
H9B H 1.0874 0.7108 0.8984
C12B C 1.0458(13) 0.6290(6) 0.9377(14)
H10B H 0.9897 0.6399 0.9753
C13B C 1.0711(13) 0.5702(5) 0.9275(13)
C14B C 1.1550(15) 0.5539(4) 0.8712(15)
H11B H 1.1720 0.5145 0.8644
C15B C 1.2136(13) 0.5964(6) 0.8251(15)
H12B H 1.2697 0.5855 0.7874
N4B N 1.1042(17) 0.5556(7) 0.9136(17)
C16B C 1.1467(14) 0.4982(8) 0.9315(16)
H13B H 1.2127 0.4869 0.9079
C17B C 1.0905(15) 0.4577(6) 0.9849(17)
H14B H 1.1189 0.4193 0.9969
C18B C 1.0082(16) 0.5254(7) 0.9797(18)
C19B C 1.0506(15) 0.4680(8) 0.9977(19)
H15B H 1.1167 0.4567 0.9740
C20B C 1.0055(17) 0.5725(6) 0.9490(18)
H16B H 0.9771 0.6109 0.9370
loop_
_geom_bond_atom_site_label_1
_geom_bond_atom_site_label_2
_geom_bond_site_symmetry_1
_geom_bond_site_symmetry_2
W1 O1 1_555 1_555
W2 O4 1_555 1_555
W3 O1 1_555 1_555
W4 O3 1_555 1_555
W5 O2 1_555 1_555
W6 O11 1_555 1_555
P1 O19 1_555 1_555
Cu1 N1 1_555 1_555
O2 W1 1_555 1_555
O3 W1 1_555 1_555
O4 W1 1_555 1_555
O5 W2 1_555 1_555
O6 W2 1_555 1_555
O7 W2 1_555 1_555
O8 W3 1_555 1_555
O9 W4 1_555 1_555
O10 W5 1_555 1_555
O11 W4 1_555 1_555
O12 W4 1_555 1_555
O13 W6 1_555 1_555
O14 W3 1_555 1_555
O15 W2 1_555 1_555
O16 W1 1_555 1_555
O17 W5 1_555 1_555
O18 W3 1_555 1_555
O19 W3 1_555 1_555
O20 W4 1_555 1_555
O21 W1 1_555 1_555
O22 W1 1_555 1_555
N1 C1 1_555 1_555
C1 H1 1_555 1_555
C2 C1 1_555 1_555
H2 C2 1_555 1_555
C3 C2 1_555 1_555
C4 C3 1_555 1_555
H3 C4 1_555 1_555
C5 N1 1_555 1_555
H4 C5 1_555 1_555
N2 C6 1_555 1_555
C6 H5 1_555 1_555
C7 C6 1_555 1_555
H6 C7 1_555 1_555
C8 C3 1_555 1_555
C9 C8 1_555 1_555
H7 C9 1_555 1_555
C10 N2 1_555 1_555
H8 C10 1_555 1_555
N3 Cu1 1_555 1_555
C11 N3 1_555 1_555
H9 C11 1_555 1_555
C12 C11 1_555 1_555
H10 C12 1_555 1_555
C13 C12 1_555 1_555
C14 C13 1_555 1_555
H11 C14 1_555 1_555
C15 N3 1_555 1_555
H12 C15 1_555 1_555
N4 C13 1_555 1_555
C16 C14 1_555 1_555
H13 H11 1_555 1_555
C17 C16 1_555 1_555
H14 C17 1_555 1_555
C18 C13 1_555 1_555
C19 C16 1_555 1_555
H15 C16 1_555 1_555
C20 C12 1_555 1_555
H16 C12 1_555 1_555
H17 O16 1_555 1_555
W1B O1B 1_555 1_555
W2B O20 1_555 1_555
W3B O1B 1_555 1_555
W4B O6 1_555 1_555
W5B O18 1_555 1_555
W6B O15 1_555 1_555
Cu1C N1C 1_555 1_555
Cu1C_2 N2 1_555 1_555
Cu1B N3B 1_555 1_555
O2B W1B 1_555 1_555
O3B W1B 1_555 1_555
O4B W1B 1_555 1_555
O5B W2B 1_555 1_555
O6B W4 1_555 1_555
O7B W2B 1_555 1_555
O8B W3B 1_555 1_555
O9B W4B 1_555 1_555
O10B W5B 1_555 1_555
O11B W4B 1_555 1_555
O12B W4B 1_555 1_555
O13B W6B 1_555 1_555
O14B W3B 1_555 1_555
O15B W6 1_555 1_555
O16B W1B 1_555 1_555
O17B W6 1_555 1_555
O18B W5 1_555 1_555
O19B W5 1_555 1_555
O20B W2 1_555 1_555
O21B P1 1_555 1_555
O22B P1 1_555 1_555
N1C C1C 1_555 1_555
C1C H1C 1_555 1_555
C2C C1C 1_555 1_555
H2C C2C 1_555 1_555
C3C C2C 1_555 1_555
C4C C3C 1_555 1_555
H3C C4C 1_555 1_555
C5C N1C 1_555 1_555
H4C C5C 1_555 1_555
N2C Cu1 1_555 1_555
N2_2 Cu1C 1_555 1_555
C6C N2C 1_555 1_555
H5C C6C 1_555 1_555
C7C C6C 1_555 1_555
H6C C7C 1_555 1_555
C8C C3C 1_555 1_555
C9C C8C 1_555 1_555
H7C C9C 1_555 1_555
C10C N2C 1_555 1_555
H8C C10C 1_555 1_555
N3B C11B 1_555 1_555
N3C Cu1C 1_555 1_555
C11B H9B 1_555 1_555
C12B C11B 1_555 1_555
H10B C12B 1_555 1_555
C13B C12B 1_555 1_555
C14B C13B 1_555 1_555
H11B C14B 1_555 1_555
C15B N3B 1_555 1_555
H12B C15B 1_555 1_555
N4B C13B 1_555 1_555
C16B C14B 1_555 1_555
H13B H11B 1_555 1_555
C17B C18 1_555 1_555
H14B C17B 1_555 1_555
C18B C17 1_555 1_555
C19B C18 1_555 1_555
H15B C16B 1_555 1_555
C20B C17 1_555 1_555
H16B C12B 1_555 1_555
H17B O16B 1_555 1_555
W3 O7 1_555 1_555
W3 O22 1_555 1_555
W4 O21 1_555 1_555
W5 O9 1_555 1_555
W5 O21 1_555 1_555
W6 O14 1_555 1_555
W6 O20 1_555 1_555
P1 O20 1_555 1_555
P1 O21 1_555 1_555
P1 O22 1_555 1_555
P1 O19B 1_555 1_555
P1 O20B 1_555 1_555
O17 W6B 1_555 1_555
O19 O22 1_555 1_555
O19 W5B 1_555 1_555
O19 O21B 1_555 1_555
O20 O22B 1_555 1_555
O21 O22 1_555 1_555
O21 O19B 1_555 1_555
O22 O20B 1_555 1_555
C4 C5 1_555 1_555
C7 C8 1_555 1_555
C9 C10 1_555 1_555
H10 H16 1_555 1_555
C13 C20 1_555 1_555
C14 C15 1_555 1_555
C14 N4 1_555 1_555
H11 C16 1_555 1_555
N4 C16 1_555 1_555
N4 C18 1_555 1_555
N4 C20 1_555 1_555
C16 H13 1_555 1_555
C17 C18 1_555 1_555
C17 C19 1_555 1_555
C17 H15 1_555 1_555
H14 H15 1_555 1_555
C18 C19 1_555 1_555
C18 C20 1_555 1_555
C18 C18B 1_555 1_555
C19 H15 1_555 1_555
C19 C18B 1_555 1_555
C19 C20B 1_555 1_555
C20 H16 1_555 1_555
C20 C17B 1_555 1_555
C20 C19B 1_555 1_555
W1B O21B 1_555 1_555
W1B O22B 1_555 1_555
W2B O4B 1_555 1_555
W2B O6B 1_555 1_555
W2B O15B 1_555 1_555
W3B O7B 1_555 1_555
W3B O18B 1_555 1_555
W3B O19B 1_555 1_555
W3B O22B 1_555 1_555
W4B O3B 1_555 1_555
W4B O20B 1_555 1_555
W4B O21B 1_555 1_555
W5B O2B 1_555 1_555
W5B O9B 1_555 1_555
W5B O17B 1_555 1_555
W5B O21B 1_555 1_555
W6B O11B 1_555 1_555
W6B O14B 1_555 1_555
W6B O20B 1_555 1_555
O19B O22B 1_555 1_555
O21B O22B 1_555 1_555
C4C C5C 1_555 1_555
C7C C8C 1_555 1_555
C9C C10C 1_555 1_555
C12B C20B 1_555 1_555
H10B H16B 1_555 1_555
C13B C18B 1_555 1_555
C13B C20B 1_555 1_555
C14B C15B 1_555 1_555
C14B N4B 1_555 1_555
H11B C16B 1_555 1_555
N4B C16B 1_555 1_555
N4B C18B 1_555 1_555
N4B C20B 1_555 1_555
C16B H13B 1_555 1_555
C16B C17B 1_555 1_555
C16B C19B 1_555 1_555
C17B C18B 1_555 1_555
C17B C19B 1_555 1_555
C17B H15B 1_555 1_555
H14B H15B 1_555 1_555
C18B C19B 1_555 1_555
C18B C20B 1_555 1_555
C19B H15B 1_555 1_555
C20B H16B 1_555 1_555

#END
