
#######################################################################
#
#                 Cambridge Crystallographic Data Centre
#                                CCDC 
#
#######################################################################
#
# If this CIF has been generated from an entry in the Cambridge 
# Structural Database, then it will include bibliographic, chemical, 
# crystal, experimental, refinement or atomic coordinate data resulting 
# from the CCDC's data processing and validation procedures.
#
#######################################################################

data_GUJBEU
_symmetry_cell_setting           monoclinic
_symmetry_space_group_name_H-M   'P 21/c'
_symmetry_Int_Tables_number      14
_space_group_name_Hall           '-P 2ybc'
loop_
_symmetry_equiv_pos_site_id
_symmetry_equiv_pos_as_xyz
1 x,y,z
2 -x,1/2+y,1/2-z
3 -x,-y,-z
4 x,1/2-y,1/2+z
_cell_length_a                   7.4517(15)
_cell_length_b                   26.381(5)
_cell_length_c                   7.5226(15)
_cell_angle_alpha                90
_cell_angle_beta                 111.32(3)
_cell_angle_gamma                90
_cell_volume                     1377.61
loop_
_atom_site_label
_atom_site_type_symbol
_atom_site_fract_x
_atom_site_fract_y
_atom_site_fract_z
Zn1 Zn 0.99553(8) 0.155836(19) 0.29854(8)
N1 N 0.7641(5) 0.20253(14) 0.0852(5)
C1 C 0.6015(6) 0.18796(17) -0.0535(7)
H1 H 0.5743 0.1536 -0.0756
O1 O 1.0712(4) 0.23036(11) 0.3858(5)
O2 O 0.5966(4) 0.36906(12) 0.0755(5)
O3 O 1.0135(4) 0.31240(11) 0.3103(5)
O4 O 0.8182(5) 0.36554(11) -0.0585(5)
N2 N 0.5074(5) 0.27317(14) -0.1441(6)
C2 C 0.7009(6) 0.34552(17) 0.0068(6)
C3 C 0.6730(6) 0.28814(16) -0.0085(6)
C4 C 0.9780(7) 0.26600(17) 0.2816(7)
N3 N 0.8917(6) 0.09115(14) 0.1262(6)
N4 N 0.7971(6) 0.03850(14) -0.1142(6)
C5 C 0.8010(6) 0.25310(16) 0.1111(7)
N5 N 0.7576(6) 0.01489(15) 0.0306(6)
C6 C 0.4729(7) 0.22369(17) -0.1646(7)
H2 H 0.3584 0.2126 -0.2569
C7 C 0.8759(7) 0.08297(17) -0.0544(7)
H3 H 0.9152 0.1056 -0.1277
C8 C 0.8177(7) 0.04839(17) 0.1706(7)
H4 H 0.8096 0.0430 0.2896
C9 C 0.7437(7) 0.01640(19) -0.3030(7)
H5 H 0.8127 -0.0153 -0.2940
H6 H 0.7821 0.0392 -0.3840
C10 C 0.5289(7) 0.00649(19) -0.3935(7)
H7 H 0.4588 0.0363 -0.3798
H8 H 0.4945 -0.0214 -0.3282
O5 O 1.2059(5) 0.15959(12) 0.1608(5)
H9 H 1.308(4) 0.1765(15) 0.220(5)
H10 H 1.138(5) 0.1706(15) 0.050(3)
O6 O 1.2169(5) 0.12249(13) 0.5212(5)
H11 H 1.209(6) 0.1121(18) 0.626(4)
H12 H 1.330(3) 0.1267(19) 0.521(6)
N3B N 0.1083(6) -0.09115(14) -1.1262(6)
N4B N 0.2029(6) -0.03850(14) -0.8858(6)
N5B N 0.2424(6) -0.01489(15) -1.0306(6)
C7B C 0.1241(7) -0.08297(17) -0.9456(7)
H3B H 0.0848 -0.1056 -0.8723
C8B C 0.1823(7) -0.04839(17) -1.1706(7)
H4B H 0.1904 -0.0430 -1.2896
C9B C 0.2563(7) -0.01640(19) -0.6970(7)
H5B H 0.1873 0.0153 -0.7060
H6B H 0.2179 -0.0392 -0.6160
C10B C 0.4711(7) -0.00649(19) -0.6065(7)
H7B H 0.5412 -0.0363 -0.6202
H8B H 0.5055 0.0214 -0.6718
Zn1B Zn 0.00447(8) -0.155836(19) -1.29854(8)
N1B N 0.2359(5) -0.20253(14) -1.0852(5)
C1B C 0.3985(6) -0.18796(17) -0.9465(7)
H1B H 0.4257 -0.1536 -0.9244
O1B O -0.0712(4) -0.23036(11) -1.3858(5)
O2B O 0.4034(4) -0.36906(12) -1.0755(5)
O3B O -0.0135(4) -0.31240(11) -1.3103(5)
O4B O 0.1818(5) -0.36554(11) -0.9415(5)
N2B N 0.4926(5) -0.27317(14) -0.8559(6)
C2B C 0.2991(6) -0.34552(17) -1.0068(6)
C3B C 0.3270(6) -0.28814(16) -0.9915(6)
C4B C 0.0220(7) -0.26600(17) -1.2816(7)
C5B C 0.1990(6) -0.25310(16) -1.1111(7)
C6B C 0.5271(7) -0.22369(17) -0.8354(7)
H2B H 0.6416 -0.2126 -0.7431
O5B O -0.2059(5) -0.15959(12) -1.1608(5)
H9B H -0.308(4) -0.1765(15) -1.220(5)
H10B H -0.138(5) -0.1706(15) -1.050(3)
O6B O -0.2169(5) -0.12249(13) -1.5212(5)
H11B H -0.209(6) -0.1121(18) -1.626(4)
H12B H -0.330(3) -0.1267(19) -1.521(6)
Zn1A Zn 0.00447(8) -0.344164(19) -0.79854(8)
Zn1C Zn 0.99553(8) 0.344164(19) -0.20146(8)
O4A O 0.1818(5) -0.13446(11) -1.4415(5)
O4C O 0.8182(5) 0.13446(11) 0.4415(5)
O7 O 0.6848(6) 0.90874(13) 0.0936(5)
H13 H 0.721(8) 0.9395(7) 0.096(7)
H14 H 0.700(8) 0.8900(14) 0.008(6)
loop_
_geom_bond_atom_site_label_1
_geom_bond_atom_site_label_2
_geom_bond_site_symmetry_1
_geom_bond_site_symmetry_2
Zn1 N1 1_555 1_555
N1 C1 1_555 1_555
C1 H1 1_555 1_555
O1 Zn1 1_555 1_555
O2 C2 1_555 1_555
O3 C4 1_555 1_555
O4 C2 1_555 1_555
N2 C3 1_555 1_555
C2 C3 1_555 1_555
C3 C5 1_555 1_555
C4 O1 1_555 1_555
N3 Zn1 1_555 1_555
N4 N5 1_555 1_555
C5 N1 1_555 1_555
N5 C8 1_555 1_555
C6 C1 1_555 1_555
H2 C6 1_555 1_555
C7 N3 1_555 1_555
H3 C7 1_555 1_555
C8 N3 1_555 1_555
H4 C8 1_555 1_555
C9 N4 1_555 1_555
H5 C9 1_555 1_555
H6 C9 1_555 1_555
C10 C9 1_555 1_555
H7 C10 1_555 1_555
H8 C10 1_555 1_555
O5 Zn1 1_555 1_555
H9 O5 1_555 1_555
H10 O5 1_555 1_555
O6 Zn1 1_555 1_555
H11 O6 1_555 1_555
H12 O6 1_555 1_555
O7 H13 1_555 1_555
H14 O7 1_555 1_555
N3B C7B 1_555 1_555
N4B N5B 1_555 1_555
N5B C8B 1_555 1_555
C7B N4B 1_555 1_555
H3B C7B 1_555 1_555
C8B N3B 1_555 1_555
H4B C8B 1_555 1_555
C9B N4B 1_555 1_555
H5B C9B 1_555 1_555
H6B C9B 1_555 1_555
C10B C10 1_555 1_555
H7B C10B 1_555 1_555
H8B C10B 1_555 1_555
Zn1B N3B 1_555 1_555
N1B Zn1B 1_555 1_555
C1B N1B 1_555 1_555
H1B C1B 1_555 1_555
O1B Zn1B 1_555 1_555
O2B C2B 1_555 1_555
O3B C4B 1_555 1_555
O4B C2B 1_555 1_555
N2B C3B 1_555 1_555
C2B C3B 1_555 1_555
C3B C5B 1_555 1_555
C4B O1B 1_555 1_555
C5B N1B 1_555 1_555
C6B C1B 1_555 1_555
H2B C6B 1_555 1_555
O5B Zn1B 1_555 1_555
H9B O5B 1_555 1_555
H10B O5B 1_555 1_555
O6B Zn1B 1_555 1_555
H11B O6B 1_555 1_555
H12B O6B 1_555 1_555
Zn1A O4B 1_555 1_555
Zn1C O4 1_555 1_555
O4A Zn1B 1_555 1_555
O4C Zn1 1_555 1_555
N2 C6 1_555 1_555
C4 C5 1_555 1_555
N4 C7 1_555 1_555
C9B C10B 1_555 1_555
N2B C6B 1_555 1_555
C4B C5B 1_555 1_555

#END
