
#######################################################################
#
#                 Cambridge Crystallographic Data Centre
#                                CCDC 
#
#######################################################################
#
# If this CIF has been generated from an entry in the Cambridge 
# Structural Database, then it will include bibliographic, chemical, 
# crystal, experimental, refinement or atomic coordinate data resulting 
# from the CCDC's data processing and validation procedures.
#
#######################################################################

data_GUJCIY
_symmetry_cell_setting           monoclinic
_symmetry_space_group_name_H-M   'C 2/c'
_symmetry_Int_Tables_number      15
_space_group_name_Hall           '-C 2yn'
loop_
_symmetry_equiv_pos_site_id
_symmetry_equiv_pos_as_xyz
1 x,y,z
2 -x,y,1/2-z
3 1/2+x,1/2+y,z
4 1/2-x,1/2+y,1/2-z
5 -x,-y,-z
6 x,-y,1/2+z
7 1/2-x,1/2-y,-z
8 1/2+x,1/2-y,1/2+z
_cell_length_a                   14.683(6)
_cell_length_b                   11.736(6)
_cell_length_c                   22.187(9)
_cell_angle_alpha                90
_cell_angle_beta                 94.849(13)
_cell_angle_gamma                90
_cell_volume                     3809.57
loop_
_atom_site_label
_atom_site_type_symbol
_atom_site_fract_x
_atom_site_fract_y
_atom_site_fract_z
Ag1 Ag 0.33904(7) 0.25533(10) 0.04581(4)
N1 N 0.2808(7) 0.3319(9) 0.1203(5)
N2 N -0.0791(8) 0.3361(10) 0.4858(4)
C1 C 0.2954(8) 0.4434(12) 0.1336(6)
H1 H 0.3319 0.4853 0.1095
C2 C 0.2598(8) 0.4965(10) 0.1800(5)
H2 H 0.2712 0.5738 0.1860
C3 C 0.2053(8) 0.4379(11) 0.2200(5)
C4 C 0.1876(10) 0.3252(12) 0.2038(6)
H3 H 0.1474 0.2827 0.2250
C5 C 0.2287(10) 0.2757(10) 0.1571(6)
H4 H 0.2197 0.1981 0.1506
C6 C 0.1628(10) 0.5002(10) 0.2716(6)
H5 H 0.2127 0.5319 0.2977
H6 H 0.1284 0.5641 0.2538
C7 C 0.1025(9) 0.4400(11) 0.3108(5)
H7 H 0.1341 0.3731 0.3274
H8 H 0.0486 0.4142 0.2862
C8 C 0.0731(9) 0.5086(11) 0.3608(5)
H9 H 0.1267 0.5424 0.3824
H10 H 0.0349 0.5703 0.3442
C9 C -0.0017(8) 0.2914(10) 0.4688(6)
H11 H 0.0191 0.2224 0.4854
C10 C 0.0459(8) 0.3430(12) 0.4290(6)
H12 H 0.0983 0.3071 0.4177
C11 C 0.0230(8) 0.4456(13) 0.4036(5)
C12 C -0.0516(10) 0.4969(11) 0.4209(6)
H13 H -0.0698 0.5684 0.4066
C13 C -0.0987(9) 0.4392(14) 0.4603(7)
H14 H -0.1515 0.4744 0.4716
Ag1F Ag 0.16096(7) 0.24467(10) -0.04581(4)
Ag1G Ag -0.16096(7) 0.24467(10) 0.54581(4)
Ag1A Ag 0.66096(7) 0.25533(10) -0.54581(4)
N1F N 0.2192(7) 0.1681(9) -0.1203(5)
N2G N 0.4209(8) 0.1639(10) -0.0142(4)
N2A N 0.0791(8) 0.3361(10) 0.0142(4)
N2F N 0.5791(8) 0.1639(10) -0.4858(4)
C1F C 0.2046(8) 0.0566(12) -0.1336(6)
H1F H 0.1681 0.0147 -0.1095
C2F C 0.2402(8) 0.0035(10) -0.1800(5)
H2F H 0.2288 -0.0738 -0.1860
C3F C 0.2947(8) 0.0621(11) -0.2200(5)
C4F C 0.3124(10) 0.1748(12) -0.2038(6)
H3F H 0.3526 0.2173 -0.2250
C5F C 0.2713(10) 0.2243(10) -0.1571(6)
H4F H 0.2803 0.3019 -0.1506
C6F C 0.3372(10) -0.0002(10) -0.2716(6)
H5F H 0.2873 -0.0319 -0.2977
H6F H 0.3716 -0.0641 -0.2538
C7F C 0.3975(9) 0.0600(11) -0.3108(5)
H7F H 0.3659 0.1269 -0.3274
H8F H 0.4514 0.0858 -0.2862
C8F C 0.4269(9) -0.0086(11) -0.3608(5)
H9F H 0.3733 -0.0424 -0.3824
H10F H 0.4651 -0.0703 -0.3442
C9F C 0.5017(8) 0.2086(10) -0.4688(6)
H11F H 0.4809 0.2776 -0.4854
C10F C 0.4541(8) 0.1570(12) -0.4290(6)
H12F H 0.4017 0.1929 -0.4177
C11F C 0.4770(8) 0.0544(13) -0.4036(5)
C12F C 0.5516(10) 0.0031(11) -0.4209(6)
H13F H 0.5698 -0.0684 -0.4066
C13F C 0.5987(9) 0.0608(14) -0.4603(7)
H14F H 0.6515 0.0256 -0.4716
O1 O 0.5723(7) 0.5387(10) -0.0046(4)
H15 H 0.5239 0.5635 0.0059
O2 O 0.7058(6) 0.5732(7) 0.0458(3)
O3 O 0.6977(6) 0.3147(7) 0.0260(4)
O4 O 0.7489(7) 0.2225(7) 0.1086(4)
O5 O 0.5000 0.2223(17) 0.2500
C14 C 0.5000 0.3330(19) 0.2500
C15 C 0.5433(12) 0.3874(17) 0.2029(6)
C16 C 0.6018(10) 0.3183(12) 0.1685(7)
H17 H 0.6192 0.2454 0.1813
C17 C 0.6310(8) 0.3632(11) 0.1166(6)
C18 C 0.5993(8) 0.4715(10) 0.0996(5)
C19 C 0.5435(9) 0.5287(11) 0.1348(7)
H18 H 0.5217 0.5997 0.1218
C20 C 0.5175(11) 0.4874(12) 0.1889(9)
H19 H 0.4829 0.5306 0.2136
C21 C 0.6983(9) 0.2938(10) 0.0814(7)
C22 C 0.6239(9) 0.5302(11) 0.0368(8)
O1A O 0.4277(7) 0.5387(10) 0.5046(4)
H15A H 0.4761 0.5635 0.4941
O2A O 0.2942(6) 0.5732(7) 0.4542(3)
O3A O 0.3023(6) 0.3147(7) 0.4740(4)
O4A O 0.2511(7) 0.2225(7) 0.3914(4)
C15A C 0.4567(12) 0.3874(17) 0.2971(6)
C16A C 0.3982(10) 0.3183(12) 0.3315(7)
H17A H 0.3808 0.2454 0.3187
C17A C 0.3690(8) 0.3632(11) 0.3834(6)
C18A C 0.4007(8) 0.4715(10) 0.4004(5)
C19A C 0.4565(9) 0.5287(11) 0.3652(7)
H18A H 0.4783 0.5997 0.3782
C20A C 0.4825(11) 0.4874(12) 0.3111(9)
H19A H 0.5171 0.5306 0.2864
C21A C 0.3017(9) 0.2938(10) 0.4186(7)
C22A C 0.3761(9) 0.5302(11) 0.4632(8)
H16? H 0.7348 0.2734 0.0110
loop_
_geom_bond_atom_site_label_1
_geom_bond_atom_site_label_2
_geom_bond_site_symmetry_1
_geom_bond_site_symmetry_2
Ag1 N1 1_555 1_555
N1 C1 1_555 1_555
N2 C9 1_555 1_555
C1 H1 1_555 1_555
C2 C1 1_555 1_555
H2 C2 1_555 1_555
C3 C2 1_555 1_555
C4 C3 1_555 1_555
H3 C4 1_555 1_555
C5 N1 1_555 1_555
H4 C5 1_555 1_555
C6 C3 1_555 1_555
H5 C6 1_555 1_555
H6 C6 1_555 1_555
C7 C6 1_555 1_555
H7 C7 1_555 1_555
H8 C7 1_555 1_555
C8 C7 1_555 1_555
H9 C8 1_555 1_555
H10 C8 1_555 1_555
C9 H11 1_555 1_555
C10 C9 1_555 1_555
H12 C10 1_555 1_555
C11 C8 1_555 1_555
C12 C11 1_555 1_555
H13 C12 1_555 1_555
C13 N2 1_555 1_555
H14 C13 1_555 1_555
O1 H15 1_555 1_555
O2 C22 1_555 1_555
O3 C21 1_555 1_555
O4 C21 1_555 1_555
O5 C14 1_555 1_555
C14 C15 1_555 1_555
C15 C16 1_555 1_555
C16 H17 1_555 1_555
C17 C16 1_555 1_555
C18 C17 1_555 1_555
C19 C18 1_555 1_555
H18 C19 1_555 1_555
C20 C15 1_555 1_555
H19 C20 1_555 1_555
C21 C17 1_555 1_555
C22 O1 1_555 1_555
Ag1F Ag1 1_555 1_555
Ag1G N2 1_555 1_555
Ag1A N2F 1_555 1_555
N1F Ag1F 1_555 1_555
N2G Ag1 1_555 1_555
N2A Ag1F 1_555 1_555
N2F C9F 1_555 1_555
C1F N1F 1_555 1_555
H1F C1F 1_555 1_555
C2F C1F 1_555 1_555
H2F C2F 1_555 1_555
C3F C2F 1_555 1_555
C4F C3F 1_555 1_555
H3F C4F 1_555 1_555
C5F N1F 1_555 1_555
H4F C5F 1_555 1_555
C6F C3F 1_555 1_555
H5F C6F 1_555 1_555
H6F C6F 1_555 1_555
C7F C6F 1_555 1_555
H7F C7F 1_555 1_555
H8F C7F 1_555 1_555
C8F C7F 1_555 1_555
H9F C8F 1_555 1_555
H10F C8F 1_555 1_555
C9F H11F 1_555 1_555
C10F C9F 1_555 1_555
H12F C10F 1_555 1_555
C11F C8F 1_555 1_555
C12F C11F 1_555 1_555
H13F C12F 1_555 1_555
C13F N2F 1_555 1_555
H14F C13F 1_555 1_555
O1A H15A 1_555 1_555
O2A C22A 1_555 1_555
O3A C21A 1_555 1_555
O4A C21A 1_555 1_555
C15A C14 1_555 1_555
C16A C15A 1_555 1_555
H17A C16A 1_555 1_555
C17A C16A 1_555 1_555
C18A C17A 1_555 1_555
C19A C18A 1_555 1_555
H18A C19A 1_555 1_555
C20A C15A 1_555 1_555
H19A C20A 1_555 1_555
C21A C17A 1_555 1_555
C22A O1A 1_555 1_555
C4 C5 1_555 1_555
C10 C11 1_555 1_555
C12 C13 1_555 1_555
C18 C22 1_555 1_555
C19 C20 1_555 1_555
C4F C5F 1_555 1_555
C10F C11F 1_555 1_555
C12F C13F 1_555 1_555
C18A C22A 1_555 1_555
C19A C20A 1_555 1_555

#END
