
#######################################################################
#
#                 Cambridge Crystallographic Data Centre
#                                CCDC 
#
#######################################################################
#
# If this CIF has been generated from an entry in the Cambridge 
# Structural Database, then it will include bibliographic, chemical, 
# crystal, experimental, refinement or atomic coordinate data resulting 
# from the CCDC's data processing and validation procedures.
#
#######################################################################

data_GUJDUL01
_symmetry_cell_setting           monoclinic
_symmetry_space_group_name_H-M   'P 21/c'
_symmetry_Int_Tables_number      14
_space_group_name_Hall           '-P 2ybc'
loop_
_symmetry_equiv_pos_site_id
_symmetry_equiv_pos_as_xyz
1 x,y,z
2 -x,1/2+y,1/2-z
3 -x,-y,-z
4 x,1/2-y,1/2+z
_cell_length_a                   11.173(3)
_cell_length_b                   30.326(7)
_cell_length_c                   9.645(2)
_cell_angle_alpha                90
_cell_angle_beta                 103.493(4)
_cell_angle_gamma                90
_cell_volume                     3177.84
loop_
_atom_site_label
_atom_site_type_symbol
_atom_site_fract_x
_atom_site_fract_y
_atom_site_fract_z
Co1 Co 0.50809(4) 0.457007(14) 0.41988(5)
Co2 Co 0.75960(4) 0.506020(14) 0.68053(5)
O1 O 0.4085(2) 0.40301(8) 0.3476(3)
O2 O 0.62197(19) 0.50954(7) 0.4992(2)
O3 O 0.6390(2) 0.43136(8) 0.3207(3)
O4 O 0.5686(2) 0.07500(8) 0.1235(3)
O5 O 0.4013(2) 0.49235(8) 0.2225(3)
O6 O 0.2140(2) 0.42712(8) 0.2908(3)
O7 O 0.7696(2) 0.06188(8) 0.1859(3)
O8 O 0.6549(4) 0.45952(9) 0.1135(3)
O9 O 0.1471(3) 0.22572(9) 0.1088(3)
O10 O 0.7835(3) 0.26170(9) 0.0135(3)
O11 O 0.3377(4) 0.03288(9) 0.2781(3)
H1 H 0.3618 0.0104 0.3232
O12 O 0.3540(3) 0.06069(10) 0.4957(3)
N1 N 0.9043(3) 0.50373(10) 0.5687(3)
N2 N 0.9027(3) 0.50192(10) 0.8801(3)
C1 C 0.2956(3) 0.39779(11) 0.2991(3)
C2 C 0.2555(3) 0.35209(11) 0.2490(4)
C3 C 0.1336(3) 0.34172(12) 0.1945(5)
H2 H 0.0739 0.3635 0.1870
C4 C 0.0990(4) 0.29908(13) 0.1507(5)
H3 H 0.0165 0.2924 0.1137
C5 C 0.1866(4) 0.26703(12) 0.1622(4)
C6 C 0.3094(4) 0.27643(13) 0.2136(5)
H4 H 0.3687 0.2546 0.2193
C7 C 0.3428(4) 0.31926(13) 0.2570(5)
H5 H 0.4256 0.3260 0.2920
C8 C 0.3320(4) 0.06464(13) 0.3655(4)
C9 C 0.2890(4) 0.10782(12) 0.2974(4)
C10 C 0.2883(7) 0.14434(16) 0.3797(5)
H6 H 0.3176 0.1422 0.4780
C11 C 0.2450(7) 0.18448(17) 0.3206(6)
H7 H 0.2474 0.2091 0.3785
C12 C 0.1992(4) 0.18784(12) 0.1781(4)
C13 C 0.1991(6) 0.15171(15) 0.0939(5)
H8 H 0.1687 0.1539 -0.0042
C14 C 0.2439(6) 0.11218(15) 0.1536(5)
H9 H 0.2435 0.0878 0.0950
C15 C 0.6556(4) 0.42739(13) 0.1985(4)
C16 C 0.6837(4) 0.38307(12) 0.1484(4)
C17 C 0.6836(4) 0.34661(13) 0.2322(4)
H10 H 0.6632 0.3498 0.3199
C18 C 0.7127(4) 0.30526(13) 0.1904(4)
H11 H 0.7115 0.2809 0.2486
C19 C 0.7434(4) 0.30070(12) 0.0625(4)
C20 C 0.7457(6) 0.33656(15) -0.0231(5)
H12 H 0.7666 0.3332 -0.1104
C21 C 0.7171(6) 0.37726(15) 0.0206(5)
H13 H 0.7203 0.4016 -0.0371
C22 C 0.6788(3) 0.08715(11) 0.1460(4)
C23 C 0.7059(3) 0.13455(11) 0.1225(4)
C24 C 0.6108(4) 0.16544(13) 0.0899(5)
H14 H 0.5306 0.1569 0.0885
C25 C 0.6352(4) 0.20881(13) 0.0594(5)
H15 H 0.5716 0.2293 0.0376
C26 C 0.7533(4) 0.22112(12) 0.0618(4)
C27 C 0.8490(4) 0.19108(13) 0.0957(5)
H16 H 0.9293 0.1999 0.0984
C28 C 0.8245(4) 0.14819(12) 0.1253(4)
H17 H 0.8888 0.1280 0.1477
C29 C 0.9980(3) 0.53192(13) 0.5929(4)
H18 H 0.9990 0.5550 0.6568
C30 C 0.9061(3) 0.47213(14) 0.4744(4)
H19 H 0.8412 0.4522 0.4529
C31 C 0.9224(4) 0.53349(13) 0.9778(4)
H20 H 0.8693 0.5575 0.9661
C32 C 0.9814(4) 0.46822(13) 0.9047(4)
H21 H 0.9706 0.4451 0.8398
Co1B Co 0.49191(4) 0.542993(14) 0.58012(5)
Co1C Co 0.50809(4) 0.042993(14) -0.08012(5)
Co1C_2 Co 0.50809(4) 0.042993(14) 0.91988(5)
Co2B Co 0.24040(4) 0.493980(14) 0.31947(5)
Co2C Co 0.75960(4) -0.006020(14) 0.18053(5)
Co2B_2 Co 1.24040(4) 0.493980(14) 0.31947(5)
Co2B_3 Co 1.24040(4) 0.493980(14) 1.31947(5)
O1B O 0.5915(2) 0.59699(8) 0.6524(3)
O2B O 0.37803(19) 0.49046(7) 0.5008(2)
O3C O 0.6390(2) 0.06864(8) 0.8207(3)
O3B O 0.3610(2) 0.56864(8) 0.6793(3)
O4C O 0.5686(2) 0.42500(8) 0.6235(3)
O4A O 0.4314(2) 0.57500(8) 0.3765(3)
O5B O 0.5987(2) 0.50765(8) 0.7775(3)
O6B O 0.7860(2) 0.57288(8) 0.7092(3)
O7C O 0.7696(2) 0.43812(8) 0.6859(3)
O7A O 0.2304(2) 0.56188(8) 0.3141(3)
O8C O 0.6549(4) 0.04048(9) 0.6135(3)
O9B O 0.8529(3) 0.77428(9) 0.8912(3)
O10C O 0.7835(3) 0.23830(9) 0.5135(3)
O11B O 0.6623(4) 0.96712(9) 0.7219(3)
H1B H 0.6382 0.9896 0.6768
O12B O 0.6460(3) 0.93931(10) 0.5043(3)
N1B N 1.0957(3) 0.49627(10) 0.4313(3)
N1B_2 N 0.0957(3) 0.49627(10) 0.4313(3)
N2B N 1.0973(3) 0.49808(10) 1.1199(3)
N2B_2 N 0.0973(3) 0.49808(10) 0.1199(3)
C1B C 0.7044(3) 0.60221(11) 0.7009(3)
C2B C 0.7445(3) 0.64791(11) 0.7510(4)
C3B C 0.8664(3) 0.65828(12) 0.8055(5)
H2B H 0.9261 0.6365 0.8130
C4B C 0.9010(4) 0.70092(13) 0.8493(5)
H3B H 0.9835 0.7076 0.8863
C5B C 0.8134(4) 0.73297(12) 0.8378(4)
C6B C 0.6906(4) 0.72357(13) 0.7864(5)
H4B H 0.6313 0.7454 0.7807
C7B C 0.6572(4) 0.68074(13) 0.7430(5)
H5B H 0.5744 0.6740 0.7080
C8B C 0.6680(4) 0.93536(13) 0.6345(4)
C9B C 0.7110(4) 0.89218(12) 0.7026(4)
C10B C 0.7117(7) 0.85566(16) 0.6203(5)
H6B H 0.6824 0.8578 0.5220
C11B C 0.7550(7) 0.81552(17) 0.6794(6)
H7B H 0.7526 0.7909 0.6215
C12B C 0.8008(4) 0.81216(12) 0.8219(4)
C13B C 0.8009(6) 0.84829(15) 0.9061(5)
H8B H 0.8313 0.8461 1.0042
C14B C 0.7561(6) 0.88782(15) 0.8464(5)
H9B H 0.7565 0.9122 0.9050
C15C C 0.6556(4) 0.07261(13) 0.6985(4)
C16C C 0.6837(4) 0.11693(12) 0.6484(4)
C17C C 0.6836(4) 0.15339(13) 0.7322(4)
H10C H 0.6632 0.1502 0.8199
C18C C 0.7127(4) 0.19474(13) 0.6904(4)
H11C H 0.7115 0.2191 0.7486
C19C C 0.7434(4) 0.19930(12) 0.5625(4)
C20C C 0.7457(6) 0.16344(15) 0.4769(5)
H12C H 0.7666 0.1668 0.3896
C21C C 0.7171(6) 0.12274(15) 0.5206(5)
H13C H 0.7203 0.0984 0.4629
C22C C 0.6788(3) 0.41285(11) 0.6460(4)
C23C C 0.7059(3) 0.36545(11) 0.6225(4)
C24C C 0.6108(4) 0.33456(13) 0.5899(5)
H14C H 0.5306 0.3431 0.5885
C25C C 0.6352(4) 0.29119(13) 0.5594(5)
H15C H 0.5716 0.2707 0.5376
C26C C 0.7533(4) 0.27888(12) 0.5618(4)
C27C C 0.8490(4) 0.30892(13) 0.5957(5)
H16C H 0.9293 0.3001 0.5984
C28C C 0.8245(4) 0.35181(12) 0.6253(4)
H17C H 0.8888 0.3720 0.6477
C29B C 1.0020(3) 0.46808(13) 0.4071(4)
H18B H 1.0010 0.4450 0.3432
C30B C 1.0939(3) 0.52787(14) 0.5256(4)
H19B H 1.1588 0.5478 0.5471
C31B C 1.0776(4) 0.46651(13) 1.0222(4)
H20B H 1.1307 0.4425 1.0339
C32B C 1.0186(4) 0.53178(13) 1.0953(4)
H21B H 1.0294 0.5549 1.1602
loop_
_geom_bond_atom_site_label_1
_geom_bond_atom_site_label_2
_geom_bond_site_symmetry_1
_geom_bond_site_symmetry_2
Co1 O1 1_555 1_555
Co2 O2 1_555 1_555
O1 C1 1_555 1_555
O2 Co1 1_555 1_555
O3 Co1 1_555 1_555
O4 C22 1_555 1_555
O5 Co1 1_555 1_555
O6 C1 1_555 1_555
O7 C22 1_555 1_555
O8 C15 1_555 1_555
O9 C5 1_555 1_555
O10 C19 1_555 1_555
O11 H1 1_555 1_555
O12 C8 1_555 1_555
N1 Co2 1_555 1_555
N2 Co2 1_555 1_555
C1 C2 1_555 1_555
C2 C3 1_555 1_555
C3 H2 1_555 1_555
C4 C3 1_555 1_555
H3 C4 1_555 1_555
C5 C4 1_555 1_555
C6 C5 1_555 1_555
H4 C6 1_555 1_555
C7 C2 1_555 1_555
H5 C7 1_555 1_555
C8 O11 1_555 1_555
C9 C8 1_555 1_555
C10 C9 1_555 1_555
H6 C10 1_555 1_555
C11 C10 1_555 1_555
H7 C11 1_555 1_555
C12 O9 1_555 1_555
C13 C12 1_555 1_555
H8 C13 1_555 1_555
C14 C9 1_555 1_555
H9 C14 1_555 1_555
C15 O3 1_555 1_555
C16 C15 1_555 1_555
C17 C16 1_555 1_555
H10 C17 1_555 1_555
C18 C17 1_555 1_555
H11 C18 1_555 1_555
C19 C18 1_555 1_555
C20 C19 1_555 1_555
H12 C20 1_555 1_555
C21 C16 1_555 1_555
H13 C21 1_555 1_555
C22 C23 1_555 1_555
C23 C24 1_555 1_555
C24 H14 1_555 1_555
C25 C24 1_555 1_555
H15 C25 1_555 1_555
C26 O10 1_555 1_555
C27 C26 1_555 1_555
H16 C27 1_555 1_555
C28 C23 1_555 1_555
H17 C28 1_555 1_555
C29 N1 1_555 1_555
H18 C29 1_555 1_555
C30 N1 1_555 1_555
H19 C30 1_555 1_555
C31 N2 1_555 1_555
H20 C31 1_555 1_555
C32 N2 1_555 1_555
H21 C32 1_555 1_555
Co1B O2 1_555 1_555
Co1C O4 1_555 1_555
Co1C_2 O3C 1_555 1_555
Co2B O5 1_555 1_555
Co2C O7 1_555 1_555
Co2B_2 N1B 1_555 1_555
Co2B_3 N2B 1_555 1_555
O1B Co1B 1_555 1_555
O2B Co1 1_555 1_555
O3C C15C 1_555 1_555
O3B Co1B 1_555 1_555
O4C Co1 1_555 1_555
O4A Co1B 1_555 1_555
O5B Co2 1_555 1_555
O6B Co2 1_555 1_555
O7C Co2 1_555 1_555
O7A Co2B 1_555 1_555
O8C C15C 1_555 1_555
O9B C5B 1_555 1_555
O10C C19C 1_555 1_555
O11B H1B 1_555 1_555
O12B C8B 1_555 1_555
N1B C29B 1_555 1_555
N1B_2 Co2B 1_555 1_555
N2B C31B 1_555 1_555
N2B_2 Co2B 1_555 1_555
C1B O1B 1_555 1_555
C2B C1B 1_555 1_555
C3B C2B 1_555 1_555
H2B C3B 1_555 1_555
C4B C3B 1_555 1_555
H3B C4B 1_555 1_555
C5B C4B 1_555 1_555
C6B C5B 1_555 1_555
H4B C6B 1_555 1_555
C7B C2B 1_555 1_555
H5B C7B 1_555 1_555
C8B O11B 1_555 1_555
C9B C8B 1_555 1_555
C10B C9B 1_555 1_555
H6B C10B 1_555 1_555
C11B C10B 1_555 1_555
H7B C11B 1_555 1_555
C12B O9B 1_555 1_555
C13B C12B 1_555 1_555
H8B C13B 1_555 1_555
C14B C9B 1_555 1_555
H9B C14B 1_555 1_555
C15C C16C 1_555 1_555
C16C C17C 1_555 1_555
C17C H10C 1_555 1_555
C18C C17C 1_555 1_555
H11C C18C 1_555 1_555
C19C C18C 1_555 1_555
C20C C19C 1_555 1_555
H12C C20C 1_555 1_555
C21C C16C 1_555 1_555
H13C C21C 1_555 1_555
C22C O4C 1_555 1_555
C23C C22C 1_555 1_555
C24C C23C 1_555 1_555
H14C C24C 1_555 1_555
C25C C24C 1_555 1_555
H15C C25C 1_555 1_555
C26C O10C 1_555 1_555
C27C C26C 1_555 1_555
H16C C27C 1_555 1_555
C28C C23C 1_555 1_555
H17C C28C 1_555 1_555
C29B C30 1_555 1_555
H18B C29B 1_555 1_555
C30B C29 1_555 1_555
H19B C30B 1_555 1_555
C31B C32 1_555 1_555
H20B C31B 1_555 1_555
C32B C31 1_555 1_555
H21B C32B 1_555 1_555
O6 Co2B 1_555 1_555
C6 C7 1_555 1_555
C11 C12 1_555 1_555
C13 C14 1_555 1_555
C20 C21 1_555 1_555
C25 C26 1_555 1_555
C27 C28 1_555 1_555
Co1B O2B 1_555 1_555
Co1B O5B 1_555 1_555
Co2B O2B 1_555 1_555
O6B C1B 1_555 1_555
O7C C22C 1_555 1_555
N1B C30B 1_555 1_555
N2B C32B 1_555 1_555
C6B C7B 1_555 1_555
C11B C12B 1_555 1_555
C13B C14B 1_555 1_555
C20C C21C 1_555 1_555
C25C C26C 1_555 1_555
C27C C28C 1_555 1_555

#END
