
#######################################################################
#
#                 Cambridge Crystallographic Data Centre
#                                CCDC 
#
#######################################################################
#
# If this CIF has been generated from an entry in the Cambridge 
# Structural Database, then it will include bibliographic, chemical, 
# crystal, experimental, refinement or atomic coordinate data resulting 
# from the CCDC's data processing and validation procedures.
#
#######################################################################

data_GUJFUM
_symmetry_cell_setting           triclinic
_symmetry_space_group_name_H-M   'P -1'
_symmetry_Int_Tables_number      2
_space_group_name_Hall           '-P 1'
loop_
_symmetry_equiv_pos_site_id
_symmetry_equiv_pos_as_xyz
1 x,y,z
2 -x,-y,-z
_cell_length_a                   8.8570(10)
_cell_length_b                   9.860(4)
_cell_length_c                   12.630(5)
_cell_angle_alpha                70.21(6)
_cell_angle_beta                 76.11(5)
_cell_angle_gamma                82.01(5)
_cell_volume                     1005.47
loop_
_atom_site_label
_atom_site_type_symbol
_atom_site_fract_x
_atom_site_fract_y
_atom_site_fract_z
Ag1 Ag 0.08458(6) -0.11495(6) -0.04373(6)
Ag2 Ag 0.21312(8) -0.85168(7) 0.45349(6)
Ag3 Ag 0.29089(9) -0.62200(8) 0.56613(6)
S1 S 0.4617(2) -0.70185(18) 0.37940(15)
S2 S 0.0375(2) -0.78529(19) 0.64059(15)
S3 S -0.17467(19) -0.04821(18) -0.08725(15)
N1 N 0.0447(8) -0.8353(6) 0.3372(5)
H1 H 0.1416 -0.8490 0.3511
H2 H -0.0191 -0.9086 0.3665
N2 N 0.1570(6) -0.3214(6) 0.1055(5)
H3 H 0.1105 -0.2369 0.1129
N3 N 0.3266(6) -0.1829(6) -0.1368(4)
H4 H 0.2371 -0.1611 -0.1626
N4 N 0.4540(7) 0.3281(6) -0.3113(5)
H5 H 0.3524 0.3463 -0.3145
H6 H 0.5164 0.4016 -0.3334
N5 N 0.6844(7) -0.9183(6) 0.4653(6)
N6 N -0.1818(7) -0.5854(6) 0.5346(6)
N7 N -0.2998(8) -0.3133(8) 0.0547(7)
C1 C -0.0098(8) -0.6931(8) 0.2667(7)
H7 H -0.1006 -0.6580 0.3114
H8 H -0.0390 -0.7032 0.2014
C2 C 0.1136(8) -0.5833(7) 0.2245(6)
H9 H 0.2109 -0.6255 0.1930
H10 H 0.1277 -0.5576 0.2881
C3 C 0.0669(8) -0.4475(7) 0.1333(6)
H11 H 0.0762 -0.4709 0.0641
H12 H -0.0411 -0.4217 0.1586
C4 C 0.3247(8) -0.3391(7) 0.0654(6)
H13 H 0.3620 -0.4316 0.1106
H14 H 0.3746 -0.2663 0.0769
C5 C 0.3703(8) -0.3276(7) -0.0615(7)
H15 H 0.4807 -0.3470 -0.0823
H16 H 0.3194 -0.3996 -0.0734
C6 C 0.4462(7) -0.0784(7) -0.1649(6)
H17 H 0.5414 -0.1108 -0.2070
H18 H 0.4663 -0.0730 -0.0950
C7 C 0.3932(7) 0.0709(7) -0.2366(5)
H19 H 0.3001 0.1047 -0.1932
H20 H 0.3692 0.0646 -0.3049
C8 C 0.5169(8) 0.1780(7) -0.2698(6)
H21 H 0.5609 0.1653 -0.2043
H22 H 0.5988 0.1590 -0.3293
C9 C 0.5917(7) -0.8310(7) 0.4324(6)
C10 C -0.0914(7) -0.6663(7) 0.5769(6)
C11 C -0.2474(7) -0.2055(8) -0.0015(6)
S3A S 0.17467(19) 0.04821(18) 0.08725(15)
Ag1A Ag -0.08458(6) 0.11495(6) 0.04373(6)
N5A N 0.3156(7) -1.0817(6) 0.5347(6)
N6A N 0.1818(7) -0.4146(6) 0.4654(6)
Ag3A Ag -0.29089(9) -0.37800(8) 0.43387(6)
Ag2A Ag 0.78688(8) -1.14832(7) 0.54651(6)
N4_2 N 0.4540(7) -0.6719(6) 0.6887(5)
Ag3_2 Ag 0.29089(9) 0.37800(8) -0.43387(6)
H5_2 H 0.3524 -0.6537 0.6855
H6_2 H 0.5164 -0.5984 0.6666
loop_
_geom_bond_atom_site_label_1
_geom_bond_atom_site_label_2
_geom_bond_site_symmetry_1
_geom_bond_site_symmetry_2
Ag1 S3 1_555 1_555
Ag2 S1 1_555 1_555
Ag3 S1 1_555 1_555
S1 C9 1_555 1_555
S2 Ag2 1_555 1_555
S3 C11 1_555 1_555
N1 Ag2 1_555 1_555
H1 N1 1_555 1_555
H2 N1 1_555 1_555
N2 Ag1 1_555 1_555
H3 N2 1_555 1_555
N3 Ag1 1_555 1_555
H4 N3 1_555 1_555
N4 H5 1_555 1_555
H6 N4 1_555 1_555
N5 C9 1_555 1_555
N6 C10 1_555 1_555
N7 C11 1_555 1_555
C1 N1 1_555 1_555
H7 C1 1_555 1_555
H8 C1 1_555 1_555
C2 C1 1_555 1_555
H9 C2 1_555 1_555
H10 C2 1_555 1_555
C3 N2 1_555 1_555
H11 C3 1_555 1_555
H12 C3 1_555 1_555
C4 N2 1_555 1_555
H13 C4 1_555 1_555
H14 C4 1_555 1_555
C5 N3 1_555 1_555
H15 C5 1_555 1_555
H16 C5 1_555 1_555
C6 N3 1_555 1_555
H17 C6 1_555 1_555
H18 C6 1_555 1_555
C7 C6 1_555 1_555
H19 C7 1_555 1_555
H20 C7 1_555 1_555
C8 N4 1_555 1_555
H21 C8 1_555 1_555
H22 C8 1_555 1_555
C10 S2 1_555 1_555
S3A Ag1 1_555 1_555
Ag1A S3 1_555 1_555
N5A Ag2 1_555 1_555
N6A Ag3 1_555 1_555
Ag3A N6 1_555 1_555
Ag2A N5 1_555 1_555
N4_2 Ag3 1_555 1_555
Ag3_2 N4 1_555 1_555
H5_2 N4_2 1_555 1_555
H6_2 N4_2 1_555 1_555
Ag3 S2 1_555 1_555
C2 C3 1_555 1_555
C4 C5 1_555 1_555
C7 C8 1_555 1_555
S3A Ag1A 1_555 1_555

#END
