
#######################################################################
#
#                 Cambridge Crystallographic Data Centre
#                                CCDC 
#
#######################################################################
#
# If this CIF has been generated from an entry in the Cambridge 
# Structural Database, then it will include bibliographic, chemical, 
# crystal, experimental, refinement or atomic coordinate data resulting 
# from the CCDC's data processing and validation procedures.
#
#######################################################################

data_GUJFAS
_symmetry_cell_setting           triclinic
_symmetry_space_group_name_H-M   'P -1'
_symmetry_Int_Tables_number      2
_space_group_name_Hall           '-P 1'
loop_
_symmetry_equiv_pos_site_id
_symmetry_equiv_pos_as_xyz
1 x,y,z
2 -x,-y,-z
_cell_length_a                   6.025(4)
_cell_length_b                   6.232(3)
_cell_length_c                   7.292(5)
_cell_angle_alpha                65.91(4)
_cell_angle_beta                 77.87(5)
_cell_angle_gamma                84.49(5)
_cell_volume                     244.355
loop_
_atom_site_label
_atom_site_type_symbol
_atom_site_fract_x
_atom_site_fract_y
_atom_site_fract_z
Ag1 Ag 0.06041(6) 0.18807(8) 0.10334(6)
S1 S -0.13171(19) 0.3079(2) -0.23986(16)
N1 N -0.5886(7) 0.2810(7) -0.0406(7)
N2 N -0.2479(7) 0.1965(6) 0.3350(5)
H1 H -0.3335 0.3267 0.2731
H2 H -0.2092 0.2237 0.4391
C1 C -0.3996(7) 0.2898(7) -0.1220(6)
C2 C -0.3861(7) -0.0170(7) 0.4373(6)
H3 H -0.4147 -0.0670 0.3362
H4 H -0.3018 -0.1399 0.5259
C2A C -0.6139(7) 0.0170(7) 0.5627(6)
N2A N -0.7521(7) -0.1965(6) 0.6650(5)
H1A H -0.6665 -0.3267 0.7269
H2A H -0.7908 -0.2237 0.5609
H3A H -0.5853 0.0670 0.6638
H4A H -0.6982 0.1399 0.4741
S1A S 0.13171(19) -0.3079(2) 0.23986(16)
N1A N 0.5886(7) -0.2810(7) 0.0406(7)
C1A C 0.3996(7) -0.2898(7) 0.1220(6)
Ag1A Ag -0.06041(6) -0.18807(8) -0.10334(6)
N1_2 N 0.4114(7) 0.2810(7) -0.0406(7)
Ag1_2 Ag -0.93959(6) 0.18807(8) 0.10334(6)
Ag1A_2 Ag -1.06041(6) -0.18807(8) 0.89666(6)
Ag1A_3 Ag 0.93959(6) -0.18807(8) -0.10334(6)
N1A_2 N -0.4114(7) -0.2810(7) 0.0406(7)
N2A_2 N 0.2479(7) -0.1965(6) -0.3350(5)
H1A_2 H 0.3335 -0.3267 -0.2731
H2A_2 H 0.2092 -0.2237 -0.4391
loop_
_geom_bond_atom_site_label_1
_geom_bond_atom_site_label_2
_geom_bond_site_symmetry_1
_geom_bond_site_symmetry_2
Ag1 S1 1_555 1_555
S1 C1 1_555 1_555
N1 C1 1_555 1_555
N2 Ag1 1_555 1_555
H1 N2 1_555 1_555
H2 N2 1_555 1_555
C2 N2 1_555 1_555
H3 C2 1_555 1_555
H4 C2 1_555 1_555
C2A C2 1_555 1_555
N2A C2A 1_555 1_555
H1A N2A 1_555 1_555
H2A N2A 1_555 1_555
H3A C2A 1_555 1_555
H4A C2A 1_555 1_555
S1A Ag1 1_555 1_555
N1A C1A 1_555 1_555
C1A S1A 1_555 1_555
Ag1A S1 1_555 1_555
N1_2 Ag1 1_555 1_555
Ag1_2 N1 1_555 1_555
Ag1A_2 N2A 1_555 1_555
Ag1A_3 N1A 1_555 1_555
N1A_2 Ag1A 1_555 1_555
N2A_2 Ag1A 1_555 1_555
H1A_2 N2A_2 1_555 1_555
H2A_2 N2A_2 1_555 1_555
S1A Ag1A 1_555 1_555

#END
