
#######################################################################
#
#                 Cambridge Crystallographic Data Centre
#                                CCDC 
#
#######################################################################
#
# If this CIF has been generated from an entry in the Cambridge 
# Structural Database, then it will include bibliographic, chemical, 
# crystal, experimental, refinement or atomic coordinate data resulting 
# from the CCDC's data processing and validation procedures.
#
#######################################################################

data_GUJFIB
_symmetry_cell_setting           monoclinic
_symmetry_space_group_name_H-M   'P 2/c'
_symmetry_Int_Tables_number      13
_space_group_name_Hall           '-P 2yc'
loop_
_symmetry_equiv_pos_site_id
_symmetry_equiv_pos_as_xyz
1 x,y,z
2 -x,y,1/2-z
3 -x,-y,-z
4 x,-y,1/2+z
_cell_length_a                   14.600(2)
_cell_length_b                   6.4230(15)
_cell_length_c                   7.3600(16)
_cell_angle_alpha                90
_cell_angle_beta                 91.040(2)
_cell_angle_gamma                90
_cell_volume                     690.076
loop_
_atom_site_label
_atom_site_type_symbol
_atom_site_fract_x
_atom_site_fract_y
_atom_site_fract_z
Zn1 Zn 0.0000 0.31630(18) 0.2500
N1 N 0.4952(5) 0.0979(11) 0.5072(11)
O1 O 0.0580(3) 0.2983(7) 0.5302(8)
O2 O 0.1194(3) 0.5790(9) 0.6728(9)
O3 O 0.0000 0.0066(13) 0.2500
H1 H -0.0218 -0.0712 0.3320
C1 C 0.1274(5) 0.4040(13) 0.5904(11)
C2 C 0.2226(5) 0.3219(12) 0.5653(12)
C3 C 0.2366(5) 0.1182(13) 0.4902(12)
H2 H 0.1864 0.0381 0.4538
C4 C 0.3243(5) 0.0407(13) 0.4717(11)
H3 H 0.3329 -0.0927 0.4260
C5 C 0.4015(6) 0.1650(12) 0.5227(11)
C6 C 0.3873(6) 0.3656(14) 0.5901(13)
H4 H 0.4377 0.4483 0.6195
C7 C 0.2998(5) 0.4446(13) 0.6141(10)
H5 H 0.2919 0.5773 0.6619
Zn1_2 Zn 1.0000 -0.68370(18) 0.2500
Zn1B Zn 0.0000 0.68370(18) 0.7500
Zn1B_2 Zn 1.0000 -0.31630(18) 0.7500
N1B N 0.5048(5) -0.0979(11) 0.4928(11)
O1B O 0.9420(3) -0.2983(7) 0.4698(8)
O1A O -0.0580(3) 0.2983(7) -0.0302(8)
O2B O 0.8806(3) -0.5790(9) 0.3272(9)
O2B_2 O -0.1194(3) 0.4210(9) 0.3272(9)
O2C O 0.1194(3) 0.4210(9) 0.1728(9)
H1A H 0.0218 -0.0712 0.1680
C1B C 0.8726(5) -0.4040(13) 0.4096(11)
C2B C 0.7774(5) -0.3219(12) 0.4347(12)
C3B C 0.7634(5) -0.1182(13) 0.5098(12)
H2B H 0.8136 -0.0381 0.5462
C4B C 0.6757(5) -0.0407(13) 0.5283(11)
H3B H 0.6671 0.0927 0.5740
C5B C 0.5985(6) -0.1650(12) 0.4773(11)
C6B C 0.6127(6) -0.3656(14) 0.4099(13)
H4B H 0.5623 -0.4483 0.3805
C7B C 0.7002(5) -0.4446(13) 0.3859(10)
H5B H 0.7081 -0.5773 0.3381
loop_
_geom_bond_atom_site_label_1
_geom_bond_atom_site_label_2
_geom_bond_site_symmetry_1
_geom_bond_site_symmetry_2
Zn1 O1 1_555 1_555
N1 C5 1_555 1_555
O1 C1 1_555 1_555
O2 C1 1_555 1_555
O3 Zn1 1_555 1_555
H1 O3 1_555 1_555
C1 C2 1_555 1_555
C2 C3 1_555 1_555
C3 H2 1_555 1_555
C4 C3 1_555 1_555
H3 C4 1_555 1_555
C5 C4 1_555 1_555
C6 C5 1_555 1_555
H4 C6 1_555 1_555
C7 C2 1_555 1_555
H5 C7 1_555 1_555
Zn1_2 O2B 1_555 1_555
Zn1B O2 1_555 1_555
Zn1B_2 O1B 1_555 1_555
N1B N1 1_555 1_555
O1B C1B 1_555 1_555
O1A Zn1 1_555 1_555
O2B C1B 1_555 1_555
O2B_2 Zn1 1_555 1_555
O2C Zn1 1_555 1_555
H1A O3 1_555 1_555
C1B C2B 1_555 1_555
C2B C3B 1_555 1_555
C3B H2B 1_555 1_555
C4B C3B 1_555 1_555
H3B C4B 1_555 1_555
C5B N1B 1_555 1_555
C6B C5B 1_555 1_555
H4B C6B 1_555 1_555
C7B C2B 1_555 1_555
H5B C7B 1_555 1_555
C6 C7 1_555 1_555
C4B C5B 1_555 1_555
C6B C7B 1_555 1_555

#END
