
#######################################################################
#
#                 Cambridge Crystallographic Data Centre
#                                CCDC 
#
#######################################################################
#
# If this CIF has been generated from an entry in the Cambridge 
# Structural Database, then it will include bibliographic, chemical, 
# crystal, experimental, refinement or atomic coordinate data resulting 
# from the CCDC's data processing and validation procedures.
#
#######################################################################

data_GUJHEY
_symmetry_cell_setting           triclinic
_symmetry_space_group_name_H-M   'P -1'
_symmetry_Int_Tables_number      2
_space_group_name_Hall           '-P 1'
loop_
_symmetry_equiv_pos_site_id
_symmetry_equiv_pos_as_xyz
1 x,y,z
2 -x,-y,-z
_cell_length_a                   5.4646(2)
_cell_length_b                   11.8165(7)
_cell_length_c                   15.0889(9)
_cell_angle_alpha                108.759(2)
_cell_angle_beta                 95.400(3)
_cell_angle_gamma                100.163(3)
_cell_volume                     896.122
loop_
_atom_site_label
_atom_site_type_symbol
_atom_site_fract_x
_atom_site_fract_y
_atom_site_fract_z
Cl1 Cl -0.3263(5) 0.6226(2) 0.29352(19)
O1 O -0.4197(19) 0.4924(8) 0.2539(7)
O2 O -0.0627(16) 0.6557(10) 0.3000(7)
O3 O -0.4433(17) 0.6771(7) 0.2337(6)
O4 O -0.3885(19) 0.6671(9) 0.3870(6)
Ni1 Ni 0.0000 0.0000 0.0000
O5 O -0.2522(11) -0.1142(5) 0.0474(4)
O6 O 0.1593(11) 0.0961(6) 0.1360(4)
O7 O -0.2437(11) 0.1163(6) 0.0243(4)
N1 N -0.1911(13) -0.2226(7) 0.0362(5)
C1 C -0.0259(18) -0.2329(9) 0.1022(7)
H1 H 0.0375 -0.1662 0.1576
C2 C 0.0527(19) -0.3407(9) 0.0897(7)
H2 H 0.1707 -0.3460 0.1360
C3 C -0.0438(17) -0.4407(8) 0.0086(6)
C4 C -0.223(2) -0.4280(9) -0.0567(8)
H3 H -0.2959 -0.4945 -0.1112
C5 C -0.293(2) -0.3188(9) -0.0422(7)
H4 H -0.4121 -0.3114 -0.0871
H5 H 0.1085 0.0705 0.1894
H6 H 0.3329 0.1226 0.1655
H7 H -0.3704 0.1132 -0.0038
H8 H -0.2784 0.1581 0.0942
O5A O 0.2522(11) 0.1142(5) -0.0474(4)
O6A O -0.1593(11) -0.0961(6) -0.1360(4)
O7A O 0.2437(11) -0.1163(6) -0.0243(4)
C3A C 0.0438(17) -0.5593(8) -0.0086(6)
H5A H -0.1085 -0.0705 -0.1894
H6A H -0.3329 -0.1226 -0.1655
H7A H 0.3704 -0.1132 0.0038
H8A H 0.2784 -0.1581 -0.0942
C2A C -0.0527(19) -0.6593(9) -0.0897(7)
C4A C 0.223(2) -0.5720(9) 0.0567(8)
C1A C 0.0259(18) -0.7671(9) -0.1022(7)
H2A H -0.1707 -0.6540 -0.1360
H3A H 0.2959 -0.5055 0.1112
C5A C 0.293(2) -0.6812(9) 0.0422(7)
N1A N 0.1911(13) -0.7774(7) -0.0362(5)
H1A H -0.0375 -0.8338 -0.1576
H4A H 0.4121 -0.6886 0.0871
O5A_2 O 0.2522(11) -0.8858(5) -0.0474(4)
Ni1_2 Ni 0.0000 -1.0000 0.0000
O8 O 0.1068(13) 0.0691(8) 0.2997(5)
N2 N -0.0639(15) 0.0529(8) 0.3521(6)
C6 C -0.280(2) -0.0318(11) 0.3168(8)
H9 H -0.3142 -0.0773 0.2523
C7 C -0.449(2) -0.0526(10) 0.3730(7)
H10 H -0.5950 -0.1133 0.3463
C8 C -0.4112(18) 0.0130(8) 0.4679(6)
C9 C -0.195(2) 0.1052(10) 0.5031(7)
H11 H -0.1655 0.1548 0.5666
C10 C -0.022(2) 0.1247(9) 0.4458(7)
H12 H 0.1229 0.1866 0.4708
C8A C -0.5888(18) -0.0130(8) 0.5321(6)
C7A C -0.551(2) 0.0526(10) 0.6270(7)
C9A C -0.805(2) -0.1052(10) 0.4969(7)
C6A C -0.720(2) 0.0318(11) 0.6832(8)
H10A H -0.4050 0.1133 0.6537
H11A H -0.8345 -0.1548 0.4334
C10A C -0.978(2) -0.1247(9) 0.5542(7)
N2A N -0.9361(15) -0.0529(8) 0.6479(6)
H9A H -0.6858 0.0773 0.7477
H12A H -1.1229 -0.1866 0.5292
O8A O -1.1068(13) -0.0691(8) 0.7003(5)
O9 O -0.3482(12) 0.1851(7) 0.1957(4)
N3 N -0.2506(14) 0.2716(7) 0.2795(5)
C11 C -0.3784(17) 0.2806(9) 0.3516(6)
H13 H -0.5319 0.2267 0.3433
C12 C -0.2812(18) 0.3708(8) 0.4392(6)
H14 H -0.3716 0.3781 0.4892
C13 C -0.0518(16) 0.4497(8) 0.4526(6)
C14 C 0.0744(17) 0.4343(9) 0.3771(7)
H15 H 0.2330 0.4840 0.3852
C15 C -0.0278(15) 0.3462(9) 0.2880(6)
H16 H 0.0562 0.3397 0.2364
C13A C 0.0518(16) 0.5503(8) 0.5474(6)
C12A C 0.2812(18) 0.6292(8) 0.5608(6)
C14A C -0.0744(17) 0.5657(9) 0.6229(7)
C11A C 0.3784(17) 0.7194(9) 0.6484(6)
H14A H 0.3716 0.6219 0.5108
H15A H -0.2330 0.5160 0.6148
C15A C 0.0278(15) 0.6538(9) 0.7120(6)
N3A N 0.2506(14) 0.7284(7) 0.7205(5)
H13A H 0.5319 0.7733 0.6567
H16A H -0.0562 0.6603 0.7636
O9A O 0.3482(12) 0.8149(7) 0.8043(4)
loop_
_geom_bond_atom_site_label_1
_geom_bond_atom_site_label_2
_geom_bond_site_symmetry_1
_geom_bond_site_symmetry_2
Cl1 O1 1_555 1_555
O2 Cl1 1_555 1_555
O3 Cl1 1_555 1_555
O4 Cl1 1_555 1_555
Ni1 O5 1_555 1_555
O5 N1 1_555 1_555
O6 Ni1 1_555 1_555
O7 Ni1 1_555 1_555
N1 C1 1_555 1_555
C1 H1 1_555 1_555
C2 C1 1_555 1_555
H2 C2 1_555 1_555
C3 C2 1_555 1_555
C4 C3 1_555 1_555
H3 C4 1_555 1_555
C5 N1 1_555 1_555
H4 C5 1_555 1_555
H5 O6 1_555 1_555
H6 O6 1_555 1_555
H7 O7 1_555 1_555
H8 O7 1_555 1_555
O8 N2 1_555 1_555
N2 C6 1_555 1_555
C6 H9 1_555 1_555
C7 C6 1_555 1_555
H10 C7 1_555 1_555
C8 C7 1_555 1_555
C9 C8 1_555 1_555
H11 C9 1_555 1_555
C10 N2 1_555 1_555
H12 C10 1_555 1_555
O9 N3 1_555 1_555
N3 C11 1_555 1_555
C11 H13 1_555 1_555
C12 C11 1_555 1_555
H14 C12 1_555 1_555
C13 C12 1_555 1_555
C14 C13 1_555 1_555
H15 C14 1_555 1_555
C15 N3 1_555 1_555
H16 C15 1_555 1_555
O5A Ni1 1_555 1_555
O6A Ni1 1_555 1_555
O7A Ni1 1_555 1_555
C3A C3 1_555 1_555
H5A O6A 1_555 1_555
H6A O6A 1_555 1_555
H7A O7A 1_555 1_555
H8A O7A 1_555 1_555
C2A C3A 1_555 1_555
C4A C3A 1_555 1_555
C1A C2A 1_555 1_555
H2A C2A 1_555 1_555
H3A C4A 1_555 1_555
C5A C4A 1_555 1_555
N1A C1A 1_555 1_555
H1A C1A 1_555 1_555
H4A C5A 1_555 1_555
O5A_2 N1A 1_555 1_555
Ni1_2 O5A_2 1_555 1_555
C8A C8 1_555 1_555
C7A C8A 1_555 1_555
C9A C8A 1_555 1_555
C6A C7A 1_555 1_555
H10A C7A 1_555 1_555
H11A C9A 1_555 1_555
C10A C9A 1_555 1_555
N2A C6A 1_555 1_555
H9A C6A 1_555 1_555
H12A C10A 1_555 1_555
O8A N2A 1_555 1_555
C13A C13 1_555 1_555
C12A C13A 1_555 1_555
C14A C13A 1_555 1_555
C11A C12A 1_555 1_555
H14A C12A 1_555 1_555
H15A C14A 1_555 1_555
C15A C14A 1_555 1_555
N3A C11A 1_555 1_555
H13A C11A 1_555 1_555
H16A C15A 1_555 1_555
O9A N3A 1_555 1_555
C4 C5 1_555 1_555
C9 C10 1_555 1_555
C14 C15 1_555 1_555
C5A N1A 1_555 1_555
C10A N2A 1_555 1_555
C15A N3A 1_555 1_555

#END
