
#######################################################################
#
#                 Cambridge Crystallographic Data Centre
#                                CCDC 
#
#######################################################################
#
# If this CIF has been generated from an entry in the Cambridge 
# Structural Database, then it will include bibliographic, chemical, 
# crystal, experimental, refinement or atomic coordinate data resulting 
# from the CCDC's data processing and validation procedures.
#
#######################################################################

data_GUJHAU
_symmetry_cell_setting           triclinic
_symmetry_space_group_name_H-M   'P -1'
_symmetry_Int_Tables_number      2
_space_group_name_Hall           '-P 1'
loop_
_symmetry_equiv_pos_site_id
_symmetry_equiv_pos_as_xyz
1 x,y,z
2 -x,-y,-z
_cell_length_a                   5.5207(3)
_cell_length_b                   11.8309(5)
_cell_length_c                   14.9809(6)
_cell_angle_alpha                107.813(2)
_cell_angle_beta                 95.995(2)
_cell_angle_gamma                100.588(2)
_cell_volume                     902.113
loop_
_atom_site_label
_atom_site_type_symbol
_atom_site_fract_x
_atom_site_fract_y
_atom_site_fract_z
Cl1 Cl -0.32591(15) 0.62042(7) 0.29428(6)
O6 O -0.4181(6) 0.4912(2) 0.2547(2)
O7 O -0.0618(5) 0.6551(3) 0.3025(2)
O8 O -0.4391(6) 0.6768(2) 0.2336(2)
O9 O -0.3895(7) 0.6610(3) 0.3866(2)
Co1 Co 0.0000 0.0000 0.0000
O1 O -0.2511(3) -0.11723(16) 0.04846(14)
O4 O 0.1658(4) 0.0961(2) 0.13844(14)
H1 H 0.110(7) 0.069(4) 0.191(3)
H2 H 0.335(8) 0.121(3) 0.167(3)
O5 O -0.2506(4) 0.11711(18) 0.02372(16)
H3 H -0.369(6) 0.112(3) -0.002(2)
H4 H -0.277(7) 0.156(3) 0.096(3)
N1 N -0.1924(4) -0.22543(19) 0.03685(16)
C1 C -0.0231(6) -0.2356(3) 0.1036(2)
H5 H 0.0433 -0.1695 0.1588
C2 C 0.0520(6) -0.3426(3) 0.0906(2)
H6 H 0.1675 -0.3489 0.1377
C3 C -0.0415(5) -0.4417(2) 0.0085(2)
C4 C -0.2221(7) -0.4281(3) -0.0566(3)
H7 H -0.2957 -0.4938 -0.1113
C5 C -0.2944(6) -0.3202(3) -0.0422(2)
H8 H -0.4142 -0.3128 -0.0872
O1A O 0.2511(3) 0.11723(16) -0.04846(14)
O4A O -0.1658(4) -0.0961(2) -0.13844(14)
O5A O 0.2506(4) -0.11711(18) -0.02372(16)
C3A C 0.0415(5) -0.5583(2) -0.0085(2)
H1A H -0.110(7) -0.069(4) -0.191(3)
H2A H -0.335(8) -0.121(3) -0.167(3)
H3A H 0.369(6) -0.112(3) 0.002(2)
H4A H 0.277(7) -0.156(3) -0.096(3)
C2A C -0.0520(6) -0.6574(3) -0.0906(2)
C4A C 0.2221(7) -0.5719(3) 0.0566(3)
C1A C 0.0231(6) -0.7644(3) -0.1036(2)
H6A H -0.1675 -0.6511 -0.1377
H7A H 0.2957 -0.5062 0.1113
C5A C 0.2944(6) -0.6798(3) 0.0422(2)
N1A N 0.1924(4) -0.77457(19) -0.03685(16)
H5A H -0.0433 -0.8305 -0.1588
H8A H 0.4142 -0.6872 0.0872
O1A_2 O 0.2511(3) -0.88277(16) -0.04846(14)
Co1_2 Co 0.0000 -1.0000 0.0000
O2 O 0.1108(4) 0.0691(3) 0.30266(17)
N2 N -0.0617(5) 0.0539(2) 0.35482(18)
C6 C -0.2731(6) -0.0331(3) 0.3176(2)
H9 H -0.3031 -0.0789 0.2533
C7 C -0.4445(6) -0.0550(3) 0.3733(2)
H10 H -0.5877 -0.1169 0.3464
C8 C -0.4093(5) 0.0133(3) 0.4692(2)
C9 C -0.1952(6) 0.1062(3) 0.5038(2)
H11 H -0.1674 0.1569 0.5669
C10 C -0.0241(6) 0.1248(3) 0.4470(2)
H12 H 0.1196 0.1869 0.4722
C8A C -0.5907(5) -0.0133(3) 0.5308(2)
C7A C -0.5555(6) 0.0550(3) 0.6267(2)
C9A C -0.8048(6) -0.1062(3) 0.4962(2)
C6A C -0.7269(6) 0.0331(3) 0.6824(2)
H10A H -0.4123 0.1169 0.6536
H11A H -0.8326 -0.1569 0.4331
C10A C -0.9759(6) -0.1248(3) 0.5530(2)
N2A N -0.9383(5) -0.0539(2) 0.64518(18)
H9A H -0.6969 0.0789 0.7467
H12A H -1.1196 -0.1869 0.5278
O2A O -1.1108(4) -0.0691(3) 0.69734(17)
O3 O -0.3448(4) 0.1801(3) 0.19922(16)
N3 N -0.2491(4) 0.2675(2) 0.28186(16)
C11 C -0.3778(6) 0.2803(3) 0.3541(2)
H13 H -0.5319 0.2276 0.3461
C12 C -0.2827(5) 0.3707(3) 0.4394(2)
H14 H -0.3745 0.3792 0.4887
C13 C -0.0518(5) 0.4503(2) 0.45392(19)
C14 C 0.0763(5) 0.4325(3) 0.3768(2)
H15 H 0.2321 0.4829 0.3830
C15 C -0.0255(5) 0.3419(3) 0.2926(2)
H16 H 0.0614 0.3317 0.2418
C13A C 0.0518(5) 0.5497(2) 0.54608(19)
C12A C 0.2827(5) 0.6293(3) 0.5606(2)
C14A C -0.0763(5) 0.5675(3) 0.6232(2)
C11A C 0.3778(6) 0.7197(3) 0.6459(2)
H14A H 0.3745 0.6208 0.5113
H15A H -0.2321 0.5171 0.6170
C15A C 0.0255(5) 0.6581(3) 0.7074(2)
N3A N 0.2491(4) 0.7325(2) 0.71814(16)
H13A H 0.5319 0.7724 0.6539
H16A H -0.0614 0.6683 0.7582
O3A O 0.3448(4) 0.8199(3) 0.80078(16)
loop_
_geom_bond_atom_site_label_1
_geom_bond_atom_site_label_2
_geom_bond_site_symmetry_1
_geom_bond_site_symmetry_2
Cl1 O6 1_555 1_555
Co1 O1 1_555 1_555
O1 N1 1_555 1_555
O2 N2 1_555 1_555
O3 N3 1_555 1_555
O4 Co1 1_555 1_555
H1 O4 1_555 1_555
H2 O4 1_555 1_555
O5 Co1 1_555 1_555
H3 O5 1_555 1_555
H4 O5 1_555 1_555
O7 Cl1 1_555 1_555
O8 Cl1 1_555 1_555
O9 Cl1 1_555 1_555
N1 C1 1_555 1_555
N2 C6 1_555 1_555
N3 C11 1_555 1_555
C1 H5 1_555 1_555
C2 C1 1_555 1_555
H6 C2 1_555 1_555
C3 C2 1_555 1_555
C4 C3 1_555 1_555
H7 C4 1_555 1_555
C5 N1 1_555 1_555
H8 C5 1_555 1_555
C6 H9 1_555 1_555
C7 C6 1_555 1_555
H10 C7 1_555 1_555
C8 C7 1_555 1_555
C9 C8 1_555 1_555
H11 C9 1_555 1_555
C10 N2 1_555 1_555
H12 C10 1_555 1_555
C11 H13 1_555 1_555
C12 C11 1_555 1_555
H14 C12 1_555 1_555
C13 C12 1_555 1_555
C14 C13 1_555 1_555
H15 C14 1_555 1_555
C15 N3 1_555 1_555
H16 C15 1_555 1_555
O1A Co1 1_555 1_555
O4A Co1 1_555 1_555
O5A Co1 1_555 1_555
C3A C3 1_555 1_555
C8A C8 1_555 1_555
C13A C13 1_555 1_555
H1A O4A 1_555 1_555
H2A O4A 1_555 1_555
H3A O5A 1_555 1_555
H4A O5A 1_555 1_555
C2A C3A 1_555 1_555
C4A C3A 1_555 1_555
C7A C8A 1_555 1_555
C9A C8A 1_555 1_555
C12A C13A 1_555 1_555
C14A C13A 1_555 1_555
C1A C2A 1_555 1_555
H6A C2A 1_555 1_555
H7A C4A 1_555 1_555
C5A C4A 1_555 1_555
C6A C7A 1_555 1_555
H10A C7A 1_555 1_555
H11A C9A 1_555 1_555
C10A C9A 1_555 1_555
C11A C12A 1_555 1_555
H14A C12A 1_555 1_555
H15A C14A 1_555 1_555
C15A C14A 1_555 1_555
N1A C1A 1_555 1_555
H5A C1A 1_555 1_555
H8A C5A 1_555 1_555
N2A C6A 1_555 1_555
H9A C6A 1_555 1_555
H12A C10A 1_555 1_555
N3A C11A 1_555 1_555
H13A C11A 1_555 1_555
H16A C15A 1_555 1_555
O1A_2 N1A 1_555 1_555
O2A N2A 1_555 1_555
O3A N3A 1_555 1_555
Co1_2 O1A_2 1_555 1_555
C4 C5 1_555 1_555
C9 C10 1_555 1_555
C14 C15 1_555 1_555
C5A N1A 1_555 1_555
C10A N2A 1_555 1_555
C15A N3A 1_555 1_555

#END
