
#######################################################################
#
#                 Cambridge Crystallographic Data Centre
#                                CCDC 
#
#######################################################################
#
# If this CIF has been generated from an entry in the Cambridge 
# Structural Database, then it will include bibliographic, chemical, 
# crystal, experimental, refinement or atomic coordinate data resulting 
# from the CCDC's data processing and validation procedures.
#
#######################################################################

data_GUJHID
_symmetry_cell_setting           triclinic
_symmetry_space_group_name_H-M   'P -1'
_symmetry_Int_Tables_number      2
_space_group_name_Hall           '-P 1'
loop_
_symmetry_equiv_pos_site_id
_symmetry_equiv_pos_as_xyz
1 x,y,z
2 -x,-y,-z
_cell_length_a                   10.391(2)
_cell_length_b                   12.852(3)
_cell_length_c                   19.771(4)
_cell_angle_alpha                84.27(3)
_cell_angle_beta                 74.78(4)
_cell_angle_gamma                71.35(3)
_cell_volume                     2413.57
loop_
_atom_site_label
_atom_site_type_symbol
_atom_site_fract_x
_atom_site_fract_y
_atom_site_fract_z
C41 C 0.475(3) 0.4359(13) 0.6012(13)
H23 H 0.5553 0.4484 0.5729
C42 C 0.483(3) 0.322(2) 0.5071(12)
H24 H 0.4267 0.2829 0.4962
H25 H 0.5732 0.2713 0.5092
H26 H 0.4957 0.3767 0.4714
C43 C 0.292(3) 0.352(2) 0.6198(14)
H27 H 0.2580 0.3092 0.5955
H28 H 0.2202 0.4201 0.6336
H29 H 0.3159 0.3120 0.6607
N9 N 0.4156(19) 0.3739(9) 0.5737(8)
O10 O 0.435(2) 0.4726(10) 0.6542(9)
C1 C 0.6160(6) 0.2060(6) 0.8544(3)
C2 C 0.6442(6) 0.1520(5) 0.7853(3)
C3 C 0.6274(8) 0.2228(6) 0.7284(3)
H1 H 0.5952 0.2982 0.7356
C4 C 0.6573(8) 0.1844(6) 0.6607(3)
H2 H 0.6444 0.2343 0.6238
C5 C 0.7044(6) 0.0764(5) 0.6480(3)
C6 C 0.7179(6) -0.0021(5) 0.7047(3)
C7 C 0.7600(8) -0.1161(5) 0.6931(3)
H3 H 0.7798 -0.1413 0.6478
C8 C 0.7718(9) -0.1890(6) 0.7473(4)
H4 H 0.7995 -0.2639 0.7390
C9 C 0.7421(8) -0.1520(6) 0.8164(4)
H5 H 0.7502 -0.2025 0.8533
C10 C 0.7025(6) -0.0444(5) 0.8286(3)
H6 H 0.6842 -0.0219 0.8743
C11 C 0.6873(5) 0.0365(5) 0.7747(3)
C12 C 0.7509(8) 0.0406(7) 0.5726(3)
C13 C 0.6609(6) -0.0072(5) 1.0458(3)
H7 H 0.6691 -0.0169 0.9987
C14 C 0.6888(7) -0.0995(5) 1.0883(3)
H8 H 0.7162 -0.1693 1.0700
C15 C 0.6755(6) -0.0866(5) 1.1580(3)
H9 H 0.6923 -0.1476 1.1877
C16 C 0.6367(6) 0.0188(5) 1.1840(3)
C17 C 0.6125(6) 0.1085(5) 1.1371(3)
C18 C 0.5760(7) 0.2205(5) 1.1606(3)
C19 C 0.5619(10) 0.2384(6) 1.2312(4)
C20 C 0.5340(15) 0.3478(7) 1.2502(5)
H10 H 0.5255 0.3638 1.2964
C21 C 0.5195(16) 0.4295(7) 1.2014(5)
H11 H 0.4995 0.5019 1.2138
C22 C 0.5346(11) 0.4044(6) 1.1326(4)
H12 H 0.5273 0.4608 1.0991
C23 C 0.6174(7) 0.0390(5) 1.2576(3)
C24 C 0.5783(9) 0.1456(6) 1.2805(3)
C25 C 0.6165(9) -0.0256(7) 1.3682(4)
H13 H 0.6305 -0.0834 1.4004
C26 C 0.5730(12) 0.0798(8) 1.3920(4)
H14 H 0.5559 0.0902 1.4399
C27 C 0.8571(11) 0.2057(6) 0.3961(4)
H15 H 0.8436 0.2122 0.4441
C28 C 0.8380(12) 0.3003(7) 0.3545(4)
H16 H 0.8118 0.3688 0.3746
C29 C 0.8581(12) 0.2922(6) 0.2838(4)
H17 H 0.8456 0.3551 0.2554
C30 C 0.8972(9) 0.1896(6) 0.2550(3)
C31 C 0.9209(8) 0.1741(5) 0.1798(3)
C32 C 0.9589(6) 0.0703(5) 0.1540(3)
C33 C 0.9805(6) -0.0274(5) 0.1997(3)
C34 C 0.9584(7) -0.0126(5) 0.2717(3)
C35 C 1.0194(7) -0.1335(6) 0.1762(3)
H18 H 1.0342 -0.1459 0.1289
C36 C 0.9148(8) 0.0976(6) 0.2995(3)
C37 C 1.0362(9) -0.2195(6) 0.2223(4)
H19 H 1.0624 -0.2912 0.2071
C38 C 1.0132(9) -0.1982(6) 0.2927(4)
H20 H 1.0246 -0.2572 0.3242
C39 C 0.9238(10) 0.2469(7) 0.0709(4)
H21 H 0.9140 0.3061 0.0395
C40 C 0.9599(8) 0.1421(7) 0.0452(3)
H22 H 0.9713 0.1346 -0.0025
C44 C 0.2057(15) 0.4107(9) 0.8746(6)
H30 H 0.2976 0.3753 0.8772
C45 C 0.1774(17) 0.4190(11) 0.8089(7)
H31 H 0.2471 0.3893 0.7694
C46 C 0.0379(16) 0.4746(10) 0.8047(6)
H32 H 0.0149 0.4817 0.7617
C47 C 0.1040(7) 0.4526(4) 0.9398(3)
C48 C 0.1376(6) 0.4448(4) 1.0054(3)
C49 C 0.2849(6) 0.3854(4) 1.0098(3)
C50 C -0.0352(7) 0.5077(4) 0.9351(3)
C51 C 0.9681(14) -0.2650(9) 0.4706(4)
C52 C 0.9872(8) -0.3875(5) 0.4861(3)
C53 C 0.8905(7) -0.4197(4) 0.5397(3)
C54 C 1.0864(8) -0.4599(7) 0.4514(3)
C55 C 0.8183(8) -0.3609(5) 0.5758(4)
H33 H 0.8160 -0.2878 0.5681
C56 C 1.1705(12) -0.4251(6) 0.3953(6)
H34 H 1.1617 -0.3509 0.3870
C57 C 0.7245(9) -0.3881(7) 0.6356(5)
H35 H 0.6590 -0.3346 0.6659
C58 C 1.2651(19) -0.5005(12) 0.3530(10)
H36 H 1.3262 -0.4795 0.3147
C59 C -0.0628(13) 0.5176(8) 0.8630(6)
H37 H -0.1529 0.5549 0.8582
N1 N 0.5593(6) 0.3023(4) 1.1127(3)
N2 N 0.6229(5) 0.0947(4) 1.0686(2)
N3 N 0.5541(10) 0.1683(6) 1.3494(3)
N4 N 0.6392(6) -0.0487(5) 1.3021(3)
N5 N 0.8938(7) 0.1063(5) 0.3699(3)
N6 N 0.9762(6) -0.0984(4) 0.3170(3)
N7 N 0.9784(6) 0.0539(5) 0.0844(3)
N8 N 0.9028(8) 0.2661(5) 0.1376(3)
O1 O 0.5817(8) 0.3073(4) 0.8558(3)
O2 O 0.6336(6) 0.1472(4) 0.9084(2)
O3 O 0.7187(6) 0.3465(4) 0.9488(3)
O4 O 0.6678(8) 0.0588(10) 0.5371(3)
O5 O 0.8751(5) 0.0034(4) 0.5468(2)
O6 O 0.3237(5) 0.2821(3) 1.0115(2)
O7 O 0.3650(5) 0.4391(3) 1.0109(2)
O8 O 0.8510(10) -0.2022(6) 0.4671(4)
O9 O 1.0748(8) -0.2347(5) 0.4579(3)
Cd1 Cd 0.55716(5) 0.25531(3) 1.00181(2)
Cd2 Cd 0.94008(7) -0.05376(4) 0.43628(2)
H38 H 0.698(8) 0.362(6) 0.909(4)
H39 H 0.695(7) 0.406(6) 0.960(4)
C1A C 1.3840(6) -0.2060(6) 0.1456(3)
C2A C 1.3558(6) -0.1520(5) 0.2147(3)
C3A C 1.3726(8) -0.2228(6) 0.2716(3)
H1A H 1.4048 -0.2982 0.2644
C4A C 1.3427(8) -0.1844(6) 0.3393(3)
H2A H 1.3556 -0.2343 0.3762
C5A C 1.2956(6) -0.0764(5) 0.3520(3)
C6A C 1.2821(6) 0.0021(5) 0.2953(3)
C7A C 1.2400(8) 0.1161(5) 0.3069(3)
H3A H 1.2202 0.1413 0.3522
C8A C 1.2282(9) 0.1890(6) 0.2527(4)
H4A H 1.2005 0.2639 0.2610
C9A C 1.2579(8) 0.1520(6) 0.1836(4)
H5A H 1.2498 0.2025 0.1467
C10A C 1.2975(6) 0.0444(5) 0.1714(3)
H6A H 1.3158 0.0219 0.1257
C11A C 1.3127(5) -0.0365(5) 0.2253(3)
C12A C 1.2491(8) -0.0406(7) 0.4274(3)
C13A C -0.6609(6) 1.0072(5) 0.9542(3)
H7A H -0.6691 1.0169 1.0013
C14A C -0.6888(7) 1.0995(5) 0.9117(3)
H8A H -0.7162 1.1693 0.9300
C15A C -0.6755(6) 1.0866(5) 0.8420(3)
H9A H -0.6923 1.1476 0.8123
C16A C -0.6367(6) 0.9812(5) 0.8160(3)
C17A C -0.6125(6) 0.8915(5) 0.8629(3)
C18A C -0.5760(7) 0.7795(5) 0.8394(3)
C19A C -0.5619(10) 0.7616(6) 0.7688(4)
C20A C -0.5340(15) 0.6522(7) 0.7498(5)
H10A H -0.5255 0.6362 0.7036
C21A C -0.5195(16) 0.5705(7) 0.7986(5)
H11A H -0.4995 0.4981 0.7862
C22A C -0.5346(11) 0.5956(6) 0.8674(4)
H12A H -0.5273 0.5392 0.9009
C23A C -0.6174(7) 0.9610(5) 0.7424(3)
C24A C -0.5783(9) 0.8544(6) 0.7195(3)
C25A C -0.6165(9) 1.0256(7) 0.6318(4)
H13A H -0.6305 1.0834 0.5996
C26A C -0.5730(12) 0.9202(8) 0.6080(4)
H14A H -0.5559 0.9098 0.5601
C27A C 1.1429(11) -0.2057(6) 0.6039(4)
H15A H 1.1564 -0.2122 0.5559
C28A C 1.1620(12) -0.3003(7) 0.6455(4)
H16A H 1.1882 -0.3688 0.6254
C29A C 1.1419(12) -0.2922(6) 0.7162(4)
H17A H 1.1544 -0.3551 0.7446
C30A C 1.1028(9) -0.1896(6) 0.7450(3)
C31A C 1.0791(8) -0.1741(5) 0.8202(3)
C32A C 1.0411(6) -0.0703(5) 0.8460(3)
C33A C 1.0195(6) 0.0274(5) 0.8003(3)
C34A C 1.0416(7) 0.0126(5) 0.7283(3)
C35A C 0.9806(7) 0.1335(6) 0.8238(3)
H18A H 0.9658 0.1459 0.8711
C36A C 1.0852(8) -0.0976(6) 0.7005(3)
C37A C 0.9638(9) 0.2195(6) 0.7777(4)
H19A H 0.9376 0.2912 0.7929
C38A C 0.9868(9) 0.1982(6) 0.7073(4)
H20A H 0.9754 0.2572 0.6758
C39A C 1.0762(10) -0.2469(7) 0.9291(4)
H21A H 1.0860 -0.3061 0.9605
C40A C 1.0401(8) -0.1421(7) 0.9548(3)
H22A H 1.0287 -0.1346 1.0025
C44A C -0.2057(15) 0.5893(9) 1.1254(6)
H30A H -0.2976 0.6247 1.1228
C45A C -0.1774(17) 0.5810(11) 1.1911(7)
H31A H -0.2471 0.6107 1.2306
C46A C -0.0379(16) 0.5254(10) 1.1953(6)
H32A H -0.0149 0.5183 1.2383
C47A C -0.1040(7) 0.5474(4) 1.0602(3)
C48A C -0.1376(6) 0.5552(4) 0.9946(3)
C49A C -0.2849(6) 0.6146(4) 0.9902(3)
C50A C 0.0352(7) 0.4923(4) 1.0649(3)
C51A C 1.0319(14) -0.7350(9) 0.5294(4)
C52A C 1.0128(8) -0.6125(5) 0.5139(3)
C53A C 1.1095(7) -0.5803(4) 0.4603(3)
C54A C 0.9136(8) -0.5401(7) 0.5486(3)
C55A C 1.1817(8) -0.6391(5) 0.4242(4)
H33A H 1.1840 -0.7122 0.4319
C56A C 0.8295(12) -0.5749(6) 0.6047(6)
H34A H 0.8383 -0.6491 0.6130
C57A C 1.2755(9) -0.6119(7) 0.3644(5)
H35A H 1.3410 -0.6654 0.3341
C58A C 0.7349(19) -0.4995(12) 0.6470(10)
H36A H 0.6738 -0.5205 0.6853
C59A C 0.0628(13) 0.4824(8) 1.1370(6)
H37A H 0.1529 0.4451 1.1418
N1A N -0.5593(6) 0.6977(4) 0.8873(3)
N2A N -0.6229(5) 0.9053(4) 0.9314(2)
N3A N -0.5541(10) 0.8317(6) 0.6506(3)
N4A N -0.6392(6) 1.0487(5) 0.6979(3)
N5A N 1.1062(7) -0.1063(5) 0.6301(3)
N6A N 1.0238(6) 0.0984(4) 0.6830(3)
N7A N 1.0216(6) -0.0539(5) 0.9156(3)
N8A N 1.0972(8) -0.2661(5) 0.8624(3)
O1A O 1.4183(8) -0.3073(4) 0.1442(3)
O2A O 1.3664(6) -0.1472(4) 0.0916(2)
O2A_2 O -0.6336(6) 0.8528(4) 1.0916(2)
O3A O -0.7187(6) 0.6535(4) 1.0512(3)
O4A O 1.3322(8) -0.0588(10) 0.4629(3)
O5A O 1.1249(5) -0.0034(4) 0.4532(2)
O6A O -0.3237(5) 0.7179(3) 0.9885(2)
O7A O -0.3650(5) 0.5609(3) 0.9891(2)
O8A O 1.1490(10) -0.7978(6) 0.5329(4)
O8A_2 O 1.1490(10) 0.2022(6) 0.5329(4)
O9A O 0.9252(8) -0.7653(5) 0.5421(3)
O9A_2 O 0.9252(8) 0.2347(5) 0.5421(3)
Cd1A Cd -0.55716(5) 0.74469(3) 0.99819(2)
Cd1A_2 Cd 1.44284(5) -0.25531(3) -0.00181(2)
Cd2A Cd 1.05992(7) 0.05376(4) 0.56372(2)
Cd2A_2 Cd 1.05992(7) -0.94624(4) 0.56372(2)
H38A H -0.698(8) 0.638(6) 1.091(4)
H39A H -0.695(7) 0.594(6) 1.040(4)
loop_
_geom_bond_atom_site_label_1
_geom_bond_atom_site_label_2
_geom_bond_site_symmetry_1
_geom_bond_site_symmetry_2
C1 C2 1_555 1_555
C2 C3 1_555 1_555
C3 H1 1_555 1_555
C4 C3 1_555 1_555
H2 C4 1_555 1_555
C5 C4 1_555 1_555
C6 C5 1_555 1_555
C7 C6 1_555 1_555
H3 C7 1_555 1_555
C8 C7 1_555 1_555
H4 C8 1_555 1_555
C9 C8 1_555 1_555
H5 C9 1_555 1_555
C10 C9 1_555 1_555
H6 C10 1_555 1_555
C11 C2 1_555 1_555
C12 C5 1_555 1_555
C13 H7 1_555 1_555
C14 C13 1_555 1_555
H8 C14 1_555 1_555
C15 C14 1_555 1_555
H9 C15 1_555 1_555
C16 C15 1_555 1_555
C17 C16 1_555 1_555
C18 C17 1_555 1_555
C19 C18 1_555 1_555
C20 C19 1_555 1_555
H10 C20 1_555 1_555
C21 C20 1_555 1_555
H11 C21 1_555 1_555
C22 C21 1_555 1_555
H12 C22 1_555 1_555
C23 C16 1_555 1_555
C24 C19 1_555 1_555
C25 H13 1_555 1_555
C26 C25 1_555 1_555
H14 C26 1_555 1_555
C27 H15 1_555 1_555
C28 C27 1_555 1_555
H16 C28 1_555 1_555
C29 C28 1_555 1_555
H17 C29 1_555 1_555
C30 C29 1_555 1_555
C31 C30 1_555 1_555
C32 C31 1_555 1_555
C33 C32 1_555 1_555
C34 C33 1_555 1_555
C35 C33 1_555 1_555
H18 C35 1_555 1_555
C36 C30 1_555 1_555
C37 C35 1_555 1_555
H19 C37 1_555 1_555
C38 C37 1_555 1_555
H20 C38 1_555 1_555
C39 H21 1_555 1_555
C40 C39 1_555 1_555
H22 C40 1_555 1_555
C41 H23 1_555 1_555
C42 H24 1_555 1_555
H25 C42 1_555 1_555
H26 C42 1_555 1_555
C43 H27 1_555 1_555
H28 C43 1_555 1_555
H29 C43 1_555 1_555
C44 H30 1_555 1_555
C45 C44 1_555 1_555
H31 C45 1_555 1_555
C46 C45 1_555 1_555
H32 C46 1_555 1_555
C47 C44 1_555 1_555
C48 C47 1_555 1_555
C49 C48 1_555 1_555
C50 C47 1_555 1_555
C51 C52 1_555 1_555
C52 C53 1_555 1_555
C53 C55 1_555 1_555
C54 C52 1_555 1_555
C55 H33 1_555 1_555
C56 C54 1_555 1_555
H34 C56 1_555 1_555
C57 C55 1_555 1_555
H35 C57 1_555 1_555
C58 C56 1_555 1_555
H36 C58 1_555 1_555
C59 C46 1_555 1_555
H37 C59 1_555 1_555
N1 C18 1_555 1_555
N2 C13 1_555 1_555
N3 C24 1_555 1_555
N4 C23 1_555 1_555
N5 C27 1_555 1_555
N6 C34 1_555 1_555
N7 C32 1_555 1_555
N8 C31 1_555 1_555
N9 C41 1_555 1_555
O1 C1 1_555 1_555
O2 C1 1_555 1_555
O3 Cd1 1_555 1_555
O4 C12 1_555 1_555
O5 C12 1_555 1_555
O6 C49 1_555 1_555
O7 C49 1_555 1_555
O8 C51 1_555 1_555
O9 C51 1_555 1_555
O10 C41 1_555 1_555
Cd1 N1 1_555 1_555
Cd2 N5 1_555 1_555
H38 O3 1_555 1_555
H39 O3 1_555 1_555
C1A C2A 1_555 1_555
C2A C3A 1_555 1_555
C3A H1A 1_555 1_555
C4A C3A 1_555 1_555
H2A C4A 1_555 1_555
C5A C4A 1_555 1_555
C6A C5A 1_555 1_555
C7A C6A 1_555 1_555
H3A C7A 1_555 1_555
C8A C7A 1_555 1_555
H4A C8A 1_555 1_555
C9A C8A 1_555 1_555
H5A C9A 1_555 1_555
C10A C9A 1_555 1_555
H6A C10A 1_555 1_555
C11A C2A 1_555 1_555
C12A C5A 1_555 1_555
C13A H7A 1_555 1_555
C14A C13A 1_555 1_555
H8A C14A 1_555 1_555
C15A C14A 1_555 1_555
H9A C15A 1_555 1_555
C16A C15A 1_555 1_555
C17A C16A 1_555 1_555
C18A C17A 1_555 1_555
C19A C18A 1_555 1_555
C20A C19A 1_555 1_555
H10A C20A 1_555 1_555
C21A C20A 1_555 1_555
H11A C21A 1_555 1_555
C22A C21A 1_555 1_555
H12A C22A 1_555 1_555
C23A C16A 1_555 1_555
C24A C19A 1_555 1_555
C25A H13A 1_555 1_555
C26A C25A 1_555 1_555
H14A C26A 1_555 1_555
C27A H15A 1_555 1_555
C28A C27A 1_555 1_555
H16A C28A 1_555 1_555
C29A C28A 1_555 1_555
H17A C29A 1_555 1_555
C30A C29A 1_555 1_555
C31A C30A 1_555 1_555
C32A C31A 1_555 1_555
C33A C32A 1_555 1_555
C34A C33A 1_555 1_555
C35A C33A 1_555 1_555
H18A C35A 1_555 1_555
C36A C30A 1_555 1_555
C37A C35A 1_555 1_555
H19A C37A 1_555 1_555
C38A C37A 1_555 1_555
H20A C38A 1_555 1_555
C39A H21A 1_555 1_555
C40A C39A 1_555 1_555
H22A C40A 1_555 1_555
C44A H30A 1_555 1_555
C45A C44A 1_555 1_555
H31A C45A 1_555 1_555
C46A C45A 1_555 1_555
H32A C46A 1_555 1_555
C47A C44A 1_555 1_555
C48A C50 1_555 1_555
C49A C48A 1_555 1_555
C50A C48 1_555 1_555
C51A C52A 1_555 1_555
C52A C53A 1_555 1_555
C53A C54 1_555 1_555
C54A C53 1_555 1_555
C55A C53A 1_555 1_555
H33A C55A 1_555 1_555
C56A C54A 1_555 1_555
H34A C56A 1_555 1_555
C57A C58 1_555 1_555
H35A C57A 1_555 1_555
C58A C57 1_555 1_555
H36A C58A 1_555 1_555
C59A C46A 1_555 1_555
H37A C59A 1_555 1_555
N1A C18A 1_555 1_555
N2A C13A 1_555 1_555
N3A C24A 1_555 1_555
N4A C23A 1_555 1_555
N5A C27A 1_555 1_555
N6A C34A 1_555 1_555
N7A C32A 1_555 1_555
N8A C31A 1_555 1_555
O1A C1A 1_555 1_555
O2A C1A 1_555 1_555
O2A_2 Cd1A 1_555 1_555
O3A Cd1A 1_555 1_555
O4A C12A 1_555 1_555
O5A Cd2 1_555 1_555
O6A C49A 1_555 1_555
O7A C49A 1_555 1_555
O8A C51A 1_555 1_555
O8A_2 Cd2A 1_555 1_555
O9A C51A 1_555 1_555
O9A_2 Cd2A 1_555 1_555
Cd1A N1A 1_555 1_555
Cd1A_2 O2A 1_555 1_555
Cd2A O5 1_555 1_555
Cd2A_2 O8A 1_555 1_555
H38A O3A 1_555 1_555
H39A O3A 1_555 1_555
C6 C11 1_555 1_555
C10 C11 1_555 1_555
C17 N2 1_555 1_555
C22 N1 1_555 1_555
C23 C24 1_555 1_555
C25 N4 1_555 1_555
C26 N3 1_555 1_555
C34 C36 1_555 1_555
C36 N5 1_555 1_555
C38 N6 1_555 1_555
C39 N8 1_555 1_555
C40 N7 1_555 1_555
C42 N9 1_555 1_555
C43 N9 1_555 1_555
C50 C59 1_555 1_555
N2 Cd1 1_555 1_555
N6 Cd2 1_555 1_555
O2 Cd1 1_555 1_555
O5 Cd2 1_555 1_555
O6 Cd1 1_555 1_555
O7 Cd1 1_555 1_555
O8 Cd2 1_555 1_555
O9 Cd2 1_555 1_555
C6A C11A 1_555 1_555
C10A C11A 1_555 1_555
C12A O5A 1_555 1_555
C17A N2A 1_555 1_555
C22A N1A 1_555 1_555
C23A C24A 1_555 1_555
C25A N4A 1_555 1_555
C26A N3A 1_555 1_555
C34A C36A 1_555 1_555
C36A N5A 1_555 1_555
C38A N6A 1_555 1_555
C39A N8A 1_555 1_555
C40A N7A 1_555 1_555
C47A C48A 1_555 1_555
C47A C50A 1_555 1_555
C50A C59A 1_555 1_555
C52A C54A 1_555 1_555
C55A C57A 1_555 1_555
C56A C58A 1_555 1_555
N2A Cd1A 1_555 1_555
N5A Cd2A 1_555 1_555
N6A Cd2A 1_555 1_555
O5A Cd2A 1_555 1_555
O6A Cd1A 1_555 1_555
O7A Cd1A 1_555 1_555
O9A Cd2A_2 1_555 1_555

#END
