
#######################################################################
#
#                 Cambridge Crystallographic Data Centre
#                                CCDC 
#
#######################################################################
#
# If this CIF has been generated from an entry in the Cambridge 
# Structural Database, then it will include bibliographic, chemical, 
# crystal, experimental, refinement or atomic coordinate data resulting 
# from the CCDC's data processing and validation procedures.
#
#######################################################################

data_GUJTUB
_symmetry_cell_setting           orthorhombic
_symmetry_space_group_name_H-M   'P n a 21'
_symmetry_Int_Tables_number      33
_space_group_name_Hall           'P 2c -2n'
loop_
_symmetry_equiv_pos_site_id
_symmetry_equiv_pos_as_xyz
1 x,y,z
2 -x,-y,1/2+z
3 1/2+x,1/2-y,z
4 1/2-x,1/2+y,1/2+z
_cell_length_a                   10.1411(9)
_cell_length_b                   11.1274(10)
_cell_length_c                   8.8453(8)
_cell_angle_alpha                90
_cell_angle_beta                 90
_cell_angle_gamma                90
_cell_volume                     998.14
loop_
_atom_site_label
_atom_site_type_symbol
_atom_site_fract_x
_atom_site_fract_y
_atom_site_fract_z
Hg1 Hg 0.20780(3) 0.60249(3) 1.08654(12)
N1 N -0.0860(15) 0.5719(15) 0.969(2)
N2 N 0.4636(13) 0.5001(13) 0.9053(16)
N3 N 0.2084(10) 0.8079(9) 0.9913(11)
H1 H 0.1246 0.8316 0.9757
H2 H 0.2435 0.8565 1.0619
N4 N 0.3129(9) 0.6709(10) 0.3158(10)
H3 H 0.3738 0.6161 0.3428
H4 H 0.3559 0.7397 0.2952
C1 C 0.0167(12) 0.5789(11) 1.0112(16)
C2 C 0.3688(12) 0.5392(11) 0.9708(15)
C3 C 0.2821(13) 0.8215(11) 0.8514(13)
H5 H 0.3698 0.7886 0.8649
H6 H 0.2912 0.9064 0.8286
C4 C 0.2161(12) 0.7593(13) 0.7198(14)
H7 H 0.1840 0.6816 0.7530
H8 H 0.1405 0.8065 0.6881
C5 C 0.2999(9) 0.7430(9) 0.596(2)
H9 H 0.3692 0.6871 0.6239
H10 H 0.3411 0.8192 0.5713
C6 C 0.2240(12) 0.6928(13) 0.4494(14)
H11 H 0.1804 0.6180 0.4757
H12 H 0.1564 0.7500 0.4206
Hg1_2 Hg 0.20780(3) 0.60249(3) 0.08654(12)
N4_2 N 0.3129(9) 0.6709(10) 1.3158(10)
H3_2 H 0.3738 0.6161 1.3428
H4_2 H 0.3559 0.7397 1.2952
loop_
_geom_bond_atom_site_label_1
_geom_bond_atom_site_label_2
_geom_bond_site_symmetry_1
_geom_bond_site_symmetry_2
Hg1 N3 1_555 1_555
N1 C1 1_555 1_555
N2 C2 1_555 1_555
N3 H1 1_555 1_555
H2 N3 1_555 1_555
N4 H3 1_555 1_555
H4 N4 1_555 1_555
C1 Hg1 1_555 1_555
C2 Hg1 1_555 1_555
C3 N3 1_555 1_555
H5 C3 1_555 1_555
H6 C3 1_555 1_555
C4 C3 1_555 1_555
H7 C4 1_555 1_555
H8 C4 1_555 1_555
C5 C4 1_555 1_555
H9 C5 1_555 1_555
H10 C5 1_555 1_555
C6 N4 1_555 1_555
H11 C6 1_555 1_555
H12 C6 1_555 1_555
Hg1_2 N4 1_555 1_555
N4_2 Hg1 1_555 1_555
H3_2 N4_2 1_555 1_555
H4_2 N4_2 1_555 1_555
C5 C6 1_555 1_555

#END
