
#######################################################################
#
#                 Cambridge Crystallographic Data Centre
#                                CCDC 
#
#######################################################################
#
# If this CIF has been generated from an entry in the Cambridge 
# Structural Database, then it will include bibliographic, chemical, 
# crystal, experimental, refinement or atomic coordinate data resulting 
# from the CCDC's data processing and validation procedures.
#
#######################################################################

data_GUJTIP
_symmetry_cell_setting           monoclinic
_symmetry_space_group_name_H-M   'P 21/c'
_symmetry_Int_Tables_number      14
_space_group_name_Hall           '-P 2ybc'
loop_
_symmetry_equiv_pos_site_id
_symmetry_equiv_pos_as_xyz
1 x,y,z
2 -x,1/2+y,1/2-z
3 -x,-y,-z
4 x,1/2-y,1/2+z
_cell_length_a                   8.1543(8)
_cell_length_b                   10.7324(10)
_cell_length_c                   16.6595(16)
_cell_angle_alpha                90
_cell_angle_beta                 92.5200(10)
_cell_angle_gamma                90
_cell_volume                     1456.55
loop_
_atom_site_label
_atom_site_type_symbol
_atom_site_fract_x
_atom_site_fract_y
_atom_site_fract_z
C1 C 0.5486(3) 0.2454(2) 0.44360(14)
C2 C 0.6203(3) 0.1401(2) 0.49371(14)
C3 C 0.7229(3) 0.0556(2) 0.45649(14)
H1 H 0.7451 0.0647 0.4025
C4 C 0.7917(3) -0.0426(2) 0.50110(14)
C5 C 0.7609(3) -0.0528(2) 0.58186(14)
H2 H 0.8127 -0.1152 0.6123
C6 C 0.6542(3) 0.0282(2) 0.61848(14)
C7 C 0.5829(3) 0.1248(2) 0.57346(14)
H3 H 0.5101 0.1791 0.5969
C8 C 0.9271(3) -0.1569(2) 0.39232(15)
C9 C 1.0422(3) -0.2647(2) 0.37841(15)
C10 C 1.1347(3) -0.2643(2) 0.31112(15)
H4 H 1.1195 -0.2019 0.2728
C11 C 1.2497(3) -0.3564(2) 0.30070(15)
H5 H 1.3104 -0.3549 0.2547
C12 C 1.1848(3) -0.4495(2) 0.41817(17)
H6 H 1.2007 -0.5136 0.4553
C13 C 1.0666(3) -0.3612(2) 0.43220(17)
H7 H 1.0040 -0.3668 0.4774
C14 C 0.6171(3) 0.0074(2) 0.70513(14)
N1 N 0.8940(2) -0.13557(18) 0.46903(12)
H8 H 0.9411 -0.1848 0.5036
N2 N 1.2775(2) -0.44793(19) 0.35413(13)
O1 O 0.5942(2) 0.25721(15) 0.37266(10)
O2 O 0.44478(19) 0.31956(15) 0.47080(10)
O3 O 0.5098(2) 0.07732(15) 0.73398(10)
O4 O 0.6929(2) -0.07589(17) 0.74408(10)
O5 O 0.8731(2) -0.09363(16) 0.33558(10)
O6 O 0.6323(2) 0.52683(16) 0.39530(10)
H9 H 0.5972 0.5707 0.4334
H10 H 0.6654 0.5752 0.3590
O7 O 0.24953(19) 0.30572(15) 0.30423(10)
H11 H 0.2807 0.2318 0.2948
H12 H 0.2121 0.3374 0.2604
Ni1 Ni 0.44753(4) 0.41013(3) 0.348731(18)
N2_2 N 0.2775(2) 0.55207(19) 0.35413(13)
O3C O 0.5098(2) 0.42268(15) 0.23398(10)
Ni1_2 Ni 1.44753(4) -0.58987(3) 0.348731(18)
Ni1C Ni 0.44753(4) 0.08987(3) 0.848731(18)
O8 O 0.9592(2) 0.2191(2) 0.89416(12)
H13 H 0.8618 0.2245 0.8741
H14 H 1.0251 0.2127 0.8563
loop_
_geom_bond_atom_site_label_1
_geom_bond_atom_site_label_2
_geom_bond_site_symmetry_1
_geom_bond_site_symmetry_2
C1 C2 1_555 1_555
C2 C3 1_555 1_555
C3 H1 1_555 1_555
C4 C3 1_555 1_555
C5 C4 1_555 1_555
H2 C5 1_555 1_555
C6 C5 1_555 1_555
C7 C2 1_555 1_555
H3 C7 1_555 1_555
C8 C9 1_555 1_555
C9 C10 1_555 1_555
C10 H4 1_555 1_555
C11 C10 1_555 1_555
H5 C11 1_555 1_555
C12 H6 1_555 1_555
C13 C9 1_555 1_555
H7 C13 1_555 1_555
C14 C6 1_555 1_555
N1 C4 1_555 1_555
H8 N1 1_555 1_555
N2 C11 1_555 1_555
O1 C1 1_555 1_555
O2 C1 1_555 1_555
O3 C14 1_555 1_555
O4 C14 1_555 1_555
O5 C8 1_555 1_555
O6 H9 1_555 1_555
H10 O6 1_555 1_555
O7 H11 1_555 1_555
H12 O7 1_555 1_555
Ni1 O1 1_555 1_555
O8 H13 1_555 1_555
H14 O8 1_555 1_555
N2_2 Ni1 1_555 1_555
O3C Ni1 1_555 1_555
Ni1_2 N2 1_555 1_555
Ni1C O3 1_555 1_555
C6 C7 1_555 1_555
C8 N1 1_555 1_555
C12 C13 1_555 1_555
C12 N2 1_555 1_555
O2 Ni1 1_555 1_555
O6 Ni1 1_555 1_555
O7 Ni1 1_555 1_555

#END
