
#######################################################################
#
#                 Cambridge Crystallographic Data Centre
#                                CCDC 
#
#######################################################################
#
# If this CIF has been generated from an entry in the Cambridge 
# Structural Database, then it will include bibliographic, chemical, 
# crystal, experimental, refinement or atomic coordinate data resulting 
# from the CCDC's data processing and validation procedures.
#
#######################################################################

data_GUJVAI
_symmetry_cell_setting           tetragonal
_symmetry_space_group_name_H-M   'P 42/m n m'
_symmetry_Int_Tables_number      136
_space_group_name_Hall           '-P 4n 2n'
loop_
_symmetry_equiv_pos_site_id
_symmetry_equiv_pos_as_xyz
1 x,y,z
2 1/2-y,1/2+x,1/2+z
3 1/2+y,1/2-x,1/2+z
4 y,x,-z
5 x,y,-z
6 1/2+x,1/2-y,1/2+z
7 1/2-x,1/2+y,1/2+z
8 y,x,z
9 -x,-y,-z
10 1/2+y,1/2-x,1/2-z
11 1/2-y,1/2+x,1/2-z
12 -y,-x,z
13 -x,-y,z
14 1/2-x,1/2+y,1/2-z
15 1/2+x,1/2-y,1/2-z
16 -y,-x,-z
_cell_length_a                   13.811(3)
_cell_length_b                   13.811(3)
_cell_length_c                   7.026(2)
_cell_angle_alpha                90
_cell_angle_beta                 90
_cell_angle_gamma                90
_cell_volume                     1340.17
loop_
_atom_site_label
_atom_site_type_symbol
_atom_site_fract_x
_atom_site_fract_y
_atom_site_fract_z
Cl1 Cl 0.5000 0.0000 0.2500
O1 O 0.5896(2) 0.2398(2) 0.3413(4)
O2 O 0.3948(2) 0.2274(2) 0.3407(4)
O4 O 0.7904(3) 0.2096(3) 0.5000
H1 H 0.8380(3) 0.1620(3) 0.5000
O5 O 0.6921(3) 0.3079(3) 0.0000
H2 H 0.6445(3) 0.3555(3) 0.0000
C1 C 0.5490(4) 0.2387(4) 0.5000
C2 C 0.4360(4) 0.2313(4) 0.5000
Fe1 Fe 0.74154(4) 0.25846(4) 0.25020(8)
O1D O 0.5896(2) 0.2398(2) 0.6587(4)
O2D O 0.3948(2) 0.2274(2) 0.6593(4)
O1K O 0.7602(2) 0.4104(2) 0.3413(4)
O1O O 0.7602(2) 0.4104(2) 0.6587(4)
O1I O 0.7398(2) -0.0896(2) 0.1587(4)
O2I O 0.7274(2) 0.1052(2) 0.1593(4)
C1I C 0.7387(4) -0.0490(4) 0.0000
C2I C 0.7313(4) 0.0640(4) 0.0000
O1B O 0.7398(2) -0.0896(2) -0.1587(4)
O2B O 0.7274(2) 0.1052(2) -0.1593(4)
O2N O 0.8948(2) 0.2726(2) 0.1593(4)
Fe1D Fe 0.74154(4) 0.25846(4) 0.74980(8)
Fe1I Fe 0.75846(4) -0.24154(4) 0.24980(8)
Fe1B Fe 0.75846(4) -0.24154(4) -0.24980(8)
Fe1J Fe 0.24154(4) 0.24154(4) 0.24980(8)
Fe1A Fe 0.24154(4) 0.24154(4) 0.75020(8)
Fe1D_2 Fe 0.74154(4) 0.25846(4) -0.25020(8)
O2B_2 O 0.7274(2) 0.1052(2) 0.8407(4)
O2E O 0.8948(2) 0.2726(2) 0.8407(4)
O5D O 0.6921(3) 0.3079(3) 1.0000
H2D H 0.6445(3) 0.3555(3) 1.0000
O3 O 0.4861(5) 0.3777(5) 0.0000
C3 C 0.4613(4) 0.4613(4) 0.0000
O3C O 0.3777(5) 0.4861(5) 0.0000
C3H C 0.5387(4) 0.5387(4) 0.0000
O3H O 0.5139(5) 0.6223(5) 0.0000
O3K O 0.6223(5) 0.5139(5) 0.0000
Ba1 Ba 0.49643(2) 0.19156(3) 0.0000
loop_
_geom_bond_atom_site_label_1
_geom_bond_atom_site_label_2
_geom_bond_site_symmetry_1
_geom_bond_site_symmetry_2
O1 C1 1_555 1_555
O2 C2 1_555 1_555
O3 C3 1_555 1_555
O4 H1 1_555 1_555
O5 H2 1_555 1_555
C1 C2 1_555 1_555
C2 O2D 1_555 1_555
C3 O3C 1_555 1_555
Fe1 O1 1_555 1_555
O1D C1 1_555 1_555
O2D Fe1A 1_555 1_555
C3H C3 1_555 1_555
O3H C3H 1_555 1_555
O3K C3H 1_555 1_555
O1K Fe1 1_555 1_555
O1O Fe1D 1_555 1_555
O1I C1I 1_555 1_555
O2I Fe1 1_555 1_555
C1I C2I 1_555 1_555
C2I O2I 1_555 1_555
O1B C1I 1_555 1_555
O2B C2I 1_555 1_555
O2N Fe1 1_555 1_555
Fe1D O4 1_555 1_555
Fe1I O1I 1_555 1_555
Fe1B O1B 1_555 1_555
Fe1J O2 1_555 1_555
Fe1D_2 O5 1_555 1_555
O2B_2 Fe1D 1_555 1_555
O2E Fe1D 1_555 1_555
O5D Fe1D 1_555 1_555
H2D O5D 1_555 1_555
O4 Fe1 1_555 1_555
O5 Fe1 1_555 1_555
O1D Fe1D 1_555 1_555
O2B Fe1D_2 1_555 1_555

#END
