
#######################################################################
#
#                 Cambridge Crystallographic Data Centre
#                                CCDC 
#
#######################################################################
#
# If this CIF has been generated from an entry in the Cambridge 
# Structural Database, then it will include bibliographic, chemical, 
# crystal, experimental, refinement or atomic coordinate data resulting 
# from the CCDC's data processing and validation procedures.
#
#######################################################################

data_GUJVOX
_symmetry_cell_setting           triclinic
_symmetry_space_group_name_H-M   'P -1'
_symmetry_Int_Tables_number      2
_space_group_name_Hall           '-P 1'
loop_
_symmetry_equiv_pos_site_id
_symmetry_equiv_pos_as_xyz
1 x,y,z
2 -x,-y,-z
_cell_length_a                   9.241(2)
_cell_length_b                   11.245(2)
_cell_length_c                   11.845(3)
_cell_angle_alpha                78.970(4)
_cell_angle_beta                 74.580(4)
_cell_angle_gamma                87.609(4)
_cell_volume                     1164.59
loop_
_atom_site_label
_atom_site_type_symbol
_atom_site_fract_x
_atom_site_fract_y
_atom_site_fract_z
C1 C -0.6503(6) 0.9222(5) -0.5509(5)
H1 H -0.6449 0.9465 -0.6315
C2 C -0.7332(6) 0.8964(4) -0.3653(5)
H2 H -0.7930 0.8962 -0.2885
C3 C -0.5129(7) 0.7805(5) -0.3110(6)
H3 H -0.5660 0.7856 -0.2297
H4 H -0.4156 0.8194 -0.3286
C4 C -0.4902(6) 0.6480(4) -0.3213(4)
C5 C -0.3610(6) 0.5922(5) -0.2997(5)
H5 H -0.2898 0.6366 -0.2822
C6 C -0.3376(6) 0.4692(5) -0.3041(5)
C7 C -0.1935(7) 0.4115(5) -0.2822(5)
H6 H -0.1227 0.4747 -0.2868
H7 H -0.2151 0.3629 -0.2025
C8 C -0.0249(7) 0.2867(5) -0.5326(6)
H8 H 0.0138 0.2900 -0.6141
C9 C -0.0846(7) 0.2195(5) -0.3494(6)
H9 H -0.1003 0.1697 -0.2748
C10 C -0.4435(6) 0.4030(5) -0.3287(5)
H10 H -0.4281 0.3211 -0.3309
C11 C -0.5944(6) 0.5815(5) -0.3486(4)
H11 H -0.6792 0.6195 -0.3663
C12 C -0.5741(6) 0.4583(4) -0.3502(4)
C13 C -0.6914(6) 0.3830(5) -0.3770(5)
H12 H -0.7527 0.4363 -0.4196
H13 H -0.6411 0.3271 -0.4275
C14 C -0.9406(7) 0.2855(6) -0.1006(5)
H14 H -1.0092 0.2986 -0.0310
C15 C -0.8026(6) 0.1974(5) -0.2268(5)
H15 H -0.7519 0.1391 -0.2682
Mn1 Mn -1.0000 0.0000 0.0000
Mn2 Mn -1.0000 0.0000 0.5000
N1 N -0.5974(5) 0.8456(4) -0.3917(4)
N2 N -0.5411(5) 0.8607(4) -0.5125(4)
N3 N -0.7699(5) 0.9468(4) -0.4643(4)
N4 N -0.1252(5) 0.3348(4) -0.3689(4)
N5 N -0.0897(6) 0.3804(4) -0.4888(5)
N6 N -0.0183(5) 0.1860(4) -0.4525(4)
N7 N -0.7870(5) 0.3154(4) -0.2666(4)
N8 N -0.8772(6) 0.3748(4) -0.1857(4)
N9 N -0.8996(6) 0.1729(4) -0.1206(4)
O1 O -0.8773(6) 0.0798(4) 0.3224(4)
O2 O -0.8544(7) 0.2459(5) 0.1640(5)
O3 O -0.9650(5) 0.0607(4) 0.1548(4)
O4 O -0.7023(7) 0.0758(7) 0.1358(6)
O5 O -0.7723(6) -0.0752(5) -0.0463(5)
H16 H -0.7135 -0.0290 -0.0289
H17 H -0.8085 -0.1279 0.0152
S1 S -0.85018(18) 0.11407(15) 0.19423(14)
C1A C -1.3497(6) -0.9222(5) 0.5509(5)
H1A H -1.3551 -0.9465 0.6315
C2A C -1.2668(6) -0.8964(4) 0.3653(5)
H2A H -1.2070 -0.8962 0.2885
C3A C -1.4871(7) -0.7805(5) 0.3110(6)
H3A H -1.4340 -0.7856 0.2297
H4A H -1.5844 -0.8194 0.3286
C4A C -1.5098(6) -0.6480(4) 0.3213(4)
C5A C -1.6390(6) -0.5922(5) 0.2997(5)
H5A H -1.7102 -0.6366 0.2822
C6A C -1.6624(6) -0.4692(5) 0.3041(5)
C7A C -1.8065(7) -0.4115(5) 0.2822(5)
H6A H -1.8773 -0.4747 0.2868
H7A H -1.7849 -0.3629 0.2025
C8A C -1.9751(7) -0.2867(5) 0.5326(6)
H8A H -2.0138 -0.2900 0.6141
C9A C -1.9154(7) -0.2195(5) 0.3494(6)
H9A H -1.8997 -0.1697 0.2748
C10A C -1.5565(6) -0.4030(5) 0.3287(5)
H10A H -1.5719 -0.3211 0.3309
C11A C -1.4056(6) -0.5815(5) 0.3486(4)
H11A H -1.3208 -0.6195 0.3663
C12A C -1.4259(6) -0.4583(4) 0.3502(4)
C13A C -1.3086(6) -0.3830(5) 0.3770(5)
H12A H -1.2473 -0.4363 0.4196
H13A H -1.3589 -0.3271 0.4275
C14A C -1.0594(7) -0.2855(6) 0.1006(5)
H14A H -0.9908 -0.2986 0.0310
C15A C -1.1974(6) -0.1974(5) 0.2268(5)
H15A H -1.2481 -0.1391 0.2682
Mn2_2 Mn 0.0000 0.0000 -0.5000
Mn2_3 Mn -1.0000 1.0000 -0.5000
Mn2_4 Mn -1.0000 0.0000 -0.5000
Mn2_5 Mn -2.0000 0.0000 0.5000
Mn2_6 Mn -1.0000 -1.0000 0.5000
N1A N -1.4026(5) -0.8456(4) 0.3917(4)
N2A N -1.4589(5) -0.8607(4) 0.5125(4)
N3_2 N -0.7699(5) -0.0532(4) 0.5357(4)
N3A N -1.2301(5) 0.0532(4) 0.4643(4)
N3A_2 N -1.2301(5) -0.9468(4) 0.4643(4)
N4A N -1.8748(5) -0.3348(4) 0.3689(4)
N5A N -1.9103(6) -0.3804(4) 0.4888(5)
N6_2 N -1.0183(5) 0.1860(4) 0.5475(4)
N6A N -0.9817(5) -0.1860(4) 0.4525(4)
N6A_2 N -1.9817(5) -0.1860(4) 0.4525(4)
N7A N -1.2130(5) -0.3154(4) 0.2666(4)
N8A N -1.1228(6) -0.3748(4) 0.1857(4)
N9A N -1.1004(6) -0.1729(4) 0.1206(4)
O1A O -1.1227(6) -0.0798(4) 0.6776(4)
O1A_2 O -1.1227(6) -0.0798(4) -0.3224(4)
O2A O -1.1456(7) -0.2459(5) -0.1640(5)
O3A O -1.0350(5) -0.0607(4) -0.1548(4)
O4A O -1.2977(7) -0.0758(7) -0.1358(6)
O5A O -1.2277(6) 0.0752(5) 0.0463(5)
H16A H -1.2865 0.0290 0.0289
H17A H -1.1915 0.1279 -0.0152
S1A S -1.14982(18) -0.11407(15) -0.19423(14)
O6 O 1.5206(9) -1.0808(8) -0.8555(7)
H18 H 1.4440 -1.0384 -0.8606
H19 H 1.5839 -1.0359 -0.8416
O7 O 1.8903(9) -1.6289(7) -0.8444(7)
H20 H 1.9110 -1.5635 -0.8247
H21 H 1.9402 -1.6851 -0.8147
O8 O 1.699(3) -1.483(3) -1.002(3)
H22 H 1.7675 -1.5070 -0.9670
H23 H 1.7373 -1.4782 -1.0757
O9? O 1.596(2) -1.356(2) -0.9908(19)
H24? H 1.6245 -1.3805 -0.9281
H25? H 1.5438 -1.4124 -1.0004
O10? O 1.553(2) -1.286(2) -0.970(2)
H26? H 1.5641 -1.2268 -0.9372
H27? H 1.5794 -1.2615 -1.0448
H28? H 1.6917 -1.7656 -0.9658
H29? H 1.7053 -1.6515 -0.9424
O11? O 1.6765(13) -1.6909(11) -0.9876(10)
loop_
_geom_bond_atom_site_label_1
_geom_bond_atom_site_label_2
_geom_bond_site_symmetry_1
_geom_bond_site_symmetry_2
C1 H1 1_555 1_555
C2 H2 1_555 1_555
C3 H3 1_555 1_555
H4 C3 1_555 1_555
C4 C3 1_555 1_555
C5 C4 1_555 1_555
H5 C5 1_555 1_555
C6 C5 1_555 1_555
C7 C6 1_555 1_555
H6 C7 1_555 1_555
H7 C7 1_555 1_555
C8 H8 1_555 1_555
C9 H9 1_555 1_555
C10 C6 1_555 1_555
H10 C10 1_555 1_555
C11 C4 1_555 1_555
H11 C11 1_555 1_555
C12 C10 1_555 1_555
C13 C12 1_555 1_555
H12 C13 1_555 1_555
H13 C13 1_555 1_555
C14 H14 1_555 1_555
C15 H15 1_555 1_555
Mn1 N9 1_555 1_555
Mn2 O1 1_555 1_555
N1 C2 1_555 1_555
N2 C1 1_555 1_555
N3 C1 1_555 1_555
N4 C7 1_555 1_555
N5 C8 1_555 1_555
N6 C8 1_555 1_555
N7 C13 1_555 1_555
N8 C14 1_555 1_555
N9 C14 1_555 1_555
O1 S1 1_555 1_555
O2 S1 1_555 1_555
O3 Mn1 1_555 1_555
O4 S1 1_555 1_555
O5 Mn1 1_555 1_555
H16 O5 1_555 1_555
H17 O5 1_555 1_555
O6 H18 1_555 1_555
H19 O6 1_555 1_555
O7 H20 1_555 1_555
H21 O7 1_555 1_555
S1 O3 1_555 1_555
O8 H22 1_555 1_555
H23 O8 1_555 1_555
C1A H1A 1_555 1_555
C2A H2A 1_555 1_555
C3A H3A 1_555 1_555
H4A C3A 1_555 1_555
C4A C3A 1_555 1_555
C5A C4A 1_555 1_555
H5A C5A 1_555 1_555
C6A C5A 1_555 1_555
C7A C6A 1_555 1_555
H6A C7A 1_555 1_555
H7A C7A 1_555 1_555
C8A H8A 1_555 1_555
C9A H9A 1_555 1_555
C10A C6A 1_555 1_555
H10A C10A 1_555 1_555
C11A C4A 1_555 1_555
H11A C11A 1_555 1_555
C12A C10A 1_555 1_555
C13A C12A 1_555 1_555
H12A C13A 1_555 1_555
H13A C13A 1_555 1_555
C14A H14A 1_555 1_555
C15A H15A 1_555 1_555
Mn2_2 N6 1_555 1_555
Mn2_3 N3 1_555 1_555
Mn2_4 O1A_2 1_555 1_555
Mn2_5 N6A_2 1_555 1_555
Mn2_6 N3A_2 1_555 1_555
N1A C2A 1_555 1_555
N2A C1A 1_555 1_555
N3_2 Mn2 1_555 1_555
N3A Mn2 1_555 1_555
N3A_2 C1A 1_555 1_555
N4A C7A 1_555 1_555
N5A C8A 1_555 1_555
N6_2 Mn2 1_555 1_555
N6A Mn2 1_555 1_555
N6A_2 C8A 1_555 1_555
N7A C13A 1_555 1_555
N8A C14A 1_555 1_555
N9A Mn1 1_555 1_555
O1A Mn2 1_555 1_555
O1A_2 S1A 1_555 1_555
O2A S1A 1_555 1_555
O3A Mn1 1_555 1_555
O4A S1A 1_555 1_555
O5A Mn1 1_555 1_555
H16A O5A 1_555 1_555
H17A O5A 1_555 1_555
S1A O3A 1_555 1_555
C2 N3 1_555 1_555
C3 N1 1_555 1_555
C9 N4 1_555 1_555
C9 N6 1_555 1_555
C11 C12 1_555 1_555
C15 N7 1_555 1_555
C15 N9 1_555 1_555
N1 N2 1_555 1_555
N4 N5 1_555 1_555
N7 N8 1_555 1_555
C2A N3A_2 1_555 1_555
C3A N1A 1_555 1_555
C9A N4A 1_555 1_555
C9A N6A_2 1_555 1_555
C11A C12A 1_555 1_555
C14A N9A 1_555 1_555
C15A N7A 1_555 1_555
C15A N9A 1_555 1_555
N1A N2A 1_555 1_555
N4A N5A 1_555 1_555
N7A N8A 1_555 1_555

#END
