
#######################################################################
#
#                 Cambridge Crystallographic Data Centre
#                                CCDC 
#
#######################################################################
#
# If this CIF has been generated from an entry in the Cambridge 
# Structural Database, then it will include bibliographic, chemical, 
# crystal, experimental, refinement or atomic coordinate data resulting 
# from the CCDC's data processing and validation procedures.
#
#######################################################################

data_GUJWAK
_symmetry_cell_setting           triclinic
_symmetry_space_group_name_H-M   'P -1'
_symmetry_Int_Tables_number      2
_space_group_name_Hall           '-P 1'
loop_
_symmetry_equiv_pos_site_id
_symmetry_equiv_pos_as_xyz
1 x,y,z
2 -x,-y,-z
_cell_length_a                   8.1267(8)
_cell_length_b                   10.0397(10)
_cell_length_c                   12.8373(16)
_cell_angle_alpha                96.522(7)
_cell_angle_beta                 100.179(7)
_cell_angle_gamma                92.162(3)
_cell_volume                     1022.44
loop_
_atom_site_label
_atom_site_type_symbol
_atom_site_fract_x
_atom_site_fract_y
_atom_site_fract_z
Ni1 Ni -0.00506(3) 0.30345(2) 0.896097(16)
O1 O 0.0148(3) 0.82450(15) 0.44814(12)
H1 H 0.009(4) 0.806(3) 0.378(3)
O2 O 0.1031(2) 0.62033(14) 0.46610(11)
O3 O 0.05520(18) 0.46721(12) 0.82802(10)
O4 O 0.09412(17) 0.62569(12) 0.96791(9)
O5 O 0.04928(16) 1.16638(11) 0.76500(10)
O6 O -0.04169(16) 1.08693(12) 0.89879(9)
N1 N 0.22653(19) 0.29030(15) 0.99203(12)
N2 N 0.4150(2) 0.22099(16) 1.11650(13)
N3 N 0.5130(2) 0.32139(18) 1.71371(13)
N4 N 0.74917(19) 0.29891(15) 1.82135(12)
C1 C 0.4635(3) 0.3519(2) 1.10784(17)
H2 H 0.563(3) 0.397(2) 1.1507(18)
C2 C 0.3467(2) 0.39303(19) 1.03137(16)
H3 H 0.340(3) 0.480(2) 1.0063(18)
C3 C 0.2719(2) 0.18909(19) 1.04593(14)
H4 H 0.213(3) 0.105(2) 1.0387(17)
C4 C 0.4859(3) 0.1409(2) 1.19997(17)
H5 H 0.608(3) 0.141(2) 1.1992(19)
H6 H 0.433(3) 0.054(3) 1.181(2)
C5 C 0.4558(2) 0.1961(2) 1.30941(16)
C6 C 0.3583(3) 0.3033(2) 1.32602(17)
H7 H 0.308(3) 0.344(2) 1.2737(19)
C7 C 0.3408(3) 0.3546(2) 1.42837(17)
H8 H 0.274(3) 0.435(2) 1.4404(19)
C8 C 0.4183(2) 0.2981(2) 1.51619(16)
C9 C 0.5124(3) 0.1878(2) 1.49982(17)
H9 H 0.564(3) 0.147(2) 1.559(2)
C10 C 0.5315(3) 0.1375(2) 1.39769(17)
H10 H 0.602(3) 0.061(2) 1.3852(18)
C11 C 0.3941(3) 0.3610(3) 1.62491(18)
H11 H 0.399(3) 0.463(3) 1.629(2)
H12 H 0.287(3) 0.332(3) 1.636(2)
C12 C 0.6811(2) 0.3453(2) 1.73405(15)
H13 H 0.737(3) 0.385(2) 1.6902(17)
C13 C 0.6187(3) 0.2424(2) 1.86003(17)
H14 H 0.642(3) 0.200(2) 1.924(2)
C14 C 0.4727(3) 0.2551(2) 1.79468(17)
H15 H 0.361(3) 0.230(3) 1.795(2)
C15 C 0.0373(2) 0.92718(16) 0.76815(13)
C16 C 0.0533(2) 0.82719(16) 0.83558(13)
H16 H 0.049(2) 0.8497(19) 0.9073(16)
C17 C 0.0702(2) 0.69421(16) 0.79577(13)
C18 C 0.0746(2) 0.66192(17) 0.68775(14)
H17 H 0.086(3) 0.571(2) 0.6586(16)
C19 C 0.0626(2) 0.76231(17) 0.62082(14)
C20 C 0.0428(2) 0.89464(17) 0.66075(14)
H18 H 0.033(2) 0.960(2) 0.6172(17)
C21 C 0.0125(2) 1.06793(16) 0.81292(13)
C22 C 0.0727(2) 0.58737(16) 0.87053(13)
C23 C 0.0642(2) 0.72611(18) 0.50447(14)
Ni1A Ni 0.00506(3) 0.69655(2) 1.103903(16)
Ni1_2 Ni -0.00506(3) 1.30345(2) 0.896097(16)
Ni1_3 Ni 0.99494(3) 0.30345(2) 1.896097(16)
O4A O -0.09412(17) 0.37431(12) 1.03209(9)
O5_2 O 0.04928(16) 0.16638(11) 0.76500(10)
O6_2 O -0.04169(16) 0.08693(12) 0.89879(9)
N4_2 N -0.25083(19) 0.29891(15) 0.82135(12)
loop_
_geom_bond_atom_site_label_1
_geom_bond_atom_site_label_2
_geom_bond_site_symmetry_1
_geom_bond_site_symmetry_2
Ni1 O3 1_555 1_555
O1 H1 1_555 1_555
O2 C23 1_555 1_555
O3 C22 1_555 1_555
O4 C22 1_555 1_555
O5 C21 1_555 1_555
O6 C21 1_555 1_555
N1 Ni1 1_555 1_555
N2 C1 1_555 1_555
N3 C11 1_555 1_555
N4 C12 1_555 1_555
C1 H2 1_555 1_555
C2 N1 1_555 1_555
H3 C2 1_555 1_555
C3 N1 1_555 1_555
H4 C3 1_555 1_555
C4 N2 1_555 1_555
H5 C4 1_555 1_555
H6 C4 1_555 1_555
C5 C4 1_555 1_555
C6 C5 1_555 1_555
H7 C6 1_555 1_555
C7 C6 1_555 1_555
H8 C7 1_555 1_555
C8 C7 1_555 1_555
C9 C8 1_555 1_555
H9 C9 1_555 1_555
C10 C5 1_555 1_555
H10 C10 1_555 1_555
C11 C8 1_555 1_555
H11 C11 1_555 1_555
H12 C11 1_555 1_555
C12 N3 1_555 1_555
H13 C12 1_555 1_555
C13 N4 1_555 1_555
H14 C13 1_555 1_555
C14 N3 1_555 1_555
H15 C14 1_555 1_555
C15 C16 1_555 1_555
C16 H16 1_555 1_555
C17 C16 1_555 1_555
C18 C17 1_555 1_555
H17 C18 1_555 1_555
C19 C18 1_555 1_555
C20 C15 1_555 1_555
H18 C20 1_555 1_555
C21 C15 1_555 1_555
C22 C17 1_555 1_555
C23 O1 1_555 1_555
Ni1A O4 1_555 1_555
Ni1_2 O5 1_555 1_555
Ni1_3 N4 1_555 1_555
O4A Ni1 1_555 1_555
O5_2 Ni1 1_555 1_555
O6_2 Ni1 1_555 1_555
N4_2 Ni1 1_555 1_555
O6 Ni1_2 1_555 1_555
N2 C3 1_555 1_555
C1 C2 1_555 1_555
C9 C10 1_555 1_555
C13 C14 1_555 1_555
C19 C20 1_555 1_555
C19 C23 1_555 1_555

#END
