
#######################################################################
#
#                 Cambridge Crystallographic Data Centre
#                                CCDC 
#
#######################################################################
#
# If this CIF has been generated from an entry in the Cambridge 
# Structural Database, then it will include bibliographic, chemical, 
# crystal, experimental, refinement or atomic coordinate data resulting 
# from the CCDC's data processing and validation procedures.
#
#######################################################################

data_GUJWIR
_symmetry_cell_setting           triclinic
_symmetry_space_group_name_H-M   'P -1'
_symmetry_Int_Tables_number      2
_space_group_name_Hall           '-P 1'
loop_
_symmetry_equiv_pos_site_id
_symmetry_equiv_pos_as_xyz
1 x,y,z
2 -x,-y,-z
_cell_length_a                   12.5699(19)
_cell_length_b                   14.714(3)
_cell_length_c                   15.015(3)
_cell_angle_alpha                108.333(17)
_cell_angle_beta                 108.416(15)
_cell_angle_gamma                91.659(14)
_cell_volume                     2475.61
loop_
_atom_site_label
_atom_site_type_symbol
_atom_site_fract_x
_atom_site_fract_y
_atom_site_fract_z
Ni1 Ni 0.0000 0.0000 0.0000
N1 N 0.0638(4) 0.1462(3) 0.0588(3)
H1 H 0.1373 0.1521 0.0621
N2 N 0.0250(4) 0.0091(3) 0.1455(3)
H2 H -0.0431 0.0137 0.1546
N3 N 0.0017(4) 0.1698(4) -0.1048(3)
N4 N 0.0736(6) 0.1410(7) -0.4204(5)
C1 C 0.0015(6) 0.2057(4) -0.0014(5)
H3 H -0.0761 0.2035 -0.0024
H4 H 0.0372 0.2726 0.0304
C2 C 0.0620(6) 0.1788(5) 0.1591(5)
H5 H -0.0138 0.1909 0.1581
H6 H 0.1131 0.2389 0.1978
C3 C 0.0988(5) 0.1007(4) 0.2088(4)
H7 H 0.1770 0.0929 0.2158
H8 H 0.0924 0.1207 0.2747
C4 C -0.0676(4) 0.0755(5) -0.1696(4)
H9 H -0.0738 0.0664 -0.2380
H10 H -0.1434 0.0777 -0.1662
C5 C 0.1083(5) 0.1807(5) -0.1138(5)
H11 H 0.1485 0.2445 -0.0702
H12 H 0.1520 0.1331 -0.0930
C6 C 0.0974(5) 0.1682(5) -0.2211(4)
C7 C 0.1426(7) 0.0957(6) -0.2765(5)
H13 H 0.1843 0.0546 -0.2478
C8 C 0.1245(9) 0.0855(8) -0.3754(7)
H14 H 0.1516 0.0340 -0.4121
C9 C 0.0305(7) 0.2161(7) -0.3650(6)
H15 H -0.0061 0.2585 -0.3950
C10 C 0.0401(7) 0.2293(7) -0.2699(6)
H16 H 0.0086 0.2792 -0.2361
Ni2 Ni 0.5000 -0.5000 0.0000
N5 N 0.4515(4) 0.1336(3) 0.5029(3)
H17 H 0.4546 0.1445 0.4473
N6 N 0.3323(4) -0.0508(3) 0.4492(3)
H18 H 0.3156 -0.0565 0.5021
N7 N 0.6388(5) 0.2222(4) 0.6012(4)
N8 N 0.9455(12) 0.4654(10) 0.6520(12)
C11 C 0.5218(6) 0.2160(4) 0.5930(5)
H19 H 0.4943 0.2760 0.5887
H20 H 0.5145 0.2074 0.6524
C12 C 0.3302(5) 0.1217(4) 0.4963(5)
H21 H 0.2928 0.1723 0.4762
H22 H 0.3262 0.1267 0.5612
C13 C 0.2719(5) 0.0246(5) 0.4215(4)
H23 H 0.1944 0.0148 0.4194
H24 H 0.2703 0.0216 0.3556
C14 C 0.7006(6) 0.1500(5) 0.6310(4)
H25 H 0.7809 0.1703 0.6489
H26 H 0.6879 0.1455 0.6901
C15 C 0.6750(7) 0.2616(4) 0.5333(6)
H27 H 0.6121 0.2893 0.4996
H28 H 0.6875 0.2076 0.4825
C16 C 0.7725(8) 0.3322(8) 0.5752(9)
C17 C 0.8247(14) 0.3488(12) 0.5171(13)
H29 H 0.7999 0.3125 0.4493
C18 C 0.9116(19) 0.4169(16) 0.5560(14)
H30 H 0.9489 0.4307 0.5163
C19 C 0.9034(18) 0.4450(16) 0.7137(16)
H31 H 0.9345 0.4763 0.7824
C20 C 0.8139(14) 0.3773(11) 0.6728(10)
H32 H 0.7796 0.3611 0.7134
Ni3 Ni 0.5000 0.0000 0.5000
N9 N 0.4656(6) -0.4826(4) 0.1263(4)
H33 H 0.4739 -0.5393 0.1385
N10 N 0.6683(5) -0.4772(4) 0.0729(5)
H34 H 0.6893 -0.5333 0.0817
N11 N 0.6586(8) -0.4153(5) 0.2398(5)
N12 N 0.7222(10) -0.3917(8) 0.5920(8)
C21 C 0.3407(7) -0.4750(7) 0.0970(7)
H35 H 0.3110 -0.4891 0.1443
H36 H 0.3294 -0.4095 0.0992
C22 C 0.5400(9) -0.4046(6) 0.2189(5)
H37 H 0.5287 -0.3422 0.2112
H38 H 0.5185 -0.4062 0.2750
C23 C 0.7076(7) -0.3997(5) 0.1723(7)
H39 H 0.7893 -0.3944 0.2012
H40 H 0.6901 -0.3386 0.1636
C24 C 0.2794(8) -0.5429(6) -0.0038(8)
H41 H 0.2845 -0.6089 -0.0051
H42 H 0.2001 -0.5345 -0.0239
C25 C 0.6962(12) -0.4910(6) 0.2795(5)
H43 H 0.7671 -0.5066 0.2699
H44 H 0.6405 -0.5487 0.2438
C26 C 0.7124(10) -0.4589(6) 0.3900(6)
C27 C 0.6453(11) -0.5010(8) 0.4283(9)
H45 H 0.5951 -0.5560 0.3836
C28 C 0.6441(9) -0.4701(8) 0.5278(8)
H46 H 0.5944 -0.5007 0.5474
C29 C 0.8000(15) -0.3493(10) 0.5562(7)
H47 H 0.8595 -0.3013 0.6012
C30 C 0.7849(8) -0.3814(5) 0.4536(5)
H48 H 0.8267 -0.3473 0.4301
O1 O 0.1661(3) -0.0319(3) 0.0249(3)
O2 O 0.2091(4) -0.0422(4) -0.1092(3)
O3 O 0.4858(3) -0.0291(3) 0.3461(2)
O4 O 0.6452(3) 0.0415(3) 0.3533(3)
O5 O 0.4956(4) -0.3449(3) 0.0320(3)
O6 O 0.5173(4) -0.3112(3) -0.0946(3)
C31 C 0.3530(4) -0.0569(3) 0.0300(3)
H49 H 0.4055 -0.0178 0.0155
C32 C 0.3859(4) -0.0252(4) 0.1448(3)
H50 H 0.3796 0.0428 0.1716
H51 H 0.3345 -0.0620 0.1615
C33 C 0.5066(4) -0.0420(3) 0.1910(3)
H52 H 0.5555 -0.0036 0.1725
C34 C 0.5230(4) -0.1463(4) 0.1500(3)
H53 H 0.4766 -0.1868 0.1675
H54 H 0.6016 -0.1533 0.1794
C35 C 0.4899(4) -0.1793(3) 0.0356(3)
H55 H 0.5402 -0.1393 0.0199
C36 C 0.3694(4) -0.1636(3) -0.0112(4)
H56 H 0.3181 -0.2039 0.0019
H57 H 0.3507 -0.1830 -0.0830
C37 C 0.2332(4) -0.0409(4) -0.0221(3)
C38 C 0.5471(4) -0.0065(4) 0.3056(4)
C39 C 0.5015(5) -0.2865(4) -0.0127(4)
N2A N -0.0250(4) -0.0091(3) -0.1455(3)
H2A H 0.0431 -0.0137 -0.1546
C3A C -0.0988(5) -0.1007(4) -0.2088(4)
C2A C -0.0620(6) -0.1788(5) -0.1591(5)
N1A N -0.0638(4) -0.1462(3) -0.0588(3)
H1A H -0.1373 -0.1521 -0.0621
C1A C -0.0015(6) -0.2057(4) 0.0014(5)
N3A N -0.0017(4) -0.1698(4) 0.1048(3)
C4A C 0.0676(4) -0.0755(5) 0.1696(4)
H9A H 0.0738 -0.0664 0.2380
H10A H 0.1434 -0.0777 0.1662
C5A C -0.1083(5) -0.1807(5) 0.1138(5)
H11A H -0.1485 -0.2445 0.0702
H12A H -0.1520 -0.1331 0.0930
C6A C -0.0974(5) -0.1682(5) 0.2211(4)
C7A C -0.1426(7) -0.0957(6) 0.2765(5)
H13A H -0.1843 -0.0546 0.2478
C8A C -0.1245(9) -0.0855(8) 0.3754(7)
N4A N -0.0736(6) -0.1410(7) 0.4204(5)
C9A C -0.0305(7) -0.2161(7) 0.3650(6)
H15A H 0.0061 -0.2585 0.3950
C10A C -0.0401(7) -0.2293(7) 0.2699(6)
H16A H -0.0086 -0.2792 0.2361
H14A H -0.1516 -0.0340 0.4121
H3A H 0.0761 -0.2035 0.0024
H4A H -0.0372 -0.2726 -0.0304
H5A H 0.0138 -0.1909 -0.1581
H6A H -0.1131 -0.2389 -0.1978
H7A H -0.1770 -0.0929 -0.2158
H8A H -0.0924 -0.1207 -0.2747
N6A N 0.6677(4) 0.0508(3) 0.5508(3)
H18A H 0.6844 0.0565 0.4979
C13A C 0.7281(5) -0.0246(5) 0.5785(4)
C12A C 0.6698(5) -0.1217(4) 0.5037(5)
N5A N 0.5485(4) -0.1336(3) 0.4971(3)
H17A H 0.5454 -0.1445 0.5527
C11A C 0.4782(6) -0.2160(4) 0.4070(5)
N7A N 0.3612(5) -0.2222(4) 0.3988(4)
C14A C 0.2994(6) -0.1500(5) 0.3690(4)
H25A H 0.2191 -0.1703 0.3511
H26A H 0.3121 -0.1455 0.3099
C15A C 0.3250(7) -0.2616(4) 0.4667(6)
H27A H 0.3879 -0.2893 0.5004
H28A H 0.3125 -0.2076 0.5175
C16A C 0.2275(8) -0.3322(8) 0.4248(9)
C17A C 0.1753(14) -0.3488(12) 0.4829(13)
H29A H 0.2001 -0.3125 0.5507
C18A C 0.0884(19) -0.4169(16) 0.4440(14)
N8A N 0.0545(12) -0.4654(10) 0.3480(12)
C19A C 0.0966(18) -0.4450(16) 0.2863(16)
H31A H 0.0655 -0.4763 0.2176
C20A C 0.1861(14) -0.3773(11) 0.3272(10)
H32A H 0.2204 -0.3611 0.2866
H30A H 0.0511 -0.4307 0.4837
H19A H 0.5057 -0.2760 0.4113
H20A H 0.4855 -0.2074 0.3476
H21A H 0.7072 -0.1723 0.5238
H22A H 0.6738 -0.1267 0.4388
H23A H 0.8056 -0.0148 0.5806
H24A H 0.7297 -0.0216 0.6444
N10A N 0.3317(5) -0.5228(4) -0.0729(5)
H34A H 0.3107 -0.4667 -0.0817
C23A C 0.2924(7) -0.6003(5) -0.1723(7)
N11A N 0.3414(8) -0.5847(5) -0.2398(5)
C22A C 0.4600(9) -0.5954(6) -0.2189(5)
N9A N 0.5344(6) -0.5174(4) -0.1263(4)
H33A H 0.5261 -0.4607 -0.1385
C21A C 0.6593(7) -0.5250(7) -0.0970(7)
H35A H 0.6890 -0.5109 -0.1443
H36A H 0.6706 -0.5905 -0.0992
C24A C 0.7206(8) -0.4571(6) 0.0038(8)
H41A H 0.7155 -0.3911 0.0051
H42A H 0.7999 -0.4655 0.0239
H37A H 0.4713 -0.6578 -0.2112
H38A H 0.4815 -0.5938 -0.2750
C25A C 0.3038(12) -0.5090(6) -0.2795(5)
H43A H 0.2329 -0.4934 -0.2699
H44A H 0.3595 -0.4513 -0.2438
C26A C 0.2876(10) -0.5411(6) -0.3900(6)
C27A C 0.3547(11) -0.4990(8) -0.4283(9)
H45A H 0.4049 -0.4440 -0.3836
C28A C 0.3559(9) -0.5299(8) -0.5278(8)
N12A N 0.2778(10) -0.6083(8) -0.5920(8)
C29A C 0.2000(15) -0.6507(10) -0.5562(7)
H47A H 0.1405 -0.6987 -0.6012
C30A C 0.2151(8) -0.6186(5) -0.4536(5)
H48A H 0.1733 -0.6527 -0.4301
H46A H 0.4056 -0.4993 -0.5474
H39A H 0.2107 -0.6056 -0.2012
H40A H 0.3099 -0.6614 -0.1636
O1A O -0.1661(3) 0.0319(3) -0.0249(3)
O2A O -0.2091(4) 0.0422(4) 0.1092(3)
O3A O -0.4858(3) 0.0291(3) -0.3461(2)
O4A O -0.6452(3) -0.0415(3) -0.3533(3)
O5A O -0.4956(4) 0.3449(3) -0.0320(3)
O6A O -0.5173(4) 0.3112(3) 0.0946(3)
C31A C -0.3530(4) 0.0569(3) -0.0300(3)
H49A H -0.4055 0.0178 -0.0155
C32A C -0.3859(4) 0.0252(4) -0.1448(3)
H50A H -0.3796 -0.0428 -0.1716
H51A H -0.3345 0.0620 -0.1615
C33A C -0.5066(4) 0.0420(3) -0.1910(3)
H52A H -0.5555 0.0036 -0.1725
C34A C -0.5230(4) 0.1463(4) -0.1500(3)
H53A H -0.4766 0.1868 -0.1675
H54A H -0.6016 0.1533 -0.1794
C35A C -0.4899(4) 0.1793(3) -0.0356(3)
H55A H -0.5402 0.1393 -0.0199
C36A C -0.3694(4) 0.1636(3) 0.0112(4)
H56A H -0.3181 0.2039 -0.0019
H57A H -0.3507 0.1830 0.0830
C37A C -0.2332(4) 0.0409(4) 0.0221(3)
C38A C -0.5471(4) 0.0065(4) -0.3056(4)
C39A C -0.5015(5) 0.2865(4) 0.0127(4)
O5A_2 O 0.5044(4) -0.6551(3) -0.0320(3)
O3A_2 O 0.5142(3) 0.0291(3) 0.6539(2)
Ni3_2 Ni -0.5000 0.0000 -0.5000
Ni2_2 Ni -0.5000 0.5000 0.0000
O7 O 0.5663(5) 0.2524(4) 0.2610(4)
O8 O 0.3995(6) 0.2208(4) 0.3328(5)
O9 O 0.3016(6) 0.2290(8) 0.1212(6)
O10 O -0.0113(7) 0.1791(8) 0.3883(5)
O11 O 0.8436(8) 0.3796(6) 0.1104(9)
O12 O 0.135(2) 0.6549(15) 0.100(2)
O13 O 0.016(2) 0.4808(18) 0.0581(18)
O14 O 0.7500(4) 0.1441(3) 0.2786(3)
loop_
_geom_bond_atom_site_label_1
_geom_bond_atom_site_label_2
_geom_bond_site_symmetry_1
_geom_bond_site_symmetry_2
Ni1 N1 1_555 1_555
N1 H1 1_555 1_555
N2 Ni1 1_555 1_555
H2 N2 1_555 1_555
N3 C1 1_555 1_555
N4 C8 1_555 1_555
C1 N1 1_555 1_555
H3 C1 1_555 1_555
H4 C1 1_555 1_555
C2 N1 1_555 1_555
H5 C2 1_555 1_555
H6 C2 1_555 1_555
C3 N2 1_555 1_555
H7 C3 1_555 1_555
H8 C3 1_555 1_555
C4 N3 1_555 1_555
H9 C4 1_555 1_555
H10 C4 1_555 1_555
C5 N3 1_555 1_555
H11 C5 1_555 1_555
H12 C5 1_555 1_555
C6 C5 1_555 1_555
C7 C6 1_555 1_555
H13 C7 1_555 1_555
C8 C7 1_555 1_555
H14 C8 1_555 1_555
C9 N4 1_555 1_555
H15 C9 1_555 1_555
C10 C6 1_555 1_555
H16 C10 1_555 1_555
Ni2 N9 1_555 1_555
N5 H17 1_555 1_555
N6 H18 1_555 1_555
N7 C11 1_555 1_555
N8 C18 1_555 1_555
C11 N5 1_555 1_555
H19 C11 1_555 1_555
H20 C11 1_555 1_555
C12 N5 1_555 1_555
H21 C12 1_555 1_555
H22 C12 1_555 1_555
C13 N6 1_555 1_555
H23 C13 1_555 1_555
H24 C13 1_555 1_555
C14 N7 1_555 1_555
H25 C14 1_555 1_555
H26 C14 1_555 1_555
C15 N7 1_555 1_555
H27 C15 1_555 1_555
H28 C15 1_555 1_555
C16 C15 1_555 1_555
C17 C16 1_555 1_555
H29 C17 1_555 1_555
C18 C17 1_555 1_555
H30 C18 1_555 1_555
C19 N8 1_555 1_555
H31 C19 1_555 1_555
C20 C16 1_555 1_555
H32 C20 1_555 1_555
Ni3 N5 1_555 1_555
N9 H33 1_555 1_555
N10 Ni2 1_555 1_555
H34 N10 1_555 1_555
N11 C22 1_555 1_555
N12 C28 1_555 1_555
C21 N9 1_555 1_555
H35 C21 1_555 1_555
H36 C21 1_555 1_555
C22 N9 1_555 1_555
H37 C22 1_555 1_555
H38 C22 1_555 1_555
C23 N10 1_555 1_555
H39 C23 1_555 1_555
H40 C23 1_555 1_555
C24 C21 1_555 1_555
H41 C24 1_555 1_555
H42 C24 1_555 1_555
C25 N11 1_555 1_555
H43 C25 1_555 1_555
H44 C25 1_555 1_555
C26 C25 1_555 1_555
C27 C26 1_555 1_555
H45 C27 1_555 1_555
C28 C27 1_555 1_555
H46 C28 1_555 1_555
C29 N12 1_555 1_555
H47 C29 1_555 1_555
C30 C26 1_555 1_555
H48 C30 1_555 1_555
O1 Ni1 1_555 1_555
O2 C37 1_555 1_555
O3 Ni3 1_555 1_555
O4 C38 1_555 1_555
O5 Ni2 1_555 1_555
O6 C39 1_555 1_555
C31 H49 1_555 1_555
C32 C31 1_555 1_555
H50 C32 1_555 1_555
H51 C32 1_555 1_555
C33 C32 1_555 1_555
H52 C33 1_555 1_555
C34 C33 1_555 1_555
H53 C34 1_555 1_555
H54 C34 1_555 1_555
C35 C34 1_555 1_555
H55 C35 1_555 1_555
C36 C31 1_555 1_555
H56 C36 1_555 1_555
H57 C36 1_555 1_555
C37 O1 1_555 1_555
C38 O3 1_555 1_555
C39 O5 1_555 1_555
N2A Ni1 1_555 1_555
H2A N2A 1_555 1_555
C3A N2A 1_555 1_555
C2A C3A 1_555 1_555
N1A Ni1 1_555 1_555
H1A N1A 1_555 1_555
C1A N1A 1_555 1_555
N3A C1A 1_555 1_555
C4A N2 1_555 1_555
H9A C4A 1_555 1_555
H10A C4A 1_555 1_555
C5A N3A 1_555 1_555
H11A C5A 1_555 1_555
H12A C5A 1_555 1_555
C6A C5A 1_555 1_555
C7A C6A 1_555 1_555
H13A C7A 1_555 1_555
C8A C7A 1_555 1_555
N4A C8A 1_555 1_555
C9A N4A 1_555 1_555
H15A C9A 1_555 1_555
C10A C6A 1_555 1_555
H16A C10A 1_555 1_555
H14A C8A 1_555 1_555
H3A C1A 1_555 1_555
H4A C1A 1_555 1_555
H5A C2A 1_555 1_555
H6A C2A 1_555 1_555
H7A C3A 1_555 1_555
H8A C3A 1_555 1_555
N6A C14 1_555 1_555
H18A N6A 1_555 1_555
C13A N6A 1_555 1_555
C12A C13A 1_555 1_555
N5A Ni3 1_555 1_555
H17A N5A 1_555 1_555
C11A N5A 1_555 1_555
N7A C11A 1_555 1_555
C14A N6 1_555 1_555
H25A C14A 1_555 1_555
H26A C14A 1_555 1_555
C15A N7A 1_555 1_555
H27A C15A 1_555 1_555
H28A C15A 1_555 1_555
C16A C15A 1_555 1_555
C17A C16A 1_555 1_555
H29A C17A 1_555 1_555
C18A C17A 1_555 1_555
N8A C18A 1_555 1_555
C19A N8A 1_555 1_555
H31A C19A 1_555 1_555
C20A C16A 1_555 1_555
H32A C20A 1_555 1_555
H30A C18A 1_555 1_555
H19A C11A 1_555 1_555
H20A C11A 1_555 1_555
H21A C12A 1_555 1_555
H22A C12A 1_555 1_555
H23A C13A 1_555 1_555
H24A C13A 1_555 1_555
N10A Ni2 1_555 1_555
H34A N10A 1_555 1_555
C23A N10A 1_555 1_555
N11A C23A 1_555 1_555
C22A N11A 1_555 1_555
N9A Ni2 1_555 1_555
H33A N9A 1_555 1_555
C21A N9A 1_555 1_555
H35A C21A 1_555 1_555
H36A C21A 1_555 1_555
C24A N10 1_555 1_555
H41A C24A 1_555 1_555
H42A C24A 1_555 1_555
H37A C22A 1_555 1_555
H38A C22A 1_555 1_555
C25A N11A 1_555 1_555
H43A C25A 1_555 1_555
H44A C25A 1_555 1_555
C26A C25A 1_555 1_555
C27A C26A 1_555 1_555
H45A C27A 1_555 1_555
C28A C27A 1_555 1_555
N12A C28A 1_555 1_555
C29A N12A 1_555 1_555
H47A C29A 1_555 1_555
C30A C26A 1_555 1_555
H48A C30A 1_555 1_555
H46A C28A 1_555 1_555
H39A C23A 1_555 1_555
H40A C23A 1_555 1_555
O1A Ni1 1_555 1_555
O2A C37A 1_555 1_555
O3A C38A 1_555 1_555
O4A C38A 1_555 1_555
O5A C39A 1_555 1_555
O6A C39A 1_555 1_555
C31A H49A 1_555 1_555
C32A C31A 1_555 1_555
H50A C32A 1_555 1_555
H51A C32A 1_555 1_555
C33A C32A 1_555 1_555
H52A C33A 1_555 1_555
C34A C33A 1_555 1_555
H53A C34A 1_555 1_555
H54A C34A 1_555 1_555
C35A C34A 1_555 1_555
H55A C35A 1_555 1_555
C36A C31A 1_555 1_555
H56A C36A 1_555 1_555
H57A C36A 1_555 1_555
C37A O1A 1_555 1_555
C38A C33A 1_555 1_555
C39A C35A 1_555 1_555
O5A_2 Ni2 1_555 1_555
O3A_2 Ni3 1_555 1_555
Ni3_2 O3A 1_555 1_555
Ni2_2 O5A 1_555 1_555
C2 C3 1_555 1_555
C4 N2A 1_555 1_555
C9 C10 1_555 1_555
N6 Ni3 1_555 1_555
C12 C13 1_555 1_555
C19 C20 1_555 1_555
Ni3 N6A 1_555 1_555
N11 C23 1_555 1_555
C24 N10A 1_555 1_555
C29 C30 1_555 1_555
C31 C37 1_555 1_555
C33 C38 1_555 1_555
C35 C36 1_555 1_555
C35 C39 1_555 1_555
C2A N1A 1_555 1_555
N3A C4A 1_555 1_555
C9A C10A 1_555 1_555
C12A N5A 1_555 1_555
N7A C14A 1_555 1_555
C19A C20A 1_555 1_555
C22A N9A 1_555 1_555
C21A C24A 1_555 1_555
C29A C30A 1_555 1_555
C31A C37A 1_555 1_555
C35A C36A 1_555 1_555

#END
