
#######################################################################
#
#                 Cambridge Crystallographic Data Centre
#                                CCDC 
#
#######################################################################
#
# If this CIF has been generated from an entry in the Cambridge 
# Structural Database, then it will include bibliographic, chemical, 
# crystal, experimental, refinement or atomic coordinate data resulting 
# from the CCDC's data processing and validation procedures.
#
#######################################################################

data_GUJWIS01
_symmetry_cell_setting           monoclinic
_symmetry_space_group_name_H-M   'P 21/c'
_symmetry_Int_Tables_number      14
_space_group_name_Hall           '-P 2ybc'
loop_
_symmetry_equiv_pos_site_id
_symmetry_equiv_pos_as_xyz
1 x,y,z
2 -x,1/2+y,1/2-z
3 -x,-y,-z
4 x,1/2-y,1/2+z
_cell_length_a                   24.638(5)
_cell_length_b                   8.0830(16)
_cell_length_c                   14.712(3)
_cell_angle_alpha                90
_cell_angle_beta                 105.69(3)
_cell_angle_gamma                90
_cell_volume                     2820.71
loop_
_atom_site_label
_atom_site_type_symbol
_atom_site_fract_x
_atom_site_fract_y
_atom_site_fract_z
Cu1 Cu -0.04427(4) 0.55210(11) 0.59390(6)
C1 C -0.0640(4) 0.8523(10) 0.4751(6)
H1 H -0.0254 0.8767 0.5034
C2 C -0.0959(4) 0.9650(11) 0.4139(7)
H2 H -0.0797 1.0654 0.3999
C3 C -0.1522(4) 0.9295(10) 0.3727(6)
H3 H -0.1754 1.0061 0.3306
C4 C -0.1742(3) 0.7806(10) 0.3935(5)
H4 H -0.2125 0.7530 0.3654
C5 C -0.1391(3) 0.6724(9) 0.4564(5)
C6 C -0.1561(3) 0.5093(10) 0.4809(5)
C7 C -0.2073(3) 0.4380(10) 0.4402(5)
H5 H -0.2346 0.4957 0.3930
C8 C -0.2191(3) 0.2820(12) 0.4681(6)
H6 H -0.2545 0.2314 0.4404
C9 C -0.1781(4) 0.1999(11) 0.5375(6)
H7 H -0.1849 0.0920 0.5575
C10 C -0.1277(3) 0.2784(10) 0.5765(6)
H8 H -0.1001 0.2235 0.6246
C11 C 0.0587(3) 0.4390(9) 0.7014(5)
C12 C 0.0719(3) 0.5907(9) 0.6555(5)
C13 C 0.0884(3) 0.3283(9) 0.7679(5)
C14 C 0.1501(3) 0.3204(9) 0.8125(5)
N1 N -0.0847(2) 0.7103(8) 0.4968(4)
N2 N -0.1162(2) 0.4291(7) 0.5492(4)
N3 N 0.0044(2) 0.3918(7) 0.6780(4)
N4 N -0.0002(2) 0.2564(7) 0.7283(4)
N5 N 0.0507(2) 0.2170(8) 0.7842(4)
O1 O 0.0304(2) 0.6538(6) 0.5934(3)
O2 O 0.1206(2) 0.6488(6) 0.6800(4)
O3 O 0.1806(2) 0.4415(7) 0.7927(4)
H17 H 0.1594 0.5093 0.7565
O4 O 0.1712(2) 0.2088(7) 0.8654(4)
Cu1A Cu 0.04427(4) 0.05210(11) 0.90610(6)
N5A N -0.0507(2) 0.7170(8) 0.7158(4)
Cu2 Cu 0.55018(4) 0.55226(11) 0.63938(6)
C15 C 0.5702(3) 0.8603(10) 0.5452(6)
H9 H 0.5317 0.8844 0.5393
C16 C 0.6023(4) 0.9747(10) 0.5130(7)
H10 H 0.5861 1.0751 0.4845
C17 C 0.6580(4) 0.9397(10) 0.5232(6)
H11 H 0.6811 1.0171 0.5026
C18 C 0.6804(4) 0.7920(11) 0.5633(6)
H12 H 0.7188 0.7655 0.5691
C19 C 0.6461(3) 0.6824(9) 0.5951(5)
C20 C 0.6640(3) 0.5198(9) 0.6368(5)
C21 C 0.7178(3) 0.4570(10) 0.6509(5)
H13 H 0.7460 0.5191 0.6331
C22 C 0.7297(3) 0.3028(10) 0.6911(6)
H14 H 0.7663 0.2567 0.7009
C23 C 0.6882(3) 0.2158(10) 0.7171(6)
H15 H 0.6958 0.1088 0.7443
C24 C 0.6355(3) 0.2864(9) 0.7029(5)
H16 H 0.6070 0.2274 0.7218
C25 C 0.4464(3) 0.4298(9) 0.6437(5)
C26 C 0.4334(3) 0.5824(9) 0.5846(5)
C27 C 0.4160(3) 0.3227(9) 0.6812(5)
C28 C 0.3536(3) 0.3147(11) 0.6678(5)
N6 N 0.5914(2) 0.7175(8) 0.5841(4)
N7 N 0.6237(2) 0.4340(8) 0.6638(4)
N8 N 0.5009(2) 0.3867(7) 0.6740(4)
N9 N 0.5041(3) 0.2524(8) 0.7296(5)
N10 N 0.4528(2) 0.2133(8) 0.7356(4)
O5 O 0.4756(2) 0.6448(6) 0.5635(3)
O6 O 0.3841(2) 0.6360(7) 0.5578(4)
O7 O 0.3253(2) 0.4375(7) 0.6203(4)
H18 H 0.3478 0.5084 0.6099
O8 O 0.3304(2) 0.2023(8) 0.6972(4)
Cu2A Cu 0.44982(4) 0.05226(11) 0.86062(6)
N10A N 0.5472(2) 0.7133(8) 0.7644(4)
loop_
_geom_bond_atom_site_label_1
_geom_bond_atom_site_label_2
_geom_bond_site_symmetry_1
_geom_bond_site_symmetry_2
Cu1 N1 1_555 1_555
Cu2 N6 1_555 1_555
C1 H1 1_555 1_555
C2 C1 1_555 1_555
H2 C2 1_555 1_555
C3 C2 1_555 1_555
H3 C3 1_555 1_555
C4 C3 1_555 1_555
H4 C4 1_555 1_555
C5 C4 1_555 1_555
C6 C5 1_555 1_555
C7 C6 1_555 1_555
H5 C7 1_555 1_555
C8 C7 1_555 1_555
H6 C8 1_555 1_555
C9 C8 1_555 1_555
H7 C9 1_555 1_555
C10 C9 1_555 1_555
H8 C10 1_555 1_555
C11 C12 1_555 1_555
C12 O1 1_555 1_555
C13 C11 1_555 1_555
C14 C13 1_555 1_555
C15 H9 1_555 1_555
C16 C15 1_555 1_555
H10 C16 1_555 1_555
C17 C16 1_555 1_555
H11 C17 1_555 1_555
C18 C17 1_555 1_555
H12 C18 1_555 1_555
C19 C18 1_555 1_555
C20 C19 1_555 1_555
C21 C20 1_555 1_555
H13 C21 1_555 1_555
C22 C21 1_555 1_555
H14 C22 1_555 1_555
C23 C22 1_555 1_555
H15 C23 1_555 1_555
C24 C23 1_555 1_555
H16 C24 1_555 1_555
C25 C26 1_555 1_555
C26 O5 1_555 1_555
C27 C25 1_555 1_555
C28 C27 1_555 1_555
N1 C1 1_555 1_555
N2 Cu1 1_555 1_555
N3 Cu1 1_555 1_555
N4 N3 1_555 1_555
N5 C13 1_555 1_555
N6 C15 1_555 1_555
N7 Cu2 1_555 1_555
N8 Cu2 1_555 1_555
N9 N8 1_555 1_555
N10 C27 1_555 1_555
O1 Cu1 1_555 1_555
O2 C12 1_555 1_555
O3 C14 1_555 1_555
H17 O3 1_555 1_555
O4 C14 1_555 1_555
O5 Cu2 1_555 1_555
O6 C26 1_555 1_555
O7 C28 1_555 1_555
H18 O7 1_555 1_555
O8 C28 1_555 1_555
Cu1A N5 1_555 1_555
Cu2A N10 1_555 1_555
N5A Cu1 1_555 1_555
N10A Cu2 1_555 1_555
C5 N1 1_555 1_555
C6 N2 1_555 1_555
C10 N2 1_555 1_555
C11 N3 1_555 1_555
C19 N6 1_555 1_555
C20 N7 1_555 1_555
C24 N7 1_555 1_555
C25 N8 1_555 1_555
N4 N5 1_555 1_555
N9 N10 1_555 1_555

#END
