
#######################################################################
#
#                 Cambridge Crystallographic Data Centre
#                                CCDC 
#
#######################################################################
#
# If this CIF has been generated from an entry in the Cambridge 
# Structural Database, then it will include bibliographic, chemical, 
# crystal, experimental, refinement or atomic coordinate data resulting 
# from the CCDC's data processing and validation procedures.
#
#######################################################################

data_GUJWEO
_symmetry_cell_setting           triclinic
_symmetry_space_group_name_H-M   'P -1'
_symmetry_Int_Tables_number      2
_space_group_name_Hall           '-P 1'
loop_
_symmetry_equiv_pos_site_id
_symmetry_equiv_pos_as_xyz
1 x,y,z
2 -x,-y,-z
_cell_length_a                   8.7500(2)
_cell_length_b                   19.890
_cell_length_c                   20.3500(3)
_cell_angle_alpha                65.100(3)
_cell_angle_beta                 86.420(6)
_cell_angle_gamma                83.010(6)
_cell_volume                     3188.32
loop_
_atom_site_label
_atom_site_type_symbol
_atom_site_fract_x
_atom_site_fract_y
_atom_site_fract_z
Ni1 Ni -0.53518(4) 0.139034(19) 0.283796(18)
Ni2 Ni -1.0000 0.5000 0.5000
Ni3 Ni -0.55848(4) 0.130428(19) 0.789524(18)
Ni4 Ni -1.0000 0.5000 1.0000
O1 O -0.5502(2) 0.11806(10) 0.39594(10)
O2 O -0.6489(2) 0.22552(11) 0.31444(10)
O3 O -0.8796(2) 0.40250(11) 0.50651(11)
O4 O -0.8791(3) 0.42403(12) 0.38963(12)
O5 O -0.5974(3) 0.17920(11) 0.68136(10)
O6 O -0.4904(2) 0.08829(11) 0.65036(11)
O7 O -0.5598(2) 0.11267(10) 0.89973(10)
O8 O -0.6806(2) 0.21496(11) 0.81993(10)
O9 O -0.9377(3) 0.40810(12) 0.89487(12)
O10 O -0.8969(3) 0.39889(11) 1.00609(11)
O11 O -0.5594(2) 0.19019(11) 1.17438(10)
O12 O -0.4709(2) 0.09455(11) 1.14698(11)
O13 O -0.3926(2) 0.04580(11) 0.28636(11)
O14 O -0.9488(2) 0.55994(11) 0.38863(11)
O15 O -0.4096(2) 0.03956(11) 0.79066(11)
O16 O -0.8821(3) 0.48024(12) 1.09311(11)
N1 N -0.3380(3) 0.18727(13) 0.27654(13)
N2 N -0.1348(3) 0.21794(14) 0.31181(14)
N3 N -0.0627(3) -0.02794(14) 0.66362(14)
N4 N -0.2610(3) -0.09227(13) 0.70754(13)
N5 N -1.2002(3) 0.47161(14) 0.47372(14)
N6 N -1.4276(3) 0.48220(15) 0.42791(15)
N7 N -1.3863(4) 0.42072(17) 0.13628(18)
N8 N -1.1929(3) 0.44940(14) 0.05824(14)
N9 N -0.3671(3) 0.18672(14) 0.77424(13)
N10 N -0.1714(3) 0.23207(16) 0.79876(14)
N11 N -0.0490(3) -0.01132(15) 1.14165(17)
N12 N -0.2407(3) -0.07826(14) 1.19411(14)
C1 C -0.6131(3) 0.18394(15) 0.37893(14)
C2 C -0.8481(3) 0.38393(15) 0.45473(15)
C3 C -0.5669(3) 0.15017(15) 0.63679(14)
C4 C -0.6449(3) 0.21216(15) 0.43693(14)
C5 C -0.7243(3) 0.28215(15) 0.42001(15)
H1 H -0.752(4) 0.3095(18) 0.3749(19)
C6 C -0.7600(3) 0.30811(15) 0.47328(15)
C7 C -0.7118(3) 0.26404(15) 0.54416(15)
H2 H -0.727(3) 0.2809(17) 0.5808(17)
C8 C -0.6272(3) 0.19522(15) 0.56106(14)
C9 C -0.5945(3) 0.16860(15) 0.50768(14)
H3 H -0.538(4) 0.1239(19) 0.5150(18)
C10 C -0.2527(3) 0.17574(17) 0.33272(16)
H4 H -0.271(4) 0.146(2) 0.380(2)
C11 C -0.2696(4) 0.23823(17) 0.21728(16)
H5 H -0.3043 0.2567 0.1700
C12 C -0.1436(4) 0.25776(18) 0.23774(17)
H6 H -0.082(4) 0.291(2) 0.213(2)
C13 C -0.0109(4) 0.2161(2) 0.35804(17)
H7 H 0.075(5) 0.188(2) 0.352(2)
H8 H 0.015(4) 0.267(2) 0.3425(19)
C14 C -0.0595(3) 0.18867(18) 0.43652(16)
C15 C -0.1673(4) 0.23185(18) 0.45978(18)
H9 H -0.205(5) 0.277(2) 0.423(2)
C16 C -0.2100(4) 0.20656(19) 0.53207(18)
H10 H -0.280(4) 0.235(2) 0.545(2)
C17 C -0.1437(4) 0.13864(18) 0.58204(17)
H11 H -0.181(4) 0.1249(19) 0.628(2)
C18 C -0.0356(3) 0.09516(18) 0.55990(17)
C19 C 0.0047(3) 0.12018(17) 0.48688(18)
H12 H 0.0755 0.0907 0.4716
C20 C 0.0435(4) 0.0224(2) 0.6135(2)
H13 H 0.1026 -0.0029 0.5870
H14 H 0.1152 0.0331 0.6415
C21 C -0.2071(3) -0.03702(17) 0.65168(17)
H15 H -0.264(4) -0.003(2) 0.608(2)
C22 C -0.1445(3) -0.12036(17) 0.75792(17)
H16 H -0.1497 -0.1600 0.8032
C23 C -0.0219(4) -0.08128(18) 0.73117(17)
H17 H 0.075(4) -0.0866(19) 0.7500(19)
C24 C -1.3120(3) 0.51834(18) 0.43333(17)
H18 H -1.315(4) 0.571(2) 0.411(2)
C25 C -1.3877(4) 0.4075(2) 0.4677(2)
H19 H -1.466(5) 0.370(2) 0.470(2)
C26 C -1.2470(4) 0.40161(18) 0.49574(19)
H20 H -1.190(5) 0.356(2) 0.529(2)
C27 C -1.5672(4) 0.5174(2) 0.3853(2)
H21 H -1.646(5) 0.488(2) 0.408(2)
H22 H -1.599(4) 0.569(2) 0.3840(19)
C28 C -1.5486(3) 0.5287(2) 0.30699(19)
C29 C -1.5221(4) 0.4671(2) 0.2899(2)
H23 H -1.5159 0.4192 0.3269
C30 C -1.5049(4) 0.4769(2) 0.2176(2)
C31 C -1.5132(4) 0.5496(2) 0.1623(2)
H24 H -1.5030 0.5569 0.1141
C32 C -1.5367(4) 0.6108(2) 0.1796(2)
H25 H -1.543(5) 0.665(3) 0.141(3)
C33 C -1.5541(4) 0.6006(2) 0.2513(2)
H26 H -1.573(4) 0.640(2) 0.265(2)
C34 C -1.4780(6) 0.4087(3) 0.2021(3)
H27 H -1.4257 0.3682 0.2429
H28 H -1.5767 0.3938 0.1973
C35 C -1.4265(4) 0.4092(2) 0.0785(2)
H29 H -1.5178 0.3927 0.0730
C36 C -1.3071(4) 0.4265(2) 0.0310(2)
H30 H -1.3025 0.4234 -0.0135
C37 C -1.2446(4) 0.44404(19) 0.12190(19)
H31 H -1.1902 0.4550 0.1534
C38 C -0.6323(3) 0.17672(15) 0.88346(14)
C39 C -0.8788(3) 0.37605(15) 0.95739(15)
C40 C -0.5422(3) 0.15820(15) 1.13209(14)
C41 C -0.6581(3) 0.20726(15) 0.93943(14)
C42 C -0.7492(3) 0.27442(15) 0.92333(15)
H32 H -0.787(4) 0.2983(17) 0.8787(18)
C43 C -0.7762(3) 0.30392(15) 0.97456(15)
C44 C -0.7073(3) 0.26591(15) 1.04233(15)
H33 H -0.7238 0.2855 1.0767
C45 C -0.6141(3) 0.19908(15) 1.05892(14)
C46 C -0.5900(3) 0.16956(15) 1.00732(15)
H34 H -0.531(4) 0.1274(19) 1.0138(18)
C47 C -0.2839(4) 0.18723(19) 0.82624(17)
H35 H -0.302(4) 0.164(2) 0.876(2)
C48 C -0.3017(4) 0.23312(18) 0.71083(17)
H36 H -0.334(5) 0.238(2) 0.670(2)
C49 C -0.1803(4) 0.26112(19) 0.72511(18)
H37 H -0.117(4) 0.2935(19) 0.6959(19)
C50 C -0.0540(4) 0.2467(3) 0.8386(2)
H38 H -0.0519 0.3002 0.8209
H39 H 0.0464 0.2258 0.8290
C51 C -0.0838(4) 0.2142(2) 0.91943(19)
C52 C -0.1687(4) 0.2570(2) 0.9506(2)
H40 H -0.205(5) 0.306(2) 0.918(2)
C53 C -0.1905(5) 0.2282(2) 1.0247(2)
H41 H -0.240(5) 0.255(2) 1.044(2)
C54 C -0.1264(4) 0.1575(2) 1.0692(2)
H42 H -0.147(5) 0.142(2) 1.116(3)
C55 C -0.0382(4) 0.11467(19) 1.0390(2)
C56 C -0.0197(4) 0.1430(2) 0.9640(2)
H43 H 0.0363 0.1137 0.9434
C57 C 0.0465(4) 0.0409(2) 1.0861(3)
H44 H 0.0930 0.0175 1.0554
H45 H 0.1293 0.0500 1.1100
C58 C 0.0035(4) -0.0653(2) 1.2074(2)
H46 H 0.101(6) -0.067(3) 1.219(3)
C59 C -0.1149(4) -0.10548(19) 1.23893(19)
H47 H -0.117(4) -0.147(2) 1.285(2)
C60 C -0.1969(3) -0.02209(18) 1.13649(19)
H48 H -0.265(5) 0.008(2) 1.094(2)
Ni1A Ni -1.46482(4) 0.860966(19) 0.716204(18)
Ni1_2 Ni -1.53518(4) 1.139034(19) 0.283796(18)
Ni1_3 Ni -0.53518(4) 0.139034(19) 1.283796(18)
Ni1A_2 Ni -1.46482(4) 0.860966(19) -0.283796(18)
Ni1A_3 Ni -0.46482(4) -0.139034(19) 0.716204(18)
Ni3A Ni -1.44152(4) 0.869572(19) 0.210476(18)
Ni3_2 Ni -1.55848(4) 1.130428(19) -0.210476(18)
Ni3A_2 Ni -0.44152(4) -0.130428(19) 1.210476(18)
Ni4_2 Ni -1.0000 0.5000 0.0000
O1A O -1.4498(2) 0.88194(10) 0.60406(10)
O2A O -1.3511(2) 0.77448(11) 0.68556(10)
O3A O -1.1204(2) 0.59750(11) 0.49349(11)
O4A O -1.1209(3) 0.57597(12) 0.61037(12)
O5A O -1.4026(3) 0.82080(11) 0.31864(10)
O6A O -1.5096(2) 0.91171(11) 0.34964(11)
O7A O -1.4402(2) 0.88733(10) 0.10027(10)
O8A O -1.3194(2) 0.78504(11) 0.18007(10)
O9A O -1.0623(3) 0.59190(12) 0.10513(12)
O10A O -1.1031(3) 0.60111(11) -0.00609(11)
O10A_2 O -1.1031(3) 0.60111(11) 0.99391(11)
O11A O -1.4406(2) 0.80981(11) -0.17438(10)
O11_2 O -0.5594(2) 0.19019(11) 0.17438(10)
O11A_2 O -1.4406(2) 0.80981(11) 0.82562(10)
O12A O -1.5291(2) 0.90545(11) -0.14698(11)
O13A O -1.6074(2) 0.95420(11) 0.71364(11)
O14A O -1.0512(2) 0.44006(11) 0.61137(11)
O15A O -1.5904(2) 0.96044(11) 0.20934(11)
O16A O -1.1179(3) 0.51976(12) 0.90689(11)
N1A N -1.6620(3) 0.81273(13) 0.72346(13)
N2A N -1.8652(3) 0.78206(14) 0.68819(14)
N3A N -1.9373(3) 1.02794(14) 0.33638(14)
N4A N -1.7390(3) 1.09227(13) 0.29246(13)
N4_2 N -1.2610(3) 0.90773(13) 0.70754(13)
N4A_2 N -0.7390(3) 0.09227(13) 0.29246(13)
N5A N -0.7998(3) 0.52839(14) 0.52628(14)
N6A N -0.5724(3) 0.51780(15) 0.57209(15)
N7A N -0.6137(4) 0.57928(17) 0.86372(18)
N8A N -0.8071(3) 0.55060(14) 0.94176(14)
N8_2 N -1.1929(3) 0.44940(14) 1.05824(14)
N9A N -1.6329(3) 0.81328(14) 0.22576(13)
N10A N -1.8286(3) 0.76793(16) 0.20124(14)
N11A N -1.9510(3) 1.01132(15) -0.14165(17)
N12A N -1.7593(3) 1.07826(14) -0.19411(14)
N12_2 N -1.2407(3) 0.92174(14) 0.19411(14)
N12A_2 N -0.7593(3) 0.07826(14) 0.80589(14)
C1A C -1.3869(3) 0.81606(15) 0.62107(14)
C2A C -1.1519(3) 0.61607(15) 0.54527(15)
C3A C -1.4331(3) 0.84983(15) 0.36321(14)
C4A C -1.3551(3) 0.78784(15) 0.56307(14)
C5A C -1.2757(3) 0.71785(15) 0.57999(15)
H1A H -1.248(4) 0.6905(18) 0.6251(19)
C6A C -1.2400(3) 0.69189(15) 0.52672(15)
C7A C -1.2882(3) 0.73596(15) 0.45584(15)
H2A H -1.273(3) 0.7191(17) 0.4192(17)
C8A C -1.3728(3) 0.80478(15) 0.43894(14)
C9A C -1.4055(3) 0.83140(15) 0.49232(14)
H3A H -1.462(4) 0.8761(19) 0.4850(18)
C10A C -1.7473(3) 0.82426(17) 0.66728(16)
H4A H -1.729(4) 0.854(2) 0.620(2)
C11A C -1.7304(4) 0.76177(17) 0.78272(16)
H5A H -1.6957 0.7433 0.8300
C12A C -1.8564(4) 0.74224(18) 0.76226(17)
H6A H -1.918(4) 0.709(2) 0.787(2)
C13A C -1.9891(4) 0.7839(2) 0.64196(17)
H7A H -2.075(5) 0.812(2) 0.648(2)
H8A H -2.015(4) 0.733(2) 0.6575(19)
C14A C -1.9405(3) 0.81133(18) 0.56348(16)
C15A C -1.8327(4) 0.76815(18) 0.54022(18)
H9A H -1.795(5) 0.723(2) 0.577(2)
C16A C -1.7900(4) 0.79344(19) 0.46793(18)
H10A H -1.720(4) 0.765(2) 0.455(2)
C17A C -1.8563(4) 0.86136(18) 0.41796(17)
H11A H -1.819(4) 0.8751(19) 0.372(2)
C18A C -1.9644(3) 0.90484(18) 0.44010(17)
C19A C -2.0047(3) 0.87982(17) 0.51312(18)
H12A H -2.0755 0.9093 0.5284
C20A C -2.0435(4) 0.9776(2) 0.3865(2)
H13A H -2.1026 1.0029 0.4130
H14A H -2.1152 0.9669 0.3585
C21A C -1.7929(3) 1.03702(17) 0.34832(17)
H15A H -1.736(4) 1.003(2) 0.392(2)
C22A C -1.8555(3) 1.12036(17) 0.24208(17)
H16A H -1.8503 1.1600 0.1968
C23A C -1.9781(4) 1.08128(18) 0.26883(17)
H17A H -2.075(4) 1.0866(19) 0.2500(19)
C24A C -0.6880(3) 0.48166(18) 0.56667(17)
H18A H -0.685(4) 0.429(2) 0.589(2)
C25A C -0.6123(4) 0.5925(2) 0.5323(2)
H19A H -0.534(5) 0.630(2) 0.530(2)
C26A C -0.7530(4) 0.59839(18) 0.50426(19)
H20A H -0.810(5) 0.644(2) 0.471(2)
C27A C -0.4328(4) 0.4826(2) 0.6147(2)
H21A H -0.354(5) 0.512(2) 0.592(2)
H22A H -0.401(4) 0.431(2) 0.6160(19)
C28A C -0.4514(3) 0.4713(2) 0.69301(19)
C29A C -0.4779(4) 0.5329(2) 0.7101(2)
H23A H -0.4841 0.5808 0.6731
C30A C -0.4951(4) 0.5231(2) 0.7824(2)
C31A C -0.4868(4) 0.4504(2) 0.8377(2)
H24A H -0.4970 0.4431 0.8859
C32A C -0.4633(4) 0.3892(2) 0.8204(2)
H25A H -0.457(5) 0.335(3) 0.859(3)
C33A C -0.4459(4) 0.3994(2) 0.7487(2)
H26A H -0.427(4) 0.360(2) 0.735(2)
C34A C -0.5220(6) 0.5913(3) 0.7979(3)
H27A H -0.5743 0.6318 0.7571
H28A H -0.4233 0.6062 0.8027
C35A C -0.5735(4) 0.5908(2) 0.9215(2)
H29A H -0.4822 0.6073 0.9270
C36A C -0.6929(4) 0.5735(2) 0.9690(2)
H30A H -0.6975 0.5766 1.0135
C37A C -0.7554(4) 0.55596(19) 0.87810(19)
H31A H -0.8098 0.5450 0.8466
C38A C -1.3677(3) 0.82328(15) 0.11654(14)
C39A C -1.1212(3) 0.62395(15) 0.04261(15)
C40A C -1.4578(3) 0.84180(15) -0.13209(14)
C41A C -1.3419(3) 0.79274(15) 0.06057(14)
C42A C -1.2508(3) 0.72558(15) 0.07667(15)
H32A H -1.213(4) 0.7017(17) 0.1213(18)
C43A C -1.2238(3) 0.69608(15) 0.02544(15)
C44A C -1.2927(3) 0.73409(15) -0.04233(15)
H33A H -1.2762 0.7145 -0.0767
C45A C -1.3859(3) 0.80092(15) -0.05892(14)
C46A C -1.4100(3) 0.83044(15) -0.00732(15)
H34A H -1.469(4) 0.8726(19) -0.0138(18)
C47A C -1.7161(4) 0.81277(19) 0.17376(17)
H35A H -1.698(4) 0.836(2) 0.124(2)
C48A C -1.6983(4) 0.76688(18) 0.28917(17)
H36A H -1.666(5) 0.762(2) 0.330(2)
C49A C -1.8197(4) 0.73888(19) 0.27489(18)
H37A H -1.883(4) 0.7065(19) 0.3041(19)
C50A C -1.9460(4) 0.7533(3) 0.1614(2)
H38A H -1.9481 0.6998 0.1791
H39A H -2.0464 0.7742 0.1710
C51A C -1.9162(4) 0.7858(2) 0.08057(19)
C52A C -1.8313(4) 0.7430(2) 0.0494(2)
H40A H -1.795(5) 0.694(2) 0.082(2)
C53A C -1.8095(5) 0.7718(2) -0.0247(2)
H41A H -1.760(5) 0.745(2) -0.044(2)
C54A C -1.8736(4) 0.8425(2) -0.0692(2)
H42A H -1.853(5) 0.858(2) -0.116(3)
C55A C -1.9618(4) 0.88533(19) -0.0390(2)
C56A C -1.9803(4) 0.8570(2) 0.0360(2)
H43A H -2.0363 0.8863 0.0566
C57A C -2.0465(4) 0.9591(2) -0.0861(3)
H44A H -2.0930 0.9825 -0.0554
H45A H -2.1293 0.9500 -0.1100
C58A C -2.0035(4) 1.0653(2) -0.2074(2)
H46A H -2.101(6) 1.067(3) -0.219(3)
C59A C -1.8851(4) 1.10548(19) -0.23893(19)
H47A H -1.883(4) 1.147(2) -0.285(2)
C60A C -1.8031(3) 1.02209(18) -0.13649(19)
H48A H -1.735(5) 0.992(2) -0.094(2)
O17 O -0.8376(3) 0.35123(15) 1.21502(15)
O18 O -0.8232(3) 0.44576(17) 0.76276(15)
O19 O -1.1878(4) 0.65577(17) 0.29919(16)
O20 O -1.0469(4) 0.40434(17) 0.29495(17)
O21 O -0.3434(6) 0.0096(3) 0.4909(3)
O22 O -0.3426(6) 0.0121(3) 0.9878(3)
loop_
_geom_bond_atom_site_label_1
_geom_bond_atom_site_label_2
_geom_bond_site_symmetry_1
_geom_bond_site_symmetry_2
Ni1 O1 1_555 1_555
Ni2 O3 1_555 1_555
Ni3 O5 1_555 1_555
Ni4 O10 1_555 1_555
O1 C1 1_555 1_555
O2 Ni1 1_555 1_555
O3 C2 1_555 1_555
O4 C2 1_555 1_555
O5 C3 1_555 1_555
O6 C3 1_555 1_555
O7 Ni3 1_555 1_555
O8 Ni3 1_555 1_555
O9 C39 1_555 1_555
O10 C39 1_555 1_555
O11 C40 1_555 1_555
O12 C40 1_555 1_555
O13 Ni1 1_555 1_555
O14 Ni2 1_555 1_555
O15 Ni3 1_555 1_555
O16 Ni4 1_555 1_555
N1 Ni1 1_555 1_555
N2 C10 1_555 1_555
N3 C20 1_555 1_555
N4 C21 1_555 1_555
N5 Ni2 1_555 1_555
N6 C24 1_555 1_555
N7 C34 1_555 1_555
N8 C36 1_555 1_555
N9 Ni3 1_555 1_555
N10 C47 1_555 1_555
N11 C57 1_555 1_555
N12 C59 1_555 1_555
C1 O2 1_555 1_555
C2 C6 1_555 1_555
C3 C8 1_555 1_555
C4 C1 1_555 1_555
C5 C4 1_555 1_555
H1 C5 1_555 1_555
C6 C5 1_555 1_555
C7 C6 1_555 1_555
H2 C7 1_555 1_555
C8 C7 1_555 1_555
C9 C4 1_555 1_555
H3 C9 1_555 1_555
C10 N1 1_555 1_555
H4 C10 1_555 1_555
C11 N1 1_555 1_555
H5 C11 1_555 1_555
C12 N2 1_555 1_555
H6 C12 1_555 1_555
C13 N2 1_555 1_555
H7 C13 1_555 1_555
H8 C13 1_555 1_555
C14 C13 1_555 1_555
C15 C14 1_555 1_555
H9 C15 1_555 1_555
C16 C15 1_555 1_555
H10 C16 1_555 1_555
C17 C16 1_555 1_555
H11 C17 1_555 1_555
C18 C17 1_555 1_555
C19 C14 1_555 1_555
H12 C19 1_555 1_555
C20 C18 1_555 1_555
H13 C20 1_555 1_555
H14 C20 1_555 1_555
C21 N3 1_555 1_555
H15 C21 1_555 1_555
C22 N4 1_555 1_555
H16 C22 1_555 1_555
C23 N3 1_555 1_555
H17 C23 1_555 1_555
C24 N5 1_555 1_555
H18 C24 1_555 1_555
C25 N6 1_555 1_555
H19 C25 1_555 1_555
C26 N5 1_555 1_555
H20 C26 1_555 1_555
C27 N6 1_555 1_555
H21 C27 1_555 1_555
H22 C27 1_555 1_555
C28 C27 1_555 1_555
C29 C28 1_555 1_555
H23 C29 1_555 1_555
C30 C29 1_555 1_555
C31 C30 1_555 1_555
H24 C31 1_555 1_555
C32 C31 1_555 1_555
H25 C32 1_555 1_555
C33 C28 1_555 1_555
H26 C33 1_555 1_555
C34 C30 1_555 1_555
H27 C34 1_555 1_555
H28 C34 1_555 1_555
C35 N7 1_555 1_555
H29 C35 1_555 1_555
C36 C35 1_555 1_555
H30 C36 1_555 1_555
C37 N7 1_555 1_555
H31 C37 1_555 1_555
C38 O7 1_555 1_555
C39 C43 1_555 1_555
C40 C45 1_555 1_555
C41 C38 1_555 1_555
C42 C41 1_555 1_555
H32 C42 1_555 1_555
C43 C42 1_555 1_555
C44 C43 1_555 1_555
H33 C44 1_555 1_555
C45 C44 1_555 1_555
C46 C41 1_555 1_555
H34 C46 1_555 1_555
C47 N9 1_555 1_555
H35 C47 1_555 1_555
C48 N9 1_555 1_555
H36 C48 1_555 1_555
C49 N10 1_555 1_555
H37 C49 1_555 1_555
C50 N10 1_555 1_555
H38 C50 1_555 1_555
H39 C50 1_555 1_555
C51 C50 1_555 1_555
C52 C51 1_555 1_555
H40 C52 1_555 1_555
C53 C52 1_555 1_555
H41 C53 1_555 1_555
C54 C53 1_555 1_555
H42 C54 1_555 1_555
C55 C54 1_555 1_555
C56 C51 1_555 1_555
H43 C56 1_555 1_555
C57 C55 1_555 1_555
H44 C57 1_555 1_555
H45 C57 1_555 1_555
C58 N11 1_555 1_555
H46 C58 1_555 1_555
C59 C58 1_555 1_555
H47 C59 1_555 1_555
C60 N11 1_555 1_555
H48 C60 1_555 1_555
Ni1A O1A 1_555 1_555
Ni1_2 N4A 1_555 1_555
Ni1_3 O11 1_555 1_555
Ni1A_2 O11A 1_555 1_555
Ni1A_3 N4 1_555 1_555
Ni3A O5A 1_555 1_555
Ni3_2 N12A 1_555 1_555
Ni3A_2 N12 1_555 1_555
Ni4_2 N8 1_555 1_555
O1A C1A 1_555 1_555
O2A Ni1A 1_555 1_555
O3A Ni2 1_555 1_555
O4A C2A 1_555 1_555
O5A C3A 1_555 1_555
O6A C3A 1_555 1_555
O7A Ni3A 1_555 1_555
O8A Ni3A 1_555 1_555
O9A C39A 1_555 1_555
O10A Ni4_2 1_555 1_555
O10A_2 Ni4 1_555 1_555
O11A C40A 1_555 1_555
O11_2 Ni1 1_555 1_555
O11A_2 Ni1A 1_555 1_555
O12A C40A 1_555 1_555
O13A Ni1A 1_555 1_555
O14A Ni2 1_555 1_555
O15A Ni3A 1_555 1_555
O16A Ni4 1_555 1_555
N1A Ni1A 1_555 1_555
N2A C10A 1_555 1_555
N3A C20A 1_555 1_555
N4A C21A 1_555 1_555
N4_2 Ni1A 1_555 1_555
N4A_2 Ni1 1_555 1_555
N5A Ni2 1_555 1_555
N6A C24A 1_555 1_555
N7A C34A 1_555 1_555
N8A Ni4 1_555 1_555
N8_2 Ni4 1_555 1_555
N9A Ni3A 1_555 1_555
N10A C47A 1_555 1_555
N11A C57A 1_555 1_555
N12A C59A 1_555 1_555
N12_2 Ni3A 1_555 1_555
N12A_2 Ni3 1_555 1_555
C1A O2A 1_555 1_555
C2A O3A 1_555 1_555
C3A C8A 1_555 1_555
C4A C1A 1_555 1_555
C5A C4A 1_555 1_555
H1A C5A 1_555 1_555
C6A C2A 1_555 1_555
C7A C6A 1_555 1_555
H2A C7A 1_555 1_555
C8A C7A 1_555 1_555
C9A C4A 1_555 1_555
H3A C9A 1_555 1_555
C10A N1A 1_555 1_555
H4A C10A 1_555 1_555
C11A N1A 1_555 1_555
H5A C11A 1_555 1_555
C12A N2A 1_555 1_555
H6A C12A 1_555 1_555
C13A N2A 1_555 1_555
H7A C13A 1_555 1_555
H8A C13A 1_555 1_555
C14A C13A 1_555 1_555
C15A C14A 1_555 1_555
H9A C15A 1_555 1_555
C16A C15A 1_555 1_555
H10A C16A 1_555 1_555
C17A C16A 1_555 1_555
H11A C17A 1_555 1_555
C18A C17A 1_555 1_555
C19A C14A 1_555 1_555
H12A C19A 1_555 1_555
C20A C18A 1_555 1_555
H13A C20A 1_555 1_555
H14A C20A 1_555 1_555
C21A N3A 1_555 1_555
H15A C21A 1_555 1_555
C22A N4A 1_555 1_555
H16A C22A 1_555 1_555
C23A N3A 1_555 1_555
H17A C23A 1_555 1_555
C24A N5A 1_555 1_555
H18A C24A 1_555 1_555
C25A N6A 1_555 1_555
H19A C25A 1_555 1_555
C26A N5A 1_555 1_555
H20A C26A 1_555 1_555
C27A N6A 1_555 1_555
H21A C27A 1_555 1_555
H22A C27A 1_555 1_555
C28A C27A 1_555 1_555
C29A C28A 1_555 1_555
H23A C29A 1_555 1_555
C30A C29A 1_555 1_555
C31A C30A 1_555 1_555
H24A C31A 1_555 1_555
C32A C31A 1_555 1_555
H25A C32A 1_555 1_555
C33A C28A 1_555 1_555
H26A C33A 1_555 1_555
C34A C30A 1_555 1_555
H27A C34A 1_555 1_555
H28A C34A 1_555 1_555
C35A N7A 1_555 1_555
H29A C35A 1_555 1_555
C36A N8A 1_555 1_555
H30A C36A 1_555 1_555
C37A N7A 1_555 1_555
H31A C37A 1_555 1_555
C38A O7A 1_555 1_555
C39A O10A 1_555 1_555
C40A C45A 1_555 1_555
C41A C38A 1_555 1_555
C42A C41A 1_555 1_555
H32A C42A 1_555 1_555
C43A C39A 1_555 1_555
C44A C43A 1_555 1_555
H33A C44A 1_555 1_555
C45A C44A 1_555 1_555
C46A C41A 1_555 1_555
H34A C46A 1_555 1_555
C47A N9A 1_555 1_555
H35A C47A 1_555 1_555
C48A N9A 1_555 1_555
H36A C48A 1_555 1_555
C49A N10A 1_555 1_555
H37A C49A 1_555 1_555
C50A N10A 1_555 1_555
H38A C50A 1_555 1_555
H39A C50A 1_555 1_555
C51A C50A 1_555 1_555
C52A C51A 1_555 1_555
H40A C52A 1_555 1_555
C53A C52A 1_555 1_555
H41A C53A 1_555 1_555
C54A C53A 1_555 1_555
H42A C54A 1_555 1_555
C55A C54A 1_555 1_555
C56A C51A 1_555 1_555
H43A C56A 1_555 1_555
C57A C55A 1_555 1_555
H44A C57A 1_555 1_555
H45A C57A 1_555 1_555
C58A N11A 1_555 1_555
H46A C58A 1_555 1_555
C59A C58A 1_555 1_555
H47A C59A 1_555 1_555
C60A N11A 1_555 1_555
H48A C60A 1_555 1_555
O8 C38 1_555 1_555
N8 C37 1_555 1_555
N12 C60 1_555 1_555
C8 C9 1_555 1_555
C11 C12 1_555 1_555
C18 C19 1_555 1_555
C22 C23 1_555 1_555
C25 C26 1_555 1_555
C32 C33 1_555 1_555
C45 C46 1_555 1_555
C48 C49 1_555 1_555
C55 C56 1_555 1_555
O8A C38A 1_555 1_555
N8A C37A 1_555 1_555
N12A C60A 1_555 1_555
C5A C6A 1_555 1_555
C8A C9A 1_555 1_555
C11A C12A 1_555 1_555
C18A C19A 1_555 1_555
C22A C23A 1_555 1_555
C25A C26A 1_555 1_555
C32A C33A 1_555 1_555
C35A C36A 1_555 1_555
C42A C43A 1_555 1_555
C45A C46A 1_555 1_555
C48A C49A 1_555 1_555
C55A C56A 1_555 1_555

#END
