
#######################################################################
#
#                 Cambridge Crystallographic Data Centre
#                                CCDC 
#
#######################################################################
#
# If this CIF has been generated from an entry in the Cambridge 
# Structural Database, then it will include bibliographic, chemical, 
# crystal, experimental, refinement or atomic coordinate data resulting 
# from the CCDC's data processing and validation procedures.
#
#######################################################################

data_GUJXEP
_symmetry_cell_setting           monoclinic
_symmetry_space_group_name_H-M   'C 2/c'
_symmetry_Int_Tables_number      15
_space_group_name_Hall           '-C 2yn'
loop_
_symmetry_equiv_pos_site_id
_symmetry_equiv_pos_as_xyz
1 x,y,z
2 -x,y,1/2-z
3 1/2+x,1/2+y,z
4 1/2-x,1/2+y,1/2-z
5 -x,-y,-z
6 x,-y,1/2+z
7 1/2-x,1/2-y,-z
8 1/2+x,1/2-y,1/2+z
_cell_length_a                   37.038(4)
_cell_length_b                   6.4832(6)
_cell_length_c                   7.4521(7)
_cell_angle_alpha                90
_cell_angle_beta                 91.787(10)
_cell_angle_gamma                90
_cell_volume                     1788.56
loop_
_atom_site_label
_atom_site_type_symbol
_atom_site_fract_x
_atom_site_fract_y
_atom_site_fract_z
C1 C 0.30238(16) 0.0042(9) 0.2578(8)
C2 C 0.34076(19) 0.0208(11) 0.2104(10)
H1 H 0.3557 -0.0929 0.2293
C3 C 0.3548(2) 0.1917(12) 0.1419(11)
H2 H 0.3392 0.3025 0.1221
C4 C 0.3927(2) 0.2207(12) 0.0947(11)
C5 C 0.4198(2) 0.0822(14) 0.1369(12)
H3 H 0.4147 -0.0358 0.2024
C6 C 0.4546(2) 0.1171(16) 0.0827(15)
H4 H 0.4725 0.0204 0.1102
C7 C 0.4634(2) 0.2905(17) -0.0103(16)
H5 H 0.4869 0.3125 -0.0452
C8 C 0.4368(3) 0.4319(16) -0.0516(14)
H6 H 0.4424 0.5496 -0.1165
C9 C 0.4018(2) 0.4004(13) 0.0027(13)
H7 H 0.3843 0.4997 -0.0223
H8 H 0.279(2) 0.625(15) 0.118(15)
H9 H 0.282(3) 0.629(16) -0.038(16)
Mn1 Mn 0.2500 0.2500 0.0000
O1 O 0.28224(13) 0.1598(7) 0.2348(6)
O2 O 0.29107(13) -0.1665(7) 0.3144(7)
O3 O 0.27891(16) 0.5471(7) 0.0107(7)
C1F C 0.19762(16) 0.4958(9) -0.2578(8)
C2F C 0.15924(19) 0.4792(11) -0.2104(10)
H1F H 0.1443 0.5929 -0.2293
C3F C 0.1452(2) 0.3083(12) -0.1419(11)
H2F H 0.1608 0.1975 -0.1221
C4F C 0.1073(2) 0.2793(12) -0.0947(11)
C5F C 0.0802(2) 0.4178(14) -0.1369(12)
H3F H 0.0853 0.5358 -0.2024
C6F C 0.0454(2) 0.3829(16) -0.0827(15)
H4F H 0.0275 0.4796 -0.1102
C7F C 0.0366(2) 0.2095(17) 0.0103(16)
H5F H 0.0131 0.1875 0.0452
C8F C 0.0632(3) 0.0681(16) 0.0516(14)
H6F H 0.0576 -0.0496 0.1165
C9F C 0.0982(2) 0.0996(13) -0.0027(13)
H7F H 0.1157 0.0003 0.0223
H8F H 0.221(2) -0.125(15) -0.118(15)
H9F H 0.218(3) -0.129(16) 0.038(16)
Mn1C Mn 0.2500 -0.2500 0.5000
Mn1C_2 Mn 0.2500 0.7500 -0.5000
O1F O 0.21776(13) 0.3402(7) -0.2348(6)
O2F O 0.20893(13) 0.6665(7) -0.3144(7)
O2C O 0.20893(13) 0.3335(7) 0.1856(7)
O2E O 0.29107(13) 0.1665(7) -0.1856(7)
O3F O 0.22109(16) -0.0471(7) -0.0107(7)
loop_
_geom_bond_atom_site_label_1
_geom_bond_atom_site_label_2
_geom_bond_site_symmetry_1
_geom_bond_site_symmetry_2
C1 C2 1_555 1_555
C2 H1 1_555 1_555
C3 C2 1_555 1_555
H2 C3 1_555 1_555
C4 C3 1_555 1_555
C5 C4 1_555 1_555
H3 C5 1_555 1_555
C6 C5 1_555 1_555
H4 C6 1_555 1_555
C7 C6 1_555 1_555
H5 C7 1_555 1_555
C8 C7 1_555 1_555
H6 C8 1_555 1_555
C9 C4 1_555 1_555
H7 C9 1_555 1_555
H8 O3 1_555 1_555
H9 O3 1_555 1_555
Mn1 O1 1_555 1_555
O1 C1 1_555 1_555
O2 C1 1_555 1_555
O3 Mn1 1_555 1_555
C1F C2F 1_555 1_555
C2F H1F 1_555 1_555
C3F C2F 1_555 1_555
H2F C3F 1_555 1_555
C4F C3F 1_555 1_555
C5F C4F 1_555 1_555
H3F C5F 1_555 1_555
C6F C5F 1_555 1_555
H4F C6F 1_555 1_555
C7F C6F 1_555 1_555
H5F C7F 1_555 1_555
C8F C7F 1_555 1_555
H6F C8F 1_555 1_555
C9F C4F 1_555 1_555
H7F C9F 1_555 1_555
H8F O3F 1_555 1_555
H9F O3F 1_555 1_555
Mn1C O2 1_555 1_555
Mn1C_2 O2F 1_555 1_555
O1F Mn1 1_555 1_555
O2F C1F 1_555 1_555
O2C Mn1 1_555 1_555
O2E Mn1 1_555 1_555
O3F Mn1 1_555 1_555
C8 C9 1_555 1_555
C1F O1F 1_555 1_555
C8F C9F 1_555 1_555

#END
