
#######################################################################
#
#                 Cambridge Crystallographic Data Centre
#                                CCDC 
#
#######################################################################
#
# If this CIF has been generated from an entry in the Cambridge 
# Structural Database, then it will include bibliographic, chemical, 
# crystal, experimental, refinement or atomic coordinate data resulting 
# from the CCDC's data processing and validation procedures.
#
#######################################################################

data_GUJYOB01
_symmetry_cell_setting           orthorhombic
_symmetry_space_group_name_H-M   'P b c m'
_symmetry_Int_Tables_number      57
_space_group_name_Hall           '-P 2c 2b'
loop_
_symmetry_equiv_pos_site_id
_symmetry_equiv_pos_as_xyz
1 x,y,z
2 -x,-y,1/2+z
3 -x,1/2+y,1/2-z
4 x,1/2-y,-z
5 -x,-y,-z
6 x,y,1/2-z
7 x,1/2-y,1/2+z
8 -x,1/2+y,z
_cell_length_a                   7.2088(13)
_cell_length_b                   14.834(3)
_cell_length_c                   15.376(3)
_cell_angle_alpha                90
_cell_angle_beta                 90
_cell_angle_gamma                90
_cell_volume                     1644.24
loop_
_atom_site_label
_atom_site_type_symbol
_atom_site_fract_x
_atom_site_fract_y
_atom_site_fract_z
Co1 Co 0.11313(13) 0.38321(6) 0.2500
O1 O 0.1625(6) 0.8629(3) 0.2500
O2 O 0.7529(6) 0.7624(3) 0.2500
O3 O 0.0849(7) 0.5256(3) 0.2500
O4 O 0.3677(7) 0.4732(3) 0.2500
N1 N 0.4488(8) 0.8054(4) 0.2500
H1 H 0.495(11) 0.859(5) 0.2500
N2 N 0.1201(7) 0.3829(3) 0.3914(3)
C1 C 0.2600(9) 0.7918(4) 0.2500
C2 C 0.1990(10) 0.7032(5) 0.2500
H2 H 0.0728 0.6903 0.2500
C3 C 0.3281(9) 0.6341(4) 0.2500
C4 C 0.5182(9) 0.6493(5) 0.2500
H3 H 0.6012 0.6012 0.2500
C5 C 0.5825(9) 0.7386(5) 0.2500
C6 C 0.2562(10) 0.5391(5) 0.2500
C7 C 0.2752(11) 0.3827(7) 0.4359(5)
H4 H 0.3857 0.3832 0.4046
C8 C 0.2871(13) 0.3820(8) 0.5252(5)
H5 H 0.4021 0.3827 0.5526
C9 C 0.1289(13) 0.3801(7) 0.5723(5)
H6 H 0.1322 0.3801 0.6328
C10 C -0.0331(13) 0.3782(6) 0.5293(5)
H7 H -0.1442 0.3755 0.5599
C11 C -0.0343(10) 0.3804(5) 0.4394(5)
H8 H -0.1482 0.3802 0.4110
N2E N 0.1201(7) 0.3829(3) 0.1086(3)
C7E C 0.2752(11) 0.3827(7) 0.0641(5)
H4E H 0.3857 0.3832 0.0954
C8E C 0.2871(13) 0.3820(8) -0.0252(5)
H5E H 0.4021 0.3827 -0.0526
C9E C 0.1289(13) 0.3801(7) -0.0723(5)
H6E H 0.1322 0.3801 -0.1328
C10E C -0.0331(13) 0.3782(6) -0.0293(5)
H7E H -0.1442 0.3755 -0.0599
C11E C -0.0343(10) 0.3804(5) 0.0606(5)
H8E H -0.1482 0.3802 0.0890
Co1B Co -0.11313(13) 0.88321(6) 0.2500
Co1B_2 Co 0.88687(13) 0.88321(6) 0.2500
O1B O -0.1625(6) 0.3629(3) 0.2500
O2B O 0.2471(6) 0.2624(3) 0.2500
loop_
_geom_bond_atom_site_label_1
_geom_bond_atom_site_label_2
_geom_bond_site_symmetry_1
_geom_bond_site_symmetry_2
Co1 O3 1_555 1_555
O1 C1 1_555 1_555
O2 C5 1_555 1_555
O3 C6 1_555 1_555
O4 Co1 1_555 1_555
N1 H1 1_555 1_555
N2 Co1 1_555 1_555
C1 N1 1_555 1_555
C2 C1 1_555 1_555
H2 C2 1_555 1_555
C3 C2 1_555 1_555
C4 C3 1_555 1_555
H3 C4 1_555 1_555
C5 N1 1_555 1_555
C6 O4 1_555 1_555
C7 N2 1_555 1_555
H4 C7 1_555 1_555
C8 C7 1_555 1_555
H5 C8 1_555 1_555
C9 C8 1_555 1_555
H6 C9 1_555 1_555
C10 C9 1_555 1_555
H7 C10 1_555 1_555
C11 N2 1_555 1_555
H8 C11 1_555 1_555
N2E Co1 1_555 1_555
C7E N2E 1_555 1_555
H4E C7E 1_555 1_555
C8E C7E 1_555 1_555
H5E C8E 1_555 1_555
C9E C8E 1_555 1_555
H6E C9E 1_555 1_555
C10E C9E 1_555 1_555
H7E C10E 1_555 1_555
C11E N2E 1_555 1_555
H8E C11E 1_555 1_555
Co1B O1 1_555 1_555
Co1B_2 O2 1_555 1_555
O1B Co1 1_555 1_555
O2B Co1 1_555 1_555
C3 C6 1_555 1_555
C4 C5 1_555 1_555
C10 C11 1_555 1_555
C10E C11E 1_555 1_555

#END
