
#######################################################################
#
#                 Cambridge Crystallographic Data Centre
#                                CCDC 
#
#######################################################################
#
# If this CIF has been generated from an entry in the Cambridge 
# Structural Database, then it will include bibliographic, chemical, 
# crystal, experimental, refinement or atomic coordinate data resulting 
# from the CCDC's data processing and validation procedures.
#
#######################################################################

data_GUKCAS
_symmetry_cell_setting           triclinic
_symmetry_space_group_name_H-M   'P -1'
_symmetry_Int_Tables_number      2
_space_group_name_Hall           '-P 1'
loop_
_symmetry_equiv_pos_site_id
_symmetry_equiv_pos_as_xyz
1 x,y,z
2 -x,-y,-z
_cell_length_a                   8.6168(5)
_cell_length_b                   10.0838(6)
_cell_length_c                   12.9388(8)
_cell_angle_alpha                93.318(2)
_cell_angle_beta                 108.249(2)
_cell_angle_gamma                110.455(2)
_cell_volume                     982.543
loop_
_atom_site_label
_atom_site_type_symbol
_atom_site_fract_x
_atom_site_fract_y
_atom_site_fract_z
Cd1 Cd 0.85143(4) 0.07510(3) 0.90009(2)
C1 C 0.8877(6) -0.0548(5) 0.6810(3)
H1 H 0.9529 0.0426 0.6868
C2 C 0.8764(6) -0.1524(5) 0.5969(3)
H2 H 0.9313 -0.1209 0.5464
C3 C 0.7816(6) -0.2986(5) 0.5888(3)
C4 C 0.6988(7) -0.3396(5) 0.6648(4)
H3 H 0.6338 -0.4363 0.6615
C5 C 0.7142(7) -0.2352(5) 0.7451(4)
H4 H 0.6565 -0.2637 0.7948
C6 C 0.7689(7) -0.4084(5) 0.5039(4)
H5 H 0.7104 -0.5054 0.5037
C7 C 0.9105(7) -0.4603(5) 0.3001(4)
H6 H 0.9870 -0.3648 0.3107
C8 C 0.7918(5) -0.8091(5) 0.1151(3)
H7 H 0.7154 -0.9052 0.1014
C9 C 0.7930(5) -0.7134(5) 0.1971(3)
H8 H 0.7195 -0.7451 0.2377
C10 C 0.9059(6) -0.5694(5) 0.2177(3)
C11 C 1.0158(6) -0.5283(5) 0.1567(4)
H9 H 1.0940 -0.4330 0.1691
C12 C 1.0078(6) -0.6304(4) 0.0774(4)
H10 H 1.0833 -0.6021 0.0377
C13 C 0.5564(5) 0.1310(5) 0.8013(3)
C14 C 0.2148(5) 0.1992(4) 0.9363(3)
C15 C 0.4099(5) 0.2708(5) 0.9552(4)
H11 H 0.4671 0.2053 0.9812
H12 H 0.4627 0.3561 1.0127
C16 C 0.4447(6) 0.3140(5) 0.8508(4)
H13 H 0.5674 0.3794 0.8713
H14 H 0.3708 0.3651 0.8174
C17 C 0.4071(6) 0.1847(5) 0.7650(4)
H15 H 0.2958 0.1080 0.7575
H16 H 0.3968 0.2128 0.6935
N1 N 0.8081(5) -0.0947(4) 0.7551(3)
N2 N 0.8373(6) -0.3725(4) 0.4300(3)
N3 N 0.8110(6) -0.4948(4) 0.3571(3)
N4 N 0.8957(4) -0.7692(3) 0.0550(3)
O1 O 0.1046(4) 0.2356(3) 0.8679(2)
O2 O 0.5438(4) 0.0286(3) 0.8549(3)
O3 O 0.1640(4) 0.1048(3) 0.9931(2)
O4 O 0.6975(4) 0.1976(3) 0.7835(2)
Cd1_2 Cd -0.14857(4) 0.07510(3) 0.90009(2)
Cd1_3 Cd 0.85143(4) -0.92490(3) -0.09991(2)
Cd1A Cd 0.14857(4) -0.07510(3) 1.09991(2)
N4_2 N 0.8957(4) 0.2308(3) 1.0550(3)
O1_2 O 1.1046(4) 0.2356(3) 0.8679(2)
O3_2 O 1.1640(4) 0.1048(3) 0.9931(2)
O3A O 0.8360(4) -0.1048(3) 1.0069(2)
O5 O 0.6415(8) 0.2839(8) 0.5837(6)
C18 C 0.724(3) 0.167(2) 0.4648(19)
C19 C 0.576(2) 0.126(2) 0.5033(11)
loop_
_geom_bond_atom_site_label_1
_geom_bond_atom_site_label_2
_geom_bond_site_symmetry_1
_geom_bond_site_symmetry_2
Cd1 N1 1_555 1_555
C1 H1 1_555 1_555
C2 C1 1_555 1_555
H2 C2 1_555 1_555
C3 C2 1_555 1_555
C4 C3 1_555 1_555
H3 C4 1_555 1_555
C5 C4 1_555 1_555
H4 C5 1_555 1_555
C6 C3 1_555 1_555
H5 C6 1_555 1_555
C7 H6 1_555 1_555
C8 H7 1_555 1_555
C9 C8 1_555 1_555
H8 C9 1_555 1_555
C10 C7 1_555 1_555
C11 C10 1_555 1_555
H9 C11 1_555 1_555
C12 C11 1_555 1_555
H10 C12 1_555 1_555
C13 C17 1_555 1_555
C14 C15 1_555 1_555
C15 H11 1_555 1_555
H12 C15 1_555 1_555
C16 C15 1_555 1_555
H13 C16 1_555 1_555
H14 C16 1_555 1_555
C17 C16 1_555 1_555
H15 C17 1_555 1_555
H16 C17 1_555 1_555
N1 C1 1_555 1_555
N2 C6 1_555 1_555
N3 C7 1_555 1_555
N4 C8 1_555 1_555
O1 C14 1_555 1_555
O2 Cd1 1_555 1_555
O3 C14 1_555 1_555
O4 Cd1 1_555 1_555
O5 C19 1_555 1_555
C18 C19 1_555 1_555
Cd1_2 O1 1_555 1_555
Cd1_3 N4 1_555 1_555
Cd1A O3 1_555 1_555
N4_2 Cd1 1_555 1_555
O1_2 Cd1 1_555 1_555
O3_2 Cd1 1_555 1_555
O3A Cd1 1_555 1_555
C5 N1 1_555 1_555
C9 C10 1_555 1_555
C12 N4 1_555 1_555
C13 O2 1_555 1_555
C13 O4 1_555 1_555
N2 N3 1_555 1_555
O3 Cd1_2 1_555 1_555

#END
