
#######################################################################
#
#                 Cambridge Crystallographic Data Centre
#                                CCDC 
#
#######################################################################
#
# If this CIF has been generated from an entry in the Cambridge 
# Structural Database, then it will include bibliographic, chemical, 
# crystal, experimental, refinement or atomic coordinate data resulting 
# from the CCDC's data processing and validation procedures.
#
#######################################################################

data_GUKDUM
_symmetry_cell_setting           monoclinic
_symmetry_space_group_name_H-M   'P 21/n'
_symmetry_Int_Tables_number      14
_space_group_name_Hall           '-P 2yn'
loop_
_symmetry_equiv_pos_site_id
_symmetry_equiv_pos_as_xyz
1 x,y,z
2 1/2-x,1/2+y,1/2-z
3 -x,-y,-z
4 1/2+x,1/2-y,1/2+z
_cell_length_a                   10.4730(8)
_cell_length_b                   19.2211(14)
_cell_length_c                   17.7503(13)
_cell_angle_alpha                90
_cell_angle_beta                 99.7510(10)
_cell_angle_gamma                90
_cell_volume                     3521.56
loop_
_atom_site_label
_atom_site_type_symbol
_atom_site_fract_x
_atom_site_fract_y
_atom_site_fract_z
Cd1 Cd 0.34619(2) 0.181607(15) 0.618264(15)
S1 S -0.08656(11) 0.28498(10) 0.84390(8)
S2 S 0.78210(10) 0.08095(7) 0.38998(6)
O1 O 0.3450(4) 0.28774(19) 0.5564(2)
O2 O 0.3773(3) 0.07661(17) 0.68572(19)
N1 N 0.2083(3) 0.2246(2) 0.6964(2)
N2 N -0.4701(3) 0.2191(2) 0.7029(2)
N3 N 0.4849(3) 0.14763(18) 0.53481(19)
N4 N 1.1658(3) 0.13906(19) 0.53576(19)
N5 N 0.3283(6) 0.3882(2) 0.4924(3)
N6 N 0.3744(4) -0.0014(2) 0.7807(2)
C1 C 0.2321(4) 0.2178(3) 0.7723(2)
H1 H 0.3130 0.2014 0.7952
C2 C 0.1428(4) 0.2341(3) 0.8186(2)
H2 H 0.1622 0.2277 0.8712
C3 C 0.0241(4) 0.2601(2) 0.7846(2)
C4 C -0.0004(4) 0.2684(3) 0.7063(3)
H3 H -0.0793 0.2864 0.6822
C5 C 0.0923(4) 0.2500(2) 0.6647(2)
H4 H 0.0743 0.2554 0.6119
C6 C -0.3769(4) 0.1722(2) 0.7274(3)
H5 H -0.3928 0.1256 0.7153
C7 C -0.2602(5) 0.1902(3) 0.7695(3)
H6 H -0.1984 0.1564 0.7863
C8 C -0.2353(4) 0.2599(3) 0.7868(3)
C9 C -0.3290(5) 0.3081(3) 0.7619(3)
H7 H -0.3153 0.3551 0.7731
C10 C -0.4453(4) 0.2852(3) 0.7195(3)
H8 H -0.5087 0.3180 0.7020
C11 C 0.5940(4) 0.1840(2) 0.5351(2)
H9 H 0.6063 0.2240 0.5650
C12 C 0.6880(4) 0.1662(2) 0.4942(2)
H10 H 0.7629 0.1927 0.4972
C13 C 0.6693(3) 0.1071(2) 0.4477(2)
C14 C 0.5544(4) 0.0703(2) 0.4448(2)
H11 H 0.5372 0.0312 0.4139
C15 C 0.4672(4) 0.0928(2) 0.4886(2)
H12 H 0.3901 0.0681 0.4859
C16 C 1.1348(4) 0.1587(3) 0.4631(3)
H13 H 1.1947 0.1846 0.4419
C17 C 1.0194(4) 0.1427(3) 0.4180(2)
H14 H 1.0020 0.1576 0.3674
C18 C 0.9301(3) 0.1047(2) 0.4479(2)
C19 C 0.9609(4) 0.0830(2) 0.5234(2)
H15 H 0.9026 0.0564 0.5452
C20 C 1.0781(4) 0.1013(2) 0.5654(2)
H16 H 1.0977 0.0870 0.6161
C21 C 0.2820(6) 0.3339(3) 0.5208(3)
H17 H 0.1923 0.3297 0.5135
C22 C 0.4673(10) 0.3958(6) 0.4982(10)
H18 H 0.4977 0.4311 0.5351
H19 H 0.4874 0.4089 0.4493
H20 H 0.5088 0.3524 0.5140
C23 C 0.2442(10) 0.4410(5) 0.4526(6)
H21 H 0.1556 0.4268 0.4492
H22 H 0.2639 0.4472 0.4022
H23 H 0.2575 0.4841 0.4802
C24 C 0.3236(5) 0.0491(2) 0.7355(3)
H24 H 0.2420 0.0653 0.7411
C25 C 0.3012(8) -0.0328(4) 0.8349(4)
H25 H 0.2190 -0.0098 0.8314
H26 H 0.3489 -0.0279 0.8858
H27 H 0.2877 -0.0812 0.8231
C26 C 0.5029(7) -0.0280(4) 0.7763(4)
H28 H 0.4958 -0.0743 0.7557
H29 H 0.5542 -0.0288 0.8265
H30 H 0.5436 0.0016 0.7437
Cd1_2 Cd -0.65381(2) 0.181607(15) 0.618264(15)
Cd1_3 Cd 1.34619(2) 0.181607(15) 0.618264(15)
N2_2 N 0.5299(3) 0.2191(2) 0.7029(2)
N4_2 N 0.1658(3) 0.13906(19) 0.53576(19)
Cl1 Cl 0.37674(17) 0.14669(8) 0.98960(11)
O3 O 0.4265(7) 0.2077(4) 0.9754(6)
O4 O 0.2978(11) 0.1144(5) 0.9385(5)
O5 O 0.2852(14) 0.1741(6) 1.0368(12)
O6 O 0.4630(6) 0.1062(3) 1.0375(4)
Cl2 Cl 0.5919(3) 0.51114(9) 0.76984(15)
O7 O 0.6916(11) 0.5033(10) 0.8308(9)
O8 O 0.5069(8) 0.4679(5) 0.7868(7)
O9 O 0.5319(10) 0.5760(4) 0.7661(8)
O10 O 0.6518(12) 0.5008(7) 0.7162(6)
loop_
_geom_bond_atom_site_label_1
_geom_bond_atom_site_label_2
_geom_bond_site_symmetry_1
_geom_bond_site_symmetry_2
Cd1 O1 1_555 1_555
Cl1 O3 1_555 1_555
Cl2 O7 1_555 1_555
S1 C3 1_555 1_555
S2 C13 1_555 1_555
O1 C21 1_555 1_555
O2 Cd1 1_555 1_555
O4 Cl1 1_555 1_555
O5 Cl1 1_555 1_555
O6 Cl1 1_555 1_555
O8 Cl2 1_555 1_555
O9 Cl2 1_555 1_555
O10 Cl2 1_555 1_555
N1 Cd1 1_555 1_555
N2 C6 1_555 1_555
N3 Cd1 1_555 1_555
N4 C16 1_555 1_555
N5 C21 1_555 1_555
N6 C24 1_555 1_555
C1 N1 1_555 1_555
H1 C1 1_555 1_555
C2 C1 1_555 1_555
H2 C2 1_555 1_555
C3 C2 1_555 1_555
C4 C3 1_555 1_555
H3 C4 1_555 1_555
C5 N1 1_555 1_555
H4 C5 1_555 1_555
C6 H5 1_555 1_555
C7 C6 1_555 1_555
H6 C7 1_555 1_555
C8 S1 1_555 1_555
C9 C8 1_555 1_555
H7 C9 1_555 1_555
C10 N2 1_555 1_555
H8 C10 1_555 1_555
C11 N3 1_555 1_555
H9 C11 1_555 1_555
C12 C11 1_555 1_555
H10 C12 1_555 1_555
C13 C12 1_555 1_555
C14 C13 1_555 1_555
H11 C14 1_555 1_555
C15 N3 1_555 1_555
H12 C15 1_555 1_555
C16 H13 1_555 1_555
C17 C16 1_555 1_555
H14 C17 1_555 1_555
C18 S2 1_555 1_555
C19 C18 1_555 1_555
H15 C19 1_555 1_555
C20 N4 1_555 1_555
H16 C20 1_555 1_555
C21 H17 1_555 1_555
C22 N5 1_555 1_555
H18 C22 1_555 1_555
H19 C22 1_555 1_555
H20 C22 1_555 1_555
C23 N5 1_555 1_555
H21 C23 1_555 1_555
H22 C23 1_555 1_555
H23 C23 1_555 1_555
C24 O2 1_555 1_555
H24 C24 1_555 1_555
C25 N6 1_555 1_555
H25 C25 1_555 1_555
H26 C25 1_555 1_555
H27 C25 1_555 1_555
C26 N6 1_555 1_555
H28 C26 1_555 1_555
H29 C26 1_555 1_555
H30 C26 1_555 1_555
Cd1_2 N2 1_555 1_555
Cd1_3 N4 1_555 1_555
N2_2 Cd1 1_555 1_555
N4_2 Cd1 1_555 1_555
C4 C5 1_555 1_555
C7 C8 1_555 1_555
C9 C10 1_555 1_555
C14 C15 1_555 1_555
C17 C18 1_555 1_555
C19 C20 1_555 1_555

#END
