
#######################################################################
#
#                 Cambridge Crystallographic Data Centre
#                                CCDC 
#
#######################################################################
#
# If this CIF has been generated from an entry in the Cambridge 
# Structural Database, then it will include bibliographic, chemical, 
# crystal, experimental, refinement or atomic coordinate data resulting 
# from the CCDC's data processing and validation procedures.
#
#######################################################################

data_GUKDOG
_symmetry_cell_setting           triclinic
_symmetry_space_group_name_H-M   'P -1'
_symmetry_Int_Tables_number      2
_space_group_name_Hall           '-P 1'
loop_
_symmetry_equiv_pos_site_id
_symmetry_equiv_pos_as_xyz
1 x,y,z
2 -x,-y,-z
_cell_length_a                   11.2141(1)
_cell_length_b                   12.5092(1)
_cell_length_c                   17.2612(2)
_cell_angle_alpha                104.4338(4)
_cell_angle_beta                 100.1570(5)
_cell_angle_gamma                109.3781(5)
_cell_volume                     2121.32
loop_
_atom_site_label
_atom_site_type_symbol
_atom_site_fract_x
_atom_site_fract_y
_atom_site_fract_z
Cd1 Cd 0.87292(4) 0.28100(4) 0.15738(2)
Cd2 Cd 1.31330(4) 1.21569(3) 0.61530(2)
S1 S 1.25129(16) 0.63169(12) 0.55826(9)
S2 S 1.44195(17) 0.35568(19) 0.03961(10)
S3 S 0.24050(18) 0.1229(2) 0.19784(11)
O1 O 0.8577(5) 0.4544(4) 0.1284(3)
O2 O 0.7797(5) 0.2896(5) 0.0229(3)
O3 O 0.7887(8) 0.4567(6) 0.0043(4)
O4 O 0.8869(5) 0.1283(4) 0.2134(3)
O5 O 0.8100(5) 0.0555(5) 0.0811(3)
O6 O 0.8493(9) -0.0533(5) 0.1541(4)
O7 O 1.0877(4) 1.0929(4) 0.6024(4)
O8 O 1.1261(4) 1.2734(4) 0.6081(3)
O9 O 0.9311(5) 1.1552(6) 0.6030(5)
O10 O 1.5467(5) 1.3241(6) 0.6404(3)
O11 O 1.4283(6) 1.4292(4) 0.6440(4)
O12 O 1.6374(6) 1.5182(6) 0.6655(4)
N1 N 0.9896(5) 0.4024(4) 0.2959(3)
N2 N 1.3178(4) 1.0227(4) 0.5975(3)
N3 N 1.0625(5) 0.3105(4) 0.1147(3)
N4 N 1.3557(4) 0.2637(4) -0.2413(3)
N5 N 0.6564(5) 0.2281(5) 0.1674(3)
N6 N 0.2874(5) 0.1908(4) 0.4757(3)
N7 N 0.8101(6) 0.4010(6) 0.0506(4)
N8 N 0.8475(6) 0.0404(4) 0.1481(4)
N9 N 1.0456(5) 1.1732(5) 0.6032(4)
N10 N 1.5396(7) 1.4264(7) 0.6506(3)
C1 C 1.0592(6) 0.3636(5) 0.3455(4)
H1 H 1.0532 0.2853 0.3250
C2 C 1.1387(6) 0.4330(5) 0.4245(4)
H2 H 1.1856 0.4020 0.4561
C3 C 1.1487(5) 0.5479(4) 0.4565(3)
C4 C 1.0743(6) 0.5892(5) 0.4080(3)
H3 H 1.0758 0.6660 0.4285
C5 C 0.9971(6) 0.5134(5) 0.3277(3)
H4 H 0.9486 0.5420 0.2949
C6 C 1.2720(6) 0.9642(5) 0.6484(4)
H5 H 1.2542 1.0062 0.6945
C7 C 1.2503(6) 0.8468(5) 0.6365(4)
H6 H 1.2191 0.8105 0.6739
C8 C 1.2747(5) 0.7828(4) 0.5689(3)
C9 C 1.3214(5) 0.8399(5) 0.5153(3)
H7 H 1.3385 0.7987 0.4686
C10 C 1.3425(5) 0.9596(5) 0.5322(3)
H8 H 1.3755 0.9982 0.4963
C11 C 1.1757(7) 0.4052(6) 0.1555(4)
H9 H 1.1779 0.4624 0.2027
C12 C 1.2887(6) 0.4225(6) 0.1315(4)
H10 H 1.3646 0.4909 0.1614
C13 C 1.2903(6) 0.3399(5) 0.0641(3)
C14 C 1.1746(7) 0.2416(6) 0.0217(4)
H11 H 1.1715 0.1831 -0.0250
C15 C 1.0645(6) 0.2296(6) 0.0478(4)
H12 H 0.9873 0.1624 0.0179
C16 C 1.2831(6) 0.3098(5) -0.2001(3)
H13 H 1.2165 0.3242 -0.2306
C17 C 1.3019(6) 0.3368(5) -0.1156(4)
H14 H 1.2492 0.3685 -0.0898
C18 C 1.3996(5) 0.3161(5) -0.0702(3)
C19 C 1.4754(6) 0.2698(6) -0.1120(4)
H15 H 1.5434 0.2555 -0.0829
C20 C 1.4495(6) 0.2452(6) -0.1963(4)
H16 H 1.5011 0.2135 -0.2234
C21 C 0.5653(7) 0.1161(7) 0.1296(5)
H17 H 0.5873 0.0590 0.0963
C22 C 0.4381(7) 0.0824(8) 0.1388(5)
H18 H 0.3772 0.0037 0.1123
C23 C 0.4027(7) 0.1666(7) 0.1874(4)
C24 C 0.4958(7) 0.2823(7) 0.2223(4)
H19 H 0.4751 0.3427 0.2530
C25 C 0.6193(7) 0.3083(7) 0.2116(4)
H20 H 0.6811 0.3869 0.2369
C26 C 0.3909(6) 0.2361(8) 0.4493(4)
H21 H 0.4721 0.2822 0.4890
C27 C 0.3858(7) 0.2192(9) 0.3668(5)
H22 H 0.4619 0.2519 0.3517
C28 C 0.2648(6) 0.1521(6) 0.3060(4)
C29 C 0.1580(6) 0.1079(5) 0.3338(4)
H23 H 0.0746 0.0645 0.2961
C30 C 0.1743(6) 0.1278(6) 0.4180(4)
H24 H 0.1003 0.0944 0.4350
Cd2_2 Cd 1.31330(4) 0.21569(3) -0.38470(2)
Cd2_3 Cd 0.31330(4) 0.21569(3) 0.61530(2)
N4_2 N 1.3557(4) 1.2637(4) 0.7587(3)
N6_2 N 1.2874(5) 1.1908(4) 0.4757(3)
C31 C 1.2198(19) 0.7364(14) 0.2467(14)
H25 H 1.2630 0.6858 0.2235
H26 H 1.1760 0.7055 0.2849
Cl1 Cl 1.3272(10) 0.8891(9) 0.2919(6)
Cl2 Cl 1.1146(15) 0.7579(11) 0.1699(8)
loop_
_geom_bond_atom_site_label_1
_geom_bond_atom_site_label_2
_geom_bond_site_symmetry_1
_geom_bond_site_symmetry_2
Cd1 O1 1_555 1_555
Cd2 O7 1_555 1_555
S1 C3 1_555 1_555
S2 C13 1_555 1_555
S3 C23 1_555 1_555
O1 N7 1_555 1_555
O2 Cd1 1_555 1_555
O3 N7 1_555 1_555
O4 Cd1 1_555 1_555
O5 Cd1 1_555 1_555
O6 N8 1_555 1_555
O7 N9 1_555 1_555
O8 Cd2 1_555 1_555
O9 N9 1_555 1_555
O10 Cd2 1_555 1_555
O11 Cd2 1_555 1_555
O12 N10 1_555 1_555
N1 Cd1 1_555 1_555
N2 Cd2 1_555 1_555
N3 Cd1 1_555 1_555
N4 C16 1_555 1_555
N5 Cd1 1_555 1_555
N6 C26 1_555 1_555
N7 O2 1_555 1_555
N8 O4 1_555 1_555
N9 O8 1_555 1_555
N10 O10 1_555 1_555
C1 N1 1_555 1_555
H1 C1 1_555 1_555
C2 C1 1_555 1_555
H2 C2 1_555 1_555
C3 C2 1_555 1_555
C4 C3 1_555 1_555
H3 C4 1_555 1_555
C5 N1 1_555 1_555
H4 C5 1_555 1_555
C6 N2 1_555 1_555
H5 C6 1_555 1_555
C7 C6 1_555 1_555
H6 C7 1_555 1_555
C8 S1 1_555 1_555
C9 C8 1_555 1_555
H7 C9 1_555 1_555
C10 N2 1_555 1_555
H8 C10 1_555 1_555
C11 N3 1_555 1_555
H9 C11 1_555 1_555
C12 C11 1_555 1_555
H10 C12 1_555 1_555
C13 C12 1_555 1_555
C14 C13 1_555 1_555
H11 C14 1_555 1_555
C15 N3 1_555 1_555
H12 C15 1_555 1_555
C16 H13 1_555 1_555
C17 C16 1_555 1_555
H14 C17 1_555 1_555
C18 S2 1_555 1_555
C19 C18 1_555 1_555
H15 C19 1_555 1_555
C20 N4 1_555 1_555
H16 C20 1_555 1_555
C21 N5 1_555 1_555
H17 C21 1_555 1_555
C22 C21 1_555 1_555
H18 C22 1_555 1_555
C23 C22 1_555 1_555
C24 C23 1_555 1_555
H19 C24 1_555 1_555
C25 N5 1_555 1_555
H20 C25 1_555 1_555
C26 H21 1_555 1_555
C27 C26 1_555 1_555
H22 C27 1_555 1_555
C28 S3 1_555 1_555
C29 C28 1_555 1_555
H23 C29 1_555 1_555
C30 N6 1_555 1_555
H24 C30 1_555 1_555
C31 H25 1_555 1_555
H26 C31 1_555 1_555
Cl1 C31 1_555 1_555
Cl2 C31 1_555 1_555
Cd2_2 N4 1_555 1_555
Cd2_3 N6 1_555 1_555
N4_2 Cd2 1_555 1_555
N6_2 Cd2 1_555 1_555
O5 N8 1_555 1_555
O11 N10 1_555 1_555
C4 C5 1_555 1_555
C7 C8 1_555 1_555
C9 C10 1_555 1_555
C14 C15 1_555 1_555
C17 C18 1_555 1_555
C19 C20 1_555 1_555
C24 C25 1_555 1_555
C27 C28 1_555 1_555
C29 C30 1_555 1_555

#END
