
#######################################################################
#
#                 Cambridge Crystallographic Data Centre
#                                CCDC 
#
#######################################################################
#
# If this CIF has been generated from an entry in the Cambridge 
# Structural Database, then it will include bibliographic, chemical, 
# crystal, experimental, refinement or atomic coordinate data resulting 
# from the CCDC's data processing and validation procedures.
#
#######################################################################

data_GUKFAU
_symmetry_cell_setting           monoclinic
_symmetry_space_group_name_H-M   'P 21/n'
_symmetry_Int_Tables_number      14
_space_group_name_Hall           '-P 2yn'
loop_
_symmetry_equiv_pos_site_id
_symmetry_equiv_pos_as_xyz
1 x,y,z
2 1/2-x,1/2+y,1/2-z
3 -x,-y,-z
4 1/2+x,1/2-y,1/2+z
_cell_length_a                   10.82720(10)
_cell_length_b                   17.2375(2)
_cell_length_c                   19.3098(2)
_cell_angle_alpha                90
_cell_angle_beta                 92.1574(6)
_cell_angle_gamma                90
_cell_volume                     3601.31
loop_
_atom_site_label
_atom_site_type_symbol
_atom_site_fract_x
_atom_site_fract_y
_atom_site_fract_z
Cd1 Cd 0.39238(2) 0.235434(17) 0.664900(13)
S1 S 0.66683(10) 0.02258(6) 0.41149(5)
S2 S 0.15180(10) 0.49261(6) 0.42291(5)
N1 N 0.4864(3) 0.16456(18) 0.57795(15)
N2 N 0.7990(3) 0.18489(18) 0.24492(15)
N3 N 0.3181(3) 0.32116(19) 0.57916(15)
N4 N -0.0245(3) 0.34226(19) 0.25239(15)
N5 N 0.5725(3) 0.3195(2) 0.67682(18)
N6 N 0.2111(3) 0.1597(2) 0.64686(17)
C1 C 0.4277(4) 0.1542(2) 0.51648(18)
H1 H 0.3479 0.1761 0.5087
C2 C 0.4803(4) 0.1121(2) 0.46351(18)
H2 H 0.4368 0.1054 0.4203
C3 C 0.5971(4) 0.0803(2) 0.47475(18)
C4 C 0.6554(4) 0.0901(2) 0.53926(19)
H3 H 0.7347 0.0682 0.5490
C5 C 0.5970(4) 0.1318(2) 0.58889(18)
H4 H 0.6372 0.1376 0.6332
C6 C 0.8051(3) 0.1075(2) 0.24009(17)
H5 H 0.8409 0.0854 0.2005
C7 C 0.7620(3) 0.0587(2) 0.28975(17)
H6 H 0.7674 0.0041 0.2842
C8 C 0.7103(3) 0.0899(2) 0.34825(17)
C9 C 0.7011(4) 0.1695(2) 0.35328(18)
H7 H 0.6646 0.1928 0.3922
C10 C 0.7458(4) 0.2147(2) 0.30092(19)
H8 H 0.7387 0.2695 0.3045
C11 C 0.3871(4) 0.3531(2) 0.53019(19)
H9 H 0.4721 0.3395 0.5292
C12 C 0.3401(4) 0.4048(2) 0.48135(19)
H10 H 0.3913 0.4261 0.4473
C13 C 0.2167(4) 0.4248(2) 0.48316(18)
C14 C 0.1442(4) 0.3931(2) 0.53374(18)
H11 H 0.0595 0.4067 0.5364
C15 C 0.1985(4) 0.3411(2) 0.57998(19)
H12 H 0.1487 0.3184 0.6140
C16 C 0.0259(4) 0.3094(2) 0.30925(19)
H13 H 0.0244 0.2545 0.3127
C17 C 0.0807(4) 0.3513(2) 0.36382(18)
H14 H 0.1162 0.3255 0.4032
C18 C 0.0823(3) 0.4313(2) 0.35946(18)
C19 C 0.0261(4) 0.4663(2) 0.30137(19)
H15 H 0.0228 0.5213 0.2974
C20 C -0.0245(4) 0.4197(2) 0.24975(19)
H16 H -0.0616 0.4441 0.2100
C21 C 0.6110(4) 0.3756(3) 0.6992(2)
C22 C 0.6563(5) 0.4485(3) 0.7278(3)
H17 H 0.6674 0.4438 0.7782
H18 H 0.5965 0.4897 0.7166
H19 H 0.7357 0.4612 0.7078
C23 C 0.1277(4) 0.1236(2) 0.63101(19)
C24 C 0.0204(4) 0.0758(3) 0.6111(3)
H20 H 0.0384 0.0214 0.6220
H21 H 0.0021 0.0813 0.5613
H22 H -0.0511 0.0929 0.6368
Cd1C Cd 0.89238(2) 0.264566(17) 0.164900(13)
Cd1C_2 Cd -0.10762(2) 0.264566(17) 0.164900(13)
N2C N 0.2990(3) 0.31511(18) 0.74492(15)
N4C N 0.4755(3) 0.15774(19) 0.75239(15)
Cl1 Cl 0.10985(11) 0.13276(6) 0.42400(6)
O1 O 0.1528(3) 0.06286(19) 0.45487(18)
O2 O 0.0101(5) 0.1234(3) 0.3796(3)
O3 O 0.1091(5) 0.1929(2) 0.4714(2)
O4 O 0.2069(5) 0.1580(4) 0.3781(3)
Cl2 Cl 0.65391(11) 0.41930(6) 0.37589(6)
O5 O 0.6082(3) 0.35205(18) 0.41088(15)
O6 O 0.7762(4) 0.4363(3) 0.4039(2)
O7 O 0.6585(5) 0.4031(2) 0.30331(17)
O8 O 0.5744(3) 0.48391(19) 0.38625(17)
N7 N 0.4146(5) 0.1797(4) 0.1489(3)
C25 C 0.3765(5) 0.1957(4) 0.0959(4)
C26 C 0.3279(7) 0.2152(4) 0.0251(4)
H23 H 0.2431 0.2346 0.0275
H24 H 0.3286 0.1687 -0.0040
H25 H 0.3800 0.2553 0.0051
N8 N 0.2992(4) 0.3725(3) 0.2250(2)
C27 C 0.3407(4) 0.3265(3) 0.2598(3)
C28 C 0.3941(6) 0.2675(4) 0.3055(3)
H26 H 0.4424 0.2311 0.2785
H27 H 0.3278 0.2394 0.3279
H28 H 0.4480 0.2922 0.3409
loop_
_geom_bond_atom_site_label_1
_geom_bond_atom_site_label_2
_geom_bond_site_symmetry_1
_geom_bond_site_symmetry_2
Cd1 N1 1_555 1_555
S1 C3 1_555 1_555
S2 C13 1_555 1_555
N1 C1 1_555 1_555
N2 C6 1_555 1_555
N3 Cd1 1_555 1_555
N4 C16 1_555 1_555
N5 Cd1 1_555 1_555
N6 Cd1 1_555 1_555
C1 H1 1_555 1_555
C2 C1 1_555 1_555
H2 C2 1_555 1_555
C3 C2 1_555 1_555
C4 C3 1_555 1_555
H3 C4 1_555 1_555
C5 N1 1_555 1_555
H4 C5 1_555 1_555
C6 H5 1_555 1_555
C7 C6 1_555 1_555
H6 C7 1_555 1_555
C8 S1 1_555 1_555
C9 C8 1_555 1_555
H7 C9 1_555 1_555
C10 N2 1_555 1_555
H8 C10 1_555 1_555
C11 N3 1_555 1_555
H9 C11 1_555 1_555
C12 C11 1_555 1_555
H10 C12 1_555 1_555
C13 C12 1_555 1_555
C14 C13 1_555 1_555
H11 C14 1_555 1_555
C15 N3 1_555 1_555
H12 C15 1_555 1_555
C16 H13 1_555 1_555
C17 C16 1_555 1_555
H14 C17 1_555 1_555
C18 S2 1_555 1_555
C19 C18 1_555 1_555
H15 C19 1_555 1_555
C20 N4 1_555 1_555
H16 C20 1_555 1_555
C21 N5 1_555 1_555
C22 C21 1_555 1_555
H17 C22 1_555 1_555
H18 C22 1_555 1_555
H19 C22 1_555 1_555
C23 N6 1_555 1_555
C24 C23 1_555 1_555
H20 C24 1_555 1_555
H21 C24 1_555 1_555
H22 C24 1_555 1_555
Cl1 O1 1_555 1_555
O2 Cl1 1_555 1_555
O3 Cl1 1_555 1_555
O4 Cl1 1_555 1_555
Cl2 O5 1_555 1_555
O6 Cl2 1_555 1_555
O7 Cl2 1_555 1_555
O8 Cl2 1_555 1_555
N7 C25 1_555 1_555
C25 C26 1_555 1_555
C26 H23 1_555 1_555
H24 C26 1_555 1_555
H25 C26 1_555 1_555
N8 C27 1_555 1_555
C27 C28 1_555 1_555
C28 H26 1_555 1_555
H27 C28 1_555 1_555
H28 C28 1_555 1_555
Cd1C N2 1_555 1_555
Cd1C_2 N4 1_555 1_555
N2C Cd1 1_555 1_555
N4C Cd1 1_555 1_555
C4 C5 1_555 1_555
C7 C8 1_555 1_555
C9 C10 1_555 1_555
C14 C15 1_555 1_555
C17 C18 1_555 1_555
C19 C20 1_555 1_555

#END
