
#######################################################################
#
#                 Cambridge Crystallographic Data Centre
#                                CCDC 
#
#######################################################################
#
# If this CIF has been generated from an entry in the Cambridge 
# Structural Database, then it will include bibliographic, chemical, 
# crystal, experimental, refinement or atomic coordinate data resulting 
# from the CCDC's data processing and validation procedures.
#
#######################################################################

data_GUKLOO
_symmetry_cell_setting           monoclinic
_symmetry_space_group_name_H-M   'P 21/c'
_symmetry_Int_Tables_number      14
_space_group_name_Hall           '-P 2ybc'
loop_
_symmetry_equiv_pos_site_id
_symmetry_equiv_pos_as_xyz
1 x,y,z
2 -x,1/2+y,1/2-z
3 -x,-y,-z
4 x,1/2-y,1/2+z
_cell_length_a                   15.225(7)
_cell_length_b                   11.073(5)
_cell_length_c                   6.998(3)
_cell_angle_alpha                90
_cell_angle_beta                 91.681(9)
_cell_angle_gamma                90
_cell_volume                     1179.26
loop_
_atom_site_label
_atom_site_type_symbol
_atom_site_fract_x
_atom_site_fract_y
_atom_site_fract_z
Ag1 Ag 0.75056(9) 0.41956(10) 0.8482(2)
Ag2 Ag 0.88875(10) 0.41007(11) 0.3193(2)
Ag3 Ag 0.61148(10) 0.40878(11) 0.3264(2)
S1 S 0.7522(2) 0.4713(3) 0.4843(5)
S2 S 0.8930(2) 0.3132(3) 0.9578(5)
S3 S 0.6109(2) 0.3152(3) 0.9591(5)
C1 C 0.6806(10) 0.8222(15) 0.493(2)
H1 H 0.6282 0.8644 0.5046
C2 C 0.6783(10) 0.6980(13) 0.504(2)
H2 H 0.6255 0.6588 0.5249
C3 C 0.7527(9) 0.6329(12) 0.4837(19)
C4 C 0.8289(10) 0.6943(13) 0.465(2)
H3 H 0.8820 0.6532 0.4599
C5 C 0.8267(11) 0.8201(15) 0.454(2)
H4 H 0.8791 0.8612 0.4372
C6 C 0.9559(10) 0.4029(11) 0.832(2)
C7 C 0.5454(10) 0.4052(12) 0.830(2)
N1 N 0.7527(10) 0.8844(10) 0.4660(17)
N2 N 0.9985(9) 0.4671(13) 0.7474(19)
N3 N 0.4997(9) 0.4701(13) 0.7444(19)
Ag1C Ag 0.75056(9) 1.08044(10) 0.3482(2)
Ag2C Ag 0.88875(10) 0.08993(11) 0.8193(2)
Ag2_2 Ag 0.88875(10) 0.41007(11) 1.3193(2)
Ag2B Ag 1.11125(10) 0.58993(11) 0.6807(2)
Ag3C Ag 0.61148(10) 0.09122(11) 0.8264(2)
Ag3_2 Ag 0.61148(10) 0.40878(11) 1.3264(2)
Ag3B Ag 0.38852(10) 0.59122(11) 0.6736(2)
S2C S 0.8930(2) 0.1868(3) 0.4578(5)
S2_2 S 0.8930(2) 0.3132(3) -0.0422(5)
S3C S 0.6109(2) 0.1848(3) 0.4591(5)
S3_2 S 0.6109(2) 0.3152(3) -0.0409(5)
N1C N 0.7527(10) 0.6156(10) 0.9660(17)
N2B N 1.0015(9) 0.5329(13) 0.2526(19)
N3B N 0.5003(9) 0.5299(13) 0.2556(19)
loop_
_geom_bond_atom_site_label_1
_geom_bond_atom_site_label_2
_geom_bond_site_symmetry_1
_geom_bond_site_symmetry_2
Ag1 S1 1_555 1_555
Ag2 S1 1_555 1_555
Ag3 S1 1_555 1_555
S1 C3 1_555 1_555
S2 Ag1 1_555 1_555
S3 Ag1 1_555 1_555
C1 H1 1_555 1_555
C2 C1 1_555 1_555
H2 C2 1_555 1_555
C3 C2 1_555 1_555
C4 C3 1_555 1_555
H3 C4 1_555 1_555
C5 C4 1_555 1_555
H4 C5 1_555 1_555
C6 S2 1_555 1_555
C7 S3 1_555 1_555
N1 C1 1_555 1_555
N2 C6 1_555 1_555
N3 C7 1_555 1_555
Ag1C N1 1_555 1_555
Ag2C S2 1_555 1_555
Ag2_2 S2 1_555 1_555
Ag2B N2 1_555 1_555
Ag3C S3 1_555 1_555
Ag3_2 S3 1_555 1_555
Ag3B N3 1_555 1_555
S2C Ag2 1_555 1_555
S2_2 Ag2 1_555 1_555
S3C Ag3 1_555 1_555
S3_2 Ag3 1_555 1_555
N1C Ag1 1_555 1_555
N2B Ag2 1_555 1_555
N3B Ag3 1_555 1_555
C5 N1 1_555 1_555
Ag2C S2C 1_555 1_555
Ag3C S3C 1_555 1_555

#END
