
#######################################################################
#
#                 Cambridge Crystallographic Data Centre
#                                CCDC 
#
#######################################################################
#
# If this CIF has been generated from an entry in the Cambridge 
# Structural Database, then it will include bibliographic, chemical, 
# crystal, experimental, refinement or atomic coordinate data resulting 
# from the CCDC's data processing and validation procedures.
#
#######################################################################

data_GUKMAB
_symmetry_cell_setting           triclinic
_symmetry_space_group_name_H-M   'P -1'
_symmetry_Int_Tables_number      2
_space_group_name_Hall           '-P 1'
loop_
_symmetry_equiv_pos_site_id
_symmetry_equiv_pos_as_xyz
1 x,y,z
2 -x,-y,-z
_cell_length_a                   7.5212(8)
_cell_length_b                   13.0190(13)
_cell_length_c                   17.3597(18)
_cell_angle_alpha                97.267(2)
_cell_angle_beta                 92.055(2)
_cell_angle_gamma                100.4360(10)
_cell_volume                     1655.28
loop_
_atom_site_label
_atom_site_type_symbol
_atom_site_fract_x
_atom_site_fract_y
_atom_site_fract_z
Gd1 Gd 1.62598(5) -0.79622(2) -0.98014(2)
Ag1 Ag 1.72862(10) -0.94101(5) -1.47475(4)
Ag2 Ag 1.29170(9) -0.50651(6) -0.53738(4)
O1 O 1.4879(6) -0.9250(3) -1.0820(3)
O2 O 1.4438(6) -1.0962(3) -1.1176(3)
O3 O 2.0227(7) -1.0328(4) -1.8580(3)
O4 O 2.1201(6) -0.8597(3) -1.8329(3)
O5 O 0.9540(7) -0.4682(4) -0.1608(3)
O6 O 0.9065(7) -0.6429(4) -0.1880(3)
O7 O 1.6120(8) -0.4734(4) -0.9155(3)
O8 O 1.6016(6) -0.6420(3) -0.9077(3)
N1 N 1.6441(8) -0.9602(5) -1.3610(4)
N2 N 1.8459(9) -0.9407(5) -1.5849(4)
N3 N 1.1763(8) -0.5232(5) -0.4284(4)
N4 N 1.3757(8) -0.5192(5) -0.6532(4)
C1 C 1.6439(10) -0.8788(6) -1.3067(5)
H1 H 1.6805 -0.8114 -1.3197
C2 C 1.5934(10) -0.8882(5) -1.2329(4)
H2 H 1.5966 -0.8284 -1.1970
C3 C 1.5375(8) -0.9870(5) -1.2122(4)
C4 C 1.5384(9) -1.0724(5) -1.2677(4)
H3 H 1.5036 -1.1406 -1.2559
C5 C 1.5910(10) -1.0559(6) -1.3402(5)
H4 H 1.5898 -1.1143 -1.3772
C6 C 1.4868(9) -1.0035(5) -1.1311(4)
C7 C 1.9111(12) -0.8526(7) -1.6149(6)
H5 H 1.9140 -0.7882 -1.5843
C8 C 1.9737(10) -0.8515(5) -1.6878(5)
H6 H 2.0166 -0.7878 -1.7058
C9 C 1.9727(9) -0.9451(5) -1.7344(4)
C10 C 1.9085(11) -1.0346(5) -1.7035(5)
H7 H 1.9074 -1.0998 -1.7326
C11 C 1.8457(11) -1.0306(6) -1.6308(5)
H8 H 1.8007 -1.0937 -1.6124
C12 C 2.0439(9) -0.9459(5) -1.8163(4)
C13 C 1.1079(11) -0.6165(6) -0.4070(5)
H9 H 1.1062 -0.6767 -0.4423
C14 C 1.0402(10) -0.6283(6) -0.3358(5)
H10 H 0.9974 -0.6956 -0.3237
C15 C 1.0345(9) -0.5422(5) -0.2822(4)
C16 C 1.1043(10) -0.4449(6) -0.3046(5)
H11 H 1.1045 -0.3834 -0.2709
C17 C 1.1730(11) -0.4395(6) -0.3764(5)
H12 H 1.2201 -0.3733 -0.3895
C18 C 0.9588(9) -0.5519(6) -0.2038(4)
C19 C 1.3676(10) -0.6137(6) -0.6950(5)
H13 H 1.3191 -0.6734 -0.6730
C20 C 1.4273(10) -0.6272(5) -0.7690(5)
H14 H 1.4190 -0.6948 -0.7955
C21 C 1.5000(9) -0.5403(5) -0.8039(4)
C22 C 1.5048(9) -0.4421(5) -0.7610(4)
H15 H 1.5506 -0.3811 -0.7820
C23 C 1.4425(10) -0.4357(6) -0.6884(5)
H16 H 1.4463 -0.3689 -0.6613
C24 C 1.5763(9) -0.5509(5) -0.8820(4)
O11 O 1.3008(6) -0.8099(4) -0.9602(3)
H20 H 1.249(9) -0.835(5) -0.921(3)
H21 H 1.232(8) -0.798(6) -0.996(3)
O12 O 1.8251(7) -0.9270(4) -1.0009(3)
H22 H 1.892(9) -0.932(5) -1.040(3)
H23 H 1.783(10) -0.985(3) -0.986(4)
O13 O 1.5003(6) -0.7094(3) -1.0778(3)
H24 H 1.403(6) -0.745(4) -1.102(4)
H25 H 1.499(8) -0.6428(18) -1.068(4)
O14 O 1.8632(6) -0.7103(4) -1.0479(3)
H26 H 1.967(5) -0.680(5) -1.027(4)
H27 H 1.839(9) -0.689(6) -1.091(2)
O15 O 1.8779(6) -0.7413(3) -0.8826(3)
H28 H 1.919(8) -0.6766(18) -0.868(4)
H29 H 1.947(8) -0.783(4) -0.871(4)
Gd1A Gd 1.37402(5) -1.20378(2) -1.01986(2)
O2A O 1.5562(6) -0.9038(3) -0.8824(3)
O9 O 1.3241(11) -1.2729(5) -0.5252(4)
O10 O 1.5503(11) -1.3110(6) -0.4728(5)
C25 C 1.4821(12) -1.2564(6) -0.5058(5)
C26 C 1.5769(10) -1.1733(5) -0.5251(4)
H17 H 1.7007 -1.1677 -0.5067
H18 H 1.5315 -1.1128 -0.5023
H19 H 1.5700 -1.1768 -0.5807
O16 O 1.1811(7) -0.6122(4) -0.9744(3)
H30 H 1.255(9) -0.575(4) -1.001(4)
H31 H 1.141(9) -0.576(5) -0.937(3)
O17 O 1.1764(7) -0.7702(4) -1.1576(4)
H32 H 1.115(10) -0.828(3) -1.150(5)
H33 H 1.256(5) -0.765(6) -1.189(2)
loop_
_geom_bond_atom_site_label_1
_geom_bond_atom_site_label_2
_geom_bond_site_symmetry_1
_geom_bond_site_symmetry_2
Gd1 O1 1_555 1_555
Ag1 N1 1_555 1_555
Ag2 N3 1_555 1_555
O1 C6 1_555 1_555
O2 C6 1_555 1_555
O3 C12 1_555 1_555
O4 C12 1_555 1_555
O5 C18 1_555 1_555
O6 C18 1_555 1_555
O7 C24 1_555 1_555
O8 Gd1 1_555 1_555
O9 C25 1_555 1_555
O10 C25 1_555 1_555
N1 C1 1_555 1_555
N2 Ag1 1_555 1_555
N3 C13 1_555 1_555
N4 Ag2 1_555 1_555
C1 H1 1_555 1_555
C2 C1 1_555 1_555
H2 C2 1_555 1_555
C3 C2 1_555 1_555
C4 C3 1_555 1_555
H3 C4 1_555 1_555
C5 N1 1_555 1_555
H4 C5 1_555 1_555
C6 C3 1_555 1_555
C7 N2 1_555 1_555
H5 C7 1_555 1_555
C8 C7 1_555 1_555
H6 C8 1_555 1_555
C9 C8 1_555 1_555
C10 C9 1_555 1_555
H7 C10 1_555 1_555
C11 N2 1_555 1_555
H8 C11 1_555 1_555
C12 C9 1_555 1_555
C13 H9 1_555 1_555
C14 C13 1_555 1_555
H10 C14 1_555 1_555
C15 C14 1_555 1_555
C16 C15 1_555 1_555
H11 C16 1_555 1_555
C17 N3 1_555 1_555
H12 C17 1_555 1_555
C18 C15 1_555 1_555
C19 N4 1_555 1_555
H13 C19 1_555 1_555
C20 C19 1_555 1_555
H14 C20 1_555 1_555
C21 C20 1_555 1_555
C22 C21 1_555 1_555
H15 C22 1_555 1_555
C23 N4 1_555 1_555
H16 C23 1_555 1_555
C24 O8 1_555 1_555
C25 C26 1_555 1_555
C26 H17 1_555 1_555
H18 C26 1_555 1_555
H19 C26 1_555 1_555
O11 Gd1 1_555 1_555
H20 O11 1_555 1_555
H21 O11 1_555 1_555
O12 Gd1 1_555 1_555
H22 O12 1_555 1_555
H23 O12 1_555 1_555
O13 Gd1 1_555 1_555
H24 O13 1_555 1_555
H25 O13 1_555 1_555
O14 Gd1 1_555 1_555
H26 O14 1_555 1_555
H27 O14 1_555 1_555
O15 Gd1 1_555 1_555
H28 O15 1_555 1_555
H29 O15 1_555 1_555
O16 H30 1_555 1_555
H31 O16 1_555 1_555
O17 H32 1_555 1_555
H33 O17 1_555 1_555
Gd1A O2 1_555 1_555
O2A Gd1 1_555 1_555
C4 C5 1_555 1_555
C10 C11 1_555 1_555
C16 C17 1_555 1_555
C21 C24 1_555 1_555
C22 C23 1_555 1_555

#END
