
#######################################################################
#
#                 Cambridge Crystallographic Data Centre
#                                CCDC 
#
#######################################################################
#
# If this CIF has been generated from an entry in the Cambridge 
# Structural Database, then it will include bibliographic, chemical, 
# crystal, experimental, refinement or atomic coordinate data resulting 
# from the CCDC's data processing and validation procedures.
#
#######################################################################

data_GUKNAC
_symmetry_cell_setting           monoclinic
_symmetry_space_group_name_H-M   'P 21/c'
_symmetry_Int_Tables_number      14
_space_group_name_Hall           '-P 2ybc'
loop_
_symmetry_equiv_pos_site_id
_symmetry_equiv_pos_as_xyz
1 x,y,z
2 -x,1/2+y,1/2-z
3 -x,-y,-z
4 x,1/2-y,1/2+z
_cell_length_a                   12.659(3)
_cell_length_b                   12.462(3)
_cell_length_c                   12.415(3)
_cell_angle_alpha                90
_cell_angle_beta                 111.919(3)
_cell_angle_gamma                90
_cell_volume                     1816.97
loop_
_atom_site_label
_atom_site_type_symbol
_atom_site_fract_x
_atom_site_fract_y
_atom_site_fract_z
Sb1 Sb 0.630712(14) 0.199432(15) 0.263314(15)
Sb2 Sb 0.640902(15) 0.504231(13) 0.267347(15)
Mn1 Mn 0.36403(3) 0.30148(4) 0.22575(4)
Mn2 Mn 0.49876(3) 0.14896(3) 0.49498(3)
S1 S 0.56122(6) 0.30282(5) 0.38699(6)
S2 S 0.44920(6) 0.18815(6) 0.10490(6)
S3 S 0.70015(6) 0.35131(5) 0.17066(6)
S4 S 0.44555(6) 0.49313(5) 0.12685(6)
S5 S 0.69723(6) 0.64670(5) 0.16652(6)
N1 N 0.25749(18) 0.42201(17) 0.27431(19)
N2 N 0.18916(19) 0.29311(19) 0.0842(2)
C1 C 0.2914(3) 0.4875(2) 0.3653(3)
H1 H 0.3676 0.4868 0.4146
C2 C 0.2172(3) 0.5575(3) 0.3899(3)
H2 H 0.2442 0.6029 0.4539
C3 C 0.1046(3) 0.5591(3) 0.3194(3)
H3 H 0.0546 0.6056 0.3350
C4 C 0.0649(3) 0.4902(2) 0.2232(3)
C5 C 0.1454(2) 0.4234(2) 0.2033(2)
C6 C -0.0526(3) 0.4839(3) 0.1479(3)
H4 H -0.1055 0.5292 0.1601
C7 C -0.0870(2) 0.4134(3) 0.0598(3)
H5 H -0.1640 0.4091 0.0134
C8 C -0.0079(2) 0.3447(2) 0.0358(3)
C9 C 0.1085(2) 0.3519(2) 0.1051(2)
C10 C -0.0387(3) 0.2719(3) -0.0571(3)
H6 H -0.1149 0.2632 -0.1045
C11 C 0.0430(3) 0.2139(3) -0.0779(3)
H7 H 0.0231 0.1660 -0.1398
C12 C 0.1564(3) 0.2272(3) -0.0056(3)
H8 H 0.2117 0.1879 -0.0211
Mn1A Mn 0.63597(3) 0.80148(4) 0.27425(4)
Mn2C Mn 0.49876(3) 0.35104(3) -0.00502(3)
Mn2A Mn 0.50124(3) 0.64896(3) 0.00502(3)
S2C S 0.44920(6) 0.31185(6) 0.60490(6)
S3C S 0.70015(6) 0.14869(5) 0.67066(6)
S4A S 0.55445(6) -0.00687(5) 0.37315(6)
S4C S 0.44555(6) 0.00687(5) 0.62685(6)
S5A S 0.30277(6) 0.14670(5) 0.33348(6)
loop_
_geom_bond_atom_site_label_1
_geom_bond_atom_site_label_2
_geom_bond_site_symmetry_1
_geom_bond_site_symmetry_2
Sb1 S1 1_555 1_555
Sb2 S3 1_555 1_555
Mn1 S1 1_555 1_555
Mn2 S1 1_555 1_555
S2 Sb1 1_555 1_555
S3 Sb1 1_555 1_555
S4 Sb2 1_555 1_555
S5 Sb2 1_555 1_555
N1 Mn1 1_555 1_555
N2 Mn1 1_555 1_555
C1 N1 1_555 1_555
H1 C1 1_555 1_555
C2 C1 1_555 1_555
H2 C2 1_555 1_555
C3 C2 1_555 1_555
H3 C3 1_555 1_555
C4 C3 1_555 1_555
C5 N1 1_555 1_555
C6 C4 1_555 1_555
H4 C6 1_555 1_555
C7 C6 1_555 1_555
H5 C7 1_555 1_555
C8 C7 1_555 1_555
C9 N2 1_555 1_555
C10 C8 1_555 1_555
H6 C10 1_555 1_555
C11 C10 1_555 1_555
H7 C11 1_555 1_555
C12 N2 1_555 1_555
H8 C12 1_555 1_555
Mn1A S5 1_555 1_555
Mn2C S2 1_555 1_555
Mn2A S4 1_555 1_555
S2C Mn2 1_555 1_555
S3C Mn2 1_555 1_555
S4A Mn2 1_555 1_555
S4C Mn2 1_555 1_555
S5A Mn1 1_555 1_555
Mn1 S2 1_555 1_555
Mn1 S4 1_555 1_555
Mn2 S5A 1_555 1_555
S3 Mn2C 1_555 1_555
S4 Mn2C 1_555 1_555
S5 Mn2A 1_555 1_555
C4 C5 1_555 1_555
C5 C9 1_555 1_555
C8 C9 1_555 1_555
C11 C12 1_555 1_555

#END
