
#######################################################################
#
#                 Cambridge Crystallographic Data Centre
#                                CCDC 
#
#######################################################################
#
# If this CIF has been generated from an entry in the Cambridge 
# Structural Database, then it will include bibliographic, chemical, 
# crystal, experimental, refinement or atomic coordinate data resulting 
# from the CCDC's data processing and validation procedures.
#
#######################################################################

data_GUKPAE
_symmetry_cell_setting           monoclinic
_symmetry_space_group_name_H-M   'P 21/n'
_symmetry_Int_Tables_number      14
_space_group_name_Hall           '-P 2yn'
loop_
_symmetry_equiv_pos_site_id
_symmetry_equiv_pos_as_xyz
1 x,y,z
2 1/2-x,1/2+y,1/2-z
3 -x,-y,-z
4 1/2+x,1/2-y,1/2+z
_cell_length_a                   8.528(3)
_cell_length_b                   13.930(5)
_cell_length_c                   17.036(6)
_cell_angle_alpha                90
_cell_angle_beta                 104.495(5)
_cell_angle_gamma                90
_cell_volume                     1959.37
loop_
_atom_site_label
_atom_site_type_symbol
_atom_site_fract_x
_atom_site_fract_y
_atom_site_fract_z
C1 C 1.1673(5) 0.7223(3) 0.8669(2)
C2 C 1.1751(5) 0.8144(3) 0.8978(2)
H1 H 1.0810 0.8438 0.9040
C3 C 1.3203(5) 0.8636(3) 0.9197(2)
H2 H 1.3223 0.9263 0.9388
C4 C 1.4613(5) 0.8207(3) 0.9136(2)
C5 C 1.4556(5) 0.7295(3) 0.8845(2)
H3 H 1.5479 0.7002 0.8760
C6 C 1.3193(5) 0.6850(3) 0.8689(2)
H4 H 1.3229 0.6198 0.8577
C7 C 1.0111(5) 0.6733(3) 0.8404(2)
C8 C 1.6200(5) 0.8712(3) 0.9392(2)
H5 H 1.7072 0.8258 0.9411
H6 H 1.6329 0.8975 0.9932
C9 C 1.6295(5) 0.9523(3) 0.8797(3)
C10 C -0.1029(5) 0.1589(3) 0.9089(2)
H7 H -0.1240 0.1118 0.9436
C11 C -0.0163(5) 0.2364(3) 0.9332(3)
H8 H 0.0335 0.2539 0.9862
C12 C -0.1002(5) 0.2335(3) 0.8020(2)
H9 H -0.1156 0.2511 0.7480
C13 C 0.0686(5) 0.3744(3) 0.8573(2)
H10 H 0.0309 0.4241 0.8880
H11 H 0.0422 0.3940 0.8008
C14 C 0.2503(5) 0.3649(3) 0.8876(3)
H12 H 0.2989 0.4252 0.8776
H13 H 0.2760 0.3556 0.9458
C15 C 0.7187(5) 0.5006(3) 0.8987(2)
H14 H 0.7684 0.5538 0.9275
C16 C 0.6557(5) 0.4263(3) 0.9300(2)
H15 H 0.6557 0.4184 0.9842
C17 C 0.6228(4) 0.4036(3) 0.8029(2)
H16 H 0.5936 0.3751 0.7519
C18 C 0.5107(5) 0.2757(3) 0.8768(3)
H17 H 0.5430 0.2541 0.9327
H18 H 0.5440 0.2273 0.8434
C19 C 0.3288(5) 0.2857(4) 0.8515(3)
H19 H 0.2976 0.2935 0.7931
H20 H 0.2826 0.2256 0.8636
N1 N -0.1588(4) 0.1562(2) 0.82524(16)
N2 N -0.0144(3) 0.2860(2) 0.86442(19)
N3 N 0.6982(4) 0.4856(2) 0.81758(18)
N4 N 0.5924(3) 0.3652(2) 0.86934(19)
O1 O 1.0079(3) 0.6007(2) 0.79416(17)
O2 O 0.8898(4) 0.7036(2) 0.85850(18)
O3 O 1.6920(4) 0.9434(2) 0.82953(18)
O4 O 1.5634(4) 1.0310(2) 0.89378(17)
Zn1 Zn 0.79644(5) 0.55542(3) 0.73779(3)
N1A N 0.6588(4) 0.6562(2) 0.67476(16)
O3A O 0.8080(4) 0.4434(2) 0.67047(18)
Zn1A Zn -0.29644(5) 0.05542(3) 0.76221(3)
Zn1A_2 Zn 1.70356(5) 1.05542(3) 0.76221(3)
O5 O 1.2664(4) 0.5344(2) 0.7009(2)
H21 H 1.1969 0.5522 0.7260
H22 H 1.2417 0.5575 0.6532
loop_
_geom_bond_atom_site_label_1
_geom_bond_atom_site_label_2
_geom_bond_site_symmetry_1
_geom_bond_site_symmetry_2
C1 C2 1_555 1_555
C2 H1 1_555 1_555
C3 C2 1_555 1_555
H2 C3 1_555 1_555
C4 C3 1_555 1_555
C5 C4 1_555 1_555
H3 C5 1_555 1_555
C6 C1 1_555 1_555
H4 C6 1_555 1_555
C7 C1 1_555 1_555
C8 C4 1_555 1_555
H5 C8 1_555 1_555
H6 C8 1_555 1_555
C9 C8 1_555 1_555
C10 H7 1_555 1_555
C11 C10 1_555 1_555
H8 C11 1_555 1_555
C12 H9 1_555 1_555
C13 H10 1_555 1_555
H11 C13 1_555 1_555
C14 C13 1_555 1_555
H12 C14 1_555 1_555
H13 C14 1_555 1_555
C15 H14 1_555 1_555
C16 C15 1_555 1_555
H15 C16 1_555 1_555
C17 H16 1_555 1_555
C18 H17 1_555 1_555
H18 C18 1_555 1_555
C19 C14 1_555 1_555
H19 C19 1_555 1_555
H20 C19 1_555 1_555
N1 C10 1_555 1_555
N2 C11 1_555 1_555
N3 C15 1_555 1_555
N4 C16 1_555 1_555
O1 C7 1_555 1_555
O2 C7 1_555 1_555
O3 C9 1_555 1_555
O4 C9 1_555 1_555
O5 H21 1_555 1_555
H22 O5 1_555 1_555
Zn1 N3 1_555 1_555
N1A Zn1 1_555 1_555
O3A Zn1 1_555 1_555
Zn1A N1 1_555 1_555
Zn1A_2 O3 1_555 1_555
C5 C6 1_555 1_555
C12 N1 1_555 1_555
C12 N2 1_555 1_555
C13 N2 1_555 1_555
C17 N3 1_555 1_555
C17 N4 1_555 1_555
C18 C19 1_555 1_555
C18 N4 1_555 1_555
O1 Zn1 1_555 1_555

#END
