
#######################################################################
#
#                 Cambridge Crystallographic Data Centre
#                                CCDC 
#
#######################################################################
#
# If this CIF has been generated from an entry in the Cambridge 
# Structural Database, then it will include bibliographic, chemical, 
# crystal, experimental, refinement or atomic coordinate data resulting 
# from the CCDC's data processing and validation procedures.
#
#######################################################################

data_GUKPEI
_symmetry_cell_setting           triclinic
_symmetry_space_group_name_H-M   'P -1'
_symmetry_Int_Tables_number      2
_space_group_name_Hall           '-P 1'
loop_
_symmetry_equiv_pos_site_id
_symmetry_equiv_pos_as_xyz
1 x,y,z
2 -x,-y,-z
_cell_length_a                   7.796(2)
_cell_length_b                   8.435(2)
_cell_length_c                   13.477(3)
_cell_angle_alpha                82.95(3)
_cell_angle_beta                 77.25(3)
_cell_angle_gamma                72.47(3)
_cell_volume                     822.733
loop_
_atom_site_label
_atom_site_type_symbol
_atom_site_fract_x
_atom_site_fract_y
_atom_site_fract_z
Cu1 Cu 0.47891(4) 0.29815(4) 0.69718(2)
N1 N 1.2915(3) 0.2739(3) 0.5886(2)
N2 N 0.2736(3) 0.2954(3) 0.8167(2)
H1 H 0.1787 0.2864 0.7908
N3 N 0.5598(3) 0.0554(3) 0.7361(2)
N4 N 0.3673(3) 0.5431(3) 0.7011(2)
N5 N 0.7051(3) 0.3067(3) 0.6004(2)
C1 C 0.4032(4) 0.6575(3) 0.6270(2)
H2 H 0.4951 0.6233 0.5705
C2 C 0.3081(4) 0.8236(4) 0.6322(2)
H3 H 0.3350 0.9003 0.5799
C3 C 0.1725(4) 0.8749(3) 0.7162(2)
H4 H 0.1066 0.9866 0.7212
C4 C 0.1356(4) 0.7571(3) 0.7934(2)
H5 H 0.0450 0.7888 0.8508
C5 C 0.2357(3) 0.5925(3) 0.7833(2)
C6 C 0.2088(4) 0.4563(3) 0.8644(2)
H6 H 0.2773 0.4533 0.9169
H7 H 0.0801 0.4782 0.8958
C7 C 0.6928(4) -0.0620(3) 0.6820(2)
H8 H 0.7573 -0.0298 0.6200
C8 C 0.7372(4) -0.2275(3) 0.7146(2)
H9 H 0.8304 -0.3056 0.6757
C9 C 0.6405(4) -0.2760(4) 0.8065(2)
H10 H 0.6674 -0.3873 0.8302
C10 C 0.5033(4) -0.1564(3) 0.8627(2)
H11 H 0.4366 -0.1866 0.9244
C11 C 0.4664(4) 0.0087(3) 0.8259(2)
C12 C 0.3239(4) 0.1457(3) 0.8848(2)
H12 H 0.2159 0.1092 0.9148
H13 H 0.3716 0.1716 0.9396
C13 C 0.8576(4) 0.2932(4) 0.5702(2)
N6 N 1.0256(4) 0.2682(7) 0.5237(2)
C14 C 1.1589(4) 0.2784(4) 0.5637(2)
Cu1_2 Cu 1.47891(4) 0.29815(4) 0.69718(2)
N1_2 N 0.2915(3) 0.2739(3) 0.5886(2)
Cl1 Cl 0.80565(8) 0.24328(8) 0.87780(5)
O1 O 0.6199(3) 0.3309(3) 0.8672(2)
O2 O 0.8536(3) 0.3068(3) 0.9577(2)
O3 O 0.8195(3) 0.0699(3) 0.8984(2)
O4 O 0.9261(3) 0.2687(3) 0.7826(2)
loop_
_geom_bond_atom_site_label_1
_geom_bond_atom_site_label_2
_geom_bond_site_symmetry_1
_geom_bond_site_symmetry_2
Cu1 N2 1_555 1_555
Cl1 O1 1_555 1_555
N1 C14 1_555 1_555
O2 Cl1 1_555 1_555
O3 Cl1 1_555 1_555
O4 Cl1 1_555 1_555
N2 H1 1_555 1_555
N3 Cu1 1_555 1_555
N4 Cu1 1_555 1_555
N5 Cu1 1_555 1_555
C1 N4 1_555 1_555
H2 C1 1_555 1_555
C2 C1 1_555 1_555
H3 C2 1_555 1_555
C3 C2 1_555 1_555
H4 C3 1_555 1_555
C4 C3 1_555 1_555
H5 C4 1_555 1_555
C5 N4 1_555 1_555
C6 N2 1_555 1_555
H6 C6 1_555 1_555
H7 C6 1_555 1_555
C7 N3 1_555 1_555
H8 C7 1_555 1_555
C8 C7 1_555 1_555
H9 C8 1_555 1_555
C9 C8 1_555 1_555
H10 C9 1_555 1_555
C10 C9 1_555 1_555
H11 C10 1_555 1_555
C11 N3 1_555 1_555
C12 N2 1_555 1_555
H12 C12 1_555 1_555
H13 C12 1_555 1_555
C13 N5 1_555 1_555
N6 C13 1_555 1_555
C14 N6 1_555 1_555
Cu1_2 N1 1_555 1_555
N1_2 Cu1 1_555 1_555
C4 C5 1_555 1_555
C5 C6 1_555 1_555
C10 C11 1_555 1_555
C11 C12 1_555 1_555

#END
