
#######################################################################
#
#                 Cambridge Crystallographic Data Centre
#                                CCDC 
#
#######################################################################
#
# If this CIF has been generated from an entry in the Cambridge 
# Structural Database, then it will include bibliographic, chemical, 
# crystal, experimental, refinement or atomic coordinate data resulting 
# from the CCDC's data processing and validation procedures.
#
#######################################################################

data_GUKPOS
_symmetry_cell_setting           monoclinic
_symmetry_space_group_name_H-M   'P 21/c'
_symmetry_Int_Tables_number      14
_space_group_name_Hall           '-P 2ybc'
loop_
_symmetry_equiv_pos_site_id
_symmetry_equiv_pos_as_xyz
1 x,y,z
2 -x,1/2+y,1/2-z
3 -x,-y,-z
4 x,1/2-y,1/2+z
_cell_length_a                   13.592(2)
_cell_length_b                   7.3465(12)
_cell_length_c                   13.235(2)
_cell_angle_alpha                90
_cell_angle_beta                 98.992(2)
_cell_angle_gamma                90
_cell_volume                     1305.32
loop_
_atom_site_label
_atom_site_type_symbol
_atom_site_fract_x
_atom_site_fract_y
_atom_site_fract_z
Nd1 Nd 0.52461(2) 0.09410(4) 0.81331(2)
O1 O 0.6960(3) 0.2347(6) 0.8438(4)
O2 O 0.5914(3) 0.4643(6) 0.8310(3)
O3 O 1.3507(3) 0.1164(6) 0.8579(3)
O4 O 0.5288(4) 0.1984(7) 0.9869(3)
O5 O 0.5348(3) 0.2269(6) 1.1543(3)
O6 O 1.3932(3) 0.3680(6) 0.7863(3)
O7 O 0.6659(4) -0.0715(7) 0.9351(3)
H1 H 0.655(6) -0.089(10) 0.996(3)
H2 H 0.709(5) 0.014(8) 0.937(5)
C1 C 0.6795(4) 0.4019(9) 0.8467(4)
C2 C 0.7640(4) 0.5325(9) 0.8662(5)
H3 H 0.7507 0.6546 0.8767
C3 C 0.8569(5) 0.4802(9) 0.8691(5)
H4 H 0.8680 0.3554 0.8669
C4 C 0.9454(4) 0.5983(9) 0.8754(5)
C5 C 0.9441(5) 0.7841(10) 0.8909(5)
H5 H 0.8855 0.8405 0.9020
C6 C 1.0292(5) 0.8872(10) 0.8902(6)
H6 H 1.0271 1.0121 0.9012
C7 C 1.0355(4) 0.5171(9) 0.8607(5)
H7 H 1.0378 0.3917 0.8519
C8 C 1.1180(5) 0.8064(10) 0.8732(5)
H8 H 1.1745 0.8770 0.8714
C9 C 1.1210(5) 0.6190(9) 0.8591(5)
C10 C 1.2149(5) 0.5334(10) 0.8387(5)
H9 H 1.2622 0.6086 0.8163
C11 C 1.2361(5) 0.3602(10) 0.8498(5)
H10 H 1.1890 0.2839 0.8717
C12 C 1.3314(4) 0.2780(8) 0.8294(4)
C13 C 0.5430(4) 0.2870(9) 1.0653(4)
H11 H 0.5612 0.4082 1.0603
Nd1A Nd 0.47539(2) 0.59410(4) 0.68669(2)
Nd1_2 Nd 1.52461(2) 0.09410(4) 0.81331(2)
Nd1B Nd 0.47539(2) -0.09410(4) 1.18669(2)
Nd1C Nd 0.52461(2) 0.40590(4) 1.31331(2)
Nd1A_2 Nd 1.47539(2) 0.59410(4) 0.68669(2)
O2A O 0.4086(3) -0.0357(6) 0.6690(3)
O3_2 O 0.3507(3) 0.1164(6) 0.8579(3)
O5B O 0.4652(3) -0.2269(6) 0.8457(3)
O5C O 0.5348(3) 0.2731(6) 0.6543(3)
O6_2 O 0.3932(3) 0.3680(6) 0.7863(3)
O6A O 0.6068(3) -0.1320(6) 0.7137(3)
loop_
_geom_bond_atom_site_label_1
_geom_bond_atom_site_label_2
_geom_bond_site_symmetry_1
_geom_bond_site_symmetry_2
Nd1 O1 1_555 1_555
O1 C1 1_555 1_555
O2 Nd1 1_555 1_555
O3 C12 1_555 1_555
O4 Nd1 1_555 1_555
O5 C13 1_555 1_555
O6 C12 1_555 1_555
O7 Nd1 1_555 1_555
H1 O7 1_555 1_555
H2 O7 1_555 1_555
C1 O2 1_555 1_555
C2 C1 1_555 1_555
H3 C2 1_555 1_555
C3 C2 1_555 1_555
H4 C3 1_555 1_555
C4 C3 1_555 1_555
C5 C4 1_555 1_555
H5 C5 1_555 1_555
C6 C5 1_555 1_555
H6 C6 1_555 1_555
C7 C4 1_555 1_555
H7 C7 1_555 1_555
C8 C6 1_555 1_555
H8 C8 1_555 1_555
C9 C7 1_555 1_555
C10 C9 1_555 1_555
H9 C10 1_555 1_555
C11 C10 1_555 1_555
H10 C11 1_555 1_555
C12 C11 1_555 1_555
C13 O4 1_555 1_555
H11 C13 1_555 1_555
Nd1A O2 1_555 1_555
Nd1_2 O3 1_555 1_555
Nd1B O5 1_555 1_555
Nd1C O5 1_555 1_555
Nd1A_2 O6 1_555 1_555
O2A Nd1 1_555 1_555
O3_2 Nd1 1_555 1_555
O5B Nd1 1_555 1_555
O5C Nd1 1_555 1_555
O6_2 Nd1 1_555 1_555
O6A Nd1 1_555 1_555
O6 Nd1_2 1_555 1_555
C8 C9 1_555 1_555
Nd1A O5C 1_555 1_555
Nd1A O6_2 1_555 1_555

#END
