
#######################################################################
#
#                 Cambridge Crystallographic Data Centre
#                                CCDC 
#
#######################################################################
#
# If this CIF has been generated from an entry in the Cambridge 
# Structural Database, then it will include bibliographic, chemical, 
# crystal, experimental, refinement or atomic coordinate data resulting 
# from the CCDC's data processing and validation procedures.
#
#######################################################################

data_GUKPIN
_symmetry_cell_setting           monoclinic
_symmetry_space_group_name_H-M   'C 2/c'
_symmetry_Int_Tables_number      15
_space_group_name_Hall           '-C 2yn'
loop_
_symmetry_equiv_pos_site_id
_symmetry_equiv_pos_as_xyz
1 x,y,z
2 -x,y,1/2-z
3 1/2+x,1/2+y,z
4 1/2-x,1/2+y,1/2-z
5 -x,-y,-z
6 x,-y,1/2+z
7 1/2-x,1/2-y,-z
8 1/2+x,1/2-y,1/2+z
_cell_length_a                   13.935(2)
_cell_length_b                   12.0572(18)
_cell_length_c                   18.476(3)
_cell_angle_alpha                90
_cell_angle_beta                 99.936(2)
_cell_angle_gamma                90
_cell_volume                     3057.72
loop_
_atom_site_label
_atom_site_type_symbol
_atom_site_fract_x
_atom_site_fract_y
_atom_site_fract_z
Cu1 Cu 1.0000 0.46482(8) 0.7500
Cu2 Cu 0.7500 0.2500 1.0000
C1 C 0.9516(7) 0.5931(7) 0.8827(5)
C2 C 0.9133(7) 0.4813(8) 0.8890(5)
C3 C 0.8642(7) 0.4343(7) 0.9409(5)
C4 C 0.8365(8) 0.4823(8) 1.0067(5)
C5 C 0.8834(6) 0.3090(7) 0.8619(5)
C6 C 0.8811(7) 0.2011(8) 0.8222(5)
C7 C 0.8914(7) 0.1029(8) 0.8623(5)
H1 H 0.9001 0.1052 0.9134
C8 C 0.8885(8) 0.0007(9) 0.8260(6)
H2 H 0.8948 -0.0648 0.8529
C9 C 0.8763(7) -0.0030(8) 0.7509(6)
C10 C 0.8677(7) 0.0976(8) 0.7096(5)
C11 C 0.8702(7) 0.1972(8) 0.7460(5)
H3 H 0.8645 0.2630 0.7193
C12 C 0.8485(10) 0.1806(10) 0.5898(6)
H4 H 0.7906 0.2211 0.5947
H5 H 0.8454 0.1584 0.5396
H6 H 0.9045 0.2270 0.6045
C13 C 0.8695(9) -0.1977(8) 0.7476(7)
H7 H 0.9304 -0.2075 0.7801
H8 H 0.8596 -0.2579 0.7131
H9 H 0.8175 -0.1965 0.7755
N1 N 0.9243(5) 0.4003(6) 0.8388(4)
N2 N 0.8446(6) 0.3256(6) 0.9222(4)
O1 O 0.9944(5) 0.6142(5) 0.8302(3)
O2 O 0.9443(6) 0.6657(6) 0.9316(4)
O3 O 0.8596(6) 0.5840(6) 1.0233(4)
O4 O 0.7923(6) 0.4235(6) 1.0474(4)
O5 O 0.8561(6) 0.0822(6) 0.6367(4)
O6 O 0.8708(6) -0.0974(6) 0.7097(4)
O7 O 0.8371(6) 0.4662(8) 0.6836(5)
H10 H 0.8203 0.3933 0.6646
H11 H 0.8325 0.5179 0.6436
O8 O 0.6063(6) 0.3324(7) 0.9361(5)
H12 H 0.5511 0.2885 0.9430
H13 H 0.6096 0.3360 0.8847
H14 H 0.9166 0.6385 0.9631
C1A C 1.0484(7) 0.5931(7) 0.6173(5)
C2A C 1.0867(7) 0.4813(8) 0.6110(5)
C3A C 1.1358(7) 0.4343(7) 0.5591(5)
C4A C 1.1635(8) 0.4823(8) 0.4933(5)
C5A C 1.1166(6) 0.3090(7) 0.6381(5)
C6A C 1.1189(7) 0.2011(8) 0.6778(5)
C7A C 1.1086(7) 0.1029(8) 0.6377(5)
H1A H 1.0999 0.1052 0.5866
C8A C 1.1115(8) 0.0007(9) 0.6740(6)
H2A H 1.1052 -0.0648 0.6471
C9A C 1.1237(7) -0.0030(8) 0.7491(6)
C10A C 1.1323(7) 0.0976(8) 0.7904(5)
C11A C 1.1298(7) 0.1972(8) 0.7540(5)
H3A H 1.1355 0.2630 0.7807
C12A C 1.1515(10) 0.1806(10) 0.9102(6)
H4A H 1.2094 0.2211 0.9053
H5A H 1.1546 0.1584 0.9604
H6A H 1.0955 0.2270 0.8955
C13A C 1.1305(9) -0.1977(8) 0.7524(7)
H7A H 1.0696 -0.2075 0.7199
H8A H 1.1404 -0.2579 0.7869
H9A H 1.1825 -0.1965 0.7245
N1A N 1.0757(5) 0.4003(6) 0.6612(4)
N2A N 1.1554(6) 0.3256(6) 0.5778(4)
O1A O 1.0056(5) 0.6142(5) 0.6698(3)
O2A O 1.0557(6) 0.6657(6) 0.5684(4)
O3A O 1.1404(6) 0.5840(6) 0.4767(4)
O4A O 1.2077(6) 0.4235(6) 0.4526(4)
O5A O 1.1439(6) 0.0822(6) 0.8633(4)
O6A O 1.1292(6) -0.0974(6) 0.7903(4)
O7A O 1.1629(6) 0.4662(8) 0.8164(5)
H10A H 1.1797 0.3933 0.8354
H11A H 1.1675 0.5179 0.8564
H14A H 1.0834 0.6385 0.5369
O8F O 0.8937(6) 0.1676(7) 1.0639(5)
H12F H 0.9489 0.2115 1.0570
H13F H 0.8904 0.1640 1.1153
Cu2A Cu 1.2500 0.2500 0.5000
N2F N 0.6554(6) 0.1744(6) 1.0778(4)
O4F O 0.7077(6) 0.0765(6) 0.9526(4)
loop_
_geom_bond_atom_site_label_1
_geom_bond_atom_site_label_2
_geom_bond_site_symmetry_1
_geom_bond_site_symmetry_2
Cu1 N1 1_555 1_555
Cu2 N2 1_555 1_555
C1 C2 1_555 1_555
C2 C3 1_555 1_555
C3 C4 1_555 1_555
C4 O3 1_555 1_555
C5 C6 1_555 1_555
C6 C7 1_555 1_555
C7 H1 1_555 1_555
C8 C7 1_555 1_555
H2 C8 1_555 1_555
C9 C8 1_555 1_555
C10 C9 1_555 1_555
C11 C6 1_555 1_555
H3 C11 1_555 1_555
C12 H4 1_555 1_555
H5 C12 1_555 1_555
H6 C12 1_555 1_555
C13 H7 1_555 1_555
H8 C13 1_555 1_555
H9 C13 1_555 1_555
N1 C2 1_555 1_555
N2 C3 1_555 1_555
O1 Cu1 1_555 1_555
O2 C1 1_555 1_555
O4 Cu2 1_555 1_555
O5 C10 1_555 1_555
O6 C9 1_555 1_555
O7 Cu1 1_555 1_555
H10 O7 1_555 1_555
H11 O7 1_555 1_555
O8 Cu2 1_555 1_555
H12 O8 1_555 1_555
H13 O8 1_555 1_555
H14 O2 1_555 1_555
C1A C2A 1_555 1_555
C2A C3A 1_555 1_555
C3A C4A 1_555 1_555
C4A O3A 1_555 1_555
C5A C6A 1_555 1_555
C6A C7A 1_555 1_555
C7A H1A 1_555 1_555
C8A C7A 1_555 1_555
H2A C8A 1_555 1_555
C9A C8A 1_555 1_555
C10A C9A 1_555 1_555
C11A C6A 1_555 1_555
H3A C11A 1_555 1_555
C12A H4A 1_555 1_555
H5A C12A 1_555 1_555
H6A C12A 1_555 1_555
C13A H7A 1_555 1_555
H8A C13A 1_555 1_555
H9A C13A 1_555 1_555
N1A Cu1 1_555 1_555
N2A C3A 1_555 1_555
O1A Cu1 1_555 1_555
O2A C1A 1_555 1_555
O4A C4A 1_555 1_555
O5A C10A 1_555 1_555
O6A C9A 1_555 1_555
O7A Cu1 1_555 1_555
H10A O7A 1_555 1_555
H11A O7A 1_555 1_555
H14A O2A 1_555 1_555
O8F Cu2 1_555 1_555
H12F O8F 1_555 1_555
H13F O8F 1_555 1_555
Cu2A N2A 1_555 1_555
N2F Cu2 1_555 1_555
O4F Cu2 1_555 1_555
C1 O1 1_555 1_555
C4 O4 1_555 1_555
C5 N1 1_555 1_555
C5 N2 1_555 1_555
C10 C11 1_555 1_555
C12 O5 1_555 1_555
C13 O6 1_555 1_555
C1A O1A 1_555 1_555
C2A N1A 1_555 1_555
C5A N1A 1_555 1_555
C5A N2A 1_555 1_555
C10A C11A 1_555 1_555
C12A O5A 1_555 1_555
C13A O6A 1_555 1_555
O4A Cu2A 1_555 1_555

#END
