
#######################################################################
#
#                 Cambridge Crystallographic Data Centre
#                                CCDC 
#
#######################################################################
#
# If this CIF has been generated from an entry in the Cambridge 
# Structural Database, then it will include bibliographic, chemical, 
# crystal, experimental, refinement or atomic coordinate data resulting 
# from the CCDC's data processing and validation procedures.
#
#######################################################################

data_GUKPEJ
_symmetry_cell_setting           rhombohedral
_symmetry_space_group_name_H-M   'R -3'
_symmetry_Int_Tables_number      148
_space_group_name_Hall           '-R 3'
loop_
_symmetry_equiv_pos_site_id
_symmetry_equiv_pos_as_xyz
1 x,y,z
2 -y,x-y,z
3 -x+y,-x,z
4 2/3+x,1/3+y,1/3+z
5 2/3-y,1/3+x-y,1/3+z
6 2/3-x+y,1/3-x,1/3+z
7 1/3+x,2/3+y,2/3+z
8 1/3-y,2/3+x-y,2/3+z
9 1/3-x+y,2/3-x,2/3+z
10 -x,-y,-z
11 y,-x+y,-z
12 x-y,x,-z
13 1/3-x,2/3-y,2/3-z
14 1/3+y,2/3-x+y,2/3-z
15 1/3+x-y,2/3+x,2/3-z
16 2/3-x,1/3-y,1/3-z
17 2/3+y,1/3-x+y,1/3-z
18 2/3+x-y,1/3+x,1/3-z
_cell_length_a                   24.4473(9)
_cell_length_b                   24.4473(9)
_cell_length_c                   14.0673(15)
_cell_angle_alpha                90
_cell_angle_beta                 90
_cell_angle_gamma                120
_cell_volume                     7281.2
loop_
_atom_site_label
_atom_site_type_symbol
_atom_site_fract_x
_atom_site_fract_y
_atom_site_fract_z
C1 C 0.1215(4) 0.3745(4) 0.0089(5)
C2 C 0.1747(3) 0.3931(4) 0.0716(5)
C3 C 0.2324(3) 0.4006(4) 0.0626(5)
C4 C 0.2665(4) 0.3923(4) -0.0150(5)
C5 C 0.2232(4) 0.4260(4) 0.1989(5)
C6 C 0.2390(4) 0.4499(4) 0.2947(5)
C7 C 0.2958(4) 0.4989(5) 0.3132(6)
H1 H 0.3261 0.5180 0.2659
C8 C 0.3076(6) 0.5200(6) 0.4052(9)
C9 C 0.2670(6) 0.4939(6) 0.4751(7)
H2 H 0.2771 0.5089 0.5371
C10 C 0.2121(6) 0.4459(6) 0.4536(6)
H3 H 0.1830 0.4269 0.5025
C11 C 0.1944(4) 0.4218(4) 0.3655(5)
H4 H 0.1543 0.3879 0.3532
C12 C 0.3984(8) 0.6129(7) 0.3649(15)
H5 H 0.4329 0.6485 0.3954
H6 H 0.3712 0.6258 0.3356
H7 H 0.4144 0.5965 0.3172
N1 N 0.1688(3) 0.4103(3) 0.1588(4)
N2 N 0.2629(3) 0.4209(3) 0.1440(4)
O1 O 0.0768(2) 0.3783(3) 0.0424(3)
O2 O 0.1187(3) 0.3546(4) -0.0695(4)
O3 O 0.2469(3) 0.3841(4) -0.0950(4)
O4 O 0.3176(2) 0.3976(3) 0.0042(3)
O5 O 0.3664(5) 0.5691(6) 0.4280(8)
O6 O 0.0512(3) 0.3044(3) 0.2367(5)
H8 H 0.0875 0.3101 0.2401
H9 H 0.0380 0.3057 0.2897
O7 O -0.0245(3) 0.3531(4) 0.1699(4)
H10 H -0.0603 0.3410 0.1900
H11 H -0.0254 0.3457 0.1147
O8 O 0.1900(6) 0.4185(6) -0.2426(8)
H12 H 0.1658 0.4288 -0.2759
H13 H 0.1897 0.4437 -0.1999
Zn1 Zn 0.07726(5) 0.39839(5) 0.18662(7)
Zn2 Zn 0.1667 0.3333 -0.1667
C1P C 0.0412(4) 0.5863(6) 0.3244(5)
C2P C 0.0598(4) 0.5517(5) 0.2617(5)
C3P C 0.0673(4) 0.5015(5) 0.2707(5)
C4P C 0.0590(4) 0.4591(6) 0.3483(5)
C5P C 0.0927(4) 0.5361(6) 0.1344(5)
C6P C 0.1166(4) 0.5442(6) 0.0386(5)
C7P C 0.1656(5) 0.5364(6) 0.0201(6)
H1P H 0.1847 0.5252 0.0674
C8P C 0.1867(6) 0.5457(8) -0.0719(9)
C9P C 0.1606(6) 0.5602(8) -0.1418(7)
H2P H 0.1756 0.5651 -0.2038
C10P C 0.1126(6) 0.5671(8) -0.1203(6)
H3P H 0.0936 0.5772 -0.1692
C11P C 0.0885(4) 0.5607(6) -0.0322(5)
H4P H 0.0546 0.5669 -0.0199
C12P C 0.2796(7) 0.5478(11) -0.0316(15)
H5P H 0.3152 0.5489 -0.0621
H6P H 0.2925 0.5879 -0.0023
H7P H 0.2632 0.5154 0.0161
N1P N 0.0770(3) 0.5748(4) 0.1745(4)
N2P N 0.0876(3) 0.4913(4) 0.1893(4)
O1P O 0.0450(3) 0.6348(4) 0.2909(3)
O2P O 0.0213(4) 0.5692(5) 0.4028(4)
O3P O 0.0508(4) 0.4705(5) 0.4283(4)
O4P O 0.0643(3) 0.4133(4) 0.3291(3)
O5P O 0.2358(6) 0.5360(8) -0.0947(8)
O6P O -0.0289(3) 0.5865(4) 0.0966(5)
H8P H -0.0232 0.5559 0.0932
H9P H -0.0276 0.6010 0.0436
O7P O 0.0198(4) 0.7109(5) 0.1634(4)
H10P H 0.0077 0.7346 0.1433
H11P H 0.0124 0.7044 0.2186
Zn1P Zn 0.06506(5) 0.65446(7) 0.14671(7)
O8L O 0.1433(6) 0.2482(6) -0.0907(8)
H12L H 0.1675 0.2379 -0.0574
H13L H 0.1436 0.2230 -0.1334
N2B N 0.1580(4) 0.7371(3) 0.1440(4)
O2L O 0.2146(3) 0.3121(4) -0.2638(4)
O3L O 0.0864(3) 0.2826(4) -0.2383(4)
O4B O 0.0800(4) 0.6824(2) 0.0042(3)
Zn1Q Zn 0.34554(7) 0.41059(5) 0.14671(7)
Zn2G Zn 0.0000 0.5001 0.5000
O9 O -0.0049(8) 0.2344(8) 0.0149(14)
H14 H 0.0241 0.2567 -0.0218
H15 H 0.0055 0.2639 0.0523
loop_
_geom_bond_atom_site_label_1
_geom_bond_atom_site_label_2
_geom_bond_site_symmetry_1
_geom_bond_site_symmetry_2
C1 C2 1_555 1_555
C2 C3 1_555 1_555
C3 C4 1_555 1_555
C4 O3 1_555 1_555
C5 C6 1_555 1_555
C6 C7 1_555 1_555
C7 H1 1_555 1_555
C8 C7 1_555 1_555
C9 C8 1_555 1_555
H2 C9 1_555 1_555
C10 C9 1_555 1_555
H3 C10 1_555 1_555
C11 C6 1_555 1_555
H4 C11 1_555 1_555
C12 H5 1_555 1_555
H6 C12 1_555 1_555
H7 C12 1_555 1_555
N1 C2 1_555 1_555
N2 C3 1_555 1_555
O1 C1 1_555 1_555
O2 C1 1_555 1_555
O3 Zn2 1_555 1_555
O4 C4 1_555 1_555
O5 C8 1_555 1_555
O6 H8 1_555 1_555
H9 O6 1_555 1_555
O7 H10 1_555 1_555
H11 O7 1_555 1_555
O8 H12 1_555 1_555
H13 O8 1_555 1_555
Zn1 N1 1_555 1_555
Zn2 O2 1_555 1_555
O9 H14 1_555 1_555
H15 O9 1_555 1_555
C1P C2P 1_555 1_555
C2P C3P 1_555 1_555
C3P C4P 1_555 1_555
C4P O3P 1_555 1_555
C5P C6P 1_555 1_555
C6P C7P 1_555 1_555
C7P H1P 1_555 1_555
C8P C7P 1_555 1_555
C9P C8P 1_555 1_555
H2P C9P 1_555 1_555
C10P C9P 1_555 1_555
H3P C10P 1_555 1_555
C11P C6P 1_555 1_555
H4P C11P 1_555 1_555
C12P H5P 1_555 1_555
H6P C12P 1_555 1_555
H7P C12P 1_555 1_555
N1P C2P 1_555 1_555
N2P Zn1 1_555 1_555
O1P C1P 1_555 1_555
O2P C1P 1_555 1_555
O3P Zn2G 1_555 1_555
O4P Zn1 1_555 1_555
O5P C8P 1_555 1_555
O6P H8P 1_555 1_555
H9P O6P 1_555 1_555
O7P H10P 1_555 1_555
H11P O7P 1_555 1_555
Zn1P N1P 1_555 1_555
O8L Zn2 1_555 1_555
H12L O8L 1_555 1_555
H13L O8L 1_555 1_555
N2B Zn1P 1_555 1_555
O2L Zn2 1_555 1_555
O3L Zn2 1_555 1_555
O4B Zn1P 1_555 1_555
Zn1Q N2 1_555 1_555
Zn2G O2P 1_555 1_555
C5 N1 1_555 1_555
C5 N2 1_555 1_555
C10 C11 1_555 1_555
C12 O5 1_555 1_555
O1 Zn1 1_555 1_555
O4 Zn1Q 1_555 1_555
O6 Zn1 1_555 1_555
O7 Zn1 1_555 1_555
O8 Zn2 1_555 1_555
C3P N2P 1_555 1_555
C4P O4P 1_555 1_555
C5P N1P 1_555 1_555
C5P N2P 1_555 1_555
C10P C11P 1_555 1_555
C12P O5P 1_555 1_555
O1P Zn1P 1_555 1_555
O6P Zn1P 1_555 1_555
O7P Zn1P 1_555 1_555

#END
