
#######################################################################
#
#                 Cambridge Crystallographic Data Centre
#                                CCDC 
#
#######################################################################
#
# If this CIF has been generated from an entry in the Cambridge 
# Structural Database, then it will include bibliographic, chemical, 
# crystal, experimental, refinement or atomic coordinate data resulting 
# from the CCDC's data processing and validation procedures.
#
#######################################################################

data_GUKREK
_symmetry_cell_setting           monoclinic
_symmetry_space_group_name_H-M   'C 2/m'
_symmetry_Int_Tables_number      12
_space_group_name_Hall           '-C 2y'
loop_
_symmetry_equiv_pos_site_id
_symmetry_equiv_pos_as_xyz
1 x,y,z
2 -x,y,-z
3 1/2+x,1/2+y,z
4 1/2-x,1/2+y,-z
5 -x,-y,-z
6 x,-y,z
7 1/2-x,1/2-y,-z
8 1/2+x,1/2-y,z
_cell_length_a                   7.571(5)
_cell_length_b                   8.345(5)
_cell_length_c                   5.397(5)
_cell_angle_alpha                90
_cell_angle_beta                 108.185(5)
_cell_angle_gamma                90
_cell_volume                     323.952
loop_
_atom_site_label
_atom_site_type_symbol
_atom_site_fract_x
_atom_site_fract_y
_atom_site_fract_z
Ni1 Ni 1.0000 1.0000 0.0000
O1 O 1.00223(15) 0.83825(14) 0.2940(2)
N1 N 0.7056(3) 1.0000 -0.1334(4)
H1 H 0.6675 1.0887 -0.2377
C1 C 0.6051(3) 1.0000 0.0613(5)
H2 H 0.6422 1.0958 0.1737
C2 C 1.0000 0.9067(3) 0.5000
Ni1_2 Ni 0.0000 1.0000 0.0000
Ni1_3 Ni 1.0000 1.0000 1.0000
O1A O 0.99777(15) 0.83825(14) 0.7060(2)
O1D O 0.99777(15) 1.16175(14) 0.7060(2)
O1E O 1.00223(15) 1.16175(14) 0.2940(2)
O1A_2 O 0.99777(15) 0.83825(14) -0.2940(2)
O1D_2 O 0.99777(15) 1.16175(14) -0.2940(2)
N1A N 0.2944(3) 1.0000 0.1334(4)
N1A_2 N 1.2944(3) 1.0000 0.1334(4)
H1A H 0.3325 1.0887 0.2377
H1D H 0.3325 0.9113 0.2377
H1E H 0.6675 0.9113 -0.2377
C1A C 0.3949(3) 1.0000 -0.0613(5)
H2A H 0.3578 1.0958 -0.1737
H2D H 0.3578 0.9042 -0.1737
H2E H 0.6422 0.9042 0.1737
C2D C 1.0000 1.0933(3) 0.5000
loop_
_geom_bond_atom_site_label_1
_geom_bond_atom_site_label_2
_geom_bond_site_symmetry_1
_geom_bond_site_symmetry_2
Ni1 O1 1_555 1_555
O1 C2 1_555 1_555
N1 Ni1 1_555 1_555
H1 N1 1_555 1_555
C1 N1 1_555 1_555
H2 C1 1_555 1_555
C2 O1A 1_555 1_555
Ni1_2 N1A 1_555 1_555
Ni1_3 O1A 1_555 1_555
O1D Ni1_3 1_555 1_555
O1E Ni1 1_555 1_555
O1A_2 Ni1 1_555 1_555
O1D_2 Ni1 1_555 1_555
N1A H1A 1_555 1_555
N1A_2 Ni1 1_555 1_555
H1D N1A 1_555 1_555
H1E N1 1_555 1_555
C1A C1 1_555 1_555
H2A C1A 1_555 1_555
H2D C1A 1_555 1_555
H2E C1 1_555 1_555
C2D C2 1_555 1_555
O1D C2D 1_555 1_555
O1E C2D 1_555 1_555
N1A C1A 1_555 1_555

#END
