
#######################################################################
#
#                 Cambridge Crystallographic Data Centre
#                                CCDC 
#
#######################################################################
#
# If this CIF has been generated from an entry in the Cambridge 
# Structural Database, then it will include bibliographic, chemical, 
# crystal, experimental, refinement or atomic coordinate data resulting 
# from the CCDC's data processing and validation procedures.
#
#######################################################################

data_GUKREJ
_symmetry_cell_setting           triclinic
_symmetry_space_group_name_H-M   'P -1'
_symmetry_Int_Tables_number      2
_space_group_name_Hall           '-P 1'
loop_
_symmetry_equiv_pos_site_id
_symmetry_equiv_pos_as_xyz
1 x,y,z
2 -x,-y,-z
_cell_length_a                   5.9440(10)
_cell_length_b                   11.200(2)
_cell_length_c                   11.899(2)
_cell_angle_alpha                62.580(10)
_cell_angle_beta                 87.14(2)
_cell_angle_gamma                81.32(2)
_cell_volume                     694.928
loop_
_atom_site_label
_atom_site_type_symbol
_atom_site_fract_x
_atom_site_fract_y
_atom_site_fract_z
S1 S 0.28669(6) 0.36592(3) 0.00593(3)
Na1 Na 0.20232(10) 0.65095(6) -0.09001(5)
C1 C 0.2423(2) 0.35842(13) -0.13519(12)
C2 C 0.0259(2) 0.38947(17) -0.19132(13)
H1 H -0.1018 0.4138 -0.1511
C3 C -0.0071(3) 0.38566(18) -0.30345(14)
H2 H -0.1563 0.4077 -0.3391
C4 C 0.1739(3) 0.35034(17) -0.36429(14)
H3 H 0.1508 0.3478 -0.4415
C5 C 0.3888(3) 0.31874(18) -0.31119(15)
H4 H 0.5150 0.2942 -0.3523
C6 C 0.4231(2) 0.32232(16) -0.19853(13)
H5 H 0.5729 0.2997 -0.1635
N1 N 0.29374(19) 0.75373(12) -0.32466(10)
N2 N 0.16160(19) 0.90602(12) -0.16959(11)
C7 C 0.5352(3) 0.7097(2) -0.32441(17)
H6 H 0.5630 0.6109 -0.2929
H7 H 0.6151 0.7338 -0.2693
H8 H 0.5912 0.7545 -0.4108
C8 C 0.1784(3) 0.7152(2) -0.40627(15)
H9 H 0.0133 0.7365 -0.4013
H10 H 0.2196 0.6174 -0.3782
H11 H 0.2251 0.7657 -0.4939
C9 C 0.2412(3) 0.90096(16) -0.37395(13)
H12 H 0.0768 0.9288 -0.3961
H13 H 0.3261 0.9451 -0.4528
C10 C 0.2984(3) 0.95221(17) -0.28344(15)
H14 H 0.4613 0.9212 -0.2582
H15 H 0.2750 1.0528 -0.3276
C11 C -0.0746(3) 0.97054(19) -0.19733(18)
H16 H -0.1594 0.9402 -0.1185
H17 H -0.1427 0.9454 -0.2553
H18 H -0.0806 1.0695 -0.2368
C12 C 0.2568(3) 0.94047(18) -0.07953(16)
H19 H 0.1688 0.9080 -0.0018
H20 H 0.2499 1.0393 -0.1167
H21 H 0.4156 0.8973 -0.0596
Na1A Na -0.20232(10) 0.34905(6) 0.09001(5)
Na1A_2 Na 0.79768(10) 0.34905(6) 0.09001(5)
S1A S -0.28669(6) 0.63408(3) -0.00593(3)
S1A_2 S 0.71331(6) 0.63408(3) -0.00593(3)
loop_
_geom_bond_atom_site_label_1
_geom_bond_atom_site_label_2
_geom_bond_site_symmetry_1
_geom_bond_site_symmetry_2
S1 Na1 1_555 1_555
Na1 N1 1_555 1_555
C1 S1 1_555 1_555
C2 C1 1_555 1_555
H1 C2 1_555 1_555
C3 C2 1_555 1_555
H2 C3 1_555 1_555
C4 C3 1_555 1_555
H3 C4 1_555 1_555
C5 C4 1_555 1_555
H4 C5 1_555 1_555
C6 C1 1_555 1_555
H5 C6 1_555 1_555
N1 C7 1_555 1_555
N2 Na1 1_555 1_555
C7 H6 1_555 1_555
H7 C7 1_555 1_555
H8 C7 1_555 1_555
C8 N1 1_555 1_555
H9 C8 1_555 1_555
H10 C8 1_555 1_555
H11 C8 1_555 1_555
C9 N1 1_555 1_555
H12 C9 1_555 1_555
H13 C9 1_555 1_555
C10 N2 1_555 1_555
H14 C10 1_555 1_555
H15 C10 1_555 1_555
C11 N2 1_555 1_555
H16 C11 1_555 1_555
H17 C11 1_555 1_555
H18 C11 1_555 1_555
C12 N2 1_555 1_555
H19 C12 1_555 1_555
H20 C12 1_555 1_555
H21 C12 1_555 1_555
Na1A S1 1_555 1_555
Na1A_2 S1 1_555 1_555
S1A Na1 1_555 1_555
S1A_2 Na1 1_555 1_555
C5 C6 1_555 1_555
C9 C10 1_555 1_555
Na1A S1A 1_555 1_555
Na1A_2 S1A_2 1_555 1_555

#END
