
#######################################################################
#
#                 Cambridge Crystallographic Data Centre
#                                CCDC 
#
#######################################################################
#
# If this CIF has been generated from an entry in the Cambridge 
# Structural Database, then it will include bibliographic, chemical, 
# crystal, experimental, refinement or atomic coordinate data resulting 
# from the CCDC's data processing and validation procedures.
#
#######################################################################

data_GUKSOV
_symmetry_cell_setting           triclinic
_symmetry_space_group_name_H-M   'P -1'
_symmetry_Int_Tables_number      2
_space_group_name_Hall           '-P 1'
loop_
_symmetry_equiv_pos_site_id
_symmetry_equiv_pos_as_xyz
1 x,y,z
2 -x,-y,-z
_cell_length_a                   11.368(2)
_cell_length_b                   11.767(2)
_cell_length_c                   18.397(4)
_cell_angle_alpha                104.96(3)
_cell_angle_beta                 97.18(3)
_cell_angle_gamma                112.78(3)
_cell_volume                     2121.01
loop_
_atom_site_label
_atom_site_type_symbol
_atom_site_fract_x
_atom_site_fract_y
_atom_site_fract_z
C1 C 0.4230(7) 0.4916(7) 0.3424(4)
C2 C 0.5304(7) 0.5753(7) 0.3147(3)
C3 C 0.5139(8) 0.5520(8) 0.2364(4)
H1 H 0.4402 0.4804 0.2013
C4 C 0.6100(7) 0.6379(8) 0.2092(4)
C5 C 0.5928(8) 0.6209(9) 0.1281(4)
H2 H 0.5194 0.5504 0.0920
C6 C 0.6841(8) 0.7083(9) 0.1036(4)
H3 H 0.6723 0.6973 0.0508
C7 C 0.7950(7) 0.8138(7) 0.1571(4)
C8 C 0.8164(7) 0.8311(7) 0.2353(4)
H4 H 0.8914 0.9016 0.2699
C9 C 0.7253(6) 0.7428(7) 0.2635(3)
C10 C 0.7420(7) 0.7591(7) 0.3435(4)
H5 H 0.8185 0.8252 0.3794
C11 C 0.6452(7) 0.6775(7) 0.3680(3)
H6 H 0.6555 0.6898 0.4208
C12 C 0.8916(7) 0.9147(7) 0.1300(4)
C13 C 1.0684(7) 0.4056(8) 0.2712(4)
C14 C 1.0287(9) 0.4706(9) 0.2135(4)
C15 C 1.1125(12) 0.6047(12) 0.2278(7)
H7 H 1.1798 0.6465 0.2734
C16 C 1.1063(15) 0.6861(14) 0.1796(8)
H8 H 1.1645 0.7741 0.1938
C17 C 1.0108(11) 0.6233(10) 0.1147(6)
C18 C 1.0045(14) 0.7025(12) 0.0538(5)
H9 H 1.0684 0.7874 0.0646
C19 C 0.9050(11) 0.6432(10) -0.0128(5)
C20 C 0.8135(14) 0.5154(13) -0.0263(8)
H10 H 0.7448 0.4770 -0.0711
C21 C 0.8144(12) 0.4365(12) 0.0220(6)
H11 H 0.7522 0.3502 0.0088
C22 C 0.9135(8) 0.4984(9) 0.0886(5)
C23 C 0.9243(11) 0.4095(12) 0.1450(4)
H12 H 0.8634 0.3226 0.1317
C24 C 0.8873(8) 0.7102(8) -0.0741(4)
C25 C 1.3118(7) 1.0978(8) 0.1347(4)
C26 C 1.3953(7) 1.0615(9) 0.0949(4)
C27 C 1.5263(9) 1.0843(12) 0.1394(4)
H13 H 1.5490 1.1182 0.1934
C28 C 1.6085(10) 1.0577(13) 0.1041(5)
H14 H 1.6895 1.0684 0.1306
C29 C 1.3508(8) 1.0128(10) 0.0168(4)
H15 H 1.2668 0.9967 -0.0082
C30 C 1.5659(7) 1.0110(10) 0.0224(4)
C31 C 0.2842(6) 0.1588(7) 0.3860(4)
C32 C 0.3573(7) 0.0836(7) 0.4173(3)
C33 C 0.3449(8) -0.0273(8) 0.3690(4)
H16 H 0.2940 -0.0608 0.3180
C34 C 0.4364(7) 0.1231(7) 0.4932(3)
H17 H 0.4456 0.2010 0.5278
C35 C 0.5066(6) 0.0556(6) 0.5246(3)
C36 C 0.4112(8) -0.0937(8) 0.3966(4)
H18 H 0.4019 -0.1706 0.3608
C37 C 0.3608(8) 0.6073(8) 0.5714(4)
H19 H 0.4317 0.6378 0.5498
C38 C 0.3726(10) 0.6696(10) 0.6446(5)
H20 H 0.4497 0.7424 0.6753
C39 C 0.2676(12) 0.6221(13) 0.6718(6)
H21 H 0.2718 0.6630 0.7232
C40 C 0.1525(10) 0.5144(11) 0.6268(5)
H22 H 0.0810 0.4842 0.6480
C41 C 0.1441(8) 0.4537(8) 0.5528(4)
C42 C 0.0269(7) 0.3373(8) 0.5017(4)
C43 C -0.0930(10) 0.2841(11) 0.5177(7)
H23 H -0.1045 0.3237 0.5652
C44 C -0.1967(12) 0.1739(12) 0.4656(8)
H24 H -0.2778 0.1408 0.4775
C45 C -0.1816(11) 0.1169(11) 0.4008(8)
H25 H -0.2483 0.0401 0.3649
C46 C -0.0606(8) 0.1768(9) 0.3880(6)
H26 H -0.0483 0.1393 0.3402
Dy1 Dy 0.16790(3) 0.19634(3) 0.207310(15)
Mn1 Mn 0.23436(10) 0.39444(10) 0.41347(5)
Mn2 Mn 1.0000 1.0000 0.0000
N1 N 0.2500(6) 0.5010(6) 0.5267(3)
N2 N 0.0409(6) 0.2833(6) 0.4372(4)
O1 O 0.4232(5) 0.5324(5) 0.4095(2)
O2 O 0.3316(5) 0.3847(5) 0.2982(3)
O3 O 0.8777(5) 0.8944(5) 0.0595(2)
O4 O 0.9809(5) 1.0146(5) 0.1821(3)
O5 O 1.0446(5) 0.2911(5) 0.2490(3)
O6 O 1.1281(5) 0.4717(5) 0.3404(2)
O7 O 0.7847(6) 0.6567(6) -0.1321(3)
O8 O 0.9789(5) 0.8204(5) -0.0689(2)
O9 O 0.2159(5) 0.1233(5) 0.3160(3)
O10 O 0.2963(5) 0.2538(5) 0.4329(3)
O11 O 1.1851(4) 1.0555(5) 0.1008(2)
O12 O 1.3651(5) 1.1702(7) 0.2016(3)
C1A C 1.5770(7) 1.5084(7) -0.3424(4)
C2A C 1.4696(7) 1.4247(7) -0.3147(3)
C3A C 1.4861(8) 1.4480(8) -0.2364(4)
H1A H 1.5598 1.5196 -0.2013
C4A C 1.3900(7) 1.3621(8) -0.2092(4)
C5A C 1.4072(8) 1.3791(9) -0.1281(4)
H2A H 1.4806 1.4496 -0.0920
C6A C 1.3159(8) 1.2917(9) -0.1036(4)
H3A H 1.3277 1.3027 -0.0508
C7A C 1.2050(7) 1.1862(7) -0.1571(4)
C8A C 1.1836(7) 1.1689(7) -0.2353(4)
H4A H 1.1086 1.0984 -0.2699
C9A C 1.2747(6) 1.2572(7) -0.2635(3)
C10A C 1.2580(7) 1.2409(7) -0.3435(4)
H5A H 1.1815 1.1748 -0.3794
C11A C 1.3548(7) 1.3225(7) -0.3680(3)
H6A H 1.3445 1.3102 -0.4208
C12A C 1.1084(7) 1.0853(7) -0.1300(4)
C13A C 0.9316(7) 1.5944(8) -0.2712(4)
C14A C 0.9713(9) 1.5294(9) -0.2135(4)
C15A C 0.8875(12) 1.3953(12) -0.2278(7)
H7A H 0.8202 1.3535 -0.2734
C16A C 0.8937(15) 1.3139(14) -0.1796(8)
H8A H 0.8355 1.2259 -0.1938
C17A C 0.9892(11) 1.3767(10) -0.1147(6)
C18A C 0.9955(14) 1.2975(12) -0.0538(5)
H9A H 0.9316 1.2126 -0.0646
C19A C 1.0950(11) 1.3568(10) 0.0128(5)
C20A C 1.1865(14) 1.4846(13) 0.0263(8)
H10A H 1.2552 1.5230 0.0711
C21A C 1.1856(12) 1.5635(12) -0.0220(6)
H11A H 1.2478 1.6498 -0.0088
C22A C 1.0865(8) 1.5016(9) -0.0886(5)
C23A C 1.0757(11) 1.5905(12) -0.1450(4)
H12A H 1.1366 1.6774 -0.1317
C24A C 1.1127(8) 1.2898(8) 0.0741(4)
C25A C 1.6882(7) 0.9022(8) -0.1347(4)
C26A C 1.6047(7) 0.9385(9) -0.0949(4)
C27A C 1.4737(9) 0.9157(12) -0.1394(4)
H13A H 1.4510 0.8818 -0.1934
C28A C 1.3915(10) 0.9423(13) -0.1041(5)
H14A H 1.3105 0.9316 -0.1306
C29A C 1.6492(8) 0.9872(10) -0.0168(4)
H15A H 1.7332 1.0033 0.0082
C30A C 1.4341(7) 0.9890(10) -0.0224(4)
C31A C 0.7158(6) -0.1588(7) 0.6140(4)
C32A C 0.6427(7) -0.0836(7) 0.5827(3)
C33A C 0.6551(8) 0.0273(8) 0.6310(4)
H16A H 0.7060 0.0608 0.6820
C34A C 0.5636(7) -0.1231(7) 0.5068(3)
H17A H 0.5544 -0.2010 0.4722
C35A C 0.4934(6) -0.0556(6) 0.4754(3)
C36A C 0.5888(8) 0.0937(8) 0.6034(4)
H18A H 0.5981 0.1706 0.6392
C37A C 1.6392(8) 1.3927(8) -0.5714(4)
H19A H 1.5683 1.3622 -0.5498
C38A C 1.6274(10) 1.3304(10) -0.6446(5)
H20A H 1.5503 1.2576 -0.6753
C39A C 1.7324(12) 1.3779(13) -0.6718(6)
H21A H 1.7282 1.3370 -0.7232
C40A C 1.8475(10) 1.4856(11) -0.6268(5)
H22A H 1.9190 1.5158 -0.6480
C41A C 1.8559(8) 1.5463(8) -0.5528(4)
C42A C 1.9731(7) 1.6627(8) -0.5017(4)
C43A C 2.0930(10) 1.7159(11) -0.5177(7)
H23A H 2.1045 1.6763 -0.5652
C44A C 2.1967(12) 1.8261(12) -0.4656(8)
H24A H 2.2778 1.8592 -0.4775
C45A C 2.1816(11) 1.8831(11) -0.4008(8)
H25A H 2.2483 1.9599 -0.3649
C46A C 2.0606(8) 1.8232(9) -0.3880(6)
H26A H 2.0483 1.8607 -0.3402
Dy1A Dy 1.83210(3) 1.80366(3) -0.207310(15)
Dy1_2 Dy 1.16790(3) 1.19634(3) 0.207310(15)
Dy1_3 Dy 1.16790(3) 0.19634(3) 0.207310(15)
Dy1A_2 Dy 0.83210(3) 0.80366(3) -0.207310(15)
Dy1A_3 Dy 1.83210(3) 0.80366(3) -0.207310(15)
Dy1A_4 Dy 0.83210(3) -0.19634(3) 0.792690(15)
Dy1A_5 Dy 0.83210(3) 1.80366(3) -0.207310(15)
Mn1A Mn 1.76564(10) 1.60556(10) -0.41347(5)
Mn1_2 Mn 1.23436(10) 0.39444(10) 0.41347(5)
Mn1A_2 Mn 0.76564(10) -0.39444(10) 0.58653(5)
Mn1A_3 Mn 0.76564(10) 1.60556(10) -0.41347(5)
Mn2_2 Mn 2.0000 1.0000 0.0000
N1A N 1.7500(6) 1.4990(6) -0.5267(3)
N2A N 1.9591(6) 1.7167(6) -0.4372(4)
O1A O 1.5768(5) 1.4676(5) -0.4095(2)
O2A O 1.6684(5) 1.6153(5) -0.2982(3)
O3A O 1.1223(5) 1.1056(5) -0.0595(2)
O4A O 1.0191(5) 0.9854(5) -0.1821(3)
O4_2 O -0.0191(5) 0.0146(5) 0.1821(3)
O4A_2 O 2.0191(5) 1.9854(5) -0.1821(3)
O5A O 0.9554(5) 1.7089(5) -0.2490(3)
O5_2 O 0.0446(5) 0.2911(5) 0.2490(3)
O5A_2 O 1.9554(5) 1.7089(5) -0.2490(3)
O6A O 0.8719(5) 1.5283(5) -0.3404(2)
O6_2 O 0.1281(5) 0.4717(5) 0.3404(2)
O6A_2 O 1.8719(5) 1.5283(5) -0.3404(2)
O7A O 1.2153(6) 1.3433(6) 0.1321(3)
O7A_2 O 0.2153(6) 0.3433(6) 0.1321(3)
O7_2 O 1.7847(6) 1.6567(6) -0.1321(3)
O8A O 1.0211(5) 1.1796(5) 0.0689(2)
O8A_2 O 0.0211(5) 0.1796(5) 0.0689(2)
O8_2 O 1.9789(5) 1.8204(5) -0.0689(2)
O9A O 0.7841(5) -0.1233(5) 0.6840(3)
O9A_2 O 1.7841(5) 1.8767(5) -0.3160(3)
O10A O 0.7037(5) -0.2538(5) 0.5671(3)
O10A_2 O 1.7037(5) 1.7462(5) -0.4329(3)
O11A O 1.8149(4) 0.9445(5) -0.1008(2)
O11_2 O 0.1851(4) 0.0555(5) 0.1008(2)
O11A_2 O 0.8149(4) 0.9445(5) -0.1008(2)
O11A_3 O 1.8149(4) 1.9445(5) -0.1008(2)
O12A O 1.6349(5) 0.8298(7) -0.2016(3)
O12_2 O 0.3651(5) 0.1702(7) 0.2016(3)
O12A_2 O 1.6349(5) 1.8298(7) -0.2016(3)
loop_
_geom_bond_atom_site_label_1
_geom_bond_atom_site_label_2
_geom_bond_site_symmetry_1
_geom_bond_site_symmetry_2
C1 C2 1_555 1_555
C2 C3 1_555 1_555
C3 H1 1_555 1_555
C4 C3 1_555 1_555
C5 C4 1_555 1_555
H2 C5 1_555 1_555
C6 C5 1_555 1_555
H3 C6 1_555 1_555
C7 C6 1_555 1_555
C8 C7 1_555 1_555
H4 C8 1_555 1_555
C9 C4 1_555 1_555
C10 C9 1_555 1_555
H5 C10 1_555 1_555
C11 C2 1_555 1_555
H6 C11 1_555 1_555
C12 C7 1_555 1_555
C13 C14 1_555 1_555
C14 C15 1_555 1_555
C15 H7 1_555 1_555
C16 C15 1_555 1_555
H8 C16 1_555 1_555
C17 C16 1_555 1_555
C18 C17 1_555 1_555
H9 C18 1_555 1_555
C19 C18 1_555 1_555
C20 C19 1_555 1_555
H10 C20 1_555 1_555
C21 C20 1_555 1_555
H11 C21 1_555 1_555
C22 C17 1_555 1_555
C23 C14 1_555 1_555
H12 C23 1_555 1_555
C24 C19 1_555 1_555
C25 C26 1_555 1_555
C26 C27 1_555 1_555
C27 H13 1_555 1_555
C28 C27 1_555 1_555
H14 C28 1_555 1_555
C29 C26 1_555 1_555
H15 C29 1_555 1_555
C30 C28 1_555 1_555
C31 C32 1_555 1_555
C32 C33 1_555 1_555
C33 H16 1_555 1_555
C34 C32 1_555 1_555
H17 C34 1_555 1_555
C35 C34 1_555 1_555
C36 C33 1_555 1_555
H18 C36 1_555 1_555
C37 H19 1_555 1_555
C38 C37 1_555 1_555
H20 C38 1_555 1_555
C39 C38 1_555 1_555
H21 C39 1_555 1_555
C40 C39 1_555 1_555
H22 C40 1_555 1_555
C41 C40 1_555 1_555
C42 C41 1_555 1_555
C43 C42 1_555 1_555
H23 C43 1_555 1_555
C44 C43 1_555 1_555
H24 C44 1_555 1_555
C45 C44 1_555 1_555
H25 C45 1_555 1_555
C46 C45 1_555 1_555
H26 C46 1_555 1_555
Dy1 O2 1_555 1_555
Mn1 N1 1_555 1_555
Mn2 O3 1_555 1_555
N1 C37 1_555 1_555
N2 C42 1_555 1_555
O1 C1 1_555 1_555
O2 C1 1_555 1_555
O3 C12 1_555 1_555
O4 C12 1_555 1_555
O5 C13 1_555 1_555
O6 C13 1_555 1_555
O7 C24 1_555 1_555
O8 C24 1_555 1_555
O9 C31 1_555 1_555
O10 C31 1_555 1_555
O11 C25 1_555 1_555
O12 C25 1_555 1_555
C1A C2A 1_555 1_555
C2A C3A 1_555 1_555
C3A H1A 1_555 1_555
C4A C3A 1_555 1_555
C5A C4A 1_555 1_555
H2A C5A 1_555 1_555
C6A C5A 1_555 1_555
H3A C6A 1_555 1_555
C7A C6A 1_555 1_555
C8A C7A 1_555 1_555
H4A C8A 1_555 1_555
C9A C4A 1_555 1_555
C10A C9A 1_555 1_555
H5A C10A 1_555 1_555
C11A C2A 1_555 1_555
H6A C11A 1_555 1_555
C12A C7A 1_555 1_555
C13A C14A 1_555 1_555
C14A C15A 1_555 1_555
C15A H7A 1_555 1_555
C16A C15A 1_555 1_555
H8A C16A 1_555 1_555
C17A C16A 1_555 1_555
C18A C17A 1_555 1_555
H9A C18A 1_555 1_555
C19A C18A 1_555 1_555
C20A C19A 1_555 1_555
H10A C20A 1_555 1_555
C21A C20A 1_555 1_555
H11A C21A 1_555 1_555
C22A C17A 1_555 1_555
C23A C14A 1_555 1_555
H12A C23A 1_555 1_555
C24A C19A 1_555 1_555
C25A C26A 1_555 1_555
C26A C27A 1_555 1_555
C27A H13A 1_555 1_555
C28A C27A 1_555 1_555
H14A C28A 1_555 1_555
C29A C30 1_555 1_555
H15A C29A 1_555 1_555
C30A C29 1_555 1_555
C31A C32A 1_555 1_555
C32A C33A 1_555 1_555
C33A H16A 1_555 1_555
C34A C32A 1_555 1_555
H17A C34A 1_555 1_555
C35A C35 1_555 1_555
C36A C35 1_555 1_555
H18A C36A 1_555 1_555
C37A H19A 1_555 1_555
C38A C37A 1_555 1_555
H20A C38A 1_555 1_555
C39A C38A 1_555 1_555
H21A C39A 1_555 1_555
C40A C39A 1_555 1_555
H22A C40A 1_555 1_555
C41A C40A 1_555 1_555
C42A C41A 1_555 1_555
C43A C42A 1_555 1_555
H23A C43A 1_555 1_555
C44A C43A 1_555 1_555
H24A C44A 1_555 1_555
C45A C44A 1_555 1_555
H25A C45A 1_555 1_555
C46A C45A 1_555 1_555
H26A C46A 1_555 1_555
Dy1A O2A 1_555 1_555
Dy1_2 O4 1_555 1_555
Dy1_3 O5 1_555 1_555
Dy1A_2 O7 1_555 1_555
Dy1A_3 O11A 1_555 1_555
Dy1A_4 O9A 1_555 1_555
Dy1A_5 O5A 1_555 1_555
Mn1A N1A 1_555 1_555
Mn1_2 O6 1_555 1_555
Mn1A_2 O10A 1_555 1_555
Mn1A_3 O6A 1_555 1_555
Mn2_2 O11A 1_555 1_555
N1A C37A 1_555 1_555
N2A C42A 1_555 1_555
O1A C1A 1_555 1_555
O2A C1A 1_555 1_555
O3A Mn2 1_555 1_555
O4A C12A 1_555 1_555
O4_2 Dy1 1_555 1_555
O4A_2 Dy1A 1_555 1_555
O5A C13A 1_555 1_555
O5_2 Dy1 1_555 1_555
O5A_2 Dy1A 1_555 1_555
O6A C13A 1_555 1_555
O6_2 Mn1 1_555 1_555
O6A_2 Mn1A 1_555 1_555
O7A C24A 1_555 1_555
O7A_2 Dy1 1_555 1_555
O7_2 Dy1A 1_555 1_555
O8A Mn2 1_555 1_555
O8A_2 Dy1 1_555 1_555
O8_2 Dy1A 1_555 1_555
O9A C31A 1_555 1_555
O9A_2 Dy1A 1_555 1_555
O10A C31A 1_555 1_555
O10A_2 Mn1A 1_555 1_555
O11A C25A 1_555 1_555
O11_2 Dy1 1_555 1_555
O11A_2 Mn2 1_555 1_555
O11A_3 Dy1A 1_555 1_555
O12A C25A 1_555 1_555
O12_2 Dy1 1_555 1_555
O12A_2 Dy1A 1_555 1_555
C8 C9 1_555 1_555
C10 C11 1_555 1_555
C21 C22 1_555 1_555
C22 C23 1_555 1_555
C30 C30A 1_555 1_555
C36 C35A 1_555 1_555
C41 N1 1_555 1_555
C46 N2 1_555 1_555
Dy1 O9 1_555 1_555
Mn1 N2 1_555 1_555
Mn1 O1 1_555 1_555
Mn1 O2 1_555 1_555
Mn1 O10 1_555 1_555
Mn2 O8 1_555 1_555
Mn2 O11 1_555 1_555
O8 Dy1A_2 1_555 1_555
O11 Dy1_2 1_555 1_555
O12 Dy1_2 1_555 1_555
C8A C9A 1_555 1_555
C10A C11A 1_555 1_555
C12A O3A 1_555 1_555
C21A C22A 1_555 1_555
C22A C23A 1_555 1_555
C24A O8A 1_555 1_555
C26A C29A 1_555 1_555
C28A C30A 1_555 1_555
C33A C36A 1_555 1_555
C34A C35A 1_555 1_555
C41A N1A 1_555 1_555
C46A N2A 1_555 1_555
Dy1_2 O7A 1_555 1_555
Dy1_2 O8A 1_555 1_555
Dy1A_2 O4A 1_555 1_555
Dy1A_2 O11A_2 1_555 1_555
Dy1A_3 O12A 1_555 1_555
Mn1A N2A 1_555 1_555
Mn1A O1A 1_555 1_555
Mn1A O2A 1_555 1_555

#END
