
#######################################################################
#
#                 Cambridge Crystallographic Data Centre
#                                CCDC 
#
#######################################################################
#
# If this CIF has been generated from an entry in the Cambridge 
# Structural Database, then it will include bibliographic, chemical, 
# crystal, experimental, refinement or atomic coordinate data resulting 
# from the CCDC's data processing and validation procedures.
#
#######################################################################

data_GUKTAI
_symmetry_cell_setting           monoclinic
_symmetry_space_group_name_H-M   'P 21/n'
_symmetry_Int_Tables_number      14
_space_group_name_Hall           '-P 2yn'
loop_
_symmetry_equiv_pos_site_id
_symmetry_equiv_pos_as_xyz
1 x,y,z
2 1/2-x,1/2+y,1/2-z
3 -x,-y,-z
4 1/2+x,1/2-y,1/2+z
_cell_length_a                   11.306(11)
_cell_length_b                   26.46(3)
_cell_length_c                   16.820(17)
_cell_angle_alpha                90
_cell_angle_beta                 107.31(8)
_cell_angle_gamma                90
_cell_volume                     4803.92
loop_
_atom_site_label
_atom_site_type_symbol
_atom_site_fract_x
_atom_site_fract_y
_atom_site_fract_z
Ni1 Ni 0.22211(4) 0.134638(18) 0.13573(3)
Ni2 Ni -0.25773(4) 0.358850(18) 0.17476(3)
V1 V 0.20813(5) 0.27213(2) 0.14423(4)
V2 V 0.07594(6) 0.34730(3) 0.25602(4)
V3 V 0.23030(5) -0.05353(2) 0.26977(4)
V4 V 0.40224(5) 0.36440(2) 0.11944(4)
V5 V 0.14562(6) 0.00097(2) 0.08161(4)
O1 O 0.2396(2) 0.21029(10) 0.15446(17)
O2 O 0.1901(2) 0.05968(10) 0.11102(17)
O3 O -0.0719(2) 0.35249(11) 0.20058(17)
O4 O 0.5553(2) 0.36285(10) 0.14658(18)
O5 O 0.1465(3) 0.29227(11) 0.22687(19)
O6 O 0.3494(3) 0.30657(11) 0.1527(2)
O7 O 0.1608(3) 0.40364(12) 0.2441(2)
O8 O 0.1442(3) -0.08149(11) 0.32947(18)
O9 O 0.1319(2) -0.03334(11) 0.17284(17)
O10 O 0.0000 0.0000 0.0000
O11 O 0.1076(3) 0.28277(12) 0.05484(19)
O12 O 0.0850(3) 0.34169(13) 0.35307(19)
O13 O 0.3018(3) -0.00517(12) 0.31839(19)
O14 O 0.3486(3) 0.37119(12) 0.01898(18)
O15 O 0.2526(3) -0.02529(12) 0.04959(19)
N1 N 0.3687(3) 0.13401(13) 0.0791(2)
N2 N 0.0871(3) 0.14800(12) 0.0228(2)
N3 N 0.3592(3) 0.12201(13) 0.2500(2)
N4 N 0.0878(3) 0.13084(12) 0.2011(2)
N5 N -0.2764(3) 0.31098(13) 0.0720(2)
N6 N -0.2622(3) 0.29808(13) 0.2554(2)
N7 N -0.2377(3) 0.41293(13) 0.2699(2)
N8 N -0.2558(3) 0.42055(13) 0.0949(2)
C1 C 0.3959(4) 0.09233(17) 0.0425(3)
H1 H 0.3431 0.0646 0.0359
C2 C 0.4991(4) 0.08859(18) 0.0142(3)
H2 H 0.5152 0.0589 -0.0103
C3 C 0.5776(4) 0.12967(18) 0.0228(3)
H3 H 0.6474 0.1282 0.0044
C4 C 0.5496(4) 0.17316(18) 0.0597(3)
H4 H 0.6000 0.2016 0.0659
C5 C 0.4451(4) 0.17377(16) 0.0874(3)
H5 H 0.4276 0.2029 0.1126
C6 C -0.0237(3) 0.12430(14) 0.0011(2)
H6 H -0.0402 0.1016 0.0387
C7 C -0.1139(4) 0.13206(15) -0.0739(3)
H7 H -0.1900 0.1157 -0.0859
C8 C -0.0879(4) 0.16492(16) -0.1311(2)
H8 H -0.1454 0.1703 -0.1829
C9 C 0.0253(4) 0.18950(16) -0.1095(3)
H9 H 0.0449 0.2118 -0.1464
C10 C 0.1090(4) 0.18034(15) -0.0320(2)
H10 H 0.1840 0.1976 -0.0175
C11 C 0.4373(4) 0.08269(16) 0.2611(3)
H11 H 0.4259 0.0590 0.2187
C12 C 0.5347(4) 0.07595(19) 0.3338(3)
H12 H 0.5883 0.0486 0.3391
C13 C 0.5508(4) 0.1103(2) 0.3977(3)
H13 H 0.6156 0.1067 0.4466
C14 C 0.4687(4) 0.15040(19) 0.3879(3)
H14 H 0.4768 0.1739 0.4303
C15 C 0.3745(4) 0.15469(17) 0.3136(3)
H15 H 0.3191 0.1814 0.3074
C16 C -0.0038(4) 0.16509(16) 0.1886(3)
H16 H -0.0025 0.1931 0.1554
C17 C -0.0997(4) 0.1603(2) 0.2234(3)
H17 H -0.1615 0.1848 0.2137
C18 C -0.1027(5) 0.1189(2) 0.2725(4)
H18 H -0.1669 0.1147 0.2960
C19 C -0.0079(5) 0.0837(2) 0.2862(4)
H19 H -0.0069 0.0556 0.3198
C20 C 0.0853(4) 0.09083(17) 0.2491(3)
H20 H 0.1482 0.0669 0.2579
C21 C -0.3685(4) 0.31751(16) 0.0006(3)
H21 H -0.4322 0.3398 0.0005
C22 C -0.3730(4) 0.29269(18) -0.0724(3)
H22 H -0.4379 0.2986 -0.1206
C23 C -0.2796(4) 0.25881(17) -0.0732(3)
H23 H -0.2813 0.2412 -0.1214
C24 C -0.1841(4) 0.25197(17) -0.0003(3)
H24 H -0.1194 0.2299 0.0010
C25 C -0.1856(4) 0.27822(15) 0.0704(3)
H25 H -0.1212 0.2731 0.1190
C26 C -0.1789(3) 0.29457(16) 0.3315(2)
H26 H -0.1210 0.3203 0.3490
C27 C -0.1758(4) 0.25430(17) 0.3848(3)
H27 H -0.1170 0.2532 0.4369
C28 C -0.2616(4) 0.21569(16) 0.3593(3)
H28 H -0.2610 0.1881 0.3937
C29 C -0.3487(4) 0.21897(16) 0.2811(3)
H29 H -0.4077 0.1938 0.2624
C30 C -0.3457(3) 0.26069(15) 0.2315(2)
H30 H -0.4042 0.2628 0.1794
C31 C -0.1479(4) 0.44801(16) 0.2832(3)
H31 H -0.0856 0.4437 0.2580
C32 C -0.1438(4) 0.49002(18) 0.3324(3)
H32 H -0.0801 0.5135 0.3401
C33 C -0.2363(4) 0.49668(18) 0.3702(3)
H33 H -0.2364 0.5248 0.4034
C34 C -0.3288(4) 0.46039(19) 0.3572(3)
H34 H -0.3919 0.4637 0.3819
C35 C -0.3259(4) 0.41952(17) 0.3075(3)
H35 H -0.3879 0.3953 0.2995
C36 C -0.3334(4) 0.45986(16) 0.0891(3)
H36 H -0.3902 0.4588 0.1193
C37 C -0.3324(4) 0.50182(17) 0.0401(3)
H37 H -0.3855 0.5289 0.0388
C38 C -0.2505(4) 0.50264(17) -0.0071(3)
H38 H -0.2492 0.5298 -0.0419
C39 C -0.1706(5) 0.46215(18) -0.0013(3)
H39 H -0.1137 0.4620 -0.0314
C40 C -0.1767(4) 0.42207(17) 0.0500(3)
H40 H -0.1232 0.3949 0.0533
Ni1B Ni -0.22211(4) -0.134638(18) -0.13573(3)
Ni2_2 Ni 0.74227(4) 0.358850(18) 0.17476(3)
V1B V -0.20813(5) -0.27213(2) -0.14423(4)
V1A V 0.29187(5) -0.22787(2) 0.35577(4)
V2A V 0.42406(6) -0.15270(3) 0.24398(4)
V2_2 V 1.07594(6) 0.34730(3) 0.25602(4)
V3A V 0.26970(5) 0.44647(2) 0.23023(4)
V3B V -0.23030(5) 0.05353(2) -0.26977(4)
V4A V 0.09776(5) -0.13560(2) 0.38056(4)
V4_2 V -0.59776(5) 0.36440(2) 0.11944(4)
V5B V -0.14562(6) -0.00097(2) -0.08161(4)
O1B O -0.2396(2) -0.21029(10) -0.15446(17)
O2B O -0.1901(2) -0.05968(10) -0.11102(17)
O3_2 O 0.9281(2) 0.35249(11) 0.20058(17)
O3A O 0.5719(2) -0.14751(11) 0.29942(17)
O4_2 O -0.4447(2) 0.36285(10) 0.14658(18)
O4A O -0.0553(2) -0.13715(10) 0.35342(18)
O5A O 0.3535(3) -0.20773(11) 0.27313(19)
O5B O -0.1465(3) -0.29227(11) -0.22687(19)
O6A O 0.1506(3) -0.19343(11) 0.3473(2)
O6B O -0.3494(3) -0.30657(11) -0.1527(2)
O7A O 0.3392(3) -0.09636(12) 0.2559(2)
O8A O 0.3558(3) 0.41851(11) 0.17053(18)
O9B O -0.1319(2) 0.03334(11) -0.17284(17)
O9A O 0.3681(2) 0.46666(11) 0.32716(17)
O11B O -0.1076(3) -0.28277(12) -0.05484(19)
O12A O 0.4150(3) -0.15831(13) 0.14693(19)
O13A O 0.1982(3) 0.49483(12) 0.18161(19)
O14A O 0.1514(3) -0.12881(12) 0.48102(18)
O15B O -0.2526(3) 0.02529(12) -0.04959(19)
N1B N -0.3687(3) -0.13401(13) -0.0791(2)
N2B N -0.0871(3) -0.14800(12) -0.0228(2)
N3B N -0.3592(3) -0.12201(13) -0.2500(2)
N4B N -0.0878(3) -0.13084(12) -0.2011(2)
N5_2 N 0.7236(3) 0.31098(13) 0.0720(2)
N6_2 N 0.7378(3) 0.29808(13) 0.2554(2)
N7_2 N 0.7623(3) 0.41293(13) 0.2699(2)
N8_2 N 0.7442(3) 0.42055(13) 0.0949(2)
C1B C -0.3959(4) -0.09233(17) -0.0425(3)
H1B H -0.3431 -0.0646 -0.0359
C2B C -0.4991(4) -0.08859(18) -0.0142(3)
H2B H -0.5152 -0.0589 0.0103
C3B C -0.5776(4) -0.12967(18) -0.0228(3)
H3B H -0.6474 -0.1282 -0.0044
C4B C -0.5496(4) -0.17316(18) -0.0597(3)
H4B H -0.6000 -0.2016 -0.0659
C5B C -0.4451(4) -0.17377(16) -0.0874(3)
H5B H -0.4276 -0.2029 -0.1126
C6B C 0.0237(3) -0.12430(14) -0.0011(2)
H6B H 0.0402 -0.1016 -0.0387
C7B C 0.1139(4) -0.13206(15) 0.0739(3)
H7B H 0.1900 -0.1157 0.0859
C8B C 0.0879(4) -0.16492(16) 0.1311(2)
H8B H 0.1454 -0.1703 0.1829
C9B C -0.0253(4) -0.18950(16) 0.1095(3)
H9B H -0.0449 -0.2118 0.1464
C10B C -0.1090(4) -0.18034(15) 0.0320(2)
H10B H -0.1840 -0.1976 0.0175
C11B C -0.4373(4) -0.08269(16) -0.2611(3)
H11B H -0.4259 -0.0590 -0.2187
C12B C -0.5347(4) -0.07595(19) -0.3338(3)
H12B H -0.5883 -0.0486 -0.3391
C13B C -0.5508(4) -0.1103(2) -0.3977(3)
H13B H -0.6156 -0.1067 -0.4466
C14B C -0.4687(4) -0.15040(19) -0.3879(3)
H14B H -0.4768 -0.1739 -0.4303
C15B C -0.3745(4) -0.15469(17) -0.3136(3)
H15B H -0.3191 -0.1814 -0.3074
C16B C 0.0038(4) -0.16509(16) -0.1886(3)
H16B H 0.0025 -0.1931 -0.1554
C17B C 0.0997(4) -0.1603(2) -0.2234(3)
H17B H 0.1615 -0.1848 -0.2137
C18B C 0.1027(5) -0.1189(2) -0.2725(4)
H18B H 0.1669 -0.1147 -0.2960
C19B C 0.0079(5) -0.0837(2) -0.2862(4)
H19B H 0.0069 -0.0556 -0.3198
C20B C -0.0853(4) -0.09083(17) -0.2491(3)
H20B H -0.1482 -0.0669 -0.2579
C21_2 C 0.6315(4) 0.31751(16) 0.0006(3)
H21_2 H 0.5678 0.3398 0.0005
C22_2 C 0.6270(4) 0.29269(18) -0.0724(3)
H22_2 H 0.5621 0.2986 -0.1206
C23_2 C 0.7204(4) 0.25881(17) -0.0732(3)
H23_2 H 0.7187 0.2412 -0.1214
C24_2 C 0.8159(4) 0.25197(17) -0.0003(3)
H24_2 H 0.8806 0.2299 0.0010
C25_2 C 0.8144(4) 0.27822(15) 0.0704(3)
H25_2 H 0.8788 0.2731 0.1190
C26_2 C 0.8211(3) 0.29457(16) 0.3315(2)
H26_2 H 0.8790 0.3203 0.3490
C27_2 C 0.8242(4) 0.25430(17) 0.3848(3)
H27_2 H 0.8830 0.2532 0.4369
C28_2 C 0.7384(4) 0.21569(16) 0.3593(3)
H28_2 H 0.7390 0.1881 0.3937
C29_2 C 0.6513(4) 0.21897(16) 0.2811(3)
H29_2 H 0.5923 0.1938 0.2624
C30_2 C 0.6543(3) 0.26069(15) 0.2315(2)
H30_2 H 0.5958 0.2628 0.1794
C31_2 C 0.8521(4) 0.44801(16) 0.2832(3)
H31_2 H 0.9144 0.4437 0.2580
C32_2 C 0.8562(4) 0.49002(18) 0.3324(3)
H32_2 H 0.9199 0.5135 0.3401
C33_2 C 0.7637(4) 0.49668(18) 0.3702(3)
H33_2 H 0.7636 0.5248 0.4034
C34_2 C 0.6712(4) 0.46039(19) 0.3572(3)
H34_2 H 0.6081 0.4637 0.3819
C35_2 C 0.6741(4) 0.41952(17) 0.3075(3)
H35_2 H 0.6121 0.3953 0.2995
C36_2 C 0.6666(4) 0.45986(16) 0.0891(3)
H36_2 H 0.6098 0.4588 0.1193
C37_2 C 0.6676(4) 0.50182(17) 0.0401(3)
H37_2 H 0.6145 0.5289 0.0388
C38_2 C 0.7495(4) 0.50264(17) -0.0071(3)
H38_2 H 0.7508 0.5298 -0.0419
C39_2 C 0.8294(5) 0.46215(18) -0.0013(3)
H39_2 H 0.8863 0.4620 -0.0314
C40_2 C 0.8233(4) 0.42207(17) 0.0500(3)
H40_2 H 0.8768 0.3949 0.0533
loop_
_geom_bond_atom_site_label_1
_geom_bond_atom_site_label_2
_geom_bond_site_symmetry_1
_geom_bond_site_symmetry_2
Ni1 O1 1_555 1_555
Ni2 O3 1_555 1_555
V1 O1 1_555 1_555
V2 O3 1_555 1_555
V3 O8 1_555 1_555
V4 O4 1_555 1_555
V5 O2 1_555 1_555
O2 Ni1 1_555 1_555
O4 Ni2_2 1_555 1_555
O5 V1 1_555 1_555
O6 V1 1_555 1_555
O7 V2 1_555 1_555
O8 V4A 1_555 1_555
O9 V3 1_555 1_555
O10 V5 1_555 1_555
O11 V1 1_555 1_555
O12 V2 1_555 1_555
O13 V3 1_555 1_555
O14 V4 1_555 1_555
O15 V5 1_555 1_555
N1 Ni1 1_555 1_555
N2 Ni1 1_555 1_555
N3 Ni1 1_555 1_555
N4 Ni1 1_555 1_555
N5 Ni2 1_555 1_555
N6 Ni2 1_555 1_555
N7 Ni2 1_555 1_555
N8 Ni2 1_555 1_555
C1 N1 1_555 1_555
H1 C1 1_555 1_555
C2 C1 1_555 1_555
H2 C2 1_555 1_555
C3 C2 1_555 1_555
H3 C3 1_555 1_555
C4 C3 1_555 1_555
H4 C4 1_555 1_555
C5 N1 1_555 1_555
H5 C5 1_555 1_555
C6 N2 1_555 1_555
H6 C6 1_555 1_555
C7 C6 1_555 1_555
H7 C7 1_555 1_555
C8 C7 1_555 1_555
H8 C8 1_555 1_555
C9 C8 1_555 1_555
H9 C9 1_555 1_555
C10 N2 1_555 1_555
H10 C10 1_555 1_555
C11 N3 1_555 1_555
H11 C11 1_555 1_555
C12 C11 1_555 1_555
H12 C12 1_555 1_555
C13 C12 1_555 1_555
H13 C13 1_555 1_555
C14 C13 1_555 1_555
H14 C14 1_555 1_555
C15 N3 1_555 1_555
H15 C15 1_555 1_555
C16 N4 1_555 1_555
H16 C16 1_555 1_555
C17 C16 1_555 1_555
H17 C17 1_555 1_555
C18 C17 1_555 1_555
H18 C18 1_555 1_555
C19 C18 1_555 1_555
H19 C19 1_555 1_555
C20 N4 1_555 1_555
H20 C20 1_555 1_555
C21 N5 1_555 1_555
H21 C21 1_555 1_555
C22 C21 1_555 1_555
H22 C22 1_555 1_555
C23 C22 1_555 1_555
H23 C23 1_555 1_555
C24 C23 1_555 1_555
H24 C24 1_555 1_555
C25 N5 1_555 1_555
H25 C25 1_555 1_555
C26 N6 1_555 1_555
H26 C26 1_555 1_555
C27 C26 1_555 1_555
H27 C27 1_555 1_555
C28 C27 1_555 1_555
H28 C28 1_555 1_555
C29 C28 1_555 1_555
H29 C29 1_555 1_555
C30 N6 1_555 1_555
H30 C30 1_555 1_555
C31 N7 1_555 1_555
H31 C31 1_555 1_555
C32 C31 1_555 1_555
H32 C32 1_555 1_555
C33 C32 1_555 1_555
H33 C33 1_555 1_555
C34 C33 1_555 1_555
H34 C34 1_555 1_555
C35 N7 1_555 1_555
H35 C35 1_555 1_555
C36 N8 1_555 1_555
H36 C36 1_555 1_555
C37 C36 1_555 1_555
H37 C37 1_555 1_555
C38 C37 1_555 1_555
H38 C38 1_555 1_555
C39 C38 1_555 1_555
H39 C39 1_555 1_555
C40 N8 1_555 1_555
H40 C40 1_555 1_555
Ni1B O1B 1_555 1_555
Ni2_2 O3_2 1_555 1_555
V1B O1B 1_555 1_555
V1A O5A 1_555 1_555
V2A O3A 1_555 1_555
V2_2 O3_2 1_555 1_555
V3A O7 1_555 1_555
V3B O9B 1_555 1_555
V4A O4A 1_555 1_555
V4_2 O4_2 1_555 1_555
V5B O10 1_555 1_555
O2B Ni1B 1_555 1_555
O4_2 Ni2 1_555 1_555
O5A V2A 1_555 1_555
O5B V1B 1_555 1_555
O6A V1A 1_555 1_555
O6B V1B 1_555 1_555
O7A V3 1_555 1_555
O8A V4 1_555 1_555
O9B V5B 1_555 1_555
O9A V3A 1_555 1_555
O11B V1B 1_555 1_555
O12A V2A 1_555 1_555
O13A V3A 1_555 1_555
O14A V4A 1_555 1_555
O15B V5B 1_555 1_555
N1B Ni1B 1_555 1_555
N2B Ni1B 1_555 1_555
N3B Ni1B 1_555 1_555
N4B Ni1B 1_555 1_555
N5_2 Ni2_2 1_555 1_555
N6_2 Ni2_2 1_555 1_555
N7_2 Ni2_2 1_555 1_555
N8_2 Ni2_2 1_555 1_555
C1B N1B 1_555 1_555
H1B C1B 1_555 1_555
C2B C1B 1_555 1_555
H2B C2B 1_555 1_555
C3B C2B 1_555 1_555
H3B C3B 1_555 1_555
C4B C3B 1_555 1_555
H4B C4B 1_555 1_555
C5B N1B 1_555 1_555
H5B C5B 1_555 1_555
C6B N2B 1_555 1_555
H6B C6B 1_555 1_555
C7B C6B 1_555 1_555
H7B C7B 1_555 1_555
C8B C7B 1_555 1_555
H8B C8B 1_555 1_555
C9B C8B 1_555 1_555
H9B C9B 1_555 1_555
C10B N2B 1_555 1_555
H10B C10B 1_555 1_555
C11B N3B 1_555 1_555
H11B C11B 1_555 1_555
C12B C11B 1_555 1_555
H12B C12B 1_555 1_555
C13B C12B 1_555 1_555
H13B C13B 1_555 1_555
C14B C13B 1_555 1_555
H14B C14B 1_555 1_555
C15B N3B 1_555 1_555
H15B C15B 1_555 1_555
C16B N4B 1_555 1_555
H16B C16B 1_555 1_555
C17B C16B 1_555 1_555
H17B C17B 1_555 1_555
C18B C17B 1_555 1_555
H18B C18B 1_555 1_555
C19B C18B 1_555 1_555
H19B C19B 1_555 1_555
C20B N4B 1_555 1_555
H20B C20B 1_555 1_555
C21_2 N5_2 1_555 1_555
H21_2 C21_2 1_555 1_555
C22_2 C21_2 1_555 1_555
H22_2 C22_2 1_555 1_555
C23_2 C22_2 1_555 1_555
H23_2 C23_2 1_555 1_555
C24_2 C23_2 1_555 1_555
H24_2 C24_2 1_555 1_555
C25_2 N5_2 1_555 1_555
H25_2 C25_2 1_555 1_555
C26_2 N6_2 1_555 1_555
H26_2 C26_2 1_555 1_555
C27_2 C26_2 1_555 1_555
H27_2 C27_2 1_555 1_555
C28_2 C27_2 1_555 1_555
H28_2 C28_2 1_555 1_555
C29_2 C28_2 1_555 1_555
H29_2 C29_2 1_555 1_555
C30_2 N6_2 1_555 1_555
H30_2 C30_2 1_555 1_555
C31_2 N7_2 1_555 1_555
H31_2 C31_2 1_555 1_555
C32_2 C31_2 1_555 1_555
H32_2 C32_2 1_555 1_555
C33_2 C32_2 1_555 1_555
H33_2 C33_2 1_555 1_555
C34_2 C33_2 1_555 1_555
H34_2 C34_2 1_555 1_555
C35_2 N7_2 1_555 1_555
H35_2 C35_2 1_555 1_555
C36_2 N8_2 1_555 1_555
H36_2 C36_2 1_555 1_555
C37_2 C36_2 1_555 1_555
H37_2 C37_2 1_555 1_555
C38_2 C37_2 1_555 1_555
H38_2 C38_2 1_555 1_555
C39_2 C38_2 1_555 1_555
H39_2 C39_2 1_555 1_555
C40_2 N8_2 1_555 1_555
H40_2 C40_2 1_555 1_555
V2 O5 1_555 1_555
V4 O6 1_555 1_555
V5 O9 1_555 1_555
C4 C5 1_555 1_555
C9 C10 1_555 1_555
C14 C15 1_555 1_555
C19 C20 1_555 1_555
C24 C25 1_555 1_555
C29 C30 1_555 1_555
C34 C35 1_555 1_555
C39 C40 1_555 1_555
V2A O7A 1_555 1_555
V3A O8A 1_555 1_555
V4A O6A 1_555 1_555
V5B O2B 1_555 1_555
C4B C5B 1_555 1_555
C9B C10B 1_555 1_555
C14B C15B 1_555 1_555
C19B C20B 1_555 1_555
C24_2 C25_2 1_555 1_555
C29_2 C30_2 1_555 1_555
C34_2 C35_2 1_555 1_555
C39_2 C40_2 1_555 1_555

#END
