
#######################################################################
#
#                 Cambridge Crystallographic Data Centre
#                                CCDC 
#
#######################################################################
#
# If this CIF has been generated from an entry in the Cambridge 
# Structural Database, then it will include bibliographic, chemical, 
# crystal, experimental, refinement or atomic coordinate data resulting 
# from the CCDC's data processing and validation procedures.
#
#######################################################################

data_GUKVIS
_symmetry_cell_setting           orthorhombic
_symmetry_space_group_name_H-M   'P n a m'
_symmetry_Int_Tables_number      62
_space_group_name_Hall           '-P 2c 2n'
loop_
_symmetry_equiv_pos_site_id
_symmetry_equiv_pos_as_xyz
1 x,y,z
2 -x,-y,1/2+z
3 1/2-x,1/2+y,-z
4 1/2+x,1/2-y,1/2-z
5 -x,-y,-z
6 x,y,1/2-z
7 1/2+x,1/2-y,z
8 1/2-x,1/2+y,1/2+z
_cell_length_a                   12.13199(12)
_cell_length_b                   6.619279(51)
_cell_length_c                   17.22708(15)
_cell_angle_alpha                90
_cell_angle_beta                 90
_cell_angle_gamma                90
_cell_volume                     1383.42
loop_
_atom_site_label
_atom_site_type_symbol
_atom_site_fract_x
_atom_site_fract_y
_atom_site_fract_z
Al1 Al 0.25299(65) 0.2593(15) -0.25000
Al2 Al 0.74829(73) 0.75606(98) -0.25000
O1 O 0.31801(79) -0.0102(17) -0.25000
O2 O 0.17995(78) 0.4991(18) -0.25000
O3 O 0.65243(76) 0.6558(11) -0.16946(47)
O4 O 0.64183(63) 0.3315(10) -0.18676(41)
O5 O 0.35583(79) 0.34156(82) -0.17074(42)
O6 O 0.32374(67) 0.67954(78) -0.15465(50)
C1 C 0.44047(47) 0.4877(31) -0.06708(33)
C2 C 0.55510(47) 0.4850(29) -0.07028(32)
C3 C 0.38017(49) 0.5027(32) 0.00216(48)
C4 C 0.61539(69) 0.4829(16) -0.14746(34)
C5 C 0.36800(62) 0.5115(18) -0.13826(37)
O3D O 0.34757(76) 0.3442(11) 0.16946(47)
O4D O 0.35817(63) 0.6685(10) 0.18676(41)
O5D O 0.64417(79) 0.65844(82) 0.17074(42)
O6D O 0.67626(67) 0.32046(78) 0.15465(50)
C1D C 0.55953(47) 0.5123(31) 0.06708(33)
C2D C 0.44490(47) 0.5150(29) 0.07028(32)
C3D C 0.61983(49) 0.4973(32) -0.00216(48)
C4D C 0.38461(69) 0.5171(16) 0.14746(34)
C5D C 0.63200(62) 0.4885(18) 0.13826(37)
Al1A Al 0.74701(65) 0.7407(15) 0.25000
Al1B Al 0.24701(65) 0.7593(15) 0.25000
Al1C Al 0.75299(65) 0.2407(15) -0.25000
Al2A Al 0.25171(73) 0.24394(98) 0.25000
Al2B Al 0.75171(73) 0.25606(98) 0.25000
Al2C Al 0.24829(73) -0.25606(98) -0.25000
Al2C_2 Al 0.24829(73) 0.74394(98) -0.25000
O1C O 0.81801(79) 0.5102(17) -0.25000
O2C O 0.67995(78) 1.0009(18) -0.25000
O3E O 0.65243(76) 0.6558(11) -0.33054(47)
O4C O 0.14183(63) 0.1685(10) -0.31324(41)
O4F O 0.14183(63) 0.1685(10) -0.18676(41)
O5E O 0.35583(79) 0.34156(82) -0.32926(42)
O6C O 0.82374(67) 0.82046(78) -0.34535(50)
O6F O 0.82374(67) 0.82046(78) -0.15465(50)
O7 O -0.0056(11) 0.4951(18) -0.85965(25)
O8 O 0.62661(69) 0.9731(33) -0.49069(92)
loop_
_geom_bond_atom_site_label_1
_geom_bond_atom_site_label_2
_geom_bond_site_symmetry_1
_geom_bond_site_symmetry_2
Al1 O1 1_555 1_555
Al2 O3 1_555 1_555
O1 Al2C 1_555 1_555
O2 Al1 1_555 1_555
O3 C4 1_555 1_555
O4 C4 1_555 1_555
O5 Al1 1_555 1_555
O6 C5 1_555 1_555
C1 C2 1_555 1_555
C2 C4 1_555 1_555
C3 C1 1_555 1_555
C5 O5 1_555 1_555
O3D C4D 1_555 1_555
O4D C4D 1_555 1_555
O5D C5D 1_555 1_555
O6D C5D 1_555 1_555
C1D C2D 1_555 1_555
C2D C3 1_555 1_555
C3D C2 1_555 1_555
C4D C2D 1_555 1_555
C5D C1D 1_555 1_555
Al1A O5D 1_555 1_555
Al1B O4D 1_555 1_555
Al1C O4 1_555 1_555
Al2A O3D 1_555 1_555
Al2B O6D 1_555 1_555
Al2C_2 O2 1_555 1_555
O1C Al2 1_555 1_555
O2C Al2 1_555 1_555
O3E Al2 1_555 1_555
O4C Al1 1_555 1_555
O4F Al1 1_555 1_555
O5E Al1 1_555 1_555
O6C Al2 1_555 1_555
O6F Al2 1_555 1_555
O6 Al2C_2 1_555 1_555
C1 C5 1_555 1_555
C1D C3D 1_555 1_555
Al1C O1C 1_555 1_555

#END
