
#######################################################################
#
#                 Cambridge Crystallographic Data Centre
#                                CCDC 
#
#######################################################################
#
# If this CIF has been generated from an entry in the Cambridge 
# Structural Database, then it will include bibliographic, chemical, 
# crystal, experimental, refinement or atomic coordinate data resulting 
# from the CCDC's data processing and validation procedures.
#
#######################################################################

data_GUKVEO
_symmetry_cell_setting           orthorhombic
_symmetry_space_group_name_H-M   'P b a m'
_symmetry_Int_Tables_number      55
_space_group_name_Hall           '-P 2 2ab'
loop_
_symmetry_equiv_pos_site_id
_symmetry_equiv_pos_as_xyz
1 x,y,z
2 -x,-y,z
3 1/2+x,1/2-y,-z
4 1/2-x,1/2+y,-z
5 -x,-y,-z
6 x,y,-z
7 1/2-x,1/2+y,z
8 1/2+x,1/2-y,z
_cell_length_a                   11.33220(25)
_cell_length_b                   6.61885(14)
_cell_length_c                   8.72167(23)
_cell_angle_alpha                90
_cell_angle_beta                 90
_cell_angle_gamma                90
_cell_volume                     654.179
loop_
_atom_site_label
_atom_site_type_symbol
_atom_site_fract_x
_atom_site_fract_y
_atom_site_fract_z
Al1 Al 0.25619(64) 0.17472(82) 0.00000
O1 O 0.14286(49) 0.09011(72) 0.14943(56)
O2 O 0.15071(53) -0.24710(66) 0.16386(72)
O3 O 0.17530(71) 0.4225(15) 0.00000
C1 C 0.11362(82) -0.1090(18) 0.50000
C2 C 0.05587(31) -0.0461(10) 0.36617(42)
C3 C 0.11872(54) -0.07509(68) 0.21575(51)
Al1A Al -0.25619(64) -0.17472(82) 0.00000
Al1C Al 0.24381(64) -0.32528(82) 0.00000
Al1C_2 Al 0.24381(64) 0.67472(82) 0.00000
Al1B Al -0.24381(64) 0.32528(82) 0.00000
Al1A_2 Al -0.25619(64) -0.17472(82) 1.00000
Al1B_2 Al -0.24381(64) 0.32528(82) 1.00000
Al1_2 Al 0.25619(64) 0.17472(82) 1.00000
Al1C_3 Al 0.24381(64) -0.32528(82) 1.00000
O1A O -0.14286(49) -0.09011(72) 0.14943(56)
O1D O -0.14286(49) -0.09011(72) 0.85057(56)
O1E O 0.14286(49) 0.09011(72) 0.85057(56)
O1E_2 O 0.14286(49) 0.09011(72) -0.14943(56)
O1D_2 O -0.14286(49) -0.09011(72) -0.14943(56)
O2A O -0.15071(53) 0.24710(66) 0.16386(72)
O2D O -0.15071(53) 0.24710(66) 0.83614(72)
O2E O 0.15071(53) -0.24710(66) 0.83614(72)
O2C O 0.34929(53) 0.25290(66) -0.16386(72)
O2F O 0.34929(53) 0.25290(66) 0.16386(72)
O2B O -0.34929(53) -0.25290(66) -0.16386(72)
O2G O -0.34929(53) -0.25290(66) 0.16386(72)
O3C O 0.32470(71) -0.0775(15) 0.00000
O3A O -0.17530(71) -0.4225(15) 0.00000
O3B O -0.32470(71) 0.0775(15) 0.00000
C1A C -0.11362(82) 0.1090(18) 0.50000
C2E C 0.05587(31) -0.0461(10) 0.63383(42)
C2D C -0.05587(31) 0.0461(10) 0.63383(42)
C2A C -0.05587(31) 0.0461(10) 0.36617(42)
C3A C -0.11872(54) 0.07509(68) 0.21575(51)
C3D C -0.11872(54) 0.07509(68) 0.78425(51)
C3E C 0.11872(54) -0.07509(68) 0.78425(51)
loop_
_geom_bond_atom_site_label_1
_geom_bond_atom_site_label_2
_geom_bond_site_symmetry_1
_geom_bond_site_symmetry_2
Al1 O1 1_555 1_555
O1 C3 1_555 1_555
O2 C3 1_555 1_555
O3 Al1 1_555 1_555
C1 C2 1_555 1_555
C2 C3 1_555 1_555
Al1A O1A 1_555 1_555
Al1C O2 1_555 1_555
Al1C_2 O3 1_555 1_555
Al1B O2A 1_555 1_555
Al1A_2 O1D 1_555 1_555
Al1B_2 O2D 1_555 1_555
Al1_2 O1E 1_555 1_555
Al1C_3 O2E 1_555 1_555
O1A C3A 1_555 1_555
O1D C3D 1_555 1_555
O1E C3E 1_555 1_555
O1E_2 Al1 1_555 1_555
O1D_2 Al1A 1_555 1_555
O2A C3A 1_555 1_555
O2D C3D 1_555 1_555
O2E C3E 1_555 1_555
O2C Al1 1_555 1_555
O2F Al1 1_555 1_555
O2B Al1A 1_555 1_555
O2G Al1A 1_555 1_555
O3C Al1 1_555 1_555
O3A Al1A 1_555 1_555
O3B Al1A 1_555 1_555
C1A C2D 1_555 1_555
C2E C1 1_555 1_555
C2D C2E 1_555 1_555
C2A C2 1_555 1_555
C3A C2A 1_555 1_555
C3D C2D 1_555 1_555
C3E C2E 1_555 1_555
Al1C O3C 1_555 1_555
Al1B O3B 1_555 1_555
C1A C2A 1_555 1_555

#END
