
#######################################################################
#
#                 Cambridge Crystallographic Data Centre
#                                CCDC 
#
#######################################################################
#
# If this CIF has been generated from an entry in the Cambridge 
# Structural Database, then it will include bibliographic, chemical, 
# crystal, experimental, refinement or atomic coordinate data resulting 
# from the CCDC's data processing and validation procedures.
#
#######################################################################

data_GUKVAK
_symmetry_cell_setting           monoclinic
_symmetry_space_group_name_H-M   'C 2/c'
_symmetry_Int_Tables_number      15
_space_group_name_Hall           '-C 2yn'
loop_
_symmetry_equiv_pos_site_id
_symmetry_equiv_pos_as_xyz
1 x,y,z
2 1/2+x,1/2+y,z
3 -x,y,1/2-z
4 1/2-x,1/2+y,1/2-z
5 -x,-y,-z
6 1/2-x,1/2-y,-z
7 x,-y,1/2+z
8 1/2+x,1/2-y,1/2+z
_cell_length_a                   11.365(3)
_cell_length_b                   6.822(2)
_cell_length_c                   17.733(2)
_cell_angle_alpha                90
_cell_angle_beta                 90.62(4)
_cell_angle_gamma                90
_cell_volume                     1374.79
loop_
_atom_site_label
_atom_site_type_symbol
_atom_site_fract_x
_atom_site_fract_y
_atom_site_fract_z
C1 C 0.3714(7) -0.0341(11) 0.8594(4)
C2 C 0.4426(8) -0.0219(11) 0.9300(4)
C3 C 0.5651(8) 0.2564(13) 0.8767(4)
C4 C 0.4181(7) -0.1520(11) 0.9891(4)
H1 H 0.3644 -0.2532 0.9819
C5 C 0.5242(8) 0.1284(11) 0.9399(4)
O1 O 0.3554(5) 0.1243(8) 0.8240(3)
O2 O 0.1966(5) -0.0340(7) 0.7292(3)
O3 O 0.6164(5) 0.1588(8) 0.8248(3)
O4 O 0.3320(5) -0.1989(8) 0.8409(3)
O5 O 0.1251(7) 0.2575(9) 0.8100(3)
O6 O 0.5469(7) 0.4369(9) 0.8786(3)
Al1 Al 0.2582(2) 0.2144(3) 0.74411(12)
C1D C 0.6286(7) 0.0341(11) 1.1406(4)
C2D C 0.5574(8) 0.0219(11) 1.0700(4)
C3D C 0.4349(8) -0.2564(13) 1.1233(4)
C4D C 0.5819(7) 0.1520(11) 1.0109(4)
H1D H 0.6356 0.2532 1.0181
C5D C 0.4758(8) -0.1284(11) 1.0601(4)
O1D O 0.6446(5) -0.1243(8) 1.1760(3)
O2C O 0.3034(5) 0.4660(7) 0.7708(3)
O2D O 0.8034(5) 0.0340(7) 1.2708(3)
O2G O 0.6966(5) -0.4660(7) 1.2292(3)
O3D O 0.3836(5) -0.1588(8) 1.1752(3)
O3B O 0.3836(5) 0.1588(8) 0.6752(3)
O3F O 0.6164(5) -0.1588(8) 1.3248(3)
O4D O 0.6680(5) 0.1989(8) 1.1591(3)
O4C O 0.1680(5) 0.3011(8) 0.6591(3)
O4G O 0.8320(5) -0.3011(8) 1.3409(3)
O5D O 0.8749(7) -0.2575(9) 1.1900(3)
O6D O 0.4531(7) -0.4369(9) 1.1214(3)
Al1D Al 0.7418(2) -0.2144(3) 1.25589(12)
Al1C Al 0.2418(2) -0.2856(3) 0.75589(12)
Al1B Al 0.7418(2) 0.2144(3) 0.75589(12)
Al1G Al 0.7582(2) 0.2856(3) 1.24411(12)
Al1F Al 0.2582(2) -0.2144(3) 1.24411(12)
loop_
_geom_bond_atom_site_label_1
_geom_bond_atom_site_label_2
_geom_bond_site_symmetry_1
_geom_bond_site_symmetry_2
C1 C2 1_555 1_555
C2 C4 1_555 1_555
C3 C5 1_555 1_555
C4 H1 1_555 1_555
C5 C2 1_555 1_555
O1 C1 1_555 1_555
O2 Al1 1_555 1_555
O3 C3 1_555 1_555
O4 C1 1_555 1_555
O5 Al1 1_555 1_555
O6 C3 1_555 1_555
Al1 O1 1_555 1_555
C1D C2D 1_555 1_555
C2D C4D 1_555 1_555
C3D C5D 1_555 1_555
C4D C5 1_555 1_555
H1D C4D 1_555 1_555
C5D C4 1_555 1_555
O1D C1D 1_555 1_555
O2C Al1 1_555 1_555
O2D Al1D 1_555 1_555
O2G Al1D 1_555 1_555
O3D C3D 1_555 1_555
O3B Al1 1_555 1_555
O3F Al1D 1_555 1_555
O4D C1D 1_555 1_555
O4C Al1 1_555 1_555
O4G Al1D 1_555 1_555
O5D Al1D 1_555 1_555
O6D C3D 1_555 1_555
Al1D O1D 1_555 1_555
Al1C O2 1_555 1_555
Al1B O3 1_555 1_555
Al1G O2D 1_555 1_555
Al1F O3D 1_555 1_555
O4 Al1C 1_555 1_555
C2D C5D 1_555 1_555
O4D Al1G 1_555 1_555

#END
