
#######################################################################
#
#                 Cambridge Crystallographic Data Centre
#                                CCDC 
#
#######################################################################
#
# If this CIF has been generated from an entry in the Cambridge 
# Structural Database, then it will include bibliographic, chemical, 
# crystal, experimental, refinement or atomic coordinate data resulting 
# from the CCDC's data processing and validation procedures.
#
#######################################################################

data_GUKXOA
_symmetry_cell_setting           monoclinic
_symmetry_space_group_name_H-M   'C 2/m'
_symmetry_Int_Tables_number      12
_space_group_name_Hall           '-C 2y'
loop_
_symmetry_equiv_pos_site_id
_symmetry_equiv_pos_as_xyz
1 x,y,z
2 -x,y,-z
3 1/2+x,1/2+y,z
4 1/2-x,1/2+y,-z
5 -x,-y,-z
6 x,-y,z
7 1/2-x,1/2-y,-z
8 1/2+x,1/2-y,z
_cell_length_a                   12.664(3)
_cell_length_b                   24.343(2)
_cell_length_c                   16.378(5)
_cell_angle_alpha                90
_cell_angle_beta                 92.584(5)
_cell_angle_gamma                90
_cell_volume                     5043.87
loop_
_atom_site_label
_atom_site_type_symbol
_atom_site_fract_x
_atom_site_fract_y
_atom_site_fract_z
O5 O -0.405(9) 0.0000 0.893(7)
W1 W -0.33161(12) 0.0000 0.33662(8)
W2 W -0.5000 -0.14218(6) 0.5000
W3 W -0.26125(8) -0.07173(4) 0.51682(7)
W4 W -0.56753(10) -0.07126(5) 0.32153(6)
Ag2 Ag 0.0000 -0.18278(11) 0.5000
N2 N -0.0406(17) -0.1808(10) 0.3685(12)
C7 C -0.0532(18) -0.1337(9) 0.3297(15)
H5 H -0.0460 -0.1024 0.3620
C8 C -0.086(2) -0.1715(13) 0.2032(14)
C9 C -0.069(2) -0.2212(9) 0.2373(14)
H6 H -0.0748 -0.2531 0.2061
C10 C -0.0432(17) -0.2236(9) 0.3222(14)
H7 H -0.0273 -0.2575 0.3456
C11 C -0.108(3) -0.1660(14) 0.1130(18)
C12 C -0.074(2) -0.1251(11) 0.2523(17)
H8 H -0.0814 -0.0898 0.2310
O6 O -0.429(2) -0.0549(8) 0.304(2)
O7 O -0.264(2) -0.0538(7) 0.4039(13)
O8 O -0.1189(19) -0.2132(10) 0.0736(11)
H9 H -0.0603 -0.2302 0.0790
O9 O -0.1492(18) -0.1044(10) 0.5237(11)
O10 O -0.516(2) -0.1297(14) 0.3838(17)
O11 O -0.122(3) -0.1242(12) 0.0785(15)
O12 O -0.213(4) 0.0000 0.5372(18)
O13 O -0.251(2) 0.0000 0.2630(17)
O14 O -0.6010(16) -0.1039(8) 0.2340(12)
O15 O -0.612(2) 0.0000 0.290(3)
O16 O -0.701(3) -0.0781(14) 0.3692(17)
O17 O -0.485(3) 0.0000 0.389(3)
O18 O -0.353(3) -0.1317(15) 0.4962(15)
Na2 Na 0.0000 0.0000 0.5000
O19 O -0.571(2) -0.0595(12) 0.4571(18)
O20 O -0.5000 0.2104(10) 0.5000
O21 O -0.364(8) 0.0000 0.465(5)
O22 O -0.017(5) 0.0000 0.367(4)
W1A W -0.66839(12) 0.0000 0.66338(8)
W2D W -0.5000 0.14218(6) 0.5000
W3A W 0.26125(8) -0.07173(4) 0.48318(7)
W3D W 0.26125(8) 0.07173(4) 0.48318(7)
W3E W -0.26125(8) 0.07173(4) 0.51682(7)
W3D_2 W -0.73875(8) 0.07173(4) 0.48318(7)
W3A_2 W -0.73875(8) -0.07173(4) 0.48318(7)
W4A W -0.43247(10) -0.07126(5) 0.67847(6)
W4D W -0.43247(10) 0.07126(5) 0.67847(6)
W4E W -0.56753(10) 0.07126(5) 0.32153(6)
Ag2D Ag 0.0000 0.18278(11) 0.5000
Ag2B Ag -0.5000 0.31722(11) 0.5000
Ag2F Ag -0.5000 -0.31722(11) 0.5000
Ag2D_2 Ag -1.0000 0.18278(11) 0.5000
Ag2_2 Ag -1.0000 -0.18278(11) 0.5000
N2A N 0.0406(17) -0.1808(10) 0.6315(12)
N2D N 0.0406(17) 0.1808(10) 0.6315(12)
N2E N -0.0406(17) 0.1808(10) 0.3685(12)
C7A C 0.0532(18) -0.1337(9) 0.6703(15)
C7D C 0.0532(18) 0.1337(9) 0.6703(15)
C7E C -0.0532(18) 0.1337(9) 0.3297(15)
H5A H 0.0460 -0.1024 0.6380
H5D H 0.0460 0.1024 0.6380
H5E H -0.0460 0.1024 0.3620
C8A C 0.086(2) -0.1715(13) 0.7968(14)
C8D C 0.086(2) 0.1715(13) 0.7968(14)
C8E C -0.086(2) 0.1715(13) 0.2032(14)
C9A C 0.069(2) -0.2212(9) 0.7627(14)
C9D C 0.069(2) 0.2212(9) 0.7627(14)
C9E C -0.069(2) 0.2212(9) 0.2373(14)
H6A H 0.0748 -0.2531 0.7939
H6D H 0.0748 0.2531 0.7939
H6E H -0.0748 0.2531 0.2061
C10A C 0.0432(17) -0.2236(9) 0.6778(14)
C10D C 0.0432(17) 0.2236(9) 0.6778(14)
C10E C -0.0432(17) 0.2236(9) 0.3222(14)
H7A H 0.0273 -0.2575 0.6544
H7D H 0.0273 0.2575 0.6544
H7E H -0.0273 0.2575 0.3456
C11A C 0.108(3) -0.1660(14) 0.8870(18)
C11D C 0.108(3) 0.1660(14) 0.8870(18)
C11E C -0.108(3) 0.1660(14) 0.1130(18)
C12A C 0.074(2) -0.1251(11) 0.7477(17)
C12D C 0.074(2) 0.1251(11) 0.7477(17)
C12E C -0.074(2) 0.1251(11) 0.2523(17)
H8A H 0.0814 -0.0898 0.7690
H8D H 0.0814 0.0898 0.7690
H8E H -0.0814 0.0898 0.2310
O6A O -0.571(2) -0.0549(8) 0.696(2)
O6D O -0.571(2) 0.0549(8) 0.696(2)
O6E O -0.429(2) 0.0549(8) 0.304(2)
O7E O -0.264(2) 0.0538(7) 0.4039(13)
O7D O -0.736(2) 0.0538(7) 0.5961(13)
O7A O -0.736(2) -0.0538(7) 0.5961(13)
O8A O 0.1189(19) -0.2132(10) 0.9264(11)
O8D O 0.1189(19) 0.2132(10) 0.9264(11)
O8E O -0.1189(19) 0.2132(10) 0.0736(11)
H9A H 0.0603 -0.2302 0.9210
H9D H 0.0603 0.2302 0.9210
H9E H -0.0603 0.2302 0.0790
O9A O 0.1492(18) -0.1044(10) 0.4763(11)
O9D O 0.1492(18) 0.1044(10) 0.4763(11)
O9E O -0.1492(18) 0.1044(10) 0.5237(11)
O9D_2 O -0.8508(18) 0.1044(10) 0.4763(11)
O9A_2 O -0.8508(18) -0.1044(10) 0.4763(11)
O10A O -0.484(2) -0.1297(14) 0.6162(17)
O10D O -0.484(2) 0.1297(14) 0.6162(17)
O10E O -0.516(2) 0.1297(14) 0.3838(17)
O11A O 0.122(3) -0.1242(12) 0.9215(15)
O11D O 0.122(3) 0.1242(12) 0.9215(15)
O11E O -0.122(3) 0.1242(12) 0.0785(15)
O12A O -0.787(4) 0.0000 0.4628(18)
O12A_2 O 0.213(4) 0.0000 0.4628(18)
O13A O -0.749(2) 0.0000 0.7370(17)
O14E O -0.6010(16) 0.1039(8) 0.2340(12)
O14A O -0.3990(16) -0.1039(8) 0.7660(12)
O14D O -0.3990(16) 0.1039(8) 0.7660(12)
O15A O -0.388(2) 0.0000 0.710(3)
O16E O -0.701(3) 0.0781(14) 0.3692(17)
O16D O -0.299(3) 0.0781(14) 0.6308(17)
O16A O -0.299(3) -0.0781(14) 0.6308(17)
O17A O -0.515(3) 0.0000 0.611(3)
O18A O -0.647(3) -0.1317(15) 0.5038(15)
O18E O -0.353(3) 0.1317(15) 0.4962(15)
O18D O -0.647(3) 0.1317(15) 0.5038(15)
Na2_2 Na -1.0000 0.0000 0.5000
O19A O -0.429(2) -0.0595(12) 0.5429(18)
O19E O -0.571(2) 0.0595(12) 0.4571(18)
O19D O -0.429(2) 0.0595(12) 0.5429(18)
O20B O 0.0000 -0.2896(10) 0.5000
O20D O -0.5000 -0.2104(10) 0.5000
O20F O 0.0000 0.2896(10) 0.5000
O21A O -0.636(8) 0.0000 0.535(5)
O22A O 0.017(5) 0.0000 0.633(4)
Ag1 Ag -0.2500 0.2500 0.5000
C1 C -0.3554(19) 0.2509(15) 0.1139(14)
C2 C -0.328(2) 0.2474(12) 0.2038(15)
C3 C -0.3123(19) 0.2056(10) 0.3306(14)
H1 H -0.3212 0.1740 0.3615
C4 C -0.332(2) 0.1996(14) 0.2484(16)
H2 H -0.3479 0.1658 0.2244
C5 C -0.3002(18) 0.2958(12) 0.2454(16)
H3 H -0.2982 0.3289 0.2170
N1 N -0.2851(19) 0.2452(11) 0.3684(13)
C6 C -0.276(2) 0.2947(12) 0.3271(16)
H4 H -0.2548 0.3264 0.3548
O1 O -0.357(2) 0.1495(12) -0.0819(19)
O2 O -0.580(4) 0.0827(17) -0.094(3)
O3 O -0.3370(18) 0.2936(10) 0.0730(12)
O4 O -0.395(2) 0.2081(10) 0.0832(13)
Na1 Na -0.5000 0.1562(6) 0.0000
Ag1A Ag -0.7500 0.2500 -0.5000
Ag1_2 Ag -1.2500 0.2500 -1.5000
C1A C -0.6446(19) 0.2509(15) -0.1139(14)
C1G C -0.8554(19) 0.2491(15) -0.8861(14)
C1F C -1.1446(19) 0.2491(15) -1.1139(14)
C2A C -0.672(2) 0.2474(12) -0.2038(15)
C2G C -0.828(2) 0.2526(12) -0.7962(15)
C2F C -1.172(2) 0.2526(12) -1.2038(15)
C3A C -0.6877(19) 0.2056(10) -0.3306(14)
C3G C -0.8123(19) 0.2944(10) -0.6694(14)
C3F C -1.1877(19) 0.2944(10) -1.3306(14)
H1A H -0.6788 0.1740 -0.3615
H1G H -0.8212 0.3260 -0.6385
H1F H -1.1788 0.3260 -1.3615
C4A C -0.668(2) 0.1996(14) -0.2484(16)
C4G C -0.832(2) 0.3004(14) -0.7516(16)
C4F C -1.168(2) 0.3004(14) -1.2484(16)
H2F H -1.1521 0.3342 -1.2244
H2G H -0.8479 0.3342 -0.7756
H2A H -0.6521 0.1658 -0.2244
C5F C -1.1998(18) 0.2042(12) -1.2454(16)
C5G C -0.8002(18) 0.2042(12) -0.7546(16)
C5A C -0.6998(18) 0.2958(12) -0.2454(16)
H3F H -1.2018 0.1711 -1.2170
H3G H -0.7982 0.1711 -0.7830
H3A H -0.7018 0.3289 -0.2170
N1A N -0.7149(19) 0.2452(11) -0.3684(13)
N1G N -0.7851(19) 0.2548(11) -0.6316(13)
N1F N -1.2149(19) 0.2548(11) -1.3684(13)
N1F_2 N -0.2149(19) 0.2548(11) 0.6316(13)
C6F C -1.224(2) 0.2053(12) -1.3271(16)
C6G C -0.776(2) 0.2053(12) -0.6729(16)
C6A C -0.724(2) 0.2947(12) -0.3271(16)
H4F H -1.2452 0.1736 -1.3548
H4G H -0.7548 0.1736 -0.6452
H4A H -0.7452 0.3264 -0.3548
O1A O -0.643(2) 0.1495(12) 0.0819(19)
O1G O -0.857(2) 0.3505(12) -1.0819(19)
O1F O -1.143(2) 0.3505(12) -0.9181(19)
O2A O -0.420(4) 0.0827(17) 0.094(3)
O2G O -1.080(4) 0.4173(17) -1.094(3)
O2F O -0.920(4) 0.4173(17) -0.906(3)
O3G O -0.8370(18) 0.2064(10) -0.9270(12)
O3F O -1.1630(18) 0.2064(10) -1.0730(12)
O3A O -0.6630(18) 0.2936(10) -0.0730(12)
O4A O -0.605(2) 0.2081(10) -0.0832(13)
O4G O -0.895(2) 0.2919(10) -0.9168(13)
O4F O -1.105(2) 0.2919(10) -1.0832(13)
Na1F Na -1.0000 0.3438(6) -1.0000
loop_
_geom_bond_atom_site_label_1
_geom_bond_atom_site_label_2
_geom_bond_site_symmetry_1
_geom_bond_site_symmetry_2
Ag1 N1 1_555 1_555
C1 C2 1_555 1_555
C2 C4 1_555 1_555
C3 H1 1_555 1_555
C4 C3 1_555 1_555
H2 C4 1_555 1_555
C5 C2 1_555 1_555
H3 C5 1_555 1_555
N1 C3 1_555 1_555
C6 C5 1_555 1_555
H4 C6 1_555 1_555
O1 Na1 1_555 1_555
O2 Na1 1_555 1_555
O3 C1 1_555 1_555
O4 C1 1_555 1_555
Na1 O4 1_555 1_555
W1 O6 1_555 1_555
W2 O10 1_555 1_555
W3 O7 1_555 1_555
W4 O6 1_555 1_555
Ag2 N2 1_555 1_555
N2 C7 1_555 1_555
C7 H5 1_555 1_555
C8 C9 1_555 1_555
C9 H6 1_555 1_555
C10 N2 1_555 1_555
H7 C10 1_555 1_555
C11 C8 1_555 1_555
C12 C7 1_555 1_555
H8 C12 1_555 1_555
O7 W1 1_555 1_555
O8 C11 1_555 1_555
H9 O8 1_555 1_555
O9 W3 1_555 1_555
O10 W4 1_555 1_555
O11 C11 1_555 1_555
O12 W3 1_555 1_555
O13 W1 1_555 1_555
O14 W4 1_555 1_555
O15 W4 1_555 1_555
O16 W4 1_555 1_555
O17 W1 1_555 1_555
O18 W2 1_555 1_555
Na2 O12 1_555 1_555
O19 W2 1_555 1_555
O20 W2D 1_555 1_555
O21 W1 1_555 1_555
O22 Na2 1_555 1_555
Ag1A N1A 1_555 1_555
Ag1_2 N1F 1_555 1_555
C1A C2A 1_555 1_555
C1G C2G 1_555 1_555
C1F C2F 1_555 1_555
C2A C4A 1_555 1_555
C2G C4G 1_555 1_555
C2F C4F 1_555 1_555
C3A H1A 1_555 1_555
C3G H1G 1_555 1_555
C3F H1F 1_555 1_555
C4A C3A 1_555 1_555
C4G C3G 1_555 1_555
C4F C3F 1_555 1_555
H2F C4F 1_555 1_555
H2G C4G 1_555 1_555
H2A C4A 1_555 1_555
C5F C2F 1_555 1_555
C5G C2G 1_555 1_555
C5A C2A 1_555 1_555
H3F C5F 1_555 1_555
H3G C5G 1_555 1_555
H3A C5A 1_555 1_555
N1A C3A 1_555 1_555
N1G Ag1A 1_555 1_555
N1F C3F 1_555 1_555
N1F_2 Ag1 1_555 1_555
C6F C5F 1_555 1_555
C6G C5G 1_555 1_555
C6A C5A 1_555 1_555
H4F C6F 1_555 1_555
H4G C6G 1_555 1_555
H4A C6A 1_555 1_555
O1A Na1 1_555 1_555
O1G Na1F 1_555 1_555
O1F Na1F 1_555 1_555
O2A Na1 1_555 1_555
O2G Na1F 1_555 1_555
O2F Na1F 1_555 1_555
O3G C1G 1_555 1_555
O3F C1F 1_555 1_555
O3A C1A 1_555 1_555
O4A Na1 1_555 1_555
O4G C1G 1_555 1_555
O4F C1F 1_555 1_555
Na1F O4G 1_555 1_555
W1A O6A 1_555 1_555
W2D O10D 1_555 1_555
W3A O9A 1_555 1_555
W3D O9D 1_555 1_555
W3E O12 1_555 1_555
W3D_2 O7D 1_555 1_555
W3A_2 O16 1_555 1_555
W4A O6A 1_555 1_555
W4D O6D 1_555 1_555
W4E O15 1_555 1_555
Ag2D N2D 1_555 1_555
Ag2B O20 1_555 1_555
Ag2F O20D 1_555 1_555
Ag2D_2 O9D_2 1_555 1_555
Ag2_2 O9A_2 1_555 1_555
N2A Ag2 1_555 1_555
N2D C7D 1_555 1_555
N2E Ag2D 1_555 1_555
C7A N2A 1_555 1_555
C7D H5D 1_555 1_555
C7E N2E 1_555 1_555
H5A C7A 1_555 1_555
H5E C7E 1_555 1_555
C8A C9A 1_555 1_555
C8D C9D 1_555 1_555
C8E C9E 1_555 1_555
C9A H6A 1_555 1_555
C9D H6D 1_555 1_555
C9E H6E 1_555 1_555
C10A N2A 1_555 1_555
C10D N2D 1_555 1_555
C10E N2E 1_555 1_555
H7A C10A 1_555 1_555
H7D C10D 1_555 1_555
H7E C10E 1_555 1_555
C11A C8A 1_555 1_555
C11D C8D 1_555 1_555
C11E C8E 1_555 1_555
C12A C7A 1_555 1_555
C12D C7D 1_555 1_555
C12E C7E 1_555 1_555
H8A C12A 1_555 1_555
H8D C12D 1_555 1_555
H8E C12E 1_555 1_555
O6D W1A 1_555 1_555
O6E W1 1_555 1_555
O7E W1 1_555 1_555
O7D W1A 1_555 1_555
O7A W1A 1_555 1_555
O8A C11A 1_555 1_555
O8D C11D 1_555 1_555
O8E C11E 1_555 1_555
H9A O8A 1_555 1_555
H9D O8D 1_555 1_555
H9E O8E 1_555 1_555
O9A Ag2 1_555 1_555
O9D Ag2D 1_555 1_555
O9E W3E 1_555 1_555
O9D_2 W3D_2 1_555 1_555
O9A_2 W3A_2 1_555 1_555
O10A W2 1_555 1_555
O10D W4D 1_555 1_555
O10E W2D 1_555 1_555
O11A C11A 1_555 1_555
O11D C11D 1_555 1_555
O11E C11E 1_555 1_555
O12A W3D_2 1_555 1_555
O12A_2 Na2 1_555 1_555
O13A W1A 1_555 1_555
O14E W4E 1_555 1_555
O14A W4A 1_555 1_555
O14D W4D 1_555 1_555
O15A W4A 1_555 1_555
O16E W3D_2 1_555 1_555
O16D W3E 1_555 1_555
O16A W3 1_555 1_555
O17A W1A 1_555 1_555
O18A W2 1_555 1_555
O18E W2D 1_555 1_555
O18D W2D 1_555 1_555
Na2_2 O12A 1_555 1_555
O19A W2 1_555 1_555
O19E W2D 1_555 1_555
O19D W2D 1_555 1_555
O20B Ag2 1_555 1_555
O20D W2 1_555 1_555
O20F Ag2D 1_555 1_555
O21A W1A 1_555 1_555
O22A Na2 1_555 1_555
N1 C6 1_555 1_555
W3 O18 1_555 1_555
W3 O21 1_555 1_555
W3 O19A 1_555 1_555
W4 O17 1_555 1_555
W4 O19 1_555 1_555
Ag2 O9 1_555 1_555
C8 C12 1_555 1_555
C9 C10 1_555 1_555
O17 W4E 1_555 1_555
O19 W3A_2 1_555 1_555
O21 W3E 1_555 1_555
C1A O4A 1_555 1_555
C3G N1G 1_555 1_555
N1A C6A 1_555 1_555
N1G C6G 1_555 1_555
N1F C6F 1_555 1_555
O4F Na1F 1_555 1_555
W3A O12A_2 1_555 1_555
W3D O12A_2 1_555 1_555
W3E O7E 1_555 1_555
W3E O18E 1_555 1_555
W3E O19D 1_555 1_555
W3D_2 O18D 1_555 1_555
W3D_2 O19E 1_555 1_555
W3D_2 O21A 1_555 1_555
W3A_2 O7A 1_555 1_555
W3A_2 O12A 1_555 1_555
W3A_2 O18A 1_555 1_555
W3A_2 O21A 1_555 1_555
W4A O10A 1_555 1_555
W4A O16A 1_555 1_555
W4A O17A 1_555 1_555
W4A O19A 1_555 1_555
W4D O15A 1_555 1_555
W4D O16D 1_555 1_555
W4D O17A 1_555 1_555
W4D O19D 1_555 1_555
W4E O6E 1_555 1_555
W4E O10E 1_555 1_555
W4E O16E 1_555 1_555
W4E O19E 1_555 1_555
Ag2D O9E 1_555 1_555
C8A C12A 1_555 1_555
C8D C12D 1_555 1_555
C8E C12E 1_555 1_555
C9A C10A 1_555 1_555
C9D C10D 1_555 1_555
C9E C10E 1_555 1_555

#END
