
#######################################################################
#
#                 Cambridge Crystallographic Data Centre
#                                CCDC 
#
#######################################################################
#
# If this CIF has been generated from an entry in the Cambridge 
# Structural Database, then it will include bibliographic, chemical, 
# crystal, experimental, refinement or atomic coordinate data resulting 
# from the CCDC's data processing and validation procedures.
#
#######################################################################

data_GUKYUH
_symmetry_cell_setting           monoclinic
_symmetry_space_group_name_H-M   'P 21/n'
_symmetry_Int_Tables_number      14
_space_group_name_Hall           '-P 2yn'
loop_
_symmetry_equiv_pos_site_id
_symmetry_equiv_pos_as_xyz
1 x,y,z
2 1/2-x,1/2+y,1/2-z
3 -x,-y,-z
4 1/2+x,1/2-y,1/2+z
_cell_length_a                   9.935(2)
_cell_length_b                   7.4416(15)
_cell_length_c                   12.576(3)
_cell_angle_alpha                90
_cell_angle_beta                 105.568(2)
_cell_angle_gamma                90
_cell_volume                     895.662
loop_
_atom_site_label
_atom_site_type_symbol
_atom_site_fract_x
_atom_site_fract_y
_atom_site_fract_z
C1 C 0.1918(3) -0.2441(4) -0.0662(2)
C2 C 0.0928(3) -0.1155(4) -0.0328(2)
C3 C 0.0934(3) 0.0683(4) -0.0582(2)
C4 C 0.0013(3) -0.1809(4) 0.0253(2)
H1 H 0.0033 -0.3051 0.0430
C5 C -0.1083(3) 0.3501(4) -0.3239(3)
H2 H -0.1641 0.4576 -0.3544
H3 H -0.0639 0.3710 -0.2445
C6 C -0.2023(3) 0.1859(5) -0.3384(3)
H4 H -0.2757 0.2056 -0.2998
H5 H -0.2487 0.1683 -0.4178
N1 N -0.1218(3) 0.0242(3) -0.2941(2)
H6 H -0.1702 -0.0761 -0.3261
H7 H -0.1115 0.0178 -0.2192
N2 N 0.0006(3) 0.3195(4) -0.3826(2)
H8 H -0.0654 -0.4107 0.3658
H9 H 0.0398 -0.3216 0.4576
O1 O 0.2867(2) -0.3140(3) 0.00723(18)
O2 O 0.1714(2) -0.2715(3) -0.16957(17)
Pb1 Pb 0.120840(11) 0.025170(14) -0.330450(8)
S1 S 0.21154(7) 0.16032(10) -0.12621(6)
C1B C -0.1918(3) 0.2441(4) 0.0662(2)
C2B C -0.0928(3) 0.1155(4) 0.0328(2)
C3B C -0.0934(3) -0.0683(4) 0.0582(2)
C4B C -0.0013(3) 0.1809(4) -0.0253(2)
H1B H -0.0033 0.3051 -0.0430
C5B C 0.1083(3) -0.3501(4) 0.3239(3)
H2B H 0.1641 -0.4576 0.3544
H3B H 0.0639 -0.3710 0.2445
C6B C 0.2023(3) -0.1859(5) 0.3384(3)
H4B H 0.2757 -0.2056 0.2998
H5B H 0.2487 -0.1683 0.4178
N1B N 0.1218(3) -0.0242(3) 0.2941(2)
H6B H 0.1702 0.0761 0.3261
H7B H 0.1115 -0.0178 0.2192
N2B N -0.0006(3) -0.3195(4) 0.3826(2)
H8B H 0.0654 0.4107 -0.3658
H9B H -0.0398 0.3216 -0.4576
O1B O -0.2867(2) 0.3140(3) -0.00723(18)
O1A O 0.2133(2) 0.1860(3) -0.50723(18)
O1C O -0.2133(2) -0.1860(3) 0.50723(18)
O2B O -0.1714(2) 0.2715(3) 0.16957(17)
O2A O 0.3286(2) 0.2285(3) -0.33043(17)
O2C O -0.3286(2) -0.2285(3) 0.33043(17)
Pb1C Pb -0.379160(11) 0.474830(14) 0.169550(8)
Pb1A Pb 0.379160(11) -0.474830(14) -0.169550(8)
Pb1B Pb -0.120840(11) -0.025170(14) 0.330450(8)
S1B S -0.21154(7) -0.16032(10) 0.12621(6)
loop_
_geom_bond_atom_site_label_1
_geom_bond_atom_site_label_2
_geom_bond_site_symmetry_1
_geom_bond_site_symmetry_2
C1 C2 1_555 1_555
C2 C3 1_555 1_555
C3 S1 1_555 1_555
C4 C2 1_555 1_555
H1 C4 1_555 1_555
C5 H2 1_555 1_555
H3 C5 1_555 1_555
C6 C5 1_555 1_555
H4 C6 1_555 1_555
H5 C6 1_555 1_555
N1 C6 1_555 1_555
H6 N1 1_555 1_555
H7 N1 1_555 1_555
N2 C5 1_555 1_555
H8 N2B 1_555 1_555
H9 N2B 1_555 1_555
O1 C1 1_555 1_555
O2 C1 1_555 1_555
Pb1 N1 1_555 1_555
S1 Pb1 1_555 1_555
C1B C2B 1_555 1_555
C2B C3B 1_555 1_555
C3B C4 1_555 1_555
C4B C3 1_555 1_555
H1B C4B 1_555 1_555
C5B H2B 1_555 1_555
H3B C5B 1_555 1_555
C6B C5B 1_555 1_555
H4B C6B 1_555 1_555
H5B C6B 1_555 1_555
N1B C6B 1_555 1_555
H6B N1B 1_555 1_555
H7B N1B 1_555 1_555
N2B C5B 1_555 1_555
H8B N2 1_555 1_555
H9B N2 1_555 1_555
O1B C1B 1_555 1_555
O1A Pb1 1_555 1_555
O1C Pb1B 1_555 1_555
O2B C1B 1_555 1_555
O2A Pb1 1_555 1_555
O2C Pb1B 1_555 1_555
Pb1C O1B 1_555 1_555
Pb1A O1 1_555 1_555
Pb1B N1B 1_555 1_555
S1B C3B 1_555 1_555
N2 Pb1 1_555 1_555
O2 Pb1A 1_555 1_555
C2B C4B 1_555 1_555
N2B Pb1B 1_555 1_555
O2B Pb1C 1_555 1_555
Pb1B S1B 1_555 1_555

#END
