
#######################################################################
#
#                 Cambridge Crystallographic Data Centre
#                                CCDC 
#
#######################################################################
#
# If this CIF has been generated from an entry in the Cambridge 
# Structural Database, then it will include bibliographic, chemical, 
# crystal, experimental, refinement or atomic coordinate data resulting 
# from the CCDC's data processing and validation procedures.
#
#######################################################################

data_GUKYOB
_symmetry_cell_setting           triclinic
_symmetry_space_group_name_H-M   'P -1'
_symmetry_Int_Tables_number      2
_space_group_name_Hall           '-P 1'
loop_
_symmetry_equiv_pos_site_id
_symmetry_equiv_pos_as_xyz
1 x,y,z
2 -x,-y,-z
_cell_length_a                   9.7569(12)
_cell_length_b                   12.5112(15)
_cell_length_c                   14.8622(18)
_cell_angle_alpha                107.918(2)
_cell_angle_beta                 103.421(2)
_cell_angle_gamma                96.912(2)
_cell_volume                     1642.67
loop_
_atom_site_label
_atom_site_type_symbol
_atom_site_fract_x
_atom_site_fract_y
_atom_site_fract_z
C1 C 0.8920(2) 0.90186(19) 0.43608(16)
C2 C 0.9700(2) 0.97081(19) 0.39927(16)
H1 H 0.9506 0.9508 0.3298
C3 C 0.9243(2) 0.93171(19) 0.53920(16)
C4 C 0.8513(2) 0.8614(2) 0.58795(16)
C5 C 0.9961(2) 0.60102(18) 0.07440(16)
C6 C 0.9180(2) 0.57583(19) -0.02351(16)
H2 H 0.8616 0.6275 -0.0402
C7 C 1.0788(2) 0.52364(19) 0.09744(16)
C8 C 1.1639(2) 0.54431(19) 0.20273(16)
C9 C 0.6055(2) 0.97576(18) 0.07180(16)
C10 C 0.5141(2) 1.05081(18) 0.09786(16)
H3 H 0.5240 1.0871 0.1660
C11 C 0.5908(2) 0.92432(18) -0.02956(16)
C12 C 0.6834(2) 0.84579(19) -0.07389(17)
C13 C 0.3423(3) 0.7878(2) 0.10545(17)
H4 H 0.2461 0.7376 0.0696
H5 H 0.3716 0.8278 0.0627
C14 C 0.3368(3) 0.8744(2) 0.20058(18)
H6 H 0.3075 0.8336 0.2427
H7 H 0.4339 0.9230 0.2366
C15 C 0.6779(3) 0.4304(3) 0.2118(2)
H8 H 0.7073 0.4499 0.2843
H9 H 0.6739 0.3474 0.1806
C16 C 0.5316(3) 0.4575(3) 0.1788(2)
H10 H 0.4612 0.4163 0.2015
H11 H 0.5370 0.5409 0.2087
Cu1 Cu 0.82812(3) 0.67464(2) 0.24092(2)
Cu2 Cu 0.83288(3) 0.81745(2) 0.11677(2)
Cu3 Cu 0.64528(3) 0.81484(2) 0.21964(2)
N1 N 0.4476(2) 0.71873(17) 0.13007(15)
H22 H 0.4591 0.6711 0.0725
H23 H 0.4113 0.6731 0.1608
N2 N 0.2336(2) 0.94841(18) 0.18157(17)
H24 H 0.2783 1.0082 0.1692
H25 H 0.2016 0.9758 0.2354
H26 H 0.1575 0.9065 0.1285
N3 N 0.7825(2) 0.49768(18) 0.18304(18)
H27 H 0.7514 0.4770 0.1155
H28 H 0.8681 0.4741 0.1977
N4 N 0.4823(3) 0.4223(2) 0.0691(2)
H29 H 0.432(3) 0.468(3) 0.041(2)
H30 H 0.412(3) 0.354(2) 0.043(2)
O1 O 0.7888(2) 0.91110(17) 0.64790(15)
O2 O 0.8618(2) 0.75799(14) 0.56868(13)
O3 O 1.28578(18) 0.60961(15) 0.23491(13)
O4 O 1.10569(18) 0.49351(14) 0.24962(12)
O5 O 0.6988(2) 0.84616(16) -0.15558(13)
O6 O 0.74197(19) 0.78382(15) -0.03096(12)
S1 S 0.74680(6) 0.78378(5) 0.35812(4)
S2 S 0.99385(6) 0.72806(5) 0.17030(4)
S3 S 0.73215(6) 0.96243(5) 0.17287(4)
C1A C 1.1080(2) 1.09814(19) 0.56392(16)
C2A C 1.0300(2) 1.02919(19) 0.60073(16)
H1A H 1.0494 1.0492 0.6702
C3A C 1.0757(2) 1.06829(19) 0.46080(16)
C4A C 1.1487(2) 1.1386(2) 0.41205(16)
C5A C 1.0039(2) 0.39898(18) -0.07440(16)
C6A C 1.0820(2) 0.42417(19) 0.02351(16)
H2A H 1.1384 0.3725 0.0402
C7A C 0.9212(2) 0.47636(19) -0.09744(16)
C8A C 0.8361(2) 0.45569(19) -0.20273(16)
C9A C 0.3945(2) 1.02424(18) -0.07180(16)
C10A C 0.4859(2) 0.94919(18) -0.09786(16)
H3A H 0.4760 0.9129 -0.1660
C11A C 0.4092(2) 1.07568(18) 0.02956(16)
C12A C 0.3166(2) 1.15421(19) 0.07389(17)
C13A C 1.6577(3) 1.2122(2) 0.89455(17)
H4A H 1.7539 1.2624 0.9304
H5A H 1.6284 1.1722 0.9373
C14A C 1.6632(3) 1.1256(2) 0.79942(18)
H6A H 1.6925 1.1664 0.7573
H7A H 1.5661 1.0770 0.7634
C15A C 1.3221(3) 1.5696(3) 0.7882(2)
H8A H 1.2927 1.5501 0.7157
H9A H 1.3261 1.6526 0.8194
C16A C 1.4684(3) 1.5425(3) 0.8212(2)
H10A H 1.5388 1.5837 0.7985
H11A H 1.4630 1.4591 0.7913
Cu1A Cu 1.17188(3) 1.32536(2) 0.75908(2)
Cu1A_2 Cu 1.17188(3) 0.32536(2) -0.24092(2)
Cu2A Cu 1.16712(3) 0.18255(2) -0.11677(2)
Cu2A_2 Cu 0.16712(3) 1.18255(2) -0.11677(2)
Cu3A Cu 1.35472(3) 1.18516(2) 0.78036(2)
Cu3A_2 Cu 0.35472(3) 1.18516(2) -0.21964(2)
N1A N 1.5524(2) 1.28127(17) 0.86993(15)
H22A H 1.5409 1.3289 0.9275
H23A H 1.5887 1.3269 0.8392
N2A N 1.7664(2) 1.05159(18) 0.81843(17)
H24A H 1.7217 0.9918 0.8308
H25A H 1.7984 1.0242 0.7646
H26A H 1.8425 1.0935 0.8715
N3A N 1.2175(2) 1.50232(18) 0.81696(18)
H27A H 1.2486 1.5230 0.8845
H28A H 1.1319 1.5259 0.8023
N4A N 1.5177(3) 1.5777(2) 0.9309(2)
H29A H 1.568(3) 1.532(3) 0.959(2)
H30A H 1.588(3) 1.646(2) 0.957(2)
O1A O 1.2112(2) 1.08890(17) 0.35210(15)
O2A O 1.1382(2) 1.24201(14) 0.43132(13)
O3A O 0.71422(18) 0.39039(15) -0.23491(13)
O4A O 0.89431(18) 0.50649(14) -0.24962(12)
O5A O 0.3012(2) 1.15384(16) 0.15558(13)
O6A O 0.25803(19) 1.21618(15) 0.03096(12)
O6A_2 O 1.25803(19) 0.21618(15) 0.03096(12)
S1A S 1.25320(6) 1.21622(5) 0.64188(4)
S2A S 1.00615(6) 0.27194(5) -0.17030(4)
S2A_2 S 1.00615(6) 1.27194(5) 0.82970(4)
S3A S 0.26785(6) 1.03757(5) -0.17287(4)
S3A_2 S 1.26785(6) 0.03757(5) -0.17287(4)
S3A_3 S 1.26785(6) 1.03757(5) 0.82713(4)
C17 C 0.6611(5) 0.1500(3) 0.5341(3)
H12 H 0.5733 0.1226 0.5499
H13 H 0.7424 0.1245 0.5697
C18 C 0.6400(4) 0.0990(3) 0.4246(3)
H14 H 0.7337 0.1181 0.4120
H15 H 0.6149 0.0145 0.4053
N5 N 0.6917(3) 0.2780(2) 0.56695(18)
H31 H 0.7747 0.3031 0.5548
H32 H 0.7015 0.3076 0.6327
H33 H 0.6177 0.3012 0.5333
N9 N 0.5311(4) 0.1331(4) 0.3578(3)
H41 H 0.562(4) 0.2096(18) 0.374(3)
H42 H 0.451(3) 0.126(5) 0.380(3)
C19 C 0.9664(3) 0.2263(2) 0.21962(18)
H16 H 0.9164 0.2759 0.2611
H17 H 0.9505 0.1502 0.2270
C20 C 0.9000(3) 0.2124(2) 0.11271(18)
H18 H 0.7940 0.1921 0.0979
H19 H 0.9241 0.2875 0.1048
N6 N 1.1237(2) 0.27719(16) 0.25646(14)
H34 H 1.1698 0.2349 0.2162
H35 H 1.1589 0.2771 0.3188
H36 H 1.1385 0.3506 0.2569
N7 N 0.9446(2) 0.1262(2) 0.03971(16)
H37 H 1.039(2) 0.149(3) 0.044(2)
H38 H 0.937(3) 0.0603(19) 0.053(2)
C21 C 0.0663(3) 0.5406(3) 0.5034(2)
H20 H 0.1153 0.5846 0.5740
H21 H 0.1329 0.4944 0.4769
N8 N 0.0423(3) 0.6225(2) 0.45174(19)
H39 H -0.008(3) 0.583(3) 0.3874(15)
H40 H -0.019(3) 0.666(3) 0.475(2)
C21A C -0.0663(3) 0.4594(3) 0.4966(2)
H20A H -0.1153 0.4154 0.4260
H21A H -0.1329 0.5056 0.5231
N8A N -0.0423(3) 0.3775(2) 0.54826(19)
H39A H 0.008(3) 0.417(3) 0.6126(15)
H40A H 0.019(3) 0.334(3) 0.525(2)
N10 N 0.4567(5) 0.3853(4) 0.5447(5)
H43 H 0.384(5) 0.379(3) 0.574(4)
H44 H 0.409(6) 0.345(3) 0.4780(15)
C22 C 0.499(2) 0.4990(9) 0.5531(6)
H45 H 0.5958 0.5325 0.6005
H46 H 0.4303 0.5446 0.5774
N10A N 0.5433(5) 0.6147(4) 0.4553(5)
H43A H 0.616(5) 0.621(3) 0.426(4)
H44A H 0.591(6) 0.655(3) 0.5220(15)
C22A C 0.501(2) 0.5010(9) 0.4469(6)
H45A H 0.4042 0.4675 0.3995
H46A H 0.5697 0.4554 0.4226
C23? C 0.486(5) 0.4611(16) 0.4470(8)
H47? H 0.372(6) 0.329(5) 0.451(8)
H48? H 0.460(12) 0.299(3) 0.385(4)
H49? H 0.4015 0.4745 0.4038
H50? H 0.5710 0.4764 0.4233
N11? N 0.4620(11) 0.3474(9) 0.4454(11)
loop_
_geom_bond_atom_site_label_1
_geom_bond_atom_site_label_2
_geom_bond_site_symmetry_1
_geom_bond_site_symmetry_2
C1 C2 1_555 1_555
C2 H1 1_555 1_555
C3 C1 1_555 1_555
C4 C3 1_555 1_555
C5 C6 1_555 1_555
C6 H2 1_555 1_555
C7 C5 1_555 1_555
C8 C7 1_555 1_555
C9 C10 1_555 1_555
C10 H3 1_555 1_555
C11 C9 1_555 1_555
C12 C11 1_555 1_555
C13 H4 1_555 1_555
H5 C13 1_555 1_555
C14 C13 1_555 1_555
H6 C14 1_555 1_555
H7 C14 1_555 1_555
C15 H8 1_555 1_555
H9 C15 1_555 1_555
C16 C15 1_555 1_555
H10 C16 1_555 1_555
H11 C16 1_555 1_555
C17 H12 1_555 1_555
H13 C17 1_555 1_555
C18 C17 1_555 1_555
H14 C18 1_555 1_555
H15 C18 1_555 1_555
C19 H16 1_555 1_555
H17 C19 1_555 1_555
C20 C19 1_555 1_555
H18 C20 1_555 1_555
H19 C20 1_555 1_555
C21 H20 1_555 1_555
H21 C21 1_555 1_555
Cu1 N3 1_555 1_555
Cu2 O6 1_555 1_555
Cu3 N1 1_555 1_555
N1 C13 1_555 1_555
H22 N1 1_555 1_555
H23 N1 1_555 1_555
N2 C14 1_555 1_555
H24 N2 1_555 1_555
H25 N2 1_555 1_555
H26 N2 1_555 1_555
N3 C15 1_555 1_555
H27 N3 1_555 1_555
H28 N3 1_555 1_555
N4 C16 1_555 1_555
H29 N4 1_555 1_555
H30 N4 1_555 1_555
N5 C17 1_555 1_555
H31 N5 1_555 1_555
H32 N5 1_555 1_555
H33 N5 1_555 1_555
N6 C19 1_555 1_555
H34 N6 1_555 1_555
H35 N6 1_555 1_555
H36 N6 1_555 1_555
N7 C20 1_555 1_555
H37 N7 1_555 1_555
H38 N7 1_555 1_555
N8 C21 1_555 1_555
H39 N8 1_555 1_555
H40 N8 1_555 1_555
N9 C18 1_555 1_555
H41 N9 1_555 1_555
H42 N9 1_555 1_555
O1 C4 1_555 1_555
O2 C4 1_555 1_555
O3 C8 1_555 1_555
O4 C8 1_555 1_555
O5 C12 1_555 1_555
O6 C12 1_555 1_555
S1 C1 1_555 1_555
S2 C5 1_555 1_555
S3 C9 1_555 1_555
N10 H43 1_555 1_555
H44 N10 1_555 1_555
C22 N10 1_555 1_555
H45 C22 1_555 1_555
H46 C22 1_555 1_555
C1A C2A 1_555 1_555
C2A C3 1_555 1_555
H1A C2A 1_555 1_555
C3A C2 1_555 1_555
C4A C3A 1_555 1_555
C5A C6A 1_555 1_555
C6A C7 1_555 1_555
H2A C6A 1_555 1_555
C7A C6 1_555 1_555
C8A C7A 1_555 1_555
C9A C10A 1_555 1_555
C10A C11 1_555 1_555
H3A C10A 1_555 1_555
C11A C10 1_555 1_555
C12A C11A 1_555 1_555
C13A H4A 1_555 1_555
H5A C13A 1_555 1_555
C14A C13A 1_555 1_555
H6A C14A 1_555 1_555
H7A C14A 1_555 1_555
C15A H8A 1_555 1_555
H9A C15A 1_555 1_555
C16A C15A 1_555 1_555
H10A C16A 1_555 1_555
H11A C16A 1_555 1_555
C21A C21 1_555 1_555
H20A C21A 1_555 1_555
H21A C21A 1_555 1_555
Cu1A N3A 1_555 1_555
Cu1A_2 S2A 1_555 1_555
Cu2A O6A_2 1_555 1_555
Cu2A_2 O6A 1_555 1_555
Cu3A N1A 1_555 1_555
Cu3A_2 S3A 1_555 1_555
N1A C13A 1_555 1_555
H22A N1A 1_555 1_555
H23A N1A 1_555 1_555
N2A C14A 1_555 1_555
H24A N2A 1_555 1_555
H25A N2A 1_555 1_555
H26A N2A 1_555 1_555
N3A C15A 1_555 1_555
H27A N3A 1_555 1_555
H28A N3A 1_555 1_555
N4A C16A 1_555 1_555
H29A N4A 1_555 1_555
H30A N4A 1_555 1_555
N8A C21A 1_555 1_555
H39A N8A 1_555 1_555
H40A N8A 1_555 1_555
O1A C4A 1_555 1_555
O2A C4A 1_555 1_555
O3A C8A 1_555 1_555
O4A C8A 1_555 1_555
O5A C12A 1_555 1_555
O6A C12A 1_555 1_555
S1A C1A 1_555 1_555
S2A C5A 1_555 1_555
S2A_2 Cu1A 1_555 1_555
S3A C9A 1_555 1_555
S3A_2 Cu2A 1_555 1_555
S3A_3 Cu3A 1_555 1_555
N10A H43A 1_555 1_555
H44A N10A 1_555 1_555
C22A C22 1_555 1_555
H45A C22A 1_555 1_555
H46A C22A 1_555 1_555
Cu1 S1 1_555 1_555
Cu1 S2 1_555 1_555
Cu2 S2 1_555 1_555
Cu2 S3 1_555 1_555
Cu3 S1 1_555 1_555
Cu3 S3 1_555 1_555
C1A C3A 1_555 1_555
C5A C7A 1_555 1_555
C9A C11A 1_555 1_555
Cu1A S1A 1_555 1_555
Cu2A S2A 1_555 1_555
Cu2A_2 S3A 1_555 1_555
Cu3A S1A 1_555 1_555
N10A C22A 1_555 1_555

#END
