
#######################################################################
#
#                 Cambridge Crystallographic Data Centre
#                                CCDC 
#
#######################################################################
#
# If this CIF has been generated from an entry in the Cambridge 
# Structural Database, then it will include bibliographic, chemical, 
# crystal, experimental, refinement or atomic coordinate data resulting 
# from the CCDC's data processing and validation procedures.
#
#######################################################################

data_GUKZUI
_symmetry_cell_setting           monoclinic
_symmetry_space_group_name_H-M   'P 21/c'
_symmetry_Int_Tables_number      14
_space_group_name_Hall           '-P 2ybc'
loop_
_symmetry_equiv_pos_site_id
_symmetry_equiv_pos_as_xyz
1 x,y,z
2 -x,1/2+y,1/2-z
3 -x,-y,-z
4 x,1/2-y,1/2+z
_cell_length_a                   11.338(2)
_cell_length_b                   27.049(5)
_cell_length_c                   8.7365(17)
_cell_angle_alpha                90
_cell_angle_beta                 109.26(3)
_cell_angle_gamma                90
_cell_volume                     2529.37
loop_
_atom_site_label
_atom_site_type_symbol
_atom_site_fract_x
_atom_site_fract_y
_atom_site_fract_z
Co1 Co 0.5000 0.5000 0.0000
Co2 Co 0.54649(6) 0.81043(3) 0.72622(9)
O1 O 1.2477(5) 0.6021(2) 0.6888(7)
O2 O 1.2425(4) 0.66486(19) 0.8468(7)
O3 O 0.5463(4) 0.73155(14) 0.6914(5)
O4 O 0.5891(4) 0.71813(15) 0.4645(5)
O5 O 0.5518(4) 0.60994(13) 0.2114(5)
O6 O 0.5552(4) 0.52820(14) 0.2390(4)
O7 O 0.4864(4) 0.81847(15) 0.4736(5)
H1 H 0.411(3) 0.824(2) 0.414(7)
H2 H 0.513(5) 0.7941(18) 0.434(8)
O8 O 0.4689(4) 0.57080(15) -0.1045(5)
H3 H 0.400(4) 0.583(2) -0.166(7)
H4 H 0.498(6) 0.589(2) -0.023(5)
N1 N 0.7360(4) 0.81325(16) 0.7364(6)
N2 N 1.3565(4) 0.81704(18) 0.7249(6)
N3 N 0.6550(5) 0.62045(18) 0.5521(6)
N4 N 0.3099(4) 0.49427(18) -0.0076(6)
C1 C 1.2975(6) 0.7757(3) 0.7410(9)
H7 H 1.3394 0.7451 0.7448
C2 C 1.1790(6) 0.7751(3) 0.7522(10)
H8 H 1.1425 0.7446 0.7676
C3 C 1.1137(5) 0.8185(2) 0.7412(7)
C4 C 1.1727(6) 0.8615(3) 0.7181(10)
H9 H 1.1310 0.8924 0.7080
C5 C 1.2914(6) 0.8592(2) 0.7100(10)
H10 H 1.3294 0.8890 0.6929
C6 C 0.9848(5) 0.8184(2) 0.7452(8)
C7 C 0.9485(5) 0.7879(2) 0.8497(8)
H11 H 1.0087 0.7681 0.9267
C8 C 0.8249(5) 0.7864(2) 0.8414(7)
H12 H 0.8021 0.7653 0.9139
C9 C 0.8921(5) 0.8473(2) 0.6395(8)
H13 H 0.9123 0.8696 0.5680
C10 C 0.7701(5) 0.8434(2) 0.6385(7)
H14 H 0.7079 0.8632 0.5643
C11 C 0.2841(6) 0.4892(4) 0.1278(9)
H15 H 0.3514 0.4838 0.2254
C12 C 0.1653(6) 0.4911(4) 0.1360(9)
H16 H 0.1527 0.4876 0.2377
C13 C 0.0653(5) 0.4981(2) -0.0011(7)
C14 C 0.0913(6) 0.5029(3) -0.1456(9)
H17 H 0.0253 0.5075 -0.2452
C15 C 0.2130(6) 0.5010(3) -0.1433(8)
H18 H 0.2291 0.5046 -0.2428
C16 C 0.5732(5) 0.7040(2) 0.5917(7)
C17 C 0.5667(5) 0.57127(19) 0.2944(7)
C18 C 0.5984(6) 0.57484(19) 0.4783(7)
H19 H 0.5205 0.5698 0.5042
H20 H 0.6557 0.5474 0.5288
C19 C 0.5895(5) 0.6495(2) 0.6370(7)
H21 H 0.6351 0.6469 0.7548
H22 H 0.5057 0.6348 0.6167
C20 C 0.7852(5) 0.6240(2) 0.5965(7)
C21 C 0.8532(6) 0.6573(2) 0.7161(8)
H23 H 0.8104 0.6787 0.7663
C22 C 0.8527(6) 0.5952(2) 0.5215(7)
H24 H 0.8091 0.5729 0.4378
C23 C 0.9814(6) 0.5983(2) 0.5661(9)
H25 H 1.0243 0.5785 0.5116
C24 C 1.0499(6) 0.6302(2) 0.6908(8)
C25 C 0.9819(6) 0.6592(2) 0.7614(8)
H26 H 1.0255 0.6815 0.8449
C26 C 1.1909(6) 0.6328(2) 0.7454(8)
Co1_2 Co -0.5000 0.5000 0.0000
Co2B Co 0.45351(6) 0.18957(3) -0.72622(9)
Co2C Co 0.54649(6) 0.68957(3) 0.22622(9)
Co2_2 Co 1.54649(6) 0.81043(3) 0.72622(9)
Co2A Co 0.45351(6) 0.31043(3) -0.22622(9)
Co2_3 Co -0.45351(6) 0.81043(3) 0.72622(9)
O1B O -0.2477(5) 0.3979(2) -0.6888(7)
O2B O -0.2425(4) 0.33514(19) -0.8468(7)
O3B O 0.4537(4) 0.26845(14) -0.6914(5)
O4B O 0.4109(4) 0.28187(15) -0.4645(5)
O4C O 0.5891(4) 0.78187(15) 0.9645(5)
O4A O 0.4109(4) 0.21813(15) -0.9645(5)
O5B O 0.4482(4) 0.39006(13) -0.2114(5)
O5C O 0.5518(4) 0.89006(13) 0.7114(5)
O5A O 0.4482(4) 0.10994(13) -0.7114(5)
O6B O 0.4448(4) 0.47180(14) -0.2390(4)
O7B O 0.5136(4) 0.18153(15) -0.4736(5)
H1B H 0.589(3) 0.176(2) -0.414(7)
H2B H 0.487(5) 0.2059(18) -0.434(8)
O8B O 0.5311(4) 0.42920(15) 0.1045(5)
H3B H 0.600(4) 0.417(2) 0.166(7)
H4B H 0.502(6) 0.411(2) 0.023(5)
N1_2 N -0.2640(4) 0.81325(16) 0.7364(6)
N1B N 0.2640(4) 0.18675(16) -0.7364(6)
N2_2 N 0.3565(4) 0.81704(18) 0.7249(6)
N2B N 0.6435(4) 0.18296(18) -0.7249(6)
N3B N 0.3450(5) 0.37955(18) -0.5521(6)
N4B N -0.3099(4) 0.50573(18) 0.0076(6)
N4B_2 N 0.6901(4) 0.50573(18) 0.0076(6)
C1_2 C 0.2975(6) 0.7757(3) 0.7410(9)
H7_2 H 0.3394 0.7451 0.7448
C2_2 C 0.1790(6) 0.7751(3) 0.7522(10)
H8_2 H 0.1425 0.7446 0.7676
C3_2 C 0.1137(5) 0.8185(2) 0.7412(7)
C4_2 C 0.1727(6) 0.8615(3) 0.7181(10)
H9_2 H 0.1310 0.8924 0.7080
C5_2 C 0.2914(6) 0.8592(2) 0.7100(10)
H10_2 H 0.3294 0.8890 0.6929
C6_2 C -0.0152(5) 0.8184(2) 0.7452(8)
C7_2 C -0.0515(5) 0.7879(2) 0.8497(8)
H11_2 H 0.0087 0.7681 0.9267
C8_2 C -0.1751(5) 0.7864(2) 0.8414(7)
H12_2 H -0.1979 0.7653 0.9139
C9_2 C -0.1079(5) 0.8473(2) 0.6395(8)
H13_2 H -0.0877 0.8696 0.5680
C10_2 C -0.2299(5) 0.8434(2) 0.6385(7)
H14_2 H -0.2921 0.8632 0.5643
C11B C -0.2841(6) 0.5108(4) -0.1278(9)
H15B H -0.3514 0.5162 -0.2254
C12B C -0.1653(6) 0.5089(4) -0.1360(9)
H16B H -0.1527 0.5124 -0.2377
C13B C -0.0653(5) 0.5019(2) 0.0011(7)
C14B C -0.0913(6) 0.4971(3) 0.1456(9)
H17B H -0.0253 0.4925 0.2452
C15B C -0.2130(6) 0.4990(3) 0.1433(8)
H18B H -0.2291 0.4954 0.2428
C16B C 0.4268(5) 0.2960(2) -0.5917(7)
C17B C 0.4333(5) 0.42873(19) -0.2944(7)
C18B C 0.4016(6) 0.42516(19) -0.4783(7)
H19B H 0.4795 0.4302 -0.5042
H20B H 0.3443 0.4526 -0.5288
C19B C 0.4105(5) 0.3505(2) -0.6370(7)
H21B H 0.3649 0.3531 -0.7548
H22B H 0.4943 0.3652 -0.6167
C20B C 0.2148(5) 0.3760(2) -0.5965(7)
C21B C 0.1468(6) 0.3427(2) -0.7161(8)
H23B H 0.1896 0.3213 -0.7663
C22B C 0.1473(6) 0.4048(2) -0.5215(7)
H24B H 0.1909 0.4271 -0.4378
C23B C 0.0186(6) 0.4017(2) -0.5661(9)
H25B H -0.0243 0.4215 -0.5116
C24B C -0.0499(6) 0.3698(2) -0.6908(8)
C25B C 0.0181(6) 0.3408(2) -0.7614(8)
H26B H -0.0255 0.3185 -0.8449
C26B C -0.1909(6) 0.3672(2) -0.7454(8)
O9 O 0.3129(8) 0.5411(4) 0.4943(12)
H5 H 0.233(4) 0.534(5) 0.452(15)
H6 H 0.312(11) 0.566(3) 0.556(14)
loop_
_geom_bond_atom_site_label_1
_geom_bond_atom_site_label_2
_geom_bond_site_symmetry_1
_geom_bond_site_symmetry_2
Co1 O6 1_555 1_555
Co2 O3 1_555 1_555
O1 C26 1_555 1_555
O2 C26 1_555 1_555
O3 C16 1_555 1_555
O4 C16 1_555 1_555
O5 C17 1_555 1_555
O6 C17 1_555 1_555
O7 Co2 1_555 1_555
H1 O7 1_555 1_555
H2 O7 1_555 1_555
O8 Co1 1_555 1_555
H3 O8 1_555 1_555
H4 O8 1_555 1_555
O9 H5 1_555 1_555
H6 O9 1_555 1_555
N1 Co2 1_555 1_555
N2 C1 1_555 1_555
N3 C18 1_555 1_555
N4 Co1 1_555 1_555
C1 H7 1_555 1_555
C2 C1 1_555 1_555
H8 C2 1_555 1_555
C3 C2 1_555 1_555
C4 C3 1_555 1_555
H9 C4 1_555 1_555
C5 N2 1_555 1_555
H10 C5 1_555 1_555
C6 C3 1_555 1_555
C7 C6 1_555 1_555
H11 C7 1_555 1_555
C8 N1 1_555 1_555
H12 C8 1_555 1_555
C9 C6 1_555 1_555
H13 C9 1_555 1_555
C10 N1 1_555 1_555
H14 C10 1_555 1_555
C11 N4 1_555 1_555
H15 C11 1_555 1_555
C12 C11 1_555 1_555
H16 C12 1_555 1_555
C13 C12 1_555 1_555
C14 C13 1_555 1_555
H17 C14 1_555 1_555
C15 N4 1_555 1_555
H18 C15 1_555 1_555
C16 C19 1_555 1_555
C17 C18 1_555 1_555
C18 H19 1_555 1_555
H20 C18 1_555 1_555
C19 N3 1_555 1_555
H21 C19 1_555 1_555
H22 C19 1_555 1_555
C20 N3 1_555 1_555
C21 C20 1_555 1_555
H23 C21 1_555 1_555
C22 C20 1_555 1_555
H24 C22 1_555 1_555
C23 C22 1_555 1_555
H25 C23 1_555 1_555
C24 C23 1_555 1_555
C25 C21 1_555 1_555
H26 C25 1_555 1_555
C26 C24 1_555 1_555
Co1_2 N4B 1_555 1_555
Co2B O3B 1_555 1_555
Co2C O4 1_555 1_555
Co2_2 N2 1_555 1_555
Co2A O4B 1_555 1_555
Co2_3 N1_2 1_555 1_555
O1B C26B 1_555 1_555
O2B C26B 1_555 1_555
O3B C16B 1_555 1_555
O4B C16B 1_555 1_555
O4C Co2 1_555 1_555
O4A Co2B 1_555 1_555
O5B Co2A 1_555 1_555
O5C Co2 1_555 1_555
O5A Co2B 1_555 1_555
O6B Co1 1_555 1_555
O7B Co2B 1_555 1_555
H1B O7B 1_555 1_555
H2B O7B 1_555 1_555
O8B Co1 1_555 1_555
H3B O8B 1_555 1_555
H4B O8B 1_555 1_555
N1_2 C8_2 1_555 1_555
N1B Co2B 1_555 1_555
N2_2 Co2 1_555 1_555
N2B Co2B 1_555 1_555
N3B C18B 1_555 1_555
N4B C11B 1_555 1_555
N4B_2 Co1 1_555 1_555
C1_2 N2_2 1_555 1_555
H7_2 C1_2 1_555 1_555
C2_2 C1_2 1_555 1_555
H8_2 C2_2 1_555 1_555
C3_2 C2_2 1_555 1_555
C4_2 C3_2 1_555 1_555
H9_2 C4_2 1_555 1_555
C5_2 N2_2 1_555 1_555
H10_2 C5_2 1_555 1_555
C6_2 C3_2 1_555 1_555
C7_2 C6_2 1_555 1_555
H11_2 C7_2 1_555 1_555
C8_2 C7_2 1_555 1_555
H12_2 C8_2 1_555 1_555
C9_2 C6_2 1_555 1_555
H13_2 C9_2 1_555 1_555
C10_2 N1_2 1_555 1_555
H14_2 C10_2 1_555 1_555
C11B H15B 1_555 1_555
C12B C11B 1_555 1_555
H16B C12B 1_555 1_555
C13B C13 1_555 1_555
C14B C13B 1_555 1_555
H17B C14B 1_555 1_555
C15B N4B 1_555 1_555
H18B C15B 1_555 1_555
C16B C19B 1_555 1_555
C17B O5B 1_555 1_555
C18B C17B 1_555 1_555
H19B C18B 1_555 1_555
H20B C18B 1_555 1_555
C19B N3B 1_555 1_555
H21B C19B 1_555 1_555
H22B C19B 1_555 1_555
C20B N3B 1_555 1_555
C21B C20B 1_555 1_555
H23B C21B 1_555 1_555
C22B C20B 1_555 1_555
H24B C22B 1_555 1_555
C23B C22B 1_555 1_555
H25B C23B 1_555 1_555
C24B C23B 1_555 1_555
C25B C21B 1_555 1_555
H26B C25B 1_555 1_555
C26B C24B 1_555 1_555
O5 Co2C 1_555 1_555
C4 C5 1_555 1_555
C7 C8 1_555 1_555
C9 C10 1_555 1_555
C14 C15 1_555 1_555
C24 C25 1_555 1_555
O6B C17B 1_555 1_555
C4_2 C5_2 1_555 1_555
C9_2 C10_2 1_555 1_555
C12B C13B 1_555 1_555
C14B C15B 1_555 1_555
C24B C25B 1_555 1_555

#END
