
#######################################################################
#
#                 Cambridge Crystallographic Data Centre
#                                CCDC 
#
#######################################################################
#
# If this CIF has been generated from an entry in the Cambridge 
# Structural Database, then it will include bibliographic, chemical, 
# crystal, experimental, refinement or atomic coordinate data resulting 
# from the CCDC's data processing and validation procedures.
#
#######################################################################

data_GUKZOC
_symmetry_cell_setting           monoclinic
_symmetry_space_group_name_H-M   'P 21/c'
_symmetry_Int_Tables_number      14
_space_group_name_Hall           '-P 2ybc'
loop_
_symmetry_equiv_pos_site_id
_symmetry_equiv_pos_as_xyz
1 x,y,z
2 -x,1/2+y,1/2-z
3 -x,-y,-z
4 x,1/2-y,1/2+z
_cell_length_a                   21.460(4)
_cell_length_b                   10.300(2)
_cell_length_c                   9.2633(19)
_cell_angle_alpha                90
_cell_angle_beta                 90.50(3)
_cell_angle_gamma                90
_cell_volume                     2047.46
loop_
_atom_site_label
_atom_site_type_symbol
_atom_site_fract_x
_atom_site_fract_y
_atom_site_fract_z
Cd1 Cd 0.920719(8) 0.419427(16) 0.452977(18)
O1 O 1.02890(9) 0.38404(19) 0.4556(2)
O2 O 1.10734(9) 0.3479(2) 0.6040(2)
O3 O 1.09145(9) -0.18404(17) 0.58055(19)
O4 O 1.07278(10) -0.15714(17) 0.81382(18)
O5 O 1.40776(11) 0.0554(3) 0.4430(3)
O6 O 1.37726(11) 0.1878(3) 0.2643(3)
H1 H 1.4138 0.1759 0.2357
O7 O 0.93265(11) 0.40922(18) 0.2111(2)
H2 H 0.9129(16) 0.450(3) 0.146(3)
H3 H 0.9298(17) 0.3282(17) 0.188(4)
N1 N 1.11166(10) 0.08271(19) 0.5384(2)
N2 N 0.81183(11) 0.4070(2) 0.4952(3)
N3 N 0.49219(13) 0.3429(3) 0.6593(4)
C1 C 1.06749(11) 0.3087(2) 0.5173(3)
C2 C 1.06505(11) 0.1669(2) 0.4724(3)
H4 H 1.0233 0.1323 0.4959
H5 H 1.0697 0.1622 0.3663
C3 C 1.08647(11) -0.1153(2) 0.6896(2)
C4 C 1.09502(12) 0.0320(2) 0.6797(3)
H6 H 1.0558 0.0740 0.7100
H7 H 1.1278 0.0579 0.7498
C5 C 1.17413(12) 0.0968(2) 0.5038(3)
C6 C 1.22097(13) 0.0313(3) 0.5828(3)
H8 H 1.2099 -0.0203 0.6637
C7 C 1.19295(12) 0.1719(3) 0.3859(3)
H9 H 1.1625 0.2179 0.3312
C8 C 1.25496(13) 0.1803(3) 0.3477(3)
H10 H 1.2664 0.2315 0.2669
C9 C 1.30094(12) 0.1147(3) 0.4258(3)
C10 C 1.28279(13) 0.0414(3) 0.5436(3)
H11 H 1.3136 -0.0029 0.5988
C11 C 1.36723(14) 0.1160(3) 0.3806(4)
C12 C 0.77261(14) 0.5054(3) 0.4700(4)
H12 H 0.7889 0.5832 0.4302
C13 C 0.70928(14) 0.5000(3) 0.4989(4)
H13 H 0.6834 0.5731 0.4811
C14 C 0.68444(14) 0.3862(3) 0.5542(4)
C15 C 0.72513(15) 0.2855(3) 0.5821(4)
H14 H 0.7103 0.2067 0.6226
C16 C 0.78761(14) 0.2996(3) 0.5508(4)
H15 H 0.8147 0.2286 0.5702
C17 C 0.61692(14) 0.3743(3) 0.5870(4)
C18 C 0.58505(16) 0.4701(4) 0.6609(5)
H16 H 0.6052 0.5488 0.6877
C19 C 0.58420(15) 0.2636(4) 0.5472(4)
H17 H 0.6042 0.1960 0.4955
C20 C 0.52371(18) 0.4489(5) 0.6945(5)
H18 H 0.5025 0.5147 0.7464
C21 C 0.52210(16) 0.2531(4) 0.5841(5)
H19 H 0.4998 0.1781 0.5540
Cd1B Cd 1.079281(8) 0.580573(16) 0.547023(18)
Cd1B_2 Cd 1.079281(8) -0.419427(16) 0.547023(18)
Cd1A Cd 1.079281(8) -0.080573(16) 1.047023(18)
O1B O 0.97110(9) 0.61596(19) 0.5444(2)
O2B O 0.89266(9) 0.6521(2) 0.3960(2)
O3B O 0.90855(9) 0.18404(17) 0.41945(19)
O4A O 0.92722(10) 0.34286(17) 0.68618(18)
loop_
_geom_bond_atom_site_label_1
_geom_bond_atom_site_label_2
_geom_bond_site_symmetry_1
_geom_bond_site_symmetry_2
Cd1 O1 1_555 1_555
O1 C1 1_555 1_555
O2 C1 1_555 1_555
O3 C3 1_555 1_555
O4 C3 1_555 1_555
O5 C11 1_555 1_555
O6 H1 1_555 1_555
O7 Cd1 1_555 1_555
H2 O7 1_555 1_555
H3 O7 1_555 1_555
N1 C2 1_555 1_555
N2 Cd1 1_555 1_555
N3 C20 1_555 1_555
C1 C2 1_555 1_555
C2 H4 1_555 1_555
H5 C2 1_555 1_555
C3 C4 1_555 1_555
C4 N1 1_555 1_555
H6 C4 1_555 1_555
H7 C4 1_555 1_555
C5 N1 1_555 1_555
C6 C5 1_555 1_555
H8 C6 1_555 1_555
C7 C5 1_555 1_555
H9 C7 1_555 1_555
C8 C7 1_555 1_555
H10 C8 1_555 1_555
C9 C8 1_555 1_555
C10 C6 1_555 1_555
H11 C10 1_555 1_555
C11 O6 1_555 1_555
C12 N2 1_555 1_555
H12 C12 1_555 1_555
C13 C12 1_555 1_555
H13 C13 1_555 1_555
C14 C13 1_555 1_555
C15 C14 1_555 1_555
H14 C15 1_555 1_555
C16 N2 1_555 1_555
H15 C16 1_555 1_555
C17 C14 1_555 1_555
C18 C17 1_555 1_555
H16 C18 1_555 1_555
C19 C17 1_555 1_555
H17 C19 1_555 1_555
C20 C18 1_555 1_555
H18 C20 1_555 1_555
C21 N3 1_555 1_555
H19 C21 1_555 1_555
Cd1B O1 1_555 1_555
Cd1B_2 O3 1_555 1_555
Cd1A O4 1_555 1_555
O1B Cd1 1_555 1_555
O2B Cd1 1_555 1_555
O3B Cd1 1_555 1_555
O4A Cd1 1_555 1_555
O2 Cd1B 1_555 1_555
C9 C10 1_555 1_555
C9 C11 1_555 1_555
C15 C16 1_555 1_555
C19 C21 1_555 1_555
Cd1B O1B 1_555 1_555

#END
