
#######################################################################
#
#                 Cambridge Crystallographic Data Centre
#                                CCDC 
#
#######################################################################
#
# If this CIF has been generated from an entry in the Cambridge 
# Structural Database, then it will include bibliographic, chemical, 
# crystal, experimental, refinement or atomic coordinate data resulting 
# from the CCDC's data processing and validation procedures.
#
#######################################################################

data_GUKZAP
_symmetry_cell_setting           triclinic
_symmetry_space_group_name_H-M   'P -1'
_symmetry_Int_Tables_number      2
_space_group_name_Hall           '-P 1'
loop_
_symmetry_equiv_pos_site_id
_symmetry_equiv_pos_as_xyz
1 x,y,z
2 -x,-y,-z
_cell_length_a                   4.6746(12)
_cell_length_b                   11.632(3)
_cell_length_c                   13.537(3)
_cell_angle_alpha                76.891(18)
_cell_angle_beta                 84.108(19)
_cell_angle_gamma                85.173(19)
_cell_volume                     711.696
loop_
_atom_site_label
_atom_site_type_symbol
_atom_site_fract_x
_atom_site_fract_y
_atom_site_fract_z
Br1 Br 0.5000 0.5000 0.5000
Ca1 Ca 0.5000 0.5000 0.0000
O1 O 1.2002(10) 0.5612(5) 0.1274(3)
O2 O 0.8381(9) 0.4509(4) 0.1208(3)
O3 O 0.3391(16) 0.3128(7) 0.0360(4)
H1 H 0.1608 0.2951 0.0488
H2 H 0.4486 0.2485 0.0388
N1 N 1.1354(9) 0.7856(3) 0.3291(3)
N2 N 0.8901(10) 0.6838(4) 0.2554(3)
C1 C 0.9521(13) 0.5278(5) 0.1530(4)
C2 C 0.7635(13) 0.5833(5) 0.2309(4)
H3 H 0.5782 0.6099 0.2046
H4 H 0.7303 0.5234 0.2929
C3 C 0.8902(13) 0.7979(5) 0.1957(4)
H5 H 0.8034 0.8256 0.1353
C4 C 1.0402(13) 0.8604(5) 0.2424(4)
H6 H 1.0742 0.9401 0.2202
C5 C 1.0421(11) 0.6788(4) 0.3342(3)
H7 H 1.0778 0.6117 0.3848
C6 C 1.3059(11) 0.8174(4) 0.4045(4)
H8 H 1.4887 0.8451 0.3709
H9 H 1.3460 0.7475 0.4570
C7 C 1.1505(11) 0.9117(4) 0.4529(3)
C8 C 0.9413(12) 0.8787(4) 0.5361(4)
C9 C 0.8707(13) 0.7584(4) 0.5747(4)
H10 H 0.9630 0.7001 0.5436
C10 C 0.6731(13) 0.7267(4) 0.6552(4)
H11 H 0.6357 0.6474 0.6792
C11 C 0.5239(13) 0.8130(5) 0.7029(4)
H12 H 0.3857 0.7909 0.7570
C12 C 0.5831(12) 0.9293(5) 0.6694(4)
H13 H 0.4876 0.9851 0.7026
C13 C 1.2123(11) 1.0327(4) 0.4152(3)
O2A O 1.1619(9) 1.5491(4) 0.8792(3)
N1A N 0.8646(9) 1.2144(3) 0.6709(3)
N2A N 1.1099(10) 1.3162(4) 0.7446(3)
C1A C 1.0479(13) 1.4722(5) 0.8470(4)
C2A C 1.2365(13) 1.4167(5) 0.7691(4)
H3A H 1.4218 1.3901 0.7954
H4A H 1.2697 1.4766 0.7071
C3A C 1.1098(13) 1.2021(5) 0.8043(4)
H5A H 1.1966 1.1744 0.8647
C4A C 0.9598(13) 1.1396(5) 0.7576(4)
H6A H 0.9258 1.0599 0.7798
C5A C 0.9579(11) 1.3212(4) 0.6658(3)
H7A H 0.9222 1.3883 0.6152
C6A C 0.6941(11) 1.1826(4) 0.5955(4)
H8A H 0.5113 1.1549 0.6291
H9A H 0.6540 1.2525 0.5430
C7A C 0.8495(11) 1.0883(4) 0.5471(3)
C8A C 1.0587(12) 1.1213(4) 0.4639(4)
C9A C 1.1293(13) 1.2416(4) 0.4253(4)
H10A H 1.0370 1.2999 0.4564
C10A C 1.3269(13) 1.2733(4) 0.3448(4)
H11A H 1.3643 1.3526 0.3208
C11A C 1.4761(13) 1.1870(5) 0.2971(4)
H12A H 1.6143 1.2091 0.2430
C12A C 1.4169(12) 1.0707(5) 0.3306(4)
H13A H 1.5124 1.0149 0.2974
C13A C 0.7877(11) 0.9673(4) 0.5848(3)
O1A O 0.7998(10) 1.4388(5) 0.8726(3)
O3A O 0.6609(16) 0.6872(7) -0.0360(4)
H1A H 0.8392 0.7049 -0.0488
H2A H 0.5514 0.7515 -0.0388
Ca1_2 Ca 0.5000 1.5000 1.0000
Ca1_3 Ca 1.5000 0.5000 0.0000
Ca1_4 Ca 1.5000 1.5000 1.0000
O1_2 O 0.2002(10) 0.5612(5) 0.1274(3)
O1A_2 O 0.7998(10) 0.4388(5) -0.1274(3)
O2A_2 O 0.1619(9) 0.5491(4) -0.1208(3)
loop_
_geom_bond_atom_site_label_1
_geom_bond_atom_site_label_2
_geom_bond_site_symmetry_1
_geom_bond_site_symmetry_2
Ca1 O2 1_555 1_555
O1 C1 1_555 1_555
O2 C1 1_555 1_555
O3 Ca1 1_555 1_555
H1 O3 1_555 1_555
H2 O3 1_555 1_555
N1 C4 1_555 1_555
N2 C2 1_555 1_555
C1 C2 1_555 1_555
C2 H3 1_555 1_555
H4 C2 1_555 1_555
C3 N2 1_555 1_555
H5 C3 1_555 1_555
C4 C3 1_555 1_555
H6 C4 1_555 1_555
C5 N1 1_555 1_555
H7 C5 1_555 1_555
C6 N1 1_555 1_555
H8 C6 1_555 1_555
H9 C6 1_555 1_555
C7 C6 1_555 1_555
C8 C7 1_555 1_555
C9 C8 1_555 1_555
H10 C9 1_555 1_555
C10 C9 1_555 1_555
H11 C10 1_555 1_555
C11 C10 1_555 1_555
H12 C11 1_555 1_555
C12 C11 1_555 1_555
H13 C12 1_555 1_555
C13 C7 1_555 1_555
O2A C1A 1_555 1_555
N1A C4A 1_555 1_555
N2A C2A 1_555 1_555
C1A C2A 1_555 1_555
C2A H3A 1_555 1_555
H4A C2A 1_555 1_555
C3A N2A 1_555 1_555
H5A C3A 1_555 1_555
C4A C3A 1_555 1_555
H6A C4A 1_555 1_555
C5A N1A 1_555 1_555
H7A C5A 1_555 1_555
C6A N1A 1_555 1_555
H8A C6A 1_555 1_555
H9A C6A 1_555 1_555
C7A C6A 1_555 1_555
C8A C13 1_555 1_555
C9A C8A 1_555 1_555
H10A C9A 1_555 1_555
C10A C9A 1_555 1_555
H11A C10A 1_555 1_555
C11A C10A 1_555 1_555
H12A C11A 1_555 1_555
C12A C13 1_555 1_555
H13A C12A 1_555 1_555
C13A C8 1_555 1_555
O1A C1A 1_555 1_555
O3A Ca1 1_555 1_555
H1A O3A 1_555 1_555
H2A O3A 1_555 1_555
Ca1_2 O1A 1_555 1_555
Ca1_3 O1 1_555 1_555
Ca1_4 O2A 1_555 1_555
O1_2 Ca1 1_555 1_555
O1A_2 Ca1 1_555 1_555
O2A_2 Ca1 1_555 1_555
N2 C5 1_555 1_555
C12 C13A 1_555 1_555
N2A C5A 1_555 1_555
C7A C8A 1_555 1_555
C7A C13A 1_555 1_555
C11A C12A 1_555 1_555

#END
