
#######################################################################
#
#                 Cambridge Crystallographic Data Centre
#                                CCDC 
#
#######################################################################
#
# If this CIF has been generated from an entry in the Cambridge 
# Structural Database, then it will include bibliographic, chemical, 
# crystal, experimental, refinement or atomic coordinate data resulting 
# from the CCDC's data processing and validation procedures.
#
#######################################################################

data_GUKZES
_symmetry_cell_setting           triclinic
_symmetry_space_group_name_H-M   'P -1'
_symmetry_Int_Tables_number      2
_space_group_name_Hall           '-P 1'
loop_
_symmetry_equiv_pos_site_id
_symmetry_equiv_pos_as_xyz
1 x,y,z
2 -x,-y,-z
_cell_length_a                   10.601(2)
_cell_length_b                   11.773(2)
_cell_length_c                   12.609(3)
_cell_angle_alpha                65.10(3)
_cell_angle_beta                 82.81(3)
_cell_angle_gamma                74.17(3)
_cell_volume                     1373.16
loop_
_atom_site_label
_atom_site_type_symbol
_atom_site_fract_x
_atom_site_fract_y
_atom_site_fract_z
Pb1 Pb 0.68093(4) 0.88353(4) 0.65239(3)
Pb2 Pb 0.71797(4) -0.05963(4) 1.29015(4)
Pb3 Pb 1.10412(3) -0.07820(4) 1.20027(3)
O1 O 0.7956(9) 0.6759(8) 0.8006(8)
O2 O 0.5982(8) 0.7638(8) 0.8443(7)
O3 O 0.5751(10) 0.0924(9) 1.3852(9)
O4 O 0.4259(8) 0.2624(10) 1.3850(9)
O5 O 1.0793(8) 0.0433(9) 1.3374(8)
O6 O 0.8932(8) 0.0560(8) 1.2639(8)
O7 O 0.0610(9) 1.1554(10) 1.0063(8)
O8 O 0.1182(8) 1.1140(9) 0.8488(9)
O9 O 0.6767(8) 1.0184(9) 0.8191(9)
O10 O 0.5130(8) 1.0690(9) 0.6994(8)
O11 O 0.0544(8) 1.7438(8) 0.3958(8)
O12 O 0.2568(9) 1.7205(9) 0.3375(8)
O13 O 0.6333(9) 0.1048(10) 1.1074(9)
O14 O 0.8269(11) 0.7528(12) 0.5171(11)
H1 H 0.841(17) 0.672(5) 0.535(19)
H2 H 0.901(8) 0.771(16) 0.508(19)
O15 O 1.1955(10) -0.2187(12) 1.0588(10)
H3 H 1.256(13) -0.257(15) 1.109(13)
H4 H 1.157(16) -0.273(13) 1.059(17)
N1 N 0.3418(8) 1.2109(9) 0.8130(7)
N2 N 0.7578(9) 0.2610(9) 1.3258(8)
C1 C 0.9584(9) 0.0896(11) 1.3200(10)
C2 C 0.8879(10) 0.1890(11) 1.3701(9)
H5 H 0.9424 0.2510 1.3533
H6 H 0.8818 0.1435 1.4561
C3 C 0.6503(10) 0.2551(11) 1.4085(10)
H7 H 0.6856 0.2019 1.4882
H8 H 0.6094 0.3434 1.4036
C4 C 0.5440(11) 0.1994(11) 1.3907(9)
C5 C 0.7442(9) 0.3555(9) 1.2147(10)
C6 C 0.8500(10) 0.3737(12) 1.1352(10)
H9 H 0.9342 0.3169 1.1577
C7 C 0.8331(10) 0.4743(11) 1.0232(9)
H10 H 0.9052 0.4828 0.9699
C8 C 0.6071(12) 0.5437(12) 1.0667(11)
H11 H 0.5241 0.6030 1.0445
C9 C 0.6194(10) 0.4425(10) 1.1746(9)
H12 H 0.5441 0.4301 1.2234
C10 C 0.7011(11) 0.6700(12) 0.8752(11)
C11 C 0.7119(10) 0.5620(11) 0.9893(10)
C12 C 0.5647(10) 1.0782(11) 0.7795(9)
C13 C 0.4826(9) 1.1725(11) 0.8332(10)
H13 H 0.4970 1.1315 0.9186
H14 H 0.5162 1.2513 0.8011
C14 C 0.1363(10) 1.1509(9) 0.9250(9)
C15 C 0.2598(11) 1.1947(12) 0.9187(9)
H15 H 0.2343 1.2782 0.9267
H16 H 0.3143 1.1313 0.9870
C16 C 0.2973(9) 1.3286(9) 0.7122(8)
C17 C 0.3799(10) 1.3709(12) 0.6141(10)
H17 H 0.4667 1.3201 0.6148
C18 C 0.3389(10) 1.4816(9) 0.5190(9)
H18 H 0.3985 1.5099 0.4564
C19 C 0.1681(10) 1.4025(11) 0.7038(10)
H19 H 0.1096 1.3758 0.7679
C20 C 0.1706(11) 1.6800(10) 0.4092(9)
C21 C 0.2091(11) 1.5550(10) 0.5122(9)
C22 C 0.1231(11) 1.5114(11) 0.6074(11)
H20 H 0.0340 1.5580 0.6039
Pb1A Pb 0.31907(4) 0.11647(4) 1.34761(3)
Pb1A_2 Pb 1.31907(4) 0.11647(4) 1.34761(3)
Pb2A Pb 0.28203(4) 1.05963(4) 0.70985(4)
Pb2_2 Pb 0.71797(4) 0.94037(4) 0.29015(4)
Pb3_2 Pb 0.10412(3) 0.92180(4) 1.20027(3)
Pb3A Pb -0.10412(3) 1.07820(4) 0.79973(3)
Pb3A_2 Pb 0.89588(3) 1.07820(4) 0.79973(3)
Pb3_3 Pb 0.10412(3) 1.92180(4) 0.20027(3)
O3A O 0.4249(10) 0.9076(9) 0.6148(9)
O4A O 0.5741(8) 0.7376(10) 0.6150(9)
O5A O 0.9207(8) 0.9567(9) 0.6626(8)
O7_2 O 1.0610(9) 0.1554(10) 1.0063(8)
O8A O 0.8818(8) -0.1140(9) 1.1512(9)
O9A O 1.3233(8) -0.0184(9) 1.1809(9)
O10A O 0.4870(8) -0.0690(9) 1.3006(8)
O11_2 O 1.0544(8) -0.2562(8) 1.3958(8)
O12_2 O 1.2568(9) -0.2795(9) 1.3375(8)
O14_2 O 0.8269(11) -0.2472(12) 1.5171(11)
H1_2 H 0.841(17) -0.328(5) 1.535(19)
H2_2 H 0.901(8) -0.229(16) 1.508(19)
N1A N 0.6582(8) -0.2109(9) 1.1870(7)
O16 O 0.211(2) 0.531(2) 1.2477(18)
loop_
_geom_bond_atom_site_label_1
_geom_bond_atom_site_label_2
_geom_bond_site_symmetry_1
_geom_bond_site_symmetry_2
Pb1 O1 1_555 1_555
Pb2 O3 1_555 1_555
Pb3 O5 1_555 1_555
O1 C10 1_555 1_555
O2 Pb1 1_555 1_555
O3 C4 1_555 1_555
O4 C4 1_555 1_555
O5 C1 1_555 1_555
O6 Pb2 1_555 1_555
O7 C14 1_555 1_555
O8 C14 1_555 1_555
O9 C12 1_555 1_555
O10 Pb1 1_555 1_555
O11 C20 1_555 1_555
O12 C20 1_555 1_555
O13 Pb2 1_555 1_555
O14 Pb1 1_555 1_555
H1 O14 1_555 1_555
H2 O14 1_555 1_555
O15 Pb3 1_555 1_555
H3 O15 1_555 1_555
H4 O15 1_555 1_555
N1 C13 1_555 1_555
N2 C2 1_555 1_555
C1 O6 1_555 1_555
C2 C1 1_555 1_555
H5 C2 1_555 1_555
H6 C2 1_555 1_555
C3 N2 1_555 1_555
H7 C3 1_555 1_555
H8 C3 1_555 1_555
C4 C3 1_555 1_555
C5 N2 1_555 1_555
C6 C5 1_555 1_555
H9 C6 1_555 1_555
C7 C6 1_555 1_555
H10 C7 1_555 1_555
C8 H11 1_555 1_555
C9 C5 1_555 1_555
H12 C9 1_555 1_555
C10 O2 1_555 1_555
C11 C7 1_555 1_555
C12 O10 1_555 1_555
C13 C12 1_555 1_555
H13 C13 1_555 1_555
H14 C13 1_555 1_555
C14 C15 1_555 1_555
C15 N1 1_555 1_555
H15 C15 1_555 1_555
H16 C15 1_555 1_555
C16 N1 1_555 1_555
C17 C16 1_555 1_555
H17 C17 1_555 1_555
C18 C17 1_555 1_555
H18 C18 1_555 1_555
C19 C16 1_555 1_555
H19 C19 1_555 1_555
C20 C21 1_555 1_555
C21 C18 1_555 1_555
C22 C19 1_555 1_555
H20 C22 1_555 1_555
Pb1A O3 1_555 1_555
Pb1A_2 O5 1_555 1_555
Pb2A O8 1_555 1_555
Pb2_2 O14 1_555 1_555
Pb3_2 O7 1_555 1_555
Pb3A O8 1_555 1_555
Pb3A_2 O9 1_555 1_555
Pb3_3 O11 1_555 1_555
O3A Pb1 1_555 1_555
O4A Pb1 1_555 1_555
O5A Pb1 1_555 1_555
O7_2 Pb3 1_555 1_555
O8A Pb2 1_555 1_555
O9A Pb3 1_555 1_555
O10A Pb2 1_555 1_555
O11_2 Pb3 1_555 1_555
O12_2 Pb3 1_555 1_555
O14_2 Pb2 1_555 1_555
H1_2 O14_2 1_555 1_555
H2_2 O14_2 1_555 1_555
N1A Pb2 1_555 1_555
Pb3 O6 1_555 1_555
Pb3 O8A 1_555 1_555
O4 Pb1A 1_555 1_555
O10 Pb2A 1_555 1_555
O12 Pb3_3 1_555 1_555
N1 Pb2A 1_555 1_555
C8 C9 1_555 1_555
C8 C11 1_555 1_555
C10 C11 1_555 1_555
C21 C22 1_555 1_555
Pb1A O10A 1_555 1_555
Pb2A O3A 1_555 1_555
Pb3A_2 O5A 1_555 1_555

#END
