
#######################################################################
#
#                 Cambridge Crystallographic Data Centre
#                                CCDC 
#
#######################################################################
#
# If this CIF has been generated from an entry in the Cambridge 
# Structural Database, then it will include bibliographic, chemical, 
# crystal, experimental, refinement or atomic coordinate data resulting 
# from the CCDC's data processing and validation procedures.
#
#######################################################################

data_GULBEV
_symmetry_cell_setting           orthorhombic
_symmetry_space_group_name_H-M   'P b c m'
_symmetry_Int_Tables_number      57
_space_group_name_Hall           '-P 2c 2b'
loop_
_symmetry_equiv_pos_site_id
_symmetry_equiv_pos_as_xyz
1 x,y,z
2 -x,-y,1/2+z
3 x,1/2-y,-z
4 -x,1/2+y,1/2-z
5 -x,-y,-z
6 x,y,1/2-z
7 -x,1/2+y,z
8 x,1/2-y,1/2+z
_cell_length_a                   9.795(2)
_cell_length_b                   6.7576(14)
_cell_length_c                   13.220(3)
_cell_angle_alpha                90
_cell_angle_beta                 90
_cell_angle_gamma                90
_cell_volume                     875.041
loop_
_atom_site_label
_atom_site_type_symbol
_atom_site_fract_x
_atom_site_fract_y
_atom_site_fract_z
Cd1 Cd 0.12797(4) 0.2500 0.5000
O1 O -0.1164(3) 0.1013(4) 0.4659(2)
N1 N -0.6164(4) 0.2500 0.5000
N2 N 0.1550(5) 0.5035(8) 0.2500
N3 N 0.1484(3) 0.1899(5) 0.3330(2)
N4 N 0.1561(3) -0.0014(5) 0.2985(2)
C1 C -0.1779(5) 0.2500 0.5000
C2 C -0.3312(5) 0.2500 0.5000
C3 C -0.4039(4) 0.1916(6) 0.4150(3)
C4 C -0.5453(4) 0.1957(6) 0.4183(3)
C5 C 0.1463(5) 0.3035(9) 0.2500
H1 H 0.131(4) 0.557(7) 0.300(4)
H2 H -0.353(5) 0.150(7) 0.357(4)
H3 H -0.598(5) 0.159(8) 0.362(4)
Cd1D Cd -0.12797(4) -0.2500 0.5000
Cd1_2 Cd -0.87203(4) 0.2500 0.5000
Cd1D_2 Cd -0.12797(4) 0.7500 0.5000
Cd1E Cd 0.12797(4) 0.2500 0.0000
O1B O -0.1164(3) 0.3987(4) 0.5341(2)
O1D O 0.1164(3) -0.1013(4) 0.5341(2)
O1F O 0.1164(3) 0.6013(4) 0.4659(2)
N1_2 N 0.3836(4) 0.2500 0.5000
N3E N 0.1484(3) 0.1899(5) 0.1670(2)
N3B N 0.1484(3) 0.3101(5) 0.6670(2)
N4E N 0.1561(3) -0.0014(5) 0.2015(2)
C3B C -0.4039(4) 0.3084(6) 0.5850(3)
C4B C -0.5453(4) 0.3043(6) 0.5817(3)
H1E H 0.131(4) 0.557(7) 0.200(4)
H2B H -0.353(5) 0.350(7) 0.643(4)
H3B H -0.598(5) 0.341(8) 0.638(4)
loop_
_geom_bond_atom_site_label_1
_geom_bond_atom_site_label_2
_geom_bond_site_symmetry_1
_geom_bond_site_symmetry_2
Cd1 O1 1_555 1_555
O1 C1 1_555 1_555
N1 C4 1_555 1_555
N2 C5 1_555 1_555
N3 Cd1 1_555 1_555
N4 N3 1_555 1_555
C1 C2 1_555 1_555
C2 C3 1_555 1_555
C3 C4 1_555 1_555
C4 H3 1_555 1_555
C5 N3 1_555 1_555
H1 N2 1_555 1_555
H2 C3 1_555 1_555
Cd1D O1 1_555 1_555
Cd1_2 N1 1_555 1_555
Cd1D_2 O1B 1_555 1_555
Cd1E N3E 1_555 1_555
O1B Cd1 1_555 1_555
O1D Cd1 1_555 1_555
O1F Cd1 1_555 1_555
N1_2 Cd1 1_555 1_555
N3E C5 1_555 1_555
N3B Cd1 1_555 1_555
N4E N4 1_555 1_555
C3B C2 1_555 1_555
C4B N1 1_555 1_555
H1E N2 1_555 1_555
H2B C3B 1_555 1_555
H3B C4B 1_555 1_555
C1 O1B 1_555 1_555
Cd1D O1D 1_555 1_555
Cd1D_2 O1F 1_555 1_555
N3E N4E 1_555 1_555
C3B C4B 1_555 1_555

#END
