
#######################################################################
#
#                 Cambridge Crystallographic Data Centre
#                                CCDC 
#
#######################################################################
#
# If this CIF has been generated from an entry in the Cambridge 
# Structural Database, then it will include bibliographic, chemical, 
# crystal, experimental, refinement or atomic coordinate data resulting 
# from the CCDC's data processing and validation procedures.
#
#######################################################################

data_GULHUS
_symmetry_cell_setting           trigonal
_symmetry_space_group_name_H-M   'P 32 2 1'
_symmetry_Int_Tables_number      154
_space_group_name_Hall           'P 32 2"'
loop_
_symmetry_equiv_pos_site_id
_symmetry_equiv_pos_as_xyz
1 x,y,z
2 -y,x-y,2/3+z
3 -x+y,-x,1/3+z
4 y,x,-z
5 x-y,-y,1/3-z
6 -x,-x+y,2/3-z
_cell_length_a                   12.3060(6)
_cell_length_b                   12.3060(6)
_cell_length_c                   18.4537(7)
_cell_angle_alpha                90
_cell_angle_beta                 90
_cell_angle_gamma                120
_cell_volume                     2420.18
loop_
_atom_site_label
_atom_site_type_symbol
_atom_site_fract_x
_atom_site_fract_y
_atom_site_fract_z
Cu1 Cu 0.71277(10) 0.0000 0.1667
N1 N -0.0822(5) 0.0000 0.1667
C1 C -0.0331(5) -0.0168(5) 0.1070(3)
H1 H -0.0772 -0.0294 0.0639
C2 C 0.0780(5) -0.0169(5) 0.1038(3)
H2 H 0.1079 -0.0283 0.0598
C3 C 0.1445(6) 0.0000 0.1667
C4 C 0.2670(6) 0.0000 0.1667
C5 C 0.4575(6) 0.0415(7) 0.1117(4)
H3 H 0.5100 0.0711 0.0716
C6 C 0.3472(6) 0.0443(6) 0.1093(3)
H4 H 0.3276 0.0762 0.0688
N2 N 0.4938(6) 0.0000 0.1667
O1 O 0.6823(5) -0.0616(3) 0.26520(16)
O2 O 0.5804(6) -0.2301(4) 0.33273(18)
N3 N 0.6105(4) -0.1784(3) 0.1399(2)
H5 H 0.5449 -0.1894 0.1128
H6 H 0.6570 -0.2010 0.1131
C7 C 0.5931(5) -0.3652(5) 0.2036(3)
H7 H 0.5529 -0.4177 0.1617
H8 H 0.5575 -0.4163 0.2466
N4 N 0.9154(4) -0.3437(5) 0.0613(2)
H9 H 0.8369 -0.3681 0.0568
H10 H 0.9637 -0.3176 0.0240
C8 C 0.5639(5) -0.2589(4) 0.2047(2)
H11 H 0.4724 -0.2975 0.2048
N5 N 1.0821(4) -0.3091(4) 0.1301(2)
H12 H 1.1139 -0.3106 0.1713
H13 H 1.1288 -0.2833 0.0922
C9 C 0.6116(7) -0.1807(5) 0.2731(3)
C10 C 0.9614(6) -0.3464(5) 0.1251(3)
C11 C 0.7331(5) -0.3200(5) 0.2010(3)
H14 H 0.7712 -0.2803 0.2467
H15 H 0.7718 -0.2577 0.1630
N6 N 0.8910(5) -0.3855(4) 0.1832(2)
H16 H 0.9272 -0.3859 0.2230
C12 C 0.7583(5) -0.4281(5) 0.1868(3)
H17 H 0.7206 -0.4898 0.2252
H18 H 0.7190 -0.4686 0.1414
C1D C -0.0163(7) 0.0168(5) 0.2263(3)
H1D H -0.0478 0.0294 0.2694
C2D C 0.0949(7) 0.0169(5) 0.2295(3)
H2D H 0.1362 0.0283 0.2735
C5D C 0.4160(9) -0.0415(7) 0.2216(4)
H3D H 0.4389 -0.0711 0.2617
C6D C 0.3029(8) -0.0443(6) 0.2240(3)
H4D H 0.2514 -0.0762 0.2645
O1D O 0.7439(6) 0.0616(3) 0.06813(16)
O2D O 0.8105(7) 0.2301(4) 0.00060(18)
N3D N 0.7889(5) 0.1784(3) 0.1934(2)
H5D H 0.7343 0.1894 0.2205
H6D H 0.8580 0.2010 0.2202
C7D C 0.9583(7) 0.3652(5) 0.1297(3)
H7D H 0.9706 0.4177 0.1716
H8D H 0.9738 0.4163 0.0867
N4D N 1.2591(6) 0.3437(5) 0.2720(2)
H9D H 1.2050 0.3681 0.2765
H10D H 1.2813 0.3176 0.3093
C8D C 0.8228(6) 0.2589(4) 0.1286(2)
H11D H 0.7699 0.2975 0.1285
N5D N 1.3912(6) 0.3091(4) 0.2032(2)
H12D H 1.4245 0.3106 0.1620
H13D H 1.4121 0.2833 0.2411
C9D C 0.7923(9) 0.1807(5) 0.0602(3)
C10D C 1.3078(8) 0.3464(5) 0.2082(3)
C11D C 1.0531(7) 0.3200(5) 0.1323(3)
H14D H 1.0515 0.2803 0.0866
H15D H 1.0295 0.2577 0.1703
N6D N 1.2765(6) 0.3855(4) 0.1501(2)
H16D H 1.3131 0.3859 0.1103
C12D C 1.1864(7) 0.4281(5) 0.1465(3)
H17D H 1.2104 0.4898 0.1081
H18D H 1.1876 0.4686 0.1919
Cu1_2 Cu -0.28723(10) 0.0000 0.1667
N1_2 N 0.9178(5) 0.0000 0.1667
Cl1 Cl 0.6821(2) 0.6821(2) 0.0000
Cl2 Cl 0.2699(3) 0.2699(3) 0.0000
O3 O 0.3860(7) 0.5388(9) -0.0467(3)
Cl3 Cl 0.7216(5) 0.3825(5) -0.0506(3)
O4? O 0.3223(11) 0.4400(16) -0.0279(6)
O5? O 0.7216(5) 0.3825(5) -0.0506(3)
loop_
_geom_bond_atom_site_label_1
_geom_bond_atom_site_label_2
_geom_bond_site_symmetry_1
_geom_bond_site_symmetry_2
Cu1 N2 1_555 1_555
N1 C1 1_555 1_555
C1 H1 1_555 1_555
C2 C1 1_555 1_555
H2 C2 1_555 1_555
C3 C2 1_555 1_555
C4 C3 1_555 1_555
C5 H3 1_555 1_555
C6 C4 1_555 1_555
H4 C6 1_555 1_555
N2 C5 1_555 1_555
O1 Cu1 1_555 1_555
O2 C9 1_555 1_555
N3 Cu1 1_555 1_555
H5 N3 1_555 1_555
H6 N3 1_555 1_555
C7 H7 1_555 1_555
H8 C7 1_555 1_555
N4 H9 1_555 1_555
H10 N4 1_555 1_555
C8 N3 1_555 1_555
H11 C8 1_555 1_555
N5 H12 1_555 1_555
H13 N5 1_555 1_555
C9 O1 1_555 1_555
C10 N4 1_555 1_555
C11 C7 1_555 1_555
H14 C11 1_555 1_555
H15 C11 1_555 1_555
N6 C10 1_555 1_555
H16 N6 1_555 1_555
C12 C11 1_555 1_555
H17 C12 1_555 1_555
H18 C12 1_555 1_555
C1D N1 1_555 1_555
H1D C1D 1_555 1_555
C2D C3 1_555 1_555
H2D C2D 1_555 1_555
C5D N2 1_555 1_555
H3D C5D 1_555 1_555
C6D C4 1_555 1_555
H4D C6D 1_555 1_555
O1D Cu1 1_555 1_555
O2D C9D 1_555 1_555
N3D Cu1 1_555 1_555
H5D N3D 1_555 1_555
H6D N3D 1_555 1_555
C7D H7D 1_555 1_555
H8D C7D 1_555 1_555
N4D H9D 1_555 1_555
H10D N4D 1_555 1_555
C8D N3D 1_555 1_555
H11D C8D 1_555 1_555
N5D H12D 1_555 1_555
H13D N5D 1_555 1_555
C9D O1D 1_555 1_555
C10D N4D 1_555 1_555
C11D C7D 1_555 1_555
H14D C11D 1_555 1_555
H15D C11D 1_555 1_555
N6D C10D 1_555 1_555
H16D N6D 1_555 1_555
C12D C11D 1_555 1_555
H17D C12D 1_555 1_555
H18D C12D 1_555 1_555
Cu1_2 N1 1_555 1_555
N1_2 Cu1 1_555 1_555
C5 C6 1_555 1_555
C7 C8 1_555 1_555
C8 C9 1_555 1_555
N5 C10 1_555 1_555
N6 C12 1_555 1_555
C1D C2D 1_555 1_555
C5D C6D 1_555 1_555
C7D C8D 1_555 1_555
C8D C9D 1_555 1_555
N5D C10D 1_555 1_555
N6D C12D 1_555 1_555

#END
