
#######################################################################
#
#                 Cambridge Crystallographic Data Centre
#                                CCDC 
#
#######################################################################
#
# If this CIF has been generated from an entry in the Cambridge 
# Structural Database, then it will include bibliographic, chemical, 
# crystal, experimental, refinement or atomic coordinate data resulting 
# from the CCDC's data processing and validation procedures.
#
#######################################################################

data_GULLEF
_symmetry_cell_setting           orthorhombic
_symmetry_space_group_name_H-M   'P c c n'
_symmetry_Int_Tables_number      56
_space_group_name_Hall           '-P 2ab 2ac'
loop_
_symmetry_equiv_pos_site_id
_symmetry_equiv_pos_as_xyz
1 x,y,z
2 1/2-x,1/2-y,z
3 -x,1/2+y,1/2-z
4 1/2+x,-y,1/2-z
5 -x,-y,-z
6 1/2+x,1/2+y,-z
7 x,1/2-y,1/2+z
8 1/2-x,y,1/2+z
_cell_length_a                   22.232(2)
_cell_length_b                   8.639(2)
_cell_length_c                   17.222(3)
_cell_angle_alpha                90
_cell_angle_beta                 90
_cell_angle_gamma                90
_cell_volume                     3307.7
loop_
_atom_site_label
_atom_site_type_symbol
_atom_site_fract_x
_atom_site_fract_y
_atom_site_fract_z
Zn1 Zn 0.263955(17) -0.05877(4) 0.10845(2)
O1 O 0.17365(11) -0.0341(3) 0.12207(13)
N1 N 0.26822(11) -0.0399(3) 0.22567(16)
N2 N 0.35870(12) -0.1194(3) 0.12321(16)
N3 N 0.2500 -0.2500 0.0410(2)
N4 N 0.2500 -0.2500 -0.0281(2)
N5 N 0.2500 -0.2500 -0.0939(3)
N6 N 0.27718(14) 0.1359(3) 0.04575(19)
N7 N 0.2500 0.2500 0.0485(2)
C1 C 0.17100(14) 0.0803(3) 0.24922(17)
C2 C 0.14562(14) 0.0430(3) 0.17583(18)
C3 C 0.08572(15) 0.0895(4) 0.1605(2)
H1 H 0.0685 0.0637 0.1130
C4 C 0.05282(14) 0.1697(4) 0.2120(2)
H2 H 0.0135 0.1965 0.1997
C5 C 0.07684(14) 0.2142(4) 0.2848(2)
C6 C 0.04293(17) 0.3059(4) 0.3367(2)
H3 H 0.0040 0.3348 0.3232
C7 C 0.0658(2) 0.3528(5) 0.4058(2)
H4 H 0.0430 0.4137 0.4392
C8 C 0.12371(18) 0.3088(5) 0.4258(2)
H5 H 0.1396 0.3400 0.4733
C9 C 0.15806(17) 0.2197(4) 0.3767(2)
H6 H 0.1967 0.1914 0.3918
C10 C 0.13610(14) 0.1704(4) 0.30410(17)
C11 C 0.22985(14) 0.0271(4) 0.27021(18)
H7 H 0.2415 0.0426 0.3215
C12 C 0.32535(15) -0.0936(4) 0.2576(2)
H8 H 0.3235 -0.2040 0.2676
H9 H 0.3337 -0.0410 0.3062
C13 C 0.37427(16) -0.0594(4) 0.1996(2)
H10 H 0.3803 0.0516 0.1964
H11 H 0.4116 -0.1061 0.2169
C14 C 0.40337(17) -0.0754(5) 0.0635(2)
H12 H 0.4432 -0.1037 0.0815
H13 H 0.4026 0.0361 0.0568
C15 C 0.3922(2) -0.1510(8) -0.0135(3)
H14 H 0.3843 -0.2599 -0.0043
H15 H 0.3558 -0.1066 -0.0353
C16 C 0.4394(3) -0.1399(9) -0.0719(3)
H16 H 0.4531 -0.0348 -0.0753
H17 H 0.4238 -0.1719 -0.1214
H18 H 0.4723 -0.2058 -0.0576
H19 H 0.359(2) -0.2229(14) 0.129(3)
Zn1A Zn 0.236045(17) -0.44123(4) 0.10845(2)
Zn1A_2 Zn 0.236045(17) 0.55877(4) 0.10845(2)
O1A O 0.32635(11) -0.4659(3) 0.12207(13)
N1A N 0.23178(11) -0.4601(3) 0.22567(16)
N2A N 0.14130(12) -0.3806(3) 0.12321(16)
N6A N 0.22282(14) 0.3641(3) 0.04575(19)
N6A_2 N 0.22282(14) -0.6359(3) 0.04575(19)
C1A C 0.32900(14) -0.5803(3) 0.24922(17)
C2A C 0.35438(14) -0.5430(3) 0.17583(18)
C3A C 0.41428(15) -0.5895(4) 0.1605(2)
H1A H 0.4315 -0.5637 0.1130
C4A C 0.44718(14) -0.6697(4) 0.2120(2)
H2A H 0.4865 -0.6965 0.1997
C5A C 0.42316(14) -0.7142(4) 0.2848(2)
C6A C 0.45707(17) -0.8059(4) 0.3367(2)
H3A H 0.4960 -0.8348 0.3232
C7A C 0.4342(2) -0.8528(5) 0.4058(2)
H4A H 0.4570 -0.9137 0.4392
C8A C 0.37629(18) -0.8088(5) 0.4258(2)
H5A H 0.3604 -0.8400 0.4733
C9A C 0.34194(17) -0.7197(4) 0.3767(2)
H6A H 0.3033 -0.6914 0.3918
C10A C 0.36390(14) -0.6704(4) 0.30410(17)
C11A C 0.27015(14) -0.5271(4) 0.27021(18)
H7A H 0.2585 -0.5426 0.3215
C12A C 0.17465(15) -0.4064(4) 0.2576(2)
H8A H 0.1765 -0.2960 0.2676
H9A H 0.1663 -0.4590 0.3062
C13A C 0.12573(16) -0.4406(4) 0.1996(2)
H10A H 0.1197 -0.5516 0.1964
H11A H 0.0884 -0.3939 0.2169
C14A C 0.09663(17) -0.4246(5) 0.0635(2)
H12A H 0.0568 -0.3963 0.0815
H13A H 0.0974 -0.5361 0.0568
C15A C 0.1078(2) -0.3490(8) -0.0135(3)
H14A H 0.1157 -0.2401 -0.0043
H15A H 0.1442 -0.3934 -0.0353
C16A C 0.0606(3) -0.3601(9) -0.0719(3)
H16A H 0.0469 -0.4652 -0.0753
H17A H 0.0762 -0.3281 -0.1214
H18A H 0.0277 -0.2942 -0.0576
H19A H 0.141(2) -0.2771(14) 0.129(3)
loop_
_geom_bond_atom_site_label_1
_geom_bond_atom_site_label_2
_geom_bond_site_symmetry_1
_geom_bond_site_symmetry_2
Zn1 O1 1_555 1_555
O1 C2 1_555 1_555
N1 Zn1 1_555 1_555
N2 Zn1 1_555 1_555
N3 Zn1 1_555 1_555
N4 N3 1_555 1_555
N5 N4 1_555 1_555
N6 Zn1 1_555 1_555
N7 N6 1_555 1_555
C1 C2 1_555 1_555
C2 C3 1_555 1_555
C3 H1 1_555 1_555
C4 C3 1_555 1_555
H2 C4 1_555 1_555
C5 C4 1_555 1_555
C6 C5 1_555 1_555
H3 C6 1_555 1_555
C7 C6 1_555 1_555
H4 C7 1_555 1_555
C8 C7 1_555 1_555
H5 C8 1_555 1_555
C9 C8 1_555 1_555
H6 C9 1_555 1_555
C10 C1 1_555 1_555
C11 N1 1_555 1_555
H7 C11 1_555 1_555
C12 N1 1_555 1_555
H8 C12 1_555 1_555
H9 C12 1_555 1_555
C13 N2 1_555 1_555
H10 C13 1_555 1_555
H11 C13 1_555 1_555
C14 N2 1_555 1_555
H12 C14 1_555 1_555
H13 C14 1_555 1_555
C15 C14 1_555 1_555
H14 C15 1_555 1_555
H15 C15 1_555 1_555
C16 C15 1_555 1_555
H16 C16 1_555 1_555
H17 C16 1_555 1_555
H18 C16 1_555 1_555
H19 N2 1_555 1_555
Zn1A N3 1_555 1_555
Zn1A_2 N6A 1_555 1_555
O1A Zn1A 1_555 1_555
N1A Zn1A 1_555 1_555
N2A Zn1A 1_555 1_555
N6A N7 1_555 1_555
N6A_2 Zn1A 1_555 1_555
C1A C2A 1_555 1_555
C2A O1A 1_555 1_555
C3A C2A 1_555 1_555
H1A C3A 1_555 1_555
C4A C3A 1_555 1_555
H2A C4A 1_555 1_555
C5A C4A 1_555 1_555
C6A C5A 1_555 1_555
H3A C6A 1_555 1_555
C7A C6A 1_555 1_555
H4A C7A 1_555 1_555
C8A C7A 1_555 1_555
H5A C8A 1_555 1_555
C9A C8A 1_555 1_555
H6A C9A 1_555 1_555
C10A C1A 1_555 1_555
C11A N1A 1_555 1_555
H7A C11A 1_555 1_555
C12A N1A 1_555 1_555
H8A C12A 1_555 1_555
H9A C12A 1_555 1_555
C13A N2A 1_555 1_555
H10A C13A 1_555 1_555
H11A C13A 1_555 1_555
C14A N2A 1_555 1_555
H12A C14A 1_555 1_555
H13A C14A 1_555 1_555
C15A C14A 1_555 1_555
H14A C15A 1_555 1_555
H15A C15A 1_555 1_555
C16A C15A 1_555 1_555
H16A C16A 1_555 1_555
H17A C16A 1_555 1_555
H18A C16A 1_555 1_555
H19A N2A 1_555 1_555
C1 C11 1_555 1_555
C5 C10 1_555 1_555
C9 C10 1_555 1_555
C12 C13 1_555 1_555
C1A C11A 1_555 1_555
C5A C10A 1_555 1_555
C9A C10A 1_555 1_555
C12A C13A 1_555 1_555

#END
