
#######################################################################
#
#                 Cambridge Crystallographic Data Centre
#                                CCDC 
#
#######################################################################
#
# If this CIF has been generated from an entry in the Cambridge 
# Structural Database, then it will include bibliographic, chemical, 
# crystal, experimental, refinement or atomic coordinate data resulting 
# from the CCDC's data processing and validation procedures.
#
#######################################################################

data_GULLOP
_symmetry_cell_setting           monoclinic
_symmetry_space_group_name_H-M   'C 2/c'
_symmetry_Int_Tables_number      15
_space_group_name_Hall           '-C 2yn'
loop_
_symmetry_equiv_pos_site_id
_symmetry_equiv_pos_as_xyz
1 x,y,z
2 -x,y,1/2-z
3 1/2+x,1/2+y,z
4 1/2-x,1/2+y,1/2-z
5 -x,-y,-z
6 x,-y,1/2+z
7 1/2-x,1/2-y,-z
8 1/2+x,1/2-y,1/2+z
_cell_length_a                   28.679(3)
_cell_length_b                   7.039(1)
_cell_length_c                   18.881(2)
_cell_angle_alpha                90
_cell_angle_beta                 117.33(3)
_cell_angle_gamma                90
_cell_volume                     3386.08
loop_
_atom_site_label
_atom_site_type_symbol
_atom_site_fract_x
_atom_site_fract_y
_atom_site_fract_z
Zn1 Zn 0.023398(17) 0.29240(7) 0.12291(3)
Br1 Br -0.16454(2) 0.13763(9) -0.01539(5)
Cl1 Cl -0.20158(6) 0.7999(3) 0.10631(9)
O1 O -0.05528(11) 0.2943(4) 0.06150(19)
N1 N 0.01956(14) 0.5789(5) 0.1322(2)
N2 N 0.10862(12) 0.3543(5) 0.17466(19)
N3 N 0.02903(16) 0.0952(6) 0.0500(3)
N4 N 0.0000 0.0000 0.0000
N5 N 0.02899(15) 0.1486(6) 0.2223(2)
N6 N 0.0000 0.1557(7) 0.2500
C1 C -0.07134(16) 0.5959(6) 0.1045(2)
C2 C -0.08622(16) 0.4119(6) 0.0701(2)
C3 C -0.14027(17) 0.3673(7) 0.0419(3)
C4 C -0.17506(18) 0.4830(8) 0.0519(3)
H1 H -0.2097 0.4452 0.0340
C5 C -0.15810(19) 0.6568(8) 0.0889(3)
C6 C -0.10754(19) 0.7153(7) 0.1128(3)
H2 H -0.0972 0.8357 0.1347
C7 C -0.01962(17) 0.6703(6) 0.1293(3)
H3 H -0.0142 0.7972 0.1446
C8 C 0.07020(19) 0.6739(7) 0.1573(4)
H4 H 0.0713 0.7907 0.1853
H5 H 0.0750 0.7054 0.1111
C9 C 0.11257(19) 0.5439(7) 0.2107(3)
H6 H 0.1463 0.5995 0.2226
H7 H 0.1108 0.5301 0.2605
C10 C 0.12623(18) 0.3485(8) 0.1129(3)
H8 H 0.1073 0.4448 0.0732
H9 H 0.1170 0.2259 0.0866
C11 C 0.18472(19) 0.3803(9) 0.1437(3)
H10 H 0.1937 0.3636 0.1005
H11 H 0.1935 0.5095 0.1632
C12 C 0.21616(18) 0.2426(8) 0.2102(3)
H12 H 0.2118 0.1150 0.1888
H13 H 0.2531 0.2752 0.2333
C13 C 0.19871(18) 0.2481(9) 0.2736(3)
H14 H 0.2075 0.3705 0.3001
H15 H 0.2170 0.1507 0.3130
C14 C 0.13981(17) 0.2157(8) 0.2377(3)
H16 H 0.1318 0.0887 0.2154
H17 H 0.1294 0.2230 0.2798
Zn1D Zn -0.023398(17) -0.29240(7) -0.12291(3)
Zn1A Zn -0.023398(17) 0.29240(7) 0.37709(3)
Br1D Br 0.16454(2) -0.13763(9) 0.01539(5)
Cl1D Cl 0.20158(6) -0.7999(3) -0.10631(9)
O1D O 0.05528(11) -0.2943(4) -0.06150(19)
N1D N -0.01956(14) -0.5789(5) -0.1322(2)
N2D N -0.10862(12) -0.3543(5) -0.17466(19)
N3D N -0.02903(16) -0.0952(6) -0.0500(3)
N5A N -0.02899(15) 0.1486(6) 0.2777(2)
N5D N -0.02899(15) -0.1486(6) -0.2223(2)
C1D C 0.07134(16) -0.5959(6) -0.1045(2)
C2D C 0.08622(16) -0.4119(6) -0.0701(2)
C3D C 0.14027(17) -0.3673(7) -0.0419(3)
C4D C 0.17506(18) -0.4830(8) -0.0519(3)
H1D H 0.2097 -0.4452 -0.0340
C5D C 0.15810(19) -0.6568(8) -0.0889(3)
C6D C 0.10754(19) -0.7153(7) -0.1128(3)
H2D H 0.0972 -0.8357 -0.1347
C7D C 0.01962(17) -0.6703(6) -0.1293(3)
H3D H 0.0142 -0.7972 -0.1446
C8D C -0.07020(19) -0.6739(7) -0.1573(4)
H4D H -0.0713 -0.7907 -0.1853
H5D H -0.0750 -0.7054 -0.1111
C9D C -0.11257(19) -0.5439(7) -0.2107(3)
H6D H -0.1463 -0.5995 -0.2226
H7D H -0.1108 -0.5301 -0.2605
C10D C -0.12623(18) -0.3485(8) -0.1129(3)
H8D H -0.1073 -0.4448 -0.0732
H9D H -0.1170 -0.2259 -0.0866
C11D C -0.18472(19) -0.3803(9) -0.1437(3)
H10D H -0.1937 -0.3636 -0.1005
H11D H -0.1935 -0.5095 -0.1632
C12D C -0.21616(18) -0.2426(8) -0.2102(3)
H12D H -0.2118 -0.1150 -0.1888
H13D H -0.2531 -0.2752 -0.2333
C13D C -0.19871(18) -0.2481(9) -0.2736(3)
H14D H -0.2075 -0.3705 -0.3001
H15D H -0.2170 -0.1507 -0.3130
C14D C -0.13981(17) -0.2157(8) -0.2377(3)
H16D H -0.1318 -0.0887 -0.2154
H17D H -0.1294 -0.2230 -0.2798
loop_
_geom_bond_atom_site_label_1
_geom_bond_atom_site_label_2
_geom_bond_site_symmetry_1
_geom_bond_site_symmetry_2
Zn1 O1 1_555 1_555
Br1 C3 1_555 1_555
Cl1 C5 1_555 1_555
O1 C2 1_555 1_555
N1 Zn1 1_555 1_555
N2 Zn1 1_555 1_555
N3 Zn1 1_555 1_555
N4 N3 1_555 1_555
N5 Zn1 1_555 1_555
N6 N5 1_555 1_555
C1 C2 1_555 1_555
C2 C3 1_555 1_555
C3 C4 1_555 1_555
C4 H1 1_555 1_555
C5 C4 1_555 1_555
C6 C1 1_555 1_555
H2 C6 1_555 1_555
C7 N1 1_555 1_555
H3 C7 1_555 1_555
C8 N1 1_555 1_555
H4 C8 1_555 1_555
H5 C8 1_555 1_555
C9 N2 1_555 1_555
H6 C9 1_555 1_555
H7 C9 1_555 1_555
C10 N2 1_555 1_555
H8 C10 1_555 1_555
H9 C10 1_555 1_555
C11 C10 1_555 1_555
H10 C11 1_555 1_555
H11 C11 1_555 1_555
C12 C11 1_555 1_555
H12 C12 1_555 1_555
H13 C12 1_555 1_555
C13 C12 1_555 1_555
H14 C13 1_555 1_555
H15 C13 1_555 1_555
C14 N2 1_555 1_555
H16 C14 1_555 1_555
H17 C14 1_555 1_555
Zn1D O1D 1_555 1_555
Zn1A N5A 1_555 1_555
Br1D C3D 1_555 1_555
Cl1D C5D 1_555 1_555
O1D C2D 1_555 1_555
N1D Zn1D 1_555 1_555
N2D Zn1D 1_555 1_555
N3D N4 1_555 1_555
N5A N6 1_555 1_555
N5D Zn1D 1_555 1_555
C1D C2D 1_555 1_555
C2D C3D 1_555 1_555
C3D C4D 1_555 1_555
C4D H1D 1_555 1_555
C5D C4D 1_555 1_555
C6D C1D 1_555 1_555
H2D C6D 1_555 1_555
C7D N1D 1_555 1_555
H3D C7D 1_555 1_555
C8D N1D 1_555 1_555
H4D C8D 1_555 1_555
H5D C8D 1_555 1_555
C9D N2D 1_555 1_555
H6D C9D 1_555 1_555
H7D C9D 1_555 1_555
C10D N2D 1_555 1_555
H8D C10D 1_555 1_555
H9D C10D 1_555 1_555
C11D C10D 1_555 1_555
H10D C11D 1_555 1_555
H11D C11D 1_555 1_555
C12D C11D 1_555 1_555
H12D C12D 1_555 1_555
H13D C12D 1_555 1_555
C13D C12D 1_555 1_555
H14D C13D 1_555 1_555
H15D C13D 1_555 1_555
C14D N2D 1_555 1_555
H16D C14D 1_555 1_555
H17D C14D 1_555 1_555
C1 C7 1_555 1_555
C5 C6 1_555 1_555
C8 C9 1_555 1_555
C13 C14 1_555 1_555
Zn1D N3D 1_555 1_555
C1D C7D 1_555 1_555
C5D C6D 1_555 1_555
C8D C9D 1_555 1_555
C13D C14D 1_555 1_555

#END
