
#######################################################################
#
#                 Cambridge Crystallographic Data Centre
#                                CCDC 
#
#######################################################################
#
# If this CIF has been generated from an entry in the Cambridge 
# Structural Database, then it will include bibliographic, chemical, 
# crystal, experimental, refinement or atomic coordinate data resulting 
# from the CCDC's data processing and validation procedures.
#
#######################################################################

data_GULLIJ
_symmetry_cell_setting           monoclinic
_symmetry_space_group_name_H-M   'P 21/c'
_symmetry_Int_Tables_number      14
_space_group_name_Hall           '-P 2ybc'
loop_
_symmetry_equiv_pos_site_id
_symmetry_equiv_pos_as_xyz
1 x,y,z
2 -x,1/2+y,1/2-z
3 -x,-y,-z
4 x,1/2-y,1/2+z
_cell_length_a                   9.423(2)
_cell_length_b                   22.685(3)
_cell_length_c                   7.318(2)
_cell_angle_alpha                90
_cell_angle_beta                 94.94(3)
_cell_angle_gamma                90
_cell_volume                     1558.49
loop_
_atom_site_label
_atom_site_type_symbol
_atom_site_fract_x
_atom_site_fract_y
_atom_site_fract_z
Zn1 Zn 0.31478(3) 0.258912(14) 0.18201(4)
Br1 Br 0.33215(4) 0.041919(15) 0.24390(6)
Cl1 Cl 0.90092(10) 0.04805(4) 0.11821(13)
O1 O 0.3724(2) 0.17396(9) 0.2400(3)
N1 N 0.5276(3) 0.27833(10) 0.1908(3)
N2 N 0.3016(3) 0.35342(10) 0.1289(3)
N3 N 0.2095(3) 0.26123(10) 0.4222(3)
N4 N 0.0829(3) 0.26886(12) 0.4136(3)
N5 N -0.0375(3) 0.27612(18) 0.4057(5)
C1 C 0.6187(3) 0.17807(13) 0.1825(4)
C2 C 0.4896(3) 0.14778(12) 0.2103(4)
C3 C 0.4985(3) 0.08533(13) 0.2079(4)
C4 C 0.6209(3) 0.05538(14) 0.1778(4)
H1 H 0.6211 0.0144 0.1750
C5 C 0.7435(3) 0.08626(15) 0.1517(4)
C6 C 0.7444(3) 0.14663(14) 0.1554(4)
H2 H 0.8282 0.1670 0.1400
C7 C 0.6303(3) 0.24162(14) 0.1807(4)
H3 H 0.7205 0.2574 0.1713
C8 C 0.5613(3) 0.34140(12) 0.1790(4)
H4 H 0.5860 0.3508 0.0564
H5 H 0.6422 0.3509 0.2651
C9 C 0.4333(4) 0.37700(14) 0.2232(4)
H6 H 0.4259 0.3764 0.3546
H7 H 0.4456 0.4176 0.1864
C10 C 0.1781(3) 0.38974(14) 0.1732(4)
H8 H 0.1991 0.4309 0.1525
H9 H 0.1641 0.3850 0.3022
C11 C 0.0428(4) 0.37355(16) 0.0610(4)
H10 H 0.0197 0.3327 0.0837
H11 H 0.0564 0.3777 -0.0683
C12 C -0.0799(4) 0.41280(19) 0.1086(5)
H12 H -0.0929 0.4090 0.2367
H13 H -0.1656 0.4011 0.0373
H14 H -0.0587 0.4531 0.0817
H15 H 0.307(5) 0.3535(16) 0.0073(17)
Zn1C Zn 0.31478(3) 0.241088(14) 0.68201(4)
N3C N 0.2095(3) 0.23877(10) -0.0778(3)
loop_
_geom_bond_atom_site_label_1
_geom_bond_atom_site_label_2
_geom_bond_site_symmetry_1
_geom_bond_site_symmetry_2
Zn1 O1 1_555 1_555
Br1 C3 1_555 1_555
Cl1 C5 1_555 1_555
O1 C2 1_555 1_555
N1 Zn1 1_555 1_555
N2 Zn1 1_555 1_555
N3 Zn1 1_555 1_555
N4 N3 1_555 1_555
N5 N4 1_555 1_555
C1 C2 1_555 1_555
C2 C3 1_555 1_555
C3 C4 1_555 1_555
C4 H1 1_555 1_555
C5 C4 1_555 1_555
C6 C1 1_555 1_555
H2 C6 1_555 1_555
C7 N1 1_555 1_555
H3 C7 1_555 1_555
C8 N1 1_555 1_555
H4 C8 1_555 1_555
H5 C8 1_555 1_555
C9 N2 1_555 1_555
H6 C9 1_555 1_555
H7 C9 1_555 1_555
C10 N2 1_555 1_555
H8 C10 1_555 1_555
H9 C10 1_555 1_555
C11 C10 1_555 1_555
H10 C11 1_555 1_555
H11 C11 1_555 1_555
C12 C11 1_555 1_555
H12 C12 1_555 1_555
H13 C12 1_555 1_555
H14 C12 1_555 1_555
H15 N2 1_555 1_555
Zn1C N3 1_555 1_555
N3C Zn1 1_555 1_555
C1 C7 1_555 1_555
C5 C6 1_555 1_555
C8 C9 1_555 1_555

#END
