
#######################################################################
#
#                 Cambridge Crystallographic Data Centre
#                                CCDC 
#
#######################################################################
#
# If this CIF has been generated from an entry in the Cambridge 
# Structural Database, then it will include bibliographic, chemical, 
# crystal, experimental, refinement or atomic coordinate data resulting 
# from the CCDC's data processing and validation procedures.
#
#######################################################################

data_GULLUV
_symmetry_cell_setting           orthorhombic
_symmetry_space_group_name_H-M   'P n a 21'
_symmetry_Int_Tables_number      33
_space_group_name_Hall           'P 2c -2n'
loop_
_symmetry_equiv_pos_site_id
_symmetry_equiv_pos_as_xyz
1 x,y,z
2 -x,-y,1/2+z
3 1/2+x,1/2-y,z
4 1/2-x,1/2+y,1/2+z
_cell_length_a                   18.276(2)
_cell_length_b                   10.9658(16)
_cell_length_c                   24.319(3)
_cell_angle_alpha                90
_cell_angle_beta                 90
_cell_angle_gamma                90
_cell_volume                     4873.79
loop_
_atom_site_label
_atom_site_type_symbol
_atom_site_fract_x
_atom_site_fract_y
_atom_site_fract_z
Cd1 Cd 0.484863(17) 0.02882(3) 0.237689(15)
Cd2 Cd 0.797073(17) 0.50699(3) 0.337881(18)
O1 O 0.54774(19) 0.1871(4) 0.18930(17)
O2 O 0.5857(2) 0.0013(4) 0.17545(18)
O3 O 0.9107(2) 0.3341(4) 0.28016(16)
O4 O 0.79561(18) 0.3179(3) 0.30589(17)
O5 O 0.74413(18) -0.3269(4) 0.38184(17)
O6 O 0.6888(2) -0.5005(4) 0.39930(19)
O7 O 0.3878(2) -0.1079(4) 0.29422(17)
O8 O 0.49265(19) -0.1725(3) 0.26448(16)
N1 N 0.5738(2) 0.0730(4) 0.3061(2)
N2 N 0.5916(2) 0.0108(4) 0.66054(19)
N3 N 0.7102(2) 0.5569(4) 0.26803(18)
N4 N 0.6317(2) 0.9340(4) -0.08466(18)
C1 C 0.7282(2) 0.1222(4) 0.1403(2)
C2 C 0.7515(2) 0.1496(5) 0.19981(18)
H1 H 0.7446 0.2357 0.2073
H2 H 0.7207 0.1039 0.2249
C3 C 0.8319(2) 0.1158(4) 0.2100(2)
C4 C 0.8797(2) 0.1875(5) 0.1700(2)
H3 H 0.9307 0.1662 0.1757
H4 H 0.8742 0.2741 0.1769
C5 C 0.8583(3) 0.1595(5) 0.1105(2)
H5 H 0.8893 0.2065 0.0854
C6 C 0.8682(3) 0.0235(6) 0.0995(2)
H6 H 0.9192 0.0012 0.1045
H7 H 0.8545 0.0050 0.0619
C7 C 0.8201(3) -0.0493(5) 0.1395(2)
H8 H 0.8262 -0.1369 0.1328
C8 C 0.7405(3) -0.0131(4) 0.1299(2)
H9 H 0.7269 -0.0322 0.0923
H10 H 0.7092 -0.0600 0.1542
C9 C 0.7780(2) 0.1934(5) 0.1011(2)
H11 H 0.7714 0.2801 0.1071
H12 H 0.7645 0.1753 0.0634
C10 C 0.8415(3) -0.0189(5) 0.1988(2)
H13 H 0.8112 -0.0654 0.2240
H14 H 0.8921 -0.0416 0.2051
C11 C 0.6494(2) 0.1627(5) 0.1296(2)
H15 H 0.6479 0.2511 0.1312
H16 H 0.6364 0.1391 0.0924
C12 C 0.5913(3) 0.1138(6) 0.1681(2)
C13 C 0.8535(3) 0.1425(5) 0.2702(2)
H17 H 0.8203 0.0987 0.2942
H18 H 0.9023 0.1105 0.2765
C14 C 0.8527(3) 0.2739(5) 0.28602(19)
C15 C 0.5601(2) -0.3379(4) 0.43720(19)
C16 C 0.5342(2) -0.3188(4) 0.37727(19)
H19 H 0.5563 -0.3799 0.3536
H20 H 0.5494 -0.2390 0.3644
C17 C 0.4496(2) -0.3293(5) 0.3744(2)
C18 C 0.4282(3) -0.4557(5) 0.3952(3)
H21 H 0.3756 -0.4655 0.3925
H22 H 0.4509 -0.5174 0.3722
C19 C 0.4520(3) -0.4734(5) 0.4543(3)
H23 H 0.4369 -0.5547 0.4666
C20 C 0.4178(3) -0.3801(7) 0.4907(3)
H24 H 0.4338 -0.3921 0.5283
H25 H 0.3649 -0.3881 0.4896
C21 C 0.4398(3) -0.2541(6) 0.4712(2)
H26 H 0.4176 -0.1921 0.4949
C22 C 0.5230(3) -0.2433(5) 0.4734(2)
H27 H 0.5374 -0.1623 0.4614
H28 H 0.5393 -0.2537 0.5111
C23 C 0.5364(3) -0.4648(5) 0.4570(2)
H29 H 0.5529 -0.4778 0.4945
H30 H 0.5581 -0.5270 0.4339
C24 C 0.4159(3) -0.2338(5) 0.4119(2)
H31 H 0.3630 -0.2382 0.4096
H32 H 0.4310 -0.1532 0.4001
C25 C 0.6433(2) -0.3162(5) 0.4423(2)
H33 H 0.6522 -0.2300 0.4362
H34 H 0.6573 -0.3338 0.4799
C26 C 0.6946(3) -0.3872(6) 0.4047(2)
C27 C 0.4229(3) -0.3135(5) 0.3148(2)
H35 H 0.4475 -0.3735 0.2921
H36 H 0.3710 -0.3316 0.3138
C28 C 0.4345(3) -0.1915(5) 0.2898(2)
C29 C 0.6204(3) -0.0107(5) 0.3249(3)
H37 H 0.6158 -0.0906 0.3125
C30 C 0.6746(3) 0.0162(6) 0.3614(3)
H38 H 0.7060 -0.0451 0.3734
C31 C 0.5825(3) 0.1858(5) 0.3238(2)
H39 H 0.5510 0.2455 0.3104
C32 C 0.6355(3) 0.2204(6) 0.3608(3)
H40 H 0.6392 0.3011 0.3723
C33 C 0.6832(3) 0.1330(6) 0.3807(2)
C34 C 0.7395(3) 0.1682(7) 0.4234(2)
H41 H 0.7586 0.2487 0.4152
H42 H 0.7799 0.1109 0.4224
C35 C 0.7026(5) 0.1683(10) 0.4859(4)
H43 H 0.7192 0.2391 0.5062
H44 H 0.6497 0.1722 0.4830
C36 C 0.7221(5) 0.0671(9) 0.5121(5)
H45 H 0.7736 0.0710 0.5216
H46 H 0.7146 -0.0030 0.4885
C37 C 0.6736(4) 0.0537(7) 0.5669(3)
C38 C 0.6957(3) 0.0952(8) 0.6175(3)
H47 H 0.7390 0.1392 0.6211
C39 C 0.6537(3) 0.0715(6) 0.6620(3)
H48 H 0.6699 0.0999 0.6960
C40 C 0.6082(4) -0.0033(6) 0.5640(3)
H49 H 0.5889 -0.0260 0.5302
C41 C 0.5709(3) -0.0270(6) 0.6112(3)
H50 H 0.5281 -0.0727 0.6086
C42 C 0.6678(3) 0.4750(4) 0.2441(3)
H51 H 0.6741 0.3935 0.2536
C43 C 0.6143(3) 0.5034(5) 0.2057(2)
H52 H 0.5865 0.4420 0.1896
C44 C 0.6983(3) 0.6734(5) 0.2548(2)
H53 H 0.7266 0.7334 0.2715
C45 C 0.6458(3) 0.7084(5) 0.2174(2)
H54 H 0.6392 0.7906 0.2094
C46 C 0.6031(3) 0.6223(5) 0.1918(2)
C47 C 0.5478(3) 0.6617(5) 0.1487(2)
H55 H 0.5183 0.5918 0.1384
H56 H 0.5155 0.7222 0.1647
C48 C 0.5824(3) 0.7143(5) 0.0977(2)
H57 H 0.6131 0.7824 0.1084
H58 H 0.6140 0.6528 0.0816
C49 C 0.5298(3) 0.7574(5) 0.0542(2)
H59 H 0.5027 0.6875 0.0407
H60 H 0.4949 0.8123 0.0713
C50 C 0.5635(3) 0.8214(5) 0.0059(2)
C51 C 0.6241(4) 0.8933(7) 0.0108(2)
H61 H 0.6439 0.9077 0.0455
C52 C 0.6561(4) 0.9442(6) -0.0340(3)
H62 H 0.6984 0.9897 -0.0285
C53 C 0.5363(3) 0.8129(5) -0.0466(2)
H63 H 0.4938 0.7687 -0.0533
C54 C 0.5719(3) 0.8693(6) -0.0891(2)
H64 H 0.5519 0.8609 -0.1241
Cd1B Cd 0.984863(17) 0.47118(3) 0.237689(15)
Cd1A Cd 0.515137(17) -0.02882(3) 0.737689(15)
Cd2_2 Cd 0.797073(17) -0.49301(3) 0.337881(18)
Cd2B Cd 0.297073(17) -0.00699(3) 0.337881(18)
Cd2C Cd 0.702927(17) 1.00699(3) -0.162119(18)
O3B O 0.4107(2) 0.1659(4) 0.28016(16)
O5_2 O 0.74413(18) 0.6731(4) 0.38184(17)
O6_2 O 0.6888(2) 0.4995(4) 0.39930(19)
O7B O 0.8878(2) 0.6079(4) 0.29422(17)
N2A N 0.4084(2) -0.0108(4) 0.16054(19)
N4C N 0.8683(2) 0.4340(4) 0.41534(18)
loop_
_geom_bond_atom_site_label_1
_geom_bond_atom_site_label_2
_geom_bond_site_symmetry_1
_geom_bond_site_symmetry_2
Cd1 O1 1_555 1_555
Cd2 O4 1_555 1_555
O1 C12 1_555 1_555
O2 Cd1 1_555 1_555
O3 C14 1_555 1_555
O4 C14 1_555 1_555
O5 C26 1_555 1_555
O6 C26 1_555 1_555
O7 C28 1_555 1_555
O8 Cd1 1_555 1_555
N1 Cd1 1_555 1_555
N2 C39 1_555 1_555
N3 Cd2 1_555 1_555
N4 C52 1_555 1_555
C1 C2 1_555 1_555
C2 H1 1_555 1_555
H2 C2 1_555 1_555
C3 C2 1_555 1_555
C4 C3 1_555 1_555
H3 C4 1_555 1_555
H4 C4 1_555 1_555
C5 C4 1_555 1_555
H5 C5 1_555 1_555
C6 C5 1_555 1_555
H6 C6 1_555 1_555
H7 C6 1_555 1_555
C7 C6 1_555 1_555
H8 C7 1_555 1_555
C8 C1 1_555 1_555
H9 C8 1_555 1_555
H10 C8 1_555 1_555
C9 C1 1_555 1_555
H11 C9 1_555 1_555
H12 C9 1_555 1_555
C10 C3 1_555 1_555
H13 C10 1_555 1_555
H14 C10 1_555 1_555
C11 C1 1_555 1_555
H15 C11 1_555 1_555
H16 C11 1_555 1_555
C12 O2 1_555 1_555
C13 C3 1_555 1_555
H17 C13 1_555 1_555
H18 C13 1_555 1_555
C14 C13 1_555 1_555
C15 C16 1_555 1_555
C16 H19 1_555 1_555
H20 C16 1_555 1_555
C17 C16 1_555 1_555
C18 C17 1_555 1_555
H21 C18 1_555 1_555
H22 C18 1_555 1_555
C19 C18 1_555 1_555
H23 C19 1_555 1_555
C20 C19 1_555 1_555
H24 C20 1_555 1_555
H25 C20 1_555 1_555
C21 C20 1_555 1_555
H26 C21 1_555 1_555
C22 C15 1_555 1_555
H27 C22 1_555 1_555
H28 C22 1_555 1_555
C23 C15 1_555 1_555
H29 C23 1_555 1_555
H30 C23 1_555 1_555
C24 C17 1_555 1_555
H31 C24 1_555 1_555
H32 C24 1_555 1_555
C25 C15 1_555 1_555
H33 C25 1_555 1_555
H34 C25 1_555 1_555
C26 C25 1_555 1_555
C27 C17 1_555 1_555
H35 C27 1_555 1_555
H36 C27 1_555 1_555
C28 O8 1_555 1_555
C29 N1 1_555 1_555
H37 C29 1_555 1_555
C30 C29 1_555 1_555
H38 C30 1_555 1_555
C31 N1 1_555 1_555
H39 C31 1_555 1_555
C32 C31 1_555 1_555
H40 C32 1_555 1_555
C33 C30 1_555 1_555
C34 C33 1_555 1_555
H41 C34 1_555 1_555
H42 C34 1_555 1_555
C35 C34 1_555 1_555
H43 C35 1_555 1_555
H44 C35 1_555 1_555
C36 C35 1_555 1_555
H45 C36 1_555 1_555
H46 C36 1_555 1_555
C37 C36 1_555 1_555
C38 C37 1_555 1_555
H47 C38 1_555 1_555
C39 C38 1_555 1_555
H48 C39 1_555 1_555
C40 C37 1_555 1_555
H49 C40 1_555 1_555
C41 N2 1_555 1_555
H50 C41 1_555 1_555
C42 N3 1_555 1_555
H51 C42 1_555 1_555
C43 C42 1_555 1_555
H52 C43 1_555 1_555
C44 N3 1_555 1_555
H53 C44 1_555 1_555
C45 C44 1_555 1_555
H54 C45 1_555 1_555
C46 C43 1_555 1_555
C47 C46 1_555 1_555
H55 C47 1_555 1_555
H56 C47 1_555 1_555
C48 C47 1_555 1_555
H57 C48 1_555 1_555
H58 C48 1_555 1_555
C49 C48 1_555 1_555
H59 C49 1_555 1_555
H60 C49 1_555 1_555
C50 C49 1_555 1_555
C51 C50 1_555 1_555
H61 C51 1_555 1_555
C52 C51 1_555 1_555
H62 C52 1_555 1_555
C53 C50 1_555 1_555
H63 C53 1_555 1_555
C54 N4 1_555 1_555
H64 C54 1_555 1_555
Cd1B O3 1_555 1_555
Cd1A N2 1_555 1_555
Cd2_2 O5 1_555 1_555
Cd2B O7 1_555 1_555
Cd2C N4 1_555 1_555
O3B Cd1 1_555 1_555
O5_2 Cd2 1_555 1_555
O6_2 Cd2 1_555 1_555
O7B Cd2 1_555 1_555
N2A Cd1 1_555 1_555
N4C Cd2 1_555 1_555
O6 Cd2_2 1_555 1_555
C5 C9 1_555 1_555
C7 C8 1_555 1_555
C7 C10 1_555 1_555
C11 C12 1_555 1_555
C19 C23 1_555 1_555
C21 C22 1_555 1_555
C21 C24 1_555 1_555
C27 C28 1_555 1_555
C32 C33 1_555 1_555
C40 C41 1_555 1_555
C45 C46 1_555 1_555
C53 C54 1_555 1_555

#END
