
#######################################################################
#
#                 Cambridge Crystallographic Data Centre
#                                CCDC 
#
#######################################################################
#
# If this CIF has been generated from an entry in the Cambridge 
# Structural Database, then it will include bibliographic, chemical, 
# crystal, experimental, refinement or atomic coordinate data resulting 
# from the CCDC's data processing and validation procedures.
#
#######################################################################

data_GULNAD
_symmetry_cell_setting           triclinic
_symmetry_space_group_name_H-M   'P -1'
_symmetry_Int_Tables_number      2
_space_group_name_Hall           '-P 1'
loop_
_symmetry_equiv_pos_site_id
_symmetry_equiv_pos_as_xyz
1 x,y,z
2 -x,-y,-z
_cell_length_a                   9.7368(3)
_cell_length_b                   9.9048(2)
_cell_length_c                   14.3865(3)
_cell_angle_alpha                105.882(2)
_cell_angle_beta                 99.604(4)
_cell_angle_gamma                110.632(3)
_cell_volume                     1194.29
loop_
_atom_site_label
_atom_site_type_symbol
_atom_site_fract_x
_atom_site_fract_y
_atom_site_fract_z
Co1 Co 0.08988(5) 0.73389(4) 0.33049(3)
N1 N 0.2113(3) 0.8258(3) 0.2484(2)
H1 H 0.3076 0.8263 0.2676
N2 N -0.0020(4) 0.6132(3) 0.1067(2)
N3 N 0.0539(4) 0.5241(3) 0.2465(2)
H2 H -0.0233 0.4551 0.2624
N4 N 0.2655(3) 0.7340(3) 0.4211(2)
H3 H 0.3560 0.7978 0.4150
H4 H 0.2651 0.7701 0.4871
N5 N -0.0990(3) 0.7192(3) 0.2436(2)
H5 H -0.0939 0.8187 0.2599
N6 N -0.0398(3) 0.6573(3) 0.4118(2)
H6 H -0.0606 0.5551 0.4000
H7 H 0.0101 0.7128 0.4794
N7 N 0.1488(3) 0.9493(3) 0.4177(2)
H8 H 0.0646 0.9718 0.4104
H9 H 0.1841 0.9617 0.4842
C1 C 0.1450(5) 0.7383(4) 0.1358(3)
H10 H 0.1371 0.8112 0.1022
H11 H 0.2168 0.6974 0.1113
C2 C 0.0012(5) 0.4849(4) 0.1329(2)
H12 H 0.0711 0.4484 0.1018
H13 H -0.1028 0.3992 0.1046
C3 C 0.1964(5) 0.5028(4) 0.2795(3)
H14 H 0.2755 0.5547 0.2503
H15 H 0.1738 0.3914 0.2565
C4 C 0.2528(5) 0.5729(4) 0.3930(3)
H16 H 0.1796 0.5132 0.4225
H17 H 0.3540 0.5732 0.4180
C5 C -0.1203(4) 0.6573(4) 0.1314(3)
H18 H -0.2204 0.5663 0.0986
H19 H -0.1233 0.7374 0.1034
C6 C -0.2317(4) 0.6269(4) 0.2710(3)
H20 H -0.2594 0.5151 0.2388
H21 H -0.3217 0.6470 0.2479
C7 C -0.1853(4) 0.6741(4) 0.3832(3)
H22 H -0.1692 0.7826 0.4155
H23 H -0.2656 0.6070 0.4049
C8 C 0.2338(4) 0.9898(4) 0.2765(3)
H24 H 0.1393 0.9959 0.2440
H25 H 0.3190 1.0485 0.2542
C9 C 0.2707(4) 1.0555(4) 0.3891(3)
H26 H 0.3724 1.0628 0.4216
H27 H 0.2728 1.1602 0.4109
Mn1 Mn 0.79036(5) 0.04875(5) 0.10519(3)
O1 O 0.8188(3) -0.1276(3) -0.00789(17)
O2 O 0.6796(3) 0.1313(3) 0.00654(18)
O3 O 0.4468(3) 0.0970(3) -0.0732(2)
O4 O 0.9816(3) -0.1654(2) -0.09305(17)
O5 O 0.8122(3) 0.2394(3) 0.23145(17)
O6 O 0.8526(4) 0.3198(3) 0.39710(19)
O7 O 0.8680(3) -0.0053(2) 0.23269(16)
O8 O 0.9438(3) 0.0883(3) 0.40095(16)
C10 C 0.9417(3) -0.0858(3) -0.0299(2)
C11 C 0.5368(4) 0.0659(4) -0.0196(2)
C12 C 0.8456(4) 0.2283(4) 0.3162(2)
C13 C 0.8884(3) 0.0906(3) 0.3177(2)
Mn1A Mn 1.20964(5) -0.04875(5) -0.10519(3)
Mn1A_2 Mn 0.20964(5) -0.04875(5) -0.10519(3)
O1A O 1.1812(3) 0.1276(3) 0.00789(17)
O2A O 0.3204(3) -0.1313(3) -0.00654(18)
O2A_2 O 1.3204(3) -0.1313(3) -0.00654(18)
O3A O 0.5532(3) -0.0970(3) 0.0732(2)
O3_2 O 1.4468(3) 0.0970(3) -0.0732(2)
O4A O 1.0184(3) 0.1654(2) 0.09305(17)
O5A O 1.1878(3) -0.2394(3) -0.23145(17)
O6A O 1.1474(4) -0.3198(3) -0.39710(19)
O7A O 1.1320(3) 0.0053(2) -0.23269(16)
O8A O 1.0562(3) -0.0883(3) -0.40095(16)
C10A C 1.0583(3) 0.0858(3) 0.0299(2)
C11A C 0.4632(4) -0.0659(4) 0.0196(2)
C12A C 1.1544(4) -0.2283(4) -0.3162(2)
C13A C 1.1116(3) -0.0906(3) -0.3177(2)
Cl1 Cl 0.56802(11) -0.08785(13) 0.36567(8)
O9 O 0.4551(4) -0.3376(5) 0.1432(4)
H28 H 0.4807 -0.2863 0.1055
H29 H 0.4833 -0.2702 0.2021
O10 O 0.5279(5) 0.3358(5) 0.3446(5)
H30 H 0.6177 0.3385 0.3567
H31 H 0.5011 0.3208 0.2820
O11 O 0.5646(5) -0.3735(5) -0.1615(4)
H32 H 0.6437 -0.2938 -0.1214
H33 H 0.5352 -0.4509 -0.1431
H34? H 0.6381 -0.3266 -0.0455
H35? H 0.5034 -0.3946 -0.0277
O12? O 0.5457(13) -0.3926(11) -0.0748(10)
loop_
_geom_bond_atom_site_label_1
_geom_bond_atom_site_label_2
_geom_bond_site_symmetry_1
_geom_bond_site_symmetry_2
Co1 N1 1_555 1_555
N1 H1 1_555 1_555
N2 C1 1_555 1_555
N3 Co1 1_555 1_555
H2 N3 1_555 1_555
N4 Co1 1_555 1_555
H3 N4 1_555 1_555
H4 N4 1_555 1_555
N5 Co1 1_555 1_555
H5 N5 1_555 1_555
N6 Co1 1_555 1_555
H6 N6 1_555 1_555
H7 N6 1_555 1_555
N7 Co1 1_555 1_555
H8 N7 1_555 1_555
H9 N7 1_555 1_555
C1 N1 1_555 1_555
H10 C1 1_555 1_555
H11 C1 1_555 1_555
C2 N2 1_555 1_555
H12 C2 1_555 1_555
H13 C2 1_555 1_555
C3 N3 1_555 1_555
H14 C3 1_555 1_555
H15 C3 1_555 1_555
C4 N4 1_555 1_555
H16 C4 1_555 1_555
H17 C4 1_555 1_555
C5 N2 1_555 1_555
H18 C5 1_555 1_555
H19 C5 1_555 1_555
C6 N5 1_555 1_555
H20 C6 1_555 1_555
H21 C6 1_555 1_555
C7 N6 1_555 1_555
H22 C7 1_555 1_555
H23 C7 1_555 1_555
C8 N1 1_555 1_555
H24 C8 1_555 1_555
H25 C8 1_555 1_555
C9 N7 1_555 1_555
H26 C9 1_555 1_555
H27 C9 1_555 1_555
Mn1 O1 1_555 1_555
O1 C10 1_555 1_555
O2 Mn1 1_555 1_555
O3 C11 1_555 1_555
O4 C10 1_555 1_555
O5 Mn1 1_555 1_555
O6 C12 1_555 1_555
O7 Mn1 1_555 1_555
O8 C13 1_555 1_555
C10 C10A 1_555 1_555
C11 O2 1_555 1_555
C12 O5 1_555 1_555
C13 O7 1_555 1_555
O9 H28 1_555 1_555
H29 O9 1_555 1_555
O10 H30 1_555 1_555
H31 O10 1_555 1_555
O11 H32 1_555 1_555
H33 O11 1_555 1_555
Mn1A O4 1_555 1_555
Mn1A_2 O3 1_555 1_555
O1A Mn1A 1_555 1_555
O2A Mn1A_2 1_555 1_555
O2A_2 Mn1A 1_555 1_555
O3A Mn1 1_555 1_555
O3_2 Mn1A 1_555 1_555
O4A Mn1 1_555 1_555
O5A Mn1A 1_555 1_555
O6A C12A 1_555 1_555
O7A Mn1A 1_555 1_555
O8A C13A 1_555 1_555
C10A O1A 1_555 1_555
C11A C11 1_555 1_555
C12A O5A 1_555 1_555
C13A O7A 1_555 1_555
N3 C2 1_555 1_555
N5 C5 1_555 1_555
C3 C4 1_555 1_555
C6 C7 1_555 1_555
C8 C9 1_555 1_555
C12 C13 1_555 1_555
O2A C11A 1_555 1_555
O3A C11A 1_555 1_555
O4A C10A 1_555 1_555
C12A C13A 1_555 1_555

#END
