
#######################################################################
#
#                 Cambridge Crystallographic Data Centre
#                                CCDC 
#
#######################################################################
#
# If this CIF has been generated from an entry in the Cambridge 
# Structural Database, then it will include bibliographic, chemical, 
# crystal, experimental, refinement or atomic coordinate data resulting 
# from the CCDC's data processing and validation procedures.
#
#######################################################################

data_GULNUX
_symmetry_cell_setting           monoclinic
_symmetry_space_group_name_H-M   'P 21/c'
_symmetry_Int_Tables_number      14
_space_group_name_Hall           '-P 2ybc'
loop_
_symmetry_equiv_pos_site_id
_symmetry_equiv_pos_as_xyz
1 x,y,z
2 -x,1/2+y,1/2-z
3 -x,-y,-z
4 x,1/2-y,1/2+z
_cell_length_a                   5.1785(7)
_cell_length_b                   13.6311(18)
_cell_length_c                   8.5386(12)
_cell_angle_alpha                90
_cell_angle_beta                 107.524(12)
_cell_angle_gamma                90
_cell_volume                     574.756
loop_
_atom_site_label
_atom_site_type_symbol
_atom_site_fract_x
_atom_site_fract_y
_atom_site_fract_z
Cu1 Cu 0.0000 0.0000 0.0000
C1 C 0.4901(5) 0.0559(2) -0.0181(4)
O1 O 0.2713(4) 0.09654(16) -0.0279(3)
O2 O 0.6990(4) 0.09546(16) -0.0355(3)
S1 S 0.1909(2) 0.13660(8) 0.35110(14)
C2 C 0.3160(13) 0.1269(4) 0.5676(7)
H1 H 0.1970 0.0862 0.6065
H2 H 0.3252 0.1910 0.6156
H3 H 0.4936 0.0983 0.5981
C3 C -0.1195(12) 0.1947(5) 0.3349(10)
H4 H -0.2215 0.2013 0.2212
H5 H -0.0859 0.2585 0.3847
H6 H -0.2203 0.1560 0.3901
O3 O 0.1278(6) 0.0341(2) 0.2871(4)
Cu1_2 Cu 1.0000 0.0000 0.0000
C1B C 0.5099(5) -0.0559(2) 0.0181(4)
O1B O 0.7287(4) -0.09654(16) 0.0279(3)
O1B_2 O -0.2713(4) -0.09654(16) 0.0279(3)
O2B O 0.3010(4) -0.09546(16) 0.0355(3)
O2_2 O -0.3010(4) 0.09546(16) -0.0355(3)
S1B S -0.1909(2) -0.13660(8) -0.35110(14)
C2B C -0.3160(13) -0.1269(4) -0.5676(7)
H1B H -0.1970 -0.0862 -0.6065
H2B H -0.3252 -0.1910 -0.6156
H3B H -0.4936 -0.0983 -0.5981
C3B C 0.1195(12) -0.1947(5) -0.3349(10)
H4B H 0.2215 -0.2013 -0.2212
H5B H 0.0859 -0.2585 -0.3847
H6B H 0.2203 -0.1560 -0.3901
O3B O -0.1278(6) -0.0341(2) -0.2871(4)
loop_
_geom_bond_atom_site_label_1
_geom_bond_atom_site_label_2
_geom_bond_site_symmetry_1
_geom_bond_site_symmetry_2
Cu1 O1 1_555 1_555
C1 O1 1_555 1_555
O2 C1 1_555 1_555
S1 C2 1_555 1_555
C2 H1 1_555 1_555
H2 C2 1_555 1_555
H3 C2 1_555 1_555
C3 S1 1_555 1_555
H4 C3 1_555 1_555
H5 C3 1_555 1_555
H6 C3 1_555 1_555
O3 Cu1 1_555 1_555
Cu1_2 O2 1_555 1_555
C1B C1 1_555 1_555
O1B Cu1_2 1_555 1_555
O1B_2 Cu1 1_555 1_555
O2B Cu1 1_555 1_555
O2_2 Cu1 1_555 1_555
S1B C2B 1_555 1_555
C2B H1B 1_555 1_555
H2B C2B 1_555 1_555
H3B C2B 1_555 1_555
C3B S1B 1_555 1_555
H4B C3B 1_555 1_555
H5B C3B 1_555 1_555
H6B C3B 1_555 1_555
O3B Cu1 1_555 1_555
S1 O3 1_555 1_555
C1B O1B 1_555 1_555
C1B O2B 1_555 1_555
S1B O3B 1_555 1_555

#END
