
#######################################################################
#
#                 Cambridge Crystallographic Data Centre
#                                CCDC 
#
#######################################################################
#
# If this CIF has been generated from an entry in the Cambridge 
# Structural Database, then it will include bibliographic, chemical, 
# crystal, experimental, refinement or atomic coordinate data resulting 
# from the CCDC's data processing and validation procedures.
#
#######################################################################

data_GULYOD
_symmetry_cell_setting           orthorhombic
_symmetry_space_group_name_H-M   'P c a 21'
_symmetry_Int_Tables_number      29
_space_group_name_Hall           'P 2c -2ac'
loop_
_symmetry_equiv_pos_site_id
_symmetry_equiv_pos_as_xyz
1 x,y,z
2 -x,-y,1/2+z
3 1/2-x,y,1/2+z
4 1/2+x,-y,z
_cell_length_a                   13.677(3)
_cell_length_b                   14.165(3)
_cell_length_c                   15.195(3)
_cell_angle_alpha                90
_cell_angle_beta                 90
_cell_angle_gamma                90
_cell_volume                     2943.8
loop_
_atom_site_label
_atom_site_type_symbol
_atom_site_fract_x
_atom_site_fract_y
_atom_site_fract_z
W1 W -0.27238(2) -0.74765(2) -0.08610(3)
Cu1 Cu -0.45604(7) -0.68191(7) -0.06855(7)
Cu2 Cu -0.34205(7) -0.92458(7) -0.10161(8)
Cu3 Cu -0.09212(7) -0.82148(7) -0.06428(7)
Cu4 Cu -0.20284(7) -0.57193(7) -0.11434(6)
S1 S -0.39740(16) -0.79071(16) -0.17127(15)
S2 S -0.23441(16) -0.86639(15) 0.00375(15)
S3 S -0.14324(16) -0.71376(16) -0.16998(15)
S4 S -0.31443(16) -0.62021(15) -0.00736(14)
N1 N -0.5597(5) -0.5915(5) -0.0912(6)
N2 N -0.4983(5) -1.0808(5) -0.0812(6)
N3 N -0.5091(6) -0.7734(5) 0.0326(5)
N4 N -0.2449(5) -0.9955(5) -0.1935(5)
N5 N -0.0090(6) -0.7349(5) 0.0253(5)
N6 N -0.2980(5) -0.5216(5) -0.2149(5)
C1 C -0.6152(5) -0.5285(5) -0.0979(6)
C2 C -0.4371(5) -1.0219(5) -0.0831(7)
C3 C -0.4779(7) -0.7808(7) 0.1143(7)
H1 H -0.4256 -0.7427 0.1308
C4 C -0.5154(8) -0.8393(8) 0.1767(8)
H2 H -0.4912 -0.8389 0.2339
C5 C -0.5900(11) -0.8990(9) 0.1528(8)
H3 H -0.6175 -0.9406 0.1931
C6 C -0.6218(11) -0.8952(10) 0.0688(9)
H4 H -0.6708 -0.9363 0.0506
C7 C -0.5841(9) -0.8329(10) 0.0106(8)
H5 H -0.6098 -0.8304 -0.0460
C8 C -0.2099(7) -0.9589(7) -0.2686(7)
H6 H -0.2244 -0.8965 -0.2824
C9 C -0.1528(7) -1.0111(8) -0.3268(8)
H7 H -0.1324 -0.9845 -0.3797
C10 C -0.1273(9) -1.0997(9) -0.3062(8)
H8 H -0.0859 -1.1338 -0.3429
C11 C -0.1635(11) -1.1405(9) -0.2290(9)
H9 H -0.1498 -1.2028 -0.2143
C12 C -0.2204(8) -1.0840(7) -0.1757(7)
H10 H -0.2433 -1.1100 -0.1234
C13 C 0.0804(8) -0.7094(8) -0.0010(7)
H11 H 0.1007 -0.7260 -0.0573
C14 C 0.1432(9) -0.6599(9) 0.0516(8)
H12 H 0.2046 -0.6425 0.0308
C15 C 0.1144(9) -0.6353(9) 0.1372(8)
H13 H 0.1560 -0.6030 0.1750
C16 C 0.0224(9) -0.6612(7) 0.1623(8)
H14 H -0.0008 -0.6449 0.2178
C17 C -0.0362(8) -0.7116(6) 0.1052(7)
H15 H -0.0980 -0.7300 0.1242
C18 C -0.2910(6) -0.5430(7) -0.3001(6)
H16 H -0.2464 -0.5892 -0.3166
C19 C -0.3451(8) -0.5015(7) -0.3644(7)
H17 H -0.3360 -0.5187 -0.4229
C20 C -0.4124(9) -0.4349(8) -0.3430(7)
H18 H -0.4484 -0.4035 -0.3859
C21 C -0.4245(10) -0.4165(9) -0.2572(8)
H19 H -0.4725 -0.3739 -0.2399
C22 C -0.3672(9) -0.4596(8) -0.1938(7)
H20 H -0.3773 -0.4447 -0.1349
Cu3C Cu -0.59212(7) -1.17852(7) -0.06428(7)
Cu4C Cu -0.70284(7) -0.42807(7) -0.11434(6)
N2C N 0.0017(5) -0.9192(5) -0.0812(6)
C1C C -0.1152(5) -0.4715(5) -0.0979(6)
loop_
_geom_bond_atom_site_label_1
_geom_bond_atom_site_label_2
_geom_bond_site_symmetry_1
_geom_bond_site_symmetry_2
W1 S1 1_555 1_555
Cu1 S1 1_555 1_555
Cu2 S1 1_555 1_555
Cu3 S2 1_555 1_555
Cu4 S3 1_555 1_555
S2 W1 1_555 1_555
S3 W1 1_555 1_555
S4 W1 1_555 1_555
N1 Cu1 1_555 1_555
N2 C2 1_555 1_555
N3 Cu1 1_555 1_555
N4 Cu2 1_555 1_555
N5 Cu3 1_555 1_555
N6 Cu4 1_555 1_555
C1 N1 1_555 1_555
C2 Cu2 1_555 1_555
C3 N3 1_555 1_555
H1 C3 1_555 1_555
C4 C3 1_555 1_555
H2 C4 1_555 1_555
C5 C4 1_555 1_555
H3 C5 1_555 1_555
C6 C5 1_555 1_555
H4 C6 1_555 1_555
C7 N3 1_555 1_555
H5 C7 1_555 1_555
C8 N4 1_555 1_555
H6 C8 1_555 1_555
C9 C8 1_555 1_555
H7 C9 1_555 1_555
C10 C9 1_555 1_555
H8 C10 1_555 1_555
C11 C10 1_555 1_555
H9 C11 1_555 1_555
C12 N4 1_555 1_555
H10 C12 1_555 1_555
C13 N5 1_555 1_555
H11 C13 1_555 1_555
C14 C13 1_555 1_555
H12 C14 1_555 1_555
C15 C14 1_555 1_555
H13 C15 1_555 1_555
C16 C15 1_555 1_555
H14 C16 1_555 1_555
C17 N5 1_555 1_555
H15 C17 1_555 1_555
C18 N6 1_555 1_555
H16 C18 1_555 1_555
C19 C18 1_555 1_555
H17 C19 1_555 1_555
C20 C19 1_555 1_555
H18 C20 1_555 1_555
C21 C20 1_555 1_555
H19 C21 1_555 1_555
C22 N6 1_555 1_555
H20 C22 1_555 1_555
Cu3C N2 1_555 1_555
Cu4C C1 1_555 1_555
N2C Cu3 1_555 1_555
C1C Cu4 1_555 1_555
Cu1 S4 1_555 1_555
Cu2 S2 1_555 1_555
Cu3 S3 1_555 1_555
Cu4 S4 1_555 1_555
C6 C7 1_555 1_555
C11 C12 1_555 1_555
C16 C17 1_555 1_555
C21 C22 1_555 1_555

#END
