
#######################################################################
#
#                 Cambridge Crystallographic Data Centre
#                                CCDC 
#
#######################################################################
#
# If this CIF has been generated from an entry in the Cambridge 
# Structural Database, then it will include bibliographic, chemical, 
# crystal, experimental, refinement or atomic coordinate data resulting 
# from the CCDC's data processing and validation procedures.
#
#######################################################################

data_GUMBIA
_symmetry_cell_setting           monoclinic
_symmetry_space_group_name_H-M   'C 2/c'
_symmetry_Int_Tables_number      15
_space_group_name_Hall           '-C 2yn'
loop_
_symmetry_equiv_pos_site_id
_symmetry_equiv_pos_as_xyz
1 x,y,z
2 -x,y,1/2-z
3 1/2+x,1/2+y,z
4 1/2-x,1/2+y,1/2-z
5 -x,-y,-z
6 x,-y,1/2+z
7 1/2-x,1/2-y,-z
8 1/2+x,1/2-y,1/2+z
_cell_length_a                   19.791(3)
_cell_length_b                   22.674(3)
_cell_length_c                   12.8770(17)
_cell_angle_alpha                90
_cell_angle_beta                 113.271(3)
_cell_angle_gamma                90
_cell_volume                     5308.34
loop_
_atom_site_label
_atom_site_type_symbol
_atom_site_fract_x
_atom_site_fract_y
_atom_site_fract_z
Cu1 Cu 0.495562(16) 0.761152(13) 0.54798(2)
Cu2 Cu 0.5000 0.862118(17) 0.7500
O1 O 0.57769(11) 0.74239(8) 0.68852(16)
O2 O 0.57671(9) 0.80480(8) 0.82350(15)
O3 O 0.51219(10) 0.84678(8) 0.55999(15)
O4 O 0.62719(12) 0.84826(9) 0.5672(2)
N1 N 0.40429(12) 0.76683(10) 0.40790(19)
N2 N 0.46563(13) 0.67583(10) 0.53259(19)
N3 N 0.57098(12) 0.92887(9) 0.79993(17)
C1 C 0.37500(16) 0.81625(15) 0.3509(3)
H1 H 0.3968 0.8527 0.3802
C2 C 0.31381(19) 0.8152(2) 0.2504(3)
H2 H 0.2937 0.8506 0.2129
C3 C 0.2830(2) 0.7629(2) 0.2063(3)
H3 H 0.2419 0.7614 0.1371
C4 C 0.3125(2) 0.7117(2) 0.2638(3)
H4 H 0.2917 0.6750 0.2340
C5 C 0.37286(15) 0.71451(14) 0.3656(2)
C6 C 0.40732(16) 0.66316(13) 0.4363(3)
C7 C 0.3835(2) 0.60575(16) 0.4097(3)
H5 H 0.3430 0.5974 0.3421
C8 C 0.4192(2) 0.56084(16) 0.4826(4)
H6 H 0.4033 0.5216 0.4657
C9 C 0.4784(2) 0.57399(14) 0.5803(4)
H7 H 0.5036 0.5440 0.6313
C10 C 0.50056(19) 0.63184(13) 0.6027(3)
H8 H 0.5415 0.6408 0.6693
C11 C 0.64426(15) 0.92379(14) 0.8483(2)
H9 H 0.6654 0.8860 0.8652
C12 C 0.68973(18) 0.97286(17) 0.8741(3)
H10 H 0.7411 0.9684 0.9079
C13 C 0.6591(2) 1.02738(16) 0.8501(3)
H11 H 0.6893 1.0610 0.8672
C14 C 0.5834(2) 1.03325(13) 0.8003(3)
H12 H 0.5616 1.0708 0.7829
C15 C 0.54023(15) 0.98282(11) 0.7764(2)
C16 C 0.60351(13) 0.76330(10) 0.7859(2)
C17 C 0.67324(14) 0.73675(11) 0.8655(2)
H13 H 0.6884 0.7005 0.8464
C18 C 0.71499(13) 0.76198(11) 0.9622(2)
H14 H 0.6984 0.7972 0.9829
C19 C 0.56920(15) 0.87300(11) 0.5588(2)
C20 C 0.56483(15) 0.93821(12) 0.5463(2)
H15 H 0.6090 0.9594 0.5668
C21 C 0.50203(15) 0.96830(11) 0.5078(2)
H16 H 0.4579 0.9473 0.4898
O5 O 0.56874(14) 0.74907(11) 0.4450(2)
H17 H 0.590(2) 0.7160(11) 0.462(4)
H18 H 0.6051(18) 0.7697(17) 0.485(3)
Cu1F Cu 1.004438(16) 0.738848(13) 1.45202(2)
Cu1D Cu 0.504438(16) 1.238848(13) 0.45202(2)
Cu2F Cu 1.0000 0.637882(17) 1.2500
O1F O 0.92231(11) 0.75761(8) 1.31148(16)
O2F O 0.92329(9) 0.69520(8) 1.17650(15)
O2A O 0.42329(9) 0.80480(8) 0.67650(15)
O3D O 0.48781(10) 1.15322(8) 0.44001(15)
O3F O 0.98781(10) 0.65322(8) 1.44001(15)
O4D O 0.37281(12) 1.15174(9) 0.4328(2)
N1F N 1.09571(12) 0.73317(10) 1.59210(19)
N2F N 1.03437(13) 0.82417(10) 1.46741(19)
N3A N 0.42902(12) 0.92887(9) 0.70007(17)
C1F C 1.12500(16) 0.68375(15) 1.6491(3)
H1F H 1.1032 0.6473 1.6198
C2F C 1.18619(19) 0.6848(2) 1.7496(3)
H2F H 1.2063 0.6494 1.7871
C3F C 1.2170(2) 0.7371(2) 1.7937(3)
H3F H 1.2581 0.7386 1.8629
C4F C 1.1875(2) 0.7883(2) 1.7362(3)
H4F H 1.2083 0.8250 1.7660
C5F C 1.12714(15) 0.78549(14) 1.6344(2)
C6F C 1.09268(16) 0.83684(13) 1.5637(3)
C7F C 1.1165(2) 0.89425(16) 1.5903(3)
H5F H 1.1570 0.9026 1.6579
C8F C 1.0808(2) 0.93916(16) 1.5174(4)
H6F H 1.0967 0.9784 1.5343
C9F C 1.0216(2) 0.92601(14) 1.4197(4)
H7F H 0.9964 0.9560 1.3687
C10F C 0.99944(19) 0.86816(13) 1.3973(3)
H8F H 0.9585 0.8592 1.3307
C11A C 0.35574(15) 0.92379(14) 0.6517(2)
H9A H 0.3346 0.8860 0.6348
C12A C 0.31027(18) 0.97286(17) 0.6259(3)
H10A H 0.2589 0.9684 0.5921
C13A C 0.3409(2) 1.02738(16) 0.6499(3)
H11A H 0.3107 1.0610 0.6328
C14A C 0.4166(2) 1.03325(13) 0.6997(3)
H12A H 0.4384 1.0708 0.7171
C15A C 0.45977(15) 0.98282(11) 0.7236(2)
C16F C 0.89649(13) 0.73670(10) 1.2141(2)
C17F C 0.82676(14) 0.76325(11) 1.1345(2)
H13F H 0.8116 0.7995 1.1536
C18F C 0.78501(13) 0.73802(11) 1.0378(2)
H14F H 0.8016 0.7028 1.0171
C19D C 0.43080(15) 1.12700(11) 0.4412(2)
C20D C 0.43517(15) 1.06179(12) 0.4537(2)
H15D H 0.3910 1.0406 0.4332
C21D C 0.49797(15) 1.03170(11) 0.4922(2)
H16D H 0.5421 1.0527 0.5102
O5F O 0.93126(14) 0.75093(11) 1.5550(2)
H17F H 0.910(2) 0.7840(11) 1.538(4)
H18F H 0.8949(18) 0.7303(17) 1.515(3)
O6 O 0.5000 0.82784(16) 0.2500
H19 H 0.5252(18) 0.8055(13) 0.300(2)
H19A H 0.4748(18) 0.8055(13) 0.200(2)
O7 O 0.75691(16) 0.89614(12) 0.5806(3)
H20 H 0.7112(13) 0.8843(18) 0.558(3)
H21 H 0.764(2) 0.9333(9) 0.591(4)
O8 O 0.6447(3) 0.6464(2) 0.4962(5)
H22 H 0.644(3) 0.6279(18) 0.556(3)
H23 H 0.677(2) 0.6340(18) 0.473(4)
Cl1 Cl 0.79604(6) 0.94869(4) 0.19777(9)
O9 O 0.8184(2) 0.9333(2) 0.3136(3)
O10 O 0.7236(6) 0.9676(7) 0.1534(7)
O11 O 0.8405(7) 0.9961(4) 0.1859(9)
O12 O 0.8055(8) 0.9027(3) 0.1360(10)
O13 O 0.5000 0.4133(10) 0.7500
O14? O 0.5000 0.3574(10) 0.7500
O15? O 0.7242(11) 0.9295(13) 0.1443(12)
O16? O 0.7926(18) 1.0096(5) 0.2040(13)
O17? O 0.8383(14) 0.9304(16) 0.1551(19)
loop_
_geom_bond_atom_site_label_1
_geom_bond_atom_site_label_2
_geom_bond_site_symmetry_1
_geom_bond_site_symmetry_2
Cu1 O1 1_555 1_555
Cu2 O2 1_555 1_555
O1 C16 1_555 1_555
O2 C16 1_555 1_555
O3 Cu1 1_555 1_555
O4 C19 1_555 1_555
N1 Cu1 1_555 1_555
N2 Cu1 1_555 1_555
N3 Cu2 1_555 1_555
C1 N1 1_555 1_555
H1 C1 1_555 1_555
C2 C1 1_555 1_555
H2 C2 1_555 1_555
C3 C2 1_555 1_555
H3 C3 1_555 1_555
C4 C3 1_555 1_555
H4 C4 1_555 1_555
C5 N1 1_555 1_555
C6 N2 1_555 1_555
C7 C6 1_555 1_555
H5 C7 1_555 1_555
C8 C7 1_555 1_555
H6 C8 1_555 1_555
C9 C8 1_555 1_555
H7 C9 1_555 1_555
C10 N2 1_555 1_555
H8 C10 1_555 1_555
C11 N3 1_555 1_555
H9 C11 1_555 1_555
C12 C11 1_555 1_555
H10 C12 1_555 1_555
C13 C12 1_555 1_555
H11 C13 1_555 1_555
C14 C13 1_555 1_555
H12 C14 1_555 1_555
C15 N3 1_555 1_555
C16 C17 1_555 1_555
C17 H13 1_555 1_555
C18 C17 1_555 1_555
H14 C18 1_555 1_555
C19 O3 1_555 1_555
C20 C19 1_555 1_555
H15 C20 1_555 1_555
C21 C20 1_555 1_555
H16 C21 1_555 1_555
O5 Cu1 1_555 1_555
H17 O5 1_555 1_555
H18 O5 1_555 1_555
O6 H19 1_555 1_555
O7 H20 1_555 1_555
H21 O7 1_555 1_555
O8 H22 1_555 1_555
H23 O8 1_555 1_555
Cl1 O9 1_555 1_555
O10 Cl1 1_555 1_555
O11 Cl1 1_555 1_555
O12 Cl1 1_555 1_555
Cu1F O1F 1_555 1_555
Cu1D O3D 1_555 1_555
Cu2F O2F 1_555 1_555
O1F C16F 1_555 1_555
O2F C16F 1_555 1_555
O2A Cu2 1_555 1_555
O3D C19D 1_555 1_555
O3F Cu1F 1_555 1_555
O4D C19D 1_555 1_555
N1F Cu1F 1_555 1_555
N2F Cu1F 1_555 1_555
N3A Cu2 1_555 1_555
C1F N1F 1_555 1_555
H1F C1F 1_555 1_555
C2F C1F 1_555 1_555
H2F C2F 1_555 1_555
C3F C2F 1_555 1_555
H3F C3F 1_555 1_555
C4F C3F 1_555 1_555
H4F C4F 1_555 1_555
C5F N1F 1_555 1_555
C6F N2F 1_555 1_555
C7F C6F 1_555 1_555
H5F C7F 1_555 1_555
C8F C7F 1_555 1_555
H6F C8F 1_555 1_555
C9F C8F 1_555 1_555
H7F C9F 1_555 1_555
C10F N2F 1_555 1_555
H8F C10F 1_555 1_555
C11A N3A 1_555 1_555
H9A C11A 1_555 1_555
C12A C11A 1_555 1_555
H10A C12A 1_555 1_555
C13A C12A 1_555 1_555
H11A C13A 1_555 1_555
C14A C13A 1_555 1_555
H12A C14A 1_555 1_555
C15A C15 1_555 1_555
C16F C17F 1_555 1_555
C17F H13F 1_555 1_555
C18F C18 1_555 1_555
H14F C18F 1_555 1_555
C19D C20D 1_555 1_555
C20D H15D 1_555 1_555
C21D C21 1_555 1_555
H16D C21D 1_555 1_555
O5F Cu1F 1_555 1_555
H17F O5F 1_555 1_555
H18F O5F 1_555 1_555
H19A O6 1_555 1_555
C4 C5 1_555 1_555
C5 C6 1_555 1_555
C9 C10 1_555 1_555
C14 C15 1_555 1_555
N3A C15A 1_555 1_555
C4F C5F 1_555 1_555
C5F C6F 1_555 1_555
C9F C10F 1_555 1_555
C14A C15A 1_555 1_555
C17F C18F 1_555 1_555
C20D C21D 1_555 1_555

#END
