
#######################################################################
#
#                 Cambridge Crystallographic Data Centre
#                                CCDC 
#
#######################################################################
#
# If this CIF has been generated from an entry in the Cambridge 
# Structural Database, then it will include bibliographic, chemical, 
# crystal, experimental, refinement or atomic coordinate data resulting 
# from the CCDC's data processing and validation procedures.
#
#######################################################################

data_GUMBOH
_symmetry_cell_setting           orthorhombic
_symmetry_space_group_name_H-M   'P b c a'
_symmetry_Int_Tables_number      61
_space_group_name_Hall           '-P 2ac 2ab'
loop_
_symmetry_equiv_pos_site_id
_symmetry_equiv_pos_as_xyz
1 x,y,z
2 1/2-x,-y,1/2+z
3 1/2+x,1/2-y,-z
4 -x,1/2+y,1/2-z
5 -x,-y,-z
6 1/2+x,y,1/2-z
7 1/2-x,1/2+y,z
8 x,1/2-y,1/2+z
_cell_length_a                   17.422(6)
_cell_length_b                   9.264(3)
_cell_length_c                   20.729(7)
_cell_angle_alpha                90
_cell_angle_beta                 90
_cell_angle_gamma                90
_cell_volume                     3345.61
loop_
_atom_site_label
_atom_site_type_symbol
_atom_site_fract_x
_atom_site_fract_y
_atom_site_fract_z
N1 N -0.16379(12) 0.4816(2) 0.35783(11)
N2 N -0.25259(12) 0.3155(2) 0.34963(10)
Cd1 Cd 0.133884(10) 0.21772(2) 0.120770(8)
C1 C 0.01140(15) 0.2399(3) 0.20024(13)
C2 C -0.05970(15) 0.2537(3) 0.24047(12)
C3 C -0.11862(14) 0.1507(3) 0.23347(13)
H1 H -0.1116 0.0747 0.2047
C4 C -0.18562(15) 0.1586(3) 0.26749(12)
H2 H -0.2235 0.0884 0.2634
C5 C -0.19488(14) 0.2769(3) 0.30887(12)
C6 C -0.13784(13) 0.3816(3) 0.31459(12)
C7 C -0.06832(15) 0.3706(3) 0.28100(12)
H3 H -0.0297 0.4391 0.2858
C8 C 0.1699(2) 0.0598(4) -0.01971(15)
H4 H 0.1801 -0.0196 0.0063
C9 C 0.1776(2) 0.0446(4) -0.08623(16)
H5 H 0.1912 -0.0439 -0.1041
C10 C 0.1648(3) 0.1607(5) -0.12462(14)
H6 H 0.1697 0.1525 -0.1691
C11 C 0.14430(18) 0.2927(4) -0.09702(16)
C12 C 0.13639(15) 0.2982(3) -0.02946(14)
C13 C 0.13118(19) 0.4204(5) -0.13437(16)
H7 H 0.1354 0.4163 -0.1791
C14 C 0.1130(2) 0.5451(4) -0.10612(16)
H8 H 0.1074 0.6274 -0.1314
C15 C 0.10182(16) 0.5553(3) -0.03771(14)
C16 C 0.0777(2) 0.6815(3) -0.00671(17)
H9 H 0.0690 0.7649 -0.0305
C17 C 0.06692(19) 0.6821(3) 0.05825(16)
H10 H 0.0512 0.7656 0.0794
C18 C 0.07995(17) 0.5548(3) 0.09246(14)
H11 H 0.0726 0.5557 0.1369
C19 C 0.11342(15) 0.4322(3) 0.00081(13)
N3 N -0.23238(13) 0.4386(2) 0.37847(10)
N4 N 0.14884(14) 0.1824(3) 0.00830(11)
N5 N 0.10208(12) 0.4337(2) 0.06521(10)
O1 O 0.00610(11) 0.1717(2) 0.14787(9)
O2 O 0.07215(11) 0.2976(2) 0.21832(10)
N1C N 0.16379(12) -0.0184(2) 0.14217(11)
N2E N 0.24741(12) 0.3155(2) 0.15037(10)
Cd1C Cd -0.133884(10) 0.71772(2) 0.379230(8)
Cd1E Cd -0.366116(10) 0.21772(2) 0.379230(8)
loop_
_geom_bond_atom_site_label_1
_geom_bond_atom_site_label_2
_geom_bond_site_symmetry_1
_geom_bond_site_symmetry_2
N1 C6 1_555 1_555
N2 C5 1_555 1_555
Cd1 N4 1_555 1_555
C1 C2 1_555 1_555
C2 C3 1_555 1_555
C3 H1 1_555 1_555
C4 C3 1_555 1_555
H2 C4 1_555 1_555
C5 C4 1_555 1_555
C6 C5 1_555 1_555
C7 C2 1_555 1_555
H3 C7 1_555 1_555
C8 H4 1_555 1_555
C9 C8 1_555 1_555
H5 C9 1_555 1_555
C10 C9 1_555 1_555
H6 C10 1_555 1_555
C11 C10 1_555 1_555
C12 C11 1_555 1_555
C13 C11 1_555 1_555
H7 C13 1_555 1_555
C14 C13 1_555 1_555
H8 C14 1_555 1_555
C15 C14 1_555 1_555
C16 C15 1_555 1_555
H9 C16 1_555 1_555
C17 C16 1_555 1_555
H10 C17 1_555 1_555
C18 C17 1_555 1_555
H11 C18 1_555 1_555
C19 C12 1_555 1_555
N3 N1 1_555 1_555
N4 C8 1_555 1_555
N5 Cd1 1_555 1_555
O1 Cd1 1_555 1_555
O2 Cd1 1_555 1_555
N1C Cd1 1_555 1_555
N2E Cd1 1_555 1_555
Cd1C N1 1_555 1_555
Cd1E N2 1_555 1_555
N2 N3 1_555 1_555
C1 O1 1_555 1_555
C1 O2 1_555 1_555
C6 C7 1_555 1_555
C12 N4 1_555 1_555
C15 C19 1_555 1_555
C18 N5 1_555 1_555
C19 N5 1_555 1_555

#END
