
#######################################################################
#
#                 Cambridge Crystallographic Data Centre
#                                CCDC 
#
#######################################################################
#
# If this CIF has been generated from an entry in the Cambridge 
# Structural Database, then it will include bibliographic, chemical, 
# crystal, experimental, refinement or atomic coordinate data resulting 
# from the CCDC's data processing and validation procedures.
#
#######################################################################

data_GUMCAT
_symmetry_cell_setting           triclinic
_symmetry_space_group_name_H-M   'P -1'
_symmetry_Int_Tables_number      2
_space_group_name_Hall           '-P 1'
loop_
_symmetry_equiv_pos_site_id
_symmetry_equiv_pos_as_xyz
1 x,y,z
2 -x,-y,-z
_cell_length_a                   12.7209(17)
_cell_length_b                   14.6283(19)
_cell_length_c                   16.413(2)
_cell_angle_alpha                90.340(2)
_cell_angle_beta                 90.874(3)
_cell_angle_gamma                100.198(2)
_cell_volume                     3005.5
loop_
_atom_site_label
_atom_site_type_symbol
_atom_site_fract_x
_atom_site_fract_y
_atom_site_fract_z
Ru1 Ru 0.57645(4) 0.47323(3) 0.48504(3)
Ru2 Ru 0.91434(3) 0.47756(3) 0.47690(3)
Cl1 Cl 0.72967(13) 0.40469(12) 0.42906(11)
O1 O 0.6187(3) 0.5835(3) 0.4119(2)
O2 O 0.4679(3) 0.6343(3) 0.4388(2)
O3 O 0.4687(4) 0.8903(4) 0.2303(4)
O4 O 0.6588(4) 0.9158(4) 0.1667(3)
O5 O 0.8053(5) 0.8196(5) 0.2147(4)
O6 O 0.4956(3) 0.4019(3) 0.3911(2)
O7 O 0.3474(3) 0.4553(3) 0.4191(2)
O8 O 0.0897(4) 0.2854(3) 0.2012(3)
O9 O 0.2052(4) 0.1824(4) 0.1200(3)
O10 O 0.4101(5) 0.1852(4) 0.1561(4)
O11 O 0.8731(3) 0.4343(3) 0.5904(2)
O12 O 1.0403(3) 0.4752(3) 0.6352(2)
O13 O 1.0169(5) 0.3796(4) 0.9327(3)
O14 O 0.8133(5) 0.3583(5) 0.9656(3)
O15 O 0.6638(5) 0.3686(5) 0.8461(4)
O16 O 0.8816(3) 0.6046(3) 0.5052(2)
O17 O 1.0480(3) 0.6471(2) 0.5520(2)
O18 O 1.0609(5) 0.9656(4) 0.6727(4)
O19 O 0.8757(5) 1.0130(3) 0.6328(3)
O20 O 0.7253(5) 0.8981(4) 0.5559(4)
C1 C 0.5551(5) 0.6402(4) 0.4017(3)
C2 C 0.5831(5) 0.7142(4) 0.3410(4)
C3 C 0.5084(6) 0.7667(4) 0.3177(4)
H1 H 0.4411 0.7574 0.3409
C4 C 0.5358(6) 0.8341(5) 0.2587(5)
C5 C 0.6346(6) 0.8482(5) 0.2233(4)
C6 C 0.7100(6) 0.7975(5) 0.2505(5)
C7 C 0.6850(5) 0.7295(5) 0.3084(4)
H2 H 0.7354 0.6944 0.3253
C8 C 0.3689(7) 0.8850(7) 0.2657(7)
H3 H 0.3263 0.8239 0.2565
H4 H 0.3771 0.8959 0.3240
C9 C 0.3158(8) 0.9568(9) 0.2277(8)
H5 H 0.2466 0.9545 0.2509
H6 H 0.3583 1.0170 0.2375
H7 H 0.3081 0.9454 0.1700
C10 C 0.6471(12) 0.8791(8) 0.0841(5)
H8 H 0.5749 0.8456 0.0753
H9 H 0.6958 0.8358 0.0763
C11 C 0.6687(18) 0.9508(12) 0.0277(9)
H10 H 0.6604 0.9254 -0.0265
H11 H 0.6200 0.9932 0.0351
H12 H 0.7407 0.9832 0.0358
C12 C 0.8949(7) 0.7947(7) 0.2499(6)
H13 H 0.9039 0.8182 0.3054
H14 H 0.8873 0.7276 0.2512
C13 C 0.9889(7) 0.8342(7) 0.2016(8)
H15 H 1.0520 0.8176 0.2259
H16 H 0.9799 0.8099 0.1470
H17 H 0.9960 0.9006 0.2005
C14 C 0.4001(4) 0.4081(4) 0.3771(3)
C15 C 0.3466(5) 0.3524(4) 0.3076(3)
C16 C 0.2406(5) 0.3510(4) 0.2875(4)
H18 H 0.2012 0.3881 0.3161
C17 C 0.1932(5) 0.2943(5) 0.2248(4)
C18 C 0.2502(6) 0.2375(5) 0.1828(4)
C19 C 0.3580(6) 0.2416(5) 0.2010(4)
C20 C 0.4057(6) 0.2986(5) 0.2630(4)
H19 H 0.4778 0.3013 0.2752
C21 C 0.0314(6) 0.3530(5) 0.2254(5)
H20 H 0.0696 0.4141 0.2112
H21 H 0.0230 0.3512 0.2841
C22 C -0.0742(6) 0.3365(6) 0.1851(6)
H22 H -0.1138 0.3831 0.2023
H23 H -0.1121 0.2762 0.1996
H24 H -0.0657 0.3395 0.1271
C23 C 0.1252(7) 0.1055(5) 0.1415(5)
H25 H 0.1581 0.0521 0.1535
H26 H 0.0887 0.1209 0.1899
C24 C 0.0508(12) 0.0841(11) 0.0761(8)
H27 H -0.0027 0.0321 0.0903
H28 H 0.0873 0.0690 0.0284
H29 H 0.0175 0.1369 0.0651
C25 C 0.5218(8) 0.1932(10) 0.1715(10)
H30 H 0.5580 0.2527 0.1519
H31 H 0.5344 0.1917 0.2299
C26 C 0.5656(16) 0.1222(13) 0.1342(14)
H32 H 0.6405 0.1304 0.1472
H33 H 0.5557 0.1247 0.0762
H34 H 0.5306 0.0631 0.1537
C27 C 0.9432(4) 0.4417(4) 0.6469(3)
C28 C 0.9083(5) 0.4144(4) 0.7296(4)
C29 C 0.9828(6) 0.4100(4) 0.7900(4)
H35 H 1.0552 0.4217 0.7784
C30 C 0.9493(6) 0.3877(5) 0.8686(4)
C31 C 0.8437(7) 0.3737(5) 0.8861(4)
C32 C 0.7678(6) 0.3805(6) 0.8248(5)
C33 C 0.7998(6) 0.3979(5) 0.7460(4)
H36 H 0.7496 0.3985 0.7043
C34 C 1.1267(8) 0.4075(8) 0.9254(5)
H37 H 1.1425 0.4726 0.9108
H38 H 1.1525 0.3719 0.8824
C35 C 1.1814(9) 0.3934(8) 1.0025(6)
H39 H 1.2570 0.4129 0.9967
H40 H 1.1665 0.3288 1.0164
H41 H 1.1564 0.4293 1.0448
C36 C 0.7557(13) 0.2732(10) 0.9853(8)
H42 H 0.6883 0.2646 0.9553
H43 H 0.7394 0.2742 1.0429
C37 C 0.8044(18) 0.1954(12) 0.9702(14)
H44 H 0.7568 0.1398 0.9852
H45 H 0.8694 0.2009 1.0017
H46 H 0.8201 0.1926 0.9133
C38 C 0.6016(8) 0.4310(9) 0.8202(8)
H47 H 0.5846 0.4202 0.7628
H48 H 0.6422 0.4934 0.8263
C39 C 0.5044(10) 0.4245(11) 0.8642(9)
H49 H 0.4639 0.4689 0.8433
H50 H 0.5206 0.4371 0.9209
H51 H 0.4634 0.3631 0.8579
C40 C 0.9544(4) 0.6621(4) 0.5391(3)
C41 C 0.9326(5) 0.7555(4) 0.5620(4)
C42 C 1.0103(6) 0.8153(4) 0.6065(4)
H52 H 1.0750 0.7976 0.6202
C43 C 0.9903(7) 0.9014(5) 0.6302(4)
C44 C 0.8944(7) 0.9275(5) 0.6101(5)
C45 C 0.8179(6) 0.8668(5) 0.5684(5)
C46 C 0.8356(5) 0.7800(4) 0.5433(4)
H53 H 0.7832 0.7396 0.5146
C47 C 1.1553(8) 0.9412(7) 0.7069(6)
H54 H 1.1761 0.9786 0.7555
H55 H 1.1407 0.8765 0.7230
C48 C 1.2431(9) 0.9550(8) 0.6502(7)
H56 H 1.3051 0.9377 0.6756
H57 H 1.2235 0.9173 0.6024
H58 H 1.2588 1.0192 0.6350
C49 C 0.8982(8) 1.0820(5) 0.5731(6)
H59 H 0.9750 1.1000 0.5688
H60 H 0.8705 1.0564 0.5209
C50 C 0.8527(10) 1.1637(6) 0.5908(7)
H61 H 0.8704 1.2083 0.5483
H62 H 0.7765 1.1466 0.5940
H63 H 0.8810 1.1903 0.6419
C51 C 0.6374(7) 0.8389(6) 0.5296(7)
H64 H 0.6480 0.8188 0.4744
H65 H 0.6261 0.7844 0.5640
C52 C 0.5427(8) 0.8838(8) 0.5316(8)
H66 H 0.4811 0.8406 0.5131
H67 H 0.5319 0.9032 0.5864
H68 H 0.5534 0.9370 0.4967
Ru1A Ru 0.42355(4) 0.52677(3) 0.51496(3)
Ru2A Ru 1.08566(3) 0.52244(3) 0.52310(3)
O2A O 0.5321(3) 0.3657(3) 0.5612(2)
O7A O 0.6526(3) 0.5447(3) 0.5809(2)
O12A O 0.9597(3) 0.5248(3) 0.3648(2)
O17A O 0.9520(3) 0.3529(2) 0.4480(2)
O21 O 1.276(2) 0.503(2) 0.7509(13)
loop_
_geom_bond_atom_site_label_1
_geom_bond_atom_site_label_2
_geom_bond_site_symmetry_1
_geom_bond_site_symmetry_2
Ru1 Cl1 1_555 1_555
Ru2 Cl1 1_555 1_555
O1 Ru1 1_555 1_555
O2 C1 1_555 1_555
O3 C4 1_555 1_555
O4 C5 1_555 1_555
O5 C6 1_555 1_555
O6 Ru1 1_555 1_555
O7 C14 1_555 1_555
O8 C17 1_555 1_555
O9 C18 1_555 1_555
O10 C19 1_555 1_555
O11 Ru2 1_555 1_555
O12 C27 1_555 1_555
O13 C30 1_555 1_555
O14 C31 1_555 1_555
O15 C32 1_555 1_555
O16 Ru2 1_555 1_555
O17 C40 1_555 1_555
O18 C43 1_555 1_555
O19 C44 1_555 1_555
O20 C45 1_555 1_555
C1 O1 1_555 1_555
C2 C1 1_555 1_555
C3 C2 1_555 1_555
H1 C3 1_555 1_555
C4 C3 1_555 1_555
C5 C4 1_555 1_555
C6 C5 1_555 1_555
C7 C2 1_555 1_555
H2 C7 1_555 1_555
C8 O3 1_555 1_555
H3 C8 1_555 1_555
H4 C8 1_555 1_555
C9 C8 1_555 1_555
H5 C9 1_555 1_555
H6 C9 1_555 1_555
H7 C9 1_555 1_555
C10 O4 1_555 1_555
H8 C10 1_555 1_555
H9 C10 1_555 1_555
C11 C10 1_555 1_555
H10 C11 1_555 1_555
H11 C11 1_555 1_555
H12 C11 1_555 1_555
C12 O5 1_555 1_555
H13 C12 1_555 1_555
H14 C12 1_555 1_555
C13 C12 1_555 1_555
H15 C13 1_555 1_555
H16 C13 1_555 1_555
H17 C13 1_555 1_555
C14 O6 1_555 1_555
C15 C14 1_555 1_555
C16 C15 1_555 1_555
H18 C16 1_555 1_555
C17 C16 1_555 1_555
C18 C17 1_555 1_555
C19 C18 1_555 1_555
C20 C15 1_555 1_555
H19 C20 1_555 1_555
C21 O8 1_555 1_555
H20 C21 1_555 1_555
H21 C21 1_555 1_555
C22 C21 1_555 1_555
H22 C22 1_555 1_555
H23 C22 1_555 1_555
H24 C22 1_555 1_555
C23 O9 1_555 1_555
H25 C23 1_555 1_555
H26 C23 1_555 1_555
C24 C23 1_555 1_555
H27 C24 1_555 1_555
H28 C24 1_555 1_555
H29 C24 1_555 1_555
C25 O10 1_555 1_555
H30 C25 1_555 1_555
H31 C25 1_555 1_555
C26 C25 1_555 1_555
H32 C26 1_555 1_555
H33 C26 1_555 1_555
H34 C26 1_555 1_555
C27 O11 1_555 1_555
C28 C27 1_555 1_555
C29 C28 1_555 1_555
H35 C29 1_555 1_555
C30 C29 1_555 1_555
C31 C30 1_555 1_555
C32 C31 1_555 1_555
C33 C28 1_555 1_555
H36 C33 1_555 1_555
C34 O13 1_555 1_555
H37 C34 1_555 1_555
H38 C34 1_555 1_555
C35 C34 1_555 1_555
H39 C35 1_555 1_555
H40 C35 1_555 1_555
H41 C35 1_555 1_555
C36 O14 1_555 1_555
H42 C36 1_555 1_555
H43 C36 1_555 1_555
C37 C36 1_555 1_555
H44 C37 1_555 1_555
H45 C37 1_555 1_555
H46 C37 1_555 1_555
C38 O15 1_555 1_555
H47 C38 1_555 1_555
H48 C38 1_555 1_555
C39 C38 1_555 1_555
H49 C39 1_555 1_555
H50 C39 1_555 1_555
H51 C39 1_555 1_555
C40 O16 1_555 1_555
C41 C40 1_555 1_555
C42 C41 1_555 1_555
H52 C42 1_555 1_555
C43 C42 1_555 1_555
C44 C43 1_555 1_555
C45 C44 1_555 1_555
C46 C41 1_555 1_555
H53 C46 1_555 1_555
C47 O18 1_555 1_555
H54 C47 1_555 1_555
H55 C47 1_555 1_555
C48 C47 1_555 1_555
H56 C48 1_555 1_555
H57 C48 1_555 1_555
H58 C48 1_555 1_555
C49 O19 1_555 1_555
H59 C49 1_555 1_555
H60 C49 1_555 1_555
C50 C49 1_555 1_555
H61 C50 1_555 1_555
H62 C50 1_555 1_555
H63 C50 1_555 1_555
C51 O20 1_555 1_555
H64 C51 1_555 1_555
H65 C51 1_555 1_555
C52 C51 1_555 1_555
H66 C52 1_555 1_555
H67 C52 1_555 1_555
H68 C52 1_555 1_555
Ru1A Ru1 1_555 1_555
Ru2A Ru2 1_555 1_555
O2A Ru1 1_555 1_555
O7A Ru1 1_555 1_555
O12A Ru2 1_555 1_555
O17A Ru2 1_555 1_555
O2 Ru1A 1_555 1_555
O7 Ru1A 1_555 1_555
O12 Ru2A 1_555 1_555
O17 Ru2A 1_555 1_555
C6 C7 1_555 1_555
C19 C20 1_555 1_555
C32 C33 1_555 1_555
C45 C46 1_555 1_555

#END
