
#######################################################################
#
#                 Cambridge Crystallographic Data Centre
#                                CCDC 
#
#######################################################################
#
# If this CIF has been generated from an entry in the Cambridge 
# Structural Database, then it will include bibliographic, chemical, 
# crystal, experimental, refinement or atomic coordinate data resulting 
# from the CCDC's data processing and validation procedures.
#
#######################################################################

data_GUMHUT
_symmetry_cell_setting           monoclinic
_symmetry_space_group_name_H-M   'P 21/c'
_symmetry_Int_Tables_number      14
_space_group_name_Hall           '-P 2ybc'
loop_
_symmetry_equiv_pos_site_id
_symmetry_equiv_pos_as_xyz
1 x,y,z
2 -x,1/2+y,1/2-z
3 -x,-y,-z
4 x,1/2-y,1/2+z
_cell_length_a                   15.071(3)
_cell_length_b                   8.0554(16)
_cell_length_c                   7.6086(15)
_cell_angle_alpha                90
_cell_angle_beta                 103.12(3)
_cell_angle_gamma                90
_cell_volume                     899.595
loop_
_atom_site_label
_atom_site_type_symbol
_atom_site_fract_x
_atom_site_fract_y
_atom_site_fract_z
C1 C -0.01437(9) 0.85927(19) 0.20297(19)
H1 H -0.0585 0.8600 0.0954
Ca1 Ca 0.123038(15) 0.60532(3) 0.03517(3)
S1 S 0.27016(2) 0.54184(4) 0.46491(4)
O1 O 0.26165(7) 0.39611(13) 0.57301(14)
O2 O -0.03370(7) 0.91779(15) 0.34096(15)
O3 O 0.24138(7) 0.50686(15) 0.27300(14)
O4 O 0.18950(10) 0.40188(14) -0.11386(16)
H2 H 0.2148 0.3103 -0.0403
H3 H 0.2084 0.4107 -0.2241
O5 O 0.06180(7) 0.79991(15) 0.20399(16)
O6 O 0.22493(7) 0.68550(14) 0.51890(18)
C2 C 0.38729(8) 0.59429(16) 0.50737(17)
C3 C 0.45320(8) 0.47605(16) 0.47799(16)
C4 C 0.50494(9) 0.79620(18) 0.6115(2)
H4 H 0.5216 0.9028 0.6532
C5 C 0.42959(9) 0.31379(17) 0.40928(18)
H5 H 0.3686 0.2824 0.3781
C6 C 0.41227(9) 0.75075(17) 0.57071(19)
H6 H 0.3682 0.8265 0.5867
S1B S 0.72984(2) 0.45816(4) 0.53509(4)
O1B O 0.73835(7) 0.60389(13) 0.42699(14)
O3B O 0.75862(7) 0.49314(15) 0.72700(14)
C2B C 0.61271(8) 0.40571(16) 0.49263(17)
C3B C 0.54680(8) 0.52395(16) 0.52201(16)
C4B C 0.49506(9) 0.20380(18) 0.3885(2)
H4B H 0.4784 0.0972 0.3468
C5B C 0.57041(9) 0.68621(17) 0.59072(18)
H5B H 0.6314 0.7176 0.6219
C6B C 0.58773(9) 0.24925(17) 0.42929(19)
H6B H 0.6318 0.1735 0.4133
O6B O 0.77507(7) 0.31450(14) 0.48110(18)
C1B C 1.01437(9) 0.14073(19) 0.79703(19)
H1B H 1.0585 0.1400 0.9046
Ca1B Ca 0.876962(15) 0.39468(3) 0.96483(3)
O2B O 1.03370(7) 0.08221(15) 0.65904(15)
O4B O 0.81050(10) 0.59812(14) 1.11386(16)
H2B H 0.7852 0.6897 1.0403
H3B H 0.7916 0.5893 1.2241
O5B O 0.93820(7) 0.20009(15) 0.79601(16)
Ca1A Ca -0.123038(15) 1.10532(3) 0.46483(3)
Ca1A_2 Ca 0.876962(15) 0.10532(3) 0.46483(3)
Ca1C Ca 0.123038(15) 0.89468(3) 0.53517(3)
Ca1C_2 Ca 1.123038(15) -0.10532(3) 0.53517(3)
O2A O 0.03370(7) 0.41779(15) 0.15904(15)
O2A_2 O 1.03370(7) 0.41779(15) 1.15904(15)
O2C O -0.03370(7) 0.58221(15) -0.15904(15)
O2C_2 O 0.96630(7) 0.58221(15) 0.84096(15)
O5A O 0.93820(7) 0.29991(15) 1.29601(16)
O5C O 0.06180(7) 0.70009(15) -0.29601(16)
O6A O 0.77507(7) 0.18550(14) 0.98110(18)
O6C O 0.22493(7) 0.81450(14) 0.01890(18)
loop_
_geom_bond_atom_site_label_1
_geom_bond_atom_site_label_2
_geom_bond_site_symmetry_1
_geom_bond_site_symmetry_2
C1 H1 1_555 1_555
Ca1 O3 1_555 1_555
S1 O1 1_555 1_555
O2 C1 1_555 1_555
O3 S1 1_555 1_555
O4 Ca1 1_555 1_555
H2 O4 1_555 1_555
H3 O4 1_555 1_555
O5 C1 1_555 1_555
O6 S1 1_555 1_555
C2 S1 1_555 1_555
C3 C2 1_555 1_555
C4 H4 1_555 1_555
C5 C3 1_555 1_555
H5 C5 1_555 1_555
C6 C2 1_555 1_555
H6 C6 1_555 1_555
S1B O1B 1_555 1_555
O3B S1B 1_555 1_555
C2B S1B 1_555 1_555
C3B C3 1_555 1_555
C4B C5 1_555 1_555
H4B C4B 1_555 1_555
C5B C4 1_555 1_555
H5B C5B 1_555 1_555
C6B C2B 1_555 1_555
H6B C6B 1_555 1_555
O6B S1B 1_555 1_555
C1B H1B 1_555 1_555
Ca1B O3B 1_555 1_555
O2B C1B 1_555 1_555
O4B Ca1B 1_555 1_555
H2B O4B 1_555 1_555
H3B O4B 1_555 1_555
O5B C1B 1_555 1_555
Ca1A O2 1_555 1_555
Ca1A_2 O6B 1_555 1_555
Ca1C O2 1_555 1_555
Ca1C_2 O2B 1_555 1_555
O2A Ca1 1_555 1_555
O2A_2 Ca1B 1_555 1_555
O2C Ca1 1_555 1_555
O2C_2 Ca1B 1_555 1_555
O5A Ca1B 1_555 1_555
O5C Ca1 1_555 1_555
O6A Ca1B 1_555 1_555
O6C Ca1 1_555 1_555
Ca1 O5 1_555 1_555
O5 Ca1C 1_555 1_555
O6 Ca1C 1_555 1_555
C4 C6 1_555 1_555
C2B C3B 1_555 1_555
C3B C5B 1_555 1_555
C4B C6B 1_555 1_555
Ca1B O5B 1_555 1_555
O2B Ca1A_2 1_555 1_555
O5B Ca1A_2 1_555 1_555

#END
