
#######################################################################
#
#                 Cambridge Crystallographic Data Centre
#                                CCDC 
#
#######################################################################
#
# If this CIF has been generated from an entry in the Cambridge 
# Structural Database, then it will include bibliographic, chemical, 
# crystal, experimental, refinement or atomic coordinate data resulting 
# from the CCDC's data processing and validation procedures.
#
#######################################################################

data_GUMXUJ
_symmetry_cell_setting           monoclinic
_symmetry_space_group_name_H-M   'P 21/c'
_symmetry_Int_Tables_number      14
_space_group_name_Hall           '-P 2ybc'
loop_
_symmetry_equiv_pos_site_id
_symmetry_equiv_pos_as_xyz
1 x,y,z
2 -x,1/2+y,1/2-z
3 -x,-y,-z
4 x,1/2-y,1/2+z
_cell_length_a                   10.615(9)
_cell_length_b                   10.977(9)
_cell_length_c                   7.899(6)
_cell_angle_alpha                90
_cell_angle_beta                 91.677(12)
_cell_angle_gamma                90
_cell_volume                     920.004
loop_
_atom_site_label
_atom_site_type_symbol
_atom_site_fract_x
_atom_site_fract_y
_atom_site_fract_z
Cu1 Cu 0.57367(6) 0.55731(5) 0.17195(6)
S1 S 0.63095(11) 0.96171(9) 0.37635(13)
S2 S 0.73327(13) 0.28213(11) 0.55080(14)
N1 N 0.5843(4) 0.7238(3) 0.2578(4)
N2 N 0.6787(3) 0.4486(3) 0.3313(4)
C1 C 0.8082(4) 0.4313(3) 0.3257(5)
C2 C 0.8556(5) 0.3422(4) 0.4370(5)
C3 C 0.6295(4) 0.3772(4) 0.4443(5)
C4 C 0.9832(5) 0.3158(5) 0.4456(6)
H1 H 1.0141 0.2557 0.5187
C5 C 1.0633(5) 0.3791(5) 0.3453(6)
H2 H 1.1493 0.3627 0.3512
C6 C 0.8906(5) 0.4951(4) 0.2237(5)
H3 H 0.8607 0.5550 0.1497
C7 C 1.0167(5) 0.4676(5) 0.2347(6)
H4 H 1.0722 0.5092 0.1665
C8 C 0.6024(4) 0.8196(4) 0.3089(5)
Cu1A Cu 0.42633(6) 1.05731(5) 0.32805(6)
Cu1C Cu 0.57367(6) 0.94269(5) 0.67195(6)
S1A S 0.36905(11) 0.46171(9) 0.12365(13)
S1C S 0.63095(11) 0.53829(9) -0.12365(13)
loop_
_geom_bond_atom_site_label_1
_geom_bond_atom_site_label_2
_geom_bond_site_symmetry_1
_geom_bond_site_symmetry_2
Cu1 N1 1_555 1_555
S1 C8 1_555 1_555
S2 C2 1_555 1_555
N1 C8 1_555 1_555
N2 Cu1 1_555 1_555
C1 N2 1_555 1_555
C2 C1 1_555 1_555
C3 S2 1_555 1_555
C4 C2 1_555 1_555
H1 C4 1_555 1_555
C5 C4 1_555 1_555
H2 C5 1_555 1_555
C6 C1 1_555 1_555
H3 C6 1_555 1_555
C7 C5 1_555 1_555
H4 C7 1_555 1_555
Cu1A S1 1_555 1_555
Cu1C S1 1_555 1_555
S1A Cu1 1_555 1_555
S1C Cu1 1_555 1_555
N2 C3 1_555 1_555
C6 C7 1_555 1_555

#END
