
#######################################################################
#
#                 Cambridge Crystallographic Data Centre
#                                CCDC 
#
#######################################################################
#
# If this CIF has been generated from an entry in the Cambridge 
# Structural Database, then it will include bibliographic, chemical, 
# crystal, experimental, refinement or atomic coordinate data resulting 
# from the CCDC's data processing and validation procedures.
#
#######################################################################

data_GUNCEZ
_symmetry_cell_setting           triclinic
_symmetry_space_group_name_H-M   'P -1'
_symmetry_Int_Tables_number      2
_space_group_name_Hall           '-P 1'
loop_
_symmetry_equiv_pos_site_id
_symmetry_equiv_pos_as_xyz
1 x,y,z
2 -x,-y,-z
_cell_length_a                   9.6394(7)
_cell_length_b                   10.0132(7)
_cell_length_c                   10.2337(7)
_cell_angle_alpha                97.073(2)
_cell_angle_beta                 91.002(2)
_cell_angle_gamma                117.1070(10)
_cell_volume                     869.546
loop_
_atom_site_label
_atom_site_type_symbol
_atom_site_fract_x
_atom_site_fract_y
_atom_site_fract_z
Cu1 Cu 0.32650(4) 1.00950(3) 0.37359(3)
C1 C 0.2004(3) 1.1140(3) 0.2107(3)
C2 C 0.1789(4) 1.2010(4) 0.1075(4)
H1 H 0.2400 1.3087 0.1383
H2 H 0.2201 1.1778 0.0268
C3 C 0.0184(5) 1.1679(4) 0.0775(4)
C4 C 0.2712(3) 0.8278(3) 0.5793(3)
C5 C 0.1622(4) 0.7021(4) 0.6538(3)
H3 H 0.1890 0.6194 0.6406
H4 H 0.1807 0.7409 0.7475
C6 C -0.0032(4) 0.6426(4) 0.6150(3)
C7 C 0.1918(3) 0.7070(3) 0.2129(3)
H5 H 0.1164 0.6844 0.2735
C8 C 0.1760(3) 0.5958(3) 0.1126(3)
H6 H 0.0905 0.5001 0.1065
C9 C 0.2859(3) 0.6240(3) 0.0200(3)
C10 C 0.4098(3) 0.7706(3) 0.0349(3)
H7 H 0.4864 0.7964 -0.0247
C11 C 0.4184(3) 0.8768(3) 0.1379(3)
H8 H 0.5021 0.9738 0.1460
C12 C 0.2675(3) 0.5033(3) -0.0858(3)
H9 H 0.1770 0.4114 -0.0909
C13 C 0.3688(3) 0.5134(3) -0.1750(3)
H10 H 0.4570 0.6067 -0.1720
C14 C 0.3546(3) 0.3919(3) -0.2774(3)
C15 C 0.2237(3) 0.2510(3) -0.3041(3)
H11 H 0.1379 0.2291 -0.2545
C16 C 0.2206(3) 0.1442(3) -0.4031(3)
H12 H 0.1316 0.0507 -0.4189
C17 C 0.4653(3) 0.3032(3) -0.4540(3)
H13 H 0.5488 0.3225 -0.5058
C18 C 0.4772(3) 0.4159(3) -0.3557(3)
H14 H 0.5677 0.5083 -0.3419
N1 N 0.3121(3) 0.8474(2) 0.2270(2)
N2 N 0.3399(3) 0.1680(2) -0.4785(2)
N3 N -0.1320(4) 0.5930(4) 0.5875(4)
N4 N -0.1068(5) 1.1421(5) 0.0545(4)
O1 O 0.3413(2) 1.1462(2) 0.23991(18)
O2 O 0.0879(2) 1.0219(3) 0.2576(2)
O3 O 0.2107(2) 0.8492(2) 0.48074(18)
O4 O 0.4081(2) 0.8933(3) 0.6225(2)
Cu1_2 Cu 0.32650(4) 0.00950(3) -0.62641(3)
Cu1A Cu 0.67350(4) 0.99050(3) 0.62641(3)
N2_2 N 0.3399(3) 1.1680(2) 0.5215(2)
O4A O 0.5919(2) 1.1067(3) 0.3775(2)
loop_
_geom_bond_atom_site_label_1
_geom_bond_atom_site_label_2
_geom_bond_site_symmetry_1
_geom_bond_site_symmetry_2
Cu1 N1 1_555 1_555
C1 C2 1_555 1_555
C2 H1 1_555 1_555
H2 C2 1_555 1_555
C3 C2 1_555 1_555
C4 C5 1_555 1_555
C5 H3 1_555 1_555
H4 C5 1_555 1_555
C6 C5 1_555 1_555
C7 H5 1_555 1_555
C8 C7 1_555 1_555
H6 C8 1_555 1_555
C9 C8 1_555 1_555
C10 C9 1_555 1_555
H7 C10 1_555 1_555
C11 C10 1_555 1_555
H8 C11 1_555 1_555
C12 C9 1_555 1_555
H9 C12 1_555 1_555
C13 C12 1_555 1_555
H10 C13 1_555 1_555
C14 C13 1_555 1_555
C15 C14 1_555 1_555
H11 C15 1_555 1_555
C16 C15 1_555 1_555
H12 C16 1_555 1_555
C17 H13 1_555 1_555
C18 C14 1_555 1_555
H14 C18 1_555 1_555
N1 C7 1_555 1_555
N2 C16 1_555 1_555
N3 C6 1_555 1_555
N4 C3 1_555 1_555
O1 Cu1 1_555 1_555
O2 Cu1 1_555 1_555
O3 Cu1 1_555 1_555
O4 C4 1_555 1_555
Cu1_2 N2 1_555 1_555
Cu1A O4 1_555 1_555
N2_2 Cu1 1_555 1_555
O4A Cu1 1_555 1_555
C1 O1 1_555 1_555
C1 O2 1_555 1_555
C4 O3 1_555 1_555
C11 N1 1_555 1_555
C17 C18 1_555 1_555
C17 N2 1_555 1_555

#END
