
#######################################################################
#
#                 Cambridge Crystallographic Data Centre
#                                CCDC 
#
#######################################################################
#
# If this CIF has been generated from an entry in the Cambridge 
# Structural Database, then it will include bibliographic, chemical, 
# crystal, experimental, refinement or atomic coordinate data resulting 
# from the CCDC's data processing and validation procedures.
#
#######################################################################

data_GUNFAW01
_symmetry_cell_setting           cubic
_symmetry_space_group_name_H-M   'P 21 3'
_symmetry_Int_Tables_number      198
_space_group_name_Hall           'P 2ac 2ab 3'
loop_
_symmetry_equiv_pos_site_id
_symmetry_equiv_pos_as_xyz
1 x,y,z
2 y,z,x
3 z,x,y
4 1/2+x,1/2-y,-z
5 1/2+y,1/2-z,-x
6 1/2+z,1/2-x,-y
7 -y,1/2+z,1/2-x
8 -z,1/2+x,1/2-y
9 1/2-z,-x,1/2+y
10 1/2-x,-y,1/2+z
11 1/2-y,-z,1/2+x
12 -x,1/2+y,1/2-z
_cell_length_a                   15.4901(12)
_cell_length_b                   15.4901(12)
_cell_length_c                   15.4901(12)
_cell_angle_alpha                90
_cell_angle_beta                 90
_cell_angle_gamma                90
_cell_volume                     3716.74
loop_
_atom_site_label
_atom_site_type_symbol
_atom_site_fract_x
_atom_site_fract_y
_atom_site_fract_z
Ru1 Ru 0.12408(8) 0.12408(8) 0.12408(8)
N1 N 0.123(1) 0.1355(8) -0.0075(8)
N2 N 0.1248(9) 0.2543(8) 0.1106(7)
C3 C 0.122(1) 0.072(1) -0.064(1)
C4 C 0.121(2) 0.084(1) -0.158(1)
C5 C 0.117(2) 0.167(1) -0.184(1)
C6 C 0.120(1) 0.235(1) -0.127(1)
C7 C 0.124(1) 0.219(1) -0.039(1)
C8 C 0.125(1) 0.2857(9) 0.0293(9)
C9 C 0.126(1) 0.372(1) 0.0102(9)
C10 C 0.129(1) 0.432(1) 0.077(1)
C11 C 0.132(1) 0.403(1) 0.159(1)
C12 C 0.124(1) 0.314(1) 0.177(1)
H1 H 0.1259 0.0119 -0.0406
H2 H 0.1203 0.0328 -0.1979
H3 H 0.1124 0.1797 -0.2483
H4 H 0.1215 0.2975 -0.1490
H5 H 0.1238 0.3922 -0.0516
H6 H 0.1316 0.4970 0.0639
H7 H 0.1383 0.4460 0.2074
H8 H 0.1205 0.2932 0.2387
N1A N 0.1355(8) -0.0075(8) 0.123(1)
N2A N 0.2543(8) 0.1106(7) 0.1248(9)
C3A C 0.072(1) -0.064(1) 0.122(1)
C4A C 0.084(1) -0.158(1) 0.121(2)
C5A C 0.167(1) -0.184(1) 0.117(2)
C6A C 0.235(1) -0.127(1) 0.120(1)
C7A C 0.219(1) -0.039(1) 0.124(1)
C8A C 0.2857(9) 0.0293(9) 0.125(1)
C9A C 0.372(1) 0.0102(9) 0.126(1)
C10A C 0.432(1) 0.077(1) 0.129(1)
C11A C 0.403(1) 0.159(1) 0.132(1)
C12A C 0.314(1) 0.177(1) 0.124(1)
H1A H 0.0119 -0.0406 0.1259
H2A H 0.0328 -0.1979 0.1203
H3A H 0.1797 -0.2483 0.1124
H4A H 0.2975 -0.1490 0.1215
H5A H 0.3922 -0.0516 0.1238
H6A H 0.4970 0.0639 0.1316
H7A H 0.4460 0.2074 0.1383
H8A H 0.2932 0.2387 0.1205
N1B N -0.0075(8) 0.123(1) 0.1355(8)
N2B N 0.1106(7) 0.1248(9) 0.2543(8)
C3B C -0.064(1) 0.122(1) 0.072(1)
C4B C -0.158(1) 0.121(2) 0.084(1)
C5B C -0.184(1) 0.117(2) 0.167(1)
C6B C -0.127(1) 0.120(1) 0.235(1)
C7B C -0.039(1) 0.124(1) 0.219(1)
C8B C 0.0293(9) 0.125(1) 0.2857(9)
C9B C 0.0102(9) 0.126(1) 0.372(1)
C10B C 0.077(1) 0.129(1) 0.432(1)
C11B C 0.159(1) 0.132(1) 0.403(1)
C12B C 0.177(1) 0.124(1) 0.314(1)
H1B H -0.0406 0.1259 0.0119
H2B H -0.1979 0.1203 0.0328
H3B H -0.2483 0.1124 0.1797
H4B H -0.1490 0.1215 0.2975
H5B H -0.0516 0.1238 0.3922
H6B H 0.0639 0.1316 0.4970
H7B H 0.2074 0.1383 0.4460
H8B H 0.2387 0.1205 0.2932
Cr1 Cr 0.4027(2) 0.5973(2) 0.0973(2)
Mn1 Mn 0.1465(2) 0.6465(2) -0.1465(2)
O1 O 0.1579(8) 0.6342(8) -0.0203(7)
O2 O 0.2740(8) 0.6407(9) -0.1433(8)
O3 O 0.2600(7) 0.6127(9) 0.0802(8)
O4 O 0.3820(9) 0.6104(8) -0.0474(7)
C1 C 0.237(1) 0.622(1) 0.007(1)
C2 C 0.305(1) 0.625(1) -0.066(1)
O1F O 0.3658(8) 0.4797(7) 0.3421(8)
O2F O 0.3593(9) 0.3567(8) 0.2260(8)
O3F O 0.3873(9) 0.5802(8) 0.2400(7)
O4F O 0.3896(8) 0.4526(7) 0.1180(9)
C1F C 0.378(1) 0.507(1) 0.263(1)
C2F C 0.375(1) 0.434(1) 0.195(1)
O1H O 0.5203(7) 0.8421(8) 0.1342(8)
O2H O 0.6433(8) 0.7260(8) 0.1407(9)
O3H O 0.4198(8) 0.7400(7) 0.1127(9)
O4H O 0.5474(7) 0.6180(9) 0.1104(8)
C1H C 0.493(1) 0.763(1) 0.122(1)
C2H C 0.566(1) 0.695(1) 0.125(1)
O1D O 0.1342(8) 0.5203(7) -0.1579(8)
O1G O 0.0203(7) 0.6579(8) -0.1342(8)
O2D O 0.1407(9) 0.6433(8) -0.2740(8)
O2G O 0.1433(8) 0.7740(8) -0.1407(9)
Mn1E Mn 0.3535(2) 0.3535(2) 0.3535(2)
Mn1A Mn 0.6465(2) 0.8535(2) 0.1465(2)
Cl1 Cl 0.8751(5) 0.3751(5) 0.1249(5)
O5 O 0.8205(8) 0.3205(8) 0.1795(8)
O6 O 0.933(2) 0.316(2) 0.079(2)
O6D O 0.816(2) 0.421(2) 0.067(2)
O6G O 0.921(2) 0.433(2) 0.184(2)
loop_
_geom_bond_atom_site_label_1
_geom_bond_atom_site_label_2
_geom_bond_site_symmetry_1
_geom_bond_site_symmetry_2
Ru1 N1 1_555 1_555
Cr1 O3 1_555 1_555
Mn1 O1 1_555 1_555
O1 C1 1_555 1_555
O2 Mn1 1_555 1_555
O3 C1 1_555 1_555
O4 Cr1 1_555 1_555
N1 C3 1_555 1_555
N2 Ru1 1_555 1_555
C1 C2 1_555 1_555
C2 O2 1_555 1_555
C3 C4 1_555 1_555
C4 C5 1_555 1_555
C5 C6 1_555 1_555
C6 C7 1_555 1_555
C7 N1 1_555 1_555
C8 N2 1_555 1_555
C9 C8 1_555 1_555
C10 C9 1_555 1_555
C11 C10 1_555 1_555
C12 N2 1_555 1_555
Cl1 O5 1_555 1_555
O6 Cl1 1_555 1_555
H1 C3 1_555 1_555
H2 C4 1_555 1_555
H3 C5 1_555 1_555
H4 C6 1_555 1_555
H5 C9 1_555 1_555
H6 C10 1_555 1_555
H7 C11 1_555 1_555
H8 C12 1_555 1_555
O6D Cl1 1_555 1_555
O6G Cl1 1_555 1_555
N1A Ru1 1_555 1_555
N2A Ru1 1_555 1_555
C3A N1A 1_555 1_555
C4A C3A 1_555 1_555
C5A C4A 1_555 1_555
C6A C5A 1_555 1_555
C7A N1A 1_555 1_555
C8A N2A 1_555 1_555
C9A C8A 1_555 1_555
C10A C9A 1_555 1_555
C11A C10A 1_555 1_555
C12A N2A 1_555 1_555
H1A C3A 1_555 1_555
H2A C4A 1_555 1_555
H3A C5A 1_555 1_555
H4A C6A 1_555 1_555
H5A C9A 1_555 1_555
H6A C10A 1_555 1_555
H7A C11A 1_555 1_555
H8A C12A 1_555 1_555
N1B Ru1 1_555 1_555
N2B Ru1 1_555 1_555
C3B N1B 1_555 1_555
C4B C3B 1_555 1_555
C5B C4B 1_555 1_555
C6B C5B 1_555 1_555
C7B N1B 1_555 1_555
C8B N2B 1_555 1_555
C9B C8B 1_555 1_555
C10B C9B 1_555 1_555
C11B C10B 1_555 1_555
C12B N2B 1_555 1_555
H1B C3B 1_555 1_555
H2B C4B 1_555 1_555
H3B C5B 1_555 1_555
H4B C6B 1_555 1_555
H5B C9B 1_555 1_555
H6B C10B 1_555 1_555
H7B C11B 1_555 1_555
H8B C12B 1_555 1_555
O1F C1F 1_555 1_555
O2F C2F 1_555 1_555
O3F Cr1 1_555 1_555
O4F Cr1 1_555 1_555
C1F O3F 1_555 1_555
C2F O4F 1_555 1_555
O1H C1H 1_555 1_555
O2H C2H 1_555 1_555
O3H Cr1 1_555 1_555
O4H Cr1 1_555 1_555
C1H O3H 1_555 1_555
C2H O4H 1_555 1_555
O1D Mn1 1_555 1_555
O1G Mn1 1_555 1_555
O2D Mn1 1_555 1_555
O2G Mn1 1_555 1_555
Mn1E O1F 1_555 1_555
Mn1A O1H 1_555 1_555
O4 C2 1_555 1_555
C7 C8 1_555 1_555
C11 C12 1_555 1_555
C6A C7A 1_555 1_555
C7A C8A 1_555 1_555
C11A C12A 1_555 1_555
C6B C7B 1_555 1_555
C7B C8B 1_555 1_555
C11B C12B 1_555 1_555
O2F Mn1E 1_555 1_555
C1F C2F 1_555 1_555
O2H Mn1A 1_555 1_555
C1H C2H 1_555 1_555

#END
