
#######################################################################
#
#                 Cambridge Crystallographic Data Centre
#                                CCDC 
#
#######################################################################
#
# If this CIF has been generated from an entry in the Cambridge 
# Structural Database, then it will include bibliographic, chemical, 
# crystal, experimental, refinement or atomic coordinate data resulting 
# from the CCDC's data processing and validation procedures.
#
#######################################################################

data_GUNRUC
_symmetry_cell_setting           orthorhombic
_symmetry_space_group_name_H-M   'P b c a'
_symmetry_Int_Tables_number      61
_space_group_name_Hall           '-P 2ac 2ab'
loop_
_symmetry_equiv_pos_site_id
_symmetry_equiv_pos_as_xyz
1 x,y,z
2 1/2+x,y,1/2-z
3 x,1/2-y,1/2+z
4 1/2-x,1/2+y,z
5 -x,-y,-z
6 1/2-x,-y,1/2+z
7 -x,1/2+y,1/2-z
8 1/2+x,1/2-y,-z
_cell_length_a                   7.1145(15)
_cell_length_b                   11.960(3)
_cell_length_c                   43.502(9)
_cell_angle_alpha                90
_cell_angle_beta                 90
_cell_angle_gamma                90
_cell_volume                     3701.56
loop_
_atom_site_label
_atom_site_type_symbol
_atom_site_fract_x
_atom_site_fract_y
_atom_site_fract_z
Na1 Na 0.39187(13) 0.23533(8) 0.50295(2)
O1 O 0.1577(3) 0.37389(15) 0.49370(4)
H1 H 0.167(4) 0.411(3) 0.5093(7)
H2 H 0.195(5) 0.411(3) 0.4800(8)
N1 N 0.4321(3) 0.48891(16) 0.45493(4)
S1 S 0.62983(8) 0.42907(5) 0.450503(12)
S2 S 0.37840(8) 0.61006(5) 0.442897(12)
O2 O 0.6233(2) 0.33343(14) 0.47067(4)
O3 O 0.7897(2) 0.50189(15) 0.45353(4)
O4 O 0.2010(2) 0.63603(14) 0.45713(4)
O5 O 0.5245(3) 0.69233(13) 0.44600(4)
C1 C 0.6411(3) 0.37783(19) 0.41217(5)
C2 C 0.7174(3) 0.4469(2) 0.38982(5)
H3 H 0.7664 0.5181 0.3952
C3 C 0.7212(4) 0.4109(2) 0.35957(5)
H4 H 0.7705 0.4582 0.3440
C4 C 0.6529(3) 0.3054(2) 0.35204(5)
C5 C 0.5796(3) 0.2365(2) 0.37484(5)
H5 H 0.5342 0.1642 0.3696
C6 C 0.5723(3) 0.2727(2) 0.40507(5)
H6 H 0.5211 0.2261 0.4207
C7 C 0.3362(3) 0.5918(2) 0.40288(5)
C8 C 0.4140(4) 0.6639(2) 0.38165(5)
H7 H 0.4807 0.7285 0.3882
C9 C 0.3933(4) 0.6407(2) 0.35050(5)
H8 H 0.4436 0.6905 0.3356
C10 C 0.2994(3) 0.5449(2) 0.34119(5)
C11 C 0.2176(4) 0.4747(2) 0.36290(5)
H9 H 0.1507 0.4101 0.3564
C12 C 0.2333(4) 0.4985(2) 0.39386(5)
H10 H 0.1748 0.4520 0.4087
O6 O 0.7042(4) 0.33071(17) 0.29846(4)
O7 O 0.6319(3) 0.16042(15) 0.31573(4)
C13 C 0.6655(4) 0.2697(2) 0.31918(6)
C14 C 0.6508(5) 0.1184(2) 0.28459(6)
H11 H 0.5509 0.1499 0.2717
H12 H 0.6407 0.0367 0.2847
H13 H 0.7735 0.1403 0.2763
O8 O 0.3543(3) 0.57540(18) 0.28769(4)
O9 O 0.2144(3) 0.41680(17) 0.30307(4)
C15 C 0.2936(4) 0.5169(2) 0.30779(5)
C16 C 0.2098(5) 0.3778(3) 0.27164(6)
H14 H 0.1452 0.4331 0.2588
H15 H 0.1425 0.3064 0.2707
H16 H 0.3386 0.3676 0.2642
Na1C Na 0.10813(13) 0.73533(8) 0.50295(2)
Na1G Na 0.89187(13) 0.26467(8) 0.49705(2)
Na1D Na 0.60813(13) 0.76467(8) 0.49705(2)
Na1G_2 Na -0.10813(13) 0.26467(8) 0.49705(2)
O2G O 0.1233(2) 0.16657(14) 0.52933(4)
O4C O 0.2990(2) 0.13603(14) 0.45713(4)
O1G O 0.6577(3) 0.12611(15) 0.50630(4)
O5D O 0.4755(3) 0.30767(13) 0.55400(4)
H1G H 0.667(4) 0.089(3) 0.4907(7)
H2G H 0.695(5) 0.089(3) 0.5200(8)
loop_
_geom_bond_atom_site_label_1
_geom_bond_atom_site_label_2
_geom_bond_site_symmetry_1
_geom_bond_site_symmetry_2
Na1 O1 1_555 1_555
O1 H1 1_555 1_555
H2 O1 1_555 1_555
N1 S1 1_555 1_555
S1 O2 1_555 1_555
S2 N1 1_555 1_555
O2 Na1 1_555 1_555
O3 S1 1_555 1_555
O4 S2 1_555 1_555
O5 S2 1_555 1_555
C1 S1 1_555 1_555
C2 C1 1_555 1_555
H3 C2 1_555 1_555
C3 C2 1_555 1_555
H4 C3 1_555 1_555
C4 C3 1_555 1_555
C5 C4 1_555 1_555
H5 C5 1_555 1_555
C6 C1 1_555 1_555
H6 C6 1_555 1_555
C7 S2 1_555 1_555
C8 C7 1_555 1_555
H7 C8 1_555 1_555
C9 C8 1_555 1_555
H8 C9 1_555 1_555
C10 C9 1_555 1_555
C11 C10 1_555 1_555
H9 C11 1_555 1_555
C12 C7 1_555 1_555
H10 C12 1_555 1_555
O6 C13 1_555 1_555
O7 C13 1_555 1_555
C13 C4 1_555 1_555
C14 O7 1_555 1_555
H11 C14 1_555 1_555
H12 C14 1_555 1_555
H13 C14 1_555 1_555
O8 C15 1_555 1_555
O9 C15 1_555 1_555
C15 C10 1_555 1_555
C16 O9 1_555 1_555
H14 C16 1_555 1_555
H15 C16 1_555 1_555
H16 C16 1_555 1_555
Na1C O4 1_555 1_555
Na1G O2 1_555 1_555
Na1D O5 1_555 1_555
Na1G_2 O1 1_555 1_555
O2G Na1 1_555 1_555
O4C Na1 1_555 1_555
O1G Na1 1_555 1_555
O5D Na1 1_555 1_555
H1G O1G 1_555 1_555
H2G O1G 1_555 1_555
C5 C6 1_555 1_555
C11 C12 1_555 1_555
Na1G O1G 1_555 1_555
Na1G_2 O2G 1_555 1_555

#END
