
#######################################################################
#
#                 Cambridge Crystallographic Data Centre
#                                CCDC 
#
#######################################################################
#
# If this CIF has been generated from an entry in the Cambridge 
# Structural Database, then it will include bibliographic, chemical, 
# crystal, experimental, refinement or atomic coordinate data resulting 
# from the CCDC's data processing and validation procedures.
#
#######################################################################

data_GUNREO
_symmetry_cell_setting           monoclinic
_symmetry_space_group_name_H-M   'C 2/c'
_symmetry_Int_Tables_number      15
_space_group_name_Hall           '-C 2yn'
loop_
_symmetry_equiv_pos_site_id
_symmetry_equiv_pos_as_xyz
1 x,y,z
2 -x,y,1/2-z
3 1/2+x,1/2+y,z
4 1/2-x,1/2+y,1/2-z
5 -x,-y,-z
6 x,-y,1/2+z
7 1/2-x,1/2-y,-z
8 1/2+x,1/2-y,1/2+z
_cell_length_a                   23.024(4)
_cell_length_b                   12.184(2)
_cell_length_c                   22.374(4)
_cell_angle_alpha                90
_cell_angle_beta                 116.500(2)
_cell_angle_gamma                90
_cell_volume                     5617.01
loop_
_atom_site_label
_atom_site_type_symbol
_atom_site_fract_x
_atom_site_fract_y
_atom_site_fract_z
Sn1 Sn 0.37906(3) 0.76628(5) 0.64281(3)
Sn2 Sn 0.21499(3) 0.75216(5) 0.55116(3)
O1 O 0.3034(3) 0.7568(4) 0.5513(3)
O2 O 0.2875(3) 0.7641(5) 0.6540(3)
O3 O 0.4318(3) 0.7603(5) 0.5821(3)
O4 O 0.5217(3) 0.7815(6) 0.6769(4)
O5 O 0.5029(3) 0.7263(5) 0.5127(3)
C1 C 0.4933(5) 0.7704(7) 0.6164(6)
C2 C 0.5327(5) 0.7741(8) 0.5763(6)
H1 H 0.5422 0.8502 0.5714
H2 H 0.5738 0.7373 0.6020
C3 C 0.5025(4) 0.6144(8) 0.5090(5)
C4 C 0.5181(4) 0.5429(8) 0.5621(5)
H3 H 0.5305 0.5714 0.6047
C5 C 0.4842(4) 0.5704(9) 0.4464(5)
H4 H 0.4734 0.6165 0.4099
C6 C 0.2741(7) 0.8053(17) 0.7085(7)
H5 H 0.2884 0.8810 0.7179
H6 H 0.2276 0.8039 0.6942
C7 C 0.3039(10) 0.7459(16) 0.7647(10)
H7 H 0.2941 0.7761 0.7987
H8 H 0.3499 0.7477 0.7794
H9 H 0.2889 0.6713 0.7560
C8 C 0.4018(4) 0.9310(7) 0.6762(4)
H10 H 0.3680 0.9590 0.6867
H11 H 0.4421 0.9315 0.7171
C9 C 0.4087(5) 1.0075(8) 0.6266(5)
H12 H 0.4433 0.9804 0.6171
H13 H 0.3688 1.0050 0.5853
C10 C 0.4226(6) 1.1239(8) 0.6483(6)
H14 H 0.4633 1.1275 0.6887
H15 H 0.3887 1.1513 0.6588
C11 C 0.4270(7) 1.1975(11) 0.5951(7)
H16 H 0.4357 1.2716 0.6112
H17 H 0.3867 1.1948 0.5551
H18 H 0.4615 1.1721 0.5856
C12 C 0.4091(5) 0.6077(8) 0.6859(6)
H19 H 0.4476 0.5878 0.6810
H20 H 0.4219 0.6138 0.7333
C13 C 0.3643(7) 0.5192(11) 0.6607(9)
H21 H 0.3530 0.5107 0.6137
H22 H 0.3251 0.5402 0.6638
C14 C 0.3851(9) 0.4090(12) 0.6934(11)
H23 H 0.3577 0.3530 0.6633
H24 H 0.4293 0.3951 0.7009
C15 C 0.3820(15) 0.3996(19) 0.7573(10)
H25 H 0.3981 0.3290 0.7767
H26 H 0.3379 0.4076 0.7499
H27 H 0.4081 0.4561 0.7871
C16 C 0.1719(4) 0.9061(9) 0.5481(5)
H28 H 0.1353 0.9147 0.5045
H29 H 0.1550 0.9058 0.5809
C17 C 0.2150(5) 1.0039(9) 0.5610(6)
H30 H 0.2307 1.0059 0.5273
H31 H 0.2525 0.9943 0.6040
C18 C 0.1845(5) 1.1125(10) 0.5611(7)
H32 H 0.1488 1.1242 0.5171
H33 H 0.1662 1.1086 0.5926
C19 C 0.2281(7) 1.2100(12) 0.5783(8)
H34 H 0.2039 1.2749 0.5768
H35 H 0.2456 1.2167 0.5467
H36 H 0.2629 1.2012 0.6224
C20 C 0.1805(5) 0.5917(10) 0.5555(5)
H37 H 0.1398 0.5825 0.5157
H38 H 0.2110 0.5402 0.5519
C21 C 0.1695(6) 0.5561(11) 0.6132(6)
H39 H 0.1586 0.4787 0.6080
H40 H 0.2098 0.5643 0.6536
C22 C 0.1186(5) 0.6154(12) 0.6218(6)
H41 H 0.0778 0.6056 0.5821
H42 H 0.1288 0.6931 0.6261
C23 C 0.1101(7) 0.5784(13) 0.6825(6)
H43 H 0.0753 0.6191 0.6847
H44 H 0.1495 0.5914 0.7223
H45 H 0.1000 0.5015 0.6788
O3D O 0.5682(3) 0.2397(5) 0.4179(3)
O4D O 0.4783(3) 0.2185(6) 0.3231(4)
O5D O 0.4971(3) 0.2737(5) 0.4873(3)
C1D C 0.5067(5) 0.2296(7) 0.3836(6)
C2D C 0.4673(5) 0.2259(8) 0.4237(6)
H1D H 0.4578 0.1498 0.4286
H2D H 0.4262 0.2627 0.3980
C3D C 0.4975(4) 0.3856(8) 0.4910(5)
C4D C 0.4819(4) 0.4571(8) 0.4379(5)
H3D H 0.4695 0.4286 0.3953
C5D C 0.5158(4) 0.4296(9) 0.5536(5)
H4D H 0.5266 0.3835 0.5901
Sn1D Sn 0.62094(3) 0.23372(5) 0.35719(3)
Sn2D Sn 0.78501(3) 0.24784(5) 0.44884(3)
O1D O 0.6966(3) 0.2432(4) 0.4487(3)
O2D O 0.7125(3) 0.2359(5) 0.3460(3)
C6D C 0.7259(7) 0.1947(17) 0.2915(7)
H5D H 0.7116 0.1190 0.2821
H6D H 0.7724 0.1961 0.3058
C7D C 0.6961(10) 0.2541(16) 0.2353(10)
H7D H 0.7059 0.2239 0.2013
H8D H 0.6501 0.2523 0.2206
H9D H 0.7111 0.3287 0.2440
C8D C 0.5982(4) 0.0690(7) 0.3238(4)
H10D H 0.6320 0.0410 0.3133
H11D H 0.5579 0.0685 0.2829
C9D C 0.5913(5) -0.0075(8) 0.3734(5)
H12D H 0.5567 0.0196 0.3829
H13D H 0.6312 -0.0050 0.4147
C10D C 0.5774(6) -0.1239(8) 0.3517(6)
H14D H 0.5367 -0.1275 0.3113
H15D H 0.6113 -0.1513 0.3412
C11D C 0.5730(7) -0.1975(11) 0.4049(7)
H16D H 0.5643 -0.2716 0.3888
H17D H 0.6133 -0.1948 0.4449
H18D H 0.5385 -0.1721 0.4144
C12D C 0.5909(5) 0.3923(8) 0.3141(6)
H19D H 0.5524 0.4122 0.3190
H20D H 0.5781 0.3862 0.2667
C13D C 0.6357(7) 0.4808(11) 0.3393(9)
H21D H 0.6470 0.4893 0.3863
H22D H 0.6749 0.4598 0.3362
C14D C 0.6149(9) 0.5910(12) 0.3066(11)
H23D H 0.6423 0.6470 0.3367
H24D H 0.5707 0.6049 0.2991
C15D C 0.6180(15) 0.6004(19) 0.2427(10)
H25D H 0.6019 0.6710 0.2233
H26D H 0.6621 0.5924 0.2501
H27D H 0.5919 0.5439 0.2129
C16D C 0.8281(4) 0.0939(9) 0.4519(5)
H28D H 0.8647 0.0853 0.4955
H29D H 0.8450 0.0942 0.4191
C17D C 0.7850(5) -0.0039(9) 0.4390(6)
H30D H 0.7693 -0.0059 0.4727
H31D H 0.7475 0.0057 0.3960
C18D C 0.8155(5) -0.1125(10) 0.4389(7)
H32D H 0.8512 -0.1242 0.4829
H33D H 0.8338 -0.1086 0.4074
C19D C 0.7719(7) -0.2100(12) 0.4217(8)
H34D H 0.7961 -0.2749 0.4232
H35D H 0.7544 -0.2167 0.4533
H36D H 0.7371 -0.2012 0.3776
C20D C 0.8195(5) 0.4083(10) 0.4445(5)
H37D H 0.8602 0.4175 0.4843
H38D H 0.7890 0.4598 0.4481
C21D C 0.8305(6) 0.4439(11) 0.3868(6)
H39D H 0.8414 0.5213 0.3920
H40D H 0.7902 0.4357 0.3464
C22D C 0.8814(5) 0.3846(12) 0.3782(6)
H41D H 0.9222 0.3944 0.4179
H42D H 0.8712 0.3069 0.3739
C23D C 0.8899(7) 0.4216(13) 0.3175(6)
H43D H 0.9247 0.3809 0.3153
H44D H 0.8505 0.4086 0.2777
H45D H 0.9000 0.4985 0.3212
Sn2B Sn 0.71499(3) 0.25216(5) 0.55116(3)
Sn2F Sn 0.28501(3) 0.74784(5) 0.44884(3)
O1B O 0.8034(3) 0.2568(4) 0.5513(3)
O1F O 0.1966(3) 0.7432(4) 0.4487(3)
loop_
_geom_bond_atom_site_label_1
_geom_bond_atom_site_label_2
_geom_bond_site_symmetry_1
_geom_bond_site_symmetry_2
Sn1 O1 1_555 1_555
Sn2 O1 1_555 1_555
O1 Sn2F 1_555 1_555
O2 Sn1 1_555 1_555
O3 Sn1 1_555 1_555
O4 C1 1_555 1_555
O5 C2 1_555 1_555
C1 O3 1_555 1_555
C2 C1 1_555 1_555
H1 C2 1_555 1_555
H2 C2 1_555 1_555
C3 O5 1_555 1_555
C4 C3 1_555 1_555
H3 C4 1_555 1_555
C5 C3 1_555 1_555
H4 C5 1_555 1_555
C6 O2 1_555 1_555
H5 C6 1_555 1_555
H6 C6 1_555 1_555
C7 C6 1_555 1_555
H7 C7 1_555 1_555
H8 C7 1_555 1_555
H9 C7 1_555 1_555
C8 Sn1 1_555 1_555
H10 C8 1_555 1_555
H11 C8 1_555 1_555
C9 C8 1_555 1_555
H12 C9 1_555 1_555
H13 C9 1_555 1_555
C10 C9 1_555 1_555
H14 C10 1_555 1_555
H15 C10 1_555 1_555
C11 C10 1_555 1_555
H16 C11 1_555 1_555
H17 C11 1_555 1_555
H18 C11 1_555 1_555
C12 Sn1 1_555 1_555
H19 C12 1_555 1_555
H20 C12 1_555 1_555
C13 C12 1_555 1_555
H21 C13 1_555 1_555
H22 C13 1_555 1_555
C14 C13 1_555 1_555
H23 C14 1_555 1_555
H24 C14 1_555 1_555
C15 C14 1_555 1_555
H25 C15 1_555 1_555
H26 C15 1_555 1_555
H27 C15 1_555 1_555
C16 Sn2 1_555 1_555
H28 C16 1_555 1_555
H29 C16 1_555 1_555
C17 C16 1_555 1_555
H30 C17 1_555 1_555
H31 C17 1_555 1_555
C18 C17 1_555 1_555
H32 C18 1_555 1_555
H33 C18 1_555 1_555
C19 C18 1_555 1_555
H34 C19 1_555 1_555
H35 C19 1_555 1_555
H36 C19 1_555 1_555
C20 Sn2 1_555 1_555
H37 C20 1_555 1_555
H38 C20 1_555 1_555
C21 C20 1_555 1_555
H39 C21 1_555 1_555
H40 C21 1_555 1_555
C22 C21 1_555 1_555
H41 C22 1_555 1_555
H42 C22 1_555 1_555
C23 C22 1_555 1_555
H43 C23 1_555 1_555
H44 C23 1_555 1_555
H45 C23 1_555 1_555
O3D C1D 1_555 1_555
O4D C1D 1_555 1_555
O5D C2D 1_555 1_555
C1D C2D 1_555 1_555
C2D H1D 1_555 1_555
H2D C2D 1_555 1_555
C3D O5D 1_555 1_555
C4D C5 1_555 1_555
H3D C4D 1_555 1_555
C5D C4 1_555 1_555
H4D C5D 1_555 1_555
Sn1D O3D 1_555 1_555
Sn2D O1D 1_555 1_555
O1D Sn1D 1_555 1_555
O2D Sn1D 1_555 1_555
C6D O2D 1_555 1_555
H5D C6D 1_555 1_555
H6D C6D 1_555 1_555
C7D C6D 1_555 1_555
H7D C7D 1_555 1_555
H8D C7D 1_555 1_555
H9D C7D 1_555 1_555
C8D Sn1D 1_555 1_555
H10D C8D 1_555 1_555
H11D C8D 1_555 1_555
C9D C8D 1_555 1_555
H12D C9D 1_555 1_555
H13D C9D 1_555 1_555
C10D C9D 1_555 1_555
H14D C10D 1_555 1_555
H15D C10D 1_555 1_555
C11D C10D 1_555 1_555
H16D C11D 1_555 1_555
H17D C11D 1_555 1_555
H18D C11D 1_555 1_555
C12D Sn1D 1_555 1_555
H19D C12D 1_555 1_555
H20D C12D 1_555 1_555
C13D C12D 1_555 1_555
H21D C13D 1_555 1_555
H22D C13D 1_555 1_555
C14D C13D 1_555 1_555
H23D C14D 1_555 1_555
H24D C14D 1_555 1_555
C15D C14D 1_555 1_555
H25D C15D 1_555 1_555
H26D C15D 1_555 1_555
H27D C15D 1_555 1_555
C16D Sn2D 1_555 1_555
H28D C16D 1_555 1_555
H29D C16D 1_555 1_555
C17D C16D 1_555 1_555
H30D C17D 1_555 1_555
H31D C17D 1_555 1_555
C18D C17D 1_555 1_555
H32D C18D 1_555 1_555
H33D C18D 1_555 1_555
C19D C18D 1_555 1_555
H34D C19D 1_555 1_555
H35D C19D 1_555 1_555
H36D C19D 1_555 1_555
C20D Sn2D 1_555 1_555
H37D C20D 1_555 1_555
H38D C20D 1_555 1_555
C21D C20D 1_555 1_555
H39D C21D 1_555 1_555
H40D C21D 1_555 1_555
C22D C21D 1_555 1_555
H41D C22D 1_555 1_555
H42D C22D 1_555 1_555
C23D C22D 1_555 1_555
H43D C23D 1_555 1_555
H44D C23D 1_555 1_555
H45D C23D 1_555 1_555
Sn2B O1D 1_555 1_555
Sn2F O1F 1_555 1_555
O1B Sn2D 1_555 1_555
O1F Sn2 1_555 1_555
Sn2 O2 1_555 1_555
C3D C4D 1_555 1_555
C3D C5D 1_555 1_555
Sn2D O2D 1_555 1_555
Sn2B O1B 1_555 1_555

#END
