
#######################################################################
#
#                 Cambridge Crystallographic Data Centre
#                                CCDC 
#
#######################################################################
#
# If this CIF has been generated from an entry in the Cambridge 
# Structural Database, then it will include bibliographic, chemical, 
# crystal, experimental, refinement or atomic coordinate data resulting 
# from the CCDC's data processing and validation procedures.
#
#######################################################################

data_GUNYOF
_symmetry_cell_setting           monoclinic
_symmetry_space_group_name_H-M   'C 2/c'
_symmetry_Int_Tables_number      15
_space_group_name_Hall           '-C 2yn'
loop_
_symmetry_equiv_pos_site_id
_symmetry_equiv_pos_as_xyz
1 x,y,z
2 -x,y,1/2-z
3 1/2+x,1/2+y,z
4 1/2-x,1/2+y,1/2-z
5 -x,-y,-z
6 x,-y,1/2+z
7 1/2-x,1/2-y,-z
8 1/2+x,1/2-y,1/2+z
_cell_length_a                   21.3227(17)
_cell_length_b                   8.9380(7)
_cell_length_c                   17.7026(14)
_cell_angle_alpha                90
_cell_angle_beta                 108.786(2)
_cell_angle_gamma                90
_cell_volume                     3194.07
loop_
_atom_site_label
_atom_site_type_symbol
_atom_site_fract_x
_atom_site_fract_y
_atom_site_fract_z
Cd1 Cd 0.078602(8) 0.59196(2) 0.051261(10)
O1 O 0.02917(9) 0.4320(2) -0.04740(12)
N1 N 0.16093(10) 0.5031(2) -0.00241(12)
C1 C 0.06658(12) 0.3633(3) -0.08304(15)
O2 O 0.07278(12) 0.8365(3) 0.00115(15)
N2 N 0.38268(11) 0.9526(3) 0.33083(14)
C2 C 0.04262(14) 0.2538(3) -0.14062(17)
H1 H -0.0023 0.2232 -0.1539
O3 O 0.11625(12) 0.8099(2) 0.12950(14)
C3 C 0.08324(15) 0.1871(4) -0.17987(18)
H2 H 0.0650 0.1129 -0.2192
C4 C 0.14753(15) 0.2258(4) -0.16310(17)
H3 H 0.1736 0.1810 -0.1915
C5 C 0.17572(13) 0.3328(3) -0.10339(15)
C6 C 0.13588(12) 0.4009(3) -0.06222(14)
C7 C 0.24269(15) 0.3764(4) -0.07996(18)
H4 H 0.2711 0.3348 -0.1062
C8 C 0.26721(14) 0.4768(3) -0.02055(17)
H5 H 0.3125 0.5052 -0.0052
C9 C 0.22509(12) 0.5392(3) 0.01853(15)
C10 C 0.24907(13) 0.6448(3) 0.08464(15)
H6 H 0.2168 0.6918 0.1030
C11 C 0.31233(13) 0.6810(3) 0.12150(16)
H7 H 0.3448 0.6412 0.1008
C12 C 0.33505(13) 0.7780(3) 0.19172(15)
C13 C 0.29295(13) 0.8352(4) 0.23008(18)
H8 H 0.2467 0.8160 0.2096
C14 C 0.31860(15) 0.9202(3) 0.29815(19)
H9 H 0.2887 0.9579 0.3233
C15 C 0.42266(16) 0.9007(4) 0.2926(2)
H10 H 0.4684 0.9249 0.3131
C16 C 0.40118(15) 0.8139(4) 0.2249(2)
H11 H 0.4322 0.7783 0.2008
C17 C 0.09329(15) 0.8908(3) 0.0697(2)
C18 C 0.08819(19) 1.0570(4) 0.0807(3)
H12 H 0.1278 1.1064 0.0760
H13 H 0.0846 1.0769 0.1336
H14 H 0.0488 1.0958 0.0396
Cd1C Cd 0.421398(8) 1.09196(2) 0.448739(10)
Cd1D Cd -0.078602(8) 0.40804(2) -0.051261(10)
O1D O -0.02917(9) 0.5680(2) 0.04740(12)
N2C N 0.11732(11) 0.4526(3) 0.16917(14)
loop_
_geom_bond_atom_site_label_1
_geom_bond_atom_site_label_2
_geom_bond_site_symmetry_1
_geom_bond_site_symmetry_2
Cd1 O1 1_555 1_555
O1 C1 1_555 1_555
N1 Cd1 1_555 1_555
C1 C2 1_555 1_555
O2 Cd1 1_555 1_555
N2 C14 1_555 1_555
C2 H1 1_555 1_555
O3 Cd1 1_555 1_555
C3 C2 1_555 1_555
H2 C3 1_555 1_555
C4 C3 1_555 1_555
H3 C4 1_555 1_555
C5 C4 1_555 1_555
C6 N1 1_555 1_555
C7 C5 1_555 1_555
H4 C7 1_555 1_555
C8 C7 1_555 1_555
H5 C8 1_555 1_555
C9 N1 1_555 1_555
C10 C9 1_555 1_555
H6 C10 1_555 1_555
C11 C10 1_555 1_555
H7 C11 1_555 1_555
C12 C11 1_555 1_555
C13 C12 1_555 1_555
H8 C13 1_555 1_555
C14 C13 1_555 1_555
H9 C14 1_555 1_555
C15 N2 1_555 1_555
H10 C15 1_555 1_555
C16 C12 1_555 1_555
H11 C16 1_555 1_555
C17 O2 1_555 1_555
C18 C17 1_555 1_555
H12 C18 1_555 1_555
H13 C18 1_555 1_555
H14 C18 1_555 1_555
Cd1C N2 1_555 1_555
Cd1D O1 1_555 1_555
O1D Cd1 1_555 1_555
N2C Cd1 1_555 1_555
C1 C6 1_555 1_555
O3 C17 1_555 1_555
C5 C6 1_555 1_555
C8 C9 1_555 1_555
C15 C16 1_555 1_555
Cd1D O1D 1_555 1_555

#END
