
#######################################################################
#
#                 Cambridge Crystallographic Data Centre
#                                CCDC 
#
#######################################################################
#
# If this CIF has been generated from an entry in the Cambridge 
# Structural Database, then it will include bibliographic, chemical, 
# crystal, experimental, refinement or atomic coordinate data resulting 
# from the CCDC's data processing and validation procedures.
#
#######################################################################

data_GUNYUL
_symmetry_cell_setting           monoclinic
_symmetry_space_group_name_H-M   'C 2/c'
_symmetry_Int_Tables_number      15
_space_group_name_Hall           '-C 2yn'
loop_
_symmetry_equiv_pos_site_id
_symmetry_equiv_pos_as_xyz
1 x,y,z
2 -x,y,1/2-z
3 1/2+x,1/2+y,z
4 1/2-x,1/2+y,1/2-z
5 -x,-y,-z
6 x,-y,1/2+z
7 1/2-x,1/2-y,-z
8 1/2+x,1/2-y,1/2+z
_cell_length_a                   19.2045(15)
_cell_length_b                   12.1226(9)
_cell_length_c                   16.3390(13)
_cell_angle_alpha                90
_cell_angle_beta                 113.650(4)
_cell_angle_gamma                90
_cell_volume                     3484.38
loop_
_atom_site_label
_atom_site_type_symbol
_atom_site_fract_x
_atom_site_fract_y
_atom_site_fract_z
Zn1 Zn 0.078969(16) 0.93162(2) 0.049678(19)
O1 O 0.03455(9) 1.05373(13) -0.04056(11)
N1 N 0.17420(10) 0.97026(16) 0.01326(12)
C1 C 0.08145(13) 1.10376(19) -0.06927(15)
O2 O 0.08701(12) 0.76789(17) 0.0807(2)
N2 N 0.37328(11) 0.51662(17) 0.32681(13)
C2 C 0.06244(15) 1.1933(2) -0.12580(18)
H1 H 0.0127 1.2236 -0.1457
O3 O 0.03059(18) 0.7813(2) -0.0637(2)
C3 C 0.11516(18) 1.2404(3) -0.1544(2)
H2 H 0.1004 1.3023 -0.1932
C4 C 0.18714(18) 1.2004(3) -0.1284(2)
H3 H 0.2219 1.2345 -0.1486
C5 C 0.20968(15) 1.1081(2) -0.07139(19)
C6 C 0.15694(14) 1.06008(18) -0.04145(16)
C7 C 0.28204(18) 1.0588(3) -0.0410(2)
H4 H 0.3198 1.0888 -0.0583
C8 C 0.29820(17) 0.9693(3) 0.0125(2)
H5 H 0.3469 0.9357 0.0317
C9 C 0.24265(15) 0.9252(2) 0.04028(18)
C10 C 0.25772(15) 0.8317(2) 0.10116(18)
H6 H 0.2204 0.8154 0.1238
C11 C 0.31846(16) 0.7673(2) 0.12789(18)
H7 H 0.3551 0.7806 0.1035
C12 C 0.33326(15) 0.6772(2) 0.19225(17)
C13 C 0.39855(15) 0.6155(2) 0.21529(18)
H8 H 0.4316 0.6270 0.1856
C14 C 0.41587(15) 0.5369(2) 0.28151(18)
H9 H 0.4609 0.4947 0.2956
C15 C 0.30689(17) 0.5700(3) 0.2989(2)
H10 H 0.2730 0.5524 0.3264
C16 C 0.28468(18) 0.6488(3) 0.2330(2)
H11 H 0.2365 0.6836 0.2153
C17 C 0.0443(2) 0.5467(3) 0.0798(3)
C18 C 0.02316(18) 0.6094(2) 0.0029(3)
C19 C -0.0215(2) 0.5624(3) -0.0774(3)
C20 C 0.0498(2) 0.7295(2) 0.0075(3)
H12 H -0.037(2) 0.604(3) -0.142(2)
H13 H 0.075(3) 0.569(3) 0.146(3)
O2D O -0.08701(12) 0.23211(17) -0.0807(2)
O3D O -0.03059(18) 0.2187(2) 0.0637(2)
C17D C -0.0443(2) 0.4533(3) -0.0798(3)
C18D C -0.02316(18) 0.3906(2) -0.0029(3)
C19D C 0.0215(2) 0.4376(3) 0.0774(3)
C20D C -0.0498(2) 0.2705(2) -0.0075(3)
H12D H 0.037(2) 0.396(3) 0.142(2)
H13D H -0.075(3) 0.431(3) -0.146(3)
Zn1D Zn -0.078969(16) 0.06838(2) -0.049678(19)
O1D O -0.03455(9) -0.05373(13) 0.04056(11)
N1D N -0.17420(10) 0.02974(16) -0.01326(12)
C1D C -0.08145(13) -0.10376(19) 0.06927(15)
N2D N -0.37328(11) 0.48338(17) -0.32681(13)
C2D C -0.06244(15) -0.1933(2) 0.12580(18)
H1D H -0.0127 -0.2236 0.1457
C3D C -0.11516(18) -0.2404(3) 0.1544(2)
H2D H -0.1004 -0.3023 0.1932
C4D C -0.18714(18) -0.2004(3) 0.1284(2)
H3D H -0.2219 -0.2345 0.1486
C5D C -0.20968(15) -0.1081(2) 0.07139(19)
C6D C -0.15694(14) -0.06008(18) 0.04145(16)
C7D C -0.28204(18) -0.0588(3) 0.0410(2)
H4D H -0.3198 -0.0888 0.0583
C8D C -0.29820(17) 0.0307(3) -0.0125(2)
H5D H -0.3469 0.0643 -0.0317
C9D C -0.24265(15) 0.0748(2) -0.04028(18)
C10D C -0.25772(15) 0.1683(2) -0.10116(18)
H6D H -0.2204 0.1846 -0.1238
C11D C -0.31846(16) 0.2327(2) -0.12789(18)
H7D H -0.3551 0.2194 -0.1035
C12D C -0.33326(15) 0.3228(2) -0.19225(17)
C13D C -0.39855(15) 0.3845(2) -0.21529(18)
H8D H -0.4316 0.3730 -0.1856
C14D C -0.41587(15) 0.4631(2) -0.28151(18)
H9D H -0.4609 0.5053 -0.2956
C15D C -0.30689(17) 0.4300(3) -0.2989(2)
H10D H -0.2730 0.4476 -0.3264
C16D C -0.28468(18) 0.3512(3) -0.2330(2)
H11D H -0.2365 0.3164 -0.2153
Zn1_2 Zn 0.078969(16) -0.06838(2) 0.049678(19)
Zn1C Zn 0.421031(16) 0.43162(2) 0.450322(19)
Zn1D_2 Zn -0.078969(16) 1.06838(2) -0.049678(19)
Zn1G Zn -0.421031(16) 0.56838(2) -0.450322(19)
O1_2 O 0.03455(9) 0.05373(13) -0.04056(11)
O1D_2 O -0.03455(9) 0.94627(13) 0.04056(11)
N2C N 0.12672(11) 1.01662(17) 0.17319(13)
N2G N -0.12672(11) -0.01662(17) -0.17319(13)
loop_
_geom_bond_atom_site_label_1
_geom_bond_atom_site_label_2
_geom_bond_site_symmetry_1
_geom_bond_site_symmetry_2
Zn1 O1 1_555 1_555
O1 C1 1_555 1_555
N1 Zn1 1_555 1_555
C1 C2 1_555 1_555
O2 Zn1 1_555 1_555
N2 C14 1_555 1_555
C2 H1 1_555 1_555
O3 Zn1 1_555 1_555
C3 C2 1_555 1_555
H2 C3 1_555 1_555
C4 C3 1_555 1_555
H3 C4 1_555 1_555
C5 C4 1_555 1_555
C6 N1 1_555 1_555
C7 C5 1_555 1_555
H4 C7 1_555 1_555
C8 C7 1_555 1_555
H5 C8 1_555 1_555
C9 N1 1_555 1_555
C10 C9 1_555 1_555
H6 C10 1_555 1_555
C11 C10 1_555 1_555
H7 C11 1_555 1_555
C12 C11 1_555 1_555
C13 C12 1_555 1_555
H8 C13 1_555 1_555
C14 C13 1_555 1_555
H9 C14 1_555 1_555
C15 N2 1_555 1_555
H10 C15 1_555 1_555
C16 C12 1_555 1_555
H11 C16 1_555 1_555
C17 C18 1_555 1_555
C18 C19 1_555 1_555
C19 H12 1_555 1_555
C20 O2 1_555 1_555
H13 C17 1_555 1_555
O2D C20D 1_555 1_555
O3D C20D 1_555 1_555
C17D C19 1_555 1_555
C18D C17D 1_555 1_555
C19D C17 1_555 1_555
C20D C18D 1_555 1_555
H12D C19D 1_555 1_555
H13D C17D 1_555 1_555
Zn1D O2D 1_555 1_555
O1D Zn1D 1_555 1_555
N1D Zn1D 1_555 1_555
C1D O1D 1_555 1_555
N2D C14D 1_555 1_555
C2D C1D 1_555 1_555
H1D C2D 1_555 1_555
C3D C2D 1_555 1_555
H2D C3D 1_555 1_555
C4D C3D 1_555 1_555
H3D C4D 1_555 1_555
C5D C4D 1_555 1_555
C6D N1D 1_555 1_555
C7D C5D 1_555 1_555
H4D C7D 1_555 1_555
C8D C7D 1_555 1_555
H5D C8D 1_555 1_555
C9D N1D 1_555 1_555
C10D C9D 1_555 1_555
H6D C10D 1_555 1_555
C11D C10D 1_555 1_555
H7D C11D 1_555 1_555
C12D C11D 1_555 1_555
C13D C12D 1_555 1_555
H8D C13D 1_555 1_555
C14D C13D 1_555 1_555
H9D C14D 1_555 1_555
C15D N2D 1_555 1_555
H10D C15D 1_555 1_555
C16D C12D 1_555 1_555
H11D C16D 1_555 1_555
Zn1_2 O1D 1_555 1_555
Zn1C N2 1_555 1_555
Zn1D_2 O1 1_555 1_555
Zn1G N2D 1_555 1_555
O1_2 Zn1D 1_555 1_555
O1D_2 Zn1 1_555 1_555
N2C Zn1 1_555 1_555
N2G Zn1D 1_555 1_555
C1 C6 1_555 1_555
O3 C20 1_555 1_555
C5 C6 1_555 1_555
C8 C9 1_555 1_555
C15 C16 1_555 1_555
C18 C20 1_555 1_555
O3D Zn1D 1_555 1_555
C18D C19D 1_555 1_555
C1D C6D 1_555 1_555
C5D C6D 1_555 1_555
C8D C9D 1_555 1_555
C15D C16D 1_555 1_555
Zn1_2 O1_2 1_555 1_555
Zn1D_2 O1D_2 1_555 1_555

#END
