
#######################################################################
#
#                 Cambridge Crystallographic Data Centre
#                                CCDC 
#
#######################################################################
#
# If this CIF has been generated from an entry in the Cambridge 
# Structural Database, then it will include bibliographic, chemical, 
# crystal, experimental, refinement or atomic coordinate data resulting 
# from the CCDC's data processing and validation procedures.
#
#######################################################################

data_GUNYIZ
_symmetry_cell_setting           monoclinic
_symmetry_space_group_name_H-M   'P 21/c'
_symmetry_Int_Tables_number      14
_space_group_name_Hall           '-P 2ybc'
loop_
_symmetry_equiv_pos_site_id
_symmetry_equiv_pos_as_xyz
1 x,y,z
2 -x,1/2+y,1/2-z
3 -x,-y,-z
4 x,1/2-y,1/2+z
_cell_length_a                   10.1080(11)
_cell_length_b                   11.9955(13)
_cell_length_c                   14.6670(16)
_cell_angle_alpha                90
_cell_angle_beta                 106.2680(10)
_cell_angle_gamma                90
_cell_volume                     1707.18
loop_
_atom_site_label
_atom_site_type_symbol
_atom_site_fract_x
_atom_site_fract_y
_atom_site_fract_z
Zn1 Zn 0.5000 0.5000 0.0000
O1 O 0.4593(2) 0.37490(19) -0.09309(16)
N1 N 0.2991(3) 0.4385(2) 0.02085(16)
C1 C 0.3482(4) 0.3170(3) -0.0951(2)
N2 N 0.3842(3) 0.8774(2) 0.3869(2)
C2 C 0.3102(5) 0.2227(3) -0.1519(3)
C3 C 0.1902(5) 0.1641(4) -0.1564(3)
C4 C 0.1051(5) 0.1930(3) -0.1020(3)
C5 C 0.1399(4) 0.2864(3) -0.0406(2)
C6 C 0.2608(3) 0.3482(3) -0.0368(2)
C7 C 0.0604(4) 0.3214(3) 0.0188(3)
C8 C 0.0996(4) 0.4104(3) 0.0754(3)
C9 C 0.2216(3) 0.4694(3) 0.0765(2)
C10 C 0.2688(4) 0.5671(3) 0.1369(2)
C11 C 0.2067(4) 0.6136(3) 0.1966(2)
C12 C 0.2630(3) 0.7080(3) 0.2580(2)
C13 C 0.3594(4) 0.7816(3) 0.2408(3)
C14 C 0.4139(4) 0.8640(3) 0.3054(3)
C15 C 0.2893(5) 0.8086(4) 0.4026(3)
C16 C 0.2269(5) 0.7262(4) 0.3418(3)
H1 H 0.046(4) 0.437(4) 0.115(3)
H2 H 0.478(4) 0.914(3) 0.292(2)
H3 H -0.019(3) 0.278(3) 0.017(2)
H4 H 0.352(3) 0.594(3) 0.129(2)
H5 H 0.287(5) 0.811(4) 0.469(3)
H6 H 0.134(4) 0.574(3) 0.212(2)
H7 H 0.019(4) 0.154(3) -0.105(3)
H8 H 0.374(4) 0.208(3) -0.193(3)
H9 H 0.386(4) 0.774(3) 0.184(3)
H10 H 0.149(4) 0.682(3) 0.346(3)
H11 H 0.166(5) 0.106(4) -0.198(3)
O1B O 0.5407(2) 0.62510(19) 0.09309(16)
N1B N 0.7009(3) 0.5615(2) -0.02085(16)
C1B C 0.6518(4) 0.6830(3) 0.0951(2)
N2B N 0.6158(3) 0.1226(2) -0.3869(2)
C2B C 0.6898(5) 0.7773(3) 0.1519(3)
C3B C 0.8098(5) 0.8359(4) 0.1564(3)
C4B C 0.8949(5) 0.8070(3) 0.1020(3)
C5B C 0.8601(4) 0.7136(3) 0.0406(2)
C6B C 0.7392(3) 0.6518(3) 0.0368(2)
C7B C 0.9396(4) 0.6786(3) -0.0188(3)
C8B C 0.9004(4) 0.5896(3) -0.0754(3)
C9B C 0.7784(3) 0.5306(3) -0.0765(2)
C10B C 0.7312(4) 0.4329(3) -0.1369(2)
C11B C 0.7933(4) 0.3864(3) -0.1966(2)
C12B C 0.7370(3) 0.2920(3) -0.2580(2)
C13B C 0.6406(4) 0.2184(3) -0.2408(3)
C14B C 0.5861(4) 0.1360(3) -0.3054(3)
C15B C 0.7107(5) 0.1914(4) -0.4026(3)
C16B C 0.7731(5) 0.2738(4) -0.3418(3)
H1B H 0.954(4) 0.563(4) -0.115(3)
H2B H 0.522(4) 0.086(3) -0.292(2)
H3B H 1.019(3) 0.722(3) -0.017(2)
H4B H 0.648(3) 0.406(3) -0.129(2)
H5B H 0.713(5) 0.189(4) -0.469(3)
H6B H 0.866(4) 0.426(3) -0.212(2)
H7B H 0.981(4) 0.846(3) 0.105(3)
H8B H 0.626(4) 0.792(3) 0.193(3)
H9B H 0.614(4) 0.226(3) -0.184(3)
H10B H 0.851(4) 0.318(3) -0.346(3)
H11B H 0.834(5) 0.894(4) 0.198(3)
Zn1A Zn 0.5000 0.0000 -0.5000
Zn1A_2 Zn 0.5000 1.0000 0.5000
N2A N 0.6158(3) 0.3774(2) 0.1131(2)
N2C N 0.3842(3) 0.6226(2) -0.1131(2)
O2 O 0.1598(4) -0.1034(3) 0.0196(3)
N3 N 0.2771(6) 0.0379(4) 0.1091(4)
C17 C 0.3795(8) 0.1126(6) 0.1413(5)
H12 H 0.4564 0.0932 0.1181
H13 H 0.4077 0.1119 0.2095
H14 H 0.3472 0.1857 0.1192
C18 C 0.1629(9) 0.0532(6) 0.1583(5)
H15 H 0.0864 0.0058 0.1287
H16 H 0.1332 0.1296 0.1528
H17 H 0.1977 0.0339 0.2242
C19 C 0.2443(8) -0.0381(6) 0.0475(5)
H18 H 0.3096 -0.0426 0.0138
loop_
_geom_bond_atom_site_label_1
_geom_bond_atom_site_label_2
_geom_bond_site_symmetry_1
_geom_bond_site_symmetry_2
Zn1 O1 1_555 1_555
O1 C1 1_555 1_555
N1 Zn1 1_555 1_555
C1 C2 1_555 1_555
N2 C14 1_555 1_555
C2 C3 1_555 1_555
C3 C4 1_555 1_555
C4 C5 1_555 1_555
C5 C6 1_555 1_555
C6 N1 1_555 1_555
C7 C5 1_555 1_555
C8 C7 1_555 1_555
C9 N1 1_555 1_555
C10 C9 1_555 1_555
C11 C10 1_555 1_555
C12 C11 1_555 1_555
C13 C12 1_555 1_555
C14 C13 1_555 1_555
C15 N2 1_555 1_555
C16 C12 1_555 1_555
H1 C8 1_555 1_555
H2 C14 1_555 1_555
H3 C7 1_555 1_555
H4 C10 1_555 1_555
H5 C15 1_555 1_555
H6 C11 1_555 1_555
H7 C4 1_555 1_555
H8 C2 1_555 1_555
H9 C13 1_555 1_555
H10 C16 1_555 1_555
H11 C3 1_555 1_555
O2 C19 1_555 1_555
N3 C17 1_555 1_555
C17 H12 1_555 1_555
H13 C17 1_555 1_555
H14 C17 1_555 1_555
C18 N3 1_555 1_555
H15 C18 1_555 1_555
H16 C18 1_555 1_555
H17 C18 1_555 1_555
C19 N3 1_555 1_555
H18 C19 1_555 1_555
O1B Zn1 1_555 1_555
N1B Zn1 1_555 1_555
C1B O1B 1_555 1_555
N2B C14B 1_555 1_555
C2B C1B 1_555 1_555
C3B C2B 1_555 1_555
C4B C3B 1_555 1_555
C5B C4B 1_555 1_555
C6B N1B 1_555 1_555
C7B C5B 1_555 1_555
C8B C7B 1_555 1_555
C9B N1B 1_555 1_555
C10B C9B 1_555 1_555
C11B C10B 1_555 1_555
C12B C11B 1_555 1_555
C13B C12B 1_555 1_555
C14B C13B 1_555 1_555
C15B N2B 1_555 1_555
C16B C12B 1_555 1_555
H1B C8B 1_555 1_555
H2B C14B 1_555 1_555
H3B C7B 1_555 1_555
H4B C10B 1_555 1_555
H5B C15B 1_555 1_555
H6B C11B 1_555 1_555
H7B C4B 1_555 1_555
H8B C2B 1_555 1_555
H9B C13B 1_555 1_555
H10B C16B 1_555 1_555
H11B C3B 1_555 1_555
Zn1A N2B 1_555 1_555
Zn1A_2 N2 1_555 1_555
N2A Zn1 1_555 1_555
N2C Zn1 1_555 1_555
C1 C6 1_555 1_555
C8 C9 1_555 1_555
C15 C16 1_555 1_555
C1B C6B 1_555 1_555
C5B C6B 1_555 1_555
C8B C9B 1_555 1_555
C15B C16B 1_555 1_555

#END
