
#######################################################################
#
#                 Cambridge Crystallographic Data Centre
#                                CCDC 
#
#######################################################################
#
# If this CIF has been generated from an entry in the Cambridge 
# Structural Database, then it will include bibliographic, chemical, 
# crystal, experimental, refinement or atomic coordinate data resulting 
# from the CCDC's data processing and validation procedures.
#
#######################################################################

data_GUNZIA
_symmetry_cell_setting           tetragonal
_symmetry_space_group_name_H-M   'I -4 2 d'
_symmetry_Int_Tables_number      122
_space_group_name_Hall           'I -4 2bw'
loop_
_symmetry_equiv_pos_site_id
_symmetry_equiv_pos_as_xyz
1 x,y,z
2 y,-x,-z
3 -x,-y,z
4 -y,x,-z
5 x,1/2-y,1/4-z
6 -x,1/2+y,1/4-z
7 -y,1/2-x,1/4+z
8 y,1/2+x,1/4+z
9 1/2+x,1/2+y,1/2+z
10 1/2+y,1/2-x,1/2-z
11 1/2-x,1/2-y,1/2+z
12 1/2-y,1/2+x,1/2-z
13 1/2+x,-y,3/4-z
14 1/2-x,y,3/4-z
15 1/2-y,-x,3/4+z
16 1/2+y,x,3/4+z
_cell_length_a                   22.0223(12)
_cell_length_b                   22.0223(12)
_cell_length_c                   21.628(2)
_cell_angle_alpha                90
_cell_angle_beta                 90
_cell_angle_gamma                90
_cell_volume                     10489.2
loop_
_atom_site_label
_atom_site_type_symbol
_atom_site_fract_x
_atom_site_fract_y
_atom_site_fract_z
Cd1 Cd 0.20639(2) 0.81047(2) 1.07110(2)
O1 O 0.2119(2) 0.70818(17) 1.07630(19)
N1 N 0.1888(2) 0.77114(19) 0.9715(2)
C1 C 0.2042(2) 0.6775(2) 1.0252(3)
O2 O 0.25437(19) 0.9090(2) 1.0676(2)
C2 C 0.2087(3) 0.6146(2) 1.0210(3)
H1 H 0.2187 0.5920 1.0564
O3 O 0.3060(2) 0.8277(2) 1.0400(3)
C3 C 0.1985(3) 0.5840(3) 0.9649(4)
H2 H 0.2015 0.5414 0.9639
C4 C 0.1848(3) 0.6132(3) 0.9138(3)
H3 H 0.1777 0.5912 0.8773
C5 C 0.1806(3) 0.6775(3) 0.9130(3)
C6 C 0.1911(2) 0.7093(2) 0.9689(3)
C7 C 0.1698(3) 0.7121(3) 0.8598(3)
H4 H 0.1625 0.6924 0.8220
C8 C 0.1695(3) 0.7748(3) 0.8622(3)
H5 H 0.1634 0.7978 0.8261
C9 C 0.1784(2) 0.8035(2) 0.9191(3)
C10 C 0.1789(3) 0.8689(2) 0.9276(3)
H6 H 0.1919 0.8828 0.9665
C11 C 0.1632(4) 0.9114(3) 0.8871(3)
H7 H 0.1493 0.8984 0.8482
C12 C 0.1657(3) 0.9764(3) 0.8980(3)
C13 C 0.1396(5) 1.0167(3) 0.8579(3)
H8 H 0.1208 1.0023 0.8217
C14 C 0.1406(4) 1.0790(3) 0.8700(4)
H9 H 0.1202 1.1052 0.8427
C15 C 0.1952(4) 1.0636(3) 0.9560(3)
H10 H 0.2173 1.0792 0.9897
C16 C 0.1928(5) 1.0019(3) 0.9498(3)
H11 H 0.2095 0.9767 0.9805
C17 C 0.3033(3) 0.8832(3) 1.0509(3)
C18 C 0.3608(3) 0.9204(3) 1.0446(3)
C19 C 0.4125(3) 0.8916(3) 1.0225(3)
H12 H 0.4105 0.8510 1.0095
C20 C 0.4672(3) 0.9233(3) 1.0195(4)
H13 H 0.5022 0.9038 1.0045
C21 C 0.4704(3) 0.9842(3) 1.0388(3)
C22 C 0.4178(3) 1.0128(3) 1.0570(3)
H14 H 0.4188 1.0542 1.0672
C23 C 0.3626(3) 0.9810(3) 1.0605(3)
H15 H 0.3271 1.0010 1.0736
N2 N 0.1694(2) 1.1029(2) 0.9190(2)
O2B O 0.74563(19) 1.0910(2) 1.0676(2)
O3B O 0.6940(2) 1.1723(2) 1.0400(3)
C17B C 0.6967(3) 1.1168(3) 1.0509(3)
C18B C 0.6392(3) 1.0796(3) 1.0446(3)
C19B C 0.5875(3) 1.1084(3) 1.0225(3)
H12B H 0.5895 1.1490 1.0095
C20B C 0.5328(3) 1.0767(3) 1.0195(4)
H13B H 0.4978 1.0962 1.0045
C21B C 0.5296(3) 1.0158(3) 1.0388(3)
C22B C 0.5822(3) 0.9872(3) 1.0570(3)
H14B H 0.5812 0.9458 1.0672
C23B C 0.6374(3) 1.0190(3) 1.0605(3)
H15B H 0.6729 0.9990 1.0736
Cd1A Cd -0.18953(2) 0.79361(2) 0.92890(2)
O1A O -0.29182(17) 0.7881(2) 0.92370(19)
N1A N -0.22886(19) 0.8112(2) 1.0285(2)
C1A C -0.3225(2) 0.7958(2) 0.9748(3)
C2A C -0.3854(2) 0.7913(3) 0.9790(3)
H1A H -0.4080 0.7813 0.9436
C3A C -0.4160(3) 0.8015(3) 1.0351(4)
H2A H -0.4586 0.7985 1.0361
C4A C -0.3868(3) 0.8152(3) 1.0862(3)
H3A H -0.4088 0.8223 1.1227
C5A C -0.3225(3) 0.8194(3) 1.0870(3)
C6A C -0.2907(2) 0.8089(2) 1.0311(3)
C7A C -0.2879(3) 0.8302(3) 1.1402(3)
H4A H -0.3076 0.8375 1.1780
C8A C -0.2252(3) 0.8305(3) 1.1378(3)
H5A H -0.2022 0.8366 1.1739
C9A C -0.1965(2) 0.8216(2) 1.0809(3)
C10A C -0.1311(2) 0.8211(3) 1.0724(3)
H6A H -0.1172 0.8081 1.0335
C11A C -0.0886(3) 0.8368(4) 1.1129(3)
H7A H -0.1016 0.8507 1.1518
C12A C -0.0236(3) 0.8343(3) 1.1020(3)
C13A C 0.0167(3) 0.8604(5) 1.1421(3)
H8A H 0.0023 0.8792 1.1783
C14A C 0.0790(3) 0.8594(4) 1.1300(4)
H9A H 0.1052 0.8798 1.1573
C15A C 0.0636(3) 0.8048(4) 1.0440(3)
H10A H 0.0792 0.7827 1.0103
C16A C 0.0019(3) 0.8072(5) 1.0502(3)
H11A H -0.0233 0.7905 1.0195
N2A N 0.1029(2) 0.8306(2) 1.0810(2)
Cd1B Cd 0.79361(2) 1.18953(2) 1.07110(2)
Cd1C Cd 0.18953(2) 1.20639(2) 0.92890(2)
Cd1D Cd 0.20639(2) 0.68953(2) 1.17890(2)
Cd1N Cd -0.31047(2) 0.79361(2) 0.82110(2)
O1D O 0.2119(2) 0.79182(17) 1.17370(19)
O1N O -0.20818(17) 0.7881(2) 0.82630(19)
O2A O -0.0910(2) 0.74563(19) 0.9324(2)
O3A O -0.1723(2) 0.6940(2) 0.9600(3)
N2B N -0.1694(2) 0.8971(2) 0.9190(2)
O4 O 0.1905(8) 0.0155(8) 0.1165(8)
O5 O 0.0501(16) 0.6991(14) 0.7444(13)
C24 C 0.090(2) 0.651(2) 0.7108(19)
loop_
_geom_bond_atom_site_label_1
_geom_bond_atom_site_label_2
_geom_bond_site_symmetry_1
_geom_bond_site_symmetry_2
Cd1 O1 1_555 1_555
O1 C1 1_555 1_555
N1 Cd1 1_555 1_555
C1 C2 1_555 1_555
O2 Cd1 1_555 1_555
C2 H1 1_555 1_555
O3 Cd1 1_555 1_555
C3 C2 1_555 1_555
H2 C3 1_555 1_555
C4 C3 1_555 1_555
H3 C4 1_555 1_555
C5 C4 1_555 1_555
C6 N1 1_555 1_555
C7 C5 1_555 1_555
H4 C7 1_555 1_555
C8 C7 1_555 1_555
H5 C8 1_555 1_555
C9 N1 1_555 1_555
C10 C9 1_555 1_555
H6 C10 1_555 1_555
C11 C10 1_555 1_555
H7 C11 1_555 1_555
C12 C11 1_555 1_555
C13 C12 1_555 1_555
H8 C13 1_555 1_555
C14 C13 1_555 1_555
H9 C14 1_555 1_555
C15 H10 1_555 1_555
C16 C12 1_555 1_555
H11 C16 1_555 1_555
C17 O2 1_555 1_555
C18 C17 1_555 1_555
C19 C18 1_555 1_555
H12 C19 1_555 1_555
C20 C19 1_555 1_555
H13 C20 1_555 1_555
C21 C20 1_555 1_555
C22 C21 1_555 1_555
H14 C22 1_555 1_555
C23 C18 1_555 1_555
H15 C23 1_555 1_555
N2 C14 1_555 1_555
O5 C24 1_555 1_555
O2B C17B 1_555 1_555
O3B C17B 1_555 1_555
C17B C18B 1_555 1_555
C18B C19B 1_555 1_555
C19B H12B 1_555 1_555
C20B C19B 1_555 1_555
H13B C20B 1_555 1_555
C21B C21 1_555 1_555
C22B C21B 1_555 1_555
H14B C22B 1_555 1_555
C23B C18B 1_555 1_555
H15B C23B 1_555 1_555
Cd1A O1A 1_555 1_555
O1A C1A 1_555 1_555
N1A Cd1A 1_555 1_555
C1A C2A 1_555 1_555
C2A H1A 1_555 1_555
C3A C2A 1_555 1_555
H2A C3A 1_555 1_555
C4A C3A 1_555 1_555
H3A C4A 1_555 1_555
C5A C4A 1_555 1_555
C6A N1A 1_555 1_555
C7A C5A 1_555 1_555
H4A C7A 1_555 1_555
C8A C7A 1_555 1_555
H5A C8A 1_555 1_555
C9A N1A 1_555 1_555
C10A C9A 1_555 1_555
H6A C10A 1_555 1_555
C11A C10A 1_555 1_555
H7A C11A 1_555 1_555
C12A C11A 1_555 1_555
C13A C12A 1_555 1_555
H8A C13A 1_555 1_555
C14A C13A 1_555 1_555
H9A C14A 1_555 1_555
C15A H10A 1_555 1_555
C16A C12A 1_555 1_555
H11A C16A 1_555 1_555
N2A Cd1 1_555 1_555
Cd1B O2B 1_555 1_555
Cd1C N2 1_555 1_555
Cd1D O1 1_555 1_555
Cd1N O1A 1_555 1_555
O1D Cd1 1_555 1_555
O1N Cd1A 1_555 1_555
O2A Cd1A 1_555 1_555
O3A Cd1A 1_555 1_555
N2B Cd1A 1_555 1_555
C1 C6 1_555 1_555
O3 C17 1_555 1_555
C5 C6 1_555 1_555
C8 C9 1_555 1_555
C15 C16 1_555 1_555
C15 N2 1_555 1_555
C22 C23 1_555 1_555
O3B Cd1B 1_555 1_555
C20B C21B 1_555 1_555
C22B C23B 1_555 1_555
C1A C6A 1_555 1_555
C5A C6A 1_555 1_555
C8A C9A 1_555 1_555
C14A N2A 1_555 1_555
C15A C16A 1_555 1_555
C15A N2A 1_555 1_555
Cd1D O1D 1_555 1_555
Cd1N O1N 1_555 1_555

#END
