
#######################################################################
#
#                 Cambridge Crystallographic Data Centre
#                                CCDC 
#
#######################################################################
#
# If this CIF has been generated from an entry in the Cambridge 
# Structural Database, then it will include bibliographic, chemical, 
# crystal, experimental, refinement or atomic coordinate data resulting 
# from the CCDC's data processing and validation procedures.
#
#######################################################################

data_GUNZAS
_symmetry_cell_setting           monoclinic
_symmetry_space_group_name_H-M   'C 2/c'
_symmetry_Int_Tables_number      15
_space_group_name_Hall           '-C 2yn'
loop_
_symmetry_equiv_pos_site_id
_symmetry_equiv_pos_as_xyz
1 x,y,z
2 -x,y,1/2-z
3 1/2+x,1/2+y,z
4 1/2-x,1/2+y,1/2-z
5 -x,-y,-z
6 x,-y,1/2+z
7 1/2-x,1/2-y,-z
8 1/2+x,1/2-y,1/2+z
_cell_length_a                   18.243(4)
_cell_length_b                   17.053(4)
_cell_length_c                   23.570(5)
_cell_angle_alpha                90
_cell_angle_beta                 101.411(3)
_cell_angle_gamma                90
_cell_volume                     7187.64
loop_
_atom_site_label
_atom_site_type_symbol
_atom_site_fract_x
_atom_site_fract_y
_atom_site_fract_z
I1 I 1.12372(2) 1.29306(2) 0.28681(2)
Zn1 Zn 0.81594(2) 0.80926(2) 0.02782(2)
O1 O 0.79356(16) 0.72141(15) -0.02915(15)
N1 N 0.92213(16) 0.79873(15) -0.00075(14)
C1 C 0.8480(2) 0.69940(19) -0.05543(19)
Zn2 Zn 1.0000 1.22431(4) 0.2500
O2 O 0.80771(15) 0.92255(14) 0.04597(15)
N2 N 1.01535(17) 1.14309(18) 0.18825(13)
C2 C 0.8409(2) 0.6402(2) -0.0962(2)
H1 H 0.7964 0.6123 -0.1060
O3 O 0.77432(18) 0.92010(16) -0.04864(16)
C3 C 0.9022(2) 0.6221(2) -0.12301(19)
H2 H 0.8966 0.5829 -0.1510
O4 O 0.8598(2) 0.7681(2) 0.11012(18)
C4 C 0.9684(2) 0.6601(3) -0.10917(19)
H3 H 1.0076 0.6461 -0.1270
C5 C 0.9779(2) 0.7203(2) -0.06823(18)
C6 C 0.91717(19) 0.74046(19) -0.04116(17)
C7 C 1.0432(2) 0.7637(3) -0.0509(2)
H4 H 1.0848 0.7520 -0.0667
C8 C 1.0476(2) 0.8218(2) -0.01203(19)
H5 H 1.0915 0.8505 -0.0017
C9 C 0.9853(2) 0.8395(2) 0.01328(17)
C10 C 0.9843(2) 0.9027(2) 0.05503(17)
H6 H 0.9434 0.9038 0.0731
C11 C 1.0345(2) 0.9582(2) 0.07002(17)
H7 H 1.0773 0.9568 0.0542
C12 C 1.0271(2) 1.0225(2) 0.11042(17)
C13 C 0.9641(2) 1.0306(3) 0.1346(2)
H8 H 0.9247 0.9953 0.1253
C14 C 0.9603(2) 1.0909(3) 0.1724(2)
H9 H 0.9173 1.0959 0.1877
C15 C 1.0743(2) 1.1362(2) 0.16443(17)
H10 H 1.1125 1.1727 0.1743
C16 C 1.0827(2) 1.0784(2) 0.12589(17)
H11 H 1.1256 1.0765 0.1102
C17 C 0.77109(19) 1.04218(19) -0.00129(18)
C18 C 0.7776(2) 1.0825(2) 0.05024(18)
H12 H 0.7882 1.0554 0.0851
C19 C 0.7685(2) 1.1634(2) 0.05019(18)
H13 H 0.7725 1.1893 0.0854
C20 C 0.75357(19) 1.20648(18) -0.00012(17)
C21 C 0.7449(3) 1.1643(2) -0.05109(18)
H14 H 0.7329 1.1910 -0.0861
C22 C 0.7535(2) 1.0843(2) -0.05183(19)
H15 H 0.7473 1.0583 -0.0871
C23 C 0.7842(2) 0.9555(2) -0.0021(2)
O2F O 0.69229(15) 1.57745(14) -0.04597(15)
O3F O 0.72568(18) 1.57990(16) 0.04864(16)
C17F C 0.72891(19) 1.45782(19) 0.00129(18)
C18F C 0.7224(2) 1.4175(2) -0.05024(18)
H12F H 0.7118 1.4446 -0.0851
C19F C 0.7315(2) 1.3366(2) -0.05019(18)
H13F H 0.7275 1.3107 -0.0854
C20F C 0.74643(19) 1.29352(18) 0.00012(17)
C21F C 0.7551(3) 1.3357(2) 0.05109(18)
H14F H 0.7671 1.3090 0.0861
C22F C 0.7465(2) 1.4157(2) 0.05183(19)
H15F H 0.7527 1.4417 0.0871
C23F C 0.7158(2) 1.5445(2) 0.0021(2)
I1A I 0.87628(2) 1.29306(2) 0.21319(2)
Zn1A Zn 1.18406(2) 0.80926(2) 0.47218(2)
O1A O 1.20644(16) 0.72141(15) 0.52915(15)
N1A N 1.07787(16) 0.79873(15) 0.50075(14)
C1A C 1.1520(2) 0.69940(19) 0.55543(19)
N2A N 0.98465(17) 1.14309(18) 0.31175(13)
C2A C 1.1591(2) 0.6402(2) 0.5962(2)
H1A H 1.2036 0.6123 0.6060
C3A C 1.0978(2) 0.6221(2) 0.62301(19)
H2A H 1.1034 0.5829 0.6510
O4A O 1.1402(2) 0.7681(2) 0.38988(18)
C4A C 1.0316(2) 0.6601(3) 0.60917(19)
H3A H 0.9924 0.6461 0.6270
C5A C 1.0221(2) 0.7203(2) 0.56823(18)
C6A C 1.08283(19) 0.74046(19) 0.54116(17)
C7A C 0.9568(2) 0.7637(3) 0.5509(2)
H4A H 0.9152 0.7520 0.5667
C8A C 0.9524(2) 0.8218(2) 0.51203(19)
H5A H 0.9085 0.8505 0.5017
C9A C 1.0147(2) 0.8395(2) 0.48672(17)
C10A C 1.0157(2) 0.9027(2) 0.44497(17)
H6A H 1.0566 0.9038 0.4269
C11A C 0.9655(2) 0.9582(2) 0.42998(17)
H7A H 0.9227 0.9568 0.4458
C12A C 0.9729(2) 1.0225(2) 0.38958(17)
C13A C 1.0359(2) 1.0306(3) 0.3654(2)
H8A H 1.0753 0.9953 0.3747
C14A C 1.0397(2) 1.0909(3) 0.3276(2)
H9A H 1.0827 1.0959 0.3123
C15A C 0.9257(2) 1.1362(2) 0.33557(17)
H10A H 0.8875 1.1727 0.3257
C16A C 0.9173(2) 1.0784(2) 0.37411(17)
H11A H 0.8744 1.0765 0.3898
Zn1F Zn 0.68406(2) 0.69074(2) -0.02782(2)
Zn1F_2 Zn 0.68406(2) 1.69074(2) -0.02782(2)
Zn1G Zn 1.31594(2) 0.69074(2) 0.52782(2)
O1F O 0.70644(16) 0.77859(15) 0.02915(15)
O1G O 1.29356(16) 0.77859(15) 0.47085(15)
O2A O 1.19229(15) 0.92255(14) 0.45403(15)
loop_
_geom_bond_atom_site_label_1
_geom_bond_atom_site_label_2
_geom_bond_site_symmetry_1
_geom_bond_site_symmetry_2
I1 Zn2 1_555 1_555
Zn1 O1 1_555 1_555
O1 C1 1_555 1_555
N1 Zn1 1_555 1_555
C1 C2 1_555 1_555
Zn2 N2 1_555 1_555
O2 Zn1 1_555 1_555
N2 C14 1_555 1_555
C2 H1 1_555 1_555
O3 C23 1_555 1_555
C3 C2 1_555 1_555
H2 C3 1_555 1_555
O4 Zn1 1_555 1_555
C4 C3 1_555 1_555
H3 C4 1_555 1_555
C5 C4 1_555 1_555
C6 N1 1_555 1_555
C7 C5 1_555 1_555
H4 C7 1_555 1_555
C8 C7 1_555 1_555
H5 C8 1_555 1_555
C9 N1 1_555 1_555
C10 C9 1_555 1_555
H6 C10 1_555 1_555
C11 C10 1_555 1_555
H7 C11 1_555 1_555
C12 C11 1_555 1_555
C13 C12 1_555 1_555
H8 C13 1_555 1_555
C14 C13 1_555 1_555
H9 C14 1_555 1_555
C15 N2 1_555 1_555
H10 C15 1_555 1_555
C16 C12 1_555 1_555
H11 C16 1_555 1_555
C17 C18 1_555 1_555
C18 H12 1_555 1_555
C19 C18 1_555 1_555
H13 C19 1_555 1_555
C20 C19 1_555 1_555
C21 C20 1_555 1_555
H14 C21 1_555 1_555
C22 C17 1_555 1_555
H15 C22 1_555 1_555
C23 O2 1_555 1_555
O2F C23F 1_555 1_555
O3F C23F 1_555 1_555
C17F C18F 1_555 1_555
C18F H12F 1_555 1_555
C19F C18F 1_555 1_555
H13F C19F 1_555 1_555
C20F C20 1_555 1_555
C21F C20F 1_555 1_555
H14F C21F 1_555 1_555
C22F C17F 1_555 1_555
H15F C22F 1_555 1_555
C23F C17F 1_555 1_555
I1A Zn2 1_555 1_555
Zn1A O1A 1_555 1_555
O1A C1A 1_555 1_555
N1A Zn1A 1_555 1_555
C1A C2A 1_555 1_555
N2A Zn2 1_555 1_555
C2A H1A 1_555 1_555
C3A C2A 1_555 1_555
H2A C3A 1_555 1_555
O4A Zn1A 1_555 1_555
C4A C3A 1_555 1_555
H3A C4A 1_555 1_555
C5A C4A 1_555 1_555
C6A N1A 1_555 1_555
C7A C5A 1_555 1_555
H4A C7A 1_555 1_555
C8A C7A 1_555 1_555
H5A C8A 1_555 1_555
C9A N1A 1_555 1_555
C10A C9A 1_555 1_555
H6A C10A 1_555 1_555
C11A C10A 1_555 1_555
H7A C11A 1_555 1_555
C12A C11A 1_555 1_555
C13A C12A 1_555 1_555
H8A C13A 1_555 1_555
C14A N2A 1_555 1_555
H9A C14A 1_555 1_555
C15A N2A 1_555 1_555
H10A C15A 1_555 1_555
C16A C12A 1_555 1_555
H11A C16A 1_555 1_555
Zn1F O1 1_555 1_555
Zn1F_2 O2F 1_555 1_555
Zn1G O1A 1_555 1_555
O1F Zn1 1_555 1_555
O1G Zn1A 1_555 1_555
O2A Zn1A 1_555 1_555
C1 C6 1_555 1_555
C5 C6 1_555 1_555
C8 C9 1_555 1_555
C15 C16 1_555 1_555
C17 C23 1_555 1_555
C21 C22 1_555 1_555
C19F C20F 1_555 1_555
C21F C22F 1_555 1_555
C1A C6A 1_555 1_555
C5A C6A 1_555 1_555
C8A C9A 1_555 1_555
C13A C14A 1_555 1_555
C15A C16A 1_555 1_555
Zn1F O1F 1_555 1_555
Zn1G O1G 1_555 1_555

#END
