
#######################################################################
#
#                 Cambridge Crystallographic Data Centre
#                                CCDC 
#
#######################################################################
#
# If this CIF has been generated from an entry in the Cambridge 
# Structural Database, then it will include bibliographic, chemical, 
# crystal, experimental, refinement or atomic coordinate data resulting 
# from the CCDC's data processing and validation procedures.
#
#######################################################################

data_GUNZEW
_symmetry_cell_setting           monoclinic
_symmetry_space_group_name_H-M   'C 2/c'
_symmetry_Int_Tables_number      15
_space_group_name_Hall           '-C 2yn'
loop_
_symmetry_equiv_pos_site_id
_symmetry_equiv_pos_as_xyz
1 x,y,z
2 -x,y,1/2-z
3 1/2+x,1/2+y,z
4 1/2-x,1/2+y,1/2-z
5 -x,-y,-z
6 x,-y,1/2+z
7 1/2-x,1/2-y,-z
8 1/2+x,1/2-y,1/2+z
_cell_length_a                   19.290(2)
_cell_length_b                   12.8306(15)
_cell_length_c                   15.7556(18)
_cell_angle_alpha                90
_cell_angle_beta                 113.3370(10)
_cell_angle_gamma                90
_cell_volume                     3580.53
loop_
_atom_site_label
_atom_site_type_symbol
_atom_site_fract_x
_atom_site_fract_y
_atom_site_fract_z
Cd1 Cd 0.079801(14) 0.08234(2) 0.053222(18)
O1 O -0.03796(13) 0.0495(2) 0.04825(18)
N1 N -0.17900(16) -0.0313(2) -0.0125(2)
C1 C -0.0879(2) 0.0971(3) 0.0715(3)
O2 O 0.03508(19) 0.2309(2) -0.0448(2)
N2 N -0.36736(17) -0.4847(3) -0.3113(2)
C2 C -0.0715(2) 0.1848(3) 0.1278(3)
H1 H -0.0233 0.2135 0.1490
O3 O 0.08967(16) 0.2548(2) 0.1029(2)
C3 C -0.1262(3) 0.2307(4) 0.1529(4)
H2 H -0.1134 0.2890 0.1911
C4 C -0.1973(3) 0.1928(4) 0.1235(4)
H3 H -0.2328 0.2257 0.1406
C5 C -0.2174(2) 0.1044(3) 0.0674(3)
C6 C -0.1626(2) 0.0560(3) 0.0410(3)
C7 C -0.2899(3) 0.0581(4) 0.0340(4)
H4 H -0.3276 0.0876 0.0490
C8 C -0.3050(2) -0.0272(4) -0.0188(3)
H5 H -0.3530 -0.0567 -0.0403
C9 C -0.2474(2) -0.0730(3) -0.0420(3)
C10 C -0.2603(2) -0.1653(3) -0.1004(3)
H6 H -0.2226 -0.1825 -0.1208
C11 C -0.3198(2) -0.2267(3) -0.1272(3)
H7 H -0.3572 -0.2106 -0.1060
C12 C -0.3324(2) -0.3177(3) -0.1870(3)
C13 C -0.2821(2) -0.3529(4) -0.2235(3)
H8 H -0.2352 -0.3211 -0.2067
C14 C -0.3015(2) -0.4346(4) -0.2846(3)
H9 H -0.2670 -0.4563 -0.3087
C15 C -0.4131(2) -0.4554(4) -0.2723(3)
H10 H -0.4581 -0.4918 -0.2873
C16 C -0.3985(2) -0.3738(4) -0.2106(3)
H11 H -0.4330 -0.3567 -0.1850
C17 C -0.0188(3) 0.4337(3) -0.0760(4)
H12 H -0.0314 0.3900 -0.1271
C18 C 0.0252(3) 0.3967(3) 0.0116(3)
C19 C 0.0443(3) 0.4624(4) 0.0874(4)
H13 H 0.0742 0.4377 0.1461
C20 C 0.0523(2) 0.2889(2) 0.0255(3)
O2D O -0.03508(19) 0.7691(2) 0.0448(2)
O3D O -0.08967(16) 0.7452(2) -0.1029(2)
C17D C 0.0188(3) 0.5663(3) 0.0760(4)
H12D H 0.0314 0.6100 0.1271
C18D C -0.0252(3) 0.6033(3) -0.0116(3)
C19D C -0.0443(3) 0.5376(4) -0.0874(4)
H13D H -0.0742 0.5623 -0.1461
C20D C -0.0523(2) 0.7111(2) -0.0255(3)
Cd1D Cd -0.079801(14) -0.08234(2) -0.053222(18)
O1D O 0.03796(13) -0.0495(2) -0.04825(18)
N1D N 0.17900(16) 0.0313(2) 0.0125(2)
C1D C 0.0879(2) -0.0971(3) -0.0715(3)
N2D N 0.36736(17) 0.4847(3) 0.3113(2)
C2D C 0.0715(2) -0.1848(3) -0.1278(3)
H1D H 0.0233 -0.2135 -0.1490
C3D C 0.1262(3) -0.2307(4) -0.1529(4)
H2D H 0.1134 -0.2890 -0.1911
C4D C 0.1973(3) -0.1928(4) -0.1235(4)
H3D H 0.2328 -0.2257 -0.1406
C5D C 0.2174(2) -0.1044(3) -0.0674(3)
C6D C 0.1626(2) -0.0560(3) -0.0410(3)
C7D C 0.2899(3) -0.0581(4) -0.0340(4)
H4D H 0.3276 -0.0876 -0.0490
C8D C 0.3050(2) 0.0272(4) 0.0188(3)
H5D H 0.3530 0.0567 0.0403
C9D C 0.2474(2) 0.0730(3) 0.0420(3)
C10D C 0.2603(2) 0.1653(3) 0.1004(3)
H6D H 0.2226 0.1825 0.1208
C11D C 0.3198(2) 0.2267(3) 0.1272(3)
H7D H 0.3572 0.2106 0.1060
C12D C 0.3324(2) 0.3177(3) 0.1870(3)
C13D C 0.2821(2) 0.3529(4) 0.2235(3)
H8D H 0.2352 0.3211 0.2067
C14D C 0.3015(2) 0.4346(4) 0.2846(3)
H9D H 0.2670 0.4563 0.3087
C15D C 0.4131(2) 0.4554(4) 0.2723(3)
H10D H 0.4581 0.4918 0.2873
C16D C 0.3985(2) 0.3738(4) 0.2106(3)
H11D H 0.4330 0.3567 0.1850
Cd1C Cd 0.420199(14) 0.58234(2) 0.446778(18)
Cd1D_2 Cd -0.079801(14) 0.91766(2) -0.053222(18)
Cd1G Cd -0.420199(14) -0.58234(2) -0.446778(18)
O2D_2 O -0.03508(19) -0.2309(2) 0.0448(2)
N2C N -0.13264(17) 0.0153(3) -0.1887(2)
N2G N 0.13264(17) -0.0153(3) 0.1887(2)
O3D_2 O -0.08967(16) -0.2548(2) -0.1029(2)
loop_
_geom_bond_atom_site_label_1
_geom_bond_atom_site_label_2
_geom_bond_site_symmetry_1
_geom_bond_site_symmetry_2
Cd1 O1 1_555 1_555
O1 C1 1_555 1_555
N1 C6 1_555 1_555
C1 C2 1_555 1_555
O2 Cd1 1_555 1_555
N2 C14 1_555 1_555
C2 H1 1_555 1_555
O3 Cd1 1_555 1_555
C3 C2 1_555 1_555
H2 C3 1_555 1_555
C4 C3 1_555 1_555
H3 C4 1_555 1_555
C5 C4 1_555 1_555
C6 C1 1_555 1_555
C7 C5 1_555 1_555
H4 C7 1_555 1_555
C8 C7 1_555 1_555
H5 C8 1_555 1_555
C9 N1 1_555 1_555
C10 C9 1_555 1_555
H6 C10 1_555 1_555
C11 C10 1_555 1_555
H7 C11 1_555 1_555
C12 C11 1_555 1_555
C13 C12 1_555 1_555
H8 C13 1_555 1_555
C14 C13 1_555 1_555
H9 C14 1_555 1_555
C15 N2 1_555 1_555
H10 C15 1_555 1_555
C16 C12 1_555 1_555
H11 C16 1_555 1_555
C17 H12 1_555 1_555
C18 C17 1_555 1_555
C19 C18 1_555 1_555
H13 C19 1_555 1_555
C20 O2 1_555 1_555
O2D C20D 1_555 1_555
O3D C20D 1_555 1_555
C17D C19 1_555 1_555
H12D C17D 1_555 1_555
C18D C17D 1_555 1_555
C19D C17 1_555 1_555
H13D C19D 1_555 1_555
C20D C18D 1_555 1_555
Cd1D O1 1_555 1_555
O1D Cd1 1_555 1_555
N1D Cd1 1_555 1_555
C1D O1D 1_555 1_555
N2D C14D 1_555 1_555
C2D C1D 1_555 1_555
H1D C2D 1_555 1_555
C3D C2D 1_555 1_555
H2D C3D 1_555 1_555
C4D C3D 1_555 1_555
H3D C4D 1_555 1_555
C5D C4D 1_555 1_555
C6D N1D 1_555 1_555
C7D C5D 1_555 1_555
H4D C7D 1_555 1_555
C8D C7D 1_555 1_555
H5D C8D 1_555 1_555
C9D N1D 1_555 1_555
C10D C9D 1_555 1_555
H6D C10D 1_555 1_555
C11D C10D 1_555 1_555
H7D C11D 1_555 1_555
C12D C11D 1_555 1_555
C13D C12D 1_555 1_555
H8D C13D 1_555 1_555
C14D C13D 1_555 1_555
H9D C14D 1_555 1_555
C15D N2D 1_555 1_555
H10D C15D 1_555 1_555
C16D C12D 1_555 1_555
H11D C16D 1_555 1_555
Cd1C N2D 1_555 1_555
Cd1D_2 O2D 1_555 1_555
Cd1G N2 1_555 1_555
O2D_2 Cd1D 1_555 1_555
N2C Cd1D 1_555 1_555
N2G Cd1 1_555 1_555
O3D_2 Cd1D 1_555 1_555
N1 Cd1D 1_555 1_555
O3 C20 1_555 1_555
C5 C6 1_555 1_555
C8 C9 1_555 1_555
C15 C16 1_555 1_555
C18 C20 1_555 1_555
O3D Cd1D_2 1_555 1_555
C18D C19D 1_555 1_555
Cd1D O1D 1_555 1_555
C1D C6D 1_555 1_555
C5D C6D 1_555 1_555
C8D C9D 1_555 1_555
C15D C16D 1_555 1_555

#END
