
#######################################################################
#
#                 Cambridge Crystallographic Data Centre
#                                CCDC 
#
#######################################################################
#
# If this CIF has been generated from an entry in the Cambridge 
# Structural Database, then it will include bibliographic, chemical, 
# crystal, experimental, refinement or atomic coordinate data resulting 
# from the CCDC's data processing and validation procedures.
#
#######################################################################

data_GUPBEZ01
_symmetry_cell_setting           tetragonal
_symmetry_space_group_name_H-M   'P 4/m c c'
_symmetry_Int_Tables_number      124
_space_group_name_Hall           '-P 4 2c'
loop_
_symmetry_equiv_pos_site_id
_symmetry_equiv_pos_as_xyz
1 x,y,z
2 x,-y,1/2-z
3 -x,-y,z
4 -x,y,1/2-z
5 y,x,1/2-z
6 y,-x,z
7 -y,x,z
8 -y,-x,1/2-z
9 -x,-y,-z
10 -x,y,1/2+z
11 x,y,-z
12 x,-y,1/2+z
13 -y,-x,1/2+z
14 -y,x,-z
15 y,-x,-z
16 y,x,1/2+z
_cell_length_a                   18.2095(14)
_cell_length_b                   18.2095(14)
_cell_length_c                   16.0985(17)
_cell_angle_alpha                90
_cell_angle_beta                 90
_cell_angle_gamma                90
_cell_volume                     5338.04
loop_
_atom_site_label
_atom_site_type_symbol
_atom_site_fract_x
_atom_site_fract_y
_atom_site_fract_z
N1 N 0.2603(3) 0.1482(3) 0.0000
N2 N 0.2954(3) 0.0099(3) 0.0000
N3 N 0.2249(3) 0.4544(2) 0.1877(3)
C1 C 0.2143(4) 0.0198(4) 0.0000
H1 H 0.1937 -0.0038 0.0487
C2 C 0.1930(4) 0.1011(4) 0.0000
H2 H 0.1637 0.1119 -0.0488
C3 C 0.2584(4) 0.5251(3) 0.1653(4)
H3 H 0.2284 0.5493 0.1237
H4 H 0.3067 0.5166 0.1416
C4 C 0.3251(3) 0.0474(3) 0.0747(4)
H5 H 0.3782 0.0428 0.0757
H6 H 0.3058 0.0242 0.1244
C5 C 0.1498(3) 0.4689(4) 0.2188(4)
H7 H 0.1305 0.4248 0.2447
H8 H 0.1181 0.4814 0.1725
C6 C 0.3036(4) 0.1295(3) 0.0740(4)
H9 H 0.2753 0.1407 0.1234
H10 H 0.3478 0.1593 0.0752
C7 C 0.2655(4) 0.4250(3) 0.2577(5)
H11 H 0.3169 0.4204 0.2428
H12 H 0.2471 0.3765 0.2710
I1 I 0.11118(3) 0.46567(3) 0.0000
I2 I 0.15147(2) 0.26530(2) 0.14456(3)
I3 I 0.33702(3) 0.35833(3) 0.0000
Cu1 Cu 0.10134(6) 0.32099(6) 0.0000
Cu2 Cu 0.22911(6) 0.25812(6) 0.0000
Cu3 Cu 0.21480(5) 0.38572(4) 0.08372(5)
N2F N -0.0099(3) 0.2954(3) 0.0000
N3A N 0.2249(3) 0.5456(2) 0.3123(3)
H1J H 0.1937 -0.0038 -0.0487
H2J H 0.1637 0.1119 0.0488
C3A C 0.2584(4) 0.4749(3) 0.3347(4)
H3A H 0.2284 0.4507 0.3763
H4A H 0.3067 0.4834 0.3584
C4J C 0.3251(3) 0.0474(3) -0.0747(4)
H5J H 0.3782 0.0428 -0.0757
H6J H 0.3058 0.0242 -0.1244
C5A C 0.1498(3) 0.5311(4) 0.2812(4)
H7A H 0.1305 0.5752 0.2553
H8A H 0.1181 0.5186 0.3275
C6J C 0.3036(4) 0.1295(3) -0.0740(4)
H9J H 0.2753 0.1407 -0.1234
H10J H 0.3478 0.1593 -0.0752
C7A C 0.2655(4) 0.5750(3) 0.2423(5)
H11A H 0.3169 0.5796 0.2572
H12A H 0.2471 0.6235 0.2290
I1A I 0.11118(3) 0.53433(3) 0.5000
I2A I 0.15147(2) 0.73470(2) 0.35544(3)
I2J I 0.15147(2) 0.26530(2) -0.14456(3)
I3A I 0.33702(3) 0.64167(3) 0.5000
Cu1E Cu 0.32099(6) -0.10134(6) 0.0000
Cu1A Cu 0.10134(6) 0.67901(6) 0.5000
Cu2A Cu 0.22911(6) 0.74188(6) 0.5000
Cu3A Cu 0.21480(5) 0.61428(4) 0.41628(5)
Cu3J Cu 0.21480(5) 0.38572(4) -0.08372(5)
Cu3K Cu 0.21480(5) 0.61428(4) 0.58372(5)
loop_
_geom_bond_atom_site_label_1
_geom_bond_atom_site_label_2
_geom_bond_site_symmetry_1
_geom_bond_site_symmetry_2
N1 C2 1_555 1_555
N2 C1 1_555 1_555
N3 C3 1_555 1_555
C1 H1 1_555 1_555
C2 C1 1_555 1_555
H2 C2 1_555 1_555
C3 H3 1_555 1_555
H4 C3 1_555 1_555
C4 N2 1_555 1_555
H5 C4 1_555 1_555
H6 C4 1_555 1_555
C5 N3 1_555 1_555
H7 C5 1_555 1_555
H8 C5 1_555 1_555
C6 N1 1_555 1_555
H9 C6 1_555 1_555
H10 C6 1_555 1_555
C7 N3 1_555 1_555
H11 C7 1_555 1_555
H12 C7 1_555 1_555
I1 Cu1 1_555 1_555
I2 Cu1 1_555 1_555
I3 Cu2 1_555 1_555
Cu1 Cu2 1_555 1_555
Cu2 N1 1_555 1_555
Cu3 N3 1_555 1_555
N2F Cu1 1_555 1_555
N3A C3A 1_555 1_555
H1J C1 1_555 1_555
H2J C2 1_555 1_555
C3A C7 1_555 1_555
H3A C3A 1_555 1_555
H4A C3A 1_555 1_555
C4J N2 1_555 1_555
H5J C4J 1_555 1_555
H6J C4J 1_555 1_555
C5A C5 1_555 1_555
H7A C5A 1_555 1_555
H8A C5A 1_555 1_555
C6J N1 1_555 1_555
H9J C6J 1_555 1_555
H10J C6J 1_555 1_555
C7A C3 1_555 1_555
H11A C7A 1_555 1_555
H12A C7A 1_555 1_555
I1A Cu1A 1_555 1_555
I2A Cu1A 1_555 1_555
I2J Cu1 1_555 1_555
I3A Cu2A 1_555 1_555
Cu1E N2 1_555 1_555
Cu1A Cu2A 1_555 1_555
Cu2A I2A 1_555 1_555
Cu3A N3A 1_555 1_555
Cu3J I1 1_555 1_555
Cu3K I1A 1_555 1_555
C4 C6 1_555 1_555
I1 Cu3 1_555 1_555
I2 Cu2 1_555 1_555
I2 Cu3 1_555 1_555
I3 Cu3 1_555 1_555
I3 Cu3J 1_555 1_555
Cu1 Cu3 1_555 1_555
Cu1 Cu3J 1_555 1_555
Cu2 Cu3 1_555 1_555
Cu2 I2J 1_555 1_555
Cu2 Cu3J 1_555 1_555
Cu3 Cu3J 1_555 1_555
N3A C5A 1_555 1_555
N3A C7A 1_555 1_555
C4J C6J 1_555 1_555
I1A Cu3A 1_555 1_555
I2A Cu3A 1_555 1_555
I2J Cu3J 1_555 1_555
I3A Cu3A 1_555 1_555
I3A Cu3K 1_555 1_555
Cu1A Cu3A 1_555 1_555
Cu1A Cu3K 1_555 1_555
Cu2A Cu3A 1_555 1_555
Cu2A Cu3K 1_555 1_555
Cu3A Cu3K 1_555 1_555

#END
