
#######################################################################
#
#                 Cambridge Crystallographic Data Centre
#                                CCDC 
#
#######################################################################
#
# If this CIF has been generated from an entry in the Cambridge 
# Structural Database, then it will include bibliographic, chemical, 
# crystal, experimental, refinement or atomic coordinate data resulting 
# from the CCDC's data processing and validation procedures.
#
#######################################################################

data_GUPBOK
_symmetry_cell_setting           triclinic
_symmetry_space_group_name_H-M   'P -1'
_symmetry_Int_Tables_number      2
_space_group_name_Hall           '-P 1'
loop_
_symmetry_equiv_pos_site_id
_symmetry_equiv_pos_as_xyz
1 x,y,z
2 -x,-y,-z
_cell_length_a                   7.708(3)
_cell_length_b                   8.505(4)
_cell_length_c                   9.689(4)
_cell_angle_alpha                112.204(16)
_cell_angle_beta                 90.766(11)
_cell_angle_gamma                102.260(11)
_cell_volume                     571.579
loop_
_atom_site_label
_atom_site_type_symbol
_atom_site_fract_x
_atom_site_fract_y
_atom_site_fract_z
O1 O -0.4608(4) 0.3179(4) 0.0694(3)
H1 H -0.462(6) 0.328(6) -0.020(3)
H2 H -0.557(4) 0.236(5) 0.067(5)
C1 C 0.2094(5) 0.2060(5) 0.2671(4)
C2 C 0.2184(5) 0.1525(5) 0.3972(4)
C3 C 0.1687(5) 0.2532(5) 0.5351(4)
H3 H 0.1293 0.3555 0.5463
C4 C 0.1769(5) 0.2039(5) 0.6554(4)
C5 C 0.1187(5) 0.3112(5) 0.8017(4)
C6 C 0.2316(5) 0.0523(5) 0.6392(4)
H4 H 0.2383 0.0193 0.7221
C7 C 0.2759(5) -0.0494(5) 0.5015(4)
C8 C 0.2709(5) 0.0016(5) 0.3808(4)
H5 H 0.3038 -0.0679 0.2870
C9 C 0.3122(6) -0.2719(5) 0.5871(4)
H6 H 0.3961 -0.1911 0.6741
H7 H 0.3421 -0.3862 0.5498
H8 H 0.1905 -0.2843 0.6165
O2 O 0.1564(4) 0.3440(3) 0.2913(3)
O3 O 0.2558(4) 0.1166(4) 0.1444(3)
O4 O -0.1511(4) 0.2108(4) 0.0677(3)
O5 O 0.0239(4) 0.4124(4) 0.7993(3)
O6 O 0.3586(4) 0.5864(4) 0.1745(3)
O7 O 0.1681(4) 0.2884(4) 0.9156(3)
O8 O 0.3237(4) -0.2049(3) 0.4714(3)
Zn1 Zn 0.09006(7) 0.39077(6) 0.11555(5)
H9 H -0.254(3) 0.245(5) 0.068(4)
H10 H -0.158(5) 0.110(3) -0.011(3)
H11 H 0.433(5) 0.515(4) 0.164(4)
H12 H 0.366(5) 0.657(4) 0.2712(17)
O5A O -0.0239(4) 0.5876(4) 0.2007(3)
O7_2 O 0.1681(4) 0.2884(4) -0.0844(3)
Zn1_2 Zn 0.09006(7) 0.39077(6) 1.11555(5)
Zn1A Zn -0.09006(7) 0.60923(6) 0.88445(5)
loop_
_geom_bond_atom_site_label_1
_geom_bond_atom_site_label_2
_geom_bond_site_symmetry_1
_geom_bond_site_symmetry_2
O1 H1 1_555 1_555
H2 O1 1_555 1_555
C1 C2 1_555 1_555
C2 C3 1_555 1_555
C3 H3 1_555 1_555
C4 C3 1_555 1_555
C5 C4 1_555 1_555
C6 C4 1_555 1_555
H4 C6 1_555 1_555
C7 C6 1_555 1_555
C8 C2 1_555 1_555
H5 C8 1_555 1_555
C9 H6 1_555 1_555
H7 C9 1_555 1_555
H8 C9 1_555 1_555
O2 C1 1_555 1_555
O3 C1 1_555 1_555
O4 Zn1 1_555 1_555
O5 C5 1_555 1_555
O6 Zn1 1_555 1_555
O7 C5 1_555 1_555
O8 C7 1_555 1_555
Zn1 O2 1_555 1_555
H9 O4 1_555 1_555
H10 O4 1_555 1_555
H11 O6 1_555 1_555
H12 O6 1_555 1_555
O5A Zn1 1_555 1_555
O7_2 Zn1 1_555 1_555
Zn1_2 O7 1_555 1_555
Zn1A O5 1_555 1_555
C7 C8 1_555 1_555
C9 O8 1_555 1_555

#END
