
#######################################################################
#
#                 Cambridge Crystallographic Data Centre
#                                CCDC 
#
#######################################################################
#
# If this CIF has been generated from an entry in the Cambridge 
# Structural Database, then it will include bibliographic, chemical, 
# crystal, experimental, refinement or atomic coordinate data resulting 
# from the CCDC's data processing and validation procedures.
#
#######################################################################

data_GUPBEY
_symmetry_cell_setting           orthorhombic
_symmetry_space_group_name_H-M   'P 21 21 21'
_symmetry_Int_Tables_number      19
_space_group_name_Hall           'P 2ac 2ab'
loop_
_symmetry_equiv_pos_site_id
_symmetry_equiv_pos_as_xyz
1 x,y,z
2 1/2-x,-y,1/2+z
3 1/2+x,1/2-y,-z
4 -x,1/2+y,1/2-z
_cell_length_a                   6.8284(2)
_cell_length_b                   9.3054(3)
_cell_length_c                   16.1576(11)
_cell_angle_alpha                90
_cell_angle_beta                 90
_cell_angle_gamma                90
_cell_volume                     1026.67
loop_
_atom_site_label
_atom_site_type_symbol
_atom_site_fract_x
_atom_site_fract_y
_atom_site_fract_z
Cu1 Cu -0.55490(9) -0.16258(7) 0.44981(3)
S1 S -0.19812(13) -0.16485(11) 0.47124(5)
C1 C -0.6869(7) 0.0257(5) 0.4912(3)
H1 H -0.6543 0.0394 0.5466
H2 H -0.8071 -0.0146 0.4772
C2 C -0.5607(6) 0.0641(5) 0.4317(3)
H3 H -0.5973 0.0491 0.3769
C3 C -0.3624(6) 0.1302(4) 0.4483(3)
H4 H -0.2717 0.0983 0.4059
H5 H -0.3735 0.2338 0.4440
N1 N -0.2818(5) 0.0939(4) 0.5294(2)
H6 H -0.2816 0.1586 0.5674
C4 C -0.2091(5) -0.0348(4) 0.5466(2)
N2 N -0.1463(5) -0.0585(4) 0.6230(2)
H7 H -0.1452 0.0114 0.6579
N3 N -0.0809(5) -0.1957(4) 0.64874(19)
H8 H -0.1660 -0.2318 0.6858
H9 H 0.0361 -0.1867 0.6739
Cu1B Cu -0.05490(9) -0.33742(7) 0.55019(3)
N3B N -0.5809(5) -0.3043(4) 0.35126(19)
H8B H -0.6660 -0.2682 0.3142
H9B H -0.4639 -0.3133 0.3261
S1B S -0.69812(13) -0.33515(11) 0.52876(5)
S2 S -0.11824(15) -0.24507(11) 0.24075(6)
O1 O -0.1450(5) -0.3672(3) 0.2953(2)
O2 O -0.0425(6) -0.2793(4) 0.15895(19)
O3 O -0.2981(5) -0.1602(4) 0.2358(2)
N4 N 0.0562(6) -0.1489(5) 0.2842(3)
H10 H 0.011(9) -0.137(6) 0.326(3)
H11 H 0.083(9) -0.058(8) 0.251(4)
loop_
_geom_bond_atom_site_label_1
_geom_bond_atom_site_label_2
_geom_bond_site_symmetry_1
_geom_bond_site_symmetry_2
Cu1 S1 1_555 1_555
S1 C4 1_555 1_555
C1 Cu1 1_555 1_555
H1 C1 1_555 1_555
H2 C1 1_555 1_555
C2 Cu1 1_555 1_555
H3 C2 1_555 1_555
C3 C2 1_555 1_555
H4 C3 1_555 1_555
H5 C3 1_555 1_555
N1 C3 1_555 1_555
H6 N1 1_555 1_555
C4 N1 1_555 1_555
N2 C4 1_555 1_555
H7 N2 1_555 1_555
N3 N2 1_555 1_555
H8 N3 1_555 1_555
H9 N3 1_555 1_555
S2 O1 1_555 1_555
O2 S2 1_555 1_555
O3 S2 1_555 1_555
N4 S2 1_555 1_555
H10 N4 1_555 1_555
H11 N4 1_555 1_555
Cu1B S1 1_555 1_555
N3B Cu1 1_555 1_555
H8B N3B 1_555 1_555
H9B N3B 1_555 1_555
S1B Cu1 1_555 1_555
C1 C2 1_555 1_555
N3 Cu1B 1_555 1_555

#END
