
#######################################################################
#
#                 Cambridge Crystallographic Data Centre
#                                CCDC 
#
#######################################################################
#
# If this CIF has been generated from an entry in the Cambridge 
# Structural Database, then it will include bibliographic, chemical, 
# crystal, experimental, refinement or atomic coordinate data resulting 
# from the CCDC's data processing and validation procedures.
#
#######################################################################

data_GUPCUQ
_symmetry_cell_setting           orthorhombic
_symmetry_space_group_name_H-M   'P b c a'
_symmetry_Int_Tables_number      61
_space_group_name_Hall           '-P 2ac 2ab'
loop_
_symmetry_equiv_pos_site_id
_symmetry_equiv_pos_as_xyz
1 x,y,z
2 1/2-x,-y,1/2+z
3 -x,1/2+y,1/2-z
4 1/2+x,1/2-y,-z
5 -x,-y,-z
6 1/2+x,y,1/2-z
7 x,1/2-y,1/2+z
8 1/2-x,1/2+y,z
_cell_length_a                   15.8508(18)
_cell_length_b                   11.9363(14)
_cell_length_c                   24.097(3)
_cell_angle_alpha                90
_cell_angle_beta                 90
_cell_angle_gamma                90
_cell_volume                     4559.15
loop_
_atom_site_label
_atom_site_type_symbol
_atom_site_fract_x
_atom_site_fract_y
_atom_site_fract_z
Cd1 Cd -0.18603(3) 0.29135(3) 1.012729(17)
Cd2 Cd -0.06387(3) 0.24303(3) 1.261540(17)
C1 C -0.1134(3) 0.2919(4) 1.1348(2)
C2 C 0.0128(4) 0.3401(5) 1.1396(3)
H1 H 0.0668 0.3566 1.1522
C3 C -0.0141(4) 0.3507(5) 1.0864(2)
H2 H 0.0189 0.3752 1.0569
C4 C -0.2329(3) 0.0327(4) 1.0166(2)
C5 C -0.1323(4) -0.0734(5) 1.0388(3)
H3 H -0.0995 -0.1355 1.0475
C6 C -0.1051(4) 0.0354(5) 1.0376(3)
H4 H -0.0505 0.0590 1.0455
C7 C -0.1358(3) 0.2847(4) 0.8837(2)
C8 C -0.2679(4) 0.2874(6) 0.8864(3)
H5 H -0.3237 0.2904 0.8983
C9 C -0.2416(4) 0.2785(6) 0.8322(3)
H6 H -0.2768 0.2748 0.8014
C10 C -0.0084(3) -0.0089(4) 1.2327(2)
C11 C -0.1399(4) -0.0089(5) 1.2253(3)
H7 H -0.1964 0.0122 1.2250
C12 C -0.1096(4) -0.1144(5) 1.2143(3)
H8 H -0.1425 -0.1760 1.2049
O1 O -0.2078(2) 0.2383(3) 1.20213(16)
O2 O -0.2502(3) 0.2474(3) 1.11726(18)
O3 O -0.3694(2) -0.0004(3) 0.99275(17)
O4 O -0.3276(2) 0.1714(3) 0.99850(17)
O5 O -0.0374(3) 0.2854(4) 0.95291(19)
O6 O 0.0047(3) 0.2968(4) 0.86774(19)
O7 O 0.0851(3) 0.1313(3) 1.25247(19)
O8 O 0.1339(3) -0.0369(3) 1.23987(19)
N1 N -0.1951(3) 0.2573(4) 1.1520(2)
N2 N -0.0512(3) 0.3020(4) 1.17117(18)
N3 N -0.0955(3) 0.3205(4) 1.08294(18)
N4 N -0.3153(3) 0.0697(4) 1.00201(18)
N5 N -0.1698(3) 0.1035(4) 1.0232(2)
N6 N -0.2153(3) -0.0754(4) 1.0252(2)
N7 N -0.0508(3) 0.2896(4) 0.9027(2)
N8 N -0.1987(3) 0.2910(4) 0.91960(19)
N9 N -0.1564(3) 0.2760(4) 0.83089(19)
N10 N 0.0754(3) 0.0310(4) 1.2424(2)
N11 N -0.0735(3) 0.0593(4) 1.2367(2)
N12 N -0.0249(3) -0.1148(3) 1.21931(19)
Cd1G Cd -0.31397(3) -0.20865(3) 1.012729(17)
Cd2F Cd -0.06387(3) 0.25697(3) 0.761540(17)
Cd2B Cd 0.06387(3) -0.25697(3) 1.238460(17)
N6G N -0.2847(3) 0.4246(4) 1.0252(2)
N9F N -0.1564(3) 0.2240(4) 1.33089(19)
N12B N 0.0249(3) 0.3852(3) 1.28069(19)
loop_
_geom_bond_atom_site_label_1
_geom_bond_atom_site_label_2
_geom_bond_site_symmetry_1
_geom_bond_site_symmetry_2
Cd1 N3 1_555 1_555
Cd2 N2 1_555 1_555
C1 N1 1_555 1_555
C2 H1 1_555 1_555
C3 C2 1_555 1_555
H2 C3 1_555 1_555
C4 N4 1_555 1_555
C5 H3 1_555 1_555
C6 C5 1_555 1_555
H4 C6 1_555 1_555
C7 N7 1_555 1_555
C8 H5 1_555 1_555
C9 C8 1_555 1_555
H6 C9 1_555 1_555
C10 N10 1_555 1_555
C11 H7 1_555 1_555
C12 C11 1_555 1_555
H8 C12 1_555 1_555
O1 N1 1_555 1_555
O2 N1 1_555 1_555
O3 N4 1_555 1_555
O4 N4 1_555 1_555
O5 N7 1_555 1_555
O6 N7 1_555 1_555
O7 N10 1_555 1_555
O8 N10 1_555 1_555
N2 C1 1_555 1_555
N3 C1 1_555 1_555
N5 Cd1 1_555 1_555
N6 C4 1_555 1_555
N8 Cd1 1_555 1_555
N9 C7 1_555 1_555
N11 Cd2 1_555 1_555
N12 C10 1_555 1_555
Cd1G N6 1_555 1_555
Cd2F N9 1_555 1_555
Cd2B N12 1_555 1_555
N6G Cd1 1_555 1_555
N9F Cd2 1_555 1_555
N12B Cd2 1_555 1_555
C2 N2 1_555 1_555
C3 N3 1_555 1_555
C4 N5 1_555 1_555
C5 N6 1_555 1_555
C6 N5 1_555 1_555
C7 N8 1_555 1_555
C8 N8 1_555 1_555
C9 N9 1_555 1_555
C10 N11 1_555 1_555
C11 N11 1_555 1_555
C12 N12 1_555 1_555

#END
