
#######################################################################
#
#                 Cambridge Crystallographic Data Centre
#                                CCDC 
#
#######################################################################
#
# If this CIF has been generated from an entry in the Cambridge 
# Structural Database, then it will include bibliographic, chemical, 
# crystal, experimental, refinement or atomic coordinate data resulting 
# from the CCDC's data processing and validation procedures.
#
#######################################################################

data_GUPCOJ
_symmetry_cell_setting           monoclinic
_symmetry_space_group_name_H-M   'P 21'
_symmetry_Int_Tables_number      4
_space_group_name_Hall           'P 2yb'
loop_
_symmetry_equiv_pos_site_id
_symmetry_equiv_pos_as_xyz
1 x,y,z
2 -x,1/2+y,-z
_cell_length_a                   6.1926(6)
_cell_length_b                   6.9566(7)
_cell_length_c                   27.230(3)
_cell_angle_alpha                90
_cell_angle_beta                 93.914(4)
_cell_angle_gamma                90
_cell_volume                     1170.32
loop_
_atom_site_label
_atom_site_type_symbol
_atom_site_fract_x
_atom_site_fract_y
_atom_site_fract_z
Rb1 Rb 0.20751(18) 0.4063(2) 0.25272(6)
Rb2 Rb -0.23969(18) -0.1229(2) 0.25345(6)
S1 S -0.2674(5) 0.3913(7) 0.16802(16)
S2 S 0.7263(5) 0.3269(7) 0.32539(17)
N1 N -0.2162(18) 0.2428(17) -0.1293(5)
H1 H -0.0931 0.2011 -0.1376
H2 H -0.3194 0.2626 -0.1515
N2 N 0.7379(18) 0.4910(18) 0.6238(5)
H3 H 0.6199 0.5418 0.6326
H4 H 0.8427 0.4686 0.6454
O1 O -0.1813(17) 0.2241(16) 0.1955(5)
O2 O -0.1502(17) 0.5691(16) 0.1821(5)
O3 O -0.5028(12) 0.4151(18) 0.1705(4)
O4 O 0.5501(15) 0.1934(16) 0.3100(5)
O5 O 0.7116(17) 0.5124(18) 0.3010(5)
O6 O 0.9355(15) 0.2295(15) 0.3234(4)
O7 O 0.3461(15) 0.0323(16) 0.2006(5)
O8 O 0.2347(14) 0.8039(15) 0.2791(5)
C1 C -0.3749(17) 0.384(2) 0.0688(5)
H5 H -0.5111 0.4263 0.0764
C2 C -0.2229(18) 0.349(2) 0.1059(6)
C3 C -0.016(2) 0.279(2) 0.0926(7)
H6 H 0.0908 0.2554 0.1176
C4 C 0.030(2) 0.247(2) 0.0470(6)
H7 H 0.1661 0.1990 0.0406
C5 C -0.089(2) 0.249(2) -0.0427(6)
H8 H 0.0468 0.2052 -0.0502
C6 C -0.248(2) 0.278(2) -0.0805(7)
C7 C -0.4535(17) 0.360(2) -0.0669(6)
H9 H -0.5600 0.3880 -0.0916
C8 C -0.4926(17) 0.395(3) -0.0203(5)
H10 H -0.6262 0.4448 -0.0132
C9 C -0.3330(17) 0.357(2) 0.0194(6)
C10 C -0.128(2) 0.285(2) 0.0062(7)
C11 C 0.8534(19) 0.329(2) 0.4246(6)
H11 H 0.9833 0.2752 0.4162
C12 C 0.6938(17) 0.370(2) 0.3880(6)
C13 C 0.4953(19) 0.450(2) 0.4020(7)
H12 H 0.3870 0.4795 0.3778
C14 C 0.4614(19) 0.484(2) 0.4501(6)
H13 H 0.3302 0.5349 0.4584
C15 C 0.596(2) 0.477(2) 0.5375(6)
H14 H 0.4635 0.5248 0.5463
C16 C 0.7594(19) 0.445(2) 0.5741(6)
C17 C 0.9574(17) 0.369(2) 0.5605(6)
H15 H 1.0684 0.3464 0.5845
C18 C 0.9890(19) 0.327(2) 0.5118(6)
H16 H 1.1194 0.2731 0.5038
C19 C 0.8233(17) 0.366(2) 0.4732(6)
C20 C 0.6256(18) 0.441(2) 0.4877(6)
Rb2_2 Rb -0.23969(18) 0.8771(2) 0.25345(6)
Rb2_3 Rb 0.76031(18) 0.8771(2) 0.25345(6)
O3_2 O 0.4972(12) 0.4151(18) 0.1705(4)
O6_2 O -0.0645(15) 0.2295(15) 0.3234(4)
Rb1_2 Rb 0.20751(18) -0.5937(2) 0.25272(6)
O2_2 O -0.1502(17) -0.4309(16) 0.1821(5)
O4_2 O -0.4499(15) 0.1934(16) 0.3100(5)
O5_2 O -0.2884(17) -0.4876(18) 0.3010(5)
O7_2 O -0.6539(15) 0.0323(16) 0.2006(5)
O8_2 O -0.7653(14) -0.1961(15) 0.2791(5)
O8_3 O 0.2347(14) -0.1961(15) 0.2791(5)
Rb1_3 Rb -0.79249(18) 0.4063(2) 0.25272(6)
Rb2_4 Rb 0.76031(18) -0.1229(2) 0.25345(6)
Rb1_4 Rb 1.20751(18) 0.4063(2) 0.25272(6)
loop_
_geom_bond_atom_site_label_1
_geom_bond_atom_site_label_2
_geom_bond_site_symmetry_1
_geom_bond_site_symmetry_2
Rb1 O1 1_555 1_555
Rb2 O1 1_555 1_555
S1 O1 1_555 1_555
S2 O4 1_555 1_555
N1 H1 1_555 1_555
H2 N1 1_555 1_555
N2 H3 1_555 1_555
H4 N2 1_555 1_555
O2 Rb1 1_555 1_555
O3 S1 1_555 1_555
O4 Rb1 1_555 1_555
O5 Rb1 1_555 1_555
O6 S2 1_555 1_555
O7 Rb1 1_555 1_555
O8 Rb1 1_555 1_555
C1 H5 1_555 1_555
C2 S1 1_555 1_555
C3 C2 1_555 1_555
H6 C3 1_555 1_555
C4 C3 1_555 1_555
H7 C4 1_555 1_555
C5 H8 1_555 1_555
C6 N1 1_555 1_555
C7 C6 1_555 1_555
H9 C7 1_555 1_555
C8 C7 1_555 1_555
H10 C8 1_555 1_555
C9 C1 1_555 1_555
C10 C4 1_555 1_555
C11 H11 1_555 1_555
C12 S2 1_555 1_555
C13 C12 1_555 1_555
H12 C13 1_555 1_555
C14 C13 1_555 1_555
H13 C14 1_555 1_555
C15 H14 1_555 1_555
C16 N2 1_555 1_555
C17 C16 1_555 1_555
H15 C17 1_555 1_555
C18 C17 1_555 1_555
H16 C18 1_555 1_555
C19 C11 1_555 1_555
C20 C14 1_555 1_555
Rb2_2 O2 1_555 1_555
Rb2_3 O5 1_555 1_555
O3_2 Rb1 1_555 1_555
O6_2 Rb1 1_555 1_555
Rb1_2 O2_2 1_555 1_555
O2_2 Rb2 1_555 1_555
O4_2 Rb2 1_555 1_555
O5_2 Rb2 1_555 1_555
O7_2 Rb2 1_555 1_555
O8_2 Rb2 1_555 1_555
O8_3 Rb2 1_555 1_555
Rb1_3 O3 1_555 1_555
Rb2_4 O4 1_555 1_555
Rb1_4 O6 1_555 1_555
Rb2 O6_2 1_555 1_555
S1 O2 1_555 1_555
S2 O5 1_555 1_555
O6 Rb2_4 1_555 1_555
O7 Rb2_4 1_555 1_555
O8 Rb2_2 1_555 1_555
O8 Rb2_3 1_555 1_555
C1 C2 1_555 1_555
C5 C6 1_555 1_555
C5 C10 1_555 1_555
C8 C9 1_555 1_555
C9 C10 1_555 1_555
C11 C12 1_555 1_555
C15 C16 1_555 1_555
C15 C20 1_555 1_555
C18 C19 1_555 1_555
C19 C20 1_555 1_555
Rb1_2 O8_3 1_555 1_555
O4_2 Rb1_3 1_555 1_555
O7_2 Rb1_3 1_555 1_555
O8_3 Rb2_4 1_555 1_555

#END
