
#######################################################################
#
#                 Cambridge Crystallographic Data Centre
#                                CCDC 
#
#######################################################################
#
# If this CIF has been generated from an entry in the Cambridge 
# Structural Database, then it will include bibliographic, chemical, 
# crystal, experimental, refinement or atomic coordinate data resulting 
# from the CCDC's data processing and validation procedures.
#
#######################################################################

data_GUPCOK
_symmetry_cell_setting           cubic
_symmetry_space_group_name_H-M   'I a -3 d'
_symmetry_Int_Tables_number      230
_space_group_name_Hall           '-I 4bd 2c 3'
loop_
_symmetry_equiv_pos_site_id
_symmetry_equiv_pos_as_xyz
1 x,y,z
2 1/2-x,-y,1/2+z
3 -x,1/2+y,1/2-z
4 1/2+x,1/2-y,-z
5 z,x,y
6 1/2+z,1/2-x,-y
7 1/2-z,-x,1/2+y
8 -z,1/2+x,1/2-y
9 y,z,x
10 -y,1/2+z,1/2-x
11 1/2+y,1/2-z,-x
12 1/2-y,-z,1/2+x
13 3/4+y,1/4+x,1/4-z
14 3/4-y,3/4-x,3/4-z
15 1/4+y,1/4-x,3/4+z
16 1/4-y,3/4+x,1/4+z
17 3/4+x,1/4+z,1/4-y
18 1/4-x,3/4+z,1/4+y
19 3/4-x,3/4-z,3/4-y
20 1/4+x,1/4-z,3/4+y
21 3/4+z,1/4+y,1/4-x
22 1/4+z,1/4-y,3/4+x
23 1/4-z,3/4+y,1/4+x
24 3/4-z,3/4-y,3/4-x
25 1/2+x,1/2+y,1/2+z
26 -x,1/2-y,z
27 1/2-x,y,-z
28 x,-y,1/2-z
29 1/2+z,1/2+x,1/2+y
30 z,-x,1/2-y
31 -z,1/2-x,y
32 1/2-z,x,-y
33 1/2+y,1/2+z,1/2+x
34 1/2-y,z,-x
35 y,-z,1/2-x
36 -y,1/2-z,x
37 1/4+y,3/4+x,3/4-z
38 1/4-y,1/4-x,1/4-z
39 3/4+y,3/4-x,1/4+z
40 3/4-y,1/4+x,3/4+z
41 1/4+x,3/4+z,3/4-y
42 3/4-x,1/4+z,3/4+y
43 1/4-x,1/4-z,1/4-y
44 3/4+x,3/4-z,1/4+y
45 1/4+z,3/4+y,3/4-x
46 3/4+z,3/4-y,1/4+x
47 3/4-z,1/4+y,3/4+x
48 1/4-z,1/4-y,1/4-x
49 -x,-y,-z
50 1/2+x,y,1/2-z
51 x,1/2-y,1/2+z
52 1/2-x,1/2+y,z
53 -z,-x,-y
54 1/2-z,1/2+x,y
55 1/2+z,x,1/2-y
56 z,1/2-x,1/2+y
57 -y,-z,-x
58 y,1/2-z,1/2+x
59 1/2-y,1/2+z,x
60 1/2+y,z,1/2-x
61 1/4-y,3/4-x,3/4+z
62 1/4+y,1/4+x,1/4+z
63 3/4-y,3/4+x,1/4-z
64 3/4+y,1/4-x,3/4-z
65 1/4-x,3/4-z,3/4+y
66 3/4+x,1/4-z,3/4-y
67 1/4+x,1/4+z,1/4+y
68 3/4-x,3/4+z,1/4-y
69 1/4-z,3/4-y,3/4+x
70 3/4-z,3/4+y,1/4-x
71 3/4+z,1/4-y,3/4-x
72 1/4+z,1/4+y,1/4+x
73 1/2-x,1/2-y,1/2-z
74 x,1/2+y,-z
75 1/2+x,-y,z
76 -x,y,1/2+z
77 1/2-z,1/2-x,1/2-y
78 -z,x,1/2+y
79 z,1/2+x,-y
80 1/2+z,-x,y
81 1/2-y,1/2-z,1/2-x
82 1/2+y,-z,x
83 -y,z,1/2+x
84 y,1/2+z,-x
85 3/4-y,1/4-x,1/4+z
86 3/4+y,3/4+x,3/4+z
87 1/4-y,1/4+x,3/4-z
88 1/4+y,3/4-x,1/4-z
89 3/4-x,1/4-z,1/4+y
90 1/4+x,3/4-z,1/4-y
91 3/4+x,3/4+z,3/4+y
92 1/4-x,1/4+z,3/4-y
93 3/4-z,1/4-y,1/4+x
94 1/4-z,1/4+y,3/4-x
95 1/4+z,3/4-y,1/4-x
96 3/4+z,3/4+y,3/4+x
_cell_length_a                   27.9997(8)
_cell_length_b                   27.9997(8)
_cell_length_c                   27.9997(8)
_cell_angle_alpha                90
_cell_angle_beta                 90
_cell_angle_gamma                90
_cell_volume                     21951.3
loop_
_atom_site_label
_atom_site_type_symbol
_atom_site_fract_x
_atom_site_fract_y
_atom_site_fract_z
Cd1 Cd 0.1250 0.839280(18) 0.089280(18)
N1 N -0.0115(2) 0.8804(2) 0.1521(2)
N2 N 0.06329(19) 0.8682(2) 0.1279(2)
C1 C 0.0646(3) 0.8879(3) 0.1731(3)
H1 H 0.0921 0.8943 0.1907
C2 C 0.0196(3) 0.8963(3) 0.1875(3)
H2 H 0.0107 0.9104 0.2162
C3 C 0.0167(2) 0.8643(2) 0.1179(2)
C4 C -0.0013(3) 0.8427(4) 0.0718(3)
H3 H 0.0227 0.8214 0.0588
H4 H -0.0298 0.8241 0.0781
C5 C -0.0115(10) 0.8776(10) 0.0392(10)
H5 H -0.0230 0.8632 0.0102
H6 H 0.0168 0.8957 0.0325
H7 H -0.0356 0.8984 0.0519
Cd1ZA Cd -0.089280(18) 0.8750 0.160720(18)
Cd1DB Cd 0.160720(18) 0.910720(18) -0.1250
N1DB N 0.1196(2) 0.8479(2) 0.0115(2)
N1IC N 0.1304(2) 0.7615(2) 0.0979(2)
N2DB N 0.1318(2) 0.8721(2) -0.06329(19)
N2Q N 0.18671(19) 0.8779(2) 0.1182(2)
C1DB C 0.1121(3) 0.8269(3) -0.0646(3)
H1DB H 0.1057 0.8093 -0.0921
C2DB C 0.1037(3) 0.8125(3) -0.0196(3)
H2DB H 0.0896 0.7838 -0.0107
C3DB C 0.1357(2) 0.8821(2) -0.0167(2)
C4DB C 0.1573(4) 0.9282(3) 0.0013(3)
H3DB H 0.1786 0.9412 -0.0227
H4DB H 0.1759 0.9219 0.0298
C5DB C 0.1224(10) 0.9608(10) 0.0115(10)
H5DB H 0.1368 0.9898 0.0230
H6DB H 0.1043 0.9675 -0.0168
H7DB H 0.1016 0.9481 0.0356
loop_
_geom_bond_atom_site_label_1
_geom_bond_atom_site_label_2
_geom_bond_site_symmetry_1
_geom_bond_site_symmetry_2
Cd1 N2 1_555 1_555
N1 C2 1_555 1_555
N2 C1 1_555 1_555
C1 H1 1_555 1_555
C2 C1 1_555 1_555
H2 C2 1_555 1_555
C3 N1 1_555 1_555
C4 C3 1_555 1_555
H3 C4 1_555 1_555
H4 C4 1_555 1_555
C5 C4 1_555 1_555
H5 C5 1_555 1_555
H6 C5 1_555 1_555
H7 C5 1_555 1_555
Cd1ZA N1 1_555 1_555
Cd1DB N2DB 1_555 1_555
N1DB Cd1 1_555 1_555
N1IC Cd1 1_555 1_555
N2DB C1DB 1_555 1_555
N2Q Cd1 1_555 1_555
C1DB H1DB 1_555 1_555
C2DB N1DB 1_555 1_555
H2DB C2DB 1_555 1_555
C3DB N1DB 1_555 1_555
C4DB C3DB 1_555 1_555
H3DB C4DB 1_555 1_555
H4DB C4DB 1_555 1_555
C5DB C4DB 1_555 1_555
H5DB C5DB 1_555 1_555
H6DB C5DB 1_555 1_555
H7DB C5DB 1_555 1_555
N2 C3 1_555 1_555
N2DB C3DB 1_555 1_555
C1DB C2DB 1_555 1_555

#END
