
#######################################################################
#
#                 Cambridge Crystallographic Data Centre
#                                CCDC 
#
#######################################################################
#
# If this CIF has been generated from an entry in the Cambridge 
# Structural Database, then it will include bibliographic, chemical, 
# crystal, experimental, refinement or atomic coordinate data resulting 
# from the CCDC's data processing and validation procedures.
#
#######################################################################

data_GUPDOL
_symmetry_cell_setting           cubic
_symmetry_space_group_name_H-M   'I a -3 d'
_symmetry_Int_Tables_number      230
_space_group_name_Hall           '-I 4bd 2c 3'
loop_
_symmetry_equiv_pos_site_id
_symmetry_equiv_pos_as_xyz
1 x,y,z
2 1/2-x,-y,1/2+z
3 -x,1/2+y,1/2-z
4 1/2+x,1/2-y,-z
5 z,x,y
6 1/2+z,1/2-x,-y
7 1/2-z,-x,1/2+y
8 -z,1/2+x,1/2-y
9 y,z,x
10 -y,1/2+z,1/2-x
11 1/2+y,1/2-z,-x
12 1/2-y,-z,1/2+x
13 3/4+y,1/4+x,1/4-z
14 3/4-y,3/4-x,3/4-z
15 1/4+y,1/4-x,3/4+z
16 1/4-y,3/4+x,1/4+z
17 3/4+x,1/4+z,1/4-y
18 1/4-x,3/4+z,1/4+y
19 3/4-x,3/4-z,3/4-y
20 1/4+x,1/4-z,3/4+y
21 3/4+z,1/4+y,1/4-x
22 1/4+z,1/4-y,3/4+x
23 1/4-z,3/4+y,1/4+x
24 3/4-z,3/4-y,3/4-x
25 1/2+x,1/2+y,1/2+z
26 -x,1/2-y,z
27 1/2-x,y,-z
28 x,-y,1/2-z
29 1/2+z,1/2+x,1/2+y
30 z,-x,1/2-y
31 -z,1/2-x,y
32 1/2-z,x,-y
33 1/2+y,1/2+z,1/2+x
34 1/2-y,z,-x
35 y,-z,1/2-x
36 -y,1/2-z,x
37 1/4+y,3/4+x,3/4-z
38 1/4-y,1/4-x,1/4-z
39 3/4+y,3/4-x,1/4+z
40 3/4-y,1/4+x,3/4+z
41 1/4+x,3/4+z,3/4-y
42 3/4-x,1/4+z,3/4+y
43 1/4-x,1/4-z,1/4-y
44 3/4+x,3/4-z,1/4+y
45 1/4+z,3/4+y,3/4-x
46 3/4+z,3/4-y,1/4+x
47 3/4-z,1/4+y,3/4+x
48 1/4-z,1/4-y,1/4-x
49 -x,-y,-z
50 1/2+x,y,1/2-z
51 x,1/2-y,1/2+z
52 1/2-x,1/2+y,z
53 -z,-x,-y
54 1/2-z,1/2+x,y
55 1/2+z,x,1/2-y
56 z,1/2-x,1/2+y
57 -y,-z,-x
58 y,1/2-z,1/2+x
59 1/2-y,1/2+z,x
60 1/2+y,z,1/2-x
61 1/4-y,3/4-x,3/4+z
62 1/4+y,1/4+x,1/4+z
63 3/4-y,3/4+x,1/4-z
64 3/4+y,1/4-x,3/4-z
65 1/4-x,3/4-z,3/4+y
66 3/4+x,1/4-z,3/4-y
67 1/4+x,1/4+z,1/4+y
68 3/4-x,3/4+z,1/4-y
69 1/4-z,3/4-y,3/4+x
70 3/4-z,3/4+y,1/4-x
71 3/4+z,1/4-y,3/4-x
72 1/4+z,1/4+y,1/4+x
73 1/2-x,1/2-y,1/2-z
74 x,1/2+y,-z
75 1/2+x,-y,z
76 -x,y,1/2+z
77 1/2-z,1/2-x,1/2-y
78 -z,x,1/2+y
79 z,1/2+x,-y
80 1/2+z,-x,y
81 1/2-y,1/2-z,1/2-x
82 1/2+y,-z,x
83 -y,z,1/2+x
84 y,1/2+z,-x
85 3/4-y,1/4-x,1/4+z
86 3/4+y,3/4+x,3/4+z
87 1/4-y,1/4+x,3/4-z
88 1/4+y,3/4-x,1/4-z
89 3/4-x,1/4-z,1/4+y
90 1/4+x,3/4-z,1/4-y
91 3/4+x,3/4+z,3/4+y
92 1/4-x,1/4+z,3/4-y
93 3/4-z,1/4-y,1/4+x
94 1/4-z,1/4+y,3/4-x
95 1/4+z,3/4-y,1/4-x
96 3/4+z,3/4+y,3/4+x
_cell_length_a                   28.0630(12)
_cell_length_b                   28.0630(12)
_cell_length_c                   28.0630(12)
_cell_angle_alpha                90
_cell_angle_beta                 90
_cell_angle_gamma                90
_cell_volume                     22100.5
loop_
_atom_site_label
_atom_site_type_symbol
_atom_site_fract_x
_atom_site_fract_y
_atom_site_fract_z
Cd1 Cd 0.159154(16) 0.409154(16) 0.1250
N1 N 0.12137(18) 0.38160(18) 0.18748(17)
N2 N 0.09760(17) 0.37243(18) 0.26204(18)
C1 C 0.0649(3) 0.3515(3) 0.2331(3)
H1 H 0.0373 0.3361 0.2430
C2 C 0.0794(3) 0.3569(3) 0.1877(3)
H2 H 0.0635 0.3456 0.1609
C3 C 0.1306(2) 0.3903(2) 0.2333(2)
C4 C 0.1735(3) 0.4175(3) 0.2500(3)
H3 H 0.1842 0.4377 0.2241
H4 H 0.1638 0.4382 0.2759
C5 C 0.2136(3) 0.3896(5) 0.2661(4)
H5 H 0.2256 0.3699 0.2404
H6 H 0.2042 0.3691 0.2923
C6 C 0.2528(6) 0.4256(6) 0.2827(6)
H7 H 0.2604 0.4473 0.2568
H8 H 0.2409 0.4442 0.3093
C7 C 0.2947(10) 0.4006(9) 0.2968(10)
H9 H 0.3186 0.4230 0.3067
H10 H 0.3066 0.3823 0.2704
H11 H 0.2873 0.3796 0.3227
Cd1BC Cd 0.090846(16) 0.3750 0.340846(16)
Cd1CB Cd 0.1250 0.340846(16) -0.090846(16)
N1L N 0.13160(18) 0.37137(18) 0.06252(17)
N2L N 0.12243(18) 0.34760(17) -0.01204(18)
N2LB N 0.15240(17) 0.48796(18) 0.12243(18)
N2XB N 0.23796(18) 0.40240(17) 0.12757(18)
C1L C 0.1015(3) 0.3149(3) 0.0169(3)
H1L H 0.0861 0.2873 0.0070
C2L C 0.1069(3) 0.3294(3) 0.0623(3)
H2L H 0.0956 0.3135 0.0891
C3L C 0.1403(2) 0.3806(2) 0.0167(2)
C4L C 0.1675(3) 0.4235(3) 0.0000(3)
H3L H 0.1877 0.4342 0.0259
H4L H 0.1882 0.4138 -0.0259
C5L C 0.1396(5) 0.4636(3) -0.0161(4)
H5L H 0.1199 0.4756 0.0096
H6L H 0.1191 0.4542 -0.0423
C6L C 0.1756(6) 0.5028(6) -0.0327(6)
H7L H 0.1973 0.5104 -0.0068
H8L H 0.1942 0.4909 -0.0593
C7L C 0.1506(9) 0.5447(10) -0.0468(10)
H9L H 0.1730 0.5686 -0.0567
H10L H 0.1323 0.5566 -0.0204
H11L H 0.1296 0.5373 -0.0727
loop_
_geom_bond_atom_site_label_1
_geom_bond_atom_site_label_2
_geom_bond_site_symmetry_1
_geom_bond_site_symmetry_2
Cd1 N1 1_555 1_555
N1 C2 1_555 1_555
N2 C1 1_555 1_555
C1 H1 1_555 1_555
C2 C1 1_555 1_555
H2 C2 1_555 1_555
C3 N1 1_555 1_555
C4 C3 1_555 1_555
H3 C4 1_555 1_555
H4 C4 1_555 1_555
C5 C4 1_555 1_555
H5 C5 1_555 1_555
H6 C5 1_555 1_555
C6 C5 1_555 1_555
H7 C6 1_555 1_555
H8 C6 1_555 1_555
C7 C6 1_555 1_555
H9 C7 1_555 1_555
H10 C7 1_555 1_555
H11 C7 1_555 1_555
Cd1BC N2 1_555 1_555
Cd1CB N2L 1_555 1_555
N1L Cd1 1_555 1_555
N2L C1L 1_555 1_555
N2LB Cd1 1_555 1_555
N2XB Cd1 1_555 1_555
C1L H1L 1_555 1_555
C2L N1L 1_555 1_555
H2L C2L 1_555 1_555
C3L N1L 1_555 1_555
C4L C3L 1_555 1_555
H3L C4L 1_555 1_555
H4L C4L 1_555 1_555
C5L C4L 1_555 1_555
H5L C5L 1_555 1_555
H6L C5L 1_555 1_555
C6L C5L 1_555 1_555
H7L C6L 1_555 1_555
H8L C6L 1_555 1_555
C7L C6L 1_555 1_555
H9L C7L 1_555 1_555
H10L C7L 1_555 1_555
H11L C7L 1_555 1_555
N2 C3 1_555 1_555
N2L C3L 1_555 1_555
C1L C2L 1_555 1_555

#END
