
#######################################################################
#
#                 Cambridge Crystallographic Data Centre
#                                CCDC 
#
#######################################################################
#
# If this CIF has been generated from an entry in the Cambridge 
# Structural Database, then it will include bibliographic, chemical, 
# crystal, experimental, refinement or atomic coordinate data resulting 
# from the CCDC's data processing and validation procedures.
#
#######################################################################

data_GUPDEB
_symmetry_cell_setting           cubic
_symmetry_space_group_name_H-M   'I m -3 m'
_symmetry_Int_Tables_number      229
_space_group_name_Hall           '-I 4 2 3'
loop_
_symmetry_equiv_pos_site_id
_symmetry_equiv_pos_as_xyz
1 x,y,z
2 -x,-y,z
3 -x,y,-z
4 x,-y,-z
5 z,x,y
6 z,-x,-y
7 -z,-x,y
8 -z,x,-y
9 y,z,x
10 -y,z,-x
11 y,-z,-x
12 -y,-z,x
13 y,x,-z
14 -y,-x,-z
15 y,-x,z
16 -y,x,z
17 x,z,-y
18 -x,z,y
19 -x,-z,-y
20 x,-z,y
21 z,y,-x
22 z,-y,x
23 -z,y,x
24 -z,-y,-x
25 1/2+x,1/2+y,1/2+z
26 1/2-x,1/2-y,1/2+z
27 1/2-x,1/2+y,1/2-z
28 1/2+x,1/2-y,1/2-z
29 1/2+z,1/2+x,1/2+y
30 1/2+z,1/2-x,1/2-y
31 1/2-z,1/2-x,1/2+y
32 1/2-z,1/2+x,1/2-y
33 1/2+y,1/2+z,1/2+x
34 1/2-y,1/2+z,1/2-x
35 1/2+y,1/2-z,1/2-x
36 1/2-y,1/2-z,1/2+x
37 1/2+y,1/2+x,1/2-z
38 1/2-y,1/2-x,1/2-z
39 1/2+y,1/2-x,1/2+z
40 1/2-y,1/2+x,1/2+z
41 1/2+x,1/2+z,1/2-y
42 1/2-x,1/2+z,1/2+y
43 1/2-x,1/2-z,1/2-y
44 1/2+x,1/2-z,1/2+y
45 1/2+z,1/2+y,1/2-x
46 1/2+z,1/2-y,1/2+x
47 1/2-z,1/2+y,1/2+x
48 1/2-z,1/2-y,1/2-x
49 -x,-y,-z
50 x,y,-z
51 x,-y,z
52 -x,y,z
53 -z,-x,-y
54 -z,x,y
55 z,x,-y
56 z,-x,y
57 -y,-z,-x
58 y,-z,x
59 -y,z,x
60 y,z,-x
61 -y,-x,z
62 y,x,z
63 -y,x,-z
64 y,-x,-z
65 -x,-z,y
66 x,-z,-y
67 x,z,y
68 -x,z,-y
69 -z,-y,x
70 -z,y,-x
71 z,-y,-x
72 z,y,x
73 1/2-x,1/2-y,1/2-z
74 1/2+x,1/2+y,1/2-z
75 1/2+x,1/2-y,1/2+z
76 1/2-x,1/2+y,1/2+z
77 1/2-z,1/2-x,1/2-y
78 1/2-z,1/2+x,1/2+y
79 1/2+z,1/2+x,1/2-y
80 1/2+z,1/2-x,1/2+y
81 1/2-y,1/2-z,1/2-x
82 1/2+y,1/2-z,1/2+x
83 1/2-y,1/2+z,1/2+x
84 1/2+y,1/2+z,1/2-x
85 1/2-y,1/2-x,1/2+z
86 1/2+y,1/2+x,1/2+z
87 1/2-y,1/2+x,1/2-z
88 1/2+y,1/2-x,1/2-z
89 1/2-x,1/2-z,1/2+y
90 1/2+x,1/2-z,1/2-y
91 1/2+x,1/2+z,1/2+y
92 1/2-x,1/2+z,1/2-y
93 1/2-z,1/2-y,1/2+x
94 1/2-z,1/2+y,1/2-x
95 1/2+z,1/2-y,1/2-x
96 1/2+z,1/2+y,1/2+x
_cell_length_a                   30.4997(11)
_cell_length_b                   30.4997(11)
_cell_length_c                   30.4997(11)
_cell_angle_alpha                90
_cell_angle_beta                 90
_cell_angle_gamma                90
_cell_volume                     28371.8
loop_
_atom_site_label
_atom_site_type_symbol
_atom_site_fract_x
_atom_site_fract_y
_atom_site_fract_z
Cd1 Cd 0.39518(2) 0.10482(2) 0.2500
N1 N 0.3943(3) 0.0370(3) 0.2201(4)
N2 N 0.3669(3) 0.1392(3) 0.1915(3)
N3 N 0.3907(4) 0.0000 0.2909(6)
N4 N 0.4105(5) 0.2042(3) 0.2042(3)
O1 O 0.3898(3) -0.0351(3) 0.3095(3)
O2 O 0.4220(3) 0.2401(3) 0.1901(2)
C1 C 0.3971(4) 0.0239(4) 0.1804(4)
H1 H 0.3989 0.0418 0.1557
C2 C 0.3929(4) 0.0000 0.2453(6)
C3 C 0.3407(4) 0.1262(4) 0.1585(4)
H2 H 0.3252 0.1000 0.1574
C4 C 0.3825(5) 0.1787(4) 0.1787(4)
Cd1XA Cd 0.39518(2) -0.10482(2) 0.2500
Cd1NB Cd 0.39518(2) 0.2500 0.10482(2)
N1XA N 0.3943(3) -0.0370(3) 0.2201(4)
N1KA N 0.4630(3) 0.1057(3) 0.2799(4)
N2NB N 0.3669(3) 0.1915(3) 0.1392(3)
N2KA N 0.3608(3) 0.1331(3) 0.3085(3)
O1XA O 0.3898(3) 0.0351(3) 0.3095(3)
O2NB O 0.4220(3) 0.1901(2) 0.2401(3)
C1XA C 0.3971(4) -0.0239(4) 0.1804(4)
H1XA H 0.3989 -0.0418 0.1557
C3NB C 0.3407(4) 0.1585(4) 0.1262(4)
H2NB H 0.3252 0.1574 0.1000
O3 O 0.2500 0.2500 0.2500
loop_
_geom_bond_atom_site_label_1
_geom_bond_atom_site_label_2
_geom_bond_site_symmetry_1
_geom_bond_site_symmetry_2
Cd1 N1 1_555 1_555
N1 C1 1_555 1_555
N2 Cd1 1_555 1_555
N3 O1 1_555 1_555
N4 O2 1_555 1_555
C1 H1 1_555 1_555
C2 N1 1_555 1_555
C3 N2 1_555 1_555
H2 C3 1_555 1_555
C4 N2 1_555 1_555
Cd1XA N1XA 1_555 1_555
Cd1NB N2NB 1_555 1_555
N1XA C2 1_555 1_555
N1KA Cd1 1_555 1_555
N2NB C4 1_555 1_555
N2KA Cd1 1_555 1_555
O1XA N3 1_555 1_555
O2NB N4 1_555 1_555
C1XA C1 1_555 1_555
H1XA C1XA 1_555 1_555
C3NB C3 1_555 1_555
H2NB C3NB 1_555 1_555
N3 C2 1_555 1_555
N4 C4 1_555 1_555
N1XA C1XA 1_555 1_555
N2NB C3NB 1_555 1_555

#END
