
#######################################################################
#
#                 Cambridge Crystallographic Data Centre
#                                CCDC 
#
#######################################################################
#
# If this CIF has been generated from an entry in the Cambridge 
# Structural Database, then it will include bibliographic, chemical, 
# crystal, experimental, refinement or atomic coordinate data resulting 
# from the CCDC's data processing and validation procedures.
#
#######################################################################

data_GUPFAA
_symmetry_cell_setting           tetragonal
_symmetry_space_group_name_H-M   'P 43'
_symmetry_Int_Tables_number      78
_space_group_name_Hall           'P 4cw'
loop_
_symmetry_equiv_pos_site_id
_symmetry_equiv_pos_as_xyz
1 x,y,z
2 -x,-y,1/2+z
3 -y,x,3/4+z
4 y,-x,1/4+z
_cell_length_a                   8.704(5)
_cell_length_b                   8.704(5)
_cell_length_c                   37.500(5)
_cell_angle_alpha                90
_cell_angle_beta                 90
_cell_angle_gamma                90
_cell_volume                     2840.99
loop_
_atom_site_label
_atom_site_type_symbol
_atom_site_fract_x
_atom_site_fract_y
_atom_site_fract_z
C1 C 0.9132(4) 0.6558(4) 0.83192(9)
H1 H 0.9890 0.6745 0.8150
C2 C 0.7842(4) 0.6558(5) 0.88030(10)
H2 H 0.7551 0.6741 0.9038
C3 C 0.7026(5) 0.5750(6) 0.85639(11)
H3 H 0.6074 0.5294 0.8601
C4 C 0.7418(3) 0.5047(4) 0.79210(9)
C5 C 0.6388(4) 0.3825(4) 0.79178(10)
H4 H 0.6022 0.3412 0.8130
C6 C 0.5916(4) 0.3234(4) 0.75922(10)
H5 H 0.5205 0.2437 0.7588
C7 C 0.6482(3) 0.3809(4) 0.72740(9)
C8 C 0.7547(4) 0.5009(4) 0.72810(10)
H6 H 0.7950 0.5394 0.7069
C9 C 0.7998(4) 0.5621(4) 0.76051(10)
H7 H 0.8699 0.6427 0.7610
C10 C 0.5836(4) 0.3204(4) 0.69399(10)
C11 C 0.5454(3) 0.2509(3) 0.63849(10)
C12 C 0.5646(3) 0.2303(4) 0.59984(9)
C13 C 0.6859(4) 0.1443(4) 0.58582(10)
H8 H 0.7608 0.1040 0.6008
C14 C 0.6936(4) 0.1195(4) 0.54931(10)
H9 H 0.7726 0.0603 0.5398
C15 C 0.5828(3) 0.1834(4) 0.52686(8)
C16 C 0.4656(3) 0.2716(4) 0.54101(9)
H10 H 0.3933 0.3163 0.5260
C17 C 0.4558(3) 0.2932(4) 0.57714(9)
H11 H 0.3753 0.3506 0.5865
C18 C 0.7216(4) 0.1306(4) 0.47051(9)
H12 H 0.8193 0.1249 0.4805
C19 C 0.5374(4) 0.1326(4) 0.43311(9)
H13 H 0.4839 0.1267 0.4117
C20 C 0.4736(4) 0.1604(4) 0.46506(10)
H14 H 0.3702 0.1782 0.4697
C21 C 0.0802(4) 0.2755(5) 0.57495(10)
C22 C 0.0302(4) 0.9625(4) 0.43312(13)
C23 C 0.0668(13) 0.4298(14) 0.5526(3)
C24 C 0.0477(9) 0.5756(9) 0.5687(2)
H15 H 0.0366 0.5830 0.5933
C25 C 0.0456(8) 0.7052(9) 0.5484(2)
H16 H 0.0359 0.8007 0.5592
C26 C 0.0578(9) 0.6955(10) 0.5109(2)
C27 C 0.0754(13) 0.5528(11) 0.4952(3)
C28 C 0.0794(8) 0.4175(9) 0.5164(2)
H17 H 0.0906 0.3217 0.5058
C29 C 0.0503(8) 0.8309(10) 0.4884(3)
H18 H 0.0384 0.9275 0.4986
C30 C 0.0607(11) 0.8172(11) 0.4522(3)
C31 C 0.0807(8) 0.6712(8) 0.4370(2)
H19 H 0.0870 0.6626 0.4123
C32 C 0.0911(8) 0.5419(8) 0.4572(2)
H20 H 0.1083 0.4472 0.4465
N1 N 0.9182(3) 0.7073(3) 0.86461(8)
N2 N 0.7858(3) 0.5727(3) 0.82553(7)
N3 N 0.6944(3) 0.1139(3) 0.43672(7)
N4 N 0.5918(3) 0.1574(3) 0.48986(7)
N5 N 0.4209(3) 0.2178(3) 0.65723(7)
N6 N 0.4466(3) 0.2602(3) 0.69227(8)
N7 N 0.6510(3) 0.3157(3) 0.66101(8)
N8 N 0.7969(3) 0.3737(4) 0.65203(9)
H21 H 0.7726 0.4463 0.6401
H22 H 0.8464 0.3003 0.6460
O1 O 0.0873(3) 0.3118(3) 0.60720(7)
O2 O 0.0896(4) 0.1427(4) 0.56379(9)
O3 O -0.0168(3) 0.9260(3) 0.40259(8)
O4 O 0.0487(3) 1.0986(3) 0.44262(7)
Cd1 Cd 0.17118(2) 0.12015(2) 0.641206(6)
N1B N 0.2927(3) -0.0818(3) 0.61461(8)
N3C N 0.1139(3) 0.3056(3) 0.68672(7)
O3C O -0.0740(3) 0.0168(3) 0.65259(8)
O4C O 0.0986(3) -0.0487(3) 0.69262(7)
Cd1B Cd -0.12015(2) 1.17118(2) 0.391206(6)
Cd1B_2 Cd 0.87985(2) 0.17118(2) 0.391206(6)
Cd1C Cd 1.12015(2) 0.82882(2) 0.891206(6)
O5 O -0.1729(13) 0.7191(11) 0.6214(3)
C33? C 0.0699(12) 0.3788(11) 0.5436(3)
C34? C 0.0652(8) 0.5332(11) 0.5515(2)
H23? H 0.0654 0.5648 0.5752
C35? C 0.0601(10) 0.6456(10) 0.5236(2)
C36? C 0.0667(13) 0.5915(11) 0.4866(3)
C37? C 0.0730(7) 0.4321(7) 0.48094(17)
H24? H 0.0766 0.3956 0.4576
C38? C 0.0739(8) 0.3292(9) 0.50815(19)
H25? H 0.0773 0.2246 0.5032
C39? C 0.0478(8) 0.8031(8) 0.53007(19)
H26? H 0.0416 0.8382 0.5535
C40? C 0.0446(8) 0.9057(9) 0.5030(2)
H27? H 0.0402 1.0103 0.5080
C41? C 0.0480(10) 0.8543(11) 0.4667(3)
C42? C 0.0563(8) 0.7026(9) 0.4595(2)
H28? H 0.0550 0.6706 0.4359
loop_
_geom_bond_atom_site_label_1
_geom_bond_atom_site_label_2
_geom_bond_site_symmetry_1
_geom_bond_site_symmetry_2
C1 H1 1_555 1_555
C2 H2 1_555 1_555
C3 C2 1_555 1_555
H3 C3 1_555 1_555
C4 C5 1_555 1_555
C5 H4 1_555 1_555
C6 C5 1_555 1_555
H5 C6 1_555 1_555
C7 C6 1_555 1_555
C8 C7 1_555 1_555
H6 C8 1_555 1_555
C9 C4 1_555 1_555
H7 C9 1_555 1_555
C10 C7 1_555 1_555
C11 C12 1_555 1_555
C12 C13 1_555 1_555
C13 H8 1_555 1_555
C14 C13 1_555 1_555
H9 C14 1_555 1_555
C15 C14 1_555 1_555
C16 C15 1_555 1_555
H10 C16 1_555 1_555
C17 C12 1_555 1_555
H11 C17 1_555 1_555
C18 H12 1_555 1_555
C19 H13 1_555 1_555
C20 C19 1_555 1_555
H14 C20 1_555 1_555
C21 C23 1_555 1_555
C22 C30 1_555 1_555
C23 C24 1_555 1_555
C24 H15 1_555 1_555
C25 C24 1_555 1_555
H16 C25 1_555 1_555
C26 C25 1_555 1_555
C27 C26 1_555 1_555
C28 C23 1_555 1_555
H17 C28 1_555 1_555
C29 C26 1_555 1_555
H18 C29 1_555 1_555
C30 C29 1_555 1_555
C31 C30 1_555 1_555
H19 C31 1_555 1_555
C32 C27 1_555 1_555
H20 C32 1_555 1_555
N1 C1 1_555 1_555
N2 C1 1_555 1_555
N3 C18 1_555 1_555
N4 C15 1_555 1_555
N5 C11 1_555 1_555
N6 C10 1_555 1_555
N7 C10 1_555 1_555
N8 N7 1_555 1_555
H21 N8 1_555 1_555
H22 N8 1_555 1_555
O1 C21 1_555 1_555
O2 C21 1_555 1_555
O3 C22 1_555 1_555
O4 C22 1_555 1_555
Cd1 N5 1_555 1_555
N1B Cd1 1_555 1_555
N3C Cd1 1_555 1_555
O3C Cd1 1_555 1_555
O4C Cd1 1_555 1_555
Cd1B O3 1_555 1_555
Cd1B_2 N3 1_555 1_555
Cd1C N1 1_555 1_555
C2 N1 1_555 1_555
C3 N2 1_555 1_555
C4 N2 1_555 1_555
C8 C9 1_555 1_555
C11 N7 1_555 1_555
C16 C17 1_555 1_555
C18 N4 1_555 1_555
C19 N3 1_555 1_555
C20 N4 1_555 1_555
C27 C28 1_555 1_555
C31 C32 1_555 1_555
N5 N6 1_555 1_555
O1 Cd1 1_555 1_555
O4 Cd1B 1_555 1_555

#END
