
#######################################################################
#
#                 Cambridge Crystallographic Data Centre
#                                CCDC 
#
#######################################################################
#
# If this CIF has been generated from an entry in the Cambridge 
# Structural Database, then it will include bibliographic, chemical, 
# crystal, experimental, refinement or atomic coordinate data resulting 
# from the CCDC's data processing and validation procedures.
#
#######################################################################

data_GUPFEE
_symmetry_cell_setting           tetragonal
_symmetry_space_group_name_H-M   'P 41'
_symmetry_Int_Tables_number      76
_space_group_name_Hall           'P 4w'
loop_
_symmetry_equiv_pos_site_id
_symmetry_equiv_pos_as_xyz
1 x,y,z
2 -x,-y,1/2+z
3 -y,x,1/4+z
4 y,-x,3/4+z
_cell_length_a                   8.708(5)
_cell_length_b                   8.708(5)
_cell_length_c                   37.495(5)
_cell_angle_alpha                90
_cell_angle_beta                 90
_cell_angle_gamma                90
_cell_volume                     2843.22
loop_
_atom_site_label
_atom_site_type_symbol
_atom_site_fract_x
_atom_site_fract_y
_atom_site_fract_z
Cd1 Cd 0.37924(2) 0.32851(2) 0.124290(5)
C1 C 0.2478(4) -0.0459(3) 0.12160(9)
C2 C 0.1798(4) -0.0838(4) 0.17708(9)
C3 C 0.2697(4) -0.0644(4) 0.08304(8)
C4 C 0.2065(4) 0.0435(4) 0.06041(9)
H1 H 0.1485 0.1236 0.0698
C5 C 0.2287(4) 0.0336(4) 0.02402(8)
H2 H 0.1845 0.1061 0.0090
C6 C 0.3162(4) -0.0833(4) 0.00999(8)
C7 C 0.3799(4) -0.1932(4) 0.03245(9)
H3 H 0.4388 -0.2724 0.0230
C8 C 0.3558(4) -0.1853(4) 0.06890(9)
H4 H 0.3967 -0.2599 0.0839
C9 C 0.3396(4) 0.0269(4) -0.05186(9)
H5 H 0.3220 0.1303 -0.0472
C10 C 0.3691(4) -0.2216(4) -0.04624(9)
H6 H 0.3747 -0.3190 -0.0362
C11 C 0.3671(4) -0.0366(4) -0.08369(8)
H7 H 0.3726 0.0173 -0.1051
C12 C -0.1558(4) -0.4134(4) 0.31498(8)
H8 H -0.1747 -0.4892 0.2981
C13 C -0.1570(5) -0.2871(4) 0.36336(9)
H9 H -0.1762 -0.2590 0.3869
C14 C -0.0750(6) -0.2024(5) 0.33965(10)
H10 H -0.0296 -0.1072 0.3436
C15 C -0.0044(4) -0.2420(4) 0.27522(8)
C16 C 0.1159(4) -0.1395(4) 0.27476(9)
H11 H 0.1564 -0.1021 0.2960
C17 C 0.1762(4) -0.0922(4) 0.24233(9)
H12 H 0.2564 -0.0218 0.2420
C18 C 0.1182(4) -0.1488(4) 0.21021(8)
C19 C -0.0002(4) -0.2547(4) 0.21128(9)
H13 H -0.0382 -0.2957 0.1901
C20 C -0.0625(4) -0.3003(4) 0.24364(9)
H14 H -0.1434 -0.3701 0.2441
C21 C 0.2250(5) 0.4192(4) 0.05791(10)
C22 C -0.4628(5) 0.4705(4) -0.08393(12)
C23 C -0.3562(12) 0.4528(12) -0.0500(3)
C24 C -0.2047(10) 0.4435(8) -0.05744(19)
H15 H -0.1715 0.4436 -0.0810
C25 C -0.0939(12) 0.4334(16) -0.0287(3)
C26 C -0.1452(10) 0.4393(10) 0.0065(2)
C27 C -0.3041(8) 0.4509(8) 0.01302(18)
H16 H -0.3390 0.4559 0.0364
C28 C -0.4080(9) 0.4549(8) -0.01415(19)
H17 H -0.5125 0.4590 -0.0092
C29 C 0.0674(8) 0.4270(7) -0.03601(16)
H18 H 0.1020 0.4242 -0.0595
C30 C 0.1709(10) 0.4251(9) -0.0085(2)
H19 H 0.2753 0.4210 -0.0136
C31 C 0.1229(14) 0.4291(17) 0.0276(4)
C32 C -0.0327(13) 0.4357(9) 0.0351(2)
H20 H -0.0655 0.4379 0.0587
N1 N 0.2820(3) 0.0792(3) 0.14033(7)
N2 N 0.2397(3) 0.0532(3) 0.17533(7)
N3 N 0.1844(3) -0.1513(3) 0.14379(8)
N4 N 0.1246(4) -0.2956(3) 0.13462(8)
H21 H 0.1408 -0.3134 0.1113
H22 H 0.1731 -0.3676 0.1476
N5 N 0.3423(3) -0.0917(3) -0.02728(6)
N6 N 0.3862(3) -0.1945(3) -0.08030(7)
N7 N -0.2067(3) -0.4182(3) 0.34784(7)
N8 N -0.0729(3) -0.2859(3) 0.30858(7)
O1 O -0.5990(3) 0.4516(3) -0.07442(7)
O2 O -0.4269(3) 0.5177(3) -0.11432(7)
O3 O 0.1876(3) 0.4124(3) 0.09021(6)
O4 O 0.3572(4) 0.4106(4) 0.04675(8)
Cd1B Cd -0.32851(2) -0.62076(2) 0.374290(5)
Cd1C Cd -0.67149(2) 0.62076(2) -0.125710(5)
Cd1C_2 Cd 0.32851(2) -0.37924(2) -0.125710(5)
N6B N 0.1945(3) 0.3862(3) 0.16970(7)
N7C N 0.5818(3) 0.2067(3) 0.09784(7)
O1B O 0.5484(3) 0.4010(3) 0.17558(7)
O2B O 0.4823(3) 0.5731(3) 0.13568(7)
O5 O -0.3307(12) 0.2162(10) -0.1456(2)
C33? C -0.3178(14) 0.4430(12) -0.0644(3)
C34? C -0.1728(8) 0.4189(8) -0.0804(2)
H23? H -0.1655 0.4087 -0.1050
C35? C -0.0421(8) 0.4105(8) -0.05979(19)
H24? H 0.0523 0.3956 -0.0708
C36? C -0.0479(14) 0.4234(17) -0.0233(4)
C37? C -0.1956(10) 0.4427(11) -0.0054(2)
C38? C -0.3319(10) 0.4504(9) -0.0281(3)
H25? H -0.4285 0.4603 -0.0178
C39? C 0.0835(10) 0.4201(9) -0.0008(2)
H26? H 0.1805 0.4098 -0.0109
C40? C 0.0697(18) 0.4317(18) 0.0350(4)
C41? C -0.0771(11) 0.4516(10) 0.0518(2)
H27? H -0.0837 0.4621 0.0764
C42? C -0.2059(9) 0.4551(9) 0.0316(2)
H28? H -0.3014 0.4658 0.0424
loop_
_geom_bond_atom_site_label_1
_geom_bond_atom_site_label_2
_geom_bond_site_symmetry_1
_geom_bond_site_symmetry_2
Cd1 N1 1_555 1_555
C1 C3 1_555 1_555
C2 C18 1_555 1_555
C3 C4 1_555 1_555
C4 H1 1_555 1_555
C5 C4 1_555 1_555
H2 C5 1_555 1_555
C6 C5 1_555 1_555
C7 C6 1_555 1_555
H3 C7 1_555 1_555
C8 C3 1_555 1_555
H4 C8 1_555 1_555
C9 H5 1_555 1_555
C10 H6 1_555 1_555
C11 C9 1_555 1_555
H7 C11 1_555 1_555
C12 H8 1_555 1_555
C13 H9 1_555 1_555
C14 C13 1_555 1_555
H10 C14 1_555 1_555
C15 C16 1_555 1_555
C16 H11 1_555 1_555
C17 C16 1_555 1_555
H12 C17 1_555 1_555
C18 C17 1_555 1_555
C19 C18 1_555 1_555
H13 C19 1_555 1_555
C20 C15 1_555 1_555
H14 C20 1_555 1_555
C21 C31 1_555 1_555
C22 C23 1_555 1_555
C23 C24 1_555 1_555
C24 H15 1_555 1_555
C25 C24 1_555 1_555
C26 C25 1_555 1_555
C27 C26 1_555 1_555
H16 C27 1_555 1_555
C28 C23 1_555 1_555
H17 C28 1_555 1_555
C29 C25 1_555 1_555
H18 C29 1_555 1_555
C30 C29 1_555 1_555
H19 C30 1_555 1_555
C31 C30 1_555 1_555
C32 C26 1_555 1_555
H20 C32 1_555 1_555
N1 C1 1_555 1_555
N2 C2 1_555 1_555
N3 C1 1_555 1_555
N4 N3 1_555 1_555
H21 N4 1_555 1_555
H22 N4 1_555 1_555
N5 C6 1_555 1_555
N6 C10 1_555 1_555
N7 C12 1_555 1_555
N8 C12 1_555 1_555
O1 C22 1_555 1_555
O2 C22 1_555 1_555
O3 Cd1 1_555 1_555
O4 C21 1_555 1_555
Cd1B N7 1_555 1_555
Cd1C O1 1_555 1_555
Cd1C_2 N6 1_555 1_555
N6B Cd1 1_555 1_555
N7C Cd1 1_555 1_555
O1B Cd1 1_555 1_555
O2B Cd1 1_555 1_555
C2 N3 1_555 1_555
C7 C8 1_555 1_555
C9 N5 1_555 1_555
C10 N5 1_555 1_555
C11 N6 1_555 1_555
C13 N7 1_555 1_555
C14 N8 1_555 1_555
C15 N8 1_555 1_555
C19 C20 1_555 1_555
C21 O3 1_555 1_555
C27 C28 1_555 1_555
C31 C32 1_555 1_555
N1 N2 1_555 1_555
O2 Cd1C 1_555 1_555

#END
