
#######################################################################
#
#                 Cambridge Crystallographic Data Centre
#                                CCDC 
#
#######################################################################
#
# If this CIF has been generated from an entry in the Cambridge 
# Structural Database, then it will include bibliographic, chemical, 
# crystal, experimental, refinement or atomic coordinate data resulting 
# from the CCDC's data processing and validation procedures.
#
#######################################################################

data_GUPRAM
_symmetry_cell_setting           triclinic
_symmetry_space_group_name_H-M   'P -1'
_symmetry_Int_Tables_number      2
_space_group_name_Hall           '-P 1'
loop_
_symmetry_equiv_pos_site_id
_symmetry_equiv_pos_as_xyz
1 x,y,z
2 -x,-y,-z
_cell_length_a                   8.5410(5)
_cell_length_b                   12.6791(9)
_cell_length_c                   13.7101(9)
_cell_angle_alpha                71.8520(10)
_cell_angle_beta                 88.5560(10)
_cell_angle_gamma                87.8710(10)
_cell_volume                     1409.72
loop_
_atom_site_label
_atom_site_type_symbol
_atom_site_fract_x
_atom_site_fract_y
_atom_site_fract_z
Cu1 Cu 1.0000 0.0000 0.5000
O1 O 1.0614(2) 0.14328(16) 0.50835(15)
N1 N 0.8099(3) 0.0744(2) 0.4145(2)
C1 C 0.7647(4) 0.1797(3) 0.4054(3)
H1 H 0.8182 0.2174 0.4419
O2 O 0.6023(4) 0.2908(3) 0.0423(3)
H2 H 0.5916 0.2275 0.0346
H3 H 0.6931 0.2606 0.0437
Cu2 Cu 0.5000 0.5000 0.0000
O3 O 1.1710(3) 0.1390(2) 0.3618(2)
N2 N 0.2939(3) 0.4476(2) -0.0344(2)
C2 C 0.6428(4) 0.2339(3) 0.3443(3)
H4 H 0.6173 0.3076 0.3380
O4 O 1.4293(3) 0.4580(2) 0.14169(19)
N3 N 0.3583(3) 0.0159(2) 0.2507(2)
H5 H 0.3178 0.0676 0.2726
C3 C 0.5586(4) 0.1779(3) 0.2924(3)
H6 H 0.4753 0.2130 0.2511
O5 O 1.4196(5) 0.6198(2) 0.1706(3)
N4 N 0.1330(3) 0.1195(2) 0.1002(2)
H7 H 0.2203 0.1260 0.0664
C4 C 0.6005(4) 0.0691(3) 0.3030(2)
O6 O 1.2974(6) 0.5937(3) 0.5365(3)
N5 N 1.2301(5) 0.5095(3) 0.5481(3)
C5 C 0.7280(4) 0.0217(2) 0.3630(2)
H8 H 0.7584 -0.0509 0.3678
O7 O 1.1446(7) 0.4700(4) 0.6212(3)
C6 C 0.5133(4) -0.0002(3) 0.2527(3)
O8 O 0.5839(3) -0.0678(2) 0.2189(2)
C7 C 0.2545(4) -0.0513(2) 0.2126(2)
H9 H 0.3055 -0.0666 0.1534
O9 O -0.0995(3) 0.2039(2) 0.1183(2)
C8 C 0.2241(4) -0.1612(3) 0.2944(3)
H10 H 0.1778 -0.1473 0.3547
H11 H 0.3228 -0.2019 0.3141
C9 C 0.1146(4) -0.2314(3) 0.2558(3)
H12 H 0.1652 -0.2518 0.1999
H13 H 0.0928 -0.2991 0.3107
C10 C -0.0376(4) -0.1682(3) 0.2191(3)
H14 H -0.0941 -0.1557 0.2770
H15 H -0.1022 -0.2123 0.1905
C11 C -0.0085(4) -0.0573(3) 0.1383(3)
H16 H -0.1077 -0.0173 0.1189
H17 H 0.0383 -0.0702 0.0776
C12 C 0.0997(4) 0.0132(2) 0.1775(2)
H18 H 0.0488 0.0283 0.2368
C13 C 0.0327(4) 0.2065(3) 0.0802(3)
C14 C 0.0936(4) 0.3135(3) 0.0082(2)
C15 C 0.0007(4) 0.3820(3) -0.0697(3)
H19 H -0.0995 0.3615 -0.0799
C16 C 0.0595(5) 0.4803(3) -0.1314(3)
H20 H 0.0013 0.5258 -0.1858
C17 C 0.2060(5) 0.5108(3) -0.1115(3)
H21 H 0.2450 0.5776 -0.1531
C18 C 0.2385(4) 0.3500(3) 0.0226(2)
H22 H 0.3010 0.3045 0.0745
C19 C 1.1411(3) 0.1870(2) 0.4263(2)
C20 C 1.1982(4) 0.3014(2) 0.4106(2)
C21 C 1.2649(4) 0.3585(2) 0.3171(2)
H23 H 1.2688 0.3261 0.2648
C22 C 1.3259(4) 0.4624(2) 0.2991(2)
C23 C 1.3984(4) 0.5206(3) 0.1953(3)
C24 C 1.3172(4) 0.5116(3) 0.3767(3)
H24 H 1.3582 0.5811 0.3668
C25 C 1.2467(4) 0.4552(3) 0.4682(3)
C26 C 1.1869(4) 0.3507(3) 0.4880(3)
H25 H 1.1405 0.3145 0.5511
N1A N 0.1901(3) 0.9256(2) -0.4145(2)
C1A C 0.2353(4) 0.8203(3) -0.4054(3)
H1A H 0.1818 0.7826 -0.4419
O2A O 0.3977(4) 0.7092(3) -0.0423(3)
H2A H 0.4084 0.7725 -0.0346
H3A H 0.3069 0.7394 -0.0437
N2A N 0.7061(3) 0.5524(2) 0.0344(2)
C2A C 0.3572(4) 0.7661(3) -0.3443(3)
H4A H 0.3827 0.6924 -0.3380
N3A N 0.6417(3) 0.9841(2) -0.2507(2)
H5A H 0.6822 0.9324 -0.2726
C3A C 0.4414(4) 0.8221(3) -0.2924(3)
H6A H 0.5247 0.7870 -0.2511
N4A N 0.8670(3) 0.8805(2) -0.1002(2)
H7A H 0.7797 0.8740 -0.0664
C4A C 0.3995(4) 0.9309(3) -0.3030(2)
C5A C 0.2720(4) 0.9783(2) -0.3630(2)
H8A H 0.2416 1.0509 -0.3678
C6A C 0.4867(4) 1.0002(3) -0.2527(3)
O8A O 0.4161(3) 1.0678(2) -0.2189(2)
C7A C 0.7455(4) 1.0513(2) -0.2126(2)
H9A H 0.6945 1.0666 -0.1534
O9A O 1.0995(3) 0.7961(2) -0.1183(2)
C8A C 0.7759(4) 1.1612(3) -0.2944(3)
H10A H 0.8222 1.1473 -0.3547
H11A H 0.6772 1.2019 -0.3141
C9A C 0.8854(4) 1.2314(3) -0.2558(3)
H12A H 0.8348 1.2518 -0.1999
H13A H 0.9072 1.2991 -0.3107
C10A C 1.0376(4) 1.1682(3) -0.2191(3)
H14A H 1.0941 1.1557 -0.2770
H15A H 1.1022 1.2123 -0.1905
C11A C 1.0085(4) 1.0573(3) -0.1383(3)
H16A H 1.1077 1.0173 -0.1189
H17A H 0.9617 1.0702 -0.0776
C12A C 0.9003(4) 0.9868(2) -0.1775(2)
H18A H 0.9512 0.9717 -0.2368
C13A C 0.9673(4) 0.7935(3) -0.0802(3)
C14A C 0.9064(4) 0.6865(3) -0.0082(2)
C15A C 0.9993(4) 0.6180(3) 0.0697(3)
H19A H 1.0995 0.6385 0.0799
C16A C 0.9405(5) 0.5197(3) 0.1314(3)
H20A H 0.9987 0.4742 0.1858
C17A C 0.7940(5) 0.4892(3) 0.1115(3)
H21A H 0.7550 0.4224 0.1531
C18A C 0.7615(4) 0.6500(3) -0.0226(2)
H22A H 0.6990 0.6955 -0.0745
O1A O 0.9386(2) -0.14328(16) 0.49165(15)
O3A O 0.8290(3) -0.1390(2) 0.6382(2)
O4A O 0.5707(3) -0.4580(2) 0.85831(19)
O5A O 0.5804(5) -0.6198(2) 0.8294(3)
O6A O 0.7026(6) -0.5937(3) 0.4635(3)
N5A N 0.7699(5) -0.5095(3) 0.4519(3)
O7A O 0.8554(7) -0.4700(4) 0.3788(3)
C19A C 0.8589(3) -0.1870(2) 0.5737(2)
C20A C 0.8018(4) -0.3014(2) 0.5894(2)
C21A C 0.7351(4) -0.3585(2) 0.6829(2)
H23A H 0.7312 -0.3261 0.7352
C22A C 0.6741(4) -0.4624(2) 0.7009(2)
C23A C 0.6016(4) -0.5206(3) 0.8047(3)
C24A C 0.6828(4) -0.5116(3) 0.6233(3)
H24A H 0.6418 -0.5811 0.6332
C25A C 0.7533(4) -0.4552(3) 0.5318(3)
C26A C 0.8131(4) -0.3507(3) 0.5120(3)
H25A H 0.8595 -0.3145 0.4489
Cu1_2 Cu 0.0000 1.0000 -0.5000
N1A_2 N 1.1901(3) -0.0744(2) 0.5855(2)
Cu2_2 Cu 0.5000 -0.5000 1.0000
Cu2_3 Cu 1.5000 0.5000 0.0000
O4_2 O 0.4293(3) 0.4580(2) 0.14169(19)
O4A_2 O 0.5707(3) 0.5420(2) -0.14169(19)
O10 O 0.5895(5) -0.1245(5) 0.0312(4)
H26 H 0.6172 -0.1880 0.0712
H27 H 0.5727 -0.1291 0.0937
loop_
_geom_bond_atom_site_label_1
_geom_bond_atom_site_label_2
_geom_bond_site_symmetry_1
_geom_bond_site_symmetry_2
Cu1 O1 1_555 1_555
O1 C19 1_555 1_555
N1 Cu1 1_555 1_555
C1 N1 1_555 1_555
H1 C1 1_555 1_555
O2 H2 1_555 1_555
H3 O2 1_555 1_555
Cu2 O2 1_555 1_555
O3 Cu1 1_555 1_555
N2 Cu2 1_555 1_555
C2 C1 1_555 1_555
H4 C2 1_555 1_555
O4 C23 1_555 1_555
N3 H5 1_555 1_555
C3 C2 1_555 1_555
H6 C3 1_555 1_555
O5 C23 1_555 1_555
N4 H7 1_555 1_555
C4 C3 1_555 1_555
O6 N5 1_555 1_555
N5 O7 1_555 1_555
C5 N1 1_555 1_555
H8 C5 1_555 1_555
C6 N3 1_555 1_555
O8 C6 1_555 1_555
C7 N3 1_555 1_555
H9 C7 1_555 1_555
O9 C13 1_555 1_555
C8 C7 1_555 1_555
H10 C8 1_555 1_555
H11 C8 1_555 1_555
C9 C8 1_555 1_555
H12 C9 1_555 1_555
H13 C9 1_555 1_555
C10 C9 1_555 1_555
H14 C10 1_555 1_555
H15 C10 1_555 1_555
C11 C10 1_555 1_555
H16 C11 1_555 1_555
H17 C11 1_555 1_555
C12 N4 1_555 1_555
H18 C12 1_555 1_555
C13 N4 1_555 1_555
C14 C13 1_555 1_555
C15 C14 1_555 1_555
H19 C15 1_555 1_555
C16 C15 1_555 1_555
H20 C16 1_555 1_555
C17 N2 1_555 1_555
H21 C17 1_555 1_555
C18 N2 1_555 1_555
H22 C18 1_555 1_555
C19 O3 1_555 1_555
C20 C19 1_555 1_555
C21 C20 1_555 1_555
H23 C21 1_555 1_555
C22 C21 1_555 1_555
C23 C22 1_555 1_555
C24 C22 1_555 1_555
H24 C24 1_555 1_555
C25 N5 1_555 1_555
C26 C20 1_555 1_555
H25 C26 1_555 1_555
O10 H26 1_555 1_555
H27 O10 1_555 1_555
N1A C1A 1_555 1_555
C1A H1A 1_555 1_555
O2A Cu2 1_555 1_555
H2A O2A 1_555 1_555
H3A O2A 1_555 1_555
N2A Cu2 1_555 1_555
C2A C1A 1_555 1_555
H4A C2A 1_555 1_555
N3A H5A 1_555 1_555
C3A C2A 1_555 1_555
H6A C3A 1_555 1_555
N4A H7A 1_555 1_555
C4A C3A 1_555 1_555
C5A N1A 1_555 1_555
H8A C5A 1_555 1_555
C6A N3A 1_555 1_555
O8A C6A 1_555 1_555
C7A N3A 1_555 1_555
H9A C7A 1_555 1_555
O9A C13A 1_555 1_555
C8A C7A 1_555 1_555
H10A C8A 1_555 1_555
H11A C8A 1_555 1_555
C9A C8A 1_555 1_555
H12A C9A 1_555 1_555
H13A C9A 1_555 1_555
C10A C9A 1_555 1_555
H14A C10A 1_555 1_555
H15A C10A 1_555 1_555
C11A C10A 1_555 1_555
H16A C11A 1_555 1_555
H17A C11A 1_555 1_555
C12A N4A 1_555 1_555
H18A C12A 1_555 1_555
C13A N4A 1_555 1_555
C14A C13A 1_555 1_555
C15A C14A 1_555 1_555
H19A C15A 1_555 1_555
C16A C15A 1_555 1_555
H20A C16A 1_555 1_555
C17A N2A 1_555 1_555
H21A C17A 1_555 1_555
C18A N2A 1_555 1_555
H22A C18A 1_555 1_555
O1A Cu1 1_555 1_555
O3A Cu1 1_555 1_555
O4A C23A 1_555 1_555
O5A C23A 1_555 1_555
O6A N5A 1_555 1_555
N5A O7A 1_555 1_555
C19A O1A 1_555 1_555
C20A C19A 1_555 1_555
C21A C20A 1_555 1_555
H23A C21A 1_555 1_555
C22A C21A 1_555 1_555
C23A C22A 1_555 1_555
C24A C22A 1_555 1_555
H24A C24A 1_555 1_555
C25A N5A 1_555 1_555
C26A C20A 1_555 1_555
H25A C26A 1_555 1_555
Cu1_2 N1A 1_555 1_555
N1A_2 Cu1 1_555 1_555
Cu2_2 O4A 1_555 1_555
Cu2_3 O4 1_555 1_555
O4_2 Cu2 1_555 1_555
O4A_2 Cu2 1_555 1_555
C4 C5 1_555 1_555
C4 C6 1_555 1_555
C7 C12 1_555 1_555
C11 C12 1_555 1_555
C14 C18 1_555 1_555
C16 C17 1_555 1_555
C24 C25 1_555 1_555
C25 C26 1_555 1_555
C4A C5A 1_555 1_555
C4A C6A 1_555 1_555
C7A C12A 1_555 1_555
C11A C12A 1_555 1_555
C14A C18A 1_555 1_555
C16A C17A 1_555 1_555
O3A C19A 1_555 1_555
C24A C25A 1_555 1_555
C25A C26A 1_555 1_555

#END
