
#######################################################################
#
#                 Cambridge Crystallographic Data Centre
#                                CCDC 
#
#######################################################################
#
# If this CIF has been generated from an entry in the Cambridge 
# Structural Database, then it will include bibliographic, chemical, 
# crystal, experimental, refinement or atomic coordinate data resulting 
# from the CCDC's data processing and validation procedures.
#
#######################################################################

data_GUPROA
_symmetry_cell_setting           orthorhombic
_symmetry_space_group_name_H-M   'P b c a'
_symmetry_Int_Tables_number      61
_space_group_name_Hall           '-P 2ac 2ab'
loop_
_symmetry_equiv_pos_site_id
_symmetry_equiv_pos_as_xyz
1 x,y,z
2 1/2-x,-y,1/2+z
3 1/2+x,1/2-y,-z
4 -x,1/2+y,1/2-z
5 -x,-y,-z
6 1/2+x,y,1/2-z
7 1/2-x,1/2+y,z
8 x,1/2-y,1/2+z
_cell_length_a                   17.316(6)
_cell_length_b                   14.480(5)
_cell_length_c                   24.024(8)
_cell_angle_alpha                90
_cell_angle_beta                 90
_cell_angle_gamma                90
_cell_volume                     6023.67
loop_
_atom_site_label
_atom_site_type_symbol
_atom_site_fract_x
_atom_site_fract_y
_atom_site_fract_z
Co1 Co 0.13116(4) 0.45951(4) 0.17989(2)
Co2 Co 0.12845(4) 0.27890(4) 0.07760(2)
O1 O 0.0813(2) 0.5718(2) 0.13648(13)
O2 O -0.0083(2) 0.5017(2) 0.08433(15)
O3 O 0.21443(19) 0.4669(2) 0.11674(12)
O4 O 0.1731(2) 0.3969(2) 0.03906(12)
O5 O -0.0775(2) 0.6631(2) 0.38118(13)
O6 O 0.0087(2) 0.7283(2) 0.32456(14)
O7 O 0.33138(19) 0.8409(2) 0.21940(12)
O8 O 0.2916(2) 0.7705(2) 0.14144(12)
O9 O 0.06008(18) 0.3673(2) 0.12941(12)
H1 H 0.0336 0.3256 0.1454
H2 H 0.0354 0.4067 0.1101
N1 N -0.0421(2) 0.7280(3) -0.01333(15)
N2 N 0.2961(2) 0.6896(3) 0.03198(15)
N3 N 0.0443(2) 0.4792(3) 0.24341(16)
N4 N 0.2075(2) 0.5487(3) 0.22513(15)
C1 C 0.0331(3) 0.5690(3) 0.0977(2)
C2 C 0.0241(3) 0.6548(3) 0.06199(19)
C3 C 0.0709(3) 0.7316(3) 0.0686(2)
H3 H 0.1093 0.7321 0.0956
C4 C 0.0599(4) 0.8073(4) 0.0347(2)
C5 C 0.0031(3) 0.8020(3) -0.0056(2)
H4 H -0.0041 0.8528 -0.0287
C6 C -0.0306(3) 0.6561(3) 0.02040(19)
H5 H -0.0612 0.6040 0.0156
C7 C 0.1099(4) 0.8927(4) 0.0406(3)
H6 H 0.1499 0.8811 0.0673
H7 H 0.0787 0.9435 0.0529
H8 H 0.1327 0.9074 0.0052
C8 C 0.2016(3) 0.4638(3) 0.06549(19)
C9 C 0.2230(3) 0.5491(3) 0.03316(18)
C10 C 0.2772(3) 0.6083(3) 0.05522(19)
H9 H 0.3020 0.5911 0.0880
C11 C 0.2592(3) 0.7128(3) -0.0149(2)
H10 H 0.2716 0.7691 -0.0312
C12 C 0.2042(3) 0.6592(3) -0.04071(19)
C13 C 0.1861(3) 0.5749(3) -0.01589(18)
H11 H 0.1496 0.5362 -0.0320
C14 C 0.1627(4) 0.6916(4) -0.0928(2)
H12 H 0.1553 0.7572 -0.0911
H13 H 0.1134 0.6615 -0.0953
H14 H 0.1931 0.6765 -0.1249
C15 C -0.0318(3) 0.6620(3) 0.3407(2)
C16 C -0.0251(3) 0.5726(3) 0.30869(19)
C17 C 0.0340(3) 0.5587(3) 0.27125(19)
H15 H 0.0685 0.6068 0.2649
C18 C -0.0060(3) 0.4125(4) 0.2529(2)
H16 H 0.0020 0.3563 0.2351
C19 C -0.0698(3) 0.4202(4) 0.2873(2)
C20 C -0.0781(3) 0.5025(3) 0.3160(2)
H17 H -0.1195 0.5105 0.3403
C21 C -0.1263(4) 0.3428(4) 0.2921(3)
H18 H -0.1592 0.3423 0.2599
H19 H -0.1571 0.3512 0.3249
H20 H -0.0989 0.2853 0.2945
C22 C 0.3026(3) 0.7742(3) 0.19276(19)
C23 C 0.2784(3) 0.6899(3) 0.22519(18)
C24 C 0.3055(3) 0.6716(3) 0.2777(2)
H21 H 0.3379 0.7135 0.2954
C25 C 0.2841(4) 0.5898(4) 0.3044(2)
C26 C 0.2350(3) 0.5306(3) 0.2758(2)
H22 H 0.2205 0.4756 0.2928
C27 C 0.2299(3) 0.6269(3) 0.20028(19)
H23 H 0.2120 0.6392 0.1646
C28 C 0.3141(5) 0.5658(5) 0.3622(3)
H24 H 0.2727 0.5414 0.3843
H25 H 0.3343 0.6203 0.3796
H26 H 0.3543 0.5204 0.3591
Co1F Co 0.36884(4) 0.95951(4) 0.17989(2)
Co2C Co -0.12845(4) 0.77890(4) 0.42240(2)
Co2D Co -0.12845(4) 0.72110(4) -0.07760(2)
Co2F Co 0.37155(4) 0.77890(4) 0.07760(2)
O5C O 0.0775(2) 0.1631(2) 0.11882(13)
O7F O 0.16862(19) 0.3409(2) 0.21940(12)
O8F O 0.2084(2) 0.2705(2) 0.14144(12)
N1D N 0.0421(2) 0.2720(3) 0.01333(15)
N2F N 0.2039(2) 0.1896(3) 0.03198(15)
O10 O 0.1082(8) 0.3685(16) 0.3780(6)
O11? O 0.1132(9) 0.4929(15) 0.4060(5)
loop_
_geom_bond_atom_site_label_1
_geom_bond_atom_site_label_2
_geom_bond_site_symmetry_1
_geom_bond_site_symmetry_2
Co1 O1 1_555 1_555
Co2 O4 1_555 1_555
O1 C1 1_555 1_555
O2 C1 1_555 1_555
O3 Co1 1_555 1_555
O4 C8 1_555 1_555
O5 C15 1_555 1_555
O6 C15 1_555 1_555
O7 C22 1_555 1_555
O8 C22 1_555 1_555
O9 Co1 1_555 1_555
H1 O9 1_555 1_555
H2 O9 1_555 1_555
N1 C5 1_555 1_555
N2 C10 1_555 1_555
N3 Co1 1_555 1_555
N4 Co1 1_555 1_555
C1 C2 1_555 1_555
C2 C3 1_555 1_555
C3 H3 1_555 1_555
C4 C3 1_555 1_555
C5 C4 1_555 1_555
H4 C5 1_555 1_555
C6 N1 1_555 1_555
H5 C6 1_555 1_555
C7 C4 1_555 1_555
H6 C7 1_555 1_555
H7 C7 1_555 1_555
H8 C7 1_555 1_555
C8 O3 1_555 1_555
C9 C8 1_555 1_555
C10 C9 1_555 1_555
H9 C10 1_555 1_555
C11 N2 1_555 1_555
H10 C11 1_555 1_555
C12 C11 1_555 1_555
C13 C9 1_555 1_555
H11 C13 1_555 1_555
C14 C12 1_555 1_555
H12 C14 1_555 1_555
H13 C14 1_555 1_555
H14 C14 1_555 1_555
C15 C16 1_555 1_555
C16 C17 1_555 1_555
C17 N3 1_555 1_555
H15 C17 1_555 1_555
C18 N3 1_555 1_555
H16 C18 1_555 1_555
C19 C18 1_555 1_555
C20 C16 1_555 1_555
H17 C20 1_555 1_555
C21 C19 1_555 1_555
H18 C21 1_555 1_555
H19 C21 1_555 1_555
H20 C21 1_555 1_555
C22 C23 1_555 1_555
C23 C24 1_555 1_555
C24 H21 1_555 1_555
C25 C24 1_555 1_555
C26 N4 1_555 1_555
H22 C26 1_555 1_555
C27 N4 1_555 1_555
H23 C27 1_555 1_555
C28 C25 1_555 1_555
H24 C28 1_555 1_555
H25 C28 1_555 1_555
H26 C28 1_555 1_555
Co1F O7 1_555 1_555
Co2C O5 1_555 1_555
Co2D N1 1_555 1_555
Co2F O8 1_555 1_555
O5C Co2 1_555 1_555
O7F Co1 1_555 1_555
O8F Co2 1_555 1_555
N1D Co2 1_555 1_555
N2F Co2 1_555 1_555
Co2 O9 1_555 1_555
N2 Co2F 1_555 1_555
C2 C6 1_555 1_555
C12 C13 1_555 1_555
C19 C20 1_555 1_555
C23 C27 1_555 1_555
C25 C26 1_555 1_555

#END
