
#######################################################################
#
#                 Cambridge Crystallographic Data Centre
#                                CCDC 
#
#######################################################################
#
# If this CIF has been generated from an entry in the Cambridge 
# Structural Database, then it will include bibliographic, chemical, 
# crystal, experimental, refinement or atomic coordinate data resulting 
# from the CCDC's data processing and validation procedures.
#
#######################################################################

data_GUPREQ
_symmetry_cell_setting           monoclinic
_symmetry_space_group_name_H-M   'P 21/n'
_symmetry_Int_Tables_number      14
_space_group_name_Hall           '-P 2yn'
loop_
_symmetry_equiv_pos_site_id
_symmetry_equiv_pos_as_xyz
1 x,y,z
2 1/2-x,1/2+y,1/2-z
3 -x,-y,-z
4 1/2+x,1/2-y,1/2+z
_cell_length_a                   9.8139(8)
_cell_length_b                   23.6796(18)
_cell_length_c                   21.3151(17)
_cell_angle_alpha                90
_cell_angle_beta                 98.069(2)
_cell_angle_gamma                90
_cell_volume                     4904.36
loop_
_atom_site_label
_atom_site_type_symbol
_atom_site_fract_x
_atom_site_fract_y
_atom_site_fract_z
Cu1 Cu -0.53396(6) 0.01485(2) -0.10228(3)
O1 O -0.4006(3) -0.03508(13) -0.05352(16)
N1 N -1.3289(4) 0.01214(16) -0.30279(19)
C1 C -1.3823(6) -0.0356(2) -0.3300(3)
H1 H -1.4224 -0.0612 -0.3051
O2 O -0.6873(3) -0.03343(14) -0.08858(18)
H2 H -0.6844 -0.0666 -0.0730
H3 H -0.6376 -0.0348 -0.1181
O3 O -1.5143(4) 0.09753(14) -0.25494(17)
H4 H -1.5073 0.0921 -0.2938
H5 H -1.4845 0.1230 -0.2283
Cu2 Cu -0.37696(6) 0.13650(2) -0.08795(3)
O4 O -0.5249(4) -0.09665(15) -0.00553(19)
N2 N -1.1219(4) -0.28234(16) -0.4444(2)
C2 C -1.3809(6) -0.0484(2) -0.3927(3)
H6 H -1.4191 -0.0821 -0.4094
Cu3 Cu -1.34558(6) 0.03480(2) -0.21167(3)
N3 N -1.2469(4) 0.00104(16) -0.53398(19)
H7 H -1.1919 0.0260 -0.5152
C3 C -1.3225(5) -0.0112(2) -0.4309(2)
O5 O -0.3038(4) -0.28780(16) -0.0075(2)
N4 N -1.1428(5) -0.10396(16) -0.5780(2)
H8 H -1.2029 -0.1277 -0.5953
C4 C -1.2690(5) 0.0383(2) -0.4035(3)
H9 H -1.2307 0.0651 -0.4277
O6 O -0.0887(5) -0.29448(16) 0.0265(2)
O7 O 0.1985(3) -0.13188(14) 0.03859(18)
N5 N -0.1919(5) -0.26703(18) 0.0088(2)
C5 C -1.2726(6) 0.0477(2) -0.3404(2)
H10 H -1.2335 0.0808 -0.3226
O8 O 0.1143(3) -0.04573(14) 0.04956(18)
N6 N -0.8957(5) 0.30656(17) -0.1719(2)
C6 C -1.3313(6) -0.0262(2) -0.5002(3)
O9 O -0.6741(3) 0.06901(12) -0.13748(16)
C7 C -1.2440(5) -0.0097(2) -0.6015(2)
H11 H -1.3315 -0.0271 -0.6193
N7 N -1.2884(8) -0.2794(2) -0.1468(3)
O10 O -0.5580(3) 0.15110(13) -0.13326(16)
C8 C -1.2278(6) 0.0456(2) -0.6364(2)
H12 H -1.3055 0.0700 -0.6323
H13 H -1.1448 0.0646 -0.6172
C9 C -1.2197(6) 0.0354(2) -0.7064(3)
H14 H -1.3061 0.0197 -0.7266
H15 H -1.2051 0.0711 -0.7268
O11 O -0.7804(4) 0.32679(15) -0.1691(2)
O12 O -1.0002(4) 0.33446(14) -0.1761(2)
C10 C -1.1033(6) -0.0048(2) -0.7148(3)
H16 H -1.0161 0.0124 -0.6981
H17 H -1.1029 -0.0119 -0.7596
O13 O -1.2872(3) 0.16408(13) -0.18725(18)
C11 C -1.1195(6) -0.0606(2) -0.6807(3)
H18 H -1.2027 -0.0795 -0.7000
H19 H -1.0419 -0.0850 -0.6850
O14 O -1.1855(3) 0.08303(13) -0.20695(16)
C12 C -1.1271(5) -0.05042(19) -0.6106(2)
H20 H -1.0402 -0.0332 -0.5917
O15 O -1.4451(3) -0.03373(12) -0.19488(15)
C13 C -1.0686(5) -0.1176(2) -0.5231(3)
O16 O -1.2309(4) -0.06704(15) -0.17967(19)
C14 C -1.0981(5) -0.17453(19) -0.4952(2)
C15 C -1.0523(5) -0.1861(2) -0.4327(2)
H21 H -1.0112 -0.1579 -0.4061
O17 O -1.1667(7) -0.2695(2) -0.1245(3)
C16 C -1.0676(5) -0.2396(2) -0.4098(2)
H22 H -1.0377 -0.2462 -0.3671
O18 O -1.3365(7) -0.3259(2) -0.1572(3)
C17 C -1.1718(5) -0.2709(2) -0.5045(3)
H23 H -1.2143 -0.2999 -0.5295
O19 O -1.8062(5) -0.25178(19) -0.1934(2)
C18 C -1.1638(5) -0.2182(2) -0.5316(3)
H24 H -1.2016 -0.2119 -0.5736
O20 O -1.8376(6) -0.1588(2) -0.1882(3)
O21 O -1.4140(4) -0.06233(16) -0.52272(18)
C19 C -0.4159(5) -0.0800(2) -0.0233(2)
O22 O -0.9775(4) -0.08829(15) -0.49489(19)
C20 C -0.2872(5) -0.11494(19) -0.0078(2)
O23 O -0.3742(3) 0.05804(12) -0.12125(15)
C21 C -0.1579(5) -0.08963(19) 0.0022(2)
H25 H -0.1503 -0.0506 -0.0012
C22 C -0.0398(5) -0.12237(19) 0.0171(2)
C23 C -0.0518(5) -0.1808(2) 0.0179(2)
H26 H 0.0264 -0.2034 0.0255
C24 C -0.1798(5) -0.20500(19) 0.0072(2)
C25 C -0.2987(5) -0.17346(19) -0.0042(2)
H27 H -0.3845 -0.1908 -0.0095
C26 C 0.1009(5) -0.0961(2) 0.0361(2)
C27 C -0.6661(5) 0.1217(2) -0.1431(2)
C28 C -0.7964(5) 0.15494(18) -0.1611(2)
C29 C -0.7883(5) 0.21338(18) -0.1625(2)
H28 H -0.7030 0.2312 -0.1568
C30 C -0.9076(5) 0.24474(18) -0.1723(2)
C31 C -1.0354(5) 0.22028(19) -0.1810(2)
H29 H -1.1145 0.2423 -0.1860
C32 C -1.0437(5) 0.16202(18) -0.1821(2)
C33 C -0.9247(5) 0.12946(19) -0.1723(2)
H30 H -0.9312 0.0903 -0.1733
C34 C -1.1842(5) 0.1348(2) -0.1931(2)
C35 C -1.3556(6) -0.0731(2) -0.1816(2)
C36 C -1.4135(6) -0.1310(2) -0.1713(2)
C37 C -1.3255(6) -0.1769(2) -0.1596(2)
H31 H -1.2306 -0.1716 -0.1533
C38 C -1.3800(8) -0.2297(2) -0.1574(3)
C39 C -1.5203(8) -0.2390(2) -0.1654(3)
H32 H -1.5551 -0.2754 -0.1645
C40 C -1.6086(7) -0.1931(2) -0.1750(3)
C41 C -1.5549(6) -0.1394(2) -0.1774(3)
H33 H -1.6139 -0.1085 -0.1831
C42 C -1.7614(8) -0.2002(3) -0.1848(3)
Cu1_2 Cu -1.53396(6) 0.01485(2) -0.10228(3)
Cu2_2 Cu -1.37696(6) 0.13650(2) -0.08795(3)
Cu2A Cu -1.12304(6) -0.36350(2) -0.41205(3)
Cu2B Cu -0.62304(6) -0.13650(2) 0.08795(3)
Cu2B_2 Cu 0.37696(6) -0.13650(2) 0.08795(3)
O4B O -0.4751(4) 0.09665(15) 0.00553(19)
N2A N -0.3781(4) 0.21766(16) -0.0556(2)
Cu3_2 Cu -0.34558(6) 0.03480(2) -0.21167(3)
O7B O -0.1985(3) 0.13188(14) -0.03859(18)
O13_2 O -0.2872(3) 0.16408(13) -0.18725(18)
O15_2 O -0.4451(3) -0.03373(12) -0.19488(15)
O23_2 O -1.3742(3) 0.05804(12) -0.12125(15)
O24 O -1.4464(4) -0.13812(15) -0.61986(18)
H34 H -1.4418 -0.1242 -0.5829
H35 H -1.4656 -0.1727 -0.6153
O25 O -0.9557(4) -0.02392(17) -0.1146(2)
H36 H -0.9907 -0.0089 -0.0843
H37 H -0.9745 -0.0262 -0.1546
O26 O -2.0668(6) -0.2492(2) -0.2452(2)
H38 H -2.1387 -0.2722 -0.2761
H39 H -2.0678 -0.2693 -0.2840
O27 O -2.0881(6) -0.1370(2) -0.2633(4)
H40 H -2.1163 -0.1037 -0.2575
H41 H -2.0895 -0.1559 -0.2973
loop_
_geom_bond_atom_site_label_1
_geom_bond_atom_site_label_2
_geom_bond_site_symmetry_1
_geom_bond_site_symmetry_2
Cu1 O1 1_555 1_555
O1 C19 1_555 1_555
N1 C1 1_555 1_555
C1 H1 1_555 1_555
O2 Cu1 1_555 1_555
H2 O2 1_555 1_555
H3 O2 1_555 1_555
O3 H4 1_555 1_555
H5 O3 1_555 1_555
Cu2 O10 1_555 1_555
O4 C19 1_555 1_555
N2 C16 1_555 1_555
C2 C1 1_555 1_555
H6 C2 1_555 1_555
Cu3 N1 1_555 1_555
N3 H7 1_555 1_555
C3 C2 1_555 1_555
O5 N5 1_555 1_555
N4 H8 1_555 1_555
C4 C3 1_555 1_555
H9 C4 1_555 1_555
O6 N5 1_555 1_555
O7 C26 1_555 1_555
N5 C24 1_555 1_555
C5 N1 1_555 1_555
H10 C5 1_555 1_555
O8 C26 1_555 1_555
N6 O11 1_555 1_555
C6 N3 1_555 1_555
O9 Cu1 1_555 1_555
C7 N3 1_555 1_555
H11 C7 1_555 1_555
N7 O17 1_555 1_555
O10 C27 1_555 1_555
C8 C7 1_555 1_555
H12 C8 1_555 1_555
H13 C8 1_555 1_555
C9 C8 1_555 1_555
H14 C9 1_555 1_555
H15 C9 1_555 1_555
O12 N6 1_555 1_555
C10 C9 1_555 1_555
H16 C10 1_555 1_555
H17 C10 1_555 1_555
O13 C34 1_555 1_555
C11 C10 1_555 1_555
H18 C11 1_555 1_555
H19 C11 1_555 1_555
O14 Cu3 1_555 1_555
C12 N4 1_555 1_555
H20 C12 1_555 1_555
O15 Cu3 1_555 1_555
C13 N4 1_555 1_555
O16 Cu3 1_555 1_555
C14 C13 1_555 1_555
C15 C14 1_555 1_555
H21 C15 1_555 1_555
C16 C15 1_555 1_555
H22 C16 1_555 1_555
O18 N7 1_555 1_555
C17 N2 1_555 1_555
H23 C17 1_555 1_555
O19 C42 1_555 1_555
C18 C14 1_555 1_555
H24 C18 1_555 1_555
O20 C42 1_555 1_555
O21 C6 1_555 1_555
C19 C20 1_555 1_555
O22 C13 1_555 1_555
C20 C21 1_555 1_555
O23 Cu1 1_555 1_555
C21 H25 1_555 1_555
C22 C21 1_555 1_555
C23 C22 1_555 1_555
H26 C23 1_555 1_555
C24 C23 1_555 1_555
C25 C20 1_555 1_555
H27 C25 1_555 1_555
C26 C22 1_555 1_555
C27 O9 1_555 1_555
C28 C27 1_555 1_555
C29 C28 1_555 1_555
H28 C29 1_555 1_555
C30 N6 1_555 1_555
C31 C30 1_555 1_555
H29 C31 1_555 1_555
C32 C31 1_555 1_555
C33 C28 1_555 1_555
H30 C33 1_555 1_555
C34 O14 1_555 1_555
C35 O15 1_555 1_555
C36 C35 1_555 1_555
C37 C36 1_555 1_555
H31 C37 1_555 1_555
C38 N7 1_555 1_555
C39 C38 1_555 1_555
H32 C39 1_555 1_555
C40 C39 1_555 1_555
C41 C36 1_555 1_555
H33 C41 1_555 1_555
C42 C40 1_555 1_555
O24 H34 1_555 1_555
H35 O24 1_555 1_555
O25 H36 1_555 1_555
H37 O25 1_555 1_555
O26 H38 1_555 1_555
H39 O26 1_555 1_555
O27 H40 1_555 1_555
H41 O27 1_555 1_555
Cu1_2 O15 1_555 1_555
Cu2_2 O13 1_555 1_555
Cu2A N2 1_555 1_555
Cu2B O4 1_555 1_555
Cu2B_2 O7 1_555 1_555
O4B Cu2 1_555 1_555
N2A Cu2 1_555 1_555
Cu3_2 O23 1_555 1_555
O7B Cu2 1_555 1_555
O13_2 Cu2 1_555 1_555
O15_2 Cu1 1_555 1_555
O23_2 Cu3 1_555 1_555
O3 Cu3 1_555 1_555
Cu2 O23 1_555 1_555
C3 C6 1_555 1_555
C4 C5 1_555 1_555
C7 C12 1_555 1_555
C11 C12 1_555 1_555
O16 C35 1_555 1_555
C17 C18 1_555 1_555
C24 C25 1_555 1_555
C29 C30 1_555 1_555
C32 C33 1_555 1_555
C32 C34 1_555 1_555
C37 C38 1_555 1_555
C40 C41 1_555 1_555
Cu1_2 O23_2 1_555 1_555
Cu2_2 O23_2 1_555 1_555
Cu3_2 O15_2 1_555 1_555

#END
