
#######################################################################
#
#                 Cambridge Crystallographic Data Centre
#                                CCDC 
#
#######################################################################
#
# If this CIF has been generated from an entry in the Cambridge 
# Structural Database, then it will include bibliographic, chemical, 
# crystal, experimental, refinement or atomic coordinate data resulting 
# from the CCDC's data processing and validation procedures.
#
#######################################################################

data_GUPTOB
_symmetry_cell_setting           monoclinic
_symmetry_space_group_name_H-M   'P 21/n'
_symmetry_Int_Tables_number      14
_space_group_name_Hall           '-P 2yn'
loop_
_symmetry_equiv_pos_site_id
_symmetry_equiv_pos_as_xyz
1 x,y,z
2 1/2-x,1/2+y,1/2-z
3 -x,-y,-z
4 1/2+x,1/2-y,1/2+z
_cell_length_a                   5.66710(10)
_cell_length_b                   21.3723(5)
_cell_length_c                   14.7092(3)
_cell_angle_alpha                90
_cell_angle_beta                 98.10
_cell_angle_gamma                90
_cell_volume                     1763.79
loop_
_atom_site_label
_atom_site_type_symbol
_atom_site_fract_x
_atom_site_fract_y
_atom_site_fract_z
Mo1 Mo 0.15550(4) 0.039983(12) 0.803064(17)
Mo2 Mo -0.09758(4) 0.144550(11) 0.924590(17)
Mo3 Mo -0.23964(4) 0.103270(12) 1.125800(17)
Cr1 Cr 0.0000 0.0000 1.0000
Cu1 Cu 0.65516(7) 0.120488(19) 0.69879(3)
O1 O -0.1537(3) 0.03967(9) 0.88762(13)
O2 O 0.0649(3) 0.08675(9) 1.04352(13)
O3 O -0.2804(3) 0.00625(9) 1.06647(14)
O4 O 0.4285(4) 0.04294(10) 0.76422(15)
O5 O -0.2688(4) 0.16002(10) 0.81822(15)
O6 O -0.5213(4) 0.10572(12) 1.15634(16)
O7 O -0.3388(4) 0.13010(10) 0.99841(15)
O8 O 0.1830(4) 0.11420(10) 0.87691(15)
O9 O 0.0086(4) 0.21514(11) 0.96382(17)
O10 O 0.0784(4) -0.04565(10) 0.78346(15)
O11 O -0.0955(4) 0.16867(11) 1.17052(16)
O12 O -0.0507(4) 0.07114(11) 0.71351(15)
N1 N 0.3663(5) 0.17331(13) 0.67059(19)
N2 N 0.5878(5) 0.10088(14) 0.5652(2)
C1 C 0.3908(6) 0.13160(17) 0.5238(2)
C2 C 0.2697(6) 0.16989(16) 0.5808(2)
C3 C 0.2565(6) 0.20701(15) 0.7275(2)
H1 H 0.3238 0.2102 0.7888
C4 C 0.0595(6) 0.20221(18) 0.5454(3)
C5 C 0.7061(8) 0.0644(2) 0.5145(3)
H2 H 0.8424 0.0439 0.5420
C6 C 0.0409(6) 0.23818(16) 0.6978(3)
H3 H -0.0355 0.2601 0.7398
C7 C -0.0562(7) 0.23638(18) 0.6082(3)
H4 H -0.1976 0.2575 0.5884
C8 C -0.0197(8) 0.1966(2) 0.4490(3)
H5 H -0.1557 0.2182 0.4235
C9 C 0.3063(8) 0.1260(2) 0.4300(3)
C10 C 0.4321(9) 0.0860(2) 0.3781(3)
H6 H 0.3809 0.0800 0.3159
C11 C 0.0960(8) 0.1614(2) 0.3942(3)
H7 H 0.0398 0.1596 0.3318
C12 C 0.6310(9) 0.0561(2) 0.4205(3)
H8 H 0.7169 0.0299 0.3866
Mo1B Mo -0.15550(4) -0.039983(12) 1.196936(17)
Mo2B Mo 0.09758(4) -0.144550(11) 1.075410(17)
Mo3B Mo 0.23964(4) -0.103270(12) 0.874200(17)
Cu1B Cu -0.65516(7) -0.120488(19) 1.30121(3)
Cu1_2 Cu -0.34484(7) 0.120488(19) 0.69879(3)
Cu1B_2 Cu 0.34484(7) -0.120488(19) 1.30121(3)
O1B O 0.1537(3) -0.03967(9) 1.11238(13)
O2B O -0.0649(3) -0.08675(9) 0.95648(13)
O3B O 0.2804(3) -0.00625(9) 0.93353(14)
O4B O -0.4285(4) -0.04294(10) 1.23578(15)
O5B O 0.2688(4) -0.16002(10) 1.18178(15)
O5_2 O 0.7312(4) 0.16002(10) 0.81822(15)
O5B_2 O -0.7312(4) -0.16002(10) 1.18178(15)
O6B O 0.5213(4) -0.10572(12) 0.84366(16)
O7B O 0.3388(4) -0.13010(10) 1.00159(15)
O8B O -0.1830(4) -0.11420(10) 1.12309(15)
O9B O -0.0086(4) -0.21514(11) 1.03618(17)
O10B O -0.0784(4) 0.04565(10) 1.21654(15)
O11B O 0.0955(4) -0.16867(11) 0.82948(16)
O12B O 0.0507(4) -0.07114(11) 1.28649(15)
O12_2 O 0.9493(4) 0.07114(11) 0.71351(15)
O12B_2 O -0.9493(4) -0.07114(11) 1.28649(15)
N1B N -0.3663(5) -0.17331(13) 1.32941(19)
N2B N -0.5878(5) -0.10088(14) 1.4348(2)
C1B C -0.3908(6) -0.13160(17) 1.4762(2)
C2B C -0.2697(6) -0.16989(16) 1.4192(2)
C3B C -0.2565(6) -0.20701(15) 1.2725(2)
H1B H -0.3238 -0.2102 1.2112
C4B C -0.0595(6) -0.20221(18) 1.4546(3)
C5B C -0.7061(8) -0.0644(2) 1.4855(3)
H2B H -0.8424 -0.0439 1.4580
C6B C -0.0409(6) -0.23818(16) 1.3022(3)
H3B H 0.0355 -0.2601 1.2602
C7B C 0.0562(7) -0.23638(18) 1.3918(3)
H4B H 0.1976 -0.2575 1.4116
C8B C 0.0197(8) -0.1966(2) 1.5510(3)
H5B H 0.1557 -0.2182 1.5765
C9B C -0.3063(8) -0.1260(2) 1.5700(3)
C10B C -0.4321(9) -0.0860(2) 1.6219(3)
H6B H -0.3809 -0.0800 1.6841
C11B C -0.0960(8) -0.1614(2) 1.6058(3)
H7B H -0.0398 -0.1596 1.6682
C12B C -0.6310(9) -0.0561(2) 1.5795(3)
H8B H -0.7169 -0.0299 1.6134
loop_
_geom_bond_atom_site_label_1
_geom_bond_atom_site_label_2
_geom_bond_site_symmetry_1
_geom_bond_site_symmetry_2
Mo1 O1 1_555 1_555
Mo2 O1 1_555 1_555
Mo3 O2 1_555 1_555
Cr1 O1 1_555 1_555
Cu1 O4 1_555 1_555
O2 Mo2 1_555 1_555
O3 Mo3 1_555 1_555
O4 Mo1 1_555 1_555
O5 Mo2 1_555 1_555
O6 Mo3 1_555 1_555
O7 Mo2 1_555 1_555
O8 Mo1 1_555 1_555
O9 Mo2 1_555 1_555
O10 Mo1 1_555 1_555
O11 Mo3 1_555 1_555
O12 Mo1 1_555 1_555
N1 Cu1 1_555 1_555
N2 Cu1 1_555 1_555
C1 N2 1_555 1_555
C2 N1 1_555 1_555
C3 N1 1_555 1_555
H1 C3 1_555 1_555
C4 C2 1_555 1_555
C5 N2 1_555 1_555
H2 C5 1_555 1_555
C6 C3 1_555 1_555
H3 C6 1_555 1_555
C7 C4 1_555 1_555
H4 C7 1_555 1_555
C8 C4 1_555 1_555
H5 C8 1_555 1_555
C9 C1 1_555 1_555
C10 C9 1_555 1_555
H6 C10 1_555 1_555
C11 C8 1_555 1_555
H7 C11 1_555 1_555
C12 C5 1_555 1_555
H8 C12 1_555 1_555
Mo1B O3 1_555 1_555
Mo2B O1B 1_555 1_555
Mo3B O10 1_555 1_555
Cu1B O4B 1_555 1_555
Cu1_2 O5 1_555 1_555
Cu1B_2 O5B 1_555 1_555
O1B Cr1 1_555 1_555
O2B Cr1 1_555 1_555
O3B Mo1 1_555 1_555
O4B Mo1B 1_555 1_555
O5B Mo2B 1_555 1_555
O5_2 Cu1 1_555 1_555
O5B_2 Cu1B 1_555 1_555
O6B Mo3B 1_555 1_555
O7B Mo2B 1_555 1_555
O8B Mo1B 1_555 1_555
O9B Mo2B 1_555 1_555
O10B Mo3 1_555 1_555
O11B Mo3B 1_555 1_555
O12B Mo1B 1_555 1_555
O12_2 Cu1 1_555 1_555
O12B_2 Cu1B 1_555 1_555
N1B Cu1B 1_555 1_555
N2B Cu1B 1_555 1_555
C1B N2B 1_555 1_555
C2B N1B 1_555 1_555
C3B N1B 1_555 1_555
H1B C3B 1_555 1_555
C4B C2B 1_555 1_555
C5B N2B 1_555 1_555
H2B C5B 1_555 1_555
C6B C3B 1_555 1_555
H3B C6B 1_555 1_555
C7B C4B 1_555 1_555
H4B C7B 1_555 1_555
C8B C4B 1_555 1_555
H5B C8B 1_555 1_555
C9B C1B 1_555 1_555
C10B C9B 1_555 1_555
H6B C10B 1_555 1_555
C11B C8B 1_555 1_555
H7B C11B 1_555 1_555
C12B C5B 1_555 1_555
H8B C12B 1_555 1_555
Mo2 O8 1_555 1_555
Mo3 O7 1_555 1_555
Cr1 O2 1_555 1_555
Cr1 O3 1_555 1_555
Cr1 O3B 1_555 1_555
O12 Cu1_2 1_555 1_555
C1 C2 1_555 1_555
C6 C7 1_555 1_555
C9 C11 1_555 1_555
C10 C12 1_555 1_555
Mo1B O1B 1_555 1_555
Mo1B O10B 1_555 1_555
Mo2B O2B 1_555 1_555
Mo2B O8B 1_555 1_555
Mo3B O2B 1_555 1_555
Mo3B O3B 1_555 1_555
Mo3B O7B 1_555 1_555
Cu1B_2 O12B 1_555 1_555
C1B C2B 1_555 1_555
C6B C7B 1_555 1_555
C9B C11B 1_555 1_555
C10B C12B 1_555 1_555

#END
