
#######################################################################
#
#                 Cambridge Crystallographic Data Centre
#                                CCDC 
#
#######################################################################
#
# If this CIF has been generated from an entry in the Cambridge 
# Structural Database, then it will include bibliographic, chemical, 
# crystal, experimental, refinement or atomic coordinate data resulting 
# from the CCDC's data processing and validation procedures.
#
#######################################################################

data_GUPTIV
_symmetry_cell_setting           monoclinic
_symmetry_space_group_name_H-M   'P 21/n'
_symmetry_Int_Tables_number      14
_space_group_name_Hall           '-P 2yn'
loop_
_symmetry_equiv_pos_site_id
_symmetry_equiv_pos_as_xyz
1 x,y,z
2 1/2-x,1/2+y,1/2-z
3 -x,-y,-z
4 1/2+x,1/2-y,1/2+z
_cell_length_a                   5.6641(3)
_cell_length_b                   21.3346(13)
_cell_length_c                   14.6909(9)
_cell_angle_alpha                90
_cell_angle_beta                 97.9120(10)
_cell_angle_gamma                90
_cell_volume                     1758.37
loop_
_atom_site_label
_atom_site_type_symbol
_atom_site_fract_x
_atom_site_fract_y
_atom_site_fract_z
Mo1 Mo 0.34422(12) 1.04006(3) 0.69567(4)
Mo2 Mo 0.59824(12) 1.14417(3) 0.57472(5)
Mo3 Mo 0.73856(12) 1.10292(3) 0.37407(4)
Cu1 Cu -0.15435(17) 1.12032(5) 0.80089(6)
Al1 Al 0.5000 1.0000 0.5000
O1 O 0.6524(8) 1.0378(2) 0.6074(3)
O2 O 0.7722(8) 1.0061(2) 0.4351(3)
O3 O 0.4343(8) 1.0842(2) 0.4573(3)
O4 O 0.0733(9) 1.0425(2) 0.7348(3)
O5 O 1.0180(9) 1.1051(3) 0.3420(3)
O6 O 0.3189(8) 1.1147(2) 0.6235(3)
O7 O 0.7685(9) 1.1590(2) 0.6814(3)
O8 O 0.8363(8) 1.1296(2) 0.5007(3)
O9 O 0.4926(9) 1.2148(2) 0.5356(4)
O10 O 0.5933(9) 1.1684(2) 0.3306(3)
O11 O 0.4232(9) 0.9546(2) 0.7166(4)
O12 O 0.5510(9) 1.0709(2) 0.7846(3)
N1 N 0.1324(11) 1.1739(3) 0.8284(4)
N2 N -0.0873(12) 1.1006(3) 0.9341(4)
C1 C 0.2318(14) 1.1704(4) 0.9190(5)
C2 C 0.1066(15) 1.1321(4) 0.9756(6)
C3 C 0.2476(15) 1.2073(4) 0.7715(6)
H1 H 0.1840 1.2096 0.7097
C4 C -0.2077(17) 1.0637(4) 0.9855(6)
H2 H -0.3432 1.0428 0.9581
C5 C 0.4600(14) 1.2388(4) 0.8014(6)
H3 H 0.5369 1.2611 0.7597
C6 C 0.4354(16) 1.2018(4) 0.9536(6)
C7 C 0.5551(15) 1.2369(4) 0.8919(7)
H4 H 0.6955 1.2582 0.9127
C8 C 0.1954(19) 1.1262(5) 1.0700(6)
C9 C 0.4024(18) 1.1617(5) 1.1049(7)
H5 H 0.4576 1.1605 1.1675
C10 C 0.069(2) 1.0866(5) 1.1205(6)
H6 H 0.1211 1.0805 1.1827
C11 C 0.5181(18) 1.1966(5) 1.0503(6)
H7 H 0.6551 1.2180 1.0752
C12 C -0.1337(19) 1.0559(5) 1.0794(6)
H8 H -0.2198 1.0304 1.1142
Mo1B Mo 0.65578(12) 0.95994(3) 0.30433(4)
Mo2B Mo 0.40176(12) 0.85583(3) 0.42528(5)
Mo3B Mo 0.26144(12) 0.89708(3) 0.62593(4)
Cu1B Cu 1.15435(17) 0.87968(5) 0.19911(6)
Cu1_2 Cu 0.84565(17) 1.12032(5) 0.80089(6)
Cu1B_2 Cu 0.15435(17) 0.87968(5) 0.19911(6)
O1B O 0.3476(8) 0.9622(2) 0.3926(3)
O2B O 0.2278(8) 0.9939(2) 0.5649(3)
O3B O 0.5657(8) 0.9158(2) 0.5427(3)
O4B O 0.9267(9) 0.9575(2) 0.2652(3)
O5B O -0.0180(9) 0.8949(3) 0.6580(3)
O6B O 0.6811(8) 0.8853(2) 0.3765(3)
O7B O 0.2315(9) 0.8410(2) 0.3186(3)
O7_2 O -0.2315(9) 1.1590(2) 0.6814(3)
O7B_2 O 1.2315(9) 0.8410(2) 0.3186(3)
O8B O 0.1637(8) 0.8704(2) 0.4993(3)
O9B O 0.5074(9) 0.7852(2) 0.4644(4)
O10B O 0.4067(9) 0.8316(2) 0.6694(3)
O11B O 0.5768(9) 1.0454(2) 0.2834(4)
O12B O 0.4490(9) 0.9291(2) 0.2154(3)
O12_2 O -0.4490(9) 1.0709(2) 0.7846(3)
O12B_2 O 1.4490(9) 0.9291(2) 0.2154(3)
N1B N 0.8676(11) 0.8261(3) 0.1716(4)
N2B N 1.0873(12) 0.8994(3) 0.0659(4)
C1B C 0.7682(14) 0.8296(4) 0.0810(5)
C2B C 0.8934(15) 0.8679(4) 0.0244(6)
C3B C 0.7524(15) 0.7927(4) 0.2285(6)
H1B H 0.8160 0.7904 0.2903
C4B C 1.2077(17) 0.9363(4) 0.0145(6)
H2B H 1.3432 0.9572 0.0419
C5B C 0.5400(14) 0.7612(4) 0.1986(6)
H3B H 0.4631 0.7389 0.2403
C6B C 0.5646(16) 0.7982(4) 0.0464(6)
C7B C 0.4449(15) 0.7631(4) 0.1081(7)
H4B H 0.3045 0.7418 0.0873
C8B C 0.8046(19) 0.8738(5) -0.0700(6)
C9B C 0.5976(18) 0.8383(5) -0.1049(7)
H5B H 0.5424 0.8395 -0.1675
C10B C 0.931(2) 0.9134(5) -0.1205(6)
H6B H 0.8789 0.9195 -0.1827
C11B C 0.4819(18) 0.8034(5) -0.0503(6)
H7B H 0.3449 0.7820 -0.0752
C12B C 1.1337(19) 0.9441(5) -0.0794(6)
H8B H 1.2198 0.9696 -0.1142
loop_
_geom_bond_atom_site_label_1
_geom_bond_atom_site_label_2
_geom_bond_site_symmetry_1
_geom_bond_site_symmetry_2
Mo1 O1 1_555 1_555
Mo2 O1 1_555 1_555
Mo3 O2 1_555 1_555
Cu1 O4 1_555 1_555
Al1 O1 1_555 1_555
O2 Al1 1_555 1_555
O3 Mo2 1_555 1_555
O4 Mo1 1_555 1_555
O5 Mo3 1_555 1_555
O6 Mo1 1_555 1_555
O7 Mo2 1_555 1_555
O8 Mo2 1_555 1_555
O9 Mo2 1_555 1_555
O10 Mo3 1_555 1_555
O11 Mo1 1_555 1_555
O12 Mo1 1_555 1_555
N1 Cu1 1_555 1_555
N2 Cu1 1_555 1_555
C1 N1 1_555 1_555
C2 N2 1_555 1_555
C3 N1 1_555 1_555
H1 C3 1_555 1_555
C4 N2 1_555 1_555
H2 C4 1_555 1_555
C5 C3 1_555 1_555
H3 C5 1_555 1_555
C6 C1 1_555 1_555
C7 C5 1_555 1_555
H4 C7 1_555 1_555
C8 C2 1_555 1_555
C9 C8 1_555 1_555
H5 C9 1_555 1_555
C10 C8 1_555 1_555
H6 C10 1_555 1_555
C11 C6 1_555 1_555
H7 C11 1_555 1_555
C12 C4 1_555 1_555
H8 C12 1_555 1_555
Mo1B O2 1_555 1_555
Mo2B O1B 1_555 1_555
Mo3B O11 1_555 1_555
Cu1B O4B 1_555 1_555
Cu1_2 O7 1_555 1_555
Cu1B_2 O7B 1_555 1_555
O1B Al1 1_555 1_555
O2B Mo1 1_555 1_555
O3B Al1 1_555 1_555
O4B Mo1B 1_555 1_555
O5B Mo3B 1_555 1_555
O6B Mo1B 1_555 1_555
O7B Mo2B 1_555 1_555
O7_2 Cu1 1_555 1_555
O7B_2 Cu1B 1_555 1_555
O8B Mo2B 1_555 1_555
O9B Mo2B 1_555 1_555
O10B Mo3B 1_555 1_555
O11B Mo3 1_555 1_555
O12B Mo1B 1_555 1_555
O12_2 Cu1 1_555 1_555
O12B_2 Cu1B 1_555 1_555
N1B Cu1B 1_555 1_555
N2B Cu1B 1_555 1_555
C1B N1B 1_555 1_555
C2B N2B 1_555 1_555
C3B N1B 1_555 1_555
H1B C3B 1_555 1_555
C4B N2B 1_555 1_555
H2B C4B 1_555 1_555
C5B C3B 1_555 1_555
H3B C5B 1_555 1_555
C6B C1B 1_555 1_555
C7B C5B 1_555 1_555
H4B C7B 1_555 1_555
C8B C2B 1_555 1_555
C9B C8B 1_555 1_555
H5B C9B 1_555 1_555
C10B C8B 1_555 1_555
H6B C10B 1_555 1_555
C11B C6B 1_555 1_555
H7B C11B 1_555 1_555
C12B C4B 1_555 1_555
H8B C12B 1_555 1_555
Mo2 O6 1_555 1_555
Mo3 O3 1_555 1_555
Mo3 O8 1_555 1_555
Al1 O3 1_555 1_555
Al1 O2B 1_555 1_555
O12 Cu1_2 1_555 1_555
C1 C2 1_555 1_555
C6 C7 1_555 1_555
C9 C11 1_555 1_555
C10 C12 1_555 1_555
Mo1B O1B 1_555 1_555
Mo1B O11B 1_555 1_555
Mo2B O3B 1_555 1_555
Mo2B O6B 1_555 1_555
Mo3B O2B 1_555 1_555
Mo3B O3B 1_555 1_555
Mo3B O8B 1_555 1_555
Cu1B_2 O12B 1_555 1_555
C1B C2B 1_555 1_555
C6B C7B 1_555 1_555
C9B C11B 1_555 1_555
C10B C12B 1_555 1_555

#END
