
#######################################################################
#
#                 Cambridge Crystallographic Data Centre
#                                CCDC 
#
#######################################################################
#
# If this CIF has been generated from an entry in the Cambridge 
# Structural Database, then it will include bibliographic, chemical, 
# crystal, experimental, refinement or atomic coordinate data resulting 
# from the CCDC's data processing and validation procedures.
#
#######################################################################

data_GUPVEU
_symmetry_cell_setting           triclinic
_symmetry_space_group_name_H-M   'P -1'
_symmetry_Int_Tables_number      2
_space_group_name_Hall           '-P 1'
loop_
_symmetry_equiv_pos_site_id
_symmetry_equiv_pos_as_xyz
1 x,y,z
2 -x,-y,-z
_cell_length_a                   8.3047(9)
_cell_length_b                   9.1629(9)
_cell_length_c                   15.4728(16)
_cell_angle_alpha                89.7690(10)
_cell_angle_beta                 82.9610(10)
_cell_angle_gamma                86.9550(10)
_cell_volume                     1166.88
loop_
_atom_site_label
_atom_site_type_symbol
_atom_site_fract_x
_atom_site_fract_y
_atom_site_fract_z
Co1 Co 1.09737(4) 0.11293(3) 0.777294(19)
Co2 Co 1.15059(4) 0.22076(3) 0.565067(19)
Co3 Co 0.89656(4) -0.02247(3) 0.593877(19)
O1 O 1.3083(2) 0.05546(17) 0.48266(11)
H1 H 1.3902 0.0910 0.4532
H2 H 1.3364 -0.0199 0.5105
O2 O 1.0526(2) 0.33876(17) 0.76004(11)
O3 O 0.9932(2) 0.39116(18) 0.62632(10)
O4 O 0.7789(2) 0.64153(16) 0.54160(10)
O5 O 0.8336(2) 0.77666(17) 0.65415(11)
O6 O 0.3518(2) 0.26925(18) 0.61999(11)
O7 O 0.35058(19) 0.14613(17) 0.74550(11)
O8 O 0.8435(2) 0.10530(17) 0.80142(11)
O9 O 0.7342(2) 0.10852(17) 0.67614(11)
O10 O 1.09346(19) 0.04586(16) 0.65203(10)
H3 H 1.1667 -0.0176 0.6419
O11 O 0.96513(19) 0.14307(16) 0.50670(10)
H4 H 0.8942 0.2019 0.4937
C1 C 0.9652(3) 0.4003(2) 0.70781(15)
C2 C 0.8182(3) 0.4940(2) 0.75007(14)
H5 H 0.8603 0.5774 0.7779
C3 C 0.7016(3) 0.5561(2) 0.68699(14)
H6 H 0.6168 0.6138 0.7235
C4 C 0.6135(3) 0.4337(2) 0.64826(14)
H7 H 0.6919 0.3678 0.6144
H8 H 0.5392 0.4752 0.6099
C5 C 0.5188(3) 0.3492(2) 0.72196(14)
H9 H 0.4496 0.4242 0.7555
C6 C 0.6290(3) 0.2837(2) 0.78655(14)
H10 H 0.5577 0.2457 0.8357
C7 C 0.7218(3) 0.4071(2) 0.82255(14)
H11 H 0.6448 0.4735 0.8570
H12 H 0.7962 0.3650 0.8607
C8 C 0.7802(3) 0.6641(2) 0.62109(15)
C9 C 0.4006(3) 0.2443(2) 0.69203(15)
C10 C 0.7463(3) 0.1561(2) 0.75122(15)
C11 C 1.1242(4) 0.2907(3) 0.94588(17)
H13 H 1.0778 0.3683 0.9169
C12 C 1.1757(4) 0.3171(3) 1.02551(19)
H14 H 1.1628 0.4102 1.0499
C13 C 1.2461(5) 0.2042(4) 1.06797(19)
H15 H 1.2829 0.2196 1.1214
C14 C 1.2617(4) 0.0670(3) 1.03037(18)
H16 H 1.3095 -0.0112 1.0581
C15 C 1.2053(3) 0.0473(3) 0.95096(16)
C16 C 1.2122(3) -0.0970(3) 0.90645(16)
C17 C 1.2772(4) -0.2245(3) 0.9404(2)
H17 H 1.3211 -0.2231 0.9928
C18 C 1.2752(4) -0.3536(3) 0.8947(2)
H18 H 1.3212 -0.4396 0.9153
C19 C 1.2054(3) -0.3544(3) 0.8189(2)
H19 H 1.1999 -0.4409 0.7884
C20 C 1.1432(3) -0.2235(3) 0.78882(18)
H20 H 1.0953 -0.2237 0.7376
N1 N 1.1379(2) 0.1592(2) 0.90855(13)
N2 N 1.1491(2) -0.0967(2) 0.83042(13)
Co1_2 Co 0.09737(4) 0.11293(3) 0.777294(19)
Co2_2 Co 0.15059(4) 0.22076(3) 0.565067(19)
Co2A Co 0.84941(4) 0.77924(3) 0.434933(19)
Co3_2 Co 0.89656(4) 0.97753(3) 0.593877(19)
Co3A Co 1.10344(4) 0.02247(3) 0.406123(19)
O1A O 0.6917(2) -0.05546(17) 0.51734(11)
O4A O 1.2211(2) 0.35847(16) 0.45840(10)
O5_2 O 0.8336(2) -0.22334(17) 0.65415(11)
O6_2 O 1.3518(2) 0.26925(18) 0.61999(11)
O7_2 O 1.35058(19) 0.14613(17) 0.74550(11)
O11A O 1.03487(19) -0.14307(16) 0.49330(10)
O12 O 0.5190(2) 0.87757(19) 0.75426(13)
H21 H 0.6183 0.8790 0.7330
H22 H 0.4911 0.9657 0.7683
O13 O 0.4012(2) 0.8387(2) 0.59651(13)
H23 H 0.4218 0.8434 0.6489
H24 H 0.3668 0.7542 0.5901
O14 O 0.2245(3) 0.60926(19) 0.56147(13)
H25 H 0.2447 0.5397 0.5249
H26 H 0.1443 0.5634 0.5851
loop_
_geom_bond_atom_site_label_1
_geom_bond_atom_site_label_2
_geom_bond_site_symmetry_1
_geom_bond_site_symmetry_2
Co1 O2 1_555 1_555
Co2 O1 1_555 1_555
Co3 O9 1_555 1_555
O1 H1 1_555 1_555
H2 O1 1_555 1_555
O2 C1 1_555 1_555
O3 Co2 1_555 1_555
O4 C8 1_555 1_555
O5 C8 1_555 1_555
O6 C9 1_555 1_555
O7 C9 1_555 1_555
O8 Co1 1_555 1_555
O9 C10 1_555 1_555
O10 Co1 1_555 1_555
H3 O10 1_555 1_555
O11 Co2 1_555 1_555
H4 O11 1_555 1_555
C1 O3 1_555 1_555
C2 C1 1_555 1_555
H5 C2 1_555 1_555
C3 C2 1_555 1_555
H6 C3 1_555 1_555
C4 C3 1_555 1_555
H7 C4 1_555 1_555
H8 C4 1_555 1_555
C5 C4 1_555 1_555
H9 C5 1_555 1_555
C6 C5 1_555 1_555
H10 C6 1_555 1_555
C7 C2 1_555 1_555
H11 C7 1_555 1_555
H12 C7 1_555 1_555
C8 C3 1_555 1_555
C9 C5 1_555 1_555
C10 O8 1_555 1_555
C11 H13 1_555 1_555
C12 C11 1_555 1_555
H14 C12 1_555 1_555
C13 C12 1_555 1_555
H15 C13 1_555 1_555
C14 C13 1_555 1_555
H16 C14 1_555 1_555
C15 C14 1_555 1_555
C16 C15 1_555 1_555
C17 C16 1_555 1_555
H17 C17 1_555 1_555
C18 C17 1_555 1_555
H18 C18 1_555 1_555
C19 C18 1_555 1_555
H19 C19 1_555 1_555
C20 C19 1_555 1_555
H20 C20 1_555 1_555
N1 Co1 1_555 1_555
N2 Co1 1_555 1_555
O12 H21 1_555 1_555
H22 O12 1_555 1_555
O13 H23 1_555 1_555
H24 O13 1_555 1_555
O14 H25 1_555 1_555
H26 O14 1_555 1_555
Co1_2 O7 1_555 1_555
Co2_2 O6 1_555 1_555
Co2A O4 1_555 1_555
Co3_2 O5 1_555 1_555
Co3A O1 1_555 1_555
O1A Co3 1_555 1_555
O4A Co2 1_555 1_555
O5_2 Co3 1_555 1_555
O6_2 Co2 1_555 1_555
O7_2 Co1 1_555 1_555
O11A Co3 1_555 1_555
Co2 O10 1_555 1_555
Co3 O10 1_555 1_555
Co3 O11 1_555 1_555
O11 Co3A 1_555 1_555
C6 C7 1_555 1_555
C6 C10 1_555 1_555
C11 N1 1_555 1_555
C15 N1 1_555 1_555
C16 N2 1_555 1_555
C20 N2 1_555 1_555
Co3A O11A 1_555 1_555

#END
