
#######################################################################
#
#                 Cambridge Crystallographic Data Centre
#                                CCDC 
#
#######################################################################
#
# If this CIF has been generated from an entry in the Cambridge 
# Structural Database, then it will include bibliographic, chemical, 
# crystal, experimental, refinement or atomic coordinate data resulting 
# from the CCDC's data processing and validation procedures.
#
#######################################################################

data_GUPYIZ
_symmetry_cell_setting           rhombohedral
_symmetry_space_group_name_H-M   'R -3 c'
_symmetry_Int_Tables_number      167
_space_group_name_Hall           '-R 3 2"c'
loop_
_symmetry_equiv_pos_site_id
_symmetry_equiv_pos_as_xyz
1 x,y,z
2 -y,x-y,z
3 -x+y,-x,z
4 y,x,1/2-z
5 2/3+x,1/3+y,1/3+z
6 2/3-y,1/3+x-y,1/3+z
7 2/3-x+y,1/3-x,1/3+z
8 2/3+y,1/3+x,5/6-z
9 1/3+x,2/3+y,2/3+z
10 1/3+y,2/3+x,1/6-z
11 x-y,-y,1/2-z
12 -x,-x+y,1/2-z
13 1/3-y,2/3+x-y,2/3+z
14 1/3-x+y,2/3-x,2/3+z
15 1/3+x-y,2/3-y,1/6-z
16 1/3-x,2/3-x+y,1/6-z
17 2/3+x-y,1/3-y,5/6-z
18 2/3-x,1/3-x+y,5/6-z
19 -x,-y,-z
20 y,-x+y,-z
21 x-y,x,-z
22 -y,-x,1/2+z
23 1/3-x,2/3-y,2/3-z
24 1/3+y,2/3-x+y,2/3-z
25 1/3+x-y,2/3+x,2/3-z
26 1/3-y,2/3-x,1/6+z
27 2/3-x,1/3-y,1/3-z
28 2/3-y,1/3-x,5/6+z
29 -x+y,y,1/2+z
30 x,x-y,1/2+z
31 2/3+y,1/3-x+y,1/3-z
32 2/3+x-y,1/3+x,1/3-z
33 2/3-x+y,1/3+y,5/6+z
34 2/3+x,1/3+x-y,5/6+z
35 1/3-x+y,2/3+y,1/6+z
36 1/3+x,2/3+x-y,1/6+z
_cell_length_a                   22.0922(7)
_cell_length_b                   22.0922(7)
_cell_length_c                   21.3917(10)
_cell_angle_alpha                90
_cell_angle_beta                 90
_cell_angle_gamma                120
_cell_volume                     9041.78
loop_
_atom_site_label
_atom_site_type_symbol
_atom_site_fract_x
_atom_site_fract_y
_atom_site_fract_z
Cu1 Cu 0.3288 0.32873(4) 0.7500
O1 O 0.2980(2) 0.2289(2) 0.7333(2)
H1 H 0.3248(2) 0.2243(2) 0.7277(2)
H2 H 0.2608(2) 0.2027(2) 0.7083(2)
N1 N 0.3978(2) 0.3067(2) 0.4530(2)
N2 N 0.3012(3) 0.3170(2) 0.5213(2)
C1 C 0.4331(3) 0.2856(3) 0.4165(2)
H3 H 0.4328(3) 0.2916(3) 0.3734(2)
C2 C 0.4699(3) 0.2558(3) 0.4402(3)
H4 H 0.4954(3) 0.2431(3) 0.4142(3)
C3 C 0.4678(4) 0.2452(3) 0.5038(3)
H5 H 0.4899(4) 0.2226(3) 0.5209(3)
C4 C 0.4329(3) 0.2677(3) 0.5420(2)
H6 H 0.4326(3) 0.2618(3) 0.5851(2)
C5 C 0.3988(3) 0.2990(3) 0.5159(2)
C6 C 0.3563(3) 0.3220(3) 0.5518(2)
C7 C 0.2549(3) 0.3268(3) 0.5513(2)
H7 H 0.2258(3) 0.3415(3) 0.6369(2)
C7N C 0.2614(4) 0.3399(3) 0.6154(2)
N2N N 0.3175(4) 0.3497(2) 0.6454(2)
Cu1M Cu 0.33326(4) 0.3379 0.4167
O1C O 0.2289(2) 0.2980(2) 0.7667(2)
H1C H 0.2243(2) 0.3248(2) 0.7723(2)
H2C H 0.2027(2) 0.2608(2) 0.7917(2)
N1N N 0.4244(3) 0.3600(2) 0.7137(2)
C1N C 0.4808(4) 0.3811(3) 0.7502(2)
H3N H 0.4745(4) 0.3751(3) 0.7933(2)
C2N C 0.5474(4) 0.4109(3) 0.7265(3)
H4N H 0.5856(4) 0.4236(3) 0.7525(3)
C3N C 0.5559(5) 0.4215(3) 0.6629(3)
H5N H 0.6006(5) 0.4441(3) 0.6458(3)
C4N C 0.4985(4) 0.3990(3) 0.6247(2)
H6N H 0.5041(4) 0.4049(3) 0.5816(2)
C5N C 0.4331(4) 0.3677(3) 0.6508(2)
C6N C 0.3676(4) 0.3447(3) 0.6149(2)
N1E N 0.3600(2) 0.4244(3) 0.7863(2)
N2E N 0.3497(2) 0.3175(4) 0.8546(2)
H7N H 0.2176(4) 0.3252(3) 0.5298(2)
N3 N 0.2369(3) 0.4282(3) 0.2680(2)
O2 O 0.2988(3) 0.4507(5) 0.2836(4)
O3 O 0.1896(3) 0.4016(6) 0.3079(3)
O4 O 0.2222(5) 0.4322(8) 0.2126(2)
O5 O 0.0000 0.0000 0.2500
O6 O 0.3333 0.6667 0.1667
N4? N 0.2487(6) 0.4480(6) 0.2634(5)
O7? O 0.2568(14) 0.4605(9) 0.3205(5)
O8? O 0.2086(8) 0.3873(6) 0.2448(9)
O9? O 0.2805(13) 0.4960(7) 0.2250(7)
loop_
_geom_bond_atom_site_label_1
_geom_bond_atom_site_label_2
_geom_bond_site_symmetry_1
_geom_bond_site_symmetry_2
Cu1 O1 1_555 1_555
O1 H1 1_555 1_555
H2 O1 1_555 1_555
N1 C1 1_555 1_555
N2 C6 1_555 1_555
C1 H3 1_555 1_555
C2 C1 1_555 1_555
H4 C2 1_555 1_555
C3 C2 1_555 1_555
H5 C3 1_555 1_555
C4 C3 1_555 1_555
H6 C4 1_555 1_555
C5 N1 1_555 1_555
C6 C5 1_555 1_555
C7 N2 1_555 1_555
H7 C7N 1_555 1_555
N3 O2 1_555 1_555
O3 N3 1_555 1_555
O4 N3 1_555 1_555
C7N C7 1_555 1_555
N2N Cu1 1_555 1_555
Cu1M N1 1_555 1_555
O1C Cu1 1_555 1_555
H1C O1C 1_555 1_555
H2C O1C 1_555 1_555
N1N Cu1 1_555 1_555
C1N N1N 1_555 1_555
H3N C1N 1_555 1_555
C2N C1N 1_555 1_555
H4N C2N 1_555 1_555
C3N C2N 1_555 1_555
H5N C3N 1_555 1_555
C4N C3N 1_555 1_555
H6N C4N 1_555 1_555
C5N N1N 1_555 1_555
C6N C6 1_555 1_555
N1E Cu1 1_555 1_555
N2E Cu1 1_555 1_555
H7N C7 1_555 1_555
N2 Cu1M 1_555 1_555
C4 C5 1_555 1_555
C7N N2N 1_555 1_555
N2N C6N 1_555 1_555
C4N C5N 1_555 1_555
C5N C6N 1_555 1_555

#END
