
#######################################################################
#
#                 Cambridge Crystallographic Data Centre
#                                CCDC 
#
#######################################################################
#
# If this CIF has been generated from an entry in the Cambridge 
# Structural Database, then it will include bibliographic, chemical, 
# crystal, experimental, refinement or atomic coordinate data resulting 
# from the CCDC's data processing and validation procedures.
#
#######################################################################

data_GUPYOF
_symmetry_cell_setting           rhombohedral
_symmetry_space_group_name_H-M   'R -3 c'
_symmetry_Int_Tables_number      167
_space_group_name_Hall           '-R 3 2"c'
loop_
_symmetry_equiv_pos_site_id
_symmetry_equiv_pos_as_xyz
1 x,y,z
2 -y,x-y,z
3 -x+y,-x,z
4 y,x,1/2-z
5 2/3+x,1/3+y,1/3+z
6 2/3-y,1/3+x-y,1/3+z
7 2/3-x+y,1/3-x,1/3+z
8 2/3+y,1/3+x,5/6-z
9 1/3+x,2/3+y,2/3+z
10 1/3+y,2/3+x,1/6-z
11 x-y,-y,1/2-z
12 -x,-x+y,1/2-z
13 1/3-y,2/3+x-y,2/3+z
14 1/3-x+y,2/3-x,2/3+z
15 1/3+x-y,2/3-y,1/6-z
16 1/3-x,2/3-x+y,1/6-z
17 2/3+x-y,1/3-y,5/6-z
18 2/3-x,1/3-x+y,5/6-z
19 -x,-y,-z
20 y,-x+y,-z
21 x-y,x,-z
22 -y,-x,1/2+z
23 1/3-x,2/3-y,2/3-z
24 1/3+y,2/3-x+y,2/3-z
25 1/3+x-y,2/3+x,2/3-z
26 1/3-y,2/3-x,1/6+z
27 2/3-x,1/3-y,1/3-z
28 2/3-y,1/3-x,5/6+z
29 -x+y,y,1/2+z
30 x,x-y,1/2+z
31 2/3+y,1/3-x+y,1/3-z
32 2/3+x-y,1/3+x,1/3-z
33 2/3-x+y,1/3+y,5/6+z
34 2/3+x,1/3+x-y,5/6+z
35 1/3-x+y,2/3+y,1/6+z
36 1/3+x,2/3+x-y,1/6+z
_cell_length_a                   24.0282(5)
_cell_length_b                   24.0282(5)
_cell_length_c                   21.6818(5)
_cell_angle_alpha                90
_cell_angle_beta                 90
_cell_angle_gamma                120
_cell_volume                     10841
loop_
_atom_site_label
_atom_site_type_symbol
_atom_site_fract_x
_atom_site_fract_y
_atom_site_fract_z
Cu1 Cu -0.33543(3) -0.00001(3) -0.2500
O1 O -0.2435(2) 0.06480(15) -0.26683(15)
H1 H -0.2325(2) 0.10774(15) -0.27814(15)
H2 H -0.2275(2) 0.05364(15) -0.30194(15)
N1 N -0.2993(2) 0.0881(2) -0.54273(15)
N2 N -0.3152(2) -0.0147(2) -0.4777(2)
C1 C -0.2735(2) 0.1422(2) -0.5762(2)
H3 H -0.2774(2) 0.1390(2) -0.6189(2)
C2 C -0.2416(2) 0.2023(3) -0.5500(2)
H4 H -0.2234(2) 0.2389(3) -0.5745(2)
C3 C -0.2371(2) 0.2071(3) -0.4866(2)
H5 H -0.2156(2) 0.2471(3) -0.4676(2)
C4 C -0.2651(2) 0.1515(2) -0.4517(2)
H6 H -0.2632(2) 0.1538(2) -0.4089(2)
C5 C -0.2959(2) 0.0926(2) -0.4808(2)
C6 C -0.3212(2) 0.0308(2) -0.4469(2)
C7 C -0.3262(2) -0.0670(2) -0.4482(2)
H7 H -0.3421(2) -0.1085(2) -0.3638(2)
C7O C -0.3405(2) -0.0741(3) -0.3851(2)
N2O N -0.3515(2) -0.0328(3) -0.3556(2)
Cu1M Cu -0.33125(4) 0.00210(3) -0.5833
O1J O -0.30830(25) -0.06480(15) -0.23317(15)
H1J H -0.34024(25) -0.10774(15) -0.22186(15)
H2J H -0.28114(25) -0.05364(15) -0.19806(15)
N1O N -0.3674(2) 0.0541(3) -0.29060(15)
C1O C -0.3932(2) 0.0824(3) -0.2571(2)
H3O H -0.3893(2) 0.0831(3) -0.2144(2)
C2O C -0.4251(2) 0.1106(4) -0.2833(2)
H4O H -0.4433(2) 0.1290(4) -0.2588(2)
C3O C -0.4296(2) 0.1109(4) -0.3467(2)
H5O H -0.4511(2) 0.1294(4) -0.3657(2)
C4O C -0.4016(2) 0.0833(3) -0.3816(2)
H6O H -0.4035(2) 0.0837(3) -0.4244(2)
C5O C -0.3708(2) 0.0552(3) -0.3525(2)
C6O C -0.3455(2) 0.0187(3) -0.3864(2)
N1E N -0.4214(2) -0.0541(3) -0.20940(15)
N2E N -0.3186(2) 0.0328(3) -0.1444(2)
H7O H -0.3246(2) -0.0997(3) -0.4695(2)
S1 S -0.13596(7) 0.09221(8) -0.39557(7)
F1 F -0.0592(9) 0.0650(9) -0.3481(9)
F2 F -0.0320(3) 0.1022(4) -0.4347(7)
F3 F -0.1024(4) 0.0098(3) -0.4236(6)
O2 O -0.1463(5) 0.1018(5) -0.4572(3)
O3 O -0.1882(3) 0.0423(3) -0.3647(4)
O4 O -0.1039(2) 0.1514(2) -0.3639(2)
C8 C -0.0804(5) 0.0635(5) -0.4014(8)
loop_
_geom_bond_atom_site_label_1
_geom_bond_atom_site_label_2
_geom_bond_site_symmetry_1
_geom_bond_site_symmetry_2
Cu1 O1 1_555 1_555
O1 H1 1_555 1_555
H2 O1 1_555 1_555
N1 C1 1_555 1_555
N2 C6 1_555 1_555
C1 H3 1_555 1_555
C2 C1 1_555 1_555
H4 C2 1_555 1_555
C3 C2 1_555 1_555
H5 C3 1_555 1_555
C4 C3 1_555 1_555
H6 C4 1_555 1_555
C5 N1 1_555 1_555
C6 C5 1_555 1_555
C7 N2 1_555 1_555
H7 C7O 1_555 1_555
S1 O2 1_555 1_555
F1 C8 1_555 1_555
F2 C8 1_555 1_555
F3 C8 1_555 1_555
O3 S1 1_555 1_555
O4 S1 1_555 1_555
C8 S1 1_555 1_555
C7O C7 1_555 1_555
N2O Cu1 1_555 1_555
Cu1M N1 1_555 1_555
O1J Cu1 1_555 1_555
H1J O1J 1_555 1_555
H2J O1J 1_555 1_555
N1O Cu1 1_555 1_555
C1O N1O 1_555 1_555
H3O C1O 1_555 1_555
C2O C1O 1_555 1_555
H4O C2O 1_555 1_555
C3O C2O 1_555 1_555
H5O C3O 1_555 1_555
C4O C3O 1_555 1_555
H6O C4O 1_555 1_555
C5O N1O 1_555 1_555
C6O C6 1_555 1_555
N1E Cu1 1_555 1_555
N2E Cu1 1_555 1_555
H7O C7 1_555 1_555
N2 Cu1M 1_555 1_555
C4 C5 1_555 1_555
C7O N2O 1_555 1_555
N2O C6O 1_555 1_555
C4O C5O 1_555 1_555
C5O C6O 1_555 1_555

#END
