
#######################################################################
#
#                 Cambridge Crystallographic Data Centre
#                                CCDC 
#
#######################################################################
#
# If this CIF has been generated from an entry in the Cambridge 
# Structural Database, then it will include bibliographic, chemical, 
# crystal, experimental, refinement or atomic coordinate data resulting 
# from the CCDC's data processing and validation procedures.
#
#######################################################################

data_GUPYAS
_symmetry_cell_setting           monoclinic
_symmetry_space_group_name_H-M   'P 21/n'
_symmetry_Int_Tables_number      14
_space_group_name_Hall           '-P 2yn'
loop_
_symmetry_equiv_pos_site_id
_symmetry_equiv_pos_as_xyz
1 x,y,z
2 1/2-x,1/2+y,1/2-z
3 -x,-y,-z
4 1/2+x,1/2-y,1/2+z
_cell_length_a                   9.992(2)
_cell_length_b                   10.064(2)
_cell_length_c                   27.233(5)
_cell_angle_alpha                90
_cell_angle_beta                 92.30(3)
_cell_angle_gamma                90
_cell_volume                     2736.33
loop_
_atom_site_label
_atom_site_type_symbol
_atom_site_fract_x
_atom_site_fract_y
_atom_site_fract_z
C1 C 0.8563(4) -0.2342(4) 0.1779(1)
H1 H 0.8551 -0.1542 0.1950
C2 C 0.9036(4) -0.3572(4) 0.1053(2)
H2 H 0.9349 -0.3593 0.0736
C3 C 0.7704(4) -0.3521(4) 0.2517(2)
C4 C 0.8171(4) -0.3510(4) 0.2003(1)
C5 C 0.8190(4) -0.4697(4) 0.1749(1)
H3 H 0.7899 -0.5472 0.1898
C6 C 0.8976(4) -0.2373(4) 0.1296(1)
C7 C 0.8642(4) -0.4743(4) 0.1270(2)
C8 C 0.3719(5) -0.3405(5) 0.3274(2)
H4 H 0.3655 -0.4090 0.3501
C9 C -0.1038(5) 0.4493(5) 0.3877(2)
H5 H -0.1680 0.4080 0.4062
C10 C -0.0041(5) 0.5771(5) 0.3420(2)
H6 H 0.0125 0.6482 0.3212
C11 C 0.8745(5) -0.6059(4) 0.1006(2)
C12 C 0.4536(5) -0.2033(4) 0.2796(2)
H7 H 0.5121 -0.1533 0.2613
C13 C 1.2043(6) 0.1966(5) 0.0502(2)
H8 H 1.1367 0.2497 0.0621
C14 C 0.1221(5) 0.1911(5) 0.3663(2)
C15 C 1.3110(5) 0.0479(5) 0.0159(2)
H9 H 1.3298 -0.0289 -0.0015
C16 C 0.1961(5) 0.0150(5) 0.2936(2)
C17 C 0.2378(5) -0.0846(5) 0.2554(2)
H10 H 0.1588 -0.1249 0.2398
H11 H 0.2868 -0.0396 0.2303
C18 C 0.0288(5) 0.1137(5) 0.3421(2)
H12 H -0.0606 0.1203 0.3500
C19 C 0.0840(5) 0.2885(5) 0.4054(2)
H13 H 0.0227 0.2461 0.4273
H14 H 0.1635 0.3144 0.4247
C20 C 1.4000(6) 0.3380(6) 0.0781(2)
H15 H 1.4732 0.3099 0.1001
H16 H 1.3367 0.3875 0.0970
C21 C 0.0644(5) 0.0260(5) 0.3061(2)
H17 H -0.0008 -0.0261 0.2902
C22 C 0.2552(5) 0.1803(5) 0.3540(2)
H18 H 0.3206 0.2316 0.3702
C23 C 1.4529(6) 0.4253(5) 0.0383(2)
C24 C 1.5841(6) 0.4196(6) 0.0265(2)
H19 H 1.6425 0.3643 0.0444
C25 C 0.2892(5) 0.0935(5) 0.3179(2)
H20 H 0.3783 0.0876 0.3095
C26 C 1.3685(6) 0.5062(6) 0.0111(2)
H21 H 1.2783 0.5107 0.0182
C27 C 0.9325(4) -0.1100(4) 0.1030(2)
Co1 Co 0.6869(1) -0.3583(1) 0.3363
Co2 Co 1.0000 0.0000 0.0000
N1 N 0.4904(4) -0.2995(4) 0.3101(1)
N2 N 0.3221(4) -0.1877(4) 0.2786(1)
N3 N 0.2673(4) -0.2757(4) 0.3095(2)
N4 N 0.0207(4) 0.4065(4) 0.3839(1)
N5 N 1.1842(4) 0.0860(4) 0.0250(1)
N6 N 1.3341(5) 0.2217(4) 0.0561(2)
N7 N 1.4049(5) 0.1271(5) 0.0334(2)
N8 N -0.1242(4) 0.5575(4) 0.3618(1)
N9 N 0.0865(4) 0.4890(5) 0.3541(2)
O1 O 0.7170(3) -0.4545(3) 0.2679(1)
O2 O 0.7846(3) -0.2505(3) 0.2782(1)
O3 O 0.8095(3) -0.7031(3) 0.1165(1)
O4 O 0.9399(4) -0.6088(3) 0.0629(1)
O5 O 0.9867(3) -0.1224(3) 0.0628(1)
O6 O 0.9043(3) 0.0000(3) 0.1217(1)
O7 O 0.8840(3) 0.1507(3) 0.0296(1)
C1B C 1.1437(4) 0.2342(4) -0.1779(1)
H1B H 1.1449 0.1542 -0.1950
C2B C 1.0964(4) 0.3572(4) -0.1053(2)
H2B H 1.0651 0.3593 -0.0736
C3B C 1.2296(4) 0.3521(4) -0.2517(2)
C4B C 1.1829(4) 0.3510(4) -0.2003(1)
C5B C 1.1810(4) 0.4697(4) -0.1749(1)
H3B H 1.2101 0.5472 -0.1898
C6B C 1.1024(4) 0.2373(4) -0.1296(1)
C7B C 1.1358(4) 0.4743(4) -0.1270(2)
C8B C 1.6281(5) 0.3405(5) -0.3274(2)
H4B H 1.6345 0.4090 -0.3501
C9B C 2.1038(5) -0.4493(5) -0.3877(2)
H5B H 2.1680 -0.4080 -0.4062
C10B C 2.0041(5) -0.5771(5) -0.3420(2)
H6B H 1.9875 -0.6482 -0.3212
C11B C 1.1255(5) 0.6059(4) -0.1006(2)
C12B C 1.5464(5) 0.2033(4) -0.2796(2)
H7B H 1.4879 0.1533 -0.2613
C13B C 1.7957(6) 0.8034(5) -0.0502(2)
H8B H 1.8633 0.7503 -0.0621
C14B C 1.8779(5) -0.1911(5) -0.3663(2)
C15B C 1.6890(5) 0.9521(5) -0.0159(2)
H9B H 1.6702 1.0289 0.0015
C16B C 1.8039(5) -0.0150(5) -0.2936(2)
C17B C 1.7622(5) 0.0846(5) -0.2554(2)
H10B H 1.8412 0.1249 -0.2398
H11B H 1.7132 0.0396 -0.2303
C18B C 1.9712(5) -0.1137(5) -0.3421(2)
H12B H 2.0606 -0.1203 -0.3500
C19B C 1.9160(5) -0.2885(5) -0.4054(2)
H13B H 1.9773 -0.2461 -0.4273
H14B H 1.8365 -0.3144 -0.4247
C20B C 1.6000(6) 0.6620(6) -0.0781(2)
H15B H 1.5268 0.6901 -0.1001
H16B H 1.6633 0.6125 -0.0970
C21B C 1.9356(5) -0.0260(5) -0.3061(2)
H17B H 2.0008 0.0261 -0.2902
C22B C 1.7448(5) -0.1803(5) -0.3540(2)
H18B H 1.6794 -0.2316 -0.3702
C23B C 1.5471(6) 0.5747(5) -0.0383(2)
C24B C 1.4159(6) 0.5804(6) -0.0265(2)
H19B H 1.3575 0.6357 -0.0444
C25B C 1.7108(5) -0.0935(5) -0.3179(2)
H20B H 1.6217 -0.0876 -0.3095
C26B C 1.6315(6) 0.4938(6) -0.0111(2)
H21B H 1.7217 0.4893 -0.0182
C27B C 1.0675(4) 0.1100(4) -0.1030(2)
Co1B Co 1.3131(1) 0.3583(1) -0.3363
Co1_2 Co -0.3131(1) 0.6417(1) 0.3363
Co1A Co 0.8131(1) -0.8583(1) 0.1637
Co1A_2 Co 0.8131(1) 0.1417(1) 0.1637
Co1B_2 Co 2.3131(1) -0.6417(1) -0.3363
Co1C Co 1.1869(1) -0.1417(1) -0.1637
Co1C_2 Co 1.1869(1) 0.8583(1) -0.1637
Co2_2 Co 2.0000 1.0000 0.0000
N1B N 1.5096(4) 0.2995(4) -0.3101(1)
N2B N 1.6779(4) 0.1877(4) -0.2786(1)
N3B N 1.7327(4) 0.2757(4) -0.3095(2)
N4B N 1.9793(4) -0.4065(4) -0.3839(1)
N5B N 1.8158(4) 0.9140(4) -0.0250(1)
N5B_2 N 0.8158(4) -0.0860(4) -0.0250(1)
N6B N 1.6659(5) 0.7783(4) -0.0561(2)
N7B N 1.5951(5) 0.8729(5) -0.0334(2)
N8B N 2.1242(4) -0.5575(4) -0.3618(1)
N8_2 N 0.8758(4) -0.4425(4) 0.3618(1)
N8B_2 N 1.1242(4) 0.4425(4) -0.3618(1)
N9B N 1.9135(4) -0.4890(5) -0.3541(2)
O1B O 1.2830(3) 0.4545(3) -0.2679(1)
O2B O 1.2154(3) 0.2505(3) -0.2782(1)
O3B O 1.1905(3) 0.7031(3) -0.1165(1)
O3A O 0.6905(3) -0.2031(3) 0.3835(1)
O3C O 1.3095(3) 0.2031(3) -0.3835(1)
O4B O 1.0601(4) 0.6088(3) -0.0629(1)
O5B O 1.0133(3) 0.1224(3) -0.0628(1)
O6B O 1.0957(3) 0.0000(3) -0.1217(1)
O6A O 0.5957(3) -0.5000(3) 0.3783(1)
O6C O 1.4043(3) 0.5000(3) -0.3783(1)
O7B O 1.1160(3) -0.1507(3) -0.0296(1)
loop_
_geom_bond_atom_site_label_1
_geom_bond_atom_site_label_2
_geom_bond_site_symmetry_1
_geom_bond_site_symmetry_2
C1 H1 1_555 1_555
C2 H2 1_555 1_555
C3 C4 1_555 1_555
C4 C1 1_555 1_555
C5 C4 1_555 1_555
H3 C5 1_555 1_555
C6 C1 1_555 1_555
C7 C2 1_555 1_555
C8 H4 1_555 1_555
C9 H5 1_555 1_555
C10 H6 1_555 1_555
C11 C7 1_555 1_555
C12 H7 1_555 1_555
C13 H8 1_555 1_555
C14 C18 1_555 1_555
C15 H9 1_555 1_555
C16 C17 1_555 1_555
C17 H10 1_555 1_555
H11 C17 1_555 1_555
C18 H12 1_555 1_555
C19 C14 1_555 1_555
H13 C19 1_555 1_555
H14 C19 1_555 1_555
C20 H15 1_555 1_555
H16 C20 1_555 1_555
C21 C16 1_555 1_555
H17 C21 1_555 1_555
C22 C14 1_555 1_555
H18 C22 1_555 1_555
C23 C20 1_555 1_555
C24 C23 1_555 1_555
H19 C24 1_555 1_555
C25 C16 1_555 1_555
H20 C25 1_555 1_555
C26 C23 1_555 1_555
H21 C26 1_555 1_555
C27 C6 1_555 1_555
Co1 N1 1_555 1_555
Co2 N5 1_555 1_555
N1 C8 1_555 1_555
N2 C12 1_555 1_555
N3 C8 1_555 1_555
N4 C9 1_555 1_555
N5 C13 1_555 1_555
N6 C13 1_555 1_555
N7 C15 1_555 1_555
N8 C9 1_555 1_555
N9 C10 1_555 1_555
O1 C3 1_555 1_555
O2 C3 1_555 1_555
O3 C11 1_555 1_555
O4 C11 1_555 1_555
O5 C27 1_555 1_555
O6 C27 1_555 1_555
O7 Co2 1_555 1_555
C1B H1B 1_555 1_555
C2B H2B 1_555 1_555
C3B C4B 1_555 1_555
C4B C1B 1_555 1_555
C5B C4B 1_555 1_555
H3B C5B 1_555 1_555
C6B C1B 1_555 1_555
C7B C2B 1_555 1_555
C8B H4B 1_555 1_555
C9B H5B 1_555 1_555
C10B H6B 1_555 1_555
C11B C7B 1_555 1_555
C12B H7B 1_555 1_555
C13B H8B 1_555 1_555
C14B C18B 1_555 1_555
C15B H9B 1_555 1_555
C16B C17B 1_555 1_555
C17B H10B 1_555 1_555
H11B C17B 1_555 1_555
C18B H12B 1_555 1_555
C19B C14B 1_555 1_555
H13B C19B 1_555 1_555
H14B C19B 1_555 1_555
C20B H15B 1_555 1_555
H16B C20B 1_555 1_555
C21B C16B 1_555 1_555
H17B C21B 1_555 1_555
C22B C14B 1_555 1_555
H18B C22B 1_555 1_555
C23B C20B 1_555 1_555
C24B C26 1_555 1_555
H19B C24B 1_555 1_555
C25B C16B 1_555 1_555
H20B C25B 1_555 1_555
C26B C24 1_555 1_555
H21B C26B 1_555 1_555
C27B C6B 1_555 1_555
Co1B N1B 1_555 1_555
Co1_2 N8 1_555 1_555
Co1A O3 1_555 1_555
Co1A_2 O6 1_555 1_555
Co1B_2 N8B 1_555 1_555
Co1C O6B 1_555 1_555
Co1C_2 O3B 1_555 1_555
Co2_2 N5B 1_555 1_555
N1B C8B 1_555 1_555
N2B C12B 1_555 1_555
N3B C8B 1_555 1_555
N4B C9B 1_555 1_555
N5B C13B 1_555 1_555
N5B_2 Co2 1_555 1_555
N6B C13B 1_555 1_555
N7B C15B 1_555 1_555
N8B C9B 1_555 1_555
N8_2 Co1 1_555 1_555
N8B_2 Co1B 1_555 1_555
N9B C10B 1_555 1_555
O1B C3B 1_555 1_555
O2B C3B 1_555 1_555
O3B C11B 1_555 1_555
O3A Co1 1_555 1_555
O3C Co1B 1_555 1_555
O4B C11B 1_555 1_555
O5B Co2 1_555 1_555
O6B C27B 1_555 1_555
O6A Co1 1_555 1_555
O6C Co1B 1_555 1_555
O7B Co2 1_555 1_555
C2 C6 1_555 1_555
C5 C7 1_555 1_555
C10 N8 1_555 1_555
C12 N1 1_555 1_555
C15 N5 1_555 1_555
C17 N2 1_555 1_555
C18 C21 1_555 1_555
C19 N4 1_555 1_555
C20 N6 1_555 1_555
C22 C25 1_555 1_555
Co1 O1 1_555 1_555
Co1 O2 1_555 1_555
Co2 O5 1_555 1_555
N2 N3 1_555 1_555
N4 N9 1_555 1_555
N6 N7 1_555 1_555
C2B C6B 1_555 1_555
C5B C7B 1_555 1_555
C10B N8B 1_555 1_555
C12B N1B 1_555 1_555
C15B N5B 1_555 1_555
C17B N2B 1_555 1_555
C18B C21B 1_555 1_555
C19B N4B 1_555 1_555
C20B N6B 1_555 1_555
C22B C25B 1_555 1_555
C23B C24B 1_555 1_555
C23B C26B 1_555 1_555
C27B O5B 1_555 1_555
Co1B O1B 1_555 1_555
Co1B O2B 1_555 1_555
N2B N3B 1_555 1_555
N4B N9B 1_555 1_555
N6B N7B 1_555 1_555

#END
