
#######################################################################
#
#                 Cambridge Crystallographic Data Centre
#                                CCDC 
#
#######################################################################
#
# If this CIF has been generated from an entry in the Cambridge 
# Structural Database, then it will include bibliographic, chemical, 
# crystal, experimental, refinement or atomic coordinate data resulting 
# from the CCDC's data processing and validation procedures.
#
#######################################################################

data_GUPZAS
_symmetry_cell_setting           orthorhombic
_symmetry_space_group_name_H-M   'P b c a'
_symmetry_Int_Tables_number      61
_space_group_name_Hall           '-P 2ac 2ab'
loop_
_symmetry_equiv_pos_site_id
_symmetry_equiv_pos_as_xyz
1 x,y,z
2 1/2-x,-y,1/2+z
3 -x,1/2+y,1/2-z
4 1/2+x,1/2-y,-z
5 -x,-y,-z
6 1/2+x,y,1/2-z
7 x,1/2-y,1/2+z
8 1/2-x,1/2+y,z
_cell_length_a                   19.8123(2)
_cell_length_b                   9.9516(2)
_cell_length_c                   20.9815(3)
_cell_angle_alpha                90
_cell_angle_beta                 90
_cell_angle_gamma                90
_cell_volume                     4136.8
loop_
_atom_site_label
_atom_site_type_symbol
_atom_site_fract_x
_atom_site_fract_y
_atom_site_fract_z
Cu1 Cu -0.09255(2) 0.61181(4) 0.32937(2)
O1 O -0.17223(13) 0.7490(3) 0.35976(13)
H1 H -0.16443(13) 0.8240(3) 0.36885(13)
H2 H -0.20653(13) 0.7293(3) 0.36845(13)
O2 O -0.13311(14) 0.4728(3) 0.40096(12)
H3 H -0.13724(14) 0.3859(3) 0.38845(12)
H4 H -0.16265(14) 0.4869(3) 0.41705(12)
N1 N -0.15047(13) 0.5301(3) 0.26082(12)
N2 N -0.02850(14) 0.4508(3) 0.29492(12)
N3 N 0.04987(14) 0.2725(3) 0.22799(13)
N4 N 0.02623(13) 0.1936(3) 0.10965(12)
C1 C -0.2167(2) 0.5560(4) 0.2553(2)
H5 H -0.2354(2) 0.6285(4) 0.2789(2)
C2 C -0.2587(2) 0.4812(4) 0.2166(2)
H6 H -0.3051(2) 0.5033(4) 0.2129(2)
C3 C -0.2320(2) 0.3738(4) 0.1833(2)
H7 H -0.2602(2) 0.3195(4) 0.1573(2)
C4 C -0.1636(2) 0.3464(3) 0.18845(15)
H8 H -0.1444(2) 0.2727(3) 0.16618(15)
C5 C -0.1237(2) 0.4280(3) 0.22647(15)
C6 C -0.0505(2) 0.4015(3) 0.23867(15)
C7 C 0.0305(2) 0.4107(4) 0.3179(2)
H9 H 0.0478(2) 0.4501(4) 0.3558(2)
C8 C 0.0674(2) 0.3106(4) 0.2866(2)
H10 H 0.1049(2) 0.2699(4) 0.3071(2)
C9 C -0.0061(2) 0.3243(3) 0.20067(15)
C10 C -0.0118(2) 0.2982(3) 0.13093(15)
C11 C -0.0471(2) 0.3803(3) 0.0894(2)
H11 H -0.0717(2) 0.4555(3) 0.1049(2)
C12 C -0.0462(2) 0.3511(4) 0.0248(2)
H12 H -0.0703(2) 0.4060(4) -0.0045(2)
C13 C -0.0099(2) 0.2414(4) 0.0034(2)
H13 H -0.0098(2) 0.2182(4) -0.0405(2)
C14 C 0.0264(2) 0.1657(4) 0.0471(2)
H14 H 0.0523(2) 0.0917(4) 0.0322(2)
Cu1B Cu 0.09255(2) 0.11181(4) 0.17063(2)
N3B N -0.04987(14) 0.7725(3) 0.27201(13)
N4B N -0.02623(13) 0.6936(3) 0.39035(12)
F1 F 0.03804(15) 0.6493(3) 0.13994(13)
F2 F 0.12609(15) 0.5082(2) 0.13145(13)
F3 F 0.1441(2) 0.7259(2) 0.15527(14)
F4 F 0.09488(13) 0.5943(2) 0.22737(10)
B1 B 0.0999(2) 0.6193(4) 0.1637(2)
O3 O 0.2505(2) 0.0986(4) 0.06034(15)
H15 H 0.2548(2) 0.1099(4) 0.02094(15)
H16 H 0.2788(2) 0.0326(4) 0.07348(15)
O4 O -0.1381(6) 0.0593(12) 0.0844(6)
B2 B 0.17847(11) 0.3204(3) -0.05287(11)
F5 F 0.1557(2) 0.1924(4) -0.0434(3)
F6 F 0.24745(13) 0.3209(4) -0.05301(13)
F7 F 0.1554(2) 0.3671(4) -0.11013(13)
F8 F 0.1554(2) 0.4014(5) -0.00505(14)
O5? O -0.1321(7) -0.0124(11) 0.0688(6)
B3? B 0.18808(11) 0.3597(3) -0.05034(10)
F9? F 0.1962(2) 0.4958(3) -0.0506(2)
F10? F 0.24981(14) 0.2990(4) -0.05109(14)
F11? F 0.15235(14) 0.3218(4) -0.10288(15)
F12? F 0.1540(2) 0.3223(6) 0.00327(14)
loop_
_geom_bond_atom_site_label_1
_geom_bond_atom_site_label_2
_geom_bond_site_symmetry_1
_geom_bond_site_symmetry_2
Cu1 O1 1_555 1_555
O1 H1 1_555 1_555
H2 O1 1_555 1_555
O2 Cu1 1_555 1_555
H3 O2 1_555 1_555
H4 O2 1_555 1_555
N1 Cu1 1_555 1_555
N2 Cu1 1_555 1_555
N3 C8 1_555 1_555
N4 C10 1_555 1_555
C1 N1 1_555 1_555
H5 C1 1_555 1_555
C2 C1 1_555 1_555
H6 C2 1_555 1_555
C3 C2 1_555 1_555
H7 C3 1_555 1_555
C4 C3 1_555 1_555
H8 C4 1_555 1_555
C5 N1 1_555 1_555
C6 N2 1_555 1_555
C7 N2 1_555 1_555
H9 C7 1_555 1_555
C8 C7 1_555 1_555
H10 C8 1_555 1_555
C9 N3 1_555 1_555
C10 C9 1_555 1_555
C11 C10 1_555 1_555
H11 C11 1_555 1_555
C12 C11 1_555 1_555
H12 C12 1_555 1_555
C13 C12 1_555 1_555
H13 C13 1_555 1_555
C14 N4 1_555 1_555
H14 C14 1_555 1_555
F1 B1 1_555 1_555
F2 B1 1_555 1_555
F3 B1 1_555 1_555
F4 B1 1_555 1_555
O3 H15 1_555 1_555
H16 O3 1_555 1_555
B2 F5 1_555 1_555
F6 B2 1_555 1_555
F7 B2 1_555 1_555
F8 B2 1_555 1_555
Cu1B N3 1_555 1_555
N3B Cu1 1_555 1_555
N4B Cu1 1_555 1_555
N4 Cu1B 1_555 1_555
C4 C5 1_555 1_555
C5 C6 1_555 1_555
C6 C9 1_555 1_555
C13 C14 1_555 1_555

#END
