
#######################################################################
#
#                 Cambridge Crystallographic Data Centre
#                                CCDC 
#
#######################################################################
#
# If this CIF has been generated from an entry in the Cambridge 
# Structural Database, then it will include bibliographic, chemical, 
# crystal, experimental, refinement or atomic coordinate data resulting 
# from the CCDC's data processing and validation procedures.
#
#######################################################################

data_GUPZAS03
_symmetry_cell_setting           orthorhombic
_symmetry_space_group_name_H-M   'P b c a'
_symmetry_Int_Tables_number      61
_space_group_name_Hall           '-P 2ac 2ab'
loop_
_symmetry_equiv_pos_site_id
_symmetry_equiv_pos_as_xyz
1 x,y,z
2 1/2-x,-y,1/2+z
3 -x,1/2+y,1/2-z
4 1/2+x,1/2-y,-z
5 -x,-y,-z
6 1/2+x,y,1/2-z
7 x,1/2-y,1/2+z
8 1/2-x,1/2+y,z
_cell_length_a                   19.5839(4)
_cell_length_b                   9.8700(2)
_cell_length_c                   20.9299(5)
_cell_angle_alpha                90
_cell_angle_beta                 90
_cell_angle_gamma                90
_cell_volume                     4045.61
loop_
_atom_site_label
_atom_site_type_symbol
_atom_site_fract_x
_atom_site_fract_y
_atom_site_fract_z
Cu1 Cu -0.093580(12) 0.60329(2) 0.330480(12)
O1 O -0.17263(9) 0.7368(2) 0.36009(8)
H1 H -0.16092(9) 0.8140(2) 0.36745(8)
H2 H -0.19732(9) 0.7122(2) 0.38675(8)
O2 O -0.13265(9) 0.4611(2) 0.40530(9)
H3 H -0.13947(9) 0.3909(2) 0.38817(9)
H4 H -0.17059(9) 0.4940(2) 0.41801(9)
N1 N -0.15261(9) 0.5206(2) 0.26298(8)
N2 N -0.02896(9) 0.4438(2) 0.29683(8)
N3 N 0.05055(9) 0.2662(2) 0.22966(9)
N4 N 0.02585(9) 0.1883(2) 0.11009(8)
C1 C -0.21981(11) 0.5451(2) 0.25775(11)
H5 H -0.23903(11) 0.6177(2) 0.28155(11)
C2 C -0.26208(11) 0.4682(3) 0.21915(11)
H6 H -0.30934(11) 0.4887(3) 0.21586(11)
C3 C -0.23435(11) 0.3610(2) 0.18556(11)
H7 H -0.26247(11) 0.3058(2) 0.15928(11)
C4 C -0.16472(11) 0.3348(2) 0.19040(10)
H8 H -0.14477(11) 0.2609(2) 0.16809(10)
C5 C -0.12496(10) 0.4186(2) 0.22836(10)
C6 C -0.05124(10) 0.3942(2) 0.24047(10)
C7 C 0.03063(11) 0.4025(2) 0.32006(10)
H9 H 0.04810(11) 0.4412(2) 0.35825(10)
C8 C 0.06750(11) 0.3025(2) 0.28854(11)
H10 H 0.10508(11) 0.2603(2) 0.30919(11)
C9 C -0.00602(10) 0.3182(2) 0.20229(10)
C10 C -0.01169(10) 0.2934(2) 0.13258(10)
C11 C -0.04743(11) 0.3784(2) 0.09162(11)
H11 H -0.07180(11) 0.4540(2) 0.10803(11)
C12 C -0.04715(11) 0.3518(2) 0.02662(11)
H12 H -0.07121(11) 0.4090(2) -0.00212(11)
C13 C -0.01122(12) 0.2409(2) 0.00420(11)
H13 H -0.01174(12) 0.2186(2) -0.03995(11)
C14 C 0.02534(9) 0.1628(2) 0.04714(8)
H14 H 0.05106(9) 0.0882(2) 0.03149(8)
Cu1B Cu 0.093580(12) 0.10329(2) 0.169520(12)
N3B N -0.05055(9) 0.7662(2) 0.27034(9)
N4B N -0.02585(9) 0.6883(2) 0.38991(8)
F1 F 0.04086(9) 0.6462(2) 0.13452(8)
F2 F 0.12996(9) 0.5003(2) 0.13023(8)
F3 F 0.14843(9) 0.71956(15) 0.15700(8)
F4 F 0.09258(8) 0.5829(2) 0.22583(7)
B1 B 0.10200(9) 0.6124(2) 0.16194(8)
O3 O 0.24923(10) 0.0913(2) 0.05367(10)
H15 H 0.25149(10) 0.1233(2) 0.01225(10)
H16 H 0.28209(10) 0.0461(2) 0.07215(10)
O4 O -0.1416(2) 0.0728(4) 0.0889(2)
B2 B 0.17360(9) 0.31050(14) -0.05294(8)
F5 F 0.13733(12) 0.1899(2) -0.05655(11)
F6 F 0.24234(12) 0.2824(3) -0.0447(2)
F7 F 0.16475(12) 0.3837(2) -0.10935(11)
F8 F 0.1501(2) 0.3860(3) -0.00124(12)
O5? O -0.1349(6) -0.0078(13) 0.0696(6)
B3? B 0.1862(3) 0.3584(6) -0.0487(3)
F9? F 0.1951(4) 0.4926(8) -0.0596(5)
F10? F 0.2474(4) 0.2950(9) -0.0498(5)
F11? F 0.1454(4) 0.3053(12) -0.0949(4)
F12? F 0.1568(5) 0.3405(10) 0.0096(4)
loop_
_geom_bond_atom_site_label_1
_geom_bond_atom_site_label_2
_geom_bond_site_symmetry_1
_geom_bond_site_symmetry_2
Cu1 O1 1_555 1_555
O1 H1 1_555 1_555
H2 O1 1_555 1_555
O2 Cu1 1_555 1_555
H3 O2 1_555 1_555
H4 O2 1_555 1_555
N1 Cu1 1_555 1_555
N2 Cu1 1_555 1_555
N3 C8 1_555 1_555
N4 C10 1_555 1_555
C1 N1 1_555 1_555
H5 C1 1_555 1_555
C2 C1 1_555 1_555
H6 C2 1_555 1_555
C3 C2 1_555 1_555
H7 C3 1_555 1_555
C4 C3 1_555 1_555
H8 C4 1_555 1_555
C5 N1 1_555 1_555
C6 N2 1_555 1_555
C7 N2 1_555 1_555
H9 C7 1_555 1_555
C8 C7 1_555 1_555
H10 C8 1_555 1_555
C9 N3 1_555 1_555
C10 C9 1_555 1_555
C11 C10 1_555 1_555
H11 C11 1_555 1_555
C12 C11 1_555 1_555
H12 C12 1_555 1_555
C13 C12 1_555 1_555
H13 C13 1_555 1_555
C14 N4 1_555 1_555
H14 C14 1_555 1_555
F1 B1 1_555 1_555
F2 B1 1_555 1_555
F3 B1 1_555 1_555
F4 B1 1_555 1_555
O3 H15 1_555 1_555
H16 O3 1_555 1_555
B2 F5 1_555 1_555
F6 B2 1_555 1_555
F7 B2 1_555 1_555
F8 B2 1_555 1_555
Cu1B N3 1_555 1_555
N3B Cu1 1_555 1_555
N4B Cu1 1_555 1_555
N4 Cu1B 1_555 1_555
C4 C5 1_555 1_555
C5 C6 1_555 1_555
C6 C9 1_555 1_555
C13 C14 1_555 1_555

#END
