
#######################################################################
#
#                 Cambridge Crystallographic Data Centre
#                                CCDC 
#
#######################################################################
#
# If this CIF has been generated from an entry in the Cambridge 
# Structural Database, then it will include bibliographic, chemical, 
# crystal, experimental, refinement or atomic coordinate data resulting 
# from the CCDC's data processing and validation procedures.
#
#######################################################################

data_GUPZAS01
_symmetry_cell_setting           orthorhombic
_symmetry_space_group_name_H-M   'P b c a'
_symmetry_Int_Tables_number      61
_space_group_name_Hall           '-P 2ac 2ab'
loop_
_symmetry_equiv_pos_site_id
_symmetry_equiv_pos_as_xyz
1 x,y,z
2 1/2-x,-y,1/2+z
3 -x,1/2+y,1/2-z
4 1/2+x,1/2-y,-z
5 -x,-y,-z
6 1/2+x,y,1/2-z
7 x,1/2-y,1/2+z
8 1/2-x,1/2+y,z
_cell_length_a                   19.9740(2)
_cell_length_b                   9.9577(2)
_cell_length_c                   21.0207(5)
_cell_angle_alpha                90
_cell_angle_beta                 90
_cell_angle_gamma                90
_cell_volume                     4180.91
loop_
_atom_site_label
_atom_site_type_symbol
_atom_site_fract_x
_atom_site_fract_y
_atom_site_fract_z
Cu1 Cu -0.09036(3) 0.61283(6) 0.32976(3)
O1 O -0.16927(15) 0.7486(3) 0.36120(15)
H1 H -0.16147(15) 0.8237(3) 0.37029(15)
H2 H -0.20357(15) 0.7290(3) 0.36989(15)
O2 O -0.13027(15) 0.4732(3) 0.40246(15)
H3 H -0.13440(15) 0.3863(3) 0.38995(15)
H4 H -0.15981(15) 0.4872(3) 0.41855(15)
N1 N -0.1477(2) 0.5308(4) 0.2620(2)
N2 N -0.0269(2) 0.4520(4) 0.2950(2)
N3 N 0.0493(2) 0.2731(4) 0.2269(2)
N4 N 0.0248(2) 0.1946(4) 0.1102(2)
C1 C -0.2137(3) 0.5567(6) 0.2575(3)
H5 H -0.2318(3) 0.6265(6) 0.2814(3)
C2 C -0.2550(3) 0.4841(7) 0.2190(3)
H6 H -0.3001(3) 0.5062(7) 0.2156(3)
C3 C -0.2292(3) 0.3777(6) 0.1853(3)
H7 H -0.2567(3) 0.3253(6) 0.1598(3)
C4 C -0.1623(3) 0.3504(6) 0.1902(3)
H8 H -0.1441(3) 0.2779(6) 0.1683(3)
C5 C -0.1220(3) 0.4303(5) 0.2273(2)
C6 C -0.0496(2) 0.4031(5) 0.2389(2)
C7 C 0.0311(3) 0.4106(6) 0.3169(3)
H9 H 0.0484(3) 0.4482(6) 0.3539(3)
C8 C 0.0667(3) 0.3114(6) 0.2853(3)
H10 H 0.1031(3) 0.2711(6) 0.3052(3)
C9 C -0.0064(3) 0.3256(5) 0.2005(2)
C10 C -0.0126(3) 0.2991(5) 0.1317(2)
C11 C -0.0469(3) 0.3808(6) 0.0904(3)
H11 H -0.0704(3) 0.4547(6) 0.1057(3)
C12 C -0.0466(3) 0.3529(6) 0.0261(3)
H12 H -0.0699(3) 0.4074(6) -0.0021(3)
C13 C -0.0113(3) 0.2434(7) 0.0044(3)
H13 H -0.0117(3) 0.2208(7) -0.0386(3)
C14 C 0.0245(3) 0.1679(6) 0.0476(3)
H14 H 0.0496(3) 0.0957(6) 0.0328(3)
Cu1B Cu 0.09036(3) 0.11283(6) 0.17024(3)
N3B N -0.0493(2) 0.7731(4) 0.2731(2)
N4B N -0.0248(2) 0.6946(4) 0.3898(2)
F1 F 0.0403(3) 0.6485(6) 0.1417(3)
F2 F 0.1238(3) 0.5076(4) 0.1325(3)
F3 F 0.1427(3) 0.7226(5) 0.1528(3)
F4 F 0.0960(3) 0.5998(4) 0.2257(2)
B1 B 0.1011(4) 0.6197(7) 0.1627(4)
O3 O 0.2486(3) 0.0898(8) 0.0597(3)
H15 H 0.2528(3) 0.1012(8) 0.0203(3)
H16 H 0.2768(3) 0.0239(8) 0.0728(3)
O4 O -0.1347(13) 0.0479(27) 0.0830(14)
B2 B 0.1756(4) 0.3159(8) -0.0547(4)
F5 F 0.1550(8) 0.1899(10) -0.0473(8)
F6 F 0.2427(6) 0.3195(17) -0.0551(8)
F7 F 0.1523(9) 0.3641(15) -0.1095(5)
F8 F 0.1526(6) 0.3903(14) -0.0068(5)
O5? O -0.1435(23) 0.0093(71) 0.0675(23)
B3? B 0.1862(6) 0.3449(10) -0.0514(5)
F9? F 0.1934(9) 0.4764(13) -0.0496(9)
F10? F 0.2461(9) 0.2877(17) -0.0542(7)
F11? F 0.1508(11) 0.3115(15) -0.1021(9)
F12? F 0.1546(9) 0.3042(23) 0.0003(8)
loop_
_geom_bond_atom_site_label_1
_geom_bond_atom_site_label_2
_geom_bond_site_symmetry_1
_geom_bond_site_symmetry_2
Cu1 O1 1_555 1_555
O1 H1 1_555 1_555
H2 O1 1_555 1_555
O2 Cu1 1_555 1_555
H3 O2 1_555 1_555
H4 O2 1_555 1_555
N1 Cu1 1_555 1_555
N2 Cu1 1_555 1_555
N3 C8 1_555 1_555
N4 C10 1_555 1_555
C1 N1 1_555 1_555
H5 C1 1_555 1_555
C2 C1 1_555 1_555
H6 C2 1_555 1_555
C3 C2 1_555 1_555
H7 C3 1_555 1_555
C4 C3 1_555 1_555
H8 C4 1_555 1_555
C5 N1 1_555 1_555
C6 N2 1_555 1_555
C7 N2 1_555 1_555
H9 C7 1_555 1_555
C8 C7 1_555 1_555
H10 C8 1_555 1_555
C9 N3 1_555 1_555
C10 C9 1_555 1_555
C11 C10 1_555 1_555
H11 C11 1_555 1_555
C12 C11 1_555 1_555
H12 C12 1_555 1_555
C13 C12 1_555 1_555
H13 C13 1_555 1_555
C14 N4 1_555 1_555
H14 C14 1_555 1_555
F1 B1 1_555 1_555
F2 B1 1_555 1_555
F3 B1 1_555 1_555
F4 B1 1_555 1_555
O3 H15 1_555 1_555
H16 O3 1_555 1_555
B2 F5 1_555 1_555
F6 B2 1_555 1_555
F7 B2 1_555 1_555
F8 B2 1_555 1_555
Cu1B N3 1_555 1_555
N3B Cu1 1_555 1_555
N4B Cu1 1_555 1_555
N4 Cu1B 1_555 1_555
C4 C5 1_555 1_555
C5 C6 1_555 1_555
C6 C9 1_555 1_555
C13 C14 1_555 1_555

#END
