
#######################################################################
#
#                 Cambridge Crystallographic Data Centre
#                                CCDC 
#
#######################################################################
#
# If this CIF has been generated from an entry in the Cambridge 
# Structural Database, then it will include bibliographic, chemical, 
# crystal, experimental, refinement or atomic coordinate data resulting 
# from the CCDC's data processing and validation procedures.
#
#######################################################################

data_GUPZAS02
_symmetry_cell_setting           orthorhombic
_symmetry_space_group_name_H-M   'P b c a'
_symmetry_Int_Tables_number      61
_space_group_name_Hall           '-P 2ac 2ab'
loop_
_symmetry_equiv_pos_site_id
_symmetry_equiv_pos_as_xyz
1 x,y,z
2 1/2-x,-y,1/2+z
3 -x,1/2+y,1/2-z
4 1/2+x,1/2-y,-z
5 -x,-y,-z
6 1/2+x,y,1/2-z
7 x,1/2-y,1/2+z
8 1/2-x,1/2+y,z
_cell_length_a                   19.6196(4)
_cell_length_b                   9.9010(2)
_cell_length_c                   20.9568(5)
_cell_angle_alpha                90
_cell_angle_beta                 90
_cell_angle_gamma                90
_cell_volume                     4070.94
loop_
_atom_site_label
_atom_site_type_symbol
_atom_site_fract_x
_atom_site_fract_y
_atom_site_fract_z
Cu1 Cu -0.09328(2) 0.60552(4) 0.33045(2)
O1 O -0.17228(9) 0.7409(2) 0.36137(9)
H1 H -0.16448(9) 0.8159(2) 0.37046(9)
H2 H -0.20658(9) 0.7212(2) 0.37006(9)
O2 O -0.13328(9) 0.4654(2) 0.40263(9)
H3 H -0.13741(9) 0.3785(2) 0.39012(9)
H4 H -0.16282(9) 0.4795(2) 0.41872(9)
N1 N -0.15179(12) 0.5226(3) 0.26246(12)
N2 N -0.02829(13) 0.4440(3) 0.29652(12)
N3 N 0.05066(13) 0.2666(3) 0.22857(12)
N4 N 0.02591(13) 0.1896(3) 0.10952(12)
C1 C -0.2188(2) 0.5476(3) 0.2571(2)
H5 H -0.2379(2) 0.6205(3) 0.2805(2)
C2 C -0.2611(2) 0.4710(4) 0.2186(2)
H6 H -0.3082(2) 0.4915(4) 0.2152(2)
C3 C -0.2335(2) 0.3644(4) 0.1852(2)
H7 H -0.2617(2) 0.3096(4) 0.1590(2)
C4 C -0.1643(2) 0.3377(3) 0.18997(15)
H8 H -0.1445(2) 0.2640(3) 0.16758(15)
C5 C -0.1245(2) 0.4206(3) 0.22809(15)
C6 C -0.05075(15) 0.3953(3) 0.23984(14)
C7 C 0.0315(2) 0.4026(4) 0.31921(15)
H9 H 0.0492(2) 0.4411(4) 0.35727(15)
C8 C 0.0679(2) 0.3032(3) 0.2873(2)
H10 H 0.1055(2) 0.2610(3) 0.3077(2)
C9 C -0.00615(15) 0.3191(3) 0.20149(14)
C10 C -0.01178(15) 0.2940(3) 0.13166(15)
C11 C -0.0474(2) 0.3782(3) 0.0905(2)
H11 H -0.0719(2) 0.4533(3) 0.1068(2)
C12 C -0.0469(2) 0.3520(4) 0.0258(2)
H12 H -0.0708(2) 0.4090(4) -0.0030(2)
C13 C -0.0109(2) 0.2409(4) 0.0037(2)
H13 H -0.0112(2) 0.2183(4) -0.0403(2)
C14 C 0.0255(2) 0.1637(3) 0.0464(2)
H14 H 0.0512(2) 0.0894(3) 0.0309(2)
Cu1B Cu 0.09328(2) 0.10552(4) 0.16955(2)
N3B N -0.05066(13) 0.7666(3) 0.27143(12)
N4B N -0.02591(13) 0.6896(3) 0.39048(12)
F1 F 0.03968(13) 0.6459(3) 0.13631(12)
F2 F 0.12870(13) 0.5024(2) 0.13041(12)
F3 F 0.14684(13) 0.7216(2) 0.15620(11)
F4 F 0.09334(11) 0.5855(2) 0.22617(10)
B1 B 0.1011(2) 0.6133(4) 0.1623(2)
O3 O 0.24929(14) 0.0927(3) 0.05468(14)
H15 H 0.25354(14) 0.1040(3) 0.01528(14)
H16 H 0.27754(14) 0.0267(3) 0.06782(14)
O4 O -0.1408(3) 0.0701(7) 0.0877(3)
B2 B 0.17468(14) 0.3107(2) -0.05298(12)
F5 F 0.1404(2) 0.1882(3) -0.0548(2)
F6 F 0.2437(2) 0.2875(4) -0.0457(2)
F7 F 0.1636(2) 0.3804(4) -0.1098(2)
F8 F 0.1511(2) 0.3868(4) -0.0018(2)
O5? O -0.1351(7) -0.0119(16) 0.0676(7)
B3? B 0.1866(3) 0.3608(7) -0.0498(4)
F9? F 0.1952(5) 0.4952(9) -0.0559(5)
F10? F 0.2474(5) 0.2989(11) -0.0522(7)
F11? F 0.1470(5) 0.3152(12) -0.0978(5)
F12? F 0.1567(7) 0.3340(13) 0.0069(6)
loop_
_geom_bond_atom_site_label_1
_geom_bond_atom_site_label_2
_geom_bond_site_symmetry_1
_geom_bond_site_symmetry_2
Cu1 O1 1_555 1_555
O1 H1 1_555 1_555
H2 O1 1_555 1_555
O2 Cu1 1_555 1_555
H3 O2 1_555 1_555
H4 O2 1_555 1_555
N1 Cu1 1_555 1_555
N2 Cu1 1_555 1_555
N3 C8 1_555 1_555
N4 C10 1_555 1_555
C1 N1 1_555 1_555
H5 C1 1_555 1_555
C2 C1 1_555 1_555
H6 C2 1_555 1_555
C3 C2 1_555 1_555
H7 C3 1_555 1_555
C4 C3 1_555 1_555
H8 C4 1_555 1_555
C5 N1 1_555 1_555
C6 N2 1_555 1_555
C7 N2 1_555 1_555
H9 C7 1_555 1_555
C8 C7 1_555 1_555
H10 C8 1_555 1_555
C9 N3 1_555 1_555
C10 C9 1_555 1_555
C11 C10 1_555 1_555
H11 C11 1_555 1_555
C12 C11 1_555 1_555
H12 C12 1_555 1_555
C13 C12 1_555 1_555
H13 C13 1_555 1_555
C14 N4 1_555 1_555
H14 C14 1_555 1_555
F1 B1 1_555 1_555
F2 B1 1_555 1_555
F3 B1 1_555 1_555
F4 B1 1_555 1_555
O3 H15 1_555 1_555
H16 O3 1_555 1_555
B2 F5 1_555 1_555
F6 B2 1_555 1_555
F7 B2 1_555 1_555
F8 B2 1_555 1_555
Cu1B N3 1_555 1_555
N3B Cu1 1_555 1_555
N4B Cu1 1_555 1_555
N4 Cu1B 1_555 1_555
C4 C5 1_555 1_555
C5 C6 1_555 1_555
C6 C9 1_555 1_555
C13 C14 1_555 1_555

#END
