
#######################################################################
#
#                 Cambridge Crystallographic Data Centre
#                                CCDC 
#
#######################################################################
#
# If this CIF has been generated from an entry in the Cambridge 
# Structural Database, then it will include bibliographic, chemical, 
# crystal, experimental, refinement or atomic coordinate data resulting 
# from the CCDC's data processing and validation procedures.
#
#######################################################################

data_GUQMAH
_symmetry_cell_setting           orthorhombic
_symmetry_space_group_name_H-M   'P c a 21'
_symmetry_Int_Tables_number      29
_space_group_name_Hall           'P 2c -2ac'
loop_
_symmetry_equiv_pos_site_id
_symmetry_equiv_pos_as_xyz
1 x,y,z
2 1/2-x,y,1/2+z
3 1/2+x,-y,z
4 -x,-y,1/2+z
_cell_length_a                   22.212(4)
_cell_length_b                   11.1351(19)
_cell_length_c                   16.837(3)
_cell_angle_alpha                90
_cell_angle_beta                 90
_cell_angle_gamma                90
_cell_volume                     4164.34
loop_
_atom_site_label
_atom_site_type_symbol
_atom_site_fract_x
_atom_site_fract_y
_atom_site_fract_z
Cu1 Cu 0.243063(9) 0.476685(16) 0.125666(16)
O1 O 0.24767(7) 0.47583(12) 0.26925(11)
H1 H 0.2196(14) 0.467(2) 0.302(2)
H2 H 0.2772(13) 0.491(3) 0.297(2)
O2 O 0.24543(7) 0.48134(13) -0.01572(11)
H3 H 0.2764(10) 0.476(2) -0.0405(16)
H4 H 0.2199(14) 0.496(2) -0.0507(19)
N1 N 0.33411(6) 0.48407(13) 0.12284(12)
N2 N 0.24352(6) 0.29359(12) 0.12525(12)
N3 N 0.65194(6) 0.52600(12) 0.12722(12)
N4 N 0.23918(6) -0.33990(12) 0.12860(12)
C1 C 0.36799(8) 0.40760(17) 0.16510(12)
H5 H 0.3484 0.3469 0.1952
C2 C 0.43001(8) 0.41336(17) 0.16672(12)
H6 H 0.4524 0.3562 0.1963
C3 C 0.45960(7) 0.50371(15) 0.12457(14)
C4 C 0.42439(8) 0.58278(18) 0.07997(12)
H7 H 0.4428 0.6450 0.0499
C5 C 0.36247(8) 0.56971(17) 0.07998(12)
H8 H 0.3390 0.6230 0.0487
C6 C 0.25730(10) 0.23070(18) 0.06011(14)
H9 H 0.2685 0.2729 0.0134
C7 C 0.25589(10) 0.10594(18) 0.05808(15)
H10 H 0.2653 0.0642 0.0104
C8 C 0.24074(7) 0.04329(14) 0.12595(16)
C9 C 0.22732(10) 0.10778(17) 0.19398(13)
H11 H 0.2174 0.0673 0.2419
C10 C 0.22852(10) 0.23251(17) 0.19131(13)
H12 H 0.2184 0.2763 0.2379
C11 C 0.62006(8) 0.57669(16) 0.06815(12)
H13 H 0.6409 0.6175 0.0270
C12 C 0.55755(8) 0.57128(16) 0.06535(12)
H14 H 0.5364 0.6063 0.0221
C13 C 0.52617(7) 0.51442(14) 0.12611(15)
C14 C 0.55969(8) 0.46501(17) 0.18789(12)
H15 H 0.5399 0.4270 0.2311
C15 C 0.62178(9) 0.47134(16) 0.18619(12)
H16 H 0.6440 0.4357 0.2283
C16 C 0.26361(9) -0.27741(17) 0.18941(13)
H17 H 0.2809 -0.3200 0.2326
C17 C 0.26419(9) -0.15219(17) 0.19057(13)
H18 H 0.2810 -0.1102 0.2344
C18 C 0.23996(7) -0.09001(14) 0.12713(15)
C19 C 0.21446(9) -0.15447(16) 0.06499(12)
H19 H 0.1972 -0.1140 0.0208
C20 C 0.21460(9) -0.27934(16) 0.06858(12)
H20 H 0.1964 -0.3232 0.0265
Cu1B Cu 0.743063(9) 0.523315(16) 0.125666(16)
Cu1_2 Cu 0.243063(9) -0.523315(16) 0.125666(16)
N3B N 0.15194(6) 0.47400(12) 0.12722(12)
N4_2 N 0.23918(6) 0.66010(12) 0.12860(12)
S1 S 0.16377(2) 0.83430(4) 0.41249(4)
F1 F 0.07222(9) 0.7166(2) 0.35459(14)
F2 F 0.12260(9) 0.8144(2) 0.26785(10)
F3 F 0.06392(8) 0.9084(2) 0.34753(13)
O3 O 0.18993(9) 0.94786(16) 0.39072(14)
O4 O 0.20193(8) 0.73353(16) 0.39446(12)
O5 O 0.13476(10) 0.83081(19) 0.48838(12)
C21 C 0.10237(12) 0.8184(3) 0.34253(17)
S2 S 0.37076(2) 0.13819(4) 0.34582(4)
F4 F 0.45147(7) -0.00435(13) 0.40880(10)
F5 F 0.37846(7) 0.04093(15) 0.48676(9)
F6 F 0.44789(7) 0.17060(13) 0.46260(9)
O6 O 0.32812(8) 0.21956(15) 0.38168(13)
O7 O 0.34472(8) 0.02956(13) 0.31461(11)
O8 O 0.41511(8) 0.19436(14) 0.29557(10)
C22 C 0.41472(10) 0.08354(18) 0.42990(13)
O9 O 0.15952(7) 0.42260(14) 0.38173(11)
H21 H 0.1650(17) 0.3470(17) 0.377(2)
H22 H 0.1232(8) 0.442(2) 0.3827(18)
O10 O 0.32671(8) 0.78949(14) 0.37547(12)
H23 H 0.2901(8) 0.785(3) 0.377(2)
H24 H 0.3352(14) 0.8542(19) 0.3569(18)
O11 O 0.16091(7) 0.54460(14) -0.12904(11)
H25 H 0.1538(14) 0.6174(16) -0.128(2)
H26 H 0.1273(9) 0.509(2) -0.128(2)
O12 O 0.05755(7) 0.42236(14) -0.12572(11)
H27 H 0.0233(11) 0.458(3) -0.125(3)
H28 H 0.0569(17) 0.357(3) -0.146(2)
O13 O -0.03548(7) 0.58289(13) -0.12470(11)
H29 H -0.0198(16) 0.629(3) -0.1597(18)
H30 H -0.0297(13) 0.625(2) -0.0854(13)
O14 O 0.20143(8) 1.19356(14) 0.37706(11)
H31 H 0.2402(9) 1.200(3) 0.378(3)
H32 H 0.1923(19) 1.1218(19) 0.376(3)
N5 N -0.01654(10) 0.74740(16) -0.00146(12)
N6 N 0.01198(10) 1.24590(18) 0.25842(13)
C23 C 0.03266(11) 0.7640(2) 0.04170(14)
H33 H 0.0646 0.7079 0.0362
C24 C 0.04021(10) 0.8586(2) 0.09456(14)
H34 H 0.0763 0.8658 0.1245
C25 C -0.00586(10) 0.94307(19) 0.10332(13)
C26 C -0.05760(11) 0.9257(2) 0.05773(16)
H35 H -0.0903 0.9803 0.0612
C27 C -0.06049(12) 0.8275(2) 0.00730(16)
H36 H -0.0962 0.8167 -0.0230
C28 C 0.05951(12) 1.1980(2) 0.22152(16)
H37 H 0.0979 1.2330 0.2304
C29 C 0.05582(11) 1.1003(2) 0.17117(15)
H38 H 0.0910 1.0698 0.1463
C30 C 0.00040(10) 1.0469(2) 0.15714(15)
C31 C -0.04927(12) 1.0962(2) 0.19588(17)
H39 H -0.0883 1.0633 0.1884
C32 C -0.04080(13) 1.1939(2) 0.24535(18)
H40 H -0.0751 1.2259 0.2717
loop_
_geom_bond_atom_site_label_1
_geom_bond_atom_site_label_2
_geom_bond_site_symmetry_1
_geom_bond_site_symmetry_2
Cu1 O1 1_555 1_555
O1 H1 1_555 1_555
H2 O1 1_555 1_555
O2 Cu1 1_555 1_555
H3 O2 1_555 1_555
H4 O2 1_555 1_555
N1 Cu1 1_555 1_555
N2 Cu1 1_555 1_555
N3 C11 1_555 1_555
N4 C16 1_555 1_555
C1 N1 1_555 1_555
H5 C1 1_555 1_555
C2 C1 1_555 1_555
H6 C2 1_555 1_555
C3 C2 1_555 1_555
C4 C3 1_555 1_555
H7 C4 1_555 1_555
C5 N1 1_555 1_555
H8 C5 1_555 1_555
C6 N2 1_555 1_555
H9 C6 1_555 1_555
C7 C6 1_555 1_555
H10 C7 1_555 1_555
C8 C7 1_555 1_555
C9 C8 1_555 1_555
H11 C9 1_555 1_555
C10 N2 1_555 1_555
H12 C10 1_555 1_555
C11 H13 1_555 1_555
C12 C11 1_555 1_555
H14 C12 1_555 1_555
C13 C3 1_555 1_555
C14 C13 1_555 1_555
H15 C14 1_555 1_555
C15 N3 1_555 1_555
H16 C15 1_555 1_555
C16 H17 1_555 1_555
C17 C16 1_555 1_555
H18 C17 1_555 1_555
C18 C8 1_555 1_555
C19 C18 1_555 1_555
H19 C19 1_555 1_555
C20 N4 1_555 1_555
H20 C20 1_555 1_555
S1 O3 1_555 1_555
F1 C21 1_555 1_555
F2 C21 1_555 1_555
F3 C21 1_555 1_555
O4 S1 1_555 1_555
O5 S1 1_555 1_555
C21 S1 1_555 1_555
S2 O6 1_555 1_555
F4 C22 1_555 1_555
F5 C22 1_555 1_555
F6 C22 1_555 1_555
O7 S2 1_555 1_555
O8 S2 1_555 1_555
C22 S2 1_555 1_555
O9 H21 1_555 1_555
H22 O9 1_555 1_555
O10 H23 1_555 1_555
H24 O10 1_555 1_555
O11 H25 1_555 1_555
H26 O11 1_555 1_555
O12 H27 1_555 1_555
H28 O12 1_555 1_555
O13 H29 1_555 1_555
H30 O13 1_555 1_555
O14 H31 1_555 1_555
H32 O14 1_555 1_555
N5 C23 1_555 1_555
N6 C28 1_555 1_555
C23 H33 1_555 1_555
C24 C23 1_555 1_555
H34 C24 1_555 1_555
C25 C24 1_555 1_555
C26 C25 1_555 1_555
H35 C26 1_555 1_555
C27 N5 1_555 1_555
H36 C27 1_555 1_555
C28 H37 1_555 1_555
C29 C28 1_555 1_555
H38 C29 1_555 1_555
C30 C25 1_555 1_555
C31 C30 1_555 1_555
H39 C31 1_555 1_555
C32 N6 1_555 1_555
H40 C32 1_555 1_555
Cu1B N3 1_555 1_555
Cu1_2 N4 1_555 1_555
N3B Cu1 1_555 1_555
N4_2 Cu1 1_555 1_555
C4 C5 1_555 1_555
C9 C10 1_555 1_555
C12 C13 1_555 1_555
C14 C15 1_555 1_555
C17 C18 1_555 1_555
C19 C20 1_555 1_555
C26 C27 1_555 1_555
C29 C30 1_555 1_555
C31 C32 1_555 1_555

#END
