
#######################################################################
#
#                 Cambridge Crystallographic Data Centre
#                                CCDC 
#
#######################################################################
#
# If this CIF has been generated from an entry in the Cambridge 
# Structural Database, then it will include bibliographic, chemical, 
# crystal, experimental, refinement or atomic coordinate data resulting 
# from the CCDC's data processing and validation procedures.
#
#######################################################################

data_GUQVIX
_symmetry_cell_setting           orthorhombic
_symmetry_space_group_name_H-M   'P c c a'
_symmetry_Int_Tables_number      54
_space_group_name_Hall           '-P 2a 2ac'
loop_
_symmetry_equiv_pos_site_id
_symmetry_equiv_pos_as_xyz
1 x,y,z
2 1/2+x,y,-z
3 1/2-x,y,1/2+z
4 x,-y,1/2+z
5 -x,-y,-z
6 1/2-x,-y,z
7 1/2+x,-y,1/2-z
8 -x,y,1/2-z
_cell_length_a                   15.3582(15)
_cell_length_b                   11.6957(12)
_cell_length_c                   14.8253(12)
_cell_angle_alpha                90
_cell_angle_beta                 90
_cell_angle_gamma                90
_cell_volume                     2662.99
loop_
_atom_site_label
_atom_site_type_symbol
_atom_site_fract_x
_atom_site_fract_y
_atom_site_fract_z
S1 S 1.0000 1.0000 0.5000
O2 O 1.0041(8) 0.8998(9) 0.5497(9)
O3 O 1.0658(7) 1.0826(12) 0.5313(10)
O4 O 1.0113(9) 0.992(3) 0.5894(6)
C13 C 0.8949(12) 1.0804(15) 0.5496(16)
F1 F 0.8997(8) 1.0975(12) 0.6330(7)
F2 F 0.8792(8) 1.1742(10) 0.5092(8)
F3 F 0.8285(7) 1.0104(14) 0.5319(9)
O2D O 0.9959(8) 1.1002(9) 0.4503(9)
O4D O 0.9887(9) 1.008(3) 0.4106(6)
O3D O 0.9342(7) 0.9174(12) 0.4687(10)
C13D C 1.1051(12) 0.9196(15) 0.4504(16)
F1D F 1.1003(8) 0.9025(12) 0.3670(7)
F2D F 1.1208(8) 0.8258(10) 0.4908(8)
F3D F 1.1715(7) 0.9896(14) 0.4681(9)
O5 O 1.0000 1.138(3) 0.7500
Ag1 Ag 0.7500 0.5000 0.64168(3)
N1 N 0.7594(4) 0.6742(4) 0.7105(2)
N2 N 0.8527(3) 0.6080(4) 0.5617(3)
O1 O 1.0000 0.4247(5) 0.2500
C1 C 0.7181(3) 0.7080(6) 0.7858(4)
H1 H 0.6717 0.6624 0.8083
C2 C 0.7404(5) 0.8069(6) 0.8319(4)
H2 H 0.7081 0.8293 0.8836
C3 C 0.8096(5) 0.8731(6) 0.8029(5)
H3 H 0.8273 0.9390 0.8356
C4 C 0.8533(4) 0.8399(6) 0.7234(5)
H4 H 0.9002 0.8838 0.7000
C5 C 0.8251(4) 0.7397(5) 0.6799(4)
C6 C 0.8706(3) 0.7018(5) 0.5974(4)
H5 H 0.9140 0.7493 0.5712
C7 C 0.8942(3) 0.5692(6) 0.4806(4)
C8 C 0.9567(3) 0.6326(5) 0.4334(3)
H6 H 0.9743 0.7055 0.4548
C9 C 0.9928(3) 0.5880(5) 0.3548(4)
H7 H 1.0355 0.6299 0.3223
C10 C 0.9657(3) 0.4827(7) 0.3251(3)
C11 C 0.9037(3) 0.4185(5) 0.3715(3)
H8 H 0.8853 0.3460 0.3497
C12 C 0.8697(3) 0.4636(5) 0.4503(4)
H9 H 0.8286 0.4203 0.4839
C10G C 1.0343(3) 0.4827(7) 0.1749(3)
C9G C 1.0072(3) 0.5880(5) 0.1452(4)
C8G C 1.0433(3) 0.6326(5) 0.0666(3)
C7G C 1.1058(3) 0.5692(6) 0.0194(4)
N2G N 1.1473(3) 0.6080(4) -0.0617(3)
C6G C 1.1294(3) 0.7018(5) -0.0974(4)
C5G C 1.1749(4) 0.7397(5) -0.1799(4)
N1G N 1.2406(4) 0.6742(4) -0.2105(2)
C1G C 1.2819(3) 0.7080(6) -0.2858(4)
H1G H 1.3283 0.6624 -0.3083
C2G C 1.2596(5) 0.8069(6) -0.3319(4)
H2G H 1.2919 0.8293 -0.3836
C3G C 1.1904(5) 0.8731(6) -0.3029(5)
H3G H 1.1727 0.9390 -0.3356
C4G C 1.1467(4) 0.8399(6) -0.2234(5)
H4G H 1.0998 0.8838 -0.2000
H5G H 1.0860 0.7493 -0.0712
C12G C 1.1303(3) 0.4636(5) 0.0497(4)
C11G C 1.0963(3) 0.4185(5) 0.1285(3)
H8G H 1.1147 0.3460 0.1503
H9G H 1.1714 0.4203 0.0161
H6G H 1.0257 0.7055 0.0452
H7G H 0.9645 0.6299 0.1777
N1E N 0.7406(4) 0.3258(4) 0.7105(2)
N2E N 0.6473(3) 0.3920(4) 0.5617(3)
Ag1F Ag 1.2500 0.5000 -0.14168(3)
loop_
_geom_bond_atom_site_label_1
_geom_bond_atom_site_label_2
_geom_bond_site_symmetry_1
_geom_bond_site_symmetry_2
Ag1 N1 1_555 1_555
N1 C1 1_555 1_555
N2 Ag1 1_555 1_555
O1 C10 1_555 1_555
C1 H1 1_555 1_555
C2 C1 1_555 1_555
H2 C2 1_555 1_555
C3 C2 1_555 1_555
H3 C3 1_555 1_555
C4 C3 1_555 1_555
H4 C4 1_555 1_555
C5 N1 1_555 1_555
C6 N2 1_555 1_555
H5 C6 1_555 1_555
C7 N2 1_555 1_555
C8 C7 1_555 1_555
H6 C8 1_555 1_555
C9 C8 1_555 1_555
H7 C9 1_555 1_555
C10 C9 1_555 1_555
C11 C10 1_555 1_555
H8 C11 1_555 1_555
C12 C7 1_555 1_555
H9 C12 1_555 1_555
S1 O2 1_555 1_555
O2 O4 1_555 1_555
O3 S1 1_555 1_555
O4 S1 1_555 1_555
C13 S1 1_555 1_555
F1 C13 1_555 1_555
F2 C13 1_555 1_555
F3 C13 1_555 1_555
C10G O1 1_555 1_555
C9G C10G 1_555 1_555
C8G C9G 1_555 1_555
C7G C8G 1_555 1_555
N2G C7G 1_555 1_555
C6G N2G 1_555 1_555
C5G C6G 1_555 1_555
N1G C5G 1_555 1_555
C1G N1G 1_555 1_555
H1G C1G 1_555 1_555
C2G C1G 1_555 1_555
H2G C2G 1_555 1_555
C3G C2G 1_555 1_555
H3G C3G 1_555 1_555
C4G C5G 1_555 1_555
H4G C4G 1_555 1_555
H5G C6G 1_555 1_555
C12G C7G 1_555 1_555
C11G C10G 1_555 1_555
H8G C11G 1_555 1_555
H9G C12G 1_555 1_555
H6G C8G 1_555 1_555
H7G C9G 1_555 1_555
O2D S1 1_555 1_555
O4D S1 1_555 1_555
O3D S1 1_555 1_555
C13D S1 1_555 1_555
F1D C13D 1_555 1_555
F2D C13D 1_555 1_555
F3D C13D 1_555 1_555
N1E Ag1 1_555 1_555
N2E Ag1 1_555 1_555
Ag1F N2G 1_555 1_555
C4 C5 1_555 1_555
C5 C6 1_555 1_555
C11 C12 1_555 1_555
N1G Ag1F 1_555 1_555
C3G C4G 1_555 1_555
C12G C11G 1_555 1_555
O2D O4D 1_555 1_555

#END
