
#######################################################################
#
#                 Cambridge Crystallographic Data Centre
#                                CCDC 
#
#######################################################################
#
# If this CIF has been generated from an entry in the Cambridge 
# Structural Database, then it will include bibliographic, chemical, 
# crystal, experimental, refinement or atomic coordinate data resulting 
# from the CCDC's data processing and validation procedures.
#
#######################################################################

data_GUQXIZ04
_symmetry_cell_setting           monoclinic
_symmetry_space_group_name_H-M   'C 2/c'
_symmetry_Int_Tables_number      15
_space_group_name_Hall           '-C 2yn'
loop_
_symmetry_equiv_pos_site_id
_symmetry_equiv_pos_as_xyz
1 x,y,z
2 -x,y,1/2-z
3 1/2+x,1/2+y,z
4 1/2-x,1/2+y,1/2-z
5 -x,-y,-z
6 x,-y,1/2+z
7 1/2-x,1/2-y,-z
8 1/2+x,1/2-y,1/2+z
_cell_length_a                   19.711(4)
_cell_length_b                   9.0994(18)
_cell_length_c                   13.343(3)
_cell_angle_alpha                90
_cell_angle_beta                 117.90(3)
_cell_angle_gamma                90
_cell_volume                     2115.01
loop_
_atom_site_label
_atom_site_type_symbol
_atom_site_fract_x
_atom_site_fract_y
_atom_site_fract_z
Cd1 Cd 0.312132(10) 0.403352(19) 0.193829(16)
O1 O 0.50873(11) 0.5218(2) 0.3858(2)
H1 H 0.4880 0.4413 0.3660
O2 O 0.39001(12) 0.60297(19) 0.2749(2)
O3 O 0.72023(12) 0.8911(2) 0.58836(19)
O4 O 0.68728(10) 1.1241(2) 0.57092(16)
O5 O 0.42495(10) 1.28708(19) 0.30710(17)
O6 O 0.33497(11) 1.1263(2) 0.21297(17)
O7 O 0.27963(12) 0.4071(2) 0.34440(17)
H2 H 0.2744 0.3193 0.3613
H3 H 0.2444 0.4697 0.3310
O8 O 0.34062(13) 0.3825(2) 0.04528(18)
H4 H 0.3325 0.2999 0.0119
H5 H 0.3295 0.4560 0.0010
C1 C 0.45769(15) 0.6252(3) 0.3387(2)
C2 C 0.48815(14) 0.7763(3) 0.3668(2)
C3 C 0.56489(13) 0.8078(3) 0.43934(19)
H6 H 0.5999 0.7317 0.4725
C4 C 0.58925(13) 0.9532(3) 0.46216(19)
C5 C 0.67089(14) 0.9894(3) 0.5448(2)
C6 C 0.53649(14) 1.0662(3) 0.4111(2)
H7 H 0.5525 1.1635 0.4267
C7 C 0.45996(13) 1.0347(3) 0.33683(19)
C8 C 0.40265(14) 1.1552(3) 0.2813(2)
C9 C 0.43634(14) 0.8900(3) 0.3158(2)
H8 H 0.3852 0.8685 0.2669
Cd1G Cd 0.812132(10) 1.096648(19) 0.693829(16)
Cd1_2 Cd 0.312132(10) 1.403352(19) 0.193829(16)
O3G O 0.22023(12) 0.6089(2) 0.08836(19)
O4G O 0.18728(10) 0.3759(2) 0.07092(16)
O5_2 O 0.42495(10) 0.28708(19) 0.30710(17)
O6_2 O 0.33497(11) 0.1263(2) 0.21297(17)
loop_
_geom_bond_atom_site_label_1
_geom_bond_atom_site_label_2
_geom_bond_site_symmetry_1
_geom_bond_site_symmetry_2
Cd1 O2 1_555 1_555
O1 H1 1_555 1_555
O2 C1 1_555 1_555
O3 C5 1_555 1_555
O4 C5 1_555 1_555
O5 C8 1_555 1_555
O6 C8 1_555 1_555
O7 Cd1 1_555 1_555
H2 O7 1_555 1_555
H3 O7 1_555 1_555
O8 Cd1 1_555 1_555
H4 O8 1_555 1_555
H5 O8 1_555 1_555
C1 O1 1_555 1_555
C2 C1 1_555 1_555
C3 C2 1_555 1_555
H6 C3 1_555 1_555
C4 C3 1_555 1_555
C5 C4 1_555 1_555
C6 C4 1_555 1_555
H7 C6 1_555 1_555
C7 C6 1_555 1_555
C8 C7 1_555 1_555
C9 C2 1_555 1_555
H8 C9 1_555 1_555
Cd1G O3 1_555 1_555
Cd1_2 O5 1_555 1_555
O3G Cd1 1_555 1_555
O4G Cd1 1_555 1_555
O5_2 Cd1 1_555 1_555
O6_2 Cd1 1_555 1_555
O4 Cd1G 1_555 1_555
O6 Cd1_2 1_555 1_555
C7 C9 1_555 1_555

#END
