
#######################################################################
#
#                 Cambridge Crystallographic Data Centre
#                                CCDC 
#
#######################################################################
#
# If this CIF has been generated from an entry in the Cambridge 
# Structural Database, then it will include bibliographic, chemical, 
# crystal, experimental, refinement or atomic coordinate data resulting 
# from the CCDC's data processing and validation procedures.
#
#######################################################################

data_GUQXAR
_symmetry_cell_setting           triclinic
_symmetry_space_group_name_H-M   'P -1'
_symmetry_Int_Tables_number      2
_space_group_name_Hall           '-P 1'
loop_
_symmetry_equiv_pos_site_id
_symmetry_equiv_pos_as_xyz
1 x,y,z
2 -x,-y,-z
_cell_length_a                   4.1043(7)
_cell_length_b                   7.4530(13)
_cell_length_c                   9.2875(16)
_cell_angle_alpha                87.777(3)
_cell_angle_beta                 78.619(3)
_cell_angle_gamma                87.281(3)
_cell_volume                     278.073
loop_
_atom_site_label
_atom_site_type_symbol
_atom_site_fract_x
_atom_site_fract_y
_atom_site_fract_z
Br1 Br -0.89441(9) 0.70378(5) 0.37413(4)
Cr1 Cr -1.5000 0.5000 0.5000
O1 O -1.5968(7) 0.6622(3) 0.6810(3)
C1 C -1.7257(10) 0.5980(5) 0.8298(4)
H1 H -1.6026 0.4886 0.8536
H2 H -1.9618 0.5724 0.8425
C2 C -1.7188(11) 0.9167(5) 0.8283(4)
H3 H -1.9546 0.9507 0.8342
H4 H -1.6052 1.0190 0.8558
C3 C -1.6763(10) 0.7515(5) 0.9266(4)
H5 H -1.4541 0.7433 0.9508
H6 H -1.8442 0.7528 1.0177
C4 C -1.5601(10) 0.8560(5) 0.6761(4)
H7 H -1.6734 0.9144 0.6022
H8 H -1.3247 0.8848 0.6524
Cr1_2 Cr -0.5000 0.5000 0.5000
Br1A Br -1.10559(9) 0.29622(5) 0.62587(4)
Br1_2 Br -1.89441(9) 0.70378(5) 0.37413(4)
Br1A_2 Br -2.10559(9) 0.29622(5) 0.62587(4)
O1A O -1.4032(7) 0.3378(3) 0.3190(3)
C1A C -1.2743(10) 0.4020(5) 0.1702(4)
H1A H -1.3974 0.5114 0.1464
H2A H -1.0382 0.4276 0.1575
C3A C -1.3237(10) 0.2485(5) 0.0734(4)
C2A C -1.2812(11) 0.0833(5) 0.1717(4)
H3A H -1.0454 0.0493 0.1658
H4A H -1.3948 -0.0190 0.1442
C4A C -1.4399(10) 0.1440(5) 0.3239(4)
H7A H -1.3266 0.0856 0.3978
H8A H -1.6753 0.1152 0.3476
H5A H -1.5459 0.2567 0.0492
H6A H -1.1558 0.2472 -0.0177
loop_
_geom_bond_atom_site_label_1
_geom_bond_atom_site_label_2
_geom_bond_site_symmetry_1
_geom_bond_site_symmetry_2
Br1 Cr1 1_555 1_555
Cr1 O1 1_555 1_555
O1 C1 1_555 1_555
C1 H1 1_555 1_555
H2 C1 1_555 1_555
C2 H3 1_555 1_555
H4 C2 1_555 1_555
C3 C1 1_555 1_555
H5 C3 1_555 1_555
H6 C3 1_555 1_555
C4 O1 1_555 1_555
H7 C4 1_555 1_555
H8 C4 1_555 1_555
Cr1_2 Br1 1_555 1_555
Br1A Cr1 1_555 1_555
Br1_2 Cr1 1_555 1_555
Br1A_2 Cr1 1_555 1_555
O1A Cr1 1_555 1_555
C1A O1A 1_555 1_555
H1A C1A 1_555 1_555
H2A C1A 1_555 1_555
C3A C1A 1_555 1_555
C2A C3A 1_555 1_555
H3A C2A 1_555 1_555
H4A C2A 1_555 1_555
C4A O1A 1_555 1_555
H7A C4A 1_555 1_555
H8A C4A 1_555 1_555
H5A C3A 1_555 1_555
H6A C3A 1_555 1_555
C2 C3 1_555 1_555
C2 C4 1_555 1_555
Cr1_2 Br1A 1_555 1_555
C2A C4A 1_555 1_555

#END
