
#######################################################################
#
#                 Cambridge Crystallographic Data Centre
#                                CCDC 
#
#######################################################################
#
# If this CIF has been generated from an entry in the Cambridge 
# Structural Database, then it will include bibliographic, chemical, 
# crystal, experimental, refinement or atomic coordinate data resulting 
# from the CCDC's data processing and validation procedures.
#
#######################################################################

data_GUQXIZ03
_symmetry_cell_setting           monoclinic
_symmetry_space_group_name_H-M   'C 2/c'
_symmetry_Int_Tables_number      15
_space_group_name_Hall           '-C 2yn'
loop_
_symmetry_equiv_pos_site_id
_symmetry_equiv_pos_as_xyz
1 x,y,z
2 1/2+x,1/2+y,z
3 -x,y,1/2-z
4 1/2-x,1/2+y,1/2-z
5 -x,-y,-z
6 1/2-x,1/2-y,-z
7 x,-y,1/2+z
8 1/2+x,1/2-y,1/2+z
_cell_length_a                   19.730(2)
_cell_length_b                   9.1074(7)
_cell_length_c                   13.3681(10)
_cell_angle_alpha                90
_cell_angle_beta                 117.897(8)
_cell_angle_gamma                90
_cell_volume                     2122.95
loop_
_atom_site_label
_atom_site_type_symbol
_atom_site_fract_x
_atom_site_fract_y
_atom_site_fract_z
Cd1 Cd 0.311990(13) -0.09669(3) 0.19369(2)
O1 O 0.2794(2) -0.0927(3) 0.3443(2)
O2 O 0.3411(2) -0.1163(3) 0.0452(2)
O3 O 0.22005(14) 0.1083(3) 0.0886(2)
O4 O 0.18750(13) -0.1243(3) 0.0708(2)
O5 O -0.07528(14) -0.2871(3) -0.1934(2)
O6 O -0.16497(13) -0.1269(3) -0.2870(2)
O7 O -0.11028(15) 0.3971(3) -0.2256(2)
O8 O 0.00828(14) 0.4785(3) -0.1143(3)
C1 C 0.0892(2) 0.0471(4) -0.0378(2)
C2 C 0.0362(2) -0.0662(4) -0.0894(3)
C3 C -0.0401(2) -0.0350(3) -0.1632(2)
C4 C -0.0635(2) 0.1101(4) -0.1844(3)
C5 C -0.0120(2) 0.2228(3) -0.1333(3)
C6 C 0.0649(2) 0.1925(4) -0.0606(3)
C7 C 0.1706(2) 0.0104(4) 0.0443(3)
C8 C -0.0975(2) -0.1556(4) -0.2187(3)
C9 C -0.0423(2) 0.3748(4) -0.1616(3)
H1 H 0.0506(19) -0.1607(39) -0.0759(26)
H2 H -0.1132(19) 0.1391(37) -0.2276(27)
H3 H 0.0992(18) 0.2676(39) -0.0280(26)
H4 H -0.0155(33) 0.5756(63) -0.1428(48)
H5 H 0.2743(33) -0.1839(68) 0.3661(47)
H6 H 0.2415(34) -0.0306(68) 0.3181(50)
H7 H 0.3267(34) -0.2066(67) 0.0061(48)
H8 H 0.3026(33) -0.0657(68) -0.0005(49)
Cd1G Cd -0.188010(13) -0.40331(3) -0.30631(2)
Cd1G_2 Cd -0.188010(13) 0.59669(3) -0.30631(2)
O5G O 0.42472(14) -0.2129(3) 0.3066(2)
O6G O 0.33503(13) -0.3731(3) 0.2130(2)
O7G O 0.38972(15) 0.1029(3) 0.2744(2)
loop_
_geom_bond_atom_site_label_1
_geom_bond_atom_site_label_2
_geom_bond_site_symmetry_1
_geom_bond_site_symmetry_2
Cd1 O1 1_555 1_555
O1 H5 1_555 1_555
O2 Cd1 1_555 1_555
O3 Cd1 1_555 1_555
O4 Cd1 1_555 1_555
O5 C8 1_555 1_555
O6 C8 1_555 1_555
O7 C9 1_555 1_555
O8 C9 1_555 1_555
C1 C2 1_555 1_555
C2 C3 1_555 1_555
C3 C4 1_555 1_555
C4 C5 1_555 1_555
C5 C6 1_555 1_555
C6 C1 1_555 1_555
C7 O3 1_555 1_555
C8 C3 1_555 1_555
C9 C5 1_555 1_555
H1 C2 1_555 1_555
H2 C4 1_555 1_555
H3 C6 1_555 1_555
H4 O8 1_555 1_555
H6 O1 1_555 1_555
H7 O2 1_555 1_555
H8 O2 1_555 1_555
Cd1G O5 1_555 1_555
Cd1G_2 O7 1_555 1_555
O5G Cd1 1_555 1_555
O6G Cd1 1_555 1_555
O7G Cd1 1_555 1_555
O4 C7 1_555 1_555
O6 Cd1G 1_555 1_555
C1 C7 1_555 1_555

#END
