
#######################################################################
#
#                 Cambridge Crystallographic Data Centre
#                                CCDC 
#
#######################################################################
#
# If this CIF has been generated from an entry in the Cambridge 
# Structural Database, then it will include bibliographic, chemical, 
# crystal, experimental, refinement or atomic coordinate data resulting 
# from the CCDC's data processing and validation procedures.
#
#######################################################################

data_GUQYAT
_symmetry_cell_setting           triclinic
_symmetry_space_group_name_H-M   'P -1'
_symmetry_Int_Tables_number      2
_space_group_name_Hall           '-P 1'
loop_
_symmetry_equiv_pos_site_id
_symmetry_equiv_pos_as_xyz
1 x,y,z
2 -x,-y,-z
_cell_length_a                   11.627(3)
_cell_length_b                   12.076(4)
_cell_length_c                   21.809(6)
_cell_angle_alpha                105.123(6)
_cell_angle_beta                 90.520(7)
_cell_angle_gamma                116.085(6)
_cell_volume                     2627.8
loop_
_atom_site_label
_atom_site_type_symbol
_atom_site_fract_x
_atom_site_fract_y
_atom_site_fract_z
Cu1 Cu 0.33099(8) 0.57295(8) 0.47298(4)
Cl1 Cl 0.40005(17) 0.46566(17) 0.39481(8)
Cl2 Cl 0.21316(17) 0.67636(17) 0.50369(8)
O1 O 0.5271(4) 0.8512(4) 0.3572(2)
O2 O 0.7987(4) 0.9430(5) 0.3478(2)
H1 H 0.728(6) 0.914(7) 0.353(4)
O3 O 0.9304(4) 1.2440(4) 0.36950(19)
O4 O 0.6358(4) 1.1200(5) 0.3504(2)
H2 H 0.700(6) 1.177(6) 0.365(4)
C1 C 0.4489(6) 1.0707(7) 0.2839(3)
C2 C 0.3808(7) 0.9465(6) 0.2994(3)
H3 H 0.2862 0.9140 0.2901
H4 H 0.4029 0.9614 0.3457
C3 C 0.4181(6) 0.8452(6) 0.2606(3)
C4 C 0.3934(6) 0.8029(7) 0.1946(3)
H5 H 0.3504 0.8367 0.1735
C5 C 0.4288(6) 0.7120(7) 0.1569(3)
C6 C 0.4939(6) 0.6659(7) 0.1899(3)
H6 H 0.5178 0.6033 0.1660
C7 C 0.5249(6) 0.7093(7) 0.2572(3)
C8 C 0.6101(6) 0.6696(6) 0.2896(3)
H7 H 0.5754 0.5747 0.2745
H8 H 0.6109 0.6959 0.3366
C9 C 0.7470(6) 0.7337(7) 0.2739(3)
C10 C 0.7884(6) 0.6625(7) 0.2275(3)
H9 H 0.7326 0.5729 0.2095
C11 C 0.9063(6) 0.7147(6) 0.2058(3)
C12 C 0.9859(7) 0.8468(7) 0.2338(3)
H10 H 1.0685 0.8858 0.2208
C13 C 0.9480(7) 0.9231(6) 0.2801(3)
C14 C 1.0276(6) 1.0690(7) 0.3022(3)
H11 H 1.1168 1.0930 0.2922
H12 H 1.0321 1.1015 0.3493
C15 C 0.9661(6) 1.1308(6) 0.2685(3)
C16 C 0.9484(6) 1.0982(6) 0.2025(3)
H13 H 0.9794 1.0414 0.1789
C17 C 0.8863(6) 1.1457(6) 0.1689(3)
C18 C 0.8430(6) 1.2284(6) 0.2049(3)
H14 H 0.8015 1.2628 0.1832
C19 C 0.8580(6) 1.2633(6) 0.2716(3)
C20 C 0.7917(6) 1.3422(6) 0.3072(3)
H15 H 0.8136 1.3633 0.3541
H16 H 0.8226 1.4241 0.2961
C21 C 0.6484(6) 1.2652(6) 0.2882(3)
C22 C 0.5802(6) 1.2893(6) 0.2448(3)
H17 H 0.6248 1.3648 0.2318
C23 C 0.4503(6) 1.2090(7) 0.2192(3)
C24 C 0.3877(6) 1.1004(6) 0.2405(3)
H18 H 0.2989 1.0442 0.2245
C25 C 0.4855(6) 0.7993(6) 0.2911(3)
C26 C 0.8285(6) 0.8659(7) 0.3007(3)
C27 C 0.9207(6) 1.2152(6) 0.3025(3)
C28 C 0.5796(7) 1.1566(7) 0.3090(3)
C29 C 0.4021(7) 0.6629(7) 0.0838(3)
C30 C 0.5250(8) 0.6714(9) 0.0565(4)
H19 H 0.5531 0.6159 0.0712
H20 H 0.5933 0.7609 0.0712
H21 H 0.5076 0.6429 0.0095
C31 C 0.2972(8) 0.5229(7) 0.0632(3)
H22 H 0.3264 0.4703 0.0799
H23 H 0.2798 0.4905 0.0162
H24 H 0.2179 0.5180 0.0802
C32 C 0.3568(8) 0.7438(8) 0.0557(3)
H25 H 0.2702 0.7281 0.0660
H26 H 0.3542 0.7192 0.0089
H27 H 0.4172 0.8355 0.0740
C33 C 0.9509(7) 0.6338(7) 0.1549(4)
C34 C 0.8383(7) 0.5036(7) 0.1181(4)
H28 H 0.7716 0.5179 0.0986
H29 H 0.8014 0.4526 0.1476
H30 H 0.8697 0.4571 0.0843
C35 C 1.0121(11) 0.7053(9) 0.1059(5)
H31 H 0.9489 0.7228 0.0855
H32 H 1.0385 0.6519 0.0730
H33 H 1.0880 0.7870 0.1277
C36 C 1.0512(8) 0.6093(8) 0.1894(5)
H34 H 1.1191 0.6916 0.2167
H35 H 1.0898 0.5680 0.1573
H36 H 1.0078 0.5527 0.2158
C37 C 0.8682(7) 1.1084(7) 0.0947(3)
C38 C 0.8838(8) 0.9874(8) 0.0650(4)
H37 H 0.9717 1.0036 0.0787
H38 H 0.8686 0.9650 0.0181
H39 H 0.8211 0.9159 0.0790
C39 C 0.7315(8) 1.0801(9) 0.0701(3)
H40 H 0.7208 1.1584 0.0857
H41 H 0.6680 1.0117 0.0858
H42 H 0.7179 1.0521 0.0231
C40 C 0.9680(9) 1.2193(9) 0.0741(4)
H43 H 0.9601 1.2979 0.0940
H44 H 0.9535 1.1989 0.0273
H45 H 1.0549 1.2328 0.0878
C41 C 0.3774(6) 1.2363(7) 0.1706(3)
C42 C 0.2732(7) 1.1101(7) 0.1243(3)
H46 H 0.3137 1.0582 0.1017
H47 H 0.2299 1.1300 0.0931
H48 H 0.2095 1.0617 0.1487
C43 C 0.3124(7) 1.3167(7) 0.2076(3)
H49 H 0.3793 1.4009 0.2339
H50 H 0.2565 1.2708 0.2353
H51 H 0.2604 1.3290 0.1768
C44 C 0.4694(7) 1.3132(7) 0.1305(4)
H52 H 0.5144 1.2657 0.1084
H53 H 0.5328 1.3973 0.1586
H54 H 0.4198 1.3259 0.0988
N1 N 0.4954(5) 0.7389(5) 0.4938(2)
C45 C 0.5290(6) 0.8248(6) 0.4607(3)
C46 C 0.6352(7) 0.9443(7) 0.4817(3)
H55 H 0.6552 1.0036 0.4574
C47 C 0.7128(6) 0.9773(7) 0.5389(3)
H56 H 0.7850 1.0602 0.5549
C48 C 0.6831(7) 0.8885(7) 0.5713(3)
H57 H 0.7380 0.9067 0.6089
C49 C 0.5728(7) 0.7717(7) 0.5493(3)
H58 H 0.5503 0.7125 0.5738
C50 C 0.4454(7) 0.7819(7) 0.3966(3)
H59 H 0.4111 0.6878 0.3766
H60 H 0.3717 0.8019 0.4027
N2 N 1.2087(6) 1.4142(6) 0.4942(3)
C51 C 1.0935(6) 1.3235(6) 0.4608(3)
C52 C 1.0217(6) 1.2122(7) 0.4778(4)
H61 H 0.9418 1.1484 0.4523
C53 C 1.0651(7) 1.1932(7) 0.5313(4)
H62 H 1.0164 1.1174 0.5435
C54 C 1.1810(7) 1.2876(7) 0.5663(4)
H63 H 1.2131 1.2783 0.6038
C55 C 1.2505(7) 1.3946(7) 0.5478(3)
H64 H 1.3310 1.4582 0.5728
C56 C 1.0507(7) 1.3494(7) 0.4033(3)
H65 H 1.0409 1.4292 0.4173
H66 H 1.1175 1.3626 0.3743
Cu1_2 Cu 1.33099(8) 1.57295(8) 0.47298(4)
N2_2 N 0.2087(6) 0.4142(6) 0.4942(3)
loop_
_geom_bond_atom_site_label_1
_geom_bond_atom_site_label_2
_geom_bond_site_symmetry_1
_geom_bond_site_symmetry_2
Cu1 Cl1 1_555 1_555
Cl2 Cu1 1_555 1_555
O1 C25 1_555 1_555
O2 H1 1_555 1_555
O3 C27 1_555 1_555
O4 H2 1_555 1_555
C1 C2 1_555 1_555
C2 H3 1_555 1_555
H4 C2 1_555 1_555
C3 C2 1_555 1_555
C4 C3 1_555 1_555
H5 C4 1_555 1_555
C5 C4 1_555 1_555
C6 C5 1_555 1_555
H6 C6 1_555 1_555
C7 C6 1_555 1_555
C8 C7 1_555 1_555
H7 C8 1_555 1_555
H8 C8 1_555 1_555
C9 C8 1_555 1_555
C10 C9 1_555 1_555
H9 C10 1_555 1_555
C11 C10 1_555 1_555
C12 C11 1_555 1_555
H10 C12 1_555 1_555
C13 C12 1_555 1_555
C14 C13 1_555 1_555
H11 C14 1_555 1_555
H12 C14 1_555 1_555
C15 C14 1_555 1_555
C16 C15 1_555 1_555
H13 C16 1_555 1_555
C17 C16 1_555 1_555
C18 C17 1_555 1_555
H14 C18 1_555 1_555
C19 C18 1_555 1_555
C20 C19 1_555 1_555
H15 C20 1_555 1_555
H16 C20 1_555 1_555
C21 C20 1_555 1_555
C22 C21 1_555 1_555
H17 C22 1_555 1_555
C23 C22 1_555 1_555
C24 C1 1_555 1_555
H18 C24 1_555 1_555
C25 C3 1_555 1_555
C26 O2 1_555 1_555
C27 C15 1_555 1_555
C28 O4 1_555 1_555
C29 C5 1_555 1_555
C30 C29 1_555 1_555
H19 C30 1_555 1_555
H20 C30 1_555 1_555
H21 C30 1_555 1_555
C31 C29 1_555 1_555
H22 C31 1_555 1_555
H23 C31 1_555 1_555
H24 C31 1_555 1_555
C32 C29 1_555 1_555
H25 C32 1_555 1_555
H26 C32 1_555 1_555
H27 C32 1_555 1_555
C33 C11 1_555 1_555
C34 C33 1_555 1_555
H28 C34 1_555 1_555
H29 C34 1_555 1_555
H30 C34 1_555 1_555
C35 C33 1_555 1_555
H31 C35 1_555 1_555
H32 C35 1_555 1_555
H33 C35 1_555 1_555
C36 C33 1_555 1_555
H34 C36 1_555 1_555
H35 C36 1_555 1_555
H36 C36 1_555 1_555
C37 C17 1_555 1_555
C38 C37 1_555 1_555
H37 C38 1_555 1_555
H38 C38 1_555 1_555
H39 C38 1_555 1_555
C39 C37 1_555 1_555
H40 C39 1_555 1_555
H41 C39 1_555 1_555
H42 C39 1_555 1_555
C40 C37 1_555 1_555
H43 C40 1_555 1_555
H44 C40 1_555 1_555
H45 C40 1_555 1_555
C41 C23 1_555 1_555
C42 C41 1_555 1_555
H46 C42 1_555 1_555
H47 C42 1_555 1_555
H48 C42 1_555 1_555
C43 C41 1_555 1_555
H49 C43 1_555 1_555
H50 C43 1_555 1_555
H51 C43 1_555 1_555
C44 C41 1_555 1_555
H52 C44 1_555 1_555
H53 C44 1_555 1_555
H54 C44 1_555 1_555
N1 Cu1 1_555 1_555
C45 N1 1_555 1_555
C46 C45 1_555 1_555
H55 C46 1_555 1_555
C47 C46 1_555 1_555
H56 C47 1_555 1_555
C48 C47 1_555 1_555
H57 C48 1_555 1_555
C49 N1 1_555 1_555
H58 C49 1_555 1_555
C50 O1 1_555 1_555
H59 C50 1_555 1_555
H60 C50 1_555 1_555
N2 C51 1_555 1_555
C51 C52 1_555 1_555
C52 H61 1_555 1_555
C53 C52 1_555 1_555
H62 C53 1_555 1_555
C54 C53 1_555 1_555
H63 C54 1_555 1_555
C55 N2 1_555 1_555
H64 C55 1_555 1_555
C56 O3 1_555 1_555
H65 C56 1_555 1_555
H66 C56 1_555 1_555
Cu1_2 N2 1_555 1_555
N2_2 Cu1 1_555 1_555
C1 C28 1_555 1_555
C7 C25 1_555 1_555
C9 C26 1_555 1_555
C13 C26 1_555 1_555
C19 C27 1_555 1_555
C21 C28 1_555 1_555
C23 C24 1_555 1_555
C45 C50 1_555 1_555
C48 C49 1_555 1_555
C51 C56 1_555 1_555
C54 C55 1_555 1_555

#END
