
#######################################################################
#
#                 Cambridge Crystallographic Data Centre
#                                CCDC 
#
#######################################################################
#
# If this CIF has been generated from an entry in the Cambridge 
# Structural Database, then it will include bibliographic, chemical, 
# crystal, experimental, refinement or atomic coordinate data resulting 
# from the CCDC's data processing and validation procedures.
#
#######################################################################

data_GURCUS
_symmetry_cell_setting           monoclinic
_symmetry_space_group_name_H-M   'P 21'
_symmetry_Int_Tables_number      4
_space_group_name_Hall           'P 2yb'
loop_
_symmetry_equiv_pos_site_id
_symmetry_equiv_pos_as_xyz
1 x,y,z
2 -x,1/2+y,-z
_cell_length_a                   10.286(2)
_cell_length_b                   4.9537(10)
_cell_length_c                   16.494(3)
_cell_angle_alpha                90
_cell_angle_beta                 91.21(3)
_cell_angle_gamma                90
_cell_volume                     840.244
loop_
_atom_site_label
_atom_site_type_symbol
_atom_site_fract_x
_atom_site_fract_y
_atom_site_fract_z
C1 C 0.0626(4) -0.0062(8) 0.7289(2)
C2 C 0.1610(4) 0.1661(8) 0.7591(2)
C3 C 0.2043(5) 0.1486(9) 0.8442(2)
C4 C 0.3001(5) 0.3113(11) 0.8792(2)
H1 H 0.3416 0.4395 0.8477
C5 C 0.3345(7) 0.2851(19) 0.9602(3)
H2 H 0.3989 0.3968 0.9821
C6 C 0.2771(10) 0.1010(17) 1.0088(4)
H3 H 0.3029 0.0861 1.0630
C7 C 0.1821(8) -0.0607(15) 0.9781(3)
H4 H 0.1411 -0.1830 1.0118
C8 C 0.1441(6) -0.0457(11) 0.8939(3)
C9 C 0.0485(6) -0.2136(14) 0.8612(3)
H5 H 0.0099 -0.3402 0.8947
C10 C 0.0091(5) -0.1999(10) 0.7816(3)
H6 H -0.0537 -0.3194 0.7619
C11 C 0.2207(4) 0.3604(8) 0.7095(2)
H7 H 0.2887 0.4599 0.7326
C12 C 0.2631(4) 0.6171(7) 0.5905(2)
H8 H 0.2868 0.7649 0.6274
C13 C 0.3851(4) 0.4954(10) 0.5565(3)
H9 H 0.4438 0.4480 0.6003
H10 H 0.4260 0.6242 0.5219
H11 H 0.3630 0.3365 0.5259
C14 C 0.1759(3) 0.7256(9) 0.5219(2)
Cu1 Cu 0.05001(3) 0.25522(10) 0.57302(2)
N1 N 0.1892(3) 0.4122(6) 0.63461(17)
O1 O 0.0154(3) -0.0017(6) 0.65415(15)
O2 O 0.0758(2) 0.5764(4) 0.50205(14)
O3 O 0.2008(3) 0.9377(5) 0.48807(17)
Cu1A Cu -0.05001(3) 0.75522(10) 0.42698(2)
Cu1_2 Cu 0.05001(3) 1.25522(10) 0.57302(2)
O2A O -0.0758(2) 0.0764(4) 0.49795(14)
O3_2 O 0.2008(3) -0.0623(5) 0.48807(17)
C15 C 0.5433(8) 0.889(2) 0.7813(5)
H12 H 0.5265 0.9203 0.8357
C16 C 0.6712(9) 0.978(3) 0.6671(5)
H13 H 0.7167 0.8094 0.6632
H14 H 0.7253 1.1210 0.6477
H15 H 0.5926 0.9700 0.6348
C17 C 0.7125(9) 1.216(2) 0.7946(8)
H16 H 0.7078 1.3899 0.7692
H17 H 0.8017 1.1593 0.7989
H18 H 0.6766 1.2263 0.8477
N2 N 0.6409(5) 1.0267(11) 0.7474(3)
O4 O 0.4777(5) 0.7291(19) 0.7459(3)
loop_
_geom_bond_atom_site_label_1
_geom_bond_atom_site_label_2
_geom_bond_site_symmetry_1
_geom_bond_site_symmetry_2
C1 C2 1_555 1_555
C2 C3 1_555 1_555
C3 C4 1_555 1_555
C4 H1 1_555 1_555
C5 C4 1_555 1_555
H2 C5 1_555 1_555
C6 C5 1_555 1_555
H3 C6 1_555 1_555
C7 C6 1_555 1_555
H4 C7 1_555 1_555
C8 C3 1_555 1_555
C9 C8 1_555 1_555
H5 C9 1_555 1_555
C10 C1 1_555 1_555
H6 C10 1_555 1_555
C11 C2 1_555 1_555
H7 C11 1_555 1_555
C12 H8 1_555 1_555
C13 C12 1_555 1_555
H9 C13 1_555 1_555
H10 C13 1_555 1_555
H11 C13 1_555 1_555
C14 C12 1_555 1_555
C15 H12 1_555 1_555
C16 H13 1_555 1_555
H14 C16 1_555 1_555
H15 C16 1_555 1_555
C17 H16 1_555 1_555
H17 C17 1_555 1_555
H18 C17 1_555 1_555
Cu1 N1 1_555 1_555
N1 C11 1_555 1_555
N2 C15 1_555 1_555
O1 C1 1_555 1_555
O2 C14 1_555 1_555
O3 C14 1_555 1_555
O4 C15 1_555 1_555
Cu1A O2 1_555 1_555
Cu1_2 O3 1_555 1_555
O2A Cu1 1_555 1_555
O3_2 Cu1 1_555 1_555
C7 C8 1_555 1_555
C9 C10 1_555 1_555
C12 N1 1_555 1_555
C16 N2 1_555 1_555
C17 N2 1_555 1_555
Cu1 O1 1_555 1_555
Cu1 O2 1_555 1_555

#END
