
#######################################################################
#
#                 Cambridge Crystallographic Data Centre
#                                CCDC 
#
#######################################################################
#
# If this CIF has been generated from an entry in the Cambridge 
# Structural Database, then it will include bibliographic, chemical, 
# crystal, experimental, refinement or atomic coordinate data resulting 
# from the CCDC's data processing and validation procedures.
#
#######################################################################

data_GURFIJ
_symmetry_cell_setting           orthorhombic
_symmetry_space_group_name_H-M   'P 21 21 21'
_symmetry_Int_Tables_number      19
_space_group_name_Hall           'P 2ac 2ab'
loop_
_symmetry_equiv_pos_site_id
_symmetry_equiv_pos_as_xyz
1 x,y,z
2 1/2-x,-y,1/2+z
3 -x,1/2+y,1/2-z
4 1/2+x,1/2-y,-z
_cell_length_a                   14.1902(6)
_cell_length_b                   15.4569(7)
_cell_length_c                   18.2838(8)
_cell_angle_alpha                90
_cell_angle_beta                 90
_cell_angle_gamma                90
_cell_volume                     4010.3
loop_
_atom_site_label
_atom_site_type_symbol
_atom_site_fract_x
_atom_site_fract_y
_atom_site_fract_z
Mn1 Mn 0.94383(3) 0.75387(3) 0.74611(2)
S1 S 0.98795(8) 0.72943(8) 0.48317(5)
S2 S 1.00494(9) 0.78091(9) 1.00735(6)
O1 O 0.94492(15) 0.89397(14) 0.75597(14)
H1 H 0.9712 0.9118 0.7949
H2 H 0.9130 0.9234 0.7332
O2 O 0.94184(15) 0.61342(13) 0.74095(13)
H3 H 0.9184 0.5884 0.7681
H4 H 0.9708 0.5914 0.7069
N1 N 0.77524(16) 0.75426(15) 0.74961(12)
N2 N 0.10884(16) 0.75201(17) 0.74011(13)
N3 N 0.93816(19) 0.7580(2) 0.62753(14)
N4 N 0.94901(18) 0.7490(2) 0.86498(14)
C1 C 0.7217(2) 0.7721(3) 0.6924(2)
H5 H 0.7509 0.7811 0.6475
C2 C 0.6243(3) 0.7780(3) 0.6957(2)
H6 H 0.5901 0.7921 0.6540
C3 C 0.5780(2) 0.7628(3) 0.7614(2)
C4 C 0.6330(2) 0.7412(3) 0.8185(2)
H7 H 0.6056 0.7279 0.8633
C5 C 0.7291(2) 0.7389(3) 0.81120(19)
H8 H 0.7645 0.7255 0.8525
C6 C 0.4701(3) 0.7788(3) 0.7721(3)
H9 H 0.4452 0.8150 0.8079
C7 C 0.4135(3) 0.7314(3) 0.7205(3)
H10 H 0.4398 0.6970 0.6841
C8 C 0.1529(2) 0.6929(3) 0.7001(2)
H11 H 0.1162 0.6535 0.6744
C9 C 0.2488(2) 0.6861(3) 0.6942(2)
H12 H 0.2751 0.6428 0.6654
C10 C 0.3053(2) 0.7420(3) 0.73017(19)
C11 C 0.2614(2) 0.8048(3) 0.7725(2)
H13 H 0.2973 0.8447 0.7985
C12 C 0.1625(2) 0.8077(2) 0.7756(2)
H14 H 0.1339 0.8504 0.8038
C13 C 0.95820(19) 0.7453(2) 0.56777(16)
C14 C 0.9720(2) 0.7625(2) 0.92402(17)
Mn1_2 Mn -0.05617(3) 0.75387(3) 0.74611(2)
N2_2 N 1.10884(16) 0.75201(17) 0.74011(13)
N5 N 0.8426(2) 1.0181(3) 0.9416(2)
N6 N 0.1898(2) 0.9814(3) 0.9210(2)
C15 C 0.7925(3) 0.9596(3) 0.9070(3)
H15 H 0.8243 0.9184 0.8793
C16 C 0.6955(3) 0.9555(4) 0.9092(3)
H16 H 0.6633 0.9124 0.8840
C17 C 0.6468(3) 1.0170(3) 0.9499(3)
C18 C 0.6990(3) 1.0768(3) 0.9858(2)
H17 H 0.6697 1.1191 1.0139
C19 C 0.7958(3) 1.0747(3) 0.9803(2)
H18 H 0.8300 1.1163 1.0057
C20 C 0.5408(3) 1.0159(4) 0.9558(4)
H19 H 0.5097 1.0477 0.9916
C21 C 0.4926(3) 0.9673(5) 0.9075(5)
H20 H 0.5222 0.9327 0.8729
C22 C 0.2386(3) 1.0380(4) 0.8829(3)
H21 H 0.2060 1.0812 0.8581
C23 C 0.3364(3) 1.0366(4) 0.8778(3)
H22 H 0.3682 1.0779 0.8503
C24 C 0.3849(3) 0.9734(4) 0.9142(3)
C25 C 0.3342(3) 0.9162(3) 0.9547(3)
H23 H 0.3648 0.8731 0.9812
C26 C 0.2365(3) 0.9223(4) 0.9564(3)
H24 H 0.2031 0.8824 0.9842
N7 N 0.8513(2) 0.4998(2) 0.83521(19)
N8 N 0.5563(3) 0.5027(3) 0.8188(2)
N9 N 0.4587(3) 0.5017(3) 0.8164(2)
N10 N 0.1610(2) 0.5117(2) 0.8232(2)
C27 C 0.8885(3) 0.4390(3) 0.8777(2)
H25 H 0.9537 0.4327 0.8781
C28 C 0.8358(3) 0.3853(3) 0.9209(2)
H26 H 0.8646 0.3439 0.9504
C29 C 0.7391(3) 0.3938(3) 0.9198(2)
H27 H 0.7018 0.3588 0.9494
C30 C 0.6983(3) 0.4540(2) 0.8751(2)
C31 C 0.7580(3) 0.5057(3) 0.8344(2)
H28 H 0.7310 0.5474 0.8044
C32 C 0.5950(3) 0.4613(3) 0.8690(3)
H29 H 0.5575 0.4342 0.9038
C33 C 0.4185(3) 0.5504(3) 0.8601(3)
H30 H 0.4546 0.5826 0.8927
C34 C 0.1249(3) 0.5754(3) 0.8627(3)
H31 H 0.0599 0.5828 0.8624
C35 C 0.1777(3) 0.6306(3) 0.9036(3)
H32 H 0.1490 0.6735 0.9314
C36 C 0.2744(3) 0.6219(3) 0.9033(2)
H33 H 0.3119 0.6588 0.9309
C37 C 0.3140(3) 0.5587(2) 0.8620(2)
C38 C 0.2549(3) 0.5047(3) 0.8229(2)
H34 H 0.2819 0.4611 0.7949
O3 O 0.00971(13) 1.00060(14) 0.86792(14)
H35 H -0.0276 1.0034 0.8985
H36 H 0.0540 0.9904 0.8853
loop_
_geom_bond_atom_site_label_1
_geom_bond_atom_site_label_2
_geom_bond_site_symmetry_1
_geom_bond_site_symmetry_2
Mn1 O1 1_555 1_555
S1 C13 1_555 1_555
S2 C14 1_555 1_555
O1 H1 1_555 1_555
H2 O1 1_555 1_555
O2 Mn1 1_555 1_555
H3 O2 1_555 1_555
H4 O2 1_555 1_555
N1 Mn1 1_555 1_555
N2 C8 1_555 1_555
N3 Mn1 1_555 1_555
N4 Mn1 1_555 1_555
C1 N1 1_555 1_555
H5 C1 1_555 1_555
C2 C1 1_555 1_555
H6 C2 1_555 1_555
C3 C2 1_555 1_555
C4 C3 1_555 1_555
H7 C4 1_555 1_555
C5 N1 1_555 1_555
H8 C5 1_555 1_555
C6 C3 1_555 1_555
H9 C6 1_555 1_555
C7 C6 1_555 1_555
H10 C7 1_555 1_555
C8 H11 1_555 1_555
C9 C8 1_555 1_555
H12 C9 1_555 1_555
C10 C7 1_555 1_555
C11 C10 1_555 1_555
H13 C11 1_555 1_555
C12 N2 1_555 1_555
H14 C12 1_555 1_555
C13 N3 1_555 1_555
C14 N4 1_555 1_555
N5 C15 1_555 1_555
N6 C22 1_555 1_555
C15 H15 1_555 1_555
C16 C15 1_555 1_555
H16 C16 1_555 1_555
C17 C16 1_555 1_555
C18 C17 1_555 1_555
H17 C18 1_555 1_555
C19 N5 1_555 1_555
H18 C19 1_555 1_555
C20 C17 1_555 1_555
H19 C20 1_555 1_555
C21 C20 1_555 1_555
H20 C21 1_555 1_555
C22 H21 1_555 1_555
C23 C22 1_555 1_555
H22 C23 1_555 1_555
C24 C21 1_555 1_555
C25 C24 1_555 1_555
H23 C25 1_555 1_555
C26 N6 1_555 1_555
H24 C26 1_555 1_555
N7 C27 1_555 1_555
N8 N9 1_555 1_555
N9 C33 1_555 1_555
N10 C34 1_555 1_555
C27 H25 1_555 1_555
C28 C27 1_555 1_555
H26 C28 1_555 1_555
C29 C28 1_555 1_555
H27 C29 1_555 1_555
C30 C29 1_555 1_555
C31 N7 1_555 1_555
H28 C31 1_555 1_555
C32 N8 1_555 1_555
H29 C32 1_555 1_555
C33 H30 1_555 1_555
C34 H31 1_555 1_555
C35 C34 1_555 1_555
H32 C35 1_555 1_555
C36 C35 1_555 1_555
H33 C36 1_555 1_555
C37 C33 1_555 1_555
C38 N10 1_555 1_555
H34 C38 1_555 1_555
O3 H35 1_555 1_555
H36 O3 1_555 1_555
Mn1_2 N2 1_555 1_555
N2_2 Mn1 1_555 1_555
C4 C5 1_555 1_555
C9 C10 1_555 1_555
C11 C12 1_555 1_555
C18 C19 1_555 1_555
C23 C24 1_555 1_555
C25 C26 1_555 1_555
C30 C31 1_555 1_555
C30 C32 1_555 1_555
C36 C37 1_555 1_555
C37 C38 1_555 1_555

#END
