
#######################################################################
#
#                 Cambridge Crystallographic Data Centre
#                                CCDC 
#
#######################################################################
#
# If this CIF has been generated from an entry in the Cambridge 
# Structural Database, then it will include bibliographic, chemical, 
# crystal, experimental, refinement or atomic coordinate data resulting 
# from the CCDC's data processing and validation procedures.
#
#######################################################################

data_GURLUB
_symmetry_cell_setting           orthorhombic
_symmetry_space_group_name_H-M   'C c c a'
_symmetry_Int_Tables_number      68
_space_group_name_Hall           '-C 2b 2bc'
loop_
_symmetry_equiv_pos_site_id
_symmetry_equiv_pos_as_xyz
1 x,y,z
2 1/2-x,-y,z
3 1/2+x,-y,1/2-z
4 -x,y,1/2-z
5 1/2+x,1/2+y,z
6 -x,1/2-y,z
7 x,1/2-y,1/2-z
8 1/2-x,1/2+y,1/2-z
9 -x,-y,-z
10 1/2+x,y,-z
11 1/2-x,y,1/2+z
12 x,-y,1/2+z
13 1/2-x,1/2-y,-z
14 x,1/2+y,-z
15 -x,1/2+y,1/2+z
16 1/2+x,1/2-y,1/2+z
_cell_length_a                   13.148(3)
_cell_length_b                   14.384(3)
_cell_length_c                   20.206(4)
_cell_angle_alpha                90
_cell_angle_beta                 90
_cell_angle_gamma                90
_cell_volume                     3821.38
loop_
_atom_site_label
_atom_site_type_symbol
_atom_site_fract_x
_atom_site_fract_y
_atom_site_fract_z
Zn1 Zn 0.7500 0.5000 0.93167(5)
Zn2 Zn 0.5000 0.7500 0.88728(5)
O1 O 0.6200(3) 0.5887(3) 0.90584(19)
O2 O 0.5622(3) 0.6705(3) 0.81967(19)
C1 C 0.6151(5) 0.6087(4) 0.8452(3)
C2 C 0.6839(4) 0.5534(4) 0.7992(3)
C3 C 0.6815(4) 0.5560(4) 0.7310(3)
H1 H 0.6358 0.5939 0.7085
C4 C 0.7500 0.5000 0.6971(4)
H2 H 0.7500 0.5000 0.6510
N1 N 0.7500 0.5000 0.8323(3)
N2 N 0.8121(4) 0.5959(3) 0.9903(2)
N3 N 0.7471(4) 0.6318(3) 1.0367(2)
N4 N 0.7969(4) 0.6839(3) 1.0769(2)
N5 N 0.8975(3) 0.6842(3) 1.0587(2)
C5 C 0.9034(4) 0.6314(4) 1.0058(3)
N6 N 0.9888(4) 0.6139(3) 0.9713(2)
H3 H 1.0456 0.6382 0.9836
H4 H 0.9867 0.5785 0.9371
Zn2I Zn 1.0000 0.7500 1.11272(5)
Zn2A Zn 1.0000 0.2500 0.88728(5)
Zn2H Zn 0.5000 0.2500 1.11272(5)
O1A O 0.8800(3) 0.4113(3) 0.90584(19)
O2A O 0.9378(3) 0.3295(3) 0.81967(19)
O2E O 0.4378(3) 0.8295(3) 0.81967(19)
C1A C 0.8849(5) 0.3913(4) 0.8452(3)
C2A C 0.8161(4) 0.4466(4) 0.7992(3)
C3A C 0.8185(4) 0.4440(4) 0.7310(3)
H1A H 0.8642 0.4061 0.7085
N2A N 0.6879(4) 0.4041(3) 0.9903(2)
N3A N 0.7529(4) 0.3682(3) 1.0367(2)
N4A N 0.7031(4) 0.3161(3) 1.0769(2)
N5A N 0.6025(3) 0.3158(3) 1.0587(2)
N5L N 0.6025(3) 0.8158(3) 0.9413(2)
N5I N 0.3975(3) 0.6842(3) 0.9413(2)
C5A C 0.5966(4) 0.3686(4) 1.0058(3)
N6A N 0.5112(4) 0.3861(3) 0.9713(2)
H3A H 0.4544 0.3618 0.9836
H4A H 0.5133 0.4215 0.9371
O3 O 0.5055(4) 0.3871(3) 0.8207(2)
O4 O 0.8412(3) 0.7502(3) 0.8205(2)
loop_
_geom_bond_atom_site_label_1
_geom_bond_atom_site_label_2
_geom_bond_site_symmetry_1
_geom_bond_site_symmetry_2
Zn1 O1 1_555 1_555
Zn2 O2 1_555 1_555
O1 C1 1_555 1_555
O2 C1 1_555 1_555
C1 C2 1_555 1_555
C2 C3 1_555 1_555
C3 H1 1_555 1_555
C4 C3 1_555 1_555
H2 C4 1_555 1_555
N1 Zn1 1_555 1_555
N2 Zn1 1_555 1_555
N3 N2 1_555 1_555
N4 N3 1_555 1_555
N5 N4 1_555 1_555
C5 N2 1_555 1_555
N6 C5 1_555 1_555
H3 N6 1_555 1_555
H4 N6 1_555 1_555
Zn2I N5 1_555 1_555
Zn2A O2A 1_555 1_555
Zn2H N5A 1_555 1_555
O1A Zn1 1_555 1_555
O2A C1A 1_555 1_555
O2E Zn2 1_555 1_555
C1A O1A 1_555 1_555
C2A N1 1_555 1_555
C3A C4 1_555 1_555
H1A C3A 1_555 1_555
N2A Zn1 1_555 1_555
N3A N2A 1_555 1_555
N4A N3A 1_555 1_555
N5A N4A 1_555 1_555
N5L Zn2 1_555 1_555
N5I Zn2 1_555 1_555
C5A N2A 1_555 1_555
N6A C5A 1_555 1_555
H3A N6A 1_555 1_555
H4A N6A 1_555 1_555
C2 N1 1_555 1_555
N5 C5 1_555 1_555
C1A C2A 1_555 1_555
C2A C3A 1_555 1_555
N5A C5A 1_555 1_555

#END
