
#######################################################################
#
#                 Cambridge Crystallographic Data Centre
#                                CCDC 
#
#######################################################################
#
# If this CIF has been generated from an entry in the Cambridge 
# Structural Database, then it will include bibliographic, chemical, 
# crystal, experimental, refinement or atomic coordinate data resulting 
# from the CCDC's data processing and validation procedures.
#
#######################################################################

data_GURMOX
_symmetry_cell_setting           triclinic
_symmetry_space_group_name_H-M   'P -1'
_symmetry_Int_Tables_number      2
_space_group_name_Hall           '-P 1'
loop_
_symmetry_equiv_pos_site_id
_symmetry_equiv_pos_as_xyz
1 x,y,z
2 -x,-y,-z
_cell_length_a                   13.780(3)
_cell_length_b                   16.661(3)
_cell_length_c                   19.202(4)
_cell_angle_alpha                104.86(3)
_cell_angle_beta                 106.47(3)
_cell_angle_gamma                104.87(3)
_cell_volume                     3819.64
loop_
_atom_site_label
_atom_site_type_symbol
_atom_site_fract_x
_atom_site_fract_y
_atom_site_fract_z
Cu1 Cu 0.93981(5) 0.03761(5) 0.03089(5)
Cu2 Cu 1.95975(7) 0.41106(5) -0.02849(5)
Cu3 Cu -0.03580(6) -0.04011(6) -0.57684(4)
O1 O 0.8591(3) 0.0281(3) -0.0758(3)
O2 O 2.0337(4) 0.4298(4) 0.0842(4)
O3 O 1.8341(4) 0.4298(3) -0.0050(3)
O4 O 1.0477(3) 0.1526(3) 0.0489(3)
O5 O 0.1071(4) -0.0543(3) -0.5530(3)
C1 C 0.8815(5) -0.0085(5) -0.1302(5)
C2 C 1.8336(6) 0.5060(5) 0.0307(4)
C3 C 0.1786(5) -0.0286(5) -0.4825(4)
O6 O 1.4992(4) 0.2621(4) 0.0093(4)
C4 C 0.6340(5) -0.0336(5) -0.2986(4)
C5 C 1.1302(5) 0.1551(5) 0.0321(4)
O7 O 0.5078(4) 0.0126(4) -0.2533(3)
C6 C 1.3889(5) 0.3275(5) 0.0598(4)
C7 C 0.7560(6) -0.0857(6) -0.3551(5)
H1 H 0.7735 -0.1086 -0.3987
C8 C 0.4482(5) -0.0433(5) -0.3910(4)
C9 C 0.2785(6) -0.0498(5) -0.4739(4)
C10 C 1.5678(5) 0.4195(4) 0.0563(4)
C11 C 1.6585(5) 0.4225(4) 0.0368(4)
H2 H 1.6678 0.3684 0.0144
C12 C 2.0821(7) 0.5062(6) 0.1404(5)
C13 C 1.3109(5) 0.2488(5) 0.0418(4)
H3 H 1.3224 0.1951 0.0217
C14 C 0.3533(5) -0.0264(5) -0.4006(4)
H4 H 0.3397 0.0016 -0.3565
C15 C 1.2139(4) 0.2450(4) 0.0522(4)
C16 C 1.2029(5) 0.3236(5) 0.0908(4)
H5 H 1.1402 0.3210 0.1030
C17 C 0.3924(7) -0.1108(6) -0.5295(4)
H6 H 0.4039 -0.1411 -0.5738
C18 C 0.6545(6) -0.0741(5) -0.3656(5)
C19 C 0.7087(5) -0.0116(4) -0.2261(4)
H7 H 0.6938 0.0140 -0.1819
C20 C 1.3785(5) 0.4087(5) 0.0965(4)
C21 C 2.1196(6) 0.4942(5) 0.2158(5)
C22 C 0.4735(6) -0.0839(5) -0.4542(4)
C23 C 2.1967(6) 0.4940(5) 0.3719(5)
C24 C 1.5571(6) 0.4985(5) 0.0938(5)
C25 C 1.7354(5) 0.5023(4) 0.0492(4)
C26 C 0.2964(6) -0.0935(5) -0.5395(4)
H8 H 0.2437 -0.1112 -0.5901
O8 O 1.4513(5) 0.5687(4) 0.1495(5)
C27 C 2.0928(6) 0.4189(5) 0.2301(4)
H9 H 2.0476 0.3658 0.1871
O9 O 0.5922(4) -0.1390(4) -0.5036(3)
C28 C 0.8314(6) -0.0621(6) -0.2778(5)
H10 H 0.8981 -0.0717 -0.2701
C29 C 2.1912(8) 0.5771(7) 0.2805(7)
H11 H 2.2138 0.6310 0.2715
C30 C 1.6349(6) 0.5808(5) 0.1089(5)
H12 H 1.6275 0.6347 0.1342
C31 C 0.5745(6) -0.1026(6) -0.4463(5)
C32 C 0.8082(5) -0.0261(5) -0.2151(4)
C33 C 1.7229(6) 0.5825(5) 0.0864(5)
H13 H 1.7752 0.6379 0.0960
C34 C 1.4861(6) 0.3328(5) 0.0384(5)
C35 C 1.2806(5) 0.4032(5) 0.1109(4)
H14 H 1.2704 0.4562 0.1348
C36 C 0.5305(5) -0.0159(5) -0.3096(4)
C37 C 1.4608(6) 0.5013(5) 0.1198(5)
C38 C 2.1256(7) 0.4124(5) 0.3016(5)
C39 C 2.2259(6) 0.5752(6) 0.3564(6)
H15 H 2.2700 0.6292 0.3987
O10 O 2.2866(6) 0.5581(5) 0.5063(4)
C40 C 2.2292(8) 0.4890(6) 0.4480(6)
O11 O 0.9622(3) -0.0354(3) -0.1286(3)
O12 O 1.9059(3) 0.5808(3) 0.0470(3)
O13 O 2.1015(4) 0.5770(3) 0.1301(3)
O14 O 1.1477(3) 0.0883(3) -0.0031(3)
O15 O 2.0349(9) 0.2661(6) 0.2630(6)
C41 C 2.0943(9) 0.3348(7) 0.3203(6)
C42 C 2.1932(7) 0.4015(6) 0.4571(6)
C43 C 2.0925(6) 0.2468(5) 0.4075(5)
H16 H 2.0450 0.1951 0.3638
C44 C 2.1251(7) 0.3215(5) 0.3942(5)
C45 C 2.1206(7) 0.2374(6) 0.4777(5)
C46 C 2.1866(7) 0.3160(6) 0.5461(6)
H17 H 2.2085 0.3146 0.5972
C47 C 2.2157(8) 0.3948(7) 0.5300(6)
H18 H 2.2546 0.4486 0.5734
C48 C 2.0761(6) 0.1537(6) 0.4877(5)
O16 O 2.0315(4) 0.0830(4) 0.4267(3)
O17 O 0.1665(3) 0.0125(3) -0.4231(2)
O18 O 2.0947(4) 0.1495(3) 0.5557(3)
Cu1A Cu 1.06019(5) -0.03761(5) -0.03089(5)
Cu2A Cu 2.04025(7) 0.58894(5) 0.02849(5)
Cu3_2 Cu 1.96420(6) -0.04011(6) 0.42316(4)
Cu3A Cu 0.03580(6) 0.04011(6) -0.42316(4)
Cu3A_2 Cu 2.03580(6) 0.04011(6) 0.57684(4)
O11A O 1.0378(3) 0.0354(3) 0.1286(3)
O12A O 2.0941(3) 0.4192(3) -0.0470(3)
O13A O 1.8985(4) 0.4230(3) -0.1301(3)
O14A O 0.8523(3) -0.0883(3) 0.0031(3)
O16_2 O 0.0315(4) 0.0830(4) -0.5733(3)
O17A O -0.1665(3) -0.0125(3) -0.5769(2)
O18A O -0.0947(4) -0.1495(3) -0.5557(3)
loop_
_geom_bond_atom_site_label_1
_geom_bond_atom_site_label_2
_geom_bond_site_symmetry_1
_geom_bond_site_symmetry_2
Cu1 O1 1_555 1_555
Cu2 O2 1_555 1_555
Cu3 O5 1_555 1_555
O1 C1 1_555 1_555
O2 C12 1_555 1_555
O3 Cu2 1_555 1_555
O4 Cu1 1_555 1_555
O5 C3 1_555 1_555
C1 C32 1_555 1_555
C2 O3 1_555 1_555
C3 C9 1_555 1_555
O6 C34 1_555 1_555
C4 C18 1_555 1_555
C5 O4 1_555 1_555
O7 C36 1_555 1_555
C6 C13 1_555 1_555
C7 H1 1_555 1_555
C8 C14 1_555 1_555
C9 C14 1_555 1_555
C10 C11 1_555 1_555
C11 H2 1_555 1_555
C12 C21 1_555 1_555
C13 H3 1_555 1_555
C14 H4 1_555 1_555
C15 C5 1_555 1_555
C16 C15 1_555 1_555
H5 C16 1_555 1_555
C17 H6 1_555 1_555
C18 C7 1_555 1_555
C19 C4 1_555 1_555
H7 C19 1_555 1_555
C20 C6 1_555 1_555
C21 C27 1_555 1_555
C22 C8 1_555 1_555
C23 C38 1_555 1_555
C24 C10 1_555 1_555
C25 C2 1_555 1_555
C26 C9 1_555 1_555
H8 C26 1_555 1_555
O8 C37 1_555 1_555
C27 H9 1_555 1_555
O9 C31 1_555 1_555
C28 C7 1_555 1_555
H10 C28 1_555 1_555
C29 C21 1_555 1_555
H11 C29 1_555 1_555
C30 C24 1_555 1_555
H12 C30 1_555 1_555
C31 C18 1_555 1_555
C32 C19 1_555 1_555
C33 C25 1_555 1_555
H13 C33 1_555 1_555
C34 C6 1_555 1_555
C35 C16 1_555 1_555
H14 C35 1_555 1_555
C36 C4 1_555 1_555
C37 C20 1_555 1_555
C38 C27 1_555 1_555
C39 C23 1_555 1_555
H15 C39 1_555 1_555
O10 C40 1_555 1_555
C40 C23 1_555 1_555
O11 C1 1_555 1_555
O12 C2 1_555 1_555
O13 C12 1_555 1_555
O14 C5 1_555 1_555
O15 C41 1_555 1_555
C41 C38 1_555 1_555
C42 C40 1_555 1_555
C43 H16 1_555 1_555
C44 C41 1_555 1_555
C45 C43 1_555 1_555
C46 C45 1_555 1_555
H17 C46 1_555 1_555
C47 C42 1_555 1_555
H18 C47 1_555 1_555
C48 C45 1_555 1_555
O16 C48 1_555 1_555
O17 C3 1_555 1_555
O18 C48 1_555 1_555
Cu1A Cu1 1_555 1_555
Cu2A Cu2 1_555 1_555
Cu3_2 O16 1_555 1_555
Cu3A Cu3 1_555 1_555
Cu3A_2 O18 1_555 1_555
O11A Cu1 1_555 1_555
O12A Cu2 1_555 1_555
O13A Cu2 1_555 1_555
O14A Cu1 1_555 1_555
O16_2 Cu3 1_555 1_555
O17A Cu3 1_555 1_555
O18A Cu3 1_555 1_555
C8 C36 1_555 1_555
C10 C34 1_555 1_555
C11 C25 1_555 1_555
C13 C15 1_555 1_555
C17 C22 1_555 1_555
C17 C26 1_555 1_555
C20 C35 1_555 1_555
C22 C31 1_555 1_555
C24 C37 1_555 1_555
C28 C32 1_555 1_555
C29 C39 1_555 1_555
C30 C33 1_555 1_555
O11 Cu1A 1_555 1_555
O12 Cu2A 1_555 1_555
O13 Cu2A 1_555 1_555
O14 Cu1A 1_555 1_555
C42 C44 1_555 1_555
C43 C44 1_555 1_555
C46 C47 1_555 1_555
O17 Cu3A 1_555 1_555
Cu3_2 Cu3A_2 1_555 1_555

#END
