
#######################################################################
#
#                 Cambridge Crystallographic Data Centre
#                                CCDC 
#
#######################################################################
#
# If this CIF has been generated from an entry in the Cambridge 
# Structural Database, then it will include bibliographic, chemical, 
# crystal, experimental, refinement or atomic coordinate data resulting 
# from the CCDC's data processing and validation procedures.
#
#######################################################################

data_GURPEP04
_symmetry_cell_setting           monoclinic
_symmetry_space_group_name_H-M   'P 21/c'
_symmetry_Int_Tables_number      14
_space_group_name_Hall           '-P 2ybc'
loop_
_symmetry_equiv_pos_site_id
_symmetry_equiv_pos_as_xyz
1 x,y,z
2 -x,1/2+y,1/2-z
3 -x,-y,-z
4 x,1/2-y,1/2+z
_cell_length_a                   11.5602(4)
_cell_length_b                   31.6268(12)
_cell_length_c                   9.5237(4)
_cell_angle_alpha                90
_cell_angle_beta                 110.199(4)
_cell_angle_gamma                90
_cell_volume                     3267.84
loop_
_atom_site_label
_atom_site_type_symbol
_atom_site_fract_x
_atom_site_fract_y
_atom_site_fract_z
C1 C 0.9635(3) 0.18452(10) 1.1493(4)
C2 C 1.0632(3) 0.19870(10) 1.2733(4)
H1 H 1.1449 0.1914 1.2811
C3 C 1.0439(3) 0.22317(10) 1.3842(4)
H2 H 1.1121 0.2323 1.4675
C4 C 0.9243(3) 0.23442(10) 1.3735(4)
H3 H 0.9111 0.2511 1.4497
C5 C 0.8263(3) 0.22138(10) 1.2529(4)
H4 H 0.7452 0.2292 1.2464
C6 C 0.8424(3) 0.19678(10) 1.1392(4)
C7 C 0.7369(3) 0.18649(10) 1.0121(4)
H5 H 0.6599 0.1977 1.0090
C8 C 0.6217(3) 0.15526(11) 0.7783(4)
H6 H 0.6124 0.1753 0.6952
H7 H 0.5507 0.1589 0.8127
C9 C 0.6269(3) 0.11110(11) 0.7277(4)
H8 H 0.5611 0.1065 0.6297
H9 H 0.6136 0.0911 0.8006
C10 C 0.7648(4) 0.11814(12) 0.5735(4)
H10 H 0.6838 0.1177 0.4916
H11 H 0.8207 0.0987 0.5460
C11 C 0.8168(4) 0.16227(12) 0.5919(4)
H12 H 0.8520 0.1680 0.5126
H13 H 0.7498 0.1829 0.5808
C12 C 1.0430(3) 0.15904(11) 0.7489(4)
H14 H 1.1016 0.1752 0.8323
H15 H 1.0540 0.1679 0.6546
C13 C 1.0674(4) 0.11221(12) 0.7735(5)
H16 H 1.0277 0.0966 0.6789
H17 H 1.1572 0.1067 0.8080
C14 C 1.0727(3) 0.06946(11) 0.9816(4)
H18 H 1.1474 0.0584 0.9760
C15 C 1.0293(3) 0.05292(11) 1.0952(4)
C16 C 1.1015(3) 0.02246(11) 1.1936(4)
H19 H 1.1793 0.0151 1.1876
C17 C 1.0628(4) 0.00305(12) 1.2984(4)
H20 H 1.1138 -0.0171 1.3656
C18 C 0.9463(4) 0.01352(12) 1.3047(5)
H21 H 0.9175 -0.0005 1.3746
C19 C 0.8737(3) 0.04362(12) 1.2116(4)
H22 H 0.7962 0.0507 1.2192
C20 C 0.9133(3) 0.06426(10) 1.1044(4)
N1 N 0.7376(2) 0.16335(9) 0.9018(3)
N2 N 0.7499(3) 0.10341(8) 0.7143(3)
H23 H 0.7639 0.0744 0.7213
N3 N 0.9140(3) 0.16766(9) 0.7408(3)
H24 H 0.9110 0.1956 0.7697
N4 N 1.0165(3) 0.09832(9) 0.8870(3)
O1 O 0.98919(19) 0.16179(7) 1.0481(3)
O2 O 0.8380(2) 0.09228(7) 1.0176(3)
Fe1 Fe 0.87702(4) 0.130678(15) 0.89347(6)
C21 C 0.3528(3) 0.23913(9) 0.8746(4)
C22 C 0.4734(3) 0.26213(9) 0.9684(4)
C23 C 0.3854(3) 0.37754(10) 0.7191(3)
C24 C 0.5045(3) 0.37406(9) 0.6789(3)
C25 C 0.5557(3) 0.48579(10) 1.0423(4)
C26 C 0.4356(3) 0.49179(9) 0.4509(4)
O3 O 0.3101(2) 0.24761(7) 0.7382(3)
O4 O 0.3104(2) 0.21366(7) 0.9447(3)
O5 O 0.51966(19) 0.28649(6) 0.8988(3)
O6 O 0.51531(19) 0.25414(6) 1.1056(3)
O7 O 0.3264(2) 0.34437(7) 0.7132(3)
O8 O 0.3600(2) 0.41358(7) 0.7543(3)
O9 O 0.5307(2) 0.33814(7) 0.6438(3)
O10 O 0.5651(2) 0.40712(7) 0.6872(3)
O11 O 0.6032(2) 0.49135(7) 1.1812(3)
O12 O 0.5884(2) 0.45950(7) 0.9665(3)
O13 O 0.39931(19) 0.50071(7) 0.3149(3)
O14 O 0.37881(19) 0.47021(7) 0.5164(3)
Mn1 Mn 0.41338(5) 0.291310(14) 0.67050(6)
Cr1 Cr 0.48110(5) 0.460090(15) 0.74054(6)
C21C C 0.3528(3) 0.26087(9) 0.3746(4)
C22C C 0.4734(3) 0.23787(9) 0.4684(4)
C23C C 0.3854(3) 0.12246(10) 1.2191(3)
C24C C 0.5045(3) 0.12594(9) 1.1789(3)
C25B C 0.4443(3) 0.51421(10) 0.9577(4)
C26B C 0.5644(3) 0.50821(9) 0.5491(4)
O3C O 0.3101(2) 0.25239(7) 0.2382(3)
O3C_2 O 0.3101(2) 0.25239(7) 1.2382(3)
O4C O 0.3104(2) 0.28634(7) 0.4447(3)
O5C O 0.51966(19) 0.21351(6) 0.3988(3)
O5C_2 O 0.51966(19) 0.21351(6) 1.3988(3)
O6C O 0.51531(19) 0.24586(6) 0.6056(3)
O7C O 0.3264(2) 0.15563(7) 1.2132(3)
O8B O 0.6400(2) 0.58642(7) 1.2457(3)
O8C O 0.3600(2) 0.08642(7) 1.2543(3)
O9C O 0.5307(2) 0.16186(7) 1.1438(3)
O10B O 0.4349(2) 0.59288(7) 1.3128(3)
O10C O 0.5651(2) 0.09288(7) 1.1872(3)
O11B O 0.3968(2) 0.50865(7) 0.8188(3)
O12B O 0.4116(2) 0.54050(7) 1.0335(3)
O13B O 0.60069(19) 0.49929(7) 0.6851(3)
O13_2 O 0.39931(19) 0.50071(7) 1.3149(3)
O14B O 0.62119(19) 0.52979(7) 0.4836(3)
O14B_2 O 0.62119(19) 0.52979(7) 1.4836(3)
Mn1C Mn 0.41338(5) 0.208690(14) 0.17050(6)
Mn1C_2 Mn 0.41338(5) 0.208690(14) 1.17050(6)
Cr1B Cr 0.51890(5) 0.539910(15) 1.25946(6)
Cr1B_2 Cr 0.51890(5) 0.539910(15) 0.25946(6)
Cr1C Cr 0.48110(5) 0.039910(15) 1.24054(6)
C27 C 0.2217(3) 0.11086(10) 1.4850(4)
H25 H 0.1328 0.1129 1.4697
H26 H 0.2307 0.1085 1.3856
Cl1 Cl 0.29834(9) 0.15688(3) 1.57698(11)
Cl2 Cl 0.28436(9) 0.06567(3) 1.59248(11)
Cr2? Cr 0.41338(5) 0.208694(14) 1.17050(6)
Mn2? Mn 0.48110(5) 0.039915(15) 1.24054(6)
loop_
_geom_bond_atom_site_label_1
_geom_bond_atom_site_label_2
_geom_bond_site_symmetry_1
_geom_bond_site_symmetry_2
C1 C2 1_555 1_555
C2 H1 1_555 1_555
C3 C2 1_555 1_555
H2 C3 1_555 1_555
C4 C3 1_555 1_555
H3 C4 1_555 1_555
C5 C4 1_555 1_555
H4 C5 1_555 1_555
C6 C1 1_555 1_555
C7 C6 1_555 1_555
H5 C7 1_555 1_555
C8 H6 1_555 1_555
H7 C8 1_555 1_555
C9 C8 1_555 1_555
H8 C9 1_555 1_555
H9 C9 1_555 1_555
C10 H10 1_555 1_555
H11 C10 1_555 1_555
C11 C10 1_555 1_555
H12 C11 1_555 1_555
H13 C11 1_555 1_555
C12 H14 1_555 1_555
H15 C12 1_555 1_555
C13 C12 1_555 1_555
H16 C13 1_555 1_555
H17 C13 1_555 1_555
C14 H18 1_555 1_555
C15 C14 1_555 1_555
C16 C15 1_555 1_555
H19 C16 1_555 1_555
C17 C16 1_555 1_555
H20 C17 1_555 1_555
C18 C17 1_555 1_555
H21 C18 1_555 1_555
C19 C18 1_555 1_555
H22 C19 1_555 1_555
C20 C15 1_555 1_555
N1 C7 1_555 1_555
N2 C9 1_555 1_555
H23 N2 1_555 1_555
N3 C11 1_555 1_555
H24 N3 1_555 1_555
N4 C13 1_555 1_555
O1 C1 1_555 1_555
O2 C20 1_555 1_555
Fe1 N1 1_555 1_555
C21 C22 1_555 1_555
C22 O5 1_555 1_555
C23 C24 1_555 1_555
C24 O9 1_555 1_555
C25 O11 1_555 1_555
C26 O13 1_555 1_555
O3 C21 1_555 1_555
O4 C21 1_555 1_555
O5 Mn1 1_555 1_555
O6 C22 1_555 1_555
O7 C23 1_555 1_555
O8 C23 1_555 1_555
O9 Mn1 1_555 1_555
O10 C24 1_555 1_555
O11 Cr1B 1_555 1_555
O12 C25 1_555 1_555
O13 Cr1B_2 1_555 1_555
O14 C26 1_555 1_555
Mn1 O3 1_555 1_555
Cr1 O8 1_555 1_555
C27 H25 1_555 1_555
H26 C27 1_555 1_555
Cl1 C27 1_555 1_555
Cl2 C27 1_555 1_555
C21C C22C 1_555 1_555
C22C O5C 1_555 1_555
C23C C24C 1_555 1_555
C24C O9C 1_555 1_555
C25B C25 1_555 1_555
C26B C26 1_555 1_555
O3C C21C 1_555 1_555
O3C_2 Mn1C_2 1_555 1_555
O4C Mn1 1_555 1_555
O5C Mn1C 1_555 1_555
O5C_2 Mn1C_2 1_555 1_555
O6C Mn1 1_555 1_555
O7C C23C 1_555 1_555
O8B Cr1B 1_555 1_555
O8C C23C 1_555 1_555
O9C Mn1C_2 1_555 1_555
O10B Cr1B 1_555 1_555
O10C C24C 1_555 1_555
O11B Cr1 1_555 1_555
O12B C25B 1_555 1_555
O13B Cr1 1_555 1_555
O13_2 Cr1B 1_555 1_555
O14B C26B 1_555 1_555
O14B_2 Cr1B 1_555 1_555
Mn1C O3C 1_555 1_555
Mn1C_2 O4 1_555 1_555
Cr1B O12B 1_555 1_555
Cr1B_2 O14B 1_555 1_555
Cr1C O8C 1_555 1_555
C5 C6 1_555 1_555
C8 N1 1_555 1_555
C10 N2 1_555 1_555
C12 N3 1_555 1_555
C14 N4 1_555 1_555
C19 C20 1_555 1_555
N2 Fe1 1_555 1_555
N3 Fe1 1_555 1_555
N4 Fe1 1_555 1_555
O1 Fe1 1_555 1_555
O2 Fe1 1_555 1_555
O6 Mn1C_2 1_555 1_555
O7 Mn1 1_555 1_555
O10 Cr1 1_555 1_555
O12 Cr1 1_555 1_555
O14 Cr1 1_555 1_555
C21C O4C 1_555 1_555
C22C O6C 1_555 1_555
C25B O11B 1_555 1_555
C26B O13B 1_555 1_555
O7C Mn1C_2 1_555 1_555
O10C Cr1C 1_555 1_555

#END
