
#######################################################################
#
#                 Cambridge Crystallographic Data Centre
#                                CCDC 
#
#######################################################################
#
# If this CIF has been generated from an entry in the Cambridge 
# Structural Database, then it will include bibliographic, chemical, 
# crystal, experimental, refinement or atomic coordinate data resulting 
# from the CCDC's data processing and validation procedures.
#
#######################################################################

data_GURPUF
_symmetry_cell_setting           orthorhombic
_symmetry_space_group_name_H-M   'P n a 21'
_symmetry_Int_Tables_number      33
_space_group_name_Hall           'P 2c -2n'
loop_
_symmetry_equiv_pos_site_id
_symmetry_equiv_pos_as_xyz
1 x,y,z
2 -x,-y,1/2+z
3 1/2-x,1/2+y,1/2+z
4 1/2+x,1/2-y,z
_cell_length_a                   20.4650(3)
_cell_length_b                   21.2430(5)
_cell_length_c                   16.2740(5)
_cell_angle_alpha                90
_cell_angle_beta                 90
_cell_angle_gamma                90
_cell_volume                     7074.93
loop_
_atom_site_label
_atom_site_type_symbol
_atom_site_fract_x
_atom_site_fract_y
_atom_site_fract_z
In1 In 0.55129(3) 0.17232(2) 0.34112(4)
C1 C 0.6560(4) 0.2346(4) 0.2289(5)
C2 C 0.7113(5) 0.2751(5) 0.2231(6)
H1 H 0.7258 0.2967 0.2693
C3 C 0.7431(9) 0.2822(7) 0.1502(9)
H2 H 0.7737 0.3145 0.1462
C4 C 0.7331(12) 0.2453(8) 0.0825(10)
H3 H 0.7617 0.2439 0.0382
C5 C 0.6748(10) 0.2095(7) 0.0867(8)
H4 H 0.6607 0.1897 0.0389
C6 C 0.6375(5) 0.2017(4) 0.1567(6)
C7 C 0.5822(6) 0.1595(4) 0.1523(6)
H5 H 0.5728 0.1422 0.1012
C8 C 0.4901(6) 0.0988(5) 0.1987(7)
H6 H 0.5011 0.0579 0.2211
H7 H 0.4822 0.0941 0.1403
C9 C 0.4295(5) 0.1241(4) 0.2406(7)
H8 H 0.4156 0.1627 0.2140
H9 H 0.3943 0.0937 0.2365
C10 C 0.3988(4) 0.1809(4) 0.3694(7)
H10 H 0.3996 0.1746 0.4284
H11 H 0.3548 0.1728 0.3500
C11 C 0.4175(5) 0.2476(4) 0.3499(7)
H12 H 0.4117 0.2554 0.2916
H13 H 0.3893 0.2763 0.3798
C12 C 0.4968(5) 0.2764(5) 0.4589(7)
H14 H 0.4679 0.2515 0.4931
H15 H 0.4860 0.3205 0.4670
C13 C 0.5664(5) 0.2650(4) 0.4841(6)
H16 H 0.5954 0.2927 0.4538
H17 H 0.5718 0.2735 0.5423
C14 C 0.6072(5) 0.1629(5) 0.5207(6)
H18 H 0.6194 0.1815 0.5701
C15 C 0.6182(5) 0.0954(5) 0.5126(6)
C16 C 0.6380(8) 0.0638(6) 0.5838(7)
H19 H 0.6467 0.0870 0.6311
C17 C 0.6450(10) -0.0014(8) 0.5860(11)
H20 H 0.6611 -0.0211 0.6328
C18 C 0.6276(7) -0.0364(6) 0.5178(10)
H21 H 0.6287 -0.0801 0.5200
C19 C 0.6095(5) -0.0075(5) 0.4490(8)
H22 H 0.6007 -0.0322 0.4031
C20 C 0.6026(5) 0.0595(4) 0.4412(7)
O1 O 0.6264(3) 0.2311(3) 0.2992(3)
O2 O 0.5843(4) 0.0820(3) 0.3708(4)
N1 N 0.5446(4) 0.1434(3) 0.2126(5)
N2 N 0.4451(4) 0.1366(3) 0.3293(5)
H23 H 0.4424 0.0993 0.3565
N3 N 0.4870(4) 0.2597(3) 0.3729(6)
H24 H 0.5015 0.2925 0.3418
N4 N 0.5824(4) 0.1985(3) 0.4662(4)
In2 In 0.83003(3) 0.06079(4) 0.37405(5)
C21 C 0.7793(4) 0.1748(5) 0.4730(6)
C22 C 0.7516(5) 0.2348(6) 0.4687(6)
H25 H 0.7285 0.2462 0.4218
C23 C 0.7577(6) 0.2780(5) 0.5327(9)
H26 H 0.7388 0.3176 0.5288
C24 C 0.7921(9) 0.2610(6) 0.6015(10)
H27 H 0.7992 0.2901 0.6432
C25 C 0.8163(7) 0.2002(6) 0.6085(7)
H28 H 0.8359 0.1882 0.6576
C26 C 0.8123(4) 0.1573(4) 0.5465(6)
C27 C 0.8439(5) 0.0971(5) 0.5586(6)
H29 H 0.8610 0.0896 0.6106
C28 C 0.8883(7) -0.0037(5) 0.5271(9)
H30 H 0.9334 0.0011 0.5097
H31 H 0.8878 -0.0104 0.5860
C29 C 0.8589(8) -0.0573(7) 0.4854(11)
H32 H 0.8155 -0.0647 0.5074
H33 H 0.8851 -0.0946 0.4954
C30 C 0.8089(7) -0.0864(7) 0.3537(10)
H34 H 0.8129 -0.1288 0.3753
H35 H 0.8190 -0.0875 0.2955
C31 C 0.7428(7) -0.0642(7) 0.3653(14)
H36 H 0.7310 -0.0668 0.4229
H37 H 0.7128 -0.0903 0.3342
C32 C 0.7276(9) 0.0085(11) 0.2499(9)
H38 H 0.6822 -0.0004 0.2371
H39 H 0.7551 -0.0218 0.2218
C33 C 0.7470(8) 0.0812(10) 0.2225(12)
H40 H 0.7410 0.0865 0.1638
H41 H 0.7192 0.1112 0.2508
C34 C 0.8639(7) 0.1134(5) 0.1962(6)
H42 H 0.8501 0.1269 0.1447
C35 C 0.9310(6) 0.1175(4) 0.2125(6)
C36 C 0.9727(10) 0.1362(6) 0.1497(7)
H43 H 0.9548 0.1458 0.0987
C37 C 1.0437(8) 0.1416(7) 0.1606(10)
H44 H 1.0705 0.1557 0.1183
C38 C 1.0688(6) 0.1252(5) 0.2350(8)
H45 H 1.1137 0.1268 0.2437
C39 C 1.0291(5) 0.1068(4) 0.2958(6)
H46 H 1.0484 0.0971 0.3460
C40 C 0.9607(5) 0.1010(4) 0.2904(6)
O3 O 0.7748(4) 0.1383(5) 0.4099(5)
O4 O 0.9285(3) 0.0818(3) 0.3535(4)
N5 N 0.8508(5) 0.0538(4) 0.5064(5)
N6 N 0.8545(5) -0.0455(5) 0.3953(8)
H47 H 0.8947 -0.0528 0.3735
N7 N 0.7383(5) 0.0065(7) 0.3350(8)
H48 H 0.7032 0.0246 0.3600
N8 N 0.8189(5) 0.0927(5) 0.2455(6)
Mn1 Mn 0.99111(7) 0.37051(5) 0.74185(8)
Mn2 Mn 1.37477(6) 0.50538(6) 0.98338(8)
Cr1 Cr 1.11203(6) 0.49831(6) 0.98791(8)
Cr2 Cr 1.00011(7) 0.11672(6) 0.73828(9)
C41 C 1.2402(4) 0.4647(4) 0.9856(5)
C42 C 1.2387(4) 0.5379(4) 0.9834(5)
C43 C 1.0680(4) 0.4579(3) 0.8367(5)
C44 C 1.0327(4) 0.4166(4) 0.9014(5)
C45 C 0.9185(4) 0.4576(4) 0.6411(5)
C46 C 0.9573(4) 0.4166(4) 0.5800(5)
C47 C 1.0829(4) 0.0443(4) 0.6459(5)
C48 C 1.0397(4) 0.0813(4) 0.5836(5)
C49 C 0.9577(4) 0.2390(4) 0.7469(5)
C50 C 1.0345(4) 0.2410(4) 0.7351(5)
C51 C 0.9624(4) 0.0724(4) 0.8892(5)
C52 C 0.9197(4) 0.0393(4) 0.8244(5)
O5 O 1.1853(3) 0.4385(2) 0.9842(4)
O6 O 1.1813(3) 0.5619(3) 0.9870(4)
O7 O 1.2943(3) 0.4381(2) 0.9888(4)
O8 O 1.2914(3) 0.5670(3) 0.9813(4)
O9 O 1.1043(3) 0.5016(2) 0.8673(3)
O10 O 1.0467(3) 0.4302(3) 0.9768(3)
O11 O 1.0605(3) 0.4461(3) 0.7643(3)
O12 O 0.9952(3) 0.3768(3) 0.8762(4)
O13 O 0.8874(3) 0.5043(3) 0.6091(3)
O14 O 0.9527(3) 0.4331(3) 0.5045(3)
O15 O 0.9203(3) 0.4435(3) 0.7146(3)
O16 O 0.9874(3) 0.3718(3) 0.6075(3)
O17 O 1.1255(3) 0.0089(3) 0.6181(4)
O18 O 1.0506(3) 0.0767(3) 0.5104(3)
O19 O 0.9953(3) 0.1158(3) 0.6176(4)
O20 O 1.0708(3) 0.0550(3) 0.7215(3)
O21 O 0.9274(3) 0.2884(3) 0.7507(3)
O22 O 1.0604(3) 0.2926(3) 0.7322(4)
O23 O 0.9341(3) 0.1835(3) 0.7487(4)
O24 O 1.0620(3) 0.1880(3) 0.7352(4)
O25 O 1.0065(3) 0.1083(3) 0.8588(3)
O26 O 0.9313(3) 0.0525(3) 0.7505(4)
O27 O 0.9524(3) 0.0632(3) 0.9624(3)
O28 O 0.8765(3) 0.0028(2) 0.8506(4)
Mn2B Mn 1.12523(6) 0.00538(6) 0.48338(8)
Mn2C Mn 0.87477(6) -0.00538(6) 0.98338(8)
Cr1A Cr 0.88797(6) 0.50169(6) 0.48791(8)
O13A O 1.1126(3) 0.4957(3) 1.1091(3)
O14A O 1.0473(3) 0.5669(3) 1.0045(3)
O17B O 1.3745(3) 0.5089(3) 1.1181(4)
O18B O 1.4494(3) 0.5767(3) 1.0104(3)
O27C O 1.4524(3) 0.4368(3) 0.9624(3)
O28C O 1.3765(3) 0.4972(2) 0.8506(4)
N9 N 0.7621(7) 0.9744(10) 0.7390(12)
O29 O 0.7936(7) 0.9582(9) 0.6762(12)
C53 C 0.7477(10) 1.0373(8) 0.7542(13)
O30 O 0.7433(7) 0.9348(8) 0.7851(12)
N10 N 0.9300(13) 0.2694(13) 0.0046(17)
C54 C 1.0026(13) 0.2429(13) -0.015(2)
O31 O 0.9232(8) 0.2989(8) 0.0634(10)
O32 O 0.8640(15) 0.2833(14) -0.023(2)
O33 O 0.6929(18) 0.1518(16) -0.177(2)
O34? O 0.6585(10) 0.1545(8) -0.1535(13)
O35? O 0.6498(12) 0.2416(12) -0.1216(17)
N11? N 0.6757(10) 0.2062(11) -0.1559(15)
C55? C 0.7107(15) 0.2373(14) -0.2333(18)
O36? O 1.0001(10) 0.2488(9) -0.0798(14)
loop_
_geom_bond_atom_site_label_1
_geom_bond_atom_site_label_2
_geom_bond_site_symmetry_1
_geom_bond_site_symmetry_2
In1 O1 1_555 1_555
C1 C2 1_555 1_555
C2 H1 1_555 1_555
C3 C2 1_555 1_555
H2 C3 1_555 1_555
C4 C3 1_555 1_555
H3 C4 1_555 1_555
C5 C4 1_555 1_555
H4 C5 1_555 1_555
C6 C1 1_555 1_555
C7 C6 1_555 1_555
H5 C7 1_555 1_555
C8 H6 1_555 1_555
H7 C8 1_555 1_555
C9 C8 1_555 1_555
H8 C9 1_555 1_555
H9 C9 1_555 1_555
C10 H10 1_555 1_555
H11 C10 1_555 1_555
C11 C10 1_555 1_555
H12 C11 1_555 1_555
H13 C11 1_555 1_555
C12 H14 1_555 1_555
H15 C12 1_555 1_555
C13 C12 1_555 1_555
H16 C13 1_555 1_555
H17 C13 1_555 1_555
C14 H18 1_555 1_555
C15 C14 1_555 1_555
C16 C15 1_555 1_555
H19 C16 1_555 1_555
C17 C16 1_555 1_555
H20 C17 1_555 1_555
C18 C17 1_555 1_555
H21 C18 1_555 1_555
C19 C18 1_555 1_555
H22 C19 1_555 1_555
C20 C15 1_555 1_555
O1 C1 1_555 1_555
O2 In1 1_555 1_555
N1 In1 1_555 1_555
N2 In1 1_555 1_555
H23 N2 1_555 1_555
N3 In1 1_555 1_555
H24 N3 1_555 1_555
N4 In1 1_555 1_555
In2 O3 1_555 1_555
C21 C22 1_555 1_555
C22 H25 1_555 1_555
C23 C22 1_555 1_555
H26 C23 1_555 1_555
C24 C23 1_555 1_555
H27 C24 1_555 1_555
C25 C24 1_555 1_555
H28 C25 1_555 1_555
C26 C21 1_555 1_555
C27 C26 1_555 1_555
H29 C27 1_555 1_555
C28 H30 1_555 1_555
H31 C28 1_555 1_555
C29 C28 1_555 1_555
H32 C29 1_555 1_555
H33 C29 1_555 1_555
C30 H34 1_555 1_555
H35 C30 1_555 1_555
C31 C30 1_555 1_555
H36 C31 1_555 1_555
H37 C31 1_555 1_555
C32 H38 1_555 1_555
H39 C32 1_555 1_555
C33 C32 1_555 1_555
H40 C33 1_555 1_555
H41 C33 1_555 1_555
C34 H42 1_555 1_555
C35 C34 1_555 1_555
C36 C35 1_555 1_555
H43 C36 1_555 1_555
C37 C36 1_555 1_555
H44 C37 1_555 1_555
C38 C37 1_555 1_555
H45 C38 1_555 1_555
C39 C38 1_555 1_555
H46 C39 1_555 1_555
C40 C35 1_555 1_555
O3 C21 1_555 1_555
O4 In2 1_555 1_555
N5 In2 1_555 1_555
N6 In2 1_555 1_555
H47 N6 1_555 1_555
N7 In2 1_555 1_555
H48 N7 1_555 1_555
N8 In2 1_555 1_555
Mn1 O11 1_555 1_555
Mn2 O7 1_555 1_555
Cr1 O5 1_555 1_555
Cr2 O19 1_555 1_555
C41 C42 1_555 1_555
C42 O6 1_555 1_555
C43 C44 1_555 1_555
C44 O10 1_555 1_555
C45 C46 1_555 1_555
C46 O14 1_555 1_555
C47 C48 1_555 1_555
C48 O18 1_555 1_555
C49 C50 1_555 1_555
C50 O22 1_555 1_555
C51 C52 1_555 1_555
C52 O26 1_555 1_555
O5 C41 1_555 1_555
O6 Cr1 1_555 1_555
O7 C41 1_555 1_555
O8 Mn2 1_555 1_555
O9 Cr1 1_555 1_555
O10 Cr1 1_555 1_555
O11 C43 1_555 1_555
O12 Mn1 1_555 1_555
O13 C45 1_555 1_555
O14 Cr1A 1_555 1_555
O15 Mn1 1_555 1_555
O16 Mn1 1_555 1_555
O17 C47 1_555 1_555
O18 Mn2B 1_555 1_555
O19 C48 1_555 1_555
O20 Cr2 1_555 1_555
O21 Mn1 1_555 1_555
O22 Mn1 1_555 1_555
O23 Cr2 1_555 1_555
O24 Cr2 1_555 1_555
O25 Cr2 1_555 1_555
O26 Cr2 1_555 1_555
O27 C51 1_555 1_555
O28 C52 1_555 1_555
N9 O29 1_555 1_555
C53 N9 1_555 1_555
O30 N9 1_555 1_555
N10 C54 1_555 1_555
O31 N10 1_555 1_555
O32 N10 1_555 1_555
Mn2B O17 1_555 1_555
Mn2C O27 1_555 1_555
Cr1A O13 1_555 1_555
O13A Cr1 1_555 1_555
O14A Cr1 1_555 1_555
O17B Mn2 1_555 1_555
O18B Mn2 1_555 1_555
O27C Mn2 1_555 1_555
O28C Mn2 1_555 1_555
C5 C6 1_555 1_555
C7 N1 1_555 1_555
C8 N1 1_555 1_555
C9 N2 1_555 1_555
C10 N2 1_555 1_555
C11 N3 1_555 1_555
C12 N3 1_555 1_555
C13 N4 1_555 1_555
C14 N4 1_555 1_555
C19 C20 1_555 1_555
C20 O2 1_555 1_555
C25 C26 1_555 1_555
C27 N5 1_555 1_555
C28 N5 1_555 1_555
C29 N6 1_555 1_555
C30 N6 1_555 1_555
C31 N7 1_555 1_555
C32 N7 1_555 1_555
C33 N8 1_555 1_555
C34 N8 1_555 1_555
C39 C40 1_555 1_555
C40 O4 1_555 1_555
C42 O8 1_555 1_555
C43 O9 1_555 1_555
C44 O12 1_555 1_555
C45 O15 1_555 1_555
C46 O16 1_555 1_555
C47 O20 1_555 1_555
C49 O21 1_555 1_555
C49 O23 1_555 1_555
C50 O24 1_555 1_555
C51 O25 1_555 1_555
O28 Mn2C 1_555 1_555

#END
