
#######################################################################
#
#                 Cambridge Crystallographic Data Centre
#                                CCDC 
#
#######################################################################
#
# If this CIF has been generated from an entry in the Cambridge 
# Structural Database, then it will include bibliographic, chemical, 
# crystal, experimental, refinement or atomic coordinate data resulting 
# from the CCDC's data processing and validation procedures.
#
#######################################################################

data_GURTET
_symmetry_cell_setting           monoclinic
_symmetry_space_group_name_H-M   'P 21/n'
_symmetry_Int_Tables_number      14
_space_group_name_Hall           '-P 2yn'
loop_
_symmetry_equiv_pos_site_id
_symmetry_equiv_pos_as_xyz
1 x,y,z
2 1/2-x,1/2+y,1/2-z
3 -x,-y,-z
4 1/2+x,1/2-y,1/2+z
_cell_length_a                   12.145(4)
_cell_length_b                   9.265(3)
_cell_length_c                   20.422(6)
_cell_angle_alpha                90
_cell_angle_beta                 104.952(4)
_cell_angle_gamma                90
_cell_volume                     2220.15
loop_
_atom_site_label
_atom_site_type_symbol
_atom_site_fract_x
_atom_site_fract_y
_atom_site_fract_z
Al1 Al 1.17035(14) 0.05763(17) 0.16230(8)
Al2 Al 1.11693(14) 0.31053(18) 0.27459(8)
P1 P 0.98044(12) 0.02217(16) 0.24289(8)
P2 P 1.19369(13) 0.77252(15) 0.08664(7)
P3 P 1.04573(13) 0.34833(16) 0.11512(7)
P4 P 1.07372(12) -0.40248(15) 0.34549(7)
F1 F 1.1978(2) 0.1846(3) 0.23350(14)
F2 F 1.2624(2) -0.0656(3) 0.22225(14)
O1 O 1.0384(3) -0.5467(4) 0.30872(17)
O2 O 1.0407(3) 0.3746(4) 0.18676(17)
O3 O 1.0396(3) -0.0038(4) 0.18688(18)
O4 O 1.0815(3) 0.1958(4) 0.10142(18)
O5 O 1.2024(3) -0.3823(4) 0.36630(18)
O6 O 1.0212(3) -0.3906(4) 0.40528(19)
O7 O 1.2084(3) 0.7648(4) 0.01408(18)
O8 O 1.3068(3) 0.7489(4) 0.13792(17)
O9 O 1.0031(3) 0.1741(4) 0.27277(18)
O10 O 1.1364(3) 0.9168(4) 0.09514(18)
O11 O 0.8532(3) -0.0080(4) 0.21768(19)
O12 O 0.9281(3) 0.3885(4) 0.06658(19)
C1 C 1.1422(5) 0.4795(6) 0.0949(3)
H1 H 1.2182 0.4685 0.1271
H2 H 1.1505 0.4604 0.0487
C2 C 1.0151(5) -0.2618(6) 0.2846(3)
H3 H 1.0454 -0.2756 0.2445
H4 H 0.9315 -0.2755 0.2696
C3 C 1.1010(5) 0.6320(6) 0.0984(3)
H5 H 1.0852 0.6458 0.1432
H6 H 1.0278 0.6430 0.0636
C4 C 1.0382(5) -0.1063(6) 0.3085(3)
H7 H 1.1215 -0.0915 0.3248
H8 H 1.0046 -0.0892 0.3471
Al1A Al 1.32965(14) -0.44237(17) 0.33770(8)
Al1_2 Al 1.17035(14) 1.05763(17) 0.16230(8)
Al2A Al 1.38307(14) -0.18947(18) 0.22541(8)
Al2_2 Al 1.11693(14) -0.68947(18) 0.27459(8)
Al2A_2 Al 1.38307(14) 0.81053(18) 0.22541(8)
F2A F 1.2376(2) 0.4344(3) 0.27775(14)
O1_2 O 1.0384(3) 0.4533(4) 0.30872(17)
O5A O 1.2976(3) 0.1177(4) 0.13370(18)
O8A O 1.1932(3) 0.2489(4) 0.36208(17)
O10_2 O 1.1364(3) -0.0832(4) 0.09514(18)
O13 O 0.7105(3) 0.1712(5) 0.1352(2)
N1 N 1.8030(9) 0.2145(15) 0.4092(6)
H9 H 1.8380 0.3004 0.4023
N2 N 2.0460(12) 0.3134(15) 0.4752(9)
H10 H 2.1197 0.3221 0.4731
H11 H 2.0410 0.3353 0.5178
H12 H 2.0014 0.3751 0.4450
N3 N 1.6906(18) -0.094(2) 0.2860(11)
H13 H 1.6225 -0.1396 0.2815
H14 H 1.7478 -0.1605 0.2960
H15 H 1.6908 -0.0487 0.2466
N4 N 1.6286(9) 0.4581(12) 0.4292(6)
H16 H 1.6246 0.5489 0.4454
H17 H 1.5677 0.4057 0.4339
H18 H 1.6279 0.4627 0.3846
C5 C 1.8849(8) 0.1476(13) 0.4642(6)
H19 H 1.8675 0.0433 0.4649
H20 H 1.8780 0.1900 0.5075
C6 C 2.0076(9) 0.1663(13) 0.4588(7)
H21 H 2.0583 0.0988 0.4903
H22 H 2.0117 0.1429 0.4122
C7 C 1.7819(9) 0.1409(12) 0.3436(6)
H23 H 1.8556 0.1109 0.3356
H24 H 1.7451 0.2089 0.3071
C8 C 1.7075(11) 0.0109(13) 0.3405(7)
H25 H 1.7372 -0.0427 0.3834
H26 H 1.6310 0.0468 0.3411
C9 C 1.6949(9) 0.2602(12) 0.4186(6)
H27 H 1.6608 0.1842 0.4413
H28 H 1.6410 0.2843 0.3747
C10 C 1.7246(10) 0.3950(13) 0.4639(8)
H29 H 1.7273 0.3769 0.5120
H30 H 1.7945 0.4450 0.4596
C11? C 1.6954(12) 0.3755(16) 0.4711(10)
C12? C 1.8918(9) 0.2974(16) 0.4052(7)
C13? C 2.0034(11) 0.2325(17) 0.4443(9)
C14? C 1.7913(11) 0.0637(16) 0.3825(7)
C15? C 1.6914(13) 0.0473(18) 0.3212(8)
C16? C 1.7388(12) 0.2252(14) 0.4591(8)
H31? H 1.7338 0.2585 0.3674
H32? H 1.7367 0.3912 0.5191
H33? H 1.7366 0.4359 0.4453
H34? H 2.1438 0.3062 0.5063
H35? H 2.0408 0.3843 0.5137
H36? H 2.0884 0.4153 0.4551
H37? H 1.6353 -0.1071 0.2564
H38? H 1.7384 -0.1501 0.3097
H39? H 1.7494 -0.0541 0.2534
H40? H 1.6189 0.5441 0.4891
H41? H 1.5495 0.4110 0.4859
H42? H 1.5639 0.4775 0.4225
H43? H 1.8845 0.3935 0.4248
H44? H 1.8961 0.3130 0.3580
H45? H 1.9890 0.1566 0.4751
H46? H 2.0425 0.1875 0.4124
H47? H 1.7833 -0.0015 0.4194
H48? H 1.8638 0.0416 0.3710
H49? H 1.6204 0.0375 0.3360
H50? H 1.6847 0.1350 0.2927
H51? H 1.7965 0.1946 0.5005
H52? H 1.6745 0.1563 0.4517
N5? N 1.7881(12) 0.2167(17) 0.4030(8)
N6? N 2.0760(13) 0.3453(19) 0.4836(10)
N7? N 1.705(2) -0.078(3) 0.2815(14)
N8? N 1.5986(9) 0.4593(13) 0.4668(7)
loop_
_geom_bond_atom_site_label_1
_geom_bond_atom_site_label_2
_geom_bond_site_symmetry_1
_geom_bond_site_symmetry_2
Al1 F1 1_555 1_555
Al2 F1 1_555 1_555
P1 O3 1_555 1_555
P2 O7 1_555 1_555
P3 O2 1_555 1_555
P4 O1 1_555 1_555
F2 Al1 1_555 1_555
O1 Al2_2 1_555 1_555
O2 Al2 1_555 1_555
O3 Al1 1_555 1_555
O4 Al1 1_555 1_555
O5 P4 1_555 1_555
O6 P4 1_555 1_555
O8 P2 1_555 1_555
O9 Al2 1_555 1_555
O10 P2 1_555 1_555
O11 P1 1_555 1_555
O12 P3 1_555 1_555
C1 P3 1_555 1_555
H1 C1 1_555 1_555
H2 C1 1_555 1_555
C2 P4 1_555 1_555
H3 C2 1_555 1_555
H4 C2 1_555 1_555
C3 P2 1_555 1_555
H5 C3 1_555 1_555
H6 C3 1_555 1_555
C4 P1 1_555 1_555
H7 C4 1_555 1_555
H8 C4 1_555 1_555
N1 H9 1_555 1_555
N2 H10 1_555 1_555
H11 N2 1_555 1_555
H12 N2 1_555 1_555
N3 H13 1_555 1_555
H14 N3 1_555 1_555
H15 N3 1_555 1_555
N4 H16 1_555 1_555
H17 N4 1_555 1_555
H18 N4 1_555 1_555
C5 N1 1_555 1_555
H19 C5 1_555 1_555
H20 C5 1_555 1_555
C6 N2 1_555 1_555
H21 C6 1_555 1_555
H22 C6 1_555 1_555
C7 N1 1_555 1_555
H23 C7 1_555 1_555
H24 C7 1_555 1_555
C8 N3 1_555 1_555
H25 C8 1_555 1_555
H26 C8 1_555 1_555
C9 N1 1_555 1_555
H27 C9 1_555 1_555
H28 C9 1_555 1_555
C10 N4 1_555 1_555
H29 C10 1_555 1_555
H30 C10 1_555 1_555
Al1A O5 1_555 1_555
Al1_2 O10 1_555 1_555
Al2A F2 1_555 1_555
Al2A_2 O8 1_555 1_555
F2A Al2 1_555 1_555
O1_2 Al2 1_555 1_555
O5A Al1 1_555 1_555
O8A Al2 1_555 1_555
O10_2 Al1 1_555 1_555
P1 O9 1_555 1_555
P3 O4 1_555 1_555
C1 C3 1_555 1_555
C2 C4 1_555 1_555
C5 C6 1_555 1_555
C7 C8 1_555 1_555
C9 C10 1_555 1_555

#END
