
#######################################################################
#
#                 Cambridge Crystallographic Data Centre
#                                CCDC 
#
#######################################################################
#
# If this CIF has been generated from an entry in the Cambridge 
# Structural Database, then it will include bibliographic, chemical, 
# crystal, experimental, refinement or atomic coordinate data resulting 
# from the CCDC's data processing and validation procedures.
#
#######################################################################

data_GURTOD
_symmetry_cell_setting           monoclinic
_symmetry_space_group_name_H-M   'P 21/n'
_symmetry_Int_Tables_number      14
_space_group_name_Hall           '-P 2yn'
loop_
_symmetry_equiv_pos_site_id
_symmetry_equiv_pos_as_xyz
1 x,y,z
2 1/2-x,1/2+y,1/2-z
3 -x,-y,-z
4 1/2+x,1/2-y,1/2+z
_cell_length_a                   9.0900(12)
_cell_length_b                   23.9510(14)
_cell_length_c                   11.286(3)
_cell_angle_alpha                90
_cell_angle_beta                 108.500(2)
_cell_angle_gamma                90
_cell_volume                     2330.15
loop_
_atom_site_label
_atom_site_type_symbol
_atom_site_fract_x
_atom_site_fract_y
_atom_site_fract_z
Cd1 Cd 0.46167(4) 0.043939(16) 0.35436(3)
O1 O 0.3938(5) -0.04426(16) 0.4366(3)
N1 N 0.6757(5) 0.0139(2) 0.3123(4)
O2 O 0.3220(5) -0.03536(17) 0.2346(4)
N2 N 0.4706(6) 0.0856(2) 0.1556(4)
O3 O -0.7338(5) -0.4247(2) 0.1441(4)
C1 C 0.3221(6) -0.0622(2) 0.3295(5)
C2 C 0.5804(6) 0.0631(3) 0.1134(5)
O4 O -0.2143(9) -0.2359(3) 0.2680(10)
O5 O -0.8814(6) -0.3526(2) 0.1346(5)
N3 N 0.8371(7) 0.0120(3) 0.2043(5)
C3 C 0.3531(9) 0.1269(4) -0.0441(7)
H1 H 0.2750 0.1492 -0.0958
C4 C 0.2307(6) -0.1147(2) 0.3143(5)
C5 C 0.8006(7) -0.0167(3) 0.3758(6)
H2 H 0.8144 -0.0344 0.4519
C6 C 0.5777(7) 0.0707(3) -0.0084(5)
H3 H 0.6522 0.0541 -0.0373
C7 C 0.6946(6) 0.0295(3) 0.2064(5)
C8 C -0.7525(8) -0.3736(3) 0.1484(6)
C9 C 0.1646(7) -0.1384(3) 0.1971(6)
H4 H 0.1873 -0.1237 0.1286
C10 C 0.3607(8) 0.1167(3) 0.0776(7)
H5 H 0.2852 0.1324 0.1069
C11 C -0.6104(8) -0.3370(3) 0.1817(7)
C12 C 0.9014(9) -0.0175(4) 0.3110(7)
H6 H 0.9977 -0.0350 0.3348
C13 C 0.9330(9) 0.0339(3) 0.1260(7)
H7 H 0.8839 0.0670 0.0815
H8 H 1.0351 0.0443 0.1806
C14 C -0.4713(8) -0.3578(3) 0.1815(7)
H9 H -0.4666 -0.3946 0.1571
C15 C 0.9492(8) -0.0068(3) 0.0378(6)
H10 H 0.8465 -0.0147 -0.0194
H11 H 0.9874 -0.0410 0.0832
C16 C 0.4630(9) 0.1035(3) -0.0865(7)
H12 H 0.4608 0.1096 -0.1684
C17 C -0.6118(10) -0.2835(4) 0.2209(13)
H13 H -0.7040 -0.2685 0.2258
C18 C 0.0652(7) -0.1837(3) 0.1809(7)
H14 H 0.0230 -0.1991 0.1017
C19 C -0.0849(10) -0.2507(4) 0.2579(8)
H15 H -0.1025 -0.2664 0.1754
H16 H -0.0415 -0.2799 0.3184
C20 C 0.0289(8) -0.2057(3) 0.2767(8)
C21 C 0.1967(9) -0.1389(3) 0.4128(7)
H17 H 0.2419 -0.1249 0.4930
C22 C -0.4807(12) -0.2511(4) 0.2535(18)
H18 H -0.4862 -0.2141 0.2766
C23 C -0.3421(9) -0.2728(3) 0.2524(11)
C24 C 0.0964(10) -0.1836(4) 0.3946(8)
H19 H 0.0739 -0.1990 0.4624
C25 C -0.3350(8) -0.3261(3) 0.2166(7)
H20 H -0.2416 -0.3414 0.2152
Cd1B Cd 0.53833(4) -0.043939(16) 0.64564(3)
Cd1A Cd -0.96167(4) -0.456061(16) 0.14564(3)
Cd1B_2 Cd 1.53833(4) -0.043939(16) -0.35436(3)
Cd1C Cd 1.96167(4) 0.456061(16) 0.85436(3)
O1B O 0.6062(5) 0.04426(16) 0.5634(3)
N1B N 1.3243(5) -0.0139(2) -0.3123(4)
N1B_2 N 0.3243(5) -0.0139(2) 0.6877(4)
O2B O 0.6780(5) 0.03536(17) 0.7654(4)
N2B N 1.5294(6) -0.0856(2) -0.1556(4)
N2B_2 N 0.5294(6) -0.0856(2) 0.8444(4)
O3B O 1.7338(5) 0.4247(2) 0.8559(4)
O3A O 0.2338(5) 0.0753(2) 0.3559(4)
O3C O 0.7662(5) -0.0753(2) 0.6441(4)
C1B C 0.6779(6) 0.0622(2) 0.6705(5)
C2B C 1.4196(6) -0.0631(3) -0.1134(5)
O4B O 1.2143(9) 0.2359(3) 0.7320(10)
O5B O 1.8814(6) 0.3526(2) 0.8654(5)
O5A O 0.3814(6) 0.1474(2) 0.3654(5)
O5C O 0.6186(6) -0.1474(2) 0.6346(5)
N3B N 1.1629(7) -0.0120(3) -0.2043(5)
C3B C 1.6469(9) -0.1269(4) 0.0441(7)
H1B H 1.7250 -0.1492 0.0958
C4B C 0.7693(6) 0.1147(2) 0.6857(5)
C5B C 1.1994(7) 0.0167(3) -0.3758(6)
H2B H 1.1856 0.0344 -0.4519
C6B C 1.4223(7) -0.0707(3) 0.0084(5)
H3B H 1.3478 -0.0541 0.0373
C7B C 1.3054(6) -0.0295(3) -0.2064(5)
C8B C 1.7525(8) 0.3736(3) 0.8516(6)
C9B C 0.8354(7) 0.1384(3) 0.8029(6)
H4B H 0.8127 0.1237 0.8714
C10B C 1.6393(8) -0.1167(3) -0.0776(7)
H5B H 1.7148 -0.1324 -0.1069
C11B C 1.6104(8) 0.3370(3) 0.8183(7)
C12B C 1.0986(9) 0.0175(4) -0.3110(7)
H6B H 1.0023 0.0350 -0.3348
C13B C 1.0670(9) -0.0339(3) -0.1260(7)
H7B H 1.1161 -0.0670 -0.0815
H8B H 0.9649 -0.0443 -0.1806
C14B C 1.4713(8) 0.3578(3) 0.8185(7)
H9B H 1.4666 0.3946 0.8429
C15B C 1.0508(8) 0.0068(3) -0.0378(6)
H10B H 1.1535 0.0147 0.0194
H11B H 1.0126 0.0410 -0.0832
C16B C 1.5370(9) -0.1035(3) 0.0865(7)
H12B H 1.5392 -0.1096 0.1684
C17B C 1.6118(10) 0.2835(4) 0.7791(13)
H13B H 1.7040 0.2685 0.7742
C18B C 0.9348(7) 0.1837(3) 0.8191(7)
H14B H 0.9770 0.1991 0.8983
C19B C 1.0849(10) 0.2507(4) 0.7421(8)
H15B H 1.1025 0.2664 0.8246
H16B H 1.0415 0.2799 0.6816
C20B C 0.9711(8) 0.2057(3) 0.7233(8)
C21B C 0.8033(9) 0.1389(3) 0.5872(7)
H17B H 0.7581 0.1249 0.5070
C22B C 1.4807(12) 0.2511(4) 0.7465(18)
H18B H 1.4862 0.2141 0.7234
C23B C 1.3421(9) 0.2728(3) 0.7476(11)
C24B C 0.9036(10) 0.1836(4) 0.6054(8)
H19B H 0.9261 0.1990 0.5376
C25B C 1.3350(8) 0.3261(3) 0.7834(7)
H20B H 1.2416 0.3414 0.7848
loop_
_geom_bond_atom_site_label_1
_geom_bond_atom_site_label_2
_geom_bond_site_symmetry_1
_geom_bond_site_symmetry_2
Cd1 O1 1_555 1_555
O1 C1 1_555 1_555
N1 Cd1 1_555 1_555
O2 Cd1 1_555 1_555
N2 Cd1 1_555 1_555
O3 C8 1_555 1_555
C1 O2 1_555 1_555
C2 N2 1_555 1_555
O4 C19 1_555 1_555
O5 C8 1_555 1_555
N3 C7 1_555 1_555
C3 H1 1_555 1_555
C4 C1 1_555 1_555
C5 N1 1_555 1_555
H2 C5 1_555 1_555
C6 C2 1_555 1_555
H3 C6 1_555 1_555
C7 N1 1_555 1_555
C8 C11 1_555 1_555
C9 C4 1_555 1_555
H4 C9 1_555 1_555
C10 N2 1_555 1_555
H5 C10 1_555 1_555
C11 C14 1_555 1_555
C12 N3 1_555 1_555
H6 C12 1_555 1_555
C13 N3 1_555 1_555
H7 C13 1_555 1_555
H8 C13 1_555 1_555
C14 H9 1_555 1_555
C15 C13 1_555 1_555
H10 C15 1_555 1_555
H11 C15 1_555 1_555
C16 C3 1_555 1_555
H12 C16 1_555 1_555
C17 C11 1_555 1_555
H13 C17 1_555 1_555
C18 C9 1_555 1_555
H14 C18 1_555 1_555
C19 H15 1_555 1_555
H16 C19 1_555 1_555
C20 C18 1_555 1_555
C21 C4 1_555 1_555
H17 C21 1_555 1_555
C22 C17 1_555 1_555
H18 C22 1_555 1_555
C23 O4 1_555 1_555
C24 C20 1_555 1_555
H19 C24 1_555 1_555
C25 C14 1_555 1_555
H20 C25 1_555 1_555
Cd1B O1 1_555 1_555
Cd1A O3 1_555 1_555
Cd1B_2 N1B 1_555 1_555
Cd1C O3B 1_555 1_555
O1B Cd1 1_555 1_555
N1B C5B 1_555 1_555
N1B_2 Cd1B 1_555 1_555
O2B Cd1B 1_555 1_555
N2B Cd1B_2 1_555 1_555
N2B_2 Cd1B 1_555 1_555
O3B C8B 1_555 1_555
O3A Cd1 1_555 1_555
O3C Cd1B 1_555 1_555
C1B O1B 1_555 1_555
C2B N2B 1_555 1_555
O4B C19B 1_555 1_555
O5B Cd1C 1_555 1_555
O5A Cd1 1_555 1_555
O5C Cd1B 1_555 1_555
N3B C7B 1_555 1_555
C3B H1B 1_555 1_555
C4B C1B 1_555 1_555
C5B H2B 1_555 1_555
C6B C2B 1_555 1_555
H3B C6B 1_555 1_555
C7B N1B 1_555 1_555
C8B O5B 1_555 1_555
C9B C4B 1_555 1_555
H4B C9B 1_555 1_555
C10B N2B 1_555 1_555
H5B C10B 1_555 1_555
C11B C8B 1_555 1_555
C12B N3B 1_555 1_555
H6B C12B 1_555 1_555
C13B N3B 1_555 1_555
H7B C13B 1_555 1_555
H8B C13B 1_555 1_555
C14B C11B 1_555 1_555
H9B C14B 1_555 1_555
C15B C15 1_555 1_555
H10B C15B 1_555 1_555
H11B C15B 1_555 1_555
C16B C3B 1_555 1_555
H12B C16B 1_555 1_555
C17B C11B 1_555 1_555
H13B C17B 1_555 1_555
C18B C9B 1_555 1_555
H14B C18B 1_555 1_555
C19B H15B 1_555 1_555
H16B C19B 1_555 1_555
C20B C18B 1_555 1_555
C21B C4B 1_555 1_555
H17B C21B 1_555 1_555
C22B C17B 1_555 1_555
H18B C22B 1_555 1_555
C23B O4B 1_555 1_555
C24B C20B 1_555 1_555
H19B C24B 1_555 1_555
C25B C14B 1_555 1_555
H20B C25B 1_555 1_555
C2 C7 1_555 1_555
O5 Cd1A 1_555 1_555
C3 C10 1_555 1_555
C5 C12 1_555 1_555
C6 C16 1_555 1_555
C19 C20 1_555 1_555
C21 C24 1_555 1_555
C22 C23 1_555 1_555
C23 C25 1_555 1_555
Cd1B O1B 1_555 1_555
O2B C1B 1_555 1_555
C2B C7B 1_555 1_555
C3B C10B 1_555 1_555
C5B C12B 1_555 1_555
C6B C16B 1_555 1_555
C13B C15B 1_555 1_555
C19B C20B 1_555 1_555
C21B C24B 1_555 1_555
C22B C23B 1_555 1_555
C23B C25B 1_555 1_555

#END
