
#######################################################################
#
#                 Cambridge Crystallographic Data Centre
#                                CCDC 
#
#######################################################################
#
# If this CIF has been generated from an entry in the Cambridge 
# Structural Database, then it will include bibliographic, chemical, 
# crystal, experimental, refinement or atomic coordinate data resulting 
# from the CCDC's data processing and validation procedures.
#
#######################################################################

data_GURTUJ
_symmetry_cell_setting           triclinic
_symmetry_space_group_name_H-M   'P -1'
_symmetry_Int_Tables_number      2
_space_group_name_Hall           '-P 1'
loop_
_symmetry_equiv_pos_site_id
_symmetry_equiv_pos_as_xyz
1 x,y,z
2 -x,-y,-z
_cell_length_a                   9.0560(12)
_cell_length_b                   11.191(11)
_cell_length_c                   15.264(2)
_cell_angle_alpha                102.263(2)
_cell_angle_beta                 92.198(3)
_cell_angle_gamma                108.628(2)
_cell_volume                     1423
loop_
_atom_site_label
_atom_site_type_symbol
_atom_site_fract_x
_atom_site_fract_y
_atom_site_fract_z
Cd1 Cd 0.55003(6) 0.16551(5) 0.57604(4)
C1 C 0.0912(17) 0.1795(13) 0.4641(17)
H1 H -0.0046 0.1492 0.4281
C2 C 0.1942(12) 0.1168(11) 0.4779(10)
H2 H 0.1734 0.0285 0.4549
C3 C 0.3180(11) 0.3132(9) 0.5521(8)
C4 C 0.4424(11) 0.4217(9) 0.6092(7)
C5 C 0.4548(12) 0.5498(9) 0.6202(8)
H3 H 0.3820 0.5731 0.5892
C6 C 0.5775(19) 0.6427(13) 0.6782(14)
H4 H 0.5876 0.7299 0.6878
C7 C 0.6872(18) 0.6050(13) 0.7229(12)
H5 H 0.7669 0.6657 0.7653
C8 C 0.6739(19) 0.4768(15) 0.7024(13)
H6 H 0.7513 0.4515 0.7271
C9 C 0.7754(13) 0.2098(11) 0.7154(10)
C10 C 0.9188(15) 0.2603(12) 0.7819(10)
C11 C 1.0664(16) 0.2806(13) 0.7534(11)
H7 H 1.0797 0.2556 0.6929
C12 C 1.1959(18) 0.3413(17) 0.8209(14)
H8 H 1.2967 0.3613 0.8037
C13 C 1.178(2) 0.3717(17) 0.9113(13)
C14 C 1.029(2) 0.3414(19) 0.9376(13)
H9 H 1.0162 0.3597 0.9986
C15 C 0.898(2) 0.2839(17) 0.8737(11)
H10 H 0.7976 0.2613 0.8916
C16 C 1.450(3) 0.470(3) 0.9509(17)
H11 H 1.4559 0.5352 0.9173
H12 H 1.4815 0.4009 0.9155
C17 C 0.3355(9) -0.1444(7) 0.5920(5)
C18 C 0.2655(10) -0.1308(8) 0.6795(6)
C19 C 0.2258(12) -0.2331(9) 0.7227(7)
H13 H 0.2475 -0.3088 0.6996
C20 C 0.1546(15) -0.2195(10) 0.7995(7)
H14 H 0.1286 -0.2870 0.8288
C21 C 0.1198(15) -0.1096(11) 0.8350(7)
C22 C 0.1548(15) -0.0095(11) 0.7923(8)
H15 H 0.1285 0.0641 0.8147
C23 C 0.2294(13) -0.0197(9) 0.7158(6)
H16 H 0.2563 0.0490 0.6876
C24 C 0.025(2) 0.0087(15) 0.9553(8)
H17 H -0.0555 0.0248 0.9202
H18 H 0.1216 0.0811 0.9624
C25 C 0.0451(12) 0.4552(10) 0.4891(8)
H19 H -0.0199 0.3778 0.4453
H20 H 0.1356 0.4965 0.4608
N1 N 0.3291(8) 0.1966(7) 0.5282(6)
N2 N 0.1742(15) 0.3066(11) 0.5216(12)
N3 N 0.5527(10) 0.3871(8) 0.6481(7)
O1 O 0.6418(11) 0.1821(10) 0.7361(7)
O2 O 0.7990(9) 0.2026(9) 0.6336(7)
O3 O 1.2949(17) 0.4198(16) 0.9803(10)
O4 O 0.3912(7) -0.0464(5) 0.5599(4)
O5 O 0.0463(14) -0.1104(9) 0.9120(6)
C26 C 0.099(2) 0.416(3) 0.5665(10)
H21 H 0.0127 0.3803 0.5992
H22 H 0.1777 0.4893 0.6074
O6 O 0.3342(8) -0.2550(6) 0.5509(4)
Cd1A Cd -0.55003(6) 0.83449(5) 0.42396(4)
Cd1A_2 Cd 0.44997(6) -0.16551(5) 0.42396(4)
Cd1A_3 Cd 2.44997(6) 0.83449(5) 1.42396(4)
Cd1_2 Cd -0.44997(6) 0.16551(5) 1.57604(4)
Cd1A_4 Cd -0.55003(6) -0.16551(5) 1.42396(4)
C1A C -0.0912(17) 0.8205(13) 0.5359(17)
H1A H 0.0046 0.8508 0.5719
C2A C -0.1942(12) 0.8832(11) 0.5221(10)
H2A H -0.1734 0.9715 0.5451
C3A C -0.3180(11) 0.6868(9) 0.4479(8)
C4A C -0.4424(11) 0.5783(9) 0.3908(7)
C5A C -0.4548(12) 0.4502(9) 0.3798(8)
H3A H -0.3820 0.4269 0.4108
C6A C -0.5775(19) 0.3573(13) 0.3218(14)
H4A H -0.5876 0.2701 0.3122
C7A C -0.6872(18) 0.3950(13) 0.2771(12)
H5A H -0.7669 0.3343 0.2347
C8A C -0.6739(19) 0.5232(15) 0.2976(13)
H6A H -0.7513 0.5485 0.2729
C9A C 2.2246(13) 0.7902(11) 1.2846(10)
C10A C 2.0812(15) 0.7397(12) 1.2181(10)
C11A C 1.9336(16) 0.7194(13) 1.2466(11)
H7A H 1.9203 0.7444 1.3071
C12A C 1.8041(18) 0.6587(17) 1.1791(14)
H8A H 1.7033 0.6387 1.1963
C13A C 1.822(2) 0.6283(17) 1.0887(13)
C14A C 1.971(2) 0.6586(19) 1.0624(13)
H9A H 1.9838 0.6403 1.0014
C15A C 2.102(2) 0.7161(17) 1.1263(11)
H10A H 2.2024 0.7387 1.1084
C16A C 1.550(3) 0.530(3) 1.0491(17)
H11A H 1.5441 0.4648 1.0827
H12A H 1.5185 0.5991 1.0845
C17A C -0.3355(9) 0.1444(7) 1.4080(5)
C18A C -0.2655(10) 0.1308(8) 1.3205(6)
C19A C -0.2258(12) 0.2331(9) 1.2773(7)
H13A H -0.2475 0.3088 1.3004
C20A C -0.1546(15) 0.2195(10) 1.2005(7)
H14A H -0.1286 0.2870 1.1712
C21A C -0.1198(15) 0.1096(11) 1.1650(7)
C22A C -0.1548(15) 0.0095(11) 1.2077(8)
H15A H -0.1285 -0.0641 1.1853
C23A C -0.2294(13) 0.0197(9) 1.2842(6)
H16A H -0.2563 -0.0490 1.3124
C24A C -0.025(2) -0.0087(15) 1.0447(8)
H17A H 0.0555 -0.0248 1.0798
H18A H -0.1216 -0.0811 1.0376
C25A C -0.0451(12) 0.5448(10) 0.5109(8)
H19A H 0.0199 0.6222 0.5547
H20A H -0.1356 0.5035 0.5392
N1A N -0.3291(8) 0.8034(7) 0.4718(6)
N2A N -0.1742(15) 0.6934(11) 0.4784(12)
N3A N -0.5527(10) 0.6129(8) 0.3519(7)
O1A O 2.3582(11) 0.8179(10) 1.2639(7)
O1A_2 O -0.6418(11) 0.8179(10) 0.2639(7)
O2A O 2.2010(9) 0.7974(9) 1.3664(7)
O2A_2 O -0.7990(9) 0.7974(9) 0.3664(7)
O3A O 1.7051(17) 0.5802(16) 1.0197(10)
O4A O -0.3912(7) 0.0464(5) 1.4401(4)
O4A_2 O 0.6088(7) 0.0464(5) 0.4401(4)
O4A_3 O -0.3912(7) 1.0464(5) 0.4401(4)
O4_2 O -0.6088(7) 0.9536(5) 0.5599(4)
O5A O -0.0463(14) 0.1104(9) 1.0880(6)
C26A C -0.099(2) 0.584(3) 0.4335(10)
H21A H -0.0127 0.6197 0.4008
H22A H -0.1777 0.5107 0.3926
O6A O -0.3342(8) 0.2550(6) 1.4491(4)
O6A_2 O 0.6658(8) 0.2550(6) 0.4491(4)
O6_2 O -0.6658(8) 0.7450(6) 0.5509(4)
O7 O -0.490(4) 0.059(4) -0.062(2)
loop_
_geom_bond_atom_site_label_1
_geom_bond_atom_site_label_2
_geom_bond_site_symmetry_1
_geom_bond_site_symmetry_2
Cd1 N1 1_555 1_555
C1 H1 1_555 1_555
C2 C1 1_555 1_555
H2 C2 1_555 1_555
C3 C4 1_555 1_555
C4 C5 1_555 1_555
C5 H3 1_555 1_555
C6 C5 1_555 1_555
H4 C6 1_555 1_555
C7 C6 1_555 1_555
H5 C7 1_555 1_555
C8 C7 1_555 1_555
H6 C8 1_555 1_555
C9 C10 1_555 1_555
C10 C11 1_555 1_555
C11 H7 1_555 1_555
C12 C11 1_555 1_555
H8 C12 1_555 1_555
C13 C12 1_555 1_555
C14 C13 1_555 1_555
H9 C14 1_555 1_555
C15 C10 1_555 1_555
H10 C15 1_555 1_555
C16 H11 1_555 1_555
H12 C16 1_555 1_555
C17 C18 1_555 1_555
C18 C19 1_555 1_555
C19 H13 1_555 1_555
C20 C19 1_555 1_555
H14 C20 1_555 1_555
C21 C20 1_555 1_555
C22 C21 1_555 1_555
H15 C22 1_555 1_555
C23 C18 1_555 1_555
H16 C23 1_555 1_555
C24 H17 1_555 1_555
H18 C24 1_555 1_555
C25 H19 1_555 1_555
H20 C25 1_555 1_555
N1 C2 1_555 1_555
N2 C1 1_555 1_555
N3 Cd1 1_555 1_555
O1 Cd1 1_555 1_555
O2 Cd1 1_555 1_555
O3 C13 1_555 1_555
O4 Cd1 1_555 1_555
O5 C21 1_555 1_555
C26 C25 1_555 1_555
H21 C26 1_555 1_555
H22 C26 1_555 1_555
O6 C17 1_555 1_555
Cd1A N1A 1_555 1_555
Cd1A_2 O4 1_555 1_555
Cd1A_3 O1A 1_555 1_555
Cd1_2 O4A 1_555 1_555
Cd1A_4 O4A 1_555 1_555
C1A H1A 1_555 1_555
C2A C1A 1_555 1_555
H2A C2A 1_555 1_555
C3A C4A 1_555 1_555
C4A C5A 1_555 1_555
C5A H3A 1_555 1_555
C6A C5A 1_555 1_555
H4A C6A 1_555 1_555
C7A C6A 1_555 1_555
H5A C7A 1_555 1_555
C8A C7A 1_555 1_555
H6A C8A 1_555 1_555
C9A C10A 1_555 1_555
C10A C11A 1_555 1_555
C11A H7A 1_555 1_555
C12A C11A 1_555 1_555
H8A C12A 1_555 1_555
C13A C12A 1_555 1_555
C14A C13A 1_555 1_555
H9A C14A 1_555 1_555
C15A C10A 1_555 1_555
H10A C15A 1_555 1_555
C16A C16 1_555 1_555
H11A C16A 1_555 1_555
H12A C16A 1_555 1_555
C17A C18A 1_555 1_555
C18A C19A 1_555 1_555
C19A H13A 1_555 1_555
C20A C19A 1_555 1_555
H14A C20A 1_555 1_555
C21A C20A 1_555 1_555
C22A C21A 1_555 1_555
H15A C22A 1_555 1_555
C23A C18A 1_555 1_555
H16A C23A 1_555 1_555
C24A C24 1_555 1_555
H17A C24A 1_555 1_555
H18A C24A 1_555 1_555
C25A C25 1_555 1_555
H19A C25A 1_555 1_555
H20A C25A 1_555 1_555
N1A C2A 1_555 1_555
N2A C1A 1_555 1_555
N3A Cd1A 1_555 1_555
O1A C9A 1_555 1_555
O1A_2 Cd1A 1_555 1_555
O2A Cd1A_3 1_555 1_555
O2A_2 Cd1A 1_555 1_555
O3A C13A 1_555 1_555
O4A C17A 1_555 1_555
O4A_2 Cd1 1_555 1_555
O4A_3 Cd1A 1_555 1_555
O4_2 Cd1A 1_555 1_555
O5A C21A 1_555 1_555
C26A C25A 1_555 1_555
H21A C26A 1_555 1_555
H22A C26A 1_555 1_555
O6A Cd1_2 1_555 1_555
O6A_2 Cd1 1_555 1_555
O6_2 Cd1A 1_555 1_555
C3 N1 1_555 1_555
C3 N2 1_555 1_555
C4 N3 1_555 1_555
C8 N3 1_555 1_555
C9 O1 1_555 1_555
C9 O2 1_555 1_555
C14 C15 1_555 1_555
C16 O3 1_555 1_555
C17 O4 1_555 1_555
C22 C23 1_555 1_555
C24 O5 1_555 1_555
N2 C26 1_555 1_555
O6 Cd1A_2 1_555 1_555
Cd1A_2 O4A_2 1_555 1_555
C3A N1A 1_555 1_555
C3A N2A 1_555 1_555
C4A N3A 1_555 1_555
C8A N3A 1_555 1_555
C9A O2A 1_555 1_555
C14A C15A 1_555 1_555
C16A O3A 1_555 1_555
C17A O6A 1_555 1_555
C22A C23A 1_555 1_555
C24A O5A 1_555 1_555
N2A C26A 1_555 1_555

#END
