
#######################################################################
#
#                 Cambridge Crystallographic Data Centre
#                                CCDC 
#
#######################################################################
#
# If this CIF has been generated from an entry in the Cambridge 
# Structural Database, then it will include bibliographic, chemical, 
# crystal, experimental, refinement or atomic coordinate data resulting 
# from the CCDC's data processing and validation procedures.
#
#######################################################################

data_GURVOF
_symmetry_cell_setting           triclinic
_symmetry_space_group_name_H-M   'P -1'
_symmetry_Int_Tables_number      2
_space_group_name_Hall           '-P 1'
loop_
_symmetry_equiv_pos_site_id
_symmetry_equiv_pos_as_xyz
1 x,y,z
2 -x,-y,-z
_cell_length_a                   7.366(3)
_cell_length_b                   9.445(3)
_cell_length_c                   16.515(4)
_cell_angle_alpha                91.937(7)
_cell_angle_beta                 90.571(6)
_cell_angle_gamma                92.767(7)
_cell_volume                     1146.91
loop_
_atom_site_label
_atom_site_type_symbol
_atom_site_fract_x
_atom_site_fract_y
_atom_site_fract_z
Cu1 Cu 0.1804(2) 0.36925(18) 0.39775(9)
Cu2 Cu 0.6520(2) 0.37940(18) 0.09975(9)
V1 V -0.0054(3) 0.2257(3) 0.24379(12)
V2 V 0.4976(3) 0.2212(3) 0.24886(12)
F1 F 0.0719(11) 0.1892(9) 0.3557(4)
F2 F 0.0748(11) 0.4229(9) 0.2955(4)
F3 F 0.2494(10) 0.2326(9) 0.2062(4)
F4 F 0.4352(11) 0.3151(9) 0.3472(4)
F5 F -0.2459(10) 0.2648(9) 0.2878(4)
F6 F 0.5410(11) 0.4227(9) 0.2009(4)
F7 F 0.5791(11) 0.1915(9) 0.1350(5)
F8 F -0.0688(10) 0.3326(9) 0.1513(4)
O1 O -0.0487(13) 0.0646(10) 0.2139(6)
O2 O 0.4922(14) 0.0584(11) 0.2712(5)
N1 N 0.2754(16) 0.5607(14) 0.4252(6)
N2 N 0.1840(16) 0.3144(13) 0.5116(6)
N3 N 0.2297(17) 0.5473(13) 0.5649(6)
H1 H 0.2177 0.5981 0.6085
N4 N 0.7058(16) 0.3115(14) -0.0112(7)
N5 N 0.7016(16) 0.5805(13) 0.0767(6)
N6 N 0.8156(17) 0.5383(12) -0.0546(6)
H2 H 0.8700 0.5795 -0.0939
C1 C 0.3350(14) 0.6402(11) 0.3609(6)
H3 H 0.3426 0.5947 0.3103
C2 C 0.3821(14) 0.7775(11) 0.3672(6)
H4 H 0.4182 0.8263 0.3217
C3 C 0.375(2) 0.8497(17) 0.4446(8)
H5 H 0.4024 0.9467 0.4506
C4 C 0.326(2) 0.7704(15) 0.5093(8)
H6 H 0.3258 0.8121 0.5612
C5 C 0.2766(18) 0.6263(16) 0.4973(8)
C6 C 0.2001(18) 0.4085(15) 0.5748(7)
C7 C 0.1868(18) 0.3616(16) 0.6550(7)
H7 H 0.2001 0.4259 0.6989
C8 C 0.154(2) 0.2202(17) 0.6671(8)
H8 H 0.1462 0.1883 0.7197
C9 C 0.132(2) 0.1222(16) 0.6012(8)
H9 H 0.1041 0.0267 0.6096
C10 C 0.153(2) 0.1705(16) 0.5250(9)
H10 H 0.1457 0.1062 0.4810
C11 C 0.6797(13) 0.1709(11) -0.0299(5)
H11 H 0.6296 0.1136 0.0096
C12 C 0.7216(13) 0.1070(11) -0.1026(5)
H12 H 0.7002 0.0100 -0.1123
C13 C 0.7973(19) 0.1948(16) -0.1605(8)
H13 H 0.8281 0.1558 -0.2107
C14 C 0.827(2) 0.3368(16) -0.1455(8)
H14 H 0.8779 0.3941 -0.1849
C15 C 0.7810(19) 0.3954(16) -0.0693(7)
C16 C 0.782(2) 0.6288(16) 0.0094(7)
C17 C 0.8354(19) 0.7686(16) 0.0009(8)
H15 H 0.8937 0.7962 -0.0462
C18 C 0.8038(19) 0.8696(18) 0.0618(8)
H16 H 0.8422 0.9643 0.0575
C19 C 0.7092(19) 0.8200(16) 0.1312(8)
H17 H 0.6793 0.8832 0.1728
C20 C 0.6635(18) 0.6796(15) 0.1358(8)
H18 H 0.6029 0.6490 0.1816
Cu2_2 Cu -0.3480(2) 0.37940(18) 0.09975(9)
V2_2 V -0.5024(3) 0.2212(3) 0.24886(12)
F5_2 F 0.7541(10) 0.2648(9) 0.2878(4)
F8_2 F 0.9312(10) 0.3326(9) 0.1513(4)
loop_
_geom_bond_atom_site_label_1
_geom_bond_atom_site_label_2
_geom_bond_site_symmetry_1
_geom_bond_site_symmetry_2
Cu1 F1 1_555 1_555
Cu2 F6 1_555 1_555
V1 F1 1_555 1_555
V2 F3 1_555 1_555
F2 Cu1 1_555 1_555
F3 V1 1_555 1_555
F4 Cu1 1_555 1_555
F5 V1 1_555 1_555
F6 V2 1_555 1_555
F7 Cu2 1_555 1_555
F8 V1 1_555 1_555
O1 V1 1_555 1_555
O2 V2 1_555 1_555
N1 Cu1 1_555 1_555
N2 Cu1 1_555 1_555
N3 H1 1_555 1_555
N4 Cu2 1_555 1_555
N5 Cu2 1_555 1_555
N6 H2 1_555 1_555
C1 N1 1_555 1_555
H3 C1 1_555 1_555
C2 C1 1_555 1_555
H4 C2 1_555 1_555
C3 C2 1_555 1_555
H5 C3 1_555 1_555
C4 C3 1_555 1_555
H6 C4 1_555 1_555
C5 N1 1_555 1_555
C6 N2 1_555 1_555
C7 C6 1_555 1_555
H7 C7 1_555 1_555
C8 C7 1_555 1_555
H8 C8 1_555 1_555
C9 C8 1_555 1_555
H9 C9 1_555 1_555
C10 N2 1_555 1_555
H10 C10 1_555 1_555
C11 N4 1_555 1_555
H11 C11 1_555 1_555
C12 C11 1_555 1_555
H12 C12 1_555 1_555
C13 C12 1_555 1_555
H13 C13 1_555 1_555
C14 C13 1_555 1_555
H14 C14 1_555 1_555
C15 N4 1_555 1_555
C16 N5 1_555 1_555
C17 C16 1_555 1_555
H15 C17 1_555 1_555
C18 C17 1_555 1_555
H16 C18 1_555 1_555
C19 C18 1_555 1_555
H17 C19 1_555 1_555
C20 N5 1_555 1_555
H18 C20 1_555 1_555
Cu2_2 F8 1_555 1_555
V2_2 F5 1_555 1_555
F5_2 V2 1_555 1_555
F8_2 Cu2 1_555 1_555
V1 F2 1_555 1_555
V2 F4 1_555 1_555
V2 F7 1_555 1_555
N3 C5 1_555 1_555
N3 C6 1_555 1_555
N6 C15 1_555 1_555
N6 C16 1_555 1_555
C4 C5 1_555 1_555
C9 C10 1_555 1_555
C14 C15 1_555 1_555
C19 C20 1_555 1_555

#END
