
#######################################################################
#
#                 Cambridge Crystallographic Data Centre
#                                CCDC 
#
#######################################################################
#
# If this CIF has been generated from an entry in the Cambridge 
# Structural Database, then it will include bibliographic, chemical, 
# crystal, experimental, refinement or atomic coordinate data resulting 
# from the CCDC's data processing and validation procedures.
#
#######################################################################

data_GURVUL01
_symmetry_cell_setting           triclinic
_symmetry_space_group_name_H-M   'P -1'
_symmetry_Int_Tables_number      2
_space_group_name_Hall           '-P 1'
loop_
_symmetry_equiv_pos_site_id
_symmetry_equiv_pos_as_xyz
1 x,y,z
2 -x,-y,-z
_cell_length_a                   7.3139(10)
_cell_length_b                   10.1584(14)
_cell_length_c                   10.6662(15)
_cell_angle_alpha                81.723(2)
_cell_angle_beta                 70.044(2)
_cell_angle_gamma                87.918(2)
_cell_volume                     737.059
loop_
_atom_site_label
_atom_site_type_symbol
_atom_site_fract_x
_atom_site_fract_y
_atom_site_fract_z
Cu1 Cu 0.43604(8) 0.82187(5) 0.19093(6)
V1 V 0.08873(11) 0.90329(7) 0.58490(8)
V2 V 0.43437(11) 1.06336(7) 0.38078(7)
V3 V 0.86943(11) 0.95158(8) -0.09994(8)
O1 O 0.6864(5) 0.8570(3) -0.0072(3)
O2 O 0.2101(5) 0.9132(3) 0.1702(4)
O3 O 0.5047(5) 0.9856(3) 0.2455(3)
O4 O 0.4522(5) 1.2229(3) 0.3360(3)
O5 O 0.1525(4) 1.0411(3) 0.4249(3)
O6 O 0.3369(4) 0.9675(3) 0.5657(3)
O7 O 0.1286(5) 0.7646(3) 0.5273(4)
O8 O 1.0140(5) 0.8637(3) -0.2376(3)
O9 O 1.0000 1.0000 0.0000
N1 N 0.4126(6) 0.5104(4) 0.2858(4)
H1 H 0.3540 0.4451 0.3452
N2 N 0.5967(5) 0.7016(4) 0.2728(4)
N3 N 0.3569(5) 0.6709(4) 0.1223(4)
C1 C 0.5651(7) 0.5705(4) 0.3070(5)
C2 C 0.6845(8) 0.4896(5) 0.3631(5)
H2 H 0.6593 0.3987 0.3877
C3 C 0.8392(8) 0.5462(5) 0.3815(5)
H3 H 0.9196 0.4941 0.4191
C4 C 0.8749(7) 0.6820(5) 0.3435(5)
H4 H 0.9790 0.7224 0.3551
C5 C 0.7536(7) 0.7546(5) 0.2888(5)
H5 H 0.7796 0.8451 0.2610
C6 C 0.3026(7) 0.6990(5) 0.0121(5)
H6 H 0.3138 0.7867 -0.0298
C7 C 0.2327(7) 0.6063(5) -0.0408(5)
H7 H 0.1988 0.6293 -0.1175
C8 C 0.2134(7) 0.4753(5) 0.0241(5)
H8 H 0.1639 0.4099 -0.0086
C9 C 0.2667(7) 0.4432(5) 0.1346(5)
H9 H 0.2518 0.3567 0.1797
C10 C 0.3454(7) 0.5445(4) 0.1795(5)
Cu1A Cu 0.56396(8) 1.17813(5) -0.19093(6)
V1A V -0.08873(11) 1.09671(7) 0.41510(8)
V1_2 V 1.08873(11) 0.90329(7) -0.41510(8)
V1A_2 V 0.91127(11) 1.09671(7) 0.41510(8)
V2A V 0.56563(11) 0.93664(7) 0.61922(7)
V2A_2 V -0.43437(11) 0.93664(7) 0.61922(7)
V2A_3 V 0.56563(11) 0.93664(7) -0.38078(7)
V3A V 0.13057(11) 1.04842(8) 0.09994(8)
V3A_2 V 1.13057(11) 1.04842(8) 0.09994(8)
O1A O 0.3136(5) 1.1430(3) 0.0072(3)
O2A O 0.7899(5) 1.0868(3) -0.1702(4)
O3A O 0.4953(5) 1.0144(3) -0.2455(3)
O3A_2 O 0.4953(5) 1.0144(3) 0.7545(3)
O4A O 0.5478(5) 0.7771(3) 0.6640(3)
O5A O -0.1525(4) 0.9589(3) 0.5751(3)
O5A_2 O 0.8475(4) 0.9589(3) 0.5751(3)
O6A O 0.6631(4) 1.0325(3) 0.4343(3)
O6A_2 O -0.3369(4) 1.0325(3) 0.4343(3)
O7A O -0.1286(5) 1.2354(3) 0.4727(4)
O8A O -0.0140(5) 1.1363(3) 0.2376(3)
O8_2 O 0.0140(5) 0.8637(3) 0.7624(3)
O9_2 O 0.0000 1.0000 0.0000
N1A N 0.5874(6) 1.4896(4) -0.2858(4)
H1A H 0.6460 1.5549 -0.3452
N2A N 0.4033(5) 1.2984(4) -0.2728(4)
N3A N 0.6431(5) 1.3291(4) -0.1223(4)
C1A C 0.4349(7) 1.4295(4) -0.3070(5)
C2A C 0.3155(8) 1.5104(5) -0.3631(5)
H2A H 0.3407 1.6013 -0.3877
C3A C 0.1608(8) 1.4538(5) -0.3815(5)
H3A H 0.0804 1.5059 -0.4191
C4A C 0.1251(7) 1.3180(5) -0.3435(5)
H4A H 0.0210 1.2776 -0.3551
C5A C 0.2464(7) 1.2454(5) -0.2888(5)
H5A H 0.2204 1.1549 -0.2610
C6A C 0.6974(7) 1.3010(5) -0.0121(5)
H6A H 0.6862 1.2133 0.0298
C7A C 0.7673(7) 1.3937(5) 0.0408(5)
H7A H 0.8012 1.3707 0.1175
C8A C 0.7866(7) 1.5247(5) -0.0241(5)
H8A H 0.8361 1.5901 0.0086
C9A C 0.7333(7) 1.5568(5) -0.1346(5)
H9A H 0.7482 1.6433 -0.1797
C10A C 0.6546(7) 1.4555(4) -0.1795(5)
loop_
_geom_bond_atom_site_label_1
_geom_bond_atom_site_label_2
_geom_bond_site_symmetry_1
_geom_bond_site_symmetry_2
Cu1 O1 1_555 1_555
V1 O5 1_555 1_555
V2 O3 1_555 1_555
V3 O1 1_555 1_555
O2 Cu1 1_555 1_555
O3 Cu1 1_555 1_555
O4 V2 1_555 1_555
O5 V2 1_555 1_555
O6 V1 1_555 1_555
O7 V1 1_555 1_555
O8 V3 1_555 1_555
O9 V3 1_555 1_555
N1 H1 1_555 1_555
N2 Cu1 1_555 1_555
N3 Cu1 1_555 1_555
C1 N1 1_555 1_555
C2 C1 1_555 1_555
H2 C2 1_555 1_555
C3 C2 1_555 1_555
H3 C3 1_555 1_555
C4 C3 1_555 1_555
H4 C4 1_555 1_555
C5 N2 1_555 1_555
H5 C5 1_555 1_555
C6 N3 1_555 1_555
H6 C6 1_555 1_555
C7 C6 1_555 1_555
H7 C7 1_555 1_555
C8 C7 1_555 1_555
H8 C8 1_555 1_555
C9 C8 1_555 1_555
H9 C9 1_555 1_555
C10 N1 1_555 1_555
Cu1A O1A 1_555 1_555
V1A O5 1_555 1_555
V1_2 O8 1_555 1_555
V1A_2 O5A_2 1_555 1_555
V2A O6 1_555 1_555
V2A_2 O5A 1_555 1_555
V2A_3 O3A 1_555 1_555
V3A O2 1_555 1_555
V3A_2 O9 1_555 1_555
O1A V3A 1_555 1_555
O2A V3 1_555 1_555
O3A Cu1A 1_555 1_555
O3A_2 V2A 1_555 1_555
O4A V2A 1_555 1_555
O5A V1 1_555 1_555
O5A_2 V2A 1_555 1_555
O6A V2 1_555 1_555
O6A_2 V1A 1_555 1_555
O7A V1A 1_555 1_555
O8A V1A 1_555 1_555
O8_2 V1 1_555 1_555
O9_2 V3A 1_555 1_555
N1A H1A 1_555 1_555
N2A Cu1A 1_555 1_555
N3A Cu1A 1_555 1_555
C1A N1A 1_555 1_555
C2A C1A 1_555 1_555
H2A C2A 1_555 1_555
C3A C2A 1_555 1_555
H3A C3A 1_555 1_555
C4A C3A 1_555 1_555
H4A C4A 1_555 1_555
C5A N2A 1_555 1_555
H5A C5A 1_555 1_555
C6A N3A 1_555 1_555
H6A C6A 1_555 1_555
C7A C6A 1_555 1_555
H7A C7A 1_555 1_555
C8A C7A 1_555 1_555
H8A C8A 1_555 1_555
C9A C8A 1_555 1_555
H9A C9A 1_555 1_555
C10A N1A 1_555 1_555
V2 O6 1_555 1_555
N2 C1 1_555 1_555
N3 C10 1_555 1_555
C4 C5 1_555 1_555
C9 C10 1_555 1_555
Cu1A O2A 1_555 1_555
V1A O5A 1_555 1_555
V1A_2 O6A 1_555 1_555
V2A O6A 1_555 1_555
V2A_2 O6A_2 1_555 1_555
V3A O8A 1_555 1_555
N2A C1A 1_555 1_555
N3A C10A 1_555 1_555
C4A C5A 1_555 1_555
C9A C10A 1_555 1_555

#END
