
#######################################################################
#
#                 Cambridge Crystallographic Data Centre
#                                CCDC 
#
#######################################################################
#
# If this CIF has been generated from an entry in the Cambridge 
# Structural Database, then it will include bibliographic, chemical, 
# crystal, experimental, refinement or atomic coordinate data resulting 
# from the CCDC's data processing and validation procedures.
#
#######################################################################

data_GURVUL
_symmetry_cell_setting           triclinic
_symmetry_space_group_name_H-M   'P -1'
_symmetry_Int_Tables_number      2
_space_group_name_Hall           '-P 1'
loop_
_symmetry_equiv_pos_site_id
_symmetry_equiv_pos_as_xyz
1 x,y,z
2 -x,-y,-z
_cell_length_a                   7.3310(9)
_cell_length_b                   10.1230(12)
_cell_length_c                   10.5780(14)
_cell_angle_alpha                95.986(4)
_cell_angle_beta                 110.160(4)
_cell_angle_gamma                92.605(3)
_cell_volume                     730.108
loop_
_atom_site_label
_atom_site_type_symbol
_atom_site_fract_x
_atom_site_fract_y
_atom_site_fract_z
Cu1 Cu 0.62652(8) 0.17630(5) 0.19170(6)
V1 V 0.81539(11) -0.06583(7) 0.38153(8)
V2 V 0.32642(11) -0.09795(7) 0.41783(8)
V3 V 0.77022(12) 0.05040(8) -0.10140(8)
O1 O 0.7901(5) -0.2262(3) 0.3393(4)
O2 O 0.5793(5) -0.0452(3) 0.4270(3)
O3 O 0.9034(5) 0.0317(3) 0.5661(3)
O4 O 0.7478(5) 0.0111(3) 0.2433(3)
O5 O 0.3404(5) -0.2350(3) 0.4830(4)
O6 O 0.7778(5) 0.1425(3) -0.2388(3)
O7 O 1.0000 0.0000 0.0000
O8 O 0.3804(5) 0.0859(3) 0.1756(4)
O9 O 0.6790(5) 0.1420(3) -0.0070(4)
N1 N 0.4785(6) 0.3274(4) 0.1216(4)
N2 N 0.8698(6) 0.2968(4) 0.2708(4)
N3 N 0.7002(6) 0.4884(4) 0.2878(4)
H1 H 0.720(8) 0.573(2) 0.302(6)
C1 C 0.3126(7) 0.2969(5) 0.0109(5)
H2 H 0.2818 0.2092 -0.0306
C2 C 0.1900(8) 0.3911(5) -0.0412(5)
H3 H 0.0785 0.3683 -0.1178
C3 C 0.2358(7) 0.5239(5) 0.0236(5)
H4 H 0.1531 0.5894 -0.0087
C4 C 0.4040(7) 0.5554(5) 0.1350(5)
H5 H 0.4364 0.6421 0.1793
C5 C 0.5255(7) 0.4542(5) 0.1802(5)
C6 C 0.8742(7) 0.4284(4) 0.3063(5)
C7 C 1.0476(8) 0.5101(5) 0.3641(5)
H6 H 1.0459 0.6005 0.3904
C8 C 1.2224(7) 0.4550(5) 0.3817(5)
H7 H 1.3400 0.5078 0.4197
C9 C 1.2198(8) 0.3178(5) 0.3414(5)
H8 H 1.3350 0.2782 0.3507
C10 C 1.0428(7) 0.2441(5) 0.2879(5)
H9 H 1.0409 0.1532 0.2620
Cu1A Cu 0.37348(8) -0.17630(5) -0.19170(6)
V1A V 1.18461(11) 0.06583(7) 0.61847(8)
V1A_2 V 0.18461(11) 0.06583(7) 0.61847(8)
V1A_3 V 0.18461(11) 0.06583(7) -0.38153(8)
V2A V 0.67358(11) 0.09795(7) -0.41783(8)
V2A_2 V 0.67358(11) 0.09795(7) 0.58217(8)
V2_2 V 1.32642(11) -0.09795(7) 0.41783(8)
V3A V 0.22978(12) -0.05040(8) 0.10140(8)
V3A_2 V 1.22978(12) -0.05040(8) 0.10140(8)
O1A O 1.2099(5) 0.2262(3) 0.6607(4)
O2A O 0.4207(5) 0.0452(3) 0.5730(3)
O2A_2 O 1.4207(5) 0.0452(3) 0.5730(3)
O2A_3 O 0.4207(5) 0.0452(3) -0.4270(3)
O2_2 O 0.5793(5) -0.0452(3) -0.5730(3)
O3A O 1.0966(5) -0.0317(3) 0.4339(3)
O3A_2 O 0.0966(5) -0.0317(3) 0.4339(3)
O3_2 O 0.9034(5) 0.0317(3) -0.4339(3)
O4A O 0.2522(5) -0.0111(3) -0.2433(3)
O4A_2 O 1.2522(5) -0.0111(3) 0.7567(3)
O5A O 0.6596(5) 0.2350(3) -0.4830(4)
O6A O 0.2222(5) -0.1425(3) 0.2388(3)
O7_2 O 0.0000 0.0000 0.0000
O8A O 0.6196(5) -0.0859(3) -0.1756(4)
O9A O 0.3210(5) -0.1420(3) 0.0070(4)
N1A N 0.5215(6) -0.3274(4) -0.1216(4)
N2A N 0.1302(6) -0.2968(4) -0.2708(4)
N3A N 0.2998(6) -0.4884(4) -0.2878(4)
H1A H 0.280(8) -0.573(2) -0.302(6)
C1A C 0.6874(7) -0.2969(5) -0.0109(5)
H2A H 0.7182 -0.2092 0.0306
C2A C 0.8100(8) -0.3911(5) 0.0412(5)
H3A H 0.9215 -0.3683 0.1178
C3A C 0.7642(7) -0.5239(5) -0.0236(5)
H4A H 0.8469 -0.5894 0.0087
C4A C 0.5960(7) -0.5554(5) -0.1350(5)
H5A H 0.5636 -0.6421 -0.1793
C5A C 0.4745(7) -0.4542(5) -0.1802(5)
C6A C 0.1258(7) -0.4284(4) -0.3063(5)
C7A C -0.0476(8) -0.5101(5) -0.3641(5)
H6A H -0.0459 -0.6005 -0.3904
C8A C -0.2224(7) -0.4550(5) -0.3817(5)
H7A H -0.3400 -0.5078 -0.4197
C9A C -0.2198(8) -0.3178(5) -0.3414(5)
H8A H -0.3350 -0.2782 -0.3507
C10A C -0.0428(7) -0.2441(5) -0.2879(5)
H9A H -0.0409 -0.1532 -0.2620
loop_
_geom_bond_atom_site_label_1
_geom_bond_atom_site_label_2
_geom_bond_site_symmetry_1
_geom_bond_site_symmetry_2
Cu1 O4 1_555 1_555
V1 O1 1_555 1_555
V2 O2 1_555 1_555
V3 O6 1_555 1_555
O2 V1 1_555 1_555
O3 V1 1_555 1_555
O4 V1 1_555 1_555
O5 V2 1_555 1_555
O6 V2A 1_555 1_555
O7 V3 1_555 1_555
O8 Cu1 1_555 1_555
O9 Cu1 1_555 1_555
N1 Cu1 1_555 1_555
N2 Cu1 1_555 1_555
N3 H1 1_555 1_555
C1 N1 1_555 1_555
H2 C1 1_555 1_555
C2 C1 1_555 1_555
H3 C2 1_555 1_555
C3 C2 1_555 1_555
H4 C3 1_555 1_555
C4 C3 1_555 1_555
H5 C4 1_555 1_555
C5 N1 1_555 1_555
C6 N2 1_555 1_555
C7 C6 1_555 1_555
H6 C7 1_555 1_555
C8 C7 1_555 1_555
H7 C8 1_555 1_555
C9 C8 1_555 1_555
H8 C9 1_555 1_555
C10 N2 1_555 1_555
H9 C10 1_555 1_555
Cu1A O4A 1_555 1_555
V1A O3 1_555 1_555
V1A_2 O2A 1_555 1_555
V1A_3 O2A_3 1_555 1_555
V2A O2A_3 1_555 1_555
V2A_2 O2 1_555 1_555
V2_2 O2A_2 1_555 1_555
V3A O8 1_555 1_555
V3A_2 O7 1_555 1_555
O1A V1A 1_555 1_555
O2A V2 1_555 1_555
O2A_2 V1A 1_555 1_555
O2_2 V2A 1_555 1_555
O3A V1 1_555 1_555
O3A_2 V2 1_555 1_555
O3_2 V2A 1_555 1_555
O4A V1A_3 1_555 1_555
O4A_2 V1A 1_555 1_555
O5A V2A 1_555 1_555
O6A V2 1_555 1_555
O7_2 V3A 1_555 1_555
O8A V3 1_555 1_555
O9A Cu1A 1_555 1_555
N1A Cu1A 1_555 1_555
N2A Cu1A 1_555 1_555
N3A H1A 1_555 1_555
C1A N1A 1_555 1_555
H2A C1A 1_555 1_555
C2A C1A 1_555 1_555
H3A C2A 1_555 1_555
C3A C2A 1_555 1_555
H4A C3A 1_555 1_555
C4A C3A 1_555 1_555
H5A C4A 1_555 1_555
C5A N1A 1_555 1_555
C6A N2A 1_555 1_555
C7A C6A 1_555 1_555
H6A C7A 1_555 1_555
C8A C7A 1_555 1_555
H7A C8A 1_555 1_555
C9A C8A 1_555 1_555
H8A C9A 1_555 1_555
C10A N2A 1_555 1_555
H9A C10A 1_555 1_555
V3 O9 1_555 1_555
O3 V2A_2 1_555 1_555
N3 C5 1_555 1_555
N3 C6 1_555 1_555
C4 C5 1_555 1_555
C9 C10 1_555 1_555
Cu1A O8A 1_555 1_555
V1A O3A 1_555 1_555
V1A_2 O3A_2 1_555 1_555
V2A_2 O2A 1_555 1_555
V2_2 O3A 1_555 1_555
V3A O6A 1_555 1_555
V3A O9A 1_555 1_555
N3A C5A 1_555 1_555
N3A C6A 1_555 1_555
C4A C5A 1_555 1_555
C9A C10A 1_555 1_555

#END
