
#######################################################################
#
#                 Cambridge Crystallographic Data Centre
#                                CCDC 
#
#######################################################################
#
# If this CIF has been generated from an entry in the Cambridge 
# Structural Database, then it will include bibliographic, chemical, 
# crystal, experimental, refinement or atomic coordinate data resulting 
# from the CCDC's data processing and validation procedures.
#
#######################################################################

data_GURVIZ
_symmetry_cell_setting           triclinic
_symmetry_space_group_name_H-M   'P -1'
_symmetry_Int_Tables_number      2
_space_group_name_Hall           '-P 1'
loop_
_symmetry_equiv_pos_site_id
_symmetry_equiv_pos_as_xyz
1 x,y,z
2 -x,-y,-z
_cell_length_a                   20.543(2)
_cell_length_b                   20.675(2)
_cell_length_c                   21.760(3)
_cell_angle_alpha                110.215(2)
_cell_angle_beta                 99.8030(10)
_cell_angle_gamma                115.295(2)
_cell_volume                     7269.96
loop_
_atom_site_label
_atom_site_type_symbol
_atom_site_fract_x
_atom_site_fract_y
_atom_site_fract_z
Eu1 Eu 0.12050(3) 0.66403(3) 0.82012(3)
Eu2 Eu 0.37397(3) 0.21616(3) 0.58193(3)
N1 N 0.3184(5) 0.7051(6) 0.7591(5)
H1 H 0.3442 0.6857 0.7411
N2 N 0.3204(5) 0.4046(6) 0.7142(5)
H2 H 0.3115 0.4423 0.7168
N3 N 0.0971(5) 0.8675(5) 0.8110(5)
H3 H 0.1005 0.8992 0.7929
N4 N 0.3448(6) 1.1426(6) 0.7580(5)
H4 H 0.3188 1.1068 0.7698
N5 N -0.1077(5) 0.5942(6) 0.8485(5)
H5 H -0.1490 0.5557 0.8464
N6 N -0.3952(5) 0.4090(6) 0.7704(5)
H6 H -0.3467 0.4279 0.7910
N7 N 0.2256(5) 0.5672(6) 0.8561(5)
N8 N 0.2590(6) 0.5206(7) 1.0587(6)
N9 N 0.0624(7) 0.5831(8) 0.9956(6)
N10 N 0.1464(6) 0.8041(7) 0.9939(6)
N11 N 0.3880(8) 1.0134(8) 1.1951(7)
N12 N 0.3924(7) 0.8180(9) 0.9904(6)
N13 N -0.0015(6) 0.5812(6) 0.6326(6)
N14 N -0.1460(7) 0.2982(8) 0.4525(6)
N15 N 0.0190(6) 0.3747(6) 0.6872(5)
N16 N 0.4682(5) 0.3631(6) 0.5239(5)
N17 N 0.5291(6) 0.3001(8) 0.3126(6)
N18 N 0.4851(7) 0.1163(7) 0.4131(6)
N19 N 0.4372(5) 0.0748(6) 0.5691(6)
N20 N 0.2825(7) -0.2171(7) 0.4399(6)
N21 N 0.1624(6) -0.0675(7) 0.4093(6)
N22 N 0.1651(6) 0.1136(6) 0.5159(5)
N23 N -0.0036(6) 0.0528(6) 0.2935(5)
N24 N 0.2771(6) 0.2331(7) 0.3685(6)
O1 O 0.2603(4) 0.5513(4) 0.6626(4)
O2 O 0.3129(4) 0.4591(4) 0.6263(4)
O3 O 0.2012(4) 0.6843(4) 0.7533(4)
O4 O 0.3551(4) 0.3203(4) 0.6541(4)
O5 O 0.1803(4) 0.9017(4) 0.7297(4)
O6 O 0.2183(4) 0.9988(4) 0.6742(4)
O7 O 0.1328(4) 0.7827(4) 0.8220(4)
O8 O 0.3483(4) 1.1771(4) 0.6715(4)
O9 O -0.1651(4) 0.4414(5) 0.7883(4)
O10 O -0.3141(4) 0.3452(4) 0.7246(4)
O11 O -0.0101(4) 0.6225(5) 0.8098(4)
O12 O -0.5058(4) 0.3087(4) 0.6777(4)
O13 O 0.1023(4) 0.5923(4) 0.8851(4)
O14 O 0.2085(4) 0.6010(4) 0.8260(4)
O15 O 0.2661(5) 0.5391(6) 0.8396(5)
O16 O 0.3107(6) 0.5111(7) 1.0466(6)
O17 O 0.2425(5) 0.5205(6) 1.1108(5)
O18 O 0.0785(7) 0.6360(9) 1.0508(7)
O19 O -0.0023(6) 0.5408(7) 0.9505(6)
O20 O 0.2362(4) 0.7580(5) 0.9203(4)
O21 O 0.1074(4) 0.7469(5) 0.9375(4)
O22 O 0.1168(6) 0.8325(8) 1.0299(6)
O23 O 0.3520(7) 1.0387(7) 1.2211(6)
O24 O 0.4572(8) 1.0428(8) 1.2218(6)
O25 O 0.4561(7) 0.8693(8) 0.9972(7)
O26 O 0.3621(6) 0.7441(7) 0.9583(6)
O27 O 0.0553(4) 0.5319(4) 0.7301(4)
O28 O 0.0384(4) 0.6368(5) 0.6928(4)
O29 O -0.0259(8) 0.5929(6) 0.5862(6)
O30 O -0.1595(6) 0.3213(7) 0.4102(5)
O31 O -0.1754(6) 0.2277(7) 0.4413(5)
O32 O -0.0264(6) 0.3188(7) 0.6920(6)
O33 O 0.0885(6) 0.4139(6) 0.7191(6)
O34 O 0.4498(4) 0.2119(4) 0.5146(4)
O35 O 0.4495(4) 0.3474(4) 0.5702(4)
O36 O 0.4813(5) 0.4268(5) 0.5242(4)
O37 O 0.5345(6) 0.3629(7) 0.3154(5)
O38 O 0.5414(6) 0.2566(7) 0.2684(5)
O39 O 0.5256(7) 0.0979(7) 0.3894(6)
O40 O 0.4387(8) 0.0763(7) 0.4295(7)
O41 O 0.3016(4) 0.0765(4) 0.5078(4)
O42 O 0.4424(4) 0.1398(4) 0.6024(4)
O43 O 0.4956(5) 0.0697(5) 0.5795(6)
O44 O 0.3446(7) -0.2165(6) 0.4579(6)
O45 O 0.2179(6) -0.2795(5) 0.4057(5)
O46 O 0.0997(6) -0.1234(8) 0.3961(6)
O47 O 0.1712(6) -0.0186(6) 0.3875(6)
O48 O 0.2975(4) 0.2119(4) 0.4868(4)
O49 O 0.2280(4) 0.1567(5) 0.5664(4)
O50 O 0.1089(5) 0.0624(6) 0.5178(5)
O51 O -0.0579(5) 0.0023(6) 0.3003(5)
O52 O -0.0128(5) 0.0687(6) 0.2451(5)
O53 O 0.2867(6) 0.2009(7) 0.3163(6)
O54 O 0.3178(5) 0.3036(6) 0.4093(5)
C1 C 0.2645(6) 0.5787(7) 0.5622(6)
H7 H 0.2456 0.6128 0.5759
C2 C 0.2755(6) 0.5426(6) 0.6018(5)
C3 C 0.3054(6) 0.4917(6) 0.5811(5)
C4 C 0.3231(6) 0.4771(6) 0.5227(5)
H8 H 0.3433 0.4441 0.5105
C5 C 0.3106(6) 0.5123(6) 0.4801(6)
C6 C 0.2820(6) 0.5642(7) 0.5003(6)
C7 C 0.2716(7) 0.6006(7) 0.4585(6)
H9 H 0.2542 0.6361 0.4721
C8 C 0.2869(7) 0.5839(7) 0.3979(6)
H10 H 0.2776 0.6062 0.3695
C9 C 0.3163(7) 0.5338(7) 0.3784(6)
H11 H 0.3280 0.5242 0.3380
C10 C 0.3280(6) 0.4986(7) 0.4185(6)
H12 H 0.3477 0.4653 0.4051
C11 C 0.2433(6) 0.6595(7) 0.7322(5)
C12 C 0.2065(6) 0.5737(6) 0.6748(6)
H13 H 0.1705 0.5370 0.6877
H14 H 0.1769 0.5678 0.6313
C13 C 0.3625(7) 0.7882(8) 0.8190(7)
H15 H 0.4148 0.8019 0.8415
H16 H 0.3382 0.7896 0.8536
C14 C 0.3668(7) 0.8520(9) 0.7969(9)
C15 C 0.3907(8) 0.9270(10) 0.8520(10)
H17 H 0.4029 0.9377 0.8989
C16 C 0.3950(9) 0.9873(11) 0.8299(12)
H18 H 0.4105 1.0393 0.8625
C17 C 0.3763(9) 0.9652(12) 0.7627(13)
H19 H 0.3814 1.0063 0.7515
C18 C 0.3513(9) 0.8954(12) 0.7070(11)
H20 H 0.3368 0.8858 0.6604
C19 C 0.3498(8) 0.8362(9) 0.7292(10)
H21 H 0.3366 0.7857 0.6953
C20 C 0.3385(6) 0.3731(6) 0.6606(6)
C21 C 0.3398(6) 0.4049(6) 0.6080(6)
H22 H 0.3921 0.4329 0.6092
H23 H 0.3064 0.3605 0.5607
C22 C 0.3144(8) 0.3796(8) 0.7689(7)
H24 H 0.3302 0.4264 0.8128
H25 H 0.3506 0.3620 0.7758
C23 C 0.2359(8) 0.3137(8) 0.7540(7)
C24 C 0.1787(9) 0.3265(10) 0.7634(8)
H26 H 0.1887 0.3791 0.7825
C25 C 0.1040(10) 0.2617(11) 0.7447(9)
H27 H 0.0667 0.2735 0.7538
C26 C 0.0833(11) 0.1844(12) 0.7146(10)
H28 H 0.0344 0.1431 0.7058
C27 C 0.1350(12) 0.1698(12) 0.6984(10)
H29 H 0.1207 0.1164 0.6713
C28 C 0.2119(9) 0.2320(10) 0.7203(9)
H30 H 0.2483 0.2183 0.7121
C29 C 0.0564(6) 0.8009(7) 0.6301(6)
H31 H 0.0431 0.7667 0.6505
C30 C 0.1258(6) 0.8725(6) 0.6640(6)
C31 C 0.1471(6) 0.9267(6) 0.6336(6)
C32 C 0.0990(6) 0.9043(7) 0.5699(6)
H32 H 0.1140 0.9381 0.5493
C33 C 0.0264(6) 0.8309(7) 0.5338(6)
C34 C 0.0039(6) 0.7776(7) 0.5640(6)
C35 C -0.0684(7) 0.7042(7) 0.5272(7)
H33 H -0.0830 0.6693 0.5469
C36 C -0.1159(7) 0.6836(8) 0.4658(8)
H34 H -0.1637 0.6352 0.4430
C37 C -0.0942(7) 0.7352(8) 0.4340(7)
H35 H -0.1280 0.7194 0.3902
C38 C -0.0267(6) 0.8056(7) 0.4655(6)
H36 H -0.0137 0.8383 0.4437
C39 C 0.1344(6) 0.8290(6) 0.7973(6)
C40 C 0.1797(6) 0.8423(7) 0.7501(6)
H37 H 0.2328 0.8595 0.7747
H38 H 0.1573 0.7913 0.7079
C41 C 0.0508(6) 0.8599(7) 0.8544(6)
H39 H 0.0619 0.9133 0.8852
H40 H 0.0661 0.8389 0.8840
C42 C -0.0348(7) 0.8055(7) 0.8126(7)
C43 C -0.0868(7) 0.8265(8) 0.8356(7)
H41 H -0.0670 0.8754 0.8756
C44 C -0.1651(8) 0.7765(9) 0.8004(8)
H42 H -0.1984 0.7906 0.8171
C45 C -0.1949(8) 0.7050(9) 0.7399(8)
H43 H -0.2484 0.6708 0.7162
C46 C -0.1459(8) 0.6830(9) 0.7137(8)
H44 H -0.1662 0.6354 0.6722
C47 C -0.0662(7) 0.7338(8) 0.7512(7)
H45 H -0.0331 0.7193 0.7346
C48 C 0.3172(6) 1.1284(7) 0.6922(7)
C49 C 0.2412(6) 1.0511(6) 0.6425(6)
H46 H 0.2016 1.0635 0.6311
H47 H 0.2463 1.0239 0.5989
C50 C 0.4186(8) 1.2175(8) 0.8127(8)
H48 H 0.4141 1.2305 0.8585
H49 H 0.4262 1.2620 0.8029
C51 C 0.4900(8) 1.2099(9) 0.8160(8)
C52 C 0.5595(11) 1.2636(11) 0.8763(10)
H50 H 0.5615 1.3049 0.9135
C53 C 0.6227(11) 1.2580(12) 0.8827(11)
H51 H 0.6678 1.2952 0.9229
C54 C 0.6195(10) 1.1973(12) 0.8297(11)
H52 H 0.6633 1.1933 0.8333
C55 C 0.5577(10) 1.1449(11) 0.7744(9)
H53 H 0.5572 1.1024 0.7403
C56 C 0.4896(9) 1.1491(10) 0.7631(9)
H54 H 0.4464 1.1120 0.7213
C57 C -0.1492(7) 0.3294(8) 0.7827(7)
H55 H -0.0960 0.3646 0.8076
C58 C -0.1937(6) 0.3597(7) 0.7677(6)
C59 C -0.2750(6) 0.3067(7) 0.7323(6)
C60 C -0.3063(7) 0.2266(7) 0.7079(6)
H56 H -0.3591 0.1918 0.6808
C61 C -0.2624(7) 0.1939(8) 0.7219(7)
C62 C -0.1818(7) 0.2471(8) 0.7615(7)
C63 C -0.1351(9) 0.2146(10) 0.7774(8)
H57 H -0.0816 0.2481 0.8013
C64 C -0.1708(10) 0.1352(10) 0.7570(8)
H58 H -0.1417 0.1143 0.7696
C65 C -0.2485(10) 0.0837(10) 0.7184(8)
H59 H -0.2704 0.0286 0.7037
C66 C -0.2954(8) 0.1113(9) 0.7006(8)
H60 H -0.3484 0.0754 0.6748
C67 C -0.0682(6) 0.5733(7) 0.8147(6)
C68 C -0.0951(6) 0.4851(7) 0.7791(7)
H61 H -0.1045 0.4663 0.7292
H62 H -0.0557 0.4767 0.7998
C69 C -0.0888(8) 0.6780(8) 0.8908(7)
H63 H -0.1178 0.6912 0.8624
H64 H -0.0338 0.7160 0.9051
C70 C -0.1090(8) 0.6847(9) 0.9543(9)
C71 C -0.0720(9) 0.6783(10) 1.0073(10)
H65 H -0.0303 0.6715 1.0055
C72 C -0.0951(12) 0.6818(12) 1.0659(10)
H66 H -0.0689 0.6769 1.1017
C73 C -0.1544(13) 0.6920(13) 1.0692(12)
H67 H -0.1702 0.6942 1.1071
C74 C -0.1908(11) 0.6989(12) 1.0172(11)
H68 H -0.2325 0.7055 1.0191
C75 C -0.1681(9) 0.6967(10) 0.9594(9)
H69 H -0.1936 0.7034 0.9247
C76 C -0.4354(6) 0.3390(7) 0.7112(6)
C77 C -0.3974(5) 0.2946(7) 0.6875(6)
H70 H -0.4172 0.2477 0.6955
H71 H -0.4096 0.2755 0.6372
C78 C -0.4286(7) 0.4571(8) 0.8036(7)
H72 H -0.4847 0.4219 0.7849
H73 H -0.4101 0.4753 0.8540
C79 C -0.4092(7) 0.5275(8) 0.7920(8)
C80 C -0.3694(8) 0.6039(10) 0.8493(9)
H74 H -0.3559 0.6100 0.8948
C81 C -0.3492(9) 0.6716(11) 0.8393(11)
H75 H -0.3196 0.7229 0.8782
C82 C -0.3719(9) 0.6640(10) 0.7740(11)
H76 H -0.3598 0.7094 0.7676
C83 C -0.4143(8) 0.5859(10) 0.7159(9)
H77 H -0.4308 0.5793 0.6705
C84 C -0.4312(8) 0.5203(9) 0.7258(8)
H78 H -0.4583 0.4692 0.6867
C85 C 0.1400(6) 0.5752(7) 0.9225(6)
C86 C 0.1995(6) 0.5605(7) 0.9127(6)
C87 C 0.2355(6) 0.5397(7) 0.9547(6)
H79 H 0.2723 0.5274 0.9447
C88 C 0.2167(6) 0.5372(8) 1.0111(6)
C89 C 0.1602(6) 0.5526(8) 1.0258(6)
H80 H 0.1477 0.5510 1.0646
C90 C 0.1241(6) 0.5698(8) 0.9821(6)
C91 C 0.2676(6) 0.8100(7) 0.9835(6)
C92 C 0.2292(7) 0.8401(8) 1.0245(6)
C93 C 0.2691(7) 0.9057(8) 1.0930(7)
H81 H 0.2421 0.9239 1.1171
C94 C 0.3472(7) 0.9424(8) 1.1240(7)
C95 C 0.3875(7) 0.9158(8) 1.0902(7)
H82 H 0.4411 0.9418 1.1116
C96 C 0.3474(7) 0.8488(8) 1.0228(6)
C97 C 0.0128(6) 0.4829(7) 0.6652(6)
C98 C -0.0176(6) 0.4999(7) 0.6144(6)
C99 C -0.0683(6) 0.4404(7) 0.5439(6)
H83 H -0.0871 0.4545 0.5118
C100 C -0.0891(6) 0.3616(8) 0.5242(6)
C101 C -0.0601(6) 0.3395(7) 0.5716(6)
H84 H -0.0743 0.2859 0.5576
C102 C -0.0109(6) 0.3982(7) 0.6379(6)
C103 C 0.4688(6) 0.2347(7) 0.4697(6)
C104 C 0.4780(6) 0.3068(7) 0.4682(6)
C105 C 0.4970(6) 0.3284(7) 0.4179(6)
H85 H 0.5012 0.3751 0.4181
C106 C 0.5094(6) 0.2786(7) 0.3672(6)
C107 C 0.5058(6) 0.2098(7) 0.3670(7)
H86 H 0.5164 0.1780 0.3332
C108 C 0.4871(6) 0.1911(7) 0.4155(6)
C109 C 0.2992(6) 0.0109(7) 0.4907(6)
C110 C 0.3635(6) 0.0035(6) 0.5186(6)
C111 C 0.3579(7) -0.0703(7) 0.5004(6)
H87 H 0.4014 -0.0718 0.5184
C112 C 0.2901(7) -0.1399(7) 0.4568(7)
C113 C 0.2259(7) -0.1393(7) 0.4281(6)
H88 H 0.1790 -0.1877 0.3984
C114 C 0.2312(6) -0.0661(7) 0.4434(6)
C115 C 0.2290(6) 0.1772(6) 0.4460(6)
C116 C 0.1589(6) 0.1261(7) 0.4542(6)
C117 C 0.0841(6) 0.0850(7) 0.4040(6)
H89 H 0.0415 0.0512 0.4106
C118 C 0.0742(6) 0.0951(7) 0.3447(6)
C119 C 0.1380(6) 0.1436(7) 0.3320(6)
H90 H 0.1310 0.1495 0.2914
C120 C 0.2103(6) 0.1816(7) 0.3814(6)
Eu2_2 Eu 0.37397(3) 1.21616(3) 0.58193(3)
Eu2_3 Eu -0.62603(3) 0.21616(3) 0.58193(3)
O8_2 O 0.3483(4) 0.1771(4) 0.6715(4)
O12_2 O 0.4942(4) 0.3087(4) 0.6777(4)
Cl1 Cl 0.8601(5) -0.0046(5) 0.8317(4)
Cl2 Cl 0.9979(8) 0.0671(6) 0.9478(5)
Cl3 Cl 1.0009(6) 0.0969(5) 0.8291(5)
C121 C 0.9527(16) 0.0778(16) 0.8826(15)
H91 H 0.9477 0.1245 0.9056
Cl4 Cl 0.5412(6) 0.3565(8) 0.1580(6)
Cl5 Cl 0.5496(9) 0.4146(9) 0.0592(7)
Cl6 Cl 0.4383(8) 0.2570(9) 0.0151(7)
C122 C 0.531(2) 0.331(3) 0.0724(18)
H92 H 0.5670 0.3140 0.0613
Cl7 Cl 0.738(2) 0.791(2) 0.1444(18)
Cl8 Cl 0.855(3) 0.923(3) 0.160(3)
Cl9 Cl 0.7133(17) 0.9167(11) 0.1328(12)
C123 C 0.767(8) 0.887(8) 0.164(8)
H93 H 0.7780 0.9126 0.2144
Cl10 Cl 0.750(4) 0.939(4) 0.908(3)
Cl11 Cl 0.593(3) 0.865(3) 0.883(4)
Cl12 Cl 0.699(4) 0.998(4) 1.021(4)
C124 C 0.682(5) 0.918(4) 0.946(5)
H94 H 0.6770 0.8777 0.9619
O55 O 0.565(3) 0.564(3) 0.044(2)
H95 H 0.5549 0.5177 0.0384
H96 H 0.5311 0.5582 0.0104
Cl13? Cl 0.591(3) 0.909(4) 0.930(4)
Cl14? Cl 0.745(4) 1.008(4) 1.020(4)
Cl15? Cl 0.693(4) 0.885(3) 0.870(3)
loop_
_geom_bond_atom_site_label_1
_geom_bond_atom_site_label_2
_geom_bond_site_symmetry_1
_geom_bond_site_symmetry_2
Eu1 O3 1_555 1_555
Eu2 O4 1_555 1_555
N1 H1 1_555 1_555
N2 H2 1_555 1_555
N3 H3 1_555 1_555
N4 H4 1_555 1_555
N5 H5 1_555 1_555
N6 H6 1_555 1_555
N7 O14 1_555 1_555
N8 O16 1_555 1_555
N9 O18 1_555 1_555
N10 O21 1_555 1_555
N11 O23 1_555 1_555
N12 O25 1_555 1_555
N13 O28 1_555 1_555
N14 O30 1_555 1_555
N15 O32 1_555 1_555
N16 O35 1_555 1_555
N17 O37 1_555 1_555
N18 O39 1_555 1_555
N19 O42 1_555 1_555
N20 O44 1_555 1_555
N21 O46 1_555 1_555
N22 O49 1_555 1_555
N23 O51 1_555 1_555
N24 O53 1_555 1_555
O1 C2 1_555 1_555
O2 C3 1_555 1_555
O3 C11 1_555 1_555
O4 C20 1_555 1_555
O5 C30 1_555 1_555
O6 C31 1_555 1_555
O7 Eu1 1_555 1_555
O8 C48 1_555 1_555
O9 C58 1_555 1_555
O10 C59 1_555 1_555
O11 Eu1 1_555 1_555
O12 C76 1_555 1_555
O13 Eu1 1_555 1_555
O14 Eu1 1_555 1_555
O15 N7 1_555 1_555
O17 N8 1_555 1_555
O19 N9 1_555 1_555
O20 Eu1 1_555 1_555
O21 Eu1 1_555 1_555
O22 N10 1_555 1_555
O24 N11 1_555 1_555
O26 N12 1_555 1_555
O27 Eu1 1_555 1_555
O28 Eu1 1_555 1_555
O29 N13 1_555 1_555
O31 N14 1_555 1_555
O33 N15 1_555 1_555
O34 Eu2 1_555 1_555
O35 Eu2 1_555 1_555
O36 N16 1_555 1_555
O38 N17 1_555 1_555
O40 N18 1_555 1_555
O41 Eu2 1_555 1_555
O42 Eu2 1_555 1_555
O43 N19 1_555 1_555
O45 N20 1_555 1_555
O47 N21 1_555 1_555
O48 Eu2 1_555 1_555
O49 Eu2 1_555 1_555
O50 N22 1_555 1_555
O52 N23 1_555 1_555
O54 N24 1_555 1_555
C1 H7 1_555 1_555
C2 C1 1_555 1_555
C3 C2 1_555 1_555
C4 C3 1_555 1_555
H8 C4 1_555 1_555
C5 C4 1_555 1_555
C6 C1 1_555 1_555
C7 C6 1_555 1_555
H9 C7 1_555 1_555
C8 C7 1_555 1_555
H10 C8 1_555 1_555
C9 C8 1_555 1_555
H11 C9 1_555 1_555
C10 C5 1_555 1_555
H12 C10 1_555 1_555
C11 N1 1_555 1_555
C12 O1 1_555 1_555
H13 C12 1_555 1_555
H14 C12 1_555 1_555
C13 N1 1_555 1_555
H15 C13 1_555 1_555
H16 C13 1_555 1_555
C14 C13 1_555 1_555
C15 C14 1_555 1_555
H17 C15 1_555 1_555
C16 C15 1_555 1_555
H18 C16 1_555 1_555
C17 C16 1_555 1_555
H19 C17 1_555 1_555
C18 C17 1_555 1_555
H20 C18 1_555 1_555
C19 C14 1_555 1_555
H21 C19 1_555 1_555
C20 N2 1_555 1_555
C21 O2 1_555 1_555
H22 C21 1_555 1_555
H23 C21 1_555 1_555
C22 N2 1_555 1_555
H24 C22 1_555 1_555
H25 C22 1_555 1_555
C23 C22 1_555 1_555
C24 C23 1_555 1_555
H26 C24 1_555 1_555
C25 C24 1_555 1_555
H27 C25 1_555 1_555
C26 C25 1_555 1_555
H28 C26 1_555 1_555
C27 C26 1_555 1_555
H29 C27 1_555 1_555
C28 C23 1_555 1_555
H30 C28 1_555 1_555
C29 H31 1_555 1_555
C30 C29 1_555 1_555
C31 C30 1_555 1_555
C32 C31 1_555 1_555
H32 C32 1_555 1_555
C33 C32 1_555 1_555
C34 C29 1_555 1_555
C35 C34 1_555 1_555
H33 C35 1_555 1_555
C36 C35 1_555 1_555
H34 C36 1_555 1_555
C37 C36 1_555 1_555
H35 C37 1_555 1_555
C38 C33 1_555 1_555
H36 C38 1_555 1_555
C39 N3 1_555 1_555
C40 O5 1_555 1_555
H37 C40 1_555 1_555
H38 C40 1_555 1_555
C41 N3 1_555 1_555
H39 C41 1_555 1_555
H40 C41 1_555 1_555
C42 C41 1_555 1_555
C43 C42 1_555 1_555
H41 C43 1_555 1_555
C44 C43 1_555 1_555
H42 C44 1_555 1_555
C45 C44 1_555 1_555
H43 C45 1_555 1_555
C46 C45 1_555 1_555
H44 C46 1_555 1_555
C47 C42 1_555 1_555
H45 C47 1_555 1_555
C48 N4 1_555 1_555
C49 O6 1_555 1_555
H46 C49 1_555 1_555
H47 C49 1_555 1_555
C50 N4 1_555 1_555
H48 C50 1_555 1_555
H49 C50 1_555 1_555
C51 C50 1_555 1_555
C52 C51 1_555 1_555
H50 C52 1_555 1_555
C53 C52 1_555 1_555
H51 C53 1_555 1_555
C54 C53 1_555 1_555
H52 C54 1_555 1_555
C55 C54 1_555 1_555
H53 C55 1_555 1_555
C56 C51 1_555 1_555
H54 C56 1_555 1_555
C57 H55 1_555 1_555
C58 C57 1_555 1_555
C59 C58 1_555 1_555
C60 C59 1_555 1_555
H56 C60 1_555 1_555
C61 C60 1_555 1_555
C62 C57 1_555 1_555
C63 C62 1_555 1_555
H57 C63 1_555 1_555
C64 C63 1_555 1_555
H58 C64 1_555 1_555
C65 C64 1_555 1_555
H59 C65 1_555 1_555
C66 C61 1_555 1_555
H60 C66 1_555 1_555
C67 N5 1_555 1_555
C68 O9 1_555 1_555
H61 C68 1_555 1_555
H62 C68 1_555 1_555
C69 N5 1_555 1_555
H63 C69 1_555 1_555
H64 C69 1_555 1_555
C70 C69 1_555 1_555
C71 C70 1_555 1_555
H65 C71 1_555 1_555
C72 C71 1_555 1_555
H66 C72 1_555 1_555
C73 C72 1_555 1_555
H67 C73 1_555 1_555
C74 C73 1_555 1_555
H68 C74 1_555 1_555
C75 C70 1_555 1_555
H69 C75 1_555 1_555
C76 N6 1_555 1_555
C77 O10 1_555 1_555
H70 C77 1_555 1_555
H71 C77 1_555 1_555
C78 N6 1_555 1_555
H72 C78 1_555 1_555
H73 C78 1_555 1_555
C79 C78 1_555 1_555
C80 C79 1_555 1_555
H74 C80 1_555 1_555
C81 C80 1_555 1_555
H75 C81 1_555 1_555
C82 C81 1_555 1_555
H76 C82 1_555 1_555
C83 C82 1_555 1_555
H77 C83 1_555 1_555
C84 C79 1_555 1_555
H78 C84 1_555 1_555
C85 O13 1_555 1_555
C86 N7 1_555 1_555
C87 C86 1_555 1_555
H79 C87 1_555 1_555
C88 N8 1_555 1_555
C89 C88 1_555 1_555
H80 C89 1_555 1_555
C90 N9 1_555 1_555
C91 O20 1_555 1_555
C92 N10 1_555 1_555
C93 C92 1_555 1_555
H81 C93 1_555 1_555
C94 N11 1_555 1_555
C95 C94 1_555 1_555
H82 C95 1_555 1_555
C96 N12 1_555 1_555
C97 O27 1_555 1_555
C98 N13 1_555 1_555
C99 C98 1_555 1_555
H83 C99 1_555 1_555
C100 N14 1_555 1_555
C101 C100 1_555 1_555
H84 C101 1_555 1_555
C102 N15 1_555 1_555
C103 O34 1_555 1_555
C104 N16 1_555 1_555
C105 C104 1_555 1_555
H85 C105 1_555 1_555
C106 N17 1_555 1_555
C107 C106 1_555 1_555
H86 C107 1_555 1_555
C108 N18 1_555 1_555
C109 O41 1_555 1_555
C110 N19 1_555 1_555
C111 C110 1_555 1_555
H87 C111 1_555 1_555
C112 N20 1_555 1_555
C113 C112 1_555 1_555
H88 C113 1_555 1_555
C114 N21 1_555 1_555
C115 O48 1_555 1_555
C116 N22 1_555 1_555
C117 C116 1_555 1_555
H89 C117 1_555 1_555
C118 N23 1_555 1_555
C119 C118 1_555 1_555
H90 C119 1_555 1_555
C120 N24 1_555 1_555
Cl1 C121 1_555 1_555
Cl2 C121 1_555 1_555
Cl3 C121 1_555 1_555
C121 H91 1_555 1_555
Cl4 C122 1_555 1_555
Cl5 C122 1_555 1_555
Cl6 C122 1_555 1_555
C122 H92 1_555 1_555
Cl7 C123 1_555 1_555
Cl8 C123 1_555 1_555
Cl9 C123 1_555 1_555
C123 H93 1_555 1_555
Cl10 C124 1_555 1_555
Cl11 C124 1_555 1_555
Cl12 C124 1_555 1_555
C124 H94 1_555 1_555
O55 H95 1_555 1_555
H96 O55 1_555 1_555
Eu2_2 O8 1_555 1_555
Eu2_3 O12 1_555 1_555
O8_2 Eu2 1_555 1_555
O12_2 Eu2 1_555 1_555
O7 C39 1_555 1_555
O11 C67 1_555 1_555
C5 C6 1_555 1_555
C9 C10 1_555 1_555
C11 C12 1_555 1_555
C18 C19 1_555 1_555
C20 C21 1_555 1_555
C27 C28 1_555 1_555
C33 C34 1_555 1_555
C37 C38 1_555 1_555
C39 C40 1_555 1_555
C46 C47 1_555 1_555
C48 C49 1_555 1_555
C55 C56 1_555 1_555
C61 C62 1_555 1_555
C65 C66 1_555 1_555
C67 C68 1_555 1_555
C74 C75 1_555 1_555
C76 C77 1_555 1_555
C83 C84 1_555 1_555
C85 C86 1_555 1_555
C85 C90 1_555 1_555
C87 C88 1_555 1_555
C89 C90 1_555 1_555
C91 C92 1_555 1_555
C91 C96 1_555 1_555
C93 C94 1_555 1_555
C95 C96 1_555 1_555
C97 C98 1_555 1_555
C97 C102 1_555 1_555
C99 C100 1_555 1_555
C101 C102 1_555 1_555
C103 C104 1_555 1_555
C103 C108 1_555 1_555
C105 C106 1_555 1_555
C107 C108 1_555 1_555
C109 C110 1_555 1_555
C109 C114 1_555 1_555
C111 C112 1_555 1_555
C113 C114 1_555 1_555
C115 C116 1_555 1_555
C115 C120 1_555 1_555
C117 C118 1_555 1_555
C119 C120 1_555 1_555

#END
