
#######################################################################
#
#                 Cambridge Crystallographic Data Centre
#                                CCDC 
#
#######################################################################
#
# If this CIF has been generated from an entry in the Cambridge 
# Structural Database, then it will include bibliographic, chemical, 
# crystal, experimental, refinement or atomic coordinate data resulting 
# from the CCDC's data processing and validation procedures.
#
#######################################################################

data_GURWUM
_symmetry_cell_setting           monoclinic
_symmetry_space_group_name_H-M   'P 21/c'
_symmetry_Int_Tables_number      14
_space_group_name_Hall           '-P 2ybc'
loop_
_symmetry_equiv_pos_site_id
_symmetry_equiv_pos_as_xyz
1 x,y,z
2 -x,1/2+y,1/2-z
3 -x,-y,-z
4 x,1/2-y,1/2+z
_cell_length_a                   6.921(3)
_cell_length_b                   26.786(10)
_cell_length_c                   11.644(4)
_cell_angle_alpha                90
_cell_angle_beta                 91.407(5)
_cell_angle_gamma                90
_cell_volume                     2157.98
loop_
_atom_site_label
_atom_site_type_symbol
_atom_site_fract_x
_atom_site_fract_y
_atom_site_fract_z
Cd1 Cd 0.36056(4) 0.376913(11) 0.06840(2)
O1 O 0.0963(4) 0.32375(10) 0.06275(19)
O2 O 0.5593(4) 0.30582(10) 0.07231(19)
O3 O 0.6188(5) 0.43230(18) 0.0803(3)
H1 H 0.0584 0.3009 0.0188
H2 H 0.6476 0.2990 0.1286
H3 H 0.0297 0.3191 0.1236
H4 H 0.5940 0.2883 0.0124
H5 H 0.6100 0.4422 0.0142
H6 H 0.7339 0.4425 0.1113
O4 O 0.1505(4) 0.44339(10) 0.0581(2)
H7 H 0.0551 0.4395 0.0105
H8 H 0.1365 0.4698 0.1008
N1 N 0.3618(5) 0.37580(12) 0.2634(2)
N2 N 0.3610(4) 0.37841(12) 0.8721(2)
C1 C 0.3488(8) 0.33446(18) 0.3242(3)
H9 H 0.3417 0.3042 0.2851
C2 C 0.3453(9) 0.33355(18) 0.4426(3)
H10 H 0.3343 0.3033 0.4812
C3 C 0.3581(5) 0.37731(14) 0.5032(3)
C4 C 0.3713(8) 0.42057(17) 0.4406(4)
H11 H 0.3782 0.4513 0.4777
C5 C 0.3743(8) 0.41805(18) 0.3213(4)
H12 H 0.3856 0.4477 0.2803
C6 C 0.3574(5) 0.37795(14) 0.6309(3)
C7 C 0.3556(6) 0.33409(15) 0.6943(3)
H13 H 0.3542 0.3034 0.6569
C8 C 0.3559(5) 0.33594(15) 0.8131(3)
H14 H 0.3523 0.3060 0.8536
C9 C 0.3634(6) 0.42133(16) 0.8123(3)
H15 H 0.3660 0.4514 0.8522
C10 C 0.3622(6) 0.42244(16) 0.6936(3)
H16 H 0.3645 0.4529 0.6554
Cd1_2 Cd 0.36056(4) 0.376913(11) 1.06840(2)
N2_2 N 0.3610(4) 0.37841(12) -0.1279(2)
S1 S 0.14552(14) 0.74501(3) 0.18579(7)
H17 H 0.1371 0.5351 0.4231
O5 O 0.3195(4) 0.74336(11) 0.1187(3)
O6 O -0.0289(4) 0.74356(11) 0.1141(2)
O7 O 0.1462(4) 0.78681(10) 0.2663(2)
O8 O 0.1401(5) 0.56100(13) 0.4639(3)
O9 O 0.1301(6) 0.51220(12) 0.2801(3)
O10 O 0.1445(4) 0.54842(11) 0.1102(3)
C11 C 0.1458(5) 0.68982(14) 0.2697(3)
C12 C 0.1442(5) 0.69189(15) 0.3886(3)
H18 H 0.1434 0.7227 0.4256
C13 C 0.1438(6) 0.64847(16) 0.4523(3)
H19 H 0.1447 0.6501 0.5321
C14 C 0.1421(6) 0.60259(16) 0.3982(3)
C15 C 0.1418(5) 0.59980(14) 0.2769(3)
C16 C 0.1443(5) 0.64386(14) 0.2149(3)
H20 H 0.1449 0.6426 0.1351
C17 C 0.1397(6) 0.55054(16) 0.2170(4)
O11 O 0.8261(4) 0.44674(10) 0.2770(2)
loop_
_geom_bond_atom_site_label_1
_geom_bond_atom_site_label_2
_geom_bond_site_symmetry_1
_geom_bond_site_symmetry_2
Cd1 O1 1_555 1_555
O1 H1 1_555 1_555
O2 Cd1 1_555 1_555
O3 Cd1 1_555 1_555
H2 O2 1_555 1_555
H3 O1 1_555 1_555
H4 O2 1_555 1_555
H5 O3 1_555 1_555
H6 O3 1_555 1_555
O4 Cd1 1_555 1_555
H7 O4 1_555 1_555
H8 O4 1_555 1_555
N1 Cd1 1_555 1_555
N2 C8 1_555 1_555
C1 N1 1_555 1_555
H9 C1 1_555 1_555
C2 C1 1_555 1_555
H10 C2 1_555 1_555
C3 C2 1_555 1_555
C4 C3 1_555 1_555
H11 C4 1_555 1_555
C5 N1 1_555 1_555
H12 C5 1_555 1_555
C6 C3 1_555 1_555
C7 C6 1_555 1_555
H13 C7 1_555 1_555
C8 C7 1_555 1_555
H14 C8 1_555 1_555
C9 N2 1_555 1_555
H15 C9 1_555 1_555
C10 C6 1_555 1_555
H16 C10 1_555 1_555
S1 O5 1_555 1_555
H17 O8 1_555 1_555
O6 S1 1_555 1_555
O7 S1 1_555 1_555
O8 C14 1_555 1_555
O9 C17 1_555 1_555
O10 C17 1_555 1_555
C11 S1 1_555 1_555
C12 C11 1_555 1_555
H18 C12 1_555 1_555
C13 C12 1_555 1_555
H19 C13 1_555 1_555
C14 C13 1_555 1_555
C15 C14 1_555 1_555
C16 C11 1_555 1_555
H20 C16 1_555 1_555
C17 C15 1_555 1_555
Cd1_2 N2 1_555 1_555
N2_2 Cd1 1_555 1_555
C4 C5 1_555 1_555
C9 C10 1_555 1_555
C15 C16 1_555 1_555

#END
