
#######################################################################
#
#                 Cambridge Crystallographic Data Centre
#                                CCDC 
#
#######################################################################
#
# If this CIF has been generated from an entry in the Cambridge 
# Structural Database, then it will include bibliographic, chemical, 
# crystal, experimental, refinement or atomic coordinate data resulting 
# from the CCDC's data processing and validation procedures.
#
#######################################################################

data_GURXIB
_symmetry_cell_setting           monoclinic
_symmetry_space_group_name_H-M   'C 2/c'
_symmetry_Int_Tables_number      15
_space_group_name_Hall           '-C 2yn'
loop_
_symmetry_equiv_pos_site_id
_symmetry_equiv_pos_as_xyz
1 x,y,z
2 -x,y,1/2-z
3 1/2+x,1/2+y,z
4 1/2-x,1/2+y,1/2-z
5 -x,-y,-z
6 x,-y,1/2+z
7 1/2-x,1/2-y,-z
8 1/2+x,1/2-y,1/2+z
_cell_length_a                   11.982(3)
_cell_length_b                   15.316(4)
_cell_length_c                   21.926(5)
_cell_angle_alpha                90
_cell_angle_beta                 95.607(4)
_cell_angle_gamma                90
_cell_volume                     4004.53
loop_
_atom_site_label
_atom_site_type_symbol
_atom_site_fract_x
_atom_site_fract_y
_atom_site_fract_z
Mn1 Mn 0.13811(7) 0.17940(6) 0.21657(3)
O1 O 0.1552(3) 0.0909(3) 0.29231(16)
O2 O -0.0069(3) 0.1044(3) 0.33402(17)
O3 O 0.4709(5) 0.1645(4) 0.64319(19)
O4 O 0.6315(3) 0.2359(3) 0.63794(17)
O5 O 0.0000 0.2619(4) 0.2500
H1 H 0.0126 0.2934 0.2819
N1 N 0.2670(4) -0.1058(3) 0.66662(19)
N2 N 0.2721(4) 0.2630(3) 0.2706(2)
C1 C 0.3002(4) -0.0450(4) 0.5687(2)
C2 C 0.2312(4) -0.0772(4) 0.6108(2)
H2 H 0.1545 -0.0789 0.5991
C3 C 0.3780(5) -0.1008(4) 0.6828(3)
H3 H 0.4053 -0.1199 0.7216
C4 C 0.4524(5) -0.0692(5) 0.6452(3)
H4 H 0.5285 -0.0661 0.6584
C5 C 0.4128(5) -0.0416(5) 0.5866(3)
H5 H 0.4624 -0.0210 0.5598
C6 C 0.2487(4) -0.0138(3) 0.5078(2)
C7 C 0.2968(4) -0.0312(4) 0.4538(2)
H6 H 0.3623 -0.0641 0.4550
C8 C 0.2478(5) -0.0001(4) 0.3987(2)
H7 H 0.2817 -0.0113 0.3631
C9 C 0.1487(4) 0.0479(3) 0.3950(2)
C10 C 0.1001(4) 0.0636(4) 0.4491(2)
H8 H 0.0332 0.0947 0.4478
C11 C 0.1501(5) 0.0334(4) 0.5047(2)
H9 H 0.1168 0.0452 0.5404
C12 C 0.0951(4) 0.0840(3) 0.3355(2)
C13 C 0.3962(5) 0.2907(4) 0.3621(2)
C14 C 0.3204(4) 0.2397(4) 0.3260(2)
H10 H 0.3018 0.1855 0.3412
C15 C 0.2972(6) 0.3414(4) 0.2500(3)
H11 H 0.2629 0.3598 0.2123
C16 C 0.3725(6) 0.3966(4) 0.2826(3)
H12 H 0.3896 0.4506 0.2664
C17 C 0.4222(5) 0.3711(4) 0.3395(3)
H13 H 0.4725 0.4078 0.3620
C18 C 0.4401(5) 0.2612(4) 0.4248(2)
C19 C 0.3703(5) 0.2152(4) 0.4601(2)
H14 H 0.2993 0.1986 0.4432
C20 C 0.4049(5) 0.1936(4) 0.5202(2)
H15 H 0.3567 0.1634 0.5435
C21 C 0.5116(5) 0.2169(4) 0.5462(2)
C22 C 0.5825(5) 0.2591(4) 0.5102(2)
H16 H 0.6547 0.2731 0.5266
C23 C 0.5488(5) 0.2810(4) 0.4500(2)
H17 H 0.5984 0.3089 0.4264
C24 C 0.5396(5) 0.2037(4) 0.6144(2)
Mn1A Mn -0.13811(7) 0.17940(6) 0.28343(3)
Mn1G Mn 0.63811(7) 0.32060(6) 0.71657(3)
Mn1E Mn 0.13811(7) -0.17940(6) 0.71657(3)
Mn1D Mn -0.13811(7) -0.17940(6) -0.21657(3)
Mn1G_2 Mn -0.36189(7) 0.32060(6) -0.28343(3)
O1A O -0.1552(3) 0.0909(3) 0.20769(16)
O2A O 0.0069(3) 0.1044(3) 0.16598(17)
O3G O -0.0291(5) 0.3355(4) 0.14319(19)
O4G O 0.1315(3) 0.2641(3) 0.13794(17)
O4F O -0.1315(3) 0.2641(3) 0.36206(17)
H1A H -0.0126 0.2934 0.2181
N1A N -0.2670(4) -0.1058(3) -0.16662(19)
N1E N 0.2670(4) 0.1058(3) 0.16662(19)
N1D N -0.2670(4) 0.1058(3) 0.33338(19)
N2G N -0.2279(4) 0.2370(3) -0.2294(2)
N2A N -0.2721(4) 0.2630(3) 0.2294(2)
C1A C -0.3002(4) -0.0450(4) -0.0687(2)
C2A C -0.2312(4) -0.0772(4) -0.1108(2)
H2A H -0.1545 -0.0789 -0.0991
C3A C -0.3780(5) -0.1008(4) -0.1828(3)
H3A H -0.4053 -0.1199 -0.2216
C4A C -0.4524(5) -0.0692(5) -0.1452(3)
H4A H -0.5285 -0.0661 -0.1584
C5A C -0.4128(5) -0.0416(5) -0.0866(3)
H5A H -0.4624 -0.0210 -0.0598
C6A C -0.2487(4) -0.0138(3) -0.0078(2)
C7A C -0.2968(4) -0.0312(4) 0.0462(2)
H6A H -0.3623 -0.0641 0.0450
C8A C -0.2478(5) -0.0001(4) 0.1013(2)
H7A H -0.2817 -0.0113 0.1369
C9A C -0.1487(4) 0.0479(3) 0.1050(2)
C10A C -0.1001(4) 0.0636(4) 0.0509(2)
H8A H -0.0332 0.0947 0.0522
C11A C -0.1501(5) 0.0334(4) -0.0047(2)
H9A H -0.1168 0.0452 -0.0404
C12A C -0.0951(4) 0.0840(3) 0.1645(2)
C13G C -0.1038(5) 0.2093(4) -0.1379(2)
C14G C -0.1796(4) 0.2603(4) -0.1740(2)
H10G H -0.1982 0.3145 -0.1588
C15G C -0.2028(6) 0.1586(4) -0.2500(3)
H11G H -0.2371 0.1402 -0.2877
C16G C -0.1275(6) 0.1034(4) -0.2174(3)
H12G H -0.1104 0.0494 -0.2336
C17G C -0.0778(5) 0.1289(4) -0.1605(3)
H13G H -0.0275 0.0922 -0.1380
C18G C -0.0599(5) 0.2388(4) -0.0752(2)
C19G C -0.1297(5) 0.2848(4) -0.0399(2)
H14G H -0.2007 0.3014 -0.0568
C20G C -0.0951(5) 0.3064(4) 0.0202(2)
H15G H -0.1433 0.3366 0.0435
C21G C 0.0116(5) 0.2831(4) 0.0462(2)
C22G C 0.0825(5) 0.2409(4) 0.0102(2)
H16G H 0.1547 0.2269 0.0266
C23G C 0.0488(5) 0.2190(4) -0.0500(2)
H17G H 0.0984 0.1911 -0.0736
C24G C 0.0396(5) 0.2963(4) 0.1144(2)
loop_
_geom_bond_atom_site_label_1
_geom_bond_atom_site_label_2
_geom_bond_site_symmetry_1
_geom_bond_site_symmetry_2
Mn1 O1 1_555 1_555
O1 C12 1_555 1_555
O2 C12 1_555 1_555
O3 C24 1_555 1_555
O4 C24 1_555 1_555
O5 Mn1 1_555 1_555
H1 O5 1_555 1_555
N1 C2 1_555 1_555
N2 Mn1 1_555 1_555
C1 C2 1_555 1_555
C2 H2 1_555 1_555
C3 N1 1_555 1_555
H3 C3 1_555 1_555
C4 C3 1_555 1_555
H4 C4 1_555 1_555
C5 C1 1_555 1_555
H5 C5 1_555 1_555
C6 C1 1_555 1_555
C7 C6 1_555 1_555
H6 C7 1_555 1_555
C8 C7 1_555 1_555
H7 C8 1_555 1_555
C9 C8 1_555 1_555
C10 C9 1_555 1_555
H8 C10 1_555 1_555
C11 C6 1_555 1_555
H9 C11 1_555 1_555
C12 C9 1_555 1_555
C13 C14 1_555 1_555
C14 N2 1_555 1_555
H10 C14 1_555 1_555
C15 N2 1_555 1_555
H11 C15 1_555 1_555
C16 C15 1_555 1_555
H12 C16 1_555 1_555
C17 C13 1_555 1_555
H13 C17 1_555 1_555
C18 C13 1_555 1_555
C19 C18 1_555 1_555
H14 C19 1_555 1_555
C20 C19 1_555 1_555
H15 C20 1_555 1_555
C21 C20 1_555 1_555
C22 C21 1_555 1_555
H16 C22 1_555 1_555
C23 C18 1_555 1_555
H17 C23 1_555 1_555
C24 C21 1_555 1_555
Mn1A O2 1_555 1_555
Mn1G O4 1_555 1_555
Mn1E N1 1_555 1_555
Mn1D N1A 1_555 1_555
Mn1G_2 N2G 1_555 1_555
O1A Mn1A 1_555 1_555
O2A Mn1 1_555 1_555
O3G C24G 1_555 1_555
O4G Mn1 1_555 1_555
O4F Mn1A 1_555 1_555
H1A O5 1_555 1_555
N1A C2A 1_555 1_555
N1E Mn1 1_555 1_555
N1D Mn1A 1_555 1_555
N2G C14G 1_555 1_555
N2A Mn1A 1_555 1_555
C1A C2A 1_555 1_555
C2A H2A 1_555 1_555
C3A N1A 1_555 1_555
H3A C3A 1_555 1_555
C4A C3A 1_555 1_555
H4A C4A 1_555 1_555
C5A C1A 1_555 1_555
H5A C5A 1_555 1_555
C6A C1A 1_555 1_555
C7A C6A 1_555 1_555
H6A C7A 1_555 1_555
C8A C7A 1_555 1_555
H7A C8A 1_555 1_555
C9A C8A 1_555 1_555
C10A C9A 1_555 1_555
H8A C10A 1_555 1_555
C11A C6A 1_555 1_555
H9A C11A 1_555 1_555
C12A O1A 1_555 1_555
C13G C14G 1_555 1_555
C14G H10G 1_555 1_555
C15G N2G 1_555 1_555
H11G C15G 1_555 1_555
C16G C15G 1_555 1_555
H12G C16G 1_555 1_555
C17G C13G 1_555 1_555
H13G C17G 1_555 1_555
C18G C13G 1_555 1_555
C19G C18G 1_555 1_555
H14G C19G 1_555 1_555
C20G C19G 1_555 1_555
H15G C20G 1_555 1_555
C21G C20G 1_555 1_555
C22G C21G 1_555 1_555
H16G C22G 1_555 1_555
C23G C18G 1_555 1_555
H17G C23G 1_555 1_555
C24G O4G 1_555 1_555
O5 Mn1A 1_555 1_555
C4 C5 1_555 1_555
C10 C11 1_555 1_555
C16 C17 1_555 1_555
C22 C23 1_555 1_555
O2A C12A 1_555 1_555
C4A C5A 1_555 1_555
C9A C12A 1_555 1_555
C10A C11A 1_555 1_555
C16G C17G 1_555 1_555
C21G C24G 1_555 1_555
C22G C23G 1_555 1_555

#END
