
#######################################################################
#
#                 Cambridge Crystallographic Data Centre
#                                CCDC 
#
#######################################################################
#
# If this CIF has been generated from an entry in the Cambridge 
# Structural Database, then it will include bibliographic, chemical, 
# crystal, experimental, refinement or atomic coordinate data resulting 
# from the CCDC's data processing and validation procedures.
#
#######################################################################

data_GURXIB01
_symmetry_cell_setting           monoclinic
_symmetry_space_group_name_H-M   'C 2/c'
_symmetry_Int_Tables_number      15
_space_group_name_Hall           '-C 2yn'
loop_
_symmetry_equiv_pos_site_id
_symmetry_equiv_pos_as_xyz
1 x,y,z
2 -x,y,1/2-z
3 1/2+x,1/2+y,z
4 1/2-x,1/2+y,1/2-z
5 -x,-y,-z
6 x,-y,1/2+z
7 1/2-x,1/2-y,-z
8 1/2+x,1/2-y,1/2+z
_cell_length_a                   11.9691(8)
_cell_length_b                   15.2533(11)
_cell_length_c                   21.9461(15)
_cell_angle_alpha                90
_cell_angle_beta                 95.570(1)
_cell_angle_gamma                90
_cell_volume                     3987.74
loop_
_atom_site_label
_atom_site_type_symbol
_atom_site_fract_x
_atom_site_fract_y
_atom_site_fract_z
Mn1 Mn 0.13839(2) 0.319408(18) 0.216726(11)
O1 O 0.0000 0.23657(13) 0.2500
H1 H -0.012(2) 0.2011(17) 0.2164(11)
O2 O 0.15491(10) 0.40839(9) 0.29233(5)
O3 O -0.00694(10) 0.39446(10) 0.33449(6)
O4 O 0.13234(11) 0.23348(10) 0.13817(6)
O5 O -0.02992(15) 0.16295(11) 0.14327(7)
N1 N 0.26808(13) 0.60701(11) 0.66672(7)
N2 N -0.22786(13) 0.26442(11) -0.22873(7)
C1 C 0.23167(15) 0.57831(13) 0.61068(8)
H2 H 0.1541 0.5805 0.5989
C2 C 0.30037(14) 0.54552(12) 0.56872(8)
C3 C 0.41479(16) 0.54327(15) 0.58610(10)
H3 H 0.4651 0.5230 0.5589
C4 C 0.45346(17) 0.57152(17) 0.64427(10)
H4 H 0.5306 0.5696 0.6573
C5 C 0.37870(16) 0.60238(15) 0.68287(9)
H5 H 0.4064 0.6210 0.7223
C6 C 0.24922(14) 0.51405(12) 0.50813(8)
C7 C 0.15036(15) 0.46564(13) 0.50481(8)
H6 H 0.1171 0.4530 0.5409
C8 C 0.10024(14) 0.43576(12) 0.44933(8)
H7 H 0.0328 0.4039 0.4481
C9 C 0.14856(14) 0.45237(11) 0.39532(8)
C10 C 0.24798(14) 0.50028(12) 0.39822(8)
H8 H 0.2820 0.5116 0.3622
C11 C 0.29713(14) 0.53133(12) 0.45387(8)
H9 H 0.3635 0.5644 0.4551
C12 C 0.09428(14) 0.41577(11) 0.33592(8)
C13 C -0.17937(15) 0.23982(13) -0.17368(8)
H10 H -0.1981 0.1845 -0.1588
C14 C -0.10306(15) 0.29104(13) -0.13718(8)
C15 C -0.07648(17) 0.37252(14) -0.16055(9)
H11 H -0.0245 0.4092 -0.1381
C16 C -0.12672(18) 0.39933(15) -0.21682(9)
H12 H -0.1103 0.4546 -0.2327
C17 C -0.20144(18) 0.34361(14) -0.24933(9)
H13 H -0.2352 0.3621 -0.2876
C18 C -0.05980(15) 0.26112(12) -0.07486(8)
C19 C -0.13025(15) 0.21488(13) -0.03927(8)
H14 H -0.2024 0.1986 -0.0563
C20 C -0.09562(16) 0.19269(13) 0.02054(8)
H15 H -0.1444 0.1616 0.0438
C21 C 0.01083(16) 0.21587(12) 0.04675(8)
C22 C 0.08324(15) 0.25833(13) 0.01066(8)
H16 H 0.1566 0.2719 0.0273
C23 C 0.04900(15) 0.28109(14) -0.04952(9)
H17 H 0.0990 0.3100 -0.0733
C24 C 0.04029(17) 0.20156(13) 0.11463(8)
Mn1A Mn -0.13839(2) 0.319408(18) 0.283274(11)
Mn1E Mn 0.13839(2) 0.680592(18) 0.716726(11)
Mn1G Mn -0.36161(2) 0.180592(18) -0.283274(11)
Mn1D Mn -0.13839(2) 0.680592(18) -0.216726(11)
Mn1G_2 Mn 0.63839(2) 0.180592(18) 0.716726(11)
H1A H 0.012(2) 0.2011(17) 0.2836(11)
O2A O -0.15491(10) 0.40839(9) 0.20767(5)
O3A O 0.00694(10) 0.39446(10) 0.16551(6)
O4G O 0.63234(11) 0.26652(10) 0.63817(6)
O4A O -0.13234(11) 0.23348(10) 0.36183(6)
O5G O 0.47008(15) 0.33705(11) 0.64327(7)
N1A N -0.26808(13) 0.60701(11) -0.16672(7)
N1E N 0.26808(13) 0.39299(11) 0.16672(7)
N1D N -0.26808(13) 0.39299(11) 0.33328(7)
N2G N 0.27214(13) 0.23558(11) 0.27127(7)
N2F N -0.27214(13) 0.23558(11) 0.22873(7)
C1A C -0.23167(15) 0.57831(13) -0.11068(8)
H2A H -0.1541 0.5805 -0.0989
C2A C -0.30037(14) 0.54552(12) -0.06872(8)
C3A C -0.41479(16) 0.54327(15) -0.08610(10)
H3A H -0.4651 0.5230 -0.0589
C4A C -0.45346(17) 0.57152(17) -0.14427(10)
H4A H -0.5306 0.5696 -0.1573
C5A C -0.37870(16) 0.60238(15) -0.18287(9)
H5A H -0.4064 0.6210 -0.2223
C6A C -0.24922(14) 0.51405(12) -0.00813(8)
C7A C -0.15036(15) 0.46564(13) -0.00481(8)
H6A H -0.1171 0.4530 -0.0409
C8A C -0.10024(14) 0.43576(12) 0.05067(8)
H7A H -0.0328 0.4039 0.0519
C9A C -0.14856(14) 0.45237(11) 0.10468(8)
C10A C -0.24798(14) 0.50028(12) 0.10178(8)
H8A H -0.2820 0.5116 0.1378
C11A C -0.29713(14) 0.53133(12) 0.04613(8)
H9A H -0.3635 0.5644 0.0449
C12A C -0.09428(14) 0.41577(11) 0.16408(8)
C13G C 0.32063(15) 0.26018(13) 0.32632(8)
H10G H 0.3019 0.3155 0.3412
C14G C 0.39694(15) 0.20896(13) 0.36282(8)
C15G C 0.42352(17) 0.12748(14) 0.33945(9)
H11G H 0.4755 0.0908 0.3619
C16G C 0.37328(18) 0.10067(15) 0.28318(9)
H12G H 0.3897 0.0454 0.2673
C17G C 0.29856(18) 0.15639(14) 0.25067(9)
H13G H 0.2648 0.1379 0.2124
C18G C 0.44020(15) 0.23888(12) 0.42514(8)
C19G C 0.36975(15) 0.28512(13) 0.46073(8)
H14G H 0.2976 0.3014 0.4437
C20G C 0.40438(16) 0.30731(13) 0.52054(8)
H15G H 0.3556 0.3384 0.5438
C21G C 0.51083(16) 0.28413(12) 0.54675(8)
C22G C 0.58324(15) 0.24167(13) 0.51066(8)
H16G H 0.6566 0.2281 0.5273
C23G C 0.54900(15) 0.21891(14) 0.45048(9)
H17G H 0.5990 0.1900 0.4267
C24G C 0.54029(17) 0.29844(13) 0.61463(8)
loop_
_geom_bond_atom_site_label_1
_geom_bond_atom_site_label_2
_geom_bond_site_symmetry_1
_geom_bond_site_symmetry_2
Mn1 O1 1_555 1_555
O1 H1 1_555 1_555
O2 Mn1 1_555 1_555
O3 C12 1_555 1_555
O4 Mn1 1_555 1_555
O5 C24 1_555 1_555
N1 C1 1_555 1_555
N2 C13 1_555 1_555
C1 H2 1_555 1_555
C2 C1 1_555 1_555
C3 C2 1_555 1_555
H3 C3 1_555 1_555
C4 C3 1_555 1_555
H4 C4 1_555 1_555
C5 N1 1_555 1_555
H5 C5 1_555 1_555
C6 C2 1_555 1_555
C7 C6 1_555 1_555
H6 C7 1_555 1_555
C8 C7 1_555 1_555
H7 C8 1_555 1_555
C9 C8 1_555 1_555
C10 C9 1_555 1_555
H8 C10 1_555 1_555
C11 C6 1_555 1_555
H9 C11 1_555 1_555
C12 O2 1_555 1_555
C13 H10 1_555 1_555
C14 C13 1_555 1_555
C15 C14 1_555 1_555
H11 C15 1_555 1_555
C16 C15 1_555 1_555
H12 C16 1_555 1_555
C17 N2 1_555 1_555
H13 C17 1_555 1_555
C18 C14 1_555 1_555
C19 C18 1_555 1_555
H14 C19 1_555 1_555
C20 C19 1_555 1_555
H15 C20 1_555 1_555
C21 C20 1_555 1_555
C22 C21 1_555 1_555
H16 C22 1_555 1_555
C23 C18 1_555 1_555
H17 C23 1_555 1_555
C24 O4 1_555 1_555
Mn1A O1 1_555 1_555
Mn1E N1 1_555 1_555
Mn1G N2 1_555 1_555
Mn1D N1A 1_555 1_555
Mn1G_2 O4G 1_555 1_555
H1A O1 1_555 1_555
O2A Mn1A 1_555 1_555
O3A Mn1 1_555 1_555
O4G C24G 1_555 1_555
O4A Mn1A 1_555 1_555
O5G C24G 1_555 1_555
N1A C1A 1_555 1_555
N1E Mn1 1_555 1_555
N1D Mn1A 1_555 1_555
N2G Mn1 1_555 1_555
N2F Mn1A 1_555 1_555
C1A H2A 1_555 1_555
C2A C1A 1_555 1_555
C3A C2A 1_555 1_555
H3A C3A 1_555 1_555
C4A C3A 1_555 1_555
H4A C4A 1_555 1_555
C5A N1A 1_555 1_555
H5A C5A 1_555 1_555
C6A C2A 1_555 1_555
C7A C6A 1_555 1_555
H6A C7A 1_555 1_555
C8A C7A 1_555 1_555
H7A C8A 1_555 1_555
C9A C8A 1_555 1_555
C10A C9A 1_555 1_555
H8A C10A 1_555 1_555
C11A C6A 1_555 1_555
H9A C11A 1_555 1_555
C12A O2A 1_555 1_555
C13G N2G 1_555 1_555
H10G C13G 1_555 1_555
C14G C13G 1_555 1_555
C15G C14G 1_555 1_555
H11G C15G 1_555 1_555
C16G C15G 1_555 1_555
H12G C16G 1_555 1_555
C17G N2G 1_555 1_555
H13G C17G 1_555 1_555
C18G C14G 1_555 1_555
C19G C18G 1_555 1_555
H14G C19G 1_555 1_555
C20G C19G 1_555 1_555
H15G C20G 1_555 1_555
C21G C20G 1_555 1_555
C22G C21G 1_555 1_555
H16G C22G 1_555 1_555
C23G C18G 1_555 1_555
H17G C23G 1_555 1_555
C24G C21G 1_555 1_555
O3 Mn1A 1_555 1_555
C4 C5 1_555 1_555
C9 C12 1_555 1_555
C10 C11 1_555 1_555
C16 C17 1_555 1_555
C21 C24 1_555 1_555
C22 C23 1_555 1_555
O3A C12A 1_555 1_555
C4A C5A 1_555 1_555
C9A C12A 1_555 1_555
C10A C11A 1_555 1_555
C16G C17G 1_555 1_555
C22G C23G 1_555 1_555

#END
