
#######################################################################
#
#                 Cambridge Crystallographic Data Centre
#                                CCDC 
#
#######################################################################
#
# If this CIF has been generated from an entry in the Cambridge 
# Structural Database, then it will include bibliographic, chemical, 
# crystal, experimental, refinement or atomic coordinate data resulting 
# from the CCDC's data processing and validation procedures.
#
#######################################################################

data_GURXUN01
_symmetry_cell_setting           monoclinic
_symmetry_space_group_name_H-M   'C 2/c'
_symmetry_Int_Tables_number      15
_space_group_name_Hall           '-C 2yn'
loop_
_symmetry_equiv_pos_site_id
_symmetry_equiv_pos_as_xyz
1 x,y,z
2 -x,y,1/2-z
3 1/2+x,1/2+y,z
4 1/2-x,1/2+y,1/2-z
5 -x,-y,-z
6 x,-y,1/2+z
7 1/2-x,1/2-y,-z
8 1/2+x,1/2-y,1/2+z
_cell_length_a                   11.9839(14)
_cell_length_b                   15.0300(17)
_cell_length_c                   22.356(3)
_cell_angle_alpha                90
_cell_angle_beta                 95.788(1)
_cell_angle_gamma                90
_cell_volume                     4006.19
loop_
_atom_site_label
_atom_site_type_symbol
_atom_site_fract_x
_atom_site_fract_y
_atom_site_fract_z
Cd1 Cd 0.142503(13) 0.182021(11) 0.219791(7)
O1 O 0.0000 0.27177(16) 0.2500
H1 H -0.006(3) 0.305(2) 0.2163(14)
O2 O 0.15936(13) 0.08346(11) 0.29614(7)
O3 O -0.00183(14) 0.10640(11) 0.33694(7)
O4 O 0.13829(14) 0.27396(11) 0.13769(7)
O5 O -0.02939(17) 0.33841(12) 0.14324(8)
N1 N 0.27073(17) -0.10470(13) 0.66728(9)
N2 N -0.22084(16) 0.23309(13) -0.22384(9)
C1 C 0.2327(2) -0.07694(15) 0.61209(11)
H2 H 0.1550 -0.0793 0.6009
C2 C 0.30124(19) -0.04480(15) 0.57027(10)
C3 C 0.4165(2) -0.04205(16) 0.58752(12)
H3 H 0.4664 -0.0219 0.5606
C4 C 0.4559(2) -0.06948(18) 0.64487(12)
H4 H 0.5330 -0.0671 0.6577
C5 C 0.3812(2) -0.10031(17) 0.68300(11)
H5 H 0.4091 -0.1191 0.7218
C6 C 0.25062(19) -0.01404(15) 0.51055(10)
C7 C 0.1507(2) 0.03445(15) 0.50603(10)
H6 H 0.1164 0.0474 0.5410
C8 C 0.10146(19) 0.06384(15) 0.45078(11)
H7 H 0.0341 0.0963 0.4486
C9 C 0.15134(19) 0.04547(14) 0.39844(10)
C10 C 0.25088(19) -0.00322(15) 0.40236(10)
H8 H 0.2852 -0.0159 0.3673
C11 C 0.29931(19) -0.03300(15) 0.45756(10)
H9 H 0.3659 -0.0664 0.4595
C12 C 0.0982(2) 0.08109(14) 0.33902(10)
C13 C -0.1749(2) 0.25863(15) -0.16916(10)
H10 H -0.1958 0.3143 -0.1547
C14 C -0.0986(2) 0.20783(16) -0.13270(11)
C15 C -0.0686(2) 0.12563(16) -0.15551(11)
H11 H -0.0162 0.0893 -0.1329
C16 C -0.1156(2) 0.09798(17) -0.21097(11)
H12 H -0.0965 0.0424 -0.2264
C17 C -0.1917(2) 0.15324(17) -0.24404(11)
H13 H -0.2238 0.1339 -0.2819
C18 C -0.0564(2) 0.23864(15) -0.07132(10)
C19 C -0.1283(2) 0.28451(15) -0.03677(10)
H14 H -0.2006 0.3001 -0.0538
C20 C -0.0942(2) 0.30744(15) 0.02246(11)
H15 H -0.1437 0.3384 0.0451
C21 C 0.0125(2) 0.28516(15) 0.04878(10)
C22 C 0.0860(2) 0.24259(15) 0.01329(11)
H16 H 0.1594 0.2295 0.0298
C23 C 0.0526(2) 0.21930(16) -0.04577(11)
H17 H 0.1032 0.1904 -0.0688
C24 C 0.0431(2) 0.30160(15) 0.11509(11)
Cd1A Cd -0.142503(13) 0.182021(11) 0.280209(7)
Cd1E Cd 0.142503(13) -0.182021(11) 0.719791(7)
Cd1G Cd -0.357497(13) 0.317979(11) -0.280209(7)
Cd1D Cd -0.142503(13) -0.182021(11) -0.219791(7)
Cd1G_2 Cd 0.642503(13) 0.317979(11) 0.719791(7)
H1A H 0.006(3) 0.305(2) 0.2837(14)
O2A O -0.15936(13) 0.08346(11) 0.20386(7)
O3A O 0.00183(14) 0.10640(11) 0.16306(7)
O4G O 0.63829(14) 0.22604(11) 0.63769(7)
O4A O -0.13829(14) 0.27396(11) 0.36231(7)
O5G O 0.47061(17) 0.16159(12) 0.64324(8)
N1A N -0.27073(17) -0.10470(13) -0.16728(9)
N1E N 0.27073(17) 0.10470(13) 0.16728(9)
N1D N -0.27073(17) 0.10470(13) 0.33272(9)
N2G N 0.27916(16) 0.26691(13) 0.27616(9)
N2F N -0.27916(16) 0.26691(13) 0.22384(9)
C1A C -0.2327(2) -0.07694(15) -0.11209(11)
H2A H -0.1550 -0.0793 -0.1009
C2A C -0.30124(19) -0.04480(15) -0.07027(10)
C3A C -0.4165(2) -0.04205(16) -0.08752(12)
H3A H -0.4664 -0.0219 -0.0606
C4A C -0.4559(2) -0.06948(18) -0.14487(12)
H4A H -0.5330 -0.0671 -0.1577
C5A C -0.3812(2) -0.10031(17) -0.18300(11)
H5A H -0.4091 -0.1191 -0.2218
C6A C -0.25062(19) -0.01404(15) -0.01055(10)
C7A C -0.1507(2) 0.03445(15) -0.00603(10)
H6A H -0.1164 0.0474 -0.0410
C8A C -0.10146(19) 0.06384(15) 0.04922(11)
H7A H -0.0341 0.0963 0.0514
C9A C -0.15134(19) 0.04547(14) 0.10156(10)
C10A C -0.25088(19) -0.00322(15) 0.09764(10)
H8A H -0.2852 -0.0159 0.1327
C11A C -0.29931(19) -0.03300(15) 0.04244(10)
H9A H -0.3659 -0.0664 0.0405
C12A C -0.0982(2) 0.08109(14) 0.16098(10)
C13G C 0.3251(2) 0.24137(15) 0.33084(10)
H10G H 0.3042 0.1857 0.3453
C14G C 0.4014(2) 0.29217(16) 0.36730(11)
C15G C 0.4314(2) 0.37437(16) 0.34449(11)
H11G H 0.4838 0.4107 0.3671
C16G C 0.3844(2) 0.40202(17) 0.28903(11)
H12G H 0.4035 0.4576 0.2736
C17G C 0.3083(2) 0.34676(17) 0.25596(11)
H13G H 0.2762 0.3661 0.2181
C18G C 0.4436(2) 0.26136(15) 0.42868(10)
C19G C 0.3717(2) 0.21549(15) 0.46323(10)
H14G H 0.2994 0.1999 0.4462
C20G C 0.4058(2) 0.19256(15) 0.52246(11)
H15G H 0.3563 0.1616 0.5451
C21G C 0.5125(2) 0.21484(15) 0.54878(10)
C22G C 0.5860(2) 0.25741(15) 0.51329(11)
H16G H 0.6594 0.2705 0.5298
C23G C 0.5526(2) 0.28070(16) 0.45423(11)
H17G H 0.6032 0.3096 0.4312
C24G C 0.5431(2) 0.19840(15) 0.61509(11)
loop_
_geom_bond_atom_site_label_1
_geom_bond_atom_site_label_2
_geom_bond_site_symmetry_1
_geom_bond_site_symmetry_2
Cd1 O1 1_555 1_555
O1 H1 1_555 1_555
O2 Cd1 1_555 1_555
O3 C12 1_555 1_555
O4 Cd1 1_555 1_555
O5 C24 1_555 1_555
N1 C1 1_555 1_555
N2 C13 1_555 1_555
C1 H2 1_555 1_555
C2 C1 1_555 1_555
C3 C2 1_555 1_555
H3 C3 1_555 1_555
C4 C3 1_555 1_555
H4 C4 1_555 1_555
C5 N1 1_555 1_555
H5 C5 1_555 1_555
C6 C2 1_555 1_555
C7 C6 1_555 1_555
H6 C7 1_555 1_555
C8 C7 1_555 1_555
H7 C8 1_555 1_555
C9 C8 1_555 1_555
C10 C9 1_555 1_555
H8 C10 1_555 1_555
C11 C6 1_555 1_555
H9 C11 1_555 1_555
C12 O2 1_555 1_555
C13 H10 1_555 1_555
C14 C13 1_555 1_555
C15 C14 1_555 1_555
H11 C15 1_555 1_555
C16 C15 1_555 1_555
H12 C16 1_555 1_555
C17 N2 1_555 1_555
H13 C17 1_555 1_555
C18 C14 1_555 1_555
C19 C18 1_555 1_555
H14 C19 1_555 1_555
C20 C19 1_555 1_555
H15 C20 1_555 1_555
C21 C20 1_555 1_555
C22 C21 1_555 1_555
H16 C22 1_555 1_555
C23 C18 1_555 1_555
H17 C23 1_555 1_555
C24 O4 1_555 1_555
Cd1A O1 1_555 1_555
Cd1E N1 1_555 1_555
Cd1G N2 1_555 1_555
Cd1D N1A 1_555 1_555
Cd1G_2 O4G 1_555 1_555
H1A O1 1_555 1_555
O2A Cd1A 1_555 1_555
O3A Cd1 1_555 1_555
O4G C24G 1_555 1_555
O4A Cd1A 1_555 1_555
O5G C24G 1_555 1_555
N1A C1A 1_555 1_555
N1E Cd1 1_555 1_555
N1D Cd1A 1_555 1_555
N2G Cd1 1_555 1_555
N2F Cd1A 1_555 1_555
C1A H2A 1_555 1_555
C2A C1A 1_555 1_555
C3A C2A 1_555 1_555
H3A C3A 1_555 1_555
C4A C3A 1_555 1_555
H4A C4A 1_555 1_555
C5A N1A 1_555 1_555
H5A C5A 1_555 1_555
C6A C2A 1_555 1_555
C7A C6A 1_555 1_555
H6A C7A 1_555 1_555
C8A C7A 1_555 1_555
H7A C8A 1_555 1_555
C9A C8A 1_555 1_555
C10A C9A 1_555 1_555
H8A C10A 1_555 1_555
C11A C6A 1_555 1_555
H9A C11A 1_555 1_555
C12A O2A 1_555 1_555
C13G N2G 1_555 1_555
H10G C13G 1_555 1_555
C14G C13G 1_555 1_555
C15G C14G 1_555 1_555
H11G C15G 1_555 1_555
C16G C15G 1_555 1_555
H12G C16G 1_555 1_555
C17G N2G 1_555 1_555
H13G C17G 1_555 1_555
C18G C14G 1_555 1_555
C19G C18G 1_555 1_555
H14G C19G 1_555 1_555
C20G C19G 1_555 1_555
H15G C20G 1_555 1_555
C21G C20G 1_555 1_555
C22G C21G 1_555 1_555
H16G C22G 1_555 1_555
C23G C18G 1_555 1_555
H17G C23G 1_555 1_555
C24G C21G 1_555 1_555
O3 Cd1A 1_555 1_555
C4 C5 1_555 1_555
C9 C12 1_555 1_555
C10 C11 1_555 1_555
C16 C17 1_555 1_555
C21 C24 1_555 1_555
C22 C23 1_555 1_555
O3A C12A 1_555 1_555
C4A C5A 1_555 1_555
C9A C12A 1_555 1_555
C10A C11A 1_555 1_555
C16G C17G 1_555 1_555
C22G C23G 1_555 1_555

#END
