
#######################################################################
#
#                 Cambridge Crystallographic Data Centre
#                                CCDC 
#
#######################################################################
#
# If this CIF has been generated from an entry in the Cambridge 
# Structural Database, then it will include bibliographic, chemical, 
# crystal, experimental, refinement or atomic coordinate data resulting 
# from the CCDC's data processing and validation procedures.
#
#######################################################################

data_GURXAT
_symmetry_cell_setting           triclinic
_symmetry_space_group_name_H-M   'P -1'
_symmetry_Int_Tables_number      2
_space_group_name_Hall           '-P 1'
loop_
_symmetry_equiv_pos_site_id
_symmetry_equiv_pos_as_xyz
1 x,y,z
2 -x,-y,-z
_cell_length_a                   9.314(3)
_cell_length_b                   12.252(4)
_cell_length_c                   17.834(6)
_cell_angle_alpha                104.811(4)
_cell_angle_beta                 92.1650(10)
_cell_angle_gamma                109.648(4)
_cell_volume                     1835.76
loop_
_atom_site_label
_atom_site_type_symbol
_atom_site_fract_x
_atom_site_fract_y
_atom_site_fract_z
Cd1 Cd 0.02656(6) 0.74331(5) 0.25273(3)
O1 O -0.2288(6) 0.6072(5) 0.2172(3)
N1 N -0.0619(7) 1.3240(6) -0.1218(4)
C1 C -0.2000(10) 1.2955(9) -0.0988(5)
H1 H -0.2851 1.2672 -0.1369
O2 O 0.2775(6) 0.8750(6) 0.2822(4)
N2 N -0.0179(8) 0.8986(6) 0.2104(4)
C2 C -0.2270(10) 1.3048(8) -0.0208(5)
H2 H -0.3269 1.2844 -0.0084
S1 S 0.4311(2) 0.89908(18) 0.31901(12)
O3 O 0.4289(9) 0.8619(6) 0.3889(4)
N3 N 0.0992(7) 0.6042(6) 0.2977(4)
C3 C -0.1033(10) 1.3447(8) 0.0375(5)
O4 O 0.5172(8) 0.8517(6) 0.2633(5)
N4 N 0.0463(8) 0.1916(6) 0.6236(4)
C4 C 0.0390(10) 1.3761(8) 0.0146(5)
H3 H 0.1255 1.4078 0.0522
O5 O 0.6965(8) 1.4310(5) 0.4195(4)
H4 H 0.6760 1.4581 0.3846
C5 C 0.0582(9) 1.3610(7) -0.0664(5)
O6 O 0.5034(8) 1.2598(6) 0.1891(4)
C6 C -0.1265(12) 1.3569(8) 0.1225(5)
H5 H -0.2352 1.3363 0.1272
H6 H -0.0729 1.4400 0.1536
O7 O 0.6239(8) 1.4321(6) 0.2836(4)
C7 C -0.0640(14) 1.2718(8) 0.1537(6)
H7 H 0.0459 1.2959 0.1517
H8 H -0.0802 1.2801 0.2080
C8 C -0.1401(14) 1.1439(9) 0.1077(6)
H9 H -0.1134 1.1336 0.0550
H10 H -0.2508 1.1225 0.1044
C9 C -0.0931(12) 1.0603(8) 0.1441(6)
H11 H -0.2949 0.6402 0.2147
C10 C -0.1813(12) 1.0067(9) 0.1947(6)
H12 H -0.2681 1.0247 0.2080
C11 C -0.1411(10) 0.9266(8) 0.2256(6)
H13 H -0.2036 0.8908 0.2586
C12 C 0.0722(11) 0.9523(9) 0.1638(6)
H14 H 0.1604 0.9348 0.1535
C13 C 0.0398(13) 1.0318(9) 0.1309(6)
H15 H 0.1064 1.0676 0.0993
C14 C 0.0227(9) 0.5522(8) 0.3491(5)
H16 H -0.0651 0.5678 0.3632
C15 C 0.0667(10) 0.4787(8) 0.3813(5)
H17 H 0.0092 0.4458 0.4169
C16 C 0.1974(9) 0.4505(7) 0.3624(5)
C17 C 0.2790(10) 0.5041(8) 0.3087(6)
H18 H 0.3668 0.4898 0.2933
C18 C 0.2232(10) 0.5783(8) 0.2792(5)
H19 H 0.2773 0.6132 0.2433
C19 C 0.2429(10) 0.3638(8) 0.3966(5)
H20 H 0.3518 0.3793 0.3950
H21 H 0.2254 0.3775 0.4509
C20 C 0.1524(10) 0.2345(8) 0.3522(5)
H22 H 0.1788 0.2187 0.2994
H23 H 0.0435 0.2218 0.3486
C21 C 0.1834(11) 0.1451(9) 0.3913(5)
H24 H 0.1275 0.0632 0.3588
H25 H 0.2923 0.1577 0.3946
C22 C 0.1375(10) 0.1582(8) 0.4706(5)
C23 C -0.0162(10) 0.1369(8) 0.4838(5)
H26 H -0.0926 0.1103 0.4413
C24 C -0.0559(10) 0.1548(8) 0.5589(5)
H27 H -0.1588 0.1407 0.5648
C25 C 0.1943(10) 0.2132(9) 0.6124(5)
H28 H 0.2683 0.2402 0.6561
C26 C 0.2416(10) 0.1970(9) 0.5387(5)
H29 H 0.3454 0.2124 0.5346
C27 C 0.5173(8) 1.0586(7) 0.3473(4)
C28 C 0.5841(9) 1.1218(8) 0.4238(5)
H30 H 0.5890 1.0794 0.4596
C29 C 0.6428(10) 1.2453(8) 0.4475(5)
H31 H 0.6845 1.2865 0.4994
C30 C 0.6398(9) 1.3085(8) 0.3943(5)
C31 C 0.5755(8) 1.2492(7) 0.3157(4)
C32 C 0.5157(8) 1.1239(7) 0.2936(5)
H32 H 0.4735 1.0822 0.2418
C33 C 0.5683(10) 1.3192(9) 0.2575(5)
H33 H -0.2354 0.5635 0.1708
Cd1A Cd -0.02656(6) 0.25669(5) 0.74727(3)
Cd1_2 Cd 0.02656(6) -0.25669(5) 1.25273(3)
Cd1A_2 Cd -0.02656(6) 1.25669(5) -0.25273(3)
O1A O 0.2288(6) 0.3928(5) 0.7828(3)
N1A N 0.0619(7) -0.3240(6) 1.1218(4)
N1_2 N -0.0619(7) 0.3240(6) 0.8782(4)
N1A_2 N 0.0619(7) 0.6760(6) 0.1218(4)
C1A C 0.2000(10) -0.2955(9) 1.0988(5)
H1A H 0.2851 -0.2672 1.1369
O2A O -0.2775(6) 0.1250(6) 0.7178(4)
N2A N 0.0179(8) 0.1014(6) 0.7896(4)
C2A C 0.2270(10) -0.3048(8) 1.0208(5)
H2A H 0.3269 -0.2844 1.0084
S1A S -0.4311(2) 0.10092(18) 0.68099(12)
O3A O -0.4289(9) 0.1381(6) 0.6111(4)
N3A N -0.0992(7) 0.3958(6) 0.7023(4)
C3A C 0.1033(10) -0.3447(8) 0.9625(5)
O4A O -0.5172(8) 0.1483(6) 0.7367(5)
N4A N -0.0463(8) 0.8084(6) 0.3764(4)
C4A C -0.0390(10) -0.3761(8) 0.9854(5)
H3A H -0.1255 -0.4078 0.9478
O5A O -0.6965(8) -0.4310(5) 0.5805(4)
H4A H -0.6760 -0.4581 0.6154
C5A C -0.0582(9) -0.3610(7) 1.0664(5)
O6A O -0.5034(8) -0.2598(6) 0.8109(4)
C6A C 0.1265(12) -0.3569(8) 0.8775(5)
H5A H 0.2352 -0.3363 0.8728
H6A H 0.0729 -0.4400 0.8464
O7A O -0.6239(8) -0.4321(6) 0.7164(4)
C7A C 0.0640(14) -0.2718(8) 0.8463(6)
H7A H -0.0459 -0.2959 0.8483
H8A H 0.0802 -0.2801 0.7920
C8A C 0.1401(14) -0.1439(9) 0.8923(6)
H9A H 0.1134 -0.1336 0.9450
H10A H 0.2508 -0.1225 0.8956
C9A C 0.0931(12) -0.0603(8) 0.8559(6)
H11A H 0.2949 0.3598 0.7853
C10A C 0.1813(12) -0.0067(9) 0.8053(6)
H12A H 0.2681 -0.0247 0.7920
C11A C 0.1411(10) 0.0734(8) 0.7744(6)
H13A H 0.2036 0.1092 0.7414
C12A C -0.0722(11) 0.0477(9) 0.8362(6)
H14A H -0.1604 0.0652 0.8465
C13A C -0.0398(13) -0.0318(9) 0.8691(6)
H15A H -0.1064 -0.0676 0.9007
C14A C -0.0227(9) 0.4478(8) 0.6509(5)
H16A H 0.0651 0.4322 0.6368
C15A C -0.0667(10) 0.5213(8) 0.6187(5)
H17A H -0.0092 0.5542 0.5831
C16A C -0.1974(9) 0.5495(7) 0.6376(5)
C17A C -0.2790(10) 0.4959(8) 0.6913(6)
H18A H -0.3668 0.5102 0.7067
C18A C -0.2232(10) 0.4217(8) 0.7208(5)
H19A H -0.2773 0.3868 0.7567
C19A C -0.2429(10) 0.6362(8) 0.6034(5)
H20A H -0.3518 0.6207 0.6050
H21A H -0.2254 0.6225 0.5491
C20A C -0.1524(10) 0.7655(8) 0.6478(5)
H22A H -0.1788 0.7813 0.7006
H23A H -0.0435 0.7782 0.6514
C21A C -0.1834(11) 0.8549(9) 0.6087(5)
H24A H -0.1275 0.9368 0.6412
H25A H -0.2923 0.8423 0.6054
C22A C -0.1375(10) 0.8418(8) 0.5294(5)
C23A C 0.0162(10) 0.8631(8) 0.5162(5)
H26A H 0.0926 0.8897 0.5587
C24A C 0.0559(10) 0.8452(8) 0.4411(5)
H27A H 0.1588 0.8593 0.4352
C25A C -0.1943(10) 0.7868(9) 0.3876(5)
H28A H -0.2683 0.7598 0.3439
C26A C -0.2416(10) 0.8030(9) 0.4613(5)
H29A H -0.3454 0.7876 0.4654
C27A C -0.5173(8) -0.0586(7) 0.6527(4)
C28A C -0.5841(9) -0.1218(8) 0.5762(5)
H30A H -0.5890 -0.0794 0.5404
C29A C -0.6428(10) -0.2453(8) 0.5525(5)
H31A H -0.6845 -0.2865 0.5006
C30A C -0.6398(9) -0.3085(8) 0.6057(5)
C31A C -0.5755(8) -0.2492(7) 0.6843(4)
C32A C -0.5157(8) -0.1239(7) 0.7064(5)
H32A H -0.4735 -0.0822 0.7582
C33A C -0.5683(10) -0.3192(9) 0.7425(5)
H33A H 0.2354 0.4365 0.8292
O8 O 0.4111(13) 1.0764(10) 0.0457(7)
O9 O 0.6553(11) 0.7548(9) 0.0297(5)
O10 O 0.5473(8) 0.6624(6) 0.1502(4)
O11 O 0.3929(10) 1.3998(8) 0.1153(5)
loop_
_geom_bond_atom_site_label_1
_geom_bond_atom_site_label_2
_geom_bond_site_symmetry_1
_geom_bond_site_symmetry_2
Cd1 O1 1_555 1_555
O1 H11 1_555 1_555
N1 C1 1_555 1_555
C1 H1 1_555 1_555
O2 Cd1 1_555 1_555
N2 Cd1 1_555 1_555
C2 C1 1_555 1_555
H2 C2 1_555 1_555
S1 O2 1_555 1_555
O3 S1 1_555 1_555
N3 Cd1 1_555 1_555
C3 C2 1_555 1_555
O4 S1 1_555 1_555
N4 C24 1_555 1_555
C4 C3 1_555 1_555
H3 C4 1_555 1_555
O5 H4 1_555 1_555
C5 N1 1_555 1_555
O6 C33 1_555 1_555
C6 C3 1_555 1_555
H5 C6 1_555 1_555
H6 C6 1_555 1_555
O7 C33 1_555 1_555
C7 C6 1_555 1_555
H7 C7 1_555 1_555
H8 C7 1_555 1_555
C8 C7 1_555 1_555
H9 C8 1_555 1_555
H10 C8 1_555 1_555
C9 C8 1_555 1_555
C10 C9 1_555 1_555
H12 C10 1_555 1_555
C11 N2 1_555 1_555
H13 C11 1_555 1_555
C12 N2 1_555 1_555
H14 C12 1_555 1_555
C13 C9 1_555 1_555
H15 C13 1_555 1_555
C14 N3 1_555 1_555
H16 C14 1_555 1_555
C15 C14 1_555 1_555
H17 C15 1_555 1_555
C16 C15 1_555 1_555
C17 C16 1_555 1_555
H18 C17 1_555 1_555
C18 N3 1_555 1_555
H19 C18 1_555 1_555
C19 C16 1_555 1_555
H20 C19 1_555 1_555
H21 C19 1_555 1_555
C20 C19 1_555 1_555
H22 C20 1_555 1_555
H23 C20 1_555 1_555
C21 C20 1_555 1_555
H24 C21 1_555 1_555
H25 C21 1_555 1_555
C22 C21 1_555 1_555
C23 C22 1_555 1_555
H26 C23 1_555 1_555
C24 C23 1_555 1_555
H27 C24 1_555 1_555
C25 N4 1_555 1_555
H28 C25 1_555 1_555
C26 C22 1_555 1_555
H29 C26 1_555 1_555
C27 S1 1_555 1_555
C28 C27 1_555 1_555
H30 C28 1_555 1_555
C29 C28 1_555 1_555
H31 C29 1_555 1_555
C30 O5 1_555 1_555
C31 C30 1_555 1_555
C32 C27 1_555 1_555
H32 C32 1_555 1_555
C33 C31 1_555 1_555
H33 O1 1_555 1_555
Cd1A N4 1_555 1_555
Cd1_2 N1A 1_555 1_555
Cd1A_2 N1 1_555 1_555
O1A Cd1A 1_555 1_555
N1A C1A 1_555 1_555
N1_2 Cd1A 1_555 1_555
N1A_2 Cd1 1_555 1_555
C1A H1A 1_555 1_555
O2A Cd1A 1_555 1_555
N2A Cd1A 1_555 1_555
C2A C1A 1_555 1_555
H2A C2A 1_555 1_555
S1A O2A 1_555 1_555
O3A S1A 1_555 1_555
N3A Cd1A 1_555 1_555
C3A C2A 1_555 1_555
O4A S1A 1_555 1_555
N4A Cd1 1_555 1_555
C4A C3A 1_555 1_555
H3A C4A 1_555 1_555
O5A H4A 1_555 1_555
C5A N1A 1_555 1_555
O6A C33A 1_555 1_555
C6A C3A 1_555 1_555
H5A C6A 1_555 1_555
H6A C6A 1_555 1_555
O7A C33A 1_555 1_555
C7A C6A 1_555 1_555
H7A C7A 1_555 1_555
H8A C7A 1_555 1_555
C8A C7A 1_555 1_555
H9A C8A 1_555 1_555
H10A C8A 1_555 1_555
C9A C8A 1_555 1_555
H11A O1A 1_555 1_555
C10A C9A 1_555 1_555
H12A C10A 1_555 1_555
C11A N2A 1_555 1_555
H13A C11A 1_555 1_555
C12A N2A 1_555 1_555
H14A C12A 1_555 1_555
C13A C9A 1_555 1_555
H15A C13A 1_555 1_555
C14A N3A 1_555 1_555
H16A C14A 1_555 1_555
C15A C14A 1_555 1_555
H17A C15A 1_555 1_555
C16A C15A 1_555 1_555
C17A C16A 1_555 1_555
H18A C17A 1_555 1_555
C18A N3A 1_555 1_555
H19A C18A 1_555 1_555
C19A C16A 1_555 1_555
H20A C19A 1_555 1_555
H21A C19A 1_555 1_555
C20A C19A 1_555 1_555
H22A C20A 1_555 1_555
H23A C20A 1_555 1_555
C21A C20A 1_555 1_555
H24A C21A 1_555 1_555
H25A C21A 1_555 1_555
C22A C21A 1_555 1_555
C23A C22A 1_555 1_555
H26A C23A 1_555 1_555
C24A N4A 1_555 1_555
H27A C24A 1_555 1_555
C25A N4A 1_555 1_555
H28A C25A 1_555 1_555
C26A C22A 1_555 1_555
H29A C26A 1_555 1_555
C27A S1A 1_555 1_555
C28A C27A 1_555 1_555
H30A C28A 1_555 1_555
C29A C28A 1_555 1_555
H31A C29A 1_555 1_555
C30A O5A 1_555 1_555
C31A C30A 1_555 1_555
C32A C27A 1_555 1_555
H32A C32A 1_555 1_555
C33A C31A 1_555 1_555
H33A O1A 1_555 1_555
C4 C5 1_555 1_555
C10 C11 1_555 1_555
C12 C13 1_555 1_555
C17 C18 1_555 1_555
C25 C26 1_555 1_555
C29 C30 1_555 1_555
C31 C32 1_555 1_555
C4A C5A 1_555 1_555
C10A C11A 1_555 1_555
C12A C13A 1_555 1_555
C17A C18A 1_555 1_555
C23A C24A 1_555 1_555
C25A C26A 1_555 1_555
C29A C30A 1_555 1_555
C31A C32A 1_555 1_555

#END
