
#######################################################################
#
#                 Cambridge Crystallographic Data Centre
#                                CCDC 
#
#######################################################################
#
# If this CIF has been generated from an entry in the Cambridge 
# Structural Database, then it will include bibliographic, chemical, 
# crystal, experimental, refinement or atomic coordinate data resulting 
# from the CCDC's data processing and validation procedures.
#
#######################################################################

data_GURXUN
_symmetry_cell_setting           monoclinic
_symmetry_space_group_name_H-M   'C 2/c'
_symmetry_Int_Tables_number      15
_space_group_name_Hall           '-C 2yn'
loop_
_symmetry_equiv_pos_site_id
_symmetry_equiv_pos_as_xyz
1 x,y,z
2 -x,y,1/2-z
3 1/2+x,1/2+y,z
4 1/2-x,1/2+y,1/2-z
5 -x,-y,-z
6 x,-y,1/2+z
7 1/2-x,1/2-y,-z
8 1/2+x,1/2-y,1/2+z
_cell_length_a                   12.022(3)
_cell_length_b                   15.243(3)
_cell_length_c                   22.350(5)
_cell_angle_alpha                90
_cell_angle_beta                 95.942(5)
_cell_angle_gamma                90
_cell_volume                     4073.66
loop_
_atom_site_label
_atom_site_type_symbol
_atom_site_fract_x
_atom_site_fract_y
_atom_site_fract_z
Cd1 Cd 0.358140(15) 0.179044(13) 0.280451(8)
O1 O -0.13721(16) 0.23157(14) -0.13700(8)
O2 O 0.0278(2) 0.16539(16) -0.14301(9)
O3 O 0.33994(15) 0.08234(13) 0.20380(8)
O4 O 0.50090(15) 0.10351(14) 0.16380(8)
O5 O 0.5000 0.26854(17) 0.2500
H1 H 0.5100 0.2998 0.2816
N1 N 0.22164(18) 0.26417(15) 0.22461(9)
N2 N 0.23007(18) -0.10225(16) -0.16726(9)
C1 C 0.1750(2) 0.23980(18) 0.17021(11)
H2 H 0.1944 0.1853 0.1558
C2 C 0.1943(3) 0.34276(19) 0.24478(13)
H3 H 0.2270 0.3612 0.2822
C3 C 0.1196(3) 0.3976(2) 0.21250(13)
H4 H 0.1019 0.4519 0.2280
C4 C 0.0713(2) 0.3711(2) 0.15679(12)
H5 H 0.0199 0.4072 0.1347
C5 C 0.0996(2) 0.29022(18) 0.13375(12)
C6 C 0.0568(2) 0.26095(18) 0.07229(11)
C7 C -0.0513(2) 0.2805(2) 0.04671(12)
H6 H -0.1010 0.3083 0.0697
C8 C -0.0852(2) 0.25887(19) -0.01242(12)
H7 H -0.1574 0.2726 -0.0288
C9 C -0.0127(2) 0.21680(18) -0.04779(11)
C10 C 0.0929(2) 0.19426(18) -0.02180(12)
H8 H 0.1413 0.1641 -0.0444
C11 C 0.1274(2) 0.21594(19) 0.03736(12)
H9 H 0.1988 0.2002 0.0540
C12 C -0.0433(3) 0.20195(19) -0.11455(13)
C13 C 0.2668(2) -0.07570(18) -0.11178(11)
H10 H 0.3432 -0.0793 -0.1001
C14 C 0.1199(2) -0.0967(2) -0.18328(13)
H11 H 0.0922 -0.1146 -0.2217
C15 C 0.0465(3) -0.0659(2) -0.14578(15)
H12 H -0.0293 -0.0624 -0.1589
C16 C 0.0854(2) -0.0398(2) -0.08817(13)
H13 H 0.0359 -0.0203 -0.0617
C17 C 0.1993(2) -0.04326(17) -0.07039(11)
C18 C 0.2499(2) -0.01408(17) -0.01024(11)
C19 C 0.3490(2) 0.03414(19) -0.00540(11)
H14 H 0.3828 0.0474 -0.0399
C20 C 0.3974(2) 0.06235(18) 0.04976(11)
H15 H 0.4640 0.0938 0.0520
C21 C 0.3486(2) 0.04457(16) 0.10208(10)
C22 C 0.2498(2) -0.00362(18) 0.09757(11)
H16 H 0.2159 -0.0166 0.1321
C23 C 0.2016(2) -0.03228(18) 0.04218(11)
H17 H 0.1355 -0.0644 0.0400
C24 C 0.4013(2) 0.07948(17) 0.16146(11)
Cd1A Cd 0.641860(15) 0.179044(13) 0.219549(8)
Cd1G Cd -0.141860(15) 0.320956(13) -0.219549(8)
Cd1E Cd 0.358140(15) -0.179044(13) -0.219549(8)
Cd1D Cd 0.641860(15) -0.179044(13) 0.719549(8)
Cd1G_2 Cd 0.858140(15) 0.320956(13) 0.780451(8)
O1G O 0.36279(16) 0.26843(14) 0.36300(8)
O1F O 0.63721(16) 0.26843(14) 0.13700(8)
O2G O 0.5278(2) 0.33461(16) 0.35699(9)
O3A O 0.66006(15) 0.08234(13) 0.29620(8)
O4A O 0.49910(15) 0.10351(14) 0.33620(8)
H1A H 0.4900 0.2998 0.2184
N1G N 0.72164(18) 0.23583(15) 0.72461(9)
N1A N 0.77836(18) 0.26417(15) 0.27539(9)
N2A N 0.76993(18) -0.10225(16) 0.66726(9)
N2E N 0.23007(18) 0.10225(16) 0.33274(9)
N2D N 0.76993(18) 0.10225(16) 0.16726(9)
C1G C 0.6750(2) 0.26020(18) 0.67021(11)
H2G H 0.6944 0.3147 0.6558
C2G C 0.6943(3) 0.15724(19) 0.74478(13)
H3G H 0.7270 0.1388 0.7822
C3G C 0.6196(3) 0.1024(2) 0.71250(13)
H4G H 0.6019 0.0481 0.7280
C4G C 0.5713(2) 0.1289(2) 0.65679(12)
H5G H 0.5199 0.0928 0.6347
C5G C 0.5996(2) 0.20978(18) 0.63375(12)
C6G C 0.5568(2) 0.23905(18) 0.57229(11)
C7G C 0.4487(2) 0.2195(2) 0.54671(12)
H6G H 0.3990 0.1917 0.5697
C8G C 0.4148(2) 0.24113(19) 0.48758(12)
H7G H 0.3426 0.2274 0.4712
C9G C 0.4873(2) 0.28320(18) 0.45221(11)
C10G C 0.5929(2) 0.30574(18) 0.47820(12)
H8G H 0.6413 0.3359 0.4556
C11G C 0.6274(2) 0.28406(19) 0.53736(12)
H9G H 0.6988 0.2998 0.5540
C12G C 0.4567(3) 0.29805(19) 0.38545(13)
C13A C 0.7332(2) -0.07570(18) 0.61178(11)
H10A H 0.6568 -0.0793 0.6001
C14A C 0.8801(2) -0.0967(2) 0.68328(13)
H11A H 0.9078 -0.1146 0.7217
C15A C 0.9535(3) -0.0659(2) 0.64578(15)
H12A H 1.0293 -0.0624 0.6589
C16A C 0.9146(2) -0.0398(2) 0.58817(13)
H13A H 0.9641 -0.0203 0.5617
C17A C 0.8007(2) -0.04326(17) 0.57039(11)
C18A C 0.7501(2) -0.01408(17) 0.51024(11)
C19A C 0.6510(2) 0.03414(19) 0.50540(11)
H14A H 0.6172 0.0474 0.5399
C20A C 0.6026(2) 0.06235(18) 0.45024(11)
H15A H 0.5360 0.0938 0.4480
C21A C 0.6514(2) 0.04457(16) 0.39792(10)
C22A C 0.7502(2) -0.00362(18) 0.40243(11)
H16A H 0.7841 -0.0166 0.3679
C23A C 0.7984(2) -0.03228(18) 0.45782(11)
H17A H 0.8645 -0.0644 0.4600
C24A C 0.5987(2) 0.07948(17) 0.33854(11)
loop_
_geom_bond_atom_site_label_1
_geom_bond_atom_site_label_2
_geom_bond_site_symmetry_1
_geom_bond_site_symmetry_2
Cd1 O3 1_555 1_555
O1 C12 1_555 1_555
O2 C12 1_555 1_555
O3 C24 1_555 1_555
O4 C24 1_555 1_555
O5 Cd1 1_555 1_555
H1 O5 1_555 1_555
N1 Cd1 1_555 1_555
N2 C13 1_555 1_555
C1 N1 1_555 1_555
H2 C1 1_555 1_555
C2 N1 1_555 1_555
H3 C2 1_555 1_555
C3 C2 1_555 1_555
H4 C3 1_555 1_555
C4 C3 1_555 1_555
H5 C4 1_555 1_555
C5 C1 1_555 1_555
C6 C5 1_555 1_555
C7 C6 1_555 1_555
H6 C7 1_555 1_555
C8 C7 1_555 1_555
H7 C8 1_555 1_555
C9 C8 1_555 1_555
C10 C9 1_555 1_555
H8 C10 1_555 1_555
C11 C6 1_555 1_555
H9 C11 1_555 1_555
C12 C9 1_555 1_555
C13 H10 1_555 1_555
C14 N2 1_555 1_555
H11 C14 1_555 1_555
C15 C14 1_555 1_555
H12 C15 1_555 1_555
C16 C15 1_555 1_555
H13 C16 1_555 1_555
C17 C13 1_555 1_555
C18 C17 1_555 1_555
C19 C18 1_555 1_555
H14 C19 1_555 1_555
C20 C19 1_555 1_555
H15 C20 1_555 1_555
C21 C20 1_555 1_555
C22 C21 1_555 1_555
H16 C22 1_555 1_555
C23 C18 1_555 1_555
H17 C23 1_555 1_555
C24 C21 1_555 1_555
Cd1A O4 1_555 1_555
Cd1G O1 1_555 1_555
Cd1E N2 1_555 1_555
Cd1D N2A 1_555 1_555
Cd1G_2 N1G 1_555 1_555
O1G Cd1 1_555 1_555
O1F Cd1A 1_555 1_555
O2G C12G 1_555 1_555
O3A Cd1A 1_555 1_555
O4A Cd1 1_555 1_555
H1A O5 1_555 1_555
N1G C1G 1_555 1_555
N1A Cd1A 1_555 1_555
N2A C13A 1_555 1_555
N2E Cd1 1_555 1_555
N2D Cd1A 1_555 1_555
C1G H2G 1_555 1_555
C2G N1G 1_555 1_555
H3G C2G 1_555 1_555
C3G C2G 1_555 1_555
H4G C3G 1_555 1_555
C4G C3G 1_555 1_555
H5G C4G 1_555 1_555
C5G C1G 1_555 1_555
C6G C5G 1_555 1_555
C7G C6G 1_555 1_555
H6G C7G 1_555 1_555
C8G C7G 1_555 1_555
H7G C8G 1_555 1_555
C9G C8G 1_555 1_555
C10G C9G 1_555 1_555
H8G C10G 1_555 1_555
C11G C6G 1_555 1_555
H9G C11G 1_555 1_555
C12G O1G 1_555 1_555
C13A H10A 1_555 1_555
C14A N2A 1_555 1_555
H11A C14A 1_555 1_555
C15A C14A 1_555 1_555
H12A C15A 1_555 1_555
C16A C15A 1_555 1_555
H13A C16A 1_555 1_555
C17A C13A 1_555 1_555
C18A C17A 1_555 1_555
C19A C18A 1_555 1_555
H14A C19A 1_555 1_555
C20A C19A 1_555 1_555
H15A C20A 1_555 1_555
C21A C20A 1_555 1_555
C22A C21A 1_555 1_555
H16A C22A 1_555 1_555
C23A C18A 1_555 1_555
H17A C23A 1_555 1_555
C24A O3A 1_555 1_555
O5 Cd1A 1_555 1_555
C4 C5 1_555 1_555
C10 C11 1_555 1_555
C16 C17 1_555 1_555
C22 C23 1_555 1_555
O4A C24A 1_555 1_555
C4G C5G 1_555 1_555
C9G C12G 1_555 1_555
C10G C11G 1_555 1_555
C16A C17A 1_555 1_555
C21A C24A 1_555 1_555
C22A C23A 1_555 1_555

#END
