
#######################################################################
#
#                 Cambridge Crystallographic Data Centre
#                                CCDC 
#
#######################################################################
#
# If this CIF has been generated from an entry in the Cambridge 
# Structural Database, then it will include bibliographic, chemical, 
# crystal, experimental, refinement or atomic coordinate data resulting 
# from the CCDC's data processing and validation procedures.
#
#######################################################################

data_GURXOH
_symmetry_cell_setting           monoclinic
_symmetry_space_group_name_H-M   'C 2/c'
_symmetry_Int_Tables_number      15
_space_group_name_Hall           '-C 2yn'
loop_
_symmetry_equiv_pos_site_id
_symmetry_equiv_pos_as_xyz
1 x,y,z
2 -x,y,1/2-z
3 1/2+x,1/2+y,z
4 1/2-x,1/2+y,1/2-z
5 -x,-y,-z
6 x,-y,1/2+z
7 1/2-x,1/2-y,-z
8 1/2+x,1/2-y,1/2+z
_cell_length_a                   11.863(2)
_cell_length_b                   15.487(3)
_cell_length_c                   21.635(5)
_cell_angle_alpha                90
_cell_angle_beta                 94.938(4)
_cell_angle_gamma                90
_cell_volume                     3960.08
loop_
_atom_site_label
_atom_site_type_symbol
_atom_site_fract_x
_atom_site_fract_y
_atom_site_fract_z
Zn1 Zn 0.63806(2) 0.322068(16) 0.216383(11)
O1 O 0.65443(12) 0.40789(9) 0.28950(7)
O2 O 0.49080(13) 0.39599(11) 0.33347(7)
O3 O 0.62972(13) 0.24175(11) 0.13679(7)
O4 O 0.46749(18) 0.17121(13) 0.14385(8)
O5 O 0.5000 0.24725(14) 0.2500
H1 H 0.5093 0.2148 0.2817
N1 N 0.76313(15) 0.60851(12) 0.66761(8)
N2 N 0.26336(15) 0.26059(12) -0.23262(8)
C1 C 0.9134(2) 0.54268(18) 0.58750(13)
H2 H 0.9645 0.5224 0.5607
C2 C 0.9504(2) 0.5701(2) 0.64648(14)
H3 H 1.0267 0.5667 0.6603
C3 C 0.8735(2) 0.60253(19) 0.68468(12)
H4 H 0.8998 0.6211 0.7242
C4 C 0.72918(19) 0.57985(15) 0.61076(10)
H5 H 0.6523 0.5831 0.5983
C5 C 0.79923(18) 0.54582(14) 0.56903(10)
C6 C 0.74898(18) 0.51436(14) 0.50763(10)
C7 C 0.64983(19) 0.46598(15) 0.50480(10)
H6 H 0.6168 0.4534 0.5412
C8 C 0.59958(19) 0.43637(15) 0.44879(10)
H7 H 0.5326 0.4050 0.4480
C9 C 0.64773(17) 0.45291(13) 0.39367(10)
C10 C 0.74750(18) 0.50069(14) 0.39618(10)
H8 H 0.7814 0.5119 0.3598
C11 C 0.79689(18) 0.53171(14) 0.45226(10)
H9 H 0.8627 0.5644 0.4530
C12 C 0.59242(18) 0.41609(13) 0.33380(10)
C13 C 0.5380(2) 0.20842(15) 0.11376(10)
C14 C 0.50958(19) 0.21862(14) 0.04465(10)
C15 C 0.4034(2) 0.19377(15) 0.01893(10)
H10 H 0.3556 0.1631 0.0428
C16 C 0.36807(19) 0.21406(15) -0.04171(10)
H11 H 0.2968 0.1964 -0.0582
C17 C 0.43676(18) 0.26030(14) -0.07878(10)
C18 C 0.54611(19) 0.28189(16) -0.05399(10)
H12 H 0.5951 0.3103 -0.0784
C19 C 0.58141(19) 0.26091(16) 0.00698(10)
H13 H 0.6543 0.2753 0.0230
C20 C 0.39091(19) 0.28913(14) -0.14159(10)
C21 C 0.31494(18) 0.23762(14) -0.17738(10)
H14 H 0.2986 0.1834 -0.1620
C22 C 0.2871(2) 0.33885(15) -0.25388(12)
H15 H 0.2519 0.3564 -0.2919
C23 C 0.3615(2) 0.39481(17) -0.22211(12)
H16 H 0.3754 0.4490 -0.2384
C24 C 0.4151(2) 0.36935(16) -0.16569(11)
H17 H 0.4670 0.4058 -0.1441
Zn1A Zn 0.36194(2) 0.322068(16) 0.283617(11)
Zn1E Zn 0.63806(2) 0.677932(16) 0.716383(11)
Zn1G Zn 0.13806(2) 0.177932(16) -0.283617(11)
Zn1D Zn 0.36194(2) 0.677932(16) -0.216383(11)
Zn1G_2 Zn 1.13806(2) 0.177932(16) 0.716383(11)
O1A O 0.34557(12) 0.40789(9) 0.21050(7)
O2A O 0.50920(13) 0.39599(11) 0.16653(7)
O3G O 1.12972(13) 0.25825(11) 0.63679(7)
O3A O 0.37028(13) 0.24175(11) 0.36321(7)
O4G O 0.96749(18) 0.32879(13) 0.64385(8)
H1A H 0.4907 0.2148 0.2183
N1A N 0.23687(15) 0.60851(12) -0.16761(8)
N1E N 0.76313(15) 0.39149(12) 0.16761(8)
N1D N 0.23687(15) 0.39149(12) 0.33239(8)
N2G N 0.76336(15) 0.23941(12) 0.26738(8)
N2F N 0.23664(15) 0.23941(12) 0.23262(8)
C1A C 0.0866(2) 0.54268(18) -0.08750(13)
H2A H 0.0355 0.5224 -0.0607
C2A C 0.0496(2) 0.5701(2) -0.14648(14)
H3A H -0.0267 0.5667 -0.1603
C3A C 0.1265(2) 0.60253(19) -0.18468(12)
H4A H 0.1002 0.6211 -0.2242
C4A C 0.27082(19) 0.57985(15) -0.11076(10)
H5A H 0.3477 0.5831 -0.0983
C5A C 0.20077(18) 0.54582(14) -0.06903(10)
C6A C 0.25102(18) 0.51436(14) -0.00763(10)
C7A C 0.35017(19) 0.46598(15) -0.00480(10)
H6A H 0.3832 0.4534 -0.0412
C8A C 0.40042(19) 0.43637(15) 0.05121(10)
H7A H 0.4674 0.4050 0.0520
C9A C 0.35227(17) 0.45291(13) 0.10633(10)
C10A C 0.25250(18) 0.50069(14) 0.10382(10)
H8A H 0.2186 0.5119 0.1402
C11A C 0.20311(18) 0.53171(14) 0.04774(10)
H9A H 0.1373 0.5644 0.0470
C12A C 0.40758(18) 0.41609(13) 0.16620(10)
C13G C 1.0380(2) 0.29158(15) 0.61376(10)
C14G C 1.00958(19) 0.28138(14) 0.54465(10)
C15G C 0.9034(2) 0.30623(15) 0.51893(10)
H10G H 0.8556 0.3369 0.5428
C16G C 0.86807(19) 0.28594(15) 0.45829(10)
H11G H 0.7968 0.3036 0.4418
C17G C 0.93676(18) 0.23970(14) 0.42122(10)
C18G C 1.04611(19) 0.21811(16) 0.44601(10)
H12G H 1.0951 0.1897 0.4216
C19G C 1.08141(19) 0.23909(16) 0.50698(10)
H13G H 1.1543 0.2247 0.5230
C20G C 0.89091(19) 0.21087(14) 0.35841(10)
C21G C 0.81494(18) 0.26238(14) 0.32262(10)
H14G H 0.7986 0.3166 0.3380
C22G C 0.7871(2) 0.16115(15) 0.24612(12)
H15G H 0.7519 0.1436 0.2081
C23G C 0.8615(2) 0.10519(17) 0.27789(12)
H16G H 0.8754 0.0510 0.2616
C24G C 0.9151(2) 0.13065(16) 0.33431(11)
H17G H 0.9670 0.0942 0.3559
loop_
_geom_bond_atom_site_label_1
_geom_bond_atom_site_label_2
_geom_bond_site_symmetry_1
_geom_bond_site_symmetry_2
Zn1 O1 1_555 1_555
O1 C12 1_555 1_555
O2 C12 1_555 1_555
O3 Zn1 1_555 1_555
O4 C13 1_555 1_555
O5 Zn1 1_555 1_555
H1 O5 1_555 1_555
N1 C3 1_555 1_555
N2 C21 1_555 1_555
C1 H2 1_555 1_555
C2 C1 1_555 1_555
H3 C2 1_555 1_555
C3 C2 1_555 1_555
H4 C3 1_555 1_555
C4 N1 1_555 1_555
H5 C4 1_555 1_555
C5 C1 1_555 1_555
C6 C5 1_555 1_555
C7 C6 1_555 1_555
H6 C7 1_555 1_555
C8 C7 1_555 1_555
H7 C8 1_555 1_555
C9 C8 1_555 1_555
C10 C9 1_555 1_555
H8 C10 1_555 1_555
C11 C6 1_555 1_555
H9 C11 1_555 1_555
C12 C9 1_555 1_555
C13 O3 1_555 1_555
C14 C13 1_555 1_555
C15 C14 1_555 1_555
H10 C15 1_555 1_555
C16 C15 1_555 1_555
H11 C16 1_555 1_555
C17 C16 1_555 1_555
C18 C17 1_555 1_555
H12 C18 1_555 1_555
C19 C14 1_555 1_555
H13 C19 1_555 1_555
C20 C17 1_555 1_555
C21 C20 1_555 1_555
H14 C21 1_555 1_555
C22 N2 1_555 1_555
H15 C22 1_555 1_555
C23 C22 1_555 1_555
H16 C23 1_555 1_555
C24 C20 1_555 1_555
H17 C24 1_555 1_555
Zn1A O2 1_555 1_555
Zn1E N1 1_555 1_555
Zn1G N2 1_555 1_555
Zn1D N1A 1_555 1_555
Zn1G_2 O3G 1_555 1_555
O1A Zn1A 1_555 1_555
O2A Zn1 1_555 1_555
O3G C13G 1_555 1_555
O3A Zn1A 1_555 1_555
O4G C13G 1_555 1_555
H1A O5 1_555 1_555
N1A C3A 1_555 1_555
N1E Zn1 1_555 1_555
N1D Zn1A 1_555 1_555
N2G Zn1 1_555 1_555
N2F Zn1A 1_555 1_555
C1A H2A 1_555 1_555
C2A C1A 1_555 1_555
H3A C2A 1_555 1_555
C3A C2A 1_555 1_555
H4A C3A 1_555 1_555
C4A N1A 1_555 1_555
H5A C4A 1_555 1_555
C5A C1A 1_555 1_555
C6A C5A 1_555 1_555
C7A C6A 1_555 1_555
H6A C7A 1_555 1_555
C8A C7A 1_555 1_555
H7A C8A 1_555 1_555
C9A C8A 1_555 1_555
C10A C9A 1_555 1_555
H8A C10A 1_555 1_555
C11A C6A 1_555 1_555
H9A C11A 1_555 1_555
C12A O1A 1_555 1_555
C13G C14G 1_555 1_555
C14G C15G 1_555 1_555
C15G H10G 1_555 1_555
C16G C15G 1_555 1_555
H11G C16G 1_555 1_555
C17G C16G 1_555 1_555
C18G C17G 1_555 1_555
H12G C18G 1_555 1_555
C19G C14G 1_555 1_555
H13G C19G 1_555 1_555
C20G C17G 1_555 1_555
C21G N2G 1_555 1_555
H14G C21G 1_555 1_555
C22G N2G 1_555 1_555
H15G C22G 1_555 1_555
C23G C22G 1_555 1_555
H16G C23G 1_555 1_555
C24G C20G 1_555 1_555
H17G C24G 1_555 1_555
O5 Zn1A 1_555 1_555
C4 C5 1_555 1_555
C10 C11 1_555 1_555
C18 C19 1_555 1_555
C23 C24 1_555 1_555
O2A C12A 1_555 1_555
C4A C5A 1_555 1_555
C9A C12A 1_555 1_555
C10A C11A 1_555 1_555
C18G C19G 1_555 1_555
C20G C21G 1_555 1_555
C23G C24G 1_555 1_555

#END
