
#######################################################################
#
#                 Cambridge Crystallographic Data Centre
#                                CCDC 
#
#######################################################################
#
# If this CIF has been generated from an entry in the Cambridge 
# Structural Database, then it will include bibliographic, chemical, 
# crystal, experimental, refinement or atomic coordinate data resulting 
# from the CCDC's data processing and validation procedures.
#
#######################################################################

data_GURXIB02
_symmetry_cell_setting           monoclinic
_symmetry_space_group_name_H-M   'C 2/c'
_symmetry_Int_Tables_number      15
_space_group_name_Hall           '-C 2yn'
loop_
_symmetry_equiv_pos_site_id
_symmetry_equiv_pos_as_xyz
1 x,y,z
2 -x,y,1/2-z
3 1/2+x,1/2+y,z
4 1/2-x,1/2+y,1/2-z
5 -x,-y,-z
6 x,-y,1/2+z
7 1/2-x,1/2-y,-z
8 1/2+x,1/2-y,1/2+z
_cell_length_a                   11.981(6)
_cell_length_b                   15.364(8)
_cell_length_c                   21.948(11)
_cell_angle_alpha                90
_cell_angle_beta                 95.632(7)
_cell_angle_gamma                90
_cell_volume                     4020.6
loop_
_atom_site_label
_atom_site_type_symbol
_atom_site_fract_x
_atom_site_fract_y
_atom_site_fract_z
Mn1 Mn 0.63793(2) 0.17898(2) 0.716532(12)
O1 O 0.65497(11) -0.09079(9) 0.29227(6)
O2 O 0.5000 0.26233(15) 0.7500
O3 O 0.49371(11) -0.10397(11) 0.33420(6)
O4 O 0.63136(12) 0.26363(11) 0.63768(6)
N1 N 0.76805(14) 0.10575(12) 0.66693(7)
C1 C 0.80021(16) 0.04509(13) 0.56876(9)
N2 N 0.27157(14) 0.23698(12) 0.27066(7)
C2 C 0.39589(16) 0.20958(14) 0.36209(8)
C3 C 0.74905(15) 0.01391(13) 0.50823(8)
C4 C 0.64884(16) -0.04672(13) 0.39506(8)
O5 O 0.47057(17) 0.33491(13) 0.64291(7)
C5 C 0.74762(16) 0.00064(14) 0.39845(9)
H1 H 0.7814 0.0120 0.3629
C6 C 0.43943(16) 0.23890(13) 0.42457(8)
C7 C 0.91375(18) 0.04223(17) 0.58661(11)
H2 H 0.9635 0.0221 0.5598
C8 C 0.54796(17) 0.21861(15) 0.45000(9)
H3 H 0.5972 0.1902 0.4265
C9 C 0.60037(17) -0.06326(14) 0.44896(9)
H4 H 0.5336 -0.0944 0.4476
C10 C 0.40491(18) 0.30631(14) 0.52004(9)
H5 H 0.3569 0.3369 0.5431
C11 C 0.73188(17) 0.07759(15) 0.61067(9)
H6 H 0.6552 0.0801 0.5989
C12 C 0.58236(17) 0.24069(15) 0.51020(9)
H7 H 0.6547 0.2270 0.5266
C13 C 0.79671(17) 0.03120(14) 0.45406(9)
H8 H 0.8624 0.0637 0.4553
C14 C 0.51072(17) 0.28280(14) 0.54625(9)
C15 C 0.2975(2) 0.15836(16) 0.25038(10)
H9 H 0.2636 0.1401 0.2126
C16 C 0.59472(16) -0.08333(13) 0.33551(8)
C17 C 0.32047(16) 0.26048(14) 0.32585(8)
H10 H 0.3024 0.3148 0.3408
C18 C 0.42192(19) 0.12907(15) 0.33861(10)
H11 H 0.4732 0.0928 0.3608
C19 C 0.37022(17) 0.28464(15) 0.46006(9)
H12 H 0.2991 0.3011 0.4432
C20 C 0.3718(2) 0.10297(16) 0.28253(10)
H13 H 0.3879 0.0488 0.2666
C21 C 0.9527(2) 0.0697(2) 0.64470(12)
H14 H 1.0288 0.0673 0.6578
C22 C 0.65049(17) -0.03381(14) 0.50460(9)
H15 H 0.6175 -0.0463 0.5402
C23 C 0.5400(2) 0.29623(15) 0.61430(9)
C24 C 0.87755(19) 0.10058(18) 0.68301(11)
H16 H 0.9048 0.1187 0.7221
H17 H 0.494(2) 0.298(2) 0.7172(12)
H17A H 0.506(2) 0.298(2) 0.7828(12)
Mn1A Mn 0.36207(2) 0.17898(2) 0.783468(12)
O1A O 0.34503(11) -0.09079(9) 1.20773(6)
O3A O 0.50629(11) -0.10397(11) 1.16580(6)
O4A O 0.36864(12) 0.26363(11) 0.86232(6)
N1A N 0.23195(14) 0.10575(12) 0.83307(7)
C1A C 0.19979(16) 0.04509(13) 0.93124(9)
N2A N 0.72843(14) 0.23698(12) 1.22934(7)
C2A C 0.60411(16) 0.20958(14) 1.13791(8)
C3A C 0.25095(15) 0.01391(13) 0.99177(8)
C4A C 0.35116(16) -0.04672(13) 1.10494(8)
O5A O 0.52943(17) 0.33491(13) 0.85709(7)
C5A C 0.25238(16) 0.00064(14) 1.10155(9)
H1A H 0.2186 0.0120 1.1371
C6A C 0.56057(16) 0.23890(13) 1.07543(8)
C7A C 0.08625(18) 0.04223(17) 0.91339(11)
H2A H 0.0365 0.0221 0.9402
C8A C 0.45204(17) 0.21861(15) 1.05000(9)
H3A H 0.4028 0.1902 1.0735
C9A C 0.39963(17) -0.06326(14) 1.05104(9)
H4A H 0.4664 -0.0944 1.0524
C10A C 0.59509(18) 0.30631(14) 0.97996(9)
H5A H 0.6431 0.3369 0.9569
C11A C 0.26812(17) 0.07759(15) 0.88933(9)
H6A H 0.3448 0.0801 0.9011
C12A C 0.41764(17) 0.24069(15) 0.98980(9)
H7A H 0.3453 0.2270 0.9734
C13A C 0.20329(17) 0.03120(14) 1.04594(9)
H8A H 0.1376 0.0637 1.0447
C14A C 0.48928(17) 0.28280(14) 0.95375(9)
C15A C 0.7025(2) 0.15836(16) 1.24962(10)
H9A H 0.7364 0.1401 1.2874
C16A C 0.40528(16) -0.08333(13) 1.16449(8)
C17A C 0.67953(16) 0.26048(14) 1.17415(8)
H10A H 0.6976 0.3148 1.1592
C18A C 0.57808(19) 0.12907(15) 1.16139(10)
H11A H 0.5268 0.0928 1.1392
C19A C 0.62978(17) 0.28464(15) 1.03994(9)
H12A H 0.7009 0.3011 1.0568
C20A C 0.6282(2) 0.10297(16) 1.21747(10)
H13A H 0.6121 0.0488 1.2334
C21A C 0.0473(2) 0.0697(2) 0.85530(12)
H14A H -0.0288 0.0673 0.8422
C22A C 0.34951(17) -0.03381(14) 0.99540(9)
H15A H 0.3825 -0.0463 0.9598
C23A C 0.4600(2) 0.29623(15) 0.88570(9)
C24A C 0.12245(19) 0.10058(18) 0.81699(11)
H16A H 0.0952 0.1187 0.7779
Mn1D Mn 0.36207(2) -0.17898(2) 0.283468(12)
Mn1D_2 Mn 0.36207(2) -0.17898(2) 1.283468(12)
Mn1E Mn 0.63793(2) -0.17898(2) 0.216532(12)
Mn1E_2 Mn 0.63793(2) -0.17898(2) 1.216532(12)
Mn1F Mn 0.86207(2) 0.32102(2) 1.283468(12)
Mn1G Mn 0.13793(2) 0.32102(2) 0.216532(12)
O1D O 0.34503(11) 0.09079(9) 0.70773(6)
O1E O 0.65497(11) 0.09079(9) 0.79227(6)
O3D O 0.50629(11) 0.10397(11) 0.66580(6)
O3E O 0.49371(11) 0.10397(11) 0.83420(6)
N2F N 0.22843(14) 0.26302(12) 0.72934(7)
N2G N 0.77157(14) 0.26302(12) 0.77066(7)
loop_
_geom_bond_atom_site_label_1
_geom_bond_atom_site_label_2
_geom_bond_site_symmetry_1
_geom_bond_site_symmetry_2
Mn1 O2 1_555 1_555
O1 C16 1_555 1_555
O2 H17 1_555 1_555
O3 C16 1_555 1_555
O4 Mn1 1_555 1_555
N1 Mn1 1_555 1_555
C1 C3 1_555 1_555
N2 C15 1_555 1_555
C2 C6 1_555 1_555
C3 C13 1_555 1_555
C4 C5 1_555 1_555
O5 C23 1_555 1_555
C5 H1 1_555 1_555
C6 C8 1_555 1_555
C7 C1 1_555 1_555
H2 C7 1_555 1_555
C8 H3 1_555 1_555
C9 C4 1_555 1_555
H4 C9 1_555 1_555
C10 H5 1_555 1_555
C11 N1 1_555 1_555
H6 C11 1_555 1_555
C12 C8 1_555 1_555
H7 C12 1_555 1_555
C13 C5 1_555 1_555
H8 C13 1_555 1_555
C14 C10 1_555 1_555
C15 H9 1_555 1_555
C16 C4 1_555 1_555
C17 N2 1_555 1_555
H10 C17 1_555 1_555
C18 C2 1_555 1_555
H11 C18 1_555 1_555
C19 C6 1_555 1_555
H12 C19 1_555 1_555
C20 C15 1_555 1_555
H13 C20 1_555 1_555
C21 C7 1_555 1_555
H14 C21 1_555 1_555
C22 C3 1_555 1_555
H15 C22 1_555 1_555
C23 O4 1_555 1_555
C24 N1 1_555 1_555
H16 C24 1_555 1_555
H17A O2 1_555 1_555
Mn1A O2 1_555 1_555
O1A C16A 1_555 1_555
O3A C16A 1_555 1_555
O4A Mn1A 1_555 1_555
N1A Mn1A 1_555 1_555
C1A C3A 1_555 1_555
N2A C15A 1_555 1_555
C2A C6A 1_555 1_555
C3A C13A 1_555 1_555
C4A C5A 1_555 1_555
O5A C23A 1_555 1_555
C5A H1A 1_555 1_555
C6A C8A 1_555 1_555
C7A C1A 1_555 1_555
H2A C7A 1_555 1_555
C8A H3A 1_555 1_555
C9A C4A 1_555 1_555
H4A C9A 1_555 1_555
C10A H5A 1_555 1_555
C11A N1A 1_555 1_555
H6A C11A 1_555 1_555
C12A C8A 1_555 1_555
H7A C12A 1_555 1_555
C13A C5A 1_555 1_555
H8A C13A 1_555 1_555
C14A C10A 1_555 1_555
C15A H9A 1_555 1_555
C16A C4A 1_555 1_555
C17A N2A 1_555 1_555
H10A C17A 1_555 1_555
C18A C2A 1_555 1_555
H11A C18A 1_555 1_555
C19A C6A 1_555 1_555
H12A C19A 1_555 1_555
C20A C15A 1_555 1_555
H13A C20A 1_555 1_555
C21A C7A 1_555 1_555
H14A C21A 1_555 1_555
C22A C3A 1_555 1_555
H15A C22A 1_555 1_555
C23A O4A 1_555 1_555
C24A N1A 1_555 1_555
H16A C24A 1_555 1_555
Mn1D O3 1_555 1_555
Mn1D_2 O1A 1_555 1_555
Mn1E O1 1_555 1_555
Mn1E_2 O3A 1_555 1_555
Mn1F N2A 1_555 1_555
Mn1G N2 1_555 1_555
O1D Mn1A 1_555 1_555
O1E Mn1 1_555 1_555
O3D Mn1 1_555 1_555
O3E Mn1A 1_555 1_555
N2F Mn1A 1_555 1_555
N2G Mn1 1_555 1_555
C1 C11 1_555 1_555
C2 C17 1_555 1_555
C9 C22 1_555 1_555
C10 C19 1_555 1_555
C12 C14 1_555 1_555
C14 C23 1_555 1_555
C18 C20 1_555 1_555
C21 C24 1_555 1_555
C1A C11A 1_555 1_555
C2A C17A 1_555 1_555
C9A C22A 1_555 1_555
C10A C19A 1_555 1_555
C12A C14A 1_555 1_555
C14A C23A 1_555 1_555
C18A C20A 1_555 1_555
C21A C24A 1_555 1_555

#END
