
#######################################################################
#
#                 Cambridge Crystallographic Data Centre
#                                CCDC 
#
#######################################################################
#
# If this CIF has been generated from an entry in the Cambridge 
# Structural Database, then it will include bibliographic, chemical, 
# crystal, experimental, refinement or atomic coordinate data resulting 
# from the CCDC's data processing and validation procedures.
#
#######################################################################

data_GURXEX
_symmetry_cell_setting           triclinic
_symmetry_space_group_name_H-M   'P -1'
_symmetry_Int_Tables_number      2
_space_group_name_Hall           '-P 1'
loop_
_symmetry_equiv_pos_site_id
_symmetry_equiv_pos_as_xyz
1 x,y,z
2 -x,-y,-z
_cell_length_a                   8.017
_cell_length_b                   10.410
_cell_length_c                   11.007
_cell_angle_alpha                117.91
_cell_angle_beta                 94.55
_cell_angle_gamma                104.81
_cell_volume                     763.211
loop_
_atom_site_label
_atom_site_type_symbol
_atom_site_fract_x
_atom_site_fract_y
_atom_site_fract_z
Ag1 Ag 0.11422(3) 0.40212(2) 0.03404(2)
N1 N 0.9341(3) 1.2076(2) 0.0337(2)
N2 N 0.3243(3) 0.5782(2) 0.0321(2)
C1 C 0.8403(4) 1.0799(3) -0.0845(3)
H1 H 0.8518 1.0744 -0.1701
C2 C 0.7264(4) 0.9548(3) -0.0869(3)
H2 H 0.6635 0.8676 -0.1733
C3 C 0.7036(3) 0.9564(3) 0.0369(2)
C4 C 0.8021(4) 1.0901(3) 0.1604(3)
H3 H 0.7936 1.0979 0.2473
C5 C 0.9134(4) 1.2122(3) 0.1552(3)
H4 H 0.9768 1.3017 0.2399
C6 C 0.5770(3) 0.8238(3) 0.0351(2)
C7 C 0.4709(3) 0.6943(3) -0.0902(3)
H5 H 0.4828 0.6875 -0.1762
C8 C 0.3484(3) 0.5759(3) -0.0880(3)
H6 H 0.2794 0.4906 -0.1735
C9 C 0.4283(4) 0.7005(3) 0.1525(3)
H7 H 0.4158 0.7031 0.2368
C10 C 0.5531(3) 0.8233(3) 0.1587(3)
H8 H 0.6218 0.9061 0.2458
Ag1_2 Ag 1.11422(3) 1.40212(2) 0.03404(2)
N1_2 N -0.0659(3) 0.2076(2) 0.0337(2)
S1 S -0.09975(8) 0.27962(7) 0.62770(6)
O1 O -0.1111(3) 0.4324(2) 0.6783(2)
O2 O -0.2489(2) 0.1622(2) 0.5100(2)
O3 O -0.0745(3) 0.2447(3) 0.7387(2)
O4 O 0.5399(3) 0.2639(3) 0.3988(2)
C11 C 0.3912(3) 0.2638(3) 0.4518(3)
C12 C 0.3037(3) 0.3615(3) 0.4493(3)
H9 H 0.3451 0.4229 0.4109
C13 C 0.1547(3) 0.3676(3) 0.5041(3)
H10 H 0.0971 0.4345 0.5040
C14 C 0.0913(3) 0.2747(3) 0.5589(2)
C15 C 0.1773(3) 0.1744(3) 0.5578(3)
H11 H 0.1338 0.1106 0.5934
C16 C 0.3271(3) 0.1685(3) 0.5044(3)
H12 H 0.3842 0.1010 0.5038
H13 H 0.6067 0.2265 0.4330
loop_
_geom_bond_atom_site_label_1
_geom_bond_atom_site_label_2
_geom_bond_site_symmetry_1
_geom_bond_site_symmetry_2
Ag1 N2 1_555 1_555
N1 C1 1_555 1_555
N2 C8 1_555 1_555
C1 H1 1_555 1_555
C2 C1 1_555 1_555
H2 C2 1_555 1_555
C3 C2 1_555 1_555
C4 C3 1_555 1_555
H3 C4 1_555 1_555
C5 N1 1_555 1_555
H4 C5 1_555 1_555
C6 C3 1_555 1_555
C7 C6 1_555 1_555
H5 C7 1_555 1_555
C8 C7 1_555 1_555
H6 C8 1_555 1_555
C9 N2 1_555 1_555
H7 C9 1_555 1_555
C10 C6 1_555 1_555
H8 C10 1_555 1_555
S1 O1 1_555 1_555
O2 S1 1_555 1_555
O3 S1 1_555 1_555
O4 C11 1_555 1_555
C11 C12 1_555 1_555
C12 H9 1_555 1_555
C13 C12 1_555 1_555
H10 C13 1_555 1_555
C14 S1 1_555 1_555
C15 C14 1_555 1_555
H11 C15 1_555 1_555
C16 C11 1_555 1_555
H12 C16 1_555 1_555
H13 O4 1_555 1_555
Ag1_2 N1 1_555 1_555
N1_2 Ag1 1_555 1_555
C4 C5 1_555 1_555
C9 C10 1_555 1_555
C13 C14 1_555 1_555
C15 C16 1_555 1_555

#END
