
#######################################################################
#
#                 Cambridge Crystallographic Data Centre
#                                CCDC 
#
#######################################################################
#
# If this CIF has been generated from an entry in the Cambridge 
# Structural Database, then it will include bibliographic, chemical, 
# crystal, experimental, refinement or atomic coordinate data resulting 
# from the CCDC's data processing and validation procedures.
#
#######################################################################

data_GURYAU
_symmetry_cell_setting           orthorhombic
_symmetry_space_group_name_H-M   'P c c n'
_symmetry_Int_Tables_number      56
_space_group_name_Hall           '-P 2ab 2ac'
loop_
_symmetry_equiv_pos_site_id
_symmetry_equiv_pos_as_xyz
1 x,y,z
2 1/2-x,1/2-y,z
3 -x,1/2+y,1/2-z
4 1/2+x,-y,1/2-z
5 -x,-y,-z
6 1/2+x,1/2+y,-z
7 x,1/2-y,1/2+z
8 1/2-x,y,1/2+z
_cell_length_a                   10.704(2)
_cell_length_b                   21.357(4)
_cell_length_c                   8.6347(16)
_cell_angle_alpha                90
_cell_angle_beta                 90
_cell_angle_gamma                90
_cell_volume                     1973.94
loop_
_atom_site_label
_atom_site_type_symbol
_atom_site_fract_x
_atom_site_fract_y
_atom_site_fract_z
Pb1 Pb -0.2500 0.2500 1.017720(19)
O1 O 0.0730(3) 0.65193(13) 0.5161(3)
O2 O 0.2102(3) 0.68106(12) 0.6929(3)
N1 N -0.0250(3) 0.30584(16) 0.9811(4)
C1 C -0.0078(4) 0.36070(18) 0.9109(5)
H1 H -0.0671 0.3733 0.8385
C2 C 0.0588(5) 0.2879(2) 1.0854(7)
H2 H 0.0473 0.2501 1.1367
C3 C 0.1608(6) 0.3233(3) 1.1195(8)
H3 H 0.2183 0.3095 1.1927
C4 C 0.1785(5) 0.3796(3) 1.0452(8)
H4 H 0.2488 0.4036 1.0670
C5 C 0.0925(4) 0.40033(18) 0.9386(5)
C6 C 0.1019(4) 0.46248(17) 0.8625(5)
C7 C 0.1887(4) 0.50627(18) 0.9096(5)
H5 H 0.2432 0.4965 0.9898
C8 C 0.1961(4) 0.56435(18) 0.8399(5)
H6 H 0.2551 0.5930 0.8750
C9 C 0.1183(4) 0.58101(18) 0.7199(4)
C10 C 0.0305(4) 0.5377(2) 0.6725(5)
H7 H -0.0246 0.5478 0.5931
C11 C 0.0234(5) 0.4796(2) 0.7413(5)
H8 H -0.0356 0.4510 0.7058
C12 C 0.1315(4) 0.64205(17) 0.6368(5)
Pb1B Pb -0.7500 -0.2500 0.482280(19)
Pb1B_2 Pb 0.2500 0.7500 0.482280(19)
O1A O -0.5730(3) -0.15193(13) 0.5161(3)
O1B O -0.0730(3) 0.15193(13) 0.9839(3)
O1C O -0.4270(3) 0.34807(13) 0.9839(3)
O2A O -0.7102(3) -0.18106(12) 0.6929(3)
O2B O -0.2102(3) 0.18106(12) 0.8071(3)
O2C O -0.2898(3) 0.31894(12) 0.8071(3)
N1A N -0.4750(3) 0.19416(16) 0.9811(4)
C1A C -0.4922(4) 0.13930(18) 0.9109(5)
H1A H -0.4329 0.1267 0.8385
C2A C -0.5588(5) 0.2121(2) 1.0854(7)
H2A H -0.5473 0.2499 1.1367
C3A C -0.6608(6) 0.1767(3) 1.1195(8)
H3A H -0.7183 0.1905 1.1927
C4A C -0.6785(5) 0.1204(3) 1.0452(8)
H4A H -0.7488 0.0964 1.0670
C5A C -0.5925(4) 0.09967(18) 0.9386(5)
C6A C -0.6019(4) 0.03752(17) 0.8625(5)
C7A C -0.6887(4) -0.00627(18) 0.9096(5)
H5A H -0.7432 0.0035 0.9898
C8A C -0.6961(4) -0.06435(18) 0.8399(5)
H6A H -0.7551 -0.0930 0.8750
C9A C -0.6183(4) -0.08101(18) 0.7199(4)
C10A C -0.5305(4) -0.0377(2) 0.6725(5)
H7A H -0.4754 -0.0478 0.5931
C11A C -0.5234(5) 0.0204(2) 0.7413(5)
H8A H -0.4644 0.0490 0.7058
C12A C -0.6315(4) -0.14205(17) 0.6368(5)
loop_
_geom_bond_atom_site_label_1
_geom_bond_atom_site_label_2
_geom_bond_site_symmetry_1
_geom_bond_site_symmetry_2
Pb1 N1 1_555 1_555
O1 C12 1_555 1_555
O2 C12 1_555 1_555
N1 C1 1_555 1_555
C1 H1 1_555 1_555
C2 N1 1_555 1_555
H2 C2 1_555 1_555
C3 C2 1_555 1_555
H3 C3 1_555 1_555
C4 C3 1_555 1_555
H4 C4 1_555 1_555
C5 C1 1_555 1_555
C6 C5 1_555 1_555
C7 C6 1_555 1_555
H5 C7 1_555 1_555
C8 C7 1_555 1_555
H6 C8 1_555 1_555
C9 C8 1_555 1_555
C10 C9 1_555 1_555
H7 C10 1_555 1_555
C11 C6 1_555 1_555
H8 C11 1_555 1_555
C12 C9 1_555 1_555
Pb1B O1A 1_555 1_555
Pb1B_2 O1 1_555 1_555
O1A C12A 1_555 1_555
O1B Pb1 1_555 1_555
O1C Pb1 1_555 1_555
O2A Pb1B 1_555 1_555
O2B Pb1 1_555 1_555
O2C Pb1 1_555 1_555
N1A Pb1 1_555 1_555
C1A N1A 1_555 1_555
H1A C1A 1_555 1_555
C2A N1A 1_555 1_555
H2A C2A 1_555 1_555
C3A C2A 1_555 1_555
H3A C3A 1_555 1_555
C4A C3A 1_555 1_555
H4A C4A 1_555 1_555
C5A C1A 1_555 1_555
C6A C5A 1_555 1_555
C7A C6A 1_555 1_555
H5A C7A 1_555 1_555
C8A C7A 1_555 1_555
H6A C8A 1_555 1_555
C9A C8A 1_555 1_555
C10A C9A 1_555 1_555
H7A C10A 1_555 1_555
C11A C6A 1_555 1_555
H8A C11A 1_555 1_555
C12A O2A 1_555 1_555
O2 Pb1B_2 1_555 1_555
C4 C5 1_555 1_555
C10 C11 1_555 1_555
C4A C5A 1_555 1_555
C9A C12A 1_555 1_555
C10A C11A 1_555 1_555

#END
