
#######################################################################
#
#                 Cambridge Crystallographic Data Centre
#                                CCDC 
#
#######################################################################
#
# If this CIF has been generated from an entry in the Cambridge 
# Structural Database, then it will include bibliographic, chemical, 
# crystal, experimental, refinement or atomic coordinate data resulting 
# from the CCDC's data processing and validation procedures.
#
#######################################################################

data_GURYIC
_symmetry_cell_setting           triclinic
_symmetry_space_group_name_H-M   'P -1'
_symmetry_Int_Tables_number      2
_space_group_name_Hall           '-P 1'
loop_
_symmetry_equiv_pos_site_id
_symmetry_equiv_pos_as_xyz
1 x,y,z
2 -x,-y,-z
_cell_length_a                   6.5328(2)
_cell_length_b                   9.7828(4)
_cell_length_c                   10.4889(3)
_cell_angle_alpha                80.2110(10)
_cell_angle_beta                 89.831(2)
_cell_angle_gamma                71.378(2)
_cell_volume                     625.045
loop_
_atom_site_label
_atom_site_type_symbol
_atom_site_fract_x
_atom_site_fract_y
_atom_site_fract_z
Y1 Y 0.12598(4) 0.37618(2) 0.17791(2)
C1 C 0.4964(5) 0.2107(3) 0.0691(3)
C2 C 0.6647(6) 0.1242(4) -0.0107(3)
H1 H 0.5951 0.0825 -0.0682
H2 H 0.7683 0.0437 0.0467
C3 C 0.7851(5) 0.2149(4) -0.0909(3)
H3 H 0.8838 0.1547 -0.144
H4 H 0.6822 0.2958 -0.1482
C4 C 0.9105(5) 0.2743(3) -0.0072(3)
C5 C 0.3009(5) 0.4782(3) 0.3738(3)
C6 C 0.3822(6) 0.5367(4) 0.4791(4)
H5 H 0.2971 0.5271 0.554
H6 H 0.3578 0.6404 0.4498
O1 O 0.4116(4) 0.3479(3) 0.0326(2)
O2 O 0.4339(4) 0.1495(3) 0.1692(2)
O3 O 0.9506(4) 0.3926(2) -0.0494(2)
O4 O 0.9777(5) 0.2071(3) 0.1044(2)
O5 O 0.1003(4) 0.5232(3) 0.3422(2)
O6 O 0.4254(4) 0.3861(3) 0.3129(2)
O7 O -0.2482(4) 0.4830(3) 0.1958(3)
O8 O 0.0806(5) 0.2214(3) 0.3613(2)
H7 H -0.323(9) 0.449(6) 0.231(6)
H8 H -0.298(9) 0.528(6) 0.135(6)
H9 H -0.012(9) 0.175(6) 0.359(5)
H10 H 0.109(9) 0.229(6) 0.424(6)
Y1A Y 0.87402(4) 0.62382(2) -0.17791(2)
Y1_2 Y 1.12598(4) 0.37618(2) 0.17791(2)
Y1A_2 Y 0.87402(4) 0.62382(2) 0.82209(2)
Y1A_3 Y -0.12598(4) 0.62382(2) -0.17791(2)
C1A C 0.5036(5) 0.7893(3) -0.0691(3)
C2A C 0.3353(6) 0.8758(4) 0.0107(3)
H1A H 0.4049 0.9175 0.0682
H2A H 0.2317 0.9563 -0.0467
C3A C 0.2149(5) 0.7851(4) 0.0909(3)
H3A H 0.1162 0.8453 0.144
H4A H 0.3178 0.7042 0.1482
C4A C 0.0895(5) 0.7257(3) 0.0072(3)
C5A C 0.6991(5) 0.5218(3) 0.6262(3)
C6A C 0.6178(6) 0.4633(4) 0.5209(4)
H5A H 0.7029 0.4729 0.446
H6A H 0.6422 0.3596 0.5502
O1A O 0.5884(4) 0.6521(3) -0.0326(2)
O2A O 0.5661(4) 0.8505(3) -0.1692(2)
O3A O 0.0494(4) 0.6074(2) 0.0494(2)
O3_2 O -0.0494(4) 0.3926(2) -0.0494(2)
O3A_2 O 1.0494(4) 0.6074(2) 0.0494(2)
O4A O 0.0223(5) 0.7929(3) -0.1044(2)
O4_2 O -0.0223(5) 0.2071(3) 0.1044(2)
O4A_2 O 1.0223(5) 0.7929(3) -0.1044(2)
O5A O 0.8997(4) 0.4768(3) 0.6578(2)
O5A_2 O 0.8997(4) 0.4768(3) -0.3422(2)
O6A O 0.5746(4) 0.6139(3) 0.6871(2)
O6A_2 O 0.5746(4) 0.6139(3) -0.3129(2)
O7A O 1.2482(4) 0.5170(3) -0.1958(3)
O8A O 0.9194(5) 0.7786(3) -0.3613(2)
H7A H 1.323(9) 0.551(6) -0.231(6)
H8A H 1.298(9) 0.472(6) -0.135(6)
H9A H 1.012(9) 0.825(6) -0.359(5)
H10A H 0.891(9) 0.771(6) -0.424(6)
O9 O 0.6185(6) 0.1065(3) 0.6525(4)
H11 H 0.667(8) 0.105(5) 0.568(3)
H12 H 0.657(8) 0.015(3) 0.708(4)
O10 O 0.7740(5) 0.0853(3) 0.3922(3)
H13 H 0.657(6) 0.146(5) 0.333(4)
H14 H 0.817(8) -0.009(3) 0.369(5)
O11 O 0.1775(5) 0.2140(3) 0.6120(3)
H15 H 0.081(6) 0.304(3) 0.626(5)
H16 H 0.326(3) 0.200(5) 0.614(5)
loop_
_geom_bond_atom_site_label_1
_geom_bond_atom_site_label_2
_geom_bond_site_symmetry_1
_geom_bond_site_symmetry_2
Y1 O1 1_555 1_555
C1 C2 1_555 1_555
C2 H1 1_555 1_555
H2 C2 1_555 1_555
C3 C2 1_555 1_555
H3 C3 1_555 1_555
H4 C3 1_555 1_555
C4 C3 1_555 1_555
C5 C6 1_555 1_555
C6 H5 1_555 1_555
H6 C6 1_555 1_555
O1 C1 1_555 1_555
O2 Y1 1_555 1_555
O3 C4 1_555 1_555
O4 C4 1_555 1_555
O5 Y1 1_555 1_555
O6 Y1 1_555 1_555
O7 Y1 1_555 1_555
O8 Y1 1_555 1_555
H7 O7 1_555 1_555
H8 O7 1_555 1_555
H9 O8 1_555 1_555
H10 O8 1_555 1_555
O9 H11 1_555 1_555
H12 O9 1_555 1_555
O10 H13 1_555 1_555
H14 O10 1_555 1_555
O11 H15 1_555 1_555
H16 O11 1_555 1_555
Y1A O3 1_555 1_555
Y1_2 O3 1_555 1_555
Y1A_2 O5A 1_555 1_555
Y1A_3 O3A 1_555 1_555
C1A C2A 1_555 1_555
C2A H1A 1_555 1_555
H2A C2A 1_555 1_555
C3A C2A 1_555 1_555
H3A C3A 1_555 1_555
H4A C3A 1_555 1_555
C4A C3A 1_555 1_555
C5A C6A 1_555 1_555
C6A C6 1_555 1_555
H5A C6A 1_555 1_555
H6A C6A 1_555 1_555
O1A Y1A 1_555 1_555
O2A Y1A 1_555 1_555
O3A Y1 1_555 1_555
O3_2 Y1 1_555 1_555
O3A_2 Y1A 1_555 1_555
O4A Y1A_3 1_555 1_555
O4_2 Y1 1_555 1_555
O4A_2 Y1A 1_555 1_555
O5A C5A 1_555 1_555
O5A_2 Y1A 1_555 1_555
O6A Y1A_2 1_555 1_555
O6A_2 Y1A 1_555 1_555
O7A Y1A 1_555 1_555
O8A Y1A 1_555 1_555
H7A O7A 1_555 1_555
H8A O7A 1_555 1_555
H9A O8A 1_555 1_555
H10A O8A 1_555 1_555
C1 O2 1_555 1_555
C5 O5 1_555 1_555
C5 O6 1_555 1_555
O4 Y1_2 1_555 1_555
Y1_2 O3A_2 1_555 1_555
Y1A_3 O3_2 1_555 1_555
C1A O1A 1_555 1_555
C1A O2A 1_555 1_555
C4A O3A 1_555 1_555
C4A O4A 1_555 1_555
C5A O6A 1_555 1_555

#END
