
#######################################################################
#
#                 Cambridge Crystallographic Data Centre
#                                CCDC 
#
#######################################################################
#
# If this CIF has been generated from an entry in the Cambridge 
# Structural Database, then it will include bibliographic, chemical, 
# crystal, experimental, refinement or atomic coordinate data resulting 
# from the CCDC's data processing and validation procedures.
#
#######################################################################

data_GURYUP
_symmetry_cell_setting           orthorhombic
_symmetry_space_group_name_H-M   'C m c a'
_symmetry_Int_Tables_number      64
_space_group_name_Hall           '-C 2ac 2'
loop_
_symmetry_equiv_pos_site_id
_symmetry_equiv_pos_as_xyz
1 x,y,z
2 -x,1/2-y,1/2+z
3 -x,1/2+y,1/2-z
4 x,-y,-z
5 1/2+x,1/2+y,z
6 1/2-x,-y,1/2+z
7 1/2-x,y,1/2-z
8 1/2+x,1/2-y,-z
9 -x,-y,-z
10 x,1/2+y,1/2-z
11 x,1/2-y,1/2+z
12 -x,y,z
13 1/2-x,1/2-y,-z
14 1/2+x,y,1/2-z
15 1/2+x,-y,1/2+z
16 1/2-x,1/2+y,z
_cell_length_a                   7.3259(8)
_cell_length_b                   21.889(2)
_cell_length_c                   30.024(3)
_cell_angle_alpha                90
_cell_angle_beta                 90
_cell_angle_gamma                90
_cell_volume                     4814.55
loop_
_atom_site_label
_atom_site_type_symbol
_atom_site_fract_x
_atom_site_fract_y
_atom_site_fract_z
C1 C 1.0000 0.3170(9) 0.8869(7)
H1 H 1.0000 0.2752 0.8985
H2 H 1.1092 0.3234 0.8686
C2 C 1.0000 0.3328(11) 0.9689(6)
H3 H 1.0000 0.2884 0.9649
H4 H 0.8908 0.3450 0.9855
C3 C 1.0000 0.4681(13) 0.9521(8)
H5 H 1.0000 0.4479 0.9812
H6 H 0.8908 0.4937 0.9494
C4 C 1.0000 0.4206(7) 0.9158(6)
O1 O 1.0000 0.4356(5) 0.8750(4)
N1 N 1.0000 0.3624(6) 0.9257(4)
H2K H 0.8908 0.3234 0.8686
H4K H 1.1092 0.3450 0.9855
H6K H 1.1092 0.4937 0.9494
Cu1 Cu 0.2500 0.56714(7) 0.7500
C5 C 0.0000 0.6841(6) 0.9008(5)
H7 H 0.1092 0.6704 0.9175
N2 N 0.0000 0.9803(8) 0.8569(5)
N3 N -0.0953(12) 1.0215(3) 0.7947(2)
N4 N 0.0946(11) 0.6143(3) 0.7938(2)
N5 N 0.0000 0.6548(5) 0.8562(4)
C6 C 0.0000 0.8816(6) 0.8981(4)
C7 C -0.1466(17) 0.9962(4) 0.8326(3)
H8 H -0.2697 0.9901 0.8414
C8 C 0.1462(16) 0.6387(4) 0.8315(3)
H9 H 0.2696 0.6443 0.8403
C9 C 0.0000 0.9504(6) 0.9008(4)
H10 H -0.1091 0.9639 0.9176
C10 C 0.0000 0.8498(7) 0.8584(5)
H11 H 0.0000 0.8713 0.8309
C11 C 0.0000 0.8490(6) 0.9376(4)
H12 H 0.0000 0.8701 0.9652
C12 C 0.0000 0.7536(6) 0.8984(4)
C13 C 0.0000 0.7856(7) 0.9370(5)
H13 H 0.0000 0.7641 0.9645
C14 C 0.0000 0.7851(7) 0.8585(4)
H14 H 0.0000 0.7634 0.8312
H7K H -0.1092 0.6704 0.9175
N3K N 0.0953(12) 1.0215(3) 0.7947(2)
N4K N -0.0946(11) 0.6143(3) 0.7938(2)
C7K C 0.1466(17) 0.9962(4) 0.8326(3)
H8K H 0.2697 0.9901 0.8414
C8K C -0.1462(16) 0.6387(4) 0.8315(3)
H9K H -0.2696 0.6443 0.8403
H10K H 0.1091 0.9639 0.9176
Cu1B Cu -0.2500 1.06714(7) 0.7500
Cu1I Cu 0.2500 1.06714(7) 0.7500
Cu1K Cu -0.2500 0.56714(7) 0.7500
N3B N 0.0953(12) 0.5215(3) 0.7053(2)
N3D N 0.4047(12) 0.5215(3) 0.7947(2)
N4F N 0.4054(11) 0.6143(3) 0.7062(2)
Cl1 Cl 1.0000 0.1204(2) 0.93365(14)
O2 O 1.0000 0.1390(14) 0.8886(5)
O3 O 0.841(2) 0.0862(6) 0.9432(7)
O4 O 1.0000 0.1741(7) 0.9569(5)
O3K O 1.159(2) 0.0862(6) 0.9432(7)
O5 O 0.674(4) 0.794(3) 0.751(4)
H15? H 1.1092 0.3234 0.8686
H16? H 0.8908 0.3450 0.9855
H17? H 0.8908 0.4937 0.9494
H18? H 0.1092 0.6704 0.9175
H19? H -0.1091 0.9639 0.9176
H20? H 0.7500 0.827(3) 0.7500
H21? H 0.7500 0.762(3) 0.7500
loop_
_geom_bond_atom_site_label_1
_geom_bond_atom_site_label_2
_geom_bond_site_symmetry_1
_geom_bond_site_symmetry_2
C1 H1 1_555 1_555
H2 C1 1_555 1_555
C2 H3 1_555 1_555
H4 C2 1_555 1_555
C3 H5 1_555 1_555
H6 C3 1_555 1_555
C4 C3 1_555 1_555
O1 C4 1_555 1_555
N1 C1 1_555 1_555
Cu1 N4 1_555 1_555
C5 H7 1_555 1_555
N2 C7 1_555 1_555
N3 C7 1_555 1_555
N4 C8 1_555 1_555
N5 C5 1_555 1_555
C6 C9 1_555 1_555
C7 H8 1_555 1_555
C8 N5 1_555 1_555
H9 C8 1_555 1_555
C9 N2 1_555 1_555
H10 C9 1_555 1_555
C10 C6 1_555 1_555
H11 C10 1_555 1_555
C11 C6 1_555 1_555
H12 C11 1_555 1_555
C12 C5 1_555 1_555
C13 C11 1_555 1_555
H13 C13 1_555 1_555
C14 C10 1_555 1_555
H14 C14 1_555 1_555
Cl1 O2 1_555 1_555
O3 Cl1 1_555 1_555
O4 Cl1 1_555 1_555
H2K C1 1_555 1_555
H4K C2 1_555 1_555
H6K C3 1_555 1_555
H7K C5 1_555 1_555
N3K N3 1_555 1_555
N4K N4 1_555 1_555
C7K N2 1_555 1_555
H8K C7K 1_555 1_555
C8K N5 1_555 1_555
H9K C8K 1_555 1_555
H10K C9 1_555 1_555
Cu1B N3 1_555 1_555
Cu1I N3K 1_555 1_555
Cu1K N4K 1_555 1_555
N3B Cu1 1_555 1_555
N3D Cu1 1_555 1_555
N4F Cu1 1_555 1_555
O3K Cl1 1_555 1_555
C2 N1 1_555 1_555
C4 N1 1_555 1_555
C12 C13 1_555 1_555
C12 C14 1_555 1_555
N3K C7K 1_555 1_555
N4K C8K 1_555 1_555

#END
