
#######################################################################
#
#                 Cambridge Crystallographic Data Centre
#                                CCDC 
#
#######################################################################
#
# If this CIF has been generated from an entry in the Cambridge 
# Structural Database, then it will include bibliographic, chemical, 
# crystal, experimental, refinement or atomic coordinate data resulting 
# from the CCDC's data processing and validation procedures.
#
#######################################################################

data_GURYOI
_symmetry_cell_setting           triclinic
_symmetry_space_group_name_H-M   'P -1'
_symmetry_Int_Tables_number      2
_space_group_name_Hall           '-P 1'
loop_
_symmetry_equiv_pos_site_id
_symmetry_equiv_pos_as_xyz
1 x,y,z
2 -x,-y,-z
_cell_length_a                   7.59090(10)
_cell_length_b                   8.4348(2)
_cell_length_c                   13.8238(3)
_cell_angle_alpha                97.104(2)
_cell_angle_beta                 98.377(2)
_cell_angle_gamma                98.696(2)
_cell_volume                     855.937
loop_
_atom_site_label
_atom_site_type_symbol
_atom_site_fract_x
_atom_site_fract_y
_atom_site_fract_z
Y1 Y 0.09835(2) 0.487673(19) 0.208786(11)
Y2 Y 0.63675(2) 0.576096(19) 0.294068(11)
C1 C 0.4455(3) 0.8264(2) 0.25053(15)
C2 C 0.3251(3) 0.9511(3) 0.23692(19)
H1 H 0.2881 0.9509 0.1667
H2 H 0.2171 0.9204 0.2648
C3 C 0.4128(3) 1.1191(3) 0.2839(2)
H3 H 0.5224 1.1489 0.2571
H4 H 0.4471 1.1199 0.3543
C4 C 0.2935(3) 1.2438(2) 0.26797(16)
C5 C 0.1782(3) 0.6645(2) 0.63214(15)
C6 C 0.0994(3) 0.8061(2) 0.59945(14)
H5 H -0.0314 0.7793 0.5896
H6 H 0.1368 0.8986 0.6514
C7 C 0.1571(3) 0.8529(2) 0.50405(14)
H7 H 0.1349 0.9616 0.4971
H8 H 0.2858 0.8535 0.5075
C8 C 0.0548(3) 0.7358(2) 0.41487(13)
C9 C 0.1011(3) 0.2833(2) -0.12083(14)
C10 C 0.1974(3) 0.1636(2) -0.07123(15)
H9 H 0.1277 0.1217 -0.0236
H10 H 0.2033 0.0731 -0.1206
C11 C 0.3893(3) 0.2372(3) -0.01824(15)
H11 H 0.4545 0.2907 -0.0639
H12 H 0.4514 0.1505 0.0007
C12 C 0.3934(3) 0.3584(2) 0.07316(14)
O1 O 0.37429(19) 0.67685(16) 0.22697(11)
O2 O 0.6096(2) 0.86296(19) 0.28317(14)
O3 O 0.1372(2) 1.20643(19) 0.22204(14)
O4 O 0.3590(2) 1.39352(17) 0.30087(11)
O5 O 0.2854(2) 0.6004(2) 0.58609(12)
O6 O 0.1425(2) 0.61243(17) 0.71155(10)
O7 O -0.11312(19) 0.72267(19) 0.40049(11)
O8 O 0.1439(2) 0.6587(2) 0.36088(11)
O9 O 0.1648(2) 0.35100(18) -0.18814(11)
O10 O -0.04599(19) 0.31567(18) -0.09935(11)
O11 O 0.5408(2) 0.3995(2) 0.13342(11)
O12 O 0.2506(2) 0.40997(19) 0.08316(11)
O13 O 0.5166(3) 0.6696(2) 0.43774(13)
O14 O -0.1303(2) 0.3318(2) 0.08653(12)
H13 H -0.230(4) 0.340(3) 0.090(2)
H14 H 0.404(4) 0.660(3) 0.427(2)
H15 H 0.558(4) 0.648(4) 0.482(2)
H16 H -0.115(4) 0.328(4) 0.035(2)
Y1_2 Y 0.09835(2) 1.487673(19) 0.208786(11)
Y1A Y -0.09835(2) 0.512327(19) 0.791214(11)
Y1A_2 Y -0.09835(2) 0.512327(19) -0.208786(11)
Y2_2 Y 0.63675(2) 1.576096(19) 0.294068(11)
Y2A Y 0.36325(2) 0.423904(19) 0.705932(11)
Y2_3 Y -0.36325(2) 0.576096(19) 0.294068(11)
Y2A_2 Y 0.36325(2) 0.423904(19) -0.294068(11)
O3_2 O 0.1372(2) 0.20643(19) 0.22204(14)
O4_2 O 0.3590(2) 0.39352(17) 0.30087(11)
O5A O 0.7146(2) 0.3996(2) 0.41391(12)
O6A O -0.1425(2) 0.38757(17) 0.28845(10)
O6A_2 O 0.8575(2) 0.38757(17) 0.28845(10)
O7_2 O 0.88688(19) 0.72267(19) 0.40049(11)
O9A O -0.1648(2) 0.64900(18) 0.18814(11)
O9A_2 O 0.8352(2) 0.64900(18) 0.18814(11)
O10A O 0.04599(19) 0.68433(18) 0.09935(11)
loop_
_geom_bond_atom_site_label_1
_geom_bond_atom_site_label_2
_geom_bond_site_symmetry_1
_geom_bond_site_symmetry_2
Y1 O1 1_555 1_555
Y2 O1 1_555 1_555
C1 C2 1_555 1_555
C2 H1 1_555 1_555
H2 C2 1_555 1_555
C3 C2 1_555 1_555
H3 C3 1_555 1_555
H4 C3 1_555 1_555
C4 C3 1_555 1_555
C5 C6 1_555 1_555
C6 H5 1_555 1_555
H6 C6 1_555 1_555
C7 C6 1_555 1_555
H7 C7 1_555 1_555
H8 C7 1_555 1_555
C8 C7 1_555 1_555
C9 C10 1_555 1_555
C10 H9 1_555 1_555
H10 C10 1_555 1_555
C11 C10 1_555 1_555
H11 C11 1_555 1_555
H12 C11 1_555 1_555
C12 C11 1_555 1_555
O1 C1 1_555 1_555
O2 Y2 1_555 1_555
O3 C4 1_555 1_555
O4 C4 1_555 1_555
O5 C5 1_555 1_555
O6 C5 1_555 1_555
O7 C8 1_555 1_555
O8 Y1 1_555 1_555
O9 C9 1_555 1_555
O10 C9 1_555 1_555
O11 Y2 1_555 1_555
O12 Y1 1_555 1_555
O13 Y2 1_555 1_555
O14 Y1 1_555 1_555
H13 O14 1_555 1_555
H14 O13 1_555 1_555
H15 O13 1_555 1_555
H16 O14 1_555 1_555
Y1_2 O3 1_555 1_555
Y1A O6 1_555 1_555
Y1A_2 O9 1_555 1_555
Y2_2 O4 1_555 1_555
Y2A O5 1_555 1_555
Y2_3 O7 1_555 1_555
Y2A_2 O9 1_555 1_555
O3_2 Y1 1_555 1_555
O4_2 Y1 1_555 1_555
O5A Y2 1_555 1_555
O6A Y1 1_555 1_555
O6A_2 Y2 1_555 1_555
O7_2 Y2 1_555 1_555
O9A Y1 1_555 1_555
O9A_2 Y2 1_555 1_555
O10A Y1 1_555 1_555
Y2 O4_2 1_555 1_555
C1 O2 1_555 1_555
C8 O8 1_555 1_555
C12 O11 1_555 1_555
C12 O12 1_555 1_555
O4 Y1_2 1_555 1_555
O6 Y2A 1_555 1_555
O10 Y1A_2 1_555 1_555
Y2_3 O6A 1_555 1_555
Y2_3 O9A 1_555 1_555

#END
