
#######################################################################
#
#                 Cambridge Crystallographic Data Centre
#                                CCDC 
#
#######################################################################
#
# If this CIF has been generated from an entry in the Cambridge 
# Structural Database, then it will include bibliographic, chemical, 
# crystal, experimental, refinement or atomic coordinate data resulting 
# from the CCDC's data processing and validation procedures.
#
#######################################################################

data_GUSBUS
_symmetry_cell_setting           monoclinic
_symmetry_space_group_name_H-M   'P 21/c'
_symmetry_Int_Tables_number      14
_space_group_name_Hall           '-P 2ybc'
loop_
_symmetry_equiv_pos_site_id
_symmetry_equiv_pos_as_xyz
1 x,y,z
2 -x,1/2+y,1/2-z
3 -x,-y,-z
4 x,1/2-y,1/2+z
_cell_length_a                   8.6899(3)
_cell_length_b                   17.5358(6)
_cell_length_c                   9.2487(3)
_cell_angle_alpha                90
_cell_angle_beta                 94.9400(10)
_cell_angle_gamma                90
_cell_volume                     1404.12
loop_
_atom_site_label
_atom_site_type_symbol
_atom_site_fract_x
_atom_site_fract_y
_atom_site_fract_z
Cu1 Cu 0.42983(4) 0.674008(19) 0.71618(4)
N1 N 0.6621(2) 0.67508(12) 0.7522(2)
H1 H 0.7037 0.6357 0.7025
H2 H 0.7006 0.7203 0.7198
N2 N 0.2018(2) 0.69181(12) 0.6977(2)
H3 H 0.1829 0.7382 0.7391
H4 H 0.1691 0.6951 0.6007
N3 N 0.4317(2) 0.64267(11) 0.9254(2)
H5 H 0.4211 0.6874 0.9776
N4 N 0.4435(2) 0.55461(11) 0.5915(2)
C1 C 0.7046(3) 0.66657(15) 0.9098(3)
H6 H 0.7025 0.7168 0.9583
H7 H 0.8101 0.6453 0.9268
C2 C 0.5895(3) 0.61353(14) 0.9697(3)
H8 H 0.6017 0.5614 0.9314
H9 H 0.6066 0.6116 1.0769
C3 C 0.1492(3) 0.62498(16) 0.9258(3)
H10 H 0.0712 0.5922 0.9670
H11 H 0.1441 0.6759 0.9715
C4 C 0.3081(3) 0.59141(14) 0.9659(3)
H12 H 0.3210 0.5819 1.0717
H13 H 0.3167 0.5419 0.9159
C5 C 0.1070(3) 0.63317(16) 0.7647(3)
H14 H 0.1213 0.5835 0.7169
H15 H -0.0034 0.6472 0.7479
O1 O 0.4673(2) 0.67147(9) 0.28123(18)
O2 O 0.43689(19) 0.70308(9) 0.51043(17)
C6 C 0.4606(3) 0.65540(14) 0.4100(3)
C7 C 0.4621(3) 0.48206(14) 0.6316(3)
H16 H 0.4355 0.4672 0.7250
C8 C 0.4810(3) 0.57269(13) 0.4581(3)
Cu1B Cu 0.57017(4) 0.325992(19) 0.28382(4)
Cu1A Cu 0.57017(4) 0.174008(19) 0.78382(4)
Cu1C Cu 0.42983(4) 0.825992(19) 0.21618(4)
N1B N 0.3379(2) 0.32492(12) 0.2478(2)
H1B H 0.2963 0.3643 0.2975
H2B H 0.2994 0.2797 0.2802
N2B N 0.7982(2) 0.30819(12) 0.3023(2)
H3B H 0.8171 0.2618 0.2609
H4B H 0.8309 0.3049 0.3993
N3B N 0.5683(2) 0.35733(11) 0.0746(2)
H5B H 0.5789 0.3126 0.0224
N4B N 0.5565(2) 0.44539(11) 0.4085(2)
C1B C 0.2954(3) 0.33343(15) 0.0902(3)
H6B H 0.2975 0.2832 0.0417
H7B H 0.1899 0.3547 0.0732
C2B C 0.4105(3) 0.38647(14) 0.0303(3)
H8B H 0.3983 0.4386 0.0686
H9B H 0.3934 0.3884 -0.0769
C3B C 0.8508(3) 0.37502(16) 0.0742(3)
H10B H 0.9288 0.4078 0.0330
H11B H 0.8559 0.3241 0.0285
C4B C 0.6919(3) 0.40859(14) 0.0341(3)
H12B H 0.6790 0.4181 -0.0717
H13B H 0.6833 0.4581 0.0841
C5B C 0.8930(3) 0.36683(16) 0.2353(3)
H14B H 0.8787 0.4165 0.2831
H15B H 1.0034 0.3528 0.2521
O1B O 0.5327(2) 0.32853(9) 0.71877(18)
O1A O 0.5327(2) 0.17147(9) 0.21877(18)
O1C O 0.4673(2) 0.82853(9) 0.78123(18)
O2B O 0.56311(19) 0.29692(9) 0.48957(17)
C6B C 0.5394(3) 0.34460(14) 0.5900(3)
C7B C 0.5379(3) 0.51794(14) 0.3684(3)
H16B H 0.5645 0.5328 0.2750
C8B C 0.5190(3) 0.42731(13) 0.5419(3)
Cl1 Cl 0.93882(7) 0.64060(4) 0.32281(7)
O3 O 1.0989(3) 0.65197(16) 0.3696(3)
O4 O 0.8914(3) 0.69762(12) 0.2173(2)
O5 O 0.8480(3) 0.64650(16) 0.4455(3)
O6 O 0.9158(3) 0.56699(14) 0.2587(3)
O7 O 0.8045(3) 0.52831(15) 0.6486(3)
H17 H 0.8230 0.5615 0.5901
H18 H 0.8830 0.5036 0.6712
loop_
_geom_bond_atom_site_label_1
_geom_bond_atom_site_label_2
_geom_bond_site_symmetry_1
_geom_bond_site_symmetry_2
Cu1 N1 1_555 1_555
N1 H1 1_555 1_555
H2 N1 1_555 1_555
N2 Cu1 1_555 1_555
H3 N2 1_555 1_555
H4 N2 1_555 1_555
N3 Cu1 1_555 1_555
H5 N3 1_555 1_555
N4 Cu1 1_555 1_555
C1 N1 1_555 1_555
H6 C1 1_555 1_555
H7 C1 1_555 1_555
C2 N3 1_555 1_555
H8 C2 1_555 1_555
H9 C2 1_555 1_555
C3 H10 1_555 1_555
H11 C3 1_555 1_555
C4 N3 1_555 1_555
H12 C4 1_555 1_555
H13 C4 1_555 1_555
C5 N2 1_555 1_555
H14 C5 1_555 1_555
H15 C5 1_555 1_555
O1 C6 1_555 1_555
O2 Cu1 1_555 1_555
C6 O2 1_555 1_555
C7 N4 1_555 1_555
H16 C7 1_555 1_555
C8 N4 1_555 1_555
Cl1 O3 1_555 1_555
O4 Cl1 1_555 1_555
O5 Cl1 1_555 1_555
O6 Cl1 1_555 1_555
O7 H17 1_555 1_555
H18 O7 1_555 1_555
Cu1B N1B 1_555 1_555
Cu1A O1B 1_555 1_555
Cu1C O1 1_555 1_555
N1B H1B 1_555 1_555
H2B N1B 1_555 1_555
N2B Cu1B 1_555 1_555
H3B N2B 1_555 1_555
H4B N2B 1_555 1_555
N3B Cu1B 1_555 1_555
H5B N3B 1_555 1_555
N4B Cu1B 1_555 1_555
C1B N1B 1_555 1_555
H6B C1B 1_555 1_555
H7B C1B 1_555 1_555
C2B N3B 1_555 1_555
H8B C2B 1_555 1_555
H9B C2B 1_555 1_555
C3B H10B 1_555 1_555
H11B C3B 1_555 1_555
C4B N3B 1_555 1_555
H12B C4B 1_555 1_555
H13B C4B 1_555 1_555
C5B N2B 1_555 1_555
H14B C5B 1_555 1_555
H15B C5B 1_555 1_555
O1B C6B 1_555 1_555
O1A Cu1B 1_555 1_555
O1C Cu1 1_555 1_555
O2B Cu1B 1_555 1_555
C6B O2B 1_555 1_555
C7B C8 1_555 1_555
H16B C7B 1_555 1_555
C8B C7 1_555 1_555
C1 C2 1_555 1_555
C3 C4 1_555 1_555
C3 C5 1_555 1_555
C6 C8 1_555 1_555
N4B C7B 1_555 1_555
N4B C8B 1_555 1_555
C1B C2B 1_555 1_555
C3B C4B 1_555 1_555
C3B C5B 1_555 1_555
C6B C8B 1_555 1_555

#END
