
#######################################################################
#
#                 Cambridge Crystallographic Data Centre
#                                CCDC 
#
#######################################################################
#
# If this CIF has been generated from an entry in the Cambridge 
# Structural Database, then it will include bibliographic, chemical, 
# crystal, experimental, refinement or atomic coordinate data resulting 
# from the CCDC's data processing and validation procedures.
#
#######################################################################

data_GUSCIH
_symmetry_cell_setting           triclinic
_symmetry_space_group_name_H-M   'P -1'
_symmetry_Int_Tables_number      2
_space_group_name_Hall           '-P 1'
loop_
_symmetry_equiv_pos_site_id
_symmetry_equiv_pos_as_xyz
1 x,y,z
2 -x,-y,-z
_cell_length_a                   9.9962(2)
_cell_length_b                   10.6260(2)
_cell_length_c                   10.8273(2)
_cell_angle_alpha                80.5520(10)
_cell_angle_beta                 73.1170(10)
_cell_angle_gamma                74.1290(10)
_cell_volume                     1054.06
loop_
_atom_site_label
_atom_site_type_symbol
_atom_site_fract_x
_atom_site_fract_y
_atom_site_fract_z
C1 C 0.4550(3) 0.2689(3) 0.3393(3)
H1 H 0.4362 0.3056 0.2602
C2 C 0.5737(4) 0.2872(3) 0.3682(3)
H2 H 0.6343 0.3346 0.3093
C3 C 0.6007(3) 0.2342(3) 0.4855(3)
H3 H 0.6810 0.2443 0.5061
C4 C 0.5073(3) 0.1650(3) 0.5738(3)
C5 C 0.3911(3) 0.1494(3) 0.5373(3)
C6 C 0.2858(3) 0.0701(3) 0.6194(3)
C7 C 0.5336(3) 0.1165(3) 0.7052(3)
C8 C 0.0458(3) 0.6817(3) 0.4511(3)
H4 H 0.0168 0.7301 0.3797
C9 C 0.1709(4) 0.5830(3) 0.4309(3)
H5 H 0.2242 0.5640 0.3473
C10 C 0.2153(3) 0.5129(3) 0.5375(3)
H6 H 0.3003 0.4475 0.5259
C11 C 0.1325(3) 0.5404(3) 0.6617(3)
C12 C 0.0067(3) 0.6388(3) 0.6732(3)
C13 C -0.0991(3) 0.6703(3) 0.8011(3)
C14 C 0.1858(3) 0.4620(3) 0.7760(3)
C15 C 0.5597(3) 0.4772(3) 0.9391(3)
Gd1 Gd 0.325161(14) 0.307172(13) 0.963332(12)
H7 H 0.484(3) 0.095(2) 1.118(2)
H8 H 0.5803(17) 0.125(3) 1.017(2)
H9 H 0.192(3) 0.072(3) 1.0310(17)
H10 H 0.237(4) 0.089(3) 0.9064(14)
H11 H 0.124(3) -0.033(2) 0.309(2)
N1 N 0.3664(3) 0.2004(2) 0.4208(2)
N2 N -0.0347(3) 0.7098(2) 0.5699(2)
Ni1 Ni 0.21315(4) 0.13247(4) 0.37991(3)
O1 O 0.1981(2) 0.0516(2) 0.56454(18)
O2 O 0.2937(2) 0.0267(2) 0.73153(19)
O3 O 0.4736(2) 0.1954(2) 0.79032(19)
O4 O 0.6171(2) 0.0081(2) 0.72265(19)
O5 O -0.0790(2) 0.6039(2) 0.90298(18)
O6 O -0.2119(2) 0.7616(2) 0.79933(18)
O7 O 0.2535(2) 0.5108(2) 0.8289(2)
O8 O 0.1697(2) 0.3473(2) 0.8065(2)
O9 O 0.5435(2) 0.3917(2) 0.8825(2)
O10 O 0.6637(2) 0.5317(2) 0.90686(19)
O11 O 0.4997(3) 0.1522(3) 1.0599(2)
O12 O 0.2331(3) 0.1164(3) 0.9731(2)
O13 O 0.0818(3) 0.0217(3) 0.3599(2)
H12 H 0.0178 0.0691 0.3286
C1A C 0.5450(3) -0.2689(3) 0.6607(3)
H1A H 0.5638 -0.3056 0.7398
C2A C 0.4263(4) -0.2872(3) 0.6318(3)
H2A H 0.3657 -0.3346 0.6907
C3A C 0.3993(3) -0.2342(3) 0.5145(3)
H3A H 0.3190 -0.2443 0.4939
C4A C 0.4927(3) -0.1650(3) 0.4262(3)
C5A C 0.6089(3) -0.1494(3) 0.4627(3)
C6A C 0.7142(3) -0.0701(3) 0.3806(3)
C7A C 0.4664(3) -0.1165(3) 0.2948(3)
C8A C -0.0458(3) 0.3183(3) 1.5489(3)
H4A H -0.0168 0.2699 1.6203
C9A C -0.1709(4) 0.4170(3) 1.5691(3)
H5A H -0.2242 0.4360 1.6527
C10A C -0.2153(3) 0.4871(3) 1.4625(3)
H6A H -0.3003 0.5525 1.4741
C11A C -0.1325(3) 0.4596(3) 1.3383(3)
C12A C -0.0067(3) 0.3612(3) 1.3268(3)
C13A C 0.0991(3) 0.3297(3) 1.1989(3)
C14A C -0.1858(3) 0.5380(3) 1.2240(3)
C15A C 0.4403(3) 0.5228(3) 1.0609(3)
Gd1A Gd 0.674839(14) 0.692828(13) 1.036668(12)
Gd1A_2 Gd -0.325161(14) 0.692828(13) 1.036668(12)
Gd1A_3 Gd 0.674839(14) -0.307172(13) 0.036668(12)
H7A H 0.516(3) 0.905(2) 0.882(2)
H8A H 0.4197(17) 0.875(3) 0.983(2)
H9A H 0.808(3) 0.928(3) 0.9690(17)
H10A H 0.763(4) 0.911(3) 1.0936(14)
H11A H -0.124(3) 1.033(2) 0.691(2)
N1A N 0.6336(3) -0.2004(2) 0.5792(2)
N1A_2 N -0.3664(3) 0.7996(2) 0.5792(2)
N2A N 0.0347(3) 0.2902(2) 1.4301(2)
N2A_2 N 0.0347(3) 0.2902(2) 0.4301(2)
Ni1A Ni -0.21315(4) 0.86753(4) 0.62009(3)
Ni1A_2 Ni 0.78685(4) -0.13247(4) 0.62009(3)
Ni1_2 Ni 0.21315(4) 0.13247(4) 1.37991(3)
O1A O 0.8019(2) -0.0516(2) 0.43546(18)
O1A_2 O -0.1981(2) 0.9484(2) 0.43546(18)
O2A O 0.7063(2) -0.0267(2) 0.26847(19)
O3A O 0.5264(2) -0.1954(2) 0.20968(19)
O3A_2 O 0.5264(2) 0.8046(2) 1.20968(19)
O4A O 0.3829(2) -0.0081(2) 0.27735(19)
O4_2 O -0.3829(2) 1.0081(2) 0.72265(19)
O5A O 0.0790(2) 0.3961(2) 1.09702(18)
O5_2 O 0.9210(2) 0.6039(2) 0.90298(18)
O6A O 0.2119(2) 0.2384(2) 1.20067(18)
O6A_2 O 0.2119(2) 0.2384(2) 0.20067(18)
O6_2 O 0.7881(2) 0.7616(2) 0.79933(18)
O7A O -0.2535(2) 0.4892(2) 1.1711(2)
O7A_2 O 0.7465(2) 0.4892(2) 1.1711(2)
O8A O -0.1697(2) 0.6527(2) 1.1935(2)
O8A_2 O 0.8303(2) 0.6527(2) 1.1935(2)
O9A O 0.4565(2) 0.6083(2) 1.1175(2)
O10A O 0.3363(2) 0.4683(2) 1.09314(19)
O11A O 0.5003(3) 0.8478(3) 0.9401(2)
O12A O 0.7669(3) 0.8836(3) 1.0269(2)
O13A O -0.0818(3) 0.9783(3) 0.6401(2)
H12A H -0.0178 0.9309 0.6714
H13 H 0.101(4) 0.701(3) 0.1395(14)
H14 H 0.153(3) 0.651(2) 0.019(2)
O14 O 0.0944(4) 0.7142(3) 0.0610(5)
H15 H 0.193(3) 0.9447(11) 0.129(3)
H16 H 0.178(3) 0.819(2) 0.126(3)
O15 O 0.2270(4) 0.8643(5) 0.1433(5)
H17 H 0.856(3) 0.084(3) 0.205(3)
H18 H 0.922(4) 0.166(3) 0.1062(16)
O16 O 0.9187(5) 0.1312(5) 0.1841(5)
loop_
_geom_bond_atom_site_label_1
_geom_bond_atom_site_label_2
_geom_bond_site_symmetry_1
_geom_bond_site_symmetry_2
C1 H1 1_555 1_555
C2 C1 1_555 1_555
H2 C2 1_555 1_555
C3 C2 1_555 1_555
H3 C3 1_555 1_555
C4 C3 1_555 1_555
C5 C4 1_555 1_555
C6 C5 1_555 1_555
C7 C4 1_555 1_555
C8 H4 1_555 1_555
C9 C8 1_555 1_555
H5 C9 1_555 1_555
C10 C9 1_555 1_555
H6 C10 1_555 1_555
C11 C10 1_555 1_555
C12 C11 1_555 1_555
C13 C12 1_555 1_555
C14 C11 1_555 1_555
C15 O9 1_555 1_555
Gd1 O3 1_555 1_555
H7 O11 1_555 1_555
H8 O11 1_555 1_555
H9 O12 1_555 1_555
H10 O12 1_555 1_555
H11 O13 1_555 1_555
N1 C1 1_555 1_555
N2 C8 1_555 1_555
Ni1 N1 1_555 1_555
O1 C6 1_555 1_555
O2 C6 1_555 1_555
O3 C7 1_555 1_555
O4 C7 1_555 1_555
O5 C13 1_555 1_555
O6 C13 1_555 1_555
O7 C14 1_555 1_555
O8 C14 1_555 1_555
O9 Gd1 1_555 1_555
O10 C15 1_555 1_555
O11 Gd1 1_555 1_555
O12 Gd1 1_555 1_555
O13 Ni1 1_555 1_555
H12 O13 1_555 1_555
H13 O14 1_555 1_555
H14 O14 1_555 1_555
H15 O15 1_555 1_555
H16 O15 1_555 1_555
H17 O16 1_555 1_555
H18 O16 1_555 1_555
C1A H1A 1_555 1_555
C2A C1A 1_555 1_555
H2A C2A 1_555 1_555
C3A C2A 1_555 1_555
H3A C3A 1_555 1_555
C4A C3A 1_555 1_555
C5A C4A 1_555 1_555
C6A C5A 1_555 1_555
C7A C4A 1_555 1_555
C8A H4A 1_555 1_555
C9A C8A 1_555 1_555
H5A C9A 1_555 1_555
C10A C9A 1_555 1_555
H6A C10A 1_555 1_555
C11A C10A 1_555 1_555
C12A C11A 1_555 1_555
C13A C12A 1_555 1_555
C14A C11A 1_555 1_555
C15A C15 1_555 1_555
Gd1A O10 1_555 1_555
Gd1A_2 O5 1_555 1_555
Gd1A_3 O3A 1_555 1_555
H7A O11A 1_555 1_555
H8A O11A 1_555 1_555
H9A O12A 1_555 1_555
H10A O12A 1_555 1_555
H11A O13A 1_555 1_555
N1A C1A 1_555 1_555
N1A_2 Ni1A 1_555 1_555
N2A C8A 1_555 1_555
N2A_2 Ni1 1_555 1_555
Ni1A N2 1_555 1_555
Ni1A_2 O4 1_555 1_555
Ni1_2 N2A 1_555 1_555
O1A C6A 1_555 1_555
O1A_2 Ni1A 1_555 1_555
O2A C6A 1_555 1_555
O3A C7A 1_555 1_555
O3A_2 Gd1A 1_555 1_555
O4A Ni1 1_555 1_555
O4_2 Ni1A 1_555 1_555
O5A Gd1 1_555 1_555
O5_2 Gd1A 1_555 1_555
O6A Gd1 1_555 1_555
O6A_2 Ni1 1_555 1_555
O6_2 Gd1A 1_555 1_555
O7A C14A 1_555 1_555
O7A_2 Gd1A 1_555 1_555
O8A C14A 1_555 1_555
O8A_2 Gd1A 1_555 1_555
O9A C15A 1_555 1_555
O10A Gd1 1_555 1_555
O11A Gd1A 1_555 1_555
O12A Gd1A 1_555 1_555
O13A Ni1A 1_555 1_555
H12A O13A 1_555 1_555
C5 N1 1_555 1_555
C12 N2 1_555 1_555
Gd1 O7 1_555 1_555
Gd1 O8 1_555 1_555
Ni1 O1 1_555 1_555
O6 Gd1A_2 1_555 1_555
O6 Ni1A 1_555 1_555
C5A N1A 1_555 1_555
C7A O4A 1_555 1_555
C12A N2A 1_555 1_555
C13A O5A 1_555 1_555
C13A O6A 1_555 1_555
C15A O10A 1_555 1_555
Gd1A O9A 1_555 1_555
Gd1A_2 O7A 1_555 1_555
Gd1A_2 O8A 1_555 1_555
N1A Ni1A_2 1_555 1_555
Ni1A_2 O1A 1_555 1_555
Ni1_2 O6A 1_555 1_555

#END
