
#######################################################################
#
#                 Cambridge Crystallographic Data Centre
#                                CCDC 
#
#######################################################################
#
# If this CIF has been generated from an entry in the Cambridge 
# Structural Database, then it will include bibliographic, chemical, 
# crystal, experimental, refinement or atomic coordinate data resulting 
# from the CCDC's data processing and validation procedures.
#
#######################################################################

data_GUSCON
_symmetry_cell_setting           triclinic
_symmetry_space_group_name_H-M   'P -1'
_symmetry_Int_Tables_number      2
_space_group_name_Hall           '-P 1'
loop_
_symmetry_equiv_pos_site_id
_symmetry_equiv_pos_as_xyz
1 x,y,z
2 -x,-y,-z
_cell_length_a                   10.7641(2)
_cell_length_b                   10.9482(2)
_cell_length_c                   14.5738(2)
_cell_angle_alpha                83.3600(10)
_cell_angle_beta                 72.7700(10)
_cell_angle_gamma                79.8870(10)
_cell_volume                     1611.22
loop_
_atom_site_label
_atom_site_type_symbol
_atom_site_fract_x
_atom_site_fract_y
_atom_site_fract_z
C1 C 0.0701(7) 0.9291(7) 0.3514(6)
C2 C 0.0196(8) 0.8463(8) 0.4297(7)
H1 H -0.0573 0.8144 0.4358
C3 C 0.0902(9) 0.8138(8) 0.4981(6)
H2 H 0.0645 0.7540 0.5478
C4 C 0.1984(8) 0.8705(7) 0.4920(6)
C5 C 0.2392(7) 0.9541(7) 0.4121(6)
H3 H 0.3138 0.9900 0.4056
C6 C 0.2755(8) 0.8417(8) 0.5650(6)
C7 C 0.0065(7) 0.9642(7) 0.2726(6)
C8 C 0.2586(7) 1.3265(7) 0.2641(6)
C9 C 0.2334(8) 1.4481(7) 0.2906(7)
H4 H 0.2908 1.4790 0.3156
C10 C 0.1206(8) 1.5218(8) 0.2787(7)
H5 H 0.1045 1.6055 0.2908
C11 C 0.0310(7) 1.4708(7) 0.2485(6)
C12 C 0.0554(7) 1.3449(7) 0.2367(5)
H6 H -0.0095 1.3077 0.2254
C13 C -0.0870(7) 1.5523(7) 0.2299(6)
C14 C 0.3854(7) 1.2437(7) 0.2639(6)
C15 C 0.3630(7) 0.9194(7) 0.0519(6)
C16 C 0.4142(8) 0.8181(7) -0.0035(7)
H7 H 0.4190 0.8238 -0.0686
C17 C 0.4582(9) 0.7071(7) 0.0423(7)
H8 H 0.4936 0.6370 0.0074
C18 C 0.4496(7) 0.7008(7) 0.1386(6)
C19 C 0.5102(7) 0.5913(7) 0.1901(6)
C20 C 0.3266(7) 1.0476(7) 0.0073(6)
C21 C -0.0418(7) 1.0638(7) 0.0146(6)
C22 C 0.4467(7) 1.4568(7) 0.5097(6)
C23 C 0.3882(7) 0.8072(7) 0.1900(6)
H9 H 0.3774 0.8025 0.2560
Co1 Co 0.23889(9) 1.08360(9) 0.20934(8)
Gd1 Gd -0.19586(3) 0.86120(3) 0.17104(3)
Gd2 Gd 0.63422(3) 1.39828(3) 0.29564(3)
H10 H -0.372(7) 0.705(3) 0.312(6)
H11 H -0.304(7) 0.776(6) 0.336(5)
H12 H -0.181(7) 0.629(3) 0.060(5)
H13 H -0.247(7) 0.729(5) 0.033(3)
H14 H -0.420(3) 1.055(7) 0.253(4)
H15 H -0.297(5) 1.035(7) 0.207(2)
H16 H 0.802(7) 1.296(6) 0.1076(11)
H17 H 0.783(8) 1.2099(14) 0.176(4)
N1 N 0.1751(6) 0.9838(6) 0.3454(5)
N2 N 0.1692(6) 1.2735(5) 0.2409(5)
N3 N 0.3454(6) 0.9138(5) 0.1479(4)
O1 O 0.0620(5) 1.0387(5) 0.2040(4)
O2 O -0.0881(5) 0.9142(5) 0.2718(4)
O3 O 0.3558(6) 0.9106(6) 0.5639(5)
O4 O 0.2510(6) 0.7491(6) 0.6215(5)
O5 O -0.0794(6) 1.6666(5) 0.2138(5)
O6 O -0.1849(5) 1.5042(5) 0.2304(4)
O7 O 0.4762(5) 1.2882(5) 0.2776(4)
O8 O 0.3967(5) 1.1310(5) 0.2435(4)
O9 O 0.3460(5) 1.0591(5) -0.0818(4)
O10 O 0.2783(5) 1.1342(5) 0.0626(4)
O11 O 0.4895(5) 0.5904(5) 0.2799(4)
O12 O 0.5817(6) 0.5040(5) 0.1424(5)
O13 O -0.1413(5) 1.0617(5) 0.0852(4)
O14 O -0.0003(5) 1.1560(5) -0.0408(5)
O15 O 0.4641(6) 1.3828(5) 0.4442(4)
O16 O 0.3553(5) 1.4686(5) 0.5844(4)
O17 O -0.3557(6) 0.7767(6) 0.3043(5)
O18 O -0.2186(7) 0.6971(5) 0.0780(5)
O19 O -0.3480(5) 1.0284(6) 0.2607(4)
O20 O 0.7720(6) 1.2856(5) 0.1661(4)
C1A C 0.9299(7) 1.0709(7) 0.6486(6)
C2A C 0.9804(8) 1.1537(8) 0.5703(7)
H1A H 1.0573 1.1856 0.5642
C3A C 0.9098(9) 1.1862(8) 0.5019(6)
H2A H 0.9355 1.2460 0.4522
C4A C 0.8016(8) 1.1295(7) 0.5080(6)
C5A C 0.7608(7) 1.0459(7) 0.5879(6)
H3A H 0.6862 1.0100 0.5944
C6A C 0.7245(8) 1.1583(8) 0.4350(6)
C7A C 0.9935(7) 1.0358(7) 0.7274(6)
C8_2 C 0.2586(7) 0.3265(7) 0.2641(6)
C9_2 C 0.2334(8) 0.4481(7) 0.2906(7)
H4_2 H 0.2908 0.4790 0.3156
C10_2 C 0.1206(8) 0.5218(8) 0.2787(7)
H5_2 H 0.1045 0.6055 0.2908
C11_2 C 0.0310(7) 0.4708(7) 0.2485(6)
C12_2 C 0.0554(7) 0.3449(7) 0.2367(5)
H6_2 H -0.0095 0.3077 0.2254
C13_2 C -0.0870(7) 0.5523(7) 0.2299(6)
C14_2 C 0.3854(7) 0.2437(7) 0.2639(6)
C15A C -0.3630(7) 1.0806(7) -0.0519(6)
C16A C -0.4142(8) 1.1819(7) 0.0035(7)
H7A H -0.4190 1.1762 0.0686
C17A C -0.4582(9) 1.2929(7) -0.0423(7)
H8A H -0.4936 1.3630 -0.0074
C18A C -0.4496(7) 1.2992(7) -0.1386(6)
C19A C -0.5102(7) 1.4087(7) -0.1901(6)
C20A C -0.3266(7) 0.9524(7) -0.0073(6)
C21A C 0.0418(7) 0.9362(7) -0.0146(6)
C22A C 0.5533(7) 1.5432(7) 0.4903(6)
C23A C -0.3882(7) 1.1928(7) -0.1900(6)
H9A H -0.3774 1.1975 -0.2560
Co1A Co 0.76111(9) 0.91640(9) 0.79066(8)
Co1A_2 Co -0.23889(9) 0.91640(9) -0.20934(8)
Co1_2 Co 0.23889(9) 0.08360(9) 0.20934(8)
Gd1A Gd 0.19586(3) 1.13880(3) -0.17104(3)
Gd1_2 Gd -0.19586(3) 1.86120(3) 0.17104(3)
Gd1A_2 Gd 1.19586(3) 1.13880(3) 0.82896(3)
Gd2A Gd 0.36578(3) 0.60172(3) 0.70436(3)
Gd2_2 Gd -0.36578(3) 1.39828(3) 0.29564(3)
Gd2_3 Gd 0.63422(3) 0.39828(3) 0.29564(3)
Gd2A_2 Gd 0.36578(3) 1.60172(3) 0.70436(3)
Gd2A_3 Gd -0.63422(3) 1.60172(3) -0.29564(3)
Gd2_4 Gd -0.36578(3) 0.39828(3) 0.29564(3)
H10A H 0.372(7) 1.295(3) -0.312(6)
H11A H 0.304(7) 1.224(6) -0.336(5)
H12A H 0.181(7) 1.371(3) -0.060(5)
H13A H 0.247(7) 1.271(5) -0.033(3)
H14A H 0.420(3) 0.945(7) -0.253(4)
H15A H 0.297(5) 0.965(7) -0.207(2)
H16A H 0.198(7) 0.704(6) 0.8924(11)
H17A H 0.217(8) 0.7901(14) 0.824(4)
N1A N 0.8249(6) 1.0162(6) 0.6546(5)
N2_2 N 0.1692(6) 0.2735(5) 0.2409(5)
N2A N 0.8308(6) 0.7265(5) 0.7591(5)
N3A N -0.3454(6) 1.0862(5) -0.1479(4)
N3A_2 N 0.6546(6) 1.0862(5) 0.8521(4)
O1A O 0.9380(5) 0.9613(5) 0.7960(4)
O2A O 1.0881(5) 1.0858(5) 0.7282(4)
O2A_2 O 0.0881(5) 1.0858(5) -0.2718(4)
O3A O 0.6442(6) 1.0894(6) 0.4361(5)
O4A O 0.7490(6) 1.2509(6) 0.3785(5)
O5_2 O -0.0794(6) 0.6666(5) 0.2138(5)
O5A O 0.0794(6) 1.3334(5) -0.2138(5)
O6_2 O -0.1849(5) 0.5042(5) 0.2304(4)
O6_3 O 0.8151(5) 1.5042(5) 0.2304(4)
O6A O 0.1849(5) 0.4958(5) 0.7696(4)
O7_2 O 0.4762(5) 0.2882(5) 0.2776(4)
O7A O 0.5238(5) 0.7118(5) 0.7224(4)
O8_2 O 0.3967(5) 0.1310(5) 0.2435(4)
O8A O 0.6033(5) 0.8690(5) 0.7565(4)
O9A O -0.3460(5) 0.9409(5) 0.0818(4)
O10A O -0.2783(5) 0.8658(5) -0.0626(4)
O10A_2 O 0.7217(5) 0.8658(5) 0.9374(4)
O11A O -0.4895(5) 1.4096(5) -0.2799(4)
O11_2 O 0.4895(5) 1.5904(5) 0.2799(4)
O11A_2 O 0.5105(5) 0.4096(5) 0.7201(4)
O12A O -0.5817(6) 1.4960(5) -0.1424(5)
O12_2 O 0.5817(6) 1.5040(5) 0.1424(5)
O12A_2 O 0.4183(6) 0.4960(5) 0.8576(5)
O13A O 0.1413(5) 0.9383(5) -0.0852(4)
O14A O 0.0003(5) 0.8440(5) 0.0408(5)
O15A O 0.5359(6) 1.6172(5) 0.5558(4)
O15A_2 O 0.5359(6) 0.6172(5) 0.5558(4)
O16A O 0.6447(5) 1.5314(5) 0.4156(4)
O16_2 O 0.3553(5) 0.4686(5) 0.5844(4)
O17A O 0.3557(6) 1.2233(6) -0.3043(5)
O18A O 0.2186(7) 1.3029(5) -0.0780(5)
O19A O 0.3480(5) 0.9716(6) -0.2607(4)
O20A O 0.2280(6) 0.7144(5) 0.8339(4)
H18 H 0.606(5) 0.821(8) 0.527(2)
H19 H 0.638(6) 0.821(8) 0.428(3)
O21 O 0.6692(9) 0.8266(9) 0.4749(7)
H20 H 0.165(5) 0.553(6) 0.026(6)
H21 H 0.057(6) 0.528(5) 0.000(7)
O22 O 0.1009(13) 0.5855(9) 0.0026(8)
O23 O 0.873(3) 0.588(3) 0.474(3)
loop_
_geom_bond_atom_site_label_1
_geom_bond_atom_site_label_2
_geom_bond_site_symmetry_1
_geom_bond_site_symmetry_2
C1 C2 1_555 1_555
C2 H1 1_555 1_555
C3 C2 1_555 1_555
H2 C3 1_555 1_555
C4 C3 1_555 1_555
C5 C4 1_555 1_555
H3 C5 1_555 1_555
C6 C4 1_555 1_555
C7 C1 1_555 1_555
C8 C9 1_555 1_555
C9 H4 1_555 1_555
C10 C9 1_555 1_555
H5 C10 1_555 1_555
C11 C10 1_555 1_555
C12 C11 1_555 1_555
H6 C12 1_555 1_555
C13 C11 1_555 1_555
C14 C8 1_555 1_555
C15 C16 1_555 1_555
C16 H7 1_555 1_555
C17 C16 1_555 1_555
H8 C17 1_555 1_555
C18 C17 1_555 1_555
C19 C18 1_555 1_555
C20 C15 1_555 1_555
C21 O13 1_555 1_555
C22 O15 1_555 1_555
C23 C18 1_555 1_555
H9 C23 1_555 1_555
Co1 N1 1_555 1_555
Gd1 O2 1_555 1_555
Gd2 O7 1_555 1_555
H10 O17 1_555 1_555
H11 O17 1_555 1_555
H12 O18 1_555 1_555
H13 O18 1_555 1_555
H14 O19 1_555 1_555
H15 O19 1_555 1_555
H16 O20 1_555 1_555
H17 O20 1_555 1_555
N1 C1 1_555 1_555
N2 C8 1_555 1_555
N3 C15 1_555 1_555
O1 C7 1_555 1_555
O2 C7 1_555 1_555
O3 C6 1_555 1_555
O4 C6 1_555 1_555
O5 C13 1_555 1_555
O6 C13 1_555 1_555
O7 C14 1_555 1_555
O8 C14 1_555 1_555
O9 C20 1_555 1_555
O10 C20 1_555 1_555
O11 C19 1_555 1_555
O12 C19 1_555 1_555
O13 Gd1 1_555 1_555
O14 C21 1_555 1_555
O15 Gd2 1_555 1_555
O16 C22 1_555 1_555
O17 Gd1 1_555 1_555
O18 Gd1 1_555 1_555
O19 Gd1 1_555 1_555
O20 Gd2 1_555 1_555
H18 O21 1_555 1_555
H19 O21 1_555 1_555
H20 O22 1_555 1_555
H21 O22 1_555 1_555
C1A C2A 1_555 1_555
C2A H1A 1_555 1_555
C3A C2A 1_555 1_555
H2A C3A 1_555 1_555
C4A C3A 1_555 1_555
C5A C4A 1_555 1_555
H3A C5A 1_555 1_555
C6A C4A 1_555 1_555
C7A C1A 1_555 1_555
C8_2 C9_2 1_555 1_555
C9_2 H4_2 1_555 1_555
C10_2 C9_2 1_555 1_555
H5_2 C10_2 1_555 1_555
C11_2 C10_2 1_555 1_555
C12_2 C11_2 1_555 1_555
H6_2 C12_2 1_555 1_555
C13_2 C11_2 1_555 1_555
C14_2 C8_2 1_555 1_555
C15A C16A 1_555 1_555
C16A H7A 1_555 1_555
C17A C16A 1_555 1_555
H8A C17A 1_555 1_555
C18A C17A 1_555 1_555
C19A C18A 1_555 1_555
C20A C15A 1_555 1_555
C21A C21 1_555 1_555
C22A C22 1_555 1_555
C23A C18A 1_555 1_555
H9A C23A 1_555 1_555
Co1A N1A 1_555 1_555
Co1A_2 N3A 1_555 1_555
Co1_2 N2_2 1_555 1_555
Gd1A O9 1_555 1_555
Gd1_2 O5 1_555 1_555
Gd1A_2 O2A 1_555 1_555
Gd2A O4 1_555 1_555
Gd2_2 O6 1_555 1_555
Gd2_3 O11 1_555 1_555
Gd2A_2 O16 1_555 1_555
Gd2A_3 O11A 1_555 1_555
Gd2_4 O6_2 1_555 1_555
H10A O17A 1_555 1_555
H11A O17A 1_555 1_555
H12A O18A 1_555 1_555
H13A O18A 1_555 1_555
H14A O19A 1_555 1_555
H15A O19A 1_555 1_555
H16A O20A 1_555 1_555
H17A O20A 1_555 1_555
N1A C1A 1_555 1_555
N2_2 C8_2 1_555 1_555
N2A Co1A 1_555 1_555
N3A C15A 1_555 1_555
N3A_2 Co1A 1_555 1_555
O1A C7A 1_555 1_555
O2A C7A 1_555 1_555
O2A_2 Gd1A 1_555 1_555
O3A C6A 1_555 1_555
O4A Gd2 1_555 1_555
O5_2 Gd1 1_555 1_555
O5A Gd1A 1_555 1_555
O6_2 C13_2 1_555 1_555
O6_3 Gd2 1_555 1_555
O6A Gd2A 1_555 1_555
O7_2 C14_2 1_555 1_555
O7A Gd2A 1_555 1_555
O8_2 C14_2 1_555 1_555
O8A Co1A 1_555 1_555
O9A Gd1 1_555 1_555
O10A C20A 1_555 1_555
O10A_2 Co1A 1_555 1_555
O11A C19A 1_555 1_555
O11_2 Gd2 1_555 1_555
O11A_2 Gd2A 1_555 1_555
O12A C19A 1_555 1_555
O12_2 Gd2 1_555 1_555
O12A_2 Gd2A 1_555 1_555
O13A C21A 1_555 1_555
O14A Gd1 1_555 1_555
O15A C22A 1_555 1_555
O15A_2 Gd2A 1_555 1_555
O16A Gd2 1_555 1_555
O16_2 Gd2A 1_555 1_555
O17A Gd1A 1_555 1_555
O18A Gd1A 1_555 1_555
O19A Gd1A 1_555 1_555
O20A Gd2A 1_555 1_555
C5 N1 1_555 1_555
C12 N2 1_555 1_555
C23 N3 1_555 1_555
Co1 N2 1_555 1_555
Co1 N3 1_555 1_555
Co1 O1 1_555 1_555
Co1 O8 1_555 1_555
Co1 O10 1_555 1_555
O12 Gd2_3 1_555 1_555
O14 Gd1A 1_555 1_555
C5A N1A 1_555 1_555
C6A O4A 1_555 1_555
C12_2 N2_2 1_555 1_555
C13_2 O5_2 1_555 1_555
C20A O9A 1_555 1_555
C21A O14A 1_555 1_555
C22A O16A 1_555 1_555
C23A N3A 1_555 1_555
Co1A O1A 1_555 1_555
Co1A_2 O10A 1_555 1_555
Co1_2 O8_2 1_555 1_555
Gd1A O13A 1_555 1_555
Gd2_3 O7_2 1_555 1_555
Gd2A_2 O15A 1_555 1_555
Gd2A_3 O12A 1_555 1_555

#END
