
#######################################################################
#
#                 Cambridge Crystallographic Data Centre
#                                CCDC 
#
#######################################################################
#
# If this CIF has been generated from an entry in the Cambridge 
# Structural Database, then it will include bibliographic, chemical, 
# crystal, experimental, refinement or atomic coordinate data resulting 
# from the CCDC's data processing and validation procedures.
#
#######################################################################

data_GUSFEG
_symmetry_cell_setting           orthorhombic
_symmetry_space_group_name_H-M   'P b c n'
_symmetry_Int_Tables_number      60
_space_group_name_Hall           '-P 2n 2ab'
loop_
_symmetry_equiv_pos_site_id
_symmetry_equiv_pos_as_xyz
1 x,y,z
2 1/2-x,1/2-y,1/2+z
3 -x,y,1/2-z
4 1/2+x,1/2-y,-z
5 -x,-y,-z
6 1/2+x,1/2+y,1/2-z
7 x,-y,1/2+z
8 1/2-x,1/2+y,z
_cell_length_a                   11.5440(6)
_cell_length_b                   17.8724(9)
_cell_length_c                   19.5733(9)
_cell_angle_alpha                90
_cell_angle_beta                 90
_cell_angle_gamma                90
_cell_volume                     4038.34
loop_
_atom_site_label
_atom_site_type_symbol
_atom_site_fract_x
_atom_site_fract_y
_atom_site_fract_z
Cd1 Cd 1.0000 1.015129(12) 0.2500
O1 O 0.61333(16) 0.82672(10) 0.34637(9)
O2 O 1.19747(14) 0.99880(9) 0.26271(9)
O3 O 1.19822(14) 1.12130(11) 0.27316(11)
N1 N 0.97310(16) 0.91287(12) 0.33104(11)
N2 N 0.9599(2) 0.84200(15) 0.42517(13)
N3 N 0.87179(16) 0.82671(11) 0.38194(10)
N4 N 0.57530(16) 0.68125(10) 0.41514(10)
N5 N 0.6459(2) 0.62556(12) 0.43693(12)
N6 N 0.53823(17) 0.58741(12) 0.34823(11)
C1 C 0.8806(2) 0.86971(14) 0.32709(13)
H1 H 0.8286 0.8695 0.2908
C2 C 1.0182(2) 0.89358(18) 0.39180(16)
H2 H 1.0856 0.9151 0.4090
C3 C 0.7827(2) 0.77286(13) 0.40077(13)
H3 H 0.8053 0.7482 0.4428
H4 H 0.7774 0.7350 0.3654
C4 C 0.66270(19) 0.80902(13) 0.41070(12)
C5 C 0.6685(2) 0.88150(14) 0.45207(12)
C6 C 0.7174(3) 0.88621(17) 0.51607(15)
C7 C 0.7229(3) 0.9508(2) 0.55375(17)
H5 H 0.7575 0.9518 0.5967
C8 C 0.6756(3) 1.0133(2) 0.5256(2)
C9 C 0.6260(3) 1.01379(16) 0.46352(19)
H6 H 0.5948 1.0576 0.4456
C10 C 0.6222(2) 0.94712(15) 0.42658(14)
H7 H 0.5877 0.9468 0.3837
C11 C 0.5800(2) 0.75449(13) 0.44724(13)
H8 H 0.6048 0.7487 0.4943
H9 H 0.5027 0.7759 0.4477
C12 C 0.51276(18) 0.65750(14) 0.36233(14)
H10 H 0.4588 0.6863 0.3388
C13 C 0.6196(2) 0.57077(15) 0.39476(15)
H11 H 0.6548 0.5240 0.3970
C14 C 1.24899(18) 1.06034(14) 0.26494(12)
C15 C 1.37988(17) 1.06027(14) 0.25750(11)
C16 C 1.4403(2) 1.12628(16) 0.25362(17)
H12 H 1.4007 1.1715 0.2559
C17 C 1.4403(2) 0.99444(13) 0.25346(12)
H13 H 1.4007 0.9492 0.2554
F1 F 0.76371(18) 0.82256(11) 0.54405(9)
F2 F 0.67778(19) 1.07775(12) 0.56207(12)
H14 H 0.646(3) 0.8043(17) 0.3068(17)
Cd1_2 Cd 2.0000 1.015129(12) 0.2500
Cd1E Cd 0.5000 0.515129(12) 0.2500
Cd1E_2 Cd 1.5000 0.515129(12) 0.2500
O1B O 1.38667(16) 0.82672(10) 0.15363(9)
O2B O 1.80253(14) 0.99880(9) 0.23729(9)
O2B_2 O 0.80253(14) 0.99880(9) 0.23729(9)
O3B O 1.80178(14) 1.12130(11) 0.22684(11)
N1B N 1.02690(16) 0.91287(12) 0.16896(11)
N2B N 1.0401(2) 0.84200(15) 0.07483(13)
N3B N 1.12821(16) 0.82671(11) 0.11806(10)
N4B N 1.42470(16) 0.68125(10) 0.08486(10)
N5B N 1.3541(2) 0.62556(12) 0.06307(12)
N6B N 1.46177(17) 0.58741(12) 0.15177(11)
N6E N 1.03823(17) 1.08741(12) 0.15177(11)
N6G N 0.96177(17) 1.08741(12) 0.34823(11)
C1B C 1.1194(2) 0.86971(14) 0.17291(13)
H1B H 1.1714 0.8695 0.2092
C2B C 0.9818(2) 0.89358(18) 0.10820(16)
H2B H 0.9144 0.9151 0.0910
C3B C 1.2173(2) 0.77286(13) 0.09923(13)
H3B H 1.1947 0.7482 0.0572
H4B H 1.2226 0.7350 0.1346
C4B C 1.33730(19) 0.80902(13) 0.08930(12)
C5B C 1.3315(2) 0.88150(14) 0.04793(12)
C6B C 1.2826(3) 0.88621(17) -0.01607(15)
C7B C 1.2771(3) 0.9508(2) -0.05375(17)
H5B H 1.2425 0.9518 -0.0967
C8B C 1.3244(3) 1.0133(2) -0.0256(2)
C9B C 1.3740(3) 1.01379(16) 0.03648(19)
H6B H 1.4052 1.0576 0.0544
C10B C 1.3778(2) 0.94712(15) 0.07342(14)
H7B H 1.4123 0.9468 0.1163
C11B C 1.4200(2) 0.75449(13) 0.05276(13)
H8B H 1.3952 0.7487 0.0057
H9B H 1.4973 0.7759 0.0523
C12B C 1.48724(18) 0.65750(14) 0.13767(14)
H10B H 1.5412 0.6863 0.1612
C13B C 1.3804(2) 0.57077(15) 0.10524(15)
H11B H 1.3452 0.5240 0.1030
C14B C 1.75101(18) 1.06034(14) 0.23506(12)
C15B C 1.62012(17) 1.06027(14) 0.24250(11)
C16B C 1.5597(2) 1.12628(16) 0.24638(17)
H12B H 1.5993 1.1715 0.2441
C17B C 1.5597(2) 0.99444(13) 0.24654(12)
H13B H 1.5993 0.9492 0.2446
F1B F 1.23629(18) 0.82256(11) -0.04405(9)
F2B F 1.32222(19) 1.07775(12) -0.06207(12)
H14B H 1.354(3) 0.8043(17) 0.1932(17)
O4 O 0.2109(2) 0.26541(13) 0.26315(10)
C18 C 0.2224(4) 0.30281(19) 0.32413(17)
H15 H 0.2455 0.3535 0.3155
H16 H 0.2801 0.2785 0.3516
H17 H 0.1497 0.3025 0.3479
H18 H 0.216(3) 0.211(2) 0.2645(17)
loop_
_geom_bond_atom_site_label_1
_geom_bond_atom_site_label_2
_geom_bond_site_symmetry_1
_geom_bond_site_symmetry_2
Cd1 O2 1_555 1_555
O1 C4 1_555 1_555
O2 C14 1_555 1_555
O3 C14 1_555 1_555
N1 Cd1 1_555 1_555
N2 N3 1_555 1_555
N3 C1 1_555 1_555
N4 N5 1_555 1_555
N5 C13 1_555 1_555
N6 C12 1_555 1_555
C1 N1 1_555 1_555
H1 C1 1_555 1_555
C2 N1 1_555 1_555
H2 C2 1_555 1_555
C3 N3 1_555 1_555
H3 C3 1_555 1_555
H4 C3 1_555 1_555
C4 C3 1_555 1_555
C5 C4 1_555 1_555
C6 C5 1_555 1_555
C7 C6 1_555 1_555
H5 C7 1_555 1_555
C8 C7 1_555 1_555
C9 C8 1_555 1_555
H6 C9 1_555 1_555
C10 C5 1_555 1_555
H7 C10 1_555 1_555
C11 N4 1_555 1_555
H8 C11 1_555 1_555
H9 C11 1_555 1_555
C12 N4 1_555 1_555
H10 C12 1_555 1_555
C13 N6 1_555 1_555
H11 C13 1_555 1_555
C14 C15 1_555 1_555
C15 C16 1_555 1_555
C16 H12 1_555 1_555
C17 C15 1_555 1_555
H13 C17 1_555 1_555
F1 C6 1_555 1_555
F2 C8 1_555 1_555
H14 O1 1_555 1_555
O4 C18 1_555 1_555
C18 H15 1_555 1_555
H16 C18 1_555 1_555
H17 C18 1_555 1_555
H18 O4 1_555 1_555
Cd1_2 O2B 1_555 1_555
Cd1E N6 1_555 1_555
Cd1E_2 N6B 1_555 1_555
O1B C4B 1_555 1_555
O2B C14B 1_555 1_555
O2B_2 Cd1 1_555 1_555
O3B C14B 1_555 1_555
N1B Cd1 1_555 1_555
N2B N3B 1_555 1_555
N3B C1B 1_555 1_555
N4B N5B 1_555 1_555
N5B C13B 1_555 1_555
N6B C12B 1_555 1_555
N6E Cd1 1_555 1_555
N6G Cd1 1_555 1_555
C1B N1B 1_555 1_555
H1B C1B 1_555 1_555
C2B N1B 1_555 1_555
H2B C2B 1_555 1_555
C3B N3B 1_555 1_555
H3B C3B 1_555 1_555
H4B C3B 1_555 1_555
C4B C3B 1_555 1_555
C5B C4B 1_555 1_555
C6B C5B 1_555 1_555
C7B C6B 1_555 1_555
H5B C7B 1_555 1_555
C8B C7B 1_555 1_555
C9B C8B 1_555 1_555
H6B C9B 1_555 1_555
C10B C5B 1_555 1_555
H7B C10B 1_555 1_555
C11B N4B 1_555 1_555
H8B C11B 1_555 1_555
H9B C11B 1_555 1_555
C12B N4B 1_555 1_555
H10B C12B 1_555 1_555
C13B N6B 1_555 1_555
H11B C13B 1_555 1_555
C14B C15B 1_555 1_555
C15B C16B 1_555 1_555
C16B C16 1_555 1_555
H12B C16B 1_555 1_555
C17B C17 1_555 1_555
H13B C17B 1_555 1_555
F1B C6B 1_555 1_555
F2B C8B 1_555 1_555
H14B O1B 1_555 1_555
N2 C2 1_555 1_555
C4 C11 1_555 1_555
C9 C10 1_555 1_555
N2B C2B 1_555 1_555
C4B C11B 1_555 1_555
C9B C10B 1_555 1_555
C15B C17B 1_555 1_555

#END
