
#######################################################################
#
#                 Cambridge Crystallographic Data Centre
#                                CCDC 
#
#######################################################################
#
# If this CIF has been generated from an entry in the Cambridge 
# Structural Database, then it will include bibliographic, chemical, 
# crystal, experimental, refinement or atomic coordinate data resulting 
# from the CCDC's data processing and validation procedures.
#
#######################################################################

data_GUSFAC
_symmetry_cell_setting           triclinic
_symmetry_space_group_name_H-M   'P -1'
_symmetry_Int_Tables_number      2
_space_group_name_Hall           '-P 1'
loop_
_symmetry_equiv_pos_site_id
_symmetry_equiv_pos_as_xyz
1 x,y,z
2 -x,-y,-z
_cell_length_a                   6.2070(12)
_cell_length_b                   11.540(2)
_cell_length_c                   17.150(3)
_cell_angle_alpha                99.72(3)
_cell_angle_beta                 95.43(3)
_cell_angle_gamma                105.40(3)
_cell_volume                     1154.69
loop_
_atom_site_label
_atom_site_type_symbol
_atom_site_fract_x
_atom_site_fract_y
_atom_site_fract_z
Zn1 Zn 0.44438(6) 0.73628(3) 0.29658(2)
F1 F 1.0368(5) 0.3561(2) 0.18940(15)
F2 F 0.3917(7) 0.1693(4) -0.00392(19)
O1 O 0.4745(4) 0.6271(2) 0.16685(14)
O2 O 0.1688(4) 0.6596(2) 0.21288(13)
O3 O 0.3239(4) 0.8383(2) 0.37690(14)
O4 O 0.1882(5) 0.7192(2) 0.46266(16)
O5 O 0.6471(4) 0.2349(2) 0.36715(15)
H1 H 0.7063 0.2469 0.4137
N1 N 0.5779(4) 0.6153(2) 0.34342(15)
N2 N 0.6671(5) 0.4973(3) 0.42608(17)
N3 N 0.7821(5) 0.4918(2) 0.36152(16)
N4 N 0.8945(5) 0.0744(2) 0.29391(17)
N5 N 0.9443(8) 0.0147(3) 0.2259(3)
N6 N 0.6863(5) -0.1163(2) 0.27797(17)
C1 C 0.5472(6) 0.5730(3) 0.41252(19)
H2 H 0.4510 0.5953 0.4468
C2 C 0.7265(6) 0.5615(3) 0.31309(19)
H3 H 0.7825 0.5714 0.2655
C3 C 0.9380(6) 0.4175(3) 0.3547(2)
H4 H 1.0202 0.4252 0.4072
H5 H 1.0468 0.4484 0.3207
C4 C 0.8151(6) 0.2779(3) 0.3191(2)
C5 C 0.9953(6) 0.2079(3) 0.3231(2)
H6 H 1.1098 0.2383 0.2909
H7 H 1.0682 0.2231 0.3779
C6 C 0.7419(6) -0.0044(3) 0.32260(19)
H8 H 0.6809 0.0164 0.3686
C7 C 0.8146(10) -0.0986(4) 0.2191(3)
H9 H 0.8116 -0.1616 0.1769
C8 C 0.6971(6) 0.2536(3) 0.2325(2)
C9 C 0.8123(7) 0.2906(4) 0.1717(2)
C10 C 0.7140(10) 0.2640(5) 0.0921(3)
H10 H 0.7958 0.2907 0.0525
C11 C 0.4885(10) 0.1958(5) 0.0743(3)
C12 C 0.3702(9) 0.1521(5) 0.1306(3)
H11 H 0.2215 0.1031 0.1166
C13 C 0.4738(6) 0.1816(4) 0.2097(2)
H12 H 0.3917 0.1523 0.2484
C14 C 0.2117(6) 0.8133(3) 0.43288(19)
C15 C 0.0994(5) 0.9102(3) 0.46628(17)
C16 C -0.1035(6) 0.8762(3) 0.49699(19)
H13 H -0.1732 0.7936 0.4952
C17 C 0.2035(6) 1.0357(3) 0.46956(19)
H14 H 0.3388 1.0599 0.4495
C18 C 0.2680(6) 0.6177(3) 0.15629(19)
C19 C 0.1259(5) 0.5556(3) 0.07561(18)
C20 C -0.0848(6) 0.5750(3) 0.05457(19)
H15 H -0.1415 0.6245 0.0908
C21 C 0.2075(6) 0.4806(3) 0.02085(19)
H16 H 0.3462 0.4673 0.0348
Zn1A Zn -0.44438(6) 0.26372(3) -0.29658(2)
Zn1_2 Zn 0.44438(6) -0.26372(3) 0.29658(2)
Zn1A_2 Zn -0.44438(6) 1.26372(3) -0.29658(2)
Zn1A_3 Zn -0.44438(6) 1.26372(3) 0.70342(2)
F1A F -1.0368(5) 0.6439(2) -0.18940(15)
F2A F -0.3917(7) 0.8307(4) 0.00392(19)
O1A O -0.4745(4) 0.3729(2) -0.16685(14)
O2A O -0.1688(4) 0.3404(2) -0.21288(13)
O3A O -0.3239(4) 1.1617(2) 0.62310(14)
O3A_2 O -0.3239(4) 0.1617(2) -0.37690(14)
O4A O -0.1882(5) 1.2808(2) 0.53734(16)
O5A O -0.6471(4) 0.7651(2) -0.36715(15)
H1A H -0.7063 0.7531 -0.4137
N1A N -0.5779(4) 0.3847(2) -0.34342(15)
N2A N -0.6671(5) 0.5027(3) -0.42608(17)
N3A N -0.7821(5) 0.5082(2) -0.36152(16)
N4A N -0.8945(5) 0.9256(2) -0.29391(17)
N5A N -0.9443(8) 0.9853(3) -0.2259(3)
N6A N -0.6863(5) 1.1163(2) -0.27797(17)
N6_2 N 0.6863(5) 0.8837(2) 0.27797(17)
N6A_2 N -0.6863(5) 0.1163(2) -0.27797(17)
C1A C -0.5472(6) 0.4270(3) -0.41252(19)
H2A H -0.4510 0.4047 -0.4468
C2A C -0.7265(6) 0.4385(3) -0.31309(19)
H3A H -0.7825 0.4286 -0.2655
C3A C -0.9380(6) 0.5825(3) -0.3547(2)
H4A H -1.0202 0.5748 -0.4072
H5A H -1.0468 0.5516 -0.3207
C4A C -0.8151(6) 0.7221(3) -0.3191(2)
C5A C -0.9953(6) 0.7921(3) -0.3231(2)
H6A H -1.1098 0.7617 -0.2909
H7A H -1.0682 0.7769 -0.3779
C6A C -0.7419(6) 1.0044(3) -0.32260(19)
H8A H -0.6809 0.9836 -0.3686
C7A C -0.8146(10) 1.0986(4) -0.2191(3)
H9A H -0.8116 1.1616 -0.1769
C8A C -0.6971(6) 0.7464(3) -0.2325(2)
C9A C -0.8123(7) 0.7094(4) -0.1717(2)
C10A C -0.7140(10) 0.7360(5) -0.0921(3)
H10A H -0.7958 0.7093 -0.0525
C11A C -0.4885(10) 0.8042(5) -0.0743(3)
C12A C -0.3702(9) 0.8479(5) -0.1306(3)
H11A H -0.2215 0.8969 -0.1166
C13A C -0.4738(6) 0.8184(4) -0.2097(2)
H12A H -0.3917 0.8477 -0.2484
C14A C -0.2117(6) 1.1867(3) 0.56712(19)
C15A C -0.0994(5) 1.0898(3) 0.53372(17)
C16A C 0.1035(6) 1.1238(3) 0.50301(19)
H13A H 0.1732 1.2064 0.5048
C17A C -0.2035(6) 0.9643(3) 0.53044(19)
H14A H -0.3388 0.9401 0.5505
C18A C -0.2680(6) 0.3823(3) -0.15629(19)
C19A C -0.1259(5) 0.4444(3) -0.07561(18)
C20A C 0.0848(6) 0.4250(3) -0.05457(19)
H15A H 0.1415 0.3755 -0.0908
C21A C -0.2075(6) 0.5194(3) -0.02085(19)
H16A H -0.3462 0.5327 -0.0348
loop_
_geom_bond_atom_site_label_1
_geom_bond_atom_site_label_2
_geom_bond_site_symmetry_1
_geom_bond_site_symmetry_2
Zn1 O1 1_555 1_555
F1 C9 1_555 1_555
F2 C11 1_555 1_555
O1 C18 1_555 1_555
O2 Zn1 1_555 1_555
O3 Zn1 1_555 1_555
O4 C14 1_555 1_555
O5 H1 1_555 1_555
N1 Zn1 1_555 1_555
N2 N3 1_555 1_555
N3 C2 1_555 1_555
N4 N5 1_555 1_555
N5 C7 1_555 1_555
N6 C6 1_555 1_555
C1 N1 1_555 1_555
H2 C1 1_555 1_555
C2 N1 1_555 1_555
H3 C2 1_555 1_555
C3 N3 1_555 1_555
H4 C3 1_555 1_555
H5 C3 1_555 1_555
C4 O5 1_555 1_555
C5 N4 1_555 1_555
H6 C5 1_555 1_555
H7 C5 1_555 1_555
C6 N4 1_555 1_555
H8 C6 1_555 1_555
C7 N6 1_555 1_555
H9 C7 1_555 1_555
C8 C4 1_555 1_555
C9 C8 1_555 1_555
C10 C9 1_555 1_555
H10 C10 1_555 1_555
C11 C10 1_555 1_555
C12 C11 1_555 1_555
H11 C12 1_555 1_555
C13 C8 1_555 1_555
H12 C13 1_555 1_555
C14 O3 1_555 1_555
C15 C14 1_555 1_555
C16 C15 1_555 1_555
H13 C16 1_555 1_555
C17 C15 1_555 1_555
H14 C17 1_555 1_555
C18 O2 1_555 1_555
C19 C18 1_555 1_555
C20 C19 1_555 1_555
H15 C20 1_555 1_555
C21 C19 1_555 1_555
H16 C21 1_555 1_555
Zn1A O1A 1_555 1_555
Zn1_2 N6 1_555 1_555
Zn1A_2 N6A 1_555 1_555
Zn1A_3 O3A 1_555 1_555
F1A C9A 1_555 1_555
F2A C11A 1_555 1_555
O1A C18A 1_555 1_555
O2A Zn1A 1_555 1_555
O3A C14A 1_555 1_555
O3A_2 Zn1A 1_555 1_555
O4A C14A 1_555 1_555
O5A H1A 1_555 1_555
N1A Zn1A 1_555 1_555
N2A N3A 1_555 1_555
N3A C2A 1_555 1_555
N4A N5A 1_555 1_555
N5A C7A 1_555 1_555
N6A C6A 1_555 1_555
N6_2 Zn1 1_555 1_555
N6A_2 Zn1A 1_555 1_555
C1A N1A 1_555 1_555
H2A C1A 1_555 1_555
C2A N1A 1_555 1_555
H3A C2A 1_555 1_555
C3A N3A 1_555 1_555
H4A C3A 1_555 1_555
H5A C3A 1_555 1_555
C4A O5A 1_555 1_555
C5A N4A 1_555 1_555
H6A C5A 1_555 1_555
H7A C5A 1_555 1_555
C6A N4A 1_555 1_555
H8A C6A 1_555 1_555
C7A N6A 1_555 1_555
H9A C7A 1_555 1_555
C8A C4A 1_555 1_555
C9A C8A 1_555 1_555
C10A C9A 1_555 1_555
H10A C10A 1_555 1_555
C11A C10A 1_555 1_555
C12A C11A 1_555 1_555
H11A C12A 1_555 1_555
C13A C8A 1_555 1_555
H12A C13A 1_555 1_555
C14A C15A 1_555 1_555
C15A C16A 1_555 1_555
C16A C17 1_555 1_555
H13A C16A 1_555 1_555
C17A C16 1_555 1_555
H14A C17A 1_555 1_555
C18A O2A 1_555 1_555
C19A C18A 1_555 1_555
C20A C21 1_555 1_555
H15A C20A 1_555 1_555
C21A C20 1_555 1_555
H16A C21A 1_555 1_555
N2 C1 1_555 1_555
C3 C4 1_555 1_555
C4 C5 1_555 1_555
C12 C13 1_555 1_555
N2A C1A 1_555 1_555
C3A C4A 1_555 1_555
C4A C5A 1_555 1_555
C12A C13A 1_555 1_555
C15A C17A 1_555 1_555
C19A C20A 1_555 1_555
C19A C21A 1_555 1_555

#END
