
#######################################################################
#
#                 Cambridge Crystallographic Data Centre
#                                CCDC 
#
#######################################################################
#
# If this CIF has been generated from an entry in the Cambridge 
# Structural Database, then it will include bibliographic, chemical, 
# crystal, experimental, refinement or atomic coordinate data resulting 
# from the CCDC's data processing and validation procedures.
#
#######################################################################

data_GUSLUC
_symmetry_cell_setting           cubic
_symmetry_space_group_name_H-M   'I -4 3 d'
_symmetry_Int_Tables_number      220
_space_group_name_Hall           'I -4bd 2c 3'
loop_
_symmetry_equiv_pos_site_id
_symmetry_equiv_pos_as_xyz
1 x,y,z
2 1/2-x,-y,1/2+z
3 -x,1/2+y,1/2-z
4 1/2+x,1/2-y,-z
5 z,x,y
6 1/2+z,1/2-x,-y
7 1/2-z,-x,1/2+y
8 -z,1/2+x,1/2-y
9 y,z,x
10 -y,1/2+z,1/2-x
11 1/2+y,1/2-z,-x
12 1/2-y,-z,1/2+x
13 1/4+y,1/4+x,1/4+z
14 1/4-y,3/4-x,3/4+z
15 3/4+y,1/4-x,3/4-z
16 3/4-y,3/4+x,1/4-z
17 1/4+x,1/4+z,1/4+y
18 3/4-x,3/4+z,1/4-y
19 1/4-x,3/4-z,3/4+y
20 3/4+x,1/4-z,3/4-y
21 1/4+z,1/4+y,1/4+x
22 3/4+z,1/4-y,3/4-x
23 3/4-z,3/4+y,1/4-x
24 1/4-z,3/4-y,3/4+x
25 1/2+x,1/2+y,1/2+z
26 -x,1/2-y,z
27 1/2-x,y,-z
28 x,-y,1/2-z
29 1/2+z,1/2+x,1/2+y
30 z,-x,1/2-y
31 -z,1/2-x,y
32 1/2-z,x,-y
33 1/2+y,1/2+z,1/2+x
34 1/2-y,z,-x
35 y,-z,1/2-x
36 -y,1/2-z,x
37 3/4+y,3/4+x,3/4+z
38 3/4-y,1/4-x,1/4+z
39 1/4+y,3/4-x,1/4-z
40 1/4-y,1/4+x,3/4-z
41 3/4+x,3/4+z,3/4+y
42 1/4-x,1/4+z,3/4-y
43 3/4-x,1/4-z,1/4+y
44 1/4+x,3/4-z,1/4-y
45 3/4+z,3/4+y,3/4+x
46 1/4+z,3/4-y,1/4-x
47 1/4-z,1/4+y,3/4-x
48 3/4-z,1/4-y,1/4+x
_cell_length_a                   27.479(2)
_cell_length_b                   27.479(2)
_cell_length_c                   27.479(2)
_cell_angle_alpha                90
_cell_angle_beta                 90
_cell_angle_gamma                90
_cell_volume                     20749.3
loop_
_atom_site_label
_atom_site_type_symbol
_atom_site_fract_x
_atom_site_fract_y
_atom_site_fract_z
Nd1 Nd 0.47717(2) 0.52283(2) 0.02283(2)
N1 N 0.5176(5) 0.3671(4) 0.0160(6)
H1 H 0.5166 0.3361 0.0199
N2 N 0.4922(5) 0.5236(6) 0.1281(4)
O1 O 0.4777(3) 0.4362(3) 0.0139(3)
O2 O 0.6411(5) 0.3406(5) 0.0187(6)
O3 O 0.4617(3) 0.3011(3) 0.0645(3)
O4 O 0.4881(6) 0.5624(4) 0.1046(4)
O5 O 0.4898(4) 0.4851(4) 0.1059(3)
O6 O 0.4955(7) 0.5237(6) 0.1727(3)
C1 C 0.5000 0.2500 0.1250
C2 C 0.4546(4) 0.2559(4) 0.0930(4)
H2 H 0.4510 0.2282 0.0714
H3 H 0.4256 0.2584 0.1130
C3 C 0.4234(4) 0.3185(4) 0.0392(4)
C4 C 0.3790(4) 0.2936(4) 0.0375(5)
H4 H 0.3748 0.2641 0.0535
C5 C 0.3419(6) 0.3144(6) 0.0113(7)
H5 H 0.3124 0.2981 0.0088
C6 C 0.3473(6) 0.3585(7) -0.0112(8)
H6 H 0.3223 0.3719 -0.0297
C7 C 0.3896(5) 0.3815(6) -0.0058(6)
H7 H 0.3922 0.4125 -0.0192
C8 C 0.4303(4) 0.3632(4) 0.0180(4)
C9 C 0.4783(5) 0.3906(4) 0.0168(4)
C10 C 0.5644(6) 0.3902(6) 0.0089(10)
H8 H 0.5734 0.3883 -0.0252
H9 H 0.5623 0.4242 0.0178
C11 C 0.6005(5) 0.3670(7) 0.0375(7)
C12 C 0.6038(6) 0.3633(7) 0.0891(7)
H10 H 0.5811 0.3756 0.1110
C13 C 0.6466(7) 0.3386(8) 0.1020(6)
H11 H 0.6576 0.3325 0.1335
C14 C 0.6701(6) 0.3243(7) 0.0578(8)
H12 H 0.6993 0.3074 0.0552
Nd1O Nd 0.22717(2) 0.22717(2) 0.22717(2)
Nd1Y Nd 0.52283(2) -0.02283(2) 0.02283(2)
Nd1LA Nd 0.77283(2) 0.27283(2) 0.22717(2)
Nd1N Nd 0.27283(2) 0.77283(2) -0.27283(2)
Nd1AA Nd 0.47717(2) 0.47717(2) -0.52283(2)
Nd1JA Nd 0.27283(2) 0.22717(2) -0.22717(2)
Nd1L Nd 0.77283(2) 0.72717(2) 0.27283(2)
Nd1Z Nd 1.02283(2) 0.52283(2) -0.02283(2)
Nd1MA Nd 0.72717(2) 0.72717(2) -0.27283(2)
N1O N 0.3829(4) 0.2676(5) 0.2340(6)
N1Y N 0.4824(5) 0.1329(4) 0.0160(6)
N1LA N 0.6171(4) 0.2324(5) 0.2340(6)
N1F N 0.4840(6) 0.4824(5) -0.1329(4)
N1T N 0.2660(6) 0.6171(4) -0.2324(5)
N1EA N 0.4840(6) 0.5176(5) -0.3671(4)
N1SA N 0.2660(6) 0.3829(4) -0.2676(5)
N1I N 0.6329(4) 0.5160(6) -0.0176(5)
N1R N 0.7324(5) 0.7340(6) 0.1171(4)
N1FA N 0.8671(4) 0.5160(6) 0.0176(5)
N1QA N 0.7676(5) 0.7340(6) -0.1171(4)
H1O H 0.4139 0.2666 0.2301
H1Y H 0.4834 0.1639 0.0199
H1LA H 0.5861 0.2334 0.2301
H1F H 0.4801 0.4834 -0.1639
H1T H 0.2699 0.5861 -0.2334
H1EA H 0.4801 0.5166 -0.3361
H1SA H 0.2699 0.4139 -0.2666
H1I H 0.6639 0.5199 -0.0166
H1R H 0.7334 0.7301 0.0861
H1FA H 0.8361 0.5199 0.0166
H1QA H 0.7666 0.7301 -0.0861
N2F N 0.3719(4) 0.5078(5) 0.0236(6)
N2I N 0.4764(6) 0.6281(4) 0.0078(5)
N2O N 0.2264(6) 0.2422(5) 0.1219(4)
N2S N 0.2422(5) 0.1219(4) 0.2264(6)
N2W N 0.1219(4) 0.2264(6) 0.2422(5)
N2Y N 0.5078(5) -0.0236(6) 0.1281(4)
N2BA N 0.6281(4) -0.0078(5) 0.0236(6)
N2HA N 0.5236(6) -0.1281(4) 0.0078(5)
N2LA N 0.7736(6) 0.2578(5) 0.1219(4)
N2OA N 0.7578(5) 0.3781(4) 0.2264(6)
N2RA N 0.8781(4) 0.2736(6) 0.2422(5)
O1O O 0.3138(3) 0.2277(3) 0.2361(3)
O1Y O 0.5223(3) 0.0638(3) 0.0139(3)
O1LA O 0.6862(3) 0.2723(3) 0.2361(3)
O1F O 0.4861(3) 0.5223(3) -0.0638(3)
O1T O 0.2639(3) 0.6862(3) -0.2723(3)
O1EA O 0.4861(3) 0.4777(3) -0.4362(3)
O1SA O 0.2639(3) 0.3138(3) -0.2277(3)
O1I O 0.5638(3) 0.5139(3) 0.0223(3)
O1R O 0.7723(3) 0.7361(3) 0.1862(3)
O1FA O 0.9362(3) 0.5139(3) -0.0223(3)
O1QA O 0.7277(3) 0.7361(3) -0.1862(3)
O1S O 0.2277(3) 0.2361(3) 0.3138(3)
O1W O 0.2361(3) 0.3138(3) 0.2277(3)
O1BA O 0.5139(3) -0.0223(3) -0.0638(3)
O1HA O 0.4362(3) -0.0139(3) 0.0223(3)
O1OA O 0.7723(3) 0.2639(3) 0.3138(3)
O1RA O 0.7639(3) 0.1862(3) 0.2277(3)
O2O O 0.4094(5) 0.3911(5) 0.2313(6)
O2Y O 0.3589(5) 0.1594(5) 0.0187(6)
O2LA O 0.5906(5) 0.1089(5) 0.2313(6)
O2F O 0.4813(6) 0.3589(5) -0.1594(5)
O2T O 0.2687(6) 0.5906(5) -0.1089(5)
O2EA O 0.4813(6) 0.6411(5) -0.3406(5)
O2SA O 0.2687(6) 0.4094(5) -0.3911(5)
O2I O 0.6594(5) 0.5187(6) -0.1411(5)
O2R O 0.6089(5) 0.7313(6) 0.0906(5)
O2FA O 0.8406(5) 0.5187(6) 0.1411(5)
O2QA O 0.8911(5) 0.7313(6) -0.0906(5)
O3O O 0.4489(3) 0.2117(3) 0.1855(3)
O3Y O 0.5383(3) 0.1989(3) 0.0645(3)
O3LA O 0.5511(3) 0.2883(3) 0.1855(3)
O3F O 0.4355(3) 0.5383(3) -0.1989(3)
O3T O 0.3145(3) 0.5511(3) -0.2883(3)
O3EA O 0.4355(3) 0.4617(3) -0.3011(3)
O3SA O 0.3145(3) 0.4489(3) -0.2117(3)
O3I O 0.6989(3) 0.5645(3) 0.0383(3)
O3R O 0.7883(3) 0.6855(3) 0.0511(3)
O3FA O 0.8011(3) 0.5645(3) -0.0383(3)
O3QA O 0.7117(3) 0.6855(3) -0.0511(3)
O4F O 0.3954(4) 0.5119(6) 0.0624(4)
O4I O 0.4376(4) 0.6046(4) 0.0119(6)
O4O O 0.1876(4) 0.2381(6) 0.1454(4)
O4S O 0.2381(6) 0.1454(4) 0.1876(4)
O4W O 0.1454(4) 0.1876(4) 0.2381(6)
O4Y O 0.5119(6) -0.0624(4) 0.1046(4)
O4BA O 0.6046(4) -0.0119(6) 0.0624(4)
O4HA O 0.5624(4) -0.1046(4) 0.0119(6)
O4LA O 0.8124(4) 0.2619(6) 0.1454(4)
O4OA O 0.7619(6) 0.3546(4) 0.1876(4)
O4RA O 0.8546(4) 0.3124(4) 0.2381(6)
O5F O 0.3941(3) 0.5102(4) -0.0149(4)
O5I O 0.5149(4) 0.6059(3) 0.0102(4)
O5O O 0.2649(4) 0.2398(4) 0.1441(3)
O5S O 0.2398(4) 0.1441(3) 0.2649(4)
O5W O 0.1441(3) 0.2649(4) 0.2398(4)
O5Y O 0.5102(4) 0.0149(4) 0.1059(3)
O5BA O 0.6059(3) -0.0102(4) -0.0149(4)
O5HA O 0.4851(4) -0.1059(3) 0.0102(4)
O5LA O 0.7351(4) 0.2602(4) 0.1441(3)
O5OA O 0.7602(4) 0.3559(3) 0.2649(4)
O5RA O 0.8559(3) 0.2351(4) 0.2398(4)
O6F O 0.3273(3) 0.5045(7) 0.0237(6)
O6I O 0.4763(6) 0.6727(3) 0.0045(7)
O6O O 0.2263(6) 0.2455(7) 0.0773(3)
O6S O 0.2455(7) 0.0773(3) 0.2263(6)
O6W O 0.0773(3) 0.2263(6) 0.2455(7)
O6Y O 0.5045(7) -0.0237(6) 0.1727(3)
O6BA O 0.6727(3) -0.0045(7) 0.0237(6)
O6HA O 0.5237(6) -0.1727(3) 0.0045(7)
O6LA O 0.7737(6) 0.2545(7) 0.0773(3)
O6OA O 0.7545(7) 0.4227(3) 0.2263(6)
O6RA O 0.9227(3) 0.2737(6) 0.2455(7)
C1F C 0.3750 0.5000 -0.2500
C1I C 0.7500 0.6250 0.0000
C2O C 0.4941(4) 0.2046(4) 0.1570(4)
C2Y C 0.5454(4) 0.2441(4) 0.0930(4)
C2LA C 0.5059(4) 0.2954(4) 0.1570(4)
C2F C 0.4070(4) 0.5454(4) -0.2441(4)
C2T C 0.3430(4) 0.5059(4) -0.2954(4)
C2EA C 0.4070(4) 0.4546(4) -0.2559(4)
C2SA C 0.3430(4) 0.4941(4) -0.2046(4)
C2I C 0.7441(4) 0.5930(4) 0.0454(4)
C2R C 0.7954(4) 0.6570(4) 0.0059(4)
C2FA C 0.7559(4) 0.5930(4) -0.0454(4)
C2QA C 0.7046(4) 0.6570(4) -0.0059(4)
H2O H 0.5218 0.2010 0.1786
H2Y H 0.5490 0.2718 0.0714
H2LA H 0.4782 0.2990 0.1786
H2F H 0.4286 0.5490 -0.2718
H2T H 0.3214 0.4782 -0.2990
H2EA H 0.4286 0.4510 -0.2282
H2SA H 0.3214 0.5218 -0.2010
H2I H 0.7718 0.5714 0.0490
H2R H 0.7990 0.6786 -0.0218
H2FA H 0.7282 0.5714 -0.0490
H2QA H 0.7010 0.6786 0.0218
H3O H 0.4916 0.1756 0.1370
H3Y H 0.5744 0.2416 0.1130
H3LA H 0.5084 0.3244 0.1370
H3F H 0.3870 0.5744 -0.2416
H3T H 0.3630 0.5084 -0.3244
H3EA H 0.3870 0.4256 -0.2584
H3SA H 0.3630 0.4916 -0.1756
H3I H 0.7416 0.6130 0.0744
H3R H 0.8244 0.6370 0.0084
H3FA H 0.7584 0.6130 -0.0744
H3QA H 0.6756 0.6370 -0.0084
C3O C 0.4315(4) 0.1734(4) 0.2108(4)
C3Y C 0.5766(4) 0.1815(4) 0.0392(4)
C3LA C 0.5685(4) 0.3266(4) 0.2108(4)
C3F C 0.4608(4) 0.5766(4) -0.1815(4)
C3T C 0.2892(4) 0.5685(4) -0.3266(4)
C3EA C 0.4608(4) 0.4234(4) -0.3185(4)
C3SA C 0.2892(4) 0.4315(4) -0.1734(4)
C3I C 0.6815(4) 0.5392(4) 0.0766(4)
C3R C 0.8266(4) 0.7108(4) 0.0685(4)
C3FA C 0.8185(4) 0.5392(4) -0.0766(4)
C3QA C 0.6734(4) 0.7108(4) -0.0685(4)
C4O C 0.4564(4) 0.1290(4) 0.2125(5)
C4Y C 0.6210(4) 0.2064(4) 0.0375(5)
C4LA C 0.5436(4) 0.3710(4) 0.2125(5)
C4F C 0.4625(5) 0.6210(4) -0.2064(4)
C4T C 0.2875(5) 0.5436(4) -0.3710(4)
C4EA C 0.4625(5) 0.3790(4) -0.2936(4)
C4SA C 0.2875(5) 0.4564(4) -0.1290(4)
C4I C 0.7064(4) 0.5375(5) 0.1210(4)
C4R C 0.8710(4) 0.7125(5) 0.0436(4)
C4FA C 0.7936(4) 0.5375(5) -0.1210(4)
C4QA C 0.6290(4) 0.7125(5) -0.0436(4)
H4O H 0.4859 0.1248 0.1965
H4Y H 0.6252 0.2359 0.0535
H4LA H 0.5141 0.3752 0.1965
H4F H 0.4465 0.6252 -0.2359
H4T H 0.3035 0.5141 -0.3752
H4EA H 0.4465 0.3748 -0.2641
H4SA H 0.3035 0.4859 -0.1248
H4I H 0.7359 0.5535 0.1252
H4R H 0.8752 0.6965 0.0141
H4FA H 0.7641 0.5535 -0.1252
H4QA H 0.6248 0.6965 -0.0141
C5O C 0.4356(6) 0.0919(6) 0.2387(7)
C5Y C 0.6581(6) 0.1856(6) 0.0113(7)
C5LA C 0.5644(6) 0.4081(6) 0.2387(7)
C5F C 0.4887(7) 0.6581(6) -0.1856(6)
C5T C 0.2613(7) 0.5644(6) -0.4081(6)
C5EA C 0.4887(7) 0.3419(6) -0.3144(6)
C5SA C 0.2613(7) 0.4356(6) -0.0919(6)
C5I C 0.6856(6) 0.5113(7) 0.1581(6)
C5R C 0.9081(6) 0.7387(7) 0.0644(6)
C5FA C 0.8144(6) 0.5113(7) -0.1581(6)
C5QA C 0.5919(6) 0.7387(7) -0.0644(6)
H5O H 0.4519 0.0624 0.2412
H5Y H 0.6876 0.2019 0.0088
H5LA H 0.5481 0.4376 0.2412
H5F H 0.4912 0.6876 -0.2019
H5T H 0.2588 0.5481 -0.4376
H5EA H 0.4912 0.3124 -0.2981
H5SA H 0.2588 0.4519 -0.0624
H5I H 0.7019 0.5088 0.1876
H5R H 0.9376 0.7412 0.0481
H5FA H 0.7981 0.5088 -0.1876
H5QA H 0.5624 0.7412 -0.0481
C6O C 0.3915(7) 0.0973(6) 0.2612(8)
C6Y C 0.6527(6) 0.1415(7) -0.0112(8)
C6LA C 0.6085(7) 0.4027(6) 0.2612(8)
C6F C 0.5112(8) 0.6527(6) -0.1415(7)
C6T C 0.2388(8) 0.6085(7) -0.4027(6)
C6EA C 0.5112(8) 0.3473(6) -0.3585(7)
C6SA C 0.2388(8) 0.3915(7) -0.0973(6)
C6I C 0.6415(7) 0.4888(8) 0.1527(6)
C6R C 0.9027(6) 0.7612(8) 0.1085(7)
C6FA C 0.8585(7) 0.4888(8) -0.1527(6)
C6QA C 0.5973(6) 0.7612(8) -0.1085(7)
H6O H 0.3781 0.0723 0.2797
H6Y H 0.6777 0.1281 -0.0297
H6LA H 0.6219 0.4277 0.2797
H6F H 0.5297 0.6777 -0.1281
H6T H 0.2203 0.6219 -0.4277
H6EA H 0.5297 0.3223 -0.3719
H6SA H 0.2203 0.3781 -0.0723
H6I H 0.6281 0.4703 0.1777
H6R H 0.9277 0.7797 0.1219
H6FA H 0.8719 0.4703 -0.1777
H6QA H 0.5723 0.7797 -0.1219
C7O C 0.3685(6) 0.1396(5) 0.2558(6)
C7Y C 0.6104(5) 0.1185(6) -0.0058(6)
C7LA C 0.6315(6) 0.3604(5) 0.2558(6)
C7F C 0.5058(6) 0.6104(5) -0.1185(6)
C7T C 0.2442(6) 0.6315(6) -0.3604(5)
C7EA C 0.5058(6) 0.3896(5) -0.3815(6)
C7SA C 0.2442(6) 0.3685(6) -0.1396(5)
C7I C 0.6185(6) 0.4942(6) 0.1104(5)
C7R C 0.8604(5) 0.7558(6) 0.1315(6)
C7FA C 0.8815(6) 0.4942(6) -0.1104(5)
C7QA C 0.6396(5) 0.7558(6) -0.1315(6)
H7O H 0.3375 0.1422 0.2692
H7Y H 0.6078 0.0875 -0.0192
H7LA H 0.6625 0.3578 0.2692
H7F H 0.5192 0.6078 -0.0875
H7T H 0.2308 0.6625 -0.3578
H7EA H 0.5192 0.3922 -0.4125
H7SA H 0.2308 0.3375 -0.1422
H7I H 0.5875 0.4808 0.1078
H7R H 0.8578 0.7692 0.1625
H7FA H 0.9125 0.4808 -0.1078
H7QA H 0.6422 0.7692 -0.1625
C8O C 0.3868(4) 0.1803(4) 0.2320(4)
C8Y C 0.5697(4) 0.1368(4) 0.0180(4)
C8LA C 0.6132(4) 0.3197(4) 0.2320(4)
C8F C 0.4820(4) 0.5697(4) -0.1368(4)
C8T C 0.2680(4) 0.6132(4) -0.3197(4)
C8EA C 0.4820(4) 0.4303(4) -0.3632(4)
C8SA C 0.2680(4) 0.3868(4) -0.1803(4)
C8I C 0.6368(4) 0.5180(4) 0.0697(4)
C8R C 0.8197(4) 0.7320(4) 0.1132(4)
C8FA C 0.8632(4) 0.5180(4) -0.0697(4)
C8QA C 0.6803(4) 0.7320(4) -0.1132(4)
C9O C 0.3594(4) 0.2283(5) 0.2332(4)
C9Y C 0.5217(5) 0.1094(4) 0.0168(4)
C9LA C 0.6406(4) 0.2717(5) 0.2332(4)
C9F C 0.4832(4) 0.5217(5) -0.1094(4)
C9T C 0.2668(4) 0.6406(4) -0.2717(5)
C9EA C 0.4832(4) 0.4783(5) -0.3906(4)
C9SA C 0.2668(4) 0.3594(4) -0.2283(5)
C9I C 0.6094(4) 0.5168(4) 0.0217(5)
C9R C 0.7717(5) 0.7332(4) 0.1406(4)
C9FA C 0.8906(4) 0.5168(4) -0.0217(5)
C9QA C 0.7283(5) 0.7332(4) -0.1406(4)
C10O C 0.3598(6) 0.3144(6) 0.2411(10)
C10Y C 0.4356(6) 0.1098(6) 0.0089(10)
C10LA C 0.6402(6) 0.1856(6) 0.2411(10)
C10F C 0.4911(10) 0.4356(6) -0.1098(6)
C10T C 0.2589(10) 0.6402(6) -0.1856(6)
C10EA C 0.4911(10) 0.5644(6) -0.3902(6)
C10SA C 0.2589(10) 0.3598(6) -0.3144(6)
C10I C 0.6098(6) 0.5089(10) -0.0644(6)
C10R C 0.6856(6) 0.7411(10) 0.1402(6)
C10FA C 0.8902(6) 0.5089(10) 0.0644(6)
C10QA C 0.8144(6) 0.7411(10) -0.1402(6)
H8O H 0.3617 0.3234 0.2752
H8Y H 0.4266 0.1117 -0.0252
H8LA H 0.6383 0.1766 0.2752
H8F H 0.5252 0.4266 -0.1117
H8T H 0.2248 0.6383 -0.1766
H8EA H 0.5252 0.5734 -0.3883
H8SA H 0.2248 0.3617 -0.3234
H8I H 0.6117 0.4748 -0.0734
H8R H 0.6766 0.7752 0.1383
H8FA H 0.8883 0.4748 0.0734
H8QA H 0.8234 0.7752 -0.1383
H9O H 0.3258 0.3123 0.2322
H9Y H 0.4377 0.0758 0.0178
H9LA H 0.6742 0.1877 0.2322
H9F H 0.4822 0.4377 -0.0758
H9T H 0.2678 0.6742 -0.1877
H9EA H 0.4822 0.5623 -0.4242
H9SA H 0.2678 0.3258 -0.3123
H9I H 0.5758 0.5178 -0.0623
H9R H 0.6877 0.7322 0.1742
H9FA H 0.9242 0.5178 0.0623
H9QA H 0.8123 0.7322 -0.1742
C11O C 0.3830(7) 0.3505(5) 0.2125(7)
C11Y C 0.3995(5) 0.1330(7) 0.0375(7)
C11LA C 0.6170(7) 0.1495(5) 0.2125(7)
C11F C 0.4625(7) 0.3995(5) -0.1330(7)
C11T C 0.2875(7) 0.6170(7) -0.1495(5)
C11EA C 0.4625(7) 0.6005(5) -0.3670(7)
C11SA C 0.2875(7) 0.3830(7) -0.3505(5)
C11I C 0.6330(7) 0.5375(7) -0.1005(5)
C11R C 0.6495(5) 0.7125(7) 0.1170(7)
C11FA C 0.8670(7) 0.5375(7) 0.1005(5)
C11QA C 0.8505(5) 0.7125(7) -0.1170(7)
C12O C 0.3867(7) 0.3538(6) 0.1609(7)
C12Y C 0.3962(6) 0.1367(7) 0.0891(7)
C12LA C 0.6133(7) 0.1462(6) 0.1609(7)
C12F C 0.4109(7) 0.3962(6) -0.1367(7)
C12T C 0.3391(7) 0.6133(7) -0.1462(6)
C12EA C 0.4109(7) 0.6038(6) -0.3633(7)
C12SA C 0.3391(7) 0.3867(7) -0.3538(6)
C12I C 0.6367(7) 0.5891(7) -0.1038(6)
C12R C 0.6462(6) 0.6609(7) 0.1133(7)
C12FA C 0.8633(7) 0.5891(7) 0.1038(6)
C12QA C 0.8538(6) 0.6609(7) -0.1133(7)
H10O H 0.3744 0.3311 0.1390
H10Y H 0.4189 0.1244 0.1110
H10LA H 0.6256 0.1689 0.1390
H10F H 0.3890 0.4189 -0.1244
H10T H 0.3610 0.6256 -0.1689
H10EA H 0.3890 0.5811 -0.3756
H10SA H 0.3610 0.3744 -0.3311
H10I H 0.6244 0.6110 -0.0811
H10R H 0.6689 0.6390 0.1256
H10FA H 0.8756 0.6110 0.0811
H10QA H 0.8311 0.6390 -0.1256
C13O C 0.4114(8) 0.3966(7) 0.1480(6)
C13Y C 0.3534(7) 0.1614(8) 0.1020(6)
C13LA C 0.5886(8) 0.1034(7) 0.1480(6)
C13F C 0.3980(6) 0.3534(7) -0.1614(8)
C13T C 0.3520(6) 0.5886(8) -0.1034(7)
C13EA C 0.3980(6) 0.6466(7) -0.3386(8)
C13SA C 0.3520(6) 0.4114(8) -0.3966(7)
C13I C 0.6614(8) 0.6020(6) -0.1466(7)
C13R C 0.6034(7) 0.6480(6) 0.0886(8)
C13FA C 0.8386(8) 0.6020(6) 0.1466(7)
C13QA C 0.8966(7) 0.6480(6) -0.0886(8)
H11O H 0.4175 0.4076 0.1165
H11Y H 0.3424 0.1675 0.1335
H11LA H 0.5825 0.0924 0.1165
H11F H 0.3665 0.3424 -0.1675
H11T H 0.3835 0.5825 -0.0924
H11EA H 0.3665 0.6576 -0.3325
H11SA H 0.3835 0.4175 -0.4076
H11I H 0.6675 0.6335 -0.1576
H11R H 0.5924 0.6165 0.0825
H11FA H 0.8325 0.6335 0.1576
H11QA H 0.9076 0.6165 -0.0825
C14O C 0.4257(7) 0.4201(6) 0.1922(8)
C14Y C 0.3299(6) 0.1757(7) 0.0578(8)
C14LA C 0.5743(7) 0.0799(6) 0.1922(8)
C14F C 0.4422(8) 0.3299(6) -0.1757(7)
C14T C 0.3078(8) 0.5743(7) -0.0799(6)
C14EA C 0.4422(8) 0.6701(6) -0.3243(7)
C14SA C 0.3078(8) 0.4257(7) -0.4201(6)
C14I C 0.6757(7) 0.5578(8) -0.1701(6)
C14R C 0.5799(6) 0.6922(8) 0.0743(7)
C14FA C 0.8243(7) 0.5578(8) 0.1701(6)
C14QA C 0.9201(6) 0.6922(8) -0.0743(7)
H12O H 0.4426 0.4493 0.1948
H12Y H 0.3007 0.1926 0.0552
H12LA H 0.5574 0.0507 0.1948
H12F H 0.4448 0.3007 -0.1926
H12T H 0.3052 0.5574 -0.0507
H12EA H 0.4448 0.6993 -0.3074
H12SA H 0.3052 0.4426 -0.4493
H12I H 0.6926 0.5552 -0.1993
H12R H 0.5507 0.6948 0.0574
H12FA H 0.8074 0.5552 0.1993
H12QA H 0.9493 0.6948 -0.0574
loop_
_geom_bond_atom_site_label_1
_geom_bond_atom_site_label_2
_geom_bond_site_symmetry_1
_geom_bond_site_symmetry_2
Nd1 O1 1_555 1_555
N1 H1 1_555 1_555
N2 O4 1_555 1_555
O1 C9 1_555 1_555
O2 C11 1_555 1_555
O3 C2 1_555 1_555
O4 Nd1 1_555 1_555
O5 Nd1 1_555 1_555
O6 N2 1_555 1_555
C1 C2 1_555 1_555
C2 H2 1_555 1_555
H3 C2 1_555 1_555
C3 O3 1_555 1_555
C4 C3 1_555 1_555
H4 C4 1_555 1_555
C5 C4 1_555 1_555
H5 C5 1_555 1_555
C6 C5 1_555 1_555
H6 C6 1_555 1_555
C7 C6 1_555 1_555
H7 C7 1_555 1_555
C8 C3 1_555 1_555
C9 N1 1_555 1_555
C10 N1 1_555 1_555
H8 C10 1_555 1_555
H9 C10 1_555 1_555
C11 C10 1_555 1_555
C12 C11 1_555 1_555
H10 C12 1_555 1_555
C13 C12 1_555 1_555
H11 C13 1_555 1_555
C14 O2 1_555 1_555
H12 C14 1_555 1_555
Nd1O O1O 1_555 1_555
Nd1Y O1Y 1_555 1_555
Nd1LA O1LA 1_555 1_555
Nd1N O1T 1_555 1_555
Nd1AA O1EA 1_555 1_555
Nd1JA O1SA 1_555 1_555
Nd1L O1R 1_555 1_555
Nd1Z O1FA 1_555 1_555
Nd1MA O1QA 1_555 1_555
N1O H1O 1_555 1_555
N1Y H1Y 1_555 1_555
N1LA H1LA 1_555 1_555
N1F H1F 1_555 1_555
N1T H1T 1_555 1_555
N1EA H1EA 1_555 1_555
N1SA H1SA 1_555 1_555
N1I H1I 1_555 1_555
N1R H1R 1_555 1_555
N1FA H1FA 1_555 1_555
N1QA H1QA 1_555 1_555
N2F O4F 1_555 1_555
N2I O4I 1_555 1_555
N2O O4O 1_555 1_555
N2S O4S 1_555 1_555
N2W O4W 1_555 1_555
N2Y O4Y 1_555 1_555
N2BA O4BA 1_555 1_555
N2HA O4HA 1_555 1_555
N2LA O4LA 1_555 1_555
N2OA O4OA 1_555 1_555
N2RA O4RA 1_555 1_555
O1O C9O 1_555 1_555
O1Y C9Y 1_555 1_555
O1LA C9LA 1_555 1_555
O1F Nd1 1_555 1_555
O1T C9T 1_555 1_555
O1EA C9EA 1_555 1_555
O1SA C9SA 1_555 1_555
O1I Nd1 1_555 1_555
O1R C9R 1_555 1_555
O1FA C9FA 1_555 1_555
O1QA C9QA 1_555 1_555
O1S Nd1O 1_555 1_555
O1W Nd1O 1_555 1_555
O1BA Nd1Y 1_555 1_555
O1HA Nd1Y 1_555 1_555
O1OA Nd1LA 1_555 1_555
O1RA Nd1LA 1_555 1_555
O2O C11O 1_555 1_555
O2Y C11Y 1_555 1_555
O2LA C11LA 1_555 1_555
O2F C11F 1_555 1_555
O2T C11T 1_555 1_555
O2EA C11EA 1_555 1_555
O2SA C11SA 1_555 1_555
O2I C11I 1_555 1_555
O2R C11R 1_555 1_555
O2FA C11FA 1_555 1_555
O2QA C11QA 1_555 1_555
O3O C2O 1_555 1_555
O3Y C2Y 1_555 1_555
O3LA C2LA 1_555 1_555
O3F C2F 1_555 1_555
O3T C2T 1_555 1_555
O3EA C2EA 1_555 1_555
O3SA C2SA 1_555 1_555
O3I C2I 1_555 1_555
O3R C2R 1_555 1_555
O3FA C2FA 1_555 1_555
O3QA C2QA 1_555 1_555
O4F Nd1 1_555 1_555
O4I Nd1 1_555 1_555
O4O Nd1O 1_555 1_555
O4S Nd1O 1_555 1_555
O4W Nd1O 1_555 1_555
O4Y Nd1Y 1_555 1_555
O4BA Nd1Y 1_555 1_555
O4HA Nd1Y 1_555 1_555
O4LA Nd1LA 1_555 1_555
O4OA Nd1LA 1_555 1_555
O4RA Nd1LA 1_555 1_555
O5F Nd1 1_555 1_555
O5I Nd1 1_555 1_555
O5O Nd1O 1_555 1_555
O5S Nd1O 1_555 1_555
O5W Nd1O 1_555 1_555
O5Y Nd1Y 1_555 1_555
O5BA Nd1Y 1_555 1_555
O5HA Nd1Y 1_555 1_555
O5LA Nd1LA 1_555 1_555
O5OA Nd1LA 1_555 1_555
O5RA Nd1LA 1_555 1_555
O6F N2F 1_555 1_555
O6I N2I 1_555 1_555
O6O N2O 1_555 1_555
O6S N2S 1_555 1_555
O6W N2W 1_555 1_555
O6Y N2Y 1_555 1_555
O6BA N2BA 1_555 1_555
O6HA N2HA 1_555 1_555
O6LA N2LA 1_555 1_555
O6OA N2OA 1_555 1_555
O6RA N2RA 1_555 1_555
C1F C2F 1_555 1_555
C1I C2I 1_555 1_555
C2O C1 1_555 1_555
C2Y C1 1_555 1_555
C2LA C1 1_555 1_555
C2F H2F 1_555 1_555
C2T C1F 1_555 1_555
C2EA C1F 1_555 1_555
C2SA C1F 1_555 1_555
C2I H2I 1_555 1_555
C2R C1I 1_555 1_555
C2FA C1I 1_555 1_555
C2QA C1I 1_555 1_555
H2O C2O 1_555 1_555
H2Y C2Y 1_555 1_555
H2LA C2LA 1_555 1_555
H2T C2T 1_555 1_555
H2EA C2EA 1_555 1_555
H2SA C2SA 1_555 1_555
H2R C2R 1_555 1_555
H2FA C2FA 1_555 1_555
H2QA C2QA 1_555 1_555
H3O C2O 1_555 1_555
H3Y C2Y 1_555 1_555
H3LA C2LA 1_555 1_555
H3F C2F 1_555 1_555
H3T C2T 1_555 1_555
H3EA C2EA 1_555 1_555
H3SA C2SA 1_555 1_555
H3I C2I 1_555 1_555
H3R C2R 1_555 1_555
H3FA C2FA 1_555 1_555
H3QA C2QA 1_555 1_555
C3O O3O 1_555 1_555
C3Y O3Y 1_555 1_555
C3LA O3LA 1_555 1_555
C3F O3F 1_555 1_555
C3T O3T 1_555 1_555
C3EA O3EA 1_555 1_555
C3SA O3SA 1_555 1_555
C3I O3I 1_555 1_555
C3R O3R 1_555 1_555
C3FA O3FA 1_555 1_555
C3QA O3QA 1_555 1_555
C4O C3O 1_555 1_555
C4Y C3Y 1_555 1_555
C4LA C3LA 1_555 1_555
C4F C3F 1_555 1_555
C4T C3T 1_555 1_555
C4EA C3EA 1_555 1_555
C4SA C3SA 1_555 1_555
C4I C3I 1_555 1_555
C4R C3R 1_555 1_555
C4FA C3FA 1_555 1_555
C4QA C3QA 1_555 1_555
H4O C4O 1_555 1_555
H4Y C4Y 1_555 1_555
H4LA C4LA 1_555 1_555
H4F C4F 1_555 1_555
H4T C4T 1_555 1_555
H4EA C4EA 1_555 1_555
H4SA C4SA 1_555 1_555
H4I C4I 1_555 1_555
H4R C4R 1_555 1_555
H4FA C4FA 1_555 1_555
H4QA C4QA 1_555 1_555
C5O C4O 1_555 1_555
C5Y C4Y 1_555 1_555
C5LA C4LA 1_555 1_555
C5F C4F 1_555 1_555
C5T C4T 1_555 1_555
C5EA C4EA 1_555 1_555
C5SA C4SA 1_555 1_555
C5I C4I 1_555 1_555
C5R C4R 1_555 1_555
C5FA C4FA 1_555 1_555
C5QA C4QA 1_555 1_555
H5O C5O 1_555 1_555
H5Y C5Y 1_555 1_555
H5LA C5LA 1_555 1_555
H5F C5F 1_555 1_555
H5T C5T 1_555 1_555
H5EA C5EA 1_555 1_555
H5SA C5SA 1_555 1_555
H5I C5I 1_555 1_555
H5R C5R 1_555 1_555
H5FA C5FA 1_555 1_555
H5QA C5QA 1_555 1_555
C6O C5O 1_555 1_555
C6Y C5Y 1_555 1_555
C6LA C5LA 1_555 1_555
C6F C5F 1_555 1_555
C6T C5T 1_555 1_555
C6EA C5EA 1_555 1_555
C6SA C5SA 1_555 1_555
C6I C5I 1_555 1_555
C6R C5R 1_555 1_555
C6FA C5FA 1_555 1_555
C6QA C5QA 1_555 1_555
H6O C6O 1_555 1_555
H6Y C6Y 1_555 1_555
H6LA C6LA 1_555 1_555
H6F C6F 1_555 1_555
H6T C6T 1_555 1_555
H6EA C6EA 1_555 1_555
H6SA C6SA 1_555 1_555
H6I C6I 1_555 1_555
H6R C6R 1_555 1_555
H6FA C6FA 1_555 1_555
H6QA C6QA 1_555 1_555
C7O C6O 1_555 1_555
C7Y C6Y 1_555 1_555
C7LA C6LA 1_555 1_555
C7F C6F 1_555 1_555
C7T C6T 1_555 1_555
C7EA C6EA 1_555 1_555
C7SA C6SA 1_555 1_555
C7I C6I 1_555 1_555
C7R C6R 1_555 1_555
C7FA C6FA 1_555 1_555
C7QA C6QA 1_555 1_555
H7O C7O 1_555 1_555
H7Y C7Y 1_555 1_555
H7LA C7LA 1_555 1_555
H7F C7F 1_555 1_555
H7T C7T 1_555 1_555
H7EA C7EA 1_555 1_555
H7SA C7SA 1_555 1_555
H7I C7I 1_555 1_555
H7R C7R 1_555 1_555
H7FA C7FA 1_555 1_555
H7QA C7QA 1_555 1_555
C8O C3O 1_555 1_555
C8Y C3Y 1_555 1_555
C8LA C3LA 1_555 1_555
C8F C3F 1_555 1_555
C8T C3T 1_555 1_555
C8EA C3EA 1_555 1_555
C8SA C3SA 1_555 1_555
C8I C3I 1_555 1_555
C8R C3R 1_555 1_555
C8FA C3FA 1_555 1_555
C8QA C3QA 1_555 1_555
C9O N1O 1_555 1_555
C9Y N1Y 1_555 1_555
C9LA N1LA 1_555 1_555
C9F N1F 1_555 1_555
C9T N1T 1_555 1_555
C9EA N1EA 1_555 1_555
C9SA N1SA 1_555 1_555
C9I N1I 1_555 1_555
C9R N1R 1_555 1_555
C9FA N1FA 1_555 1_555
C9QA N1QA 1_555 1_555
C10O N1O 1_555 1_555
C10Y N1Y 1_555 1_555
C10LA N1LA 1_555 1_555
C10F N1F 1_555 1_555
C10T N1T 1_555 1_555
C10EA N1EA 1_555 1_555
C10SA N1SA 1_555 1_555
C10I N1I 1_555 1_555
C10R N1R 1_555 1_555
C10FA N1FA 1_555 1_555
C10QA N1QA 1_555 1_555
H8O C10O 1_555 1_555
H8Y C10Y 1_555 1_555
H8LA C10LA 1_555 1_555
H8F C10F 1_555 1_555
H8T C10T 1_555 1_555
H8EA C10EA 1_555 1_555
H8SA C10SA 1_555 1_555
H8I C10I 1_555 1_555
H8R C10R 1_555 1_555
H8FA C10FA 1_555 1_555
H8QA C10QA 1_555 1_555
H9O C10O 1_555 1_555
H9Y C10Y 1_555 1_555
H9LA C10LA 1_555 1_555
H9F C10F 1_555 1_555
H9T C10T 1_555 1_555
H9EA C10EA 1_555 1_555
H9SA C10SA 1_555 1_555
H9I C10I 1_555 1_555
H9R C10R 1_555 1_555
H9FA C10FA 1_555 1_555
H9QA C10QA 1_555 1_555
C11O C10O 1_555 1_555
C11Y C10Y 1_555 1_555
C11LA C10LA 1_555 1_555
C11F C10F 1_555 1_555
C11T C10T 1_555 1_555
C11EA C10EA 1_555 1_555
C11SA C10SA 1_555 1_555
C11I C10I 1_555 1_555
C11R C10R 1_555 1_555
C11FA C10FA 1_555 1_555
C11QA C10QA 1_555 1_555
C12O C11O 1_555 1_555
C12Y C11Y 1_555 1_555
C12LA C11LA 1_555 1_555
C12F C11F 1_555 1_555
C12T C11T 1_555 1_555
C12EA C11EA 1_555 1_555
C12SA C11SA 1_555 1_555
C12I C11I 1_555 1_555
C12R C11R 1_555 1_555
C12FA C11FA 1_555 1_555
C12QA C11QA 1_555 1_555
H10O C12O 1_555 1_555
H10Y C12Y 1_555 1_555
H10LA C12LA 1_555 1_555
H10F C12F 1_555 1_555
H10T C12T 1_555 1_555
H10EA C12EA 1_555 1_555
H10SA C12SA 1_555 1_555
H10I C12I 1_555 1_555
H10R C12R 1_555 1_555
H10FA C12FA 1_555 1_555
H10QA C12QA 1_555 1_555
C13O C12O 1_555 1_555
C13Y C12Y 1_555 1_555
C13LA C12LA 1_555 1_555
C13F C12F 1_555 1_555
C13T C12T 1_555 1_555
C13EA C12EA 1_555 1_555
C13SA C12SA 1_555 1_555
C13I C12I 1_555 1_555
C13R C12R 1_555 1_555
C13FA C12FA 1_555 1_555
C13QA C12QA 1_555 1_555
H11O C13O 1_555 1_555
H11Y C13Y 1_555 1_555
H11LA C13LA 1_555 1_555
H11F C13F 1_555 1_555
H11T C13T 1_555 1_555
H11EA C13EA 1_555 1_555
H11SA C13SA 1_555 1_555
H11I C13I 1_555 1_555
H11R C13R 1_555 1_555
H11FA C13FA 1_555 1_555
H11QA C13QA 1_555 1_555
C14O O2O 1_555 1_555
C14Y O2Y 1_555 1_555
C14LA O2LA 1_555 1_555
C14F O2F 1_555 1_555
C14T O2T 1_555 1_555
C14EA O2EA 1_555 1_555
C14SA O2SA 1_555 1_555
C14I O2I 1_555 1_555
C14R O2R 1_555 1_555
C14FA O2FA 1_555 1_555
C14QA O2QA 1_555 1_555
H12O C14O 1_555 1_555
H12Y C14Y 1_555 1_555
H12LA C14LA 1_555 1_555
H12F C14F 1_555 1_555
H12T C14T 1_555 1_555
H12EA C14EA 1_555 1_555
H12SA C14SA 1_555 1_555
H12I C14I 1_555 1_555
H12R C14R 1_555 1_555
H12FA C14FA 1_555 1_555
H12QA C14QA 1_555 1_555
N2 O5 1_555 1_555
C7 C8 1_555 1_555
C8 C9 1_555 1_555
C13 C14 1_555 1_555
N2F O5F 1_555 1_555
N2I O5I 1_555 1_555
N2O O5O 1_555 1_555
N2S O5S 1_555 1_555
N2W O5W 1_555 1_555
N2Y O5Y 1_555 1_555
N2BA O5BA 1_555 1_555
N2HA O5HA 1_555 1_555
N2LA O5LA 1_555 1_555
N2OA O5OA 1_555 1_555
N2RA O5RA 1_555 1_555
O1F C9F 1_555 1_555
O1I C9I 1_555 1_555
C7O C8O 1_555 1_555
C7Y C8Y 1_555 1_555
C7LA C8LA 1_555 1_555
C7F C8F 1_555 1_555
C7T C8T 1_555 1_555
C7EA C8EA 1_555 1_555
C7SA C8SA 1_555 1_555
C7I C8I 1_555 1_555
C7R C8R 1_555 1_555
C7FA C8FA 1_555 1_555
C7QA C8QA 1_555 1_555
C8O C9O 1_555 1_555
C8Y C9Y 1_555 1_555
C8LA C9LA 1_555 1_555
C8F C9F 1_555 1_555
C8T C9T 1_555 1_555
C8EA C9EA 1_555 1_555
C8SA C9SA 1_555 1_555
C8I C9I 1_555 1_555
C8R C9R 1_555 1_555
C8FA C9FA 1_555 1_555
C8QA C9QA 1_555 1_555
C13O C14O 1_555 1_555
C13Y C14Y 1_555 1_555
C13LA C14LA 1_555 1_555
C13F C14F 1_555 1_555
C13T C14T 1_555 1_555
C13EA C14EA 1_555 1_555
C13SA C14SA 1_555 1_555
C13I C14I 1_555 1_555
C13R C14R 1_555 1_555
C13FA C14FA 1_555 1_555
C13QA C14QA 1_555 1_555

#END
