
#######################################################################
#
#                 Cambridge Crystallographic Data Centre
#                                CCDC 
#
#######################################################################
#
# If this CIF has been generated from an entry in the Cambridge 
# Structural Database, then it will include bibliographic, chemical, 
# crystal, experimental, refinement or atomic coordinate data resulting 
# from the CCDC's data processing and validation procedures.
#
#######################################################################

data_GUSMAJ
_symmetry_cell_setting           cubic
_symmetry_space_group_name_H-M   'I -4 3 d'
_symmetry_Int_Tables_number      220
_space_group_name_Hall           'I -4bd 2c 3'
loop_
_symmetry_equiv_pos_site_id
_symmetry_equiv_pos_as_xyz
1 x,y,z
2 1/2-x,-y,1/2+z
3 -x,1/2+y,1/2-z
4 1/2+x,1/2-y,-z
5 z,x,y
6 1/2+z,1/2-x,-y
7 1/2-z,-x,1/2+y
8 -z,1/2+x,1/2-y
9 y,z,x
10 -y,1/2+z,1/2-x
11 1/2+y,1/2-z,-x
12 1/2-y,-z,1/2+x
13 1/4+y,1/4+x,1/4+z
14 1/4-y,3/4-x,3/4+z
15 3/4+y,1/4-x,3/4-z
16 3/4-y,3/4+x,1/4-z
17 1/4+x,1/4+z,1/4+y
18 3/4-x,3/4+z,1/4-y
19 1/4-x,3/4-z,3/4+y
20 3/4+x,1/4-z,3/4-y
21 1/4+z,1/4+y,1/4+x
22 3/4+z,1/4-y,3/4-x
23 3/4-z,3/4+y,1/4-x
24 1/4-z,3/4-y,3/4+x
25 1/2+x,1/2+y,1/2+z
26 -x,1/2-y,z
27 1/2-x,y,-z
28 x,-y,1/2-z
29 1/2+z,1/2+x,1/2+y
30 z,-x,1/2-y
31 -z,1/2-x,y
32 1/2-z,x,-y
33 1/2+y,1/2+z,1/2+x
34 1/2-y,z,-x
35 y,-z,1/2-x
36 -y,1/2-z,x
37 3/4+y,3/4+x,3/4+z
38 3/4-y,1/4-x,1/4+z
39 1/4+y,3/4-x,1/4-z
40 1/4-y,1/4+x,3/4-z
41 3/4+x,3/4+z,3/4+y
42 1/4-x,1/4+z,3/4-y
43 3/4-x,1/4-z,1/4+y
44 1/4+x,3/4-z,1/4-y
45 3/4+z,3/4+y,3/4+x
46 1/4+z,3/4-y,1/4-x
47 1/4-z,1/4+y,3/4-x
48 3/4-z,1/4-y,1/4+x
_cell_length_a                   27.520(3)
_cell_length_b                   27.520(3)
_cell_length_c                   27.520(3)
_cell_angle_alpha                90
_cell_angle_beta                 90
_cell_angle_gamma                90
_cell_volume                     20842.3
loop_
_atom_site_label
_atom_site_type_symbol
_atom_site_fract_x
_atom_site_fract_y
_atom_site_fract_z
Eu1 Eu 0.47617(3) 0.52383(3) 0.02383(3)
N1 N 0.5187(7) 0.3683(6) 0.0170(9)
H1 H 0.5178 0.3370 0.0170
N2 N 0.4892(8) 0.5251(8) 0.1275(5)
O1 O 0.4789(5) 0.4383(3) 0.0163(5)
O2 O 0.6392(9) 0.3441(9) 0.0152(9)
O3 O 0.4619(5) 0.3016(5) 0.0661(5)
O4 O 0.4920(6) 0.4860(6) 0.1053(4)
O5 O 0.4869(8) 0.5635(6) 0.1040(5)
O6 O 0.4950(9) 0.5257(7) 0.1732(4)
C1 C 0.5000 0.2500 0.1250
C2 C 0.4535(6) 0.2560(7) 0.0922(6)
H3 H 0.4504 0.2290 0.0698
H4 H 0.4244 0.2579 0.1119
C3 C 0.4234(7) 0.3184(6) 0.0388(7)
C4 C 0.3785(8) 0.2960(8) 0.0395(10)
H5 H 0.3728 0.2683 0.0579
C5 C 0.3410(7) 0.3176(9) 0.0103(10)
H6 H 0.3112 0.3021 0.0070
C6 C 0.3487(8) 0.3586(10) -0.0115(10)
H7 H 0.3250 0.3721 -0.0314
C7 C 0.3920(10) 0.3818(9) -0.0047(10)
H8 H 0.3953 0.4121 -0.0192
C8 C 0.4305(9) 0.3657(7) 0.0206(8)
C9 C 0.4793(9) 0.3938(6) 0.0192(7)
C10 C 0.5660(11) 0.3956(14) 0.0147(15)
H9 H 0.5758 0.4004 -0.0189
H10 H 0.5629 0.4271 0.0301
C11 C 0.5991(10) 0.3680(13) 0.0383(11)
C12 C 0.6027(10) 0.3588(13) 0.0891(10)
H11 H 0.5802 0.3683 0.1125
C13 C 0.6464(11) 0.3326(14) 0.0984(10)
H12 H 0.6588 0.3243 0.1287
C14 C 0.6678(9) 0.3214(12) 0.0519(12)
H13 H 0.6955 0.3027 0.0468
Eu1O Eu 0.22617(3) 0.22617(3) 0.22617(3)
Eu1Y Eu 0.52383(3) -0.02383(3) 0.02383(3)
Eu1LA Eu 0.77383(3) 0.27383(3) 0.22617(3)
Eu1N Eu 0.27383(3) 0.77383(3) -0.27383(3)
Eu1AA Eu 0.47617(3) 0.47617(3) -0.52383(3)
Eu1JA Eu 0.27383(3) 0.22617(3) -0.22617(3)
Eu1L Eu 0.77383(3) 0.72617(3) 0.27383(3)
Eu1Z Eu 1.02383(3) 0.52383(3) -0.02383(3)
Eu1MA Eu 0.72617(3) 0.72617(3) -0.27383(3)
N1O N 0.3817(6) 0.2687(7) 0.2330(9)
N1Y N 0.4813(7) 0.1317(6) 0.0170(9)
N1LA N 0.6183(6) 0.2313(7) 0.2330(9)
N1F N 0.4830(9) 0.4813(7) -0.1317(6)
N1T N 0.2670(9) 0.6183(6) -0.2313(7)
N1EA N 0.4830(9) 0.5187(7) -0.3683(6)
N1SA N 0.2670(9) 0.3817(6) -0.2687(7)
N1I N 0.6317(6) 0.5170(9) -0.0187(7)
N1R N 0.7313(7) 0.7330(9) 0.1183(6)
N1FA N 0.8683(6) 0.5170(9) 0.0187(7)
N1QA N 0.7687(7) 0.7330(9) -0.1183(6)
H1O H 0.4130 0.2678 0.2330
H1Y H 0.4822 0.1630 0.0170
H1LA H 0.5870 0.2322 0.2330
H1F H 0.4830 0.4822 -0.1630
H1T H 0.2670 0.5870 -0.2322
H1EA H 0.4830 0.5178 -0.3370
H1SA H 0.2670 0.4130 -0.2678
H1I H 0.6630 0.5170 -0.0178
H1R H 0.7322 0.7330 0.0870
H1FA H 0.8370 0.5170 0.0178
H1QA H 0.7678 0.7330 -0.0870
N2F N 0.3725(5) 0.5108(8) 0.0251(8)
N2I N 0.4749(8) 0.6275(5) 0.0108(8)
N2O N 0.2249(8) 0.2392(8) 0.1225(5)
N2S N 0.2392(8) 0.1225(5) 0.2249(8)
N2W N 0.1225(5) 0.2249(8) 0.2392(8)
N2Y N 0.5108(8) -0.0251(8) 0.1275(5)
N2BA N 0.6275(5) -0.0108(8) 0.0251(8)
N2HA N 0.5251(8) -0.1275(5) 0.0108(8)
N2LA N 0.7751(8) 0.2608(8) 0.1225(5)
N2OA N 0.7608(8) 0.3775(5) 0.2249(8)
N2RA N 0.8775(5) 0.2751(8) 0.2392(8)
O1O O 0.3117(3) 0.2289(5) 0.2337(5)
O1Y O 0.5211(5) 0.0617(3) 0.0163(5)
O1LA O 0.6883(3) 0.2711(5) 0.2337(5)
O1F O 0.4837(5) 0.5211(5) -0.0617(3)
O1T O 0.2663(5) 0.6883(3) -0.2711(5)
O1EA O 0.4837(5) 0.4789(5) -0.4383(3)
O1SA O 0.2663(5) 0.3117(3) -0.2289(5)
O1I O 0.5617(3) 0.5163(5) 0.0211(5)
O1R O 0.7711(5) 0.7337(5) 0.1883(3)
O1FA O 0.9383(3) 0.5163(5) -0.0211(5)
O1QA O 0.7289(5) 0.7337(5) -0.1883(3)
O1S O 0.2289(5) 0.2337(5) 0.3117(3)
O1W O 0.2337(5) 0.3117(3) 0.2289(5)
O1BA O 0.5163(5) -0.0211(5) -0.0617(3)
O1HA O 0.4383(3) -0.0163(5) 0.0211(5)
O1OA O 0.7711(5) 0.2663(5) 0.3117(3)
O1RA O 0.7663(5) 0.1883(3) 0.2289(5)
O2O O 0.4059(9) 0.3892(9) 0.2348(9)
O2Y O 0.3608(9) 0.1559(9) 0.0152(9)
O2LA O 0.5941(9) 0.1108(9) 0.2348(9)
O2F O 0.4848(9) 0.3608(9) -0.1559(9)
O2T O 0.2652(9) 0.5941(9) -0.1108(9)
O2EA O 0.4848(9) 0.6392(9) -0.3441(9)
O2SA O 0.2652(9) 0.4059(9) -0.3892(9)
O2I O 0.6559(9) 0.5152(9) -0.1392(9)
O2R O 0.6108(9) 0.7348(9) 0.0941(9)
O2FA O 0.8441(9) 0.5152(9) 0.1392(9)
O2QA O 0.8892(9) 0.7348(9) -0.0941(9)
O3O O 0.4484(5) 0.2119(5) 0.1839(5)
O3Y O 0.5381(5) 0.1984(5) 0.0661(5)
O3LA O 0.5516(5) 0.2881(5) 0.1839(5)
O3F O 0.4339(5) 0.5381(5) -0.1984(5)
O3T O 0.3161(5) 0.5516(5) -0.2881(5)
O3EA O 0.4339(5) 0.4619(5) -0.3016(5)
O3SA O 0.3161(5) 0.4484(5) -0.2119(5)
O3I O 0.6984(5) 0.5661(5) 0.0381(5)
O3R O 0.7881(5) 0.6839(5) 0.0516(5)
O3FA O 0.8016(5) 0.5661(5) -0.0381(5)
O3QA O 0.7119(5) 0.6839(5) -0.0516(5)
O4F O 0.3947(4) 0.5080(6) -0.0140(6)
O4I O 0.5140(6) 0.6053(4) 0.0080(6)
O4O O 0.2640(6) 0.2420(6) 0.1447(4)
O4S O 0.2420(6) 0.1447(4) 0.2640(6)
O4W O 0.1447(4) 0.2640(6) 0.2420(6)
O4Y O 0.5080(6) 0.0140(6) 0.1053(4)
O4BA O 0.6053(4) -0.0080(6) -0.0140(6)
O4HA O 0.4860(6) -0.1053(4) 0.0080(6)
O4LA O 0.7360(6) 0.2580(6) 0.1447(4)
O4OA O 0.7580(6) 0.3553(4) 0.2640(6)
O4RA O 0.8553(4) 0.2360(6) 0.2420(6)
O5F O 0.3960(5) 0.5131(8) 0.0635(6)
O5I O 0.4365(6) 0.6040(5) 0.0131(8)
O5O O 0.1865(6) 0.2369(8) 0.1460(5)
O5S O 0.2369(8) 0.1460(5) 0.1865(6)
O5W O 0.1460(5) 0.1865(6) 0.2369(8)
O5Y O 0.5131(8) -0.0635(6) 0.1040(5)
O5BA O 0.6040(5) -0.0131(8) 0.0635(6)
O5HA O 0.5635(6) -0.1040(5) 0.0131(8)
O5LA O 0.8135(6) 0.2631(8) 0.1460(5)
O5OA O 0.7631(8) 0.3540(5) 0.1865(6)
O5RA O 0.8540(5) 0.3135(6) 0.2369(8)
O6F O 0.3268(4) 0.5050(9) 0.0257(7)
O6I O 0.4743(7) 0.6732(4) 0.0050(9)
O6O O 0.2243(7) 0.2450(9) 0.0768(4)
O6S O 0.2450(9) 0.0768(4) 0.2243(7)
O6W O 0.0768(4) 0.2243(7) 0.2450(9)
O6Y O 0.5050(9) -0.0257(7) 0.1732(4)
O6BA O 0.6732(4) -0.0050(9) 0.0257(7)
O6HA O 0.5257(7) -0.1732(4) 0.0050(9)
O6LA O 0.7757(7) 0.2550(9) 0.0768(4)
O6OA O 0.7550(9) 0.4232(4) 0.2243(7)
O6RA O 0.9232(4) 0.2757(7) 0.2450(9)
C1F C 0.3750 0.5000 -0.2500
C1I C 0.7500 0.6250 0.0000
C2O C 0.4940(7) 0.2035(6) 0.1578(6)
C2Y C 0.5465(6) 0.2440(7) 0.0922(6)
C2LA C 0.5060(7) 0.2965(6) 0.1578(6)
C2F C 0.4078(6) 0.5465(6) -0.2440(7)
C2T C 0.3422(6) 0.5060(7) -0.2965(6)
C2EA C 0.4078(6) 0.4535(6) -0.2560(7)
C2SA C 0.3422(6) 0.4940(7) -0.2035(6)
C2I C 0.7440(7) 0.5922(6) 0.0465(6)
C2R C 0.7965(6) 0.6578(6) 0.0060(7)
C2FA C 0.7560(7) 0.5922(6) -0.0465(6)
C2QA C 0.7035(6) 0.6578(6) -0.0060(7)
H3O H 0.5210 0.2004 0.1802
H3Y H 0.5496 0.2710 0.0698
H3LA H 0.4790 0.2996 0.1802
H3F H 0.4302 0.5496 -0.2710
H3T H 0.3198 0.4790 -0.2996
H3EA H 0.4302 0.4504 -0.2290
H3SA H 0.3198 0.5210 -0.2004
H3I H 0.7710 0.5698 0.0496
H3R H 0.7996 0.6802 -0.0210
H3FA H 0.7290 0.5698 -0.0496
H3QA H 0.7004 0.6802 0.0210
H4O H 0.4921 0.1744 0.1381
H4Y H 0.5756 0.2421 0.1119
H4LA H 0.5079 0.3256 0.1381
H4F H 0.3881 0.5756 -0.2421
H4T H 0.3619 0.5079 -0.3256
H4EA H 0.3881 0.4244 -0.2579
H4SA H 0.3619 0.4921 -0.1744
H4I H 0.7421 0.6119 0.0756
H4R H 0.8256 0.6381 0.0079
H4FA H 0.7579 0.6119 -0.0756
H4QA H 0.6744 0.6381 -0.0079
C3O C 0.4316(6) 0.1734(7) 0.2112(7)
C3Y C 0.5766(7) 0.1816(6) 0.0388(7)
C3LA C 0.5684(6) 0.3266(7) 0.2112(7)
C3F C 0.4612(7) 0.5766(7) -0.1816(6)
C3T C 0.2888(7) 0.5684(6) -0.3266(7)
C3EA C 0.4612(7) 0.4234(7) -0.3184(6)
C3SA C 0.2888(7) 0.4316(6) -0.1734(7)
C3I C 0.6816(6) 0.5388(7) 0.0766(7)
C3R C 0.8266(7) 0.7112(7) 0.0684(6)
C3FA C 0.8184(6) 0.5388(7) -0.0766(7)
C3QA C 0.6734(7) 0.7112(7) -0.0684(6)
C4O C 0.4540(8) 0.1285(8) 0.2105(10)
C4Y C 0.6215(8) 0.2040(8) 0.0395(10)
C4LA C 0.5460(8) 0.3715(8) 0.2105(10)
C4F C 0.4605(10) 0.6215(8) -0.2040(8)
C4T C 0.2895(10) 0.5460(8) -0.3715(8)
C4EA C 0.4605(10) 0.3785(8) -0.2960(8)
C4SA C 0.2895(10) 0.4540(8) -0.1285(8)
C4I C 0.7040(8) 0.5395(10) 0.1215(8)
C4R C 0.8715(8) 0.7105(10) 0.0460(8)
C4FA C 0.7960(8) 0.5395(10) -0.1215(8)
C4QA C 0.6285(8) 0.7105(10) -0.0460(8)
H5O H 0.4817 0.1228 0.1921
H5Y H 0.6272 0.2317 0.0579
H5LA H 0.5183 0.3772 0.1921
H5F H 0.4421 0.6272 -0.2317
H5T H 0.3079 0.5183 -0.3772
H5EA H 0.4421 0.3728 -0.2683
H5SA H 0.3079 0.4817 -0.1228
H5I H 0.7317 0.5579 0.1272
H5R H 0.8772 0.6921 0.0183
H5FA H 0.7683 0.5579 -0.1272
H5QA H 0.6228 0.6921 -0.0183
C5O C 0.4324(9) 0.0910(7) 0.2397(10)
C5Y C 0.6590(7) 0.1824(9) 0.0103(10)
C5LA C 0.5676(9) 0.4090(7) 0.2397(10)
C5F C 0.4897(10) 0.6590(7) -0.1824(9)
C5T C 0.2603(10) 0.5676(9) -0.4090(7)
C5EA C 0.4897(10) 0.3410(7) -0.3176(9)
C5SA C 0.2603(10) 0.4324(9) -0.0910(7)
C5I C 0.6824(9) 0.5103(10) 0.1590(7)
C5R C 0.9090(7) 0.7397(10) 0.0676(9)
C5FA C 0.8176(9) 0.5103(10) -0.1590(7)
C5QA C 0.5910(7) 0.7397(10) -0.0676(9)
H6O H 0.4479 0.0612 0.2430
H6Y H 0.6888 0.1979 0.0070
H6LA H 0.5521 0.4388 0.2430
H6F H 0.4930 0.6888 -0.1979
H6T H 0.2570 0.5521 -0.4388
H6EA H 0.4930 0.3112 -0.3021
H6SA H 0.2570 0.4479 -0.0612
H6I H 0.6979 0.5070 0.1888
H6R H 0.9388 0.7430 0.0521
H6FA H 0.8021 0.5070 -0.1888
H6QA H 0.5612 0.7430 -0.0521
C6O C 0.3914(10) 0.0987(8) 0.2615(10)
C6Y C 0.6513(8) 0.1414(10) -0.0115(10)
C6LA C 0.6086(10) 0.4013(8) 0.2615(10)
C6F C 0.5115(10) 0.6513(8) -0.1414(10)
C6T C 0.2385(10) 0.6086(10) -0.4013(8)
C6EA C 0.5115(10) 0.3487(8) -0.3586(10)
C6SA C 0.2385(10) 0.3914(10) -0.0987(8)
C6I C 0.6414(10) 0.4885(10) 0.1513(8)
C6R C 0.9013(8) 0.7615(10) 0.1086(10)
C6FA C 0.8586(10) 0.4885(10) -0.1513(8)
C6QA C 0.5987(8) 0.7615(10) -0.1086(10)
H7O H 0.3779 0.0750 0.2814
H7Y H 0.6750 0.1279 -0.0314
H7LA H 0.6221 0.4250 0.2814
H7F H 0.5314 0.6750 -0.1279
H7T H 0.2186 0.6221 -0.4250
H7EA H 0.5314 0.3250 -0.3721
H7SA H 0.2186 0.3779 -0.0750
H7I H 0.6279 0.4686 0.1750
H7R H 0.9250 0.7814 0.1221
H7FA H 0.8721 0.4686 -0.1750
H7QA H 0.5750 0.7814 -0.1221
C7O C 0.3682(9) 0.1420(10) 0.2547(10)
C7Y C 0.6080(10) 0.1182(9) -0.0047(10)
C7LA C 0.6318(9) 0.3580(10) 0.2547(10)
C7F C 0.5047(10) 0.6080(10) -0.1182(9)
C7T C 0.2453(10) 0.6318(9) -0.3580(10)
C7EA C 0.5047(10) 0.3920(10) -0.3818(9)
C7SA C 0.2453(10) 0.3682(9) -0.1420(10)
C7I C 0.6182(9) 0.4953(10) 0.1080(10)
C7R C 0.8580(10) 0.7547(10) 0.1318(9)
C7FA C 0.8818(9) 0.4953(10) -0.1080(10)
C7QA C 0.6420(10) 0.7547(10) -0.1318(9)
H8O H 0.3379 0.1453 0.2692
H8Y H 0.6047 0.0879 -0.0192
H8LA H 0.6621 0.3547 0.2692
H8F H 0.5192 0.6047 -0.0879
H8T H 0.2308 0.6621 -0.3547
H8EA H 0.5192 0.3953 -0.4121
H8SA H 0.2308 0.3379 -0.1453
H8I H 0.5879 0.4808 0.1047
H8R H 0.8547 0.7692 0.1621
H8FA H 0.9121 0.4808 -0.1047
H8QA H 0.6453 0.7692 -0.1621
C8O C 0.3843(7) 0.1805(9) 0.2294(8)
C8Y C 0.5695(9) 0.1343(7) 0.0206(8)
C8LA C 0.6157(7) 0.3195(9) 0.2294(8)
C8F C 0.4794(8) 0.5695(9) -0.1343(7)
C8T C 0.2706(8) 0.6157(7) -0.3195(9)
C8EA C 0.4794(8) 0.4305(9) -0.3657(7)
C8SA C 0.2706(8) 0.3843(7) -0.1805(9)
C8I C 0.6343(7) 0.5206(8) 0.0695(9)
C8R C 0.8195(9) 0.7294(8) 0.1157(7)
C8FA C 0.8657(7) 0.5206(8) -0.0695(9)
C8QA C 0.6805(9) 0.7294(8) -0.1157(7)
C9O C 0.3562(6) 0.2293(9) 0.2308(7)
C9Y C 0.5207(9) 0.1062(6) 0.0192(7)
C9LA C 0.6438(6) 0.2707(9) 0.2308(7)
C9F C 0.4808(7) 0.5207(9) -0.1062(6)
C9T C 0.2692(7) 0.6438(6) -0.2707(9)
C9EA C 0.4808(7) 0.4793(9) -0.3938(6)
C9SA C 0.2692(7) 0.3562(6) -0.2293(9)
C9I C 0.6062(6) 0.5192(7) 0.0207(9)
C9R C 0.7707(9) 0.7308(7) 0.1438(6)
C9FA C 0.8938(6) 0.5192(7) -0.0207(9)
C9QA C 0.7293(9) 0.7308(7) -0.1438(6)
C10O C 0.3544(14) 0.3160(11) 0.2353(15)
C10Y C 0.4340(11) 0.1044(14) 0.0147(15)
C10LA C 0.6456(14) 0.1840(11) 0.2353(15)
C10F C 0.4853(15) 0.4340(11) -0.1044(14)
C10T C 0.2647(15) 0.6456(14) -0.1840(11)
C10EA C 0.4853(15) 0.5660(11) -0.3956(14)
C10SA C 0.2647(15) 0.3544(14) -0.3160(11)
C10I C 0.6044(14) 0.5147(15) -0.0660(11)
C10R C 0.6840(11) 0.7353(15) 0.1456(14)
C10FA C 0.8956(14) 0.5147(15) 0.0660(11)
C10QA C 0.8160(11) 0.7353(15) -0.1456(14)
H9O H 0.3496 0.3258 0.2689
H9Y H 0.4242 0.0996 -0.0189
H9LA H 0.6504 0.1742 0.2689
H9F H 0.5189 0.4242 -0.0996
H9T H 0.2311 0.6504 -0.1742
H9EA H 0.5189 0.5758 -0.4004
H9SA H 0.2311 0.3496 -0.3258
H9I H 0.5996 0.4811 -0.0758
H9R H 0.6742 0.7689 0.1504
H9FA H 0.9004 0.4811 0.0758
H9QA H 0.8258 0.7689 -0.1504
H10O H 0.3229 0.3129 0.2199
H10Y H 0.4371 0.0729 0.0301
H10LA H 0.6771 0.1871 0.2199
H10F H 0.4699 0.4371 -0.0729
H10T H 0.2801 0.6771 -0.1871
H10EA H 0.4699 0.5629 -0.4271
H10SA H 0.2801 0.3229 -0.3129
H10I H 0.5729 0.5301 -0.0629
H10R H 0.6871 0.7199 0.1771
H10FA H 0.9271 0.5301 0.0629
H10QA H 0.8129 0.7199 -0.1771
C11O C 0.3820(13) 0.3491(10) 0.2117(11)
C11Y C 0.4009(10) 0.1320(13) 0.0383(11)
C11LA C 0.6180(13) 0.1509(10) 0.2117(11)
C11F C 0.4617(11) 0.4009(10) -0.1320(13)
C11T C 0.2883(11) 0.6180(13) -0.1509(10)
C11EA C 0.4617(11) 0.5991(10) -0.3680(13)
C11SA C 0.2883(11) 0.3820(13) -0.3491(10)
C11I C 0.6320(13) 0.5383(11) -0.0991(10)
C11R C 0.6509(10) 0.7117(11) 0.1180(13)
C11FA C 0.8680(13) 0.5383(11) 0.0991(10)
C11QA C 0.8491(10) 0.7117(11) -0.1180(13)
C12O C 0.3912(13) 0.3527(10) 0.1609(10)
C12Y C 0.3973(10) 0.1412(13) 0.0891(10)
C12LA C 0.6088(13) 0.1473(10) 0.1609(10)
C12F C 0.4109(10) 0.3973(10) -0.1412(13)
C12T C 0.3391(10) 0.6088(13) -0.1473(10)
C12EA C 0.4109(10) 0.6027(10) -0.3588(13)
C12SA C 0.3391(10) 0.3912(13) -0.3527(10)
C12I C 0.6412(13) 0.5891(10) -0.1027(10)
C12R C 0.6473(10) 0.6609(10) 0.1088(13)
C12FA C 0.8588(13) 0.5891(10) 0.1027(10)
C12QA C 0.8527(10) 0.6609(10) -0.1088(13)
H11O H 0.3817 0.3302 0.1375
H11Y H 0.4198 0.1317 0.1125
H11LA H 0.6183 0.1698 0.1375
H11F H 0.3875 0.4198 -0.1317
H11T H 0.3625 0.6183 -0.1698
H11EA H 0.3875 0.5802 -0.3683
H11SA H 0.3625 0.3817 -0.3302
H11I H 0.6317 0.6125 -0.0802
H11R H 0.6698 0.6375 0.1183
H11FA H 0.8683 0.6125 0.0802
H11QA H 0.8302 0.6375 -0.1183
C13O C 0.4174(14) 0.3964(11) 0.1516(10)
C13Y C 0.3536(11) 0.1674(14) 0.0984(10)
C13LA C 0.5826(14) 0.1036(11) 0.1516(10)
C13F C 0.4016(10) 0.3536(11) -0.1674(14)
C13T C 0.3484(10) 0.5826(14) -0.1036(11)
C13EA C 0.4016(10) 0.6464(11) -0.3326(14)
C13SA C 0.3484(10) 0.4174(14) -0.3964(11)
C13I C 0.6674(14) 0.5984(10) -0.1464(11)
C13R C 0.6036(11) 0.6516(10) 0.0826(14)
C13FA C 0.8326(14) 0.5984(10) 0.1464(11)
C13QA C 0.8964(11) 0.6516(10) -0.0826(14)
H12O H 0.4257 0.4088 0.1213
H12Y H 0.3412 0.1757 0.1287
H12LA H 0.5743 0.0912 0.1213
H12F H 0.3713 0.3412 -0.1757
H12T H 0.3787 0.5743 -0.0912
H12EA H 0.3713 0.6588 -0.3243
H12SA H 0.3787 0.4257 -0.4088
H12I H 0.6757 0.6287 -0.1588
H12R H 0.5912 0.6213 0.0743
H12FA H 0.8243 0.6287 0.1588
H12QA H 0.9088 0.6213 -0.0743
C14O C 0.4286(12) 0.4178(9) 0.1981(12)
C14Y C 0.3322(9) 0.1786(12) 0.0519(12)
C14LA C 0.5714(12) 0.0822(9) 0.1981(12)
C14F C 0.4481(12) 0.3322(9) -0.1786(12)
C14T C 0.3019(12) 0.5714(12) -0.0822(9)
C14EA C 0.4481(12) 0.6678(9) -0.3214(12)
C14SA C 0.3019(12) 0.4286(12) -0.4178(9)
C14I C 0.6786(12) 0.5519(12) -0.1678(9)
C14R C 0.5822(9) 0.6981(12) 0.0714(12)
C14FA C 0.8214(12) 0.5519(12) 0.1678(9)
C14QA C 0.9178(9) 0.6981(12) -0.0714(12)
H13O H 0.4473 0.4455 0.2032
H13Y H 0.3045 0.1973 0.0468
H13LA H 0.5527 0.0545 0.2032
H13F H 0.4532 0.3045 -0.1973
H13T H 0.2968 0.5527 -0.0545
H13EA H 0.4532 0.6955 -0.3027
H13SA H 0.2968 0.4473 -0.4455
H13I H 0.6973 0.5468 -0.1955
H13R H 0.5545 0.7032 0.0527
H13FA H 0.8027 0.5468 0.1955
H13QA H 0.9455 0.7032 -0.0527
O7 O 0.7500 0.4151(14) 0.0000
H2 H 0.7541 0.4338 0.0242
H2Z H 0.7459 0.4338 -0.0242
loop_
_geom_bond_atom_site_label_1
_geom_bond_atom_site_label_2
_geom_bond_site_symmetry_1
_geom_bond_site_symmetry_2
Eu1 O1 1_555 1_555
N1 H1 1_555 1_555
N2 O4 1_555 1_555
O1 C9 1_555 1_555
O2 C11 1_555 1_555
O3 C2 1_555 1_555
O4 Eu1 1_555 1_555
O5 Eu1 1_555 1_555
O6 N2 1_555 1_555
O7 H2 1_555 1_555
C1 C2 1_555 1_555
C2 H3 1_555 1_555
H4 C2 1_555 1_555
C3 O3 1_555 1_555
C4 C3 1_555 1_555
H5 C4 1_555 1_555
C5 C4 1_555 1_555
H6 C5 1_555 1_555
C6 C5 1_555 1_555
H7 C6 1_555 1_555
C7 C6 1_555 1_555
H8 C7 1_555 1_555
C8 C3 1_555 1_555
C9 N1 1_555 1_555
C10 N1 1_555 1_555
H9 C10 1_555 1_555
H10 C10 1_555 1_555
C11 C10 1_555 1_555
C12 C11 1_555 1_555
H11 C12 1_555 1_555
C13 C12 1_555 1_555
H12 C13 1_555 1_555
C14 O2 1_555 1_555
H13 C14 1_555 1_555
Eu1O O1O 1_555 1_555
Eu1Y O1Y 1_555 1_555
Eu1LA O1LA 1_555 1_555
Eu1N O1T 1_555 1_555
Eu1AA O1EA 1_555 1_555
Eu1JA O1SA 1_555 1_555
Eu1L O1R 1_555 1_555
Eu1Z O1FA 1_555 1_555
Eu1MA O1QA 1_555 1_555
N1O H1O 1_555 1_555
N1Y H1Y 1_555 1_555
N1LA H1LA 1_555 1_555
N1F H1F 1_555 1_555
N1T H1T 1_555 1_555
N1EA H1EA 1_555 1_555
N1SA H1SA 1_555 1_555
N1I H1I 1_555 1_555
N1R H1R 1_555 1_555
N1FA H1FA 1_555 1_555
N1QA H1QA 1_555 1_555
N2F O4F 1_555 1_555
N2I O4I 1_555 1_555
N2O O4O 1_555 1_555
N2S O4S 1_555 1_555
N2W O4W 1_555 1_555
N2Y O4Y 1_555 1_555
N2BA O4BA 1_555 1_555
N2HA O4HA 1_555 1_555
N2LA O4LA 1_555 1_555
N2OA O4OA 1_555 1_555
N2RA O4RA 1_555 1_555
O1O C9O 1_555 1_555
O1Y C9Y 1_555 1_555
O1LA C9LA 1_555 1_555
O1F Eu1 1_555 1_555
O1T C9T 1_555 1_555
O1EA C9EA 1_555 1_555
O1SA C9SA 1_555 1_555
O1I Eu1 1_555 1_555
O1R C9R 1_555 1_555
O1FA C9FA 1_555 1_555
O1QA C9QA 1_555 1_555
O1S Eu1O 1_555 1_555
O1W Eu1O 1_555 1_555
O1BA Eu1Y 1_555 1_555
O1HA Eu1Y 1_555 1_555
O1OA Eu1LA 1_555 1_555
O1RA Eu1LA 1_555 1_555
O2O C11O 1_555 1_555
O2Y C11Y 1_555 1_555
O2LA C11LA 1_555 1_555
O2F C11F 1_555 1_555
O2T C11T 1_555 1_555
O2EA C11EA 1_555 1_555
O2SA C11SA 1_555 1_555
O2I C11I 1_555 1_555
O2R C11R 1_555 1_555
O2FA C11FA 1_555 1_555
O2QA C11QA 1_555 1_555
O3O C2O 1_555 1_555
O3Y C2Y 1_555 1_555
O3LA C2LA 1_555 1_555
O3F C2F 1_555 1_555
O3T C2T 1_555 1_555
O3EA C2EA 1_555 1_555
O3SA C2SA 1_555 1_555
O3I C2I 1_555 1_555
O3R C2R 1_555 1_555
O3FA C2FA 1_555 1_555
O3QA C2QA 1_555 1_555
O4F Eu1 1_555 1_555
O4I Eu1 1_555 1_555
O4O Eu1O 1_555 1_555
O4S Eu1O 1_555 1_555
O4W Eu1O 1_555 1_555
O4Y Eu1Y 1_555 1_555
O4BA Eu1Y 1_555 1_555
O4HA Eu1Y 1_555 1_555
O4LA Eu1LA 1_555 1_555
O4OA Eu1LA 1_555 1_555
O4RA Eu1LA 1_555 1_555
O5F Eu1 1_555 1_555
O5I Eu1 1_555 1_555
O5O Eu1O 1_555 1_555
O5S Eu1O 1_555 1_555
O5W Eu1O 1_555 1_555
O5Y Eu1Y 1_555 1_555
O5BA Eu1Y 1_555 1_555
O5HA Eu1Y 1_555 1_555
O5LA Eu1LA 1_555 1_555
O5OA Eu1LA 1_555 1_555
O5RA Eu1LA 1_555 1_555
O6F N2F 1_555 1_555
O6I N2I 1_555 1_555
O6O N2O 1_555 1_555
O6S N2S 1_555 1_555
O6W N2W 1_555 1_555
O6Y N2Y 1_555 1_555
O6BA N2BA 1_555 1_555
O6HA N2HA 1_555 1_555
O6LA N2LA 1_555 1_555
O6OA N2OA 1_555 1_555
O6RA N2RA 1_555 1_555
H2Z O7 1_555 1_555
C1F C2F 1_555 1_555
C1I C2I 1_555 1_555
C2O C1 1_555 1_555
C2Y C1 1_555 1_555
C2LA C1 1_555 1_555
C2F H3F 1_555 1_555
C2T C1F 1_555 1_555
C2EA C1F 1_555 1_555
C2SA C1F 1_555 1_555
C2I H3I 1_555 1_555
C2R C1I 1_555 1_555
C2FA C1I 1_555 1_555
C2QA C1I 1_555 1_555
H3O C2O 1_555 1_555
H3Y C2Y 1_555 1_555
H3LA C2LA 1_555 1_555
H3T C2T 1_555 1_555
H3EA C2EA 1_555 1_555
H3SA C2SA 1_555 1_555
H3R C2R 1_555 1_555
H3FA C2FA 1_555 1_555
H3QA C2QA 1_555 1_555
H4O C2O 1_555 1_555
H4Y C2Y 1_555 1_555
H4LA C2LA 1_555 1_555
H4F C2F 1_555 1_555
H4T C2T 1_555 1_555
H4EA C2EA 1_555 1_555
H4SA C2SA 1_555 1_555
H4I C2I 1_555 1_555
H4R C2R 1_555 1_555
H4FA C2FA 1_555 1_555
H4QA C2QA 1_555 1_555
C3O O3O 1_555 1_555
C3Y O3Y 1_555 1_555
C3LA O3LA 1_555 1_555
C3F O3F 1_555 1_555
C3T O3T 1_555 1_555
C3EA O3EA 1_555 1_555
C3SA O3SA 1_555 1_555
C3I O3I 1_555 1_555
C3R O3R 1_555 1_555
C3FA O3FA 1_555 1_555
C3QA O3QA 1_555 1_555
C4O C3O 1_555 1_555
C4Y C3Y 1_555 1_555
C4LA C3LA 1_555 1_555
C4F C3F 1_555 1_555
C4T C3T 1_555 1_555
C4EA C3EA 1_555 1_555
C4SA C3SA 1_555 1_555
C4I C3I 1_555 1_555
C4R C3R 1_555 1_555
C4FA C3FA 1_555 1_555
C4QA C3QA 1_555 1_555
H5O C4O 1_555 1_555
H5Y C4Y 1_555 1_555
H5LA C4LA 1_555 1_555
H5F C4F 1_555 1_555
H5T C4T 1_555 1_555
H5EA C4EA 1_555 1_555
H5SA C4SA 1_555 1_555
H5I C4I 1_555 1_555
H5R C4R 1_555 1_555
H5FA C4FA 1_555 1_555
H5QA C4QA 1_555 1_555
C5O C4O 1_555 1_555
C5Y C4Y 1_555 1_555
C5LA C4LA 1_555 1_555
C5F C4F 1_555 1_555
C5T C4T 1_555 1_555
C5EA C4EA 1_555 1_555
C5SA C4SA 1_555 1_555
C5I C4I 1_555 1_555
C5R C4R 1_555 1_555
C5FA C4FA 1_555 1_555
C5QA C4QA 1_555 1_555
H6O C5O 1_555 1_555
H6Y C5Y 1_555 1_555
H6LA C5LA 1_555 1_555
H6F C5F 1_555 1_555
H6T C5T 1_555 1_555
H6EA C5EA 1_555 1_555
H6SA C5SA 1_555 1_555
H6I C5I 1_555 1_555
H6R C5R 1_555 1_555
H6FA C5FA 1_555 1_555
H6QA C5QA 1_555 1_555
C6O C5O 1_555 1_555
C6Y C5Y 1_555 1_555
C6LA C5LA 1_555 1_555
C6F C5F 1_555 1_555
C6T C5T 1_555 1_555
C6EA C5EA 1_555 1_555
C6SA C5SA 1_555 1_555
C6I C5I 1_555 1_555
C6R C5R 1_555 1_555
C6FA C5FA 1_555 1_555
C6QA C5QA 1_555 1_555
H7O C6O 1_555 1_555
H7Y C6Y 1_555 1_555
H7LA C6LA 1_555 1_555
H7F C6F 1_555 1_555
H7T C6T 1_555 1_555
H7EA C6EA 1_555 1_555
H7SA C6SA 1_555 1_555
H7I C6I 1_555 1_555
H7R C6R 1_555 1_555
H7FA C6FA 1_555 1_555
H7QA C6QA 1_555 1_555
C7O C6O 1_555 1_555
C7Y C6Y 1_555 1_555
C7LA C6LA 1_555 1_555
C7F C6F 1_555 1_555
C7T C6T 1_555 1_555
C7EA C6EA 1_555 1_555
C7SA C6SA 1_555 1_555
C7I C6I 1_555 1_555
C7R C6R 1_555 1_555
C7FA C6FA 1_555 1_555
C7QA C6QA 1_555 1_555
H8O C7O 1_555 1_555
H8Y C7Y 1_555 1_555
H8LA C7LA 1_555 1_555
H8F C7F 1_555 1_555
H8T C7T 1_555 1_555
H8EA C7EA 1_555 1_555
H8SA C7SA 1_555 1_555
H8I C7I 1_555 1_555
H8R C7R 1_555 1_555
H8FA C7FA 1_555 1_555
H8QA C7QA 1_555 1_555
C8O C3O 1_555 1_555
C8Y C3Y 1_555 1_555
C8LA C3LA 1_555 1_555
C8F C3F 1_555 1_555
C8T C3T 1_555 1_555
C8EA C3EA 1_555 1_555
C8SA C3SA 1_555 1_555
C8I C3I 1_555 1_555
C8R C3R 1_555 1_555
C8FA C3FA 1_555 1_555
C8QA C3QA 1_555 1_555
C9O N1O 1_555 1_555
C9Y N1Y 1_555 1_555
C9LA N1LA 1_555 1_555
C9F N1F 1_555 1_555
C9T N1T 1_555 1_555
C9EA N1EA 1_555 1_555
C9SA N1SA 1_555 1_555
C9I N1I 1_555 1_555
C9R N1R 1_555 1_555
C9FA N1FA 1_555 1_555
C9QA N1QA 1_555 1_555
C10O N1O 1_555 1_555
C10Y N1Y 1_555 1_555
C10LA N1LA 1_555 1_555
C10F N1F 1_555 1_555
C10T N1T 1_555 1_555
C10EA N1EA 1_555 1_555
C10SA N1SA 1_555 1_555
C10I N1I 1_555 1_555
C10R N1R 1_555 1_555
C10FA N1FA 1_555 1_555
C10QA N1QA 1_555 1_555
H9O C10O 1_555 1_555
H9Y C10Y 1_555 1_555
H9LA C10LA 1_555 1_555
H9F C10F 1_555 1_555
H9T C10T 1_555 1_555
H9EA C10EA 1_555 1_555
H9SA C10SA 1_555 1_555
H9I C10I 1_555 1_555
H9R C10R 1_555 1_555
H9FA C10FA 1_555 1_555
H9QA C10QA 1_555 1_555
H10O C10O 1_555 1_555
H10Y C10Y 1_555 1_555
H10LA C10LA 1_555 1_555
H10F C10F 1_555 1_555
H10T C10T 1_555 1_555
H10EA C10EA 1_555 1_555
H10SA C10SA 1_555 1_555
H10I C10I 1_555 1_555
H10R C10R 1_555 1_555
H10FA C10FA 1_555 1_555
H10QA C10QA 1_555 1_555
C11O C10O 1_555 1_555
C11Y C10Y 1_555 1_555
C11LA C10LA 1_555 1_555
C11F C10F 1_555 1_555
C11T C10T 1_555 1_555
C11EA C10EA 1_555 1_555
C11SA C10SA 1_555 1_555
C11I C10I 1_555 1_555
C11R C10R 1_555 1_555
C11FA C10FA 1_555 1_555
C11QA C10QA 1_555 1_555
C12O C11O 1_555 1_555
C12Y C11Y 1_555 1_555
C12LA C11LA 1_555 1_555
C12F C11F 1_555 1_555
C12T C11T 1_555 1_555
C12EA C11EA 1_555 1_555
C12SA C11SA 1_555 1_555
C12I C11I 1_555 1_555
C12R C11R 1_555 1_555
C12FA C11FA 1_555 1_555
C12QA C11QA 1_555 1_555
H11O C12O 1_555 1_555
H11Y C12Y 1_555 1_555
H11LA C12LA 1_555 1_555
H11F C12F 1_555 1_555
H11T C12T 1_555 1_555
H11EA C12EA 1_555 1_555
H11SA C12SA 1_555 1_555
H11I C12I 1_555 1_555
H11R C12R 1_555 1_555
H11FA C12FA 1_555 1_555
H11QA C12QA 1_555 1_555
C13O C12O 1_555 1_555
C13Y C12Y 1_555 1_555
C13LA C12LA 1_555 1_555
C13F C12F 1_555 1_555
C13T C12T 1_555 1_555
C13EA C12EA 1_555 1_555
C13SA C12SA 1_555 1_555
C13I C12I 1_555 1_555
C13R C12R 1_555 1_555
C13FA C12FA 1_555 1_555
C13QA C12QA 1_555 1_555
H12O C13O 1_555 1_555
H12Y C13Y 1_555 1_555
H12LA C13LA 1_555 1_555
H12F C13F 1_555 1_555
H12T C13T 1_555 1_555
H12EA C13EA 1_555 1_555
H12SA C13SA 1_555 1_555
H12I C13I 1_555 1_555
H12R C13R 1_555 1_555
H12FA C13FA 1_555 1_555
H12QA C13QA 1_555 1_555
C14O O2O 1_555 1_555
C14Y O2Y 1_555 1_555
C14LA O2LA 1_555 1_555
C14F O2F 1_555 1_555
C14T O2T 1_555 1_555
C14EA O2EA 1_555 1_555
C14SA O2SA 1_555 1_555
C14I O2I 1_555 1_555
C14R O2R 1_555 1_555
C14FA O2FA 1_555 1_555
C14QA O2QA 1_555 1_555
H13O C14O 1_555 1_555
H13Y C14Y 1_555 1_555
H13LA C14LA 1_555 1_555
H13F C14F 1_555 1_555
H13T C14T 1_555 1_555
H13EA C14EA 1_555 1_555
H13SA C14SA 1_555 1_555
H13I C14I 1_555 1_555
H13R C14R 1_555 1_555
H13FA C14FA 1_555 1_555
H13QA C14QA 1_555 1_555
N2 O5 1_555 1_555
C7 C8 1_555 1_555
C8 C9 1_555 1_555
C13 C14 1_555 1_555
N2F O5F 1_555 1_555
N2I O5I 1_555 1_555
N2O O5O 1_555 1_555
N2S O5S 1_555 1_555
N2W O5W 1_555 1_555
N2Y O5Y 1_555 1_555
N2BA O5BA 1_555 1_555
N2HA O5HA 1_555 1_555
N2LA O5LA 1_555 1_555
N2OA O5OA 1_555 1_555
N2RA O5RA 1_555 1_555
O1F C9F 1_555 1_555
O1I C9I 1_555 1_555
C7O C8O 1_555 1_555
C7Y C8Y 1_555 1_555
C7LA C8LA 1_555 1_555
C7F C8F 1_555 1_555
C7T C8T 1_555 1_555
C7EA C8EA 1_555 1_555
C7SA C8SA 1_555 1_555
C7I C8I 1_555 1_555
C7R C8R 1_555 1_555
C7FA C8FA 1_555 1_555
C7QA C8QA 1_555 1_555
C8O C9O 1_555 1_555
C8Y C9Y 1_555 1_555
C8LA C9LA 1_555 1_555
C8F C9F 1_555 1_555
C8T C9T 1_555 1_555
C8EA C9EA 1_555 1_555
C8SA C9SA 1_555 1_555
C8I C9I 1_555 1_555
C8R C9R 1_555 1_555
C8FA C9FA 1_555 1_555
C8QA C9QA 1_555 1_555
C13O C14O 1_555 1_555
C13Y C14Y 1_555 1_555
C13LA C14LA 1_555 1_555
C13F C14F 1_555 1_555
C13T C14T 1_555 1_555
C13EA C14EA 1_555 1_555
C13SA C14SA 1_555 1_555
C13I C14I 1_555 1_555
C13R C14R 1_555 1_555
C13FA C14FA 1_555 1_555
C13QA C14QA 1_555 1_555

#END
