
#######################################################################
#
#                 Cambridge Crystallographic Data Centre
#                                CCDC 
#
#######################################################################
#
# If this CIF has been generated from an entry in the Cambridge 
# Structural Database, then it will include bibliographic, chemical, 
# crystal, experimental, refinement or atomic coordinate data resulting 
# from the CCDC's data processing and validation procedures.
#
#######################################################################

data_GUSMUD
_symmetry_cell_setting           monoclinic
_symmetry_space_group_name_H-M   'P c'
_symmetry_Int_Tables_number      7
_space_group_name_Hall           'P -2yc'
loop_
_symmetry_equiv_pos_site_id
_symmetry_equiv_pos_as_xyz
1 x,y,z
2 x,-y,1/2+z
_cell_length_a                   6.7997(1)
_cell_length_b                   13.8178(1)
_cell_length_c                   7.2664(1)
_cell_angle_alpha                90
_cell_angle_beta                 90.46(1)
_cell_angle_gamma                90
_cell_volume                     682.706
loop_
_atom_site_label
_atom_site_type_symbol
_atom_site_fract_x
_atom_site_fract_y
_atom_site_fract_z
Ni1 Ni 0.677(1) 0.251(2) -0.152(1)
Zn1 Zn 0.159(2) 0.246(1) 0.333(2)
C1 C 0.468(3) 0.242(4) 0.026(2)
N1 N 0.344(3) 0.236(4) 0.131(2)
C2 C 0.491(2) 0.223(3) -0.345(3)
N2 N 0.381(4) 0.206(3) -0.461(3)
C3 C 0.869(1) 0.275(2) 0.041(2)
N3 N 0.982(3) 0.288(4) 0.154(3)
C4 C 0.867(4) 0.262(3) -0.346(4)
N4 N 0.979(4) 0.269(5) -0.461(3)
N5 N 0.313(5) 0.596(3) -0.121(2)
N6 N 0.481(3) 0.426(4) -0.087(2)
C5 C 0.183(2) 0.523(2) -0.086(3)
C6 C 0.522(4) 0.593(3) -0.106(2)
C7 C 0.287(4) 0.433(5) -0.119(3)
C8 C 0.593(2) 0.493(4) -0.077(4)
N7 N 1.019(2) -0.096(3) -0.125(3)
N8 N 0.852(3) 0.074(3) -0.087(3)
C9 C 1.149(2) -0.023(3) -0.086(2)
C10 C 0.811(4) -0.093(4) -0.110(2)
C11 C 1.045(5) 0.067(3) -0.119(4)
C12 C 0.739(6) 0.001(1) -0.077(3)
Zn1_2 Zn 0.159(2) 0.246(1) -0.667(2)
Zn1_3 Zn 1.159(2) 0.246(1) 0.333(2)
Zn1_4 Zn 1.159(2) 0.246(1) -0.667(2)
Zn1A Zn 0.159(2) 0.754(1) -0.167(2)
Zn1A_2 Zn 1.159(2) -0.246(1) -0.167(2)
N2_2 N 0.381(4) 0.206(3) 0.539(3)
N3_2 N -0.018(3) 0.288(4) 0.154(3)
N4_2 N -0.021(4) 0.269(5) 0.539(3)
N5A N 0.313(5) 0.404(3) 0.379(2)
N7A N 0.019(2) 0.096(3) 0.375(3)
loop_
_geom_bond_atom_site_label_1
_geom_bond_atom_site_label_2
_geom_bond_site_symmetry_1
_geom_bond_site_symmetry_2
Ni1 C1 1_555 1_555
Zn1 N1 1_555 1_555
C1 N1 1_555 1_555
C2 Ni1 1_555 1_555
N2 C2 1_555 1_555
C3 Ni1 1_555 1_555
N3 C3 1_555 1_555
C4 Ni1 1_555 1_555
N4 C4 1_555 1_555
N5 C5 1_555 1_555
N6 Ni1 1_555 1_555
C5 C7 1_555 1_555
C6 N5 1_555 1_555
C7 N6 1_555 1_555
C8 N6 1_555 1_555
N7 C9 1_555 1_555
N8 Ni1 1_555 1_555
C9 C11 1_555 1_555
C10 N7 1_555 1_555
C11 N8 1_555 1_555
C12 N8 1_555 1_555
Zn1_2 N2 1_555 1_555
Zn1_3 N3 1_555 1_555
Zn1_4 N4 1_555 1_555
Zn1A N5 1_555 1_555
Zn1A_2 N7 1_555 1_555
N2_2 Zn1 1_555 1_555
N3_2 Zn1 1_555 1_555
N4_2 Zn1 1_555 1_555
N5A Zn1 1_555 1_555
N7A Zn1 1_555 1_555
C6 C8 1_555 1_555
C10 C12 1_555 1_555

#END
