
#######################################################################
#
#                 Cambridge Crystallographic Data Centre
#                                CCDC 
#
#######################################################################
#
# If this CIF has been generated from an entry in the Cambridge 
# Structural Database, then it will include bibliographic, chemical, 
# crystal, experimental, refinement or atomic coordinate data resulting 
# from the CCDC's data processing and validation procedures.
#
#######################################################################

data_GUSNUE01
_symmetry_cell_setting           orthorhombic
_symmetry_space_group_name_H-M   'P n c 2'
_symmetry_Int_Tables_number      30
_space_group_name_Hall           'P 2 -2bc'
loop_
_symmetry_equiv_pos_site_id
_symmetry_equiv_pos_as_xyz
1 x,y,z
2 -x,1/2+y,1/2+z
3 x,1/2-y,1/2+z
4 -x,-y,z
_cell_length_a                   6.8021(3)
_cell_length_b                   13.9547(4)
_cell_length_c                   7.2832(2)
_cell_angle_alpha                90
_cell_angle_beta                 90
_cell_angle_gamma                90
_cell_volume                     691.331
loop_
_atom_site_label
_atom_site_type_symbol
_atom_site_fract_x
_atom_site_fract_y
_atom_site_fract_z
Ni1 Ni 0.50000 0.00000 0.891(3)
Co1 Co 1.00000 0.00000 0.379(2)
C1 C 0.673(2) 0.039(3) 0.706(2)
N1 N 0.782(6) 0.057(3) 0.602(4)
C2 C 0.318(3) -0.030(3) 1.058(2)
N2 N 0.205(4) -0.042(4) 1.168(3)
N3 N 0.860(3) -0.344(2) 0.878(4)
C3 C 0.986(4) -0.278(6) 0.907(4)
C4 C 0.636(2) -0.341(1) 0.902(4)
C5 C 0.879(3) -0.189(4) 0.885(3)
N4 N 0.676(2) -0.185(3) 0.925(3)
C6 C 0.568(4) -0.246(2) 0.932(4)
Co1_2 Co 0.00000 0.00000 1.379(2)
Co1A Co 1.00000 -0.50000 0.879(2)
Co1_3 Co 0.00000 0.00000 0.379(2)
Co1_4 Co 1.00000 0.00000 1.379(2)
Co1A_2 Co 0.00000 0.50000 0.879(2)
C1C C 0.327(2) -0.039(3) 0.706(2)
N1C N 0.218(6) -0.057(3) 0.602(4)
N1C_2 N 1.218(6) -0.057(3) 0.602(4)
C2C C 0.682(3) 0.030(3) 1.058(2)
N2C N 0.795(4) 0.042(4) 1.168(3)
N2_2 N 1.205(4) -0.042(4) 0.168(3)
N2C_2 N 0.795(4) 0.042(4) 0.168(3)
N3C N 0.140(3) 0.344(2) 0.878(4)
N3A N 1.140(3) 0.156(2) 0.378(4)
N3B N 0.860(3) -0.156(2) 0.378(4)
C3C C 0.014(4) 0.278(6) 0.907(4)
C4C C 0.364(2) 0.341(1) 0.902(4)
C5C C 0.121(3) 0.189(4) 0.885(3)
N4C N 0.324(2) 0.185(3) 0.925(3)
C6C C 0.432(4) 0.246(2) 0.932(4)
loop_
_geom_bond_atom_site_label_1
_geom_bond_atom_site_label_2
_geom_bond_site_symmetry_1
_geom_bond_site_symmetry_2
Ni1 C1 1_555 1_555
Co1 N1 1_555 1_555
C1 N1 1_555 1_555
C2 Ni1 1_555 1_555
N2 C2 1_555 1_555
N3 C3 1_555 1_555
C3 C5 1_555 1_555
C4 N3 1_555 1_555
C5 N4 1_555 1_555
N4 Ni1 1_555 1_555
C6 C4 1_555 1_555
Co1_2 N2 1_555 1_555
Co1A N3 1_555 1_555
Co1_3 N1C 1_555 1_555
Co1_4 N2C 1_555 1_555
Co1A_2 N3C 1_555 1_555
C1C Ni1 1_555 1_555
N1C C1C 1_555 1_555
N1C_2 Co1 1_555 1_555
C2C Ni1 1_555 1_555
N2C C2C 1_555 1_555
N2_2 Co1 1_555 1_555
N2C_2 Co1 1_555 1_555
N3C C3C 1_555 1_555
N3A Co1 1_555 1_555
N3B Co1 1_555 1_555
C3C C5C 1_555 1_555
C4C N3C 1_555 1_555
C5C N4C 1_555 1_555
N4C Ni1 1_555 1_555
C6C C4C 1_555 1_555
N4 C6 1_555 1_555
N4C C6C 1_555 1_555

#END
