
#######################################################################
#
#                 Cambridge Crystallographic Data Centre
#                                CCDC 
#
#######################################################################
#
# If this CIF has been generated from an entry in the Cambridge 
# Structural Database, then it will include bibliographic, chemical, 
# crystal, experimental, refinement or atomic coordinate data resulting 
# from the CCDC's data processing and validation procedures.
#
#######################################################################

data_GUSNOY
_symmetry_cell_setting           tetragonal
_symmetry_space_group_name_H-M   'P 4/m'
_symmetry_Int_Tables_number      83
_space_group_name_Hall           '-P 4'
loop_
_symmetry_equiv_pos_site_id
_symmetry_equiv_pos_as_xyz
1 x,y,z
2 -y,x,z
3 y,-x,z
4 -x,-y,z
5 -x,-y,-z
6 y,-x,-z
7 -y,x,-z
8 x,y,-z
_cell_length_a                   10.149(5)
_cell_length_b                   10.149(5)
_cell_length_c                   7.028(5)
_cell_angle_alpha                90
_cell_angle_beta                 90
_cell_angle_gamma                90
_cell_volume                     723.899
loop_
_atom_site_label
_atom_site_type_symbol
_atom_site_fract_x
_atom_site_fract_y
_atom_site_fract_z
Ni1 Ni 0.50000 0.50000 0.00000
Ni2 Ni 1.00000 0.00000 0.00000
Ni3 Ni 0.50000 0.00000 0.00000
C1 C 0.50000 0.307(2) 0.00000
N1 N 0.50000 0.191(3) 0.00000
C2 C 0.80500 0.000(6) 0.00000
N2 N 0.68900 0.000(3) 0.00000
N3 N 0.50000 0.00000 0.294(4)
C3 C 0.488(1) 0.133(3) 0.405(4)
Ni2_2 Ni 0.00000 0.00000 0.00000
Ni2_3 Ni 1.00000 1.00000 0.00000
Ni3A Ni 1.00000 0.50000 0.00000
Ni3_2 Ni 0.50000 0.00000 1.00000
Ni3A_2 Ni 0.00000 0.50000 0.00000
Ni3_3 Ni 0.50000 1.00000 0.00000
Ni3_4 Ni 0.50000 0.00000 -1.00000
C1A C 0.693(2) 0.50000 0.00000
C1B C 0.307(2) 0.50000 0.00000
C1D C 0.50000 0.693(2) 0.00000
N1A N 0.809(3) 0.50000 0.00000
N1B N 0.191(3) 0.50000 0.00000
N1D N 0.50000 0.809(3) 0.00000
N1D_2 N 0.50000 -0.191(3) 0.00000
N1B_2 N 1.191(3) 0.50000 0.00000
C2D C 0.19500 0.000(6) 0.00000
C2A C 1.000(6) 0.80500 0.00000
C2B C 1.000(6) 0.19500 0.00000
C2A_2 C 1.000(6) -0.19500 0.00000
C2D_2 C 1.19500 0.000(6) 0.00000
N2D N 0.31100 0.000(3) 0.00000
N2A N 1.000(3) 0.68900 0.00000
N2B N 1.000(3) 0.31100 0.00000
N3G N 0.50000 0.00000 0.706(4)
N3G_2 N 0.50000 0.00000 -0.294(4)
N3_2 N 0.50000 0.00000 -0.706(4)
N3A N 1.00000 0.50000 0.294(4)
N3E N 1.00000 0.50000 -0.294(4)
C3G C 0.488(1) 0.133(3) 0.595(4)
C3D C 0.512(1) -0.133(3) 0.595(4)
C3C C 0.512(1) -0.133(3) 0.405(4)
C3G_2 C 0.488(1) 0.133(3) -0.405(4)
C3_2 C 0.488(1) 0.133(3) -0.595(4)
C3C_2 C 0.512(1) -0.133(3) -0.595(4)
C3D_2 C 0.512(1) -0.133(3) -0.405(4)
loop_
_geom_bond_atom_site_label_1
_geom_bond_atom_site_label_2
_geom_bond_site_symmetry_1
_geom_bond_site_symmetry_2
Ni1 C1 1_555 1_555
Ni2 C2 1_555 1_555
Ni3 N1 1_555 1_555
C1 N1 1_555 1_555
C2 N2 1_555 1_555
N2 Ni3 1_555 1_555
N3 Ni3 1_555 1_555
C3 N3 1_555 1_555
Ni2_2 C2D 1_555 1_555
Ni2_3 C2A 1_555 1_555
Ni3A N1A 1_555 1_555
Ni3_2 N3G 1_555 1_555
Ni3A_2 N1B 1_555 1_555
Ni3_3 N1D 1_555 1_555
Ni3_4 N3_2 1_555 1_555
C1A Ni1 1_555 1_555
C1B Ni1 1_555 1_555
C1D Ni1 1_555 1_555
N1A C1A 1_555 1_555
N1B C1B 1_555 1_555
N1D C1D 1_555 1_555
N1D_2 Ni3 1_555 1_555
N1B_2 Ni3A 1_555 1_555
C2D N2D 1_555 1_555
C2A N2A 1_555 1_555
C2B Ni2 1_555 1_555
C2A_2 Ni2 1_555 1_555
C2D_2 Ni2 1_555 1_555
N2D Ni3 1_555 1_555
N2A Ni3A 1_555 1_555
N2B Ni3A 1_555 1_555
N3G C3G 1_555 1_555
N3G_2 Ni3 1_555 1_555
N3_2 C3_2 1_555 1_555
N3A Ni3A 1_555 1_555
N3E Ni3A 1_555 1_555
C3G C3 1_555 1_555
C3D N3G 1_555 1_555
C3C N3 1_555 1_555
C3G_2 N3G_2 1_555 1_555
C3_2 C3G_2 1_555 1_555
C3C_2 N3_2 1_555 1_555
C3D_2 N3G_2 1_555 1_555
C2B N2B 1_555 1_555
C3D C3C 1_555 1_555
C3C_2 C3D_2 1_555 1_555

#END
