
#######################################################################
#
#                 Cambridge Crystallographic Data Centre
#                                CCDC 
#
#######################################################################
#
# If this CIF has been generated from an entry in the Cambridge 
# Structural Database, then it will include bibliographic, chemical, 
# crystal, experimental, refinement or atomic coordinate data resulting 
# from the CCDC's data processing and validation procedures.
#
#######################################################################

data_GUSNAK
_symmetry_cell_setting           monoclinic
_symmetry_space_group_name_H-M   'P c'
_symmetry_Int_Tables_number      7
_space_group_name_Hall           'P -2yc'
loop_
_symmetry_equiv_pos_site_id
_symmetry_equiv_pos_as_xyz
1 x,y,z
2 x,-y,1/2+z
_cell_length_a                   6.7694(3)
_cell_length_b                   13.8198(4)
_cell_length_c                   7.2447(2)
_cell_angle_alpha                90
_cell_angle_beta                 90.3(1)
_cell_angle_gamma                90
_cell_volume                     677.745
loop_
_atom_site_label
_atom_site_type_symbol
_atom_site_fract_x
_atom_site_fract_y
_atom_site_fract_z
Ni1 Ni 0.666(1) 0.253(1) 0.887(2)
Mn1 Mn 0.166(1) 0.241(2) 1.389(1)
C1 C 0.484(3) 0.223(3) 1.069(4)
N1 N 0.358(2) 0.216(4) 1.175(4)
C2 C 0.501(3) 0.210(3) 0.702(4)
N2 N 0.373(2) 0.193(3) 0.602(3)
C3 C 0.849(4) 0.277(2) 1.069(3)
N3 N 0.975(4) 0.284(3) 1.175(2)
C4 C 0.832(3) 0.290(4) 0.702(3)
N4 N 0.960(4) 0.307(3) 0.602(2)
N5 N 0.318(5) 0.600(3) 0.880(2)
N6 N 0.483(5) 0.429(3) 0.915(3)
C5 C 0.186(4) 0.514(3) 0.912(3)
C6 C 0.520(3) 0.594(3) 0.894(3)
C7 C 0.283(4) 0.438(5) 0.885(4)
C8 C 0.586(2) 0.504(5) 0.929(4)
N7 N 1.014(2) -0.100(5) 0.880(5)
N8 N 0.850(4) 0.071(3) 0.915(3)
C9 C 1.146(4) -0.014(3) 0.912(3)
C10 C 0.813(3) -0.094(3) 0.894(2)
C11 C 1.049(3) 0.062(4) 0.885(5)
C12 C 0.747(2) -0.004(4) 0.929(4)
Mn1_2 Mn 0.166(1) 0.241(2) 0.389(1)
Mn1_3 Mn 1.166(1) 0.241(2) 1.389(1)
Mn1_4 Mn 1.166(1) 0.241(2) 0.389(1)
Mn1A Mn 0.166(1) 0.759(2) 0.889(1)
Mn1A_2 Mn 1.166(1) -0.241(2) 0.889(1)
N2_2 N 0.373(2) 0.193(3) 1.602(3)
N3_2 N -0.025(4) 0.284(3) 1.175(2)
N4_2 N -0.040(4) 0.307(3) 1.602(2)
N5A N 0.318(5) 0.400(3) 1.380(2)
N7A N 0.014(2) 0.100(5) 1.380(5)
loop_
_geom_bond_atom_site_label_1
_geom_bond_atom_site_label_2
_geom_bond_site_symmetry_1
_geom_bond_site_symmetry_2
Ni1 C1 1_555 1_555
Mn1 N1 1_555 1_555
C1 N1 1_555 1_555
C2 Ni1 1_555 1_555
N2 C2 1_555 1_555
C3 Ni1 1_555 1_555
N3 C3 1_555 1_555
C4 Ni1 1_555 1_555
N4 C4 1_555 1_555
N5 C5 1_555 1_555
N6 Ni1 1_555 1_555
C5 C7 1_555 1_555
C6 N5 1_555 1_555
C7 N6 1_555 1_555
C8 N6 1_555 1_555
N7 C9 1_555 1_555
N8 Ni1 1_555 1_555
C9 C11 1_555 1_555
C10 N7 1_555 1_555
C11 N8 1_555 1_555
C12 N8 1_555 1_555
Mn1_2 N2 1_555 1_555
Mn1_3 N3 1_555 1_555
Mn1_4 N4 1_555 1_555
Mn1A N5 1_555 1_555
Mn1A_2 N7 1_555 1_555
N2_2 Mn1 1_555 1_555
N3_2 Mn1 1_555 1_555
N4_2 Mn1 1_555 1_555
N5A Mn1 1_555 1_555
N7A Mn1 1_555 1_555
C6 C8 1_555 1_555
C10 C12 1_555 1_555

#END
