
#######################################################################
#
#                 Cambridge Crystallographic Data Centre
#                                CCDC 
#
#######################################################################
#
# If this CIF has been generated from an entry in the Cambridge 
# Structural Database, then it will include bibliographic, chemical, 
# crystal, experimental, refinement or atomic coordinate data resulting 
# from the CCDC's data processing and validation procedures.
#
#######################################################################

data_GUSPUG
_symmetry_cell_setting           hexagonal
_symmetry_space_group_name_H-M   'P 6/m c c'
_symmetry_Int_Tables_number      192
_space_group_name_Hall           "-P 6 2'c"
loop_
_symmetry_equiv_pos_site_id
_symmetry_equiv_pos_as_xyz
1 x,y,z
2 -y,x-y,z
3 -x+y,-x,z
4 -x,-y,z
5 y,-x+y,z
6 x-y,x,z
7 y,x,1/2-z
8 x-y,-y,1/2-z
9 -x,-x+y,1/2-z
10 -y,-x,1/2-z
11 -x+y,y,1/2-z
12 x,x-y,1/2-z
13 -x,-y,-z
14 y,-x+y,-z
15 x-y,x,-z
16 x,y,-z
17 -y,x-y,-z
18 -x+y,-x,-z
19 -y,-x,1/2+z
20 -x+y,y,1/2+z
21 x,x-y,1/2+z
22 y,x,1/2+z
23 x-y,-y,1/2+z
24 -x,-x+y,1/2+z
_cell_length_a                   25.645(9)
_cell_length_b                   25.645(9)
_cell_length_c                   17.105(11)
_cell_angle_alpha                90
_cell_angle_beta                 90
_cell_angle_gamma                120
_cell_volume                     9742.25
loop_
_atom_site_label
_atom_site_type_symbol
_atom_site_fract_x
_atom_site_fract_y
_atom_site_fract_z
Cu1 Cu 0.76474(8) 0.57884(8) 0.0000
Cu2 Cu 0.66304(8) 0.61026(8) 0.0000
Cu3 Cu 0.64715(6) 0.49757(6) -0.09080(8)
Cl1 Cl 0.76964(18) 0.67490(18) 0.0000
Cl2 Cl 0.74787(12) 0.52810(13) -0.12703(17)
Cl3 Cl 0.60671(14) 0.56407(14) 0.11501(18)
Cl4 Cl 0.60120(18) 0.41462(17) 0.0000
O1 O 0.6809(4) 0.5460(4) 0.0000
N1 N 0.8531(5) 0.6090(5) 0.0000
N2 N 0.9672(5) 0.6419(5) 0.0000
N3 N 0.6083(4) 0.4498(4) -0.1873(5)
C1 C 0.8838(5) 0.6467(5) 0.0691(7)
C2 C 0.9502(5) 0.6646(5) 0.0694(7)
C3 C 0.8620(7) 0.5572(7) 0.0000
C4 C 0.9264(7) 0.5748(7) 0.0000
C5 C 0.6227(5) 0.4014(5) -0.2082(7)
C6 C 0.5415(4) 0.4200(5) -0.1761(7)
C7 C 0.6261(5) 0.4908(5) -0.2570(7)
H1 H 0.8647 0.6244 0.1164
H2 H 0.8802 0.6826 0.0682
H3 H 0.9746 0.7082 0.0709
H4 H 0.9588 0.6489 0.1162
H5 H 0.8428 0.5328 -0.0458
H6 H 0.8428 0.5328 0.0458
H7 H 0.9348 0.5579 -0.0458
H8 H 0.6041 0.3687 -0.1707
H9 H 0.6659 0.4175 -0.2065
H10 H 0.5291 0.4501 -0.1765
H11 H 0.5304 0.3995 -0.1260
H12 H 0.6661 0.5009 -0.2743
H13 H 0.6267 0.5277 -0.2431
Cu2E Cu 1.05278(11) 0.66304(8) 0.0000
Cu3O Cu 0.64715(6) 0.49757(6) 0.09080(8)
Cu3I Cu 0.50243(6) 0.35285(6) -0.40920(8)
Cl2O Cl 0.74787(12) 0.52810(13) 0.12703(17)
Cl3O Cl 0.60671(14) 0.56407(14) -0.11501(18)
N2D N 0.6419(5) 0.6747(7) 0.0000
N3I N 0.5502(4) 0.3917(4) -0.3127(5)
N3O N 0.6083(4) 0.4498(4) 0.1873(5)
C1O C 0.8838(5) 0.6467(5) -0.0691(7)
C2O C 0.9502(5) 0.6646(5) -0.0694(7)
C5I C 0.5986(5) 0.3773(5) -0.2918(7)
C6I C 0.5800(5) 0.4585(4) -0.3239(7)
C7I C 0.5092(5) 0.3739(5) -0.2430(7)
H1O H 0.8647 0.6244 -0.1164
H2O H 0.8802 0.6826 -0.0682
H3O H 0.9746 0.7082 -0.0709
H4O H 0.9588 0.6489 -0.1162
H7O H 0.9348 0.5579 0.0458
H8I H 0.6313 0.3959 -0.3293
H9I H 0.5825 0.3341 -0.2935
H10I H 0.5499 0.4709 -0.3235
H11I H 0.6005 0.4696 -0.3740
H12I H 0.4991 0.3339 -0.2257
H13I H 0.4723 0.3733 -0.2569
loop_
_geom_bond_atom_site_label_1
_geom_bond_atom_site_label_2
_geom_bond_site_symmetry_1
_geom_bond_site_symmetry_2
Cu1 Cl1 1_555 1_555
Cu2 Cl1 1_555 1_555
Cu3 Cl2 1_555 1_555
Cl2 Cu1 1_555 1_555
Cl3 Cu2 1_555 1_555
Cl4 Cu3 1_555 1_555
O1 Cu1 1_555 1_555
N1 Cu1 1_555 1_555
N2 C2 1_555 1_555
N3 Cu3 1_555 1_555
C1 N1 1_555 1_555
C2 C1 1_555 1_555
C3 N1 1_555 1_555
C4 N2 1_555 1_555
C5 N3 1_555 1_555
C6 N3 1_555 1_555
C7 N3 1_555 1_555
H1 C1 1_555 1_555
H2 C1 1_555 1_555
H3 C2 1_555 1_555
H4 C2 1_555 1_555
H5 C3 1_555 1_555
H6 C3 1_555 1_555
H7 C4 1_555 1_555
H8 C5 1_555 1_555
H9 C5 1_555 1_555
H10 C6 1_555 1_555
H11 C6 1_555 1_555
H12 C7 1_555 1_555
H13 C7 1_555 1_555
Cu2E N2 1_555 1_555
Cu3O Cl3 1_555 1_555
Cu3I N3I 1_555 1_555
Cl2O Cu1 1_555 1_555
Cl3O Cu2 1_555 1_555
N2D Cu2 1_555 1_555
N3I C5I 1_555 1_555
N3O Cu3O 1_555 1_555
C1O N1 1_555 1_555
C2O N2 1_555 1_555
C5I C5 1_555 1_555
C6I C7 1_555 1_555
C7I C6 1_555 1_555
H1O C1O 1_555 1_555
H2O C1O 1_555 1_555
H3O C2O 1_555 1_555
H4O C2O 1_555 1_555
H7O C4 1_555 1_555
H8I C5I 1_555 1_555
H9I C5I 1_555 1_555
H10I C6I 1_555 1_555
H11I C6I 1_555 1_555
H12I C7I 1_555 1_555
H13I C7I 1_555 1_555
Cu2 O1 1_555 1_555
Cu3 O1 1_555 1_555
Cu3 Cl3O 1_555 1_555
Cl4 Cu3O 1_555 1_555
O1 Cu3O 1_555 1_555
C3 C4 1_555 1_555
Cu3O Cl2O 1_555 1_555
N3I C6I 1_555 1_555
N3I C7I 1_555 1_555
C1O C2O 1_555 1_555

#END
