
#######################################################################
#
#                 Cambridge Crystallographic Data Centre
#                                CCDC 
#
#######################################################################
#
# If this CIF has been generated from an entry in the Cambridge 
# Structural Database, then it will include bibliographic, chemical, 
# crystal, experimental, refinement or atomic coordinate data resulting 
# from the CCDC's data processing and validation procedures.
#
#######################################################################

data_GUSSET
_symmetry_cell_setting           monoclinic
_symmetry_space_group_name_H-M   'P 21/c'
_symmetry_Int_Tables_number      14
_space_group_name_Hall           '-P 2ybc'
loop_
_symmetry_equiv_pos_site_id
_symmetry_equiv_pos_as_xyz
1 x,y,z
2 -x,1/2+y,1/2-z
3 -x,-y,-z
4 x,1/2-y,1/2+z
_cell_length_a                   10.6546(6)
_cell_length_b                   12.9208(7)
_cell_length_c                   6.5037(3)
_cell_angle_alpha                90
_cell_angle_beta                 103.452(4)
_cell_angle_gamma                90
_cell_volume                     870.775
loop_
_atom_site_label
_atom_site_type_symbol
_atom_site_fract_x
_atom_site_fract_y
_atom_site_fract_z
C1 C 0.1614(5) 0.5246(5) 0.7726(10)
C2 C 0.0320(6) 0.5136(6) 0.7710(11)
H1 H 0.0026 0.4543 0.8258
C3 C -0.0524(6) 0.5912(6) 0.6878(12)
H2 H -0.1395 0.5857 0.6869
C4 C -0.0061(7) 0.6775(6) 0.6055(12)
H3 H -0.0615 0.7310 0.5472
C5 C 0.1241(6) 0.6832(5) 0.6111(11)
H4 H 0.1551 0.7415 0.5550
C6 C 0.2569(6) 0.4416(5) 0.8645(11)
N1 N 0.2076(5) 0.6084(4) 0.6940(9)
N2 N 0.3616(7) 0.5596(5) 0.3346(11)
N3 N 0.3702(5) 0.6253(5) 0.2144(9)
N4 N 0.3817(5) 0.6918(4) 0.0914(9)
O1 O 0.3744(4) 0.4578(3) 0.8699(8)
O2 O 0.2147(5) 0.3612(4) 0.9237(11)
Pb1 Pb 0.45551(2) 0.623053(18) 0.76275(4)
O3 O 0.6152(5) 0.7024(5) 0.4783(10)
H5 H 0.635(7) 0.661(6) 0.395(12)
H6 H 0.680(5) 0.735(6) 0.528(14)
N4_2 N 0.3817(5) 0.6918(4) 1.0914(9)
N4C N 0.3817(5) 0.8082(4) 0.5914(9)
O1B O 0.6256(4) 0.5422(3) 1.1301(8)
Pb1_2 Pb 0.45551(2) 0.623053(18) -0.23725(4)
Pb1C Pb 0.45551(2) 0.876947(18) 0.26275(4)
Pb1B Pb 0.54449(2) 0.376947(18) 1.23725(4)
O3C O 0.6152(5) 0.7976(5) 0.9783(10)
H5C H 0.635(7) 0.839(6) 0.895(12)
H6C H 0.680(5) 0.765(6) 1.028(14)
loop_
_geom_bond_atom_site_label_1
_geom_bond_atom_site_label_2
_geom_bond_site_symmetry_1
_geom_bond_site_symmetry_2
C1 C2 1_555 1_555
C2 H1 1_555 1_555
C3 C2 1_555 1_555
H2 C3 1_555 1_555
C4 C3 1_555 1_555
H3 C4 1_555 1_555
C5 C4 1_555 1_555
H4 C5 1_555 1_555
C6 C1 1_555 1_555
N1 C1 1_555 1_555
N2 N3 1_555 1_555
N3 N4 1_555 1_555
N4 Pb1_2 1_555 1_555
O1 C6 1_555 1_555
O2 C6 1_555 1_555
Pb1 N1 1_555 1_555
O3 Pb1 1_555 1_555
H5 O3 1_555 1_555
H6 O3 1_555 1_555
N4_2 Pb1 1_555 1_555
N4C Pb1 1_555 1_555
O1B Pb1 1_555 1_555
Pb1C N4 1_555 1_555
Pb1B O1 1_555 1_555
O3C Pb1 1_555 1_555
H5C O3C 1_555 1_555
H6C O3C 1_555 1_555
C5 N1 1_555 1_555
N2 Pb1 1_555 1_555
O1 Pb1 1_555 1_555
O3 Pb1C 1_555 1_555
N4C Pb1C 1_555 1_555
O1B Pb1B 1_555 1_555

#END
