
#######################################################################
#
#                 Cambridge Crystallographic Data Centre
#                                CCDC 
#
#######################################################################
#
# If this CIF has been generated from an entry in the Cambridge 
# Structural Database, then it will include bibliographic, chemical, 
# crystal, experimental, refinement or atomic coordinate data resulting 
# from the CCDC's data processing and validation procedures.
#
#######################################################################

data_GUSTUK
_symmetry_cell_setting           triclinic
_symmetry_space_group_name_H-M   'P -1'
_symmetry_Int_Tables_number      2
_space_group_name_Hall           '-P 1'
loop_
_symmetry_equiv_pos_site_id
_symmetry_equiv_pos_as_xyz
1 x,y,z
2 -x,-y,-z
_cell_length_a                   12.619(7)
_cell_length_b                   12.768(7)
_cell_length_c                   16.371(13)
_cell_angle_alpha                94.349(11)
_cell_angle_beta                 109.406(12)
_cell_angle_gamma                118.389(8)
_cell_volume                     2099.96
loop_
_atom_site_label
_atom_site_type_symbol
_atom_site_fract_x
_atom_site_fract_y
_atom_site_fract_z
Co1 Co 0.95371(9) 0.80164(7) 0.69881(5)
F1 F 0.5652(4) 0.4520(3) 0.9828(3)
F2 F 0.6986(5) 0.1699(4) 1.0138(3)
F3 F 0.5096(4) 0.4246(3) 0.2347(3)
F4 F 0.6205(5) 0.8330(4) 0.2743(3)
O1 O 0.9654(5) 0.7481(4) 1.0751(3)
H1 H 1.0036 0.7524 1.1279
O2 O 0.9157(4) 0.5495(4) 0.3853(3)
H2 H 0.9553 0.5740 0.3533
O3 O 1.0103(4) 0.8886(3) 0.6056(3)
H3 H 0.9661 0.9214 0.5844
H4 H 1.0519 0.8792 0.5771
O4 O 0.8009(5) 0.8320(4) 0.6641(3)
O5 O 0.8181(7) 0.9233(6) 0.5576(4)
N1 N 0.8074(5) 0.6726(4) 0.8901(3)
N2 N 0.7751(5) 0.5605(4) 0.8465(3)
N3 N 0.8894(5) 0.7102(4) 0.7910(3)
N4 N 0.8187(6) 0.8231(4) 1.1371(3)
N5 N 0.7370(5) 0.8588(5) 1.0885(3)
N6 N 0.9201(6) 1.0211(4) 1.1998(3)
N7 N 0.7325(6) 0.4854(4) 0.4683(3)
N8 N 0.6288(6) 0.4839(5) 0.4762(4)
N9 N 0.8219(6) 0.6271(4) 0.5947(3)
N10 N 0.7741(6) 0.3169(4) 0.2493(3)
N11 N 0.6918(6) 0.2025(5) 0.2529(3)
N12 N 0.8881(6) 0.2280(5) 0.2719(3)
C1 C 0.7604(7) 0.6867(5) 0.9579(4)
H5 H 0.6652 0.6288 0.9336
H6 H 0.7774 0.7699 0.9715
C2 C 0.8268(7) 0.6639(5) 1.0445(4)
C3 C 0.7849(6) 0.6963(5) 1.1170(4)
H7 H 0.6897 0.6415 1.0961
H8 H 0.8275 0.6813 1.1720
C4 C 0.8278(7) 0.5887(5) 0.7875(4)
H9 H 0.8227 0.5295 0.7470
C5 C 0.8763(7) 0.7607(5) 0.8577(4)
H10 H 0.9100 0.8449 0.8787
C6 C 0.8035(8) 0.9767(6) 1.1297(5)
H11 H 0.7718 1.0274 1.1113
C7 C 0.9263(7) 0.9217(5) 1.2016(4)
H12 H 0.9969 0.9204 1.2427
C8 C 0.7936(7) 0.5316(5) 1.0340(4)
C9 C 0.6650(8) 0.4308(6) 1.0050(4)
C10 C 0.6290(8) 0.3104(6) 0.9961(4)
H13 H 0.5410 0.2462 0.9762
C11 C 0.7308(11) 0.2898(7) 1.0185(5)
C12 C 0.8600(9) 0.3818(7) 1.0456(5)
H14 H 0.9265 0.3644 1.0584
C13 C 0.8884(7) 0.4999(6) 1.0534(4)
H15 H 0.9766 0.5633 1.0729
C14 C 0.7133(7) 0.4091(5) 0.3867(4)
H16 H 0.6190 0.3527 0.3496
H17 H 0.7520 0.3598 0.4037
C15 C 0.7773(7) 0.4896(5) 0.3324(4)
C16 C 0.7381(7) 0.4093(5) 0.2398(4)
H18 H 0.6431 0.3679 0.2047
H19 H 0.7822 0.4623 0.2074
C17 C 0.6886(8) 0.5695(6) 0.5521(5)
H20 H 0.6415 0.5901 0.5760
C18 C 0.8433(7) 0.5699(6) 0.5365(4)
H21 H 0.9269 0.5878 0.5433
C19 C 0.7651(8) 0.1539(6) 0.2671(4)
H22 H 0.7346 0.0742 0.2734
C20 C 0.8881(7) 0.3290(6) 0.2594(4)
H23 H 0.9591 0.3996 0.2580
C21 C 0.7364(8) 0.5836(6) 0.3171(4)
C22 C 0.6068(8) 0.5479(6) 0.2700(4)
C23 C 0.5643(7) 0.6291(6) 0.2545(4)
H24 H 0.4754 0.6010 0.2215
C24 C 0.6590(10) 0.7523(7) 0.2900(5)
C25 C 0.7880(9) 0.7922(6) 0.3389(5)
H25 H 0.8509 0.8767 0.3641
C26 C 0.8261(7) 0.7082(5) 0.3515(4)
H26 H 0.9153 0.7369 0.3843
C27 C 0.7572(8) 0.8724(7) 0.6019(6)
C28 C 0.6250(9) 0.8577(8) 0.5825(7)
H27 H 0.6216 0.9211 0.5559
H28 H 0.6144 0.8660 0.6376
H29 H 0.5549 0.7776 0.5414
Co1A Co 1.04629(9) 1.19836(7) 1.30119(5)
Co1A_2 Co 1.04629(9) 0.19836(7) 0.30119(5)
N6A N 1.0799(6) 0.9789(4) 0.8002(3)
N12A N 1.1119(6) 0.7720(5) 0.7281(3)
O6 O 0.0606(6) 0.7473(5) 0.2421(3)
O7 O 0.0822(5) 0.6101(4) 0.3056(4)
C29 C 0.1205(9) 0.6961(7) 0.2711(5)
C30 C 0.2520(9) 0.7420(8) 0.2662(7)
H30 H 0.3006 0.7140 0.3070
H31 H 0.3020 0.8310 0.2827
H32 H 0.2370 0.7100 0.2058
O8 O 0.1827(7) 0.9231(6) 0.5377(4)
H33 H 0.1820 0.9684 0.5049
C31 C 0.3530(11) 0.8837(11) 0.5417(8)
H34 H 0.4059 0.9706 0.5477
H35 H 0.3656 0.8375 0.5009
H36 H 0.3792 0.8691 0.5996
C32 C 0.2083(10) 0.8428(8) 0.5051(6)
H37 H 0.1741 0.8266 0.4400
H38 H 0.1600 0.7651 0.5180
O9 O 0.1281(7) 0.0021(5) 0.0696(4)
H39 H 0.0592 -0.0638 0.0582
C33 C 0.2374(14) 0.0006(11) 0.1309(10)
H40 H 0.2458 -0.0620 0.1013
H41 H 0.2199 -0.0225 0.1822
C34 C 0.3616(14) 0.1192(14) 0.1629(12)
H42 H 0.3847 0.1382 0.1133
H43 H 0.4303 0.1153 0.2080
H44 H 0.3521 0.1827 0.1884
loop_
_geom_bond_atom_site_label_1
_geom_bond_atom_site_label_2
_geom_bond_site_symmetry_1
_geom_bond_site_symmetry_2
Co1 O3 1_555 1_555
F1 C9 1_555 1_555
F2 C11 1_555 1_555
F3 C22 1_555 1_555
F4 C24 1_555 1_555
O1 H1 1_555 1_555
O2 H2 1_555 1_555
O3 H3 1_555 1_555
H4 O3 1_555 1_555
O4 Co1 1_555 1_555
O5 C27 1_555 1_555
N1 N2 1_555 1_555
N2 C4 1_555 1_555
N3 Co1 1_555 1_555
N4 N5 1_555 1_555
N5 C6 1_555 1_555
N6 C6 1_555 1_555
N7 N8 1_555 1_555
N8 C17 1_555 1_555
N9 Co1 1_555 1_555
N10 N11 1_555 1_555
N11 C19 1_555 1_555
N12 C19 1_555 1_555
C1 N1 1_555 1_555
H5 C1 1_555 1_555
H6 C1 1_555 1_555
C2 O1 1_555 1_555
C3 N4 1_555 1_555
H7 C3 1_555 1_555
H8 C3 1_555 1_555
C4 N3 1_555 1_555
H9 C4 1_555 1_555
C5 N1 1_555 1_555
H10 C5 1_555 1_555
C6 H11 1_555 1_555
C7 N4 1_555 1_555
H12 C7 1_555 1_555
C8 C2 1_555 1_555
C9 C8 1_555 1_555
C10 C9 1_555 1_555
H13 C10 1_555 1_555
C11 C10 1_555 1_555
C12 C11 1_555 1_555
H14 C12 1_555 1_555
C13 C8 1_555 1_555
H15 C13 1_555 1_555
C14 N7 1_555 1_555
H16 C14 1_555 1_555
H17 C14 1_555 1_555
C15 O2 1_555 1_555
C16 N10 1_555 1_555
H18 C16 1_555 1_555
H19 C16 1_555 1_555
C17 N9 1_555 1_555
H20 C17 1_555 1_555
C18 N7 1_555 1_555
H21 C18 1_555 1_555
C19 H22 1_555 1_555
C20 N10 1_555 1_555
H23 C20 1_555 1_555
C21 C15 1_555 1_555
C22 C21 1_555 1_555
C23 C22 1_555 1_555
H24 C23 1_555 1_555
C24 C23 1_555 1_555
C25 C24 1_555 1_555
H25 C25 1_555 1_555
C26 C21 1_555 1_555
H26 C26 1_555 1_555
C27 O4 1_555 1_555
C28 C27 1_555 1_555
H27 C28 1_555 1_555
H28 C28 1_555 1_555
H29 C28 1_555 1_555
O6 C29 1_555 1_555
O7 C29 1_555 1_555
C29 C30 1_555 1_555
C30 H30 1_555 1_555
H31 C30 1_555 1_555
H32 C30 1_555 1_555
O8 H33 1_555 1_555
C31 H34 1_555 1_555
H35 C31 1_555 1_555
H36 C31 1_555 1_555
C32 O8 1_555 1_555
H37 C32 1_555 1_555
H38 C32 1_555 1_555
O9 H39 1_555 1_555
C33 O9 1_555 1_555
H40 C33 1_555 1_555
H41 C33 1_555 1_555
C34 C33 1_555 1_555
H42 C34 1_555 1_555
H43 C34 1_555 1_555
H44 C34 1_555 1_555
Co1A N6 1_555 1_555
Co1A_2 N12 1_555 1_555
N6A Co1 1_555 1_555
N12A Co1 1_555 1_555
N3 C5 1_555 1_555
N6 C7 1_555 1_555
N9 C18 1_555 1_555
N12 C20 1_555 1_555
C1 C2 1_555 1_555
C2 C3 1_555 1_555
C12 C13 1_555 1_555
C14 C15 1_555 1_555
C15 C16 1_555 1_555
C25 C26 1_555 1_555
C31 C32 1_555 1_555

#END
