
#######################################################################
#
#                 Cambridge Crystallographic Data Centre
#                                CCDC 
#
#######################################################################
#
# If this CIF has been generated from an entry in the Cambridge 
# Structural Database, then it will include bibliographic, chemical, 
# crystal, experimental, refinement or atomic coordinate data resulting 
# from the CCDC's data processing and validation procedures.
#
#######################################################################

data_GUSTOE
_symmetry_cell_setting           triclinic
_symmetry_space_group_name_H-M   'P -1'
_symmetry_Int_Tables_number      2
_space_group_name_Hall           '-P 1'
loop_
_symmetry_equiv_pos_site_id
_symmetry_equiv_pos_as_xyz
1 x,y,z
2 -x,-y,-z
_cell_length_a                   7.934(3)
_cell_length_b                   9.986(4)
_cell_length_c                   11.510(5)
_cell_angle_alpha                90.167(5)
_cell_angle_beta                 93.907(5)
_cell_angle_gamma                111.213(4)
_cell_volume                     847.786
loop_
_atom_site_label
_atom_site_type_symbol
_atom_site_fract_x
_atom_site_fract_y
_atom_site_fract_z
Co1 Co 0.5000 1.5000 0.5000
F1 F -0.2900(4) 0.4989(2) -0.1335(2)
F2 F -0.1676(3) 0.7992(2) 0.1960(2)
O1 O 0.3934(3) 0.9161(3) 0.1518(2)
H1 H 0.4719 0.9877 0.1828
O2 O 0.2738(3) 1.3509(2) 0.5798(2)
H2 H 0.1864 1.3677 0.6073
H3 H 0.2595 1.2628 0.5711
N1 N 0.4547(3) 1.3489(3) 0.3548(2)
N2 N 0.4966(4) 1.2538(3) 0.1871(3)
N3 N 0.3274(3) 1.1808(3) 0.2221(2)
N4 N 0.2115(3) 0.7456(3) 0.3399(2)
N5 N 0.0651(4) 0.6205(3) 0.3403(3)
N6 N 0.3176(3) 0.5890(2) 0.4141(2)
C1 C 0.3055(4) 1.2384(3) 0.3209(3)
H4 H 0.2008 1.2062 0.3609
C2 C 0.5659(5) 1.3514(4) 0.2701(3)
H5 H 0.6836 1.4182 0.2710
C3 C 0.1997(4) 1.0589(3) 0.1514(3)
H6 H 0.2177 1.0783 0.0698
H7 H 0.0771 1.0513 0.1643
C4 C 0.2193(4) 0.9130(3) 0.1783(3)
C5 C 0.1948(5) 0.8818(3) 0.3067(3)
H8 H 0.2848 0.9592 0.3532
H9 H 0.0761 0.8798 0.3243
C6 C 0.3580(4) 0.7247(3) 0.3838(3)
H10 H 0.4734 0.7953 0.3923
C7 C 0.1369(4) 0.5308(3) 0.3838(3)
H11 H 0.0692 0.4341 0.3932
C8 C 0.0806(5) 0.8002(3) 0.0944(3)
C9 C -0.1035(5) 0.7480(4) 0.1070(3)
C10 C -0.2314(5) 0.6457(4) 0.0327(3)
H12 H -0.3541 0.6112 0.0454
C11 C -0.1672(6) 0.5986(4) -0.0598(3)
C12 C 0.0102(6) 0.6463(4) -0.0789(4)
H13 H 0.0485 0.6118 -0.1432
C13 C 0.1374(6) 0.7480(4) -0.0015(3)
H14 H 0.2599 0.7805 -0.0146
Co1_2 Co 0.5000 0.5000 0.5000
Co1_3 Co 0.5000 2.5000 0.5000
F1_2 F -0.2900(4) 1.4989(2) -0.1335(2)
F2_2 F -0.1676(3) 1.7992(2) 0.1960(2)
O1_2 O 0.3934(3) 1.9161(3) 0.1518(2)
H1_2 H 0.4719 1.9877 0.1828
O2A O 0.7262(3) 1.6491(2) 0.4202(2)
H2A H 0.8136 1.6323 0.3927
H3A H 0.7405 1.7372 0.4289
N1_2 N 0.4547(3) 2.3489(3) 0.3548(2)
N1A N 0.5453(3) 1.6511(3) 0.6452(2)
N2_2 N 0.4966(4) 2.2538(3) 0.1871(3)
N3_2 N 0.3274(3) 2.1808(3) 0.2221(2)
N4_2 N 0.2115(3) 1.7456(3) 0.3399(2)
N5_2 N 0.0651(4) 1.6205(3) 0.3403(3)
N6_2 N 0.3176(3) 1.5890(2) 0.4141(2)
N6A N 0.6824(3) 1.4110(2) 0.5859(2)
C1_2 C 0.3055(4) 2.2384(3) 0.3209(3)
H4_2 H 0.2008 2.2062 0.3609
C2_2 C 0.5659(5) 2.3514(4) 0.2701(3)
H5_2 H 0.6836 2.4182 0.2710
C3_2 C 0.1997(4) 2.0589(3) 0.1514(3)
H6_2 H 0.2177 2.0783 0.0698
H7_2 H 0.0771 2.0513 0.1643
C4_2 C 0.2193(4) 1.9130(3) 0.1783(3)
C5_2 C 0.1948(5) 1.8818(3) 0.3067(3)
H8_2 H 0.2848 1.9592 0.3532
H9_2 H 0.0761 1.8798 0.3243
C6_2 C 0.3580(4) 1.7247(3) 0.3838(3)
H10_2 H 0.4734 1.7953 0.3923
C7_2 C 0.1369(4) 1.5308(3) 0.3838(3)
H11_2 H 0.0692 1.4341 0.3932
C8_2 C 0.0806(5) 1.8002(3) 0.0944(3)
C9_2 C -0.1035(5) 1.7480(4) 0.1070(3)
C10_2 C -0.2314(5) 1.6457(4) 0.0327(3)
H12_2 H -0.3541 1.6112 0.0454
C11_2 C -0.1672(6) 1.5986(4) -0.0598(3)
C12_2 C 0.0102(6) 1.6463(4) -0.0789(4)
H13_2 H 0.0485 1.6118 -0.1432
C13_2 C 0.1374(6) 1.7480(4) -0.0015(3)
H14_2 H 0.2599 1.7805 -0.0146
Cl1 Cl 0.78278(11) 0.07521(8) 0.37524(8)
O3 O 0.7964(4) -0.0532(3) 0.4233(3)
O4 O 0.8004(5) 0.0757(4) 0.2536(3)
O5 O 0.6098(3) 0.0786(3) 0.3952(3)
O6 O 0.9202(4) 0.1968(3) 0.4311(3)
loop_
_geom_bond_atom_site_label_1
_geom_bond_atom_site_label_2
_geom_bond_site_symmetry_1
_geom_bond_site_symmetry_2
Co1 O2 1_555 1_555
F1 C11 1_555 1_555
F2 C9 1_555 1_555
O1 H1 1_555 1_555
O2 H2 1_555 1_555
H3 O2 1_555 1_555
N1 Co1 1_555 1_555
N2 N3 1_555 1_555
N3 C1 1_555 1_555
N4 N5 1_555 1_555
N5 C7 1_555 1_555
N6 C6 1_555 1_555
C1 N1 1_555 1_555
H4 C1 1_555 1_555
C2 N1 1_555 1_555
H5 C2 1_555 1_555
C3 N3 1_555 1_555
H6 C3 1_555 1_555
H7 C3 1_555 1_555
C4 O1 1_555 1_555
C5 N4 1_555 1_555
H8 C5 1_555 1_555
H9 C5 1_555 1_555
C6 N4 1_555 1_555
H10 C6 1_555 1_555
C7 N6 1_555 1_555
H11 C7 1_555 1_555
C8 C4 1_555 1_555
C9 C8 1_555 1_555
C10 C9 1_555 1_555
H12 C10 1_555 1_555
C11 C10 1_555 1_555
C12 C11 1_555 1_555
H13 C12 1_555 1_555
C13 C8 1_555 1_555
H14 C13 1_555 1_555
Cl1 O3 1_555 1_555
O4 Cl1 1_555 1_555
O5 Cl1 1_555 1_555
O6 Cl1 1_555 1_555
Co1_2 N6 1_555 1_555
Co1_3 N1_2 1_555 1_555
F1_2 C11_2 1_555 1_555
F2_2 C9_2 1_555 1_555
O1_2 H1_2 1_555 1_555
O2A Co1 1_555 1_555
H2A O2A 1_555 1_555
H3A O2A 1_555 1_555
N1_2 C1_2 1_555 1_555
N1A Co1 1_555 1_555
N2_2 N3_2 1_555 1_555
N3_2 C1_2 1_555 1_555
N4_2 N5_2 1_555 1_555
N5_2 C7_2 1_555 1_555
N6_2 Co1 1_555 1_555
N6A Co1 1_555 1_555
C1_2 H4_2 1_555 1_555
C2_2 N1_2 1_555 1_555
H5_2 C2_2 1_555 1_555
C3_2 N3_2 1_555 1_555
H6_2 C3_2 1_555 1_555
H7_2 C3_2 1_555 1_555
C4_2 O1_2 1_555 1_555
C5_2 N4_2 1_555 1_555
H8_2 C5_2 1_555 1_555
H9_2 C5_2 1_555 1_555
C6_2 N4_2 1_555 1_555
H10_2 C6_2 1_555 1_555
C7_2 N6_2 1_555 1_555
H11_2 C7_2 1_555 1_555
C8_2 C4_2 1_555 1_555
C9_2 C8_2 1_555 1_555
C10_2 C9_2 1_555 1_555
H12_2 C10_2 1_555 1_555
C11_2 C10_2 1_555 1_555
C12_2 C11_2 1_555 1_555
H13_2 C12_2 1_555 1_555
C13_2 C8_2 1_555 1_555
H14_2 C13_2 1_555 1_555
N2 C2 1_555 1_555
C3 C4 1_555 1_555
C4 C5 1_555 1_555
C12 C13 1_555 1_555
N2_2 C2_2 1_555 1_555
N6_2 C6_2 1_555 1_555
C3_2 C4_2 1_555 1_555
C4_2 C5_2 1_555 1_555
C12_2 C13_2 1_555 1_555

#END
