
#######################################################################
#
#                 Cambridge Crystallographic Data Centre
#                                CCDC 
#
#######################################################################
#
# If this CIF has been generated from an entry in the Cambridge 
# Structural Database, then it will include bibliographic, chemical, 
# crystal, experimental, refinement or atomic coordinate data resulting 
# from the CCDC's data processing and validation procedures.
#
#######################################################################

data_GUSTIY
_symmetry_cell_setting           monoclinic
_symmetry_space_group_name_H-M   'P 21/n'
_symmetry_Int_Tables_number      14
_space_group_name_Hall           '-P 2yn'
loop_
_symmetry_equiv_pos_site_id
_symmetry_equiv_pos_as_xyz
1 x,y,z
2 1/2-x,1/2+y,1/2-z
3 -x,-y,-z
4 1/2+x,1/2-y,1/2+z
_cell_length_a                   21.2153(15)
_cell_length_b                   9.3378(7)
_cell_length_c                   22.0024(16)
_cell_angle_alpha                90
_cell_angle_beta                 113.541(2)
_cell_angle_gamma                90
_cell_volume                     3996.01
loop_
_atom_site_label
_atom_site_type_symbol
_atom_site_fract_x
_atom_site_fract_y
_atom_site_fract_z
Cu1 Cu 0.15945(4) 0.53619(9) 0.44435(4)
Cu2 Cu 0.35198(4) 0.90278(9) 0.56714(4)
O1 O 0.2279(2) 0.6835(5) 0.4833(2)
O2 O 0.3208(2) 0.7838(6) 0.4791(2)
O3 O -0.3149(2) 0.3763(6) 0.0416(2)
O4 O -0.2207(3) 0.4599(6) 0.0333(3)
O5 O 0.2197(3) 0.3918(6) 0.5168(3)
H1 H 0.203(4) 0.306(4) 0.523(4)
H2 H 0.221(4) 0.440(6) 0.552(3)
N1 N 0.0828(3) 0.6600(6) 0.4486(2)
N2 N 0.0833(3) 0.3923(6) 0.4104(3)
N3 N 0.4258(3) 1.0418(6) 0.5599(2)
N4 N 0.4333(3) 0.7726(6) 0.6021(2)
N5 N 0.1959(3) 0.5465(7) 0.3696(3)
H3 H 0.187(5) 0.475(9) 0.357(4)
N6 N -0.1781(3) 0.6037(8) 0.1436(3)
H4 H -0.1723 0.6974 0.1577
C1 C 0.0832(4) 0.8000(8) 0.4619(3)
H5 H 0.1247 0.8514 0.4752
C2 C 0.0233(4) 0.8712(9) 0.4564(4)
H6 H 0.0250 0.9694 0.4663
C3 C -0.0370(4) 0.8006(10) 0.4372(4)
H7 H -0.0769 0.8491 0.4343
C4 C -0.0399(4) 0.6560(9) 0.4216(3)
C5 C -0.1015(4) 0.5723(11) 0.3971(4)
H8 H -0.1431 0.6134 0.3942
C6 C -0.1008(4) 0.4351(11) 0.3781(4)
H9 H -0.1422 0.3829 0.3624
C7 C -0.0391(4) 0.3656(9) 0.3808(3)
C8 C -0.0353(5) 0.2274(10) 0.3582(4)
H10 H -0.0750 0.1702 0.3404
C9 C 0.0258(5) 0.1767(9) 0.3621(4)
H11 H 0.0285 0.0844 0.3463
C10 C 0.0850(4) 0.2608(8) 0.3895(3)
H12 H 0.1273 0.2224 0.3930
C11 C 0.0222(3) 0.4460(7) 0.4066(3)
C12 C 0.0220(3) 0.5903(8) 0.4276(3)
C13 C 0.4214(4) 1.1739(7) 0.5384(3)
H13 H 0.3778 1.2172 0.5208
C14 C 0.4774(4) 1.2539(8) 0.5401(3)
H14 H 0.4716 1.3487 0.5244
C15 C 0.5406(4) 1.1918(9) 0.5649(4)
H15 H 0.5791 1.2432 0.5659
C16 C 0.5482(4) 1.0516(8) 0.5888(3)
C17 C 0.6132(4) 0.9759(10) 0.6169(4)
H16 H 0.6537 1.0224 0.6202
C18 C 0.6165(4) 0.8426(10) 0.6380(3)
H17 H 0.6595 0.7973 0.6570
C19 C 0.5570(4) 0.7660(8) 0.6328(3)
C20 C 0.5573(4) 0.6241(9) 0.6534(3)
H18 H 0.5989 0.5729 0.6716
C21 C 0.4978(5) 0.5610(8) 0.6470(4)
H19 H 0.4981 0.4651 0.6601
C22 C 0.4352(4) 0.6369(8) 0.6211(4)
H20 H 0.3943 0.5910 0.6171
C23 C 0.4934(3) 0.8350(8) 0.6068(3)
C24 C 0.4891(3) 0.9803(7) 0.5845(3)
C25 C 0.2727(3) 0.6972(7) 0.4590(3)
C26 C 0.2675(3) 0.6009(9) 0.4018(3)
H21 H 0.2786 0.6568 0.3691
C27 C 0.3181(4) 0.4816(10) 0.4280(5)
H22 H 0.3059 0.4237 0.4584
H23 H 0.3638 0.5210 0.4513
H24 H 0.3174 0.4225 0.3915
C28 C 0.1542(4) 0.6459(10) 0.3158(4)
H25 H 0.1712 0.6426 0.2804
H26 H 0.1607 0.7438 0.3334
C29 C 0.0788(4) 0.6116(9) 0.2869(3)
C30 C 0.0539(4) 0.4808(9) 0.2577(3)
H27 H 0.0849 0.4098 0.2568
C31 C -0.0164(4) 0.4526(9) 0.2297(3)
H28 H -0.0321 0.3632 0.2098
C32 C -0.0629(4) 0.5527(10) 0.2308(3)
C33 C -0.0386(4) 0.6822(10) 0.2603(3)
H29 H -0.0698 0.7518 0.2622
C34 C 0.0310(4) 0.7118(8) 0.2872(3)
H30 H 0.0463 0.8022 0.3062
C35 C -0.1401(4) 0.5211(13) 0.2006(4)
H31 H -0.1468 0.4194 0.1887
H32 H -0.1585 0.5386 0.2343
C36 C -0.2544(6) 0.5857(16) 0.1052(7)
H33 H -0.2732 0.6719 0.0777
C37 C -0.2919(6) 0.561(2) 0.1491(7)
H34 H -0.2861 0.6441 0.1775
H35 H -0.2735 0.4771 0.1762
H36 H -0.3404 0.5473 0.1221
C38 C -0.2640(3) 0.4554(7) 0.0598(3)
Cu2C Cu -0.14802(4) 0.59722(9) 0.06714(4)
O4C O 0.2793(3) 1.0401(6) 0.5333(3)
N6C N 0.3219(3) 0.8963(8) 0.6436(3)
H4C H 0.3277 0.8026 0.6577
Cl1 Cl 0.6793(8) 0.3426(18) 0.7664(8)
O6 O 0.7134(9) 0.4793(19) 0.7758(11)
O7 O 0.7113(10) 0.267(2) 0.8293(10)
O8 O 0.6819(16) 0.265(3) 0.7137(12)
O9 O 0.6107(6) 0.371(2) 0.7608(9)
O10 O 0.6755(7) 0.5351(15) 0.8910(7)
Cl2 Cl 0.32310(14) 0.4419(3) 0.69355(12)
O11 O 0.2861(4) 0.5416(8) 0.6449(4)
O12 O 0.2816(4) 0.3399(8) 0.7039(4)
O13 O 0.3646(6) 0.5095(10) 0.7487(4)
O14 O 0.3671(6) 0.3645(12) 0.6684(7)
C39? C -0.2462(8) 0.523(2) 0.1274(8)
C40? C -0.2931(9) 0.647(2) 0.1203(9)
Cl3? Cl 0.6771(9) 0.359(2) 0.7699(9)
H37? H -0.2447 0.4543 0.1621
H38? H -0.2820 0.6908 0.1633
H39? H -0.3403 0.6135 0.1028
H40? H -0.2875 0.7167 0.0902
H41? H -0.1814 0.6968 0.1556
O15? O 0.7224(10) 0.442(2) 0.7521(10)
O16? O 0.7117(12) 0.240(2) 0.8096(11)
O17? O 0.6538(11) 0.4456(17) 0.8115(8)
O18? O 0.6219(8) 0.3123(15) 0.7138(8)
loop_
_geom_bond_atom_site_label_1
_geom_bond_atom_site_label_2
_geom_bond_site_symmetry_1
_geom_bond_site_symmetry_2
Cu1 O1 1_555 1_555
Cu2 O2 1_555 1_555
O1 C25 1_555 1_555
O2 C25 1_555 1_555
O3 C38 1_555 1_555
O4 C38 1_555 1_555
O5 Cu1 1_555 1_555
H1 O5 1_555 1_555
H2 O5 1_555 1_555
N1 Cu1 1_555 1_555
N2 Cu1 1_555 1_555
N3 Cu2 1_555 1_555
N4 Cu2 1_555 1_555
N5 Cu1 1_555 1_555
H3 N5 1_555 1_555
N6 H4 1_555 1_555
C1 N1 1_555 1_555
H5 C1 1_555 1_555
C2 C1 1_555 1_555
H6 C2 1_555 1_555
C3 C2 1_555 1_555
H7 C3 1_555 1_555
C4 C3 1_555 1_555
C5 C4 1_555 1_555
H8 C5 1_555 1_555
C6 C5 1_555 1_555
H9 C6 1_555 1_555
C7 C6 1_555 1_555
C8 C7 1_555 1_555
H10 C8 1_555 1_555
C9 C8 1_555 1_555
H11 C9 1_555 1_555
C10 N2 1_555 1_555
H12 C10 1_555 1_555
C11 N2 1_555 1_555
C12 N1 1_555 1_555
C13 N3 1_555 1_555
H13 C13 1_555 1_555
C14 C13 1_555 1_555
H14 C14 1_555 1_555
C15 C14 1_555 1_555
H15 C15 1_555 1_555
C16 C15 1_555 1_555
C17 C16 1_555 1_555
H16 C17 1_555 1_555
C18 C17 1_555 1_555
H17 C18 1_555 1_555
C19 C18 1_555 1_555
C20 C19 1_555 1_555
H18 C20 1_555 1_555
C21 C20 1_555 1_555
H19 C21 1_555 1_555
C22 N4 1_555 1_555
H20 C22 1_555 1_555
C23 N4 1_555 1_555
C24 N3 1_555 1_555
C25 C26 1_555 1_555
C26 N5 1_555 1_555
H21 C26 1_555 1_555
C27 C26 1_555 1_555
H22 C27 1_555 1_555
H23 C27 1_555 1_555
H24 C27 1_555 1_555
C28 N5 1_555 1_555
H25 C28 1_555 1_555
H26 C28 1_555 1_555
C29 C28 1_555 1_555
C30 C29 1_555 1_555
H27 C30 1_555 1_555
C31 C30 1_555 1_555
H28 C31 1_555 1_555
C32 C31 1_555 1_555
C33 C32 1_555 1_555
H29 C33 1_555 1_555
C34 C29 1_555 1_555
H30 C34 1_555 1_555
C35 N6 1_555 1_555
H31 C35 1_555 1_555
H32 C35 1_555 1_555
C36 N6 1_555 1_555
H33 C36 1_555 1_555
C37 C36 1_555 1_555
H34 C37 1_555 1_555
H35 C37 1_555 1_555
H36 C37 1_555 1_555
C38 C36 1_555 1_555
Cl1 O6 1_555 1_555
O7 Cl1 1_555 1_555
O8 Cl1 1_555 1_555
O9 Cl1 1_555 1_555
Cl2 O11 1_555 1_555
O12 Cl2 1_555 1_555
O13 Cl2 1_555 1_555
O14 Cl2 1_555 1_555
Cu2C O4 1_555 1_555
O4C Cu2 1_555 1_555
N6C Cu2 1_555 1_555
H4C N6C 1_555 1_555
N6 Cu2C 1_555 1_555
C4 C12 1_555 1_555
C7 C11 1_555 1_555
C9 C10 1_555 1_555
C11 C12 1_555 1_555
C16 C24 1_555 1_555
C19 C23 1_555 1_555
C21 C22 1_555 1_555
C23 C24 1_555 1_555
C32 C35 1_555 1_555
C33 C34 1_555 1_555

#END
