
#######################################################################
#
#                 Cambridge Crystallographic Data Centre
#                                CCDC 
#
#######################################################################
#
# If this CIF has been generated from an entry in the Cambridge 
# Structural Database, then it will include bibliographic, chemical, 
# crystal, experimental, refinement or atomic coordinate data resulting 
# from the CCDC's data processing and validation procedures.
#
#######################################################################

data_GUSVEW
_symmetry_cell_setting           monoclinic
_symmetry_space_group_name_H-M   'P 21/n'
_symmetry_Int_Tables_number      14
_space_group_name_Hall           '-P 2yn'
loop_
_symmetry_equiv_pos_site_id
_symmetry_equiv_pos_as_xyz
1 x,y,z
2 1/2-x,1/2+y,1/2-z
3 -x,-y,-z
4 1/2+x,1/2-y,1/2+z
_cell_length_a                   13.633(3)
_cell_length_b                   16.351(3)
_cell_length_c                   14.663(3)
_cell_angle_alpha                90
_cell_angle_beta                 117.186(2)
_cell_angle_gamma                90
_cell_volume                     2907.49
loop_
_atom_site_label
_atom_site_type_symbol
_atom_site_fract_x
_atom_site_fract_y
_atom_site_fract_z
Co1 Co 0.98125(5) 1.01893(4) 0.38650(4)
Co2 Co 0.5000 1.0000 0.0000
F1 F 0.4614(4) 0.8750(4) 0.4503(6)
F2 F 0.7204(3) 0.7296(2) 0.3875(3)
O1 O 0.9190(2) 0.94451(17) 0.4633(2)
O2 O 1.0761(3) 0.92601(19) 0.3748(3)
O3 O 1.0451(3) 1.0926(2) 0.3139(2)
O4 O 0.4833(3) 1.08716(19) 0.0934(2)
O5 O 0.4280(3) 0.91524(19) 0.0526(2)
N1 N 0.6609(3) 0.9709(2) 0.1254(3)
N2 N 0.8356(3) 0.9796(2) 0.2480(3)
N3 N 0.7915(3) 0.9058(2) 0.2521(3)
N4 N 1.0566(3) 0.8109(2) 0.5451(3)
N5 N 1.1133(3) 0.8743(2) 0.6074(3)
N6 N 1.2293(4) 0.7915(3) 0.5799(3)
C1 C 0.7531(4) 1.0166(3) 0.1707(3)
H1 H 0.7584 1.0693 0.1495
C2 C 0.6878(4) 0.9026(3) 0.1793(3)
H2 H 0.6408 0.8583 0.1678
C3 C 0.8553(4) 0.8454(3) 0.3281(3)
H3 H 0.9275 0.8405 0.3308
H4 H 0.8190 0.7927 0.3083
C4 C 0.8689(3) 0.8685(3) 0.4344(3)
C5 C 0.9386(4) 0.8012(3) 0.5119(3)
H5 H 0.9252 0.8033 0.5713
H6 H 0.9152 0.7479 0.4801
C6 C 1.1263(4) 0.7627(3) 0.5300(4)
H7 H 1.1063 0.7155 0.4902
C7 C 1.2162(4) 0.8597(3) 0.6249(4)
H8 H 1.2747 0.8938 0.6652
C8 C 0.7564(4) 0.8693(3) 0.4335(4)
C9 C 0.6898(5) 0.8008(4) 0.4134(5)
C10 C 0.5899(6) 0.8017(5) 0.4181(7)
H9 H 0.5462 0.7551 0.4043
C11 C 0.5591(6) 0.8741(6) 0.4441(7)
C12 C 0.6197(5) 0.9454(5) 0.4646(5)
H10 H 0.5960 0.9939 0.4812
C13 C 0.7181(4) 0.9401(3) 0.4588(4)
H11 H 0.7612 0.9870 0.4727
C14 C 1.1618(7) 1.1421(4) 0.2465(6)
H12 H 1.1085 1.1853 0.2201
H13 H 1.1780 1.1223 0.1932
H14 H 1.2281 1.1625 0.3023
C15 C 1.1159(4) 1.0731(3) 0.2842(4)
C16 C 1.1573(5) 0.9949(3) 0.2855(5)
H15 H 1.2032 0.9883 0.2547
C17 C 1.1357(4) 0.9261(3) 0.3289(4)
C18 C 1.1881(5) 0.8473(3) 0.3247(6)
H16 H 1.2140 0.8198 0.3894
H17 H 1.2491 0.8578 0.3106
H18 H 1.1350 0.8136 0.2715
C19 C 0.4676(6) 1.1417(4) 0.2339(5)
H19 H 0.5182 1.1815 0.2315
H20 H 0.4943 1.1219 0.3028
H21 H 0.3966 1.1666 0.2121
C20 C 0.4579(4) 1.0724(3) 0.1647(4)
C21 C 0.4217(6) 0.9979(3) 0.1809(5)
H22 H 0.4072 0.9952 0.2370
C22 C 0.4037(4) 0.9261(3) 0.1245(4)
C23 C 0.3522(7) 0.8539(4) 0.1490(7)
H23 H 0.2754 0.8513 0.1010
H24 H 0.3601 0.8595 0.2172
H25 H 0.3883 0.8047 0.1446
Co1B Co 0.01875(5) 0.98107(4) -0.38650(4)
Co1B_2 Co 1.01875(5) 0.98107(4) 0.61350(4)
Co1_2 Co -0.01875(5) 1.01893(4) -0.61350(4)
F1B F 0.5386(4) 1.1250(4) -0.4503(6)
F2B F 0.2796(3) 1.2704(2) -0.3875(3)
O1B O 0.0810(2) 1.05549(17) -0.4633(2)
O1B_2 O 1.0810(2) 1.05549(17) 0.5367(2)
O1_2 O -0.0810(2) 0.94451(17) -0.5367(2)
O2B O -0.0761(3) 1.07399(19) -0.3748(3)
O3B O -0.0451(3) 0.9074(2) -0.3139(2)
O4B O 0.5167(3) 0.91284(19) -0.0934(2)
O5B O 0.5720(3) 1.08476(19) -0.0526(2)
N1B N 0.3391(3) 1.0291(2) -0.1254(3)
N2B N 0.1644(3) 1.0204(2) -0.2480(3)
N3B N 0.2085(3) 1.0942(2) -0.2521(3)
N4B N -0.0566(3) 1.1891(2) -0.5451(3)
N5B N -0.1133(3) 1.1257(2) -0.6074(3)
N5B_2 N 0.8867(3) 1.1257(2) 0.3926(3)
N5_2 N 0.1133(3) 0.8743(2) -0.3926(3)
N6B N -0.2293(4) 1.2085(3) -0.5799(3)
C1B C 0.2469(4) 0.9834(3) -0.1707(3)
H1B H 0.2416 0.9307 -0.1495
C2B C 0.3122(4) 1.0974(3) -0.1793(3)
H2B H 0.3592 1.1417 -0.1678
C3B C 0.1447(4) 1.1546(3) -0.3281(3)
H3B H 0.0725 1.1595 -0.3308
H4B H 0.1810 1.2073 -0.3083
C4B C 0.1311(3) 1.1315(3) -0.4344(3)
C5B C 0.0614(4) 1.1988(3) -0.5119(3)
H5B H 0.0748 1.1967 -0.5713
H6B H 0.0848 1.2521 -0.4801
C6B C -0.1263(4) 1.2373(3) -0.5300(4)
H7B H -0.1063 1.2845 -0.4902
C7B C -0.2162(4) 1.1403(3) -0.6249(4)
H8B H -0.2747 1.1062 -0.6652
C8B C 0.2436(4) 1.1307(3) -0.4335(4)
C9B C 0.3102(5) 1.1992(4) -0.4134(5)
C10B C 0.4101(6) 1.1983(5) -0.4181(7)
H9B H 0.4538 1.2449 -0.4043
C11B C 0.4409(6) 1.1259(6) -0.4441(7)
C12B C 0.3803(5) 1.0546(5) -0.4646(5)
H10B H 0.4040 1.0061 -0.4812
C13B C 0.2819(4) 1.0599(3) -0.4588(4)
H11B H 0.2388 1.0130 -0.4727
C14B C -0.1618(7) 0.8579(4) -0.2465(6)
H12B H -0.1085 0.8147 -0.2201
H13B H -0.1780 0.8777 -0.1932
H14B H -0.2281 0.8375 -0.3023
C15B C -0.1159(4) 0.9269(3) -0.2842(4)
C16B C -0.1573(5) 1.0051(3) -0.2855(5)
H15B H -0.2032 1.0117 -0.2547
C17B C -0.1357(4) 1.0739(3) -0.3289(4)
C18B C -0.1881(5) 1.1527(3) -0.3247(6)
H16B H -0.2140 1.1802 -0.3894
H17B H -0.2491 1.1422 -0.3106
H18B H -0.1350 1.1864 -0.2715
C19B C 0.5324(6) 0.8583(4) -0.2339(5)
H19B H 0.4818 0.8185 -0.2315
H20B H 0.5057 0.8781 -0.3028
H21B H 0.6034 0.8334 -0.2121
C20B C 0.5421(4) 0.9276(3) -0.1647(4)
C21B C 0.5783(6) 1.0021(3) -0.1809(5)
H22B H 0.5928 1.0048 -0.2370
C22B C 0.5963(4) 1.0739(3) -0.1245(4)
C23B C 0.6478(7) 1.1461(4) -0.1490(7)
H23B H 0.7246 1.1487 -0.1010
H24B H 0.6399 1.1405 -0.2172
H25B H 0.6117 1.1953 -0.1446
O6 O 0.5854(9) 0.3114(8) 0.3804(11)
H26 H 0.5399 0.2754 0.3709
C24 C 0.6167(19) 0.3458(12) 0.4743(11)
H27 H 0.6946 0.3353 0.5163
H28 H 0.5772 0.3187 0.5064
C25 C 0.598(2) 0.4349(10) 0.4745(14)
H29 H 0.5536 0.4534 0.4055
H30 H 0.6674 0.4629 0.5034
H31 H 0.5603 0.4462 0.5148
loop_
_geom_bond_atom_site_label_1
_geom_bond_atom_site_label_2
_geom_bond_site_symmetry_1
_geom_bond_site_symmetry_2
Co1 O1 1_555 1_555
Co2 O4 1_555 1_555
F1 C11 1_555 1_555
F2 C9 1_555 1_555
O1 C4 1_555 1_555
O2 Co1 1_555 1_555
O3 Co1 1_555 1_555
O4 C20 1_555 1_555
O5 Co2 1_555 1_555
N1 Co2 1_555 1_555
N2 Co1 1_555 1_555
N3 N2 1_555 1_555
N4 N5 1_555 1_555
N5 C7 1_555 1_555
N6 C6 1_555 1_555
C1 N1 1_555 1_555
H1 C1 1_555 1_555
C2 N1 1_555 1_555
H2 C2 1_555 1_555
C3 N3 1_555 1_555
H3 C3 1_555 1_555
H4 C3 1_555 1_555
C4 C3 1_555 1_555
C5 N4 1_555 1_555
H5 C5 1_555 1_555
H6 C5 1_555 1_555
C6 N4 1_555 1_555
H7 C6 1_555 1_555
C7 N6 1_555 1_555
H8 C7 1_555 1_555
C8 C4 1_555 1_555
C9 C8 1_555 1_555
C10 C9 1_555 1_555
H9 C10 1_555 1_555
C11 C10 1_555 1_555
C12 C11 1_555 1_555
H10 C12 1_555 1_555
C13 C8 1_555 1_555
H11 C13 1_555 1_555
C14 H12 1_555 1_555
H13 C14 1_555 1_555
H14 C14 1_555 1_555
C15 O3 1_555 1_555
C16 C15 1_555 1_555
H15 C16 1_555 1_555
C17 O2 1_555 1_555
C18 C17 1_555 1_555
H16 C18 1_555 1_555
H17 C18 1_555 1_555
H18 C18 1_555 1_555
C19 H19 1_555 1_555
H20 C19 1_555 1_555
H21 C19 1_555 1_555
C20 C19 1_555 1_555
C21 C20 1_555 1_555
H22 C21 1_555 1_555
C22 O5 1_555 1_555
C23 C22 1_555 1_555
H23 C23 1_555 1_555
H24 C23 1_555 1_555
H25 C23 1_555 1_555
O6 H26 1_555 1_555
C24 O6 1_555 1_555
H27 C24 1_555 1_555
H28 C24 1_555 1_555
C25 C24 1_555 1_555
H29 C25 1_555 1_555
H30 C25 1_555 1_555
H31 C25 1_555 1_555
Co1B O1B 1_555 1_555
Co1B_2 O1 1_555 1_555
Co1_2 O1B 1_555 1_555
F1B C11B 1_555 1_555
F2B C9B 1_555 1_555
O1B C4B 1_555 1_555
O1B_2 Co1 1_555 1_555
O1_2 Co1B 1_555 1_555
O2B Co1B 1_555 1_555
O3B Co1B 1_555 1_555
O4B Co2 1_555 1_555
O5B Co2 1_555 1_555
N1B Co2 1_555 1_555
N2B Co1B 1_555 1_555
N3B N2B 1_555 1_555
N4B N5B 1_555 1_555
N5B Co1_2 1_555 1_555
N5B_2 Co1 1_555 1_555
N5_2 Co1B 1_555 1_555
N6B C6B 1_555 1_555
C1B N1B 1_555 1_555
H1B C1B 1_555 1_555
C2B N1B 1_555 1_555
H2B C2B 1_555 1_555
C3B N3B 1_555 1_555
H3B C3B 1_555 1_555
H4B C3B 1_555 1_555
C4B C3B 1_555 1_555
C5B N4B 1_555 1_555
H5B C5B 1_555 1_555
H6B C5B 1_555 1_555
C6B N4B 1_555 1_555
H7B C6B 1_555 1_555
C7B N5B 1_555 1_555
H8B C7B 1_555 1_555
C8B C4B 1_555 1_555
C9B C8B 1_555 1_555
C10B C9B 1_555 1_555
H9B C10B 1_555 1_555
C11B C10B 1_555 1_555
C12B C11B 1_555 1_555
H10B C12B 1_555 1_555
C13B C8B 1_555 1_555
H11B C13B 1_555 1_555
C14B H12B 1_555 1_555
H13B C14B 1_555 1_555
H14B C14B 1_555 1_555
C15B O3B 1_555 1_555
C16B C15B 1_555 1_555
H15B C16B 1_555 1_555
C17B O2B 1_555 1_555
C18B C17B 1_555 1_555
H16B C18B 1_555 1_555
H17B C18B 1_555 1_555
H18B C18B 1_555 1_555
C19B H19B 1_555 1_555
H20B C19B 1_555 1_555
H21B C19B 1_555 1_555
C20B O4B 1_555 1_555
C21B C20B 1_555 1_555
H22B C21B 1_555 1_555
C22B O5B 1_555 1_555
C23B C22B 1_555 1_555
H23B C23B 1_555 1_555
H24B C23B 1_555 1_555
H25B C23B 1_555 1_555
N2 C1 1_555 1_555
N3 C2 1_555 1_555
N5 Co1B_2 1_555 1_555
C4 C5 1_555 1_555
C12 C13 1_555 1_555
C14 C15 1_555 1_555
C16 C17 1_555 1_555
C21 C22 1_555 1_555
Co1B_2 O1B_2 1_555 1_555
Co1_2 O1_2 1_555 1_555
N2B C1B 1_555 1_555
N3B C2B 1_555 1_555
N6B C7B 1_555 1_555
C4B C5B 1_555 1_555
C12B C13B 1_555 1_555
C14B C15B 1_555 1_555
C16B C17B 1_555 1_555
C19B C20B 1_555 1_555
C21B C22B 1_555 1_555

#END
