
#######################################################################
#
#                 Cambridge Crystallographic Data Centre
#                                CCDC 
#
#######################################################################
#
# If this CIF has been generated from an entry in the Cambridge 
# Structural Database, then it will include bibliographic, chemical, 
# crystal, experimental, refinement or atomic coordinate data resulting 
# from the CCDC's data processing and validation procedures.
#
#######################################################################

data_GUSVIA
_symmetry_cell_setting           monoclinic
_symmetry_space_group_name_H-M   'P 21/c'
_symmetry_Int_Tables_number      14
_space_group_name_Hall           '-P 2ybc'
loop_
_symmetry_equiv_pos_site_id
_symmetry_equiv_pos_as_xyz
1 x,y,z
2 -x,1/2+y,1/2-z
3 -x,-y,-z
4 x,1/2-y,1/2+z
_cell_length_a                   13.480(2)
_cell_length_b                   12.225(2)
_cell_length_c                   22.738(4)
_cell_angle_alpha                90
_cell_angle_beta                 106.871(2)
_cell_angle_gamma                90
_cell_volume                     3585.79
loop_
_atom_site_label
_atom_site_type_symbol
_atom_site_fract_x
_atom_site_fract_y
_atom_site_fract_z
Co1 Co 0.39494(2) 0.17176(2) 0.140939(12)
F1 F 0.27350(13) 0.83090(12) 0.07526(9)
F2 F -0.01761(16) 0.6451(2) -0.04305(12)
F3 F -0.05848(14) 0.49049(13) -0.16293(8)
F4 F -0.07520(11) 0.11214(13) -0.13681(9)
O1 O 0.32112(13) 0.15318(12) 0.20892(7)
O2 O 0.2674(2) 0.06453(19) 0.27710(11)
O3 O 0.44911(12) 0.01429(11) 0.15501(7)
O4 O 0.48262(14) -0.13435(14) 0.21055(9)
O5 O 0.45721(14) 0.57329(13) 0.03961(7)
H1 H 0.5170 0.5602 0.0599
O6 O 0.24895(11) 0.08891(14) -0.11506(7)
H2 H 0.2634 0.1143 -0.1449
O7 O 0.53071(12) 0.21729(14) 0.20931(7)
H3 H 0.5265 0.2663 0.2350
H4 H 0.5901 0.2069 0.2043
N1 N 0.35368(15) 0.34217(14) 0.13681(9)
N2 N 0.28826(16) 0.50623(15) 0.14981(9)
N3 N 0.38468(14) 0.51677(14) 0.14264(8)
N4 N 0.47697(14) 0.79754(14) 0.01057(8)
N5 N 0.41167(16) 0.87588(16) -0.02089(9)
N6 N 0.51929(14) 0.81934(14) -0.07390(8)
N7 N 0.16233(14) 0.05857(15) -0.01693(8)
N8 N 0.09679(16) 0.1122(2) 0.00863(10)
N9 N 0.26069(14) 0.12472(15) 0.06899(8)
N10 N 0.14891(15) -0.08178(16) -0.19638(9)
N11 N 0.11688(19) -0.17879(19) -0.18016(12)
N12 N 0.26230(19) -0.1994(2) -0.20883(12)
C1 C 0.30552(18) 0.0659(2) 0.23344(11)
C2 C 0.3271(2) -0.04198(19) 0.20773(13)
H5 H 0.2701 -0.0574 0.1713
H6 H 0.3265 -0.0983 0.2377
C3 C 0.42731(17) -0.05301(16) 0.19058(10)
C4 C 0.42124(18) 0.41894(17) 0.13497(10)
H7 H 0.4857 0.4062 0.1291
C5 C 0.27374(18) 0.40016(18) 0.14639(11)
H8 H 0.2137 0.3673 0.1502
C6 C 0.42936(19) 0.62317(17) 0.13769(10)
H9 H 0.5028 0.6219 0.1595
H10 H 0.3968 0.6779 0.1568
C7 C 0.41451(18) 0.65473(17) 0.06988(10)
C8 C 0.47509(18) 0.76181(18) 0.07121(10)
H11 H 0.4439 0.8188 0.0897
H12 H 0.5458 0.7516 0.0969
C9 C 0.53939(18) 0.76580(19) -0.02140(10)
H13 H 0.5906 0.7128 -0.0086
C10 C 0.44056(18) 0.88563(19) -0.07087(10)
H14 H 0.4092 0.9346 -0.1020
C11 C 0.29984(19) 0.65903(17) 0.03569(10)
C12 C 0.2517(2) 0.5671(2) 0.00337(12)
H15 H 0.2921 0.5075 -0.0008
C13 C 0.1448(3) 0.5625(3) -0.02277(15)
H16 H 0.1136 0.4999 -0.0433
C14 C 0.0872(2) 0.6503(3) -0.01781(15)
C15 C 0.1291(2) 0.7436(2) 0.01309(13)
H17 H 0.0884 0.8039 0.0155
C16 C 0.23392(19) 0.74310(19) 0.04023(11)
C17 C 0.1601(2) 0.1497(2) 0.05985(12)
H18 H 0.1372 0.1906 0.0878
C18 C 0.25819(17) 0.06639(17) 0.01961(10)
H19 H 0.3159 0.0352 0.0117
C19 C 0.12462(18) 0.00570(19) -0.07661(10)
H20 H 0.0514 -0.0105 -0.0847
H21 H 0.1609 -0.0631 -0.0757
C20 C 0.14012(17) 0.07731(19) -0.12891(10)
C21 C 0.09624(19) 0.0195(2) -0.19158(11)
H22 H 0.0232 0.0044 -0.1979
H23 H 0.1018 0.0686 -0.2240
C22 C 0.2344(2) -0.0964(2) -0.21345(13)
H24 H 0.2696 -0.0409 -0.2269
C23 C 0.1883(3) -0.2462(3) -0.18837(16)
H25 H 0.1875 -0.3208 -0.1806
C24 C 0.08667(17) 0.18920(19) -0.13489(10)
C25 C -0.01766(18) 0.2024(2) -0.14008(11)
C26 C -0.0679(2) 0.3012(2) -0.14832(12)
H26 H -0.1374 0.3068 -0.1498
C27 C -0.0114(2) 0.3907(2) -0.15417(12)
C28 C 0.0902(2) 0.3847(2) -0.15127(13)
H27 H 0.1266 0.4471 -0.1561
C29 C 0.1391(2) 0.2837(2) -0.14093(12)
H28 H 0.2092 0.2794 -0.1380
Co1B Co 0.60506(2) 0.82824(2) -0.140939(12)
N6B N 0.48071(14) 0.18066(14) 0.07390(8)
O8 O 0.67658(15) 0.66924(16) 0.70267(9)
H29 H 0.6160 0.6496 0.7040
H30 H 0.7025 0.7165 0.7310
O9 O 0.8983(2) 0.7570(3) 0.80635(16)
H31 H 0.9508 0.7999 0.8120
H32 H 0.8430 0.7963 0.7983
O10 O 0.6451(2) 0.0066(3) 0.61120(16)
H33 H 0.678(4) -0.004(3) 0.6487(5)
H34 H 0.650(3) -0.0493(17) 0.5901(12)
loop_
_geom_bond_atom_site_label_1
_geom_bond_atom_site_label_2
_geom_bond_site_symmetry_1
_geom_bond_site_symmetry_2
Co1 O1 1_555 1_555
F1 C16 1_555 1_555
F2 C14 1_555 1_555
F3 C27 1_555 1_555
F4 C25 1_555 1_555
O1 C1 1_555 1_555
O2 C1 1_555 1_555
O3 Co1 1_555 1_555
O4 C3 1_555 1_555
O5 H1 1_555 1_555
O6 H2 1_555 1_555
O7 Co1 1_555 1_555
H3 O7 1_555 1_555
H4 O7 1_555 1_555
N1 Co1 1_555 1_555
N2 N3 1_555 1_555
N3 C4 1_555 1_555
N4 N5 1_555 1_555
N5 C10 1_555 1_555
N6 C9 1_555 1_555
N7 N8 1_555 1_555
N8 C17 1_555 1_555
N9 Co1 1_555 1_555
N10 N11 1_555 1_555
N11 C23 1_555 1_555
N12 C22 1_555 1_555
C1 C2 1_555 1_555
C2 H5 1_555 1_555
H6 C2 1_555 1_555
C3 O3 1_555 1_555
C4 N1 1_555 1_555
H7 C4 1_555 1_555
C5 N1 1_555 1_555
H8 C5 1_555 1_555
C6 N3 1_555 1_555
H9 C6 1_555 1_555
H10 C6 1_555 1_555
C7 O5 1_555 1_555
C8 N4 1_555 1_555
H11 C8 1_555 1_555
H12 C8 1_555 1_555
C9 N4 1_555 1_555
H13 C9 1_555 1_555
C10 N6 1_555 1_555
H14 C10 1_555 1_555
C11 C7 1_555 1_555
C12 C11 1_555 1_555
H15 C12 1_555 1_555
C13 C12 1_555 1_555
H16 C13 1_555 1_555
C14 C13 1_555 1_555
C15 C14 1_555 1_555
H17 C15 1_555 1_555
C16 C11 1_555 1_555
C17 N9 1_555 1_555
H18 C17 1_555 1_555
C18 N7 1_555 1_555
H19 C18 1_555 1_555
C19 N7 1_555 1_555
H20 C19 1_555 1_555
H21 C19 1_555 1_555
C20 O6 1_555 1_555
C21 N10 1_555 1_555
H22 C21 1_555 1_555
H23 C21 1_555 1_555
C22 N10 1_555 1_555
H24 C22 1_555 1_555
C23 N12 1_555 1_555
H25 C23 1_555 1_555
C24 C20 1_555 1_555
C25 C24 1_555 1_555
C26 C25 1_555 1_555
H26 C26 1_555 1_555
C27 C26 1_555 1_555
C28 C27 1_555 1_555
H27 C28 1_555 1_555
C29 C24 1_555 1_555
H28 C29 1_555 1_555
O8 H29 1_555 1_555
H30 O8 1_555 1_555
O9 H31 1_555 1_555
H32 O9 1_555 1_555
O10 H33 1_555 1_555
H34 O10 1_555 1_555
Co1B N6 1_555 1_555
N6B Co1 1_555 1_555
N2 C5 1_555 1_555
N9 C18 1_555 1_555
C2 C3 1_555 1_555
C6 C7 1_555 1_555
C7 C8 1_555 1_555
C15 C16 1_555 1_555
C19 C20 1_555 1_555
C20 C21 1_555 1_555
C28 C29 1_555 1_555

#END
