
#######################################################################
#
#                 Cambridge Crystallographic Data Centre
#                                CCDC 
#
#######################################################################
#
# If this CIF has been generated from an entry in the Cambridge 
# Structural Database, then it will include bibliographic, chemical, 
# crystal, experimental, refinement or atomic coordinate data resulting 
# from the CCDC's data processing and validation procedures.
#
#######################################################################

data_GUSVOG
_symmetry_cell_setting           triclinic
_symmetry_space_group_name_H-M   'P -1'
_symmetry_Int_Tables_number      2
_space_group_name_Hall           '-P 1'
loop_
_symmetry_equiv_pos_site_id
_symmetry_equiv_pos_as_xyz
1 x,y,z
2 -x,-y,-z
_cell_length_a                   10.8269(8)
_cell_length_b                   11.0011(8)
_cell_length_c                   15.4776(12)
_cell_angle_alpha                85.3150(10)
_cell_angle_beta                 76.8150(10)
_cell_angle_gamma                76.0730(10)
_cell_volume                     1741.44
loop_
_atom_site_label
_atom_site_type_symbol
_atom_site_fract_x
_atom_site_fract_y
_atom_site_fract_z
Co1 Co 0.95199(2) 0.90987(2) 0.682656(17)
F1 F 1.3087(2) 0.19242(17) 0.96130(10)
F2 F 1.07788(14) 0.22355(13) 0.73925(9)
F3 F 0.33539(17) 0.73211(17) 1.06981(9)
F4 F 0.10856(17) 0.42792(17) 1.04992(11)
O1 O 0.88393(13) 1.10054(12) 0.69139(9)
O2 O 0.92419(15) 1.18847(14) 0.55611(10)
O3 O 0.62732(19) 1.54566(16) 0.74292(11)
O4 O 0.60641(16) 1.60470(14) 0.60529(10)
O5 O 1.34888(15) 0.40643(14) 0.57255(10)
H1 H 1.3618 0.4074 0.5182
O6 O 0.44104(14) 0.75236(13) 0.78636(9)
H2 H 0.4962 0.6866 0.7763
O7 O 0.86853(13) 0.90226(13) 0.57504(9)
H3 H 0.7910 0.9439 0.5766
H4 H 0.9186 0.8952 0.5238
O8 O 1.13807(13) 0.90094(14) 0.58869(9)
H5 H 1.1230 0.8895 0.5388
H6 H 1.1944 0.8422 0.6065
N1 N 1.00742(16) 0.70897(15) 0.68279(11)
N2 N 1.04628(19) 0.51081(17) 0.73592(12)
N3 N 1.07305(16) 0.51375(15) 0.64541(11)
N4 N 1.41336(16) 0.12145(15) 0.57844(11)
N5 N 1.40287(17) 0.02455(17) 0.63807(12)
N6 N 1.61229(17) 0.03463(18) 0.58952(13)
N7 N 0.77052(15) 0.90163(16) 0.77313(11)
N8 N 0.59180(17) 0.96409(18) 0.88019(12)
N9 N 0.61131(15) 0.84050(16) 0.86451(11)
N10 N 0.19467(15) 0.90973(15) 0.86354(11)
N11 N 0.08643(18) 0.9003(2) 0.92635(12)
N12 N 0.04624(15) 0.91086(15) 0.78962(11)
C1 C 0.87240(18) 1.19110(18) 0.63708(13)
C2 C 0.7887(2) 1.31233(19) 0.67432(14)
H7 H 0.7729 1.3215 0.7353
C3 C 0.7365(2) 1.4060(2) 0.62724(15)
H8 H 0.7547 1.3965 0.5662
C4 C 0.6502(2) 1.5275(2) 0.66204(15)
C5 C 1.04868(19) 0.63197(18) 0.61553(14)
H9 H 1.0591 0.6570 0.5559
C6 C 1.0091(2) 0.6297(2) 0.75418(14)
H10 H 0.9856 0.6577 0.8120
C7 C 1.1230(2) 0.39822(18) 0.59671(14)
H11 H 1.1261 0.4173 0.5341
H12 H 1.0637 0.3431 0.6167
C8 C 1.26057(19) 0.32937(18) 0.60898(14)
C9 C 1.2965(2) 0.20579(19) 0.55845(14)
H13 H 1.2244 0.1645 0.5746
H14 H 1.3105 0.2247 0.4951
C10 C 1.5378(2) 0.1259(2) 0.55085(15)
H15 H 1.5681 0.1847 0.5102
C11 C 1.5246(2) -0.0235(2) 0.64140(15)
H16 H 1.5490 -0.0932 0.6772
C12 C 1.2707(2) 0.29818(19) 0.70536(14)
C13 C 1.3785(2) 0.3119(2) 0.73506(16)
H17 H 1.4416 0.3468 0.6971
C14 C 1.3930(3) 0.2737(3) 0.82141(19)
H18 H 1.4662 0.2808 0.8407
C15 C 1.2984(3) 0.2261(2) 0.87630(17)
C16 C 1.1910(3) 0.2109(2) 0.85089(16)
H19 H 1.1267 0.1789 0.8900
C17 C 1.1816(2) 0.24495(19) 0.76498(15)
C18 C 0.6897(2) 0.9960(2) 0.82354(14)
H20 H 0.7026 1.0771 0.8184
C19 C 0.71644(19) 0.8053(2) 0.80091(14)
H21 H 0.7477 0.7249 0.7790
C20 C 0.52643(19) 0.7640(2) 0.91604(15)
H22 H 0.4990 0.7917 0.9768
H23 H 0.5749 0.6775 0.9169
C21 C 0.40512(18) 0.77102(18) 0.87821(13)
C22 C 0.31757(19) 0.90364(19) 0.88880(15)
H24 H 0.3005 0.9277 0.9501
H25 H 0.3622 0.9624 0.8519
C23 C 0.16914(19) 0.91437(19) 0.78371(14)
H26 H 0.2292 0.9194 0.7307
C24 C 0.0013(2) 0.9021(3) 0.87824(15)
H27 H -0.0842 0.8976 0.9032
C25 C 0.32922(19) 0.67574(19) 0.92681(13)
C26 C 0.2794(2) 0.6050(2) 0.87898(15)
H28 H 0.2982 0.6126 0.8173
C27 C 0.2032(2) 0.5240(2) 0.91958(16)
H29 H 0.1687 0.4792 0.8863
C28 C 0.1797(2) 0.5112(2) 1.00932(17)
C29 C 0.2240(3) 0.5783(3) 1.06132(17)
H30 H 0.2057 0.5691 1.1229
C30 C 0.2971(2) 0.6602(2) 1.01773(15)
Co1_2 Co -0.04801(2) 0.90987(2) 0.682656(17)
N12_2 N 1.04624(15) 0.91086(15) 0.78962(11)
O9 O 0.33184(16) 0.67831(17) 0.61647(13)
H31 H 0.4073 0.6782 0.6239
H32 H 0.3175 0.6063 0.6136
loop_
_geom_bond_atom_site_label_1
_geom_bond_atom_site_label_2
_geom_bond_site_symmetry_1
_geom_bond_site_symmetry_2
Co1 O1 1_555 1_555
F1 C15 1_555 1_555
F2 C17 1_555 1_555
F3 C30 1_555 1_555
F4 C28 1_555 1_555
O1 C1 1_555 1_555
O2 C1 1_555 1_555
O3 C4 1_555 1_555
O4 C4 1_555 1_555
O5 H1 1_555 1_555
O6 H2 1_555 1_555
O7 Co1 1_555 1_555
H3 O7 1_555 1_555
H4 O7 1_555 1_555
O8 Co1 1_555 1_555
H5 O8 1_555 1_555
H6 O8 1_555 1_555
N1 Co1 1_555 1_555
N2 N3 1_555 1_555
N3 C5 1_555 1_555
N4 N5 1_555 1_555
N5 C11 1_555 1_555
N6 C10 1_555 1_555
N7 Co1 1_555 1_555
N8 N9 1_555 1_555
N9 C19 1_555 1_555
N10 N11 1_555 1_555
N11 C24 1_555 1_555
N12 C23 1_555 1_555
C1 C2 1_555 1_555
C2 H7 1_555 1_555
C3 C2 1_555 1_555
H8 C3 1_555 1_555
C4 C3 1_555 1_555
C5 N1 1_555 1_555
H9 C5 1_555 1_555
C6 N1 1_555 1_555
H10 C6 1_555 1_555
C7 N3 1_555 1_555
H11 C7 1_555 1_555
H12 C7 1_555 1_555
C8 O5 1_555 1_555
C9 N4 1_555 1_555
H13 C9 1_555 1_555
H14 C9 1_555 1_555
C10 N4 1_555 1_555
H15 C10 1_555 1_555
C11 N6 1_555 1_555
H16 C11 1_555 1_555
C12 C8 1_555 1_555
C13 C12 1_555 1_555
H17 C13 1_555 1_555
C14 C13 1_555 1_555
H18 C14 1_555 1_555
C15 C14 1_555 1_555
C16 C15 1_555 1_555
H19 C16 1_555 1_555
C17 C12 1_555 1_555
C18 N7 1_555 1_555
H20 C18 1_555 1_555
C19 N7 1_555 1_555
H21 C19 1_555 1_555
C20 N9 1_555 1_555
H22 C20 1_555 1_555
H23 C20 1_555 1_555
C21 O6 1_555 1_555
C22 N10 1_555 1_555
H24 C22 1_555 1_555
H25 C22 1_555 1_555
C23 N10 1_555 1_555
H26 C23 1_555 1_555
C24 N12 1_555 1_555
H27 C24 1_555 1_555
C25 C21 1_555 1_555
C26 C25 1_555 1_555
H28 C26 1_555 1_555
C27 C26 1_555 1_555
H29 C27 1_555 1_555
C28 C27 1_555 1_555
C29 C28 1_555 1_555
H30 C29 1_555 1_555
C30 C25 1_555 1_555
O9 H31 1_555 1_555
H32 O9 1_555 1_555
Co1_2 N12 1_555 1_555
N12_2 Co1 1_555 1_555
N2 C6 1_555 1_555
N8 C18 1_555 1_555
C7 C8 1_555 1_555
C8 C9 1_555 1_555
C16 C17 1_555 1_555
C20 C21 1_555 1_555
C21 C22 1_555 1_555
C29 C30 1_555 1_555

#END
