
#######################################################################
#
#                 Cambridge Crystallographic Data Centre
#                                CCDC 
#
#######################################################################
#
# If this CIF has been generated from an entry in the Cambridge 
# Structural Database, then it will include bibliographic, chemical, 
# crystal, experimental, refinement or atomic coordinate data resulting 
# from the CCDC's data processing and validation procedures.
#
#######################################################################

data_GUSWOH
_symmetry_cell_setting           monoclinic
_symmetry_space_group_name_H-M   'P 21/n'
_symmetry_Int_Tables_number      14
_space_group_name_Hall           '-P 2yn'
loop_
_symmetry_equiv_pos_site_id
_symmetry_equiv_pos_as_xyz
1 x,y,z
2 1/2-x,1/2+y,1/2-z
3 -x,-y,-z
4 1/2+x,1/2-y,1/2+z
_cell_length_a                   7.1971(14)
_cell_length_b                   26.820(5)
_cell_length_c                   9.753(2)
_cell_angle_alpha                90
_cell_angle_beta                 94.00(3)
_cell_angle_gamma                90
_cell_volume                     1878
loop_
_atom_site_label
_atom_site_type_symbol
_atom_site_fract_x
_atom_site_fract_y
_atom_site_fract_z
Pr1 Pr 0.16213(2) 0.052335(6) 0.890755(14)
O1 O 0.0305(3) 0.11919(8) 0.7211(2)
O2 O 0.2188(3) 0.14642(8) 0.8909(2)
O3 O 0.1764(7) 0.30737(13) 0.9435(3)
O4 O 0.2193(5) 0.23087(12) 1.0068(3)
H1 H 0.2465 0.2025 0.9785
O5 O -0.0036(3) 0.00779(9) 0.6960(2)
O6 O -0.1332(3) -0.00950(8) 0.88579(19)
O7 O -0.6632(3) -0.02620(8) 0.8852(2)
O8 O -0.4216(3) -0.07315(8) 0.9519(2)
O9 O -0.0949(3) 0.09465(8) 1.0049(2)
H2 H -0.1581 0.0728 1.0486
H3 H -0.1500 0.1236 0.9863
N1 N 0.1861(4) 0.24221(11) 0.3354(3)
H4 H 0.1684 0.2195 0.2737
N2 N 0.2427(4) 0.31727(11) 0.4273(3)
N3 N -0.3957(3) -0.06941(10) 0.2977(2)
N4 N -0.6680(3) -0.09286(10) 0.3738(2)
H5 H -0.7797 -0.1043 0.3720
C1 C 0.1307(4) 0.15370(12) 0.7761(3)
C2 C 0.1554(4) 0.20158(12) 0.6989(3)
C3 C 0.1486(5) 0.19484(12) 0.5570(3)
H6 H 0.1227 0.1638 0.5180
C4 C 0.1816(5) 0.23592(13) 0.4757(3)
C5 C 0.2234(5) 0.29061(13) 0.3133(4)
H7 H 0.2344 0.3040 0.2263
C6 C 0.2161(5) 0.28325(12) 0.5324(4)
C7 C 0.2177(5) 0.29027(13) 0.6738(4)
H8 H 0.2366 0.3219 0.7111
C8 C 0.1909(5) 0.24969(13) 0.7591(3)
C9 C 0.1930(6) 0.26344(15) 0.9096(4)
C10 C -0.1337(4) -0.01198(11) 0.7553(3)
C11 C -0.2876(4) -0.03660(11) 0.6687(3)
C12 C -0.2544(4) -0.04154(11) 0.5296(3)
H9 H -0.1412 -0.0316 0.4979
C13 C -0.3923(4) -0.06149(11) 0.4397(3)
C14 C -0.5617(4) -0.08814(12) 0.2652(3)
H10 H -0.6024 -0.0973 0.1762
C15 C -0.5633(4) -0.07592(11) 0.4870(3)
C16 C -0.6022(4) -0.07002(12) 0.6244(3)
H11 H -0.7178 -0.0786 0.6544
C17 C -0.4630(4) -0.05093(11) 0.7146(3)
C18 C -0.5149(4) -0.04873(10) 0.8622(3)
Pr1B Pr -0.16213(2) -0.052335(6) 1.109245(14)
Pr1_2 Pr -0.83787(2) 0.052335(6) 0.890755(14)
Pr1B_2 Pr -0.16213(2) -0.052335(6) 0.109245(14)
O6B O 0.1332(3) 0.00950(8) 1.11421(19)
O7_2 O 0.3368(3) -0.02620(8) 0.8852(2)
O8B O 0.4216(3) 0.07315(8) 1.0481(2)
N3B N 0.3957(3) 0.06941(10) 0.7023(2)
O10 O 0.1569(9) 0.14762(16) 0.2193(5)
H12 H 0.0946 0.1417 0.1475
H13 H 0.2318 0.1251 0.2370
loop_
_geom_bond_atom_site_label_1
_geom_bond_atom_site_label_2
_geom_bond_site_symmetry_1
_geom_bond_site_symmetry_2
Pr1 O1 1_555 1_555
O1 C1 1_555 1_555
O2 Pr1 1_555 1_555
O3 C9 1_555 1_555
O4 H1 1_555 1_555
O5 Pr1 1_555 1_555
O6 Pr1 1_555 1_555
O7 C18 1_555 1_555
O8 C18 1_555 1_555
O9 Pr1 1_555 1_555
H2 O9 1_555 1_555
H3 O9 1_555 1_555
N1 H4 1_555 1_555
N2 C5 1_555 1_555
N3 C13 1_555 1_555
N4 H5 1_555 1_555
C1 O2 1_555 1_555
C2 C1 1_555 1_555
C3 C2 1_555 1_555
H6 C3 1_555 1_555
C4 N1 1_555 1_555
C5 N1 1_555 1_555
H7 C5 1_555 1_555
C6 N2 1_555 1_555
C7 C6 1_555 1_555
H8 C7 1_555 1_555
C8 C2 1_555 1_555
C9 O4 1_555 1_555
C10 O5 1_555 1_555
C11 C10 1_555 1_555
C12 C11 1_555 1_555
H9 C12 1_555 1_555
C13 C12 1_555 1_555
C14 N3 1_555 1_555
H10 C14 1_555 1_555
C15 N4 1_555 1_555
C16 C15 1_555 1_555
H11 C16 1_555 1_555
C17 C11 1_555 1_555
C18 C17 1_555 1_555
O10 H12 1_555 1_555
H13 O10 1_555 1_555
Pr1B O6 1_555 1_555
Pr1_2 O7 1_555 1_555
Pr1B_2 N3 1_555 1_555
O6B Pr1 1_555 1_555
O7_2 Pr1 1_555 1_555
O8B Pr1 1_555 1_555
N3B Pr1 1_555 1_555
O6 C10 1_555 1_555
O8 Pr1B 1_555 1_555
N4 C14 1_555 1_555
C3 C4 1_555 1_555
C4 C6 1_555 1_555
C7 C8 1_555 1_555
C8 C9 1_555 1_555
C13 C15 1_555 1_555
C16 C17 1_555 1_555
Pr1B O6B 1_555 1_555

#END
