
#######################################################################
#
#                 Cambridge Crystallographic Data Centre
#                                CCDC 
#
#######################################################################
#
# If this CIF has been generated from an entry in the Cambridge 
# Structural Database, then it will include bibliographic, chemical, 
# crystal, experimental, refinement or atomic coordinate data resulting 
# from the CCDC's data processing and validation procedures.
#
#######################################################################

data_GUSWIB
_symmetry_cell_setting           monoclinic
_symmetry_space_group_name_H-M   'P 21/c'
_symmetry_Int_Tables_number      14
_space_group_name_Hall           '-P 2ybc'
loop_
_symmetry_equiv_pos_site_id
_symmetry_equiv_pos_as_xyz
1 x,y,z
2 -x,1/2+y,1/2-z
3 -x,-y,-z
4 x,1/2-y,1/2+z
_cell_length_a                   13.916(2)
_cell_length_b                   17.252(3)
_cell_length_c                   10.5362(17)
_cell_angle_alpha                90
_cell_angle_beta                 100.035(2)
_cell_angle_gamma                90
_cell_volume                     2490.82
loop_
_atom_site_label
_atom_site_type_symbol
_atom_site_fract_x
_atom_site_fract_y
_atom_site_fract_z
Tb1 Tb 0.380891(15) 0.272559(12) 0.70980(2)
Tb2 Tb 0.112600(15) 0.232775(12) 0.80072(2)
O1 O 0.4946(2) 0.19731(17) 0.8337(3)
O2 O 0.6114(3) 0.1205(2) 0.7873(5)
O3 O 0.2904(2) 0.19073(17) 0.8254(3)
O4 O 0.3496(2) 0.15557(18) 1.0265(3)
O5 O 0.3948(2) 0.36316(19) 0.8701(3)
O6 O 0.3907(3) 0.32727(19) 1.0710(4)
O7 O 0.1858(3) 0.32114(19) 0.9541(4)
O8 O 0.1280(2) 0.35374(18) 1.1323(3)
O9 O 0.2109(2) 0.30824(18) 0.6755(3)
O10 O 0.1407(2) 0.34725(17) 0.4785(3)
O11 O 0.0044(2) 0.30286(18) 0.6570(3)
O12 O -0.1290(2) 0.3757(2) 0.6173(4)
O13 O -0.0058(3) 0.2904(2) 0.9198(4)
H1 H -0.0148 0.2874 0.9945
H2 H -0.0625 0.3057 0.9045
N1 N 0.4660(3) -0.1562(2) 0.8128(4)
N2 N 0.3189(3) -0.1413(2) 0.8611(5)
H3 H 0.2623 -0.1531 0.8776
N3 N 0.3390(3) 0.6608(2) 1.0149(5)
H4 H 0.3923 0.6795 0.9968
N4 N 0.1936(3) 0.6576(2) 1.0701(5)
N5 N 0.0389(3) 0.6499(2) 0.7344(4)
N6 N 0.1964(3) 0.6319(2) 0.7296(4)
H5 H 0.2572 0.6423 0.7334
C1 C 0.5313(3) 0.1301(3) 0.8174(5)
C2 C 0.4690(3) 0.0601(2) 0.8340(5)
C3 C 0.5068(3) -0.0126(3) 0.8145(5)
H6 H 0.5684 -0.0181 0.7929
C4 C 0.4491(3) -0.0771(3) 0.8282(5)
C5 C 0.3865(3) -0.1912(3) 0.8335(5)
H7 H 0.3778 -0.2446 0.8295
C6 C 0.3568(3) -0.0677(3) 0.8582(5)
C7 C 0.3179(3) 0.0046(3) 0.8804(5)
H8 H 0.2565 0.0096 0.9028
C8 C 0.3755(3) 0.0682(3) 0.8672(5)
C9 C 0.3381(3) 0.1442(2) 0.9095(5)
C10 C 0.3694(3) 0.3733(3) 0.9767(5)
C11 C 0.3162(4) 0.4474(3) 0.9993(5)
C12 C 0.3620(4) 0.5168(3) 0.9851(5)
H9 H 0.4218 0.5190 0.9572
C13 C 0.3141(4) 0.5839(3) 1.0145(5)
C14 C 0.2643(4) 0.7020(3) 1.0488(6)
H10 H 0.2639 0.7557 1.0560
C15 C 0.2224(4) 0.5823(3) 1.0509(5)
C16 C 0.1759(4) 0.5114(3) 1.0628(5)
H11 H 0.1144 0.5093 1.0858
C17 C 0.2247(3) 0.4447(3) 1.0390(5)
C18 C 0.1750(4) 0.3669(3) 1.0432(5)
C19 C 0.1598(3) 0.3551(3) 0.5965(5)
C20 C 0.1245(3) 0.4296(2) 0.6485(5)
C21 C 0.1908(3) 0.4903(3) 0.6725(5)
H12 H 0.2566 0.4840 0.6686
C22 C 0.1525(3) 0.5608(3) 0.7026(5)
C23 C 0.1268(3) 0.6815(3) 0.7487(6)
H13 H 0.1389 0.7334 0.7699
C24 C 0.0536(3) 0.5728(3) 0.7054(5)
C25 C -0.0110(3) 0.5106(3) 0.6838(5)
H14 H -0.0769 0.5171 0.6872
C26 C 0.0252(3) 0.4389(3) 0.6574(5)
C27 C -0.0398(3) 0.3685(3) 0.6422(5)
Tb1C Tb 0.380891(15) 0.227441(12) 1.20980(2)
Tb1A Tb 0.619109(15) -0.227441(12) 0.79020(2)
Tb2C Tb 0.112600(15) 0.267225(12) 1.30072(2)
Tb2C_2 Tb 0.112600(15) 0.267225(12) 0.30072(2)
Tb2A Tb -0.112600(15) 0.732775(12) 0.69928(2)
O4C O 0.3496(2) 0.34443(18) 0.5265(3)
O6C O 0.3907(3) 0.17273(19) 0.5710(4)
O8C O 0.1280(2) 0.14626(18) 0.6323(3)
O10C O 0.1407(2) 0.15275(17) 0.9785(3)
N1A N 0.5340(3) 0.3438(2) 0.6872(4)
N5A N -0.0389(3) 0.1499(2) 0.7656(4)
loop_
_geom_bond_atom_site_label_1
_geom_bond_atom_site_label_2
_geom_bond_site_symmetry_1
_geom_bond_site_symmetry_2
Tb1 O1 1_555 1_555
Tb2 O3 1_555 1_555
O1 C1 1_555 1_555
O2 C1 1_555 1_555
O3 Tb1 1_555 1_555
O4 C9 1_555 1_555
O5 Tb1 1_555 1_555
O6 C10 1_555 1_555
O7 Tb2 1_555 1_555
O8 C18 1_555 1_555
O9 Tb1 1_555 1_555
O10 C19 1_555 1_555
O11 Tb2 1_555 1_555
O12 C27 1_555 1_555
O13 Tb2 1_555 1_555
H1 O13 1_555 1_555
H2 O13 1_555 1_555
N1 C4 1_555 1_555
N2 H3 1_555 1_555
N3 H4 1_555 1_555
N4 C14 1_555 1_555
N5 C23 1_555 1_555
N6 H5 1_555 1_555
C1 C2 1_555 1_555
C2 C3 1_555 1_555
C3 H6 1_555 1_555
C4 C3 1_555 1_555
C5 N1 1_555 1_555
H7 C5 1_555 1_555
C6 N2 1_555 1_555
C7 C6 1_555 1_555
H8 C7 1_555 1_555
C8 C2 1_555 1_555
C9 O3 1_555 1_555
C10 O5 1_555 1_555
C11 C10 1_555 1_555
C12 C11 1_555 1_555
H9 C12 1_555 1_555
C13 N3 1_555 1_555
C14 N3 1_555 1_555
H10 C14 1_555 1_555
C15 N4 1_555 1_555
C16 C15 1_555 1_555
H11 C16 1_555 1_555
C17 C11 1_555 1_555
C18 O7 1_555 1_555
C19 O9 1_555 1_555
C20 C19 1_555 1_555
C21 C20 1_555 1_555
H12 C21 1_555 1_555
C22 N6 1_555 1_555
C23 N6 1_555 1_555
H13 C23 1_555 1_555
C24 N5 1_555 1_555
C25 C24 1_555 1_555
H14 C25 1_555 1_555
C26 C20 1_555 1_555
C27 O11 1_555 1_555
Tb1C O4 1_555 1_555
Tb1A N1 1_555 1_555
Tb2C O8 1_555 1_555
Tb2C_2 O10 1_555 1_555
Tb2A N5 1_555 1_555
O4C Tb1 1_555 1_555
O6C Tb1 1_555 1_555
O8C Tb2 1_555 1_555
O10C Tb2 1_555 1_555
N1A Tb1 1_555 1_555
N5A Tb2 1_555 1_555
Tb2 O9 1_555 1_555
O6 Tb1C 1_555 1_555
N2 C5 1_555 1_555
C4 C6 1_555 1_555
C7 C8 1_555 1_555
C8 C9 1_555 1_555
C12 C13 1_555 1_555
C13 C15 1_555 1_555
C16 C17 1_555 1_555
C17 C18 1_555 1_555
C21 C22 1_555 1_555
C22 C24 1_555 1_555
C25 C26 1_555 1_555
C26 C27 1_555 1_555

#END
