
#######################################################################
#
#                 Cambridge Crystallographic Data Centre
#                                CCDC 
#
#######################################################################
#
# If this CIF has been generated from an entry in the Cambridge 
# Structural Database, then it will include bibliographic, chemical, 
# crystal, experimental, refinement or atomic coordinate data resulting 
# from the CCDC's data processing and validation procedures.
#
#######################################################################

data_GUSWEX
_symmetry_cell_setting           monoclinic
_symmetry_space_group_name_H-M   'P 21/c'
_symmetry_Int_Tables_number      14
_space_group_name_Hall           '-P 2ybc'
loop_
_symmetry_equiv_pos_site_id
_symmetry_equiv_pos_as_xyz
1 x,y,z
2 -x,1/2+y,1/2-z
3 -x,-y,-z
4 x,1/2-y,1/2+z
_cell_length_a                   13.904(2)
_cell_length_b                   17.287(3)
_cell_length_c                   10.5673(15)
_cell_angle_alpha                90
_cell_angle_beta                 99.860(2)
_cell_angle_gamma                90
_cell_volume                     2502.42
loop_
_atom_site_label
_atom_site_type_symbol
_atom_site_fract_x
_atom_site_fract_y
_atom_site_fract_z
Eu1 Eu 0.383111(14) 0.270801(11) 0.709133(19)
Eu2 Eu 0.112393(14) 0.233633(12) 0.802778(19)
O1 O 0.4954(2) 0.19378(17) 0.8350(3)
O2 O 0.6108(2) 0.1157(2) 0.7867(4)
O3 O 0.2906(2) 0.18893(17) 0.8252(3)
O4 O 0.3522(2) 0.15567(17) 1.0262(3)
O5 O 0.3971(2) 0.36479(18) 0.8679(3)
O6 O 0.3957(2) 0.32957(18) 1.0694(3)
O7 O 0.1902(2) 0.32052(18) 0.9589(3)
O8 O 0.1290(2) 0.35522(17) 1.1333(3)
O9 O 0.2123(2) 0.30941(17) 0.6761(3)
O10 O 0.1416(2) 0.34842(17) 0.4801(3)
O11 O 0.0047(2) 0.30452(17) 0.6563(3)
O12 O -0.1273(2) 0.3789(2) 0.6152(4)
O13 O -0.0060(2) 0.2909(2) 0.9219(3)
H1 H -0.0645 0.3010 0.9106
H2 H 0.0266 0.3071 0.9887
N1 N 0.4606(3) -0.1582(2) 0.8157(4)
N2 N 0.3167(3) -0.1424(2) 0.8662(4)
H3 H 0.2604 -0.1539 0.8844
N3 N 0.3387(3) 0.6614(2) 1.0106(4)
H4 H 0.3913 0.6804 0.9908
N4 N 0.1960(3) 0.6579(2) 1.0712(4)
N5 N 0.0417(3) 0.6507(2) 0.7347(4)
N6 N 0.1975(3) 0.6329(2) 0.7278(4)
H5 H 0.2583 0.6434 0.7306
C1 C 0.5308(3) 0.1263(3) 0.8173(5)
C2 C 0.4679(3) 0.0572(2) 0.8341(4)
C3 C 0.5036(3) -0.0152(2) 0.8146(4)
H6 H 0.5649 -0.0213 0.7921
C4 C 0.4454(3) -0.0791(2) 0.8293(4)
C5 C 0.3815(3) -0.1930(2) 0.8385(5)
H7 H 0.3721 -0.2463 0.8355
C6 C 0.3529(3) -0.0692(3) 0.8615(4)
C7 C 0.3156(3) 0.0030(2) 0.8827(4)
H8 H 0.2540 0.0088 0.9047
C8 C 0.3741(3) 0.0660(2) 0.8696(4)
C9 C 0.3385(3) 0.1433(2) 0.9091(4)
C10 C 0.3726(3) 0.3748(2) 0.9766(4)
C11 C 0.3187(3) 0.4483(2) 0.9976(4)
C12 C 0.3637(3) 0.5175(3) 0.9818(4)
H9 H 0.4231 0.5198 0.9528
C13 C 0.3154(3) 0.5844(3) 1.0117(5)
C14 C 0.2652(4) 0.7022(3) 1.0458(5)
H10 H 0.2643 0.7559 1.0513
C15 C 0.2253(3) 0.5823(3) 1.0520(4)
C16 C 0.1802(3) 0.5112(3) 1.0660(4)
H11 H 0.1196 0.5093 1.0919
C17 C 0.2267(3) 0.4448(2) 1.0411(4)
C18 C 0.1786(3) 0.3673(2) 1.0457(4)
C19 C 0.1609(3) 0.3569(2) 0.5977(4)
C20 C 0.1274(3) 0.4308(2) 0.6501(4)
C21 C 0.1933(3) 0.4913(2) 0.6737(4)
H12 H 0.2591 0.4850 0.6697
C22 C 0.1552(3) 0.5619(3) 0.7035(4)
C23 C 0.1287(3) 0.6827(3) 0.7464(5)
H13 H 0.1406 0.7347 0.7655
C24 C 0.0563(3) 0.5732(3) 0.7072(4)
C25 C -0.0091(3) 0.5118(3) 0.6855(4)
H14 H -0.0749 0.5187 0.6892
C26 C 0.0270(3) 0.4401(2) 0.6584(4)
C27 C -0.0385(3) 0.3703(2) 0.6411(4)
Eu1C Eu 0.383111(14) 0.229199(11) 1.209133(19)
Eu1A Eu 0.616889(14) -0.229199(11) 0.790867(19)
Eu2C Eu 0.112393(14) 0.266367(12) 1.302778(19)
Eu2C_2 Eu 0.112393(14) 0.266367(12) 0.302778(19)
Eu2A Eu -0.112393(14) 0.733633(12) 0.697222(19)
O4C O 0.3522(2) 0.34433(17) 0.5262(3)
O6C O 0.3957(2) 0.17043(18) 0.5694(3)
O8C O 0.1290(2) 0.14478(17) 0.6333(3)
O10C O 0.1416(2) 0.15158(17) 0.9801(3)
N1A N 0.5394(3) 0.3418(2) 0.6843(4)
N5A N -0.0417(3) 0.1507(2) 0.7653(4)
loop_
_geom_bond_atom_site_label_1
_geom_bond_atom_site_label_2
_geom_bond_site_symmetry_1
_geom_bond_site_symmetry_2
Eu1 O1 1_555 1_555
Eu2 O3 1_555 1_555
O1 C1 1_555 1_555
O2 C1 1_555 1_555
O3 Eu1 1_555 1_555
O4 C9 1_555 1_555
O5 Eu1 1_555 1_555
O6 C10 1_555 1_555
O7 Eu2 1_555 1_555
O8 C18 1_555 1_555
O9 Eu1 1_555 1_555
O10 C19 1_555 1_555
O11 Eu2 1_555 1_555
O12 C27 1_555 1_555
O13 Eu2 1_555 1_555
H1 O13 1_555 1_555
H2 O13 1_555 1_555
N1 C4 1_555 1_555
N2 H3 1_555 1_555
N3 H4 1_555 1_555
N4 C14 1_555 1_555
N5 C23 1_555 1_555
N6 H5 1_555 1_555
C1 C2 1_555 1_555
C2 C3 1_555 1_555
C3 H6 1_555 1_555
C4 C3 1_555 1_555
C5 N1 1_555 1_555
H7 C5 1_555 1_555
C6 N2 1_555 1_555
C7 C6 1_555 1_555
H8 C7 1_555 1_555
C8 C2 1_555 1_555
C9 O3 1_555 1_555
C10 O5 1_555 1_555
C11 C10 1_555 1_555
C12 C11 1_555 1_555
H9 C12 1_555 1_555
C13 N3 1_555 1_555
C14 N3 1_555 1_555
H10 C14 1_555 1_555
C15 N4 1_555 1_555
C16 C15 1_555 1_555
H11 C16 1_555 1_555
C17 C11 1_555 1_555
C18 O7 1_555 1_555
C19 O9 1_555 1_555
C20 C19 1_555 1_555
C21 C20 1_555 1_555
H12 C21 1_555 1_555
C22 N6 1_555 1_555
C23 N6 1_555 1_555
H13 C23 1_555 1_555
C24 N5 1_555 1_555
C25 C24 1_555 1_555
H14 C25 1_555 1_555
C26 C20 1_555 1_555
C27 O11 1_555 1_555
Eu1C O4 1_555 1_555
Eu1A N1 1_555 1_555
Eu2C O8 1_555 1_555
Eu2C_2 O10 1_555 1_555
Eu2A N5 1_555 1_555
O4C Eu1 1_555 1_555
O6C Eu1 1_555 1_555
O8C Eu2 1_555 1_555
O10C Eu2 1_555 1_555
N1A Eu1 1_555 1_555
N5A Eu2 1_555 1_555
Eu2 O9 1_555 1_555
O6 Eu1C 1_555 1_555
N2 C5 1_555 1_555
C4 C6 1_555 1_555
C7 C8 1_555 1_555
C8 C9 1_555 1_555
C12 C13 1_555 1_555
C13 C15 1_555 1_555
C16 C17 1_555 1_555
C17 C18 1_555 1_555
C21 C22 1_555 1_555
C22 C24 1_555 1_555
C25 C26 1_555 1_555
C26 C27 1_555 1_555

#END
