
#######################################################################
#
#                 Cambridge Crystallographic Data Centre
#                                CCDC 
#
#######################################################################
#
# If this CIF has been generated from an entry in the Cambridge 
# Structural Database, then it will include bibliographic, chemical, 
# crystal, experimental, refinement or atomic coordinate data resulting 
# from the CCDC's data processing and validation procedures.
#
#######################################################################

data_GUTBIG
_symmetry_cell_setting           monoclinic
_symmetry_space_group_name_H-M   'P 21/c'
_symmetry_Int_Tables_number      14
_space_group_name_Hall           '-P 2ybc'
loop_
_symmetry_equiv_pos_site_id
_symmetry_equiv_pos_as_xyz
1 x,y,z
2 x,1/2-y,1/2+z
3 -x,-y,-z
4 -x,1/2+y,1/2-z
_cell_length_a                   9.105(13)
_cell_length_b                   18.796(25)
_cell_length_c                   13.531(17)
_cell_angle_alpha                90.00
_cell_angle_beta                 104.860(10)
_cell_angle_gamma                90.00
_cell_volume                     2238.22
loop_
_atom_site_label
_atom_site_type_symbol
_atom_site_fract_x
_atom_site_fract_y
_atom_site_fract_z
Eu1 Eu 0.66429(3) 0.791560(13) 0.80736(2)
N1 N 0.9498(6) 0.8170(3) 0.8896(4)
C1 C 1.0419(7) 0.7605(4) 0.9034(5)
C2 C 1.1979(8) 0.7660(4) 0.9439(6)
C3 C 1.2599(9) 0.8324(5) 0.9685(6)
H1 H 1.3643 0.8381 0.9938
C4 C 1.1651(10) 0.8898(5) 0.9548(6)
H2 H 1.2048 0.9350 0.9719
C5 C 1.0102(9) 0.8810(4) 0.9158(6)
H3 H 0.9469 0.9206 0.9076
C6 C 0.9652(9) 0.6906(4) 0.8702(6)
O1 O 1.2885(6) 0.7083(4) 0.9559(5)
H4 H 1.225(10) 0.677(4) 0.939(9)
O2 O 0.8260(5) 0.6907(2) 0.8291(4)
O3 O 1.0483(6) 0.6356(3) 0.8836(4)
N2 N 0.3776(6) 0.8150(3) 0.7366(4)
C7 C 0.2875(7) 0.7576(3) 0.7150(5)
C8 C 0.1288(8) 0.7636(4) 0.6735(6)
C9 C 0.0685(8) 0.8307(4) 0.6553(6)
H5 H -0.0353 0.8368 0.6274
C10 C 0.1620(8) 0.8887(4) 0.6786(6)
H6 H 0.1218 0.9343 0.6677
C11 C 0.3151(8) 0.8793(4) 0.7181(6)
H7 H 0.3774 0.9191 0.7324
C12 C 0.3637(7) 0.6869(3) 0.7400(5)
O4 O 0.0386(6) 0.7069(3) 0.6534(5)
H8 H 0.095(10) 0.672(4) 0.668(8)
O5 O 0.2835(5) 0.6314(2) 0.7248(4)
O6 O 0.5050(4) 0.6873(2) 0.7749(3)
N3 N 0.6407(7) 0.8914(2) 0.4481(4)
H9 H 0.608(7) 0.861(3) 0.396(3)
C13 C 0.6551(7) 0.8646(3) 0.5429(5)
C14 C 0.6867(7) 0.9120(3) 0.6260(5)
C15 C 0.7057(9) 0.9845(3) 0.6026(6)
H10 H 0.7259 1.0177 0.6553
C16 C 0.6954(10) 1.0068(4) 0.5059(6)
H11 H 0.7145 1.0541 0.4933
C17 C 0.6565(10) 0.9590(3) 0.4259(6)
H12 H 0.6419 0.9739 0.3585
C18 C 0.6484(7) 0.7859(3) 0.5497(5)
O7 O 0.7000(5) 0.8924(2) 0.7189(4)
O8 O 0.6494(5) 0.7577(2) 0.6346(3)
O9 O 0.6470(5) 0.7505(2) 0.4707(3)
O10 O 0.6368(6) 0.8929(2) 0.9077(4)
H13 H 0.656(9) 0.890(3) 0.9702(10)
H14 H 0.624(8) 0.9354(10) 0.895(4)
O9A O 0.6470(5) 0.7495(2) 0.9707(3)
Eu1A Eu 0.66429(3) 0.708440(13) 0.30736(2)
O11 O 0.5422(7) 1.0241(2) 0.8350(5)
H15 H 0.581(8) 1.057(2) 0.811(6)
H16 H 0.471(6) 1.042(3) 0.853(6)
O12 O 0.6829(6) 0.8941(2) 1.1131(4)
H17 H 0.678(7) 0.8529(15) 1.132(5)
H18 H 0.769(4) 0.907(3) 1.141(6)
O13 O 0.9529(9) 0.5449(4) 0.7239(7)
H19 H 1.020(9) 0.515(4) 0.730(9)
H20 H 0.987(11) 0.574(5) 0.770(7)
loop_
_geom_bond_atom_site_label_1
_geom_bond_atom_site_label_2
_geom_bond_site_symmetry_1
_geom_bond_site_symmetry_2
Eu1 N1 1_555 1_555
N1 C1 1_555 1_555
C1 C2 1_555 1_555
C2 C3 1_555 1_555
C3 H1 1_555 1_555
C4 C3 1_555 1_555
H2 C4 1_555 1_555
C5 N1 1_555 1_555
H3 C5 1_555 1_555
C6 C1 1_555 1_555
O1 C2 1_555 1_555
H4 O1 1_555 1_555
O2 Eu1 1_555 1_555
O3 C6 1_555 1_555
N2 Eu1 1_555 1_555
C7 N2 1_555 1_555
C8 C7 1_555 1_555
C9 C8 1_555 1_555
H5 C9 1_555 1_555
C10 C9 1_555 1_555
H6 C10 1_555 1_555
C11 N2 1_555 1_555
H7 C11 1_555 1_555
C12 C7 1_555 1_555
O4 C8 1_555 1_555
H8 O4 1_555 1_555
O5 C12 1_555 1_555
O6 Eu1 1_555 1_555
N3 H9 1_555 1_555
C13 N3 1_555 1_555
C14 C13 1_555 1_555
C15 C14 1_555 1_555
H10 C15 1_555 1_555
C16 C15 1_555 1_555
H11 C16 1_555 1_555
C17 N3 1_555 1_555
H12 C17 1_555 1_555
C18 C13 1_555 1_555
O7 Eu1 1_555 1_555
O8 Eu1 1_555 1_555
O9 C18 1_555 1_555
O10 Eu1 1_555 1_555
H13 O10 1_555 1_555
H14 O10 1_555 1_555
O11 H15 1_555 1_555
H16 O11 1_555 1_555
O12 H17 1_555 1_555
H18 O12 1_555 1_555
O13 H19 1_555 1_555
H20 O13 1_555 1_555
O9A Eu1 1_555 1_555
Eu1A O9 1_555 1_555
C4 C5 1_555 1_555
C6 O2 1_555 1_555
C10 C11 1_555 1_555
C12 O6 1_555 1_555
C14 O7 1_555 1_555
C16 C17 1_555 1_555
C18 O8 1_555 1_555

#END
