
#######################################################################
#
#                 Cambridge Crystallographic Data Centre
#                                CCDC 
#
#######################################################################
#
# If this CIF has been generated from an entry in the Cambridge 
# Structural Database, then it will include bibliographic, chemical, 
# crystal, experimental, refinement or atomic coordinate data resulting 
# from the CCDC's data processing and validation procedures.
#
#######################################################################

data_GUTBUU
_symmetry_cell_setting           orthorhombic
_symmetry_space_group_name_H-M   'P b c a'
_symmetry_Int_Tables_number      61
_space_group_name_Hall           '-P 2ac 2ab'
loop_
_symmetry_equiv_pos_site_id
_symmetry_equiv_pos_as_xyz
1 x,y,z
2 1/2-x,-y,1/2+z
3 1/2+x,1/2-y,-z
4 -x,1/2+y,1/2-z
5 -x,-y,-z
6 1/2+x,y,1/2-z
7 1/2-x,1/2+y,z
8 x,1/2-y,1/2+z
_cell_length_a                   7.36740(10)
_cell_length_b                   18.0273(3)
_cell_length_c                   23.5080(4)
_cell_angle_alpha                90
_cell_angle_beta                 90
_cell_angle_gamma                90
_cell_volume                     3122.2
loop_
_atom_site_label
_atom_site_type_symbol
_atom_site_fract_x
_atom_site_fract_y
_atom_site_fract_z
Cu1 Cu 0.38777(3) 0.337106(13) 0.038305(10)
S1 S 0.49766(7) 0.25696(3) -0.07989(2)
O1 O 0.4073(2) 0.31460(9) -0.04313(6)
O2 O 0.5373(2) 0.25249(9) 0.06125(7)
O3 O 0.4107(3) 0.64711(10) 0.26553(8)
O4 O 0.3525(3) 0.56804(10) 0.34077(7)
O5 O 0.3547(2) 0.21173(9) -0.10576(7)
O6 O 0.6088(2) 0.29295(10) -0.12193(7)
O7 O 0.6083(2) 0.20904(9) -0.04185(6)
N1 N 0.3738(2) 0.37368(9) 0.11692(7)
N2 N 0.3145(2) 0.44175(9) 0.02310(7)
C1 C 0.4027(3) 0.32546(12) 0.16642(9)
H1 H 0.5288 0.3282 0.1781
H2 H 0.3765 0.2745 0.1560
C2 C 0.2833(4) 0.34801(12) 0.21506(9)
H3 H 0.3125 0.3187 0.2484
H4 H 0.1572 0.3392 0.2054
C3 C 0.3119(3) 0.42906(12) 0.22769(9)
C4 C 0.3394(3) 0.47709(11) 0.18130(9)
C5 C 0.3371(3) 0.44346(11) 0.12441(8)
C6 C 0.2912(3) 0.48361(11) 0.07053(8)
C7 C 0.2752(3) 0.47035(12) -0.02778(9)
H5 H 0.2910 0.4411 -0.0600
C8 C 0.2239(3) 0.55488(12) 0.06669(10)
H6 H 0.2046 0.5828 0.0994
C9 C 0.3766(3) 0.55309(12) 0.19046(9)
H7 H 0.4005 0.5852 0.1604
C10 C 0.3756(3) 0.57699(13) 0.24561(10)
C11 C 0.3431(3) 0.52966(13) 0.29081(9)
C12 C 0.3138(3) 0.45539(13) 0.28338(9)
H8 H 0.2960 0.4238 0.3142
C13 C 0.3734(6) 0.64415(17) 0.32478(12)
H9 H 0.2631 0.6714 0.3332
H10 H 0.4724 0.6664 0.3460
C14 C 0.2117(3) 0.54203(13) -0.03425(10)
H11 H 0.1873 0.5611 -0.0702
C15 C 0.1854(3) 0.58430(13) 0.01357(11)
H12 H 0.1419 0.6326 0.0104
H13 H 0.568(4) 0.2334(17) 0.0312(8)
H14 H 0.634(2) 0.2653(16) 0.0760(12)
Cu1B Cu 0.88777(3) 0.162894(13) -0.038305(10)
O7B O 0.1083(2) 0.29096(9) 0.04185(6)
loop_
_geom_bond_atom_site_label_1
_geom_bond_atom_site_label_2
_geom_bond_site_symmetry_1
_geom_bond_site_symmetry_2
Cu1 O1 1_555 1_555
S1 O1 1_555 1_555
O2 Cu1 1_555 1_555
O3 C10 1_555 1_555
O4 C11 1_555 1_555
O5 S1 1_555 1_555
O6 S1 1_555 1_555
O7 S1 1_555 1_555
N1 Cu1 1_555 1_555
N2 Cu1 1_555 1_555
C1 N1 1_555 1_555
H1 C1 1_555 1_555
H2 C1 1_555 1_555
C2 C1 1_555 1_555
H3 C2 1_555 1_555
H4 C2 1_555 1_555
C3 C2 1_555 1_555
C4 C3 1_555 1_555
C5 N1 1_555 1_555
C6 N2 1_555 1_555
C7 N2 1_555 1_555
H5 C7 1_555 1_555
C8 C6 1_555 1_555
H6 C8 1_555 1_555
C9 C4 1_555 1_555
H7 C9 1_555 1_555
C10 C9 1_555 1_555
C11 C10 1_555 1_555
C12 C3 1_555 1_555
H8 C12 1_555 1_555
C13 O3 1_555 1_555
H9 C13 1_555 1_555
H10 C13 1_555 1_555
C14 C7 1_555 1_555
H11 C14 1_555 1_555
C15 C8 1_555 1_555
H12 C15 1_555 1_555
H13 O2 1_555 1_555
H14 O2 1_555 1_555
Cu1B O7 1_555 1_555
O7B Cu1 1_555 1_555
O4 C13 1_555 1_555
C4 C5 1_555 1_555
C5 C6 1_555 1_555
C11 C12 1_555 1_555
C14 C15 1_555 1_555

#END
