
#######################################################################
#
#                 Cambridge Crystallographic Data Centre
#                                CCDC 
#
#######################################################################
#
# If this CIF has been generated from an entry in the Cambridge 
# Structural Database, then it will include bibliographic, chemical, 
# crystal, experimental, refinement or atomic coordinate data resulting 
# from the CCDC's data processing and validation procedures.
#
#######################################################################

data_GUTCEF
_symmetry_cell_setting           rhombohedral
_symmetry_space_group_name_H-M   'R 3 2'
_symmetry_Int_Tables_number      155
_space_group_name_Hall           'R 3 2"'
loop_
_symmetry_equiv_pos_site_id
_symmetry_equiv_pos_as_xyz
1 x,y,z
2 -y,x-y,z
3 -x+y,-x,z
4 y,x,-z
5 x-y,-y,-z
6 -x,-x+y,-z
7 2/3+x,1/3+y,1/3+z
8 2/3-y,1/3+x-y,1/3+z
9 2/3-x+y,1/3-x,1/3+z
10 2/3+y,1/3+x,1/3-z
11 2/3+x-y,1/3-y,1/3-z
12 2/3-x,1/3-x+y,1/3-z
13 1/3+x,2/3+y,2/3+z
14 1/3-y,2/3+x-y,2/3+z
15 1/3-x+y,2/3-x,2/3+z
16 1/3+y,2/3+x,2/3-z
17 1/3+x-y,2/3-y,2/3-z
18 1/3-x,2/3-x+y,2/3-z
_cell_length_a                   26.9207(9)
_cell_length_b                   26.9207(9)
_cell_length_c                   20.9044(14)
_cell_angle_alpha                90
_cell_angle_beta                 90
_cell_angle_gamma                120
_cell_volume                     13120.2
loop_
_atom_site_label
_atom_site_type_symbol
_atom_site_fract_x
_atom_site_fract_y
_atom_site_fract_z
Cd1 Cd 1.3333 0.6667 0.97055(4)
Cd2 Cd 1.56641(2) 1.17178(2) 1.06030(3)
O1 O 1.3333 0.6667 1.0836(4)
O2 O 1.5420(2) 1.1452(2) 0.9542(3)
C1 C 1.4560(3) 0.7408(3) 0.9807(3)
O3 O 1.4326(2) 0.7686(2) 0.9875(3)
N1 N 1.5504(2) 0.8269(2) 0.9722(3)
H1 H 1.5424 0.8491 0.9939
O4 O 1.4265(2) 0.6871(2) 0.9703(3)
C2 C 1.5196(3) 0.7667(3) 0.9858(3)
H2 H 1.5312 0.7479 0.9537
O5 O 1.3333 0.6667 0.8642(4)
O6 O 1.9440(3) 1.0656(4) 0.8294(4)
O7 O 1.5465(3) 1.0809(3) 1.0123(3)
C3 C 1.5406(3) 1.0969(3) 0.9608(4)
C4 C 1.5291(4) 1.0619(4) 0.9016(4)
H3 H 1.5480 1.0885 0.8660
N2 N 1.4731(3) 1.1262(3) 1.1008(4)
O8 O 1.8637(3) 1.0519(4) 0.7973(3)
N3 N 1.5550(3) 1.0259(3) 0.9073(4)
H4 H 1.5333 0.9892 0.9068
C5 C 1.3735(4) 1.0675(5) 1.0901(5)
H5 H 1.3430 1.0466 1.0624
C6 C 1.8930(4) 1.0453(4) 0.8383(5)
C7 C 1.4274(4) 1.0967(5) 1.0664(5)
H6 H 1.4320 1.0956 1.0224
C8 C 1.3632(4) 1.0677(5) 1.1516(6)
O9 O 1.6450(3) 1.1009(2) 0.9149(3)
N4 N 1.8057(3) 0.9909(4) 0.9015(4)
H7 H 1.7826 0.9555 0.8922
O10 O 1.8141(3) 1.0763(3) 0.9357(4)
C9 C 1.5360(4) 0.7541(4) 1.0509(4)
H8 H 1.5769 0.7710 1.0534
H9 H 1.5182 0.7134 1.0567
H10 H 1.5231 0.7700 1.0838
C10 C 1.7192(3) 0.9974(3) 0.9184(3)
C11 C 1.6246(4) 0.9146(3) 0.9253(4)
C12 C 1.6940(3) 1.0305(3) 0.9160(3)
H11 H 1.7175 1.0701 0.9130
C13 C 1.6121(3) 1.0485(3) 0.9133(3)
C14 C 1.6001(4) 0.9486(3) 0.9223(3)
H12 H 1.5604 0.9325 0.9231
C15 C 1.6830(4) 0.9387(3) 0.9208(4)
H13 H 1.6987 0.9148 0.9194
C16 C 1.6362(4) 1.0082(3) 0.9179(3)
C17 C 1.8673(4) 1.0125(5) 0.8991(5)
H14 H 1.8852 1.0388 0.9351
C18 C 1.5895(5) 0.8492(4) 0.9289(5)
O11 O 1.5943(6) 0.8209(4) 0.8886(6)
C19 C 1.8775(6) 0.9638(6) 0.9073(7)
H15 H 1.8600 0.9440 0.9463
H16 H 1.9181 0.9779 0.9091
H17 H 1.8612 0.9380 0.8718
C20 C 1.4647(5) 1.1328(6) 1.1600(6)
H18 H 1.4955 1.1581 1.1851
C21 C 1.4688(5) 1.0259(5) 0.8847(7)
H19 H 1.4657 1.0049 0.8464
H20 H 1.4520 1.0496 0.8777
H21 H 1.4490 0.9996 0.9190
C22 C 1.4091(5) 1.1022(7) 1.1875(7)
H22 H 1.4045 1.1060 1.2310
C23 C 1.7834(4) 1.0243(4) 0.9180(4)
N2K N 1.1936(3) 0.9864(4) 1.2325(4)
C5K C 1.2932(4) 1.0273(6) 1.2432(5)
H5K H 1.3237 1.0369 1.2709
C7K C 1.2393(4) 1.0026(6) 1.2669(5)
H6K H 1.2347 0.9969 1.3109
C8K C 1.3035(4) 1.0378(6) 1.1817(6)
C20K C 1.2020(5) 1.0014(8) 1.1733(6)
H18K H 1.1712 0.9959 1.1482
C22K C 1.2576(5) 1.0264(9) 1.1458(7)
H22K H 1.2622 1.0348 1.1023
Cd2A Cd 0.82822(2) 0.39463(3) 1.06030(3)
O2A O 0.8548(2) 0.3968(3) 0.9542(3)
C1A C 1.2592(3) 0.7152(4) 0.9807(3)
O3A O 1.2314(2) 0.6640(3) 0.9875(3)
N1A N 1.1731(2) 0.7235(3) 0.9722(3)
H1A H 1.1509 0.6933 0.9939
O4A O 1.3129(2) 0.7394(3) 0.9703(3)
C2A C 1.2333(3) 0.7529(4) 0.9858(3)
H2A H 1.2521 0.7833 0.9537
O6A O 0.9344(4) 0.8784(5) 0.8294(4)
O7A O 0.9191(3) 0.4656(4) 1.0123(3)
C3A C 0.9031(3) 0.4437(4) 0.9608(4)
C4A C 0.9381(4) 0.4672(6) 0.9016(4)
H3A H 0.9115 0.4595 0.8660
N2A N 0.8738(3) 0.3469(4) 1.1008(4)
O8A O 0.9481(4) 0.8118(5) 0.7973(3)
N3A N 0.9741(3) 0.5291(4) 0.9073(4)
H4A H 1.0108 0.5441 0.9068
C5A C 0.9325(5) 0.3060(6) 1.0901(5)
H5A H 0.9534 0.2964 1.0624
C6A C 0.9547(4) 0.8477(6) 0.8383(5)
C7A C 0.9033(5) 0.3307(6) 1.0664(5)
H6A H 0.9044 0.3364 1.0224
C8A C 0.9323(5) 0.2955(6) 1.1516(6)
O9A O 0.8991(2) 0.5441(4) 0.9149(3)
N4A N 1.0091(4) 0.8148(5) 0.9015(4)
H7A H 1.0445 0.8271 0.8922
O10A O 0.9237(3) 0.7378(4) 0.9357(4)
C9A C 1.2459(4) 0.7819(6) 1.0509(4)
H8A H 1.2290 0.8059 1.0534
H9A H 1.2866 0.8048 1.0567
H10A H 1.2300 0.7531 1.0838
C10A C 1.0026(3) 0.7218(4) 0.9184(3)
C11A C 1.0854(3) 0.7100(5) 0.9253(4)
C12A C 0.9695(3) 0.6635(4) 0.9160(3)
H11A H 0.9299 0.6474 0.9130
C13A C 0.9515(3) 0.5636(4) 0.9133(3)
C14A C 1.0514(3) 0.6515(5) 0.9223(3)
H12A H 1.0675 0.6279 0.9231
C15A C 1.0613(3) 0.7443(5) 0.9208(4)
H13A H 1.0852 0.7839 0.9194
C16A C 0.9918(3) 0.6280(5) 0.9179(3)
C17A C 0.9875(5) 0.8548(6) 0.8991(5)
H14A H 0.9612 0.8464 0.9351
C18A C 1.1508(4) 0.7403(6) 0.9289(5)
O11A O 1.1791(4) 0.7734(7) 0.8886(6)
C19A C 1.0362(6) 0.9137(8) 0.9073(7)
H15A H 1.0560 0.9160 0.9463
H16A H 1.0221 0.9402 0.9091
H17A H 1.0620 0.9232 0.8718
C20A C 0.8672(6) 0.3319(8) 1.1600(6)
H18A H 0.8419 0.3374 1.1851
C21A C 0.9741(5) 0.4429(7) 0.8847(7)
H19A H 0.9951 0.4608 0.8464
H20A H 0.9504 0.4024 0.8777
H21A H 1.0004 0.4494 0.9190
C22A C 0.8978(7) 0.3069(9) 1.1875(7)
H22A H 0.8940 0.2985 1.2310
C23A C 0.9757(4) 0.7591(6) 0.9180(4)
N2J N 1.0136(4) 0.2071(3) 1.2325(4)
C5J C 0.9727(6) 0.2658(5) 1.2432(5)
H5J H 0.9631 0.2867 1.2709
C7J C 0.9974(6) 0.2366(5) 1.2669(5)
H6J H 1.0031 0.2377 1.3109
C8J C 0.9622(6) 0.2656(5) 1.1817(6)
C20J C 0.9986(8) 0.2005(6) 1.1733(6)
H18J H 1.0041 0.1752 1.1482
C22J C 0.9736(9) 0.2311(7) 1.1458(7)
H22J H 0.9652 0.2273 1.1023
Cd2B Cd 1.60537(3) 0.43359(2) 1.06030(3)
O2B O 1.6032(3) 0.4580(2) 0.9542(3)
C1B C 1.2848(4) 0.5440(3) 0.9807(3)
O3B O 1.3360(3) 0.5674(2) 0.9875(3)
N1B N 1.2765(3) 0.4496(2) 0.9722(3)
H1B H 1.3067 0.4576 0.9939
O4B O 1.2606(3) 0.5735(2) 0.9703(3)
C2B C 1.2471(4) 0.4804(3) 0.9858(3)
H2B H 1.2167 0.4688 0.9537
O6B O 1.1216(5) 0.0560(3) 0.8294(4)
O7B O 1.5344(4) 0.4535(3) 1.0123(3)
C3B C 1.5563(4) 0.4594(3) 0.9608(4)
C4B C 1.5328(6) 0.4709(4) 0.9016(4)
H3B H 1.5405 0.4520 0.8660
N2B N 1.6531(4) 0.5269(3) 1.1008(4)
O8B O 1.1882(5) 0.1363(3) 0.7973(3)
N3B N 1.4709(4) 0.4450(3) 0.9073(4)
H4B H 1.4559 0.4667 0.9068
C5B C 1.6940(6) 0.6265(4) 1.0901(5)
H5B H 1.7036 0.6570 1.0624
C6B C 1.1523(6) 0.1070(4) 0.8383(5)
C7B C 1.6693(6) 0.5726(4) 1.0664(5)
H6B H 1.6636 0.5680 1.0224
C8B C 1.7045(6) 0.6368(4) 1.1516(6)
O9B O 1.4559(4) 0.3550(3) 0.9149(3)
N4B N 1.1852(5) 0.1943(3) 0.9015(4)
H7B H 1.1729 0.2174 0.8922
O10B O 1.2622(4) 0.1859(3) 0.9357(4)
C9B C 1.2181(6) 0.4640(4) 1.0509(4)
H8B H 1.1941 0.4231 1.0534
H9B H 1.1952 0.4818 1.0567
H10B H 1.2469 0.4769 1.0838
C10B C 1.2782(4) 0.2808(3) 0.9184(3)
C11B C 1.2900(5) 0.3754(4) 0.9253(4)
C12B C 1.3365(4) 0.3060(3) 0.9160(3)
H11B H 1.3526 0.2825 0.9130
C13B C 1.4364(4) 0.3879(3) 0.9133(3)
C14B C 1.3485(5) 0.3999(4) 0.9223(3)
H12B H 1.3721 0.4396 0.9231
C15B C 1.2557(5) 0.3170(4) 0.9208(4)
H13B H 1.2161 0.3013 0.9194
C16B C 1.3720(5) 0.3638(4) 0.9179(3)
C17B C 1.1452(6) 0.1327(4) 0.8991(5)
H14B H 1.1536 0.1148 0.9351
C18B C 1.2597(6) 0.4105(5) 0.9289(5)
O11B O 1.2266(7) 0.4057(6) 0.8886(6)
C19B C 1.0863(8) 0.1225(6) 0.9073(7)
H15B H 1.0840 0.1400 0.9463
H16B H 1.0598 0.0819 0.9091
H17B H 1.0768 0.1388 0.8718
C20B C 1.6681(8) 0.5353(5) 1.1600(6)
H18B H 1.6626 0.5045 1.1851
C21B C 1.5571(7) 0.5312(5) 0.8847(7)
H19B H 1.5392 0.5343 0.8464
H20B H 1.5976 0.5480 0.8777
H21B H 1.5506 0.5510 0.9190
C22B C 1.6931(9) 0.5909(5) 1.1875(7)
H22B H 1.7015 0.5955 1.2310
C23B C 1.2409(6) 0.2166(4) 0.9180(4)
N2I N 1.7929(3) 0.8064(3) 1.2325(4)
C5I C 1.7342(5) 0.7068(4) 1.2432(5)
H5I H 1.7133 0.6763 1.2709
C7I C 1.7634(5) 0.7607(4) 1.2669(5)
H6I H 1.7623 0.7653 1.3109
C8I C 1.7344(5) 0.6965(4) 1.1817(6)
C20I C 1.7995(6) 0.7980(5) 1.1733(6)
H18I H 1.8248 0.8288 1.1482
C22I C 1.7689(7) 0.7424(5) 1.1458(7)
H22I H 1.7727 0.7378 1.1023
Cd1I Cd 1.3334 0.6666 1.36278(4)
Cd2I Cd 1.83845(2) 0.89974(2) 1.27303(3)
O1I O 1.3334 0.6666 1.2497(4)
O2I O 1.8119(2) 0.8753(2) 1.3791(3)
C1I C 1.4075(3) 0.7893(3) 1.3526(3)
O3I O 1.4353(2) 0.7659(2) 1.3458(3)
N1I N 1.4936(2) 0.8837(2) 1.3611(3)
H1I H 1.5158 0.8757 1.3394
O4I O 1.3538(2) 0.7598(2) 1.3630(3)
C2I C 1.4334(3) 0.8529(3) 1.3475(3)
H2I H 1.4146 0.8645 1.3796
O5I O 1.3334 0.6666 1.4691(4)
O6I O 1.7323(4) 1.2773(3) 1.5039(4)
O7I O 1.7476(3) 0.8798(3) 1.3210(3)
C3I C 1.7636(3) 0.8739(3) 1.3725(4)
C4I C 1.7286(4) 0.8624(4) 1.4317(4)
H3I H 1.7552 0.8813 1.4673
O8I O 1.7186(4) 1.1970(3) 1.5360(3)
N3I N 1.6926(3) 0.8883(3) 1.4260(4)
H4I H 1.6559 0.8666 1.4265
C6I C 1.7120(4) 1.2263(4) 1.4950(5)
O9I O 1.7676(2) 0.9783(3) 1.4184(3)
N4I N 1.6576(4) 1.1390(3) 1.4318(4)
H7I H 1.6222 1.1159 1.4411
O10I O 1.7430(3) 1.1474(3) 1.3976(4)
C9I C 1.4208(4) 0.8693(4) 1.2824(4)
H8I H 1.4377 0.9102 1.2799
H9I H 1.3801 0.8515 1.2766
H10I H 1.4367 0.8564 1.2495
C10I C 1.6641(3) 1.0525(3) 1.4149(3)
C11I C 1.5813(3) 0.9579(4) 1.4080(4)
C12I C 1.6972(3) 1.0273(3) 1.4173(3)
H11I H 1.7368 1.0508 1.4203
C13I C 1.7152(3) 0.9454(3) 1.4200(3)
C14I C 1.6153(3) 0.9334(4) 1.4110(3)
H12I H 1.5992 0.8937 1.4102
C15I C 1.6054(3) 1.0163(4) 1.4125(4)
H13I H 1.5815 1.0320 1.4139
C16I C 1.6749(3) 0.9695(4) 1.4154(3)
C17I C 1.6792(5) 1.2006(4) 1.4342(5)
H14I H 1.7055 1.2185 1.3982
C18I C 1.5159(4) 0.9228(5) 1.4044(5)
O11I O 1.4876(4) 0.9276(6) 1.4447(6)
C19I C 1.6305(6) 1.2108(6) 1.4260(7)
H15I H 1.6107 1.1933 1.3870
H16I H 1.6446 1.2514 1.4242
H17I H 1.6047 1.1945 1.4615
C21I C 1.6926(5) 0.8021(5) 1.4486(7)
H19I H 1.6716 0.7990 1.4869
H20I H 1.7163 0.7853 1.4556
H21I H 1.6663 0.7823 1.4143
C23I C 1.6910(4) 1.1167(4) 1.4153(4)
Cd2J Cd 1.06130(3) 0.16155(2) 1.27303(3)
O2J O 1.0635(3) 0.1881(2) 1.3791(3)
C1J C 1.3819(4) 0.5925(3) 1.3526(3)
O3J O 1.3307(3) 0.5647(2) 1.3458(3)
N1J N 1.3902(3) 0.5064(2) 1.3611(3)
H1J H 1.3600 0.4842 1.3394
O4J O 1.4061(3) 0.6462(2) 1.3630(3)
C2J C 1.4196(4) 0.5666(3) 1.3475(3)
H2J H 1.4500 0.5854 1.3796
O6J O 1.5451(5) 0.2677(4) 1.5039(4)
O7J O 1.1323(4) 0.2524(3) 1.3210(3)
C3J C 1.1104(4) 0.2364(3) 1.3725(4)
C4J C 1.1339(6) 0.2714(4) 1.4317(4)
H3J H 1.1262 0.2448 1.4673
O8J O 1.4785(5) 0.2814(4) 1.5360(3)
N3J N 1.1958(4) 0.3074(3) 1.4260(4)
H4J H 1.2108 0.3441 1.4265
C6J C 1.5144(6) 0.2880(4) 1.4950(5)
O9J O 1.2108(4) 0.2324(2) 1.4184(3)
N4J N 1.4815(5) 0.3424(4) 1.4318(4)
H7J H 1.4938 0.3778 1.4411
O10J O 1.4045(4) 0.2570(3) 1.3976(4)
C9J C 1.4486(6) 0.5792(4) 1.2824(4)
H8J H 1.4726 0.5623 1.2799
H9J H 1.4715 0.6199 1.2766
H10J H 1.4198 0.5633 1.2495
C10J C 1.3885(4) 0.3359(3) 1.4149(3)
C11J C 1.3767(5) 0.4187(3) 1.4080(4)
C12J C 1.3302(4) 0.3028(3) 1.4173(3)
H11J H 1.3141 0.2632 1.4203
C13J C 1.2303(4) 0.2848(3) 1.4200(3)
C14J C 1.3182(5) 0.3847(3) 1.4110(3)
H12J H 1.2946 0.4008 1.4102
C15J C 1.4110(5) 0.3946(3) 1.4125(4)
H13J H 1.4506 0.4185 1.4139
C16J C 1.2947(5) 0.3251(3) 1.4154(3)
C17J C 1.5215(6) 0.3208(5) 1.4342(5)
H14J H 1.5131 0.2945 1.3982
C18J C 1.4070(6) 0.4841(4) 1.4044(5)
O11J O 1.4401(7) 0.5124(4) 1.4447(6)
C19J C 1.5804(8) 0.3695(6) 1.4260(7)
H15J H 1.5827 0.3893 1.3870
H16J H 1.6069 0.3554 1.4242
H17J H 1.5899 0.3953 1.4615
C21J C 1.1096(7) 0.3074(5) 1.4486(7)
H19J H 1.1275 0.3284 1.4869
H20J H 1.0691 0.2837 1.4556
H21J H 1.1161 0.3337 1.4143
C23J C 1.4258(6) 0.3090(4) 1.4153(4)
Cd2K Cd 1.10026(2) 0.93870(3) 1.27303(3)
O2K O 1.1247(2) 0.9365(3) 1.3791(3)
C1K C 1.2107(3) 0.6181(4) 1.3526(3)
O3K O 1.2341(2) 0.6693(3) 1.3458(3)
N1K N 1.1163(2) 0.6098(3) 1.3611(3)
H1K H 1.1243 0.6400 1.3394
O4K O 1.2402(2) 0.5939(3) 1.3630(3)
C2K C 1.1471(3) 0.5804(4) 1.3475(3)
H2K H 1.1355 0.5500 1.3796
O6K O 0.7227(3) 0.4549(5) 1.5039(4)
O7K O 1.1202(3) 0.8677(4) 1.3210(3)
C3K C 1.1261(3) 0.8896(4) 1.3725(4)
C4K C 1.1376(4) 0.8661(6) 1.4317(4)
H3K H 1.1187 0.8738 1.4673
O8K O 0.8030(3) 0.5215(5) 1.5360(3)
N3K N 1.1117(3) 0.8042(4) 1.4260(4)
H4K H 1.1334 0.7892 1.4265
C6K C 0.7737(4) 0.4856(6) 1.4950(5)
O9K O 1.0217(3) 0.7892(4) 1.4184(3)
N4K N 0.8610(3) 0.5185(5) 1.4318(4)
H7K H 0.8841 0.5062 1.4411
O10K O 0.8526(3) 0.5955(4) 1.3976(4)
C9K C 1.1307(4) 0.5514(6) 1.2824(4)
H8K H 1.0898 0.5274 1.2799
H9K H 1.1485 0.5285 1.2766
H10K H 1.1436 0.5802 1.2495
C10K C 0.9475(3) 0.6115(4) 1.4149(3)
C11K C 1.0421(4) 0.6233(5) 1.4080(4)
C12K C 0.9727(3) 0.6698(4) 1.4173(3)
H11K H 0.9492 0.6859 1.4203
C13K C 1.0546(3) 0.7697(4) 1.4200(3)
C14K C 1.0666(4) 0.6818(5) 1.4110(3)
H12K H 1.1063 0.7054 1.4102
C15K C 0.9837(4) 0.5890(5) 1.4125(4)
H13K H 0.9680 0.5494 1.4139
C16K C 1.0305(4) 0.7053(5) 1.4154(3)
C17K C 0.7994(4) 0.4785(6) 1.4342(5)
H14K H 0.7815 0.4869 1.3982
C18K C 1.0772(5) 0.5930(6) 1.4044(5)
O11K O 1.0724(6) 0.5599(7) 1.4447(6)
C19K C 0.7892(6) 0.4196(8) 1.4260(7)
H15K H 0.8067 0.4173 1.3870
H16K H 0.7486 0.3931 1.4242
H17K H 0.8055 0.4101 1.4615
C21K C 1.1979(5) 0.8904(7) 1.4486(7)
H19K H 1.2010 0.8725 1.4869
H20K H 1.2147 0.9309 1.4556
H21K H 1.2177 0.8839 1.4143
C23K C 0.8833(4) 0.5742(6) 1.4153(4)
Cd2C Cd 1.17178(2) 0.56641(2) 0.93970(3)
Cd2D Cd 1.39463(3) 0.82822(2) 0.93970(3)
Cd2E Cd 1.43359(2) 0.60537(3) 0.93970(3)
Cd2F Cd 1.23308(2) 0.50511(2) 1.39363(3)
Cd2G Cd 1.49489(2) 0.72796(3) 1.39363(3)
Cd2H Cd 1.27204(3) 0.76692(2) 1.39363(3)
Cd2L Cd 0.89974(2) 0.83845(2) 0.72697(3)
Cd2M Cd 1.16155(2) 0.06130(3) 0.72697(3)
Cd2N Cd 1.93870(3) 1.10026(2) 0.72697(3)
Cd2O Cd 1.50511(2) 0.23308(2) 1.60637(3)
Cd2P Cd 0.72796(3) 0.49489(2) 1.60637(3)
Cd2Q Cd 1.76692(2) 1.27204(3) 1.60637(3)
O3C O 0.7686(2) 0.4326(2) 1.0125(3)
O3D O 1.6640(3) 1.2314(2) 1.0125(3)
O3E O 1.5674(2) 0.3360(3) 1.0125(3)
O3F O 1.0993(2) 0.1019(2) 1.3208(3)
O3G O 1.8981(2) 0.9973(3) 1.3208(3)
O3H O 1.0027(3) 0.9007(2) 1.3208(3)
O4C O 1.6871(2) 0.4265(2) 1.0297(3)
O4D O 0.7394(3) 0.3129(2) 1.0297(3)
O4E O 1.5735(2) 1.2606(3) 1.0297(3)
O4F O 1.0932(2) 1.0204(2) 1.3036(3)
O4G O 0.9796(2) 0.0727(3) 1.3036(3)
O4H O 1.9273(3) 0.9068(2) 1.3036(3)
O6C O 1.0656(4) 0.9440(3) 1.1706(4)
O6D O 1.8784(5) 0.9344(4) 1.1706(4)
O6E O 1.0560(3) 0.1216(5) 1.1706(4)
O6F O 1.6107(3) 0.3989(4) 1.1627(4)
O6G O 1.6011(4) 1.2117(5) 1.1627(4)
O6H O 0.7883(5) 0.3893(3) 1.1627(4)
O8C O 1.0519(4) 0.8637(3) 1.2027(3)
O8D O 1.8118(5) 0.9481(4) 1.2027(3)
O8E O 1.1363(3) 0.1882(5) 1.2027(3)
O8F O 1.5304(3) 0.3852(4) 1.1306(3)
O8G O 1.6148(4) 1.1451(5) 1.1306(3)
O8H O 0.8549(5) 0.4696(3) 1.1306(3)
loop_
_geom_bond_atom_site_label_1
_geom_bond_atom_site_label_2
_geom_bond_site_symmetry_1
_geom_bond_site_symmetry_2
Cd1 O1 1_555 1_555
Cd2 O2 1_555 1_555
O2 C3 1_555 1_555
C1 O3 1_555 1_555
O3 Cd1 1_555 1_555
N1 H1 1_555 1_555
O4 Cd1 1_555 1_555
C2 C1 1_555 1_555
H2 C2 1_555 1_555
O5 Cd1 1_555 1_555
O6 C6 1_555 1_555
O7 Cd2 1_555 1_555
C3 O7 1_555 1_555
C4 C3 1_555 1_555
H3 C4 1_555 1_555
N2 Cd2 1_555 1_555
O8 C6 1_555 1_555
N3 C4 1_555 1_555
H4 N3 1_555 1_555
C5 H5 1_555 1_555
C6 C17 1_555 1_555
C7 N2 1_555 1_555
H6 C7 1_555 1_555
C8 C5 1_555 1_555
O9 C13 1_555 1_555
N4 H7 1_555 1_555
O10 C23 1_555 1_555
C9 C2 1_555 1_555
H8 C9 1_555 1_555
H9 C9 1_555 1_555
H10 C9 1_555 1_555
C10 C12 1_555 1_555
C11 C14 1_555 1_555
C12 H11 1_555 1_555
C13 N3 1_555 1_555
C14 H12 1_555 1_555
C15 C10 1_555 1_555
H13 C15 1_555 1_555
C16 C12 1_555 1_555
C17 N4 1_555 1_555
H14 C17 1_555 1_555
C18 N1 1_555 1_555
O11 C18 1_555 1_555
C19 C17 1_555 1_555
H15 C19 1_555 1_555
H16 C19 1_555 1_555
H17 C19 1_555 1_555
C20 N2 1_555 1_555
H18 C20 1_555 1_555
C21 C4 1_555 1_555
H19 C21 1_555 1_555
H20 C21 1_555 1_555
H21 C21 1_555 1_555
C22 C8 1_555 1_555
H22 C22 1_555 1_555
C23 N4 1_555 1_555
N2K C7K 1_555 1_555
C5K H5K 1_555 1_555
C7K C5K 1_555 1_555
H6K C7K 1_555 1_555
C8K C8 1_555 1_555
C20K N2K 1_555 1_555
H18K C20K 1_555 1_555
C22K C8K 1_555 1_555
H22K C22K 1_555 1_555
Cd2A O2A 1_555 1_555
O2A C3A 1_555 1_555
C1A O3A 1_555 1_555
O3A Cd1 1_555 1_555
N1A H1A 1_555 1_555
O4A Cd1 1_555 1_555
C2A C1A 1_555 1_555
H2A C2A 1_555 1_555
O6A C6A 1_555 1_555
O7A Cd2A 1_555 1_555
C3A O7A 1_555 1_555
C4A C3A 1_555 1_555
H3A C4A 1_555 1_555
N2A Cd2A 1_555 1_555
O8A C6A 1_555 1_555
N3A C4A 1_555 1_555
H4A N3A 1_555 1_555
C5A H5A 1_555 1_555
C6A C17A 1_555 1_555
C7A N2A 1_555 1_555
H6A C7A 1_555 1_555
C8A C5A 1_555 1_555
O9A C13A 1_555 1_555
N4A H7A 1_555 1_555
O10A C23A 1_555 1_555
C9A C2A 1_555 1_555
H8A C9A 1_555 1_555
H9A C9A 1_555 1_555
H10A C9A 1_555 1_555
C10A C12A 1_555 1_555
C11A C14A 1_555 1_555
C12A H11A 1_555 1_555
C13A N3A 1_555 1_555
C14A H12A 1_555 1_555
C15A C10A 1_555 1_555
H13A C15A 1_555 1_555
C16A C12A 1_555 1_555
C17A N4A 1_555 1_555
H14A C17A 1_555 1_555
C18A N1A 1_555 1_555
O11A C18A 1_555 1_555
C19A C17A 1_555 1_555
H15A C19A 1_555 1_555
H16A C19A 1_555 1_555
H17A C19A 1_555 1_555
C20A N2A 1_555 1_555
H18A C20A 1_555 1_555
C21A C4A 1_555 1_555
H19A C21A 1_555 1_555
H20A C21A 1_555 1_555
H21A C21A 1_555 1_555
C22A C8A 1_555 1_555
H22A C22A 1_555 1_555
C23A N4A 1_555 1_555
N2J C7J 1_555 1_555
C5J H5J 1_555 1_555
C7J C5J 1_555 1_555
H6J C7J 1_555 1_555
C8J C8A 1_555 1_555
C20J N2J 1_555 1_555
H18J C20J 1_555 1_555
C22J C8J 1_555 1_555
H22J C22J 1_555 1_555
Cd2B O2B 1_555 1_555
O2B C3B 1_555 1_555
C1B O3B 1_555 1_555
O3B Cd1 1_555 1_555
N1B H1B 1_555 1_555
O4B Cd1 1_555 1_555
C2B C1B 1_555 1_555
H2B C2B 1_555 1_555
O6B C6B 1_555 1_555
O7B Cd2B 1_555 1_555
C3B O7B 1_555 1_555
C4B C3B 1_555 1_555
H3B C4B 1_555 1_555
N2B Cd2B 1_555 1_555
O8B C6B 1_555 1_555
N3B C4B 1_555 1_555
H4B N3B 1_555 1_555
C5B H5B 1_555 1_555
C6B C17B 1_555 1_555
C7B N2B 1_555 1_555
H6B C7B 1_555 1_555
C8B C5B 1_555 1_555
O9B C13B 1_555 1_555
N4B H7B 1_555 1_555
O10B C23B 1_555 1_555
C9B C2B 1_555 1_555
H8B C9B 1_555 1_555
H9B C9B 1_555 1_555
H10B C9B 1_555 1_555
C10B C12B 1_555 1_555
C11B C14B 1_555 1_555
C12B H11B 1_555 1_555
C13B N3B 1_555 1_555
C14B H12B 1_555 1_555
C15B C10B 1_555 1_555
H13B C15B 1_555 1_555
C16B C12B 1_555 1_555
C17B N4B 1_555 1_555
H14B C17B 1_555 1_555
C18B N1B 1_555 1_555
O11B C18B 1_555 1_555
C19B C17B 1_555 1_555
H15B C19B 1_555 1_555
H16B C19B 1_555 1_555
H17B C19B 1_555 1_555
C20B N2B 1_555 1_555
H18B C20B 1_555 1_555
C21B C4B 1_555 1_555
H19B C21B 1_555 1_555
H20B C21B 1_555 1_555
H21B C21B 1_555 1_555
C22B C8B 1_555 1_555
H22B C22B 1_555 1_555
C23B N4B 1_555 1_555
N2I C7I 1_555 1_555
C5I H5I 1_555 1_555
C7I C5I 1_555 1_555
H6I C7I 1_555 1_555
C8I C8B 1_555 1_555
C20I N2I 1_555 1_555
H18I C20I 1_555 1_555
C22I C8I 1_555 1_555
H22I C22I 1_555 1_555
Cd1I O1I 1_555 1_555
Cd2I N2I 1_555 1_555
O2I Cd2I 1_555 1_555
C1I O3I 1_555 1_555
O3I Cd1I 1_555 1_555
N1I H1I 1_555 1_555
O4I Cd1I 1_555 1_555
C2I C1I 1_555 1_555
H2I C2I 1_555 1_555
O5I Cd1I 1_555 1_555
O6I C6I 1_555 1_555
O7I Cd2I 1_555 1_555
C3I O2I 1_555 1_555
C4I C3I 1_555 1_555
H3I C4I 1_555 1_555
O8I C6I 1_555 1_555
N3I C4I 1_555 1_555
H4I N3I 1_555 1_555
C6I C17I 1_555 1_555
O9I C13I 1_555 1_555
N4I H7I 1_555 1_555
O10I C23I 1_555 1_555
C9I C2I 1_555 1_555
H8I C9I 1_555 1_555
H9I C9I 1_555 1_555
H10I C9I 1_555 1_555
C10I C12I 1_555 1_555
C11I C14I 1_555 1_555
C12I H11I 1_555 1_555
C13I N3I 1_555 1_555
C14I H12I 1_555 1_555
C15I C10I 1_555 1_555
H13I C15I 1_555 1_555
C16I C12I 1_555 1_555
C17I N4I 1_555 1_555
H14I C17I 1_555 1_555
C18I N1I 1_555 1_555
O11I C18I 1_555 1_555
C19I C17I 1_555 1_555
H15I C19I 1_555 1_555
H16I C19I 1_555 1_555
H17I C19I 1_555 1_555
C21I C4I 1_555 1_555
H19I C21I 1_555 1_555
H20I C21I 1_555 1_555
H21I C21I 1_555 1_555
C23I N4I 1_555 1_555
Cd2J N2J 1_555 1_555
O2J Cd2J 1_555 1_555
C1J O3J 1_555 1_555
O3J Cd1I 1_555 1_555
N1J H1J 1_555 1_555
O4J Cd1I 1_555 1_555
C2J C1J 1_555 1_555
H2J C2J 1_555 1_555
O6J C6J 1_555 1_555
O7J Cd2J 1_555 1_555
C3J O2J 1_555 1_555
C4J C3J 1_555 1_555
H3J C4J 1_555 1_555
O8J C6J 1_555 1_555
N3J C4J 1_555 1_555
H4J N3J 1_555 1_555
C6J C17J 1_555 1_555
O9J C13J 1_555 1_555
N4J H7J 1_555 1_555
O10J C23J 1_555 1_555
C9J C2J 1_555 1_555
H8J C9J 1_555 1_555
H9J C9J 1_555 1_555
H10J C9J 1_555 1_555
C10J C12J 1_555 1_555
C11J C14J 1_555 1_555
C12J H11J 1_555 1_555
C13J N3J 1_555 1_555
C14J H12J 1_555 1_555
C15J C10J 1_555 1_555
H13J C15J 1_555 1_555
C16J C12J 1_555 1_555
C17J N4J 1_555 1_555
H14J C17J 1_555 1_555
C18J N1J 1_555 1_555
O11J C18J 1_555 1_555
C19J C17J 1_555 1_555
H15J C19J 1_555 1_555
H16J C19J 1_555 1_555
H17J C19J 1_555 1_555
C21J C4J 1_555 1_555
H19J C21J 1_555 1_555
H20J C21J 1_555 1_555
H21J C21J 1_555 1_555
C23J N4J 1_555 1_555
Cd2K N2K 1_555 1_555
O2K Cd2K 1_555 1_555
C1K O3K 1_555 1_555
O3K Cd1I 1_555 1_555
N1K H1K 1_555 1_555
O4K Cd1I 1_555 1_555
C2K C1K 1_555 1_555
H2K C2K 1_555 1_555
O6K C6K 1_555 1_555
O7K Cd2K 1_555 1_555
C3K O2K 1_555 1_555
C4K C3K 1_555 1_555
H3K C4K 1_555 1_555
O8K C6K 1_555 1_555
N3K C4K 1_555 1_555
H4K N3K 1_555 1_555
C6K C17K 1_555 1_555
O9K C13K 1_555 1_555
N4K H7K 1_555 1_555
O10K C23K 1_555 1_555
C9K C2K 1_555 1_555
H8K C9K 1_555 1_555
H9K C9K 1_555 1_555
H10K C9K 1_555 1_555
C10K C12K 1_555 1_555
C11K C14K 1_555 1_555
C12K H11K 1_555 1_555
C13K N3K 1_555 1_555
C14K H12K 1_555 1_555
C15K C10K 1_555 1_555
H13K C15K 1_555 1_555
C16K C12K 1_555 1_555
C17K N4K 1_555 1_555
H14K C17K 1_555 1_555
C18K N1K 1_555 1_555
O11K C18K 1_555 1_555
C19K C17K 1_555 1_555
H15K C19K 1_555 1_555
H16K C19K 1_555 1_555
H17K C19K 1_555 1_555
C21K C4K 1_555 1_555
H19K C21K 1_555 1_555
H20K C21K 1_555 1_555
H21K C21K 1_555 1_555
C23K N4K 1_555 1_555
Cd2C O3A 1_555 1_555
Cd2D O3 1_555 1_555
Cd2E O4 1_555 1_555
Cd2F O3J 1_555 1_555
Cd2G O3I 1_555 1_555
Cd2H O4I 1_555 1_555
Cd2L O6A 1_555 1_555
Cd2M O6B 1_555 1_555
Cd2N O6 1_555 1_555
Cd2O O6J 1_555 1_555
Cd2P O6K 1_555 1_555
Cd2Q O6I 1_555 1_555
O3C Cd2A 1_555 1_555
O3D Cd2 1_555 1_555
O3E Cd2B 1_555 1_555
O3F Cd2J 1_555 1_555
O3G Cd2I 1_555 1_555
O3H Cd2K 1_555 1_555
O4C Cd2B 1_555 1_555
O4D Cd2A 1_555 1_555
O4E Cd2 1_555 1_555
O4F Cd2K 1_555 1_555
O4G Cd2J 1_555 1_555
O4H Cd2I 1_555 1_555
O6C Cd2K 1_555 1_555
O6D Cd2I 1_555 1_555
O6E Cd2J 1_555 1_555
O6F Cd2B 1_555 1_555
O6G Cd2 1_555 1_555
O6H Cd2A 1_555 1_555
O8C Cd2K 1_555 1_555
O8D Cd2I 1_555 1_555
O8E Cd2J 1_555 1_555
O8F Cd2B 1_555 1_555
O8G Cd2 1_555 1_555
O8H Cd2A 1_555 1_555
C1 O4 1_555 1_555
N1 C2 1_555 1_555
O8 Cd2N 1_555 1_555
C5 C7 1_555 1_555
C10 C23 1_555 1_555
C11 C15 1_555 1_555
C11 C18 1_555 1_555
C13 C16 1_555 1_555
C14 C16 1_555 1_555
C20 C22 1_555 1_555
C5K C8K 1_555 1_555
C20K C22K 1_555 1_555
C1A O4A 1_555 1_555
N1A C2A 1_555 1_555
O4A Cd2D 1_555 1_555
O8A Cd2L 1_555 1_555
C5A C7A 1_555 1_555
C10A C23A 1_555 1_555
C11A C15A 1_555 1_555
C11A C18A 1_555 1_555
C13A C16A 1_555 1_555
C14A C16A 1_555 1_555
C20A C22A 1_555 1_555
C5J C8J 1_555 1_555
C20J C22J 1_555 1_555
C1B O4B 1_555 1_555
O3B Cd2E 1_555 1_555
N1B C2B 1_555 1_555
O4B Cd2C 1_555 1_555
O8B Cd2M 1_555 1_555
C5B C7B 1_555 1_555
C10B C23B 1_555 1_555
C11B C15B 1_555 1_555
C11B C18B 1_555 1_555
C13B C16B 1_555 1_555
C14B C16B 1_555 1_555
C20B C22B 1_555 1_555
C5I C8I 1_555 1_555
C20I C22I 1_555 1_555
C1I O4I 1_555 1_555
N1I C2I 1_555 1_555
O7I C3I 1_555 1_555
O8I Cd2Q 1_555 1_555
C10I C23I 1_555 1_555
C11I C15I 1_555 1_555
C11I C18I 1_555 1_555
C13I C16I 1_555 1_555
C14I C16I 1_555 1_555
C1J O4J 1_555 1_555
N1J C2J 1_555 1_555
O4J Cd2G 1_555 1_555
O7J C3J 1_555 1_555
O8J Cd2O 1_555 1_555
C10J C23J 1_555 1_555
C11J C15J 1_555 1_555
C11J C18J 1_555 1_555
C13J C16J 1_555 1_555
C14J C16J 1_555 1_555
C1K O4K 1_555 1_555
O3K Cd2H 1_555 1_555
N1K C2K 1_555 1_555
O4K Cd2F 1_555 1_555
O7K C3K 1_555 1_555
O8K Cd2P 1_555 1_555
C10K C23K 1_555 1_555
C11K C15K 1_555 1_555
C11K C18K 1_555 1_555
C13K C16K 1_555 1_555
C14K C16K 1_555 1_555

#END
