
#######################################################################
#
#                 Cambridge Crystallographic Data Centre
#                                CCDC 
#
#######################################################################
#
# If this CIF has been generated from an entry in the Cambridge 
# Structural Database, then it will include bibliographic, chemical, 
# crystal, experimental, refinement or atomic coordinate data resulting 
# from the CCDC's data processing and validation procedures.
#
#######################################################################

data_GUTCIJ
_symmetry_cell_setting           rhombohedral
_symmetry_space_group_name_H-M   'R 3 2'
_symmetry_Int_Tables_number      155
_space_group_name_Hall           'R 3 2"'
loop_
_symmetry_equiv_pos_site_id
_symmetry_equiv_pos_as_xyz
1 x,y,z
2 -y,x-y,z
3 -x+y,-x,z
4 y,x,-z
5 x-y,-y,-z
6 -x,-x+y,-z
7 2/3+x,1/3+y,1/3+z
8 2/3-y,1/3+x-y,1/3+z
9 2/3-x+y,1/3-x,1/3+z
10 2/3+y,1/3+x,1/3-z
11 2/3+x-y,1/3-y,1/3-z
12 2/3-x,1/3-x+y,1/3-z
13 1/3+x,2/3+y,2/3+z
14 1/3-y,2/3+x-y,2/3+z
15 1/3-x+y,2/3-x,2/3+z
16 1/3+y,2/3+x,2/3-z
17 1/3+x-y,2/3-y,2/3-z
18 1/3-x,2/3-x+y,2/3-z
_cell_length_a                   26.8706(5)
_cell_length_b                   26.8706(5)
_cell_length_c                   20.9000(8)
_cell_angle_alpha                90
_cell_angle_beta                 90
_cell_angle_gamma                120
_cell_volume                     13068.7
loop_
_atom_site_label
_atom_site_type_symbol
_atom_site_fract_x
_atom_site_fract_y
_atom_site_fract_z
Cd1 Cd -0.3333 0.3333 0.02898(5)
Cd2 Cd -0.56614(3) -0.17166(3) -0.05987(4)
O1 O -0.3333 0.3333 -0.0837(4)
O2 O -0.5417(3) -0.1446(3) 0.0472(4)
C1 C -0.4568(3) 0.2592(3) 0.0187(4)
O3 O -0.4326(2) 0.2316(3) 0.0121(4)
N1 N -0.5503(3) 0.1726(3) 0.0269(3)
H1 H -0.5405 0.1508 0.0072
O4 O -0.4270(2) 0.3124(3) 0.0293(3)
C2 C -0.5192(4) 0.2332(3) 0.0136(4)
H2 H -0.5310 0.2518 0.0457
O5 O -0.3333 0.3333 0.1355(5)
O6 O -0.9443(4) -0.0656(4) 0.1726(4)
O7 O -0.5462(4) -0.0808(3) -0.0124(3)
C3 C -0.5402(4) -0.0972(4) 0.0395(5)
C4 C -0.5291(5) -0.0621(4) 0.0996(5)
H3 H -0.5479 -0.0886 0.1354
N2 N -0.4730(4) -0.1262(4) -0.1007(5)
O8 O -0.8636(3) -0.0531(4) 0.2040(4)
N3 N -0.5542(4) -0.0262(3) 0.0934(4)
H4 H -0.5325 0.0106 0.0945
C5 C -0.3732(4) -0.0673(5) -0.0899(6)
H5 H -0.3429 -0.0457 -0.0621
C6 C -0.8928(5) -0.0464(5) 0.1636(6)
C7 C -0.4275(5) -0.0986(6) -0.0671(5)
H6 H -0.4320 -0.1001 -0.0229
C8 C -0.3633(5) -0.0675(5) -0.1518(7)
O9 O -0.6450(3) -0.1014(3) 0.0850(3)
N4 N -0.8059(4) 0.0079(4) 0.0995(5)
H7 H -0.7827 0.0432 0.1096
O10 O -0.8136(4) -0.0767(4) 0.0639(4)
C9 C -0.5361(4) 0.2454(4) -0.0517(5)
H8 H -0.5771 0.2284 -0.0538
H9 H -0.5234 0.2294 -0.0846
H10 H -0.5185 0.2862 -0.0577
C10 C -0.7190(4) 0.0016(4) 0.0821(4)
C11 C -0.6249(5) 0.0849(4) 0.0740(5)
C12 C -0.6939(4) -0.0312(4) 0.0849(4)
H11 H -0.7171 -0.0708 0.0890
C13 C -0.6121(4) -0.0496(4) 0.0858(4)
C14 C -0.6008(4) 0.0511(4) 0.0781(4)
H12 H -0.5610 0.0674 0.0785
C15 C -0.6841(5) 0.0606(4) 0.0787(5)
H13 H -0.7003 0.0841 0.0796
C16 C -0.6359(4) -0.0082(3) 0.0819(4)
C17 C -0.8675(5) -0.0130(5) 0.1025(5)
H14 H -0.8859 -0.0389 0.0662
C18 C -0.5924(5) 0.1496(5) 0.0670(6)
O11 O -0.5960(6) 0.1780(5) 0.1113(5)
C19 C -0.8773(7) 0.0358(7) 0.0964(8)
H15 H -0.8598 0.0564 0.0577
H16 H -0.8607 0.0610 0.1324
H17 H -0.9179 0.0220 0.0951
C20 C -0.4642(6) -0.1317(7) -0.1602(7)
H18 H -0.4948 -0.1570 -0.1857
C21 C -0.4682(6) -0.0255(6) 0.1156(8)
H19 H -0.4648 -0.0059 0.1552
H20 H -0.4494 0.0022 0.0822
H21 H -0.4506 -0.0488 0.1200
C22 C -0.4097(5) -0.1005(8) -0.1868(8)
H22 H -0.4055 -0.1027 -0.2308
C23 C -0.7824(5) -0.0257(5) 0.0813(5)
N2Q N -0.1937(4) 0.0135(6) -0.2326(5)
C5Q C -0.2935(4) -0.0274(6) -0.2434(6)
H5Q H -0.3238 -0.0361 -0.2712
C7Q C -0.2392(5) -0.0044(8) -0.2662(5)
H6Q H -0.2347 -0.0014 -0.3104
C8Q C -0.3034(5) -0.0375(7) -0.1815(7)
C20Q C -0.2025(6) -0.0008(9) -0.1731(7)
H18Q H -0.1719 0.0045 -0.1476
C22Q C -0.2570(5) -0.0241(9) -0.1465(8)
H22Q H -0.2612 -0.0305 -0.1025
Cd2A Cd 0.17166(3) 0.60552(4) -0.05987(4)
O2A O 0.1446(3) 0.6029(4) 0.0472(4)
C1A C -0.2592(3) 0.2840(4) 0.0187(4)
O3A O -0.2316(3) 0.3358(4) 0.0121(4)
N1A N -0.1726(3) 0.2771(4) 0.0269(3)
H1A H -0.1508 0.3087 0.0072
O4A O -0.3124(3) 0.2606(4) 0.0293(3)
C2A C -0.2332(3) 0.2476(5) 0.0136(4)
H2A H -0.2518 0.2172 0.0457
O6A O 0.0656(4) 0.1213(6) 0.1726(4)
O7A O 0.0808(3) 0.5346(5) -0.0124(3)
C3A C 0.0972(4) 0.5570(6) 0.0395(5)
C4A C 0.0621(4) 0.5330(6) 0.0996(5)
H3A H 0.0886 0.5407 0.1354
N2A N 0.1262(4) 0.6532(6) -0.1007(5)
O8A O 0.0531(4) 0.1895(5) 0.2040(4)
N3A N 0.0262(3) 0.4720(5) 0.0934(4)
H4A H -0.0106 0.4569 0.0945
C5A C 0.0673(5) 0.6941(6) -0.0899(6)
H5A H 0.0457 0.7028 -0.0621
C6A C 0.0464(5) 0.1536(7) 0.1636(6)
C7A C 0.0986(6) 0.6711(8) -0.0671(5)
H6A H 0.1001 0.6681 -0.0229
C8A C 0.0675(5) 0.7042(7) -0.1518(7)
O9A O 0.1014(3) 0.4564(4) 0.0850(3)
N4A N -0.0079(4) 0.1862(6) 0.0995(5)
H7A H -0.0432 0.1741 0.1096
O10A O 0.0767(4) 0.2631(6) 0.0639(4)
C9A C -0.2454(4) 0.2185(6) -0.0517(5)
H8A H -0.2284 0.1945 -0.0538
H9A H -0.2294 0.2472 -0.0846
H10A H -0.2862 0.1953 -0.0577
C10A C -0.0016(4) 0.2794(6) 0.0821(4)
C11A C -0.0849(4) 0.2902(6) 0.0740(5)
C12A C 0.0312(4) 0.3373(6) 0.0849(4)
H11A H 0.0708 0.3537 0.0890
C13A C 0.0496(4) 0.4375(6) 0.0858(4)
C14A C -0.0511(4) 0.3481(6) 0.0781(4)
H12A H -0.0674 0.3716 0.0785
C15A C -0.0606(4) 0.2553(6) 0.0787(5)
H13A H -0.0841 0.2156 0.0796
C16A C 0.0082(3) 0.3723(5) 0.0819(4)
C17A C 0.0130(5) 0.1455(7) 0.1025(5)
H14A H 0.0389 0.1530 0.0662
C18A C -0.1496(5) 0.2580(7) 0.0670(6)
O11A O -0.1780(5) 0.2260(8) 0.1113(5)
C19A C -0.0358(7) 0.0869(10) 0.0964(8)
H15A H -0.0564 0.0838 0.0577
H16A H -0.0610 0.0783 0.1324
H17A H -0.0220 0.0601 0.0951
C20A C 0.1317(7) 0.6675(9) -0.1602(7)
H18A H 0.1570 0.6622 -0.1857
C21A C 0.0255(6) 0.5573(8) 0.1156(8)
H19A H 0.0059 0.5411 0.1552
H20A H -0.0022 0.5484 0.0822
H21A H 0.0488 0.5982 0.1200
C22A C 0.1005(8) 0.6908(9) -0.1868(8)
H22A H 0.1027 0.6972 -0.2308
C23A C 0.0257(5) 0.2433(7) 0.0813(5)
N2P N -0.0135(6) 0.7929(4) -0.2326(5)
C5P C 0.0274(6) 0.7340(5) -0.2434(6)
H5P H 0.0361 0.7124 -0.2712
C7P C 0.0044(8) 0.7653(6) -0.2662(5)
H6P H 0.0014 0.7668 -0.3104
C8P C 0.0375(7) 0.7342(5) -0.1815(7)
C20P C 0.0008(9) 0.7984(7) -0.1731(7)
H18P H -0.0045 0.8237 -0.1476
C22P C 0.0241(9) 0.7672(8) -0.1465(8)
H22P H 0.0305 0.7694 -0.1025
Cd2B Cd -0.60552(4) 0.56614(3) -0.05987(4)
O2B O -0.6029(4) 0.5417(3) 0.0472(4)
C1B C -0.2840(4) 0.4568(3) 0.0187(4)
O3B O -0.3358(4) 0.4326(2) 0.0121(4)
N1B N -0.2771(4) 0.5503(3) 0.0269(3)
H1B H -0.3087 0.5405 0.0072
O4B O -0.2606(4) 0.4270(2) 0.0293(3)
C2B C -0.2476(5) 0.5192(4) 0.0136(4)
H2B H -0.2172 0.5310 0.0457
O6B O -0.1213(6) 0.9443(4) 0.1726(4)
O7B O -0.5346(5) 0.5462(4) -0.0124(3)
C3B C -0.5570(6) 0.5402(4) 0.0395(5)
C4B C -0.5330(6) 0.5291(5) 0.0996(5)
H3B H -0.5407 0.5479 0.1354
N2B N -0.6532(6) 0.4730(4) -0.1007(5)
O8B O -0.1895(5) 0.8636(3) 0.2040(4)
N3B N -0.4720(5) 0.5542(4) 0.0934(4)
H4B H -0.4569 0.5325 0.0945
C5B C -0.6941(6) 0.3732(4) -0.0899(6)
H5B H -0.7028 0.3429 -0.0621
C6B C -0.1536(7) 0.8928(5) 0.1636(6)
C7B C -0.6711(8) 0.4275(5) -0.0671(5)
H6B H -0.6681 0.4320 -0.0229
C8B C -0.7042(7) 0.3633(5) -0.1518(7)
O9B O -0.4564(4) 0.6450(3) 0.0850(3)
N4B N -0.1862(6) 0.8059(4) 0.0995(5)
H7B H -0.1741 0.7827 0.1096
O10B O -0.2631(6) 0.8136(4) 0.0639(4)
C9B C -0.2185(6) 0.5361(4) -0.0517(5)
H8B H -0.1945 0.5771 -0.0538
H9B H -0.2472 0.5234 -0.0846
H10B H -0.1953 0.5185 -0.0577
C10B C -0.2794(6) 0.7190(4) 0.0821(4)
C11B C -0.2902(6) 0.6249(5) 0.0740(5)
C12B C -0.3373(6) 0.6939(4) 0.0849(4)
H11B H -0.3537 0.7171 0.0890
C13B C -0.4375(6) 0.6121(4) 0.0858(4)
C14B C -0.3481(6) 0.6008(4) 0.0781(4)
H12B H -0.3716 0.5610 0.0785
C15B C -0.2553(6) 0.6841(5) 0.0787(5)
H13B H -0.2156 0.7003 0.0796
C16B C -0.3723(5) 0.6359(4) 0.0819(4)
C17B C -0.1455(7) 0.8675(5) 0.1025(5)
H14B H -0.1530 0.8859 0.0662
C18B C -0.2580(7) 0.5924(5) 0.0670(6)
O11B O -0.2260(8) 0.5960(6) 0.1113(5)
C19B C -0.0869(10) 0.8773(7) 0.0964(8)
H15B H -0.0838 0.8598 0.0577
H16B H -0.0783 0.8607 0.1324
H17B H -0.0601 0.9179 0.0951
C20B C -0.6675(9) 0.4642(6) -0.1602(7)
H18B H -0.6622 0.4948 -0.1857
C21B C -0.5573(8) 0.4682(6) 0.1156(8)
H19B H -0.5411 0.4648 0.1552
H20B H -0.5484 0.4494 0.0822
H21B H -0.5982 0.4506 0.1200
C22B C -0.6908(9) 0.4097(5) -0.1868(8)
H22B H -0.6972 0.4055 -0.2308
C23B C -0.2433(7) 0.7824(5) 0.0813(5)
N2O N -0.7929(4) 0.1937(4) -0.2326(5)
C5O C -0.7340(5) 0.2935(4) -0.2434(6)
H5O H -0.7124 0.3238 -0.2712
C7O C -0.7653(6) 0.2392(5) -0.2662(5)
H6O H -0.7668 0.2347 -0.3104
C8O C -0.7342(5) 0.3034(5) -0.1815(7)
C20O C -0.7984(7) 0.2025(6) -0.1731(7)
H18O H -0.8237 0.1719 -0.1476
C22O C -0.7672(8) 0.2570(5) -0.1465(8)
H22O H -0.7694 0.2612 -0.1025
Cd1O Cd -0.3334 0.3334 -0.36231(5)
Cd2O Cd -0.83833(3) 0.10053(3) -0.27346(4)
O1O O -0.3334 0.3334 -0.2496(4)
O2O O -0.8113(3) 0.1250(3) -0.3805(4)
C1O C -0.4075(3) 0.2099(3) -0.3520(4)
O3O O -0.4351(3) 0.2341(2) -0.3454(4)
N1O N -0.4941(3) 0.1164(3) -0.3602(3)
H1O H -0.5159 0.1262 -0.3405
O4O O -0.3543(3) 0.2397(2) -0.3626(3)
C2O C -0.4335(3) 0.1475(4) -0.3469(4)
H2O H -0.4149 0.1357 -0.3790
O5O O -0.3334 0.3334 -0.4688(5)
O6O O -0.7323(4) -0.2776(4) -0.5059(4)
O7O O -0.7475(3) 0.1205(4) -0.3209(3)
C3O C -0.7639(4) 0.1265(4) -0.3728(5)
C4O C -0.7288(4) 0.1376(5) -0.4329(5)
H3O H -0.7553 0.1188 -0.4687
O8O O -0.7198(4) -0.1969(3) -0.5373(4)
N3O N -0.6929(3) 0.1125(4) -0.4267(4)
H4O H -0.6561 0.1342 -0.4278
C6O C -0.7131(5) -0.2261(5) -0.4969(6)
O9O O -0.7681(3) 0.0217(3) -0.4183(3)
N4O N -0.6588(4) -0.1392(4) -0.4328(5)
H7O H -0.6235 -0.1160 -0.4429
O10O O -0.7434(4) -0.1469(4) -0.3972(4)
C9O C -0.4213(4) 0.1306(4) -0.2816(5)
H8O H -0.4383 0.0896 -0.2795
H9O H -0.4373 0.1433 -0.2487
H10O H -0.3805 0.1482 -0.2756
C10O C -0.6651(4) -0.0523(4) -0.4154(4)
C11O C -0.5818(4) 0.0418(5) -0.4073(5)
C12O C -0.6979(4) -0.0272(4) -0.4182(4)
H11O H -0.7375 -0.0504 -0.4223
C13O C -0.7163(4) 0.0546(4) -0.4191(4)
C14O C -0.6156(4) 0.0659(4) -0.4114(4)
H12O H -0.5993 0.1057 -0.4118
C15O C -0.6061(4) -0.0174(5) -0.4120(5)
H13O H -0.5826 -0.0336 -0.4129
C16O C -0.6749(3) 0.0308(4) -0.4152(4)
C17O C -0.6797(5) -0.2008(5) -0.4358(5)
H14O H -0.7056 -0.2192 -0.3995
C18O C -0.5171(5) 0.0743(5) -0.4003(6)
O11O O -0.4887(5) 0.0707(6) -0.4446(5)
C19O C -0.6309(7) -0.2106(7) -0.4297(8)
H15O H -0.6103 -0.1931 -0.3910
H16O H -0.6057 -0.1940 -0.4657
H17O H -0.6447 -0.2512 -0.4284
C21O C -0.6922(6) 0.1985(6) -0.4489(8)
H19O H -0.6726 0.2019 -0.4885
H20O H -0.6645 0.2173 -0.4155
H21O H -0.7155 0.2161 -0.4533
C23O C -0.6924(5) -0.1157(5) -0.4146(5)
Cd2P Cd -0.06115(4) 0.83833(3) -0.27346(4)
O2P O -0.0638(4) 0.8113(3) -0.3805(4)
C1P C -0.3827(4) 0.4075(3) -0.3520(4)
O3P O -0.3309(4) 0.4351(3) -0.3454(4)
N1P N -0.3896(4) 0.4941(3) -0.3602(3)
H1P H -0.3580 0.5159 -0.3405
O4P O -0.4061(4) 0.3543(3) -0.3626(3)
C2P C -0.4191(5) 0.4335(3) -0.3469(4)
H2P H -0.4495 0.4149 -0.3790
O6P O -0.5454(6) 0.7323(4) -0.5059(4)
O7P O -0.1321(5) 0.7475(3) -0.3209(3)
C3P C -0.1097(6) 0.7639(4) -0.3728(5)
C4P C -0.1337(6) 0.7288(4) -0.4329(5)
H3P H -0.1260 0.7553 -0.4687
O8P O -0.4772(5) 0.7198(4) -0.5373(4)
N3P N -0.1947(5) 0.6929(3) -0.4267(4)
H4P H -0.2098 0.6561 -0.4278
C6P C -0.5131(7) 0.7131(5) -0.4969(6)
O9P O -0.2103(4) 0.7681(3) -0.4183(3)
N4P N -0.4805(6) 0.6588(4) -0.4328(5)
H7P H -0.4926 0.6235 -0.4429
O10P O -0.4036(6) 0.7434(4) -0.3972(4)
C9P C -0.4482(6) 0.4213(4) -0.2816(5)
H8P H -0.4722 0.4383 -0.2795
H9P H -0.4195 0.4373 -0.2487
H10P H -0.4714 0.3805 -0.2756
C10P C -0.3873(6) 0.6651(4) -0.4154(4)
C11P C -0.3765(6) 0.5818(4) -0.4073(5)
C12P C -0.3294(6) 0.6979(4) -0.4182(4)
H11P H -0.3130 0.7375 -0.4223
C13P C -0.2292(6) 0.7163(4) -0.4191(4)
C14P C -0.3186(6) 0.6156(4) -0.4114(4)
H12P H -0.2951 0.5993 -0.4118
C15P C -0.4114(6) 0.6061(4) -0.4120(5)
H13P H -0.4511 0.5826 -0.4129
C16P C -0.2944(5) 0.6749(3) -0.4152(4)
C17P C -0.5212(7) 0.6797(5) -0.4358(5)
H14P H -0.5137 0.7056 -0.3995
C18P C -0.4087(7) 0.5171(5) -0.4003(6)
O11P O -0.4407(8) 0.4887(5) -0.4446(5)
C19P C -0.5798(10) 0.6309(7) -0.4297(8)
H15P H -0.5829 0.6103 -0.3910
H16P H -0.5884 0.6057 -0.4657
H17P H -0.6066 0.6447 -0.4284
C21P C -0.1094(8) 0.6922(6) -0.4489(8)
H19P H -0.1256 0.6726 -0.4885
H20P H -0.1183 0.6645 -0.4155
H21P H -0.0685 0.7155 -0.4533
C23P C -0.4234(7) 0.6924(5) -0.4146(5)
Cd2Q Cd -0.10053(3) 0.06115(4) -0.27346(4)
O2Q O -0.1250(3) 0.0638(4) -0.3805(4)
C1Q C -0.2099(3) 0.3827(4) -0.3520(4)
O3Q O -0.2341(2) 0.3309(4) -0.3454(4)
N1Q N -0.1164(3) 0.3896(4) -0.3602(3)
H1Q H -0.1262 0.3580 -0.3405
O4Q O -0.2397(2) 0.4061(4) -0.3626(3)
C2Q C -0.1475(4) 0.4191(5) -0.3469(4)
H2Q H -0.1357 0.4495 -0.3790
O6Q O 0.2776(4) 0.5454(6) -0.5059(4)
O7Q O -0.1205(4) 0.1321(5) -0.3209(3)
C3Q C -0.1265(4) 0.1097(6) -0.3728(5)
C4Q C -0.1376(5) 0.1337(6) -0.4329(5)
H3Q H -0.1188 0.1260 -0.4687
O8Q O 0.1969(3) 0.4772(5) -0.5373(4)
N3Q N -0.1125(4) 0.1947(5) -0.4267(4)
H4Q H -0.1342 0.2098 -0.4278
C6Q C 0.2261(5) 0.5131(7) -0.4969(6)
O9Q O -0.0217(3) 0.2103(4) -0.4183(3)
N4Q N 0.1392(4) 0.4805(6) -0.4328(5)
H7Q H 0.1160 0.4926 -0.4429
O10Q O 0.1469(4) 0.4036(6) -0.3972(4)
C9Q C -0.1306(4) 0.4482(6) -0.2816(5)
H8Q H -0.0896 0.4722 -0.2795
H9Q H -0.1433 0.4195 -0.2487
H10Q H -0.1482 0.4714 -0.2756
C10Q C 0.0523(4) 0.3873(6) -0.4154(4)
C11Q C -0.0418(5) 0.3765(6) -0.4073(5)
C12Q C 0.0272(4) 0.3294(6) -0.4182(4)
H11Q H 0.0504 0.3130 -0.4223
C13Q C -0.0546(4) 0.2292(6) -0.4191(4)
C14Q C -0.0659(4) 0.3186(6) -0.4114(4)
H12Q H -0.1057 0.2951 -0.4118
C15Q C 0.0174(5) 0.4114(6) -0.4120(5)
H13Q H 0.0336 0.4511 -0.4129
C16Q C -0.0308(4) 0.2944(5) -0.4152(4)
C17Q C 0.2008(5) 0.5212(7) -0.4358(5)
H14Q H 0.2192 0.5137 -0.3995
C18Q C -0.0743(5) 0.4087(7) -0.4003(6)
O11Q O -0.0707(6) 0.4407(8) -0.4446(5)
C19Q C 0.2106(7) 0.5798(10) -0.4297(8)
H15Q H 0.1931 0.5829 -0.3910
H16Q H 0.1940 0.5884 -0.4657
H17Q H 0.2512 0.6066 -0.4284
C21Q C -0.1985(6) 0.1094(8) -0.4489(8)
H19Q H -0.2019 0.1256 -0.4885
H20Q H -0.2173 0.1183 -0.4155
H21Q H -0.2161 0.0685 -0.4533
C23Q C 0.1157(5) 0.4234(7) -0.4146(5)
Cd2C Cd -0.17166(3) 0.43386(3) 0.05987(4)
Cd2D Cd -0.39448(4) 0.17166(3) 0.05987(4)
Cd2E Cd -0.43386(3) 0.39448(4) 0.05987(4)
Cd2F Cd 0.10053(3) 0.16167(3) 0.27346(4)
Cd2G Cd -0.16167(3) 0.93885(4) 0.27346(4)
Cd2H Cd -0.93885(4) -0.10053(3) 0.27346(4)
Cd2I Cd -0.50499(3) 0.76719(3) -0.60680(4)
Cd2J Cd 0.27219(4) 0.50499(3) -0.60680(4)
Cd2K Cd -0.76719(3) -0.27219(4) -0.60680(4)
Cd2L Cd -0.23281(3) 0.49501(3) -0.39320(4)
Cd2M Cd -0.49501(3) 0.27219(4) -0.39320(4)
Cd2N Cd -0.27219(4) 0.23281(3) -0.39320(4)
O3C O 0.2316(3) 0.5674(2) -0.0121(4)
O3D O -0.6642(4) -0.2316(3) -0.0121(4)
O3E O -0.5674(2) 0.6642(4) -0.0121(4)
O3L O -0.0993(2) 0.8983(3) -0.3212(4)
O3M O -0.8983(3) 0.0025(4) -0.3212(4)
O3N O -0.0025(4) 0.0993(2) -0.3212(4)
O4C O -0.6876(3) 0.5730(2) -0.0293(3)
O4D O 0.2606(4) 0.6876(3) -0.0293(3)
O4E O -0.5730(2) -0.2606(4) -0.0293(3)
O4L O -0.0937(2) -0.0209(3) -0.3040(3)
O4M O 0.0209(3) 0.9273(4) -0.3040(3)
O4N O -0.9273(4) 0.0937(2) -0.3040(3)
O6C O -0.0656(4) 0.0557(4) -0.1726(4)
O6D O -0.8787(6) 0.0656(4) -0.1726(4)
O6E O -0.0557(4) 0.8787(6) -0.1726(4)
O6L O -0.6110(4) 0.6011(4) -0.1607(4)
O6M O -0.6011(4) -0.2120(6) -0.1607(4)
O6N O 0.2120(6) 0.6110(4) -0.1607(4)
O8C O -0.0531(4) 0.1364(3) -0.2040(4)
O8D O -0.8105(5) 0.0531(4) -0.2040(4)
O8E O -0.1364(3) 0.8105(5) -0.2040(4)
O8L O -0.5303(3) 0.6136(4) -0.1293(4)
O8M O -0.6136(4) -0.1438(5) -0.1293(4)
O8N O 0.1438(5) 0.5303(3) -0.1293(4)
loop_
_geom_bond_atom_site_label_1
_geom_bond_atom_site_label_2
_geom_bond_site_symmetry_1
_geom_bond_site_symmetry_2
Cd1 O1 1_555 1_555
Cd2 O2 1_555 1_555
O2 C3 1_555 1_555
C1 O3 1_555 1_555
O3 Cd1 1_555 1_555
N1 H1 1_555 1_555
O4 Cd1 1_555 1_555
C2 C1 1_555 1_555
H2 C2 1_555 1_555
O5 Cd1 1_555 1_555
O6 C6 1_555 1_555
O7 Cd2 1_555 1_555
C3 O7 1_555 1_555
C4 C3 1_555 1_555
H3 C4 1_555 1_555
N2 Cd2 1_555 1_555
O8 C6 1_555 1_555
N3 C4 1_555 1_555
H4 N3 1_555 1_555
C5 H5 1_555 1_555
C6 C17 1_555 1_555
C7 N2 1_555 1_555
H6 C7 1_555 1_555
C8 C5 1_555 1_555
O9 C13 1_555 1_555
N4 H7 1_555 1_555
O10 C23 1_555 1_555
C9 C2 1_555 1_555
H8 C9 1_555 1_555
H9 C9 1_555 1_555
H10 C9 1_555 1_555
C10 C12 1_555 1_555
C11 C14 1_555 1_555
C12 H11 1_555 1_555
C13 N3 1_555 1_555
C14 H12 1_555 1_555
C15 C10 1_555 1_555
H13 C15 1_555 1_555
C16 C12 1_555 1_555
C17 N4 1_555 1_555
H14 C17 1_555 1_555
C18 N1 1_555 1_555
O11 C18 1_555 1_555
C19 C17 1_555 1_555
H15 C19 1_555 1_555
H16 C19 1_555 1_555
H17 C19 1_555 1_555
C20 N2 1_555 1_555
H18 C20 1_555 1_555
C21 C4 1_555 1_555
H19 C21 1_555 1_555
H20 C21 1_555 1_555
H21 C21 1_555 1_555
C22 C8 1_555 1_555
H22 C22 1_555 1_555
C23 N4 1_555 1_555
N2Q C7Q 1_555 1_555
C5Q H5Q 1_555 1_555
C7Q C5Q 1_555 1_555
H6Q C7Q 1_555 1_555
C8Q C8 1_555 1_555
C20Q N2Q 1_555 1_555
H18Q C20Q 1_555 1_555
C22Q C8Q 1_555 1_555
H22Q C22Q 1_555 1_555
Cd2A O2A 1_555 1_555
O2A C3A 1_555 1_555
C1A O3A 1_555 1_555
O3A Cd1 1_555 1_555
N1A H1A 1_555 1_555
O4A Cd1 1_555 1_555
C2A C1A 1_555 1_555
H2A C2A 1_555 1_555
O6A C6A 1_555 1_555
O7A Cd2A 1_555 1_555
C3A O7A 1_555 1_555
C4A C3A 1_555 1_555
H3A C4A 1_555 1_555
N2A Cd2A 1_555 1_555
O8A C6A 1_555 1_555
N3A C4A 1_555 1_555
H4A N3A 1_555 1_555
C5A H5A 1_555 1_555
C6A C17A 1_555 1_555
C7A N2A 1_555 1_555
H6A C7A 1_555 1_555
C8A C5A 1_555 1_555
O9A C13A 1_555 1_555
N4A H7A 1_555 1_555
O10A C23A 1_555 1_555
C9A C2A 1_555 1_555
H8A C9A 1_555 1_555
H9A C9A 1_555 1_555
H10A C9A 1_555 1_555
C10A C12A 1_555 1_555
C11A C14A 1_555 1_555
C12A H11A 1_555 1_555
C13A N3A 1_555 1_555
C14A H12A 1_555 1_555
C15A C10A 1_555 1_555
H13A C15A 1_555 1_555
C16A C12A 1_555 1_555
C17A N4A 1_555 1_555
H14A C17A 1_555 1_555
C18A N1A 1_555 1_555
O11A C18A 1_555 1_555
C19A C17A 1_555 1_555
H15A C19A 1_555 1_555
H16A C19A 1_555 1_555
H17A C19A 1_555 1_555
C20A N2A 1_555 1_555
H18A C20A 1_555 1_555
C21A C4A 1_555 1_555
H19A C21A 1_555 1_555
H20A C21A 1_555 1_555
H21A C21A 1_555 1_555
C22A C8A 1_555 1_555
H22A C22A 1_555 1_555
C23A N4A 1_555 1_555
N2P C7P 1_555 1_555
C5P H5P 1_555 1_555
C7P C5P 1_555 1_555
H6P C7P 1_555 1_555
C8P C8A 1_555 1_555
C20P N2P 1_555 1_555
H18P C20P 1_555 1_555
C22P C8P 1_555 1_555
H22P C22P 1_555 1_555
Cd2B O2B 1_555 1_555
O2B C3B 1_555 1_555
C1B O3B 1_555 1_555
O3B Cd1 1_555 1_555
N1B H1B 1_555 1_555
O4B Cd1 1_555 1_555
C2B C1B 1_555 1_555
H2B C2B 1_555 1_555
O6B C6B 1_555 1_555
O7B Cd2B 1_555 1_555
C3B O7B 1_555 1_555
C4B C3B 1_555 1_555
H3B C4B 1_555 1_555
N2B Cd2B 1_555 1_555
O8B C6B 1_555 1_555
N3B C4B 1_555 1_555
H4B N3B 1_555 1_555
C5B H5B 1_555 1_555
C6B C17B 1_555 1_555
C7B N2B 1_555 1_555
H6B C7B 1_555 1_555
C8B C5B 1_555 1_555
O9B C13B 1_555 1_555
N4B H7B 1_555 1_555
O10B C23B 1_555 1_555
C9B C2B 1_555 1_555
H8B C9B 1_555 1_555
H9B C9B 1_555 1_555
H10B C9B 1_555 1_555
C10B C12B 1_555 1_555
C11B C14B 1_555 1_555
C12B H11B 1_555 1_555
C13B N3B 1_555 1_555
C14B H12B 1_555 1_555
C15B C10B 1_555 1_555
H13B C15B 1_555 1_555
C16B C12B 1_555 1_555
C17B N4B 1_555 1_555
H14B C17B 1_555 1_555
C18B N1B 1_555 1_555
O11B C18B 1_555 1_555
C19B C17B 1_555 1_555
H15B C19B 1_555 1_555
H16B C19B 1_555 1_555
H17B C19B 1_555 1_555
C20B N2B 1_555 1_555
H18B C20B 1_555 1_555
C21B C4B 1_555 1_555
H19B C21B 1_555 1_555
H20B C21B 1_555 1_555
H21B C21B 1_555 1_555
C22B C8B 1_555 1_555
H22B C22B 1_555 1_555
C23B N4B 1_555 1_555
N2O C7O 1_555 1_555
C5O H5O 1_555 1_555
C7O C5O 1_555 1_555
H6O C7O 1_555 1_555
C8O C8B 1_555 1_555
C20O N2O 1_555 1_555
H18O C20O 1_555 1_555
C22O C8O 1_555 1_555
H22O C22O 1_555 1_555
Cd1O O1O 1_555 1_555
Cd2O N2O 1_555 1_555
O2O Cd2O 1_555 1_555
C1O O3O 1_555 1_555
O3O Cd1O 1_555 1_555
N1O H1O 1_555 1_555
O4O Cd1O 1_555 1_555
C2O C1O 1_555 1_555
H2O C2O 1_555 1_555
O5O Cd1O 1_555 1_555
O6O C6O 1_555 1_555
O7O Cd2O 1_555 1_555
C3O O2O 1_555 1_555
C4O C3O 1_555 1_555
H3O C4O 1_555 1_555
O8O C6O 1_555 1_555
N3O C4O 1_555 1_555
H4O N3O 1_555 1_555
C6O C17O 1_555 1_555
O9O C13O 1_555 1_555
N4O H7O 1_555 1_555
O10O C23O 1_555 1_555
C9O C2O 1_555 1_555
H8O C9O 1_555 1_555
H9O C9O 1_555 1_555
H10O C9O 1_555 1_555
C10O C12O 1_555 1_555
C11O C14O 1_555 1_555
C12O H11O 1_555 1_555
C13O N3O 1_555 1_555
C14O H12O 1_555 1_555
C15O C10O 1_555 1_555
H13O C15O 1_555 1_555
C16O C12O 1_555 1_555
C17O N4O 1_555 1_555
H14O C17O 1_555 1_555
C18O N1O 1_555 1_555
O11O C18O 1_555 1_555
C19O C17O 1_555 1_555
H15O C19O 1_555 1_555
H16O C19O 1_555 1_555
H17O C19O 1_555 1_555
C21O C4O 1_555 1_555
H19O C21O 1_555 1_555
H20O C21O 1_555 1_555
H21O C21O 1_555 1_555
C23O N4O 1_555 1_555
Cd2P N2P 1_555 1_555
O2P Cd2P 1_555 1_555
C1P O3P 1_555 1_555
O3P Cd1O 1_555 1_555
N1P H1P 1_555 1_555
O4P Cd1O 1_555 1_555
C2P C1P 1_555 1_555
H2P C2P 1_555 1_555
O6P C6P 1_555 1_555
O7P Cd2P 1_555 1_555
C3P O2P 1_555 1_555
C4P C3P 1_555 1_555
H3P C4P 1_555 1_555
O8P C6P 1_555 1_555
N3P C4P 1_555 1_555
H4P N3P 1_555 1_555
C6P C17P 1_555 1_555
O9P C13P 1_555 1_555
N4P H7P 1_555 1_555
O10P C23P 1_555 1_555
C9P C2P 1_555 1_555
H8P C9P 1_555 1_555
H9P C9P 1_555 1_555
H10P C9P 1_555 1_555
C10P C12P 1_555 1_555
C11P C14P 1_555 1_555
C12P H11P 1_555 1_555
C13P N3P 1_555 1_555
C14P H12P 1_555 1_555
C15P C10P 1_555 1_555
H13P C15P 1_555 1_555
C16P C12P 1_555 1_555
C17P N4P 1_555 1_555
H14P C17P 1_555 1_555
C18P N1P 1_555 1_555
O11P C18P 1_555 1_555
C19P C17P 1_555 1_555
H15P C19P 1_555 1_555
H16P C19P 1_555 1_555
H17P C19P 1_555 1_555
C21P C4P 1_555 1_555
H19P C21P 1_555 1_555
H20P C21P 1_555 1_555
H21P C21P 1_555 1_555
C23P N4P 1_555 1_555
Cd2Q N2Q 1_555 1_555
O2Q Cd2Q 1_555 1_555
C1Q O3Q 1_555 1_555
O3Q Cd1O 1_555 1_555
N1Q H1Q 1_555 1_555
O4Q Cd1O 1_555 1_555
C2Q C1Q 1_555 1_555
H2Q C2Q 1_555 1_555
O6Q C6Q 1_555 1_555
O7Q Cd2Q 1_555 1_555
C3Q O2Q 1_555 1_555
C4Q C3Q 1_555 1_555
H3Q C4Q 1_555 1_555
O8Q C6Q 1_555 1_555
N3Q C4Q 1_555 1_555
H4Q N3Q 1_555 1_555
C6Q C17Q 1_555 1_555
O9Q C13Q 1_555 1_555
N4Q H7Q 1_555 1_555
O10Q C23Q 1_555 1_555
C9Q C2Q 1_555 1_555
H8Q C9Q 1_555 1_555
H9Q C9Q 1_555 1_555
H10Q C9Q 1_555 1_555
C10Q C12Q 1_555 1_555
C11Q C14Q 1_555 1_555
C12Q H11Q 1_555 1_555
C13Q N3Q 1_555 1_555
C14Q H12Q 1_555 1_555
C15Q C10Q 1_555 1_555
H13Q C15Q 1_555 1_555
C16Q C12Q 1_555 1_555
C17Q N4Q 1_555 1_555
H14Q C17Q 1_555 1_555
C18Q N1Q 1_555 1_555
O11Q C18Q 1_555 1_555
C19Q C17Q 1_555 1_555
H15Q C19Q 1_555 1_555
H16Q C19Q 1_555 1_555
H17Q C19Q 1_555 1_555
C21Q C4Q 1_555 1_555
H19Q C21Q 1_555 1_555
H20Q C21Q 1_555 1_555
H21Q C21Q 1_555 1_555
C23Q N4Q 1_555 1_555
Cd2C O3A 1_555 1_555
Cd2D O3 1_555 1_555
Cd2E O4 1_555 1_555
Cd2F O6A 1_555 1_555
Cd2G O6B 1_555 1_555
Cd2H O6 1_555 1_555
Cd2I O6P 1_555 1_555
Cd2J O6Q 1_555 1_555
Cd2K O6O 1_555 1_555
Cd2L O3P 1_555 1_555
Cd2M O3O 1_555 1_555
Cd2N O4O 1_555 1_555
O3C Cd2A 1_555 1_555
O3D Cd2 1_555 1_555
O3E Cd2B 1_555 1_555
O3L Cd2P 1_555 1_555
O3M Cd2O 1_555 1_555
O3N Cd2Q 1_555 1_555
O4C Cd2B 1_555 1_555
O4D Cd2A 1_555 1_555
O4E Cd2 1_555 1_555
O4L Cd2Q 1_555 1_555
O4M Cd2P 1_555 1_555
O4N Cd2O 1_555 1_555
O6C Cd2Q 1_555 1_555
O6D Cd2O 1_555 1_555
O6E Cd2P 1_555 1_555
O6L Cd2B 1_555 1_555
O6M Cd2 1_555 1_555
O6N Cd2A 1_555 1_555
O8C Cd2Q 1_555 1_555
O8D Cd2O 1_555 1_555
O8E Cd2P 1_555 1_555
O8L Cd2B 1_555 1_555
O8M Cd2 1_555 1_555
O8N Cd2A 1_555 1_555
C1 O4 1_555 1_555
N1 C2 1_555 1_555
O8 Cd2H 1_555 1_555
C5 C7 1_555 1_555
C10 C23 1_555 1_555
C11 C15 1_555 1_555
C11 C18 1_555 1_555
C13 C16 1_555 1_555
C14 C16 1_555 1_555
C20 C22 1_555 1_555
C5Q C8Q 1_555 1_555
C20Q C22Q 1_555 1_555
C1A O4A 1_555 1_555
N1A C2A 1_555 1_555
O4A Cd2D 1_555 1_555
O8A Cd2F 1_555 1_555
C5A C7A 1_555 1_555
C10A C23A 1_555 1_555
C11A C15A 1_555 1_555
C11A C18A 1_555 1_555
C13A C16A 1_555 1_555
C14A C16A 1_555 1_555
C20A C22A 1_555 1_555
C5P C8P 1_555 1_555
C20P C22P 1_555 1_555
C1B O4B 1_555 1_555
O3B Cd2E 1_555 1_555
N1B C2B 1_555 1_555
O4B Cd2C 1_555 1_555
O8B Cd2G 1_555 1_555
C5B C7B 1_555 1_555
C10B C23B 1_555 1_555
C11B C15B 1_555 1_555
C11B C18B 1_555 1_555
C13B C16B 1_555 1_555
C14B C16B 1_555 1_555
C20B C22B 1_555 1_555
C5O C8O 1_555 1_555
C20O C22O 1_555 1_555
C1O O4O 1_555 1_555
N1O C2O 1_555 1_555
O7O C3O 1_555 1_555
O8O Cd2K 1_555 1_555
C10O C23O 1_555 1_555
C11O C15O 1_555 1_555
C11O C18O 1_555 1_555
C13O C16O 1_555 1_555
C14O C16O 1_555 1_555
C1P O4P 1_555 1_555
N1P C2P 1_555 1_555
O4P Cd2M 1_555 1_555
O7P C3P 1_555 1_555
O8P Cd2I 1_555 1_555
C10P C23P 1_555 1_555
C11P C15P 1_555 1_555
C11P C18P 1_555 1_555
C13P C16P 1_555 1_555
C14P C16P 1_555 1_555
C1Q O4Q 1_555 1_555
O3Q Cd2N 1_555 1_555
N1Q C2Q 1_555 1_555
O4Q Cd2L 1_555 1_555
O7Q C3Q 1_555 1_555
O8Q Cd2J 1_555 1_555
C10Q C23Q 1_555 1_555
C11Q C15Q 1_555 1_555
C11Q C18Q 1_555 1_555
C13Q C16Q 1_555 1_555
C14Q C16Q 1_555 1_555

#END
