
#######################################################################
#
#                 Cambridge Crystallographic Data Centre
#                                CCDC 
#
#######################################################################
#
# If this CIF has been generated from an entry in the Cambridge 
# Structural Database, then it will include bibliographic, chemical, 
# crystal, experimental, refinement or atomic coordinate data resulting 
# from the CCDC's data processing and validation procedures.
#
#######################################################################

data_GUTDUU
_symmetry_cell_setting           orthorhombic
_symmetry_space_group_name_H-M   'I b a m'
_symmetry_Int_Tables_number      72
_space_group_name_Hall           '-I 2 2c'
loop_
_symmetry_equiv_pos_site_id
_symmetry_equiv_pos_as_xyz
1 x,y,z
2 1/2+x,1/2+y,1/2+z
3 x,y,-z
4 1/2+x,1/2-y,z
5 1/2-x,1/2+y,z
6 1/2+x,1/2+y,1/2-z
7 x,-y,1/2+z
8 -x,y,1/2+z
9 -x,-y,-z
10 1/2-x,1/2-y,1/2-z
11 -x,-y,z
12 1/2-x,1/2+y,-z
13 1/2+x,1/2-y,-z
14 1/2-x,1/2-y,1/2+z
15 -x,y,1/2-z
16 x,-y,1/2-z
_cell_length_a                   8.418(19)
_cell_length_b                   16.70(4)
_cell_length_c                   20.62(5)
_cell_angle_alpha                90
_cell_angle_beta                 90
_cell_angle_gamma                90
_cell_volume                     2898.77
loop_
_atom_site_label
_atom_site_type_symbol
_atom_site_fract_x
_atom_site_fract_y
_atom_site_fract_z
Fe1 Fe 0.0000 0.0000 0.0000
N1 N 0.2121(14) 0.0713(8) 0.0000
C1 C 0.3396(14) 0.1001(8) 0.0000
S1 S 0.5157(6) 0.1426(4) 0.0000
N2 N -0.1003(9) 0.0801(5) 0.0832(4)
C2 C -0.2087(16) 0.0518(7) 0.1271(6)
H1 H -0.2490 0.0005 0.1212
C3 C -0.2619(18) 0.0957(8) 0.1803(7)
H2 H -0.3315 0.0727 0.2100
C4 C -0.2101(14) 0.1748(8) 0.1890(6)
C5 C -0.1078(13) 0.2054(7) 0.1424(6)
H3 H -0.0745 0.2584 0.1444
N3 N -0.2712(14) 0.2155(6) 0.2477(6)
C6 C -0.0558(14) 0.1558(8) 0.0925(6)
H4 H 0.0164 0.1773 0.0631
N3I N -0.2288(14) 0.2845(6) 0.2523(6)
C4I C -0.2899(14) 0.3252(8) 0.3110(6)
C3I C -0.2381(18) 0.4043(8) 0.3197(7)
C2I C -0.2913(16) 0.4482(7) 0.3729(6)
N2I N -0.3997(9) 0.4199(5) 0.4168(4)
C6I C -0.4442(14) 0.3442(8) 0.4075(6)
C5I C -0.3922(13) 0.2946(7) 0.3576(6)
H3I H -0.4255 0.2416 0.3556
H4I H -0.5164 0.3227 0.4369
H1I H -0.2510 0.4995 0.3788
H2I H -0.1685 0.4273 0.2900
N1H N -0.2121(14) -0.0713(8) 0.0000
C1H C -0.3396(14) -0.1001(8) 0.0000
S1H S -0.5157(6) -0.1426(4) 0.0000
N2B N -0.1003(9) 0.0801(5) -0.0832(4)
C2B C -0.2087(16) 0.0518(7) -0.1271(6)
H1B H -0.2490 0.0005 -0.1212
C3B C -0.2619(18) 0.0957(8) -0.1803(7)
H2B H -0.3315 0.0727 -0.2100
C4B C -0.2101(14) 0.1748(8) -0.1890(6)
C5B C -0.1078(13) 0.2054(7) -0.1424(6)
H3B H -0.0745 0.2584 -0.1444
N3B N -0.2712(14) 0.2155(6) -0.2477(6)
C6B C -0.0558(14) 0.1558(8) -0.0925(6)
H4B H 0.0164 0.1773 -0.0631
N3M N -0.2288(14) 0.2845(6) -0.2523(6)
C4M C -0.2899(14) 0.3252(8) -0.3110(6)
C3M C -0.2381(18) 0.4043(8) -0.3197(7)
C2M C -0.2913(16) 0.4482(7) -0.3729(6)
N2M N -0.3997(9) 0.4199(5) -0.4168(4)
C6M C -0.4442(14) 0.3442(8) -0.4075(6)
C5M C -0.3922(13) 0.2946(7) -0.3576(6)
H3M H -0.4255 0.2416 -0.3556
H4M H -0.5164 0.3227 -0.4369
H1M H -0.2510 0.4995 -0.3788
H2M H -0.1685 0.4273 -0.2900
N2H N 0.1003(9) -0.0801(5) -0.0832(4)
N2J N 0.1003(9) -0.0801(5) 0.0832(4)
Fe1A Fe -0.5000 0.5000 0.5000
Fe1A_2 Fe -0.5000 0.5000 -0.5000
loop_
_geom_bond_atom_site_label_1
_geom_bond_atom_site_label_2
_geom_bond_site_symmetry_1
_geom_bond_site_symmetry_2
Fe1 N1 1_555 1_555
N1 C1 1_555 1_555
C1 S1 1_555 1_555
N2 Fe1 1_555 1_555
C2 N2 1_555 1_555
H1 C2 1_555 1_555
C3 C2 1_555 1_555
H2 C3 1_555 1_555
C4 C3 1_555 1_555
C5 C4 1_555 1_555
H3 C5 1_555 1_555
N3 C4 1_555 1_555
C6 N2 1_555 1_555
H4 C6 1_555 1_555
N3I N3 1_555 1_555
C4I N3I 1_555 1_555
C3I C4I 1_555 1_555
C2I C3I 1_555 1_555
N2I C2I 1_555 1_555
C6I N2I 1_555 1_555
C5I C4I 1_555 1_555
H3I C5I 1_555 1_555
H4I C6I 1_555 1_555
H1I C2I 1_555 1_555
H2I C3I 1_555 1_555
N1H Fe1 1_555 1_555
C1H N1H 1_555 1_555
S1H C1H 1_555 1_555
N2B Fe1 1_555 1_555
C2B N2B 1_555 1_555
H1B C2B 1_555 1_555
C3B C2B 1_555 1_555
H2B C3B 1_555 1_555
C4B C3B 1_555 1_555
C5B C4B 1_555 1_555
H3B C5B 1_555 1_555
N3B C4B 1_555 1_555
C6B N2B 1_555 1_555
H4B C6B 1_555 1_555
N3M N3B 1_555 1_555
C4M N3M 1_555 1_555
C3M C4M 1_555 1_555
C2M C3M 1_555 1_555
N2M C2M 1_555 1_555
C6M N2M 1_555 1_555
C5M C4M 1_555 1_555
H3M C5M 1_555 1_555
H4M C6M 1_555 1_555
H1M C2M 1_555 1_555
H2M C3M 1_555 1_555
N2H Fe1 1_555 1_555
N2J Fe1 1_555 1_555
Fe1A N2I 1_555 1_555
Fe1A_2 N2M 1_555 1_555
C5 C6 1_555 1_555
C6I C5I 1_555 1_555
C5B C6B 1_555 1_555
C6M C5M 1_555 1_555

#END
