
#######################################################################
#
#                 Cambridge Crystallographic Data Centre
#                                CCDC 
#
#######################################################################
#
# If this CIF has been generated from an entry in the Cambridge 
# Structural Database, then it will include bibliographic, chemical, 
# crystal, experimental, refinement or atomic coordinate data resulting 
# from the CCDC's data processing and validation procedures.
#
#######################################################################

data_GUTDOO01
_symmetry_cell_setting           monoclinic
_symmetry_space_group_name_H-M   'C 2/c'
_symmetry_Int_Tables_number      15
_space_group_name_Hall           '-C 2yn'
loop_
_symmetry_equiv_pos_site_id
_symmetry_equiv_pos_as_xyz
1 x,y,z
2 -x,y,1/2-z
3 1/2+x,1/2+y,z
4 1/2-x,1/2+y,1/2-z
5 -x,-y,-z
6 x,-y,1/2+z
7 1/2-x,1/2-y,-z
8 1/2+x,1/2-y,1/2+z
_cell_length_a                   17.838(4)
_cell_length_b                   30.694(6)
_cell_length_c                   20.042(4)
_cell_angle_alpha                90
_cell_angle_beta                 90.016(4)
_cell_angle_gamma                90
_cell_volume                     10973.4
loop_
_atom_site_label
_atom_site_type_symbol
_atom_site_fract_x
_atom_site_fract_y
_atom_site_fract_z
Fe1 Fe -0.25203(5) -0.00746(2) 0.02433(4)
Fe2 Fe 0.00377(5) 0.24135(2) 0.52488(4)
S1 S -0.01252(11) -0.07140(6) 0.00084(12)
S2 S -0.46939(14) 0.07913(8) -0.02073(18)
S3 S -0.21495(12) 0.31086(8) 0.43995(12)
S4 S 0.21755(11) 0.16893(7) 0.44904(11)
C1 C -0.0993(4) -0.06019(19) 0.0129(3)
C2 C -0.3949(4) 0.0543(2) 0.0044(3)
C3 C -0.1484(4) 0.2908(2) 0.4851(4)
C4 C 0.1522(4) 0.1908(2) 0.4949(3)
N1 N -0.1621(3) -0.05084(14) 0.0226(3)
N2 N -0.3408(3) 0.03642(15) 0.0209(3)
N3 N -0.0982(3) 0.27669(15) 0.5174(3)
N4 N 0.1046(3) 0.20622(16) 0.5272(3)
N5 N -0.1980(3) 0.03240(16) 0.1032(2)
N6 N -0.0413(3) 0.19568(16) 0.4503(2)
N7 N -0.0986(3) 0.10290(18) 0.2598(3)
N8 N -0.1387(3) 0.11287(17) 0.3071(3)
C5 C -0.1241(3) 0.0344(2) 0.1113(3)
H1 H -0.0927 0.0196 0.0796
C6 C -0.0901(4) 0.0569(2) 0.1633(4)
H2 H -0.0365 0.0579 0.1676
C7 C -0.1358(4) 0.0779(2) 0.2087(3)
C8 C -0.2128(4) 0.0763(2) 0.2013(3)
H3 H -0.2455 0.0906 0.2324
C9 C -0.2409(4) 0.0532(2) 0.1480(3)
H4 H -0.2943 0.0520 0.1424
C10 C -0.1117(3) 0.1818(2) 0.4546(3)
H5 H -0.1415 0.1914 0.4917
C11 C -0.1444(4) 0.1540(2) 0.4081(3)
H6 H -0.1955 0.1447 0.4130
C12 C -0.1020(3) 0.1401(2) 0.3553(3)
C13 C -0.0279(3) 0.1540(2) 0.3496(3)
H7 H 0.0030 0.1451 0.3128
C14 C -0.0004(4) 0.18112(18) 0.3988(3)
H8 H 0.0511 0.1901 0.3961
N9 N -0.3130(3) -0.04649(17) -0.0517(3)
N10 N -0.4530(3) -0.21201(17) -0.4013(3)
N11 N -0.3846(4) -0.1344(2) -0.2029(4)
N12 N -0.3914(4) -0.1176(2) -0.2551(4)
C15 C -0.3158(4) -0.0901(2) -0.0455(3)
H9 H -0.2987 -0.1027 -0.0044
C16 C -0.3416(4) -0.1177(3) -0.0941(4)
H10 H -0.3428 -0.1487 -0.0870
C17 C -0.3655(4) -0.1001(3) -0.1528(4)
C18 C -0.3674(5) -0.0556(3) -0.1605(4)
H11 H -0.3862 -0.0426 -0.2007
C19 C -0.3410(4) -0.0295(3) -0.1074(4)
H12 H -0.3434 0.0016 -0.1117
C20 C -0.4661(4) -0.1697(2) -0.4079(4)
H13 H -0.4921 -0.1599 -0.4470
C21 C -0.4440(4) -0.1387(3) -0.3608(4)
H14 H -0.4534 -0.1082 -0.3677
C22 C -0.4082(5) -0.1533(3) -0.3040(4)
C23 C -0.3915(5) -0.1971(3) -0.2968(4)
H15 H -0.3649 -0.2078 -0.2585
C24 C -0.4148(5) -0.2249(3) -0.3472(4)
H16 H -0.4029 -0.2553 -0.3432
N13 N -0.1950(3) 0.02809(16) -0.0573(3)
N14 N -0.0450(3) 0.20198(16) -0.3943(3)
N15 N -0.1075(3) 0.0938(2) -0.2249(3)
N16 N -0.1276(3) 0.13221(18) -0.2301(3)
C25 C -0.1953(4) 0.0718(2) -0.0590(3)
H17 H -0.2157 0.0871 -0.0215
C26 C -0.1680(4) 0.0959(2) -0.1118(3)
H18 H -0.1700 0.1271 -0.1113
C27 C -0.1373(4) 0.0736(2) -0.1662(3)
C28 C -0.1333(4) 0.0289(2) -0.1644(4)
H19 H -0.1104 0.0130 -0.2003
C29 C -0.1633(4) 0.0072(2) -0.1092(3)
H20 H -0.1611 -0.0241 -0.1083
C30 C -0.0260(4) 0.1605(2) -0.3876(3)
H21 H 0.0069 0.1478 -0.4202
C31 C -0.0517(4) 0.1342(2) -0.3352(4)
H22 H -0.0380 0.1041 -0.3319
C32 C -0.0975(4) 0.1536(2) -0.2887(3)
C33 C -0.1192(5) 0.1962(2) -0.2959(3)
H23 H -0.1527 0.2095 -0.2644
C34 C -0.0921(4) 0.2194(2) -0.3493(3)
H24 H -0.1073 0.2492 -0.3546
N17 N -0.3034(3) -0.04514(16) 0.1057(2)
N18 N -0.4501(3) -0.21725(16) 0.4459(3)
N19 N -0.4009(3) -0.11968(19) 0.2584(3)
N20 N -0.3562(3) -0.1335(2) 0.3019(3)
C35 C -0.2597(4) -0.0675(2) 0.1481(3)
H25 H -0.2064 -0.0665 0.1418
C36 C -0.2874(4) -0.0920(2) 0.2004(4)
H26 H -0.2542 -0.1071 0.2301
C37 C -0.3644(3) -0.0943(2) 0.2089(3)
C38 C -0.4102(4) -0.0716(2) 0.1644(4)
H27 H -0.4637 -0.0731 0.1683
C39 C -0.3771(4) -0.0470(2) 0.1144(3)
H28 H -0.4087 -0.0306 0.0849
C40 C -0.4926(4) -0.2021(2) 0.3948(3)
H29 H -0.5439 -0.2115 0.3921
C41 C -0.4666(4) -0.1742(2) 0.3468(3)
H30 H -0.4989 -0.1637 0.3120
C42 C -0.3920(4) -0.1614(2) 0.3502(3)
C43 C -0.3474(4) -0.1758(2) 0.4015(4)
H31 H -0.2960 -0.1668 0.4049
C44 C -0.3785(4) -0.2036(2) 0.4478(3)
H32 H -0.3472 -0.2137 0.4836
Fe2B Fe -0.49623(5) -0.25865(2) -0.47512(4)
Fe2_2 Fe 0.00377(5) 0.24135(2) -0.47512(4)
Fe2B_2 Fe -0.49623(5) -0.25865(2) 0.52488(4)
N10B N 0.0470(3) 0.28799(17) 0.5987(3)
N14_2 N -0.0450(3) 0.20198(16) 0.6057(3)
N18B N 0.0499(3) 0.28275(16) 0.4459(3)
C45 C -0.1684(8) 0.2499(4) 0.2838(7)
H34 H -0.1679 0.2816 0.2747
H35 H -0.1257 0.2424 0.3132
C46 C -0.1662(8) 0.2248(4) 0.2222(7)
H36 H -0.1197 0.2312 0.1981
H38 H -0.1682 0.1936 0.2326
O2 O -0.2427(17) 0.2417(12) 0.2047(12)
H39 H -0.2540 0.2337 0.1659
H41 H -0.2109 0.2402 0.3110
O1? O -0.2426(6) 0.2356(3) 0.3143(5)
H33? H -0.2632 0.2570 0.3328
H37? H -0.2093 0.2327 0.1943
C47? C -0.1684(8) 0.2499(4) 0.2838(7)
H40? H -0.1217 0.2454 0.3086
H42? H -0.1740 0.2809 0.2733
C48? C -0.1662(8) 0.2248(4) 0.2222(7)
H43? H -0.1646 0.1929 0.2292
H44? H -0.1264 0.2342 0.1909
loop_
_geom_bond_atom_site_label_1
_geom_bond_atom_site_label_2
_geom_bond_site_symmetry_1
_geom_bond_site_symmetry_2
Fe1 N1 1_555 1_555
Fe2 N3 1_555 1_555
S1 C1 1_555 1_555
S2 C2 1_555 1_555
S3 C3 1_555 1_555
S4 C4 1_555 1_555
C1 N1 1_555 1_555
C2 N2 1_555 1_555
C3 N3 1_555 1_555
C4 N4 1_555 1_555
N2 Fe1 1_555 1_555
N4 Fe2 1_555 1_555
N5 Fe1 1_555 1_555
N6 Fe2 1_555 1_555
N7 N8 1_555 1_555
N8 C12 1_555 1_555
C5 N5 1_555 1_555
H1 C5 1_555 1_555
C6 C5 1_555 1_555
H2 C6 1_555 1_555
C7 N7 1_555 1_555
C8 C7 1_555 1_555
H3 C8 1_555 1_555
C9 N5 1_555 1_555
H4 C9 1_555 1_555
C10 N6 1_555 1_555
H5 C10 1_555 1_555
C11 C10 1_555 1_555
H6 C11 1_555 1_555
C12 C11 1_555 1_555
C13 C12 1_555 1_555
H7 C13 1_555 1_555
C14 N6 1_555 1_555
H8 C14 1_555 1_555
N9 Fe1 1_555 1_555
N10 C20 1_555 1_555
N11 N12 1_555 1_555
N12 C22 1_555 1_555
C15 N9 1_555 1_555
H9 C15 1_555 1_555
C16 C15 1_555 1_555
H10 C16 1_555 1_555
C17 N11 1_555 1_555
C18 C17 1_555 1_555
H11 C18 1_555 1_555
C19 N9 1_555 1_555
H12 C19 1_555 1_555
C20 H13 1_555 1_555
C21 C20 1_555 1_555
H14 C21 1_555 1_555
C22 C21 1_555 1_555
C23 C22 1_555 1_555
H15 C23 1_555 1_555
C24 N10 1_555 1_555
H16 C24 1_555 1_555
N13 Fe1 1_555 1_555
N14 C30 1_555 1_555
N15 N16 1_555 1_555
N16 C32 1_555 1_555
C25 N13 1_555 1_555
H17 C25 1_555 1_555
C26 C25 1_555 1_555
H18 C26 1_555 1_555
C27 N15 1_555 1_555
C28 C27 1_555 1_555
H19 C28 1_555 1_555
C29 N13 1_555 1_555
H20 C29 1_555 1_555
C30 H21 1_555 1_555
C31 C30 1_555 1_555
H22 C31 1_555 1_555
C32 C31 1_555 1_555
C33 C32 1_555 1_555
H23 C33 1_555 1_555
C34 N14 1_555 1_555
H24 C34 1_555 1_555
N17 Fe1 1_555 1_555
N18 C40 1_555 1_555
N19 N20 1_555 1_555
N20 C42 1_555 1_555
C35 N17 1_555 1_555
H25 C35 1_555 1_555
C36 C35 1_555 1_555
H26 C36 1_555 1_555
C37 N19 1_555 1_555
C38 C37 1_555 1_555
H27 C38 1_555 1_555
C39 N17 1_555 1_555
H28 C39 1_555 1_555
C40 H29 1_555 1_555
C41 C40 1_555 1_555
H30 C41 1_555 1_555
C42 C41 1_555 1_555
C43 C42 1_555 1_555
H31 C43 1_555 1_555
C44 N18 1_555 1_555
H32 C44 1_555 1_555
C45 H34 1_555 1_555
H35 C45 1_555 1_555
C46 C45 1_555 1_555
H36 C46 1_555 1_555
H38 C46 1_555 1_555
O2 C46 1_555 1_555
H39 O2 1_555 1_555
H41 C45 1_555 1_555
Fe2B N10 1_555 1_555
Fe2_2 N14 1_555 1_555
Fe2B_2 N18 1_555 1_555
N10B Fe2 1_555 1_555
N14_2 Fe2 1_555 1_555
N18B Fe2 1_555 1_555
C6 C7 1_555 1_555
C8 C9 1_555 1_555
C13 C14 1_555 1_555
C16 C17 1_555 1_555
C18 C19 1_555 1_555
C23 C24 1_555 1_555
C26 C27 1_555 1_555
C28 C29 1_555 1_555
C33 C34 1_555 1_555
C36 C37 1_555 1_555
C38 C39 1_555 1_555
C43 C44 1_555 1_555

#END
