
#######################################################################
#
#                 Cambridge Crystallographic Data Centre
#                                CCDC 
#
#######################################################################
#
# If this CIF has been generated from an entry in the Cambridge 
# Structural Database, then it will include bibliographic, chemical, 
# crystal, experimental, refinement or atomic coordinate data resulting 
# from the CCDC's data processing and validation procedures.
#
#######################################################################

data_GUTJUB
_symmetry_cell_setting           triclinic
_symmetry_space_group_name_H-M   'P -1'
_symmetry_Int_Tables_number      2
_space_group_name_Hall           '-P 1'
loop_
_symmetry_equiv_pos_site_id
_symmetry_equiv_pos_as_xyz
1 x,y,z
2 -x,-y,-z
_cell_length_a                   11.2732(13)
_cell_length_b                   11.4640(13)
_cell_length_c                   13.6745(15)
_cell_angle_alpha                83.406(2)
_cell_angle_beta                 76.081(2)
_cell_angle_gamma                89.742(2)
_cell_volume                     1703.51
loop_
_atom_site_label
_atom_site_type_symbol
_atom_site_fract_x
_atom_site_fract_y
_atom_site_fract_z
Co1 Co 0.5000 0.5000 0.5000
Co2 Co 0.53504(4) 0.57725(3) -0.10596(3)
N1 N 0.6463(2) 0.7252(2) -0.15120(19)
N2 N 0.3424(2) 0.3952(2) 0.48354(19)
N3 N 0.6269(2) 0.3513(2) 0.48190(19)
N4 N 0.7101(3) 0.4692(2) -0.1588(2)
N5 N 0.3710(2) 0.6869(2) -0.0721(2)
O1 O 0.5571(2) 0.55972(19) 0.34751(16)
O2 O 0.5032(2) 0.45536(18) 0.23851(16)
O3 O 0.56010(18) 0.57751(17) 0.03952(15)
C1 C 0.5625(3) 0.5379(3) 0.2585(2)
C2 C 0.6483(3) 0.6178(2) 0.1738(2)
C3 C 0.7397(3) 0.6759(3) 0.2042(2)
H1 H 0.7466 0.6607 0.2709
C4 C 0.8200(3) 0.7556(3) 0.1371(2)
H2 H 0.8823 0.7916 0.1575
C5 C 0.8065(3) 0.7806(3) 0.0401(2)
H3 H 0.8578 0.8367 -0.0047
C6 C 0.7172(3) 0.7235(2) 0.0077(2)
C7 C 0.6393(2) 0.6363(2) 0.0723(2)
C8 C 0.7136(3) 0.7638(3) -0.0968(2)
H4 H 0.7672 0.8257 -0.1288
C9 C 0.6610(3) 0.7859(3) -0.2548(2)
H5 H 0.6537 0.7289 -0.3004
H6 H 0.7420 0.8222 -0.2778
C10 C 0.5668(3) 0.8782(3) -0.2585(2)
C11 C 0.5687(4) 0.9794(3) -0.2128(3)
H7 H 0.6292 0.9909 -0.1789
C12 C 0.4814(4) 1.0639(4) -0.2172(4)
H8 H 0.4863 1.1337 -0.1896
C13 C 0.3887(5) 1.0453(4) -0.2614(4)
H9 H 0.3269 1.0995 -0.2601
C14 C 0.3870(5) 0.9463(4) -0.3077(5)
H10 H 0.3264 0.9354 -0.3418
C15 C 0.4740(4) 0.8625(4) -0.3044(3)
H11 H 0.4696 0.7940 -0.3340
C16 C 0.2581(3) 0.4425(3) 0.4414(3)
H12 H 0.2724 0.5188 0.4089
C17 C 0.1489(4) 0.3866(4) 0.4420(4)
H13 H 0.0905 0.4244 0.4127
C18 C 0.1312(4) 0.2719(5) 0.4883(4)
H14 H 0.0585 0.2313 0.4926
C19 C 0.2212(4) 0.2186(4) 0.5277(4)
H15 H 0.2133 0.1403 0.5557
C20 C 0.3237(4) 0.2850(3) 0.5244(3)
H16 H 0.3839 0.2497 0.5530
C21 C 0.7189(3) 0.3538(3) 0.4026(3)
H17 H 0.7240 0.4161 0.3518
C22 C 0.8092(4) 0.2717(3) 0.3882(3)
H18 H 0.8709 0.2773 0.3288
C23 C 0.8051(4) 0.1803(3) 0.4650(3)
H19 H 0.8657 0.1245 0.4603
C24 C 0.7081(4) 0.1756(3) 0.5482(3)
H20 H 0.6993 0.1134 0.5996
C25 C 0.6238(3) 0.2633(3) 0.5551(3)
H21 H 0.5616 0.2610 0.6140
C26 C 0.6993(4) 0.3725(3) -0.1979(3)
H22 H 0.6212 0.3482 -0.1994
C27 C 0.7963(4) 0.3037(4) -0.2374(4)
H23 H 0.7834 0.2349 -0.2638
C28 C 0.9117(4) 0.3393(4) -0.2367(4)
H24 H 0.9795 0.2964 -0.2638
C29 C 0.9243(4) 0.4402(4) -0.1946(5)
H25 H 1.0009 0.4675 -0.1919
C30 C 0.8202(3) 0.5002(4) -0.1564(4)
H26 H 0.8293 0.5676 -0.1268
C31 C 0.3747(3) 0.7834(3) -0.0311(3)
H27 H 0.4462 0.8005 -0.0124
C32 C 0.2819(4) 0.8621(4) -0.0130(4)
H28 H 0.2905 0.9291 0.0173
C33 C 0.1765(4) 0.8389(4) -0.0409(4)
H29 H 0.1110 0.8892 -0.0298
C34 C 0.1711(4) 0.7386(4) -0.0859(5)
H30 H 0.1026 0.7206 -0.1085
C35 C 0.2700(3) 0.6650(4) -0.0970(4)
H31 H 0.2637 0.5951 -0.1241
Co2A Co 0.46496(4) 0.42275(3) 1.10596(3)
Co2A_2 Co 0.46496(4) 0.42275(3) 0.10596(3)
Co2_2 Co 0.53504(4) 0.57725(3) 0.89404(3)
N1A N 0.3537(2) 0.2748(2) 1.15120(19)
N2A N 0.6576(2) 0.6048(2) 0.51646(19)
N3A N 0.3731(2) 0.6487(2) 0.51810(19)
N4A N 0.2899(3) 0.5308(2) 1.1588(2)
N5A N 0.6290(2) 0.3131(2) 1.0721(2)
O1A O 0.4429(2) 0.44028(19) 0.65249(16)
O2A O 0.4968(2) 0.54464(18) 0.76149(16)
O2A_2 O 0.4968(2) 0.54464(18) -0.23851(16)
O2_2 O 0.5032(2) 0.45536(18) 1.23851(16)
O3A O 0.43990(18) 0.42249(17) 0.96048(15)
O3A_2 O 0.43990(18) 0.42249(17) -0.03952(15)
O3_2 O 0.56010(18) 0.57751(17) 1.03952(15)
C1A C 0.4375(3) 0.4621(3) 0.7415(2)
C2A C 0.3517(3) 0.3822(2) 0.8262(2)
C3A C 0.2603(3) 0.3241(3) 0.7958(2)
H1A H 0.2534 0.3393 0.7291
C4A C 0.1800(3) 0.2444(3) 0.8629(2)
H2A H 0.1177 0.2084 0.8425
C5A C 0.1935(3) 0.2194(3) 0.9599(2)
H3A H 0.1422 0.1633 1.0047
C6A C 0.2828(3) 0.2765(2) 0.9923(2)
C7A C 0.3607(2) 0.3637(2) 0.9277(2)
C8A C 0.2864(3) 0.2362(3) 1.0968(2)
H4A H 0.2328 0.1743 1.1288
C9A C 0.3390(3) 0.2141(3) 1.2548(2)
H5A H 0.3463 0.2711 1.3004
H6A H 0.2580 0.1778 1.2778
C10A C 0.4332(3) 0.1218(3) 1.2585(2)
C11A C 0.4313(4) 0.0206(3) 1.2128(3)
H7A H 0.3708 0.0091 1.1789
C12A C 0.5186(4) -0.0639(4) 1.2172(4)
H8A H 0.5137 -0.1337 1.1896
C13A C 0.6113(5) -0.0453(4) 1.2614(4)
H9A H 0.6731 -0.0995 1.2601
C14A C 0.6130(5) 0.0537(4) 1.3077(5)
H10A H 0.6736 0.0646 1.3418
C15A C 0.5260(4) 0.1375(4) 1.3044(3)
H11A H 0.5304 0.2060 1.3340
C16A C 0.7419(3) 0.5575(3) 0.5586(3)
H12A H 0.7276 0.4812 0.5911
C17A C 0.8511(4) 0.6134(4) 0.5580(4)
H13A H 0.9095 0.5756 0.5873
C18A C 0.8688(4) 0.7281(5) 0.5117(4)
H14A H 0.9415 0.7687 0.5074
C19A C 0.7788(4) 0.7814(4) 0.4723(4)
H15A H 0.7867 0.8597 0.4443
C20A C 0.6763(4) 0.7150(3) 0.4756(3)
H16A H 0.6161 0.7503 0.4470
C21A C 0.2811(3) 0.6462(3) 0.5974(3)
H17A H 0.2760 0.5839 0.6482
C22A C 0.1908(4) 0.7283(3) 0.6118(3)
H18A H 0.1291 0.7227 0.6712
C23A C 0.1949(4) 0.8197(3) 0.5350(3)
H19A H 0.1343 0.8755 0.5397
C24A C 0.2919(4) 0.8244(3) 0.4518(3)
H20A H 0.3007 0.8866 0.4004
C25A C 0.3762(3) 0.7367(3) 0.4449(3)
H21A H 0.4384 0.7390 0.3860
C26A C 0.3007(4) 0.6275(3) 1.1979(3)
H22A H 0.3788 0.6518 1.1994
C27A C 0.2037(4) 0.6963(4) 1.2374(4)
H23A H 0.2166 0.7651 1.2638
C28A C 0.0883(4) 0.6607(4) 1.2367(4)
H24A H 0.0205 0.7036 1.2638
C29A C 0.0757(4) 0.5598(4) 1.1946(5)
H25A H -0.0009 0.5325 1.1919
C30A C 0.1798(3) 0.4998(4) 1.1564(4)
H26A H 0.1707 0.4324 1.1268
C31A C 0.6253(3) 0.2166(3) 1.0311(3)
H27A H 0.5538 0.1995 1.0124
C32A C 0.7181(4) 0.1379(4) 1.0130(4)
H28A H 0.7095 0.0709 0.9827
C33A C 0.8235(4) 0.1611(4) 1.0409(4)
H29A H 0.8890 0.1108 1.0298
C34A C 0.8289(4) 0.2614(4) 1.0859(5)
H30A H 0.8974 0.2794 1.1085
C35A C 0.7300(3) 0.3350(4) 1.0970(4)
H31A H 0.7363 0.4049 1.1241
Cl1 Cl 0.97264(9) -0.01181(8) 0.74047(9)
O4 O 0.9758(3) -0.1354(3) 0.7469(3)
O5 O 0.9265(7) 0.0285(6) 0.6631(6)
O6 O 0.8966(6) 0.0192(4) 0.8236(5)
O7 O 1.0890(4) 0.0350(5) 0.7199(4)
loop_
_geom_bond_atom_site_label_1
_geom_bond_atom_site_label_2
_geom_bond_site_symmetry_1
_geom_bond_site_symmetry_2
Co1 N2 1_555 1_555
Co2 N1 1_555 1_555
N1 C8 1_555 1_555
N2 C16 1_555 1_555
N3 Co1 1_555 1_555
N4 Co2 1_555 1_555
N5 Co2 1_555 1_555
O1 Co1 1_555 1_555
O2 C1 1_555 1_555
O3 Co2 1_555 1_555
C1 O1 1_555 1_555
C2 C1 1_555 1_555
C3 C2 1_555 1_555
H1 C3 1_555 1_555
C4 C3 1_555 1_555
H2 C4 1_555 1_555
C5 C4 1_555 1_555
H3 C5 1_555 1_555
C6 C5 1_555 1_555
C7 O3 1_555 1_555
C8 C6 1_555 1_555
H4 C8 1_555 1_555
C9 N1 1_555 1_555
H5 C9 1_555 1_555
H6 C9 1_555 1_555
C10 C9 1_555 1_555
C11 C10 1_555 1_555
H7 C11 1_555 1_555
C12 C11 1_555 1_555
H8 C12 1_555 1_555
C13 C12 1_555 1_555
H9 C13 1_555 1_555
C14 C13 1_555 1_555
H10 C14 1_555 1_555
C15 C10 1_555 1_555
H11 C15 1_555 1_555
C16 H12 1_555 1_555
C17 C16 1_555 1_555
H13 C17 1_555 1_555
C18 C17 1_555 1_555
H14 C18 1_555 1_555
C19 C18 1_555 1_555
H15 C19 1_555 1_555
C20 N2 1_555 1_555
H16 C20 1_555 1_555
C21 N3 1_555 1_555
H17 C21 1_555 1_555
C22 C21 1_555 1_555
H18 C22 1_555 1_555
C23 C22 1_555 1_555
H19 C23 1_555 1_555
C24 C23 1_555 1_555
H20 C24 1_555 1_555
C25 N3 1_555 1_555
H21 C25 1_555 1_555
C26 N4 1_555 1_555
H22 C26 1_555 1_555
C27 C26 1_555 1_555
H23 C27 1_555 1_555
C28 C27 1_555 1_555
H24 C28 1_555 1_555
C29 C28 1_555 1_555
H25 C29 1_555 1_555
C30 N4 1_555 1_555
H26 C30 1_555 1_555
C31 N5 1_555 1_555
H27 C31 1_555 1_555
C32 C31 1_555 1_555
H28 C32 1_555 1_555
C33 C32 1_555 1_555
H29 C33 1_555 1_555
C34 C33 1_555 1_555
H30 C34 1_555 1_555
C35 N5 1_555 1_555
H31 C35 1_555 1_555
Cl1 O4 1_555 1_555
O5 Cl1 1_555 1_555
O6 Cl1 1_555 1_555
O7 Cl1 1_555 1_555
Co2A N1A 1_555 1_555
Co2A_2 O2 1_555 1_555
Co2_2 O2A 1_555 1_555
N1A C8A 1_555 1_555
N2A Co1 1_555 1_555
N3A Co1 1_555 1_555
N4A Co2A 1_555 1_555
N5A Co2A 1_555 1_555
O1A Co1 1_555 1_555
O2A C1A 1_555 1_555
O2A_2 Co2 1_555 1_555
O2_2 Co2A 1_555 1_555
O3A Co2A 1_555 1_555
O3A_2 Co2 1_555 1_555
O3_2 Co2A 1_555 1_555
C1A O1A 1_555 1_555
C2A C1A 1_555 1_555
C3A C2A 1_555 1_555
H1A C3A 1_555 1_555
C4A C3A 1_555 1_555
H2A C4A 1_555 1_555
C5A C4A 1_555 1_555
H3A C5A 1_555 1_555
C6A C5A 1_555 1_555
C7A O3A 1_555 1_555
C8A C6A 1_555 1_555
H4A C8A 1_555 1_555
C9A N1A 1_555 1_555
H5A C9A 1_555 1_555
H6A C9A 1_555 1_555
C10A C9A 1_555 1_555
C11A C10A 1_555 1_555
H7A C11A 1_555 1_555
C12A C11A 1_555 1_555
H8A C12A 1_555 1_555
C13A C12A 1_555 1_555
H9A C13A 1_555 1_555
C14A C13A 1_555 1_555
H10A C14A 1_555 1_555
C15A C10A 1_555 1_555
H11A C15A 1_555 1_555
C16A N2A 1_555 1_555
H12A C16A 1_555 1_555
C17A C16A 1_555 1_555
H13A C17A 1_555 1_555
C18A C17A 1_555 1_555
H14A C18A 1_555 1_555
C19A C18A 1_555 1_555
H15A C19A 1_555 1_555
C20A N2A 1_555 1_555
H16A C20A 1_555 1_555
C21A N3A 1_555 1_555
H17A C21A 1_555 1_555
C22A C21A 1_555 1_555
H18A C22A 1_555 1_555
C23A C22A 1_555 1_555
H19A C23A 1_555 1_555
C24A C23A 1_555 1_555
H20A C24A 1_555 1_555
C25A N3A 1_555 1_555
H21A C25A 1_555 1_555
C26A N4A 1_555 1_555
H22A C26A 1_555 1_555
C27A C26A 1_555 1_555
H23A C27A 1_555 1_555
C28A C27A 1_555 1_555
H24A C28A 1_555 1_555
C29A C28A 1_555 1_555
H25A C29A 1_555 1_555
C30A N4A 1_555 1_555
H26A C30A 1_555 1_555
C31A N5A 1_555 1_555
H27A C31A 1_555 1_555
C32A C31A 1_555 1_555
H28A C32A 1_555 1_555
C33A C32A 1_555 1_555
H29A C33A 1_555 1_555
C34A C33A 1_555 1_555
H30A C34A 1_555 1_555
C35A N5A 1_555 1_555
H31A C35A 1_555 1_555
O3 Co2A_2 1_555 1_555
C2 C7 1_555 1_555
C6 C7 1_555 1_555
C14 C15 1_555 1_555
C19 C20 1_555 1_555
C24 C25 1_555 1_555
C29 C30 1_555 1_555
C34 C35 1_555 1_555
Co2A_2 O3A_2 1_555 1_555
Co2_2 O3A 1_555 1_555
Co2_2 O3_2 1_555 1_555
C2A C7A 1_555 1_555
C6A C7A 1_555 1_555
C14A C15A 1_555 1_555
C19A C20A 1_555 1_555
C24A C25A 1_555 1_555
C29A C30A 1_555 1_555
C34A C35A 1_555 1_555

#END
