
#######################################################################
#
#                 Cambridge Crystallographic Data Centre
#                                CCDC 
#
#######################################################################
#
# If this CIF has been generated from an entry in the Cambridge 
# Structural Database, then it will include bibliographic, chemical, 
# crystal, experimental, refinement or atomic coordinate data resulting 
# from the CCDC's data processing and validation procedures.
#
#######################################################################

data_GUTMEN
_symmetry_cell_setting           monoclinic
_symmetry_space_group_name_H-M   'P 21/n'
_symmetry_Int_Tables_number      14
_space_group_name_Hall           '-P 2yn'
loop_
_symmetry_equiv_pos_site_id
_symmetry_equiv_pos_as_xyz
1 x,y,z
2 1/2+x,1/2-y,1/2+z
3 -x,-y,-z
4 1/2-x,1/2+y,1/2-z
_cell_length_a                   3.9708(8)
_cell_length_b                   11.558(2)
_cell_length_c                   25.035(5)
_cell_angle_alpha                90
_cell_angle_beta                 91.99(3)
_cell_angle_gamma                90
_cell_volume                     1148.28
loop_
_atom_site_label
_atom_site_type_symbol
_atom_site_fract_x
_atom_site_fract_y
_atom_site_fract_z
K1 K 0.5948(3) 0.14007(11) 0.02336(5)
F1 F 0.0308(10) 0.3110(3) -0.00026(14)
F2 F 0.1121(10) -0.2810(3) -0.10346(14)
N1 N 0.0915(11) 0.1240(4) -0.06492(17)
N2 N -0.0821(11) -0.0577(4) -0.09534(17)
C1 C 0.2065(12) 0.2331(5) -0.0822(2)
C2 C 0.1751(13) 0.3289(5) -0.0488(2)
C3 C 0.2776(14) 0.4394(5) -0.0604(2)
H1 H 0.2452 0.5006 -0.0358
C4 C 0.4281(14) 0.4598(5) -0.1083(2)
H2 H 0.4994 0.5355 -0.1175
C5 C 0.4733(13) 0.3674(5) -0.1428(2)
H3 H 0.5771 0.3805 -0.1759
C6 C 0.3708(13) 0.2572(5) -0.1301(2)
H4 H 0.4116 0.1957 -0.1543
C7 C -0.1760(13) -0.1217(5) -0.1414(2)
C8 C -0.0829(14) -0.2370(5) -0.1447(2)
C9 C -0.1589(16) -0.3082(5) -0.1872(2)
H5 H -0.0842 -0.3863 -0.1873
C10 C -0.3488(16) -0.2632(6) -0.2305(2)
H6 H -0.4045 -0.3104 -0.2606
C11 C -0.4537(15) -0.1504(6) -0.2289(2)
H7 H -0.5833 -0.1196 -0.2582
C12 C -0.3738(14) -0.0803(6) -0.1854(2)
H8 H -0.4537 -0.0028 -0.1850
C13 C -0.0021(12) 0.0518(4) -0.1036(2)
H9 H -0.0125 0.0800 -0.1393
K1B K 0.4052(3) -0.14007(11) -0.02336(5)
F1_2 F 1.0308(10) 0.3110(3) -0.00026(14)
F2B F 0.8879(10) 0.2810(3) 0.10346(14)
N1_2 N 1.0915(11) 0.1240(4) -0.06492(17)
N2B N 0.0821(11) 0.0577(4) 0.09534(17)
N2B_2 N 1.0821(11) 0.0577(4) 0.09534(17)
K1_2 K -0.4052(3) 0.14007(11) 0.02336(5)
K1B_2 K -0.5948(3) -0.14007(11) -0.02336(5)
loop_
_geom_bond_atom_site_label_1
_geom_bond_atom_site_label_2
_geom_bond_site_symmetry_1
_geom_bond_site_symmetry_2
K1 F1 1_555 1_555
F1 C2 1_555 1_555
F2 C8 1_555 1_555
N1 K1 1_555 1_555
N2 C7 1_555 1_555
C1 K1 1_555 1_555
C2 K1 1_555 1_555
C3 C2 1_555 1_555
H1 C3 1_555 1_555
C4 C3 1_555 1_555
H2 C4 1_555 1_555
C5 C4 1_555 1_555
H3 C5 1_555 1_555
C6 C1 1_555 1_555
H4 C6 1_555 1_555
C7 C8 1_555 1_555
C8 C9 1_555 1_555
C9 H5 1_555 1_555
C10 C9 1_555 1_555
H6 C10 1_555 1_555
C11 C10 1_555 1_555
H7 C11 1_555 1_555
C12 C7 1_555 1_555
H8 C12 1_555 1_555
C13 N1 1_555 1_555
H9 C13 1_555 1_555
K1B F2 1_555 1_555
F1_2 K1 1_555 1_555
F2B K1 1_555 1_555
N1_2 K1 1_555 1_555
N2B K1 1_555 1_555
N2B_2 K1 1_555 1_555
K1_2 F1 1_555 1_555
K1B_2 N2 1_555 1_555
N1 C1 1_555 1_555
N1 K1_2 1_555 1_555
N2 C13 1_555 1_555
N2 K1B 1_555 1_555
C1 C2 1_555 1_555
C5 C6 1_555 1_555
C11 C12 1_555 1_555
N2B K1_2 1_555 1_555

#END
