
#######################################################################
#
#                 Cambridge Crystallographic Data Centre
#                                CCDC 
#
#######################################################################
#
# If this CIF has been generated from an entry in the Cambridge 
# Structural Database, then it will include bibliographic, chemical, 
# crystal, experimental, refinement or atomic coordinate data resulting 
# from the CCDC's data processing and validation procedures.
#
#######################################################################

data_GUTPAM
_symmetry_cell_setting           monoclinic
_symmetry_space_group_name_H-M   'C 2/c'
_symmetry_Int_Tables_number      15
_space_group_name_Hall           '-C 2yn'
loop_
_symmetry_equiv_pos_site_id
_symmetry_equiv_pos_as_xyz
1 x,y,z
2 1/2+x,1/2+y,z
3 x,-y,1/2+z
4 1/2+x,1/2-y,1/2+z
5 -x,-y,-z
6 1/2-x,1/2-y,-z
7 -x,y,1/2-z
8 1/2-x,1/2+y,1/2-z
_cell_length_a                   16.553(2)
_cell_length_b                   10.5323(15)
_cell_length_c                   17.341(3)
_cell_angle_alpha                90
_cell_angle_beta                 104.430(3)
_cell_angle_gamma                90
_cell_volume                     2927.88
loop_
_atom_site_label
_atom_site_type_symbol
_atom_site_fract_x
_atom_site_fract_y
_atom_site_fract_z
Co1 Co 0.0000 0.19436(11) 0.2500
V1 V 0.13044(7) 0.54102(11) 0.53162(6)
P1 P 0.01099(9) 0.44026(15) 0.37141(9)
N1 N -0.1190(3) 0.1795(5) 0.2753(3)
N2 N 0.0198(3) 0.0445(4) 0.3375(3)
O1 O 0.1681(4) 0.4117(6) 0.5716(3)
O2 O 0.2045(3) 0.6412(6) 0.5407(3)
O3 O 0.0815(3) 0.5225(4) 0.4235(2)
O4 O 0.0455(2) 0.3305(4) 0.3358(2)
O5 O -0.0485(3) 0.3970(4) 0.4217(2)
C1 C -0.1870(4) 0.2474(6) 0.2457(4)
H1 H -0.1862 0.3064 0.2060
C2 C -0.2599(4) 0.2338(7) 0.2719(4)
H2 H -0.3054 0.2865 0.2518
C3 C -0.2642(4) 0.1445(7) 0.3260(4)
H3 H -0.3126 0.1352 0.3434
C4 C -0.1956(4) 0.0655(6) 0.3562(4)
C5 C -0.1958(5) -0.0357(7) 0.4110(4)
H4 H -0.2436 -0.0515 0.4284
C6 C -0.1287(5) -0.1073(7) 0.4373(4)
H5 H -0.1311 -0.1740 0.4718
C7 C -0.0526(4) -0.0851(6) 0.4142(4)
C8 C 0.0215(5) -0.1547(6) 0.4426(4)
H6 H 0.0226 -0.2219 0.4777
C9 C 0.0910(4) -0.1238(6) 0.4190(4)
H7 H 0.1399 -0.1700 0.4372
C10 C 0.0882(4) -0.0227(6) 0.3674(4)
H8 H 0.1369 -0.0008 0.3530
C11 C -0.0495(4) 0.0144(6) 0.3611(3)
C12 C -0.1238(4) 0.0897(5) 0.3298(4)
C13 C -0.0489(4) 0.5456(6) 0.2979(3)
H9 H -0.0908 0.4960 0.2611
H10 H -0.0781 0.6047 0.3244
C14 C 0.0000 0.6219(9) 0.2500
H11 H 0.038(3) 0.673(5) 0.287(3)
C13F C 0.0489(4) 0.5456(6) 0.2021(3)
P1F P -0.01099(9) 0.44026(15) 0.12859(9)
O3F O -0.0815(3) 0.5225(4) 0.0765(2)
O4F O -0.0455(2) 0.3305(4) 0.1642(2)
O5F O 0.0485(3) 0.3970(4) 0.0783(2)
H9F H 0.0908 0.4960 0.2389
H10F H 0.0781 0.6047 0.1756
H11F H -0.038(3) 0.673(5) 0.213(3)
N1F N 0.1190(3) 0.1795(5) 0.2247(3)
N2F N -0.0198(3) 0.0445(4) 0.1625(3)
C1F C 0.1870(4) 0.2474(6) 0.2543(4)
H1F H 0.1862 0.3064 0.2940
C2F C 0.2599(4) 0.2338(7) 0.2281(4)
H2F H 0.3054 0.2865 0.2482
C3F C 0.2642(4) 0.1445(7) 0.1740(4)
H3F H 0.3126 0.1352 0.1566
C4F C 0.1956(4) 0.0655(6) 0.1438(4)
C5F C 0.1958(5) -0.0357(7) 0.0890(4)
H4F H 0.2436 -0.0515 0.0716
C6F C 0.1287(5) -0.1073(7) 0.0627(4)
H5F H 0.1311 -0.1740 0.0282
C7F C 0.0526(4) -0.0851(6) 0.0858(4)
C8F C -0.0215(5) -0.1547(6) 0.0574(4)
H6F H -0.0226 -0.2219 0.0223
C9F C -0.0910(4) -0.1238(6) 0.0810(4)
H7F H -0.1399 -0.1700 0.0628
C10F C -0.0882(4) -0.0227(6) 0.1326(4)
H8F H -0.1369 -0.0008 0.1470
C11F C 0.0495(4) 0.0144(6) 0.1389(3)
C12F C 0.1238(4) 0.0897(5) 0.1702(4)
V1F V -0.13044(7) 0.54102(11) -0.03162(6)
O1F O -0.1681(4) 0.4117(6) -0.0716(3)
O2F O -0.2045(3) 0.6412(6) -0.0407(3)
O5D O 0.0485(3) 0.6030(4) 0.5783(2)
V1D V -0.13044(7) 0.45898(11) 0.46838(6)
V1B V 0.13044(7) 0.45898(11) 0.03162(6)
O5B O -0.0485(3) 0.6030(4) -0.0783(2)
loop_
_geom_bond_atom_site_label_1
_geom_bond_atom_site_label_2
_geom_bond_site_symmetry_1
_geom_bond_site_symmetry_2
Co1 N1 1_555 1_555
V1 O1 1_555 1_555
P1 O3 1_555 1_555
N1 C1 1_555 1_555
N2 Co1 1_555 1_555
O2 V1 1_555 1_555
O3 V1 1_555 1_555
O4 Co1 1_555 1_555
O5 P1 1_555 1_555
C1 H1 1_555 1_555
C2 C1 1_555 1_555
H2 C2 1_555 1_555
C3 C2 1_555 1_555
H3 C3 1_555 1_555
C4 C3 1_555 1_555
C5 C4 1_555 1_555
H4 C5 1_555 1_555
C6 C5 1_555 1_555
H5 C6 1_555 1_555
C7 C6 1_555 1_555
C8 C7 1_555 1_555
H6 C8 1_555 1_555
C9 C8 1_555 1_555
H7 C9 1_555 1_555
C10 N2 1_555 1_555
H8 C10 1_555 1_555
C11 N2 1_555 1_555
C12 N1 1_555 1_555
C13 P1 1_555 1_555
H9 C13 1_555 1_555
H10 C13 1_555 1_555
C14 C13 1_555 1_555
H11 C14 1_555 1_555
C13F C14 1_555 1_555
P1F C13F 1_555 1_555
O3F P1F 1_555 1_555
O4F Co1 1_555 1_555
O5F P1F 1_555 1_555
H9F C13F 1_555 1_555
H10F C13F 1_555 1_555
H11F C14 1_555 1_555
N1F Co1 1_555 1_555
N2F Co1 1_555 1_555
C1F N1F 1_555 1_555
H1F C1F 1_555 1_555
C2F C1F 1_555 1_555
H2F C2F 1_555 1_555
C3F C2F 1_555 1_555
H3F C3F 1_555 1_555
C4F C3F 1_555 1_555
C5F C4F 1_555 1_555
H4F C5F 1_555 1_555
C6F C5F 1_555 1_555
H5F C6F 1_555 1_555
C7F C6F 1_555 1_555
C8F C7F 1_555 1_555
H6F C8F 1_555 1_555
C9F C8F 1_555 1_555
H7F C9F 1_555 1_555
C10F N2F 1_555 1_555
H8F C10F 1_555 1_555
C11F N2F 1_555 1_555
C12F N1F 1_555 1_555
V1F O3F 1_555 1_555
O1F V1F 1_555 1_555
O2F V1F 1_555 1_555
O5D V1 1_555 1_555
V1D O5 1_555 1_555
V1B O5F 1_555 1_555
O5B V1F 1_555 1_555
P1 O4 1_555 1_555
C4 C12 1_555 1_555
C7 C11 1_555 1_555
C9 C10 1_555 1_555
C11 C12 1_555 1_555
P1F O4F 1_555 1_555
C4F C12F 1_555 1_555
C7F C11F 1_555 1_555
C9F C10F 1_555 1_555
C11F C12F 1_555 1_555

#END
