
#######################################################################
#
#                 Cambridge Crystallographic Data Centre
#                                CCDC 
#
#######################################################################
#
# If this CIF has been generated from an entry in the Cambridge 
# Structural Database, then it will include bibliographic, chemical, 
# crystal, experimental, refinement or atomic coordinate data resulting 
# from the CCDC's data processing and validation procedures.
#
#######################################################################

data_GUTPEQ
_symmetry_cell_setting           triclinic
_symmetry_space_group_name_H-M   'P -1'
_symmetry_Int_Tables_number      2
_space_group_name_Hall           '-P 1'
loop_
_symmetry_equiv_pos_site_id
_symmetry_equiv_pos_as_xyz
1 x,y,z
2 -x,-y,-z
_cell_length_a                   10.2132(3)
_cell_length_b                   11.7055(5)
_cell_length_c                   12.3666(5)
_cell_angle_alpha                75.594(2)
_cell_angle_beta                 82.445(2)
_cell_angle_gamma                86.071(2)
_cell_volume                     1418.53
loop_
_atom_site_label
_atom_site_type_symbol
_atom_site_fract_x
_atom_site_fract_y
_atom_site_fract_z
Co1 Co 0.19370(7) 0.74479(6) 0.72724(6)
V1 V 0.39718(8) 0.68161(8) 0.50951(7)
V2 V 0.34552(9) 0.26513(8) 0.70391(7)
P1 P 0.40101(14) 0.51303(12) 0.74551(11)
N1 N 0.0734(4) 0.9020(4) 0.6830(4)
N2 N 0.0381(4) 0.6846(4) 0.6599(4)
N3 N 0.0960(4) 0.7153(4) 0.8960(4)
N4 N 0.3289(4) 0.8147(4) 0.8116(4)
O1 O 0.2699(3) 0.5729(3) 0.7712(3)
O2 O 0.4593(4) 0.5577(3) 0.6210(3)
O3 O 0.3924(4) 0.3775(3) 0.7734(3)
O4 O 0.3250(3) 0.7777(3) 0.5785(3)
O5 O 0.2888(4) 0.6378(4) 0.4468(3)
O6 O 0.5315(4) 0.7448(4) 0.4131(3)
O7 O 0.2041(4) 0.3060(4) 0.6593(3)
O8 O 0.3320(5) 0.1412(4) 0.7963(4)
C1 C 0.5149(5) 0.5352(5) 0.8356(4)
H1 H 0.5978 0.4925 0.8219
H2 H 0.5326 0.6185 0.8203
C2 C 0.4550(6) 0.4906(5) 0.9590(5)
H3 H 0.3707 0.5318 0.9710
H4 H 0.4389 0.4071 0.9736
C3 C 0.0949(5) 1.0094(5) 0.6898(5)
H5 H 0.1725 1.0223 0.7160
C4 C 0.0059(6) 1.1052(5) 0.6593(5)
H6 H 0.0255 1.1802 0.6639
C5 C -0.1091(6) 1.0874(5) 0.6230(5)
H7 H -0.1695 1.1500 0.6033
C6 C -0.1367(5) 0.9733(5) 0.6154(4)
C7 C -0.2538(5) 0.9466(5) 0.5760(5)
H8 H -0.3168 1.0064 0.5543
C8 C -0.2740(5) 0.8365(5) 0.5699(5)
H9 H -0.3520 0.8211 0.5457
C9 C -0.1792(5) 0.7424(5) 0.5994(4)
C10 C -0.1930(5) 0.6259(5) 0.5913(4)
H10 H -0.2706 0.6045 0.5710
C11 C -0.0918(6) 0.5449(5) 0.6136(5)
H11 H -0.0990 0.4682 0.6069
C12 C 0.0235(5) 0.5777(5) 0.6466(5)
H12 H 0.0926 0.5220 0.6596
C13 C -0.0610(5) 0.7670(5) 0.6352(4)
C14 C -0.0412(5) 0.8830(4) 0.6456(4)
C15 C -0.0200(6) 0.6685(6) 0.9368(5)
H13 H -0.0724 0.6511 0.8874
C16 C -0.0674(7) 0.6442(7) 1.0520(6)
H14 H -0.1490 0.6106 1.0781
C17 C 0.0083(8) 0.6706(6) 1.1241(6)
H15 H -0.0233 0.6576 1.2000
C18 C 0.1319(7) 0.7167(5) 1.0861(5)
C19 C 0.2200(8) 0.7429(6) 1.1576(5)
H16 H 0.1949 0.7267 1.2347
C20 C 0.3361(8) 0.7898(7) 1.1160(6)
H17 H 0.3910 0.8049 1.1648
C21 C 0.3790(6) 0.8175(5) 0.9977(5)
C22 C 0.4996(6) 0.8681(6) 0.9486(6)
H18 H 0.5583 0.8844 0.9938
C23 C 0.5316(6) 0.8935(6) 0.8350(6)
H19 H 0.6106 0.9288 0.8018
C24 C 0.4427(6) 0.8653(5) 0.7696(5)
H20 H 0.4649 0.8831 0.6920
C25 C 0.2958(5) 0.7921(5) 0.9249(5)
C26 C 0.1718(6) 0.7402(5) 0.9695(4)
C2A C 0.5450(6) 0.5094(5) 1.0410(5)
C1A C 0.4851(5) 0.4648(5) 1.1644(4)
P1A P 0.59899(14) 0.48697(12) 1.25449(11)
O1A O 0.7301(3) 0.4271(3) 1.2288(3)
O2A O 0.5407(4) 0.4423(3) 1.3790(3)
O3A O 0.6076(4) 0.6225(3) 1.2266(3)
H1A H 0.4022 0.5075 1.1781
H2A H 0.4674 0.3815 1.1797
H3A H 0.6293 0.4682 1.0290
H4A H 0.5611 0.5929 1.0264
Co1A Co 0.80630(7) 0.25521(6) 1.27276(6)
V1A V 0.60282(8) 0.31839(8) 1.49049(7)
V2A V 0.65448(9) 0.73487(8) 1.29609(7)
O6A O 0.4685(4) 0.2552(4) 0.5869(3)
N1A N 0.9266(4) 0.0980(4) 1.3170(4)
N2A N 0.9619(4) 0.3154(4) 1.3401(4)
C3A C 0.9051(5) -0.0094(5) 1.3102(5)
H5A H 0.8275 -0.0223 1.2840
C4A C 0.9941(6) -0.1052(5) 1.3407(5)
H6A H 0.9745 -0.1802 1.3361
C5A C 1.1091(6) -0.0874(5) 1.3770(5)
H7A H 1.1695 -0.1500 1.3967
C6A C 1.1367(5) 0.0267(5) 1.3846(4)
C7A C 1.2538(5) 0.0534(5) 1.4240(5)
H8A H 1.3168 -0.0064 1.4457
C8A C 1.2740(5) 0.1635(5) 1.4301(5)
H9A H 1.3520 0.1789 1.4543
C9A C 1.1792(5) 0.2576(5) 1.4006(4)
C10A C 1.1930(5) 0.3741(5) 1.4087(4)
H10A H 1.2706 0.3955 1.4290
C11A C 1.0918(6) 0.4551(5) 1.3864(5)
H11A H 1.0990 0.5318 1.3931
C12A C 0.9765(5) 0.4223(5) 1.3534(5)
H12A H 0.9074 0.4780 1.3404
C13A C 1.0610(5) 0.2330(5) 1.3648(4)
C14A C 1.0412(5) 0.1170(4) 1.3544(4)
N3A N 0.9040(4) 0.2847(4) 1.1040(4)
N4A N 0.6711(4) 0.1853(4) 1.1884(4)
C15A C 1.0200(6) 0.3315(6) 1.0632(5)
H13A H 1.0724 0.3489 1.1126
C16A C 1.0674(7) 0.3558(7) 0.9480(6)
H14A H 1.1490 0.3894 0.9219
C17A C 0.9917(8) 0.3294(6) 0.8759(6)
H15A H 1.0233 0.3424 0.8000
C18A C 0.8681(7) 0.2833(5) 0.9139(5)
C19A C 0.7800(8) 0.2571(6) 0.8424(5)
H16A H 0.8051 0.2733 0.7653
C20A C 0.6639(8) 0.2102(7) 0.8840(6)
H17A H 0.6090 0.1951 0.8352
C21A C 0.6210(6) 0.1825(5) 1.0023(5)
C22A C 0.5004(6) 0.1319(6) 1.0514(6)
H18A H 0.4417 0.1156 1.0062
C23A C 0.4684(6) 0.1065(6) 1.1650(6)
H19A H 0.3894 0.0712 1.1982
C24A C 0.5573(6) 0.1347(5) 1.2304(5)
H20A H 0.5351 0.1169 1.3080
C25A C 0.7042(5) 0.2079(5) 1.0751(5)
C26A C 0.8282(6) 0.2598(5) 1.0305(4)
O4A O 0.6750(3) 0.2223(3) 1.4215(3)
O5A O 0.7112(4) 0.3622(4) 1.5532(3)
O7A O 0.7959(4) 0.6940(4) 1.3407(3)
O8A O 0.6680(5) 0.8588(4) 1.2037(4)
V2A_2 V 0.65448(9) 0.73487(8) 0.29609(7)
O6A_2 O 0.4685(4) 0.2552(4) 1.5869(3)
O6_2 O 0.5315(4) 0.7448(4) 1.4131(3)
V1A_2 V 0.60282(8) 0.31839(8) 0.49049(7)
O9 O 0.1434(14) 0.0479(11) 0.9957(13)
loop_
_geom_bond_atom_site_label_1
_geom_bond_atom_site_label_2
_geom_bond_site_symmetry_1
_geom_bond_site_symmetry_2
Co1 N1 1_555 1_555
V1 O2 1_555 1_555
V2 O3 1_555 1_555
P1 O1 1_555 1_555
N1 C3 1_555 1_555
N2 Co1 1_555 1_555
N3 Co1 1_555 1_555
N4 Co1 1_555 1_555
O1 Co1 1_555 1_555
O2 P1 1_555 1_555
O3 P1 1_555 1_555
O4 Co1 1_555 1_555
O5 V1 1_555 1_555
O6 V1 1_555 1_555
O7 V2 1_555 1_555
O8 V2 1_555 1_555
C1 P1 1_555 1_555
H1 C1 1_555 1_555
H2 C1 1_555 1_555
C2 C1 1_555 1_555
H3 C2 1_555 1_555
H4 C2 1_555 1_555
C3 H5 1_555 1_555
C4 C3 1_555 1_555
H6 C4 1_555 1_555
C5 C4 1_555 1_555
H7 C5 1_555 1_555
C6 C5 1_555 1_555
C7 C6 1_555 1_555
H8 C7 1_555 1_555
C8 C7 1_555 1_555
H9 C8 1_555 1_555
C9 C8 1_555 1_555
C10 C9 1_555 1_555
H10 C10 1_555 1_555
C11 C10 1_555 1_555
H11 C11 1_555 1_555
C12 N2 1_555 1_555
H12 C12 1_555 1_555
C13 N2 1_555 1_555
C14 N1 1_555 1_555
C15 N3 1_555 1_555
H13 C15 1_555 1_555
C16 C15 1_555 1_555
H14 C16 1_555 1_555
C17 C16 1_555 1_555
H15 C17 1_555 1_555
C18 C17 1_555 1_555
C19 C18 1_555 1_555
H16 C19 1_555 1_555
C20 C19 1_555 1_555
H17 C20 1_555 1_555
C21 C20 1_555 1_555
C22 C21 1_555 1_555
H18 C22 1_555 1_555
C23 C22 1_555 1_555
H19 C23 1_555 1_555
C24 N4 1_555 1_555
H20 C24 1_555 1_555
C25 N4 1_555 1_555
C26 N3 1_555 1_555
C2A C2 1_555 1_555
C1A C2A 1_555 1_555
P1A C1A 1_555 1_555
O1A P1A 1_555 1_555
O2A P1A 1_555 1_555
O3A P1A 1_555 1_555
H1A C1A 1_555 1_555
H2A C1A 1_555 1_555
H3A C2A 1_555 1_555
H4A C2A 1_555 1_555
Co1A O1A 1_555 1_555
V1A O2A 1_555 1_555
V2A O3A 1_555 1_555
O6A V2 1_555 1_555
N1A Co1A 1_555 1_555
N2A Co1A 1_555 1_555
C3A N1A 1_555 1_555
H5A C3A 1_555 1_555
C4A C3A 1_555 1_555
H6A C4A 1_555 1_555
C5A C4A 1_555 1_555
H7A C5A 1_555 1_555
C6A C5A 1_555 1_555
C7A C6A 1_555 1_555
H8A C7A 1_555 1_555
C8A C7A 1_555 1_555
H9A C8A 1_555 1_555
C9A C8A 1_555 1_555
C10A C9A 1_555 1_555
H10A C10A 1_555 1_555
C11A C10A 1_555 1_555
H11A C11A 1_555 1_555
C12A N2A 1_555 1_555
H12A C12A 1_555 1_555
C13A N2A 1_555 1_555
C14A N1A 1_555 1_555
N3A Co1A 1_555 1_555
N4A Co1A 1_555 1_555
C15A N3A 1_555 1_555
H13A C15A 1_555 1_555
C16A C15A 1_555 1_555
H14A C16A 1_555 1_555
C17A C16A 1_555 1_555
H15A C17A 1_555 1_555
C18A C17A 1_555 1_555
C19A C18A 1_555 1_555
H16A C19A 1_555 1_555
C20A C19A 1_555 1_555
H17A C20A 1_555 1_555
C21A C20A 1_555 1_555
C22A C21A 1_555 1_555
H18A C22A 1_555 1_555
C23A C22A 1_555 1_555
H19A C23A 1_555 1_555
C24A N4A 1_555 1_555
H20A C24A 1_555 1_555
C25A N4A 1_555 1_555
C26A N3A 1_555 1_555
O4A Co1A 1_555 1_555
O5A V1A 1_555 1_555
O7A V2A 1_555 1_555
O8A V2A 1_555 1_555
V2A_2 O6 1_555 1_555
O6A_2 V1A 1_555 1_555
O6_2 V2A 1_555 1_555
V1A_2 O6A 1_555 1_555
V1 O4 1_555 1_555
C6 C14 1_555 1_555
C9 C13 1_555 1_555
C11 C12 1_555 1_555
C13 C14 1_555 1_555
C18 C26 1_555 1_555
C21 C25 1_555 1_555
C23 C24 1_555 1_555
C25 C26 1_555 1_555
V1A O4A 1_555 1_555
C6A C14A 1_555 1_555
C9A C13A 1_555 1_555
C11A C12A 1_555 1_555
C13A C14A 1_555 1_555
C18A C26A 1_555 1_555
C21A C25A 1_555 1_555
C23A C24A 1_555 1_555
C25A C26A 1_555 1_555

#END
