
#######################################################################
#
#                 Cambridge Crystallographic Data Centre
#                                CCDC 
#
#######################################################################
#
# If this CIF has been generated from an entry in the Cambridge 
# Structural Database, then it will include bibliographic, chemical, 
# crystal, experimental, refinement or atomic coordinate data resulting 
# from the CCDC's data processing and validation procedures.
#
#######################################################################

data_GUTPUI
_symmetry_cell_setting           monoclinic
_symmetry_space_group_name_H-M   'P 21'
_symmetry_Int_Tables_number      4
_space_group_name_Hall           'P 2yb'
loop_
_symmetry_equiv_pos_site_id
_symmetry_equiv_pos_as_xyz
1 x,y,z
2 -x,1/2+y,-z
_cell_length_a                   9.2640(19)
_cell_length_b                   12.020(2)
_cell_length_c                   13.833(3)
_cell_angle_alpha                90
_cell_angle_beta                 106.95(3)
_cell_angle_gamma                90
_cell_volume                     1473.44
loop_
_atom_site_label
_atom_site_type_symbol
_atom_site_fract_x
_atom_site_fract_y
_atom_site_fract_z
Mn1 Mn 0.17538(4) 0.65238(3) 0.46105(2)
C1 C 0.1833(3) 0.7715(2) 0.66862(19)
H1 H 0.1696 0.8348 0.6283
C2 C 0.1926(3) 0.7836(2) 0.77014(19)
H2 H 0.1851 0.8538 0.7965
C3 C 0.2129(3) 0.6910(2) 0.83168(17)
C4 C 0.2300(3) 0.5896(2) 0.78845(18)
H3 H 0.2495 0.5256 0.8279
C5 C 0.2181(3) 0.5837(2) 0.68706(18)
H4 H 0.2277 0.5146 0.6594
C6 C 0.2089(3) 0.7015(2) 0.93679(18)
H5 H 0.2255 0.7716 0.9666
C7 C 0.1831(3) 0.6174(2) 0.99199(17)
H6 H 0.1725 0.5471 0.9627
C8 C 0.1698(3) 0.6255(2) 1.09498(17)
C9 C 0.2064(3) 0.7219(2) 1.15193(19)
H7 H 0.2383 0.7850 1.1250
C10 C 0.1144(3) 0.5435(2) 1.23842(18)
H8 H 0.0824 0.4819 1.2674
C11 C 0.1209(3) 0.5353(2) 1.14015(18)
H9 H 0.0927 0.4695 1.1042
C12 C 0.1947(3) 0.7231(2) 1.2491(2)
H10 H 0.2182 0.7888 1.2859
N1 N 0.1932(2) 0.67308(17) 0.62634(14)
N2 N 0.1519(2) 0.63581(17) 1.29370(14)
O1 O 0.37858(18) 0.74687(14) 0.48714(13)
H11 H 0.3901 0.8099 0.4626
H12 H 0.4593 0.7097 0.4955
O2 O 0.29818(18) 0.50055(13) 0.48812(12)
H13 H 0.3897 0.4870 0.5201
H14 H 0.2513 0.4390 0.4753
O3 O -0.03835(19) 0.55931(15) 0.43705(13)
H15 H -0.1226 0.5716 0.3933
H16 H -0.0559 0.5373 0.4909
O4 O 0.03297(18) 0.80136(13) 0.41794(12)
H17 H -0.0392 0.7931 0.3640
H18 H 0.0719 0.8654 0.4183
Mn1_2 Mn 0.17538(4) 0.65238(3) 1.46105(2)
N2_2 N 0.1519(2) 0.63581(17) 0.29370(14)
P1 P 0.69835(7) 0.53902(5) 0.59056(4)
C13 C 0.4596(3) 1.0039(2) 0.74731(18)
C14 C 0.5514(3) 0.9214(2) 0.90533(18)
C15 C 0.6029(3) 0.8386(2) 0.76173(18)
H19 H 0.6466 0.7820 0.7341
C16 C 0.5226(3) 0.9182(2) 0.70145(18)
H20 H 0.5087 0.9173 0.6321
C17 C 0.7210(3) 0.7606(2) 0.93408(18)
H21 H 0.7776 0.8010 0.9948
C18 C 0.6352(2) 0.6654(2) 0.96510(16)
H22 H 0.5299 0.6853 0.9577
C19 C 0.6476(3) 0.5766(2) 0.88901(18)
H23 H 0.5727 0.5915 0.8239
C20 C 0.8049(3) 0.5967(2) 0.87949(18)
H24 H 0.8783 0.5627 0.9378
C21 C 0.8346(3) 0.5543(2) 0.78509(17)
H25 H 0.9367 0.5733 0.7859
H26 H 0.8252 0.4739 0.7823
N3 N 0.4709(2) 1.00251(17) 0.84661(15)
N4 N 0.6209(2) 0.84006(16) 0.86320(15)
N5 N 0.3873(3) 1.08865(19) 0.69204(16)
H27 H 0.3493 1.1405 0.7199
H28 H 0.3785 1.0915 0.6285
O5 O 0.5692(2) 0.91570(15) 0.99820(12)
O6 O 0.82305(19) 0.71581(15) 0.88717(13)
O7 O 0.72975(19) 0.60211(13) 0.69790(12)
O8 O 0.63231(17) 0.62965(13) 0.51424(11)
O9 O 0.58673(18) 0.44587(13) 0.59002(12)
O10 O 0.84757(18) 0.49608(14) 0.58251(12)
O11 O 0.71381(18) 0.63575(16) 1.06660(11)
H29 H 0.6586 0.5981 1.0904
O12 O 0.6368(2) 0.46413(14) 0.91611(14)
H30 H 0.5781 0.4591 0.9503
O13 O 0.8329(2) 0.80591(16) 0.54639(16)
H31 H 0.8890 0.8017 0.5076
H32 H 0.7731 0.7506 0.5346
O14 O 0.8029(2) 0.77797(18) 0.24217(15)
H33 H 0.7241 0.8127 0.2437
H34 H 0.7903 0.7487 0.1844
O15 O 0.5415(2) 0.86214(16) 0.26300(14)
H35 H 0.5059 0.8854 0.3094
H36 H 0.4906 0.8910 0.2074
loop_
_geom_bond_atom_site_label_1
_geom_bond_atom_site_label_2
_geom_bond_site_symmetry_1
_geom_bond_site_symmetry_2
Mn1 N1 1_555 1_555
C1 H1 1_555 1_555
C2 C1 1_555 1_555
H2 C2 1_555 1_555
C3 C2 1_555 1_555
C4 C3 1_555 1_555
H3 C4 1_555 1_555
C5 C4 1_555 1_555
H4 C5 1_555 1_555
C6 C3 1_555 1_555
H5 C6 1_555 1_555
C7 C6 1_555 1_555
H6 C7 1_555 1_555
C8 C7 1_555 1_555
C9 C8 1_555 1_555
H7 C9 1_555 1_555
C10 H8 1_555 1_555
C11 C8 1_555 1_555
H9 C11 1_555 1_555
C12 C9 1_555 1_555
H10 C12 1_555 1_555
N1 C1 1_555 1_555
N2 C10 1_555 1_555
O1 Mn1 1_555 1_555
H11 O1 1_555 1_555
H12 O1 1_555 1_555
O2 Mn1 1_555 1_555
H13 O2 1_555 1_555
H14 O2 1_555 1_555
O3 Mn1 1_555 1_555
H15 O3 1_555 1_555
H16 O3 1_555 1_555
O4 Mn1 1_555 1_555
H17 O4 1_555 1_555
H18 O4 1_555 1_555
P1 O7 1_555 1_555
C13 C16 1_555 1_555
C14 N3 1_555 1_555
C15 H19 1_555 1_555
C16 C15 1_555 1_555
H20 C16 1_555 1_555
C17 H21 1_555 1_555
C18 C17 1_555 1_555
H22 C18 1_555 1_555
C19 C18 1_555 1_555
H23 C19 1_555 1_555
C20 C19 1_555 1_555
H24 C20 1_555 1_555
C21 C20 1_555 1_555
H25 C21 1_555 1_555
H26 C21 1_555 1_555
N3 C13 1_555 1_555
N4 C14 1_555 1_555
N5 C13 1_555 1_555
H27 N5 1_555 1_555
H28 N5 1_555 1_555
O5 C14 1_555 1_555
O6 C17 1_555 1_555
O7 C21 1_555 1_555
O8 P1 1_555 1_555
O9 P1 1_555 1_555
O10 P1 1_555 1_555
O11 C18 1_555 1_555
H29 O11 1_555 1_555
O12 C19 1_555 1_555
H30 O12 1_555 1_555
O13 H31 1_555 1_555
H32 O13 1_555 1_555
O14 H33 1_555 1_555
H34 O14 1_555 1_555
O15 H35 1_555 1_555
H36 O15 1_555 1_555
Mn1_2 N2 1_555 1_555
N2_2 Mn1 1_555 1_555
C5 N1 1_555 1_555
C10 C11 1_555 1_555
C12 N2 1_555 1_555
C15 N4 1_555 1_555
C17 N4 1_555 1_555
C20 O6 1_555 1_555

#END
