
#######################################################################
#
#                 Cambridge Crystallographic Data Centre
#                                CCDC 
#
#######################################################################
#
# If this CIF has been generated from an entry in the Cambridge 
# Structural Database, then it will include bibliographic, chemical, 
# crystal, experimental, refinement or atomic coordinate data resulting 
# from the CCDC's data processing and validation procedures.
#
#######################################################################

data_GUTPER
_symmetry_cell_setting           triclinic
_symmetry_space_group_name_H-M   'P -1'
_symmetry_Int_Tables_number      2
_space_group_name_Hall           '-P 1'
loop_
_symmetry_equiv_pos_site_id
_symmetry_equiv_pos_as_xyz
1 x,y,z
2 -x,-y,-z
_cell_length_a                   6.770(3)
_cell_length_b                   6.967(3)
_cell_length_c                   18.469(7)
_cell_angle_alpha                94.740(2)
_cell_angle_beta                 99.106(3)
_cell_angle_gamma                105.800(5)
_cell_volume                     820.365
loop_
_atom_site_label
_atom_site_type_symbol
_atom_site_fract_x
_atom_site_fract_y
_atom_site_fract_z
Cd1 Cd 0.59468(2) 0.12524(2) 0.371608(8)
S1 S 0.13714(8) 0.21929(8) 0.40052(3)
O1 O 0.7398(3) 0.2950(3) 0.49110(9)
O2 O 0.5686(3) -0.1708(3) 0.42030(10)
O3 O 0.6076(4) 0.4236(3) 0.33052(13)
O4 O 0.2634(3) 0.0777(2) 0.39405(10)
O5 O -0.0768(3) 0.1183(3) 0.36132(10)
N1 N 0.4753(3) -0.0375(3) 0.25275(10)
O6 O 0.1395(3) 0.2788(3) 0.47932(10)
O7 O 0.2243(3) 0.3996(3) 0.36676(13)
N2 N 0.2889(3) -0.3496(3) 0.03814(10)
N3 N 0.2779(4) -0.5512(3) 0.02849(12)
N4 N 0.2158(4) -0.6198(3) -0.04064(12)
C1 C 0.3482(4) -0.2444(3) 0.11028(12)
C2 C 0.1831(4) -0.4662(4) -0.07912(13)
C3 C 0.3647(4) 0.0289(4) 0.19940(14)
H1 H 0.3311 0.1472 0.2110
C4 C 0.2971(4) -0.0687(4) 0.12770(13)
H2 H 0.2193 -0.0178 0.0921
C5 C 0.5211(5) -0.2081(4) 0.23521(13)
H3 H 0.5984 -0.2560 0.2719
C6 C 0.4597(5) -0.3172(4) 0.16548(14)
H4 H 0.4925 -0.4368 0.1558
C7 C 0.2139(4) -0.1095(4) -0.05334(14)
H5 H 0.2467 0.0083 -0.0206
C8 C 0.2297(4) -0.2903(4) -0.02942(13)
C9 C 0.0974(5) -0.2915(5) -0.17851(15)
H6 H 0.0527 -0.2878 -0.2285
C10 C 0.1470(5) -0.1146(4) -0.12811(16)
H7 H 0.1342 0.0032 -0.1460
C11 C 0.1140(4) -0.4690(4) -0.15501(14)
H8 H 0.0807 -0.5864 -0.1880
H9 H 0.670(5) -0.180(5) 0.4489(18)
H10 H 0.853(6) 0.280(6) 0.499(2)
H11 H 0.481(5) -0.194(5) 0.4421(18)
H12 H 0.724(6) 0.510(5) 0.3395(19)
H13 H 0.525(7) 0.465(7) 0.335(3)
H14 H 0.759(7) 0.418(7) 0.500(2)
Cd1_2 Cd -0.40532(2) 0.12524(2) 0.371608(8)
O5_2 O 0.9232(3) 0.1183(3) 0.36132(10)
O8 O -0.0093(4) 0.6712(3) 0.33496(14)
H15 H 0.055(7) 0.784(7) 0.354(2)
H16 H 0.071(7) 0.612(6) 0.342(3)
loop_
_geom_bond_atom_site_label_1
_geom_bond_atom_site_label_2
_geom_bond_site_symmetry_1
_geom_bond_site_symmetry_2
Cd1 O1 1_555 1_555
S1 O4 1_555 1_555
O1 H10 1_555 1_555
O2 Cd1 1_555 1_555
O3 Cd1 1_555 1_555
O4 Cd1 1_555 1_555
O5 S1 1_555 1_555
N1 Cd1 1_555 1_555
O6 S1 1_555 1_555
O7 S1 1_555 1_555
N2 N3 1_555 1_555
N3 N4 1_555 1_555
N4 C2 1_555 1_555
C1 N2 1_555 1_555
C2 C8 1_555 1_555
C3 N1 1_555 1_555
H1 C3 1_555 1_555
C4 C1 1_555 1_555
H2 C4 1_555 1_555
C5 N1 1_555 1_555
H3 C5 1_555 1_555
C6 C1 1_555 1_555
H4 C6 1_555 1_555
C7 H5 1_555 1_555
C8 N2 1_555 1_555
C9 H6 1_555 1_555
C10 C7 1_555 1_555
H7 C10 1_555 1_555
C11 C2 1_555 1_555
H8 C11 1_555 1_555
H9 O2 1_555 1_555
H11 O2 1_555 1_555
H12 O3 1_555 1_555
H13 O3 1_555 1_555
H14 O1 1_555 1_555
O8 H15 1_555 1_555
H16 O8 1_555 1_555
Cd1_2 O5 1_555 1_555
O5_2 Cd1 1_555 1_555
C3 C4 1_555 1_555
C5 C6 1_555 1_555
C7 C8 1_555 1_555
C9 C10 1_555 1_555
C9 C11 1_555 1_555

#END
