
#######################################################################
#
#                 Cambridge Crystallographic Data Centre
#                                CCDC 
#
#######################################################################
#
# If this CIF has been generated from an entry in the Cambridge 
# Structural Database, then it will include bibliographic, chemical, 
# crystal, experimental, refinement or atomic coordinate data resulting 
# from the CCDC's data processing and validation procedures.
#
#######################################################################

data_GUTPAN
_symmetry_cell_setting           triclinic
_symmetry_space_group_name_H-M   'P -1'
_symmetry_Int_Tables_number      2
_space_group_name_Hall           '-P 1'
loop_
_symmetry_equiv_pos_site_id
_symmetry_equiv_pos_as_xyz
1 x,y,z
2 -x,-y,-z
_cell_length_a                   6.5715(11)
_cell_length_b                   6.9482(11)
_cell_length_c                   18.094(2)
_cell_angle_alpha                94.754(5)
_cell_angle_beta                 99.095(7)
_cell_angle_gamma                106.281(6)
_cell_volume                     775.99
loop_
_atom_site_label
_atom_site_type_symbol
_atom_site_fract_x
_atom_site_fract_y
_atom_site_fract_z
Zn1 Zn 1.10175(5) 1.12539(4) 1.373544(16)
N1 N 0.9849(4) 0.9684(4) 1.26353(13)
N2 N 0.7951(4) 0.6532(4) 1.04491(13)
N3 N 0.7213(5) 0.3814(4) 0.96404(15)
N4 N 0.7855(4) 0.4503(4) 1.03535(14)
O1 O 1.1131(5) 1.3983(4) 1.33584(15)
O2 O 1.0710(4) 0.8597(3) 1.42084(13)
O3 O 0.4197(3) 1.1262(3) 1.36268(11)
O4 O 0.7740(3) 1.0881(3) 1.39135(12)
O5 O 0.7309(4) 1.4116(3) 1.36677(15)
O6 O 1.2328(4) 1.2834(3) 1.48680(12)
O7 O 0.6514(4) 1.2837(4) 1.48188(12)
C1 C 0.6887(5) 0.5361(5) 0.92488(17)
C2 C 0.9684(5) 0.6864(5) 1.17554(16)
H1 H 1.0017 0.5662 1.1661
C3 C 1.0310(5) 0.7958(5) 1.24607(16)
H2 H 1.1096 0.7481 1.2838
C4 C 0.7356(5) 0.7119(4) 0.97573(15)
C5 C 0.8546(5) 0.7578(4) 1.11857(15)
C6 C 0.8700(5) 1.0325(5) 1.20877(16)
H3 H 0.8344 1.1504 1.2202
C7 C 0.8012(5) 0.9331(5) 1.13591(17)
H4 H 0.7208 0.9827 1.0993
C8 C 0.6191(5) 0.5333(5) 0.84730(17)
H5 H 0.5871 0.4161 0.8133
C9 C 0.7193(5) 0.8941(5) 0.95149(17)
H6 H 0.7529 1.0124 0.9850
C10 C 0.6503(5) 0.8875(5) 0.87480(18)
H7 H 0.6366 1.0052 0.8564
C11 C 0.6006(6) 0.7112(6) 0.82402(18)
H8 H 0.5536 0.7146 0.7730
S1 S 0.64361(11) 1.22797(10) 1.40079(4)
H9 H 1.214(7) 1.489(6) 1.338(2)
H10 H 1.167(6) 0.831(6) 1.444(2)
H11 H 1.031(7) 1.439(6) 1.344(3)
H12 H 1.365(8) 1.286(7) 1.502(3)
H13 H 1.246(7) 1.403(7) 1.500(3)
H14 H 0.995(6) 0.828(6) 1.439(2)
Zn1_2 Zn 0.10175(5) 1.12539(4) 1.373544(16)
O3_2 O 1.4197(3) 1.1262(3) 1.36268(11)
O8 O 1.4902(4) 1.6756(3) 1.33481(14)
H15 H 1.5714 1.7952 1.3509
H16 H 1.5629 1.5939 1.3443
loop_
_geom_bond_atom_site_label_1
_geom_bond_atom_site_label_2
_geom_bond_site_symmetry_1
_geom_bond_site_symmetry_2
Zn1 N1 1_555 1_555
N1 C3 1_555 1_555
N2 N4 1_555 1_555
N3 N4 1_555 1_555
O1 Zn1 1_555 1_555
O2 Zn1 1_555 1_555
O3 S1 1_555 1_555
O4 Zn1 1_555 1_555
O5 S1 1_555 1_555
O6 Zn1 1_555 1_555
O7 S1 1_555 1_555
C1 N3 1_555 1_555
C2 H1 1_555 1_555
C3 C2 1_555 1_555
H2 C3 1_555 1_555
C4 N2 1_555 1_555
C5 N2 1_555 1_555
C6 N1 1_555 1_555
H3 C6 1_555 1_555
C7 C5 1_555 1_555
H4 C7 1_555 1_555
C8 C1 1_555 1_555
H5 C8 1_555 1_555
C9 C4 1_555 1_555
H6 C9 1_555 1_555
C10 C9 1_555 1_555
H7 C10 1_555 1_555
C11 C8 1_555 1_555
H8 C11 1_555 1_555
S1 O4 1_555 1_555
H9 O1 1_555 1_555
H10 O2 1_555 1_555
H11 O1 1_555 1_555
H12 O6 1_555 1_555
H13 O6 1_555 1_555
H14 O2 1_555 1_555
O8 H15 1_555 1_555
H16 O8 1_555 1_555
Zn1_2 O3 1_555 1_555
O3_2 Zn1 1_555 1_555
C1 C4 1_555 1_555
C2 C5 1_555 1_555
C6 C7 1_555 1_555
C10 C11 1_555 1_555

#END
