
#######################################################################
#
#                 Cambridge Crystallographic Data Centre
#                                CCDC 
#
#######################################################################
#
# If this CIF has been generated from an entry in the Cambridge 
# Structural Database, then it will include bibliographic, chemical, 
# crystal, experimental, refinement or atomic coordinate data resulting 
# from the CCDC's data processing and validation procedures.
#
#######################################################################

data_GUTQAP
_symmetry_cell_setting           orthorhombic
_symmetry_space_group_name_H-M   'P 21 21 21'
_symmetry_Int_Tables_number      19
_space_group_name_Hall           'P 2ac 2ab'
loop_
_symmetry_equiv_pos_site_id
_symmetry_equiv_pos_as_xyz
1 x,y,z
2 1/2-x,-y,1/2+z
3 -x,1/2+y,1/2-z
4 1/2+x,1/2-y,-z
_cell_length_a                   13.870(3)
_cell_length_b                   14.057(3)
_cell_length_c                   20.780(5)
_cell_angle_alpha                90
_cell_angle_beta                 90
_cell_angle_gamma                90
_cell_volume                     4051.49
loop_
_atom_site_label
_atom_site_type_symbol
_atom_site_fract_x
_atom_site_fract_y
_atom_site_fract_z
Mn1 Mn 0.53620(4) 0.53741(5) 0.23385(3)
P1 P 0.56875(8) 0.38987(9) 0.10577(6)
P2 P 0.55545(8) 0.72490(9) 0.12977(6)
C1 C 0.2793(4) 0.7877(4) 0.1862(2)
H1 H 0.3406 0.7865 0.1681
C2 C 0.2703(3) 0.7914(4) 0.2501(2)
H2 H 0.3245 0.7927 0.2765
C3 C 0.1754(4) 0.7933(4) 0.2773(2)
C4 C 0.1091(4) 0.7818(5) 0.1711(3)
C5 C 0.1021(4) 0.2863(4) 0.1519(2)
C6 C 0.1715(4) 0.2960(4) 0.2554(2)
C7 C 0.2657(3) 0.3021(4) 0.2292(2)
H3 H 0.3192 0.3099 0.2557
C8 C 0.2751(3) 0.2962(4) 0.1650(2)
H4 H 0.3362 0.2985 0.1466
C9 C -0.2607(3) 0.5525(4) 0.3074(2)
H5 H -0.2999 0.5573 0.3436
C10 C -0.1615(3) 0.5485(4) 0.3164(3)
H6 H -0.1356 0.5466 0.3577
C11 C -0.1017(3) 0.5475(4) 0.2628(3)
C12 C -0.1461(4) 0.5462(5) 0.2029(2)
H7 H -0.1089 0.5438 0.1657
C13 C -0.2439(3) 0.5486(4) 0.1986(2)
H8 H -0.2716 0.5494 0.1579
C14 C 0.3198(4) 0.5373(4) 0.2866(2)
H9 H 0.3516 0.5331 0.3259
C15 C 0.2206(4) 0.5410(5) 0.2862(3)
H10 H 0.1867 0.5411 0.3248
C16 C 0.1712(3) 0.5446(4) 0.2279(3)
C17 C 0.2257(3) 0.5471(4) 0.1723(3)
H11 H 0.1957 0.5501 0.1323
C18 C 0.3251(3) 0.5451(4) 0.1765(2)
H12 H 0.3604 0.5477 0.1385
C19 C 0.0658(3) 0.5451(4) 0.2232(3)
H13 H 0.0399 0.5451 0.1819
C20 C 0.4397(4) 0.7045(4) 0.0283(2)
H14 H 0.4390 0.6368 0.0372
H15 H 0.4854 0.7165 -0.0061
C21 C 0.3406(4) 0.7377(4) 0.0089(2)
H16 H 0.3216 0.7048 -0.0307
C22 C 0.3308(4) 0.8432(4) -0.0012(2)
H17 H 0.3951 0.8719 0.0015
C23 C 0.1842(3) 0.3684(4) 0.0191(2)
H18 H 0.1439 0.4108 0.0451
C24 C 0.2040(3) 0.2750(4) 0.0549(2)
H19 H 0.1588 0.2260 0.0403
C25 C 0.3464(4) 0.3205(4) 0.0014(2)
H20 H 0.3386 0.3028 -0.0439
C26 C 0.2157(4) 0.7889(4) 0.0765(2)
H21 H 0.1540 0.7852 0.0536
C27 C 0.2713(5) 0.8778(4) 0.0562(2)
H22 H 0.3162 0.8937 0.0910
C28 C 0.0034(3) 0.5456(4) 0.2715(3)
H23 H 0.0275 0.5448 0.3132
C29 C 0.2880(4) 0.4084(4) 0.0127(2)
H24 H 0.3072 0.4368 0.0538
C30 C 0.4535(4) 0.3216(4) 0.0158(2)
H25 H 0.4805 0.2588 0.0090
H26 H 0.4860 0.3658 -0.0127
N1 N 0.2004(3) 0.7856(4) 0.14664(18)
N2 N 0.0993(3) 0.7884(3) 0.2371(2)
N3 N 0.1610(3) 0.7999(4) 0.3392(2)
H27 H 0.1032 0.8011 0.3541
H28 H 0.2093 0.8031 0.3650
N4 N 0.1959(3) 0.2868(3) 0.12637(18)
N5 N 0.0930(3) 0.2920(3) 0.21783(19)
N6 N 0.1594(3) 0.2964(4) 0.3192(2)
H29 H 0.1022 0.2942 0.3352
H30 H 0.2087 0.2990 0.3442
N7 N -0.3029(3) 0.5499(3) 0.25007(18)
N8 N 0.3730(3) 0.5397(3) 0.2316(2)
O1 O 0.0368(3) 0.7774(4) 0.13621(18)
O2 O 0.5334(2) 0.4563(2) 0.32181(15)
H31 H 0.5081 0.4012 0.3221
H32 H 0.5278 0.4804 0.3592
O3 O 0.5190(3) 0.6727(3) 0.29369(17)
H33 H 0.5253 0.7096 0.2601
H34 H 0.5194 0.6425 0.3295
O4 O 0.5451(2) 0.6194(2) 0.14396(14)
O5 O 0.5523(2) 0.4124(2) 0.17556(15)
O6 O 0.5858(3) 0.4839(3) 0.06608(17)
H35 H 0.5804 0.5300 0.0899
O7 O 0.6472(3) 0.3210(3) 0.08951(19)
O8 O 0.4670(2) 0.3501(3) 0.08164(16)
O9 O 0.6477(3) 0.7451(3) 0.0940(2)
H36 H 0.6606 0.8018 0.0968
O10 O 0.5404(3) 0.7857(2) 0.18852(16)
O11 O 0.4666(3) 0.7562(2) 0.08476(16)
O12 O 0.2752(3) 0.7102(3) 0.06023(17)
O13 O 0.2132(4) 0.9579(4) 0.0448(2)
H37 H 0.1788 0.9482 0.0134
O14 O 0.2993(3) 0.4756(3) -0.0359(2)
H38 H 0.3563 0.4907 -0.0385
O15 O 0.2881(3) 0.8705(3) -0.06115(16)
H39 H 0.2331 0.8494 -0.0632
O16 O 0.2994(2) 0.2470(2) 0.04035(17)
O17 O 0.1422(3) 0.3531(3) -0.04238(17)
H40 H 0.1474 0.2968 -0.0522
O18 O 0.0326(2) 0.2808(3) 0.11630(17)
Mn1_2 Mn -0.46380(4) 0.53741(5) 0.23385(3)
N7_2 N 0.6971(3) 0.5499(3) 0.25007(18)
O19 O 0.3484(5) 0.0748(4) 0.9618(3)
H41 H 0.2983 0.1057 0.9511
H42 H 0.3492 0.0227 0.9409
O20 O 0.6377(4) 0.9139(4) 0.0312(4)
H43 H 0.6984 0.9223 0.0314
H44 H 0.6114 0.9684 0.0340
O21 O 0.9776(4) 0.4476(4) 0.9340(2)
H45 H 0.9380 0.4403 0.9649
H46 H 1.0013 0.3940 0.9236
O22 O 0.4789(11) 0.5266(10) 0.9199(6)
H47 H 0.4791 0.5806 0.9016
H48 H 0.5357 0.5157 0.9334
loop_
_geom_bond_atom_site_label_1
_geom_bond_atom_site_label_2
_geom_bond_site_symmetry_1
_geom_bond_site_symmetry_2
Mn1 N8 1_555 1_555
P1 O5 1_555 1_555
P2 O4 1_555 1_555
C1 H1 1_555 1_555
C2 C1 1_555 1_555
H2 C2 1_555 1_555
C3 C2 1_555 1_555
C4 N1 1_555 1_555
C5 N4 1_555 1_555
C6 C7 1_555 1_555
C7 H3 1_555 1_555
C8 C7 1_555 1_555
H4 C8 1_555 1_555
C9 H5 1_555 1_555
C10 C9 1_555 1_555
H6 C10 1_555 1_555
C11 C10 1_555 1_555
C12 C11 1_555 1_555
H7 C12 1_555 1_555
C13 C12 1_555 1_555
H8 C13 1_555 1_555
C14 H9 1_555 1_555
C15 C14 1_555 1_555
H10 C15 1_555 1_555
C16 C15 1_555 1_555
C17 C16 1_555 1_555
H11 C17 1_555 1_555
C18 C17 1_555 1_555
H12 C18 1_555 1_555
C19 C16 1_555 1_555
H13 C19 1_555 1_555
C20 H14 1_555 1_555
H15 C20 1_555 1_555
C21 C20 1_555 1_555
H16 C21 1_555 1_555
C22 C21 1_555 1_555
H17 C22 1_555 1_555
C23 H18 1_555 1_555
C24 C23 1_555 1_555
H19 C24 1_555 1_555
C25 H20 1_555 1_555
C26 H21 1_555 1_555
C27 C22 1_555 1_555
H22 C27 1_555 1_555
C28 C11 1_555 1_555
H23 C28 1_555 1_555
C29 C23 1_555 1_555
H24 C29 1_555 1_555
C30 C25 1_555 1_555
H25 C30 1_555 1_555
H26 C30 1_555 1_555
N1 C1 1_555 1_555
N2 C3 1_555 1_555
N3 C3 1_555 1_555
H27 N3 1_555 1_555
H28 N3 1_555 1_555
N4 C8 1_555 1_555
N5 C5 1_555 1_555
N6 C6 1_555 1_555
H29 N6 1_555 1_555
H30 N6 1_555 1_555
N7 C9 1_555 1_555
N8 C14 1_555 1_555
O1 C4 1_555 1_555
O2 Mn1 1_555 1_555
H31 O2 1_555 1_555
H32 O2 1_555 1_555
O3 Mn1 1_555 1_555
H33 O3 1_555 1_555
H34 O3 1_555 1_555
O4 Mn1 1_555 1_555
O5 Mn1 1_555 1_555
O6 P1 1_555 1_555
H35 O6 1_555 1_555
O7 P1 1_555 1_555
O8 P1 1_555 1_555
O9 P2 1_555 1_555
H36 O9 1_555 1_555
O10 P2 1_555 1_555
O11 P2 1_555 1_555
O12 C21 1_555 1_555
O13 C27 1_555 1_555
H37 O13 1_555 1_555
O14 C29 1_555 1_555
H38 O14 1_555 1_555
O15 C22 1_555 1_555
H39 O15 1_555 1_555
O16 C24 1_555 1_555
O17 C23 1_555 1_555
H40 O17 1_555 1_555
O18 C5 1_555 1_555
O19 H41 1_555 1_555
H42 O19 1_555 1_555
O20 H43 1_555 1_555
H44 O20 1_555 1_555
O21 H45 1_555 1_555
H46 O21 1_555 1_555
O22 H47 1_555 1_555
H48 O22 1_555 1_555
Mn1_2 N7 1_555 1_555
N7_2 Mn1 1_555 1_555
C4 N2 1_555 1_555
C6 N5 1_555 1_555
C13 N7 1_555 1_555
C18 N8 1_555 1_555
C19 C28 1_555 1_555
C20 O11 1_555 1_555
C24 N4 1_555 1_555
C25 C29 1_555 1_555
C25 O16 1_555 1_555
C26 C27 1_555 1_555
C26 N1 1_555 1_555
C26 O12 1_555 1_555
C30 O8 1_555 1_555

#END
