
#######################################################################
#
#                 Cambridge Crystallographic Data Centre
#                                CCDC 
#
#######################################################################
#
# If this CIF has been generated from an entry in the Cambridge 
# Structural Database, then it will include bibliographic, chemical, 
# crystal, experimental, refinement or atomic coordinate data resulting 
# from the CCDC's data processing and validation procedures.
#
#######################################################################

data_GUTQIX
_symmetry_cell_setting           monoclinic
_symmetry_space_group_name_H-M   'P 21/c'
_symmetry_Int_Tables_number      14
_space_group_name_Hall           '-P 2ybc'
loop_
_symmetry_equiv_pos_site_id
_symmetry_equiv_pos_as_xyz
1 x,y,z
2 -x,1/2+y,1/2-z
3 -x,-y,-z
4 x,1/2-y,1/2+z
_cell_length_a                   16.568(3)
_cell_length_b                   13.671(3)
_cell_length_c                   29.949(10)
_cell_angle_alpha                90
_cell_angle_beta                 111.38(3)
_cell_angle_gamma                90
_cell_volume                     6316.66
loop_
_atom_site_label
_atom_site_type_symbol
_atom_site_fract_x
_atom_site_fract_y
_atom_site_fract_z
Mn1 Mn 0.75861(3) 0.90328(3) 0.749332(15)
O1 O 0.84294(17) 0.91627(18) 0.71325(9)
H1 H 0.8171 0.9386 0.6864
H2 H 0.8939 0.8974 0.7170
O2 O 0.67503(17) 0.89402(19) 0.78595(9)
H3 H 0.6963 0.9219 0.8119
H4 H 0.6235 0.8750 0.7805
N1 N 0.6527(2) 0.9002(2) 0.68205(11)
N2 N 0.86190(19) 0.9003(2) 0.81640(11)
N3 N 0.75192(17) 1.0603(2) 0.75168(10)
N4 N 0.7656(2) 1.7490(2) 0.74764(11)
N5 N 1.2736(2) 1.0140(3) 1.12527(12)
N6 N 0.2208(2) 1.0020(3) 0.37764(12)
C1 C 0.7381(2) 1.2670(3) 0.75116(12)
C2 C 0.9823(2) 0.9105(3) 0.91117(13)
C3 C 0.5971(2) 0.8441(3) 0.60063(14)
H5 H 0.6035 0.8030 0.5774
C4 C 1.0408(2) 0.9174(3) 0.96183(13)
H6 H 1.0271 0.8800 0.9840
C5 C 0.5264(2) 0.9070(3) 0.58890(13)
C6 C 0.9150(2) 0.8427(3) 0.89768(14)
H7 H 0.9090 0.7994 0.9202
C7 C 1.2133(3) 0.9433(3) 1.11264(14)
H8 H 1.2074 0.9041 1.1366
C8 C 0.4651(2) 0.9126(3) 0.53904(14)
H9 H 0.4776 0.8750 0.5165
C9 C 0.2841(3) 0.9349(3) 0.38934(14)
H10 H 0.2900 0.8970 0.3649
C10 C 0.9287(2) 0.9633(3) 0.82925(13)
H11 H 0.9345 1.0043 0.8058
C11 C 0.3411(3) 0.9188(3) 0.43582(14)
H12 H 0.3839 0.8712 0.4421
C12 C 0.8018(2) 1.2196(3) 0.73876(14)
H13 H 0.8415 1.2560 0.7303
C13 C 0.6825(2) 1.2069(3) 0.76438(14)
H14 H 0.6393 1.2344 0.7732
C14 C 0.5197(2) 0.9652(3) 0.62600(13)
H15 H 0.4732 1.0077 0.6203
C15 C 1.1595(3) 0.9257(3) 1.06562(14)
H16 H 1.1182 0.8762 1.0585
C16 C 1.1681(2) 0.9831(3) 1.02898(14)
C17 C 0.6917(2) 1.1067(3) 0.76431(13)
H17 H 0.6540 1.0687 0.7736
C18 C 0.5829(2) 0.9583(3) 0.67102(13)
H18 H 0.5769 0.9965 0.6953
C19 C 0.9895(2) 0.9709(3) 0.87519(13)
H19 H 1.0346 1.0157 0.8821
C20 C 0.3937(2) 0.9662(3) 0.52328(14)
H20 H 0.3801 1.0019 0.5460
C21 C 1.1110(2) 0.9723(3) 0.97819(14)
H21 H 1.1259 1.0073 0.9557
C22 C 0.8574(2) 0.8398(3) 0.85115(13)
H22 H 0.8131 0.7938 0.8431
C23 C 0.3336(2) 0.9748(3) 0.47301(14)
C24 C 0.2127(3) 1.0545(4) 0.41364(16)
H23 H 0.1687 1.1008 0.4063
C25 C 0.6580(2) 0.8426(3) 0.64671(13)
H24 H 0.7047 0.7999 0.6536
C26 C 1.2827(3) 1.0678(4) 1.08984(15)
H25 H 1.3251 1.1161 1.0979
C27 C 0.2667(3) 1.0431(3) 0.46112(15)
H26 H 0.2584 1.0809 0.4849
C28 C 1.2321(3) 1.0546(3) 1.04208(15)
H27 H 1.2409 1.0934 1.0187
C29 C 0.8057(2) 1.1190(3) 0.73905(14)
H28 H 0.8480 1.0895 0.7300
C30 C 0.7878(3) 1.4375(3) 0.74920(14)
H29 H 0.8393 1.4126 0.7480
C31 C 0.7287(3) 1.3736(3) 0.75137(14)
H30 H 0.6777 1.3984 0.7531
C32 C 0.8408(2) 1.7034(3) 0.75410(15)
H31 H 0.8896 1.7416 0.7587
C33 C 0.7777(2) 1.5440(3) 0.74852(13)
C34 C 0.6969(3) 1.6919(3) 0.74158(15)
H32 H 0.6440 1.7216 0.7370
C35 C 0.8498(3) 1.6032(3) 0.75437(15)
H33 H 0.9031 1.5752 0.7584
C36 C 0.7007(3) 1.5911(3) 0.74181(16)
H34 H 0.6509 1.5547 0.7374
Mn1_2 Mn 0.75861(3) 1.90328(3) 0.749332(15)
N4_2 N 0.7656(2) 0.7490(2) 0.74764(11)
N7 N 0.4385(3) 0.7528(3) 0.66175(13)
N8 N 0.0750(3) 0.7315(3) 0.33667(14)
C37 C 0.1425(3) 0.6732(4) 0.36003(17)
H35 H 0.1562 0.6234 0.3428
C38 C 0.1730(3) 0.7548(3) 0.43435(15)
C39 C 0.2226(3) 0.7695(4) 0.48626(15)
H36 H 0.2075 0.8225 0.5011
C40 C 0.1926(3) 0.6827(4) 0.40778(16)
H37 H 0.2393 0.6410 0.4220
C41 C 0.3722(3) 0.8126(4) 0.63890(17)
H38 H 0.3604 0.8636 0.6561
C42 C 0.3203(3) 0.8026(4) 0.59106(16)
H39 H 0.2748 0.8457 0.5768
C43 C 0.3372(3) 0.7273(3) 0.56454(15)
C44 C 0.2866(3) 0.7131(3) 0.51296(15)
H40 H 0.3012 0.6599 0.4980
C45 C 0.4532(3) 0.6803(4) 0.63649(18)
H41 H 0.4981 0.6371 0.6519
C46 C 0.4049(3) 0.6652(4) 0.58817(17)
H42 H 0.4182 0.6135 0.5719
C47 C 0.1039(3) 0.8156(4) 0.41077(17)
H43 H 0.0891 0.8659 0.4272
C48 C 0.0571(3) 0.8012(4) 0.36259(18)
H44 H 0.0105 0.8425 0.3475
N9 N 0.5184(4) 0.2518(4) 0.61291(17)
C49 C 0.5662(5) 0.3965(6) 0.5847(3)
H45 H 0.6059 0.4475 0.5910
C50 C 0.4990(5) 0.3891(5) 0.5402(2)
C51 C 0.4439(4) 0.3120(5) 0.5339(2)
H46 H 0.3982 0.3037 0.5048
C52 C 0.4554(4) 0.2472(5) 0.5702(2)
H47 H 0.4162 0.1959 0.5646
C53 C 0.5731(5) 0.3263(6) 0.6196(2)
H48 H 0.6183 0.3318 0.6491
C54 C 0.4794(5) 0.4602(6) 0.4984(3)
H49 H 0.4356 0.4447 0.4694
N9B N 0.4816(4) 0.7482(4) 0.38709(17)
C49B C 0.4338(5) 0.6035(6) 0.4153(3)
H45B H 0.3941 0.5525 0.4090
C50B C 0.5010(5) 0.6109(5) 0.4598(2)
C51B C 0.5561(4) 0.6880(5) 0.4661(2)
H46B H 0.6018 0.6963 0.4952
C52B C 0.5446(4) 0.7528(5) 0.4298(2)
H47B H 0.5838 0.8041 0.4354
C53B C 0.4269(5) 0.6737(6) 0.3804(2)
H48B H 0.3817 0.6682 0.3509
C54B C 0.5206(5) 0.5398(6) 0.5016(3)
H49B H 0.5644 0.5553 0.5306
N10 N 0.9771(4) 0.2520(4) 0.38906(17)
C55 C 1.0433(4) 0.2557(4) 0.4309(2)
H50 H 1.0833 0.3061 0.4358
C56 C 0.9297(5) 0.1092(6) 0.4180(3)
H51 H 0.8885 0.0599 0.4123
C57 C 0.9214(5) 0.1798(5) 0.3830(3)
H52 H 0.8746 0.1757 0.3541
C58 C 1.0206(5) 0.0406(6) 0.5018(3)
H53 H 1.0651 0.0552 0.5306
C59 C 0.9997(5) 0.1129(5) 0.4614(3)
C60 C 1.0561(4) 0.1897(5) 0.4672(2)
H54 H 1.1031 0.1968 0.4959
N10B N 1.0229(4) -0.2520(4) 0.61094(17)
C55B C 0.9567(4) -0.2557(4) 0.5691(2)
H50B H 0.9167 -0.3061 0.5642
C56B C 1.0703(5) -0.1092(6) 0.5820(3)
H51B H 1.1115 -0.0599 0.5877
C57B C 1.0786(5) -0.1798(5) 0.6170(3)
H52B H 1.1254 -0.1757 0.6459
C58B C 0.9794(5) -0.0406(6) 0.4982(3)
H53B H 0.9349 -0.0552 0.4694
C59B C 1.0003(5) -0.1129(5) 0.5386(3)
C60B C 0.9439(4) -0.1897(5) 0.5328(2)
H54B H 0.8969 -0.1968 0.5041
Cl1 Cl 0.74718(9) 0.61127(13) 0.89359(6)
O3 O 0.8280(3) 0.6187(4) 0.8886(2)
O4 O 0.7626(6) 0.5414(7) 0.9339(3)
O5 O 0.6874(6) 0.5558(8) 0.8529(3)
O6 O 0.6985(4) 0.6909(5) 0.8617(3)
Cl2 Cl 0.75348(8) 0.61808(11) 0.60180(5)
O10 O 0.6797(3) 0.6176(3) 0.61485(18)
O11 O 0.7664(7) 0.7114(5) 0.5872(4)
O12 O 0.7320(4) 0.5491(5) 0.5608(2)
O13 O 0.8266(5) 0.5761(6) 0.6382(3)
O17 O 0.00540(18) 0.8471(2) 0.74298(10)
H55 H -0.0017 0.7975 0.7249
H56 H 0.0263 0.8278 0.7719
O18 O 0.51465(19) 0.8229(2) 0.75368(11)
H57 H 0.5173 0.7753 0.7724
H58 H 0.4912 0.8028 0.7249
O19 O 0.0124(2) 0.3225(2) 0.30935(12)
H59 H -0.0032 0.2981 0.3311
H60 H 0.0587 0.3548 0.3230
O20 O 0.4794(2) 0.1648(3) 0.68792(12)
H61 H 0.4937 0.1924 0.6664
H62 H 0.4336 0.1317 0.6741
O21 O 0.4909(4) 0.0256(4) 0.7655(2)
H63 H 0.4981 -0.0337 0.7592
H64 H 0.4881 0.0606 0.7415
O7? O 0.7129(8) 0.6971(7) 0.9029(6)
O8? O 0.7549(8) 0.6632(9) 0.9385(3)
O9? O 0.6939(9) 0.5332(9) 0.8880(7)
O14? O 0.7437(12) 0.6736(13) 0.5586(5)
O15? O 0.8112(12) 0.5403(12) 0.6127(8)
O16? O 0.8064(6) 0.6982(7) 0.6327(4)
loop_
_geom_bond_atom_site_label_1
_geom_bond_atom_site_label_2
_geom_bond_site_symmetry_1
_geom_bond_site_symmetry_2
Mn1 O1 1_555 1_555
O1 H1 1_555 1_555
H2 O1 1_555 1_555
O2 Mn1 1_555 1_555
H3 O2 1_555 1_555
H4 O2 1_555 1_555
N1 Mn1 1_555 1_555
N2 Mn1 1_555 1_555
N3 Mn1 1_555 1_555
N4 C32 1_555 1_555
N5 C7 1_555 1_555
N6 C9 1_555 1_555
C1 C12 1_555 1_555
C2 C4 1_555 1_555
C3 H5 1_555 1_555
C4 H6 1_555 1_555
C5 C3 1_555 1_555
C6 C2 1_555 1_555
H7 C6 1_555 1_555
C7 H8 1_555 1_555
C8 C5 1_555 1_555
H9 C8 1_555 1_555
C9 H10 1_555 1_555
C10 N2 1_555 1_555
H11 C10 1_555 1_555
C11 C9 1_555 1_555
H12 C11 1_555 1_555
C12 H13 1_555 1_555
C13 C1 1_555 1_555
H14 C13 1_555 1_555
C14 C5 1_555 1_555
H15 C14 1_555 1_555
C15 C7 1_555 1_555
H16 C15 1_555 1_555
C16 C15 1_555 1_555
C17 N3 1_555 1_555
H17 C17 1_555 1_555
C18 N1 1_555 1_555
H18 C18 1_555 1_555
C19 C2 1_555 1_555
H19 C19 1_555 1_555
C20 C8 1_555 1_555
H20 C20 1_555 1_555
C21 C4 1_555 1_555
H21 C21 1_555 1_555
C22 N2 1_555 1_555
H22 C22 1_555 1_555
C23 C11 1_555 1_555
C24 N6 1_555 1_555
H23 C24 1_555 1_555
C25 N1 1_555 1_555
H24 C25 1_555 1_555
C26 N5 1_555 1_555
H25 C26 1_555 1_555
C27 C23 1_555 1_555
H26 C27 1_555 1_555
C28 C16 1_555 1_555
H27 C28 1_555 1_555
C29 N3 1_555 1_555
H28 C29 1_555 1_555
C30 H29 1_555 1_555
C31 C1 1_555 1_555
H30 C31 1_555 1_555
C32 H31 1_555 1_555
C33 C30 1_555 1_555
C34 N4 1_555 1_555
H32 C34 1_555 1_555
C35 C32 1_555 1_555
H33 C35 1_555 1_555
C36 C33 1_555 1_555
H34 C36 1_555 1_555
N7 C41 1_555 1_555
N8 C37 1_555 1_555
C37 H35 1_555 1_555
C38 C39 1_555 1_555
C39 H36 1_555 1_555
C40 C37 1_555 1_555
H37 C40 1_555 1_555
C41 H38 1_555 1_555
C42 C41 1_555 1_555
H39 C42 1_555 1_555
C43 C42 1_555 1_555
C44 C39 1_555 1_555
H40 C44 1_555 1_555
C45 N7 1_555 1_555
H41 C45 1_555 1_555
C46 C43 1_555 1_555
H42 C46 1_555 1_555
C47 C38 1_555 1_555
H43 C47 1_555 1_555
C48 N8 1_555 1_555
H44 C48 1_555 1_555
N9 C52 1_555 1_555
C49 H45 1_555 1_555
C50 C49 1_555 1_555
C51 C50 1_555 1_555
H46 C51 1_555 1_555
C52 C51 1_555 1_555
H47 C52 1_555 1_555
C53 N9 1_555 1_555
H48 C53 1_555 1_555
C54 C50 1_555 1_555
H49 C54 1_555 1_555
N10 C55 1_555 1_555
C55 H50 1_555 1_555
C56 H51 1_555 1_555
C57 N10 1_555 1_555
H52 C57 1_555 1_555
C58 H53 1_555 1_555
C59 C56 1_555 1_555
C60 C55 1_555 1_555
H54 C60 1_555 1_555
Cl1 O3 1_555 1_555
O4 Cl1 1_555 1_555
O5 Cl1 1_555 1_555
O6 Cl1 1_555 1_555
Cl2 O10 1_555 1_555
O11 Cl2 1_555 1_555
O12 Cl2 1_555 1_555
O13 Cl2 1_555 1_555
O17 H55 1_555 1_555
H56 O17 1_555 1_555
O18 H57 1_555 1_555
H58 O18 1_555 1_555
O19 H59 1_555 1_555
H60 O19 1_555 1_555
O20 H61 1_555 1_555
H62 O20 1_555 1_555
O21 H63 1_555 1_555
H64 O21 1_555 1_555
Mn1_2 N4 1_555 1_555
N4_2 Mn1 1_555 1_555
N9B C52B 1_555 1_555
C49B H45B 1_555 1_555
C50B C49B 1_555 1_555
C51B C50B 1_555 1_555
H46B C51B 1_555 1_555
C52B C51B 1_555 1_555
H47B C52B 1_555 1_555
C53B N9B 1_555 1_555
H48B C53B 1_555 1_555
C54B C54 1_555 1_555
H49B C54B 1_555 1_555
N10B C55B 1_555 1_555
C55B H50B 1_555 1_555
C56B H51B 1_555 1_555
C57B N10B 1_555 1_555
H52B C57B 1_555 1_555
C58B C58 1_555 1_555
H53B C58B 1_555 1_555
C59B C56B 1_555 1_555
C60B C55B 1_555 1_555
H54B C60B 1_555 1_555
C3 C25 1_555 1_555
C6 C22 1_555 1_555
C10 C19 1_555 1_555
C12 C29 1_555 1_555
C13 C17 1_555 1_555
C14 C18 1_555 1_555
C16 C21 1_555 1_555
C20 C23 1_555 1_555
C24 C27 1_555 1_555
C26 C28 1_555 1_555
C30 C31 1_555 1_555
C33 C35 1_555 1_555
C34 C36 1_555 1_555
C38 C40 1_555 1_555
C43 C44 1_555 1_555
C45 C46 1_555 1_555
C47 C48 1_555 1_555
C49 C53 1_555 1_555
C56 C57 1_555 1_555
C58 C59 1_555 1_555
C59 C60 1_555 1_555
C49B C53B 1_555 1_555
C50B C54B 1_555 1_555
C56B C57B 1_555 1_555
C58B C59B 1_555 1_555
C59B C60B 1_555 1_555

#END
