
#######################################################################
#
#                 Cambridge Crystallographic Data Centre
#                                CCDC 
#
#######################################################################
#
# If this CIF has been generated from an entry in the Cambridge 
# Structural Database, then it will include bibliographic, chemical, 
# crystal, experimental, refinement or atomic coordinate data resulting 
# from the CCDC's data processing and validation procedures.
#
#######################################################################

data_GUTQET
_symmetry_cell_setting           orthorhombic
_symmetry_space_group_name_H-M   'P 21 21 21'
_symmetry_Int_Tables_number      19
_space_group_name_Hall           'P 2ac 2ab'
loop_
_symmetry_equiv_pos_site_id
_symmetry_equiv_pos_as_xyz
1 x,y,z
2 1/2-x,-y,1/2+z
3 -x,1/2+y,1/2-z
4 1/2+x,1/2-y,-z
_cell_length_a                   13.666(3)
_cell_length_b                   13.939(3)
_cell_length_c                   20.703(4)
_cell_angle_alpha                90
_cell_angle_beta                 90
_cell_angle_gamma                90
_cell_volume                     3943.72
loop_
_atom_site_label
_atom_site_type_symbol
_atom_site_fract_x
_atom_site_fract_y
_atom_site_fract_z
Co1 Co 1.03934(4) 0.53836(4) 0.23394(3)
P1 P 1.07070(8) 0.39292(8) 0.10635(5)
P2 P 1.05763(7) 0.72660(8) 0.13359(5)
C1 C 1.2370(3) 0.5525(3) 0.3047(2)
H1 H 1.1969 0.5570 0.3409
C2 C 1.3374(3) 0.5502(3) 0.3144(2)
H2 H 1.3629 0.5524 0.3560
C3 C 1.4004(3) 0.5444(3) 0.2605(2)
C4 C 1.3549(3) 0.5414(4) 0.1998(2)
H3 H 1.3928 0.5379 0.1625
C5 C 1.2544(3) 0.5437(3) 0.1950(2)
H4 H 1.2264 0.5417 0.1541
C6 C 1.5063(3) 0.5439(4) 0.2691(2)
H5 H 1.5307 0.5454 0.3110
C7 C 1.5694(3) 0.5414(4) 0.2210(2)
H6 H 1.5434 0.5393 0.1796
C8 C 1.8334(3) 0.5424(3) 0.1740(2)
H7 H 1.8693 0.5446 0.1358
C9 C 1.7324(3) 0.5439(3) 0.1703(2)
H8 H 1.7018 0.5466 0.1302
C10 C 1.6764(3) 0.5416(3) 0.2263(2)
C11 C 1.7273(3) 0.5382(4) 0.2851(2)
H9 H 1.6933 0.5377 0.3240
C12 C 1.8283(3) 0.5358(3) 0.2848(2)
H10 H 1.8607 0.5327 0.3242
C13 C 0.9453(3) 0.7076(3) 0.0291(2)
H11 H 0.9460 0.6391 0.0373
H12 H 0.9922 0.7216 -0.0048
C14 C 0.8445(3) 0.7392(3) 0.0089(2)
H13 H 0.8269 0.7064 -0.0313
C15 C 0.8334(3) 0.8462(3) -0.0007(2)
H14 H 0.8981 0.8762 0.0025
C16 C 0.7712(4) 0.8788(4) 0.0568(2)
H15 H 0.8155 0.8965 0.0920
C17 C 0.7163(3) 0.7878(4) 0.0766(2)
H16 H 0.6538 0.7836 0.0537
C18 C 0.9562(3) 0.3226(4) 0.0153(2)
H17 H 0.9852 0.2599 0.0085
H18 H 0.9890 0.3681 -0.0127
C19 C 0.8481(3) 0.3193(3) -0.0008(2)
H19 H 0.8412 0.3021 -0.0465
C20 C 0.7889(3) 0.4092(3) 0.0114(2)
H20 H 0.8076 0.4371 0.0531
C21 C 0.6845(3) 0.3679(3) 0.0159(2)
H21 H 0.6424 0.4105 0.0413
C22 C 0.7040(3) 0.2746(3) 0.0526(2)
H22 H 0.6580 0.2251 0.0381
C23 C 0.6076(3) 0.7788(4) 0.1711(2)
C24 C 0.6771(3) 0.7921(3) 0.2776(2)
C25 C 0.7733(3) 0.7898(3) 0.2499(2)
H23 H 0.8287 0.7914 0.2759
C26 C 0.7812(3) 0.7855(3) 0.1862(2)
H24 H 0.8432 0.7845 0.1677
C27 C 0.6028(3) 0.2842(4) 0.1506(2)
C28 C 0.6730(3) 0.2952(3) 0.2542(2)
C29 C 0.7690(3) 0.3020(3) 0.2268(2)
H25 H 0.8239 0.3099 0.2528
C30 C 0.7767(3) 0.2966(3) 0.1627(2)
H26 H 0.8384 0.3000 0.1439
N1 N 1.1944(2) 0.5486(3) 0.24663(16)
N2 N 1.8823(2) 0.5376(3) 0.23068(17)
N3 N 0.7004(3) 0.7824(3) 0.14627(17)
N4 N 0.5986(3) 0.7846(3) 0.23762(19)
N5 N 0.6963(3) 0.2862(3) 0.12394(17)
N6 N 0.5936(3) 0.2886(3) 0.21605(17)
N7 N 0.6633(3) 0.7994(3) 0.33932(18)
H27 H 0.6048 0.7996 0.3547
H28 H 0.7126 0.8042 0.3649
N8 N 0.6612(3) 0.2948(3) 0.31811(18)
H29 H 0.6035 0.2904 0.3344
H30 H 0.7113 0.2990 0.3431
O1 O 1.0209(3) 0.6659(2) 0.29233(16)
H31 H 1.0413 0.7185 0.2766
H32 H 1.0367 0.6630 0.3320
O2 O 1.0383(2) 0.4567(2) 0.31716(13)
H33 H 1.0115 0.4016 0.3174
H34 H 1.0305 0.4821 0.3541
O3 O 1.0541(2) 0.4151(2) 0.17592(13)
O4 O 1.0456(2) 0.6198(2) 0.14687(13)
O5 O 0.7777(2) 0.7098(2) 0.05917(15)
O6 O 0.8007(2) 0.2462(2) 0.03737(15)
O7 O 0.5352(3) 0.7738(4) 0.13639(17)
O8 O 0.5314(2) 0.2775(3) 0.11415(15)
O9 O 0.7897(3) 0.8733(2) -0.06018(15)
H35 H 0.7420 0.8391 -0.0672
O10 O 0.7091(4) 0.9569(3) 0.04489(18)
H36 H 0.6778 0.9471 0.0117
O11 O 0.6436(3) 0.3515(2) -0.04537(15)
H37 H 0.6449 0.2939 -0.0534
O12 O 0.8013(3) 0.4778(3) -0.0377(2)
H38 H 0.7490 0.5048 -0.0446
O13 O 0.9703(2) 0.7592(2) 0.08688(14)
O14 O 1.1528(2) 0.7480(2) 0.09930(17)
H39 H 1.1476 0.8002 0.0784
O15 O 0.9683(2) 0.3507(3) 0.08143(15)
O16 O 1.1516(2) 0.3247(2) 0.08938(16)
O17 O 1.0871(3) 0.4881(2) 0.06642(15)
H40 H 1.0673 0.5362 0.0983
O18 O 1.0391(2) 0.7859(2) 0.19247(14)
Co1_2 Co 2.03934(4) 0.53836(4) 0.23394(3)
N2_2 N 0.8823(2) 0.5376(3) 0.23068(17)
O19 O 0.1346(3) 0.9156(3) 0.0331(3)
H41 H 0.1757 0.8899 0.0076
H42 H 0.0898 0.9558 0.0447
O20 O -0.0171(7) 0.5334(7) 0.9222(5)
H43 H -0.0171 0.5877 0.9035
H44 H 0.0407 0.5225 0.9354
O21 O 0.8608(4) 0.0759(3) 0.9623(2)
H45 H 0.8235 0.0354 0.9806
H46 H 0.8466 0.0791 0.9224
O22 O 0.4788(4) 0.4519(4) 0.9315(3)
H47 H 0.5316 0.4213 0.9385
H48 H 0.4417 0.4449 0.9641
loop_
_geom_bond_atom_site_label_1
_geom_bond_atom_site_label_2
_geom_bond_site_symmetry_1
_geom_bond_site_symmetry_2
Co1 N1 1_555 1_555
P1 O3 1_555 1_555
P2 O4 1_555 1_555
C1 H1 1_555 1_555
C2 C1 1_555 1_555
H2 C2 1_555 1_555
C3 C2 1_555 1_555
C4 C3 1_555 1_555
H3 C4 1_555 1_555
C5 C4 1_555 1_555
H4 C5 1_555 1_555
C6 C3 1_555 1_555
H5 C6 1_555 1_555
C7 C6 1_555 1_555
H6 C7 1_555 1_555
C8 H7 1_555 1_555
C9 C8 1_555 1_555
H8 C9 1_555 1_555
C10 C7 1_555 1_555
C11 C10 1_555 1_555
H9 C11 1_555 1_555
C12 C11 1_555 1_555
H10 C12 1_555 1_555
C13 H11 1_555 1_555
H12 C13 1_555 1_555
C14 C13 1_555 1_555
H13 C14 1_555 1_555
C15 C14 1_555 1_555
H14 C15 1_555 1_555
C16 C15 1_555 1_555
H15 C16 1_555 1_555
C17 C16 1_555 1_555
H16 C17 1_555 1_555
C18 H17 1_555 1_555
H18 C18 1_555 1_555
C19 C18 1_555 1_555
H19 C19 1_555 1_555
C20 C19 1_555 1_555
H20 C20 1_555 1_555
C21 C20 1_555 1_555
H21 C21 1_555 1_555
C22 C21 1_555 1_555
H22 C22 1_555 1_555
C23 N3 1_555 1_555
C24 C25 1_555 1_555
C25 H23 1_555 1_555
C26 C25 1_555 1_555
H24 C26 1_555 1_555
C27 N5 1_555 1_555
C28 C29 1_555 1_555
C29 H25 1_555 1_555
C30 C29 1_555 1_555
H26 C30 1_555 1_555
N1 C1 1_555 1_555
N2 C8 1_555 1_555
N3 C17 1_555 1_555
N4 C23 1_555 1_555
N5 C22 1_555 1_555
N6 C27 1_555 1_555
N7 C24 1_555 1_555
H27 N7 1_555 1_555
H28 N7 1_555 1_555
N8 C28 1_555 1_555
H29 N8 1_555 1_555
H30 N8 1_555 1_555
O1 Co1 1_555 1_555
H31 O1 1_555 1_555
H32 O1 1_555 1_555
O2 Co1 1_555 1_555
H33 O2 1_555 1_555
H34 O2 1_555 1_555
O3 Co1 1_555 1_555
O4 Co1 1_555 1_555
O5 C14 1_555 1_555
O6 C19 1_555 1_555
O7 C23 1_555 1_555
O8 C27 1_555 1_555
O9 C15 1_555 1_555
H35 O9 1_555 1_555
O10 C16 1_555 1_555
H36 O10 1_555 1_555
O11 C21 1_555 1_555
H37 O11 1_555 1_555
O12 C20 1_555 1_555
H38 O12 1_555 1_555
O13 P2 1_555 1_555
O14 P2 1_555 1_555
H39 O14 1_555 1_555
O15 P1 1_555 1_555
O16 P1 1_555 1_555
O17 P1 1_555 1_555
H40 O17 1_555 1_555
O18 P2 1_555 1_555
O19 H41 1_555 1_555
H42 O19 1_555 1_555
O20 H43 1_555 1_555
H44 O20 1_555 1_555
O21 H45 1_555 1_555
H46 O21 1_555 1_555
O22 H47 1_555 1_555
H48 O22 1_555 1_555
Co1_2 N2 1_555 1_555
N2_2 Co1 1_555 1_555
C5 N1 1_555 1_555
C9 C10 1_555 1_555
C12 N2 1_555 1_555
C13 O13 1_555 1_555
C17 O5 1_555 1_555
C18 O15 1_555 1_555
C22 O6 1_555 1_555
C24 N4 1_555 1_555
C26 N3 1_555 1_555
C28 N6 1_555 1_555
C30 N5 1_555 1_555

#END
