
#######################################################################
#
#                 Cambridge Crystallographic Data Centre
#                                CCDC 
#
#######################################################################
#
# If this CIF has been generated from an entry in the Cambridge 
# Structural Database, then it will include bibliographic, chemical, 
# crystal, experimental, refinement or atomic coordinate data resulting 
# from the CCDC's data processing and validation procedures.
#
#######################################################################

data_GUTRET
_symmetry_cell_setting           orthorhombic
_symmetry_space_group_name_H-M   'I b a m'
_symmetry_Int_Tables_number      72
_space_group_name_Hall           '-I 2 2c'
loop_
_symmetry_equiv_pos_site_id
_symmetry_equiv_pos_as_xyz
1 x,y,z
2 -x,-y,z
3 x,-y,1/2-z
4 -x,y,1/2-z
5 1/2+x,1/2+y,1/2+z
6 1/2-x,1/2-y,1/2+z
7 1/2+x,1/2-y,-z
8 1/2-x,1/2+y,-z
9 -x,-y,-z
10 x,y,-z
11 -x,y,1/2+z
12 x,-y,1/2+z
13 1/2-x,1/2-y,1/2-z
14 1/2+x,1/2+y,1/2-z
15 1/2-x,1/2+y,z
16 1/2+x,1/2-y,z
_cell_length_a                   8.15939(14)
_cell_length_b                   14.48130(33)
_cell_length_c                   7.32262(14)
_cell_angle_alpha                90
_cell_angle_beta                 90
_cell_angle_gamma                90
_cell_volume                     865.23
loop_
_atom_site_label
_atom_site_type_symbol
_atom_site_fract_x
_atom_site_fract_y
_atom_site_fract_z
Zn1 Zn 0.00000 0.00000 0.25000
N1 N -0.13580(58) 0.07706(30) 0.08649(85)
C1 C -0.26816(14) 0.117360(80) 0.1642(11)
H1 H -0.26847(79) 0.11737(39) 0.2740(31)
P1 P -0.38032(35) 0.18076(21) 0.00000
Zn1H Zn 0.00000 0.00000 -0.25000
N1I N -0.13580(58) 0.07706(30) -0.08649(85)
N1A N 0.13580(58) -0.07706(30) 0.08649(85)
N1H N 0.13580(58) -0.07706(30) -0.08649(85)
N1B N -0.13580(58) -0.07706(30) 0.41351(85)
N1C N 0.13580(58) 0.07706(30) 0.41351(85)
C1I C -0.26816(14) 0.117360(80) -0.1642(11)
C1A C 0.26816(14) -0.117360(80) 0.1642(11)
C1H C 0.26816(14) -0.117360(80) -0.1642(11)
H1I H -0.26847(79) 0.11737(39) -0.2740(31)
H1A H 0.26847(79) -0.11737(39) 0.2740(31)
H1H H 0.26847(79) -0.11737(39) -0.2740(31)
P1A P 0.38032(35) -0.18076(21) 0.00000
loop_
_geom_bond_atom_site_label_1
_geom_bond_atom_site_label_2
_geom_bond_site_symmetry_1
_geom_bond_site_symmetry_2
Zn1 N1 1_555 1_555
N1 C1 1_555 1_555
C1 H1 1_555 1_555
P1 C1 1_555 1_555
Zn1H N1I 1_555 1_555
N1I N1 1_555 1_555
N1A Zn1 1_555 1_555
N1H Zn1H 1_555 1_555
N1B Zn1 1_555 1_555
N1C Zn1 1_555 1_555
C1I P1 1_555 1_555
C1A N1A 1_555 1_555
C1H N1H 1_555 1_555
H1I C1I 1_555 1_555
H1A C1A 1_555 1_555
H1H C1H 1_555 1_555
P1A C1A 1_555 1_555
N1I C1I 1_555 1_555
N1A N1H 1_555 1_555
C1H P1A 1_555 1_555

#END
