
#######################################################################
#
#                 Cambridge Crystallographic Data Centre
#                                CCDC 
#
#######################################################################
#
# If this CIF has been generated from an entry in the Cambridge 
# Structural Database, then it will include bibliographic, chemical, 
# crystal, experimental, refinement or atomic coordinate data resulting 
# from the CCDC's data processing and validation procedures.
#
#######################################################################

data_GUTRIX
_symmetry_cell_setting           orthorhombic
_symmetry_space_group_name_H-M   'P b c a'
_symmetry_Int_Tables_number      61
_space_group_name_Hall           '-P 2ac 2ab'
loop_
_symmetry_equiv_pos_site_id
_symmetry_equiv_pos_as_xyz
1 x,y,z
2 1/2-x,-y,1/2+z
3 1/2+x,1/2-y,-z
4 -x,1/2+y,1/2-z
5 -x,-y,-z
6 1/2+x,y,1/2-z
7 1/2-x,1/2+y,z
8 x,1/2-y,1/2+z
_cell_length_a                   7.683
_cell_length_b                   11.122
_cell_length_c                   10.679
_cell_angle_alpha                90
_cell_angle_beta                 90
_cell_angle_gamma                90
_cell_volume                     912.524
loop_
_atom_site_label
_atom_site_type_symbol
_atom_site_fract_x
_atom_site_fract_y
_atom_site_fract_z
Ag1 Ag 0.39944(5) 0.92246(3) 0.36655(3)
P1 P 0.40546(14) 1.35198(10) 0.31222(11)
N1 N 0.4146(5) 1.1255(4) 0.3712(3)
N2 N 0.5050(5) 1.1832(3) 0.4647(3)
C1 C 0.5123(5) 1.3004(4) 0.4474(4)
H1 H 0.568(7) 1.344(5) 0.509(6)
C2 C 0.3547(6) 1.2007(4) 0.2858(4)
H2 H 0.287(7) 1.172(5) 0.209(6)
Ag1D Ag 0.60056(5) 1.07754(3) 0.63345(3)
Ag1B Ag 0.89944(5) 0.57754(3) 0.63345(3)
Ag1C Ag 0.60056(5) 1.42246(3) 0.13345(3)
Ag1F Ag 0.10056(5) 1.42246(3) 0.36655(3)
Ag1G Ag 0.39944(5) 0.57754(3) 0.86655(3)
P1D P 0.59454(14) 0.64802(10) 0.68778(11)
P1B P 0.90546(14) 1.14802(10) 0.68778(11)
P1C P 0.59454(14) 0.85198(10) 0.18778(11)
P1F P 0.09454(14) 0.85198(10) 0.31222(11)
P1G P 0.40546(14) 1.14802(10) 0.81222(11)
N1D N 0.5854(5) 0.8745(4) 0.6288(3)
N2D N 0.4950(5) 0.8168(3) 0.5353(3)
C1D C 0.4877(5) 0.6996(4) 0.5526(4)
H1D H 0.432(7) 0.656(5) 0.491(6)
C2D C 0.6453(6) 0.7993(4) 0.7142(4)
H2D H 0.713(7) 0.828(5) 0.791(6)
loop_
_geom_bond_atom_site_label_1
_geom_bond_atom_site_label_2
_geom_bond_site_symmetry_1
_geom_bond_site_symmetry_2
Ag1 N1 1_555 1_555
P1 C1 1_555 1_555
N1 N2 1_555 1_555
N2 C1 1_555 1_555
C1 H1 1_555 1_555
C2 P1 1_555 1_555
H2 C2 1_555 1_555
Ag1D N2 1_555 1_555
Ag1B P1D 1_555 1_555
Ag1C P1 1_555 1_555
Ag1F P1 1_555 1_555
Ag1G P1D 1_555 1_555
P1D C1D 1_555 1_555
P1B Ag1D 1_555 1_555
P1C Ag1 1_555 1_555
P1F Ag1 1_555 1_555
P1G Ag1D 1_555 1_555
N1D Ag1D 1_555 1_555
N2D Ag1 1_555 1_555
C1D N2D 1_555 1_555
H1D C1D 1_555 1_555
C2D P1D 1_555 1_555
H2D C2D 1_555 1_555
N1 C2 1_555 1_555
N1D N2D 1_555 1_555
N1D C2D 1_555 1_555

#END
