
#######################################################################
#
#                 Cambridge Crystallographic Data Centre
#                                CCDC 
#
#######################################################################
#
# If this CIF has been generated from an entry in the Cambridge 
# Structural Database, then it will include bibliographic, chemical, 
# crystal, experimental, refinement or atomic coordinate data resulting 
# from the CCDC's data processing and validation procedures.
#
#######################################################################

data_GUTYUQ
_symmetry_cell_setting           monoclinic
_symmetry_space_group_name_H-M   'P 21/n'
_symmetry_Int_Tables_number      14
_space_group_name_Hall           '-P 2yn'
loop_
_symmetry_equiv_pos_site_id
_symmetry_equiv_pos_as_xyz
1 x,y,z
2 1/2-x,1/2+y,1/2-z
3 -x,-y,-z
4 1/2+x,1/2-y,1/2+z
_cell_length_a                   8.432(2)
_cell_length_b                   16.285(4)
_cell_length_c                   17.526(5)
_cell_angle_alpha                90
_cell_angle_beta                 101.543(4)
_cell_angle_gamma                90
_cell_volume                     2357.91
loop_
_atom_site_label
_atom_site_type_symbol
_atom_site_fract_x
_atom_site_fract_y
_atom_site_fract_z
Ni1 Ni 0.5000 0.0000 0.0000
O1 O 0.4095(4) 0.03681(19) 0.09557(15)
H1 H 0.411(5) 0.013(3) 0.136(2)
H2 H 0.386(6) 0.086(4) 0.098(3)
N1 N 0.2179(3) 0.26698(16) -0.45907(14)
N2 N 0.1344(4) 0.24920(18) -0.53199(15)
N3 N 0.0963(3) 0.38083(16) -0.50257(14)
N4 N 0.0802(3) 0.05436(17) -0.16896(14)
N5 N 0.0124(4) 0.0513(2) -0.10462(16)
N6 N 0.2821(3) 0.03551(16) -0.07206(14)
N7 N 0.3098(4) -0.14017(17) -0.42851(15)
N8 N 0.3336(5) -0.21383(19) -0.46139(19)
N9 N 0.5386(4) -0.1863(2) -0.36067(18)
C1 C 0.2280(4) 0.13095(19) -0.39313(17)
C2 C 0.1467(4) 0.1339(2) -0.33106(18)
C3 C 0.0709(4) 0.0626(2) -0.31073(17)
C4 C 0.0834(4) -0.0117(2) -0.34908(18)
C5 C 0.1579(4) -0.01297(19) -0.41383(18)
C6 C 0.2306(4) 0.05838(19) -0.43611(17)
C7 C 0.3208(4) 0.20557(19) -0.41180(19)
H3 H 0.4045 0.1877 -0.4397
H4 H 0.3751 0.2312 -0.3629
C8 C 0.1455(5) 0.2124(2) -0.2847(2)
H5 H 0.0838 0.2039 -0.2442
H6 H 0.2557 0.2275 -0.2611
H7 H 0.0963 0.2561 -0.3191
C9 C -0.0247(4) 0.0667(3) -0.24617(18)
H8 H -0.1090 0.0243 -0.2549
H9 H -0.0780 0.1203 -0.2475
C10 C 0.0203(6) -0.0902(3) -0.3197(2)
H10 H 0.0394 -0.1357 -0.3524
H11 H 0.0760 -0.1002 -0.2665
H12 H -0.0949 -0.0849 -0.3214
C11 C 0.1624(5) -0.0925(2) -0.4589(2)
H13 H 0.1580 -0.0798 -0.5139
H14 H 0.0671 -0.1257 -0.4554
C12 C 0.3156(5) 0.0585(2) -0.50427(19)
H15 H 0.3074 0.0045 -0.5280
H16 H 0.2654 0.0987 -0.5423
H17 H 0.4288 0.0724 -0.4862
C13 C 0.0654(5) 0.3199(2) -0.55488(19)
H18 H -0.0008 0.3272 -0.6044
C14 C 0.1934(4) 0.3445(2) -0.44300(19)
H19 H 0.2385 0.3705 -0.3958
C15 C 0.1390(4) 0.0397(2) -0.04838(19)
H20 H 0.1309 0.0346 0.0041
C16 C 0.2392(4) 0.0450(2) -0.14868(18)
H21 H 0.3110 0.0450 -0.1834
C17 C 0.4727(6) -0.2380(2) -0.4181(2)
H22 H 0.5220 -0.2879 -0.4269
C18 C 0.4322(5) -0.1256(2) -0.3689(2)
H23 H 0.4415 -0.0787 -0.3372
Ni1A Ni 0.0000 0.5000 -0.5000
Ni1A_2 Ni 1.0000 -0.5000 0.5000
O1B O 0.5905(4) -0.03681(19) -0.09557(15)
H1B H 0.589(5) -0.013(3) -0.136(2)
H2B H 0.614(6) -0.086(4) -0.098(3)
N1B N 0.7821(3) -0.26698(16) 0.45907(14)
N2B N 0.8656(4) -0.24920(18) 0.53199(15)
N3B N 0.9037(3) -0.38083(16) 0.50257(14)
N3A N 0.4037(3) -0.11917(16) 0.00257(14)
N3C N 0.5963(3) 0.11917(16) -0.00257(14)
N4B N 0.9198(3) -0.05436(17) 0.16896(14)
N5B N 0.9876(4) -0.0513(2) 0.10462(16)
N6B N 0.7179(3) -0.03551(16) 0.07206(14)
N7B N 0.6902(4) 0.14017(17) 0.42851(15)
N8B N 0.6664(5) 0.21383(19) 0.46139(19)
N9B N 0.4614(4) 0.1863(2) 0.36067(18)
C1B C 0.7720(4) -0.13095(19) 0.39313(17)
C2B C 0.8533(4) -0.1339(2) 0.33106(18)
C3B C 0.9291(4) -0.0626(2) 0.31073(17)
C4B C 0.9166(4) 0.0117(2) 0.34908(18)
C5B C 0.8421(4) 0.01297(19) 0.41383(18)
C6B C 0.7694(4) -0.05838(19) 0.43611(17)
C7B C 0.6792(4) -0.20557(19) 0.41180(19)
H3B H 0.5955 -0.1877 0.4397
H4B H 0.6249 -0.2312 0.3629
C8B C 0.8545(5) -0.2124(2) 0.2847(2)
H5B H 0.9162 -0.2039 0.2442
H6B H 0.7443 -0.2275 0.2611
H7B H 0.9037 -0.2561 0.3191
C9B C 1.0247(4) -0.0667(3) 0.24617(18)
H8B H 1.1090 -0.0243 0.2549
H9B H 1.0780 -0.1203 0.2475
C10B C 0.9797(6) 0.0902(3) 0.3197(2)
H10B H 0.9606 0.1357 0.3524
H11B H 0.9240 0.1002 0.2665
H12B H 1.0949 0.0849 0.3214
C11B C 0.8376(5) 0.0925(2) 0.4589(2)
H13B H 0.8420 0.0798 0.5139
H14B H 0.9329 0.1257 0.4554
C12B C 0.6844(5) -0.0585(2) 0.50427(19)
H15B H 0.6926 -0.0045 0.5280
H16B H 0.7346 -0.0987 0.5423
H17B H 0.5712 -0.0724 0.4862
C13B C 0.9346(5) -0.3199(2) 0.55488(19)
H18B H 1.0008 -0.3272 0.6044
C14B C 0.8066(4) -0.3445(2) 0.44300(19)
H19B H 0.7615 -0.3705 0.3958
C15B C 0.8610(4) -0.0397(2) 0.04838(19)
H20B H 0.8691 -0.0346 -0.0041
C16B C 0.7608(4) -0.0450(2) 0.14868(18)
H21B H 0.6890 -0.0450 0.1834
C17B C 0.5273(6) 0.2380(2) 0.4181(2)
H22B H 0.4780 0.2879 0.4269
C18B C 0.5678(5) 0.1256(2) 0.3689(2)
H23B H 0.5585 0.0787 0.3372
O2 O 0.1105(3) 0.41196(19) 0.16352(14)
O3 O 0.0440(5) 0.48863(18) 0.25241(16)
O4 O 0.0342(4) 0.35795(19) 0.26293(16)
N10 N 0.0654(4) 0.4194(2) 0.22608(16)
O5 O 0.3084(7) 0.1895(3) 0.09624(19)
H24 H 0.268(8) 0.205(4) 0.135(3)
H25 H 0.296(9) 0.229(3) 0.065(3)
O6 O 0.2022(5) 0.2175(2) 0.22914(19)
H26 H 0.273(6) 0.209(3) 0.270(2)
H27 H 0.157(6) 0.262(3) 0.237(3)
loop_
_geom_bond_atom_site_label_1
_geom_bond_atom_site_label_2
_geom_bond_site_symmetry_1
_geom_bond_site_symmetry_2
Ni1 O1 1_555 1_555
O1 H1 1_555 1_555
H2 O1 1_555 1_555
N1 N2 1_555 1_555
N2 C13 1_555 1_555
N3 C13 1_555 1_555
N4 N5 1_555 1_555
N5 C15 1_555 1_555
N6 Ni1 1_555 1_555
N7 N8 1_555 1_555
N8 C17 1_555 1_555
N9 C17 1_555 1_555
C1 C2 1_555 1_555
C2 C3 1_555 1_555
C3 C4 1_555 1_555
C4 C5 1_555 1_555
C5 C6 1_555 1_555
C6 C1 1_555 1_555
C7 N1 1_555 1_555
H3 C7 1_555 1_555
H4 C7 1_555 1_555
C8 C2 1_555 1_555
H5 C8 1_555 1_555
H6 C8 1_555 1_555
H7 C8 1_555 1_555
C9 N4 1_555 1_555
H8 C9 1_555 1_555
H9 C9 1_555 1_555
C10 C4 1_555 1_555
H10 C10 1_555 1_555
H11 C10 1_555 1_555
H12 C10 1_555 1_555
C11 N7 1_555 1_555
H13 C11 1_555 1_555
H14 C11 1_555 1_555
C12 C6 1_555 1_555
H15 C12 1_555 1_555
H16 C12 1_555 1_555
H17 C12 1_555 1_555
C13 H18 1_555 1_555
C14 N1 1_555 1_555
H19 C14 1_555 1_555
C15 N6 1_555 1_555
H20 C15 1_555 1_555
C16 N4 1_555 1_555
H21 C16 1_555 1_555
C17 H22 1_555 1_555
C18 N7 1_555 1_555
H23 C18 1_555 1_555
O2 N10 1_555 1_555
O3 N10 1_555 1_555
O4 N10 1_555 1_555
O5 H24 1_555 1_555
H25 O5 1_555 1_555
O6 H26 1_555 1_555
H27 O6 1_555 1_555
Ni1A N3 1_555 1_555
Ni1A_2 N3B 1_555 1_555
O1B Ni1 1_555 1_555
H1B O1B 1_555 1_555
H2B O1B 1_555 1_555
N1B N2B 1_555 1_555
N2B C13B 1_555 1_555
N3B C13B 1_555 1_555
N3A Ni1 1_555 1_555
N3C Ni1 1_555 1_555
N4B N5B 1_555 1_555
N5B C15B 1_555 1_555
N6B Ni1 1_555 1_555
N7B N8B 1_555 1_555
N8B C17B 1_555 1_555
N9B C17B 1_555 1_555
C1B C2B 1_555 1_555
C2B C3B 1_555 1_555
C3B C4B 1_555 1_555
C4B C5B 1_555 1_555
C5B C6B 1_555 1_555
C6B C1B 1_555 1_555
C7B N1B 1_555 1_555
H3B C7B 1_555 1_555
H4B C7B 1_555 1_555
C8B C2B 1_555 1_555
H5B C8B 1_555 1_555
H6B C8B 1_555 1_555
H7B C8B 1_555 1_555
C9B N4B 1_555 1_555
H8B C9B 1_555 1_555
H9B C9B 1_555 1_555
C10B C4B 1_555 1_555
H10B C10B 1_555 1_555
H11B C10B 1_555 1_555
H12B C10B 1_555 1_555
C11B N7B 1_555 1_555
H13B C11B 1_555 1_555
H14B C11B 1_555 1_555
C12B C6B 1_555 1_555
H15B C12B 1_555 1_555
H16B C12B 1_555 1_555
H17B C12B 1_555 1_555
C13B H18B 1_555 1_555
C14B N1B 1_555 1_555
H19B C14B 1_555 1_555
C15B N6B 1_555 1_555
H20B C15B 1_555 1_555
C16B N4B 1_555 1_555
H21B C16B 1_555 1_555
C17B H22B 1_555 1_555
C18B N7B 1_555 1_555
H23B C18B 1_555 1_555
N3 C14 1_555 1_555
N6 C16 1_555 1_555
N9 C18 1_555 1_555
C1 C7 1_555 1_555
C3 C9 1_555 1_555
C5 C11 1_555 1_555
N3B C14B 1_555 1_555
N6B C16B 1_555 1_555
N9B C18B 1_555 1_555
C1B C7B 1_555 1_555
C3B C9B 1_555 1_555
C5B C11B 1_555 1_555

#END
