
#######################################################################
#
#                 Cambridge Crystallographic Data Centre
#                                CCDC 
#
#######################################################################
#
# If this CIF has been generated from an entry in the Cambridge 
# Structural Database, then it will include bibliographic, chemical, 
# crystal, experimental, refinement or atomic coordinate data resulting 
# from the CCDC's data processing and validation procedures.
#
#######################################################################

data_GUTYOK
_symmetry_cell_setting           rhombohedral
_symmetry_space_group_name_H-M   'R -3'
_symmetry_Int_Tables_number      148
_space_group_name_Hall           '-R 3'
loop_
_symmetry_equiv_pos_site_id
_symmetry_equiv_pos_as_xyz
1 x,y,z
2 -y,x-y,z
3 -x+y,-x,z
4 2/3+x,1/3+y,1/3+z
5 2/3-y,1/3+x-y,1/3+z
6 2/3-x+y,1/3-x,1/3+z
7 1/3+x,2/3+y,2/3+z
8 1/3-y,2/3+x-y,2/3+z
9 1/3-x+y,2/3-x,2/3+z
10 -x,-y,-z
11 y,-x+y,-z
12 x-y,x,-z
13 1/3-x,2/3-y,2/3-z
14 1/3+y,2/3-x+y,2/3-z
15 1/3+x-y,2/3+x,2/3-z
16 2/3-x,1/3-y,1/3-z
17 2/3+y,1/3-x+y,1/3-z
18 2/3+x-y,1/3+x,1/3-z
_cell_length_a                   14.4613(5)
_cell_length_b                   14.4613(5)
_cell_length_c                   21.3591(13)
_cell_angle_alpha                90
_cell_angle_beta                 90
_cell_angle_gamma                120
_cell_volume                     3868.37
loop_
_atom_site_label
_atom_site_type_symbol
_atom_site_fract_x
_atom_site_fract_y
_atom_site_fract_z
Ni1 Ni 0.5000 0.5000 0.5000
Cl1 Cl 0.68591(7) 0.57546(7) 0.52401(4)
O1 O 0.5034(3) 0.6581(2) 0.53128(17)
H1 H 0.539(4) 0.682(4) 0.5694(16)
H2 H 0.519(5) 0.720(3) 0.510(2)
N1 N 0.52634(19) 0.5809(2) 0.31376(12)
N2 N 0.6049(2) 0.5549(2) 0.31612(13)
N3 N 0.5367(2) 0.5449(2) 0.41137(13)
C1 C 0.4112(2) 0.6363(2) 0.25849(14)
C2 C 0.4424(2) 0.7449(2) 0.25927(14)
C3 C 0.4937(3) 0.6028(3) 0.25294(15)
H3 H 0.4651 0.5384 0.2270
H4 H 0.5567 0.6593 0.2317
C4 C 0.5590(2) 0.8292(3) 0.26325(17)
H5 H 0.5659 0.8995 0.2630
H6 H 0.5968 0.8225 0.2276
H7 H 0.5892 0.8198 0.3016
C5 C 0.6079(3) 0.5344(3) 0.37567(16)
H8 H 0.6555 0.5142 0.3921
C6 C 0.4867(3) 0.5743(3) 0.37042(15)
H9 H 0.4315 0.5883 0.3803
Ni1A Ni 0.5000 1.0000 0.5000
Ni1B Ni 0.0000 0.5000 0.5000
Ni1A_2 Ni 0.5000 0.0000 0.5000
Ni1B_2 Ni 1.0000 0.5000 0.5000
Cl1I Cl 0.31409(7) 0.42454(7) 0.47599(4)
Cl1A Cl 0.42454(7) 1.11045(10) 0.52401(4)
Cl1J Cl 0.57546(7) 0.88955(10) 0.47599(4)
Cl1B Cl -0.11045(10) 0.31409(7) 0.52401(4)
Cl1K Cl 0.11045(10) 0.68591(7) 0.47599(4)
O1I O 0.4966(3) 0.3419(2) 0.46872(17)
O1A O 0.3419(2) 0.8453(4) 0.53128(17)
O1J O 0.6581(2) 1.1547(4) 0.46872(17)
O1B O 0.1547(4) 0.4966(3) 0.53128(17)
O1K O -0.1547(4) 0.5034(3) 0.46872(17)
H1I H 0.461(4) 0.318(4) 0.4306(16)
H1A H 0.318(4) 0.857(6) 0.5694(16)
H1J H 0.682(4) 1.143(6) 0.4306(16)
H1B H 0.143(6) 0.461(4) 0.5694(16)
H1K H -0.143(6) 0.539(4) 0.4306(16)
H2I H 0.481(5) 0.280(3) 0.490(2)
H2A H 0.280(3) 0.799(6) 0.510(2)
H2J H 0.720(3) 1.201(6) 0.490(2)
H2B H 0.201(6) 0.481(5) 0.510(2)
H2K H -0.201(6) 0.519(5) 0.490(2)
N1A N 0.4191(2) 0.94544(28) 0.31376(12)
N1B N 0.05456(28) 0.47366(19) 0.31376(12)
N1I N 0.47366(19) 0.4191(2) 0.68624(12)
N1J N 0.5809(2) 0.05456(28) 0.68624(12)
N1K N 0.94544(28) 0.52634(19) 0.68624(12)
N2A N 0.4451(2) 1.0500(3) 0.31612(13)
N2B N -0.0500(3) 0.3951(2) 0.31612(13)
N2I N 0.3951(2) 0.4451(2) 0.68388(13)
N2J N 0.5549(2) -0.0500(3) 0.68388(13)
N2K N 1.0500(3) 0.6049(2) 0.68388(13)
N3A N 0.4551(2) 0.9918(3) 0.41137(13)
N3B N 0.0082(3) 0.4633(2) 0.41137(13)
N3I N 0.4633(2) 0.4551(2) 0.58863(13)
N3J N 0.5449(2) 0.0082(3) 0.58863(13)
N3K N 0.9918(3) 0.5367(2) 0.58863(13)
N3J_2 N 0.5449(2) 1.0082(3) 0.58863(13)
N3K_2 N -0.0082(3) 0.5367(2) 0.58863(13)
C1A C 0.3637(2) 0.7749(3) 0.25849(14)
C1B C 0.2251(3) 0.5888(2) 0.25849(14)
C1I C 0.5888(2) 0.3637(2) 0.74151(14)
C1J C 0.6363(2) 0.2251(3) 0.74151(14)
C1K C 0.7749(3) 0.4112(2) 0.74151(14)
C2A C 0.2551(2) 0.6975(3) 0.25927(14)
C2B C 0.3025(3) 0.5576(2) 0.25927(14)
C2I C 0.5576(2) 0.2551(2) 0.74073(14)
C2J C 0.7449(2) 0.3025(3) 0.74073(14)
C2K C 0.6975(3) 0.4424(2) 0.74073(14)
C3A C 0.3972(3) 0.8909(4) 0.25294(15)
C3B C 0.1091(4) 0.5063(3) 0.25294(15)
C3I C 0.5063(3) 0.3972(3) 0.74706(15)
C3J C 0.6028(3) 0.1091(4) 0.74706(15)
C3K C 0.8909(4) 0.4937(3) 0.74706(15)
H3A H 0.4616 0.9267 0.2270
H3B H 0.0733 0.5349 0.2270
H3I H 0.5349 0.4616 0.7730
H3J H 0.5384 0.0733 0.7730
H3K H 0.9267 0.4651 0.7730
H4A H 0.3407 0.8974 0.2317
H4B H 0.1026 0.4433 0.2317
H4I H 0.4433 0.3407 0.7683
H4J H 0.6593 0.1026 0.7683
H4K H 0.8974 0.5567 0.7683
C4B C 0.2702(4) 0.4410(2) 0.26325(17)
C4A C 0.1708(3) 0.7298(4) 0.26325(17)
C4I C 0.4410(2) 0.1708(3) 0.73675(17)
C4K C 0.7298(4) 0.5590(2) 0.73675(17)
C4J C 0.8292(3) 0.2702(4) 0.73675(17)
H5B H 0.3336 0.4341 0.2630
H5A H 0.1005 0.6664 0.2630
H5I H 0.4341 0.1005 0.7370
H5K H 0.6664 0.5659 0.7370
H5J H 0.8995 0.3336 0.7370
H6B H 0.2257 0.4032 0.2276
H6A H 0.1775 0.7743 0.2276
H6I H 0.4032 0.1775 0.7724
H6K H 0.7743 0.5968 0.7724
H6J H 0.8225 0.2257 0.7724
H7B H 0.2306 0.4108 0.3016
H7A H 0.1802 0.7694 0.3016
H7I H 0.4108 0.1802 0.6984
H7K H 0.7694 0.5892 0.6984
H7J H 0.8198 0.2306 0.6984
C5A C 0.4656(3) 1.0735(4) 0.37567(16)
C5B C -0.0735(4) 0.3921(3) 0.37567(16)
C5I C 0.3921(3) 0.4656(3) 0.62433(16)
C5J C 0.5344(3) -0.0735(4) 0.62433(16)
C5K C 1.0735(4) 0.6079(3) 0.62433(16)
H8A H 0.4858 1.1413 0.3921
H8B H -0.1413 0.3445 0.3921
H8I H 0.3445 0.4858 0.6079
H8J H 0.5142 -0.1413 0.6079
H8K H 1.1413 0.6555 0.6079
C6A C 0.4257(3) 0.9124(4) 0.37042(15)
C6B C 0.0876(4) 0.5133(3) 0.37042(15)
C6I C 0.5133(3) 0.4257(3) 0.62958(15)
C6J C 0.5743(3) 0.0876(4) 0.62958(15)
C6K C 0.9124(4) 0.4867(3) 0.62958(15)
H9A H 0.4117 0.8432 0.3803
H9B H 0.1568 0.5685 0.3803
H9I H 0.5685 0.4117 0.6197
H9J H 0.5883 0.1568 0.6197
H9K H 0.8432 0.4315 0.6197
O2 O 0.6667 0.3333 0.5717(2)
O3 O 0.3333 0.6667 0.5964(7)
loop_
_geom_bond_atom_site_label_1
_geom_bond_atom_site_label_2
_geom_bond_site_symmetry_1
_geom_bond_site_symmetry_2
Ni1 Cl1 1_555 1_555
O1 Ni1 1_555 1_555
H1 O1 1_555 1_555
H2 O1 1_555 1_555
N1 N2 1_555 1_555
N2 C5 1_555 1_555
N3 Ni1 1_555 1_555
C1 C2 1_555 1_555
C2 C4 1_555 1_555
C3 N1 1_555 1_555
H3 C3 1_555 1_555
H4 C3 1_555 1_555
C4 H5 1_555 1_555
H6 C4 1_555 1_555
H7 C4 1_555 1_555
C5 N3 1_555 1_555
H8 C5 1_555 1_555
C6 N1 1_555 1_555
H9 C6 1_555 1_555
Ni1A Cl1A 1_555 1_555
Ni1B Cl1B 1_555 1_555
Ni1A_2 N3J 1_555 1_555
Ni1B_2 N3K 1_555 1_555
Cl1I Ni1 1_555 1_555
Cl1J Ni1A 1_555 1_555
Cl1K Ni1B 1_555 1_555
O1I Ni1 1_555 1_555
O1A Ni1A 1_555 1_555
O1J Ni1A 1_555 1_555
O1B Ni1B 1_555 1_555
O1K Ni1B 1_555 1_555
H1I O1I 1_555 1_555
H1A O1A 1_555 1_555
H1J O1J 1_555 1_555
H1B O1B 1_555 1_555
H1K O1K 1_555 1_555
H2I O1I 1_555 1_555
H2A O1A 1_555 1_555
H2J O1J 1_555 1_555
H2B O1B 1_555 1_555
H2K O1K 1_555 1_555
N1A N2A 1_555 1_555
N1B N2B 1_555 1_555
N1I N2I 1_555 1_555
N1J N2J 1_555 1_555
N1K N2K 1_555 1_555
N2A C5A 1_555 1_555
N2B C5B 1_555 1_555
N2I C5I 1_555 1_555
N2J C5J 1_555 1_555
N2K C5K 1_555 1_555
N3A Ni1A 1_555 1_555
N3B Ni1B 1_555 1_555
N3I Ni1 1_555 1_555
N3J C5J 1_555 1_555
N3K C5K 1_555 1_555
N3J_2 Ni1A 1_555 1_555
N3K_2 Ni1B 1_555 1_555
C1A C2 1_555 1_555
C1B C2A 1_555 1_555
C1I C2I 1_555 1_555
C1J C2I 1_555 1_555
C1K C2J 1_555 1_555
C2A C1A 1_555 1_555
C2B C1 1_555 1_555
C2I C4I 1_555 1_555
C2J C1J 1_555 1_555
C2K C1I 1_555 1_555
C3A N1A 1_555 1_555
C3B N1B 1_555 1_555
C3I N1I 1_555 1_555
C3J N1J 1_555 1_555
C3K N1K 1_555 1_555
H3A C3A 1_555 1_555
H3B C3B 1_555 1_555
H3I C3I 1_555 1_555
H3J C3J 1_555 1_555
H3K C3K 1_555 1_555
H4A C3A 1_555 1_555
H4B C3B 1_555 1_555
H4I C3I 1_555 1_555
H4J C3J 1_555 1_555
H4K C3K 1_555 1_555
C4B C2B 1_555 1_555
C4A C2A 1_555 1_555
C4I H5I 1_555 1_555
C4K C2K 1_555 1_555
C4J C2J 1_555 1_555
H5B C4B 1_555 1_555
H5A C4A 1_555 1_555
H5K C4K 1_555 1_555
H5J C4J 1_555 1_555
H6B C4B 1_555 1_555
H6A C4A 1_555 1_555
H6I C4I 1_555 1_555
H6K C4K 1_555 1_555
H6J C4J 1_555 1_555
H7B C4B 1_555 1_555
H7A C4A 1_555 1_555
H7I C4I 1_555 1_555
H7K C4K 1_555 1_555
H7J C4J 1_555 1_555
C5A N3A 1_555 1_555
C5B N3B 1_555 1_555
C5I N3I 1_555 1_555
C5J H8J 1_555 1_555
C5K H8K 1_555 1_555
H8A C5A 1_555 1_555
H8B C5B 1_555 1_555
H8I C5I 1_555 1_555
C6A N1A 1_555 1_555
C6B N1B 1_555 1_555
C6I N1I 1_555 1_555
C6J N1J 1_555 1_555
C6K N1K 1_555 1_555
H9A C6A 1_555 1_555
H9B C6B 1_555 1_555
H9I C6I 1_555 1_555
H9J C6J 1_555 1_555
H9K C6K 1_555 1_555
N3 C6 1_555 1_555
C1 C3 1_555 1_555
N3A C6A 1_555 1_555
N3B C6B 1_555 1_555
N3I C6I 1_555 1_555
N3J C6J 1_555 1_555
N3K C6K 1_555 1_555
C1A C3A 1_555 1_555
C1B C2B 1_555 1_555
C1B C3B 1_555 1_555
C1I C3I 1_555 1_555
C1J C3J 1_555 1_555
C1K C2K 1_555 1_555
C1K C3K 1_555 1_555

#END
