
#######################################################################
#
#                 Cambridge Crystallographic Data Centre
#                                CCDC 
#
#######################################################################
#
# If this CIF has been generated from an entry in the Cambridge 
# Structural Database, then it will include bibliographic, chemical, 
# crystal, experimental, refinement or atomic coordinate data resulting 
# from the CCDC's data processing and validation procedures.
#
#######################################################################

data_GUTYAW
_symmetry_cell_setting           monoclinic
_symmetry_space_group_name_H-M   'C 2/c'
_symmetry_Int_Tables_number      15
_space_group_name_Hall           '-C 2yn'
loop_
_symmetry_equiv_pos_site_id
_symmetry_equiv_pos_as_xyz
1 x,y,z
2 -x,y,1/2-z
3 1/2+x,1/2+y,z
4 1/2-x,1/2+y,1/2-z
5 -x,-y,-z
6 x,-y,1/2+z
7 1/2-x,1/2-y,-z
8 1/2+x,1/2-y,1/2+z
_cell_length_a                   8.3183(7)
_cell_length_b                   5.4416(5)
_cell_length_c                   14.9784(13)
_cell_angle_alpha                90
_cell_angle_beta                 93.633(1)
_cell_angle_gamma                90
_cell_volume                     676.633
loop_
_atom_site_label
_atom_site_type_symbol
_atom_site_fract_x
_atom_site_fract_y
_atom_site_fract_z
Sr1 Sr 0.0000 0.03072(4) 0.2500
S1 S 0.13271(4) -0.41544(8) 0.38150(3)
O1 O 0.23385(14) -0.3157(2) 0.31239(8)
O2 O -0.01399(14) -0.2655(2) 0.38413(8)
O3 O 0.09996(15) -0.6772(2) 0.37015(9)
C1 C 0.2406(2) -0.3848(3) 0.48704(11)
H1 H 0.181(4) -0.475(5) 0.528(2)
H2 H 0.341(4) -0.468(5) 0.480(2)
Sr1B Sr 0.5000 -0.46928(4) 0.2500
Sr1_2 Sr 0.0000 -0.96928(4) 0.2500
Sr1F Sr 0.5000 -0.53072(4) 0.7500
Sr1D Sr 0.0000 -0.03072(4) 0.7500
Sr1F_2 Sr 0.5000 0.46928(4) 0.7500
S1F S 0.36729(4) -0.08456(8) 0.61850(3)
O1F O 0.26615(14) -0.1843(2) 0.68761(8)
O1A O -0.23385(14) -0.3157(2) 0.18761(8)
O1B O -0.26615(14) 0.1843(2) 0.31239(8)
O1C O 0.26615(14) 0.1843(2) 0.18761(8)
O2F O 0.51399(14) -0.2345(2) 0.61587(8)
O2A O 0.01399(14) -0.2655(2) 0.11587(8)
O3F O 0.40004(15) 0.1772(2) 0.62985(9)
O3_2 O 0.09996(15) 0.3228(2) 0.37015(9)
O3A O -0.09996(15) 0.3228(2) 0.12985(9)
C1F C 0.2594(2) -0.1152(3) 0.51296(11)
H1F H 0.319(4) -0.025(5) 0.472(2)
H2F H 0.159(4) -0.032(5) 0.520(2)
loop_
_geom_bond_atom_site_label_1
_geom_bond_atom_site_label_2
_geom_bond_site_symmetry_1
_geom_bond_site_symmetry_2
Sr1 O1 1_555 1_555
S1 O1 1_555 1_555
O1 Sr1B 1_555 1_555
O2 Sr1 1_555 1_555
O3 S1 1_555 1_555
C1 S1 1_555 1_555
H1 C1 1_555 1_555
H2 C1 1_555 1_555
Sr1_2 O3 1_555 1_555
Sr1F O1F 1_555 1_555
Sr1D O1F 1_555 1_555
Sr1F_2 O3F 1_555 1_555
S1F O1F 1_555 1_555
O1A Sr1 1_555 1_555
O1B Sr1 1_555 1_555
O1C Sr1 1_555 1_555
O2F Sr1F 1_555 1_555
O2A Sr1 1_555 1_555
O3F S1F 1_555 1_555
O3_2 Sr1 1_555 1_555
O3A Sr1 1_555 1_555
C1F C1 1_555 1_555
H1F C1F 1_555 1_555
H2F C1F 1_555 1_555
S1 O2 1_555 1_555
S1F O2F 1_555 1_555
S1F C1F 1_555 1_555

#END
