
#######################################################################
#
#                 Cambridge Crystallographic Data Centre
#                                CCDC 
#
#######################################################################
#
# If this CIF has been generated from an entry in the Cambridge 
# Structural Database, then it will include bibliographic, chemical, 
# crystal, experimental, refinement or atomic coordinate data resulting 
# from the CCDC's data processing and validation procedures.
#
#######################################################################

data_GUTZAX
_symmetry_cell_setting           monoclinic
_symmetry_space_group_name_H-M   'C c'
_symmetry_Int_Tables_number      9
_space_group_name_Hall           'C -2yc'
loop_
_symmetry_equiv_pos_site_id
_symmetry_equiv_pos_as_xyz
1 x,y,z
2 x,-y,1/2+z
3 1/2+x,1/2+y,z
4 1/2+x,1/2-y,1/2+z
_cell_length_a                   13.3029(13)
_cell_length_b                   15.8363(16)
_cell_length_c                   8.0520(8)
_cell_angle_alpha                90
_cell_angle_beta                 93.0030(10)
_cell_angle_gamma                90
_cell_volume                     1693.98
loop_
_atom_site_label
_atom_site_type_symbol
_atom_site_fract_x
_atom_site_fract_y
_atom_site_fract_z
Zn1 Zn 0.89167(11) 0.131062(11) 0.1619(2)
C1 C 1.0168(4) 0.1658(4) 0.4419(8)
C2 C 1.0524(5) 0.2281(4) 0.5828(7)
H1 H 1.1166 0.2523 0.5565
H2 H 1.0041 0.2739 0.5880
C3 C 1.1401(4) 0.1463(5) 0.8268(8)
C4 C 1.2397(6) 0.1423(5) 0.7870(10)
H3 H 1.2641 0.1667 0.6921
C5 C 1.3000(5) 0.0975(6) 0.9049(12)
H4 H 1.3682 0.0909 0.8882
C6 C 1.2602(6) 0.0624(6) 1.0478(11)
H5 H 1.3035 0.0319 1.1197
C7 C 1.1651(5) 0.0698(4) 1.0869(8)
H6 H 1.1405 0.0466 1.1829
C8 C 1.1018(5) 0.1178(5) 0.9648(9)
C9 C 0.7691(4) 0.1623(5) -0.1239(7)
C10 C 0.7323(5) 0.2240(5) -0.2542(7)
H7 H 0.6665 0.2446 -0.2271
H8 H 0.7778 0.2719 -0.2536
C11 C 0.6428(5) 0.1497(5) -0.4996(9)
C12 C 0.5389(5) 0.1379(5) -0.4722(10)
H9 H 0.5111 0.1588 -0.3769
C13 C 0.4825(5) 0.0960(6) -0.5867(11)
H10 H 0.4141 0.0900 -0.5712
C14 C 0.5219(5) 0.0604(5) -0.7305(10)
H11 H 0.4802 0.0305 -0.8058
C15 C 0.6257(5) 0.0706(4) -0.7597(8)
H12 H 0.6525 0.0479 -0.8543
C16 C 0.6833(5) 0.1129(5) -0.6498(9)
N1 N 1.0628(4) 0.1870(4) 0.7443(6)
N2 N 0.9782(3) 0.1788(4) 0.8311(6)
N3 N 0.9967(4) 0.1363(3) 0.9673(8)
N4 N 0.7254(3) 0.1870(4) -0.4213(6)
N5 N 0.8070(4) 0.1796(4) -0.5060(6)
N6 N 0.7788(5) 0.1365(4) -0.6424(8)
O1 O 0.9903(4) 0.2003(4) 0.3077(6)
O2 O 0.8936(6) 0.00593(8) 0.1630(10)
H13 H 0.9214 -0.0227 0.0924
H14 H 0.8579 -0.0225 0.2353
O3 O 1.0148(4) 0.0881(4) 0.4749(7)
O4 O 0.7946(3) 0.1986(4) 0.0168(6)
O5 O 0.7696(4) 0.0878(4) -0.1504(7)
Zn1_2 Zn 0.89167(11) 0.131062(11) 1.1619(2)
Zn1_3 Zn 0.89167(11) 0.131062(11) -0.8381(2)
N3_2 N 0.9967(4) 0.1363(3) -0.0327(8)
N6_2 N 0.7788(5) 0.1365(4) 0.3576(8)
loop_
_geom_bond_atom_site_label_1
_geom_bond_atom_site_label_2
_geom_bond_site_symmetry_1
_geom_bond_site_symmetry_2
Zn1 O1 1_555 1_555
C1 C2 1_555 1_555
C2 H1 1_555 1_555
H2 C2 1_555 1_555
C3 C4 1_555 1_555
C4 H3 1_555 1_555
C5 C4 1_555 1_555
H4 C5 1_555 1_555
C6 C5 1_555 1_555
H5 C6 1_555 1_555
C7 C6 1_555 1_555
H6 C7 1_555 1_555
C8 C3 1_555 1_555
C9 C10 1_555 1_555
C10 H7 1_555 1_555
H8 C10 1_555 1_555
C11 C12 1_555 1_555
C12 H9 1_555 1_555
C13 C12 1_555 1_555
H10 C13 1_555 1_555
C14 C13 1_555 1_555
H11 C14 1_555 1_555
C15 C14 1_555 1_555
H12 C15 1_555 1_555
C16 C11 1_555 1_555
N1 C2 1_555 1_555
N2 N1 1_555 1_555
N3 C8 1_555 1_555
N4 C10 1_555 1_555
N5 N4 1_555 1_555
N6 C16 1_555 1_555
O1 C1 1_555 1_555
O2 Zn1 1_555 1_555
H13 O2 1_555 1_555
H14 O2 1_555 1_555
O3 C1 1_555 1_555
O4 Zn1 1_555 1_555
O5 C9 1_555 1_555
Zn1_2 N3 1_555 1_555
Zn1_3 N6 1_555 1_555
N3_2 Zn1 1_555 1_555
N6_2 Zn1 1_555 1_555
C3 N1 1_555 1_555
C7 C8 1_555 1_555
C9 O4 1_555 1_555
C11 N4 1_555 1_555
C15 C16 1_555 1_555
N2 N3 1_555 1_555
N5 N6 1_555 1_555

#END
