
#######################################################################
#
#                 Cambridge Crystallographic Data Centre
#                                CCDC 
#
#######################################################################
#
# If this CIF has been generated from an entry in the Cambridge 
# Structural Database, then it will include bibliographic, chemical, 
# crystal, experimental, refinement or atomic coordinate data resulting 
# from the CCDC's data processing and validation procedures.
#
#######################################################################

data_GUTZAX01
_symmetry_cell_setting           monoclinic
_symmetry_space_group_name_H-M   'C 2/c'
_symmetry_Int_Tables_number      15
_space_group_name_Hall           '-C 2yn'
loop_
_symmetry_equiv_pos_site_id
_symmetry_equiv_pos_as_xyz
1 x,y,z
2 -x,y,1/2-z
3 1/2+x,1/2+y,z
4 1/2-x,1/2+y,1/2-z
5 -x,-y,-z
6 x,-y,1/2+z
7 1/2-x,1/2-y,-z
8 1/2+x,1/2-y,1/2+z
_cell_length_a                   13.3031(18)
_cell_length_b                   15.842(2)
_cell_length_c                   8.0514(11)
_cell_angle_alpha                90
_cell_angle_beta                 93.002(2)
_cell_angle_gamma                90
_cell_volume                     1694.49
loop_
_atom_site_label
_atom_site_type_symbol
_atom_site_fract_x
_atom_site_fract_y
_atom_site_fract_z
Zn1 Zn 0.5000 0.131079(13) 0.7500
O1 O 0.37757(9) 0.08805(7) 0.43695(14)
O2 O 0.5000 0.00594(10) 0.7500
H1 H 0.5318 -0.0248 0.6751
O3 O 0.40217(8) 0.19948(7) 0.60460(12)
N1 N 0.33129(9) 0.18706(8) 0.16738(14)
N2 N 0.41425(9) 0.17909(8) 0.08141(15)
N3 N 0.39139(10) 0.13659(8) -0.05475(16)
C1 C 0.37595(10) 0.16403(10) 0.46654(17)
C2 C 0.33978(12) 0.22637(10) 0.33112(17)
H2 H 0.2747 0.2487 0.3578
H3 H 0.3867 0.2732 0.3288
C3 C 0.25148(11) 0.14828(9) 0.08689(18)
C4 C 0.29075(11) 0.11522(9) -0.05761(18)
C5 C 0.23055(13) 0.06986(10) -0.1741(2)
H4 H 0.2563 0.0469 -0.2692
C6 C 0.13076(13) 0.06129(12) -0.1392(2)
H5 H 0.0882 0.0310 -0.2126
C7 C 0.09094(13) 0.09687(12) 0.0040(3)
H6 H 0.0226 0.0907 0.0199
C8 C 0.14938(13) 0.14031(11) 0.1209(2)
H7 H 0.1232 0.1629 0.2160
H1A H 0.4682 -0.0248 0.8249
O1A O 0.62243(9) 0.08805(7) 0.06305(14)
O3A O 0.59783(8) 0.19948(7) -0.10460(12)
N1A N 0.66871(9) 0.18706(8) 0.33262(14)
N2A N 0.58575(9) 0.17909(8) 0.41859(15)
N3A N 0.60861(10) 0.13659(8) 0.55475(16)
C1A C 0.62405(10) 0.16403(10) 0.03346(17)
C2A C 0.66022(12) 0.22637(10) 0.16888(17)
H2A H 0.7253 0.2487 0.1422
H3A H 0.6133 0.2732 0.1712
C3A C 0.74852(11) 0.14828(9) 0.41311(18)
C4A C 0.70925(11) 0.11522(9) 0.55761(18)
C5A C 0.76945(13) 0.06986(10) 0.6741(2)
H4A H 0.7437 0.0469 0.7692
C6A C 0.86924(13) 0.06129(12) 0.6392(2)
H5A H 0.9118 0.0310 0.7126
C7A C 0.90906(13) 0.09687(12) 0.4960(3)
H6A H 0.9774 0.0907 0.4801
C8A C 0.85062(13) 0.14031(11) 0.3791(2)
H7A H 0.8768 0.1629 0.2840
Zn1_2 Zn 0.5000 0.131079(13) -0.2500
O3A_2 O 0.59783(8) 0.19948(7) 0.89540(12)
N3_2 N 0.39139(10) 0.13659(8) 0.94525(16)
loop_
_geom_bond_atom_site_label_1
_geom_bond_atom_site_label_2
_geom_bond_site_symmetry_1
_geom_bond_site_symmetry_2
Zn1 O2 1_555 1_555
O1 C1 1_555 1_555
O2 H1 1_555 1_555
O3 Zn1 1_555 1_555
N1 N2 1_555 1_555
N2 N3 1_555 1_555
N3 C4 1_555 1_555
C1 O3 1_555 1_555
C2 N1 1_555 1_555
H2 C2 1_555 1_555
H3 C2 1_555 1_555
C3 N1 1_555 1_555
C4 C3 1_555 1_555
C5 C4 1_555 1_555
H4 C5 1_555 1_555
C6 C5 1_555 1_555
H5 C6 1_555 1_555
C7 C6 1_555 1_555
H6 C7 1_555 1_555
C8 C3 1_555 1_555
H7 C8 1_555 1_555
H1A O2 1_555 1_555
O1A C1A 1_555 1_555
O3A C1A 1_555 1_555
N1A N2A 1_555 1_555
N2A N3A 1_555 1_555
N3A Zn1 1_555 1_555
C1A C2A 1_555 1_555
C2A N1A 1_555 1_555
H2A C2A 1_555 1_555
H3A C2A 1_555 1_555
C3A N1A 1_555 1_555
C4A N3A 1_555 1_555
C5A C4A 1_555 1_555
H4A C5A 1_555 1_555
C6A C5A 1_555 1_555
H5A C6A 1_555 1_555
C7A C6A 1_555 1_555
H6A C7A 1_555 1_555
C8A C3A 1_555 1_555
H7A C8A 1_555 1_555
Zn1_2 N3 1_555 1_555
O3A_2 Zn1 1_555 1_555
N3_2 Zn1 1_555 1_555
C1 C2 1_555 1_555
C7 C8 1_555 1_555
O3A Zn1_2 1_555 1_555
C3A C4A 1_555 1_555
C7A C8A 1_555 1_555

#END
