
#######################################################################
#
#                 Cambridge Crystallographic Data Centre
#                                CCDC 
#
#######################################################################
#
# If this CIF has been generated from an entry in the Cambridge 
# Structural Database, then it will include bibliographic, chemical, 
# crystal, experimental, refinement or atomic coordinate data resulting 
# from the CCDC's data processing and validation procedures.
#
#######################################################################

data_GUVBAB
_symmetry_cell_setting           monoclinic
_symmetry_space_group_name_H-M   'C 2/c'
_symmetry_Int_Tables_number      15
_space_group_name_Hall           '-C 2yn'
loop_
_symmetry_equiv_pos_site_id
_symmetry_equiv_pos_as_xyz
1 x,y,z
2 -x,y,1/2-z
3 1/2+x,1/2+y,z
4 1/2-x,1/2+y,1/2-z
5 -x,-y,-z
6 x,-y,1/2+z
7 1/2-x,1/2-y,-z
8 1/2+x,1/2-y,1/2+z
_cell_length_a                   22.372(4)
_cell_length_b                   16.468(3)
_cell_length_c                   26.648(4)
_cell_angle_alpha                90
_cell_angle_beta                 90.112(3)
_cell_angle_gamma                90
_cell_volume                     9817.69
loop_
_atom_site_label
_atom_site_type_symbol
_atom_site_fract_x
_atom_site_fract_y
_atom_site_fract_z
C1 C 0.3484(3) 0.7689(5) 0.0678(3)
C2 C 0.4491(4) 0.7051(6) 0.0949(4)
C3 C 0.4018(4) 0.5726(5) 0.0722(3)
C4 C 0.2935(4) 0.6359(4) 0.0619(3)
C5 C 0.2814(5) 0.7014(6) 0.1506(4)
C6 C 0.3819(5) 0.7653(5) 0.1645(3)
C7 C 0.4175(3) 0.6163(5) 0.1747(3)
C8 C 0.3194(4) 0.5560(5) 0.1418(3)
C9 C 0.2684(4) 0.9304(6) 0.1284(3)
H1 H 0.2878 0.8805 0.1279
C10 C 0.2466(4) 0.9582(7) 0.1730(4)
H2 H 0.2504 0.9263 0.2017
C11 C 0.2192(4) 1.0325(7) 0.1762(4)
C12 C 0.1948(5) 1.0659(7) 0.2250(4)
H3 H 0.1665 1.0282 0.2388
H4 H 0.1753 1.1169 0.2187
H5 H 0.2270 1.0738 0.2483
C13 C 0.2121(4) 1.0743(6) 0.1314(4)
H6 H 0.1926 1.1242 0.1312
C14 C 0.2336(3) 1.0428(5) 0.0872(3)
C15 C 0.2269(3) 1.0858(5) 0.0392(3)
C16 C 0.1907(4) 1.1533(5) 0.0331(4)
H7 H 0.1692 1.1730 0.0603
C17 C 0.1861(4) 1.1922(5) -0.0133(4)
C18 C 0.1458(5) 1.2649(5) -0.0188(4)
H8 H 0.1612 1.2999 -0.0445
H9 H 0.1443 1.2939 0.0124
H10 H 0.1063 1.2472 -0.0278
C19 C 0.2162(5) 1.1584(5) -0.0527(4)
H11 H 0.2130 1.1810 -0.0846
C20 C 0.2517(4) 1.0898(5) -0.0447(3)
H12 H 0.2721 1.0679 -0.0719
C21 C 0.4014(4) 1.0325(6) 0.0908(4)
H13 H 0.3785 1.0071 0.1153
C22 C 0.4444(5) 1.0876(6) 0.1054(5)
H14 H 0.4508 1.0972 0.1394
C23 C 0.5223(5) 1.1929(6) 0.0851(6)
H15 H 0.5556 1.1913 0.0624
H16 H 0.5361 1.1834 0.1187
H17 H 0.5036 1.2453 0.0833
C24 C 0.4778(5) 1.1285(6) 0.0707(6)
C25 C 0.4692(4) 1.1083(5) 0.0207(5)
H18 H 0.4923 1.1320 -0.0043
C26 C 0.4249(4) 1.0512(5) 0.0086(4)
C27 C 0.4131(4) 1.0299(5) -0.0436(5)
C28 C 0.4425(5) 1.0612(7) -0.0849(6)
H19 H 0.4717 1.1004 -0.0795
C29 C 0.4312(6) 1.0381(8) -0.1334(6)
C30 C 0.4661(6) 1.0747(9) -0.1773(5)
H20 H 0.5059 1.0878 -0.1665
H21 H 0.4464 1.1232 -0.1886
H22 H 0.4679 1.0362 -0.2043
C31 C 0.3891(6) 0.9819(7) -0.1410(4)
H23 H 0.3795 0.9653 -0.1734
C32 C 0.3593(4) 0.9481(6) -0.0993(4)
H24 H 0.3313 0.9073 -0.1046
C33 C 0.4450(3) 0.5011(5) 0.3618(3)
H25 H 0.4652 0.5500 0.3656
C34 C 0.4209(4) 0.4651(6) 0.4034(3)
H26 H 0.4250 0.4896 0.4347
C35 C 0.3906(4) 0.3929(6) 0.3989(3)
C36 C 0.3644(4) 0.3513(6) 0.4444(3)
H27 H 0.3961 0.3319 0.4655
H28 H 0.3401 0.3064 0.4338
H29 H 0.3403 0.3892 0.4628
C37 C 0.3851(3) 0.3605(5) 0.3512(3)
H30 H 0.3641 0.3123 0.3468
C38 C 0.4102(3) 0.3985(5) 0.3102(3)
C39 C 0.4321(4) 0.3764(5) 0.1770(3)
H31 H 0.4542 0.4029 0.1524
C40 C 0.3962(4) 0.3121(5) 0.1624(3)
H32 H 0.3951 0.2952 0.1291
C41 C 0.3625(4) 0.2739(5) 0.1982(4)
C42 C 0.3220(5) 0.2030(6) 0.1856(4)
H33 H 0.3291 0.1860 0.1517
H34 H 0.2811 0.2193 0.1892
H35 H 0.3303 0.1587 0.2080
C43 C 0.3670(4) 0.3033(5) 0.2465(4)
H36 H 0.3443 0.2794 0.2717
C44 C 0.4038(3) 0.3662(4) 0.2585(3)
Mn1 Mn 0.31126(5) 0.94147(7) 0.01346(4)
Mn2 Mn 0.5000 0.50219(9) 0.2500
N1 N 0.3408(3) 0.8248(4) 0.0441(3)
N2 N 0.4951(4) 0.7282(6) 0.0837(4)
N3 N 0.4239(4) 0.5203(6) 0.0500(3)
N4 N 0.2555(3) 0.6206(4) 0.0350(2)
N5 N 0.2358(4) 0.7214(5) 0.1698(3)
N6 N 0.3913(4) 0.8227(5) 0.1881(4)
N7 N 0.4480(3) 0.5885(4) 0.2051(2)
N8 N 0.2961(4) 0.4977(5) 0.1546(3)
N9 N 0.2630(3) 0.9715(4) 0.0856(2)
N10 N 0.2577(3) 1.0539(4) 0.0003(3)
N11 N 0.3915(3) 1.0144(4) 0.0421(3)
N12 N 0.3702(3) 0.9733(4) -0.0522(3)
N13 N 0.4406(3) 0.4683(4) 0.3153(2)
N14 N 0.4368(2) 0.4024(3) 0.2236(2)
W1 W 0.361620(14) 0.665654(18) 0.116468(12)
C1A C 0.6516(3) 0.7689(5) 0.4322(3)
C2A C 0.5509(4) 0.7051(6) 0.4051(4)
C3A C 0.5982(4) 0.5726(5) 0.4278(3)
C4A C 0.7065(4) 0.6359(4) 0.4381(3)
C5A C 0.7186(5) 0.7014(6) 0.3494(4)
C6A C 0.6181(5) 0.7653(5) 0.3355(3)
C7A C 0.5825(3) 0.6163(5) 0.3253(3)
C8A C 0.6806(4) 0.5560(5) 0.3582(3)
C9A C 0.7316(4) 0.9304(6) 0.3716(3)
H1A H 0.7122 0.8805 0.3721
C10A C 0.7534(4) 0.9582(7) 0.3270(4)
H2A H 0.7496 0.9263 0.2983
C11A C 0.7808(4) 1.0325(7) 0.3238(4)
C12A C 0.8052(5) 1.0659(7) 0.2750(4)
H3A H 0.8335 1.0282 0.2612
H4A H 0.8247 1.1169 0.2813
H5A H 0.7730 1.0738 0.2517
C13A C 0.7879(4) 1.0743(6) 0.3686(4)
H6A H 0.8074 1.1242 0.3688
C14A C 0.7664(3) 1.0428(5) 0.4128(3)
C15A C 0.7731(3) 1.0858(5) 0.4608(3)
C16A C 0.8093(4) 1.1533(5) 0.4669(4)
H7A H 0.8308 1.1730 0.4397
C17A C 0.8139(4) 1.1922(5) 0.5133(4)
C18A C 0.8542(5) 1.2649(5) 0.5188(4)
H8A H 0.8388 1.2999 0.5445
H9A H 0.8557 1.2939 0.4876
H10A H 0.8937 1.2472 0.5278
C19A C 0.7838(5) 1.1584(5) 0.5527(4)
H11A H 0.7870 1.1810 0.5846
C20A C 0.7483(4) 1.0898(5) 0.5447(3)
H12A H 0.7279 1.0679 0.5719
C21A C 0.5986(4) 1.0325(6) 0.4092(4)
H13A H 0.6215 1.0071 0.3847
C22A C 0.5556(5) 1.0876(6) 0.3946(5)
H14A H 0.5492 1.0972 0.3606
C23A C 0.4777(5) 1.1929(6) 0.4149(6)
H15A H 0.4444 1.1913 0.4376
H16A H 0.4639 1.1834 0.3813
H17A H 0.4964 1.2453 0.4167
C24A C 0.5222(5) 1.1285(6) 0.4293(6)
C25A C 0.5308(4) 1.1083(5) 0.4793(5)
H18A H 0.5077 1.1320 0.5043
C26A C 0.5751(4) 1.0512(5) 0.4914(4)
C27A C 0.5869(4) 1.0299(5) 0.5436(5)
C28A C 0.5575(5) 1.0612(7) 0.5849(6)
H19A H 0.5283 1.1004 0.5795
C29A C 0.5688(6) 1.0381(8) 0.6334(6)
C30A C 0.5339(6) 1.0747(9) 0.6773(5)
H20A H 0.4941 1.0878 0.6665
H21A H 0.5536 1.1232 0.6886
H22A H 0.5321 1.0362 0.7043
C31A C 0.6109(6) 0.9819(7) 0.6410(4)
H23A H 0.6205 0.9653 0.6734
C32A C 0.6407(4) 0.9481(6) 0.5993(4)
H24A H 0.6687 0.9073 0.6046
C33A C 0.5550(3) 0.5011(5) 0.1382(3)
H25A H 0.5348 0.5500 0.1344
C34A C 0.5791(4) 0.4651(6) 0.0966(3)
H26A H 0.5750 0.4896 0.0653
C35A C 0.6094(4) 0.3929(6) 0.1011(3)
C36A C 0.6356(4) 0.3513(6) 0.0556(3)
H27A H 0.6039 0.3319 0.0345
H28A H 0.6599 0.3064 0.0662
H29A H 0.6597 0.3892 0.0372
C37A C 0.6149(3) 0.3605(5) 0.1488(3)
H30A H 0.6359 0.3123 0.1532
C38A C 0.5898(3) 0.3985(5) 0.1898(3)
C39A C 0.5679(4) 0.3764(5) 0.3230(3)
H31A H 0.5458 0.4029 0.3476
C40A C 0.6038(4) 0.3121(5) 0.3376(3)
H32A H 0.6049 0.2952 0.3709
C41A C 0.6375(4) 0.2739(5) 0.3018(4)
C42A C 0.6780(5) 0.2030(6) 0.3144(4)
H33A H 0.6709 0.1860 0.3483
H34A H 0.7189 0.2193 0.3108
H35A H 0.6697 0.1587 0.2920
C43A C 0.6330(4) 0.3033(5) 0.2535(4)
H36A H 0.6557 0.2794 0.2283
C44A C 0.5962(3) 0.3662(4) 0.2415(3)
Mn1A Mn 0.68874(5) 0.94147(7) 0.48654(4)
Mn1F Mn 0.18874(5) 0.55853(7) -0.01346(4)
Mn1G Mn 0.81126(5) 0.55853(7) 0.51346(4)
N1A N 0.6592(3) 0.8248(4) 0.4559(3)
N2A N 0.5049(4) 0.7282(6) 0.4163(4)
N3A N 0.5761(4) 0.5203(6) 0.4500(3)
N4A N 0.7445(3) 0.6206(4) 0.4650(2)
N4F N 0.2445(3) 0.8794(4) -0.0350(2)
N4G N 0.7555(3) 0.8794(4) 0.5350(2)
N5A N 0.7642(4) 0.7214(5) 0.3302(3)
N6A N 0.6087(4) 0.8227(5) 0.3119(4)
N7A N 0.5520(3) 0.5885(4) 0.2949(2)
N8A N 0.7039(4) 0.4977(5) 0.3454(3)
N9A N 0.7370(3) 0.9715(4) 0.4144(2)
N10A N 0.7423(3) 1.0539(4) 0.4997(3)
N11A N 0.6085(3) 1.0144(4) 0.4579(3)
N12A N 0.6298(3) 0.9733(4) 0.5522(3)
N13A N 0.5594(3) 0.4683(4) 0.1847(2)
N14A N 0.5632(2) 0.4024(3) 0.2764(2)
W1A W 0.638380(14) 0.665654(18) 0.383532(12)
O1 O 0.4665(4) 0.3594(4) 0.0260(4)
H37 H 0.4955 0.3720 0.0070
H38 H 0.4556 0.4014 0.0421
O2 O 0.3863(6) 0.9955(7) 0.2228(5)
H39 H 0.3870 0.9444 0.2181
H40 H 0.4176 1.0185 0.2116
O3 O 0.6066(6) 0.7313(8) 0.1488(8)
H41 H 0.5773 0.7244 0.1290
H42 H 0.6222 0.7781 0.1452
O4 O 0.2038(5) 0.3728(10) 0.1970(5)
H43 H 0.2260 0.4017 0.1783
H44 H 0.1822 0.4009 0.2167
O5 O 0.5000 0.1228(19) 0.2500
H45 H 0.4847 0.1525 0.2727
H45A H 0.5153 0.1525 0.2273
loop_
_geom_bond_atom_site_label_1
_geom_bond_atom_site_label_2
_geom_bond_site_symmetry_1
_geom_bond_site_symmetry_2
C1 N1 1_555 1_555
C2 N2 1_555 1_555
C3 N3 1_555 1_555
C4 N4 1_555 1_555
C5 N5 1_555 1_555
C6 N6 1_555 1_555
C7 N7 1_555 1_555
C8 N8 1_555 1_555
C9 H1 1_555 1_555
C10 C9 1_555 1_555
H2 C10 1_555 1_555
C11 C10 1_555 1_555
C12 C11 1_555 1_555
H3 C12 1_555 1_555
H4 C12 1_555 1_555
H5 C12 1_555 1_555
C13 C11 1_555 1_555
H6 C13 1_555 1_555
C14 C13 1_555 1_555
C15 C14 1_555 1_555
C16 C15 1_555 1_555
H7 C16 1_555 1_555
C17 C16 1_555 1_555
C18 C17 1_555 1_555
H8 C18 1_555 1_555
H9 C18 1_555 1_555
H10 C18 1_555 1_555
C19 C17 1_555 1_555
H11 C19 1_555 1_555
C20 C19 1_555 1_555
H12 C20 1_555 1_555
C21 H13 1_555 1_555
C22 C21 1_555 1_555
H14 C22 1_555 1_555
C23 H15 1_555 1_555
H16 C23 1_555 1_555
H17 C23 1_555 1_555
C24 C22 1_555 1_555
C25 C24 1_555 1_555
H18 C25 1_555 1_555
C26 C25 1_555 1_555
C27 C26 1_555 1_555
C28 C27 1_555 1_555
H19 C28 1_555 1_555
C29 C28 1_555 1_555
C30 C29 1_555 1_555
H20 C30 1_555 1_555
H21 C30 1_555 1_555
H22 C30 1_555 1_555
C31 C29 1_555 1_555
H23 C31 1_555 1_555
C32 C31 1_555 1_555
H24 C32 1_555 1_555
C33 H25 1_555 1_555
C34 C33 1_555 1_555
H26 C34 1_555 1_555
C35 C34 1_555 1_555
C36 C35 1_555 1_555
H27 C36 1_555 1_555
H28 C36 1_555 1_555
H29 C36 1_555 1_555
C37 C35 1_555 1_555
H30 C37 1_555 1_555
C38 C37 1_555 1_555
C39 H31 1_555 1_555
C40 C39 1_555 1_555
H32 C40 1_555 1_555
C41 C40 1_555 1_555
C42 C41 1_555 1_555
H33 C42 1_555 1_555
H34 C42 1_555 1_555
H35 C42 1_555 1_555
C43 C41 1_555 1_555
H36 C43 1_555 1_555
C44 C38 1_555 1_555
Mn1 N1 1_555 1_555
Mn2 N7 1_555 1_555
N4 Mn1F 1_555 1_555
N9 C9 1_555 1_555
N10 C15 1_555 1_555
N11 C21 1_555 1_555
N12 C27 1_555 1_555
N13 C33 1_555 1_555
N14 C39 1_555 1_555
W1 C1 1_555 1_555
O1 H37 1_555 1_555
H38 O1 1_555 1_555
O2 H39 1_555 1_555
H40 O2 1_555 1_555
O3 H41 1_555 1_555
H42 O3 1_555 1_555
O4 H43 1_555 1_555
H44 O4 1_555 1_555
O5 H45 1_555 1_555
C1A N1A 1_555 1_555
C2A N2A 1_555 1_555
C3A N3A 1_555 1_555
C4A N4A 1_555 1_555
C5A N5A 1_555 1_555
C6A N6A 1_555 1_555
C7A N7A 1_555 1_555
C8A N8A 1_555 1_555
C9A H1A 1_555 1_555
C10A C9A 1_555 1_555
H2A C10A 1_555 1_555
C11A C10A 1_555 1_555
C12A C11A 1_555 1_555
H3A C12A 1_555 1_555
H4A C12A 1_555 1_555
H5A C12A 1_555 1_555
C13A C11A 1_555 1_555
H6A C13A 1_555 1_555
C14A C13A 1_555 1_555
C15A C14A 1_555 1_555
C16A C15A 1_555 1_555
H7A C16A 1_555 1_555
C17A C16A 1_555 1_555
C18A C17A 1_555 1_555
H8A C18A 1_555 1_555
H9A C18A 1_555 1_555
H10A C18A 1_555 1_555
C19A C17A 1_555 1_555
H11A C19A 1_555 1_555
C20A C19A 1_555 1_555
H12A C20A 1_555 1_555
C21A H13A 1_555 1_555
C22A C21A 1_555 1_555
H14A C22A 1_555 1_555
C23A H15A 1_555 1_555
H16A C23A 1_555 1_555
H17A C23A 1_555 1_555
C24A C22A 1_555 1_555
C25A C24A 1_555 1_555
H18A C25A 1_555 1_555
C26A C25A 1_555 1_555
C27A C26A 1_555 1_555
C28A C27A 1_555 1_555
H19A C28A 1_555 1_555
C29A C28A 1_555 1_555
C30A C29A 1_555 1_555
H20A C30A 1_555 1_555
H21A C30A 1_555 1_555
H22A C30A 1_555 1_555
C31A C29A 1_555 1_555
H23A C31A 1_555 1_555
C32A C31A 1_555 1_555
H24A C32A 1_555 1_555
C33A H25A 1_555 1_555
C34A C33A 1_555 1_555
H26A C34A 1_555 1_555
C35A C34A 1_555 1_555
C36A C35A 1_555 1_555
H27A C36A 1_555 1_555
H28A C36A 1_555 1_555
H29A C36A 1_555 1_555
C37A C35A 1_555 1_555
H30A C37A 1_555 1_555
C38A C37A 1_555 1_555
C39A H31A 1_555 1_555
C40A C39A 1_555 1_555
H32A C40A 1_555 1_555
C41A C40A 1_555 1_555
C42A C41A 1_555 1_555
H33A C42A 1_555 1_555
H34A C42A 1_555 1_555
H35A C42A 1_555 1_555
C43A C41A 1_555 1_555
H36A C43A 1_555 1_555
C44A C38A 1_555 1_555
Mn1A N1A 1_555 1_555
Mn1G N4A 1_555 1_555
N4F Mn1 1_555 1_555
N4G Mn1A 1_555 1_555
N7A Mn2 1_555 1_555
N9A C9A 1_555 1_555
N10A C15A 1_555 1_555
N11A C21A 1_555 1_555
N12A C27A 1_555 1_555
N13A Mn2 1_555 1_555
N14A Mn2 1_555 1_555
W1A C1A 1_555 1_555
H45A O5 1_555 1_555
C2 W1 1_555 1_555
C3 W1 1_555 1_555
C4 W1 1_555 1_555
C5 W1 1_555 1_555
C6 W1 1_555 1_555
C7 W1 1_555 1_555
C8 W1 1_555 1_555
C14 N9 1_555 1_555
C20 N10 1_555 1_555
C23 C24 1_555 1_555
C26 N11 1_555 1_555
C32 N12 1_555 1_555
C38 N13 1_555 1_555
C43 C44 1_555 1_555
C44 N14 1_555 1_555
Mn1 N9 1_555 1_555
Mn1 N10 1_555 1_555
Mn1 N11 1_555 1_555
Mn1 N12 1_555 1_555
Mn2 N13 1_555 1_555
Mn2 N14 1_555 1_555
C2A W1A 1_555 1_555
C3A W1A 1_555 1_555
C4A W1A 1_555 1_555
C5A W1A 1_555 1_555
C6A W1A 1_555 1_555
C7A W1A 1_555 1_555
C8A W1A 1_555 1_555
C14A N9A 1_555 1_555
C20A N10A 1_555 1_555
C23A C24A 1_555 1_555
C26A N11A 1_555 1_555
C32A N12A 1_555 1_555
C33A N13A 1_555 1_555
C38A N13A 1_555 1_555
C39A N14A 1_555 1_555
C43A C44A 1_555 1_555
C44A N14A 1_555 1_555
Mn1A N9A 1_555 1_555
Mn1A N10A 1_555 1_555
Mn1A N11A 1_555 1_555
Mn1A N12A 1_555 1_555

#END
