
#######################################################################
#
#                 Cambridge Crystallographic Data Centre
#                                CCDC 
#
#######################################################################
#
# If this CIF has been generated from an entry in the Cambridge 
# Structural Database, then it will include bibliographic, chemical, 
# crystal, experimental, refinement or atomic coordinate data resulting 
# from the CCDC's data processing and validation procedures.
#
#######################################################################

data_GUVBOP
_symmetry_cell_setting           triclinic
_symmetry_space_group_name_H-M   'P -1'
_symmetry_Int_Tables_number      2
_space_group_name_Hall           '-P 1'
loop_
_symmetry_equiv_pos_site_id
_symmetry_equiv_pos_as_xyz
1 x,y,z
2 -x,-y,-z
_cell_length_a                   7.295(4)
_cell_length_b                   10.358(5)
_cell_length_c                   10.726(7)
_cell_angle_alpha                79.959(9)
_cell_angle_beta                 70.123(7)
_cell_angle_gamma                88.119(7)
_cell_volume                     750.209
loop_
_atom_site_label
_atom_site_type_symbol
_atom_site_fract_x
_atom_site_fract_y
_atom_site_fract_z
Zn1 Zn 0.45490(14) 0.32544(9) 0.67470(10)
V1 V 0.43633(19) 0.56273(12) 0.87789(13)
V2 V 0.08492(19) 0.40584(12) 1.08911(13)
V3 V 0.8682(2) 0.45791(13) 0.39978(14)
O1 O 0.6760(9) 0.3686(6) 0.4949(6)
O2 O 0.2012(9) 0.4059(5) 0.6766(6)
O3 O 1.0000 0.5000 0.5000
O4 O 0.5075(9) 0.4911(6) 0.7433(6)
O5 O 0.1543(8) 0.5365(6) 0.9202(5)
O6 O 0.3346(8) 0.4668(5) 1.0666(5)
O7 O 0.1136(9) 0.2672(6) 1.0423(6)
O8 O 1.0097(8) 0.3697(6) 0.2705(6)
O9 O 0.4512(9) 0.7215(5) 0.8329(6)
N1 N 0.4117(11) 0.0074(7) 0.7833(7)
H1 H 0.3528 -0.0593 0.8417
N2 N 0.5906(11) 0.1953(6) 0.7805(7)
N3 N 0.3563(10) 0.1668(7) 0.6177(7)
C1 C 0.2681(13) -0.0584(8) 0.6343(9)
H2 H 0.2537 -0.1441 0.6809
C2 C 0.2142(14) -0.0253(9) 0.5221(10)
H3 H 0.1675 -0.0898 0.4893
C3 C 0.2292(13) 0.1034(9) 0.4580(10)
H4 H 0.1909 0.1268 0.3829
C4 C 0.3013(13) 0.1960(8) 0.5069(9)
H5 H 0.3134 0.2826 0.4626
C5 C 0.3469(12) 0.0432(8) 0.6768(8)
C6 C 0.5635(12) 0.0669(7) 0.8082(8)
C7 C 0.6810(14) -0.0170(8) 0.8639(9)
H6 H 0.6565 -0.1071 0.8853
C8 C 0.8329(13) 0.0379(8) 0.8858(9)
H7 H 0.9141 -0.0159 0.9215
C9 C 0.8677(15) 0.1732(9) 0.8554(10)
H8 H 0.9709 0.2115 0.8696
C10 C 0.7432(14) 0.2468(9) 0.8039(9)
H9 H 0.7635 0.3373 0.7834
Zn1A Zn 0.54510(14) 0.67456(9) 0.32530(10)
V1A V 0.56367(19) 0.43727(12) 1.12211(13)
V1A_2 V -0.43633(19) 0.43727(12) 1.12211(13)
V1A_3 V 0.56367(19) 0.43727(12) 0.12211(13)
V2A V -0.08492(19) 0.59416(12) 0.91089(13)
V2_2 V 1.08492(19) 0.40584(12) 0.08911(13)
V2A_2 V 0.91508(19) 0.59416(12) 0.91089(13)
V3A V 0.1318(2) 0.54209(13) 0.60022(14)
V3A_2 V 1.1318(2) 0.54209(13) 0.60022(14)
O1A O 0.3240(9) 0.6314(6) 0.5051(6)
O2A O 0.7988(9) 0.5941(5) 0.3234(6)
O3_2 O 0.0000 0.5000 0.5000
O4A O 0.4925(9) 0.5089(6) 0.2567(6)
O4A_2 O 0.4925(9) 0.5089(6) 1.2567(6)
O5A O -0.1543(8) 0.4635(6) 1.0798(5)
O5A_2 O 0.8457(8) 0.4635(6) 1.0798(5)
O6A O 0.6654(8) 0.5332(5) 0.9334(5)
O6A_2 O -0.3346(8) 0.5332(5) 0.9334(5)
O7A O -0.1136(9) 0.7328(6) 0.9577(6)
O8A O -0.0097(8) 0.6303(6) 0.7295(6)
O8_2 O 0.0097(8) 0.3697(6) 1.2705(6)
O9A O 0.5488(9) 0.2785(5) 1.1671(6)
N1A N 0.5883(11) 0.9926(7) 0.2167(7)
H1A H 0.6472 1.0593 0.1583
N2A N 0.4094(11) 0.8047(6) 0.2195(7)
N3A N 0.6437(10) 0.8332(7) 0.3823(7)
C1A C 0.7319(13) 1.0584(8) 0.3657(9)
H2A H 0.7463 1.1441 0.3191
C2A C 0.7858(14) 1.0253(9) 0.4779(10)
H3A H 0.8325 1.0898 0.5107
C3A C 0.7708(13) 0.8966(9) 0.5420(10)
H4A H 0.8091 0.8732 0.6171
C4A C 0.6987(13) 0.8040(8) 0.4931(9)
H5A H 0.6866 0.7174 0.5374
C5A C 0.6531(12) 0.9568(8) 0.3232(8)
C6A C 0.4365(12) 0.9331(7) 0.1918(8)
C7A C 0.3190(14) 1.0170(8) 0.1361(9)
H6A H 0.3435 1.1071 0.1147
C8A C 0.1671(13) 0.9621(8) 0.1142(9)
H7A H 0.0859 1.0159 0.0785
C9A C 0.1323(15) 0.8268(9) 0.1446(10)
H8A H 0.0291 0.7885 0.1304
C10A C 0.2568(14) 0.7532(9) 0.1961(9)
H9A H 0.2365 0.6627 0.2166
loop_
_geom_bond_atom_site_label_1
_geom_bond_atom_site_label_2
_geom_bond_site_symmetry_1
_geom_bond_site_symmetry_2
Zn1 O1 1_555 1_555
V1 O4 1_555 1_555
V2 O5 1_555 1_555
V3 O1 1_555 1_555
O2 Zn1 1_555 1_555
O3 V3 1_555 1_555
O4 Zn1 1_555 1_555
O5 V1 1_555 1_555
O6 V1 1_555 1_555
O7 V2 1_555 1_555
O8 V3 1_555 1_555
O9 V1 1_555 1_555
N1 H1 1_555 1_555
N2 Zn1 1_555 1_555
N3 Zn1 1_555 1_555
C1 H2 1_555 1_555
C2 C1 1_555 1_555
H3 C2 1_555 1_555
C3 C2 1_555 1_555
H4 C3 1_555 1_555
C4 N3 1_555 1_555
H5 C4 1_555 1_555
C5 N1 1_555 1_555
C6 N1 1_555 1_555
C7 C6 1_555 1_555
H6 C7 1_555 1_555
C8 C7 1_555 1_555
H7 C8 1_555 1_555
C9 C8 1_555 1_555
H8 C9 1_555 1_555
C10 N2 1_555 1_555
H9 C10 1_555 1_555
Zn1A O1A 1_555 1_555
V1A O6 1_555 1_555
V1A_2 O5A 1_555 1_555
V1A_3 O4A 1_555 1_555
V2A O5 1_555 1_555
V2_2 O8 1_555 1_555
V2A_2 O5A_2 1_555 1_555
V3A O2 1_555 1_555
V3A_2 O3 1_555 1_555
O1A V3A 1_555 1_555
O2A V3 1_555 1_555
O3_2 V3A 1_555 1_555
O4A Zn1A 1_555 1_555
O4A_2 V1A 1_555 1_555
O5A V2 1_555 1_555
O5A_2 V1A 1_555 1_555
O6A V1 1_555 1_555
O6A_2 V1A_2 1_555 1_555
O7A V2A 1_555 1_555
O8A V2A 1_555 1_555
O8_2 V2 1_555 1_555
O9A V1A 1_555 1_555
N1A H1A 1_555 1_555
N2A Zn1A 1_555 1_555
N3A Zn1A 1_555 1_555
C1A H2A 1_555 1_555
C2A C1A 1_555 1_555
H3A C2A 1_555 1_555
C3A C2A 1_555 1_555
H4A C3A 1_555 1_555
C4A N3A 1_555 1_555
H5A C4A 1_555 1_555
C5A N1A 1_555 1_555
C6A N1A 1_555 1_555
C7A C6A 1_555 1_555
H6A C7A 1_555 1_555
C8A C7A 1_555 1_555
H7A C8A 1_555 1_555
C9A C8A 1_555 1_555
H8A C9A 1_555 1_555
C10A N2A 1_555 1_555
H9A C10A 1_555 1_555
V2 O6 1_555 1_555
N2 C6 1_555 1_555
N3 C5 1_555 1_555
C1 C5 1_555 1_555
C3 C4 1_555 1_555
C9 C10 1_555 1_555
Zn1A O2A 1_555 1_555
V1A O6A 1_555 1_555
V2A O5A 1_555 1_555
V2A O6A_2 1_555 1_555
V2A_2 O6A 1_555 1_555
V3A O8A 1_555 1_555
N2A C6A 1_555 1_555
N3A C5A 1_555 1_555
C1A C5A 1_555 1_555
C3A C4A 1_555 1_555
C9A C10A 1_555 1_555

#END
