
#######################################################################
#
#                 Cambridge Crystallographic Data Centre
#                                CCDC 
#
#######################################################################
#
# If this CIF has been generated from an entry in the Cambridge 
# Structural Database, then it will include bibliographic, chemical, 
# crystal, experimental, refinement or atomic coordinate data resulting 
# from the CCDC's data processing and validation procedures.
#
#######################################################################

data_GUVCIL
_symmetry_cell_setting           triclinic
_symmetry_space_group_name_H-M   'P -1'
_symmetry_Int_Tables_number      2
_space_group_name_Hall           '-P 1'
loop_
_symmetry_equiv_pos_site_id
_symmetry_equiv_pos_as_xyz
1 x,y,z
2 -x,-y,-z
_cell_length_a                   9.524(5)
_cell_length_b                   9.749(5)
_cell_length_c                   11.802(5)
_cell_angle_alpha                94.673(5)
_cell_angle_beta                 112.079(5)
_cell_angle_gamma                98.544(5)
_cell_volume                     992.843
loop_
_atom_site_label
_atom_site_type_symbol
_atom_site_fract_x
_atom_site_fract_y
_atom_site_fract_z
Co1 Co 0.5000 0.5000 1.0000
O1 O 0.47418(13) 0.70408(10) 0.97208(10)
N1 N 0.38360(12) 0.43709(11) 0.79913(10)
N2 N 0.28870(12) 0.46123(11) 0.03920(10)
C1 C 0.27558(16) 0.32095(15) 0.74655(13)
H1 H 0.2491 0.2640 0.7978
C2 C 0.20106(18) 0.28094(16) 0.61992(13)
H2 H 0.1269 0.1988 0.5883
C3 C 0.23629(16) 0.36240(14) 0.54032(12)
C4 C 0.34987(19) 0.48166(15) 0.59487(13)
H3 H 0.3794 0.5396 0.5456
C5 C 0.41932(17) 0.51491(14) 0.72170(13)
H4 H 0.4951 0.5958 0.7555
C6 C 0.15391(18) 0.32711(16) 0.40204(12)
H5 H 0.0994 0.2303 0.3806
H6 H 0.2291 0.3366 0.3647
C7 C 0.03925(16) 0.42263(16) 0.35028(12)
H7 H 0.0934 0.5196 0.3746
H8 H -0.0378 0.4106 0.3857
C8 C -0.04154(15) 0.39190(17) 0.20918(12)
H9 H -0.0963 0.2952 0.1849
H10 H -0.1170 0.4516 0.1814
C9 C 0.06976(13) 0.41591(14) 0.14666(11)
C10 C 0.09601(15) 0.30726(14) 0.07853(12)
H11 H 0.0406 0.2167 0.0671
C11 C 0.20484(15) 0.33374(14) 0.02745(12)
H12 H 0.2206 0.2589 -0.0175
C12 C 0.25958(15) 0.56692(14) 0.10260(13)
H13 H 0.3134 0.6572 0.1100
C13 C 0.15462(15) 0.54884(14) 0.15705(13)
H14 H 0.1404 0.6255 0.2009
H15 H 0.467(2) 0.762(2) 1.018(2)
H16 H 0.492(2) 0.745(2) 0.919(2)
N1A N 0.61640(12) 0.56291(11) 0.20087(10)
N2A N 0.71130(12) 0.53877(11) 0.96080(10)
C1A C 0.72442(16) 0.67905(15) 0.25345(13)
H1A H 0.7509 0.7360 0.2022
C2A C 0.79894(18) 0.71906(16) 0.38008(13)
H2A H 0.8731 0.8012 0.4117
C3A C 0.76371(16) 0.63760(14) 0.45968(12)
C4A C 0.65013(19) 0.51834(15) 0.40513(13)
H3A H 0.6206 0.4604 0.4544
C5A C 0.58068(17) 0.48509(14) 0.27830(13)
H4A H 0.5049 0.4042 0.2445
C6A C 0.84609(18) 0.67289(16) 0.59796(12)
H5A H 0.9006 0.7697 0.6194
H6A H 0.7709 0.6634 0.6353
C7A C 0.96075(16) 0.57737(16) 0.64972(12)
H7A H 0.9066 0.4804 0.6254
H8A H 1.0378 0.5894 0.6143
C8A C 1.04154(15) 0.60810(17) 0.79082(12)
H9A H 1.0963 0.7048 0.8151
H10A H 1.1170 0.5484 0.8186
C9A C 0.93024(13) 0.58409(14) 0.85334(11)
C10A C 0.90399(15) 0.69274(14) 0.92147(12)
H11A H 0.9594 0.7833 0.9329
C11A C 0.79516(15) 0.66626(14) 0.97255(12)
H12A H 0.7794 0.7411 1.0175
C12A C 0.74042(15) 0.43308(14) 0.89740(13)
H13A H 0.6866 0.3428 0.8900
C13A C 0.84538(15) 0.45116(14) 0.84295(13)
H14A H 0.8596 0.3745 0.7991
O1A O 0.52582(13) 0.29592(10) 1.02792(10)
H15A H 0.533(2) 0.238(2) 0.982(2)
H16A H 0.508(2) 0.255(2) 1.081(2)
Co1_2 Co 0.5000 0.5000 0.0000
N1A_2 N 0.61640(12) 0.56291(11) 1.20087(10)
N2_2 N 0.28870(12) 0.46123(11) 1.03920(10)
S1 S 0.62633(4) 0.00479(3) 0.85044(3)
O2 O 0.76963(16) 0.02648(16) 0.95782(12)
O3 O 0.55461(14) -0.14311(10) 0.80981(11)
O4 O 0.51511(15) 0.08620(12) 0.86457(12)
N3 N 0.7544(2) 0.17596(19) 0.42285(16)
C14 C 0.72735(18) 0.13938(15) 0.52486(14)
C15 C 0.59934(18) 0.17121(15) 0.54387(14)
H17 H 0.5328 0.2182 0.4883
C16 C 0.57028(17) 0.13358(14) 0.64459(14)
H18 H 0.4838 0.1544 0.6558
C17 C 0.66974(16) 0.06491(13) 0.72895(13)
C18 C 0.80013(18) 0.03650(17) 0.71297(16)
H19 H 0.8687 -0.0073 0.7704
C19 C 0.82815(19) 0.07321(18) 0.61180(17)
H20 H 0.9156 0.0535 0.6015
H21 H 0.672(3) 0.189(3) 0.362(2)
H22 H 0.812(3) 0.129(3) 0.401(2)
O5 O 0.8112(2) 0.01199(18) 0.20980(16)
H23 H 0.717(3) -0.015(3) 0.194(2)
H24 H 0.815(3) 0.018(3) 0.143(3)
loop_
_geom_bond_atom_site_label_1
_geom_bond_atom_site_label_2
_geom_bond_site_symmetry_1
_geom_bond_site_symmetry_2
Co1 O1 1_555 1_555
O1 H15 1_555 1_555
N1 Co1 1_555 1_555
N2 C11 1_555 1_555
C1 N1 1_555 1_555
H1 C1 1_555 1_555
C2 C1 1_555 1_555
H2 C2 1_555 1_555
C3 C2 1_555 1_555
C4 C3 1_555 1_555
H3 C4 1_555 1_555
C5 N1 1_555 1_555
H4 C5 1_555 1_555
C6 C3 1_555 1_555
H5 C6 1_555 1_555
H6 C6 1_555 1_555
C7 C6 1_555 1_555
H7 C7 1_555 1_555
H8 C7 1_555 1_555
C8 C7 1_555 1_555
H9 C8 1_555 1_555
H10 C8 1_555 1_555
C9 C8 1_555 1_555
C10 C9 1_555 1_555
H11 C10 1_555 1_555
C11 C10 1_555 1_555
H12 C11 1_555 1_555
C12 N2 1_555 1_555
H13 C12 1_555 1_555
C13 C9 1_555 1_555
H14 C13 1_555 1_555
H16 O1 1_555 1_555
S1 O2 1_555 1_555
O3 S1 1_555 1_555
O4 S1 1_555 1_555
N3 C14 1_555 1_555
C14 C15 1_555 1_555
C15 H17 1_555 1_555
C16 C15 1_555 1_555
H18 C16 1_555 1_555
C17 S1 1_555 1_555
C18 C17 1_555 1_555
H19 C18 1_555 1_555
C19 C14 1_555 1_555
H20 C19 1_555 1_555
H21 N3 1_555 1_555
H22 N3 1_555 1_555
O5 H23 1_555 1_555
H24 O5 1_555 1_555
N1A C1A 1_555 1_555
N2A Co1 1_555 1_555
C1A H1A 1_555 1_555
C2A C1A 1_555 1_555
H2A C2A 1_555 1_555
C3A C2A 1_555 1_555
C4A C3A 1_555 1_555
H3A C4A 1_555 1_555
C5A N1A 1_555 1_555
H4A C5A 1_555 1_555
C6A C3A 1_555 1_555
H5A C6A 1_555 1_555
H6A C6A 1_555 1_555
C7A C6A 1_555 1_555
H7A C7A 1_555 1_555
H8A C7A 1_555 1_555
C8A C7A 1_555 1_555
H9A C8A 1_555 1_555
H10A C8A 1_555 1_555
C9A C8A 1_555 1_555
C10A C9A 1_555 1_555
H11A C10A 1_555 1_555
C11A N2A 1_555 1_555
H12A C11A 1_555 1_555
C12A N2A 1_555 1_555
H13A C12A 1_555 1_555
C13A C9A 1_555 1_555
H14A C13A 1_555 1_555
O1A Co1 1_555 1_555
H15A O1A 1_555 1_555
H16A O1A 1_555 1_555
Co1_2 N2 1_555 1_555
N1A_2 Co1 1_555 1_555
N2_2 Co1 1_555 1_555
C4 C5 1_555 1_555
C12 C13 1_555 1_555
C16 C17 1_555 1_555
C18 C19 1_555 1_555
N1A Co1_2 1_555 1_555
C4A C5A 1_555 1_555
C10A C11A 1_555 1_555
C12A C13A 1_555 1_555

#END
