
#######################################################################
#
#                 Cambridge Crystallographic Data Centre
#                                CCDC 
#
#######################################################################
#
# If this CIF has been generated from an entry in the Cambridge 
# Structural Database, then it will include bibliographic, chemical, 
# crystal, experimental, refinement or atomic coordinate data resulting 
# from the CCDC's data processing and validation procedures.
#
#######################################################################

data_GUVFEJ
_symmetry_cell_setting           monoclinic
_symmetry_space_group_name_H-M   'P 21/c'
_symmetry_Int_Tables_number      14
_space_group_name_Hall           '-P 2ybc'
loop_
_symmetry_equiv_pos_site_id
_symmetry_equiv_pos_as_xyz
1 x,y,z
2 -x,1/2+y,1/2-z
3 -x,-y,-z
4 x,1/2-y,1/2+z
_cell_length_a                   10.4377(7)
_cell_length_b                   9.5630(6)
_cell_length_c                   10.5593(7)
_cell_angle_alpha                90
_cell_angle_beta                 119.3330(10)
_cell_angle_gamma                90
_cell_volume                     918.85
loop_
_atom_site_label
_atom_site_type_symbol
_atom_site_fract_x
_atom_site_fract_y
_atom_site_fract_z
Cd1 Cd -0.5000 -0.5000 -1.0000
O1 O 0.05439(16) -0.24233(14) -0.29009(15)
N1 N -0.4707(2) -0.73619(19) -0.9577(2)
N2 N -0.3728(2) -0.95329(19) -0.82433(17)
N3 N -0.3167(2) -0.98877(16) -0.5729(2)
N4 N -0.32677(15) -0.45206(17) -0.75576(15)
N5 N 0.0245(2) -0.4513(2) -0.21210(18)
H1 H 0.096(2) -0.435(3) -0.128(3)
H2 H -0.012(3) -0.537(3) -0.228(3)
C1 C -0.4246(2) -0.83566(18) -0.89081(18)
C2 C -0.3437(2) -0.9663(2) -0.6910(2)
C3 C -0.29377(19) -0.5457(2) -0.64965(19)
H3 H -0.3414 -0.6318 -0.6744
C4 C -0.1935(2) -0.52143(18) -0.5066(2)
H4 H -0.1739 -0.5897 -0.4367
C5 C -0.12197(17) -0.39404(17) -0.46783(17)
C6 C -0.15569(19) -0.29652(19) -0.57600(19)
H5 H -0.1098 -0.2096 -0.5538
C7 C -0.25828(19) -0.32920(19) -0.71762(19)
H6 H -0.2804 -0.2624 -0.7894
C8 C -0.00650(18) -0.35651(19) -0.31471(18)
Cd1A Cd -0.5000 -1.0000 -0.5000
Cd1A_2 Cd -0.5000 -1.0000 -1.5000
O1B O -1.05439(16) -0.75767(14) -1.70991(15)
N1C N -0.4707(2) -0.76381(19) -1.4577(2)
N1B N -0.5293(2) -0.26381(19) -1.0423(2)
N2C N -0.3728(2) -0.54671(19) -1.32433(17)
N3A N -0.6833(2) -0.48877(16) -0.9271(2)
N3C N -0.3167(2) -0.51123(16) -1.0729(2)
N4B N -0.67323(15) -0.54794(17) -1.24424(15)
N5B N -1.0245(2) -0.5487(2) -1.78790(18)
H1B H -1.096(2) -0.565(3) -1.872(3)
H2B H -0.988(3) -0.463(3) -1.772(3)
C1C C -0.4246(2) -0.66434(18) -1.39081(18)
C2C C -0.3437(2) -0.5337(2) -1.1910(2)
C3B C -0.70623(19) -0.4543(2) -1.35035(19)
H3B H -0.6586 -0.3682 -1.3256
C4B C -0.8065(2) -0.47857(18) -1.4934(2)
H4B H -0.8261 -0.4103 -1.5633
C5B C -0.87803(17) -0.60596(17) -1.53217(17)
C6B C -0.84431(19) -0.70348(19) -1.42400(19)
H5B H -0.8902 -0.7904 -1.4462
C7B C -0.74172(19) -0.67080(19) -1.28238(19)
H6B H -0.7196 -0.7376 -1.2106
C8B C -0.99350(18) -0.64349(19) -1.68529(18)
loop_
_geom_bond_atom_site_label_1
_geom_bond_atom_site_label_2
_geom_bond_site_symmetry_1
_geom_bond_site_symmetry_2
Cd1 N1 1_555 1_555
O1 C8 1_555 1_555
N1 C1 1_555 1_555
N2 C1 1_555 1_555
N3 C2 1_555 1_555
N4 Cd1 1_555 1_555
N5 H1 1_555 1_555
H2 N5 1_555 1_555
C2 N2 1_555 1_555
C3 N4 1_555 1_555
H3 C3 1_555 1_555
C4 C3 1_555 1_555
H4 C4 1_555 1_555
C5 C4 1_555 1_555
C6 C5 1_555 1_555
H5 C6 1_555 1_555
C7 N4 1_555 1_555
H6 C7 1_555 1_555
C8 N5 1_555 1_555
Cd1A N3 1_555 1_555
Cd1A_2 N1C 1_555 1_555
O1B C8B 1_555 1_555
N1C C1C 1_555 1_555
N1B Cd1 1_555 1_555
N2C C1C 1_555 1_555
N3A Cd1 1_555 1_555
N3C Cd1 1_555 1_555
N4B Cd1 1_555 1_555
N5B H1B 1_555 1_555
H2B N5B 1_555 1_555
C2C N2C 1_555 1_555
C3B N4B 1_555 1_555
H3B C3B 1_555 1_555
C4B C3B 1_555 1_555
H4B C4B 1_555 1_555
C5B C4B 1_555 1_555
C6B C5B 1_555 1_555
H5B C6B 1_555 1_555
C7B N4B 1_555 1_555
H6B C7B 1_555 1_555
C8B N5B 1_555 1_555
C5 C8 1_555 1_555
C6 C7 1_555 1_555
N3C C2C 1_555 1_555
C5B C8B 1_555 1_555
C6B C7B 1_555 1_555

#END
