
#######################################################################
#
#                 Cambridge Crystallographic Data Centre
#                                CCDC 
#
#######################################################################
#
# If this CIF has been generated from an entry in the Cambridge 
# Structural Database, then it will include bibliographic, chemical, 
# crystal, experimental, refinement or atomic coordinate data resulting 
# from the CCDC's data processing and validation procedures.
#
#######################################################################

data_GUVHEL
_symmetry_cell_setting           monoclinic
_symmetry_space_group_name_H-M   'P 21/c'
_symmetry_Int_Tables_number      14
_space_group_name_Hall           '-P 2ybc'
loop_
_symmetry_equiv_pos_site_id
_symmetry_equiv_pos_as_xyz
1 x,y,z
2 -x,1/2+y,1/2-z
3 -x,-y,-z
4 x,1/2-y,1/2+z
_cell_length_a                   10.0948(10)
_cell_length_b                   4.6751(5)
_cell_length_c                   19.9262(19)
_cell_angle_alpha                90
_cell_angle_beta                 101.4130(10)
_cell_angle_gamma                90
_cell_volume                     921.806
loop_
_atom_site_label
_atom_site_type_symbol
_atom_site_fract_x
_atom_site_fract_y
_atom_site_fract_z
C1 C 0.2586(6) 0.6355(12) 1.1049(3)
H1 H 0.2441 0.7203 1.1450
C2 C 0.1741(6) 0.7124(13) 1.0430(3)
H2 H 0.1025 0.8383 1.0423
C3 C 0.1998(5) 0.5966(11) 0.9830(2)
C4 C 0.3023(5) 0.3995(12) 0.9877(3)
H3 H 0.3195 0.3088 0.9487
C5 C 0.3792(5) 0.3394(14) 1.0514(3)
H4 H 0.4511 0.2130 1.0538
C6 C 0.1126(5) 0.6963(9) 0.9158(2)
Cu1 Cu 0.47120(7) 0.32661(17) 1.20235(3)
I1 I 0.36000(3) 0.44056(9) 1.302593(17)
N1 N 0.3576(4) 0.4487(11) 1.1090(2)
N2 N 0.0906(5) 0.5007(10) 0.8658(2)
H5 H 0.1245 0.3322 0.8730
N3 N 0.0123(4) 0.5702(10) 0.8018(2)
H6 H -0.0387 0.7192 0.8100
H7 H 0.0448 0.6173 0.7643
O1 O 0.0695(4) 0.9309(8) 0.9099(2)
Cu1A Cu 0.52880(7) 0.82661(17) 1.29765(3)
Cu1A_2 Cu 0.52880(7) -0.17339(17) 1.29765(3)
I1A I 0.64000(3) -0.05944(9) 1.197407(17)
I1A_2 I 0.64000(3) 0.94056(9) 1.197407(17)
loop_
_geom_bond_atom_site_label_1
_geom_bond_atom_site_label_2
_geom_bond_site_symmetry_1
_geom_bond_site_symmetry_2
C1 H1 1_555 1_555
C2 C1 1_555 1_555
H2 C2 1_555 1_555
C3 C2 1_555 1_555
C4 C3 1_555 1_555
H3 C4 1_555 1_555
C5 C4 1_555 1_555
H4 C5 1_555 1_555
C6 C3 1_555 1_555
Cu1 I1 1_555 1_555
I1 Cu1A 1_555 1_555
N1 C1 1_555 1_555
N2 C6 1_555 1_555
H5 N2 1_555 1_555
N3 N2 1_555 1_555
H6 N3 1_555 1_555
H7 N3 1_555 1_555
O1 C6 1_555 1_555
Cu1A I1A_2 1_555 1_555
Cu1A_2 I1 1_555 1_555
I1A Cu1 1_555 1_555
I1A_2 Cu1 1_555 1_555
C5 N1 1_555 1_555
Cu1 N1 1_555 1_555
Cu1A_2 I1A 1_555 1_555

#END
