
#######################################################################
#
#                 Cambridge Crystallographic Data Centre
#                                CCDC 
#
#######################################################################
#
# If this CIF has been generated from an entry in the Cambridge 
# Structural Database, then it will include bibliographic, chemical, 
# crystal, experimental, refinement or atomic coordinate data resulting 
# from the CCDC's data processing and validation procedures.
#
#######################################################################

data_GUVJEN
_symmetry_cell_setting           monoclinic
_symmetry_space_group_name_H-M   'P 21/c'
_symmetry_Int_Tables_number      14
_space_group_name_Hall           '-P 2ybc'
loop_
_symmetry_equiv_pos_site_id
_symmetry_equiv_pos_as_xyz
1 x,y,z
2 -x,1/2+y,1/2-z
3 -x,-y,-z
4 x,1/2-y,1/2+z
_cell_length_a                   16.9433(5)
_cell_length_b                   13.6986(4)
_cell_length_c                   7.8434(2)
_cell_angle_alpha                90
_cell_angle_beta                 100.371(2)
_cell_angle_gamma                90
_cell_volume                     1790.71
loop_
_atom_site_label
_atom_site_type_symbol
_atom_site_fract_x
_atom_site_fract_y
_atom_site_fract_z
Cu1 Cu 1.0000 0.5000 0.0000
Cu2 Cu 0.5000 0.5000 0.0000
Cl1 Cl 1.07534(5) 0.47716(6) 0.26282(11)
Cl2 Cl 0.45449(6) 0.52219(6) 0.24632(11)
S1 S 0.84616(6) 0.53245(6) 0.14739(14)
S2 S 0.67628(5) 0.50175(6) 0.20458(15)
N1 N 0.92872(14) 0.38861(16) 0.0476(3)
N2 N 0.80997(14) 0.34328(17) 0.1515(3)
N3 N 0.56717(13) 0.62264(16) 0.0504(3)
N4 N 0.69069(13) 0.69529(18) 0.1838(3)
C1 C 0.86182(18) 0.4082(2) 0.1129(4)
C2 C 0.76401(19) 0.1764(2) 0.1606(5)
H1 H 0.7365 0.2022 0.2475
H2 H 0.7905 0.1166 0.2015
H3 H 0.7260 0.1638 0.0565
C3 C 0.82535(17) 0.2493(2) 0.1231(4)
C4 C 0.89341(18) 0.2222(2) 0.0608(4)
H4 H 0.9041 0.1567 0.0439
C5 C 0.94530(18) 0.2935(2) 0.0241(4)
C6 C 1.02192(19) 0.2707(2) -0.0358(5)
H5 H 1.0253 0.3084 -0.1374
H6 H 1.0234 0.2024 -0.0628
H7 H 1.0664 0.2865 0.0542
C7 C 0.64272(17) 0.6197(2) 0.1404(4)
C8 C 0.71490(19) 0.8690(2) 0.1890(5)
H8 H 0.7182 0.8799 0.3110
H9 H 0.6935 0.9261 0.1261
H10 H 0.7675 0.8556 0.1653
C9 C 0.66113(18) 0.7838(2) 0.1339(4)
C10 C 0.58447(18) 0.7941(2) 0.0408(4)
H11 H 0.5642 0.8557 0.0073
C11 C 0.53781(18) 0.7111(2) -0.0023(4)
C12 C 0.45419(19) 0.7157(2) -0.1008(5)
H12 H 0.4493 0.6741 -0.2007
H13 H 0.4417 0.7817 -0.1373
H14 H 0.4177 0.6943 -0.0280
C13 C 0.77835(19) 0.5258(2) 0.2971(4)
H15 H 0.7968 0.4751 0.3811
H16 H 0.7807 0.5872 0.3596
Cu2_2 Cu 1.5000 0.5000 0.0000
Cl1B Cl 0.92466(5) 0.52284(6) -0.26282(11)
Cl2B Cl 0.54551(6) 0.47781(6) -0.24632(11)
S1B S 1.15384(6) 0.46755(6) -0.14739(14)
S2B S 1.32372(5) 0.49825(6) -0.20458(15)
N1B N 1.07128(14) 0.61139(16) -0.0476(3)
N2B N 1.19003(14) 0.65672(17) -0.1515(3)
N3B N 1.43283(13) 0.37736(16) -0.0504(3)
N3B_2 N 0.43283(13) 0.37736(16) -0.0504(3)
N4B N 1.30931(13) 0.30471(18) -0.1838(3)
C1B C 1.13818(18) 0.5918(2) -0.1129(4)
C2B C 1.23599(19) 0.8236(2) -0.1606(5)
H1B H 1.2635 0.7978 -0.2475
H2B H 1.2095 0.8834 -0.2015
H3B H 1.2740 0.8362 -0.0565
C3B C 1.17465(17) 0.7507(2) -0.1231(4)
C4B C 1.10659(18) 0.7778(2) -0.0608(4)
H4B H 1.0959 0.8433 -0.0439
C5B C 1.05470(18) 0.7065(2) -0.0241(4)
C6B C 0.97808(19) 0.7293(2) 0.0358(5)
H5B H 0.9747 0.6916 0.1374
H6B H 0.9766 0.7976 0.0628
H7B H 0.9336 0.7135 -0.0542
C7B C 1.35728(17) 0.3803(2) -0.1404(4)
C8B C 1.28510(19) 0.1310(2) -0.1890(5)
H8B H 1.2818 0.1201 -0.3110
H9B H 1.3065 0.0739 -0.1261
H10B H 1.2325 0.1444 -0.1653
C9B C 1.33887(18) 0.2162(2) -0.1339(4)
C10B C 1.41553(18) 0.2059(2) -0.0408(4)
H11B H 1.4358 0.1443 -0.0073
C11B C 1.46219(18) 0.2889(2) 0.0023(4)
C12B C 1.54581(19) 0.2843(2) 0.1008(5)
H12B H 1.5507 0.3259 0.2007
H13B H 1.5583 0.2183 0.1373
H14B H 1.5823 0.3057 0.0280
C13B C 1.22165(19) 0.4742(2) -0.2971(4)
H15B H 1.2032 0.5249 -0.3811
H16B H 1.2193 0.4128 -0.3596
loop_
_geom_bond_atom_site_label_1
_geom_bond_atom_site_label_2
_geom_bond_site_symmetry_1
_geom_bond_site_symmetry_2
Cu1 Cl1 1_555 1_555
Cu2 Cl2 1_555 1_555
S1 C1 1_555 1_555
S2 C7 1_555 1_555
N1 Cu1 1_555 1_555
N2 C1 1_555 1_555
N3 Cu2 1_555 1_555
N4 C7 1_555 1_555
C1 N1 1_555 1_555
C2 H1 1_555 1_555
H2 C2 1_555 1_555
H3 C2 1_555 1_555
C3 N2 1_555 1_555
C4 C3 1_555 1_555
H4 C4 1_555 1_555
C5 N1 1_555 1_555
C6 C5 1_555 1_555
H5 C6 1_555 1_555
H6 C6 1_555 1_555
H7 C6 1_555 1_555
C7 N3 1_555 1_555
C8 H8 1_555 1_555
H9 C8 1_555 1_555
H10 C8 1_555 1_555
C9 N4 1_555 1_555
C10 C9 1_555 1_555
H11 C10 1_555 1_555
C11 N3 1_555 1_555
C12 C11 1_555 1_555
H12 C12 1_555 1_555
H13 C12 1_555 1_555
H14 C12 1_555 1_555
C13 S1 1_555 1_555
H15 C13 1_555 1_555
H16 C13 1_555 1_555
Cu2_2 N3B 1_555 1_555
Cl1B Cu1 1_555 1_555
Cl2B Cu2 1_555 1_555
S1B C1B 1_555 1_555
S2B C7B 1_555 1_555
N1B Cu1 1_555 1_555
N2B C1B 1_555 1_555
N3B C7B 1_555 1_555
N3B_2 Cu2 1_555 1_555
N4B C7B 1_555 1_555
C1B N1B 1_555 1_555
C2B H1B 1_555 1_555
H2B C2B 1_555 1_555
H3B C2B 1_555 1_555
C3B N2B 1_555 1_555
C4B C3B 1_555 1_555
H4B C4B 1_555 1_555
C5B N1B 1_555 1_555
C6B C5B 1_555 1_555
H5B C6B 1_555 1_555
H6B C6B 1_555 1_555
H7B C6B 1_555 1_555
C8B H8B 1_555 1_555
H9B C8B 1_555 1_555
H10B C8B 1_555 1_555
C9B N4B 1_555 1_555
C10B C9B 1_555 1_555
H11B C10B 1_555 1_555
C11B N3B 1_555 1_555
C12B C11B 1_555 1_555
H12B C12B 1_555 1_555
H13B C12B 1_555 1_555
H14B C12B 1_555 1_555
C13B S1B 1_555 1_555
H15B C13B 1_555 1_555
H16B C13B 1_555 1_555
S2 C13 1_555 1_555
C2 C3 1_555 1_555
C4 C5 1_555 1_555
C8 C9 1_555 1_555
C10 C11 1_555 1_555
S2B C13B 1_555 1_555
C2B C3B 1_555 1_555
C4B C5B 1_555 1_555
C8B C9B 1_555 1_555
C10B C11B 1_555 1_555

#END
