
#######################################################################
#
#                 Cambridge Crystallographic Data Centre
#                                CCDC 
#
#######################################################################
#
# If this CIF has been generated from an entry in the Cambridge 
# Structural Database, then it will include bibliographic, chemical, 
# crystal, experimental, refinement or atomic coordinate data resulting 
# from the CCDC's data processing and validation procedures.
#
#######################################################################

data_GUVJAJ
_symmetry_cell_setting           orthorhombic
_symmetry_space_group_name_H-M   'P b c n'
_symmetry_Int_Tables_number      60
_space_group_name_Hall           '-P 2n 2ab'
loop_
_symmetry_equiv_pos_site_id
_symmetry_equiv_pos_as_xyz
1 x,y,z
2 1/2-x,1/2-y,1/2+z
3 -x,y,1/2-z
4 1/2+x,1/2-y,-z
5 -x,-y,-z
6 1/2+x,1/2+y,1/2-z
7 x,-y,1/2+z
8 1/2-x,1/2+y,z
_cell_length_a                   6.5763(3)
_cell_length_b                   12.8679(8)
_cell_length_c                   26.7262(15)
_cell_angle_alpha                90
_cell_angle_beta                 90
_cell_angle_gamma                90
_cell_volume                     2261.66
loop_
_atom_site_label
_atom_site_type_symbol
_atom_site_fract_x
_atom_site_fract_y
_atom_site_fract_z
Er1 Er 0.324907(18) 0.337032(11) 0.080268(5)
O1 O 0.1905(3) 0.17512(19) 0.06270(11)
O2 O 0.1675(4) 0.3131(2) 0.16158(11)
O3 O 0.3554(4) 0.3143(2) -0.00529(10)
C1 C 0.0000 0.4054(4) 0.2500
H1 H 0.0000 0.3331 0.2500
C2 C 0.1148(6) 0.4600(3) 0.21504(12)
O4 O 0.3643(4) 0.4485(2) 0.15025(10)
N1 N 0.5431(4) 0.1875(2) 0.10914(10)
C3 C 0.4842(5) 0.0930(2) 0.08970(11)
C4 C 0.2244(5) 0.4029(3) 0.17443(12)
C5 C 0.1205(7) 0.5676(3) 0.21622(13)
H2 H 0.2050 0.6037 0.1944
C6 C 0.0000 0.6214(4) 0.2500
H3 H 0.0000 0.6937 0.2500
C7 C 0.6361(5) 0.0217(2) 0.09546(12)
C8 C 0.2813(5) 0.0877(2) 0.06568(11)
N2 N 0.7895(4) 0.0737(2) 0.11955(11)
H4 H 0.9048 0.0480 0.1282
C9 C 0.6681(4) -0.0849(3) 0.07593(12)
C10 C 0.7280(5) 0.1720(3) 0.12718(13)
H5 H 0.8054 0.2227 0.1431
O5 O 0.8474(3) -0.1151(2) 0.07085(10)
O6 O 0.5165(4) -0.1386(2) 0.06404(12)
O7 O 0.2065(3) 0.00552(19) 0.05011(9)
Er1G Er 1.175093(18) 0.837032(11) 0.080268(5)
Er1G_2 Er 1.175093(18) -0.162968(11) 0.080268(5)
Er1G_3 Er 0.175093(18) -0.162968(11) 0.080268(5)
Er1B Er -0.324907(18) 0.337032(11) 0.419732(5)
Er1_2 Er 1.324907(18) 0.337032(11) 0.080268(5)
O1G O 1.3095(3) 0.67512(19) 0.06270(11)
O2B O -0.1675(4) 0.3131(2) 0.33842(11)
O2G O 1.3325(4) 0.8131(2) 0.16158(11)
O3G O 1.1446(4) 0.8143(2) -0.00529(10)
C2B C -0.1148(6) 0.4600(3) 0.28496(12)
O4B O -0.3643(4) 0.4485(2) 0.34975(10)
O4G O 1.1357(4) 0.9485(2) 0.15025(10)
N1G N 0.9569(4) 0.6875(2) 0.10914(10)
C3G C 1.0158(5) 0.5930(2) 0.08970(11)
C4B C -0.2244(5) 0.4029(3) 0.32557(12)
C5B C -0.1205(7) 0.5676(3) 0.28378(13)
H2B H -0.2050 0.6037 0.3056
C7G C 0.8639(5) 0.5217(2) 0.09546(12)
C8G C 1.2187(5) 0.5877(2) 0.06568(11)
N2G N 0.7105(4) 0.5737(2) 0.11955(11)
H4G H 0.5952 0.5480 0.1282
C9G C 0.8319(4) 0.4151(3) 0.07593(12)
C10G C 0.7720(5) 0.6720(3) 0.12718(13)
H5G H 0.6946 0.7227 0.1431
O5G O 0.6526(3) 0.3849(2) 0.07085(10)
O5_2 O 0.8474(3) 0.8849(2) 0.07085(10)
O6G O 0.9835(4) 0.3614(2) 0.06404(12)
O6G_2 O -0.0165(4) 0.3614(2) 0.06404(12)
O6_2 O 1.5165(4) 0.8614(2) 0.06404(12)
O7G O 1.2935(3) 0.50552(19) 0.05011(9)
O7G_2 O 0.2935(3) 0.50552(19) 0.05011(9)
O7_2 O 1.2065(3) 1.00552(19) 0.05011(9)
loop_
_geom_bond_atom_site_label_1
_geom_bond_atom_site_label_2
_geom_bond_site_symmetry_1
_geom_bond_site_symmetry_2
Er1 O1 1_555 1_555
O1 C8 1_555 1_555
O2 Er1 1_555 1_555
O3 Er1 1_555 1_555
C1 H1 1_555 1_555
C2 C1 1_555 1_555
O4 Er1 1_555 1_555
N1 Er1 1_555 1_555
C3 N1 1_555 1_555
C4 O2 1_555 1_555
C5 C2 1_555 1_555
H2 C5 1_555 1_555
C6 C5 1_555 1_555
H3 C6 1_555 1_555
C7 C3 1_555 1_555
C8 C3 1_555 1_555
N2 C7 1_555 1_555
H4 N2 1_555 1_555
C9 C7 1_555 1_555
C10 N1 1_555 1_555
H5 C10 1_555 1_555
O5 C9 1_555 1_555
O6 C9 1_555 1_555
O7 C8 1_555 1_555
Er1G O1G 1_555 1_555
Er1G_2 O5 1_555 1_555
Er1G_3 O6 1_555 1_555
Er1B O2B 1_555 1_555
Er1_2 O6G 1_555 1_555
O1G C8G 1_555 1_555
O2B C4B 1_555 1_555
O2G Er1G 1_555 1_555
O3G Er1G 1_555 1_555
C2B C1 1_555 1_555
O4B Er1B 1_555 1_555
O4G Er1G 1_555 1_555
N1G Er1G 1_555 1_555
C3G N1G 1_555 1_555
C4B C2B 1_555 1_555
C5B C6 1_555 1_555
H2B C5B 1_555 1_555
C7G C3G 1_555 1_555
C8G C3G 1_555 1_555
N2G C7G 1_555 1_555
H4G N2G 1_555 1_555
C9G C7G 1_555 1_555
C10G N1G 1_555 1_555
H5G C10G 1_555 1_555
O5G Er1 1_555 1_555
O5_2 Er1G 1_555 1_555
O6G C9G 1_555 1_555
O6G_2 Er1 1_555 1_555
O6_2 Er1G 1_555 1_555
O7G Er1_2 1_555 1_555
O7G_2 Er1 1_555 1_555
O7_2 Er1G 1_555 1_555
C2 C4 1_555 1_555
O4 C4 1_555 1_555
N2 C10 1_555 1_555
O7 Er1G_3 1_555 1_555
C2B C5B 1_555 1_555
O4B C4B 1_555 1_555
C8G O7G 1_555 1_555
N2G C10G 1_555 1_555
C9G O5G 1_555 1_555

#END
