
#######################################################################
#
#                 Cambridge Crystallographic Data Centre
#                                CCDC 
#
#######################################################################
#
# If this CIF has been generated from an entry in the Cambridge 
# Structural Database, then it will include bibliographic, chemical, 
# crystal, experimental, refinement or atomic coordinate data resulting 
# from the CCDC's data processing and validation procedures.
#
#######################################################################

data_GUVQIY
_symmetry_cell_setting           triclinic
_symmetry_space_group_name_H-M   'P -1'
_symmetry_Int_Tables_number      2
_space_group_name_Hall           '-P 1'
loop_
_symmetry_equiv_pos_site_id
_symmetry_equiv_pos_as_xyz
1 x,y,z
2 -x,-y,-z
_cell_length_a                   9.9464(8)
_cell_length_b                   13.4718(11)
_cell_length_c                   14.3877(12)
_cell_angle_alpha                87.1930(10)
_cell_angle_beta                 85.4280(10)
_cell_angle_gamma                74.6470(10)
_cell_volume                     1852.4
loop_
_atom_site_label
_atom_site_type_symbol
_atom_site_fract_x
_atom_site_fract_y
_atom_site_fract_z
Ni1 Ni 0.74421(7) -0.02914(5) 1.00742(5)
Ni2 Ni 0.74877(7) 0.50097(5) 0.50464(5)
Mn1 Mn 0.77092(9) 0.11068(7) 0.83005(6)
Mn2 Mn 0.87773(8) 0.30160(6) 0.62228(6)
N1 N 0.6706(5) -0.1384(3) 1.0410(3)
N2 N 0.8399(5) -0.0597(3) 1.1149(3)
N3 N 0.5969(5) 0.6133(3) 0.5133(3)
N4 N 0.8215(5) 0.5744(3) 0.4100(3)
O1 O 0.6699(4) -0.0068(3) 0.8894(2)
O2 O 0.8038(4) 0.0875(3) 0.9746(2)
O3 O 0.7023(4) 0.0721(3) 0.7078(3)
O4 O 0.5580(4) 0.0479(3) 0.6101(3)
O5 O 1.0127(4) -0.0566(3) 1.2083(3)
O6 O 0.6923(4) 0.4328(3) 0.6120(2)
O7 O 0.8892(4) 0.3799(3) 0.4906(2)
O8 O 0.7747(4) 0.2718(3) 0.7478(3)
O9 O 0.6029(4) 0.2531(3) 0.8442(3)
O10 O 0.9966(4) 0.6152(3) 0.3172(3)
C1 C 0.5928(6) -0.0583(4) 0.8516(4)
C2 C 0.5533(6) -0.0370(4) 0.7583(4)
C3 C 0.4618(6) -0.0885(5) 0.7249(4)
H1 H 0.4350 -0.0742 0.6642
C4 C 0.4101(6) -0.1600(5) 0.7791(4)
H2 H 0.3457 -0.1901 0.7564
C5 C 0.4550(6) -0.1854(4) 0.8663(4)
H3 H 0.4250 -0.2362 0.9016
C6 C 0.5453(6) -0.1366(4) 0.9035(4)
C7 C 0.5894(6) -0.1729(4) 0.9952(4)
H4 H 0.5555 -0.2260 1.0231
C8 C 0.7046(6) -0.1828(5) 1.1346(4)
H5 H 0.7120 -0.2561 1.1365
H6 H 0.6322 -0.1503 1.1809
C9 C 0.8420(6) -0.1637(5) 1.1537(4)
H7 H 0.8528 -0.1671 1.2203
H8 H 0.9189 -0.2149 1.1240
C10 C 0.9259(6) -0.0138(4) 1.1454(4)
C11 C 0.9264(6) 0.0916(4) 1.1123(4)
C12 C 0.9914(6) 0.1495(5) 1.1637(4)
H9 H 1.0366 0.1193 1.2161
C13 C 0.9903(6) 0.2495(5) 1.1387(4)
H10 H 1.0313 0.2870 1.1750
C14 C 0.9276(6) 0.2934(5) 1.0592(4)
H11 H 0.9276 0.3607 1.0416
C15 C 0.8653(6) 0.2392(4) 1.0059(4)
H12 H 0.8230 0.2702 0.9526
C16 C 0.8646(5) 0.1372(4) 1.0309(4)
C17 C 0.6067(6) 0.0334(4) 0.6884(4)
C18 C 0.5813(5) 0.4648(4) 0.6705(4)
C19 C 0.5569(6) 0.4056(4) 0.7521(4)
C20 C 0.4329(6) 0.4405(4) 0.8081(4)
H13 H 0.4174 0.4016 0.8611
C21 C 0.3321(6) 0.5305(5) 0.7880(4)
H14 H 0.2502 0.5510 0.8261
C22 C 0.3560(6) 0.5885(4) 0.7106(4)
H15 H 0.2892 0.6489 0.6962
C23 C 0.4787(6) 0.5589(4) 0.6527(4)
C24 C 0.4936(6) 0.6262(4) 0.5744(4)
H16 H 0.4208 0.6851 0.5673
C25 C 0.5944(6) 0.6903(5) 0.4365(4)
H17 H 0.5484 0.7589 0.4581
H18 H 0.5443 0.6758 0.3858
C26 C 0.7455(6) 0.6832(4) 0.4037(4)
H19 H 0.7515 0.7093 0.3398
H20 H 0.7847 0.7235 0.4428
C27 C 0.9461(6) 0.5481(4) 0.3647(4)
C28 C 1.0281(6) 0.4395(4) 0.3640(4)
C29 C 1.1469(6) 0.4114(5) 0.3018(4)
H21 H 1.1717 0.4624 0.2637
C30 C 1.2266(6) 0.3139(5) 0.2948(4)
H22 H 1.3061 0.2988 0.2539
C31 C 1.1890(7) 0.2360(5) 0.3492(4)
H23 H 1.2414 0.1680 0.3434
C32 C 1.0728(6) 0.2602(5) 0.4124(4)
H24 H 1.0476 0.2080 0.4484
C33 C 0.9937(6) 0.3611(4) 0.4224(4)
C34 C 0.6502(6) 0.3058(4) 0.7815(4)
O11 O 1.0350(4) 0.1561(3) 0.6299(3)
H25 H 1.0398 0.1071 0.6701
H26 H 1.0738 0.1300 0.5787
C36 C 0.8171(10) 0.1167(7) 0.3913(6)
H35 H 0.7456 0.0844 0.3787
H36 H 0.9071 0.0686 0.3819
H37 H 0.8124 0.1755 0.3501
C37 C 0.7980(9) 0.1467(7) 0.4796(6)
H38 H 0.8961 0.1236 0.4919
H39 H 0.7611 0.0900 0.5036
O15 O 0.7569(5) 0.2061(3) 0.5620(3)
H40 H 0.6718 0.2045 0.5932
Mn1A Mn 1.22908(9) -0.11068(7) 1.16995(6)
Mn2A Mn 1.12227(8) 0.69840(6) 0.37772(6)
O5A O 0.9873(4) 0.0566(3) 0.7917(3)
O10A O 1.0034(4) 0.3848(3) 0.6828(3)
O12 O 0.2976(4) 0.0623(4) 0.5467(3)
H27 H 0.3250 0.0599 0.4892
H28 H 0.3647 0.0686 0.5770
O13 O 0.0214(6) 0.4488(4) 0.8738(3)
H29 H -0.0577 0.4670 0.9040
H30 H 0.0839 0.4428 0.9122
O14 O 0.7877(6) 0.5687(4) 0.9767(4)
H31 H 0.7754 0.6309 0.9679
C35 C 0.6765(8) 0.5380(7) 0.9432(5)
H32 H 0.5905 0.5729 0.9763
H33 H 0.6916 0.4650 0.9527
H34 H 0.6714 0.5552 0.8778
loop_
_geom_bond_atom_site_label_1
_geom_bond_atom_site_label_2
_geom_bond_site_symmetry_1
_geom_bond_site_symmetry_2
Ni1 N1 1_555 1_555
Ni2 N3 1_555 1_555
Mn1 O1 1_555 1_555
Mn2 O6 1_555 1_555
N1 C7 1_555 1_555
N2 Ni1 1_555 1_555
N3 C24 1_555 1_555
N4 Ni2 1_555 1_555
O1 Ni1 1_555 1_555
O2 Ni1 1_555 1_555
O3 Mn1 1_555 1_555
O4 C17 1_555 1_555
O5 C10 1_555 1_555
O6 Ni2 1_555 1_555
O7 Ni2 1_555 1_555
O8 Mn1 1_555 1_555
O9 Mn1 1_555 1_555
O10 C27 1_555 1_555
C1 O1 1_555 1_555
C2 C1 1_555 1_555
C3 C2 1_555 1_555
H1 C3 1_555 1_555
C4 C3 1_555 1_555
H2 C4 1_555 1_555
C5 C4 1_555 1_555
H3 C5 1_555 1_555
C6 C1 1_555 1_555
C7 C6 1_555 1_555
H4 C7 1_555 1_555
C8 N1 1_555 1_555
H5 C8 1_555 1_555
H6 C8 1_555 1_555
C9 N2 1_555 1_555
H7 C9 1_555 1_555
H8 C9 1_555 1_555
C10 N2 1_555 1_555
C11 C10 1_555 1_555
C12 C11 1_555 1_555
H9 C12 1_555 1_555
C13 C12 1_555 1_555
H10 C13 1_555 1_555
C14 C13 1_555 1_555
H11 C14 1_555 1_555
C15 C14 1_555 1_555
H12 C15 1_555 1_555
C16 O2 1_555 1_555
C17 O3 1_555 1_555
C18 O6 1_555 1_555
C19 C18 1_555 1_555
C20 C19 1_555 1_555
H13 C20 1_555 1_555
C21 C20 1_555 1_555
H14 C21 1_555 1_555
C22 C21 1_555 1_555
H15 C22 1_555 1_555
C23 C18 1_555 1_555
C24 C23 1_555 1_555
H16 C24 1_555 1_555
C25 N3 1_555 1_555
H17 C25 1_555 1_555
H18 C25 1_555 1_555
C26 N4 1_555 1_555
H19 C26 1_555 1_555
H20 C26 1_555 1_555
C27 N4 1_555 1_555
C28 C27 1_555 1_555
C29 C28 1_555 1_555
H21 C29 1_555 1_555
C30 C29 1_555 1_555
H22 C30 1_555 1_555
C31 C30 1_555 1_555
H23 C31 1_555 1_555
C32 C31 1_555 1_555
H24 C32 1_555 1_555
C33 O7 1_555 1_555
C34 O8 1_555 1_555
O11 Mn2 1_555 1_555
H25 O11 1_555 1_555
H26 O11 1_555 1_555
O12 H27 1_555 1_555
H28 O12 1_555 1_555
O13 H29 1_555 1_555
H30 O13 1_555 1_555
O14 H31 1_555 1_555
C35 O14 1_555 1_555
H32 C35 1_555 1_555
H33 C35 1_555 1_555
H34 C35 1_555 1_555
C36 H35 1_555 1_555
H36 C36 1_555 1_555
H37 C36 1_555 1_555
C37 C36 1_555 1_555
H38 C37 1_555 1_555
H39 C37 1_555 1_555
O15 Mn2 1_555 1_555
H40 O15 1_555 1_555
Mn1A O5 1_555 1_555
Mn2A O10 1_555 1_555
O5A Mn1 1_555 1_555
O10A Mn2 1_555 1_555
Mn1 O2 1_555 1_555
Mn2 O7 1_555 1_555
Mn2 O8 1_555 1_555
O9 C34 1_555 1_555
C2 C17 1_555 1_555
C5 C6 1_555 1_555
C8 C9 1_555 1_555
C11 C16 1_555 1_555
C15 C16 1_555 1_555
C19 C34 1_555 1_555
C22 C23 1_555 1_555
C25 C26 1_555 1_555
C28 C33 1_555 1_555
C32 C33 1_555 1_555
C37 O15 1_555 1_555

#END
