
#######################################################################
#
#                 Cambridge Crystallographic Data Centre
#                                CCDC 
#
#######################################################################
#
# If this CIF has been generated from an entry in the Cambridge 
# Structural Database, then it will include bibliographic, chemical, 
# crystal, experimental, refinement or atomic coordinate data resulting 
# from the CCDC's data processing and validation procedures.
#
#######################################################################

data_GUVSOF
_symmetry_cell_setting           monoclinic
_symmetry_space_group_name_H-M   'P 21/c'
_symmetry_Int_Tables_number      14
_space_group_name_Hall           '-P 2ybc'
loop_
_symmetry_equiv_pos_site_id
_symmetry_equiv_pos_as_xyz
1 x,y,z
2 -x,1/2+y,1/2-z
3 -x,-y,-z
4 x,1/2-y,1/2+z
_cell_length_a                   13.943(6)
_cell_length_b                   11.954(3)
_cell_length_c                   17.049(4)
_cell_angle_alpha                90
_cell_angle_beta                 104.06(2)
_cell_angle_gamma                90
_cell_volume                     2756.51
loop_
_atom_site_label
_atom_site_type_symbol
_atom_site_fract_x
_atom_site_fract_y
_atom_site_fract_z
Co1 Co 0.9157(1) 0.8179(1) 0.0604(1)
Co2 Co 0.5290(1) 0.6972(1) -0.0803(1)
N1 N 1.0469(3) 0.7269(4) 0.0783(3)
N2 N 1.1437(5) 0.5884(5) 0.0581(4)
N3 N 0.8920(3) 0.7908(3) 0.1763(2)
N4 N 0.8796(5) 0.8372(6) 0.2986(3)
N5 N 0.5078(3) 0.7172(3) -0.2048(2)
N6 N 0.4351(6) 0.6895(5) -0.3336(3)
N7 N 0.3931(3) 0.7697(3) -0.0745(2)
N8 N 0.2503(4) 0.7959(5) -0.0423(4)
C1 C 1.0563(4) 0.6406(4) 0.0272(4)
C2 C 1.1892(4) 0.6440(4) 0.1275(3)
C3 C 1.1283(4) 0.7257(5) 0.1377(4)
C4 C 1.1495(6) 0.8031(7) 0.2066(4)
C5 C 0.8721(4) 0.8780(4) 0.2228(3)
C6 C 0.9019(4) 0.7309(4) 0.2990(3)
C7 C 0.9086(4) 0.7039(5) 0.2253(3)
C8 C 0.9293(6) 0.5891(5) 0.2019(4)
C9 C 0.4296(4) 0.6645(5) -0.2560(3)
C10 C 0.5120(4) 0.7538(4) -0.3294(3)
C11 C 0.5568(4) 0.7692(4) -0.2515(3)
C12 C 0.6464(5) 0.8398(6) -0.2254(4)
C13 C 0.2829(3) 0.8953(4) -0.0626(3)
C14 C 0.3171(4) 0.7172(5) -0.0508(3)
C15 C 0.3688(4) 0.8782(4) -0.0807(3)
C16 C 0.4251(4) 0.9701(4) -0.1088(3)
C17 C 0.7056(4) 0.8184(4) -0.0084(3)
C18 C 0.7436(4) 0.7032(4) -0.0283(3)
C19 C 0.9899(4) 0.9733(4) -0.0425(2)
C20 C 0.5215(3) 0.5286(4) 0.0410(2)
O1 O 0.7704(3) 0.8867(3) 0.0277(2)
O2 O 0.8336(3) 0.6847(3) -0.0051(2)
O3 O 0.6790(3) 0.6377(3) -0.0674(2)
O4 O 0.6142(3) 0.8366(3) -0.0298(2)
O5 O 0.5466(3) 0.6291(3) 0.0388(2)
O6 O 0.5288(3) 0.4703(3) 0.1034(2)
O7 O 0.9433(3) 0.8820(3) -0.0512(2)
O8 O 1.0220(3) 1.0224(3) -0.0947(2)
H1 H 1.1663 0.5312 0.0380
H2 H 0.8711 0.8750 0.3393
H3 H 0.3950 0.6667 -0.3773
H4 H 0.1969 0.7844 -0.0269
H5 H 1.0106 0.6213 -0.0203
H6 H 1.2509 0.6278 0.1610
H7 H 1.0957 0.8548 0.2016
H8 H 1.2092 0.8436 0.2074
H9 H 1.1575 0.7616 0.2560
H10 H 0.8565 0.9510 0.2056
H11 H 0.9113 0.6829 0.3432
H12 H 0.9318 0.5883 0.1461
H13 H 0.8779 0.5398 0.2094
H14 H 0.9916 0.5646 0.2350
H15 H 0.3819 0.6205 -0.2411
H16 H 0.5321 0.7836 -0.3732
H17 H 0.6669 0.8405 -0.1675
H18 H 0.6317 0.9147 -0.2449
H19 H 0.6985 0.8098 -0.2470
H20 H 0.2508 0.9637 -0.0636
H21 H 0.3123 0.6409 -0.0420
H22 H 0.4852 0.9405 -0.1186
H23 H 0.4408 1.0270 -0.0680
H24 H 0.3856 1.0016 -0.1579
C19B C 1.0101(4) 1.0267(4) 0.0425(2)
O7B O 1.0567(3) 1.1180(3) 0.0512(2)
O8B O 0.9780(3) 0.9776(3) 0.0947(2)
C20B C 0.4785(3) 0.4714(4) -0.0410(2)
O5B O 0.4534(3) 0.3709(3) -0.0388(2)
O6B O 0.4712(3) 0.5297(3) -0.1034(2)
Co1B Co 1.0843(1) 1.1821(1) -0.0604(1)
N1B N 0.9531(3) 1.2731(4) -0.0783(3)
N2B N 0.8563(5) 1.4116(5) -0.0581(4)
C1B C 0.9437(4) 1.3594(4) -0.0272(4)
C2B C 0.8108(4) 1.3560(4) -0.1275(3)
C3B C 0.8717(4) 1.2743(5) -0.1377(4)
C4B C 0.8505(6) 1.1969(7) -0.2066(4)
H1B H 0.8337 1.4688 -0.0380
H5B H 0.9894 1.3787 0.0203
H6B H 0.7491 1.3722 -0.1610
H7B H 0.9043 1.1452 -0.2016
H8B H 0.7908 1.1564 -0.2074
H9B H 0.8425 1.2384 -0.2560
N3B N 1.1080(3) 1.2092(3) -0.1763(2)
N4B N 1.1204(5) 1.1628(6) -0.2986(3)
C5B C 1.1279(4) 1.1220(4) -0.2228(3)
C6B C 1.0981(4) 1.2691(4) -0.2990(3)
C7B C 1.0914(4) 1.2961(5) -0.2253(3)
C8B C 1.0707(6) 1.4109(5) -0.2019(4)
H2B H 1.1289 1.1250 -0.3393
H10B H 1.1435 1.0490 -0.2056
H11B H 1.0887 1.3171 -0.3432
H12B H 1.0682 1.4117 -0.1461
H13B H 1.1221 1.4602 -0.2094
H14B H 1.0084 1.4354 -0.2350
C17B C 1.2944(4) 1.1816(4) 0.0084(3)
C18B C 1.2564(4) 1.2968(4) 0.0283(3)
O1B O 1.2296(3) 1.1133(3) -0.0277(2)
O2B O 1.1664(3) 1.3153(3) 0.0051(2)
O3B O 1.3210(3) 1.3623(3) 0.0674(2)
O4B O 1.3858(3) 1.1634(3) 0.0298(2)
Co2B Co 1.4710(1) 1.3028(1) 0.0803(1)
N5B N 1.4922(3) 1.2828(3) 0.2048(2)
N6B N 1.5649(6) 1.3105(5) 0.3336(3)
C9B C 1.5704(4) 1.3355(5) 0.2560(3)
C10B C 1.4880(4) 1.2462(4) 0.3294(3)
C11B C 1.4432(4) 1.2308(4) 0.2515(3)
C12B C 1.3536(5) 1.1602(6) 0.2254(4)
H3B H 1.6050 1.3333 0.3773
H15B H 1.6181 1.3795 0.2411
H16B H 1.4679 1.2164 0.3732
H17B H 1.3331 1.1595 0.1675
H18B H 1.3683 1.0853 0.2449
H19B H 1.3015 1.1902 0.2470
N7B N 1.6069(3) 1.2303(3) 0.0745(2)
N8B N 1.7497(4) 1.2041(5) 0.0423(4)
C13B C 1.7171(3) 1.1047(4) 0.0626(3)
C14B C 1.6829(4) 1.2828(5) 0.0508(3)
C15B C 1.6312(4) 1.1218(4) 0.0807(3)
C16B C 1.5749(4) 1.0299(4) 0.1088(3)
H4B H 1.8031 1.2156 0.0269
H20B H 1.7492 1.0363 0.0636
H21B H 1.6877 1.3591 0.0420
H22B H 1.5148 1.0595 0.1186
H23B H 1.5592 0.9730 0.0680
H24B H 1.6144 0.9984 0.1579
Co2B_2 Co 0.4710(1) 0.3028(1) 0.0803(1)
O5B_2 O 1.4534(3) 1.3709(3) -0.0388(2)
O6_2 O 1.5288(3) 1.4703(3) 0.1034(2)
O9 O 1.3631(3) 0.5287(4) 0.1872(2)
loop_
_geom_bond_atom_site_label_1
_geom_bond_atom_site_label_2
_geom_bond_site_symmetry_1
_geom_bond_site_symmetry_2
Co1 N1 1_555 1_555
Co2 N5 1_555 1_555
N1 C1 1_555 1_555
N2 C1 1_555 1_555
N3 Co1 1_555 1_555
N4 C5 1_555 1_555
N5 C9 1_555 1_555
N6 C9 1_555 1_555
N7 Co2 1_555 1_555
N8 C13 1_555 1_555
C1 H5 1_555 1_555
C2 N2 1_555 1_555
C3 N1 1_555 1_555
C4 C3 1_555 1_555
C5 N3 1_555 1_555
C6 N4 1_555 1_555
C7 N3 1_555 1_555
C8 C7 1_555 1_555
C9 H15 1_555 1_555
C10 N6 1_555 1_555
C11 N5 1_555 1_555
C12 C11 1_555 1_555
C13 C15 1_555 1_555
C14 N7 1_555 1_555
C15 N7 1_555 1_555
C16 C15 1_555 1_555
C17 C18 1_555 1_555
C18 O2 1_555 1_555
C19 O7 1_555 1_555
C20 O5 1_555 1_555
O1 Co1 1_555 1_555
O2 Co1 1_555 1_555
O3 Co2 1_555 1_555
O4 Co2 1_555 1_555
O5 Co2 1_555 1_555
O6 C20 1_555 1_555
O7 Co1 1_555 1_555
O8 C19 1_555 1_555
H1 N2 1_555 1_555
H2 N4 1_555 1_555
H3 N6 1_555 1_555
H4 N8 1_555 1_555
H6 C2 1_555 1_555
H7 C4 1_555 1_555
H8 C4 1_555 1_555
H9 C4 1_555 1_555
H10 C5 1_555 1_555
H11 C6 1_555 1_555
H12 C8 1_555 1_555
H13 C8 1_555 1_555
H14 C8 1_555 1_555
H16 C10 1_555 1_555
H17 C12 1_555 1_555
H18 C12 1_555 1_555
H19 C12 1_555 1_555
H20 C13 1_555 1_555
H21 C14 1_555 1_555
H22 C16 1_555 1_555
H23 C16 1_555 1_555
H24 C16 1_555 1_555
C19B C19 1_555 1_555
O7B C19B 1_555 1_555
O8B Co1 1_555 1_555
C20B C20 1_555 1_555
O5B C20B 1_555 1_555
O6B Co2 1_555 1_555
Co1B O8 1_555 1_555
N1B Co1B 1_555 1_555
N2B C1B 1_555 1_555
C1B N1B 1_555 1_555
C2B N2B 1_555 1_555
C3B N1B 1_555 1_555
C4B C3B 1_555 1_555
H1B N2B 1_555 1_555
H5B C1B 1_555 1_555
H6B C2B 1_555 1_555
H7B C4B 1_555 1_555
H8B C4B 1_555 1_555
H9B C4B 1_555 1_555
N3B Co1B 1_555 1_555
N4B C5B 1_555 1_555
C5B N3B 1_555 1_555
C6B N4B 1_555 1_555
C7B N3B 1_555 1_555
C8B C7B 1_555 1_555
H2B N4B 1_555 1_555
H10B C5B 1_555 1_555
H11B C6B 1_555 1_555
H12B C8B 1_555 1_555
H13B C8B 1_555 1_555
H14B C8B 1_555 1_555
C17B C18B 1_555 1_555
C18B O2B 1_555 1_555
O1B Co1B 1_555 1_555
O2B Co1B 1_555 1_555
O3B C18B 1_555 1_555
O4B C17B 1_555 1_555
Co2B O3B 1_555 1_555
N5B Co2B 1_555 1_555
N6B C9B 1_555 1_555
C9B N5B 1_555 1_555
C10B N6B 1_555 1_555
C11B N5B 1_555 1_555
C12B C11B 1_555 1_555
H3B N6B 1_555 1_555
H15B C9B 1_555 1_555
H16B C10B 1_555 1_555
H17B C12B 1_555 1_555
H18B C12B 1_555 1_555
H19B C12B 1_555 1_555
N7B Co2B 1_555 1_555
N8B C13B 1_555 1_555
C13B C15B 1_555 1_555
C14B N7B 1_555 1_555
C15B N7B 1_555 1_555
C16B C15B 1_555 1_555
H4B N8B 1_555 1_555
H20B C13B 1_555 1_555
H21B C14B 1_555 1_555
H22B C16B 1_555 1_555
H23B C16B 1_555 1_555
H24B C16B 1_555 1_555
Co2B_2 O6 1_555 1_555
O5B_2 Co2B 1_555 1_555
O6_2 Co2B 1_555 1_555
N8 C14 1_555 1_555
C2 C3 1_555 1_555
C6 C7 1_555 1_555
C10 C11 1_555 1_555
C17 O1 1_555 1_555
C17 O4 1_555 1_555
C18 O3 1_555 1_555
C19B O8B 1_555 1_555
O7B Co1B 1_555 1_555
C20B O6B 1_555 1_555
O5B Co2B_2 1_555 1_555
C2B C3B 1_555 1_555
C6B C7B 1_555 1_555
C17B O1B 1_555 1_555
O4B Co2B 1_555 1_555
C10B C11B 1_555 1_555
N8B C14B 1_555 1_555

#END
