
#######################################################################
#
#                 Cambridge Crystallographic Data Centre
#                                CCDC 
#
#######################################################################
#
# If this CIF has been generated from an entry in the Cambridge 
# Structural Database, then it will include bibliographic, chemical, 
# crystal, experimental, refinement or atomic coordinate data resulting 
# from the CCDC's data processing and validation procedures.
#
#######################################################################

data_GUVSAS
_symmetry_cell_setting           monoclinic
_symmetry_space_group_name_H-M   'C 2/c'
_symmetry_Int_Tables_number      15
_space_group_name_Hall           '-C 2yn'
loop_
_symmetry_equiv_pos_site_id
_symmetry_equiv_pos_as_xyz
1 x,y,z
2 -x,y,1/2-z
3 1/2+x,1/2+y,z
4 1/2-x,1/2+y,1/2-z
5 -x,-y,-z
6 x,-y,1/2+z
7 1/2-x,1/2-y,-z
8 1/2+x,1/2-y,1/2+z
_cell_length_a                   24.981(4)
_cell_length_b                   11.1204(19)
_cell_length_c                   18.125(3)
_cell_angle_alpha                90
_cell_angle_beta                 132.5620(10)
_cell_angle_gamma                90
_cell_volume                     3708.58
loop_
_atom_site_label
_atom_site_type_symbol
_atom_site_fract_x
_atom_site_fract_y
_atom_site_fract_z
Co1 Co 1.087411(16) 0.08385(3) 0.39187(2)
O1 O 1.02264(9) 0.21616(16) 0.38079(12)
O2 O 0.93270(9) 0.14073(16) 0.23016(13)
O3 O 0.69025(9) 0.33726(18) 0.00078(13)
O4 O 0.65727(10) 0.4416(2) 0.06604(15)
O5 O 0.89923(9) 0.52200(16) 0.42577(13)
N1 N 1.03544(11) -0.07223(18) 0.38360(15)
N2 N 1.14209(11) -0.06303(19) 0.38369(16)
C1 C 0.98555(15) -0.0751(3) 0.3898(2)
H3 H 0.9677 -0.0027 0.3913
C2 C 0.95867(17) -0.1819(3) 0.3942(2)
H4 H 0.9243 -0.1803 0.3997
C3 C 0.98338(17) -0.2895(3) 0.3902(2)
H5 H 0.9655 -0.3615 0.3924
C4 C 1.03613(15) -0.2904(3) 0.3829(2)
C5 C 1.06508(19) -0.3984(3) 0.3774(2)
H6 H 1.0482 -0.4728 0.3777
C6 C 1.11624(19) -0.3933(3) 0.3719(2)
H7 H 1.1335 -0.4643 0.3674
C7 C 1.14453(15) -0.2802(2) 0.3730(2)
C8 C 1.19883(17) -0.2679(3) 0.3691(2)
H8 H 1.2185 -0.3357 0.3649
C9 C 1.22227(17) -0.1563(3) 0.3715(3)
H9 H 1.2575 -0.1471 0.3680
C10 C 1.19304(16) -0.0556(3) 0.3794(2)
H10 H 1.2100 0.0201 0.3818
C11 C 1.11755(13) -0.1739(2) 0.37905(17)
C12 C 1.06112(13) -0.1787(2) 0.38165(17)
C13 C 0.95738(12) 0.2157(2) 0.29843(17)
C14 C 0.90432(12) 0.3036(2) 0.28178(16)
C15 C 0.83248(12) 0.3065(2) 0.18846(17)
H11 H 0.8190 0.2592 0.1358
C16 C 0.78188(12) 0.3805(2) 0.17543(17)
C17 C 0.80179(13) 0.4523(2) 0.25399(18)
H12 H 0.7673 0.4999 0.2454
C18 C 0.87347(13) 0.4523(2) 0.34506(17)
C19 C 0.92476(12) 0.3779(2) 0.35906(17)
H13 H 0.9726 0.3780 0.4201
C20 C 0.70511(13) 0.3861(2) 0.07525(18)
C21 C 0.85044(16) 0.6065(3) 0.4130(2)
H14 H 0.8324 0.6600 0.3589
H15 H 0.8756 0.6519 0.4735
H16 H 0.8105 0.5643 0.3980
Co1A Co 0.912589(16) 0.08385(3) 0.10813(2)
Co1G Co 0.587411(16) 0.41615(3) -0.10813(2)
O2A O 1.06730(9) 0.14073(16) 0.26984(13)
O3G O 1.19025(9) 0.16274(18) 0.50078(13)
O4G O 1.15727(10) 0.0584(2) 0.56604(15)
O6 O 0.6696(3) 0.6591(5) 0.1440(4)
H1 H 0.6444 0.7185 0.0996
H2 H 0.6693 0.5967 0.1158
loop_
_geom_bond_atom_site_label_1
_geom_bond_atom_site_label_2
_geom_bond_site_symmetry_1
_geom_bond_site_symmetry_2
Co1 O1 1_555 1_555
O1 C13 1_555 1_555
O2 C13 1_555 1_555
O3 C20 1_555 1_555
O4 C20 1_555 1_555
O5 C18 1_555 1_555
O6 H1 1_555 1_555
H2 O6 1_555 1_555
N1 Co1 1_555 1_555
N2 Co1 1_555 1_555
C1 N1 1_555 1_555
H3 C1 1_555 1_555
C2 C1 1_555 1_555
H4 C2 1_555 1_555
C3 C2 1_555 1_555
H5 C3 1_555 1_555
C4 C3 1_555 1_555
C5 C4 1_555 1_555
H6 C5 1_555 1_555
C6 C5 1_555 1_555
H7 C6 1_555 1_555
C7 C6 1_555 1_555
C8 C7 1_555 1_555
H8 C8 1_555 1_555
C9 C8 1_555 1_555
H9 C9 1_555 1_555
C10 N2 1_555 1_555
H10 C10 1_555 1_555
C11 N2 1_555 1_555
C12 N1 1_555 1_555
C13 C14 1_555 1_555
C14 C15 1_555 1_555
C15 H11 1_555 1_555
C16 C15 1_555 1_555
C17 C16 1_555 1_555
H12 C17 1_555 1_555
C18 C17 1_555 1_555
C19 C14 1_555 1_555
H13 C19 1_555 1_555
C20 C16 1_555 1_555
C21 O5 1_555 1_555
H14 C21 1_555 1_555
H15 C21 1_555 1_555
H16 C21 1_555 1_555
Co1A O2 1_555 1_555
Co1G O3 1_555 1_555
O2A Co1 1_555 1_555
O3G Co1 1_555 1_555
O4G Co1 1_555 1_555
O4 Co1G 1_555 1_555
C4 C12 1_555 1_555
C7 C11 1_555 1_555
C9 C10 1_555 1_555
C11 C12 1_555 1_555
C18 C19 1_555 1_555

#END
