
#######################################################################
#
#                 Cambridge Crystallographic Data Centre
#                                CCDC 
#
#######################################################################
#
# If this CIF has been generated from an entry in the Cambridge 
# Structural Database, then it will include bibliographic, chemical, 
# crystal, experimental, refinement or atomic coordinate data resulting 
# from the CCDC's data processing and validation procedures.
#
#######################################################################

data_GUVSEW
_symmetry_cell_setting           monoclinic
_symmetry_space_group_name_H-M   'P 2/c'
_symmetry_Int_Tables_number      13
_space_group_name_Hall           '-P 2yc'
loop_
_symmetry_equiv_pos_site_id
_symmetry_equiv_pos_as_xyz
1 x,y,z
2 -x,y,1/2-z
3 -x,-y,-z
4 x,-y,1/2+z
_cell_length_a                   8.9195(11)
_cell_length_b                   12.3620(15)
_cell_length_c                   17.0211(18)
_cell_angle_alpha                90
_cell_angle_beta                 106.690(5)
_cell_angle_gamma                90
_cell_volume                     1797.73
loop_
_atom_site_label
_atom_site_type_symbol
_atom_site_fract_x
_atom_site_fract_y
_atom_site_fract_z
Zn1 Zn 0.39128(3) 0.79438(2) 0.832601(16)
O1 O 0.3476(2) 0.85734(15) 0.93087(11)
O2 O 0.1640(2) 0.73166(16) 0.91307(12)
O3 O 0.4050(2) 1.12689(15) 1.15598(11)
O4 O 0.2650(2) 1.10548(13) 1.24410(11)
O5 O -0.1452(2) 0.82803(16) 1.10117(14)
N1 N 0.5344(2) 0.66304(16) 0.89764(12)
N2 N 0.2849(2) 0.65289(15) 0.76704(11)
C1 C 0.1847(3) 0.86107(19) 1.01854(14)
C2 C 0.2664(3) 0.94617(19) 1.06589(14)
H1 H 0.3575 0.9724 1.0566
C3 C 0.2113(3) 0.99170(18) 1.12712(14)
C4 C 0.0733(3) 0.95494(19) 1.14013(15)
H2 H 0.0358 0.9865 1.1803
C5 C -0.0082(3) 0.8707(2) 1.09274(16)
C6 C 0.0487(3) 0.8235(2) 1.03322(16)
H3 H -0.0051 0.7658 1.0027
C7 C 0.2338(3) 0.8117(2) 0.94882(15)
C8 C 0.3005(3) 1.08156(19) 1.17993(15)
C9 C -0.2390(3) 0.8942(2) 1.1351(2)
H4 H -0.2018 0.8908 1.1939
H5 H -0.3454 0.8694 1.1171
H6 H -0.2339 0.9675 1.1175
C10 C 0.6587(3) 0.6714(2) 0.96250(16)
H7 H 0.6934 0.7399 0.9820
C11 C 0.7394(3) 0.5814(2) 1.00245(18)
H8 H 0.8264 0.5905 1.0477
C12 C 0.6913(4) 0.4805(3) 0.97554(18)
H9 H 0.7442 0.4201 1.0024
C13 C 0.5600(3) 0.4681(2) 0.90638(17)
C14 C 0.4976(4) 0.3659(2) 0.8722(2)
H10 H 0.5462 0.3022 0.8953
C15 C 0.3693(4) 0.3612(2) 0.8070(2)
H11 H 0.3312 0.2938 0.7863
C16 C 0.2900(3) 0.4562(2) 0.76856(17)
C17 C 0.1562(4) 0.4565(2) 0.70081(19)
H12 H 0.1122 0.3915 0.6778
C18 C 0.0906(3) 0.5520(2) 0.66868(18)
H13 H 0.0016 0.5526 0.6238
C19 C 0.1580(3) 0.6490(2) 0.70363(16)
H14 H 0.1116 0.7137 0.6813
C20 C 0.3493(3) 0.55765(19) 0.79981(15)
C21 C 0.4857(3) 0.56304(19) 0.86988(14)
Zn1B Zn 0.60872(3) 1.20562(2) 1.167399(16)
Zn1C Zn 0.39128(3) 1.20562(2) 1.332601(16)
O3B O 0.5950(2) 0.87311(15) 0.84402(11)
O4C O 0.2650(2) 0.89452(13) 0.74410(11)
loop_
_geom_bond_atom_site_label_1
_geom_bond_atom_site_label_2
_geom_bond_site_symmetry_1
_geom_bond_site_symmetry_2
Zn1 O1 1_555 1_555
O1 C7 1_555 1_555
O2 C7 1_555 1_555
O3 C8 1_555 1_555
O4 C8 1_555 1_555
O5 C5 1_555 1_555
N1 Zn1 1_555 1_555
N2 Zn1 1_555 1_555
C1 C2 1_555 1_555
C2 H1 1_555 1_555
C3 C2 1_555 1_555
C4 C3 1_555 1_555
H2 C4 1_555 1_555
C5 C4 1_555 1_555
C6 C1 1_555 1_555
H3 C6 1_555 1_555
C7 C1 1_555 1_555
C8 C3 1_555 1_555
C9 O5 1_555 1_555
H4 C9 1_555 1_555
H5 C9 1_555 1_555
H6 C9 1_555 1_555
C10 N1 1_555 1_555
H7 C10 1_555 1_555
C11 C10 1_555 1_555
H8 C11 1_555 1_555
C12 C11 1_555 1_555
H9 C12 1_555 1_555
C13 C12 1_555 1_555
C14 C13 1_555 1_555
H10 C14 1_555 1_555
C15 C14 1_555 1_555
H11 C15 1_555 1_555
C16 C15 1_555 1_555
C17 C16 1_555 1_555
H12 C17 1_555 1_555
C18 C17 1_555 1_555
H13 C18 1_555 1_555
C19 N2 1_555 1_555
H14 C19 1_555 1_555
C20 N2 1_555 1_555
C21 N1 1_555 1_555
Zn1B O3 1_555 1_555
Zn1C O4 1_555 1_555
O3B Zn1 1_555 1_555
O4C Zn1 1_555 1_555
C5 C6 1_555 1_555
C13 C21 1_555 1_555
C16 C20 1_555 1_555
C18 C19 1_555 1_555
C20 C21 1_555 1_555

#END
