
#######################################################################
#
#                 Cambridge Crystallographic Data Centre
#                                CCDC 
#
#######################################################################
#
# If this CIF has been generated from an entry in the Cambridge 
# Structural Database, then it will include bibliographic, chemical, 
# crystal, experimental, refinement or atomic coordinate data resulting 
# from the CCDC's data processing and validation procedures.
#
#######################################################################

data_GUVXIF
_symmetry_cell_setting           monoclinic
_symmetry_space_group_name_H-M   'P 21/c'
_symmetry_Int_Tables_number      14
_space_group_name_Hall           '-P 2ybc'
loop_
_symmetry_equiv_pos_site_id
_symmetry_equiv_pos_as_xyz
1 x,y,z
2 -x,1/2+y,1/2-z
3 -x,-y,-z
4 x,1/2-y,1/2+z
_cell_length_a                   3.9625(16)
_cell_length_b                   11.220(4)
_cell_length_c                   15.363(6)
_cell_angle_alpha                90
_cell_angle_beta                 91.766(5)
_cell_angle_gamma                90
_cell_volume                     682.703
loop_
_atom_site_label
_atom_site_type_symbol
_atom_site_fract_x
_atom_site_fract_y
_atom_site_fract_z
Ag1 Ag 0.3805(3) 0.20596(10) 0.22258(6)
Ag2 Ag 0.0802(2) 0.00952(8) 0.39882(6)
Cl1 Cl -0.1051(7) 0.0520(3) 0.22724(19)
S1 S 0.3841(7) 0.3603(3) 0.10727(17)
S2 S 0.6582(7) 0.1490(3) 0.00942(19)
N1 N 0.344(2) 0.3176(8) -0.0659(6)
N2 N 0.430(2) 0.2421(9) -0.1312(6)
C1 C 0.443(2) 0.2819(10) 0.0115(7)
C2 C 0.599(3) 0.1490(11) -0.1011(8)
H1 H 0.6795 0.0889 -0.1368
Ag1_2 Ag -0.6195(3) 0.20596(10) 0.22258(6)
Ag1C Ag 0.3805(3) 0.29404(10) -0.27742(6)
Ag2A Ag -0.0802(2) 0.50952(8) 0.10118(6)
Ag2A_2 Ag 0.9198(2) 0.50952(8) 0.10118(6)
Ag2C Ag 0.0802(2) 0.49048(8) -0.10118(6)
Cl1_2 Cl 0.8949(7) 0.0520(3) 0.22724(19)
S1A S -0.3841(7) -0.1397(3) 0.39273(17)
S1A_2 S 0.6159(7) -0.1397(3) 0.39273(17)
N1C N 0.344(2) 0.1824(8) 0.4341(6)
N2C N 0.430(2) 0.2579(9) 0.3688(6)
loop_
_geom_bond_atom_site_label_1
_geom_bond_atom_site_label_2
_geom_bond_site_symmetry_1
_geom_bond_site_symmetry_2
Ag1 Cl1 1_555 1_555
Ag2 Cl1 1_555 1_555
Cl1 Ag1_2 1_555 1_555
S1 Ag1 1_555 1_555
S2 C1 1_555 1_555
N1 N2 1_555 1_555
N2 C2 1_555 1_555
C1 S1 1_555 1_555
C2 S2 1_555 1_555
H1 C2 1_555 1_555
Ag1C N2 1_555 1_555
Ag2A S1 1_555 1_555
Ag2A_2 S1 1_555 1_555
Ag2C N1 1_555 1_555
Cl1_2 Ag1 1_555 1_555
S1A Ag2 1_555 1_555
S1A_2 Ag2 1_555 1_555
N1C Ag2 1_555 1_555
N2C Ag1 1_555 1_555
N1 C1 1_555 1_555
N1C N2C 1_555 1_555

#END
