
#######################################################################
#
#                 Cambridge Crystallographic Data Centre
#                                CCDC 
#
#######################################################################
#
# If this CIF has been generated from an entry in the Cambridge 
# Structural Database, then it will include bibliographic, chemical, 
# crystal, experimental, refinement or atomic coordinate data resulting 
# from the CCDC's data processing and validation procedures.
#
#######################################################################

data_GUVYUS
_symmetry_cell_setting           triclinic
_symmetry_space_group_name_H-M   'P -1'
_symmetry_Int_Tables_number      2
_space_group_name_Hall           '-P 1'
loop_
_symmetry_equiv_pos_site_id
_symmetry_equiv_pos_as_xyz
1 x,y,z
2 -x,-y,-z
_cell_length_a                   9.774(5)
_cell_length_b                   12.426(5)
_cell_length_c                   13.559(5)
_cell_angle_alpha                73.837(5)
_cell_angle_beta                 84.277(5)
_cell_angle_gamma                78.843(5)
_cell_volume                     1549.94
loop_
_atom_site_label
_atom_site_type_symbol
_atom_site_fract_x
_atom_site_fract_y
_atom_site_fract_z
C1 C 0.9079(4) 0.1314(3) 0.5740(3)
H1 H 0.9224 0.0541 0.5782
C2 C 0.9991(5) 0.1712(4) 0.6230(4)
H2 H 1.0734 0.1213 0.6577
C3 C 0.9783(5) 0.2830(4) 0.6196(4)
H3 H 1.0357 0.3097 0.6547
C4 C 0.8700(4) 0.3585(4) 0.5628(3)
C5 C 0.7842(4) 0.3114(3) 0.5148(3)
C6 C 0.6789(4) 0.3858(3) 0.4503(3)
C7 C 0.5055(4) 0.4051(3) 0.3400(3)
H4 H 0.4518 0.3727 0.3071
C8 C 0.4847(4) 0.5233(3) 0.3185(3)
H5 H 0.4181 0.5680 0.2728
C9 C 0.5627(4) 0.5726(3) 0.3648(4)
H6 H 0.5497 0.6514 0.3513
C10 C 0.6628(4) 0.5040(3) 0.4329(3)
C11 C 0.7479(5) 0.5479(4) 0.4870(4)
H7 H 0.7353 0.6260 0.4788
C12 C 0.8454(5) 0.4789(4) 0.5493(4)
H8 H 0.8980 0.5099 0.5844
C13 C 0.7763(4) 0.1364(3) 0.2695(3)
C14 C 0.8643(4) 0.1387(3) 0.1737(3)
H9 H 0.8220 0.1662 0.1110
C15 C 1.0006(4) 0.1034(3) 0.1741(3)
H10 H 1.0392 0.0734 0.2380
C16 C 1.0966(4) 0.1066(3) 0.0845(3)
C17 C 1.2390(4) 0.0934(4) 0.0948(3)
H11 H 1.2726 0.0787 0.1599
C18 C 1.3328(4) 0.1016(4) 0.0098(3)
H12 H 1.4275 0.0954 0.0183
C19 C 1.2856(4) 0.1191(3) -0.0872(3)
C20 C 1.1431(4) 0.1309(4) -0.0974(3)
H13 H 1.1097 0.1428 -0.1621
C21 C 1.0503(4) 0.1252(4) -0.0138(3)
H14 H 0.9554 0.1340 -0.0229
C22 C 1.3817(4) 0.1258(3) -0.1783(3)
H15 H 1.4610 0.1576 -0.1802
C23 C 1.3623(4) 0.0895(3) -0.2575(3)
H16 H 1.2835 0.0565 -0.2533
C24 C 1.4524(3) 0.0958(3) -0.3517(3)
C25 C 0.7221(4) -0.1482(3) 0.5983(3)
C26 C 0.8453(4) -0.2254(3) 0.6485(3)
H17 H 0.9306 -0.2003 0.6346
C27 C 0.8429(4) -0.3271(3) 0.7113(3)
H18 H 0.7588 -0.3537 0.7185
C28 C 0.9576(4) -0.4036(3) 0.7714(3)
C29 C 0.9348(5) -0.5009(3) 0.8446(4)
H19 H 0.8476 -0.5225 0.8518
C30 C 1.0390(5) -0.5670(4) 0.9075(4)
H20 H 1.0208 -0.6325 0.9564
C31 C 1.1695(4) -0.5381(3) 0.8994(3)
C32 C 1.1946(4) -0.4415(4) 0.8233(3)
H21 H 1.2827 -0.4214 0.8147
C33 C 1.0909(4) -0.3759(3) 0.7610(3)
H22 H 1.1096 -0.3116 0.7107
C34 C 1.2779(5) -0.6053(4) 0.9699(3)
H23 H 1.2480 -0.6544 1.0299
C35 C 1.4111(5) -0.6037(5) 0.9578(4)
H24 H 1.4418 -0.5546 0.8981
C36 C 1.5178(5) -0.6723(5) 1.0297(4)
O1 O 0.8284(3) 0.0887(2) 0.3554(2)
O2 O 0.6484(3) 0.1818(2) 0.26530(19)
O3 O 0.7350(2) -0.0455(2) 0.56111(19)
O4 O 0.6143(2) -0.18879(19) 0.5963(2)
O5 O 1.6396(4) -0.6864(5) 1.0040(3)
O6 O 1.4691(3) -0.7148(3) 1.1224(3)
H25 H 1.5337 -0.7519 1.1583
O7 O 1.5336(3) 0.1664(2) -0.3809(2)
O8 O 1.4424(2) 0.0300(2) -0.40608(18)
Dy1 Dy 0.614623(17) 0.119277(14) 0.456238(13)
N1 N 0.8024(3) 0.1984(3) 0.5221(2)
N2 N 0.5980(3) 0.3362(2) 0.4050(2)
O4A O 0.3857(2) 0.18879(19) 0.4037(2)
O7_2 O 0.5336(3) 0.1664(2) 0.6191(2)
O8_2 O 0.4424(2) 0.0300(2) 0.59392(18)
O8A O 0.5576(2) -0.0300(2) 0.40608(18)
Dy1A Dy 0.385377(17) -0.119277(14) 0.543762(13)
Dy1_2 Dy 1.614623(17) 0.119277(14) -0.543762(13)
Dy1A_2 Dy 1.385377(17) -0.119277(14) -0.456238(13)
O9 O 0.2666(18) 0.7598(17) 0.1807(14)
loop_
_geom_bond_atom_site_label_1
_geom_bond_atom_site_label_2
_geom_bond_site_symmetry_1
_geom_bond_site_symmetry_2
C1 H1 1_555 1_555
C2 C1 1_555 1_555
H2 C2 1_555 1_555
C3 C2 1_555 1_555
H3 C3 1_555 1_555
C4 C3 1_555 1_555
C5 C4 1_555 1_555
C6 C5 1_555 1_555
C7 H4 1_555 1_555
C8 C7 1_555 1_555
H5 C8 1_555 1_555
C9 C8 1_555 1_555
H6 C9 1_555 1_555
C10 C6 1_555 1_555
C11 C10 1_555 1_555
H7 C11 1_555 1_555
C12 C4 1_555 1_555
H8 C12 1_555 1_555
C13 C14 1_555 1_555
C14 H9 1_555 1_555
C15 C14 1_555 1_555
H10 C15 1_555 1_555
C16 C15 1_555 1_555
C17 C16 1_555 1_555
H11 C17 1_555 1_555
C18 C17 1_555 1_555
H12 C18 1_555 1_555
C19 C18 1_555 1_555
C20 C19 1_555 1_555
H13 C20 1_555 1_555
C21 C16 1_555 1_555
H14 C21 1_555 1_555
C22 C19 1_555 1_555
H15 C22 1_555 1_555
C23 C22 1_555 1_555
H16 C23 1_555 1_555
C24 C23 1_555 1_555
C25 C26 1_555 1_555
C26 H17 1_555 1_555
C27 C26 1_555 1_555
H18 C27 1_555 1_555
C28 C27 1_555 1_555
C29 C28 1_555 1_555
H19 C29 1_555 1_555
C30 C29 1_555 1_555
H20 C30 1_555 1_555
C31 C30 1_555 1_555
C32 C31 1_555 1_555
H21 C32 1_555 1_555
C33 C28 1_555 1_555
H22 C33 1_555 1_555
C34 C31 1_555 1_555
H23 C34 1_555 1_555
C35 C34 1_555 1_555
H24 C35 1_555 1_555
C36 C35 1_555 1_555
O1 C13 1_555 1_555
O2 C13 1_555 1_555
O3 C25 1_555 1_555
O4 C25 1_555 1_555
O5 C36 1_555 1_555
O6 C36 1_555 1_555
H25 O6 1_555 1_555
O7 C24 1_555 1_555
O8 C24 1_555 1_555
Dy1 O1 1_555 1_555
N1 C1 1_555 1_555
N2 C6 1_555 1_555
O4A Dy1 1_555 1_555
O7_2 Dy1 1_555 1_555
O8_2 Dy1 1_555 1_555
O8A Dy1 1_555 1_555
Dy1A O4 1_555 1_555
Dy1_2 O7 1_555 1_555
Dy1A_2 O8 1_555 1_555
C5 N1 1_555 1_555
C7 N2 1_555 1_555
C9 C10 1_555 1_555
C11 C12 1_555 1_555
C20 C21 1_555 1_555
C32 C33 1_555 1_555
O2 Dy1 1_555 1_555
O3 Dy1 1_555 1_555
O8 Dy1_2 1_555 1_555
Dy1 N1 1_555 1_555
Dy1 N2 1_555 1_555
O8_2 Dy1A 1_555 1_555
O8A Dy1A 1_555 1_555

#END
