
#######################################################################
#
#                 Cambridge Crystallographic Data Centre
#                                CCDC 
#
#######################################################################
#
# If this CIF has been generated from an entry in the Cambridge 
# Structural Database, then it will include bibliographic, chemical, 
# crystal, experimental, refinement or atomic coordinate data resulting 
# from the CCDC's data processing and validation procedures.
#
#######################################################################

data_GUWBAC
_symmetry_cell_setting           monoclinic
_symmetry_space_group_name_H-M   'C 2/c'
_symmetry_Int_Tables_number      15
_space_group_name_Hall           '-C 2yn'
loop_
_symmetry_equiv_pos_site_id
_symmetry_equiv_pos_as_xyz
1 x,y,z
2 -x,y,1/2-z
3 1/2+x,1/2+y,z
4 1/2-x,1/2+y,1/2-z
5 -x,-y,-z
6 x,-y,1/2+z
7 1/2-x,1/2-y,-z
8 1/2+x,1/2-y,1/2+z
_cell_length_a                   14.7945(9)
_cell_length_b                   15.2763(8)
_cell_length_c                   18.0741(12)
_cell_angle_alpha                90
_cell_angle_beta                 113.290(8)
_cell_angle_gamma                90
_cell_volume                     3751.99
loop_
_atom_site_label
_atom_site_type_symbol
_atom_site_fract_x
_atom_site_fract_y
_atom_site_fract_z
C1 C 0.6099(6) 0.3567(6) -0.0989(5)
H1 H 0.6024 0.4004 -0.1367
C2 C 0.5990(6) 0.2714(6) -0.1146(5)
H2 H 0.5837 0.2453 -0.1646
C3 C 0.6362(5) 0.2923(5) 0.0132(5)
H3 H 0.6508 0.2812 0.0673
C4 C 0.6074(7) 0.1364(6) -0.0307(6)
H4 H 0.6730 0.1127 -0.0026
H5 H 0.5780 0.1072 -0.0824
C5 C 0.5467(6) 0.1179(4) 0.0177(5)
C6 C 0.5948(6) 0.0999(5) 0.0977(6)
H6 H 0.6632 0.0975 0.1202
C7 C 0.5447(11) 0.0857(6) 0.1448(7)
H7 H 0.5795 0.0741 0.1993
C8 C 0.4441(10) 0.0877(6) 0.1149(7)
H8 H 0.4106 0.0782 0.1481
C9 C 0.3937(7) 0.1044(5) 0.0331(7)
H9 H 0.3253 0.1058 0.0109
C10 C 0.4449(5) 0.1189(4) -0.0150(5)
C11 C 0.3854(7) 0.1369(5) -0.1041(5)
H10 H 0.4208 0.1137 -0.1350
H11 H 0.3231 0.1061 -0.1210
C12 C 0.3286(6) 0.2643(5) -0.1987(4)
H12 H 0.3108 0.2336 -0.2469
C13 C 0.3796(5) 0.2962(4) -0.0737(4)
H13 H 0.4046 0.2905 -0.0179
C14 C 0.3225(6) 0.3491(5) -0.1909(4)
H14 H 0.2997 0.3889 -0.2333
C15 C 0.5604(6) 0.5842(6) -0.0951(5)
C16 C 0.5287(11) 0.6555(10) -0.1632(9)
H15 H 0.5160 0.7086 -0.1384
C17 C 0.4214(12) 0.6275(11) -0.2338(10)
H16 H 0.4234 0.5671 -0.2495
H17 H 0.3700 0.6332 -0.2135
C18 C 0.5986(15) 0.6823(13) -0.1998(11)
H18 H 0.5883 0.7431 -0.2165
H19 H 0.6661 0.6751 -0.1615
N1 N 0.6343(4) 0.3707(4) -0.0163(4)
N2 N 0.6147(5) 0.2292(4) -0.0436(4)
N3 N 0.3665(4) 0.2290(4) -0.1223(4)
N4 N 0.3549(4) 0.3709(4) -0.1100(3)
O1 O 0.6502(4) 0.5713(4) -0.0584(3)
O2 O 0.4988(4) 0.5551(4) -0.0710(4)
Cd1 Cd 0.63900(3) 0.49548(3) 0.05319(3)
Cl1 Cl 0.78274(14) 0.44050(13) 0.17583(11)
C1A C 0.3901(6) 0.3567(6) -0.4011(5)
H1A H 0.3976 0.4004 -0.3633
C2A C 0.4010(6) 0.2714(6) -0.3854(5)
H2A H 0.4163 0.2453 -0.3354
C3A C 0.3638(5) 0.2923(5) -0.5132(5)
H3A H 0.3492 0.2812 -0.5673
C4A C 0.3926(7) 0.1364(6) -0.4693(6)
H4A H 0.3270 0.1127 -0.4974
H5A H 0.4220 0.1072 -0.4176
C5A C 0.4533(6) 0.1179(4) -0.5177(5)
C6A C 0.4052(6) 0.0999(5) -0.5977(6)
H6A H 0.3368 0.0975 -0.6202
C7A C 0.4553(11) 0.0857(6) -0.6448(7)
H7A H 0.4205 0.0741 -0.6993
C8A C 0.5559(10) 0.0877(6) -0.6149(7)
H8A H 0.5894 0.0782 -0.6481
C9A C 0.6063(7) 0.1044(5) -0.5331(7)
H9A H 0.6747 0.1058 -0.5109
C10A C 0.5551(5) 0.1189(4) -0.4850(5)
C11A C 0.6146(7) 0.1369(5) -0.3959(5)
H10A H 0.5792 0.1137 -0.3650
H11A H 0.6769 0.1061 -0.3790
C12A C 0.6714(6) 0.2643(5) -0.3013(4)
H12A H 0.6892 0.2336 -0.2531
C13A C 0.6204(5) 0.2962(4) -0.4263(4)
H13A H 0.5954 0.2905 -0.4821
C14A C 0.6775(6) 0.3491(5) -0.3091(4)
H14A H 0.7003 0.3889 -0.2667
C15A C 0.4396(6) 0.5842(6) -0.4049(5)
C16A C 0.4713(11) 0.6555(10) -0.3368(9)
H15A H 0.4840 0.7086 -0.3616
C17A C 0.5786(12) 0.6275(11) -0.2662(10)
H16A H 0.5766 0.5671 -0.2505
H17A H 0.6300 0.6332 -0.2865
C18A C 0.4014(15) 0.6823(13) -0.3002(11)
H18A H 0.4117 0.7431 -0.2835
H19A H 0.3339 0.6751 -0.3385
N1A N 0.3657(4) 0.3707(4) -0.4837(4)
N2A N 0.3853(5) 0.2292(4) -0.4564(4)
N3A N 0.6335(4) 0.2290(4) -0.3777(4)
N4D N 0.6451(4) 0.6291(4) 0.1100(3)
N4E N 0.3549(4) 0.6291(4) -0.6100(3)
N4A N 0.6451(4) 0.3709(4) -0.3900(3)
O1A O 0.3498(4) 0.5713(4) -0.4416(3)
O2A O 0.5012(4) 0.5551(4) -0.4290(4)
O2D O 0.5012(4) 0.4449(4) 0.0710(4)
O2E O 0.4988(4) 0.4449(4) -0.5710(4)
Cd1D Cd 0.36100(3) 0.50452(3) -0.05319(3)
Cd1A Cd 0.36100(3) 0.49548(3) -0.55319(3)
Cd1E Cd 0.63900(3) 0.50452(3) -0.44681(3)
Cl1A Cl 0.21726(14) 0.44050(13) -0.67583(11)
O3 O 1.0000 0.3824(7) 0.2500
loop_
_geom_bond_atom_site_label_1
_geom_bond_atom_site_label_2
_geom_bond_site_symmetry_1
_geom_bond_site_symmetry_2
C1 H1 1_555 1_555
C2 C1 1_555 1_555
H2 C2 1_555 1_555
C3 H3 1_555 1_555
C4 H4 1_555 1_555
H5 C4 1_555 1_555
C5 C4 1_555 1_555
C6 C5 1_555 1_555
H6 C6 1_555 1_555
C7 C6 1_555 1_555
H7 C7 1_555 1_555
C8 C7 1_555 1_555
H8 C8 1_555 1_555
C9 C8 1_555 1_555
H9 C9 1_555 1_555
C10 C5 1_555 1_555
C11 C10 1_555 1_555
H10 C11 1_555 1_555
H11 C11 1_555 1_555
C12 H12 1_555 1_555
C13 H13 1_555 1_555
C14 C12 1_555 1_555
H14 C14 1_555 1_555
C15 C16 1_555 1_555
C16 H15 1_555 1_555
C17 C16 1_555 1_555
H16 C17 1_555 1_555
H17 C17 1_555 1_555
C18 C16 1_555 1_555
H18 C18 1_555 1_555
H19 C18 1_555 1_555
N1 C1 1_555 1_555
N2 C2 1_555 1_555
N3 C11 1_555 1_555
N4 C13 1_555 1_555
O1 C15 1_555 1_555
O2 C15 1_555 1_555
Cd1 N1 1_555 1_555
Cl1 Cd1 1_555 1_555
C1A H1A 1_555 1_555
C2A C1A 1_555 1_555
H2A C2A 1_555 1_555
C3A H3A 1_555 1_555
C4A H4A 1_555 1_555
H5A C4A 1_555 1_555
C5A C4A 1_555 1_555
C6A C5A 1_555 1_555
H6A C6A 1_555 1_555
C7A C6A 1_555 1_555
H7A C7A 1_555 1_555
C8A C7A 1_555 1_555
H8A C8A 1_555 1_555
C9A C8A 1_555 1_555
H9A C9A 1_555 1_555
C10A C5A 1_555 1_555
C11A C10A 1_555 1_555
H10A C11A 1_555 1_555
H11A C11A 1_555 1_555
C12A H12A 1_555 1_555
C13A H13A 1_555 1_555
C14A C12A 1_555 1_555
H14A C14A 1_555 1_555
C15A C16A 1_555 1_555
C16A H15A 1_555 1_555
C17A C18 1_555 1_555
H16A C17A 1_555 1_555
H17A C17A 1_555 1_555
C18A C17 1_555 1_555
H18A C18A 1_555 1_555
H19A C18A 1_555 1_555
N1A C1A 1_555 1_555
N2A C2A 1_555 1_555
N3A C11A 1_555 1_555
N4D Cd1 1_555 1_555
N4E Cd1A 1_555 1_555
N4A C13A 1_555 1_555
O1A C15A 1_555 1_555
O2A C15A 1_555 1_555
O2D Cd1 1_555 1_555
O2E Cd1A 1_555 1_555
Cd1D N4 1_555 1_555
Cd1A N1A 1_555 1_555
Cd1E N4A 1_555 1_555
Cl1A Cd1A 1_555 1_555
C3 N1 1_555 1_555
C3 N2 1_555 1_555
C4 N2 1_555 1_555
C9 C10 1_555 1_555
C12 N3 1_555 1_555
C13 N3 1_555 1_555
C14 N4 1_555 1_555
O1 Cd1 1_555 1_555
O2 Cd1 1_555 1_555
O2 Cd1D 1_555 1_555
C3A N1A 1_555 1_555
C3A N2A 1_555 1_555
C4A N2A 1_555 1_555
C9A C10A 1_555 1_555
C12A N3A 1_555 1_555
C13A N3A 1_555 1_555
C14A N4A 1_555 1_555
C16A C17A 1_555 1_555
C16A C18A 1_555 1_555
O1A Cd1A 1_555 1_555
O2A Cd1A 1_555 1_555
O2A Cd1E 1_555 1_555
O2D Cd1D 1_555 1_555
O2E Cd1E 1_555 1_555

#END
