
#######################################################################
#
#                 Cambridge Crystallographic Data Centre
#                                CCDC 
#
#######################################################################
#
# If this CIF has been generated from an entry in the Cambridge 
# Structural Database, then it will include bibliographic, chemical, 
# crystal, experimental, refinement or atomic coordinate data resulting 
# from the CCDC's data processing and validation procedures.
#
#######################################################################

data_GUWCAD
_symmetry_cell_setting           monoclinic
_symmetry_space_group_name_H-M   'P 21/n'
_symmetry_Int_Tables_number      14
_space_group_name_Hall           '-P 2yn'
loop_
_symmetry_equiv_pos_site_id
_symmetry_equiv_pos_as_xyz
1 x,y,z
2 1/2-x,1/2+y,1/2-z
3 -x,-y,-z
4 1/2+x,1/2-y,1/2+z
_cell_length_a                   7.0415(13)
_cell_length_b                   10.7965(19)
_cell_length_c                   13.725(2)
_cell_angle_alpha                90
_cell_angle_beta                 95.697(2)
_cell_angle_gamma                90
_cell_volume                     1038.27
loop_
_atom_site_label
_atom_site_type_symbol
_atom_site_fract_x
_atom_site_fract_y
_atom_site_fract_z
C1 C 0.8970(5) 0.9058(3) 0.2079(2)
H1 H 0.9970 0.9472 0.2433
C2 C 0.7084(6) 0.8332(4) 0.0954(3)
H2 H 0.6526 0.8160 0.0326
C3 C 0.6421(5) 0.7084(3) 0.3696(2)
H3 H 0.5732 0.6631 0.3204
C4 C 0.7514(5) 0.8086(3) 0.3455(2)
C5 C 0.8340(6) 0.8491(3) 0.5032(2)
H4 H 0.8963 0.8979 0.5523
C6 C 0.7309(5) 0.7492(3) 0.5296(2)
H5 H 0.7275 0.7313 0.5957
C7 C 0.1798(5) 0.5544(3) 0.3254(3)
N1 N 0.6357(4) 0.6772(2) 0.46301(19)
N2 N 0.8487(4) 0.8793(3) 0.4103(2)
N3 N 0.6422(5) 0.7869(3) 0.1735(2)
N4 N 0.8612(4) 0.9069(3) 0.1117(2)
N5 N 0.7673(4) 0.8360(2) 0.24624(19)
N6 N 0.2756(5) 0.5385(3) 0.3976(2)
S1 S 0.0486(2) 0.57506(13) 0.22301(9)
Zn1 Zn 0.5000 0.5000 0.5000
C1B C 0.1030(5) 0.0942(3) 0.7921(2)
H1B H 0.0030 0.0528 0.7567
C2B C 0.2916(6) 0.1668(4) 0.9046(3)
H2B H 0.3474 0.1840 0.9674
C3B C 0.3579(5) 0.2916(3) 0.6304(2)
H3B H 0.4268 0.3369 0.6796
C4B C 0.2486(5) 0.1914(3) 0.6545(2)
C5B C 0.1660(6) 0.1509(3) 0.4968(2)
H4B H 0.1037 0.1021 0.4477
C6B C 0.2691(5) 0.2508(3) 0.4704(2)
H5B H 0.2725 0.2687 0.4043
C7B C 0.8202(5) 0.4456(3) 0.6746(3)
N1B N 0.3643(4) 0.3228(2) 0.53699(19)
N2B N 0.1513(4) 0.1207(3) 0.5897(2)
N3B N 0.3578(5) 0.2131(3) 0.8265(2)
N4B N 0.1388(4) 0.0931(3) 0.8883(2)
N4A N 0.6388(4) 0.4069(3) 0.3883(2)
N4C N 0.3612(4) 0.5931(3) 0.6117(2)
N5B N 0.2327(4) 0.1640(2) 0.75376(19)
N6B N 0.7244(5) 0.4615(3) 0.6024(2)
S1B S 0.9514(2) 0.42494(13) 0.77699(9)
Zn1A Zn 0.0000 0.0000 1.0000
Zn1A_2 Zn 1.0000 1.0000 0.0000
loop_
_geom_bond_atom_site_label_1
_geom_bond_atom_site_label_2
_geom_bond_site_symmetry_1
_geom_bond_site_symmetry_2
C1 H1 1_555 1_555
C2 H2 1_555 1_555
C3 H3 1_555 1_555
C4 C3 1_555 1_555
C5 H4 1_555 1_555
C6 C5 1_555 1_555
H5 C6 1_555 1_555
C7 N6 1_555 1_555
N1 C3 1_555 1_555
N2 C4 1_555 1_555
N3 C2 1_555 1_555
N4 C1 1_555 1_555
N5 C1 1_555 1_555
N6 Zn1 1_555 1_555
S1 C7 1_555 1_555
Zn1 N1 1_555 1_555
C1B H1B 1_555 1_555
C2B H2B 1_555 1_555
C3B H3B 1_555 1_555
C4B C3B 1_555 1_555
C5B H4B 1_555 1_555
C6B C5B 1_555 1_555
H5B C6B 1_555 1_555
C7B N6B 1_555 1_555
N1B Zn1 1_555 1_555
N2B C4B 1_555 1_555
N3B C2B 1_555 1_555
N4B C1B 1_555 1_555
N4A Zn1 1_555 1_555
N4C Zn1 1_555 1_555
N5B C1B 1_555 1_555
N6B Zn1 1_555 1_555
S1B C7B 1_555 1_555
Zn1A N4B 1_555 1_555
Zn1A_2 N4 1_555 1_555
C2 N4 1_555 1_555
C4 N5 1_555 1_555
C5 N2 1_555 1_555
C6 N1 1_555 1_555
N3 N5 1_555 1_555
C2B N4B 1_555 1_555
C3B N1B 1_555 1_555
C4B N5B 1_555 1_555
C5B N2B 1_555 1_555
C6B N1B 1_555 1_555
N3B N5B 1_555 1_555

#END
