
#######################################################################
#
#                 Cambridge Crystallographic Data Centre
#                                CCDC 
#
#######################################################################
#
# If this CIF has been generated from an entry in the Cambridge 
# Structural Database, then it will include bibliographic, chemical, 
# crystal, experimental, refinement or atomic coordinate data resulting 
# from the CCDC's data processing and validation procedures.
#
#######################################################################

data_GUWFUZ
_symmetry_cell_setting           triclinic
_symmetry_space_group_name_H-M   'P -1'
_symmetry_Int_Tables_number      2
_space_group_name_Hall           '-P 1'
loop_
_symmetry_equiv_pos_site_id
_symmetry_equiv_pos_as_xyz
1 x,y,z
2 -x,-y,-z
_cell_length_a                   10.218(2)
_cell_length_b                   13.251(3)
_cell_length_c                   8.210(2)
_cell_angle_alpha                98.42(3)
_cell_angle_beta                 106.65(3)
_cell_angle_gamma                90.30(3)
_cell_volume                     1052.23
loop_
_atom_site_label
_atom_site_type_symbol
_atom_site_fract_x
_atom_site_fract_y
_atom_site_fract_z
Zn1 Zn 0.87218(7) 0.79120(5) 0.51988(9)
N1 N 0.8269(5) 0.9159(3) 0.6612(6)
N2 N 0.7001(5) 0.9192(4) 0.6706(7)
N3 N 0.6912(5) 1.0074(4) 0.7688(7)
N4 N 0.8690(5) 0.6643(3) 0.6326(6)
N5 N 0.7476(5) 0.6328(4) 0.6348(7)
N6 N 0.7594(5) 0.5429(4) 0.6921(6)
N7 N 0.7186(6) 0.7648(4) 0.3127(7)
N8 N 1.0577(6) 0.8090(4) 0.5139(7)
S1 S 0.5048(2) 0.6836(2) 0.0321(3)
S2 S 1.3329(2) 0.7987(2) 0.5353(3)
C1 C 0.9022(6) 1.0027(4) 0.7583(7)
C2 C 1.0384(6) 1.0348(4) 0.7902(7)
H1 H 1.0980(6) 0.9963(4) 0.7427(7)
C3 C 1.0795(7) 1.1267(5) 0.8959(8)
H2 H 1.1704(7) 1.1499(5) 0.9241(8)
C4 C 0.9888(8) 1.1862(5) 0.9624(8)
H3 H 1.0215(8) 1.2488(5) 1.0304(8)
C5 C 0.8531(7) 1.1569(5) 0.9323(8)
H4 H 0.7936(7) 1.1965(5) 0.9786(8)
C6 C 0.8121(6) 1.0621(4) 0.8258(8)
C7 C 0.5618(7) 1.0288(5) 0.8104(9)
H5 H 0.4855(7) 0.9956(5) 0.7174(9)
H6 H 0.5495(7) 1.1018(5) 0.8233(9)
C8 C 0.5648(7) 0.9901(6) 0.9747(10)
H7 H 0.6421(7) 1.0231(6) 1.0665(10)
H8 H 0.5778(7) 0.9172(6) 0.9607(10)
C9 C 0.5072(6) 0.5157(6) 0.5952(8)
H9 H 0.4981(6) 0.5889(6) 0.6171(8)
H10 H 0.4327(6) 0.4827(6) 0.6221(8)
C10 C 0.6400(6) 0.4897(6) 0.7137(9)
H11 H 0.6379(6) 0.5076(6) 0.8317(9)
H12 H 0.6497(6) 0.4166(6) 0.6923(9)
C11 C 0.8921(5) 0.5140(4) 0.7273(7)
C12 C 0.9529(6) 0.4274(4) 0.7897(7)
H13 H 0.9031(6) 0.3744(4) 0.8107(7)
C13 C 1.0921(7) 0.4272(5) 0.8175(8)
H14 H 1.1389(7) 0.3727(5) 0.8621(8)
C14 C 1.1662(6) 0.5064(5) 0.7809(8)
H15 H 1.2601(6) 0.5020(5) 0.8007(8)
C15 C 1.1046(6) 0.5898(4) 0.7169(7)
H16 H 1.1538(6) 0.6417(4) 0.6918(7)
C16 C 0.9617(5) 0.5925(4) 0.6911(7)
C17 C 0.6293(6) 0.7297(4) 0.1966(8)
C18 C 1.1738(7) 0.8045(4) 0.5211(8)
C8A C 0.4352(7) 1.0099(6) 1.0253(10)
C7A C 0.4382(7) 0.9712(5) 1.1896(9)
N3A N 0.3088(5) 0.9926(4) 1.2312(7)
N2A N 0.2999(5) 1.0808(4) 1.3294(7)
N1A N 0.1731(5) 1.0841(3) 1.3388(6)
C1A C 0.0978(6) 0.9973(4) 1.2417(7)
C2A C -0.0384(6) 0.9652(4) 1.2098(7)
H1A H -0.0980(6) 1.0037(4) 1.2573(7)
C3A C -0.0795(7) 0.8733(5) 1.1041(8)
H2A H -0.1704(7) 0.8501(5) 1.0759(8)
C4A C 0.0112(8) 0.8138(5) 1.0376(8)
H3A H -0.0215(8) 0.7512(5) 0.9696(8)
C5A C 0.1469(7) 0.8431(5) 1.0677(8)
H4A H 0.2064(7) 0.8035(5) 1.0214(8)
C6A C 0.1879(6) 0.9379(4) 1.1742(8)
H5A H 0.5145(7) 1.0044(5) 1.2826(9)
H6A H 0.4505(7) 0.8982(5) 1.1767(9)
H7A H 0.3579(7) 0.9769(6) 0.9335(10)
H8A H 0.4222(7) 1.0828(6) 1.0393(10)
C9A C 0.4928(6) 0.4843(6) 0.4048(8)
H9A H 0.5019(6) 0.4111(6) 0.3829(8)
H10A H 0.5673(6) 0.5173(6) 0.3779(8)
C10A C 0.3600(6) 0.5103(6) 0.2863(9)
N6A N 0.2406(5) 0.4571(4) 0.3079(6)
N5A N 0.2524(5) 0.3672(4) 0.3652(7)
N4A N 0.1310(5) 0.3357(3) 0.3674(6)
C16A C 0.0383(5) 0.4075(4) 0.3089(7)
C11A C 0.1079(5) 0.4860(4) 0.2727(7)
C12A C 0.0471(6) 0.5726(4) 0.2103(7)
H13A H 0.0969(6) 0.6256(4) 0.1893(7)
C13A C -0.0921(7) 0.5728(5) 0.1825(8)
H14A H -0.1389(7) 0.6273(5) 0.1379(8)
C14A C -0.1662(6) 0.4936(5) 0.2191(8)
H15A H -0.2601(6) 0.4980(5) 0.1993(8)
C15A C -0.1046(6) 0.4102(4) 0.2831(7)
H16A H -0.1538(6) 0.3583(4) 0.3082(7)
H11A H 0.3621(6) 0.4924(6) 0.1683(9)
H12A H 0.3503(6) 0.5834(6) 0.3077(9)
Zn1A Zn 0.12782(7) 1.20880(5) 1.48012(9)
N7A N 0.2814(6) 1.2352(4) 1.6873(7)
S1A S 0.4952(2) 1.3164(2) 1.9679(3)
C17A C 0.3707(6) 1.2703(4) 1.8034(8)
N8A N -0.0577(6) 1.1910(4) 1.4861(7)
S2A S -0.3329(2) 1.2013(2) 1.4647(3)
C18A C -0.1738(7) 1.1955(4) 1.4789(8)
Zn1A_2 Zn 0.12782(7) 0.20880(5) 0.48012(9)
N4A_2 N 0.1310(5) 1.3357(3) 1.3674(6)
loop_
_geom_bond_atom_site_label_1
_geom_bond_atom_site_label_2
_geom_bond_site_symmetry_1
_geom_bond_site_symmetry_2
Zn1 N1 1_555 1_555
N1 N2 1_555 1_555
N2 N3 1_555 1_555
N3 C6 1_555 1_555
N4 Zn1 1_555 1_555
N5 N4 1_555 1_555
N6 N5 1_555 1_555
N7 Zn1 1_555 1_555
N8 Zn1 1_555 1_555
S1 C17 1_555 1_555
S2 C18 1_555 1_555
C1 N1 1_555 1_555
C2 C1 1_555 1_555
H1 C2 1_555 1_555
C3 C2 1_555 1_555
H2 C3 1_555 1_555
C4 C3 1_555 1_555
H3 C4 1_555 1_555
C5 C4 1_555 1_555
H4 C5 1_555 1_555
C6 C1 1_555 1_555
C7 N3 1_555 1_555
H5 C7 1_555 1_555
H6 C7 1_555 1_555
C8 C7 1_555 1_555
H7 C8 1_555 1_555
H8 C8 1_555 1_555
C9 H9 1_555 1_555
H10 C9 1_555 1_555
C10 N6 1_555 1_555
H11 C10 1_555 1_555
H12 C10 1_555 1_555
C11 N6 1_555 1_555
C12 C11 1_555 1_555
H13 C12 1_555 1_555
C13 C12 1_555 1_555
H14 C13 1_555 1_555
C14 C13 1_555 1_555
H15 C14 1_555 1_555
C15 C14 1_555 1_555
H16 C15 1_555 1_555
C16 N4 1_555 1_555
C17 N7 1_555 1_555
C18 N8 1_555 1_555
C8A C8 1_555 1_555
C7A C8A 1_555 1_555
N3A C7A 1_555 1_555
N2A N3A 1_555 1_555
N1A N2A 1_555 1_555
C1A N1A 1_555 1_555
C2A C1A 1_555 1_555
H1A C2A 1_555 1_555
C3A C2A 1_555 1_555
H2A C3A 1_555 1_555
C4A C3A 1_555 1_555
H3A C4A 1_555 1_555
C5A C4A 1_555 1_555
H4A C5A 1_555 1_555
C6A N3A 1_555 1_555
H5A C7A 1_555 1_555
H6A C7A 1_555 1_555
H7A C8A 1_555 1_555
H8A C8A 1_555 1_555
C9A C9 1_555 1_555
H9A C9A 1_555 1_555
H10A C9A 1_555 1_555
C10A C9A 1_555 1_555
N6A C10A 1_555 1_555
N5A N6A 1_555 1_555
N4A N5A 1_555 1_555
C16A N4A 1_555 1_555
C11A N6A 1_555 1_555
C12A C11A 1_555 1_555
H13A C12A 1_555 1_555
C13A C12A 1_555 1_555
H14A C13A 1_555 1_555
C14A C13A 1_555 1_555
H15A C14A 1_555 1_555
C15A C16A 1_555 1_555
H16A C15A 1_555 1_555
H11A C10A 1_555 1_555
H12A C10A 1_555 1_555
Zn1A N1A 1_555 1_555
N7A Zn1A 1_555 1_555
S1A C17A 1_555 1_555
C17A N7A 1_555 1_555
N8A Zn1A 1_555 1_555
S2A C18A 1_555 1_555
C18A N8A 1_555 1_555
Zn1A_2 N4A 1_555 1_555
N4A_2 Zn1A 1_555 1_555
C5 C6 1_555 1_555
C9 C10 1_555 1_555
C11 C16 1_555 1_555
C15 C16 1_555 1_555
C1A C6A 1_555 1_555
C5A C6A 1_555 1_555
C16A C11A 1_555 1_555
C14A C15A 1_555 1_555

#END
