
#######################################################################
#
#                 Cambridge Crystallographic Data Centre
#                                CCDC 
#
#######################################################################
#
# If this CIF has been generated from an entry in the Cambridge 
# Structural Database, then it will include bibliographic, chemical, 
# crystal, experimental, refinement or atomic coordinate data resulting 
# from the CCDC's data processing and validation procedures.
#
#######################################################################

data_GUWFAG
_symmetry_cell_setting           triclinic
_symmetry_space_group_name_H-M   'P -1'
_symmetry_Int_Tables_number      2
_space_group_name_Hall           '-P 1'
loop_
_symmetry_equiv_pos_site_id
_symmetry_equiv_pos_as_xyz
1 x,y,z
2 -x,-y,-z
_cell_length_a                   6.5766(18)
_cell_length_b                   10.1586(12)
_cell_length_c                   15.805(2)
_cell_angle_alpha                82.040(2)
_cell_angle_beta                 87.574(3)
_cell_angle_gamma                77.314(2)
_cell_volume                     1020.14
loop_
_atom_site_label
_atom_site_type_symbol
_atom_site_fract_x
_atom_site_fract_y
_atom_site_fract_z
C1 C 1.0059(6) 0.1461(4) 0.7406(2)
C2 C 1.0986(6) 0.2696(4) 0.7414(2)
C3 C 0.9648(7) 0.4001(4) 0.7317(3)
H1 H 0.8246 0.4091 0.7201
C4 C 1.0408(6) 0.5148(4) 0.7394(2)
C5 C 1.2451(6) 0.5011(4) 0.7573(3)
H2 H 1.2944 0.5778 0.7647
C6 C 1.3838(7) 0.3733(4) 0.7651(3)
H3 H 1.5245 0.3655 0.7751
C7 C 1.3056(6) 0.2579(4) 0.7572(3)
H4 H 1.3951 0.1726 0.7628
C8 C 0.8924(6) 0.6509(4) 0.7341(3)
C9 C 0.7068(6) 1.1282(4) 0.5752(2)
H5 H 0.6759 1.2058 0.6025
C10 C 0.8006(6) 0.9190(4) 0.5517(2)
H6 H 0.8472 0.8249 0.5598
C11 C 0.7508(6) 0.9969(4) 0.4752(2)
H7 H 0.7553 0.9665 0.4222
C12 C 0.6298(7) 1.2480(4) 0.4259(3)
H8 H 0.5160 1.2348 0.3932
H9 H 0.7461 1.2554 0.3870
C13 C 0.5634(6) 1.3752(4) 0.4647(2)
C14 C 0.3569(7) 1.4239(4) 0.4869(3)
H10 H 0.2580 1.3742 0.4786
C15 C 0.7061(6) 1.4525(4) 0.4783(3)
H11 H 0.8457 1.4224 0.4641
C16 C 1.1145(7) 0.8254(5) 0.9057(3)
H12 H 1.2358 0.7895 0.8769
C17 C 0.8854(7) 0.8947(5) 1.0114(3)
H13 H 0.8290 0.9107 1.0649
C18 C 0.7802(7) 0.9326(4) 0.9335(3)
H14 H 0.6425 0.9796 0.9263
C19 C 1.2971(7) 0.7686(4) 1.0351(3)
H15 H 1.2752 0.7687 1.0962
H16 H 1.3880 0.8308 1.0169
C20 C 1.4140(7) 0.6296(4) 1.0217(3)
C21 C 1.3252(7) 0.5195(5) 1.0457(3)
H17 H 1.1933 0.5349 1.0709
C22 C 1.5812(7) 0.6110(5) 0.9652(3)
H18 H 1.6282 0.6847 0.9358
N1 N 0.7713(5) 1.0017(3) 0.6156(2)
N2 N 0.6924(5) 1.1295(3) 0.4918(2)
N3 N 0.9199(5) 0.8869(3) 0.8676(2)
N4 N 1.0940(6) 0.8274(4) 0.9941(2)
Ni1 Ni 0.84130(8) 0.94701(5) 0.74231(3)
O1 O 0.8149(4) 0.1535(3) 0.75423(16)
O2 O 1.1207(4) 0.0347(3) 0.72751(16)
O3 O 0.6988(4) 0.6562(3) 0.73896(19)
O4 O 0.9776(4) 0.7529(3) 0.72408(16)
O5 O 0.5420(4) 0.9050(3) 0.77283(17)
H19 H 0.5539 0.8209 0.7692
H20 H 0.4630 0.9482 0.7323
C1_2 C 1.0059(6) 1.1461(4) 0.7406(2)
C2_2 C 1.0986(6) 1.2696(4) 0.7414(2)
C3_2 C 0.9648(7) 1.4001(4) 0.7317(3)
H1_2 H 0.8246 1.4091 0.7201
C4_2 C 1.0408(6) 1.5148(4) 0.7394(2)
C5_2 C 1.2451(6) 1.5011(4) 0.7573(3)
H2_2 H 1.2944 1.5778 0.7647
C6_2 C 1.3838(7) 1.3733(4) 0.7651(3)
H3_2 H 1.5245 1.3655 0.7751
C7_2 C 1.3056(6) 1.2579(4) 0.7572(3)
H4_2 H 1.3951 1.1726 0.7628
C8_2 C 0.8924(6) 1.6509(4) 0.7341(3)
C9A C 0.2932(6) 1.8718(4) 0.4248(2)
H5A H 0.3241 1.7942 0.3975
C10A C 0.1994(6) 2.0810(4) 0.4483(2)
H6A H 0.1528 2.1751 0.4402
C11A C 0.2492(6) 2.0031(4) 0.5248(2)
H7A H 0.2447 2.0335 0.5778
C12A C 0.3702(7) 1.7520(4) 0.5741(3)
H8A H 0.4840 1.7652 0.6068
H9A H 0.2539 1.7446 0.6130
C13A C 0.4366(6) 1.6248(4) 0.5353(2)
C14A C 0.6431(7) 1.5761(4) 0.5131(3)
H10A H 0.7420 1.6258 0.5214
C15A C 0.2939(6) 1.5475(4) 0.5217(3)
H11A H 0.1543 1.5776 0.5359
C16A C 1.8855(7) 0.1746(5) 1.0943(3)
H12A H 1.7642 0.2105 1.1231
C17A C 2.1146(7) 0.1053(5) 0.9886(3)
H13A H 2.1710 0.0893 0.9351
C18A C 2.2198(7) 0.0674(4) 1.0665(3)
H14A H 2.3575 0.0204 1.0737
C19A C 1.7029(7) 0.2314(4) 0.9649(3)
H15A H 1.7248 0.2313 0.9038
H16A H 1.6120 0.1692 0.9831
C20A C 1.5860(7) 0.3704(4) 0.9783(3)
C21A C 1.6748(7) 0.4805(5) 0.9543(3)
H17A H 1.8067 0.4651 0.9291
C22A C 1.4188(7) 0.3890(5) 1.0348(3)
H18A H 1.3718 0.3153 1.0642
N1A N 0.2287(5) 1.9983(3) 0.3844(2)
N2A N 0.3076(5) 1.8705(3) 0.5082(2)
N3A N 2.0801(5) 0.1131(3) 1.1324(2)
N3A_2 N 0.0801(5) 2.1131(3) 0.1324(2)
N4A N 1.9060(6) 0.1726(4) 1.0059(2)
Ni1A Ni 0.15870(8) 2.05299(5) 0.25769(3)
Ni1_2 Ni 0.84130(8) -0.05299(5) 0.74231(3)
Ni1A_2 Ni 2.15870(8) 0.05299(5) 1.25769(3)
Ni1_3 Ni 0.84130(8) 1.94701(5) 0.74231(3)
O1_2 O 0.8149(4) 1.1535(3) 0.75423(16)
O1A O 0.1851(4) 1.8465(3) 0.24577(16)
O2_2 O 1.1207(4) 1.0347(3) 0.72751(16)
O2A O -0.1207(4) 1.9653(3) 0.27249(16)
O3_2 O 0.6988(4) 1.6562(3) 0.73896(19)
O4_2 O 0.9776(4) 1.7529(3) 0.72408(16)
O4A O 0.0224(4) 2.2471(3) 0.27592(16)
O5A O 0.4580(4) 2.0950(3) 0.22717(17)
H19A H 0.4461 2.1791 0.2308
H20A H 0.5370 2.0518 0.2677
loop_
_geom_bond_atom_site_label_1
_geom_bond_atom_site_label_2
_geom_bond_site_symmetry_1
_geom_bond_site_symmetry_2
C1 C2 1_555 1_555
C2 C3 1_555 1_555
C3 H1 1_555 1_555
C4 C3 1_555 1_555
C5 C4 1_555 1_555
H2 C5 1_555 1_555
C6 C5 1_555 1_555
H3 C6 1_555 1_555
C7 C2 1_555 1_555
H4 C7 1_555 1_555
C8 C4 1_555 1_555
C9 H5 1_555 1_555
C10 H6 1_555 1_555
C11 C10 1_555 1_555
H7 C11 1_555 1_555
C12 H8 1_555 1_555
H9 C12 1_555 1_555
C13 C12 1_555 1_555
C14 C13 1_555 1_555
H10 C14 1_555 1_555
C15 C13 1_555 1_555
H11 C15 1_555 1_555
C16 H12 1_555 1_555
C17 H13 1_555 1_555
C18 C17 1_555 1_555
H14 C18 1_555 1_555
C19 H15 1_555 1_555
H16 C19 1_555 1_555
C20 C19 1_555 1_555
C21 C20 1_555 1_555
H17 C21 1_555 1_555
C22 C20 1_555 1_555
H18 C22 1_555 1_555
N1 C9 1_555 1_555
N2 C9 1_555 1_555
N3 C16 1_555 1_555
N4 C16 1_555 1_555
Ni1 N1 1_555 1_555
O1 C1 1_555 1_555
O2 C1 1_555 1_555
O3 C8 1_555 1_555
O4 C8 1_555 1_555
O5 Ni1 1_555 1_555
H19 O5 1_555 1_555
H20 O5 1_555 1_555
C1_2 C2_2 1_555 1_555
C2_2 C3_2 1_555 1_555
C3_2 H1_2 1_555 1_555
C4_2 C3_2 1_555 1_555
C5_2 C4_2 1_555 1_555
H2_2 C5_2 1_555 1_555
C6_2 C5_2 1_555 1_555
H3_2 C6_2 1_555 1_555
C7_2 C2_2 1_555 1_555
H4_2 C7_2 1_555 1_555
C8_2 C4_2 1_555 1_555
C9A H5A 1_555 1_555
C10A H6A 1_555 1_555
C11A C10A 1_555 1_555
H7A C11A 1_555 1_555
C12A H8A 1_555 1_555
H9A C12A 1_555 1_555
C13A C12A 1_555 1_555
C14A C15 1_555 1_555
H10A C14A 1_555 1_555
C15A C14 1_555 1_555
H11A C15A 1_555 1_555
C16A H12A 1_555 1_555
C17A H13A 1_555 1_555
C18A C17A 1_555 1_555
H14A C18A 1_555 1_555
C19A H15A 1_555 1_555
H16A C19A 1_555 1_555
C20A C19A 1_555 1_555
C21A C22 1_555 1_555
H17A C21A 1_555 1_555
C22A C21 1_555 1_555
H18A C22A 1_555 1_555
N1A C9A 1_555 1_555
N2A C9A 1_555 1_555
N3A C16A 1_555 1_555
N3A_2 Ni1A 1_555 1_555
N4A C16A 1_555 1_555
Ni1A N1A 1_555 1_555
Ni1_2 O1 1_555 1_555
Ni1A_2 N3A 1_555 1_555
Ni1_3 O4_2 1_555 1_555
O1_2 Ni1 1_555 1_555
O1A Ni1A 1_555 1_555
O2_2 Ni1 1_555 1_555
O2A Ni1A 1_555 1_555
O3_2 C8_2 1_555 1_555
O4_2 C8_2 1_555 1_555
O4A Ni1A 1_555 1_555
O5A Ni1A 1_555 1_555
H19A O5A 1_555 1_555
H20A O5A 1_555 1_555
C6 C7 1_555 1_555
C10 N1 1_555 1_555
C11 N2 1_555 1_555
C12 N2 1_555 1_555
C17 N4 1_555 1_555
C18 N3 1_555 1_555
C19 N4 1_555 1_555
N3 Ni1 1_555 1_555
Ni1 O4 1_555 1_555
O2 Ni1_2 1_555 1_555
C1_2 O1_2 1_555 1_555
C1_2 O2_2 1_555 1_555
C6_2 C7_2 1_555 1_555
C10A N1A 1_555 1_555
C11A N2A 1_555 1_555
C12A N2A 1_555 1_555
C13A C14A 1_555 1_555
C13A C15A 1_555 1_555
C17A N4A 1_555 1_555
C18A N3A 1_555 1_555
C19A N4A 1_555 1_555
C20A C21A 1_555 1_555
C20A C22A 1_555 1_555

#END
