
#######################################################################
#
#                 Cambridge Crystallographic Data Centre
#                                CCDC 
#
#######################################################################
#
# If this CIF has been generated from an entry in the Cambridge 
# Structural Database, then it will include bibliographic, chemical, 
# crystal, experimental, refinement or atomic coordinate data resulting 
# from the CCDC's data processing and validation procedures.
#
#######################################################################

data_GUWFOT
_symmetry_cell_setting           monoclinic
_symmetry_space_group_name_H-M   'C 2/c'
_symmetry_Int_Tables_number      15
_space_group_name_Hall           '-C 2yn'
loop_
_symmetry_equiv_pos_site_id
_symmetry_equiv_pos_as_xyz
1 x,y,z
2 1/2+x,1/2+y,z
3 x,-y,1/2+z
4 1/2+x,1/2-y,1/2+z
5 -x,-y,-z
6 1/2-x,1/2-y,-z
7 -x,y,1/2-z
8 1/2-x,1/2+y,1/2-z
_cell_length_a                   20.731(4)
_cell_length_b                   14.125(3)
_cell_length_c                   15.886(3)
_cell_angle_alpha                90
_cell_angle_beta                 128.71(3)
_cell_angle_gamma                90
_cell_volume                     3629.92
loop_
_atom_site_label
_atom_site_type_symbol
_atom_site_fract_x
_atom_site_fract_y
_atom_site_fract_z
Pb1 Pb 0.5000 0.270800(13) 0.7500
N1 N 0.50107(17) 0.12348(19) 0.6541(2)
N2 N 0.42965(18) 0.0111(2) 0.5278(2)
N3 N 0.04638(18) -0.1672(2) -0.0523(2)
N4 N 0.11702(18) -0.0917(2) 0.1064(2)
N5 N 0.3142(2) 0.3190(3) 0.6429(3)
C1 C 0.5434(2) 0.0376(2) 0.6970(3)
C2 C 0.6188(2) 0.0172(3) 0.7971(3)
H1 H 0.6496 0.0638 0.8492
C3 C 0.6457(3) -0.0760(3) 0.8150(4)
H2 H 0.6957 -0.0925 0.8807
C4 C 0.5988(3) -0.1458(3) 0.7361(5)
H3 H 0.6183 -0.2077 0.7518
C5 C 0.5253(3) -0.1264(3) 0.6365(4)
H4 H 0.4953 -0.1733 0.5845
C6 C 0.4978(2) -0.0330(2) 0.6175(3)
C7 C 0.4343(2) 0.1030(3) 0.5544(3)
H5 H 0.3946 0.1478 0.5075
C8 C 0.3644(2) -0.0309(3) 0.4199(3)
H6 H 0.3890 -0.0792 0.4047
H7 H 0.3424 0.0180 0.3654
C9 C 0.2947(2) -0.0739(3) 0.4124(3)
H8 H 0.2688 -0.0254 0.4255
H9 H 0.3166 -0.1221 0.4677
C10 C 0.2298(2) -0.1184(3) 0.3016(3)
H10 H 0.2562 -0.1671 0.2895
H11 H 0.1881 -0.1489 0.3021
C11 C 0.1872(2) -0.0482(3) 0.2077(3)
H12 H 0.1677 0.0056 0.2242
H13 H 0.2268 -0.0253 0.1990
C12 C 0.1168(2) -0.1285(3) 0.0275(3)
H14 H 0.1626 -0.1265 0.0296
C13 C -0.0048(2) -0.1547(2) -0.0241(3)
C14 C -0.0870(2) -0.1819(3) -0.0787(3)
H15 H -0.1164 -0.2139 -0.1442
C15 C -0.1227(3) -0.1596(3) -0.0317(4)
H16 H -0.1771 -0.1775 -0.0658
C16 C -0.0786(3) -0.1103(3) 0.0668(4)
H17 H -0.1048 -0.0954 0.0957
C17 C 0.0025(3) -0.0837(3) 0.1214(3)
H18 H 0.0317 -0.0514 0.1867
C18 C 0.0385(2) -0.1075(2) 0.0744(3)
O1 O 0.3424(2) 0.2394(2) 0.6501(4)
O2 O 0.2493(2) 0.3255(3) 0.6311(4)
O3 O 0.3554(3) 0.3896(3) 0.6570(3)
N1F N 0.49893(17) 0.12348(19) 0.8459(2)
N2F N 0.57035(18) 0.0111(2) 0.9722(2)
N3F N 0.95362(18) -0.1672(2) 1.5523(2)
N4F N 0.88298(18) -0.0917(2) 1.3936(2)
C1F C 0.4566(2) 0.0376(2) 0.8030(3)
C2F C 0.3812(2) 0.0172(3) 0.7029(3)
H1F H 0.3504 0.0638 0.6508
C3F C 0.3543(3) -0.0760(3) 0.6850(4)
H2F H 0.3043 -0.0925 0.6193
C4F C 0.4012(3) -0.1458(3) 0.7639(5)
H3F H 0.3817 -0.2077 0.7482
C5F C 0.4747(3) -0.1264(3) 0.8635(4)
H4F H 0.5047 -0.1733 0.9155
C6F C 0.5022(2) -0.0330(2) 0.8825(3)
C7F C 0.5657(2) 0.1030(3) 0.9456(3)
H5F H 0.6054 0.1478 0.9925
C8F C 0.6356(2) -0.0309(3) 1.0801(3)
H6F H 0.6110 -0.0792 1.0953
H7F H 0.6576 0.0180 1.1346
C9F C 0.7053(2) -0.0739(3) 1.0876(3)
H8F H 0.7312 -0.0254 1.0745
H9F H 0.6834 -0.1221 1.0323
C10F C 0.7702(2) -0.1184(3) 1.1984(3)
H10F H 0.7438 -0.1671 1.2105
H11F H 0.8119 -0.1489 1.1979
C11F C 0.8128(2) -0.0482(3) 1.2923(3)
H12F H 0.8323 0.0056 1.2758
H13F H 0.7732 -0.0253 1.3010
C12F C 0.8832(2) -0.1285(3) 1.4725(3)
H14F H 0.8374 -0.1265 1.4704
C13F C 1.0048(2) -0.1547(2) 1.5241(3)
C14F C 1.0870(2) -0.1819(3) 1.5787(3)
H15F H 1.1164 -0.2139 1.6442
C15F C 1.1227(3) -0.1596(3) 1.5317(4)
H16F H 1.1771 -0.1775 1.5658
C16F C 1.0786(3) -0.1103(3) 1.4332(4)
H17F H 1.1048 -0.0954 1.4043
C17F C 0.9975(3) -0.0837(3) 1.3786(3)
H18F H 0.9683 -0.0514 1.3133
C18F C 0.9615(2) -0.1075(2) 1.4256(3)
N5F N 0.6858(2) 0.3190(3) 0.8571(3)
O1F O 0.6576(2) 0.2394(2) 0.8499(4)
O2F O 0.7507(2) 0.3255(3) 0.8689(4)
O3F O 0.6446(3) 0.3896(3) 0.8430(3)
N3A N 0.54638(18) 0.3328(2) 0.9477(2)
N3G N 0.45362(18) 0.3328(2) 0.5523(2)
Pb1A Pb 0.0000 -0.229200(13) -0.2500
Pb1A_2 Pb 1.0000 -0.229200(13) 1.7500
loop_
_geom_bond_atom_site_label_1
_geom_bond_atom_site_label_2
_geom_bond_site_symmetry_1
_geom_bond_site_symmetry_2
Pb1 N1 1_555 1_555
N1 C1 1_555 1_555
N2 C6 1_555 1_555
N3 C12 1_555 1_555
N4 C11 1_555 1_555
N5 O1 1_555 1_555
C1 C2 1_555 1_555
C2 H1 1_555 1_555
C3 C2 1_555 1_555
H2 C3 1_555 1_555
C4 C3 1_555 1_555
H3 C4 1_555 1_555
C5 C4 1_555 1_555
H4 C5 1_555 1_555
C6 C1 1_555 1_555
C7 N1 1_555 1_555
H5 C7 1_555 1_555
C8 N2 1_555 1_555
H6 C8 1_555 1_555
H7 C8 1_555 1_555
C9 C8 1_555 1_555
H8 C9 1_555 1_555
H9 C9 1_555 1_555
C10 C9 1_555 1_555
H10 C10 1_555 1_555
H11 C10 1_555 1_555
C11 C10 1_555 1_555
H12 C11 1_555 1_555
H13 C11 1_555 1_555
C12 N4 1_555 1_555
H14 C12 1_555 1_555
C13 N3 1_555 1_555
C14 C13 1_555 1_555
H15 C14 1_555 1_555
C15 C14 1_555 1_555
H16 C15 1_555 1_555
C16 C15 1_555 1_555
H17 C16 1_555 1_555
C17 C16 1_555 1_555
H18 C17 1_555 1_555
C18 N4 1_555 1_555
O1 Pb1 1_555 1_555
O2 N5 1_555 1_555
O3 N5 1_555 1_555
N1F Pb1 1_555 1_555
N2F C6F 1_555 1_555
N3F C12F 1_555 1_555
N4F C11F 1_555 1_555
C1F N1F 1_555 1_555
C2F C1F 1_555 1_555
H1F C2F 1_555 1_555
C3F C2F 1_555 1_555
H2F C3F 1_555 1_555
C4F C3F 1_555 1_555
H3F C4F 1_555 1_555
C5F C4F 1_555 1_555
H4F C5F 1_555 1_555
C6F C1F 1_555 1_555
C7F N1F 1_555 1_555
H5F C7F 1_555 1_555
C8F N2F 1_555 1_555
H6F C8F 1_555 1_555
H7F C8F 1_555 1_555
C9F C8F 1_555 1_555
H8F C9F 1_555 1_555
H9F C9F 1_555 1_555
C10F C9F 1_555 1_555
H10F C10F 1_555 1_555
H11F C10F 1_555 1_555
C11F C10F 1_555 1_555
H12F C11F 1_555 1_555
H13F C11F 1_555 1_555
C12F N4F 1_555 1_555
H14F C12F 1_555 1_555
C13F N3F 1_555 1_555
C14F C13F 1_555 1_555
H15F C14F 1_555 1_555
C15F C14F 1_555 1_555
H16F C15F 1_555 1_555
C16F C15F 1_555 1_555
H17F C16F 1_555 1_555
C17F C16F 1_555 1_555
H18F C17F 1_555 1_555
C18F N4F 1_555 1_555
N5F O1F 1_555 1_555
O1F Pb1 1_555 1_555
O2F N5F 1_555 1_555
O3F N5F 1_555 1_555
N3A Pb1 1_555 1_555
N3G Pb1 1_555 1_555
Pb1A N3 1_555 1_555
Pb1A_2 N3F 1_555 1_555
N2 C7 1_555 1_555
C5 C6 1_555 1_555
C13 C18 1_555 1_555
C17 C18 1_555 1_555
N2F C7F 1_555 1_555
C5F C6F 1_555 1_555
C13F C18F 1_555 1_555
C17F C18F 1_555 1_555

#END
