
#######################################################################
#
#                 Cambridge Crystallographic Data Centre
#                                CCDC 
#
#######################################################################
#
# If this CIF has been generated from an entry in the Cambridge 
# Structural Database, then it will include bibliographic, chemical, 
# crystal, experimental, refinement or atomic coordinate data resulting 
# from the CCDC's data processing and validation procedures.
#
#######################################################################

data_GUWGUB
_symmetry_cell_setting           monoclinic
_symmetry_space_group_name_H-M   'C 2/c'
_symmetry_Int_Tables_number      15
_space_group_name_Hall           '-C 2yn'
loop_
_symmetry_equiv_pos_site_id
_symmetry_equiv_pos_as_xyz
1 x,y,z
2 -x,y,1/2-z
3 1/2+x,1/2+y,z
4 1/2-x,1/2+y,1/2-z
5 -x,-y,-z
6 x,-y,1/2+z
7 1/2-x,1/2-y,-z
8 1/2+x,1/2-y,1/2+z
_cell_length_a                   24.572(13)
_cell_length_b                   6.403(3)
_cell_length_c                   19.442(10)
_cell_angle_alpha                90
_cell_angle_beta                 124.632(5)
_cell_angle_gamma                90
_cell_volume                     2516.92
loop_
_atom_site_label
_atom_site_type_symbol
_atom_site_fract_x
_atom_site_fract_y
_atom_site_fract_z
Zn1 Zn 0.0000 0.39448(5) 0.2500
O1 O -0.00897(10) 0.1871(3) 0.16997(11)
O2 O 0.03092(12) 0.4438(3) 0.13648(13)
N1 N 0.07741(9) 0.5895(3) 0.31903(12)
N2 N 0.13462(10) 0.8766(3) 0.35043(19)
C1 C 0.08688(13) 0.7575(4) 0.28944(18)
H1 H 0.0633 0.7904 0.2329
C2 C 0.12168(12) 0.6017(4) 0.40422(16)
H2 H 0.1263 0.5040 0.4426
C3 C 0.15721(14) 0.7770(5) 0.4231(2)
H3 H 0.1911 0.8217 0.4763
C4 C 0.15417(15) 1.0822(5) 0.3393(3)
H4 H 0.1533 1.1798 0.3768
H5 H 0.1218 1.1288 0.2826
C5 C 0.22206(13) 1.0890(4) 0.3553(2)
C6 C 0.25864(14) 1.2667(5) 0.3890(2)
H6 H 0.2422 1.3757 0.4038
C7 C 0.31913(17) 1.2874(7) 0.4014(2)
H7 H 0.3436 1.4091 0.4251
C8 C 0.34324(18) 1.1318(7) 0.3795(3)
H8 H 0.3841 1.1466 0.3873
C9 C 0.3079(2) 0.9537(7) 0.3459(2)
H9 H 0.3247 0.8460 0.3310
C10 C 0.24679(17) 0.9310(5) 0.3336(2)
H10 H 0.2228 0.8083 0.3107
C11 C 0.00975(12) 0.2652(4) 0.12684(14)
C12 C 0.00479(11) 0.1263(3) 0.06124(13)
C13 C -0.01853(12) -0.0757(4) 0.04997(14)
H11 H -0.0309 -0.1275 0.0838
C14 C 0.02358(11) 0.2008(4) 0.01078(14)
H12 H 0.0397 0.3363 0.0181
Zn1D Zn 0.0000 -0.39448(5) -0.2500
O1D O 0.00897(10) -0.1871(3) -0.16997(11)
O1A O 0.00897(10) 0.1871(3) 0.33003(11)
O2D O -0.03092(12) -0.4438(3) -0.13648(13)
N1A N -0.07741(9) 0.5895(3) 0.18097(12)
N2A N -0.13462(10) 0.8766(3) 0.14957(19)
C1A C -0.08688(13) 0.7575(4) 0.21056(18)
H1A H -0.0633 0.7904 0.2671
C2A C -0.12168(12) 0.6017(4) 0.09578(16)
H2A H -0.1263 0.5040 0.0574
C3A C -0.15721(14) 0.7770(5) 0.0769(2)
H3A H -0.1911 0.8217 0.0237
C4A C -0.15417(15) 1.0822(5) 0.1607(3)
H4A H -0.1533 1.1798 0.1232
H5A H -0.1218 1.1288 0.2174
C5A C -0.22206(13) 1.0890(4) 0.1447(2)
C6A C -0.25864(14) 1.2667(5) 0.1110(2)
H6A H -0.2422 1.3757 0.0962
C7A C -0.31913(17) 1.2874(7) 0.0986(2)
H7A H -0.3436 1.4091 0.0749
C8A C -0.34324(18) 1.1318(7) 0.1205(3)
H8A H -0.3841 1.1466 0.1127
C9A C -0.3079(2) 0.9537(7) 0.1541(2)
H9A H -0.3247 0.8460 0.1690
C10A C -0.24679(17) 0.9310(5) 0.1664(2)
H10A H -0.2228 0.8083 0.1893
C11D C -0.00975(12) -0.2652(4) -0.12684(14)
C12D C -0.00479(11) -0.1263(3) -0.06124(13)
C13D C 0.01853(12) 0.0757(4) -0.04997(14)
H11D H 0.0309 0.1275 -0.0838
C14D C -0.02358(11) -0.2008(4) -0.01078(14)
H12D H -0.0397 -0.3363 -0.0181
loop_
_geom_bond_atom_site_label_1
_geom_bond_atom_site_label_2
_geom_bond_site_symmetry_1
_geom_bond_site_symmetry_2
Zn1 O1 1_555 1_555
O1 C11 1_555 1_555
O2 C11 1_555 1_555
N1 Zn1 1_555 1_555
N2 C1 1_555 1_555
C1 N1 1_555 1_555
H1 C1 1_555 1_555
C2 N1 1_555 1_555
H2 C2 1_555 1_555
C3 N2 1_555 1_555
H3 C3 1_555 1_555
C4 N2 1_555 1_555
H4 C4 1_555 1_555
H5 C4 1_555 1_555
C5 C4 1_555 1_555
C6 C5 1_555 1_555
H6 C6 1_555 1_555
C7 C6 1_555 1_555
H7 C7 1_555 1_555
C8 C7 1_555 1_555
H8 C8 1_555 1_555
C9 C8 1_555 1_555
H9 C9 1_555 1_555
C10 C5 1_555 1_555
H10 C10 1_555 1_555
C11 C12 1_555 1_555
C12 C13 1_555 1_555
C13 H11 1_555 1_555
C14 C12 1_555 1_555
H12 C14 1_555 1_555
Zn1D O1D 1_555 1_555
O1D C11D 1_555 1_555
O1A Zn1 1_555 1_555
O2D C11D 1_555 1_555
N1A Zn1 1_555 1_555
N2A C1A 1_555 1_555
C1A N1A 1_555 1_555
H1A C1A 1_555 1_555
C2A N1A 1_555 1_555
H2A C2A 1_555 1_555
C3A N2A 1_555 1_555
H3A C3A 1_555 1_555
C4A N2A 1_555 1_555
H4A C4A 1_555 1_555
H5A C4A 1_555 1_555
C5A C4A 1_555 1_555
C6A C5A 1_555 1_555
H6A C6A 1_555 1_555
C7A C6A 1_555 1_555
H7A C7A 1_555 1_555
C8A C7A 1_555 1_555
H8A C8A 1_555 1_555
C9A C8A 1_555 1_555
H9A C9A 1_555 1_555
C10A C5A 1_555 1_555
H10A C10A 1_555 1_555
C11D C12D 1_555 1_555
C12D C13D 1_555 1_555
C13D C14 1_555 1_555
H11D C13D 1_555 1_555
C14D C13 1_555 1_555
H12D C14D 1_555 1_555
C2 C3 1_555 1_555
C9 C10 1_555 1_555
C2A C3A 1_555 1_555
C9A C10A 1_555 1_555
C12D C14D 1_555 1_555

#END
