
#######################################################################
#
#                 Cambridge Crystallographic Data Centre
#                                CCDC 
#
#######################################################################
#
# If this CIF has been generated from an entry in the Cambridge 
# Structural Database, then it will include bibliographic, chemical, 
# crystal, experimental, refinement or atomic coordinate data resulting 
# from the CCDC's data processing and validation procedures.
#
#######################################################################

data_GUWGIQ
_symmetry_cell_setting           triclinic
_symmetry_space_group_name_H-M   'P -1'
_symmetry_Int_Tables_number      2
_space_group_name_Hall           '-P 1'
loop_
_symmetry_equiv_pos_site_id
_symmetry_equiv_pos_as_xyz
1 x,y,z
2 -x,-y,-z
_cell_length_a                   14.8527(6)
_cell_length_b                   15.7723(5)
_cell_length_c                   17.4004(6)
_cell_angle_alpha                72.343(3)
_cell_angle_beta                 66.337(4)
_cell_angle_gamma                63.668(3)
_cell_volume                     3306.92
loop_
_atom_site_label
_atom_site_type_symbol
_atom_site_fract_x
_atom_site_fract_y
_atom_site_fract_z
O29 O 0.1255(9) 0.3326(7) 0.3320(6)
O30 O 0.2905(10) 0.1678(8) 0.2613(7)
Cu1 Cu 0.16559(12) 1.06763(10) 0.14556(9)
Cu2 Cu 0.27411(13) 0.46808(10) 0.38195(8)
Mo1 Mo 0.38838(9) 0.00894(8) 0.47899(7)
Mo2 Mo 0.52089(10) 0.23359(8) 0.44388(7)
Mo3 Mo 0.56000(10) 0.08552(8) 0.32650(7)
Mo4 Mo 0.35017(10) 0.15221(8) 0.59744(7)
Mo5 Mo -0.23297(9) 1.65690(7) 0.09508(6)
Mo6 Mo -0.21807(10) 1.43527(7) 0.10477(7)
Mo7 Mo 0.02817(9) 1.46237(7) 0.10169(6)
Mo8 Mo 0.01721(9) 1.28387(7) -0.00019(6)
O1 O 0.6576(8) 0.0455(6) 0.2381(5)
O2 O 0.6346(7) 0.0975(6) 0.4973(5)
O3 O 0.2910(8) 0.1621(6) 0.7010(5)
O4 O 0.5881(9) 0.3000(7) 0.4381(6)
O5 O 0.4171(7) 0.3138(5) 0.4071(5)
O6 O 0.4567(8) 0.1629(6) 0.2908(6)
O7 O 0.3356(7) 0.0325(5) 0.5946(5)
O8 O 0.2907(7) 0.0910(6) 0.4378(5)
O9 O 0.6060(7) 0.1688(6) 0.3471(4)
O10 O 0.4437(7) 0.2180(5) 0.5620(5)
O11 O 0.2563(7) 0.2308(6) 0.5493(5)
O12 O 0.4709(6) 0.0970(5) 0.4680(4)
O13 O -0.3126(8) 1.6621(6) 0.1960(5)
O14 O -0.2812(8) 1.4040(6) 0.0624(6)
O15 O 0.0765(7) 1.5548(5) 0.0411(5)
O16 O -0.0905(7) 1.6313(5) -0.0400(5)
O17 O -0.1211(7) 1.6851(5) 0.0995(4)
O18 O -0.2636(6) 1.5700(5) 0.0619(5)
O19 O -0.0440(8) 1.2514(6) -0.0445(5)
O20 O -0.2964(7) 1.7611(6) 0.0396(6)
O21 O 0.0943(7) 1.1793(5) 0.0429(5)
O22 O -0.1126(7) 1.5031(5) 0.1255(5)
O23 O -0.2852(7) 1.4297(6) 0.2095(5)
O24 O 0.0586(8) 1.4228(7) 0.1926(5)
O25 O -0.0901(6) 1.3269(5) 0.1006(4)
O26 O 0.5049(7) -0.0213(5) 0.3760(5)
C1 C 0.0232(12) 1.2051(8) 0.2656(7)
H1 H 0.0825 1.2209 0.2543
C2 C -0.0753(15) 1.2549(10) 0.3201(9)
H2 H -0.0823 1.3044 0.3449
C3 C -0.1593(17) 1.2328(12) 0.3370(10)
H3 H -0.2247 1.2644 0.3763
C4 C -0.1521(12) 1.1647(10) 0.2982(9)
H4 H -0.2121 1.1512 0.3068
C5 C -0.0496(11) 1.1153(8) 0.2441(8)
C6 C -0.0329(13) 1.0410(9) 0.1996(9)
C7 C -0.0959(15) 0.9973(12) 0.2006(12)
H5 H -0.1687 1.0110 0.2320
C8 C -0.0337(14) 0.9312(12) 0.1482(12)
H6 H -0.0546 0.8902 0.1346
C9 C 0.1603(11) 0.8735(8) 0.0596(8)
H7 H 0.1967 0.9143 0.0148
H8 H 0.1378 0.8436 0.0316
C10 C 0.2374(11) 0.7954(8) 0.1039(8)
C11 C 0.2299(13) 0.7869(8) 0.1866(7)
H9 H 0.1723 0.8322 0.2207
C12 C 0.3040(12) 0.7141(8) 0.2214(7)
H10 H 0.2968 0.7109 0.2788
C13 C 0.3886(10) 0.6455(8) 0.1752(7)
C14 C 0.3902(13) 0.6530(10) 0.0925(8)
H11 H 0.4441 0.6051 0.0592
C15 C 0.3188(12) 0.7251(9) 0.0583(8)
H12 H 0.3246 0.7278 0.0013
C16 C 0.4713(11) 0.5676(8) 0.2092(7)
H13 H 0.4777 0.5057 0.2006
H14 H 0.5399 0.5755 0.1768
C17 C 0.4914(11) 0.6012(9) 0.3322(9)
H15 H 0.5417 0.6309 0.3011
C18 C 0.4481(11) 0.5881(8) 0.4166(8)
H16 H 0.4626 0.6052 0.4570
C19 C 0.3797(9) 0.5456(7) 0.4328(7)
C20 C 0.3044(10) 0.5165(7) 0.5111(6)
C21 C 0.2945(10) 0.5285(8) 0.5901(7)
H17 H 0.3364 0.5566 0.5950
C22 C 0.2244(12) 0.4999(9) 0.6605(8)
H18 H 0.2182 0.5051 0.7155
C23 C 0.1625(12) 0.4630(9) 0.6497(7)
H19 H 0.1112 0.4446 0.6979
C24 C 0.1735(12) 0.4521(8) 0.5697(7)
H20 H 0.1311 0.4259 0.5629
C25 C 0.3871(14) 0.3833(11) 0.2272(7)
H21 H 0.4358 0.3407 0.2570
C26 C 0.4034(14) 0.3694(10) 0.1459(8)
H22 H 0.4634 0.3186 0.1199
C27 C 0.3305(14) 0.4310(12) 0.1047(8)
H23 H 0.3392 0.4217 0.0503
C28 C 0.2463(14) 0.5049(10) 0.1411(8)
H24 H 0.1979 0.5484 0.1113
C29 C 0.2307(12) 0.5172(9) 0.2213(7)
C30 C 0.1391(11) 0.5875(8) 0.2672(7)
C31 C 0.0527(13) 0.6527(10) 0.2417(8)
H25 H 0.0409 0.6610 0.1896
C32 C -0.0125(13) 0.7027(10) 0.3086(8)
H26 H -0.0783 0.7544 0.3110
C33 C -0.0028(12) 0.7012(9) 0.4495(8)
H27 H 0.0187 0.6465 0.4934
H28 H -0.0809 0.7313 0.4688
C34 C 0.0442(11) 0.7735(8) 0.4395(7)
C35 C -0.0104(11) 0.8722(8) 0.4179(8)
H29 H -0.0796 0.8955 0.4140
C36 C 0.0411(13) 0.9352(10) 0.4022(9)
H30 H 0.0053 1.0016 0.3865
C37 C 0.1384(11) 0.9064(8) 0.4082(7)
C38 C 0.1827(11) 0.8108(9) 0.4337(8)
H31 H 0.2510 0.7879 0.4394
C39 C 0.1393(14) 0.7465(9) 0.4513(9)
H32 H 0.1745 0.6818 0.4723
C40 C 0.1940(12) 0.9721(9) 0.3801(8)
H33 H 0.1448 1.0380 0.3674
H34 H 0.2173 0.9706 0.4266
C41 C 0.3861(12) 0.8910(10) 0.3005(9)
H35 H 0.4140 0.8657 0.3467
C42 C 0.4411(11) 0.8753(9) 0.2191(9)
H36 H 0.5140 0.8388 0.1961
C43 C 0.3660(12) 0.9253(8) 0.1777(8)
C44 C 0.3784(12) 0.9382(9) 0.0857(9)
C45 C 0.4734(13) 0.8875(10) 0.0302(10)
H37 H 0.5321 0.8418 0.0483
C46 C 0.4755(13) 0.9098(13) -0.0560(11)
H38 H 0.5385 0.8770 -0.0965
C47 C 0.3946(13) 0.9739(12) -0.0838(10)
H39 H 0.3987 0.9871 -0.1418
C48 C 0.3069(11) 1.0186(10) -0.0239(8)
H40 H 0.2485 1.0650 -0.0420
N1 N 0.0346(9) 1.1354(7) 0.2293(6)
N2 N 0.0676(9) 1.0010(6) 0.1504(7)
N3 N 0.0654(11) 0.9344(7) 0.1184(7)
N4 N 0.4503(9) 0.5645(7) 0.2993(6)
N5 N 0.3770(7) 0.5307(6) 0.3611(5)
N6 N 0.2454(8) 0.4794(6) 0.5023(5)
N7 N 0.3025(9) 0.4570(7) 0.2635(6)
N8 N 0.1302(9) 0.5955(7) 0.3444(6)
N9 N 0.0327(10) 0.6661(7) 0.3690(6)
N10 N 0.2858(10) 0.9481(7) 0.3048(7)
N11 N 0.2727(9) 0.9686(6) 0.2265(6)
N12 N 0.2952(8) 1.0026(7) 0.0606(6)
O27 O 0.1936(7) 0.3788(5) 0.4240(5)
O28 O 0.2333(7) 1.1659(6) 0.1311(5)
Mo1A Mo 0.61162(9) -0.00894(8) 0.52101(7)
Mo3A Mo 0.44000(10) -0.08552(8) 0.67350(7)
Mo4A Mo 0.64983(10) -0.15221(8) 0.40256(7)
Mo6A Mo 0.21807(10) 1.56473(7) -0.10477(7)
Mo7A Mo -0.02817(9) 1.53763(7) -0.10169(6)
Mo8A Mo -0.01721(9) 1.71613(7) 0.00019(6)
O2A O 0.3654(7) -0.0975(6) 0.5027(5)
O7A O 0.6644(7) -0.0325(5) 0.4054(5)
O12A O 0.5291(6) -0.0970(5) 0.5320(4)
O15A O -0.0765(7) 1.4452(5) -0.0411(5)
O16A O 0.0905(7) 1.3687(5) 0.0400(5)
O17A O 0.1211(7) 1.3149(5) -0.0995(4)
O26A O 0.4951(7) 0.0213(5) 0.6240(5)
loop_
_geom_bond_atom_site_label_1
_geom_bond_atom_site_label_2
_geom_bond_site_symmetry_1
_geom_bond_site_symmetry_2
Cu1 O21 1_555 1_555
Cu2 O5 1_555 1_555
Mo1 O7 1_555 1_555
Mo2 O2 1_555 1_555
Mo3 O1 1_555 1_555
Mo4 O3 1_555 1_555
Mo5 O13 1_555 1_555
Mo6 O14 1_555 1_555
Mo7 O15 1_555 1_555
Mo8 O19 1_555 1_555
O2 Mo1A 1_555 1_555
O4 Mo2 1_555 1_555
O5 Mo2 1_555 1_555
O6 Mo3 1_555 1_555
O7 Mo4 1_555 1_555
O8 Mo1 1_555 1_555
O9 Mo2 1_555 1_555
O10 Mo2 1_555 1_555
O11 Mo4 1_555 1_555
O12 Mo1 1_555 1_555
O15 Mo6A 1_555 1_555
O16 Mo5 1_555 1_555
O17 Mo5 1_555 1_555
O18 Mo5 1_555 1_555
O20 Mo5 1_555 1_555
O21 Mo8 1_555 1_555
O22 Mo5 1_555 1_555
O23 Mo6 1_555 1_555
O24 Mo7 1_555 1_555
O25 Mo6 1_555 1_555
O26 Mo1 1_555 1_555
C1 H1 1_555 1_555
C2 C1 1_555 1_555
H2 C2 1_555 1_555
C3 C2 1_555 1_555
H3 C3 1_555 1_555
C4 C3 1_555 1_555
H4 C4 1_555 1_555
C5 C4 1_555 1_555
C6 C5 1_555 1_555
C7 C6 1_555 1_555
H5 C7 1_555 1_555
C8 C7 1_555 1_555
H6 C8 1_555 1_555
C9 H7 1_555 1_555
H8 C9 1_555 1_555
C10 C9 1_555 1_555
C11 C10 1_555 1_555
H9 C11 1_555 1_555
C12 C11 1_555 1_555
H10 C12 1_555 1_555
C13 C12 1_555 1_555
C14 C13 1_555 1_555
H11 C14 1_555 1_555
C15 C10 1_555 1_555
H12 C15 1_555 1_555
C16 C13 1_555 1_555
H13 C16 1_555 1_555
H14 C16 1_555 1_555
C17 H15 1_555 1_555
C18 C17 1_555 1_555
H16 C18 1_555 1_555
C19 C18 1_555 1_555
C20 C19 1_555 1_555
C21 C20 1_555 1_555
H17 C21 1_555 1_555
C22 C21 1_555 1_555
H18 C22 1_555 1_555
C23 C22 1_555 1_555
H19 C23 1_555 1_555
C24 C23 1_555 1_555
H20 C24 1_555 1_555
C25 H21 1_555 1_555
C26 C25 1_555 1_555
H22 C26 1_555 1_555
C27 C26 1_555 1_555
H23 C27 1_555 1_555
C28 C27 1_555 1_555
H24 C28 1_555 1_555
C29 C28 1_555 1_555
C30 C29 1_555 1_555
C31 C30 1_555 1_555
H25 C31 1_555 1_555
C32 C31 1_555 1_555
H26 C32 1_555 1_555
C33 H27 1_555 1_555
H28 C33 1_555 1_555
C34 C33 1_555 1_555
C35 C34 1_555 1_555
H29 C35 1_555 1_555
C36 C35 1_555 1_555
H30 C36 1_555 1_555
C37 C36 1_555 1_555
C38 C37 1_555 1_555
H31 C38 1_555 1_555
C39 C34 1_555 1_555
H32 C39 1_555 1_555
C40 C37 1_555 1_555
H33 C40 1_555 1_555
H34 C40 1_555 1_555
C41 H35 1_555 1_555
C42 C41 1_555 1_555
H36 C42 1_555 1_555
C43 C42 1_555 1_555
C44 C43 1_555 1_555
C45 C44 1_555 1_555
H37 C45 1_555 1_555
C46 C45 1_555 1_555
H38 C46 1_555 1_555
C47 C46 1_555 1_555
H39 C47 1_555 1_555
C48 C47 1_555 1_555
H40 C48 1_555 1_555
N1 Cu1 1_555 1_555
N2 Cu1 1_555 1_555
N3 C8 1_555 1_555
N4 C16 1_555 1_555
N5 Cu2 1_555 1_555
N6 Cu2 1_555 1_555
N7 Cu2 1_555 1_555
N8 Cu2 1_555 1_555
N9 C32 1_555 1_555
N10 C40 1_555 1_555
N11 Cu1 1_555 1_555
N12 Cu1 1_555 1_555
O27 Cu2 1_555 1_555
O28 Cu1 1_555 1_555
Mo1A O12 1_555 1_555
Mo3A O7 1_555 1_555
Mo4A O26 1_555 1_555
Mo7A O16 1_555 1_555
Mo8A O15 1_555 1_555
O2A Mo1 1_555 1_555
O7A Mo3 1_555 1_555
O12A Mo1 1_555 1_555
O15A Mo6 1_555 1_555
O16A Mo7 1_555 1_555
O17A Mo8 1_555 1_555
O26A Mo4 1_555 1_555
Mo2 O12 1_555 1_555
Mo3 O9 1_555 1_555
Mo3 O12 1_555 1_555
Mo3 O26 1_555 1_555
Mo4 O10 1_555 1_555
Mo4 O12 1_555 1_555
Mo6 O18 1_555 1_555
Mo6 O22 1_555 1_555
Mo7 O22 1_555 1_555
Mo8 O25 1_555 1_555
Mo8 O15A 1_555 1_555
Mo8 O16A 1_555 1_555
O16 Mo8A 1_555 1_555
O17 Mo8A 1_555 1_555
C1 N1 1_555 1_555
C5 N1 1_555 1_555
C6 N2 1_555 1_555
C9 N3 1_555 1_555
C14 C15 1_555 1_555
C17 N4 1_555 1_555
C19 N5 1_555 1_555
C20 N6 1_555 1_555
C24 N6 1_555 1_555
C25 N7 1_555 1_555
C29 N7 1_555 1_555
C30 N8 1_555 1_555
C33 N9 1_555 1_555
C38 C39 1_555 1_555
C41 N10 1_555 1_555
C43 N11 1_555 1_555
C44 N12 1_555 1_555
C48 N12 1_555 1_555
N2 N3 1_555 1_555
N4 N5 1_555 1_555
N8 N9 1_555 1_555
N10 N11 1_555 1_555
Mo1A O7A 1_555 1_555
Mo1A O12A 1_555 1_555
Mo1A O26A 1_555 1_555
Mo3A O12A 1_555 1_555
Mo3A O26A 1_555 1_555
Mo4A O7A 1_555 1_555
Mo4A O12A 1_555 1_555
Mo7A O15A 1_555 1_555

#END
