
#######################################################################
#
#                 Cambridge Crystallographic Data Centre
#                                CCDC 
#
#######################################################################
#
# If this CIF has been generated from an entry in the Cambridge 
# Structural Database, then it will include bibliographic, chemical, 
# crystal, experimental, refinement or atomic coordinate data resulting 
# from the CCDC's data processing and validation procedures.
#
#######################################################################

data_GUWGUC
_symmetry_cell_setting           triclinic
_symmetry_space_group_name_H-M   'P -1'
_symmetry_Int_Tables_number      2
_space_group_name_Hall           '-P 1'
loop_
_symmetry_equiv_pos_site_id
_symmetry_equiv_pos_as_xyz
1 x,y,z
2 -x,-y,-z
_cell_length_a                   13.7656(6)
_cell_length_b                   14.8306(6)
_cell_length_c                   16.0531(5)
_cell_angle_alpha                117.470(3)
_cell_angle_beta                 109.431(3)
_cell_angle_gamma                91.167(3)
_cell_volume                     2682.33
loop_
_atom_site_label
_atom_site_type_symbol
_atom_site_fract_x
_atom_site_fract_y
_atom_site_fract_z
Cu1 Cu 0.72161(10) 0.09150(10) 0.29461(9)
C1 C 0.7494(7) 0.2001(8) 0.5208(6)
H1 H 0.7930 0.2573 0.5304
C2 C 0.7346(8) 0.2050(9) 0.6039(7)
H2 H 0.7670 0.2648 0.6694
C3 C 0.6726(8) 0.1221(9) 0.5896(7)
H3 H 0.6610 0.1237 0.6453
C4 C 0.6275(7) 0.0368(8) 0.4949(6)
H4 H 0.5854 -0.0218 0.4846
C5 C 0.6432(6) 0.0364(7) 0.4144(5)
C6 C 0.6000(6) -0.0528(7) 0.3109(6)
C7 C 0.5398(7) -0.1515(8) 0.2698(7)
H5 H 0.5158 -0.1784 0.3046
C8 C 0.5228(8) -0.2007(8) 0.1688(7)
H6 H 0.4832 -0.2690 0.1191
C9 C 0.5802(8) -0.1516(8) 0.0580(6)
H7 H 0.5400 -0.2219 0.0023
H8 H 0.6548 -0.1482 0.0658
C10 C 0.5385(7) -0.0723(8) 0.0294(6)
C11 C 0.5907(8) -0.0276(10) -0.0048(8)
H9 H 0.6556 -0.0456 -0.0084
C12 C 0.4465(9) -0.0430(10) 0.0345(8)
H10 H 0.4075 -0.0715 0.0589
C13 C 0.8945(7) -0.0259(8) 0.4432(7)
H11 H 0.8208 -0.0436 0.4046
C14 C 0.9618(7) -0.0372(7) 0.3951(6)
C15 C 0.9188(8) -0.0785(8) 0.2817(7)
H12 H 0.9587 -0.1306 0.2517
H13 H 0.8445 -0.1147 0.2524
C16 C 0.9846(8) 0.0174(10) 0.2071(8)
H14 H 1.0396 -0.0175 0.1945
C17 C 0.9553(8) 0.0911(9) 0.1840(7)
H15 H 0.9837 0.1184 0.1519
C18 C 0.8734(8) 0.1190(8) 0.2177(6)
C19 C 0.8050(8) 0.1927(8) 0.2106(7)
C20 C 0.8222(10) 0.2565(9) 0.1742(7)
H16 H 0.8802 0.2569 0.1548
C21 C 0.7503(12) 0.3214(10) 0.1670(9)
H17 H 0.7565 0.3643 0.1389
C22 C 0.6713(12) 0.3218(9) 0.2011(9)
H18 H 0.6238 0.3669 0.1985
C23 C 0.6599(9) 0.2575(9) 0.2391(8)
H19 H 0.6039 0.2581 0.2613
N1 N 0.7040(5) 0.1170(6) 0.4270(5)
N2 N 0.6194(5) -0.0437(5) 0.2386(5)
N3 N 0.5724(6) -0.1349(6) 0.1524(5)
N4 N 0.9235(6) 0.0008(6) 0.2512(5)
N5 N 0.8540(6) 0.0630(6) 0.2583(5)
N6 N 0.7268(7) 0.1941(6) 0.2453(5)
C24 C 1.0692(7) -0.0113(8) 0.4515(7)
H20 H 1.1177 -0.0185 0.4195
C1A C 0.2506(7) -0.2001(8) -0.5208(6)
H1A H 0.2070 -0.2573 -0.5304
C2A C 0.2654(8) -0.2050(9) -0.6039(7)
H2A H 0.2330 -0.2648 -0.6694
C3A C 0.3274(8) -0.1221(9) -0.5896(7)
H3A H 0.3390 -0.1237 -0.6453
C4A C 0.3725(7) -0.0368(8) -0.4949(6)
H4A H 0.4146 0.0218 -0.4846
C5A C 0.3568(6) -0.0364(7) -0.4144(5)
C6A C 0.4000(6) 0.0528(7) -0.3109(6)
C7A C 0.4602(7) 0.1515(8) -0.2698(7)
H5A H 0.4842 0.1784 -0.3046
C8A C 0.4772(8) 0.2007(8) -0.1688(7)
H6A H 0.5168 0.2690 -0.1191
C9A C 0.4198(8) 0.1516(8) -0.0580(6)
H7A H 0.4600 0.2219 -0.0023
H8A H 0.3452 0.1482 -0.0658
C10A C 0.4615(7) 0.0723(8) -0.0294(6)
C11A C 0.4093(8) 0.0276(10) 0.0048(8)
H9A H 0.3444 0.0456 0.0084
C12A C 0.5535(9) 0.0430(10) -0.0345(8)
H10A H 0.5925 0.0715 -0.0589
N1A N 0.2960(5) -0.1170(6) -0.4270(5)
N2A N 0.3806(5) 0.0437(5) -0.2386(5)
N3A N 0.4276(6) 0.1349(6) -0.1524(5)
C13A C 1.1055(7) 0.0259(8) 0.5568(7)
H11A H 1.1792 0.0436 0.5954
C14A C 1.0382(7) 0.0372(7) 0.6049(6)
C15A C 1.0812(8) 0.0785(8) 0.7183(7)
H12A H 1.0413 0.1306 0.7483
H13A H 1.1555 0.1147 0.7476
C16A C 1.0154(8) -0.0174(10) 0.7929(8)
H14A H 0.9604 0.0175 0.8055
C17A C 1.0447(8) -0.0911(9) 0.8160(7)
H15A H 1.0163 -0.1184 0.8481
C18A C 1.1266(8) -0.1190(8) 0.7823(6)
C19A C 1.1950(8) -0.1927(8) 0.7894(7)
C20A C 1.1778(10) -0.2565(9) 0.8258(7)
H16A H 1.1198 -0.2569 0.8452
C21A C 1.2497(12) -0.3214(10) 0.8330(9)
H17A H 1.2435 -0.3643 0.8611
C22A C 1.3287(12) -0.3218(9) 0.7989(9)
H18A H 1.3762 -0.3669 0.8015
C23A C 1.3401(9) -0.2575(9) 0.7609(8)
H19A H 1.3961 -0.2581 0.7387
N4A N 1.0765(6) -0.0008(6) 0.7488(5)
N5A N 1.1460(6) -0.0630(6) 0.7417(5)
N6A N 1.2732(7) -0.1941(6) 0.7547(5)
C24A C 0.9308(7) 0.0113(8) 0.5485(7)
H20A H 0.8823 0.0185 0.5805
Cu1A Cu 0.27839(10) -0.09150(10) -0.29461(9)
Cu1A_2 Cu 1.27839(10) -0.09150(10) 0.70539(9)
N5A_2 N 0.1460(6) -0.0630(6) -0.2583(5)
N6A_2 N 0.2732(7) -0.1941(6) -0.2453(5)
Cu2 Cu 0.30697(11) 0.26815(13) 0.47389(10)
C25 C 0.3244(12) 0.0605(12) 0.3091(12)
H21 H 0.3633 0.0468 0.3617
C26 C 0.2999(13) -0.0146(11) 0.2135(13)
H22 H 0.3208 -0.0790 0.1997
C27 C 0.2449(10) 0.0019(11) 0.1363(10)
H23 H 0.2251 -0.0516 0.0677
C28 C 0.2177(9) 0.0970(11) 0.1580(9)
H24 H 0.1795 0.1106 0.1051
C29 C 0.2482(8) 0.1729(9) 0.2608(8)
C30 C 0.2183(7) 0.2740(9) 0.2899(7)
C31 C 0.1771(8) 0.3239(10) 0.2344(8)
H25 H 0.1570 0.2969 0.1633
C32 C 0.1720(9) 0.4198(11) 0.3041(9)
H26 H 0.1471 0.4727 0.2905
C33 C 0.2073(8) 0.5085(9) 0.4911(7)
H27 H 0.2309 0.5766 0.4991
H28 H 0.2578 0.5035 0.5486
C34 C 0.0990(8) 0.5035(8) 0.4955(7)
C35 C 0.0821(10) 0.4826(11) 0.5604(10)
H29 H 0.1378 0.4689 0.6043
C36 C 0.0176(11) 0.5202(12) 0.4333(10)
H30 H 0.0275 0.5341 0.3842
C37 C 0.0979(9) 0.2243(10) 0.4905(10)
H31 H 0.0706 0.1885 0.4183
C38 C 0.0294(13) 0.2305(12) 0.5338(12)
H32 H -0.0436 0.2015 0.4947
C39 C 0.0688(13) 0.2800(11) 0.6355(12)
H33 H 0.0216 0.2844 0.6684
C40 C 0.1716(11) 0.3240(10) 0.6943(9)
H34 H 0.1978 0.3588 0.7665
C41 C 0.2382(9) 0.3142(9) 0.6393(7)
C42 C 0.3386(6) 0.3593(7) 0.6839(7)
C43 C 0.4016(8) 0.4226(8) 0.7845(7)
H35 H 0.3814 0.4413 0.8405
C44 C 0.4989(7) 0.4543(7) 0.7901(7)
H36 H 0.5580 0.4988 0.8507
N7 N 0.4960(6) 0.4106(7) 0.6930(7)
N8 N 0.3969(6) 0.3519(6) 0.6273(5)
C45 C 0.5624(14) 0.4107(14) 0.6453(13)
H37 H 0.5580 0.3380 0.5951
H38 H 0.6355 0.4383 0.6967
C46 C 0.5401(18) 0.4742(16) 0.5905(13)
C47 C 0.5180(10) 0.4180(12) 0.4922(11)
H39 H 0.5297 0.3496 0.4738
C48 C 0.522(2) 0.5658(17) 0.600(2)
H40 H 0.5339 0.6222 0.6659
N9 N 0.2982(7) 0.1555(8) 0.3377(6)
N10 N 0.2387(6) 0.3382(7) 0.3898(6)
N11 N 0.2087(6) 0.4253(7) 0.3952(6)
N12 N 0.1999(7) 0.2628(7) 0.5379(5)
C25A C -0.3244(12) 0.9395(12) 0.6909(12)
H21A H -0.3633 0.9532 0.6383
C26A C -0.2999(13) 1.0146(11) 0.7865(13)
H22A H -0.3208 1.0790 0.8003
C27A C -0.2449(10) 0.9981(11) 0.8637(10)
H23A H -0.2251 1.0516 0.9323
C28A C -0.2177(9) 0.9030(11) 0.8420(9)
H24A H -0.1795 0.8894 0.8949
C29A C -0.2482(8) 0.8271(9) 0.7392(8)
C30A C -0.2183(7) 0.7260(9) 0.7101(7)
C31A C -0.1771(8) 0.6761(10) 0.7656(8)
H25A H -0.1570 0.7031 0.8367
C32A C -0.1720(9) 0.5802(11) 0.6959(9)
H26A H -0.1471 0.5273 0.7095
C33A C -0.2073(8) 0.4915(9) 0.5089(7)
H27A H -0.2309 0.4234 0.5009
H28A H -0.2578 0.4965 0.4514
C34A C -0.0990(8) 0.4965(8) 0.5045(7)
C35A C -0.0821(10) 0.5174(11) 0.4396(10)
H29A H -0.1378 0.5311 0.3957
C36A C -0.0176(11) 0.4798(12) 0.5667(10)
H30A H -0.0275 0.4659 0.6158
N9A N -0.2982(7) 0.8445(8) 0.6623(6)
N10A N -0.2387(6) 0.6618(7) 0.6102(6)
N11A N -0.2087(6) 0.5747(7) 0.6048(6)
C37A C 0.9021(9) 0.7757(10) 0.5095(10)
H31A H 0.9294 0.8115 0.5817
C38A C 0.9706(13) 0.7695(12) 0.4662(12)
H32A H 1.0436 0.7985 0.5053
C39A C 0.9312(13) 0.7200(11) 0.3645(12)
H33A H 0.9784 0.7156 0.3316
C40A C 0.8284(11) 0.6760(10) 0.3057(9)
H34A H 0.8022 0.6412 0.2335
C41A C 0.7618(9) 0.6858(9) 0.3607(7)
C42A C 0.6614(6) 0.6407(7) 0.3161(7)
C43A C 0.5984(8) 0.5774(8) 0.2155(7)
H35A H 0.6186 0.5587 0.1595
C44A C 0.5011(7) 0.5457(7) 0.2099(7)
H36A H 0.4420 0.5012 0.1493
N7A N 0.5040(6) 0.5894(7) 0.3070(7)
N8A N 0.6031(6) 0.6481(6) 0.3727(5)
C45A C 0.4376(14) 0.5893(14) 0.3547(13)
H37A H 0.4420 0.6620 0.4049
H38A H 0.3645 0.5617 0.3033
C46A C 0.4599(18) 0.5258(16) 0.4095(13)
C47A C 0.4820(10) 0.5820(12) 0.5078(11)
H39A H 0.4703 0.6504 0.5262
C48A C 0.478(2) 0.4342(17) 0.400(2)
H40A H 0.4661 0.3778 0.3341
N12A N 0.8001(7) 0.7372(7) 0.4621(5)
Cu2A Cu -0.30697(11) 0.73185(13) 0.52611(10)
Cu2A_2 Cu 0.69303(11) 0.73185(13) 0.52611(10)
N8A_2 N -0.3969(6) 0.6481(6) 0.3727(5)
N12A_2 N -0.1999(7) 0.7372(7) 0.4621(5)
Mo1 Mo 0.02131(5) -0.47189(6) 0.12754(5)
Mo2 Mo 0.24203(6) -0.39443(6) 0.05767(5)
Mo3 Mo 0.05548(6) -0.25769(6) 0.06128(5)
Mo4 Mo 0.21156(6) -0.65652(6) -0.01103(5)
O1 O 0.0841(4) -0.4024(4) 0.0837(4)
O2 O 0.0782(5) -0.4064(5) 0.2577(4)
O3 O 0.3112(4) -0.3054(5) 0.1819(4)
O4 O -0.1154(4) -0.4745(4) 0.0923(4)
O5 O 0.2736(5) -0.6852(5) -0.0928(4)
O6 O 0.1651(4) -0.3085(4) 0.0147(4)
O7 O 0.0209(5) -0.1805(5) 0.0095(5)
O8 O 0.2472(4) -0.5156(5) 0.0787(4)
O9 O 0.2639(5) -0.7136(5) 0.0595(5)
O10 O 0.1280(4) -0.1726(5) 0.1868(4)
O11 O 0.0470(4) -0.5977(4) 0.0879(4)
O12 O 0.0721(5) -0.7196(5) -0.0864(4)
O13 O 0.3303(4) -0.4102(5) 0.0015(4)
Mo1A Mo -0.02131(5) -0.52811(6) -0.12754(5)
Mo2A Mo -0.24203(6) -0.60557(6) -0.05767(5)
Mo3A Mo -0.05548(6) -0.74231(6) -0.06128(5)
Mo4A Mo -0.21156(6) -0.34348(6) 0.01103(5)
O1A O -0.0841(4) -0.5976(4) -0.0837(4)
O2A O -0.0782(5) -0.5936(5) -0.2577(4)
O3A O -0.3112(4) -0.6946(5) -0.1819(4)
O4A O 0.1154(4) -0.5255(4) -0.0923(4)
O5A O -0.2736(5) -0.3148(5) 0.0928(4)
O6A O -0.1651(4) -0.6915(4) -0.0147(4)
O7A O -0.0209(5) -0.8195(5) -0.0095(5)
O8A O -0.2472(4) -0.4844(5) -0.0787(4)
O9A O -0.2639(5) -0.2864(5) -0.0595(5)
O10A O -0.1280(4) -0.8274(5) -0.1868(4)
O11A O -0.0470(4) -0.4023(4) -0.0879(4)
O12A O -0.0721(5) -0.2804(5) 0.0864(4)
O13A O -0.3303(4) -0.5898(5) -0.0015(4)
loop_
_geom_bond_atom_site_label_1
_geom_bond_atom_site_label_2
_geom_bond_site_symmetry_1
_geom_bond_site_symmetry_2
Cu1 N1 1_555 1_555
C1 H1 1_555 1_555
C2 C1 1_555 1_555
H2 C2 1_555 1_555
C3 C2 1_555 1_555
H3 C3 1_555 1_555
C4 C3 1_555 1_555
H4 C4 1_555 1_555
C5 C4 1_555 1_555
C6 C5 1_555 1_555
C7 C6 1_555 1_555
H5 C7 1_555 1_555
C8 C7 1_555 1_555
H6 C8 1_555 1_555
C9 H7 1_555 1_555
H8 C9 1_555 1_555
C10 C9 1_555 1_555
C11 C10 1_555 1_555
H9 C11 1_555 1_555
C12 C10 1_555 1_555
H10 C12 1_555 1_555
C13 H11 1_555 1_555
C14 C13 1_555 1_555
C15 C14 1_555 1_555
H12 C15 1_555 1_555
H13 C15 1_555 1_555
C16 H14 1_555 1_555
C17 C16 1_555 1_555
H15 C17 1_555 1_555
C18 C17 1_555 1_555
C19 C18 1_555 1_555
C20 C19 1_555 1_555
H16 C20 1_555 1_555
C21 C20 1_555 1_555
H17 C21 1_555 1_555
C22 C21 1_555 1_555
H18 C22 1_555 1_555
C23 C22 1_555 1_555
H19 C23 1_555 1_555
N1 C1 1_555 1_555
N2 Cu1 1_555 1_555
N3 C8 1_555 1_555
N4 C15 1_555 1_555
N5 Cu1 1_555 1_555
N6 Cu1 1_555 1_555
C24 C14 1_555 1_555
H20 C24 1_555 1_555
Cu2 N8 1_555 1_555
C25 H21 1_555 1_555
C26 C25 1_555 1_555
H22 C26 1_555 1_555
C27 C26 1_555 1_555
H23 C27 1_555 1_555
C28 C27 1_555 1_555
H24 C28 1_555 1_555
C29 C28 1_555 1_555
C30 C29 1_555 1_555
C31 C30 1_555 1_555
H25 C31 1_555 1_555
C32 C31 1_555 1_555
H26 C32 1_555 1_555
C33 H27 1_555 1_555
H28 C33 1_555 1_555
C34 C33 1_555 1_555
C35 C34 1_555 1_555
H29 C35 1_555 1_555
C36 C34 1_555 1_555
H30 C36 1_555 1_555
C37 H31 1_555 1_555
C38 C37 1_555 1_555
H32 C38 1_555 1_555
C39 C38 1_555 1_555
H33 C39 1_555 1_555
C40 C39 1_555 1_555
H34 C40 1_555 1_555
C41 C40 1_555 1_555
C42 C41 1_555 1_555
C43 C42 1_555 1_555
H35 C43 1_555 1_555
C44 C43 1_555 1_555
H36 C44 1_555 1_555
N7 C44 1_555 1_555
N8 C42 1_555 1_555
C45 N7 1_555 1_555
H37 C45 1_555 1_555
H38 C45 1_555 1_555
C46 C45 1_555 1_555
C47 C46 1_555 1_555
H39 C47 1_555 1_555
C48 C46 1_555 1_555
H40 C48 1_555 1_555
N9 Cu2 1_555 1_555
N10 Cu2 1_555 1_555
N11 C32 1_555 1_555
N12 Cu2 1_555 1_555
Mo1 O1 1_555 1_555
Mo2 O1 1_555 1_555
Mo3 O1 1_555 1_555
Mo4 O5 1_555 1_555
O2 Mo1 1_555 1_555
O3 Mo2 1_555 1_555
O4 Mo1 1_555 1_555
O6 Mo2 1_555 1_555
O7 Mo3 1_555 1_555
O8 Mo2 1_555 1_555
O9 Mo4 1_555 1_555
O10 Mo3 1_555 1_555
O11 Mo1 1_555 1_555
O12 Mo4 1_555 1_555
O13 Mo2 1_555 1_555
C1A H1A 1_555 1_555
C2A C1A 1_555 1_555
H2A C2A 1_555 1_555
C3A C2A 1_555 1_555
H3A C3A 1_555 1_555
C4A C3A 1_555 1_555
H4A C4A 1_555 1_555
C5A C4A 1_555 1_555
C6A C5A 1_555 1_555
C7A C6A 1_555 1_555
H5A C7A 1_555 1_555
C8A C7A 1_555 1_555
H6A C8A 1_555 1_555
C9A H7A 1_555 1_555
H8A C9A 1_555 1_555
C10A C9A 1_555 1_555
C11A C12 1_555 1_555
H9A C11A 1_555 1_555
C12A C11 1_555 1_555
H10A C12A 1_555 1_555
N1A C1A 1_555 1_555
N2A C6A 1_555 1_555
N3A C8A 1_555 1_555
C13A C24 1_555 1_555
H11A C13A 1_555 1_555
C14A C13A 1_555 1_555
C15A C14A 1_555 1_555
H12A C15A 1_555 1_555
H13A C15A 1_555 1_555
C16A H14A 1_555 1_555
C17A C16A 1_555 1_555
H15A C17A 1_555 1_555
C18A C17A 1_555 1_555
C19A C18A 1_555 1_555
C20A C19A 1_555 1_555
H16A C20A 1_555 1_555
C21A C20A 1_555 1_555
H17A C21A 1_555 1_555
C22A C21A 1_555 1_555
H18A C22A 1_555 1_555
C23A C22A 1_555 1_555
H19A C23A 1_555 1_555
N4A C15A 1_555 1_555
N5A C18A 1_555 1_555
N6A C19A 1_555 1_555
C24A C13 1_555 1_555
H20A C24A 1_555 1_555
Cu1A N1A 1_555 1_555
Cu1A_2 N5A 1_555 1_555
N5A_2 Cu1A 1_555 1_555
N6A_2 Cu1A 1_555 1_555
C25A H21A 1_555 1_555
C26A C25A 1_555 1_555
H22A C26A 1_555 1_555
C27A C26A 1_555 1_555
H23A C27A 1_555 1_555
C28A C27A 1_555 1_555
H24A C28A 1_555 1_555
C29A C28A 1_555 1_555
C30A C29A 1_555 1_555
C31A C30A 1_555 1_555
H25A C31A 1_555 1_555
C32A C31A 1_555 1_555
H26A C32A 1_555 1_555
C33A H27A 1_555 1_555
H28A C33A 1_555 1_555
C34A C33A 1_555 1_555
C35A C36 1_555 1_555
H29A C35A 1_555 1_555
C36A C35 1_555 1_555
H30A C36A 1_555 1_555
N9A C25A 1_555 1_555
N10A C30A 1_555 1_555
N11A C32A 1_555 1_555
C37A H31A 1_555 1_555
C38A C37A 1_555 1_555
H32A C38A 1_555 1_555
C39A C38A 1_555 1_555
H33A C39A 1_555 1_555
C40A C39A 1_555 1_555
H34A C40A 1_555 1_555
C41A C40A 1_555 1_555
C42A C41A 1_555 1_555
C43A C42A 1_555 1_555
H35A C43A 1_555 1_555
C44A C43A 1_555 1_555
H36A C44A 1_555 1_555
N7A C44A 1_555 1_555
N8A C42A 1_555 1_555
C45A N7A 1_555 1_555
H37A C45A 1_555 1_555
H38A C45A 1_555 1_555
C46A C45A 1_555 1_555
C47A C48 1_555 1_555
H39A C47A 1_555 1_555
C48A C47 1_555 1_555
H40A C48A 1_555 1_555
N12A C37A 1_555 1_555
Cu2A N9A 1_555 1_555
Cu2A_2 N8A 1_555 1_555
N8A_2 Cu2A 1_555 1_555
N12A_2 Cu2A 1_555 1_555
Mo1A O1A 1_555 1_555
Mo2A O4 1_555 1_555
Mo3A O11 1_555 1_555
Mo4A O5A 1_555 1_555
O1A Mo2A 1_555 1_555
O2A Mo1A 1_555 1_555
O3A Mo2A 1_555 1_555
O4A Mo2 1_555 1_555
O6A Mo2A 1_555 1_555
O7A Mo3A 1_555 1_555
O8A Mo2A 1_555 1_555
O9A Mo4A 1_555 1_555
O10A Mo3A 1_555 1_555
O11A Mo3 1_555 1_555
O12A Mo3 1_555 1_555
O13A Mo2A 1_555 1_555
C5 N1 1_555 1_555
C6 N2 1_555 1_555
C9 N3 1_555 1_555
C16 N4 1_555 1_555
C18 N5 1_555 1_555
C19 N6 1_555 1_555
C23 N6 1_555 1_555
N2 N3 1_555 1_555
N4 N5 1_555 1_555
C25 N9 1_555 1_555
C29 N9 1_555 1_555
C30 N10 1_555 1_555
C33 N11 1_555 1_555
C37 N12 1_555 1_555
C41 N12 1_555 1_555
N7 N8 1_555 1_555
N10 N11 1_555 1_555
Mo3 O6 1_555 1_555
Mo4 O8 1_555 1_555
O12 Mo3A 1_555 1_555
C5A N1A 1_555 1_555
C9A N3A 1_555 1_555
C10A C11A 1_555 1_555
C10A C12A 1_555 1_555
N2A N3A 1_555 1_555
N2A Cu1A 1_555 1_555
C14A C24A 1_555 1_555
C16A N4A 1_555 1_555
C23A N6A 1_555 1_555
N4A N5A 1_555 1_555
N6A Cu1A_2 1_555 1_555
C29A N9A 1_555 1_555
C33A N11A 1_555 1_555
C34A C35A 1_555 1_555
C34A C36A 1_555 1_555
N10A N11A 1_555 1_555
N10A Cu2A 1_555 1_555
C41A N12A 1_555 1_555
N7A N8A 1_555 1_555
C46A C47A 1_555 1_555
C46A C48A 1_555 1_555
N12A Cu2A_2 1_555 1_555
Mo1A O4A 1_555 1_555
Mo1A O11A 1_555 1_555
Mo3A O1A 1_555 1_555
Mo3A O6A 1_555 1_555
Mo4A O8A 1_555 1_555
Mo4A O12A 1_555 1_555

#END
