
#######################################################################
#
#                 Cambridge Crystallographic Data Centre
#                                CCDC 
#
#######################################################################
#
# If this CIF has been generated from an entry in the Cambridge 
# Structural Database, then it will include bibliographic, chemical, 
# crystal, experimental, refinement or atomic coordinate data resulting 
# from the CCDC's data processing and validation procedures.
#
#######################################################################

data_GUWHAI
_symmetry_cell_setting           monoclinic
_symmetry_space_group_name_H-M   'P 21/n'
_symmetry_Int_Tables_number      14
_space_group_name_Hall           '-P 2yn'
loop_
_symmetry_equiv_pos_site_id
_symmetry_equiv_pos_as_xyz
1 x,y,z
2 1/2-x,1/2+y,1/2-z
3 -x,-y,-z
4 1/2+x,1/2-y,1/2+z
_cell_length_a                   9.4338(16)
_cell_length_b                   10.2248(18)
_cell_length_c                   13.938(2)
_cell_angle_alpha                90
_cell_angle_beta                 109.434(3)
_cell_angle_gamma                90
_cell_volume                     1267.84
loop_
_atom_site_label
_atom_site_type_symbol
_atom_site_fract_x
_atom_site_fract_y
_atom_site_fract_z
Zn1 Zn 0.43448(6) 0.82807(5) 0.25106(4)
O1 O 0.4933(4) 0.8141(3) 0.4280(2)
O2 O 0.4485(4) 0.6797(3) 0.5397(2)
H1 H 0.3746 0.6377 0.5401
N1 N 0.3191(4) 0.6718(3) 0.2657(3)
N2 N 0.6499(5) 0.8296(4) 0.2693(3)
N3 N 0.8923(5) 0.8386(5) 0.3470(3)
C1 C 0.3373(5) 0.6357(4) 0.3641(3)
C2 C 0.4322(5) 0.7154(4) 0.4472(3)
C3 C 0.2219(5) 0.5865(4) 0.2069(3)
H2 H 0.1879 0.5898 0.1362
C4 C 0.7602(6) 0.8020(5) 0.3523(4)
H3 H 0.7477 0.7614 0.4087
C5 C 0.8638(7) 0.8994(8) 0.2545(4)
H4 H 0.9338 0.9378 0.2294
C6 C 0.7153(7) 0.8920(7) 0.2078(4)
H5 H 0.6640 0.9244 0.1432
C7 C 1.0335(6) 0.8420(7) 0.4334(5)
H6 H 1.1168 0.8205 0.4101
H7 H 1.0300 0.7772 0.4834
C8 C 1.0582(6) 0.9761(9) 0.4820(5)
H8 H 1.1516 0.9744 0.5388
H9 H 1.0707 1.0381 0.4327
O3 O 0.2976(4) 0.4742(3) 0.5316(2)
N4 N 0.1783(4) 0.4959(3) 0.2601(2)
C9 C 0.2511(5) 0.5264(4) 0.3597(3)
C10 C 0.2313(5) 0.4429(4) 0.4406(3)
O4 O 0.1455(4) 0.3454(3) 0.4122(2)
Zn1A Zn 0.06552(6) 1.32807(5) 0.24894(4)
Zn1A_2 Zn 0.06552(6) 0.32807(5) 0.24894(4)
Zn1B Zn 1.56552(6) 1.17193(5) 0.74894(4)
O1A O 0.0067(4) 1.3141(3) 0.0720(2)
O2A O 0.0515(4) 1.1797(3) -0.0397(2)
H1A H 0.1254 1.1377 -0.0401
N1A N 0.1809(4) 1.1718(3) 0.2343(3)
N2B N 1.3501(5) 1.1704(4) 0.7307(3)
N2A N -0.1499(5) 1.3296(4) 0.2307(3)
N3B N 1.1077(5) 1.1614(5) 0.6530(3)
C1A C 0.1627(5) 1.1357(4) 0.1359(3)
C2A C 0.0678(5) 1.2154(4) 0.0528(3)
C3A C 0.2781(5) 1.0865(4) 0.2931(3)
H2A H 0.3121 1.0898 0.3638
C4B C 1.2398(6) 1.1980(5) 0.6477(4)
H3B H 1.2523 1.2386 0.5913
C5B C 1.1362(7) 1.1006(8) 0.7455(4)
H4B H 1.0662 1.0622 0.7706
C6B C 1.2847(7) 1.1080(7) 0.7922(4)
H5B H 1.3360 1.0756 0.8568
C7B C 0.9665(6) 1.1580(7) 0.5666(5)
H6B H 0.8832 1.1795 0.5899
H7B H 0.9700 1.2228 0.5166
C8B C 0.9418(6) 1.0239(9) 0.5180(5)
H8B H 0.8484 1.0256 0.4612
H9B H 0.9293 0.9619 0.5673
O3A O 0.2024(4) 0.9742(3) -0.0316(2)
N4A N 0.3217(4) 0.9959(3) 0.2399(2)
N4_2 N 0.1783(4) 1.4959(3) 0.2601(2)
C9A C 0.2489(5) 1.0264(4) 0.1403(3)
C10A C 0.2687(5) 0.9429(4) 0.0594(3)
O4A O 0.3545(4) 0.8454(3) 0.0878(2)
O4_2 O 0.1455(4) 1.3454(3) 0.4122(2)
loop_
_geom_bond_atom_site_label_1
_geom_bond_atom_site_label_2
_geom_bond_site_symmetry_1
_geom_bond_site_symmetry_2
Zn1 O1 1_555 1_555
O1 C2 1_555 1_555
O2 H1 1_555 1_555
N1 Zn1 1_555 1_555
N2 Zn1 1_555 1_555
N3 C4 1_555 1_555
C1 N1 1_555 1_555
C2 O2 1_555 1_555
C3 N1 1_555 1_555
H2 C3 1_555 1_555
C4 N2 1_555 1_555
H3 C4 1_555 1_555
C5 N3 1_555 1_555
H4 C5 1_555 1_555
C6 N2 1_555 1_555
H5 C6 1_555 1_555
C7 N3 1_555 1_555
H6 C7 1_555 1_555
H7 C7 1_555 1_555
C8 C7 1_555 1_555
H8 C8 1_555 1_555
H9 C8 1_555 1_555
O3 C10 1_555 1_555
N4 C3 1_555 1_555
C9 C1 1_555 1_555
C10 C9 1_555 1_555
O4 C10 1_555 1_555
Zn1A O1A 1_555 1_555
Zn1A_2 N4 1_555 1_555
Zn1B N2B 1_555 1_555
O1A C2A 1_555 1_555
O2A H1A 1_555 1_555
N1A Zn1A 1_555 1_555
N2B C4B 1_555 1_555
N2A Zn1A 1_555 1_555
N3B C4B 1_555 1_555
C1A N1A 1_555 1_555
C2A O2A 1_555 1_555
C3A N1A 1_555 1_555
H2A C3A 1_555 1_555
C4B H3B 1_555 1_555
C5B N3B 1_555 1_555
H4B C5B 1_555 1_555
C6B N2B 1_555 1_555
H5B C6B 1_555 1_555
C7B N3B 1_555 1_555
H6B C7B 1_555 1_555
H7B C7B 1_555 1_555
C8B C8 1_555 1_555
H8B C8B 1_555 1_555
H9B C8B 1_555 1_555
O3A C10A 1_555 1_555
N4A Zn1 1_555 1_555
N4_2 Zn1A 1_555 1_555
C9A C1A 1_555 1_555
C10A C9A 1_555 1_555
O4A Zn1 1_555 1_555
O4_2 Zn1A 1_555 1_555
C1 C2 1_555 1_555
C5 C6 1_555 1_555
N4 C9 1_555 1_555
O4 Zn1A_2 1_555 1_555
C1A C2A 1_555 1_555
C3A N4A 1_555 1_555
C5B C6B 1_555 1_555
C7B C8B 1_555 1_555
N4A C9A 1_555 1_555
C10A O4A 1_555 1_555

#END
