
#######################################################################
#
#                 Cambridge Crystallographic Data Centre
#                                CCDC 
#
#######################################################################
#
# If this CIF has been generated from an entry in the Cambridge 
# Structural Database, then it will include bibliographic, chemical, 
# crystal, experimental, refinement or atomic coordinate data resulting 
# from the CCDC's data processing and validation procedures.
#
#######################################################################

data_GUWHEM
_symmetry_cell_setting           monoclinic
_symmetry_space_group_name_H-M   'P 21/n'
_symmetry_Int_Tables_number      14
_space_group_name_Hall           '-P 2yn'
loop_
_symmetry_equiv_pos_site_id
_symmetry_equiv_pos_as_xyz
1 x,y,z
2 1/2-x,1/2+y,1/2-z
3 -x,-y,-z
4 1/2+x,1/2-y,1/2+z
_cell_length_a                   12.033(2)
_cell_length_b                   12.891(3)
_cell_length_c                   15.823(3)
_cell_angle_alpha                90
_cell_angle_beta                 107.72(3)
_cell_angle_gamma                90
_cell_volume                     2337.97
loop_
_atom_site_label
_atom_site_type_symbol
_atom_site_fract_x
_atom_site_fract_y
_atom_site_fract_z
Cu1 Cu 0.57574(2) 0.61433(2) 0.047142(16)
Cu2 Cu 0.80389(2) 0.75885(2) 0.180864(18)
Cu3 Cu 0.90982(3) 0.75401(3) -0.15449(2)
N1 N 0.54718(15) 0.70824(14) 0.14472(11)
N2 N 0.64604(16) 0.75382(13) 0.20049(12)
N3 N 0.50981(17) 0.75746(14) 0.26910(13)
N4 N 0.30002(17) 0.66551(16) 0.22616(13)
N5 N 0.62038(15) 0.36458(14) 0.22292(11)
N6 N 0.58539(15) 0.47947(13) 0.11236(12)
N7 N 0.54171(15) 0.38491(13) 0.07602(12)
N8 N 0.58603(15) 0.15755(14) 0.21809(12)
N9 N 0.80642(15) 0.72312(14) 0.06270(12)
N10 N 0.71943(15) 0.65887(14) 0.01247(12)
N11 N 0.83099(16) 0.70616(15) -0.07099(12)
N12 N 1.00851(17) 0.84303(17) -0.03636(14)
C1 C 0.1913(2) 0.6284(2) 0.20637(19)
H1 H 0.1565 0.6249 0.2513
C2 C 0.1283(2) 0.5950(2) 0.1228(2)
H2 H 0.0529 0.5697 0.1120
C3 C 0.1790(2) 0.5997(2) 0.05528(19)
H3 H 0.1380 0.5783 -0.0018
C4 C 0.2924(2) 0.6372(2) 0.07446(17)
H4 H 0.3289 0.6406 0.0305
C5 C 0.34986(19) 0.66919(17) 0.15994(15)
C6 C 0.46857(19) 0.71137(17) 0.18855(14)
C7 C 0.61972(19) 0.78131(18) 0.27303(15)
H5 H 0.6721 0.8137 0.3215
C8 C 0.63023(18) 0.46299(17) 0.19908(14)
H6 H 0.6651 0.5148 0.2393
C9 C 0.56481(17) 0.31899(16) 0.14403(13)
C10 C 0.53774(18) 0.20737(17) 0.14050(14)
C11 C 0.46867(19) 0.15695(17) 0.06553(14)
H7 H 0.4381 0.1928 0.0125
C12 C 0.44606(19) 0.05249(18) 0.07087(15)
H8 H 0.3994 0.0172 0.0215
C13 C 0.4937(2) 0.00084(18) 0.15066(16)
H9 H 0.4789 -0.0693 0.1559
C14 C 0.5634(2) 0.05560(17) 0.22186(16)
H10 H 0.5964 0.0206 0.2750
C15 C 0.73779(19) 0.65138(18) -0.06607(14)
H11 H 0.6910 0.6123 -0.1129
C16 C 0.87037(19) 0.74922(16) 0.01087(15)
C17 C 0.9729(2) 0.81726(18) 0.03376(16)
C18 C 1.0290(2) 0.8518(2) 0.11917(17)
H12 H 1.0022 0.8326 0.1662
C19 C 1.1258(2) 0.9155(2) 0.1332(2)
H13 H 1.1658 0.9389 0.1899
C20 C 1.1617(3) 0.9434(3) 0.0615(2)
H14 H 1.2251 0.9876 0.0688
C21 C 1.1028(2) 0.9051(2) -0.0208(2)
H15 H 1.1291 0.9229 -0.0684
Cu1B Cu 0.42426(2) 0.38567(2) -0.047142(16)
Cu2A Cu 0.69611(2) 0.25885(2) 0.319136(18)
Cu3C Cu 0.40982(3) 0.74599(3) 0.34551(2)
N3C N 1.00981(17) 0.74254(14) -0.23090(13)
N4C N 0.80002(17) 0.83449(16) -0.27384(13)
N5A N 0.87962(15) 0.86458(14) 0.27708(11)
N7B N 0.45829(15) 0.61509(13) -0.07602(12)
N8A N 0.91397(15) 0.65755(14) 0.28191(12)
loop_
_geom_bond_atom_site_label_1
_geom_bond_atom_site_label_2
_geom_bond_site_symmetry_1
_geom_bond_site_symmetry_2
Cu1 N1 1_555 1_555
Cu2 N2 1_555 1_555
Cu3 N11 1_555 1_555
N1 N2 1_555 1_555
N2 C7 1_555 1_555
N3 C6 1_555 1_555
N4 C1 1_555 1_555
N5 C8 1_555 1_555
N6 Cu1 1_555 1_555
N7 N6 1_555 1_555
N8 C10 1_555 1_555
N9 Cu2 1_555 1_555
N10 Cu1 1_555 1_555
N11 C15 1_555 1_555
N12 Cu3 1_555 1_555
C1 H1 1_555 1_555
C2 C1 1_555 1_555
H2 C2 1_555 1_555
C3 C2 1_555 1_555
H3 C3 1_555 1_555
C4 C3 1_555 1_555
H4 C4 1_555 1_555
C5 N4 1_555 1_555
C6 N1 1_555 1_555
C7 N3 1_555 1_555
H5 C7 1_555 1_555
C8 N6 1_555 1_555
H6 C8 1_555 1_555
C9 N5 1_555 1_555
C10 C9 1_555 1_555
C11 C10 1_555 1_555
H7 C11 1_555 1_555
C12 C11 1_555 1_555
H8 C12 1_555 1_555
C13 C12 1_555 1_555
H9 C13 1_555 1_555
C14 N8 1_555 1_555
H10 C14 1_555 1_555
C15 N10 1_555 1_555
H11 C15 1_555 1_555
C16 N9 1_555 1_555
C17 N12 1_555 1_555
C18 C17 1_555 1_555
H12 C18 1_555 1_555
C19 C18 1_555 1_555
H13 C19 1_555 1_555
C20 C19 1_555 1_555
H14 C20 1_555 1_555
C21 N12 1_555 1_555
H15 C21 1_555 1_555
Cu1B N7 1_555 1_555
Cu2A N5 1_555 1_555
Cu3C N3 1_555 1_555
N3C Cu3 1_555 1_555
N4C Cu3 1_555 1_555
N5A Cu2 1_555 1_555
N7B Cu1 1_555 1_555
N8A Cu2 1_555 1_555
N4 Cu3C 1_555 1_555
N7 C9 1_555 1_555
N8 Cu2A 1_555 1_555
N9 N10 1_555 1_555
N11 C16 1_555 1_555
C4 C5 1_555 1_555
C5 C6 1_555 1_555
C13 C14 1_555 1_555
C16 C17 1_555 1_555
C20 C21 1_555 1_555

#END
