
#######################################################################
#
#                 Cambridge Crystallographic Data Centre
#                                CCDC 
#
#######################################################################
#
# If this CIF has been generated from an entry in the Cambridge 
# Structural Database, then it will include bibliographic, chemical, 
# crystal, experimental, refinement or atomic coordinate data resulting 
# from the CCDC's data processing and validation procedures.
#
#######################################################################

data_GUWHEM01
_symmetry_cell_setting           monoclinic
_symmetry_space_group_name_H-M   'P 21/c'
_symmetry_Int_Tables_number      14
_space_group_name_Hall           '-P 2ybc'
loop_
_symmetry_equiv_pos_site_id
_symmetry_equiv_pos_as_xyz
1 x,y,z
2 -x,1/2+y,1/2-z
3 -x,-y,-z
4 x,1/2-y,1/2+z
_cell_length_a                   12.0860(3)
_cell_length_b                   12.9581(3)
_cell_length_c                   16.7863(3)
_cell_angle_alpha                90
_cell_angle_beta                 116.0280(10)
_cell_angle_gamma                90
_cell_volume                     2362.3
loop_
_atom_site_label
_atom_site_type_symbol
_atom_site_fract_x
_atom_site_fract_y
_atom_site_fract_z
Cu1 Cu 0.02896(3) 0.11367(2) 0.452945(17)
Cu2 Cu 0.11991(3) 0.25983(3) 0.318526(19)
Cu3 Cu -0.43612(3) 0.24894(3) 0.15357(2)
N1 N -0.26093(19) 0.25689(16) 0.23138(13)
N2 N -0.09897(17) 0.20768(15) 0.35495(12)
N3 N -0.05691(18) 0.25291(15) 0.29934(12)
N4 N -0.4259(2) 0.1646(2) 0.27522(16)
N5 N 0.40080(18) 0.20761(17) 0.56949(13)
N6 N 0.5443(2) 0.3410(2) 0.53386(17)
N7 N 0.24208(17) 0.22463(15) 0.43681(12)
N8 N 0.20674(17) 0.16074(15) 0.48667(12)
N9 N 0.03521(17) 0.38511(14) 0.07608(11)
N10 N 0.09806(18) 0.36433(15) 0.22170(12)
N11 N 0.13047(18) 0.15871(16) 0.21740(13)
N12 N 0.02644(17) 0.47890(14) 0.11149(11)
C1 C -0.1561(2) 0.2800(2) 0.22756(16)
H1 H -0.1530 0.3122 0.1790
C2 C -0.2211(2) 0.21115(18) 0.31166(15)
C3 C -0.3096(2) 0.1692(2) 0.34046(17)
C4 C -0.2800(3) 0.1370(3) 0.4253(2)
H2 H -0.1989 0.1399 0.4686
C5 C -0.3724(3) 0.1000(3) 0.4459(3)
H3 H -0.3549 0.0789 0.5032
C6 C -0.5130(3) 0.1281(3) 0.2958(3)
H4 H -0.5933 0.1245 0.2514
C7 C 0.4871(4) 0.4155(4) 0.3656(3)
H5 H 0.4683 0.4402 0.3091
C8 C 0.5965(4) 0.4399(4) 0.4356(3)
H6 H 0.6528 0.4825 0.4276
C9 C 0.6220(3) 0.4014(3) 0.5170(3)
H7 H 0.6975 0.4176 0.5637
C10 C 0.4363(2) 0.3180(2) 0.46472(18)
C11 C 0.3039(2) 0.1531(2) 0.56448(15)
H8 H 0.3049 0.1137 0.6111
C12 C 0.0960(2) 0.1589(2) 0.06574(16)
H9 H 0.0732 0.1945 0.0127
C13 C 0.1253(3) 0.0553(2) 0.07150(19)
H10 H 0.1236 0.0205 0.0226
C14 C 0.1568(3) 0.0041(2) 0.1503(2)
H11 H 0.1773 -0.0656 0.1556
C15 C 0.1575(3) 0.0580(2) 0.22067(19)
H12 H 0.1777 0.0229 0.2736
C16 C 0.0774(2) 0.31922(17) 0.14380(13)
C17 C 0.3580(2) 0.25092(18) 0.48837(16)
C18 C 0.4050(3) 0.3535(3) 0.3802(2)
H13 H 0.3297 0.3360 0.3337
C19 C 0.1012(2) 0.20876(18) 0.14010(15)
C20 C 0.0656(2) 0.46212(18) 0.19773(14)
H14 H 0.0700 0.5136 0.2376
C21 C -0.4898(3) 0.0956(3) 0.3793(3)
H15 H -0.5536 0.0706 0.3907
Cu1A Cu -0.02896(3) 0.61367(2) 0.047055(17)
Cu1C Cu 0.02896(3) 0.38633(2) -0.047055(17)
Cu3C Cu 0.56388(3) 0.25106(3) 0.65357(2)
N5C N -0.59920(18) 0.29239(17) 0.06949(13)
N6C N -0.4557(2) 0.1590(2) 0.03386(17)
N9C N 0.03521(17) 0.11489(14) 0.57608(11)
N12A N -0.02644(17) -0.02110(14) 0.38851(11)
loop_
_geom_bond_atom_site_label_1
_geom_bond_atom_site_label_2
_geom_bond_site_symmetry_1
_geom_bond_site_symmetry_2
Cu1 N2 1_555 1_555
Cu2 N3 1_555 1_555
Cu3 N1 1_555 1_555
N1 C1 1_555 1_555
N2 N3 1_555 1_555
N3 C1 1_555 1_555
N4 Cu3 1_555 1_555
N5 C11 1_555 1_555
N6 C9 1_555 1_555
N7 Cu2 1_555 1_555
N8 Cu1 1_555 1_555
N9 N12 1_555 1_555
N10 Cu2 1_555 1_555
N11 Cu2 1_555 1_555
N12 C20 1_555 1_555
C1 H1 1_555 1_555
C2 N1 1_555 1_555
C3 N4 1_555 1_555
C4 C3 1_555 1_555
H2 C4 1_555 1_555
C5 C4 1_555 1_555
H3 C5 1_555 1_555
C6 N4 1_555 1_555
H4 C6 1_555 1_555
C7 H5 1_555 1_555
C8 C7 1_555 1_555
H6 C8 1_555 1_555
C9 C8 1_555 1_555
H7 C9 1_555 1_555
C10 N6 1_555 1_555
C11 N8 1_555 1_555
H8 C11 1_555 1_555
C12 H9 1_555 1_555
C13 C12 1_555 1_555
H10 C13 1_555 1_555
C14 C13 1_555 1_555
H11 C14 1_555 1_555
C15 N11 1_555 1_555
H12 C15 1_555 1_555
C16 N9 1_555 1_555
C17 N5 1_555 1_555
C18 C7 1_555 1_555
H13 C18 1_555 1_555
C19 N11 1_555 1_555
C20 N10 1_555 1_555
H14 C20 1_555 1_555
C21 C5 1_555 1_555
H15 C21 1_555 1_555
Cu1A N12 1_555 1_555
Cu1C N9 1_555 1_555
Cu3C N5 1_555 1_555
N5C Cu3 1_555 1_555
N6C Cu3 1_555 1_555
N9C Cu1 1_555 1_555
N12A Cu1 1_555 1_555
N2 C2 1_555 1_555
N6 Cu3C 1_555 1_555
N7 N8 1_555 1_555
N7 C17 1_555 1_555
N10 C16 1_555 1_555
C2 C3 1_555 1_555
C6 C21 1_555 1_555
C10 C17 1_555 1_555
C10 C18 1_555 1_555
C12 C19 1_555 1_555
C14 C15 1_555 1_555
C16 C19 1_555 1_555

#END
