
#######################################################################
#
#                 Cambridge Crystallographic Data Centre
#                                CCDC 
#
#######################################################################
#
# If this CIF has been generated from an entry in the Cambridge 
# Structural Database, then it will include bibliographic, chemical, 
# crystal, experimental, refinement or atomic coordinate data resulting 
# from the CCDC's data processing and validation procedures.
#
#######################################################################

data_GUWHIQ
_symmetry_cell_setting           monoclinic
_symmetry_space_group_name_H-M   'P 21/n'
_symmetry_Int_Tables_number      14
_space_group_name_Hall           '-P 2yn'
loop_
_symmetry_equiv_pos_site_id
_symmetry_equiv_pos_as_xyz
1 x,y,z
2 1/2-x,1/2+y,1/2-z
3 -x,-y,-z
4 1/2+x,1/2-y,1/2+z
_cell_length_a                   17.5168(6)
_cell_length_b                   11.6014(4)
_cell_length_c                   25.8530(8)
_cell_angle_alpha                90
_cell_angle_beta                 104.331(4)
_cell_angle_gamma                90
_cell_volume                     5090.34
loop_
_atom_site_label
_atom_site_type_symbol
_atom_site_fract_x
_atom_site_fract_y
_atom_site_fract_z
C1 C 0.5699(3) -0.1197(4) 0.73292(19)
H1 H 0.5283 -0.1500 0.7451
C2 C 0.6278(3) -0.1945(4) 0.7259(2)
H2 H 0.6242 -0.2730 0.7321
C3 C 0.6906(3) -0.1504(4) 0.70961(18)
H3 H 0.7310 -0.1989 0.7056
C4 C 0.6938(2) -0.0329(4) 0.69913(15)
C5 C 0.6302(2) 0.0371(4) 0.70596(14)
C6 C 0.6269(2) 0.1581(4) 0.69237(15)
C7 C 0.5573(3) 0.3272(5) 0.6857(2)
H4 H 0.5133 0.3679 0.6895
C8 C 0.6137(4) 0.3851(5) 0.6666(3)
H5 H 0.6078 0.4631 0.6582
C9 C 0.6777(3) 0.3261(5) 0.6604(3)
H6 H 0.7163 0.3637 0.6477
C10 C 0.6858(3) 0.2100(4) 0.67309(18)
C11 C 0.7508(3) 0.1399(4) 0.66856(18)
C12 C 0.7544(2) 0.0255(4) 0.68118(16)
C13 C 0.8587(3) 0.0784(4) 0.65603(19)
C14 C 0.9374(3) 0.0682(5) 0.6449(2)
C15 C 0.9443(4) 0.0704(5) 0.5916(3)
C16 C 1.0191(6) 0.0510(7) 0.5830(4)
H7 H 1.0246 0.0458 0.5482
C17 C 1.0834(6) 0.0397(10) 0.6240(6)
H8 H 1.1324 0.0291 0.6168
C18 C 1.0040(4) 0.0551(6) 0.6836(3)
C19 C 1.0785(4) 0.0432(8) 0.6743(4)
H9 H 1.1233 0.0379 0.7024
C20 C 0.3243(3) -0.2261(6) 0.6278(2)
H10 H 0.2762 -0.2132 0.6360
C21 C 0.3531(4) -0.3378(6) 0.6304(3)
H11 H 0.3247 -0.3981 0.6402
C22 C 0.4236(4) -0.3587(5) 0.6186(3)
H12 H 0.4437 -0.4331 0.6201
C23 C 0.4651(3) -0.2653(4) 0.60408(19)
C24 C 0.4328(3) -0.1544(4) 0.60221(17)
C25 C 0.4729(2) -0.0557(4) 0.58765(14)
C26 C 0.4724(3) 0.1405(4) 0.57427(16)
H13 H 0.4484 0.2119 0.5751
C27 C 0.5422(3) 0.1357(4) 0.55774(17)
H14 H 0.5638 0.2023 0.5472
C28 C 0.5785(3) 0.0311(4) 0.55733(15)
H15 H 0.6255 0.0261 0.5468
C29 C 0.5445(2) -0.0675(4) 0.57271(14)
C30 C 0.5754(3) -0.1801(4) 0.57507(16)
C31 C 0.5404(3) -0.2759(4) 0.59095(19)
C32 C 0.6466(3) -0.3362(4) 0.5744(2)
C33 C 0.7124(4) -0.4106(5) 0.5696(3)
C34 C 0.7680(3) -0.4478(5) 0.6142(3)
C35 C 0.8273(4) -0.5234(6) 0.6101(5)
H16 H 0.8620 -0.5500 0.6411
C36 C 0.8358(6) -0.5592(8) 0.5624(6)
H17 H 0.8754 -0.6110 0.5601
C37 C 0.7868(7) -0.5192(8) 0.5187(5)
H18 H 0.7932 -0.5405 0.4854
C38 C 0.7245(5) -0.4440(6) 0.5223(3)
C39 C 0.5654(3) 0.2168(4) 0.84362(17)
C40 C 0.5784(3) 0.2335(4) 0.90283(16)
C41 C 0.6422(2) 0.2969(4) 0.93080(15)
H19 H 0.6762 0.3302 0.9126
C42 C 0.6559(3) 0.3115(4) 0.98514(16)
C43 C 0.6051(3) 0.2617(5) 1.01176(19)
H20 H 0.6144 0.2704 1.0486
C44 C 0.5400(3) 0.1987(6) 0.98414(19)
H21 H 0.5052 0.1668 1.0021
C45 C 0.5280(3) 0.1845(5) 0.92964(19)
H22 H 0.4853 0.1413 0.9109
C46 C 0.7259(3) 0.3798(5) 1.01533(17)
C47 C 0.3505(3) 0.2689(4) 0.68921(18)
C48 C 0.2778(3) 0.3380(4) 0.68543(16)
C49 C 0.2595(2) 0.3820(4) 0.73068(16)
H23 H 0.2946 0.3714 0.7638
C50 C 0.1908(3) 0.4408(4) 0.72768(16)
C51 C 0.1708(3) 0.4843(4) 0.77758(17)
C52 C 0.1407(4) 0.4619(6) 0.67858(19)
H24 H 0.0948 0.5042 0.6762
C53 C 0.1583(4) 0.4205(8) 0.6329(2)
H25 H 0.1243 0.4345 0.5997
C54 C 0.2267(4) 0.3580(6) 0.6365(2)
H26 H 0.2381 0.3293 0.6057
N1 N 0.5697(2) -0.0058(3) 0.72329(13)
N2 N 0.5629(2) 0.2177(3) 0.69863(13)
N3 N 0.8242(2) -0.0138(3) 0.67290(14)
H27 H 0.8424 -0.0829 0.6775
N4 N 0.8173(2) 0.1733(4) 0.65220(17)
N5 N 0.3624(2) -0.1363(4) 0.61401(15)
N6 N 0.4384(2) 0.0480(3) 0.58887(12)
N7 N 0.5850(3) -0.3728(4) 0.59037(19)
N8 N 0.6437(2) -0.2215(3) 0.56397(14)
H28 H 0.6777 -0.1820 0.5526
O1 O 0.51766(19) 0.1372(3) 0.82311(11)
O2 O 0.6012(2) 0.2762(3) 0.81760(11)
O4 O 0.35842(19) 0.2172(3) 0.64738(12)
O5 O 0.39877(18) 0.2618(3) 0.73298(12)
O6 O 0.22473(17) 0.4986(3) 0.81873(11)
O7 O 0.09918(17) 0.5019(3) 0.77681(12)
O8 O 0.77858(19) 0.4052(3) 0.99371(12)
O9 O 0.72651(19) 0.4079(3) 1.06305(11)
F1 F 0.76214(19) -0.4145(3) 0.66517(14)
F2 F 0.87568(17) 0.0973(3) 0.54451(10)
Cl1 Cl 0.6639(2) -0.3946(3) 0.46592(9)
Cl2 Cl 1.00117(17) 0.0667(3) 0.74522(10)
Mn1 Mn 0.48624(4) 0.13190(6) 0.74125(2)
Mn2 Mn 0.32810(4) 0.04986(6) 0.61775(2)
O6A O 0.27527(17) -0.0014(3) 0.68127(11)
O7A O 0.40082(17) 0.0019(3) 0.72319(12)
O9C O 0.22651(19) 0.0921(3) 0.56305(11)
Mn1A Mn 0.01376(4) 0.63190(6) 0.75875(2)
Mn2A Mn 0.17190(4) 0.54986(6) 0.88225(2)
Mn2C Mn 0.82810(4) 0.45014(6) 1.11775(2)
O3 O 0.7100(11) 0.1939(19) 0.5171(7)
loop_
_geom_bond_atom_site_label_1
_geom_bond_atom_site_label_2
_geom_bond_site_symmetry_1
_geom_bond_site_symmetry_2
C1 H1 1_555 1_555
C2 C1 1_555 1_555
H2 C2 1_555 1_555
C3 C2 1_555 1_555
H3 C3 1_555 1_555
C4 C3 1_555 1_555
C5 C4 1_555 1_555
C6 C5 1_555 1_555
C7 H4 1_555 1_555
C8 C7 1_555 1_555
H5 C8 1_555 1_555
C9 C8 1_555 1_555
H6 C9 1_555 1_555
C10 C6 1_555 1_555
C11 C10 1_555 1_555
C12 C4 1_555 1_555
C13 C14 1_555 1_555
C14 C15 1_555 1_555
C15 C16 1_555 1_555
C16 H7 1_555 1_555
C17 C16 1_555 1_555
H8 C17 1_555 1_555
C18 C14 1_555 1_555
C19 C17 1_555 1_555
H9 C19 1_555 1_555
C20 H10 1_555 1_555
C21 C20 1_555 1_555
H11 C21 1_555 1_555
C22 C21 1_555 1_555
H12 C22 1_555 1_555
C23 C22 1_555 1_555
C24 C23 1_555 1_555
C25 C24 1_555 1_555
C26 H13 1_555 1_555
C27 C26 1_555 1_555
H14 C27 1_555 1_555
C28 C27 1_555 1_555
H15 C28 1_555 1_555
C29 C25 1_555 1_555
C30 C29 1_555 1_555
C31 C23 1_555 1_555
C32 C33 1_555 1_555
C33 C34 1_555 1_555
C34 C35 1_555 1_555
C35 H16 1_555 1_555
C36 C35 1_555 1_555
H17 C36 1_555 1_555
C37 C36 1_555 1_555
H18 C37 1_555 1_555
C38 C33 1_555 1_555
C39 C40 1_555 1_555
C40 C41 1_555 1_555
C41 H19 1_555 1_555
C42 C41 1_555 1_555
C43 C42 1_555 1_555
H20 C43 1_555 1_555
C44 C43 1_555 1_555
H21 C44 1_555 1_555
C45 C40 1_555 1_555
H22 C45 1_555 1_555
C46 C42 1_555 1_555
C47 C48 1_555 1_555
C48 C49 1_555 1_555
C49 H23 1_555 1_555
C50 C49 1_555 1_555
C51 C50 1_555 1_555
C52 C50 1_555 1_555
H24 C52 1_555 1_555
C53 C52 1_555 1_555
H25 C53 1_555 1_555
C54 C48 1_555 1_555
H26 C54 1_555 1_555
N1 C1 1_555 1_555
N2 C6 1_555 1_555
N3 C12 1_555 1_555
H27 N3 1_555 1_555
N4 C11 1_555 1_555
N5 C20 1_555 1_555
N6 C25 1_555 1_555
N7 C31 1_555 1_555
N8 C30 1_555 1_555
H28 N8 1_555 1_555
O1 C39 1_555 1_555
O2 C39 1_555 1_555
O4 C47 1_555 1_555
O5 C47 1_555 1_555
O6 C51 1_555 1_555
O7 C51 1_555 1_555
O8 C46 1_555 1_555
O9 C46 1_555 1_555
F1 C34 1_555 1_555
F2 C15 1_555 1_555
Cl1 C38 1_555 1_555
Cl2 C18 1_555 1_555
Mn1 N1 1_555 1_555
Mn2 N5 1_555 1_555
O6A Mn2 1_555 1_555
O7A Mn1 1_555 1_555
O9C Mn2 1_555 1_555
Mn1A O7 1_555 1_555
Mn2A O6 1_555 1_555
Mn2C O9 1_555 1_555
C5 N1 1_555 1_555
C7 N2 1_555 1_555
C9 C10 1_555 1_555
C11 C12 1_555 1_555
C13 N3 1_555 1_555
C13 N4 1_555 1_555
C18 C19 1_555 1_555
C24 N5 1_555 1_555
C26 N6 1_555 1_555
C28 C29 1_555 1_555
C30 C31 1_555 1_555
C32 N7 1_555 1_555
C32 N8 1_555 1_555
C37 C38 1_555 1_555
C44 C45 1_555 1_555
C53 C54 1_555 1_555
N2 Mn1 1_555 1_555
N6 Mn2 1_555 1_555
O1 Mn1 1_555 1_555
O4 Mn2 1_555 1_555
O5 Mn1 1_555 1_555

#END
