
#######################################################################
#
#                 Cambridge Crystallographic Data Centre
#                                CCDC 
#
#######################################################################
#
# If this CIF has been generated from an entry in the Cambridge 
# Structural Database, then it will include bibliographic, chemical, 
# crystal, experimental, refinement or atomic coordinate data resulting 
# from the CCDC's data processing and validation procedures.
#
#######################################################################

data_GUWLIV
_symmetry_cell_setting           monoclinic
_symmetry_space_group_name_H-M   'P 21/n'
_symmetry_Int_Tables_number      14
_space_group_name_Hall           '-P 2yn'
loop_
_symmetry_equiv_pos_site_id
_symmetry_equiv_pos_as_xyz
1 x,y,z
2 1/2-x,1/2+y,1/2-z
3 -x,-y,-z
4 1/2+x,1/2-y,1/2+z
_cell_length_a                   11.4772(8)
_cell_length_b                   8.7255(6)
_cell_length_c                   15.469(1)
_cell_angle_alpha                90
_cell_angle_beta                 107.041(1)
_cell_angle_gamma                90
_cell_volume                     1481.12
loop_
_atom_site_label
_atom_site_type_symbol
_atom_site_fract_x
_atom_site_fract_y
_atom_site_fract_z
Cu1 Cu 0.12264(2) 0.14055(2) 0.23020(1)
O1 O 0.20166(12) 0.34460(13) 0.23416(8)
O2 O 0.05451(12) 0.39066(15) 0.10992(9)
O3 O 0.19721(12) 0.55988(14) 0.16179(9)
O4 O 0.07995(12) 0.18334(15) 0.34233(9)
O5 O -0.06947(14) 0.31287(19) 0.25141(10)
O6 O -0.04740(13) 0.30917(18) 0.39604(10)
N1 N 0.18025(13) 0.06750(16) 0.12822(10)
N2 N 0.01422(14) -0.04122(16) 0.19580(10)
N3 N 0.14899(14) 0.43328(16) 0.16694(10)
N4 N -0.01511(14) 0.27222(18) 0.32967(11)
C1 C 0.27508(17) 0.12436(19) 0.10432(12)
C2 C 0.31803(17) 0.0562(2) 0.03880(12)
C3 C 0.26136(16) -0.07597(19) -0.00532(11)
C4 C 0.16353(16) -0.13504(19) 0.02074(12)
C5 C 0.12625(16) -0.06244(18) 0.08817(11)
C6 C 0.30550(19) -0.1539(2) -0.07633(13)
C7 C -0.07184(18) -0.0870(2) 0.23323(13)
C8 C -0.14738(18) -0.2107(2) 0.20096(13)
C9 C -0.13487(16) -0.2938(2) 0.12700(12)
C10 C -0.04408(16) -0.24743(19) 0.08907(12)
C11 C 0.02816(16) -0.12097(18) 0.12411(11)
C12 C -0.21606(19) -0.4282(2) 0.08891(15)
H1 H 0.3099(19) 0.211(2) 0.1346(14)
H2 H 0.3843(18) 0.097(2) 0.0236(13)
H3 H 0.1267(18) -0.228(2) -0.0045(14)
H4 H 0.240(2) -0.201(3) -0.1204(17)
H5 H 0.362(2) -0.235(3) -0.0445(18)
H6 H 0.349(2) -0.087(3) -0.1040(18)
H7 H -0.078(2) -0.027(3) 0.2828(15)
H8 H -0.203(2) -0.232(3) 0.2295(16)
H9 H -0.0320(18) -0.299(2) 0.0429(14)
H10 H -0.203(2) -0.469(3) 0.0334(18)
H11 H -0.301(3) -0.402(3) 0.0754(19)
H12 H -0.201(3) -0.510(4) 0.132(2)
Cu1A Cu 0.37736(2) 0.64055(2) 0.26980(1)
O3A O 0.30279(12) 0.05988(14) 0.33821(9)
loop_
_geom_bond_atom_site_label_1
_geom_bond_atom_site_label_2
_geom_bond_site_symmetry_1
_geom_bond_site_symmetry_2
Cu1 O1 1_555 1_555
O1 N3 1_555 1_555
O2 N3 1_555 1_555
O3 N3 1_555 1_555
O4 Cu1 1_555 1_555
O5 N4 1_555 1_555
O6 N4 1_555 1_555
N1 Cu1 1_555 1_555
N2 Cu1 1_555 1_555
N4 O4 1_555 1_555
C1 N1 1_555 1_555
C2 C1 1_555 1_555
C3 C2 1_555 1_555
C4 C3 1_555 1_555
C5 N1 1_555 1_555
C6 C3 1_555 1_555
C7 N2 1_555 1_555
C8 C7 1_555 1_555
C9 C8 1_555 1_555
C10 C9 1_555 1_555
C11 N2 1_555 1_555
C12 C9 1_555 1_555
H1 C1 1_555 1_555
H2 C2 1_555 1_555
H3 C4 1_555 1_555
H4 C6 1_555 1_555
H5 C6 1_555 1_555
H6 C6 1_555 1_555
H7 C7 1_555 1_555
H8 C8 1_555 1_555
H9 C10 1_555 1_555
H10 C12 1_555 1_555
H11 C12 1_555 1_555
H12 C12 1_555 1_555
Cu1A O3 1_555 1_555
O3A Cu1 1_555 1_555
C4 C5 1_555 1_555
C5 C11 1_555 1_555
C10 C11 1_555 1_555

#END
