
#######################################################################
#
#                 Cambridge Crystallographic Data Centre
#                                CCDC 
#
#######################################################################
#
# If this CIF has been generated from an entry in the Cambridge 
# Structural Database, then it will include bibliographic, chemical, 
# crystal, experimental, refinement or atomic coordinate data resulting 
# from the CCDC's data processing and validation procedures.
#
#######################################################################

data_GUWNUI
_symmetry_cell_setting           tetragonal
_symmetry_space_group_name_H-M   'I 41/a'
_symmetry_Int_Tables_number      88
_space_group_name_Hall           '-I 4ad'
loop_
_symmetry_equiv_pos_site_id
_symmetry_equiv_pos_as_xyz
1 x,y,z
2 1/2-x,-y,1/2+z
3 3/4-y,1/4+x,1/4+z
4 3/4+y,3/4-x,3/4+z
5 1/2+x,1/2+y,1/2+z
6 -x,1/2-y,z
7 1/4-y,3/4+x,3/4+z
8 1/4+y,1/4-x,1/4+z
9 -x,-y,-z
10 1/2+x,y,1/2-z
11 1/4+y,3/4-x,3/4-z
12 1/4-y,1/4+x,1/4-z
13 1/2-x,1/2-y,1/2-z
14 x,1/2+y,-z
15 3/4+y,1/4-x,1/4-z
16 3/4-y,3/4+x,3/4-z
_cell_length_a                   17.576(2)
_cell_length_b                   17.576(2)
_cell_length_c                   42.923(11)
_cell_angle_alpha                90
_cell_angle_beta                 90
_cell_angle_gamma                90
_cell_volume                     13259.6
loop_
_atom_site_label
_atom_site_type_symbol
_atom_site_fract_x
_atom_site_fract_y
_atom_site_fract_z
C1 C 0.5394(2) 0.3563(2) 0.90920(10)
H1 H 0.4866 0.3533 0.9086
C2 C 0.5751(3) 0.4035(2) 0.88678(10)
H2 H 0.5470 0.4326 0.8728
C3 C 0.6573(2) 0.4044(3) 0.88673(9)
C4 C 0.6905(3) 0.3596(2) 0.91022(10)
H3 H 0.7431 0.3571 0.9123
C5 C 0.6428(2) 0.3184(2) 0.93051(9)
H4 H 0.6664 0.2891 0.9457
C6 C 0.7022(3) 0.4519(2) 0.86605(10)
H5 H 0.7361 0.4838 0.8782
H6 H 0.6689 0.4846 0.8540
C7 C 0.7498(2) 0.4002(2) 0.84352(9)
H7 H 0.7158 0.3678 0.8316
H8 H 0.7835 0.3678 0.8556
C8 C 0.7986(3) 0.4518(3) 0.82039(12)
H9 H 0.7647 0.4833 0.8081
H10 H 0.8313 0.4852 0.8324
C9 C 0.8462(2) 0.4044(2) 0.79919(10)
C10 C 0.8110(2) 0.3586(2) 0.77529(10)
H11 H 0.7583 0.3564 0.7737
C11 C 0.8517(2) 0.3221(2) 0.75686(10)
H12 H 0.8258 0.2932 0.7421
C12 C 0.9640(3) 0.3654(2) 0.77843(10)
H13 H 1.0168 0.3691 0.7781
C13 C 0.9254(2) 0.4038(2) 0.80044(10)
H14 H 0.9511 0.4294 0.8162
Cd1 Cd 0.5000 0.2500 0.967882(10)
Cl1 Cl 0.39557(6) 0.35362(6) 0.96823(2)
N1 N 0.57307(19) 0.31754(19) 0.93002(9)
N2 N 0.92703(19) 0.3189(2) 0.75544(9)
C1E C 0.4606(2) 0.1437(2) 0.90920(10)
H1E H 0.5134 0.1467 0.9086
C2E C 0.4249(3) 0.0965(2) 0.88678(10)
H2E H 0.4530 0.0674 0.8728
C3E C 0.3427(2) 0.0956(3) 0.88673(9)
C4E C 0.3095(3) 0.1404(2) 0.91022(10)
H3E H 0.2569 0.1429 0.9123
C5E C 0.3572(2) 0.1816(2) 0.93051(9)
H4E H 0.3336 0.2109 0.9457
C6E C 0.2978(3) 0.0481(2) 0.86605(10)
H5E H 0.2639 0.0162 0.8782
H6E H 0.3311 0.0154 0.8540
C7E C 0.2502(2) 0.0998(2) 0.84352(9)
H7E H 0.2842 0.1322 0.8316
H8E H 0.2165 0.1322 0.8556
C8E C 0.2014(3) 0.0482(3) 0.82039(12)
H9E H 0.2353 0.0167 0.8081
H10E H 0.1687 0.0148 0.8324
C9E C 0.1538(2) 0.0956(2) 0.79919(10)
C10E C 0.1890(2) 0.1414(2) 0.77529(10)
H11E H 0.2417 0.1436 0.7737
C11E C 0.1483(2) 0.1779(2) 0.75686(10)
H12E H 0.1742 0.2068 0.7421
C12E C 0.0360(3) 0.1346(2) 0.77843(10)
H13E H -0.0168 0.1309 0.7781
C13E C 0.0746(2) 0.0962(2) 0.80044(10)
H14E H 0.0489 0.0706 0.8162
Cd1C Cd 0.0000 0.2500 0.717882(10)
Cd1C_2 Cd 1.0000 0.2500 0.717882(10)
Cl1E Cl 0.60443(6) 0.14638(6) 0.96823(2)
N1E N 0.42693(19) 0.18246(19) 0.93002(9)
N2E N 0.07297(19) 0.1811(2) 0.75544(9)
N2B N 0.4311(2) 0.17703(19) 1.00544(9)
N2G N 0.5689(2) 0.32297(19) 1.00544(9)
C14 C 0.6441(3) 0.6754(2) 0.88093(10)
H15 H 0.6687 0.6981 0.8641
C15 C 0.6859(2) 0.6361(3) 0.90164(10)
H16 H 0.7386 0.6394 0.9003
C16 C 0.6571(2) 0.5944(3) 0.92309(11)
C17 C 0.5831(3) 0.5948(3) 0.92657(11)
H17 H 0.5615 0.5695 0.9434
C18 C 0.5325(3) 0.6351(3) 0.90401(9)
H18 H 0.4799 0.6297 0.9036
C19 C 0.7085(3) 0.5464(3) 0.94555(10)
H19 H 0.6768 0.5109 0.9570
H20 H 0.7443 0.5171 0.9333
C20 C 0.7532(3) 0.5970(2) 0.96913(11)
H21 H 0.7848 0.6330 0.9579
H22 H 0.7178 0.6255 0.9820
C21 C 0.8030(3) 0.5466(3) 0.98972(11)
H23 H 0.7717 0.5092 1.0003
H24 H 0.8399 0.5198 0.9770
C22 C 0.8426(3) 0.5939(3) 1.01283(11)
C23 C 0.9278(3) 0.5906(3) 1.01257(10)
H25 H 0.9537 0.5616 0.9979
C24 C 0.9677(3) 0.6329(2) 1.03540(10)
H26 H 1.0202 0.6278 1.0371
C25 C 0.8539(2) 0.6816(2) 1.05527(10)
H27 H 0.8285 0.7123 1.0696
C26 C 0.8116(3) 0.6360(3) 1.03413(10)
H28 H 0.7588 0.6364 1.0356
Cd2 Cd 0.5000 0.7500 0.843857(12)
Cl2 Cl 0.60584(6) 0.85119(7) 0.84333(3)
N3 N 0.5740(2) 0.68263(19) 0.88327(8)
N4 N 0.9302(2) 0.6807(2) 1.05478(8)
C14E C 0.3559(3) 0.8246(2) 0.88093(10)
H15E H 0.3313 0.8019 0.8641
C15E C 0.3141(2) 0.8639(3) 0.90164(10)
H16E H 0.2614 0.8606 0.9003
C16E C 0.3429(2) 0.9056(3) 0.92309(11)
C17E C 0.4169(3) 0.9052(3) 0.92657(11)
H17E H 0.4385 0.9305 0.9434
C18E C 0.4675(3) 0.8649(3) 0.90401(9)
H18E H 0.5201 0.8703 0.9036
C19E C 0.2915(3) 0.9536(3) 0.94555(10)
H19E H 0.3232 0.9891 0.9570
H20E H 0.2557 0.9829 0.9333
C20E C 0.2468(3) 0.9030(2) 0.96913(11)
H21E H 0.2152 0.8670 0.9579
H22E H 0.2822 0.8745 0.9820
C21E C 0.1970(3) 0.9534(3) 0.98972(11)
H23E H 0.2283 0.9908 1.0003
H24E H 0.1601 0.9802 0.9770
C22E C 0.1574(3) 0.9061(3) 1.01283(11)
C23E C 0.0722(3) 0.9094(3) 1.01257(10)
H25E H 0.0463 0.9384 0.9979
C24E C 0.0323(3) 0.8671(2) 1.03540(10)
H26E H -0.0202 0.8722 1.0371
C25E C 0.1461(2) 0.8184(2) 1.05527(10)
H27E H 0.1715 0.7877 1.0696
C26E C 0.1884(3) 0.8640(3) 1.03413(10)
H28E H 0.2412 0.8636 1.0356
Cd2B Cd 0.0000 0.7500 1.093857(12)
Cd2B_2 Cd 1.0000 0.7500 1.093857(12)
Cl2E Cl 0.39416(6) 0.64881(7) 0.84333(3)
N3E N 0.4260(2) 0.81737(19) 0.88327(8)
N4E N 0.0698(2) 0.8193(2) 1.05478(8)
N4C N 0.4307(2) 0.8198(2) 0.80478(8)
N4F N 0.5693(2) 0.6802(2) 0.80478(8)
O1 O 0.8553(5) 0.8360(4) 0.98698(19)
H29 H 0.8195 0.8637 0.9799
H30 H 0.8799 0.8606 1.0007
O2 O 0.8997(4) 0.7395(4) 0.96933(16)
H31 H 0.9423 0.7580 0.9638
H32 H 0.8746 0.7267 0.9532
O3 O 0.0637(5) 0.5945(4) 0.94021(18)
H33 H 0.0673 0.6427 0.9396
H34 H 0.1066 0.5746 0.9361
O4 O 0.9017(4) 0.6169(4) 0.90678(18)
H35 H 0.9227 0.5900 0.9208
H36 H 0.9149 0.5998 0.8891
O5 O 0.0858(4) 0.7348(4) 0.90907(17)
H37 H 0.1012 0.7787 0.9145
H38 H 0.0669 0.7372 0.8909
loop_
_geom_bond_atom_site_label_1
_geom_bond_atom_site_label_2
_geom_bond_site_symmetry_1
_geom_bond_site_symmetry_2
C1 H1 1_555 1_555
C2 C1 1_555 1_555
H2 C2 1_555 1_555
C3 C2 1_555 1_555
C4 C3 1_555 1_555
H3 C4 1_555 1_555
C5 C4 1_555 1_555
H4 C5 1_555 1_555
C6 C3 1_555 1_555
H5 C6 1_555 1_555
H6 C6 1_555 1_555
C7 C6 1_555 1_555
H7 C7 1_555 1_555
H8 C7 1_555 1_555
C8 C7 1_555 1_555
H9 C8 1_555 1_555
H10 C8 1_555 1_555
C9 C8 1_555 1_555
C10 C9 1_555 1_555
H11 C10 1_555 1_555
C11 C10 1_555 1_555
H12 C11 1_555 1_555
C12 H13 1_555 1_555
C13 C9 1_555 1_555
H14 C13 1_555 1_555
Cd1 Cl1 1_555 1_555
N1 C1 1_555 1_555
N2 C11 1_555 1_555
C14 H15 1_555 1_555
C15 C14 1_555 1_555
H16 C15 1_555 1_555
C16 C15 1_555 1_555
C17 C16 1_555 1_555
H17 C17 1_555 1_555
C18 C17 1_555 1_555
H18 C18 1_555 1_555
C19 C16 1_555 1_555
H19 C19 1_555 1_555
H20 C19 1_555 1_555
C20 C19 1_555 1_555
H21 C20 1_555 1_555
H22 C20 1_555 1_555
C21 C20 1_555 1_555
H23 C21 1_555 1_555
H24 C21 1_555 1_555
C22 C21 1_555 1_555
C23 C22 1_555 1_555
H25 C23 1_555 1_555
C24 C23 1_555 1_555
H26 C24 1_555 1_555
C25 H27 1_555 1_555
C26 C22 1_555 1_555
H28 C26 1_555 1_555
Cd2 Cl2 1_555 1_555
N3 C14 1_555 1_555
N4 C24 1_555 1_555
O1 H29 1_555 1_555
H30 O1 1_555 1_555
O2 H31 1_555 1_555
H32 O2 1_555 1_555
O3 H33 1_555 1_555
H34 O3 1_555 1_555
O4 H35 1_555 1_555
H36 O4 1_555 1_555
O5 H37 1_555 1_555
H38 O5 1_555 1_555
C1E H1E 1_555 1_555
C2E C1E 1_555 1_555
H2E C2E 1_555 1_555
C3E C2E 1_555 1_555
C4E C3E 1_555 1_555
H3E C4E 1_555 1_555
C5E C4E 1_555 1_555
H4E C5E 1_555 1_555
C6E C3E 1_555 1_555
H5E C6E 1_555 1_555
H6E C6E 1_555 1_555
C7E C6E 1_555 1_555
H7E C7E 1_555 1_555
H8E C7E 1_555 1_555
C8E C7E 1_555 1_555
H9E C8E 1_555 1_555
H10E C8E 1_555 1_555
C9E C8E 1_555 1_555
C10E C9E 1_555 1_555
H11E C10E 1_555 1_555
C11E C10E 1_555 1_555
H12E C11E 1_555 1_555
C12E H13E 1_555 1_555
C13E C9E 1_555 1_555
H14E C13E 1_555 1_555
Cd1C N2E 1_555 1_555
Cd1C_2 N2 1_555 1_555
Cl1E Cd1 1_555 1_555
N1E Cd1 1_555 1_555
N2E C11E 1_555 1_555
N2B Cd1 1_555 1_555
N2G Cd1 1_555 1_555
C14E H15E 1_555 1_555
C15E C14E 1_555 1_555
H16E C15E 1_555 1_555
C16E C15E 1_555 1_555
C17E C16E 1_555 1_555
H17E C17E 1_555 1_555
C18E C17E 1_555 1_555
H18E C18E 1_555 1_555
C19E C16E 1_555 1_555
H19E C19E 1_555 1_555
H20E C19E 1_555 1_555
C20E C19E 1_555 1_555
H21E C20E 1_555 1_555
H22E C20E 1_555 1_555
C21E C20E 1_555 1_555
H23E C21E 1_555 1_555
H24E C21E 1_555 1_555
C22E C21E 1_555 1_555
C23E C22E 1_555 1_555
H25E C23E 1_555 1_555
C24E C23E 1_555 1_555
H26E C24E 1_555 1_555
C25E H27E 1_555 1_555
C26E C22E 1_555 1_555
H28E C26E 1_555 1_555
Cd2B N4E 1_555 1_555
Cd2B_2 N4 1_555 1_555
Cl2E Cd2 1_555 1_555
N3E Cd2 1_555 1_555
N4E C24E 1_555 1_555
N4C Cd2 1_555 1_555
N4F Cd2 1_555 1_555
C5 N1 1_555 1_555
C12 C13 1_555 1_555
C12 N2 1_555 1_555
Cd1 N1 1_555 1_555
C18 N3 1_555 1_555
C25 C26 1_555 1_555
C25 N4 1_555 1_555
Cd2 N3 1_555 1_555
C1E N1E 1_555 1_555
C5E N1E 1_555 1_555
C12E C13E 1_555 1_555
C12E N2E 1_555 1_555
C14E N3E 1_555 1_555
C18E N3E 1_555 1_555
C25E C26E 1_555 1_555
C25E N4E 1_555 1_555

#END
