
#######################################################################
#
#                 Cambridge Crystallographic Data Centre
#                                CCDC 
#
#######################################################################
#
# If this CIF has been generated from an entry in the Cambridge 
# Structural Database, then it will include bibliographic, chemical, 
# crystal, experimental, refinement or atomic coordinate data resulting 
# from the CCDC's data processing and validation procedures.
#
#######################################################################

data_GUWRIB
_symmetry_cell_setting           orthorhombic
_symmetry_space_group_name_H-M   'P 21 21 21'
_symmetry_Int_Tables_number      19
_space_group_name_Hall           'P 2ac 2ab'
loop_
_symmetry_equiv_pos_site_id
_symmetry_equiv_pos_as_xyz
1 x,y,z
2 1/2-x,-y,1/2+z
3 1/2+x,1/2-y,-z
4 -x,1/2+y,1/2-z
_cell_length_a                   11.905(3)
_cell_length_b                   17.238(5)
_cell_length_c                   7.529(1)
_cell_angle_alpha                90
_cell_angle_beta                 90
_cell_angle_gamma                90
_cell_volume                     1545.09
loop_
_atom_site_label
_atom_site_type_symbol
_atom_site_fract_x
_atom_site_fract_y
_atom_site_fract_z
V1 V 0.25758(4) 0.00640(2) 0.24596(6)
O1 O 0.2328(2) -0.0137(1) 0.0389(3)
O2 O 0.4201(2) 0.0170(1) 0.2526(3)
O3 O 0.2528(2) 0.1189(1) 0.2523(3)
N1 N 0.2786(2) -0.1102(1) 0.3174(3)
N2 N 0.0876(2) 0.0067(2) 0.3161(3)
C1 C 0.4959(3) -0.0253(2) 0.3326(4)
C2 C 0.6061(3) 0.0042(2) 0.3480(5)
C3 C 0.6883(3) -0.0366(3) 0.4371(8)
C4 C 0.6683(4) -0.1081(3) 0.5066(7)
C5 C 0.5623(3) -0.1401(2) 0.4897(6)
C6 C 0.4749(3) -0.0998(2) 0.4037(4)
C7 C 0.3688(3) -0.1392(2) 0.3820(5)
C8 C 0.1828(3) -0.1639(2) 0.2925(5)
C9 C 0.0747(3) -0.1349(2) 0.3778(5)
C10 C 0.0232(3) -0.0649(2) 0.2873(5)
C11 C 0.0354(3) 0.0653(2) 0.3812(5)
C12 C 0.0792(3) 0.1423(2) 0.4068(4)
C13 C 0.0120(3) 0.1966(2) 0.4977(5)
C14 C 0.0455(4) 0.2721(2) 0.5200(6)
C15 C 0.1457(4) 0.2958(2) 0.4454(6)
C16 C 0.2140(3) 0.2446(2) 0.3534(5)
C17 C 0.1839(3) 0.1659(2) 0.3355(4)
H1 H 0.6240 0.0527 0.2958
H2 H 0.7606 -0.0140 0.4509
H3 H 0.7265 -0.1359 0.5646
H4 H 0.5481 -0.1899 0.5374
H5 H 0.3655 -0.1919 0.4189
H6 H 0.1703 -0.1705 0.1686
H7 H 0.2017 -0.2127 0.3438
H8 H 0.0214 -0.1757 0.3759
H9 H 0.0908 -0.1211 0.4974
H10 H 0.0202 -0.0749 0.1629
H11 H -0.0505 -0.0578 0.3316
H12 H -0.0404 0.0569 0.4167
H13 H -0.0584 0.1806 0.5447
H14 H 0.0005 0.3074 0.5863
H15 H 0.1680 0.3483 0.4570
H16 H 0.2817 0.2627 0.3020
V1A V 0.24242(4) -0.00640(2) -0.25404(6)
O1A O 0.2672(2) 0.0137(1) 0.5389(3)
loop_
_geom_bond_atom_site_label_1
_geom_bond_atom_site_label_2
_geom_bond_site_symmetry_1
_geom_bond_site_symmetry_2
V1 O1 1_555 1_555
O1 V1A 1_555 1_555
O2 V1 1_555 1_555
O3 V1 1_555 1_555
N1 V1 1_555 1_555
N2 V1 1_555 1_555
C1 O2 1_555 1_555
C2 C1 1_555 1_555
C3 C2 1_555 1_555
C4 C3 1_555 1_555
C5 C4 1_555 1_555
C6 C1 1_555 1_555
C7 N1 1_555 1_555
C8 N1 1_555 1_555
C9 C8 1_555 1_555
C10 N2 1_555 1_555
C11 N2 1_555 1_555
C12 C11 1_555 1_555
C13 C12 1_555 1_555
C14 C13 1_555 1_555
C15 C14 1_555 1_555
C16 C15 1_555 1_555
C17 O3 1_555 1_555
H1 C2 1_555 1_555
H2 C3 1_555 1_555
H3 C4 1_555 1_555
H4 C5 1_555 1_555
H5 C7 1_555 1_555
H6 C8 1_555 1_555
H7 C8 1_555 1_555
H8 C9 1_555 1_555
H9 C9 1_555 1_555
H10 C10 1_555 1_555
H11 C10 1_555 1_555
H12 C11 1_555 1_555
H13 C13 1_555 1_555
H14 C14 1_555 1_555
H15 C15 1_555 1_555
H16 C16 1_555 1_555
O1A V1 1_555 1_555
C5 C6 1_555 1_555
C6 C7 1_555 1_555
C9 C10 1_555 1_555
C12 C17 1_555 1_555
C16 C17 1_555 1_555

#END
