
#######################################################################
#
#                 Cambridge Crystallographic Data Centre
#                                CCDC 
#
#######################################################################
#
# If this CIF has been generated from an entry in the Cambridge 
# Structural Database, then it will include bibliographic, chemical, 
# crystal, experimental, refinement or atomic coordinate data resulting 
# from the CCDC's data processing and validation procedures.
#
#######################################################################

data_GUWVOJ
_symmetry_cell_setting           triclinic
_symmetry_space_group_name_H-M   'P -1'
_symmetry_Int_Tables_number      2
_space_group_name_Hall           '-P 1'
loop_
_symmetry_equiv_pos_site_id
_symmetry_equiv_pos_as_xyz
1 x,y,z
2 -x,-y,-z
_cell_length_a                   12.2562(6)
_cell_length_b                   15.3323(7)
_cell_length_c                   24.3529(12)
_cell_angle_alpha                104.708(1)
_cell_angle_beta                 91.890(1)
_cell_angle_gamma                90.659(1)
_cell_volume                     4423
loop_
_atom_site_label
_atom_site_type_symbol
_atom_site_fract_x
_atom_site_fract_y
_atom_site_fract_z
V1 V 0.34405(5) 0.67034(4) 0.20673(3)
V2 V 0.08389(5) 0.20587(4) 0.30721(3)
K1 K 0.23327(8) 0.89412(6) 0.25790(5)
K2 K 0.24263(10) 0.40582(7) 0.28208(5)
Cl1 Cl 0.41965(9) 0.77479(7) 0.28407(4)
Cl2 Cl 0.21169(8) 0.29282(7) 0.36995(4)
F1 F 0.4222(2) 0.92194(16) 0.20814(11)
F2 F 0.6203(2) 0.98896(19) 0.19608(13)
F3 F 0.7584(2) 0.8925(2) 0.11933(14)
F4 F 0.6987(2) 0.7231(2) 0.05822(12)
F5 F 0.50330(19) 0.65197(16) 0.07394(10)
F6 F 0.3123(2) 0.84812(17) 0.06956(11)
F7 F 0.1709(2) 0.78723(19) -0.01905(11)
F8 F 0.0699(2) 0.62303(19) -0.03603(11)
F9 F 0.1150(2) 0.51843(17) 0.03741(11)
F10 F 0.25898(17) 0.58143(14) 0.12684(9)
F11 F 0.62784(18) 0.53800(17) 0.12809(10)
F12 F 0.6381(2) 0.3880(2) 0.04449(11)
F13 F 0.4742(3) 0.26272(18) 0.02480(11)
F14 F 0.2935(2) 0.29344(17) 0.08936(11)
F15 F 0.28454(18) 0.44277(15) 0.17546(10)
F16 F 0.4635(2) 0.45819(17) 0.27035(10)
F17 F 0.6273(3) 0.4652(2) 0.34761(13)
F18 F 0.7914(3) 0.5915(2) 0.35934(14)
F19 F 0.7923(2) 0.7062(2) 0.29116(15)
F20 F 0.6296(2) 0.69916(17) 0.21360(11)
F21 F 0.0900(2) 0.51380(16) 0.23164(10)
F22 F -0.0797(2) 0.4547(2) 0.15820(12)
F23 F -0.1639(2) 0.5621(2) 0.09434(13)
F24 F -0.0740(2) 0.7284(2) 0.10455(12)
F25 F 0.09638(19) 0.78753(16) 0.17631(10)
F26 F 0.0505(2) 0.80969(16) 0.29627(11)
F27 F 0.3052(2) 0.58743(15) 0.31072(10)
F28 F 0.2807(3) 0.6269(2) 0.42285(11)
F29 F 0.1420(3) 0.75888(19) 0.47389(11)
F30 F 0.0254(3) 0.84755(17) 0.40877(12)
F31 F 0.08931(19) 0.47467(15) 0.35051(10)
F32 F 0.0281(2) 0.58541(17) 0.44651(11)
F33 F -0.1526(2) 0.54612(19) 0.49908(10)
F34 F -0.2644(2) 0.3889(2) 0.45500(12)
F35 F -0.1991(2) 0.27313(17) 0.35897(11)
F36 F -0.04124(17) 0.13762(14) 0.23756(9)
F37 F -0.1776(2) 0.09088(18) 0.14330(11)
F38 F -0.3057(2) 0.2203(2) 0.11544(11)
F39 F -0.2904(2) 0.39179(19) 0.18047(11)
F40 F -0.1495(2) 0.43875(17) 0.26936(10)
F41 F 0.3503(2) 1.27566(18) 0.20368(12)
F42 F 0.5646(2) 1.2636(2) 0.22499(16)
F43 F 0.6393(2) 1.1550(2) 0.29002(17)
F44 F 0.4914(3) 1.0571(2) 0.33335(15)
F45 F 0.2785(2) 1.06899(16) 0.31233(11)
F46 F 0.1996(2) 1.00086(16) 0.17774(10)
F47 F 0.1265(3) 0.9567(2) 0.06863(13)
F48 F 0.0551(3) 1.0865(3) 0.01880(13)
F49 F 0.0482(3) 1.2596(2) 0.08120(13)
F50 F 0.1165(2) 1.30428(17) 0.19007(11)
F51 F 0.1466(2) 0.97568(15) 0.36808(10)
F52 F 0.2325(3) 0.96965(19) 0.47031(13)
F53 F 0.2200(3) 1.1170(2) 0.56128(11)
F54 F 0.1208(2) 1.26670(18) 0.54807(10)
F55 F 0.02417(19) 1.26997(15) 0.44799(9)
F56 F 0.03073(19) 0.97819(15) 0.25353(10)
F57 F -0.1399(2) 0.86244(17) 0.22429(12)
F58 F -0.3178(2) 0.88204(19) 0.29001(13)
F59 F -0.32015(19) 1.01677(19) 0.38732(12)
F60 F -0.15029(19) 1.13285(17) 0.41642(10)
N1 N 0.3562(2) 0.7438(2) 0.15045(13)
N2 N 0.4510(2) 0.5758(2) 0.19973(12)
N3 N 0.1965(2) 0.6802(2) 0.24024(12)
N4 N -0.0161(2) 0.3047(2) 0.30280(13)
N5 N 0.1921(2) 1.1781(2) 0.24599(13)
N6 N 0.0348(2) 1.1240(2) 0.35054(13)
C1 C 0.4571(3) 0.7834(3) 0.14225(16)
C2 C 0.4900(3) 0.8694(3) 0.17261(17)
C3 C 0.5916(4) 0.9050(3) 0.1658(2)
C4 C 0.6614(4) 0.8568(4) 0.1269(2)
C5 C 0.6310(4) 0.7720(3) 0.09670(19)
C6 C 0.5311(3) 0.7356(3) 0.10408(18)
C7 C 0.2891(3) 0.7156(3) 0.10050(16)
C8 C 0.2648(3) 0.7665(3) 0.06208(17)
C9 C 0.1922(3) 0.7355(3) 0.01648(17)
C10 C 0.1406(4) 0.6521(3) 0.00829(18)
C11 C 0.1630(3) 0.5992(3) 0.04458(17)
C12 C 0.2365(3) 0.6324(3) 0.08909(15)
C13 C 0.4551(3) 0.4959(3) 0.15485(16)
C14 C 0.5438(3) 0.4788(3) 0.11957(17)
C15 C 0.5499(4) 0.4014(3) 0.07642(18)
C16 C 0.4665(4) 0.3391(3) 0.06605(17)
C17 C 0.3774(4) 0.3540(3) 0.09882(18)
C18 C 0.3739(3) 0.4314(3) 0.14292(16)
C19 C 0.5396(3) 0.5807(3) 0.24032(17)
C20 C 0.5429(4) 0.5222(3) 0.27548(17)
C21 C 0.6255(5) 0.5247(4) 0.3160(2)
C22 C 0.7090(5) 0.5873(4) 0.3213(2)
C23 C 0.7090(4) 0.6471(3) 0.2871(2)
C24 C 0.6255(4) 0.6429(3) 0.24690(19)
C25 C 0.0996(3) 0.6527(3) 0.20605(16)
C26 C 0.0494(3) 0.5694(3) 0.20054(17)
C27 C -0.0380(4) 0.5389(3) 0.16354(19)
C28 C -0.0799(4) 0.5914(4) 0.1311(2)
C29 C -0.0350(4) 0.6759(4) 0.1359(2)
C30 C 0.0530(3) 0.7053(3) 0.17338(18)
C31 C 0.1793(3) 0.6982(3) 0.29922(16)
C32 C 0.2354(4) 0.6534(3) 0.33423(17)
C33 C 0.2251(4) 0.6731(3) 0.39190(18)
C34 C 0.1531(4) 0.7391(3) 0.41736(18)
C35 C 0.0942(4) 0.7829(3) 0.3845(2)
C36 C 0.1072(4) 0.7624(3) 0.32710(18)
C37 C -0.0509(3) 0.3677(3) 0.35247(16)
C38 C 0.0034(3) 0.4486(3) 0.37636(16)
C39 C -0.0287(4) 0.5084(3) 0.42563(18)
C40 C -0.1194(4) 0.4880(3) 0.45189(17)
C41 C -0.1760(3) 0.4091(3) 0.42931(18)
C42 C -0.1421(3) 0.3505(3) 0.38087(17)
C43 C -0.0934(3) 0.2877(3) 0.25689(16)
C44 C -0.1046(3) 0.2020(3) 0.22232(17)
C45 C -0.1726(3) 0.1765(3) 0.17425(18)
C46 C -0.2357(3) 0.2418(3) 0.16033(18)
C47 C -0.2278(3) 0.3290(3) 0.19383(19)
C48 C -0.1581(3) 0.3514(3) 0.24025(18)
C49 C 0.3066(3) 1.1717(3) 0.25624(17)
C50 C 0.3834(4) 1.2187(3) 0.2351(2)
C51 C 0.4943(4) 1.2146(3) 0.2466(2)
C52 C 0.5314(4) 1.1611(4) 0.2796(3)
C53 C 0.4582(4) 1.1127(3) 0.3019(2)
C54 C 0.3481(3) 1.1185(3) 0.28995(18)
C55 C 0.1605(3) 1.1543(3) 0.18776(17)
C56 C 0.1615(3) 1.0664(3) 0.15416(18)
C57 C 0.1264(4) 1.0424(3) 0.0985(2)
C58 C 0.0874(4) 1.1082(4) 0.0734(2)
C59 C 0.0845(4) 1.1955(4) 0.1050(2)
C60 C 0.1200(3) 1.2170(3) 0.16100(19)
C61 C 0.0831(3) 1.1233(3) 0.40467(17)
C62 C 0.1377(3) 1.0488(3) 0.41267(18)
C63 C 0.1832(4) 1.0449(3) 0.4646(2)
C64 C 0.1774(4) 1.1182(3) 0.51008(19)
C65 C 0.1266(4) 1.1949(3) 0.50371(18)
C66 C 0.0781(3) 1.1969(3) 0.45164(17)
C67 C -0.0545(3) 1.0611(3) 0.33547(16)
C68 C -0.0564(3) 0.9903(3) 0.28715(17)
C69 C -0.1438(4) 0.9298(3) 0.27097(19)
C70 C -0.2321(4) 0.9391(3) 0.3052(2)
C71 C -0.2332(3) 1.0075(3) 0.3539(2)
C72 C -0.1463(3) 1.0667(3) 0.36822(17)
N5_2 N 0.1921(2) 0.1781(2) 0.24599(13)
N6_2 N 0.0348(2) 0.1240(2) 0.35054(13)
F41_2 F 0.3503(2) 0.27566(18) 0.20368(12)
F50_2 F 0.1165(2) 0.30428(17) 0.19007(11)
K2_2 K 0.24263(10) 1.40582(7) 0.28208(5)
V2_2 V 0.08389(5) 1.20587(4) 0.30721(3)
loop_
_geom_bond_atom_site_label_1
_geom_bond_atom_site_label_2
_geom_bond_site_symmetry_1
_geom_bond_site_symmetry_2
V1 Cl1 1_555 1_555
V2 Cl2 1_555 1_555
K1 Cl1 1_555 1_555
K2 Cl2 1_555 1_555
F1 K1 1_555 1_555
F2 C3 1_555 1_555
F3 C4 1_555 1_555
F4 C5 1_555 1_555
F5 C6 1_555 1_555
F6 C8 1_555 1_555
F7 C9 1_555 1_555
F8 C10 1_555 1_555
F9 C11 1_555 1_555
F10 V1 1_555 1_555
F11 C14 1_555 1_555
F12 C15 1_555 1_555
F13 C16 1_555 1_555
F14 C17 1_555 1_555
F15 K2 1_555 1_555
F16 K2 1_555 1_555
F17 C21 1_555 1_555
F18 C22 1_555 1_555
F19 C23 1_555 1_555
F20 C24 1_555 1_555
F21 K2 1_555 1_555
F22 C27 1_555 1_555
F23 C28 1_555 1_555
F24 C29 1_555 1_555
F25 K1 1_555 1_555
F26 K1 1_555 1_555
F27 K2 1_555 1_555
F28 C33 1_555 1_555
F29 C34 1_555 1_555
F30 C35 1_555 1_555
F31 K2 1_555 1_555
F32 C39 1_555 1_555
F33 C40 1_555 1_555
F34 C41 1_555 1_555
F35 C42 1_555 1_555
F36 V2 1_555 1_555
F37 C45 1_555 1_555
F38 C46 1_555 1_555
F39 C47 1_555 1_555
F40 C48 1_555 1_555
F41 C50 1_555 1_555
F42 C51 1_555 1_555
F43 C52 1_555 1_555
F44 C53 1_555 1_555
F45 K1 1_555 1_555
F46 K1 1_555 1_555
F47 C57 1_555 1_555
F48 C58 1_555 1_555
F49 C59 1_555 1_555
F50 C60 1_555 1_555
F51 K1 1_555 1_555
F52 C63 1_555 1_555
F53 C64 1_555 1_555
F54 C65 1_555 1_555
F55 C66 1_555 1_555
F56 K1 1_555 1_555
F57 C69 1_555 1_555
F58 C70 1_555 1_555
F59 C71 1_555 1_555
F60 C72 1_555 1_555
N1 V1 1_555 1_555
N2 V1 1_555 1_555
N3 V1 1_555 1_555
N4 V2 1_555 1_555
N5 C49 1_555 1_555
N6 C61 1_555 1_555
C1 N1 1_555 1_555
C2 F1 1_555 1_555
C3 C2 1_555 1_555
C4 C3 1_555 1_555
C5 C4 1_555 1_555
C6 C1 1_555 1_555
C7 N1 1_555 1_555
C8 C7 1_555 1_555
C9 C8 1_555 1_555
C10 C9 1_555 1_555
C11 C10 1_555 1_555
C12 F10 1_555 1_555
C13 N2 1_555 1_555
C14 C13 1_555 1_555
C15 C14 1_555 1_555
C16 C15 1_555 1_555
C17 C16 1_555 1_555
C18 F15 1_555 1_555
C19 N2 1_555 1_555
C20 F16 1_555 1_555
C21 C20 1_555 1_555
C22 C21 1_555 1_555
C23 C22 1_555 1_555
C24 C19 1_555 1_555
C25 N3 1_555 1_555
C26 F21 1_555 1_555
C27 C26 1_555 1_555
C28 C27 1_555 1_555
C29 C28 1_555 1_555
C30 F25 1_555 1_555
C31 N3 1_555 1_555
C32 F27 1_555 1_555
C33 C32 1_555 1_555
C34 C33 1_555 1_555
C35 C34 1_555 1_555
C36 F26 1_555 1_555
C37 N4 1_555 1_555
C38 F31 1_555 1_555
C39 C38 1_555 1_555
C40 C39 1_555 1_555
C41 C40 1_555 1_555
C42 C37 1_555 1_555
C43 N4 1_555 1_555
C44 F36 1_555 1_555
C45 C44 1_555 1_555
C46 C45 1_555 1_555
C47 C46 1_555 1_555
C48 C43 1_555 1_555
C49 C50 1_555 1_555
C50 C51 1_555 1_555
C51 C52 1_555 1_555
C52 C53 1_555 1_555
C53 C54 1_555 1_555
C54 F45 1_555 1_555
C55 N5 1_555 1_555
C56 F46 1_555 1_555
C57 C56 1_555 1_555
C58 C57 1_555 1_555
C59 C58 1_555 1_555
C60 C55 1_555 1_555
C61 C62 1_555 1_555
C62 F51 1_555 1_555
C63 C62 1_555 1_555
C64 C63 1_555 1_555
C65 C64 1_555 1_555
C66 C61 1_555 1_555
C67 N6 1_555 1_555
C68 F56 1_555 1_555
C69 C68 1_555 1_555
C70 C69 1_555 1_555
C71 C70 1_555 1_555
C72 C67 1_555 1_555
N5_2 V2 1_555 1_555
N6_2 V2 1_555 1_555
F41_2 K2 1_555 1_555
F50_2 K2 1_555 1_555
K2_2 F41 1_555 1_555
V2_2 N5 1_555 1_555
F50 K2_2 1_555 1_555
N6 V2_2 1_555 1_555
C1 C2 1_555 1_555
C5 C6 1_555 1_555
C7 C12 1_555 1_555
C11 C12 1_555 1_555
C13 C18 1_555 1_555
C17 C18 1_555 1_555
C19 C20 1_555 1_555
C23 C24 1_555 1_555
C25 C26 1_555 1_555
C25 C30 1_555 1_555
C29 C30 1_555 1_555
C31 C32 1_555 1_555
C31 C36 1_555 1_555
C35 C36 1_555 1_555
C37 C38 1_555 1_555
C41 C42 1_555 1_555
C43 C44 1_555 1_555
C47 C48 1_555 1_555
C49 C54 1_555 1_555
C55 C56 1_555 1_555
C59 C60 1_555 1_555
C65 C66 1_555 1_555
C67 C68 1_555 1_555
C71 C72 1_555 1_555

#END
