
#######################################################################
#
#                 Cambridge Crystallographic Data Centre
#                                CCDC 
#
#######################################################################
#
# If this CIF has been generated from an entry in the Cambridge 
# Structural Database, then it will include bibliographic, chemical, 
# crystal, experimental, refinement or atomic coordinate data resulting 
# from the CCDC's data processing and validation procedures.
#
#######################################################################

data_GUWWUR
_symmetry_cell_setting           monoclinic
_symmetry_space_group_name_H-M   'P 21/n'
_symmetry_Int_Tables_number      14
_space_group_name_Hall           '-P 2yn'
loop_
_symmetry_equiv_pos_site_id
_symmetry_equiv_pos_as_xyz
1 x,y,z
2 1/2-x,1/2+y,1/2-z
3 -x,-y,-z
4 1/2+x,1/2-y,1/2+z
_cell_length_a                   6.8953(3)
_cell_length_b                   16.4266(6)
_cell_length_c                   8.6791(4)
_cell_angle_alpha                90
_cell_angle_beta                 108.814(4)
_cell_angle_gamma                90
_cell_volume                     930.526
loop_
_atom_site_label
_atom_site_type_symbol
_atom_site_fract_x
_atom_site_fract_y
_atom_site_fract_z
Cu1 Cu 1.0000 0.0000 1.0000
Cu2 Cu 1.5000 0.0000 1.0000
C1 C 0.7394(3) 0.10136(17) 0.6043(3)
H1 H 0.6751 0.0807 0.6807
H2 H 0.6791 0.0733 0.5016
C2 C 0.6961(4) 0.19286(18) 0.5793(4)
H3 H 0.5538 0.2024 0.5692
H4 H 0.7796 0.2214 0.6758
C3 C 0.7368(4) 0.22927(18) 0.4324(4)
H5 H 0.6868 0.2849 0.4195
H6 H 0.6573 0.1992 0.3366
C4 C 0.9588(4) 0.23004(17) 0.4370(4)
H7 H 0.9679 0.2609 0.3443
H8 H 1.0395 0.2584 0.5346
C5 C 1.0531(4) 0.14715(19) 0.4346(4)
H9 H 0.9610 0.1145 0.3488
H10 H 1.1805 0.1534 0.4109
C6 C 0.9617(4) 0.08343(16) 0.6667(3)
N1 N 1.0670(3) 0.04761(13) 0.8063(3)
N2 N 1.2660(3) 0.04763(14) 0.8088(3)
N3 N 1.2847(3) 0.08226(15) 0.6818(3)
N4 N 1.0938(3) 0.10469(14) 0.5922(3)
Cl1 Cl 1.37780(9) 0.07096(4) 1.17296(9)
Cl2 Cl 0.81739(10) 0.11304(4) 1.01499(9)
Cu2_2 Cu 0.5000 0.0000 1.0000
C1B C 1.2606(3) -0.10136(17) 1.3957(3)
H1B H 1.3249 -0.0807 1.3193
H2B H 1.3209 -0.0733 1.4984
C2B C 1.3039(4) -0.19286(18) 1.4207(4)
H3B H 1.4462 -0.2024 1.4308
H4B H 1.2204 -0.2214 1.3242
C3B C 1.2632(4) -0.22927(18) 1.5676(4)
H5B H 1.3132 -0.2849 1.5805
H6B H 1.3427 -0.1992 1.6634
C4B C 1.0412(4) -0.23004(17) 1.5630(4)
H7B H 1.0321 -0.2609 1.6557
H8B H 0.9605 -0.2584 1.4654
C5B C 0.9469(4) -0.14715(19) 1.5654(4)
H9B H 1.0390 -0.1145 1.6512
H10B H 0.8195 -0.1534 1.5891
C6B C 1.0383(4) -0.08343(16) 1.3333(3)
N1B N 0.9330(3) -0.04761(13) 1.1937(3)
N2B N 0.7340(3) -0.04763(14) 1.1912(3)
N2B_2 N 1.7340(3) -0.04763(14) 1.1912(3)
N3B N 0.7153(3) -0.08226(15) 1.3182(3)
N4B N 0.9062(3) -0.10469(14) 1.4078(3)
Cl1B Cl 1.62220(9) -0.07096(4) 0.82704(9)
Cl2B Cl 1.18261(10) -0.11304(4) 0.98501(9)
loop_
_geom_bond_atom_site_label_1
_geom_bond_atom_site_label_2
_geom_bond_site_symmetry_1
_geom_bond_site_symmetry_2
Cu1 N1 1_555 1_555
Cu2 N2 1_555 1_555
C1 H1 1_555 1_555
H2 C1 1_555 1_555
C2 C1 1_555 1_555
H3 C2 1_555 1_555
H4 C2 1_555 1_555
C3 C2 1_555 1_555
H5 C3 1_555 1_555
H6 C3 1_555 1_555
C4 C3 1_555 1_555
H7 C4 1_555 1_555
H8 C4 1_555 1_555
C5 C4 1_555 1_555
H9 C5 1_555 1_555
H10 C5 1_555 1_555
C6 C1 1_555 1_555
N1 C6 1_555 1_555
N2 N1 1_555 1_555
N3 N2 1_555 1_555
N4 C5 1_555 1_555
Cl1 Cu2 1_555 1_555
Cl2 Cu1 1_555 1_555
Cu2_2 N2B 1_555 1_555
C1B H1B 1_555 1_555
H2B C1B 1_555 1_555
C2B C1B 1_555 1_555
H3B C2B 1_555 1_555
H4B C2B 1_555 1_555
C3B C2B 1_555 1_555
H5B C3B 1_555 1_555
H6B C3B 1_555 1_555
C4B C3B 1_555 1_555
H7B C4B 1_555 1_555
H8B C4B 1_555 1_555
C5B C4B 1_555 1_555
H9B C5B 1_555 1_555
H10B C5B 1_555 1_555
C6B C1B 1_555 1_555
N1B Cu1 1_555 1_555
N2B N1B 1_555 1_555
N2B_2 Cu2 1_555 1_555
N3B N2B 1_555 1_555
N4B C5B 1_555 1_555
Cl1B Cu2 1_555 1_555
Cl2B Cu1 1_555 1_555
C6 N4 1_555 1_555
N3 N4 1_555 1_555
C6B N1B 1_555 1_555
C6B N4B 1_555 1_555
N3B N4B 1_555 1_555

#END
