
#######################################################################
#
#                 Cambridge Crystallographic Data Centre
#                                CCDC 
#
#######################################################################
#
# If this CIF has been generated from an entry in the Cambridge 
# Structural Database, then it will include bibliographic, chemical, 
# crystal, experimental, refinement or atomic coordinate data resulting 
# from the CCDC's data processing and validation procedures.
#
#######################################################################

data_GUWWOK
_symmetry_cell_setting           orthorhombic
_symmetry_space_group_name_H-M   'P 21 21 21'
_symmetry_Int_Tables_number      19
_space_group_name_Hall           'P 2ac 2ab'
loop_
_symmetry_equiv_pos_site_id
_symmetry_equiv_pos_as_xyz
1 x,y,z
2 1/2-x,-y,1/2+z
3 -x,1/2+y,1/2-z
4 1/2+x,1/2-y,-z
_cell_length_a                   10.741(2)
_cell_length_b                   13.818(3)
_cell_length_c                   25.741(5)
_cell_angle_alpha                90
_cell_angle_beta                 90
_cell_angle_gamma                90
_cell_volume                     3820.46
loop_
_atom_site_label
_atom_site_type_symbol
_atom_site_fract_x
_atom_site_fract_y
_atom_site_fract_z
Mn1 Mn 0.15903(9) 0.53294(6) 1.55215(3)
O1 O 0.0888(4) 0.6153(3) 1.61978(17)
O2 O 0.2686(4) 0.6603(3) 1.58708(17)
O3 O 0.1149(4) 1.0894(3) 1.82551(16)
H1 H 0.0494 1.0946 1.8416
O4 O 0.2175(5) 1.4093(3) 1.59291(17)
O5 O 0.4113(5) 1.4486(3) 1.61463(17)
O6 O 0.3963(4) 0.9858(3) 1.82823(16)
H2 H 0.4623 0.9804 1.8440
O7 O -0.0088(5) 0.4486(4) 1.5403(2)
O8 O 0.2901(4) 0.5230(3) 1.48947(17)
O9 O 0.0689(4) 0.6355(3) 1.49931(18)
N1 N -0.1495(7) 0.3365(5) 1.5664(3)
N2 N 0.4873(5) 0.5562(4) 1.4638(2)
C1 C 0.2042(6) 0.9986(4) 1.7579(2)
C2 C 0.1082(6) 1.0111(4) 1.7929(2)
C3 C 0.0077(6) 0.9474(4) 1.7958(2)
H3 H -0.0562 0.9585 1.8194
C4 C 0.0034(6) 0.8675(5) 1.7632(2)
H4 H -0.0628 0.8244 1.7656
C5 C 0.0959(6) 0.7711(4) 1.6928(2)
H5 H 0.0302 0.7274 1.6948
C6 C 0.1890(5) 0.7564(4) 1.6569(2)
C7 C 0.2899(6) 0.8220(4) 1.6533(2)
H6 H 0.3520 0.8125 1.6287
C8 C 0.2951(6) 0.9002(4) 1.6866(2)
H7 H 0.3622 0.9426 1.6846
C9 C 0.2011(6) 0.9171(4) 1.7236(2)
C10 C 0.0983(6) 0.8512(4) 1.7266(2)
C11 C 0.1823(6) 0.6723(4) 1.6194(2)
C12 C 0.3122(5) 1.0671(4) 1.7564(2)
C13 C 0.4066(6) 1.0577(4) 1.7919(2)
C14 C 0.5107(6) 1.1204(4) 1.7914(2)
H8 H 0.5752 1.1119 1.8150
C15 C 0.5153(6) 1.1939(4) 1.7557(2)
H9 H 0.5841 1.2347 1.7553
C16 C 0.4192(6) 1.2890(4) 1.6848(2)
H10 H 0.4872 1.3306 1.6844
C17 C 0.3226(6) 1.3061(4) 1.6519(2)
C18 C 0.2198(6) 1.2408(4) 1.6514(2)
H11 H 0.1538 1.2510 1.6287
C19 C 0.2183(6) 1.1632(5) 1.6844(2)
H12 H 0.1507 1.1212 1.6833
C20 C 0.3148(6) 1.1444(4) 1.7198(2)
C21 C 0.4194(6) 1.2093(4) 1.7198(2)
C22 C 0.3181(7) 1.3942(4) 1.6175(2)
C23 C -0.0972(8) 0.4224(5) 1.5677(3)
H13 H -0.1292 0.4671 1.5912
C24 C -0.0637(13) 0.2508(10) 1.5381(5)
H14 H 0.0225 0.2697 1.5334
H15 H -0.0687 0.1889 1.5558
C25 C -0.1264(14) 0.2530(12) 1.4959(7)
H16 H -0.0928 0.2067 1.4719
H17 H -0.1217 0.3166 1.4811
H18 H -0.2117 0.2373 1.5032
C26 C -0.2608(8) 0.3097(8) 1.5976(4)
H19 H -0.3028 0.3685 1.6084
H20 H -0.3177 0.2738 1.5756
C27 C -0.2332(10) 0.2510(7) 1.6442(4)
H21 H -0.3092 0.2371 1.6623
H22 H -0.1781 0.2862 1.6667
H23 H -0.1943 0.1914 1.6339
C28 C 0.4028(7) 0.5328(5) 1.4988(3)
H24 H 0.4294 0.5231 1.5327
C29 C 0.6193(7) 0.5650(7) 1.4789(3)
H25 H 0.6248 0.5663 1.5165
H26 H 0.6514 0.6260 1.4659
C30 C 0.6988(8) 0.4849(8) 1.4589(4)
H27 H 0.7832 0.4949 1.4699
H28 H 0.6953 0.4840 1.4216
H29 H 0.6690 0.4243 1.4723
C31 C 0.4514(8) 0.5762(6) 1.4104(3)
H30 H 0.5094 0.6228 1.3960
H31 H 0.3697 0.6061 1.4106
C32 C 0.4474(10) 0.4910(7) 1.3758(4)
H32 H 0.4226 0.5110 1.3416
H33 H 0.3887 0.4449 1.3890
H34 H 0.5285 0.4619 1.3742
C33 C -0.0523(8) 0.6802(6) 1.5091(3)
H35 H -0.0730 0.7226 1.4808
H36 H -0.0489 0.7167 1.5408
H37 H -0.1146 0.6307 1.5120
O4_2 O 0.2175(5) 0.4093(3) 1.59291(17)
Mn1_2 Mn 0.15903(9) 1.53294(6) 1.55215(3)
N3 N 0.5997(5) 0.8846(4) 1.6037(2)
C34 C 0.6548(7) 0.8106(5) 1.6288(2)
C35 C 0.7007(7) 0.8198(6) 1.6778(3)
H38 H 0.7384 0.7673 1.6941
C36 C 0.6910(7) 0.9080(6) 1.7036(3)
H39 H 0.7226 0.9157 1.7370
C37 C 0.6338(6) 0.9833(6) 1.6786(3)
H40 H 0.6243 1.0426 1.6952
C38 C 0.5900(6) 0.9706(5) 1.6282(2)
C39 C 0.6600(9) 0.7158(5) 1.5992(3)
H41 H 0.6231 0.7242 1.5655
H42 H 0.6150 0.6670 1.6180
H43 H 0.7451 0.6960 1.5953
C40 C 0.5286(8) 1.0523(6) 1.5983(3)
H44 H 0.5056 1.0299 1.5643
H45 H 0.5858 1.1053 1.5951
H46 H 0.4555 1.0733 1.6165
loop_
_geom_bond_atom_site_label_1
_geom_bond_atom_site_label_2
_geom_bond_site_symmetry_1
_geom_bond_site_symmetry_2
Mn1 O1 1_555 1_555
O1 C11 1_555 1_555
O2 Mn1 1_555 1_555
O3 H1 1_555 1_555
O4 C22 1_555 1_555
O5 C22 1_555 1_555
O6 H2 1_555 1_555
O7 Mn1 1_555 1_555
O8 Mn1 1_555 1_555
O9 Mn1 1_555 1_555
N1 C23 1_555 1_555
N2 C28 1_555 1_555
N3 C34 1_555 1_555
C1 C2 1_555 1_555
C2 O3 1_555 1_555
C3 C2 1_555 1_555
H3 C3 1_555 1_555
C4 C3 1_555 1_555
H4 C4 1_555 1_555
C5 H5 1_555 1_555
C6 C5 1_555 1_555
C7 C6 1_555 1_555
H6 C7 1_555 1_555
C8 C7 1_555 1_555
H7 C8 1_555 1_555
C9 C1 1_555 1_555
C10 C4 1_555 1_555
C11 O2 1_555 1_555
C12 C1 1_555 1_555
C13 O6 1_555 1_555
C14 C13 1_555 1_555
H8 C14 1_555 1_555
C15 C14 1_555 1_555
H9 C15 1_555 1_555
C16 H10 1_555 1_555
C17 C16 1_555 1_555
C18 C17 1_555 1_555
H11 C18 1_555 1_555
C19 C18 1_555 1_555
H12 C19 1_555 1_555
C20 C12 1_555 1_555
C21 C15 1_555 1_555
C22 C17 1_555 1_555
C23 O7 1_555 1_555
H13 C23 1_555 1_555
C24 N1 1_555 1_555
H14 C24 1_555 1_555
H15 C24 1_555 1_555
C25 C24 1_555 1_555
H16 C25 1_555 1_555
H17 C25 1_555 1_555
H18 C25 1_555 1_555
C26 N1 1_555 1_555
H19 C26 1_555 1_555
H20 C26 1_555 1_555
C27 C26 1_555 1_555
H21 C27 1_555 1_555
H22 C27 1_555 1_555
H23 C27 1_555 1_555
C28 O8 1_555 1_555
H24 C28 1_555 1_555
C29 N2 1_555 1_555
H25 C29 1_555 1_555
H26 C29 1_555 1_555
C30 C29 1_555 1_555
H27 C30 1_555 1_555
H28 C30 1_555 1_555
H29 C30 1_555 1_555
C31 N2 1_555 1_555
H30 C31 1_555 1_555
H31 C31 1_555 1_555
C32 C31 1_555 1_555
H32 C32 1_555 1_555
H33 C32 1_555 1_555
H34 C32 1_555 1_555
C33 O9 1_555 1_555
H35 C33 1_555 1_555
H36 C33 1_555 1_555
H37 C33 1_555 1_555
C34 C35 1_555 1_555
C35 H38 1_555 1_555
C36 C35 1_555 1_555
H39 C36 1_555 1_555
C37 C36 1_555 1_555
H40 C37 1_555 1_555
C38 N3 1_555 1_555
C39 C34 1_555 1_555
H41 C39 1_555 1_555
H42 C39 1_555 1_555
H43 C39 1_555 1_555
C40 C38 1_555 1_555
H44 C40 1_555 1_555
H45 C40 1_555 1_555
H46 C40 1_555 1_555
O4_2 Mn1 1_555 1_555
Mn1_2 O4 1_555 1_555
C5 C10 1_555 1_555
C6 C11 1_555 1_555
C8 C9 1_555 1_555
C9 C10 1_555 1_555
C12 C13 1_555 1_555
C16 C21 1_555 1_555
C19 C20 1_555 1_555
C20 C21 1_555 1_555
C37 C38 1_555 1_555

#END
