
#######################################################################
#
#                 Cambridge Crystallographic Data Centre
#                                CCDC 
#
#######################################################################
#
# If this CIF has been generated from an entry in the Cambridge 
# Structural Database, then it will include bibliographic, chemical, 
# crystal, experimental, refinement or atomic coordinate data resulting 
# from the CCDC's data processing and validation procedures.
#
#######################################################################

data_GUWWUQ
_symmetry_cell_setting           orthorhombic
_symmetry_space_group_name_H-M   'P 21 21 21'
_symmetry_Int_Tables_number      19
_space_group_name_Hall           'P 2ac 2ab'
loop_
_symmetry_equiv_pos_site_id
_symmetry_equiv_pos_as_xyz
1 x,y,z
2 1/2-x,-y,1/2+z
3 -x,1/2+y,1/2-z
4 1/2+x,1/2-y,-z
_cell_length_a                   9.937(2)
_cell_length_b                   14.482(3)
_cell_length_c                   26.758(5)
_cell_angle_alpha                90
_cell_angle_beta                 90
_cell_angle_gamma                90
_cell_volume                     3850.68
loop_
_atom_site_label
_atom_site_type_symbol
_atom_site_fract_x
_atom_site_fract_y
_atom_site_fract_z
Co1 Co 0.67017(14) -0.50278(14) 0.17882(5)
O1 O 0.8063(8) -0.4239(6) 0.1246(2)
O2 O 0.6112(7) -0.3735(6) 0.1538(3)
O3 O 0.8454(8) 0.0438(6) -0.0637(3)
O4 O 0.5667(8) 0.4266(6) 0.1150(3)
O5 O 0.7332(8) 0.3647(6) 0.1588(3)
O6 O 0.5261(8) -0.0483(6) -0.0684(3)
O7 O 0.5052(9) -0.5399(6) 0.2211(3)
O8 O 0.7943(8) -0.4674(6) 0.2348(3)
C1 C 0.7362(11) -0.0386(8) 0.0010(3)
C2 C 0.8454(11) -0.0279(7) -0.0317(4)
C3 C 0.9528(12) -0.0915(8) -0.0325(4)
H1 H 1.0248 -0.0821 -0.0542
C4 C 0.9522(12) -0.1699(8) -0.0005(4)
H2 H 1.0224 -0.2124 -0.0009
C5 C 0.8344(12) -0.2611(8) 0.0629(4)
H3 H 0.9037 -0.3042 0.0617
C6 C 0.7251(12) -0.2746(9) 0.0948(4)
C7 C 0.6225(12) -0.2077(9) 0.0982(4)
H4 H 0.5528 -0.2155 0.1210
C8 C 0.6251(12) -0.1312(8) 0.0681(4)
H5 H 0.5561 -0.0879 0.0702
C9 C 0.7322(11) -0.1172(8) 0.0337(4)
C10 C 0.8394(11) -0.1811(8) 0.0324(4)
C11 C 0.7169(14) -0.3620(9) 0.1262(4)
C12 C 0.6282(10) 0.0318(8) -0.0002(4)
C13 C 0.5284(11) 0.0264(8) -0.0368(4)
C14 C 0.4253(12) 0.0971(9) -0.0409(4)
H6 H 0.3551 0.0900 -0.0635
C15 C 0.4313(13) 0.1740(9) -0.0115(4)
H7 H 0.3689 0.2211 -0.0161
C16 C 0.5341(14) 0.2639(9) 0.0583(4)
H8 H 0.4685 0.3094 0.0555
C17 C 0.6348(12) 0.2713(9) 0.0926(4)
C18 C 0.7314(12) 0.2024(9) 0.0996(4)
H9 H 0.7971 0.2098 0.1240
C19 C 0.7304(12) 0.1218(9) 0.0700(4)
H10 H 0.7935 0.0754 0.0754
C20 C 0.6294(11) 0.1120(8) 0.0309(4)
C21 C 0.5321(11) 0.1832(8) 0.0263(4)
C22 C 0.6440(13) 0.3560(9) 0.1239(4)
N1 N 0.2780(13) -0.5876(14) 0.2089(5)
C23 C 0.3831(19) -0.5447(13) 0.1963(5)
H11 H 0.3779 -0.5120 0.1664
C24 C 0.2834(19) -0.6518(17) 0.2610(6)
C25 C 0.361(3) -0.7318(19) 0.2351(15)
H12 H 0.3767 -0.7806 0.2587
H13 H 0.4460 -0.7093 0.2229
H14 H 0.3091 -0.7550 0.2076
C26 C 0.1629(19) -0.5902(19) 0.1813(7)
H15 H 0.1132 -0.5368 0.1755
C27 C 0.114(3) -0.6892(18) 0.1589(7)
H16 H 0.0319 -0.6812 0.1407
H17 H 0.1005 -0.7319 0.1858
H18 H 0.1824 -0.7128 0.1368
O4_2 O 0.5667(8) -0.5734(6) 0.1150(3)
O5_2 O 0.7332(8) -0.6353(6) 0.1588(3)
Co1_2 Co 0.67017(14) 0.49722(14) 0.17882(5)
N2 N -0.2041(9) -0.4923(7) 0.3371(2)
C28 C -0.0821(7) -0.5106(8) 0.3605(3)
C29 C -0.0732(8) -0.5083(8) 0.4123(3)
H19 H 0.0085 -0.5205 0.4279
C30 C -0.1863(11) -0.4877(8) 0.4407(2)
H20 H -0.1803 -0.4861 0.4754
C31 C -0.3083(9) -0.4694(8) 0.4173(3)
H21 H -0.3840 -0.4556 0.4364
C32 C -0.3172(7) -0.4717(7) 0.3655(3)
C33 C 0.0278(19) -0.5385(19) 0.3226(7)
H22 H 0.1100 -0.5514 0.3401
H23 H 0.0422 -0.4889 0.2994
H24 H -0.0006 -0.5926 0.3047
C34 C -0.420(3) -0.4558(15) 0.3348(6)
H25 H -0.4988 -0.4411 0.3540
H26 H -0.4370 -0.5099 0.3151
H27 H -0.3986 -0.4050 0.3132
N3 N -0.1779(10) -0.8017(7) 0.3147(3)
O9 O 0.0153(10) -0.8376(7) 0.2708(3)
C35 C -0.0618(14) -0.8414(10) 0.3111(5)
H28 H -0.0305 -0.8746 0.3385
C36 C -0.2502(13) -0.8134(9) 0.3628(4)
H29 H -0.2136 -0.8660 0.3806
H30 H -0.3447 -0.8253 0.3564
C37 C -0.2360(15) -0.7265(10) 0.3951(5)
H31 H -0.2847 -0.7348 0.4257
H32 H -0.2719 -0.6744 0.3773
H33 H -0.1427 -0.7160 0.4023
C38 C -0.2389(14) -0.7499(10) 0.2734(4)
H34 H -0.1695 -0.7224 0.2528
H35 H -0.2957 -0.7010 0.2864
C39 C -0.3249(18) -0.8193(12) 0.2419(6)
H36 H -0.3662 -0.7871 0.2145
H37 H -0.3933 -0.8460 0.2627
H38 H -0.2677 -0.8672 0.2291
loop_
_geom_bond_atom_site_label_1
_geom_bond_atom_site_label_2
_geom_bond_site_symmetry_1
_geom_bond_site_symmetry_2
Co1 O1 1_555 1_555
O1 C11 1_555 1_555
O2 Co1 1_555 1_555
O3 C2 1_555 1_555
O4 C22 1_555 1_555
O5 C22 1_555 1_555
O6 C13 1_555 1_555
O7 Co1 1_555 1_555
O8 Co1 1_555 1_555
C1 C2 1_555 1_555
C2 C3 1_555 1_555
C3 H1 1_555 1_555
C4 C3 1_555 1_555
H2 C4 1_555 1_555
C5 H3 1_555 1_555
C6 C5 1_555 1_555
C7 C6 1_555 1_555
H4 C7 1_555 1_555
C8 C7 1_555 1_555
H5 C8 1_555 1_555
C9 C1 1_555 1_555
C10 C4 1_555 1_555
C11 O2 1_555 1_555
C12 C1 1_555 1_555
C13 C12 1_555 1_555
C14 C13 1_555 1_555
H6 C14 1_555 1_555
C15 C14 1_555 1_555
H7 C15 1_555 1_555
C16 H8 1_555 1_555
C17 C16 1_555 1_555
C18 C17 1_555 1_555
H9 C18 1_555 1_555
C19 C18 1_555 1_555
H10 C19 1_555 1_555
C20 C12 1_555 1_555
C21 C15 1_555 1_555
C22 C17 1_555 1_555
N1 C23 1_555 1_555
C23 O7 1_555 1_555
H11 C23 1_555 1_555
C24 N1 1_555 1_555
C25 C24 1_555 1_555
H12 C25 1_555 1_555
H13 C25 1_555 1_555
H14 C25 1_555 1_555
C26 N1 1_555 1_555
H15 C26 1_555 1_555
C27 C26 1_555 1_555
H16 C27 1_555 1_555
H17 C27 1_555 1_555
H18 C27 1_555 1_555
N2 C28 1_555 1_555
C28 C29 1_555 1_555
C29 H19 1_555 1_555
C30 C29 1_555 1_555
H20 C30 1_555 1_555
C31 C30 1_555 1_555
H21 C31 1_555 1_555
C32 N2 1_555 1_555
C33 C28 1_555 1_555
H22 C33 1_555 1_555
H23 C33 1_555 1_555
H24 C33 1_555 1_555
C34 C32 1_555 1_555
H25 C34 1_555 1_555
H26 C34 1_555 1_555
H27 C34 1_555 1_555
N3 C35 1_555 1_555
O9 C35 1_555 1_555
C35 H28 1_555 1_555
C36 N3 1_555 1_555
H29 C36 1_555 1_555
H30 C36 1_555 1_555
C37 C36 1_555 1_555
H31 C37 1_555 1_555
H32 C37 1_555 1_555
H33 C37 1_555 1_555
C38 N3 1_555 1_555
H34 C38 1_555 1_555
H35 C38 1_555 1_555
C39 C38 1_555 1_555
H36 C39 1_555 1_555
H37 C39 1_555 1_555
H38 C39 1_555 1_555
O4_2 Co1 1_555 1_555
O5_2 Co1 1_555 1_555
Co1_2 O4 1_555 1_555
O5 Co1_2 1_555 1_555
C5 C10 1_555 1_555
C6 C11 1_555 1_555
C8 C9 1_555 1_555
C9 C10 1_555 1_555
C16 C21 1_555 1_555
C19 C20 1_555 1_555
C20 C21 1_555 1_555
C31 C32 1_555 1_555

#END
