
#######################################################################
#
#                 Cambridge Crystallographic Data Centre
#                                CCDC 
#
#######################################################################
#
# If this CIF has been generated from an entry in the Cambridge 
# Structural Database, then it will include bibliographic, chemical, 
# crystal, experimental, refinement or atomic coordinate data resulting 
# from the CCDC's data processing and validation procedures.
#
#######################################################################

data_GUWWOL
_symmetry_cell_setting           monoclinic
_symmetry_space_group_name_H-M   'I 2/a'
_symmetry_Int_Tables_number      15
_space_group_name_Hall           '-I 2ya'
loop_
_symmetry_equiv_pos_site_id
_symmetry_equiv_pos_as_xyz
1 x,y,z
2 1/2-x,y,-z
3 1/2+x,1/2+y,1/2+z
4 -x,1/2+y,1/2-z
5 -x,-y,-z
6 1/2+x,-y,z
7 1/2-x,1/2-y,1/2-z
8 x,1/2-y,1/2+z
_cell_length_a                   11.2022(6)
_cell_length_b                   7.21335(29)
_cell_length_c                   7.61562(35)
_cell_angle_alpha                90
_cell_angle_beta                 92.6674(25)
_cell_angle_gamma                90
_cell_volume                     614.716
loop_
_atom_site_label
_atom_site_type_symbol
_atom_site_fract_x
_atom_site_fract_y
_atom_site_fract_z
Mg1 Mg 0.00000 0.00000 0.00000
O1 O 0.02076(26) 0.2719(5) 0.1197(7)
O2 O 0.11366(33) 0.4716(7) 0.2981(5)
O3 O 0.1524(4) -0.1175(6) 0.1381(6)
C1 C 0.11015(18) 0.36586(34) 0.16793(26)
C2 C 0.2116(5) 0.3714(9) 0.0523(8)
Mg1C Mg 0.00000 0.50000 0.50000
Mg1A Mg 0.50000 0.00000 0.00000
Mg1B Mg 0.50000 0.50000 -0.50000
O1A O 0.47924(26) 0.2719(5) -0.1197(7)
O1D O -0.02076(26) -0.2719(5) -0.1197(7)
O2A O 0.38634(33) 0.4716(7) -0.2981(5)
O2C O -0.11366(33) -0.0284(7) 0.2019(5)
O2G O 0.11366(33) 0.0284(7) -0.2019(5)
O3D O -0.1524(4) 0.1175(6) -0.1381(6)
C1A C 0.38985(18) 0.36586(34) -0.16793(26)
C2A C 0.2884(5) 0.3714(9) -0.0523(8)
loop_
_geom_bond_atom_site_label_1
_geom_bond_atom_site_label_2
_geom_bond_site_symmetry_1
_geom_bond_site_symmetry_2
Mg1 O1 1_555 1_555
O1 C1 1_555 1_555
O2 C1 1_555 1_555
O3 Mg1 1_555 1_555
C1 C2 1_555 1_555
C2 C2A 1_555 1_555
Mg1C O2 1_555 1_555
Mg1A O1A 1_555 1_555
Mg1B O2A 1_555 1_555
O1A C1A 1_555 1_555
O1D Mg1 1_555 1_555
O2A C1A 1_555 1_555
O2C Mg1 1_555 1_555
O2G Mg1 1_555 1_555
O3D Mg1 1_555 1_555
C1A C2A 1_555 1_555

#END
