
#######################################################################
#
#                 Cambridge Crystallographic Data Centre
#                                CCDC 
#
#######################################################################
#
# If this CIF has been generated from an entry in the Cambridge 
# Structural Database, then it will include bibliographic, chemical, 
# crystal, experimental, refinement or atomic coordinate data resulting 
# from the CCDC's data processing and validation procedures.
#
#######################################################################

data_GUWWIF
_symmetry_cell_setting           tetragonal
_symmetry_space_group_name_H-M   'I 41/a m d'
_symmetry_Int_Tables_number      141
_space_group_name_Hall           '-I 4bd 2'
loop_
_symmetry_equiv_pos_site_id
_symmetry_equiv_pos_as_xyz
1 x,y,z
2 1/4-y,3/4+x,1/4+z
3 1/2-x,-y,1/2+z
4 1/4+y,1/4-x,3/4+z
5 x,-y,-z
6 3/4+y,1/4+x,3/4-z
7 1/2-x,y,1/2-z
8 3/4-y,3/4-x,1/4-z
9 1/2+x,1/2+y,1/2+z
10 3/4-y,1/4+x,3/4+z
11 -x,1/2-y,z
12 3/4+y,3/4-x,1/4+z
13 1/2+x,1/2-y,1/2-z
14 1/4+y,3/4+x,1/4-z
15 -x,1/2+y,-z
16 1/4-y,1/4-x,3/4-z
17 -x,-y,-z
18 3/4+y,1/4-x,3/4-z
19 1/2+x,y,1/2-z
20 3/4-y,3/4+x,1/4-z
21 -x,y,z
22 1/4-y,3/4-x,1/4+z
23 1/2+x,-y,1/2+z
24 1/4+y,1/4+x,3/4+z
25 1/2-x,1/2-y,1/2-z
26 1/4+y,3/4-x,1/4-z
27 x,1/2+y,-z
28 1/4-y,1/4+x,3/4-z
29 1/2-x,1/2+y,1/2+z
30 3/4-y,1/4-x,3/4+z
31 x,1/2-y,z
32 3/4+y,3/4+x,1/4+z
_cell_length_a                   6.87781(26)
_cell_length_b                   6.87781(26)
_cell_length_c                   10.2011(4)
_cell_angle_alpha                90
_cell_angle_beta                 90
_cell_angle_gamma                90
_cell_volume                     482.556
loop_
_atom_site_label
_atom_site_type_symbol
_atom_site_fract_x
_atom_site_fract_y
_atom_site_fract_z
Ca1 Ca 0.000 0.25000 0.375
O1 O 0.000 0.41346(12) 0.61870(15)
C1 C 0.000 0.25000 0.816198(14)
C2 C 0.000 0.25000 0.672109(30)
Ca1A Ca 0.00000 0.750 0.625
Ca1A_2 Ca 0.00000 -0.250 0.625
Ca1_2 Ca 0.000 0.25000 1.375
Ca1C Ca 0.50000 0.250 1.125
Ca1C_2 Ca -0.50000 0.250 1.125
O1J O 0.000 0.08654(12) 0.61870(15)
O1E O 0.16346(12) 0.250 1.13130(15)
O1O O -0.16346(12) 0.250 1.13130(15)
O1C O -0.33654(12) 0.250 0.36870(15)
O1D O 0.000 0.58654(12) 0.38130(15)
O1E_2 O 0.16346(12) 0.250 0.13130(15)
O1I O 0.33654(12) 0.250 0.36870(15)
O1N O 0.000 -0.08654(12) 0.38130(15)
O1O_2 O -0.16346(12) 0.250 0.13130(15)
C1E C 0.00000 0.250 0.933802(14)
C2E C 0.00000 0.250 1.077891(30)
loop_
_geom_bond_atom_site_label_1
_geom_bond_atom_site_label_2
_geom_bond_site_symmetry_1
_geom_bond_site_symmetry_2
Ca1 O1 1_555 1_555
O1 C2 1_555 1_555
C1 C2 1_555 1_555
C2 O1J 1_555 1_555
Ca1A O1 1_555 1_555
Ca1A_2 O1J 1_555 1_555
Ca1_2 O1E 1_555 1_555
Ca1C O1E 1_555 1_555
Ca1C_2 O1O 1_555 1_555
O1J Ca1 1_555 1_555
O1E C2E 1_555 1_555
O1O Ca1_2 1_555 1_555
O1C Ca1 1_555 1_555
O1D Ca1 1_555 1_555
O1E_2 Ca1 1_555 1_555
O1I Ca1 1_555 1_555
O1N Ca1 1_555 1_555
O1O_2 Ca1 1_555 1_555
C1E C1 1_555 1_555
C2E O1O 1_555 1_555
Ca1A O1D 1_555 1_555
Ca1A_2 O1N 1_555 1_555
C1E C2E 1_555 1_555

#END
