
#######################################################################
#
#                 Cambridge Crystallographic Data Centre
#                                CCDC 
#
#######################################################################
#
# If this CIF has been generated from an entry in the Cambridge 
# Structural Database, then it will include bibliographic, chemical, 
# crystal, experimental, refinement or atomic coordinate data resulting 
# from the CCDC's data processing and validation procedures.
#
#######################################################################

data_GUWXIF
_symmetry_cell_setting           monoclinic
_symmetry_space_group_name_H-M   'P 21/c'
_symmetry_Int_Tables_number      14
_space_group_name_Hall           '-P 2ybc'
loop_
_symmetry_equiv_pos_site_id
_symmetry_equiv_pos_as_xyz
1 x,y,z
2 x,1/2-y,1/2+z
3 -x,-y,-z
4 -x,1/2+y,1/2-z
_cell_length_a                   9.424(5)
_cell_length_b                   40.582(5)
_cell_length_c                   15.819(5)
_cell_angle_alpha                90
_cell_angle_beta                 96.183(5)
_cell_angle_gamma                90
_cell_volume                     6014.7
loop_
_atom_site_label
_atom_site_type_symbol
_atom_site_fract_x
_atom_site_fract_y
_atom_site_fract_z
Ni1 Ni 1.0000 0.0000 0.0000
N1 N 0.9851(10) -0.04840(18) 0.0330(6)
H1 H 1.0542 -0.0593 0.0083
N2 N 0.8294(7) -0.0095(3) -0.0898(5)
H2 H 0.7490 -0.0019 -0.0692
C1 C 0.8186(12) -0.0453(4) -0.0964(8)
H3 H 0.8874 -0.0535 -0.1327
H4 H 0.7239 -0.0514 -0.1216
C2 C 0.8478(15) -0.0608(3) -0.0071(10)
H5 H 0.7722 -0.0549 0.0271
H6 H 0.8508 -0.0846 -0.0117
C3 C 1.0081(15) -0.0557(3) 0.1237(9)
H7 H 1.0048 -0.0794 0.1318
H8 H 0.9316 -0.0460 0.1517
C4 C 1.1453(17) -0.0431(5) 0.1631(8)
H9 H 1.2192 -0.0510 0.1301
H10 H 1.1632 -0.0528 0.2193
C5 C 0.8377(12) 0.0057(4) -0.1727(7)
H11 H 0.9184 -0.0033 -0.1982
H12 H 0.7517 0.0007 -0.2099
Ni2 Ni -0.55180(10) -0.22953(2) 0.71999(6)
N3 N -0.3823(6) -0.24629(18) 0.8011(4)
H13 H -0.3033 -0.2356 0.7871
N4 N -0.5981(8) -0.19923(17) 0.8173(4)
H14 H -0.6660 -0.2097 0.8440
N5 N -0.7237(6) -0.21315(19) 0.6383(4)
H15 H -0.8027 -0.2235 0.6539
N6 N -0.5130(7) -0.26010(17) 0.6205(4)
H16 H -0.4464 -0.2496 0.5926
C6 C -0.4539(10) -0.2927(2) 0.6431(6)
H17 H -0.5284 -0.3061 0.6637
H18 H -0.4268 -0.3031 0.5920
C7 C -0.3245(9) -0.2928(2) 0.7104(7)
H19 H -0.2517 -0.2787 0.6906
H20 H -0.2863 -0.3150 0.7148
C8 C -0.3516(9) -0.2815(3) 0.7983(6)
H21 H -0.2683 -0.2863 0.8379
H22 H -0.4316 -0.2937 0.8163
C9 C -0.4125(9) -0.2334(3) 0.8860(5)
H23 H -0.4815 -0.2475 0.9094
H24 H -0.3255 -0.2335 0.9248
C10 C -0.4708(11) -0.1986(2) 0.8765(5)
H25 H -0.4003 -0.1841 0.8556
H26 H -0.4928 -0.1903 0.9312
C11 C -0.6535(10) -0.1661(2) 0.7958(6)
H27 H -0.6826 -0.1559 0.8467
H28 H -0.5772 -0.1528 0.7771
C12 C -0.7810(10) -0.1657(2) 0.7261(7)
H29 H -0.8161 -0.1433 0.7199
H30 H -0.8568 -0.1790 0.7453
C13 C -0.7512(9) -0.1779(2) 0.6407(6)
H31 H -0.6691 -0.1663 0.6236
H32 H -0.8323 -0.1728 0.5997
C14 C -0.7005(9) -0.2258(3) 0.5529(5)
H33 H -0.7900 -0.2262 0.5164
H34 H -0.6341 -0.2117 0.5271
C15 C -0.6407(10) -0.2602(2) 0.5638(5)
H35 H -0.6210 -0.2688 0.5090
H36 H -0.7104 -0.2745 0.5859
C16 C 0.2587(7) 0.0177(2) 0.5035(4)
C17 C 0.2107(7) -0.0117(2) 0.5302(5)
H37 H 0.2414 -0.0311 0.5068
C18 C 0.1167(7) -0.0131(2) 0.5916(5)
C19 C 0.0753(7) 0.0158(2) 0.6271(4)
H38 H 0.0137 0.0150 0.6692
C20 C 0.1234(8) 0.0461(2) 0.6016(5)
C21 C 0.2216(7) 0.0469(2) 0.5405(4)
H39 H 0.2609 0.0668 0.5253
C22 C 0.3529(8) 0.01962(18) 0.4358(5)
C23 C 0.4240(8) 0.02224(19) 0.3784(5)
C24 C 0.5129(7) 0.0257(2) 0.3105(5)
C25 C 0.5519(8) 0.0566(2) 0.2828(5)
H40 H 0.5188 0.0754 0.3076
C26 C 0.6399(8) 0.0594(2) 0.2183(5)
H41 H 0.6657 0.0802 0.2005
C27 C 0.6896(7) 0.0317(2) 0.1804(5)
C28 C 0.6518(8) 0.0007(2) 0.2074(5)
H42 H 0.6854 -0.0181 0.1824
C29 C 0.5648(8) -0.0022(2) 0.2709(5)
H43 H 0.5393 -0.0230 0.2882
O1 O 0.8083(7) 0.06399(19) 0.0832(5)
O2 O 0.8480(6) 0.00976(16) 0.0877(3)
C30 C 0.0577(8) -0.0447(2) 0.6160(5)
C31 C 0.7882(9) 0.0364(3) 0.1096(5)
C32 C -0.0004(9) -0.0696(2) 0.6280(5)
C33 C -0.0786(8) -0.1000(2) 0.6347(5)
C34 C -0.0597(8) -0.1247(2) 0.5788(5)
H44 H 0.0081 -0.1222 0.5407
C35 C -0.1383(9) -0.1534(2) 0.5772(5)
H45 H -0.1253 -0.1697 0.5374
C36 C -0.2371(8) -0.1578(2) 0.6352(5)
C37 C -0.2522(8) -0.1328(2) 0.6926(5)
H46 H -0.3172 -0.1353 0.7324
C38 C -0.1747(9) -0.1045(2) 0.6926(5)
H47 H -0.1871 -0.0881 0.7323
C39 C -0.3294(9) -0.1893(2) 0.6337(6)
O3 O -0.3065(5) -0.21065(15) 0.5797(4)
O4 O -0.4229(6) -0.19054(13) 0.6840(3)
C40 C 0.0749(8) 0.0759(2) 0.6341(5)
C41 C 0.0259(8) 0.1016(2) 0.6515(5)
C42 C -0.0338(9) 0.1337(2) 0.6665(5)
C43 C 0.0245(8) 0.1620(3) 0.6363(5)
H48 H 0.1076 0.1604 0.6099
C44 C -0.0360(9) 0.1925(2) 0.6441(5)
H49 H 0.0051 0.2109 0.6217
C45 C -0.1573(9) 0.1959(2) 0.6848(4)
C46 C -0.2217(8) 0.1680(3) 0.7132(5)
H50 H -0.3060 0.1699 0.7385
C47 C -0.1621(9) 0.1377(2) 0.7043(5)
H51 H -0.2071 0.1191 0.7237
C48 C -0.2223(9) 0.2306(2) 0.6932(5)
O5 O -0.1752(5) 0.25418(15) 0.6564(4)
O6 O -0.6732(6) -0.26889(12) 0.7616(3)
N1B N 1.0149(10) 0.04840(18) -0.0330(6)
N2B N 1.1706(7) 0.0095(3) 0.0898(5)
O2B O 1.1520(6) -0.00976(16) -0.0877(3)
C5B C 1.1623(12) -0.0057(4) 0.1727(7)
C4B C 0.8547(17) 0.0431(5) -0.1631(8)
O6C O -0.3268(6) 0.23111(12) 0.7384(3)
C48C C -0.7777(9) -0.2694(2) 0.8068(5)
Ni2C Ni -0.44820(10) 0.27047(2) 0.78001(6)
C45C C -0.8427(9) -0.3041(2) 0.8152(4)
O5C O -0.8248(5) -0.24582(15) 0.8436(4)
C44C C -0.9640(9) -0.3075(2) 0.8559(5)
C46C C -0.7783(8) -0.3320(3) 0.7868(5)
C43C C -1.0245(8) -0.3380(3) 0.8637(5)
H49C H -1.0051 -0.2891 0.8783
H50C H -0.6940 -0.3301 0.7615
C47C C -0.8379(9) -0.3623(2) 0.7957(5)
C42C C -0.9662(9) -0.3663(2) 0.8335(5)
H48C H -1.1076 -0.3396 0.8901
H51C H -0.7929 -0.3809 0.7763
C41C C -1.0259(8) -0.3984(2) 0.8485(5)
C40C C -1.0749(8) -0.4241(2) 0.8659(5)
C20C C -1.1234(8) -0.4539(2) 0.8984(5)
C19C C -1.0753(7) -0.4842(2) 0.8729(4)
C21C C -1.2216(7) -0.4531(2) 0.9595(4)
C16C C -1.2587(7) -0.4823(2) 0.9965(4)
H39C H -1.2609 -0.4332 0.9747
C18C C -1.1167(7) -0.5131(2) 0.9084(5)
H38C H -1.0137 -0.4850 0.8308
C17C C -1.2107(7) -0.5117(2) 0.9698(5)
C22C C -1.3529(8) -0.48038(18) 1.0642(5)
C30C C -1.0577(8) -0.5447(2) 0.8840(5)
C23C C -1.4240(8) -0.47776(19) 1.1216(5)
C32C C -0.9996(9) -0.5696(2) 0.8720(5)
C24C C -1.5129(7) -0.4743(2) 1.1895(5)
C33C C -0.9214(8) -0.6000(2) 0.8653(5)
C25C C -1.5519(8) -0.4434(2) 1.2172(5)
C29C C -1.5648(8) -0.5022(2) 1.2291(5)
C34C C -0.9403(8) -0.6247(2) 0.9212(5)
C38C C -0.8253(9) -0.6045(2) 0.8074(5)
H40C H -1.5188 -0.4246 1.1924
C26C C -1.6399(8) -0.4406(2) 1.2817(5)
C28C C -1.6518(8) -0.4993(2) 1.2926(5)
H43C H -1.5393 -0.5230 1.2118
H44C H -1.0081 -0.6222 0.9593
C35C C -0.8617(9) -0.6534(2) 0.9228(5)
C37C C -0.7478(8) -0.6328(2) 0.8074(5)
H47C H -0.8129 -0.5881 0.7677
H41C H -1.6657 -0.4198 1.2995
C27C C -1.6896(7) -0.4683(2) 1.3196(5)
H42C H -1.6854 -0.5181 1.3176
H45C H -0.8747 -0.6697 0.9626
C36C C -0.7629(8) -0.6578(2) 0.8648(5)
H46C H -0.6828 -0.6353 0.7676
C31C C -1.7882(9) -0.4636(3) 1.3904(5)
C39C C -0.6706(9) -0.6893(2) 0.8663(6)
O1C O -1.8083(7) -0.43601(19) 1.4168(5)
O2C O -1.8480(6) -0.49024(16) 1.4123(3)
O3C O -0.6935(5) -0.71065(15) 0.9203(4)
O4C O -0.5771(6) -0.69054(13) 0.8160(3)
Ni1A Ni -2.0000 -0.5000 1.5000
Ni2C_2 Ni -0.44820(10) -0.72953(2) 0.78001(6)
H1B H 0.9458 0.0593 -0.0083
C2B C 1.1522(15) 0.0608(3) 0.0071(10)
C3B C 0.9919(15) 0.0557(3) -0.1237(9)
H9B H 0.7808 0.0510 -0.1301
H10B H 0.8368 0.0528 -0.2193
C1B C 1.1814(12) 0.0453(4) 0.0964(8)
H5B H 1.2278 0.0549 -0.0271
H6B H 1.1492 0.0846 0.0117
N3C N -0.6177(6) 0.25371(18) 0.6989(4)
N4C N -0.4019(8) 0.30077(17) 0.6827(4)
N5C N -0.2763(6) 0.28685(19) 0.8617(4)
N6C N -0.4870(7) 0.23990(17) 0.8795(4)
O4C_2 O -0.5771(6) 0.30946(13) 0.8160(3)
H15C H -0.1973 0.2765 0.8461
C13C C -0.2488(9) 0.3221(2) 0.8593(6)
C14C C -0.2995(9) 0.2742(3) 0.9471(5)
H14C H -0.3340 0.2903 0.6560
C10C C -0.5292(11) 0.3014(2) 0.6235(5)
C11C C -0.3465(10) 0.3339(2) 0.7042(6)
H13C H -0.6967 0.2644 0.7129
C8C C -0.6484(9) 0.2185(3) 0.7017(6)
C9C C -0.5875(9) 0.2666(3) 0.6140(5)
H16C H -0.5536 0.2504 0.9074
C6C C -0.5461(10) 0.2073(2) 0.8569(6)
C15C C -0.3593(10) 0.2398(2) 0.9362(5)
H27C H -0.3174 0.3441 0.6533
H28C H -0.4228 0.3472 0.7229
C12C C -0.2190(10) 0.3343(2) 0.7739(7)
H31C H -0.3309 0.3337 0.8764
H32C H -0.1677 0.3272 0.9003
H25C H -0.5997 0.3159 0.6444
H26C H -0.5072 0.3097 0.5688
H23C H -0.5185 0.2525 0.5906
H24C H -0.6745 0.2665 0.5752
C7C C -0.6755(9) 0.2072(2) 0.7896(7)
H21C H -0.7317 0.2137 0.6621
H22C H -0.5684 0.2063 0.6837
H17C H -0.4716 0.1939 0.8363
H18C H -0.5732 0.1969 0.9080
H35C H -0.3790 0.2312 0.9910
H36C H -0.2896 0.2255 0.9141
H33C H -0.2100 0.2738 0.9836
H34C H -0.3659 0.2883 0.9729
H3B H 1.1126 0.0535 0.1327
H4B H 1.2761 0.0514 0.1216
H2B H 1.2510 0.0019 0.0692
H11B H 1.0816 0.0033 0.1982
H12B H 1.2483 -0.0007 0.2099
H7B H 0.9952 0.0794 -0.1318
H8B H 1.0684 0.0460 -0.1517
H37C H -1.2414 -0.5311 0.9932
H29C H -0.1839 0.3567 0.7801
H30C H -0.1432 0.3210 0.7547
H19C H -0.7483 0.2213 0.8094
H20C H -0.7137 0.1850 0.7852
O7 O 0.0827(6) 0.22489(15) 0.2347(4)
O8 O 0.0417(6) 0.23976(15) 0.4125(4)
N7 N 0.513(2) 0.0907(5) 0.6537(9)
C49 C 0.4467(16) 0.1210(6) 0.6376(14)
H52 H 0.3956 0.1310 0.6777
C50 C 0.4582(18) 0.1349(4) 0.5648(17)
H53 H 0.4067 0.1542 0.5530
C51 C 0.536(2) 0.1241(6) 0.5059(12)
H54 H 0.5465 0.1357 0.4562
C52 C 0.5984(18) 0.0957(6) 0.5235(14)
H55 H 0.6520 0.0864 0.4836
C53 C 0.5885(16) 0.0790(4) 0.5975(15)
H56 H 0.6363 0.0591 0.6074
N8 N 0.0267(12) 0.1945(3) 0.9814(9)
C54 C 0.0520(14) 0.1850(6) 1.0605(10)
H57 H 0.1093 0.1981 1.0983
C55 C -0.001(2) 0.1573(5) 1.0888(13)
H58 H 0.0205 0.1517 1.1458
C56 C -0.086(2) 0.1368(5) 1.0368(15)
H59 H -0.1244 0.1173 1.0550
C57 C -0.1066(18) 0.1477(4) 0.9579(12)
H60 H -0.1649 0.1354 0.9185
C58 C -0.0486(7) 0.17540(15) 0.9316(4)
H61 H -0.0642 0.1809 0.8743
N9 N 0.4606(7) 0.10961(15) 0.9953(4)
C59 C 0.5415(7) 0.08808(15) 0.9659(4)
H62 H 0.6214 0.0774 0.9927
C60 C 0.4816(7) 0.08526(15) 0.8889(4)
H63 H 0.5241 0.0695 0.8571
C61 C 0.3722(7) 0.10027(15) 0.8464(4)
H64 H 0.3419 0.0955 0.7898
C62 C 0.3085(7) 0.12260(15) 0.8905(4)
H65 H 0.2289 0.1339 0.8657
C63 C 0.3607(7) 0.12857(15) 0.9713(4)
H66 H 0.3263 0.1449 1.0051
loop_
_geom_bond_atom_site_label_1
_geom_bond_atom_site_label_2
_geom_bond_site_symmetry_1
_geom_bond_site_symmetry_2
Ni1 N1 1_555 1_555
N1 H1 1_555 1_555
N2 Ni1 1_555 1_555
H2 N2 1_555 1_555
C1 N2 1_555 1_555
H3 C1 1_555 1_555
H4 C1 1_555 1_555
C2 N1 1_555 1_555
H5 C2 1_555 1_555
H6 C2 1_555 1_555
C3 N1 1_555 1_555
H7 C3 1_555 1_555
H8 C3 1_555 1_555
C4 C3 1_555 1_555
H9 C4 1_555 1_555
H10 C4 1_555 1_555
C5 N2 1_555 1_555
H11 C5 1_555 1_555
H12 C5 1_555 1_555
Ni2 N3 1_555 1_555
N3 H13 1_555 1_555
N4 Ni2 1_555 1_555
H14 N4 1_555 1_555
N5 Ni2 1_555 1_555
H15 N5 1_555 1_555
N6 Ni2 1_555 1_555
H16 N6 1_555 1_555
C6 N6 1_555 1_555
H17 C6 1_555 1_555
H18 C6 1_555 1_555
C7 C6 1_555 1_555
H19 C7 1_555 1_555
H20 C7 1_555 1_555
C8 N3 1_555 1_555
H21 C8 1_555 1_555
H22 C8 1_555 1_555
C9 N3 1_555 1_555
H23 C9 1_555 1_555
H24 C9 1_555 1_555
C10 N4 1_555 1_555
H25 C10 1_555 1_555
H26 C10 1_555 1_555
C11 N4 1_555 1_555
H27 C11 1_555 1_555
H28 C11 1_555 1_555
C12 C11 1_555 1_555
H29 C12 1_555 1_555
H30 C12 1_555 1_555
C13 N5 1_555 1_555
H31 C13 1_555 1_555
H32 C13 1_555 1_555
C14 N5 1_555 1_555
H33 C14 1_555 1_555
H34 C14 1_555 1_555
C15 N6 1_555 1_555
H35 C15 1_555 1_555
H36 C15 1_555 1_555
C16 C17 1_555 1_555
C17 H37 1_555 1_555
C18 C17 1_555 1_555
C19 C18 1_555 1_555
H38 C19 1_555 1_555
C20 C19 1_555 1_555
C21 C16 1_555 1_555
H39 C21 1_555 1_555
C22 C16 1_555 1_555
C23 C22 1_555 1_555
C24 C23 1_555 1_555
C25 C24 1_555 1_555
H40 C25 1_555 1_555
C26 C25 1_555 1_555
H41 C26 1_555 1_555
C27 C26 1_555 1_555
C28 C27 1_555 1_555
H42 C28 1_555 1_555
C29 C24 1_555 1_555
H43 C29 1_555 1_555
O1 C31 1_555 1_555
O2 Ni1 1_555 1_555
C30 C18 1_555 1_555
C31 C27 1_555 1_555
C32 C30 1_555 1_555
C33 C32 1_555 1_555
C34 C33 1_555 1_555
H44 C34 1_555 1_555
C35 C34 1_555 1_555
H45 C35 1_555 1_555
C36 C35 1_555 1_555
C37 C36 1_555 1_555
H46 C37 1_555 1_555
C38 C33 1_555 1_555
H47 C38 1_555 1_555
C39 C36 1_555 1_555
O3 C39 1_555 1_555
O4 Ni2 1_555 1_555
C40 C20 1_555 1_555
C41 C40 1_555 1_555
C42 C41 1_555 1_555
C43 C42 1_555 1_555
H48 C43 1_555 1_555
C44 C43 1_555 1_555
H49 C44 1_555 1_555
C45 C44 1_555 1_555
C46 C45 1_555 1_555
H50 C46 1_555 1_555
C47 C42 1_555 1_555
H51 C47 1_555 1_555
C48 C45 1_555 1_555
O5 C48 1_555 1_555
O6 Ni2 1_555 1_555
N7 C49 1_555 1_555
C49 H52 1_555 1_555
C50 C49 1_555 1_555
H53 C50 1_555 1_555
C51 C50 1_555 1_555
H54 C51 1_555 1_555
C52 C51 1_555 1_555
H55 C52 1_555 1_555
C53 N7 1_555 1_555
H56 C53 1_555 1_555
N8 C54 1_555 1_555
C54 H57 1_555 1_555
C55 C54 1_555 1_555
H58 C55 1_555 1_555
C56 C55 1_555 1_555
H59 C56 1_555 1_555
C57 C56 1_555 1_555
H60 C57 1_555 1_555
C58 N8 1_555 1_555
H61 C58 1_555 1_555
N9 C59 1_555 1_555
C59 H62 1_555 1_555
C60 C59 1_555 1_555
H63 C60 1_555 1_555
C61 C60 1_555 1_555
H64 C61 1_555 1_555
C62 C61 1_555 1_555
H65 C62 1_555 1_555
C63 N9 1_555 1_555
H66 C63 1_555 1_555
N1B Ni1 1_555 1_555
N2B Ni1 1_555 1_555
O2B Ni1 1_555 1_555
C5B C4 1_555 1_555
C4B C5 1_555 1_555
O6C C48 1_555 1_555
C48C O6 1_555 1_555
Ni2C O6C 1_555 1_555
C45C C48C 1_555 1_555
O5C C48C 1_555 1_555
C44C C45C 1_555 1_555
C46C C45C 1_555 1_555
C43C C44C 1_555 1_555
H49C C44C 1_555 1_555
H50C C46C 1_555 1_555
C47C C46C 1_555 1_555
C42C C43C 1_555 1_555
H48C C43C 1_555 1_555
H51C C47C 1_555 1_555
C41C C42C 1_555 1_555
C40C C41C 1_555 1_555
C20C C40C 1_555 1_555
C19C C20C 1_555 1_555
C21C C20C 1_555 1_555
C16C C21C 1_555 1_555
H39C C21C 1_555 1_555
C18C C19C 1_555 1_555
H38C C19C 1_555 1_555
C17C C16C 1_555 1_555
C22C C16C 1_555 1_555
C30C C18C 1_555 1_555
C23C C22C 1_555 1_555
C32C C30C 1_555 1_555
C24C C23C 1_555 1_555
C33C C32C 1_555 1_555
C25C C24C 1_555 1_555
C29C C24C 1_555 1_555
C34C C33C 1_555 1_555
C38C C33C 1_555 1_555
H40C C25C 1_555 1_555
C26C C25C 1_555 1_555
C28C C29C 1_555 1_555
H43C C29C 1_555 1_555
H44C C34C 1_555 1_555
C35C C34C 1_555 1_555
C37C C38C 1_555 1_555
H47C C38C 1_555 1_555
H41C C26C 1_555 1_555
C27C C26C 1_555 1_555
H42C C28C 1_555 1_555
H45C C35C 1_555 1_555
C36C C35C 1_555 1_555
H46C C37C 1_555 1_555
C31C C27C 1_555 1_555
C39C C36C 1_555 1_555
O1C C31C 1_555 1_555
O2C C31C 1_555 1_555
O3C C39C 1_555 1_555
O4C C39C 1_555 1_555
Ni1A O2C 1_555 1_555
Ni2C_2 O4C 1_555 1_555
H1B N1B 1_555 1_555
C2B N1B 1_555 1_555
C3B N1B 1_555 1_555
H9B C4B 1_555 1_555
H10B C4B 1_555 1_555
C1B N2B 1_555 1_555
H5B C2B 1_555 1_555
H6B C2B 1_555 1_555
N3C Ni2C 1_555 1_555
N4C Ni2C 1_555 1_555
N5C Ni2C 1_555 1_555
N6C Ni2C 1_555 1_555
O4C_2 Ni2C 1_555 1_555
H15C N5C 1_555 1_555
C13C N5C 1_555 1_555
C14C N5C 1_555 1_555
H14C N4C 1_555 1_555
C10C N4C 1_555 1_555
C11C N4C 1_555 1_555
H13C N3C 1_555 1_555
C8C N3C 1_555 1_555
C9C N3C 1_555 1_555
H16C N6C 1_555 1_555
C6C N6C 1_555 1_555
C15C N6C 1_555 1_555
H27C C11C 1_555 1_555
H28C C11C 1_555 1_555
C12C C13C 1_555 1_555
H31C C13C 1_555 1_555
H32C C13C 1_555 1_555
H25C C10C 1_555 1_555
H26C C10C 1_555 1_555
H23C C9C 1_555 1_555
H24C C9C 1_555 1_555
C7C C8C 1_555 1_555
H21C C8C 1_555 1_555
H22C C8C 1_555 1_555
H17C C6C 1_555 1_555
H18C C6C 1_555 1_555
H35C C15C 1_555 1_555
H36C C15C 1_555 1_555
H33C C14C 1_555 1_555
H34C C14C 1_555 1_555
H3B C1B 1_555 1_555
H4B C1B 1_555 1_555
H2B N2B 1_555 1_555
H11B C5B 1_555 1_555
H12B C5B 1_555 1_555
H7B C3B 1_555 1_555
H8B C3B 1_555 1_555
H37C C17C 1_555 1_555
H29C C12C 1_555 1_555
H30C C12C 1_555 1_555
H19C C7C 1_555 1_555
H20C C7C 1_555 1_555
C1 C2 1_555 1_555
C7 C8 1_555 1_555
C9 C10 1_555 1_555
C12 C13 1_555 1_555
C14 C15 1_555 1_555
C20 C21 1_555 1_555
C28 C29 1_555 1_555
O2 C31 1_555 1_555
C37 C38 1_555 1_555
C39 O4 1_555 1_555
C46 C47 1_555 1_555
C52 C53 1_555 1_555
C57 C58 1_555 1_555
C62 C63 1_555 1_555
N2B C5B 1_555 1_555
C4B C3B 1_555 1_555
C47C C42C 1_555 1_555
C18C C17C 1_555 1_555
C28C C27C 1_555 1_555
C37C C36C 1_555 1_555
C2B C1B 1_555 1_555
C14C C15C 1_555 1_555
C10C C9C 1_555 1_555
C11C C12C 1_555 1_555
C6C C7C 1_555 1_555

#END
