
#######################################################################
#
#                 Cambridge Crystallographic Data Centre
#                                CCDC 
#
#######################################################################
#
# If this CIF has been generated from an entry in the Cambridge 
# Structural Database, then it will include bibliographic, chemical, 
# crystal, experimental, refinement or atomic coordinate data resulting 
# from the CCDC's data processing and validation procedures.
#
#######################################################################

data_GUWXEB
_symmetry_cell_setting           monoclinic
_symmetry_space_group_name_H-M   'C 2'
_symmetry_Int_Tables_number      5
_space_group_name_Hall           'C 2y'
loop_
_symmetry_equiv_pos_site_id
_symmetry_equiv_pos_as_xyz
1 x,y,z
2 -x,y,-z
3 1/2+x,1/2+y,z
4 1/2-x,1/2+y,-z
_cell_length_a                   28.707(11)
_cell_length_b                   14.507(6)
_cell_length_c                   10.000(5)
_cell_angle_alpha                90
_cell_angle_beta                 110.39
_cell_angle_gamma                90
_cell_volume                     3903.59
loop_
_atom_site_label
_atom_site_type_symbol
_atom_site_fract_x
_atom_site_fract_y
_atom_site_fract_z
Cd1 Cd -0.43318(5) -0.8429(2) -0.43318(17)
Cl1 Cl -0.50008(18) -0.8424(10) -0.3213(5)
O1 O -0.4023(9) -0.7001(12) -0.347(3)
O2 O -0.3682(6) -0.7633(11) -0.491(2)
O3 O -0.1837(6) -0.2967(11) -0.3469(19)
O4 O -0.4035(9) 0.0119(13) -0.457(2)
O5 O -0.3689(6) 0.0773(11) -0.2471(17)
O6 O -0.1837(7) -0.3938(12) -0.0215(19)
C1 C -0.2476(8) -0.3775(14) -0.301(3)
C2 C -0.2148(10) -0.3694(17) -0.375(3)
C3 C -0.2114(10) -0.4345(18) -0.473(3)
H1 H -0.1884 -0.4275 -0.5183
C4 C -0.2435(10) -0.5122(18) -0.501(3)
H2 H -0.2420 -0.5558 -0.5679
C5 C -0.3072(10) -0.6038(17) -0.457(3)
H3 H -0.3038 -0.6497 -0.5180
C6 C -0.3413(9) -0.6134(18) -0.392(3)
C7 C -0.3453(10) -0.5462(16) -0.295(3)
H4 H -0.3682 -0.5541 -0.2491
C8 C -0.3153(10) -0.4685(18) -0.267(3)
H5 H -0.3200 -0.4233 -0.2069
C9 C -0.2776(9) -0.4559(16) -0.327(3)
C10 C -0.2765(8) -0.5234(15) -0.432(3)
C11 C -0.3711(10) -0.6957(17) -0.420(4)
C12 C -0.2476(8) -0.3100(13) -0.189(2)
C13 C -0.2160(10) -0.3176(13) -0.056(3)
C14 C -0.2119(10) -0.2550(17) 0.053(3)
H6 H -0.1904 -0.2654 0.1457
C15 C -0.2416(9) -0.1754(17) 0.018(3)
H7 H -0.2382 -0.1293 0.0852
C16 C -0.3088(10) -0.0835(15) -0.160(3)
H8 H -0.3066 -0.0387 -0.0909
C17 C -0.3412(9) -0.0721(17) -0.292(3)
C18 C -0.3449(9) -0.1401(17) -0.392(3)
H9 H -0.3696 -0.1343 -0.4808
C19 C -0.3130(10) -0.2196(18) -0.367(3)
H10 H -0.3141 -0.2606 -0.4394
C20 C -0.2792(9) -0.2318(16) -0.222(3)
C21 C -0.2763(9) -0.1666(17) -0.120(3)
C22 C -0.3708(12) 0.010(2) -0.335(4)
Cl1A Cl -0.49992(18) -0.8424(10) -0.6787(5)
O1_2 O -0.4023(9) -1.7001(12) -0.347(3)
O2_2 O -0.3682(6) -1.7633(11) -0.491(2)
O3_2 O -0.1837(6) -1.2967(11) -0.3469(19)
O4_2 O -0.4035(9) -0.9881(13) -0.457(2)
O5_2 O -0.3689(6) -0.9227(11) -0.2471(17)
O6_2 O -0.1837(7) -1.3938(12) -0.0215(19)
C1_2 C -0.2476(8) -1.3775(14) -0.301(3)
C2_2 C -0.2148(10) -1.3694(17) -0.375(3)
C3_2 C -0.2114(10) -1.4345(18) -0.473(3)
H1_2 H -0.1884 -1.4275 -0.5183
C4_2 C -0.2435(10) -1.5122(18) -0.501(3)
H2_2 H -0.2420 -1.5558 -0.5679
C5_2 C -0.3072(10) -1.6038(17) -0.457(3)
H3_2 H -0.3038 -1.6497 -0.5180
C6_2 C -0.3413(9) -1.6134(18) -0.392(3)
C7_2 C -0.3453(10) -1.5462(16) -0.295(3)
H4_2 H -0.3682 -1.5541 -0.2491
C8_2 C -0.3153(10) -1.4685(18) -0.267(3)
H5_2 H -0.3200 -1.4233 -0.2069
C9_2 C -0.2776(9) -1.4559(16) -0.327(3)
C10_2 C -0.2765(8) -1.5234(15) -0.432(3)
C11_2 C -0.3711(10) -1.6957(17) -0.420(4)
C12_2 C -0.2476(8) -1.3100(13) -0.189(2)
C13_2 C -0.2160(10) -1.3176(13) -0.056(3)
C14_2 C -0.2119(10) -1.2550(17) 0.053(3)
H6_2 H -0.1904 -1.2654 0.1457
C15_2 C -0.2416(9) -1.1754(17) 0.018(3)
H7_2 H -0.2382 -1.1293 0.0852
C16_2 C -0.3088(10) -1.0835(15) -0.160(3)
H8_2 H -0.3066 -1.0387 -0.0909
C17_2 C -0.3412(9) -1.0721(17) -0.292(3)
C18_2 C -0.3449(9) -1.1401(17) -0.392(3)
H9_2 H -0.3696 -1.1343 -0.4808
C19_2 C -0.3130(10) -1.2196(18) -0.367(3)
H10_2 H -0.3141 -1.2606 -0.4394
C20_2 C -0.2792(9) -1.2318(16) -0.222(3)
C21_2 C -0.2763(9) -1.1666(17) -0.120(3)
C22_2 C -0.3708(12) -0.990(2) -0.335(4)
Cd1A Cd -0.56682(5) -0.8429(2) -0.56682(17)
Cd1_2 Cd -0.43318(5) 0.1571(2) -0.43318(17)
Cd1_3 Cd -0.43318(5) -1.8429(2) -0.43318(17)
O1A O -0.5977(9) -0.7001(12) -0.653(3)
O2A O -0.6318(6) -0.7633(11) -0.509(2)
O4A O -0.5965(9) -0.9881(13) -0.543(2)
O5A O -0.6311(6) -0.9227(11) -0.7529(17)
O7 O -0.4217(19) 0.030(5) 0.085(5)
O8 O -0.547(3) -0.405(8) -0.631(10)
O9 O -0.5000 -0.114(4) -0.5000
O10 O 0.047(3) 0.120(9) 0.407(10)
O11 O -0.499(3) -0.474(6) -0.296(8)
N1 N -0.4095(17) 0.348(3) 0.070(5)
C23 C -0.4308(18) 0.360(4) 0.180(5)
H11 H -0.4625 0.3294 0.1513
H12 H -0.4350 0.4242 0.1933
H13 H -0.4091 0.3332 0.2671
C24 C -0.438(2) 0.394(6) -0.058(5)
H14 H -0.4695 0.3633 -0.0999
H15 H -0.4205 0.3938 -0.1235
H16 H -0.4440 0.4568 -0.0362
C25 C -0.3609(16) 0.394(5) 0.123(7)
H17 H -0.3464 0.3931 0.0501
H18 H -0.3395 0.3617 0.2058
H19 H -0.3650 0.4563 0.1482
N2 N -0.334(3) -0.370(7) 0.176(10)
C26 C -0.368(4) -0.348(15) 0.030(7)
H20 H -0.3507 -0.3492 -0.0353
H21 H -0.3823 -0.2882 0.0305
H22 H -0.3945 -0.3933 0.0020
C27 C -0.366(3) -0.365(11) 0.266(9)
H23 H -0.3454 -0.3734 0.3646
H24 H -0.3902 -0.4134 0.2379
H25 H -0.3817 -0.3065 0.2534
C28 C -0.300(4) -0.289(8) 0.221(12)
H26 H -0.2782 -0.2879 0.1675
H27 H -0.2814 -0.2936 0.3206
H28 H -0.3200 -0.2341 0.2023
loop_
_geom_bond_atom_site_label_1
_geom_bond_atom_site_label_2
_geom_bond_site_symmetry_1
_geom_bond_site_symmetry_2
Cd1 Cl1 1_555 1_555
Cl1 Cd1A 1_555 1_555
O1 Cd1 1_555 1_555
O2 Cd1 1_555 1_555
O3 C2 1_555 1_555
O4 C22 1_555 1_555
O5 C22 1_555 1_555
O6 C13 1_555 1_555
C1 C2 1_555 1_555
C2 C3 1_555 1_555
C3 H1 1_555 1_555
C4 C3 1_555 1_555
H2 C4 1_555 1_555
C5 H3 1_555 1_555
C6 C5 1_555 1_555
C7 C6 1_555 1_555
H4 C7 1_555 1_555
C8 C7 1_555 1_555
H5 C8 1_555 1_555
C9 C1 1_555 1_555
C10 C4 1_555 1_555
C11 O1 1_555 1_555
C12 C1 1_555 1_555
C13 C12 1_555 1_555
C14 C13 1_555 1_555
H6 C14 1_555 1_555
C15 C14 1_555 1_555
H7 C15 1_555 1_555
C16 H8 1_555 1_555
C17 C16 1_555 1_555
C18 C17 1_555 1_555
H9 C18 1_555 1_555
C19 C18 1_555 1_555
H10 C19 1_555 1_555
C20 C12 1_555 1_555
C21 C15 1_555 1_555
C22 C17 1_555 1_555
N1 C23 1_555 1_555
C23 H11 1_555 1_555
H12 C23 1_555 1_555
H13 C23 1_555 1_555
C24 N1 1_555 1_555
H14 C24 1_555 1_555
H15 C24 1_555 1_555
H16 C24 1_555 1_555
C25 N1 1_555 1_555
H17 C25 1_555 1_555
H18 C25 1_555 1_555
H19 C25 1_555 1_555
N2 C26 1_555 1_555
C26 H20 1_555 1_555
H21 C26 1_555 1_555
H22 C26 1_555 1_555
C27 N2 1_555 1_555
H23 C27 1_555 1_555
H24 C27 1_555 1_555
H25 C27 1_555 1_555
C28 N2 1_555 1_555
H26 C28 1_555 1_555
H27 C28 1_555 1_555
H28 C28 1_555 1_555
Cl1A Cd1 1_555 1_555
O1_2 C11_2 1_555 1_555
O2_2 C11_2 1_555 1_555
O3_2 C2_2 1_555 1_555
O4_2 Cd1 1_555 1_555
O5_2 Cd1 1_555 1_555
O6_2 C13_2 1_555 1_555
C1_2 C2_2 1_555 1_555
C2_2 C3_2 1_555 1_555
C3_2 H1_2 1_555 1_555
C4_2 C3_2 1_555 1_555
H2_2 C4_2 1_555 1_555
C5_2 H3_2 1_555 1_555
C6_2 C5_2 1_555 1_555
C7_2 C6_2 1_555 1_555
H4_2 C7_2 1_555 1_555
C8_2 C7_2 1_555 1_555
H5_2 C8_2 1_555 1_555
C9_2 C1_2 1_555 1_555
C10_2 C4_2 1_555 1_555
C11_2 C6_2 1_555 1_555
C12_2 C1_2 1_555 1_555
C13_2 C12_2 1_555 1_555
C14_2 C13_2 1_555 1_555
H6_2 C14_2 1_555 1_555
C15_2 C14_2 1_555 1_555
H7_2 C15_2 1_555 1_555
C16_2 H8_2 1_555 1_555
C17_2 C16_2 1_555 1_555
C18_2 C17_2 1_555 1_555
H9_2 C18_2 1_555 1_555
C19_2 C18_2 1_555 1_555
H10_2 C19_2 1_555 1_555
C20_2 C12_2 1_555 1_555
C21_2 C15_2 1_555 1_555
C22_2 O4_2 1_555 1_555
Cd1A Cl1A 1_555 1_555
Cd1_2 O4 1_555 1_555
Cd1_3 O1_2 1_555 1_555
O1A Cd1A 1_555 1_555
O2A Cd1A 1_555 1_555
O4A Cd1A 1_555 1_555
O5A Cd1A 1_555 1_555
O2 C11 1_555 1_555
O5 Cd1_2 1_555 1_555
C5 C10 1_555 1_555
C6 C11 1_555 1_555
C8 C9 1_555 1_555
C9 C10 1_555 1_555
C16 C21 1_555 1_555
C19 C20 1_555 1_555
C20 C21 1_555 1_555
O2_2 Cd1_3 1_555 1_555
O5_2 C22_2 1_555 1_555
C5_2 C10_2 1_555 1_555
C8_2 C9_2 1_555 1_555
C9_2 C10_2 1_555 1_555
C16_2 C21_2 1_555 1_555
C17_2 C22_2 1_555 1_555
C19_2 C20_2 1_555 1_555
C20_2 C21_2 1_555 1_555

#END
