
#######################################################################
#
#                 Cambridge Crystallographic Data Centre
#                                CCDC 
#
#######################################################################
#
# If this CIF has been generated from an entry in the Cambridge 
# Structural Database, then it will include bibliographic, chemical, 
# crystal, experimental, refinement or atomic coordinate data resulting 
# from the CCDC's data processing and validation procedures.
#
#######################################################################

data_GUXBEH
_symmetry_cell_setting           monoclinic
_symmetry_space_group_name_H-M   'P 21/c'
_symmetry_Int_Tables_number      14
_space_group_name_Hall           '-P 2ybc'
loop_
_symmetry_equiv_pos_site_id
_symmetry_equiv_pos_as_xyz
1 x,y,z
2 -x,1/2+y,1/2-z
3 -x,-y,-z
4 x,1/2-y,1/2+z
_cell_length_a                   15.981(2)
_cell_length_b                   7.6739(11)
_cell_length_c                   18.172(3)
_cell_angle_alpha                90
_cell_angle_beta                 98.917(3)
_cell_angle_gamma                90
_cell_volume                     2201.62
loop_
_atom_site_label
_atom_site_type_symbol
_atom_site_fract_x
_atom_site_fract_y
_atom_site_fract_z
Cu1 Cu 0.34127(4) 0.32629(9) 0.32395(3)
C1 C 0.2099(4) 0.1427(10) 0.2486(3)
C2 C 0.1174(3) 0.1097(8) 0.2197(3)
C3 C 0.0620(3) 0.1126(10) 0.2712(3)
H1 H 0.0826 0.1353 0.3210
C4 C -0.0237(4) 0.0820(10) 0.2494(3)
H2 H -0.0602 0.0824 0.2845
C5 C -0.0543(4) 0.0514(9) 0.1762(3)
H3 H -0.1118 0.0316 0.1615
C6 C -0.0006(3) 0.0497(7) 0.1247(3)
H4 H -0.0221 0.0282 0.0750
C7 C 0.0856(3) 0.0796(7) 0.1450(3)
C8 C 0.1511(3) 0.2889(6) 0.0409(3)
C9 C 0.1045(4) 0.4179(7) 0.0708(3)
H5 H 0.0729 0.3897 0.1080
C10 C 0.1052(4) 0.5873(8) 0.0452(3)
H6 H 0.0732 0.6716 0.0648
C11 C 0.1525(4) 0.6333(8) -0.0089(3)
H7 H 0.1535 0.7481 -0.0251
C12 C 0.1983(4) 0.5065(7) -0.0385(3)
H8 H 0.2299 0.5372 -0.0754
C13 C 0.1988(3) 0.3343(7) -0.0151(3)
C14 C 0.2472(3) 0.2044(7) -0.0535(3)
C15 C 0.3572(4) 0.3789(9) 0.1629(3)
H9 H 0.2985 0.3711 0.1537
C16 C 0.4000(4) 0.4020(8) 0.1039(3)
H10 H 0.3708 0.4091 0.0556
C17 C 0.4866(4) 0.4145(9) 0.1174(3)
H11 H 0.5170 0.4296 0.0782
C18 C 0.5283(4) 0.4044(8) 0.1896(3)
H12 H 0.5869 0.4132 0.1999
C19 C 0.4813(3) 0.3810(7) 0.2459(3)
C20 C 0.5189(3) 0.3674(7) 0.3255(3)
C21 C 0.6045(4) 0.3835(8) 0.3524(3)
H13 H 0.6429 0.4055 0.3200
C22 C 0.6318(4) 0.3668(9) 0.4266(4)
H14 H 0.6891 0.3778 0.4453
C23 C 0.5754(4) 0.3341(9) 0.4737(3)
H15 H 0.5933 0.3220 0.5246
C24 C 0.4914(4) 0.3194(8) 0.4444(3)
H16 H 0.4526 0.2966 0.4765
N1 N 0.3962(3) 0.3672(6) 0.2326(2)
N2 N 0.4629(3) 0.3363(6) 0.3719(2)
O1 O 0.2282(2) 0.2981(6) 0.2687(2)
O2 O 0.2606(3) 0.0219(8) 0.2538(3)
O3 O 0.3058(2) 0.2689(6) -0.0859(2)
O4 O 0.2293(2) 0.0487(5) -0.0524(2)
O5 O 0.3159(3) 0.6174(6) 0.3504(2)
H17 H 0.2828 0.6226 0.3807
H18 H 0.2857 0.6617 0.3147
S1 S 0.15212(9) 0.07007(17) 0.07487(7)
Cu1C Cu 0.34127(4) 0.17371(9) -0.17605(3)
O3C O 0.3058(2) 0.2311(6) 0.4141(2)
O6 O 0.2306(6) 0.7073(11) 0.2154(5)
H19 H 0.2077 0.6021 0.2105
H20 H 0.2323 0.8260 0.2178
loop_
_geom_bond_atom_site_label_1
_geom_bond_atom_site_label_2
_geom_bond_site_symmetry_1
_geom_bond_site_symmetry_2
Cu1 N1 1_555 1_555
C1 C2 1_555 1_555
C2 C3 1_555 1_555
C3 H1 1_555 1_555
C4 C3 1_555 1_555
H2 C4 1_555 1_555
C5 C4 1_555 1_555
H3 C5 1_555 1_555
C6 C5 1_555 1_555
H4 C6 1_555 1_555
C7 C2 1_555 1_555
C8 C9 1_555 1_555
C9 H5 1_555 1_555
C10 C9 1_555 1_555
H6 C10 1_555 1_555
C11 C10 1_555 1_555
H7 C11 1_555 1_555
C12 C11 1_555 1_555
H8 C12 1_555 1_555
C13 C8 1_555 1_555
C14 C13 1_555 1_555
C15 H9 1_555 1_555
C16 C15 1_555 1_555
H10 C16 1_555 1_555
C17 C16 1_555 1_555
H11 C17 1_555 1_555
C18 C17 1_555 1_555
H12 C18 1_555 1_555
C19 C18 1_555 1_555
C20 C19 1_555 1_555
C21 C20 1_555 1_555
H13 C21 1_555 1_555
C22 C21 1_555 1_555
H14 C22 1_555 1_555
C23 C22 1_555 1_555
H15 C23 1_555 1_555
C24 C23 1_555 1_555
H16 C24 1_555 1_555
N1 C15 1_555 1_555
N2 Cu1 1_555 1_555
O1 Cu1 1_555 1_555
O2 C1 1_555 1_555
O3 C14 1_555 1_555
O4 C14 1_555 1_555
O5 Cu1 1_555 1_555
H17 O5 1_555 1_555
H18 O5 1_555 1_555
S1 C7 1_555 1_555
O6 H19 1_555 1_555
H20 O6 1_555 1_555
Cu1C O3 1_555 1_555
O3C Cu1 1_555 1_555
C1 O1 1_555 1_555
C6 C7 1_555 1_555
C8 S1 1_555 1_555
C12 C13 1_555 1_555
C19 N1 1_555 1_555
C20 N2 1_555 1_555
C24 N2 1_555 1_555

#END
