
#######################################################################
#
#                 Cambridge Crystallographic Data Centre
#                                CCDC 
#
#######################################################################
#
# If this CIF has been generated from an entry in the Cambridge 
# Structural Database, then it will include bibliographic, chemical, 
# crystal, experimental, refinement or atomic coordinate data resulting 
# from the CCDC's data processing and validation procedures.
#
#######################################################################

data_GUXCIM
_symmetry_cell_setting           triclinic
_symmetry_space_group_name_H-M   'P -1'
_symmetry_Int_Tables_number      2
_space_group_name_Hall           '-P 1'
loop_
_symmetry_equiv_pos_site_id
_symmetry_equiv_pos_as_xyz
1 x,y,z
2 -x,-y,-z
_cell_length_a                   7.989(5)
_cell_length_b                   8.432(5)
_cell_length_c                   13.819(5)
_cell_angle_alpha                76.745(5)
_cell_angle_beta                 85.845(5)
_cell_angle_gamma                71.046(5)
_cell_volume                     856.962
loop_
_atom_site_label
_atom_site_type_symbol
_atom_site_fract_x
_atom_site_fract_y
_atom_site_fract_z
Zn1 Zn 0.62309(4) 0.58750(3) 0.24765(2)
N1 N 0.7706(3) 0.9567(2) 0.34097(13)
O1 O 0.4980(2) 0.45942(18) 0.34539(12)
N2 N 0.3099(3) 0.7539(2) -0.00371(14)
O2 O 0.8569(2) 0.41437(18) 0.25488(13)
N3 N 0.6493(3) 0.78931(19) 0.29239(13)
N4 N 0.5125(3) 0.6650(2) 0.11283(13)
C1 C 0.9786(3) 0.4493(3) 0.20349(17)
C2 C 0.7991(3) 0.8124(3) 0.30827(16)
H1 H 0.9106 0.7381 0.2981
C3 C 0.9077(4) 1.0149(3) 0.37276(18)
H2 H 0.8777 1.1383 0.3487
H3 H 1.0198 0.9613 0.3433
C4 C 0.1379(3) 0.7994(3) -0.05141(18)
H4 H 0.0753 0.7219 -0.0167
H5 H 0.1563 0.7849 -0.1194
C5 C 0.9273(4) 0.9721(3) 0.48379(18)
H6 H 0.9541 0.8491 0.5080
H7 H 0.8162 1.0284 0.5132
C6 C 0.5920(4) 1.0293(3) 0.3457(2)
H8 H 0.5325 1.1313 0.3656
C7 C 0.3410(4) 0.5450(3) 0.36627(18)
C8 C 0.3487(3) 0.6830(3) 0.09134(18)
H9 H 0.2692 0.6498 0.1376
C9 C 0.0253(4) 0.9825(3) -0.05156(18)
H10 H -0.0820 1.0089 -0.0891
H11 H 0.0893 1.0592 -0.0855
C10 C 0.4579(4) 0.7832(4) -0.0463(2)
H12 H 0.4716 0.8321 -0.1127
C11 C 0.5176(3) 0.9260(3) 0.31626(19)
H13 H 0.3968 0.9443 0.3127
C12 C 0.5813(4) 0.7283(4) 0.0256(2)
H14 H 0.6963 0.7330 0.0168
C13 C 1.1578(4) 0.3101(3) 0.2163(2)
H15 H 1.1485 0.2111 0.2644
H16 H 1.2426 0.3523 0.2389
H17 H 1.1956 0.2788 0.1538
C14 C 0.2579(4) 0.4582(4) 0.4549(2)
H18 H 0.3379 0.3457 0.4813
H19 H 0.1497 0.4483 0.4350
H20 H 0.2332 0.5251 0.5049
O3 O 0.2618(3) 0.6903(2) 0.32087(14)
O4 O 0.9645(3) 0.5865(2) 0.14478(14)
Zn1A Zn 1.37691(4) 1.41250(3) 0.75235(2)
Zn1A_2 Zn -0.62309(4) 1.41250(3) -0.24765(2)
N1A N 1.2294(3) 1.0433(2) 0.65903(13)
O1A O 1.5020(2) 1.54058(18) 0.65461(12)
N2A N -0.3099(3) 1.2461(2) 0.00371(14)
O2A O 1.1431(2) 1.58563(18) 0.74512(13)
N3A N 1.3507(3) 1.21069(19) 0.70761(13)
N4A N -0.5125(3) 1.3350(2) -0.11283(13)
N4A_2 N 1.4875(3) 1.3350(2) 0.88717(13)
C1A C 1.0214(3) 1.5507(3) 0.79651(17)
C2A C 1.2009(3) 1.1876(3) 0.69173(16)
H1A H 1.0894 1.2619 0.7019
C3A C 1.0923(4) 0.9851(3) 0.62724(18)
H2A H 1.1223 0.8617 0.6513
H3A H 0.9802 1.0387 0.6567
C4A C -0.1379(3) 1.2006(3) 0.05141(18)
H4A H -0.0753 1.2781 0.0167
H5A H -0.1563 1.2151 0.1194
C5A C 1.0727(4) 1.0279(3) 0.51621(18)
H6A H 1.0459 1.1509 0.4920
H7A H 1.1838 0.9716 0.4868
C6A C 1.4080(4) 0.9707(3) 0.6543(2)
H8A H 1.4675 0.8687 0.6344
C7A C 1.6590(4) 1.4550(3) 0.63373(18)
C8A C -0.3487(3) 1.3170(3) -0.09134(18)
H9A H -0.2692 1.3502 -0.1376
C9A C -0.0253(4) 1.0175(3) 0.05156(18)
H10A H 0.0820 0.9911 0.0891
H11A H -0.0893 0.9408 0.0855
C10A C -0.4579(4) 1.2168(4) 0.0463(2)
H12A H -0.4716 1.1679 0.1127
C11A C 1.4824(3) 1.0740(3) 0.68374(19)
H13A H 1.6032 1.0557 0.6873
C12A C -0.5813(4) 1.2717(4) -0.0256(2)
H14A H -0.6963 1.2670 -0.0168
C13A C 0.8422(4) 1.6899(3) 0.7837(2)
H15A H 0.8515 1.7889 0.7356
H16A H 0.7574 1.6477 0.7611
H17A H 0.8044 1.7212 0.8462
C14A C 1.7421(4) 1.5418(4) 0.5451(2)
H18A H 1.6621 1.6543 0.5187
H19A H 1.8503 1.5517 0.5650
H20A H 1.7668 1.4749 0.4951
O3A O 1.7382(3) 1.3097(2) 0.67913(14)
O4A O 1.0355(3) 1.4135(2) 0.85522(14)
loop_
_geom_bond_atom_site_label_1
_geom_bond_atom_site_label_2
_geom_bond_site_symmetry_1
_geom_bond_site_symmetry_2
Zn1 O1 1_555 1_555
N1 C2 1_555 1_555
O1 C7 1_555 1_555
N2 C4 1_555 1_555
O2 Zn1 1_555 1_555
N3 Zn1 1_555 1_555
N4 Zn1 1_555 1_555
C1 O2 1_555 1_555
C2 N3 1_555 1_555
H1 C2 1_555 1_555
C3 N1 1_555 1_555
H2 C3 1_555 1_555
H3 C3 1_555 1_555
C4 H4 1_555 1_555
H5 C4 1_555 1_555
C5 C3 1_555 1_555
H6 C5 1_555 1_555
H7 C5 1_555 1_555
C6 N1 1_555 1_555
H8 C6 1_555 1_555
C7 C14 1_555 1_555
C8 N2 1_555 1_555
H9 C8 1_555 1_555
C9 C4 1_555 1_555
H10 C9 1_555 1_555
H11 C9 1_555 1_555
C10 N2 1_555 1_555
H12 C10 1_555 1_555
C11 N3 1_555 1_555
H13 C11 1_555 1_555
C12 N4 1_555 1_555
H14 C12 1_555 1_555
C13 C1 1_555 1_555
H15 C13 1_555 1_555
H16 C13 1_555 1_555
H17 C13 1_555 1_555
C14 H18 1_555 1_555
H19 C14 1_555 1_555
H20 C14 1_555 1_555
O3 C7 1_555 1_555
O4 C1 1_555 1_555
Zn1A O1A 1_555 1_555
Zn1A_2 N4A 1_555 1_555
N1A C2A 1_555 1_555
O1A C7A 1_555 1_555
N2A C4A 1_555 1_555
O2A Zn1A 1_555 1_555
N3A Zn1A 1_555 1_555
N4A C8A 1_555 1_555
N4A_2 Zn1A 1_555 1_555
C1A O2A 1_555 1_555
C2A N3A 1_555 1_555
H1A C2A 1_555 1_555
C3A N1A 1_555 1_555
H2A C3A 1_555 1_555
H3A C3A 1_555 1_555
C4A H4A 1_555 1_555
H5A C4A 1_555 1_555
C5A C5 1_555 1_555
H6A C5A 1_555 1_555
H7A C5A 1_555 1_555
C6A N1A 1_555 1_555
H8A C6A 1_555 1_555
C7A C14A 1_555 1_555
C8A N2A 1_555 1_555
H9A C8A 1_555 1_555
C9A C9 1_555 1_555
H10A C9A 1_555 1_555
H11A C9A 1_555 1_555
C10A N2A 1_555 1_555
H12A C10A 1_555 1_555
C11A N3A 1_555 1_555
H13A C11A 1_555 1_555
C12A N4A 1_555 1_555
H14A C12A 1_555 1_555
C13A C1A 1_555 1_555
H15A C13A 1_555 1_555
H16A C13A 1_555 1_555
H17A C13A 1_555 1_555
C14A H18A 1_555 1_555
H19A C14A 1_555 1_555
H20A C14A 1_555 1_555
O3A C7A 1_555 1_555
O4A C1A 1_555 1_555
N4 C8 1_555 1_555
C6 C11 1_555 1_555
C10 C12 1_555 1_555
C3A C5A 1_555 1_555
C4A C9A 1_555 1_555
C6A C11A 1_555 1_555
C10A C12A 1_555 1_555

#END
