
#######################################################################
#
#                 Cambridge Crystallographic Data Centre
#                                CCDC 
#
#######################################################################
#
# If this CIF has been generated from an entry in the Cambridge 
# Structural Database, then it will include bibliographic, chemical, 
# crystal, experimental, refinement or atomic coordinate data resulting 
# from the CCDC's data processing and validation procedures.
#
#######################################################################

data_GUXCOR
_symmetry_cell_setting           monoclinic
_symmetry_space_group_name_H-M   'P 21/n'
_symmetry_Int_Tables_number      14
_space_group_name_Hall           '-P 2yn'
loop_
_symmetry_equiv_pos_site_id
_symmetry_equiv_pos_as_xyz
1 x,y,z
2 1/2+x,1/2-y,1/2+z
3 -x,-y,-z
4 1/2-x,1/2+y,1/2-z
_cell_length_a                   11.5549(18)
_cell_length_b                   15.386(2)
_cell_length_c                   20.339(3)
_cell_angle_alpha                90
_cell_angle_beta                 102.792(2)
_cell_angle_gamma                90
_cell_volume                     3526.2
loop_
_atom_site_label
_atom_site_type_symbol
_atom_site_fract_x
_atom_site_fract_y
_atom_site_fract_z
Nd1 Nd 0.491956(10) 0.870995(7) 0.743515(6)
O1 O 0.55011(18) 0.85063(12) 0.62777(9)
N1 N 0.6586(2) 0.83369(16) 0.65151(12)
C1 C 0.3802(3) 0.67566(19) 0.60820(13)
H1 H 0.3205 0.7195 0.6097
H2 H 0.3421 0.6235 0.5870
H3 H 0.4353 0.6974 0.5824
O2 O 0.69290(17) 0.82939(13) 0.71432(10)
N2 N 0.65995(19) 0.84146(14) 0.87916(11)
C2 C 0.4460(2) 0.65506(17) 0.67813(13)
O3 O 0.7275(3) 0.8220(2) 0.61397(13)
N3 N 0.2511(2) 0.88971(13) 0.64492(11)
C3 C 0.4720(2) 0.56765(16) 0.69674(13)
H4 H 0.3956 0.5371 0.6876
H5 H 0.5162 0.5446 0.6647
O4 O 0.64191(16) 0.78085(11) 0.83659(9)
N4 N 0.5771(2) 0.59667(15) 0.80827(11)
C4 C 0.5330(2) 0.53998(18) 0.76058(14)
O5 O 0.62428(17) 0.91639(11) 0.85784(9)
N5 N 0.4752(2) 0.66623(14) 0.91162(10)
C5 C 0.5492(3) 0.44486(18) 0.77617(18)
H6 H 0.6323 0.4330 0.7951
H7 H 0.5231 0.4115 0.7351
H8 H 0.5025 0.4286 0.8084
O6 O 0.7078(2) 0.82854(14) 0.93811(10)
N6 N 0.4840(2) 1.04523(14) 0.91315(10)
C6 C 0.6327(3) 0.5826(2) 0.87881(14)
H9 H 0.6935 0.6272 0.8935
H10 H 0.6721 0.5258 0.8837
O7 O 0.26449(18) 0.84293(12) 0.69677(10)
N7 N 0.5056(2) 1.05055(16) 0.58385(12)
C7 C 0.5451(3) 0.58568(19) 0.92315(14)
H11 H 0.4919 0.5355 0.9136
H12 H 0.5874 0.5826 0.9705
O8 O 0.34310(17) 0.92400(13) 0.63348(9)
C8 C 0.3823(2) 0.68081(16) 0.93683(11)
O9 O 0.15357(18) 0.90302(14) 0.60806(10)
C9 C 0.3542(3) 0.61675(18) 0.98706(15)
H13 H 0.3294 0.5621 0.9646
H14 H 0.2909 0.6396 1.0064
H15 H 0.4244 0.6073 1.0226
O10 O 0.47686(16) 0.71732(11) 0.71906(8)
C10 C 0.3093(2) 0.75193(16) 0.91833(11)
H16 H 0.3137 0.7860 0.9595
H17 H 0.2283 0.7291 0.9057
O11 O 0.40368(15) 0.81055(11) 0.83748(8)
C11 C 0.3200(2) 0.81202(17) 0.86775(12)
O12 O 0.39848(16) 0.99466(10) 0.78435(8)
C12 C 0.2243(3) 0.8796(2) 0.84902(18)
H18 H 0.2589 0.9370 0.8577
H19 H 0.1653 0.8711 0.8757
H20 H 0.1870 0.8743 0.8015
O13 O 0.58276(18) 1.00254(11) 0.71209(9)
C13 C 0.2803(3) 1.09422(19) 0.70771(13)
H21 H 0.3276 1.0935 0.6738
H22 H 0.2471 1.1518 0.7098
H23 H 0.2165 1.0522 0.6959
C14 C 0.3574(2) 1.07133(16) 0.77530(11)
C15 C 0.3775(3) 1.13477(16) 0.82540(13)
H24 H 0.2991 1.1569 0.8280
H25 H 0.4181 1.1825 0.8079
C16 C 0.4389(3) 1.12194(16) 0.89178(13)
C17 C 0.4562(3) 1.1962(2) 0.94014(16)
H26 H 0.4185 1.1831 0.9771
H27 H 0.4209 1.2482 0.9171
H28 H 0.5404 1.2056 0.9576
C18 C 0.5430(3) 1.02154(19) 0.98198(12)
H29 H 0.5760 1.0738 1.0067
H30 H 0.6088 0.9817 0.9809
C19 C 0.6866(3) 1.1043(2) 0.79250(16)
H31 H 0.6367 1.0939 0.8243
H32 H 0.7078 1.1654 0.7934
H33 H 0.7580 1.0695 0.8048
C20 C 0.6200(2) 1.07991(17) 0.72260(13)
C21 C 0.6031(3) 1.14303(17) 0.67198(16)
H34 H 0.5579 1.1900 0.6871
H35 H 0.6818 1.1669 0.6722
C22 C 0.5492(3) 1.12779(17) 0.60461(16)
C23 C 0.5404(3) 1.1996(2) 0.55384(19)
H36 H 0.5833 1.1833 0.5198
H37 H 0.5744 1.2523 0.5763
H38 H 0.4576 1.2096 0.5326
C24 C 0.4540(3) 1.0227(2) 0.51480(13)
H39 H 0.4236 1.0734 0.4872
H40 H 0.3875 0.9832 0.5147
H47 H 0.479(3) 1.0012(16) 0.8775(12)
H48 H 0.488(3) 0.7064(15) 0.8763(11)
H49 H 0.564(3) 0.6560(10) 0.7884(14)
H50 H 0.505(3) 1.0113(19) 0.6230(12)
C18B C 0.4570(3) 0.97846(19) 1.01802(12)
N6B N 0.5160(2) 0.95477(14) 1.08685(10)
C16B C 0.5611(3) 0.87806(16) 1.10822(13)
C15B C 0.6225(3) 0.86523(16) 1.17460(13)
C14B C 0.6426(2) 0.92867(16) 1.22470(11)
O12B O 0.60152(16) 1.00534(10) 1.21565(8)
C13B C 0.7197(3) 0.90578(19) 1.29229(13)
H21B H 0.6724 0.9065 1.3262
H22B H 0.7529 0.8482 1.2902
H23B H 0.7835 0.9478 1.3041
H24B H 0.7009 0.8431 1.1720
H25B H 0.5819 0.8175 1.1921
C17B C 0.5438(3) 0.8038(2) 1.05986(16)
H26B H 0.5815 0.8169 1.0229
H27B H 0.5791 0.7518 1.0829
H28B H 0.4596 0.7944 1.0424
H47B H 0.521(3) 0.9988(16) 1.1225(12)
H29B H 0.4240 0.9262 0.9933
H30B H 0.3912 1.0183 1.0191
C24B C 0.5460(3) 0.9773(2) 0.48520(13)
N7B N 0.4944(2) 0.94945(16) 0.41615(12)
C22B C 0.4508(3) 0.87221(17) 0.39539(16)
C21B C 0.3969(3) 0.85697(17) 0.32802(16)
C20B C 0.3800(2) 0.92009(17) 0.27740(13)
O13B O 0.41724(18) 0.99746(11) 0.28791(9)
C19B C 0.3134(3) 0.8957(2) 0.20750(16)
H31B H 0.3633 0.9061 0.1757
H32B H 0.2922 0.8346 0.2066
H33B H 0.2420 0.9305 0.1952
H34B H 0.4421 0.8100 0.3129
H35B H 0.3182 0.8331 0.3278
C23B C 0.4596(3) 0.8004(2) 0.44616(19)
H36B H 0.4167 0.8167 0.4802
H37B H 0.4256 0.7477 0.4237
H38B H 0.5424 0.7904 0.4674
H50B H 0.495(3) 0.9887(19) 0.3770(12)
H39B H 0.5764 0.9266 0.5128
H40B H 0.6125 1.0168 0.4853
Nd1B Nd 0.508044(10) 1.129005(7) 1.256485(6)
O1B O 0.44989(18) 1.14937(12) 1.37223(9)
N1B N 0.3414(2) 1.16631(16) 1.34849(12)
O2B O 0.30710(17) 1.17061(13) 1.28568(10)
O3B O 0.2725(3) 1.1780(2) 1.38603(13)
N2B N 0.34005(19) 1.15854(14) 1.12084(11)
O4B O 0.35809(16) 1.21915(11) 1.16341(9)
O5B O 0.37572(17) 1.08361(11) 1.14216(9)
O6B O 0.2922(2) 1.17146(14) 1.06189(10)
N3B N 0.7489(2) 1.11029(13) 1.35508(11)
O7B O 0.73551(18) 1.15707(12) 1.30323(10)
O8B O 0.65690(17) 1.07600(13) 1.36652(9)
O9B O 0.84643(18) 1.09698(14) 1.39194(10)
C1B C 0.6198(3) 1.32434(19) 1.39180(13)
H1B H 0.6795 1.2805 1.3903
H2B H 0.6579 1.3765 1.4130
H3B H 0.5647 1.3026 1.4176
C2B C 0.5540(2) 1.34494(17) 1.32187(13)
C3B C 0.5280(2) 1.43235(16) 1.30326(13)
H4B H 0.6044 1.4629 1.3124
H5B H 0.4838 1.4554 1.3353
N4B N 0.4229(2) 1.40333(15) 1.19173(11)
C4B C 0.4670(2) 1.46002(18) 1.23942(14)
N5B N 0.5248(2) 1.33377(14) 1.08838(10)
C5B C 0.4508(3) 1.55514(18) 1.22383(18)
H6B H 0.3677 1.5670 1.2049
H7B H 0.4769 1.5885 1.2649
H8B H 0.4975 1.5714 1.1916
C6B C 0.3673(3) 1.4174(2) 1.12119(14)
H9B H 0.3065 1.3728 1.1065
H10B H 0.3279 1.4742 1.1163
C7B C 0.4549(3) 1.41432(19) 1.07685(14)
H11B H 0.5081 1.4645 1.0864
H12B H 0.4126 1.4174 1.0295
C8B C 0.6177(2) 1.31919(16) 1.06317(11)
C9B C 0.6458(3) 1.38325(18) 1.01294(15)
H13B H 0.6706 1.4379 1.0354
H14B H 0.7091 1.3604 0.9936
H15B H 0.5756 1.3927 0.9774
O10B O 0.52314(16) 1.28268(11) 1.28094(8)
C10B C 0.6907(2) 1.24807(16) 1.08167(11)
H16B H 0.6863 1.2140 1.0405
H17B H 0.7717 1.2709 1.0943
O11B O 0.59632(15) 1.18945(11) 1.16252(8)
C11B C 0.6800(2) 1.18798(17) 1.13225(12)
C12B C 0.7757(3) 1.1204(2) 1.15098(18)
H18B H 0.7411 1.0630 1.1423
H19B H 0.8347 1.1289 1.1243
H20B H 0.8130 1.1257 1.1985
H48B H 0.512(3) 1.2936(15) 1.1237(11)
H49B H 0.436(3) 1.3440(10) 1.2116(14)
Nd1B_2 Nd 0.508044(10) 1.129005(7) 0.256485(6)
O13B_2 O 0.41724(18) 0.99746(11) 1.28791(9)
C25 C 0.9425(9) 0.9621(6) 0.9541(3)
H41 H 0.9075 0.9119 0.9722
H42 H 0.9052 0.9650 0.9060
C26 C 0.9070(7) 1.0310(6) 0.9818(6)
H43 H 0.9140 1.0801 0.9522
H44 H 0.8221 1.0231 0.9795
C27 C 1.0466(9) 0.9443(5) 0.9579(4)
H45 H 1.0792 0.9765 0.9246
H46 H 1.0578 0.8818 0.9521
C27B C 0.9534(9) 1.0557(5) 1.0421(4)
C25B C 1.0575(9) 1.0379(6) 1.0459(3)
H41B H 1.0925 1.0881 1.0278
H42B H 1.0948 1.0350 1.0940
C26B C 1.0930(7) 0.9690(6) 1.0182(6)
H43B H 1.0860 0.9199 1.0478
H44B H 1.1779 0.9769 1.0205
H45B H 0.9208 1.0235 1.0754
H46B H 0.9422 1.1182 1.0479
loop_
_geom_bond_atom_site_label_1
_geom_bond_atom_site_label_2
_geom_bond_site_symmetry_1
_geom_bond_site_symmetry_2
Nd1 O1 1_555 1_555
O1 N1 1_555 1_555
N1 O2 1_555 1_555
C1 H1 1_555 1_555
H2 C1 1_555 1_555
H3 C1 1_555 1_555
O2 Nd1 1_555 1_555
N2 O4 1_555 1_555
C2 C1 1_555 1_555
O3 N1 1_555 1_555
N3 O7 1_555 1_555
C3 C2 1_555 1_555
H4 C3 1_555 1_555
H5 C3 1_555 1_555
O4 Nd1 1_555 1_555
N4 C4 1_555 1_555
C4 C3 1_555 1_555
O5 Nd1 1_555 1_555
N5 C7 1_555 1_555
C5 C4 1_555 1_555
H6 C5 1_555 1_555
H7 C5 1_555 1_555
H8 C5 1_555 1_555
O6 N2 1_555 1_555
N6 C16 1_555 1_555
C6 N4 1_555 1_555
H9 C6 1_555 1_555
H10 C6 1_555 1_555
O7 Nd1 1_555 1_555
N7 C22 1_555 1_555
C7 C6 1_555 1_555
H11 C7 1_555 1_555
H12 C7 1_555 1_555
O8 Nd1 1_555 1_555
C8 N5 1_555 1_555
O9 N3 1_555 1_555
C9 C8 1_555 1_555
H13 C9 1_555 1_555
H14 C9 1_555 1_555
H15 C9 1_555 1_555
O10 Nd1 1_555 1_555
C10 C8 1_555 1_555
H16 C10 1_555 1_555
H17 C10 1_555 1_555
O11 Nd1 1_555 1_555
C11 C10 1_555 1_555
O12 Nd1 1_555 1_555
C12 C11 1_555 1_555
H18 C12 1_555 1_555
H19 C12 1_555 1_555
H20 C12 1_555 1_555
O13 Nd1 1_555 1_555
C13 H21 1_555 1_555
H22 C13 1_555 1_555
H23 C13 1_555 1_555
C14 O12 1_555 1_555
C15 C14 1_555 1_555
H24 C15 1_555 1_555
H25 C15 1_555 1_555
C16 C15 1_555 1_555
C17 C16 1_555 1_555
H26 C17 1_555 1_555
H27 C17 1_555 1_555
H28 C17 1_555 1_555
C18 N6 1_555 1_555
H29 C18 1_555 1_555
H30 C18 1_555 1_555
C19 H31 1_555 1_555
H32 C19 1_555 1_555
H33 C19 1_555 1_555
C20 O13 1_555 1_555
C21 C20 1_555 1_555
H34 C21 1_555 1_555
H35 C21 1_555 1_555
C22 C21 1_555 1_555
C23 C22 1_555 1_555
H36 C23 1_555 1_555
H37 C23 1_555 1_555
H38 C23 1_555 1_555
C24 N7 1_555 1_555
H39 C24 1_555 1_555
H40 C24 1_555 1_555
C25 H41 1_555 1_555
H42 C25 1_555 1_555
C26 C25 1_555 1_555
H43 C26 1_555 1_555
H44 C26 1_555 1_555
C27 C25 1_555 1_555
H45 C27 1_555 1_555
H46 C27 1_555 1_555
H47 N6 1_555 1_555
H48 N5 1_555 1_555
H49 N4 1_555 1_555
H50 N7 1_555 1_555
C18B C18 1_555 1_555
N6B C18B 1_555 1_555
C16B N6B 1_555 1_555
C15B C16B 1_555 1_555
C14B C15B 1_555 1_555
O12B C14B 1_555 1_555
C13B C14B 1_555 1_555
H21B C13B 1_555 1_555
H22B C13B 1_555 1_555
H23B C13B 1_555 1_555
H24B C15B 1_555 1_555
H25B C15B 1_555 1_555
C17B C16B 1_555 1_555
H26B C17B 1_555 1_555
H27B C17B 1_555 1_555
H28B C17B 1_555 1_555
H47B N6B 1_555 1_555
H29B C18B 1_555 1_555
H30B C18B 1_555 1_555
C24B C24 1_555 1_555
N7B C24B 1_555 1_555
C22B N7B 1_555 1_555
C21B C22B 1_555 1_555
C20B C21B 1_555 1_555
O13B C20B 1_555 1_555
C19B C20B 1_555 1_555
H31B C19B 1_555 1_555
H32B C19B 1_555 1_555
H33B C19B 1_555 1_555
H34B C21B 1_555 1_555
H35B C21B 1_555 1_555
C23B C22B 1_555 1_555
H36B C23B 1_555 1_555
H37B C23B 1_555 1_555
H38B C23B 1_555 1_555
H50B N7B 1_555 1_555
H39B C24B 1_555 1_555
H40B C24B 1_555 1_555
C27B C26 1_555 1_555
C25B C27B 1_555 1_555
H41B C25B 1_555 1_555
H42B C25B 1_555 1_555
C26B C27 1_555 1_555
H43B C26B 1_555 1_555
H44B C26B 1_555 1_555
H45B C27B 1_555 1_555
H46B C27B 1_555 1_555
Nd1B O12B 1_555 1_555
O1B Nd1B 1_555 1_555
N1B O1B 1_555 1_555
O2B Nd1B 1_555 1_555
O3B N1B 1_555 1_555
N2B O4B 1_555 1_555
O4B Nd1B 1_555 1_555
O5B Nd1B 1_555 1_555
O6B N2B 1_555 1_555
N3B O7B 1_555 1_555
O7B Nd1B 1_555 1_555
O8B Nd1B 1_555 1_555
O9B N3B 1_555 1_555
C1B H1B 1_555 1_555
H2B C1B 1_555 1_555
H3B C1B 1_555 1_555
C2B C1B 1_555 1_555
C3B C2B 1_555 1_555
H4B C3B 1_555 1_555
H5B C3B 1_555 1_555
N4B C4B 1_555 1_555
C4B C3B 1_555 1_555
N5B C7B 1_555 1_555
C5B C4B 1_555 1_555
H6B C5B 1_555 1_555
H7B C5B 1_555 1_555
H8B C5B 1_555 1_555
C6B N4B 1_555 1_555
H9B C6B 1_555 1_555
H10B C6B 1_555 1_555
C7B C6B 1_555 1_555
H11B C7B 1_555 1_555
H12B C7B 1_555 1_555
C8B N5B 1_555 1_555
C9B C8B 1_555 1_555
H13B C9B 1_555 1_555
H14B C9B 1_555 1_555
H15B C9B 1_555 1_555
O10B Nd1B 1_555 1_555
C10B C8B 1_555 1_555
H16B C10B 1_555 1_555
H17B C10B 1_555 1_555
O11B Nd1B 1_555 1_555
C11B C10B 1_555 1_555
C12B C11B 1_555 1_555
H18B C12B 1_555 1_555
H19B C12B 1_555 1_555
H20B C12B 1_555 1_555
H48B N5B 1_555 1_555
H49B N4B 1_555 1_555
Nd1B_2 O13B 1_555 1_555
O13B_2 Nd1B 1_555 1_555
N2 O5 1_555 1_555
C2 O10 1_555 1_555
N3 O8 1_555 1_555
O11 C11 1_555 1_555
C13 C14 1_555 1_555
C19 C20 1_555 1_555
C25B C26B 1_555 1_555
N1B O2B 1_555 1_555
N2B O5B 1_555 1_555
N3B O8B 1_555 1_555
C2B O10B 1_555 1_555
O11B C11B 1_555 1_555

#END
