
#######################################################################
#
#                 Cambridge Crystallographic Data Centre
#                                CCDC 
#
#######################################################################
#
# If this CIF has been generated from an entry in the Cambridge 
# Structural Database, then it will include bibliographic, chemical, 
# crystal, experimental, refinement or atomic coordinate data resulting 
# from the CCDC's data processing and validation procedures.
#
#######################################################################

data_GUXCEI
_symmetry_cell_setting           monoclinic
_symmetry_space_group_name_H-M   'C 2/c'
_symmetry_Int_Tables_number      15
_space_group_name_Hall           '-C 2yn'
loop_
_symmetry_equiv_pos_site_id
_symmetry_equiv_pos_as_xyz
1 x,y,z
2 -x,y,1/2-z
3 1/2+x,1/2+y,z
4 1/2-x,1/2+y,1/2-z
5 -x,-y,-z
6 x,-y,1/2+z
7 1/2-x,1/2-y,-z
8 1/2+x,1/2-y,1/2+z
_cell_length_a                   23.4754(17)
_cell_length_b                   7.2526(3)
_cell_length_c                   13.3800(7)
_cell_angle_alpha                90
_cell_angle_beta                 93.161(5)
_cell_angle_gamma                90
_cell_volume                     2274.58
loop_
_atom_site_label
_atom_site_type_symbol
_atom_site_fract_x
_atom_site_fract_y
_atom_site_fract_z
C1 C 0.3807(2) -0.4793(5) 0.0698(3)
H1 H 0.3904 -0.4665 0.1377
C2 C 0.4006(2) -0.6337(5) 0.0183(3)
H2 H 0.4238 -0.7202 0.0518
C3 C 0.38534(19) -0.6565(6) -0.0827(3)
C4 C 0.35082(19) -0.5245(5) -0.1297(3)
H3 H 0.3397 -0.5375 -0.1971
C5 C 0.33301(18) -0.3750(5) -0.0777(3)
H4 H 0.3101 -0.2881 -0.1115
C6 C 0.34730(18) -0.3469(5) 0.0219(3)
C7 C 0.32759(17) -0.1838(6) 0.0777(3)
C8 C 0.4436(2) -0.9405(6) -0.0956(3)
H5 H 0.4219 -1.0258 -0.0566
H6 H 0.4724 -0.8835 -0.0510
C9 C 0.4720(2) -1.0448(6) -0.1766(3)
C10 C 0.4723(2) -1.2360(5) -0.1779(4)
H7 H 0.4537 -1.3016 -0.1298
C11 C 0.5000 -1.3282(9) -0.2500
H8 H 0.5000 -1.4564 -0.2500
C12 C 0.5000 -0.9540(8) -0.2500
H9 H 0.5000 -0.8258 -0.2500
H10 H 0.272(2) 0.524(7) 0.190(4)
H11 H 0.2161(18) 0.487(6) 0.113(3)
N1 N 0.40582(18) -0.8001(6) -0.1380(3)
O1 O 0.32698(13) -0.1881(4) 0.1701(2)
O2 O 0.31032(13) -0.0467(3) 0.0253(2)
O3 O 0.24407(19) 0.4249(5) 0.1655(3)
Ag1 Ag 0.280238(19) 0.18454(4) 0.10193(3)
H12 H 0.3882(17) -0.815(6) -0.194(3)
C1A C 0.6193(2) -0.4793(5) -0.5698(3)
H1A H 0.6096 -0.4665 -0.6377
C2A C 0.5994(2) -0.6337(5) -0.5183(3)
H2A H 0.5762 -0.7202 -0.5518
C3A C 0.61466(19) -0.6565(6) -0.4173(3)
C4A C 0.64918(19) -0.5245(5) -0.3703(3)
H3A H 0.6603 -0.5375 -0.3029
C5A C 0.66699(18) -0.3750(5) -0.4223(3)
H4A H 0.6899 -0.2881 -0.3885
C6A C 0.65270(18) -0.3469(5) -0.5219(3)
C7A C 0.67241(17) -0.1838(6) -0.5777(3)
C8A C 0.5564(2) -0.9405(6) -0.4044(3)
H5A H 0.5781 -1.0258 -0.4434
H6A H 0.5276 -0.8835 -0.4490
C9A C 0.5280(2) -1.0448(6) -0.3234(3)
C10A C 0.5277(2) -1.2360(5) -0.3221(4)
H7A H 0.5463 -1.3016 -0.3702
H10A H 0.728(2) 0.524(7) -0.690(4)
H11A H 0.7839(18) 0.487(6) -0.613(3)
N1A N 0.59418(18) -0.8001(6) -0.3620(3)
O1A O 0.67302(13) -0.1881(4) -0.6701(2)
O2A O 0.68968(13) -0.0467(3) -0.5253(2)
O3A O 0.75593(19) 0.4249(5) -0.6655(3)
Ag1A Ag 0.719762(19) 0.18454(4) -0.60193(3)
Ag1F Ag 0.219762(19) 0.31546(4) -0.10193(3)
Ag1G Ag 0.780238(19) 0.31546(4) -0.39807(3)
H12A H 0.6118(17) -0.815(6) -0.306(3)
loop_
_geom_bond_atom_site_label_1
_geom_bond_atom_site_label_2
_geom_bond_site_symmetry_1
_geom_bond_site_symmetry_2
C1 H1 1_555 1_555
C2 C1 1_555 1_555
H2 C2 1_555 1_555
C3 C2 1_555 1_555
C4 C3 1_555 1_555
H3 C4 1_555 1_555
C5 C4 1_555 1_555
H4 C5 1_555 1_555
C6 C1 1_555 1_555
C7 C6 1_555 1_555
C8 H5 1_555 1_555
H6 C8 1_555 1_555
C9 C8 1_555 1_555
C10 C9 1_555 1_555
H7 C10 1_555 1_555
C11 C10 1_555 1_555
H8 C11 1_555 1_555
C12 C9 1_555 1_555
H9 C12 1_555 1_555
H10 O3 1_555 1_555
H11 O3 1_555 1_555
N1 C3 1_555 1_555
O1 C7 1_555 1_555
O2 C7 1_555 1_555
O3 Ag1 1_555 1_555
Ag1 O2 1_555 1_555
H12 N1 1_555 1_555
C1A H1A 1_555 1_555
C2A C1A 1_555 1_555
H2A C2A 1_555 1_555
C3A C2A 1_555 1_555
C4A C3A 1_555 1_555
H3A C4A 1_555 1_555
C5A C4A 1_555 1_555
H4A C5A 1_555 1_555
C6A C1A 1_555 1_555
C7A C6A 1_555 1_555
C8A H5A 1_555 1_555
H6A C8A 1_555 1_555
C9A C12 1_555 1_555
C10A C11 1_555 1_555
H7A C10A 1_555 1_555
H10A O3A 1_555 1_555
H11A O3A 1_555 1_555
N1A C3A 1_555 1_555
O1A C7A 1_555 1_555
O2A C7A 1_555 1_555
O3A Ag1A 1_555 1_555
Ag1A O2A 1_555 1_555
Ag1F Ag1 1_555 1_555
Ag1G Ag1A 1_555 1_555
H12A N1A 1_555 1_555
C5 C6 1_555 1_555
C8 N1 1_555 1_555
C5A C6A 1_555 1_555
C8A C9A 1_555 1_555
C8A N1A 1_555 1_555
C9A C10A 1_555 1_555

#END
