
#######################################################################
#
#                 Cambridge Crystallographic Data Centre
#                                CCDC 
#
#######################################################################
#
# If this CIF has been generated from an entry in the Cambridge 
# Structural Database, then it will include bibliographic, chemical, 
# crystal, experimental, refinement or atomic coordinate data resulting 
# from the CCDC's data processing and validation procedures.
#
#######################################################################

data_GUXCUX
_symmetry_cell_setting           monoclinic
_symmetry_space_group_name_H-M   'P 21/n'
_symmetry_Int_Tables_number      14
_space_group_name_Hall           '-P 2yn'
loop_
_symmetry_equiv_pos_site_id
_symmetry_equiv_pos_as_xyz
1 x,y,z
2 1/2+x,1/2-y,1/2+z
3 -x,-y,-z
4 1/2-x,1/2+y,1/2-z
_cell_length_a                   11.6368(11)
_cell_length_b                   15.4286(14)
_cell_length_c                   20.4259(19)
_cell_angle_alpha                90
_cell_angle_beta                 102.241(2)
_cell_angle_gamma                90
_cell_volume                     3583.88
loop_
_atom_site_label
_atom_site_type_symbol
_atom_site_fract_x
_atom_site_fract_y
_atom_site_fract_z
Pr1 Pr 0.49201(2) 0.627984(14) 0.243818(10)
O1 O 0.5524(3) 0.6486(2) 0.12826(16)
N1 N 0.6595(5) 0.6637(3) 0.1518(2)
C1 C 0.2235(5) 0.6229(4) 0.3507(3)
H1 H 0.1865 0.6282 0.3041
H2 H 0.1662 0.6321 0.3776
H3 H 0.2567 0.5660 0.3591
O2 O 0.6938(3) 0.6686(2) 0.21435(18)
N2 N 0.6604(3) 0.6575(3) 0.3781(2)
C2 C 0.3198(4) 0.6899(3) 0.3683(2)
O3 O 0.7290(5) 0.6735(4) 0.1154(2)
N3 N 0.2534(4) 0.6098(2) 0.14515(19)
C3 C 0.3108(4) 0.7513(3) 0.4180(2)
H4 H 0.2325 0.7758 0.4050
H5 H 0.3120 0.7184 0.4586
O4 O 0.6247(3) 0.5827(2) 0.35747(16)
N4 N 0.4772(4) 0.8322(3) 0.41127(19)
C4 C 0.3844(4) 0.8197(3) 0.4365(2)
O5 O 0.6418(3) 0.71748(19) 0.33668(15)
N5 N 0.5726(4) 0.9049(3) 0.3075(2)
C5 C 0.3605(6) 0.8854(4) 0.4862(3)
H6 H 0.4272 0.8890 0.5230
H7 H 0.2924 0.8682 0.5025
H8 H 0.3467 0.9410 0.4648
O6 O 0.7093(4) 0.6695(3) 0.43647(18)
N6 N 0.4831(4) 0.4534(3) 0.41400(18)
C6 C 0.5483(6) 0.9108(4) 0.4225(3)
H9 H 0.4965 0.9607 0.4180
H10 H 0.5945 0.9102 0.4680
O7 O 0.2646(3) 0.6551(2) 0.19717(17)
N7 N 0.5057(4) 0.4495(3) 0.0830(2)
C7 C 0.6257(5) 0.9201(5) 0.3772(3)
H11 H 0.6908 0.8801 0.3905
H12 H 0.6578 0.9784 0.3816
O8 O 0.3445(3) 0.5768(2) 0.13382(16)
C8 C 0.5300(4) 0.9600(3) 0.2594(3)
O9 O 0.1571(3) 0.5974(3) 0.1085(2)
C9 C 0.5474(5) 1.0561(3) 0.2737(3)
H13 H 0.5090 1.0721 0.3091
H14 H 0.5142 1.0885 0.2341
H15 H 0.6299 1.0685 0.2869
O10 O 0.4027(3) 0.68887(19) 0.33803(15)
C10 C 0.4729(4) 0.9307(3) 0.1974(2)
H16 H 0.5172 0.9533 0.1659
H17 H 0.3977 0.9604 0.1877
O11 O 0.4762(3) 0.78274(19) 0.22000(15)
C11 C 0.4483(4) 0.8437(3) 0.1788(2)
O12 O 0.3986(3) 0.50383(18) 0.28581(14)
C12 C 0.3833(5) 0.8219(4) 0.1102(2)
H18 H 0.4383 0.8084 0.0826
H19 H 0.3360 0.8705 0.0915
H20 H 0.3335 0.7727 0.1120
O13 O 0.5808(3) 0.49557(19) 0.21081(16)
C13 C 0.2855(5) 0.4032(3) 0.2101(2)
H21 H 0.2183 0.4407 0.1998
H22 H 0.2597 0.3442 0.2113
H23 H 0.3311 0.4092 0.1764
C14 C 0.3595(4) 0.4273(3) 0.2772(2)
C15 C 0.3790(4) 0.3649(3) 0.3269(2)
H24 H 0.3020 0.3429 0.3295
H25 H 0.4193 0.3178 0.3098
C16 C 0.4383(4) 0.3774(3) 0.3925(2)
C17 C 0.4545(6) 0.3041(4) 0.4412(3)
H26 H 0.5368 0.2967 0.4601
H27 H 0.4236 0.2519 0.4185
H28 H 0.4136 0.3166 0.4763
C18 C 0.5424(4) 0.4773(4) 0.4815(2)
H29 H 0.6076 0.5157 0.4795
H30 H 0.5739 0.4257 0.5061
C19 C 0.6846(5) 0.3932(4) 0.2892(3)
H31 H 0.7598 0.4215 0.2985
H32 H 0.6957 0.3315 0.2910
H33 H 0.6406 0.4104 0.3218
C20 C 0.6189(4) 0.4184(3) 0.2210(3)
C21 C 0.6038(5) 0.3566(3) 0.1696(3)
H34 H 0.6816 0.3342 0.1693
H35 H 0.5603 0.3091 0.1839
C22 C 0.5507(5) 0.3728(3) 0.1030(3)
C23 C 0.5429(6) 0.3010(4) 0.0522(4)
H36 H 0.4618 0.2887 0.0333
H37 H 0.5803 0.2499 0.0737
H38 H 0.5816 0.3186 0.0173
C24 C 0.4554(4) 0.4769(4) 0.0160(3)
H39 H 0.3899 0.5156 0.0167
H40 H 0.4252 0.4268 -0.0108
H47 H 0.471(4) 0.497(2) 0.3778(17)
H48 H 0.508(4) 0.494(2) 0.1188(14)
H49 H 0.497(4) 0.782(2) 0.385(2)
H50 H 0.523(5) 0.855(4) 0.286(4)
C18B C 0.4576(4) 0.5227(4) 0.5185(2)
N6B N 0.5169(4) 0.5466(3) 0.58600(18)
C16B C 0.5617(4) 0.6226(3) 0.6075(2)
C15B C 0.6210(4) 0.6351(3) 0.6731(2)
C14B C 0.6405(4) 0.5727(3) 0.7228(2)
O12B O 0.6014(3) 0.49617(18) 0.71419(14)
C13B C 0.7145(5) 0.5968(3) 0.7899(2)
H21B H 0.7817 0.5593 0.8002
H22B H 0.7403 0.6558 0.7887
H23B H 0.6689 0.5908 0.8236
H24B H 0.6980 0.6571 0.6705
H25B H 0.5807 0.6822 0.6902
C17B C 0.5455(6) 0.6959(4) 0.5588(3)
H26B H 0.4632 0.7033 0.5399
H27B H 0.5764 0.7481 0.5815
H28B H 0.5864 0.6834 0.5237
H47B H 0.529(4) 0.503(2) 0.6222(17)
H29B H 0.3924 0.4843 0.5205
H30B H 0.4261 0.5743 0.4939
C24B C 0.5446(4) 0.5231(4) -0.0160(3)
N7B N 0.4943(4) 0.5505(3) -0.0830(2)
C22B C 0.4493(5) 0.6272(3) -0.1030(3)
C21B C 0.3962(5) 0.6434(3) -0.1696(3)
C20B C 0.3811(4) 0.5816(3) -0.2210(3)
O13B O 0.4192(3) 0.50443(19) -0.21081(16)
C19B C 0.3154(5) 0.6068(4) -0.2892(3)
H31B H 0.2402 0.5785 -0.2985
H32B H 0.3043 0.6685 -0.2910
H33B H 0.3594 0.5896 -0.3218
H34B H 0.3184 0.6658 -0.1693
H35B H 0.4397 0.6909 -0.1839
C23B C 0.4571(6) 0.6990(4) -0.0522(4)
H36B H 0.5382 0.7113 -0.0333
H37B H 0.4197 0.7501 -0.0737
H38B H 0.4184 0.6814 -0.0173
H48B H 0.492(4) 0.506(2) -0.1188(14)
H39B H 0.6101 0.4844 -0.0167
H40B H 0.5748 0.5732 0.0108
Pr1B Pr 0.50799(2) 0.372016(14) 0.756182(10)
O1B O 0.4476(3) 0.3514(2) 0.87174(16)
N1B N 0.3405(5) 0.3363(3) 0.8482(2)
O2B O 0.3062(3) 0.3314(2) 0.78565(18)
O3B O 0.2710(5) 0.3265(4) 0.8846(2)
N2B N 0.3396(3) 0.3425(3) 0.6219(2)
O4B O 0.3753(3) 0.4173(2) 0.64253(16)
O5B O 0.3582(3) 0.28252(19) 0.66332(15)
O6B O 0.2907(4) 0.3305(3) 0.56353(18)
N3B N 0.7466(4) 0.3902(2) 0.85485(19)
O7B O 0.7354(3) 0.3449(2) 0.80283(17)
O8B O 0.6555(3) 0.4232(2) 0.86618(16)
O9B O 0.8429(3) 0.4026(3) 0.8915(2)
C1B C 0.7765(5) 0.3771(4) 0.6493(3)
H1B H 0.8135 0.3718 0.6959
H2B H 0.8338 0.3679 0.6224
H3B H 0.7433 0.4340 0.6409
C2B C 0.6802(4) 0.3101(3) 0.6317(2)
C3B C 0.6892(4) 0.2487(3) 0.5820(2)
H4B H 0.7675 0.2242 0.5950
H5B H 0.6880 0.2816 0.5414
N4B N 0.5228(4) 0.1678(3) 0.58873(19)
C4B C 0.6156(4) 0.1803(3) 0.5635(2)
N5B N 0.4274(4) 0.0951(3) 0.6925(2)
C5B C 0.6395(6) 0.1146(4) 0.5138(3)
H6B H 0.5728 0.1110 0.4770
H7B H 0.7076 0.1318 0.4975
H8B H 0.6533 0.0590 0.5352
C6B C 0.4517(6) 0.0892(4) 0.5775(3)
H9B H 0.5035 0.0393 0.5820
H10B H 0.4055 0.0898 0.5320
C7B C 0.3743(5) 0.0799(5) 0.6228(3)
H11B H 0.3092 0.1199 0.6095
H12B H 0.3422 0.0216 0.6184
C8B C 0.4700(4) 0.0400(3) 0.7406(3)
C9B C 0.4526(5) -0.0561(3) 0.7263(3)
H13B H 0.4910 -0.0721 0.6909
H14B H 0.4858 -0.0885 0.7659
H15B H 0.3701 -0.0685 0.7131
O10B O 0.5973(3) 0.31113(19) 0.66197(15)
C10B C 0.5271(4) 0.0693(3) 0.8026(2)
H16B H 0.4828 0.0467 0.8341
H17B H 0.6023 0.0396 0.8123
O11B O 0.5238(3) 0.21726(19) 0.78000(15)
C11B C 0.5517(4) 0.1563(3) 0.8212(2)
C12B C 0.6167(5) 0.1781(4) 0.8898(2)
H18B H 0.5617 0.1916 0.9174
H19B H 0.6640 0.1295 0.9085
H20B H 0.6665 0.2273 0.8880
H49B H 0.503(4) 0.218(2) 0.615(2)
H50B H 0.477(5) 0.145(4) 0.714(4)
Pr1B_2 Pr 0.50799(2) 0.372016(14) -0.243818(10)
O13B_2 O 0.4192(3) 0.50443(19) 0.78919(16)
C25 C 0.8973(15) 0.4628(14) 0.4815(12)
H41 H 0.8176 0.4743 0.4863
H42 H 0.8954 0.4132 0.4521
C26 C 0.9390(16) 0.5316(15) 0.4545(7)
H43 H 0.9127 0.5250 0.4064
H44 H 0.8968 0.5811 0.4669
C27 C 0.9594(19) 0.4462(10) 0.5366(8)
H45 H 0.9575 0.3840 0.5436
H46 H 0.9247 0.4734 0.5706
C27B C 1.0406(19) 0.5538(10) 0.4634(8)
C25B C 1.1027(15) 0.5372(14) 0.5185(12)
H41B H 1.1824 0.5257 0.5137
H42B H 1.1046 0.5868 0.5479
C26B C 1.0610(16) 0.4684(15) 0.5455(7)
H43B H 1.0873 0.4750 0.5936
H44B H 1.1032 0.4189 0.5331
H45B H 1.0425 0.6160 0.4564
H46B H 1.0753 0.5266 0.4294
loop_
_geom_bond_atom_site_label_1
_geom_bond_atom_site_label_2
_geom_bond_site_symmetry_1
_geom_bond_site_symmetry_2
Pr1 O1 1_555 1_555
O1 N1 1_555 1_555
N1 O2 1_555 1_555
C1 H1 1_555 1_555
H2 C1 1_555 1_555
H3 C1 1_555 1_555
O2 Pr1 1_555 1_555
N2 O4 1_555 1_555
C2 C1 1_555 1_555
O3 N1 1_555 1_555
N3 O7 1_555 1_555
C3 C2 1_555 1_555
H4 C3 1_555 1_555
H5 C3 1_555 1_555
O4 Pr1 1_555 1_555
N4 C4 1_555 1_555
C4 C3 1_555 1_555
O5 Pr1 1_555 1_555
N5 C7 1_555 1_555
C5 C4 1_555 1_555
H6 C5 1_555 1_555
H7 C5 1_555 1_555
H8 C5 1_555 1_555
O6 N2 1_555 1_555
N6 C16 1_555 1_555
C6 N4 1_555 1_555
H9 C6 1_555 1_555
H10 C6 1_555 1_555
O7 Pr1 1_555 1_555
N7 C22 1_555 1_555
C7 C6 1_555 1_555
H11 C7 1_555 1_555
H12 C7 1_555 1_555
O8 Pr1 1_555 1_555
C8 N5 1_555 1_555
O9 N3 1_555 1_555
C9 C8 1_555 1_555
H13 C9 1_555 1_555
H14 C9 1_555 1_555
H15 C9 1_555 1_555
O10 Pr1 1_555 1_555
C10 C8 1_555 1_555
H16 C10 1_555 1_555
H17 C10 1_555 1_555
O11 Pr1 1_555 1_555
C11 C10 1_555 1_555
O12 Pr1 1_555 1_555
C12 C11 1_555 1_555
H18 C12 1_555 1_555
H19 C12 1_555 1_555
H20 C12 1_555 1_555
O13 Pr1 1_555 1_555
C13 H21 1_555 1_555
H22 C13 1_555 1_555
H23 C13 1_555 1_555
C14 O12 1_555 1_555
C15 C14 1_555 1_555
H24 C15 1_555 1_555
H25 C15 1_555 1_555
C16 C15 1_555 1_555
C17 C16 1_555 1_555
H26 C17 1_555 1_555
H27 C17 1_555 1_555
H28 C17 1_555 1_555
C18 N6 1_555 1_555
H29 C18 1_555 1_555
H30 C18 1_555 1_555
C19 H31 1_555 1_555
H32 C19 1_555 1_555
H33 C19 1_555 1_555
C20 O13 1_555 1_555
C21 C20 1_555 1_555
H34 C21 1_555 1_555
H35 C21 1_555 1_555
C22 C21 1_555 1_555
C23 C22 1_555 1_555
H36 C23 1_555 1_555
H37 C23 1_555 1_555
H38 C23 1_555 1_555
C24 N7 1_555 1_555
H39 C24 1_555 1_555
H40 C24 1_555 1_555
C25 H41 1_555 1_555
H42 C25 1_555 1_555
C26 C25 1_555 1_555
H43 C26 1_555 1_555
H44 C26 1_555 1_555
C27 C25 1_555 1_555
H45 C27 1_555 1_555
H46 C27 1_555 1_555
H47 N6 1_555 1_555
H48 N7 1_555 1_555
H49 N4 1_555 1_555
H50 N5 1_555 1_555
C18B C18 1_555 1_555
N6B C18B 1_555 1_555
C16B N6B 1_555 1_555
C15B C16B 1_555 1_555
C14B C15B 1_555 1_555
O12B C14B 1_555 1_555
C13B C14B 1_555 1_555
H21B C13B 1_555 1_555
H22B C13B 1_555 1_555
H23B C13B 1_555 1_555
H24B C15B 1_555 1_555
H25B C15B 1_555 1_555
C17B C16B 1_555 1_555
H26B C17B 1_555 1_555
H27B C17B 1_555 1_555
H28B C17B 1_555 1_555
H47B N6B 1_555 1_555
H29B C18B 1_555 1_555
H30B C18B 1_555 1_555
C24B C24 1_555 1_555
N7B C24B 1_555 1_555
C22B N7B 1_555 1_555
C21B C22B 1_555 1_555
C20B C21B 1_555 1_555
O13B C20B 1_555 1_555
C19B C20B 1_555 1_555
H31B C19B 1_555 1_555
H32B C19B 1_555 1_555
H33B C19B 1_555 1_555
H34B C21B 1_555 1_555
H35B C21B 1_555 1_555
C23B C22B 1_555 1_555
H36B C23B 1_555 1_555
H37B C23B 1_555 1_555
H38B C23B 1_555 1_555
H48B N7B 1_555 1_555
H39B C24B 1_555 1_555
H40B C24B 1_555 1_555
C27B C26 1_555 1_555
C25B C27B 1_555 1_555
H41B C25B 1_555 1_555
H42B C25B 1_555 1_555
C26B C27 1_555 1_555
H43B C26B 1_555 1_555
H44B C26B 1_555 1_555
H45B C27B 1_555 1_555
H46B C27B 1_555 1_555
Pr1B O12B 1_555 1_555
O1B Pr1B 1_555 1_555
N1B O1B 1_555 1_555
O2B Pr1B 1_555 1_555
O3B N1B 1_555 1_555
N2B O4B 1_555 1_555
O4B Pr1B 1_555 1_555
O5B Pr1B 1_555 1_555
O6B N2B 1_555 1_555
N3B O7B 1_555 1_555
O7B Pr1B 1_555 1_555
O8B Pr1B 1_555 1_555
O9B N3B 1_555 1_555
C1B H1B 1_555 1_555
H2B C1B 1_555 1_555
H3B C1B 1_555 1_555
C2B C1B 1_555 1_555
C3B C2B 1_555 1_555
H4B C3B 1_555 1_555
H5B C3B 1_555 1_555
N4B C4B 1_555 1_555
C4B C3B 1_555 1_555
N5B C7B 1_555 1_555
C5B C4B 1_555 1_555
H6B C5B 1_555 1_555
H7B C5B 1_555 1_555
H8B C5B 1_555 1_555
C6B N4B 1_555 1_555
H9B C6B 1_555 1_555
H10B C6B 1_555 1_555
C7B C6B 1_555 1_555
H11B C7B 1_555 1_555
H12B C7B 1_555 1_555
C8B N5B 1_555 1_555
C9B C8B 1_555 1_555
H13B C9B 1_555 1_555
H14B C9B 1_555 1_555
H15B C9B 1_555 1_555
O10B Pr1B 1_555 1_555
C10B C8B 1_555 1_555
H16B C10B 1_555 1_555
H17B C10B 1_555 1_555
O11B Pr1B 1_555 1_555
C11B C10B 1_555 1_555
C12B C11B 1_555 1_555
H18B C12B 1_555 1_555
H19B C12B 1_555 1_555
H20B C12B 1_555 1_555
H49B N4B 1_555 1_555
H50B N5B 1_555 1_555
Pr1B_2 O13B 1_555 1_555
O13B_2 Pr1B 1_555 1_555
N2 O5 1_555 1_555
C2 O10 1_555 1_555
N3 O8 1_555 1_555
O11 C11 1_555 1_555
C13 C14 1_555 1_555
C19 C20 1_555 1_555
C25B C26B 1_555 1_555
N1B O2B 1_555 1_555
N2B O5B 1_555 1_555
N3B O8B 1_555 1_555
C2B O10B 1_555 1_555
O11B C11B 1_555 1_555

#END
