
#######################################################################
#
#                 Cambridge Crystallographic Data Centre
#                                CCDC 
#
#######################################################################
#
# If this CIF has been generated from an entry in the Cambridge 
# Structural Database, then it will include bibliographic, chemical, 
# crystal, experimental, refinement or atomic coordinate data resulting 
# from the CCDC's data processing and validation procedures.
#
#######################################################################

data_GUXCUY
_symmetry_cell_setting           monoclinic
_symmetry_space_group_name_H-M   'P 21/n'
_symmetry_Int_Tables_number      14
_space_group_name_Hall           '-P 2yn'
loop_
_symmetry_equiv_pos_site_id
_symmetry_equiv_pos_as_xyz
1 x,y,z
2 1/2-x,1/2+y,1/2-z
3 -x,-y,-z
4 1/2+x,1/2-y,1/2+z
_cell_length_a                   8.8508(3)
_cell_length_b                   18.5170(8)
_cell_length_c                   10.1176(4)
_cell_angle_alpha                90
_cell_angle_beta                 97.770(3)
_cell_angle_gamma                90
_cell_volume                     1642.95
loop_
_atom_site_label
_atom_site_type_symbol
_atom_site_fract_x
_atom_site_fract_y
_atom_site_fract_z
Ag1 Ag 0.61503(4) 0.02843(2) 0.86229(4)
Ag2 Ag 0.14051(4) 0.06191(2) 0.96231(3)
S1 S 0.40232(11) 0.09599(7) 0.92187(9)
S2 S 0.88955(11) 0.03828(6) 0.83356(10)
N1 N 0.1984(4) 0.16997(18) 1.0957(3)
C1 C 0.0992(5) 0.2022(3) 1.1606(4)
H1 H -0.0033 0.1912 1.1363
C2 C 0.1366(5) 0.2523(3) 1.2646(4)
H2 H 0.0615 0.2747 1.3060
C3 C 0.2867(6) 0.2665(2) 1.3018(4)
H3 H 0.3154 0.2993 1.3702
C4 C 0.5560(5) 0.2435(3) 1.2786(4)
H4 H 0.5887 0.2754 1.3476
C5 C 0.6594(5) 0.2079(3) 1.2168(4)
H5 H 0.7629 0.2144 1.2454
C6 C 0.6126(4) 0.1607(3) 1.1089(4)
H6 H 0.6859 0.1367 1.0678
C7 C 0.4611(4) 0.1498(2) 1.0638(3)
C8 C 0.3499(4) 0.1842(2) 1.1321(3)
C9 C 0.3984(5) 0.2327(2) 1.2393(4)
N2 N 0.6291(4) -0.04129(18) 0.6711(3)
C10 C 0.5056(5) -0.0682(2) 0.5998(4)
H7 H 0.4114 -0.0579 0.6263
C11 C 0.5090(5) -0.1116(2) 0.4865(4)
H8 H 0.4191 -0.1286 0.4384
C12 C 0.6451(5) -0.1279(3) 0.4488(4)
H9 H 0.6494 -0.1567 0.3741
C13 C 0.9273(5) -0.1184(3) 0.4899(4)
H10 H 0.9365 -0.1477 0.4168
C14 C 1.0539(5) -0.0922(3) 0.5648(5)
H11 H 1.1497 -0.1052 0.5446
C15 C 1.0421(5) -0.0455(3) 0.6730(4)
H12 H 1.1304 -0.0278 0.7226
C16 C 0.9030(4) -0.0256(2) 0.7065(3)
C17 C 0.7676(4) -0.0560(2) 0.6330(3)
C18 C 0.7825(5) -0.1015(2) 0.5224(4)
Ag1B Ag 0.38497(4) -0.02843(2) 1.13771(4)
Ag2B Ag 0.85949(4) -0.06191(2) 1.03769(3)
Ag2_2 Ag 1.14051(4) 0.06191(2) 0.96231(3)
Ag2B_2 Ag -0.14051(4) -0.06191(2) 1.03769(3)
S1B S 0.59768(11) -0.09599(7) 1.07813(9)
S2B S 0.11045(11) -0.03828(6) 1.16644(10)
S2_2 S -0.11045(11) 0.03828(6) 0.83356(10)
S2B_2 S 1.11045(11) -0.03828(6) 1.16644(10)
N1B N 0.8016(4) -0.16997(18) 0.9043(3)
C1B C 0.9008(5) -0.2022(3) 0.8394(4)
H1B H 1.0033 -0.1912 0.8637
C2B C 0.8634(5) -0.2523(3) 0.7354(4)
H2B H 0.9385 -0.2747 0.6940
C3B C 0.7133(6) -0.2665(2) 0.6982(4)
H3B H 0.6846 -0.2993 0.6298
C4B C 0.4440(5) -0.2435(3) 0.7214(4)
H4B H 0.4113 -0.2754 0.6524
C5B C 0.3406(5) -0.2079(3) 0.7832(4)
H5B H 0.2371 -0.2144 0.7546
C6B C 0.3874(4) -0.1607(3) 0.8911(4)
H6B H 0.3141 -0.1367 0.9322
C7B C 0.5389(4) -0.1498(2) 0.9362(3)
C8B C 0.6501(4) -0.1842(2) 0.8679(3)
C9B C 0.6016(5) -0.2327(2) 0.7607(4)
N2B N 0.3709(4) 0.04129(18) 1.3289(3)
C10B C 0.4944(5) 0.0682(2) 1.4002(4)
H7B H 0.5886 0.0579 1.3737
C11B C 0.4910(5) 0.1116(2) 1.5135(4)
H8B H 0.5809 0.1286 1.5616
C12B C 0.3549(5) 0.1279(3) 1.5512(4)
H9B H 0.3506 0.1567 1.6259
C13B C 0.0727(5) 0.1184(3) 1.5101(4)
H10B H 0.0635 0.1477 1.5832
C14B C -0.0539(5) 0.0922(3) 1.4352(5)
H11B H -0.1497 0.1052 1.4554
C15B C -0.0421(5) 0.0455(3) 1.3270(4)
H12B H -0.1304 0.0278 1.2774
C16B C 0.0970(4) 0.0256(2) 1.2935(3)
C17B C 0.2324(4) 0.0560(2) 1.3670(3)
C18B C 0.2175(5) 0.1015(2) 1.4776(4)
loop_
_geom_bond_atom_site_label_1
_geom_bond_atom_site_label_2
_geom_bond_site_symmetry_1
_geom_bond_site_symmetry_2
Ag1 S1 1_555 1_555
Ag2 S1 1_555 1_555
S1 C7 1_555 1_555
S2 Ag1 1_555 1_555
N1 Ag2 1_555 1_555
C1 N1 1_555 1_555
H1 C1 1_555 1_555
C2 C1 1_555 1_555
H2 C2 1_555 1_555
C3 C2 1_555 1_555
H3 C3 1_555 1_555
C4 H4 1_555 1_555
C5 C4 1_555 1_555
H5 C5 1_555 1_555
C6 C5 1_555 1_555
H6 C6 1_555 1_555
C7 C6 1_555 1_555
C8 N1 1_555 1_555
C9 C3 1_555 1_555
N2 Ag1 1_555 1_555
C10 N2 1_555 1_555
H7 C10 1_555 1_555
C11 C10 1_555 1_555
H8 C11 1_555 1_555
C12 C11 1_555 1_555
H9 C12 1_555 1_555
C13 H10 1_555 1_555
C14 C13 1_555 1_555
H11 C14 1_555 1_555
C15 C14 1_555 1_555
H12 C15 1_555 1_555
C16 S2 1_555 1_555
C17 N2 1_555 1_555
C18 C12 1_555 1_555
Ag1B Ag2 1_555 1_555
Ag2B Ag1 1_555 1_555
Ag2_2 S2 1_555 1_555
Ag2B_2 S2B 1_555 1_555
S1B Ag1B 1_555 1_555
S2B Ag2 1_555 1_555
S2_2 Ag2 1_555 1_555
S2B_2 Ag2B 1_555 1_555
N1B Ag2B 1_555 1_555
C1B N1B 1_555 1_555
H1B C1B 1_555 1_555
C2B C1B 1_555 1_555
H2B C2B 1_555 1_555
C3B C2B 1_555 1_555
H3B C3B 1_555 1_555
C4B H4B 1_555 1_555
C5B C4B 1_555 1_555
H5B C5B 1_555 1_555
C6B C5B 1_555 1_555
H6B C6B 1_555 1_555
C7B S1B 1_555 1_555
C8B N1B 1_555 1_555
C9B C3B 1_555 1_555
N2B Ag1B 1_555 1_555
C10B N2B 1_555 1_555
H7B C10B 1_555 1_555
C11B C10B 1_555 1_555
H8B C11B 1_555 1_555
C12B C11B 1_555 1_555
H9B C12B 1_555 1_555
C13B H10B 1_555 1_555
C14B C13B 1_555 1_555
H11B C14B 1_555 1_555
C15B C14B 1_555 1_555
H12B C15B 1_555 1_555
C16B S2B 1_555 1_555
C17B N2B 1_555 1_555
C18B C12B 1_555 1_555
S2 Ag2B 1_555 1_555
C4 C9 1_555 1_555
C7 C8 1_555 1_555
C8 C9 1_555 1_555
C13 C18 1_555 1_555
C15 C16 1_555 1_555
C16 C17 1_555 1_555
C17 C18 1_555 1_555
Ag1B S2B 1_555 1_555
Ag2B S1B 1_555 1_555
Ag2_2 S2B_2 1_555 1_555
Ag2B_2 S2_2 1_555 1_555
C4B C9B 1_555 1_555
C6B C7B 1_555 1_555
C7B C8B 1_555 1_555
C8B C9B 1_555 1_555
C13B C18B 1_555 1_555
C15B C16B 1_555 1_555
C16B C17B 1_555 1_555
C17B C18B 1_555 1_555

#END
