
#######################################################################
#
#                 Cambridge Crystallographic Data Centre
#                                CCDC 
#
#######################################################################
#
# If this CIF has been generated from an entry in the Cambridge 
# Structural Database, then it will include bibliographic, chemical, 
# crystal, experimental, refinement or atomic coordinate data resulting 
# from the CCDC's data processing and validation procedures.
#
#######################################################################

data_GUXDAE
_symmetry_cell_setting           monoclinic
_symmetry_space_group_name_H-M   'P 21/n'
_symmetry_Int_Tables_number      14
_space_group_name_Hall           '-P 2yn'
loop_
_symmetry_equiv_pos_site_id
_symmetry_equiv_pos_as_xyz
1 x,y,z
2 1/2+x,1/2-y,1/2+z
3 -x,-y,-z
4 1/2-x,1/2+y,1/2-z
_cell_length_a                   11.6730(11)
_cell_length_b                   15.3454(14)
_cell_length_c                   20.3911(19)
_cell_angle_alpha                90
_cell_angle_beta                 102.130(2)
_cell_angle_gamma                90
_cell_volume                     3571.04
loop_
_atom_site_label
_atom_site_type_symbol
_atom_site_fract_x
_atom_site_fract_y
_atom_site_fract_z
Sm1 Sm 0.99231(2) 0.627397(16) 0.244322(12)
O1 O 0.9005(3) 0.5051(2) 0.28524(16)
O2 O 1.1399(3) 0.7179(2) 0.33624(19)
O3 O 0.9042(3) 0.6878(2) 0.33701(18)
O4 O 1.0790(4) 0.4969(2) 0.21177(19)
O5 O 0.9762(3) 0.7804(2) 0.22072(18)
O6 O 0.8476(4) 0.5765(3) 0.1355(2)
C1 C 0.8795(5) 0.3650(3) 0.3268(3)
H1 H 0.8027 0.3431 0.3294
H2 H 0.9195 0.3174 0.3097
C2 C 0.9385(5) 0.3772(4) 0.3925(3)
C3 C 0.8600(5) 0.4280(3) 0.2762(2)
N1 N 0.7552(4) 0.6103(3) 0.1465(2)
N2 N 0.9756(5) 0.8335(3) 0.4112(3)
N3 N 1.0736(4) 0.9045(3) 0.3079(2)
O7 O 1.0527(4) 0.6490(3) 0.1303(2)
N4 N 0.9828(5) 0.4537(3) 0.4139(2)
N5 N 1.1580(4) 0.6568(3) 0.3774(2)
O8 O 1.2080(4) 0.6679(3) 0.4355(2)
O9 O 1.1914(4) 0.6667(3) 0.2162(2)
O10 O 0.7688(4) 0.6548(3) 0.1985(2)
C4 C 1.0509(5) 0.3720(4) 0.1039(3)
C5 C 1.0409(5) 0.4764(4) 0.4820(2)
H3 H 1.1081 0.5131 0.4808
H4 H 1.0690 0.4237 0.5065
C6 C 0.9480(5) 0.8409(4) 0.1795(3)
C7 C 0.8835(5) 0.8188(3) 0.4363(2)
O11 O 0.6598(4) 0.5974(3) 0.1099(2)
C8 C 0.8113(5) 0.7487(4) 0.4179(3)
H5 H 0.7325 0.7721 0.4056
H6 H 0.8144 0.7150 0.4585
C9 C 0.9722(5) 0.9293(3) 0.1970(3)
H7 H 1.0163 0.9516 0.1653
H8 H 0.8973 0.9591 0.1874
N6 N 1.1602(5) 0.6633(4) 0.1538(3)
N7 N 1.0058(5) 0.4483(4) 0.0833(3)
C10 C 1.1051(6) 0.3580(4) 0.1715(4)
H9 H 1.0637 0.3097 0.1866
H10 H 1.1834 0.3370 0.1712
C11 C 0.7868(6) 0.4037(4) 0.2089(3)
H11 H 0.7151 0.4363 0.2009
H12 H 0.7695 0.3425 0.2082
H13 H 0.8292 0.4168 0.1745
C12 C 1.0306(5) 0.9586(4) 0.2602(3)
C13 C 0.9540(7) 0.3026(4) 0.4400(3)
H14 H 1.0360 0.2936 0.4578
H15 H 0.9209 0.2511 0.4168
H16 H 0.9152 0.3150 0.4760
C14 C 1.1183(5) 0.4199(4) 0.2218(3)
C15 C 0.9543(5) 0.4767(4) 0.0153(3)
H17 H 0.8893 0.5158 0.0162
H18 H 0.9244 0.4266 -0.0120
C16 C 0.7267(6) 0.6204(5) 0.3499(4)
H19 H 0.7422 0.5844 0.3142
H20 H 0.6523 0.6487 0.3356
H21 H 0.7253 0.5850 0.3885
C17 C 1.0464(6) 0.9126(5) 0.4222(3)
H22 H 0.9949 0.9628 0.4165
H23 H 1.0910 0.9129 0.4681
O12 O 1.2297(5) 0.6725(4) 0.1174(3)
C18 C 0.8558(7) 0.8831(4) 0.4866(3)
H24 H 0.9245 0.8925 0.5212
H25 H 0.7940 0.8605 0.5062
H26 H 0.8314 0.9373 0.4646
C19 C 1.0430(7) 0.3004(5) 0.0540(4)
H27 H 0.9624 0.2848 0.0379
H28 H 1.0857 0.2506 0.0749
H29 H 1.0760 0.3194 0.0171
C20 C 1.1845(6) 0.3950(4) 0.2904(3)
H30 H 1.2650 0.4121 0.2956
H31 H 1.1801 0.3331 0.2960
H32 H 1.1508 0.4239 0.3236
C21 C 1.1261(6) 0.9205(5) 0.3775(3)
H33 H 1.1590 0.9788 0.3816
H34 H 1.1901 0.8798 0.3914
C22 C 1.0482(6) 1.0554(4) 0.2738(4)
H35 H 1.0093 1.0724 0.3089
H36 H 1.0162 1.0875 0.2338
H37 H 1.1305 1.0676 0.2874
O13 O 1.1223(3) 0.5821(2) 0.35516(19)
C26 C 0.8212(5) 0.6880(3) 0.3676(3)
C27 C 0.8825(6) 0.8195(4) 0.1098(3)
H44 H 0.9366 0.7995 0.0836
H45 H 0.8431 0.8708 0.0894
H46 H 0.8259 0.7748 0.1118
H47 H 0.988(4) 0.798(3) 0.390(2)
H48 H 1.012(4) 0.486(3) 0.117(2)
H49 H 0.972(6) 0.487(4) 0.387(3)
H50 H 1.060(4) 0.8423(9) 0.2961(13)
C5B C 0.9591(5) 0.5236(4) 0.5180(2)
N4B N 1.0172(5) 0.5463(3) 0.5861(2)
C2B C 1.0615(5) 0.6228(4) 0.6075(3)
C1B C 1.1205(5) 0.6350(3) 0.6732(3)
H1B H 1.1973 0.6569 0.6706
H2B H 1.0805 0.6826 0.6903
C3B C 1.1400(5) 0.5720(3) 0.7238(2)
O1B O 1.0995(3) 0.4949(2) 0.71476(16)
C11B C 1.2132(6) 0.5963(4) 0.7911(3)
H11B H 1.2849 0.5637 0.7991
H12B H 1.2305 0.6575 0.7918
H13B H 1.1708 0.5832 0.8255
C13B C 1.0460(7) 0.6974(4) 0.5600(3)
H14B H 0.9640 0.7064 0.5422
H15B H 1.0791 0.7489 0.5832
H16B H 1.0848 0.6850 0.5240
H49B H 1.028(6) 0.513(4) 0.613(3)
H3B H 0.8919 0.4869 0.5192
H4B H 0.9310 0.5763 0.4935
C15B C 1.0457(5) 0.5233(4) -0.0153(3)
N7B N 0.9942(5) 0.5517(4) -0.0833(3)
C4B C 0.9491(5) 0.6280(4) -0.1039(3)
C10B C 0.8949(6) 0.6420(4) -0.1715(4)
H9B H 0.9363 0.6903 -0.1866
H10B H 0.8166 0.6630 -0.1712
C14B C 0.8817(5) 0.5801(4) -0.2218(3)
O4B O 0.9210(4) 0.5031(2) -0.21177(19)
C20B C 0.8155(6) 0.6050(4) -0.2904(3)
H30B H 0.7350 0.5879 -0.2956
H31B H 0.8199 0.6669 -0.2960
H32B H 0.8492 0.5761 -0.3236
C19B C 0.9570(7) 0.6996(5) -0.0540(4)
H27B H 1.0376 0.7152 -0.0379
H28B H 0.9143 0.7494 -0.0749
H29B H 0.9240 0.6806 -0.0171
H48B H 0.988(4) 0.514(3) -0.117(2)
H17B H 1.1107 0.4842 -0.0162
H18B H 1.0756 0.5734 0.0120
Sm1B Sm 1.00769(2) 0.372603(16) 0.755678(12)
O2B O 0.8601(3) 0.2821(2) 0.66376(19)
N5B N 0.8420(4) 0.3432(3) 0.6226(2)
O8B O 0.7920(4) 0.3321(3) 0.5645(2)
O13B O 0.8777(3) 0.4179(2) 0.64484(19)
O3B O 1.0958(3) 0.3122(2) 0.66299(18)
O5B O 1.0238(3) 0.2196(2) 0.77928(18)
N2B N 1.0244(5) 0.1665(3) 0.5888(3)
N3B N 0.9264(4) 0.0955(3) 0.6921(2)
C6B C 1.0520(5) 0.1591(4) 0.8205(3)
C7B C 1.1165(5) 0.1812(3) 0.5637(2)
C8B C 1.1887(5) 0.2513(4) 0.5821(3)
H5B H 1.2675 0.2279 0.5944
H6B H 1.1856 0.2850 0.5415
C9B C 1.0278(5) 0.0707(3) 0.8030(3)
H7B H 0.9837 0.0484 0.8347
H8B H 1.1027 0.0409 0.8126
C12B C 0.9694(5) 0.0414(4) 0.7398(3)
C16B C 1.2733(6) 0.3796(5) 0.6501(4)
H19B H 1.2578 0.4156 0.6858
H20B H 1.3477 0.3513 0.6644
H21B H 1.2747 0.4150 0.6115
C17B C 0.9536(6) 0.0874(5) 0.5778(3)
H22B H 1.0051 0.0372 0.5835
H23B H 0.9090 0.0871 0.5319
C18B C 1.1442(7) 0.1169(4) 0.5134(3)
H24B H 1.0755 0.1075 0.4788
H25B H 1.2060 0.1395 0.4938
H26B H 1.1686 0.0627 0.5354
C21B C 0.8739(6) 0.0795(5) 0.6225(3)
H33B H 0.8410 0.0212 0.6184
H34B H 0.8099 0.1202 0.6086
C22B C 0.9518(6) -0.0554(4) 0.7262(4)
H35B H 0.9907 -0.0724 0.6911
H36B H 0.9838 -0.0875 0.7662
H37B H 0.8695 -0.0676 0.7126
C26B C 1.1788(5) 0.3120(3) 0.6324(3)
C27B C 1.1175(6) 0.1805(4) 0.8902(3)
H44B H 1.0634 0.2005 0.9164
H45B H 1.1569 0.1292 0.9106
H46B H 1.1741 0.2252 0.8882
H47B H 1.012(4) 0.202(3) 0.610(2)
H50B H 0.940(4) 0.1577(9) 0.7039(13)
O6B O 1.1524(4) 0.4235(3) 0.8645(2)
N1B N 1.2448(4) 0.3897(3) 0.8535(2)
O10B O 1.2312(4) 0.3452(3) 0.8015(2)
O11B O 1.3402(4) 0.4026(3) 0.8901(2)
O7B O 0.9473(4) 0.3510(3) 0.8697(2)
O9B O 0.8086(4) 0.3333(3) 0.7838(2)
N6B N 0.8398(5) 0.3367(4) 0.8462(3)
O12B O 0.7703(5) 0.3275(4) 0.8826(3)
Sm1B_2 Sm 1.00769(2) 0.372603(16) -0.244322(12)
O4B_2 O 0.9210(4) 0.5031(2) 0.78823(19)
C23 C 1.466(3) 0.5466(18) 0.4587(9)
H38 H 1.4522 0.5538 0.4105
H39 H 1.4404 0.6001 0.4768
C24 C 1.389(2) 0.477(3) 0.4722(17)
H40 H 1.3111 0.4983 0.4734
H41 H 1.3839 0.4298 0.4403
C25 C 1.561(2) 0.5406(17) 0.478(2)
H42 H 1.5861 0.4996 0.4475
H43 H 1.5922 0.5967 0.4684
C25B C 1.439(2) 0.4594(17) 0.522(2)
C23B C 1.534(3) 0.4534(18) 0.5413(9)
H38B H 1.5478 0.4462 0.5895
H39B H 1.5596 0.3999 0.5232
C24B C 1.611(2) 0.523(3) 0.5278(17)
H40B H 1.6889 0.5017 0.5266
H41B H 1.6161 0.5702 0.5597
H42B H 1.4139 0.5004 0.5525
H43B H 1.4078 0.4033 0.5316
loop_
_geom_bond_atom_site_label_1
_geom_bond_atom_site_label_2
_geom_bond_site_symmetry_1
_geom_bond_site_symmetry_2
Sm1 O1 1_555 1_555
O1 C3 1_555 1_555
O2 Sm1 1_555 1_555
O3 Sm1 1_555 1_555
O4 Sm1 1_555 1_555
O5 Sm1 1_555 1_555
O6 Sm1 1_555 1_555
C1 H1 1_555 1_555
H2 C1 1_555 1_555
C2 C1 1_555 1_555
C3 C1 1_555 1_555
N1 O6 1_555 1_555
N2 C7 1_555 1_555
N3 C12 1_555 1_555
O7 Sm1 1_555 1_555
N4 C2 1_555 1_555
N5 O2 1_555 1_555
O8 N5 1_555 1_555
O9 Sm1 1_555 1_555
O10 Sm1 1_555 1_555
C4 N7 1_555 1_555
C5 N4 1_555 1_555
H3 C5 1_555 1_555
H4 C5 1_555 1_555
C6 O5 1_555 1_555
C7 C8 1_555 1_555
O11 N1 1_555 1_555
C8 H5 1_555 1_555
H6 C8 1_555 1_555
C9 C6 1_555 1_555
H7 C9 1_555 1_555
H8 C9 1_555 1_555
N6 O7 1_555 1_555
N7 C15 1_555 1_555
C10 C4 1_555 1_555
H9 C10 1_555 1_555
H10 C10 1_555 1_555
C11 C3 1_555 1_555
H11 C11 1_555 1_555
H12 C11 1_555 1_555
H13 C11 1_555 1_555
C12 C9 1_555 1_555
C13 C2 1_555 1_555
H14 C13 1_555 1_555
H15 C13 1_555 1_555
H16 C13 1_555 1_555
C14 O4 1_555 1_555
C15 H17 1_555 1_555
H18 C15 1_555 1_555
C16 H19 1_555 1_555
H20 C16 1_555 1_555
H21 C16 1_555 1_555
C17 N2 1_555 1_555
H22 C17 1_555 1_555
H23 C17 1_555 1_555
O12 N6 1_555 1_555
C18 C7 1_555 1_555
H24 C18 1_555 1_555
H25 C18 1_555 1_555
H26 C18 1_555 1_555
C19 C4 1_555 1_555
H27 C19 1_555 1_555
H28 C19 1_555 1_555
H29 C19 1_555 1_555
C20 C14 1_555 1_555
H30 C20 1_555 1_555
H31 C20 1_555 1_555
H32 C20 1_555 1_555
C21 N3 1_555 1_555
H33 C21 1_555 1_555
H34 C21 1_555 1_555
C22 C12 1_555 1_555
H35 C22 1_555 1_555
H36 C22 1_555 1_555
H37 C22 1_555 1_555
C23 H38 1_555 1_555
H39 C23 1_555 1_555
C24 C23 1_555 1_555
H40 C24 1_555 1_555
H41 C24 1_555 1_555
C25 C23 1_555 1_555
H42 C25 1_555 1_555
H43 C25 1_555 1_555
O13 Sm1 1_555 1_555
C26 O3 1_555 1_555
C27 C6 1_555 1_555
H44 C27 1_555 1_555
H45 C27 1_555 1_555
H46 C27 1_555 1_555
H47 N2 1_555 1_555
H48 N7 1_555 1_555
H49 N4 1_555 1_555
H50 N3 1_555 1_555
C5B C5 1_555 1_555
N4B C5B 1_555 1_555
C2B N4B 1_555 1_555
C1B C2B 1_555 1_555
H1B C1B 1_555 1_555
H2B C1B 1_555 1_555
C3B C1B 1_555 1_555
O1B C3B 1_555 1_555
C11B C3B 1_555 1_555
H11B C11B 1_555 1_555
H12B C11B 1_555 1_555
H13B C11B 1_555 1_555
C13B C2B 1_555 1_555
H14B C13B 1_555 1_555
H15B C13B 1_555 1_555
H16B C13B 1_555 1_555
H49B N4B 1_555 1_555
H3B C5B 1_555 1_555
H4B C5B 1_555 1_555
C15B C15 1_555 1_555
N7B C15B 1_555 1_555
C4B N7B 1_555 1_555
C10B C4B 1_555 1_555
H9B C10B 1_555 1_555
H10B C10B 1_555 1_555
C14B C10B 1_555 1_555
O4B C14B 1_555 1_555
C20B C14B 1_555 1_555
H30B C20B 1_555 1_555
H31B C20B 1_555 1_555
H32B C20B 1_555 1_555
C19B C4B 1_555 1_555
H27B C19B 1_555 1_555
H28B C19B 1_555 1_555
H29B C19B 1_555 1_555
H48B N7B 1_555 1_555
H17B C15B 1_555 1_555
H18B C15B 1_555 1_555
C25B C24 1_555 1_555
C23B C25B 1_555 1_555
H38B C23B 1_555 1_555
H39B C23B 1_555 1_555
C24B C25 1_555 1_555
H40B C24B 1_555 1_555
H41B C24B 1_555 1_555
H42B C25B 1_555 1_555
H43B C25B 1_555 1_555
Sm1B O1B 1_555 1_555
O2B Sm1B 1_555 1_555
N5B O2B 1_555 1_555
O8B N5B 1_555 1_555
O13B Sm1B 1_555 1_555
O3B Sm1B 1_555 1_555
O5B Sm1B 1_555 1_555
N2B C7B 1_555 1_555
N3B C12B 1_555 1_555
C6B O5B 1_555 1_555
C7B C8B 1_555 1_555
C8B H5B 1_555 1_555
H6B C8B 1_555 1_555
C9B C6B 1_555 1_555
H7B C9B 1_555 1_555
H8B C9B 1_555 1_555
C12B C9B 1_555 1_555
C16B H19B 1_555 1_555
H20B C16B 1_555 1_555
H21B C16B 1_555 1_555
C17B N2B 1_555 1_555
H22B C17B 1_555 1_555
H23B C17B 1_555 1_555
C18B C7B 1_555 1_555
H24B C18B 1_555 1_555
H25B C18B 1_555 1_555
H26B C18B 1_555 1_555
C21B N3B 1_555 1_555
H33B C21B 1_555 1_555
H34B C21B 1_555 1_555
C22B C12B 1_555 1_555
H35B C22B 1_555 1_555
H36B C22B 1_555 1_555
H37B C22B 1_555 1_555
C26B O3B 1_555 1_555
C27B C6B 1_555 1_555
H44B C27B 1_555 1_555
H45B C27B 1_555 1_555
H46B C27B 1_555 1_555
H47B N2B 1_555 1_555
H50B N3B 1_555 1_555
O6B Sm1B 1_555 1_555
N1B O6B 1_555 1_555
O10B Sm1B 1_555 1_555
O11B N1B 1_555 1_555
O7B Sm1B 1_555 1_555
O9B Sm1B 1_555 1_555
N6B O7B 1_555 1_555
O12B N6B 1_555 1_555
Sm1B_2 O4B 1_555 1_555
O4B_2 Sm1B 1_555 1_555
N1 O10 1_555 1_555
N5 O13 1_555 1_555
O9 N6 1_555 1_555
C8 C26 1_555 1_555
C10 C14 1_555 1_555
C16 C26 1_555 1_555
C17 C21 1_555 1_555
C23B C24B 1_555 1_555
N5B O13B 1_555 1_555
C8B C26B 1_555 1_555
C16B C26B 1_555 1_555
C17B C21B 1_555 1_555
N1B O10B 1_555 1_555
O9B N6B 1_555 1_555

#END
