
#######################################################################
#
#                 Cambridge Crystallographic Data Centre
#                                CCDC 
#
#######################################################################
#
# If this CIF has been generated from an entry in the Cambridge 
# Structural Database, then it will include bibliographic, chemical, 
# crystal, experimental, refinement or atomic coordinate data resulting 
# from the CCDC's data processing and validation procedures.
#
#######################################################################

data_GUXDEI
_symmetry_cell_setting           monoclinic
_symmetry_space_group_name_H-M   'P 21/n'
_symmetry_Int_Tables_number      14
_space_group_name_Hall           '-P 2yn'
loop_
_symmetry_equiv_pos_site_id
_symmetry_equiv_pos_as_xyz
1 x,y,z
2 1/2+x,1/2-y,1/2+z
3 -x,-y,-z
4 1/2-x,1/2+y,1/2-z
_cell_length_a                   11.629(3)
_cell_length_b                   15.547(3)
_cell_length_c                   20.513(4)
_cell_angle_alpha                90
_cell_angle_beta                 102.539(4)
_cell_angle_gamma                90
_cell_volume                     3620.21
loop_
_atom_site_label
_atom_site_type_symbol
_atom_site_fract_x
_atom_site_fract_y
_atom_site_fract_z
H1 H 0.974(15) 0.104(15) 0.269(17)
H2 H 0.995(2) 0.221(4) 0.388(5)
H3 H 0.982(10) 0.508(6) 0.374(3)
H4 H 1.017(8) 0.503(4) 0.116(3)
C4 C 0.9545(10) 0.5233(8) 0.0157(5)
H11 H 0.9244 0.5730 -0.0113
H12 H 0.8889 0.4851 0.0165
C5 C 1.0434(12) 0.6972(8) 0.0525(7)
H13 H 1.0796 0.6783 0.0171
H14 H 1.0835 0.7474 0.0732
H15 H 0.9622 0.7108 0.0346
C6 C 1.0513(10) 0.6271(8) 0.1032(6)
C7 C 1.1039(11) 0.6429(7) 0.1697(6)
H16 H 1.1814 0.6659 0.1697
H17 H 1.0594 0.6894 0.1839
C8 C 1.1201(10) 0.5826(7) 0.2202(5)
C9 C 1.1856(11) 0.6062(7) 0.2889(5)
H18 H 1.1693 0.6650 0.2980
H19 H 1.2687 0.5993 0.2920
H20 H 1.1611 0.5695 0.3210
C10 C 1.0400(10) 0.5237(7) 0.4820(4)
H21 H 1.0674 0.5759 0.5064
H22 H 1.1083 0.4882 0.4812
C11 C 0.9600(13) 0.6963(8) 0.4410(6)
H23 H 0.9179 0.6873 0.4759
H24 H 0.9333 0.7486 0.4176
H25 H 1.0428 0.7006 0.4602
C12 C 0.9380(10) 0.6219(7) 0.3930(5)
C13 C 0.8781(9) 0.6345(6) 0.3277(4)
H26 H 0.9177 0.6818 0.3109
H27 H 0.8008 0.6558 0.3303
C14 C 0.8584(9) 0.5727(6) 0.2770(4)
C15 C 0.7844(10) 0.5968(7) 0.2111(4)
H28 H 0.8281 0.5876 0.1769
H29 H 0.7629 0.6564 0.2116
H30 H 0.7146 0.5621 0.2020
O1 O 1.0831(7) 0.5061(4) 0.2112(3)
C16 C 0.7236(11) 0.3739(8) 0.3492(6)
H31 H 0.7586 0.4299 0.3498
H32 H 0.6719 0.3727 0.3799
H33 H 0.6796 0.3614 0.3050
O2 O 0.8973(6) 0.4967(4) 0.2867(3)
O3 O 0.9024(6) 0.3102(4) 0.3384(3)
C17 C 0.8104(10) 0.2479(7) 0.4189(4)
H34 H 0.8119 0.2804 0.4594
H35 H 0.7325 0.2226 0.4063
O4 O 0.9765(6) 0.2155(4) 0.2199(3)
C18 C 0.8582(13) 0.1148(7) 0.4856(5)
H36 H 0.8244 0.0646 0.4616
H37 H 0.8027 0.1397 0.5085
H38 H 0.9284 0.0990 0.5174
O5 O 0.6540(7) 0.4041(5) 0.1069(4)
C19 C 0.8885(12) 0.1794(6) 0.4372(4)
O6 O 0.8432(7) 0.4237(5) 0.1319(3)
C20 C 1.0591(15) 0.0958(10) 0.4246(6)
H39 H 1.1137 0.1047 0.4671
H40 H 1.0128 0.0452 0.4292
N1 N 1.0059(9) 0.5508(6) 0.0825(4)
O7 O 0.7614(7) 0.3448(4) 0.1956(3)
C21 C 1.1225(13) 0.0789(10) 0.3781(6)
H41 H 1.1452 0.0188 0.3824
H42 H 1.1945 0.1125 0.3894
N2 N 0.9827(8) 0.5460(6) 0.4141(4)
O8 O 1.2103(8) 0.3294(5) 0.4375(4)
C22 C 1.0458(11) -0.0557(7) 0.2721(6)
H43 H 1.1246 -0.0674 0.2963
H44 H 1.0321 -0.0844 0.2297
H45 H 0.9906 -0.0761 0.2972
N3 N 0.9806(9) 0.1686(6) 0.4123(4)
O9 O 1.1263(7) 0.4173(5) 0.3594(3)
C23 C 1.0305(9) 0.0386(7) 0.2613(6)
N4 N 1.0695(9) 0.0949(6) 0.3082(4)
O10 O 1.1441(6) 0.2830(4) 0.3371(3)
C24 C 0.9734(10) 0.0672(7) 0.1986(5)
H46 H 0.8988 0.0369 0.1883
H47 H 1.0191 0.0456 0.1678
N5 N 0.7502(9) 0.3906(5) 0.1435(4)
O11 O 1.2296(10) 0.3237(8) 0.1121(5)
C25 C 0.9468(10) 0.1550(7) 0.1799(5)
N6 N 1.1622(8) 0.3419(6) 0.3795(4)
C26 C 0.8839(11) 0.1766(7) 0.1107(5)
H48 H 0.8364 0.2270 0.1114
H49 H 0.8343 0.1293 0.0921
H50 H 0.9403 0.1874 0.0837
N7 N 1.1616(12) 0.3344(6) 0.1500(5)
O12 O 1.0540(8) 0.3518(5) 0.1269(3)
La1 La 0.99191(5) 0.37160(3) 0.24363(2)
O13 O 1.1958(7) 0.3286(5) 0.2120(4)
C27 C 0.8173(11) 0.3087(7) 0.3692(5)
C10B C 0.9600(10) 0.4763(7) 0.5180(4)
H21B H 0.9326 0.4241 0.4936
H22B H 0.8917 0.5118 0.5188
N2B N 1.0173(8) 0.4540(6) 0.5859(4)
H3B H 1.018(10) 0.492(6) 0.626(3)
C12B C 1.0620(10) 0.3781(7) 0.6070(5)
C11B C 1.0400(13) 0.3037(8) 0.5590(6)
H23B H 1.0821 0.3127 0.5241
H24B H 1.0667 0.2514 0.5824
H25B H 0.9572 0.2994 0.5398
C13B C 1.1219(9) 0.3655(6) 0.6723(4)
H26B H 1.0823 0.3182 0.6891
H27B H 1.1992 0.3442 0.6697
C14B C 1.1416(9) 0.4273(6) 0.7230(4)
C15B C 1.2156(10) 0.4032(7) 0.7889(4)
H28B H 1.1719 0.4124 0.8231
H29B H 1.2371 0.3436 0.7884
H30B H 1.2854 0.4379 0.7980
O2B O 1.1027(6) 0.5033(4) 0.7133(3)
C4B C 1.0455(10) 0.4767(8) -0.0157(5)
H11B H 1.0756 0.4270 0.0113
H12B H 1.1111 0.5149 -0.0165
N1B N 0.9941(9) 0.4492(6) -0.0825(4)
H4B H 0.983(8) 0.497(4) -0.116(3)
C6B C 0.9487(10) 0.3729(8) -0.1032(6)
C5B C 0.9566(12) 0.3028(8) -0.0525(7)
H13B H 0.9204 0.3217 -0.0171
H14B H 0.9165 0.2526 -0.0732
H15B H 1.0378 0.2892 -0.0346
C7B C 0.8961(11) 0.3571(7) -0.1697(6)
H16B H 0.8186 0.3341 -0.1697
H17B H 0.9406 0.3106 -0.1839
C8B C 0.8799(10) 0.4174(7) -0.2202(5)
C9B C 0.8144(11) 0.3938(7) -0.2889(5)
H18B H 0.8307 0.3350 -0.2980
H19B H 0.7313 0.4007 -0.2920
H20B H 0.8389 0.4305 -0.3210
O1B O 0.9169(7) 0.4939(4) -0.2112(3)
La1B La 1.00809(5) 0.62840(3) -0.24363(2)
H1B H 1.026(15) 0.896(15) -0.269(17)
H2B H 1.005(2) 0.779(4) -0.388(5)
C16B C 1.2764(11) 0.6261(8) -0.3492(6)
H31B H 1.2414 0.5701 -0.3498
H32B H 1.3281 0.6273 -0.3799
H33B H 1.3204 0.6386 -0.3050
O3B O 1.0976(6) 0.6898(4) -0.3384(3)
C17B C 1.1896(10) 0.7521(7) -0.4189(4)
H34B H 1.1881 0.7196 -0.4594
H35B H 1.2675 0.7774 -0.4063
O4B O 1.0235(6) 0.7845(4) -0.2199(3)
C18B C 1.1418(13) 0.8852(7) -0.4856(5)
H36B H 1.1756 0.9354 -0.4616
H37B H 1.1973 0.8603 -0.5085
H38B H 1.0716 0.9010 -0.5174
C19B C 1.1115(12) 0.8206(6) -0.4372(4)
C20B C 0.9409(15) 0.9042(10) -0.4246(6)
H39B H 0.8863 0.8953 -0.4671
H40B H 0.9872 0.9548 -0.4292
C21B C 0.8775(13) 0.9211(10) -0.3781(6)
H41B H 0.8548 0.9812 -0.3824
H42B H 0.8055 0.8875 -0.3894
C22B C 0.9542(11) 1.0557(7) -0.2721(6)
H43B H 0.8754 1.0674 -0.2963
H44B H 0.9679 1.0844 -0.2297
H45B H 1.0094 1.0761 -0.2972
N3B N 1.0194(9) 0.8314(6) -0.4123(4)
C23B C 0.9695(9) 0.9614(7) -0.2613(6)
N4B N 0.9305(9) 0.9051(6) -0.3082(4)
C24B C 1.0266(10) 0.9328(7) -0.1986(5)
H46B H 1.1012 0.9631 -0.1883
H47B H 0.9809 0.9544 -0.1678
C25B C 1.0532(10) 0.8450(7) -0.1799(5)
C26B C 1.1161(11) 0.8234(7) -0.1107(5)
H48B H 1.1636 0.7730 -0.1114
H49B H 1.1657 0.8707 -0.0921
H50B H 1.0597 0.8126 -0.0837
C27B C 1.1827(11) 0.6913(7) -0.3692(5)
O5B O 1.3460(7) 0.5959(5) -0.1069(4)
O6B O 1.1568(7) 0.5763(5) -0.1319(3)
O7B O 1.2386(7) 0.6552(4) -0.1956(3)
N5B N 1.2498(9) 0.6094(5) -0.1435(4)
O8B O 0.7897(8) 0.6706(5) -0.4375(4)
O9B O 0.8737(7) 0.5827(5) -0.3594(3)
O10B O 0.8559(6) 0.7170(4) -0.3371(3)
N6B N 0.8378(8) 0.6581(6) -0.3795(4)
O11B O 0.7704(10) 0.6763(8) -0.1121(5)
N7B N 0.8384(12) 0.6656(6) -0.1500(5)
O12B O 0.9460(8) 0.6482(5) -0.1269(3)
O13B O 0.8042(7) 0.6714(5) -0.2120(4)
La1B_2 La 1.00809(5) 0.62840(3) 0.75637(2)
O2B_2 O 1.1027(6) 0.5033(4) -0.2867(3)
C1 C 1.416(2) 0.5364(15) 0.492(3)
H5 H 1.4083 0.5880 0.4654
H6 H 1.3392 0.5251 0.5021
C2 C 1.439(3) 0.476(3) 0.4577(10)
H7 H 1.3905 0.4280 0.4663
H8 H 1.4083 0.4926 0.4118
C3 C 1.480(4) 0.5509(13) 0.5419(13)
H9 H 1.4490 0.5276 0.5785
H10 H 1.4875 0.6127 0.5479
C3B C 1.520(4) 0.4491(13) 0.4581(13)
C1B C 1.584(2) 0.4636(15) 0.508(3)
H5B H 1.5917 0.4120 0.5346
H6B H 1.6608 0.4749 0.4979
C2B C 1.561(3) 0.524(3) 0.5423(10)
H7B H 1.6095 0.5720 0.5337
H8B H 1.5917 0.5074 0.5882
H9B H 1.5510 0.4724 0.4215
H10B H 1.5125 0.3873 0.4521
loop_
_geom_bond_atom_site_label_1
_geom_bond_atom_site_label_2
_geom_bond_site_symmetry_1
_geom_bond_site_symmetry_2
H1 N4 1_555 1_555
H2 N3 1_555 1_555
H3 N2 1_555 1_555
H4 N1 1_555 1_555
C1 H5 1_555 1_555
H6 C1 1_555 1_555
C2 C1 1_555 1_555
H7 C2 1_555 1_555
H8 C2 1_555 1_555
C3 C1 1_555 1_555
H9 C3 1_555 1_555
H10 C3 1_555 1_555
C4 H11 1_555 1_555
H12 C4 1_555 1_555
C5 H13 1_555 1_555
H14 C5 1_555 1_555
H15 C5 1_555 1_555
C6 C5 1_555 1_555
C7 C6 1_555 1_555
H16 C7 1_555 1_555
H17 C7 1_555 1_555
C8 C7 1_555 1_555
C9 C8 1_555 1_555
H18 C9 1_555 1_555
H19 C9 1_555 1_555
H20 C9 1_555 1_555
C10 H21 1_555 1_555
H22 C10 1_555 1_555
C11 H23 1_555 1_555
H24 C11 1_555 1_555
H25 C11 1_555 1_555
C12 C11 1_555 1_555
C13 C12 1_555 1_555
H26 C13 1_555 1_555
H27 C13 1_555 1_555
C14 C13 1_555 1_555
C15 C14 1_555 1_555
H28 C15 1_555 1_555
H29 C15 1_555 1_555
H30 C15 1_555 1_555
O1 C8 1_555 1_555
C16 H31 1_555 1_555
H32 C16 1_555 1_555
H33 C16 1_555 1_555
O2 C14 1_555 1_555
O3 La1 1_555 1_555
C17 H34 1_555 1_555
H35 C17 1_555 1_555
O4 C25 1_555 1_555
C18 H36 1_555 1_555
H37 C18 1_555 1_555
H38 C18 1_555 1_555
O5 N5 1_555 1_555
C19 C17 1_555 1_555
O6 N5 1_555 1_555
C20 H39 1_555 1_555
H40 C20 1_555 1_555
N1 C4 1_555 1_555
O7 N5 1_555 1_555
C21 C20 1_555 1_555
H41 C21 1_555 1_555
H42 C21 1_555 1_555
N2 C10 1_555 1_555
O8 N6 1_555 1_555
C22 H43 1_555 1_555
H44 C22 1_555 1_555
H45 C22 1_555 1_555
N3 C19 1_555 1_555
O9 N6 1_555 1_555
C23 C22 1_555 1_555
N4 C21 1_555 1_555
O10 N6 1_555 1_555
C24 C23 1_555 1_555
H46 C24 1_555 1_555
H47 C24 1_555 1_555
O11 N7 1_555 1_555
C25 C24 1_555 1_555
C26 C25 1_555 1_555
H48 C26 1_555 1_555
H49 C26 1_555 1_555
H50 C26 1_555 1_555
N7 O12 1_555 1_555
O12 La1 1_555 1_555
La1 O1 1_555 1_555
O13 N7 1_555 1_555
C27 C16 1_555 1_555
C10B C10 1_555 1_555
H21B C10B 1_555 1_555
H22B C10B 1_555 1_555
N2B C10B 1_555 1_555
H3B N2B 1_555 1_555
C12B N2B 1_555 1_555
C11B C12B 1_555 1_555
H23B C11B 1_555 1_555
H24B C11B 1_555 1_555
H25B C11B 1_555 1_555
C13B C12B 1_555 1_555
H26B C13B 1_555 1_555
H27B C13B 1_555 1_555
C14B C13B 1_555 1_555
C15B C14B 1_555 1_555
H28B C15B 1_555 1_555
H29B C15B 1_555 1_555
H30B C15B 1_555 1_555
O2B C14B 1_555 1_555
C4B C4 1_555 1_555
H11B C4B 1_555 1_555
H12B C4B 1_555 1_555
N1B C4B 1_555 1_555
H4B N1B 1_555 1_555
C6B N1B 1_555 1_555
C5B C6B 1_555 1_555
H13B C5B 1_555 1_555
H14B C5B 1_555 1_555
H15B C5B 1_555 1_555
C7B C6B 1_555 1_555
H16B C7B 1_555 1_555
H17B C7B 1_555 1_555
C8B C7B 1_555 1_555
C9B C8B 1_555 1_555
H18B C9B 1_555 1_555
H19B C9B 1_555 1_555
H20B C9B 1_555 1_555
O1B C8B 1_555 1_555
C3B C2 1_555 1_555
C1B C3B 1_555 1_555
H5B C1B 1_555 1_555
H6B C1B 1_555 1_555
C2B C3 1_555 1_555
H7B C2B 1_555 1_555
H8B C2B 1_555 1_555
H9B C3B 1_555 1_555
H10B C3B 1_555 1_555
La1B O1B 1_555 1_555
H1B N4B 1_555 1_555
H2B N3B 1_555 1_555
C16B H31B 1_555 1_555
H32B C16B 1_555 1_555
H33B C16B 1_555 1_555
O3B La1B 1_555 1_555
C17B H34B 1_555 1_555
H35B C17B 1_555 1_555
O4B La1B 1_555 1_555
C18B H36B 1_555 1_555
H37B C18B 1_555 1_555
H38B C18B 1_555 1_555
C19B C17B 1_555 1_555
C20B H39B 1_555 1_555
H40B C20B 1_555 1_555
C21B C20B 1_555 1_555
H41B C21B 1_555 1_555
H42B C21B 1_555 1_555
C22B H43B 1_555 1_555
H44B C22B 1_555 1_555
H45B C22B 1_555 1_555
N3B C19B 1_555 1_555
C23B C22B 1_555 1_555
N4B C21B 1_555 1_555
C24B C23B 1_555 1_555
H46B C24B 1_555 1_555
H47B C24B 1_555 1_555
C25B O4B 1_555 1_555
C26B C25B 1_555 1_555
H48B C26B 1_555 1_555
H49B C26B 1_555 1_555
H50B C26B 1_555 1_555
C27B C16B 1_555 1_555
O5B N5B 1_555 1_555
O6B La1B 1_555 1_555
O7B La1B 1_555 1_555
N5B O6B 1_555 1_555
O8B N6B 1_555 1_555
O9B La1B 1_555 1_555
O10B La1B 1_555 1_555
N6B O9B 1_555 1_555
O11B N7B 1_555 1_555
N7B O12B 1_555 1_555
O12B La1B 1_555 1_555
O13B La1B 1_555 1_555
La1B_2 O2B 1_555 1_555
O2B_2 La1B 1_555 1_555
C6 N1 1_555 1_555
C12 N2 1_555 1_555
O2 La1 1_555 1_555
O3 C27 1_555 1_555
C17 C27 1_555 1_555
O4 La1 1_555 1_555
C18 C19 1_555 1_555
O6 La1 1_555 1_555
C20 N3 1_555 1_555
O7 La1 1_555 1_555
O9 La1 1_555 1_555
C23 N4 1_555 1_555
O10 La1 1_555 1_555
La1 O13 1_555 1_555
C1B C2B 1_555 1_555
O3B C27B 1_555 1_555
C17B C27B 1_555 1_555
C18B C19B 1_555 1_555
C20B N3B 1_555 1_555
C23B N4B 1_555 1_555
C24B C25B 1_555 1_555
O7B N5B 1_555 1_555
O10B N6B 1_555 1_555
N7B O13B 1_555 1_555

#END
