
#######################################################################
#
#                 Cambridge Crystallographic Data Centre
#                                CCDC 
#
#######################################################################
#
# If this CIF has been generated from an entry in the Cambridge 
# Structural Database, then it will include bibliographic, chemical, 
# crystal, experimental, refinement or atomic coordinate data resulting 
# from the CCDC's data processing and validation procedures.
#
#######################################################################

data_GUXLEQ
_symmetry_cell_setting           hexagonal
_symmetry_space_group_name_H-M   'P 63'
_symmetry_Int_Tables_number      173
_space_group_name_Hall           'P 6c'
loop_
_symmetry_equiv_pos_site_id
_symmetry_equiv_pos_as_xyz
1 x,y,z
2 x-y,x,1/2+z
3 -y,x-y,z
4 -x,-y,1/2+z
5 -x+y,-x,z
6 y,-x+y,1/2+z
_cell_length_a                   10.101(2)
_cell_length_b                   10.101(2)
_cell_length_c                   18.001(4)
_cell_angle_alpha                90
_cell_angle_beta                 90
_cell_angle_gamma                120
_cell_volume                     1590.58
loop_
_atom_site_label
_atom_site_type_symbol
_atom_site_fract_x
_atom_site_fract_y
_atom_site_fract_z
P1 P 0.00000 0.00000 0.58(1)
C3 C 0.00000 0.00000 0.675(7)
C4 C 0.04(1) 0.10(1) 0.729(6)
C5 C 0.048(9) 0.105(9) 0.770(6)
C6 C 0.00000 0.00000 0.820(5)
C7 C 0.124(9) 0.056(9) 0.783(5)
C8 C -0.08(1) -0.14(1) 0.710(6)
D1 D 0.09(1) 0.19(1) 0.702(6)
D2 D 0.099(9) 0.199(9) 0.797(6)
D3 D 0.00000 0.00000 0.873(5)
D4 D 0.219(9) 0.100(9) 0.810(5)
D5 D -0.13(1) -0.23(1) 0.683(6)
C9 C 0.146(5) 0.144(4) 0.541(3)
C10 C 0.294(4) 0.225(4) 0.569(2)
C11 C 0.434(4) 0.348(4) 0.552(2)
C12 C 0.389(3) 0.405(3) 0.512(2)
C13 C 0.256(4) 0.391(3) 0.479(2)
C14 C 0.151(5) 0.266(3) 0.512(3)
D6 D 0.304(4) 0.156(4) 0.601(2)
D7 D 0.533(4) 0.373(4) 0.570(2)
D8 D 0.477(3) 0.498(3) 0.497(2)
D9 D 0.246(4) 0.460(3) 0.446(2)
D10 D 0.053(5) 0.241(3) 0.494(3)
C4B C -0.10(1) -0.06(1) 0.729(6)
C4D C 0.06(1) -0.04(1) 0.729(6)
C5B C -0.105(9) -0.057(13) 0.770(6)
C5D C 0.057(13) -0.048(9) 0.770(6)
C7D C -0.068(13) -0.124(9) 0.783(5)
C7B C -0.056(9) 0.068(13) 0.783(5)
C8B C 0.14(1) 0.06(1) 0.710(6)
C8D C -0.06(1) 0.08(1) 0.710(6)
D5D D -0.10(1) 0.13(1) 0.683(6)
D4B D -0.100(9) 0.119(13) 0.810(5)
D5B D 0.23(1) 0.10(1) 0.683(6)
D2D D 0.100(13) -0.099(9) 0.797(6)
D2B D -0.199(9) -0.100(13) 0.797(6)
D1D D 0.10(1) -0.09(1) 0.702(6)
D1B D -0.19(1) -0.10(1) 0.702(6)
D4D D -0.119(13) -0.219(9) 0.810(5)
C9B C -0.144(4) 0.002(6) 0.541(3)
C10B C -0.225(4) 0.069(6) 0.569(2)
C11B C -0.348(4) 0.086(6) 0.552(2)
C12B C -0.405(3) -0.016(4) 0.512(2)
C13B C -0.391(3) -0.135(5) 0.479(2)
C14B C -0.266(3) -0.115(6) 0.512(3)
D10B D -0.241(3) -0.188(6) 0.494(3)
D9B D -0.460(3) -0.214(5) 0.446(2)
D8B D -0.498(3) -0.021(4) 0.497(2)
D7B D -0.373(4) 0.160(6) 0.570(2)
D6B D -0.156(4) 0.148(6) 0.601(2)
C9D C -0.002(6) -0.146(5) 0.541(3)
C10D C -0.069(6) -0.294(4) 0.569(2)
C11D C -0.086(6) -0.434(4) 0.552(2)
C12D C 0.016(4) -0.389(3) 0.512(2)
C13D C 0.135(5) -0.256(4) 0.479(2)
C14D C 0.115(6) -0.151(5) 0.512(3)
D10D D 0.188(6) -0.053(5) 0.494(3)
D9D D 0.214(5) -0.246(4) 0.446(2)
D8D D 0.021(4) -0.477(3) 0.497(2)
D7D D -0.160(6) -0.533(4) 0.570(2)
D6D D -0.148(6) -0.304(4) 0.601(2)
Fe1 Fe 0.33333 0.66666 0.25332
Cr1 Cr 0.66666 0.33333 0.24668
C1 C 0.511(3) 0.565(4) 0.287(2)
C2 C 0.441(3) 0.484(4) 0.213(2)
O1 O 0.496(4) 0.662(4) 0.320(2)
O2 O 0.338(4) 0.504(4) 0.180(2)
S1 S 0.61(1) 0.49(1) 0.305(4)
S2 S 0.52(1) 0.38(1) 0.195(4)
C1B C 0.435(4) 0.946(5) 0.287(2)
C2B C 0.516(4) 0.957(5) 0.213(2)
O1B O 0.338(4) 0.834(6) 0.320(2)
O2B O 0.496(4) 0.834(6) 0.180(2)
S1B S 0.51(1) 1.12(1) 0.305(4)
S2B S 0.62(1) 1.14(1) 0.195(4)
C1D C 0.054(5) 0.489(3) 0.287(2)
C2D C 0.043(5) 0.559(3) 0.213(2)
O1D O 0.166(6) 0.504(4) 0.320(2)
O2D O 0.166(6) 0.662(4) 0.180(2)
S1D S -0.12(1) 0.39(1) 0.305(4)
S2D S -0.14(1) 0.48(1) 0.195(4)
S1B_2 S 0.51(1) 0.12(1) 0.305(4)
S1D_2 S 0.88(1) 0.39(1) 0.305(4)
S2B_2 S 0.62(1) 0.14(1) 0.195(4)
S2D_2 S 0.86(1) 0.48(1) 0.195(4)
Cr1_2 Cr 0.66666 1.33333 0.24668
Cr1_3 Cr -0.33334 0.33333 0.24668
loop_
_geom_bond_atom_site_label_1
_geom_bond_atom_site_label_2
_geom_bond_site_symmetry_1
_geom_bond_site_symmetry_2
Fe1 O1 1_555 1_555
Cr1 S1 1_555 1_555
C1 C2 1_555 1_555
C2 O2 1_555 1_555
O1 C1 1_555 1_555
O2 Fe1 1_555 1_555
S1 C1 1_555 1_555
S2 Cr1 1_555 1_555
P1 C3 1_555 1_555
C3 C4 1_555 1_555
C4 C5 1_555 1_555
C5 C6 1_555 1_555
C6 C7 1_555 1_555
C7 C4 1_555 1_555
C8 C3 1_555 1_555
D1 C4 1_555 1_555
D2 C5 1_555 1_555
D3 C6 1_555 1_555
D4 C7 1_555 1_555
D5 C8 1_555 1_555
C9 P1 1_555 1_555
C10 C9 1_555 1_555
C11 C10 1_555 1_555
C12 C11 1_555 1_555
C13 C12 1_555 1_555
C14 C9 1_555 1_555
D6 C10 1_555 1_555
D7 C11 1_555 1_555
D8 C12 1_555 1_555
D9 C13 1_555 1_555
D10 C14 1_555 1_555
C4B C3 1_555 1_555
C4D C3 1_555 1_555
C5B C4 1_555 1_555
C5D C4 1_555 1_555
C7D C6 1_555 1_555
C7B C4 1_555 1_555
C8B C3 1_555 1_555
C8D C3 1_555 1_555
D5D C8D 1_555 1_555
D4B C7B 1_555 1_555
D5B C8B 1_555 1_555
D2D C5D 1_555 1_555
D2B C5B 1_555 1_555
D1D C4D 1_555 1_555
D1B C4B 1_555 1_555
D4D C7D 1_555 1_555
C9B P1 1_555 1_555
C10B C9B 1_555 1_555
C11B C10B 1_555 1_555
C12B C11B 1_555 1_555
C13B C12B 1_555 1_555
C14B C9B 1_555 1_555
D10B C14B 1_555 1_555
D9B C13B 1_555 1_555
D8B C12B 1_555 1_555
D7B C11B 1_555 1_555
D6B C10B 1_555 1_555
C9D P1 1_555 1_555
C10D C9D 1_555 1_555
C11D C10D 1_555 1_555
C12D C11D 1_555 1_555
C13D C12D 1_555 1_555
C14D C9D 1_555 1_555
D10D C14D 1_555 1_555
D9D C13D 1_555 1_555
D8D C12D 1_555 1_555
D7D C11D 1_555 1_555
D6D C10D 1_555 1_555
C1B C2B 1_555 1_555
C2B O2B 1_555 1_555
O1B Fe1 1_555 1_555
O2B Fe1 1_555 1_555
S1B C1B 1_555 1_555
S2B C2B 1_555 1_555
C1D C2D 1_555 1_555
C2D O2D 1_555 1_555
O1D Fe1 1_555 1_555
O2D Fe1 1_555 1_555
S1D C1D 1_555 1_555
S2D C2D 1_555 1_555
S1B_2 Cr1 1_555 1_555
S1D_2 Cr1 1_555 1_555
S2B_2 Cr1 1_555 1_555
S2D_2 Cr1 1_555 1_555
Cr1_2 S1B 1_555 1_555
Cr1_3 S1D 1_555 1_555
C2 S2 1_555 1_555
C4 C4B 1_555 1_555
C4 C8D 1_555 1_555
C4 C4D 1_555 1_555
C4 C8B 1_555 1_555
C5 C4D 1_555 1_555
C5 C4B 1_555 1_555
C5 C5B 1_555 1_555
C5 C5D 1_555 1_555
C5 C7 1_555 1_555
C5 C7B 1_555 1_555
C5 C8B 1_555 1_555
C5 C8D 1_555 1_555
C6 C5B 1_555 1_555
C6 C5D 1_555 1_555
C6 C7B 1_555 1_555
C7 C4D 1_555 1_555
C7 C5D 1_555 1_555
C7 C8B 1_555 1_555
C8 C7D 1_555 1_555
C8 C4B 1_555 1_555
C8 C4D 1_555 1_555
C8 C5B 1_555 1_555
C8 C5D 1_555 1_555
C13 C14 1_555 1_555
C4B C5B 1_555 1_555
C4B C4D 1_555 1_555
C4B C5D 1_555 1_555
C4B C7B 1_555 1_555
C4B C7D 1_555 1_555
C4B C8D 1_555 1_555
C4D C5D 1_555 1_555
C4D C5B 1_555 1_555
C4D C7D 1_555 1_555
C4D C8B 1_555 1_555
C5B C5D 1_555 1_555
C5B C7B 1_555 1_555
C5B C7D 1_555 1_555
C5B C8D 1_555 1_555
C5D C7D 1_555 1_555
C5D C8B 1_555 1_555
C7B C8D 1_555 1_555
C13B C14B 1_555 1_555
C13D C14D 1_555 1_555
C1B O1B 1_555 1_555
S2B Cr1_2 1_555 1_555
C1D O1D 1_555 1_555
S2D Cr1_3 1_555 1_555

#END
