
#######################################################################
#
#                 Cambridge Crystallographic Data Centre
#                                CCDC 
#
#######################################################################
#
# If this CIF has been generated from an entry in the Cambridge 
# Structural Database, then it will include bibliographic, chemical, 
# crystal, experimental, refinement or atomic coordinate data resulting 
# from the CCDC's data processing and validation procedures.
#
#######################################################################

data_GUXPUL
_symmetry_cell_setting           tetragonal
_symmetry_space_group_name_H-M   'I 41/a'
_symmetry_Int_Tables_number      88
_space_group_name_Hall           '-I 4ad'
loop_
_symmetry_equiv_pos_site_id
_symmetry_equiv_pos_as_xyz
1 x,y,z
2 1/2-x,-y,1/2+z
3 3/4-y,1/4+x,1/4+z
4 3/4+y,3/4-x,3/4+z
5 1/2+x,1/2+y,1/2+z
6 -x,1/2-y,z
7 1/4-y,3/4+x,3/4+z
8 1/4+y,1/4-x,1/4+z
9 -x,-y,-z
10 1/2+x,y,1/2-z
11 1/4+y,3/4-x,3/4-z
12 1/4-y,1/4+x,1/4-z
13 1/2-x,1/2-y,1/2-z
14 x,1/2+y,-z
15 3/4+y,1/4-x,1/4-z
16 3/4-y,3/4+x,3/4-z
_cell_length_a                   30.1922(9)
_cell_length_b                   30.1922(9)
_cell_length_c                   8.6557(3)
_cell_angle_alpha                90
_cell_angle_beta                 90
_cell_angle_gamma                90
_cell_volume                     7890.27
loop_
_atom_site_label
_atom_site_type_symbol
_atom_site_fract_x
_atom_site_fract_y
_atom_site_fract_z
Zn1 Zn 0.896831(8) 0.261155(8) 0.05475(3)
O1 O 0.72337(5) 0.20768(5) -0.09181(19)
O2 O 0.93575(5) 0.21539(5) 0.17009(16)
O3 O 0.86753(5) 0.27574(5) 0.25615(17)
O4 O 0.85626(6) 0.26603(7) 0.50428(19)
O5 O 0.97691(5) 0.19331(5) 0.36356(16)
N1 N 0.86168(6) 0.21032(6) -0.0501(2)
N2 N 0.81025(5) 0.16869(6) -0.1470(2)
N3 N 0.84131(6) 0.13986(6) -0.0919(2)
N4 N 0.67187(5) 0.14902(6) -0.2737(2)
N5 N 0.68942(6) 0.13228(7) -0.4065(2)
N6 N 0.64036(6) 0.18605(6) -0.4569(2)
C1 C 0.82290(7) 0.21004(7) -0.1210(2)
H1 H 0.8069 0.2351 -0.1486
C2 C 0.87118(7) 0.16688(8) -0.0359(3)
H2 H 0.8971 0.1568 0.0104
C3 C 0.76754(7) 0.15225(8) -0.1997(3)
H3 H 0.7695 0.1206 -0.2171
H4 H 0.7600 0.1662 -0.2971
C4 C 0.73093(7) 0.16178(8) -0.0809(2)
C5 C 0.68869(7) 0.13580(8) -0.1230(3)
H5 H 0.6952 0.1043 -0.1240
H6 H 0.6662 0.1411 -0.0453
C6 C 0.64315(7) 0.18054(8) -0.3065(3)
H7 H 0.6271 0.1966 -0.2337
C7 C 0.66963(7) 0.15591(8) -0.5123(3)
H8 H 0.6752 0.1524 -0.6173
C8 C 0.74718(7) 0.14964(9) 0.0806(3)
C9 C 0.75569(10) 0.10731(12) 0.1265(3)
C10 C 0.77504(12) 0.09594(15) 0.2672(4)
H9 H 0.7802 0.0666 0.2948
C11 C 0.78582(11) 0.12979(18) 0.3606(3)
C12 C 0.77911(11) 0.17305(17) 0.3250(3)
H10 H 0.7875 0.1955 0.3923
C13 C 0.75929(9) 0.18242(12) 0.1849(3)
H11 H 0.7538 0.2118 0.1595
C14 C 0.88055(7) 0.26543(7) 0.3894(2)
C15 C 0.92882(7) 0.25346(7) 0.4143(2)
H12 H 0.9463 0.2802 0.4035
H13 H 0.9322 0.2433 0.5199
C16 C 0.94796(6) 0.21869(6) 0.3083(2)
F1 F 0.74710(8) 0.07308(6) 0.0287(2)
F2 F 0.80606(8) 0.12018(11) 0.4970(2)
H14 H 0.6996(5) 0.2154(9) -0.047(3)
Zn1K Zn 0.988845(8) 0.146831(8) 0.19525(3)
Zn1L Zn 0.603169(8) 0.238845(8) -0.55475(3)
O5N O 0.94331(5) 0.27309(5) -0.11356(16)
N6L N 0.85964(6) 0.31395(6) -0.0431(2)
loop_
_geom_bond_atom_site_label_1
_geom_bond_atom_site_label_2
_geom_bond_site_symmetry_1
_geom_bond_site_symmetry_2
Zn1 O2 1_555 1_555
O1 C4 1_555 1_555
O2 C16 1_555 1_555
O3 Zn1 1_555 1_555
O4 C14 1_555 1_555
O5 C16 1_555 1_555
N1 Zn1 1_555 1_555
N2 N3 1_555 1_555
N3 C2 1_555 1_555
N4 N5 1_555 1_555
N5 C7 1_555 1_555
N6 C6 1_555 1_555
C1 N1 1_555 1_555
H1 C1 1_555 1_555
C2 N1 1_555 1_555
H2 C2 1_555 1_555
C3 N2 1_555 1_555
H3 C3 1_555 1_555
H4 C3 1_555 1_555
C4 C3 1_555 1_555
C5 N4 1_555 1_555
H5 C5 1_555 1_555
H6 C5 1_555 1_555
C6 N4 1_555 1_555
H7 C6 1_555 1_555
C7 N6 1_555 1_555
H8 C7 1_555 1_555
C8 C4 1_555 1_555
C9 C8 1_555 1_555
C10 C9 1_555 1_555
H9 C10 1_555 1_555
C11 C10 1_555 1_555
C12 C11 1_555 1_555
H10 C12 1_555 1_555
C13 C8 1_555 1_555
H11 C13 1_555 1_555
C14 O3 1_555 1_555
C15 C14 1_555 1_555
H12 C15 1_555 1_555
H13 C15 1_555 1_555
C16 C15 1_555 1_555
F1 C9 1_555 1_555
F2 C11 1_555 1_555
H14 O1 1_555 1_555
Zn1K O5 1_555 1_555
Zn1L N6 1_555 1_555
O5N Zn1 1_555 1_555
N6L Zn1 1_555 1_555
N2 C1 1_555 1_555
C4 C5 1_555 1_555
C12 C13 1_555 1_555

#END
