
#######################################################################
#
#                 Cambridge Crystallographic Data Centre
#                                CCDC 
#
#######################################################################
#
# If this CIF has been generated from an entry in the Cambridge 
# Structural Database, then it will include bibliographic, chemical, 
# crystal, experimental, refinement or atomic coordinate data resulting 
# from the CCDC's data processing and validation procedures.
#
#######################################################################

data_GUXQIA
_symmetry_cell_setting           triclinic
_symmetry_space_group_name_H-M   'P -1'
_symmetry_Int_Tables_number      2
_space_group_name_Hall           '-P 1'
loop_
_symmetry_equiv_pos_site_id
_symmetry_equiv_pos_as_xyz
1 x,y,z
2 -x,-y,-z
_cell_length_a                   10.5245(19)
_cell_length_b                   12.058(2)
_cell_length_c                   13.530(2)
_cell_angle_alpha                87.015(2)
_cell_angle_beta                 72.146(2)
_cell_angle_gamma                86.563(2)
_cell_volume                     1630.36
loop_
_atom_site_label
_atom_site_type_symbol
_atom_site_fract_x
_atom_site_fract_y
_atom_site_fract_z
O2 O 0.300(3) -0.469(2) -0.069(2)
P1 P 0.5000 0.0000 0.0000
Mo1 Mo 0.21299(12) 0.17115(11) -0.00260(9)
Mo2 Mo 0.42670(12) 0.25173(10) 0.13697(9)
Mo3 Mo 0.26676(12) -0.09501(10) -0.11486(10)
Mo4 Mo 0.53828(12) 0.25902(10) -0.13990(9)
Mo5 Mo 0.57507(12) 0.00808(9) -0.27521(8)
Mo6 Mo 0.82221(11) 0.07400(9) -0.15900(9)
Ag1 Ag 0.27321(12) 0.46621(10) 0.36197(8)
Ag2 Ag 0.0000 0.5000 0.5000
O1 O 0.5781(14) 0.0505(12) -0.1006(11)
O3 O 0.4859(14) -0.0508(11) -0.0952(10)
O4 O 0.4422(14) 0.1265(13) -0.0032(10)
O5 O 0.6484(13) 0.0091(11) -0.0085(11)
O6 O 0.9688(11) 0.1155(10) -0.2322(10)
O7 O 0.4006(11) -0.0260(8) -0.2334(10)
O8 O 0.1632(11) -0.1346(11) -0.1709(10)
O9 O 0.5557(10) 0.3765(7) -0.2092(8)
O10 O 0.7137(12) 0.2114(8) -0.1556(10)
O11 O 0.3467(13) 0.2462(13) -0.1034(10)
O12 O 0.1442(14) 0.0659(8) 0.1118(8)
O13 O 0.3823(10) 0.1482(8) 0.2438(10)
O14 O 0.6140(10) 0.2146(8) 0.1298(10)
O15 O 0.1826(15) -0.1258(9) 0.0214(8)
O16 O 0.0784(10) 0.2503(7) 0.0023(7)
O17 O 0.2048(15) 0.0615(9) -0.0899(8)
O18 O 0.6183(12) 0.0079(11) -0.4027(7)
O19 O 0.2746(13) 0.2431(13) 0.1035(9)
O20 O 0.7523(11) 0.0274(8) -0.2573(10)
O21 O 0.5096(12) 0.3082(13) -0.0068(9)
O22 O 0.5395(11) 0.1562(8) -0.2475(9)
O23 O 0.4041(10) 0.3703(7) 0.1986(7)
N1 N 0.3292(10) 0.5689(10) 0.4824(8)
N2 N 0.2936(11) 0.3466(10) 0.4968(8)
N3 N 0.1092(10) 0.4855(9) 0.2827(8)
N4 N -0.0107(11) 0.3340(8) 0.4523(8)
C1 C 0.1194(15) 0.5739(12) 0.2192(12)
H1 H 0.1753 0.6289 0.2241
C2 C 0.0521(15) 0.5899(14) 0.1460(12)
H2 H 0.0628 0.6536 0.1030
C3 C -0.0322(14) 0.5078(15) 0.1383(11)
H3 H -0.0817 0.5168 0.0919
C4 C -0.0401(13) 0.4146(11) 0.2002(11)
H4 H -0.0898 0.3562 0.1925
C5 C 0.0270(12) 0.4060(10) 0.2764(9)
C6 C 0.0035(11) 0.3110(10) 0.3527(9)
C7 C -0.0088(13) 0.2050(10) 0.3247(10)
H5 H 0.0063 0.1900 0.2552
C8 C -0.0429(15) 0.1226(12) 0.3988(13)
H6 H -0.0526 0.0511 0.3803
C9 C -0.0634(15) 0.1449(12) 0.5023(13)
H7 H -0.0890 0.0899 0.5544
C10 C -0.0445(14) 0.2504(11) 0.5246(10)
H8 H -0.0555 0.2657 0.5935
C11 C 0.2779(13) 0.2383(11) 0.5021(11)
H9 H 0.2719 0.2054 0.4431
C12 C 0.2696(14) 0.1710(12) 0.5887(11)
H10 H 0.2580 0.0951 0.5891
C13 C 0.2794(15) 0.2220(13) 0.6756(11)
H11 H 0.2751 0.1797 0.7359
C14 C 0.2951(14) 0.3318(12) 0.6733(11)
H12 H 0.2984 0.3664 0.7322
C15 C 0.3065(12) 0.3939(11) 0.5795(10)
C16 C 0.3344(11) 0.5139(10) 0.5694(9)
C17 C 0.3612(14) 0.5714(12) 0.6467(11)
H13 H 0.3632 0.5338 0.7080
C18 C 0.3846(15) 0.6824(13) 0.6341(12)
H14 H 0.4040 0.7201 0.6856
C19 C 0.3788(13) 0.7373(12) 0.5432(12)
H15 H 0.3922 0.8131 0.5327
C20 C 0.3533(14) 0.6786(12) 0.4704(11)
H16 H 0.3521 0.7152 0.4085
P1_2 P -0.5000 1.0000 1.0000
Mo1A Mo 0.78701(12) -0.17115(11) 0.00260(9)
Mo1A_2 Mo -0.21299(12) 0.82885(11) 1.00260(9)
Mo1_2 Mo -0.78701(12) 1.17115(11) 0.99740(9)
Mo2A Mo -0.42670(12) 0.74827(10) 0.86303(9)
Mo2A_2 Mo 0.57330(12) -0.25173(10) -0.13697(9)
Mo3A Mo 0.73324(12) 0.09501(10) 0.11486(10)
Mo3_2 Mo -0.73324(12) 0.90499(10) 0.88514(10)
Mo3A_2 Mo -0.26676(12) 1.09501(10) 1.11486(10)
Mo4A Mo 0.46172(12) -0.25902(10) 0.13990(9)
Mo4A_2 Mo -0.53828(12) 0.74098(10) 1.13990(9)
Mo4_2 Mo -0.46172(12) 1.25902(10) 0.86010(9)
Mo5A Mo 0.42493(12) -0.00808(9) 0.27521(8)
Mo5_2 Mo -0.42493(12) 1.00808(9) 0.72479(8)
Mo5A_2 Mo -0.57507(12) 0.99192(9) 1.27521(8)
Mo6A Mo 0.17779(11) -0.07400(9) 0.15900(9)
Mo6_2 Mo -0.17779(11) 1.07400(9) 0.84100(9)
Mo6A_2 Mo -0.82221(11) 0.92600(9) 1.15900(9)
Ag1A Ag -0.27321(12) 0.53379(10) 0.63803(8)
Ag1A_2 Ag 0.72679(12) -0.46621(10) -0.36197(8)
O1A O 0.4219(14) -0.0505(12) 0.1006(11)
O1_2 O -0.4219(14) 1.0505(12) 0.8994(11)
O1A_2 O -0.5781(14) 0.9495(12) 1.1006(11)
O3A O 0.5141(14) 0.0508(11) 0.0952(10)
O3_2 O -0.5141(14) 0.9492(11) 0.9048(10)
O3A_2 O -0.4859(14) 1.0508(11) 1.0952(10)
O4A O 0.5578(14) -0.1265(13) 0.0032(10)
O4A_2 O -0.4422(14) 0.8735(13) 1.0032(10)
O4_2 O -0.5578(14) 1.1265(13) 0.9968(10)
O5A O 0.3516(13) -0.0091(11) 0.0085(11)
O5A_2 O -0.6484(13) 0.9909(11) 1.0085(11)
O5_2 O -0.3516(13) 1.0091(11) 0.9915(11)
O6A O 0.0312(11) -0.1155(10) 0.2322(10)
O7A O 0.5994(11) 0.0260(8) 0.2334(10)
O7_2 O -0.5994(11) 0.9740(8) 0.7666(10)
O8A O 0.8368(11) 0.1346(11) 0.1709(10)
O8_2 O -0.8368(11) 0.8654(11) 0.8291(10)
O9A O 0.4443(10) -0.3765(7) 0.2092(8)
O9A_2 O -0.5557(10) 0.6235(7) 1.2092(8)
O10A O 0.2863(12) -0.2114(8) 0.1556(10)
O10A_2 O -0.7137(12) 0.7886(8) 1.1556(10)
O11A O 0.6533(13) -0.2462(13) 0.1034(10)
O11A_2 O -0.3467(13) 0.7538(13) 1.1034(10)
O12A O 0.8558(14) -0.0659(8) -0.1118(8)
O12A_2 O -0.1442(14) 0.9341(8) 0.8882(8)
O13A O -0.3823(10) 0.8518(8) 0.7562(10)
O13A_2 O 0.6177(10) -0.1482(8) -0.2438(10)
O14A O -0.6140(10) 0.7854(8) 0.8702(10)
O14A_2 O 0.3860(10) -0.2146(8) -0.1298(10)
O15A O 0.8174(15) 0.1258(9) -0.0214(8)
O15_2 O -0.8174(15) 0.8742(9) 1.0214(8)
O16A O 0.9216(10) -0.2503(7) -0.0023(7)
O16A_2 O -0.0784(10) 0.7497(7) 0.9977(7)
O17A O 0.7952(15) -0.0615(9) 0.0899(8)
O17_2 O -0.7952(15) 1.0615(9) 0.9101(8)
O17A_2 O -0.2048(15) 0.9385(9) 1.0899(8)
O18A O 0.3817(12) -0.0079(11) 0.4027(7)
O18_2 O -0.3817(12) 1.0079(11) 0.5973(7)
O19A O -0.2746(13) 0.7569(13) 0.8965(9)
O19A_2 O 0.7254(13) -0.2431(13) -0.1035(9)
O20A O 0.2477(11) -0.0274(8) 0.2573(10)
O20_2 O -0.2477(11) 1.0274(8) 0.7427(10)
O21A O -0.5096(12) 0.6918(13) 1.0068(9)
O21A_2 O 0.4904(12) -0.3082(13) 0.0068(9)
O22A O 0.4605(11) -0.1562(8) 0.2475(9)
O22_2 O -0.4605(11) 1.1562(8) 0.7525(9)
O22A_2 O -0.5395(11) 0.8438(8) 1.2475(9)
O23A O -0.4041(10) 0.6297(7) 0.8014(7)
O23A_2 O 0.5959(10) -0.3703(7) -0.1986(7)
N1A N -0.3292(10) 0.4311(10) 0.5176(8)
N2A N -0.2936(11) 0.6534(10) 0.5032(8)
N3A N -0.1092(10) 0.5145(9) 0.7173(8)
N4A N 0.0107(11) 0.6660(8) 0.5477(8)
C1A C -0.1194(15) 0.4261(12) 0.7808(12)
H1A H -0.1753 0.3711 0.7759
C2A C -0.0521(15) 0.4101(14) 0.8540(12)
H2A H -0.0628 0.3464 0.8970
C3A C 0.0322(14) 0.4922(15) 0.8617(11)
H3A H 0.0817 0.4832 0.9081
C4A C 0.0401(13) 0.5854(11) 0.7998(11)
H4A H 0.0898 0.6438 0.8075
C5A C -0.0270(12) 0.5940(10) 0.7236(9)
C6A C -0.0035(11) 0.6890(10) 0.6473(9)
C7A C 0.0088(13) 0.7950(10) 0.6753(10)
H5A H -0.0063 0.8100 0.7448
C8A C 0.0429(15) 0.8774(12) 0.6012(13)
H6A H 0.0526 0.9489 0.6197
C9A C 0.0634(15) 0.8551(12) 0.4977(13)
H7A H 0.0890 0.9101 0.4456
C10A C 0.0445(14) 0.7496(11) 0.4754(10)
H8A H 0.0555 0.7343 0.4065
C11A C -0.2779(13) 0.7617(11) 0.4979(11)
H9A H -0.2719 0.7946 0.5569
C12A C -0.2696(14) 0.8290(12) 0.4113(11)
H10A H -0.2580 0.9049 0.4109
C13A C -0.2794(15) 0.7780(13) 0.3244(11)
H11A H -0.2751 0.8203 0.2641
C14A C -0.2951(14) 0.6682(12) 0.3267(11)
H12A H -0.2984 0.6336 0.2678
C15A C -0.3065(12) 0.6061(11) 0.4205(10)
C16A C -0.3344(11) 0.4861(10) 0.4306(9)
C17A C -0.3612(14) 0.4286(12) 0.3533(11)
H13A H -0.3632 0.4662 0.2920
C18A C -0.3846(15) 0.3176(13) 0.3659(12)
H14A H -0.4040 0.2799 0.3144
C19A C -0.3788(13) 0.2627(12) 0.4568(12)
H15A H -0.3922 0.1869 0.4673
C20A C -0.3533(14) 0.3214(12) 0.5296(11)
H16A H -0.3521 0.2848 0.5915
loop_
_geom_bond_atom_site_label_1
_geom_bond_atom_site_label_2
_geom_bond_site_symmetry_1
_geom_bond_site_symmetry_2
P1 O1 1_555 1_555
Mo1 O4 1_555 1_555
Mo2 O4 1_555 1_555
Mo3 O3 1_555 1_555
Mo4 O4 1_555 1_555
Mo5 O1 1_555 1_555
Mo6 O1 1_555 1_555
Ag1 Ag2 1_555 1_555
Ag2 N4 1_555 1_555
O1 O3 1_555 1_555
O3 P1 1_555 1_555
O4 P1 1_555 1_555
O5 P1 1_555 1_555
O6 Mo6 1_555 1_555
O7 Mo3 1_555 1_555
O8 Mo3 1_555 1_555
O9 Mo4 1_555 1_555
O10 Mo4 1_555 1_555
O11 Mo1 1_555 1_555
O12 Mo1 1_555 1_555
O13 Mo2 1_555 1_555
O14 Mo2 1_555 1_555
O15 Mo3 1_555 1_555
O16 Mo1 1_555 1_555
O17 Mo1 1_555 1_555
O18 Mo5 1_555 1_555
O19 Mo1 1_555 1_555
O20 Mo5 1_555 1_555
O21 Mo2 1_555 1_555
O22 Mo4 1_555 1_555
O23 Mo2 1_555 1_555
N1 Ag1 1_555 1_555
N2 Ag1 1_555 1_555
N3 Ag1 1_555 1_555
N4 C6 1_555 1_555
C1 N3 1_555 1_555
H1 C1 1_555 1_555
C2 C1 1_555 1_555
H2 C2 1_555 1_555
C3 C2 1_555 1_555
H3 C3 1_555 1_555
C4 C3 1_555 1_555
H4 C4 1_555 1_555
C5 N3 1_555 1_555
C6 C5 1_555 1_555
C7 C6 1_555 1_555
H5 C7 1_555 1_555
C8 C7 1_555 1_555
H6 C8 1_555 1_555
C9 C8 1_555 1_555
H7 C9 1_555 1_555
C10 N4 1_555 1_555
H8 C10 1_555 1_555
C11 N2 1_555 1_555
H9 C11 1_555 1_555
C12 C11 1_555 1_555
H10 C12 1_555 1_555
C13 C12 1_555 1_555
H11 C13 1_555 1_555
C14 C13 1_555 1_555
H12 C14 1_555 1_555
C15 N2 1_555 1_555
C16 N1 1_555 1_555
C17 C16 1_555 1_555
H13 C17 1_555 1_555
C18 C17 1_555 1_555
H14 C18 1_555 1_555
C19 C18 1_555 1_555
H15 C19 1_555 1_555
C20 N1 1_555 1_555
H16 C20 1_555 1_555
P1_2 O1_2 1_555 1_555
Mo1A O4A 1_555 1_555
Mo1A_2 O4A_2 1_555 1_555
Mo1_2 O4_2 1_555 1_555
Mo2A O4A_2 1_555 1_555
Mo2A_2 O4A 1_555 1_555
Mo3A O5 1_555 1_555
Mo3_2 O3_2 1_555 1_555
Mo3A_2 O3A_2 1_555 1_555
Mo4A O4A 1_555 1_555
Mo4A_2 O4A_2 1_555 1_555
Mo4_2 O4_2 1_555 1_555
Mo5A O13 1_555 1_555
Mo5_2 O1_2 1_555 1_555
Mo5A_2 O1A_2 1_555 1_555
Mo6A O12 1_555 1_555
Mo6_2 O1_2 1_555 1_555
Mo6A_2 O1A_2 1_555 1_555
Ag1A Ag2 1_555 1_555
Ag1A_2 O23A_2 1_555 1_555
O1A P1 1_555 1_555
O1_2 O3_2 1_555 1_555
O1A_2 P1_2 1_555 1_555
O3A P1 1_555 1_555
O3_2 P1_2 1_555 1_555
O3A_2 P1_2 1_555 1_555
O4A P1 1_555 1_555
O4A_2 P1_2 1_555 1_555
O4_2 P1_2 1_555 1_555
O5A P1 1_555 1_555
O5A_2 P1_2 1_555 1_555
O5_2 P1_2 1_555 1_555
O6A Mo6A 1_555 1_555
O7A Mo3A 1_555 1_555
O7_2 Mo3_2 1_555 1_555
O8A Mo3A 1_555 1_555
O8_2 Mo3_2 1_555 1_555
O9A Mo4A 1_555 1_555
O9A_2 Mo4A_2 1_555 1_555
O10A Mo4A 1_555 1_555
O10A_2 Mo4A_2 1_555 1_555
O11A Mo1A 1_555 1_555
O11A_2 Mo1A_2 1_555 1_555
O12A Mo6 1_555 1_555
O12A_2 Mo1A_2 1_555 1_555
O13A Mo2A 1_555 1_555
O13A_2 Mo5 1_555 1_555
O14A Mo2A 1_555 1_555
O14A_2 Mo3 1_555 1_555
O15A Mo6 1_555 1_555
O15_2 Mo3_2 1_555 1_555
O16A Mo1A 1_555 1_555
O16A_2 Mo1A_2 1_555 1_555
O17A Mo1A 1_555 1_555
O17_2 Mo1_2 1_555 1_555
O17A_2 Mo1A_2 1_555 1_555
O18A Mo5A 1_555 1_555
O18_2 Mo5_2 1_555 1_555
O19A Mo1A_2 1_555 1_555
O19A_2 Mo1A 1_555 1_555
O20A Mo5A 1_555 1_555
O20_2 Mo5_2 1_555 1_555
O21A Mo2A 1_555 1_555
O21A_2 Mo2A_2 1_555 1_555
O22A Mo4A 1_555 1_555
O22_2 Mo4_2 1_555 1_555
O22A_2 Mo4A_2 1_555 1_555
O23A Mo2A 1_555 1_555
O23A_2 Mo2A_2 1_555 1_555
N1A Ag1A 1_555 1_555
N2A Ag1A 1_555 1_555
N3A Ag1A 1_555 1_555
N4A Ag2 1_555 1_555
C1A N3A 1_555 1_555
H1A C1A 1_555 1_555
C2A C1A 1_555 1_555
H2A C2A 1_555 1_555
C3A C2A 1_555 1_555
H3A C3A 1_555 1_555
C4A C3A 1_555 1_555
H4A C4A 1_555 1_555
C5A N3A 1_555 1_555
C6A N4A 1_555 1_555
C7A C6A 1_555 1_555
H5A C7A 1_555 1_555
C8A C7A 1_555 1_555
H6A C8A 1_555 1_555
C9A C8A 1_555 1_555
H7A C9A 1_555 1_555
C10A N4A 1_555 1_555
H8A C10A 1_555 1_555
C11A N2A 1_555 1_555
H9A C11A 1_555 1_555
C12A C11A 1_555 1_555
H10A C12A 1_555 1_555
C13A C12A 1_555 1_555
H11A C13A 1_555 1_555
C14A C13A 1_555 1_555
H12A C14A 1_555 1_555
C15A N2A 1_555 1_555
C16A N1A 1_555 1_555
C17A C16A 1_555 1_555
H13A C17A 1_555 1_555
C18A C17A 1_555 1_555
H14A C18A 1_555 1_555
C19A C18A 1_555 1_555
H15A C19A 1_555 1_555
C20A N1A 1_555 1_555
H16A C20A 1_555 1_555
Mo2 O19 1_555 1_555
Mo3 O17 1_555 1_555
Mo3 O5A 1_555 1_555
Mo4 O11 1_555 1_555
Mo4 O21 1_555 1_555
Mo5 O3 1_555 1_555
Mo5 O7 1_555 1_555
Mo5 O22 1_555 1_555
Mo6 O5 1_555 1_555
Mo6 O10 1_555 1_555
Mo6 O20 1_555 1_555
Ag1 O23 1_555 1_555
O1 O5 1_555 1_555
O3 O5A 1_555 1_555
O5 O3A 1_555 1_555
O14 Mo3A 1_555 1_555
O15 Mo6A 1_555 1_555
C4 C5 1_555 1_555
C9 C10 1_555 1_555
C14 C15 1_555 1_555
C15 C16 1_555 1_555
C19 C20 1_555 1_555
Mo1A O12A 1_555 1_555
Mo2A O19A 1_555 1_555
Mo2A_2 O13A_2 1_555 1_555
Mo2A_2 O14A_2 1_555 1_555
Mo2A_2 O19A_2 1_555 1_555
Mo3A O3A 1_555 1_555
Mo3A O15A 1_555 1_555
Mo3A O17A 1_555 1_555
Mo3_2 O5A_2 1_555 1_555
Mo3_2 O14A 1_555 1_555
Mo3_2 O17_2 1_555 1_555
Mo3A_2 O5_2 1_555 1_555
Mo3A_2 O17A_2 1_555 1_555
Mo4A O11A 1_555 1_555
Mo4A O21A_2 1_555 1_555
Mo4A_2 O11A_2 1_555 1_555
Mo4A_2 O21A 1_555 1_555
Mo5A O1A 1_555 1_555
Mo5A O3A 1_555 1_555
Mo5A O7A 1_555 1_555
Mo5A O22A 1_555 1_555
Mo5_2 O3_2 1_555 1_555
Mo5_2 O7_2 1_555 1_555
Mo5_2 O13A 1_555 1_555
Mo5_2 O22_2 1_555 1_555
Mo5A_2 O3A_2 1_555 1_555
Mo5A_2 O22A_2 1_555 1_555
Mo6A O1A 1_555 1_555
Mo6A O5A 1_555 1_555
Mo6A O10A 1_555 1_555
Mo6A O20A 1_555 1_555
Mo6_2 O5_2 1_555 1_555
Mo6_2 O12A_2 1_555 1_555
Mo6_2 O20_2 1_555 1_555
Mo6A_2 O5A_2 1_555 1_555
Mo6A_2 O10A_2 1_555 1_555
Mo6A_2 O15_2 1_555 1_555
Ag1A O23A 1_555 1_555
O1A O3A 1_555 1_555
O1A O5A 1_555 1_555
O1_2 O5_2 1_555 1_555
O1A_2 O3A_2 1_555 1_555
O1A_2 O5A_2 1_555 1_555
O3_2 O5A_2 1_555 1_555
O3A_2 O5_2 1_555 1_555
C4A C5A 1_555 1_555
C5A C6A 1_555 1_555
C9A C10A 1_555 1_555
C14A C15A 1_555 1_555
C15A C16A 1_555 1_555
C19A C20A 1_555 1_555

#END
