
#######################################################################
#
#                 Cambridge Crystallographic Data Centre
#                                CCDC 
#
#######################################################################
#
# If this CIF has been generated from an entry in the Cambridge 
# Structural Database, then it will include bibliographic, chemical, 
# crystal, experimental, refinement or atomic coordinate data resulting 
# from the CCDC's data processing and validation procedures.
#
#######################################################################

data_GUXQEW
_symmetry_cell_setting           tetragonal
_symmetry_space_group_name_H-M   'P 4'
_symmetry_Int_Tables_number      75
_space_group_name_Hall           'P 4'
loop_
_symmetry_equiv_pos_site_id
_symmetry_equiv_pos_as_xyz
1 x,y,z
2 -y,x,z
3 -x,-y,z
4 y,-x,z
_cell_length_a                   15.9394(4)
_cell_length_b                   15.9394(4)
_cell_length_c                   6.0101(3)
_cell_angle_alpha                90
_cell_angle_beta                 90
_cell_angle_gamma                90
_cell_volume                     1526.95
loop_
_atom_site_label
_atom_site_type_symbol
_atom_site_fract_x
_atom_site_fract_y
_atom_site_fract_z
Cl1 Cl 0.5000 -0.5000 -0.1364(3)
O3 O 0.5000 -0.5000 0.0878(6)
H14 H 0.4944 -0.5478 0.1489
O4 O 0.5748(6) -0.5175(5) -0.2684(18)
H14A H 0.5478 -0.5056 0.1489
H14B H 0.5056 -0.4522 0.1489
H14C H 0.4522 -0.4944 0.1489
O4A O 0.5175(5) -0.4252(6) -0.2684(18)
O4B O 0.4252(6) -0.4825(5) -0.2684(18)
O4C O 0.4825(5) -0.5748(6) -0.2684(18)
Cl2 Cl 0.0000 -1.0000 -0.5174(2)
O5 O 0.0000 -1.0000 -0.7442(9)
H15 H -0.0475 -0.9969 -0.8079
O6 O 0.0522(7) -0.9479(6) -0.3723(18)
O7 O 0.0721(6) -0.9884(8) -0.4011(19)
H15A H -0.0031 -1.0475 -0.8079
H15B H 0.0475 -1.0031 -0.8079
H15C H 0.0031 -0.9525 -0.8079
O6A O -0.0521(6) -0.9478(7) -0.3723(18)
O6B O -0.0522(7) -1.0521(6) -0.3723(18)
O6C O 0.0521(6) -1.0522(7) -0.3723(18)
O7A O -0.0116(8) -0.9279(6) -0.4011(19)
O7B O -0.0721(6) -1.0116(8) -0.4011(19)
O7C O 0.0116(8) -1.0721(6) -0.4011(19)
Zn1 Zn -0.119990(17) 0.233400(17) 0.02233(7)
O1 O -0.11972(12) 0.22446(12) -0.3134(4)
O2 O -0.12716(15) 0.25972(14) -0.6517(5)
N1 N -0.19701(14) 0.32936(14) -0.1076(4)
N2 N -0.19360(14) 0.13254(14) 0.0554(5)
N3 N -0.16738(14) 0.05465(14) 0.0036(7)
N4 N -0.23210(13) 0.00469(13) 0.0479(5)
N5 N -0.30012(15) 0.04951(15) 0.1187(4)
C1 C -0.32611(18) 0.2663(2) 0.0814(6)
C2 C -0.32209(18) 0.1899(2) 0.1938(5)
C3 C -0.37183(17) 0.1764(2) 0.3828(6)
H1 H -0.3698 0.1252 0.4569
C4 C -0.42455(18) 0.24037(19) 0.4592(5)
H2 H -0.4574 0.2316 0.5849
C5 C -0.42832(18) 0.3175(2) 0.3484(7)
H3 H -0.4635 0.3598 0.4001
C6 C -0.37825(19) 0.3308(2) 0.1572(6)
H4 H -0.3800 0.3819 0.0826
C7 C -0.28313(17) 0.29149(17) -0.1210(5)
H5 H -0.3189 0.3315 -0.1970
H6 H -0.2793 0.2424 -0.2158
C8 C -0.27468(19) 0.12678(18) 0.1191(6)
C9 C -0.19486(18) 0.41192(16) 0.0211(7)
H7 H -0.1989 0.4024 0.1802
H8 H -0.2399 0.4490 -0.0252
C10 C -0.10917(19) 0.44763(18) -0.0420(6)
H9 H -0.0665 0.4299 0.0631
H10 H -0.1107 0.5085 -0.0456
C11 C -0.09128(18) 0.41153(17) -0.2768(6)
H11 H -0.0886 0.4564 -0.3856
H12 H -0.0382 0.3818 -0.2778
C12 C -0.16265(18) 0.35217(18) -0.3311(6)
H13 H -0.2056 0.3822 -0.4163
C13 C -0.13533(16) 0.27480(17) -0.4590(7)
Zn1A Zn -0.233400(17) -0.119990(17) 0.02233(7)
Zn1_2 Zn -0.119990(17) 0.233400(17) -0.97767(7)
O2_2 O -0.12716(15) 0.25972(14) 0.3483(5)
N4C N 0.00469(13) 0.23210(13) 0.0479(5)
loop_
_geom_bond_atom_site_label_1
_geom_bond_atom_site_label_2
_geom_bond_site_symmetry_1
_geom_bond_site_symmetry_2
Zn1 O1 1_555 1_555
O1 C13 1_555 1_555
O2 C13 1_555 1_555
N1 Zn1 1_555 1_555
N2 Zn1 1_555 1_555
N3 N2 1_555 1_555
N4 N3 1_555 1_555
N5 N4 1_555 1_555
C1 C2 1_555 1_555
C2 C3 1_555 1_555
C3 H1 1_555 1_555
C4 C3 1_555 1_555
H2 C4 1_555 1_555
C5 C4 1_555 1_555
H3 C5 1_555 1_555
C6 C1 1_555 1_555
H4 C6 1_555 1_555
C7 N1 1_555 1_555
H5 C7 1_555 1_555
H6 C7 1_555 1_555
C8 N2 1_555 1_555
C9 N1 1_555 1_555
H7 C9 1_555 1_555
H8 C9 1_555 1_555
C10 C9 1_555 1_555
H9 C10 1_555 1_555
H10 C10 1_555 1_555
C11 C10 1_555 1_555
H11 C11 1_555 1_555
H12 C11 1_555 1_555
C12 N1 1_555 1_555
H13 C12 1_555 1_555
C13 C12 1_555 1_555
Cl1 O3 1_555 1_555
O3 H14 1_555 1_555
O4 Cl1 1_555 1_555
Cl2 O5 1_555 1_555
O5 H15 1_555 1_555
O6 Cl2 1_555 1_555
O7 Cl2 1_555 1_555
Zn1A N4 1_555 1_555
Zn1_2 O2 1_555 1_555
O2_2 Zn1 1_555 1_555
N4C Zn1 1_555 1_555
H14A O3 1_555 1_555
H14B O3 1_555 1_555
H14C O3 1_555 1_555
O4A Cl1 1_555 1_555
O4B Cl1 1_555 1_555
O4C Cl1 1_555 1_555
H15A O5 1_555 1_555
H15B O5 1_555 1_555
H15C O5 1_555 1_555
O6A Cl2 1_555 1_555
O6B Cl2 1_555 1_555
O6C Cl2 1_555 1_555
O7A Cl2 1_555 1_555
O7B Cl2 1_555 1_555
O7C Cl2 1_555 1_555
N5 C8 1_555 1_555
C1 C7 1_555 1_555
C2 C8 1_555 1_555
C5 C6 1_555 1_555
C11 C12 1_555 1_555
O4 O4A 1_555 1_555
O4 O4C 1_555 1_555
O6 O7 1_555 1_555
O6 O6A 1_555 1_555
O6 O6C 1_555 1_555
O6 O7A 1_555 1_555
O7 O6C 1_555 1_555
O7 O7A 1_555 1_555
O7 O7C 1_555 1_555
O4A O4B 1_555 1_555
O4B O4C 1_555 1_555
O6A O6B 1_555 1_555
O6A O7A 1_555 1_555
O6A O7B 1_555 1_555
O6B O6C 1_555 1_555
O6B O7B 1_555 1_555
O6B O7C 1_555 1_555
O6C O7C 1_555 1_555
O7A O7B 1_555 1_555
O7B O7C 1_555 1_555

#END
