
#######################################################################
#
#                 Cambridge Crystallographic Data Centre
#                                CCDC 
#
#######################################################################
#
# If this CIF has been generated from an entry in the Cambridge 
# Structural Database, then it will include bibliographic, chemical, 
# crystal, experimental, refinement or atomic coordinate data resulting 
# from the CCDC's data processing and validation procedures.
#
#######################################################################

data_GUXQEW01
_symmetry_cell_setting           tetragonal
_symmetry_space_group_name_H-M   'P 4'
_symmetry_Int_Tables_number      75
_space_group_name_Hall           'P 4'
loop_
_symmetry_equiv_pos_site_id
_symmetry_equiv_pos_as_xyz
1 x,y,z
2 -y,x,z
3 -x,-y,z
4 y,-x,z
_cell_length_a                   15.9503(13)
_cell_length_b                   15.9503(13)
_cell_length_c                   6.0016(7)
_cell_angle_alpha                90
_cell_angle_beta                 90
_cell_angle_gamma                90
_cell_volume                     1526.88
loop_
_atom_site_label
_atom_site_type_symbol
_atom_site_fract_x
_atom_site_fract_y
_atom_site_fract_z
Cl1 Cl 0.5000 -0.5000 -0.1356(3)
O3 O 0.5000 -0.5000 0.0828(7)
D1 D 0.4944 -0.5478 0.1439(7)
O4 O 0.5700(9) -0.4905(9) -0.248(3)
D1A D 0.5478 -0.5056 0.1439(7)
D1B D 0.5056 -0.4522 0.1439(7)
D1C D 0.4522 -0.4944 0.1439(7)
O4A O 0.4905(9) -0.4300(9) -0.248(3)
O4B O 0.4300(9) -0.5095(9) -0.248(3)
O4C O 0.5095(9) -0.5700(9) -0.248(3)
Cl2 Cl 0.0000 -1.0000 -0.5192(3)
O5 O 0.0000 -1.0000 -0.7435(8)
D2 D -0.0475 -0.9969 -0.8072(8)
O6 O 0.0476(8) -1.0488(8) -0.3753(18)
D2A D -0.0031 -1.0475 -0.8072(8)
D2B D 0.0475 -1.0031 -0.8072(8)
D2C D 0.0031 -0.9525 -0.8072(8)
O6A O 0.0488(8) -0.9524(8) -0.3753(18)
O6B O -0.0476(8) -0.9512(8) -0.3753(18)
O6C O -0.0488(8) -1.0476(8) -0.3753(18)
Zn1 Zn -0.120040(19) 0.233420(19) 0.02250(7)
O1 O -0.11905(14) 0.22389(13) -0.3132(4)
O2 O -0.12743(15) 0.25957(14) -0.6486(4)
N1 N -0.19703(15) 0.32933(15) -0.1083(4)
N2 N -0.19313(15) 0.13231(15) 0.0586(4)
N3 N -0.16579(14) 0.05491(14) 0.0059(6)
N4 N -0.23271(14) 0.00398(14) 0.0483(5)
N5 N -0.30128(16) 0.04933(16) 0.1179(4)
C1 C -0.3276(2) 0.2655(2) 0.0788(5)
C2 C -0.3207(2) 0.1902(2) 0.1913(5)
C3 C -0.37164(19) 0.1770(2) 0.3822(5)
H1 H -0.3695 0.1258 0.4559
C4 C -0.4252(2) 0.2403(2) 0.4611(5)
H2 H -0.4580 0.2313 0.5870
C5 C -0.4288(2) 0.3184(2) 0.3457(6)
H3 H -0.4647 0.3606 0.3941
C6 C -0.3777(2) 0.3310(2) 0.1587(6)
H4 H -0.3770 0.3828 0.0877
C7 C -0.28303(19) 0.29139(19) -0.1236(5)
H5 H -0.3185 0.3315 -0.2004
H6 H -0.2788 0.2425 -0.2191
C8 C -0.2745(2) 0.1262(2) 0.1191(5)
C9 C -0.19465(19) 0.41204(18) 0.0230(7)
H7 H -0.2403 0.4489 -0.0199
H8 H -0.1970 0.4022 0.1823
C10 C -0.1102(2) 0.4477(2) -0.0464(6)
H9 H -0.1125 0.5084 -0.0519
H10 H -0.0670 0.4312 0.0587
C11 C -0.0914(2) 0.4123(2) -0.2757(6)
H11 H -0.0385 0.3822 -0.2745
H12 H -0.0880 0.4570 -0.3847
C12 C -0.1635(2) 0.3527(2) -0.3332(6)
H13 H -0.2065 0.3827 -0.4181
C13 C -0.13532(18) 0.27565(19) -0.4612(7)
Zn1A Zn -0.233420(19) -0.120040(19) 0.02250(7)
Zn1_2 Zn -0.120040(19) 0.233420(19) -0.97750(7)
O2_2 O -0.12743(15) 0.25957(14) 0.3514(4)
N4C N 0.00398(14) 0.23271(14) 0.0483(5)
O7? O 0.0722(7) -0.9999(8) -0.382(2)
O8? O 0.0715(9) -0.9924(10) -0.397(2)
loop_
_geom_bond_atom_site_label_1
_geom_bond_atom_site_label_2
_geom_bond_site_symmetry_1
_geom_bond_site_symmetry_2
Zn1 O1 1_555 1_555
O1 C13 1_555 1_555
O2 C13 1_555 1_555
N1 Zn1 1_555 1_555
N2 Zn1 1_555 1_555
N3 N2 1_555 1_555
N4 N3 1_555 1_555
N5 N4 1_555 1_555
C1 C2 1_555 1_555
C2 C3 1_555 1_555
C3 H1 1_555 1_555
C4 C3 1_555 1_555
H2 C4 1_555 1_555
C5 C4 1_555 1_555
H3 C5 1_555 1_555
C6 C1 1_555 1_555
H4 C6 1_555 1_555
C7 N1 1_555 1_555
H5 C7 1_555 1_555
H6 C7 1_555 1_555
C8 N2 1_555 1_555
C9 N1 1_555 1_555
H7 C9 1_555 1_555
H8 C9 1_555 1_555
C10 C9 1_555 1_555
H9 C10 1_555 1_555
H10 C10 1_555 1_555
C11 C10 1_555 1_555
H11 C11 1_555 1_555
H12 C11 1_555 1_555
C12 N1 1_555 1_555
H13 C12 1_555 1_555
C13 C12 1_555 1_555
Cl1 O3 1_555 1_555
O3 D1 1_555 1_555
O4 Cl1 1_555 1_555
Cl2 O5 1_555 1_555
O5 D2 1_555 1_555
O6 Cl2 1_555 1_555
Zn1A N4 1_555 1_555
Zn1_2 O2 1_555 1_555
O2_2 Zn1 1_555 1_555
N4C Zn1 1_555 1_555
D1A O3 1_555 1_555
D1B O3 1_555 1_555
D1C O3 1_555 1_555
O4A Cl1 1_555 1_555
O4B Cl1 1_555 1_555
O4C Cl1 1_555 1_555
D2A O5 1_555 1_555
D2B O5 1_555 1_555
D2C O5 1_555 1_555
O6A Cl2 1_555 1_555
O6B Cl2 1_555 1_555
O6C Cl2 1_555 1_555
N5 C8 1_555 1_555
C1 C7 1_555 1_555
C2 C8 1_555 1_555
C5 C6 1_555 1_555
C11 C12 1_555 1_555
O4 O4A 1_555 1_555
O4 O4C 1_555 1_555
O6 O6A 1_555 1_555
O6 O6C 1_555 1_555
O4A O4B 1_555 1_555
O4B O4C 1_555 1_555
O6A O6B 1_555 1_555
O6B O6C 1_555 1_555

#END
