
#######################################################################
#
#                 Cambridge Crystallographic Data Centre
#                                CCDC 
#
#######################################################################
#
# If this CIF has been generated from an entry in the Cambridge 
# Structural Database, then it will include bibliographic, chemical, 
# crystal, experimental, refinement or atomic coordinate data resulting 
# from the CCDC's data processing and validation procedures.
#
#######################################################################

data_GUXSOI
_symmetry_cell_setting           triclinic
_symmetry_space_group_name_H-M   'P -1'
_symmetry_Int_Tables_number      2
_space_group_name_Hall           '-P 1'
loop_
_symmetry_equiv_pos_site_id
_symmetry_equiv_pos_as_xyz
1 x,y,z
2 -x,-y,-z
_cell_length_a                   8.7088(4)
_cell_length_b                   14.9170(8)
_cell_length_c                   15.9485(7)
_cell_angle_alpha                86.067(2)
_cell_angle_beta                 79.917(2)
_cell_angle_gamma                81.642(3)
_cell_volume                     2016.21
loop_
_atom_site_label
_atom_site_type_symbol
_atom_site_fract_x
_atom_site_fract_y
_atom_site_fract_z
Er1 Er 0.386009(18) 0.102608(11) 0.295485(10)
Er2 Er 0.147204(18) 0.195968(11) 0.133527(10)
Er3 Er 0.422380(18) 0.340306(11) 0.201694(10)
Er4 Er 0.060367(18) 0.289611(11) 0.359448(10)
O1 O 0.2415(3) -0.0242(2) 0.33559(19)
H1 H 0.1322(17) -0.019(3) 0.335(3)
H2 H 0.267(5) -0.059(3) 0.385(2)
O2 O 0.6406(3) 0.14164(19) 0.28365(18)
H3 H 0.672(5) 0.1992(15) 0.286(3)
H4 H 0.714(4) 0.107(2) 0.243(2)
O3 O 0.3410(3) 0.0986(2) 0.04275(17)
H5 H 0.391(5) 0.102(3) -0.0149(10)
H6 H 0.400(4) 0.054(2) 0.074(2)
O4 O 0.3923(3) 0.19505(17) 0.17120(16)
H7 H 0.477(4) 0.178(3) 0.127(2)
O5 O 0.3402(3) 0.26091(17) 0.32548(16)
H8 H 0.382(5) 0.275(3) 0.3729(19)
O6 O 0.1310(3) 0.16044(17) 0.28207(16)
H9 H 0.067(4) 0.115(2) 0.298(3)
O7 O 0.1494(3) 0.32565(17) 0.21237(16)
H10 H 0.090(5) 0.3773(19) 0.190(3)
O8 O 0.4675(3) 0.00942(18) 0.17789(16)
O9 O 0.5635(3) -0.12678(19) 0.12480(17)
O10 O 0.6705(3) -0.10624(19) 0.56098(17)
O11 O 0.8428(3) -0.2276(2) 0.51653(17)
O12 O 0.0639(3) 0.05825(19) 0.16937(17)
O13 O -0.1767(4) 0.0198(2) 0.1835(2)
O14 O 0.3515(3) -0.27885(18) -0.11079(16)
O15 O 0.1109(3) -0.26295(19) -0.14506(17)
O16 O 0.3815(3) 0.66240(18) -0.28860(16)
O17 O 0.1521(3) 0.62395(19) -0.31074(17)
O18 O 0.3690(3) 0.38997(19) 0.06736(17)
O19 O 0.2136(3) 0.30009(19) 0.02518(17)
O20 O 0.1214(4) 0.8094(2) 0.58994(18)
O21 O 0.2794(4) 0.8731(2) 0.4844(2)
O22 O 0.1289(3) 0.42930(19) 0.38230(17)
O23 O 0.3072(3) 0.46888(19) 0.27288(18)
N1 N 0.5606(4) -0.0388(2) 0.32562(19)
N2 N -0.0068(4) -0.1589(2) -0.0130(2)
N3 N 0.3954(4) 0.5388(2) -0.16000(19)
N4 N 0.1336(4) 0.6611(2) 0.50647(19)
C1 C 0.5384(4) -0.0714(3) 0.1825(2)
C2 C 0.5967(4) -0.1009(3) 0.2656(2)
C3 C 0.6816(5) -0.1858(3) 0.2778(2)
H11 H 0.7032 -0.2284 0.2342
C4 C 0.7340(5) -0.2069(3) 0.3552(2)
H12 H 0.7947 -0.2637 0.3649
C5 C 0.6961(4) -0.1435(3) 0.4184(2)
C6 C 0.6101(4) -0.0599(3) 0.4001(2)
H13 H 0.5858 -0.0160 0.4426
C7 C 0.7407(4) -0.1611(3) 0.5054(2)
C8 C -0.0331(5) 0.0083(3) 0.1555(2)
C9 C 0.0334(4) -0.0700(3) 0.0991(2)
C10 C 0.1896(5) -0.1066(3) 0.0907(3)
H14 H 0.2563 -0.0887 0.1258
C11 C 0.2471(4) -0.1707(3) 0.0295(3)
H15 H 0.3531 -0.1991 0.0234
C12 C 0.1472(4) -0.1922(2) -0.0226(2)
C13 C -0.0623(4) -0.0999(3) 0.0482(2)
H16 H -0.1714 -0.0775 0.0574
C14 C 0.2086(4) -0.2502(2) -0.0985(2)
C15 C 0.2705(4) 0.6148(3) -0.2738(2)
C16 C 0.2771(4) 0.5411(3) -0.2050(2)
C17 C 0.1660(5) 0.4820(3) -0.1858(3)
H17 H 0.0876 0.4825 -0.2205
C18 C 0.1704(5) 0.4218(3) -0.1150(3)
H18 H 0.0949 0.3808 -0.1006
C19 C 0.2868(5) 0.4228(3) -0.0663(2)
C20 C 0.3991(4) 0.4809(3) -0.0927(2)
H19 H 0.4827 0.4792 -0.0613
C21 C 0.2904(4) 0.3660(3) 0.0151(2)
C22 C 0.2054(5) 0.8102(3) 0.5166(3)
C23 C 0.2166(5) 0.7259(3) 0.4664(3)
C24 C 0.3046(6) 0.7164(3) 0.3853(3)
H20 H 0.3613 0.7634 0.3586
C25 C 0.3084(6) 0.6367(3) 0.3437(3)
H21 H 0.3669 0.6287 0.2880
C26 C 0.2249(5) 0.5690(3) 0.3852(3)
C27 C 0.1394(4) 0.5857(3) 0.4658(2)
H22 H 0.0810 0.5400 0.4938
C28 C 0.2196(5) 0.4822(3) 0.3438(2)
Er1A Er 0.613991(18) -0.102608(11) 0.704515(10)
Er2A Er -0.147204(18) -0.195968(11) -0.133527(10)
Er3A Er 0.577620(18) -0.340306(11) -0.201694(10)
Er3A_2 Er 0.577620(18) 0.659694(11) -0.201694(10)
Er4A Er 0.939633(18) -0.289611(11) 0.640552(10)
Er4A_2 Er -0.060367(18) 0.710389(11) -0.359448(10)
Er4A_3 Er -0.060367(18) 0.710389(11) 0.640552(10)
O10A O 0.3295(3) 0.10624(19) 0.43902(17)
O11A O 0.1572(3) 0.2276(2) 0.48347(17)
O14A O 0.6485(3) 0.27885(18) 0.11079(16)
O15A O -0.1109(3) 0.26295(19) 0.14506(17)
O16A O 0.6185(3) 0.33760(18) 0.28860(16)
O17A O -0.1521(3) 0.37605(19) 0.31074(17)
O20A O -0.1214(4) 0.1906(2) 0.41006(18)
N2A N 0.0068(4) 0.1589(2) 0.0130(2)
N3A N 0.6046(4) 0.4612(2) 0.16000(19)
N4A N -0.1336(4) 0.3389(2) 0.49353(19)
O24 O -0.0719(4) 0.0098(3) 0.3614(2)
H23 H -0.033(6) -0.009(4) 0.4140(19)
H24 H -0.147(6) 0.063(3) 0.374(3)
loop_
_geom_bond_atom_site_label_1
_geom_bond_atom_site_label_2
_geom_bond_site_symmetry_1
_geom_bond_site_symmetry_2
Er1 O1 1_555 1_555
Er2 O3 1_555 1_555
Er3 O4 1_555 1_555
Er4 O5 1_555 1_555
O1 H1 1_555 1_555
H2 O1 1_555 1_555
O2 Er1 1_555 1_555
H3 O2 1_555 1_555
H4 O2 1_555 1_555
O3 H5 1_555 1_555
H6 O3 1_555 1_555
O4 Er1 1_555 1_555
H7 O4 1_555 1_555
O5 Er1 1_555 1_555
H8 O5 1_555 1_555
O6 Er1 1_555 1_555
H9 O6 1_555 1_555
O7 Er2 1_555 1_555
H10 O7 1_555 1_555
O8 Er1 1_555 1_555
O9 C1 1_555 1_555
O10 C7 1_555 1_555
O11 C7 1_555 1_555
O12 Er2 1_555 1_555
O13 C8 1_555 1_555
O14 C14 1_555 1_555
O15 C14 1_555 1_555
O16 C15 1_555 1_555
O17 C15 1_555 1_555
O18 Er3 1_555 1_555
O19 Er2 1_555 1_555
O20 C22 1_555 1_555
O21 C22 1_555 1_555
O22 Er4 1_555 1_555
O23 Er3 1_555 1_555
N1 Er1 1_555 1_555
N2 C12 1_555 1_555
N3 C16 1_555 1_555
N4 C23 1_555 1_555
C1 O8 1_555 1_555
C2 N1 1_555 1_555
C3 C2 1_555 1_555
H11 C3 1_555 1_555
C4 C3 1_555 1_555
H12 C4 1_555 1_555
C5 C4 1_555 1_555
C6 N1 1_555 1_555
H13 C6 1_555 1_555
C7 C5 1_555 1_555
C8 O12 1_555 1_555
C9 C8 1_555 1_555
C10 C9 1_555 1_555
H14 C10 1_555 1_555
C11 C10 1_555 1_555
H15 C11 1_555 1_555
C12 C11 1_555 1_555
C13 N2 1_555 1_555
H16 C13 1_555 1_555
C14 C12 1_555 1_555
C15 C16 1_555 1_555
C16 C17 1_555 1_555
C17 H17 1_555 1_555
C18 C17 1_555 1_555
H18 C18 1_555 1_555
C19 C18 1_555 1_555
C20 N3 1_555 1_555
H19 C20 1_555 1_555
C21 O18 1_555 1_555
C22 C23 1_555 1_555
C23 C24 1_555 1_555
C24 H20 1_555 1_555
C25 C24 1_555 1_555
H21 C25 1_555 1_555
C26 C25 1_555 1_555
C27 N4 1_555 1_555
H22 C27 1_555 1_555
C28 O22 1_555 1_555
O24 H23 1_555 1_555
H24 O24 1_555 1_555
Er1A O10 1_555 1_555
Er2A O15 1_555 1_555
Er3A O14 1_555 1_555
Er3A_2 O16 1_555 1_555
Er4A O11 1_555 1_555
Er4A_2 O17 1_555 1_555
Er4A_3 O20 1_555 1_555
O10A Er1 1_555 1_555
O11A Er4 1_555 1_555
O14A Er3 1_555 1_555
O15A Er2 1_555 1_555
O16A Er3 1_555 1_555
O17A Er4 1_555 1_555
O20A Er4 1_555 1_555
N2A Er2 1_555 1_555
N3A Er3 1_555 1_555
N4A Er4 1_555 1_555
Er2 O4 1_555 1_555
Er2 O6 1_555 1_555
Er3 O5 1_555 1_555
Er3 O7 1_555 1_555
Er4 O6 1_555 1_555
Er4 O7 1_555 1_555
O19 C21 1_555 1_555
O23 C28 1_555 1_555
N2 Er2A 1_555 1_555
N3 Er3A_2 1_555 1_555
N4 Er4A_3 1_555 1_555
C1 C2 1_555 1_555
C5 C6 1_555 1_555
C9 C13 1_555 1_555
C19 C20 1_555 1_555
C19 C21 1_555 1_555
C26 C27 1_555 1_555
C26 C28 1_555 1_555

#END
