
#######################################################################
#
#                 Cambridge Crystallographic Data Centre
#                                CCDC 
#
#######################################################################
#
# If this CIF has been generated from an entry in the Cambridge 
# Structural Database, then it will include bibliographic, chemical, 
# crystal, experimental, refinement or atomic coordinate data resulting 
# from the CCDC's data processing and validation procedures.
#
#######################################################################

data_GUXSUO
_symmetry_cell_setting           rhombohedral
_symmetry_space_group_name_H-M   'R -3'
_symmetry_Int_Tables_number      148
_space_group_name_Hall           '-R 3'
loop_
_symmetry_equiv_pos_site_id
_symmetry_equiv_pos_as_xyz
1 x,y,z
2 -y,x-y,z
3 -x+y,-x,z
4 2/3+x,1/3+y,1/3+z
5 2/3-y,1/3+x-y,1/3+z
6 2/3-x+y,1/3-x,1/3+z
7 1/3+x,2/3+y,2/3+z
8 1/3-y,2/3+x-y,2/3+z
9 1/3-x+y,2/3-x,2/3+z
10 -x,-y,-z
11 y,-x+y,-z
12 x-y,x,-z
13 1/3-x,2/3-y,2/3-z
14 1/3+y,2/3-x+y,2/3-z
15 1/3+x-y,2/3+x,2/3-z
16 2/3-x,1/3-y,1/3-z
17 2/3+y,1/3-x+y,1/3-z
18 2/3+x-y,1/3+x,1/3-z
_cell_length_a                   22.6389(6)
_cell_length_b                   22.6389(6)
_cell_length_c                   9.3466(5)
_cell_angle_alpha                90
_cell_angle_beta                 90
_cell_angle_gamma                120
_cell_volume                     4148.54
loop_
_atom_site_label
_atom_site_type_symbol
_atom_site_fract_x
_atom_site_fract_y
_atom_site_fract_z
Pr1 Pr 0.081463(3) 0.123661(3) 0.325500(7)
Pr2 Pr 0.0000 0.0000 0.0000
O1 O 0.0000 0.0000 0.24450(14)
O2 O -0.03546(5) 0.07018(5) 0.41425(10)
H1 H -0.0498(13) 0.0910(13) 0.348(2)
O3 O -0.10167(5) 0.01230(5) 0.08445(10)
O4 O -0.12834(6) 0.01673(5) -0.14454(10)
O5 O -0.43802(6) -0.19224(5) 0.25149(11)
O6 O -0.46810(7) -0.15140(5) 0.06535(14)
N1 N -0.23290(5) -0.06558(5) 0.15227(10)
C1 C -0.14358(6) -0.00062(6) -0.01732(12)
C2 C -0.21819(7) -0.04032(6) 0.01919(12)
C3 C -0.26737(11) -0.04925(7) -0.08075(16)
H2 H -0.2547 -0.0305 -0.1741
C4 C -0.33548(11) -0.08628(7) -0.04065(17)
H3 H -0.3705 -0.0931 -0.1061
C5 C -0.35167(7) -0.11325(6) 0.09686(14)
C6 C -0.29862(6) -0.10099(6) 0.18967(12)
H4 H -0.3097 -0.1187 0.2842
C7 C -0.42519(7) -0.15588(6) 0.14228(14)
Pr1I Pr -0.081463(3) -0.123661(3) -0.325500(7)
Pr1B Pr 0.042198(4) -0.081463(3) 0.325500(7)
Pr1K Pr -0.042198(4) 0.081463(3) -0.325500(7)
Pr1A Pr -0.123661(3) -0.042198(4) 0.325500(7)
Pr1J Pr 0.123661(3) 0.042198(4) -0.325500(7)
Pr1K_2 Pr -0.042198(4) 0.081463(3) 0.674500(7)
Pr1M Pr -0.543006(3) -0.291135(4) 0.341167(7)
Pr1F Pr -0.585204(3) -0.209672(3) -0.007833(7)
Pr1N Pr 0.291135(4) -0.251870(3) 0.341167(7)
Pr1G Pr 0.209672(3) -0.375531(4) -0.007833(7)
Pr1C Pr -0.251870(3) -0.543006(3) -0.341167(7)
Pr1Q Pr -0.375531(4) -0.585204(3) 0.007833(7)
Pr1D Pr 0.543006(3) 0.291135(4) -0.341167(7)
Pr1O Pr 0.585204(3) 0.209672(3) 0.007833(7)
Pr1E Pr -0.291135(4) 0.251870(3) -0.341167(7)
Pr1P Pr -0.209672(3) 0.375531(4) 0.007833(7)
Pr1L Pr 0.251870(3) 0.543006(3) 0.341167(7)
Pr1H Pr 0.375531(4) 0.585204(3) -0.007833(7)
Pr1J_2 Pr 0.123661(3) 0.042198(4) 0.674500(7)
Pr1B_2 Pr 0.042198(4) -0.081463(3) -0.674500(7)
Pr1A_2 Pr -0.123661(3) -0.042198(4) -0.674500(7)
O1I O 0.0000 0.0000 -0.24450(14)
O2B O 0.10564(7) 0.03546(5) 0.41425(10)
O2J O 0.07018(5) 0.10564(7) 0.58575(10)
O2I O 0.03546(5) -0.07018(5) -0.41425(10)
O2K O -0.10564(7) -0.03546(5) -0.41425(10)
O2A O -0.07018(5) -0.10564(7) -0.58575(10)
O2A_2 O -0.07018(5) -0.10564(7) 0.41425(10)
O2I_2 O 0.03546(5) -0.07018(5) 0.58575(10)
O2J_2 O 0.07018(5) 0.10564(7) -0.41425(10)
O2_2 O -0.03546(5) 0.07018(5) -0.58575(10)
O2K_2 O -0.10564(7) -0.03546(5) 0.58575(10)
O2B_2 O 0.10564(7) 0.03546(5) -0.58575(10)
H1B H 0.1408(18) 0.0498(13) 0.348(2)
H1J H 0.0910(13) 0.1408(18) 0.652(2)
H1I H 0.0498(13) -0.0910(13) -0.348(2)
H1K H -0.1408(18) -0.0498(13) -0.348(2)
H1A H -0.0910(13) -0.1408(18) -0.652(2)
H1A_2 H -0.0910(13) -0.1408(18) 0.348(2)
H1I_2 H 0.0498(13) -0.0910(13) 0.652(2)
H1J_2 H 0.0910(13) 0.1408(18) -0.348(2)
H1_2 H -0.0498(13) 0.0910(13) -0.652(2)
H1K_2 H -0.1408(18) -0.0498(13) 0.652(2)
H1B_2 H 0.1408(18) 0.0498(13) -0.652(2)
O3A O -0.01230(5) -0.11397(7) 0.08445(10)
O3K O -0.11397(7) -0.10167(5) -0.08445(10)
O3I O 0.10167(5) -0.01230(5) -0.08445(10)
O3J O 0.01230(5) 0.11397(7) -0.08445(10)
O3B O 0.11397(7) 0.10167(5) 0.08445(10)
O4A O -0.01673(5) -0.14507(8) -0.14454(10)
O4K O -0.14507(8) -0.12834(6) 0.14454(10)
O4I O 0.12834(6) -0.01673(5) 0.14454(10)
O4J O 0.01673(5) 0.14507(8) 0.14454(10)
O4B O 0.14507(8) 0.12834(6) -0.14454(10)
O5A O 0.19224(5) -0.24578(8) 0.25149(11)
O5K O -0.24578(8) -0.43802(6) -0.25149(11)
O5I O 0.43802(6) 0.19224(5) -0.25149(11)
O5J O -0.19224(5) 0.24578(8) -0.25149(11)
O5B O 0.24578(8) 0.43802(6) 0.25149(11)
O5N O 0.08755(8) 0.22865(6) 0.41518(11)
O5E O -0.08755(8) -0.22865(6) -0.41518(11)
O5M O 0.14109(5) -0.08755(8) 0.41518(11)
O5D O -0.14109(5) 0.08755(8) -0.41518(11)
O5L O -0.22865(6) -0.14109(5) 0.41518(11)
O5C O 0.22865(6) 0.14109(5) -0.41518(11)
O6A O 0.15140(5) -0.31670(9) 0.06535(14)
O6K O -0.31670(9) -0.46810(7) -0.06535(14)
O6I O 0.46810(7) 0.15140(5) -0.06535(14)
O6J O -0.15140(5) 0.31670(9) -0.06535(14)
O6B O 0.31670(9) 0.46810(7) 0.06535(14)
O6C O 0.19857(7) 0.18193(5) 0.39868(14)
O6L O -0.19857(7) -0.18193(5) -0.39868(14)
O6E O -0.01663(9) -0.19857(7) 0.39868(14)
O6N O 0.01663(9) 0.19857(7) -0.39868(14)
O6D O -0.18193(5) 0.01663(9) 0.39868(14)
O6M O 0.18193(5) -0.01663(9) -0.39868(14)
N1A N 0.06558(5) -0.16732(7) 0.15227(10)
N1K N -0.16732(7) -0.23290(5) -0.15227(10)
N1I N 0.23290(5) 0.06558(5) -0.15227(10)
N1J N -0.06558(5) 0.16732(7) -0.15227(10)
N1B N 0.16732(7) 0.23290(5) 0.15227(10)
C1A C 0.00062(6) -0.14296(8) -0.01732(12)
C1K C -0.14296(8) -0.14358(6) 0.01732(12)
C1I C 0.14358(6) 0.00062(6) 0.01732(12)
C1J C -0.00062(6) 0.14296(8) 0.01732(12)
C1B C 0.14296(8) 0.14358(6) -0.01732(12)
C2A C 0.04032(6) -0.17787(9) 0.01919(12)
C2K C -0.17787(9) -0.21819(7) -0.01919(12)
C2I C 0.21819(7) 0.04032(6) -0.01919(12)
C2J C -0.04032(6) 0.17787(9) -0.01919(12)
C2B C 0.17787(9) 0.21819(7) 0.01919(12)
C3A C 0.04925(7) -0.21812(13) -0.08075(16)
C3K C -0.21812(13) -0.26737(11) 0.08075(16)
C3I C 0.26737(11) 0.04925(7) 0.08075(16)
C3J C -0.04925(7) 0.21812(13) 0.08075(16)
C3B C 0.21812(13) 0.26737(11) -0.08075(16)
H2A H 0.0305 -0.2242 -0.1741
H2K H -0.2242 -0.2547 0.1741
H2I H 0.2547 0.0305 0.1741
H2J H -0.0305 0.2242 0.1741
H2B H 0.2242 0.2547 -0.1741
C4A C 0.08628(7) -0.24920(13) -0.04065(17)
C4K C -0.24920(13) -0.33548(11) 0.04065(17)
C4I C 0.33548(11) 0.08628(7) 0.04065(17)
C4J C -0.08628(7) 0.24920(13) 0.04065(17)
C4B C 0.24920(13) 0.33548(11) -0.04065(17)
H3A H 0.0931 -0.2774 -0.1061
H3K H -0.2774 -0.3705 0.1061
H3I H 0.3705 0.0931 0.1061
H3J H -0.0931 0.2774 0.1061
H3B H 0.2774 0.3705 -0.1061
C5A C 0.11325(6) -0.23842(9) 0.09686(14)
C5K C -0.23842(9) -0.35167(7) -0.09686(14)
C5I C 0.35167(7) 0.11325(6) -0.09686(14)
C5J C -0.11325(6) 0.23842(9) -0.09686(14)
C5B C 0.23842(9) 0.35167(7) 0.09686(14)
C6A C 0.10099(6) -0.19763(8) 0.18967(12)
C6K C -0.19763(8) -0.29862(6) -0.18967(12)
C6I C 0.29862(6) 0.10099(6) -0.18967(12)
C6J C -0.10099(6) 0.19763(8) -0.18967(12)
C6B C 0.19763(8) 0.29862(6) 0.18967(12)
H4A H 0.1187 -0.1910 0.2842
H4K H -0.1910 -0.3097 -0.2842
H4I H 0.3097 0.1187 -0.2842
H4J H -0.1187 0.1910 -0.2842
H4B H 0.1910 0.3097 0.2842
C7A C 0.15588(6) -0.26931(9) 0.14228(14)
C7K C -0.26931(9) -0.42519(7) -0.14228(14)
C7I C 0.42519(7) 0.15588(6) -0.14228(14)
C7J C -0.15588(6) 0.26931(9) -0.14228(14)
C7B C 0.26931(9) 0.42519(7) 0.14228(14)
loop_
_geom_bond_atom_site_label_1
_geom_bond_atom_site_label_2
_geom_bond_site_symmetry_1
_geom_bond_site_symmetry_2
Pr1 O1 1_555 1_555
Pr2 O1 1_555 1_555
O1 Pr1B 1_555 1_555
O2 Pr1 1_555 1_555
H1 O2 1_555 1_555
O3 Pr2 1_555 1_555
O4 C1 1_555 1_555
O5 C7 1_555 1_555
O6 C7 1_555 1_555
N1 C2 1_555 1_555
C1 O3 1_555 1_555
C2 C1 1_555 1_555
C3 C2 1_555 1_555
H2 C3 1_555 1_555
C4 C3 1_555 1_555
H3 C4 1_555 1_555
C5 C4 1_555 1_555
C6 N1 1_555 1_555
H4 C6 1_555 1_555
C7 C5 1_555 1_555
Pr1I O1I 1_555 1_555
Pr1B O2B 1_555 1_555
Pr1K O4 1_555 1_555
Pr1A O1 1_555 1_555
Pr1J O1I 1_555 1_555
Pr1K_2 O2 1_555 1_555
Pr1M O5 1_555 1_555
Pr1F O6 1_555 1_555
Pr1N O5A 1_555 1_555
Pr1G O6A 1_555 1_555
Pr1C O5K 1_555 1_555
Pr1Q O6K 1_555 1_555
Pr1D O5I 1_555 1_555
Pr1O O6I 1_555 1_555
Pr1E O5J 1_555 1_555
Pr1P O6J 1_555 1_555
Pr1L O5B 1_555 1_555
Pr1H O6B 1_555 1_555
Pr1J_2 O2B 1_555 1_555
Pr1B_2 O2I 1_555 1_555
Pr1A_2 O2K 1_555 1_555
O1I Pr2 1_555 1_555
O2B Pr1 1_555 1_555
O2J Pr1 1_555 1_555
O2I Pr1I 1_555 1_555
O2K Pr1I 1_555 1_555
O2A Pr1I 1_555 1_555
O2A_2 Pr1B 1_555 1_555
O2I_2 Pr1B 1_555 1_555
O2J_2 Pr1K 1_555 1_555
O2_2 Pr1K 1_555 1_555
O2K_2 Pr1A 1_555 1_555
O2B_2 Pr1J 1_555 1_555
H1B O2B 1_555 1_555
H1J O2J 1_555 1_555
H1I O2I 1_555 1_555
H1K O2K 1_555 1_555
H1A O2A 1_555 1_555
H1A_2 O2A_2 1_555 1_555
H1I_2 O2I_2 1_555 1_555
H1J_2 O2J_2 1_555 1_555
H1_2 O2_2 1_555 1_555
H1K_2 O2K_2 1_555 1_555
H1B_2 O2B_2 1_555 1_555
O3A Pr2 1_555 1_555
O3K Pr2 1_555 1_555
O3I Pr2 1_555 1_555
O3J Pr2 1_555 1_555
O3B Pr1 1_555 1_555
O4A Pr1I 1_555 1_555
O4K Pr1A 1_555 1_555
O4I Pr1B 1_555 1_555
O4J Pr1 1_555 1_555
O4B Pr1J 1_555 1_555
O5A C7A 1_555 1_555
O5K C7K 1_555 1_555
O5I C7I 1_555 1_555
O5J C7J 1_555 1_555
O5B C7B 1_555 1_555
O5N Pr1 1_555 1_555
O5E Pr1I 1_555 1_555
O5M Pr1B 1_555 1_555
O5D Pr1K 1_555 1_555
O5L Pr1A 1_555 1_555
O5C Pr1J 1_555 1_555
O6A C7A 1_555 1_555
O6K C7K 1_555 1_555
O6I C7I 1_555 1_555
O6J C7J 1_555 1_555
O6B C7B 1_555 1_555
O6C Pr1 1_555 1_555
O6L Pr1I 1_555 1_555
O6E Pr1B 1_555 1_555
O6N Pr1K 1_555 1_555
O6D Pr1A 1_555 1_555
O6M Pr1J 1_555 1_555
N1A Pr1B 1_555 1_555
N1K Pr1I 1_555 1_555
N1I Pr1J 1_555 1_555
N1J Pr1K 1_555 1_555
N1B Pr1 1_555 1_555
C1A O3A 1_555 1_555
C1K O3K 1_555 1_555
C1I O3I 1_555 1_555
C1J O3J 1_555 1_555
C1B O3B 1_555 1_555
C2A N1A 1_555 1_555
C2K N1K 1_555 1_555
C2I N1I 1_555 1_555
C2J N1J 1_555 1_555
C2B N1B 1_555 1_555
C3A C2A 1_555 1_555
C3K C2K 1_555 1_555
C3I C2I 1_555 1_555
C3J C2J 1_555 1_555
C3B C2B 1_555 1_555
H2A C3A 1_555 1_555
H2K C3K 1_555 1_555
H2I C3I 1_555 1_555
H2J C3J 1_555 1_555
H2B C3B 1_555 1_555
C4A C3A 1_555 1_555
C4K C3K 1_555 1_555
C4I C3I 1_555 1_555
C4J C3J 1_555 1_555
C4B C3B 1_555 1_555
H3A C4A 1_555 1_555
H3K C4K 1_555 1_555
H3I C4I 1_555 1_555
H3J C4J 1_555 1_555
H3B C4B 1_555 1_555
C5A C4A 1_555 1_555
C5K C4K 1_555 1_555
C5I C4I 1_555 1_555
C5J C4J 1_555 1_555
C5B C4B 1_555 1_555
C6A N1A 1_555 1_555
C6K N1K 1_555 1_555
C6I N1I 1_555 1_555
C6J N1J 1_555 1_555
C6B N1B 1_555 1_555
H4A C6A 1_555 1_555
H4K C6K 1_555 1_555
H4I C6I 1_555 1_555
H4J C6J 1_555 1_555
H4B C6B 1_555 1_555
C7A C5A 1_555 1_555
C7K C5K 1_555 1_555
C7I C5I 1_555 1_555
C7J C5J 1_555 1_555
C7B C5B 1_555 1_555
Pr2 O3B 1_555 1_555
O2 Pr1A 1_555 1_555
O3 Pr1A 1_555 1_555
N1 Pr1A 1_555 1_555
C5 C6 1_555 1_555
Pr1I O3K 1_555 1_555
Pr1B O3A 1_555 1_555
Pr1K O1I 1_555 1_555
Pr1K O2K 1_555 1_555
Pr1K O3J 1_555 1_555
Pr1A O2A_2 1_555 1_555
Pr1J O2I 1_555 1_555
Pr1J O2J_2 1_555 1_555
Pr1J O3I 1_555 1_555
Pr1K_2 O2J 1_555 1_555
Pr1K_2 O2K_2 1_555 1_555
Pr1J_2 O2J 1_555 1_555
Pr1J_2 O2I_2 1_555 1_555
Pr1B_2 O2A 1_555 1_555
Pr1B_2 O2B_2 1_555 1_555
Pr1A_2 O2A 1_555 1_555
Pr1A_2 O2_2 1_555 1_555
O4A C1A 1_555 1_555
O4K C1K 1_555 1_555
O4I C1I 1_555 1_555
O4J C1J 1_555 1_555
O4B C1B 1_555 1_555
C1A C2A 1_555 1_555
C1K C2K 1_555 1_555
C1I C2I 1_555 1_555
C1J C2J 1_555 1_555
C1B C2B 1_555 1_555
C5A C6A 1_555 1_555
C5K C6K 1_555 1_555
C5I C6I 1_555 1_555
C5J C6J 1_555 1_555
C5B C6B 1_555 1_555

#END
