
#######################################################################
#
#                 Cambridge Crystallographic Data Centre
#                                CCDC 
#
#######################################################################
#
# If this CIF has been generated from an entry in the Cambridge 
# Structural Database, then it will include bibliographic, chemical, 
# crystal, experimental, refinement or atomic coordinate data resulting 
# from the CCDC's data processing and validation procedures.
#
#######################################################################

data_GUXSEY
_symmetry_cell_setting           orthorhombic
_symmetry_space_group_name_H-M   'F d d d'
_symmetry_Int_Tables_number      70
_space_group_name_Hall           '-F 2uv 2vw'
loop_
_symmetry_equiv_pos_site_id
_symmetry_equiv_pos_as_xyz
1 x,y,z
2 1/4-x,1/4-y,z
3 x,1/4-y,1/4-z
4 1/4-x,y,1/4-z
5 x,1/2+y,1/2+z
6 1/4-x,3/4-y,1/2+z
7 x,3/4-y,3/4-z
8 1/4-x,1/2+y,3/4-z
9 1/2+x,y,1/2+z
10 3/4-x,1/4-y,1/2+z
11 1/2+x,1/4-y,3/4-z
12 3/4-x,y,3/4-z
13 1/2+x,1/2+y,z
14 3/4-x,3/4-y,z
15 1/2+x,3/4-y,1/4-z
16 3/4-x,1/2+y,1/4-z
17 -x,-y,-z
18 3/4+x,3/4+y,-z
19 -x,3/4+y,3/4+z
20 3/4+x,-y,3/4+z
21 -x,1/2-y,1/2-z
22 3/4+x,1/4+y,1/2-z
23 -x,1/4+y,1/4+z
24 3/4+x,1/2-y,1/4+z
25 1/2-x,-y,1/2-z
26 1/4+x,3/4+y,1/2-z
27 1/2-x,3/4+y,1/4+z
28 1/4+x,-y,1/4+z
29 1/2-x,1/2-y,-z
30 1/4+x,1/4+y,-z
31 1/2-x,1/4+y,3/4+z
32 1/4+x,1/2-y,3/4+z
_cell_length_a                   26.7127(8)
_cell_length_b                   17.9748(7)
_cell_length_c                   17.8024(7)
_cell_angle_alpha                90
_cell_angle_beta                 90
_cell_angle_gamma                90
_cell_volume                     8547.92
loop_
_atom_site_label
_atom_site_type_symbol
_atom_site_fract_x
_atom_site_fract_y
_atom_site_fract_z
Eu1 Eu -0.1250 0.3750 0.502045(17)
O2 O -0.07363(15) 0.2961(2) 0.4332(2)
N1 N 0.04515(14) 0.1335(2) 0.3331(2)
C1 C -0.05943(18) 0.2666(3) 0.3743(3)
O3 O -0.06981(14) 0.2879(2) 0.3098(2)
C2 C -0.02579(19) 0.1998(3) 0.3805(3)
O4 O 0.11357(12) 0.02812(19) 0.3412(2)
C3 C 0.01284(18) 0.1896(3) 0.3314(3)
H1 H 0.0169 0.2248 0.2936
O5 O 0.0684(2) -0.0365(4) 0.4212(5)
C4 C -0.0317(3) 0.1478(5) 0.4335(5)
H2 H -0.0570 0.1523 0.4692
C5 C 0.0001(3) 0.0874(6) 0.4345(6)
H3 H -0.0046 0.0500 0.4699
C6 C 0.0385(2) 0.0818(4) 0.3842(4)
C7 C 0.0764(3) 0.0190(4) 0.3830(4)
Eu1R Eu 0.1250 0.1250 0.252045(17)
Eu1F Eu -0.1250 0.3750 0.247955(17)
Eu1P Eu 0.1250 0.6250 0.497955(17)
O2F O -0.07363(15) 0.4539(2) 0.3168(2)
O2M O -0.17637(15) 0.4539(2) 0.4332(2)
N1F N 0.04515(14) 0.6165(2) 0.4169(2)
N1V N -0.04515(14) 0.3835(2) 0.5831(2)
N1W N -0.20485(14) 0.3665(2) 0.5831(2)
C1F C -0.05943(18) 0.4834(3) 0.3757(3)
O3F O -0.06981(14) 0.4621(2) 0.4402(2)
O3K O -0.18019(14) 0.2879(2) 0.4402(2)
C2F C -0.02579(19) 0.5502(3) 0.3695(3)
O4F O 0.11357(12) 0.72188(19) 0.4088(2)
O4V O -0.11357(12) 0.27812(19) 0.5912(2)
O4W O -0.13643(12) 0.47188(19) 0.5912(2)
C3F C 0.01284(18) 0.5604(3) 0.4186(3)
H1F H 0.0169 0.5252 0.4564
O5F O 0.0684(2) 0.7865(4) 0.3288(5)
C4F C -0.0317(3) 0.6022(5) 0.3165(5)
H2F H -0.0570 0.5977 0.2808
C5F C 0.0001(3) 0.6626(6) 0.3155(6)
H3F H -0.0046 0.7000 0.2801
C6F C 0.0385(2) 0.6682(4) 0.3658(4)
C7F C 0.0764(3) 0.7310(4) 0.3670(4)
O1 O 0.3750 0.040(2) 0.8750
N2 N 0.1499(3) 0.8750 0.3750
H4 H 0.1299 0.8355 0.3832
C8 C 0.1774(3) 0.8885(4) 0.4413(5)
H5 H 0.2064 0.8569 0.4423
H6 H 0.1568 0.8783 0.4842
H7 H 0.1878 0.9396 0.4424
H4F H 0.1299 0.9145 0.3668
C8F C 0.1774(3) 0.8615(4) 0.3087(5)
H5F H 0.2064 0.8931 0.3077
H6F H 0.1568 0.8717 0.2658
H7F H 0.1878 0.8104 0.3076
loop_
_geom_bond_atom_site_label_1
_geom_bond_atom_site_label_2
_geom_bond_site_symmetry_1
_geom_bond_site_symmetry_2
Eu1 O2 1_555 1_555
O2 C1 1_555 1_555
N1 C3 1_555 1_555
C1 O3 1_555 1_555
O3 Eu1F 1_555 1_555
C2 C1 1_555 1_555
O4 C7 1_555 1_555
C3 C2 1_555 1_555
H1 C3 1_555 1_555
O5 C7 1_555 1_555
C4 C2 1_555 1_555
H2 C4 1_555 1_555
C5 C4 1_555 1_555
H3 C5 1_555 1_555
C6 N1 1_555 1_555
C7 C6 1_555 1_555
N2 H4 1_555 1_555
C8 N2 1_555 1_555
H5 C8 1_555 1_555
H6 C8 1_555 1_555
H7 C8 1_555 1_555
Eu1R N1 1_555 1_555
Eu1F O2F 1_555 1_555
Eu1P N1F 1_555 1_555
O2F C1F 1_555 1_555
O2M Eu1 1_555 1_555
N1F C3F 1_555 1_555
N1V Eu1 1_555 1_555
N1W Eu1 1_555 1_555
C1F O3F 1_555 1_555
O3F Eu1 1_555 1_555
O3K Eu1 1_555 1_555
C2F C1F 1_555 1_555
O4F Eu1P 1_555 1_555
O4V Eu1 1_555 1_555
O4W Eu1 1_555 1_555
C3F C2F 1_555 1_555
H1F C3F 1_555 1_555
O5F C7F 1_555 1_555
C4F C2F 1_555 1_555
H2F C4F 1_555 1_555
C5F C4F 1_555 1_555
H3F C5F 1_555 1_555
C6F N1F 1_555 1_555
C7F O4F 1_555 1_555
H4F N2 1_555 1_555
C8F N2 1_555 1_555
H5F C8F 1_555 1_555
H6F C8F 1_555 1_555
H7F C8F 1_555 1_555
O4 Eu1R 1_555 1_555
C5 C6 1_555 1_555
C5F C6F 1_555 1_555
C6F C7F 1_555 1_555

#END
