
#######################################################################
#
#                 Cambridge Crystallographic Data Centre
#                                CCDC 
#
#######################################################################
#
# If this CIF has been generated from an entry in the Cambridge 
# Structural Database, then it will include bibliographic, chemical, 
# crystal, experimental, refinement or atomic coordinate data resulting 
# from the CCDC's data processing and validation procedures.
#
#######################################################################

data_GUXTEZ
_symmetry_cell_setting           orthorhombic
_symmetry_space_group_name_H-M   'P n m a'
_symmetry_Int_Tables_number      62
_space_group_name_Hall           '-P 2ac 2n'
loop_
_symmetry_equiv_pos_site_id
_symmetry_equiv_pos_as_xyz
1 x,y,z
2 1/2-x,-y,1/2+z
3 -x,1/2+y,-z
4 1/2+x,1/2-y,1/2-z
5 -x,-y,-z
6 1/2+x,y,1/2-z
7 x,1/2-y,z
8 1/2-x,1/2+y,1/2+z
_cell_length_a                   7.6071(2)
_cell_length_b                   14.6486(3)
_cell_length_c                   11.1213(2)
_cell_angle_alpha                90
_cell_angle_beta                 90
_cell_angle_gamma                90
_cell_volume                     1239.28
loop_
_atom_site_label
_atom_site_type_symbol
_atom_site_fract_x
_atom_site_fract_y
_atom_site_fract_z
Mn1 Mn 0.06139(17) 0.44267(8) 0.30526(11)
O1 O -0.0157(7) 0.5774(4) 0.3653(7)
O2 O -0.2190(11) 0.5156(5) 0.2878(7)
O3 O -0.2567(8) 0.6028(5) 0.5930(6)
O4 O -0.5382(8) 0.6247(6) 0.6426(6)
O5 O -0.1089(7) 0.3480(4) 0.3962(6)
H1 H -0.1078 0.3599 0.4710
H2 H -0.2135 0.3553 0.3709
C1 C -0.1659(11) 0.7500 0.3962(8)
H3 H -0.1353 0.7500 0.4827
H4 H -0.0560 0.7500 0.3485
C2 C -0.2808(8) 0.6656(4) 0.3644(6)
H5 H -0.3259 0.6783 0.2816
C3 C -0.4438(8) 0.6592(5) 0.4418(6)
H6 H -0.5183 0.6100 0.4059
C4 C -0.5521(13) 0.7500 0.4308(9)
H7 H -0.6129 0.7500 0.3520
H8 H -0.6438 0.7500 0.4939
C5 C -0.1686(12) 0.5785(5) 0.3511(8)
C6 C -0.4047(9) 0.6299(6) 0.5704(7)
Mn1F Mn 0.06139(17) 1.05733(8) 0.30526(11)
Mn1E Mn -0.43861(17) 0.44267(8) 0.19474(11)
Mn1D Mn -0.06139(17) 0.55733(8) 0.69474(11)
Mn1A Mn -0.56139(17) 0.55733(8) 0.80526(11)
Mn1B Mn -0.06139(17) 0.94267(8) 0.69474(11)
Mn1G Mn -0.56139(17) 0.94267(8) 0.80526(11)
Mn1C Mn -0.43861(17) 1.05733(8) 0.19474(11)
O1F O -0.0157(7) 0.9226(4) 0.3653(7)
O2F O -0.2190(11) 0.9844(5) 0.2878(7)
O2E O 0.2810(11) 0.5156(5) 0.2122(7)
O2C O 0.2810(11) 0.9844(5) 0.2122(7)
O3F O -0.2567(8) 0.8972(5) 0.5930(6)
O3D O 0.2567(8) 0.3972(5) 0.4070(6)
O3B O 0.2567(8) 1.1028(5) 0.4070(6)
O4F O -0.5382(8) 0.8753(6) 0.6426(6)
O4A O 0.0382(8) 0.3753(6) 0.1426(6)
O4G O 0.0382(8) 1.1247(6) 0.1426(6)
O5F O -0.1089(7) 1.1520(4) 0.3962(6)
H1F H -0.1078 1.1401 0.4710
H2F H -0.2135 1.1447 0.3709
C2F C -0.2808(8) 0.8344(4) 0.3644(6)
H5F H -0.3259 0.8217 0.2816
C3F C -0.4438(8) 0.8408(5) 0.4418(6)
H6F H -0.5183 0.8900 0.4059
C5F C -0.1686(12) 0.9215(5) 0.3511(8)
C6F C -0.4047(9) 0.8701(6) 0.5704(7)
loop_
_geom_bond_atom_site_label_1
_geom_bond_atom_site_label_2
_geom_bond_site_symmetry_1
_geom_bond_site_symmetry_2
Mn1 O1 1_555 1_555
O1 C5 1_555 1_555
O2 Mn1 1_555 1_555
O3 C6 1_555 1_555
O4 C6 1_555 1_555
O5 Mn1 1_555 1_555
H1 O5 1_555 1_555
H2 O5 1_555 1_555
C1 H3 1_555 1_555
H4 C1 1_555 1_555
C2 C1 1_555 1_555
H5 C2 1_555 1_555
C3 C2 1_555 1_555
H6 C3 1_555 1_555
C4 C3 1_555 1_555
H7 C4 1_555 1_555
H8 C4 1_555 1_555
C5 O2 1_555 1_555
C6 C3 1_555 1_555
Mn1F O1F 1_555 1_555
Mn1E O2 1_555 1_555
Mn1D O3 1_555 1_555
Mn1A O4 1_555 1_555
Mn1B O3F 1_555 1_555
Mn1G O4F 1_555 1_555
Mn1C O2F 1_555 1_555
O1F C5F 1_555 1_555
O2F Mn1F 1_555 1_555
O2E Mn1 1_555 1_555
O2C Mn1F 1_555 1_555
O3F C6F 1_555 1_555
O3D Mn1 1_555 1_555
O3B Mn1F 1_555 1_555
O4F C6F 1_555 1_555
O4A Mn1 1_555 1_555
O4G Mn1F 1_555 1_555
O5F Mn1F 1_555 1_555
H1F O5F 1_555 1_555
H2F O5F 1_555 1_555
C2F C1 1_555 1_555
H5F C2F 1_555 1_555
C3F C4 1_555 1_555
H6F C3F 1_555 1_555
C5F O2F 1_555 1_555
C6F C3F 1_555 1_555
C2 C5 1_555 1_555
C2F C3F 1_555 1_555
C2F C5F 1_555 1_555

#END
