
#######################################################################
#
#                 Cambridge Crystallographic Data Centre
#                                CCDC 
#
#######################################################################
#
# If this CIF has been generated from an entry in the Cambridge 
# Structural Database, then it will include bibliographic, chemical, 
# crystal, experimental, refinement or atomic coordinate data resulting 
# from the CCDC's data processing and validation procedures.
#
#######################################################################

data_GUXTID
_symmetry_cell_setting           monoclinic
_symmetry_space_group_name_H-M   'P 21/n'
_symmetry_Int_Tables_number      14
_space_group_name_Hall           '-P 2yn'
loop_
_symmetry_equiv_pos_site_id
_symmetry_equiv_pos_as_xyz
1 x,y,z
2 1/2-x,1/2+y,1/2-z
3 -x,-y,-z
4 1/2+x,1/2-y,1/2+z
_cell_length_a                   6.4745(9)
_cell_length_b                   25.905(3)
_cell_length_c                   8.1890(11)
_cell_angle_alpha                90
_cell_angle_beta                 90.422(3)
_cell_angle_gamma                90
_cell_volume                     1373.44
loop_
_atom_site_label
_atom_site_type_symbol
_atom_site_fract_x
_atom_site_fract_y
_atom_site_fract_z
Mn1 Mn 0.42463(15) 0.20493(4) 0.89493(12)
Mn2 Mn 0.46144(13) 0.04838(3) 0.89146(10)
O1 O 0.1237(7) 0.17586(17) 0.7919(5)
O2 O 0.3635(6) 0.11695(15) 0.7863(5)
O3 O 0.3157(7) -0.01196(17) 0.2526(5)
O4 O 0.2842(7) 0.05997(17) 0.1088(5)
O5 O -0.2487(7) 0.01015(17) 0.1750(6)
O6 O -0.2923(7) 0.08185(17) 0.0330(5)
O7 O 0.1321(8) 0.1962(2) 0.4198(6)
O8 O -0.1797(7) 0.22527(17) 0.4861(6)
O9 O 0.4681(9) 0.2268(2) 0.6429(7)
H1 H 0.3874 0.2115 0.5766
H2 H 0.5920 0.2240 0.6106
O10 O 0.7347(8) 0.1824(2) 0.9473(7)
H3 H 0.7379 0.1518 0.9851
H4 H 0.8369 0.1871 0.8846
O11 O 0.3454(8) 0.16917(18) 1.1298(6)
H5 H 0.2708 0.1836 1.2015
H6 H 0.3203 0.1370 1.1279
C1 C 0.0666(9) 0.1041(2) 0.6114(7)
H7 H 0.0006 0.0756 0.6697
C2 C 0.2062(9) 0.0796(2) 0.4839(7)
H8 H 0.2981 0.0552 0.5375
H9 H 0.2906 0.1062 0.4347
C3 C 0.0843(9) 0.0514(2) 0.3486(7)
H10 H 0.0147 0.0217 0.3983
C4 C -0.0808(8) 0.0859(2) 0.2714(7)
H11 H -0.0137 0.1148 0.2161
C5 C -0.2241(9) 0.1070(3) 0.4050(8)
H12 H -0.3260 0.1295 0.3548
H13 H -0.2972 0.0784 0.4545
C6 C -0.1090(10) 0.1368(2) 0.5383(8)
H14 H -0.2079 0.1430 0.6262
C7 C 0.1892(10) 0.1339(2) 0.7370(7)
C8 C 0.2382(9) 0.0310(2) 0.2276(7)
C9 C -0.2147(9) 0.0568(2) 0.1491(7)
C10 C -0.0432(11) 0.1887(3) 0.4768(8)
Mn1C Mn -0.07537(15) 0.29507(4) 0.39493(12)
Mn2B Mn 0.53856(13) -0.04838(3) 0.10854(10)
Mn2_2 Mn 0.46144(13) 0.04838(3) -0.10854(10)
Mn2B_2 Mn -0.46144(13) -0.04838(3) 0.10854(10)
Mn2_3 Mn -0.53856(13) 0.04838(3) -0.10854(10)
O3B O 0.6843(7) 0.01196(17) 0.7474(5)
O4_2 O 0.2842(7) 0.05997(17) 1.1088(5)
O5B O 0.2487(7) -0.01015(17) 0.8250(6)
O6_2 O 0.7077(7) 0.08185(17) 1.0330(5)
O8C O 0.3203(7) 0.27473(17) 0.9861(6)
loop_
_geom_bond_atom_site_label_1
_geom_bond_atom_site_label_2
_geom_bond_site_symmetry_1
_geom_bond_site_symmetry_2
Mn1 O1 1_555 1_555
Mn2 O2 1_555 1_555
O1 C7 1_555 1_555
O2 Mn1 1_555 1_555
O3 C8 1_555 1_555
O4 C8 1_555 1_555
O5 C9 1_555 1_555
O6 C9 1_555 1_555
O7 C10 1_555 1_555
O8 C10 1_555 1_555
O9 Mn1 1_555 1_555
H1 O9 1_555 1_555
H2 O9 1_555 1_555
O10 Mn1 1_555 1_555
H3 O10 1_555 1_555
H4 O10 1_555 1_555
O11 Mn1 1_555 1_555
H5 O11 1_555 1_555
H6 O11 1_555 1_555
C1 H7 1_555 1_555
C2 C1 1_555 1_555
H8 C2 1_555 1_555
H9 C2 1_555 1_555
C3 C2 1_555 1_555
H10 C3 1_555 1_555
C4 C3 1_555 1_555
H11 C4 1_555 1_555
C5 C4 1_555 1_555
H12 C5 1_555 1_555
H13 C5 1_555 1_555
C6 C1 1_555 1_555
H14 C6 1_555 1_555
C7 O2 1_555 1_555
C8 C3 1_555 1_555
C9 C4 1_555 1_555
C10 C6 1_555 1_555
Mn1C O8 1_555 1_555
Mn2B O3 1_555 1_555
Mn2_2 O4 1_555 1_555
Mn2B_2 O5 1_555 1_555
Mn2_3 O6 1_555 1_555
O3B Mn2 1_555 1_555
O4_2 Mn2 1_555 1_555
O5B Mn2 1_555 1_555
O6_2 Mn2 1_555 1_555
O8C Mn1 1_555 1_555
C1 C7 1_555 1_555
C5 C6 1_555 1_555

#END
