
#######################################################################
#
#                 Cambridge Crystallographic Data Centre
#                                CCDC 
#
#######################################################################
#
# If this CIF has been generated from an entry in the Cambridge 
# Structural Database, then it will include bibliographic, chemical, 
# crystal, experimental, refinement or atomic coordinate data resulting 
# from the CCDC's data processing and validation procedures.
#
#######################################################################

data_GUXTAV
_symmetry_cell_setting           triclinic
_symmetry_space_group_name_H-M   'P -1'
_symmetry_Int_Tables_number      2
_space_group_name_Hall           '-P 1'
loop_
_symmetry_equiv_pos_site_id
_symmetry_equiv_pos_as_xyz
1 x,y,z
2 -x,-y,-z
_cell_length_a                   7.0769(6)
_cell_length_b                   9.5083(8)
_cell_length_c                   12.3146(7)
_cell_angle_alpha                102.361(6)
_cell_angle_beta                 95.785(5)
_cell_angle_gamma                94.597(7)
_cell_volume                     800.885
loop_
_atom_site_label
_atom_site_type_symbol
_atom_site_fract_x
_atom_site_fract_y
_atom_site_fract_z
Mn1 Mn 0.54614(7) 0.21488(5) 0.41542(4)
Mn2 Mn 0.18156(7) 0.26151(5) 0.21594(4)
O1 O 0.4778(3) 0.3502(2) 0.29061(16)
O2 O 0.7503(3) 0.4101(2) 0.39651(16)
O3 O 0.6033(3) 0.7042(2) 0.44727(16)
O4 O 0.8860(3) 0.8391(2) 0.48293(16)
O5 O 0.6493(3) 1.0438(2) 0.30038(16)
O6 O 0.3941(3) 0.8783(2) 0.26312(16)
O7 O 0.3800(3) 0.8165(2) -0.00352(16)
O8 O 0.2171(3) 0.6318(2) 0.03946(17)
O9 O 0.7413(3) 0.1725(3) 0.54215(16)
H1 H 0.7094 0.1678 0.6061
H2 H 0.8569 0.1591 0.5344
O10 O 0.2449(3) 0.1179(2) 0.32936(15)
H3 H 0.1957 0.1166 0.3894
H4 H 0.2677 0.0325 0.3001
O11 O 0.1204(3) 0.4157(2) 0.36395(16)
H5 H 0.0068 0.4129 0.3808
H6 H 0.1919 0.4532 0.4247
O12 O 0.3038(3) 0.1099(2) 0.09189(15)
H7 H 0.3988 0.1412 0.0635
H8 H 0.2913 0.0179 0.0742
O13 O 0.0981(3) 0.3898(2) 0.10163(16)
H9 H 0.1530 0.4675 0.0907
H10 H -0.0081 0.3675 0.0600
O14 O -0.1106(3) 0.1676(2) 0.17773(16)
H11 H -0.1821 0.1659 0.1176
H12 H -0.1776 0.1295 0.2196
C1 C 0.6875(4) 0.5344(3) 0.2459(2)
H13 H 0.7597 0.4814 0.1871
C2 C 0.8221(4) 0.6678(3) 0.3092(2)
H14 H 0.9484 0.6320 0.3262
C3 C 0.8569(4) 0.7774(3) 0.2346(2)
H15 H 0.9285 0.8670 0.2818
H16 H 0.9380 0.7361 0.1774
C4 C 0.6744(4) 0.8172(3) 0.1752(2)
H17 H 0.7154 0.8711 0.1187
C5 C 0.5499(4) 0.6799(3) 0.1097(2)
H18 H 0.6272 0.6303 0.0521
C6 C 0.5078(4) 0.5741(3) 0.1828(2)
H19 H 0.4369 0.4844 0.1352
H20 H 0.4241 0.6169 0.2381
C7 C 0.6357(4) 0.4290(3) 0.3157(2)
C8 C 0.7641(5) 0.7421(3) 0.4217(2)
C9 C 0.5640(5) 0.9184(3) 0.2535(2)
C10 C 0.3676(5) 0.7124(4) 0.0450(2)
Mn1A Mn 0.45386(7) 0.78512(5) 0.58458(4)
Mn1_2 Mn 0.54614(7) 1.21488(5) 0.41542(4)
O3A O 0.3967(3) 0.2958(2) 0.55273(16)
O5_2 O 0.6493(3) 0.0438(2) 0.30038(16)
loop_
_geom_bond_atom_site_label_1
_geom_bond_atom_site_label_2
_geom_bond_site_symmetry_1
_geom_bond_site_symmetry_2
Mn1 O1 1_555 1_555
Mn2 O1 1_555 1_555
O1 C7 1_555 1_555
O2 Mn1 1_555 1_555
O3 C8 1_555 1_555
O4 C8 1_555 1_555
O5 C9 1_555 1_555
O6 C9 1_555 1_555
O7 C10 1_555 1_555
O8 C10 1_555 1_555
O9 Mn1 1_555 1_555
H1 O9 1_555 1_555
H2 O9 1_555 1_555
O10 Mn1 1_555 1_555
H3 O10 1_555 1_555
H4 O10 1_555 1_555
O11 Mn2 1_555 1_555
H5 O11 1_555 1_555
H6 O11 1_555 1_555
O12 Mn2 1_555 1_555
H7 O12 1_555 1_555
H8 O12 1_555 1_555
O13 Mn2 1_555 1_555
H9 O13 1_555 1_555
H10 O13 1_555 1_555
O14 Mn2 1_555 1_555
H11 O14 1_555 1_555
H12 O14 1_555 1_555
C1 H13 1_555 1_555
C2 C1 1_555 1_555
H14 C2 1_555 1_555
C3 C2 1_555 1_555
H15 C3 1_555 1_555
H16 C3 1_555 1_555
C4 C3 1_555 1_555
H17 C4 1_555 1_555
C5 C4 1_555 1_555
H18 C5 1_555 1_555
C6 C1 1_555 1_555
H19 C6 1_555 1_555
H20 C6 1_555 1_555
C7 O2 1_555 1_555
C8 C2 1_555 1_555
C9 C4 1_555 1_555
C10 C5 1_555 1_555
Mn1A O3 1_555 1_555
Mn1_2 O5 1_555 1_555
O3A Mn1 1_555 1_555
O5_2 Mn1 1_555 1_555
Mn2 O10 1_555 1_555
C1 C7 1_555 1_555
C5 C6 1_555 1_555

#END
