
#######################################################################
#
#                 Cambridge Crystallographic Data Centre
#                                CCDC 
#
#######################################################################
#
# If this CIF has been generated from an entry in the Cambridge 
# Structural Database, then it will include bibliographic, chemical, 
# crystal, experimental, refinement or atomic coordinate data resulting 
# from the CCDC's data processing and validation procedures.
#
#######################################################################

data_GUXWAY
_symmetry_cell_setting           monoclinic
_symmetry_space_group_name_H-M   'P 21/c'
_symmetry_Int_Tables_number      14
_space_group_name_Hall           '-P 2ybc'
loop_
_symmetry_equiv_pos_site_id
_symmetry_equiv_pos_as_xyz
1 x,y,z
2 -x,1/2+y,1/2-z
3 -x,-y,-z
4 x,1/2-y,1/2+z
_cell_length_a                   8.8445(18)
_cell_length_b                   8.1955(16)
_cell_length_c                   27.029(7)
_cell_angle_alpha                90
_cell_angle_beta                 102.78(3)
_cell_angle_gamma                90
_cell_volume                     1910.66
loop_
_atom_site_label
_atom_site_type_symbol
_atom_site_fract_x
_atom_site_fract_y
_atom_site_fract_z
Cu1 Cu 0.74636(6) 0.13688(7) 0.99192(2)
N1 N 0.7276(4) 0.3572(4) 1.02645(13)
N2 N 0.7341(4) 0.3345(4) 0.92605(13)
N3 N 0.6099(6) 0.0522(6) 0.8707(2)
N4 N 1.2632(7) 1.2028(7) 0.7919(2)
N5 N 0.9414(4) 0.0339(5) 0.99666(16)
N6 N 0.5551(4) 0.0292(5) 0.99621(17)
C1 C 0.6863(5) 0.3706(6) 1.07076(17)
H1 H 0.6752 0.2752 1.0882
C2 C 0.6596(6) 0.5151(6) 1.09212(18)
H2 H 0.6288 0.5183 1.1229
C3 C 0.6796(6) 0.6572(6) 1.06659(18)
H3 H 0.6642 0.7585 1.0802
C4 C 0.7227(5) 0.6462(6) 1.02080(18)
H4 H 0.7363 0.7403 1.0031
C5 C 0.7455(5) 0.4953(5) 1.00139(15)
C6 C 0.7830(5) 0.4748(5) 0.95055(15)
C7 C 0.8591(5) 0.5951(5) 0.93034(16)
H5 H 0.8958 0.6868 0.9495
C8 C 0.8813(5) 0.5798(5) 0.88110(16)
C9 C 0.8234(5) 0.4411(5) 0.85462(17)
H6 H 0.8326 0.4276 0.8212
C10 C 0.7509(5) 0.3209(5) 0.87786(16)
C11 C 0.6903(5) 0.1694(5) 0.84873(18)
C12 C 0.7137(5) 0.1551(5) 0.80259(14)
H7 H 0.7637 0.2372 0.7886
C13 C 0.6657(7) 0.0236(7) 0.7768(2)
H8 H 0.6845 0.0145 0.7444
C14 C 0.5880(7) -0.1044(7) 0.7944(2)
H9 H 0.5572 -0.1968 0.7748
C15 C 0.5593(6) -0.0878(6) 0.8419(2)
H10 H 0.5063 -0.1692 0.8551
C16 C 0.9629(5) 0.7100(5) 0.85871(15)
C17 C 0.9704(5) 0.8682(5) 0.87887(17)
H11 H 0.9209 0.8908 0.9051
C18 C 1.0494(5) 0.9908(6) 0.86065(18)
H12 H 1.0546 1.0944 0.8749
C19 C 1.1210(5) 0.9599(6) 0.82118(18)
C20 C 1.1138(6) 0.8043(6) 0.79981(19)
H13 H 1.1607 0.7835 0.7729
C21 C 1.0367(6) 0.6817(6) 0.81893(17)
H14 H 1.0337 0.5777 0.8050
C22 C 1.2022(6) 1.0935(7) 0.8032(2)
C23 C 1.0586(4) -0.0339(5) 1.00334(16)
C24 C 0.4449(4) -0.0292(5) 1.00379(17)
Cu1B Cu 1.25364(6) -0.13688(7) 1.00808(2)
Cu1B_2 Cu 0.25364(6) -0.13688(7) 1.00808(2)
loop_
_geom_bond_atom_site_label_1
_geom_bond_atom_site_label_2
_geom_bond_site_symmetry_1
_geom_bond_site_symmetry_2
Cu1 N1 1_555 1_555
N1 C1 1_555 1_555
N2 Cu1 1_555 1_555
N3 C11 1_555 1_555
N4 C22 1_555 1_555
N5 Cu1 1_555 1_555
N6 Cu1 1_555 1_555
C1 H1 1_555 1_555
C2 C1 1_555 1_555
H2 C2 1_555 1_555
C3 C2 1_555 1_555
H3 C3 1_555 1_555
C4 C3 1_555 1_555
H4 C4 1_555 1_555
C5 N1 1_555 1_555
C6 N2 1_555 1_555
C7 C6 1_555 1_555
H5 C7 1_555 1_555
C8 C7 1_555 1_555
C9 C8 1_555 1_555
H6 C9 1_555 1_555
C10 N2 1_555 1_555
C11 C10 1_555 1_555
C12 C11 1_555 1_555
H7 C12 1_555 1_555
C13 C12 1_555 1_555
H8 C13 1_555 1_555
C14 C13 1_555 1_555
H9 C14 1_555 1_555
C15 N3 1_555 1_555
H10 C15 1_555 1_555
C16 C8 1_555 1_555
C17 C16 1_555 1_555
H11 C17 1_555 1_555
C18 C17 1_555 1_555
H12 C18 1_555 1_555
C19 C18 1_555 1_555
C20 C19 1_555 1_555
H13 C20 1_555 1_555
C21 C16 1_555 1_555
H14 C21 1_555 1_555
C22 C19 1_555 1_555
C23 N5 1_555 1_555
C24 N6 1_555 1_555
Cu1B C23 1_555 1_555
Cu1B_2 C24 1_555 1_555
C4 C5 1_555 1_555
C5 C6 1_555 1_555
C9 C10 1_555 1_555
C14 C15 1_555 1_555
C20 C21 1_555 1_555

#END
