
#######################################################################
#
#                 Cambridge Crystallographic Data Centre
#                                CCDC 
#
#######################################################################
#
# If this CIF has been generated from an entry in the Cambridge 
# Structural Database, then it will include bibliographic, chemical, 
# crystal, experimental, refinement or atomic coordinate data resulting 
# from the CCDC's data processing and validation procedures.
#
#######################################################################

data_GUXZOP
_symmetry_cell_setting           monoclinic
_symmetry_space_group_name_H-M   'P 21/n'
_symmetry_Int_Tables_number      14
_space_group_name_Hall           '-P 2yn'
loop_
_symmetry_equiv_pos_site_id
_symmetry_equiv_pos_as_xyz
1 x,y,z
2 1/2-x,1/2+y,1/2-z
3 -x,-y,-z
4 1/2+x,1/2-y,1/2+z
_cell_length_a                   10.2410(6)
_cell_length_b                   11.4366(6)
_cell_length_c                   15.9325(9)
_cell_angle_alpha                90
_cell_angle_beta                 95.6260(10)
_cell_angle_gamma                90
_cell_volume                     1857.06
loop_
_atom_site_label
_atom_site_type_symbol
_atom_site_fract_x
_atom_site_fract_y
_atom_site_fract_z
U1 U 0.324430(12) 0.277310(11) 0.218371(8)
P1 P 0.04458(10) 0.06688(9) 0.19515(6)
P2 P 0.57451(9) 0.03411(9) -0.19002(6)
P3 P 0.65668(10) 0.31237(10) 0.15911(6)
O1 O 0.5587(3) 0.2728(3) 0.2176(2)
O2 O 0.7966(3) 0.2933(3) 0.1948(2)
O3 O 0.3512(3) 0.2318(3) 0.32512(19)
O4 O 0.1278(3) 0.1743(3) 0.20269(19)
O5 O 0.2982(3) 0.3243(3) 0.11155(17)
O6 O 0.4235(3) 0.0308(3) -0.2202(2)
H1 H 0.4018 0.0932 -0.2457
O7 O -0.0935(3) 0.0935(3) 0.22632(19)
H2 H -0.1172 0.1614 0.2115
O8 O 0.6178(3) -0.0886(2) -0.17219(19)
O9 O 0.6348(3) 0.4457(3) 0.1369(2)
H3 H 0.6236 0.4831 0.1810
C1 C 0.5932(4) 0.1151(4) -0.0926(2)
C2 C 0.0186(4) 0.0285(4) 0.0855(3)
C4 C 0.6286(4) 0.2392(4) 0.0588(3)
C5 C 0.0736(4) 0.0972(4) 0.0253(3)
H6 H 0.1246 0.1638 0.0428
C6 C 0.6462(4) 0.0611(4) -0.0195(3)
H7 H 0.6695 -0.0192 -0.0208
C7 C 0.6658(4) 0.1222(4) 0.0558(3)
H8 H 0.7046 0.0845 0.1052
C8 C 0.5552(5) 0.2318(4) -0.0898(3)
H9 H 0.5176 0.2694 -0.1395
C9 C 0.5722(5) 0.2938(4) -0.0138(3)
H10 H 0.5453 0.3732 -0.0119
C11 C -0.0541(4) -0.0689(4) 0.0600(3)
H15 H -0.0908 -0.1166 0.1005
O11 O 0.6446(3) 0.0967(3) -0.25605(18)
O12 O 0.0919(3) -0.0364(3) 0.2467(2)
U1B U 0.675570(12) -0.277310(11) -0.218371(8)
U1C U 0.824430(12) 0.222690(11) -0.281629(8)
U1A U 0.175570(12) -0.222690(11) 0.281629(8)
U1B_2 U -0.324430(12) -0.277310(11) -0.218371(8)
U1C_2 U -0.175570(12) 0.222690(11) -0.281629(8)
P1B P -0.04458(10) -0.06688(9) -0.19515(6)
P2B P 0.42549(9) -0.03411(9) 0.19002(6)
P3B P 0.34332(10) -0.31237(10) -0.15911(6)
O1B O 0.4413(3) -0.2728(3) -0.2176(2)
O2B O 0.2034(3) -0.2933(3) -0.1948(2)
O3B O 0.6488(3) -0.2318(3) -0.32512(19)
O4B O -0.1278(3) -0.1743(3) -0.20269(19)
O4B_2 O 0.8722(3) -0.1743(3) -0.20269(19)
O5B O 0.7018(3) -0.3243(3) -0.11155(17)
O6B O 0.5765(3) -0.0308(3) 0.2202(2)
H1B H 0.5982 -0.0932 0.2457
O7B O 0.0935(3) -0.0935(3) -0.22632(19)
H2B H 0.1172 -0.1614 -0.2115
O8B O 0.3822(3) 0.0886(2) 0.17219(19)
O9B O 0.3652(3) -0.4457(3) -0.1369(2)
H3B H 0.3764 -0.4831 -0.1810
C1B C 0.4068(4) -0.1151(4) 0.0926(2)
C2B C -0.0186(4) -0.0285(4) -0.0855(3)
C4B C 0.3714(4) -0.2392(4) -0.0588(3)
C5B C -0.0736(4) -0.0972(4) -0.0253(3)
H6B H -0.1246 -0.1638 -0.0428
C6B C 0.3538(4) -0.0611(4) 0.0195(3)
H7B H 0.3305 0.0192 0.0208
C7B C 0.3342(4) -0.1222(4) -0.0558(3)
H8B H 0.2954 -0.0845 -0.1052
C8B C 0.4448(5) -0.2318(4) 0.0898(3)
H9B H 0.4824 -0.2694 0.1395
C9B C 0.4278(5) -0.2938(4) 0.0138(3)
H10B H 0.4547 -0.3732 0.0119
C11B C 0.0541(4) 0.0689(4) -0.0600(3)
H15B H 0.0908 0.1166 -0.1005
O11B O 0.3554(3) -0.0967(3) 0.25605(18)
O11C O 0.1446(3) 0.4033(3) 0.24395(18)
O11A O 0.8554(3) -0.4033(3) -0.24395(18)
O12B O -0.0919(3) 0.0364(3) -0.2467(2)
O12A O 0.4081(3) 0.4636(3) 0.2533(2)
O12C O 0.5919(3) -0.4636(3) -0.2533(2)
C3 C 0.0491(4) 0.5051(4) 0.0870(2)
H4 H -0.0133 0.5609 0.1087
H5 H 0.1119 0.4799 0.1348
N1 N -0.0236(6) 0.4015(5) 0.0498(3)
H11 H -0.0672 0.3655 0.0905
H12 H 0.0350 0.3488 0.0312
C10 C 0.1204(5) 0.5625(5) 0.0227(3)
H13 H 0.1858 0.5081 0.0027
H14 H 0.1674 0.6322 0.0471
C3B C -0.0491(4) 0.4949(4) -0.0870(2)
H4B H 0.0133 0.4391 -0.1087
H5B H -0.1119 0.5201 -0.1348
N1B N 0.0236(6) 0.5985(5) -0.0498(3)
H11B H 0.0672 0.6345 -0.0905
H12B H -0.0350 0.6512 -0.0312
C10B C -0.1204(5) 0.4375(5) -0.0227(3)
H13B H -0.1858 0.4919 -0.0027
H14B H -0.1674 0.3678 -0.0471
O10 O 0.6534(4) 0.1478(4) 0.3674(2)
loop_
_geom_bond_atom_site_label_1
_geom_bond_atom_site_label_2
_geom_bond_site_symmetry_1
_geom_bond_site_symmetry_2
U1 O1 1_555 1_555
P1 O4 1_555 1_555
P2 O6 1_555 1_555
P3 O1 1_555 1_555
O2 P3 1_555 1_555
O3 U1 1_555 1_555
O4 U1 1_555 1_555
O5 U1 1_555 1_555
O6 H1 1_555 1_555
O7 P1 1_555 1_555
H2 O7 1_555 1_555
O8 P2 1_555 1_555
O9 P3 1_555 1_555
H3 O9 1_555 1_555
C1 P2 1_555 1_555
C2 P1 1_555 1_555
C3 H4 1_555 1_555
H5 C3 1_555 1_555
C4 P3 1_555 1_555
C5 C2 1_555 1_555
H6 C5 1_555 1_555
C6 C1 1_555 1_555
H7 C6 1_555 1_555
C7 C4 1_555 1_555
H8 C7 1_555 1_555
C8 C1 1_555 1_555
H9 C8 1_555 1_555
C9 C4 1_555 1_555
H10 C9 1_555 1_555
N1 C3 1_555 1_555
H11 N1 1_555 1_555
H12 N1 1_555 1_555
C10 C3 1_555 1_555
H13 C10 1_555 1_555
H14 C10 1_555 1_555
C11 C2 1_555 1_555
H15 C11 1_555 1_555
O11 P2 1_555 1_555
O12 P1 1_555 1_555
U1B O8 1_555 1_555
U1C O11 1_555 1_555
U1A O12 1_555 1_555
U1B_2 O4B 1_555 1_555
U1C_2 O12B 1_555 1_555
P1B O4B 1_555 1_555
P2B O6B 1_555 1_555
P3B O1B 1_555 1_555
O1B U1B 1_555 1_555
O2B P3B 1_555 1_555
O3B U1B 1_555 1_555
O4B_2 U1B 1_555 1_555
O5B U1B 1_555 1_555
O6B H1B 1_555 1_555
O7B P1B 1_555 1_555
H2B O7B 1_555 1_555
O8B U1 1_555 1_555
O9B P3B 1_555 1_555
H3B O9B 1_555 1_555
C1B P2B 1_555 1_555
C2B P1B 1_555 1_555
C3B H4B 1_555 1_555
H5B C3B 1_555 1_555
C4B P3B 1_555 1_555
C5B C11 1_555 1_555
H6B C5B 1_555 1_555
C6B C1B 1_555 1_555
H7B C6B 1_555 1_555
C7B C4B 1_555 1_555
H8B C7B 1_555 1_555
C8B C1B 1_555 1_555
H9B C8B 1_555 1_555
C9B C4B 1_555 1_555
H10B C9B 1_555 1_555
N1B C10 1_555 1_555
H11B N1B 1_555 1_555
H12B N1B 1_555 1_555
C10B N1 1_555 1_555
H13B C10B 1_555 1_555
H14B C10B 1_555 1_555
C11B C5 1_555 1_555
H15B C11B 1_555 1_555
O11B U1A 1_555 1_555
O11C U1 1_555 1_555
O11A U1B 1_555 1_555
O12B P1B 1_555 1_555
O12A U1 1_555 1_555
O12C U1B 1_555 1_555
C6 C7 1_555 1_555
C8 C9 1_555 1_555
P2B O8B 1_555 1_555
P2B O11B 1_555 1_555
C2B C5B 1_555 1_555
C2B C11B 1_555 1_555
C3B N1B 1_555 1_555
C3B C10B 1_555 1_555
C6B C7B 1_555 1_555
C8B C9B 1_555 1_555

#END
