
#######################################################################
#
#                 Cambridge Crystallographic Data Centre
#                                CCDC 
#
#######################################################################
#
# If this CIF has been generated from an entry in the Cambridge 
# Structural Database, then it will include bibliographic, chemical, 
# crystal, experimental, refinement or atomic coordinate data resulting 
# from the CCDC's data processing and validation procedures.
#
#######################################################################

data_GUYGOW
_symmetry_cell_setting           monoclinic
_symmetry_space_group_name_H-M   'C 2/c'
_symmetry_Int_Tables_number      15
_space_group_name_Hall           '-C 2yn'
loop_
_symmetry_equiv_pos_site_id
_symmetry_equiv_pos_as_xyz
1 x,y,z
2 1/2+x,1/2+y,z
3 x,-y,1/2+z
4 1/2+x,1/2-y,1/2+z
5 -x,-y,-z
6 1/2-x,1/2-y,-z
7 -x,y,1/2-z
8 1/2-x,1/2+y,1/2-z
_cell_length_a                   15.2485(11)
_cell_length_b                   9.0948(7)
_cell_length_c                   13.5787(10)
_cell_angle_alpha                90
_cell_angle_beta                 102.0960(10)
_cell_angle_gamma                90
_cell_volume                     1841.31
loop_
_atom_site_label
_atom_site_type_symbol
_atom_site_fract_x
_atom_site_fract_y
_atom_site_fract_z
Cu1 Cu 0.2500 0.7500 0.5000
Cd1 Cd 0.553560(14) 0.58602(2) 0.635350(14)
Cl1 Cl 0.40807(5) 0.60951(8) 0.48911(5)
Cl2 Cl 0.5000 0.78423(10) 0.7500
Cl3 Cl 0.5000 0.39129(10) 0.7500
C1 C 0.21079(18) 0.5066(3) 0.60618(19)
C2 C 0.1758(2) 0.3759(3) 0.6335(2)
H1 H 0.1901 0.3454 0.7003
C3 C 0.1035(2) 0.3395(3) 0.4691(2)
H2 H 0.0666 0.2833 0.4201
C4 C 0.1387(2) 0.4705(3) 0.4411(2)
H3 H 0.1253 0.5001 0.3741
C5 C 0.27110(18) 0.6055(3) 0.68030(19)
N1 N 0.19165(15) 0.5541(2) 0.51026(16)
N2 N 0.12104(17) 0.2921(2) 0.56452(17)
O1 O 0.28789(13) 0.72992(18) 0.64534(13)
O2 O 0.29895(14) 0.5606(2) 0.76765(14)
Cl1E Cl 0.09193(5) 0.89049(8) 0.51089(5)
C1E C 0.28921(18) 0.9934(3) 0.39382(19)
C2E C 0.3242(2) 1.1241(3) 0.3665(2)
H1E H 0.3099 1.1546 0.2997
C3E C 0.3965(2) 1.1605(3) 0.5309(2)
H2E H 0.4334 1.2167 0.5799
C4E C 0.3613(2) 1.0295(3) 0.5589(2)
H3E H 0.3747 0.9999 0.6259
C5E C 0.22890(18) 0.8945(3) 0.31970(19)
N1E N 0.30835(15) 0.9459(2) 0.48974(16)
N2E N 0.37896(17) 1.2079(2) 0.43548(17)
O1E O 0.21211(13) 0.77008(18) 0.35466(13)
O2E O 0.20105(14) 0.9394(2) 0.23235(14)
Cd1E Cd -0.053560(14) 0.91398(2) 0.364650(14)
Cl1D Cl 0.59193(5) 0.39049(8) 0.51089(5)
N2A N 0.62104(17) 0.7921(2) 0.56452(17)
O2F O 0.70105(14) 0.5606(2) 0.73235(14)
Cd1D Cd 0.446440(14) 0.41398(2) 0.364650(14)
Cd1F Cd 0.446440(14) 0.58602(2) 0.864650(14)
Cd1A Cd 0.053560(14) 0.08602(2) 0.635350(14)
Cd1A_2 Cd 0.053560(14) 1.08602(2) 0.635350(14)
Cd1D_2 Cd 0.446440(14) 1.41398(2) 0.364650(14)
Cd1C Cd 0.053560(14) 0.91398(2) 0.135350(14)
Cl1A Cl -0.09193(5) 1.10951(8) 0.48911(5)
Cl2C Cl 0.0000 0.71577(10) 0.2500
Cl3C Cl 0.0000 1.10871(10) 0.2500
N2D N -0.12104(17) 0.7079(2) 0.43548(17)
O2C O -0.20105(14) 0.9394(2) 0.26765(14)
loop_
_geom_bond_atom_site_label_1
_geom_bond_atom_site_label_2
_geom_bond_site_symmetry_1
_geom_bond_site_symmetry_2
Cu1 Cl1 1_555 1_555
Cd1 Cl1 1_555 1_555
Cl1 Cd1D 1_555 1_555
Cl2 Cd1 1_555 1_555
Cl3 Cd1 1_555 1_555
C1 C2 1_555 1_555
C2 H1 1_555 1_555
C3 H2 1_555 1_555
C4 C3 1_555 1_555
H3 C4 1_555 1_555
C5 C1 1_555 1_555
N1 Cu1 1_555 1_555
N2 C2 1_555 1_555
O1 Cu1 1_555 1_555
O2 C5 1_555 1_555
Cl1E Cu1 1_555 1_555
C1E C2E 1_555 1_555
C2E H1E 1_555 1_555
C3E H2E 1_555 1_555
C4E C3E 1_555 1_555
H3E C4E 1_555 1_555
C5E C1E 1_555 1_555
N1E Cu1 1_555 1_555
N2E C2E 1_555 1_555
O1E Cu1 1_555 1_555
O2E C5E 1_555 1_555
Cd1E Cl1E 1_555 1_555
Cl1D Cd1 1_555 1_555
N2A Cd1 1_555 1_555
O2F Cd1 1_555 1_555
Cd1D Cl1D 1_555 1_555
Cd1F Cl2 1_555 1_555
Cd1A N2 1_555 1_555
Cd1A_2 Cl1E 1_555 1_555
Cd1D_2 N2E 1_555 1_555
Cd1C O2E 1_555 1_555
Cl1A Cd1E 1_555 1_555
Cl2C Cd1E 1_555 1_555
Cl3C Cd1E 1_555 1_555
N2D Cd1E 1_555 1_555
O2C Cd1E 1_555 1_555
Cl3 Cd1F 1_555 1_555
C1 N1 1_555 1_555
C3 N2 1_555 1_555
C4 N1 1_555 1_555
C5 O1 1_555 1_555
O2 Cd1F 1_555 1_555
C1E N1E 1_555 1_555
C3E N2E 1_555 1_555
C4E N1E 1_555 1_555
C5E O1E 1_555 1_555
Cd1A_2 Cl1A 1_555 1_555
Cd1C Cl2C 1_555 1_555
Cd1C Cl3C 1_555 1_555

#END
