
#######################################################################
#
#                 Cambridge Crystallographic Data Centre
#                                CCDC 
#
#######################################################################
#
# If this CIF has been generated from an entry in the Cambridge 
# Structural Database, then it will include bibliographic, chemical, 
# crystal, experimental, refinement or atomic coordinate data resulting 
# from the CCDC's data processing and validation procedures.
#
#######################################################################

data_GUYGAK
_symmetry_cell_setting           monoclinic
_symmetry_space_group_name_H-M   'P 21/c'
_symmetry_Int_Tables_number      14
_space_group_name_Hall           '-P 2ybc'
loop_
_symmetry_equiv_pos_site_id
_symmetry_equiv_pos_as_xyz
1 x,y,z
2 -x,1/2+y,1/2-z
3 -x,-y,-z
4 x,1/2-y,1/2+z
_cell_length_a                   14.4906(4)
_cell_length_b                   13.7504(5)
_cell_length_c                   18.9091(7)
_cell_angle_alpha                90
_cell_angle_beta                 95.280(3)
_cell_angle_gamma                90
_cell_volume                     3751.68
loop_
_atom_site_label
_atom_site_type_symbol
_atom_site_fract_x
_atom_site_fract_y
_atom_site_fract_z
Cu1 Cu 0.02195(6) 0.41688(6) 0.30279(5)
C1 C 0.0231(5) 0.5745(5) 0.4220(4)
H1 H -0.0310 0.5434 0.4358
C2 C 0.0548(6) 0.6563(6) 0.4589(4)
H2 H 0.0251 0.6790 0.4984
C3 C 0.1296(6) 0.7036(6) 0.4373(5)
H3 H 0.1522 0.7609 0.4611
C4 C 0.1726(5) 0.6676(5) 0.3804(4)
H4 H 0.2254 0.6991 0.3647
C5 C 0.1365(4) 0.5838(4) 0.3465(4)
C6 C 0.1747(4) 0.5405(4) 0.2851(4)
C7 C 0.2539(4) 0.5612(5) 0.2515(4)
H5 H 0.2995 0.6092 0.2645
C8 C 0.2520(5) 0.4982(5) 0.1962(4)
H6 H 0.2977 0.4925 0.1635
C9 C 0.1410(5) 0.3664(5) 0.1481(4)
H7 H 0.1766 0.3666 0.1059
H8 H 0.0748 0.3768 0.1318
C10 C 0.1523(5) 0.2699(5) 0.1850(4)
C11 C 0.0773(5) 0.2218(5) 0.2081(4)
H9 H 0.0169 0.2477 0.1973
C12 C 0.0880(5) 0.1370(5) 0.2467(4)
H10 H 0.0349 0.1050 0.2615
C13 C 0.1742(5) 0.0981(4) 0.2642(4)
C14 C 0.2510(5) 0.1463(5) 0.2405(4)
H11 H 0.3114 0.1206 0.2520
C15 C 0.2401(5) 0.2304(5) 0.2008(4)
H12 H 0.2926 0.2613 0.1842
C16 C 0.1868(5) 0.0046(4) 0.3045(4)
H13 H 0.2450 0.0076 0.3362
H14 H 0.1348 -0.0040 0.3344
C17 C 0.2658(5) -0.1257(5) 0.2391(4)
H15 H 0.3279 -0.1113 0.2567
C18 C 0.2388(4) -0.1972(4) 0.1919(4)
H16 H 0.2771 -0.2426 0.1705
C19 C 0.1430(4) -0.1893(4) 0.1819(3)
C20 C 0.0727(4) -0.2460(4) 0.1395(3)
C21 C 0.0948(4) -0.3298(4) 0.1049(3)
H17 H 0.1571 -0.3518 0.1065
C22 C 0.0240(5) -0.3812(5) 0.0679(4)
H18 H 0.0370 -0.4401 0.0444
C23 C -0.0653(5) -0.3466(5) 0.0653(4)
H19 H -0.1149 -0.3806 0.0399
C24 C -0.0807(5) -0.2613(5) 0.1004(4)
H20 H -0.1423 -0.2370 0.0979
N1 N 0.0637(3) 0.5370(4) 0.3684(3)
N2 N 0.1261(4) 0.4693(4) 0.2512(3)
N3 N 0.1735(4) 0.4451(4) 0.1958(3)
N4 N 0.1903(4) -0.0794(3) 0.2563(3)
N5 N 0.1132(3) -0.1162(4) 0.2214(3)
N6 N -0.0142(3) -0.2105(4) 0.1377(3)
Cu1A Cu -0.02195(6) -0.08312(6) 0.19721(5)
N5A N -0.1132(3) 0.3838(4) 0.2786(3)
N6A N 0.0142(3) 0.2895(4) 0.3623(3)
Mo1 Mo 0.50638(3) 0.52628(3) 0.09303(3)
Mo2 Mo 0.56406(4) 0.28180(4) 0.10148(3)
Mo3 Mo 0.62411(4) 0.66237(4) -0.00315(3)
Mo4 Mo 0.68166(3) 0.41850(4) 0.00170(3)
O1 O 0.7372(3) 0.6750(3) -0.0159(2)
O2 O 0.5683(3) 0.7119(3) -0.0909(2)
O3 O 0.5236(2) 0.4024(3) 0.0076(2)
O4 O 0.5863(3) 0.2316(3) 0.1835(3)
O5 O 0.6760(3) 0.3526(3) 0.0890(2)
O6 O 0.5369(3) 0.4294(3) 0.1514(2)
O7 O 0.7908(3) 0.4643(3) 0.0112(3)
O8 O 0.5782(3) 0.1896(3) 0.0438(3)
O9 O 0.6018(3) 0.7530(3) 0.0531(2)
O10 O 0.3792(3) 0.4858(3) 0.0668(2)
O11 O 0.6297(2) 0.5528(3) 0.0660(2)
O12 O 0.6878(3) 0.3242(3) -0.0557(2)
O13 O 0.4893(3) 0.6197(3) 0.1477(2)
Mo1B Mo 0.49362(3) 0.47372(3) -0.09303(3)
Mo2B Mo 0.43594(4) 0.71820(4) -0.10148(3)
Mo3B Mo 0.37589(4) 0.33763(4) 0.00315(3)
Mo4B Mo 0.31834(3) 0.58150(4) -0.00170(3)
O1B O 0.2628(3) 0.3250(3) 0.0159(2)
O2B O 0.4317(3) 0.2881(3) 0.0909(2)
O3B O 0.4764(2) 0.5976(3) -0.0076(2)
O4B O 0.4137(3) 0.7684(3) -0.1835(3)
O5B O 0.3240(3) 0.6474(3) -0.0890(2)
O6B O 0.4631(3) 0.5706(3) -0.1514(2)
O7B O 0.2092(3) 0.5357(3) -0.0112(3)
O8B O 0.4218(3) 0.8104(3) -0.0438(3)
O9B O 0.3982(3) 0.2470(3) -0.0531(2)
O10B O 0.6208(3) 0.5142(3) -0.0668(2)
O11B O 0.3703(2) 0.4472(3) -0.0660(2)
O12B O 0.3122(3) 0.6758(3) 0.0557(2)
O13B O 0.5107(3) 0.3803(3) -0.1477(2)
C25 C 0.5122(6) 0.5086(6) 0.3193(5)
H21 H 0.4803 0.5418 0.2803
C26 C 0.5721(6) 0.5472(7) 0.3686(6)
H22 H 0.5897 0.6137 0.3722
C27 C 0.5624(6) 0.3944(7) 0.3922(5)
H23 H 0.5721 0.3330 0.4147
C28 C 0.4434(6) 0.3430(5) 0.2957(4)
H24 H 0.4507 0.2784 0.3174
H25 H 0.4591 0.3399 0.2464
H26 H 0.3791 0.3646 0.2965
C29 C 0.6699(10) 0.4916(11) 0.4814(8)
H27 H 0.6388 0.5344 0.5139
H28 H 0.6825 0.4286 0.5057
C30 C 0.7530(10) 0.5334(13) 0.4673(10)
H29 H 0.7931 0.5403 0.5117
H30 H 0.7412 0.5976 0.4459
H31 H 0.7836 0.4919 0.4344
N7 N 0.5047(4) 0.4112(4) 0.3352(3)
N8 N 0.6039(5) 0.4744(7) 0.4128(4)
loop_
_geom_bond_atom_site_label_1
_geom_bond_atom_site_label_2
_geom_bond_site_symmetry_1
_geom_bond_site_symmetry_2
Cu1 N1 1_555 1_555
C1 H1 1_555 1_555
C2 C1 1_555 1_555
H2 C2 1_555 1_555
C3 C2 1_555 1_555
H3 C3 1_555 1_555
C4 C3 1_555 1_555
H4 C4 1_555 1_555
C5 C4 1_555 1_555
C6 C5 1_555 1_555
C7 C6 1_555 1_555
H5 C7 1_555 1_555
C8 C7 1_555 1_555
H6 C8 1_555 1_555
C9 H7 1_555 1_555
H8 C9 1_555 1_555
C10 C9 1_555 1_555
C11 C10 1_555 1_555
H9 C11 1_555 1_555
C12 C11 1_555 1_555
H10 C12 1_555 1_555
C13 C12 1_555 1_555
C14 C13 1_555 1_555
H11 C14 1_555 1_555
C15 C10 1_555 1_555
H12 C15 1_555 1_555
C16 C13 1_555 1_555
H13 C16 1_555 1_555
H14 C16 1_555 1_555
C17 H15 1_555 1_555
C18 C17 1_555 1_555
H16 C18 1_555 1_555
C19 C18 1_555 1_555
C20 C19 1_555 1_555
C21 C20 1_555 1_555
H17 C21 1_555 1_555
C22 C21 1_555 1_555
H18 C22 1_555 1_555
C23 C22 1_555 1_555
H19 C23 1_555 1_555
C24 C23 1_555 1_555
H20 C24 1_555 1_555
N1 C1 1_555 1_555
N2 Cu1 1_555 1_555
N3 C8 1_555 1_555
N4 C16 1_555 1_555
N5 C19 1_555 1_555
N6 C20 1_555 1_555
Mo1 O3 1_555 1_555
Mo2 O3 1_555 1_555
Mo3 O1 1_555 1_555
Mo4 O3 1_555 1_555
O2 Mo3 1_555 1_555
O3 Mo1B 1_555 1_555
O4 Mo2 1_555 1_555
O5 Mo2 1_555 1_555
O6 Mo1 1_555 1_555
O7 Mo4 1_555 1_555
O8 Mo2 1_555 1_555
O9 Mo3 1_555 1_555
O10 Mo1 1_555 1_555
O11 Mo1 1_555 1_555
O12 Mo4 1_555 1_555
O13 Mo1 1_555 1_555
C25 H21 1_555 1_555
C26 C25 1_555 1_555
H22 C26 1_555 1_555
C27 H23 1_555 1_555
C28 H24 1_555 1_555
H25 C28 1_555 1_555
H26 C28 1_555 1_555
C29 H27 1_555 1_555
H28 C29 1_555 1_555
C30 C29 1_555 1_555
H29 C30 1_555 1_555
H30 C30 1_555 1_555
H31 C30 1_555 1_555
N7 C25 1_555 1_555
N8 C26 1_555 1_555
Cu1A N5 1_555 1_555
N5A Cu1 1_555 1_555
N6A Cu1 1_555 1_555
Mo1B O3B 1_555 1_555
Mo2B O2 1_555 1_555
Mo3B O3 1_555 1_555
Mo4B O10 1_555 1_555
O1B Mo3B 1_555 1_555
O2B Mo2 1_555 1_555
O3B Mo1 1_555 1_555
O4B Mo2B 1_555 1_555
O5B Mo2B 1_555 1_555
O6B Mo1B 1_555 1_555
O7B Mo4B 1_555 1_555
O8B Mo2B 1_555 1_555
O9B Mo3B 1_555 1_555
O10B Mo3 1_555 1_555
O11B Mo1B 1_555 1_555
O12B Mo4B 1_555 1_555
O13B Mo1B 1_555 1_555
C5 N1 1_555 1_555
C6 N2 1_555 1_555
C9 N3 1_555 1_555
C14 C15 1_555 1_555
C17 N4 1_555 1_555
C24 N6 1_555 1_555
N2 N3 1_555 1_555
N4 N5 1_555 1_555
N6 Cu1A 1_555 1_555
Mo2 O6 1_555 1_555
Mo3 O11 1_555 1_555
Mo3 O3B 1_555 1_555
Mo4 O5 1_555 1_555
Mo4 O11 1_555 1_555
Mo4 O10B 1_555 1_555
O10 Mo3B 1_555 1_555
C27 N7 1_555 1_555
C27 N8 1_555 1_555
C28 N7 1_555 1_555
C29 N8 1_555 1_555
Mo1B O10B 1_555 1_555
Mo2B O3B 1_555 1_555
Mo2B O6B 1_555 1_555
Mo3B O2B 1_555 1_555
Mo3B O11B 1_555 1_555
Mo4B O3B 1_555 1_555
Mo4B O5B 1_555 1_555
Mo4B O11B 1_555 1_555

#END
