
#######################################################################
#
#                 Cambridge Crystallographic Data Centre
#                                CCDC 
#
#######################################################################
#
# If this CIF has been generated from an entry in the Cambridge 
# Structural Database, then it will include bibliographic, chemical, 
# crystal, experimental, refinement or atomic coordinate data resulting 
# from the CCDC's data processing and validation procedures.
#
#######################################################################

data_GUYGIQ
_symmetry_cell_setting           triclinic
_symmetry_space_group_name_H-M   'P -1'
_symmetry_Int_Tables_number      2
_space_group_name_Hall           '-P 1'
loop_
_symmetry_equiv_pos_site_id
_symmetry_equiv_pos_as_xyz
1 x,y,z
2 -x,-y,-z
_cell_length_a                   6.5901(6)
_cell_length_b                   9.2936(8)
_cell_length_c                   19.4373(17)
_cell_angle_alpha                82.778(2)
_cell_angle_beta                 86.121(2)
_cell_angle_gamma                72.191(2)
_cell_volume                     1123.88
loop_
_atom_site_label
_atom_site_type_symbol
_atom_site_fract_x
_atom_site_fract_y
_atom_site_fract_z
Cu1 Cu 0.53653(9) 0.96771(6) 0.75681(3)
Cd1 Cd 0.79016(5) 1.40084(3) 0.996425(16)
Cd2 Cd 0.21129(5) 0.60206(3) 0.503481(16)
Cl1 Cl 0.89621(16) 1.55565(12) 1.08278(5)
Cl2 Cl 0.47398(16) 1.36968(11) 1.07416(5)
Cl3 Cl 0.11168(16) 0.43509(12) 0.42107(5)
Cl4 Cl 0.52875(16) 0.63246(12) 0.42587(5)
C1 C 0.5287(6) 1.0962(4) 0.8776(2)
C2 C 0.5735(6) 1.1766(4) 0.9269(2)
H1 H 0.4917 1.1861 0.9691
C3 C 0.8428(7) 1.2226(5) 0.8564(2)
H2 H 0.9561 1.2664 0.8477
C4 C 0.8003(7) 1.1418(5) 0.8067(2)
H3 H 0.8845 1.1299 0.7650
C5 C 0.3508(6) 1.0232(4) 0.8846(2)
C6 C 0.4905(6) 0.8872(4) 0.6283(2)
C7 C 0.4267(6) 0.8237(4) 0.5763(2)
H4 H 0.4892 0.8315 0.5310
C8 C 0.1910(6) 0.7477(5) 0.6521(2)
H5 H 0.0836 0.6987 0.6619
C9 C 0.2509(7) 0.8128(5) 0.7044(2)
H6 H 0.1830 0.8097 0.7490
C10 C 0.6639(6) 0.9630(5) 0.6197(2)
N1 N 0.6404(5) 1.0808(4) 0.81785(18)
N2 N 0.7302(5) 1.2409(4) 0.91587(17)
N3 N 0.4034(5) 0.8798(4) 0.69229(18)
N4 N 0.2788(5) 0.7513(4) 0.58830(18)
O1 O 0.3252(4) 0.9654(3) 0.83131(14)
O2 O 0.2428(4) 1.0243(3) 0.93908(15)
O3 O 0.7078(4) 1.0075(3) 0.67504(14)
O4 O 0.7543(4) 0.9769(3) 0.56254(14)
O5 O 0.8122(6) 0.7525(4) 0.7927(2)
H7 H 0.801(7) 0.673(3) 0.778(2)
H8 H 0.811(10) 0.739(7) 0.8359(11)
O6 O 1.0147(5) 1.1733(3) 1.05022(17)
H9 H 1.087(6) 1.136(5) 1.0162(17)
H10 H 0.939(5) 1.118(4) 1.062(2)
O7 O -0.0079(5) 0.8285(3) 0.45164(17)
H11 H -0.086(5) 0.862(4) 0.4852(15)
H12 H 0.059(8) 0.893(5) 0.444(3)
Cl1A Cl 1.10379(16) 1.44435(12) 0.91722(5)
Cl2A Cl 0.52602(16) 1.63032(11) 0.92584(5)
Cl3A Cl -0.11168(16) 0.56491(12) 0.57893(5)
Cl4A Cl 0.47125(16) 0.36754(12) 0.57413(5)
Cd1A Cd 1.20984(5) 1.59916(3) 1.003575(16)
Cd1A_2 Cd 0.20984(5) 1.59916(3) 1.003575(16)
Cd2A Cd -0.21129(5) 0.39794(3) 0.496519(16)
Cd2A_2 Cd 0.78871(5) 0.39794(3) 0.496519(16)
O8 O 0.7903(8) 0.4947(5) 0.7363(2)
H13 H 0.654(4) 0.500(7) 0.739(3)
H14 H 0.811(9) 0.502(8) 0.6920(12)
O9 O 0.4095(7) 0.4622(5) 0.7782(3)
H15 H 0.3331 0.4294 0.7530
H16 H 0.3288 0.4911 0.8133
O10 O 0.2179(9) 0.2769(6) 0.7180(3)
H17 H 0.249(10) 0.241(7) 0.6793(19)
H18 H 0.092(4) 0.327(6) 0.723(3)
loop_
_geom_bond_atom_site_label_1
_geom_bond_atom_site_label_2
_geom_bond_site_symmetry_1
_geom_bond_site_symmetry_2
Cu1 N1 1_555 1_555
Cd1 Cl1 1_555 1_555
Cd2 Cl3 1_555 1_555
Cl1 Cd1A 1_555 1_555
Cl2 Cd1 1_555 1_555
Cl3 Cd2A 1_555 1_555
Cl4 Cd2 1_555 1_555
C1 C2 1_555 1_555
C2 H1 1_555 1_555
C3 H2 1_555 1_555
C4 C3 1_555 1_555
H3 C4 1_555 1_555
C5 C1 1_555 1_555
C6 C7 1_555 1_555
C7 H4 1_555 1_555
C8 H5 1_555 1_555
C9 C8 1_555 1_555
H6 C9 1_555 1_555
C10 C6 1_555 1_555
N1 C1 1_555 1_555
N2 Cd1 1_555 1_555
N3 Cu1 1_555 1_555
N4 Cd2 1_555 1_555
O1 Cu1 1_555 1_555
O2 C5 1_555 1_555
O3 Cu1 1_555 1_555
O4 C10 1_555 1_555
O5 Cu1 1_555 1_555
H7 O5 1_555 1_555
H8 O5 1_555 1_555
O6 Cd1 1_555 1_555
H9 O6 1_555 1_555
H10 O6 1_555 1_555
O7 Cd2 1_555 1_555
H11 O7 1_555 1_555
H12 O7 1_555 1_555
O8 H13 1_555 1_555
H14 O8 1_555 1_555
O9 H15 1_555 1_555
H16 O9 1_555 1_555
O10 H17 1_555 1_555
H18 O10 1_555 1_555
Cl1A Cd1 1_555 1_555
Cl2A Cd1 1_555 1_555
Cl3A Cd2 1_555 1_555
Cl4A Cd2 1_555 1_555
Cd1A Cl1A 1_555 1_555
Cd1A_2 Cl2 1_555 1_555
Cd2A Cl3A 1_555 1_555
Cd2A_2 Cl4 1_555 1_555
C2 N2 1_555 1_555
C3 N2 1_555 1_555
C4 N1 1_555 1_555
C5 O1 1_555 1_555
C6 N3 1_555 1_555
C7 N4 1_555 1_555
C8 N4 1_555 1_555
C9 N3 1_555 1_555
C10 O3 1_555 1_555
Cl2A Cd1A_2 1_555 1_555
Cl4A Cd2A_2 1_555 1_555

#END
