
#######################################################################
#
#                 Cambridge Crystallographic Data Centre
#                                CCDC 
#
#######################################################################
#
# If this CIF has been generated from an entry in the Cambridge 
# Structural Database, then it will include bibliographic, chemical, 
# crystal, experimental, refinement or atomic coordinate data resulting 
# from the CCDC's data processing and validation procedures.
#
#######################################################################

data_GUYGEM
_symmetry_cell_setting           triclinic
_symmetry_space_group_name_H-M   'P -1'
_symmetry_Int_Tables_number      2
_space_group_name_Hall           '-P 1'
loop_
_symmetry_equiv_pos_site_id
_symmetry_equiv_pos_as_xyz
1 x,y,z
2 -x,-y,-z
_cell_length_a                   6.7082(11)
_cell_length_b                   8.1416(13)
_cell_length_c                   10.3645(17)
_cell_angle_alpha                76.568(3)
_cell_angle_beta                 75.419(3)
_cell_angle_gamma                86.280(3)
_cell_volume                     532.833
loop_
_atom_site_label
_atom_site_type_symbol
_atom_site_fract_x
_atom_site_fract_y
_atom_site_fract_z
Cu1 Cu 0.0000 0.0000 0.5000
Cd1 Cd 0.28607(4) 0.49119(4) 0.91442(3)
Cl1 Cl 0.40589(15) 0.69474(13) 1.04165(11)
Cl2 Cl 0.01970(15) 0.30668(13) 1.11826(10)
C1 C -0.0010(6) 0.2556(5) 0.6370(4)
C2 C 0.0476(6) 0.3552(5) 0.7173(4)
H1 H -0.0263 0.4573 0.7256
C3 C 0.2958(6) 0.1618(5) 0.7716(4)
H2 H 0.4015 0.1256 0.8181
C4 C 0.2452(7) 0.0620(5) 0.6927(4)
H3 H 0.3155 -0.0421 0.6869
C5 C -0.1608(6) 0.3064(5) 0.5534(4)
N1 N 0.0988(5) 0.1108(4) 0.6248(3)
N2 N 0.1976(5) 0.3083(4) 0.7830(3)
O1 O -0.1693(4) 0.2094(3) 0.4744(3)
O2 O -0.2627(4) 0.4366(4) 0.5623(3)
O3 O 0.2861(5) 0.1017(4) 0.3129(3)
H4 H 0.352(6) 0.186(4) 0.310(5)
H5 H 0.238(10) 0.143(8) 0.243(5)
O4 O 0.4505(5) 0.6389(4) 0.6862(3)
H6 H 0.525(6) 0.565(4) 0.652(4)
H7 H 0.364(6) 0.665(7) 0.640(5)
C1A C 0.0010(6) -0.2556(5) 0.3630(4)
C2A C -0.0476(6) -0.3552(5) 0.2827(4)
H1A H 0.0263 -0.4573 0.2744
C3A C -0.2958(6) -0.1618(5) 0.2284(4)
H2A H -0.4015 -0.1256 0.1819
C4A C -0.2452(7) -0.0620(5) 0.3073(4)
H3A H -0.3155 0.0421 0.3131
C5A C 0.1608(6) -0.3064(5) 0.4466(4)
N1A N -0.0988(5) -0.1108(4) 0.3752(3)
N2A N -0.1976(5) -0.3083(4) 0.2170(3)
O1A O 0.1693(4) -0.2094(3) 0.5256(3)
O2A O 0.2627(4) -0.4366(4) 0.4377(3)
O3A O -0.2861(5) -0.1017(4) 0.6871(3)
H4A H -0.352(6) -0.186(4) 0.690(5)
H5A H -0.238(10) -0.143(8) 0.757(5)
Cd1A Cd -0.28607(4) -0.49119(4) 0.08558(3)
Cl1A Cl 0.59411(15) 0.30526(13) 0.95835(11)
Cl2A Cl -0.01970(15) 0.69332(13) 0.88174(10)
O4A O -0.4505(5) -0.6389(4) 0.3138(3)
H6A H -0.525(6) -0.565(4) 0.348(4)
H7A H -0.364(6) -0.665(7) 0.360(5)
Cd1A_2 Cd 0.71393(4) 0.50881(4) 1.08558(3)
Cd1A_3 Cd -0.28607(4) 0.50881(4) 1.08558(3)
Cl1_2 Cl -0.59411(15) -0.30526(13) 0.04165(11)
Cl1A_2 Cl -0.40589(15) -0.69474(13) -0.04165(11)
Cl2_2 Cl 0.01970(15) -0.69332(13) 0.11826(10)
Cl2A_2 Cl -0.01970(15) -0.30668(13) -0.11826(10)
loop_
_geom_bond_atom_site_label_1
_geom_bond_atom_site_label_2
_geom_bond_site_symmetry_1
_geom_bond_site_symmetry_2
Cu1 N1 1_555 1_555
Cd1 Cl1 1_555 1_555
Cl1 Cd1A_2 1_555 1_555
Cl2 Cd1 1_555 1_555
C1 C2 1_555 1_555
C2 H1 1_555 1_555
C3 H2 1_555 1_555
C4 C3 1_555 1_555
H3 C4 1_555 1_555
C5 C1 1_555 1_555
N1 C1 1_555 1_555
N2 Cd1 1_555 1_555
O1 Cu1 1_555 1_555
O2 C5 1_555 1_555
O3 Cu1 1_555 1_555
H4 O3 1_555 1_555
H5 O3 1_555 1_555
O4 Cd1 1_555 1_555
H6 O4 1_555 1_555
H7 O4 1_555 1_555
C1A C2A 1_555 1_555
C2A H1A 1_555 1_555
C3A H2A 1_555 1_555
C4A C3A 1_555 1_555
H3A C4A 1_555 1_555
C5A C1A 1_555 1_555
N1A Cu1 1_555 1_555
N2A C2A 1_555 1_555
O1A Cu1 1_555 1_555
O2A C5A 1_555 1_555
O3A Cu1 1_555 1_555
H4A O3A 1_555 1_555
H5A O3A 1_555 1_555
Cd1A N2A 1_555 1_555
Cl1A Cd1 1_555 1_555
Cl2A Cd1 1_555 1_555
O4A Cd1A 1_555 1_555
H6A O4A 1_555 1_555
H7A O4A 1_555 1_555
Cd1A_2 Cl1A 1_555 1_555
Cd1A_3 Cl2 1_555 1_555
Cl1_2 Cd1A 1_555 1_555
Cl1A_2 Cd1A 1_555 1_555
Cl2_2 Cd1A 1_555 1_555
Cl2A_2 Cd1A 1_555 1_555
C2 N2 1_555 1_555
C3 N2 1_555 1_555
C4 N1 1_555 1_555
C5 O1 1_555 1_555
C1A N1A 1_555 1_555
C3A N2A 1_555 1_555
C4A N1A 1_555 1_555
C5A O1A 1_555 1_555
Cl2A Cd1A_3 1_555 1_555

#END
