
#######################################################################
#
#                 Cambridge Crystallographic Data Centre
#                                CCDC 
#
#######################################################################
#
# If this CIF has been generated from an entry in the Cambridge 
# Structural Database, then it will include bibliographic, chemical, 
# crystal, experimental, refinement or atomic coordinate data resulting 
# from the CCDC's data processing and validation procedures.
#
#######################################################################

data_GUYGAI
_symmetry_cell_setting           triclinic
_symmetry_space_group_name_H-M   'P -1'
_symmetry_Int_Tables_number      2
_space_group_name_Hall           '-P 1'
loop_
_symmetry_equiv_pos_site_id
_symmetry_equiv_pos_as_xyz
1 x,y,z
2 -x,-y,-z
_cell_length_a                   7.2898(7)
_cell_length_b                   11.0148(10)
_cell_length_c                   11.3154(11)
_cell_angle_alpha                68.462(2)
_cell_angle_beta                 88.051(2)
_cell_angle_gamma                84.854(2)
_cell_volume                     841.729
loop_
_atom_site_label
_atom_site_type_symbol
_atom_site_fract_x
_atom_site_fract_y
_atom_site_fract_z
Cu1 Cu 0.39983(6) 0.31792(4) 0.45829(4)
Cd1 Cd -0.07416(3) 0.84747(2) -0.03339(2)
Cl1 Cl -0.15744(12) 0.96444(8) 0.12328(8)
Cl2 Cl -0.32455(13) 0.69301(9) 0.03051(9)
C1 C 0.2171(5) 0.5609(3) 0.3334(3)
C2 C 0.1259(5) 0.6659(3) 0.2421(3)
H1 H 0.0569 0.7283 0.2660
C3 C 0.2322(5) 0.5879(3) 0.0908(3)
H2 H 0.2429 0.5960 0.0062
C4 C 0.3197(5) 0.4794(3) 0.1829(3)
H3 H 0.3846 0.4150 0.1595
C5 C 0.2214(5) 0.5407(3) 0.4732(3)
C6 C 0.6414(4) 0.1039(3) 0.5846(3)
C7 C 0.7418(5) 0.0079(3) 0.6785(3)
H4 H 0.8211 -0.0525 0.6581
C8 C 0.6103(4) 0.0859(3) 0.8255(3)
H5 H 0.5973 0.0819 0.9089
C9 C 0.5070(4) 0.1817(3) 0.7316(3)
H6 H 0.4243 0.2402 0.7522
C10 C 0.6534(5) 0.1249(3) 0.4448(3)
N1 N 0.3117(4) 0.4664(3) 0.3036(2)
N2 N 0.1339(4) 0.6807(3) 0.1191(2)
N3 N 0.5254(4) 0.1905(3) 0.6117(2)
N4 N 0.7273(4) -0.0003(3) 0.8006(2)
O1 O 0.3002(3) 0.4340(2) 0.5446(2)
O2 O 0.1516(4) 0.6283(2) 0.5071(2)
O3 O 0.5484(3) 0.2196(2) 0.3736(2)
O4 O 0.7599(4) 0.0534(2) 0.4093(2)
O5 O 0.1533(4) 0.2106(3) 0.4789(3)
H7 H 0.058(4) 0.249(4) 0.496(4)
H8 H 0.149(6) 0.135(2) 0.529(3)
O6 O 0.0703(4) 0.7853(3) -0.1845(3)
H9 H 0.139(6) 0.840(4) -0.227(4)
H10 H 0.065(6) 0.717(3) -0.198(4)
Cl1A Cl 0.15744(12) 1.03556(8) -0.12328(8)
N4_2 N -0.2727(4) 0.9997(3) -0.1994(2)
Cd1A Cd 0.07416(3) 1.15253(2) 0.03339(2)
Cd1_2 Cd 0.92584(3) -0.15253(2) 0.96661(2)
O7 O 0.1187(5) 0.5630(3) 0.7725(3)
H11 H 0.148(6) 0.573(4) 0.698(2)
H12 H 0.204(5) 0.508(4) 0.813(4)
loop_
_geom_bond_atom_site_label_1
_geom_bond_atom_site_label_2
_geom_bond_site_symmetry_1
_geom_bond_site_symmetry_2
Cu1 N1 1_555 1_555
Cd1 Cl1 1_555 1_555
Cl1 Cd1A 1_555 1_555
Cl2 Cd1 1_555 1_555
C1 C2 1_555 1_555
C2 H1 1_555 1_555
C3 H2 1_555 1_555
C4 C3 1_555 1_555
H3 C4 1_555 1_555
C5 C1 1_555 1_555
C6 C7 1_555 1_555
C7 H4 1_555 1_555
C8 H5 1_555 1_555
C9 C8 1_555 1_555
H6 C9 1_555 1_555
C10 C6 1_555 1_555
N1 C1 1_555 1_555
N2 Cd1 1_555 1_555
N3 Cu1 1_555 1_555
N4 C7 1_555 1_555
O1 Cu1 1_555 1_555
O2 C5 1_555 1_555
O3 Cu1 1_555 1_555
O4 C10 1_555 1_555
O5 Cu1 1_555 1_555
H7 O5 1_555 1_555
H8 O5 1_555 1_555
O6 Cd1 1_555 1_555
H9 O6 1_555 1_555
H10 O6 1_555 1_555
O7 H11 1_555 1_555
H12 O7 1_555 1_555
Cl1A Cd1 1_555 1_555
N4_2 Cd1 1_555 1_555
Cd1A Cl1A 1_555 1_555
Cd1_2 N4 1_555 1_555
C2 N2 1_555 1_555
C3 N2 1_555 1_555
C4 N1 1_555 1_555
C5 O1 1_555 1_555
C6 N3 1_555 1_555
C8 N4 1_555 1_555
C9 N3 1_555 1_555
C10 O3 1_555 1_555

#END
