
#######################################################################
#
#                 Cambridge Crystallographic Data Centre
#                                CCDC 
#
#######################################################################
#
# If this CIF has been generated from an entry in the Cambridge 
# Structural Database, then it will include bibliographic, chemical, 
# crystal, experimental, refinement or atomic coordinate data resulting 
# from the CCDC's data processing and validation procedures.
#
#######################################################################

data_GUYHOX
_symmetry_cell_setting           triclinic
_symmetry_space_group_name_H-M   'P -1'
_symmetry_Int_Tables_number      2
_space_group_name_Hall           '-P 1'
loop_
_symmetry_equiv_pos_site_id
_symmetry_equiv_pos_as_xyz
1 x,y,z
2 -x,-y,-z
_cell_length_a                   11.4195(16)
_cell_length_b                   12.4903(17)
_cell_length_c                   14.651(2)
_cell_angle_alpha                64.648(4)
_cell_angle_beta                 69.447(4)
_cell_angle_gamma                77.377(4)
_cell_volume                     1762.5
loop_
_atom_site_label
_atom_site_type_symbol
_atom_site_fract_x
_atom_site_fract_y
_atom_site_fract_z
Cd1 Cd 0.860024(17) 0.508292(16) 0.125674(15)
Cd2 Cd 0.645171(18) 0.434378(17) 0.411285(15)
S1 S 1.11691(7) 0.57336(6) 0.02101(6)
S2 S 0.70398(7) 0.30966(6) 0.29245(6)
S3 S 0.80922(7) 0.59263(6) 0.28046(6)
S4 S 0.56961(7) 0.45328(6) 0.61601(6)
F1 F 0.6808(3) 1.0138(3) -0.0592(3)
F2 F 0.8135(4) 1.0851(3) -0.1992(3)
F3 F 0.8186(6) 1.1030(4) -0.0679(6)
F4 F 1.3035(3) 0.1387(4) 0.1937(3)
F5 F 1.2883(3) 0.2133(3) 0.2990(4)
F6 F 1.2547(3) 0.0362(3) 0.3560(3)
F7 F 1.1387(4) 0.1425(2) 0.5370(3)
F8 F 1.2289(3) 0.2733(3) 0.5351(3)
F9 F 1.0636(3) 0.2172(3) 0.6510(2)
F10 F 0.4720(4) -0.0474(3) 0.6174(3)
F11 F 0.2919(3) -0.0006(2) 0.7044(3)
F12 F 0.4255(3) -0.1015(2) 0.7801(2)
N1 N 0.9061(2) 0.7076(2) 0.01185(17)
N2 N 0.9478(2) 0.32658(19) 0.23081(17)
N3 N 0.8564(2) 0.3979(2) 0.43492(18)
N4 N 0.5555(2) 0.2786(2) 0.56584(18)
N5 N 0.4674(3) 0.5724(3) 0.0991(3)
O1 O 0.6608(2) 0.6004(2) 0.08889(19)
C1 C 1.0318(3) 0.7098(2) -0.0210(2)
C2 C 1.0876(3) 0.8170(3) -0.0833(3)
H1 H 1.1745 0.8177 -0.1071
C3 C 1.0134(4) 0.9207(3) -0.1090(3)
H2 H 1.0493 0.9927 -0.1501
C4 C 0.8842(4) 0.9178(3) -0.0733(3)
C5 C 0.8346(3) 0.8099(3) -0.0142(2)
H3 H 0.7479 0.8077 0.0088
C6 C 0.8019(5) 1.0295(4) -0.0989(4)
C7 C 0.8555(3) 0.2543(2) 0.2973(2)
C8 C 0.8845(3) 0.1381(2) 0.3635(2)
H4 H 0.8209 0.0881 0.4096
C9 C 1.0073(3) 0.0989(3) 0.3595(3)
H5 H 1.0279 0.0214 0.4018
C10 C 1.1007(3) 0.1756(3) 0.2921(2)
C11 C 1.0662(3) 0.2881(3) 0.2294(2)
H6 H 1.1285 0.3397 0.1840
C12 C 1.2358(4) 0.1397(4) 0.2842(3)
C13 C 0.9073(2) 0.4958(2) 0.3552(2)
C14 C 1.0297(3) 0.5178(3) 0.3363(2)
H7 H 1.0636 0.5861 0.2813
C15 C 1.0999(3) 0.4371(3) 0.4000(3)
H8 H 1.1816 0.4508 0.3888
C16 C 1.0477(3) 0.3355(3) 0.4808(2)
C17 C 0.9257(3) 0.3199(3) 0.4955(2)
H9 H 0.8901 0.2521 0.5501
C18 C 1.1209(4) 0.2431(3) 0.5490(3)
C19 C 0.5282(3) 0.3127(2) 0.6469(2)
C20 C 0.4680(3) 0.2381(3) 0.7488(2)
H10 H 0.4525 0.2598 0.8056
C21 C 0.4318(3) 0.1316(3) 0.7645(3)
H11 H 0.3909 0.0813 0.8321
C22 C 0.4562(3) 0.1003(3) 0.6802(2)
C23 C 0.5198(3) 0.1756(3) 0.5818(2)
H12 H 0.5386 0.1540 0.5245
C24 C 0.4117(4) -0.0104(3) 0.6940(3)
C25 C 0.5761(3) 0.5387(3) 0.1170(3)
H13 H 0.5905 0.4582 0.1558
C26 C 0.4361(7) 0.6954(6) 0.0419(8)
H14 H 0.3766 0.7289 0.0898
H15 H 0.4001 0.7021 -0.0108
H16 H 0.5105 0.7374 0.0083
C27 C 0.3721(5) 0.4880(7) 0.1456(4)
H17 H 0.3485 0.4839 0.0905
H18 H 0.2999 0.5137 0.1919
H19 H 0.4053 0.4110 0.1850
S1A S 0.88309(7) 0.42664(6) -0.02101(6)
S4A S 0.43039(7) 0.54672(6) 0.38399(6)
Cd1A Cd 1.139976(17) 0.491708(16) -0.125674(15)
Cd2A Cd 0.354829(18) 0.565622(17) 0.588715(15)
loop_
_geom_bond_atom_site_label_1
_geom_bond_atom_site_label_2
_geom_bond_site_symmetry_1
_geom_bond_site_symmetry_2
Cd1 S1 1_555 1_555
Cd2 S2 1_555 1_555
S1 C1 1_555 1_555
S2 Cd1 1_555 1_555
S3 Cd1 1_555 1_555
S4 Cd2 1_555 1_555
F1 C6 1_555 1_555
F2 C6 1_555 1_555
F3 C6 1_555 1_555
F4 C12 1_555 1_555
F5 C12 1_555 1_555
F6 C12 1_555 1_555
F7 C18 1_555 1_555
F8 C18 1_555 1_555
F9 C18 1_555 1_555
F10 C24 1_555 1_555
F11 C24 1_555 1_555
F12 C24 1_555 1_555
N1 Cd1 1_555 1_555
N2 Cd1 1_555 1_555
N3 Cd2 1_555 1_555
N4 Cd2 1_555 1_555
N5 C25 1_555 1_555
O1 Cd1 1_555 1_555
C1 N1 1_555 1_555
C2 C1 1_555 1_555
H1 C2 1_555 1_555
C3 C2 1_555 1_555
H2 C3 1_555 1_555
C4 C3 1_555 1_555
C5 N1 1_555 1_555
H3 C5 1_555 1_555
C6 C4 1_555 1_555
C7 S2 1_555 1_555
C8 C7 1_555 1_555
H4 C8 1_555 1_555
C9 C8 1_555 1_555
H5 C9 1_555 1_555
C10 C9 1_555 1_555
C11 N2 1_555 1_555
H6 C11 1_555 1_555
C12 C10 1_555 1_555
C13 S3 1_555 1_555
C14 C13 1_555 1_555
H7 C14 1_555 1_555
C15 C14 1_555 1_555
H8 C15 1_555 1_555
C16 C15 1_555 1_555
C17 N3 1_555 1_555
H9 C17 1_555 1_555
C18 C16 1_555 1_555
C19 S4 1_555 1_555
C20 C19 1_555 1_555
H10 C20 1_555 1_555
C21 C20 1_555 1_555
H11 C21 1_555 1_555
C22 C21 1_555 1_555
C23 N4 1_555 1_555
H12 C23 1_555 1_555
C24 C22 1_555 1_555
C25 O1 1_555 1_555
H13 C25 1_555 1_555
C26 N5 1_555 1_555
H14 C26 1_555 1_555
H15 C26 1_555 1_555
H16 C26 1_555 1_555
C27 N5 1_555 1_555
H17 C27 1_555 1_555
H18 C27 1_555 1_555
H19 C27 1_555 1_555
S1A Cd1 1_555 1_555
S4A Cd2 1_555 1_555
Cd1A S1 1_555 1_555
Cd2A S4 1_555 1_555
Cd2 S3 1_555 1_555
N2 C7 1_555 1_555
N3 C13 1_555 1_555
N4 C19 1_555 1_555
C4 C5 1_555 1_555
C10 C11 1_555 1_555
C16 C17 1_555 1_555
C22 C23 1_555 1_555
S1A Cd1A 1_555 1_555
S4A Cd2A 1_555 1_555

#END
