
#######################################################################
#
#                 Cambridge Crystallographic Data Centre
#                                CCDC 
#
#######################################################################
#
# If this CIF has been generated from an entry in the Cambridge 
# Structural Database, then it will include bibliographic, chemical, 
# crystal, experimental, refinement or atomic coordinate data resulting 
# from the CCDC's data processing and validation procedures.
#
#######################################################################

data_GUYHUF
_symmetry_cell_setting           triclinic
_symmetry_space_group_name_H-M   'P -1'
_symmetry_Int_Tables_number      2
_space_group_name_Hall           '-P 1'
loop_
_symmetry_equiv_pos_site_id
_symmetry_equiv_pos_as_xyz
1 x,y,z
2 -x,-y,-z
_cell_length_a                   9.1684(17)
_cell_length_b                   13.5704(19)
_cell_length_c                   17.837(4)
_cell_angle_alpha                86.182(14)
_cell_angle_beta                 87.019(16)
_cell_angle_gamma                84.413(13)
_cell_volume                     2201.5
loop_
_atom_site_label
_atom_site_type_symbol
_atom_site_fract_x
_atom_site_fract_y
_atom_site_fract_z
La1 La 0.80808(3) 1.05125(3) 0.53499(2)
O1 O 0.8049(4) 0.6709(4) 0.1588(3)
O2 O 0.7138(4) 0.9523(3) 0.4335(3)
O3 O 0.9501(4) 0.9534(3) 0.4074(3)
O4 O 0.8158(4) 0.5758(4) -0.1700(3)
O5 O 1.1733(5) 0.8238(3) -0.4208(3)
O6 O 0.9463(5) 0.8766(3) -0.4462(3)
O7 O 0.6630(4) 0.2545(3) 0.1089(3)
O8 O 0.2714(5) -0.0302(4) 0.3190(3)
O9 O 0.3869(4) 0.0479(4) 0.3988(3)
O10 O 0.7839(6) 1.2230(4) 0.5829(3)
H1 H 0.7766 1.2752 0.5523
H2 H 0.7827 1.2320 0.6301
O11 O 0.5451(4) 1.1283(4) 0.5063(3)
H3 H 0.5024 1.1124 0.4679
H4 H 0.4991 1.1703 0.5350
C1 C 0.6993(6) 0.5740(5) 0.0729(4)
C2 C 0.7849(6) 0.5896(4) 0.0060(4)
C3 C 0.8095(6) 0.5127(4) -0.0428(3)
C4 C 0.7417(6) 0.4237(4) -0.0287(3)
C5 C 0.6575(6) 0.4096(4) 0.0375(3)
C6 C 0.6397(6) 0.4840(5) 0.0900(3)
C7 C 0.8437(7) 0.6869(5) -0.0145(5)
H5 H 0.9090 0.6812 -0.0582
H6 H 0.8961 0.7059 0.0267
H7 H 0.7640 0.7363 -0.0251
C8 C 0.7624(8) 0.3447(5) -0.0860(4)
H8 H 0.7069 0.2903 -0.0692
H9 H 0.8644 0.3213 -0.0913
H10 H 0.7288 0.3725 -0.1337
C9 C 0.5579(7) 0.4644(6) 0.1645(4)
H11 H 0.5272 0.3986 0.1673
H12 H 0.4734 0.5117 0.1688
H13 H 0.6212 0.4706 0.2049
C10 C 0.6684(6) 0.6570(5) 0.1257(4)
H14 H 0.6311 0.7175 0.0983
H15 H 0.5958 0.6397 0.1646
C11 C 0.7996(6) 0.7369(5) 0.2135(4)
C12 C 0.6717(6) 0.7801(5) 0.2484(4)
H16 H 0.5801 0.7677 0.2332
C13 C 0.6833(6) 0.8421(5) 0.3064(4)
H17 H 0.5981 0.8704 0.3300
C14 C 0.8158(5) 0.8627(5) 0.3297(4)
C15 C 0.9430(6) 0.8239(6) 0.2920(4)
H18 H 1.0336 0.8411 0.3051
C16 C 0.9363(7) 0.7599(6) 0.2351(4)
H19 H 1.0220 0.7323 0.2115
C17 C 0.8257(6) 0.9263(4) 0.3947(4)
C18 C 0.9080(6) 0.5277(5) -0.1129(4)
H20 H 0.9849 0.5688 -0.1031
H21 H 0.9531 0.4644 -0.1289
C19 C 0.8793(6) 0.6296(5) -0.2290(4)
C20 C 1.0304(6) 0.6259(5) -0.2470(4)
H22 H 1.0964 0.5835 -0.2195
C21 C 1.0787(6) 0.6862(5) -0.3059(4)
H23 H 1.1790 0.6844 -0.3174
C22 C 0.9835(6) 0.7499(4) -0.3492(4)
C23 C 0.8335(7) 0.7465(5) -0.3334(4)
H24 H 0.7669 0.7850 -0.3632
C24 C 0.7822(6) 0.6865(5) -0.2739(4)
H25 H 0.6818 0.6848 -0.2643
C25 C 1.0370(7) 0.8210(5) -0.4084(4)
C26 C 0.5806(6) 0.3181(5) 0.0548(4)
H26 H 0.4821 0.3356 0.0753
H27 H 0.5735 0.2839 0.0093
C27 C 0.5865(6) 0.1949(5) 0.1588(4)
C28 C 0.4649(6) 0.1518(5) 0.1417(4)
H28 H 0.4289 0.1612 0.0937
C29 C 0.3957(6) 0.0939(5) 0.1970(4)
H29 H 0.3134 0.0638 0.1855
C30 C 0.4477(6) 0.0800(5) 0.2699(4)
C31 C 0.5716(6) 0.1226(5) 0.2845(4)
H30 H 0.6084 0.1147 0.3324
C32 C 0.6416(7) 0.1770(6) 0.2286(5)
H31 H 0.7288 0.2023 0.2384
C33 C 0.3641(6) 0.0285(5) 0.3323(4)
La1_2 La 0.80808(3) 1.05125(3) -0.46501(2)
La1A La 0.19192(3) -0.05125(3) 0.46501(2)
La1A_2 La 1.19192(3) 0.94875(3) -0.53499(2)
La1A_3 La 1.19192(3) 0.94875(3) 0.46501(2)
O3A O 1.0499(4) 1.0466(3) 0.5926(3)
O5A O 0.8267(5) 1.1762(3) 0.4208(3)
O6_2 O 0.9463(5) 0.8766(3) 0.5538(3)
O6A O 1.0537(5) 1.1234(3) 0.4462(3)
O8A O 0.7286(5) 1.0302(4) 0.6810(3)
O9A O 0.6131(4) 0.9521(4) 0.6012(3)
loop_
_geom_bond_atom_site_label_1
_geom_bond_atom_site_label_2
_geom_bond_site_symmetry_1
_geom_bond_site_symmetry_2
La1 O2 1_555 1_555
O1 C10 1_555 1_555
O2 C17 1_555 1_555
O3 La1 1_555 1_555
O4 C18 1_555 1_555
O5 C25 1_555 1_555
O6 C25 1_555 1_555
O7 C26 1_555 1_555
O8 C33 1_555 1_555
O9 C33 1_555 1_555
O10 La1 1_555 1_555
H1 O10 1_555 1_555
H2 O10 1_555 1_555
O11 La1 1_555 1_555
H3 O11 1_555 1_555
H4 O11 1_555 1_555
C1 C2 1_555 1_555
C2 C3 1_555 1_555
C3 C4 1_555 1_555
C4 C5 1_555 1_555
C5 C6 1_555 1_555
C6 C1 1_555 1_555
C7 C2 1_555 1_555
H5 C7 1_555 1_555
H6 C7 1_555 1_555
H7 C7 1_555 1_555
C8 C4 1_555 1_555
H8 C8 1_555 1_555
H9 C8 1_555 1_555
H10 C8 1_555 1_555
C9 C6 1_555 1_555
H11 C9 1_555 1_555
H12 C9 1_555 1_555
H13 C9 1_555 1_555
C10 C1 1_555 1_555
H14 C10 1_555 1_555
H15 C10 1_555 1_555
C11 O1 1_555 1_555
C12 C11 1_555 1_555
H16 C12 1_555 1_555
C13 C12 1_555 1_555
H17 C13 1_555 1_555
C14 C13 1_555 1_555
C15 C14 1_555 1_555
H18 C15 1_555 1_555
C16 C11 1_555 1_555
H19 C16 1_555 1_555
C17 O3 1_555 1_555
C18 C3 1_555 1_555
H20 C18 1_555 1_555
H21 C18 1_555 1_555
C19 O4 1_555 1_555
C20 C19 1_555 1_555
H22 C20 1_555 1_555
C21 C20 1_555 1_555
H23 C21 1_555 1_555
C22 C21 1_555 1_555
C23 C22 1_555 1_555
H24 C23 1_555 1_555
C24 C19 1_555 1_555
H25 C24 1_555 1_555
C25 C22 1_555 1_555
C26 C5 1_555 1_555
H26 C26 1_555 1_555
H27 C26 1_555 1_555
C27 O7 1_555 1_555
C28 C27 1_555 1_555
H28 C28 1_555 1_555
C29 C28 1_555 1_555
H29 C29 1_555 1_555
C30 C29 1_555 1_555
C31 C30 1_555 1_555
H30 C31 1_555 1_555
C32 C27 1_555 1_555
H31 C32 1_555 1_555
C33 C30 1_555 1_555
La1_2 O6 1_555 1_555
La1A O8 1_555 1_555
La1A_2 O5 1_555 1_555
La1A_3 O3 1_555 1_555
O3A La1 1_555 1_555
O5A La1 1_555 1_555
O6_2 La1 1_555 1_555
O6A La1 1_555 1_555
O8A La1 1_555 1_555
O9A La1 1_555 1_555
O6 La1A_2 1_555 1_555
O9 La1A 1_555 1_555
C14 C17 1_555 1_555
C15 C16 1_555 1_555
C23 C24 1_555 1_555
C31 C32 1_555 1_555
La1A_3 O3A 1_555 1_555
La1A_3 O6_2 1_555 1_555
La1A_3 O6A 1_555 1_555

#END
