
#######################################################################
#
#                 Cambridge Crystallographic Data Centre
#                                CCDC 
#
#######################################################################
#
# If this CIF has been generated from an entry in the Cambridge 
# Structural Database, then it will include bibliographic, chemical, 
# crystal, experimental, refinement or atomic coordinate data resulting 
# from the CCDC's data processing and validation procedures.
#
#######################################################################

data_GUYJAN
_symmetry_cell_setting           triclinic
_symmetry_space_group_name_H-M   'P -1'
_symmetry_Int_Tables_number      2
_space_group_name_Hall           '-P 1'
loop_
_symmetry_equiv_pos_site_id
_symmetry_equiv_pos_as_xyz
1 x,y,z
2 -x,-y,-z
_cell_length_a                   9.1035(6)
_cell_length_b                   13.6438(9)
_cell_length_c                   17.7320(10)
_cell_angle_alpha                87.620(5)
_cell_angle_beta                 85.388(5)
_cell_angle_gamma                86.422(5)
_cell_volume                     2189.54
loop_
_atom_site_label
_atom_site_type_symbol
_atom_site_fract_x
_atom_site_fract_y
_atom_site_fract_z
Eu1 Eu 0.20531(8) -0.05140(5) 0.96029(3)
O1 O 0.1789(9) 0.4357(6) 0.6755(4)
O2 O 0.3335(9) 0.7346(6) 0.3905(4)
O3 O 0.1916(9) 0.3243(7) 0.3412(5)
O4 O 0.1202(9) 0.1115(5) 0.9290(4)
O5 O -0.1167(10) 0.1596(5) 0.9386(4)
O6 O 0.7289(10) 1.0300(5) 0.1841(4)
O7 O 0.5813(9) 0.9744(6) 0.1049(4)
O8 O 0.0250(10) 0.0629(5) 0.0789(4)
O9 O 0.2704(9) 0.0425(5) 0.0627(4)
O10 O 0.4375(9) -0.1263(5) 1.0091(4)
H1 H 0.4744 -0.1862 0.9940
H2 H 0.4908 -0.0919 1.0386
O11 O 0.2508(10) -0.2164(7) 0.9106(4)
H3 H 0.3342 -0.2511 0.9204
H4 H 0.1902 -0.2369 0.8783
C1 C 0.1812(12) 0.4837(8) 0.5456(5)
C2 C 0.2521(12) 0.5727(7) 0.5301(5)
C3 C 0.3399(12) 0.5832(8) 0.4636(5)
C4 C 0.3583(12) 0.5077(8) 0.4108(5)
C5 C 0.2984(12) 0.4170(8) 0.4296(6)
C6 C 0.2095(11) 0.4076(7) 0.4981(5)
C7 C 0.0819(14) 0.4717(8) 0.6177(6)
H5 H 0.0321 0.5342 0.6314
H6 H 0.0081 0.4251 0.6114
C8 C 0.2287(16) 0.6533(8) 0.5843(5)
H7 H 0.1676 0.6321 0.6279
H8 H 0.1811 0.7097 0.5604
H9 H 0.3222 0.6703 0.5998
C9 C 0.4215(14) 0.6751(8) 0.4425(6)
H10 H 0.4333 0.7113 0.4874
H11 H 0.5186 0.6580 0.4184
C10 C 0.4443(15) 0.5239(10) 0.3343(6)
H12 H 0.4475 0.4651 0.3063
H13 H 0.5430 0.5399 0.3421
H14 H 0.3964 0.5769 0.3065
C11 C 0.3223(14) 0.3326(9) 0.3774(6)
H15 H 0.4038 0.3442 0.3401
H16 H 0.3459 0.2723 0.4060
C12 C 0.1413(15) 0.3073(8) 0.5187(7)
H17 H 0.0874 0.3102 0.5674
H18 H 0.2187 0.2563 0.5200
H19 H 0.0757 0.2934 0.4812
C13 C 0.1270(13) 0.3767(8) 0.7342(6)
C14 C 0.2330(15) 0.3248(9) 0.7714(7)
H20 H 0.3319 0.3331 0.7565
C15 C 0.1971(14) 0.2605(9) 0.8306(6)
H21 H 0.2713 0.2269 0.8562
C16 C 0.0493(13) 0.2455(8) 0.8524(6)
C17 C -0.0555(15) 0.2983(8) 0.8178(6)
H22 H -0.1540 0.2908 0.8339
C18 C -0.0193(15) 0.3672(8) 0.7554(6)
H23 H -0.0926 0.4034 0.7309
C19 C 0.0143(15) 0.1660(7) 0.9107(6)
C20 C 0.4087(13) 0.7992(8) 0.3435(6)
C21 C 0.5348(13) 0.8439(8) 0.3568(6)
H24 H 0.5762 0.8332 0.4029
C22 C 0.5996(13) 0.9047(8) 0.3015(6)
H25 H 0.6845 0.9349 0.3114
C23 C 0.5436(13) 0.9220(8) 0.2328(5)
C24 C 0.4146(14) 0.8792(8) 0.2193(6)
H26 H 0.3742 0.8905 0.1729
C25 C 0.3457(15) 0.8197(9) 0.2745(7)
H27 H 0.2571 0.7932 0.2659
C26 C 0.6236(14) 0.9791(8) 0.1731(6)
C27 C 0.1923(14) 0.2593(8) 0.2837(6)
C28 C 0.0557(16) 0.2408(11) 0.2609(8)
H28 H -0.0293 0.2685 0.2863
C29 C 0.0444(15) 0.1826(10) 0.2018(7)
H29 H -0.0484 0.1721 0.1863
C30 C 0.1688(14) 0.1384(8) 0.1639(5)
C31 C 0.3059(13) 0.1559(7) 0.1870(5)
H30 H 0.3905 0.1281 0.1613
C32 C 0.3188(13) 0.2137(8) 0.2473(6)
H31 H 0.4112 0.2224 0.2639
C33 C 0.1565(15) 0.0776(8) 0.0974(6)
Eu1_2 Eu 0.20531(8) -0.05140(5) -0.03971(3)
Eu1A Eu -0.20531(8) 0.05140(5) 0.03971(3)
Eu1A_2 Eu -0.20531(8) 0.05140(5) 1.03971(3)
Eu1A_3 Eu 0.79469(8) 1.05140(5) 0.03971(3)
O5A O 0.1167(10) -0.1596(5) 1.0614(4)
O6A O 0.2711(10) -0.0300(5) 0.8159(4)
O7A O 0.4187(9) 0.0256(6) 0.8951(4)
O8A O -0.0250(10) -0.0629(5) 0.9211(4)
O9_2 O 0.2704(9) 0.0425(5) 1.0627(4)
loop_
_geom_bond_atom_site_label_1
_geom_bond_atom_site_label_2
_geom_bond_site_symmetry_1
_geom_bond_site_symmetry_2
Eu1 O4 1_555 1_555
O1 C7 1_555 1_555
O2 C9 1_555 1_555
O3 C11 1_555 1_555
O4 C19 1_555 1_555
O5 C19 1_555 1_555
O6 C26 1_555 1_555
O7 C26 1_555 1_555
O8 C33 1_555 1_555
O9 C33 1_555 1_555
O10 Eu1 1_555 1_555
H1 O10 1_555 1_555
H2 O10 1_555 1_555
O11 Eu1 1_555 1_555
H3 O11 1_555 1_555
H4 O11 1_555 1_555
C1 C2 1_555 1_555
C2 C3 1_555 1_555
C3 C4 1_555 1_555
C4 C5 1_555 1_555
C5 C6 1_555 1_555
C6 C1 1_555 1_555
C7 C1 1_555 1_555
H5 C7 1_555 1_555
H6 C7 1_555 1_555
C8 C2 1_555 1_555
H7 C8 1_555 1_555
H8 C8 1_555 1_555
H9 C8 1_555 1_555
C9 C3 1_555 1_555
H10 C9 1_555 1_555
H11 C9 1_555 1_555
C10 C4 1_555 1_555
H12 C10 1_555 1_555
H13 C10 1_555 1_555
H14 C10 1_555 1_555
C11 C5 1_555 1_555
H15 C11 1_555 1_555
H16 C11 1_555 1_555
C12 C6 1_555 1_555
H17 C12 1_555 1_555
H18 C12 1_555 1_555
H19 C12 1_555 1_555
C13 O1 1_555 1_555
C14 C13 1_555 1_555
H20 C14 1_555 1_555
C15 C14 1_555 1_555
H21 C15 1_555 1_555
C16 C15 1_555 1_555
C17 C16 1_555 1_555
H22 C17 1_555 1_555
C18 C13 1_555 1_555
H23 C18 1_555 1_555
C19 C16 1_555 1_555
C20 O2 1_555 1_555
C21 C20 1_555 1_555
H24 C21 1_555 1_555
C22 C21 1_555 1_555
H25 C22 1_555 1_555
C23 C22 1_555 1_555
C24 C23 1_555 1_555
H26 C24 1_555 1_555
C25 C20 1_555 1_555
H27 C25 1_555 1_555
C26 C23 1_555 1_555
C27 O3 1_555 1_555
C28 C27 1_555 1_555
H28 C28 1_555 1_555
C29 C28 1_555 1_555
H29 C29 1_555 1_555
C30 C29 1_555 1_555
C31 C30 1_555 1_555
H30 C31 1_555 1_555
C32 C27 1_555 1_555
H31 C32 1_555 1_555
C33 C30 1_555 1_555
Eu1_2 O9 1_555 1_555
Eu1A O8 1_555 1_555
Eu1A_2 O5 1_555 1_555
Eu1A_3 O6 1_555 1_555
O5A Eu1 1_555 1_555
O6A Eu1 1_555 1_555
O7A Eu1 1_555 1_555
O8A Eu1 1_555 1_555
O9_2 Eu1 1_555 1_555
O7 Eu1A_3 1_555 1_555
C17 C18 1_555 1_555
C24 C25 1_555 1_555
C31 C32 1_555 1_555

#END
