
#######################################################################
#
#                 Cambridge Crystallographic Data Centre
#                                CCDC 
#
#######################################################################
#
# If this CIF has been generated from an entry in the Cambridge 
# Structural Database, then it will include bibliographic, chemical, 
# crystal, experimental, refinement or atomic coordinate data resulting 
# from the CCDC's data processing and validation procedures.
#
#######################################################################

data_GUYLOB
_symmetry_cell_setting           monoclinic
_symmetry_space_group_name_H-M   'C 2/c'
_symmetry_Int_Tables_number      15
_space_group_name_Hall           '-C 2yn'
loop_
_symmetry_equiv_pos_site_id
_symmetry_equiv_pos_as_xyz
1 x,y,z
2 1/2+x,1/2+y,z
3 -x,y,1/2-z
4 1/2-x,1/2+y,1/2-z
5 -x,-y,-z
6 1/2-x,1/2-y,-z
7 x,-y,1/2+z
8 1/2+x,1/2-y,1/2+z
_cell_length_a                   20.970(7)
_cell_length_b                   21.613(8)
_cell_length_c                   8.377(3)
_cell_angle_alpha                90
_cell_angle_beta                 103.773(7)
_cell_angle_gamma                90
_cell_volume                     3687.5
loop_
_atom_site_label
_atom_site_type_symbol
_atom_site_fract_x
_atom_site_fract_y
_atom_site_fract_z
La1 La 0.0000 0.28798(3) 0.2500
La2 La 0.0000 0.20517(3) -0.2500
O1 O 0.0974(2) 0.1603(2) -0.0457(6)
O2 O 0.0626(2) 0.2462(2) 0.0487(6)
O3 O 0.0711(2) 0.2060(2) 0.3786(6)
O4 O 0.0556(3) 0.1461(2) 0.5791(6)
O5 O 0.0324(3) 0.3586(2) 0.4985(6)
O6 O 0.0652(2) 0.2919(2) 0.7029(6)
O7 O 0.0961(2) 0.3648(2) 0.2371(6)
C1 C 0.1059(4) 0.2030(3) 0.0536(9)
C2 C 0.1705(3) 0.2080(4) 0.1792(9)
C3 C 0.2094(4) 0.2591(4) 0.1650(10)
H1 H 0.1937 0.2898 0.0880
C4 C 0.2729(4) 0.2635(5) 0.2687(12)
H2 H 0.3000 0.2967 0.2595
C5 C 0.2942(4) 0.2179(5) 0.3840(12)
H3 H 0.3356 0.2212 0.4547
C6 C 0.2554(4) 0.1676(4) 0.3966(10)
H4 H 0.2712 0.1375 0.4754
C7 C 0.1929(3) 0.1611(4) 0.2932(9)
C8 C 0.1560(4) 0.1039(4) 0.3088(9)
C9 C 0.1795(4) 0.0485(4) 0.2569(9)
H5 H 0.2153 0.0501 0.2095
C10 C 0.1521(5) -0.0070(4) 0.2730(11)
H6 H 0.1697 -0.0428 0.2392
C11 C 0.0983(6) -0.0103(4) 0.3395(11)
H7 H 0.0781 -0.0482 0.3465
C12 C 0.0744(4) 0.0427(4) 0.3956(9)
H8 H 0.0392 0.0400 0.4447
C13 C 0.1019(4) 0.1001(3) 0.3805(9)
C14 C 0.0749(3) 0.1544(3) 0.4520(9)
C15 C 0.0557(3) 0.3459(3) 0.6466(10)
C16 C 0.0768(4) 0.3977(3) 0.7679(9)
C17 C 0.1424(4) 0.3989(3) 0.8572(9)
H9 H 0.1695 0.3659 0.8461
C18 C 0.1683(4) 0.4466(4) 0.9600(9)
H10 H 0.2123 0.4467 1.0160
C19 C 0.1271(4) 0.4942(4) 0.9776(10)
H11 H 0.1436 0.5272 1.0466
C20 C 0.0624(4) 0.4943(3) 0.8959(9)
H12 H 0.0358 0.5272 0.9107
C21 C 0.0354(3) 0.4458(3) 0.7902(8)
C21B C -0.0354(3) 0.4458(3) 0.7098(8)
C16B C -0.0768(4) 0.3977(3) 0.7321(9)
C15B C -0.0557(3) 0.3459(3) 0.8534(10)
O5B O -0.0324(3) 0.3586(2) 1.0015(6)
O6B O -0.0652(2) 0.2919(2) 0.7971(6)
C17B C -0.1424(4) 0.3989(3) 0.6428(9)
H9B H -0.1695 0.3659 0.6539
C18B C -0.1683(4) 0.4466(4) 0.5400(9)
H10B H -0.2123 0.4467 0.4840
C19B C -0.1271(4) 0.4942(4) 0.5224(10)
H11B H -0.1436 0.5272 0.4534
C20B C -0.0624(4) 0.4943(3) 0.6041(9)
H12B H -0.0358 0.5272 0.5893
O1B O -0.0974(2) 0.1603(2) 0.5457(6)
O2B O -0.0626(2) 0.2462(2) 0.4513(6)
O3B O -0.0711(2) 0.2060(2) 0.1214(6)
O4B O -0.0556(3) 0.1461(2) -0.0791(6)
C1B C -0.1059(4) 0.2030(3) 0.4464(9)
C2B C -0.1705(3) 0.2080(4) 0.3208(9)
C3B C -0.2094(4) 0.2591(4) 0.3350(10)
H1B H -0.1937 0.2898 0.4120
C4B C -0.2729(4) 0.2635(5) 0.2313(12)
H2B H -0.3000 0.2967 0.2405
C5B C -0.2942(4) 0.2179(5) 0.1160(12)
H3B H -0.3356 0.2212 0.0453
C6B C -0.2554(4) 0.1676(4) 0.1034(10)
H4B H -0.2712 0.1375 0.0246
C7B C -0.1929(3) 0.1611(4) 0.2068(9)
C8B C -0.1560(4) 0.1039(4) 0.1912(9)
C9B C -0.1795(4) 0.0485(4) 0.2431(9)
H5B H -0.2153 0.0501 0.2905
C10B C -0.1521(5) -0.0070(4) 0.2270(11)
H6B H -0.1697 -0.0428 0.2608
C11B C -0.0983(6) -0.0103(4) 0.1605(11)
H7B H -0.0781 -0.0482 0.1535
C12B C -0.0744(4) 0.0427(4) 0.1044(9)
H8B H -0.0392 0.0400 0.0553
C13B C -0.1019(4) 0.1001(3) 0.1195(9)
C14B C -0.0749(3) 0.1544(3) 0.0480(9)
O7B O -0.0961(2) 0.3648(2) 0.2629(6)
O5B_2 O -0.0324(3) 0.3586(2) 0.0015(6)
O1B_2 O -0.0974(2) 0.1603(2) -0.4543(6)
O2B_2 O -0.0626(2) 0.2462(2) -0.5487(6)
O4_2 O 0.0556(3) 0.1461(2) -0.4209(6)
O6_2 O 0.0652(2) 0.2919(2) -0.2971(6)
O6B_2 O -0.0652(2) 0.2919(2) -0.2029(6)
La2_2 La 0.0000 0.20517(3) 0.7500
La1_2 La 0.0000 0.28798(3) 1.2500
loop_
_geom_bond_atom_site_label_1
_geom_bond_atom_site_label_2
_geom_bond_site_symmetry_1
_geom_bond_site_symmetry_2
La1 O2 1_555 1_555
La2 O1 1_555 1_555
O1 C1 1_555 1_555
O2 La2 1_555 1_555
O3 La1 1_555 1_555
O4 C14 1_555 1_555
O5 La1 1_555 1_555
O6 C15 1_555 1_555
O7 La1 1_555 1_555
C1 O2 1_555 1_555
C2 C1 1_555 1_555
C3 C2 1_555 1_555
H1 C3 1_555 1_555
C4 C3 1_555 1_555
H2 C4 1_555 1_555
C5 C4 1_555 1_555
H3 C5 1_555 1_555
C6 C5 1_555 1_555
H4 C6 1_555 1_555
C7 C2 1_555 1_555
C8 C7 1_555 1_555
C9 C8 1_555 1_555
H5 C9 1_555 1_555
C10 C9 1_555 1_555
H6 C10 1_555 1_555
C11 C10 1_555 1_555
H7 C11 1_555 1_555
C12 C11 1_555 1_555
H8 C12 1_555 1_555
C13 C8 1_555 1_555
C14 O3 1_555 1_555
C15 O5 1_555 1_555
C16 C15 1_555 1_555
C17 C16 1_555 1_555
H9 C17 1_555 1_555
C18 C17 1_555 1_555
H10 C18 1_555 1_555
C19 C18 1_555 1_555
H11 C19 1_555 1_555
C20 C19 1_555 1_555
H12 C20 1_555 1_555
C21 C16 1_555 1_555
C21B C21 1_555 1_555
C16B C21B 1_555 1_555
C15B C16B 1_555 1_555
O5B C15B 1_555 1_555
O6B C15B 1_555 1_555
C17B C16B 1_555 1_555
H9B C17B 1_555 1_555
C18B C17B 1_555 1_555
H10B C18B 1_555 1_555
C19B C18B 1_555 1_555
H11B C19B 1_555 1_555
C20B C21B 1_555 1_555
H12B C20B 1_555 1_555
O1B C1B 1_555 1_555
O2B La1 1_555 1_555
O3B La1 1_555 1_555
O4B La2 1_555 1_555
C1B O2B 1_555 1_555
C2B C1B 1_555 1_555
C3B C2B 1_555 1_555
H1B C3B 1_555 1_555
C4B C3B 1_555 1_555
H2B C4B 1_555 1_555
C5B C4B 1_555 1_555
H3B C5B 1_555 1_555
C6B C5B 1_555 1_555
H4B C6B 1_555 1_555
C7B C2B 1_555 1_555
C8B C7B 1_555 1_555
C9B C8B 1_555 1_555
H5B C9B 1_555 1_555
C10B C9B 1_555 1_555
H6B C10B 1_555 1_555
C11B C10B 1_555 1_555
H7B C11B 1_555 1_555
C12B C11B 1_555 1_555
H8B C12B 1_555 1_555
C13B C8B 1_555 1_555
C14B O3B 1_555 1_555
O7B La1 1_555 1_555
O5B_2 La1 1_555 1_555
O1B_2 La2 1_555 1_555
O2B_2 La2 1_555 1_555
O4_2 La2 1_555 1_555
O6_2 La2 1_555 1_555
O6B_2 La2 1_555 1_555
La2_2 O4 1_555 1_555
La1_2 O5B 1_555 1_555
O6 La2_2 1_555 1_555
C6 C7 1_555 1_555
C12 C13 1_555 1_555
C13 C14 1_555 1_555
C20 C21 1_555 1_555
O6B La2_2 1_555 1_555
C19B C20B 1_555 1_555
O1B La2_2 1_555 1_555
O2B La2_2 1_555 1_555
O4B C14B 1_555 1_555
C6B C7B 1_555 1_555
C12B C13B 1_555 1_555
C13B C14B 1_555 1_555

#END
