
#######################################################################
#
#                 Cambridge Crystallographic Data Centre
#                                CCDC 
#
#######################################################################
#
# If this CIF has been generated from an entry in the Cambridge 
# Structural Database, then it will include bibliographic, chemical, 
# crystal, experimental, refinement or atomic coordinate data resulting 
# from the CCDC's data processing and validation procedures.
#
#######################################################################

data_GUYLUH
_symmetry_cell_setting           monoclinic
_symmetry_space_group_name_H-M   'C 2/c'
_symmetry_Int_Tables_number      15
_space_group_name_Hall           '-C 2yn'
loop_
_symmetry_equiv_pos_site_id
_symmetry_equiv_pos_as_xyz
1 x,y,z
2 1/2+x,1/2+y,z
3 -x,y,1/2-z
4 1/2-x,1/2+y,1/2-z
5 -x,-y,-z
6 1/2-x,1/2-y,-z
7 x,-y,1/2+z
8 1/2+x,1/2-y,1/2+z
_cell_length_a                   21.004(6)
_cell_length_b                   21.587(7)
_cell_length_c                   8.345(3)
_cell_angle_alpha                90
_cell_angle_beta                 103.888(5)
_cell_angle_gamma                90
_cell_volume                     3673.12
loop_
_atom_site_label
_atom_site_type_symbol
_atom_site_fract_x
_atom_site_fract_y
_atom_site_fract_z
Pr1 Pr 0.0000 0.287558(12) 0.7500
Pr2 Pr 0.0000 0.205930(12) 0.2500
O1 O 0.06079(11) 0.24608(11) 0.5475(3)
O2 O 0.09647(13) 0.16175(12) 0.4488(3)
O3 O 0.07032(12) 0.20741(10) 0.8783(3)
O4 O 0.05405(13) 0.14710(11) 1.0798(3)
O5 O 0.06600(12) 0.29074(10) 1.2074(3)
O6 O 0.03326(13) 0.35678(11) 0.9998(3)
O7 O 0.09434(16) 0.36239(16) 0.7369(4)
H1 H 0.105(3) 0.392(2) 0.804(7)
H2 H 0.108(3) 0.371(3) 0.652(5)
C1 C 0.10453(18) 0.20411(17) 0.5540(4)
C2 C 0.16934(17) 0.20829(17) 0.6792(4)
C3 C 0.20899(19) 0.2593(2) 0.6653(5)
H3 H 0.1932 0.2904 0.5890
C4 C 0.2726(2) 0.2632(3) 0.7671(6)
H4 H 0.3000 0.2959 0.7558
C5 C 0.2939(2) 0.2182(2) 0.8833(6)
H5 H 0.3352 0.2216 0.9546
C6 C 0.25494(19) 0.1682(2) 0.8960(5)
H6 H 0.2707 0.1379 0.9748
C7 C 0.19223(17) 0.16187(18) 0.7933(4)
C8 C 0.15482(18) 0.10416(18) 0.8087(4)
C9 C 0.1790(2) 0.0483(2) 0.7605(5)
H7 H 0.2156 0.0491 0.7165
C10 C 0.1499(3) -0.0077(2) 0.7766(5)
H8 H 0.1666 -0.0438 0.7419
C11 C 0.0964(3) -0.0104(2) 0.8438(5)
H9 H 0.0762 -0.0481 0.8532
C12 C 0.0731(2) 0.04342(18) 0.8969(5)
H10 H 0.0376 0.0414 0.9452
C13 C 0.10084(18) 0.10064(16) 0.8808(4)
C14 C 0.07327(16) 0.15574(16) 0.9506(4)
C15 C 0.05624(16) 0.34435(16) 1.1492(4)
C16 C 0.07728(17) 0.39727(15) 1.2686(4)
C17 C 0.14308(19) 0.39826(17) 1.3559(4)
H11 H 0.1704 0.3655 1.3442
C18 C 0.1682(2) 0.44711(19) 1.4595(5)
H12 H 0.2121 0.4473 1.5161
C19 C 0.1277(2) 0.49530(19) 1.4780(5)
H13 H 0.1445 0.5285 1.5461
C20 C 0.0623(2) 0.49459(17) 1.3961(5)
H14 H 0.0355 0.5272 1.4110
C21 C 0.03550(17) 0.44562(15) 1.2904(4)
C21B C -0.03550(17) 0.44562(15) 1.2096(4)
C16B C -0.07728(17) 0.39727(15) 1.2314(4)
C15B C -0.05624(16) 0.34435(16) 1.3508(4)
O5B O -0.06600(12) 0.29074(10) 1.2926(3)
O6B O -0.03326(13) 0.35678(11) 1.5002(3)
C17B C -0.14308(19) 0.39826(17) 1.1441(4)
H11B H -0.1704 0.3655 1.1558
C18B C -0.1682(2) 0.44711(19) 1.0405(5)
H12B H -0.2121 0.4473 0.9839
C19B C -0.1277(2) 0.49530(19) 1.0220(5)
H13B H -0.1445 0.5285 0.9539
C20B C -0.0623(2) 0.49459(17) 1.1039(5)
H14B H -0.0355 0.5272 1.0890
O1B O -0.06079(11) 0.24608(11) 0.9525(3)
O2B O -0.09647(13) 0.16175(12) 1.0512(3)
O3B O -0.07032(12) 0.20741(10) 0.6217(3)
O4B O -0.05405(13) 0.14710(11) 0.4202(3)
C1B C -0.10453(18) 0.20411(17) 0.9460(4)
C2B C -0.16934(17) 0.20829(17) 0.8208(4)
C3B C -0.20899(19) 0.2593(2) 0.8347(5)
H3B H -0.1932 0.2904 0.9110
C4B C -0.2726(2) 0.2632(3) 0.7329(6)
H4B H -0.3000 0.2959 0.7442
C5B C -0.2939(2) 0.2182(2) 0.6167(6)
H5B H -0.3352 0.2216 0.5454
C6B C -0.25494(19) 0.1682(2) 0.6040(5)
H6B H -0.2707 0.1379 0.5252
C7B C -0.19223(17) 0.16187(18) 0.7067(4)
C8B C -0.15482(18) 0.10416(18) 0.6913(4)
C9B C -0.1790(2) 0.0483(2) 0.7395(5)
H7B H -0.2156 0.0491 0.7835
C10B C -0.1499(3) -0.0077(2) 0.7234(5)
H8B H -0.1666 -0.0438 0.7581
C11B C -0.0964(3) -0.0104(2) 0.6562(5)
H9B H -0.0762 -0.0481 0.6468
C12B C -0.0731(2) 0.04342(18) 0.6031(5)
H10B H -0.0376 0.0414 0.5548
C13B C -0.10084(18) 0.10064(16) 0.6192(4)
C14B C -0.07327(16) 0.15574(16) 0.5494(4)
O7B O -0.09434(16) 0.36239(16) 0.7631(4)
H1B H -0.105(3) 0.392(2) 0.696(7)
H2B H -0.108(3) 0.371(3) 0.848(5)
O6B_2 O -0.03326(13) 0.35678(11) 0.5002(3)
O1B_2 O -0.06079(11) 0.24608(11) -0.0475(3)
O2B_2 O -0.09647(13) 0.16175(12) 0.0512(3)
O4_2 O 0.05405(13) 0.14710(11) 0.0798(3)
O5_2 O 0.06600(12) 0.29074(10) 0.2074(3)
O5B_2 O -0.06600(12) 0.29074(10) 0.2926(3)
Pr2_2 Pr 0.0000 0.205930(12) 1.2500
Pr1_2 Pr 0.0000 0.287558(12) 1.7500
loop_
_geom_bond_atom_site_label_1
_geom_bond_atom_site_label_2
_geom_bond_site_symmetry_1
_geom_bond_site_symmetry_2
Pr1 O1 1_555 1_555
Pr2 O1 1_555 1_555
O1 C1 1_555 1_555
O2 Pr2 1_555 1_555
O3 Pr1 1_555 1_555
O4 C14 1_555 1_555
O5 C15 1_555 1_555
O6 Pr1 1_555 1_555
O7 Pr1 1_555 1_555
H1 O7 1_555 1_555
H2 O7 1_555 1_555
C1 O2 1_555 1_555
C2 C1 1_555 1_555
C3 C2 1_555 1_555
H3 C3 1_555 1_555
C4 C3 1_555 1_555
H4 C4 1_555 1_555
C5 C4 1_555 1_555
H5 C5 1_555 1_555
C6 C5 1_555 1_555
H6 C6 1_555 1_555
C7 C2 1_555 1_555
C8 C7 1_555 1_555
C9 C8 1_555 1_555
H7 C9 1_555 1_555
C10 C9 1_555 1_555
H8 C10 1_555 1_555
C11 C10 1_555 1_555
H9 C11 1_555 1_555
C12 C11 1_555 1_555
H10 C12 1_555 1_555
C13 C8 1_555 1_555
C14 O3 1_555 1_555
C15 O6 1_555 1_555
C16 C15 1_555 1_555
C17 C16 1_555 1_555
H11 C17 1_555 1_555
C18 C17 1_555 1_555
H12 C18 1_555 1_555
C19 C18 1_555 1_555
H13 C19 1_555 1_555
C20 C19 1_555 1_555
H14 C20 1_555 1_555
C21 C16 1_555 1_555
C21B C21 1_555 1_555
C16B C21B 1_555 1_555
C15B C16B 1_555 1_555
O5B C15B 1_555 1_555
O6B C15B 1_555 1_555
C17B C16B 1_555 1_555
H11B C17B 1_555 1_555
C18B C17B 1_555 1_555
H12B C18B 1_555 1_555
C19B C18B 1_555 1_555
H13B C19B 1_555 1_555
C20B C21B 1_555 1_555
H14B C20B 1_555 1_555
O1B Pr1 1_555 1_555
O2B C1B 1_555 1_555
O3B Pr1 1_555 1_555
O4B Pr2 1_555 1_555
C1B O1B 1_555 1_555
C2B C1B 1_555 1_555
C3B C2B 1_555 1_555
H3B C3B 1_555 1_555
C4B C3B 1_555 1_555
H4B C4B 1_555 1_555
C5B C4B 1_555 1_555
H5B C5B 1_555 1_555
C6B C5B 1_555 1_555
H6B C6B 1_555 1_555
C7B C2B 1_555 1_555
C8B C7B 1_555 1_555
C9B C8B 1_555 1_555
H7B C9B 1_555 1_555
C10B C9B 1_555 1_555
H8B C10B 1_555 1_555
C11B C10B 1_555 1_555
H9B C11B 1_555 1_555
C12B C11B 1_555 1_555
H10B C12B 1_555 1_555
C13B C8B 1_555 1_555
C14B O3B 1_555 1_555
O7B Pr1 1_555 1_555
H1B O7B 1_555 1_555
H2B O7B 1_555 1_555
O6B_2 Pr1 1_555 1_555
O1B_2 Pr2 1_555 1_555
O2B_2 Pr2 1_555 1_555
O4_2 Pr2 1_555 1_555
O5_2 Pr2 1_555 1_555
O5B_2 Pr2 1_555 1_555
Pr2_2 O4 1_555 1_555
Pr1_2 O6B 1_555 1_555
O5 Pr2_2 1_555 1_555
C6 C7 1_555 1_555
C12 C13 1_555 1_555
C13 C14 1_555 1_555
C20 C21 1_555 1_555
O5B Pr2_2 1_555 1_555
C19B C20B 1_555 1_555
O1B Pr2_2 1_555 1_555
O2B Pr2_2 1_555 1_555
O4B C14B 1_555 1_555
C6B C7B 1_555 1_555
C12B C13B 1_555 1_555
C13B C14B 1_555 1_555

#END
