
#######################################################################
#
#                 Cambridge Crystallographic Data Centre
#                                CCDC 
#
#######################################################################
#
# If this CIF has been generated from an entry in the Cambridge 
# Structural Database, then it will include bibliographic, chemical, 
# crystal, experimental, refinement or atomic coordinate data resulting 
# from the CCDC's data processing and validation procedures.
#
#######################################################################

data_GUYLUH01
_symmetry_cell_setting           monoclinic
_symmetry_space_group_name_H-M   'C 2/c'
_symmetry_Int_Tables_number      15
_space_group_name_Hall           '-C 2yn'
loop_
_symmetry_equiv_pos_site_id
_symmetry_equiv_pos_as_xyz
1 x,y,z
2 -x,y,1/2-z
3 1/2+x,1/2+y,z
4 1/2-x,1/2+y,1/2-z
5 -x,-y,-z
6 x,-y,1/2+z
7 1/2-x,1/2-y,-z
8 1/2+x,1/2-y,1/2+z
_cell_length_a                   20.956(3)
_cell_length_b                   21.560(3)
_cell_length_c                   8.3299(12)
_cell_angle_alpha                90
_cell_angle_beta                 103.955(8)
_cell_angle_gamma                90
_cell_volume                     3652.46
loop_
_atom_site_label
_atom_site_type_symbol
_atom_site_fract_x
_atom_site_fract_y
_atom_site_fract_z
Pr1 Pr 0.5000 0.205871(8) 0.7500
Pr2 Pr 0.5000 0.287606(8) 0.2500
C1 C 0.39541(14) 0.20422(12) 0.4470(3)
C2 C 0.33075(14) 0.20857(12) 0.3220(3)
C3 C 0.29080(15) 0.25920(16) 0.3348(4)
H1 H 0.3063 0.2904 0.4114
C4 C 0.22749(18) 0.26294(19) 0.2323(5)
H2 H 0.2002 0.2959 0.2432
C5 C 0.20571(16) 0.21819(18) 0.1163(4)
H3 H 0.1641 0.2214 0.0455
C6 C 0.24510(15) 0.16847(16) 0.1040(4)
H4 H 0.2293 0.1383 0.0246
C7 C 0.30793(13) 0.16176(13) 0.2062(3)
C8 C 0.34536(14) 0.10426(13) 0.1914(3)
C9 C 0.32108(18) 0.04822(15) 0.2405(4)
H5 H 0.2845 0.0491 0.2853
C10 C 0.3503(2) -0.00786(15) 0.2237(4)
H6 H 0.3337 -0.0441 0.2584
C11 C 0.4035(2) -0.01039(14) 0.1564(4)
H7 H 0.4237 -0.0482 0.1468
C12 C 0.42717(18) 0.04347(12) 0.1025(4)
H8 H 0.4626 0.0414 0.0537
C13 C 0.39906(14) 0.10064(12) 0.1198(3)
C14 C 0.42681(12) 0.15587(11) 0.0495(3)
C15 C 0.44386(12) 0.34437(11) 0.8510(3)
C16 C 0.42221(13) 0.39727(11) 0.7309(3)
C17 C 0.35677(14) 0.39801(13) 0.6435(3)
H9 H 0.3294 0.3651 0.6543
C18 C 0.33179(16) 0.44714(14) 0.5405(4)
H10 H 0.2877 0.4476 0.4842
C19 C 0.37261(17) 0.49540(14) 0.5219(4)
H11 H 0.3558 0.5286 0.4535
C20 C 0.43778(15) 0.49462(12) 0.6035(4)
H12 H 0.4648 0.5272 0.5887
C21 C 0.46436(13) 0.44551(11) 0.7090(3)
H13 H 0.394(3) 0.363(2) 0.352(4)
H14 H 0.402(3) 0.3953(16) 0.208(6)
O1 O 0.40361(10) 0.16206(9) 0.5510(2)
O2 O 0.43910(9) 0.24608(8) 0.4523(2)
O3 O 0.44599(11) 0.14718(9) -0.0796(2)
O4 O 0.42985(9) 0.20742(7) 0.1219(2)
O5 O 0.46679(10) 0.35680(8) 1.0001(2)
O6 O 0.43407(9) 0.29076(7) 0.7929(2)
O7 O 0.40565(13) 0.36227(12) 0.2629(3)
Pr1_2 Pr 0.5000 0.205871(8) -0.2500
Pr1_3 Pr 0.5000 0.205871(8) 1.7500
Pr2_2 Pr 0.5000 0.287606(8) 1.2500
C1A C 0.60459(14) 0.20422(12) 1.0530(3)
C2A C 0.66925(14) 0.20857(12) 1.1780(3)
C3A C 0.70920(15) 0.25920(16) 1.1652(4)
H1A H 0.6937 0.2904 1.0886
C4A C 0.77251(18) 0.26294(19) 1.2677(5)
H2A H 0.7998 0.2959 1.2568
C5A C 0.79429(16) 0.21819(18) 1.3837(4)
H3A H 0.8359 0.2214 1.4545
C6A C 0.75490(15) 0.16847(16) 1.3960(4)
H4A H 0.7707 0.1383 1.4754
C7A C 0.69207(13) 0.16176(13) 1.2938(3)
C8A C 0.65464(14) 0.10426(13) 1.3086(3)
C9A C 0.67892(18) 0.04822(15) 1.2595(4)
H5A H 0.7155 0.0491 1.2147
C10A C 0.6497(2) -0.00786(15) 1.2763(4)
H6A H 0.6663 -0.0441 1.2416
C11A C 0.5965(2) -0.01039(14) 1.3436(4)
H7A H 0.5763 -0.0482 1.3532
C12A C 0.57283(18) 0.04347(12) 1.3975(4)
H8A H 0.5374 0.0414 1.4463
C13A C 0.60094(14) 0.10064(12) 1.3802(3)
C14A C 0.57319(12) 0.15587(11) 1.4505(3)
C15A C 0.55614(12) 0.34437(11) 0.6490(3)
C16A C 0.57779(13) 0.39727(11) 0.7691(3)
C17A C 0.64323(14) 0.39801(13) 0.8565(3)
H9A H 0.6706 0.3651 0.8457
C18A C 0.66821(16) 0.44714(14) 0.9595(4)
H10A H 0.7123 0.4476 1.0158
C19A C 0.62739(17) 0.49540(14) 0.9781(4)
H11A H 0.6442 0.5286 1.0465
C20A C 0.56222(15) 0.49462(12) 0.8965(4)
H12A H 0.5352 0.5272 0.9113
C21A C 0.53564(13) 0.44551(11) 0.7910(3)
H13A H 0.606(3) 0.363(2) 0.148(4)
H14A H 0.598(3) 0.3953(16) 0.292(6)
O1A O 0.59639(10) 0.16206(9) 0.9490(2)
O2A O 0.56090(9) 0.24608(8) 1.0477(2)
O2A_2 O 0.56090(9) 0.24608(8) 0.0477(2)
O3_2 O 0.44599(11) 0.14718(9) 0.9204(2)
O3A O 0.55401(11) 0.14718(9) 0.5796(2)
O3A_2 O 0.55401(11) 0.14718(9) 1.5796(2)
O4A O 0.57015(9) 0.20742(7) 0.3781(2)
O4A_2 O 0.57015(9) 0.20742(7) 1.3781(2)
O5A O 0.53321(10) 0.35680(8) 0.4999(2)
O5_2 O 0.46679(10) 0.35680(8) 0.0001(2)
O6A O 0.56593(9) 0.29076(7) 0.7071(2)
O7A O 0.59435(13) 0.36227(12) 0.2371(3)
loop_
_geom_bond_atom_site_label_1
_geom_bond_atom_site_label_2
_geom_bond_site_symmetry_1
_geom_bond_site_symmetry_2
Pr1 O1 1_555 1_555
Pr2 O2 1_555 1_555
C1 C2 1_555 1_555
C2 C3 1_555 1_555
C3 H1 1_555 1_555
C4 C3 1_555 1_555
H2 C4 1_555 1_555
C5 C4 1_555 1_555
H3 C5 1_555 1_555
C6 C5 1_555 1_555
H4 C6 1_555 1_555
C7 C2 1_555 1_555
C8 C7 1_555 1_555
C9 C8 1_555 1_555
H5 C9 1_555 1_555
C10 C9 1_555 1_555
H6 C10 1_555 1_555
C11 C10 1_555 1_555
H7 C11 1_555 1_555
C12 C11 1_555 1_555
H8 C12 1_555 1_555
C13 C8 1_555 1_555
C14 C13 1_555 1_555
C15 C16 1_555 1_555
C16 C17 1_555 1_555
C17 H9 1_555 1_555
C18 C17 1_555 1_555
H10 C18 1_555 1_555
C19 C18 1_555 1_555
H11 C19 1_555 1_555
C20 C19 1_555 1_555
H12 C20 1_555 1_555
C21 C16 1_555 1_555
H13 O7 1_555 1_555
H14 O7 1_555 1_555
O1 C1 1_555 1_555
O2 Pr1 1_555 1_555
O3 C14 1_555 1_555
O4 Pr2 1_555 1_555
O5 C15 1_555 1_555
O6 Pr1 1_555 1_555
O7 Pr2 1_555 1_555
Pr1_2 O3 1_555 1_555
Pr1_3 O3A_2 1_555 1_555
Pr2_2 O5 1_555 1_555
C1A C2A 1_555 1_555
C2A C3A 1_555 1_555
C3A H1A 1_555 1_555
C4A C3A 1_555 1_555
H2A C4A 1_555 1_555
C5A C4A 1_555 1_555
H3A C5A 1_555 1_555
C6A C5A 1_555 1_555
H4A C6A 1_555 1_555
C7A C2A 1_555 1_555
C8A C7A 1_555 1_555
C9A C8A 1_555 1_555
H5A C9A 1_555 1_555
C10A C9A 1_555 1_555
H6A C10A 1_555 1_555
C11A C10A 1_555 1_555
H7A C11A 1_555 1_555
C12A C11A 1_555 1_555
H8A C12A 1_555 1_555
C13A C8A 1_555 1_555
C14A C13A 1_555 1_555
C15A C16A 1_555 1_555
C16A C17A 1_555 1_555
C17A H9A 1_555 1_555
C18A C17A 1_555 1_555
H10A C18A 1_555 1_555
C19A C18A 1_555 1_555
H11A C19A 1_555 1_555
C20A C19A 1_555 1_555
H12A C20A 1_555 1_555
C21A C21 1_555 1_555
H13A O7A 1_555 1_555
H14A O7A 1_555 1_555
O1A Pr1 1_555 1_555
O2A Pr1 1_555 1_555
O2A_2 Pr2 1_555 1_555
O3_2 Pr1 1_555 1_555
O3A Pr1 1_555 1_555
O3A_2 C14A 1_555 1_555
O4A Pr2 1_555 1_555
O4A_2 Pr2_2 1_555 1_555
O5A Pr2 1_555 1_555
O5_2 Pr2 1_555 1_555
O6A Pr1 1_555 1_555
O7A Pr2 1_555 1_555
C1 O2 1_555 1_555
C6 C7 1_555 1_555
C12 C13 1_555 1_555
C14 O4 1_555 1_555
C15 O6 1_555 1_555
C20 C21 1_555 1_555
Pr1_2 O2A_2 1_555 1_555
Pr2_2 O2A 1_555 1_555
C1A O1A 1_555 1_555
C1A O2A 1_555 1_555
C6A C7A 1_555 1_555
C12A C13A 1_555 1_555
C14A O4A_2 1_555 1_555
C15A O5A 1_555 1_555
C15A O6A 1_555 1_555
C16A C21A 1_555 1_555
C20A C21A 1_555 1_555

#END
