
#######################################################################
#
#                 Cambridge Crystallographic Data Centre
#                                CCDC 
#
#######################################################################
#
# If this CIF has been generated from an entry in the Cambridge 
# Structural Database, then it will include bibliographic, chemical, 
# crystal, experimental, refinement or atomic coordinate data resulting 
# from the CCDC's data processing and validation procedures.
#
#######################################################################

data_GUYMES
_symmetry_cell_setting           monoclinic
_symmetry_space_group_name_H-M   'C 2/c'
_symmetry_Int_Tables_number      15
_space_group_name_Hall           '-C 2yn'
loop_
_symmetry_equiv_pos_site_id
_symmetry_equiv_pos_as_xyz
1 x,y,z
2 1/2+x,1/2+y,z
3 -x,y,1/2-z
4 1/2-x,1/2+y,1/2-z
5 -x,-y,-z
6 1/2-x,1/2-y,-z
7 x,-y,1/2+z
8 1/2+x,1/2-y,1/2+z
_cell_length_a                   20.938(7)
_cell_length_b                   21.363(7)
_cell_length_c                   8.207(3)
_cell_angle_alpha                90
_cell_angle_beta                 104.052(5)
_cell_angle_gamma                90
_cell_volume                     3561.13
loop_
_atom_site_label
_atom_site_type_symbol
_atom_site_fract_x
_atom_site_fract_y
_atom_site_fract_z
Tb1 Tb 0.0000 0.286568(8) 0.7500
Tb2 Tb 0.0000 0.207143(8) 0.2500
O1 O 0.05788(9) 0.24631(9) 0.5473(2)
O2 O 0.09582(11) 0.16499(10) 0.4377(3)
O3 O 0.06885(10) 0.20975(8) 0.8789(3)
O4 O 0.04873(11) 0.14865(10) 1.0792(3)
O5 O 0.06615(10) 0.28840(9) 1.2136(3)
O6 O 0.03343(11) 0.35344(9) 0.9974(2)
O7 O 0.09109(14) 0.35839(13) 0.7372(3)
H1 H 0.107(2) 0.3912(15) 0.787(5)
H2 H 0.104(3) 0.357(3) 0.647(5)
C1 C 0.10308(15) 0.20579(14) 0.5509(4)
C2 C 0.16760(15) 0.20933(14) 0.6767(4)
C3 C 0.20819(17) 0.26003(18) 0.6636(4)
H3 H 0.1926 0.2917 0.5864
C4 C 0.27201(18) 0.2633(2) 0.7658(5)
H4 H 0.2995 0.2964 0.7546
C5 C 0.29371(17) 0.21766(19) 0.8821(5)
H5 H 0.3358 0.2203 0.9523
C6 C 0.25411(16) 0.16808(17) 0.8966(4)
H6 H 0.2700 0.1374 0.9767
C7 C 0.19028(14) 0.16210(15) 0.7943(4)
C8 C 0.15286(15) 0.10438(15) 0.8105(4)
C9 C 0.17686(18) 0.04738(17) 0.7644(4)
H7 H 0.2136 0.0477 0.7197
C10 C 0.1477(2) -0.00876(18) 0.7834(4)
H8 H 0.1649 -0.0456 0.7512
C11 C 0.0936(2) -0.01118(17) 0.8490(4)
H9 H 0.0732 -0.0492 0.8586
C12 C 0.06978(19) 0.04385(15) 0.9009(4)
H10 H 0.0339 0.0422 0.9490
C13 C 0.09795(16) 0.10122(14) 0.8828(4)
C14 C 0.07024(14) 0.15738(14) 0.9508(3)
C15 C 0.05662(14) 0.34192(13) 1.1506(4)
C16 C 0.07795(15) 0.39638(13) 1.2690(3)
C17 C 0.14407(16) 0.39755(15) 1.3569(4)
H11 H 0.1715 0.3645 1.3455
C18 C 0.16928(18) 0.44734(16) 1.4609(4)
H12 H 0.2135 0.4479 1.5180
C19 C 0.12843(18) 0.49602(17) 1.4791(4)
H13 H 0.1454 0.5299 1.5473
C20 C 0.06274(17) 0.49501(15) 1.3973(4)
H14 H 0.0357 0.5279 1.4128
C21 C 0.03565(15) 0.44484(13) 1.2900(4)
C21B C -0.03565(15) 0.44484(13) 1.2100(4)
C16B C -0.07795(15) 0.39638(13) 1.2310(3)
C15B C -0.05662(14) 0.34192(13) 1.3494(4)
O5B O -0.06615(10) 0.28840(9) 1.2864(3)
O6B O -0.03343(11) 0.35344(9) 1.5026(2)
C17B C -0.14407(16) 0.39755(15) 1.1431(4)
H11B H -0.1715 0.3645 1.1545
C18B C -0.16928(18) 0.44734(16) 1.0391(4)
H12B H -0.2135 0.4479 0.9820
C19B C -0.12843(18) 0.49602(17) 1.0209(4)
H13B H -0.1454 0.5299 0.9527
C20B C -0.06274(17) 0.49501(15) 1.1027(4)
H14B H -0.0357 0.5279 1.0872
O1B O -0.05788(9) 0.24631(9) 0.9527(2)
O2B O -0.09582(11) 0.16499(10) 1.0623(3)
O3B O -0.06885(10) 0.20975(8) 0.6211(3)
O4B O -0.04873(11) 0.14865(10) 0.4208(3)
C1B C -0.10308(15) 0.20579(14) 0.9491(4)
C2B C -0.16760(15) 0.20933(14) 0.8233(4)
C3B C -0.20819(17) 0.26003(18) 0.8364(4)
H3B H -0.1926 0.2917 0.9136
C4B C -0.27201(18) 0.2633(2) 0.7342(5)
H4B H -0.2995 0.2964 0.7454
C5B C -0.29371(17) 0.21766(19) 0.6179(5)
H5B H -0.3358 0.2203 0.5477
C6B C -0.25411(16) 0.16808(17) 0.6034(4)
H6B H -0.2700 0.1374 0.5233
C7B C -0.19028(14) 0.16210(15) 0.7057(4)
C8B C -0.15286(15) 0.10438(15) 0.6895(4)
C9B C -0.17686(18) 0.04738(17) 0.7356(4)
H7B H -0.2136 0.0477 0.7803
C10B C -0.1477(2) -0.00876(18) 0.7166(4)
H8B H -0.1649 -0.0456 0.7488
C11B C -0.0936(2) -0.01118(17) 0.6510(4)
H9B H -0.0732 -0.0492 0.6414
C12B C -0.06978(19) 0.04385(15) 0.5991(4)
H10B H -0.0339 0.0422 0.5510
C13B C -0.09795(16) 0.10122(14) 0.6172(4)
C14B C -0.07024(14) 0.15738(14) 0.5492(3)
O7B O -0.09109(14) 0.35839(13) 0.7628(3)
H1B H -0.107(2) 0.3912(15) 0.713(5)
H2B H -0.104(3) 0.357(3) 0.853(5)
O6B_2 O -0.03343(11) 0.35344(9) 0.5026(2)
O1B_2 O -0.05788(9) 0.24631(9) -0.0473(2)
O2B_2 O -0.09582(11) 0.16499(10) 0.0623(3)
O4_2 O 0.04873(11) 0.14865(10) 0.0792(3)
O5_2 O 0.06615(10) 0.28840(9) 0.2136(3)
O5B_2 O -0.06615(10) 0.28840(9) 0.2864(3)
Tb2_2 Tb 0.0000 0.207143(8) 1.2500
Tb1_2 Tb 0.0000 0.286568(8) 1.7500
loop_
_geom_bond_atom_site_label_1
_geom_bond_atom_site_label_2
_geom_bond_site_symmetry_1
_geom_bond_site_symmetry_2
Tb1 O1 1_555 1_555
Tb2 O1 1_555 1_555
O1 C1 1_555 1_555
O2 Tb2 1_555 1_555
O3 Tb1 1_555 1_555
O4 C14 1_555 1_555
O5 C15 1_555 1_555
O6 Tb1 1_555 1_555
O7 Tb1 1_555 1_555
H1 O7 1_555 1_555
H2 O7 1_555 1_555
C1 O2 1_555 1_555
C2 C1 1_555 1_555
C3 C2 1_555 1_555
H3 C3 1_555 1_555
C4 C3 1_555 1_555
H4 C4 1_555 1_555
C5 C4 1_555 1_555
H5 C5 1_555 1_555
C6 C5 1_555 1_555
H6 C6 1_555 1_555
C7 C2 1_555 1_555
C8 C7 1_555 1_555
C9 C8 1_555 1_555
H7 C9 1_555 1_555
C10 C9 1_555 1_555
H8 C10 1_555 1_555
C11 C10 1_555 1_555
H9 C11 1_555 1_555
C12 C11 1_555 1_555
H10 C12 1_555 1_555
C13 C8 1_555 1_555
C14 O3 1_555 1_555
C15 O6 1_555 1_555
C16 C15 1_555 1_555
C17 C16 1_555 1_555
H11 C17 1_555 1_555
C18 C17 1_555 1_555
H12 C18 1_555 1_555
C19 C18 1_555 1_555
H13 C19 1_555 1_555
C20 C19 1_555 1_555
H14 C20 1_555 1_555
C21 C16 1_555 1_555
C21B C21 1_555 1_555
C16B C21B 1_555 1_555
C15B C16B 1_555 1_555
O5B C15B 1_555 1_555
O6B C15B 1_555 1_555
C17B C16B 1_555 1_555
H11B C17B 1_555 1_555
C18B C17B 1_555 1_555
H12B C18B 1_555 1_555
C19B C18B 1_555 1_555
H13B C19B 1_555 1_555
C20B C21B 1_555 1_555
H14B C20B 1_555 1_555
O1B Tb1 1_555 1_555
O2B C1B 1_555 1_555
O3B Tb1 1_555 1_555
O4B Tb2 1_555 1_555
C1B O1B 1_555 1_555
C2B C1B 1_555 1_555
C3B C2B 1_555 1_555
H3B C3B 1_555 1_555
C4B C3B 1_555 1_555
H4B C4B 1_555 1_555
C5B C4B 1_555 1_555
H5B C5B 1_555 1_555
C6B C5B 1_555 1_555
H6B C6B 1_555 1_555
C7B C2B 1_555 1_555
C8B C7B 1_555 1_555
C9B C8B 1_555 1_555
H7B C9B 1_555 1_555
C10B C9B 1_555 1_555
H8B C10B 1_555 1_555
C11B C10B 1_555 1_555
H9B C11B 1_555 1_555
C12B C11B 1_555 1_555
H10B C12B 1_555 1_555
C13B C8B 1_555 1_555
C14B O3B 1_555 1_555
O7B Tb1 1_555 1_555
H1B O7B 1_555 1_555
H2B O7B 1_555 1_555
O6B_2 Tb1 1_555 1_555
O1B_2 Tb2 1_555 1_555
O2B_2 Tb2 1_555 1_555
O4_2 Tb2 1_555 1_555
O5_2 Tb2 1_555 1_555
O5B_2 Tb2 1_555 1_555
Tb2_2 O4 1_555 1_555
Tb1_2 O6B 1_555 1_555
O5 Tb2_2 1_555 1_555
C6 C7 1_555 1_555
C12 C13 1_555 1_555
C13 C14 1_555 1_555
C20 C21 1_555 1_555
O5B Tb2_2 1_555 1_555
C19B C20B 1_555 1_555
O1B Tb2_2 1_555 1_555
O2B Tb2_2 1_555 1_555
O4B C14B 1_555 1_555
C6B C7B 1_555 1_555
C12B C13B 1_555 1_555
C13B C14B 1_555 1_555

#END
