
#######################################################################
#
#                 Cambridge Crystallographic Data Centre
#                                CCDC 
#
#######################################################################
#
# If this CIF has been generated from an entry in the Cambridge 
# Structural Database, then it will include bibliographic, chemical, 
# crystal, experimental, refinement or atomic coordinate data resulting 
# from the CCDC's data processing and validation procedures.
#
#######################################################################

data_GUYVIF
_symmetry_cell_setting           monoclinic
_symmetry_space_group_name_H-M   'P 2/c'
_symmetry_Int_Tables_number      13
_space_group_name_Hall           '-P 2yc'
loop_
_symmetry_equiv_pos_site_id
_symmetry_equiv_pos_as_xyz
1 x,y,z
2 x,-y,1/2+z
3 -x,-y,-z
4 -x,y,1/2-z
_cell_length_a                   13.7063(4)
_cell_length_b                   12.4103(4)
_cell_length_c                   30.2541(8)
_cell_angle_alpha                90
_cell_angle_beta                 92.781(2)
_cell_angle_gamma                90
_cell_volume                     5140.14
loop_
_atom_site_label
_atom_site_type_symbol
_atom_site_fract_x
_atom_site_fract_y
_atom_site_fract_z
Gd1 Gd 0.5000 -0.25730(4) -0.2500
Ni1 Ni 0.86481(6) 0.19717(7) -0.02357(3)
C1 C 0.9125(5) 0.3991(6) 0.0364(2)
H1 H 0.9404 0.3520 0.0573
C2 C 0.9074(6) 0.5072(7) 0.0469(3)
H2 H 0.9303 0.5324 0.0744
C3 C 0.8680(7) 0.5759(6) 0.0158(3)
H3 H 0.8635 0.6490 0.0222
C4 C 0.8342(7) 0.5377(6) -0.0258(3)
H4 H 0.8084 0.5845 -0.0474
C5 C 0.8404(5) 0.4285(6) -0.0336(2)
C6 C 0.8027(6) 0.3775(6) -0.0746(3)
H5 H 0.7782 0.4175 -0.0987
C7 C 0.7806(5) 0.1137(6) -0.1023(2)
C8 C 0.7425(5) 0.0383(6) -0.1373(2)
C9 C 0.6964(9) 0.0775(9) -0.1763(3)
H6 H 0.6862 0.1512 -0.1797
C10 C 0.6664(9) 0.0090(9) -0.2089(3)
H7 H 0.6375 0.0360 -0.2351
C11 C 0.7186(5) -0.1378(7) -0.1659(2)
H8 H 0.7247 -0.2120 -0.1623
C12 C 0.7506(5) -0.0700(7) -0.1328(2)
H9 H 0.7786 -0.0985 -0.1067
C13 C 1.0491(6) -0.1958(7) -0.5800(2)
H10 H 1.0096 -0.2232 -0.6033
C14 C 1.1464(7) -0.1771(7) -0.5869(3)
H11 H 1.1717 -0.1905 -0.6143
C15 C 1.2048(6) -0.1386(6) -0.5527(3)
H12 H 1.2711 -0.1282 -0.5564
C16 C 1.1660(5) -0.1150(6) -0.5125(3)
H13 H 1.2048 -0.0870 -0.4891
C17 C 1.0674(5) -0.1345(5) -0.5082(2)
C18 C 1.0173(5) -0.1128(5) -0.4673(2)
H14 H 1.0500 -0.0868 -0.4418
C19 C 0.7782(5) -0.1469(6) -0.4448(2)
C20 C 0.7070(5) -0.1434(6) -0.4092(2)
C21 C 0.7291(7) -0.1019(9) -0.3685(3)
H15 H 0.7905 -0.0724 -0.3621
C22 C 0.6598(8) -0.1032(10) -0.3361(3)
H16 H 0.6751 -0.0742 -0.3083
C23 C 0.5491(7) -0.1815(13) -0.3838(3)
H17 H 0.4861 -0.2071 -0.3898
C24 C 0.6146(7) -0.1830(11) -0.4169(3)
H18 H 0.5960 -0.2111 -0.4445
N1 N 0.8792(4) 0.3590(5) -0.00244(19)
N2 N 0.8056(5) 0.2757(4) -0.07532(19)
N3 N 0.7695(5) 0.2177(5) -0.11131(18)
H19 H 0.7442 0.2442 -0.1355
N4 N 0.6779(4) -0.0972(6) -0.20376(19)
N5 N 1.0097(4) -0.1763(4) -0.54177(17)
N6 N 0.9256(4) -0.1320(4) -0.46921(16)
N7 N 0.8684(4) -0.1188(5) -0.43325(16)
N8 N 0.5732(5) -0.1453(7) -0.3447(2)
O1 O 0.8174(3) 0.0720(4) -0.06671(13)
O2 O 0.6470(4) -0.1646(5) -0.23596(16)
O3 O 0.7472(3) -0.1805(4) -0.48280(14)
O4 O 0.5076(4) -0.1494(6) -0.31384(17)
C25 C 0.2891(9) -0.3589(11) -0.2179(5)
H20 H 0.2684 -0.3409 -0.2466
C26 C 0.2523(16) -0.4336(17) -0.1501(5)
H21 H 0.3194 -0.4146 -0.1435
H22 H 0.2445 -0.5100 -0.1470
H23 H 0.2115 -0.3970 -0.1300
C27 C 0.1274(14) -0.427(2) -0.2079(7)
H24 H 0.1159 -0.4022 -0.2377
H25 H 0.0834 -0.3911 -0.1890
H26 H 0.1167 -0.5033 -0.2067
C28 C 0.5561(10) -0.4655(15) -0.1809(6)
H27 H 0.5128 -0.4458 -0.1596
C29 C 0.6638(19) -0.577(2) -0.1990(7)
H28 H 0.6596 -0.5448 -0.2278
H29 H 0.6753 -0.6530 -0.2017
H30 H 0.7167 -0.5448 -0.1817
C30 C 0.558(3) -0.593(4) -0.1364(9)
H31 H 0.4919 -0.5738 -0.1305
H32 H 0.6019 -0.5573 -0.1154
H33 H 0.5660 -0.6693 -0.1339
N9 N 0.2257(9) -0.4034(10) -0.1934(4)
N10 N 0.5777(12) -0.5605(13) -0.1784(8)
O5 O 0.3748(4) -0.3384(5) -0.20638(19)
O6 O 0.5768(5) -0.3897(6) -0.2044(2)
C1C C 0.0875(5) 0.3991(6) -0.5364(2)
H1C H 0.0596 0.3520 -0.5573
C2C C 0.0926(6) 0.5072(7) -0.5469(3)
H2C H 0.0697 0.5324 -0.5744
C3C C 0.1320(7) 0.5759(6) -0.5158(3)
H3C H 0.1365 0.6490 -0.5222
C4C C 0.1658(7) 0.5377(6) -0.4742(3)
H4C H 0.1916 0.5845 -0.4526
C5C C 0.1596(5) 0.4285(6) -0.4664(2)
C6C C 0.1973(6) 0.3775(6) -0.4254(3)
H5C H 0.2218 0.4175 -0.4013
C7C C 0.2194(5) 0.1137(6) -0.3977(2)
C8C C 0.2575(5) 0.0383(6) -0.3627(2)
C9C C 0.3036(9) 0.0775(9) -0.3237(3)
H6C H 0.3138 0.1512 -0.3203
C10C C 0.3336(9) 0.0090(9) -0.2911(3)
H7C H 0.3625 0.0360 -0.2649
C11C C 0.2814(5) -0.1378(7) -0.3341(2)
H8C H 0.2753 -0.2120 -0.3377
C12C C 0.2494(5) -0.0700(7) -0.3672(2)
H9C H 0.2214 -0.0985 -0.3933
N1C N 0.1208(4) 0.3590(5) -0.49756(19)
N2C N 0.1944(5) 0.2757(4) -0.42468(19)
N3C N 0.2305(5) 0.2177(5) -0.38869(18)
H19C H 0.2558 0.2442 -0.3645
N4C N 0.3221(4) -0.0972(6) -0.29624(19)
O1C O 0.1826(3) 0.0720(4) -0.43329(13)
O2C O 0.3530(4) -0.1646(5) -0.26404(16)
C13C C -0.0491(6) -0.1958(7) 0.0800(2)
H10C H -0.0096 -0.2232 0.1033
C14C C -0.1464(7) -0.1771(7) 0.0869(3)
H11C H -0.1717 -0.1905 0.1143
C15C C -0.2048(6) -0.1386(6) 0.0527(3)
H12C H -0.2711 -0.1282 0.0564
C16C C -0.1660(5) -0.1150(6) 0.0125(3)
H13C H -0.2048 -0.0870 -0.0109
C17C C -0.0674(5) -0.1345(5) 0.0082(2)
C18C C -0.0173(5) -0.1128(5) -0.0327(2)
H14C H -0.0500 -0.0868 -0.0582
C19C C 0.2218(5) -0.1469(6) -0.0552(2)
C20C C 0.2930(5) -0.1434(6) -0.0908(2)
C21C C 0.2709(7) -0.1019(9) -0.1315(3)
H15C H 0.2095 -0.0724 -0.1379
C22C C 0.3402(8) -0.1032(10) -0.1639(3)
H16C H 0.3249 -0.0742 -0.1917
C23C C 0.4509(7) -0.1815(13) -0.1162(3)
H17C H 0.5139 -0.2071 -0.1102
C24C C 0.3854(7) -0.1830(11) -0.0831(3)
H18C H 0.4040 -0.2111 -0.0555
N5C N -0.0097(4) -0.1763(4) 0.04177(17)
N6C N 0.0744(4) -0.1320(4) -0.03079(16)
N7C N 0.1316(4) -0.1188(5) -0.06675(16)
N8C N 0.4268(5) -0.1453(7) -0.1553(2)
O3C O 0.2528(3) -0.1805(4) -0.01720(14)
O4C O 0.4924(4) -0.1494(6) -0.18616(17)
C25C C 0.7109(9) -0.3589(11) -0.2821(5)
H20C H 0.7316 -0.3409 -0.2534
C26C C 0.7477(16) -0.4336(17) -0.3499(5)
H21C H 0.6806 -0.4146 -0.3565
H22C H 0.7555 -0.5100 -0.3530
H23C H 0.7885 -0.3970 -0.3700
C27C C 0.8726(14) -0.427(2) -0.2921(7)
H24C H 0.8841 -0.4022 -0.2623
H25C H 0.9166 -0.3911 -0.3110
H26C H 0.8833 -0.5033 -0.2933
N9C N 0.7743(9) -0.4034(10) -0.3066(4)
O5C O 0.6252(4) -0.3384(5) -0.29362(19)
C28C C 0.4439(10) -0.4655(15) -0.3191(6)
H27C H 0.4872 -0.4458 -0.3404
C29C C 0.3362(19) -0.577(2) -0.3010(7)
H28C H 0.3404 -0.5448 -0.2722
H29C H 0.3247 -0.6530 -0.2983
H30C H 0.2833 -0.5448 -0.3183
C30C C 0.442(3) -0.593(4) -0.3636(9)
H31C H 0.5081 -0.5738 -0.3695
H32C H 0.3981 -0.5573 -0.3846
H33C H 0.4340 -0.6693 -0.3661
N10C N 0.4223(12) -0.5605(13) -0.3216(8)
O6C O 0.4232(5) -0.3897(6) -0.2956(2)
Ni1C Ni 0.13519(6) 0.19717(7) -0.47643(3)
N5A N 1.0097(4) 0.1763(4) -0.04177(17)
N6A N 0.9256(4) 0.1320(4) 0.03079(16)
O3A O 0.7472(3) 0.1805(4) 0.01720(14)
Ni1A Ni 0.86481(6) -0.19717(7) -0.52357(3)
Ni1B Ni 0.13519(6) -0.19717(7) 0.02357(3)
N5B N -0.0097(4) 0.1763(4) -0.45823(17)
N6B N 0.0744(4) 0.1320(4) -0.53079(16)
O3B O 0.2528(3) 0.1805(4) -0.51720(14)
Cl1 Cl 0.1110(3) 0.3596(3) 0.14039(11)
O7 O 0.1092(9) 0.3227(12) 0.1843(3)
O8 O 0.0860(12) 0.2794(9) 0.1080(4)
O9 O 0.2121(6) 0.3878(9) 0.1330(4)
O10 O 0.0557(8) 0.4545(9) 0.1319(3)
Cl2 Cl 1.3413(7) -0.8021(7) -0.1801(2)
O11 O 1.4119(16) -0.8330(18) -0.2089(7)
O12 O 1.3705(16) -0.822(2) -0.1357(4)
O13 O 1.2539(12) -0.8679(15) -0.1901(5)
O14 O 1.3131(18) -0.6923(13) -0.1862(9)
N12 N 0.6004(13) 0.9222(17) -0.0252(5)
C34 C 0.5851(14) 1.008(2) -0.0379(6)
C35 C 0.5514(19) 1.119(2) -0.0562(8)
H37 H 0.5998 1.1722 -0.0483
H38 H 0.4906 1.1382 -0.0439
H39 H 0.5427 1.1149 -0.0879
C36 C 0.614(3) 0.477(4) 0.0147(12)
H40 H 0.6038 0.4533 -0.0154
H41 H 0.5605 0.4538 0.0316
H42 H 0.6738 0.4470 0.0271
N13 N 0.620(2) 0.591(4) 0.0157(9)
C37 C 0.639(3) 0.633(4) 0.0584(12)
H43 H 0.6431 0.7097 0.0570
H44 H 0.6989 0.6036 0.0707
H45 H 0.5863 0.6129 0.0769
C38 C 0.611(2) 0.665(3) -0.0152(12)
H46 H 0.6118 0.7365 -0.0065
O16 O 0.603(2) 0.645(4) -0.0552(10)
C31? C 0.011(2) 0.092(3) 0.2168(11)
C32? C 0.081(2) 0.140(3) 0.2814(13)
C33? C 0.167(3) -0.002(3) 0.2529(15)
H34? H 0.1744 -0.0462 0.2274
H35? H 0.1527 -0.0461 0.2778
H36? H 0.2260 0.0378 0.2593
O15? O -0.007(2) 0.049(3) 0.1799(11)
N11? N 0.0879(19) 0.072(3) 0.2443(10)
loop_
_geom_bond_atom_site_label_1
_geom_bond_atom_site_label_2
_geom_bond_site_symmetry_1
_geom_bond_site_symmetry_2
Gd1 O2 1_555 1_555
Ni1 N1 1_555 1_555
C1 H1 1_555 1_555
C2 C1 1_555 1_555
H2 C2 1_555 1_555
C3 C2 1_555 1_555
H3 C3 1_555 1_555
C4 C3 1_555 1_555
H4 C4 1_555 1_555
C5 C4 1_555 1_555
C6 C5 1_555 1_555
H5 C6 1_555 1_555
C7 C8 1_555 1_555
C8 C9 1_555 1_555
C9 H6 1_555 1_555
C10 C9 1_555 1_555
H7 C10 1_555 1_555
C11 H8 1_555 1_555
C12 C8 1_555 1_555
H9 C12 1_555 1_555
C13 H10 1_555 1_555
C14 C13 1_555 1_555
H11 C14 1_555 1_555
C15 C14 1_555 1_555
H12 C15 1_555 1_555
C16 C15 1_555 1_555
H13 C16 1_555 1_555
C17 C16 1_555 1_555
C18 C17 1_555 1_555
H14 C18 1_555 1_555
C19 C20 1_555 1_555
C20 C21 1_555 1_555
C21 H15 1_555 1_555
C22 C21 1_555 1_555
H16 C22 1_555 1_555
C23 H17 1_555 1_555
C24 C20 1_555 1_555
H18 C24 1_555 1_555
N1 C1 1_555 1_555
N2 Ni1 1_555 1_555
N3 C7 1_555 1_555
H19 N3 1_555 1_555
N4 C10 1_555 1_555
N5 C13 1_555 1_555
N6 C18 1_555 1_555
N7 C19 1_555 1_555
N8 C22 1_555 1_555
O1 Ni1 1_555 1_555
O2 N4 1_555 1_555
O3 C19 1_555 1_555
O4 Gd1 1_555 1_555
C25 H20 1_555 1_555
C26 H21 1_555 1_555
H22 C26 1_555 1_555
H23 C26 1_555 1_555
C27 H24 1_555 1_555
H25 C27 1_555 1_555
H26 C27 1_555 1_555
C28 H27 1_555 1_555
C29 H28 1_555 1_555
H29 C29 1_555 1_555
H30 C29 1_555 1_555
C30 H31 1_555 1_555
H32 C30 1_555 1_555
H33 C30 1_555 1_555
N9 C25 1_555 1_555
N10 C28 1_555 1_555
O5 Gd1 1_555 1_555
O6 Gd1 1_555 1_555
Cl1 O7 1_555 1_555
O8 Cl1 1_555 1_555
O9 Cl1 1_555 1_555
O10 Cl1 1_555 1_555
Cl2 O11 1_555 1_555
O12 Cl2 1_555 1_555
O13 Cl2 1_555 1_555
O14 Cl2 1_555 1_555
N12 C34 1_555 1_555
C34 C35 1_555 1_555
C35 H37 1_555 1_555
H38 C35 1_555 1_555
H39 C35 1_555 1_555
C36 H40 1_555 1_555
H41 C36 1_555 1_555
H42 C36 1_555 1_555
N13 C36 1_555 1_555
C37 N13 1_555 1_555
H43 C37 1_555 1_555
H44 C37 1_555 1_555
H45 C37 1_555 1_555
C38 N13 1_555 1_555
H46 C38 1_555 1_555
O16 C38 1_555 1_555
C1C H1C 1_555 1_555
C2C C1C 1_555 1_555
H2C C2C 1_555 1_555
C3C C2C 1_555 1_555
H3C C3C 1_555 1_555
C4C C3C 1_555 1_555
H4C C4C 1_555 1_555
C5C C4C 1_555 1_555
C6C C5C 1_555 1_555
H5C C6C 1_555 1_555
C7C C8C 1_555 1_555
C8C C9C 1_555 1_555
C9C H6C 1_555 1_555
C10C C9C 1_555 1_555
H7C C10C 1_555 1_555
C11C H8C 1_555 1_555
C12C C8C 1_555 1_555
H9C C12C 1_555 1_555
N1C C1C 1_555 1_555
N2C C6C 1_555 1_555
N3C C7C 1_555 1_555
H19C N3C 1_555 1_555
N4C C10C 1_555 1_555
O1C C7C 1_555 1_555
O2C Gd1 1_555 1_555
C13C H10C 1_555 1_555
C14C C13C 1_555 1_555
H11C C14C 1_555 1_555
C15C C14C 1_555 1_555
H12C C15C 1_555 1_555
C16C C15C 1_555 1_555
H13C C16C 1_555 1_555
C17C C16C 1_555 1_555
C18C C17C 1_555 1_555
H14C C18C 1_555 1_555
C19C C20C 1_555 1_555
C20C C21C 1_555 1_555
C21C H15C 1_555 1_555
C22C C21C 1_555 1_555
H16C C22C 1_555 1_555
C23C H17C 1_555 1_555
C24C C20C 1_555 1_555
H18C C24C 1_555 1_555
N5C C13C 1_555 1_555
N6C C18C 1_555 1_555
N7C C19C 1_555 1_555
N8C C22C 1_555 1_555
O3C C19C 1_555 1_555
O4C Gd1 1_555 1_555
C25C H20C 1_555 1_555
C26C H21C 1_555 1_555
H22C C26C 1_555 1_555
H23C C26C 1_555 1_555
C27C H24C 1_555 1_555
H25C C27C 1_555 1_555
H26C C27C 1_555 1_555
N9C C25C 1_555 1_555
O5C Gd1 1_555 1_555
C28C H27C 1_555 1_555
C29C H28C 1_555 1_555
H29C C29C 1_555 1_555
H30C C29C 1_555 1_555
C30C H31C 1_555 1_555
H32C C30C 1_555 1_555
H33C C30C 1_555 1_555
N10C C28C 1_555 1_555
O6C Gd1 1_555 1_555
Ni1C N1C 1_555 1_555
N5A Ni1 1_555 1_555
N6A Ni1 1_555 1_555
O3A Ni1 1_555 1_555
Ni1A N5 1_555 1_555
Ni1B N5C 1_555 1_555
N5B Ni1C 1_555 1_555
N6B Ni1C 1_555 1_555
O3B Ni1C 1_555 1_555
C5 N1 1_555 1_555
C6 N2 1_555 1_555
C7 O1 1_555 1_555
C11 N4 1_555 1_555
C11 C12 1_555 1_555
C17 N5 1_555 1_555
C23 N8 1_555 1_555
C23 C24 1_555 1_555
N2 N3 1_555 1_555
N6 N7 1_555 1_555
N6 Ni1A 1_555 1_555
N8 O4 1_555 1_555
O3 Ni1A 1_555 1_555
C25 O5 1_555 1_555
C26 N9 1_555 1_555
C27 N9 1_555 1_555
C28 O6 1_555 1_555
C29 N10 1_555 1_555
C30 N10 1_555 1_555
C5C N1C 1_555 1_555
C11C N4C 1_555 1_555
C11C C12C 1_555 1_555
N2C Ni1C 1_555 1_555
N2C N3C 1_555 1_555
N4C O2C 1_555 1_555
O1C Ni1C 1_555 1_555
C17C N5C 1_555 1_555
C23C N8C 1_555 1_555
C23C C24C 1_555 1_555
N6C N7C 1_555 1_555
N6C Ni1B 1_555 1_555
N8C O4C 1_555 1_555
O3C Ni1B 1_555 1_555
C25C O5C 1_555 1_555
C26C N9C 1_555 1_555
C27C N9C 1_555 1_555
C28C O6C 1_555 1_555
C29C N10C 1_555 1_555
C30C N10C 1_555 1_555

#END
