
#######################################################################
#
#                 Cambridge Crystallographic Data Centre
#                                CCDC 
#
#######################################################################
#
# If this CIF has been generated from an entry in the Cambridge 
# Structural Database, then it will include bibliographic, chemical, 
# crystal, experimental, refinement or atomic coordinate data resulting 
# from the CCDC's data processing and validation procedures.
#
#######################################################################

data_GUYVOL
_symmetry_cell_setting           monoclinic
_symmetry_space_group_name_H-M   'P 2/c'
_symmetry_Int_Tables_number      13
_space_group_name_Hall           '-P 2yc'
loop_
_symmetry_equiv_pos_site_id
_symmetry_equiv_pos_as_xyz
1 x,y,z
2 x,-y,1/2+z
3 -x,-y,-z
4 -x,y,1/2-z
_cell_length_a                   13.7842(3)
_cell_length_b                   12.4662(4)
_cell_length_c                   30.2055(11)
_cell_angle_alpha                90
_cell_angle_beta                 92.7503(18)
_cell_angle_gamma                90
_cell_volume                     5184.43
loop_
_atom_site_label
_atom_site_type_symbol
_atom_site_fract_x
_atom_site_fract_y
_atom_site_fract_z
Tb1 Tb 0.5000 -0.25235(4) -0.2500
Ni1 Ni 0.86393(7) 0.19802(8) -0.02263(3)
C1 C 0.9123(6) 0.3994(7) 0.0377(3)
H1 H 0.9386 0.3533 0.0593
C2 C 0.9086(7) 0.5088(8) 0.0472(3)
H2 H 0.9328 0.5351 0.0743
C3 C 0.8695(7) 0.5749(7) 0.0164(3)
H3 H 0.8650 0.6476 0.0228
C4 C 0.8358(8) 0.5388(8) -0.0244(4)
H4 H 0.8093 0.5861 -0.0455
C5 C 0.8423(7) 0.4300(7) -0.0334(3)
C6 C 0.8040(7) 0.3795(7) -0.0742(3)
H5 H 0.7804 0.4192 -0.0985
C7 C 0.7774(5) 0.1147(7) -0.1013(2)
C8 C 0.7403(6) 0.0408(7) -0.1364(3)
C9 C 0.6945(9) 0.0783(9) -0.1747(3)
H6 H 0.6845 0.1517 -0.1781
C10 C 0.6634(9) 0.0107(9) -0.2079(3)
H7 H 0.6344 0.0381 -0.2339
C11 C 0.7164(6) -0.1357(7) -0.1649(3)
H8 H 0.7235 -0.2094 -0.1615
C12 C 0.7473(5) -0.0675(7) -0.1321(3)
H9 H 0.7743 -0.0959 -0.1058
C13 C 1.0466(7) -0.1958(8) -0.5793(3)
H10 H 1.0068 -0.2239 -0.6022
C14 C 1.1422(8) -0.1769(8) -0.5871(3)
H11 H 1.1664 -0.1908 -0.6148
C15 C 1.2017(7) -0.1369(7) -0.5530(3)
H12 H 1.2673 -0.1251 -0.5571
C16 C 1.1633(6) -0.1149(6) -0.5133(3)
H13 H 1.2019 -0.0871 -0.4899
C17 C 1.0647(6) -0.1348(6) -0.5084(3)
C18 C 1.0162(5) -0.1121(6) -0.4668(2)
H14 H 1.0494 -0.0862 -0.4415
C19 C 0.7794(6) -0.1498(7) -0.4437(2)
C20 C 0.7087(6) -0.1427(7) -0.4079(3)
C21 C 0.7301(7) -0.0990(9) -0.3679(3)
H15 H 0.7907 -0.0680 -0.3620
C22 C 0.6623(7) -0.0997(10) -0.3352(3)
H16 H 0.6775 -0.0690 -0.3077
C23 C 0.5506(8) -0.1833(14) -0.3827(3)
H17 H 0.4887 -0.2114 -0.3881
C24 C 0.6154(8) -0.1826(14) -0.4155(4)
H18 H 0.5967 -0.2093 -0.4434
N1 N 0.8792(5) 0.3570(5) -0.0018(2)
N2 N 0.8053(5) 0.2752(5) -0.0744(2)
N3 N 0.7683(5) 0.2182(5) -0.1100(2)
H19 H 0.7433 0.2452 -0.1342
N4 N 0.6748(5) -0.0940(7) -0.2030(2)
N5 N 1.0081(5) -0.1764(5) -0.54125(19)
N6 N 0.9248(4) -0.1310(5) -0.46840(19)
N7 N 0.8691(5) -0.1183(5) -0.4324(2)
N8 N 0.5758(5) -0.1443(7) -0.3436(2)
O1 O 0.8155(4) 0.0745(4) -0.06582(16)
O2 O 0.6459(4) -0.1598(6) -0.23542(19)
O3 O 0.7477(4) -0.1819(5) -0.48152(17)
O4 O 0.5100(4) -0.1446(6) -0.3130(2)
C25 C 0.2885(10) -0.3428(13) -0.2157(5)
H20 H 0.2655 -0.3130 -0.2424
C26 C 0.2574(17) -0.4287(18) -0.1493(5)
H21 H 0.3264 -0.4192 -0.1457
H22 H 0.2420 -0.5035 -0.1468
H23 H 0.2260 -0.3892 -0.1268
C27 C 0.1276(16) -0.393(3) -0.2012(9)
H24 H 0.1125 -0.3649 -0.2303
H25 H 0.0955 -0.3516 -0.1796
H26 H 0.1057 -0.4665 -0.2000
C28 C 0.5550(14) -0.4580(18) -0.1826(8)
H27 H 0.5076 -0.4394 -0.1631
C29 C 0.663(2) -0.567(3) -0.1990(9)
H28 H 0.6639 -0.5201 -0.2240
H29 H 0.6676 -0.6403 -0.2088
H30 H 0.7161 -0.5512 -0.1786
C30 C 0.559(2) -0.602(3) -0.1383(9)
H31 H 0.4967 -0.5805 -0.1289
H32 H 0.6085 -0.5803 -0.1166
H33 H 0.5609 -0.6784 -0.1418
N9 N 0.2240(9) -0.3899(11) -0.1926(5)
N10 N 0.5763(11) -0.5539(15) -0.1781(7)
O5 O 0.3743(5) -0.3326(5) -0.2073(2)
O6 O 0.5758(5) -0.3828(6) -0.2038(3)
C1C C 0.0877(6) 0.3994(7) -0.5377(3)
H1C H 0.0614 0.3533 -0.5593
C2C C 0.0914(7) 0.5088(8) -0.5472(3)
H2C H 0.0672 0.5351 -0.5743
C3C C 0.1305(7) 0.5749(7) -0.5164(3)
H3C H 0.1350 0.6476 -0.5228
C4C C 0.1642(8) 0.5388(8) -0.4756(4)
H4C H 0.1907 0.5861 -0.4545
C5C C 0.1577(7) 0.4300(7) -0.4666(3)
C6C C 0.1960(7) 0.3795(7) -0.4258(3)
H5C H 0.2196 0.4192 -0.4015
C7C C 0.2226(5) 0.1147(7) -0.3987(2)
C8C C 0.2597(6) 0.0408(7) -0.3636(3)
C9C C 0.3055(9) 0.0783(9) -0.3253(3)
H6C H 0.3155 0.1517 -0.3219
C10C C 0.3366(9) 0.0107(9) -0.2921(3)
H7C H 0.3656 0.0381 -0.2661
C11C C 0.2836(6) -0.1357(7) -0.3351(3)
H8C H 0.2765 -0.2094 -0.3385
C12C C 0.2527(5) -0.0675(7) -0.3679(3)
H9C H 0.2257 -0.0959 -0.3942
N1C N 0.1208(5) 0.3570(5) -0.4982(2)
N2C N 0.1947(5) 0.2752(5) -0.4256(2)
N3C N 0.2317(5) 0.2182(5) -0.3900(2)
H19C H 0.2567 0.2452 -0.3658
N4C N 0.3252(5) -0.0940(7) -0.2970(2)
O1C O 0.1845(4) 0.0745(4) -0.43418(16)
O2C O 0.3541(4) -0.1598(6) -0.26458(19)
C13C C -0.0466(7) -0.1958(8) 0.0793(3)
H10C H -0.0068 -0.2239 0.1022
C14C C -0.1422(8) -0.1769(8) 0.0871(3)
H11C H -0.1664 -0.1908 0.1148
C15C C -0.2017(7) -0.1369(7) 0.0530(3)
H12C H -0.2673 -0.1251 0.0571
C16C C -0.1633(6) -0.1149(6) 0.0133(3)
H13C H -0.2019 -0.0871 -0.0101
C17C C -0.0647(6) -0.1348(6) 0.0084(3)
C18C C -0.0162(5) -0.1121(6) -0.0332(2)
H14C H -0.0494 -0.0862 -0.0585
C19C C 0.2206(6) -0.1498(7) -0.0563(2)
C20C C 0.2913(6) -0.1427(7) -0.0921(3)
C21C C 0.2699(7) -0.0990(9) -0.1321(3)
H15C H 0.2093 -0.0680 -0.1380
C22C C 0.3377(7) -0.0997(10) -0.1648(3)
H16C H 0.3225 -0.0690 -0.1923
C23C C 0.4494(8) -0.1833(14) -0.1173(3)
H17C H 0.5113 -0.2114 -0.1119
C24C C 0.3846(8) -0.1826(14) -0.0845(4)
H18C H 0.4033 -0.2093 -0.0566
N5C N -0.0081(5) -0.1764(5) 0.04125(19)
N6C N 0.0752(4) -0.1310(5) -0.03160(19)
N7C N 0.1309(5) -0.1183(5) -0.0676(2)
N8C N 0.4242(5) -0.1443(7) -0.1564(2)
O3C O 0.2523(4) -0.1819(5) -0.01848(17)
O4C O 0.4900(4) -0.1446(6) -0.1870(2)
C25C C 0.7115(10) -0.3428(13) -0.2843(5)
H20C H 0.7345 -0.3130 -0.2576
C26C C 0.7426(17) -0.4287(18) -0.3507(5)
H21C H 0.6736 -0.4192 -0.3543
H22C H 0.7580 -0.5035 -0.3532
H23C H 0.7740 -0.3892 -0.3732
C27C C 0.8724(16) -0.393(3) -0.2988(9)
H24C H 0.8875 -0.3649 -0.2697
H25C H 0.9045 -0.3516 -0.3204
H26C H 0.8943 -0.4665 -0.3000
N9C N 0.7760(9) -0.3899(11) -0.3074(5)
O5C O 0.6257(5) -0.3326(5) -0.2927(2)
C28C C 0.4450(14) -0.4580(18) -0.3174(8)
H27C H 0.4924 -0.4394 -0.3369
C29C C 0.337(2) -0.567(3) -0.3010(9)
H28C H 0.3361 -0.5201 -0.2760
H29C H 0.3324 -0.6403 -0.2912
H30C H 0.2839 -0.5512 -0.3214
C30C C 0.441(2) -0.602(3) -0.3617(9)
H31C H 0.5033 -0.5805 -0.3711
H32C H 0.3915 -0.5803 -0.3834
H33C H 0.4391 -0.6784 -0.3582
N10C N 0.4237(11) -0.5539(15) -0.3219(7)
O6C O 0.4242(5) -0.3828(6) -0.2962(3)
Ni1C Ni 0.13607(7) 0.19802(8) -0.47737(3)
N5A N 1.0081(5) 0.1764(5) -0.04125(19)
N6A N 0.9248(4) 0.1310(5) 0.03160(19)
O3A O 0.7477(4) 0.1819(5) 0.01848(17)
Ni1A Ni 0.86393(7) -0.19802(8) -0.52263(3)
Ni1B Ni 0.13607(7) -0.19802(8) 0.02263(3)
N5B N -0.0081(5) 0.1764(5) -0.45875(19)
N6B N 0.0752(4) 0.1310(5) -0.53160(19)
O3B O 0.2523(4) 0.1819(5) -0.51848(17)
Cl1 Cl 0.1136(3) 0.3575(3) 0.14055(12)
O7 O 0.1114(10) 0.3241(13) 0.1854(3)
O8 O 0.0884(12) 0.2759(8) 0.1099(4)
O9 O 0.2137(6) 0.3863(9) 0.1332(4)
O10 O 0.0573(8) 0.4516(9) 0.1315(4)
Cl2 Cl 1.3358(8) -0.7946(7) -0.1818(2)
O11 O 1.4081(17) -0.8260(18) -0.2097(8)
O12 O 1.3701(18) -0.813(2) -0.1372(5)
O13 O 1.2525(13) -0.8614(16) -0.1915(6)
O14 O 1.311(2) -0.6856(12) -0.1857(10)
C31 C 0.027(2) 0.071(3) 0.2080(10)
C32 C 0.082(3) 0.140(4) 0.2736(16)
C33 C 0.174(3) -0.004(3) 0.2532(15)
H35 H 0.1919 -0.0494 0.2293
H36 H 0.1520 -0.0472 0.2771
H37 H 0.2284 0.0382 0.2634
O15 O 0.003(2) 0.034(3) 0.1716(9)
N11 N 0.096(2) 0.066(3) 0.2377(9)
N12 N 0.5991(15) 0.920(2) -0.0231(7)
C34 C 0.5866(17) 1.011(2) -0.0297(8)
C35 C 0.552(2) 1.106(2) -0.0557(9)
H38 H 0.5583 1.1695 -0.0376
H39 H 0.4846 1.0965 -0.0649
H40 H 0.5896 1.1143 -0.0813
C36 C 0.617(2) 0.467(2) 0.0131(11)
H41 H 0.6043 0.4412 -0.0165
H42 H 0.5641 0.4468 0.0311
H43 H 0.6762 0.4371 0.0253
N13 N 0.6244(16) 0.581(2) 0.0124(7)
C37 C 0.644(2) 0.623(3) 0.0558(10)
H44 H 0.6490 0.6994 0.0542
H45 H 0.7037 0.5934 0.0680
H46 H 0.5919 0.6038 0.0744
C38 C 0.6130(19) 0.647(3) -0.0213(10)
H47 H 0.6174 0.7202 -0.0159
O16 O 0.5964(17) 0.615(2) -0.0600(8)
H34? H -0.0200 0.1188 0.2168
loop_
_geom_bond_atom_site_label_1
_geom_bond_atom_site_label_2
_geom_bond_site_symmetry_1
_geom_bond_site_symmetry_2
Tb1 O2 1_555 1_555
Ni1 N1 1_555 1_555
C1 H1 1_555 1_555
C2 C1 1_555 1_555
H2 C2 1_555 1_555
C3 C2 1_555 1_555
H3 C3 1_555 1_555
C4 C3 1_555 1_555
H4 C4 1_555 1_555
C5 C4 1_555 1_555
C6 C5 1_555 1_555
H5 C6 1_555 1_555
C7 C8 1_555 1_555
C8 C9 1_555 1_555
C9 H6 1_555 1_555
C10 C9 1_555 1_555
H7 C10 1_555 1_555
C11 H8 1_555 1_555
C12 C8 1_555 1_555
H9 C12 1_555 1_555
C13 H10 1_555 1_555
C14 C13 1_555 1_555
H11 C14 1_555 1_555
C15 C14 1_555 1_555
H12 C15 1_555 1_555
C16 C15 1_555 1_555
H13 C16 1_555 1_555
C17 C16 1_555 1_555
C18 C17 1_555 1_555
H14 C18 1_555 1_555
C19 C20 1_555 1_555
C20 C21 1_555 1_555
C21 H15 1_555 1_555
C22 C21 1_555 1_555
H16 C22 1_555 1_555
C23 H17 1_555 1_555
C24 C20 1_555 1_555
H18 C24 1_555 1_555
N1 C1 1_555 1_555
N2 Ni1 1_555 1_555
N3 C7 1_555 1_555
H19 N3 1_555 1_555
N4 C10 1_555 1_555
N5 C13 1_555 1_555
N6 C18 1_555 1_555
N7 C19 1_555 1_555
N8 C22 1_555 1_555
O1 Ni1 1_555 1_555
O2 N4 1_555 1_555
O3 C19 1_555 1_555
O4 Tb1 1_555 1_555
C25 H20 1_555 1_555
C26 H21 1_555 1_555
H22 C26 1_555 1_555
H23 C26 1_555 1_555
C27 H24 1_555 1_555
H25 C27 1_555 1_555
H26 C27 1_555 1_555
C28 H27 1_555 1_555
C29 H28 1_555 1_555
H29 C29 1_555 1_555
H30 C29 1_555 1_555
C30 H31 1_555 1_555
H32 C30 1_555 1_555
H33 C30 1_555 1_555
N9 C25 1_555 1_555
N10 C28 1_555 1_555
O5 Tb1 1_555 1_555
O6 Tb1 1_555 1_555
Cl1 O7 1_555 1_555
O8 Cl1 1_555 1_555
O9 Cl1 1_555 1_555
O10 Cl1 1_555 1_555
Cl2 O11 1_555 1_555
O12 Cl2 1_555 1_555
O13 Cl2 1_555 1_555
O14 Cl2 1_555 1_555
C31 O15 1_555 1_555
C32 N11 1_555 1_555
C33 H35 1_555 1_555
H36 C33 1_555 1_555
H37 C33 1_555 1_555
N11 C31 1_555 1_555
N12 C34 1_555 1_555
C34 C35 1_555 1_555
C35 H38 1_555 1_555
H39 C35 1_555 1_555
H40 C35 1_555 1_555
C36 H41 1_555 1_555
H42 C36 1_555 1_555
H43 C36 1_555 1_555
N13 C36 1_555 1_555
C37 N13 1_555 1_555
H44 C37 1_555 1_555
H45 C37 1_555 1_555
H46 C37 1_555 1_555
C38 N13 1_555 1_555
H47 C38 1_555 1_555
O16 C38 1_555 1_555
C1C H1C 1_555 1_555
C2C C1C 1_555 1_555
H2C C2C 1_555 1_555
C3C C2C 1_555 1_555
H3C C3C 1_555 1_555
C4C C3C 1_555 1_555
H4C C4C 1_555 1_555
C5C C4C 1_555 1_555
C6C C5C 1_555 1_555
H5C C6C 1_555 1_555
C7C C8C 1_555 1_555
C8C C9C 1_555 1_555
C9C H6C 1_555 1_555
C10C C9C 1_555 1_555
H7C C10C 1_555 1_555
C11C H8C 1_555 1_555
C12C C8C 1_555 1_555
H9C C12C 1_555 1_555
N1C C1C 1_555 1_555
N2C C6C 1_555 1_555
N3C C7C 1_555 1_555
H19C N3C 1_555 1_555
N4C C10C 1_555 1_555
O1C C7C 1_555 1_555
O2C Tb1 1_555 1_555
C13C H10C 1_555 1_555
C14C C13C 1_555 1_555
H11C C14C 1_555 1_555
C15C C14C 1_555 1_555
H12C C15C 1_555 1_555
C16C C15C 1_555 1_555
H13C C16C 1_555 1_555
C17C C16C 1_555 1_555
C18C C17C 1_555 1_555
H14C C18C 1_555 1_555
C19C C20C 1_555 1_555
C20C C21C 1_555 1_555
C21C H15C 1_555 1_555
C22C C21C 1_555 1_555
H16C C22C 1_555 1_555
C23C H17C 1_555 1_555
C24C C20C 1_555 1_555
H18C C24C 1_555 1_555
N5C C13C 1_555 1_555
N6C C18C 1_555 1_555
N7C C19C 1_555 1_555
N8C C22C 1_555 1_555
O3C C19C 1_555 1_555
O4C Tb1 1_555 1_555
C25C H20C 1_555 1_555
C26C H21C 1_555 1_555
H22C C26C 1_555 1_555
H23C C26C 1_555 1_555
C27C H24C 1_555 1_555
H25C C27C 1_555 1_555
H26C C27C 1_555 1_555
N9C C25C 1_555 1_555
O5C Tb1 1_555 1_555
C28C H27C 1_555 1_555
C29C H28C 1_555 1_555
H29C C29C 1_555 1_555
H30C C29C 1_555 1_555
C30C H31C 1_555 1_555
H32C C30C 1_555 1_555
H33C C30C 1_555 1_555
N10C C28C 1_555 1_555
O6C Tb1 1_555 1_555
Ni1C N1C 1_555 1_555
N5A Ni1 1_555 1_555
N6A Ni1 1_555 1_555
O3A Ni1 1_555 1_555
Ni1A N5 1_555 1_555
Ni1B N5C 1_555 1_555
N5B Ni1C 1_555 1_555
N6B Ni1C 1_555 1_555
O3B Ni1C 1_555 1_555
C5 N1 1_555 1_555
C6 N2 1_555 1_555
C7 O1 1_555 1_555
C11 N4 1_555 1_555
C11 C12 1_555 1_555
C17 N5 1_555 1_555
C23 N8 1_555 1_555
C23 C24 1_555 1_555
N2 N3 1_555 1_555
N6 N7 1_555 1_555
N6 Ni1A 1_555 1_555
N8 O4 1_555 1_555
O3 Ni1A 1_555 1_555
C25 O5 1_555 1_555
C26 N9 1_555 1_555
C27 N9 1_555 1_555
C28 O6 1_555 1_555
C29 N10 1_555 1_555
C30 N10 1_555 1_555
C33 N11 1_555 1_555
C5C N1C 1_555 1_555
C11C N4C 1_555 1_555
C11C C12C 1_555 1_555
N2C Ni1C 1_555 1_555
N2C N3C 1_555 1_555
N4C O2C 1_555 1_555
O1C Ni1C 1_555 1_555
C17C N5C 1_555 1_555
C23C N8C 1_555 1_555
C23C C24C 1_555 1_555
N6C N7C 1_555 1_555
N6C Ni1B 1_555 1_555
N8C O4C 1_555 1_555
O3C Ni1B 1_555 1_555
C25C O5C 1_555 1_555
C26C N9C 1_555 1_555
C27C N9C 1_555 1_555
C28C O6C 1_555 1_555
C29C N10C 1_555 1_555
C30C N10C 1_555 1_555

#END
