
#######################################################################
#
#                 Cambridge Crystallographic Data Centre
#                                CCDC 
#
#######################################################################
#
# If this CIF has been generated from an entry in the Cambridge 
# Structural Database, then it will include bibliographic, chemical, 
# crystal, experimental, refinement or atomic coordinate data resulting 
# from the CCDC's data processing and validation procedures.
#
#######################################################################

data_GUYVUR
_symmetry_cell_setting           triclinic
_symmetry_space_group_name_H-M   'P -1'
_symmetry_Int_Tables_number      2
_space_group_name_Hall           '-P 1'
loop_
_symmetry_equiv_pos_site_id
_symmetry_equiv_pos_as_xyz
1 x,y,z
2 -x,-y,-z
_cell_length_a                   12.6146(4)
_cell_length_b                   13.8847(5)
_cell_length_c                   30.3707(12)
_cell_angle_alpha                91.9936(18)
_cell_angle_beta                 91.837(2)
_cell_angle_gamma                91.4112(12)
_cell_volume                     5311.71
loop_
_atom_site_label
_atom_site_type_symbol
_atom_site_fract_x
_atom_site_fract_y
_atom_site_fract_z
Dy1 Dy 1.22887(6) 1.00696(4) 1.255332(18)
Ni1 Ni 1.20349(13) 0.63319(10) 1.52450(5)
Ni2 Ni 0.80857(13) 0.63411(11) 1.01902(5)
C1 C 1.2040(11) 0.4467(11) 1.5788(4)
H1 H 1.2359 0.4841 1.6018
C2 C 1.1828(13) 0.3488(11) 1.5850(5)
H2 H 1.1972 0.3218 1.6121
C3 C 1.1402(12) 0.2933(10) 1.5502(5)
H3 H 1.1289 0.2274 1.5530
C4 C 1.1139(11) 0.3363(9) 1.5107(5)
H4 H 1.0835 0.2999 1.4871
C5 C 1.1340(10) 0.4345(8) 1.5072(4)
C6 C 1.1075(10) 0.4855(9) 1.4686(4)
H5 H 1.0751 0.4554 1.4436
C7 C 1.1490(11) 0.7231(9) 1.4477(4)
C8 C 1.1348(12) 0.7983(9) 1.4125(4)
C9 C 1.0848(15) 0.7793(11) 1.3749(5)
H6 H 1.0523 0.7190 1.3696
C10 C 1.0792(17) 0.8497(11) 1.3418(5)
H7 H 1.0395 0.8377 1.3157
C11 C 1.1771(17) 0.9523(10) 1.3884(5)
H8 H 1.2063 1.0138 1.3943
C12 C 1.1814(15) 0.8876(10) 1.4190(5)
H9 H 1.2171 0.9030 1.4457
C13 C 0.6033(11) 1.4104(9) 1.5345(4)
H10 H 0.6528 1.4348 1.5556
C14 C 0.4957(14) 1.4077(10) 1.5439(5)
H11 H 0.4723 1.4288 1.5712
C15 C 0.4260(12) 1.3730(11) 1.5114(5)
H12 H 0.3539 1.3686 1.5170
C16 C 0.4607(13) 1.3445(11) 1.4708(5)
H13 H 0.4130 1.3248 1.4481
C17 C 0.5681(11) 1.3460(9) 1.4647(4)
C18 C 0.6131(12) 1.3131(10) 1.4236(4)
H14 H 0.5702 1.2942 1.3992
C19 C 0.8742(11) 1.2837(8) 1.3981(4)
C20 C 0.9446(12) 1.2458(8) 1.3635(4)
C21 C 0.9054(14) 1.1941(13) 1.3265(5)
H15 H 0.8326 1.1840 1.3226
C22 C 0.9704(15) 1.1581(14) 1.2961(6)
H16 H 0.9423 1.1211 1.2722
C23 C 1.1152(12) 1.2221(9) 1.3362(4)
H17 H 1.1883 1.2313 1.3395
C24 C 1.0546(12) 1.2554(8) 1.3674(4)
H18 H 1.0857 1.2860 1.3924
C25 C 0.6157(14) 0.5834(11) 0.9550(5)
H19 H 0.6633 0.5584 0.9351
C26 C 0.5032(16) 0.5871(12) 0.9433(6)
H20 H 0.4785 0.5685 0.9151
C27 C 0.4352(16) 0.6175(13) 0.9737(7)
H21 H 0.3629 0.6182 0.9669
C28 C 0.4726(15) 0.6468(12) 1.0138(6)
H22 H 0.4258 0.6689 1.0347
C29 C 0.5808(13) 0.6445(10) 1.0246(5)
C30 C 0.6229(14) 0.6809(12) 1.0656(5)
H23 H 0.5800 0.6999 1.0885
C31 C 0.8845(11) 0.7174(8) 1.0999(4)
C32 C 0.9484(14) 0.7569(9) 1.1377(4)
C33 C 1.0595(14) 0.7561(10) 1.1358(5)
H24 H 1.0919 0.7313 1.1109
C34 C 1.1207(14) 0.7937(10) 1.1722(5)
H25 H 1.1942 0.7944 1.1706
C35 C 0.977(2) 0.8279(12) 1.2102(5)
H26 H 0.9470 0.8534 1.2355
C36 C 0.9075(16) 0.7920(12) 1.1762(5)
H27 H 0.8346 0.7919 1.1797
C37 C 1.1873(12) 1.5480(11) 0.9241(5)
H28 H 1.2129 1.5095 0.9014
C38 C 1.1688(14) 1.6432(12) 0.9171(6)
H29 H 1.1788 1.6680 0.8894
C39 C 1.1363(12) 1.7006(11) 0.9501(5)
H30 H 1.1248 1.7654 0.9456
C40 C 1.1199(12) 1.6630(9) 0.9906(5)
H31 H 1.0988 1.7021 1.0141
C41 C 1.1358(11) 1.5639(9) 0.9959(4)
C42 C 1.1117(10) 1.5144(9) 1.0363(4)
H32 H 1.0877 1.5464 1.0614
C43 C 1.1401(11) 1.2799(9) 1.0584(4)
C44 C 1.1279(10) 1.2085(9) 1.0939(4)
C45 C 1.0891(12) 1.2313(10) 1.1337(4)
H33 H 1.0620 1.2922 1.1389
C46 C 1.0891(15) 1.1652(11) 1.1670(4)
H34 H 1.0655 1.1834 1.1947
C47 C 1.1591(14) 1.0493(10) 1.1206(4)
H35 H 1.1823 0.9868 1.1159
C48 C 1.1626(14) 1.1147(10) 1.0870(5)
H36 H 1.1882 1.0958 1.0597
C49 C 1.3309(15) 1.2184(11) 1.2262(6)
H37 H 1.3185 1.2368 1.2553
C50 C 1.399(2) 1.2578(17) 1.1567(7)
H38 H 1.3721 1.1942 1.1486
H39 H 1.4748 1.2599 1.1543
H40 H 1.3682 1.3034 1.1373
C51 C 1.406(3) 1.3775(18) 1.2173(9)
H41 H 1.3835 1.3868 1.2471
H42 H 1.3740 1.4248 1.1991
H43 H 1.4816 1.3841 1.2167
C52 C 1.3346(19) 0.8028(14) 1.2873(6)
H44 H 1.3144 0.7838 1.2585
C53 C 1.415(3) 0.765(3) 1.3546(8)
H45 H 1.3944 0.8293 1.3621
H46 H 1.4912 0.7614 1.3574
H47 H 1.3832 0.7207 1.3741
C54 C 1.406(3) 0.6423(19) 1.2922(10)
H48 H 1.3771 0.6346 1.2626
H49 H 1.3749 0.5943 1.3102
H50 H 1.4815 0.6349 1.2920
C55 C 1.427(3) 1.071(2) 1.3267(11)
H51 H 1.3961 1.0427 1.3506
C56 C 1.583(2) 1.0657(19) 1.3715(10)
H52 H 1.5436 1.0475 1.3966
H53 H 1.6217 1.1249 1.3784
H54 H 1.6315 1.0160 1.3641
C57 C 1.574(6) 1.114(9) 1.2966(16)
H55 H 1.5256 1.1229 1.2723
H56 H 1.6250 1.0664 1.2883
H57 H 1.6107 1.1734 1.3047
C58 C 1.407(3) 0.937(3) 1.1873(10)
H58 H 1.3734 0.9568 1.1615
C59 C 1.548(6) 0.837(7) 1.207(2)
H59 H 1.5049 0.8253 1.2312
H60 H 1.6192 0.8543 1.2169
H61 H 1.5498 0.7794 1.1880
C60 C 1.579(4) 0.940(4) 1.1410(16)
H62 H 1.5477 0.9873 1.1228
H63 H 1.5882 0.8815 1.1237
H64 H 1.6466 0.9633 1.1527
N1 N 1.1804(8) 0.4871(7) 1.5418(3)
N2 N 1.1316(8) 0.5761(7) 1.4707(3)
N3 N 1.1121(9) 0.6353(7) 1.4357(3)
N4 N 1.1310(11) 0.9304(8) 1.3491(4)
N5 N 0.6338(10) 1.3800(8) 1.4975(4)
N6 N 0.7150(10) 1.3113(8) 1.4225(3)
N7 N 0.7695(9) 1.2749(7) 1.3880(3)
N8 N 1.0747(11) 1.1752(7) 1.3000(3)
N9 N 0.6480(10) 0.6156(8) 0.9938(4)
N10 N 0.7281(10) 0.6860(8) 1.0692(4)
N11 N 0.7811(11) 0.7214(8) 1.1065(3)
N12 N 1.0789(13) 0.8280(8) 1.2087(4)
N13 N 1.1697(8) 1.5100(7) 0.9624(3)
N14 N 1.1262(8) 1.4248(7) 1.0343(3)
N15 N 1.1135(8) 1.3656(7) 1.0699(3)
N16 N 1.1222(11) 1.0770(8) 1.1598(3)
N17 N 1.513(2) 1.0784(14) 1.3359(9)
N18 N 1.3819(16) 0.7405(13) 1.3104(6)
N19 N 1.5033(19) 0.9178(15) 1.1804(8)
N20 N 1.3725(14) 1.2816(11) 1.2008(5)
O1 O 1.1885(8) 0.7521(6) 1.4848(2)
O2 O 1.1292(10) 0.9959(7) 1.3183(3)
O3 O 0.9155(7) 1.3218(6) 1.4334(3)
O4 O 1.1354(9) 1.1475(6) 1.2677(3)
O5 O 0.9251(7) 0.6849(6) 1.0660(2)
O6 O 1.1340(10) 0.8613(7) 1.2425(3)
O7 O 1.1709(7) 1.2502(6) 1.0215(3)
O8 O 1.1225(9) 1.0123(6) 1.1908(3)
O9 O 1.3068(8) 1.1344(7) 1.2132(3)
O10 O 1.3138(8) 0.8836(8) 1.2991(3)
O11 O 1.3593(11) 1.0813(8) 1.3022(4)
O12 O 1.3579(12) 0.9364(9) 1.2109(5)
N5A N 1.3662(10) 0.6200(8) 1.5025(4)
N6A N 1.2850(10) 0.6887(8) 1.5775(3)
O3A O 1.0845(7) 0.6782(6) 1.5666(3)
N13A N 0.8303(8) 0.4900(7) 1.0376(3)
N14A N 0.8738(8) 0.5752(7) 0.9657(3)
O7A O 0.8291(7) 0.7498(6) 0.9785(3)
Ni1A Ni 0.79651(13) 1.36681(10) 1.47550(5)
Ni2A Ni 1.19143(13) 1.36589(11) 0.98098(5)
Cl1 Cl 1.6612(5) 1.6029(4) 0.63946(16)
O13 O 1.6190(12) 1.6976(9) 0.6420(5)
O14 O 1.7346(11) 1.5968(13) 0.6053(4)
O15 O 1.5793(12) 1.5359(10) 0.6303(4)
O16 O 1.7123(15) 1.5911(12) 0.6810(4)
Cl2 Cl 0.6467(5) 0.3668(4) 0.85993(18)
O17 O 0.5684(19) 0.4357(16) 0.8646(7)
O18 O 0.6784(14) 0.3514(14) 0.8170(4)
O19 O 0.600(2) 0.2765(16) 0.8737(8)
O20 O 0.7321(13) 0.3879(19) 0.8895(6)
Cl3 Cl 1.2125(10) 1.1328(9) 1.6800(3)
O21 O 1.184(3) 1.109(3) 1.6345(6)
O22 O 1.190(2) 1.0547(17) 1.7056(10)
O23 O 1.144(2) 1.2119(16) 1.6916(10)
O24 O 1.3168(15) 1.166(2) 1.6820(12)
C61 C 1.277(3) 0.825(2) 0.8146(10)
H65 H 1.3156 0.7765 0.8017
C62 C 1.218(3) 0.886(2) 0.7884(8)
H66 H 1.2178 0.8778 0.7578
C63 C 1.160(2) 0.959(2) 0.8077(12)
H67 H 1.1206 0.9994 0.7902
C64 C 1.160(2) 0.971(2) 0.8534(12)
H68 H 1.1211 1.0197 0.8663
C65 C 1.219(2) 0.910(2) 0.8796(8)
H69 H 1.2190 0.9184 0.9102
C66 C 1.277(2) 0.8374(18) 0.8603(9)
H70 H 1.3162 0.7968 0.8778
C67 C 0.8561(17) 1.551(2) 1.7932(9)
H71 H 0.7829 1.5411 1.7912
C68 C 0.905(2) 1.6188(18) 1.7674(8)
H72 H 0.8639 1.6544 1.7480
C69 C 1.014(2) 1.6335(18) 1.7704(9)
H73 H 1.0465 1.6789 1.7531
C70 C 1.0749(17) 1.580(2) 1.7992(10)
H74 H 1.1481 1.5902 1.8012
C71 C 1.026(2) 1.5125(18) 1.8250(8)
H75 H 1.0671 1.4769 1.8443
C72 C 0.917(2) 1.4978(17) 1.8220(8)
H76 H 0.8845 1.4524 1.8393
N21 N 0.887(2) 1.0537(18) 1.4413(8)
C73 C 1.0693(17) 1.1035(14) 1.4714(6)
H77 H 1.0783 1.1700 1.4808
H78 H 1.1160 1.0895 1.4478
H79 H 1.0857 1.0634 1.4957
C83 C 0.983(2) 1.0886(17) 1.4593(8)
C74 C 1.379(4) 1.157(4) 1.5627(16)
H80 H 1.4392 1.1586 1.5831
H81 H 1.3267 1.1117 1.5721
H82 H 1.3498 1.2199 1.5617
C77 C 1.529(2) 1.117(2) 1.5121(9)
H86 H 1.5474 1.0998 1.4825
H87 H 1.5530 1.0690 1.5317
H88 H 1.5622 1.1783 1.5207
N23 N 1.417(2) 1.1244(17) 1.5142(8)
O25 O 1.397(3) 1.095(2) 1.4358(11)
C80 C 1.348(3) 1.114(2) 1.4745(11)
H92 H 1.2748 1.1197 1.4757
C75 C 0.347(3) 0.488(3) 0.8226(11)
N22 N 0.350(3) 0.572(3) 0.8376(11)
C76 C 0.357(3) 0.385(3) 0.8054(12)
H83 H 0.3044 0.3714 0.7825
H84 H 0.3470 0.3421 0.8290
H85 H 0.4265 0.3770 0.7940
C78 C 0.964(3) 1.501(2) 1.6559(9)
H89 H 1.0324 1.5108 1.6438
H90 H 0.9398 1.5607 1.6683
H91 H 0.9145 1.4778 1.6329
C79 C 0.971(3) 1.425(2) 1.6925(11)
N24 N 0.891(4) 1.386(3) 1.7166(14)
N25 N 0.911(4) 0.952(3) 1.0365(15)
C81 C 1.025(4) 0.913(3) 1.0250(14)
C82 C 1.104(4) 0.921(3) 1.0057(14)
H93 H 1.1515 0.8715 1.0139
H94 H 1.1370 0.9832 1.0127
H95 H 1.0880 0.9155 0.9746
loop_
_geom_bond_atom_site_label_1
_geom_bond_atom_site_label_2
_geom_bond_site_symmetry_1
_geom_bond_site_symmetry_2
Dy1 O2 1_555 1_555
Ni1 N1 1_555 1_555
Ni2 N9 1_555 1_555
C1 H1 1_555 1_555
C2 C1 1_555 1_555
H2 C2 1_555 1_555
C3 C2 1_555 1_555
H3 C3 1_555 1_555
C4 C3 1_555 1_555
H4 C4 1_555 1_555
C5 C4 1_555 1_555
C6 C5 1_555 1_555
H5 C6 1_555 1_555
C7 C8 1_555 1_555
C8 C9 1_555 1_555
C9 H6 1_555 1_555
C10 C9 1_555 1_555
H7 C10 1_555 1_555
C11 H8 1_555 1_555
C12 C8 1_555 1_555
H9 C12 1_555 1_555
C13 H10 1_555 1_555
C14 C13 1_555 1_555
H11 C14 1_555 1_555
C15 C14 1_555 1_555
H12 C15 1_555 1_555
C16 C15 1_555 1_555
H13 C16 1_555 1_555
C17 C16 1_555 1_555
C18 C17 1_555 1_555
H14 C18 1_555 1_555
C19 C20 1_555 1_555
C20 C21 1_555 1_555
C21 H15 1_555 1_555
C22 C21 1_555 1_555
H16 C22 1_555 1_555
C23 H17 1_555 1_555
C24 C20 1_555 1_555
H18 C24 1_555 1_555
C25 H19 1_555 1_555
C26 C25 1_555 1_555
H20 C26 1_555 1_555
C27 C26 1_555 1_555
H21 C27 1_555 1_555
C28 C27 1_555 1_555
H22 C28 1_555 1_555
C29 C28 1_555 1_555
C30 C29 1_555 1_555
H23 C30 1_555 1_555
C31 C32 1_555 1_555
C32 C33 1_555 1_555
C33 H24 1_555 1_555
C34 C33 1_555 1_555
H25 C34 1_555 1_555
C35 H26 1_555 1_555
C36 C32 1_555 1_555
H27 C36 1_555 1_555
C37 H28 1_555 1_555
C38 C37 1_555 1_555
H29 C38 1_555 1_555
C39 C38 1_555 1_555
H30 C39 1_555 1_555
C40 C39 1_555 1_555
H31 C40 1_555 1_555
C41 C40 1_555 1_555
C42 C41 1_555 1_555
H32 C42 1_555 1_555
C43 C44 1_555 1_555
C44 C45 1_555 1_555
C45 H33 1_555 1_555
C46 C45 1_555 1_555
H34 C46 1_555 1_555
C47 H35 1_555 1_555
C48 C44 1_555 1_555
H36 C48 1_555 1_555
C49 H37 1_555 1_555
C50 H38 1_555 1_555
H39 C50 1_555 1_555
H40 C50 1_555 1_555
C51 H41 1_555 1_555
H42 C51 1_555 1_555
H43 C51 1_555 1_555
C52 H44 1_555 1_555
C53 H45 1_555 1_555
H46 C53 1_555 1_555
H47 C53 1_555 1_555
C54 H48 1_555 1_555
H49 C54 1_555 1_555
H50 C54 1_555 1_555
C55 H51 1_555 1_555
C56 H52 1_555 1_555
H53 C56 1_555 1_555
H54 C56 1_555 1_555
C57 H55 1_555 1_555
H56 C57 1_555 1_555
H57 C57 1_555 1_555
C58 H58 1_555 1_555
C59 H59 1_555 1_555
H60 C59 1_555 1_555
H61 C59 1_555 1_555
C60 H62 1_555 1_555
H63 C60 1_555 1_555
H64 C60 1_555 1_555
N1 C1 1_555 1_555
N2 Ni1 1_555 1_555
N3 C7 1_555 1_555
N4 C10 1_555 1_555
N5 C13 1_555 1_555
N6 C18 1_555 1_555
N7 C19 1_555 1_555
N8 C22 1_555 1_555
N9 C25 1_555 1_555
N10 Ni2 1_555 1_555
N11 C31 1_555 1_555
N12 C34 1_555 1_555
N13 C37 1_555 1_555
N14 C42 1_555 1_555
N15 C43 1_555 1_555
N16 C46 1_555 1_555
N17 C55 1_555 1_555
N18 C52 1_555 1_555
N19 C58 1_555 1_555
N20 C49 1_555 1_555
O1 Ni1 1_555 1_555
O2 N4 1_555 1_555
O3 C19 1_555 1_555
O4 Dy1 1_555 1_555
O5 Ni2 1_555 1_555
O6 Dy1 1_555 1_555
O7 C43 1_555 1_555
O8 Dy1 1_555 1_555
O9 Dy1 1_555 1_555
O10 Dy1 1_555 1_555
O11 Dy1 1_555 1_555
O12 Dy1 1_555 1_555
Cl1 O13 1_555 1_555
O14 Cl1 1_555 1_555
O15 Cl1 1_555 1_555
O16 Cl1 1_555 1_555
Cl2 O17 1_555 1_555
O18 Cl2 1_555 1_555
O19 Cl2 1_555 1_555
O20 Cl2 1_555 1_555
Cl3 O21 1_555 1_555
O22 Cl3 1_555 1_555
O23 Cl3 1_555 1_555
O24 Cl3 1_555 1_555
C61 H65 1_555 1_555
C62 C61 1_555 1_555
H66 C62 1_555 1_555
C63 C62 1_555 1_555
H67 C63 1_555 1_555
C64 C63 1_555 1_555
H68 C64 1_555 1_555
C65 C64 1_555 1_555
H69 C65 1_555 1_555
C66 C61 1_555 1_555
H70 C66 1_555 1_555
C67 H71 1_555 1_555
C68 C67 1_555 1_555
H72 C68 1_555 1_555
C69 C68 1_555 1_555
H73 C69 1_555 1_555
C70 C69 1_555 1_555
H74 C70 1_555 1_555
C71 C70 1_555 1_555
H75 C71 1_555 1_555
C72 C67 1_555 1_555
H76 C72 1_555 1_555
N21 C83 1_555 1_555
C73 H77 1_555 1_555
H78 C73 1_555 1_555
H79 C73 1_555 1_555
C74 H80 1_555 1_555
H81 C74 1_555 1_555
H82 C74 1_555 1_555
C75 N22 1_555 1_555
C76 C75 1_555 1_555
H83 C76 1_555 1_555
H84 C76 1_555 1_555
H85 C76 1_555 1_555
C77 H86 1_555 1_555
H87 C77 1_555 1_555
H88 C77 1_555 1_555
N23 C74 1_555 1_555
C78 H89 1_555 1_555
H90 C78 1_555 1_555
H91 C78 1_555 1_555
O25 C80 1_555 1_555
C79 C78 1_555 1_555
C80 N23 1_555 1_555
H92 C80 1_555 1_555
N24 C79 1_555 1_555
N25 C81 1_555 1_555
C81 C82 1_555 1_555
C82 H93 1_555 1_555
H94 C82 1_555 1_555
H95 C82 1_555 1_555
C83 C73 1_555 1_555
N5A Ni1 1_555 1_555
N6A Ni1 1_555 1_555
O3A Ni1 1_555 1_555
N13A Ni2 1_555 1_555
N14A Ni2 1_555 1_555
O7A Ni2 1_555 1_555
Ni1A N5 1_555 1_555
Ni2A N13 1_555 1_555
C5 N1 1_555 1_555
C6 N2 1_555 1_555
C7 O1 1_555 1_555
C11 N4 1_555 1_555
C11 C12 1_555 1_555
C17 N5 1_555 1_555
C23 N8 1_555 1_555
C23 C24 1_555 1_555
C29 N9 1_555 1_555
C30 N10 1_555 1_555
C31 O5 1_555 1_555
C35 N12 1_555 1_555
C35 C36 1_555 1_555
C41 N13 1_555 1_555
C47 N16 1_555 1_555
C47 C48 1_555 1_555
C49 O9 1_555 1_555
C50 N20 1_555 1_555
C51 N20 1_555 1_555
C52 O10 1_555 1_555
C53 N18 1_555 1_555
C54 N18 1_555 1_555
C55 O11 1_555 1_555
C56 N17 1_555 1_555
C57 N17 1_555 1_555
C58 O12 1_555 1_555
C59 N19 1_555 1_555
C60 N19 1_555 1_555
N2 N3 1_555 1_555
N6 N7 1_555 1_555
N6 Ni1A 1_555 1_555
N8 O4 1_555 1_555
N10 N11 1_555 1_555
N12 O6 1_555 1_555
N14 N15 1_555 1_555
N14 Ni2A 1_555 1_555
N16 O8 1_555 1_555
O3 Ni1A 1_555 1_555
O7 Ni2A 1_555 1_555
C65 C66 1_555 1_555
C71 C72 1_555 1_555
C77 N23 1_555 1_555

#END
