
#######################################################################
#
#                 Cambridge Crystallographic Data Centre
#                                CCDC 
#
#######################################################################
#
# If this CIF has been generated from an entry in the Cambridge 
# Structural Database, then it will include bibliographic, chemical, 
# crystal, experimental, refinement or atomic coordinate data resulting 
# from the CCDC's data processing and validation procedures.
#
#######################################################################

data_GUYYII
_symmetry_cell_setting           monoclinic
_symmetry_space_group_name_H-M   'P 21/c'
_symmetry_Int_Tables_number      14
_space_group_name_Hall           '-P 2ybc'
loop_
_symmetry_equiv_pos_site_id
_symmetry_equiv_pos_as_xyz
1 x,y,z
2 -x,1/2+y,1/2-z
3 -x,-y,-z
4 x,1/2-y,1/2+z
_cell_length_a                   7.8597(1)
_cell_length_b                   18.8154(3)
_cell_length_c                   23.4377(4)
_cell_angle_alpha                90
_cell_angle_beta                 92.0288(9)
_cell_angle_gamma                90
_cell_volume                     3463.87
loop_
_atom_site_label
_atom_site_type_symbol
_atom_site_fract_x
_atom_site_fract_y
_atom_site_fract_z
Ni1 Ni 0.185(1) 0.3704(4) 0.0969(3)
Ni2 Ni 0.4699(7) 0.2793(4) 0.0655(2)
Ni3 Ni 0.632(1) 0.6697(3) 0.2894(3)
Ni4 Ni 0.354(1) 0.3683(3) 0.2176(3)
Ni5 Ni 0.3820(7) 0.7704(4) 0.3305(2)
Ni6 Ni 0.202(1) 0.1724(3) 0.0928(3)
Ni7 Ni 0.488(1) 0.5169(3) 0.2579(3)
O1 O 0.284(3) 0.140(1) 0.012(1)
O2 O 0.502(3) 0.217(1) -0.006(1)
O3 O 0.273(4) 0.132(1) -0.2004(9)
O4 O 0.399(3) 0.032(1) -0.168(1)
O5 O 0.387(2) 0.614(1) 0.270(1)
O6 O 0.223(4) 0.6938(9) 0.295(1)
O7 O 0.155(4) 0.478(1) 0.1266(8)
O8 O 0.281(3) 0.476(1) 0.2131(8)
O9 O 0.408(3) 0.4532(9) -0.181(1)
O10 O 0.294(4) 0.352(1) -0.2112(8)
O11 O 0.506(2) 0.368(1) 0.009(1)
O12 O 0.260(3) 0.418(1) 0.022(1)
O13 O 0.681(3) 0.560(1) 0.3079(9)
O14 O 0.829(4) 0.567(1) 0.3887(8)
O15 O 0.582(2) 0.415(1) 0.253(1)
O16 O 0.782(3) 0.351(1) 0.217(1)
O17 O 0.210(3) 0.278(2) 0.0610(9)
O18 O 0.539(3) 0.771(1) 0.2673(9)
O19 O -0.043(4) 0.171(1) 0.057(1)
O20 O -0.063(4) 0.387(1) 0.079(1)
O21 O 0.444(4) 0.355(1) 0.135(1)
O22 O 0.442(4) 0.187(1) 0.129(1)
O23 O 0.855(4) 0.695(1) 0.324(1)
O24 O 0.716(3) 0.276(1) 0.092(1)
O25 O 0.129(4) 0.332(1) 0.178(1)
C1 C 0.401(4) 0.163(1) -0.018(1)
C2 C 0.430(2) 0.123(2) -0.073(1)
C3 C 0.265(2) 0.097(2) -0.1007(7)
C4 C 0.306(5) 0.086(1) -0.1622(6)
C5 C 0.240(2) 0.638(1) 0.267(2)
C6 C 0.094(3) 0.597(2) 0.2414(7)
C7 C 0.139(5) 0.582(1) 0.1800(7)
C8 C 0.199(5) 0.507(1) 0.1732(9)
C9 C 0.332(5) 0.396(1) -0.1718(5)
C10 C 0.310(5) 0.377(1) -0.1100(5)
C11 C 0.393(5) 0.429(1) -0.0693(6)
C12 C 0.380(3) 0.402(2) -0.0094(8)
C13 C 0.786(4) 0.5325(9) 0.344(1)
C14 C 0.833(6) 0.4544(9) 0.3402(8)
C15 C 0.879(3) 0.436(2) 0.2810(8)
C16 C 0.739(2) 0.403(2) 0.246(1)
O10B O 0.706(4) 0.648(1) 0.2112(8)
O22A O 0.558(4) 0.687(1) 0.371(1)
O3C O 0.273(4) 0.368(1) 0.2996(9)
O18A O 0.461(3) 0.271(1) 0.2327(9)
O16A O 0.218(3) 0.851(1) 0.283(1)
O21A O 0.556(4) 0.855(1) 0.365(1)
O24A O 0.284(3) 0.776(1) 0.408(1)
O14A O 0.171(4) 0.067(1) 0.1113(8)
O23A O 0.145(4) 0.195(1) 0.176(1)
O4C O 0.399(3) 0.468(1) 0.332(1)
O9B O 0.592(3) 0.5468(9) 0.181(1)
Ni4C Ni 0.354(1) 0.1317(3) -0.2824(3)
Ni7C Ni 0.488(1) -0.0169(3) -0.2421(3)
Ni7B Ni 0.512(1) 0.4831(3) -0.2579(3)
Ni3B Ni 0.368(1) 0.3303(3) -0.2894(3)
Ni6A Ni 0.798(1) 0.6724(3) 0.4072(3)
Ni5A Ni 0.6180(7) 0.2704(4) 0.1695(2)
Ni4A Ni 0.646(1) 0.8683(3) 0.2824(3)
Ni3A Ni 0.368(1) 0.1697(3) 0.2106(3)
O26 O 0.701(4) 0.256(2) 0.338(1)
O27 O 1.024(3) 0.242(2) -0.053(1)
O28 O 0.657(4) 1.079(2) 0.085(1)
O29 O 1.058(3) 0.236(2) -0.169(1)
O30 O 0.772(4) 0.022(1) -0.016(1)
O31 O 0.717(4) 0.188(1) 0.432(1)
O32 O 0.921(4) 0.075(2) 0.476(1)
loop_
_geom_bond_atom_site_label_1
_geom_bond_atom_site_label_2
_geom_bond_site_symmetry_1
_geom_bond_site_symmetry_2
Ni1 O7 1_555 1_555
Ni2 O2 1_555 1_555
Ni3 O5 1_555 1_555
Ni4 O8 1_555 1_555
Ni5 O6 1_555 1_555
Ni6 O1 1_555 1_555
Ni7 O5 1_555 1_555
O1 C1 1_555 1_555
O2 C1 1_555 1_555
O3 C4 1_555 1_555
O4 C4 1_555 1_555
O5 C5 1_555 1_555
O6 C5 1_555 1_555
O7 C8 1_555 1_555
O8 Ni7 1_555 1_555
O9 C9 1_555 1_555
O10 C9 1_555 1_555
O11 Ni2 1_555 1_555
O12 Ni1 1_555 1_555
O13 Ni3 1_555 1_555
O14 C13 1_555 1_555
O15 Ni4 1_555 1_555
O16 C16 1_555 1_555
O17 Ni1 1_555 1_555
O18 Ni3 1_555 1_555
O19 Ni6 1_555 1_555
O20 Ni1 1_555 1_555
O21 Ni1 1_555 1_555
O22 Ni2 1_555 1_555
O23 Ni3 1_555 1_555
O24 Ni2 1_555 1_555
O25 Ni1 1_555 1_555
C1 C2 1_555 1_555
C2 C3 1_555 1_555
C3 C4 1_555 1_555
C5 C6 1_555 1_555
C6 C7 1_555 1_555
C7 C8 1_555 1_555
C8 O8 1_555 1_555
C9 C10 1_555 1_555
C10 C11 1_555 1_555
C11 C12 1_555 1_555
C12 O11 1_555 1_555
C13 O13 1_555 1_555
C14 C13 1_555 1_555
C15 C14 1_555 1_555
C16 O15 1_555 1_555
O10B Ni3 1_555 1_555
O22A Ni3 1_555 1_555
O3C Ni4 1_555 1_555
O18A Ni4 1_555 1_555
O16A Ni5 1_555 1_555
O21A Ni5 1_555 1_555
O24A Ni5 1_555 1_555
O14A Ni6 1_555 1_555
O23A Ni6 1_555 1_555
O4C Ni7 1_555 1_555
O9B Ni7 1_555 1_555
Ni4C O3 1_555 1_555
Ni7C O4 1_555 1_555
Ni7B O9 1_555 1_555
Ni3B O10 1_555 1_555
Ni6A O14 1_555 1_555
Ni5A O16 1_555 1_555
Ni4A O18 1_555 1_555
Ni3A O22 1_555 1_555
Ni2 O17 1_555 1_555
Ni2 O21 1_555 1_555
Ni4 O21 1_555 1_555
Ni4 O25 1_555 1_555
Ni5 O18 1_555 1_555
Ni5 O22A 1_555 1_555
Ni6 O17 1_555 1_555
Ni6 O22 1_555 1_555
Ni7 O13 1_555 1_555
Ni7 O15 1_555 1_555
O12 C12 1_555 1_555
O21 Ni5A 1_555 1_555
O22 Ni5A 1_555 1_555
O23 Ni6A 1_555 1_555
O24 Ni5A 1_555 1_555
C15 C16 1_555 1_555
O22A Ni6A 1_555 1_555
O18A Ni5A 1_555 1_555
O18A Ni3A 1_555 1_555
O21A Ni4A 1_555 1_555
O23A Ni3A 1_555 1_555

#END
