
#######################################################################
#
#                 Cambridge Crystallographic Data Centre
#                                CCDC 
#
#######################################################################
#
# If this CIF has been generated from an entry in the Cambridge 
# Structural Database, then it will include bibliographic, chemical, 
# crystal, experimental, refinement or atomic coordinate data resulting 
# from the CCDC's data processing and validation procedures.
#
#######################################################################

data_GUZBOS
_symmetry_cell_setting           monoclinic
_symmetry_space_group_name_H-M   'C 2/c'
_symmetry_Int_Tables_number      15
_space_group_name_Hall           '-C 2yn'
loop_
_symmetry_equiv_pos_site_id
_symmetry_equiv_pos_as_xyz
1 x,y,z
2 -x,y,1/2-z
3 1/2+x,1/2+y,z
4 1/2-x,1/2+y,1/2-z
5 -x,-y,-z
6 x,-y,1/2+z
7 1/2-x,1/2-y,-z
8 1/2+x,1/2-y,1/2+z
_cell_length_a                   17.806(2)
_cell_length_b                   3.6806(6)
_cell_length_c                   14.807(3)
_cell_angle_alpha                90
_cell_angle_beta                 94.78(1)
_cell_angle_gamma                90
_cell_volume                     967.028
loop_
_atom_site_label
_atom_site_type_symbol
_atom_site_fract_x
_atom_site_fract_y
_atom_site_fract_z
Co1 Co 0.0000 0.952(5) 0.2500
Cl1 Cl -0.0624(5) 0.467(3) 0.1547(6)
N1 N 0.0939(5) 0.958(3) 0.1681(6)
S1 S 0.1653(9) 0.913(8) 0.0324(9)
C1 C 0.0847(8) 0.873(3) 0.0787(9)
C2 C 0.2183(8) 1.044(4) 0.1264(9)
C3 C 0.1665(7) 1.058(4) 0.1953(8)
H1 H 0.038(2) 0.770(6) 0.046(2)
H2 H 0.275(2) 1.110(6) 0.127(2)
H3 H 0.176(2) 1.129(6) 0.264(2)
Cl1_2 Cl -0.0624(5) 1.467(3) 0.1547(6)
N1A N -0.0939(5) 0.958(3) 0.3319(6)
S1A S -0.1653(9) 0.913(8) 0.4676(9)
C1A C -0.0847(8) 0.873(3) 0.4213(9)
C2A C -0.2183(8) 1.044(4) 0.3736(9)
C3A C -0.1665(7) 1.058(4) 0.3047(8)
H1A H -0.038(2) 0.770(6) 0.454(2)
H2A H -0.275(2) 1.110(6) 0.373(2)
H3A H -0.176(2) 1.129(6) 0.236(2)
Cl1A Cl 0.0624(5) 0.467(3) 0.3453(6)
Cl1A_2 Cl 0.0624(5) 1.467(3) 0.3453(6)
Co1_2 Co 0.0000 -0.048(5) 0.2500
Co1_3 Co 0.0000 1.952(5) 0.2500
loop_
_geom_bond_atom_site_label_1
_geom_bond_atom_site_label_2
_geom_bond_site_symmetry_1
_geom_bond_site_symmetry_2
Co1 Cl1 1_555 1_555
Cl1 Co1_2 1_555 1_555
N1 Co1 1_555 1_555
S1 C1 1_555 1_555
C1 N1 1_555 1_555
C2 S1 1_555 1_555
C3 N1 1_555 1_555
H1 C1 1_555 1_555
H2 C2 1_555 1_555
H3 C3 1_555 1_555
Cl1_2 Co1 1_555 1_555
N1A Co1 1_555 1_555
S1A C1A 1_555 1_555
C1A N1A 1_555 1_555
C2A S1A 1_555 1_555
C3A N1A 1_555 1_555
H1A C1A 1_555 1_555
H2A C2A 1_555 1_555
H3A C3A 1_555 1_555
Cl1A Co1 1_555 1_555
Cl1A_2 Co1 1_555 1_555
Co1_2 Cl1A 1_555 1_555
Co1_3 Cl1_2 1_555 1_555
C2 C3 1_555 1_555
C2A C3A 1_555 1_555
Cl1A_2 Co1_3 1_555 1_555

#END
