
#######################################################################
#
#                 Cambridge Crystallographic Data Centre
#                                CCDC 
#
#######################################################################
#
# If this CIF has been generated from an entry in the Cambridge 
# Structural Database, then it will include bibliographic, chemical, 
# crystal, experimental, refinement or atomic coordinate data resulting 
# from the CCDC's data processing and validation procedures.
#
#######################################################################

data_GUZYAB
_symmetry_cell_setting           triclinic
_symmetry_space_group_name_H-M   'P -1'
_symmetry_Int_Tables_number      2
_space_group_name_Hall           '-P 1'
loop_
_symmetry_equiv_pos_site_id
_symmetry_equiv_pos_as_xyz
1 x,y,z
2 -x,-y,-z
_cell_length_a                   9.985(2)
_cell_length_b                   10.378(3)
_cell_length_c                   11.942(3)
_cell_angle_alpha                90.238(5)
_cell_angle_beta                 106.810(5)
_cell_angle_gamma                111.346(4)
_cell_volume                     1095
loop_
_atom_site_label
_atom_site_type_symbol
_atom_site_fract_x
_atom_site_fract_y
_atom_site_fract_z
Co1 Co 0.02839(10) 0.58569(9) 0.88900(8)
Co2 Co 0.47778(11) 0.93956(10) 1.12339(9)
Co3 Co -0.10927(11) 0.84039(10) 0.98060(9)
P1 P -0.1435(2) 0.25761(18) 0.83656(17)
P2 P 0.1906(2) 0.92822(18) 0.88715(16)
O1 O 0.0846(5) 0.9631(5) 0.9421(4)
O2 O -0.1506(5) 0.6441(5) 0.8834(5)
O3 O 0.4364(6) 0.7455(6) 1.0314(6)
O4 O 0.3558(5) 0.9909(5) 0.9674(4)
O5 O -0.1031(5) 0.3813(5) 0.9289(4)
O6 O 0.2009(6) 0.5131(6) 0.8879(5)
O7 O 0.4729(6) 0.8689(6) 0.7895(5)
N1 N 0.3241(7) 1.0467(6) 0.7218(5)
N2 N -0.1176(6) 0.4868(6) 0.7139(5)
O8 O 0.1411(5) 0.7746(5) 0.8472(4)
O9 O -0.0310(6) 0.1875(5) 0.8664(4)
O10 O -0.3060(6) 0.1570(5) 0.8093(4)
O11 O -0.3991(6) 0.5252(6) 0.8310(6)
C1 C -0.1214(9) 0.3407(7) 0.7042(6)
H1 H -0.0264 0.3433 0.6923
H2 H -0.2066 0.2845 0.6346
C2 C -0.2746(8) 0.5560(8) 0.8140(7)
C3 C -0.0685(9) 0.5604(8) 0.6173(7)
H3 H -0.0997 0.4943 0.5460
H4 H 0.0427 0.6112 0.6422
C4 C -0.2707(8) 0.4880(8) 0.7027(7)
H5 H -0.3479 0.3903 0.6833
C5 C 0.3796(10) 0.8353(9) 0.6845(8)
O12 O 0.3514(9) 0.7304(7) 0.6175(6)
C6 C 0.3539(10) 1.1717(9) 0.6554(8)
H6 H 0.2594 1.1869 0.6178
H7 H 0.4287 1.2568 0.7084
C7 C 0.1942(8) 1.0293(8) 0.7646(6)
H8 H 0.0990 0.9828 0.6991
H9 H 0.1985 1.1224 0.7890
C8 C -0.1501(10) 0.6614(9) 0.5949(8)
H10 H -0.0997 0.7429 0.6565
H11 H -0.1550 0.6943 0.5167
C9 C -0.3063(10) 0.5723(10) 0.6002(8)
H12 H -0.3690 0.5103 0.5255
H13 H -0.3592 0.6306 0.6171
C10 C 0.4143(12) 1.1356(10) 0.5659(9)
H14 H 0.5201 1.1435 0.6013
H15 H 0.4093 1.1954 0.5016
C11 C 0.2880(10) 0.9246(9) 0.6364(7)
H16 H 0.1786 0.8646 0.6200
C12 C 0.3073(14) 0.9848(11) 0.5220(8)
H17 H 0.3522 0.9353 0.4822
H18 H 0.2092 0.9792 0.4670
O13 O -0.2320(6) 0.8858(5) 0.8188(5)
O14 O -0.3096(6) 0.7152(6) 1.0141(5)
O5A O 0.1031(5) 0.6187(5) 1.0711(4)
O4A O 0.6442(5) 1.0091(5) 1.0326(4)
O7A O 0.5271(6) 1.1311(6) 1.2105(5)
N1A N 0.6759(7) 0.9533(6) 1.2782(5)
O10A O 0.3060(6) 0.8430(5) 1.1907(4)
O1A O -0.0846(5) 1.0369(5) 1.0579(4)
O9A O 0.0310(6) 0.8125(5) 1.1336(4)
Co3A Co 0.10927(11) 1.15961(10) 1.01940(9)
Co2A Co 0.52222(11) 1.06044(10) 0.87661(9)
Co1A Co -0.02839(10) 0.41431(9) 1.11100(8)
Co3A_2 Co 0.10927(11) 0.15961(10) 1.01940(9)
Co2A_2 Co -0.47778(11) 0.06044(10) 0.87661(9)
O15 O 0.3036(7) 0.4902(7) 0.7123(6)
loop_
_geom_bond_atom_site_label_1
_geom_bond_atom_site_label_2
_geom_bond_site_symmetry_1
_geom_bond_site_symmetry_2
Co1 O2 1_555 1_555
Co2 O3 1_555 1_555
Co3 O1 1_555 1_555
P1 O5 1_555 1_555
P2 O1 1_555 1_555
O1 Co3A 1_555 1_555
O2 Co3 1_555 1_555
O4 Co2 1_555 1_555
O5 Co1 1_555 1_555
O6 Co1 1_555 1_555
O7 C5 1_555 1_555
N1 C6 1_555 1_555
N2 Co1 1_555 1_555
O8 Co1 1_555 1_555
O9 P1 1_555 1_555
O10 P1 1_555 1_555
O11 C2 1_555 1_555
C1 P1 1_555 1_555
H1 C1 1_555 1_555
H2 C1 1_555 1_555
C2 O2 1_555 1_555
C3 N2 1_555 1_555
H3 C3 1_555 1_555
H4 C3 1_555 1_555
C4 N2 1_555 1_555
H5 C4 1_555 1_555
C5 O12 1_555 1_555
C6 H6 1_555 1_555
H7 C6 1_555 1_555
C7 P2 1_555 1_555
H8 C7 1_555 1_555
H9 C7 1_555 1_555
C8 C3 1_555 1_555
H10 C8 1_555 1_555
H11 C8 1_555 1_555
C9 C4 1_555 1_555
H12 C9 1_555 1_555
H13 C9 1_555 1_555
C10 C6 1_555 1_555
H14 C10 1_555 1_555
H15 C10 1_555 1_555
C11 N1 1_555 1_555
H16 C11 1_555 1_555
C12 C10 1_555 1_555
H17 C12 1_555 1_555
H18 C12 1_555 1_555
O13 Co3 1_555 1_555
O14 Co3 1_555 1_555
O5A Co1 1_555 1_555
O4A Co2 1_555 1_555
O7A Co2 1_555 1_555
N1A Co2 1_555 1_555
O10A Co2 1_555 1_555
O1A Co3 1_555 1_555
O9A Co3 1_555 1_555
Co3A O1A 1_555 1_555
Co2A O4 1_555 1_555
Co1A O5 1_555 1_555
Co3A_2 O9 1_555 1_555
Co2A_2 O10 1_555 1_555
P2 O4 1_555 1_555
P2 O8 1_555 1_555
O7 Co2A 1_555 1_555
N1 C7 1_555 1_555
N1 Co2A 1_555 1_555
N2 C1 1_555 1_555
C2 C4 1_555 1_555
C5 C11 1_555 1_555
C8 C9 1_555 1_555
C11 C12 1_555 1_555
O5A Co1A 1_555 1_555
O4A Co2A 1_555 1_555

#END
