
#######################################################################
#
#                 Cambridge Crystallographic Data Centre
#                                CCDC 
#
#######################################################################
#
# If this CIF has been generated from an entry in the Cambridge 
# Structural Database, then it will include bibliographic, chemical, 
# crystal, experimental, refinement or atomic coordinate data resulting 
# from the CCDC's data processing and validation procedures.
#
#######################################################################

data_GUZYOP01
_symmetry_cell_setting           orthorhombic
_symmetry_space_group_name_H-M   'P n n a'
_symmetry_Int_Tables_number      52
_space_group_name_Hall           '-P 2a 2bc'
loop_
_symmetry_equiv_pos_site_id
_symmetry_equiv_pos_as_xyz
1 x,y,z
2 1/2-x,-y,z
3 1/2-x,1/2+y,1/2-z
4 x,1/2-y,1/2-z
5 -x,-y,-z
6 1/2+x,y,-z
7 1/2+x,1/2-y,1/2+z
8 -x,1/2+y,1/2+z
_cell_length_a                   14.7259(19)
_cell_length_b                   10.9095(14)
_cell_length_c                   9.0947(12)
_cell_angle_alpha                90
_cell_angle_beta                 90
_cell_angle_gamma                90
_cell_volume                     1461.08
loop_
_atom_site_label
_atom_site_type_symbol
_atom_site_fract_x
_atom_site_fract_y
_atom_site_fract_z
O1 O -0.07323(14) -0.1948(2) 0.1101(2)
C1 C -0.0041(2) -0.1295(3) 0.1420(3)
Cu1 Cu 0.33443(3) -0.2500 -0.2500
N1 N 0.23129(16) -0.2001(3) -0.1215(3)
C2 C 0.0789(2) -0.1540(3) 0.0487(3)
C3 C 0.1645(2) -0.1303(3) 0.1022(4)
H1 H 0.1721 -0.0976 0.1959
C4 C 0.2392(2) -0.1555(3) 0.0147(4)
H2 H 0.2970 -0.1409 0.0521
C5 C 0.0707(2) -0.2054(3) -0.0916(3)
H3 H 0.0139 -0.2261 -0.1287
C6 C 0.1475(2) -0.2248(3) -0.1737(4)
O2 O 0.33486(18) -0.4435(3) -0.1097(3)
O3 O 0.00107(16) -0.0521(3) 0.2402(3)
H6 H 0.346(2) -0.456(4) -0.018(2)
H7 H 0.383(2) -0.457(5) -0.157(4)
O1C O -0.07323(14) -0.3052(2) -0.6101(2)
O1E O 0.42677(14) -0.1948(2) -0.1101(2)
O1F O 0.42677(14) -0.3052(2) -0.3899(2)
C1C C -0.0041(2) -0.3705(3) -0.6420(3)
Cu1E Cu -0.16557(3) -0.2500 0.2500
Cu1E_2 Cu -0.16557(3) -0.2500 -0.7500
N1C N 0.23129(16) -0.2999(3) -0.3785(3)
C2C C 0.0789(2) -0.3460(3) -0.5487(3)
C3C C 0.1645(2) -0.3697(3) -0.6022(4)
H1C H 0.1721 -0.4024 -0.6959
C4C C 0.2392(2) -0.3445(3) -0.5147(4)
H2C H 0.2970 -0.3591 -0.5521
C5C C 0.0707(2) -0.2946(3) -0.4084(3)
H3C H 0.0139 -0.2739 -0.3713
C6C C 0.1475(2) -0.2752(3) -0.3263(4)
O2C O 0.33486(18) -0.0565(3) -0.3903(3)
O3C O 0.00107(16) -0.4479(3) -0.7402(3)
H6C H 0.346(2) -0.044(4) -0.482(2)
H7C H 0.383(2) -0.043(5) -0.343(4)
O4 O 0.6296(2) -0.8697(3) 0.6888(4)
H4 H 0.602(3) -0.933(3) 0.723(4)
H5 H 0.618(5) -0.869(6) 0.596(3)
loop_
_geom_bond_atom_site_label_1
_geom_bond_atom_site_label_2
_geom_bond_site_symmetry_1
_geom_bond_site_symmetry_2
O1 C1 1_555 1_555
C1 C2 1_555 1_555
Cu1 N1 1_555 1_555
N1 C4 1_555 1_555
C2 C3 1_555 1_555
C3 H1 1_555 1_555
C4 C3 1_555 1_555
H2 C4 1_555 1_555
C5 C2 1_555 1_555
H3 C5 1_555 1_555
C6 N1 1_555 1_555
O2 Cu1 1_555 1_555
O3 C1 1_555 1_555
O4 H4 1_555 1_555
H5 O4 1_555 1_555
H6 O2 1_555 1_555
H7 O2 1_555 1_555
O1C C1C 1_555 1_555
O1E Cu1 1_555 1_555
O1F Cu1 1_555 1_555
C1C C2C 1_555 1_555
Cu1E O1 1_555 1_555
Cu1E_2 O1C 1_555 1_555
N1C Cu1 1_555 1_555
C2C C3C 1_555 1_555
C3C H1C 1_555 1_555
C4C N1C 1_555 1_555
H2C C4C 1_555 1_555
C5C C2C 1_555 1_555
H3C C5C 1_555 1_555
C6C C6 1_555 1_555
O2C Cu1 1_555 1_555
O3C C1C 1_555 1_555
H6C O2C 1_555 1_555
H7C O2C 1_555 1_555
C5 C6 1_555 1_555
N1C C6C 1_555 1_555
C3C C4C 1_555 1_555
C5C C6C 1_555 1_555

#END
