
#######################################################################
#
#                 Cambridge Crystallographic Data Centre
#                                CCDC 
#
#######################################################################
#
# If this CIF has been generated from an entry in the Cambridge 
# Structural Database, then it will include bibliographic, chemical, 
# crystal, experimental, refinement or atomic coordinate data resulting 
# from the CCDC's data processing and validation procedures.
#
#######################################################################

data_HABBIV
_symmetry_cell_setting           monoclinic
_symmetry_space_group_name_H-M   'P 21'
_symmetry_Int_Tables_number      4
_space_group_name_Hall           'P 2yb'
loop_
_symmetry_equiv_pos_site_id
_symmetry_equiv_pos_as_xyz
1 x,y,z
2 -x,1/2+y,-z
_cell_length_a                   8.294(1)
_cell_length_b                   10.981(3)
_cell_length_c                   11.934(3)
_cell_angle_alpha                90
_cell_angle_beta                 107.04(2)
_cell_angle_gamma                90
_cell_volume                     1039.19
loop_
_atom_site_label
_atom_site_type_symbol
_atom_site_fract_x
_atom_site_fract_y
_atom_site_fract_z
Er1 Er 0.0989(1) 0.5000 0.5870(1)
O1 O -0.1722(7) 0.5299(5) 0.4473(5)
O2 O 0.0381(6) 0.3344(5) 0.4610(4)
O3 O 0.1476(7) 0.6552(5) 0.4637(5)
O4 O 0.1110(9) 0.2583(8) 0.8244(7)
O5 O 0.3550(7) 0.4598(5) 0.5374(5)
O6 O 0.2434(7) 0.3488(5) 0.7096(5)
O7 O 0.0294(6) 0.1694(5) 0.3531(4)
O8 O -0.0849(8) 0.4111(6) 0.6780(6)
O9 O 0.3056(7) 0.6023(5) 0.7315(5)
N1 N 0.2123(8) 0.2663(6) 0.2234(6)
N2 N 0.5243(9) 0.2231(7) 0.7836(6)
C1 C 0.0643(9) 0.2788(6) 0.3772(6)
C2 C 0.1378(10) 0.3511(7) 0.2933(7)
C3 C 0.1061(12) 0.2689(13) 0.1008(8)
C4 C 0.0300(16) 0.3911(12) 0.0841(9)
C5 C 0.0007(13) 0.4202(9) 0.2013(9)
C6 C 0.2338(10) 0.2724(7) 0.7845(7)
C7 C 0.3784(10) 0.1864(8) 0.8294(7)
C8 C 0.6765(11) 0.1600(10) 0.8577(9)
C9 C 0.6372(14) 0.1344(17) 0.9716(10)
C10 C 0.4651(13) 0.1836(12) 0.9604(8)
H1 H 0.2173 0.1852 0.2543
H2 H 0.3239 0.2931 0.2273
H3 H 0.5023 0.1999 0.7029
H4 H 0.5398 0.3097 0.7907
H5 H 0.2218 0.4042 0.3415
H6 H 0.1726 0.2556 0.0482
H7 H 0.0202 0.2075 0.0883
H8 H 0.1064 0.4490 0.0672
H9 H -0.0735 0.3906 0.0212
H10 H 0.0103 0.5061 0.2164
H11 H -0.1093 0.3929 0.2014
H12 H 0.3299 0.1090 0.8003
H13 H 0.6960 0.0853 0.8219
H14 H 0.7742 0.2112 0.8716
H15 H 0.7191 0.1718 1.0365
H16 H 0.6349 0.0482 0.9848
H17 H 0.4026 0.1337 0.9990
H18 H 0.4740 0.2647 0.9917
O7A O -0.0294(6) 0.6694(5) 0.6469(4)
Er1A Er -0.0989(1) 0.0000 0.4130(1)
Cl1 Cl 0.6671(2) 0.4925(3) 0.8136(2)
Cl2 Cl 0.4612(2) 0.1911(2) 0.5099(2)
Cl3 Cl 0.5741(3) 0.3731(2) 0.2523(2)
loop_
_geom_bond_atom_site_label_1
_geom_bond_atom_site_label_2
_geom_bond_site_symmetry_1
_geom_bond_site_symmetry_2
Er1 O1 1_555 1_555
O2 Er1 1_555 1_555
O3 Er1 1_555 1_555
O4 C6 1_555 1_555
O5 Er1 1_555 1_555
O6 Er1 1_555 1_555
O7 C1 1_555 1_555
O8 Er1 1_555 1_555
O9 Er1 1_555 1_555
N1 C2 1_555 1_555
N2 C7 1_555 1_555
C1 O2 1_555 1_555
C2 C1 1_555 1_555
C3 N1 1_555 1_555
C4 C3 1_555 1_555
C5 C2 1_555 1_555
C6 O6 1_555 1_555
C7 C6 1_555 1_555
C8 N2 1_555 1_555
C9 C8 1_555 1_555
C10 C7 1_555 1_555
H1 N1 1_555 1_555
H2 N1 1_555 1_555
H3 N2 1_555 1_555
H4 N2 1_555 1_555
H5 C2 1_555 1_555
H6 C3 1_555 1_555
H7 C3 1_555 1_555
H8 C4 1_555 1_555
H9 C4 1_555 1_555
H10 C5 1_555 1_555
H11 C5 1_555 1_555
H12 C7 1_555 1_555
H13 C8 1_555 1_555
H14 C8 1_555 1_555
H15 C9 1_555 1_555
H16 C9 1_555 1_555
H17 C10 1_555 1_555
H18 C10 1_555 1_555
O7A Er1 1_555 1_555
Er1A O7 1_555 1_555
C4 C5 1_555 1_555
C9 C10 1_555 1_555

#END
