
#######################################################################
#
#                 Cambridge Crystallographic Data Centre
#                                CCDC 
#
#######################################################################
#
# If this CIF has been generated from an entry in the Cambridge 
# Structural Database, then it will include bibliographic, chemical, 
# crystal, experimental, refinement or atomic coordinate data resulting 
# from the CCDC's data processing and validation procedures.
#
#######################################################################

data_HABCOE
_symmetry_cell_setting           orthorhombic
_symmetry_space_group_name_H-M   'P b c a'
_symmetry_Int_Tables_number      61
_space_group_name_Hall           '-P 2ac 2ab'
loop_
_symmetry_equiv_pos_site_id
_symmetry_equiv_pos_as_xyz
1 x,y,z
2 1/2-x,-y,1/2+z
3 -x,1/2+y,1/2-z
4 1/2+x,1/2-y,-z
5 -x,-y,-z
6 1/2+x,y,1/2-z
7 x,1/2-y,1/2+z
8 1/2-x,1/2+y,z
_cell_length_a                   13.6296(10)
_cell_length_b                   17.3749(12)
_cell_length_c                   19.6733(14)
_cell_angle_alpha                90
_cell_angle_beta                 90
_cell_angle_gamma                90
_cell_volume                     4658.89
loop_
_atom_site_label
_atom_site_type_symbol
_atom_site_fract_x
_atom_site_fract_y
_atom_site_fract_z
Mo1 Mo 0.42314(3) 0.08557(3) 0.51117(2)
Mo2 Mo 0.44488(3) -0.06060(3) 0.65980(3)
Mo3 Mo 0.63190(3) 0.06264(3) 0.63307(3)
Mo4 Mo 0.69404(3) 0.11096(3) 0.47342(3)
Cu1 Cu 0.41133(5) 0.05116(4) 0.82947(5)
O1 O 0.4717(3) 0.0599(2) 0.59256(19)
O2 O 0.5203(3) 0.1077(2) 0.45324(19)
O3 O 0.3553(3) 0.0067(2) 0.47773(18)
O4 O 0.3476(3) 0.1625(2) 0.5191(2)
O5 O 0.3281(2) -0.0535(2) 0.60903(19)
O6 O 0.5803(3) -0.0371(2) 0.65476(19)
O7 O 0.4105(3) -0.0086(2) 0.7303(2)
O8 O 0.4470(3) -0.1522(2) 0.6865(2)
O9 O 0.7534(3) 0.0438(2) 0.6483(2)
O10 O 0.6443(2) 0.13540(19) 0.56240(18)
O11 O 0.5968(3) 0.1182(2) 0.6986(2)
O12 O 0.8116(3) 0.0846(2) 0.4900(2)
O13 O 0.7018(3) 0.2010(2) 0.4420(2)
O14 O 0.4583(4) 0.1370(4) 0.9068(3)
N1 N 0.3731(3) 0.1515(3) 0.7855(3)
N2 N 0.4325(3) -0.0511(3) 0.8754(3)
N3 N 0.5761(5) 0.0356(3) 0.8257(3)
H1 H 0.6011 0.0565 0.7870
C1 C 0.3632(5) 0.2128(4) 0.8264(3)
C2 C 0.3170(5) 0.2785(4) 0.8036(5)
H2 H 0.3117 0.3212 0.8318
C3 C 0.2788(5) 0.2803(5) 0.7391(5)
H3 H 0.2454 0.3236 0.7236
C4 C 0.2906(5) 0.2179(5) 0.6982(5)
H4 H 0.2664 0.2186 0.6540
C5 C 0.3371(5) 0.1551(4) 0.7217(4)
H5 H 0.3448 0.1129 0.6931
C6 C 0.5949(5) -0.0438(4) 0.8280(3)
H6 H 0.5980 -0.0637 0.7819
H7 H 0.6582 -0.0525 0.8492
C7 C 0.5171(4) -0.0870(3) 0.8669(3)
C8 C 0.5331(5) -0.1605(4) 0.8901(3)
H8 H 0.5936 -0.1843 0.8837
C9 C 0.4584(5) -0.1985(4) 0.9230(4)
H9 H 0.4673 -0.2487 0.9382
C10 C 0.3711(5) -0.1618(4) 0.9329(4)
H10 H 0.3196 -0.1865 0.9549
C11 C 0.3608(5) -0.0881(4) 0.9100(4)
H11 H 0.3023 -0.0623 0.9185
C12 C 0.6129(6) 0.0765(5) 0.8856(4)
H12 H 0.6005 0.0465 0.9263
H13 H 0.6831 0.0846 0.8817
C13 C 0.5619(6) 0.1510(6) 0.8900(4)
H14 H 0.5920 0.1827 0.9249
H15 H 0.5667 0.1779 0.8470
C14 C 0.3999(6) 0.2050(5) 0.8967(4)
H16 H 0.3445 0.2037 0.9276
H17 H 0.4391 0.2499 0.9079
Mo1D Mo 0.57686(3) -0.08557(3) 0.48883(2)
Mo2D Mo 0.55512(3) 0.06060(3) 0.34020(3)
Mo3D Mo 0.36810(3) -0.06264(3) 0.36693(3)
Mo4D Mo 0.30596(3) -0.11096(3) 0.52658(3)
Cu1D Cu 0.58867(5) -0.05116(4) 0.17053(5)
Cu1E Cu 0.91133(5) 0.05116(4) 0.67053(5)
Cu1A Cu 0.08867(5) -0.05116(4) 0.32947(5)
O1D O 0.5283(3) -0.0599(2) 0.40744(19)
O2D O 0.4797(3) -0.1077(2) 0.54676(19)
O3D O 0.6447(3) -0.0067(2) 0.52227(18)
O4D O 0.6524(3) -0.1625(2) 0.4809(2)
O5D O 0.6719(2) 0.0535(2) 0.39097(19)
O6D O 0.4197(3) 0.0371(2) 0.34524(19)
O7D O 0.5895(3) 0.0086(2) 0.2697(2)
O8D O 0.5530(3) 0.1522(2) 0.3135(2)
O9D O 0.2466(3) -0.0438(2) 0.3517(2)
O9E O 0.2534(3) 0.0438(2) 0.8517(2)
O9A O 0.7466(3) -0.0438(2) 0.1483(2)
O10D O 0.3557(2) -0.13540(19) 0.43760(18)
O11D O 0.4032(3) -0.1182(2) 0.3014(2)
O12D O 0.1884(3) -0.0846(2) 0.5100(2)
O13D O 0.2982(3) -0.2010(2) 0.5580(2)
O14D O 0.5417(4) -0.1370(4) 0.0932(3)
N1D N 0.6269(3) -0.1515(3) 0.2145(3)
N2D N 0.5675(3) 0.0511(3) 0.1246(3)
N3D N 0.4239(5) -0.0356(3) 0.1743(3)
H1D H 0.3989 -0.0565 0.2130
C1D C 0.6368(5) -0.2128(4) 0.1736(3)
C2D C 0.6830(5) -0.2785(4) 0.1964(5)
H2D H 0.6883 -0.3212 0.1682
C3D C 0.7212(5) -0.2803(5) 0.2609(5)
H3D H 0.7546 -0.3236 0.2764
C4D C 0.7094(5) -0.2179(5) 0.3018(5)
H4D H 0.7336 -0.2186 0.3460
C5D C 0.6629(5) -0.1551(4) 0.2783(4)
H5D H 0.6552 -0.1129 0.3069
C6D C 0.4051(5) 0.0438(4) 0.1720(3)
H6D H 0.4020 0.0637 0.2181
H7D H 0.3418 0.0525 0.1508
C7D C 0.4829(4) 0.0870(3) 0.1331(3)
C8D C 0.4669(5) 0.1605(4) 0.1099(3)
H8D H 0.4064 0.1843 0.1163
C9D C 0.5416(5) 0.1985(4) 0.0770(4)
H9D H 0.5327 0.2487 0.0618
C10D C 0.6289(5) 0.1618(4) 0.0671(4)
H10D H 0.6804 0.1865 0.0451
C11D C 0.6392(5) 0.0881(4) 0.0900(4)
H11D H 0.6977 0.0623 0.0815
C12D C 0.3871(6) -0.0765(5) 0.1144(4)
H12D H 0.3995 -0.0465 0.0737
H13D H 0.3169 -0.0846 0.1183
C13D C 0.4381(6) -0.1510(6) 0.1100(4)
H14D H 0.4080 -0.1827 0.0751
H15D H 0.4333 -0.1779 0.1530
C14D C 0.6001(6) -0.2050(5) 0.1033(4)
H16D H 0.6555 -0.2037 0.0724
H17D H 0.5609 -0.2499 0.0921
loop_
_geom_bond_atom_site_label_1
_geom_bond_atom_site_label_2
_geom_bond_site_symmetry_1
_geom_bond_site_symmetry_2
Mo1 O1 1_555 1_555
Mo2 O1 1_555 1_555
Mo3 O1 1_555 1_555
Mo4 O2 1_555 1_555
Cu1 O7 1_555 1_555
O2 Mo1 1_555 1_555
O3 Mo1 1_555 1_555
O4 Mo1 1_555 1_555
O5 Mo2 1_555 1_555
O6 Mo2 1_555 1_555
O7 Mo2 1_555 1_555
O8 Mo2 1_555 1_555
O9 Mo3 1_555 1_555
O10 Mo3 1_555 1_555
O11 Mo3 1_555 1_555
O12 Mo4 1_555 1_555
O13 Mo4 1_555 1_555
O14 Cu1 1_555 1_555
N1 Cu1 1_555 1_555
N2 Cu1 1_555 1_555
N3 Cu1 1_555 1_555
H1 N3 1_555 1_555
C1 N1 1_555 1_555
C2 C1 1_555 1_555
H2 C2 1_555 1_555
C3 C2 1_555 1_555
H3 C3 1_555 1_555
C4 C3 1_555 1_555
H4 C4 1_555 1_555
C5 N1 1_555 1_555
H5 C5 1_555 1_555
C6 N3 1_555 1_555
H6 C6 1_555 1_555
H7 C6 1_555 1_555
C7 N2 1_555 1_555
C8 C7 1_555 1_555
H8 C8 1_555 1_555
C9 C8 1_555 1_555
H9 C9 1_555 1_555
C10 C9 1_555 1_555
H10 C10 1_555 1_555
C11 N2 1_555 1_555
H11 C11 1_555 1_555
C12 N3 1_555 1_555
H12 C12 1_555 1_555
H13 C12 1_555 1_555
C13 O14 1_555 1_555
H14 C13 1_555 1_555
H15 C13 1_555 1_555
C14 O14 1_555 1_555
H16 C14 1_555 1_555
H17 C14 1_555 1_555
Mo1D O1D 1_555 1_555
Mo2D O2 1_555 1_555
Mo3D O3 1_555 1_555
Mo4D O3 1_555 1_555
Cu1D O7D 1_555 1_555
Cu1E O9 1_555 1_555
Cu1A O9D 1_555 1_555
O1D Mo2D 1_555 1_555
O2D Mo2 1_555 1_555
O3D Mo3 1_555 1_555
O4D Mo1D 1_555 1_555
O5D Mo4 1_555 1_555
O6D Mo2D 1_555 1_555
O7D Mo2D 1_555 1_555
O8D Mo2D 1_555 1_555
O9D Mo3D 1_555 1_555
O9E Cu1 1_555 1_555
O9A Cu1D 1_555 1_555
O10D Mo3D 1_555 1_555
O11D Mo3D 1_555 1_555
O12D Mo4D 1_555 1_555
O13D Mo4D 1_555 1_555
O14D Cu1D 1_555 1_555
N1D Cu1D 1_555 1_555
N2D Cu1D 1_555 1_555
N3D Cu1D 1_555 1_555
H1D N3D 1_555 1_555
C1D N1D 1_555 1_555
C2D C1D 1_555 1_555
H2D C2D 1_555 1_555
C3D C2D 1_555 1_555
H3D C3D 1_555 1_555
C4D C3D 1_555 1_555
H4D C4D 1_555 1_555
C5D N1D 1_555 1_555
H5D C5D 1_555 1_555
C6D N3D 1_555 1_555
H6D C6D 1_555 1_555
H7D C6D 1_555 1_555
C7D N2D 1_555 1_555
C8D C7D 1_555 1_555
H8D C8D 1_555 1_555
C9D C8D 1_555 1_555
H9D C9D 1_555 1_555
C10D C9D 1_555 1_555
H10D C10D 1_555 1_555
C11D N2D 1_555 1_555
H11D C11D 1_555 1_555
C12D N3D 1_555 1_555
H12D C12D 1_555 1_555
H13D C12D 1_555 1_555
C13D O14D 1_555 1_555
H14D C13D 1_555 1_555
H15D C13D 1_555 1_555
C14D O14D 1_555 1_555
H16D C14D 1_555 1_555
H17D C14D 1_555 1_555
Mo3 O6 1_555 1_555
Mo4 O10 1_555 1_555
Mo4 O3D 1_555 1_555
O5 Mo4D 1_555 1_555
C1 C14 1_555 1_555
C4 C5 1_555 1_555
C6 C7 1_555 1_555
C10 C11 1_555 1_555
C12 C13 1_555 1_555
Mo1D O2D 1_555 1_555
Mo1D O3D 1_555 1_555
Mo2D O5D 1_555 1_555
Mo3D O1D 1_555 1_555
Mo3D O6D 1_555 1_555
Mo4D O2D 1_555 1_555
Mo4D O10D 1_555 1_555
C1D C14D 1_555 1_555
C4D C5D 1_555 1_555
C6D C7D 1_555 1_555
C10D C11D 1_555 1_555
C12D C13D 1_555 1_555

#END
