
#######################################################################
#
#                 Cambridge Crystallographic Data Centre
#                                CCDC 
#
#######################################################################
#
# If this CIF has been generated from an entry in the Cambridge 
# Structural Database, then it will include bibliographic, chemical, 
# crystal, experimental, refinement or atomic coordinate data resulting 
# from the CCDC's data processing and validation procedures.
#
#######################################################################

data_HABDEU
_symmetry_cell_setting           orthorhombic
_symmetry_space_group_name_H-M   'P n c 2'
_symmetry_Int_Tables_number      30
_space_group_name_Hall           'P 2 -2bc'
loop_
_symmetry_equiv_pos_site_id
_symmetry_equiv_pos_as_xyz
1 x,y,z
2 -x,-y,z
3 -x,1/2+y,1/2+z
4 x,1/2-y,1/2+z
_cell_length_a                   8.2870(10)
_cell_length_b                   6.9562(8)
_cell_length_c                   13.4369(15)
_cell_angle_alpha                90
_cell_angle_beta                 90
_cell_angle_gamma                90
_cell_volume                     774.584
loop_
_atom_site_label
_atom_site_type_symbol
_atom_site_fract_x
_atom_site_fract_y
_atom_site_fract_z
Zn1 Zn 0.5000 0.5000 0.26047(6)
S1 S 1.0000 0.0000 -0.02006(9)
N1 N 0.6552(3) 0.3420(3) 0.1747(2)
O1 O 0.4074(3) 0.3262(3) 0.36187(19)
O2 O 0.2832(3) 0.2097(4) 0.2321(2)
C1 C 0.6047(4) 0.2415(4) 0.0967(2)
C2 C 0.7049(4) 0.1318(4) 0.0380(2)
C3 C 0.8674(4) 0.1249(4) 0.0620(2)
C4 C 0.9225(4) 0.2253(5) 0.1432(3)
C5 C 0.8138(3) 0.3320(4) 0.1970(3)
C6 C 0.3156(4) 0.2047(5) 0.3208(3)
C7 C 0.2456(6) 0.0525(6) 0.3878(4)
C3A C 1.1326(4) -0.1249(4) 0.0620(2)
C2A C 1.2951(4) -0.1318(4) 0.0380(2)
C1A C 1.3953(4) -0.2415(4) 0.0967(2)
N1A N 1.3448(3) -0.3420(3) 0.1747(2)
C5A C 1.1862(3) -0.3320(4) 0.1970(3)
C4A C 1.0775(4) -0.2253(5) 0.1432(3)
O1A O 0.5926(3) 0.6738(3) 0.36187(19)
O2A O 0.7168(3) 0.7903(4) 0.2321(2)
C6A C 0.6844(4) 0.7953(5) 0.3208(3)
C7A C 0.7544(6) 0.9475(6) 0.3878(4)
N1A_2 N 0.3448(3) 0.6580(3) 0.1747(2)
Zn1_2 Zn 1.5000 -0.5000 0.26047(6)
loop_
_geom_bond_atom_site_label_1
_geom_bond_atom_site_label_2
_geom_bond_site_symmetry_1
_geom_bond_site_symmetry_2
Zn1 N1 1_555 1_555
S1 C3 1_555 1_555
N1 C1 1_555 1_555
O1 Zn1 1_555 1_555
O2 C6 1_555 1_555
C1 C2 1_555 1_555
C2 C3 1_555 1_555
C3 C4 1_555 1_555
C4 C5 1_555 1_555
C5 N1 1_555 1_555
C6 O1 1_555 1_555
C7 C6 1_555 1_555
C3A S1 1_555 1_555
C2A C3A 1_555 1_555
C1A C2A 1_555 1_555
N1A C1A 1_555 1_555
C5A N1A 1_555 1_555
C4A C3A 1_555 1_555
O1A Zn1 1_555 1_555
O2A C6A 1_555 1_555
C6A O1A 1_555 1_555
C7A C6A 1_555 1_555
N1A_2 Zn1 1_555 1_555
Zn1_2 N1A 1_555 1_555
C5A C4A 1_555 1_555

#END
