
#######################################################################
#
#                 Cambridge Crystallographic Data Centre
#                                CCDC 
#
#######################################################################
#
# If this CIF has been generated from an entry in the Cambridge 
# Structural Database, then it will include bibliographic, chemical, 
# crystal, experimental, refinement or atomic coordinate data resulting 
# from the CCDC's data processing and validation procedures.
#
#######################################################################

data_HABJEA
_symmetry_cell_setting           orthorhombic
_symmetry_space_group_name_H-M   'P b c n'
_symmetry_Int_Tables_number      60
_space_group_name_Hall           '-P 2n 2ab'
loop_
_symmetry_equiv_pos_site_id
_symmetry_equiv_pos_as_xyz
1 x,y,z
2 1/2-x,1/2-y,1/2+z
3 1/2+x,1/2-y,-z
4 -x,y,1/2-z
5 -x,-y,-z
6 1/2+x,1/2+y,1/2-z
7 1/2-x,1/2+y,z
8 x,-y,1/2+z
_cell_length_a                   9.744(3)
_cell_length_b                   14.452(4)
_cell_length_c                   27.393(8)
_cell_angle_alpha                90
_cell_angle_beta                 90
_cell_angle_gamma                90
_cell_volume                     3857.49
loop_
_atom_site_label
_atom_site_type_symbol
_atom_site_fract_x
_atom_site_fract_y
_atom_site_fract_z
Pd1 Pd 0.0000 1.0000 0.5000
Pd2 Pd 0.5000 0.6990(1) 0.7500
Cl1 Cl -0.1843(2) 0.9722(1) 0.5498(1)
Cl2 Cl 0.5000 0.8566(2) 0.7500
Cl3 Cl 0.5000 0.5403(2) 0.7500
S1 S 0.1346(2) 1.0633(1) 0.5614(1)
S2 S 0.2673(2) 0.6853(1) 0.7330(1)
C1 C 0.1996(10) 1.2323(6) 0.5269(3)
C2 C 0.1807(13) 1.3246(7) 0.5191(3)
C3 C 0.0695(13) 1.3695(6) 0.5362(4)
C4 C 0.0237(10) 1.3221(6) 0.5623(3)
C5 C -0.0080(9) 1.2274(5) 0.5706(3)
C6 C 0.1073(8) 1.1839(4) 0.5529(2)
C7 C 0.0594(9) 1.0417(5) 0.6208(2)
C8 C 0.0830(9) 0.9369(6) 0.6345(3)
C9 C 0.2231(8) 0.9252(5) 0.6475(3)
C10 C 0.2489(9) 0.8163(5) 0.6615(3)
C11 C 0.1951(7) 0.7938(4) 0.7125(2)
C12 C 0.1931(7) 0.6702(5) 0.7924(2)
C13 C 0.1935(8) 0.7374(5) 0.8284(3)
C14 C 0.1335(10) 0.7207(8) 0.8748(3)
C15 C 0.0726(12) 0.6387(9) 0.8854(4)
C16 C 0.0737(9) 0.5736(8) 0.8515(4)
C17 C 0.1292(8) 0.5845(6) 0.8033(3)
Cl1D Cl 0.1843(2) 1.0278(1) 0.4502(1)
S1D S -0.1346(2) 0.9367(1) 0.4386(1)
S2D S -0.2673(2) 1.3147(1) 0.2670(1)
C1D C -0.1996(10) 0.7677(6) 0.4731(3)
C2D C -0.1807(13) 0.6754(7) 0.4809(3)
C3D C -0.0695(13) 0.6305(6) 0.4638(4)
C4D C -0.0237(10) 0.6779(6) 0.4377(3)
C5D C 0.0080(9) 0.7726(5) 0.4294(3)
C6D C -0.1073(8) 0.8161(4) 0.4471(2)
C7D C -0.0594(9) 0.9583(5) 0.3792(2)
C8D C -0.0830(9) 1.0631(6) 0.3655(3)
C9D C -0.2231(8) 1.0748(5) 0.3525(3)
C10D C -0.2489(9) 1.1837(5) 0.3385(3)
C11D C -0.1951(7) 1.2062(4) 0.2875(2)
C12D C -0.1931(7) 1.3298(5) 0.2076(2)
C13D C -0.1935(8) 1.2626(5) 0.1716(3)
C14D C -0.1335(10) 1.2793(8) 0.1252(3)
C15D C -0.0726(12) 1.3613(9) 0.1146(4)
C16D C -0.0737(9) 1.4264(8) 0.1485(4)
C17D C -0.1292(8) 1.4155(6) 0.1967(3)
S2C S 0.7327(2) 0.6853(1) 0.7670(1)
Pd2D Pd -0.5000 1.3010(1) 0.2500
loop_
_geom_bond_atom_site_label_1
_geom_bond_atom_site_label_2
_geom_bond_site_symmetry_1
_geom_bond_site_symmetry_2
Pd1 Cl1 1_555 1_555
Pd2 Cl2 1_555 1_555
Cl3 Pd2 1_555 1_555
S1 Pd1 1_555 1_555
S2 Pd2 1_555 1_555
C1 C2 1_555 1_555
C2 C3 1_555 1_555
C3 C4 1_555 1_555
C4 C5 1_555 1_555
C5 C6 1_555 1_555
C6 S1 1_555 1_555
C7 S1 1_555 1_555
C8 C7 1_555 1_555
C9 C8 1_555 1_555
C10 C9 1_555 1_555
C11 S2 1_555 1_555
C12 S2 1_555 1_555
C13 C12 1_555 1_555
C14 C13 1_555 1_555
C15 C14 1_555 1_555
C16 C15 1_555 1_555
C17 C12 1_555 1_555
Cl1D Pd1 1_555 1_555
S1D Pd1 1_555 1_555
S2D C11D 1_555 1_555
C1D C2D 1_555 1_555
C2D C3D 1_555 1_555
C3D C4D 1_555 1_555
C4D C5D 1_555 1_555
C5D C6D 1_555 1_555
C6D S1D 1_555 1_555
C7D S1D 1_555 1_555
C8D C7D 1_555 1_555
C9D C8D 1_555 1_555
C10D C9D 1_555 1_555
C11D C10D 1_555 1_555
C12D S2D 1_555 1_555
C13D C12D 1_555 1_555
C14D C13D 1_555 1_555
C15D C14D 1_555 1_555
C16D C15D 1_555 1_555
C17D C12D 1_555 1_555
S2C Pd2 1_555 1_555
Pd2D S2D 1_555 1_555
C1 C6 1_555 1_555
C10 C11 1_555 1_555
C16 C17 1_555 1_555
C1D C6D 1_555 1_555
C16D C17D 1_555 1_555

#END
