
#######################################################################
#
#                 Cambridge Crystallographic Data Centre
#                                CCDC 
#
#######################################################################
#
# If this CIF has been generated from an entry in the Cambridge 
# Structural Database, then it will include bibliographic, chemical, 
# crystal, experimental, refinement or atomic coordinate data resulting 
# from the CCDC's data processing and validation procedures.
#
#######################################################################

data_HABLUS
_symmetry_cell_setting           triclinic
_symmetry_space_group_name_H-M   'P -1'
_symmetry_Int_Tables_number      2
_space_group_name_Hall           '-P 1'
loop_
_symmetry_equiv_pos_site_id
_symmetry_equiv_pos_as_xyz
1 x,y,z
2 -x,-y,-z
_cell_length_a                   8.9821(12)
_cell_length_b                   9.7480(13)
_cell_length_c                   12.4460(17)
_cell_angle_alpha                106.254(2)
_cell_angle_beta                 95.127(2)
_cell_angle_gamma                109.531(3)
_cell_volume                     965.624
loop_
_atom_site_label
_atom_site_type_symbol
_atom_site_fract_x
_atom_site_fract_y
_atom_site_fract_z
O1 O -0.0066(7) -0.0178(14) 0.1432(6)
Cu1 Cu 0.4887(1) 0.1369(1) 0.4560(1)
O2 O 0.5318(3) 0.0582(3) 0.3049(2)
O3 O 0.3163(3) 0.1016(3) 0.2476(2)
C1 C 0.6006(4) -0.0055(4) 0.0877(3)
C2 C 0.3660(5) 0.0332(5) 0.0212(3)
N1 N 0.4445(3) 0.2535(3) 0.6027(2)
N2 N 0.6471(3) 0.3507(3) 0.4790(2)
N3 N 0.3230(3) -0.0625(3) 0.4485(2)
N4 N 0.2408(4) -0.1601(4) 0.3626(3)
N5 N 0.1575(6) -0.2597(5) 0.2831(4)
C3 C 0.4325(4) 0.0642(4) 0.2285(3)
C4 C 0.4671(4) 0.0286(4) 0.1096(3)
C5 C 0.3358(4) 0.1945(4) 0.6608(3)
C6 C 0.3075(5) 0.2837(4) 0.7578(3)
C7 C 0.3947(5) 0.4411(5) 0.7997(3)
C8 C 0.5108(5) 0.5013(4) 0.7410(3)
C9 C 0.5331(4) 0.4062(4) 0.6436(3)
C10 C 0.6499(4) 0.4612(4) 0.5734(3)
C11 C 0.7524(4) 0.6121(4) 0.6005(3)
C12 C 0.8577(4) 0.6559(4) 0.5299(3)
C13 C 0.8536(4) 0.5410(4) 0.4332(3)
C14 C 0.7478(4) 0.3914(4) 0.4103(3)
C15 C 0.9686(5) 0.8208(5) 0.5589(5)
C16 C 0.3622(7) 0.5444(13) 0.9029(5)
C2A C 0.6340(5) -0.0332(5) -0.0212(3)
C4A C 0.5329(4) -0.0286(4) -0.1096(3)
C1A C 0.3994(4) 0.0055(4) -0.0877(3)
C3A C 0.5675(4) -0.0642(4) -0.2285(3)
O2A O 0.4682(3) -0.0582(3) -0.3049(2)
O3A O 0.6837(3) -0.1016(3) -0.2476(2)
N3A N 0.6770(3) 0.0625(3) 0.5515(2)
N4A N 0.7592(4) 0.1601(4) 0.6374(3)
N5A N 0.8425(6) 0.2597(5) 0.7169(4)
Cu1A Cu 0.5113(1) -0.1369(1) -0.4560(1)
N1A N 0.5555(3) -0.2535(3) -0.6027(2)
N2A N 0.3529(3) -0.3507(3) -0.4790(2)
C5A C 0.6642(4) -0.1945(4) -0.6608(3)
C6A C 0.6925(5) -0.2837(4) -0.7578(3)
C7A C 0.6053(5) -0.4411(5) -0.7997(3)
C8A C 0.4892(5) -0.5013(4) -0.7410(3)
C9A C 0.4669(4) -0.4062(4) -0.6436(3)
C10A C 0.3501(4) -0.4612(4) -0.5734(3)
C11A C 0.2476(4) -0.6121(4) -0.6005(3)
C12A C 0.1423(4) -0.6559(4) -0.5299(3)
C13A C 0.1464(4) -0.5410(4) -0.4332(3)
C14A C 0.2522(4) -0.3914(4) -0.4103(3)
C15A C 0.0314(5) -0.8208(5) -0.5589(5)
C16A C 0.6378(7) -0.5444(13) -0.9029(5)
Cu1A_2 Cu 0.5113(1) -0.1369(1) 0.5440(1)
N3_2 N 0.3230(3) -0.0625(3) -0.5515(2)
N3A_2 N 0.6770(3) 0.0625(3) -0.4485(2)
O4 O -0.0863(12) -0.2415(13) -0.0644(10)
C17 C -0.0108(18) -0.3571(16) -0.0990(20)
loop_
_geom_bond_atom_site_label_1
_geom_bond_atom_site_label_2
_geom_bond_site_symmetry_1
_geom_bond_site_symmetry_2
Cu1 O2 1_555 1_555
O2 C3 1_555 1_555
O3 C3 1_555 1_555
C1 C4 1_555 1_555
C2 C4 1_555 1_555
N1 Cu1 1_555 1_555
N2 Cu1 1_555 1_555
N3 Cu1 1_555 1_555
N4 N3 1_555 1_555
N5 N4 1_555 1_555
C3 C4 1_555 1_555
C5 N1 1_555 1_555
C6 C5 1_555 1_555
C7 C6 1_555 1_555
C8 C7 1_555 1_555
C9 N1 1_555 1_555
C10 N2 1_555 1_555
C11 C10 1_555 1_555
C12 C11 1_555 1_555
C13 C12 1_555 1_555
C14 N2 1_555 1_555
C15 C12 1_555 1_555
C16 C7 1_555 1_555
O4 C17 1_555 1_555
C2A C1 1_555 1_555
C4A C2A 1_555 1_555
C1A C2 1_555 1_555
C3A C4A 1_555 1_555
O2A C3A 1_555 1_555
O3A C3A 1_555 1_555
N3A Cu1 1_555 1_555
N4A N3A 1_555 1_555
N5A N4A 1_555 1_555
Cu1A O2A 1_555 1_555
N1A Cu1A 1_555 1_555
N2A Cu1A 1_555 1_555
C5A N1A 1_555 1_555
C6A C5A 1_555 1_555
C7A C6A 1_555 1_555
C8A C7A 1_555 1_555
C9A N1A 1_555 1_555
C10A N2A 1_555 1_555
C11A C10A 1_555 1_555
C12A C11A 1_555 1_555
C13A C12A 1_555 1_555
C14A N2A 1_555 1_555
C15A C12A 1_555 1_555
C16A C7A 1_555 1_555
Cu1A_2 N3 1_555 1_555
N3_2 Cu1A 1_555 1_555
N3A_2 Cu1A 1_555 1_555
C8 C9 1_555 1_555
C9 C10 1_555 1_555
C13 C14 1_555 1_555
C4A C1A 1_555 1_555
N3A Cu1A_2 1_555 1_555
C8A C9A 1_555 1_555
C9A C10A 1_555 1_555
C13A C14A 1_555 1_555

#END
