
#######################################################################
#
#                 Cambridge Crystallographic Data Centre
#                                CCDC 
#
#######################################################################
#
# If this CIF has been generated from an entry in the Cambridge 
# Structural Database, then it will include bibliographic, chemical, 
# crystal, experimental, refinement or atomic coordinate data resulting 
# from the CCDC's data processing and validation procedures.
#
#######################################################################

data_HABSAG
_symmetry_cell_setting           monoclinic
_symmetry_space_group_name_H-M   'P 21/c'
_symmetry_Int_Tables_number      14
_space_group_name_Hall           '-P 2ybc'
loop_
_symmetry_equiv_pos_site_id
_symmetry_equiv_pos_as_xyz
1 x,y,z
2 -x,1/2+y,1/2-z
3 -x,-y,-z
4 x,1/2-y,1/2+z
_cell_length_a                   8.8738(5)
_cell_length_b                   18.3991(9)
_cell_length_c                   20.1384(10)
_cell_angle_alpha                90
_cell_angle_beta                 98.843(1)
_cell_angle_gamma                90
_cell_volume                     3248.91
loop_
_atom_site_label
_atom_site_type_symbol
_atom_site_fract_x
_atom_site_fract_y
_atom_site_fract_z
B1 B -0.2569(5) 0.6796(3) -0.0555(2)
Cd1 Cd -0.19401(3) 0.399430(16) -0.174120(14)
Cd2 Cd -0.21123(3) 0.351150(16) -0.344940(14)
O1 O -0.0254(6) 0.5202(2) -0.2185(2)
O2 O -0.0532(4) 0.40954(16) -0.25801(14)
O3 O -0.3301(4) 0.46139(17) -0.35262(16)
O4 O -0.4062(4) 0.43441(16) -0.25646(16)
O5 O -0.6408(4) 0.80859(17) -0.34021(16)
O6 O -0.7455(4) 0.77872(16) -0.25101(16)
O7 O 0.3050(5) 0.4980(2) -0.5273(2)
H1 H 0.322(8) 0.508(4) -0.560(3)
O8 O 0.1654(4) 0.59948(17) -0.53988(16)
N1 N -0.2599(5) 0.4877(2) -0.10938(18)
N2 N -0.2904(4) 0.59952(18) -0.07353(17)
N3 N -0.4053(4) 0.72190(19) -0.05482(16)
N4 N -0.6100(4) 0.7891(2) -0.08834(18)
N5 N 0.0099(5) 0.6592(2) 0.10429(18)
N6 N -0.1632(4) 0.68512(18) 0.01552(16)
N7 N 0.0110(4) 0.77786(19) -0.14752(17)
N8 N -0.1630(4) 0.71271(18) -0.10661(17)
C1 C -0.3919(8) 0.4912(3) -0.0831(3)
H2 H -0.458(8) 0.453(4) -0.091(3)
C2 C -0.4129(7) 0.5589(3) -0.0620(3)
H3 H -0.494(7) 0.581(3) -0.050(3)
C3 C -0.2057(6) 0.5538(3) -0.1037(2)
H4 H -0.137(5) 0.565(2) -0.119(2)
C4 C -0.4958(6) 0.7204(3) -0.0040(2)
H5 H -0.459(6) 0.695(3) 0.037(3)
C5 C -0.6190(6) 0.7614(3) -0.0251(2)
H6 H -0.712(6) 0.773(3) -0.005(3)
C6 C -0.4810(5) 0.7635(2) -0.1035(2)
H7 H -0.447(5) 0.772(3) -0.141(2)
C7 C -0.0352(6) 0.7305(3) 0.1092(2)
H8 H 0.017(6) 0.762(3) 0.143(3)
C8 C -0.1406(6) 0.7469(3) 0.0555(2)
H9 H -0.198(5) 0.790(3) 0.039(2)
C9 C -0.0683(5) 0.6353(2) 0.0477(2)
H10 H -0.062(5) 0.588(2) 0.031(2)
C10 C -0.0850(6) 0.7476(3) -0.1997(2)
H11 H -0.063(5) 0.753(3) -0.241(2)
C11 C -0.1926(6) 0.7080(3) -0.1759(2)
H12 H -0.278(6) 0.683(3) -0.196(2)
C12 C -0.0405(5) 0.7559(2) -0.0931(2)
H13 H 0.012(4) 0.764(2) -0.0495(19)
C13 C -0.6610(5) 0.7649(2) -0.2942(2)
C14 C -0.5869(5) 0.6912(2) -0.2938(2)
C15 C -0.6155(6) 0.6377(3) -0.2495(2)
H14 H -0.676(6) 0.645(3) -0.226(3)
C16 C -0.5527(6) 0.5690(2) -0.2518(2)
H15 H -0.569(7) 0.532(3) -0.220(3)
C17 C -0.4616(5) 0.5528(2) -0.2996(2)
C18 C -0.4308(7) 0.6074(3) -0.3438(3)
H16 H -0.371(6) 0.597(3) -0.379(3)
C19 C -0.4926(7) 0.6753(3) -0.3409(3)
H17 H -0.456(6) 0.714(3) -0.366(3)
C20 C -0.3968(5) 0.4777(2) -0.3021(2)
C21 C 0.2136(5) 0.5467(3) -0.5069(2)
C22 C 0.1684(5) 0.5287(2) -0.4410(2)
C23 C 0.0813(6) 0.5785(3) -0.4114(3)
H18 H 0.050(7) 0.628(4) -0.434(3)
C24 C 0.0303(7) 0.5621(3) -0.3517(3)
H19 H -0.031(6) 0.598(3) -0.335(3)
C25 C 0.0634(5) 0.4950(2) -0.3217(2)
C26 C 0.1543(6) 0.4461(3) -0.3496(2)
H20 H 0.178(5) 0.402(2) -0.325(2)
C27 C 0.2082(6) 0.4633(3) -0.4086(2)
H21 H 0.262(6) 0.434(3) -0.425(3)
C28 C -0.0069(6) 0.4747(3) -0.2609(2)
Cd1B Cd 0.19401(3) 0.600570(16) 0.174120(14)
Cd1A Cd -0.80599(3) 0.899430(16) -0.325880(14)
Cd2A Cd -0.78877(3) 0.851150(16) -0.155060(14)
Cd2A_2 Cd 0.21123(3) 0.851150(16) -0.155060(14)
O5A O -0.3592(4) 0.30859(17) -0.15979(16)
O6A O -0.2545(4) 0.27872(16) -0.24899(16)
N4A N -0.3900(4) 0.2891(2) -0.41166(18)
N5B N -0.0099(5) 0.3408(2) -0.10429(18)
N7A N -0.0110(4) 0.27786(19) -0.35248(17)
O9 O 0.6681(10) 0.6230(6) 0.1591(6)
loop_
_geom_bond_atom_site_label_1
_geom_bond_atom_site_label_2
_geom_bond_site_symmetry_1
_geom_bond_site_symmetry_2
B1 N2 1_555 1_555
Cd1 O2 1_555 1_555
Cd2 O2 1_555 1_555
O1 C28 1_555 1_555
O2 C28 1_555 1_555
O3 Cd2 1_555 1_555
O4 Cd1 1_555 1_555
O5 C13 1_555 1_555
O6 C13 1_555 1_555
O7 H1 1_555 1_555
O8 C21 1_555 1_555
N1 Cd1 1_555 1_555
N2 C2 1_555 1_555
N3 B1 1_555 1_555
N4 C5 1_555 1_555
N5 C7 1_555 1_555
N6 B1 1_555 1_555
N7 C10 1_555 1_555
N8 B1 1_555 1_555
C1 N1 1_555 1_555
H2 C1 1_555 1_555
C2 C1 1_555 1_555
H3 C2 1_555 1_555
C3 N1 1_555 1_555
H4 C3 1_555 1_555
C4 N3 1_555 1_555
H5 C4 1_555 1_555
C5 C4 1_555 1_555
H6 C5 1_555 1_555
C6 N3 1_555 1_555
H7 C6 1_555 1_555
C7 H8 1_555 1_555
C8 N6 1_555 1_555
H9 C8 1_555 1_555
C9 N5 1_555 1_555
H10 C9 1_555 1_555
C10 H11 1_555 1_555
C11 N8 1_555 1_555
H12 C11 1_555 1_555
C12 N7 1_555 1_555
H13 C12 1_555 1_555
C13 C14 1_555 1_555
C14 C15 1_555 1_555
C15 H14 1_555 1_555
C16 C15 1_555 1_555
H15 C16 1_555 1_555
C17 C16 1_555 1_555
C18 C17 1_555 1_555
H16 C18 1_555 1_555
C19 C14 1_555 1_555
H17 C19 1_555 1_555
C20 O3 1_555 1_555
C21 O7 1_555 1_555
C22 C21 1_555 1_555
C23 C22 1_555 1_555
H18 C23 1_555 1_555
C24 C23 1_555 1_555
H19 C24 1_555 1_555
C25 C24 1_555 1_555
C26 C25 1_555 1_555
H20 C26 1_555 1_555
C27 C22 1_555 1_555
H21 C27 1_555 1_555
C28 C25 1_555 1_555
Cd1B N5 1_555 1_555
Cd1A O5 1_555 1_555
Cd2A O6 1_555 1_555
Cd2A_2 N7 1_555 1_555
O5A Cd1 1_555 1_555
O6A Cd2 1_555 1_555
N4A Cd2 1_555 1_555
N5B Cd1 1_555 1_555
N7A Cd2 1_555 1_555
O4 C20 1_555 1_555
N2 C3 1_555 1_555
N4 C6 1_555 1_555
N4 Cd2A 1_555 1_555
N6 C9 1_555 1_555
N8 C12 1_555 1_555
C7 C8 1_555 1_555
C10 C11 1_555 1_555
C17 C20 1_555 1_555
C18 C19 1_555 1_555
C26 C27 1_555 1_555

#END
