
#######################################################################
#
#                 Cambridge Crystallographic Data Centre
#                                CCDC 
#
#######################################################################
#
# If this CIF has been generated from an entry in the Cambridge 
# Structural Database, then it will include bibliographic, chemical, 
# crystal, experimental, refinement or atomic coordinate data resulting 
# from the CCDC's data processing and validation procedures.
#
#######################################################################

data_HABVUD
_symmetry_cell_setting           monoclinic
_symmetry_space_group_name_H-M   'P 21/c'
_symmetry_Int_Tables_number      14
_space_group_name_Hall           '-P 2ybc'
loop_
_symmetry_equiv_pos_site_id
_symmetry_equiv_pos_as_xyz
1 x,y,z
2 -x,1/2+y,1/2-z
3 -x,-y,-z
4 x,1/2-y,1/2+z
_cell_length_a                   6.3420(2)
_cell_length_b                   15.6863(6)
_cell_length_c                   16.0592(5)
_cell_angle_alpha                90
_cell_angle_beta                 90.861(2)
_cell_angle_gamma                90
_cell_volume                     1597.43
loop_
_atom_site_label
_atom_site_type_symbol
_atom_site_fract_x
_atom_site_fract_y
_atom_site_fract_z
Na1 Na 0.21536(9) 0.52325(3) 0.05026(3)
O1 O -0.12473(14) 0.58875(6) 0.03872(6)
O2 O 0.55743(16) 0.53566(6) 0.10853(6)
O3 O 0.22890(18) 0.47326(7) 0.18837(7)
C1 C 0.5626(2) 0.53879(8) 0.19285(8)
C2 C -0.1063(2) 0.67350(9) 0.03290(7)
C3 C 0.3900(2) 0.50654(9) 0.23545(9)
O4 O 0.23134(19) 0.65212(7) -0.02294(8)
C4 C 0.7313(2) 0.57302(10) 0.23800(10)
C5 C 0.0799(2) 0.70881(9) 0.00113(8)
C6 C -0.2634(3) 0.72977(10) 0.05715(9)
C7 C 0.5571(3) 0.54350(11) 0.36607(11)
C8 C 0.7278(3) 0.57504(11) 0.32411(11)
C9 C 0.3873(3) 0.50948(10) 0.32188(10)
C10 C -0.0556(3) 0.85064(11) 0.02018(10)
C11 C -0.2395(3) 0.81713(11) 0.05067(10)
C12 C 0.1050(3) 0.79640(11) -0.00424(10)
H1 H 0.259(3) 0.4875(11) 0.3491(11)
H2 H 0.852(3) 0.5942(11) 0.2064(9)
H3 H 0.547(3) 0.5425(13) 0.4301(13)
H4 H -0.389(3) 0.7068(10) 0.0782(10)
H6 H 0.856(3) 0.5968(12) 0.3518(11)
H7 H -0.355(3) 0.8532(12) 0.0679(10)
H8 H 0.240(3) 0.8160(11) -0.0247(10)
H9 H -0.021(3) 0.9101(13) 0.0177(11)
H11 H 0.323(3) 0.6730(14) -0.0562(13)
H15 H 0.137(3) 0.4407(13) 0.2190(11)
H20 H 0.709(3) 0.5678(9) 0.0838(9)
Na1B Na -0.21536(9) 0.47675(3) -0.05026(3)
O1B O 0.12473(14) 0.41125(6) -0.03872(6)
N1 N 0.5070(3) 0.71348(14) 0.86225(10)
N2 N 0.0492(3) 0.62235(10) 0.73399(12)
C13 C 0.4683(3) 0.71739(13) 0.77156(11)
C14 C 0.0687(3) 0.70619(12) 0.77292(13)
C15 C 0.2606(3) 0.75675(12) 0.74686(15)
H5 H 0.581(3) 0.7504(12) 0.7417(11)
H10 H 0.469(3) 0.6573(15) 0.7489(12)
H12 H 0.073(4) 0.6919(14) 0.8362(15)
H13 H 0.251(4) 0.8120(19) 0.7753(14)
H14 H 0.262(4) 0.7632(18) 0.6759(18)
H16 H 0.623(4) 0.6816(18) 0.8728(14)
H17 H -0.067(5) 0.7376(19) 0.7533(18)
H18 H 0.540(4) 0.7615(17) 0.8802(15)
H19 H 0.067(6) 0.626(2) 0.673(2)
H21 H 0.150(6) 0.600(2) 0.759(2)
loop_
_geom_bond_atom_site_label_1
_geom_bond_atom_site_label_2
_geom_bond_site_symmetry_1
_geom_bond_site_symmetry_2
Na1 O1 1_555 1_555
O1 C2 1_555 1_555
O2 Na1 1_555 1_555
O3 Na1 1_555 1_555
C1 O2 1_555 1_555
C2 C5 1_555 1_555
C3 O3 1_555 1_555
O4 Na1 1_555 1_555
C4 C1 1_555 1_555
C5 O4 1_555 1_555
C6 C2 1_555 1_555
C7 C8 1_555 1_555
C8 C4 1_555 1_555
C9 C3 1_555 1_555
C10 C11 1_555 1_555
C11 C6 1_555 1_555
C12 C5 1_555 1_555
N1 C13 1_555 1_555
N2 C14 1_555 1_555
C13 C15 1_555 1_555
C14 C15 1_555 1_555
C15 H13 1_555 1_555
H1 C9 1_555 1_555
H2 C4 1_555 1_555
H3 C7 1_555 1_555
H4 C6 1_555 1_555
H5 C13 1_555 1_555
H6 C8 1_555 1_555
H7 C11 1_555 1_555
H8 C12 1_555 1_555
H9 C10 1_555 1_555
H10 C13 1_555 1_555
H11 O4 1_555 1_555
H12 C14 1_555 1_555
H14 C15 1_555 1_555
H15 O3 1_555 1_555
H16 N1 1_555 1_555
H17 C14 1_555 1_555
H18 N1 1_555 1_555
H19 N2 1_555 1_555
H20 O2 1_555 1_555
H21 N2 1_555 1_555
Na1B O1 1_555 1_555
O1B Na1 1_555 1_555
C1 C3 1_555 1_555
C7 C9 1_555 1_555
C10 C12 1_555 1_555
Na1B O1B 1_555 1_555

#END
