
#######################################################################
#
#                 Cambridge Crystallographic Data Centre
#                                CCDC 
#
#######################################################################
#
# If this CIF has been generated from an entry in the Cambridge 
# Structural Database, then it will include bibliographic, chemical, 
# crystal, experimental, refinement or atomic coordinate data resulting 
# from the CCDC's data processing and validation procedures.
#
#######################################################################

data_HABYUG
_symmetry_cell_setting           orthorhombic
_symmetry_space_group_name_H-M   'P b c a'
_symmetry_Int_Tables_number      61
_space_group_name_Hall           '-P 2ac 2ab'
loop_
_symmetry_equiv_pos_site_id
_symmetry_equiv_pos_as_xyz
1 x,y,z
2 1/2-x,-y,1/2+z
3 -x,1/2+y,1/2-z
4 1/2+x,1/2-y,-z
5 -x,-y,-z
6 1/2+x,y,1/2-z
7 x,1/2-y,1/2+z
8 1/2-x,1/2+y,z
_cell_length_a                   6.7599(8)
_cell_length_b                   18.485(2)
_cell_length_c                   22.236(3)
_cell_angle_alpha                90
_cell_angle_beta                 90
_cell_angle_gamma                90
_cell_volume                     2778.54
loop_
_atom_site_label
_atom_site_type_symbol
_atom_site_fract_x
_atom_site_fract_y
_atom_site_fract_z
Cu1 Cu 0.19986(5) 0.363760(15) -0.458720(13)
N1 N 0.2337(3) 0.32704(11) -0.37202(9)
N2 N 0.2748(4) 0.30346(12) -0.24743(10)
N3 N 0.2944(3) 0.45670(10) -0.41926(9)
N4 N 0.3864(3) 0.57647(11) -0.34647(10)
O1 O 0.0560(3) 0.16900(8) -0.53093(8)
O2 O 0.1000(3) 0.27173(9) -0.48311(8)
O3 O 0.1613(3) 0.41541(10) -0.53171(8)
O4 O 0.1056(3) 0.44766(10) -0.62395(8)
O5 O -0.1196(3) 0.40833(9) -0.41727(9)
C1 C 0.2053(4) 0.26309(14) -0.34761(12)
H1 H 0.1692 0.2244 -0.3719
C2 C 0.2282(4) 0.25219(15) -0.28599(13)
H2 H 0.2093 0.2057 -0.2711
C3 C 0.3033(4) 0.37026(14) -0.27177(11)
C4 C 0.2853(3) 0.38053(12) -0.33383(11)
C5 C 0.3151(3) 0.45055(12) -0.35906(11)
C6 C 0.3591(4) 0.50961(13) -0.32196(11)
C7 C 0.3727(4) 0.49790(15) -0.25874(11)
H3 H 0.4003 0.5368 -0.2335
C8 C 0.3463(4) 0.43154(16) -0.23474(11)
H4 H 0.3563 0.4255 -0.1933
C9 C 0.3680(4) 0.58044(14) -0.40517(12)
H5 H 0.3884 0.6251 -0.4234
C10 C 0.3197(4) 0.52182(13) -0.44208(12)
H6 H 0.3052 0.5289 -0.4833
C11 C 0.1498(4) 0.40133(13) -0.58681(11)
C12 C 0.2005(4) 0.32834(13) -0.61142(11)
H7 H 0.2502 0.3296 -0.6504
C13 C 0.1886(4) 0.26201(13) -0.58847(11)
H8 H 0.2381 0.2263 -0.6137
C14 C 0.1113(4) 0.23368(12) -0.53019(10)
H9 H -0.135(5) 0.4535(6) -0.4163(17)
H10 H -0.228(3) 0.3946(19) -0.4314(17)
Cu1C Cu -0.30014(5) 0.136240(15) -0.541280(13)
O1C O 0.5560(3) 0.33100(8) -0.46907(8)
loop_
_geom_bond_atom_site_label_1
_geom_bond_atom_site_label_2
_geom_bond_site_symmetry_1
_geom_bond_site_symmetry_2
Cu1 N1 1_555 1_555
N1 C1 1_555 1_555
N2 C2 1_555 1_555
N3 Cu1 1_555 1_555
N4 C6 1_555 1_555
O1 C14 1_555 1_555
O2 Cu1 1_555 1_555
O3 Cu1 1_555 1_555
O4 C11 1_555 1_555
O5 Cu1 1_555 1_555
C1 H1 1_555 1_555
C2 C1 1_555 1_555
H2 C2 1_555 1_555
C3 N2 1_555 1_555
C4 N1 1_555 1_555
C5 N3 1_555 1_555
C6 C5 1_555 1_555
C7 C6 1_555 1_555
H3 C7 1_555 1_555
C8 C3 1_555 1_555
H4 C8 1_555 1_555
C9 N4 1_555 1_555
H5 C9 1_555 1_555
C10 N3 1_555 1_555
H6 C10 1_555 1_555
C11 O3 1_555 1_555
C12 C11 1_555 1_555
H7 C12 1_555 1_555
C13 C12 1_555 1_555
H8 C13 1_555 1_555
C14 O2 1_555 1_555
H9 O5 1_555 1_555
H10 O5 1_555 1_555
Cu1C O1 1_555 1_555
O1C Cu1 1_555 1_555
C3 C4 1_555 1_555
C4 C5 1_555 1_555
C7 C8 1_555 1_555
C9 C10 1_555 1_555
C13 C14 1_555 1_555

#END
