
#######################################################################
#
#                 Cambridge Crystallographic Data Centre
#                                CCDC 
#
#######################################################################
#
# If this CIF has been generated from an entry in the Cambridge 
# Structural Database, then it will include bibliographic, chemical, 
# crystal, experimental, refinement or atomic coordinate data resulting 
# from the CCDC's data processing and validation procedures.
#
#######################################################################

data_HACBUJ
_symmetry_cell_setting           monoclinic
_symmetry_space_group_name_H-M   'C 2/c'
_symmetry_Int_Tables_number      15
_space_group_name_Hall           '-C 2yn'
loop_
_symmetry_equiv_pos_site_id
_symmetry_equiv_pos_as_xyz
1 x,y,z
2 1/2+x,1/2+y,z
3 x,-y,1/2+z
4 1/2+x,1/2-y,1/2+z
5 -x,-y,-z
6 1/2-x,1/2-y,-z
7 -x,y,1/2-z
8 1/2-x,1/2+y,1/2-z
_cell_length_a                   10.6036(10)
_cell_length_b                   11.125(2)
_cell_length_c                   19.675(3)
_cell_angle_alpha                90
_cell_angle_beta                 97.909(10)
_cell_angle_gamma                90
_cell_volume                     2298.89
loop_
_atom_site_label
_atom_site_type_symbol
_atom_site_fract_x
_atom_site_fract_y
_atom_site_fract_z
Cu1 Cu 0.5000 0.85204(3) 0.7500
O1 O 0.35182(12) 0.84171(11) 0.67770(6)
O2 O 0.52314(13) 0.83653(14) 0.62652(7)
N1 N 0.5000 1.0344(2) 0.7500
N2 N 0.5000 1.66872(19) 0.7500
C1 C 0.40574(18) 0.82531(16) 0.62403(9)
C2 C 0.32419(18) 0.78822(17) 0.55962(9)
C3 C 0.3731(2) 0.79208(19) 0.49740(10)
C4 C 0.2016(2) 0.74664(19) 0.56183(10)
C5 C 0.4433(2) 1.09687(19) 0.69629(11)
C6 C 0.4394(2) 1.22101(19) 0.69484(11)
C7 C 0.5000 1.2851(2) 0.7500
C8 C 0.5000 1.4191(2) 0.7500
C9 C 0.3886(2) 1.48287(18) 0.75016(12)
C10 C 0.3919(2) 1.60652(18) 0.74982(11)
H2 H 0.448(2) 0.819(2) 0.4961(11)
H3 H 0.172(2) 0.742(2) 0.6034(13)
H4 H 0.410(2) 1.052(2) 0.6606(14)
H5 H 0.400(2) 1.259(2) 0.6563(14)
H6 H 0.314(2) 1.445(2) 0.7514(11)
H7 H 0.321(2) 1.656(2) 0.7477(12)
C4E C 0.2984(2) 0.75336(19) 0.43817(10)
C2E C 0.17581(18) 0.71178(17) 0.44038(9)
C1E C 0.09426(18) 0.67469(16) 0.37597(9)
O1E O 0.14818(12) 0.65829(11) 0.32230(6)
O2E O -0.02314(13) 0.66347(14) 0.37348(7)
C3E C 0.1269(2) 0.70792(19) 0.50260(10)
H2E H 0.052(2) 0.681(2) 0.5039(11)
H3E H 0.328(2) 0.758(2) 0.3966(13)
C6F C 0.5606(2) 1.22101(19) 0.80516(11)
C5F C 0.5567(2) 1.09687(19) 0.80371(11)
H4F H 0.590(2) 1.052(2) 0.8394(14)
H5F H 0.600(2) 1.259(2) 0.8437(14)
C10F C 0.6081(2) 1.60652(18) 0.75018(11)
C9F C 0.6114(2) 1.48287(18) 0.74984(12)
H6F H 0.686(2) 1.445(2) 0.7486(11)
H7F H 0.679(2) 1.656(2) 0.7523(12)
O1F O 0.64818(12) 0.84171(11) 0.82230(6)
O2F O 0.47686(13) 0.83653(14) 0.87348(7)
N2_2 N 0.5000 0.66872(19) 0.7500
Cu1_2 Cu 0.5000 1.85204(3) 0.7500
Cu1C Cu 0.0000 0.64796(3) 0.2500
O3 O 0.32723(16) 1.11821(18) 0.53062(9)
O4 O 0.26783(16) 1.09429(18) 0.41806(8)
C11 C 0.2487(2) 1.0893(2) 0.48327(11)
C12 C 0.11935(19) 1.04346(19) 0.49110(10)
C13 C 0.0387(2) 0.9956(2) 0.43604(11)
C14 C 0.0795(2) 1.0470(2) 0.55521(11)
H1 H 0.336(3) 1.125(3) 0.4130(14)
H8 H 0.069(2) 0.985(2) 0.3954(14)
H9 H 0.136(3) 1.077(2) 0.5908(14)
C14D C -0.0795(2) 0.9530(2) 0.44479(11)
C12D C -0.11935(19) 0.95654(19) 0.50890(10)
C11D C -0.2487(2) 0.9107(2) 0.51673(11)
O3D O -0.32723(16) 0.88179(18) 0.46938(9)
O4D O -0.26783(16) 0.90571(18) 0.58194(8)
H1D H -0.336(3) 0.875(3) 0.5870(14)
C13D C -0.0387(2) 1.0044(2) 0.56396(11)
H8D H -0.069(2) 1.015(2) 0.6046(14)
H9D H -0.136(3) 0.923(2) 0.4092(14)
loop_
_geom_bond_atom_site_label_1
_geom_bond_atom_site_label_2
_geom_bond_site_symmetry_1
_geom_bond_site_symmetry_2
Cu1 O1 1_555 1_555
O1 C1 1_555 1_555
O2 Cu1 1_555 1_555
O3 C11 1_555 1_555
O4 C11 1_555 1_555
N1 Cu1 1_555 1_555
N2 C10 1_555 1_555
C1 O2 1_555 1_555
C2 C1 1_555 1_555
C3 C2 1_555 1_555
C4 C2 1_555 1_555
C5 N1 1_555 1_555
C6 C5 1_555 1_555
C7 C6 1_555 1_555
C8 C7 1_555 1_555
C9 C8 1_555 1_555
C10 C9 1_555 1_555
C11 C12 1_555 1_555
C12 C13 1_555 1_555
C13 H8 1_555 1_555
C14 C12 1_555 1_555
H1 O4 1_555 1_555
H2 C3 1_555 1_555
H3 C4 1_555 1_555
H4 C5 1_555 1_555
H5 C6 1_555 1_555
H6 C9 1_555 1_555
H7 C10 1_555 1_555
H9 C14 1_555 1_555
C4E C3 1_555 1_555
C2E C4E 1_555 1_555
C1E C2E 1_555 1_555
O1E C1E 1_555 1_555
O2E C1E 1_555 1_555
C3E C4 1_555 1_555
H2E C3E 1_555 1_555
H3E C4E 1_555 1_555
C14D C13 1_555 1_555
C12D C14D 1_555 1_555
C11D C12D 1_555 1_555
O3D C11D 1_555 1_555
O4D C11D 1_555 1_555
H1D O4D 1_555 1_555
C13D C14 1_555 1_555
H8D C13D 1_555 1_555
H9D C14D 1_555 1_555
C6F C7 1_555 1_555
C5F N1 1_555 1_555
H4F C5F 1_555 1_555
H5F C6F 1_555 1_555
C10F N2 1_555 1_555
C9F C8 1_555 1_555
H6F C9F 1_555 1_555
H7F C10F 1_555 1_555
O1F Cu1 1_555 1_555
O2F Cu1 1_555 1_555
N2_2 Cu1 1_555 1_555
Cu1_2 N2 1_555 1_555
Cu1C O1E 1_555 1_555
C2E C3E 1_555 1_555
O2E Cu1C 1_555 1_555
C12D C13D 1_555 1_555
C6F C5F 1_555 1_555
C10F C9F 1_555 1_555

#END
