
#######################################################################
#
#                 Cambridge Crystallographic Data Centre
#                                CCDC 
#
#######################################################################
#
# If this CIF has been generated from an entry in the Cambridge 
# Structural Database, then it will include bibliographic, chemical, 
# crystal, experimental, refinement or atomic coordinate data resulting 
# from the CCDC's data processing and validation procedures.
#
#######################################################################

data_HACQOS
_symmetry_cell_setting           monoclinic
_symmetry_space_group_name_H-M   'C c'
_symmetry_Int_Tables_number      9
_space_group_name_Hall           'C -2yc'
loop_
_symmetry_equiv_pos_site_id
_symmetry_equiv_pos_as_xyz
1 x,y,z
2 x,-y,1/2+z
3 1/2+x,1/2+y,z
4 1/2+x,1/2-y,1/2+z
_cell_length_a                   17.961(1)
_cell_length_b                   11.451(1)
_cell_length_c                   28.537(1)
_cell_angle_alpha                90
_cell_angle_beta                 98.397(1)
_cell_angle_gamma                90
_cell_volume                     5806.33
loop_
_atom_site_label
_atom_site_type_symbol
_atom_site_fract_x
_atom_site_fract_y
_atom_site_fract_z
Co1 Co 0.2363(1) 0.8578(1) 0.5283(1)
O1 O 0.3454(1) 0.8585(2) 0.5651(1)
O2 O 0.1258(2) 0.8671(2) 0.4933(1)
N1 N 0.1994(2) 0.8489(2) 0.5981(1)
N2 N 0.1094(2) 1.0110(2) 0.9080(1)
N3 N 0.2772(2) 0.8567(2) 0.4599(1)
N4 N 0.3632(2) 1.0189(3) 0.1487(1)
N5 N 0.2356(2) 0.6702(2) 0.5279(1)
N6 N 0.2365(2) 0.0506(2) 0.5296(1)
C1 C 0.2371(2) 0.7805(3) 0.6316(1)
C2 C 0.2258(2) 0.7852(3) 0.6783(1)
C3 C 0.1747(2) 0.8630(3) 0.6922(1)
C4 C 0.1321(2) 0.9282(3) 0.6570(1)
C5 C 0.1462(2) 0.9198(3) 0.6109(1)
C6 C 0.1655(2) 0.8764(3) 0.7435(1)
C7 C 0.1537(2) 0.9279(3) 0.8949(1)
C8 C 0.1615(2) 0.9031(4) 0.8483(1)
C9 C 0.1218(2) 0.9717(3) 0.8115(1)
C10 C 0.0767(2) 1.0560(4) 0.8256(1)
C11 C 0.0716(2) 1.0747(3) 0.8731(1)
C12 C 0.1276(2) 0.9566(3) 0.7614(1)
C13 C 0.2402(2) 0.7930(3) 0.4243(1)
C14 C 0.2510(3) 0.8008(4) 0.3779(2)
C15 C 0.3034(3) 0.8779(4) 0.3651(2)
C16 C 0.3440(2) 0.9420(4) 0.4019(2)
C17 C 0.3301(2) 0.9279(3) 0.4478(1)
C18 C 0.3082(3) 0.8900(4) 0.3150(2)
C19 C 0.3153(2) 0.9387(4) 0.1606(2)
C20 C 0.3090(3) 0.9185(4) 0.2087(2)
C21 C 0.3529(3) 0.9789(4) 0.2436(2)
C22 C 0.4041(3) 1.0581(4) 0.2307(2)
C23 C 0.4065(3) 1.0742(4) 0.1839(1)
C24 C 0.3483(3) 0.9627(4) 0.2958(2)
C25 C 0.1795(2) 0.6081(3) 0.5413(1)
C26 C 0.1785(2) 0.4893(3) 0.5420(1)
C27 C 0.2371(3) 0.4263(2) 0.5277(2)
C28 C 0.2965(2) 0.4879(3) 0.5138(2)
C29 C 0.2927(2) 0.6096(3) 0.5145(1)
C30 C 0.1728(2) 0.1137(3) 0.5211(1)
C31 C 0.1706(2) 0.2341(3) 0.5211(1)
C32 C 0.2363(3) 0.2963(2) 0.5291(2)
C33 C 0.3033(2) 0.2316(3) 0.5370(2)
C34 C 0.3011(2) 0.1110(3) 0.5370(1)
H1 H 0.3579 0.8903 0.5960
H2 H 0.3883 0.8290 0.5531
H3 H 0.1166 0.9265 0.4699
H4 H 0.0947 0.8006 0.4858
H5 H 0.2725 0.7273 0.6229
H6 H 0.2530 0.7352 0.7007
H7 H 0.0939 0.9779 0.6646
H8 H 0.1175 0.9654 0.5875
H9 H 0.1898 0.8208 0.7647
H10 H 0.1817 0.8829 0.9188
H11 H 0.1926 0.8416 0.8412
H12 H 0.0482 1.1030 0.8026
H13 H 0.0401 1.1348 0.8811
H14 H 0.1012 1.0101 0.7401
H15 H 0.2043 0.7392 0.4319
H16 H 0.2227 0.7538 0.3548
H17 H 0.3811 0.9951 0.3954
H18 H 0.3594 0.9707 0.4719
H19 H 0.2785 0.8387 0.2944
H20 H 0.2856 0.8955 0.1369
H21 H 0.2744 0.8630 0.2168
H22 H 0.4364 1.0997 0.2537
H23 H 0.4415 1.1287 0.1755
H24 H 0.3788 1.0125 0.3167
H25 H 0.1386 0.6485 0.5507
H26 H 0.1379 0.4499 0.5522
H27 H 0.3379 0.4491 0.5043
H28 H 0.3328 0.6517 0.5049
H29 H 0.1269 0.0733 0.5147
H30 H 0.1242 0.2733 0.5157
H31 H 0.3499 0.2705 0.5422
H32 H 0.3468 0.0696 0.5424
N6_2 N 0.2365(2) 1.0506(2) 0.5296(1)
Co1_2 Co 0.2363(1) -0.1422(1) 0.5283(1)
N7 N 0.0399(2) 0.6234(3) 0.6272(1)
N8 N -0.0186(2) 0.7652(3) 0.9444(1)
C35 C 0.0810(3) 0.5603(4) 0.6611(2)
C36 C 0.0786(3) 0.5757(4) 0.7086(2)
C37 C 0.0316(2) 0.6622(4) 0.7243(1)
C38 C -0.0098(2) 0.7293(4) 0.6892(1)
C39 C -0.0032(2) 0.7056(4) 0.6426(2)
C40 C 0.0287(2) 0.6736(3) 0.7746(1)
C41 C 0.0202(3) 0.6795(4) 0.9262(2)
C42 C 0.0260(3) 0.6699(4) 0.8774(2)
C43 C -0.0110(3) 0.7503(4) 0.8477(2)
C44 C -0.0500(3) 0.8351(5) 0.8642(2)
C45 C -0.0548(3) 0.8424(4) 0.9142(2)
C46 C -0.0093(2) 0.7470(4) 0.7947(1)
H33 H 0.1132 0.5026 0.6520
H34 H 0.1085 0.5284 0.7308
H35 H -0.0415 0.7893 0.6970
H36 H -0.0319 0.7518 0.6195
H37 H 0.0583 0.6208 0.7946
H38 H 0.0447 0.6233 0.9470
H39 H 0.0544 0.6101 0.8660
H40 H -0.0747 0.8909 0.8433
H41 H -0.0837 0.9017 0.9255
H42 H -0.0380 0.8025 0.7757
N11 N 0.3683(5) 0.5155(8) 0.6763(3)
C59 C 0.3102(6) 0.4622(8) 0.6925(3)
C60 C 0.2908(6) 0.4819(10) 0.7369(4)
C61 C 0.3324(7) 0.5608(10) 0.7670(3)
C62 C 0.3918(7) 0.6184(9) 0.7499(3)
C63 C 0.4076(5) 0.5934(8) 0.7051(3)
N12 N 0.2791(6) 0.6471(8) 0.9017(3)
C64 C 0.2443(6) 0.5600(9) 0.8752(4)
C65 C 0.2595(7) 0.5317(9) 0.8306(4)
C66 C 0.3135(7) 0.5948(11) 0.8113(3)
C67 C 0.3510(6) 0.6837(11) 0.8390(4)
C68 C 0.3322(6) 0.7068(9) 0.8833(4)
H53 H 0.2813 0.4087 0.6725
H54 H 0.2499 0.4423 0.7466
H55 H 0.4207 0.6738 0.7689
H56 H 0.4478 0.6327 0.6942
H57 H 0.2077 0.5161 0.8879
H58 H 0.2336 0.4703 0.8135
H59 H 0.3887 0.7275 0.8275
H60 H 0.3579 0.7669 0.9014
N13 N 0.0907(2) 0.2245(3) 0.6433(1)
O3 O 0.1422(4) 0.2928(6) 0.6392(2)
O4 O 0.0572(3) 0.1752(4) 0.6082(1)
O5 O 0.0728(3) 0.2055(5) 0.6826(1)
N15 N 0.0381(2) 0.3633(3) 0.8521(1)
O9 O 0.1031(2) 0.3884(5) 0.8690(2)
O10 O -0.0127(2) 0.3718(5) 0.8765(2)
O11 O 0.0240(3) 0.3295(5) 0.8108(2)
O15 O 0.1637(2) 0.3145(4) 0.7642(1)
H61 H 0.1500 0.2854 0.7329
H62 H 0.1233 0.3542 0.7754
O16 O 0.0152(3) 0.7090(5) 0.4723(2)
H63 H -0.0147 0.6654 0.4909
H64 H -0.0063 0.7119 0.4399
O18 O -0.0124(2) 0.5452(3) 0.5358(1)
H65 H 0.0032 0.4677 0.5304
H66 H 0.0014 0.5686 0.5679
O19 O -0.0234(2) 0.3004(3) 0.5359(1)
H67 H -0.0240 0.2649 0.5057
H68 H 0.0155 0.2701 0.5588
O20 O 0.4489(7) 0.4921(10) 0.5967(4)
O21 O 0.4767(12) 0.4447(18) 0.5087(7)
N9? N 0.3694(3) 0.4350(5) 0.6221(2)
C47? C 0.3162(4) 0.3998(7) 0.6471(2)
C48? C 0.3062(5) 0.4386(7) 0.6908(3)
C49? C 0.3566(4) 0.5262(6) 0.7118(2)
C50? C 0.4091(4) 0.5631(6) 0.6872(3)
C51? C 0.4157(4) 0.5188(6) 0.6415(3)
C52? C 0.3513(4) 0.5742(7) 0.7571(2)
N10? N 0.2766(3) 0.6791(5) 0.9225(2)
C53? C 0.2331(4) 0.5979(6) 0.8985(3)
C54? C 0.2439(4) 0.5555(7) 0.8534(3)
C55? C 0.2987(4) 0.5991(6) 0.8323(3)
C56? C 0.3448(5) 0.6813(7) 0.8558(3)
C57? C 0.3330(4) 0.7213(8) 0.9016(3)
C58? C 0.3053(4) 0.5494(7) 0.7855(2)
N14? N 0.0949(8) 0.2326(10) 0.6465(5)
O6? O 0.1493(9) 0.2808(18) 0.6331(7)
O7? O 0.0393(9) 0.2076(17) 0.6178(6)
O8? O 0.0962(11) 0.2090(20) 0.6887(5)
N16? N 0.0489(5) 0.3774(7) 0.8568(3)
O12? O 0.0915(6) 0.3920(13) 0.8942(3)
O13? O -0.0168(5) 0.3479(13) 0.8575(4)
O14? O 0.0719(7) 0.3923(12) 0.8187(3)
O17? O 0.0471(8) 0.6754(13) 0.4634(5)
H43? H 0.2825 0.3427 0.6332
H44? H 0.2677 0.4088 0.7065
H45? H 0.4431 0.6207 0.7004
H46? H 0.4529 0.5486 0.6248
H47? H 0.3868 0.6325 0.7675
H48? H 0.1931 0.5671 0.9124
H49? H 0.2123 0.4968 0.8385
H50? H 0.3847 0.7120 0.8417
H51? H 0.3654 0.7780 0.9173
H52? H 0.2703 0.4905 0.7751
loop_
_geom_bond_atom_site_label_1
_geom_bond_atom_site_label_2
_geom_bond_site_symmetry_1
_geom_bond_site_symmetry_2
Co1 O1 1_555 1_555
O1 H1 1_555 1_555
O2 Co1 1_555 1_555
N1 Co1 1_555 1_555
N2 C7 1_555 1_555
N3 Co1 1_555 1_555
N4 C19 1_555 1_555
N5 Co1 1_555 1_555
N6 C30 1_555 1_555
C1 N1 1_555 1_555
C2 C1 1_555 1_555
C3 C2 1_555 1_555
C4 C3 1_555 1_555
C5 N1 1_555 1_555
C6 C3 1_555 1_555
C7 C8 1_555 1_555
C8 C9 1_555 1_555
C9 C10 1_555 1_555
C10 C11 1_555 1_555
C11 N2 1_555 1_555
C12 C6 1_555 1_555
C13 N3 1_555 1_555
C14 C13 1_555 1_555
C15 C14 1_555 1_555
C16 C15 1_555 1_555
C17 N3 1_555 1_555
C18 C15 1_555 1_555
C19 C20 1_555 1_555
C20 C21 1_555 1_555
C21 C22 1_555 1_555
C22 C23 1_555 1_555
C23 N4 1_555 1_555
C24 C18 1_555 1_555
C25 N5 1_555 1_555
C26 C25 1_555 1_555
C27 C26 1_555 1_555
C28 C27 1_555 1_555
C29 N5 1_555 1_555
C30 C31 1_555 1_555
C31 C32 1_555 1_555
C32 C27 1_555 1_555
C33 C32 1_555 1_555
C34 N6 1_555 1_555
N7 C35 1_555 1_555
N8 C41 1_555 1_555
C35 C36 1_555 1_555
C36 C37 1_555 1_555
C37 C38 1_555 1_555
C38 C39 1_555 1_555
C39 N7 1_555 1_555
C40 C37 1_555 1_555
C41 C42 1_555 1_555
C42 C43 1_555 1_555
C43 C44 1_555 1_555
C44 C45 1_555 1_555
C45 N8 1_555 1_555
C46 C40 1_555 1_555
N11 C59 1_555 1_555
C59 C60 1_555 1_555
C60 C61 1_555 1_555
C61 C62 1_555 1_555
C62 C63 1_555 1_555
C63 N11 1_555 1_555
N12 C64 1_555 1_555
C64 C65 1_555 1_555
C65 C66 1_555 1_555
C66 C61 1_555 1_555
C67 C66 1_555 1_555
C68 N12 1_555 1_555
N13 O3 1_555 1_555
O4 N13 1_555 1_555
O5 N13 1_555 1_555
N15 O9 1_555 1_555
O10 N15 1_555 1_555
O11 N15 1_555 1_555
O15 H61 1_555 1_555
O16 H63 1_555 1_555
O18 H65 1_555 1_555
O19 H67 1_555 1_555
H2 O1 1_555 1_555
H3 O2 1_555 1_555
H4 O2 1_555 1_555
H5 C1 1_555 1_555
H6 C2 1_555 1_555
H7 C4 1_555 1_555
H8 C5 1_555 1_555
H9 C6 1_555 1_555
H10 C7 1_555 1_555
H11 C8 1_555 1_555
H12 C10 1_555 1_555
H13 C11 1_555 1_555
H14 C12 1_555 1_555
H15 C13 1_555 1_555
H16 C14 1_555 1_555
H17 C16 1_555 1_555
H18 C17 1_555 1_555
H19 C18 1_555 1_555
H20 C19 1_555 1_555
H21 C20 1_555 1_555
H22 C22 1_555 1_555
H23 C23 1_555 1_555
H24 C24 1_555 1_555
H25 C25 1_555 1_555
H26 C26 1_555 1_555
H27 C28 1_555 1_555
H28 C29 1_555 1_555
H29 C30 1_555 1_555
H30 C31 1_555 1_555
H31 C33 1_555 1_555
H32 C34 1_555 1_555
H33 C35 1_555 1_555
H34 C36 1_555 1_555
H35 C38 1_555 1_555
H36 C39 1_555 1_555
H37 C40 1_555 1_555
H38 C41 1_555 1_555
H39 C42 1_555 1_555
H40 C44 1_555 1_555
H41 C45 1_555 1_555
H42 C46 1_555 1_555
H53 C59 1_555 1_555
H54 C60 1_555 1_555
H55 C62 1_555 1_555
H56 C63 1_555 1_555
H57 C64 1_555 1_555
H58 C65 1_555 1_555
H59 C67 1_555 1_555
H60 C68 1_555 1_555
H62 O15 1_555 1_555
H64 O16 1_555 1_555
H66 O18 1_555 1_555
H68 O19 1_555 1_555
N6_2 Co1 1_555 1_555
Co1_2 N6 1_555 1_555
C4 C5 1_555 1_555
C9 C12 1_555 1_555
C16 C17 1_555 1_555
C21 C24 1_555 1_555
C28 C29 1_555 1_555
C33 C34 1_555 1_555
C43 C46 1_555 1_555
C67 C68 1_555 1_555

#END
