
#######################################################################
#
#                 Cambridge Crystallographic Data Centre
#                                CCDC 
#
#######################################################################
#
# If this CIF has been generated from an entry in the Cambridge 
# Structural Database, then it will include bibliographic, chemical, 
# crystal, experimental, refinement or atomic coordinate data resulting 
# from the CCDC's data processing and validation procedures.
#
#######################################################################

data_HACQUY
_symmetry_cell_setting           monoclinic
_symmetry_space_group_name_H-M   'C c'
_symmetry_Int_Tables_number      9
_space_group_name_Hall           'C -2yc'
loop_
_symmetry_equiv_pos_site_id
_symmetry_equiv_pos_as_xyz
1 x,y,z
2 x,-y,1/2+z
3 1/2+x,1/2+y,z
4 1/2+x,1/2-y,1/2+z
_cell_length_a                   18.019(1)
_cell_length_b                   11.357(1)
_cell_length_c                   28.461(1)
_cell_angle_alpha                90
_cell_angle_beta                 98.183(1)
_cell_angle_gamma                90
_cell_volume                     5765.01
loop_
_atom_site_label
_atom_site_type_symbol
_atom_site_fract_x
_atom_site_fract_y
_atom_site_fract_z
Ni1 Ni 0.2365(1) 0.8599(1) 0.5283(1)
O1 O 0.3441(1) 0.8590(2) 0.5646(1)
O2 O 0.1263(1) 0.8682(2) 0.4945(1)
N1 N 0.2002(1) 0.8517(2) 0.5972(1)
N2 N 0.1104(2) 1.0086(2) 0.9079(1)
N3 N 0.2744(2) 0.8587(2) 0.4612(1)
N4 N 0.3633(2) 1.0147(3) 0.1478(1)
N5 N 0.2359(2) 0.6746(2) 0.5278(1)
N6 N 0.2360(2) 0.0498(2) 0.5296(1)
C1 C 0.2384(2) 0.7832(3) 0.6305(1)
C2 C 0.2266(2) 0.7865(3) 0.6775(1)
C3 C 0.1756(2) 0.8641(3) 0.6912(1)
C4 C 0.1332(2) 0.9298(3) 0.6564(1)
C5 C 0.1467(2) 0.9222(3) 0.6102(1)
C6 C 0.1667(2) 0.8754(3) 0.7431(1)
C7 C 0.1545(2) 0.9247(3) 0.8946(1)
C8 C 0.1620(2) 0.9017(3) 0.8483(1)
C9 C 0.1222(2) 0.9718(3) 0.8118(1)
C10 C 0.0765(2) 1.0574(3) 0.8259(1)
C11 C 0.0716(2) 1.0735(3) 0.8736(1)
C12 C 0.1290(2) 0.9573(3) 0.7611(1)
C13 C 0.2379(2) 0.7938(3) 0.4257(1)
C14 C 0.2495(2) 0.8006(4) 0.3793(1)
C15 C 0.3024(2) 0.8776(4) 0.3657(1)
C16 C 0.3430(2) 0.9420(3) 0.4026(1)
C17 C 0.3276(2) 0.9287(3) 0.4487(1)
C18 C 0.3076(2) 0.8887(4) 0.3158(2)
C19 C 0.3151(2) 0.9358(3) 0.1611(2)
C20 C 0.3084(3) 0.9151(4) 0.2095(2)
C21 C 0.3520(2) 0.9756(4) 0.2443(2)
C22 C 0.4025(3) 1.0544(4) 0.2308(2)
C23 C 0.4059(2) 1.0708(4) 0.1831(1)
C24 C 0.3482(2) 0.9612(4) 0.2962(1)
C25 C 0.1797(2) 0.6121(3) 0.5414(1)
C26 C 0.1780(2) 0.4918(3) 0.5419(1)
C27 C 0.2371(3) 0.4294(2) 0.5282(2)
C28 C 0.2959(2) 0.4921(3) 0.5143(1)
C29 C 0.2934(2) 0.6139(3) 0.5151(1)
C30 C 0.1727(2) 0.1135(3) 0.5209(1)
C31 C 0.1705(2) 0.2339(3) 0.5207(1)
C32 C 0.2365(3) 0.2985(2) 0.5291(2)
C33 C 0.3029(2) 0.2340(3) 0.5371(1)
C34 C 0.3000(2) 0.1114(3) 0.5374(1)
H1 H 0.3551 0.8935 0.5952
H2 H 0.3881 0.8384 0.5517
H3 H 0.1240 0.9256 0.4700
H4 H 0.0947 0.8027 0.4855
H5 H 0.2745 0.7310 0.6217
H6 H 0.2534 0.7358 0.6999
H7 H 0.0952 0.9796 0.6643
H8 H 0.1176 0.9678 0.5869
H9 H 0.1904 0.8185 0.7641
H10 H 0.1820 0.8784 0.9183
H11 H 0.1931 0.8402 0.8408
H12 H 0.0483 1.1055 0.8031
H13 H 0.0396 1.1325 0.8823
H14 H 0.1038 1.0123 0.7399
H15 H 0.2019 0.7399 0.4333
H16 H 0.2214 0.7527 0.3564
H17 H 0.3807 0.9944 0.3962
H18 H 0.3566 0.9720 0.4727
H19 H 0.2778 0.8369 0.2953
H20 H 0.2848 0.8925 0.1376
H21 H 0.2737 0.8594 0.2176
H22 H 0.4345 1.0967 0.2537
H23 H 0.4409 1.1257 0.1749
H24 H 0.3792 1.0111 0.3168
H25 H 0.1393 0.6532 0.5512
H26 H 0.1369 0.4519 0.5514
H27 H 0.3369 0.4527 0.5046
H28 H 0.3342 0.6559 0.5063
H29 H 0.1270 0.0726 0.5147
H30 H 0.1242 0.2730 0.5148
H31 H 0.3494 0.2729 0.5422
H32 H 0.3454 0.0696 0.5434
N6_2 N 0.2360(2) 1.0498(2) 0.5296(1)
Ni1_2 Ni 0.2365(1) -0.1401(1) 0.5283(1)
N7 N 0.0398(2) 0.6253(3) 0.6264(1)
N8 N -0.0194(2) 0.7662(3) 0.9449(1)
C35 C 0.0809(2) 0.5623(3) 0.6603(2)
C36 C 0.0784(2) 0.5769(4) 0.7077(2)
C37 C 0.0309(2) 0.6636(3) 0.7237(1)
C38 C -0.0098(2) 0.7316(3) 0.6887(1)
C39 C -0.0037(2) 0.7077(3) 0.6418(2)
C40 C 0.0283(2) 0.6747(3) 0.7746(1)
C41 C 0.0186(3) 0.6802(4) 0.9258(2)
C42 C 0.0248(2) 0.6701(4) 0.8771(2)
C43 C -0.0120(2) 0.7524(4) 0.8472(2)
C44 C -0.0513(3) 0.8370(4) 0.8645(2)
C45 C -0.0553(3) 0.8427(4) 0.9143(2)
C46 C -0.0102(2) 0.7492(4) 0.7946(1)
H33 H 0.1134 0.5047 0.6510
H34 H 0.1083 0.5293 0.7299
H35 H -0.0409 0.7927 0.6967
H36 H -0.0328 0.7537 0.6187
H37 H 0.0579 0.6217 0.7946
H38 H 0.0425 0.6228 0.9464
H39 H 0.0531 0.6096 0.8657
H40 H -0.0765 0.8934 0.8440
H41 H -0.0842 0.9023 0.9257
H42 H -0.0388 0.8049 0.7754
N9 N 0.3681(4) 0.5176(7) 0.6778(2)
C47 C 0.3100(5) 0.4630(7) 0.6931(3)
C48 C 0.2894(5) 0.4833(9) 0.7373(3)
C49 C 0.3298(6) 0.5644(9) 0.7680(3)
C50 C 0.3906(6) 0.6191(8) 0.7525(3)
C51 C 0.4077(4) 0.5937(7) 0.7079(3)
N10 N 0.2757(5) 0.6477(7) 0.9043(3)
C52 C 0.2414(5) 0.5603(8) 0.8778(3)
C53 C 0.2589(6) 0.5308(8) 0.8336(3)
C54 C 0.3148(6) 0.5934(10) 0.8148(3)
C55 C 0.3492(5) 0.6851(10) 0.8417(3)
C56 C 0.3284(5) 0.7092(7) 0.8855(3)
H43 H 0.2816 0.4073 0.6725
H44 H 0.2475 0.4421 0.7469
H45 H 0.4205 0.6743 0.7726
H46 H 0.4501 0.6322 0.6977
H47 H 0.2031 0.5163 0.8902
H48 H 0.2328 0.4677 0.8159
H49 H 0.3872 0.7314 0.8300
H50 H 0.3527 0.7732 0.9036
N11 N 0.0940(2) 0.2246(3) 0.6441(1)
O3 O 0.1504(3) 0.2837(5) 0.6414(2)
O4 O 0.0596(3) 0.1793(4) 0.6082(1)
O5 O 0.0720(3) 0.2108(5) 0.6827(1)
N12 N 0.0372(2) 0.3630(2) 0.8517(1)
O6 O 0.1019(2) 0.3872(4) 0.8691(2)
O7 O -0.0139(2) 0.3709(4) 0.8759(2)
O8 O 0.0238(3) 0.3310(4) 0.8101(1)
O9 O 0.1649(2) 0.3167(3) 0.7647(1)
H51 H 0.1549 0.2945 0.7323
H52 H 0.1214 0.3451 0.7764
O10 O 0.0181(3) 0.7072(4) 0.4714(2)
H53 H -0.0037 0.6556 0.4919
H54 H -0.0010 0.6944 0.4389
O11 O -0.0139(2) 0.5464(3) 0.5351(1)
H55 H 0.0053 0.4752 0.5240
H56 H 0.0036 0.5601 0.5677
O12 O -0.0242(1) 0.3006(3) 0.5358(1)
H57 H -0.0169 0.2624 0.5071
H58 H 0.0087 0.2718 0.5624
O13 O 0.4498(6) 0.4986(9) 0.5977(4)
H59 H 0.4553 0.5546 0.6247
O14 O 0.4735(9) 0.4494(14) 0.5094(6)
N13? N 0.3722(3) 0.4404(4) 0.6210(2)
C57? C 0.3189(3) 0.4042(7) 0.6457(2)
C58? C 0.3089(4) 0.4454(6) 0.6905(3)
C59? C 0.3585(4) 0.5293(6) 0.7115(2)
C60? C 0.4111(4) 0.5679(6) 0.6872(3)
C61? C 0.4179(4) 0.5240(5) 0.6412(3)
C62? C 0.3522(3) 0.5760(7) 0.7574(2)
N14? N 0.2777(3) 0.6800(5) 0.9236(2)
C63? C 0.2326(3) 0.5997(6) 0.9000(3)
C64? C 0.2427(4) 0.5569(6) 0.8540(2)
C65? C 0.2984(3) 0.5996(5) 0.8320(2)
C66? C 0.3456(4) 0.6817(6) 0.8579(2)
C67? C 0.3346(4) 0.7195(7) 0.9024(3)
C68? C 0.3056(4) 0.5523(6) 0.7859(2)
N15? N 0.0966(7) 0.2424(9) 0.6458(4)
O15? O 0.1447(9) 0.3098(16) 0.6348(6)
O16? O 0.0441(9) 0.2116(16) 0.6158(6)
O17? O 0.1009(10) 0.2056(16) 0.6867(5)
N16? N 0.0494(5) 0.3780(7) 0.8564(3)
O18? O 0.0913(7) 0.3936(15) 0.8939(3)
O19? O -0.0159(6) 0.3474(14) 0.8569(5)
O20? O 0.0730(7) 0.3930(12) 0.8183(3)
O21? O 0.0543(8) 0.6691(13) 0.4636(5)
H60? H 0.2854 0.3463 0.6319
H61? H 0.2697 0.4170 0.7059
H62? H 0.4449 0.6258 0.7007
H63? H 0.3881 0.6334 0.7683
H64? H 0.1925 0.5700 0.9142
H65? H 0.2103 0.4988 0.8391
H66? H 0.3863 0.7123 0.8444
H67? H 0.3680 0.7746 0.9184
H68? H 0.2701 0.4943 0.7750
loop_
_geom_bond_atom_site_label_1
_geom_bond_atom_site_label_2
_geom_bond_site_symmetry_1
_geom_bond_site_symmetry_2
Ni1 O1 1_555 1_555
O1 H1 1_555 1_555
O2 Ni1 1_555 1_555
N1 Ni1 1_555 1_555
N2 C7 1_555 1_555
N3 Ni1 1_555 1_555
N4 C19 1_555 1_555
N5 Ni1 1_555 1_555
N6 C30 1_555 1_555
C1 N1 1_555 1_555
C2 C1 1_555 1_555
C3 C2 1_555 1_555
C4 C3 1_555 1_555
C5 N1 1_555 1_555
C6 C3 1_555 1_555
C7 C8 1_555 1_555
C8 C9 1_555 1_555
C9 C10 1_555 1_555
C10 C11 1_555 1_555
C11 N2 1_555 1_555
C12 C6 1_555 1_555
C13 N3 1_555 1_555
C14 C13 1_555 1_555
C15 C14 1_555 1_555
C16 C15 1_555 1_555
C17 N3 1_555 1_555
C18 C15 1_555 1_555
C19 C20 1_555 1_555
C20 C21 1_555 1_555
C21 C22 1_555 1_555
C22 C23 1_555 1_555
C23 N4 1_555 1_555
C24 C18 1_555 1_555
C25 N5 1_555 1_555
C26 C25 1_555 1_555
C27 C26 1_555 1_555
C28 C27 1_555 1_555
C29 N5 1_555 1_555
C30 C31 1_555 1_555
C31 C32 1_555 1_555
C32 C27 1_555 1_555
C33 C32 1_555 1_555
C34 N6 1_555 1_555
H2 O1 1_555 1_555
H3 O2 1_555 1_555
H4 O2 1_555 1_555
H5 C1 1_555 1_555
H6 C2 1_555 1_555
H7 C4 1_555 1_555
H8 C5 1_555 1_555
H9 C6 1_555 1_555
H10 C7 1_555 1_555
H11 C8 1_555 1_555
H12 C10 1_555 1_555
H13 C11 1_555 1_555
H14 C12 1_555 1_555
H15 C13 1_555 1_555
H16 C14 1_555 1_555
H17 C16 1_555 1_555
H18 C17 1_555 1_555
H19 C18 1_555 1_555
H20 C19 1_555 1_555
H21 C20 1_555 1_555
H22 C22 1_555 1_555
H23 C23 1_555 1_555
H24 C24 1_555 1_555
H25 C25 1_555 1_555
H26 C26 1_555 1_555
H27 C28 1_555 1_555
H28 C29 1_555 1_555
H29 C30 1_555 1_555
H30 C31 1_555 1_555
H31 C33 1_555 1_555
H32 C34 1_555 1_555
N7 C35 1_555 1_555
N8 C41 1_555 1_555
C35 C36 1_555 1_555
C36 C37 1_555 1_555
C37 C38 1_555 1_555
C38 C39 1_555 1_555
C39 N7 1_555 1_555
C40 C37 1_555 1_555
C41 C42 1_555 1_555
C42 C43 1_555 1_555
C43 C44 1_555 1_555
C44 C45 1_555 1_555
C45 N8 1_555 1_555
C46 C40 1_555 1_555
H33 C35 1_555 1_555
H34 C36 1_555 1_555
H35 C38 1_555 1_555
H36 C39 1_555 1_555
H37 C40 1_555 1_555
H38 C41 1_555 1_555
H39 C42 1_555 1_555
H40 C44 1_555 1_555
H41 C45 1_555 1_555
H42 C46 1_555 1_555
N9 C47 1_555 1_555
C47 C48 1_555 1_555
C48 C49 1_555 1_555
C49 C50 1_555 1_555
C50 C51 1_555 1_555
C51 N9 1_555 1_555
N10 C52 1_555 1_555
C52 C53 1_555 1_555
C53 C54 1_555 1_555
C54 C49 1_555 1_555
C55 C54 1_555 1_555
C56 N10 1_555 1_555
H43 C47 1_555 1_555
H44 C48 1_555 1_555
H45 C50 1_555 1_555
H46 C51 1_555 1_555
H47 C52 1_555 1_555
H48 C53 1_555 1_555
H49 C55 1_555 1_555
H50 C56 1_555 1_555
N11 O3 1_555 1_555
O4 N11 1_555 1_555
O5 N11 1_555 1_555
N12 O6 1_555 1_555
O7 N12 1_555 1_555
O8 N12 1_555 1_555
O9 H51 1_555 1_555
H52 O9 1_555 1_555
O10 H53 1_555 1_555
H54 O10 1_555 1_555
O11 H55 1_555 1_555
H56 O11 1_555 1_555
O12 H57 1_555 1_555
H58 O12 1_555 1_555
O13 H59 1_555 1_555
N6_2 Ni1 1_555 1_555
Ni1_2 N6 1_555 1_555
C4 C5 1_555 1_555
C9 C12 1_555 1_555
C16 C17 1_555 1_555
C21 C24 1_555 1_555
C28 C29 1_555 1_555
C33 C34 1_555 1_555
C43 C46 1_555 1_555
C55 C56 1_555 1_555

#END
