
#######################################################################
#
#                 Cambridge Crystallographic Data Centre
#                                CCDC 
#
#######################################################################
#
# If this CIF has been generated from an entry in the Cambridge 
# Structural Database, then it will include bibliographic, chemical, 
# crystal, experimental, refinement or atomic coordinate data resulting 
# from the CCDC's data processing and validation procedures.
#
#######################################################################

data_HACTIQ
_symmetry_cell_setting           triclinic
_symmetry_space_group_name_H-M   'P -1'
_symmetry_Int_Tables_number      2
_space_group_name_Hall           '-P 1'
loop_
_symmetry_equiv_pos_site_id
_symmetry_equiv_pos_as_xyz
1 x,y,z
2 -x,-y,-z
_cell_length_a                   9.3468(19)
_cell_length_b                   9.4607(14)
_cell_length_c                   15.581(3)
_cell_angle_alpha                90.44(4)
_cell_angle_beta                 101.13(3)
_cell_angle_gamma                113.97(3)
_cell_volume                     1229.57
loop_
_atom_site_label
_atom_site_type_symbol
_atom_site_fract_x
_atom_site_fract_y
_atom_site_fract_z
Pb1 Pb 0.36571(2) 0.74927(2) 0.158354(13)
F1 F 1.1027(5) 0.1292(5) 0.7653(2)
O1 O 0.5365(5) 0.8246(4) 0.0548(2)
O2 O 0.6372(5) 1.0032(5) 0.1683(2)
N1 N 0.5035(5) 0.7615(5) 0.3239(3)
N2 N 0.5204(5) 0.5859(5) 0.1913(3)
N3 N 0.7676(5) 0.3436(5) 0.4204(3)
N4 N 0.7629(5) 0.4974(5) 0.5276(3)
H1 H 0.7771 0.5401 0.5793
C1 C 0.5054(8) 0.8563(7) 0.3867(4)
H2 H 0.4618 0.9275 0.3716
C2 C 0.5702(8) 0.8546(7) 0.4752(4)
H3 H 0.5720 0.9258 0.5174
C3 C 0.6305(7) 0.7487(7) 0.4995(4)
H4 H 0.6708 0.7446 0.5584
C4 C 0.6308(6) 0.6467(6) 0.4348(3)
C5 C 0.5681(6) 0.6583(6) 0.3462(3)
C6 C 0.5738(6) 0.5604(6) 0.2751(3)
C7 C 0.5365(7) 0.5069(7) 0.1260(4)
H5 H 0.5039 0.5266 0.0688
C8 C 0.5994(7) 0.3960(7) 0.1380(4)
H6 H 0.6066 0.3424 0.0899
C9 C 0.6499(7) 0.3677(7) 0.2208(4)
H7 H 0.6915 0.2935 0.2301
C10 C 0.6393(6) 0.4506(6) 0.2927(3)
C11 C 0.6963(6) 0.4381(6) 0.3832(3)
C12 C 0.6934(6) 0.5319(6) 0.4498(3)
C13 C 0.8045(7) 0.3837(7) 0.5071(4)
C14 C 0.8831(7) 0.3165(6) 0.5740(4)
C15 C 0.9140(7) 0.3678(7) 0.6629(4)
H8 H 0.8852 0.4459 0.6789
C16 C 0.9866(7) 0.3045(7) 0.7270(4)
H9 H 1.0070 0.3387 0.7860
C17 C 1.0278(7) 0.1901(7) 0.7017(4)
C18 C 0.9997(8) 0.1339(7) 0.6157(4)
H10 H 1.0293 0.0557 0.6008
C19 C 0.9257(7) 0.1977(6) 0.5520(4)
H11 H 0.9040 0.1608 0.4933
C20 C 0.6406(7) 0.9532(6) 0.0937(3)
C21 C 0.7704(6) 1.0484(6) 0.0480(3)
C22 C 0.8880(6) 1.1928(6) 0.0879(3)
H12 H 0.8847 1.2294 0.1427
C23 C 1.0088(6) 1.2816(6) 0.0466(3)
C24 C 1.0142(7) 1.2226(6) -0.0355(3)
H13 H 1.0962 1.2801 -0.0633
C25 C 0.8991(7) 1.0809(6) -0.0748(4)
H14 H 0.9032 1.0433 -0.1291
C26 C 0.7775(7) 0.9946(6) -0.0336(4)
H15 H 0.6995 0.8993 -0.0608
O4 O 1.2212(4) 1.5277(4) 0.0435(2)
O5 O 1.1499(5) 1.4677(4) 0.1710(2)
C27 C 1.1342(7) 1.4350(6) 0.0893(4)
Pb1_2 Pb 1.36571(2) 1.74927(2) 0.158354(13)
O4_2 O 0.2212(4) 0.5277(4) 0.0435(2)
O5_2 O 0.1499(5) 0.4677(4) 0.1710(2)
O3 O 0.8546(6) 0.1374(5) 0.3271(3)
H16 H 0.946(5) 0.185(7) 0.316(5)
H17 H 0.819(7) 0.203(6) 0.336(5)
O6 O 1.1678(7) 0.2937(7) 0.3098(3)
H18 H 1.184(12) 0.223(7) 0.283(5)
H19 H 1.164(11) 0.355(8) 0.271(4)
O7 O 1.3351(9) 0.0889(8) 0.2847(5)
H20 H 1.389(10) 0.076(15) 0.253(6)
H21 H 1.387(11) 0.132(13) 0.333(4)
loop_
_geom_bond_atom_site_label_1
_geom_bond_atom_site_label_2
_geom_bond_site_symmetry_1
_geom_bond_site_symmetry_2
Pb1 O1 1_555 1_555
F1 C17 1_555 1_555
O1 C20 1_555 1_555
O2 Pb1 1_555 1_555
N1 Pb1 1_555 1_555
N2 Pb1 1_555 1_555
N3 C11 1_555 1_555
N4 H1 1_555 1_555
C1 N1 1_555 1_555
H2 C1 1_555 1_555
C2 C1 1_555 1_555
H3 C2 1_555 1_555
C3 C2 1_555 1_555
H4 C3 1_555 1_555
C4 C3 1_555 1_555
C5 N1 1_555 1_555
C6 N2 1_555 1_555
C7 N2 1_555 1_555
H5 C7 1_555 1_555
C8 C7 1_555 1_555
H6 C8 1_555 1_555
C9 C8 1_555 1_555
H7 C9 1_555 1_555
C10 C6 1_555 1_555
C11 C10 1_555 1_555
C12 N4 1_555 1_555
C13 N3 1_555 1_555
C14 C13 1_555 1_555
C15 C14 1_555 1_555
H8 C15 1_555 1_555
C16 C15 1_555 1_555
H9 C16 1_555 1_555
C17 C16 1_555 1_555
C18 C17 1_555 1_555
H10 C18 1_555 1_555
C19 C14 1_555 1_555
H11 C19 1_555 1_555
C20 O2 1_555 1_555
C21 C20 1_555 1_555
C22 C21 1_555 1_555
H12 C22 1_555 1_555
C23 C22 1_555 1_555
C24 C23 1_555 1_555
H13 C24 1_555 1_555
C25 C24 1_555 1_555
H14 C25 1_555 1_555
C26 C21 1_555 1_555
H15 C26 1_555 1_555
O3 H16 1_555 1_555
H17 O3 1_555 1_555
O4 C27 1_555 1_555
O5 C27 1_555 1_555
C27 C23 1_555 1_555
O6 H18 1_555 1_555
H19 O6 1_555 1_555
O7 H20 1_555 1_555
H21 O7 1_555 1_555
Pb1_2 O4 1_555 1_555
O4_2 Pb1 1_555 1_555
O5_2 Pb1 1_555 1_555
N4 C13 1_555 1_555
C4 C5 1_555 1_555
C4 C12 1_555 1_555
C5 C6 1_555 1_555
C9 C10 1_555 1_555
C11 C12 1_555 1_555
C18 C19 1_555 1_555
C25 C26 1_555 1_555
O5 Pb1_2 1_555 1_555

#END
