
#######################################################################
#
#                 Cambridge Crystallographic Data Centre
#                                CCDC 
#
#######################################################################
#
# If this CIF has been generated from an entry in the Cambridge 
# Structural Database, then it will include bibliographic, chemical, 
# crystal, experimental, refinement or atomic coordinate data resulting 
# from the CCDC's data processing and validation procedures.
#
#######################################################################

data_HACTEL
_symmetry_cell_setting           monoclinic
_symmetry_space_group_name_H-M   'C 2/c'
_symmetry_Int_Tables_number      15
_space_group_name_Hall           '-C 2yn'
loop_
_symmetry_equiv_pos_site_id
_symmetry_equiv_pos_as_xyz
1 x,y,z
2 1/2+x,1/2+y,z
3 x,-y,1/2+z
4 1/2+x,1/2-y,1/2+z
5 -x,-y,-z
6 1/2-x,1/2-y,-z
7 -x,y,1/2-z
8 1/2-x,1/2+y,1/2-z
_cell_length_a                   19.965(1)
_cell_length_b                   18.731(1)
_cell_length_c                   27.203(1)
_cell_angle_alpha                90
_cell_angle_beta                 110.190(1)
_cell_angle_gamma                90
_cell_volume                     9547.86
loop_
_atom_site_label
_atom_site_type_symbol
_atom_site_fract_x
_atom_site_fract_y
_atom_site_fract_z
Co1 Co 0.35499(5) 1.02671(5) 0.08701(4)
S1 S 0.5255(2) 0.8401(2) 0.1266(3)
S2 S 0.1927(4) 1.2216(3) 0.0547(2)
N1 N 0.2811(3) 0.9380(3) 0.0820(2)
N2 N -0.0694(4) 0.6121(4) 0.0901(3)
N3 N 0.3588(4) 1.0420(4) 0.1688(3)
N4 N 0.3472(4) 0.9978(4) 0.5063(3)
N5 N 0.4411(4) 0.9581(4) 0.1127(3)
N6 N 0.2749(4) 1.0985(4) 0.0607(3)
C1 C 0.2165(5) 0.9500(5) 0.0857(4)
H1 H 0.2036 0.9965 0.0904
C2 C 0.1687(5) 0.8954(5) 0.0826(4)
H2 H 0.1254 0.9065 0.0864
C3 C 0.1823(5) 0.8255(5) 0.0740(4)
C4 C 0.2490(5) 0.8137(5) 0.0696(4)
H3 H 0.2620 0.7678 0.0635
C5 C 0.2960(5) 0.8697(4) 0.0744(4)
H4 H 0.3405 0.8596 0.0721
C6 C 0.1287(5) 0.7664(6) 0.0665(4)
C7 C 0.0915(6) 0.7644(5) 0.0949(4)
H5 H 0.0988 0.8000 0.1200
C8 C -0.0119(6) 0.6256(5) 0.1317(4)
H6 H -0.0071 0.5996 0.1618
C9 C 0.0402(5) 0.6730(5) 0.1349(4)
H7 H 0.0779 0.6798 0.1662
C10 C 0.0360(5) 0.7097(5) 0.0921(4)
N10 N -0.0183(6) 0.6982(6) 0.0484(5)
C11 C -0.0740(5) 0.6515(5) 0.0483(5)
H8 H -0.1147 0.6484 0.0185
C12 C 0.1262(6) 0.7107(5) 0.0235(4)
H9 H 0.0921 0.6742 0.0227
H10 H 0.1725 0.6896 0.0311
H11 H 0.1123 0.7340 -0.0100
C13 C 0.3192(7) 1.0932(7) 0.1821(4)
H12 H 0.2973 1.1286 0.1579
C14 C 0.3112(8) 1.0937(9) 0.2294(5)
H13 H 0.2836 1.1291 0.2370
C15 C 0.3440(8) 1.0415(10) 0.2675(4)
C16 C 0.3853(9) 0.9891(8) 0.2536(4)
H14 H 0.4088 0.9539 0.2773
C17 C 0.3900(7) 0.9912(7) 0.2051(4)
H15 H 0.4162 0.9557 0.1962
C18 C 0.3190(6) 1.0572(7) 0.3288(7)
C19 C 0.3547(7) 1.0178(7) 0.3437(9)
H16 H 0.3838 0.9905 0.3308
C20 C 0.4045(5) 1.0063(6) 0.4918(4)
H17 H 0.4487 1.0043 0.5184
C21 C 0.4054(6) 1.0171(6) 0.4449(4)
H18 H 0.4480 1.0220 0.4385
C22 C 0.3399(9) 1.0210(7) 0.4049(5)
N11 N 0.2787(7) 1.0163(8) 0.4166(4)
C23 C 0.2848(6) 1.0028(6) 0.4687(4)
H19 H 0.2436 0.9972 0.4768
C24 C 0.2655(6) 1.1141(5) 0.3208(4)
H20 H 0.2267 1.1058 0.2886
H21 H 0.2870 1.1594 0.3191
H22 H 0.2478 1.1142 0.3494
C37 C 0.4767(5) 0.9090(5) 0.1190(4)
C38 C 0.2409(6) 1.1495(6) 0.0565(4)
N2A N 0.4306(4) 1.1121(4) 0.0901(3)
N4B N 0.3472(4) 1.0022(4) 0.0063(3)
Co1A Co -0.14501(5) 0.52671(5) 0.08701(4)
Co1B Co 0.35499(5) 0.97329(5) 0.58701(4)
Co2 Co 0.0000 0.11630(7) 0.2500
S3 S -0.1441(2) 0.1381(2) 0.06954(14)
N7 N 0.0763(4) 0.1962(4) 0.2473(3)
N8 N 0.4287(3) 0.5304(3) 0.2547(3)
N9 N -0.0466(4) 0.1190(4) 0.1694(3)
C25 C 0.1019(6) 0.2471(5) 0.2811(5)
H23 H 0.0833 0.2527 0.3078
C26 C 0.1555(7) 0.2935(6) 0.2795(7)
H24 H 0.1720 0.3286 0.3050
C27 C 0.1843(6) 0.2877(8) 0.2400(9)
C28 C 0.1587(5) 0.2375(6) 0.2072(7)
H25 H 0.1768 0.2304 0.1804
C29 C 0.1052(5) 0.1934(5) 0.2103(5)
H26 H 0.0881 0.1589 0.1843
C30 C 0.2470(13) 0.3398(9) 0.2239(8)
C31 C 0.2612(14) 0.3622(11) 0.2617(6)
C32 C 0.4119(7) 0.5116(6) 0.2944(5)
H27 H 0.4342 0.5375 0.3249
C33 C 0.3668(8) 0.4599(8) 0.2988(6)
H28 H 0.3611 0.4497 0.3306
C34 C 0.3304(5) 0.4240(6) 0.2543(6)
N12 N 0.3474(6) 0.4377(6) 0.2092(5)
C35 C 0.3953(6) 0.4918(6) 0.2135(5)
H29 H 0.4052 0.5025 0.1834
C36 C 0.2440(14) 0.3266(14) 0.1706(8)
C39 C -0.0872(5) 0.1269(4) 0.1280(4)
N7F N -0.0763(4) 0.1962(4) 0.2527(3)
N8F N -0.4287(3) 0.5304(3) 0.2453(3)
C25F C -0.1019(6) 0.2471(5) 0.2189(5)
H23F H -0.0833 0.2527 0.1922
C26F C -0.1555(7) 0.2935(6) 0.2205(7)
H24F H -0.1720 0.3286 0.1950
C27F C -0.1843(6) 0.2877(8) 0.2600(9)
C28F C -0.1587(5) 0.2375(6) 0.2928(7)
H25F H -0.1768 0.2304 0.3196
C29F C -0.1052(5) 0.1934(5) 0.2897(5)
H26F H -0.0881 0.1589 0.3157
C30F C -0.2470(13) 0.3398(9) 0.2761(8)
C31F C -0.2612(14) 0.3622(11) 0.2383(6)
C32F C -0.4119(7) 0.5116(6) 0.2056(5)
H27F H -0.4342 0.5375 0.1751
C33F C -0.3668(8) 0.4599(8) 0.2012(6)
H28F H -0.3611 0.4497 0.1694
C34F C -0.3304(5) 0.4240(6) 0.2457(6)
N12F N -0.3474(6) 0.4377(6) 0.2908(5)
C35F C -0.3953(6) 0.4918(6) 0.2865(5)
H29F H -0.4052 0.5025 0.3166
C36F C -0.2440(14) 0.3266(14) 0.3294(8)
S3F S 0.1441(2) 0.1381(2) 0.43046(14)
N9F N 0.0466(4) 0.1190(4) 0.3306(3)
C39F C 0.0872(5) 0.1269(4) 0.3720(4)
N8A N -0.0713(3) 0.0304(3) 0.2547(3)
N8G N 0.0713(3) 0.0304(3) 0.2453(3)
Co2A Co 0.5000 0.61630(7) 0.2500
Co2A_2 Co -0.5000 0.61630(7) 0.2500
O1 O 0.0901(10) 0.0801(10) 0.0915(8)
C41 C 0.0457(17) 0.0721(18) 0.0436(13)
O2 O 0.0000 0.6981(17) 0.2500
C43 C 0.0000 0.770(5) 0.2500
O3 O 0.399(2) 0.3952(19) 0.0913(13)
C44 C 0.452(3) 0.356(3) 0.134(2)
C40? C 0.029(3) 0.148(3) 0.050(2)
C42? C 0.055(3) 0.742(3) 0.263(2)
C45? C 0.471(3) 0.395(3) 0.108(2)
loop_
_geom_bond_atom_site_label_1
_geom_bond_atom_site_label_2
_geom_bond_site_symmetry_1
_geom_bond_site_symmetry_2
Co1 N1 1_555 1_555
Co2 N7 1_555 1_555
S1 C37 1_555 1_555
S2 C38 1_555 1_555
S3 C39 1_555 1_555
N1 C1 1_555 1_555
N2 C8 1_555 1_555
N3 Co1 1_555 1_555
N4 C20 1_555 1_555
N5 Co1 1_555 1_555
N6 Co1 1_555 1_555
N7 C25 1_555 1_555
N8 C32 1_555 1_555
N9 Co2 1_555 1_555
C1 H1 1_555 1_555
C2 C1 1_555 1_555
H2 C2 1_555 1_555
C3 C2 1_555 1_555
C4 C3 1_555 1_555
H3 C4 1_555 1_555
C5 N1 1_555 1_555
H4 C5 1_555 1_555
C6 C3 1_555 1_555
C7 C6 1_555 1_555
H5 C7 1_555 1_555
C8 H6 1_555 1_555
C9 C8 1_555 1_555
H7 C9 1_555 1_555
C10 C7 1_555 1_555
N10 C10 1_555 1_555
C11 N2 1_555 1_555
H8 C11 1_555 1_555
C12 C6 1_555 1_555
H9 C12 1_555 1_555
H10 C12 1_555 1_555
H11 C12 1_555 1_555
C13 N3 1_555 1_555
H12 C13 1_555 1_555
C14 C13 1_555 1_555
H13 C14 1_555 1_555
C15 C14 1_555 1_555
C16 C15 1_555 1_555
H14 C16 1_555 1_555
C17 N3 1_555 1_555
H15 C17 1_555 1_555
C18 C15 1_555 1_555
C19 C18 1_555 1_555
H16 C19 1_555 1_555
C20 H17 1_555 1_555
C21 C20 1_555 1_555
H18 C21 1_555 1_555
C22 C19 1_555 1_555
N11 C22 1_555 1_555
C23 N4 1_555 1_555
H19 C23 1_555 1_555
C24 C18 1_555 1_555
H20 C24 1_555 1_555
H21 C24 1_555 1_555
H22 C24 1_555 1_555
C25 H23 1_555 1_555
C26 C25 1_555 1_555
H24 C26 1_555 1_555
C27 C26 1_555 1_555
C28 C27 1_555 1_555
H25 C28 1_555 1_555
C29 N7 1_555 1_555
H26 C29 1_555 1_555
C30 C27 1_555 1_555
C31 C30 1_555 1_555
C32 H27 1_555 1_555
C33 C32 1_555 1_555
H28 C33 1_555 1_555
C34 C31 1_555 1_555
N12 C34 1_555 1_555
C35 N8 1_555 1_555
H29 C35 1_555 1_555
C36 C30 1_555 1_555
C37 N5 1_555 1_555
C38 N6 1_555 1_555
C39 N9 1_555 1_555
O1 C41 1_555 1_555
O2 C43 1_555 1_555
O3 C44 1_555 1_555
N7F Co2 1_555 1_555
N8F C32F 1_555 1_555
C25F N7F 1_555 1_555
H23F C25F 1_555 1_555
C26F C25F 1_555 1_555
H24F C26F 1_555 1_555
C27F C26F 1_555 1_555
C28F C27F 1_555 1_555
H25F C28F 1_555 1_555
C29F N7F 1_555 1_555
H26F C29F 1_555 1_555
C30F C27F 1_555 1_555
C31F C30F 1_555 1_555
C32F H27F 1_555 1_555
C33F C32F 1_555 1_555
H28F C33F 1_555 1_555
C34F C31F 1_555 1_555
N12F C34F 1_555 1_555
C35F N8F 1_555 1_555
H29F C35F 1_555 1_555
C36F C30F 1_555 1_555
S3F C39F 1_555 1_555
N9F Co2 1_555 1_555
C39F N9F 1_555 1_555
N2A Co1 1_555 1_555
N4B Co1 1_555 1_555
N8A Co2 1_555 1_555
N8G Co2 1_555 1_555
Co1A N2 1_555 1_555
Co1B N4 1_555 1_555
Co2A N8 1_555 1_555
Co2A_2 N8F 1_555 1_555
C4 C5 1_555 1_555
C9 C10 1_555 1_555
N10 C11 1_555 1_555
C16 C17 1_555 1_555
C21 C22 1_555 1_555
N11 C23 1_555 1_555
C28 C29 1_555 1_555
C33 C34 1_555 1_555
N12 C35 1_555 1_555
C28F C29F 1_555 1_555
C33F C34F 1_555 1_555
N12F C35F 1_555 1_555

#END
