
#######################################################################
#
#                 Cambridge Crystallographic Data Centre
#                                CCDC 
#
#######################################################################
#
# If this CIF has been generated from an entry in the Cambridge 
# Structural Database, then it will include bibliographic, chemical, 
# crystal, experimental, refinement or atomic coordinate data resulting 
# from the CCDC's data processing and validation procedures.
#
#######################################################################

data_HACTEM
_symmetry_cell_setting           triclinic
_symmetry_space_group_name_H-M   'P -1'
_symmetry_Int_Tables_number      2
_space_group_name_Hall           '-P 1'
loop_
_symmetry_equiv_pos_site_id
_symmetry_equiv_pos_as_xyz
1 x,y,z
2 -x,-y,-z
_cell_length_a                   9.640(6)
_cell_length_b                   10.941(8)
_cell_length_c                   11.865(5)
_cell_angle_alpha                62.694(4)
_cell_angle_beta                 69.776(3)
_cell_angle_gamma                79.915(5)
_cell_volume                     1043.21
loop_
_atom_site_label
_atom_site_type_symbol
_atom_site_fract_x
_atom_site_fract_y
_atom_site_fract_z
C1 C 0.3899(4) 0.0693(3) 0.6739(3)
H1 H 0.4690 0.0082 0.6666
C2 C 0.2821(4) 0.0811(4) 0.6163(4)
H2 H 0.2895 0.0277 0.5720
C3 C 0.1654(4) 0.1706(4) 0.6245(4)
H3 H 0.0922 0.1781 0.5870
C4 C 0.1581(3) 0.2514(3) 0.6909(3)
C5 C 0.2702(3) 0.2328(3) 0.7478(3)
C6 C 0.2726(3) 0.3111(3) 0.8169(3)
C7 C 0.3904(3) 0.3487(4) 0.9372(3)
H4 H 0.4645 0.3258 0.9775
C8 C 0.2909(4) 0.4564(4) 0.9465(4)
H5 H 0.3008 0.5049 0.9902
C9 C 0.1795(3) 0.4888(3) 0.8907(3)
H6 H 0.1128 0.5600 0.8959
C10 C 0.1659(3) 0.4141(3) 0.8251(3)
C11 C 0.0521(3) 0.4326(3) 0.7670(3)
C12 C 0.0478(3) 0.3520(3) 0.7068(3)
C13 C -0.1420(3) 0.4925(3) 0.7072(3)
C14 C -0.2824(3) 0.5598(3) 0.6857(3)
C15 C -0.3521(4) 0.5348(3) 0.6135(4)
H7 H -0.3103 0.4727 0.5770
C16 C -0.4839(4) 0.6028(4) 0.5963(4)
H8 H -0.5310 0.5879 0.5474
C17 C -0.5432(4) 0.6917(4) 0.6524(4)
C18 C -0.4794(4) 0.7169(4) 0.7266(4)
H9 H -0.5249 0.7760 0.7660
C19 C -0.3465(4) 0.6525(3) 0.7411(3)
H10 H -0.2992 0.6706 0.7880
C20 C 0.7549(3) 0.1038(3) 0.6595(3)
C21 C 0.8810(3) 0.0494(3) 0.5754(3)
C22 C 0.9259(3) -0.0880(3) 0.6292(3)
H11 H 0.8761 -0.1470 0.7160
C23 C 0.9552(3) 0.1372(3) 0.4467(3)
H12 H 0.9255 0.2291 0.4109
C24 C 0.7167(3) 0.1394(3) 0.9824(3)
C25 C 0.8641(3) 0.0654(3) 0.9918(3)
C26 C 0.9137(3) -0.0356(3) 0.9474(3)
H13 H 0.8564 -0.0596 0.9119
C27 C 0.9503(3) 0.1017(3) 1.0444(3)
H14 H 0.9171 0.1700 1.0741
N1 N 0.3842(3) 0.1423(3) 0.7391(3)
N2 N 0.3833(3) 0.2785(3) 0.8736(3)
N3 N -0.0671(3) 0.5215(3) 0.7656(3)
N4 N -0.0765(3) 0.3920(3) 0.6672(3)
H15 H -0.1072 0.3605 0.6258
O1 O 0.7447(3) 0.2291(3) 0.6287(3)
O2 O 0.6650(2) 0.0176(2) 0.7588(2)
O3 O 0.6247(2) 0.0760(2) 0.9727(2)
O4 O 0.6949(3) 0.2521(3) 0.9851(3)
Cu1 Cu 0.51758(4) 0.12379(4) 0.84469(4)
F1 F -0.6738(3) 0.7577(3) 0.6367(3)
C1A C 1.6101(4) -0.0693(3) 0.3261(3)
H1A H 1.5310 -0.0082 0.3334
C2A C 1.7179(4) -0.0811(4) 0.3837(4)
H2A H 1.7105 -0.0277 0.4280
C3A C 1.8346(4) -0.1706(4) 0.3755(4)
H3A H 1.9078 -0.1781 0.4130
C4A C 1.8419(3) -0.2514(3) 0.3091(3)
C5A C 1.7298(3) -0.2328(3) 0.2522(3)
C6A C 1.7274(3) -0.3111(3) 0.1831(3)
C7A C 1.6096(3) -0.3487(4) 0.0628(3)
H4A H 1.5355 -0.3258 0.0225
C8A C 1.7091(4) -0.4564(4) 0.0535(4)
H5A H 1.6992 -0.5049 0.0098
C9A C 1.8205(3) -0.4888(3) 0.1093(3)
H6A H 1.8872 -0.5600 0.1041
C10A C 1.8341(3) -0.4141(3) 0.1749(3)
C11A C 1.9479(3) -0.4326(3) 0.2330(3)
C12A C 1.9522(3) -0.3520(3) 0.2932(3)
C13A C 2.1420(3) -0.4925(3) 0.2928(3)
C14A C 2.2824(3) -0.5598(3) 0.3143(3)
C15A C 2.3521(4) -0.5348(3) 0.3865(4)
H7A H 2.3103 -0.4727 0.4230
C16A C 2.4839(4) -0.6028(4) 0.4037(4)
H8A H 2.5310 -0.5879 0.4526
C17A C 2.5432(4) -0.6917(4) 0.3476(4)
C18A C 2.4794(4) -0.7169(4) 0.2734(4)
H9A H 2.5249 -0.7760 0.2340
C19A C 2.3465(4) -0.6525(3) 0.2589(3)
H10A H 2.2992 -0.6706 0.2120
C20A C 1.2451(3) -0.1038(3) 0.3405(3)
C21A C 1.1190(3) -0.0494(3) 0.4246(3)
C22A C 1.0741(3) 0.0880(3) 0.3708(3)
H11A H 1.1239 0.1470 0.2840
C23A C 1.0448(3) -0.1372(3) 0.5533(3)
H12A H 1.0745 -0.2291 0.5891
C24A C 1.2833(3) -0.1394(3) 1.0176(3)
C25A C 1.1359(3) -0.0654(3) 1.0082(3)
C26A C 1.0863(3) 0.0356(3) 1.0526(3)
H13A H 1.1436 0.0596 1.0881
C27A C 1.0497(3) -0.1017(3) 0.9556(3)
H14A H 1.0829 -0.1700 0.9259
N1A N 1.6158(3) -0.1423(3) 0.2609(3)
N2A N 1.6167(3) -0.2785(3) 0.1264(3)
N3A N 2.0671(3) -0.5215(3) 0.2344(3)
N4A N 2.0765(3) -0.3920(3) 0.3328(3)
H15A H 2.1072 -0.3605 0.3742
O1A O 1.2553(3) -0.2291(3) 0.3713(3)
O2A O 1.3350(2) -0.0176(2) 0.2412(2)
O3A O 1.3753(2) -0.0760(2) 1.0273(2)
O3A_2 O 1.3753(2) -0.0760(2) 0.0273(2)
O4A O 1.3051(3) -0.2521(3) 1.0149(3)
Cu1A Cu 1.48242(4) -0.12379(4) 0.15531(4)
Cu1A_2 Cu 1.48242(4) -0.12379(4) 1.15531(4)
F1A F 2.6738(3) -0.7577(3) 0.3633(3)
loop_
_geom_bond_atom_site_label_1
_geom_bond_atom_site_label_2
_geom_bond_site_symmetry_1
_geom_bond_site_symmetry_2
C1 H1 1_555 1_555
C2 C1 1_555 1_555
H2 C2 1_555 1_555
C3 C2 1_555 1_555
H3 C3 1_555 1_555
C4 C3 1_555 1_555
C5 C4 1_555 1_555
C6 C5 1_555 1_555
C7 H4 1_555 1_555
C8 C7 1_555 1_555
H5 C8 1_555 1_555
C9 C8 1_555 1_555
H6 C9 1_555 1_555
C10 C6 1_555 1_555
C11 C10 1_555 1_555
C12 C4 1_555 1_555
C13 C14 1_555 1_555
C14 C15 1_555 1_555
C15 H7 1_555 1_555
C16 C15 1_555 1_555
H8 C16 1_555 1_555
C17 C16 1_555 1_555
C18 C17 1_555 1_555
H9 C18 1_555 1_555
C19 C14 1_555 1_555
H10 C19 1_555 1_555
C20 C21 1_555 1_555
C21 C22 1_555 1_555
C22 H11 1_555 1_555
C23 C21 1_555 1_555
H12 C23 1_555 1_555
C24 C25 1_555 1_555
C25 C26 1_555 1_555
C26 H13 1_555 1_555
C27 C25 1_555 1_555
H14 C27 1_555 1_555
N1 C1 1_555 1_555
N2 C6 1_555 1_555
N3 C11 1_555 1_555
N4 C12 1_555 1_555
H15 N4 1_555 1_555
O1 C20 1_555 1_555
O2 C20 1_555 1_555
O3 C24 1_555 1_555
O4 C24 1_555 1_555
Cu1 N1 1_555 1_555
F1 C17 1_555 1_555
C1A H1A 1_555 1_555
C2A C1A 1_555 1_555
H2A C2A 1_555 1_555
C3A C2A 1_555 1_555
H3A C3A 1_555 1_555
C4A C3A 1_555 1_555
C5A C4A 1_555 1_555
C6A C5A 1_555 1_555
C7A H4A 1_555 1_555
C8A C7A 1_555 1_555
H5A C8A 1_555 1_555
C9A C8A 1_555 1_555
H6A C9A 1_555 1_555
C10A C6A 1_555 1_555
C11A C10A 1_555 1_555
C12A C4A 1_555 1_555
C13A C14A 1_555 1_555
C14A C15A 1_555 1_555
C15A H7A 1_555 1_555
C16A C15A 1_555 1_555
H8A C16A 1_555 1_555
C17A C16A 1_555 1_555
C18A C17A 1_555 1_555
H9A C18A 1_555 1_555
C19A C14A 1_555 1_555
H10A C19A 1_555 1_555
C20A C21A 1_555 1_555
C21A C22A 1_555 1_555
C22A C23 1_555 1_555
H11A C22A 1_555 1_555
C23A C22 1_555 1_555
H12A C23A 1_555 1_555
C24A C25A 1_555 1_555
C25A C26A 1_555 1_555
C26A C27 1_555 1_555
H13A C26A 1_555 1_555
C27A C26 1_555 1_555
H14A C27A 1_555 1_555
N1A C1A 1_555 1_555
N2A C6A 1_555 1_555
N3A C11A 1_555 1_555
N4A C12A 1_555 1_555
H15A N4A 1_555 1_555
O1A C20A 1_555 1_555
O2A C20A 1_555 1_555
O3A C24A 1_555 1_555
O3A_2 Cu1A 1_555 1_555
O4A C24A 1_555 1_555
Cu1A N1A 1_555 1_555
Cu1A_2 O3A 1_555 1_555
F1A C17A 1_555 1_555
C5 N1 1_555 1_555
C7 N2 1_555 1_555
C9 C10 1_555 1_555
C11 C12 1_555 1_555
C13 N3 1_555 1_555
C13 N4 1_555 1_555
C18 C19 1_555 1_555
N2 Cu1 1_555 1_555
O2 Cu1 1_555 1_555
O3 Cu1 1_555 1_555
C5A N1A 1_555 1_555
C7A N2A 1_555 1_555
C9A C10A 1_555 1_555
C11A C12A 1_555 1_555
C13A N3A 1_555 1_555
C13A N4A 1_555 1_555
C18A C19A 1_555 1_555
C21A C23A 1_555 1_555
C25A C27A 1_555 1_555
N2A Cu1A 1_555 1_555
O2A Cu1A 1_555 1_555

#END
