
#######################################################################
#
#                 Cambridge Crystallographic Data Centre
#                                CCDC 
#
#######################################################################
#
# If this CIF has been generated from an entry in the Cambridge 
# Structural Database, then it will include bibliographic, chemical, 
# crystal, experimental, refinement or atomic coordinate data resulting 
# from the CCDC's data processing and validation procedures.
#
#######################################################################

data_HACVAI01
_symmetry_cell_setting           orthorhombic
_symmetry_space_group_name_H-M   'P b c a'
_symmetry_Int_Tables_number      61
_space_group_name_Hall           '-P 2ac 2ab'
loop_
_symmetry_equiv_pos_site_id
_symmetry_equiv_pos_as_xyz
1 x,y,z
2 1/2-x,-y,1/2+z
3 -x,1/2+y,1/2-z
4 1/2+x,1/2-y,-z
5 -x,-y,-z
6 1/2+x,y,1/2-z
7 x,1/2-y,1/2+z
8 1/2-x,1/2+y,z
_cell_length_a                   9.8349(2)
_cell_length_b                   8.9240(2)
_cell_length_c                   15.9415(3)
_cell_angle_alpha                90
_cell_angle_beta                 90
_cell_angle_gamma                90
_cell_volume                     1399.13
loop_
_atom_site_label
_atom_site_type_symbol
_atom_site_fract_x
_atom_site_fract_y
_atom_site_fract_z
Na1 Na 0.44811(7) 0.06200(8) 0.60477(4)
O1 O 0.29372(12) 0.23097(14) 0.53360(8)
C1 C 0.22704(19) 0.31909(19) 0.48901(11)
O2 O 0.10444(13) 0.35729(14) 0.49917(8)
C2 C 0.29624(18) 0.3871(2) 0.41191(12)
O3 O 0.40174(13) 0.11546(14) 0.31543(8)
N1 N 0.44749(16) 0.36607(18) 0.41190(9)
H1 H 0.2579 0.3405 0.3608
H2 H 0.2757 0.4957 0.4098
C3 C 0.45414(19) 0.2229(2) 0.27524(12)
O4 O -0.21656(14) 0.56513(17) 0.31837(9)
O5 O -0.02787(14) 0.23308(15) 0.30199(8)
H3 H 0.468(2) 0.281(2) 0.4411(13)
C4 C 0.5032(2) 0.3578(2) 0.32472(12)
C5 C 0.52252(19) 0.4907(2) 0.45471(11)
H4 H -0.255(3) 0.632(3) 0.3488(15)
H5 H -0.267(3) 0.565(3) 0.2718(16)
H6 H 0.6038 0.3549 0.3278
H7 H 0.4773 0.4501 0.2942
H8 H 0.5064 0.5855 0.4240
H9 H 0.6213 0.4696 0.4532
Na1D Na 0.55189(7) -0.06200(8) 0.39523(4)
O1C O 0.79372(12) 0.26903(14) 0.46640(8)
Na1C Na -0.05189(7) 0.43800(8) 0.39523(4)
Na1G Na 0.05189(7) 0.56200(8) 0.60477(4)
Na1B Na 0.55189(7) 0.56200(8) 0.89523(4)
Na1C_2 Na 0.94811(7) 0.43800(8) 0.39523(4)
O1C_2 O -0.20628(12) 0.26903(14) 0.46640(8)
O2D O -0.10444(13) 0.64271(14) 0.50083(8)
O3G O 0.09826(13) 0.61546(14) 0.31543(8)
O5A O 0.52787(14) 0.76692(15) 0.80199(8)
O5E O 0.47213(14) 0.23308(15) 0.19801(8)
O2D_2 O 0.89556(13) 0.64271(14) 0.50083(8)
O4_2 O 0.78344(14) 0.56513(17) 0.31837(9)
O2_2 O 1.10444(13) 0.35729(14) 0.49917(8)
O5_2 O 0.97213(14) 0.23308(15) 0.30199(8)
O3G_2 O 1.09826(13) 0.61546(14) 0.31543(8)
C5D C 0.47748(19) 0.5093(2) 0.54529(11)
C3D C 0.54586(19) 0.7771(2) 0.72476(12)
Na1F Na 0.44811(7) 0.43800(8) 0.10477(4)
C1D C 0.77296(19) 0.68091(19) 0.51099(11)
Na1G_2 Na 1.05189(7) 0.56200(8) 0.60477(4)
H4_2 H 0.745(3) 0.632(3) 0.3488(15)
H5_2 H 0.733(3) 0.565(3) 0.2718(16)
N1D N 0.55251(16) 0.63393(18) 0.58810(9)
H8D H 0.4936 0.4145 0.5760
H9D H 0.3787 0.5304 0.5468
C4D C 0.4968(2) 0.6422(2) 0.67528(12)
O3D O 0.59826(13) 0.88454(14) 0.68457(8)
C2D C 0.70376(18) 0.6129(2) 0.58809(12)
O1D O 0.70628(12) 0.76903(14) 0.46640(8)
H3D H 0.532(2) 0.719(2) 0.5589(13)
H6D H 0.3962 0.6451 0.6722
H7D H 0.5227 0.5499 0.7058
Na1_2 Na 0.44811(7) 1.06200(8) 0.60477(4)
H1D H 0.7421 0.6595 0.6392
H2D H 0.7243 0.5043 0.5902
Na1D_2 Na 0.55189(7) 0.93800(8) 0.39523(4)
loop_
_geom_bond_atom_site_label_1
_geom_bond_atom_site_label_2
_geom_bond_site_symmetry_1
_geom_bond_site_symmetry_2
Na1 O1 1_555 1_555
O1 C1 1_555 1_555
C1 O2 1_555 1_555
O2 Na1C 1_555 1_555
C2 C1 1_555 1_555
O3 C3 1_555 1_555
N1 C2 1_555 1_555
H1 C2 1_555 1_555
H2 C2 1_555 1_555
C3 C4 1_555 1_555
O4 H4 1_555 1_555
O5 Na1C 1_555 1_555
H3 N1 1_555 1_555
C4 N1 1_555 1_555
C5 N1 1_555 1_555
H5 O4 1_555 1_555
H6 C4 1_555 1_555
H7 C4 1_555 1_555
H8 C5 1_555 1_555
H9 C5 1_555 1_555
Na1D O3 1_555 1_555
O1C Na1C_2 1_555 1_555
Na1C O4 1_555 1_555
Na1G O2 1_555 1_555
Na1B O5A 1_555 1_555
Na1C_2 O2D_2 1_555 1_555
O1C_2 Na1C 1_555 1_555
O2D Na1C 1_555 1_555
O3G Na1C 1_555 1_555
O5A C3D 1_555 1_555
O5E C3 1_555 1_555
O2D_2 C1D 1_555 1_555
O4_2 Na1C_2 1_555 1_555
O2_2 Na1C_2 1_555 1_555
O5_2 Na1C_2 1_555 1_555
O3G_2 Na1C_2 1_555 1_555
C5D C5 1_555 1_555
C3D C4D 1_555 1_555
Na1F O5E 1_555 1_555
C1D C2D 1_555 1_555
Na1G_2 O2D_2 1_555 1_555
H4_2 O4_2 1_555 1_555
H5_2 O4_2 1_555 1_555
N1D C5D 1_555 1_555
H8D C5D 1_555 1_555
H9D C5D 1_555 1_555
C4D N1D 1_555 1_555
O3D C3D 1_555 1_555
C2D N1D 1_555 1_555
O1D C1D 1_555 1_555
H3D N1D 1_555 1_555
H6D C4D 1_555 1_555
H7D C4D 1_555 1_555
Na1_2 O3D 1_555 1_555
H1D C2D 1_555 1_555
H2D C2D 1_555 1_555
Na1D_2 O1D 1_555 1_555
Na1G O2D 1_555 1_555
O2_2 Na1G_2 1_555 1_555

#END
