
#######################################################################
#
#                 Cambridge Crystallographic Data Centre
#                                CCDC 
#
#######################################################################
#
# If this CIF has been generated from an entry in the Cambridge 
# Structural Database, then it will include bibliographic, chemical, 
# crystal, experimental, refinement or atomic coordinate data resulting 
# from the CCDC's data processing and validation procedures.
#
#######################################################################

data_HACWIR
_symmetry_cell_setting           monoclinic
_symmetry_space_group_name_H-M   'C 2/c'
_symmetry_Int_Tables_number      15
_space_group_name_Hall           '-C 2yn'
loop_
_symmetry_equiv_pos_site_id
_symmetry_equiv_pos_as_xyz
1 x,y,z
2 1/2+x,1/2+y,z
3 -x,y,1/2-z
4 1/2-x,1/2+y,1/2-z
5 -x,-y,-z
6 1/2-x,1/2-y,-z
7 x,-y,1/2+z
8 1/2+x,1/2-y,1/2+z
_cell_length_a                   14.484(2)
_cell_length_b                   8.480(1)
_cell_length_c                   13.087(1)
_cell_angle_alpha                90
_cell_angle_beta                 114.753(7)
_cell_angle_gamma                90
_cell_volume                     1459.72
loop_
_atom_site_label
_atom_site_type_symbol
_atom_site_fract_x
_atom_site_fract_y
_atom_site_fract_z
Mn1 Mn 0.00000 0.01081(5) 0.25000
O1 O 0.12703(9) -0.0397(1) 0.4073(1)
O2 O 0.18569(9) -0.1749(2) 0.5680(1)
O3 O -0.08248(9) 0.2001(1) 0.28068(9)
O4 O -0.0834(1) 0.4503(1) 0.3309(1)
C1 C 0.1160(1) -0.1298(2) 0.4772(1)
C2 C -0.0583(1) 0.3091(2) 0.3507(1)
C3 C 0.0102(1) -0.1882(2) 0.4522(1)
C4 C 0.0150(1) 0.2723(2) 0.4719(1)
N1 N 0.1104(1) 0.3229(2) 0.5001(1)
C5 C 0.1806(1) 0.2849(2) 0.6024(1)
C6 C 0.1561(1) 0.1976(2) 0.6771(1)
N2 N -0.0612(1) -0.1513(2) 0.3491(1)
H1 H 0.245(1) 0.323(2) 0.618(1)
H2 H 0.207(1) 0.168(2) 0.748(1)
C4D C -0.0150(1) -0.2723(2) 0.5281(1)
C2D C 0.0583(1) -0.3091(2) 0.6493(1)
O3D O 0.08248(9) -0.2001(1) 0.71932(9)
Mn1D Mn 0.00000 -0.01081(5) 0.75000
O1D O -0.12703(9) 0.0397(1) 0.5927(1)
C1D C -0.1160(1) 0.1298(2) 0.5228(1)
O2D O -0.18569(9) 0.1749(2) 0.4320(1)
C3D C -0.0102(1) 0.1882(2) 0.5478(1)
O1B O -0.12703(9) -0.0397(1) 0.0927(1)
C1B C -0.1160(1) -0.1298(2) 0.0228(1)
O2B O -0.18569(9) -0.1749(2) -0.0680(1)
C3B C -0.0102(1) -0.1882(2) 0.0478(1)
C4F C 0.0150(1) -0.2723(2) -0.0281(1)
C2F C -0.0583(1) -0.3091(2) -0.1493(1)
O3F O -0.08248(9) -0.2001(1) -0.21932(9)
Mn1F Mn 0.00000 -0.01081(5) -0.25000
O1F O 0.12703(9) 0.0397(1) -0.0927(1)
C1F C 0.1160(1) 0.1298(2) -0.0228(1)
O2F O 0.18569(9) 0.1749(2) 0.0680(1)
C3F C 0.0102(1) 0.1882(2) -0.0478(1)
C4B C -0.0150(1) 0.2723(2) 0.0281(1)
C2B C 0.0583(1) 0.3091(2) 0.1493(1)
O3B O 0.08248(9) 0.2001(1) 0.21932(9)
C6D C -0.1561(1) -0.1976(2) 0.3229(1)
C5D C -0.1806(1) -0.2849(2) 0.3976(1)
N1D N -0.1104(1) -0.3229(2) 0.4999(1)
H1D H -0.245(1) -0.323(2) 0.382(1)
H2D H -0.207(1) -0.168(2) 0.252(1)
N2B N 0.0612(1) -0.1513(2) 0.1509(1)
C6F C 0.1561(1) -0.1976(2) 0.1771(1)
C5F C 0.1806(1) -0.2849(2) 0.1024(1)
N1F N 0.1104(1) -0.3229(2) 0.0001(1)
H1F H 0.245(1) -0.323(2) 0.118(1)
H2F H 0.207(1) -0.168(2) 0.248(1)
O4B O 0.0834(1) 0.4503(1) 0.1691(1)
N1B N -0.1104(1) 0.3229(2) -0.0001(1)
C5B C -0.1806(1) 0.2849(2) -0.1024(1)
C6B C -0.1561(1) 0.1976(2) -0.1771(1)
N2F N -0.0612(1) 0.1513(2) -0.1509(1)
H2B H -0.207(1) 0.168(2) -0.248(1)
H1B H -0.245(1) 0.323(2) -0.118(1)
O4F O -0.0834(1) -0.4503(1) -0.1691(1)
N2D N 0.0612(1) 0.1513(2) 0.6509(1)
O1F_2 O 0.12703(9) 0.0397(1) 0.9073(1)
O3F_2 O -0.08248(9) -0.2001(1) 0.78068(9)
N2F_2 N -0.0612(1) 0.1513(2) 0.8491(1)
O4D O 0.0834(1) -0.4503(1) 0.6691(1)
O5 O 0.1452(1) -0.5470(2) 0.8687(1)
H3 H 0.124(2) -0.496(3) 0.790(2)
H4 H 0.138(2) -0.469(3) 0.911(2)
H5 H 0.217(2) -0.597(4) 0.899(2)
loop_
_geom_bond_atom_site_label_1
_geom_bond_atom_site_label_2
_geom_bond_site_symmetry_1
_geom_bond_site_symmetry_2
Mn1 O1 1_555 1_555
O1 C1 1_555 1_555
O2 C1 1_555 1_555
O3 Mn1 1_555 1_555
O4 C2 1_555 1_555
C1 C3 1_555 1_555
C2 O3 1_555 1_555
C3 N2 1_555 1_555
C4 C2 1_555 1_555
N1 C4 1_555 1_555
C5 N1 1_555 1_555
C6 C5 1_555 1_555
N2 Mn1 1_555 1_555
H1 C5 1_555 1_555
H2 C6 1_555 1_555
O5 H3 1_555 1_555
H4 O5 1_555 1_555
H5 O5 1_555 1_555
C4D C3 1_555 1_555
C2D C4D 1_555 1_555
O3D C2D 1_555 1_555
Mn1D O3D 1_555 1_555
O1D Mn1D 1_555 1_555
C1D O1D 1_555 1_555
O2D C1D 1_555 1_555
C3D C4 1_555 1_555
O1B Mn1 1_555 1_555
C1B O1B 1_555 1_555
O2B C1B 1_555 1_555
C3B C1B 1_555 1_555
C4F C3B 1_555 1_555
C2F C4F 1_555 1_555
O3F C2F 1_555 1_555
Mn1F O3F 1_555 1_555
O1F Mn1F 1_555 1_555
C1F O1F 1_555 1_555
O2F C1F 1_555 1_555
C3F C1F 1_555 1_555
C4B C3F 1_555 1_555
C2B C4B 1_555 1_555
O3B Mn1 1_555 1_555
C6D N2 1_555 1_555
C5D C6D 1_555 1_555
N1D C4D 1_555 1_555
H1D C5D 1_555 1_555
H2D C6D 1_555 1_555
N2B Mn1 1_555 1_555
C6F N2B 1_555 1_555
C5F C6F 1_555 1_555
N1F C4F 1_555 1_555
H1F C5F 1_555 1_555
H2F C6F 1_555 1_555
O4B C2B 1_555 1_555
N1B C4B 1_555 1_555
C5B N1B 1_555 1_555
C6B C5B 1_555 1_555
N2F Mn1F 1_555 1_555
H2B C6B 1_555 1_555
H1B C5B 1_555 1_555
O4F C2F 1_555 1_555
N2D C6 1_555 1_555
O1F_2 Mn1D 1_555 1_555
O3F_2 Mn1D 1_555 1_555
N2F_2 Mn1D 1_555 1_555
O4D C2D 1_555 1_555
Mn1D N2D 1_555 1_555
C1D C3D 1_555 1_555
C3D N2D 1_555 1_555
C3B N2B 1_555 1_555
C3F N2F 1_555 1_555
C2B O3B 1_555 1_555
C5D N1D 1_555 1_555
C5F N1F 1_555 1_555
C6B N2F 1_555 1_555

#END
