
#######################################################################
#
#                 Cambridge Crystallographic Data Centre
#                                CCDC 
#
#######################################################################
#
# If this CIF has been generated from an entry in the Cambridge 
# Structural Database, then it will include bibliographic, chemical, 
# crystal, experimental, refinement or atomic coordinate data resulting 
# from the CCDC's data processing and validation procedures.
#
#######################################################################

data_HACWOY
_symmetry_cell_setting           monoclinic
_symmetry_space_group_name_H-M   'P 21/n'
_symmetry_Int_Tables_number      14
_space_group_name_Hall           '-P 2yn'
loop_
_symmetry_equiv_pos_site_id
_symmetry_equiv_pos_as_xyz
1 x,y,z
2 1/2+x,1/2-y,1/2+z
3 -x,-y,-z
4 1/2-x,1/2+y,1/2-z
_cell_length_a                   5.6901(1)
_cell_length_b                   16.3738(3)
_cell_length_c                   21.0277(4)
_cell_angle_alpha                90
_cell_angle_beta                 93.418(1)
_cell_angle_gamma                90
_cell_volume                     1955.64
loop_
_atom_site_label
_atom_site_type_symbol
_atom_site_fract_x
_atom_site_fract_y
_atom_site_fract_z
Ag1 Ag 0.13977(4) 0.237862(15) 0.104702(11)
N1 N 0.6515(5) 0.19057(16) 0.13647(11)
O1 O 0.4602(3) 0.15910(12) 0.15248(9)
O2 O 0.8399(3) 0.15112(13) 0.14311(9)
O3 O 0.6498(4) 0.25893(12) 0.11250(9)
S1 S 0.22356(12) 0.23448(5) -0.02268(3)
S2 S 0.63847(13) 0.33297(5) -0.07207(3)
S3 S 0.10860(13) 0.38829(5) 0.06369(3)
C1 C 0.4529(5) 0.46758(17) 0.00261(13)
C2 C 0.3409(5) 0.39085(17) 0.01024(12)
C3 C 0.3946(5) 0.32450(18) -0.02478(12)
C4 C 0.4125(5) 0.15297(17) -0.04351(13)
C5 C 0.6335(5) 0.14106(18) -0.01358(13)
H1 H 0.6932 0.1788 0.0183
C6 C 0.7672(6) 0.0750(2) -0.03027(14)
H2 H 0.9207 0.0667 -0.0098
C7 C 0.6785(5) 0.01999(19) -0.07674(14)
H3 H 0.7712 -0.0261 -0.0882
C8 C 0.4587(6) 0.03249(19) -0.10524(14)
H4 H 0.3975 -0.0055 -0.1368
C9 C 0.3209(5) 0.09882(17) -0.08987(13)
H5 H 0.1681 0.1075 -0.1107
C10 C 0.5554(5) 0.27642(17) -0.14180(13)
C11 C 0.3349(5) 0.28543(18) -0.17331(13)
H6 H 0.2238 0.3229 -0.1568
C12 C 0.2791(5) 0.2405(2) -0.22729(13)
H7 H 0.1268 0.2465 -0.2490
C13 C 0.4436(6) 0.1881(2) -0.25086(14)
H8 H 0.4036 0.1560 -0.2881
C14 C 0.6626(6) 0.1811(2) -0.22077(15)
H9 H 0.7780 0.1461 -0.2382
C15 C 0.7203(5) 0.22396(18) -0.16519(13)
H10 H 0.8715 0.2177 -0.1429
C16 C 0.2175(5) 0.45149(17) 0.12867(12)
C17 C 0.0612(6) 0.50721(19) 0.15197(13)
H11 H -0.0908 0.5149 0.1305
C18 C 0.1270(5) 0.55172(19) 0.20627(13)
H12 H 0.0179 0.5893 0.2235
C19 C 0.3487(6) 0.54230(19) 0.23559(14)
H13 H 0.3928 0.5728 0.2734
C20 C 0.5068(5) 0.48839(19) 0.21130(13)
H14 H 0.6630 0.4837 0.2308
C21 C 0.4398(5) 0.44185(18) 0.15781(13)
H15 H 0.5471 0.4029 0.1415
C1B C 0.5471(5) 0.53242(17) -0.00261(13)
C2B C 0.6591(5) 0.60915(17) -0.01024(12)
S3B S 0.89140(13) 0.61171(5) -0.06369(3)
C16B C 0.7825(5) 0.54851(17) -0.12867(12)
C17B C 0.9388(6) 0.49279(19) -0.15197(13)
H11B H 1.0908 0.4851 -0.1305
C18B C 0.8730(5) 0.44828(19) -0.20627(13)
H12B H 0.9821 0.4107 -0.2235
C19B C 0.6513(6) 0.45770(19) -0.23559(14)
H13B H 0.6072 0.4272 -0.2734
C20B C 0.4932(5) 0.51161(19) -0.21130(13)
H14B H 0.3370 0.5163 -0.2308
C21B C 0.5602(5) 0.55815(18) -0.15781(13)
H15B H 0.4529 0.5971 -0.1415
C3B C 0.6054(5) 0.67550(18) 0.02478(12)
S1B S 0.77644(12) 0.76552(5) 0.02268(3)
C4B C 0.5875(5) 0.84703(17) 0.04351(13)
C5B C 0.3665(5) 0.85894(18) 0.01358(13)
H1B H 0.3068 0.8212 -0.0183
C6B C 0.2328(6) 0.9250(2) 0.03027(14)
H2B H 0.0793 0.9333 0.0098
C7B C 0.3215(5) 0.98001(19) 0.07674(14)
H3B H 0.2288 1.0261 0.0882
C8B C 0.5413(6) 0.96751(19) 0.10524(14)
H4B H 0.6025 1.0055 0.1368
C9B C 0.6791(5) 0.90118(17) 0.08987(13)
H5B H 0.8319 0.8925 0.1107
S2B S 0.36153(13) 0.66703(5) 0.07207(3)
C10B C 0.4446(5) 0.72358(17) 0.14180(13)
C11B C 0.6651(5) 0.71457(18) 0.17331(13)
H6B H 0.7762 0.6771 0.1568
C12B C 0.7209(5) 0.7595(2) 0.22729(13)
H7B H 0.8732 0.7535 0.2490
C13B C 0.5564(6) 0.8119(2) 0.25086(14)
H8B H 0.5964 0.8440 0.2881
C14B C 0.3374(6) 0.8189(2) 0.22077(15)
H9B H 0.2220 0.8539 0.2382
C15B C 0.2797(5) 0.77604(18) 0.16519(13)
H10B H 0.1285 0.7823 0.1429
N1_2 N -0.3485(5) 0.19057(16) 0.13647(11)
O1_2 O -0.5398(3) 0.15910(12) 0.15248(9)
O2_2 O -0.1601(3) 0.15112(13) 0.14311(9)
O3_2 O -0.3502(4) 0.25893(12) 0.11250(9)
Ag1_2 Ag -0.86023(4) 0.237862(15) 0.104702(11)
Ag1_3 Ag 1.13977(4) 0.237862(15) 0.104702(11)
Ag1B Ag 0.86023(4) 0.762138(15) -0.104702(11)
O2_3 O -1.1601(3) 0.15112(13) 0.14311(9)
S1_2 S -0.77644(12) 0.23448(5) -0.02268(3)
S3_2 S -0.89140(13) 0.38829(5) 0.06369(3)
loop_
_geom_bond_atom_site_label_1
_geom_bond_atom_site_label_2
_geom_bond_site_symmetry_1
_geom_bond_site_symmetry_2
Ag1 O1 1_555 1_555
N1 O1 1_555 1_555
O2 N1 1_555 1_555
O3 N1 1_555 1_555
S1 Ag1 1_555 1_555
S2 C3 1_555 1_555
S3 Ag1 1_555 1_555
C1 C2 1_555 1_555
C2 S3 1_555 1_555
C3 S1 1_555 1_555
C4 S1 1_555 1_555
C5 C4 1_555 1_555
H1 C5 1_555 1_555
C6 C5 1_555 1_555
H2 C6 1_555 1_555
C7 C6 1_555 1_555
H3 C7 1_555 1_555
C8 C7 1_555 1_555
H4 C8 1_555 1_555
C9 C4 1_555 1_555
H5 C9 1_555 1_555
C10 S2 1_555 1_555
C11 C10 1_555 1_555
H6 C11 1_555 1_555
C12 C11 1_555 1_555
H7 C12 1_555 1_555
C13 C12 1_555 1_555
H8 C13 1_555 1_555
C14 C13 1_555 1_555
H9 C14 1_555 1_555
C15 C10 1_555 1_555
H10 C15 1_555 1_555
C16 S3 1_555 1_555
C17 C16 1_555 1_555
H11 C17 1_555 1_555
C18 C17 1_555 1_555
H12 C18 1_555 1_555
C19 C18 1_555 1_555
H13 C19 1_555 1_555
C20 C19 1_555 1_555
H14 C20 1_555 1_555
C21 C16 1_555 1_555
H15 C21 1_555 1_555
C1B C1 1_555 1_555
C2B C1B 1_555 1_555
S3B C2B 1_555 1_555
C16B S3B 1_555 1_555
C17B C16B 1_555 1_555
H11B C17B 1_555 1_555
C18B C17B 1_555 1_555
H12B C18B 1_555 1_555
C19B C18B 1_555 1_555
H13B C19B 1_555 1_555
C20B C19B 1_555 1_555
H14B C20B 1_555 1_555
C21B C16B 1_555 1_555
H15B C21B 1_555 1_555
C3B C2B 1_555 1_555
S1B C3B 1_555 1_555
C4B S1B 1_555 1_555
C5B C4B 1_555 1_555
H1B C5B 1_555 1_555
C6B C5B 1_555 1_555
H2B C6B 1_555 1_555
C7B C6B 1_555 1_555
H3B C7B 1_555 1_555
C8B C7B 1_555 1_555
H4B C8B 1_555 1_555
C9B C4B 1_555 1_555
H5B C9B 1_555 1_555
S2B C3B 1_555 1_555
C10B S2B 1_555 1_555
C11B C10B 1_555 1_555
H6B C11B 1_555 1_555
C12B C11B 1_555 1_555
H7B C12B 1_555 1_555
C13B C12B 1_555 1_555
H8B C13B 1_555 1_555
C14B C13B 1_555 1_555
H9B C14B 1_555 1_555
C15B C10B 1_555 1_555
H10B C15B 1_555 1_555
N1_2 O1_2 1_555 1_555
O1_2 Ag1_2 1_555 1_555
O2_2 Ag1 1_555 1_555
O3_2 N1_2 1_555 1_555
Ag1_2 O2_3 1_555 1_555
Ag1_3 O2 1_555 1_555
Ag1B S3B 1_555 1_555
S1_2 Ag1_2 1_555 1_555
S3_2 Ag1_2 1_555 1_555
C2 C3 1_555 1_555
C8 C9 1_555 1_555
C14 C15 1_555 1_555
C20 C21 1_555 1_555
C20B C21B 1_555 1_555
S1B Ag1B 1_555 1_555
C8B C9B 1_555 1_555
C14B C15B 1_555 1_555
N1_2 O2_2 1_555 1_555

#END
