
#######################################################################
#
#                 Cambridge Crystallographic Data Centre
#                                CCDC 
#
#######################################################################
#
# If this CIF has been generated from an entry in the Cambridge 
# Structural Database, then it will include bibliographic, chemical, 
# crystal, experimental, refinement or atomic coordinate data resulting 
# from the CCDC's data processing and validation procedures.
#
#######################################################################

data_HADDOH
_symmetry_cell_setting           triclinic
_symmetry_space_group_name_H-M   'P -1'
_symmetry_Int_Tables_number      2
_space_group_name_Hall           '-P 1'
loop_
_symmetry_equiv_pos_site_id
_symmetry_equiv_pos_as_xyz
1 x,y,z
2 -x,-y,-z
_cell_length_a                   9.5483(4)
_cell_length_b                   11.1328(4)
_cell_length_c                   13.1810(5)
_cell_angle_alpha                70.2760(10)
_cell_angle_beta                 72.4020(10)
_cell_angle_gamma                74.0820(10)
_cell_volume                     1233.83
loop_
_atom_site_label
_atom_site_type_symbol
_atom_site_fract_x
_atom_site_fract_y
_atom_site_fract_z
Mn1 Mn 0.84565(4) 0.33703(3) 0.42295(3)
Mn2 Mn 0.5000 0.5000 0.5000
C1 C 0.5644(3) 0.2286(2) 0.44667(19)
C2 C 0.5253(3) 0.1439(2) 0.39302(18)
C3 C 0.6383(3) 0.0541(2) 0.3496(2)
H1 H 0.7363 0.0459 0.3534
C4 C 0.6060(3) -0.0226(3) 0.3010(2)
H2 H 0.6823 -0.0831 0.2722
C5 C 0.3538(3) 0.0742(2) 0.3363(2)
H3 H 0.2566 0.0800 0.3320
C6 C 0.3816(3) 0.1534(2) 0.3855(2)
H4 H 0.3036 0.2133 0.4137
C7 C 0.4344(3) -0.0967(3) 0.2399(2)
H5 H 0.3297 -0.1035 0.2665
H6 H 0.4938 -0.1832 0.2608
C8 C 0.4699(3) -0.0451(2) 0.1153(2)
C9 C 0.6138(3) -0.0706(3) 0.0519(2)
H7 H 0.6913 -0.1185 0.0866
C10 C 0.3570(3) 0.0254(3) 0.0622(2)
H8 H 0.2597 0.0428 0.1037
C11 C 0.7076(3) 0.5721(3) 0.2556(2)
C12 C 0.7369(3) 0.3475(3) 0.6538(2)
C13 C 0.9780(3) 0.0863(3) 0.5917(2)
N1 N 0.6708(2) 0.5052(2) 0.34318(17)
N2 N 0.6944(2) 0.3991(2) 0.57312(17)
N3 N 0.9926(2) 0.1767(2) 0.5139(2)
N4 N 0.4656(2) -0.01126(19) 0.29445(16)
O1 O 0.9938(3) 0.4668(2) 0.3803(2)
H17 H 0.959(4) 0.545(4) 0.383(3)
H18 H 1.064(5) 0.467(4) 0.336(3)
O2 O 0.9511(2) 0.2812(2) 0.26635(17)
H19 H 1.039(4) 0.304(3) 0.226(3)
H20 H 0.980(4) 0.213(4) 0.280(3)
O3 O 0.7488(4) 0.6370(3) 0.1637(2)
O4 O 0.7842(3) 0.2891(2) 0.73463(18)
O5 O 0.9648(2) -0.00472(19) 0.67314(17)
O6 O 0.46173(19) 0.30970(17) 0.48509(15)
O7 O 0.6997(2) 0.20747(18) 0.44601(17)
Mn1A Mn 0.15435(4) -0.33703(3) -0.42295(3)
Mn2_2 Mn 0.5000 -0.5000 -0.5000
C1A C 0.4356(3) -0.2286(2) -0.44667(19)
C2A C 0.4747(3) -0.1439(2) -0.39302(18)
C3A C 0.3617(3) -0.0541(2) -0.3496(2)
H1A H 0.2637 -0.0459 -0.3534
C4A C 0.3940(3) 0.0226(3) -0.3010(2)
H2A H 0.3177 0.0831 -0.2722
C5A C 0.6462(3) -0.0742(2) -0.3363(2)
H3A H 0.7434 -0.0800 -0.3320
C6A C 0.6184(3) -0.1534(2) -0.3855(2)
H4A H 0.6964 -0.2133 -0.4137
C7A C 0.5656(3) 0.0967(3) -0.2399(2)
H5A H 0.6703 0.1035 -0.2665
H6A H 0.5062 0.1832 -0.2608
C8A C 0.5301(3) 0.0451(2) -0.1153(2)
C9A C 0.3862(3) 0.0706(3) -0.0519(2)
H7A H 0.3087 0.1185 -0.0866
C10A C 0.6430(3) -0.0254(3) -0.0622(2)
H8A H 0.7403 -0.0428 -0.1037
C11A C 0.2924(3) -0.5721(3) -0.2556(2)
C12A C 0.2631(3) -0.3475(3) -0.6538(2)
C13A C 0.0220(3) -0.0863(3) -0.5917(2)
N1A N 0.3292(2) -0.5052(2) -0.34318(17)
N1A_2 N 0.3292(2) 0.4948(2) 0.65682(17)
N2A N 0.3056(2) -0.3991(2) -0.57312(17)
N2A_2 N 0.3056(2) 0.6009(2) 0.42688(17)
N3A N 0.0074(2) -0.1767(2) -0.5139(2)
N4A N 0.5344(2) 0.01126(19) -0.29445(16)
O1A O 0.0062(3) -0.4668(2) -0.3803(2)
H17A H 0.041(4) -0.545(4) -0.383(3)
H18A H -0.064(5) -0.467(4) -0.336(3)
O2A O 0.0489(2) -0.2812(2) -0.26635(17)
H19A H -0.039(4) -0.304(3) -0.226(3)
H20A H 0.020(4) -0.213(4) -0.280(3)
O3A O 0.2512(4) -0.6370(3) -0.1637(2)
O4A O 0.2158(3) -0.2891(2) -0.73463(18)
O5A O 0.0352(2) 0.00472(19) -0.67314(17)
O6A O 0.53827(19) -0.30970(17) -0.48509(15)
O6A_2 O 0.53827(19) 0.69030(17) 0.51491(15)
O7A O 0.3003(2) -0.20747(18) -0.44601(17)
C14 C 0.2892(3) 0.3836(3) 0.1693(2)
C15 C 0.4550(3) 0.3604(2) 0.1141(2)
C16 C 0.5059(3) 0.3102(3) 0.0239(2)
H9 H 0.4387 0.2915 -0.0044
C17 C 0.6558(3) 0.2883(3) -0.0234(2)
H10 H 0.6899 0.2556 -0.0847
C18 C 0.5590(3) 0.3875(3) 0.1534(2)
H11 H 0.5274 0.4232 0.2129
C19 C 0.7088(3) 0.3615(3) 0.1040(2)
H12 H 0.7790 0.3776 0.1312
C20 C 0.9170(3) 0.2796(3) -0.0355(3)
H13 H 0.9756 0.3080 -0.0025
H14 H 0.9357 0.3237 -0.1142
C21 C 0.9621(3) 0.1349(3) -0.0181(2)
C22 C 1.0045(3) 0.0815(3) -0.1060(2)
H15 H 1.0077 0.1356 -0.1777
C23 C 0.9579(3) 0.0513(3) 0.0881(2)
H16 H 0.9264 0.0906 0.1454
N5 N 0.7536(2) 0.3130(2) 0.01683(17)
O8 O 0.2526(3) 0.4434(3) 0.2381(3)
O9 O 0.2098(3) 0.3374(3) 0.1406(2)
C14A C 1.7108(3) -0.3836(3) -0.1693(2)
C15A C 1.5450(3) -0.3604(2) -0.1141(2)
C16A C 1.4941(3) -0.3102(3) -0.0239(2)
H9A H 1.5613 -0.2915 0.0044
C17A C 1.3442(3) -0.2883(3) 0.0234(2)
H10A H 1.3101 -0.2556 0.0847
C18A C 1.4410(3) -0.3875(3) -0.1534(2)
H11A H 1.4726 -0.4232 -0.2129
C19A C 1.2912(3) -0.3615(3) -0.1040(2)
H12A H 1.2210 -0.3776 -0.1312
C20A C 1.0830(3) -0.2796(3) 0.0355(3)
H13A H 1.0244 -0.3080 0.0025
H14A H 1.0643 -0.3237 0.1142
C21A C 1.0379(3) -0.1349(3) 0.0181(2)
C22A C 0.9955(3) -0.0815(3) 0.1060(2)
H15A H 0.9923 -0.1356 0.1777
C23A C 1.0421(3) -0.0513(3) -0.0881(2)
H16A H 1.0736 -0.0906 -0.1454
N5A N 1.2464(2) -0.3130(2) -0.01683(17)
O8A O 1.7474(3) -0.4434(3) -0.2381(3)
O9A O 1.7902(3) -0.3374(3) -0.1406(2)
O10 O 0.1590(3) 0.2871(2) 0.6111(2)
H21 H 0.255(5) 0.308(4) 0.563(3)
H22 H 0.101(7) 0.262(6) 0.579(5)
loop_
_geom_bond_atom_site_label_1
_geom_bond_atom_site_label_2
_geom_bond_site_symmetry_1
_geom_bond_site_symmetry_2
Mn1 N1 1_555 1_555
Mn2 N1 1_555 1_555
C1 C2 1_555 1_555
C2 C3 1_555 1_555
C3 H1 1_555 1_555
C4 C3 1_555 1_555
H2 C4 1_555 1_555
C5 H3 1_555 1_555
C6 C2 1_555 1_555
H4 C6 1_555 1_555
C7 H5 1_555 1_555
H6 C7 1_555 1_555
C8 C7 1_555 1_555
C9 C8 1_555 1_555
H7 C9 1_555 1_555
C10 C8 1_555 1_555
H8 C10 1_555 1_555
C11 N1 1_555 1_555
C12 N2 1_555 1_555
C13 N3 1_555 1_555
C14 C15 1_555 1_555
C15 C16 1_555 1_555
C16 H9 1_555 1_555
C17 C16 1_555 1_555
H10 C17 1_555 1_555
C18 C15 1_555 1_555
H11 C18 1_555 1_555
C19 C18 1_555 1_555
H12 C19 1_555 1_555
C20 H13 1_555 1_555
H14 C20 1_555 1_555
C21 C20 1_555 1_555
C22 C21 1_555 1_555
H15 C22 1_555 1_555
C23 C21 1_555 1_555
H16 C23 1_555 1_555
N2 Mn1 1_555 1_555
N3 Mn1 1_555 1_555
N4 C4 1_555 1_555
N5 C17 1_555 1_555
O1 Mn1 1_555 1_555
H17 O1 1_555 1_555
H18 O1 1_555 1_555
O2 Mn1 1_555 1_555
H19 O2 1_555 1_555
H20 O2 1_555 1_555
O3 C11 1_555 1_555
O4 C12 1_555 1_555
O5 C13 1_555 1_555
O6 Mn2 1_555 1_555
O7 Mn1 1_555 1_555
O8 C14 1_555 1_555
O9 C14 1_555 1_555
O10 H21 1_555 1_555
H22 O10 1_555 1_555
Mn1A N1A 1_555 1_555
Mn2_2 N1A 1_555 1_555
C1A C2A 1_555 1_555
C2A C3A 1_555 1_555
C3A H1A 1_555 1_555
C4A C3A 1_555 1_555
H2A C4A 1_555 1_555
C5A H3A 1_555 1_555
C6A C2A 1_555 1_555
H4A C6A 1_555 1_555
C7A H5A 1_555 1_555
H6A C7A 1_555 1_555
C8A C7A 1_555 1_555
C9A C10 1_555 1_555
H7A C9A 1_555 1_555
C10A C9 1_555 1_555
H8A C10A 1_555 1_555
C11A N1A 1_555 1_555
C12A N2A 1_555 1_555
C13A N3A 1_555 1_555
C14A C15A 1_555 1_555
C15A C16A 1_555 1_555
C16A H9A 1_555 1_555
C17A C16A 1_555 1_555
H10A C17A 1_555 1_555
C18A C15A 1_555 1_555
H11A C18A 1_555 1_555
C19A C18A 1_555 1_555
H12A C19A 1_555 1_555
C20A H13A 1_555 1_555
H14A C20A 1_555 1_555
C21A C20A 1_555 1_555
C22A C23 1_555 1_555
H15A C22A 1_555 1_555
C23A C22 1_555 1_555
H16A C23A 1_555 1_555
N1A_2 Mn2 1_555 1_555
N2A Mn1A 1_555 1_555
N2A_2 Mn2 1_555 1_555
N3A Mn1A 1_555 1_555
N4A C4A 1_555 1_555
N5A C17A 1_555 1_555
O1A Mn1A 1_555 1_555
H17A O1A 1_555 1_555
H18A O1A 1_555 1_555
O2A Mn1A 1_555 1_555
H19A O2A 1_555 1_555
H20A O2A 1_555 1_555
O3A C11A 1_555 1_555
O4A C12A 1_555 1_555
O5A C13A 1_555 1_555
O6A Mn2_2 1_555 1_555
O6A_2 Mn2 1_555 1_555
O7A Mn1A 1_555 1_555
O8A C14A 1_555 1_555
O9A C14A 1_555 1_555
Mn2 N2 1_555 1_555
C1 O6 1_555 1_555
C1 O7 1_555 1_555
C5 C6 1_555 1_555
C5 N4 1_555 1_555
C7 N4 1_555 1_555
C19 N5 1_555 1_555
C20 N5 1_555 1_555
Mn2_2 N2A 1_555 1_555
C1A O6A 1_555 1_555
C1A O7A 1_555 1_555
C5A C6A 1_555 1_555
C5A N4A 1_555 1_555
C7A N4A 1_555 1_555
C8A C9A 1_555 1_555
C8A C10A 1_555 1_555
C19A N5A 1_555 1_555
C20A N5A 1_555 1_555
C21A C22A 1_555 1_555
C21A C23A 1_555 1_555

#END
