
#######################################################################
#
#                 Cambridge Crystallographic Data Centre
#                                CCDC 
#
#######################################################################
#
# If this CIF has been generated from an entry in the Cambridge 
# Structural Database, then it will include bibliographic, chemical, 
# crystal, experimental, refinement or atomic coordinate data resulting 
# from the CCDC's data processing and validation procedures.
#
#######################################################################

data_HADKIH
_symmetry_cell_setting           monoclinic
_symmetry_space_group_name_H-M   'P 21/c'
_symmetry_Int_Tables_number      14
_space_group_name_Hall           '-P 2ybc'
loop_
_symmetry_equiv_pos_site_id
_symmetry_equiv_pos_as_xyz
1 x,y,z
2 x,1/2-y,1/2+z
3 -x,-y,-z
4 -x,1/2+y,1/2-z
_cell_length_a                   12.5416(7)
_cell_length_b                   9.1826(5)
_cell_length_c                   17.4612(10)
_cell_angle_alpha                90
_cell_angle_beta                 99.5730(10)
_cell_angle_gamma                90
_cell_volume                     1982.91
loop_
_atom_site_label
_atom_site_type_symbol
_atom_site_fract_x
_atom_site_fract_y
_atom_site_fract_z
Ag1 Ag 0.919326(16) 1.03950(2) 0.084143(11)
N1 N 1.16750(16) 0.9904(2) 0.11460(12)
O1 O 1.09962(15) 1.0324(2) 0.05706(10)
O2 O 1.26114(18) 0.9672(3) 0.10625(16)
O3 O 1.13605(19) 0.9761(3) 0.17740(11)
S1 S 0.90897(5) 0.77931(7) 0.13479(3)
S2 S 0.82101(5) 1.23533(6) 0.60436(3)
C1 C 0.7723(2) 0.7230(2) 0.10776(13)
C2 C 0.7154(2) 0.6476(3) 0.15711(16)
H1 H 0.7484 0.6243 0.2073
C3 C 0.6096(3) 0.6076(4) 0.1310(2)
H2 H 0.5713 0.5582 0.1641
C4 C 0.5605(3) 0.6396(4) 0.0575(2)
H3 H 0.4884 0.6149 0.0412
C5 C 0.6177(3) 0.7086(4) 0.00720(19)
H4 H 0.5852 0.7263 -0.0438
C6 C 0.7232(3) 0.7517(3) 0.03219(15)
H5 H 0.7613 0.7999 -0.0016
C7 C 0.70110(18) 1.3035(2) 0.63429(12)
C8 C 0.6390(2) 1.4102(3) 0.59236(15)
H6 H 0.6587 1.4474 0.5472
C9 C 0.5475(2) 1.4610(3) 0.61799(19)
H7 H 0.5057 1.5330 0.5901
C10 C 0.5180(3) 1.4060(4) 0.68456(18)
H8 H 0.4554 1.4390 0.7009
C11 C 0.5808(3) 1.3023(4) 0.72677(17)
H9 H 0.5615 1.2672 0.7725
C12 C 0.6729(2) 1.2490(3) 0.70215(14)
H10 H 0.7150 1.1780 0.7307
C13 C 0.9289(2) 0.8010(3) 0.23976(12)
H11 H 0.9140 0.7085 0.2627
H12 H 1.0044 0.8240 0.2579
C14 C 0.8600(2) 0.9172(3) 0.26920(13)
H13 H 0.7845 0.8892 0.2570
H14 H 0.8687 1.0082 0.2427
C15 C 0.8905(2) 0.9399(3) 0.35645(13)
H15 H 0.8894 0.8466 0.3823
H16 H 0.9637 0.9775 0.3678
C16 C 0.8151(2) 1.0444(3) 0.38903(15)
H17 H 0.7447 0.9990 0.3858
H18 H 0.8063 1.1314 0.3571
C17 C 0.8557(2) 1.0881(3) 0.47314(13)
H19 H 0.8800 1.0020 0.5033
H20 H 0.9169 1.1535 0.4751
C18 C 0.76727(19) 1.1626(3) 0.50830(13)
H21 H 0.7365 1.2412 0.4746
H22 H 0.7102 1.0934 0.5125
O1B O 0.90038(15) 0.9676(2) -0.05706(10)
S2A S 0.82101(5) 1.26467(6) 0.10436(3)
Ag1B Ag 1.080674(16) 0.96050(2) -0.084143(11)
Ag1A Ag 0.919326(16) 1.46050(2) 0.584143(11)
loop_
_geom_bond_atom_site_label_1
_geom_bond_atom_site_label_2
_geom_bond_site_symmetry_1
_geom_bond_site_symmetry_2
Ag1 O1 1_555 1_555
N1 O1 1_555 1_555
O1 Ag1B 1_555 1_555
O2 N1 1_555 1_555
O3 N1 1_555 1_555
S1 Ag1 1_555 1_555
S2 C7 1_555 1_555
C1 S1 1_555 1_555
C2 C1 1_555 1_555
H1 C2 1_555 1_555
C3 C2 1_555 1_555
H2 C3 1_555 1_555
C4 C3 1_555 1_555
H3 C4 1_555 1_555
C5 C4 1_555 1_555
H4 C5 1_555 1_555
C6 C1 1_555 1_555
H5 C6 1_555 1_555
C7 C8 1_555 1_555
C8 H6 1_555 1_555
C9 C8 1_555 1_555
H7 C9 1_555 1_555
C10 C9 1_555 1_555
H8 C10 1_555 1_555
C11 C10 1_555 1_555
H9 C11 1_555 1_555
C12 C7 1_555 1_555
H10 C12 1_555 1_555
C13 S1 1_555 1_555
H11 C13 1_555 1_555
H12 C13 1_555 1_555
C14 C13 1_555 1_555
H13 C14 1_555 1_555
H14 C14 1_555 1_555
C15 C14 1_555 1_555
H15 C15 1_555 1_555
H16 C15 1_555 1_555
C16 C15 1_555 1_555
H17 C16 1_555 1_555
H18 C16 1_555 1_555
C17 C16 1_555 1_555
H19 C17 1_555 1_555
H20 C17 1_555 1_555
C18 S2 1_555 1_555
H21 C18 1_555 1_555
H22 C18 1_555 1_555
O1B Ag1 1_555 1_555
S2A Ag1 1_555 1_555
Ag1B O1B 1_555 1_555
Ag1A S2 1_555 1_555
C5 C6 1_555 1_555
C11 C12 1_555 1_555
C17 C18 1_555 1_555

#END
