
#######################################################################
#
#                 Cambridge Crystallographic Data Centre
#                                CCDC 
#
#######################################################################
#
# If this CIF has been generated from an entry in the Cambridge 
# Structural Database, then it will include bibliographic, chemical, 
# crystal, experimental, refinement or atomic coordinate data resulting 
# from the CCDC's data processing and validation procedures.
#
#######################################################################

data_HADLAA
_symmetry_cell_setting           monoclinic
_symmetry_space_group_name_H-M   'I 2/a'
_symmetry_Int_Tables_number      15
_space_group_name_Hall           '-I 2ya'
loop_
_symmetry_equiv_pos_site_id
_symmetry_equiv_pos_as_xyz
1 x,y,z
2 1/2+x,1/2+y,1/2+z
3 1/2+x,-y,z
4 x,1/2-y,1/2+z
5 -x,-y,-z
6 1/2-x,1/2-y,1/2-z
7 1/2-x,y,-z
8 -x,1/2+y,1/2-z
_cell_length_a                   36.949(2)
_cell_length_b                   19.4415(13)
_cell_length_c                   42.134(3)
_cell_angle_alpha                90
_cell_angle_beta                 102.6240(10)
_cell_angle_gamma                90
_cell_volume                     29535
loop_
_atom_site_label
_atom_site_type_symbol
_atom_site_fract_x
_atom_site_fract_y
_atom_site_fract_z
Sb1 Sb -0.38657(4) 1.68737(5) -0.89980(3)
F1 F -0.4002(5) 1.6847(9) -0.9427(2)
F2 F -0.3714(3) 1.6916(5) -0.8548(2)
F3 F -0.3858(4) 1.7815(4) -0.9013(4)
F4 F -0.3366(3) 1.6846(6) -0.9028(3)
F5 F -0.4339(3) 1.6929(5) -0.8943(3)
F6 F -0.3874(3) 1.5922(4) -0.8965(3)
Sb2 Sb -0.13579(5) 1.14552(12) -0.87365(4)
F7 F -0.1645(5) 1.2211(8) -0.8796(6)
F8 F -0.1090(5) 1.0649(9) -0.8612(5)
F9 F -0.1682(4) 1.1103(8) -0.8488(3)
F10 F -0.1069(5) 1.1813(11) -0.8382(3)
F11 F -0.1064(4) 1.1761(11) -0.8992(4)
F12 F -0.1660(5) 1.1080(13) -0.9092(3)
Re1 Re -0.408270(14) 0.24122(2) -0.397370(12)
Re2 Re -0.407010(15) 0.37591(2) -0.396320(12)
Re3 Re -0.446510(13) 0.37648(2) -0.351350(11)
Re4 Re -0.448690(13) 0.24013(2) -0.352970(11)
Re5 Re -0.470880(15) 0.31094(2) -0.407370(11)
Re6 Re -0.384230(13) 0.30510(2) -0.341950(12)
Se1 Se -0.50674(3) 0.31146(6) -0.36288(3)
Se2 Se -0.42521(3) 0.30467(6) -0.30115(3)
Se3 Se -0.43021(4) 0.30971(6) -0.44826(3)
Se4 Se -0.34826(4) 0.30734(6) -0.38598(3)
Se5 Se -0.38855(3) 0.17611(5) -0.34491(3)
Se6 Se -0.46760(4) 0.43988(6) -0.40409(3)
Se7 Se -0.38426(4) 0.43400(6) -0.34264(3)
Se8 Se -0.46964(3) 0.18054(6) -0.40699(3)
Cd1 Cd -0.2500 0.81016(6) -0.5000
N1 N -0.38429(19) 0.1610(3) -0.42352(17)
C1 C -0.3602(2) 0.1782(2) -0.44337(18)
H1 H -0.3561 0.2252 -0.4478
C2 C -0.3420(2) 0.1268(3) -0.45669(18)
H2 H -0.3255 0.1386 -0.4703
C3 C -0.3479(2) 0.0581(3) -0.45017(19)
C4 C -0.3720(2) 0.0409(2) -0.43031(19)
H3 H -0.3760 -0.0061 -0.4259
C5 C -0.3902(2) 0.0923(3) -0.41699(17)
H4 H -0.4067 0.0805 -0.4034
N2 N -0.2870(2) -0.1036(3) -0.48467(19)
C6 C -0.2958(2) -0.1082(3) -0.45430(18)
H5 H -0.2880 -0.1469 -0.4408
C7 C -0.3161(3) -0.0561(4) -0.44368(17)
H6 H -0.3221 -0.0593 -0.4229
C8 C -0.3276(2) 0.0005(3) -0.4634(2)
C9 C -0.3188(2) 0.0051(3) -0.49380(18)
H7 H -0.3267 0.0439 -0.5073
C10 C -0.2985(2) -0.0469(4) -0.50442(15)
H8 H -0.2925 -0.0438 -0.5252
N3 N -0.3826(2) 0.4565(3) -0.42138(19)
C11 C -0.3581(3) 0.4404(3) -0.4410(2)
H9 H -0.3538 0.3937 -0.4457
C12 C -0.3400(3) 0.4926(4) -0.4539(2)
H10 H -0.3232 0.4817 -0.4673
C13 C -0.3463(2) 0.5610(4) -0.4470(2)
C14 C -0.3709(2) 0.5770(3) -0.4274(2)
H11 H -0.3752 0.6237 -0.4227
C15 C -0.3890(2) 0.5248(3) -0.41455(18)
H12 H -0.4058 0.5358 -0.4011
N4 N -0.2839(3) 0.7263(4) -0.4796(2)
C16 C -0.3216(3) 0.7326(4) -0.4805(3)
H13 H -0.3345 0.7730 -0.4893
C17 C -0.3403(2) 0.6799(5) -0.4687(3)
H14 H -0.3661 0.6842 -0.4693
C18 C -0.3214(3) 0.6208(4) -0.4559(3)
C19 C -0.2837(3) 0.6145(5) -0.4550(3)
H15 H -0.2708 0.5741 -0.4463
C20 C -0.2650(2) 0.6672(5) -0.4669(3)
H16 H -0.2392 0.6629 -0.4663
P1 P -0.46634(9) 0.47040(15) -0.31826(8)
C21 C -0.5068(4) 0.4499(5) -0.3013(3)
C22 C -0.5042(4) 0.4465(5) -0.2678(3)
H17 H -0.4807 0.4513 -0.2533
C23 C -0.5367(4) 0.4358(7) -0.2553(4)
H18 H -0.5353 0.4371 -0.2325
C24 C -0.5690(5) 0.4241(8) -0.2758(4)
H19 H -0.5898 0.4131 -0.2670
C25 C -0.5736(4) 0.4269(6) -0.3084(4)
H20 H -0.5971 0.4202 -0.3226
C26 C -0.5398(4) 0.4410(6) -0.3205(4)
H21 H -0.5419 0.4438 -0.3433
C27 C -0.4764(3) 0.5517(5) -0.3404(3)
C28 C -0.5119(4) 0.5773(6) -0.3508(3)
H22 H -0.5329 0.5518 -0.3479
C29 C -0.5164(4) 0.6464(7) -0.3668(3)
H23 H -0.5401 0.6669 -0.3737
C30 C -0.4856(4) 0.6786(7) -0.3711(3)
H24 H -0.4881 0.7229 -0.3808
C31 C -0.4502(4) 0.6499(7) -0.3621(3)
H25 H -0.4293 0.6735 -0.3665
C32 C -0.4461(3) 0.5915(5) -0.3477(3)
H26 H -0.4217 0.5731 -0.3415
C33 C -0.4319(3) 0.5020(6) -0.2825(3)
C34 C -0.4390(4) 0.5646(6) -0.2701(3)
H27 H -0.4610 0.5884 -0.2802
C35 C -0.4159(4) 0.5941(6) -0.2439(3)
H28 H -0.4223 0.6363 -0.2351
C36 C -0.3824(4) 0.5603(6) -0.2303(3)
H29 H -0.3653 0.5803 -0.2126
C37 C -0.3745(3) 0.4977(6) -0.2430(4)
H30 H -0.3519 0.4745 -0.2340
C38 C -0.3994(3) 0.4696(6) -0.2683(3)
H31 H -0.3941 0.4261 -0.2765
P2 P -0.47735(9) 0.14736(15) -0.32448(8)
C39 C -0.4808(3) 0.1712(6) -0.2842(3)
C40 C -0.4998(4) 0.2296(6) -0.2779(3)
H32 H -0.5108 0.2585 -0.2956
C41 C -0.5033(4) 0.2467(6) -0.2482(3)
H33 H -0.5167 0.2870 -0.2453
C42 C -0.4881(4) 0.2076(7) -0.2220(3)
H34 H -0.4918 0.2203 -0.2011
C43 C -0.4681(4) 0.1514(7) -0.2250(3)
H35 H -0.4560 0.1261 -0.2063
C44 C -0.4652(3) 0.1307(6) -0.2562(3)
H36 H -0.4527 0.0891 -0.2588
C45 C -0.4507(3) 0.0661(5) -0.3219(3)
C46 C -0.4169(3) 0.0591(6) -0.3012(3)
H37 H -0.4080 0.0961 -0.2869
C47 C -0.3955(4) 0.0019(6) -0.2999(3)
H38 H -0.3715 -0.0011 -0.2860
C48 C -0.4108(4) -0.0513(7) -0.3199(4)
H39 H -0.3977 -0.0937 -0.3181
C49 C -0.4442(4) -0.0468(7) -0.3427(4)
H40 H -0.4530 -0.0830 -0.3574
C50 C -0.4645(4) 0.0152(7) -0.3425(3)
H41 H -0.4879 0.0206 -0.3570
C51 C -0.5246(3) 0.1224(5) -0.3424(3)
C52 C -0.5417(4) 0.0727(6) -0.3254(3)
H42 H -0.5282 0.0544 -0.3054
C53 C -0.5764(4) 0.0517(7) -0.3373(4)
H43 H -0.5875 0.0219 -0.3243
C54 C -0.5979(4) 0.0712(7) -0.3683(3)
H44 H -0.6217 0.0524 -0.3771
C55 C -0.5814(4) 0.1195(8) -0.3847(3)
H45 H -0.5947 0.1368 -0.4051
C56 C -0.5460(4) 0.1429(6) -0.3720(3)
H46 H -0.5356 0.1753 -0.3844
P3 P -0.52851(12) 0.3207(2) -0.45183(8)
C57 C -0.5553(4) 0.2404(5) -0.4618(3)
C58 C -0.5923(4) 0.2330(8) -0.4604(3)
H47 H -0.6050 0.2698 -0.4527
C59 C -0.6107(3) 0.1716(9) -0.4701(3)
H48 H -0.6360 0.1665 -0.4691
C60 C -0.5922(4) 0.1177(7) -0.4812(3)
H49 H -0.6047 0.0758 -0.4879
C61 C -0.5551(4) 0.1252(6) -0.4827(3)
H50 H -0.5424 0.0884 -0.4904
C62 C -0.5367(3) 0.1865(7) -0.4730(3)
H51 H -0.5114 0.1916 -0.4740
C63 C -0.5597(3) 0.3895(7) -0.4458(3)
C64 C -0.5812(4) 0.4174(8) -0.4741(3)
H52 H -0.5805 0.3976 -0.4946
C65 C -0.6036(4) 0.4741(8) -0.4725(4)
H53 H -0.6182 0.4932 -0.4918
C66 C -0.6045(4) 0.5030(7) -0.4425(5)
H54 H -0.6198 0.5418 -0.4413
C67 C -0.5831(5) 0.4752(9) -0.4141(4)
H55 H -0.5837 0.4950 -0.3937
C68 C -0.5607(5) 0.4184(9) -0.4158(3)
H56 H -0.5460 0.3994 -0.3964
C69 C -0.5224(5) 0.3469(7) -0.4913(3)
C70 C -0.4949(4) 0.4015(7) -0.4936(4)
H57 H -0.4807 0.4204 -0.4740
C71 C -0.4890(5) 0.4250(7) -0.5217(4)
H58 H -0.4732 0.4634 -0.5221
C72 C -0.5062(5) 0.3927(7) -0.5505(4)
H59 H -0.5000 0.4059 -0.5704
C73 C -0.5327(6) 0.3408(8) -0.5506(4)
H60 H -0.5467 0.3229 -0.5705
C74 C -0.5383(5) 0.3153(8) -0.5204(3)
H61 H -0.5532 0.2757 -0.5202
P4 P -0.32535(9) 0.28679(15) -0.29945(9)
C75 C -0.2864(4) 0.2576(6) -0.3176(3)
C76 C -0.2912(3) 0.2044(5) -0.3400(3)
H62 H -0.3147 0.1828 -0.3464
C77 C -0.2621(4) 0.1831(7) -0.3528(4)
H63 H -0.2645 0.1421 -0.3654
C78 C -0.2306(4) 0.2184(7) -0.3481(3)
H64 H -0.2122 0.2067 -0.3598
C79 C -0.2248(3) 0.2722(7) -0.3262(3)
H65 H -0.2014 0.2947 -0.3220
C80 C -0.2520(3) 0.2950(6) -0.3099(3)
H66 H -0.2479 0.3322 -0.2949
C81 C -0.3060(3) 0.3597(7) -0.2747(3)
C82 C -0.2972(4) 0.3567(6) -0.2410(3)
H67 H -0.3028 0.3163 -0.2303
C83 C -0.2806(4) 0.4110(7) -0.2229(4)
H68 H -0.2731 0.4073 -0.2000
C84 C -0.2744(4) 0.4746(7) -0.2393(4)
H69 H -0.2637 0.5137 -0.2274
C85 C -0.2848(4) 0.4757(7) -0.2727(4)
H70 H -0.2802 0.5166 -0.2835
C86 C -0.3009(3) 0.4232(7) -0.2910(4)
H71 H -0.3086 0.4276 -0.3140
C87 C -0.3310(3) 0.2179(6) -0.2704(3)
C88 C -0.3127(4) 0.1576(6) -0.2700(3)
H72 H -0.2962 0.1507 -0.2841
C89 C -0.3183(4) 0.1055(7) -0.2489(3)
H73 H -0.3044 0.0642 -0.2480
C90 C -0.3425(4) 0.1116(7) -0.2297(4)
H74 H -0.3468 0.0747 -0.2162
C91 C -0.3617(4) 0.1750(7) -0.2302(3)
H75 H -0.3793 0.1808 -0.2170
C92 C -0.3550(3) 0.2287(6) -0.2500(3)
H76 H -0.3667 0.2721 -0.2494
N5 N -0.3031(3) 0.8251(6) -0.5667(3)
O1 O -0.3020(5) 0.7828(7) -0.5447(3)
O2 O -0.3301(4) 0.8290(10) -0.5897(3)
O3 O -0.2770(4) 0.8649(11) -0.5646(5)
N2F N -0.2130(2) 0.8964(3) -0.51533(19)
N3F N -0.1174(2) 0.4565(3) -0.57862(19)
C11F C -0.1419(3) 0.4404(3) -0.5590(2)
H9F H -0.1462 0.3937 -0.5543
C12F C -0.1600(3) 0.4926(4) -0.5461(2)
H10F H -0.1768 0.4817 -0.5327
C13F C -0.1537(2) 0.5610(4) -0.5530(2)
C14F C -0.1291(2) 0.5770(3) -0.5726(2)
H11F H -0.1248 0.6237 -0.5773
C15F C -0.1110(2) 0.5248(3) -0.58545(18)
H12F H -0.0942 0.5358 -0.5989
N4F N -0.2161(3) 0.7263(4) -0.5204(2)
C16F C -0.1784(3) 0.7326(4) -0.5195(3)
H13F H -0.1655 0.7730 -0.5107
C17F C -0.1597(2) 0.6799(5) -0.5313(3)
H14F H -0.1339 0.6842 -0.5307
C18F C -0.1786(3) 0.6208(4) -0.5441(3)
C19F C -0.2163(3) 0.6145(5) -0.5450(3)
H15F H -0.2292 0.5741 -0.5537
C20F C -0.2350(2) 0.6672(5) -0.5331(3)
H16F H -0.2608 0.6629 -0.5337
N5F N -0.1969(3) 0.8251(6) -0.4333(3)
O1F O -0.1980(5) 0.7828(7) -0.4553(3)
O2F O -0.1699(4) 0.8290(10) -0.4103(3)
O3F O -0.2230(4) 0.8649(11) -0.4354(5)
Re2F Re -0.092990(15) 0.37591(2) -0.603680(12)
Se6F Se -0.03240(4) 0.43988(6) -0.59591(3)
Se7F Se -0.11574(4) 0.43400(6) -0.65736(3)
Re3F Re -0.053490(13) 0.37648(2) -0.648650(11)
P1F P -0.03366(9) 0.47040(15) -0.68174(8)
C21F C 0.0068(4) 0.4499(5) -0.6987(3)
C22F C 0.0042(4) 0.4465(5) -0.7322(3)
H17F H -0.0193 0.4513 -0.7467
C23F C 0.0367(4) 0.4358(7) -0.7447(4)
H18F H 0.0353 0.4371 -0.7675
C24F C 0.0690(5) 0.4241(8) -0.7242(4)
H19F H 0.0898 0.4131 -0.7330
C25F C 0.0736(4) 0.4269(6) -0.6916(4)
H20F H 0.0971 0.4202 -0.6774
C26F C 0.0398(4) 0.4410(6) -0.6795(4)
H21F H 0.0419 0.4438 -0.6567
C27F C -0.0236(3) 0.5517(5) -0.6596(3)
C28F C 0.0119(4) 0.5773(6) -0.6492(3)
H22F H 0.0329 0.5518 -0.6521
C29F C 0.0164(4) 0.6464(7) -0.6332(3)
H23F H 0.0401 0.6669 -0.6263
C30F C -0.0144(4) 0.6786(7) -0.6289(3)
H24F H -0.0119 0.7229 -0.6192
C31F C -0.0498(4) 0.6499(7) -0.6379(3)
H25F H -0.0707 0.6735 -0.6335
C32F C -0.0539(3) 0.5915(5) -0.6523(3)
H26F H -0.0783 0.5731 -0.6585
C33F C -0.0681(3) 0.5020(6) -0.7175(3)
C34F C -0.0610(4) 0.5646(6) -0.7299(3)
H27F H -0.0390 0.5884 -0.7198
C35F C -0.0841(4) 0.5941(6) -0.7561(3)
H28F H -0.0777 0.6363 -0.7649
C36F C -0.1176(4) 0.5603(6) -0.7697(3)
H29F H -0.1347 0.5803 -0.7874
C37F C -0.1255(3) 0.4977(6) -0.7570(4)
H30F H -0.1481 0.4745 -0.7660
C38F C -0.1006(3) 0.4696(6) -0.7317(3)
H31F H -0.1059 0.4261 -0.7235
Re1F Re -0.091730(14) 0.24122(2) -0.602630(12)
Re5F Re -0.029120(15) 0.31094(2) -0.592630(11)
Re6F Re -0.115770(13) 0.30510(2) -0.658050(12)
Se3F Se -0.06979(4) 0.30971(6) -0.55174(3)
Se4F Se -0.15174(4) 0.30734(6) -0.61402(3)
Re4F Re -0.051310(13) 0.24013(2) -0.647030(11)
Se1F Se 0.00674(3) 0.31146(6) -0.63712(3)
Se2F Se -0.07479(3) 0.30467(6) -0.69885(3)
Se5F Se -0.11145(3) 0.17611(5) -0.65509(3)
Se8F Se -0.03036(3) 0.18054(6) -0.59301(3)
N1F N -0.11571(19) 0.1610(3) -0.57648(17)
P3F P 0.02851(12) 0.3207(2) -0.54817(8)
P4F P -0.17465(9) 0.28679(15) -0.70055(9)
P2F P -0.02265(9) 0.14736(15) -0.67552(8)
C1F C -0.1398(2) 0.1782(2) -0.55663(18)
C5F C -0.1098(2) 0.0923(3) -0.58301(17)
C57F C 0.0553(4) 0.2404(5) -0.5382(3)
C63F C 0.0597(3) 0.3895(7) -0.5542(3)
C69F C 0.0224(5) 0.3469(7) -0.5087(3)
C75F C -0.2136(4) 0.2576(6) -0.6824(3)
C81F C -0.1940(3) 0.3597(7) -0.7253(3)
C87F C -0.1690(3) 0.2179(6) -0.7296(3)
C39F C -0.0192(3) 0.1712(6) -0.7158(3)
C45F C -0.0493(3) 0.0661(5) -0.6781(3)
C51F C 0.0246(3) 0.1224(5) -0.6576(3)
H1F H -0.1439 0.2252 -0.5522
C2F C -0.1580(2) 0.1268(3) -0.54331(18)
C4F C -0.1280(2) 0.0409(2) -0.56969(19)
H4F H -0.0933 0.0805 -0.5966
C58F C 0.0923(4) 0.2330(8) -0.5396(3)
C62F C 0.0367(3) 0.1865(7) -0.5270(3)
C64F C 0.0812(4) 0.4174(8) -0.5259(3)
C68F C 0.0607(5) 0.4184(9) -0.5842(3)
C70F C -0.0051(4) 0.4015(7) -0.5064(4)
C74F C 0.0383(5) 0.3153(8) -0.4796(3)
C76F C -0.2088(3) 0.2044(5) -0.6600(3)
C80F C -0.2480(3) 0.2950(6) -0.6901(3)
C82F C -0.2028(4) 0.3567(6) -0.7590(3)
C86F C -0.1991(3) 0.4232(7) -0.7090(4)
C88F C -0.1873(4) 0.1576(6) -0.7300(3)
C92F C -0.1450(3) 0.2287(6) -0.7500(3)
C40F C -0.0002(4) 0.2296(6) -0.7221(3)
C44F C -0.0348(3) 0.1307(6) -0.7438(3)
C46F C -0.0831(3) 0.0591(6) -0.6988(3)
C50F C -0.0355(4) 0.0152(7) -0.6575(3)
C52F C 0.0417(4) 0.0727(6) -0.6746(3)
C56F C 0.0460(4) 0.1429(6) -0.6280(3)
H2F H -0.1745 0.1386 -0.5297
C3F C -0.1521(2) 0.0581(3) -0.54983(19)
H3F H -0.1240 -0.0061 -0.5741
H47F H 0.1050 0.2698 -0.5473
C59F C 0.1107(3) 0.1716(9) -0.5299(3)
C61F C 0.0551(4) 0.1252(6) -0.5173(3)
H51F H 0.0114 0.1916 -0.5260
H52F H 0.0805 0.3976 -0.5054
C65F C 0.1036(4) 0.4741(8) -0.5275(4)
C67F C 0.0831(5) 0.4752(9) -0.5859(4)
H56F H 0.0460 0.3994 -0.6036
H57F H -0.0193 0.4204 -0.5260
C71F C -0.0110(5) 0.4250(7) -0.4783(4)
C73F C 0.0327(6) 0.3408(8) -0.4494(4)
H61F H 0.0532 0.2757 -0.4798
H62F H -0.1853 0.1828 -0.6536
C77F C -0.2379(4) 0.1831(7) -0.6472(4)
C79F C -0.2752(3) 0.2722(7) -0.6738(3)
H66F H -0.2521 0.3322 -0.7051
H67F H -0.1972 0.3163 -0.7697
C83F C -0.2194(4) 0.4110(7) -0.7771(4)
C85F C -0.2152(4) 0.4757(7) -0.7273(4)
H71F H -0.1914 0.4276 -0.6860
H72F H -0.2038 0.1507 -0.7159
C89F C -0.1817(4) 0.1055(7) -0.7511(3)
C91F C -0.1383(4) 0.1750(7) -0.7698(3)
H76F H -0.1333 0.2721 -0.7506
H32F H 0.0108 0.2585 -0.7044
C41F C 0.0033(4) 0.2467(6) -0.7518(3)
C43F C -0.0319(4) 0.1514(7) -0.7750(3)
H36F H -0.0473 0.0891 -0.7412
H37F H -0.0920 0.0961 -0.7131
C47F C -0.1045(4) 0.0019(6) -0.7001(3)
C49F C -0.0558(4) -0.0468(7) -0.6573(4)
H41F H -0.0121 0.0206 -0.6430
H42F H 0.0282 0.0544 -0.6946
C53F C 0.0764(4) 0.0517(7) -0.6627(4)
C55F C 0.0814(4) 0.1195(8) -0.6153(3)
H46F H 0.0356 0.1753 -0.6156
C8F C -0.1724(2) 0.0005(3) -0.5366(2)
H48F H 0.1360 0.1665 -0.5309
C60F C 0.0922(4) 0.1177(7) -0.5188(3)
H50F H 0.0424 0.0884 -0.5096
H53F H 0.1182 0.4932 -0.5082
C66F C 0.1045(4) 0.5030(7) -0.5575(5)
H55F H 0.0837 0.4950 -0.6063
H58F H -0.0268 0.4634 -0.4779
C72F C 0.0062(5) 0.3927(7) -0.4495(4)
H60F H 0.0467 0.3229 -0.4295
H63F H -0.2355 0.1421 -0.6346
C78F C -0.2694(4) 0.2184(7) -0.6519(3)
H65F H -0.2986 0.2947 -0.6780
H68F H -0.2269 0.4073 -0.8000
C84F C -0.2256(4) 0.4746(7) -0.7607(4)
H70F H -0.2198 0.5166 -0.7165
H73F H -0.1956 0.0642 -0.7520
C90F C -0.1575(4) 0.1116(7) -0.7703(4)
H75F H -0.1207 0.1808 -0.7830
H33F H 0.0167 0.2870 -0.7547
C42F C -0.0119(4) 0.2076(7) -0.7780(3)
H35F H -0.0440 0.1261 -0.7937
H38F H -0.1285 -0.0011 -0.7140
C48F C -0.0892(4) -0.0513(7) -0.6801(4)
H40F H -0.0470 -0.0830 -0.6426
H43F H 0.0875 0.0219 -0.6757
C54F C 0.0979(4) 0.0712(7) -0.6317(3)
H45F H 0.0947 0.1368 -0.5949
C7F C -0.1839(3) -0.0561(4) -0.55632(17)
C9F C -0.1812(2) 0.0051(3) -0.50620(18)
H49F H 0.1047 0.0758 -0.5121
H54F H 0.1198 0.5418 -0.5587
H59F H 0.0000 0.4059 -0.4296
H64F H -0.2878 0.2067 -0.6402
H69F H -0.2363 0.5137 -0.7726
H74F H -0.1532 0.0747 -0.7838
H34F H -0.0082 0.2203 -0.7989
H39F H -0.1023 -0.0937 -0.6819
H44F H 0.1217 0.0524 -0.6229
C6F C -0.2042(2) -0.1082(3) -0.54570(18)
H6F H -0.1779 -0.0593 -0.5771
H7F H -0.1733 0.0439 -0.4927
C10F C -0.2015(2) -0.0469(4) -0.49558(15)
N2_2 N -0.2870(2) 0.8964(3) -0.48467(19)
N2F_2 N -0.2130(2) -0.1036(3) -0.51533(19)
H5F H -0.2120 -0.1469 -0.5592
H8F H -0.2075 -0.0438 -0.4748
Cd1_2 Cd -0.2500 -0.18984(6) -0.5000
loop_
_geom_bond_atom_site_label_1
_geom_bond_atom_site_label_2
_geom_bond_site_symmetry_1
_geom_bond_site_symmetry_2
Re1 Re2 1_555 1_555
Re2 Re3 1_555 1_555
Re3 Re4 1_555 1_555
Re4 Re1 1_555 1_555
Re5 Re1 1_555 1_555
Re6 Re1 1_555 1_555
Se1 Re3 1_555 1_555
Se2 Re3 1_555 1_555
Se3 Re1 1_555 1_555
Se4 Re1 1_555 1_555
Se5 Re1 1_555 1_555
Se6 Re2 1_555 1_555
Se7 Re2 1_555 1_555
Se8 Re1 1_555 1_555
Cd1 N4 1_555 1_555
Sb1 F1 1_555 1_555
F2 Sb1 1_555 1_555
F3 Sb1 1_555 1_555
F4 Sb1 1_555 1_555
F5 Sb1 1_555 1_555
F6 Sb1 1_555 1_555
Sb2 F7 1_555 1_555
F8 Sb2 1_555 1_555
F9 Sb2 1_555 1_555
F10 Sb2 1_555 1_555
F11 Sb2 1_555 1_555
F12 Sb2 1_555 1_555
N1 Re1 1_555 1_555
C1 N1 1_555 1_555
H1 C1 1_555 1_555
C2 C1 1_555 1_555
H2 C2 1_555 1_555
C3 C2 1_555 1_555
C4 C3 1_555 1_555
H3 C4 1_555 1_555
C5 N1 1_555 1_555
H4 C5 1_555 1_555
N2 C6 1_555 1_555
C6 H5 1_555 1_555
C7 C6 1_555 1_555
H6 C7 1_555 1_555
C8 C3 1_555 1_555
C9 C8 1_555 1_555
H7 C9 1_555 1_555
C10 N2 1_555 1_555
H8 C10 1_555 1_555
N3 Re2 1_555 1_555
C11 N3 1_555 1_555
H9 C11 1_555 1_555
C12 C11 1_555 1_555
H10 C12 1_555 1_555
C13 C12 1_555 1_555
C14 C13 1_555 1_555
H11 C14 1_555 1_555
C15 N3 1_555 1_555
H12 C15 1_555 1_555
N4 C16 1_555 1_555
C16 H13 1_555 1_555
C17 C16 1_555 1_555
H14 C17 1_555 1_555
C18 C13 1_555 1_555
C19 C18 1_555 1_555
H15 C19 1_555 1_555
C20 N4 1_555 1_555
H16 C20 1_555 1_555
P1 Re3 1_555 1_555
C21 P1 1_555 1_555
C22 C21 1_555 1_555
H17 C22 1_555 1_555
C23 C22 1_555 1_555
H18 C23 1_555 1_555
C24 C23 1_555 1_555
H19 C24 1_555 1_555
C25 C24 1_555 1_555
H20 C25 1_555 1_555
C26 C21 1_555 1_555
H21 C26 1_555 1_555
C27 P1 1_555 1_555
C28 C27 1_555 1_555
H22 C28 1_555 1_555
C29 C28 1_555 1_555
H23 C29 1_555 1_555
C30 C29 1_555 1_555
H24 C30 1_555 1_555
C31 C30 1_555 1_555
H25 C31 1_555 1_555
C32 C27 1_555 1_555
H26 C32 1_555 1_555
C33 P1 1_555 1_555
C34 C33 1_555 1_555
H27 C34 1_555 1_555
C35 C34 1_555 1_555
H28 C35 1_555 1_555
C36 C35 1_555 1_555
H29 C36 1_555 1_555
C37 C36 1_555 1_555
H30 C37 1_555 1_555
C38 C33 1_555 1_555
H31 C38 1_555 1_555
P2 Re4 1_555 1_555
C39 P2 1_555 1_555
C40 C39 1_555 1_555
H32 C40 1_555 1_555
C41 C40 1_555 1_555
H33 C41 1_555 1_555
C42 C41 1_555 1_555
H34 C42 1_555 1_555
C43 C42 1_555 1_555
H35 C43 1_555 1_555
C44 C39 1_555 1_555
H36 C44 1_555 1_555
C45 P2 1_555 1_555
C46 C45 1_555 1_555
H37 C46 1_555 1_555
C47 C46 1_555 1_555
H38 C47 1_555 1_555
C48 C47 1_555 1_555
H39 C48 1_555 1_555
C49 C48 1_555 1_555
H40 C49 1_555 1_555
C50 C45 1_555 1_555
H41 C50 1_555 1_555
C51 P2 1_555 1_555
C52 C51 1_555 1_555
H42 C52 1_555 1_555
C53 C52 1_555 1_555
H43 C53 1_555 1_555
C54 C53 1_555 1_555
H44 C54 1_555 1_555
C55 C54 1_555 1_555
H45 C55 1_555 1_555
C56 C51 1_555 1_555
H46 C56 1_555 1_555
P3 Re5 1_555 1_555
C57 P3 1_555 1_555
C58 C57 1_555 1_555
H47 C58 1_555 1_555
C59 C58 1_555 1_555
H48 C59 1_555 1_555
C60 C59 1_555 1_555
H49 C60 1_555 1_555
C61 C60 1_555 1_555
H50 C61 1_555 1_555
C62 C57 1_555 1_555
H51 C62 1_555 1_555
C63 P3 1_555 1_555
C64 C63 1_555 1_555
H52 C64 1_555 1_555
C65 C64 1_555 1_555
H53 C65 1_555 1_555
C66 C65 1_555 1_555
H54 C66 1_555 1_555
C67 C66 1_555 1_555
H55 C67 1_555 1_555
C68 C63 1_555 1_555
H56 C68 1_555 1_555
C69 P3 1_555 1_555
C70 C69 1_555 1_555
H57 C70 1_555 1_555
C71 C70 1_555 1_555
H58 C71 1_555 1_555
C72 C71 1_555 1_555
H59 C72 1_555 1_555
C73 C72 1_555 1_555
H60 C73 1_555 1_555
C74 C69 1_555 1_555
H61 C74 1_555 1_555
P4 Re6 1_555 1_555
C75 P4 1_555 1_555
C76 C75 1_555 1_555
H62 C76 1_555 1_555
C77 C76 1_555 1_555
H63 C77 1_555 1_555
C78 C77 1_555 1_555
H64 C78 1_555 1_555
C79 C78 1_555 1_555
H65 C79 1_555 1_555
C80 C75 1_555 1_555
H66 C80 1_555 1_555
C81 P4 1_555 1_555
C82 C81 1_555 1_555
H67 C82 1_555 1_555
C83 C82 1_555 1_555
H68 C83 1_555 1_555
C84 C83 1_555 1_555
H69 C84 1_555 1_555
C85 C84 1_555 1_555
H70 C85 1_555 1_555
C86 C81 1_555 1_555
H71 C86 1_555 1_555
C87 P4 1_555 1_555
C88 C87 1_555 1_555
H72 C88 1_555 1_555
C89 C88 1_555 1_555
H73 C89 1_555 1_555
C90 C89 1_555 1_555
H74 C90 1_555 1_555
C91 C90 1_555 1_555
H75 C91 1_555 1_555
C92 C87 1_555 1_555
H76 C92 1_555 1_555
N5 O1 1_555 1_555
O1 Cd1 1_555 1_555
O2 N5 1_555 1_555
O3 N5 1_555 1_555
N2F Cd1 1_555 1_555
N3F C11F 1_555 1_555
C11F H9F 1_555 1_555
C12F C11F 1_555 1_555
H10F C12F 1_555 1_555
C13F C12F 1_555 1_555
C14F C13F 1_555 1_555
H11F C14F 1_555 1_555
C15F N3F 1_555 1_555
H12F C15F 1_555 1_555
N4F Cd1 1_555 1_555
C16F N4F 1_555 1_555
H13F C16F 1_555 1_555
C17F C16F 1_555 1_555
H14F C17F 1_555 1_555
C18F C13F 1_555 1_555
C19F C18F 1_555 1_555
H15F C19F 1_555 1_555
C20F N4F 1_555 1_555
H16F C20F 1_555 1_555
N5F O1F 1_555 1_555
O1F Cd1 1_555 1_555
O2F N5F 1_555 1_555
O3F N5F 1_555 1_555
Re2F N3F 1_555 1_555
Se6F Re2F 1_555 1_555
Se7F Re2F 1_555 1_555
Re3F Re2F 1_555 1_555
P1F Re3F 1_555 1_555
C21F P1F 1_555 1_555
C22F C21F 1_555 1_555
H17F C22F 1_555 1_555
C23F C22F 1_555 1_555
H18F C23F 1_555 1_555
C24F C23F 1_555 1_555
H19F C24F 1_555 1_555
C25F C24F 1_555 1_555
H20F C25F 1_555 1_555
C26F C21F 1_555 1_555
H21F C26F 1_555 1_555
C27F P1F 1_555 1_555
C28F C27F 1_555 1_555
H22F C28F 1_555 1_555
C29F C28F 1_555 1_555
H23F C29F 1_555 1_555
C30F C29F 1_555 1_555
H24F C30F 1_555 1_555
C31F C30F 1_555 1_555
H25F C31F 1_555 1_555
C32F C27F 1_555 1_555
H26F C32F 1_555 1_555
C33F P1F 1_555 1_555
C34F C33F 1_555 1_555
H27F C34F 1_555 1_555
C35F C34F 1_555 1_555
H28F C35F 1_555 1_555
C36F C35F 1_555 1_555
H29F C36F 1_555 1_555
C37F C36F 1_555 1_555
H30F C37F 1_555 1_555
C38F C33F 1_555 1_555
H31F C38F 1_555 1_555
Re1F Re2F 1_555 1_555
Re5F Re2F 1_555 1_555
Re6F Re2F 1_555 1_555
Se3F Re2F 1_555 1_555
Se4F Re2F 1_555 1_555
Re4F Re3F 1_555 1_555
Se1F Re3F 1_555 1_555
Se2F Re3F 1_555 1_555
Se5F Re1F 1_555 1_555
Se8F Re1F 1_555 1_555
N1F Re1F 1_555 1_555
P3F Re5F 1_555 1_555
P4F Re6F 1_555 1_555
P2F Re4F 1_555 1_555
C1F N1F 1_555 1_555
C5F N1F 1_555 1_555
C57F P3F 1_555 1_555
C63F P3F 1_555 1_555
C69F P3F 1_555 1_555
C75F P4F 1_555 1_555
C81F P4F 1_555 1_555
C87F P4F 1_555 1_555
C39F P2F 1_555 1_555
C45F P2F 1_555 1_555
C51F P2F 1_555 1_555
H1F C1F 1_555 1_555
C2F C1F 1_555 1_555
C4F C5F 1_555 1_555
H4F C5F 1_555 1_555
C58F C57F 1_555 1_555
C62F C57F 1_555 1_555
C64F C63F 1_555 1_555
C68F C63F 1_555 1_555
C70F C69F 1_555 1_555
C74F C69F 1_555 1_555
C76F C75F 1_555 1_555
C80F C75F 1_555 1_555
C82F C81F 1_555 1_555
C86F C81F 1_555 1_555
C88F C87F 1_555 1_555
C92F C87F 1_555 1_555
C40F C39F 1_555 1_555
C44F C39F 1_555 1_555
C46F C45F 1_555 1_555
C50F C45F 1_555 1_555
C52F C51F 1_555 1_555
C56F C51F 1_555 1_555
H2F C2F 1_555 1_555
C3F C2F 1_555 1_555
H3F C4F 1_555 1_555
H47F C58F 1_555 1_555
C59F C58F 1_555 1_555
C61F C62F 1_555 1_555
H51F C62F 1_555 1_555
H52F C64F 1_555 1_555
C65F C64F 1_555 1_555
C67F C68F 1_555 1_555
H56F C68F 1_555 1_555
H57F C70F 1_555 1_555
C71F C70F 1_555 1_555
C73F C74F 1_555 1_555
H61F C74F 1_555 1_555
H62F C76F 1_555 1_555
C77F C76F 1_555 1_555
C79F C80F 1_555 1_555
H66F C80F 1_555 1_555
H67F C82F 1_555 1_555
C83F C82F 1_555 1_555
C85F C86F 1_555 1_555
H71F C86F 1_555 1_555
H72F C88F 1_555 1_555
C89F C88F 1_555 1_555
C91F C92F 1_555 1_555
H76F C92F 1_555 1_555
H32F C40F 1_555 1_555
C41F C40F 1_555 1_555
C43F C44F 1_555 1_555
H36F C44F 1_555 1_555
H37F C46F 1_555 1_555
C47F C46F 1_555 1_555
C49F C50F 1_555 1_555
H41F C50F 1_555 1_555
H42F C52F 1_555 1_555
C53F C52F 1_555 1_555
C55F C56F 1_555 1_555
H46F C56F 1_555 1_555
C8F C3F 1_555 1_555
H48F C59F 1_555 1_555
C60F C59F 1_555 1_555
H50F C61F 1_555 1_555
H53F C65F 1_555 1_555
C66F C65F 1_555 1_555
H55F C67F 1_555 1_555
H58F C71F 1_555 1_555
C72F C71F 1_555 1_555
H60F C73F 1_555 1_555
H63F C77F 1_555 1_555
C78F C77F 1_555 1_555
H65F C79F 1_555 1_555
H68F C83F 1_555 1_555
C84F C83F 1_555 1_555
H70F C85F 1_555 1_555
H73F C89F 1_555 1_555
C90F C89F 1_555 1_555
H75F C91F 1_555 1_555
H33F C41F 1_555 1_555
C42F C41F 1_555 1_555
H35F C43F 1_555 1_555
H38F C47F 1_555 1_555
C48F C47F 1_555 1_555
H40F C49F 1_555 1_555
H43F C53F 1_555 1_555
C54F C53F 1_555 1_555
H45F C55F 1_555 1_555
C7F C8F 1_555 1_555
C9F C8F 1_555 1_555
H49F C60F 1_555 1_555
H54F C66F 1_555 1_555
H59F C72F 1_555 1_555
H64F C78F 1_555 1_555
H69F C84F 1_555 1_555
H74F C90F 1_555 1_555
H34F C42F 1_555 1_555
H39F C48F 1_555 1_555
H44F C54F 1_555 1_555
C6F C7F 1_555 1_555
H6F C7F 1_555 1_555
H7F C9F 1_555 1_555
C10F C9F 1_555 1_555
N2_2 Cd1 1_555 1_555
N2F_2 C6F 1_555 1_555
H5F C6F 1_555 1_555
H8F C10F 1_555 1_555
Cd1_2 N2 1_555 1_555
Re2 Re5 1_555 1_555
Re2 Re6 1_555 1_555
Re2 Se3 1_555 1_555
Re2 Se4 1_555 1_555
Re3 Se6 1_555 1_555
Re3 Se7 1_555 1_555
Re3 Re5 1_555 1_555
Re3 Re6 1_555 1_555
Re4 Se1 1_555 1_555
Re4 Se2 1_555 1_555
Re4 Re5 1_555 1_555
Re4 Re6 1_555 1_555
Re4 Se5 1_555 1_555
Re4 Se8 1_555 1_555
Re5 Se1 1_555 1_555
Re5 Se8 1_555 1_555
Re5 Se6 1_555 1_555
Re5 Se3 1_555 1_555
Re6 Se5 1_555 1_555
Re6 Se2 1_555 1_555
Re6 Se7 1_555 1_555
Re6 Se4 1_555 1_555
C4 C5 1_555 1_555
C7 C8 1_555 1_555
C9 C10 1_555 1_555
C14 C15 1_555 1_555
C17 C18 1_555 1_555
C19 C20 1_555 1_555
C25 C26 1_555 1_555
C31 C32 1_555 1_555
C37 C38 1_555 1_555
C43 C44 1_555 1_555
C49 C50 1_555 1_555
C55 C56 1_555 1_555
C61 C62 1_555 1_555
C67 C68 1_555 1_555
C73 C74 1_555 1_555
C79 C80 1_555 1_555
C85 C86 1_555 1_555
C91 C92 1_555 1_555
C14F C15F 1_555 1_555
C17F C18F 1_555 1_555
C19F C20F 1_555 1_555
Se6F Re3F 1_555 1_555
Se6F Re5F 1_555 1_555
Se7F Re3F 1_555 1_555
Se7F Re6F 1_555 1_555
Re3F Re5F 1_555 1_555
Re3F Re6F 1_555 1_555
C25F C26F 1_555 1_555
C31F C32F 1_555 1_555
C37F C38F 1_555 1_555
Re1F Re4F 1_555 1_555
Re1F Re5F 1_555 1_555
Re1F Re6F 1_555 1_555
Re1F Se3F 1_555 1_555
Re1F Se4F 1_555 1_555
Re5F Re4F 1_555 1_555
Re5F Se1F 1_555 1_555
Re5F Se3F 1_555 1_555
Re5F Se8F 1_555 1_555
Re6F Re4F 1_555 1_555
Re6F Se2F 1_555 1_555
Re6F Se4F 1_555 1_555
Re6F Se5F 1_555 1_555
Re4F Se1F 1_555 1_555
Re4F Se2F 1_555 1_555
Re4F Se5F 1_555 1_555
Re4F Se8F 1_555 1_555
C4F C3F 1_555 1_555
C61F C60F 1_555 1_555
C67F C66F 1_555 1_555
C73F C72F 1_555 1_555
C79F C78F 1_555 1_555
C85F C84F 1_555 1_555
C91F C90F 1_555 1_555
C43F C42F 1_555 1_555
C49F C48F 1_555 1_555
C55F C54F 1_555 1_555
C10F N2F_2 1_555 1_555
N2F_2 Cd1_2 1_555 1_555

#END
