
#######################################################################
#
#                 Cambridge Crystallographic Data Centre
#                                CCDC 
#
#######################################################################
#
# If this CIF has been generated from an entry in the Cambridge 
# Structural Database, then it will include bibliographic, chemical, 
# crystal, experimental, refinement or atomic coordinate data resulting 
# from the CCDC's data processing and validation procedures.
#
#######################################################################

data_HADMIJ
_symmetry_cell_setting           triclinic
_symmetry_space_group_name_H-M   'P -1'
_symmetry_Int_Tables_number      2
_space_group_name_Hall           '-P 1'
loop_
_symmetry_equiv_pos_site_id
_symmetry_equiv_pos_as_xyz
1 x,y,z
2 -x,-y,-z
_cell_length_a                   4.1572(3)
_cell_length_b                   8.4744(9)
_cell_length_c                   9.6374(12)
_cell_angle_alpha                89.490(12)
_cell_angle_beta                 78.362(11)
_cell_angle_gamma                81.059(11)
_cell_volume                     328.414
loop_
_atom_site_label
_atom_site_type_symbol
_atom_site_fract_x
_atom_site_fract_y
_atom_site_fract_z
Cu1 Cu -0.7096(4) 1.0264(2) -0.09799(18)
I1 I -0.8882(2) 1.16368(12) 0.15658(10)
N1 N -0.664(3) 1.2042(13) -0.2394(11)
C1 C -0.533(3) 1.4383(15) -0.4455(15)
C2 C -0.503(4) 1.4575(19) -0.3091(15)
H1 H -0.5551 1.4482 -0.7195
C3 C -0.559(4) 1.3385(18) -0.2122(16)
H2 H -0.4793 1.6464 -0.8782
C4 C -0.306(4) 1.8164(19) -0.6253(16)
H3 H -0.2432 1.9111 -0.6006
C5 C -0.364(4) 1.7071(18) -0.5230(14)
H4 H -0.3351 1.7274 -0.4319
Cu1A Cu -0.2904(4) 0.9736(2) 0.09799(18)
I1A I -0.1118(2) 0.83632(12) -0.15658(10)
I1A_2 I -1.1118(2) 0.83632(12) -0.15658(10)
Cu1A_2 Cu -1.2904(4) 0.9736(2) 0.09799(18)
C1A C -0.467(3) 1.5617(15) -0.5545(15)
C2A C -0.497(4) 1.5425(19) -0.6909(15)
C3A C -0.441(4) 1.6615(18) -0.7878(16)
N1A N -0.336(3) 1.7958(13) -0.7606(11)
Cu1A_3 Cu -0.2904(4) 1.9736(2) -0.90201(18)
I1_2 I -0.8882(2) 2.16368(12) -0.84342(10)
I1_3 I 0.1118(2) 2.16368(12) -0.84342(10)
I1A_3 I -0.1118(2) 1.83632(12) -1.15658(10)
C5A C -0.636(4) 1.2929(18) -0.4770(14)
C4A C -0.694(4) 1.1836(19) -0.3747(16)
H3A H -0.7568 1.0889 -0.3994
H4A H -0.6649 1.2726 -0.5681
H1A H -0.4449 1.5518 -0.2805
H2A H -0.5207 1.3536 -0.1218
Cu1_2 Cu -0.7096(4) 2.0264(2) -1.09799(18)
Cu1_3 Cu 0.2904(4) 2.0264(2) -1.09799(18)
loop_
_geom_bond_atom_site_label_1
_geom_bond_atom_site_label_2
_geom_bond_site_symmetry_1
_geom_bond_site_symmetry_2
Cu1 I1 1_555 1_555
I1 Cu1A 1_555 1_555
N1 Cu1 1_555 1_555
C1 C2 1_555 1_555
C2 C3 1_555 1_555
H1 C2A 1_555 1_555
C3 N1 1_555 1_555
H2 C3A 1_555 1_555
C4 H3 1_555 1_555
C5 C4 1_555 1_555
H4 C5 1_555 1_555
Cu1A I1A 1_555 1_555
I1A Cu1 1_555 1_555
I1A_2 Cu1 1_555 1_555
Cu1A_2 I1 1_555 1_555
C1A C1 1_555 1_555
C2A C1A 1_555 1_555
C3A C2A 1_555 1_555
N1A C4 1_555 1_555
Cu1A_3 N1A 1_555 1_555
I1_2 Cu1A_3 1_555 1_555
I1_3 Cu1A_3 1_555 1_555
I1A_3 Cu1A_3 1_555 1_555
C5A C1 1_555 1_555
C4A N1 1_555 1_555
H3A C4A 1_555 1_555
H4A C5A 1_555 1_555
H1A C2 1_555 1_555
H2A C3 1_555 1_555
Cu1_2 I1_2 1_555 1_555
Cu1_3 I1_3 1_555 1_555
C5 C1A 1_555 1_555
I1A_2 Cu1A_2 1_555 1_555
C3A N1A 1_555 1_555
I1A_3 Cu1_2 1_555 1_555
I1A_3 Cu1_3 1_555 1_555
C5A C4A 1_555 1_555

#END
