
#######################################################################
#
#                 Cambridge Crystallographic Data Centre
#                                CCDC 
#
#######################################################################
#
# If this CIF has been generated from an entry in the Cambridge 
# Structural Database, then it will include bibliographic, chemical, 
# crystal, experimental, refinement or atomic coordinate data resulting 
# from the CCDC's data processing and validation procedures.
#
#######################################################################

data_HADPAE01
_symmetry_cell_setting           monoclinic
_symmetry_space_group_name_H-M   'C 2/c'
_symmetry_Int_Tables_number      15
_space_group_name_Hall           '-C 2yn'
loop_
_symmetry_equiv_pos_site_id
_symmetry_equiv_pos_as_xyz
1 x,y,z
2 1/2+x,1/2+y,z
3 x,-y,1/2+z
4 1/2+x,1/2-y,1/2+z
5 -x,-y,-z
6 1/2-x,1/2-y,-z
7 -x,y,1/2-z
8 1/2-x,1/2+y,1/2-z
_cell_length_a                   23.625(5)
_cell_length_b                   11.892(2)
_cell_length_c                   16.510(3)
_cell_angle_alpha                90
_cell_angle_beta                 130.09(3)
_cell_angle_gamma                90
_cell_volume                     3548.58
loop_
_atom_site_label
_atom_site_type_symbol
_atom_site_fract_x
_atom_site_fract_y
_atom_site_fract_z
Fe1 Fe 0.0000 0.33801(5) 0.2500
N1 N 0.00483(16) 0.2041(2) 0.3464(2)
C1 C 0.0587(2) 0.1969(3) 0.4524(3)
H1 H 0.0977 0.2478 0.4852
C2 C 0.0598(2) 0.1190(3) 0.5152(3)
H2 H 0.0987 0.1176 0.5879
C3 C 0.00149(19) 0.0420(2) 0.4676(3)
C4 C -0.0545(2) 0.0484(3) 0.3569(3)
H3 H -0.0941 -0.0016 0.3218
C5 C -0.0507(2) 0.1280(3) 0.3011(3)
H4 H -0.0881 0.1302 0.2279
N2 N 0.11893(16) 0.3659(2) 0.3557(2)
C6 C 0.1796(2) 0.3367(3) 0.3657(4)
H5 H 0.1797 0.2816 0.3259
C7 C 0.2396(3) 0.4001(4) 0.4424(4)
H6 H 0.2869 0.3967 0.4639
N3 N 0.21498(18) 0.4712(3) 0.4817(3)
H7 H 0.2408 0.5206 0.5310
C8 C 0.14245(19) 0.4472(3) 0.4270(3)
N4 N 0.01917(15) 0.4722(2) 0.3585(2)
C9 C 0.09130(19) 0.5048(3) 0.4338(3)
C10 C 0.1124(2) 0.5887(3) 0.5073(3)
H8 H 0.1619 0.6078 0.5595
C11 C -0.0324(2) 0.5269(3) 0.3550(3)
H9 H -0.0818 0.5059 0.3044
C12 C -0.0142(3) 0.6118(4) 0.4233(4)
H10 H -0.0512 0.6492 0.4176
C13 C 0.0584(3) 0.6423(4) 0.5006(4)
H11 H 0.0707 0.6992 0.5482
C3D C -0.00149(19) -0.0420(2) 0.5324(3)
C2D C -0.0598(2) -0.1190(3) 0.4848(3)
C1D C -0.0587(2) -0.1969(3) 0.5476(3)
N1D N -0.00483(16) -0.2041(2) 0.6536(2)
C5D C 0.0507(2) -0.1280(3) 0.6989(3)
C4D C 0.0545(2) -0.0484(3) 0.6431(3)
H3D H 0.0941 0.0016 0.6782
H4D H 0.0881 -0.1302 0.7721
H1D H -0.0977 -0.2478 0.5148
H2D H -0.0987 -0.1176 0.4121
N2F N -0.11893(16) 0.3659(2) 0.1443(2)
C6F C -0.1796(2) 0.3367(3) 0.1343(4)
H5F H -0.1797 0.2816 0.1741
C7F C -0.2396(3) 0.4001(4) 0.0576(4)
H6F H -0.2869 0.3967 0.0361
N3F N -0.21498(18) 0.4712(3) 0.0183(3)
H7F H -0.2408 0.5206 -0.0310
C8F C -0.14245(19) 0.4472(3) 0.0730(3)
N4F N -0.01917(15) 0.4722(2) 0.1415(2)
C9F C -0.09130(19) 0.5048(3) 0.0662(3)
C10F C -0.1124(2) 0.5887(3) -0.0073(3)
H8F H -0.1619 0.6078 -0.0595
C11F C 0.0324(2) 0.5269(3) 0.1450(3)
H9F H 0.0818 0.5059 0.1956
C12F C 0.0142(3) 0.6118(4) 0.0767(4)
H10F H 0.0512 0.6492 0.0824
C13F C -0.0584(3) 0.6423(4) -0.0006(4)
H11F H -0.0707 0.6992 -0.0482
N1F N -0.00483(16) 0.2041(2) 0.1536(2)
Fe1B Fe 0.0000 -0.33801(5) 0.7500
O1 O 0.3119(2) 0.6346(4) 0.6403(4)
H12 H 0.3139 0.6595 0.6884
C14 C 0.3614(5) 0.6973(7) 0.6346(8)
H13 H 0.3339 0.7566 0.5825
H14 H 0.3991 0.7323 0.7027
C15 C 0.3960(6) 0.6297(8) 0.6072(8)
H15 H 0.4092 0.5585 0.6427
H16 H 0.4398 0.6667 0.6283
H17 H 0.3626 0.6179 0.5320
Cl1 Cl 0.2566(10) 0.8459(15) 0.7427(14)
O2 O 0.1860(13) 0.847(2) 0.6582(19)
O3 O 0.2942(16) 0.910(2) 0.728(3)
O4 O 0.2634(13) 0.8694(18) 0.8332(14)
O5 O 0.2808(11) 0.7311(13) 0.7580(14)
Cl2? Cl 0.2548(10) 0.8553(18) 0.7431(13)
O6? O 0.1922(13) 0.797(2) 0.6834(19)
O7? O 0.2918(17) 0.842(2) 0.708(3)
O8? O 0.3023(12) 0.831(3) 0.8418(14)
O9? O 0.2361(11) 0.9742(11) 0.7302(15)
loop_
_geom_bond_atom_site_label_1
_geom_bond_atom_site_label_2
_geom_bond_site_symmetry_1
_geom_bond_site_symmetry_2
Fe1 N1 1_555 1_555
N1 C1 1_555 1_555
C1 H1 1_555 1_555
C2 C1 1_555 1_555
H2 C2 1_555 1_555
C3 C2 1_555 1_555
C4 C3 1_555 1_555
H3 C4 1_555 1_555
C5 N1 1_555 1_555
H4 C5 1_555 1_555
N2 Fe1 1_555 1_555
C6 N2 1_555 1_555
H5 C6 1_555 1_555
C7 C6 1_555 1_555
H6 C7 1_555 1_555
N3 C7 1_555 1_555
H7 N3 1_555 1_555
C8 N2 1_555 1_555
N4 Fe1 1_555 1_555
C9 C8 1_555 1_555
C10 C9 1_555 1_555
H8 C10 1_555 1_555
C11 N4 1_555 1_555
H9 C11 1_555 1_555
C12 C11 1_555 1_555
H10 C12 1_555 1_555
C13 C10 1_555 1_555
H11 C13 1_555 1_555
O1 H12 1_555 1_555
C14 O1 1_555 1_555
H13 C14 1_555 1_555
H14 C14 1_555 1_555
C15 C14 1_555 1_555
H15 C15 1_555 1_555
H16 C15 1_555 1_555
H17 C15 1_555 1_555
Cl1 O2 1_555 1_555
O3 Cl1 1_555 1_555
O4 Cl1 1_555 1_555
O5 Cl1 1_555 1_555
C3D C3 1_555 1_555
C2D C3D 1_555 1_555
C1D C2D 1_555 1_555
N1D C1D 1_555 1_555
C5D N1D 1_555 1_555
C4D C3D 1_555 1_555
H3D C4D 1_555 1_555
H4D C5D 1_555 1_555
H1D C1D 1_555 1_555
H2D C2D 1_555 1_555
N2F Fe1 1_555 1_555
C6F N2F 1_555 1_555
H5F C6F 1_555 1_555
C7F C6F 1_555 1_555
H6F C7F 1_555 1_555
N3F C7F 1_555 1_555
H7F N3F 1_555 1_555
C8F N2F 1_555 1_555
N4F Fe1 1_555 1_555
C9F C8F 1_555 1_555
C10F C9F 1_555 1_555
H8F C10F 1_555 1_555
C11F N4F 1_555 1_555
H9F C11F 1_555 1_555
C12F C11F 1_555 1_555
H10F C12F 1_555 1_555
C13F C10F 1_555 1_555
H11F C13F 1_555 1_555
N1F Fe1 1_555 1_555
Fe1B N1D 1_555 1_555
C4 C5 1_555 1_555
N3 C8 1_555 1_555
N4 C9 1_555 1_555
C12 C13 1_555 1_555
C5D C4D 1_555 1_555
N3F C8F 1_555 1_555
N4F C9F 1_555 1_555
C12F C13F 1_555 1_555

#END
