
#######################################################################
#
#                 Cambridge Crystallographic Data Centre
#                                CCDC 
#
#######################################################################
#
# If this CIF has been generated from an entry in the Cambridge 
# Structural Database, then it will include bibliographic, chemical, 
# crystal, experimental, refinement or atomic coordinate data resulting 
# from the CCDC's data processing and validation procedures.
#
#######################################################################

data_HADPAE
_symmetry_cell_setting           monoclinic
_symmetry_space_group_name_H-M   'C 2/c'
_symmetry_Int_Tables_number      15
_space_group_name_Hall           '-C 2yn'
loop_
_symmetry_equiv_pos_site_id
_symmetry_equiv_pos_as_xyz
1 x,y,z
2 1/2+x,1/2+y,z
3 x,-y,1/2+z
4 1/2+x,1/2-y,1/2+z
5 -x,-y,-z
6 1/2-x,1/2-y,-z
7 -x,y,1/2-z
8 1/2-x,1/2+y,1/2-z
_cell_length_a                   23.188(5)
_cell_length_b                   11.559(2)
_cell_length_c                   16.256(3)
_cell_angle_alpha                90
_cell_angle_beta                 130.35(3)
_cell_angle_gamma                90
_cell_volume                     3320.56
loop_
_atom_site_label
_atom_site_type_symbol
_atom_site_fract_x
_atom_site_fract_y
_atom_site_fract_z
Fe1 Fe 0.0000 0.33339(5) 0.2500
N1 N 0.00540(15) 0.2080(2) 0.3419(2)
C1 C 0.05776(18) 0.2060(3) 0.4504(2)
H1 H 0.0965 0.2631 0.4852
C2 C 0.05853(18) 0.1259(3) 0.5144(3)
H2 H 0.0978 0.1278 0.5905
C3 C 0.00182(17) 0.0422(3) 0.4673(2)
C4 C -0.05125(19) 0.0424(3) 0.3541(3)
H3 H -0.0904 -0.0139 0.3171
C5 C -0.0470(2) 0.1235(3) 0.2966(3)
H4 H -0.0833 0.1198 0.2201
N2 N 0.11268(15) 0.3509(2) 0.3453(2)
C6 C 0.1717(2) 0.3175(3) 0.3499(3)
H5 H 0.1691 0.2599 0.3060
C7 C 0.2338(2) 0.3796(4) 0.4269(3)
H6 H 0.2823 0.3739 0.4467
N3 N 0.21320(16) 0.4536(3) 0.4718(3)
H7 H 0.2426 0.5038 0.5241
C8 C 0.14015(18) 0.4334(3) 0.4199(3)
N4 N 0.01575(14) 0.4602(2) 0.3495(2)
C9 C 0.08851(18) 0.4950(3) 0.4269(2)
C10 C 0.1091(2) 0.5809(3) 0.5005(3)
H8 H 0.1608 0.6010 0.5559
C11 C -0.03744(19) 0.5163(3) 0.3442(3)
H9 H -0.0888 0.4938 0.2906
C12 C -0.0203(2) 0.6046(3) 0.4130(3)
H10 H -0.0596 0.6433 0.4057
C13 C 0.0530(2) 0.6368(3) 0.4918(3)
H11 H 0.0653 0.6973 0.5404
C3D C -0.00182(17) -0.0422(3) 0.5327(2)
C2D C -0.05853(18) -0.1259(3) 0.4856(3)
C1D C -0.05776(18) -0.2060(3) 0.5496(2)
N1D N -0.00540(15) -0.2080(2) 0.6581(2)
C5D C 0.0470(2) -0.1235(3) 0.7034(3)
C4D C 0.05125(19) -0.0424(3) 0.6459(3)
H3D H 0.0904 0.0139 0.6829
H4D H 0.0833 -0.1198 0.7799
H1D H -0.0965 -0.2631 0.5148
H2D H -0.0978 -0.1278 0.4095
N2F N -0.11268(15) 0.3509(2) 0.1547(2)
C6F C -0.1717(2) 0.3175(3) 0.1501(3)
H5F H -0.1691 0.2599 0.1940
C7F C -0.2338(2) 0.3796(4) 0.0731(3)
H6F H -0.2823 0.3739 0.0533
N3F N -0.21320(16) 0.4536(3) 0.0282(3)
H7F H -0.2426 0.5038 -0.0241
C8F C -0.14015(18) 0.4334(3) 0.0801(3)
N4F N -0.01575(14) 0.4602(2) 0.1505(2)
C9F C -0.08851(18) 0.4950(3) 0.0731(2)
C10F C -0.1091(2) 0.5809(3) -0.0005(3)
H8F H -0.1608 0.6010 -0.0559
C11F C 0.03744(19) 0.5163(3) 0.1558(3)
H9F H 0.0888 0.4938 0.2094
C12F C 0.0203(2) 0.6046(3) 0.0870(3)
H10F H 0.0596 0.6433 0.0943
C13F C -0.0530(2) 0.6368(3) 0.0082(3)
H11F H -0.0653 0.6973 -0.0404
N1F N -0.00540(15) 0.2080(2) 0.1581(2)
Fe1B Fe 0.0000 -0.33339(5) 0.7500
O1 O 0.31049(17) 0.6184(3) 0.6297(3)
H12 H 0.3070 0.6503 0.6727
C14 C 0.3542(3) 0.6894(5) 0.6166(6)
H13 H 0.3918 0.7335 0.6838
H14 H 0.3208 0.7453 0.5574
C15 C 0.3923(4) 0.6187(6) 0.5922(6)
H15 H 0.4263 0.6670 0.5907
H16 H 0.3548 0.5821 0.5217
H17 H 0.4217 0.5589 0.6477
O3 O 0.17870(6) 0.83492(18) 0.66832(8)
O4 O 0.28779(6) 0.8781(2) 0.69158(16)
O5 O 0.29250(6) 0.85701(18) 0.84430(8)
Cl1 Cl 0.25770(6) 0.83351(18) 0.73776(8)
O6 O 0.27070(7) 0.7070(2) 0.7406(2)
O2? O 0.31049(17) 0.6184(3) 0.6297(3)
H18? H 0.3074 0.6500 0.6732
C16? C 0.3542(3) 0.6894(5) 0.6166(6)
H19? H 0.3419 0.6660 0.5483
H20? H 0.3359 0.7698 0.6065
C17? C 0.42124(6) 0.6918(7) 0.6841(3)
H21? H 0.4358 0.6886 0.7557
H22? H 0.4404 0.7635 0.6773
H23? H 0.4428 0.6253 0.6750
Cl2? Cl 0.24845(6) 0.87419(18) 0.73700(9)
O7? O 0.23609(6) 0.9887(2) 0.73308(15)
loop_
_geom_bond_atom_site_label_1
_geom_bond_atom_site_label_2
_geom_bond_site_symmetry_1
_geom_bond_site_symmetry_2
Fe1 N1 1_555 1_555
N1 C1 1_555 1_555
C1 H1 1_555 1_555
C2 C1 1_555 1_555
H2 C2 1_555 1_555
C3 C2 1_555 1_555
C4 C3 1_555 1_555
H3 C4 1_555 1_555
C5 N1 1_555 1_555
H4 C5 1_555 1_555
N2 Fe1 1_555 1_555
C6 N2 1_555 1_555
H5 C6 1_555 1_555
C7 C6 1_555 1_555
H6 C7 1_555 1_555
N3 C7 1_555 1_555
H7 N3 1_555 1_555
C8 N2 1_555 1_555
N4 Fe1 1_555 1_555
C9 C8 1_555 1_555
C10 C9 1_555 1_555
H8 C10 1_555 1_555
C11 N4 1_555 1_555
H9 C11 1_555 1_555
C12 C11 1_555 1_555
H10 C12 1_555 1_555
C13 C10 1_555 1_555
H11 C13 1_555 1_555
O1 H12 1_555 1_555
C14 O1 1_555 1_555
H13 C14 1_555 1_555
H14 C14 1_555 1_555
C15 C14 1_555 1_555
H15 C15 1_555 1_555
H16 C15 1_555 1_555
H17 C15 1_555 1_555
O3 Cl1 1_555 1_555
O4 Cl1 1_555 1_555
O5 Cl1 1_555 1_555
Cl1 O6 1_555 1_555
C3D C3 1_555 1_555
C2D C3D 1_555 1_555
C1D C2D 1_555 1_555
N1D C1D 1_555 1_555
C5D N1D 1_555 1_555
C4D C3D 1_555 1_555
H3D C4D 1_555 1_555
H4D C5D 1_555 1_555
H1D C1D 1_555 1_555
H2D C2D 1_555 1_555
N2F Fe1 1_555 1_555
C6F N2F 1_555 1_555
H5F C6F 1_555 1_555
C7F C6F 1_555 1_555
H6F C7F 1_555 1_555
N3F C7F 1_555 1_555
H7F N3F 1_555 1_555
C8F N2F 1_555 1_555
N4F Fe1 1_555 1_555
C9F C8F 1_555 1_555
C10F C9F 1_555 1_555
H8F C10F 1_555 1_555
C11F N4F 1_555 1_555
H9F C11F 1_555 1_555
C12F C11F 1_555 1_555
H10F C12F 1_555 1_555
C13F C10F 1_555 1_555
H11F C13F 1_555 1_555
N1F Fe1 1_555 1_555
Fe1B N1D 1_555 1_555
C4 C5 1_555 1_555
N3 C8 1_555 1_555
N4 C9 1_555 1_555
C12 C13 1_555 1_555
C5D C4D 1_555 1_555
N3F C8F 1_555 1_555
N4F C9F 1_555 1_555
C12F C13F 1_555 1_555

#END
