
#######################################################################
#
#                 Cambridge Crystallographic Data Centre
#                                CCDC 
#
#######################################################################
#
# If this CIF has been generated from an entry in the Cambridge 
# Structural Database, then it will include bibliographic, chemical, 
# crystal, experimental, refinement or atomic coordinate data resulting 
# from the CCDC's data processing and validation procedures.
#
#######################################################################

data_HADQUA
_symmetry_cell_setting           cubic
_symmetry_space_group_name_H-M   'I -4 3 d'
_symmetry_Int_Tables_number      220
_space_group_name_Hall           'I -4bd 2c 3'
loop_
_symmetry_equiv_pos_site_id
_symmetry_equiv_pos_as_xyz
1 x,y,z
2 1/2-x,-y,1/2+z
3 -x,1/2+y,1/2-z
4 1/2+x,1/2-y,-z
5 z,x,y
6 1/2+z,1/2-x,-y
7 1/2-z,-x,1/2+y
8 -z,1/2+x,1/2-y
9 y,z,x
10 -y,1/2+z,1/2-x
11 1/2+y,1/2-z,-x
12 1/2-y,-z,1/2+x
13 1/4+y,1/4+x,1/4+z
14 1/4-y,3/4-x,3/4+z
15 3/4+y,1/4-x,3/4-z
16 3/4-y,3/4+x,1/4-z
17 1/4+x,1/4+z,1/4+y
18 3/4-x,3/4+z,1/4-y
19 1/4-x,3/4-z,3/4+y
20 3/4+x,1/4-z,3/4-y
21 1/4+z,1/4+y,1/4+x
22 3/4+z,1/4-y,3/4-x
23 3/4-z,3/4+y,1/4-x
24 1/4-z,3/4-y,3/4+x
25 1/2+x,1/2+y,1/2+z
26 -x,1/2-y,z
27 1/2-x,y,-z
28 x,-y,1/2-z
29 1/2+z,1/2+x,1/2+y
30 z,-x,1/2-y
31 -z,1/2-x,y
32 1/2-z,x,-y
33 1/2+y,1/2+z,1/2+x
34 1/2-y,z,-x
35 y,-z,1/2-x
36 -y,1/2-z,x
37 3/4+y,3/4+x,3/4+z
38 3/4-y,1/4-x,1/4+z
39 1/4+y,3/4-x,1/4-z
40 1/4-y,1/4+x,3/4-z
41 3/4+x,3/4+z,3/4+y
42 1/4-x,1/4+z,3/4-y
43 3/4-x,1/4-z,1/4+y
44 1/4+x,3/4-z,1/4-y
45 3/4+z,3/4+y,3/4+x
46 1/4+z,3/4-y,1/4-x
47 1/4-z,1/4+y,3/4-x
48 3/4-z,1/4-y,1/4+x
_cell_length_a                   27.1704(19)
_cell_length_b                   27.1704(19)
_cell_length_c                   27.1704(19)
_cell_angle_alpha                90
_cell_angle_beta                 90
_cell_angle_gamma                90
_cell_volume                     20058
loop_
_atom_site_label
_atom_site_type_symbol
_atom_site_fract_x
_atom_site_fract_y
_atom_site_fract_z
Zn1 Zn 0.36293(3) 0.36293(3) 0.36293(3)
Zn2 Zn 0.5000 0.2500 0.1250
N1 N 0.38942(18) 0.31017(17) 0.30901(18)
N2 N 0.42554(18) 0.39897(17) 0.33219(19)
N3 N 0.5012(2) 0.31100(19) 0.16471(17)
N4 N 0.53460(19) 0.3848(2) 0.1882(2)
C1 C 0.3708(2) 0.2663(2) 0.2987(2)
H1 H 0.3470 0.2527 0.3203
C2 C 0.3846(2) 0.2394(2) 0.2575(3)
H2 H 0.3698 0.2084 0.2511
C3 C 0.4189(2) 0.2572(3) 0.2266(2)
H3 H 0.4280 0.2390 0.1982
C4 C 0.44160(19) 0.3034(2) 0.2363(2)
C5 C 0.4242(2) 0.3289(2) 0.2796(2)
C6 C 0.4446(2) 0.4426(2) 0.3455(2)
H4 H 0.4305 0.4593 0.3728
C7 C 0.4841(3) 0.4649(2) 0.3213(3)
H5 H 0.4974 0.4949 0.3331
C8 C 0.5035(2) 0.4424(2) 0.2797(2)
H6 H 0.5299 0.4570 0.2620
C9 C 0.48301(19) 0.3971(2) 0.2645(2)
C10 C 0.44489(19) 0.37603(19) 0.2920(2)
C11 C 0.5338(3) 0.3482(3) 0.1558(3)
H7 H 0.5549 0.3478 0.1279
C12 C 0.4995(2) 0.3708(2) 0.2218(2)
C13 C 0.4783(2) 0.3268(2) 0.2080(2)
Zn1O Zn 0.38707(3) 0.11293(3) -0.11293(3)
Zn1Y Zn 0.63707(3) 0.13707(3) 0.36293(3)
Zn1LA Zn 0.61293(3) 0.38707(3) -0.11293(3)
Zn2D Zn 0.1250 0.5000 0.2500
Zn2H Zn 0.2500 0.1250 0.5000
Zn2K Zn 0.2500 -0.1250 0.0000
Zn2E Zn 0.6250 0.0000 -0.2500
Zn2G Zn 0.8750 0.0000 0.2500
Zn2J Zn 0.7500 0.3750 0.5000
Zn2I Zn 0.7500 0.6250 0.0000
Zn2F Zn 0.3750 0.5000 -0.2500
N1O N 0.43983(17) 0.13942(18) -0.05901(18)
N1Y N 0.61058(18) 0.18983(17) 0.30901(18)
N1LA N 0.56017(17) 0.36058(18) -0.05901(18)
N1D N 0.30901(18) 0.38942(18) 0.31017(17)
N1H N 0.31017(17) 0.30901(18) 0.38942(18)
N1Q N 0.36058(18) 0.05901(18) -0.06017(17)
N1V N 0.44099(18) 0.06017(17) -0.13942(18)
N1DA N 0.69099(18) 0.11058(18) 0.31017(17)
N1IA N 0.68983(17) 0.19099(18) 0.38942(18)
N1QA N 0.63942(18) 0.44099(18) -0.06017(17)
N1SA N 0.55901(18) 0.43983(17) -0.13942(18)
N2O N 0.35103(17) 0.17554(18) -0.08219(19)
N2Y N 0.57446(18) 0.10103(17) 0.33219(19)
N2LA N 0.64897(17) 0.32446(18) -0.08219(19)
N2D N 0.33219(19) 0.42554(18) 0.39897(17)
N2H N 0.39897(17) 0.33219(19) 0.42554(18)
N2Q N 0.32446(18) 0.08219(19) -0.14897(17)
N2V N 0.41781(19) 0.14897(17) -0.17554(18)
N2DA N 0.66781(19) 0.07446(18) 0.39897(17)
N2IA N 0.60103(17) 0.16781(19) 0.42554(18)
N2QA N 0.67554(18) 0.41781(19) -0.14897(17)
N2SA N 0.58219(19) 0.35103(17) -0.17554(18)
N3O N 0.43900(19) 0.2512(2) 0.08529(17)
N3Y N 0.4988(2) 0.18900(19) 0.16471(17)
N3LA N 0.56100(19) 0.2488(2) 0.08529(17)
N3D N 0.16471(17) 0.5012(2) 0.31100(19)
N3H N 0.31100(19) 0.16471(17) 0.5012(2)
N3Q N 0.2488(2) -0.08529(17) -0.06100(19)
N3V N 0.58529(17) 0.06100(19) -0.2512(2)
N3DA N 0.83529(17) -0.0012(2) 0.31100(19)
N3IA N 0.68900(19) 0.33529(17) 0.5012(2)
N3QA N 0.7512(2) 0.58529(17) -0.06100(19)
N3SA N 0.41471(17) 0.43900(19) -0.2512(2)
N3W N 0.08529(17) 0.43900(19) 0.2512(2)
N3CA N 0.16471(17) 0.4988(2) 0.18900(19)
N3TA N 0.08529(17) 0.56100(19) 0.2488(2)
N3S N 0.2512(2) 0.08529(17) 0.43900(19)
N3GA N 0.18900(19) 0.16471(17) 0.4988(2)
N3PA N 0.2488(2) 0.08529(17) 0.56100(19)
N4O N 0.3652(2) 0.28460(19) 0.0618(2)
N4Y N 0.46540(19) 0.1152(2) 0.1882(2)
N4LA N 0.6348(2) 0.21540(19) 0.0618(2)
N4D N 0.1882(2) 0.53460(19) 0.3848(2)
N4H N 0.3848(2) 0.1882(2) 0.53460(19)
N4Q N 0.21540(19) -0.0618(2) -0.1348(2)
N4V N 0.5618(2) 0.1348(2) -0.28460(19)
N4DA N 0.8118(2) -0.03460(19) 0.3848(2)
N4IA N 0.6152(2) 0.3118(2) 0.53460(19)
N4QA N 0.78460(19) 0.5618(2) -0.1348(2)
N4SA N 0.4382(2) 0.3652(2) -0.28460(19)
C1O C 0.4837(2) 0.1208(2) -0.0487(2)
C1Y C 0.6292(2) 0.2337(2) 0.2987(2)
C1LA C 0.5163(2) 0.3792(2) -0.0487(2)
C1D C 0.2987(2) 0.3708(2) 0.2663(2)
C1H C 0.2663(2) 0.2987(2) 0.3708(2)
C1Q C 0.3792(2) 0.0487(2) -0.0163(2)
C1V C 0.4513(2) 0.0163(2) -0.1208(2)
C1DA C 0.7013(2) 0.1292(2) 0.2663(2)
C1IA C 0.7337(2) 0.2013(2) 0.3708(2)
C1QA C 0.6208(2) 0.4513(2) -0.0163(2)
C1SA C 0.5487(2) 0.4837(2) -0.1208(2)
H1O H 0.4973 0.0970 -0.0703
H1Y H 0.6530 0.2473 0.3203
H1LA H 0.5027 0.4030 -0.0703
H1D H 0.3203 0.3470 0.2527
H1H H 0.2527 0.3203 0.3470
H1Q H 0.4030 0.0703 -0.0027
H1V H 0.4297 0.0027 -0.0970
H1DA H 0.6797 0.1530 0.2527
H1IA H 0.7473 0.1797 0.3470
H1QA H 0.5970 0.4297 -0.0027
H1SA H 0.5703 0.4973 -0.0970
C2O C 0.5106(2) 0.1346(2) -0.0075(3)
C2Y C 0.6154(2) 0.2606(2) 0.2575(3)
C2LA C 0.4894(2) 0.3654(2) -0.0075(3)
C2D C 0.2575(3) 0.3846(2) 0.2394(2)
C2H C 0.2394(2) 0.2575(3) 0.3846(2)
C2Q C 0.3654(2) 0.0075(3) 0.0106(2)
C2V C 0.4925(3) -0.0106(2) -0.1346(2)
C2DA C 0.7425(3) 0.1154(2) 0.2394(2)
C2IA C 0.7606(2) 0.2425(3) 0.3846(2)
C2QA C 0.6346(2) 0.4925(3) 0.0106(2)
C2SA C 0.5075(3) 0.5106(2) -0.1346(2)
H2O H 0.5416 0.1198 -0.0011
H2Y H 0.6302 0.2916 0.2511
H2LA H 0.4584 0.3802 -0.0011
H2D H 0.2511 0.3698 0.2084
H2H H 0.2084 0.2511 0.3698
H2Q H 0.3802 0.0011 0.0416
H2V H 0.4989 -0.0416 -0.1198
H2DA H 0.7489 0.1302 0.2084
H2IA H 0.7916 0.2489 0.3698
H2QA H 0.6198 0.4989 0.0416
H2SA H 0.5011 0.5416 -0.1198
C3O C 0.4928(3) 0.1689(2) 0.0234(2)
C3Y C 0.5811(2) 0.2428(3) 0.2266(2)
C3LA C 0.5072(3) 0.3311(2) 0.0234(2)
C3D C 0.2266(2) 0.4189(2) 0.2572(3)
C3H C 0.2572(3) 0.2266(2) 0.4189(2)
C3Q C 0.3311(2) -0.0234(2) -0.0072(3)
C3V C 0.5234(2) 0.0072(3) -0.1689(2)
C3DA C 0.7734(2) 0.0811(2) 0.2572(3)
C3IA C 0.7428(3) 0.2734(2) 0.4189(2)
C3QA C 0.6689(2) 0.5234(2) -0.0072(3)
C3SA C 0.4766(2) 0.4928(3) -0.1689(2)
H3O H 0.5110 0.1780 0.0518
H3Y H 0.5720 0.2610 0.1982
H3LA H 0.4890 0.3220 0.0518
H3D H 0.1982 0.4280 0.2390
H3H H 0.2390 0.1982 0.4280
H3Q H 0.3220 -0.0518 0.0110
H3V H 0.5518 -0.0110 -0.1780
H3DA H 0.8018 0.0720 0.2390
H3IA H 0.7610 0.3018 0.4280
H3QA H 0.6780 0.5518 0.0110
H3SA H 0.4482 0.5110 -0.1780
C4O C 0.4466(2) 0.19160(19) 0.0137(2)
C4Y C 0.55840(19) 0.1966(2) 0.2363(2)
C4LA C 0.5534(2) 0.30840(19) 0.0137(2)
C4D C 0.2363(2) 0.44160(19) 0.3034(2)
C4H C 0.3034(2) 0.2363(2) 0.44160(19)
C4Q C 0.30840(19) -0.0137(2) -0.0534(2)
C4V C 0.5137(2) 0.0534(2) -0.19160(19)
C4DA C 0.7637(2) 0.05840(19) 0.3034(2)
C4IA C 0.6966(2) 0.2637(2) 0.44160(19)
C4QA C 0.69160(19) 0.5137(2) -0.0534(2)
C4SA C 0.4863(2) 0.4466(2) -0.19160(19)
C5O C 0.4211(2) 0.1742(2) -0.0296(2)
C5Y C 0.5758(2) 0.1711(2) 0.2796(2)
C5LA C 0.5789(2) 0.3258(2) -0.0296(2)
C5D C 0.2796(2) 0.4242(2) 0.3289(2)
C5H C 0.3289(2) 0.2796(2) 0.4242(2)
C5Q C 0.3258(2) 0.0296(2) -0.0789(2)
C5V C 0.4704(2) 0.0789(2) -0.1742(2)
C5DA C 0.7204(2) 0.0758(2) 0.3289(2)
C5IA C 0.6711(2) 0.2204(2) 0.4242(2)
C5QA C 0.6742(2) 0.4704(2) -0.0789(2)
C5SA C 0.5296(2) 0.4211(2) -0.1742(2)
C6O C 0.3074(2) 0.1946(2) -0.0955(2)
C6Y C 0.5554(2) 0.0574(2) 0.3455(2)
C6LA C 0.6926(2) 0.3054(2) -0.0955(2)
C6D C 0.3455(2) 0.4446(2) 0.4426(2)
C6H C 0.4426(2) 0.3455(2) 0.4446(2)
C6Q C 0.3054(2) 0.0955(2) -0.1926(2)
C6V C 0.4045(2) 0.1926(2) -0.1946(2)
C6DA C 0.6545(2) 0.0554(2) 0.4426(2)
C6IA C 0.5574(2) 0.1545(2) 0.4446(2)
C6QA C 0.6946(2) 0.4045(2) -0.1926(2)
C6SA C 0.5955(2) 0.3074(2) -0.1946(2)
H4O H 0.2907 0.1805 -0.1228
H4Y H 0.5695 0.0407 0.3728
H4LA H 0.7093 0.3195 -0.1228
H4D H 0.3728 0.4305 0.4593
H4H H 0.4593 0.3728 0.4305
H4Q H 0.3195 0.1228 -0.2093
H4V H 0.3772 0.2093 -0.1805
H4DA H 0.6272 0.0695 0.4593
H4IA H 0.5407 0.1272 0.4305
H4QA H 0.6805 0.3772 -0.2093
H4SA H 0.6228 0.2907 -0.1805
C7O C 0.2851(2) 0.2341(3) -0.0713(3)
C7Y C 0.5159(3) 0.0351(2) 0.3213(3)
C7LA C 0.7149(2) 0.2659(3) -0.0713(3)
C7D C 0.3213(3) 0.4841(3) 0.4649(2)
C7H C 0.4649(2) 0.3213(3) 0.4841(3)
C7Q C 0.2659(3) 0.0713(3) -0.2149(2)
C7V C 0.4287(3) 0.2149(2) -0.2341(3)
C7DA C 0.6787(3) 0.0159(3) 0.4649(2)
C7IA C 0.5351(2) 0.1787(3) 0.4841(3)
C7QA C 0.7341(3) 0.4287(3) -0.2149(2)
C7SA C 0.5713(3) 0.2851(2) -0.2341(3)
H5O H 0.2551 0.2474 -0.0831
H5Y H 0.5026 0.0051 0.3331
H5LA H 0.7449 0.2526 -0.0831
H5D H 0.3331 0.4974 0.4949
H5H H 0.4949 0.3331 0.4974
H5Q H 0.2526 0.0831 -0.2449
H5V H 0.4169 0.2449 -0.2474
H5DA H 0.6669 0.0026 0.4949
H5IA H 0.5051 0.1669 0.4974
H5QA H 0.7474 0.4169 -0.2449
H5SA H 0.5831 0.2551 -0.2474
C8O C 0.3076(2) 0.2535(2) -0.0297(2)
C8Y C 0.4965(2) 0.0576(2) 0.2797(2)
C8LA C 0.6924(2) 0.2465(2) -0.0297(2)
C8D C 0.2797(2) 0.5035(2) 0.4424(2)
C8H C 0.4424(2) 0.2797(2) 0.5035(2)
C8Q C 0.2465(2) 0.0297(2) -0.1924(2)
C8V C 0.4703(2) 0.1924(2) -0.2535(2)
C8DA C 0.7203(2) -0.0035(2) 0.4424(2)
C8IA C 0.5576(2) 0.2203(2) 0.5035(2)
C8QA C 0.7535(2) 0.4703(2) -0.1924(2)
C8SA C 0.5297(2) 0.3076(2) -0.2535(2)
H6O H 0.2930 0.2799 -0.0120
H6Y H 0.4701 0.0430 0.2620
H6LA H 0.7070 0.2201 -0.0120
H6D H 0.2620 0.5299 0.4570
H6H H 0.4570 0.2620 0.5299
H6Q H 0.2201 0.0120 -0.2070
H6V H 0.4880 0.2070 -0.2799
H6DA H 0.7380 -0.0299 0.4570
H6IA H 0.5430 0.2380 0.5299
H6QA H 0.7799 0.4880 -0.2070
H6SA H 0.5120 0.2930 -0.2799
C9O C 0.3529(2) 0.23301(19) -0.0145(2)
C9Y C 0.51699(19) 0.1029(2) 0.2645(2)
C9LA C 0.6471(2) 0.26699(19) -0.0145(2)
C9D C 0.2645(2) 0.48301(19) 0.3971(2)
C9H C 0.3971(2) 0.2645(2) 0.48301(19)
C9Q C 0.26699(19) 0.0145(2) -0.1471(2)
C9V C 0.4855(2) 0.1471(2) -0.23301(19)
C9DA C 0.7355(2) 0.01699(19) 0.3971(2)
C9IA C 0.6029(2) 0.2355(2) 0.48301(19)
C9QA C 0.73301(19) 0.4855(2) -0.1471(2)
C9SA C 0.5145(2) 0.3529(2) -0.23301(19)
C10O C 0.37397(19) 0.19489(19) -0.0420(2)
C10Y C 0.55511(19) 0.12397(19) 0.2920(2)
C10LA C 0.62603(19) 0.30511(19) -0.0420(2)
C10D C 0.2920(2) 0.44489(19) 0.37603(19)
C10H C 0.37603(19) 0.2920(2) 0.44489(19)
C10Q C 0.30511(19) 0.0420(2) -0.12603(19)
C10V C 0.4580(2) 0.12603(19) -0.19489(19)
C10DA C 0.7080(2) 0.05511(19) 0.37603(19)
C10IA C 0.62397(19) 0.2080(2) 0.44489(19)
C10QA C 0.69489(19) 0.4580(2) -0.12603(19)
C10SA C 0.5420(2) 0.37397(19) -0.19489(19)
C11O C 0.4018(3) 0.2838(3) 0.0942(3)
C11Y C 0.4662(3) 0.1518(3) 0.1558(3)
C11LA C 0.5982(3) 0.2162(3) 0.0942(3)
C11D C 0.1558(3) 0.5338(3) 0.3482(3)
C11H C 0.3482(3) 0.1558(3) 0.5338(3)
C11Q C 0.2162(3) -0.0942(3) -0.0982(3)
C11V C 0.5942(3) 0.0982(3) -0.2838(3)
C11DA C 0.8442(3) -0.0338(3) 0.3482(3)
C11IA C 0.6518(3) 0.3442(3) 0.5338(3)
C11QA C 0.7838(3) 0.5942(3) -0.0982(3)
C11SA C 0.4058(3) 0.4018(3) -0.2838(3)
H7O H 0.4022 0.3049 0.1221
H7Y H 0.4451 0.1522 0.1279
H7LA H 0.5978 0.1951 0.1221
H7D H 0.1279 0.5549 0.3478
H7H H 0.3478 0.1279 0.5549
H7Q H 0.1951 -0.1221 -0.0978
H7V H 0.6221 0.0978 -0.3049
H7DA H 0.8721 -0.0549 0.3478
H7IA H 0.6522 0.3721 0.5549
H7QA H 0.8049 0.6221 -0.0978
H7SA H 0.3779 0.4022 -0.3049
C12O C 0.3792(2) 0.2495(2) 0.0282(2)
C12Y C 0.5005(2) 0.1292(2) 0.2218(2)
C12LA C 0.6208(2) 0.2505(2) 0.0282(2)
C12D C 0.2218(2) 0.4995(2) 0.3708(2)
C12H C 0.3708(2) 0.2218(2) 0.4995(2)
C12Q C 0.2505(2) -0.0282(2) -0.1208(2)
C12V C 0.5282(2) 0.1208(2) -0.2495(2)
C12DA C 0.7782(2) 0.0005(2) 0.3708(2)
C12IA C 0.6292(2) 0.2782(2) 0.4995(2)
C12QA C 0.7495(2) 0.5282(2) -0.1208(2)
C12SA C 0.4718(2) 0.3792(2) -0.2495(2)
C13O C 0.4232(2) 0.2283(2) 0.0420(2)
C13Y C 0.5217(2) 0.1732(2) 0.2080(2)
C13LA C 0.5768(2) 0.2717(2) 0.0420(2)
C13D C 0.2080(2) 0.4783(2) 0.3268(2)
C13H C 0.3268(2) 0.2080(2) 0.4783(2)
C13Q C 0.2717(2) -0.0420(2) -0.0768(2)
C13V C 0.5420(2) 0.0768(2) -0.2283(2)
C13DA C 0.7920(2) 0.0217(2) 0.3268(2)
C13IA C 0.6732(2) 0.2920(2) 0.4783(2)
C13QA C 0.7283(2) 0.5420(2) -0.0768(2)
C13SA C 0.4580(2) 0.4232(2) -0.2283(2)
O1 O 0.5936(6) 0.4551(6) 0.1468(6)
O2? O 0.6245(10) 0.4311(10) 0.2096(8)
O3? O 0.6250 0.5000 0.2500
O4? O 0.4281(15) 0.5786(14) 0.3884(16)
O5? O 0.4358(6) 0.5382(6) 0.4246(6)
O6? O 0.460(4) 0.490(3) 0.467(5)
O7? O 0.3666(8) 0.5694(7) 0.3706(8)
O8? O 0.3863(10) 0.5711(11) 0.3301(10)
O9? O 0.356(2) 0.551(2) 0.324(3)
O10? O 0.3658(14) 0.6008(13) 0.3364(12)
O11? O 0.4954(15) 0.5171(14) 0.4445(13)
O12? O 0.4689(16) 0.5642(15) 0.4077(15)
O13? O 0.366(2) 0.5000 0.2500
O14? O 0.3606(8) 0.5349(8) 0.2889(8)
O15? O 0.333(2) 0.625(2) 0.359(2)
O16? O 0.5323(7) 0.5294(7) 0.4263(7)
O17? O 0.4030(19) 0.5800(17) 0.4054(19)
O18? O 0.407(2) 0.558(2) 0.4618(19)
O19? O 0.646(2) 0.385(2) 0.214(2)
O20? O 0.6049(18) 0.4692(19) 0.2077(17)
loop_
_geom_bond_atom_site_label_1
_geom_bond_atom_site_label_2
_geom_bond_site_symmetry_1
_geom_bond_site_symmetry_2
Zn1 N1 1_555 1_555
Zn2 N3 1_555 1_555
N1 C1 1_555 1_555
N2 Zn1 1_555 1_555
N3 C11 1_555 1_555
N4 C11 1_555 1_555
C1 H1 1_555 1_555
C2 C1 1_555 1_555
H2 C2 1_555 1_555
C3 C2 1_555 1_555
H3 C3 1_555 1_555
C4 C3 1_555 1_555
C5 N1 1_555 1_555
C6 N2 1_555 1_555
H4 C6 1_555 1_555
C7 C6 1_555 1_555
H5 C7 1_555 1_555
C8 C7 1_555 1_555
H6 C8 1_555 1_555
C9 C8 1_555 1_555
C10 N2 1_555 1_555
C11 H7 1_555 1_555
C12 N4 1_555 1_555
C13 N3 1_555 1_555
Zn1O N1O 1_555 1_555
Zn1Y N1Y 1_555 1_555
Zn1LA N1LA 1_555 1_555
Zn2D N3D 1_555 1_555
Zn2H N3H 1_555 1_555
Zn2K N3Q 1_555 1_555
Zn2E N3V 1_555 1_555
Zn2G N3DA 1_555 1_555
Zn2J N3IA 1_555 1_555
Zn2I N3QA 1_555 1_555
Zn2F N3SA 1_555 1_555
N1O C1O 1_555 1_555
N1Y C1Y 1_555 1_555
N1LA C1LA 1_555 1_555
N1D Zn1 1_555 1_555
N1H Zn1 1_555 1_555
N1Q Zn1O 1_555 1_555
N1V Zn1O 1_555 1_555
N1DA Zn1Y 1_555 1_555
N1IA Zn1Y 1_555 1_555
N1QA Zn1LA 1_555 1_555
N1SA Zn1LA 1_555 1_555
N2O Zn1O 1_555 1_555
N2Y Zn1Y 1_555 1_555
N2LA Zn1LA 1_555 1_555
N2D Zn1 1_555 1_555
N2H Zn1 1_555 1_555
N2Q Zn1O 1_555 1_555
N2V Zn1O 1_555 1_555
N2DA Zn1Y 1_555 1_555
N2IA Zn1Y 1_555 1_555
N2QA Zn1LA 1_555 1_555
N2SA Zn1LA 1_555 1_555
N3O Zn2 1_555 1_555
N3Y Zn2 1_555 1_555
N3LA Zn2 1_555 1_555
N3D C11D 1_555 1_555
N3H C11H 1_555 1_555
N3Q C11Q 1_555 1_555
N3V C11V 1_555 1_555
N3DA C11DA 1_555 1_555
N3IA C11IA 1_555 1_555
N3QA C11QA 1_555 1_555
N3SA C11SA 1_555 1_555
N3W Zn2D 1_555 1_555
N3CA Zn2D 1_555 1_555
N3TA Zn2D 1_555 1_555
N3S Zn2H 1_555 1_555
N3GA Zn2H 1_555 1_555
N3PA Zn2H 1_555 1_555
N4O C11O 1_555 1_555
N4Y C11Y 1_555 1_555
N4LA C11LA 1_555 1_555
N4D C11D 1_555 1_555
N4H C11H 1_555 1_555
N4Q C11Q 1_555 1_555
N4V C11V 1_555 1_555
N4DA C11DA 1_555 1_555
N4IA C11IA 1_555 1_555
N4QA C11QA 1_555 1_555
N4SA C11SA 1_555 1_555
C1O H1O 1_555 1_555
C1Y H1Y 1_555 1_555
C1LA H1LA 1_555 1_555
C1D N1D 1_555 1_555
C1H N1H 1_555 1_555
C1Q N1Q 1_555 1_555
C1V N1V 1_555 1_555
C1DA N1DA 1_555 1_555
C1IA N1IA 1_555 1_555
C1QA N1QA 1_555 1_555
C1SA N1SA 1_555 1_555
H1D C1D 1_555 1_555
H1H C1H 1_555 1_555
H1Q C1Q 1_555 1_555
H1V C1V 1_555 1_555
H1DA C1DA 1_555 1_555
H1IA C1IA 1_555 1_555
H1QA C1QA 1_555 1_555
H1SA C1SA 1_555 1_555
C2O C1O 1_555 1_555
C2Y C1Y 1_555 1_555
C2LA C1LA 1_555 1_555
C2D C1D 1_555 1_555
C2H C1H 1_555 1_555
C2Q C1Q 1_555 1_555
C2V C1V 1_555 1_555
C2DA C1DA 1_555 1_555
C2IA C1IA 1_555 1_555
C2QA C1QA 1_555 1_555
C2SA C1SA 1_555 1_555
H2O C2O 1_555 1_555
H2Y C2Y 1_555 1_555
H2LA C2LA 1_555 1_555
H2D C2D 1_555 1_555
H2H C2H 1_555 1_555
H2Q C2Q 1_555 1_555
H2V C2V 1_555 1_555
H2DA C2DA 1_555 1_555
H2IA C2IA 1_555 1_555
H2QA C2QA 1_555 1_555
H2SA C2SA 1_555 1_555
C3O C2O 1_555 1_555
C3Y C2Y 1_555 1_555
C3LA C2LA 1_555 1_555
C3D C2D 1_555 1_555
C3H C2H 1_555 1_555
C3Q C2Q 1_555 1_555
C3V C2V 1_555 1_555
C3DA C2DA 1_555 1_555
C3IA C2IA 1_555 1_555
C3QA C2QA 1_555 1_555
C3SA C2SA 1_555 1_555
H3O C3O 1_555 1_555
H3Y C3Y 1_555 1_555
H3LA C3LA 1_555 1_555
H3D C3D 1_555 1_555
H3H C3H 1_555 1_555
H3Q C3Q 1_555 1_555
H3V C3V 1_555 1_555
H3DA C3DA 1_555 1_555
H3IA C3IA 1_555 1_555
H3QA C3QA 1_555 1_555
H3SA C3SA 1_555 1_555
C4O C3O 1_555 1_555
C4Y C3Y 1_555 1_555
C4LA C3LA 1_555 1_555
C4D C3D 1_555 1_555
C4H C3H 1_555 1_555
C4Q C3Q 1_555 1_555
C4V C3V 1_555 1_555
C4DA C3DA 1_555 1_555
C4IA C3IA 1_555 1_555
C4QA C3QA 1_555 1_555
C4SA C3SA 1_555 1_555
C5O N1O 1_555 1_555
C5Y N1Y 1_555 1_555
C5LA N1LA 1_555 1_555
C5D N1D 1_555 1_555
C5H N1H 1_555 1_555
C5Q N1Q 1_555 1_555
C5V N1V 1_555 1_555
C5DA N1DA 1_555 1_555
C5IA N1IA 1_555 1_555
C5QA N1QA 1_555 1_555
C5SA N1SA 1_555 1_555
C6O N2O 1_555 1_555
C6Y N2Y 1_555 1_555
C6LA N2LA 1_555 1_555
C6D N2D 1_555 1_555
C6H N2H 1_555 1_555
C6Q N2Q 1_555 1_555
C6V N2V 1_555 1_555
C6DA N2DA 1_555 1_555
C6IA N2IA 1_555 1_555
C6QA N2QA 1_555 1_555
C6SA N2SA 1_555 1_555
H4O C6O 1_555 1_555
H4Y C6Y 1_555 1_555
H4LA C6LA 1_555 1_555
H4D C6D 1_555 1_555
H4H C6H 1_555 1_555
H4Q C6Q 1_555 1_555
H4V C6V 1_555 1_555
H4DA C6DA 1_555 1_555
H4IA C6IA 1_555 1_555
H4QA C6QA 1_555 1_555
H4SA C6SA 1_555 1_555
C7O C6O 1_555 1_555
C7Y C6Y 1_555 1_555
C7LA C6LA 1_555 1_555
C7D C6D 1_555 1_555
C7H C6H 1_555 1_555
C7Q C6Q 1_555 1_555
C7V C6V 1_555 1_555
C7DA C6DA 1_555 1_555
C7IA C6IA 1_555 1_555
C7QA C6QA 1_555 1_555
C7SA C6SA 1_555 1_555
H5O C7O 1_555 1_555
H5Y C7Y 1_555 1_555
H5LA C7LA 1_555 1_555
H5D C7D 1_555 1_555
H5H C7H 1_555 1_555
H5Q C7Q 1_555 1_555
H5V C7V 1_555 1_555
H5DA C7DA 1_555 1_555
H5IA C7IA 1_555 1_555
H5QA C7QA 1_555 1_555
H5SA C7SA 1_555 1_555
C8O C7O 1_555 1_555
C8Y C7Y 1_555 1_555
C8LA C7LA 1_555 1_555
C8D C7D 1_555 1_555
C8H C7H 1_555 1_555
C8Q C7Q 1_555 1_555
C8V C7V 1_555 1_555
C8DA C7DA 1_555 1_555
C8IA C7IA 1_555 1_555
C8QA C7QA 1_555 1_555
C8SA C7SA 1_555 1_555
H6O C8O 1_555 1_555
H6Y C8Y 1_555 1_555
H6LA C8LA 1_555 1_555
H6D C8D 1_555 1_555
H6H C8H 1_555 1_555
H6Q C8Q 1_555 1_555
H6V C8V 1_555 1_555
H6DA C8DA 1_555 1_555
H6IA C8IA 1_555 1_555
H6QA C8QA 1_555 1_555
H6SA C8SA 1_555 1_555
C9O C8O 1_555 1_555
C9Y C8Y 1_555 1_555
C9LA C8LA 1_555 1_555
C9D C8D 1_555 1_555
C9H C8H 1_555 1_555
C9Q C8Q 1_555 1_555
C9V C8V 1_555 1_555
C9DA C8DA 1_555 1_555
C9IA C8IA 1_555 1_555
C9QA C8QA 1_555 1_555
C9SA C8SA 1_555 1_555
C10O N2O 1_555 1_555
C10Y N2Y 1_555 1_555
C10LA N2LA 1_555 1_555
C10D N2D 1_555 1_555
C10H N2H 1_555 1_555
C10Q N2Q 1_555 1_555
C10V N2V 1_555 1_555
C10DA N2DA 1_555 1_555
C10IA N2IA 1_555 1_555
C10QA N2QA 1_555 1_555
C10SA N2SA 1_555 1_555
C11O N3O 1_555 1_555
C11Y N3Y 1_555 1_555
C11LA N3LA 1_555 1_555
C11D H7D 1_555 1_555
C11H H7H 1_555 1_555
C11Q H7Q 1_555 1_555
C11V H7V 1_555 1_555
C11DA H7DA 1_555 1_555
C11IA H7IA 1_555 1_555
C11QA H7QA 1_555 1_555
C11SA H7SA 1_555 1_555
H7O C11O 1_555 1_555
H7Y C11Y 1_555 1_555
H7LA C11LA 1_555 1_555
C12O N4O 1_555 1_555
C12Y N4Y 1_555 1_555
C12LA N4LA 1_555 1_555
C12D N4D 1_555 1_555
C12H N4H 1_555 1_555
C12Q N4Q 1_555 1_555
C12V N4V 1_555 1_555
C12DA N4DA 1_555 1_555
C12IA N4IA 1_555 1_555
C12QA N4QA 1_555 1_555
C12SA N4SA 1_555 1_555
C13O N3O 1_555 1_555
C13Y N3Y 1_555 1_555
C13LA N3LA 1_555 1_555
C13D N3D 1_555 1_555
C13H N3H 1_555 1_555
C13Q N3Q 1_555 1_555
C13V N3V 1_555 1_555
C13DA N3DA 1_555 1_555
C13IA N3IA 1_555 1_555
C13QA N3QA 1_555 1_555
C13SA N3SA 1_555 1_555
C4 C5 1_555 1_555
C4 C13 1_555 1_555
C5 C10 1_555 1_555
C9 C10 1_555 1_555
C9 C12 1_555 1_555
C12 C13 1_555 1_555
C4O C5O 1_555 1_555
C4O C13O 1_555 1_555
C4Y C5Y 1_555 1_555
C4Y C13Y 1_555 1_555
C4LA C5LA 1_555 1_555
C4LA C13LA 1_555 1_555
C4D C5D 1_555 1_555
C4D C13D 1_555 1_555
C4H C5H 1_555 1_555
C4H C13H 1_555 1_555
C4Q C5Q 1_555 1_555
C4Q C13Q 1_555 1_555
C4V C5V 1_555 1_555
C4V C13V 1_555 1_555
C4DA C5DA 1_555 1_555
C4DA C13DA 1_555 1_555
C4IA C5IA 1_555 1_555
C4IA C13IA 1_555 1_555
C4QA C5QA 1_555 1_555
C4QA C13QA 1_555 1_555
C4SA C5SA 1_555 1_555
C4SA C13SA 1_555 1_555
C5O C10O 1_555 1_555
C5Y C10Y 1_555 1_555
C5LA C10LA 1_555 1_555
C5D C10D 1_555 1_555
C5H C10H 1_555 1_555
C5Q C10Q 1_555 1_555
C5V C10V 1_555 1_555
C5DA C10DA 1_555 1_555
C5IA C10IA 1_555 1_555
C5QA C10QA 1_555 1_555
C5SA C10SA 1_555 1_555
C9O C10O 1_555 1_555
C9O C12O 1_555 1_555
C9Y C10Y 1_555 1_555
C9Y C12Y 1_555 1_555
C9LA C10LA 1_555 1_555
C9LA C12LA 1_555 1_555
C9D C10D 1_555 1_555
C9D C12D 1_555 1_555
C9H C10H 1_555 1_555
C9H C12H 1_555 1_555
C9Q C10Q 1_555 1_555
C9Q C12Q 1_555 1_555
C9V C10V 1_555 1_555
C9V C12V 1_555 1_555
C9DA C10DA 1_555 1_555
C9DA C12DA 1_555 1_555
C9IA C10IA 1_555 1_555
C9IA C12IA 1_555 1_555
C9QA C10QA 1_555 1_555
C9QA C12QA 1_555 1_555
C9SA C10SA 1_555 1_555
C9SA C12SA 1_555 1_555
C12O C13O 1_555 1_555
C12Y C13Y 1_555 1_555
C12LA C13LA 1_555 1_555
C12D C13D 1_555 1_555
C12H C13H 1_555 1_555
C12Q C13Q 1_555 1_555
C12V C13V 1_555 1_555
C12DA C13DA 1_555 1_555
C12IA C13IA 1_555 1_555
C12QA C13QA 1_555 1_555
C12SA C13SA 1_555 1_555

#END
