
#######################################################################
#
#                 Cambridge Crystallographic Data Centre
#                                CCDC 
#
#######################################################################
#
# If this CIF has been generated from an entry in the Cambridge 
# Structural Database, then it will include bibliographic, chemical, 
# crystal, experimental, refinement or atomic coordinate data resulting 
# from the CCDC's data processing and validation procedures.
#
#######################################################################

data_HADXUG
_symmetry_cell_setting           monoclinic
_symmetry_space_group_name_H-M   'C 2/c'
_symmetry_Int_Tables_number      15
_space_group_name_Hall           '-C 2yn'
loop_
_symmetry_equiv_pos_site_id
_symmetry_equiv_pos_as_xyz
1 x,y,z
2 1/2+x,1/2+y,z
3 x,-y,1/2+z
4 1/2+x,1/2-y,1/2+z
5 -x,-y,-z
6 1/2-x,1/2-y,-z
7 -x,y,1/2-z
8 1/2-x,1/2+y,1/2-z
_cell_length_a                   13.831(5)
_cell_length_b                   18.293(6)
_cell_length_c                   8.351(3)
_cell_angle_alpha                90
_cell_angle_beta                 122.308(5)
_cell_angle_gamma                90
_cell_volume                     1785.79
loop_
_atom_site_label
_atom_site_type_symbol
_atom_site_fract_x
_atom_site_fract_y
_atom_site_fract_z
Ag1 Ag 1.0000 0.48154(3) 0.2500
S1 S 0.77662(15) 0.68256(9) 0.2410(2)
S2 S 0.87160(16) 0.68280(9) 0.6642(2)
N1 N 0.8826(4) 0.5642(2) 0.2887(6)
N2 N 0.9056(3) 0.5833(2) 0.4646(5)
C1 C 0.7785(6) 0.6021(4) -0.0449(8)
H1 H 0.8105 0.5582 -0.0606
H2 H 0.8038 0.6434 -0.0840
H3 H 0.6965 0.5994 -0.1209
C2 C 0.8165(5) 0.6106(3) 0.1572(7)
C3 C 0.8568(5) 0.6453(3) 0.4606(7)
C4 C 1.0000 0.7353(4) 0.7500
H4 H 1.0102 0.7667 0.8516
H5 H 0.9898 0.7667 0.6484
S2F S 1.12840(16) 0.68280(9) 0.8358(2)
C3F C 1.1432(5) 0.6453(3) 1.0394(7)
S1F S 1.22338(15) 0.68256(9) 1.2590(2)
C2F C 1.1835(5) 0.6106(3) 1.3428(7)
N1F N 1.1174(4) 0.5642(2) 1.2113(6)
N2F N 1.0944(3) 0.5833(2) 1.0354(5)
C1F C 1.2215(6) 0.6021(4) 1.5449(8)
H1F H 1.1895 0.5582 1.5606
H2F H 1.1962 0.6434 1.5840
H3F H 1.3035 0.5994 1.6209
N1F_2 N 1.1174(4) 0.5642(2) 0.2113(6)
N2B N 0.9056(3) 0.4167(2) -0.0354(5)
N2D N 1.0944(3) 0.4167(2) 0.5354(5)
Ag1B Ag 1.0000 0.51846(3) 0.7500
Ag1_2 Ag 1.0000 0.48154(3) 1.2500
N3 N 1.0000 0.7771(6) 0.2500
O1 O 0.9531(7) 0.7414(7) 0.1032(9)
O2 O 1.0000 0.8435(8) 0.2500
O1F O 1.0469(7) 0.7414(7) 0.3968(9)
O3 O 0.6134(15) 0.5727(8) 0.386(4)
loop_
_geom_bond_atom_site_label_1
_geom_bond_atom_site_label_2
_geom_bond_site_symmetry_1
_geom_bond_site_symmetry_2
Ag1 N1 1_555 1_555
S1 C2 1_555 1_555
S2 C3 1_555 1_555
N1 N2 1_555 1_555
N2 C3 1_555 1_555
C1 H1 1_555 1_555
H2 C1 1_555 1_555
H3 C1 1_555 1_555
C2 N1 1_555 1_555
C3 S1 1_555 1_555
C4 S2 1_555 1_555
H4 C4 1_555 1_555
H5 C4 1_555 1_555
N3 O1 1_555 1_555
O2 N3 1_555 1_555
S2F C4 1_555 1_555
C3F S2F 1_555 1_555
S1F C3F 1_555 1_555
C2F S1F 1_555 1_555
N1F C2F 1_555 1_555
N2F C3F 1_555 1_555
C1F C2F 1_555 1_555
H1F C1F 1_555 1_555
H2F C1F 1_555 1_555
H3F C1F 1_555 1_555
O1F N3 1_555 1_555
N1F_2 Ag1 1_555 1_555
N2B Ag1 1_555 1_555
N2D Ag1 1_555 1_555
Ag1B N2 1_555 1_555
Ag1_2 N1F 1_555 1_555
C1 C2 1_555 1_555
N1F N2F 1_555 1_555
N2F Ag1B 1_555 1_555

#END
