
#######################################################################
#
#                 Cambridge Crystallographic Data Centre
#                                CCDC 
#
#######################################################################
#
# If this CIF has been generated from an entry in the Cambridge 
# Structural Database, then it will include bibliographic, chemical, 
# crystal, experimental, refinement or atomic coordinate data resulting 
# from the CCDC's data processing and validation procedures.
#
#######################################################################

data_HADXIU
_symmetry_cell_setting           monoclinic
_symmetry_space_group_name_H-M   'P 21'
_symmetry_Int_Tables_number      4
_space_group_name_Hall           'P 2yb'
loop_
_symmetry_equiv_pos_site_id
_symmetry_equiv_pos_as_xyz
1 x,y,z
2 -x,1/2+y,-z
_cell_length_a                   7.431(3)
_cell_length_b                   8.826(3)
_cell_length_c                   10.210(4)
_cell_angle_alpha                90
_cell_angle_beta                 106.562(6)
_cell_angle_gamma                90
_cell_volume                     641.851
loop_
_atom_site_label
_atom_site_type_symbol
_atom_site_fract_x
_atom_site_fract_y
_atom_site_fract_z
Ag1 Ag 0.85234(4) 0.75162(6) 0.45926(3)
S1 S 1.1902(2) 0.58186(13) 0.40760(15)
S2 S 1.1611(2) 0.92140(14) 0.39094(15)
N1 N 1.0218(4) 0.3297(4) 0.3165(4)
N2 N 1.0026(5) 0.5177(4) 0.1457(4)
N3 N 1.4317(5) 0.7928(4) 0.5858(4)
N4 N 1.3220(5) 1.0345(4) 0.6329(4)
C1 C 0.9187(5) 0.2377(8) 0.2195(4)
H1 H 0.8881 0.1419 0.2446
C2 C 0.8563(6) 0.2793(6) 0.0840(4)
H2 H 0.7867 0.2138 0.0172
C3 C 0.9022(7) 0.4220(6) 0.0530(5)
H3 H 0.8611 0.4538 -0.0375
C4 C 1.0565(5) 0.4684(4) 0.2739(4)
C5 C 1.2201(5) 0.7496(8) 0.3168(3)
H4 H 1.1419 0.7419 0.2231
H5 H 1.3497 0.7556 0.3150
C6 C 1.3277(6) 0.9153(5) 0.5539(4)
C7 C 1.5403(5) 0.7856(5) 0.7166(4)
H6 H 1.6170 0.7016 0.7455
C8 C 1.5398(6) 0.9002(5) 0.8081(5)
H7 H 1.6120 0.8938 0.8988
C9 C 1.4303(6) 1.0228(5) 0.7614(5)
H8 H 1.4309 1.1020 0.8216
N5 N 0.6370(6) 0.9233(4) 0.1882(4)
O1 O 0.6110(6) 0.9025(5) 0.3020(4)
O2 O 0.7730(5) 0.8645(5) 0.1611(4)
O3 O 0.5312(5) 1.0070(5) 0.1046(4)
N1A N 0.9782(4) 0.8297(4) 0.6835(4)
N4A N 0.6780(5) 0.5345(4) 0.3671(4)
Ag1A Ag 1.14766(4) 0.25162(6) 0.54074(3)
Ag1A_2 Ag 1.14766(4) 1.25162(6) 0.54074(3)
loop_
_geom_bond_atom_site_label_1
_geom_bond_atom_site_label_2
_geom_bond_site_symmetry_1
_geom_bond_site_symmetry_2
Ag1 S2 1_555 1_555
S1 C4 1_555 1_555
S2 C5 1_555 1_555
N1 C1 1_555 1_555
N2 C3 1_555 1_555
N3 C6 1_555 1_555
N4 C6 1_555 1_555
C1 H1 1_555 1_555
C2 C1 1_555 1_555
H2 C2 1_555 1_555
C3 C2 1_555 1_555
H3 C3 1_555 1_555
C4 N1 1_555 1_555
C5 S1 1_555 1_555
H4 C5 1_555 1_555
H5 C5 1_555 1_555
C6 S2 1_555 1_555
C7 N3 1_555 1_555
H6 C7 1_555 1_555
C8 C7 1_555 1_555
H7 C8 1_555 1_555
C9 N4 1_555 1_555
H8 C9 1_555 1_555
N5 O1 1_555 1_555
O1 Ag1 1_555 1_555
O2 N5 1_555 1_555
O3 N5 1_555 1_555
N1A Ag1 1_555 1_555
N4A Ag1 1_555 1_555
Ag1A N1 1_555 1_555
Ag1A_2 N4 1_555 1_555
N2 C4 1_555 1_555
C8 C9 1_555 1_555

#END
