
#######################################################################
#
#                 Cambridge Crystallographic Data Centre
#                                CCDC 
#
#######################################################################
#
# If this CIF has been generated from an entry in the Cambridge 
# Structural Database, then it will include bibliographic, chemical, 
# crystal, experimental, refinement or atomic coordinate data resulting 
# from the CCDC's data processing and validation procedures.
#
#######################################################################

data_HADYER
_symmetry_cell_setting           triclinic
_symmetry_space_group_name_H-M   'P -1'
_symmetry_Int_Tables_number      2
_space_group_name_Hall           '-P 1'
loop_
_symmetry_equiv_pos_site_id
_symmetry_equiv_pos_as_xyz
1 x,y,z
2 -x,-y,-z
_cell_length_a                   8.233(19)
_cell_length_b                   13.30(3)
_cell_length_c                   15.49(3)
_cell_angle_alpha                78.25(4)
_cell_angle_beta                 83.02(4)
_cell_angle_gamma                84.41(4)
_cell_volume                     1643.67
loop_
_atom_site_label
_atom_site_type_symbol
_atom_site_fract_x
_atom_site_fract_y
_atom_site_fract_z
Ag1 Ag 0.56464(16) 0.46814(10) 0.78186(8)
Ag2 Ag 0.42556(16) 0.23082(10) 0.87534(9)
S1 S 0.6705(5) 0.3713(4) 1.0801(3)
S2 S 0.7782(5) 0.5452(3) 0.9383(3)
S3 S 0.0121(5) 0.4488(4) 0.7419(3)
S4 S 0.2245(6) 0.6233(4) 0.6847(3)
S5 S 0.2483(5) 0.5456(3) 0.4278(3)
S6 S 0.2583(6) 0.7729(4) 0.3960(3)
N1 N 0.5513(15) 0.3097(10) 0.9639(9)
N2 N 0.6244(15) 0.3932(10) 0.9225(8)
N3 N 0.2388(14) 0.3520(9) 0.8208(8)
N4 N 0.2932(14) 0.4434(10) 0.7821(7)
N5 N 0.3822(15) 0.7620(10) 0.2460(8)
N6 N 0.3535(15) 0.6647(10) 0.2858(8)
N7 N 0.351(2) 0.0806(14) 0.9397(11)
N8 N 0.6562(18) 0.6155(13) 0.7266(10)
C1 C 0.497(2) 0.1950(15) 1.1080(12)
H1 H 0.4134 0.2172 1.1506
H2 H 0.5826 0.1539 1.1384
H3 H 0.4498 0.1549 1.0738
C2 C 0.5663(18) 0.2875(11) 1.0475(11)
C3 C 0.6841(18) 0.4350(12) 0.9755(12)
C4 C 0.9272(16) 0.5359(12) 1.0096(10)
H4 H 0.9642 0.6039 1.0059
H5 H 0.8789 0.5126 1.0698
C5 C 0.006(2) 0.2541(14) 0.8334(13)
H6 H 0.0373 0.2058 0.7949
H7 H -0.1099 0.2718 0.8350
H8 H 0.0335 0.2238 0.8920
C6 C 0.0912(17) 0.3441(14) 0.8012(10)
C7 C 0.1914(18) 0.5000(11) 0.7409(10)
C8 C 0.302(2) 0.5968(13) 0.5794(10)
H9 H 0.3571 0.6556 0.5450
H10 H 0.3830 0.5383 0.5870
C9 C 0.180(2) 0.5754(15) 0.5335(10)
H11 H 0.1001 0.6346 0.5258
H12 H 0.1235 0.5178 0.5692
C10 C 0.2880(19) 0.6582(14) 0.3657(10)
C11 C 0.344(2) 0.8233(12) 0.2948(11)
C12 C 0.370(3) 0.9300(15) 0.2699(15)
H13 H 0.3280 0.9574 0.2139
H14 H 0.3132 0.9656 0.3141
H15 H 0.4849 0.9390 0.2648
C13 C 0.284(2) 0.0169(13) 0.9819(11)
C14 C 0.201(2) -0.0595(14) 1.0432(13)
H16 H 0.1414 -0.0295 1.0901
H17 H 0.2792 -0.1129 1.0674
H18 H 0.1259 -0.0882 1.0137
C15 C 0.715(2) 0.6852(13) 0.6962(11)
C16 C 0.800(3) 0.7764(17) 0.6557(14)
H19 H 0.7914 0.8221 0.6969
H20 H 0.7502 0.8105 0.6034
H21 H 0.9130 0.7570 0.6400
C4A C 1.0728(16) 0.4641(12) 0.9904(10)
S2A S 1.2218(5) 0.4548(3) 1.0617(3)
C3A C 1.3159(18) 0.5650(12) 1.0245(12)
S1A S 1.3295(5) 0.6287(4) 0.9199(3)
C2A C 1.4337(18) 0.7125(11) 0.9525(11)
N1A N 1.4487(15) 0.6903(10) 1.0361(9)
N2A N 1.3756(15) 0.6068(10) 1.0775(8)
C1A C 1.503(2) 0.8050(15) 0.8920(12)
H1A H 1.5866 0.7828 0.8494
H2A H 1.4174 0.8461 0.8616
H3A H 1.5502 0.8451 0.9262
H4A H 1.0358 0.3961 0.9941
H5A H 1.1211 0.4874 0.9302
S3A S 0.9879(5) 0.5512(4) 0.2581(3)
S4A S 0.7755(6) 0.3767(4) 0.3153(3)
S5A S 0.7517(5) 0.4544(3) 0.5722(3)
S6A S 0.7417(6) 0.2271(4) 0.6040(3)
N3A N 0.7612(14) 0.6480(9) 0.1792(8)
N4A N 0.7068(14) 0.5566(10) 0.2179(7)
N5A N 0.6178(15) 0.2380(10) 0.7540(8)
N6A N 0.6465(15) 0.3353(10) 0.7142(8)
C5A C 0.994(2) 0.7459(14) 0.1666(13)
H6A H 0.9627 0.7942 0.2051
H7A H 1.1099 0.7282 0.1650
H8A H 0.9665 0.7762 0.1080
C6A C 0.9088(17) 0.6559(14) 0.1988(10)
C7A C 0.8086(18) 0.5000(11) 0.2591(10)
C8A C 0.698(2) 0.4032(13) 0.4206(10)
H9A H 0.6429 0.3444 0.4550
H10A H 0.6170 0.4617 0.4130
C9A C 0.820(2) 0.4246(15) 0.4665(10)
H11A H 0.8999 0.3654 0.4742
H12A H 0.8765 0.4822 0.4308
C10A C 0.7120(19) 0.3418(14) 0.6343(10)
C11A C 0.656(2) 0.1767(12) 0.7052(11)
C12A C 0.630(3) 0.0700(15) 0.7301(15)
H13A H 0.6720 0.0426 0.7861
H14A H 0.6868 0.0344 0.6859
H15A H 0.5151 0.0610 0.7352
Ag1A Ag 1.43536(16) 0.53186(10) 1.21814(8)
Ag2A Ag 1.57444(16) 0.76918(10) 1.12466(9)
N8A N 1.3438(18) 0.3845(13) 1.2734(10)
C15A C 1.285(2) 0.3148(13) 1.3038(11)
C16A C 1.200(3) 0.2236(17) 1.3443(14)
H19A H 1.2086 0.1779 1.3031
H20A H 1.2498 0.1895 1.3966
H21A H 1.0870 0.2430 1.3600
N7A N 1.649(2) 0.9194(14) 1.0603(11)
C13A C 1.716(2) 0.9831(13) 1.0181(11)
C14A C 1.799(2) 1.0595(14) 0.9568(13)
H16A H 1.8586 1.0295 0.9099
H17A H 1.7208 1.1129 0.9326
H18A H 1.8741 1.0882 0.9863
Ag2A_2 Ag 0.57444(16) 0.76918(10) 0.12466(9)
Ag1A_2 Ag 0.43536(16) 0.53186(10) 0.21814(8)
N4A_2 N 1.7068(14) 0.5566(10) 1.2179(7)
N6_2 N 1.3535(15) 0.6647(10) 1.2858(8)
N3A_2 N 1.7612(14) 0.6480(9) 1.1792(8)
N5_2 N 1.3822(15) 0.7620(10) 1.2460(8)
Cl1 Cl 0.7281(6) 0.7285(4) 0.4142(4)
O1 O 0.751(5) 0.793(2) 0.3439(18)
O2 O 0.646(2) 0.6517(14) 0.3928(12)
O3 O 0.628(2) 0.7787(19) 0.4703(15)
O4 O 0.872(2) 0.692(2) 0.450(2)
Cl2 Cl 0.0181(7) 0.1855(5) 0.1305(4)
O5 O 0.1338(19) 0.1119(12) 0.1703(12)
O6 O 0.010(2) 0.2747(15) 0.1615(12)
O7 O 0.050(4) 0.2129(17) 0.0432(14)
O8 O -0.129(3) 0.152(2) 0.158(2)
loop_
_geom_bond_atom_site_label_1
_geom_bond_atom_site_label_2
_geom_bond_site_symmetry_1
_geom_bond_site_symmetry_2
Ag1 N2 1_555 1_555
Ag2 N1 1_555 1_555
S1 C2 1_555 1_555
S2 C3 1_555 1_555
S3 C6 1_555 1_555
S4 C7 1_555 1_555
S5 C9 1_555 1_555
S6 C10 1_555 1_555
N1 N2 1_555 1_555
N2 C3 1_555 1_555
N3 Ag2 1_555 1_555
N4 Ag1 1_555 1_555
N5 N6 1_555 1_555
N6 C10 1_555 1_555
N7 Ag2 1_555 1_555
N8 Ag1 1_555 1_555
C1 H1 1_555 1_555
H2 C1 1_555 1_555
H3 C1 1_555 1_555
C2 N1 1_555 1_555
C3 S1 1_555 1_555
C4 S2 1_555 1_555
H4 C4 1_555 1_555
H5 C4 1_555 1_555
C5 H6 1_555 1_555
H7 C5 1_555 1_555
H8 C5 1_555 1_555
C6 N3 1_555 1_555
C7 S3 1_555 1_555
C8 S4 1_555 1_555
H9 C8 1_555 1_555
H10 C8 1_555 1_555
C9 C8 1_555 1_555
H11 C9 1_555 1_555
H12 C9 1_555 1_555
C10 S5 1_555 1_555
C11 S6 1_555 1_555
C12 C11 1_555 1_555
H13 C12 1_555 1_555
H14 C12 1_555 1_555
H15 C12 1_555 1_555
C13 N7 1_555 1_555
C14 C13 1_555 1_555
H16 C14 1_555 1_555
H17 C14 1_555 1_555
H18 C14 1_555 1_555
C15 N8 1_555 1_555
C16 C15 1_555 1_555
H19 C16 1_555 1_555
H20 C16 1_555 1_555
H21 C16 1_555 1_555
Cl1 O1 1_555 1_555
O2 Cl1 1_555 1_555
O3 Cl1 1_555 1_555
O4 Cl1 1_555 1_555
Cl2 O5 1_555 1_555
O6 Cl2 1_555 1_555
O7 Cl2 1_555 1_555
O8 Cl2 1_555 1_555
C4A C4 1_555 1_555
S2A C4A 1_555 1_555
C3A S2A 1_555 1_555
S1A C3A 1_555 1_555
C2A S1A 1_555 1_555
N1A C2A 1_555 1_555
N2A C3A 1_555 1_555
C1A C2A 1_555 1_555
H1A C1A 1_555 1_555
H2A C1A 1_555 1_555
H3A C1A 1_555 1_555
H4A C4A 1_555 1_555
H5A C4A 1_555 1_555
S3A C6A 1_555 1_555
S4A C7A 1_555 1_555
S5A C9A 1_555 1_555
S6A C10A 1_555 1_555
N3A N4A 1_555 1_555
N4A C7A 1_555 1_555
N5A Ag2 1_555 1_555
N6A Ag1 1_555 1_555
C5A H6A 1_555 1_555
H7A C5A 1_555 1_555
H8A C5A 1_555 1_555
C6A N3A 1_555 1_555
C7A S3A 1_555 1_555
C8A S4A 1_555 1_555
H9A C8A 1_555 1_555
H10A C8A 1_555 1_555
C9A C8A 1_555 1_555
H11A C9A 1_555 1_555
H12A C9A 1_555 1_555
C10A S5A 1_555 1_555
C11A S6A 1_555 1_555
C12A C11A 1_555 1_555
H13A C12A 1_555 1_555
H14A C12A 1_555 1_555
H15A C12A 1_555 1_555
Ag1A N2A 1_555 1_555
Ag2A N1A 1_555 1_555
N8A Ag1A 1_555 1_555
C15A N8A 1_555 1_555
C16A C15A 1_555 1_555
H19A C16A 1_555 1_555
H20A C16A 1_555 1_555
H21A C16A 1_555 1_555
N7A Ag2A 1_555 1_555
C13A N7A 1_555 1_555
C14A C13A 1_555 1_555
H16A C14A 1_555 1_555
H17A C14A 1_555 1_555
H18A C14A 1_555 1_555
Ag2A_2 N5 1_555 1_555
Ag1A_2 N6 1_555 1_555
N4A_2 Ag1A 1_555 1_555
N6_2 Ag1A 1_555 1_555
N3A_2 Ag2A 1_555 1_555
N5_2 Ag2A 1_555 1_555
N3 N4 1_555 1_555
N4 C7 1_555 1_555
N5 C11 1_555 1_555
C1 C2 1_555 1_555
C5 C6 1_555 1_555
N1A N2A 1_555 1_555
N3A Ag2A_2 1_555 1_555
N4A Ag1A_2 1_555 1_555
N5A C11A 1_555 1_555
N5A N6A 1_555 1_555
N6A C10A 1_555 1_555
C5A C6A 1_555 1_555
N4A_2 N3A_2 1_555 1_555
N6_2 N5_2 1_555 1_555

#END
