
#######################################################################
#
#                 Cambridge Crystallographic Data Centre
#                                CCDC 
#
#######################################################################
#
# If this CIF has been generated from an entry in the Cambridge 
# Structural Database, then it will include bibliographic, chemical, 
# crystal, experimental, refinement or atomic coordinate data resulting 
# from the CCDC's data processing and validation procedures.
#
#######################################################################

data_HAFDUO
_symmetry_cell_setting           monoclinic
_symmetry_space_group_name_H-M   'P 21/n'
_symmetry_Int_Tables_number      14
_space_group_name_Hall           '-P 2yn'
loop_
_symmetry_equiv_pos_site_id
_symmetry_equiv_pos_as_xyz
1 x,y,z
2 1/2+x,1/2-y,1/2+z
3 -x,-y,-z
4 1/2-x,1/2+y,1/2-z
_cell_length_a                   12.369(2)
_cell_length_b                   14.3130(17)
_cell_length_c                   14.416(4)
_cell_angle_alpha                90
_cell_angle_beta                 106.04(2)
_cell_angle_gamma                90
_cell_volume                     2452.81
loop_
_atom_site_label
_atom_site_type_symbol
_atom_site_fract_x
_atom_site_fract_y
_atom_site_fract_z
Cd1 Cd 0.18423(3) 0.31436(2) 0.61800(2)
Cd2 Cd 0.18348(4) 0.03711(3) 0.35359(3)
Cd3 Cd 0.20955(3) 0.17710(2) 0.99172(2)
C1 C 0.2178(4) 0.2634(4) 0.7670(4)
N1 N 0.2211(4) 0.2345(3) 0.8414(3)
C2 C 0.2469(4) 0.4499(3) 0.5828(4)
N2 N 0.2720(4) 0.5198(3) 0.5591(3)
C3 C -0.0053(5) 0.3139(4) 0.5675(5)
N3 N -0.0975(5) 0.3164(4) 0.5445(4)
C4 C 0.2230(5) 0.1499(4) 0.4634(4)
N4 N 0.2240(5) 0.2066(4) 0.5187(4)
C5 C 0.1940(5) 0.0856(4) 0.2129(3)
N5 N 0.1963(4) 0.1149(3) 0.1401(3)
C6 C 0.2549(5) -0.0972(4) 0.4148(4)
N6 N 0.2819(5) -0.1679(3) 0.4487(4)
N7 N 0.0012(4) 0.0238(3) 0.3540(3)
C7 C -0.0737(6) -0.0403(5) 0.3052(5)
H1 H -0.0589 -0.0867 0.2652
N8 N -0.1727(6) -0.0257(7) 0.3241(6)
H2 H -0.2342 -0.0558 0.2999
C8 C -0.1570(7) 0.0463(5) 0.3892(6)
H3 H -0.2099 0.0708 0.4175
C9 C -0.0554(7) 0.0731(5) 0.4032(5)
H4 H -0.0240 0.1224 0.4438
N9 N 0.0172(4) 0.1742(3) 0.9262(3)
C10 C -0.0452(5) 0.2136(5) 0.8451(5)
H5 H -0.0182 0.2541 0.8062
N10 N -0.1536(5) 0.1860(6) 0.8277(5)
H6 H -0.2090 0.2017 0.7796
C11 C -0.1570(5) 0.1281(4) 0.9023(5)
H7 H -0.2200 0.0982 0.9114
C12 C -0.0534(5) 0.1231(4) 0.9585(5)
H8 H -0.0323 0.0876 1.0147
N2C N 0.2280(4) 0.0198(3) 0.9409(3)
N3A N 0.4025(5) 0.1836(4) 1.0445(4)
N5_2 N 0.1963(4) 0.1149(3) 1.1401(3)
N6C N 0.2181(5) 0.3321(3) 1.0513(4)
Cd3C Cd 0.29045(3) 0.67710(2) 0.50828(2)
Cd3A Cd -0.29045(3) 0.32290(2) 0.49172(2)
Cd3_2 Cd 0.20955(3) 0.17710(2) -0.00828(2)
Cd3C_2 Cd 0.29045(3) -0.32290(2) 0.50828(2)
C13 C 0.5009(8) 0.0298(10) 0.6743(7)
C14 C 0.4899(8) 0.1205(11) 0.6510(7)
H9 H 0.4825 0.1409 0.5883
C15 C 0.4901(8) 0.1828(10) 0.7251(8)
C16 C 0.4988(10) 0.1535(12) 0.8169(8)
H10 H 0.4976 0.1962 0.8652
C17 C 0.5098(10) 0.0556(14) 0.8375(9)
H11 H 0.5132 0.0329 0.8987
C18 C 0.5148(10) -0.0006(11) 0.7678(8)
H12 H 0.5283 -0.0637 0.7815
Cl1 Cl 0.4971(7) -0.0362(5) 0.5956(5)
Cl2? Cl 0.4689(4) 0.2825(3) 0.6992(3)
loop_
_geom_bond_atom_site_label_1
_geom_bond_atom_site_label_2
_geom_bond_site_symmetry_1
_geom_bond_site_symmetry_2
Cd1 C1 1_555 1_555
Cd2 C4 1_555 1_555
Cd3 N1 1_555 1_555
C1 N1 1_555 1_555
C2 Cd1 1_555 1_555
N2 C2 1_555 1_555
C3 Cd1 1_555 1_555
N3 C3 1_555 1_555
C4 N4 1_555 1_555
N4 Cd1 1_555 1_555
C5 Cd2 1_555 1_555
N5 C5 1_555 1_555
C6 Cd2 1_555 1_555
N6 C6 1_555 1_555
N7 Cd2 1_555 1_555
C7 N7 1_555 1_555
H1 C7 1_555 1_555
N8 C7 1_555 1_555
H2 N8 1_555 1_555
C8 N8 1_555 1_555
H3 C8 1_555 1_555
C9 N7 1_555 1_555
H4 C9 1_555 1_555
N9 Cd3 1_555 1_555
C10 N9 1_555 1_555
H5 C10 1_555 1_555
N10 C10 1_555 1_555
H6 N10 1_555 1_555
C11 N10 1_555 1_555
H7 C11 1_555 1_555
C12 N9 1_555 1_555
H8 C12 1_555 1_555
C13 C14 1_555 1_555
C14 H9 1_555 1_555
C15 C14 1_555 1_555
C16 C15 1_555 1_555
H10 C16 1_555 1_555
C17 C16 1_555 1_555
H11 C17 1_555 1_555
C18 C13 1_555 1_555
H12 C18 1_555 1_555
Cl1 C13 1_555 1_555
N2C Cd3 1_555 1_555
N3A Cd3 1_555 1_555
N5_2 Cd3 1_555 1_555
N6C Cd3 1_555 1_555
Cd3C N2 1_555 1_555
Cd3A N3 1_555 1_555
Cd3_2 N5 1_555 1_555
Cd3C_2 N6 1_555 1_555
C8 C9 1_555 1_555
C11 C12 1_555 1_555
C17 C18 1_555 1_555

#END
