
#######################################################################
#
#                 Cambridge Crystallographic Data Centre
#                                CCDC 
#
#######################################################################
#
# If this CIF has been generated from an entry in the Cambridge 
# Structural Database, then it will include bibliographic, chemical, 
# crystal, experimental, refinement or atomic coordinate data resulting 
# from the CCDC's data processing and validation procedures.
#
#######################################################################

data_HAFDOI
_symmetry_cell_setting           monoclinic
_symmetry_space_group_name_H-M   'P 21/n'
_symmetry_Int_Tables_number      14
_space_group_name_Hall           '-P 2yn'
loop_
_symmetry_equiv_pos_site_id
_symmetry_equiv_pos_as_xyz
1 x,y,z
2 1/2+x,1/2-y,1/2+z
3 -x,-y,-z
4 1/2-x,1/2+y,1/2-z
_cell_length_a                   13.4156(18)
_cell_length_b                   14.1404(17)
_cell_length_c                   14.1514(14)
_cell_angle_alpha                90
_cell_angle_beta                 105.080(9)
_cell_angle_gamma                90
_cell_volume                     2592.1
loop_
_atom_site_label
_atom_site_type_symbol
_atom_site_fract_x
_atom_site_fract_y
_atom_site_fract_z
Cd1 Cd 0.34588(3) 0.32831(2) -0.10960(2)
Cd2 Cd 0.32311(3) 0.04385(2) 0.14643(3)
Cd3 Cd 0.21878(3) 0.68191(2) -0.00874(2)
C1 C 0.2704(4) 0.4573(3) -0.0791(4)
N1 N 0.2341(4) 0.5239(3) -0.0591(3)
C2 C 0.2973(4) 0.2710(4) -0.2598(3)
N2 N 0.2818(3) 0.2407(3) -0.3360(3)
C3 C 0.5158(4) 0.3219(4) -0.0609(4)
N3 N 0.6030(4) 0.3169(4) -0.0385(4)
C4 C 0.2938(4) 0.1604(4) 0.0394(4)
N4 N 0.2989(4) 0.2191(4) -0.0140(4)
C5 C 0.2579(4) -0.0915(4) 0.0839(4)
N5 N 0.2316(4) -0.1618(3) 0.0498(4)
C6 C 0.3034(4) 0.0925(4) 0.2862(4)
N6 N 0.2935(4) 0.1221(4) 0.3582(3)
N7 N 0.4906(4) 0.0283(3) 0.1512(4)
C7 C 0.5457(6) 0.0826(5) 0.1075(6)
H1 H 0.5208 0.1368 0.0720
N8 N 0.6403(5) 0.0500(5) 0.1207(5)
H2 H 0.6886 0.0747 0.0990
C8 C 0.6471(6) -0.0313(6) 0.1758(6)
H3 H 0.7041 -0.0706 0.1970
C9 C 0.5563(6) -0.0413(6) 0.1918(6)
H4 H 0.5388 -0.0911 0.2273
N9 N 0.0401(3) 0.6792(3) -0.0616(4)
C10 C -0.0213(5) 0.6285(5) -0.0237(6)
H5 H 0.0014 0.5919 0.0324
N10 N -0.1198(5) 0.6349(5) -0.0742(6)
H6 H -0.1720 0.6073 -0.0616
C11 C -0.1203(5) 0.6947(7) -0.1505(7)
H7 H -0.1778 0.7136 -0.1992
C12 C -0.0231(5) 0.7207(5) -0.1415(5)
H8 H -0.0015 0.7614 -0.1838
N2C N 0.2182(3) 0.7407(3) -0.1640(3)
N3B N 0.3970(4) 0.6831(4) 0.0385(4)
N5_2 N 0.2316(4) 0.8382(3) 0.0498(4)
N6C N 0.2065(4) 0.6221(4) 0.1418(3)
Cd3C Cd 0.28122(3) 0.18191(2) -0.49126(2)
Cd3B Cd 0.78122(3) 0.31809(2) 0.00874(2)
Cd3_2 Cd 0.21878(3) -0.31809(2) -0.00874(2)
Cd3C_2 Cd 0.28122(3) 0.18191(2) 0.50874(2)
C13 C 0.5208(16) 0.5622(12) -0.1884(9)
H9 H 0.4738 0.5517 -0.1477
H10 H 0.5899 0.5487 -0.1485
C14 C 0.4973(15) 0.4961(9) -0.2653(12)
H11 H 0.5566 0.4549 -0.2581
H12 H 0.4406 0.4573 -0.2569
C15 C 0.471(2) 0.5295(15) -0.3588(11)
H13 H 0.4004 0.5106 -0.3875
H14 H 0.5133 0.4951 -0.3937
C16 C 0.4782(13) 0.6252(18) -0.3815(11)
H15 H 0.5351 0.6331 -0.4114
H16 H 0.4154 0.6431 -0.4298
C17 C 0.493(2) 0.6872(11) -0.3020(18)
H17 H 0.5469 0.7312 -0.3066
H18 H 0.4299 0.7238 -0.3106
C18 C 0.517(2) 0.6536(14) -0.2123(14)
H19 H 0.4684 0.6822 -0.1803
H20 H 0.5840 0.6795 -0.1804
loop_
_geom_bond_atom_site_label_1
_geom_bond_atom_site_label_2
_geom_bond_site_symmetry_1
_geom_bond_site_symmetry_2
Cd1 C1 1_555 1_555
Cd2 C4 1_555 1_555
Cd3 N1 1_555 1_555
C1 N1 1_555 1_555
C2 Cd1 1_555 1_555
N2 C2 1_555 1_555
C3 Cd1 1_555 1_555
N3 C3 1_555 1_555
C4 N4 1_555 1_555
N4 Cd1 1_555 1_555
C5 Cd2 1_555 1_555
N5 C5 1_555 1_555
C6 Cd2 1_555 1_555
N6 C6 1_555 1_555
N7 Cd2 1_555 1_555
C7 N7 1_555 1_555
H1 C7 1_555 1_555
N8 C7 1_555 1_555
H2 N8 1_555 1_555
C8 N8 1_555 1_555
H3 C8 1_555 1_555
C9 N7 1_555 1_555
H4 C9 1_555 1_555
N9 Cd3 1_555 1_555
C10 N9 1_555 1_555
H5 C10 1_555 1_555
N10 C10 1_555 1_555
H6 N10 1_555 1_555
C11 N10 1_555 1_555
H7 C11 1_555 1_555
C12 N9 1_555 1_555
H8 C12 1_555 1_555
C13 H9 1_555 1_555
H10 C13 1_555 1_555
C14 C13 1_555 1_555
H11 C14 1_555 1_555
H12 C14 1_555 1_555
C15 C14 1_555 1_555
H13 C15 1_555 1_555
H14 C15 1_555 1_555
C16 C15 1_555 1_555
H15 C16 1_555 1_555
H16 C16 1_555 1_555
C17 C16 1_555 1_555
H17 C17 1_555 1_555
H18 C17 1_555 1_555
C18 C13 1_555 1_555
H19 C18 1_555 1_555
H20 C18 1_555 1_555
N2C Cd3 1_555 1_555
N3B Cd3 1_555 1_555
N5_2 Cd3 1_555 1_555
N6C Cd3 1_555 1_555
Cd3C N2 1_555 1_555
Cd3B N3 1_555 1_555
Cd3_2 N5 1_555 1_555
Cd3C_2 N6 1_555 1_555
C8 C9 1_555 1_555
C11 C12 1_555 1_555
C17 C18 1_555 1_555

#END
