
#######################################################################
#
#                 Cambridge Crystallographic Data Centre
#                                CCDC 
#
#######################################################################
#
# If this CIF has been generated from an entry in the Cambridge 
# Structural Database, then it will include bibliographic, chemical, 
# crystal, experimental, refinement or atomic coordinate data resulting 
# from the CCDC's data processing and validation procedures.
#
#######################################################################

data_HAFFID
_symmetry_cell_setting           monoclinic
_symmetry_space_group_name_H-M   'P 21/c'
_symmetry_Int_Tables_number      14
_space_group_name_Hall           '-P 2ybc'
loop_
_symmetry_equiv_pos_site_id
_symmetry_equiv_pos_as_xyz
1 x,y,z
2 -x,1/2+y,1/2-z
3 -x,-y,-z
4 x,1/2-y,1/2+z
_cell_length_a                   9.042(5)
_cell_length_b                   14.178(13)
_cell_length_c                   22.32(2)
_cell_angle_alpha                90
_cell_angle_beta                 92.04(7)
_cell_angle_gamma                90
_cell_volume                     2859.55
loop_
_atom_site_label
_atom_site_type_symbol
_atom_site_fract_x
_atom_site_fract_y
_atom_site_fract_z
Ti1 Ti -0.42357(10) -0.56706(7) 0.13109(4)
Ti2 Ti -0.20274(10) 0.00224(7) 0.30462(4)
Ti3 Ti -0.30925(9) -0.51956(7) 0.53936(4)
Cl1 Cl -0.57156(14) -0.59121(9) 0.22173(6)
Cl2 Cl -0.64788(14) -0.46885(10) 0.10630(6)
Cl3 Cl -0.32173(16) -0.51313(13) 0.04899(6)
Cl4 Cl -0.23555(16) -0.64253(11) 0.17470(8)
Cl5 Cl -0.52819(17) -0.68990(12) 0.08677(8)
Cl6 Cl -0.01590(15) 0.07942(10) 0.35167(7)
Cl7 Cl -0.08786(16) -0.05562(11) 0.22709(6)
Cl8 Cl -0.30026(19) 0.12682(11) 0.25927(7)
Cl9 Cl -0.53277(13) -0.60884(9) 0.50559(6)
Cl10 Cl -0.12135(15) -0.41806(11) 0.55125(6)
Cl11 Cl -0.19842(17) -0.65202(11) 0.56546(8)
Cl12 Cl -0.40689(15) -0.49039(12) 0.62667(6)
O1 O -0.3575(4) -0.44481(23) 0.17544(15)
O2 O -0.1413(4) -0.11938(23) 0.35297(15)
O3 O -0.2484(4) -0.53766(23) 0.45099(15)
O4 O -0.2983(5) -0.29188(25) 0.17509(16)
O5 O -0.0841(4) -0.20222(23) 0.43594(15)
O6 O -0.2302(5) -0.61635(24) 0.36570(16)
C1 C -0.2583(6) -0.3735(4) 0.26499(22)
C2 C -0.2124(6) -0.2887(4) 0.29125(22)
C3 C -0.1740(5) -0.2870(4) 0.35216(22)
C4 C -0.1819(6) -0.3684(4) 0.38655(21)
C5 C -0.2268(6) -0.4521(4) 0.35984(22)
C6 C -0.2655(6) -0.4553(4) 0.29810(22)
C7 C -0.3103(6) -0.3744(4) 0.20079(22)
C8 C -0.3428(10) -0.2844(6) 0.11194(28)
C9 C -0.1318(6) -0.1950(4) 0.37929(23)
C10 C -0.0398(8) -0.1171(5) 0.46726(27)
C11 C -0.2370(6) -0.5388(4) 0.39646(23)
C12 C -0.2333(9) -0.7062(4) 0.39789(31)
H1 H -0.267(7) -0.317(4) 0.082(3)
H2 H -0.334(6) -0.210(1) 0.104(3)
H3 H -0.452(4) -0.304(4) 0.095(4)
H4 H -0.018(5) -0.130(4) 0.514(1)
H5 H -0.122(5) -0.062(3) 0.465(3)
H6 H 0.060(3) -0.086(4) 0.451(3)
H7 H -0.161(6) -0.699(5) 0.437(2)
H8 H -0.342(3) -0.721(5) 0.414(3)
H9 H -0.199(7) -0.771(3) 0.377(3)
H10 H -0.205(6) -0.226(2) 0.264(2)
H11 H -0.147(5) -0.370(4) 0.433(1)
H12 H -0.285(6) -0.516(3) 0.269(2)
Cl9B Cl -0.46723(13) -0.39116(9) 0.49441(6)
Ti3B Ti -0.69075(9) -0.48044(7) 0.46064(4)
Ti2A Ti -0.79726(10) -0.49776(7) 0.19538(4)
Cl1A Cl -0.42844(14) -0.09121(9) 0.27827(6)
Cl2A Cl -0.35212(14) 0.03115(10) 0.39370(6)
loop_
_geom_bond_atom_site_label_1
_geom_bond_atom_site_label_2
_geom_bond_site_symmetry_1
_geom_bond_site_symmetry_2
Ti1 Cl1 1_555 1_555
Ti2 Cl6 1_555 1_555
Ti3 Cl9 1_555 1_555
Cl1 Ti2A 1_555 1_555
Cl2 Ti1 1_555 1_555
Cl3 Ti1 1_555 1_555
Cl4 Ti1 1_555 1_555
Cl5 Ti1 1_555 1_555
Cl7 Ti2 1_555 1_555
Cl8 Ti2 1_555 1_555
Cl9 Ti3B 1_555 1_555
Cl10 Ti3 1_555 1_555
Cl11 Ti3 1_555 1_555
Cl12 Ti3 1_555 1_555
O1 Ti1 1_555 1_555
O2 Ti2 1_555 1_555
O3 Ti3 1_555 1_555
O4 C7 1_555 1_555
O5 C9 1_555 1_555
O6 C11 1_555 1_555
C1 C2 1_555 1_555
C2 C3 1_555 1_555
C3 C4 1_555 1_555
C4 C5 1_555 1_555
C5 C6 1_555 1_555
C6 C1 1_555 1_555
C7 O1 1_555 1_555
C8 O4 1_555 1_555
C9 O2 1_555 1_555
C10 O5 1_555 1_555
C11 O3 1_555 1_555
C12 O6 1_555 1_555
H1 C8 1_555 1_555
H2 C8 1_555 1_555
H3 C8 1_555 1_555
H4 C10 1_555 1_555
H5 C10 1_555 1_555
H6 C10 1_555 1_555
H7 C12 1_555 1_555
H8 C12 1_555 1_555
H9 C12 1_555 1_555
H10 C2 1_555 1_555
H11 C4 1_555 1_555
H12 C6 1_555 1_555
Cl9B Ti3 1_555 1_555
Ti3B Cl9B 1_555 1_555
Ti2A Cl2 1_555 1_555
Cl1A Ti2 1_555 1_555
Cl2A Ti2 1_555 1_555
C1 C7 1_555 1_555
C3 C9 1_555 1_555
C5 C11 1_555 1_555

#END
