
#######################################################################
#
#                 Cambridge Crystallographic Data Centre
#                                CCDC 
#
#######################################################################
#
# If this CIF has been generated from an entry in the Cambridge 
# Structural Database, then it will include bibliographic, chemical, 
# crystal, experimental, refinement or atomic coordinate data resulting 
# from the CCDC's data processing and validation procedures.
#
#######################################################################

data_HAFKIK
_symmetry_cell_setting           triclinic
_symmetry_space_group_name_H-M   'P -1'
_symmetry_Int_Tables_number      2
_space_group_name_Hall           '-P 1'
loop_
_symmetry_equiv_pos_site_id
_symmetry_equiv_pos_as_xyz
1 x,y,z
2 -x,-y,-z
_cell_length_a                   3.5063(5)
_cell_length_b                   8.6881(7)
_cell_length_c                   15.7588(15)
_cell_angle_alpha                97.475(7)
_cell_angle_beta                 93.349(9)
_cell_angle_gamma                99.322(9)
_cell_volume                     468.143
loop_
_atom_site_label
_atom_site_type_symbol
_atom_site_fract_x
_atom_site_fract_y
_atom_site_fract_z
O1 O 0.9588(8) 0.7437(3) 0.49233(17)
H2 H 0.849(11) 0.683(4) 0.453(2)
H3 H 1.056(10) 0.697(4) 0.529(2)
O2 O 1.1762(7) 0.9645(3) 0.20584(14)
O3 O 0.2625(7) 0.9962(3) 0.40672(14)
Na1 Na 0.7127(3) 0.96956(13) 0.30453(7)
H1 H 0.941(9) 1.525(4) 0.0860(19)
H4 H 1.157(11) 0.893(4) 0.175(2)
H5 H 1.271(10) 1.041(4) 0.179(2)
H6 H 0.195(11) 0.931(4) 0.435(2)
H7 H 0.242(10) 1.078(4) 0.435(2)
C1 C 0.6549(8) 1.1977(3) 0.04319(17)
C2 C 0.6946(8) 1.3674(3) 0.15183(17)
C3 C 0.6800(8) 1.4517(3) 0.23747(17)
N1 N 0.8534(8) 1.4334(3) 0.08710(15)
N2 N 0.8302(7) 1.3265(2) 0.01535(14)
N3 N 0.5596(6) 1.2162(2) 0.12583(14)
N4 N 0.5847(7) 1.0581(2) -0.01597(14)
N5 N 0.6122(7) 1.6051(3) 0.24707(15)
N6 N 0.7441(7) 1.3764(3) 0.30940(15)
O4 O 0.6075(7) 1.6855(2) 0.31824(13)
O5 O 0.5556(6) 1.6632(2) 0.17893(13)
O6 O 0.6841(7) 1.4338(2) 0.38245(12)
O7 O 0.8651(6) 1.2495(2) 0.29632(12)
O2_2 O 0.1762(7) 0.9645(3) 0.20584(14)
O2_3 O -0.8238(7) 0.9645(3) 0.20584(14)
O3_2 O 1.2625(7) 0.9962(3) 0.40672(14)
O3_3 O -0.7375(7) 0.9962(3) 0.40672(14)
Na1_2 Na -0.2873(3) 0.96956(13) 0.30453(7)
Na1_3 Na 1.7127(3) 0.96956(13) 0.30453(7)
Na1_4 Na 0.7127(3) 1.96956(13) 0.30453(7)
Na1A Na 0.2873(3) 0.03044(13) -0.30453(7)
Na1A_2 Na 0.2873(3) 1.03044(13) -0.30453(7)
H1A H 0.059(9) 0.475(4) -0.0860(19)
H4_2 H 0.157(11) 0.893(4) 0.175(2)
H4_3 H -0.843(11) 0.893(4) 0.175(2)
H5_2 H 0.271(10) 1.041(4) 0.179(2)
H5_3 H -0.729(10) 1.041(4) 0.179(2)
H6_2 H 1.195(11) 0.931(4) 0.435(2)
H6_3 H -0.805(11) 0.931(4) 0.435(2)
H7_2 H 1.242(10) 1.078(4) 0.435(2)
H7_3 H -0.758(10) 1.078(4) 0.435(2)
C1A C 0.3451(8) 0.8023(3) -0.04319(17)
C2A C 0.3054(8) 0.6326(3) -0.15183(17)
C3A C 0.3200(8) 0.5483(3) -0.23747(17)
N1A N 0.1466(8) 0.5666(3) -0.08710(15)
N2A N 0.1698(7) 0.6735(2) -0.01535(14)
N3A N 0.4404(6) 0.7838(2) -0.12583(14)
N4A N 0.4153(7) 0.9419(2) 0.01597(14)
N5A N 0.3878(7) 0.3949(3) -0.24707(15)
N6A N 0.2559(7) 0.6236(3) -0.30940(15)
O4A O 0.3925(7) 0.3145(2) -0.31824(13)
O4_2 O 0.6075(7) 0.6855(2) 0.31824(13)
O4_3 O -0.3925(7) 0.6855(2) 0.31824(13)
O5A O 0.4444(6) 0.3368(2) -0.17893(13)
O6A O 0.3159(7) 0.5662(2) -0.38245(12)
O7A O 0.1349(6) 0.7505(2) -0.29632(12)
O7_2 O -0.1349(6) 1.2495(2) 0.29632(12)
loop_
_geom_bond_atom_site_label_1
_geom_bond_atom_site_label_2
_geom_bond_site_symmetry_1
_geom_bond_site_symmetry_2
O1 H2 1_555 1_555
O2 Na1 1_555 1_555
O3 Na1 1_555 1_555
Na1 O7 1_555 1_555
H1 N1 1_555 1_555
H3 O1 1_555 1_555
H4 O2 1_555 1_555
H5 O2 1_555 1_555
H6 O3 1_555 1_555
H7 O3 1_555 1_555
C1 N2 1_555 1_555
C2 C3 1_555 1_555
C3 N5 1_555 1_555
N1 C2 1_555 1_555
N2 N1 1_555 1_555
N3 C1 1_555 1_555
N4 C1 1_555 1_555
N5 O4 1_555 1_555
N6 C3 1_555 1_555
O4 Na1_4 1_555 1_555
O5 N5 1_555 1_555
O6 N6 1_555 1_555
O7 N6 1_555 1_555
O2_2 Na1 1_555 1_555
O2_3 Na1_2 1_555 1_555
O3_2 Na1 1_555 1_555
O3_3 Na1_2 1_555 1_555
Na1_2 O3 1_555 1_555
Na1_3 O2 1_555 1_555
Na1A O4A 1_555 1_555
Na1A_2 O7A 1_555 1_555
H1A N1A 1_555 1_555
H4_2 O2_2 1_555 1_555
H4_3 O2_3 1_555 1_555
H5_2 O2_2 1_555 1_555
H5_3 O2_3 1_555 1_555
H6_2 O3_2 1_555 1_555
H6_3 O3_3 1_555 1_555
H7_2 O3_2 1_555 1_555
H7_3 O3_3 1_555 1_555
C1A N2A 1_555 1_555
C2A C3A 1_555 1_555
C3A N5A 1_555 1_555
N1A C2A 1_555 1_555
N2A N1A 1_555 1_555
N3A C1A 1_555 1_555
N4A N4 1_555 1_555
N5A O4A 1_555 1_555
N6A C3A 1_555 1_555
O4_2 Na1 1_555 1_555
O4_3 Na1_2 1_555 1_555
O5A N5A 1_555 1_555
O6A N6A 1_555 1_555
O7A N6A 1_555 1_555
O7_2 Na1_2 1_555 1_555
C2 N3 1_555 1_555
O2_2 Na1_2 1_555 1_555
O3_2 Na1_3 1_555 1_555
C1A N4A 1_555 1_555
C2A N3A 1_555 1_555

#END
