
#######################################################################
#
#                 Cambridge Crystallographic Data Centre
#                                CCDC 
#
#######################################################################
#
# If this CIF has been generated from an entry in the Cambridge 
# Structural Database, then it will include bibliographic, chemical, 
# crystal, experimental, refinement or atomic coordinate data resulting 
# from the CCDC's data processing and validation procedures.
#
#######################################################################

data_HAFPOV
_symmetry_cell_setting           triclinic
_symmetry_space_group_name_H-M   'P -1'
_symmetry_Int_Tables_number      2
_space_group_name_Hall           '-P 1'
loop_
_symmetry_equiv_pos_site_id
_symmetry_equiv_pos_as_xyz
1 x,y,z
2 -x,-y,-z
_cell_length_a                   10.3153(4)
_cell_length_b                   10.6157(4)
_cell_length_c                   12.7652(6)
_cell_angle_alpha                94.468(4)
_cell_angle_beta                 92.645(3)
_cell_angle_gamma                103.338(3)
_cell_volume                     1353.04
loop_
_atom_site_label
_atom_site_type_symbol
_atom_site_fract_x
_atom_site_fract_y
_atom_site_fract_z
Cu1 Cu -0.35643(6) 0.67806(6) 0.25090(5)
N1 N -0.4707(4) 0.7533(3) 0.3492(3)
C1 C -0.5515(5) 0.8151(4) 0.2968(4)
C2 C -0.4755(5) 0.7516(4) 0.4521(4)
H1 H -0.4196 0.7076 0.4886
C3 C -0.5603(5) 0.8125(5) 0.5093(5)
H2 H -0.5614 0.8096 0.5834
C4 C -0.6413(5) 0.8759(5) 0.4578(5)
H3 H -0.6988 0.9180 0.4959
C5 C -0.6393(5) 0.8788(5) 0.3479(5)
C6 C -0.7186(6) 0.9440(6) 0.2863(6)
H4 H -0.7774 0.9887 0.3201
C7 C -0.7109(6) 0.9428(6) 0.1814(6)
H5 H -0.7642 0.9872 0.1424
C8 C -0.6248(5) 0.8767(5) 0.1273(5)
C9 C -0.6118(6) 0.8698(6) 0.0180(5)
H6 H -0.6653 0.9093 -0.0255
C10 C -0.5247(6) 0.8082(6) -0.0259(5)
H7 H -0.5153 0.8058 -0.0997
C11 C -0.4475(6) 0.7474(5) 0.0385(4)
H8 H -0.3867 0.7032 0.0072
N2 N -0.4578(4) 0.7504(4) 0.1422(3)
C12 C -0.5443(5) 0.8141(5) 0.1866(4)
N3 N -0.2344(4) 0.6201(4) 0.1475(3)
C13 C -0.1096(6) 0.6883(6) 0.1421(6)
H9 H -0.0838 0.7724 0.1789
C14 C -0.0171(6) 0.6440(5) 0.0869(6)
H10 H 0.0709 0.6967 0.0873
C15 C -0.0489(5) 0.5252(5) 0.0307(4)
C16 C -0.1747(6) 0.4546(7) 0.0368(6)
H11 H -0.2020 0.3698 0.0014
C17 C -0.2630(6) 0.5049(7) 0.0940(6)
H12 H -0.3513 0.4530 0.0950
N4 N -0.2478(4) 0.6141(4) 0.3610(3)
C18 C -0.1466(7) 0.6930(5) 0.4148(5)
H13 H -0.1407 0.7838 0.4162
C19 C -0.0482(7) 0.6527(5) 0.4696(5)
H14 H 0.0234 0.7153 0.5065
C20 C -0.0524(4) 0.5238(4) 0.4716(4)
C21 C -0.1591(5) 0.4402(5) 0.4149(6)
H15 H -0.1674 0.3490 0.4128
C22 C -0.2535(5) 0.4874(5) 0.3615(5)
H16 H -0.3260 0.4272 0.3233
S1 S -0.20029(12) 1.04008(11) 0.26743(10)
F1 F 0.0341(4) 1.0687(6) 0.1936(5)
F2 F -0.0777(4) 1.2043(5) 0.1433(4)
F3 F -0.1292(5) 1.0053(6) 0.0765(3)
O1 O -0.2047(3) 0.9045(3) 0.2732(3)
O2 O -0.1333(5) 1.1204(4) 0.3578(3)
O3 O -0.3208(3) 1.0694(3) 0.2273(3)
C23 C -0.0864(5) 1.0820(7) 0.1642(6)
O4 O -0.5227(3) 0.4783(3) 0.2142(3)
S2 S -0.6089(3) 0.4048(3) 0.2807(2)
F4 F -0.8628(12) 0.3481(14) 0.2958(12)
F5 F -0.7985(7) 0.3597(8) 0.1351(5)
F6 F -0.7875(15) 0.5341(14) 0.2421(11)
O5 O -0.6066(13) 0.2687(8) 0.2683(7)
O6 O -0.5977(8) 0.4635(6) 0.3897(5)
C24 C -0.7760(11) 0.4156(13) 0.2338(8)
Cu1A Cu 0.35643(6) 0.32194(6) -0.25090(5)
Cu1A_2 Cu 0.35643(6) 0.32194(6) 0.74910(5)
N1A N 0.4707(4) 0.2467(3) -0.3492(3)
C1A C 0.5515(5) 0.1849(4) -0.2968(4)
C2A C 0.4755(5) 0.2484(4) -0.4521(4)
H1A H 0.4196 0.2924 -0.4886
C3A C 0.5603(5) 0.1875(5) -0.5093(5)
H2A H 0.5614 0.1904 -0.5834
C4A C 0.6413(5) 0.1241(5) -0.4578(5)
H3A H 0.6988 0.0820 -0.4959
C5A C 0.6393(5) 0.1212(5) -0.3479(5)
C6A C 0.7186(6) 0.0560(6) -0.2863(6)
H4A H 0.7774 0.0113 -0.3201
C7A C 0.7109(6) 0.0572(6) -0.1814(6)
H5A H 0.7642 0.0128 -0.1424
C8A C 0.6248(5) 0.1233(5) -0.1273(5)
C9A C 0.6118(6) 0.1302(6) -0.0180(5)
H6A H 0.6653 0.0907 0.0255
C10A C 0.5247(6) 0.1918(6) 0.0259(5)
H7A H 0.5153 0.1942 0.0997
C11A C 0.4475(6) 0.2526(5) -0.0385(4)
H8A H 0.3867 0.2968 -0.0072
N2A N 0.4578(4) 0.2496(4) -0.1422(3)
C12A C 0.5443(5) 0.1859(5) -0.1866(4)
N3A N 0.2344(4) 0.3799(4) -0.1475(3)
C13A C 0.1096(6) 0.3117(6) -0.1421(6)
H9A H 0.0838 0.2276 -0.1789
C14A C 0.0171(6) 0.3560(5) -0.0869(6)
H10A H -0.0709 0.3033 -0.0873
C15A C 0.0489(5) 0.4748(5) -0.0307(4)
C16A C 0.1747(6) 0.5454(7) -0.0368(6)
H11A H 0.2020 0.6302 -0.0014
C17A C 0.2630(6) 0.4951(7) -0.0940(6)
H12A H 0.3513 0.5470 -0.0950
N4A N 0.2478(4) 0.3859(4) 0.6390(3)
N4A_2 N 0.2478(4) 0.3859(4) -0.3610(3)
C18A C 0.1466(7) 0.3070(5) 0.5852(5)
H13A H 0.1407 0.2162 0.5838
C19A C 0.0482(7) 0.3473(5) 0.5304(5)
H14A H -0.0234 0.2847 0.4935
C20A C 0.0524(4) 0.4762(4) 0.5284(4)
C21A C 0.1591(5) 0.5598(5) 0.5851(6)
H15A H 0.1674 0.6510 0.5872
C22A C 0.2535(5) 0.5126(5) 0.6385(5)
H16A H 0.3260 0.5728 0.6767
S1A S 0.20029(12) -0.04008(11) -0.26743(10)
F1A F -0.0341(4) -0.0687(6) -0.1936(5)
F2A F 0.0777(4) -0.2043(5) -0.1433(4)
F3A F 0.1292(5) -0.0053(6) -0.0765(3)
O1A O 0.2047(3) 0.0955(3) -0.2732(3)
O2A O 0.1333(5) -0.1204(4) -0.3578(3)
O3A O 0.3208(3) -0.0694(3) -0.2273(3)
C23A C 0.0864(5) -0.0820(7) -0.1642(6)
O4A O 0.5227(3) 0.5217(3) -0.2142(3)
S2A S 0.6089(3) 0.5952(3) -0.2807(2)
F4A F 0.8628(12) 0.6519(14) -0.2958(12)
F5A F 0.7985(7) 0.6403(8) -0.1351(5)
F6A F 0.7875(15) 0.4659(14) -0.2421(11)
O5A O 0.6066(13) 0.7313(8) -0.2683(7)
O6A O 0.5977(8) 0.5365(6) -0.3897(5)
C24A C 0.7760(11) 0.5844(13) -0.2338(8)
O7 O 0.0588(8) 0.0039(8) 0.4698(6)
C25? C 0.7205(17) 0.6090(16) 0.6749(12)
C26? C 0.7556(13) 0.5313(13) 0.7212(10)
F7? F 0.671(3) 0.7047(19) 0.6519(17)
F8? F 0.8485(18) 0.645(3) 0.675(2)
F9? F 0.7638(18) 0.4437(13) 0.7888(14)
F10? F 0.7205(10) 0.4602(10) 0.6301(8)
F11? F 0.8774(13) 0.6008(13) 0.7169(15)
F12? F 0.679(3) 0.515(2) 0.6016(12)
O8? O 0.710(3) 0.672(2) 0.8640(13)
O9? O 0.6143(19) 0.7044(13) 0.6810(9)
O10? O 0.7010(9) 0.7071(11) 0.8552(6)
O11? O 0.741(2) 0.463(2) 0.8143(18)
S3? S 0.6375 0.6284 0.7645
S4? S 0.6622(13) 0.5579(17) 0.7948(12)
loop_
_geom_bond_atom_site_label_1
_geom_bond_atom_site_label_2
_geom_bond_site_symmetry_1
_geom_bond_site_symmetry_2
Cu1 N1 1_555 1_555
N1 C1 1_555 1_555
C1 C5 1_555 1_555
C2 N1 1_555 1_555
H1 C2 1_555 1_555
C3 C2 1_555 1_555
H2 C3 1_555 1_555
C4 C3 1_555 1_555
H3 C4 1_555 1_555
C5 C4 1_555 1_555
C6 C5 1_555 1_555
H4 C6 1_555 1_555
C7 C6 1_555 1_555
H5 C7 1_555 1_555
C8 C7 1_555 1_555
C9 C8 1_555 1_555
H6 C9 1_555 1_555
C10 C9 1_555 1_555
H7 C10 1_555 1_555
C11 C10 1_555 1_555
H8 C11 1_555 1_555
N2 Cu1 1_555 1_555
C12 C1 1_555 1_555
N3 Cu1 1_555 1_555
C13 N3 1_555 1_555
H9 C13 1_555 1_555
C14 C13 1_555 1_555
H10 C14 1_555 1_555
C15 C14 1_555 1_555
C16 C15 1_555 1_555
H11 C16 1_555 1_555
C17 N3 1_555 1_555
H12 C17 1_555 1_555
N4 Cu1 1_555 1_555
C18 N4 1_555 1_555
H13 C18 1_555 1_555
C19 C18 1_555 1_555
H14 C19 1_555 1_555
C20 C19 1_555 1_555
C21 C20 1_555 1_555
H15 C21 1_555 1_555
C22 N4 1_555 1_555
H16 C22 1_555 1_555
S1 O1 1_555 1_555
F1 C23 1_555 1_555
F2 C23 1_555 1_555
F3 C23 1_555 1_555
O1 Cu1 1_555 1_555
O2 S1 1_555 1_555
O3 S1 1_555 1_555
C23 S1 1_555 1_555
O4 Cu1 1_555 1_555
S2 O4 1_555 1_555
F4 C24 1_555 1_555
F5 C24 1_555 1_555
F6 C24 1_555 1_555
O5 S2 1_555 1_555
O6 S2 1_555 1_555
C24 S2 1_555 1_555
Cu1A N1A 1_555 1_555
Cu1A_2 N4A 1_555 1_555
N1A C1A 1_555 1_555
C1A C5A 1_555 1_555
C2A N1A 1_555 1_555
H1A C2A 1_555 1_555
C3A C2A 1_555 1_555
H2A C3A 1_555 1_555
C4A C3A 1_555 1_555
H3A C4A 1_555 1_555
C5A C4A 1_555 1_555
C6A C5A 1_555 1_555
H4A C6A 1_555 1_555
C7A C6A 1_555 1_555
H5A C7A 1_555 1_555
C8A C7A 1_555 1_555
C9A C8A 1_555 1_555
H6A C9A 1_555 1_555
C10A C9A 1_555 1_555
H7A C10A 1_555 1_555
C11A C10A 1_555 1_555
H8A C11A 1_555 1_555
N2A Cu1A 1_555 1_555
C12A C1A 1_555 1_555
N3A Cu1A 1_555 1_555
C13A N3A 1_555 1_555
H9A C13A 1_555 1_555
C14A C13A 1_555 1_555
H10A C14A 1_555 1_555
C15A C15 1_555 1_555
C16A C15A 1_555 1_555
H11A C16A 1_555 1_555
C17A N3A 1_555 1_555
H12A C17A 1_555 1_555
N4A C18A 1_555 1_555
N4A_2 Cu1A 1_555 1_555
C18A H13A 1_555 1_555
C19A C18A 1_555 1_555
H14A C19A 1_555 1_555
C20A C20 1_555 1_555
C21A C20A 1_555 1_555
H15A C21A 1_555 1_555
C22A N4A 1_555 1_555
H16A C22A 1_555 1_555
S1A O1A 1_555 1_555
F1A C23A 1_555 1_555
F2A C23A 1_555 1_555
F3A C23A 1_555 1_555
O1A Cu1A 1_555 1_555
O2A S1A 1_555 1_555
O3A S1A 1_555 1_555
C23A S1A 1_555 1_555
O4A Cu1A 1_555 1_555
S2A O4A 1_555 1_555
F4A C24A 1_555 1_555
F5A C24A 1_555 1_555
F6A C24A 1_555 1_555
O5A S2A 1_555 1_555
O6A S2A 1_555 1_555
C24A S2A 1_555 1_555
C8 C12 1_555 1_555
C11 N2 1_555 1_555
N2 C12 1_555 1_555
C16 C17 1_555 1_555
C21 C22 1_555 1_555
C8A C12A 1_555 1_555
C11A N2A 1_555 1_555
N2A C12A 1_555 1_555
C14A C15A 1_555 1_555
C16A C17A 1_555 1_555
C19A C20A 1_555 1_555
C21A C22A 1_555 1_555

#END
