
#######################################################################
#
#                 Cambridge Crystallographic Data Centre
#                                CCDC 
#
#######################################################################
#
# If this CIF has been generated from an entry in the Cambridge 
# Structural Database, then it will include bibliographic, chemical, 
# crystal, experimental, refinement or atomic coordinate data resulting 
# from the CCDC's data processing and validation procedures.
#
#######################################################################

data_HAFPUB
_symmetry_cell_setting           triclinic
_symmetry_space_group_name_H-M   'P -1'
_symmetry_Int_Tables_number      2
_space_group_name_Hall           '-P 1'
loop_
_symmetry_equiv_pos_site_id
_symmetry_equiv_pos_as_xyz
1 x,y,z
2 -x,-y,-z
_cell_length_a                   7.445(5)
_cell_length_b                   10.617(7)
_cell_length_c                   11.720(8)
_cell_angle_alpha                101.816(8)
_cell_angle_beta                 100.422(7)
_cell_angle_gamma                97.006(8)
_cell_volume                     879.55
loop_
_atom_site_label
_atom_site_type_symbol
_atom_site_fract_x
_atom_site_fract_y
_atom_site_fract_z
Ag1 Ag 1.28958(15) 0.74788(11) 0.71133(10)
La1 La 0.25561(8) 0.46838(6) 0.06903(5)
N1 N 1.0389(14) 0.6754(10) 0.5716(9)
N2 N 1.4915(14) 0.9193(10) 0.8132(10)
O1 O 0.4949(10) 0.4248(8) 0.2530(7)
O2 O 0.4700(11) 0.6299(8) 0.2538(7)
O3 O 0.8071(10) 0.5649(8) 0.1548(6)
O4 O 1.0899(11) 0.5300(8) 0.2302(7)
O5 O 1.5422(9) 1.3694(7) 0.9986(6)
O6 O 1.2869(11) 1.2318(8) 0.9841(9)
O7 O 1.9614(14) 1.2451(9) 1.1162(8)
O8 O 1.9189(10) 1.3544(8) 0.9749(7)
C1 C 0.5505(14) 0.5455(12) 0.2891(9)
C2 C 0.7249(15) 0.5940(10) 0.3869(9)
C3 C 0.7084(16) 0.6252(12) 0.5049(9)
H7 H 0.5922 0.6172 0.5240
C4 C 0.8689(16) 0.6690(12) 0.5952(10)
H8 H 0.8569 0.6944 0.6739
C5 C 1.0535(15) 0.6423(11) 0.4580(9)
H9 H 1.1711 0.6481 0.4410
C6 C 0.9007(14) 0.5996(11) 0.3640(9)
C7 C 0.9327(14) 0.5605(10) 0.2370(9)
C8 C 1.4517(15) 1.2549(11) 0.9723(11)
C9 C 1.5435(15) 1.1416(11) 0.9236(11)
C10 C 1.4301(16) 1.0266(11) 0.8585(12)
H10 H 1.3027 1.0246 0.8459
C11 C 1.6804(17) 0.9252(13) 0.8289(12)
H11 H 1.7272 0.8528 0.7945
C12 C 1.8015(17) 1.0352(12) 0.8938(11)
H12 H 1.9283 1.0352 0.9044
C13 C 1.7360(15) 1.1469(11) 0.9440(10)
C14 C 1.8799(14) 1.2579(11) 1.0198(10)
Ag1A Ag 0.71042(15) 0.25212(11) 0.28867(10)
La1A La 0.74439(8) 0.53162(6) -0.06903(5)
La1_2 La 1.25561(8) 0.46838(6) 0.06903(5)
La1_3 La 1.25561(8) 1.46838(6) 1.06903(5)
La1A_2 La 1.74439(8) 1.53162(6) 0.93097(5)
La1_4 La 2.25561(8) 1.46838(6) 1.06903(5)
O1A O 1.5051(10) 0.5752(8) 0.7470(7)
O3A O 0.1929(10) 0.4351(8) -0.1548(6)
O4_2 O 0.0899(11) 0.5300(8) 0.2302(7)
O5_2 O 0.5422(9) 0.3694(7) -0.0014(6)
O5A O 0.4578(9) 0.6306(7) 0.0014(6)
O6_2 O 0.2869(11) 0.2318(8) -0.0159(9)
O8_2 O -0.0811(10) 0.3544(8) -0.0251(7)
O8A O 0.0811(10) 0.6456(8) 0.0251(7)
O9 O 0.063(4) 0.096(2) 0.6965(19)
H1 H 0.1286 0.0752 0.6455
H2 H -0.0525 0.0750 0.6660
O10 O 0.419(4) 0.841(3) 0.428(3)
H3 H 0.3928 0.8120 0.3529
H4 H 0.4067 0.7779 0.4622
O11 O 0.236(5) 0.010(3) 0.494(3)
H5 H 0.3026 -0.0474 0.5067
H6 H 0.3023 0.0737 0.4802
loop_
_geom_bond_atom_site_label_1
_geom_bond_atom_site_label_2
_geom_bond_site_symmetry_1
_geom_bond_site_symmetry_2
Ag1 N1 1_555 1_555
La1 O1 1_555 1_555
N1 C4 1_555 1_555
N2 Ag1 1_555 1_555
O1 C1 1_555 1_555
O2 La1 1_555 1_555
O3 C7 1_555 1_555
O4 C7 1_555 1_555
O5 C8 1_555 1_555
O6 C8 1_555 1_555
O7 C14 1_555 1_555
O8 C14 1_555 1_555
O9 H1 1_555 1_555
H2 O9 1_555 1_555
O10 H3 1_555 1_555
H4 O10 1_555 1_555
O11 H5 1_555 1_555
H6 O11 1_555 1_555
C1 O2 1_555 1_555
C2 C1 1_555 1_555
C3 C2 1_555 1_555
H7 C3 1_555 1_555
C4 C3 1_555 1_555
H8 C4 1_555 1_555
C5 N1 1_555 1_555
H9 C5 1_555 1_555
C6 C2 1_555 1_555
C7 C6 1_555 1_555
C8 C9 1_555 1_555
C9 C10 1_555 1_555
C10 N2 1_555 1_555
H10 C10 1_555 1_555
C11 N2 1_555 1_555
H11 C11 1_555 1_555
C12 C11 1_555 1_555
H12 C12 1_555 1_555
C13 C9 1_555 1_555
C14 C13 1_555 1_555
Ag1A O1 1_555 1_555
La1A O3 1_555 1_555
La1_2 O4 1_555 1_555
La1_3 O5 1_555 1_555
La1A_2 O5 1_555 1_555
La1_4 O8 1_555 1_555
O1A Ag1 1_555 1_555
O3A La1 1_555 1_555
O4_2 La1 1_555 1_555
O5_2 La1 1_555 1_555
O5A La1 1_555 1_555
O6_2 La1 1_555 1_555
O8_2 La1 1_555 1_555
O8A La1 1_555 1_555
O6 La1_3 1_555 1_555
O8 La1A_2 1_555 1_555
C5 C6 1_555 1_555
C12 C13 1_555 1_555
La1A O5_2 1_555 1_555
La1A O5A 1_555 1_555

#END
