
#######################################################################
#
#                 Cambridge Crystallographic Data Centre
#                                CCDC 
#
#######################################################################
#
# If this CIF has been generated from an entry in the Cambridge 
# Structural Database, then it will include bibliographic, chemical, 
# crystal, experimental, refinement or atomic coordinate data resulting 
# from the CCDC's data processing and validation procedures.
#
#######################################################################

data_HAFQAG
_symmetry_cell_setting           monoclinic
_symmetry_space_group_name_H-M   'P 21/c'
_symmetry_Int_Tables_number      14
_space_group_name_Hall           '-P 2ybc'
loop_
_symmetry_equiv_pos_site_id
_symmetry_equiv_pos_as_xyz
1 x,y,z
2 -x,1/2+y,1/2-z
3 -x,-y,-z
4 x,1/2-y,1/2+z
_cell_length_a                   17.221(2)
_cell_length_b                   8.499(3)
_cell_length_c                   23.537(2)
_cell_angle_alpha                90
_cell_angle_beta                 105.90(1)
_cell_angle_gamma                90
_cell_volume                     3313.11
loop_
_atom_site_label
_atom_site_type_symbol
_atom_site_fract_x
_atom_site_fract_y
_atom_site_fract_z
N1 N 0.3785(4) 0.1448(9) 0.4644(3)
C1 C 0.3138(4) 0.1822(8) 0.4449(3)
N2 N 0.1514(4) 0.5405(7) 0.3115(3)
C2 C 0.1634(4) 0.4419(8) 0.3450(3)
N3 N 0.1382(4) -0.0727(7) 0.3046(3)
C3 C 0.1507(4) 0.0230(8) 0.3388(3)
N4 N 0.0557(4) 0.5972(7) 0.6593(3)
C4 C 0.0373(4) 0.4988(7) 0.6253(3)
N5 N 0.0694(4) -0.0185(7) 0.6683(2)
C5 C 0.0526(4) 0.0766(8) 0.6346(3)
N6 N 0.5514(4) 0.1285(9) 0.4287(3)
C6 C 0.5682(5) 0.1920(9) 0.3921(3)
N7 N 0.5171(4) 0.1111(7) 0.2470(3)
C7 C 0.5209(4) 0.5093(9) 0.2763(3)
N8 N 0.7634(4) 0.2381(8) 0.2807(3)
C8 C 0.7043(4) 0.2552(8) 0.2929(3)
C9 C 0.1132(4) 0.2436(8) 0.4673(3)
N9 N 0.0778(4) 0.2607(8) 0.5021(3)
N10 N -0.1080(4) 0.2292(7) 0.5192(2)
C10 C -0.1241(6) 0.164(1) 0.4649(4)
C11 C -0.2029(7) 0.118(1) 0.4474(5)
N11 N -0.2355(6) 0.148(1) 0.4934(5)
C12 C -0.1761(6) 0.220(1) 0.5368(4)
N12 N 0.5597(4) 0.1925(8) 0.5637(3)
C13 C 0.6098(8) 0.184(2) 0.6177(4)
C14 C 0.6384(8) 0.322(1) 0.6406(4)
N13 N 0.604(1) 0.435(2) 0.5982(7)
C15 C 0.559(1) 0.348(1) 0.5494(6)
O1 O -0.0166(3) 0.7200(6) 0.2551(2)
Cd1 Cd 0.18322(3) 0.22533(5) 0.40145(2)
Cd2 Cd 0.01689(3) 0.28192(5) 0.57299(2)
Cd3 Cd 0.58755(3) 0.29581(6) 0.31125(2)
Cd4 Cd 0.50000 0.00000 0.50000
Cd5 Cd 0.11110(3) 0.72373(5) 0.23502(2)
Cd5_2 Cd 0.11110(3) -0.27627(5) 0.23502(2)
Cd5C Cd 0.11110(3) 0.77627(5) 0.73502(2)
Cd5C_2 Cd 0.11110(3) -0.22373(5) 0.73502(2)
C7A C 0.4791(4) 0.0093(9) 0.2237(3)
N7A N 0.4829(4) 0.6111(7) 0.2530(3)
Cd5A Cd 0.88890(3) 0.22373(5) 0.26498(2)
N1B N 0.6215(4) -0.1448(9) 0.5356(3)
N6B N 0.4486(4) -0.1285(9) 0.5713(3)
N12B N 0.4403(4) -0.1925(8) 0.4363(3)
N3_2 N 0.1382(4) 0.9273(7) 0.3046(3)
N4C N 0.0557(4) 0.9028(7) 0.1593(3)
N5C N 0.0694(4) 0.5185(7) 0.1683(2)
N8A N 0.2366(4) 0.7381(8) 0.2193(3)
Cd3A Cd 0.41245(3) 0.79581(6) 0.18875(2)
C6B C 0.4318(5) -0.1920(9) 0.6079(3)
Cd3B Cd 0.41245(3) -0.29581(6) 0.68875(2)
N7B N 0.4829(4) -0.1111(7) 0.7530(3)
C7B C 0.4791(4) -0.5093(9) 0.7237(3)
C8B C 0.2957(4) -0.2552(8) 0.7071(3)
N2_2 N 0.1514(4) -0.4595(7) 0.3115(3)
N4C_2 N 0.0557(4) -0.0972(7) 0.1593(3)
N5C_2 N 0.0694(4) -0.4815(7) 0.1683(2)
N8A_2 N 0.2366(4) -0.2619(8) 0.2193(3)
O1_2 O -0.0166(3) -0.2800(6) 0.2551(2)
C4C C 0.0373(4) 0.0012(7) 0.1253(3)
Cd2C Cd 0.01689(3) 0.21808(5) 0.07299(2)
C5C C 0.0526(4) 0.4234(8) 0.1346(3)
N9C N 0.0778(4) 0.2393(8) 0.0021(3)
N10C N -0.1080(4) 0.2708(7) 0.0192(2)
Cd3A_2 Cd 0.41245(3) -0.20419(6) 0.18875(2)
C6A C 0.4318(5) 0.6920(9) 0.1079(3)
C7A_2 C 0.4791(4) 1.0093(9) 0.2237(3)
C8A C 0.2957(4) 0.7552(8) 0.2071(3)
C10C C -0.1241(6) 0.336(1) -0.0351(4)
C12C C -0.1761(6) 0.280(1) 0.0368(4)
C9C C 0.1132(4) 0.2564(8) -0.0327(3)
N11C N -0.2355(6) 0.352(1) -0.0066(5)
C11C C -0.2029(7) 0.382(1) -0.0526(5)
Cd1C Cd 0.18322(3) 0.27467(5) -0.09855(2)
C1B C 0.6862(4) -0.1822(8) 0.5551(3)
Cd1B Cd 0.81678(3) -0.22533(5) 0.59855(2)
N7C N 0.5171(4) -0.6111(7) 0.7470(3)
Cd3C Cd 0.58755(3) -0.79581(6) 0.81125(2)
N8B N 0.2366(4) -0.2381(8) 0.7193(3)
C13B C 0.3902(8) -0.184(2) 0.3823(4)
C15B C 0.441(1) -0.348(1) 0.4506(6)
C14B C 0.3616(8) -0.322(1) 0.3594(4)
N13B N 0.396(1) -0.435(2) 0.4018(7)
C16 C 0.2843(6) 0.262(1) 0.6751(4)
C17 C 0.2417(6) 0.386(1) 0.6483(5)
C18 C 0.2571(9) 0.450(1) 0.5985(6)
C19 C 0.3141(9) 0.381(2) 0.5731(4)
C20 C 0.3564(7) 0.250(1) 0.6004(4)
C21 C 0.3407(6) 0.190(1) 0.6523(4)
C22 C 0.271(1) 0.197(2) 0.7324(5)
C23 C 0.3238(8) 0.280(2) 0.7875(4)
loop_
_geom_bond_atom_site_label_1
_geom_bond_atom_site_label_2
_geom_bond_site_symmetry_1
_geom_bond_site_symmetry_2
N1 C1 1_555 1_555
C1 Cd1 1_555 1_555
N2 C2 1_555 1_555
C2 Cd1 1_555 1_555
N3 C3 1_555 1_555
C3 Cd1 1_555 1_555
N4 C4 1_555 1_555
C4 Cd2 1_555 1_555
N5 C5 1_555 1_555
C5 Cd2 1_555 1_555
N6 C6 1_555 1_555
C6 Cd3 1_555 1_555
N7 Cd3 1_555 1_555
C7 Cd3 1_555 1_555
N8 C8 1_555 1_555
C8 Cd3 1_555 1_555
C9 N9 1_555 1_555
N9 Cd2 1_555 1_555
N10 C10 1_555 1_555
C10 C11 1_555 1_555
C11 N11 1_555 1_555
N11 C12 1_555 1_555
C12 N10 1_555 1_555
N12 C13 1_555 1_555
C13 C14 1_555 1_555
C14 N13 1_555 1_555
N13 C15 1_555 1_555
C15 N12 1_555 1_555
O1 Cd5 1_555 1_555
C16 C17 1_555 1_555
C17 C18 1_555 1_555
C18 C19 1_555 1_555
C19 C20 1_555 1_555
C20 C21 1_555 1_555
C21 C16 1_555 1_555
C22 C16 1_555 1_555
C23 C22 1_555 1_555
Cd1 C9 1_555 1_555
Cd2 N10 1_555 1_555
Cd4 N1 1_555 1_555
Cd5 N2 1_555 1_555
Cd5_2 N3 1_555 1_555
Cd5C N4 1_555 1_555
Cd5C_2 N5 1_555 1_555
C7A N7 1_555 1_555
N7A C7 1_555 1_555
Cd5A N8 1_555 1_555
N1B Cd4 1_555 1_555
N6B Cd4 1_555 1_555
N12B Cd4 1_555 1_555
N3_2 Cd5 1_555 1_555
N4C Cd5 1_555 1_555
N5C Cd5 1_555 1_555
N8A Cd5 1_555 1_555
Cd3A N7A 1_555 1_555
C6B N6B 1_555 1_555
Cd3B C6B 1_555 1_555
N7B Cd3B 1_555 1_555
C7B Cd3B 1_555 1_555
C8B Cd3B 1_555 1_555
N2_2 Cd5_2 1_555 1_555
N4C_2 Cd5_2 1_555 1_555
N5C_2 Cd5_2 1_555 1_555
N8A_2 Cd5_2 1_555 1_555
O1_2 Cd5_2 1_555 1_555
C4C N4C_2 1_555 1_555
Cd2C C4C 1_555 1_555
C5C N5C 1_555 1_555
N9C Cd2C 1_555 1_555
N10C Cd2C 1_555 1_555
Cd3A_2 C7A 1_555 1_555
C6A Cd3A 1_555 1_555
C7A_2 Cd3A 1_555 1_555
C8A N8A 1_555 1_555
C10C N10C 1_555 1_555
C12C N10C 1_555 1_555
C9C N9C 1_555 1_555
N11C C12C 1_555 1_555
C11C C10C 1_555 1_555
Cd1C C9C 1_555 1_555
C1B N1B 1_555 1_555
Cd1B C1B 1_555 1_555
N7C C7B 1_555 1_555
Cd3C N7C 1_555 1_555
N8B Cd5C_2 1_555 1_555
C13B N12B 1_555 1_555
C15B N12B 1_555 1_555
C14B C13B 1_555 1_555
N13B C15B 1_555 1_555
N6 Cd4 1_555 1_555
N12 Cd4 1_555 1_555
Cd3A C8A 1_555 1_555
C8B N8B 1_555 1_555
Cd2C C5C 1_555 1_555
N11C C11C 1_555 1_555
C14B N13B 1_555 1_555

#END
