
#######################################################################
#
#                 Cambridge Crystallographic Data Centre
#                                CCDC 
#
#######################################################################
#
# If this CIF has been generated from an entry in the Cambridge 
# Structural Database, then it will include bibliographic, chemical, 
# crystal, experimental, refinement or atomic coordinate data resulting 
# from the CCDC's data processing and validation procedures.
#
#######################################################################

data_HAFWUI01
_symmetry_cell_setting           monoclinic
_symmetry_space_group_name_H-M   'C 2/c'
_symmetry_Int_Tables_number      15
_space_group_name_Hall           '-C 2yn'
loop_
_symmetry_equiv_pos_site_id
_symmetry_equiv_pos_as_xyz
1 x,y,z
2 -x,y,1/2-z
3 1/2+x,1/2+y,z
4 1/2-x,1/2+y,1/2-z
5 -x,-y,-z
6 x,-y,1/2+z
7 1/2-x,1/2-y,-z
8 1/2+x,1/2-y,1/2+z
_cell_length_a                   21.5119(5)
_cell_length_b                   11.8062(3)
_cell_length_c                   19.4114(5)
_cell_angle_alpha                90
_cell_angle_beta                 94.591(2)
_cell_angle_gamma                90
_cell_volume                     4914.17
loop_
_atom_site_label
_atom_site_type_symbol
_atom_site_fract_x
_atom_site_fract_y
_atom_site_fract_z
Co1 Co 0.623758(16) 0.99868(3) 1.161689(19)
Na1 Na 0.5000 0.90269(16) 1.2500
O1 O 0.50332(12) 0.7407(3) 1.14684(13)
O2 O 0.58237(9) 0.85175(17) 1.18067(10)
O3 O 0.43722(9) 0.92620(17) 0.90558(11)
O4 O 0.51200(11) 0.9579(2) 0.83609(11)
O5 O 0.69558(9) 0.99524(17) 1.10374(10)
O6 O 0.79341(11) 0.9513(2) 1.09077(17)
O7 O 0.80971(16) 0.4749(2) 1.24483(13)
O8 O 0.84963(11) 0.6380(3) 1.27417(14)
C1 C 0.62939(13) 0.7922(2) 1.04512(14)
C2 C 0.56775(12) 0.8077(2) 1.06117(14)
C3 C 0.52337(13) 0.8457(2) 1.01010(14)
H1 H 0.4820 0.8532 1.0202
C4 C 0.54003(12) 0.8723(2) 0.94458(14)
C5 C 0.60097(13) 0.8562(3) 0.92909(15)
H2 H 0.6125 0.8731 0.8851
C6 C 0.64511(13) 0.8150(3) 0.97887(15)
H3 H 0.6857 0.8026 0.9675
C7 C 0.67721(13) 0.7432(2) 1.09649(14)
C8 C 0.72946(12) 0.8040(2) 1.12351(14)
C9 C 0.77319(13) 0.7500(3) 1.16924(14)
H4 H 0.8076 0.7903 1.1881
C10 C 0.76636(14) 0.6375(3) 1.18703(15)
C11 C 0.71520(17) 0.5779(3) 1.15970(17)
H5 H 0.7104 0.5021 1.1712
C12 C 0.67108(16) 0.6307(3) 1.11530(18)
H6 H 0.6364 0.5899 1.0976
C13 C 0.54906(14) 0.7965(3) 1.13409(15)
C14 C 0.49351(13) 0.9227(2) 0.89037(15)
C15 C 0.74075(13) 0.9256(3) 1.10471(16)
C16 C 0.81172(16) 0.5792(3) 1.23812(16)
Co1D Co 0.376242(16) 1.00132(3) 0.838311(19)
Co1C Co 0.876242(16) 0.49868(3) 1.338311(19)
Co1G Co 0.123758(16) 1.50132(3) 0.661689(19)
Na1D Na 0.5000 1.09731(16) 0.7500
O1D O 0.49668(12) 1.2593(3) 0.85316(13)
O2D O 0.41763(9) 1.14825(17) 0.81933(10)
O2A O 0.41763(9) 0.85175(17) 1.31933(10)
O3D O 0.56278(9) 1.07380(17) 1.09442(11)
O4D O 0.48800(11) 1.0421(2) 1.16391(11)
O4E O 0.51200(11) 1.0421(2) 1.33609(11)
O5D O 0.30442(9) 1.00476(17) 0.89626(10)
O6D O 0.20659(11) 1.0487(2) 0.90923(17)
O7D O 0.19029(16) 1.5251(2) 0.75517(13)
O7C O 0.69029(16) 0.9749(2) 1.25517(13)
O7G O 0.30971(16) 1.0251(2) 0.74483(13)
O8D O 0.15037(11) 1.3620(3) 0.72583(14)
O8C O 0.65037(11) 1.1380(3) 1.22583(14)
O8G O 0.34963(11) 0.8620(3) 0.77417(14)
C1D C 0.37061(13) 1.2078(2) 0.95488(14)
C2D C 0.43225(12) 1.1923(2) 0.93883(14)
C3D C 0.47663(13) 1.1543(2) 0.98990(14)
H1D H 0.5180 1.1468 0.9798
C4D C 0.45997(12) 1.1277(2) 1.05542(14)
C5D C 0.39903(13) 1.1438(3) 1.07091(15)
H2D H 0.3875 1.1269 1.1149
C6D C 0.35489(13) 1.1850(3) 1.02113(15)
H3D H 0.3143 1.1974 1.0325
C7D C 0.32279(13) 1.2568(2) 0.90351(14)
C8D C 0.27054(12) 1.1960(2) 0.87649(14)
C9D C 0.22681(13) 1.2500(3) 0.83076(14)
H4D H 0.1924 1.2097 0.8119
C10D C 0.23364(14) 1.3625(3) 0.81297(15)
C11D C 0.28480(17) 1.4221(3) 0.84030(17)
H5D H 0.2896 1.4979 0.8288
C12D C 0.32892(16) 1.3693(3) 0.88470(18)
H6D H 0.3636 1.4101 0.9024
C13D C 0.45094(14) 1.2035(3) 0.86591(15)
C14D C 0.50649(13) 1.0773(2) 1.10963(15)
C15D C 0.25925(13) 1.0744(3) 0.89529(16)
C16D C 0.18828(16) 1.4208(3) 0.76188(16)
C17 C 0.32470(16) 0.6923(3) 0.06313(18)
H7 H 0.3130 0.6164 0.0619
C18 C 0.35199(18) 0.8603(3) 0.10029(19)
H8 H 0.3622 0.9207 0.1299
C19 C 0.35080(16) 0.8625(3) 0.03155(18)
H9 H 0.3601 0.9240 0.0043
C20 C 0.3291(3) 0.7146(4) 0.1906(2)
H10 H 0.3171 0.6362 0.1897
H11 H 0.2977 0.7586 0.2107
H12 H 0.3682 0.7232 0.2176
C21 C 0.32732(19) 0.7183(3) -0.06387(19)
H13 H 0.3174 0.7828 -0.0937
H14 H 0.2933 0.6644 -0.0704
C22 C 0.3855(2) 0.6648(4) -0.0837(2)
H15 H 0.3801 0.6413 -0.1312
H16 H 0.3950 0.6000 -0.0549
H17 H 0.4191 0.7183 -0.0780
N1 N 0.33562(14) 0.7540(2) 0.11961(14)
N2 N 0.33310(13) 0.7563(2) 0.00871(14)
C23? C 0.5168(3) 0.3247(5) 0.2794(3)
H18? H 0.5313 0.2609 0.3037
C24? C 0.5000 0.4968(7) 0.2500
H19? H 0.5000 0.5756 0.2500
C25? C 0.5588(4) 0.4733(9) 0.3663(6)
H20? H 0.5961 0.4275 0.3742
H21? H 0.5727 0.5500 0.3584
C26? C 0.5343(9) 0.4753(18) 0.4211(8)
H22? H 0.5629 0.5069 0.4565
H23? H 0.5235 0.3996 0.4338
H24? H 0.4972 0.5209 0.4161
N3? N 0.52686(19) 0.4337(4) 0.2991(3)
loop_
_geom_bond_atom_site_label_1
_geom_bond_atom_site_label_2
_geom_bond_site_symmetry_1
_geom_bond_site_symmetry_2
Co1 O2 1_555 1_555
Na1 O2 1_555 1_555
O1 C13 1_555 1_555
O2 C13 1_555 1_555
O3 C14 1_555 1_555
O4 C14 1_555 1_555
O5 Co1 1_555 1_555
O6 C15 1_555 1_555
O7 C16 1_555 1_555
O8 C16 1_555 1_555
C1 C2 1_555 1_555
C2 C3 1_555 1_555
C3 H1 1_555 1_555
C4 C3 1_555 1_555
C5 C4 1_555 1_555
H2 C5 1_555 1_555
C6 C1 1_555 1_555
H3 C6 1_555 1_555
C7 C1 1_555 1_555
C8 C7 1_555 1_555
C9 C8 1_555 1_555
H4 C9 1_555 1_555
C10 C9 1_555 1_555
C11 C10 1_555 1_555
H5 C11 1_555 1_555
C12 C7 1_555 1_555
H6 C12 1_555 1_555
C13 C2 1_555 1_555
C14 C4 1_555 1_555
C15 O5 1_555 1_555
C16 C10 1_555 1_555
C17 H7 1_555 1_555
C18 H8 1_555 1_555
C19 C18 1_555 1_555
H9 C19 1_555 1_555
C20 H10 1_555 1_555
H11 C20 1_555 1_555
H12 C20 1_555 1_555
C21 H13 1_555 1_555
H14 C21 1_555 1_555
C22 C21 1_555 1_555
H15 C22 1_555 1_555
H16 C22 1_555 1_555
H17 C22 1_555 1_555
N1 C17 1_555 1_555
N2 C17 1_555 1_555
Co1D O3 1_555 1_555
Co1C O7 1_555 1_555
Co1G O7D 1_555 1_555
Na1D O4 1_555 1_555
O1D C13D 1_555 1_555
O2D Co1D 1_555 1_555
O2A Na1 1_555 1_555
O3D Co1 1_555 1_555
O4D Na1 1_555 1_555
O4E Na1 1_555 1_555
O5D Co1D 1_555 1_555
O6D C15D 1_555 1_555
O7D C16D 1_555 1_555
O7C Co1 1_555 1_555
O7G Co1D 1_555 1_555
O8D Co1G 1_555 1_555
O8C Co1 1_555 1_555
O8G Co1D 1_555 1_555
C1D C2D 1_555 1_555
C2D C3D 1_555 1_555
C3D H1D 1_555 1_555
C4D C3D 1_555 1_555
C5D C4D 1_555 1_555
H2D C5D 1_555 1_555
C6D C1D 1_555 1_555
H3D C6D 1_555 1_555
C7D C1D 1_555 1_555
C8D C7D 1_555 1_555
C9D C8D 1_555 1_555
H4D C9D 1_555 1_555
C10D C9D 1_555 1_555
C11D C10D 1_555 1_555
H5D C11D 1_555 1_555
C12D C7D 1_555 1_555
H6D C12D 1_555 1_555
C13D O2D 1_555 1_555
C14D O3D 1_555 1_555
C15D O5D 1_555 1_555
C16D O8D 1_555 1_555
O8 Co1C 1_555 1_555
C5 C6 1_555 1_555
C8 C15 1_555 1_555
C11 C12 1_555 1_555
C18 N1 1_555 1_555
C19 N2 1_555 1_555
C20 N1 1_555 1_555
C21 N2 1_555 1_555
Na1D O2D 1_555 1_555
O4D C14D 1_555 1_555
C2D C13D 1_555 1_555
C4D C14D 1_555 1_555
C5D C6D 1_555 1_555
C8D C15D 1_555 1_555
C10D C16D 1_555 1_555
C11D C12D 1_555 1_555

#END
