
#######################################################################
#
#                 Cambridge Crystallographic Data Centre
#                                CCDC 
#
#######################################################################
#
# If this CIF has been generated from an entry in the Cambridge 
# Structural Database, then it will include bibliographic, chemical, 
# crystal, experimental, refinement or atomic coordinate data resulting 
# from the CCDC's data processing and validation procedures.
#
#######################################################################

data_HAGGON
_symmetry_cell_setting           triclinic
_symmetry_space_group_name_H-M   'P -1'
_symmetry_Int_Tables_number      2
_space_group_name_Hall           '-P 1'
loop_
_symmetry_equiv_pos_site_id
_symmetry_equiv_pos_as_xyz
1 x,y,z
2 -x,-y,-z
_cell_length_a                   12.8189(12)
_cell_length_b                   14.1550(13)
_cell_length_c                   14.1933(14)
_cell_angle_alpha                65.086(1)
_cell_angle_beta                 84.462(2)
_cell_angle_gamma                72.454(2)
_cell_volume                     2225.68
loop_
_atom_site_label
_atom_site_type_symbol
_atom_site_fract_x
_atom_site_fract_y
_atom_site_fract_z
Ag1 Ag 0.389635(19) -0.087377(18) 0.052262(17)
Ag2 Ag 0.97546(2) -0.17371(2) 0.641270(19)
S1 S 0.80267(6) 0.06172(7) 0.42026(6)
P1 P 0.44287(6) -0.26125(6) 0.04617(6)
P2 P 0.98914(6) -0.32268(6) 0.60224(6)
O1 O 0.45211(18) -0.0683(2) 0.20309(19)
O2 O 0.5887(2) -0.07172(18) 0.09600(16)
O3 O 0.90486(16) -0.02588(18) 0.44933(16)
O4 O 0.8211(2) 0.1641(2) 0.3512(2)
O5 O 0.73992(19) 0.0651(2) 0.50964(19)
N1 N 0.2164(2) 0.0072(2) 0.0869(2)
N2 N 0.0867(2) 0.02750(19) 0.32183(18)
H1 H 0.0231 0.0510 0.3430
H2 H 0.1430 -0.0017 0.3636
C1 C 0.5473(2) -0.2746(2) -0.0471(2)
C2 C 0.6247(3) -0.2194(2) -0.0606(2)
H3 H 0.6190 -0.1762 -0.0248
C3 C 0.7092(3) -0.2283(3) -0.1263(3)
H4 H 0.7621 -0.1934 -0.1328
C4 C 0.7162(4) -0.2882(3) -0.1824(3)
H5 H 0.7730 -0.2926 -0.2278
C5 C 0.6401(4) -0.3414(3) -0.1719(3)
H6 H 0.6444 -0.3810 -0.2112
C6 C 0.5570(3) -0.3368(3) -0.1034(3)
H7 H 0.5070 -0.3755 -0.0947
C7 C 0.3343(2) -0.3078(2) 0.0210(2)
C8 C 0.2958(3) -0.2759(3) -0.0794(3)
H8 H 0.3271 -0.2314 -0.1359
C9 C 0.2117(3) -0.3097(3) -0.0961(3)
H9 H 0.1890 -0.2909 -0.1636
C10 C 0.1615(3) -0.3709(3) -0.0134(3)
H10 H 0.1045 -0.3933 -0.0249
C11 C 0.1948(3) -0.3992(3) 0.0855(3)
H11 H 0.1588 -0.4386 0.1415
C12 C 0.2820(3) -0.3695(3) 0.1031(3)
H12 H 0.3058 -0.3912 0.1709
C13 C 0.5051(2) -0.3706(2) 0.1694(2)
C14 C 0.5668(3) -0.4723(3) 0.1780(3)
H13 H 0.5805 -0.4864 0.1190
C15 C 0.6084(3) -0.5534(3) 0.2737(3)
H14 H 0.6500 -0.6219 0.2787
C16 C 0.5887(3) -0.5335(3) 0.3615(3)
H15 H 0.6159 -0.5886 0.4261
C17 C 0.5289(3) -0.4323(3) 0.3536(3)
H16 H 0.5159 -0.4185 0.4128
C18 C 0.4876(3) -0.3506(3) 0.2578(2)
H17 H 0.4479 -0.2817 0.2528
C19 C 1.0462(2) -0.2947(2) 0.4734(2)
C20 C 1.1465(3) -0.2730(3) 0.4573(3)
H18 H 1.1831 -0.2743 0.5116
C21 C 1.1919(3) -0.2495(3) 0.3616(3)
H19 H 1.2602 -0.2371 0.3517
C22 C 1.1375(3) -0.2442(3) 0.2805(3)
H20 H 1.1680 -0.2264 0.2154
C23 C 1.0379(3) -0.2649(3) 0.2949(3)
H21 H 1.0014 -0.2618 0.2397
C24 C 0.9918(3) -0.2906(3) 0.3920(2)
H22 H 0.9244 -0.3049 0.4020
C25 C 1.0754(2) -0.4563(2) 0.6860(2)
C26 C 1.0740(4) -0.4865(4) 0.7924(3)
H23 H 1.0297 -0.4392 0.8195
C27 C 1.1386(5) -0.5872(4) 0.8580(3)
H24 H 1.1374 -0.6076 0.9294
C28 C 1.2044(3) -0.6576(3) 0.8190(4)
H25 H 1.2477 -0.7253 0.8638
C29 C 1.2062(3) -0.6283(3) 0.7155(3)
H26 H 1.2508 -0.6760 0.6888
C30 C 1.1418(3) -0.5277(3) 0.6488(3)
H27 H 1.1437 -0.5083 0.5775
C31 C 0.8571(2) -0.3398(2) 0.5893(2)
C32 C 0.8406(3) -0.4396(3) 0.6149(2)
H28 H 0.8984 -0.5028 0.6427
C33 C 0.7389(3) -0.4459(3) 0.5993(3)
H29 H 0.7279 -0.5135 0.6181
C34 C 0.6536(3) -0.3529(3) 0.5561(3)
H30 H 0.5856 -0.3575 0.5440
C35 C 0.6687(3) -0.2537(3) 0.5311(3)
H31 H 0.6108 -0.1907 0.5020
C36 C 0.7699(3) -0.2465(3) 0.5488(2)
H32 H 0.7794 -0.1790 0.5334
C37 C 0.0987(2) 0.0369(2) 0.2185(2)
C38 C 0.2001(2) 0.0004(2) 0.1832(2)
H33 H 0.2603 -0.0305 0.2291
C39 C 0.1296(3) 0.0524(3) 0.0226(3)
H34 H 0.1396 0.0581 -0.0452
C40 C 0.0258(3) 0.0911(4) 0.0511(3)
H35 H -0.0329 0.1222 0.0036
C41 C 0.0098(3) 0.0833(3) 0.1504(3)
H36 H -0.0599 0.1089 0.1715
C42 C 0.5442(3) -0.0580(2) 0.1731(2)
C43 C 0.6067(2) -0.0265(2) 0.2356(2)
C44 C 0.5533(2) 0.0314(3) 0.2926(2)
H37 H 0.4772 0.0511 0.2939
C45 C 0.6121(2) 0.0604(3) 0.3480(2)
H38 H 0.5755 0.1011 0.3846
C46 C 0.7245(2) 0.0288(2) 0.3485(2)
C47 C 0.7783(2) -0.0301(2) 0.2927(2)
H39 H 0.8544 -0.0522 0.2934
C48 C 0.7192(2) -0.0563(3) 0.2358(2)
H40 H 0.7559 -0.0945 0.1970
Ag1A Ag 0.610365(19) 0.087377(18) -0.052262(17)
Ag2A Ag 1.02454(2) 0.17371(2) 0.358730(19)
Ag2A_2 Ag 0.02454(2) 0.17371(2) 0.358730(19)
O2A O 0.4113(2) 0.07172(18) -0.09600(16)
O4A O 1.1789(2) -0.1641(2) 0.6488(2)
N2A N 0.9133(2) -0.02750(19) 0.67817(18)
H1A H 0.9769 -0.0510 0.6570
H2A H 0.8570 0.0017 0.6364
O6 O 0.5797(2) 0.2027(2) 0.5859(2)
H41 H 0.6280 0.1675 0.5574
H42 H 0.5616 0.1533 0.6401
loop_
_geom_bond_atom_site_label_1
_geom_bond_atom_site_label_2
_geom_bond_site_symmetry_1
_geom_bond_site_symmetry_2
Ag1 P1 1_555 1_555
Ag2 P2 1_555 1_555
S1 O3 1_555 1_555
P1 C1 1_555 1_555
P2 C19 1_555 1_555
O1 Ag1 1_555 1_555
O2 C42 1_555 1_555
O3 Ag2 1_555 1_555
O4 S1 1_555 1_555
O5 S1 1_555 1_555
N1 Ag1 1_555 1_555
N2 H1 1_555 1_555
H2 N2 1_555 1_555
C1 C2 1_555 1_555
C2 H3 1_555 1_555
C3 C2 1_555 1_555
H4 C3 1_555 1_555
C4 C3 1_555 1_555
H5 C4 1_555 1_555
C5 C4 1_555 1_555
H6 C5 1_555 1_555
C6 C1 1_555 1_555
H7 C6 1_555 1_555
C7 P1 1_555 1_555
C8 C7 1_555 1_555
H8 C8 1_555 1_555
C9 C8 1_555 1_555
H9 C9 1_555 1_555
C10 C9 1_555 1_555
H10 C10 1_555 1_555
C11 C10 1_555 1_555
H11 C11 1_555 1_555
C12 C7 1_555 1_555
H12 C12 1_555 1_555
C13 P1 1_555 1_555
C14 C13 1_555 1_555
H13 C14 1_555 1_555
C15 C14 1_555 1_555
H14 C15 1_555 1_555
C16 C15 1_555 1_555
H15 C16 1_555 1_555
C17 C16 1_555 1_555
H16 C17 1_555 1_555
C18 C13 1_555 1_555
H17 C18 1_555 1_555
C19 C20 1_555 1_555
C20 H18 1_555 1_555
C21 C20 1_555 1_555
H19 C21 1_555 1_555
C22 C21 1_555 1_555
H20 C22 1_555 1_555
C23 C22 1_555 1_555
H21 C23 1_555 1_555
C24 C19 1_555 1_555
H22 C24 1_555 1_555
C25 P2 1_555 1_555
C26 C25 1_555 1_555
H23 C26 1_555 1_555
C27 C26 1_555 1_555
H24 C27 1_555 1_555
C28 C27 1_555 1_555
H25 C28 1_555 1_555
C29 C28 1_555 1_555
H26 C29 1_555 1_555
C30 C25 1_555 1_555
H27 C30 1_555 1_555
C31 P2 1_555 1_555
C32 C31 1_555 1_555
H28 C32 1_555 1_555
C33 C32 1_555 1_555
H29 C33 1_555 1_555
C34 C33 1_555 1_555
H30 C34 1_555 1_555
C35 C34 1_555 1_555
H31 C35 1_555 1_555
C36 C31 1_555 1_555
H32 C36 1_555 1_555
C37 N2 1_555 1_555
C38 N1 1_555 1_555
H33 C38 1_555 1_555
C39 N1 1_555 1_555
H34 C39 1_555 1_555
C40 C39 1_555 1_555
H35 C40 1_555 1_555
C41 C37 1_555 1_555
H36 C41 1_555 1_555
C42 O1 1_555 1_555
C43 C42 1_555 1_555
C44 C43 1_555 1_555
H37 C44 1_555 1_555
C45 C44 1_555 1_555
H38 C45 1_555 1_555
C46 S1 1_555 1_555
C47 C46 1_555 1_555
H39 C47 1_555 1_555
C48 C43 1_555 1_555
H40 C48 1_555 1_555
O6 H41 1_555 1_555
H42 O6 1_555 1_555
Ag1A O2 1_555 1_555
Ag2A O4 1_555 1_555
Ag2A_2 N2 1_555 1_555
O2A Ag1 1_555 1_555
O4A Ag2 1_555 1_555
N2A Ag2 1_555 1_555
H1A N2A 1_555 1_555
H2A N2A 1_555 1_555
C5 C6 1_555 1_555
C11 C12 1_555 1_555
C17 C18 1_555 1_555
C23 C24 1_555 1_555
C29 C30 1_555 1_555
C35 C36 1_555 1_555
C37 C38 1_555 1_555
C40 C41 1_555 1_555
C45 C46 1_555 1_555
C47 C48 1_555 1_555

#END
