
#######################################################################
#
#                 Cambridge Crystallographic Data Centre
#                                CCDC 
#
#######################################################################
#
# If this CIF has been generated from an entry in the Cambridge 
# Structural Database, then it will include bibliographic, chemical, 
# crystal, experimental, refinement or atomic coordinate data resulting 
# from the CCDC's data processing and validation procedures.
#
#######################################################################

data_HAGGAZ
_symmetry_cell_setting           monoclinic
_symmetry_space_group_name_H-M   'P 21/c'
_symmetry_Int_Tables_number      14
_space_group_name_Hall           '-P 2ybc'
loop_
_symmetry_equiv_pos_site_id
_symmetry_equiv_pos_as_xyz
1 x,y,z
2 -x,1/2+y,1/2-z
3 -x,-y,-z
4 x,1/2-y,1/2+z
_cell_length_a                   5.4613(7)
_cell_length_b                   14.681(2)
_cell_length_c                   16.443(2)
_cell_angle_alpha                90
_cell_angle_beta                 92.457(2)
_cell_angle_gamma                90
_cell_volume                     1317.14
loop_
_atom_site_label
_atom_site_type_symbol
_atom_site_fract_x
_atom_site_fract_y
_atom_site_fract_z
O1 O 0.6076(3) 0.09495(14) 0.27688(12)
Co1 Co 0.26690(6) 0.06137(2) 0.224460(19)
O2 O -0.3590(4) -0.33247(13) 0.10702(11)
O3 O -0.0913(3) -0.33779(10) 0.21265(10)
C1 C -0.1715(4) -0.30575(16) 0.14473(14)
C2 C 0.2859(4) -0.11368(15) 0.11733(13)
C3 C 0.3113(5) -0.16393(19) 0.43785(17)
H1 H 0.3367 -0.2041 0.4811
O4 O 0.0919(3) -0.05424(11) -0.13443(10)
O5 O -0.2568(3) -0.12555(11) -0.11638(10)
C4 C 0.4205(4) -0.10514(16) 0.30924(14)
C5 C 0.5769(4) -0.10648(17) 0.23586(14)
H2 H 0.6119 -0.1691 0.2217
H3 H 0.7315 -0.0764 0.2493
N1 N 0.4564(4) -0.06096(12) 0.16556(11)
C6 C 0.1257(6) -0.10009(19) 0.43918(16)
H4 H 0.0218 -0.0975 0.4825
N2 N 0.2424(4) -0.04175(13) 0.31117(12)
C7 C 0.1595(4) -0.18624(15) 0.15146(14)
H5 H 0.2029 -0.2058 0.2039
C8 C 0.2282(5) -0.08935(15) 0.03701(14)
H6 H 0.3198 -0.0447 0.0121
C9 C -0.0974(4) -0.19932(15) 0.03026(14)
H7 H -0.2322 -0.2251 0.0025
C10 C 0.0359(4) -0.13084(15) -0.00626(13)
C11 C -0.0296(4) -0.22907(15) 0.10773(14)
C12 C 0.4584(5) -0.16767(17) 0.37200(16)
H8 H 0.5811 -0.2114 0.3695
C13 C -0.0426(5) -0.10169(16) -0.09125(14)
C14 C 0.0984(5) -0.04062(17) 0.37513(15)
H9 H -0.0261 0.0025 0.3761
H10 H 0.5751 -0.0368 0.1355
H11 H 0.7470 0.1187 0.2626
H12 H 0.5781 0.1224 0.3218
Co1B Co -0.26690(6) -0.06137(2) -0.224460(19)
Co1A Co -0.26690(6) -0.43863(2) 0.275540(19)
O3A O 0.0913(3) 0.16221(10) 0.28735(10)
O4B O -0.0919(3) 0.05424(11) 0.13443(10)
O5B O 0.2568(3) 0.12555(11) 0.11638(10)
loop_
_geom_bond_atom_site_label_1
_geom_bond_atom_site_label_2
_geom_bond_site_symmetry_1
_geom_bond_site_symmetry_2
O1 Co1 1_555 1_555
Co1 N1 1_555 1_555
O2 C1 1_555 1_555
O3 C1 1_555 1_555
C1 C11 1_555 1_555
C2 N1 1_555 1_555
C3 H1 1_555 1_555
O4 C13 1_555 1_555
O5 C13 1_555 1_555
C4 C5 1_555 1_555
C5 H2 1_555 1_555
H3 C5 1_555 1_555
N1 C5 1_555 1_555
C6 C3 1_555 1_555
H4 C6 1_555 1_555
N2 Co1 1_555 1_555
C7 C2 1_555 1_555
H5 C7 1_555 1_555
C8 C2 1_555 1_555
H6 C8 1_555 1_555
C9 H7 1_555 1_555
C10 C8 1_555 1_555
C11 C7 1_555 1_555
C12 C3 1_555 1_555
H8 C12 1_555 1_555
C13 C10 1_555 1_555
C14 C6 1_555 1_555
H9 C14 1_555 1_555
H10 N1 1_555 1_555
H11 O1 1_555 1_555
H12 O1 1_555 1_555
Co1B O4 1_555 1_555
Co1A O3 1_555 1_555
O3A Co1 1_555 1_555
O4B Co1 1_555 1_555
O5B Co1 1_555 1_555
O5 Co1B 1_555 1_555
C4 N2 1_555 1_555
C4 C12 1_555 1_555
N2 C14 1_555 1_555
C9 C10 1_555 1_555
C9 C11 1_555 1_555

#END
