
#######################################################################
#
#                 Cambridge Crystallographic Data Centre
#                                CCDC 
#
#######################################################################
#
# If this CIF has been generated from an entry in the Cambridge 
# Structural Database, then it will include bibliographic, chemical, 
# crystal, experimental, refinement or atomic coordinate data resulting 
# from the CCDC's data processing and validation procedures.
#
#######################################################################

data_HAGGED
_symmetry_cell_setting           monoclinic
_symmetry_space_group_name_H-M   'P 21/c'
_symmetry_Int_Tables_number      14
_space_group_name_Hall           '-P 2ybc'
loop_
_symmetry_equiv_pos_site_id
_symmetry_equiv_pos_as_xyz
1 x,y,z
2 -x,1/2+y,1/2-z
3 -x,-y,-z
4 x,1/2-y,1/2+z
_cell_length_a                   8.9619(6)
_cell_length_b                   12.0053(8)
_cell_length_c                   14.7534(7)
_cell_angle_alpha                90
_cell_angle_beta                 123.762(3)
_cell_angle_gamma                90
_cell_volume                     1319.63
loop_
_atom_site_label
_atom_site_type_symbol
_atom_site_fract_x
_atom_site_fract_y
_atom_site_fract_z
N1 N 0.3856(3) 0.70338(15) 0.62753(15)
Ni1 Ni 0.19330(4) 0.82817(2) 0.60055(2)
O1 O 0.1602(3) 0.30987(15) 0.58961(14)
O2 O -0.0171(3) 0.28439(14) 0.41034(13)
O3 O 0.0988(2) 0.54181(13) 0.17116(13)
O4 O 0.3045(2) 0.66879(13) 0.26470(13)
O5 O 0.0574(2) 0.84460(13) 0.43446(13)
N2 N 0.3860(3) 0.93021(16) 0.61590(16)
C1 C 0.1019(3) 0.33560(19) 0.4939(2)
C2 C 0.1753(3) 0.44092(18) 0.47551(18)
C3 C 0.1543(3) 0.46306(18) 0.37720(18)
H1 H 0.0947 0.4124 0.3200
C4 C 0.2224(3) 0.56128(18) 0.36384(18)
C5 C 0.2076(3) 0.59070(18) 0.26059(18)
C6 C 0.3028(3) 0.63853(18) 0.44780(18)
H2 H 0.3467 0.7047 0.4386
C7 C 0.3187(3) 0.61848(18) 0.54484(18)
C8 C 0.2579(3) 0.51862(19) 0.55957(18)
H3 H 0.2723 0.5034 0.6258
C9 C 0.5554(4) 0.7583(2) 0.6581(2)
H4 H 0.5955 0.7272 0.6144
H5 H 0.6464 0.7419 0.7339
C10 C 0.5387(3) 0.8836(2) 0.64258(18)
C11 C 0.6820(4) 0.9464(2) 0.6596(2)
H6 H 0.7888 0.9123 0.6785
C12 C 0.6628(4) 1.0610(2) 0.6479(2)
H7 H 0.7578 1.1049 0.6600
C13 C 0.5018(4) 1.1097(2) 0.6180(2)
H8 H 0.4857 1.1864 0.6092
C14 C 0.3665(4) 1.0412(2) 0.6017(2)
H9 H 0.2567 1.0729 0.5800
H10 H 0.0061 0.9064 0.3927
H11 H -0.0292 0.7946 0.4162
H12 H 0.4147 0.6720 0.6960
Ni1B Ni -0.19330(4) 0.17183(2) 0.39945(2)
Ni1C Ni 0.19330(4) 0.67183(2) 0.10055(2)
O2B O 0.0171(3) 0.71561(14) 0.58966(13)
O3C O 0.0988(2) 0.95819(13) 0.67116(13)
O4C O 0.3045(2) 0.83121(13) 0.76470(13)
loop_
_geom_bond_atom_site_label_1
_geom_bond_atom_site_label_2
_geom_bond_site_symmetry_1
_geom_bond_site_symmetry_2
N1 Ni1 1_555 1_555
Ni1 O5 1_555 1_555
O1 C1 1_555 1_555
O2 C1 1_555 1_555
O3 C5 1_555 1_555
O4 C5 1_555 1_555
O5 H10 1_555 1_555
N2 Ni1 1_555 1_555
C1 C2 1_555 1_555
C2 C3 1_555 1_555
C3 H1 1_555 1_555
C4 C3 1_555 1_555
C5 C4 1_555 1_555
C6 C4 1_555 1_555
H2 C6 1_555 1_555
C7 N1 1_555 1_555
C8 C2 1_555 1_555
H3 C8 1_555 1_555
C9 N1 1_555 1_555
H4 C9 1_555 1_555
H5 C9 1_555 1_555
C10 N2 1_555 1_555
C11 C10 1_555 1_555
H6 C11 1_555 1_555
C12 C11 1_555 1_555
H7 C12 1_555 1_555
C13 C12 1_555 1_555
H8 C13 1_555 1_555
C14 N2 1_555 1_555
H9 C14 1_555 1_555
H11 O5 1_555 1_555
H12 N1 1_555 1_555
Ni1B O2 1_555 1_555
Ni1C O3 1_555 1_555
O2B Ni1 1_555 1_555
O3C Ni1 1_555 1_555
O4C Ni1 1_555 1_555
O4 Ni1C 1_555 1_555
C6 C7 1_555 1_555
C7 C8 1_555 1_555
C9 C10 1_555 1_555
C13 C14 1_555 1_555

#END
