
#######################################################################
#
#                 Cambridge Crystallographic Data Centre
#                                CCDC 
#
#######################################################################
#
# If this CIF has been generated from an entry in the Cambridge 
# Structural Database, then it will include bibliographic, chemical, 
# crystal, experimental, refinement or atomic coordinate data resulting 
# from the CCDC's data processing and validation procedures.
#
#######################################################################

data_HAGGUT
_symmetry_cell_setting           triclinic
_symmetry_space_group_name_H-M   'P -1'
_symmetry_Int_Tables_number      2
_space_group_name_Hall           '-P 1'
loop_
_symmetry_equiv_pos_site_id
_symmetry_equiv_pos_as_xyz
1 x,y,z
2 -x,-y,-z
_cell_length_a                   9.1199(4)
_cell_length_b                   9.5148(4)
_cell_length_c                   29.1988(12)
_cell_angle_alpha                91.426(1)
_cell_angle_beta                 98.720(1)
_cell_angle_gamma                115.998(1)
_cell_volume                     2239.06
loop_
_atom_site_label
_atom_site_type_symbol
_atom_site_fract_x
_atom_site_fract_y
_atom_site_fract_z
Ag1 Ag 0.79197(5) 0.01818(5) 0.202094(13)
P1 P 0.73701(15) 0.03037(15) 0.12337(4)
N1 N 0.9376(5) 0.0047(5) 0.26108(14)
N2 N 1.1508(6) 0.2422(6) 0.25142(19)
H1 H 1.2541 0.3080 0.2581
H2 H 1.0842 0.2620 0.2315
C1 C 0.7314(6) -0.1371(6) 0.08234(16)
C2 C 0.6526(7) -0.2859(7) 0.0946(2)
H3 H 0.6073 -0.3032 0.1216
C3 C 0.6400(8) -0.4186(7) 0.0647(2)
H4 H 0.5845 -0.5191 0.0735
C4 C 0.7070(9) -0.4038(8) 0.0229(2)
H5 H 0.6969 -0.4908 0.0050
C5 C 0.7849(9) -0.2581(9) 0.0110(2)
H6 H 0.8310 -0.2417 -0.0158
C6 C 0.7979(7) -0.1238(7) 0.04020(19)
H7 H 0.8526 -0.0240 0.0308
C7 C 0.5427(6) 0.0329(6) 0.10837(17)
C8 C 0.5057(7) 0.1396(7) 0.1371(2)
H8 H 0.5841 0.2014 0.1627
C9 C 0.3619(7) 0.1497(8) 0.1271(2)
H9 H 0.3375 0.2174 0.1445
C10 C 0.2551(8) 0.0522(9) 0.0894(2)
H10 H 0.1540 0.0549 0.0808
C11 C 0.2885(8) -0.0564(9) 0.0614(2)
H11 H 0.2075 -0.1212 0.0367
C12 C 0.4336(7) -0.0657(8) 0.0705(2)
H12 H 0.4575 -0.1328 0.0527
C13 C 0.8890(4) 0.2095(3) 0.10683(12)
C14 C 0.8464(4) 0.2829(5) 0.07019(12)
H13 H 0.7401 0.2356 0.0525
C15 C 0.9628(6) 0.4269(5) 0.06005(14)
H14 H 0.9343 0.4760 0.0355
C16 C 1.1218(5) 0.4975(4) 0.08654(16)
H15 H 1.1997 0.5938 0.0797
C17 C 1.1644(3) 0.4241(4) 0.12318(14)
H16 H 1.2708 0.4713 0.1409
C18 C 1.0480(4) 0.2801(4) 0.13333(11)
H17 H 1.0765 0.2310 0.1578
C19 C 0.8808(7) -0.1250(7) 0.28107(19)
H18 H 0.7689 -0.1956 0.2734
C20 C 0.9767(9) -0.1562(8) 0.3109(2)
H19 H 0.9382 -0.2487 0.3253
C21 C 1.1393(9) -0.0463(9) 0.3208(2)
H20 H 1.2114 -0.0667 0.3426
C22 C 1.2006(8) 0.0861(8) 0.3017(2)
H21 H 1.3123 0.1575 0.3090
C23 C 1.0945(6) 0.1113(7) 0.27154(18)
Ag2 Ag 0.65640(5) 0.18232(5) 0.294070(13)
P2 P 0.73272(15) 0.23766(14) 0.37475(4)
S1 S 1.42874(14) 0.80941(15) 0.23536(4)
O1 O 0.6801(4) 0.3916(5) 0.24174(15)
O2 O 0.8697(4) 0.3101(4) 0.24696(12)
O3 O 1.4338(4) 0.7719(5) 0.28126(13)
O4 O 1.4972(5) 0.7329(5) 0.20201(15)
O5 O 1.5014(4) 0.9810(4) 0.23552(13)
C24 C 0.8196(6) 0.4055(5) 0.23622(16)
C25 C 0.9395(5) 0.5449(5) 0.21675(16)
C26 C 1.1057(5) 0.6042(5) 0.23090(15)
H22 H 1.1450 0.5515 0.2520
C27 C 1.2186(5) 0.7360(5) 0.21609(15)
C28 C 1.1688(6) 0.8088(6) 0.18531(18)
H23 H 1.2428 0.8984 0.1741
C29 C 1.0042(7) 0.7475(7) 0.1705(2)
H24 H 0.9654 0.7952 0.1475
C30 C 0.8894(6) 0.6188(6) 0.18711(18)
H25 H 0.7766 0.5856 0.1770
C31 C 0.7669(4) 0.0845(3) 0.39326(12)
C32 C 0.6478(3) -0.0692(4) 0.37899(12)
H26 H 0.5484 -0.0884 0.3598
C33 C 0.6771(4) -0.1941(3) 0.39348(13)
H27 H 0.5973 -0.2969 0.3839
C34 C 0.8255(5) -0.1653(4) 0.42223(14)
H28 H 0.8451 -0.2489 0.4319
C35 C 0.9447(4) -0.0117(5) 0.43649(13)
H29 H 1.0440 0.0076 0.4557
C36 C 0.9154(4) 0.1133(3) 0.42200(13)
H30 H 0.9952 0.2161 0.4315
C37 C 0.5875(5) 0.2611(6) 0.41254(16)
C38 C 0.5487(7) 0.1946(7) 0.45271(18)
H31 H 0.5956 0.1296 0.4635
C39 C 0.4377(8) 0.2192(8) 0.4799(2)
H32 H 0.4184 0.1694 0.5069
C40 C 0.3641(8) 0.3084(8) 0.4680(2)
H33 H 0.2933 0.3235 0.4852
C41 C 0.4007(8) 0.3749(8) 0.4289(3)
H34 H 0.3547 0.4412 0.4189
C42 C 0.5093(7) 0.3497(7) 0.4008(2)
H35 H 0.5248 0.3978 0.3735
C43 C 0.9213(6) 0.4218(5) 0.39271(16)
C44 C 0.9552(6) 0.5148(6) 0.43678(18)
H36 H 0.8803 0.4811 0.4572
C45 C 1.0993(7) 0.6533(7) 0.4480(2)
H37 H 1.1229 0.7150 0.4759
C46 C 1.2106(7) 0.6995(7) 0.4161(2)
H38 H 1.3084 0.7923 0.4238
C47 C 1.1794(7) 0.6093(7) 0.3724(2)
H39 H 1.2554 0.6438 0.3523
C48 C 1.0350(6) 0.4706(7) 0.36058(19)
H40 H 1.0120 0.4103 0.3325
Ag2_2 Ag 1.65640(5) 1.18232(5) 0.294070(13)
O5_2 O 0.5014(4) -0.0190(4) 0.23552(13)
O6 O 0.4824(5) -0.5036(5) 0.29384(18)
H41 H 0.538(7) -0.525(6) 0.2763(19)
H42 H 0.498(8) -0.410(3) 0.290(2)
loop_
_geom_bond_atom_site_label_1
_geom_bond_atom_site_label_2
_geom_bond_site_symmetry_1
_geom_bond_site_symmetry_2
Ag1 P1 1_555 1_555
Ag2 P2 1_555 1_555
P1 C1 1_555 1_555
P2 C31 1_555 1_555
S1 O3 1_555 1_555
N1 Ag1 1_555 1_555
N2 H1 1_555 1_555
H2 N2 1_555 1_555
O1 Ag2 1_555 1_555
O2 Ag2 1_555 1_555
O4 S1 1_555 1_555
O5 S1 1_555 1_555
O6 H41 1_555 1_555
C1 C2 1_555 1_555
C2 H3 1_555 1_555
C3 C2 1_555 1_555
H4 C3 1_555 1_555
C4 C3 1_555 1_555
H5 C4 1_555 1_555
C5 C4 1_555 1_555
H6 C5 1_555 1_555
C6 C1 1_555 1_555
H7 C6 1_555 1_555
C7 P1 1_555 1_555
C8 C7 1_555 1_555
H8 C8 1_555 1_555
C9 C8 1_555 1_555
H9 C9 1_555 1_555
C10 C9 1_555 1_555
H10 C10 1_555 1_555
C11 C10 1_555 1_555
H11 C11 1_555 1_555
C12 C7 1_555 1_555
H12 C12 1_555 1_555
C13 P1 1_555 1_555
C14 C13 1_555 1_555
H13 C14 1_555 1_555
C15 C14 1_555 1_555
H14 C15 1_555 1_555
C16 C15 1_555 1_555
H15 C16 1_555 1_555
C17 C16 1_555 1_555
H16 C17 1_555 1_555
C18 C13 1_555 1_555
H17 C18 1_555 1_555
C19 N1 1_555 1_555
H18 C19 1_555 1_555
C20 C19 1_555 1_555
H19 C20 1_555 1_555
C21 C20 1_555 1_555
H20 C21 1_555 1_555
C22 C21 1_555 1_555
H21 C22 1_555 1_555
C23 N1 1_555 1_555
C24 O1 1_555 1_555
C25 C24 1_555 1_555
C26 C25 1_555 1_555
H22 C26 1_555 1_555
C27 S1 1_555 1_555
C28 C27 1_555 1_555
H23 C28 1_555 1_555
C29 C28 1_555 1_555
H24 C29 1_555 1_555
C30 C25 1_555 1_555
H25 C30 1_555 1_555
C31 C32 1_555 1_555
C32 H26 1_555 1_555
C33 C32 1_555 1_555
H27 C33 1_555 1_555
C34 C33 1_555 1_555
H28 C34 1_555 1_555
C35 C34 1_555 1_555
H29 C35 1_555 1_555
C36 C31 1_555 1_555
H30 C36 1_555 1_555
C37 P2 1_555 1_555
C38 C37 1_555 1_555
H31 C38 1_555 1_555
C39 C38 1_555 1_555
H32 C39 1_555 1_555
C40 C39 1_555 1_555
H33 C40 1_555 1_555
C41 C40 1_555 1_555
H34 C41 1_555 1_555
C42 C37 1_555 1_555
H35 C42 1_555 1_555
C43 P2 1_555 1_555
C44 C43 1_555 1_555
H36 C44 1_555 1_555
C45 C44 1_555 1_555
H37 C45 1_555 1_555
C46 C45 1_555 1_555
H38 C46 1_555 1_555
C47 C46 1_555 1_555
H39 C47 1_555 1_555
C48 C43 1_555 1_555
H40 C48 1_555 1_555
H42 O6 1_555 1_555
Ag2_2 O5 1_555 1_555
O5_2 Ag2 1_555 1_555
N2 C23 1_555 1_555
O2 C24 1_555 1_555
C5 C6 1_555 1_555
C11 C12 1_555 1_555
C17 C18 1_555 1_555
C22 C23 1_555 1_555
C26 C27 1_555 1_555
C29 C30 1_555 1_555
C35 C36 1_555 1_555
C41 C42 1_555 1_555
C47 C48 1_555 1_555

#END
