
#######################################################################
#
#                 Cambridge Crystallographic Data Centre
#                                CCDC 
#
#######################################################################
#
# If this CIF has been generated from an entry in the Cambridge 
# Structural Database, then it will include bibliographic, chemical, 
# crystal, experimental, refinement or atomic coordinate data resulting 
# from the CCDC's data processing and validation procedures.
#
#######################################################################

data_HAGGIH
_symmetry_cell_setting           monoclinic
_symmetry_space_group_name_H-M   'P 21/c'
_symmetry_Int_Tables_number      14
_space_group_name_Hall           '-P 2ybc'
loop_
_symmetry_equiv_pos_site_id
_symmetry_equiv_pos_as_xyz
1 x,y,z
2 -x,1/2+y,1/2-z
3 -x,-y,-z
4 x,1/2-y,1/2+z
_cell_length_a                   5.5356(7)
_cell_length_b                   14.4821(19)
_cell_length_c                   16.449(2)
_cell_angle_alpha                90
_cell_angle_beta                 93.329(2)
_cell_angle_gamma                90
_cell_volume                     1316.44
loop_
_atom_site_label
_atom_site_type_symbol
_atom_site_fract_x
_atom_site_fract_y
_atom_site_fract_z
Zn1 Zn -0.28039(11) -0.56594(4) -0.22928(3)
O1 O 0.2295(7) -0.3783(3) 0.1216(2)
O2 O -0.1227(7) -0.4474(3) 0.1321(2)
C1 C 0.0199(10) -0.4017(3) 0.0930(3)
O3 O 0.0971(6) -0.1642(2) -0.2090(2)
O4 O 0.3709(7) -0.1751(3) -0.1055(2)
C2 C 0.1803(9) -0.1980(3) -0.1418(3)
C3 C -0.0427(9) -0.3725(3) 0.0068(3)
N1 N -0.4616(8) -0.4368(3) -0.1670(2)
N2 N -0.2498(8) -0.4593(3) -0.3110(2)
O5 O -0.6113(7) -0.6020(3) -0.2778(3)
C4 C -0.1553(9) -0.3161(3) -0.1513(3)
H1 H -0.1949 -0.2963 -0.2042
C5 C -0.2864(9) -0.3867(3) -0.1180(3)
C6 C 0.0958(9) -0.3049(3) -0.0280(3)
H2 H 0.2291 -0.2800 0.0013
C7 C 0.0355(9) -0.2746(3) -0.1060(3)
C8 C -0.1284(12) -0.4001(4) -0.4376(4)
H3 H -0.0241 -0.4028 -0.4799
C9 C -0.2345(9) -0.4116(3) -0.0378(3)
H4 H -0.3304 -0.4553 -0.0137
C10 C -0.4517(11) -0.3300(4) -0.3726(3)
H5 H -0.5698 -0.2846 -0.3702
C11 C -0.4192(9) -0.3939(3) -0.3102(3)
C12 C -0.5744(9) -0.3910(4) -0.2379(3)
H6 H -0.7283 -0.4205 -0.2524
H7 H -0.6065 -0.3272 -0.2244
C13 C -0.1059(11) -0.4617(4) -0.3740(3)
H8 H 0.0137 -0.5067 -0.3746
C14 C -0.3096(11) -0.3341(4) -0.4375(3)
H9 H -0.3339 -0.2933 -0.4809
H10 H -0.5402 -0.4660 -0.1336
H11 H -0.7394 -0.6301 -0.2671
H12 H -0.6142 -0.6195 -0.3319
Zn1B Zn 0.28039(11) -0.43406(4) 0.22928(3)
Zn1A Zn 0.28039(11) -0.06594(4) -0.27072(3)
O1B O -0.2295(7) -0.6217(3) -0.1216(2)
O2B O 0.1227(7) -0.5526(3) -0.1321(2)
O3A O -0.0971(6) -0.6642(2) -0.2910(2)
loop_
_geom_bond_atom_site_label_1
_geom_bond_atom_site_label_2
_geom_bond_site_symmetry_1
_geom_bond_site_symmetry_2
Zn1 N1 1_555 1_555
O1 C1 1_555 1_555
O2 C1 1_555 1_555
C1 C3 1_555 1_555
O3 C2 1_555 1_555
O4 C2 1_555 1_555
C2 C7 1_555 1_555
C3 C6 1_555 1_555
N1 C5 1_555 1_555
N2 Zn1 1_555 1_555
O5 Zn1 1_555 1_555
C4 H1 1_555 1_555
C5 C4 1_555 1_555
C6 H2 1_555 1_555
C7 C4 1_555 1_555
C8 H3 1_555 1_555
C9 C3 1_555 1_555
H4 C9 1_555 1_555
C10 H5 1_555 1_555
C11 N2 1_555 1_555
C12 N1 1_555 1_555
H6 C12 1_555 1_555
H7 C12 1_555 1_555
C13 N2 1_555 1_555
H8 C13 1_555 1_555
C14 C8 1_555 1_555
H9 C14 1_555 1_555
H10 N1 1_555 1_555
H11 O5 1_555 1_555
H12 O5 1_555 1_555
Zn1B O1 1_555 1_555
Zn1A O3 1_555 1_555
O1B Zn1 1_555 1_555
O2B Zn1 1_555 1_555
O3A Zn1 1_555 1_555
O2 Zn1B 1_555 1_555
C5 C9 1_555 1_555
C6 C7 1_555 1_555
C8 C13 1_555 1_555
C10 C11 1_555 1_555
C10 C14 1_555 1_555
C11 C12 1_555 1_555

#END
