
#######################################################################
#
#                 Cambridge Crystallographic Data Centre
#                                CCDC 
#
#######################################################################
#
# If this CIF has been generated from an entry in the Cambridge 
# Structural Database, then it will include bibliographic, chemical, 
# crystal, experimental, refinement or atomic coordinate data resulting 
# from the CCDC's data processing and validation procedures.
#
#######################################################################

data_HAGHEE
_symmetry_cell_setting           monoclinic
_symmetry_space_group_name_H-M   'C 2/c'
_symmetry_Int_Tables_number      15
_space_group_name_Hall           '-C 2yn'
loop_
_symmetry_equiv_pos_site_id
_symmetry_equiv_pos_as_xyz
1 x,y,z
2 -x,y,1/2-z
3 1/2+x,1/2+y,z
4 1/2-x,1/2+y,1/2-z
5 -x,-y,-z
6 x,-y,1/2+z
7 1/2-x,1/2-y,-z
8 1/2+x,1/2-y,1/2+z
_cell_length_a                   21.812(3)
_cell_length_b                   9.3023(9)
_cell_length_c                   32.823(3)
_cell_angle_alpha                90
_cell_angle_beta                 96.699(3)
_cell_angle_gamma                90
_cell_volume                     6614.38
loop_
_atom_site_label
_atom_site_type_symbol
_atom_site_fract_x
_atom_site_fract_y
_atom_site_fract_z
Cd1 Cd 0.303998(15) 0.21419(4) 0.866006(8)
Cd2 Cd 0.342596(15) 0.70312(4) 0.898837(9)
N1 N 0.40925(17) 0.1334(5) 0.87190(11)
N2 N 0.3500(2) 0.2303(5) 0.93408(11)
N3 N 0.43531(16) 0.5802(5) 0.89907(11)
N4 N 0.37627(16) 0.7159(4) 0.83406(10)
O1 O 0.21975(15) 0.3609(4) 0.84248(9)
O2 O 0.28793(14) 0.5001(4) 0.87759(8)
O3 O 0.21365(15) 0.6167(4) 0.69941(8)
O4 O 0.16528(15) 0.8256(4) 0.69574(8)
O5 O 0.29806(14) 0.9191(4) 0.88596(8)
O6 O 0.23016(14) 1.0864(4) 0.89830(9)
O7 O 0.17848(15) 0.8583(4) 1.03889(8)
O8 O 0.11424(19) 0.6777(5) 1.03120(10)
C1 C 0.4357(2) 0.0811(8) 0.84037(17)
H1 H 0.4202 0.1097 0.8140
C2 C 0.4849(2) -0.0132(8) 0.84487(19)
H2 H 0.5023 -0.0466 0.8221
C3 C 0.5073(2) -0.0559(8) 0.88315(19)
H3 H 0.5396 -0.1216 0.8873
C4 C 0.4809(2) 0.0006(7) 0.91599(18)
H4 H 0.4957 -0.0278 0.9425
C5 C 0.4334(2) 0.0979(6) 0.91007(14)
C6 C 0.4044(2) 0.1673(6) 0.94374(14)
C7 C 0.4344(3) 0.1711(7) 0.98376(16)
H5 H 0.4732 0.1299 0.9901
C8 C 0.4052(4) 0.2367(7) 1.01308(17)
H6 H 0.4244 0.2412 1.0399
C9 C 0.3485(4) 0.2957(7) 1.00381(17)
H7 H 0.3276 0.3360 1.0241
C10 C 0.3229(3) 0.2944(6) 0.96377(16)
H8 H 0.2852 0.3399 0.9569
C11 C 0.4640(2) 0.5190(7) 0.93328(15)
H9 H 0.4486 0.5357 0.9581
C12 C 0.5147(2) 0.4336(7) 0.93295(16)
H10 H 0.5349 0.3956 0.9571
C13 C 0.5348(2) 0.4060(7) 0.89604(18)
H11 H 0.5685 0.3458 0.8945
C14 C 0.5053(2) 0.4670(7) 0.86097(16)
H12 H 0.5191 0.4483 0.8357
C15 C 0.45519(19) 0.5560(6) 0.86321(13)
C16 C 0.42301(19) 0.6301(6) 0.82720(12)
C17 C 0.4397(2) 0.6133(6) 0.78847(14)
H13 H 0.4718 0.5516 0.7840
C18 C 0.4085(3) 0.6887(7) 0.75604(15)
H14 H 0.4198 0.6792 0.7297
C19 C 0.3609(2) 0.7769(6) 0.76316(14)
H15 H 0.3390 0.8277 0.7418
C20 C 0.3461(2) 0.7890(6) 0.80302(14)
H16 H 0.3141 0.8500 0.8082
C21 C 0.2422(2) 0.4820(6) 0.85119(12)
C22 C 0.21417(18) 0.6085(5) 0.82777(11)
C23 C 0.21374(19) 0.6078(5) 0.78484(12)
H17 H 0.2291 0.5287 0.7720
C24 C 0.1906(2) 0.7237(6) 0.76168(12)
C25 C 0.1691(2) 0.8429(6) 0.78099(12)
H18 H 0.1549 0.9227 0.7656
C26 C 0.1686(2) 0.8432(6) 0.82312(12)
H19 H 0.1531 0.9226 0.8358
C27 C 0.19072(19) 0.7269(5) 0.84659(11)
C28 C 0.18592(19) 0.7298(5) 0.89170(11)
C29 C 0.15363(19) 0.6208(6) 0.90925(12)
H20 H 0.1393 0.5416 0.8937
C30 C 0.1430(2) 0.6310(6) 0.95047(12)
H21 H 0.1220 0.5579 0.9623
C31 C 0.16340(19) 0.7492(5) 0.97338(12)
C32 C 0.19744(18) 0.8532(5) 0.95677(11)
H22 H 0.2129 0.9301 0.9730
C33 C 0.20931(18) 0.8456(5) 0.91602(11)
C34 C 0.2481(2) 0.9589(6) 0.89922(11)
C35 C 0.1515(2) 0.7605(6) 1.01795(13)
C36 C 0.1901(2) 0.7231(6) 0.71565(13)
Cd1C Cd 0.196002(15) 0.71419(4) 0.633994(8)
Cd1_2 Cd 0.303998(15) 1.21419(4) 0.866006(8)
Cd2F Cd 0.157404(15) 0.79688(4) 1.101163(9)
O3C O 0.28635(15) 0.1167(4) 0.80059(8)
O4C O 0.33472(15) 0.3256(4) 0.80426(8)
O6_2 O 0.23016(14) 0.0864(4) 0.89830(9)
O7F O 0.32152(15) 0.6417(4) 0.96111(8)
O8F O 0.38576(19) 0.8223(5) 0.96880(10)
O9 O 0.1186(2) 0.2173(6) 0.86140(15)
H23 H 0.0992 0.1392 0.8640
H24 H 0.0988 0.2960 0.8578
loop_
_geom_bond_atom_site_label_1
_geom_bond_atom_site_label_2
_geom_bond_site_symmetry_1
_geom_bond_site_symmetry_2
Cd1 N1 1_555 1_555
Cd2 N3 1_555 1_555
N1 C1 1_555 1_555
N2 Cd1 1_555 1_555
N3 C11 1_555 1_555
N4 Cd2 1_555 1_555
O1 Cd1 1_555 1_555
O2 Cd2 1_555 1_555
O3 C36 1_555 1_555
O4 C36 1_555 1_555
O5 Cd2 1_555 1_555
O6 C34 1_555 1_555
O7 C35 1_555 1_555
O8 C35 1_555 1_555
C1 H1 1_555 1_555
C2 C1 1_555 1_555
H2 C2 1_555 1_555
C3 C2 1_555 1_555
H3 C3 1_555 1_555
C4 C3 1_555 1_555
H4 C4 1_555 1_555
C5 N1 1_555 1_555
C6 N2 1_555 1_555
C7 C6 1_555 1_555
H5 C7 1_555 1_555
C8 C7 1_555 1_555
H6 C8 1_555 1_555
C9 C8 1_555 1_555
H7 C9 1_555 1_555
C10 N2 1_555 1_555
H8 C10 1_555 1_555
C11 H9 1_555 1_555
C12 C11 1_555 1_555
H10 C12 1_555 1_555
C13 C12 1_555 1_555
H11 C13 1_555 1_555
C14 C13 1_555 1_555
H12 C14 1_555 1_555
C15 N3 1_555 1_555
C16 N4 1_555 1_555
C17 C16 1_555 1_555
H13 C17 1_555 1_555
C18 C17 1_555 1_555
H14 C18 1_555 1_555
C19 C18 1_555 1_555
H15 C19 1_555 1_555
C20 N4 1_555 1_555
H16 C20 1_555 1_555
C21 O1 1_555 1_555
C22 C21 1_555 1_555
C23 C22 1_555 1_555
H17 C23 1_555 1_555
C24 C23 1_555 1_555
C25 C24 1_555 1_555
H18 C25 1_555 1_555
C26 C25 1_555 1_555
H19 C26 1_555 1_555
C27 C22 1_555 1_555
C28 C27 1_555 1_555
C29 C28 1_555 1_555
H20 C29 1_555 1_555
C30 C29 1_555 1_555
H21 C30 1_555 1_555
C31 C30 1_555 1_555
C32 C31 1_555 1_555
H22 C32 1_555 1_555
C33 C28 1_555 1_555
C34 O5 1_555 1_555
C35 C31 1_555 1_555
C36 C24 1_555 1_555
O9 H23 1_555 1_555
H24 O9 1_555 1_555
Cd1C O3 1_555 1_555
Cd1_2 O6 1_555 1_555
Cd2F O7 1_555 1_555
O3C Cd1 1_555 1_555
O4C Cd1 1_555 1_555
O6_2 Cd1 1_555 1_555
O7F Cd2 1_555 1_555
O8F Cd2 1_555 1_555
O2 C21 1_555 1_555
O4 Cd1C 1_555 1_555
O8 Cd2F 1_555 1_555
C4 C5 1_555 1_555
C5 C6 1_555 1_555
C9 C10 1_555 1_555
C14 C15 1_555 1_555
C15 C16 1_555 1_555
C19 C20 1_555 1_555
C26 C27 1_555 1_555
C32 C33 1_555 1_555
C33 C34 1_555 1_555

#END
