
#######################################################################
#
#                 Cambridge Crystallographic Data Centre
#                                CCDC 
#
#######################################################################
#
# If this CIF has been generated from an entry in the Cambridge 
# Structural Database, then it will include bibliographic, chemical, 
# crystal, experimental, refinement or atomic coordinate data resulting 
# from the CCDC's data processing and validation procedures.
#
#######################################################################

data_HAGJUW
_symmetry_cell_setting           triclinic
_symmetry_space_group_name_H-M   'P -1'
_symmetry_Int_Tables_number      2
_space_group_name_Hall           '-P 1'
loop_
_symmetry_equiv_pos_site_id
_symmetry_equiv_pos_as_xyz
1 x,y,z
2 -x,-y,-z
_cell_length_a                   9.610(3)
_cell_length_b                   10.191(3)
_cell_length_c                   14.849(5)
_cell_angle_alpha                73.420(14)
_cell_angle_beta                 78.140(15)
_cell_angle_gamma                75.370(12)
_cell_volume                     1334.55
loop_
_atom_site_label
_atom_site_type_symbol
_atom_site_fract_x
_atom_site_fract_y
_atom_site_fract_z
H1 H 0.117(6) 0.310(5) 0.476(3)
H2 H 0.522(5) 0.539(4) 0.266(3)
H3 H 0.907(4) 0.447(4) 0.177(3)
C1 C 0.4682(3) 0.3385(3) 0.4221(2)
C2 C 0.4354(4) 0.2234(4) 0.4947(3)
H4 H 0.3589 0.1844 0.4924
C3 C 0.5135(5) 0.1672(5) 0.5688(3)
H5 H 0.4894 0.0905 0.6158
C4 C 0.6286(5) 0.2227(5) 0.5754(3)
H6 H 0.6788 0.1858 0.6274
C5 C 0.6659(4) 0.3306(5) 0.5052(3)
H7 H 0.7434 0.3671 0.5088
C6 C 0.5903(4) 0.3897(4) 0.4262(3)
C7 C 0.6429(4) 0.4936(4) 0.3527(3)
H8 H 0.7239 0.5199 0.3616
C8 C 0.6653(3) 0.6519(3) 0.1967(3)
H9 H 0.7432 0.6725 0.2205
C9 C 0.5616(4) 0.7903(4) 0.1617(3)
H10 H 0.4822 0.7730 0.1386
H11 H 0.5210 0.8349 0.2136
C10 C 0.6437(4) 0.8860(4) 0.0822(3)
H12 H 0.5772 0.9730 0.0594
H13 H 0.7188 0.9078 0.1070
C11 C 0.7129(5) 0.8191(4) 0.0002(3)
H14 H 0.7676 0.8813 -0.0478
H15 H 0.6376 0.8048 -0.0284
C12 C 0.8141(5) 0.6792(4) 0.0344(3)
H16 H 0.8521 0.6353 -0.0181
H17 H 0.8955 0.6950 0.0563
C13 C 0.7346(4) 0.5822(3) 0.1147(3)
H18 H 0.6574 0.5615 0.0903
C14 C 0.8275(4) 0.3308(4) 0.1372(3)
H19 H 0.7517 0.3297 0.1074
C15 C 0.9255(4) 0.2015(3) 0.1665(3)
C16 C 0.9021(5) 0.0829(4) 0.1446(4)
H20 H 0.8262 0.0930 0.1115
C17 C 0.9888(5) -0.0454(4) 0.1711(4)
H21 H 0.9733 -0.1224 0.1558
C18 C 1.1005(5) -0.0598(4) 0.2212(3)
H22 H 1.1590 -0.1478 0.2403
C19 C 1.1271(4) 0.0521(4) 0.2434(3)
H23 H 1.2031 0.0384 0.2773
C20 C 1.0422(4) 0.1875(3) 0.2163(2)
C21 C 0.0615(6) 0.1530(5) 0.4640(4)
H24 H 0.0086 0.1405 0.4198
H25 H 0.0008 0.1503 0.5242
H26 H 0.1464 0.0794 0.4714
Lu1 Lu 0.213811(14) 0.394038(14) 0.280889(10)
N1 N 0.5925(3) 0.5574(3) 0.2741(2)
N2 N 0.8356(3) 0.4498(3) 0.1488(2)
N3 N -0.0097(3) 0.6009(3) 0.3573(2)
N4 N 0.2538(4) 0.6177(3) 0.1183(2)
N5 N 0.4488(4) 0.1932(4) 0.2280(3)
O1 O 0.3934(2) 0.3981(2) 0.35199(18)
O2 O 1.0673(2) 0.2969(2) 0.23395(18)
O3 O 0.1079(3) 0.5636(3) 0.3899(2)
O4 O -0.1163(3) 0.6755(3) 0.3916(2)
O5 O -0.0156(3) 0.5551(3) 0.2876(2)
O6 O 0.1807(3) 0.5328(3) 0.1161(2)
O7 O 0.2840(5) 0.7103(4) 0.0505(3)
O8 O 0.2945(3) 0.6020(3) 0.19775(19)
O9 O 0.4172(3) 0.3156(3) 0.1755(2)
O10 O 0.5573(4) 0.1109(4) 0.2086(3)
O11 O 0.3590(3) 0.1634(3) 0.3026(2)
O12 O 0.1041(3) 0.2851(3) 0.42883(19)
Lu1_2 Lu 1.213811(14) 0.394038(14) 0.280889(10)
O2_2 O 0.0673(2) 0.2969(2) 0.23395(18)
loop_
_geom_bond_atom_site_label_1
_geom_bond_atom_site_label_2
_geom_bond_site_symmetry_1
_geom_bond_site_symmetry_2
H1 O12 1_555 1_555
H2 N1 1_555 1_555
H3 N2 1_555 1_555
C1 C2 1_555 1_555
C2 H4 1_555 1_555
C3 C2 1_555 1_555
H5 C3 1_555 1_555
C4 C3 1_555 1_555
H6 C4 1_555 1_555
C5 C4 1_555 1_555
H7 C5 1_555 1_555
C6 C1 1_555 1_555
C7 C6 1_555 1_555
H8 C7 1_555 1_555
C8 H9 1_555 1_555
C9 C8 1_555 1_555
H10 C9 1_555 1_555
H11 C9 1_555 1_555
C10 C9 1_555 1_555
H12 C10 1_555 1_555
H13 C10 1_555 1_555
C11 C10 1_555 1_555
H14 C11 1_555 1_555
H15 C11 1_555 1_555
C12 C11 1_555 1_555
H16 C12 1_555 1_555
H17 C12 1_555 1_555
C13 C8 1_555 1_555
H18 C13 1_555 1_555
C14 H19 1_555 1_555
C15 C14 1_555 1_555
C16 C15 1_555 1_555
H20 C16 1_555 1_555
C17 C16 1_555 1_555
H21 C17 1_555 1_555
C18 C17 1_555 1_555
H22 C18 1_555 1_555
C19 C18 1_555 1_555
H23 C19 1_555 1_555
C20 C15 1_555 1_555
C21 H24 1_555 1_555
H25 C21 1_555 1_555
H26 C21 1_555 1_555
Lu1 O1 1_555 1_555
N1 C7 1_555 1_555
N2 C13 1_555 1_555
N3 O3 1_555 1_555
N4 O6 1_555 1_555
N5 O9 1_555 1_555
O1 C1 1_555 1_555
O2 C20 1_555 1_555
O3 Lu1 1_555 1_555
O4 N3 1_555 1_555
O5 Lu1 1_555 1_555
O6 Lu1 1_555 1_555
O7 N4 1_555 1_555
O8 Lu1 1_555 1_555
O9 Lu1 1_555 1_555
O10 N5 1_555 1_555
O11 Lu1 1_555 1_555
O12 C21 1_555 1_555
Lu1_2 O2 1_555 1_555
O2_2 Lu1 1_555 1_555
C5 C6 1_555 1_555
C8 N1 1_555 1_555
C12 C13 1_555 1_555
C14 N2 1_555 1_555
C19 C20 1_555 1_555
Lu1 O12 1_555 1_555
N3 O5 1_555 1_555
N4 O8 1_555 1_555
N5 O11 1_555 1_555

#END
