
#######################################################################
#
#                 Cambridge Crystallographic Data Centre
#                                CCDC 
#
#######################################################################
#
# If this CIF has been generated from an entry in the Cambridge 
# Structural Database, then it will include bibliographic, chemical, 
# crystal, experimental, refinement or atomic coordinate data resulting 
# from the CCDC's data processing and validation procedures.
#
#######################################################################

data_HAGJOQ
_symmetry_cell_setting           triclinic
_symmetry_space_group_name_H-M   'P -1'
_symmetry_Int_Tables_number      2
_space_group_name_Hall           '-P 1'
loop_
_symmetry_equiv_pos_site_id
_symmetry_equiv_pos_as_xyz
1 x,y,z
2 -x,-y,-z
_cell_length_a                   9.6091(19)
_cell_length_b                   10.155(2)
_cell_length_c                   14.839(3)
_cell_angle_alpha                73.40(3)
_cell_angle_beta                 78.05(3)
_cell_angle_gamma                75.33(3)
_cell_volume                     1328.16
loop_
_atom_site_label
_atom_site_type_symbol
_atom_site_fract_x
_atom_site_fract_y
_atom_site_fract_z
C1 C -0.0418(6) 0.3129(6) 0.2841(4)
C2 C -0.1264(8) 0.4484(7) 0.2572(5)
H1 H -0.2026 0.4621 0.2236
C3 C -0.0998(9) 0.5600(7) 0.2791(6)
H2 H -0.1584 0.6480 0.2596
C4 C 0.0088(10) 0.5478(8) 0.3282(7)
H3 H 0.0239 0.6255 0.3431
C5 C 0.0970(9) 0.4165(8) 0.3556(6)
H4 H 0.1726 0.4059 0.3891
C6 C 0.0732(7) 0.2995(6) 0.3333(4)
C7 C 0.1734(7) 0.1687(7) 0.3624(4)
H5 H 0.2497 0.1705 0.3915
C8 C 0.2643(7) -0.0818(6) 0.3847(4)
H6 H 0.3418 -0.0616 0.4092
C9 C 0.1854(8) -0.1790(7) 0.4655(4)
H7 H 0.1478 -0.1346 0.5180
H8 H 0.1036 -0.1947 0.4441
C10 C 0.2851(10) -0.3179(8) 0.4994(5)
H9 H 0.2302 -0.3799 0.5476
H10 H 0.3604 -0.3035 0.5279
C11 C 0.3545(8) -0.3861(7) 0.4180(5)
H11 H 0.2797 -0.4079 0.3931
H12 H 0.4207 -0.4735 0.4413
C12 C 0.4375(7) -0.2902(7) 0.3388(5)
H13 H 0.5161 -0.2725 0.3625
H14 H 0.4793 -0.3352 0.2871
C13 C 0.3347(6) -0.1520(7) 0.3030(4)
H15 H 0.2573 -0.1730 0.2789
C14 C 0.3577(6) 0.0054(7) 0.1472(4)
H16 H 0.2773 -0.0217 0.1380
C15 C 0.4108(6) 0.1088(7) 0.0739(4)
C16 C 0.3335(8) 0.1684(9) -0.0047(5)
H17 H 0.2556 0.1319 -0.0078
C17 C 0.3707(9) 0.2779(10) -0.0759(5)
H18 H 0.3200 0.3158 -0.1275
C18 C 0.4888(8) 0.3324(9) -0.0689(5)
H19 H 0.5158 0.4075 -0.1166
C19 C 0.5622(8) 0.2774(8) 0.0054(5)
H20 H 0.6377 0.3171 0.0087
C20 C 0.5293(6) 0.1621(6) 0.0784(4)
C21 C -0.0649(11) 0.3477(9) 0.0361(6)
H21 H -0.1498 0.4207 0.0416
H22 H -0.0223 0.3592 -0.0295
H23 H 0.0042 0.3531 0.0726
Eu1 Eu -0.21404(3) 0.10579(3) 0.219325(17)
N1 N 0.1659(5) 0.0505(5) 0.3515(3)
H24 H 0.1006 0.0511 0.3228
N2 N 0.4069(5) -0.0570(6) 0.2261(3)
H25 H 0.4825 -0.0338 0.2268
N3 N 0.0106(6) -0.1014(6) 0.1430(4)
N4 N -0.2541(7) -0.1174(7) 0.3818(4)
N5 N -0.4489(8) 0.3066(8) 0.2727(5)
O1 O -0.0670(5) 0.2027(4) 0.2664(3)
O2 O 0.6074(4) 0.1013(5) 0.1481(3)
O3 O 0.0161(5) -0.0556(5) 0.2126(3)
O4 O 0.1163(6) -0.1752(6) 0.1081(4)
O5 O -0.1084(5) -0.0640(5) 0.1107(3)
O6 O -0.2966(5) -0.1017(5) 0.3026(3)
O7 O -0.2850(8) -0.2112(8) 0.4507(5)
O8 O -0.1813(6) -0.0335(6) 0.3849(3)
O9 O -0.4171(6) 0.1844(6) 0.3249(4)
O10 O -0.5598(8) 0.3920(8) 0.2906(6)
O11 O -0.3591(5) 0.3369(5) 0.1977(4)
O12 O -0.1047(5) 0.2154(5) 0.0707(3)
H26 H -0.1442 0.1951 0.0313
Eu1_2 Eu 0.78596(3) 0.10579(3) 0.219325(17)
O2_2 O -0.3926(4) 0.1013(5) 0.1481(3)
loop_
_geom_bond_atom_site_label_1
_geom_bond_atom_site_label_2
_geom_bond_site_symmetry_1
_geom_bond_site_symmetry_2
C1 C2 1_555 1_555
C2 H1 1_555 1_555
C3 C2 1_555 1_555
H2 C3 1_555 1_555
C4 C3 1_555 1_555
H3 C4 1_555 1_555
C5 C4 1_555 1_555
H4 C5 1_555 1_555
C6 C1 1_555 1_555
C7 C6 1_555 1_555
H5 C7 1_555 1_555
C8 H6 1_555 1_555
C9 C8 1_555 1_555
H7 C9 1_555 1_555
H8 C9 1_555 1_555
C10 C9 1_555 1_555
H9 C10 1_555 1_555
H10 C10 1_555 1_555
C11 C10 1_555 1_555
H11 C11 1_555 1_555
H12 C11 1_555 1_555
C12 C11 1_555 1_555
H13 C12 1_555 1_555
H14 C12 1_555 1_555
C13 C8 1_555 1_555
H15 C13 1_555 1_555
C14 H16 1_555 1_555
C15 C14 1_555 1_555
C16 C15 1_555 1_555
H17 C16 1_555 1_555
C17 C16 1_555 1_555
H18 C17 1_555 1_555
C18 C17 1_555 1_555
H19 C18 1_555 1_555
C19 C18 1_555 1_555
H20 C19 1_555 1_555
C20 C15 1_555 1_555
C21 H21 1_555 1_555
H22 C21 1_555 1_555
H23 C21 1_555 1_555
Eu1 O1 1_555 1_555
N1 C7 1_555 1_555
H24 N1 1_555 1_555
N2 C13 1_555 1_555
H25 N2 1_555 1_555
N3 O3 1_555 1_555
N4 O6 1_555 1_555
N5 O9 1_555 1_555
O1 C1 1_555 1_555
O2 C20 1_555 1_555
O3 Eu1 1_555 1_555
O4 N3 1_555 1_555
O5 Eu1 1_555 1_555
O6 Eu1 1_555 1_555
O7 N4 1_555 1_555
O8 Eu1 1_555 1_555
O9 Eu1 1_555 1_555
O10 N5 1_555 1_555
O11 Eu1 1_555 1_555
O12 C21 1_555 1_555
H26 O12 1_555 1_555
Eu1_2 O2 1_555 1_555
O2_2 Eu1 1_555 1_555
C5 C6 1_555 1_555
C8 N1 1_555 1_555
C12 C13 1_555 1_555
C14 N2 1_555 1_555
C19 C20 1_555 1_555
Eu1 O12 1_555 1_555
N3 O5 1_555 1_555
N4 O8 1_555 1_555
N5 O11 1_555 1_555

#END
