
#######################################################################
#
#                 Cambridge Crystallographic Data Centre
#                                CCDC 
#
#######################################################################
#
# If this CIF has been generated from an entry in the Cambridge 
# Structural Database, then it will include bibliographic, chemical, 
# crystal, experimental, refinement or atomic coordinate data resulting 
# from the CCDC's data processing and validation procedures.
#
#######################################################################

data_HAGLAD
_symmetry_cell_setting           monoclinic
_symmetry_space_group_name_H-M   'P 21/a'
_symmetry_Int_Tables_number      14
_space_group_name_Hall           '-P 2yab'
loop_
_symmetry_equiv_pos_site_id
_symmetry_equiv_pos_as_xyz
1 x,y,z
2 1/2+x,1/2-y,z
3 -x,-y,-z
4 1/2-x,1/2+y,-z
_cell_length_a                   10.762(7)
_cell_length_b                   10.5310(10)
_cell_length_c                   15.388(5)
_cell_angle_alpha                90
_cell_angle_beta                 104.54(4)
_cell_angle_gamma                90
_cell_volume                     1688.14
loop_
_atom_site_label
_atom_site_type_symbol
_atom_site_fract_x
_atom_site_fract_y
_atom_site_fract_z
Ni1 Ni -0.36618(8) 0.23422(8) -0.10403(6)
P1 P -0.18016(13) 0.26269(13) -0.23648(9)
P2 P -0.27794(13) 0.50662(13) -0.16946(9)
O1 O -0.2742(3) 0.1835(3) -0.2018(2)
O2 O -0.0491(4) 0.2792(4) -0.1779(2)
O3 O -0.3627(3) 0.4257(3) -0.1267(2)
O4 O -0.1531(3) 0.5514(3) -0.1098(2)
O5 O -0.1904(4) 0.2417(4) -0.0094(3)
O6 O -0.3853(4) 0.0392(3) -0.0749(2)
O7 O -0.4351(3) 0.2681(3) 0.0107(2)
C1 C -0.2492(5) 0.4179(5) -0.2631(4)
H1 H -0.3237 0.4071 -0.3039
H2 H -0.1884 0.4719 -0.2849
C2 C -0.1682(5) 0.1998(5) -0.3442(4)
C3 C -0.2508(6) 0.1092(6) -0.3896(4)
H3 H -0.3104 0.083 -0.3701
C4 C -0.2352(7) 0.0628(7) -0.4727(4)
H4 H -0.2905 -0.0026 -0.4955
C5 C -0.1386(8) 0.1100(8) -0.5062(4)
H5 H -0.1341 0.0868 -0.5635
C6 C -0.0572(8) 0.1992(8) -0.4615(5)
H6 H 0.0146 0.2221 -0.494
C7 C -0.0683(6) 0.2422(6) -0.3788(4)
H7 H -0.0133 0.3092 -0.3539
C8 C -0.3703(5) 0.6399(5) -0.2245(4)
C9 C -0.3208(7) 0.7610(6) -0.2175(4)
H8 H -0.2553 0.773 -0.1875
C10 C -0.3925(9) 0.8611(6) -0.2630(5)
H9 H -0.365 0.9346 -0.2567
C11 C -0.5091(8) 0.8407(7) -0.3179(5)
H10 H -0.5531 0.9078 -0.3454
C12 C -0.5615(6) 0.7208(7) -0.3258(5)
H11 H -0.6385 0.7012 -0.3589
C13 C -0.4914(6) 0.6225(6) -0.2781(5)
H12 H -0.5311 0.5414 -0.2877
O2A O -0.5491(4) 0.2208(4) -0.1779(2)
Ni1A Ni 0.13382(8) 0.26578(8) -0.10403(6)
O8 O -0.5993(4) 0.5147(4) -0.0999(3)
loop_
_geom_bond_atom_site_label_1
_geom_bond_atom_site_label_2
_geom_bond_site_symmetry_1
_geom_bond_site_symmetry_2
Ni1 O1 1_555 1_555
P1 O1 1_555 1_555
P2 O3 1_555 1_555
O2 P1 1_555 1_555
O3 Ni1 1_555 1_555
O4 P2 1_555 1_555
O5 Ni1 1_555 1_555
O6 Ni1 1_555 1_555
O7 Ni1 1_555 1_555
C1 P1 1_555 1_555
H1 C1 1_555 1_555
H2 C1 1_555 1_555
C2 P1 1_555 1_555
C3 C2 1_555 1_555
H3 C3 1_555 1_555
C4 C3 1_555 1_555
H4 C4 1_555 1_555
C5 C4 1_555 1_555
H5 C5 1_555 1_555
C6 C5 1_555 1_555
H6 C6 1_555 1_555
C7 C2 1_555 1_555
H7 C7 1_555 1_555
C8 P2 1_555 1_555
C9 C8 1_555 1_555
H8 C9 1_555 1_555
C10 C9 1_555 1_555
H9 C10 1_555 1_555
C11 C10 1_555 1_555
H10 C11 1_555 1_555
C12 C11 1_555 1_555
H11 C12 1_555 1_555
C13 C8 1_555 1_555
H12 C13 1_555 1_555
O2A Ni1 1_555 1_555
Ni1A O2 1_555 1_555
P2 C1 1_555 1_555
C6 C7 1_555 1_555
C12 C13 1_555 1_555

#END
