
#######################################################################
#
#                 Cambridge Crystallographic Data Centre
#                                CCDC 
#
#######################################################################
#
# If this CIF has been generated from an entry in the Cambridge 
# Structural Database, then it will include bibliographic, chemical, 
# crystal, experimental, refinement or atomic coordinate data resulting 
# from the CCDC's data processing and validation procedures.
#
#######################################################################

data_HAGQUD
_symmetry_cell_setting           triclinic
_symmetry_space_group_name_H-M   'P -1'
_symmetry_Int_Tables_number      2
_space_group_name_Hall           '-P 1'
loop_
_symmetry_equiv_pos_site_id
_symmetry_equiv_pos_as_xyz
1 x,y,z
2 -x,-y,-z
_cell_length_a                   7.4896(3)
_cell_length_b                   11.0199(5)
_cell_length_c                   13.0410(6)
_cell_angle_alpha                105.516(4)
_cell_angle_beta                 97.114(4)
_cell_angle_gamma                96.877(4)
_cell_volume                     1015.89
loop_
_atom_site_label
_atom_site_type_symbol
_atom_site_fract_x
_atom_site_fract_y
_atom_site_fract_z
Ni1 Ni -0.08683(3) 0.74336(2) 0.654892(19)
O1 O -0.04166(18) 0.29700(12) 0.47900(10)
O2 O -0.18108(18) 0.55616(12) 0.64245(10)
O3 O 0.04724(18) 0.50957(13) 0.74713(11)
O4 O -0.33728(18) 0.25462(13) 0.40336(11)
O5 O -0.24564(18) 0.44191(13) 0.86560(10)
N1 N -0.2101(2) 0.81058(15) 0.79093(13)
N2 N -0.0127(2) 0.94013(15) 0.68588(13)
C1 C -0.2922(3) 0.34099(18) 0.77155(15)
C2 C -0.3645(3) 0.14439(18) 0.58333(16)
H1 H -0.3892 0.0779 0.5197
C3 C -0.0004(3) 1.14047(18) 0.82401(16)
C4 C -0.3787(3) 0.46648(17) 0.93128(15)
C5 C -0.4271(3) 0.12700(18) 0.67498(16)
H2 H -0.4901 0.0483 0.6733
C6 C -0.3955(3) 0.22694(18) 0.76879(15)
H3 H -0.4432 0.2177 0.8293
C7 C -0.2652(3) 0.26047(18) 0.58586(15)
C8 C 0.0903(3) 1.20504(19) 0.76063(16)
H4 H 0.1256 1.2931 0.7850
C9 C -0.5535(3) 0.47573(18) 0.88913(15)
H5 H -0.5881 0.4594 0.8151
C10 C -0.3233(3) 0.49030(17) 1.04127(15)
H6 H -0.2051 0.4836 1.0680
C11 C 0.1259(3) 1.13728(19) 0.66310(17)
H7 H 0.1834 1.1788 0.6198
C12 C -0.2223(2) 0.35903(17) 0.68180(15)
C13 C 0.0746(3) 1.00456(19) 0.62927(16)
H8 H 0.1031 0.9592 0.5639
C14 C -0.1593(3) 0.93811(18) 0.83799(15)
C15 C -0.0466(3) 1.20339(19) 0.92634(16)
H9 H -0.0082 1.2907 0.9562
C16 C -0.2088(3) 0.27361(17) 0.48164(15)
C17 C -0.1060(3) 0.48477(18) 0.69155(15)
C18 C -0.3131(3) 0.74516(19) 0.84060(16)
H10 H -0.3504 0.6581 0.8088
C19 C -0.3138(3) 0.9303(2) 0.98726(16)
H11 H -0.3474 0.9688 1.0531
C20 C -0.2066(3) 1.00315(19) 0.93619(16)
C21 C -0.0526(3) 1.00800(18) 0.78129(15)
C22 C -0.1451(3) 1.13774(19) 0.98022(16)
H12 H -0.1733 1.1804 1.0465
C23 C -0.3674(3) 0.8024(2) 0.93893(17)
H13 H -0.4396 0.7537 0.9711
O6 O -0.31275(18) 0.73815(13) 0.54514(11)
O7 O 0.15283(18) 0.74844(13) 0.75901(10)
H14 H -0.410(2) 0.752(2) 0.5690(18)
H15 H -0.335(3) 0.6704(16) 0.4924(15)
H16 H 0.134(3) 0.6708(12) 0.762(2)
H17 H 0.233(3) 0.753(2) 0.7182(19)
Ni1A Ni -0.91317(3) 0.25664(2) 1.345108(19)
Ni1A_2 Ni 0.08683(3) 0.25664(2) 0.345108(19)
Ni1_2 Ni -1.08683(3) 0.74336(2) 1.654892(19)
O1A O -0.95834(18) 0.70300(12) 1.52100(10)
O1A_2 O 0.04166(18) 0.70300(12) 0.52100(10)
O1_2 O -1.04166(18) 0.29700(12) 1.47900(10)
O2A O -0.81892(18) 0.44384(12) 1.35755(10)
O3A O -1.04724(18) 0.49043(13) 1.25287(11)
O4A O -0.66272(18) 0.74538(13) 1.59664(11)
O5A O -0.75436(18) 0.55809(13) 1.13440(10)
N1A N -0.7899(2) 0.18942(15) 1.20907(13)
N2A N -0.9873(2) 0.05987(15) 1.31412(13)
C1A C -0.7078(3) 0.65901(18) 1.22845(15)
C2A C -0.6355(3) 0.85561(18) 1.41667(16)
H1A H -0.6108 0.9221 1.4803
C3A C -0.9996(3) -0.14047(18) 1.17599(16)
C4A C -0.6213(3) 0.53352(17) 1.06872(15)
C5A C -0.5729(3) 0.87300(18) 1.32502(16)
H2A H -0.5099 0.9517 1.3267
C6A C -0.6045(3) 0.77306(18) 1.23121(15)
H3A H -0.5568 0.7823 1.1707
C7A C -0.7348(3) 0.73953(18) 1.41414(15)
C8A C -1.0903(3) -0.20504(19) 1.23937(16)
H4A H -1.1256 -0.2931 1.2150
C9A C -0.4465(3) 0.52427(18) 1.11087(15)
H5A H -0.4119 0.5406 1.1849
C10A C -0.6767(3) 0.50970(17) 0.95873(15)
H6A H -0.7949 0.5164 0.9320
C11A C -1.1259(3) -0.13728(19) 1.33690(17)
H7A H -1.1834 -0.1788 1.3802
C12A C -0.7777(2) 0.64097(17) 1.31820(15)
C13A C -1.0746(3) -0.00456(19) 1.37073(16)
H8A H -1.1031 0.0408 1.4361
C14A C -0.8407(3) 0.06189(18) 1.16201(15)
C15A C -0.9534(3) -0.20339(19) 1.07366(16)
H9A H -0.9918 -0.2907 1.0438
C16A C -0.7912(3) 0.72639(17) 1.51836(15)
C17A C -0.8940(3) 0.51523(18) 1.30845(15)
C18A C -0.6869(3) 0.25484(19) 1.15940(16)
H10A H -0.6496 0.3419 1.1912
C19A C -0.6862(3) 0.0697(2) 1.01274(16)
H11A H -0.6526 0.0312 0.9469
C20A C -0.7934(3) -0.00315(19) 1.06381(16)
C21A C -0.9474(3) -0.00800(18) 1.21871(15)
C22A C -0.8549(3) -0.13774(19) 1.01978(16)
H12A H -0.8267 -0.1804 0.9535
C23A C -0.6326(3) 0.1976(2) 1.06107(17)
H13A H -0.5604 0.2463 1.0289
O6A O -0.68725(18) 0.26185(13) 1.45486(11)
O7A O -1.15283(18) 0.25156(13) 1.24099(10)
H14A H -0.590(2) 0.248(2) 1.4310(18)
H15A H -0.665(3) 0.3296(16) 1.5076(15)
H16A H -1.134(3) 0.3292(12) 1.238(2)
H17A H -1.233(3) 0.247(2) 1.2818(19)
O8 O -0.5686(2) 0.48782(14) 0.61754(12)
H18 H -0.4547(14) 0.509(2) 0.619(2)
H19 H -0.624(3) 0.5465(19) 0.606(2)
loop_
_geom_bond_atom_site_label_1
_geom_bond_atom_site_label_2
_geom_bond_site_symmetry_1
_geom_bond_site_symmetry_2
Ni1 O2 1_555 1_555
O1 C16 1_555 1_555
O2 C17 1_555 1_555
O3 C17 1_555 1_555
O4 C16 1_555 1_555
O5 C1 1_555 1_555
N1 Ni1 1_555 1_555
N2 Ni1 1_555 1_555
C1 C6 1_555 1_555
C2 H1 1_555 1_555
C3 C8 1_555 1_555
C4 O5 1_555 1_555
C5 C2 1_555 1_555
H2 C5 1_555 1_555
C6 C5 1_555 1_555
H3 C6 1_555 1_555
C7 C2 1_555 1_555
C8 H4 1_555 1_555
C9 C4 1_555 1_555
H5 C9 1_555 1_555
C10 C4 1_555 1_555
H6 C10 1_555 1_555
C11 C8 1_555 1_555
H7 C11 1_555 1_555
C12 C1 1_555 1_555
C13 N2 1_555 1_555
H8 C13 1_555 1_555
C14 N1 1_555 1_555
C15 C3 1_555 1_555
H9 C15 1_555 1_555
C16 C7 1_555 1_555
C17 C12 1_555 1_555
C18 N1 1_555 1_555
H10 C18 1_555 1_555
C19 H11 1_555 1_555
C20 C14 1_555 1_555
C21 N2 1_555 1_555
C22 C15 1_555 1_555
H12 C22 1_555 1_555
C23 C18 1_555 1_555
H13 C23 1_555 1_555
O6 Ni1 1_555 1_555
O7 Ni1 1_555 1_555
H14 O6 1_555 1_555
H15 O6 1_555 1_555
H16 O7 1_555 1_555
H17 O7 1_555 1_555
O8 H18 1_555 1_555
H19 O8 1_555 1_555
Ni1A O1_2 1_555 1_555
Ni1A_2 O1 1_555 1_555
Ni1_2 O1A 1_555 1_555
O1A C16A 1_555 1_555
O1A_2 Ni1 1_555 1_555
O2A Ni1A 1_555 1_555
O3A C17A 1_555 1_555
O4A C16A 1_555 1_555
O5A C1A 1_555 1_555
N1A Ni1A 1_555 1_555
N2A Ni1A 1_555 1_555
C1A C6A 1_555 1_555
C2A H1A 1_555 1_555
C3A C8A 1_555 1_555
C4A O5A 1_555 1_555
C5A C2A 1_555 1_555
H2A C5A 1_555 1_555
C6A C5A 1_555 1_555
H3A C6A 1_555 1_555
C7A C2A 1_555 1_555
C8A H4A 1_555 1_555
C9A C10 1_555 1_555
H5A C9A 1_555 1_555
C10A C9 1_555 1_555
H6A C10A 1_555 1_555
C11A C8A 1_555 1_555
H7A C11A 1_555 1_555
C12A C1A 1_555 1_555
C13A N2A 1_555 1_555
H8A C13A 1_555 1_555
C14A N1A 1_555 1_555
C15A C3A 1_555 1_555
H9A C15A 1_555 1_555
C16A C7A 1_555 1_555
C17A O2A 1_555 1_555
C18A N1A 1_555 1_555
H10A C18A 1_555 1_555
C19A H11A 1_555 1_555
C20A C14A 1_555 1_555
C21A N2A 1_555 1_555
C22A C15A 1_555 1_555
H12A C22A 1_555 1_555
C23A C18A 1_555 1_555
H13A C23A 1_555 1_555
O6A Ni1A 1_555 1_555
O7A Ni1A 1_555 1_555
H14A O6A 1_555 1_555
H15A O6A 1_555 1_555
H16A O7A 1_555 1_555
H17A O7A 1_555 1_555
C3 C21 1_555 1_555
C7 C12 1_555 1_555
C11 C13 1_555 1_555
C14 C21 1_555 1_555
C19 C20 1_555 1_555
C19 C23 1_555 1_555
C20 C22 1_555 1_555
C3A C21A 1_555 1_555
C4A C9A 1_555 1_555
C4A C10A 1_555 1_555
C7A C12A 1_555 1_555
C11A C13A 1_555 1_555
C12A C17A 1_555 1_555
C14A C21A 1_555 1_555
C19A C20A 1_555 1_555
C19A C23A 1_555 1_555
C20A C22A 1_555 1_555

#END
