
#######################################################################
#
#                 Cambridge Crystallographic Data Centre
#                                CCDC 
#
#######################################################################
#
# If this CIF has been generated from an entry in the Cambridge 
# Structural Database, then it will include bibliographic, chemical, 
# crystal, experimental, refinement or atomic coordinate data resulting 
# from the CCDC's data processing and validation procedures.
#
#######################################################################

data_HAGQOX
_symmetry_cell_setting           triclinic
_symmetry_space_group_name_H-M   'P -1'
_symmetry_Int_Tables_number      2
_space_group_name_Hall           '-P 1'
loop_
_symmetry_equiv_pos_site_id
_symmetry_equiv_pos_as_xyz
1 x,y,z
2 -x,-y,-z
_cell_length_a                   7.5553(8)
_cell_length_b                   11.1343(11)
_cell_length_c                   13.1444(14)
_cell_angle_alpha                105.5340(10)
_cell_angle_beta                 96.441(2)
_cell_angle_gamma                97.166(2)
_cell_volume                     1044.7
loop_
_atom_site_label
_atom_site_type_symbol
_atom_site_fract_x
_atom_site_fract_y
_atom_site_fract_z
C1 C 0.8379(3) 0.93901(19) 0.84001(15)
C2 C 0.6842(3) 0.7485(2) 0.84313(18)
H1 H 0.6466 0.6624 0.8115
C3 C 0.6312(3) 0.8042(2) 0.94112(19)
H2 H 0.5595 0.7556 0.9732
C4 C 0.6852(3) 0.9297(2) 0.98917(18)
H3 H 0.6524 0.9673 1.0550
C5 C 0.7911(3) 1.0027(2) 0.93871(16)
C6 C 0.8526(3) 1.1360(2) 0.98230(18)
H4 H 0.8249 1.1780 1.0484
C7 C 0.9498(3) 1.2013(2) 0.92889(19)
H5 H 0.9876 1.2876 0.9589
C8 C 0.9964(3) 1.14033(19) 0.82652(17)
C9 C 1.0872(3) 1.2044(2) 0.7643(2)
H6 H 1.1223 1.2916 0.7889
C10 C 1.1238(3) 1.1387(2) 0.6676(2)
H7 H 1.1818 1.1806 0.6251
C11 C 1.0730(3) 1.0078(2) 0.63337(17)
H8 H 1.1019 0.9636 0.5683
C12 C 0.9443(3) 1.00901(18) 0.78424(15)
C13 C 0.8919(2) 0.48307(17) 0.69135(14)
C14 C 0.7761(2) 0.35859(17) 0.68296(14)
C15 C 0.7916(2) 0.27292(17) 0.48415(14)
C16 C 0.7336(2) 0.26053(17) 0.58796(14)
C17 C 0.6345(3) 0.14588(18) 0.58626(16)
H9 H 0.6099 0.0799 0.5233
C18 C 0.5718(3) 0.12873(19) 0.67733(16)
H10 H 0.5087 0.0510 0.6761
C19 C 0.6039(3) 0.22800(19) 0.77007(15)
H11 H 0.5570 0.2188 0.8305
C20 C 0.7061(2) 0.34100(18) 0.77253(14)
C21 C 0.6202(3) 0.46571(18) 0.93091(15)
C22 C 0.6748(3) 0.49042(18) 1.03998(15)
H12 H 0.7917 0.4839 1.0661
C23 C 0.5524(3) 0.52507(19) 1.10944(15)
H13 H 0.5867 0.5420 1.1827
N1 N 0.9854(2) 0.94286(15) 0.68894(13)
N2 N 0.7859(2) 0.81317(16) 0.79320(13)
O1 O 0.81886(18) 0.55473(12) 0.64500(11)
O2 O 1.04533(19) 0.50610(14) 0.74363(13)
O3 O 0.95634(17) 0.29716(13) 0.48104(10)
O4 O 0.66651(19) 0.25191(17) 0.40659(11)
O5 O 0.75249(19) 0.44055(14) 0.86551(11)
O6 O 1.15445(18) 0.74671(13) 0.75735(10)
H14 H 1.1357 0.6702 0.7584
H15 H 1.2304 0.7542 0.7153
O7 O 0.68280(18) 0.73748(14) 0.54606(11)
H16 H 0.6626 0.6752 0.4906
H17 H 0.5862 0.7514 0.5702
Co1 Co 0.90963(3) 0.74193(2) 0.653441(18)
C1A C 0.1621(3) 0.06099(19) 1.15999(15)
C2A C 0.3158(3) 0.2515(2) 1.15687(18)
H1A H 0.3534 0.3376 1.1885
C3A C 0.3688(3) 0.1958(2) 1.05888(19)
H2A H 0.4405 0.2444 1.0268
C4A C 0.3148(3) 0.0703(2) 1.01083(18)
H3A H 0.3476 0.0327 0.9450
C5A C 0.2089(3) -0.0027(2) 1.06129(16)
C6A C 0.1474(3) -0.1360(2) 1.01770(18)
H4A H 0.1751 -0.1780 0.9516
C7A C 0.0502(3) -0.2013(2) 1.07111(19)
H5A H 0.0124 -0.2876 1.0411
C8A C 0.0036(3) -0.14033(19) 1.17348(17)
C9A C -0.0872(3) -0.2044(2) 1.2357(2)
H6A H -0.1223 -0.2916 1.2111
C10A C -0.1238(3) -0.1387(2) 1.3324(2)
H7A H -0.1818 -0.1806 1.3749
C11A C -0.0730(3) -0.0078(2) 1.36663(17)
H8A H -0.1019 0.0364 1.4317
C12A C 0.0557(3) -0.00901(18) 1.21576(15)
C13A C 0.1081(2) 0.51693(17) 1.30865(14)
C14A C 0.2239(2) 0.64141(17) 1.31704(14)
C15A C 0.2084(2) 0.72708(17) 1.51585(14)
C16A C 0.2664(2) 0.73947(17) 1.41204(14)
C17A C 0.3655(3) 0.85412(18) 1.41374(16)
H9A H 0.3901 0.9201 1.4767
C18A C 0.4282(3) 0.87127(19) 1.32267(16)
H10A H 0.4913 0.9490 1.3239
C19A C 0.3961(3) 0.77200(19) 1.22993(15)
H11A H 0.4430 0.7812 1.1695
C20A C 0.2939(2) 0.65900(18) 1.22747(14)
C21A C 0.3798(3) 0.53429(18) 1.06909(15)
C22A C 0.3252(3) 0.50958(18) 0.96002(15)
H12A H 0.2083 0.5161 0.9339
C23A C 0.4476(3) 0.47493(19) 0.89056(15)
H13A H 0.4133 0.4580 0.8173
N1A N 0.0146(2) 0.05714(15) 1.31106(13)
N2A N 0.2141(2) 0.18683(16) 1.20680(13)
O1A O 0.18114(18) 0.44527(12) 1.35500(11)
O2A O -0.04533(19) 0.49390(14) 1.25637(13)
O3A O 0.04366(17) 0.70284(13) 1.51896(10)
O3_2 O -0.04366(17) 0.29716(13) 1.48104(10)
O3A_2 O 1.04366(17) 0.70284(13) 0.51896(10)
O4A O 0.33349(19) 0.74809(17) 1.59341(11)
O5A O 0.24751(19) 0.55945(14) 1.13449(11)
O6A O -0.15445(18) 0.25329(13) 1.24265(10)
H14A H -0.1357 0.3298 1.2416
H15A H -0.2304 0.2458 1.2847
O7A O 0.31720(18) 0.26252(14) 1.45394(11)
H16A H 0.3374 0.3248 1.5094
H17A H 0.4138 0.2486 1.4298
Co1A Co 0.09037(3) 0.25807(2) 1.346559(18)
Co1_2 Co -0.09037(3) 0.74193(2) 1.653441(18)
Co1A_2 Co 1.09037(3) 0.25807(2) 0.346559(18)
O8 O 0.5866(4) 0.5178(2) 0.38063(16)
H18 H 0.5777 0.4500 0.4004
H19 H 0.6948 0.5404 0.3762
loop_
_geom_bond_atom_site_label_1
_geom_bond_atom_site_label_2
_geom_bond_site_symmetry_1
_geom_bond_site_symmetry_2
C1 C5 1_555 1_555
C2 H1 1_555 1_555
C3 C2 1_555 1_555
H2 C3 1_555 1_555
C4 C3 1_555 1_555
H3 C4 1_555 1_555
C5 C4 1_555 1_555
C6 C5 1_555 1_555
H4 C6 1_555 1_555
C7 C6 1_555 1_555
H5 C7 1_555 1_555
C8 C7 1_555 1_555
C9 C8 1_555 1_555
H6 C9 1_555 1_555
C10 C9 1_555 1_555
H7 C10 1_555 1_555
C11 C10 1_555 1_555
H8 C11 1_555 1_555
C12 C1 1_555 1_555
C13 C14 1_555 1_555
C14 C16 1_555 1_555
C15 C16 1_555 1_555
C16 C17 1_555 1_555
C17 H9 1_555 1_555
C18 C17 1_555 1_555
H10 C18 1_555 1_555
C19 C18 1_555 1_555
H11 C19 1_555 1_555
C20 C14 1_555 1_555
C21 C22 1_555 1_555
C22 H12 1_555 1_555
C23 C22 1_555 1_555
H13 C23 1_555 1_555
N1 C11 1_555 1_555
N2 C1 1_555 1_555
O1 C13 1_555 1_555
O2 C13 1_555 1_555
O3 C15 1_555 1_555
O4 C15 1_555 1_555
O5 C20 1_555 1_555
O6 H14 1_555 1_555
H15 O6 1_555 1_555
O7 H16 1_555 1_555
H17 O7 1_555 1_555
Co1 N1 1_555 1_555
O8 H18 1_555 1_555
H19 O8 1_555 1_555
C1A C5A 1_555 1_555
C2A H1A 1_555 1_555
C3A C2A 1_555 1_555
H2A C3A 1_555 1_555
C4A C3A 1_555 1_555
H3A C4A 1_555 1_555
C5A C4A 1_555 1_555
C6A C5A 1_555 1_555
H4A C6A 1_555 1_555
C7A C6A 1_555 1_555
H5A C7A 1_555 1_555
C8A C7A 1_555 1_555
C9A C8A 1_555 1_555
H6A C9A 1_555 1_555
C10A C9A 1_555 1_555
H7A C10A 1_555 1_555
C11A C10A 1_555 1_555
H8A C11A 1_555 1_555
C12A C1A 1_555 1_555
C13A C14A 1_555 1_555
C14A C16A 1_555 1_555
C15A C16A 1_555 1_555
C16A C17A 1_555 1_555
C17A H9A 1_555 1_555
C18A C17A 1_555 1_555
H10A C18A 1_555 1_555
C19A C18A 1_555 1_555
H11A C19A 1_555 1_555
C20A C14A 1_555 1_555
C21A C23 1_555 1_555
C22A C21A 1_555 1_555
H12A C22A 1_555 1_555
C23A C21 1_555 1_555
H13A C23A 1_555 1_555
N1A C11A 1_555 1_555
N2A C1A 1_555 1_555
O1A C13A 1_555 1_555
O2A C13A 1_555 1_555
O3A C15A 1_555 1_555
O3_2 Co1A 1_555 1_555
O3A_2 Co1 1_555 1_555
O4A C15A 1_555 1_555
O5A C20A 1_555 1_555
O6A H14A 1_555 1_555
H15A O6A 1_555 1_555
O7A H16A 1_555 1_555
H17A O7A 1_555 1_555
Co1A N1A 1_555 1_555
Co1_2 O3A 1_555 1_555
Co1A_2 O3 1_555 1_555
C2 N2 1_555 1_555
C8 C12 1_555 1_555
C12 N1 1_555 1_555
C19 C20 1_555 1_555
C21 O5 1_555 1_555
N2 Co1 1_555 1_555
O1 Co1 1_555 1_555
O6 Co1 1_555 1_555
O7 Co1 1_555 1_555
C2A N2A 1_555 1_555
C8A C12A 1_555 1_555
C12A N1A 1_555 1_555
C19A C20A 1_555 1_555
C21A O5A 1_555 1_555
C22A C23A 1_555 1_555
N2A Co1A 1_555 1_555
O1A Co1A 1_555 1_555
O6A Co1A 1_555 1_555
O7A Co1A 1_555 1_555

#END
