
#######################################################################
#
#                 Cambridge Crystallographic Data Centre
#                                CCDC 
#
#######################################################################
#
# If this CIF has been generated from an entry in the Cambridge 
# Structural Database, then it will include bibliographic, chemical, 
# crystal, experimental, refinement or atomic coordinate data resulting 
# from the CCDC's data processing and validation procedures.
#
#######################################################################

data_HAGQEN
_symmetry_cell_setting           triclinic
_symmetry_space_group_name_H-M   'P -1'
_symmetry_Int_Tables_number      2
_space_group_name_Hall           '-P 1'
loop_
_symmetry_equiv_pos_site_id
_symmetry_equiv_pos_as_xyz
1 x,y,z
2 -x,-y,-z
_cell_length_a                   8.9653(13)
_cell_length_b                   10.1138(15)
_cell_length_c                   16.748(3)
_cell_angle_alpha                82.591(2)
_cell_angle_beta                 78.728(2)
_cell_angle_gamma                73.359(2)
_cell_volume                     1422.62
loop_
_atom_site_label
_atom_site_type_symbol
_atom_site_fract_x
_atom_site_fract_y
_atom_site_fract_z
Co1 Co 1.0000 0.0000 0.0000
O1 O 1.08043(13) 0.06771(12) 0.09525(7)
O2 O 1.20975(14) 0.21540(13) 0.02331(7)
O3 O 0.84069(13) -0.08533(12) 0.09104(7)
H1 H 0.8103 -0.1315 0.0637
H2 H 0.8918 -0.1355 0.1253
O4 O 1.44909(16) -0.00474(15) 0.10967(9)
O5 O 1.58393(16) 0.06724(16) 0.18590(10)
H3 H 1.6603 0.0176 0.1584
O6 O 0.91277(16) 0.33675(17) 0.16727(10)
O7 O 0.04510(18) 0.95148(13) 0.24406(8)
H4 H 0.0451 0.9825 0.1963
O8 O 0.01793(17) 0.76279(14) 0.19817(8)
O9 O -0.24514(17) 0.85061(18) 0.34349(9)
O10 O -0.27450(17) 0.75576(19) 0.47152(10)
H5 H -0.3686 0.7895 0.4696
O11 O 0.34959(15) 0.72552(14) 0.25968(9)
N1 N 1.18090(16) -0.19296(14) 0.00915(9)
C1 C 1.15657(18) 0.15932(16) 0.08856(10)
C2 C 1.4555(2) -0.30663(18) 0.00675(12)
H6 H 1.5562 -0.2985 0.0069
C3 C 1.3291(2) -0.19053(18) 0.00977(11)
H7 H 1.3478 -0.1055 0.0124
C4 C 1.4525(2) 0.06708(18) 0.16046(11)
C5 C 0.0434(2) 0.82157(18) 0.25054(11)
C6 C 1.17209(19) 0.20861(17) 0.16753(10)
C7 C 1.43269(19) -0.43630(16) 0.00345(10)
C8 C 1.2779(2) -0.44016(18) 0.00668(12)
H8 H 1.2551 -0.5244 0.0072
C9 C 1.3108(2) 0.16835(18) 0.20149(10)
C10 C 0.0908(2) 0.74528(18) 0.32862(10)
C11 C 1.1580(2) -0.31865(18) 0.00920(12)
H9 H 1.0555 -0.3241 0.0110
C12 C 1.0410(2) 0.3036(2) 0.20672(12)
C13 C 0.2514(2) 0.69212(19) 0.32898(11)
C14 C -0.0161(2) 0.72415(19) 0.39910(11)
C15 C -0.1901(2) 0.7835(2) 0.40064(12)
C16 C 1.3153(2) 0.2222(2) 0.27327(11)
H10 H 1.4077 0.1960 0.2956
C17 C 0.7743(2) 0.4368(2) 0.19434(13)
C18 C 0.4929(2) 0.6264(2) 0.23765(12)
C19 C 0.6366(2) 0.3971(2) 0.20517(14)
H11 H 0.6392 0.3065 0.1985
C20 C 1.0451(2) 0.3551(2) 0.27879(13)
H12 H 0.9561 0.4165 0.3050
C21 C 0.3078(2) 0.6165(2) 0.39687(13)
H13 H 0.4158 0.5801 0.3960
C22 C 0.0422(2) 0.6501(2) 0.46741(12)
H14 H -0.0277 0.6370 0.5148
C23 C 1.1827(2) 0.3143(2) 0.31122(12)
H15 H 1.1864 0.3493 0.3593
C24 C 0.7726(2) 0.5707(2) 0.20243(16)
H16 H 0.8665 0.5967 0.1924
C25 C 0.4943(2) 0.4944(2) 0.22613(14)
H17 H 0.3998 0.4703 0.2324
C26 C 0.2025(3) 0.5958(2) 0.46575(13)
H18 H 0.2396 0.5448 0.5116
C27 C 0.6297(2) 0.6672(2) 0.22573(14)
H19 H 0.6267 0.7575 0.2331
Co1_2 Co 2.0000 -1.0000 0.0000
O1A O 0.91957(13) -0.06771(12) -0.09525(7)
O2A O 0.79025(14) -0.21540(13) -0.02331(7)
O3A O 1.15931(13) 0.08533(12) -0.09104(7)
H1A H 1.1897 0.1315 -0.0637
H2A H 1.1082 0.1355 -0.1253
O4A O 0.55091(16) 0.00474(15) -0.10967(9)
O5A O 0.41607(16) -0.06724(16) -0.18590(10)
H3A H 0.3397 -0.0176 -0.1584
O6A O 1.08723(16) -0.33675(17) -0.16727(10)
O7A O 1.95490(18) -0.95148(13) -0.24406(8)
H4A H 1.9549 -0.9825 -0.1963
O8A O 1.98207(17) -0.76279(14) -0.19817(8)
O9A O 2.24514(17) -0.85061(18) -0.34349(9)
O10A O 2.27450(17) -0.75576(19) -0.47152(10)
H5A H 2.3686 -0.7895 -0.4696
O11A O 1.65041(15) -0.72552(14) -0.25968(9)
N1A N 1.81910(16) -0.80704(14) -0.00915(9)
N1A_2 N 0.81910(16) 0.19296(14) -0.00915(9)
C1A C 0.84343(18) -0.15932(16) -0.08856(10)
C2A C 1.5445(2) -0.69337(18) -0.00675(12)
H6A H 1.4438 -0.7015 -0.0069
C3A C 1.6709(2) -0.80947(18) -0.00977(11)
H7A H 1.6522 -0.8945 -0.0124
C4A C 0.5475(2) -0.06708(18) -0.16046(11)
C5A C 1.9566(2) -0.82157(18) -0.25054(11)
C6A C 0.82791(19) -0.20861(17) -0.16753(10)
C7A C 1.56731(19) -0.56370(16) -0.00345(10)
C8A C 1.7221(2) -0.55984(18) -0.00668(12)
H8A H 1.7449 -0.4756 -0.0072
C9A C 0.6892(2) -0.16835(18) -0.20149(10)
C10A C 1.9092(2) -0.74528(18) -0.32862(10)
C11A C 1.8420(2) -0.68135(18) -0.00920(12)
H9A H 1.9445 -0.6759 -0.0110
C12A C 0.9590(2) -0.3036(2) -0.20672(12)
C13A C 1.7486(2) -0.69212(19) -0.32898(11)
C14A C 2.0161(2) -0.72415(19) -0.39910(11)
C15A C 2.1901(2) -0.7835(2) -0.40064(12)
C16A C 0.6847(2) -0.2222(2) -0.27327(11)
H10A H 0.5923 -0.1960 -0.2956
C17A C 1.2257(2) -0.4368(2) -0.19434(13)
C18A C 1.5071(2) -0.6264(2) -0.23765(12)
C19A C 1.3634(2) -0.3971(2) -0.20517(14)
H11A H 1.3608 -0.3065 -0.1985
C20A C 0.9549(2) -0.3551(2) -0.27879(13)
H12A H 1.0439 -0.4165 -0.3050
C21A C 1.6922(2) -0.6165(2) -0.39687(13)
H13A H 1.5842 -0.5801 -0.3960
C22A C 1.9578(2) -0.6501(2) -0.46741(12)
H14A H 2.0277 -0.6370 -0.5148
C23A C 0.8173(2) -0.3143(2) -0.31122(12)
H15A H 0.8136 -0.3493 -0.3593
C24A C 1.2274(2) -0.5707(2) -0.20243(16)
H16A H 1.1335 -0.5967 -0.1924
C25A C 1.5057(2) -0.4944(2) -0.22613(14)
H17A H 1.6002 -0.4703 -0.2324
C26A C 1.7975(3) -0.5958(2) -0.46575(13)
H18A H 1.7604 -0.5448 -0.5116
C27A C 1.3703(2) -0.6672(2) -0.22573(14)
H19A H 1.3733 -0.7575 -0.2331
N2 N 0.4164(2) 0.8679(2) 0.48625(12)
C28 C 0.0874(2) 0.9726(2) 0.49728(13)
C29 C 0.1900(2) 0.9814(2) 0.42400(14)
H20 H 0.1503 1.0227 0.3768
C30 C 0.1566(3) 0.9104(3) 0.56464(14)
H21 H 0.0938 0.9023 0.6153
C31 C 0.3510(3) 0.9285(2) 0.42150(15)
H22 H 0.4172 0.9357 0.3718
C32 C 0.3185(3) 0.8606(3) 0.55648(15)
H23 H 0.3617 0.8196 0.6027
N2A N -0.4164(2) 1.1321(2) 0.51375(12)
C28A C -0.0874(2) 1.0274(2) 0.50272(13)
C29A C -0.1900(2) 1.0186(2) 0.57600(14)
H20A H -0.1503 0.9773 0.6232
C30A C -0.1566(3) 1.0896(3) 0.43536(14)
H21A H -0.0938 1.0977 0.3847
C31A C -0.3510(3) 1.0715(2) 0.57850(15)
H22A H -0.4172 1.0643 0.6282
C32A C -0.3185(3) 1.1394(3) 0.44352(15)
H23A H -0.3617 1.1804 0.3973
loop_
_geom_bond_atom_site_label_1
_geom_bond_atom_site_label_2
_geom_bond_site_symmetry_1
_geom_bond_site_symmetry_2
Co1 O1 1_555 1_555
O1 C1 1_555 1_555
O2 C1 1_555 1_555
O3 Co1 1_555 1_555
H1 O3 1_555 1_555
H2 O3 1_555 1_555
O4 C4 1_555 1_555
O5 H3 1_555 1_555
O6 C12 1_555 1_555
O7 H4 1_555 1_555
O8 C5 1_555 1_555
O9 C15 1_555 1_555
O10 H5 1_555 1_555
O11 C13 1_555 1_555
N1 Co1 1_555 1_555
C1 C6 1_555 1_555
C2 H6 1_555 1_555
C3 N1 1_555 1_555
H7 C3 1_555 1_555
C4 O5 1_555 1_555
C5 O7 1_555 1_555
C6 C9 1_555 1_555
C7 C2 1_555 1_555
C8 C7 1_555 1_555
H8 C8 1_555 1_555
C9 C4 1_555 1_555
C10 C5 1_555 1_555
C11 N1 1_555 1_555
H9 C11 1_555 1_555
C12 C6 1_555 1_555
C13 C10 1_555 1_555
C14 C10 1_555 1_555
C15 O10 1_555 1_555
C16 C9 1_555 1_555
H10 C16 1_555 1_555
C17 O6 1_555 1_555
C18 O11 1_555 1_555
C19 C17 1_555 1_555
H11 C19 1_555 1_555
C20 C12 1_555 1_555
H12 C20 1_555 1_555
C21 C13 1_555 1_555
H13 C21 1_555 1_555
C22 C14 1_555 1_555
H14 C22 1_555 1_555
C23 C16 1_555 1_555
H15 C23 1_555 1_555
C24 C17 1_555 1_555
H16 C24 1_555 1_555
C25 C18 1_555 1_555
H17 C25 1_555 1_555
C26 C21 1_555 1_555
H18 C26 1_555 1_555
C27 C18 1_555 1_555
H19 C27 1_555 1_555
N2 C31 1_555 1_555
C28 C29 1_555 1_555
C29 H20 1_555 1_555
C30 C28 1_555 1_555
H21 C30 1_555 1_555
C31 C29 1_555 1_555
H22 C31 1_555 1_555
C32 N2 1_555 1_555
H23 C32 1_555 1_555
Co1_2 N1A 1_555 1_555
O1A Co1 1_555 1_555
O2A C1A 1_555 1_555
O3A Co1 1_555 1_555
H1A O3A 1_555 1_555
H2A O3A 1_555 1_555
O4A C4A 1_555 1_555
O5A H3A 1_555 1_555
O6A C12A 1_555 1_555
O7A H4A 1_555 1_555
O8A C5A 1_555 1_555
O9A C15A 1_555 1_555
O10A H5A 1_555 1_555
O11A C13A 1_555 1_555
N1A C3A 1_555 1_555
N1A_2 Co1 1_555 1_555
C1A O1A 1_555 1_555
C2A H6A 1_555 1_555
C3A C2A 1_555 1_555
H7A C3A 1_555 1_555
C4A O5A 1_555 1_555
C5A O7A 1_555 1_555
C6A C1A 1_555 1_555
C7A C7 1_555 1_555
C8A C7A 1_555 1_555
H8A C8A 1_555 1_555
C9A C4A 1_555 1_555
C10A C5A 1_555 1_555
C11A N1A 1_555 1_555
H9A C11A 1_555 1_555
C12A C6A 1_555 1_555
C13A C10A 1_555 1_555
C14A C10A 1_555 1_555
C15A O10A 1_555 1_555
C16A C9A 1_555 1_555
H10A C16A 1_555 1_555
C17A O6A 1_555 1_555
C18A O11A 1_555 1_555
C19A C17A 1_555 1_555
H11A C19A 1_555 1_555
C20A C12A 1_555 1_555
H12A C20A 1_555 1_555
C21A C13A 1_555 1_555
H13A C21A 1_555 1_555
C22A C14A 1_555 1_555
H14A C22A 1_555 1_555
C23A C16A 1_555 1_555
H15A C23A 1_555 1_555
C24A C17A 1_555 1_555
H16A C24A 1_555 1_555
C25A C18A 1_555 1_555
H17A C25A 1_555 1_555
C26A C21A 1_555 1_555
H18A C26A 1_555 1_555
C27A C18A 1_555 1_555
H19A C27A 1_555 1_555
N2A C31A 1_555 1_555
C28A C28 1_555 1_555
C29A C28A 1_555 1_555
H20A C29A 1_555 1_555
C30A C28A 1_555 1_555
H21A C30A 1_555 1_555
C31A C29A 1_555 1_555
H22A C31A 1_555 1_555
C32A N2A 1_555 1_555
H23A C32A 1_555 1_555
C2 C3 1_555 1_555
C8 C11 1_555 1_555
C14 C15 1_555 1_555
C19 C25 1_555 1_555
C20 C23 1_555 1_555
C22 C26 1_555 1_555
C24 C27 1_555 1_555
C30 C32 1_555 1_555
C2A C7A 1_555 1_555
C6A C9A 1_555 1_555
C8A C11A 1_555 1_555
C14A C15A 1_555 1_555
C19A C25A 1_555 1_555
C20A C23A 1_555 1_555
C22A C26A 1_555 1_555
C24A C27A 1_555 1_555
C30A C32A 1_555 1_555

#END
