
#######################################################################
#
#                 Cambridge Crystallographic Data Centre
#                                CCDC 
#
#######################################################################
#
# If this CIF has been generated from an entry in the Cambridge 
# Structural Database, then it will include bibliographic, chemical, 
# crystal, experimental, refinement or atomic coordinate data resulting 
# from the CCDC's data processing and validation procedures.
#
#######################################################################

data_HAGRIS
_symmetry_cell_setting           triclinic
_symmetry_space_group_name_H-M   'P -1'
_symmetry_Int_Tables_number      2
_space_group_name_Hall           '-P 1'
loop_
_symmetry_equiv_pos_site_id
_symmetry_equiv_pos_as_xyz
1 x,y,z
2 -x,-y,-z
_cell_length_a                   13.432(5)
_cell_length_b                   13.628(5)
_cell_length_c                   15.807(5)
_cell_angle_alpha                107.065(5)
_cell_angle_beta                 93.864(5)
_cell_angle_gamma                116.471(5)
_cell_volume                     2408.78
loop_
_atom_site_label
_atom_site_type_symbol
_atom_site_fract_x
_atom_site_fract_y
_atom_site_fract_z
O3 O 0.2046(19) 0.398(2) 0.0590(16)
O5 O 0.217(2) 0.2789(18) 0.2234(16)
O7 O 0.770(3) 0.243(4) 0.810(2)
C1 C 1.4284(16) 0.5635(18) 0.3656(12)
H1 H 1.4784 0.5546 0.3261
H2 H 1.4183 0.5133 0.4005
C2 C 1.4829(14) 0.6897(16) 0.4295(11)
H3 H 1.5529 0.7105 0.4695
H4 H 1.5015 0.7416 0.3952
C3 C 1.2364(16) 0.5502(16) 0.3607(13)
H5 H 1.2090 0.4984 0.3948
H6 H 1.1711 0.5356 0.3185
C4 C 1.2993(19) 0.6802(19) 0.4267(14)
H7 H 1.3203 0.7320 0.3922
H8 H 1.2492 0.6957 0.4634
C5 C 1.4014(15) 0.6830(15) 0.5622(13)
C6 C 1.4862(13) 0.6622(14) 0.6768(10)
H9 H 1.5502 0.6661 0.7075
C7 C 1.3046(15) 0.6430(14) 0.6716(12)
C8 C 1.3808(14) 0.5952(13) 0.7920(11)
C9 C 1.2787(15) 0.5718(13) 0.8210(10)
C10 C 1.1933(15) 0.5825(14) 0.7739(11)
H10 H 1.1245 0.5621 0.7919
C11 C 1.3901(12) 0.6327(13) 0.7141(10)
C12 C 1.2448(15) 0.5221(14) 0.8948(12)
C13 C 1.116(2) 0.639(2) 0.6635(14)
H11 H 1.0678 0.6406 0.7060
H12 H 1.1531 0.7161 0.6590
C14 C 1.044(4) 0.556(4) 0.576(3)
H13 H 0.9901 0.5786 0.5583
H14 H 1.0035 0.4791 0.5794
H15 H 1.0897 0.5544 0.5321
C15 C 1.5640(15) 0.3505(15) 0.8350(10)
C16 C 1.4880(14) 0.2604(14) 0.8685(11)
C17 C 1.4764(15) 0.1470(15) 0.8287(11)
H16 H 1.5184 0.1364 0.7859
C18 C 1.4257(14) 0.2801(13) 0.9360(10)
C19 C 1.3567(16) 0.1798(14) 0.9569(10)
C20 C 1.3459(14) 0.0666(13) 0.9149(10)
C21 C 1.2917(17) 0.1839(16) 1.0225(12)
H17 H 1.2956 0.2557 1.0528
C22 C 1.2248(19) -0.0096(15) 0.9975(12)
C23 C 1.151(3) -0.2162(19) 0.977(2)
H18 H 1.1486 -0.2303 0.9125
H19 H 1.2214 -0.2099 1.0036
C24 C 1.061(3) -0.313(2) 0.984(2)
H20 H 1.0839 -0.3731 0.9753
H21 H 0.9977 -0.3433 0.9329
C25 C 1.4117(18) -0.0551(14) 0.8105(12)
H22 H 1.3406 -0.1188 0.8119
H23 H 1.4152 -0.0688 0.7472
C26 C 1.507(2) -0.059(2) 0.8571(16)
H24 H 1.5019 -0.1341 0.8278
H25 H 1.5030 -0.0481 0.9194
H26 H 1.5778 0.0022 0.8548
C27 C 1.107(3) -0.091(2) 1.096(2)
H27 H 1.1667 -0.0599 1.1499
H28 H 1.0828 -0.0329 1.1004
C28 C 1.011(2) -0.1950(16) 1.0995(15)
H29 H 0.9413 -0.2064 1.0650
H30 H 1.0043 -0.1817 1.1621
N1 N 1.3170(13) 0.5266(14) 0.3100(10)
H31 H 1.2835 0.4489 0.2782
H32 H 1.3290 0.5633 0.2697
N2 N 1.3993(14) 0.7023(14) 0.4840(9)
N3 N 1.3068(13) 0.6710(13) 0.5961(9)
N4 N 1.4924(13) 0.6846(13) 0.6020(9)
N5 N 1.2074(12) 0.6209(15) 0.7042(9)
N6 N 1.0188(17) -0.3026(15) 1.0635(14)
H33 H 1.0649 -0.3042 1.1066
H34 H 0.9489 -0.3651 1.0515
N7 N 1.1550(15) -0.1053(12) 1.0174(10)
N8 N 1.2248(15) 0.0926(14) 1.0445(11)
N9 N 1.2820(13) -0.0276(12) 0.9353(10)
N10 N 1.4096(13) 0.0559(12) 0.8490(9)
O1 O 1.2892(16) 0.1359(13) 0.6468(15)
O2 O 1.3588(12) -0.0288(13) 0.6043(11)
O4 O 1.2833(14) 0.0380(11) 0.4762(9)
O6 O 1.3059(13) 0.0572(15) 0.3080(9)
O8 O 1.0914(13) 0.0310(13) 0.2922(10)
O9 O 1.1261(14) -0.1259(12) 0.3307(9)
O10 O 1.0923(19) -0.0395(16) 0.4611(16)
O11 O 1.1484(14) -0.1713(11) 0.4803(10)
O12 O 1.0932(18) 0.0231(17) 0.5903(13)
O13 O 1.1539(18) -0.0743(13) 0.6511(14)
O14 O 1.0486(13) -0.3545(11) 0.3158(8)
O15 O 1.0679(19) 0.1425(19) 0.5556(14)
O16 O 1.068(2) 0.0712(17) 0.4407(13)
O17 O 1.0468(15) -0.0873(14) 0.7942(9)
O18 O 1.0689(13) 0.2110(12) 0.3834(10)
O19 O 1.0964(14) 0.264(2) 0.7045(11)
O20 O 0.9304(16) -0.307(2) 0.4458(12)
O21 O 1.1325(16) 0.1075(13) 0.7432(14)
O22 O 1.2476(14) 0.1953(12) 0.4374(10)
O23 O 1.2670(12) 0.4149(11) 0.4918(11)
O24 O 1.2491(15) 0.291(2) 0.6065(11)
O25 O 1.3128(9) 0.3264(9) 0.7855(7)
O26 O 1.3170(11) 0.5095(11) 0.9414(8)
O27 O 1.1484(12) 0.4986(12) 0.9104(9)
O28 O 1.4653(9) 0.5906(10) 0.8282(8)
O29 O 1.5602(9) 0.4451(10) 0.8498(7)
O30 O 1.6332(12) 0.3318(12) 0.7917(9)
O31 O 1.4314(9) 0.3791(10) 0.9758(7)
Zn1 Zn 1.44495(15) 0.48660(15) 0.90061(11)
W1 W 1.03079(7) -0.24186(6) 0.37496(5)
W2 W 1.17804(6) 0.28177(6) 0.49501(5)
W3 W 1.21013(6) 0.04034(6) 0.37114(4)
W4 W 1.24325(6) -0.02123(6) 0.57021(5)
W5 W 1.03479(7) -0.05827(6) 0.70037(5)
W6 W 1.21233(6) 0.22138(6) 0.69361(4)
Si1 Si 1.0000 0.0000 0.5000
C1A C 1.5716(16) 0.4365(18) 1.6344(12)
H1A H 1.5216 0.4454 1.6739
H2A H 1.5817 0.4867 1.5995
C2A C 1.5171(14) 0.3103(16) 1.5705(11)
H3A H 1.4471 0.2895 1.5305
H4A H 1.4985 0.2584 1.6048
C3A C 1.7636(16) 0.4498(16) 1.6393(13)
H5A H 1.7910 0.5016 1.6052
H6A H 1.8289 0.4644 1.6815
C4A C 1.7007(19) 0.3198(19) 1.5733(14)
H7A H 1.6797 0.2680 1.6078
H8A H 1.7508 0.3043 1.5366
C5A C 1.5986(15) 0.3170(15) 1.4378(13)
C6A C 1.5138(13) 0.3378(14) 1.3232(10)
H9A H 1.4498 0.3339 1.2925
C7A C 1.6954(15) 0.3570(14) 1.3284(12)
C8A C 1.6192(14) 0.4048(13) 1.2080(11)
C9A C 1.7213(15) 0.4282(13) 1.1790(10)
C10A C 1.8067(15) 0.4175(14) 1.2261(11)
H10A H 1.8755 0.4379 1.2081
C11A C 1.6099(12) 0.3673(13) 1.2859(10)
C12A C 1.7552(15) 0.4779(14) 1.1052(12)
C13A C 1.884(2) 0.361(2) 1.3365(14)
H11A H 1.9322 0.3594 1.2940
H12A H 1.8469 0.2839 1.3410
C14A C 1.956(4) 0.444(4) 1.424(3)
H13A H 2.0099 0.4214 1.4417
H14A H 1.9965 0.5209 1.4206
H15A H 1.9103 0.4456 1.4679
C15A C 1.4360(15) 0.6495(15) 1.1650(10)
C16A C 1.5120(14) 0.7396(14) 1.1315(11)
C17A C 1.5236(15) 0.8530(15) 1.1713(11)
H16A H 1.4816 0.8636 1.2141
C18A C 1.5743(14) 0.7199(13) 1.0640(10)
C19A C 1.6433(16) 0.8202(14) 1.0431(10)
C20A C 1.6541(14) 0.9334(13) 1.0851(10)
C21A C 1.7083(17) 0.8161(16) 0.9775(12)
H17A H 1.7044 0.7443 0.9472
C22A C 1.7752(19) 1.0096(15) 1.0025(12)
C23A C 1.849(3) 1.2162(19) 1.023(2)
H18A H 1.8514 1.2303 1.0875
H19A H 1.7786 1.2099 0.9964
C24A C 1.939(3) 1.313(2) 1.016(2)
H20A H 1.9161 1.3731 1.0247
H21A H 2.0023 1.3433 1.0671
C25A C 1.5883(18) 1.0551(14) 1.1895(12)
H22A H 1.6594 1.1188 1.1881
H23A H 1.5848 1.0688 1.2528
C26A C 1.493(2) 1.059(2) 1.1429(16)
H24A H 1.4981 1.1341 1.1722
H25A H 1.4970 1.0481 1.0806
H26A H 1.4222 0.9978 1.1452
C27A C 1.893(3) 1.091(2) 0.904(2)
H27A H 1.8333 1.0599 0.8501
H28A H 1.9172 1.0329 0.8996
C28A C 1.989(2) 1.1950(16) 0.9005(15)
H29A H 2.0587 1.2064 0.9350
H30A H 1.9957 1.1817 0.8379
N1A N 1.6830(13) 0.4734(14) 1.6900(10)
H31A H 1.7165 0.5511 1.7218
H32A H 1.6710 0.4367 1.7303
N2A N 1.6007(14) 0.2977(14) 1.5160(9)
N3A N 1.6932(13) 0.3290(13) 1.4039(9)
N4A N 1.5076(13) 0.3154(13) 1.3980(9)
N5A N 1.7926(12) 0.3791(15) 1.2958(9)
N6A N 1.9812(17) 1.3026(15) 0.9365(14)
H33A H 1.9351 1.3042 0.8934
H34A H 2.0511 1.3651 0.9485
N7A N 1.8450(15) 1.1053(12) 0.9826(10)
N8A N 1.7752(15) 0.9074(14) 0.9555(11)
N9A N 1.7180(13) 1.0276(12) 1.0647(10)
N10A N 1.5904(13) 0.9441(12) 1.1510(9)
O1A O 0.7108(16) -0.1359(13) 0.3532(15)
O1A_2 O 1.7108(16) 0.8641(13) 1.3532(15)
O2A O 0.6412(12) 0.0288(13) 0.3957(11)
O4A O 0.7167(14) -0.0380(11) 0.5238(9)
O6A O 0.6941(13) -0.0572(15) 0.6920(9)
O8A O 0.9086(13) -0.0310(13) 0.7078(10)
O9A O 0.8739(14) 0.1259(12) 0.6693(9)
O10A O 0.9077(19) 0.0395(16) 0.5389(16)
O11A O 0.8516(14) 0.1713(11) 0.5197(10)
O12A O 0.9068(18) -0.0231(17) 0.4097(13)
O12A_2 O 1.9068(18) 0.9769(17) 1.4097(13)
O13A O 0.8461(18) 0.0743(13) 0.3489(14)
O14A O 0.9514(13) 0.3545(11) 0.6842(8)
O15A O 0.9321(19) -0.1425(19) 0.4444(14)
O15A_2 O 1.9321(19) 0.8575(19) 1.4444(14)
O16A O 0.932(2) -0.0712(17) 0.5593(13)
O17A O 0.9532(15) 0.0873(14) 0.2058(9)
O18A O 0.9311(13) -0.2110(12) 0.6166(10)
O19A O 0.9036(14) -0.264(2) 0.2955(11)
O19A_2 O 1.9036(14) 0.736(2) 1.2955(11)
O20A O 1.0696(16) 0.307(2) 0.5542(12)
O21A O 0.8675(16) -0.1075(13) 0.2568(14)
O21A_2 O 1.8675(16) 0.8925(13) 1.2568(14)
O22A O 0.7524(14) -0.1953(12) 0.5626(10)
O23A O 0.7330(12) -0.4149(11) 0.5082(11)
O24A O 0.7509(15) -0.291(2) 0.3935(11)
O24A_2 O 1.7509(15) 0.709(2) 1.3935(11)
O25A O 1.6872(9) 0.6736(9) 1.2145(7)
O25A_2 O 0.6872(9) -0.3264(9) 0.2145(7)
O26A O 1.6830(11) 0.4905(11) 1.0586(8)
O27A O 1.8516(12) 0.5014(12) 1.0896(9)
O28A O 1.5347(9) 0.4094(10) 1.1718(8)
O29A O 1.4398(9) 0.5549(10) 1.1502(7)
O30A O 1.3668(12) 0.6682(12) 1.2083(9)
O31A O 1.5686(9) 0.6209(10) 1.0242(7)
Zn1A Zn 1.55505(15) 0.51340(15) 1.09939(11)
Zn1A_2 Zn 0.55505(15) -0.48660(15) 0.09939(11)
W1A W 0.96921(7) 0.24186(6) 0.62504(5)
W2A W 0.82196(6) -0.28177(6) 0.50499(5)
W3A W 0.78987(6) -0.04034(6) 0.62886(4)
W4A W 0.75675(6) 0.02123(6) 0.42979(5)
W5A W 0.96521(7) 0.05827(6) 0.29963(5)
W6A W 1.78767(6) 0.77862(6) 1.30639(4)
W6A_2 W 0.78767(6) -0.22138(6) 0.30639(4)
loop_
_geom_bond_atom_site_label_1
_geom_bond_atom_site_label_2
_geom_bond_site_symmetry_1
_geom_bond_site_symmetry_2
C1 H1 1_555 1_555
H2 C1 1_555 1_555
C2 C1 1_555 1_555
H3 C2 1_555 1_555
H4 C2 1_555 1_555
C3 H5 1_555 1_555
H6 C3 1_555 1_555
C4 C3 1_555 1_555
H7 C4 1_555 1_555
H8 C4 1_555 1_555
C5 N2 1_555 1_555
C6 H9 1_555 1_555
C7 C11 1_555 1_555
C8 C9 1_555 1_555
C9 C10 1_555 1_555
C10 H10 1_555 1_555
C11 C6 1_555 1_555
C12 C9 1_555 1_555
C13 H11 1_555 1_555
H12 C13 1_555 1_555
C14 C13 1_555 1_555
H13 C14 1_555 1_555
H14 C14 1_555 1_555
H15 C14 1_555 1_555
C15 C16 1_555 1_555
C16 C17 1_555 1_555
C17 H16 1_555 1_555
C18 C16 1_555 1_555
C19 C18 1_555 1_555
C20 C19 1_555 1_555
C21 C19 1_555 1_555
H17 C21 1_555 1_555
C22 N7 1_555 1_555
C23 H18 1_555 1_555
H19 C23 1_555 1_555
C24 C23 1_555 1_555
H20 C24 1_555 1_555
H21 C24 1_555 1_555
C25 H22 1_555 1_555
H23 C25 1_555 1_555
C26 C25 1_555 1_555
H24 C26 1_555 1_555
H25 C26 1_555 1_555
H26 C26 1_555 1_555
C27 H27 1_555 1_555
H28 C27 1_555 1_555
C28 C27 1_555 1_555
H29 C28 1_555 1_555
H30 C28 1_555 1_555
N1 C1 1_555 1_555
H31 N1 1_555 1_555
H32 N1 1_555 1_555
N2 C2 1_555 1_555
N3 C5 1_555 1_555
N4 C5 1_555 1_555
N5 C7 1_555 1_555
N6 C24 1_555 1_555
H33 N6 1_555 1_555
H34 N6 1_555 1_555
N7 C23 1_555 1_555
N8 C21 1_555 1_555
N9 C20 1_555 1_555
N10 C17 1_555 1_555
O1 W4 1_555 1_555
O2 W4 1_555 1_555
O4 W3 1_555 1_555
O6 W3 1_555 1_555
O8 W3 1_555 1_555
O9 W1 1_555 1_555
O10 O16 1_555 1_555
O11 W1 1_555 1_555
O12 W4 1_555 1_555
O13 W4 1_555 1_555
O14 W1 1_555 1_555
O15 O16 1_555 1_555
O16 W2 1_555 1_555
O17 W5 1_555 1_555
O18 W2 1_555 1_555
O19 W6 1_555 1_555
O20 W1 1_555 1_555
O21 W5 1_555 1_555
O22 W2 1_555 1_555
O23 W2 1_555 1_555
O24 W2 1_555 1_555
O25 Zn1 1_555 1_555
O26 C12 1_555 1_555
O27 C12 1_555 1_555
O28 C8 1_555 1_555
O29 C15 1_555 1_555
O30 C15 1_555 1_555
O31 C18 1_555 1_555
Zn1 O26 1_555 1_555
W1 O10 1_555 1_555
W2 O15 1_555 1_555
W3 O9 1_555 1_555
W4 O4 1_555 1_555
W5 O12 1_555 1_555
W6 O1 1_555 1_555
Si1 O10 1_555 1_555
C1A H1A 1_555 1_555
H2A C1A 1_555 1_555
C2A C1A 1_555 1_555
H3A C2A 1_555 1_555
H4A C2A 1_555 1_555
C3A H5A 1_555 1_555
H6A C3A 1_555 1_555
C4A C3A 1_555 1_555
H7A C4A 1_555 1_555
H8A C4A 1_555 1_555
C5A N2A 1_555 1_555
C6A H9A 1_555 1_555
C7A C11A 1_555 1_555
C8A C9A 1_555 1_555
C9A C10A 1_555 1_555
C10A H10A 1_555 1_555
C11A C6A 1_555 1_555
C12A C9A 1_555 1_555
C13A H11A 1_555 1_555
H12A C13A 1_555 1_555
C14A C13A 1_555 1_555
H13A C14A 1_555 1_555
H14A C14A 1_555 1_555
H15A C14A 1_555 1_555
C15A C16A 1_555 1_555
C16A C17A 1_555 1_555
C17A H16A 1_555 1_555
C18A C16A 1_555 1_555
C19A C18A 1_555 1_555
C20A C19A 1_555 1_555
C21A C19A 1_555 1_555
H17A C21A 1_555 1_555
C22A N7A 1_555 1_555
C23A H18A 1_555 1_555
H19A C23A 1_555 1_555
C24A C23A 1_555 1_555
H20A C24A 1_555 1_555
H21A C24A 1_555 1_555
C25A H22A 1_555 1_555
H23A C25A 1_555 1_555
C26A C25A 1_555 1_555
H24A C26A 1_555 1_555
H25A C26A 1_555 1_555
H26A C26A 1_555 1_555
C27A H27A 1_555 1_555
H28A C27A 1_555 1_555
C28A C27A 1_555 1_555
H29A C28A 1_555 1_555
H30A C28A 1_555 1_555
N1A C1A 1_555 1_555
H31A N1A 1_555 1_555
H32A N1A 1_555 1_555
N2A C2A 1_555 1_555
N3A C5A 1_555 1_555
N4A C5A 1_555 1_555
N5A C7A 1_555 1_555
N6A C24A 1_555 1_555
H33A N6A 1_555 1_555
H34A N6A 1_555 1_555
N7A C23A 1_555 1_555
N8A C21A 1_555 1_555
N9A C20A 1_555 1_555
N10A C17A 1_555 1_555
O1A W4A 1_555 1_555
O1A_2 W6A 1_555 1_555
O2A W4A 1_555 1_555
O4A W3A 1_555 1_555
O6A W3A 1_555 1_555
O8A W5 1_555 1_555
O9A W1A 1_555 1_555
O10A Si1 1_555 1_555
O11A W1A 1_555 1_555
O12A Si1 1_555 1_555
O12A_2 W6A 1_555 1_555
O13A W4A 1_555 1_555
O14A W1A 1_555 1_555
O15A W1 1_555 1_555
O15A_2 W6A 1_555 1_555
O16A W5 1_555 1_555
O17A W5A 1_555 1_555
O18A W5 1_555 1_555
O19A W1 1_555 1_555
O19A_2 W6A 1_555 1_555
O20A W2 1_555 1_555
O21A W5A 1_555 1_555
O21A_2 W6A 1_555 1_555
O22A W2A 1_555 1_555
O23A W2A 1_555 1_555
O24A W2A 1_555 1_555
O24A_2 W6A 1_555 1_555
O25A Zn1A 1_555 1_555
O25A_2 Zn1A_2 1_555 1_555
O26A C12A 1_555 1_555
O27A C12A 1_555 1_555
O28A C8A 1_555 1_555
O29A C15A 1_555 1_555
O30A C15A 1_555 1_555
O31A Zn1 1_555 1_555
Zn1A O31 1_555 1_555
W1A O15 1_555 1_555
W2A O20 1_555 1_555
W3A O8A 1_555 1_555
W4A O4A 1_555 1_555
W5A O8 1_555 1_555
W6A O25A 1_555 1_555
W6A_2 O1A 1_555 1_555
C3 N1 1_555 1_555
C4 N2 1_555 1_555
C6 N4 1_555 1_555
C7 N3 1_555 1_555
C8 C11 1_555 1_555
C10 N5 1_555 1_555
C13 N5 1_555 1_555
C20 N10 1_555 1_555
C22 N8 1_555 1_555
C22 N9 1_555 1_555
C25 N10 1_555 1_555
C27 N7 1_555 1_555
C28 N6 1_555 1_555
O10 W3 1_555 1_555
O10 W4 1_555 1_555
O11 W4 1_555 1_555
O12 W6 1_555 1_555
O12 Si1 1_555 1_555
O13 W5 1_555 1_555
O15 W6 1_555 1_555
O15 Si1 1_555 1_555
O16 W3 1_555 1_555
O16 Si1 1_555 1_555
O16 W5A 1_555 1_555
O18 W5A 1_555 1_555
O19 W1A 1_555 1_555
O21 W6 1_555 1_555
O22 W3 1_555 1_555
O24 W6 1_555 1_555
O25 W6 1_555 1_555
O28 Zn1 1_555 1_555
O29 Zn1 1_555 1_555
O31 Zn1 1_555 1_555
Si1 O15A 1_555 1_555
Si1 O16A 1_555 1_555
C3A N1A 1_555 1_555
C4A N2A 1_555 1_555
C6A N4A 1_555 1_555
C7A N3A 1_555 1_555
C8A C11A 1_555 1_555
C10A N5A 1_555 1_555
C13A N5A 1_555 1_555
C18A O31A 1_555 1_555
C20A N10A 1_555 1_555
C22A N8A 1_555 1_555
C22A N9A 1_555 1_555
C25A N10A 1_555 1_555
C27A N7A 1_555 1_555
C28A N6A 1_555 1_555
O9A W3A 1_555 1_555
O10A O16A 1_555 1_555
O10A W1A 1_555 1_555
O10A W3A 1_555 1_555
O10A W4A 1_555 1_555
O11A W4A 1_555 1_555
O12A W4A 1_555 1_555
O12A W5A 1_555 1_555
O12A W6A_2 1_555 1_555
O13A W5A 1_555 1_555
O15A O16A 1_555 1_555
O15A W2A 1_555 1_555
O15A W6A_2 1_555 1_555
O16A W2A 1_555 1_555
O16A W3A 1_555 1_555
O18A W2A 1_555 1_555
O19A W6A_2 1_555 1_555
O20A W1A 1_555 1_555
O21A W6A_2 1_555 1_555
O22A W3A 1_555 1_555
O24A W6A_2 1_555 1_555
O25A_2 W6A_2 1_555 1_555
O26A Zn1A 1_555 1_555
O28A Zn1A 1_555 1_555
O29A Zn1A 1_555 1_555
O31A Zn1A 1_555 1_555

#END
