
#######################################################################
#
#                 Cambridge Crystallographic Data Centre
#                                CCDC 
#
#######################################################################
#
# If this CIF has been generated from an entry in the Cambridge 
# Structural Database, then it will include bibliographic, chemical, 
# crystal, experimental, refinement or atomic coordinate data resulting 
# from the CCDC's data processing and validation procedures.
#
#######################################################################

data_HAGTEP
_symmetry_cell_setting           monoclinic
_symmetry_space_group_name_H-M   'P 21/n'
_symmetry_Int_Tables_number      14
_space_group_name_Hall           '-P 2yn'
loop_
_symmetry_equiv_pos_site_id
_symmetry_equiv_pos_as_xyz
1 x,y,z
2 1/2+x,1/2-y,1/2+z
3 -x,-y,-z
4 1/2-x,1/2+y,1/2-z
_cell_length_a                   11.6198(12)
_cell_length_b                   9.0880(15)
_cell_length_c                   17.0098(8)
_cell_angle_alpha                90
_cell_angle_beta                 109.372(6)
_cell_angle_gamma                90
_cell_volume                     1694.55
loop_
_atom_site_label
_atom_site_type_symbol
_atom_site_fract_x
_atom_site_fract_y
_atom_site_fract_z
Zn1 Zn 0.20272(3) 0.25346(3) 0.179124(18)
Cl1 Cl 0.52079(8) 0.01891(12) 0.09978(5)
Cl2 Cl 0.56903(8) -0.09520(9) 0.26419(6)
Cl3 Cl 0.69021(8) 0.16976(12) 0.23775(6)
O1 O 0.24303(19) 0.4645(2) 0.21460(12)
O2 O 0.30567(18) 0.6933(2) 0.21070(11)
O3 O 0.34861(17) 0.1600(2) 0.16324(11)
O4 O 0.4744(2) 0.2164(3) 0.29064(14)
N1 N 0.1509(2) 0.3471(2) 0.05546(13)
N2 N 0.0286(2) 0.1538(3) 0.11243(14)
C1 C 0.2784(2) 0.5668(3) 0.17913(16)
C2 C 0.2946(3) 0.5492(3) 0.09534(17)
C3 C 0.3749(3) 0.6431(3) 0.07574(19)
H1 H 0.4180 0.7120 0.1148
C4 C 0.3924(3) 0.6366(4) -0.0006(2)
H2 H 0.4474 0.6998 -0.0125
C5 C 0.3271(3) 0.5348(4) -0.0596(2)
H3 H 0.3383 0.5301 -0.1112
C6 C 0.2463(3) 0.4415(4) -0.04192(19)
H4 H 0.2027 0.3740 -0.0818
C7 C 0.2291(3) 0.4468(3) 0.03498(16)
C8 C 0.0513(3) 0.3008(3) 0.00310(17)
H5 H 0.0243 0.3352 -0.0515
C9 C -0.0190(3) 0.1928(3) 0.03100(18)
C10 C -0.1271(3) 0.1331(3) -0.0216(2)
H6 H -0.1576 0.1605 -0.0774
C11 C -0.1883(3) 0.0325(4) 0.0104(2)
H7 H -0.2610 -0.0087 -0.0237
C12 C -0.1416(3) -0.0068(4) 0.0930(2)
H8 H -0.1822 -0.0740 0.1157
C13 C -0.0322(3) 0.0565(4) 0.1417(2)
H9 H -0.0001 0.0295 0.1975
C14 C 0.4485(3) 0.1608(3) 0.22226(18)
C15 C 0.5519(2) 0.0690(3) 0.20536(17)
O2C O 0.19433(18) 0.1933(2) 0.28930(11)
Zn1C Zn 0.29728(3) 0.75346(3) 0.320876(18)
loop_
_geom_bond_atom_site_label_1
_geom_bond_atom_site_label_2
_geom_bond_site_symmetry_1
_geom_bond_site_symmetry_2
Zn1 O1 1_555 1_555
Cl1 C15 1_555 1_555
Cl2 C15 1_555 1_555
Cl3 C15 1_555 1_555
O1 C1 1_555 1_555
O2 C1 1_555 1_555
O3 Zn1 1_555 1_555
O4 C14 1_555 1_555
N1 Zn1 1_555 1_555
N2 Zn1 1_555 1_555
C1 C2 1_555 1_555
C2 C3 1_555 1_555
C3 H1 1_555 1_555
C4 C3 1_555 1_555
H2 C4 1_555 1_555
C5 C4 1_555 1_555
H3 C5 1_555 1_555
C6 C5 1_555 1_555
H4 C6 1_555 1_555
C7 N1 1_555 1_555
C8 N1 1_555 1_555
H5 C8 1_555 1_555
C9 N2 1_555 1_555
C10 C9 1_555 1_555
H6 C10 1_555 1_555
C11 C10 1_555 1_555
H7 C11 1_555 1_555
C12 C11 1_555 1_555
H8 C12 1_555 1_555
C13 N2 1_555 1_555
H9 C13 1_555 1_555
C14 O3 1_555 1_555
C15 C14 1_555 1_555
O2C Zn1 1_555 1_555
Zn1C O2 1_555 1_555
C2 C7 1_555 1_555
C6 C7 1_555 1_555
C8 C9 1_555 1_555
C12 C13 1_555 1_555

#END
