
#######################################################################
#
#                 Cambridge Crystallographic Data Centre
#                                CCDC 
#
#######################################################################
#
# If this CIF has been generated from an entry in the Cambridge 
# Structural Database, then it will include bibliographic, chemical, 
# crystal, experimental, refinement or atomic coordinate data resulting 
# from the CCDC's data processing and validation procedures.
#
#######################################################################

data_HAGTIT
_symmetry_cell_setting           monoclinic
_symmetry_space_group_name_H-M   'P 21/c'
_symmetry_Int_Tables_number      14
_space_group_name_Hall           '-P 2ybc'
loop_
_symmetry_equiv_pos_site_id
_symmetry_equiv_pos_as_xyz
1 x,y,z
2 x,1/2-y,1/2+z
3 -x,-y,-z
4 -x,1/2+y,1/2-z
_cell_length_a                   10.727(8)
_cell_length_b                   16.382(9)
_cell_length_c                   9.122(7)
_cell_angle_alpha                90
_cell_angle_beta                 106.80(6)
_cell_angle_gamma                90
_cell_volume                     1534.59
loop_
_atom_site_label
_atom_site_type_symbol
_atom_site_fract_x
_atom_site_fract_y
_atom_site_fract_z
Zn1 Zn 0.41377(8) 0.17574(5) 0.19447(8)
O1 O 0.2389(4) 0.2252(3) 0.1623(5)
O2 O 0.2969(5) 0.3563(3) 0.1731(6)
C1 C 0.6547(6) 0.1616(4) 0.0138(7)
N1 N 0.5479(5) 0.0819(3) 0.1686(5)
C2 C 0.6553(6) 0.0952(4) 0.1115(7)
O3 O 0.4431(5) 0.2185(3) -0.0001(5)
C3 C 0.4182(6) 0.0015(4) 0.2841(7)
C4 C 0.7642(7) 0.1737(4) -0.0348(8)
H1 H 0.7647(7) 0.2184(4) -0.1025(8)
N2 N 0.3464(5) 0.0696(3) 0.2817(6)
C5 C 0.2203(7) -0.0050(5) 0.4095(8)
H2 H 0.1492(7) -0.0061(5) 0.4538(8)
C6 C 0.5395(6) 0.2178(4) -0.0483(7)
C7 C 0.2215(7) 0.3005(5) 0.1676(8)
C8 C 0.3959(7) -0.0706(4) 0.3500(8)
H3 H 0.4500(7) -0.1175(4) 0.3515(8)
C9 C 0.7652(7) 0.0461(5) 0.1554(9)
H4 H 0.7670(7) 0.0012(5) 0.2237(9)
C10 C 0.2942(8) -0.0736(4) 0.4134(8)
H5 H 0.2753(8) -0.1230(4) 0.4595(8)
C11 C 0.5248(6) 0.0109(4) 0.2148(7)
H6 H 0.5762(6) -0.0353(4) 0.2037(7)
C12 C 0.8709(8) 0.1250(5) 0.0089(10)
H7 H 0.9456(8) 0.1355(5) -0.0262(10)
C13 C 0.8702(8) 0.0600(5) 0.1051(10)
H8 H 0.9444(8) 0.0244(5) 0.1361(10)
C14 C 0.2478(7) 0.0663(4) 0.3419(8)
H9 H 0.1945(7) 0.1138(4) 0.3388(8)
C15 C 0.0840(10) 0.3232(5) 0.1617(16)
O4 O 0.5505(4) 0.2639(3) -0.1551(5)
F1 F 0.0198(6) 0.2697(5) 0.2207(11)
F2 F 0.0062(8) 0.3275(7) 0.0151(15)
F3 F 0.0713(8) 0.3905(5) 0.2172(21)
O4A O 0.5505(4) 0.2361(3) 0.3449(5)
Zn1A Zn 0.41377(8) 0.32426(5) -0.30553(8)
loop_
_geom_bond_atom_site_label_1
_geom_bond_atom_site_label_2
_geom_bond_site_symmetry_1
_geom_bond_site_symmetry_2
Zn1 O1 1_555 1_555
O1 C7 1_555 1_555
O2 C7 1_555 1_555
C1 C2 1_555 1_555
N1 Zn1 1_555 1_555
C2 N1 1_555 1_555
O3 Zn1 1_555 1_555
C3 N2 1_555 1_555
C4 C1 1_555 1_555
H1 C4 1_555 1_555
N2 Zn1 1_555 1_555
C5 H2 1_555 1_555
C6 C1 1_555 1_555
C7 C15 1_555 1_555
C8 C3 1_555 1_555
H3 C8 1_555 1_555
C9 C2 1_555 1_555
H4 C9 1_555 1_555
C10 C5 1_555 1_555
H5 C10 1_555 1_555
C11 N1 1_555 1_555
H6 C11 1_555 1_555
C12 C4 1_555 1_555
H7 C12 1_555 1_555
C13 C9 1_555 1_555
H8 C13 1_555 1_555
C14 N2 1_555 1_555
H9 C14 1_555 1_555
C15 F1 1_555 1_555
O4 C6 1_555 1_555
F2 C15 1_555 1_555
F3 C15 1_555 1_555
O4A Zn1 1_555 1_555
Zn1A O4 1_555 1_555
O3 C6 1_555 1_555
C3 C11 1_555 1_555
C5 C14 1_555 1_555
C8 C10 1_555 1_555
C12 C13 1_555 1_555

#END
