
#######################################################################
#
#                 Cambridge Crystallographic Data Centre
#                                CCDC 
#
#######################################################################
#
# If this CIF has been generated from an entry in the Cambridge 
# Structural Database, then it will include bibliographic, chemical, 
# crystal, experimental, refinement or atomic coordinate data resulting 
# from the CCDC's data processing and validation procedures.
#
#######################################################################

data_HAGWIV
_symmetry_cell_setting           monoclinic
_symmetry_space_group_name_H-M   'P 21/n'
_symmetry_Int_Tables_number      14
_space_group_name_Hall           '-P 2yn'
loop_
_symmetry_equiv_pos_site_id
_symmetry_equiv_pos_as_xyz
1 x,y,z
2 1/2-x,1/2+y,1/2-z
3 -x,-y,-z
4 1/2+x,1/2-y,1/2+z
_cell_length_a                   18.637(6)
_cell_length_b                   16.025(2)
_cell_length_c                   19.685(6)
_cell_angle_alpha                90
_cell_angle_beta                 112.37(3)
_cell_angle_gamma                90
_cell_volume                     5436.65
loop_
_atom_site_label
_atom_site_type_symbol
_atom_site_fract_x
_atom_site_fract_y
_atom_site_fract_z
Dy1 Dy -0.23508(4) 0.14355(6) 0.39991(4)
Dy2 Dy 0.12362(4) 0.13780(5) 0.04617(3)
Cu1 Cu 0.0072(1) 0.2395(2) 0.6620(1)
Cu2 Cu 0.3867(1) 0.2504(1) 0.2868(1)
Cu3 Cu -0.0747(1) 0.1740(2) 0.2056(1)
O1 O 0.1335(6) 0.3801(8) 0.8242(6)
O2 O 0.2045(7) 0.2367(8) 0.8355(6)
O3 O -0.2372(6) 0.1126(8) 0.2792(6)
O4 O -0.1240(6) 0.1920(9) 0.3856(6)
O5 O -0.1862(6) 0.2493(8) 0.4884(5)
O6 O -0.1313(7) 0.0938(8) 0.5039(6)
O7 O -0.3015(6) 0.1318(8) 0.4822(5)
O8 O -0.2453(8) -0.0015(9) 0.3937(7)
O9 O 0.5593(6) 0.2436(8) 0.4775(5)
O10 O 0.5422(6) 0.3997(7) 0.4261(5)
O11 O -0.0072(6) 0.1090(8) 0.0469(6)
O12 O 0.1068(6) 0.1913(9) 0.1481(5)
O13 O 0.2377(6) 0.0986(8) 0.1459(6)
O14 O 0.2117(5) 0.2539(7) 0.0913(5)
O15 O 0.2082(6) 0.1288(8) -0.0168(6)
O16 O 0.1233(6) -0.0077(7) 0.0503(6)
O17 O -0.0900(6) 0.2866(8) 0.5916(6)
O18 O 0.0325(7) 0.3361(9) 0.7281(6)
O19 O 0.076(1) 0.301(1) 0.5894(9)
O20 O 0.3377(6) 0.1414(9) 0.2455(5)
O21 O 0.4694(7) 0.1989(8) 0.3739(6)
O22 O 0.311(1) 0.248(1) 0.368(1)
O23 O -0.1730(6) 0.1253(9) 0.2045(6)
O24 O -0.0812(6) 0.1189(7) 0.1126(5)
O25 O -0.1474(8) 0.287(1) 0.1372(7)
N1 N -0.0267(9) 0.144(1) 0.6032(9)
N2 N 0.0988(9) 0.191(1) 0.7352(9)
N3 N 0.3101(7) 0.2966(9) 0.1974(6)
N4 N 0.4430(7) 0.3512(8) 0.3225(6)
N5 N -0.0591(8) 0.203(1) 0.3049(7)
N6 N 0.0285(8) 0.206(1) 0.2137(7)
C1 C -0.1249(8) 0.237(1) 0.5429(8)
C2 C -0.094(1) 0.147(1) 0.549(1)
C3 C 0.1391(9) 0.243(1) 0.7847(8)
C4 C 0.100(1) 0.326(1) 0.7795(8)
C5 C 0.014(1) 0.051(2) 0.617(2)
C6 C 0.090(2) 0.061(2) 0.665(2)
C7 C 0.133(2) 0.105(2) 0.726(2)
C8 C 0.2821(8) 0.154(1) 0.1863(7)
C9 C 0.2673(8) 0.243(1) 0.1553(7)
C10 C 0.4971(8) 0.342(1) 0.3858(7)
C11 C 0.5109(9) 0.256(1) 0.4158(7)
C12 C 0.306(1) 0.389(1) 0.1787(9)
C13 C 0.343(2) 0.442(2) 0.239(2)
C14 C 0.420(1) 0.435(1) 0.290(1)
C15 C -0.182(1) 0.136(1) 0.2630(8)
C16 C -0.1156(9) 0.183(1) 0.3238(9)
C17 C -0.0191(8) 0.133(1) 0.1025(7)
C18 C 0.0442(9) 0.182(1) 0.1586(8)
C19 C 0.009(1) 0.250(2) 0.3566(9)
C20 C 0.067(1) 0.256(2) 0.332(1)
C21 C 0.086(1) 0.250(2) 0.2756(9)
O1C O -0.3665(6) 0.1199(8) 0.3242(6)
O2C O -0.2955(7) 0.2633(8) 0.3355(6)
O9C O 0.0593(6) 0.2564(8) -0.0225(5)
O10C O 0.0422(6) 0.1003(7) -0.0739(5)
Dy1C Dy 0.26492(4) 0.35645(6) 0.89991(4)
Dy2C Dy 0.62362(4) 0.36220(5) 0.54617(3)
O26 O -0.7538(9) 0.398(1) 0.3762(8)
O27 O -0.170(1) 0.383(1) 0.3549(9)
O28 O -0.144(1) 0.420(1) 0.2243(9)
O29 O -0.862(1) 0.468(1) 0.2450(9)
O30 O -0.507(1) 0.004(2) 0.218(1)
O31 O -0.041(1) 0.393(2) 0.474(1)
O32 O -0.914(1) 0.383(1) 0.107(1)
O33 O -0.210(1) 0.012(2) 0.090(1)
O34 O -0.308(1) 0.264(1) 0.047(1)
O35 O -0.342(1) 0.052(2) 0.146(1)
O36 O -0.084(2) 0.325(2) 0.030(1)
O37 O -0.823(1) 0.082(2) 0.477(1)
O38 O -0.808(1) 0.394(2) 0.484(1)
O39 O -0.446(2) 0.044(2) 0.429(1)
O40 O -0.559(2) 0.994(3) 0.074(2)
O41 O -0.727(2) 0.088(3) 0.403(2)
loop_
_geom_bond_atom_site_label_1
_geom_bond_atom_site_label_2
_geom_bond_site_symmetry_1
_geom_bond_site_symmetry_2
Dy1 O3 1_555 1_555
Dy2 O11 1_555 1_555
Cu1 O17 1_555 1_555
Cu2 O20 1_555 1_555
Cu3 O23 1_555 1_555
O1 C4 1_555 1_555
O2 C3 1_555 1_555
O3 C15 1_555 1_555
O4 Dy1 1_555 1_555
O5 Dy1 1_555 1_555
O6 Dy1 1_555 1_555
O7 Dy1 1_555 1_555
O8 Dy1 1_555 1_555
O9 C11 1_555 1_555
O10 C10 1_555 1_555
O11 C17 1_555 1_555
O12 Dy2 1_555 1_555
O13 Dy2 1_555 1_555
O14 Dy2 1_555 1_555
O15 Dy2 1_555 1_555
O16 Dy2 1_555 1_555
O17 C1 1_555 1_555
O18 Cu1 1_555 1_555
O19 Cu1 1_555 1_555
O20 C8 1_555 1_555
O21 Cu2 1_555 1_555
O22 Cu2 1_555 1_555
O23 C15 1_555 1_555
O24 Cu3 1_555 1_555
O25 Cu3 1_555 1_555
N1 Cu1 1_555 1_555
N2 Cu1 1_555 1_555
N3 Cu2 1_555 1_555
N4 Cu2 1_555 1_555
N5 Cu3 1_555 1_555
N6 Cu3 1_555 1_555
C1 O5 1_555 1_555
C2 O6 1_555 1_555
C3 N2 1_555 1_555
C4 O18 1_555 1_555
C5 N1 1_555 1_555
C6 C5 1_555 1_555
C7 N2 1_555 1_555
C8 O13 1_555 1_555
C9 O14 1_555 1_555
C10 N4 1_555 1_555
C11 O21 1_555 1_555
C12 N3 1_555 1_555
C13 C12 1_555 1_555
C14 N4 1_555 1_555
C15 C16 1_555 1_555
C16 O4 1_555 1_555
C17 O24 1_555 1_555
C18 O12 1_555 1_555
C19 N5 1_555 1_555
C20 C19 1_555 1_555
C21 N6 1_555 1_555
O1C Dy1 1_555 1_555
O2C Dy1 1_555 1_555
O9C Dy2 1_555 1_555
O10C Dy2 1_555 1_555
Dy1C O1 1_555 1_555
Dy2C O9 1_555 1_555
O2 Dy1C 1_555 1_555
O10 Dy2C 1_555 1_555
N1 C2 1_555 1_555
N3 C9 1_555 1_555
N5 C16 1_555 1_555
N6 C18 1_555 1_555
C1 C2 1_555 1_555
C3 C4 1_555 1_555
C6 C7 1_555 1_555
C8 C9 1_555 1_555
C10 C11 1_555 1_555
C13 C14 1_555 1_555
C17 C18 1_555 1_555
C20 C21 1_555 1_555

#END
