
#######################################################################
#
#                 Cambridge Crystallographic Data Centre
#                                CCDC 
#
#######################################################################
#
# If this CIF has been generated from an entry in the Cambridge 
# Structural Database, then it will include bibliographic, chemical, 
# crystal, experimental, refinement or atomic coordinate data resulting 
# from the CCDC's data processing and validation procedures.
#
#######################################################################

data_HAHDUR
_symmetry_cell_setting           triclinic
_symmetry_space_group_name_H-M   'P -1'
_symmetry_Int_Tables_number      2
_space_group_name_Hall           '-P 1'
loop_
_symmetry_equiv_pos_site_id
_symmetry_equiv_pos_as_xyz
1 x,y,z
2 -x,-y,-z
_cell_length_a                   9.7823(12)
_cell_length_b                   10.1353(12)
_cell_length_c                   11.2765(13)
_cell_angle_alpha                94.5870(10)
_cell_angle_beta                 99.2610(10)
_cell_angle_gamma                101.1450(10)
_cell_volume                     1075.5
loop_
_atom_site_label
_atom_site_type_symbol
_atom_site_fract_x
_atom_site_fract_y
_atom_site_fract_z
Co1 Co 0.72398(3) 0.61827(3) 0.68291(3)
O1 O 0.57041(17) 0.72525(14) 0.67353(15)
O2 O 0.76886(18) 0.86166(15) 0.65705(15)
O3 O 0.79701(17) 1.35755(15) 0.73977(16)
O4 O 0.60369(16) 1.43720(13) 0.68367(15)
N1 N 0.79648(19) 0.58709(17) 0.52772(17)
N2 N 0.7904(2) 0.5085(2) 0.33895(18)
N3 N 0.8771(2) 0.68553(18) 0.83203(17)
N4 N 1.0530(2) 0.8215(2) 0.95648(19)
C1 C 0.5659(2) 0.95829(19) 0.65953(19)
C2 C 0.6455(2) 1.0899(2) 0.67845(18)
H1 H 0.7438 1.1049 0.6920
C3 C 0.5790(2) 1.19929(19) 0.67735(18)
C4 C 0.4319(2) 1.1749(2) 0.6542(2)
H2 H 0.3870 1.2478 0.6506
C5 C 0.3501(2) 1.0440(2) 0.6362(2)
C6 C 0.4195(2) 0.9366(2) 0.6399(2)
H3 H 0.3665 0.8485 0.6289
C7 C 0.6410(3) 0.8428(2) 0.6626(2)
C8 C 0.6687(2) 1.3408(2) 0.70252(19)
C9 C 0.1899(3) 1.0194(3) 0.6115(3)
H4 H 0.1600 1.0918 0.6536
H5 H 0.1516 0.9352 0.6391
H6 H 0.1565 1.0157 0.5262
C10 C 0.7231(2) 0.5035(2) 0.4333(2)
H7 H 0.6353 0.4479 0.4325
C11 C 0.9172(3) 0.6484(3) 0.4897(2)
H8 H 0.9900 0.7135 0.5369
C12 C 0.9150(3) 0.6008(3) 0.3747(3)
H9 H 0.9845 0.6257 0.3286
C13 C 0.7269(3) 0.4416(3) 0.2166(2)
H10 H 0.6650 0.3560 0.2221
H11 H 0.8012 0.4228 0.1744
C14 C 0.6429(3) 0.5300(3) 0.1458(2)
H12 H 0.7086 0.6049 0.1240
H13 H 0.5865 0.5676 0.1977
C15 C 0.5455(3) 0.4561(3) 0.0316(2)
H14 H 0.6022 0.4251 -0.0235
H15 H 0.4845 0.3771 0.0522
C16 C 0.9669(2) 0.8035(2) 0.8490(2)
H16 H 0.9699 0.8664 0.7932
C17 C 0.9091(3) 0.6257(3) 0.9344(2)
H17 H 0.8632 0.5406 0.9486
C18 C 1.0172(3) 0.7082(3) 1.0121(2)
H18 H 1.0587 0.6912 1.0880
C19 C 1.1722(3) 0.9360(3) 0.9984(3)
H19 H 1.1781 0.9620 1.0840
H20 H 1.1565 1.0127 0.9557
C20 C 1.3080(3) 0.9005(3) 0.9774(3)
H21 H 1.2971 0.8632 0.8937
H22 H 1.3287 0.8312 1.0278
C21 C 1.4308(3) 1.0201(3) 1.0046(3)
H23 H 1.4360 1.0633 1.0856
H24 H 1.4150 1.0855 0.9483
Co1A Co 0.27602(3) 0.38173(3) -0.68291(3)
Co1_2 Co 0.72398(3) 1.61827(3) 0.68291(3)
Co1A_2 Co 0.27602(3) -0.61827(3) -0.68291(3)
Co1A_3 Co 2.27602(3) 1.38173(3) 1.31709(3)
O1A O 0.42959(17) 0.27475(14) -0.67353(15)
O2A O 0.23114(18) 0.13834(15) -0.65705(15)
O3A O 0.20299(17) -0.35755(15) -0.73977(16)
O4A O 0.39631(16) -0.43720(13) -0.68367(15)
O4_2 O 0.60369(16) 0.43720(13) 0.68367(15)
O4A_2 O 0.39631(16) 0.56280(13) -0.68367(15)
N1A N 0.20352(19) 0.41291(17) -0.52772(17)
N2A N 0.2096(2) 0.4915(2) -0.33895(18)
N3A N 2.1229(2) 1.31447(18) 1.16797(17)
N3A_2 N 0.1229(2) 0.31447(18) -0.83203(17)
N4A N 1.9470(2) 1.1785(2) 1.04352(19)
C1A C 0.4341(2) 0.04171(19) -0.65953(19)
C2A C 0.3545(2) -0.0899(2) -0.67845(18)
H1A H 0.2562 -0.1049 -0.6920
C3A C 0.4210(2) -0.19929(19) -0.67735(18)
C4A C 0.5681(2) -0.1749(2) -0.6542(2)
H2A H 0.6130 -0.2478 -0.6506
C5A C 0.6499(2) -0.0440(2) -0.6362(2)
C6A C 0.5805(2) 0.0634(2) -0.6399(2)
H3A H 0.6335 0.1515 -0.6289
C7A C 0.3590(3) 0.1572(2) -0.6626(2)
C8A C 0.3313(2) -0.3408(2) -0.70252(19)
C9A C 0.8101(3) -0.0194(3) -0.6115(3)
H4A H 0.8400 -0.0918 -0.6536
H5A H 0.8484 0.0648 -0.6391
H6A H 0.8435 -0.0157 -0.5262
C10A C 0.2769(2) 0.4965(2) -0.4333(2)
H7A H 0.3647 0.5521 -0.4325
C11A C 0.0828(3) 0.3516(3) -0.4897(2)
H8A H 0.0100 0.2865 -0.5369
C12A C 0.0850(3) 0.3992(3) -0.3747(3)
H9A H 0.0155 0.3743 -0.3286
C13A C 0.2731(3) 0.5584(3) -0.2166(2)
H10A H 0.3350 0.6440 -0.2221
H11A H 0.1988 0.5772 -0.1744
C14A C 0.3571(3) 0.4700(3) -0.1458(2)
H12A H 0.2914 0.3951 -0.1240
H13A H 0.4135 0.4324 -0.1977
C15A C 0.4545(3) 0.5439(3) -0.0316(2)
H14A H 0.3978 0.5749 0.0235
H15A H 0.5155 0.6229 -0.0522
C16A C 2.0331(2) 1.1965(2) 1.1510(2)
H16A H 2.0301 1.1336 1.2068
C17A C 2.0909(3) 1.3743(3) 1.0656(2)
H17A H 2.1368 1.4594 1.0514
C18A C 1.9828(3) 1.2918(3) 0.9879(2)
H18A H 1.9413 1.3088 0.9120
C19A C 1.8278(3) 1.0640(3) 1.0016(3)
H19A H 1.8219 1.0380 0.9160
H20A H 1.8435 0.9873 1.0443
C20A C 1.6920(3) 1.0995(3) 1.0226(3)
H21A H 1.7029 1.1368 1.1063
H22A H 1.6713 1.1688 0.9722
C21A C 1.5692(3) 0.9799(3) 0.9954(3)
H23A H 1.5640 0.9367 0.9144
H24A H 1.5850 0.9145 1.0517
loop_
_geom_bond_atom_site_label_1
_geom_bond_atom_site_label_2
_geom_bond_site_symmetry_1
_geom_bond_site_symmetry_2
Co1 O1 1_555 1_555
O1 C7 1_555 1_555
O2 C7 1_555 1_555
O3 C8 1_555 1_555
O4 C8 1_555 1_555
N1 Co1 1_555 1_555
N2 C10 1_555 1_555
N3 Co1 1_555 1_555
N4 C16 1_555 1_555
C1 C2 1_555 1_555
C2 H1 1_555 1_555
C3 C2 1_555 1_555
C4 C3 1_555 1_555
H2 C4 1_555 1_555
C5 C4 1_555 1_555
C6 C1 1_555 1_555
H3 C6 1_555 1_555
C7 C1 1_555 1_555
C8 C3 1_555 1_555
C9 C5 1_555 1_555
H4 C9 1_555 1_555
H5 C9 1_555 1_555
H6 C9 1_555 1_555
C10 N1 1_555 1_555
H7 C10 1_555 1_555
C11 N1 1_555 1_555
H8 C11 1_555 1_555
C12 N2 1_555 1_555
H9 C12 1_555 1_555
C13 N2 1_555 1_555
H10 C13 1_555 1_555
H11 C13 1_555 1_555
C14 C13 1_555 1_555
H12 C14 1_555 1_555
H13 C14 1_555 1_555
C15 C14 1_555 1_555
H14 C15 1_555 1_555
H15 C15 1_555 1_555
C16 N3 1_555 1_555
H16 C16 1_555 1_555
C17 N3 1_555 1_555
H17 C17 1_555 1_555
C18 N4 1_555 1_555
H18 C18 1_555 1_555
C19 N4 1_555 1_555
H19 C19 1_555 1_555
H20 C19 1_555 1_555
C20 C19 1_555 1_555
H21 C20 1_555 1_555
H22 C20 1_555 1_555
C21 C20 1_555 1_555
H23 C21 1_555 1_555
H24 C21 1_555 1_555
Co1A O1A 1_555 1_555
Co1_2 O4 1_555 1_555
Co1A_2 O4A 1_555 1_555
Co1A_3 N3A 1_555 1_555
O1A C7A 1_555 1_555
O2A C7A 1_555 1_555
O3A C8A 1_555 1_555
O4A C8A 1_555 1_555
O4_2 Co1 1_555 1_555
O4A_2 Co1A 1_555 1_555
N1A Co1A 1_555 1_555
N2A C10A 1_555 1_555
N3A C16A 1_555 1_555
N3A_2 Co1A 1_555 1_555
N4A C16A 1_555 1_555
C1A C2A 1_555 1_555
C2A H1A 1_555 1_555
C3A C2A 1_555 1_555
C4A C3A 1_555 1_555
H2A C4A 1_555 1_555
C5A C4A 1_555 1_555
C6A C1A 1_555 1_555
H3A C6A 1_555 1_555
C7A C1A 1_555 1_555
C8A C3A 1_555 1_555
C9A C5A 1_555 1_555
H4A C9A 1_555 1_555
H5A C9A 1_555 1_555
H6A C9A 1_555 1_555
C10A N1A 1_555 1_555
H7A C10A 1_555 1_555
C11A N1A 1_555 1_555
H8A C11A 1_555 1_555
C12A N2A 1_555 1_555
H9A C12A 1_555 1_555
C13A N2A 1_555 1_555
H10A C13A 1_555 1_555
H11A C13A 1_555 1_555
C14A C13A 1_555 1_555
H12A C14A 1_555 1_555
H13A C14A 1_555 1_555
C15A C15 1_555 1_555
H14A C15A 1_555 1_555
H15A C15A 1_555 1_555
C16A H16A 1_555 1_555
C17A N3A 1_555 1_555
H17A C17A 1_555 1_555
C18A N4A 1_555 1_555
H18A C18A 1_555 1_555
C19A N4A 1_555 1_555
H19A C19A 1_555 1_555
H20A C19A 1_555 1_555
C20A C19A 1_555 1_555
H21A C20A 1_555 1_555
H22A C20A 1_555 1_555
C21A C21 1_555 1_555
H23A C21A 1_555 1_555
H24A C21A 1_555 1_555
C5 C6 1_555 1_555
C11 C12 1_555 1_555
C17 C18 1_555 1_555
C5A C6A 1_555 1_555
C11A C12A 1_555 1_555
C14A C15A 1_555 1_555
C17A C18A 1_555 1_555
C20A C21A 1_555 1_555

#END
