
#######################################################################
#
#                 Cambridge Crystallographic Data Centre
#                                CCDC 
#
#######################################################################
#
# If this CIF has been generated from an entry in the Cambridge 
# Structural Database, then it will include bibliographic, chemical, 
# crystal, experimental, refinement or atomic coordinate data resulting 
# from the CCDC's data processing and validation procedures.
#
#######################################################################

data_HAHJIL
_symmetry_cell_setting           monoclinic
_symmetry_space_group_name_H-M   'C 2/c'
_symmetry_Int_Tables_number      15
_space_group_name_Hall           '-C 2yn'
loop_
_symmetry_equiv_pos_site_id
_symmetry_equiv_pos_as_xyz
1 x,y,z
2 -x,y,1/2-z
3 1/2+x,1/2+y,z
4 1/2-x,1/2+y,1/2-z
5 -x,-y,-z
6 x,-y,1/2+z
7 1/2-x,1/2-y,-z
8 1/2+x,1/2-y,1/2+z
_cell_length_a                   18.878(5)
_cell_length_b                   13.481(5)
_cell_length_c                   19.633(5)
_cell_angle_alpha                90
_cell_angle_beta                 121.659(5)
_cell_angle_gamma                90
_cell_volume                     4252.94
loop_
_atom_site_label
_atom_site_type_symbol
_atom_site_fract_x
_atom_site_fract_y
_atom_site_fract_z
C1 C 0.6898(2) 0.2697(3) 0.3439(2)
H1 H 0.6798 0.3223 0.3093
C2 C 0.7681(3) 0.2451(3) 0.3994(3)
H2 H 0.8129 0.2791 0.4033
C3 C 0.7805(3) 0.1684(3) 0.4506(3)
H3 H 0.8349 0.1514 0.4895
C4 C 0.71524(11) 0.11454(16) 0.44691(14)
C5 C 0.63810(13) 0.14272(15) 0.38884(13)
C6 C 0.56786(10) 0.08990(16) 0.38177(12)
C7 C 0.57500(11) 0.00923(16) 0.43134(14)
C8 C 0.65310(13) -0.01761(15) 0.49112(13)
C9 C 0.71915(10) 0.03379(16) 0.49810(12)
C10 C 0.4315(2) 0.0783(3) 0.3206(2)
H4 H 0.3793 0.1023 0.2822
C11 C 0.4331(3) -0.0035(3) 0.3656(2)
H5 H 0.3837 -0.0323 0.3555
C12 C 0.5048(2) -0.0386(3) 0.4220(2)
H6 H 0.5089 -0.0921 0.4537
C13 C 0.7538(2) -0.0782(3) 0.5919(2)
C14 C 0.80556(18) -0.1346(2) 0.66488(17)
C15 C 0.8425(2) -0.2211(3) 0.6598(2)
C16 C 0.8954(3) -0.2725(3) 0.7342(3)
H7 H 0.9216 -0.3316 0.7358
C17 C 0.9053(2) -0.2324(3) 0.8004(2)
H8 H 0.9404 -0.2677 0.8469
C18 C 0.8748(3) -0.1534(4) 0.81095(17)
H9 H 0.8861 -0.1327 0.8609
C19 C 0.8223(2) -0.1007(2) 0.7398(2)
C20 C 0.5163(2) 0.4083(3) 0.3679(2)
C21 C 0.5089(2) 0.4535(2) 0.43730(18)
C22 C 0.4724(2) 0.40368(16) 0.47707(17)
C23 C 0.5362(2) 0.5496(2) 0.46174(18)
H10 H 0.5605 0.5845 0.4383
C24 C 0.4530(3) 0.2946(3) 0.4642(2)
O1 O 0.46551(16) 0.34333(19) 0.32743(16)
O2 O 0.57187(16) 0.4349(2) 0.35389(17)
O3 O 0.50520(19) 0.2335(2) 0.48325(18)
O4 O 0.37756(18) 0.2757(2) 0.4381(2)
H11 H 0.3699 0.2156 0.4320
Mn1 Mn 0.5000 0.26099(6) 0.2500
N1 N 0.62681(19) 0.2194(2) 0.33804(18)
N2 N 0.49650(19) 0.1246(2) 0.32697(18)
N3 N 0.67549(19) -0.0891(2) 0.55032(19)
N4 N 0.78293(19) -0.0057(2) 0.56292(19)
H12 H 0.8342 0.0110 0.5837
Cl1 Cl 0.78404(13) -0.00214(14) 0.75242(13)
F1 F 0.83285(19) -0.26352(19) 0.58619(16)
C1A C 0.3102(2) 0.2697(3) 0.1561(2)
H1A H 0.3202 0.3223 0.1907
C2A C 0.2319(3) 0.2451(3) 0.1006(3)
H2A H 0.1871 0.2791 0.0967
C3A C 0.2195(3) 0.1684(3) 0.0494(3)
H3A H 0.1651 0.1514 0.0105
C4A C 0.28476(11) 0.11454(16) 0.05309(14)
C5A C 0.36190(13) 0.14272(15) 0.11116(13)
C6A C 0.43214(10) 0.08990(16) 0.11823(12)
C7A C 0.42500(11) 0.00923(16) 0.06866(14)
C8A C 0.34690(13) -0.01761(15) 0.00888(13)
C9A C 0.28085(10) 0.03379(16) 0.00190(12)
C10A C 0.5685(2) 0.0783(3) 0.1794(2)
H4A H 0.6207 0.1023 0.2178
C11A C 0.5669(3) -0.0035(3) 0.1344(2)
H5A H 0.6163 -0.0323 0.1445
C12A C 0.4952(2) -0.0386(3) 0.0780(2)
H6A H 0.4911 -0.0921 0.0463
C13A C 0.2462(2) -0.0782(3) -0.0919(2)
C14A C 0.19444(18) -0.1346(2) -0.16488(17)
C15A C 0.1575(2) -0.2211(3) -0.1598(2)
C16A C 0.1046(3) -0.2725(3) -0.2342(3)
H7A H 0.0784 -0.3316 -0.2358
C17A C 0.0947(2) -0.2324(3) -0.3004(2)
H8A H 0.0596 -0.2677 -0.3469
C18A C 0.1252(3) -0.1534(4) -0.31095(17)
H9A H 0.1139 -0.1327 -0.3609
C19A C 0.1777(2) -0.1007(2) -0.2398(2)
C20D C 0.4837(2) 0.5917(3) 0.6321(2)
C21D C 0.4911(2) 0.5465(2) 0.56270(18)
C22D C 0.5276(2) 0.59632(16) 0.52293(17)
C23D C 0.4638(2) 0.4504(2) 0.53826(18)
H10D H 0.4395 0.4155 0.5617
C24D C 0.5470(3) 0.7054(3) 0.5358(2)
O1D O 0.53449(16) 0.65667(19) 0.67257(16)
O1A O 0.53449(16) 0.34333(19) 0.17257(16)
O2D O 0.42813(16) 0.5651(2) 0.64611(17)
O3D O 0.49480(19) 0.7665(2) 0.51675(18)
O4D O 0.62244(18) 0.7243(2) 0.5619(2)
H11D H 0.6301 0.7844 0.5680
Mn1D Mn 0.5000 0.73901(6) 0.7500
N1A N 0.37319(19) 0.2194(2) 0.16196(18)
N2A N 0.50350(19) 0.1246(2) 0.17303(18)
N3A N 0.32451(19) -0.0891(2) -0.05032(19)
N4A N 0.21707(19) -0.0057(2) -0.06292(19)
H12A H 0.1658 0.0110 -0.0837
Cl1A Cl 0.21596(13) -0.00214(14) -0.25242(13)
F1A F 0.16715(19) -0.26352(19) -0.08619(16)
loop_
_geom_bond_atom_site_label_1
_geom_bond_atom_site_label_2
_geom_bond_site_symmetry_1
_geom_bond_site_symmetry_2
C1 H1 1_555 1_555
C2 C1 1_555 1_555
H2 C2 1_555 1_555
C3 C2 1_555 1_555
H3 C3 1_555 1_555
C4 C3 1_555 1_555
C5 C4 1_555 1_555
C6 C5 1_555 1_555
C7 C6 1_555 1_555
C8 C7 1_555 1_555
C9 C4 1_555 1_555
C10 H4 1_555 1_555
C11 C10 1_555 1_555
H5 C11 1_555 1_555
C12 C7 1_555 1_555
H6 C12 1_555 1_555
C13 C14 1_555 1_555
C14 C15 1_555 1_555
C15 C16 1_555 1_555
C16 H7 1_555 1_555
C17 C16 1_555 1_555
H8 C17 1_555 1_555
C18 C17 1_555 1_555
H9 C18 1_555 1_555
C19 C14 1_555 1_555
C20 C21 1_555 1_555
C21 C22 1_555 1_555
C22 C24 1_555 1_555
C23 C21 1_555 1_555
H10 C23 1_555 1_555
C24 O3 1_555 1_555
O1 C20 1_555 1_555
O2 C20 1_555 1_555
O4 C24 1_555 1_555
H11 O4 1_555 1_555
Mn1 O1 1_555 1_555
N1 C1 1_555 1_555
N2 C6 1_555 1_555
N3 C8 1_555 1_555
N4 C9 1_555 1_555
H12 N4 1_555 1_555
Cl1 C19 1_555 1_555
F1 C15 1_555 1_555
C1A H1A 1_555 1_555
C2A C1A 1_555 1_555
H2A C2A 1_555 1_555
C3A C2A 1_555 1_555
H3A C3A 1_555 1_555
C4A C3A 1_555 1_555
C5A C4A 1_555 1_555
C6A C5A 1_555 1_555
C7A C6A 1_555 1_555
C8A C7A 1_555 1_555
C9A C4A 1_555 1_555
C10A H4A 1_555 1_555
C11A C10A 1_555 1_555
H5A C11A 1_555 1_555
C12A C7A 1_555 1_555
H6A C12A 1_555 1_555
C13A C14A 1_555 1_555
C14A C15A 1_555 1_555
C15A C16A 1_555 1_555
C16A H7A 1_555 1_555
C17A C16A 1_555 1_555
H8A C17A 1_555 1_555
C18A C17A 1_555 1_555
H9A C18A 1_555 1_555
C19A C14A 1_555 1_555
C20D C21D 1_555 1_555
C21D C22D 1_555 1_555
C22D C23 1_555 1_555
C23D C22 1_555 1_555
H10D C23D 1_555 1_555
C24D C22D 1_555 1_555
O1D C20D 1_555 1_555
O1A Mn1 1_555 1_555
O2D C20D 1_555 1_555
O3D C24D 1_555 1_555
O4D C24D 1_555 1_555
H11D O4D 1_555 1_555
Mn1D O1D 1_555 1_555
N1A Mn1 1_555 1_555
N2A Mn1 1_555 1_555
N3A C8A 1_555 1_555
N4A C9A 1_555 1_555
H12A N4A 1_555 1_555
Cl1A C19A 1_555 1_555
F1A C15A 1_555 1_555
C5 N1 1_555 1_555
C8 C9 1_555 1_555
C10 N2 1_555 1_555
C11 C12 1_555 1_555
C13 N3 1_555 1_555
C13 N4 1_555 1_555
C18 C19 1_555 1_555
Mn1 N1 1_555 1_555
Mn1 N2 1_555 1_555
C1A N1A 1_555 1_555
C5A N1A 1_555 1_555
C6A N2A 1_555 1_555
C8A C9A 1_555 1_555
C10A N2A 1_555 1_555
C11A C12A 1_555 1_555
C13A N3A 1_555 1_555
C13A N4A 1_555 1_555
C18A C19A 1_555 1_555
C21D C23D 1_555 1_555

#END
