
#######################################################################
#
#                 Cambridge Crystallographic Data Centre
#                                CCDC 
#
#######################################################################
#
# If this CIF has been generated from an entry in the Cambridge 
# Structural Database, then it will include bibliographic, chemical, 
# crystal, experimental, refinement or atomic coordinate data resulting 
# from the CCDC's data processing and validation procedures.
#
#######################################################################

data_HAHPIQ
_symmetry_cell_setting           hexagonal
_symmetry_space_group_name_H-M   'P 63 2 2'
_symmetry_Int_Tables_number      182
_space_group_name_Hall           "P 6c 2'c"
loop_
_symmetry_equiv_pos_site_id
_symmetry_equiv_pos_as_xyz
1 x,y,z
2 -y,x-y,z
3 -x+y,-x,z
4 -x,-y,1/2+z
5 y,-x+y,1/2+z
6 x-y,x,1/2+z
7 y,x,-z
8 x-y,-y,-z
9 -x,-x+y,-z
10 -y,-x,1/2-z
11 -x+y,y,1/2-z
12 x,x-y,1/2-z
_cell_length_a                   21.790(3)
_cell_length_b                   21.790(3)
_cell_length_c                   12.020(2)
_cell_angle_alpha                90
_cell_angle_beta                 90
_cell_angle_gamma                120
_cell_volume                     4942.53
loop_
_atom_site_label
_atom_site_type_symbol
_atom_site_fract_x
_atom_site_fract_y
_atom_site_fract_z
O1 O -0.3649(14) 0.1984(14) -1.824(2)
O2 O -0.4434(12) 0.113(2) -1.7500
N4 N -0.4149(9) 0.1701(17) -1.7500
O1J O -0.4367(20) 0.1984(14) -1.676(2)
O3 O -0.3333 0.3333 -1.7500
Ag1 Ag -0.26242(3) -0.52484(3) -0.2500
Ag2 Ag -0.3333 -0.6666 -0.41002(13)
Ag3 Ag -0.5006 -0.50056(13) -0.5000
N1 N -0.4637(5) -0.6563(5) -0.1439(9)
N2 N -0.3928(3) -0.6085(6) -0.3983(7)
N3 N -0.4435(3) -0.5407(6) -0.4206(7)
C1 C -0.4492(6) -0.6080(6) -0.4380(10)
C2 C -0.1194(5) -0.4980(6) -0.1287(11)
C3 C -0.1596(5) -0.6665(5) -0.0098(8)
C4 C -0.1071(4) -0.6829(6) -0.0339(8)
H1 H -0.0680 -0.6519 -0.0763
C5 C -0.1129(6) -0.7456(4) 0.0054(10)
H2 H -0.0777 -0.7565 -0.0107
C6 C -0.1712(7) -0.7919(5) 0.0687(9)
H3 H -0.1751 -0.8338 0.0950
C7 C -0.2238(5) -0.7755(6) 0.0928(7)
H4 H -0.2628 -0.8064 0.1352
C8 C -0.2180(5) -0.7128(4) 0.0536(8)
H5 H -0.2532 -0.7019 0.0697
C9 C -0.0760(4) -0.4263(5) -0.1673(9)
C10 C -0.0078(4) -0.4044(4) -0.2051(11)
H6 H 0.0083 -0.4366 -0.2092
C11 C 0.0363(4) -0.3343(6) -0.2367(11)
H7 H 0.0819 -0.3196 -0.2620
C12 C 0.0121(6) -0.2863(7) -0.2306(10)
H8 H 0.0416 -0.2394 -0.2518
C13 C -0.0560(7) -0.3081(5) -0.1928(10)
H9 H -0.0722 -0.2760 -0.1887
C14 C -0.1001(5) -0.3782(5) -0.1612(8)
H10 H -0.1458 -0.3930 -0.1359
N3F N -0.5407(6) -0.4435(3) -0.5794(7)
N2A N -0.3915(6) -0.7843(7) -0.3983(7)
Ag1A Ag -0.47516(3) -0.73758(4) -0.2500
N2I N -0.3915(6) -0.6072(3) -0.1017(7)
Ag2I Ag -0.3334 -0.6667 -0.08998(13)
N2J N -0.2157(7) -0.6085(6) -0.1017(7)
N1B N -0.1926(7) -0.5363(5) -0.1439(9)
C1J C -0.1588(8) -0.6080(6) -0.0620(10)
N3J N -0.0972(7) -0.5407(6) -0.0794(7)
Ag3E Ag -0.00004(13) -0.5006 0.0000
N2K N -0.3928(3) -0.7843(7) -0.1017(7)
C1I C -0.3920(6) -0.5508(6) -0.0620(10)
N3I N -0.4593(6) -0.5565(3) -0.0794(7)
Ag3C Ag -0.4994 -0.49944(13) 0.0000
C2A C -0.5020(6) -0.6214(8) -0.1287(11)
C9A C -0.5737(5) -0.6497(6) -0.1673(9)
C10A C -0.5956(4) -0.6034(6) -0.2051(11)
H6A H -0.5634 -0.5551 -0.2092
C11A C -0.6657(6) -0.6294(7) -0.2367(11)
H7A H -0.6804 -0.5985 -0.2620
C12A C -0.7137(7) -0.7016(9) -0.2306(10)
H8A H -0.7606 -0.7190 -0.2518
C13A C -0.6919(5) -0.7479(9) -0.1928(10)
H9A H -0.7240 -0.7962 -0.1887
C14A C -0.6218(5) -0.7219(7) -0.1612(8)
H10A H -0.6070 -0.7528 -0.1359
C3A C -0.3335(5) -0.4931(7) -0.0098(8)
C4A C -0.3171(6) -0.4242(7) -0.0339(8)
H1A H -0.3481 -0.4161 -0.0763
C5A C -0.2544(4) -0.3673(7) 0.0054(10)
H2A H -0.2435 -0.3212 -0.0107
C6A C -0.2081(5) -0.3793(9) 0.0687(9)
H3A H -0.1662 -0.3413 0.0950
C7A C -0.2245(6) -0.4483(8) 0.0928(7)
H4A H -0.1936 -0.4564 0.1352
C8A C -0.2872(4) -0.5052(6) 0.0536(8)
H5A H -0.2981 -0.5513 0.0697
N2B N -0.2157(7) -0.6072(3) -0.3983(7)
N1I N -0.3437(5) -0.5363(5) -0.3561(9)
C3J C -0.5069(7) -0.6665(5) -0.4902(8)
C4J C -0.5758(7) -0.6829(6) -0.4661(8)
H1J H -0.5839 -0.6519 -0.4237
C5J C -0.6327(7) -0.7456(4) -0.5054(10)
H2J H -0.6788 -0.7565 -0.4893
C6J C -0.6207(9) -0.7919(5) -0.5687(9)
H3J H -0.6587 -0.8338 -0.5950
C7J C -0.5517(8) -0.7755(6) -0.5928(7)
H4J H -0.5436 -0.8064 -0.6352
C8J C -0.4948(6) -0.7128(4) -0.5536(8)
H5J H -0.4487 -0.7019 -0.5697
C2J C -0.3786(8) -0.4980(6) -0.3713(11)
C9J C -0.3503(6) -0.4263(5) -0.3327(9)
C10J C -0.3966(6) -0.4044(4) -0.2949(11)
H6J H -0.4449 -0.4366 -0.2908
C11J C -0.3706(7) -0.3343(6) -0.2633(11)
H7J H -0.4015 -0.3196 -0.2380
C12J C -0.2984(9) -0.2863(7) -0.2694(10)
H8J H -0.2810 -0.2394 -0.2482
C13J C -0.2521(9) -0.3081(5) -0.3072(10)
H9J H -0.2038 -0.2760 -0.3113
C14J C -0.2781(7) -0.3782(5) -0.3388(8)
H10J H -0.2472 -0.3930 -0.3641
H11? H -0.3386 0.2872 -1.7857
loop_
_geom_bond_atom_site_label_1
_geom_bond_atom_site_label_2
_geom_bond_site_symmetry_1
_geom_bond_site_symmetry_2
Ag1 N1B 1_555 1_555
Ag2 N2 1_555 1_555
Ag3 N3 1_555 1_555
N1 Ag1A 1_555 1_555
N2 C1 1_555 1_555
N3 C1 1_555 1_555
C1 C3J 1_555 1_555
C2 C9 1_555 1_555
C3 C4 1_555 1_555
C4 H1 1_555 1_555
C5 C4 1_555 1_555
H2 C5 1_555 1_555
C6 C5 1_555 1_555
H3 C6 1_555 1_555
C7 C6 1_555 1_555
H4 C7 1_555 1_555
C8 C3 1_555 1_555
H5 C8 1_555 1_555
C9 C10 1_555 1_555
C10 H6 1_555 1_555
C11 C10 1_555 1_555
H7 C11 1_555 1_555
C12 C11 1_555 1_555
H8 C12 1_555 1_555
C13 C12 1_555 1_555
H9 C13 1_555 1_555
C14 C9 1_555 1_555
H10 C14 1_555 1_555
O1 N4 1_555 1_555
O2 N4 1_555 1_555
N4 O1J 1_555 1_555
N3F Ag3 1_555 1_555
N2A Ag2 1_555 1_555
N2I N1 1_555 1_555
Ag2I N2I 1_555 1_555
N2J Ag2I 1_555 1_555
N1B C2 1_555 1_555
C1J C3 1_555 1_555
N3J C2 1_555 1_555
Ag3E N3J 1_555 1_555
N2K Ag2I 1_555 1_555
C1I N2I 1_555 1_555
N3I C1I 1_555 1_555
Ag3C N3I 1_555 1_555
C2A N1 1_555 1_555
C9A C2A 1_555 1_555
C10A C9A 1_555 1_555
H6A C10A 1_555 1_555
C11A C10A 1_555 1_555
H7A C11A 1_555 1_555
C12A C11A 1_555 1_555
H8A C12A 1_555 1_555
C13A C12A 1_555 1_555
H9A C13A 1_555 1_555
C14A C9A 1_555 1_555
H10A C14A 1_555 1_555
C3A C1I 1_555 1_555
C4A C3A 1_555 1_555
H1A C4A 1_555 1_555
C5A C4A 1_555 1_555
H2A C5A 1_555 1_555
C6A C5A 1_555 1_555
H3A C6A 1_555 1_555
C7A C6A 1_555 1_555
H4A C7A 1_555 1_555
C8A C3A 1_555 1_555
H5A C8A 1_555 1_555
N2B Ag2 1_555 1_555
N1I Ag1 1_555 1_555
C3J C4J 1_555 1_555
C4J H1J 1_555 1_555
C5J C4J 1_555 1_555
H2J C5J 1_555 1_555
C6J C5J 1_555 1_555
H3J C6J 1_555 1_555
C7J C6J 1_555 1_555
H4J C7J 1_555 1_555
C8J C3J 1_555 1_555
H5J C8J 1_555 1_555
C2J N3 1_555 1_555
C9J C2J 1_555 1_555
C10J C9J 1_555 1_555
H6J C10J 1_555 1_555
C11J C10J 1_555 1_555
H7J C11J 1_555 1_555
C12J C11J 1_555 1_555
H8J C12J 1_555 1_555
C13J C12J 1_555 1_555
H9J C13J 1_555 1_555
C14J C9J 1_555 1_555
H10J C14J 1_555 1_555
N2 N1I 1_555 1_555
C7 C8 1_555 1_555
C13 C14 1_555 1_555
N2J N1B 1_555 1_555
N2J C1J 1_555 1_555
C1J N3J 1_555 1_555
N3I C2A 1_555 1_555
C13A C14A 1_555 1_555
C7A C8A 1_555 1_555
N1I C2J 1_555 1_555
C7J C8J 1_555 1_555
C13J C14J 1_555 1_555

#END
