
#######################################################################
#
#                 Cambridge Crystallographic Data Centre
#                                CCDC 
#
#######################################################################
#
# If this CIF has been generated from an entry in the Cambridge 
# Structural Database, then it will include bibliographic, chemical, 
# crystal, experimental, refinement or atomic coordinate data resulting 
# from the CCDC's data processing and validation procedures.
#
#######################################################################

data_HAHPAH
_symmetry_cell_setting           monoclinic
_symmetry_space_group_name_H-M   'P 21/c'
_symmetry_Int_Tables_number      14
_space_group_name_Hall           '-P 2ybc'
loop_
_symmetry_equiv_pos_site_id
_symmetry_equiv_pos_as_xyz
1 x,y,z
2 -x,1/2+y,1/2-z
3 -x,-y,-z
4 x,1/2-y,1/2+z
_cell_length_a                   18.854(3)
_cell_length_b                   16.624(2)
_cell_length_c                   29.561(5)
_cell_angle_alpha                90
_cell_angle_beta                 108.36(1)
_cell_angle_gamma                90
_cell_volume                     8793.63
loop_
_atom_site_label
_atom_site_type_symbol
_atom_site_fract_x
_atom_site_fract_y
_atom_site_fract_z
La1 La 0.1689(1) 0.1265(1) 0.2502(1)
La2 La 0.3352(1) -0.0075(1) 0.2439(1)
Na1 Na 0.1867(1) -0.0833(2) 0.2918(1)
Na2 Na 0.3676(1) 0.1923(2) 0.3061(1)
Na3 Na 0.2003(1) 0.0710(2) 0.1449(1)
O1 O 0.1928(2) -0.0079(2) 0.2141(1)
O2 O 0.2820(2) 0.1339(2) 0.2208(1)
O3 O 0.2803(2) 0.0523(3) 0.3045(1)
O4 O 0.1135(2) 0.0349(3) 0.2885(2)
O5 O 0.2408(2) 0.2317(3) 0.2949(2)
O6 O 0.1084(2) 0.1500(3) 0.1689(1)
O7 O 0.3064(2) -0.1247(2) 0.2787(2)
O8 O 0.4390(2) 0.0658(3) 0.2881(1)
O9 O 0.3088(2) -0.0101(3) 0.1608(1)
C1 C 0.1470(3) -0.0626(4) 0.1849(2)
C2 C 0.1726(3) -0.1340(4) 0.1715(2)
C3 C 0.1245(4) -0.1876(4) 0.1408(2)
C4 C 0.0484(4) -0.1729(5) 0.1217(2)
C5 C 0.0233(4) -0.1014(5) 0.1349(3)
C6 C 0.0705(3) -0.0478(4) 0.1651(2)
C7 C -0.0040(4) -0.2326(5) 0.0897(3)
C8 C 0.3021(3) 0.1930(4) 0.1953(2)
C9 C 0.2593(4) 0.2618(4) 0.1803(2)
C10 C 0.2805(4) 0.3182(5) 0.1527(3)
C11 C 0.3439(5) 0.3092(6) 0.1388(3)
C12 C 0.3861(4) 0.2423(6) 0.1543(3)
C13 C 0.3684(4) 0.1829(4) 0.1832(2)
C14 C 0.3673(6) 0.3716(7) 0.1085(2)
C15 C 0.3054(3) 0.0456(4) 0.3526(3)
C16 C 0.3664(4) -0.0022(4) 0.3749(2)
C17 C 0.3929(4) -0.0106(4) 0.4242(2)
C18 C 0.3594(4) 0.0293(5) 0.4529(2)
C19 C 0.2986(5) 0.0771(5) 0.4309(2)
C20 C 0.2718(4) 0.0861(4) 0.3816(2)
C21 C 0.3883(5) 0.0228(6) 0.5066(3)
C22 C 0.0496(4) 0.0320(4) 0.2996(2)
C23 C -0.0181(4) 0.0277(4) 0.2640(3)
C24 C -0.0851(5) 0.0272(6) 0.2740(4)
C25 C -0.0864(5) 0.0305(7) 0.3192(4)
C26 C -0.0200(6) 0.0346(6) 0.3552(3)
C27 C 0.0490(4) 0.0361(5) 0.3457(3)
C28 C -0.1589(7) 0.0306(11) 0.3309(5)
C29 C 0.2288(3) 0.3013(4) 0.3137(2)
C30 C 0.1962(3) 0.3047(4) 0.3497(2)
C31 C 0.1845(4) 0.3775(5) 0.3685(3)
C32 C 0.2042(4) 0.4487(5) 0.3530(3)
C33 C 0.2366(5) 0.4450(5) 0.3170(3)
C34 C 0.2489(4) 0.3737(4) 0.2979(3)
C35 C 0.1913(6) 0.5283(5) 0.3733(4)
C36 C 0.0550(3) 0.1739(4) 0.1295(2)
C37 C 0.0669(4) 0.2341(5) 0.1004(3)
C38 C 0.0110(4) 0.2557(6) 0.0590(3)
C39 C -0.0571(4) 0.2210(5) 0.0447(2)
C40 C -0.0706(4) 0.1643(4) 0.0738(3)
C41 C -0.0161(4) 0.1403(4) 0.1156(3)
C42 C -0.1162(4) 0.2416(6) -0.0021(3)
C43 C 0.3311(3) -0.1975(4) 0.2955(2)
C44 C 0.3935(4) -0.2086(4) 0.3361(3)
C45 C 0.4159(4) -0.2835(5) 0.3535(3)
C46 C 0.3803(4) -0.3531(5) 0.3321(3)
C47 C 0.3198(4) -0.3432(4) 0.2918(3)
C48 C 0.2954(4) -0.2670(4) 0.2739(2)
C49 C 0.4078(5) -0.4346(5) 0.3531(4)
C50 C 0.5082(3) 0.0855(3) 0.3140(2)
C51 C 0.5636(3) 0.0991(4) 0.2927(2)
C52 C 0.6360(4) 0.1231(4) 0.3205(3)
C53 C 0.6539(4) 0.1327(4) 0.3692(3)
C54 C 0.5992(4) 0.1179(4) 0.3898(2)
C55 C 0.5285(4) 0.0941(4) 0.3631(2)
C56 C 0.7311(4) 0.1634(5) 0.3985(3)
C57 C 0.3286(3) -0.0291(4) 0.1221(2)
C58 C 0.2950(4) -0.0935(4) 0.0925(2)
C59 C 0.3152(4) -0.1127(4) 0.0529(2)
C60 C 0.3697(4) -0.0703(4) 0.0406(2)
C61 C 0.4030(4) -0.0073(4) 0.0697(2)
C62 C 0.3833(4) 0.0115(4) 0.1097(2)
C63 C 0.3907(4) -0.0901(5) -0.0034(2)
O10 O 0.0611(2) 0.2291(2) 0.2530(2)
O11 O -0.0717(2) 0.3236(3) 0.2276(2)
O12 O 0.4376(2) -0.1057(3) 0.2336(2)
O13 O 0.5443(2) -0.2018(3) 0.2085(2)
O14 O 0.4145(3) 0.2556(3) 0.3877(2)
O15 O 0.4200(5) 0.3314(5) 0.4750(3)
O16 O 0.1703(3) 0.0867(4) 0.0663(2)
O17 O 0.1452(4) 0.0764(6) -0.0307(2)
O18 O 0.2068(3) -0.1521(3) 0.3657(2)
O19 O 0.2629(4) -0.2299(5) 0.4552(2)
C64 C 0.0555(4) 0.3037(4) 0.2264(3)
C65 C -0.0247(3) 0.3183(4) 0.1976(2)
C66 C -0.0649(3) 0.2528(5) 0.2547(3)
C67 C 0.0157(3) 0.2370(4) 0.2843(2)
C68 C 0.5124(3) -0.1166(4) 0.2657(2)
C69 C 0.5656(4) -0.1318(4) 0.2380(3)
C70 C 0.4689(3) -0.1921(4) 0.1773(2)
C71 C 0.4157(3) -0.1774(4) 0.2057(2)
C72 C 0.4454(6) 0.2177(6) 0.4322(3)
C73 C 0.4138(9) 0.2522(7) 0.4686(4)
C74 C 0.3919(5) 0.3672(6) 0.4321(3)
C75 C 0.4222(5) 0.3396(5) 0.3957(3)
C76 C 0.2094(6) 0.1341(8) 0.0427(3)
C77 C 0.2111(8) 0.1063(11) 0.0017(4)
C78 C 0.1067(8) 0.0273(11) -0.0064(4)
C79 C 0.1045(7) 0.0542(10) 0.0340(3)
C80 C 0.2133(5) -0.2369(5) 0.3702(3)
C81 C 0.2718(5) -0.2591(6) 0.4143(3)
C82 C 0.2576(8) -0.1498(7) 0.4503(3)
C83 C 0.2001(7) -0.1219(5) 0.4082(3)
H1 H 0.2251 -0.1459 0.1836
H2 H 0.1445 -0.2369 0.1330
H3 H -0.0289 -0.0889 0.1219
H4 H 0.0506 0.0008 0.1739
H5 H -0.0539 -0.2115 0.0799
H6 H 0.0111 -0.2429 0.0621
H7 H -0.0024 -0.2818 0.1070
H8 H 0.2147 0.2693 0.1890
H9 H 0.2516 0.3664 0.1431
H10 H 0.4308 0.2355 0.1457
H11 H 0.4001 0.1371 0.1944
H12 H 0.4118 0.3556 0.1017
H13 H 0.3275 0.3794 0.0792
H14 H 0.3765 0.4210 0.1262
H15 H 0.3905 -0.0308 0.3555
H16 H 0.4355 -0.0440 0.4387
H17 H 0.2738 0.1044 0.4503
H18 H 0.2302 0.1209 0.3674
H19 H 0.4309 -0.0123 0.5154
H20 H 0.4024 0.0747 0.5208
H21 H 0.3497 0.0006 0.5176
H22 H -0.0182 0.0244 0.2316
H23 H -0.1315 0.0246 0.2484
H24 H -0.0207 0.0352 0.3875
H25 H 0.0956 0.0410 0.3710
H26 H -0.1993 0.0278 0.3015
H27 H -0.1627 -0.0133 0.3512
H28 H -0.1616 0.0806 0.3466
H29 H 0.1812 0.2555 0.3610
H30 H 0.1621 0.3786 0.3935
H31 H 0.2510 0.4946 0.3057
H32 H 0.2706 0.3731 0.2726
H33 H 0.1685 0.5206 0.3978
H34 H 0.2383 0.5553 0.3863
H35 H 0.1590 0.5602 0.3481
H36 H 0.1141 0.2617 0.1101
H37 H 0.0214 0.2974 0.0395
H38 H -0.1190 0.1396 0.0655
H39 H -0.0278 0.1007 0.1358
H40 H -0.1603 0.2099 -0.0061
H41 H -0.1283 0.2976 -0.0013
H42 H -0.0974 0.2318 -0.0282
H43 H 0.4200 -0.1621 0.3521
H44 H 0.4578 -0.2892 0.3820
H45 H 0.2946 -0.3902 0.2756
H46 H 0.2520 -0.2616 0.2463
H47 H 0.4505 -0.4291 0.3811
H48 H 0.3682 -0.4611 0.3612
H49 H 0.4212 -0.4660 0.3297
H50 H 0.5519 0.0922 0.2589
H51 H 0.6733 0.1329 0.3054
H52 H 0.6104 0.1255 0.4235
H53 H 0.4918 0.0832 0.3786
H54 H 0.7334 0.1661 0.4314
H55 H 0.7689 0.1274 0.3952
H56 H 0.7391 0.2160 0.3877
H57 H 0.2571 -0.1243 0.1000
H58 H 0.2912 -0.1571 0.0332
H59 H 0.4409 0.0233 0.0620
H60 H 0.4085 0.0551 0.1296
H61 H 0.4291 -0.0535 -0.0053
H62 H 0.4090 -0.1443 -0.0016
H63 H 0.3478 -0.0842 -0.0312
H64 H 0.0863 0.3010 0.2061
H65 H 0.0728 0.3474 0.2483
H66 H -0.0285 0.3672 0.1796
H67 H -0.0417 0.2747 0.1755
H68 H -0.0828 0.2083 0.2334
H69 H -0.0956 0.2569 0.2751
H70 H 0.0337 0.2810 0.3060
H71 H 0.0190 0.1887 0.3026
H72 H 0.5139 -0.1617 0.2864
H73 H 0.5269 -0.0694 0.2851
H74 H 0.5651 -0.0861 0.2181
H75 H 0.6156 -0.1385 0.2594
H76 H 0.4542 -0.2399 0.1585
H77 H 0.4666 -0.1477 0.1561
H78 H 0.3655 -0.1716 0.1846
H79 H 0.4171 -0.2226 0.2262
H80 H 0.4980 0.2291 0.4445
H81 H 0.4393 0.1606 0.4283
H82 H 0.3611 0.2415 0.4563
H83 H 0.4334 0.2248 0.4986
H84 H 0.3987 0.4243 0.4362
H85 H 0.3392 0.3568 0.4207
H86 H 0.3984 0.3664 0.3661
H87 H 0.4743 0.3533 0.4057
H88 H 0.2577 0.1466 0.0646
H89 H 0.1822 0.1834 0.0334
H90 H 0.2358 0.1418 -0.0141
H91 H 0.2418 0.0594 0.0115
H92 H 0.1399 -0.0172 0.0054
H93 H 0.0607 0.0068 -0.0277
H94 H 0.0723 0.0994 0.0223
H95 H 0.0805 0.0190 0.0504
H96 H 0.2242 -0.2580 0.3429
H97 H 0.1666 -0.2593 0.3707
H98 H 0.2745 -0.3167 0.4167
H99 H 0.3187 -0.2402 0.4120
H100 H 0.3046 -0.1287 0.4496
H101 H 0.2483 -0.1291 0.4782
H102 H 0.1525 -0.1378 0.4106
H103 H 0.2010 -0.0642 0.4068
O11A O 0.0717(2) -0.1764(3) 0.2724(2)
O13A O 0.4557(2) 0.2982(3) 0.2915(2)
Na1A Na -0.1867(1) 0.4167(2) 0.2082(1)
Na2A Na 0.6324(1) -0.3077(2) 0.1939(1)
O20 O 0.1309(13) 0.3785(13) -0.0194(8)
O21 O 0.1091(14) 0.5160(14) 0.0368(9)
C84 C 0.1638(13) 0.3923(13) 0.0330(8)
C85 C 0.1895(12) 0.4816(12) 0.0269(9)
C86 C 0.1051(15) 0.5038(14) -0.0167(8)
C87 C 0.0679(13) 0.4195(13) -0.0125(9)
H104 H 0.2034 0.3534 0.0410
H105 H 0.1333 0.3867 0.0534
H106 H 0.2285 0.4965 0.0554
H107 H 0.2061 0.4898 -0.0003
H108 H 0.1388 0.5015 -0.0351
H109 H 0.0656 0.5416 -0.0302
H110 H 0.0624 0.4144 0.0185
H111 H 0.0235 0.4021 -0.0368
loop_
_geom_bond_atom_site_label_1
_geom_bond_atom_site_label_2
_geom_bond_site_symmetry_1
_geom_bond_site_symmetry_2
La1 Na1 1_555 1_555
La2 Na1 1_555 1_555
Na1 O1 1_555 1_555
Na2 La1 1_555 1_555
Na3 La1 1_555 1_555
O1 La1 1_555 1_555
O2 La1 1_555 1_555
O3 La1 1_555 1_555
O4 La1 1_555 1_555
O5 La1 1_555 1_555
O6 La1 1_555 1_555
O7 La2 1_555 1_555
O8 La2 1_555 1_555
O9 La2 1_555 1_555
C1 O1 1_555 1_555
C2 C1 1_555 1_555
C3 C2 1_555 1_555
C4 C3 1_555 1_555
C5 C4 1_555 1_555
C6 C1 1_555 1_555
C7 C4 1_555 1_555
C8 O2 1_555 1_555
C9 C8 1_555 1_555
C10 C9 1_555 1_555
C11 C10 1_555 1_555
C12 C11 1_555 1_555
C13 C8 1_555 1_555
C14 C11 1_555 1_555
C15 O3 1_555 1_555
C16 C15 1_555 1_555
C17 C16 1_555 1_555
C18 C17 1_555 1_555
C19 C18 1_555 1_555
C20 C15 1_555 1_555
C21 C18 1_555 1_555
C22 O4 1_555 1_555
C23 C22 1_555 1_555
C24 C23 1_555 1_555
C25 C24 1_555 1_555
C26 C25 1_555 1_555
C27 C22 1_555 1_555
C28 C25 1_555 1_555
C29 O5 1_555 1_555
C30 C29 1_555 1_555
C31 C30 1_555 1_555
C32 C31 1_555 1_555
C33 C32 1_555 1_555
C34 C29 1_555 1_555
C35 C32 1_555 1_555
C36 O6 1_555 1_555
C37 C36 1_555 1_555
C38 C37 1_555 1_555
C39 C38 1_555 1_555
C40 C39 1_555 1_555
C41 C36 1_555 1_555
C42 C39 1_555 1_555
C43 O7 1_555 1_555
C44 C43 1_555 1_555
C45 C44 1_555 1_555
C46 C45 1_555 1_555
C47 C46 1_555 1_555
C48 C43 1_555 1_555
C49 C46 1_555 1_555
C50 O8 1_555 1_555
C51 C50 1_555 1_555
C52 C51 1_555 1_555
C53 C52 1_555 1_555
C54 C53 1_555 1_555
C55 C50 1_555 1_555
C56 C53 1_555 1_555
C57 O9 1_555 1_555
C58 C57 1_555 1_555
C59 C58 1_555 1_555
C60 C59 1_555 1_555
C61 C60 1_555 1_555
C62 C57 1_555 1_555
C63 C60 1_555 1_555
O10 La1 1_555 1_555
O11 C65 1_555 1_555
O12 La2 1_555 1_555
O13 C69 1_555 1_555
O14 Na2 1_555 1_555
O15 C73 1_555 1_555
O16 Na3 1_555 1_555
O17 C77 1_555 1_555
O18 Na1 1_555 1_555
O19 C81 1_555 1_555
C64 O10 1_555 1_555
C65 C64 1_555 1_555
C66 O11 1_555 1_555
C67 O10 1_555 1_555
C68 O12 1_555 1_555
C69 C68 1_555 1_555
C70 O13 1_555 1_555
C71 O12 1_555 1_555
C72 O14 1_555 1_555
C73 C72 1_555 1_555
C74 O15 1_555 1_555
C75 O14 1_555 1_555
C76 O16 1_555 1_555
C77 C76 1_555 1_555
C78 O17 1_555 1_555
C79 O16 1_555 1_555
C80 O18 1_555 1_555
C81 C80 1_555 1_555
C82 O19 1_555 1_555
C83 O18 1_555 1_555
O20 C84 1_555 1_555
O21 C85 1_555 1_555
C84 C85 1_555 1_555
C85 H106 1_555 1_555
C86 O21 1_555 1_555
C87 O20 1_555 1_555
H1 C2 1_555 1_555
H2 C3 1_555 1_555
H3 C5 1_555 1_555
H4 C6 1_555 1_555
H5 C7 1_555 1_555
H6 C7 1_555 1_555
H7 C7 1_555 1_555
H8 C9 1_555 1_555
H9 C10 1_555 1_555
H10 C12 1_555 1_555
H11 C13 1_555 1_555
H12 C14 1_555 1_555
H13 C14 1_555 1_555
H14 C14 1_555 1_555
H15 C16 1_555 1_555
H16 C17 1_555 1_555
H17 C19 1_555 1_555
H18 C20 1_555 1_555
H19 C21 1_555 1_555
H20 C21 1_555 1_555
H21 C21 1_555 1_555
H22 C23 1_555 1_555
H23 C24 1_555 1_555
H24 C26 1_555 1_555
H25 C27 1_555 1_555
H26 C28 1_555 1_555
H27 C28 1_555 1_555
H28 C28 1_555 1_555
H29 C30 1_555 1_555
H30 C31 1_555 1_555
H31 C33 1_555 1_555
H32 C34 1_555 1_555
H33 C35 1_555 1_555
H34 C35 1_555 1_555
H35 C35 1_555 1_555
H36 C37 1_555 1_555
H37 C38 1_555 1_555
H38 C40 1_555 1_555
H39 C41 1_555 1_555
H40 C42 1_555 1_555
H41 C42 1_555 1_555
H42 C42 1_555 1_555
H43 C44 1_555 1_555
H44 C45 1_555 1_555
H45 C47 1_555 1_555
H46 C48 1_555 1_555
H47 C49 1_555 1_555
H48 C49 1_555 1_555
H49 C49 1_555 1_555
H50 C51 1_555 1_555
H51 C52 1_555 1_555
H52 C54 1_555 1_555
H53 C55 1_555 1_555
H54 C56 1_555 1_555
H55 C56 1_555 1_555
H56 C56 1_555 1_555
H57 C58 1_555 1_555
H58 C59 1_555 1_555
H59 C61 1_555 1_555
H60 C62 1_555 1_555
H61 C63 1_555 1_555
H62 C63 1_555 1_555
H63 C63 1_555 1_555
H64 C64 1_555 1_555
H65 C64 1_555 1_555
H66 C65 1_555 1_555
H67 C65 1_555 1_555
H68 C66 1_555 1_555
H69 C66 1_555 1_555
H70 C67 1_555 1_555
H71 C67 1_555 1_555
H72 C68 1_555 1_555
H73 C68 1_555 1_555
H74 C69 1_555 1_555
H75 C69 1_555 1_555
H76 C70 1_555 1_555
H77 C70 1_555 1_555
H78 C71 1_555 1_555
H79 C71 1_555 1_555
H80 C72 1_555 1_555
H81 C72 1_555 1_555
H82 C73 1_555 1_555
H83 C73 1_555 1_555
H84 C74 1_555 1_555
H85 C74 1_555 1_555
H86 C75 1_555 1_555
H87 C75 1_555 1_555
H88 C76 1_555 1_555
H89 C76 1_555 1_555
H90 C77 1_555 1_555
H91 C77 1_555 1_555
H92 C78 1_555 1_555
H93 C78 1_555 1_555
H94 C79 1_555 1_555
H95 C79 1_555 1_555
H96 C80 1_555 1_555
H97 C80 1_555 1_555
H98 C81 1_555 1_555
H99 C81 1_555 1_555
H100 C82 1_555 1_555
H101 C82 1_555 1_555
H102 C83 1_555 1_555
H103 C83 1_555 1_555
H104 C84 1_555 1_555
H105 C84 1_555 1_555
H107 C85 1_555 1_555
H108 C86 1_555 1_555
H109 C86 1_555 1_555
H110 C87 1_555 1_555
H111 C87 1_555 1_555
O11A Na1 1_555 1_555
O13A Na2 1_555 1_555
Na1A O11 1_555 1_555
Na2A O13 1_555 1_555
La2 O1 1_555 1_555
La2 O2 1_555 1_555
La2 O3 1_555 1_555
La2 Na2 1_555 1_555
La2 Na3 1_555 1_555
Na1 O3 1_555 1_555
Na1 O4 1_555 1_555
Na1 O7 1_555 1_555
Na2 O2 1_555 1_555
Na2 O3 1_555 1_555
Na2 O5 1_555 1_555
Na2 O8 1_555 1_555
Na3 O1 1_555 1_555
Na3 O2 1_555 1_555
Na3 O6 1_555 1_555
Na3 O9 1_555 1_555
C5 C6 1_555 1_555
C12 C13 1_555 1_555
C19 C20 1_555 1_555
C26 C27 1_555 1_555
C33 C34 1_555 1_555
C40 C41 1_555 1_555
C47 C48 1_555 1_555
C54 C55 1_555 1_555
C61 C62 1_555 1_555
C66 C67 1_555 1_555
C70 C71 1_555 1_555
C74 C75 1_555 1_555
C78 C79 1_555 1_555
C82 C83 1_555 1_555
C86 C87 1_555 1_555

#END
