
#######################################################################
#
#                 Cambridge Crystallographic Data Centre
#                                CCDC 
#
#######################################################################
#
# If this CIF has been generated from an entry in the Cambridge 
# Structural Database, then it will include bibliographic, chemical, 
# crystal, experimental, refinement or atomic coordinate data resulting 
# from the CCDC's data processing and validation procedures.
#
#######################################################################

data_HAHTUH
_symmetry_cell_setting           monoclinic
_symmetry_space_group_name_H-M   'C 2/c'
_symmetry_Int_Tables_number      15
_space_group_name_Hall           '-C 2yn'
loop_
_symmetry_equiv_pos_site_id
_symmetry_equiv_pos_as_xyz
1 x,y,z
2 -x,y,1/2-z
3 1/2+x,1/2+y,z
4 1/2-x,1/2+y,1/2-z
5 -x,-y,-z
6 x,-y,1/2+z
7 1/2-x,1/2-y,-z
8 1/2+x,1/2-y,1/2+z
_cell_length_a                   20.752(3)
_cell_length_b                   7.2117(10)
_cell_length_c                   19.973(3)
_cell_angle_alpha                90
_cell_angle_beta                 93.486(2)
_cell_angle_gamma                90
_cell_volume                     2983.57
loop_
_atom_site_label
_atom_site_type_symbol
_atom_site_fract_x
_atom_site_fract_y
_atom_site_fract_z
Co1 Co 0.5000 0.60276(9) 0.7500
N1 N 0.5000 0.9104(6) 0.7500
O1 O 0.53963(11) 0.6005(3) 0.84545(11)
O2 O 0.59055(12) 0.6113(3) 0.71577(12)
C1 C 0.64128(17) 0.6620(5) 0.75010(18)
N2 N 0.5000 1.2977(5) 0.7500
C2 C 0.59635(18) 0.6566(5) 0.86315(17)
C3 C 0.4919(2) 1.0079(5) 0.80526(19)
H1 H 0.4856 0.9452 0.8450
C4 C 0.49251(19) 1.2010(5) 0.80561(18)
H2 H 0.4876 1.2636 0.8457
C5 C 0.64457(18) 0.6941(6) 0.81938(18)
H3 H 0.6827 0.7454 0.8380
C6 C 0.70085(18) 0.6870(5) 0.7126(2)
C7 C 0.61142(19) 0.6733(6) 0.93743(19)
C8 C 0.5801(2) 0.5581(7) 0.9806(2)
H4 H 0.5499 0.4738 0.9628
C9 C 0.7625(2) 0.6594(6) 0.7427(3)
H5 H 0.7672 0.6254 0.7877
C10 C 0.5926(2) 0.5648(8) 1.0496(2)
H6 H 0.5710 0.4860 1.0776
C11 C 0.6954(2) 0.7357(7) 0.6457(2)
H7 H 0.6549 0.7531 0.6242
C12 C 0.8162(2) 0.6819(8) 0.7068(3)
H8 H 0.8569 0.6630 0.7278
C13 C 0.6578(3) 0.7886(8) 0.9663(2)
H9 H 0.6819 0.8624 0.9389
C14 C 0.8110(3) 0.7313(7) 0.6411(4)
H10 H 0.8479 0.7459 0.6174
C15 C 0.6368(3) 0.6882(11) 1.0759(3)
H11 H 0.6444 0.6970 1.1222
C16 C 0.6696(3) 0.7976(10) 1.0352(3)
H12 H 0.7003 0.8798 1.0535
C17 C 0.7515(3) 0.7591(8) 0.6101(3)
H13 H 0.7479 0.7938 0.5652
Co1_2 Co 0.5000 1.60276(9) 0.7500
O1A O 0.46037(11) 0.6005(3) 0.65455(11)
O2A O 0.40945(12) 0.6113(3) 0.78423(12)
C1A C 0.35872(17) 0.6620(5) 0.74990(18)
N2_2 N 0.5000 0.2977(5) 0.7500
C2A C 0.40365(18) 0.6566(5) 0.63685(17)
C3A C 0.5081(2) 1.0079(5) 0.69474(19)
H1A H 0.5144 0.9452 0.6550
C4A C 0.50749(19) 1.2010(5) 0.69439(18)
H2A H 0.5124 1.2636 0.6543
C5A C 0.35543(18) 0.6941(6) 0.68062(18)
H3A H 0.3173 0.7454 0.6620
C6A C 0.29915(18) 0.6870(5) 0.7874(2)
C7A C 0.38858(19) 0.6733(6) 0.56257(19)
C8A C 0.4199(2) 0.5581(7) 0.5194(2)
H4A H 0.4501 0.4738 0.5372
C9A C 0.2375(2) 0.6594(6) 0.7573(3)
H5A H 0.2328 0.6254 0.7123
C10A C 0.4074(2) 0.5648(8) 0.4504(2)
H6A H 0.4290 0.4860 0.4224
C11A C 0.3046(2) 0.7357(7) 0.8543(2)
H7A H 0.3451 0.7531 0.8758
C12A C 0.1838(2) 0.6819(8) 0.7932(3)
H8A H 0.1431 0.6630 0.7722
C13A C 0.3422(3) 0.7886(8) 0.5337(2)
H9A H 0.3181 0.8624 0.5611
C14A C 0.1890(3) 0.7313(7) 0.8589(4)
H10A H 0.1521 0.7459 0.8826
C15A C 0.3632(3) 0.6882(11) 0.4241(3)
H11A H 0.3556 0.6970 0.3778
C16A C 0.3304(3) 0.7976(10) 0.4648(3)
H12A H 0.2997 0.8798 0.4465
C17A C 0.2485(3) 0.7591(8) 0.8899(3)
H13A H 0.2521 0.7938 0.9348
loop_
_geom_bond_atom_site_label_1
_geom_bond_atom_site_label_2
_geom_bond_site_symmetry_1
_geom_bond_site_symmetry_2
Co1 N1 1_555 1_555
N1 C3 1_555 1_555
O1 Co1 1_555 1_555
O2 Co1 1_555 1_555
C1 O2 1_555 1_555
N2 C4 1_555 1_555
C2 O1 1_555 1_555
C3 H1 1_555 1_555
C4 C3 1_555 1_555
H2 C4 1_555 1_555
C5 C1 1_555 1_555
H3 C5 1_555 1_555
C6 C1 1_555 1_555
C7 C2 1_555 1_555
C8 C7 1_555 1_555
H4 C8 1_555 1_555
C9 C6 1_555 1_555
H5 C9 1_555 1_555
C10 C8 1_555 1_555
H6 C10 1_555 1_555
C11 C6 1_555 1_555
H7 C11 1_555 1_555
C12 C9 1_555 1_555
H8 C12 1_555 1_555
C13 C7 1_555 1_555
H9 C13 1_555 1_555
C14 C12 1_555 1_555
H10 C14 1_555 1_555
C15 C10 1_555 1_555
H11 C15 1_555 1_555
C16 C13 1_555 1_555
H12 C16 1_555 1_555
C17 C11 1_555 1_555
H13 C17 1_555 1_555
Co1_2 N2 1_555 1_555
O1A Co1 1_555 1_555
O2A Co1 1_555 1_555
C1A O2A 1_555 1_555
N2_2 Co1 1_555 1_555
C2A O1A 1_555 1_555
C3A N1 1_555 1_555
H1A C3A 1_555 1_555
C4A N2 1_555 1_555
H2A C4A 1_555 1_555
C5A C1A 1_555 1_555
H3A C5A 1_555 1_555
C6A C1A 1_555 1_555
C7A C2A 1_555 1_555
C8A C7A 1_555 1_555
H4A C8A 1_555 1_555
C9A C6A 1_555 1_555
H5A C9A 1_555 1_555
C10A C8A 1_555 1_555
H6A C10A 1_555 1_555
C11A C6A 1_555 1_555
H7A C11A 1_555 1_555
C12A C9A 1_555 1_555
H8A C12A 1_555 1_555
C13A C7A 1_555 1_555
H9A C13A 1_555 1_555
C14A C12A 1_555 1_555
H10A C14A 1_555 1_555
C15A C10A 1_555 1_555
H11A C15A 1_555 1_555
C16A C13A 1_555 1_555
H12A C16A 1_555 1_555
C17A C11A 1_555 1_555
H13A C17A 1_555 1_555
C2 C5 1_555 1_555
C14 C17 1_555 1_555
C15 C16 1_555 1_555
C2A C5A 1_555 1_555
C3A C4A 1_555 1_555
C14A C17A 1_555 1_555
C15A C16A 1_555 1_555

#END
