
#######################################################################
#
#                 Cambridge Crystallographic Data Centre
#                                CCDC 
#
#######################################################################
#
# If this CIF has been generated from an entry in the Cambridge 
# Structural Database, then it will include bibliographic, chemical, 
# crystal, experimental, refinement or atomic coordinate data resulting 
# from the CCDC's data processing and validation procedures.
#
#######################################################################

data_HAHVAP
_symmetry_cell_setting           triclinic
_symmetry_space_group_name_H-M   'P -1'
_symmetry_Int_Tables_number      2
_space_group_name_Hall           '-P 1'
loop_
_symmetry_equiv_pos_site_id
_symmetry_equiv_pos_as_xyz
1 x,y,z
2 -x,-y,-z
_cell_length_a                   14.7059(3)
_cell_length_b                   15.0161(3)
_cell_length_c                   15.8680(3)
_cell_angle_alpha                111.0740(10)
_cell_angle_beta                 93.8310(10)
_cell_angle_gamma                99.7510(10)
_cell_volume                     3191.23
loop_
_atom_site_label
_atom_site_type_symbol
_atom_site_fract_x
_atom_site_fract_y
_atom_site_fract_z
C1 C -0.12417(19) -0.12249(18) 0.82758(17)
C2 C -0.0548(2) -0.1722(2) 0.79151(19)
H1 H -0.0693 -0.2179 0.7320
C3 C 0.0340(2) -0.15972(18) 0.83651(17)
C4 C 0.0956(2) -0.2269(2) 0.7903(2)
C5 C 0.0943(3) -0.2609(3) 0.6956(2)
H2 H 0.0543 -0.2421 0.6603
C6 C 0.1523(3) -0.3220(3) 0.6544(3)
H3 H 0.1525 -0.3430 0.5917
C7 C 0.2093(3) -0.3516(3) 0.7057(3)
H4 H 0.2474 -0.3937 0.6772
C8 C 0.2117(3) -0.3200(3) 0.8003(4)
H5 H 0.2506 -0.3408 0.8348
C9 C 0.1542(3) -0.2562(3) 0.8421(3)
H6 H 0.1555 -0.2335 0.9051
C10 C -0.2132(2) -0.13554(19) 0.7686(2)
C11 C -0.2238(3) -0.1808(2) 0.6739(2)
H7 H -0.1767 -0.2090 0.6456
C12 C -0.3058(3) -0.1840(2) 0.6213(3)
H8 H -0.3129 -0.2148 0.5582
C13 C -0.3751(3) -0.1422(3) 0.6618(3)
H9 H -0.4284 -0.1431 0.6263
C14 C -0.3659(2) -0.0984(3) 0.7560(3)
H10 H -0.4137 -0.0711 0.7838
C15 C -0.2850(2) -0.0952(3) 0.8090(3)
H11 H -0.2792 -0.0656 0.8722
C16 C 0.13078(17) 0.12929(18) 0.92927(16)
H12 H 0.1712 0.1015 0.9548
C17 C 0.16782(17) 0.19319(18) 0.88683(16)
H13 H 0.2319 0.2069 0.8868
C18 C 0.02111(16) 0.21320(16) 0.85123(15)
C19 C -0.04013(17) 0.25275(18) 0.80936(16)
H14 H -0.0171 0.2908 0.7774
C20 C -0.13327(18) 0.23523(18) 0.81569(17)
H15 H -0.1731 0.2615 0.7877
C21 C -0.16967(18) 0.1779(2) 0.86408(18)
H16 H -0.2328 0.1685 0.8696
C22 C -0.11223(17) 0.13602(19) 0.90290(18)
H17 H -0.1367 0.0970 0.9335
C23 C -0.01594(16) 0.15191(17) 0.89661(15)
C24 C 0.30737(17) 0.17580(16) 0.68221(16)
C25 C 0.24532(18) 0.13730(18) 0.60082(16)
H18 H 0.2656 0.0969 0.5492
C26 C 0.15480(17) 0.15465(17) 0.59053(16)
C27 C 0.39998(18) 0.14736(17) 0.68041(17)
C28 C 0.4414(2) 0.1372(2) 0.7570(2)
H19 H 0.4107 0.1472 0.8081
C29 C 0.5283(2) 0.1121(3) 0.7578(2)
H20 H 0.5550 0.1040 0.8087
C30 C 0.5752(2) 0.0992(2) 0.6825(2)
H21 H 0.6336 0.0834 0.6834
C31 C 0.5353(2) 0.1100(2) 0.6066(2)
H22 H 0.5670 0.1018 0.5564
C32 C 0.4481(2) 0.1329(2) 0.60498(19)
H23 H 0.4211 0.1388 0.5531
C33 C 0.09435(18) 0.10450(17) 0.49995(16)
C34 C 0.1226(2) 0.0373(2) 0.42486(19)
H24 H 0.1801 0.0207 0.4311
C35 C 0.0663(2) -0.0047(2) 0.34138(19)
H25 H 0.0865 -0.0484 0.2918
C36 C -0.0199(2) 0.0179(2) 0.33155(18)
H26 H -0.0583 -0.0110 0.2758
C37 C -0.0485(2) 0.0843(2) 0.40563(19)
H27 H -0.1063 0.1002 0.3994
C38 C 0.00833(19) 0.1271(2) 0.48906(18)
H28 H -0.0118 0.1716 0.5382
C39 C 0.24217(17) 0.48426(17) 0.94495(15)
C40 C 0.15872(18) 0.51515(19) 0.93334(17)
H29 H 0.1444 0.5645 0.9827
C41 C 0.09583(17) 0.47685(17) 0.85283(16)
C42 C 0.30499(17) 0.53846(17) 1.03323(16)
C43 C 0.40104(19) 0.55696(19) 1.03463(17)
H30 H 0.4261 0.5355 0.9803
C44 C 0.4601(2) 0.6075(2) 1.11675(18)
H31 H 0.5243 0.6214 1.1170
C45 C 0.4230(2) 0.63680(19) 1.19790(17)
H32 H 0.4624 0.6692 1.2529
C46 C 0.3276(2) 0.6180(2) 1.19746(17)
H33 H 0.3031 0.6377 1.2522
C47 C 0.26813(19) 0.56966(19) 1.11548(17)
H34 H 0.2040 0.5581 1.1154
C48 C 0.01285(17) 0.52059(18) 0.84450(16)
C49 C -0.0076(2) 0.5994(2) 0.9144(2)
H35 H 0.0292 0.6253 0.9711
C50 C -0.0828(2) 0.6393(2) 0.8997(2)
H36 H -0.0953 0.6925 0.9466
C51 C -0.1389(2) 0.6014(2) 0.8173(2)
H37 H -0.1881 0.6299 0.8078
C52 C -0.12222(19) 0.5209(2) 0.74835(18)
H38 H -0.1618 0.4932 0.6932
C53 C -0.04625(18) 0.48150(19) 0.76159(17)
H39 H -0.0345 0.4281 0.7144
C54 C 0.36204(16) 0.40093(17) 0.69905(16)
H40 H 0.3891 0.3949 0.7509
C55 C 0.42084(17) 0.42851(17) 0.64157(16)
H41 H 0.4850 0.4386 0.6563
C56 C 0.29288(17) 0.42379(16) 0.54824(15)
C57 C 0.25266(19) 0.43358(19) 0.46934(17)
H42 H 0.2903 0.4505 0.4304
C58 C 0.1579(2) 0.4179(2) 0.45095(18)
H43 H 0.1315 0.4241 0.3990
C59 C 0.09945(19) 0.3925(2) 0.50907(18)
H44 H 0.0352 0.3837 0.4959
C60 C 0.13627(18) 0.38049(19) 0.58467(17)
H45 H 0.0972 0.3626 0.6222
C61 C 0.23352(17) 0.39531(17) 0.60567(15)
C62 C 0.48767(17) 0.34982(17) 0.31846(16)
C63 C 0.55693(17) 0.31038(18) 0.34893(16)
H46 H 0.5849 0.2682 0.3051
C64 C 0.58695(17) 0.32985(17) 0.44052(16)
C65 C 0.46151(18) 0.32406(18) 0.21827(16)
C66 C 0.3888(2) 0.3596(2) 0.18997(19)
H47 H 0.3565 0.3966 0.2333
C67 C 0.3633(2) 0.3414(2) 0.0987(2)
H48 H 0.3137 0.3651 0.0814
C68 C 0.4107(2) 0.2888(3) 0.0340(2)
H49 H 0.3936 0.2764 -0.0273
C69 C 0.4843(3) 0.2543(4) 0.0605(2)
H50 H 0.5177 0.2194 0.0169
C70 C 0.5089(3) 0.2716(3) 0.1520(2)
H51 H 0.5583 0.2474 0.1688
C71 C 0.64860(18) 0.26952(18) 0.46386(17)
C72 C 0.64956(19) 0.17447(19) 0.40607(19)
H52 H 0.6119 0.1466 0.3498
C73 C 0.7066(2) 0.1212(2) 0.4323(2)
H53 H 0.7063 0.0576 0.3939
C74 C 0.7638(2) 0.1627(2) 0.5153(2)
H54 H 0.8022 0.1270 0.5324
C75 C 0.7640(2) 0.2576(2) 0.57318(19)
H55 H 0.8030 0.2859 0.6286
C76 C 0.70582(19) 0.31010(19) 0.54799(17)
H56 H 0.7049 0.3730 0.5875
Co1 Co 0.0000 0.0000 1.0000
Co2 Co 0.19333(2) 0.31615(2) 0.76949(2)
Co3 Co 0.5000 0.5000 0.5000
N1 N 0.04105(14) 0.10786(15) 0.93389(13)
N2 N 0.11549(14) 0.23380(14) 0.84764(13)
N3 N 0.27062(14) 0.38358(14) 0.68196(13)
N4 N 0.38784(14) 0.44037(14) 0.56788(13)
O1 O -0.11696(12) -0.06359(13) 0.91005(12)
O2 O 0.06798(13) -0.09600(13) 0.91542(12)
O3 O 0.29212(12) 0.23374(12) 0.75874(11)
O4 O 0.11984(12) 0.21202(12) 0.65400(11)
O5 O 0.27105(12) 0.41538(12) 0.88636(11)
O6 O 0.10434(12) 0.40598(12) 0.78225(11)
O7 O 0.44449(12) 0.40921(12) 0.37123(11)
O8 O 0.56676(12) 0.39648(12) 0.50883(11)
C1A C 0.12417(19) 0.12249(18) 1.17242(17)
C2A C 0.0548(2) 0.1722(2) 1.20849(19)
H1A H 0.0693 0.2179 1.2680
C3A C -0.0340(2) 0.15972(18) 1.16349(17)
C4A C -0.0956(2) 0.2269(2) 1.2097(2)
C5A C -0.0943(3) 0.2609(3) 1.3044(2)
H2A H -0.0543 0.2421 1.3397
C6A C -0.1523(3) 0.3220(3) 1.3456(3)
H3A H -0.1525 0.3430 1.4083
C7A C -0.2093(3) 0.3516(3) 1.2943(3)
H4A H -0.2474 0.3937 1.3228
C8A C -0.2117(3) 0.3200(3) 1.1997(4)
H5A H -0.2506 0.3408 1.1652
C9A C -0.1542(3) 0.2562(3) 1.1579(3)
H6A H -0.1555 0.2335 1.0949
C10A C 0.2132(2) 0.13554(19) 1.2314(2)
C11A C 0.2238(3) 0.1808(2) 1.3261(2)
H7A H 0.1767 0.2090 1.3544
C12A C 0.3058(3) 0.1840(2) 1.3787(3)
H8A H 0.3129 0.2148 1.4418
C13A C 0.3751(3) 0.1422(3) 1.3382(3)
H9A H 0.4284 0.1431 1.3737
C14A C 0.3659(2) 0.0984(3) 1.2440(3)
H10A H 0.4137 0.0711 1.2162
C15A C 0.2850(2) 0.0952(3) 1.1910(3)
H11A H 0.2792 0.0656 1.1278
C16A C -0.13078(17) -0.12929(18) 1.07073(16)
H12A H -0.1712 -0.1015 1.0452
C17A C -0.16782(17) -0.19319(18) 1.11317(16)
H13A H -0.2319 -0.2069 1.1132
C18A C -0.02111(16) -0.21320(16) 1.14877(15)
C19A C 0.04013(17) -0.25275(18) 1.19064(16)
H14A H 0.0171 -0.2908 1.2226
C20A C 0.13327(18) -0.23523(18) 1.18431(17)
H15A H 0.1731 -0.2615 1.2123
C21A C 0.16967(18) -0.1779(2) 1.13592(18)
H16A H 0.2328 -0.1685 1.1304
C22A C 0.11223(17) -0.13602(19) 1.09710(18)
H17A H 0.1367 -0.0970 1.0665
C23A C 0.01594(16) -0.15191(17) 1.10339(15)
C24A C -0.30737(17) -0.17580(16) 1.31779(16)
C25A C -0.24532(18) -0.13730(18) 1.39918(16)
H18A H -0.2656 -0.0969 1.4508
C26A C -0.15480(17) -0.15465(17) 1.40947(16)
C27A C -0.39998(18) -0.14736(17) 1.31959(17)
C28A C -0.4414(2) -0.1372(2) 1.2430(2)
H19A H -0.4107 -0.1472 1.1919
C29A C -0.5283(2) -0.1121(3) 1.2422(2)
H20A H -0.5550 -0.1040 1.1913
C30A C -0.5752(2) -0.0992(2) 1.3175(2)
H21A H -0.6336 -0.0834 1.3166
C31A C -0.5353(2) -0.1100(2) 1.3934(2)
H22A H -0.5670 -0.1018 1.4436
C32A C -0.4481(2) -0.1329(2) 1.39502(19)
H23A H -0.4211 -0.1388 1.4469
C33A C -0.09435(18) -0.10450(17) 1.50005(16)
C34A C -0.1226(2) -0.0373(2) 1.57514(19)
H24A H -0.1801 -0.0207 1.5689
C35A C -0.0663(2) 0.0047(2) 1.65862(19)
H25A H -0.0865 0.0484 1.7082
C36A C 0.0199(2) -0.0179(2) 1.66845(18)
H26A H 0.0583 0.0110 1.7242
C37A C 0.0485(2) -0.0843(2) 1.59437(19)
H27A H 0.1063 -0.1002 1.6006
C38A C -0.00833(19) -0.1271(2) 1.51094(18)
H28A H 0.0118 -0.1716 1.4618
C39A C -0.24217(17) -0.48426(17) 1.05505(15)
C40A C -0.15872(18) -0.51515(19) 1.06666(17)
H29A H -0.1444 -0.5645 1.0173
C41A C -0.09583(17) -0.47685(17) 1.14717(16)
C42A C -0.30499(17) -0.53846(17) 0.96677(16)
C43A C -0.40104(19) -0.55696(19) 0.96537(17)
H30A H -0.4261 -0.5355 1.0197
C44A C -0.4601(2) -0.6075(2) 0.88325(18)
H31A H -0.5243 -0.6214 0.8830
C45A C -0.4230(2) -0.63680(19) 0.80210(17)
H32A H -0.4624 -0.6692 0.7471
C46A C -0.3276(2) -0.6180(2) 0.80254(17)
H33A H -0.3031 -0.6377 0.7478
C47A C -0.26813(19) -0.56966(19) 0.88452(17)
H34A H -0.2040 -0.5581 0.8846
C48A C -0.01285(17) -0.52059(18) 1.15550(16)
C49A C 0.0076(2) -0.5994(2) 1.0856(2)
H35A H -0.0292 -0.6253 1.0289
C50A C 0.0828(2) -0.6393(2) 1.1003(2)
H36A H 0.0953 -0.6925 1.0534
C51A C 0.1389(2) -0.6014(2) 1.1827(2)
H37A H 0.1881 -0.6299 1.1922
C52A C 0.12222(19) -0.5209(2) 1.25165(18)
H38A H 0.1618 -0.4932 1.3068
C53A C 0.04625(18) -0.48150(19) 1.23841(17)
H39A H 0.0345 -0.4281 1.2856
C54A C -0.36204(16) -0.40093(17) 1.30095(16)
H40A H -0.3891 -0.3949 1.2491
C55A C -0.42084(17) -0.42851(17) 1.35843(16)
H41A H -0.4850 -0.4386 1.3437
C56A C -0.29288(17) -0.42379(16) 1.45176(15)
C57A C -0.25266(19) -0.43358(19) 1.53066(17)
H42A H -0.2903 -0.4505 1.5696
C58A C -0.1579(2) -0.4179(2) 1.54905(18)
H43A H -0.1315 -0.4241 1.6010
C59A C -0.09945(19) -0.3925(2) 1.49093(18)
H44A H -0.0352 -0.3837 1.5041
C60A C -0.13627(18) -0.38049(19) 1.41533(17)
H45A H -0.0972 -0.3626 1.3778
C61A C -0.23352(17) -0.39531(17) 1.39433(15)
C62A C 0.51233(17) 0.65018(17) 0.68154(16)
C63A C 0.44307(17) 0.68962(18) 0.65107(16)
H46A H 0.4151 0.7318 0.6949
C64A C 0.41305(17) 0.67015(17) 0.55948(16)
C65A C 0.53849(18) 0.67594(18) 0.78173(16)
C66A C 0.6112(2) 0.6404(2) 0.81003(19)
H47A H 0.6435 0.6034 0.7667
C67A C 0.6367(2) 0.6586(2) 0.9013(2)
H48A H 0.6863 0.6349 0.9186
C68A C 0.5893(2) 0.7112(3) 0.9660(2)
H49A H 0.6064 0.7236 1.0273
C69A C 0.5157(3) 0.7457(4) 0.9395(2)
H50A H 0.4823 0.7806 0.9831
C70A C 0.4911(3) 0.7284(3) 0.8480(2)
H51A H 0.4417 0.7526 0.8312
C71A C 0.35140(18) 0.73048(18) 0.53614(17)
C72A C 0.35044(19) 0.82553(19) 0.59393(19)
H52A H 0.3881 0.8534 0.6502
C73A C 0.2934(2) 0.8788(2) 0.5677(2)
H53A H 0.2937 0.9424 0.6061
C74A C 0.2362(2) 0.8373(2) 0.4847(2)
H54A H 0.1978 0.8730 0.4676
C75A C 0.2360(2) 0.7424(2) 0.42682(19)
H55A H 0.1970 0.7141 0.3714
C76A C 0.29418(19) 0.68990(19) 0.45201(17)
H56A H 0.2951 0.6270 0.4125
Co2A Co -0.19333(2) -0.31615(2) 1.23051(2)
Co3_2 Co -0.5000 -0.5000 1.5000
N1A N -0.04105(14) -0.10786(15) 1.06611(13)
N2A N -0.11549(14) -0.23380(14) 1.15236(13)
N3A N -0.27062(14) -0.38358(14) 1.31804(13)
N4A N -0.38784(14) -0.44037(14) 1.43212(13)
N4A_2 N 0.61216(14) 0.55963(14) 0.43212(13)
O1A O 0.11696(12) 0.06359(13) 1.08995(12)
O2A O -0.06798(13) 0.09600(13) 1.08458(12)
O3A O -0.29212(12) -0.23374(12) 1.24126(11)
O4A O -0.11984(12) -0.21202(12) 1.34600(11)
O5A O -0.27105(12) -0.41538(12) 1.11364(11)
O6A O -0.10434(12) -0.40598(12) 1.21775(11)
O7A O 0.55551(12) 0.59079(12) 0.62877(11)
O8A O 0.43324(12) 0.60352(12) 0.49117(11)
O9 O 0.3636(3) 0.9123(3) 0.9981(2)
O11 O 0.3585(17) 0.9723(9) 0.8564(11)
O12 O 0.2863(8) 0.9695(5) 0.9468(4)
O10? O 0.3257(6) 0.9549(7) 0.8411(5)
loop_
_geom_bond_atom_site_label_1
_geom_bond_atom_site_label_2
_geom_bond_site_symmetry_1
_geom_bond_site_symmetry_2
C1 C2 1_555 1_555
C2 H1 1_555 1_555
C3 C2 1_555 1_555
C4 C3 1_555 1_555
C5 C4 1_555 1_555
H2 C5 1_555 1_555
C6 C5 1_555 1_555
H3 C6 1_555 1_555
C7 C6 1_555 1_555
H4 C7 1_555 1_555
C8 C7 1_555 1_555
H5 C8 1_555 1_555
C9 C4 1_555 1_555
H6 C9 1_555 1_555
C10 C1 1_555 1_555
C11 C10 1_555 1_555
H7 C11 1_555 1_555
C12 C11 1_555 1_555
H8 C12 1_555 1_555
C13 C12 1_555 1_555
H9 C13 1_555 1_555
C14 C13 1_555 1_555
H10 C14 1_555 1_555
C15 C10 1_555 1_555
H11 C15 1_555 1_555
C16 H12 1_555 1_555
C17 C16 1_555 1_555
H13 C17 1_555 1_555
C18 C19 1_555 1_555
C19 H14 1_555 1_555
C20 C19 1_555 1_555
H15 C20 1_555 1_555
C21 C20 1_555 1_555
H16 C21 1_555 1_555
C22 C21 1_555 1_555
H17 C22 1_555 1_555
C23 C18 1_555 1_555
C24 C25 1_555 1_555
C25 H18 1_555 1_555
C26 C25 1_555 1_555
C27 C24 1_555 1_555
C28 C27 1_555 1_555
H19 C28 1_555 1_555
C29 C28 1_555 1_555
H20 C29 1_555 1_555
C30 C29 1_555 1_555
H21 C30 1_555 1_555
C31 C30 1_555 1_555
H22 C31 1_555 1_555
C32 C27 1_555 1_555
H23 C32 1_555 1_555
C33 C26 1_555 1_555
C34 C33 1_555 1_555
H24 C34 1_555 1_555
C35 C34 1_555 1_555
H25 C35 1_555 1_555
C36 C35 1_555 1_555
H26 C36 1_555 1_555
C37 C36 1_555 1_555
H27 C37 1_555 1_555
C38 C33 1_555 1_555
H28 C38 1_555 1_555
C39 C40 1_555 1_555
C40 H29 1_555 1_555
C41 C40 1_555 1_555
C42 C39 1_555 1_555
C43 C42 1_555 1_555
H30 C43 1_555 1_555
C44 C43 1_555 1_555
H31 C44 1_555 1_555
C45 C44 1_555 1_555
H32 C45 1_555 1_555
C46 C45 1_555 1_555
H33 C46 1_555 1_555
C47 C42 1_555 1_555
H34 C47 1_555 1_555
C48 C41 1_555 1_555
C49 C48 1_555 1_555
H35 C49 1_555 1_555
C50 C49 1_555 1_555
H36 C50 1_555 1_555
C51 C50 1_555 1_555
H37 C51 1_555 1_555
C52 C51 1_555 1_555
H38 C52 1_555 1_555
C53 C48 1_555 1_555
H39 C53 1_555 1_555
C54 H40 1_555 1_555
C55 C54 1_555 1_555
H41 C55 1_555 1_555
C56 C57 1_555 1_555
C57 H42 1_555 1_555
C58 C57 1_555 1_555
H43 C58 1_555 1_555
C59 C58 1_555 1_555
H44 C59 1_555 1_555
C60 C59 1_555 1_555
H45 C60 1_555 1_555
C61 C56 1_555 1_555
C62 C63 1_555 1_555
C63 H46 1_555 1_555
C64 C63 1_555 1_555
C65 C62 1_555 1_555
C66 C65 1_555 1_555
H47 C66 1_555 1_555
C67 C66 1_555 1_555
H48 C67 1_555 1_555
C68 C67 1_555 1_555
H49 C68 1_555 1_555
C69 C68 1_555 1_555
H50 C69 1_555 1_555
C70 C65 1_555 1_555
H51 C70 1_555 1_555
C71 C64 1_555 1_555
C72 C71 1_555 1_555
H52 C72 1_555 1_555
C73 C72 1_555 1_555
H53 C73 1_555 1_555
C74 C73 1_555 1_555
H54 C74 1_555 1_555
C75 C74 1_555 1_555
H55 C75 1_555 1_555
C76 C71 1_555 1_555
H56 C76 1_555 1_555
Co1 N1 1_555 1_555
Co2 N2 1_555 1_555
Co3 N4 1_555 1_555
N1 C16 1_555 1_555
N2 C17 1_555 1_555
N3 C54 1_555 1_555
N4 C55 1_555 1_555
O1 C1 1_555 1_555
O2 C3 1_555 1_555
O3 C24 1_555 1_555
O4 C26 1_555 1_555
O5 C39 1_555 1_555
O6 C41 1_555 1_555
O7 C62 1_555 1_555
O8 C64 1_555 1_555
C1A C2A 1_555 1_555
C2A H1A 1_555 1_555
C3A C2A 1_555 1_555
C4A C3A 1_555 1_555
C5A C4A 1_555 1_555
H2A C5A 1_555 1_555
C6A C5A 1_555 1_555
H3A C6A 1_555 1_555
C7A C6A 1_555 1_555
H4A C7A 1_555 1_555
C8A C7A 1_555 1_555
H5A C8A 1_555 1_555
C9A C4A 1_555 1_555
H6A C9A 1_555 1_555
C10A C1A 1_555 1_555
C11A C10A 1_555 1_555
H7A C11A 1_555 1_555
C12A C11A 1_555 1_555
H8A C12A 1_555 1_555
C13A C12A 1_555 1_555
H9A C13A 1_555 1_555
C14A C13A 1_555 1_555
H10A C14A 1_555 1_555
C15A C10A 1_555 1_555
H11A C15A 1_555 1_555
C16A H12A 1_555 1_555
C17A C16A 1_555 1_555
H13A C17A 1_555 1_555
C18A C19A 1_555 1_555
C19A H14A 1_555 1_555
C20A C19A 1_555 1_555
H15A C20A 1_555 1_555
C21A C20A 1_555 1_555
H16A C21A 1_555 1_555
C22A C21A 1_555 1_555
H17A C22A 1_555 1_555
C23A C18A 1_555 1_555
C24A C25A 1_555 1_555
C25A H18A 1_555 1_555
C26A C25A 1_555 1_555
C27A C24A 1_555 1_555
C28A C27A 1_555 1_555
H19A C28A 1_555 1_555
C29A C28A 1_555 1_555
H20A C29A 1_555 1_555
C30A C29A 1_555 1_555
H21A C30A 1_555 1_555
C31A C30A 1_555 1_555
H22A C31A 1_555 1_555
C32A C27A 1_555 1_555
H23A C32A 1_555 1_555
C33A C26A 1_555 1_555
C34A C33A 1_555 1_555
H24A C34A 1_555 1_555
C35A C34A 1_555 1_555
H25A C35A 1_555 1_555
C36A C35A 1_555 1_555
H26A C36A 1_555 1_555
C37A C36A 1_555 1_555
H27A C37A 1_555 1_555
C38A C33A 1_555 1_555
H28A C38A 1_555 1_555
C39A C40A 1_555 1_555
C40A H29A 1_555 1_555
C41A C40A 1_555 1_555
C42A C39A 1_555 1_555
C43A C42A 1_555 1_555
H30A C43A 1_555 1_555
C44A C43A 1_555 1_555
H31A C44A 1_555 1_555
C45A C44A 1_555 1_555
H32A C45A 1_555 1_555
C46A C45A 1_555 1_555
H33A C46A 1_555 1_555
C47A C42A 1_555 1_555
H34A C47A 1_555 1_555
C48A C41A 1_555 1_555
C49A C48A 1_555 1_555
H35A C49A 1_555 1_555
C50A C49A 1_555 1_555
H36A C50A 1_555 1_555
C51A C50A 1_555 1_555
H37A C51A 1_555 1_555
C52A C51A 1_555 1_555
H38A C52A 1_555 1_555
C53A C48A 1_555 1_555
H39A C53A 1_555 1_555
C54A H40A 1_555 1_555
C55A C54A 1_555 1_555
H41A C55A 1_555 1_555
C56A C57A 1_555 1_555
C57A H42A 1_555 1_555
C58A C57A 1_555 1_555
H43A C58A 1_555 1_555
C59A C58A 1_555 1_555
H44A C59A 1_555 1_555
C60A C59A 1_555 1_555
H45A C60A 1_555 1_555
C61A C56A 1_555 1_555
C62A C63A 1_555 1_555
C63A H46A 1_555 1_555
C64A C63A 1_555 1_555
C65A C62A 1_555 1_555
C66A C65A 1_555 1_555
H47A C66A 1_555 1_555
C67A C66A 1_555 1_555
H48A C67A 1_555 1_555
C68A C67A 1_555 1_555
H49A C68A 1_555 1_555
C69A C68A 1_555 1_555
H50A C69A 1_555 1_555
C70A C65A 1_555 1_555
H51A C70A 1_555 1_555
C71A C64A 1_555 1_555
C72A C71A 1_555 1_555
H52A C72A 1_555 1_555
C73A C72A 1_555 1_555
H53A C73A 1_555 1_555
C74A C73A 1_555 1_555
H54A C74A 1_555 1_555
C75A C74A 1_555 1_555
H55A C75A 1_555 1_555
C76A C71A 1_555 1_555
H56A C76A 1_555 1_555
Co2A N2A 1_555 1_555
Co3_2 N4A 1_555 1_555
N1A Co1 1_555 1_555
N2A C17A 1_555 1_555
N3A C54A 1_555 1_555
N4A C55A 1_555 1_555
N4A_2 Co3 1_555 1_555
O1A Co1 1_555 1_555
O2A Co1 1_555 1_555
O3A C24A 1_555 1_555
O4A C26A 1_555 1_555
O5A C39A 1_555 1_555
O6A C41A 1_555 1_555
O7A Co3 1_555 1_555
O8A Co3 1_555 1_555
C8 C9 1_555 1_555
C14 C15 1_555 1_555
C18 N2 1_555 1_555
C22 C23 1_555 1_555
C23 N1 1_555 1_555
C31 C32 1_555 1_555
C37 C38 1_555 1_555
C46 C47 1_555 1_555
C52 C53 1_555 1_555
C56 N4 1_555 1_555
C60 C61 1_555 1_555
C61 N3 1_555 1_555
C69 C70 1_555 1_555
C75 C76 1_555 1_555
Co1 O1 1_555 1_555
Co1 O2 1_555 1_555
Co2 N3 1_555 1_555
Co2 O3 1_555 1_555
Co2 O4 1_555 1_555
Co2 O5 1_555 1_555
Co2 O6 1_555 1_555
Co3 O7 1_555 1_555
Co3 O8 1_555 1_555
C1A O1A 1_555 1_555
C3A O2A 1_555 1_555
C8A C9A 1_555 1_555
C14A C15A 1_555 1_555
C16A N1A 1_555 1_555
C18A N2A 1_555 1_555
C22A C23A 1_555 1_555
C23A N1A 1_555 1_555
C31A C32A 1_555 1_555
C37A C38A 1_555 1_555
C46A C47A 1_555 1_555
C52A C53A 1_555 1_555
C56A N4A 1_555 1_555
C60A C61A 1_555 1_555
C61A N3A 1_555 1_555
C62A O7A 1_555 1_555
C64A O8A 1_555 1_555
C69A C70A 1_555 1_555
C75A C76A 1_555 1_555
Co2A N3A 1_555 1_555
Co2A O3A 1_555 1_555
Co2A O4A 1_555 1_555
Co2A O5A 1_555 1_555
Co2A O6A 1_555 1_555

#END
