
#######################################################################
#
#                 Cambridge Crystallographic Data Centre
#                                CCDC 
#
#######################################################################
#
# If this CIF has been generated from an entry in the Cambridge 
# Structural Database, then it will include bibliographic, chemical, 
# crystal, experimental, refinement or atomic coordinate data resulting 
# from the CCDC's data processing and validation procedures.
#
#######################################################################

data_HAHVUH
_symmetry_cell_setting           triclinic
_symmetry_space_group_name_H-M   'P -1'
_symmetry_Int_Tables_number      2
_space_group_name_Hall           '-P 1'
loop_
_symmetry_equiv_pos_site_id
_symmetry_equiv_pos_as_xyz
1 x,y,z
2 -x,-y,-z
_cell_length_a                   9.400(4)
_cell_length_b                   10.269(4)
_cell_length_c                   10.685(4)
_cell_angle_alpha                64.61(1)
_cell_angle_beta                 75.77(1)
_cell_angle_gamma                69.34(2)
_cell_volume                     866.393
loop_
_atom_site_label
_atom_site_type_symbol
_atom_site_fract_x
_atom_site_fract_y
_atom_site_fract_z
Cs2 Cs 0.53473(3) 0.24328(4) 0.88483(3)
Cu1 Cu 1.10438(5) 0.12665(6) 0.48444(5)
O1 O 0.8944(4) 0.1496(4) 0.4442(4)
O2 O 1.0158(3) 0.1090(3) 0.6695(3)
C1 C 0.9561(4) 0.2211(4) 0.7056(4)
O3 O 0.8805(4) 0.2180(4) 0.8190(3)
C2 C 0.9776(4) 0.3714(4) 0.5987(4)
N1 N 1.0510(4) 0.3704(4) 0.4735(3)
C3 C 0.9260(4) 0.5043(5) 0.6252(4)
C4 C 0.8401(5) 0.5191(5) 0.7609(4)
O4 O 0.9181(4) 0.4882(4) 0.8546(3)
O5 O 0.6969(4) 0.5664(5) 0.7622(4)
O6 O 1.1873(3) 0.1293(4) 0.3006(3)
C5 C 1.3311(5) 0.0719(5) 0.2796(4)
O7 O 1.3951(4) 0.0480(4) 0.1737(3)
C6 C 1.4244(4) 0.0323(4) 0.3951(4)
N2 N 1.3421(4) 0.0517(4) 0.5111(3)
C7 C 1.5843(5) -0.0191(5) 0.3822(4)
C8 C 1.6789(5) -0.0477(6) 0.2518(4)
O8 O 1.7128(4) 0.0565(4) 0.1526(4)
O9 O 1.7154(4) -0.1828(4) 0.2656(4)
H1 H 0.837 0.194 0.488
H2 H 0.872 0.187 0.358
O1A O 1.1056(4) -0.1496(4) 0.5558(4)
Cu1A Cu 0.89562(5) -0.12665(6) 0.51556(5)
C3A C 1.0740(4) 0.4957(5) 0.3748(4)
N1A N 0.9490(4) 0.6296(4) 0.5265(3)
C7A C 1.4157(5) 0.0191(5) 0.6178(4)
N2A N 1.6579(4) -0.0517(4) 0.4889(3)
H1A H 1.163 -0.194 0.512
H2A H 1.128 -0.187 0.642
O2A O 0.9842(3) -0.1090(3) 0.3305(3)
N1A_2 N 0.9490(4) -0.3704(4) 0.5265(3)
O6A O 0.8127(3) -0.1293(4) 0.6994(3)
N2A_2 N 0.6579(4) -0.0517(4) 0.4889(3)
C2A C 1.0224(4) 0.6286(4) 0.4013(4)
C4A C 1.1599(5) 0.4809(5) 0.2391(4)
Cu1A_2 Cu 0.89562(5) 0.87335(6) 0.51556(5)
C6A C 1.5756(4) -0.0323(4) 0.6049(4)
C8A C 1.3211(5) 0.0477(6) 0.7482(4)
Cu1A_3 Cu 1.89562(5) -0.12665(6) 0.51556(5)
C1A C 1.0439(4) -0.2211(4) 0.2944(4)
C5A C 0.6689(5) -0.0719(5) 0.7204(4)
C1A_2 C 1.0439(4) 0.7789(4) 0.2944(4)
O4A O 1.0819(4) 0.5118(4) 0.1454(3)
O5A O 1.3031(4) 0.4336(5) 0.2378(4)
C5A_2 C 1.6689(5) -0.0719(5) 0.7204(4)
O8A O 1.2872(4) -0.0565(4) 0.8474(4)
O9A O 1.2846(4) 0.1828(4) 0.7344(4)
O3A O 1.1195(4) -0.2180(4) 0.1810(3)
C2A_2 C 1.0224(4) -0.3714(4) 0.4013(4)
O7A O 0.6049(4) -0.0480(4) 0.8263(3)
C6A_2 C 0.5756(4) -0.0323(4) 0.6049(4)
O10 O 0.6652(4) 0.3201(4) 0.5593(4)
H3 H 0.678 0.420 0.538
H4 H 0.573 0.339 0.538
O11 O 1.3867(5) 0.3781(5) 0.4881(5)
H5 H 1.357 0.387 0.589
H6 H 1.338 0.313 0.573
O12 O 0.2092(5) 0.4356(5) 0.9187(5)
H7 H 0.138 0.478 0.875
H8 H 0.162 0.463 1.002
O13 O 0.7641(8) 0.2647(6) 0.2182(6)
H9 H 0.750 0.213 0.205
H10 H 0.715 0.363 0.171
Cs1 Cs 1.07481(3) 0.14265(3) 0.04269(3)
O14? O 0.4538(11) 0.5332(14) 0.9767(11)
H11? H 0.404 0.482 1.062
loop_
_geom_bond_atom_site_label_1
_geom_bond_atom_site_label_2
_geom_bond_site_symmetry_1
_geom_bond_site_symmetry_2
Cu1 O1 1_555 1_555
O1 H1 1_555 1_555
O2 Cu1 1_555 1_555
C1 O2 1_555 1_555
O3 C1 1_555 1_555
C2 C1 1_555 1_555
N1 Cu1 1_555 1_555
C3 C2 1_555 1_555
C4 C3 1_555 1_555
O4 C4 1_555 1_555
O5 C4 1_555 1_555
O6 Cu1 1_555 1_555
C5 O6 1_555 1_555
O7 C5 1_555 1_555
C6 C5 1_555 1_555
N2 Cu1 1_555 1_555
C7 C6 1_555 1_555
C8 C7 1_555 1_555
O8 C8 1_555 1_555
O9 C8 1_555 1_555
O10 H3 1_555 1_555
O11 H5 1_555 1_555
O12 H7 1_555 1_555
O13 H9 1_555 1_555
H2 O1 1_555 1_555
H4 O10 1_555 1_555
H6 O11 1_555 1_555
H8 O12 1_555 1_555
H10 O13 1_555 1_555
O1A Cu1 1_555 1_555
Cu1A O1 1_555 1_555
C3A N1 1_555 1_555
N1A C3 1_555 1_555
C7A N2 1_555 1_555
N2A C7 1_555 1_555
H1A O1A 1_555 1_555
H2A O1A 1_555 1_555
O2A Cu1A 1_555 1_555
N1A_2 Cu1A 1_555 1_555
O6A Cu1A 1_555 1_555
N2A_2 Cu1A 1_555 1_555
C2A C3A 1_555 1_555
C4A C3A 1_555 1_555
Cu1A_2 N1A 1_555 1_555
C6A C7A 1_555 1_555
C8A C7A 1_555 1_555
Cu1A_3 N2A 1_555 1_555
C1A O2A 1_555 1_555
C5A O6A 1_555 1_555
C1A_2 C2A 1_555 1_555
O4A C4A 1_555 1_555
O5A C4A 1_555 1_555
C5A_2 C6A 1_555 1_555
O8A C8A 1_555 1_555
O9A C8A 1_555 1_555
O3A C1A 1_555 1_555
C2A_2 C1A 1_555 1_555
O7A C5A 1_555 1_555
C6A_2 C5A 1_555 1_555
C2 N1 1_555 1_555
C6 N2 1_555 1_555
O1A Cu1A 1_555 1_555
N1A C2A 1_555 1_555
N2A C6A 1_555 1_555

#END
