
#######################################################################
#
#                 Cambridge Crystallographic Data Centre
#                                CCDC 
#
#######################################################################
#
# If this CIF has been generated from an entry in the Cambridge 
# Structural Database, then it will include bibliographic, chemical, 
# crystal, experimental, refinement or atomic coordinate data resulting 
# from the CCDC's data processing and validation procedures.
#
#######################################################################

data_HAHWES
_symmetry_cell_setting           triclinic
_symmetry_space_group_name_H-M   'P -1'
_symmetry_Int_Tables_number      2
_space_group_name_Hall           '-P 1'
loop_
_symmetry_equiv_pos_site_id
_symmetry_equiv_pos_as_xyz
1 x,y,z
2 -x,-y,-z
_cell_length_a                   9.340(1)
_cell_length_b                   10.166(1)
_cell_length_c                   10.208(1)
_cell_angle_alpha                63.70(1)
_cell_angle_beta                 75.73(1)
_cell_angle_gamma                68.27(1)
_cell_volume                     803.211
loop_
_atom_site_label
_atom_site_type_symbol
_atom_site_fract_x
_atom_site_fract_y
_atom_site_fract_z
K2 K 0.53824(10) 0.22612(8) 0.89309(8)
Cu1 Cu 1.10072(3) 0.12384(3) 0.48345(3)
O1 O 0.88814(21) 0.15442(22) 0.43868(23)
O2 O 1.01418(20) 0.10086(18) 0.68068(18)
C1 C 0.9545(3) 0.2159(3) 0.7180(3)
O3 O 0.88187(23) 0.21074(22) 0.83718(20)
C2 C 0.97689(25) 0.36853(25) 0.60398(24)
N1 N 1.04674(22) 0.36819(21) 0.47300(21)
C3 C 0.9294(3) 0.5015(3) 0.63179(24)
C4 C 0.8424(4) 0.5166(3) 0.7742(3)
O4 O 0.9201(3) 0.4784(3) 0.87334(23)
O5 O 0.6994(3) 0.5774(3) 0.7719(3)
O6 O 1.18322(19) 0.12370(21) 0.29260(19)
C5 C 1.3286(3) 0.0660(3) 0.2697(3)
O7 O 1.39426(21) 0.03713(23) 0.16122(20)
C6 C 1.42288(25) 0.03027(23) 0.39047(23)
N2 N 1.34006(21) 0.05035(20) 0.51114(20)
C7 C 1.5853(3) -0.02125(25) 0.37740(24)
C8 C 1.6813(3) -0.0535(3) 0.2437(3)
O8 O 1.70974(24) 0.0570(3) 0.13456(21)
O9 O 1.72375(24) -0.19101(24) 0.25954(23)
H1 H 0.878(5) 0.191(5) 0.356(6)
H2 H 0.822(7) 0.221(6) 0.482(6)
O1A O 1.11186(21) -0.15442(22) 0.56132(23)
Cu1A Cu 0.89928(3) -0.12384(3) 0.51655(3)
C3A C 1.0706(3) 0.4985(3) 0.36821(24)
N1A N 0.95326(22) 0.63181(21) 0.52700(21)
C7A C 1.4147(3) 0.02125(25) 0.62260(24)
N2A N 1.65994(21) -0.05035(20) 0.48886(20)
H1A H 1.122(5) -0.191(5) 0.644(6)
H2A H 1.178(7) -0.221(6) 0.518(6)
O2A O 0.98582(20) -0.10086(18) 0.31932(18)
N1A_2 N 0.95326(22) -0.36819(21) 0.52700(21)
O6A O 0.81678(19) -0.12370(21) 0.70740(19)
N2A_2 N 0.65994(21) -0.05035(20) 0.48886(20)
C2A C 1.02311(25) 0.63147(25) 0.39602(24)
C4A C 1.1576(4) 0.4834(3) 0.2258(3)
Cu1A_2 Cu 0.89928(3) 0.87616(3) 0.51655(3)
C6A C 1.57712(25) -0.03027(23) 0.60953(23)
C8A C 1.3187(3) 0.0535(3) 0.7563(3)
Cu1A_3 Cu 1.89928(3) -0.12384(3) 0.51655(3)
C1A C 1.0455(3) -0.2159(3) 0.2820(3)
C5A C 0.6714(3) -0.0660(3) 0.7303(3)
C1A_2 C 1.0455(3) 0.7841(3) 0.2820(3)
O4A O 1.0799(3) 0.5216(3) 0.12666(23)
O5A O 1.3006(3) 0.4226(3) 0.2281(3)
C5A_2 C 1.6714(3) -0.0660(3) 0.7303(3)
O8A O 1.29026(24) -0.0570(3) 0.86544(21)
O9A O 1.27625(24) 0.19101(24) 0.74046(23)
O3A O 1.11813(23) -0.21074(22) 0.16282(20)
C2A_2 C 1.02311(25) -0.36853(25) 0.39602(24)
O7A O 0.60574(21) -0.03713(23) 0.83878(20)
C6A_2 C 0.57712(25) -0.03027(23) 0.60953(23)
O10 O 0.6573(3) 0.3116(3) 0.5807(3)
H3 H 0.665(5) 0.410(6) 0.538(5)
H4 H 0.594(7) 0.335(6) 0.530(6)
O11 O 1.3859(3) 0.3816(3) 0.4828(4)
H5 H 1.384(6) 0.374(6) 0.394(6)
H6 H 1.337(5) 0.343(5) 0.548(5)
O12 O 0.2346(5) 0.3947(4) 0.9188(4)
H7 H 0.192(7) 0.425(6) 0.998(6)
H8 H 0.161(5) 0.426(5) 0.884(5)
O13 O 0.7974(4) 0.2612(3) 0.1779(3)
H9 H 0.721(8) 0.337(8) 0.175(7)
H10 H 0.763(5) 0.196(5) 0.160(4)
K1 K 1.08737(8) 0.13329(8) 0.04176(7)
O14? O 0.4790(10) 0.4713(10) 0.9619(9)
H11? H 0.555 0.416 1.024
loop_
_geom_bond_atom_site_label_1
_geom_bond_atom_site_label_2
_geom_bond_site_symmetry_1
_geom_bond_site_symmetry_2
Cu1 O1 1_555 1_555
O1 H1 1_555 1_555
O2 Cu1 1_555 1_555
C1 O2 1_555 1_555
O3 C1 1_555 1_555
C2 C1 1_555 1_555
N1 Cu1 1_555 1_555
C3 C2 1_555 1_555
C4 C3 1_555 1_555
O4 C4 1_555 1_555
O5 C4 1_555 1_555
O6 Cu1 1_555 1_555
C5 O6 1_555 1_555
O7 C5 1_555 1_555
C6 C5 1_555 1_555
N2 Cu1 1_555 1_555
C7 C6 1_555 1_555
C8 C7 1_555 1_555
O8 C8 1_555 1_555
O9 C8 1_555 1_555
O10 H3 1_555 1_555
O11 H5 1_555 1_555
O12 H7 1_555 1_555
O13 H9 1_555 1_555
H2 O1 1_555 1_555
H4 O10 1_555 1_555
H6 O11 1_555 1_555
H8 O12 1_555 1_555
H10 O13 1_555 1_555
O1A Cu1 1_555 1_555
Cu1A O1 1_555 1_555
C3A N1 1_555 1_555
N1A C3 1_555 1_555
C7A N2 1_555 1_555
N2A C7 1_555 1_555
H1A O1A 1_555 1_555
H2A O1A 1_555 1_555
O2A Cu1A 1_555 1_555
N1A_2 Cu1A 1_555 1_555
O6A Cu1A 1_555 1_555
N2A_2 Cu1A 1_555 1_555
C2A C3A 1_555 1_555
C4A C3A 1_555 1_555
Cu1A_2 N1A 1_555 1_555
C6A C7A 1_555 1_555
C8A C7A 1_555 1_555
Cu1A_3 N2A 1_555 1_555
C1A O2A 1_555 1_555
C5A O6A 1_555 1_555
C1A_2 C2A 1_555 1_555
O4A C4A 1_555 1_555
O5A C4A 1_555 1_555
C5A_2 C6A 1_555 1_555
O8A C8A 1_555 1_555
O9A C8A 1_555 1_555
O3A C1A 1_555 1_555
C2A_2 C1A 1_555 1_555
O7A C5A 1_555 1_555
C6A_2 C5A 1_555 1_555
C2 N1 1_555 1_555
C6 N2 1_555 1_555
O1A Cu1A 1_555 1_555
N1A C2A 1_555 1_555
N2A C6A 1_555 1_555

#END
