
#######################################################################
#
#                 Cambridge Crystallographic Data Centre
#                                CCDC 
#
#######################################################################
#
# If this CIF has been generated from an entry in the Cambridge 
# Structural Database, then it will include bibliographic, chemical, 
# crystal, experimental, refinement or atomic coordinate data resulting 
# from the CCDC's data processing and validation procedures.
#
#######################################################################

data_HAHYOF
_symmetry_cell_setting           monoclinic
_symmetry_space_group_name_H-M   'P 21/c'
_symmetry_Int_Tables_number      14
_space_group_name_Hall           '-P 2ybc'
loop_
_symmetry_equiv_pos_site_id
_symmetry_equiv_pos_as_xyz
1 x,y,z
2 x,1/2-y,1/2+z
3 -x,-y,-z
4 -x,1/2+y,1/2-z
_cell_length_a                   13.8169(2)
_cell_length_b                   12.2289(2)
_cell_length_c                   22.3563(4)
_cell_angle_alpha                90
_cell_angle_beta                 107.8600(1)
_cell_angle_gamma                90
_cell_volume                     3595.4
loop_
_atom_site_label
_atom_site_type_symbol
_atom_site_fract_x
_atom_site_fract_y
_atom_site_fract_z
Eu1 Eu 1.018073(13) 0.469185(14) 0.362348(8)
S1 S 1.26896(6) -0.27549(7) 0.28381(4)
S2 S 1.20020(6) 0.33905(7) 0.17494(4)
S3 S 1.24025(6) 0.57429(7) 0.49074(4)
O1 O 1.29178(18) -0.3802(2) 0.31562(12)
O2 O 1.2489(2) -0.2827(2) 0.21633(12)
O3 O 1.18672(19) -0.2185(2) 0.30059(13)
O4 O 1.63363(18) 0.0020(2) 0.37984(13)
H1 H 1.6811 -0.0188 0.3665
O5 O 1.18183(19) 0.2671(2) 0.12099(12)
O6 O 1.21342(19) 0.4538(2) 0.16016(13)
O7 O 1.12211(18) 0.3291(2) 0.20700(13)
O8 O 1.57637(19) 0.2034(2) 0.36793(12)
H2 H 1.5987 0.1429 0.3601
O9 O 1.15394(18) 0.5714(2) 0.43256(12)
O10 O 1.29803(18) 0.6741(2) 0.49497(13)
O11 O 1.2070(2) 0.5544(2) 0.54572(13)
O12 O 1.49527(19) 0.2013(2) 0.46616(13)
H3 H 1.5268 0.2145 0.4403
O13 O 1.07803(19) 0.3722(2) 0.45595(12)
O14 O 0.9174(2) 0.5766(2) 0.40973(13)
O15 O 1.01640(18) 0.6572(2) 0.31994(13)
O16 O 1.14926(19) 0.4640(2) 0.31357(13)
O17 O 1.03276(19) 0.2855(2) 0.32416(13)
O18 O 0.8677(2) 0.3636(2) 0.36285(13)
O19 O 0.9121(2) 0.4725(2) 0.25300(13)
N1 N 1.0563(2) 0.2682(2) 0.46768(15)
C1 C 1.5375(3) -0.1540(3) 0.39200(17)
C2 C 1.4507(3) -0.2189(3) 0.36977(17)
H4 H 1.4400 -0.2794 0.3936
C3 C 1.3799(3) -0.1936(3) 0.31208(18)
C4 C 1.3933(3) -0.1059(3) 0.27648(18)
H5 H 1.3439 -0.0909 0.2372
C5 C 1.4789(3) -0.0391(3) 0.29788(18)
C6 C 1.5492(3) -0.0652(3) 0.35542(17)
C7 C 1.4969(3) 0.0558(3) 0.25840(18)
H6 H 1.5711 0.0674 0.2684
H7 H 1.4703 0.0354 0.2135
C8 C 1.4483(3) 0.1624(3) 0.26809(17)
C9 C 1.3603(3) 0.1982(3) 0.22323(17)
H8 H 1.3306 0.1547 0.1871
C10 C 1.3148(3) 0.2974(3) 0.23047(17)
C11 C 1.3577(3) 0.3619(3) 0.28255(17)
H9 H 1.3269 0.4297 0.2868
C12 C 1.4455(3) 0.3290(3) 0.32898(17)
C13 C 1.4900(3) 0.2290(3) 0.32111(18)
C14 C 1.4909(3) 0.3979(3) 0.38706(17)
H10 H 1.4899 0.4755 0.3744
H11 H 1.5628 0.3763 0.4064
C15 C 1.4355(2) 0.3869(3) 0.43565(17)
C16 C 1.3760(3) 0.4729(3) 0.44422(17)
H12 H 1.3731 0.5384 0.4209
C17 C 1.3203(2) 0.4649(3) 0.48660(16)
C18 C 1.3240(3) 0.3701(3) 0.52051(17)
H13 H 1.2858 0.3652 0.5492
C19 C 1.3826(3) 0.2816(3) 0.51358(17)
C20 C 1.4392(3) 0.2915(3) 0.47159(17)
C21 C 1.6216(3) -0.1759(3) 0.45221(18)
H14 H 1.6869 -0.1742 0.4426
H15 H 1.6227 -0.1148 0.4814
C22 C 0.9776(3) 0.2498(3) 0.48969(19)
H16 H 0.9377 0.3093 0.4961
C23 C 0.9547(3) 0.1453(3) 0.50297(19)
H17 H 0.8989 0.1328 0.5186
C24 C 1.0129(3) 0.0570(3) 0.49369(18)
C25 C 1.0948(3) 0.0806(3) 0.47260(18)
H18 H 1.1371 0.0230 0.4668
C26 C 1.1158(3) 0.1868(3) 0.45984(18)
H19 H 1.1724 0.2020 0.4455
C21B C 1.3784(3) 0.1759(3) 0.54779(18)
C1B C 1.4625(3) 0.1540(3) 0.60800(17)
C2B C 1.5493(3) 0.2189(3) 0.63023(17)
H4B H 1.5600 0.2794 0.6064
C3B C 1.6201(3) 0.1936(3) 0.68792(18)
S1B S 1.73104(6) 0.27549(7) 0.71619(4)
O1B O 1.70822(18) 0.3802(2) 0.68438(12)
O2B O 1.7511(2) 0.2827(2) 0.78367(12)
O3B O 1.81328(19) 0.2185(2) 0.69941(13)
C4B C 1.6067(3) 0.1059(3) 0.72352(18)
H5B H 1.6561 0.0909 0.7628
C5B C 1.5211(3) 0.0391(3) 0.70212(18)
C6B C 1.4508(3) 0.0652(3) 0.64458(17)
O4B O 1.36637(18) -0.0020(2) 0.62016(13)
H1B H 1.3189 0.0188 0.6335
C7B C 1.5031(3) -0.0558(3) 0.74160(18)
H6B H 1.4289 -0.0674 0.7316
H7B H 1.5297 -0.0354 0.7865
C8B C 1.5517(3) -0.1624(3) 0.73191(17)
C9B C 1.6397(3) -0.1982(3) 0.77677(17)
H8B H 1.6694 -0.1547 0.8129
C10B C 1.6852(3) -0.2974(3) 0.76953(17)
S2B S 1.79980(6) -0.33905(7) 0.82506(4)
O5B O 1.81817(19) -0.2671(2) 0.87901(12)
O6B O 1.78658(19) -0.4538(2) 0.83984(13)
O7B O 1.87789(18) -0.3291(2) 0.79300(13)
C11B C 1.6423(3) -0.3619(3) 0.71745(17)
H9B H 1.6731 -0.4297 0.7132
C12B C 1.5545(3) -0.3290(3) 0.67102(17)
C13B C 1.5100(3) -0.2290(3) 0.67889(18)
O8B O 1.42363(19) -0.2034(2) 0.63207(12)
H2B H 1.4013 -0.1429 0.6399
C14B C 1.5091(3) -0.3979(3) 0.61294(17)
H10B H 1.5101 -0.4755 0.6256
H11B H 1.4372 -0.3763 0.5936
C15B C 1.5645(2) -0.3869(3) 0.56435(17)
C16B C 1.6240(3) -0.4729(3) 0.55578(17)
H12B H 1.6269 -0.5384 0.5791
C17B C 1.6797(2) -0.4649(3) 0.51340(16)
S3B S 1.75975(6) -0.57429(7) 0.50926(4)
O9B O 1.84606(18) -0.5714(2) 0.56744(12)
O10B O 1.70197(18) -0.6741(2) 0.50503(13)
O11B O 1.7930(2) -0.5544(2) 0.45428(13)
C18B C 1.6760(3) -0.3701(3) 0.47949(17)
H13B H 1.7142 -0.3652 0.4508
C19B C 1.6174(3) -0.2816(3) 0.48642(17)
C20B C 1.5608(3) -0.2915(3) 0.52841(17)
O12B O 1.50473(19) -0.2013(2) 0.53384(13)
H3B H 1.4732 -0.2145 0.5597
H14B H 1.3131 0.1742 0.5574
H15B H 1.3773 0.1148 0.5186
C24B C 0.9871(3) -0.0570(3) 0.50631(18)
C23B C 1.0453(3) -0.1453(3) 0.49703(19)
C22B C 1.0224(3) -0.2498(3) 0.51031(19)
N1B N 0.9437(2) -0.2682(2) 0.53232(15)
O13B O 0.92197(19) -0.3722(2) 0.54405(12)
C26B C 0.8842(3) -0.1868(3) 0.54016(18)
C25B C 0.9052(3) -0.0806(3) 0.52740(18)
H18B H 0.8629 -0.0230 0.5332
H19B H 0.8276 -0.2020 0.5545
H16B H 1.0623 -0.3093 0.5039
H17B H 1.1011 -0.1328 0.4814
Eu1B Eu 1.981927(13) -0.469185(14) 0.637652(8)
O14B O 2.0826(2) -0.5766(2) 0.59027(13)
O15B O 1.98360(18) -0.6572(2) 0.68006(13)
O16B O 1.85074(19) -0.4640(2) 0.68643(13)
O17B O 1.96724(19) -0.2855(2) 0.67584(13)
O18B O 2.1323(2) -0.3636(2) 0.63715(13)
O19B O 2.0879(2) -0.4725(2) 0.74700(13)
Eu1B_2 Eu 0.981927(13) -0.469185(14) 0.637652(8)
O13B_2 O 1.92197(19) -0.3722(2) 0.54405(12)
O20 O 1.3243(3) 0.0535(3) 0.40418(18)
O21 O 1.2360(2) -0.1341(2) 0.42658(15)
O22 O 1.0490(2) 0.5872(3) 0.17553(17)
O23 O 1.1914(2) 1.1531(2) 0.30992(14)
loop_
_geom_bond_atom_site_label_1
_geom_bond_atom_site_label_2
_geom_bond_site_symmetry_1
_geom_bond_site_symmetry_2
Eu1 O9 1_555 1_555
S1 O1 1_555 1_555
S2 O5 1_555 1_555
S3 O9 1_555 1_555
O2 S1 1_555 1_555
O3 S1 1_555 1_555
O4 H1 1_555 1_555
O6 S2 1_555 1_555
O7 S2 1_555 1_555
O8 H2 1_555 1_555
O10 S3 1_555 1_555
O11 S3 1_555 1_555
O12 H3 1_555 1_555
O13 Eu1 1_555 1_555
O14 Eu1 1_555 1_555
O15 Eu1 1_555 1_555
O16 Eu1 1_555 1_555
O17 Eu1 1_555 1_555
O18 Eu1 1_555 1_555
O19 Eu1 1_555 1_555
N1 O13 1_555 1_555
C1 C2 1_555 1_555
C2 H4 1_555 1_555
C3 S1 1_555 1_555
C4 C3 1_555 1_555
H5 C4 1_555 1_555
C5 C4 1_555 1_555
C6 O4 1_555 1_555
C7 C5 1_555 1_555
H6 C7 1_555 1_555
H7 C7 1_555 1_555
C8 C7 1_555 1_555
C9 C8 1_555 1_555
H8 C9 1_555 1_555
C10 S2 1_555 1_555
C11 C10 1_555 1_555
H9 C11 1_555 1_555
C12 C11 1_555 1_555
C13 O8 1_555 1_555
C14 C12 1_555 1_555
H10 C14 1_555 1_555
H11 C14 1_555 1_555
C15 C14 1_555 1_555
C16 C15 1_555 1_555
H12 C16 1_555 1_555
C17 S3 1_555 1_555
C18 C17 1_555 1_555
H13 C18 1_555 1_555
C19 C18 1_555 1_555
C20 O12 1_555 1_555
C21 C1 1_555 1_555
H14 C21 1_555 1_555
H15 C21 1_555 1_555
C22 N1 1_555 1_555
H16 C22 1_555 1_555
C23 C22 1_555 1_555
H17 C23 1_555 1_555
C24 C23 1_555 1_555
C25 C24 1_555 1_555
H18 C25 1_555 1_555
C26 N1 1_555 1_555
H19 C26 1_555 1_555
C21B C19 1_555 1_555
C1B C21B 1_555 1_555
C2B C1B 1_555 1_555
H4B C2B 1_555 1_555
C3B C2B 1_555 1_555
S1B C3B 1_555 1_555
O1B S1B 1_555 1_555
O2B S1B 1_555 1_555
O3B S1B 1_555 1_555
C4B C3B 1_555 1_555
H5B C4B 1_555 1_555
C5B C4B 1_555 1_555
C6B C1B 1_555 1_555
O4B C6B 1_555 1_555
H1B O4B 1_555 1_555
C7B C5B 1_555 1_555
H6B C7B 1_555 1_555
H7B C7B 1_555 1_555
C8B C7B 1_555 1_555
C9B C8B 1_555 1_555
H8B C9B 1_555 1_555
C10B C9B 1_555 1_555
S2B C10B 1_555 1_555
O5B S2B 1_555 1_555
O6B S2B 1_555 1_555
O7B S2B 1_555 1_555
C11B C10B 1_555 1_555
H9B C11B 1_555 1_555
C12B C11B 1_555 1_555
C13B C8B 1_555 1_555
O8B C13B 1_555 1_555
H2B O8B 1_555 1_555
C14B C12B 1_555 1_555
H10B C14B 1_555 1_555
H11B C14B 1_555 1_555
C15B C14B 1_555 1_555
C16B C15B 1_555 1_555
H12B C16B 1_555 1_555
C17B C16B 1_555 1_555
S3B C17B 1_555 1_555
O9B S3B 1_555 1_555
O10B S3B 1_555 1_555
O11B S3B 1_555 1_555
C18B C17B 1_555 1_555
H13B C18B 1_555 1_555
C19B C21 1_555 1_555
C20B C15B 1_555 1_555
O12B C20B 1_555 1_555
H3B O12B 1_555 1_555
H14B C21B 1_555 1_555
H15B C21B 1_555 1_555
C24B C24 1_555 1_555
C23B C24B 1_555 1_555
C22B C23B 1_555 1_555
N1B C22B 1_555 1_555
O13B N1B 1_555 1_555
C26B N1B 1_555 1_555
C25B C24B 1_555 1_555
H18B C25B 1_555 1_555
H19B C26B 1_555 1_555
H16B C22B 1_555 1_555
H17B C23B 1_555 1_555
Eu1B O9B 1_555 1_555
O14B Eu1B 1_555 1_555
O15B Eu1B 1_555 1_555
O16B Eu1B 1_555 1_555
O17B Eu1B 1_555 1_555
O18B Eu1B 1_555 1_555
O19B Eu1B 1_555 1_555
Eu1B_2 O13B 1_555 1_555
O13B_2 Eu1B 1_555 1_555
C1 C6 1_555 1_555
C2 C3 1_555 1_555
C5 C6 1_555 1_555
C8 C13 1_555 1_555
C9 C10 1_555 1_555
C12 C13 1_555 1_555
C15 C20 1_555 1_555
C16 C17 1_555 1_555
C19 C20 1_555 1_555
C25 C26 1_555 1_555
C5B C6B 1_555 1_555
C12B C13B 1_555 1_555
C18B C19B 1_555 1_555
C19B C20B 1_555 1_555
C26B C25B 1_555 1_555

#END
