
#######################################################################
#
#                 Cambridge Crystallographic Data Centre
#                                CCDC 
#
#######################################################################
#
# If this CIF has been generated from an entry in the Cambridge 
# Structural Database, then it will include bibliographic, chemical, 
# crystal, experimental, refinement or atomic coordinate data resulting 
# from the CCDC's data processing and validation procedures.
#
#######################################################################

data_HAHZUM
_symmetry_cell_setting           orthorhombic
_symmetry_space_group_name_H-M   'P n n a'
_symmetry_Int_Tables_number      52
_space_group_name_Hall           '-P 2a 2bc'
loop_
_symmetry_equiv_pos_site_id
_symmetry_equiv_pos_as_xyz
1 x,y,z
2 1/2+x,y,-z
3 -x,1/2+y,1/2+z
4 1/2+x,1/2-y,1/2+z
5 -x,-y,-z
6 1/2-x,-y,z
7 x,1/2-y,1/2-z
8 1/2-x,1/2+y,1/2-z
_cell_length_a                   23.79(1)
_cell_length_b                   15.887(7)
_cell_length_c                   17.773(8)
_cell_angle_alpha                90
_cell_angle_beta                 90
_cell_angle_gamma                90
_cell_volume                     6717.34
loop_
_atom_site_label
_atom_site_type_symbol
_atom_site_fract_x
_atom_site_fract_y
_atom_site_fract_z
Zn1 Zn 0.34359(2) 0.32228(4) 0.19891(3)
O1 O 0.4053(2) 0.2543(3) 0.1469(2)
O2 O 0.4014(2) 0.1419(3) 0.2234(2)
O3 O 0.7862(2) 0.2510(2) -0.1453(2)
O4 O 0.7819(1) 0.1444(2) -0.2257(2)
O5 O 0.5947(2) 0.0249(2) 0.0024(3)
O6 O 0.3407(2) 0.4269(3) 0.1397(3)
N1 N 0.3411(4) 0.5705(4) 0.1373(6)
C1 C 0.4218(2) 0.1805(4) 0.1685(3)
C2 C 0.4675(2) 0.1423(4) 0.1235(4)
C3 C 0.4879(3) 0.1789(4) 0.0583(4)
C4 C 0.5320(3) 0.1425(4) 0.0181(4)
C5 C 0.5541(3) 0.0688(4) 0.0417(4)
C6 C 0.5332(3) 0.0295(4) 0.1047(4)
C7 C 0.4904(2) 0.0661(4) 0.1444(4)
C8 C 0.7665(2) 0.1833(4) -0.1672(3)
C9 C 0.7202(2) 0.1416(4) -0.1233(3)
C10 C 0.7028(2) 0.1772(4) -0.0565(4)
C11 C 0.6606(3) 0.1406(4) -0.0140(4)
C12 C 0.6352(3) 0.0657(4) -0.0398(4)
C13 C 0.6527(3) 0.0308(4) -0.1057(4)
C14 C 0.6952(2) 0.0675(4) -0.1466(4)
C15 C 0.3514(4) 0.4933(7) 0.1632(6)
C16 C 0.3083(5) 0.5767(8) 0.0775(8)
C17 C 0.3535(8) 0.6450(8) 0.173(1)
H1 H 0.4715 0.2297 0.0406
H2 H 0.5464 0.1694 -0.0256
H3 H 0.5484 -0.0228 0.1206
H4 H 0.4761 0.0382 0.1877
H5 H 0.7201 0.2276 -0.0393
H6 H 0.6489 0.1656 0.0320
H7 H 0.6354 -0.0192 -0.1236
H8 H 0.7077 0.0414 -0.1917
H9 H 0.3711 0.4923 0.2097
H10 H 0.2783 0.5376 0.0817
H11 H 0.3296 0.5648 0.0335
H12 H 0.2936 0.6322 0.0744
H13 H 0.3649 0.6856 0.1369
H14 H 0.3210 0.6648 0.1988
H15 H 0.3830 0.6361 0.2082
Zn1F Zn 0.34359(2) 0.17772(4) 0.30109(3)
O2F O 0.4014(2) 0.3581(3) 0.2766(2)
O3A O 0.2862(2) 0.2510(2) 0.1453(2)
O4C O 0.2819(1) 0.3556(2) 0.2743(2)
Zn1A Zn 0.84359(2) 0.32228(4) -0.19891(3)
Zn1C Zn 0.84359(2) 0.17772(4) -0.30109(3)
O7 O 0.804(1) 0.386(2) 0.069(2)
N2 N 0.8369(8) 0.260(2) 0.065(1)
C18 C 0.843(1) 0.333(2) 0.038(2)
C19 C 0.779(2) 0.245(2) 0.125(2)
C20 C 0.8421(10) 0.169(2) 0.045(1)
H16 H 0.8703 0.3483 0.0013
H17 H 0.7675 0.2981 0.1445
H18 H 0.7889 0.2088 0.1649
H19 H 0.7488 0.2212 0.0969
H20 H 0.8245 0.1356 0.0826
H21 H 0.8243 0.1595 -0.0020
H22 H 0.8807 0.1543 0.0416
loop_
_geom_bond_atom_site_label_1
_geom_bond_atom_site_label_2
_geom_bond_site_symmetry_1
_geom_bond_site_symmetry_2
Zn1 O1 1_555 1_555
O1 C1 1_555 1_555
O2 C1 1_555 1_555
O3 C8 1_555 1_555
O4 C8 1_555 1_555
O5 C5 1_555 1_555
O6 Zn1 1_555 1_555
O7 C18 1_555 1_555
N1 C15 1_555 1_555
N2 C18 1_555 1_555
C1 C2 1_555 1_555
C2 C3 1_555 1_555
C3 C4 1_555 1_555
C4 C5 1_555 1_555
C5 C6 1_555 1_555
C6 C7 1_555 1_555
C7 C2 1_555 1_555
C8 C9 1_555 1_555
C9 C10 1_555 1_555
C10 C11 1_555 1_555
C11 C12 1_555 1_555
C12 O5 1_555 1_555
C13 C12 1_555 1_555
C14 C9 1_555 1_555
C15 O6 1_555 1_555
C16 N1 1_555 1_555
C17 N1 1_555 1_555
C18 H16 1_555 1_555
C19 N2 1_555 1_555
C20 N2 1_555 1_555
H1 C3 1_555 1_555
H2 C4 1_555 1_555
H3 C6 1_555 1_555
H4 C7 1_555 1_555
H5 C10 1_555 1_555
H6 C11 1_555 1_555
H7 C13 1_555 1_555
H8 C14 1_555 1_555
H9 C15 1_555 1_555
H10 C16 1_555 1_555
H11 C16 1_555 1_555
H12 C16 1_555 1_555
H13 C17 1_555 1_555
H14 C17 1_555 1_555
H15 C17 1_555 1_555
H17 C19 1_555 1_555
H18 C19 1_555 1_555
H19 C19 1_555 1_555
H20 C20 1_555 1_555
H21 C20 1_555 1_555
H22 C20 1_555 1_555
Zn1F Zn1 1_555 1_555
O2F Zn1 1_555 1_555
O3A Zn1 1_555 1_555
O4C Zn1 1_555 1_555
Zn1A O3 1_555 1_555
Zn1C O4 1_555 1_555
O2 Zn1F 1_555 1_555
C13 C14 1_555 1_555
Zn1A Zn1C 1_555 1_555

#END
