
#######################################################################
#
#                 Cambridge Crystallographic Data Centre
#                                CCDC 
#
#######################################################################
#
# If this CIF has been generated from an entry in the Cambridge 
# Structural Database, then it will include bibliographic, chemical, 
# crystal, experimental, refinement or atomic coordinate data resulting 
# from the CCDC's data processing and validation procedures.
#
#######################################################################

data_HAJBAW
_symmetry_cell_setting           monoclinic
_symmetry_space_group_name_H-M   'P 2/a'
_symmetry_Int_Tables_number      13
_space_group_name_Hall           '-P 2ya'
loop_
_symmetry_equiv_pos_site_id
_symmetry_equiv_pos_as_xyz
1 x,y,z
2 1/2-x,y,-z
3 -x,-y,-z
4 1/2+x,-y,z
_cell_length_a                   7.391(6)
_cell_length_b                   6.273(5)
_cell_length_c                   14.256(11)
_cell_angle_alpha                90
_cell_angle_beta                 103.572(10)
_cell_angle_gamma                90
_cell_volume                     642.505
loop_
_atom_site_label
_atom_site_type_symbol
_atom_site_fract_x
_atom_site_fract_y
_atom_site_fract_z
Zn1 Zn 0.2500 0.18185(8) 0.0000
O1 O 0.0017(3) 0.2008(3) 0.0583(2)
O2 O -0.1127(4) -0.0721(4) 0.1242(2)
O3 O 0.2500 0.4571(6) 0.5000
O4 O 0.2500 0.4955(5) 0.0000
C1 C -0.0225(4) 0.0986(5) 0.1306(2)
C2 C 0.0546(4) 0.1852(5) 0.2299(2)
C3 C 0.1415(5) 0.3839(6) 0.2418(2)
C4 C 0.2090(5) 0.4662(6) 0.3331(2)
C5 C 0.1909(5) 0.3511(5) 0.4132(2)
C6 C 0.1052(5) 0.1545(6) 0.4027(2)
C7 C 0.0369(5) 0.0710(6) 0.3107(2)
H1 H 0.1530(5) 0.4633(6) 0.1867(2)
H2 H 0.2693(5) 0.6010(6) 0.3410(2)
H3 H 0.0936(5) 0.0764(6) 0.4581(2)
H4 H -0.0225(5) -0.0642(6) 0.3031(2)
C5A C 0.3091(5) 0.3511(5) 0.5868(2)
C4A C 0.2910(5) 0.4662(6) 0.6669(2)
C3A C 0.3585(5) 0.3839(6) 0.7582(2)
C2A C 0.4454(4) 0.1852(5) 0.7701(2)
C1A C 0.5225(4) 0.0986(5) 0.8694(2)
O1A O 0.4983(3) 0.2008(3) 0.9417(2)
O2A O 0.6127(4) -0.0721(4) 0.8758(2)
C7A C 0.4631(5) 0.0710(6) 0.6893(2)
C6A C 0.3948(5) 0.1545(6) 0.5973(2)
H3A H 0.4064(5) 0.0764(6) 0.5419(2)
H4A H 0.5225(5) -0.0642(6) 0.6969(2)
H1A H 0.3470(5) 0.4633(6) 0.8133(2)
H2A H 0.2307(5) 0.6010(6) 0.6590(2)
O1A_2 O 0.4983(3) 0.2008(3) -0.0583(2)
O2C O 0.3873(4) 0.0721(4) 0.1242(2)
O2B O 0.1127(4) 0.0721(4) -0.1242(2)
Zn1C Zn -0.2500 -0.18185(8) 0.0000
Zn1_2 Zn 0.2500 0.18185(8) 1.0000
Zn1C_2 Zn 0.7500 -0.18185(8) 1.0000
loop_
_geom_bond_atom_site_label_1
_geom_bond_atom_site_label_2
_geom_bond_site_symmetry_1
_geom_bond_site_symmetry_2
Zn1 O1 1_555 1_555
O1 C1 1_555 1_555
O2 C1 1_555 1_555
O3 C5 1_555 1_555
O4 Zn1 1_555 1_555
C1 C2 1_555 1_555
C2 C3 1_555 1_555
C3 C4 1_555 1_555
C4 C5 1_555 1_555
C5 C6 1_555 1_555
C6 C7 1_555 1_555
C7 C2 1_555 1_555
H1 C3 1_555 1_555
H2 C4 1_555 1_555
H3 C6 1_555 1_555
H4 C7 1_555 1_555
C5A O3 1_555 1_555
C4A C5A 1_555 1_555
C3A C4A 1_555 1_555
C2A C3A 1_555 1_555
C1A C2A 1_555 1_555
O1A C1A 1_555 1_555
O2A C1A 1_555 1_555
C7A C2A 1_555 1_555
C6A C5A 1_555 1_555
H3A C6A 1_555 1_555
H4A C7A 1_555 1_555
H1A C3A 1_555 1_555
H2A C4A 1_555 1_555
O1A_2 Zn1 1_555 1_555
O2C Zn1 1_555 1_555
O2B Zn1 1_555 1_555
Zn1C O2 1_555 1_555
Zn1_2 O1A 1_555 1_555
Zn1C_2 O2A 1_555 1_555
C7A C6A 1_555 1_555

#END
