
#######################################################################
#
#                 Cambridge Crystallographic Data Centre
#                                CCDC 
#
#######################################################################
#
# If this CIF has been generated from an entry in the Cambridge 
# Structural Database, then it will include bibliographic, chemical, 
# crystal, experimental, refinement or atomic coordinate data resulting 
# from the CCDC's data processing and validation procedures.
#
#######################################################################

data_HAJBIF
_symmetry_cell_setting           triclinic
_symmetry_space_group_name_H-M   'P -1'
_symmetry_Int_Tables_number      2
_space_group_name_Hall           '-P 1'
loop_
_symmetry_equiv_pos_site_id
_symmetry_equiv_pos_as_xyz
1 x,y,z
2 -x,-y,-z
_cell_length_a                   10.471(1)
_cell_length_b                   14.436(1)
_cell_length_c                   15.933(2)
_cell_angle_alpha                107.57(1)
_cell_angle_beta                 102.66(1)
_cell_angle_gamma                109.74(1)
_cell_volume                     2018.01
loop_
_atom_site_label
_atom_site_type_symbol
_atom_site_fract_x
_atom_site_fract_y
_atom_site_fract_z
Pd1 Pd 0.63169(4) 0.71121(3) 0.34661(3)
Cl1 Cl 0.88348(13) 0.77890(11) 0.44508(11)
Cl2 Cl 0.64884(14) 0.56669(11) 0.22966(10)
P1 P 0.39338(13) 0.64891(11) 0.26902(10)
N1 N 0.2938(4) 0.5133(4) 0.2249(3)
C1 C 0.2681(5) 0.4622(4) 0.1276(4)
C2 C 0.3022(6) 0.5344(5) 0.0889(4)
N2 N 0.3563(5) 0.6415(4) 0.1568(3)
C3 C 0.2209(5) 0.4543(4) 0.2720(4)
C4 C 0.3010(5) 0.4360(4) 0.3443(4)
C5 C 0.2284(6) 0.3776(5) 0.3875(4)
H1 H 0.2817 0.3662 0.4367
C6 C 0.0781(6) 0.3355(5) 0.3596(5)
H2 H 0.0288 0.2956 0.3897
C7 C 0.0006(6) 0.3520(5) 0.2879(5)
H3 H -0.1023 0.3227 0.2692
C8 C 0.0692(6) 0.4106(4) 0.2422(4)
C9 C -0.0231(6) 0.4231(5) 0.1645(4)
H4 H 0.0382 0.4790 0.1492
H5 H -0.0949 0.4439 0.1847
H6 H -0.0733 0.3545 0.1086
C10 C 0.4640(6) 0.4785(5) 0.3740(4)
H7 H 0.5092 0.5569 0.4095
H8 H 0.4907 0.4609 0.3179
H9 H 0.4980 0.4452 0.4138
C11 C 0.3743(6) 0.7314(5) 0.1323(4)
C12 C 0.2527(6) 0.7525(5) 0.1070(4)
C13 C 0.2709(7) 0.8407(5) 0.0839(5)
H10 H 0.1907 0.8573 0.0688
C14 C 0.4013(8) 0.9045(6) 0.0824(5)
H11 H 0.4107 0.9642 0.0666
C15 C 0.5190(7) 0.8808(5) 0.1043(5)
H12 H 0.6086 0.9247 0.1026
C16 C 0.5091(6) 0.7953(5) 0.1282(4)
C17 C 0.6383(6) 0.7703(5) 0.1496(5)
H13 H 0.7101 0.8082 0.1267
H14 H 0.6066 0.6924 0.1182
H15 H 0.6822 0.7942 0.2179
C18 C 0.1069(6) 0.6821(5) 0.1028(5)
H16 H 0.0809 0.6067 0.0643
H17 H 0.0341 0.7031 0.0748
H18 H 0.1101 0.6904 0.1667
C19 C 0.2232(6) 0.3433(5) 0.0837(4)
H19 H 0.2236 0.3224 0.0193
H20 H 0.1251 0.3044 0.0821
H21 H 0.2913 0.3254 0.1209
C20 C 0.2991(7) 0.5155(5) -0.0082(4)
H22 H 0.3986 0.5465 -0.0071
H23 H 0.2441 0.5496 -0.0345
H24 H 0.2524 0.4377 -0.0472
C21 C 0.3255(5) 0.7185(4) 0.3401(4)
C22 C 0.4270(5) 0.8130(4) 0.4329(4)
H25 H 0.4183 0.7921 0.4858
H26 H 0.4008 0.8740 0.4400
C23 C 0.1761(6) 0.6831(4) 0.3243(4)
N3 N 0.0561(5) 0.6580(4) 0.3157(4)
P2 P 0.61228(14) 0.85368(11) 0.43539(11)
C24 C 0.6492(6) 0.9523(4) 0.3855(4)
C25 C 0.5485(6) 0.9899(4) 0.3538(4)
H27 H 0.4547 0.9621 0.3575
C26 C 0.5839(7) 1.0655(5) 0.3181(5)
H28 H 0.5150 1.0904 0.2973
C27 C 0.7210(7) 1.1066(5) 0.3118(5)
H29 H 0.7463 1.1608 0.2883
C28 C 0.8202(6) 1.0682(5) 0.3400(5)
H30 H 0.9127 1.0949 0.3343
C29 C 0.7857(6) 0.9921(5) 0.3760(4)
H31 H 0.8540 0.9658 0.3947
C30 C 0.7258(6) 0.9240(4) 0.5592(4)
C31 C 0.8272(6) 1.0321(5) 0.5985(5)
H32 H 0.8386 1.0707 0.5596
C32 C 0.9121(6) 1.0840(5) 0.6947(5)
H33 H 0.9822 1.1571 0.7211
C33 C 0.8927(7) 1.0277(6) 0.7506(5)
H34 H 0.9480 1.0627 0.8163
C34 C 0.7931(7) 0.9205(6) 0.7115(5)
H35 H 0.7817 0.8822 0.7506
C35 C 0.7099(6) 0.8683(5) 0.6165(5)
H36 H 0.6421 0.7946 0.5905
N4 N 0.8459(6) 0.5093(5) 0.3985(4)
C36 C 0.8173(6) 0.4521(5) 0.4352(5)
C37 C 0.7818(7) 0.3790(5) 0.4814(5)
H37 H 0.6775 0.3309 0.4528
H38 H 0.8069 0.4208 0.5487
H39 H 0.8370 0.3361 0.4738
Li1 Li 0.8745(10) 0.6215(8) 0.3423(7)
N3_2 N 1.0561(5) 0.6580(4) 0.3157(4)
Li1_2 Li -0.1255(10) 0.6215(8) 0.3423(7)
N5 N 0.5101(11) 0.2541(7) 0.2681(8)
C38 C 0.5303(9) 0.2654(7) 0.2015(8)
C39 C 0.5550(10) 0.2837(8) 0.1244(7)
H40 H 0.4699 0.2333 0.0671
H41 H 0.6404 0.2730 0.1176
H42 H 0.5722 0.3579 0.1341
N6 N 0.1883(13) 0.0812(9) 0.0205(9)
C40 C 0.1367(12) -0.0027(9) -0.0420(8)
C41 C 0.0729(12) -0.1058(8) -0.1200(8)
H43 H -0.0255 -0.1478 -0.1239
H44 H 0.1322 -0.1444 -0.1110
H45 H 0.0683 -0.0956 -0.1785
loop_
_geom_bond_atom_site_label_1
_geom_bond_atom_site_label_2
_geom_bond_site_symmetry_1
_geom_bond_site_symmetry_2
Pd1 Cl1 1_555 1_555
Cl1 Li1 1_555 1_555
Cl2 Pd1 1_555 1_555
P1 Pd1 1_555 1_555
N1 P1 1_555 1_555
C1 N1 1_555 1_555
C2 C1 1_555 1_555
N2 P1 1_555 1_555
C3 N1 1_555 1_555
C4 C3 1_555 1_555
C5 C4 1_555 1_555
H1 C5 1_555 1_555
C6 C5 1_555 1_555
H2 C6 1_555 1_555
C7 C6 1_555 1_555
H3 C7 1_555 1_555
C8 C3 1_555 1_555
C9 C8 1_555 1_555
H4 C9 1_555 1_555
H5 C9 1_555 1_555
H6 C9 1_555 1_555
C10 C4 1_555 1_555
H7 C10 1_555 1_555
H8 C10 1_555 1_555
H9 C10 1_555 1_555
C11 N2 1_555 1_555
C12 C11 1_555 1_555
C13 C12 1_555 1_555
H10 C13 1_555 1_555
C14 C13 1_555 1_555
H11 C14 1_555 1_555
C15 C14 1_555 1_555
H12 C15 1_555 1_555
C16 C11 1_555 1_555
C17 C16 1_555 1_555
H13 C17 1_555 1_555
H14 C17 1_555 1_555
H15 C17 1_555 1_555
C18 C12 1_555 1_555
H16 C18 1_555 1_555
H17 C18 1_555 1_555
H18 C18 1_555 1_555
C19 C1 1_555 1_555
H19 C19 1_555 1_555
H20 C19 1_555 1_555
H21 C19 1_555 1_555
C20 C2 1_555 1_555
H22 C20 1_555 1_555
H23 C20 1_555 1_555
H24 C20 1_555 1_555
C21 P1 1_555 1_555
C22 C21 1_555 1_555
H25 C22 1_555 1_555
H26 C22 1_555 1_555
C23 C21 1_555 1_555
N3 C23 1_555 1_555
P2 Pd1 1_555 1_555
C24 P2 1_555 1_555
C25 C24 1_555 1_555
H27 C25 1_555 1_555
C26 C25 1_555 1_555
H28 C26 1_555 1_555
C27 C26 1_555 1_555
H29 C27 1_555 1_555
C28 C27 1_555 1_555
H30 C28 1_555 1_555
C29 C24 1_555 1_555
H31 C29 1_555 1_555
C30 P2 1_555 1_555
C31 C30 1_555 1_555
H32 C31 1_555 1_555
C32 C31 1_555 1_555
H33 C32 1_555 1_555
C33 C32 1_555 1_555
H34 C33 1_555 1_555
C34 C33 1_555 1_555
H35 C34 1_555 1_555
C35 C30 1_555 1_555
H36 C35 1_555 1_555
N4 C36 1_555 1_555
C36 C37 1_555 1_555
C37 H37 1_555 1_555
H38 C37 1_555 1_555
H39 C37 1_555 1_555
N5 C38 1_555 1_555
C38 C39 1_555 1_555
C39 H40 1_555 1_555
H41 C39 1_555 1_555
H42 C39 1_555 1_555
N6 C40 1_555 1_555
C40 C41 1_555 1_555
C41 H43 1_555 1_555
H44 C41 1_555 1_555
H45 C41 1_555 1_555
Li1 Cl2 1_555 1_555
N3_2 Li1 1_555 1_555
Li1_2 N3 1_555 1_555
C2 N2 1_555 1_555
C7 C8 1_555 1_555
C15 C16 1_555 1_555
C22 P2 1_555 1_555
C28 C29 1_555 1_555
C34 C35 1_555 1_555
N4 Li1 1_555 1_555

#END
