
#######################################################################
#
#                 Cambridge Crystallographic Data Centre
#                                CCDC 
#
#######################################################################
#
# If this CIF has been generated from an entry in the Cambridge 
# Structural Database, then it will include bibliographic, chemical, 
# crystal, experimental, refinement or atomic coordinate data resulting 
# from the CCDC's data processing and validation procedures.
#
#######################################################################

data_HAJCUR
_symmetry_cell_setting           trigonal
_symmetry_space_group_name_H-M   'P 31'
_symmetry_Int_Tables_number      144
_space_group_name_Hall           'P 31'
loop_
_symmetry_equiv_pos_site_id
_symmetry_equiv_pos_as_xyz
1 x,y,z
2 -y,x-y,1/3+z
3 -x+y,-x,2/3+z
_cell_length_a                   12.847(6)
_cell_length_b                   12.847(6)
_cell_length_c                   13.643(8)
_cell_angle_alpha                90
_cell_angle_beta                 90
_cell_angle_gamma                120
_cell_volume                     1950.04
loop_
_atom_site_label
_atom_site_type_symbol
_atom_site_fract_x
_atom_site_fract_y
_atom_site_fract_z
Cu1 Cu 0.61843(7) 0.42547(7) -0.01500(5)
O1 O 0.7340(3) 0.4274(4) 0.0844(3)
C1 C 0.6805(5) 0.3572(5) 0.1556(4)
O2 O 0.7256(4) 0.3300(4) 0.2225(3)
C2 C 0.5415(5) 0.2976(5) 0.1544(4)
O3 O 0.4810(3) 0.2225(4) 0.2219(3)
N1 N 0.5022(4) 0.3317(5) 0.0822(3)
C3 C 0.3754(5) 0.2860(7) 0.0600(5)
H1 H 0.3430(5) 0.3261(7) 0.1006(5)
H2 H 0.3284(5) 0.1992(7) 0.0719(5)
C4 C 0.3716(6) 0.3138(6) -0.0484(5)
H3 H 0.3733(6) 0.2514(6) -0.0885(5)
H4 H 0.2965(6) 0.3133(6) -0.0623(5)
N2 N 0.4757(5) 0.4333(5) -0.0745(4)
C5 C 0.4651(7) 0.5324(7) -0.0273(6)
H5 H 0.5337(7) 0.6091(7) -0.0453(6)
H6 H 0.4628(7) 0.5230(7) 0.0433(6)
H7 H 0.3918(7) 0.5293(7) -0.0493(6)
C6 C 0.4794(7) 0.4493(7) -0.1831(5)
H8 H 0.4864(7) 0.3853(7) -0.2146(5)
H9 H 0.5481(7) 0.5263(7) -0.2005(5)
H10 H 0.4062(7) 0.4466(7) -0.2047(5)
O2B O 0.6044(6) 0.2744(4) -0.1108(3)
O3B O 0.7415(5) 0.5190(3) -0.1114(3)
Cu1A Cu 0.57453(7) 0.19296(10) 0.31833(5)
Cu2 Cu 0.13703(7) 1.02747(7) 0.61563(5)
O4 O -0.0095(4) 1.0221(4) 0.5585(3)
C7 C -0.0435(5) 0.9628(5) 0.4778(4)
O5 O -0.1225(4) 0.9532(4) 0.4228(3)
C8 C 0.0275(5) 0.8999(5) 0.4474(4)
O6 O -0.0025(3) 0.8370(3) 0.3700(3)
N3 N 0.1158(4) 0.9236(4) 0.5069(3)
C9 C 0.2097(5) 0.8949(5) 0.4888(4)
H11 H 0.2175(5) 0.8849(5) 0.4185(4)
H12 H 0.1921(5) 0.8205(5) 0.5226(4)
C10 C 0.3245(5) 1.0013(6) 0.5291(4)
H13 H 0.3878(5) 0.9801(6) 0.5336(4)
H14 H 0.3522(5) 1.0702(6) 0.4847(4)
N4 N 0.3005(4) 1.0342(4) 0.6287(4)
C11 C 0.4008(6) 1.1540(6) 0.6562(6)
H15 H 0.4079(6) 1.2129(6) 0.6082(6)
H16 H 0.4751(6) 1.1517(6) 0.6582(6)
H17 H 0.3853(6) 1.1761(6) 0.7202(6)
C12 C 0.2907(6) 0.9448(7) 0.7030(5)
H18 H 0.2251(6) 0.8658(7) 0.6856(5)
H19 H 0.2755(6) 0.9674(7) 0.7669(5)
H20 H 0.3653(6) 0.9429(7) 0.7048(5)
O5A O 0.0468(4) 0.9243(6) 0.7561(3)
O6A O 0.1630(3) 1.1605(4) 0.7033(3)
Cu2B Cu -0.10956(10) 0.86297(7) 0.28230(5)
Cu3 Cu 0.27400(8) 0.52664(7) 0.39590(6)
O7 O 0.3147(4) 0.6858(4) 0.4557(3)
C13 C 0.3726(5) 0.7048(5) 0.5345(4)
O8 O 0.4021(4) 0.7891(4) 0.5910(3)
C14 C 0.4074(5) 0.6090(5) 0.5631(4)
O9 O 0.4688(4) 0.6249(4) 0.6409(3)
N5 N 0.3686(5) 0.5221(4) 0.5018(4)
C15 C 0.3758(7) 0.4141(6) 0.5148(6)
H21 H 0.3207(7) 0.3632(6) 0.5663(6)
H22 H 0.4577(7) 0.4340(6) 0.5321(6)
C16 C 0.3385(11) 0.3495(11) 0.4126(10)
H25 H 0.4034(11) 0.3919(11) 0.3650(10)
H26 H 0.3222(11) 0.2666(11) 0.4184(10)
N6 N 0.2281(5) 0.3506(5) 0.3801(4)
C17 C 0.1253(12) 0.2790(14) 0.4392(13)
H27 H 0.1429(12) 0.3057(14) 0.5068(13)
H28 H 0.1049(12) 0.1955(14) 0.4350(13)
H29 H 0.0582(12) 0.2869(14) 0.4161(13)
C18 C 0.2083(16) 0.3157(13) 0.2753(9)
H30 H 0.2807(16) 0.3672(13) 0.2385(9)
H31 H 0.1424(16) 0.3245(13) 0.2502(9)
H32 H 0.1887(16) 0.2327(13) 0.2687(9)
O8B O 0.3870(6) 0.5979(4) 0.2577(3)
O9B O 0.1561(6) 0.5312(4) 0.3076(3)
Cu3A Cu 0.47336(7) 0.74736(11) 0.72923(6)
O10 O 0.2601(5) 0.0449(6) 0.2913(5)
H41 H 0.3245(5) 0.1107(6) 0.2670(5)
H42 H 0.1970(5) 0.0547(6) 0.2781(5)
O11 O 0.9322(7) 0.3257(8) 0.2792(8)
H43 H 1.0066(7) 0.3820(8) 0.2989(8)
H44 H 0.9005(7) 0.3679(8) 0.2529(8)
H23? H 0.3917(7) 0.4044(6) 0.5834(6)
H24? H 0.4395(7) 0.4163(6) 0.4738(6)
C19? C 0.2468(15) 0.3079(13) 0.4814(11)
H33? H 0.2466(15) 0.2317(13) 0.4757(11)
H34? H 0.1842(15) 0.2978(13) 0.5278(11)
C20? C 0.2907(26) 0.3277(19) 0.3045(16)
H35? H 0.3766(26) 0.3791(19) 0.3137(16)
H36? H 0.2678(26) 0.3442(19) 0.2412(16)
H37? H 0.2704(26) 0.2442(19) 0.3073(16)
C21? C 0.0925(15) 0.2686(14) 0.3644(16)
H38? H 0.0489(15) 0.2837(14) 0.4153(16)
H39? H 0.0728(15) 0.1853(14) 0.3672(16)
H40? H 0.0701(15) 0.2851(14) 0.3008(16)
loop_
_geom_bond_atom_site_label_1
_geom_bond_atom_site_label_2
_geom_bond_site_symmetry_1
_geom_bond_site_symmetry_2
Cu1 O1 1_555 1_555
O1 C1 1_555 1_555
C1 O2 1_555 1_555
O2 Cu1A 1_555 1_555
C2 C1 1_555 1_555
O3 C2 1_555 1_555
N1 Cu1 1_555 1_555
C3 N1 1_555 1_555
H1 C3 1_555 1_555
H2 C3 1_555 1_555
C4 C3 1_555 1_555
H3 C4 1_555 1_555
H4 C4 1_555 1_555
N2 Cu1 1_555 1_555
C5 N2 1_555 1_555
H5 C5 1_555 1_555
H6 C5 1_555 1_555
H7 C5 1_555 1_555
C6 N2 1_555 1_555
H8 C6 1_555 1_555
H9 C6 1_555 1_555
H10 C6 1_555 1_555
Cu2 O4 1_555 1_555
O4 C7 1_555 1_555
C7 O5 1_555 1_555
O5 Cu2B 1_555 1_555
C8 C7 1_555 1_555
O6 C8 1_555 1_555
N3 Cu2 1_555 1_555
C9 N3 1_555 1_555
H11 C9 1_555 1_555
H12 C9 1_555 1_555
C10 C9 1_555 1_555
H13 C10 1_555 1_555
H14 C10 1_555 1_555
N4 Cu2 1_555 1_555
C11 N4 1_555 1_555
H15 C11 1_555 1_555
H16 C11 1_555 1_555
H17 C11 1_555 1_555
C12 N4 1_555 1_555
H18 C12 1_555 1_555
H19 C12 1_555 1_555
H20 C12 1_555 1_555
Cu3 O7 1_555 1_555
O7 C13 1_555 1_555
C13 O8 1_555 1_555
O8 Cu3A 1_555 1_555
C14 C13 1_555 1_555
O9 C14 1_555 1_555
N5 Cu3 1_555 1_555
C15 N5 1_555 1_555
H21 C15 1_555 1_555
H22 C15 1_555 1_555
C16 C15 1_555 1_555
H25 C16 1_555 1_555
H26 C16 1_555 1_555
N6 Cu3 1_555 1_555
C17 N6 1_555 1_555
H27 C17 1_555 1_555
H28 C17 1_555 1_555
H29 C17 1_555 1_555
C18 N6 1_555 1_555
H30 C18 1_555 1_555
H31 C18 1_555 1_555
H32 C18 1_555 1_555
O10 H41 1_555 1_555
H42 O10 1_555 1_555
O11 H43 1_555 1_555
H44 O11 1_555 1_555
O2B Cu1 1_555 1_555
O3B Cu1 1_555 1_555
Cu1A O3 1_555 1_555
O5A Cu2 1_555 1_555
O6A Cu2 1_555 1_555
Cu2B O6 1_555 1_555
O8B Cu3 1_555 1_555
O9B Cu3 1_555 1_555
Cu3A O9 1_555 1_555
C2 N1 1_555 1_555
C4 N2 1_555 1_555
C8 N3 1_555 1_555
C10 N4 1_555 1_555
C14 N5 1_555 1_555
C16 N6 1_555 1_555

#END
