
#######################################################################
#
#                 Cambridge Crystallographic Data Centre
#                                CCDC 
#
#######################################################################
#
# If this CIF has been generated from an entry in the Cambridge 
# Structural Database, then it will include bibliographic, chemical, 
# crystal, experimental, refinement or atomic coordinate data resulting 
# from the CCDC's data processing and validation procedures.
#
#######################################################################

data_HAJFAB
_symmetry_cell_setting           monoclinic
_symmetry_space_group_name_H-M   'C 2/c'
_symmetry_Int_Tables_number      15
_space_group_name_Hall           '-C 2yn'
loop_
_symmetry_equiv_pos_site_id
_symmetry_equiv_pos_as_xyz
1 x,y,z
2 -x,y,1/2-z
3 1/2+x,1/2+y,z
4 1/2-x,1/2+y,1/2-z
5 -x,-y,-z
6 x,-y,1/2+z
7 1/2-x,1/2-y,-z
8 1/2+x,1/2-y,1/2+z
_cell_length_a                   24.9620(19)
_cell_length_b                   15.0444(12)
_cell_length_c                   17.3417(13)
_cell_angle_alpha                90
_cell_angle_beta                 117.1000(10)
_cell_angle_gamma                90
_cell_volume                     5797.49
loop_
_atom_site_label
_atom_site_type_symbol
_atom_site_fract_x
_atom_site_fract_y
_atom_site_fract_z
Zn1 Zn 0.0000 0.73822(3) 0.2500
Zn2 Zn -0.075828(12) 0.74137(2) 0.495751(18)
S1 S -0.11248(3) 0.94797(5) 0.50108(4)
O1 O -0.00853(7) 0.62743(11) 0.32611(11)
H1 H -0.0241 0.6541 0.3527
H2 H -0.0266 0.5795 0.3069
O2 O -0.09801(9) 0.73128(16) 0.60170(13)
H3 H -0.1045 0.7840 0.6082
H4 H -0.0673 0.7134 0.6442
O3 O -0.06282(8) 0.60385(13) 0.49847(11)
H5 H -0.0754 0.5753 0.5281
H6 H -0.0740 0.5786 0.4503
O4 O -0.41367(8) 0.98586(13) 0.24957(12)
O5 O -0.37970(9) 1.02302(16) 0.15531(13)
O6 O -0.11637(9) 0.91268(17) 0.57653(12)
O7 O -0.08588(9) 1.03462(15) 0.51000(16)
O8 O -0.04758(8) 0.74592(11) 0.39894(12)
O9 O -0.02062(7) 0.83451(12) 0.32037(11)
N1 N -0.08204(9) 0.87580(15) 0.46946(13)
N2 N 0.09495(9) 0.74165(13) 0.34484(13)
N3 N 0.01903(10) 0.75555(15) 0.59342(14)
N4 N 0.32835(9) 0.77740(16) 0.89908(14)
C1 C -0.37192(11) 0.99735(18) 0.22763(16)
C2 C -0.30786(11) 0.98130(17) 0.29543(15)
C3 C -0.29421(11) 0.92932(19) 0.36822(16)
H7 H -0.3250 0.9015 0.3753
C4 C -0.23499(11) 0.9187(2) 0.43035(17)
H8 H -0.2261 0.8826 0.4782
C5 C -0.18898(11) 0.96163(17) 0.42136(16)
C6 C -0.20215(11) 1.01342(18) 0.34893(17)
H9 H -0.1715 1.0423 0.3425
C7 C -0.06017(12) 0.90254(18) 0.40707(17)
H10 H -0.0262 0.9425 0.4351
H11 H -0.0918 0.9341 0.3592
C8 C -0.04127(9) 0.82189(17) 0.37301(14)
C9 C 0.11381(13) 0.7863(3) 0.4187(2)
H12 H 0.0853 0.8159 0.4296
C10 C 0.17336(13) 0.7913(3) 0.4803(2)
H13 H 0.1837 0.8240 0.5307
C11 C 0.21766(11) 0.74840(17) 0.46784(16)
C12 C 0.19769(12) 0.7010(2) 0.39158(19)
H14 H 0.2251 0.6696 0.3796
C13 C 0.13755(12) 0.6999(2) 0.33315(18)
H15 H 0.1260 0.6679 0.2822
C14 C 0.03905(11) 0.82217(19) 0.65103(18)
H16 H 0.0113 0.8637 0.6507
C15 C 0.09881(11) 0.83245(18) 0.71105(17)
H17 H 0.1103 0.8791 0.7506
C16 C 0.14144(11) 0.77266(17) 0.71181(16)
C17 C 0.12085(11) 0.70464(19) 0.65041(17)
H18 H 0.1478 0.6637 0.6475
C18 C 0.06034(11) 0.6985(2) 0.59408(18)
H19 H 0.0475 0.6520 0.5543
C19 C 0.20592(10) 0.77711(17) 0.77566(16)
C20 C 0.22629(11) 0.82251(19) 0.85418(17)
H20 H 0.1993 0.8537 0.8672
C21 C 0.28689(11) 0.82093(19) 0.91265(17)
H21 H 0.2994 0.8520 0.9643
C22 C 0.30898(12) 0.73515(19) 0.82278(17)
H22 H 0.3371 0.7052 0.8113
C23 C 0.24975(12) 0.73372(19) 0.76069(17)
H23 H 0.2389 0.7038 0.7087
C24 C -0.26110(12) 1.02190(18) 0.28630(17)
H24 H -0.2697 1.0555 0.2370
Zn1F Zn 0.5000 0.76178(3) 0.7500
Zn2A Zn 0.075828(12) 0.74137(2) 0.004249(18)
Zn2G Zn 0.424172(12) 0.75863(2) 0.995751(18)
Zn2G_2 Zn -0.575828(12) 0.75863(2) -0.004249(18)
S1A S 0.11248(3) 0.94797(5) -0.00108(4)
O1A O 0.00853(7) 0.62743(11) 0.17389(11)
H1A H 0.0241 0.6541 0.1473
H2A H 0.0266 0.5795 0.1931
O2A O 0.09801(9) 0.73128(16) -0.10170(13)
H3A H 0.1045 0.7840 -0.1082
H4A H 0.0673 0.7134 -0.1442
O3A O 0.06282(8) 0.60385(13) 0.00153(11)
H5A H 0.0754 0.5753 -0.0281
H6A H 0.0740 0.5786 0.0497
O4A O 0.41367(8) 0.98586(13) 0.25043(12)
O5A O 0.37970(9) 1.02302(16) 0.34469(13)
O6A O 0.11637(9) 0.91268(17) -0.07653(12)
O7A O 0.08588(9) 1.03462(15) -0.01000(16)
O8A O 0.04758(8) 0.74592(11) 0.10106(12)
O9A O 0.02062(7) 0.83451(12) 0.17963(11)
N1A N 0.08204(9) 0.87580(15) 0.03054(13)
N2F N 0.40505(9) 0.75835(13) 0.65516(13)
N2A N -0.09495(9) 0.74165(13) 0.15516(13)
N3G N -0.48097(10) 0.74445(15) 0.09342(14)
N3A N -0.01903(10) 0.75555(15) -0.09342(14)
N4G N -0.17165(9) 0.72260(16) 0.39908(14)
N4F N 0.17165(9) 0.72260(16) 0.10092(14)
C1A C 0.37192(11) 0.99735(18) 0.27237(16)
C2A C 0.30786(11) 0.98130(17) 0.20457(15)
C3A C 0.29421(11) 0.92932(19) 0.13178(16)
H7A H 0.3250 0.9015 0.1247
C4A C 0.23499(11) 0.9187(2) 0.06965(17)
H8A H 0.2261 0.8826 0.0218
C5A C 0.18898(11) 0.96163(17) 0.07864(16)
C6A C 0.20215(11) 1.01342(18) 0.15107(17)
H9A H 0.1715 1.0423 0.1575
C7A C 0.06017(12) 0.90254(18) 0.09293(17)
H10A H 0.0262 0.9425 0.0649
H11A H 0.0918 0.9341 0.1408
C8A C 0.04127(9) 0.82189(17) 0.12699(14)
C9F C 0.38619(13) 0.7137(3) 0.5813(2)
H12F H 0.4147 0.6841 0.5704
C10F C 0.32664(13) 0.7087(3) 0.5197(2)
H13F H 0.3163 0.6760 0.4693
C11F C 0.28234(11) 0.75160(17) 0.53216(16)
C12F C 0.30231(12) 0.7990(2) 0.60842(19)
H14F H 0.2749 0.8304 0.6204
C13F C 0.36245(12) 0.8001(2) 0.66685(18)
H15F H 0.3740 0.8321 0.7178
C14G C -0.46095(11) 0.67783(19) 0.15103(18)
H16G H -0.4887 0.6363 0.1507
C15G C -0.40119(11) 0.66755(18) 0.21105(17)
H17G H -0.3897 0.6209 0.2506
C16G C -0.35856(11) 0.72734(17) 0.21181(16)
C17G C -0.37915(11) 0.79536(19) 0.15041(17)
H18G H -0.3522 0.8363 0.1475
C18G C -0.43966(11) 0.8015(2) 0.09408(18)
H19G H -0.4525 0.8480 0.0543
C19G C -0.29408(10) 0.72289(17) 0.27566(16)
C20G C -0.27371(11) 0.67749(19) 0.35418(17)
H20G H -0.3007 0.6463 0.3672
C21G C -0.21311(11) 0.67907(19) 0.41265(17)
H21G H -0.2006 0.6480 0.4643
C22G C -0.19102(12) 0.76485(19) 0.32278(17)
H22G H -0.1629 0.7948 0.3113
C23G C -0.25025(12) 0.76628(19) 0.26069(17)
H23G H -0.2611 0.7962 0.2087
C24A C 0.26110(12) 1.02190(18) 0.21370(17)
H24A H 0.2697 1.0555 0.2630
O10 O 0.09508(9) 0.48089(15) 0.91289(13)
H25 H 0.0653 0.4476 0.8886
H26 H 0.1050 0.5016 0.8766
O11 O 0.69751(13) 0.0540(2) 0.57966(19)
H27 H 0.6887 0.0122 0.6029
H28 H 0.7344 0.0645 0.6047
O12 O 0.8300(2) 0.0503(3) 0.6853(3)
H29 H 0.8191 0.0460 0.6321
H30 H 0.8698 0.0513 0.7091
O13 O 1.0000 -0.0096(4) 0.7500
H31 H 0.9942 0.0391 0.7699
H31A H 1.0058 0.0391 0.7301
O14 O 0.5000 0.1440(2) 0.7500
H32 H 0.4841 0.1061 0.7676
H32A H 0.5159 0.1061 0.7324
loop_
_geom_bond_atom_site_label_1
_geom_bond_atom_site_label_2
_geom_bond_site_symmetry_1
_geom_bond_site_symmetry_2
Zn1 O1 1_555 1_555
Zn2 O2 1_555 1_555
S1 O6 1_555 1_555
O1 H1 1_555 1_555
H2 O1 1_555 1_555
O2 H3 1_555 1_555
H4 O2 1_555 1_555
O3 Zn2 1_555 1_555
H5 O3 1_555 1_555
H6 O3 1_555 1_555
O4 C1 1_555 1_555
O5 C1 1_555 1_555
O7 S1 1_555 1_555
O8 Zn2 1_555 1_555
O9 Zn1 1_555 1_555
N1 Zn2 1_555 1_555
N2 Zn1 1_555 1_555
N3 Zn2 1_555 1_555
N4 C21 1_555 1_555
C1 C2 1_555 1_555
C2 C3 1_555 1_555
C3 H7 1_555 1_555
C4 C3 1_555 1_555
H8 C4 1_555 1_555
C5 S1 1_555 1_555
C6 C5 1_555 1_555
H9 C6 1_555 1_555
C7 N1 1_555 1_555
H10 C7 1_555 1_555
H11 C7 1_555 1_555
C8 O8 1_555 1_555
C9 N2 1_555 1_555
H12 C9 1_555 1_555
C10 C9 1_555 1_555
H13 C10 1_555 1_555
C11 C10 1_555 1_555
C12 C11 1_555 1_555
H14 C12 1_555 1_555
C13 N2 1_555 1_555
H15 C13 1_555 1_555
C14 N3 1_555 1_555
H16 C14 1_555 1_555
C15 C14 1_555 1_555
H17 C15 1_555 1_555
C16 C15 1_555 1_555
C17 C16 1_555 1_555
H18 C17 1_555 1_555
C18 N3 1_555 1_555
H19 C18 1_555 1_555
C19 C16 1_555 1_555
C20 C19 1_555 1_555
H20 C20 1_555 1_555
C21 C20 1_555 1_555
H21 C21 1_555 1_555
C22 N4 1_555 1_555
H22 C22 1_555 1_555
C23 C19 1_555 1_555
H23 C23 1_555 1_555
C24 C2 1_555 1_555
H24 C24 1_555 1_555
O10 H25 1_555 1_555
H26 O10 1_555 1_555
O11 H27 1_555 1_555
H28 O11 1_555 1_555
O12 H29 1_555 1_555
H30 O12 1_555 1_555
O13 H31 1_555 1_555
O14 H32 1_555 1_555
Zn1F N2F 1_555 1_555
Zn2A O2A 1_555 1_555
Zn2G N4 1_555 1_555
Zn2G_2 N3G 1_555 1_555
S1A O6A 1_555 1_555
O1A Zn1 1_555 1_555
H1A O1A 1_555 1_555
H2A O1A 1_555 1_555
O2A H3A 1_555 1_555
H4A O2A 1_555 1_555
O3A Zn2A 1_555 1_555
H5A O3A 1_555 1_555
H6A O3A 1_555 1_555
O4A C1A 1_555 1_555
O5A C1A 1_555 1_555
O7A S1A 1_555 1_555
O8A Zn2A 1_555 1_555
O9A Zn1 1_555 1_555
N1A Zn2A 1_555 1_555
N2F C9F 1_555 1_555
N2A Zn1 1_555 1_555
N3G C14G 1_555 1_555
N3A Zn2A 1_555 1_555
N4G Zn2 1_555 1_555
N4F Zn2A 1_555 1_555
C1A C2A 1_555 1_555
C2A C3A 1_555 1_555
C3A H7A 1_555 1_555
C4A C3A 1_555 1_555
H8A C4A 1_555 1_555
C5A S1A 1_555 1_555
C6A C5A 1_555 1_555
H9A C6A 1_555 1_555
C7A N1A 1_555 1_555
H10A C7A 1_555 1_555
H11A C7A 1_555 1_555
C8A O8A 1_555 1_555
C9F H12F 1_555 1_555
C10F C9F 1_555 1_555
H13F C10F 1_555 1_555
C11F C11 1_555 1_555
C12F C11F 1_555 1_555
H14F C12F 1_555 1_555
C13F N2F 1_555 1_555
H15F C13F 1_555 1_555
C14G H16G 1_555 1_555
C15G C14G 1_555 1_555
H17G C15G 1_555 1_555
C16G C15G 1_555 1_555
C17G C16G 1_555 1_555
H18G C17G 1_555 1_555
C18G N3G 1_555 1_555
H19G C18G 1_555 1_555
C19G C16G 1_555 1_555
C20G C19G 1_555 1_555
H20G C20G 1_555 1_555
C21G N4G 1_555 1_555
H21G C21G 1_555 1_555
C22G N4G 1_555 1_555
H22G C22G 1_555 1_555
C23G C19G 1_555 1_555
H23G C23G 1_555 1_555
C24A C2A 1_555 1_555
H24A C24A 1_555 1_555
H31A O13 1_555 1_555
H32A O14 1_555 1_555
S1 N1 1_555 1_555
O9 C8 1_555 1_555
C4 C5 1_555 1_555
C6 C24 1_555 1_555
C7 C8 1_555 1_555
C12 C13 1_555 1_555
C17 C18 1_555 1_555
C22 C23 1_555 1_555
S1A N1A 1_555 1_555
O9A C8A 1_555 1_555
C4A C5A 1_555 1_555
C6A C24A 1_555 1_555
C7A C8A 1_555 1_555
C10F C11F 1_555 1_555
C12F C13F 1_555 1_555
C17G C18G 1_555 1_555
C20G C21G 1_555 1_555
C22G C23G 1_555 1_555

#END
