
#######################################################################
#
#                 Cambridge Crystallographic Data Centre
#                                CCDC 
#
#######################################################################
#
# If this CIF has been generated from an entry in the Cambridge 
# Structural Database, then it will include bibliographic, chemical, 
# crystal, experimental, refinement or atomic coordinate data resulting 
# from the CCDC's data processing and validation procedures.
#
#######################################################################

data_HAJHAD
_symmetry_cell_setting           monoclinic
_symmetry_space_group_name_H-M   'P 21/c'
_symmetry_Int_Tables_number      14
_space_group_name_Hall           '-P 2ybc'
loop_
_symmetry_equiv_pos_site_id
_symmetry_equiv_pos_as_xyz
1 x,y,z
2 -x,1/2+y,1/2-z
3 -x,-y,-z
4 x,1/2-y,1/2+z
_cell_length_a                   13.8746(3)
_cell_length_b                   6.6146(1)
_cell_length_c                   19.9093(3)
_cell_angle_alpha                90
_cell_angle_beta                 98.715(1)
_cell_angle_gamma                90
_cell_volume                     1806.08
loop_
_atom_site_label
_atom_site_type_symbol
_atom_site_fract_x
_atom_site_fract_y
_atom_site_fract_z
Sn1 Sn 0.838503(14) 0.32324(3) 0.695295(10)
Sn2 Sn 0.5000 0.5000 0.5000
S1 S 0.72902(7) 0.04723(15) 0.41724(6)
O1 O 0.69852(15) 0.3461(3) 0.61655(11)
O2 O 0.53911(15) 0.2845(3) 0.58664(11)
O3 O 1.00580(16) -0.0418(3) 0.78018(11)
O4 O 0.90004(16) 0.2013(3) 0.79948(11)
N1 N 0.70061(18) 0.1307(4) 0.73083(12)
N2 N 0.5360(2) -0.0913(4) 0.75165(14)
N3 N 1.11494(18) 0.0278(4) 0.89991(12)
N4 N 1.0389(2) 0.2478(4) 1.00008(13)
N5 N 0.6223(2) 0.3819(4) 0.44651(14)
C1 C 0.8796(2) 0.0737(5) 0.64093(16)
H1 H 0.8596 -0.0513 0.6614
H2 H 0.9505 0.0737 0.6425
H3 H 0.8478 0.0821 0.5936
C2 C 0.7899(2) 0.5816(5) 0.74201(17)
H4 H 0.7502 0.5403 0.7763
H5 H 0.7507 0.6657 0.7077
H6 H 0.8463 0.6592 0.7638
C3 C 0.4129(3) 0.2618(5) 0.45440(17)
H7 H 0.3582 0.2390 0.4794
H8 H 0.3877 0.2970 0.4072
H9 H 0.4522 0.1384 0.4554
C4 C 0.6194(2) 0.2628(5) 0.62428(15)
C5 C 0.6192(2) 0.1276(4) 0.68509(15)
C6 C 0.5381(2) 0.0154(5) 0.69477(16)
H10 H 0.4828 0.0142 0.6602
C7 C 0.6156(3) -0.0831(5) 0.79800(16)
H11 H 0.6164 -0.1546 0.8395
C8 C 0.6984(2) 0.0271(5) 0.78792(16)
H12 H 0.7538 0.0280 0.8224
C9 C 0.9741(2) 0.0905(5) 0.81620(15)
C10 C 1.0278(2) 0.1194(4) 0.88741(15)
C11 C 0.9909(2) 0.2305(5) 0.93657(16)
H13 H 0.9298 0.2964 0.9250
C12 C 1.1255(2) 0.1540(5) 1.01189(16)
H14 H 1.1618 0.1612 1.0563
C13 C 1.1644(2) 0.0474(5) 0.96276(15)
H15 H 1.2270 -0.0126 0.9737
C14 C 0.6650(2) 0.2404(5) 0.43498(16)
Sn1B Sn 0.161497(14) 0.67676(3) 0.304705(10)
Sn1A Sn 1.161497(14) -0.17676(3) 0.804705(10)
Sn1A_2 Sn 1.161497(14) 0.82324(3) 0.804705(10)
S1B S 0.27098(7) 0.95277(15) 0.58276(6)
O1B O 0.30148(15) 0.6539(3) 0.38345(11)
O2B O 0.46089(15) 0.7155(3) 0.41336(11)
O3A O 0.99420(16) 0.4582(3) 0.71982(11)
O3C O 0.00580(16) 0.5418(3) 0.28018(11)
O4A O 1.09996(16) 0.7013(3) 0.70052(11)
O4B O 0.09996(16) 0.7987(3) 0.20052(11)
N1B N 0.29939(18) 0.8693(4) 0.26917(12)
N2B N 0.4640(2) 1.0913(4) 0.24835(14)
N3A N 0.88506(18) 0.5278(4) 0.60009(12)
N3C N 0.11494(18) 0.4722(4) 0.39991(12)
N4A N 0.9611(2) 0.7478(4) 0.49992(13)
N5B N 0.3777(2) 0.6181(4) 0.55349(14)
C1B C 0.1204(2) 0.9263(5) 0.35907(16)
H1B H 0.1404 1.0513 0.3386
H2B H 0.0495 0.9263 0.3575
H3B H 0.1522 0.9179 0.4064
C2B C 0.2101(2) 0.4184(5) 0.25799(17)
H4B H 0.2498 0.4597 0.2237
H5B H 0.2493 0.3343 0.2923
H6B H 0.1537 0.3408 0.2362
C3B C 0.5871(3) 0.7382(5) 0.54560(17)
H7B H 0.6418 0.7610 0.5206
H8B H 0.6123 0.7030 0.5928
H9B H 0.5478 0.8616 0.5446
C4B C 0.3806(2) 0.7372(5) 0.37572(15)
C5B C 0.3808(2) 0.8724(4) 0.31491(15)
C6B C 0.4619(2) 0.9846(5) 0.30523(16)
H10B H 0.5172 0.9858 0.3398
C7B C 0.3844(3) 1.0831(5) 0.20200(16)
H11B H 0.3836 1.1546 0.1605
C8B C 0.3016(2) 0.9729(5) 0.21208(16)
H12B H 0.2462 0.9720 0.1776
C9A C 1.0259(2) 0.5905(5) 0.68380(15)
C10A C 0.9722(2) 0.6194(4) 0.61259(15)
C11A C 1.0091(2) 0.7305(5) 0.56343(16)
H13A H 1.0702 0.7964 0.5750
C12A C 0.8745(2) 0.6540(5) 0.48811(16)
H14A H 0.8382 0.6612 0.4437
C13A C 0.8356(2) 0.5474(5) 0.53724(15)
H15A H 0.7730 0.4874 0.5263
C14B C 0.3350(2) 0.7596(5) 0.56502(16)
loop_
_geom_bond_atom_site_label_1
_geom_bond_atom_site_label_2
_geom_bond_site_symmetry_1
_geom_bond_site_symmetry_2
Sn1 O1 1_555 1_555
Sn2 O2 1_555 1_555
S1 C14 1_555 1_555
O1 C4 1_555 1_555
O2 C4 1_555 1_555
O3 C9 1_555 1_555
O4 Sn1 1_555 1_555
N1 Sn1 1_555 1_555
N2 C6 1_555 1_555
N3 C10 1_555 1_555
N4 C11 1_555 1_555
N5 Sn2 1_555 1_555
C1 Sn1 1_555 1_555
H1 C1 1_555 1_555
H2 C1 1_555 1_555
H3 C1 1_555 1_555
C2 Sn1 1_555 1_555
H4 C2 1_555 1_555
H5 C2 1_555 1_555
H6 C2 1_555 1_555
C3 Sn2 1_555 1_555
H7 C3 1_555 1_555
H8 C3 1_555 1_555
H9 C3 1_555 1_555
C4 C5 1_555 1_555
C5 N1 1_555 1_555
C6 C5 1_555 1_555
H10 C6 1_555 1_555
C7 N2 1_555 1_555
H11 C7 1_555 1_555
C8 N1 1_555 1_555
H12 C8 1_555 1_555
C9 O4 1_555 1_555
C10 C9 1_555 1_555
C11 C10 1_555 1_555
H13 C11 1_555 1_555
C12 N4 1_555 1_555
H14 C12 1_555 1_555
C13 N3 1_555 1_555
H15 C13 1_555 1_555
C14 N5 1_555 1_555
Sn1B O1B 1_555 1_555
Sn1A O3 1_555 1_555
Sn1A_2 O4A 1_555 1_555
S1B C14B 1_555 1_555
O1B C4B 1_555 1_555
O2B Sn2 1_555 1_555
O3A Sn1 1_555 1_555
O3C Sn1B 1_555 1_555
O4A C9A 1_555 1_555
O4B Sn1B 1_555 1_555
N1B Sn1B 1_555 1_555
N2B C6B 1_555 1_555
N3A Sn1 1_555 1_555
N3C Sn1B 1_555 1_555
N4A C11A 1_555 1_555
N5B Sn2 1_555 1_555
C1B Sn1B 1_555 1_555
H1B C1B 1_555 1_555
H2B C1B 1_555 1_555
H3B C1B 1_555 1_555
C2B Sn1B 1_555 1_555
H4B C2B 1_555 1_555
H5B C2B 1_555 1_555
H6B C2B 1_555 1_555
C3B Sn2 1_555 1_555
H7B C3B 1_555 1_555
H8B C3B 1_555 1_555
H9B C3B 1_555 1_555
C4B O2B 1_555 1_555
C5B N1B 1_555 1_555
C6B C5B 1_555 1_555
H10B C6B 1_555 1_555
C7B N2B 1_555 1_555
H11B C7B 1_555 1_555
C8B N1B 1_555 1_555
H12B C8B 1_555 1_555
C9A O3A 1_555 1_555
C10A N3A 1_555 1_555
C11A C10A 1_555 1_555
H13A C11A 1_555 1_555
C12A N4A 1_555 1_555
H14A C12A 1_555 1_555
C13A N3A 1_555 1_555
H15A C13A 1_555 1_555
C14B N5B 1_555 1_555
N3 Sn1A 1_555 1_555
C7 C8 1_555 1_555
C12 C13 1_555 1_555
C4B C5B 1_555 1_555
C7B C8B 1_555 1_555
C9A C10A 1_555 1_555
C12A C13A 1_555 1_555

#END
