
#######################################################################
#
#                 Cambridge Crystallographic Data Centre
#                                CCDC 
#
#######################################################################
#
# If this CIF has been generated from an entry in the Cambridge 
# Structural Database, then it will include bibliographic, chemical, 
# crystal, experimental, refinement or atomic coordinate data resulting 
# from the CCDC's data processing and validation procedures.
#
#######################################################################

data_HAJJOS
_symmetry_cell_setting           triclinic
_symmetry_space_group_name_H-M   'P -1'
_symmetry_Int_Tables_number      2
_space_group_name_Hall           '-P 1'
loop_
_symmetry_equiv_pos_site_id
_symmetry_equiv_pos_as_xyz
1 x,y,z
2 -x,-y,-z
_cell_length_a                   10.1474(6)
_cell_length_b                   13.4825(7)
_cell_length_c                   15.8374(9)
_cell_angle_alpha                85.4010(10)
_cell_angle_beta                 88.9770(10)
_cell_angle_gamma                68.0390(10)
_cell_volume                     2002.89
loop_
_atom_site_label
_atom_site_type_symbol
_atom_site_fract_x
_atom_site_fract_y
_atom_site_fract_z
Co1 Co 0.10617(5) 0.50394(4) 0.25842(3)
C1 C 0.2019(4) 0.3171(3) 0.3922(2)
H1 H 0.2021 0.2793 0.3441
C2 C 0.2501(4) 0.2589(3) 0.4686(2)
H2 H 0.2822 0.1828 0.4726
C3 C 0.2512(4) 0.3127(3) 0.5396(2)
C4 C 0.2013(4) 0.4236(3) 0.5300(2)
H3 H 0.1984 0.4634 0.5773
C5 C 0.1556(4) 0.4758(3) 0.4513(2)
H4 H 0.1233 0.5519 0.4457
C6 C 0.3058(4) 0.2547(3) 0.6220(2)
H5 H 0.2949 0.2943 0.6704
C7 C 0.4152(4) 0.1028(3) 0.7122(2)
C8 C 0.3250(4) 0.1186(3) 0.7797(2)
H6 H 0.2286 0.1661 0.7729
C9 C 0.3759(4) 0.0640(3) 0.8590(2)
H7 H 0.3136 0.0755 0.9059
C10 C 0.5131(4) -0.0051(3) 0.8695(2)
H8 H 0.5456 -0.0406 0.9237
C11 C 0.6079(4) -0.0249(3) 0.8011(2)
C12 C 0.5596(4) 0.0299(3) 0.7205(2)
C13 C 0.6532(4) 0.0125(3) 0.6515(2)
H9 H 0.6209 0.0503 0.5980
C14 C 0.7904(4) -0.0587(3) 0.6616(2)
H10 H 0.8533 -0.0690 0.6151
C15 C 0.8393(4) -0.1169(3) 0.7399(2)
H11 H 0.9340 -0.1678 0.7454
C16 C 0.7511(4) -0.1006(3) 0.8086(2)
C17 C 0.9209(4) -0.2076(3) 0.9083(2)
H12 H 0.9915 -0.1973 0.8724
C18 C 1.1441(4) -0.3941(3) 1.0836(2)
H13 H 1.2422 -0.4288 1.0978
C19 C 1.1065(4) -0.3291(3) 1.0090(2)
H14 H 1.1776 -0.3198 0.9730
C20 C 0.9635(4) -0.2776(3) 0.9869(2)
C21 C 0.8649(4) -0.2962(3) 1.0411(2)
H15 H 0.7663 -0.2640 1.0278
C22 C 0.9115(4) -0.3618(3) 1.1144(2)
H16 H 0.8424 -0.3731 1.1510
N1 N 0.1546(3) 0.4248(2) 0.38252(17)
N2 N 0.3667(3) 0.1540(3) 0.63028(19)
N3 N 0.7903(3) -0.1605(2) 0.88782(17)
N4 N 1.0484(3) -0.4106(2) 1.13702(17)
C23 C 0.3363(4) 0.3436(3) 0.1562(2)
H17 H 0.2580 0.3535 0.1199
C24 C 0.4670(4) 0.2695(3) 0.1375(2)
H18 H 0.4785 0.2298 0.0891
C25 C 0.5821(4) 0.2534(3) 0.1905(2)
C26 C 0.5605(4) 0.3135(3) 0.2596(2)
H19 H 0.6370 0.3046 0.2969
C27 C 0.4262(4) 0.3867(3) 0.2736(2)
H20 H 0.4123 0.4278 0.3213
C28 C 0.7255(4) 0.1747(3) 0.1735(3)
H21 H 0.8011 0.1625 0.2124
C29 C 0.8857(4) 0.0469(3) 0.0945(2)
C30 C 0.9726(4) -0.0182(3) 0.1587(2)
H22 H 0.9400 -0.0139 0.2154
C31 C 1.1087(4) -0.0908(3) 0.1412(2)
H23 H 1.1680 -0.1348 0.1862
C32 C 1.1571(4) -0.0990(3) 0.0601(2)
H24 H 1.2508 -0.1470 0.0495
C33 C 0.9305(4) 0.0368(3) 0.0081(2)
N5 N 0.3140(3) 0.4026(2) 0.22303(17)
N6 N 0.7487(3) 0.1234(2) 0.1078(2)
N7 N 0.0919(4) 0.6895(3) 0.30583(19)
O1 O 0.2102(3) 0.6196(2) 0.28633(17)
O2 O -0.0123(3) 0.6599(2) 0.30648(16)
O3 O 0.0802(4) 0.7786(2) 0.3226(2)
N8 N -0.0877(3) 0.4147(3) 0.23940(19)
O4 O -0.1259(3) 0.5003(2) 0.27609(17)
O5 O 0.0401(2) 0.3802(2) 0.21477(16)
O6 O -0.1653(3) 0.3672(3) 0.2272(2)
C33A C 1.0695(4) -0.0368(3) -0.0081(2)
C29A C 1.1143(4) -0.0469(3) -0.0945(2)
C30A C 1.0274(4) 0.0182(3) -0.1587(2)
H22A H 1.0600 0.0139 -0.2154
C31A C 0.8913(4) 0.0908(3) -0.1412(2)
H23A H 0.8320 0.1348 -0.1862
C32A C 0.8429(4) 0.0990(3) -0.0601(2)
H24A H 0.7492 0.1470 -0.0495
N6A N 1.2513(3) -0.1234(2) -0.1078(2)
C28A C 1.2745(4) -0.1747(3) -0.1735(3)
C25A C 1.4179(4) -0.2534(3) -0.1905(2)
C24A C 1.5330(4) -0.2695(3) -0.1375(2)
C23A C 1.6637(4) -0.3436(3) -0.1562(2)
H17A H 1.7420 -0.3535 -0.1199
N5A N 1.6860(3) -0.4026(2) -0.22303(17)
C27A C 1.5738(4) -0.3867(3) -0.2736(2)
C26A C 1.4395(4) -0.3135(3) -0.2596(2)
H19A H 1.3630 -0.3046 -0.2969
H20A H 1.5877 -0.4278 -0.3213
H18A H 1.5215 -0.2298 -0.0891
H21A H 1.1989 -0.1625 -0.2124
C1_2 C -0.7981(4) 1.3171(3) -0.6078(2)
H1_2 H -0.7979 1.2793 -0.6559
C2_2 C -0.7499(4) 1.2589(3) -0.5314(2)
H2_2 H -0.7178 1.1828 -0.5274
C3_2 C -0.7488(4) 1.3127(3) -0.4604(2)
C4_2 C -0.7987(4) 1.4236(3) -0.4700(2)
H3_2 H -0.8016 1.4634 -0.4227
C5_2 C -0.8444(4) 1.4758(3) -0.5487(2)
H4_2 H -0.8767 1.5519 -0.5543
C6_2 C -0.6942(4) 1.2547(3) -0.3780(2)
H5_2 H -0.7051 1.2943 -0.3296
C7_2 C -0.5848(4) 1.1028(3) -0.2878(2)
C8_2 C -0.6750(4) 1.1186(3) -0.2203(2)
H6_2 H -0.7714 1.1661 -0.2271
C9_2 C -0.6241(4) 1.0640(3) -0.1410(2)
H7_2 H -0.6864 1.0755 -0.0941
C10_2 C -0.4869(4) 0.9949(3) -0.1305(2)
H8_2 H -0.4544 0.9594 -0.0763
C11_2 C -0.3921(4) 0.9751(3) -0.1989(2)
C12_2 C -0.4404(4) 1.0299(3) -0.2795(2)
C13_2 C -0.3468(4) 1.0125(3) -0.3485(2)
H9_2 H -0.3791 1.0503 -0.4020
C14_2 C -0.2096(4) 0.9413(3) -0.3384(2)
H10_2 H -0.1467 0.9310 -0.3849
C15_2 C -0.1607(4) 0.8831(3) -0.2601(2)
H11_2 H -0.0660 0.8322 -0.2546
C16_2 C -0.2489(4) 0.8994(3) -0.1914(2)
C17_2 C -0.0791(4) 0.7924(3) -0.0917(2)
H12_2 H -0.0085 0.8027 -0.1276
C18_2 C 0.1441(4) 0.6059(3) 0.0836(2)
H13_2 H 0.2422 0.5712 0.0978
C19_2 C 0.1065(4) 0.6709(3) 0.0090(2)
H14_2 H 0.1776 0.6802 -0.0270
C20_2 C -0.0365(4) 0.7224(3) -0.0131(2)
C21_2 C -0.1351(4) 0.7038(3) 0.0411(2)
H15_2 H -0.2337 0.7360 0.0278
C22_2 C -0.0885(4) 0.6382(3) 0.1144(2)
H16_2 H -0.1576 0.6269 0.1510
N1_2 N -0.8454(3) 1.4248(2) -0.61748(17)
N2_2 N -0.6333(3) 1.1540(3) -0.36972(19)
N3_2 N -0.2097(3) 0.8395(2) -0.11218(17)
N4_2 N 0.0484(3) 0.5894(2) 0.13702(17)
Co1_2 Co -0.89383(5) 1.50394(4) -0.74158(3)
N7_2 N -0.9081(4) 1.6895(3) -0.69417(19)
O1_2 O -0.7898(3) 1.6196(2) -0.71367(17)
O2_2 O -1.0123(3) 1.6599(2) -0.69352(16)
O3_2 O -0.9198(4) 1.7786(2) -0.6774(2)
N8_2 N -1.0877(3) 1.4147(3) -0.76060(19)
O4_2 O -1.1259(3) 1.5003(2) -0.72391(17)
O5_2 O -0.9599(2) 1.3802(2) -0.78523(16)
O6_2 O -1.1653(3) 1.3672(3) -0.7728(2)
Co1_3 Co 1.10617(5) -0.49606(4) 1.25842(3)
Co1A Co 1.89383(5) -0.50394(4) -0.25842(3)
N4_3 N -0.9516(3) 1.5894(2) -0.86298(17)
N5_2 N -0.6860(3) 1.4026(2) -0.77697(17)
C34 C 0.4795(6) 0.4085(4) 0.8170(4)
H25 H 0.5690 0.4091 0.7915
H26 H 0.4006 0.4517 0.7776
Cl1 Cl 0.48680(19) 0.27781(13) 0.82791(14)
Cl2 Cl 0.45495(19) 0.46733(16) 0.91163(11)
C36 C 0.2685(9) -0.2466(7) 0.4901(6)
H29 H 0.2331 -0.2232 0.4312
H30 H 0.2944 -0.1894 0.5118
Cl5 Cl 0.4192(3) -0.3635(4) 0.4900(2)
Cl6 Cl 0.1316(3) -0.2631(3) 0.5525(3)
O7 O 0.2970(11) -0.0262(7) 0.5580(5)
H37 H 0.3491 -0.0724 0.5923
C40 C 0.1527(12) 0.0180(10) 0.5914(7)
H38 H 0.1476 -0.0226 0.6447
H39 H 0.0852 0.0127 0.5502
H40 H 0.1289 0.0935 0.6015
C35? C 0.562(4) 0.331(5) 0.8328(16)
H27? H 0.6481 0.3477 0.8226
H28? H 0.5871 0.2529 0.8290
Cl3? Cl 0.4907(19) 0.3691(15) 0.9318(10)
Cl4? Cl 0.429(2) 0.4042(14) 0.7612(11)
C37? C 0.343(6) -0.298(3) 0.444(3)
H31? H 0.2798 -0.2725 0.3935
H32? H 0.3824 -0.2427 0.4535
Cl7? Cl 0.481(3) -0.416(2) 0.4244(17)
Cl8? Cl 0.245(3) -0.313(2) 0.5313(15)
C38? C 0.182(4) -0.1670(19) 0.5017(12)
H33? H 0.0960 -0.1318 0.4653
H34? H 0.2651 -0.1864 0.4640
Cl9? Cl 0.1739(18) -0.2841(11) 0.5502(11)
Cl10? Cl 0.1936(13) -0.0743(9) 0.5676(7)
C39? C 0.2271(16) 0.0200(16) 0.604(3)
H35? H 0.2197 0.0471 0.6608
H36? H 0.2194 0.0799 0.5613
Cl11? Cl 0.3909(11) -0.0824(8) 0.5952(7)
Cl12? Cl 0.0887(13) -0.0219(10) 0.5889(8)
O8? O 0.3962(12) -0.0288(10) 0.5547(7)
H41? H 0.4153 -0.0652 0.5138
C41? C 0.3253(12) -0.0787(10) 0.6225(7)
H42? H 0.3663 -0.0794 0.6782
H43? H 0.3412 -0.1524 0.6102
H44? H 0.2230 -0.0364 0.6225
loop_
_geom_bond_atom_site_label_1
_geom_bond_atom_site_label_2
_geom_bond_site_symmetry_1
_geom_bond_site_symmetry_2
Co1 N1 1_555 1_555
C1 H1 1_555 1_555
C2 C1 1_555 1_555
H2 C2 1_555 1_555
C3 C2 1_555 1_555
C4 C3 1_555 1_555
H3 C4 1_555 1_555
C5 C4 1_555 1_555
H4 C5 1_555 1_555
C6 C3 1_555 1_555
H5 C6 1_555 1_555
C7 C8 1_555 1_555
C8 H6 1_555 1_555
C9 C8 1_555 1_555
H7 C9 1_555 1_555
C10 C9 1_555 1_555
H8 C10 1_555 1_555
C11 C10 1_555 1_555
C12 C7 1_555 1_555
C13 C12 1_555 1_555
H9 C13 1_555 1_555
C14 C13 1_555 1_555
H10 C14 1_555 1_555
C15 C14 1_555 1_555
H11 C15 1_555 1_555
C16 C11 1_555 1_555
C17 H12 1_555 1_555
C18 H13 1_555 1_555
C19 C18 1_555 1_555
H14 C19 1_555 1_555
C20 C17 1_555 1_555
C21 C20 1_555 1_555
H15 C21 1_555 1_555
C22 C21 1_555 1_555
H16 C22 1_555 1_555
N1 C1 1_555 1_555
N2 C6 1_555 1_555
N3 C16 1_555 1_555
N4 C18 1_555 1_555
C23 H17 1_555 1_555
C24 C23 1_555 1_555
H18 C24 1_555 1_555
C25 C24 1_555 1_555
C26 C25 1_555 1_555
H19 C26 1_555 1_555
C27 C26 1_555 1_555
H20 C27 1_555 1_555
C28 C25 1_555 1_555
H21 C28 1_555 1_555
C29 C30 1_555 1_555
C30 H22 1_555 1_555
C31 C30 1_555 1_555
H23 C31 1_555 1_555
C32 C31 1_555 1_555
H24 C32 1_555 1_555
C33 C29 1_555 1_555
N5 Co1 1_555 1_555
N6 C28 1_555 1_555
N7 O1 1_555 1_555
O1 Co1 1_555 1_555
O2 Co1 1_555 1_555
O3 N7 1_555 1_555
N8 O4 1_555 1_555
O4 Co1 1_555 1_555
O5 Co1 1_555 1_555
O6 N8 1_555 1_555
C34 H25 1_555 1_555
H26 C34 1_555 1_555
Cl1 C34 1_555 1_555
Cl2 C34 1_555 1_555
C36 H29 1_555 1_555
H30 C36 1_555 1_555
Cl5 C36 1_555 1_555
Cl6 C36 1_555 1_555
O7 H37 1_555 1_555
C40 O7 1_555 1_555
H38 C40 1_555 1_555
H39 C40 1_555 1_555
H40 C40 1_555 1_555
C33A C32 1_555 1_555
C29A C33A 1_555 1_555
C30A C29A 1_555 1_555
H22A C30A 1_555 1_555
C31A C30A 1_555 1_555
H23A C31A 1_555 1_555
C32A C33 1_555 1_555
H24A C32A 1_555 1_555
N6A C29A 1_555 1_555
C28A N6A 1_555 1_555
C25A C28A 1_555 1_555
C24A C25A 1_555 1_555
C23A C24A 1_555 1_555
H17A C23A 1_555 1_555
N5A C23A 1_555 1_555
C27A N5A 1_555 1_555
C26A C25A 1_555 1_555
H19A C26A 1_555 1_555
H20A C27A 1_555 1_555
H18A C24A 1_555 1_555
H21A C28A 1_555 1_555
C1_2 H1_2 1_555 1_555
C2_2 C1_2 1_555 1_555
H2_2 C2_2 1_555 1_555
C3_2 C2_2 1_555 1_555
C4_2 C3_2 1_555 1_555
H3_2 C4_2 1_555 1_555
C5_2 C4_2 1_555 1_555
H4_2 C5_2 1_555 1_555
C6_2 C3_2 1_555 1_555
H5_2 C6_2 1_555 1_555
C7_2 C8_2 1_555 1_555
C8_2 H6_2 1_555 1_555
C9_2 C8_2 1_555 1_555
H7_2 C9_2 1_555 1_555
C10_2 C9_2 1_555 1_555
H8_2 C10_2 1_555 1_555
C11_2 C10_2 1_555 1_555
C12_2 C7_2 1_555 1_555
C13_2 C12_2 1_555 1_555
H9_2 C13_2 1_555 1_555
C14_2 C13_2 1_555 1_555
H10_2 C14_2 1_555 1_555
C15_2 C14_2 1_555 1_555
H11_2 C15_2 1_555 1_555
C16_2 C11_2 1_555 1_555
C17_2 H12_2 1_555 1_555
C18_2 H13_2 1_555 1_555
C19_2 C18_2 1_555 1_555
H14_2 C19_2 1_555 1_555
C20_2 C17_2 1_555 1_555
C21_2 C20_2 1_555 1_555
H15_2 C21_2 1_555 1_555
C22_2 C21_2 1_555 1_555
H16_2 C22_2 1_555 1_555
N1_2 C1_2 1_555 1_555
N2_2 C6_2 1_555 1_555
N3_2 C16_2 1_555 1_555
N4_2 Co1 1_555 1_555
Co1_2 N1_2 1_555 1_555
N7_2 O1_2 1_555 1_555
O1_2 Co1_2 1_555 1_555
O2_2 Co1_2 1_555 1_555
O3_2 N7_2 1_555 1_555
N8_2 O4_2 1_555 1_555
O4_2 Co1_2 1_555 1_555
O5_2 Co1_2 1_555 1_555
O6_2 N8_2 1_555 1_555
Co1_3 N4 1_555 1_555
Co1A N5A 1_555 1_555
N4_3 Co1_2 1_555 1_555
N5_2 Co1_2 1_555 1_555
C5 N1 1_555 1_555
C7 N2 1_555 1_555
C11 C12 1_555 1_555
C15 C16 1_555 1_555
C17 N3 1_555 1_555
C19 C20 1_555 1_555
C22 N4 1_555 1_555
C23 N5 1_555 1_555
C27 N5 1_555 1_555
C29 N6 1_555 1_555
C33 C33A 1_555 1_555
N7 O2 1_555 1_555
N8 O5 1_555 1_555
C31A C32A 1_555 1_555
C27A C26A 1_555 1_555
C5_2 N1_2 1_555 1_555
C7_2 N2_2 1_555 1_555
C11_2 C12_2 1_555 1_555
C15_2 C16_2 1_555 1_555
C17_2 N3_2 1_555 1_555
C18_2 N4_2 1_555 1_555
C19_2 C20_2 1_555 1_555
C22_2 N4_2 1_555 1_555
N7_2 O2_2 1_555 1_555
N8_2 O5_2 1_555 1_555

#END
