
#######################################################################
#
#                 Cambridge Crystallographic Data Centre
#                                CCDC 
#
#######################################################################
#
# If this CIF has been generated from an entry in the Cambridge 
# Structural Database, then it will include bibliographic, chemical, 
# crystal, experimental, refinement or atomic coordinate data resulting 
# from the CCDC's data processing and validation procedures.
#
#######################################################################

data_HAJJUY
_symmetry_cell_setting           monoclinic
_symmetry_space_group_name_H-M   'P 21/n'
_symmetry_Int_Tables_number      14
_space_group_name_Hall           '-P 2yn'
loop_
_symmetry_equiv_pos_site_id
_symmetry_equiv_pos_as_xyz
1 x,y,z
2 1/2-x,1/2+y,1/2-z
3 -x,-y,-z
4 1/2+x,1/2-y,1/2+z
_cell_length_a                   15.6034(9)
_cell_length_b                   13.5413(8)
_cell_length_c                   15.8953(10)
_cell_angle_alpha                90
_cell_angle_beta                 116.0690(10)
_cell_angle_gamma                90
_cell_volume                     3016.85
loop_
_atom_site_label
_atom_site_type_symbol
_atom_site_fract_x
_atom_site_fract_y
_atom_site_fract_z
Cd1 Cd 0.16258(2) 0.01671(2) 0.71555(2)
C1 C 0.1363(4) 0.2406(3) 0.6406(4)
H1 H 0.1346 0.2492 0.6991
C2 C 0.1230(4) 0.3211(4) 0.5855(4)
H2 H 0.1131 0.3840 0.6063
C3 C 0.1236(3) 0.3119(3) 0.4985(3)
C4 C 0.1392(3) 0.2180(3) 0.4727(3)
H3 H 0.1401 0.2072 0.4141
C5 C 0.1534(3) 0.1413(3) 0.5338(3)
H4 H 0.1651 0.0777 0.5158
C6 C 0.1137(4) 0.3999(3) 0.4410(4)
H5 H 0.1149 0.4627 0.4682
C7 C 0.0944(3) 0.4864(3) 0.3083(3)
C8 C 0.0639(3) 0.5746(3) 0.3280(3)
H6 H 0.0440 0.5770 0.3765
C9 C 0.0613(4) 0.6607(3) 0.2789(4)
H7 H 0.0424 0.7211 0.2961
C10 C 0.0856(3) 0.6593(3) 0.2063(3)
H8 H 0.0847 0.7188 0.1742
C11 C 0.1120(3) 0.5700(3) 0.1788(3)
C12 C 0.1171(3) 0.4817(3) 0.2302(3)
C13 C 0.1456(4) 0.3929(3) 0.2041(4)
H9 H 0.1497 0.3340 0.2381
C14 C 0.1675(5) 0.3914(4) 0.1299(4)
H10 H 0.1873 0.3313 0.1130
C15 C 0.1613(4) 0.4775(4) 0.0782(4)
H11 H 0.1766 0.4745 0.0266
C16 C 0.1339(3) 0.5654(3) 0.1005(3)
C17 C 0.0999(4) 0.6528(4) -0.0350(4)
H12 H 0.0682 0.5950 -0.0677
C18 C 0.1473(3) 0.9043(3) -0.1066(3)
H13 H 0.1659 0.9682 -0.0801
C19 C 0.1364(3) 0.8314(3) -0.0512(3)
H14 H 0.1485 0.8450 0.0117
C20 C 0.1075(3) 0.7382(3) -0.0889(3)
C21 C 0.0893(4) 0.7239(4) -0.1817(4)
H15 H 0.0678 0.6616 -0.2109
C22 C 0.1029(4) 0.8014(4) -0.2309(4)
H16 H 0.0895 0.7903 -0.2944
C23 C 0.1423(3) -0.1473(3) 0.5644(3)
H17 H 0.0768 -0.1369 0.5488
C24 C 0.1661(3) -0.2207(3) 0.5178(3)
H18 H 0.1177 -0.2595 0.4712
C25 C 0.2614(3) -0.2370(3) 0.5400(3)
C26 C 0.3280(3) -0.1759(3) 0.6049(3)
H19 H 0.3937 -0.1826 0.6197
C27 C 0.2983(3) -0.1047(3) 0.6483(3)
H20 H 0.3451 -0.0634 0.6937
C28 C 0.2912(3) -0.3171(3) 0.4963(3)
H21 H 0.2445 -0.3596 0.4524
C29 C 0.4032(3) -0.4054(3) 0.4689(3)
C30 C 0.3533(3) -0.4203(4) 0.3752(3)
H22 H 0.2989 -0.3807 0.3398
C31 C 0.4867(3) -0.4621(3) 0.5236(3)
C32 C 0.5411(3) -0.4482(3) 0.6206(3)
H23 H 0.5238 -0.3981 0.6521
C33 C 0.3815(4) -0.4936(4) 0.3305(4)
H24 H 0.3460 -0.5030 0.2649
N1 N 0.1518(3) 0.1499(3) 0.6171(3)
N2 N 0.1038(3) 0.3978(3) 0.3588(3)
N3 N 0.1345(3) 0.6542(3) 0.0541(3)
N4 N 0.1334(3) 0.8908(3) -0.1952(3)
N5 N 0.2064(3) -0.0909(3) 0.6296(3)
N6 N 0.3785(3) -0.3300(3) 0.5167(3)
N7 N -0.0313(3) 0.0511(3) 0.6550(3)
O1 O -0.0020(2) -0.0113(3) 0.6137(3)
O2 O 0.0305(3) 0.1003(2) 0.7210(3)
O3 O -0.1166(3) 0.0622(4) 0.6311(3)
N8 N 0.3408(3) 0.0788(3) 0.8633(3)
O4 O 0.3423(3) 0.0537(4) 0.7914(3)
O5 O 0.2608(3) 0.0814(3) 0.8632(3)
O6 O 0.4145(3) 0.0974(3) 0.9338(3)
Cd1_2 Cd 0.16258(2) -0.98329(2) 1.71555(2)
Cd1_3 Cd 0.16258(2) 1.01671(2) -0.28445(2)
Cd1B Cd 0.83742(2) -1.01671(2) 0.28445(2)
C1_2 C 0.1363(4) -0.7594(3) 1.6406(4)
H1_2 H 0.1346 -0.7508 1.6991
C2_2 C 0.1230(4) -0.6789(4) 1.5855(4)
H2_2 H 0.1131 -0.6160 1.6063
C3_2 C 0.1236(3) -0.6881(3) 1.4985(3)
C4_2 C 0.1392(3) -0.7820(3) 1.4727(3)
H3_2 H 0.1401 -0.7928 1.4141
C5_2 C 0.1534(3) -0.8587(3) 1.5338(3)
H4_2 H 0.1651 -0.9223 1.5158
C6_2 C 0.1137(4) -0.6001(3) 1.4410(4)
H5_2 H 0.1149 -0.5373 1.4682
C7_2 C 0.0944(3) -0.5136(3) 1.3083(3)
C8_2 C 0.0639(3) -0.4254(3) 1.3280(3)
H6_2 H 0.0440 -0.4230 1.3765
C9_2 C 0.0613(4) -0.3393(3) 1.2789(4)
H7_2 H 0.0424 -0.2789 1.2961
C10_2 C 0.0856(3) -0.3407(3) 1.2063(3)
H8_2 H 0.0847 -0.2812 1.1742
C11_2 C 0.1120(3) -0.4300(3) 1.1788(3)
C12_2 C 0.1171(3) -0.5183(3) 1.2302(3)
C13_2 C 0.1456(4) -0.6071(3) 1.2041(4)
H9_2 H 0.1497 -0.6660 1.2381
C14_2 C 0.1675(5) -0.6086(4) 1.1299(4)
H10_2 H 0.1873 -0.6687 1.1130
C15_2 C 0.1613(4) -0.5225(4) 1.0782(4)
H11_2 H 0.1766 -0.5255 1.0266
C16_2 C 0.1339(3) -0.4346(3) 1.1005(3)
C17_2 C 0.0999(4) -0.3472(4) 0.9650(4)
H12_2 H 0.0682 -0.4050 0.9323
C18_2 C 0.1473(3) -0.0957(3) 0.8934(3)
H13_2 H 0.1659 -0.0318 0.9199
C19_2 C 0.1364(3) -0.1686(3) 0.9488(3)
H14_2 H 0.1485 -0.1550 1.0117
C20_2 C 0.1075(3) -0.2618(3) 0.9111(3)
C21_2 C 0.0893(4) -0.2761(4) 0.8183(4)
H15_2 H 0.0678 -0.3384 0.7891
C22_2 C 0.1029(4) -0.1986(4) 0.7691(4)
H16_2 H 0.0895 -0.2097 0.7056
C23B C 0.8577(3) -0.8527(3) 0.4356(3)
H17B H 0.9232 -0.8631 0.4512
C24B C 0.8339(3) -0.7793(3) 0.4822(3)
H18B H 0.8823 -0.7405 0.5288
C25B C 0.7386(3) -0.7630(3) 0.4600(3)
C26B C 0.6720(3) -0.8241(3) 0.3951(3)
H19B H 0.6063 -0.8174 0.3803
C27B C 0.7017(3) -0.8953(3) 0.3517(3)
H20B H 0.6549 -0.9366 0.3063
C28B C 0.7088(3) -0.6829(3) 0.5037(3)
H21B H 0.7555 -0.6404 0.5476
C29B C 0.5968(3) -0.5946(3) 0.5311(3)
C30B C 0.6467(3) -0.5797(4) 0.6248(3)
H22B H 0.7011 -0.6193 0.6602
C31B C 0.5133(3) -0.5379(3) 0.4764(3)
C32B C 0.4589(3) -0.5518(3) 0.3794(3)
H23B H 0.4762 -0.6019 0.3479
C33B C 0.6185(4) -0.5064(4) 0.6695(4)
H24B H 0.6540 -0.4970 0.7351
N1_2 N 0.1518(3) -0.8501(3) 1.6171(3)
N2_2 N 0.1038(3) -0.6022(3) 1.3588(3)
N3_2 N 0.1345(3) -0.3458(3) 1.0541(3)
N4_2 N 0.1334(3) -0.1092(3) 0.8048(3)
N4_3 N 0.1334(3) -1.1092(3) 1.8048(3)
N5B N 0.7936(3) -0.9091(3) 0.3704(3)
N5_2 N 0.2064(3) -1.0909(3) 1.6296(3)
N6B N 0.6215(3) -0.6700(3) 0.4833(3)
N7_2 N -0.0313(3) -0.9489(3) 1.6550(3)
O1_2 O -0.0020(2) -1.0113(3) 1.6137(3)
O2_2 O 0.0305(3) -0.8997(2) 1.7210(3)
O3_2 O -0.1166(3) -0.9378(4) 1.6311(3)
N8_2 N 0.3408(3) -0.9212(3) 1.8633(3)
O4_2 O 0.3423(3) -0.9463(4) 1.7914(3)
O5_2 O 0.2608(3) -0.9186(3) 1.8632(3)
O6_2 O 0.4145(3) -0.9026(3) 1.9338(3)
loop_
_geom_bond_atom_site_label_1
_geom_bond_atom_site_label_2
_geom_bond_site_symmetry_1
_geom_bond_site_symmetry_2
Cd1 N1 1_555 1_555
C1 H1 1_555 1_555
C2 C1 1_555 1_555
H2 C2 1_555 1_555
C3 C2 1_555 1_555
C4 C3 1_555 1_555
H3 C4 1_555 1_555
C5 C4 1_555 1_555
H4 C5 1_555 1_555
C6 C3 1_555 1_555
H5 C6 1_555 1_555
C7 C8 1_555 1_555
C8 H6 1_555 1_555
C9 C8 1_555 1_555
H7 C9 1_555 1_555
C10 C9 1_555 1_555
H8 C10 1_555 1_555
C11 C10 1_555 1_555
C12 C7 1_555 1_555
C13 C12 1_555 1_555
H9 C13 1_555 1_555
C14 C13 1_555 1_555
H10 C14 1_555 1_555
C15 C14 1_555 1_555
H11 C15 1_555 1_555
C16 C11 1_555 1_555
C17 H12 1_555 1_555
C18 H13 1_555 1_555
C19 C18 1_555 1_555
H14 C19 1_555 1_555
C20 C17 1_555 1_555
C21 C20 1_555 1_555
H15 C21 1_555 1_555
C22 C21 1_555 1_555
H16 C22 1_555 1_555
C23 H17 1_555 1_555
C24 C23 1_555 1_555
H18 C24 1_555 1_555
C25 C24 1_555 1_555
C26 C25 1_555 1_555
H19 C26 1_555 1_555
C27 C26 1_555 1_555
H20 C27 1_555 1_555
C28 C25 1_555 1_555
H21 C28 1_555 1_555
C29 C30 1_555 1_555
C30 H22 1_555 1_555
C31 C29 1_555 1_555
C32 C31 1_555 1_555
H23 C32 1_555 1_555
C33 C30 1_555 1_555
H24 C33 1_555 1_555
N1 C1 1_555 1_555
N2 C6 1_555 1_555
N3 C16 1_555 1_555
N4 C18 1_555 1_555
N5 Cd1 1_555 1_555
N6 C28 1_555 1_555
N7 O1 1_555 1_555
O1 Cd1 1_555 1_555
O2 Cd1 1_555 1_555
O3 N7 1_555 1_555
N8 O4 1_555 1_555
O4 Cd1 1_555 1_555
O5 Cd1 1_555 1_555
O6 N8 1_555 1_555
Cd1_2 N1_2 1_555 1_555
Cd1_3 N4 1_555 1_555
Cd1B N5B 1_555 1_555
C1_2 H1_2 1_555 1_555
C2_2 C1_2 1_555 1_555
H2_2 C2_2 1_555 1_555
C3_2 C2_2 1_555 1_555
C4_2 C3_2 1_555 1_555
H3_2 C4_2 1_555 1_555
C5_2 C4_2 1_555 1_555
H4_2 C5_2 1_555 1_555
C6_2 C3_2 1_555 1_555
H5_2 C6_2 1_555 1_555
C7_2 C8_2 1_555 1_555
C8_2 H6_2 1_555 1_555
C9_2 C8_2 1_555 1_555
H7_2 C9_2 1_555 1_555
C10_2 C9_2 1_555 1_555
H8_2 C10_2 1_555 1_555
C11_2 C10_2 1_555 1_555
C12_2 C7_2 1_555 1_555
C13_2 C12_2 1_555 1_555
H9_2 C13_2 1_555 1_555
C14_2 C13_2 1_555 1_555
H10_2 C14_2 1_555 1_555
C15_2 C14_2 1_555 1_555
H11_2 C15_2 1_555 1_555
C16_2 C11_2 1_555 1_555
C17_2 H12_2 1_555 1_555
C18_2 H13_2 1_555 1_555
C19_2 C18_2 1_555 1_555
H14_2 C19_2 1_555 1_555
C20_2 C17_2 1_555 1_555
C21_2 C20_2 1_555 1_555
H15_2 C21_2 1_555 1_555
C22_2 C21_2 1_555 1_555
H16_2 C22_2 1_555 1_555
C23B H17B 1_555 1_555
C24B C23B 1_555 1_555
H18B C24B 1_555 1_555
C25B C24B 1_555 1_555
C26B C25B 1_555 1_555
H19B C26B 1_555 1_555
C27B C26B 1_555 1_555
H20B C27B 1_555 1_555
C28B C25B 1_555 1_555
H21B C28B 1_555 1_555
C29B C30B 1_555 1_555
C30B H22B 1_555 1_555
C31B C31 1_555 1_555
C32B C33 1_555 1_555
H23B C32B 1_555 1_555
C33B C32 1_555 1_555
H24B C33B 1_555 1_555
N1_2 C1_2 1_555 1_555
N2_2 C6_2 1_555 1_555
N3_2 C16_2 1_555 1_555
N4_2 Cd1 1_555 1_555
N4_3 Cd1_2 1_555 1_555
N5B C23B 1_555 1_555
N5_2 Cd1_2 1_555 1_555
N6B C28B 1_555 1_555
N7_2 O1_2 1_555 1_555
O1_2 Cd1_2 1_555 1_555
O2_2 Cd1_2 1_555 1_555
O3_2 N7_2 1_555 1_555
N8_2 O4_2 1_555 1_555
O4_2 Cd1_2 1_555 1_555
O5_2 Cd1_2 1_555 1_555
O6_2 N8_2 1_555 1_555
C5 N1 1_555 1_555
C7 N2 1_555 1_555
C11 C12 1_555 1_555
C15 C16 1_555 1_555
C17 N3 1_555 1_555
C19 C20 1_555 1_555
C22 N4 1_555 1_555
C23 N5 1_555 1_555
C27 N5 1_555 1_555
C29 N6 1_555 1_555
N7 O2 1_555 1_555
N8 O5 1_555 1_555
C5_2 N1_2 1_555 1_555
C7_2 N2_2 1_555 1_555
C11_2 C12_2 1_555 1_555
C15_2 C16_2 1_555 1_555
C17_2 N3_2 1_555 1_555
C18_2 N4_2 1_555 1_555
C19_2 C20_2 1_555 1_555
C22_2 N4_2 1_555 1_555
C27B N5B 1_555 1_555
C29B C31B 1_555 1_555
C29B N6B 1_555 1_555
C30B C33B 1_555 1_555
C31B C32B 1_555 1_555
N7_2 O2_2 1_555 1_555
N8_2 O5_2 1_555 1_555

#END
