
#######################################################################
#
#                 Cambridge Crystallographic Data Centre
#                                CCDC 
#
#######################################################################
#
# If this CIF has been generated from an entry in the Cambridge 
# Structural Database, then it will include bibliographic, chemical, 
# crystal, experimental, refinement or atomic coordinate data resulting 
# from the CCDC's data processing and validation procedures.
#
#######################################################################

data_HAJJUY01
_symmetry_cell_setting           triclinic
_symmetry_space_group_name_H-M   'P -1'
_symmetry_Int_Tables_number      2
_space_group_name_Hall           '-P 1'
loop_
_symmetry_equiv_pos_site_id
_symmetry_equiv_pos_as_xyz
1 x,y,z
2 -x,-y,-z
_cell_length_a                   10.9777(18)
_cell_length_b                   13.436(2)
_cell_length_c                   16.035(3)
_cell_angle_alpha                88.007(14)
_cell_angle_beta                 88.982(11)
_cell_angle_gamma                66.161(12)
_cell_volume                     2162
loop_
_atom_site_label
_atom_site_type_symbol
_atom_site_fract_x
_atom_site_fract_y
_atom_site_fract_z
Cd1 Cd 0.62184(4) 0.98529(3) 0.743518(19)
O1 O 0.4160(4) 1.1271(3) 0.7904(3)
O2 O 0.3927(5) 0.9953(4) 0.7333(3)
O3 O 0.2194(5) 1.1342(5) 0.7724(5)
O4 O 0.8444(5) 0.8493(4) 0.7073(4)
O5 O 0.6759(6) 0.8151(4) 0.6800(3)
O6 O 0.8744(8) 0.6931(5) 0.6619(5)
N1 N 0.5940(5) 1.0760(4) 0.6146(3)
N2 N 0.5314(6) 1.3428(4) 0.3738(3)
N3 N 0.6248(5) 1.6507(3) 0.1146(2)
N4 N 0.6426(5) 1.8937(3) -0.1285(2)
N5 N 0.7315(4) 1.0916(3) 0.7874(2)
N6 N 0.8717(5) 1.3743(4) 0.9036(3)
N7 N 0.3401(5) 1.0866(4) 0.7657(3)
N8 N 0.8006(8) 0.7832(5) 0.6823(3)
C1 C 0.5413(7) 1.1836(5) 0.6086(4)
H1 H 0.5107 1.2225 0.6570
C2 C 0.5296(8) 1.2412(5) 0.5335(4)
H2 H 0.4964 1.3168 0.5325
C3 C 0.5678(6) 1.1853(5) 0.4601(3)
C4 C 0.6193(8) 1.0734(5) 0.4668(3)
H3 H 0.6466 1.0325 0.4191
C5 C 0.6306(7) 1.0221(5) 0.5434(3)
H4 H 0.6654 0.9465 0.5462
C6 C 0.5574(7) 1.2434(5) 0.3792(3)
H5 H 0.5706 1.2047 0.3305
C7 C 0.5218(6) 1.3937(5) 0.2928(4)
C8 C 0.5898(6) 1.4644(4) 0.2813(3)
C9 C 0.6648(7) 1.4805(5) 0.3446(3)
H6 H 0.6730 1.4432 0.3956
C10 C 0.7265(8) 1.5501(5) 0.3328(4)
H7 H 0.7752 1.5607 0.3758
C11 C 0.7163(7) 1.6060(5) 0.2554(3)
H8 H 0.7589 1.6531 0.2477
C12 C 0.6445(6) 1.5918(4) 0.1914(3)
C13 C 0.5792(6) 1.5191(4) 0.2023(3)
C14 C 0.5023(6) 1.5017(5) 0.1392(3)
H9 H 0.4973 1.5353 0.0869
C15 C 0.4352(7) 1.4364(5) 0.1534(4)
H10 H 0.3813 1.4292 0.1120
C16 C 0.4472(7) 1.3800(5) 0.2305(4)
H11 H 0.4042 1.3333 0.2390
C17 C 0.7050(6) 1.6905(4) 0.0905(3)
H12 H 0.7816 1.6754 0.1215
C18 C 0.6819(5) 1.7608(4) 0.0147(3)
C19 C 0.5725(6) 1.7835(5) -0.0367(3)
H13 H 0.5105 1.7542 -0.0240
C20 C 0.5569(7) 1.8491(5) -0.1059(3)
H14 H 0.4828 1.8639 -0.1393
C21 C 0.7446(6) 1.8741(5) -0.0791(3)
H15 H 0.8040 1.9055 -0.0930
C22 C 0.7679(6) 1.8089(5) -0.0074(4)
H16 H 0.8412 1.7977 0.0258
C23 C 0.6822(6) 1.1622(5) 0.8473(3)
H17 H 0.6067 1.1643 0.8758
C24 C 0.7378(6) 1.2332(5) 0.8697(4)
H18 H 0.7013 1.2806 0.9130
C25 C 0.8492(5) 1.2327(4) 0.8264(3)
C26 C 0.8989(6) 1.1586(6) 0.7648(4)
H19 H 0.9735 1.1551 0.7345
C27 C 0.8384(7) 1.0887(6) 0.7474(4)
H20 H 0.8748 1.0381 0.7060
C28 C 0.9113(6) 1.3087(5) 0.8427(4)
H21 H 0.9803 1.3093 0.8085
C29 C 0.9305(5) 1.4496(4) 0.9123(4)
C30 C 0.9510(6) 1.5091(5) 0.8465(4)
H22 H 0.9246 1.5007 0.7933
C31 C 0.9687(5) 1.4636(4) 0.9956(4)
C32 C 0.9474(6) 1.4064(4) 1.0649(4)
H23 H 0.9043 1.3601 1.0582
C33 C 1.0107(7) 1.5820(5) 0.8575(4)
H24 H 1.0219 1.6226 0.8121
Cd1_2 Cd 0.62184(4) -0.01471(3) 1.743518(19)
Cd1_3 Cd 0.62184(4) 1.98529(3) -0.256482(19)
Cd1A Cd 1.37816(4) 2.01471(3) 1.256482(19)
O1_2 O 0.4160(4) 0.1271(3) 1.7904(3)
O2_2 O 0.3927(5) -0.0047(4) 1.7333(3)
O3_2 O 0.2194(5) 0.1342(5) 1.7724(5)
O4_2 O 0.8444(5) -0.1507(4) 1.7073(4)
O5_2 O 0.6759(6) -0.1849(4) 1.6800(3)
O6_2 O 0.8744(8) -0.3069(5) 1.6619(5)
N1_2 N 0.5940(5) 0.0760(4) 1.6146(3)
N2_2 N 0.5314(6) 0.3428(4) 1.3738(3)
N3_2 N 0.6248(5) 0.6507(3) 1.1146(2)
N4_2 N 0.6426(5) 0.8937(3) 0.8715(2)
N4_3 N 0.6426(5) -0.1063(3) 1.8715(2)
N5A N 1.2685(4) 1.9084(3) 1.2126(2)
N5_2 N 0.7315(4) 0.0916(3) 1.7874(2)
N6A N 1.1283(5) 1.6257(4) 1.0964(3)
N7_2 N 0.3401(5) 0.0866(4) 1.7657(3)
N8_2 N 0.8006(8) -0.2168(5) 1.6823(3)
C1_2 C 0.5413(7) 0.1836(5) 1.6086(4)
H1_2 H 0.5107 0.2225 1.6570
C2_2 C 0.5296(8) 0.2412(5) 1.5335(4)
H2_2 H 0.4964 0.3168 1.5325
C3_2 C 0.5678(6) 0.1853(5) 1.4601(3)
C4_2 C 0.6193(8) 0.0734(5) 1.4668(3)
H3_2 H 0.6466 0.0325 1.4191
C5_2 C 0.6306(7) 0.0221(5) 1.5434(3)
H4_2 H 0.6654 -0.0535 1.5462
C6_2 C 0.5574(7) 0.2434(5) 1.3792(3)
H5_2 H 0.5706 0.2047 1.3305
C7_2 C 0.5218(6) 0.3937(5) 1.2928(4)
C8_2 C 0.5898(6) 0.4644(4) 1.2813(3)
C9_2 C 0.6648(7) 0.4805(5) 1.3446(3)
H6_2 H 0.6730 0.4432 1.3956
C10_2 C 0.7265(8) 0.5501(5) 1.3328(4)
H7_2 H 0.7752 0.5607 1.3758
C11_2 C 0.7163(7) 0.6060(5) 1.2554(3)
H8_2 H 0.7589 0.6531 1.2477
C12_2 C 0.6445(6) 0.5918(4) 1.1914(3)
C13_2 C 0.5792(6) 0.5191(4) 1.2023(3)
C14_2 C 0.5023(6) 0.5017(5) 1.1392(3)
H9_2 H 0.4973 0.5353 1.0869
C15_2 C 0.4352(7) 0.4364(5) 1.1534(4)
H10_2 H 0.3813 0.4292 1.1120
C16_2 C 0.4472(7) 0.3800(5) 1.2305(4)
H11_2 H 0.4042 0.3333 1.2390
C17_2 C 0.7050(6) 0.6905(4) 1.0905(3)
H12_2 H 0.7816 0.6754 1.1215
C18_2 C 0.6819(5) 0.7608(4) 1.0147(3)
C19_2 C 0.5725(6) 0.7835(5) 0.9633(3)
H13_2 H 0.5105 0.7542 0.9760
C20_2 C 0.5569(7) 0.8491(5) 0.8941(3)
H14_2 H 0.4828 0.8639 0.8607
C21_2 C 0.7446(6) 0.8741(5) 0.9209(3)
H15_2 H 0.8040 0.9055 0.9070
C22_2 C 0.7679(6) 0.8089(5) 0.9926(4)
H16_2 H 0.8412 0.7977 1.0258
C23A C 1.3178(6) 1.8378(5) 1.1527(3)
H17A H 1.3933 1.8357 1.1242
C24A C 1.2622(6) 1.7668(5) 1.1303(4)
H18A H 1.2987 1.7194 1.0870
C25A C 1.1508(5) 1.7673(4) 1.1736(3)
C26A C 1.1011(6) 1.8414(6) 1.2352(4)
H19A H 1.0265 1.8449 1.2655
C27A C 1.1616(7) 1.9113(6) 1.2526(4)
H20A H 1.1252 1.9619 1.2940
C28A C 1.0887(6) 1.6913(5) 1.1573(4)
H21A H 1.0197 1.6907 1.1915
C29A C 1.0695(5) 1.5504(4) 1.0877(4)
C30A C 1.0490(6) 1.4909(5) 1.1535(4)
H22A H 1.0754 1.4993 1.2067
C31A C 1.0313(5) 1.5364(4) 1.0044(4)
C32A C 1.0526(6) 1.5936(4) 0.9351(4)
H23A H 1.0957 1.6399 0.9418
C33A C 0.9893(7) 1.4180(5) 1.1425(4)
H24A H 0.9781 1.3774 1.1879
loop_
_geom_bond_atom_site_label_1
_geom_bond_atom_site_label_2
_geom_bond_site_symmetry_1
_geom_bond_site_symmetry_2
Cd1 O1 1_555 1_555
O1 N7 1_555 1_555
O2 Cd1 1_555 1_555
O3 N7 1_555 1_555
O4 Cd1 1_555 1_555
O5 Cd1 1_555 1_555
O6 N8 1_555 1_555
N1 Cd1 1_555 1_555
N2 C6 1_555 1_555
N3 C12 1_555 1_555
N4 C20 1_555 1_555
N5 Cd1 1_555 1_555
N6 C28 1_555 1_555
N7 O2 1_555 1_555
N8 O4 1_555 1_555
C1 N1 1_555 1_555
H1 C1 1_555 1_555
C2 C1 1_555 1_555
H2 C2 1_555 1_555
C3 C2 1_555 1_555
C4 C3 1_555 1_555
H3 C4 1_555 1_555
C5 N1 1_555 1_555
H4 C5 1_555 1_555
C6 C3 1_555 1_555
H5 C6 1_555 1_555
C7 N2 1_555 1_555
C8 C7 1_555 1_555
C9 C8 1_555 1_555
H6 C9 1_555 1_555
C10 C9 1_555 1_555
H7 C10 1_555 1_555
C11 C10 1_555 1_555
H8 C11 1_555 1_555
C12 C11 1_555 1_555
C13 C8 1_555 1_555
C14 C13 1_555 1_555
H9 C14 1_555 1_555
C15 C14 1_555 1_555
H10 C15 1_555 1_555
C16 C7 1_555 1_555
H11 C16 1_555 1_555
C17 N3 1_555 1_555
H12 C17 1_555 1_555
C18 C17 1_555 1_555
C19 C18 1_555 1_555
H13 C19 1_555 1_555
C20 C19 1_555 1_555
H14 C20 1_555 1_555
C21 N4 1_555 1_555
H15 C21 1_555 1_555
C22 C18 1_555 1_555
H16 C22 1_555 1_555
C23 N5 1_555 1_555
H17 C23 1_555 1_555
C24 C23 1_555 1_555
H18 C24 1_555 1_555
C25 C24 1_555 1_555
C26 C25 1_555 1_555
H19 C26 1_555 1_555
C27 N5 1_555 1_555
H20 C27 1_555 1_555
C28 C25 1_555 1_555
H21 C28 1_555 1_555
C29 N6 1_555 1_555
C30 C29 1_555 1_555
H22 C30 1_555 1_555
C31 C29 1_555 1_555
C32 C31 1_555 1_555
H23 C32 1_555 1_555
C33 C30 1_555 1_555
H24 C33 1_555 1_555
Cd1_2 O1_2 1_555 1_555
Cd1_3 N4 1_555 1_555
Cd1A N5A 1_555 1_555
O1_2 N7_2 1_555 1_555
O2_2 Cd1_2 1_555 1_555
O3_2 N7_2 1_555 1_555
O4_2 Cd1_2 1_555 1_555
O5_2 Cd1_2 1_555 1_555
O6_2 N8_2 1_555 1_555
N1_2 Cd1_2 1_555 1_555
N2_2 C6_2 1_555 1_555
N3_2 C12_2 1_555 1_555
N4_2 Cd1 1_555 1_555
N4_3 Cd1_2 1_555 1_555
N5A C23A 1_555 1_555
N5_2 Cd1_2 1_555 1_555
N6A C28A 1_555 1_555
N7_2 O2_2 1_555 1_555
N8_2 O4_2 1_555 1_555
C1_2 N1_2 1_555 1_555
H1_2 C1_2 1_555 1_555
C2_2 C1_2 1_555 1_555
H2_2 C2_2 1_555 1_555
C3_2 C2_2 1_555 1_555
C4_2 C3_2 1_555 1_555
H3_2 C4_2 1_555 1_555
C5_2 N1_2 1_555 1_555
H4_2 C5_2 1_555 1_555
C6_2 C3_2 1_555 1_555
H5_2 C6_2 1_555 1_555
C7_2 N2_2 1_555 1_555
C8_2 C7_2 1_555 1_555
C9_2 C8_2 1_555 1_555
H6_2 C9_2 1_555 1_555
C10_2 C9_2 1_555 1_555
H7_2 C10_2 1_555 1_555
C11_2 C10_2 1_555 1_555
H8_2 C11_2 1_555 1_555
C12_2 C11_2 1_555 1_555
C13_2 C8_2 1_555 1_555
C14_2 C13_2 1_555 1_555
H9_2 C14_2 1_555 1_555
C15_2 C14_2 1_555 1_555
H10_2 C15_2 1_555 1_555
C16_2 C7_2 1_555 1_555
H11_2 C16_2 1_555 1_555
C17_2 N3_2 1_555 1_555
H12_2 C17_2 1_555 1_555
C18_2 C17_2 1_555 1_555
C19_2 C18_2 1_555 1_555
H13_2 C19_2 1_555 1_555
C20_2 N4_2 1_555 1_555
H14_2 C20_2 1_555 1_555
C21_2 N4_2 1_555 1_555
H15_2 C21_2 1_555 1_555
C22_2 C18_2 1_555 1_555
H16_2 C22_2 1_555 1_555
C23A H17A 1_555 1_555
C24A C23A 1_555 1_555
H18A C24A 1_555 1_555
C25A C24A 1_555 1_555
C26A C25A 1_555 1_555
H19A C26A 1_555 1_555
C27A N5A 1_555 1_555
H20A C27A 1_555 1_555
C28A C25A 1_555 1_555
H21A C28A 1_555 1_555
C29A N6A 1_555 1_555
C30A C29A 1_555 1_555
H22A C30A 1_555 1_555
C31A C31 1_555 1_555
C32A C33 1_555 1_555
H23A C32A 1_555 1_555
C33A C32 1_555 1_555
H24A C33A 1_555 1_555
O5 N8 1_555 1_555
C4 C5 1_555 1_555
C12 C13 1_555 1_555
C15 C16 1_555 1_555
C21 C22 1_555 1_555
C26 C27 1_555 1_555
O5_2 N8_2 1_555 1_555
C4_2 C5_2 1_555 1_555
C12_2 C13_2 1_555 1_555
C15_2 C16_2 1_555 1_555
C19_2 C20_2 1_555 1_555
C21_2 C22_2 1_555 1_555
C26A C27A 1_555 1_555
C29A C31A 1_555 1_555
C30A C33A 1_555 1_555
C31A C32A 1_555 1_555

#END
