
#######################################################################
#
#                 Cambridge Crystallographic Data Centre
#                                CCDC 
#
#######################################################################
#
# If this CIF has been generated from an entry in the Cambridge 
# Structural Database, then it will include bibliographic, chemical, 
# crystal, experimental, refinement or atomic coordinate data resulting 
# from the CCDC's data processing and validation procedures.
#
#######################################################################

data_HAJKOU
_symmetry_cell_setting           orthorhombic
_symmetry_space_group_name_H-M   'F d d d'
_symmetry_Int_Tables_number      70
_space_group_name_Hall           '-F 2uv 2vw'
loop_
_symmetry_equiv_pos_site_id
_symmetry_equiv_pos_as_xyz
1 x,y,z
2 3/4-x,3/4-y,z
3 3/4-x,y,3/4-z
4 x,3/4-y,3/4-z
5 x,1/2+y,1/2+z
6 3/4-x,1/4-y,1/2+z
7 3/4-x,1/2+y,1/4-z
8 x,1/4-y,1/4-z
9 1/2+x,y,1/2+z
10 1/4-x,3/4-y,1/2+z
11 1/4-x,y,1/4-z
12 1/2+x,3/4-y,1/4-z
13 1/2+x,1/2+y,z
14 1/4-x,1/4-y,z
15 1/4-x,1/2+y,3/4-z
16 1/2+x,1/4-y,3/4-z
17 -x,-y,-z
18 1/4+x,1/4+y,-z
19 1/4+x,-y,1/4+z
20 -x,1/4+y,1/4+z
21 -x,1/2-y,1/2-z
22 1/4+x,3/4+y,1/2-z
23 1/4+x,1/2-y,3/4+z
24 -x,3/4+y,3/4+z
25 1/2-x,-y,1/2-z
26 3/4+x,1/4+y,1/2-z
27 3/4+x,-y,3/4+z
28 1/2-x,1/4+y,3/4+z
29 1/2-x,1/2-y,-z
30 3/4+x,3/4+y,-z
31 3/4+x,1/2-y,1/4+z
32 1/2-x,3/4+y,1/4+z
_cell_length_a                   12.819(2)
_cell_length_b                   23.058(4)
_cell_length_c                   23.654(4)
_cell_angle_alpha                90
_cell_angle_beta                 90
_cell_angle_gamma                90
_cell_volume                     6991.66
loop_
_atom_site_label
_atom_site_type_symbol
_atom_site_fract_x
_atom_site_fract_y
_atom_site_fract_z
C1 C 0.6962(2) 0.02282(11) 0.43479(11)
C2 C 0.6555(2) -0.01481(12) 0.47598(12)
H1 H 0.5840 -0.0162 0.4824
C3 C 0.7213(2) -0.04952(10) 0.50673(10)
C4 C 0.6759(2) -0.09106(11) 0.54914(10)
C5 C 0.8283(2) -0.04630(12) 0.49668(11)
H2 H 0.8750 -0.0695 0.5166
C6 C 0.86260(19) -0.00802(12) 0.45670(11)
H3 H 0.9340 -0.0059 0.4500
Co1 Co 0.8750 0.087342(18) 0.3750
N1 N 0.79907(15) 0.02715(8) 0.42608(8)
N2 N 0.63144(18) 0.05393(12) 0.40120(12)
H4 H 0.6525 0.0910 0.4013
H5 H 0.5670 0.0525 0.4160
O1 O 0.73606(13) -0.12810(7) 0.57190(7)
O2 O 0.58155(14) -0.08912(8) 0.56122(8)
C1B C 1.0538(2) 0.02282(11) 0.31521(11)
C2B C 1.0945(2) -0.01481(12) 0.27402(12)
H1B H 1.1660 -0.0162 0.2676
C3B C 1.0287(2) -0.04952(10) 0.24327(10)
C4B C 1.0741(2) -0.09106(11) 0.20086(10)
C5B C 0.9217(2) -0.04630(12) 0.25332(11)
H2B H 0.8750 -0.0695 0.2334
C6B C 0.88740(19) -0.00802(12) 0.29330(11)
H3B H 0.8160 -0.0059 0.3000
Co1CA Co 0.6250 -0.162658(18) 0.6250
Co1U Co 1.1250 -0.162658(18) 0.1250
N1B N 0.95093(15) 0.02715(8) 0.32392(8)
N2B N 1.11856(18) 0.05393(12) 0.34880(12)
H4B H 1.0975 0.0910 0.3487
H5B H 1.1830 0.0525 0.3340
O1AA O 0.76394(13) 0.12190(7) 0.32190(7)
O1Q O 0.98606(13) 0.12190(7) 0.42810(7)
O1B O 1.01394(13) -0.12810(7) 0.17810(7)
O2AA O 0.91845(14) 0.16088(8) 0.31122(8)
O2Q O 0.83155(14) 0.16088(8) 0.43878(8)
O2B O 1.16845(14) -0.08912(8) 0.18878(8)
loop_
_geom_bond_atom_site_label_1
_geom_bond_atom_site_label_2
_geom_bond_site_symmetry_1
_geom_bond_site_symmetry_2
C1 C2 1_555 1_555
C2 H1 1_555 1_555
C3 C2 1_555 1_555
C4 C3 1_555 1_555
C5 C3 1_555 1_555
H2 C5 1_555 1_555
C6 C5 1_555 1_555
H3 C6 1_555 1_555
Co1 N1 1_555 1_555
N1 C1 1_555 1_555
N2 C1 1_555 1_555
H4 N2 1_555 1_555
H5 N2 1_555 1_555
O1 C4 1_555 1_555
O2 C4 1_555 1_555
C1B C2B 1_555 1_555
C2B H1B 1_555 1_555
C3B C2B 1_555 1_555
C4B C3B 1_555 1_555
C5B C3B 1_555 1_555
H2B C5B 1_555 1_555
C6B C5B 1_555 1_555
H3B C6B 1_555 1_555
Co1CA O1 1_555 1_555
Co1U O1B 1_555 1_555
N1B Co1 1_555 1_555
N2B C1B 1_555 1_555
H4B N2B 1_555 1_555
H5B N2B 1_555 1_555
O1AA Co1 1_555 1_555
O1Q Co1 1_555 1_555
O1B C4B 1_555 1_555
O2AA Co1 1_555 1_555
O2Q Co1 1_555 1_555
O2B C4B 1_555 1_555
C6 N1 1_555 1_555
O2 Co1CA 1_555 1_555
C1B N1B 1_555 1_555
C6B N1B 1_555 1_555
Co1U O2B 1_555 1_555

#END
