
#######################################################################
#
#                 Cambridge Crystallographic Data Centre
#                                CCDC 
#
#######################################################################
#
# If this CIF has been generated from an entry in the Cambridge 
# Structural Database, then it will include bibliographic, chemical, 
# crystal, experimental, refinement or atomic coordinate data resulting 
# from the CCDC's data processing and validation procedures.
#
#######################################################################

data_HAJLUB
_symmetry_cell_setting           orthorhombic
_symmetry_space_group_name_H-M   'P 21 21 21'
_symmetry_Int_Tables_number      19
_space_group_name_Hall           'P 2ac 2ab'
loop_
_symmetry_equiv_pos_site_id
_symmetry_equiv_pos_as_xyz
1 x,y,z
2 1/2-x,-y,1/2+z
3 -x,1/2+y,1/2-z
4 1/2+x,1/2-y,-z
_cell_length_a                   5.0351(12)
_cell_length_b                   15.457(4)
_cell_length_c                   22.389(5)
_cell_angle_alpha                90
_cell_angle_beta                 90
_cell_angle_gamma                90
_cell_volume                     1742.48
loop_
_atom_site_label
_atom_site_type_symbol
_atom_site_fract_x
_atom_site_fract_y
_atom_site_fract_z
Zn1 Zn 0.23880(12) 0.52710(3) 0.62354(2)
Zn2 Zn 0.53944(11) 0.45550(3) 0.47675(2)
Zn3 Zn 0.27927(10) 0.26326(3) 0.42468(2)
Zn4 Zn 0.26187(11) 0.72989(3) 0.55288(2)
P1 P 0.2849(2) 0.34709(7) 0.55782(5)
P2 P 0.7996(2) 0.61449(7) 0.53920(5)
N1 N 0.0536(7) 0.4546(2) 0.69474(15)
N2 N 0.4479(7) 0.5730(2) 0.69638(16)
O1 O 0.3839(6) 0.43937(18) 0.57296(14)
O2 O 0.3630(6) 0.34076(19) 0.49062(14)
O3 O 0.4317(6) 0.27890(19) 0.59314(14)
O4 O -0.0115(6) 0.34017(18) 0.56555(14)
O5 O 0.8140(6) 0.53628(18) 0.49754(13)
O6 O 0.5129(6) 0.63212(18) 0.55677(13)
O7 O 0.9715(6) 0.6013(2) 0.59427(13)
O8 O 0.9291(6) 0.69213(18) 0.50667(13)
O9 O -0.0273(10) 0.3226(3) 0.89781(19)
O10 O -0.3627(12) 0.2740(3) 0.8556(2)
O11 O 1.0710(6) 0.6763(2) 0.85502(14)
O12 O 0.7896(7) 0.5860(2) 0.90111(14)
C1 C -0.1469(9) 0.3984(3) 0.6930(2)
H1 H -0.2362 0.3902 0.6571
C2 C -0.2283(11) 0.3514(3) 0.7431(2)
H2 H -0.3703 0.3131 0.7406
C3 C -0.0951(11) 0.3627(3) 0.7963(2)
C4 C 0.1113(10) 0.4193(3) 0.7976(2)
H3 H 0.2073 0.4268 0.8327
C5 C 0.1798(9) 0.4660(3) 0.74687(19)
C6 C 0.3891(9) 0.5319(3) 0.7484(2)
C7 C 0.5206(9) 0.5513(3) 0.8007(2)
H4 H 0.4750 0.5233 0.8359
C8 C 0.7196(10) 0.6124(3) 0.80052(18)
C9 C 0.7750(11) 0.6556(3) 0.7483(2)
H5 H 0.9051 0.6983 0.7471
C10 C 0.6319(9) 0.6340(3) 0.6972(2)
H6 H 0.6674 0.6638 0.6621
C11 C -0.1681(14) 0.3176(3) 0.8534(3)
C12 C 0.8745(9) 0.6277(3) 0.8575(2)
O13 O 0.2603(8) 0.5299(2) 0.43867(15)
H7 H 0.302(12) 0.5803(16) 0.429(3)
H8 H 0.114(6) 0.531(3) 0.456(2)
Zn1_2 Zn 1.23880(12) 0.52710(3) 0.62354(2)
Zn2A Zn 0.96056(11) 0.54450(3) 0.97675(2)
Zn3C Zn 0.77927(10) 0.23674(3) 0.57532(2)
Zn3C_2 Zn -0.22073(10) 0.23674(3) 0.57532(2)
Zn3A Zn 1.22073(10) 0.73674(3) 0.92468(2)
Zn4_2 Zn 1.26187(11) 0.72989(3) 0.55288(2)
Zn4C Zn 0.76187(11) 0.77011(3) 0.44712(2)
Zn4B Zn -0.26187(11) 0.22989(3) 0.94712(2)
O3C O -0.0683(6) 0.22110(19) 0.40686(14)
O4C O 0.4885(6) 0.15983(18) 0.43445(14)
O7_2 O -0.0285(6) 0.6013(2) 0.59427(13)
O8_2 O -0.0709(6) 0.69213(18) 0.50667(13)
O8C O 0.4291(6) 0.80787(18) 0.49333(13)
O9B O 0.0273(10) 0.8226(3) 0.60219(19)
O10B O 0.3627(12) 0.7740(3) 0.6444(2)
O11A O 0.4290(6) 0.3237(2) 0.35502(14)
O12A O 0.7104(7) 0.4140(2) 0.40111(14)
loop_
_geom_bond_atom_site_label_1
_geom_bond_atom_site_label_2
_geom_bond_site_symmetry_1
_geom_bond_site_symmetry_2
Zn1 N1 1_555 1_555
Zn2 O1 1_555 1_555
Zn3 O2 1_555 1_555
Zn4 O6 1_555 1_555
P1 O1 1_555 1_555
P2 O5 1_555 1_555
N1 C1 1_555 1_555
N2 Zn1 1_555 1_555
O1 Zn1 1_555 1_555
O2 Zn2 1_555 1_555
O3 P1 1_555 1_555
O4 P1 1_555 1_555
O5 Zn2 1_555 1_555
O6 Zn1 1_555 1_555
O7 P2 1_555 1_555
O8 P2 1_555 1_555
O9 C11 1_555 1_555
O10 C11 1_555 1_555
O11 C12 1_555 1_555
O12 C12 1_555 1_555
C1 H1 1_555 1_555
C2 C1 1_555 1_555
H2 C2 1_555 1_555
C3 C2 1_555 1_555
C4 C3 1_555 1_555
H3 C4 1_555 1_555
C5 N1 1_555 1_555
C6 N2 1_555 1_555
C7 C6 1_555 1_555
H4 C7 1_555 1_555
C8 C7 1_555 1_555
C9 C8 1_555 1_555
H5 C9 1_555 1_555
C10 N2 1_555 1_555
H6 C10 1_555 1_555
C11 C3 1_555 1_555
C12 C8 1_555 1_555
O13 Zn2 1_555 1_555
H7 O13 1_555 1_555
H8 O13 1_555 1_555
Zn1_2 O7 1_555 1_555
Zn2A O12 1_555 1_555
Zn3C O3 1_555 1_555
Zn3C_2 O4 1_555 1_555
Zn3A O11 1_555 1_555
Zn4_2 O7 1_555 1_555
Zn4C O8 1_555 1_555
Zn4B O9 1_555 1_555
O3C Zn3 1_555 1_555
O4C Zn3 1_555 1_555
O7_2 Zn1 1_555 1_555
O8_2 Zn4 1_555 1_555
O8C Zn4 1_555 1_555
O9B Zn4 1_555 1_555
O10B Zn4 1_555 1_555
O11A Zn3 1_555 1_555
O12A Zn2 1_555 1_555
Zn4 O7_2 1_555 1_555
P1 O2 1_555 1_555
P2 O6 1_555 1_555
O8 Zn4_2 1_555 1_555
O10 Zn4B 1_555 1_555
C4 C5 1_555 1_555
C5 C6 1_555 1_555
C9 C10 1_555 1_555
Zn4C O8C 1_555 1_555

#END
