
#######################################################################
#
#                 Cambridge Crystallographic Data Centre
#                                CCDC 
#
#######################################################################
#
# If this CIF has been generated from an entry in the Cambridge 
# Structural Database, then it will include bibliographic, chemical, 
# crystal, experimental, refinement or atomic coordinate data resulting 
# from the CCDC's data processing and validation procedures.
#
#######################################################################

data_HAJLOV
_symmetry_cell_setting           triclinic
_symmetry_space_group_name_H-M   'P -1'
_symmetry_Int_Tables_number      2
_space_group_name_Hall           '-P 1'
loop_
_symmetry_equiv_pos_site_id
_symmetry_equiv_pos_as_xyz
1 x,y,z
2 -x,-y,-z
_cell_length_a                   7.665(3)
_cell_length_b                   9.817(4)
_cell_length_c                   10.534(4)
_cell_angle_alpha                93.408(6)
_cell_angle_beta                 105.627(5)
_cell_angle_gamma                106.728(5)
_cell_volume                     722.943
loop_
_atom_site_label
_atom_site_type_symbol
_atom_site_fract_x
_atom_site_fract_y
_atom_site_fract_z
C1 C 0.9938(4) 0.2191(3) 1.1184(3)
Mo1 Mo 1.15954(3) 0.42679(2) 0.70544(2)
Zn1 Zn 0.79249(4) 0.27671(3) 0.84014(3)
Zn2 Zn 1.19050(5) 0.39329(3) 0.37759(3)
C2 C 0.8430(4) 0.0776(3) 1.0457(3)
C3 C 0.8164(4) -0.0515(3) 1.0954(3)
H1 H 0.8919 -0.0571 1.1791
C4 C 0.6747(4) -0.1725(3) 1.0177(3)
H2 H 0.6575 -0.2615 1.0471
C5 C 0.5588(4) -0.1596(3) 0.8958(3)
H3 H 0.4607 -0.2392 0.8438
C6 C 0.5912(4) -0.0264(3) 0.8524(3)
C7 C 0.4764(4) 0.0033(3) 0.7245(3)
C8 C 0.3123(4) -0.0973(3) 0.6418(3)
H4 H 0.2660 -0.1880 0.6645
C9 C 0.2182(4) -0.0591(3) 0.5238(3)
H5 H 0.1072 -0.1247 0.4665
C10 C 0.2890(4) 0.0752(3) 0.4919(3)
H6 H 0.2279 0.1008 0.4124
C11 C 0.4534(4) 0.1723(3) 0.5800(3)
C12 C 0.5389(4) 0.3209(3) 0.5483(3)
N1 N 0.7344(3) 0.0888(2) 0.9261(2)
N2 N 0.5442(3) 0.1368(2) 0.6953(2)
O1 O 1.3911(3) 0.4740(3) 0.8100(2)
O2 O 1.1497(3) 0.3470(2) 0.5478(2)
O3 O 1.0082(3) 0.2961(2) 0.7713(2)
O4 O 1.0864(3) 0.5799(2) 0.6909(2)
O5 O 1.0123(3) 0.3212(2) 1.0536(2)
O6 O 0.7183(3) 0.4288(2) 0.9210(2)
O7 O 0.6866(3) 0.4015(2) 0.6366(2)
O8 O 0.4640(3) 0.3514(2) 0.43786(19)
O9 O 1.0857(3) 0.2196(2) 1.2375(2)
H7 H 0.612(2) 0.427(4) 0.877(4)
H8 H 0.801(3) 0.507(2) 0.929(3)
Zn2A Zn 0.80950(5) 0.60671(3) 0.62241(3)
Zn2_2 Zn 0.19050(5) 0.39329(3) 0.37759(3)
Zn2_3 Zn 1.19050(5) 0.39329(3) 1.37759(3)
O4A O 0.9136(3) 0.4201(2) 0.3091(2)
O7A O 1.3134(3) 0.5985(2) 0.3634(2)
O8_2 O 1.4640(3) 0.3514(2) 0.43786(19)
O9_2 O 1.0857(3) 0.2196(2) 0.2375(2)
loop_
_geom_bond_atom_site_label_1
_geom_bond_atom_site_label_2
_geom_bond_site_symmetry_1
_geom_bond_site_symmetry_2
C1 C2 1_555 1_555
Mo1 O1 1_555 1_555
Zn1 N1 1_555 1_555
Zn2 O2 1_555 1_555
C2 C3 1_555 1_555
C3 H1 1_555 1_555
C4 C3 1_555 1_555
H2 C4 1_555 1_555
C5 C4 1_555 1_555
H3 C5 1_555 1_555
C6 C5 1_555 1_555
C7 C6 1_555 1_555
C8 C7 1_555 1_555
H4 C8 1_555 1_555
C9 C8 1_555 1_555
H5 C9 1_555 1_555
C10 C9 1_555 1_555
H6 C10 1_555 1_555
C11 C10 1_555 1_555
C12 C11 1_555 1_555
N1 C2 1_555 1_555
N2 Zn1 1_555 1_555
O2 Mo1 1_555 1_555
O3 Mo1 1_555 1_555
O4 Mo1 1_555 1_555
O5 C1 1_555 1_555
O6 Zn1 1_555 1_555
O7 C12 1_555 1_555
O8 C12 1_555 1_555
O9 C1 1_555 1_555
H7 O6 1_555 1_555
H8 O6 1_555 1_555
Zn2A O4 1_555 1_555
Zn2_2 O8 1_555 1_555
Zn2_3 O9 1_555 1_555
O4A Zn2 1_555 1_555
O7A Zn2 1_555 1_555
O8_2 Zn2 1_555 1_555
O9_2 Zn2 1_555 1_555
Zn1 O3 1_555 1_555
Zn1 O5 1_555 1_555
C6 N1 1_555 1_555
C7 N2 1_555 1_555
C11 N2 1_555 1_555
O7 Zn2A 1_555 1_555

#END
