
#######################################################################
#
#                 Cambridge Crystallographic Data Centre
#                                CCDC 
#
#######################################################################
#
# If this CIF has been generated from an entry in the Cambridge 
# Structural Database, then it will include bibliographic, chemical, 
# crystal, experimental, refinement or atomic coordinate data resulting 
# from the CCDC's data processing and validation procedures.
#
#######################################################################

data_HAJRIU01
_symmetry_cell_setting           orthorhombic
_symmetry_space_group_name_H-M   'P 21 21 21'
_symmetry_Int_Tables_number      19
_space_group_name_Hall           'P 2ac 2ab'
loop_
_symmetry_equiv_pos_site_id
_symmetry_equiv_pos_as_xyz
1 x,y,z
2 1/2-x,-y,1/2+z
3 -x,1/2+y,1/2-z
4 1/2+x,1/2-y,-z
_cell_length_a                   7.0880(10)
_cell_length_b                   8.767(2)
_cell_length_c                   15.147(3)
_cell_angle_alpha                90
_cell_angle_beta                 90
_cell_angle_gamma                90
_cell_volume                     941.242
loop_
_atom_site_label
_atom_site_type_symbol
_atom_site_fract_x
_atom_site_fract_y
_atom_site_fract_z
Cu1 Cu -0.01710(5) 0.01486(3) 0.169248(18)
O1 O -0.0101(3) 0.07435(18) 0.04704(11)
O2 O -0.0331(3) 0.22546(18) 0.20636(11)
O3 O 0.0879(3) 0.2083(2) -0.06437(13)
O4 O 0.0390(3) 0.46871(19) 0.20485(11)
C1 C 0.0476(4) 0.1988(3) 0.01545(16)
C2 C 0.0671(5) 0.3434(3) 0.07016(18)
H1 H 0.1967 0.3777 0.0644
H2 H -0.0115 0.4206 0.0427
C3 C 0.0211(3) 0.3426(2) 0.16622(16)
O5 O -0.3765(3) 0.0411(2) 0.14734(14)
O6 O -0.5186(6) -0.2332(4) 0.04254(18)
O7 O -0.6864(3) 0.0515(3) 0.16306(17)
O8 O -0.4778(5) -0.4248(3) 0.1383(2)
H3 H -0.4684 -0.4768 0.0935
C4 C -0.5400(4) -0.0183(3) 0.16808(16)
C5 C -0.5274(5) -0.1818(3) 0.19612(18)
C6 C -0.5087(5) -0.2817(3) 0.1164(2)
O9 O -0.0383(5) -0.1944(2) 0.12814(15)
H4 H -0.632(5) -0.216(4) 0.235(2)
H5 H -0.437(5) -0.191(4) 0.227(2)
H6 H -0.384(4) 0.121(4) 0.125(2)
H7 H -0.007(5) -0.261(4) 0.162(2)
H8 H -0.041(6) -0.210(5) 0.085(3)
O4B O -0.0390(3) -0.03129(19) 0.29515(11)
O7_2 O 0.3136(3) 0.0515(3) 0.16306(17)
Cu1B Cu 0.01710(5) 0.51486(3) 0.330752(18)
Cu1_2 Cu -1.01710(5) 0.01486(3) 0.169248(18)
loop_
_geom_bond_atom_site_label_1
_geom_bond_atom_site_label_2
_geom_bond_site_symmetry_1
_geom_bond_site_symmetry_2
Cu1 O1 1_555 1_555
O1 C1 1_555 1_555
O2 Cu1 1_555 1_555
O3 C1 1_555 1_555
O4 C3 1_555 1_555
C1 C2 1_555 1_555
C2 H1 1_555 1_555
H2 C2 1_555 1_555
C3 O2 1_555 1_555
O5 Cu1 1_555 1_555
O6 C6 1_555 1_555
O7 C4 1_555 1_555
O8 H3 1_555 1_555
C4 O5 1_555 1_555
C5 C4 1_555 1_555
C6 O8 1_555 1_555
O9 Cu1 1_555 1_555
H4 C5 1_555 1_555
H5 C5 1_555 1_555
H6 O5 1_555 1_555
H7 O9 1_555 1_555
H8 O9 1_555 1_555
O4B Cu1 1_555 1_555
O7_2 Cu1 1_555 1_555
Cu1B O4 1_555 1_555
Cu1_2 O7 1_555 1_555
C2 C3 1_555 1_555
C5 C6 1_555 1_555

#END
