
#######################################################################
#
#                 Cambridge Crystallographic Data Centre
#                                CCDC 
#
#######################################################################
#
# If this CIF has been generated from an entry in the Cambridge 
# Structural Database, then it will include bibliographic, chemical, 
# crystal, experimental, refinement or atomic coordinate data resulting 
# from the CCDC's data processing and validation procedures.
#
#######################################################################

data_HAJXEV
_symmetry_cell_setting           orthorhombic
_symmetry_space_group_name_H-M   'P c 2 m'
_symmetry_Int_Tables_number      28
_space_group_name_Hall           'P -2c -2c'
loop_
_symmetry_equiv_pos_site_id
_symmetry_equiv_pos_as_xyz
1 x,y,z
2 x,y,1/2-z
3 -x,y,1/2+z
4 -x,y,-z
_cell_length_a                   3.805(1)
_cell_length_b                   6.915(1)
_cell_length_c                   11.851(2)
_cell_angle_alpha                90
_cell_angle_beta                 90
_cell_angle_gamma                90
_cell_volume                     311.818
loop_
_atom_site_label
_atom_site_type_symbol
_atom_site_fract_x
_atom_site_fract_y
_atom_site_fract_z
Br1 Br 0.0000 -0.0989 0.0000
Cu1 Cu 0.5000 -0.3440(2) 0.0000
C1 C 0.5102(26) -0.4010(12) -0.2500
N1 N 0.4491(13) -0.4865(7) -0.1486(4)
C2 C 0.3209(18) -0.6661(9) -0.1524(6)
C3 C 0.2491(27) -0.7619(11) -0.2500
N2 N 0.6415(29) -0.2260(14) -0.2500
Cu1_2 Cu -0.5000 -0.3440(2) 0.0000
N1C N 0.5509(13) -0.4865(7) 0.1486(4)
Br1_2 Br 1.0000 -0.0989 0.0000
N1A N 0.4491(13) -0.4865(7) -0.3514(4)
C2A C 0.3209(18) -0.6661(9) -0.3476(6)
Cu1A Cu 0.5000 -0.3440(2) -0.5000
loop_
_geom_bond_atom_site_label_1
_geom_bond_atom_site_label_2
_geom_bond_site_symmetry_1
_geom_bond_site_symmetry_2
Br1 Cu1 1_555 1_555
Cu1 N1 1_555 1_555
C1 N1 1_555 1_555
N1 C2 1_555 1_555
C2 C3 1_555 1_555
C3 C2A 1_555 1_555
N2 C1 1_555 1_555
Cu1_2 Br1 1_555 1_555
N1C Cu1 1_555 1_555
Br1_2 Cu1 1_555 1_555
N1A C1 1_555 1_555
C2A N1A 1_555 1_555
Cu1A N1A 1_555 1_555

#END
