
#######################################################################
#
#                 Cambridge Crystallographic Data Centre
#                                CCDC 
#
#######################################################################
#
# If this CIF has been generated from an entry in the Cambridge 
# Structural Database, then it will include bibliographic, chemical, 
# crystal, experimental, refinement or atomic coordinate data resulting 
# from the CCDC's data processing and validation procedures.
#
#######################################################################

data_HAJZOJ
_symmetry_cell_setting           triclinic
_symmetry_space_group_name_H-M   'P -1'
_symmetry_Int_Tables_number      2
_space_group_name_Hall           '-P 1'
loop_
_symmetry_equiv_pos_site_id
_symmetry_equiv_pos_as_xyz
1 x,y,z
2 -x,-y,-z
_cell_length_a                   9.4782(2)
_cell_length_b                   13.8067(4)
_cell_length_c                   14.8094(5)
_cell_angle_alpha                90.635(2)
_cell_angle_beta                 93.462(2)
_cell_angle_gamma                93.506(2)
_cell_volume                     1930.63
loop_
_atom_site_label
_atom_site_type_symbol
_atom_site_fract_x
_atom_site_fract_y
_atom_site_fract_z
Zn1 Zn 1.20005(5) 0.73803(4) -0.35113(4)
N1 N 0.7492(3) 0.7780(3) -0.7175(2)
H1 H 0.6849 0.7870 -0.7596
H2 H 0.8351 0.7715 -0.7311
O1 O 0.8825(3) 0.7508(3) -0.3204(2)
O2 O 1.0291(3) 0.7325(3) -0.4294(2)
O3 O 0.3712(3) 0.7496(4) -0.4132(3)
C1 C 0.7905(4) 0.7543(3) -0.4740(3)
C2 C 0.7153(5) 0.7740(4) -0.6306(3)
C3 C 0.6514(4) 0.7599(4) -0.4512(3)
H3 H 0.6292 0.7537 -0.3911
C4 C 0.5458(5) 0.7748(4) -0.5168(3)
O4 O 0.3027(4) 0.7995(4) -0.5464(3)
N2 N 1.2141(4) 0.6199(3) -0.2738(3)
C5 C 0.5786(5) 0.7841(4) -0.6065(3)
H4 H 0.5083 0.7971 -0.6505
N3 N 1.2665(6) 0.5358(4) -0.1530(4)
C6 C 0.8217(5) 0.7585(4) -0.5641(3)
H5 H 0.9137 0.7510 -0.5803
C7 C 0.3942(5) 0.7771(4) -0.4912(4)
C8 C 0.9074(5) 0.7447(4) -0.4014(3)
C9 C 1.1986(11) 0.4753(6) -0.2121(6)
H6 H 1.1787 0.4091 -0.2050
C10 C 1.3168(7) 0.5181(5) -0.0577(4)
H7 H 1.2944 0.5722 -0.0198
H8 H 1.2671 0.4600 -0.0365
C11 C 1.1637(11) 0.5282(6) -0.2844(6)
H9 H 1.1110 0.5038 -0.3356
C12 C 1.4703(7) 0.5065(5) -0.0486(4)
H10 H 1.5188 0.5631 -0.0735
H11 H 1.4911 0.4505 -0.0844
C13 C 1.2710(8) 0.6208(5) -0.1913(5)
H12 H 1.3112 0.6768 -0.1623
N4 N 1.2277(4) 0.8493(3) -0.2613(3)
N5 N 1.2148(5) 0.9355(3) -0.1369(3)
C14 C 1.1718(6) 0.8543(4) -0.1825(4)
H13 H 1.1093 0.8067 -0.1611
C15 C 1.1735(6) 0.9621(5) -0.0465(4)
H14 H 1.2351 1.0164 -0.0229
H15 H 1.1859 0.9079 -0.0064
C16 C 1.3134(6) 0.9320(4) -0.2658(4)
H16 H 1.3685 0.9489 -0.3137
C17 C 1.3053(6) 0.9854(5) -0.1899(5)
H17 H 1.3528 1.0452 -0.1763
C18 C 1.0228(6) 0.9893(4) -0.0475(3)
H18 H 0.9616 0.9366 -0.0746
H19 H 1.0118 1.0462 -0.0845
Zn1_2 Zn 2.20005(5) 0.73803(4) -0.35113(4)
Zn1_3 Zn 0.20005(5) 0.73803(4) -0.35113(4)
Zn1A Zn 1.79995(5) 0.26197(4) 0.35113(4)
Zn1A_2 Zn 0.79995(5) 1.26197(4) 0.35113(4)
N1_2 N 1.7492(3) 0.7780(3) -0.7175(2)
H1_2 H 1.6849 0.7870 -0.7596
H2_2 H 1.8351 0.7715 -0.7311
O1_2 O 1.8825(3) 0.7508(3) -0.3204(2)
O2_2 O 2.0291(3) 0.7325(3) -0.4294(2)
O3_2 O 1.3712(3) 0.7496(4) -0.4132(3)
O3_3 O 2.3712(3) 0.7496(4) -0.4132(3)
C1_2 C 1.7905(4) 0.7543(3) -0.4740(3)
C2_2 C 1.7153(5) 0.7740(4) -0.6306(3)
C3_2 C 1.6514(4) 0.7599(4) -0.4512(3)
H3_2 H 1.6292 0.7537 -0.3911
C4_2 C 1.5458(5) 0.7748(4) -0.5168(3)
O4_2 O 1.3027(4) 0.7995(4) -0.5464(3)
N2A N 1.7859(4) 0.3801(3) 0.2738(3)
N2_2 N 2.2141(4) 0.6199(3) -0.2738(3)
C5_2 C 1.5786(5) 0.7841(4) -0.6065(3)
H4_2 H 1.5083 0.7971 -0.6505
N3A N 1.7335(6) 0.4642(4) 0.1530(4)
C6_2 C 1.8217(5) 0.7585(4) -0.5641(3)
H5_2 H 1.9137 0.7510 -0.5803
C7_2 C 1.3942(5) 0.7771(4) -0.4912(4)
C8_2 C 1.9074(5) 0.7447(4) -0.4014(3)
C9A C 1.8014(11) 0.5247(6) 0.2121(6)
H6A H 1.8213 0.5909 0.2050
C10A C 1.6832(7) 0.4819(5) 0.0577(4)
H7A H 1.7056 0.4278 0.0198
H8A H 1.7329 0.5400 0.0365
C11A C 1.8363(11) 0.4718(6) 0.2844(6)
H9A H 1.8890 0.4962 0.3356
C12A C 1.5297(7) 0.4935(5) 0.0486(4)
H10A H 1.4812 0.4369 0.0735
H11A H 1.5089 0.5495 0.0844
C13A C 1.7290(8) 0.3792(5) 0.1913(5)
H12A H 1.6888 0.3232 0.1623
N4A N 0.7723(4) 1.1507(3) 0.2613(3)
N4_2 N 2.2277(4) 0.8493(3) -0.2613(3)
N5A N 0.7852(5) 1.0645(3) 0.1369(3)
C14A C 0.8282(6) 1.1457(4) 0.1825(4)
H13A H 0.8907 1.1933 0.1611
C15A C 0.8265(6) 1.0379(5) 0.0465(4)
H14A H 0.7649 0.9836 0.0229
H15A H 0.8141 1.0921 0.0064
C16A C 0.6866(6) 1.0680(4) 0.2658(4)
H16A H 0.6315 1.0511 0.3137
C17A C 0.6947(6) 1.0146(5) 0.1899(5)
H17A H 0.6472 0.9548 0.1763
C18A C 0.9772(6) 1.0107(4) 0.0475(3)
H18A H 1.0384 1.0634 0.0746
H19A H 0.9882 0.9538 0.0845
Zn2 Zn 1.22454(5) 0.73956(4) 0.13984(4)
O5 O 1.5253(3) 0.7835(3) 0.1653(2)
N6 N 1.6424(4) 0.7733(3) -0.2262(2)
H20 H 1.7048 0.7643 -0.2648
H21 H 1.5587 0.7880 -0.2446
O6 O 1.3660(3) 0.7635(3) 0.0500(2)
N7 N 1.1134(4) 0.9540(3) 0.3117(3)
O7 O 2.0243(4) 0.7254(3) 0.0988(3)
C19 C 1.8441(4) 0.7352(3) -0.0141(3)
C20 C 1.7430(4) 0.7507(3) 0.0474(3)
H22 H 1.7665 0.7485 0.1092
C21 C 1.8091(5) 0.7408(4) -0.1058(3)
H23 H 1.8764 0.7285 -0.1469
C22 C 1.6065(5) 0.7693(3) 0.0162(3)
N8 N 1.2115(4) 0.8555(3) 0.2199(3)
O8 O 2.0761(4) 0.6913(4) -0.0379(3)
C23 C 1.5732(5) 0.7775(4) -0.0757(3)
H24 H 1.4823 0.7919 -0.0962
C24 C 1.1048(5) 0.8731(4) 0.2653(3)
H25 H 1.0253 0.8301 0.2652
C25 C 1.4927(5) 0.7736(4) 0.0827(3)
C26 C 1.6758(5) 0.7643(4) -0.1369(3)
C27 C 1.0572(6) 0.9829(4) 0.4701(4)
H26 H 1.1445 1.0223 0.4830
H27 H 1.0751 0.9160 0.4836
C28 C 1.0102(6) 0.9909(4) 0.3716(4)
H28 H 0.9199 0.9546 0.3600
H29 H 0.9967 1.0584 0.3580
C29 C 1.2426(7) 0.9950(5) 0.2954(5)
H30 H 1.2829 1.0537 0.3190
C30 C 1.9935(5) 0.7156(4) 0.0173(4)
C31 C 1.3015(6) 0.9350(5) 0.2387(4)
H31 H 1.3902 0.9459 0.2158
N9 N 1.2551(6) 0.6211(4) 0.2120(3)
C32 C 1.2119(9) 0.5287(5) 0.2010(5)
H32 H 1.1588 0.5047 0.1498
C33 C 1.2735(11) 0.6307(7) 0.3071(7)
C34 C 1.2518(12) 0.4726(6) 0.2705(6)
C35 C 1.4584(11) 0.5094(5) 0.4559(5)
N10 N 1.2796(13) 0.5426(7) 0.3427(6)
C36 C 1.3174(17) 0.5217(10) 0.4380(8)
Zn2_2 Zn 0.22454(5) 0.73956(4) 0.13984(4)
Zn2_3 Zn 2.22454(5) 0.73956(4) 0.13984(4)
Zn2A Zn 0.77546(5) 1.26044(4) 0.86016(4)
Zn2A_2 Zn 1.77546(5) 0.26044(4) 0.86016(4)
O5_2 O 0.5253(3) 0.7835(3) 0.1653(2)
N6_2 N 0.6424(4) 0.7733(3) -0.2262(2)
H20_2 H 0.7048 0.7643 -0.2648
H21_2 H 0.5587 0.7880 -0.2446
O6_2 O 0.3660(3) 0.7635(3) 0.0500(2)
N7A N 0.8866(4) 1.0460(3) 0.6883(3)
O7_2 O 1.0243(4) 0.7254(3) 0.0988(3)
O7_3 O 0.0243(4) 0.7254(3) 0.0988(3)
C19_2 C 0.8441(4) 0.7352(3) -0.0141(3)
C20_2 C 0.7430(4) 0.7507(3) 0.0474(3)
H22_2 H 0.7665 0.7485 0.1092
C21_2 C 0.8091(5) 0.7408(4) -0.1058(3)
H23_2 H 0.8764 0.7285 -0.1469
C22_2 C 0.6065(5) 0.7693(3) 0.0162(3)
N8A N 0.7885(4) 1.1445(3) 0.7801(3)
N8_2 N 0.2115(4) 0.8555(3) 0.2199(3)
O8_2 O 1.0761(4) 0.6913(4) -0.0379(3)
C23_2 C 0.5732(5) 0.7775(4) -0.0757(3)
H24_2 H 0.4823 0.7919 -0.0962
C24A C 0.8952(5) 1.1269(4) 0.7347(3)
H25A H 0.9747 1.1699 0.7348
C25_2 C 0.4927(5) 0.7736(4) 0.0827(3)
C26_2 C 0.6758(5) 0.7643(4) -0.1369(3)
C27A C 0.9428(6) 1.0171(4) 0.5299(4)
H26A H 0.8555 0.9777 0.5170
H27A H 0.9249 1.0840 0.5164
C28A C 0.9898(6) 1.0091(4) 0.6284(4)
H28A H 1.0801 1.0454 0.6400
H29A H 1.0033 0.9416 0.6420
C29A C 0.7574(7) 1.0050(5) 0.7046(5)
H30A H 0.7171 0.9463 0.6810
C30_2 C 0.9935(5) 0.7156(4) 0.0173(4)
C31A C 0.6985(6) 1.0650(5) 0.7613(4)
H31A H 0.6098 1.0541 0.7842
N9A N 1.7449(6) 0.3789(4) 0.7880(3)
N9_2 N 0.2551(6) 0.6211(4) 0.2120(3)
C32A C 1.7881(9) 0.4713(5) 0.7990(5)
H32A H 1.8412 0.4953 0.8502
C33A C 1.7265(11) 0.3693(7) 0.6929(7)
C34A C 1.7482(12) 0.5274(6) 0.7295(6)
C35A C 1.5416(11) 0.4906(5) 0.5441(5)
N10A N 1.7204(13) 0.4574(7) 0.6573(6)
C36A C 1.6826(17) 0.4783(10) 0.5620(8)
C37? C 1.3852(17) 0.6086(9) 0.2617(9)
C38? C 1.4878(16) 0.4876(12) 0.3742(11)
N11? N 1.3773(14) 0.5202(9) 0.2999(8)
loop_
_geom_bond_atom_site_label_1
_geom_bond_atom_site_label_2
_geom_bond_site_symmetry_1
_geom_bond_site_symmetry_2
Zn1 O2 1_555 1_555
N1 H1 1_555 1_555
H2 N1 1_555 1_555
O1 C8 1_555 1_555
O2 C8 1_555 1_555
O3 C7 1_555 1_555
C1 C3 1_555 1_555
C2 N1 1_555 1_555
C3 H3 1_555 1_555
C4 C3 1_555 1_555
O4 C7 1_555 1_555
N2 Zn1 1_555 1_555
C5 C2 1_555 1_555
H4 C5 1_555 1_555
N3 C9 1_555 1_555
C6 C1 1_555 1_555
H5 C6 1_555 1_555
C7 C4 1_555 1_555
C8 C1 1_555 1_555
C9 H6 1_555 1_555
C10 N3 1_555 1_555
H7 C10 1_555 1_555
H8 C10 1_555 1_555
C11 N2 1_555 1_555
H9 C11 1_555 1_555
C12 C10 1_555 1_555
H10 C12 1_555 1_555
H11 C12 1_555 1_555
C13 N2 1_555 1_555
H12 C13 1_555 1_555
N4 Zn1 1_555 1_555
N5 C14 1_555 1_555
C14 N4 1_555 1_555
H13 C14 1_555 1_555
C15 N5 1_555 1_555
H14 C15 1_555 1_555
H15 C15 1_555 1_555
C16 N4 1_555 1_555
H16 C16 1_555 1_555
C17 N5 1_555 1_555
H17 C17 1_555 1_555
C18 C15 1_555 1_555
H18 C18 1_555 1_555
H19 C18 1_555 1_555
Zn2 O6 1_555 1_555
O5 C25 1_555 1_555
N6 H20 1_555 1_555
H21 N6 1_555 1_555
O6 C25 1_555 1_555
N7 C24 1_555 1_555
O7 C30 1_555 1_555
C19 C20 1_555 1_555
C20 H22 1_555 1_555
C21 C19 1_555 1_555
H23 C21 1_555 1_555
C22 C20 1_555 1_555
N8 Zn2 1_555 1_555
O8 C30 1_555 1_555
C23 C22 1_555 1_555
H24 C23 1_555 1_555
C24 N8 1_555 1_555
H25 C24 1_555 1_555
C25 C22 1_555 1_555
C26 N6 1_555 1_555
C27 H26 1_555 1_555
H27 C27 1_555 1_555
C28 N7 1_555 1_555
H28 C28 1_555 1_555
H29 C28 1_555 1_555
C29 N7 1_555 1_555
H30 C29 1_555 1_555
C30 C19 1_555 1_555
C31 N8 1_555 1_555
H31 C31 1_555 1_555
N9 Zn2 1_555 1_555
C32 N9 1_555 1_555
H32 C32 1_555 1_555
C33 N9 1_555 1_555
C34 C32 1_555 1_555
C35 C36 1_555 1_555
N10 C33 1_555 1_555
C36 N10 1_555 1_555
Zn1_2 O2_2 1_555 1_555
Zn1_3 O3 1_555 1_555
Zn1A N2A 1_555 1_555
Zn1A_2 N4A 1_555 1_555
N1_2 H1_2 1_555 1_555
H2_2 N1_2 1_555 1_555
O1_2 C8_2 1_555 1_555
O2_2 C8_2 1_555 1_555
O3_2 Zn1 1_555 1_555
O3_3 Zn1_2 1_555 1_555
C1_2 C3_2 1_555 1_555
C2_2 N1_2 1_555 1_555
C3_2 H3_2 1_555 1_555
C4_2 C3_2 1_555 1_555
O4_2 C7_2 1_555 1_555
N2A C11A 1_555 1_555
N2_2 Zn1_2 1_555 1_555
C5_2 C2_2 1_555 1_555
H4_2 C5_2 1_555 1_555
N3A C9A 1_555 1_555
C6_2 C1_2 1_555 1_555
H5_2 C6_2 1_555 1_555
C7_2 O3_2 1_555 1_555
C8_2 C1_2 1_555 1_555
C9A H6A 1_555 1_555
C10A N3A 1_555 1_555
H7A C10A 1_555 1_555
H8A C10A 1_555 1_555
C11A C9A 1_555 1_555
H9A C11A 1_555 1_555
C12A C12 1_555 1_555
H10A C12A 1_555 1_555
H11A C12A 1_555 1_555
C13A N2A 1_555 1_555
H12A C13A 1_555 1_555
N4A C14A 1_555 1_555
N4_2 Zn1_2 1_555 1_555
N5A C14A 1_555 1_555
C14A H13A 1_555 1_555
C15A N5A 1_555 1_555
H14A C15A 1_555 1_555
H15A C15A 1_555 1_555
C16A N4A 1_555 1_555
H16A C16A 1_555 1_555
C17A N5A 1_555 1_555
H17A C17A 1_555 1_555
C18A C18 1_555 1_555
H18A C18A 1_555 1_555
H19A C18A 1_555 1_555
Zn2_2 O6_2 1_555 1_555
Zn2_3 O7 1_555 1_555
Zn2A N8A 1_555 1_555
Zn2A_2 N9A 1_555 1_555
O5_2 C25_2 1_555 1_555
N6_2 H20_2 1_555 1_555
H21_2 N6_2 1_555 1_555
O6_2 C25_2 1_555 1_555
N7A C24A 1_555 1_555
O7_2 Zn2 1_555 1_555
O7_3 Zn2_2 1_555 1_555
C19_2 C20_2 1_555 1_555
C20_2 H22_2 1_555 1_555
C21_2 C19_2 1_555 1_555
H23_2 C21_2 1_555 1_555
C22_2 C20_2 1_555 1_555
N8A C24A 1_555 1_555
N8_2 Zn2_2 1_555 1_555
O8_2 C30_2 1_555 1_555
C23_2 C22_2 1_555 1_555
H24_2 C23_2 1_555 1_555
C24A H25A 1_555 1_555
C25_2 C22_2 1_555 1_555
C26_2 N6_2 1_555 1_555
C27A C27 1_555 1_555
H26A C27A 1_555 1_555
H27A C27A 1_555 1_555
C28A N7A 1_555 1_555
H28A C28A 1_555 1_555
H29A C28A 1_555 1_555
C29A N7A 1_555 1_555
H30A C29A 1_555 1_555
C30_2 O7_2 1_555 1_555
C31A N8A 1_555 1_555
H31A C31A 1_555 1_555
N9A C32A 1_555 1_555
N9_2 Zn2_2 1_555 1_555
C32A H32A 1_555 1_555
C33A N9A 1_555 1_555
C34A C32A 1_555 1_555
C35A C35 1_555 1_555
N10A C33A 1_555 1_555
C36A C35A 1_555 1_555
C2 C6 1_555 1_555
C4 C5 1_555 1_555
N3 C13 1_555 1_555
C9 C11 1_555 1_555
C16 C17 1_555 1_555
C21 C26 1_555 1_555
C23 C26 1_555 1_555
C27 C28 1_555 1_555
C29 C31 1_555 1_555
C34 N10 1_555 1_555
C2_2 C6_2 1_555 1_555
C4_2 C5_2 1_555 1_555
C4_2 C7_2 1_555 1_555
N3A C13A 1_555 1_555
C10A C12A 1_555 1_555
C15A C18A 1_555 1_555
C16A C17A 1_555 1_555
C19_2 C30_2 1_555 1_555
C21_2 C26_2 1_555 1_555
C23_2 C26_2 1_555 1_555
C27A C28A 1_555 1_555
C29A C31A 1_555 1_555
C34A N10A 1_555 1_555
N10A C36A 1_555 1_555

#END
