
#######################################################################
#
#                 Cambridge Crystallographic Data Centre
#                                CCDC 
#
#######################################################################
#
# If this CIF has been generated from an entry in the Cambridge 
# Structural Database, then it will include bibliographic, chemical, 
# crystal, experimental, refinement or atomic coordinate data resulting 
# from the CCDC's data processing and validation procedures.
#
#######################################################################

data_HAKBUQ
_symmetry_cell_setting           orthorhombic
_symmetry_space_group_name_H-M   'P n m a'
_symmetry_Int_Tables_number      62
_space_group_name_Hall           '-P 2ac 2n'
loop_
_symmetry_equiv_pos_site_id
_symmetry_equiv_pos_as_xyz
1 x,y,z
2 1/2-x,-y,1/2+z
3 1/2+x,1/2-y,1/2-z
4 -x,1/2+y,-z
5 -x,-y,-z
6 1/2+x,y,1/2-z
7 1/2-x,1/2+y,1/2+z
8 x,1/2-y,z
_cell_length_a                   14.518(2)
_cell_length_b                   14.014(4)
_cell_length_c                   3.949(1)
_cell_angle_alpha                90
_cell_angle_beta                 90
_cell_angle_gamma                90
_cell_volume                     803.445
loop_
_atom_site_label
_atom_site_type_symbol
_atom_site_fract_x
_atom_site_fract_y
_atom_site_fract_z
Br1 Br 0.3614(1) 0.0535(1) 0.5998(5)
Cu1 Cu 0.1929(3) 0.0373(2) 0.6196(10)
N1 N 0.3730(9) -0.1641(11) 0.0949(43)
N2 N 0.2651(14) -0.2500 0.3591(81)
C1 C 0.3323(14) -0.2500 0.1789(62)
C2 C 0.5010(18) -0.2500 -0.1754(78)
C3 C 0.4554(13) -0.3341(14) -0.0889(58)
Cu1A Cu 0.3071(3) -0.0373(2) 1.1196(10)
Br1A Br 0.1386(1) -0.0535(1) 1.0998(5)
Br1A_2 Br 0.1386(1) -0.0535(1) 0.0998(5)
Cu1A_2 Cu 0.3071(3) -0.0373(2) 0.1196(10)
Cu1_2 Cu 0.1929(3) 0.0373(2) -0.3804(10)
Br1_2 Br 0.3614(1) 0.0535(1) -0.4002(5)
N1G N 0.3730(9) -0.3359(11) 0.0949(43)
Cu1F Cu 0.3071(3) -0.4627(2) 0.1196(10)
C3G C 0.4554(13) -0.1659(14) -0.0889(58)
N1_2 N 0.3730(9) -0.1641(11) 1.0949(43)
N1A N 0.1270(9) 0.1641(11) 0.5949(43)
loop_
_geom_bond_atom_site_label_1
_geom_bond_atom_site_label_2
_geom_bond_site_symmetry_1
_geom_bond_site_symmetry_2
Br1 Cu1 1_555 1_555
Cu1 Br1A 1_555 1_555
N1 C1 1_555 1_555
N2 C1 1_555 1_555
C1 N1G 1_555 1_555
C2 C3 1_555 1_555
C3 N1G 1_555 1_555
Cu1A Br1 1_555 1_555
Br1A Cu1A 1_555 1_555
Br1A_2 Cu1 1_555 1_555
Cu1A_2 Br1 1_555 1_555
Cu1_2 Br1A_2 1_555 1_555
Br1_2 Cu1A_2 1_555 1_555
N1G Cu1F 1_555 1_555
C3G N1 1_555 1_555
N1_2 Cu1A 1_555 1_555
N1A Cu1 1_555 1_555
N1 Cu1A_2 1_555 1_555
C2 C3G 1_555 1_555
Br1A_2 Cu1A_2 1_555 1_555
Cu1_2 Br1_2 1_555 1_555

#END
