
#######################################################################
#
#                 Cambridge Crystallographic Data Centre
#                                CCDC 
#
#######################################################################
#
# If this CIF has been generated from an entry in the Cambridge 
# Structural Database, then it will include bibliographic, chemical, 
# crystal, experimental, refinement or atomic coordinate data resulting 
# from the CCDC's data processing and validation procedures.
#
#######################################################################

data_HAKDUU
_symmetry_cell_setting           triclinic
_symmetry_space_group_name_H-M   'P -1'
_symmetry_Int_Tables_number      2
_space_group_name_Hall           '-P 1'
loop_
_symmetry_equiv_pos_site_id
_symmetry_equiv_pos_as_xyz
1 x,y,z
2 -x,-y,-z
_cell_length_a                   10.1918(8)
_cell_length_b                   11.6258(9)
_cell_length_c                   22.3500(19)
_cell_angle_alpha                84.796(2)
_cell_angle_beta                 83.948(2)
_cell_angle_gamma                84.632(2)
_cell_volume                     2613.14
loop_
_atom_site_label
_atom_site_type_symbol
_atom_site_fract_x
_atom_site_fract_y
_atom_site_fract_z
Cu1 Cu 0.48614(7) 1.01431(6) 0.25532(3)
F1 F 0.2282(3) 0.4343(3) 0.20383(17)
F2 F -0.0466(4) 0.6325(3) 0.3503(2)
F3 F 0.0189(4) 0.4025(3) 0.14782(18)
F4 F -0.2585(4) 0.6045(3) 0.2931(3)
F5 F 0.7671(3) 1.1108(4) 0.53971(16)
F6 F 0.9917(4) 1.2105(3) 0.54319(18)
F7 F 0.2599(3) 0.9840(3) -0.04032(16)
F8 F 0.1058(4) 0.8281(3) -0.06859(16)
O1 O 0.2950(4) 1.1056(4) 0.32482(19)
O2 O 0.3156(10) 1.2588(6) 0.3630(3)
O3 O 0.1602(7) 1.2503(5) 0.3046(4)
O8 O 0.6652(4) 0.9181(3) 0.20171(17)
H1 H 0.6517 0.8479 0.2014
H2 H 0.7304 0.9548 0.1862
N1 N 0.3893(4) 0.8677(4) 0.27319(19)
N2 N -0.4306(4) 0.1670(4) 0.24014(19)
N3 N 0.5764(4) 0.9756(4) 0.33247(19)
N4 N 0.3867(4) 1.0568(3) 0.1818(2)
N6 N 0.2403(8) 1.2009(5) 0.3348(3)
C1 C 0.3313(5) 0.8391(5) 0.3277(3)
H4 H 0.3291 0.8920 0.3579
C2 C 0.3884(5) 0.7930(5) 0.2308(3)
H5 H 0.4275 0.8129 0.1912
C3 C 0.2736(6) 0.7350(5) 0.3428(3)
H6 H 0.2346 0.7174 0.3827
C4 C 0.3329(5) 0.6885(5) 0.2424(3)
H7 H 0.3356 0.6374 0.2114
C5 C 0.2733(6) 0.6582(5) 0.2997(3)
C6 C 0.2151(6) 0.5435(5) 0.3141(3)
H8 H 0.1865 0.5338 0.3578
H9 H 0.2843 0.4804 0.3046
C7 C 0.0961(6) 0.5331(5) 0.2784(3)
C8 C 0.1083(6) 0.4765(5) 0.2268(3)
C9 C -0.0289(7) 0.5755(5) 0.2990(4)
C10 C -0.0004(7) 0.4616(5) 0.1985(3)
C11 C -0.1369(7) 0.5610(5) 0.2701(4)
C12 C -0.1275(6) 0.5020(5) 0.2199(4)
C13 C -0.2466(7) 0.4846(6) 0.1876(4)
H10 H -0.2189 0.4851 0.1438
H11 H -0.3136 0.5510 0.1937
C14 C -0.3108(6) 0.3730(5) 0.2083(3)
C15 C -0.2371(6) 0.2689(5) 0.2221(3)
H12 H -0.1435 0.2667 0.2209
C16 C -0.4458(6) 0.3705(5) 0.2114(3)
H13 H -0.5000 0.4397 0.2026
C17 C -0.2995(6) 0.1696(5) 0.2375(3)
H14 H -0.2472 0.0995 0.2467
C18 C -0.5024(5) 0.2685(5) 0.2270(2)
H15 H -0.5959 0.2688 0.2288
C19 C 0.5669(5) 1.0503(5) 0.3752(3)
H16 H 0.5208 1.1243 0.3681
C20 C 0.6424(5) 0.8716(5) 0.3442(3)
H17 H 0.6503 0.8172 0.3145
C21 C 0.6219(6) 1.0237(6) 0.4294(3)
H18 H 0.6120 1.0790 0.4587
C22 C 0.6987(6) 0.8405(5) 0.3969(3)
H19 H 0.7434 0.7656 0.4032
C23 C 0.6908(5) 0.9178(6) 0.4411(3)
C24 C 0.7542(6) 0.8879(6) 0.4995(3)
H20 H 0.6910 0.9118 0.5338
H21 H 0.7747 0.8029 0.5053
C25 C 0.8796(6) 0.9473(6) 0.4992(2)
C26 C 0.8820(6) 1.0538(6) 0.5196(3)
C27 C 0.9982(7) 1.1048(6) 0.5207(3)
C28 C 0.4490(5) 1.0697(5) 0.1266(3)
H22 H 0.5424 1.0534 0.1215
C29 C 0.2552(5) 1.0789(4) 0.1886(3)
H23 H 0.2102 1.0689 0.2279
C30 C 0.3826(6) 1.1062(5) 0.0763(3)
H24 H 0.4301 1.1149 0.0375
C31 C 0.1830(6) 1.1155(5) 0.1412(3)
H25 H 0.0896 1.1309 0.1479
C32 C 0.2459(6) 1.1300(5) 0.0832(3)
C33 C 0.1711(6) 1.1731(5) 0.0299(3)
H26 H 0.2348 1.1906 -0.0056
H27 H 0.1168 1.2459 0.0388
C34 C 0.0807(6) 1.0837(5) 0.0149(3)
C35 C 0.1300(6) 0.9944(5) -0.0201(3)
C36 C 0.0503(6) 0.9130(5) -0.0342(3)
Cu1_2 Cu 1.48614(7) 2.01431(6) 0.25532(3)
Cu1_3 Cu -0.51386(7) 0.01431(6) 0.25532(3)
Cu1A Cu 1.51386(7) 0.98569(6) 0.74468(3)
Cu1A_2 Cu -0.48614(7) 0.98569(6) -0.25532(3)
F1_2 F 1.2282(3) 1.4343(3) 0.20383(17)
F2_2 F 0.9534(4) 1.6325(3) 0.3503(2)
F3_2 F 1.0189(4) 1.4025(3) 0.14782(18)
F4_2 F 0.7415(4) 1.6045(3) 0.2931(3)
F5A F 1.2329(3) 0.8892(4) 0.46029(16)
F6A F 1.0083(4) 0.7895(3) 0.45681(18)
F7A F -0.2599(3) 1.0160(3) 0.04032(16)
F8A F -0.1058(4) 1.1719(3) 0.06859(16)
O1_2 O 1.2950(4) 2.1056(4) 0.32482(19)
O2_2 O 1.3156(10) 2.2588(6) 0.3630(3)
O3_2 O 1.1602(7) 2.2503(5) 0.3046(4)
O8_2 O 1.6652(4) 1.9181(3) 0.20171(17)
H1_2 H 1.6517 1.8479 0.2014
H2_2 H 1.7304 1.9548 0.1862
N1_2 N 1.3893(4) 1.8677(4) 0.27319(19)
N2_2 N 0.5694(4) 1.1670(4) 0.24014(19)
N2_3 N 1.5694(4) 2.1670(4) 0.24014(19)
N3A N 1.4236(4) 1.0244(4) 0.66753(19)
N3_2 N 1.5764(4) 1.9756(4) 0.33247(19)
N4A N -0.3867(4) 0.9432(3) -0.1818(2)
N4_2 N 1.3867(4) 2.0568(3) 0.1818(2)
N6_2 N 1.2403(8) 2.2009(5) 0.3348(3)
C1_2 C 1.3313(5) 1.8391(5) 0.3277(3)
H4_2 H 1.3291 1.8920 0.3579
C2_2 C 1.3884(5) 1.7930(5) 0.2308(3)
H5_2 H 1.4275 1.8129 0.1912
C3_2 C 1.2736(6) 1.7350(5) 0.3428(3)
H6_2 H 1.2346 1.7174 0.3827
C4_2 C 1.3329(5) 1.6885(5) 0.2424(3)
H7_2 H 1.3356 1.6374 0.2114
C5_2 C 1.2733(6) 1.6582(5) 0.2997(3)
C6_2 C 1.2151(6) 1.5435(5) 0.3141(3)
H8_2 H 1.1865 1.5338 0.3578
H9_2 H 1.2843 1.4804 0.3046
C7_2 C 1.0961(6) 1.5331(5) 0.2784(3)
C8_2 C 1.1083(6) 1.4765(5) 0.2268(3)
C9_2 C 0.9711(7) 1.5755(5) 0.2990(4)
C10_2 C 0.9996(7) 1.4616(5) 0.1985(3)
C11_2 C 0.8631(7) 1.5610(5) 0.2701(4)
C12_2 C 0.8725(6) 1.5020(5) 0.2199(4)
C13_2 C 0.7534(7) 1.4846(6) 0.1876(4)
H10_2 H 0.7811 1.4851 0.1438
H11_2 H 0.6864 1.5510 0.1937
C14_2 C 0.6892(6) 1.3730(5) 0.2083(3)
C15_2 C 0.7629(6) 1.2689(5) 0.2221(3)
H12_2 H 0.8565 1.2667 0.2209
C16_2 C 0.5542(6) 1.3705(5) 0.2114(3)
H13_2 H 0.5000 1.4397 0.2026
C17_2 C 0.7005(6) 1.1696(5) 0.2375(3)
H14_2 H 0.7528 1.0995 0.2467
C18_2 C 0.4976(5) 1.2685(5) 0.2270(2)
H15_2 H 0.4041 1.2688 0.2288
C19A C 1.4331(5) 0.9497(5) 0.6248(3)
H16A H 1.4792 0.8757 0.6319
C20A C 1.3576(5) 1.1284(5) 0.6558(3)
H17A H 1.3497 1.1828 0.6855
C21A C 1.3781(6) 0.9763(6) 0.5706(3)
H18A H 1.3880 0.9210 0.5413
C22A C 1.3013(6) 1.1595(5) 0.6031(3)
H19A H 1.2566 1.2344 0.5968
C23A C 1.3092(5) 1.0822(6) 0.5589(3)
C24A C 1.2458(6) 1.1121(6) 0.5005(3)
H20A H 1.3090 1.0882 0.4662
H21A H 1.2253 1.1971 0.4947
C25A C 1.1204(6) 1.0527(6) 0.5008(2)
C26A C 1.1180(6) 0.9462(6) 0.4804(3)
C27A C 1.0018(7) 0.8952(6) 0.4793(3)
C28A C -0.4490(5) 0.9303(5) -0.1266(3)
H22A H -0.5424 0.9466 -0.1215
C29A C -0.2552(5) 0.9211(4) -0.1886(3)
H23A H -0.2102 0.9311 -0.2279
C30A C -0.3826(6) 0.8938(5) -0.0763(3)
H24A H -0.4301 0.8851 -0.0375
C31A C -0.1830(6) 0.8845(5) -0.1412(3)
H25A H -0.0896 0.8691 -0.1479
C32A C -0.2459(6) 0.8700(5) -0.0832(3)
C33A C -0.1711(6) 0.8269(5) -0.0299(3)
H26A H -0.2348 0.8094 0.0056
H27A H -0.1168 0.7541 -0.0388
C34A C -0.0807(6) 0.9163(5) -0.0149(3)
C35A C -0.1300(6) 1.0056(5) 0.0201(3)
C36A C -0.0503(6) 1.0870(5) 0.0342(3)
F9 F 0.3907(4) 0.6750(3) -0.07268(19)
F10 F 0.6541(4) 0.6201(3) -0.08486(19)
N5 N 0.0618(5) 0.8236(4) 0.1276(2)
C37 C 0.1895(6) 0.8129(5) 0.1058(3)
H28 H 0.2459 0.8671 0.1161
C38 C -0.0145(6) 0.7458(5) 0.1122(3)
H29 H -0.1053 0.7502 0.1274
C39 C 0.2433(6) 0.7285(5) 0.0697(3)
H30 H 0.3348 0.7245 0.0557
C40 C 0.0328(6) 0.6600(5) 0.0756(3)
H31 H -0.0256 0.6075 0.0653
C41 C 0.1635(6) 0.6492(5) 0.0536(3)
C42 C 0.2115(7) 0.5523(6) 0.0116(3)
H32 H 0.1700 0.4806 0.0275
H33 H 0.1823 0.5754 -0.0290
C43 C 0.3608(6) 0.5275(5) 0.0060(3)
C44 C 0.4425(7) 0.5870(6) -0.0361(3)
C45 C 0.5788(7) 0.5599(6) -0.0419(3)
F9A F 0.6093(4) 0.3250(3) 0.07268(19)
F10A F 0.3459(4) 0.3799(3) 0.08486(19)
N5A N 0.9382(5) 0.1764(4) -0.1276(2)
C37A C 0.8105(6) 0.1871(5) -0.1058(3)
H28A H 0.7541 0.1329 -0.1161
C38A C 1.0145(6) 0.2542(5) -0.1122(3)
H29A H 1.1053 0.2498 -0.1274
C39A C 0.7567(6) 0.2715(5) -0.0697(3)
H30A H 0.6652 0.2755 -0.0557
C40A C 0.9672(6) 0.3400(5) -0.0756(3)
H31A H 1.0256 0.3925 -0.0653
C41A C 0.8365(6) 0.3508(5) -0.0536(3)
C42A C 0.7885(7) 0.4477(6) -0.0116(3)
H32A H 0.8300 0.5194 -0.0275
H33A H 0.8177 0.4246 0.0290
C43A C 0.6392(6) 0.4725(5) -0.0060(3)
C44A C 0.5575(7) 0.4130(6) 0.0361(3)
C45A C 0.4212(7) 0.4401(6) 0.0419(3)
O5 O 0.5392(9) 0.8163(6) 0.0859(4)
O6 O 0.5258(7) 0.6339(6) 0.1185(4)
O7 O 0.6951(12) 0.6582(6) 0.0752(4)
N7 N 0.5975(6) 0.7322(11) 0.1019(3)
O9 O 0.0704(4) 0.0492(3) 0.78452(18)
H3 H 0.1491 0.0663 0.7825
C46 C 0.0131(6) 0.0966(6) 0.7318(3)
H34 H 0.0583 0.1656 0.7145
H35 H -0.0815 0.1216 0.7422
C47 C 0.0248(7) 0.0082(6) 0.6855(3)
H36 H -0.0155 0.0424 0.6494
H37 H -0.0210 -0.0597 0.7025
H38 H 0.1185 -0.0155 0.6747
O10 O 0.138(2) 0.4983(19) 0.4987(10)
O11 O 0.504(3) 0.324(2) 0.4637(12)
O12 O 0.403(3) 0.535(3) 0.4582(14)
O13 O 1.011(2) 0.3645(13) 0.4171(8)
H39 H 1.0586 0.3093 0.4020
C48 C 0.899(2) 0.3523(19) 0.4140(11)
H40 H 0.8598 0.4311 0.4023
H41 H 0.8633 0.3339 0.4563
C49 C 0.8427(16) 0.2839(16) 0.3826(7)
H42 H 0.7464 0.3011 0.3880
H43 H 0.8654 0.2029 0.3967
H44 H 0.8741 0.2968 0.3398
O4? O 0.1584(17) 1.2261(15) 0.3812(8)
O14? O 0.691(3) 0.347(3) 0.3929(14)
O15? O 0.6633(8) 0.7380(7) 0.1409(4)
loop_
_geom_bond_atom_site_label_1
_geom_bond_atom_site_label_2
_geom_bond_site_symmetry_1
_geom_bond_site_symmetry_2
Cu1 O1 1_555 1_555
F1 C8 1_555 1_555
F2 C9 1_555 1_555
F3 C10 1_555 1_555
F4 C11 1_555 1_555
F5 C26 1_555 1_555
F6 C27 1_555 1_555
F7 C35 1_555 1_555
F8 C36 1_555 1_555
F9 C44 1_555 1_555
F10 C45 1_555 1_555
O1 N6 1_555 1_555
O2 N6 1_555 1_555
O3 N6 1_555 1_555
O5 N7 1_555 1_555
O6 N7 1_555 1_555
O7 N7 1_555 1_555
O8 Cu1 1_555 1_555
H1 O8 1_555 1_555
H2 O8 1_555 1_555
O9 H3 1_555 1_555
N1 Cu1 1_555 1_555
N2 C17 1_555 1_555
N3 Cu1 1_555 1_555
N4 Cu1 1_555 1_555
N5 C37 1_555 1_555
C1 N1 1_555 1_555
H4 C1 1_555 1_555
C2 N1 1_555 1_555
H5 C2 1_555 1_555
C3 C1 1_555 1_555
H6 C3 1_555 1_555
C4 C2 1_555 1_555
H7 C4 1_555 1_555
C5 C3 1_555 1_555
C6 C5 1_555 1_555
H8 C6 1_555 1_555
H9 C6 1_555 1_555
C7 C6 1_555 1_555
C8 C7 1_555 1_555
C9 C7 1_555 1_555
C10 C8 1_555 1_555
C11 C9 1_555 1_555
C12 C10 1_555 1_555
C13 C12 1_555 1_555
H10 C13 1_555 1_555
H11 C13 1_555 1_555
C14 C13 1_555 1_555
C15 C14 1_555 1_555
H12 C15 1_555 1_555
C16 C14 1_555 1_555
H13 C16 1_555 1_555
C17 C15 1_555 1_555
H14 C17 1_555 1_555
C18 N2 1_555 1_555
H15 C18 1_555 1_555
C19 N3 1_555 1_555
H16 C19 1_555 1_555
C20 N3 1_555 1_555
H17 C20 1_555 1_555
C21 C19 1_555 1_555
H18 C21 1_555 1_555
C22 C20 1_555 1_555
H19 C22 1_555 1_555
C23 C21 1_555 1_555
C24 C23 1_555 1_555
H20 C24 1_555 1_555
H21 C24 1_555 1_555
C25 C24 1_555 1_555
C26 C25 1_555 1_555
C27 C26 1_555 1_555
C28 N4 1_555 1_555
H22 C28 1_555 1_555
C29 N4 1_555 1_555
H23 C29 1_555 1_555
C30 C28 1_555 1_555
H24 C30 1_555 1_555
C31 C29 1_555 1_555
H25 C31 1_555 1_555
C32 C30 1_555 1_555
C33 C32 1_555 1_555
H26 C33 1_555 1_555
H27 C33 1_555 1_555
C34 C33 1_555 1_555
C35 C34 1_555 1_555
C36 C35 1_555 1_555
C37 H28 1_555 1_555
C38 N5 1_555 1_555
H29 C38 1_555 1_555
C39 C37 1_555 1_555
H30 C39 1_555 1_555
C40 C38 1_555 1_555
H31 C40 1_555 1_555
C41 C39 1_555 1_555
C42 C41 1_555 1_555
H32 C42 1_555 1_555
H33 C42 1_555 1_555
C43 C42 1_555 1_555
C44 C43 1_555 1_555
C45 C44 1_555 1_555
C46 O9 1_555 1_555
H34 C46 1_555 1_555
H35 C46 1_555 1_555
C47 C46 1_555 1_555
H36 C47 1_555 1_555
H37 C47 1_555 1_555
H38 C47 1_555 1_555
O13 H39 1_555 1_555
C48 O13 1_555 1_555
H40 C48 1_555 1_555
H41 C48 1_555 1_555
C49 C48 1_555 1_555
H42 C49 1_555 1_555
H43 C49 1_555 1_555
H44 C49 1_555 1_555
Cu1_2 O1_2 1_555 1_555
Cu1_3 N2 1_555 1_555
Cu1A N3A 1_555 1_555
Cu1A_2 N4A 1_555 1_555
F1_2 C8_2 1_555 1_555
F2_2 C9_2 1_555 1_555
F3_2 C10_2 1_555 1_555
F4_2 C11_2 1_555 1_555
F5A C26A 1_555 1_555
F6A C27A 1_555 1_555
F7A C35A 1_555 1_555
F8A C36A 1_555 1_555
F9A C44A 1_555 1_555
F10A C45A 1_555 1_555
O1_2 N6_2 1_555 1_555
O2_2 N6_2 1_555 1_555
O3_2 N6_2 1_555 1_555
O8_2 Cu1_2 1_555 1_555
H1_2 O8_2 1_555 1_555
H2_2 O8_2 1_555 1_555
N1_2 Cu1_2 1_555 1_555
N2_2 Cu1 1_555 1_555
N2_3 Cu1_2 1_555 1_555
N3A C19A 1_555 1_555
N3_2 Cu1_2 1_555 1_555
N4A C28A 1_555 1_555
N4_2 Cu1_2 1_555 1_555
N5A C37A 1_555 1_555
C1_2 N1_2 1_555 1_555
H4_2 C1_2 1_555 1_555
C2_2 N1_2 1_555 1_555
H5_2 C2_2 1_555 1_555
C3_2 C1_2 1_555 1_555
H6_2 C3_2 1_555 1_555
C4_2 C2_2 1_555 1_555
H7_2 C4_2 1_555 1_555
C5_2 C3_2 1_555 1_555
C6_2 C5_2 1_555 1_555
H8_2 C6_2 1_555 1_555
H9_2 C6_2 1_555 1_555
C7_2 C6_2 1_555 1_555
C8_2 C7_2 1_555 1_555
C9_2 C7_2 1_555 1_555
C10_2 C8_2 1_555 1_555
C11_2 C9_2 1_555 1_555
C12_2 C10_2 1_555 1_555
C13_2 C12_2 1_555 1_555
H10_2 C13_2 1_555 1_555
H11_2 C13_2 1_555 1_555
C14_2 C13_2 1_555 1_555
C15_2 C14_2 1_555 1_555
H12_2 C15_2 1_555 1_555
C16_2 C14_2 1_555 1_555
H13_2 C16_2 1_555 1_555
C17_2 N2_2 1_555 1_555
H14_2 C17_2 1_555 1_555
C18_2 N2_2 1_555 1_555
H15_2 C18_2 1_555 1_555
C19A H16A 1_555 1_555
C20A N3A 1_555 1_555
H17A C20A 1_555 1_555
C21A C19A 1_555 1_555
H18A C21A 1_555 1_555
C22A C20A 1_555 1_555
H19A C22A 1_555 1_555
C23A C21A 1_555 1_555
C24A C23A 1_555 1_555
H20A C24A 1_555 1_555
H21A C24A 1_555 1_555
C25A C27 1_555 1_555
C26A C25A 1_555 1_555
C27A C25 1_555 1_555
C28A H22A 1_555 1_555
C29A N4A 1_555 1_555
H23A C29A 1_555 1_555
C30A C28A 1_555 1_555
H24A C30A 1_555 1_555
C31A C29A 1_555 1_555
H25A C31A 1_555 1_555
C32A C30A 1_555 1_555
C33A C32A 1_555 1_555
H26A C33A 1_555 1_555
H27A C33A 1_555 1_555
C34A C36 1_555 1_555
C35A C34A 1_555 1_555
C36A C34 1_555 1_555
C37A H28A 1_555 1_555
C38A N5A 1_555 1_555
H29A C38A 1_555 1_555
C39A C37A 1_555 1_555
H30A C39A 1_555 1_555
C40A C38A 1_555 1_555
H31A C40A 1_555 1_555
C41A C39A 1_555 1_555
C42A C41A 1_555 1_555
H32A C42A 1_555 1_555
H33A C42A 1_555 1_555
C43A C45 1_555 1_555
C44A C43A 1_555 1_555
C45A C43 1_555 1_555
C4 C5 1_555 1_555
C11 C12 1_555 1_555
C16 C18 1_555 1_555
C22 C23 1_555 1_555
C31 C32 1_555 1_555
C40 C41 1_555 1_555
C4_2 C5_2 1_555 1_555
C11_2 C12_2 1_555 1_555
C15_2 C17_2 1_555 1_555
C16_2 C18_2 1_555 1_555
C22A C23A 1_555 1_555
C24A C25A 1_555 1_555
C26A C27A 1_555 1_555
C31A C32A 1_555 1_555
C33A C34A 1_555 1_555
C35A C36A 1_555 1_555
C40A C41A 1_555 1_555
C42A C43A 1_555 1_555
C44A C45A 1_555 1_555

#END
