
#######################################################################
#
#                 Cambridge Crystallographic Data Centre
#                                CCDC 
#
#######################################################################
#
# If this CIF has been generated from an entry in the Cambridge 
# Structural Database, then it will include bibliographic, chemical, 
# crystal, experimental, refinement or atomic coordinate data resulting 
# from the CCDC's data processing and validation procedures.
#
#######################################################################

data_HAKDOM
_symmetry_cell_setting           monoclinic
_symmetry_space_group_name_H-M   'P 21/n'
_symmetry_Int_Tables_number      14
_space_group_name_Hall           '-P 2yn'
loop_
_symmetry_equiv_pos_site_id
_symmetry_equiv_pos_as_xyz
1 x,y,z
2 1/2-x,1/2+y,1/2-z
3 -x,-y,-z
4 1/2+x,1/2-y,1/2+z
_cell_length_a                   3.983(1)
_cell_length_b                   13.229(4)
_cell_length_c                   14.468(3)
_cell_angle_alpha                90
_cell_angle_beta                 91.37(2)
_cell_angle_gamma                90
_cell_volume                     762.117
loop_
_atom_site_label
_atom_site_type_symbol
_atom_site_fract_x
_atom_site_fract_y
_atom_site_fract_z
Br1 Br 0.8934(2) 0.0789(1) 0.6463(1)
Br2 Br 1.5062(2) -0.0502(1) 0.8594(1)
Cu1 Cu 1.3853(3) -0.0181(1) 0.6970(1)
N1 N 1.3916(17) -0.1549(5) 0.6269(4)
C1 C 1.2739(22) -0.2411(6) 0.6611(6)
N2 N 1.3345(17) -0.3304(5) 0.6215(5)
C2 C 1.5160(22) -0.3356(7) 0.5415(6)
C3 C 1.6308(24) -0.2504(6) 0.5035(6)
C4 C 1.5709(22) -0.1594(7) 0.5490(6)
N3 N 1.0885(1) -0.2379(6) 0.7351(5)
Cu1_2 Cu 0.3853(3) -0.0181(1) 0.6970(1)
Br1_2 Br 1.8934(2) 0.0789(1) 0.6463(1)
loop_
_geom_bond_atom_site_label_1
_geom_bond_atom_site_label_2
_geom_bond_site_symmetry_1
_geom_bond_site_symmetry_2
Br1 Cu1 1_555 1_555
Br2 Cu1 1_555 1_555
Cu1 N1 1_555 1_555
N1 C1 1_555 1_555
C1 N2 1_555 1_555
N2 C2 1_555 1_555
C2 C3 1_555 1_555
C3 C4 1_555 1_555
C4 N1 1_555 1_555
N3 C1 1_555 1_555
Cu1_2 Br1 1_555 1_555
Br1_2 Cu1 1_555 1_555

#END
