
#######################################################################
#
#                 Cambridge Crystallographic Data Centre
#                                CCDC 
#
#######################################################################
#
# If this CIF has been generated from an entry in the Cambridge 
# Structural Database, then it will include bibliographic, chemical, 
# crystal, experimental, refinement or atomic coordinate data resulting 
# from the CCDC's data processing and validation procedures.
#
#######################################################################

data_HAKFIK
_symmetry_cell_setting           monoclinic
_symmetry_space_group_name_H-M   'C 2/c'
_symmetry_Int_Tables_number      15
_space_group_name_Hall           '-C 2yn'
loop_
_symmetry_equiv_pos_site_id
_symmetry_equiv_pos_as_xyz
1 x,y,z
2 -x,y,1/2-z
3 1/2+x,1/2+y,z
4 1/2-x,1/2+y,1/2-z
5 -x,-y,-z
6 x,-y,1/2+z
7 1/2-x,1/2-y,-z
8 1/2+x,1/2-y,1/2+z
_cell_length_a                   28.104(3)
_cell_length_b                   16.0488(16)
_cell_length_c                   14.1585(14)
_cell_angle_alpha                90
_cell_angle_beta                 116.884(2)
_cell_angle_gamma                90
_cell_volume                     5695.81
loop_
_atom_site_label
_atom_site_type_symbol
_atom_site_fract_x
_atom_site_fract_y
_atom_site_fract_z
C19 C 0.6744(2) 0.1897(3) 0.0932(4)
C20 C 0.6658(2) 0.2520(3) 0.0178(4)
H13 H 0.6934 0.2907 0.0286
C21 C 0.6168(3) 0.2578(4) -0.0734(4)
H14 H 0.6111 0.2997 -0.1248
C22 C 0.5764(2) 0.2006(5) -0.0875(5)
H15 H 0.5429 0.2043 -0.1486
C23 C 0.5848(2) 0.1394(5) -0.0139(5)
H16 H 0.5572 0.1008 -0.0246
C24 C 0.6332(2) 0.1337(3) 0.0756(4)
H17 H 0.6386 0.0910 0.1259
C25 C 0.72457(19) 0.1859(3) 0.1913(4)
C26 C 0.7249(2) 0.1737(3) 0.2889(4)
H18 H 0.6921 0.1662 0.2920
C27 C 0.7726(2) 0.1723(4) 0.3822(4)
H19 H 0.7721 0.1641 0.4481
C28 C 0.8204(2) 0.1828(3) 0.3794(4)
H20 H 0.8528 0.1818 0.4432
C29 C 0.8213(2) 0.1946(3) 0.2837(4)
H21 H 0.8544 0.2013 0.2814
C30 C 0.77407(19) 0.1967(3) 0.1912(4)
H22 H 0.7751 0.2056 0.1258
Cu1 Cu 0.5000 0.19835(4) 0.2500
F1 F 0.24288(13) -0.0619(2) 0.0241(2)
F2 F 0.34073(10) -0.10444(17) 0.3913(2)
F3 F 0.15716(11) -0.0223(2) 0.0494(2)
F4 F 0.25350(11) -0.07269(18) 0.4150(2)
O1 O 0.53749(13) 0.1929(2) 0.4500(3)
O2 O 0.53986(19) 0.3132(2) 0.5156(3)
O3 O 0.54976(15) 0.2056(2) 0.6098(3)
N1 N 0.44724(13) 0.1079(2) 0.2379(3)
N2 N 0.05233(13) -0.2142(2) 0.2550(3)
N3 N 0.54186(16) 0.2333(3) 0.5265(4)
C1 C 0.40074(17) 0.1013(3) 0.1513(3)
H1 H 0.3907 0.1436 0.0990
C2 C 0.46038(18) 0.0481(3) 0.3124(4)
H2 H 0.4933 0.0527 0.3747
C3 C 0.36638(18) 0.0344(3) 0.1350(4)
H3 H 0.3336 0.0312 0.0720
C4 C 0.42812(18) -0.0195(3) 0.3021(4)
H4 H 0.4386 -0.0600 0.3568
C5 C 0.38007(17) -0.0275(3) 0.2108(4)
C6 C 0.34466(19) -0.1031(3) 0.1947(4)
H5 H 0.3337 -0.1258 0.1228
H6 H 0.3653 -0.1467 0.2465
C7 C 0.29526(18) -0.0823(3) 0.2076(4)
C8 C 0.2474(2) -0.0619(3) 0.1234(4)
C9 C 0.29588(17) -0.0844(3) 0.3048(3)
C10 C 0.20235(19) -0.0412(3) 0.1358(4)
C11 C 0.25052(18) -0.0666(3) 0.3168(3)
C12 C 0.20294(17) -0.0423(3) 0.2343(4)
C13 C 0.15532(18) -0.0172(3) 0.2502(4)
H7 H 0.1326 0.0203 0.1916
H8 H 0.1681 0.0150 0.3169
C14 C 0.12116(17) -0.0888(3) 0.2551(4)
C15 C 0.09939(17) -0.0871(3) 0.3239(3)
H9 H 0.1077 -0.0425 0.3730
C16 C 0.10865(18) -0.1566(3) 0.1861(4)
H10 H 0.1237 -0.1609 0.1382
C17 C 0.06547(17) -0.1496(3) 0.3228(3)
H11 H 0.0509 -0.1470 0.3716
C18 C 0.07449(17) -0.2170(3) 0.1882(4)
H12 H 0.0661 -0.2626 0.1405
Cu1B Cu 0.0000 -0.30165(4) 0.2500
Cu1B_2 Cu 1.0000 -0.30165(4) 0.2500
F1A F 0.75712(13) -0.0619(2) 0.4759(2)
F2A F 0.65927(10) -0.10444(17) 0.1087(2)
F3A F 0.84284(11) -0.0223(2) 0.4506(2)
F4A F 0.74650(11) -0.07269(18) 0.0850(2)
O1A O 0.46251(13) 0.1929(2) 0.0500(3)
O2A O 0.46014(19) 0.3132(2) -0.0156(3)
O3A O 0.45024(15) 0.2056(2) -0.1098(3)
N1A N 0.55276(13) 0.1079(2) 0.2621(3)
N2A N 0.94767(13) -0.2142(2) 0.2450(3)
N2B N 0.55233(13) 0.2858(2) 0.2550(3)
N2C N 0.44767(13) 0.2858(2) 0.2450(3)
N3A N 0.45814(16) 0.2333(3) -0.0265(4)
C1A C 0.59926(17) 0.1013(3) 0.3487(3)
H1A H 0.6093 0.1436 0.4010
C2A C 0.53962(18) 0.0481(3) 0.1876(4)
H2A H 0.5067 0.0527 0.1253
C3A C 0.63362(18) 0.0344(3) 0.3650(4)
H3A H 0.6664 0.0312 0.4280
C4A C 0.57188(18) -0.0195(3) 0.1979(4)
H4A H 0.5614 -0.0600 0.1432
C5A C 0.61993(17) -0.0275(3) 0.2892(4)
C6A C 0.65534(19) -0.1031(3) 0.3053(4)
H5A H 0.6663 -0.1258 0.3772
H6A H 0.6347 -0.1467 0.2535
C7A C 0.70474(18) -0.0823(3) 0.2924(4)
C8A C 0.7526(2) -0.0619(3) 0.3766(4)
C9A C 0.70412(17) -0.0844(3) 0.1952(3)
C10A C 0.79765(19) -0.0412(3) 0.3642(4)
C11A C 0.74948(18) -0.0666(3) 0.1832(3)
C12A C 0.79706(17) -0.0423(3) 0.2657(4)
C13A C 0.84468(18) -0.0172(3) 0.2498(4)
H7A H 0.8674 0.0203 0.3084
H8A H 0.8319 0.0150 0.1831
C14A C 0.87884(17) -0.0888(3) 0.2449(4)
C15A C 0.90061(17) -0.0871(3) 0.1761(3)
H9A H 0.8923 -0.0425 0.1270
C16A C 0.89135(18) -0.1566(3) 0.3139(4)
H10A H 0.8763 -0.1609 0.3618
C17A C 0.93453(17) -0.1496(3) 0.1772(3)
H11A H 0.9491 -0.1470 0.1284
C18A C 0.92551(17) -0.2170(3) 0.3118(4)
H12A H 0.9339 -0.2626 0.3595
O4? O 0.5497(4) 0.3925(5) 0.7047(6)
C31? C 0.5024(8) 0.4258(15) 0.6723(18)
C32? C 0.4889(7) 0.4877(12) 0.5454(14)
loop_
_geom_bond_atom_site_label_1
_geom_bond_atom_site_label_2
_geom_bond_site_symmetry_1
_geom_bond_site_symmetry_2
Cu1 O1 1_555 1_555
F1 C8 1_555 1_555
F2 C9 1_555 1_555
F3 C10 1_555 1_555
F4 C11 1_555 1_555
O1 N3 1_555 1_555
O2 N3 1_555 1_555
O3 N3 1_555 1_555
N1 Cu1 1_555 1_555
N2 C17 1_555 1_555
C1 N1 1_555 1_555
H1 C1 1_555 1_555
C2 N1 1_555 1_555
H2 C2 1_555 1_555
C3 C1 1_555 1_555
H3 C3 1_555 1_555
C4 C2 1_555 1_555
H4 C4 1_555 1_555
C5 C3 1_555 1_555
C6 C5 1_555 1_555
H5 C6 1_555 1_555
H6 C6 1_555 1_555
C7 C6 1_555 1_555
C8 C7 1_555 1_555
C9 C7 1_555 1_555
C10 C8 1_555 1_555
C11 C9 1_555 1_555
C12 C10 1_555 1_555
C13 C12 1_555 1_555
H7 C13 1_555 1_555
H8 C13 1_555 1_555
C14 C13 1_555 1_555
C15 C14 1_555 1_555
H9 C15 1_555 1_555
C16 C14 1_555 1_555
H10 C16 1_555 1_555
C17 C15 1_555 1_555
H11 C17 1_555 1_555
C18 N2 1_555 1_555
H12 C18 1_555 1_555
C19 C20 1_555 1_555
C20 H13 1_555 1_555
C21 C20 1_555 1_555
H14 C21 1_555 1_555
C22 C21 1_555 1_555
H15 C22 1_555 1_555
C23 C22 1_555 1_555
H16 C23 1_555 1_555
C24 C19 1_555 1_555
H17 C24 1_555 1_555
C25 C19 1_555 1_555
C26 C25 1_555 1_555
H18 C26 1_555 1_555
C27 C26 1_555 1_555
H19 C27 1_555 1_555
C28 C27 1_555 1_555
H20 C28 1_555 1_555
C29 C28 1_555 1_555
H21 C29 1_555 1_555
C30 C25 1_555 1_555
H22 C30 1_555 1_555
Cu1B N2 1_555 1_555
Cu1B_2 N2A 1_555 1_555
F1A C8A 1_555 1_555
F2A C9A 1_555 1_555
F3A C10A 1_555 1_555
F4A C11A 1_555 1_555
O1A Cu1 1_555 1_555
O2A N3A 1_555 1_555
O3A N3A 1_555 1_555
N1A Cu1 1_555 1_555
N2A C17A 1_555 1_555
N2B Cu1 1_555 1_555
N2C Cu1 1_555 1_555
N3A O1A 1_555 1_555
C1A N1A 1_555 1_555
H1A C1A 1_555 1_555
C2A N1A 1_555 1_555
H2A C2A 1_555 1_555
C3A C1A 1_555 1_555
H3A C3A 1_555 1_555
C4A C2A 1_555 1_555
H4A C4A 1_555 1_555
C5A C3A 1_555 1_555
C6A C5A 1_555 1_555
H5A C6A 1_555 1_555
H6A C6A 1_555 1_555
C7A C6A 1_555 1_555
C8A C7A 1_555 1_555
C9A C7A 1_555 1_555
C10A C8A 1_555 1_555
C11A C9A 1_555 1_555
C12A C10A 1_555 1_555
C13A C12A 1_555 1_555
H7A C13A 1_555 1_555
H8A C13A 1_555 1_555
C14A C13A 1_555 1_555
C15A C14A 1_555 1_555
H9A C15A 1_555 1_555
C16A C14A 1_555 1_555
H10A C16A 1_555 1_555
C17A C15A 1_555 1_555
H11A C17A 1_555 1_555
C18A N2A 1_555 1_555
H12A C18A 1_555 1_555
C4 C5 1_555 1_555
C11 C12 1_555 1_555
C16 C18 1_555 1_555
C23 C24 1_555 1_555
C29 C30 1_555 1_555
C4A C5A 1_555 1_555
C11A C12A 1_555 1_555
C16A C18A 1_555 1_555

#END
