
#######################################################################
#
#                 Cambridge Crystallographic Data Centre
#                                CCDC 
#
#######################################################################
#
# If this CIF has been generated from an entry in the Cambridge 
# Structural Database, then it will include bibliographic, chemical, 
# crystal, experimental, refinement or atomic coordinate data resulting 
# from the CCDC's data processing and validation procedures.
#
#######################################################################

data_HAKFOQ01
_symmetry_cell_setting           monoclinic
_symmetry_space_group_name_H-M   'P 21/n'
_symmetry_Int_Tables_number      14
_space_group_name_Hall           '-P 2yn'
loop_
_symmetry_equiv_pos_site_id
_symmetry_equiv_pos_as_xyz
1 x,y,z
2 1/2-x,1/2+y,1/2-z
3 -x,-y,-z
4 1/2+x,1/2-y,1/2+z
_cell_length_a                   12.4876(8)
_cell_length_b                   11.0763(7)
_cell_length_c                   23.6702(15)
_cell_angle_alpha                90
_cell_angle_beta                 91.3480(10)
_cell_angle_gamma                90
_cell_volume                     3273.07
loop_
_atom_site_label
_atom_site_type_symbol
_atom_site_fract_x
_atom_site_fract_y
_atom_site_fract_z
Mn1 Mn 0.66577(3) 0.20677(3) 0.272398(14)
C1 C 0.50695(18) 0.1594(2) 0.37016(10)
C2 C 0.41813(17) 0.2078(2) 0.40569(9)
C3 C 0.39460(18) 0.1511(2) 0.45544(9)
H1 H 0.4331 0.0801 0.4657
C4 C 0.31558(18) 0.1939(2) 0.49184(9)
C5 C 0.2948(2) 0.1380(2) 0.54428(10)
H2 H 0.3342 0.0682 0.5554
C6 C 0.2187(2) 0.1834(3) 0.57907(11)
H3 H 0.2056 0.1455 0.6142
C7 C 0.1599(2) 0.2865(3) 0.56258(11)
H4 H 0.1068 0.3174 0.5868
C8 C 0.17783(19) 0.3425(2) 0.51254(10)
H5 H 0.1370 0.4118 0.5023
C9 C 0.25690(18) 0.2988(2) 0.47541(9)
C10 C 0.27996(17) 0.3581(2) 0.42375(9)
C11 C 0.35935(18) 0.3131(2) 0.38949(9)
C12 C 0.22083(17) 0.4696(2) 0.40607(9)
C13 C 0.24918(18) 0.5836(2) 0.42983(9)
C14 C 0.3347(2) 0.5969(3) 0.47000(10)
H6 H 0.3756 0.5282 0.4812
C15 C 0.3589(2) 0.7072(3) 0.49266(13)
H7 H 0.4160 0.7140 0.5197
C16 C 0.3007(3) 0.8108(3) 0.47663(14)
H8 H 0.3184 0.8868 0.4929
C17 C 0.2189(3) 0.8020(3) 0.43770(13)
H9 H 0.1804 0.8725 0.4267
C18 C 0.1903(2) 0.6886(2) 0.41333(10)
C19 C 0.10528(19) 0.6771(2) 0.37374(10)
H10 H 0.0657 0.7469 0.3628
C20 C 0.07797(18) 0.5676(2) 0.35050(9)
C21 C -0.01285(19) 0.5593(2) 0.30792(10)
C22 C 0.13775(18) 0.4626(2) 0.36695(9)
C23 C 0.8362(2) 0.1917(3) 0.36672(12)
H11 H 0.8441 0.1123 0.3523
C24 C 0.8953(2) 0.3459(3) 0.43181(12)
H12 H 0.8480 0.3955 0.4077
H13 H 0.9673 0.3812 0.4331
H14 H 0.8672 0.3429 0.4701
C25 C 0.9787(3) 0.1426(4) 0.43431(17)
H15 H 0.9737 0.0638 0.4156
H16 H 0.9644 0.1330 0.4746
H17 H 1.0508 0.1757 0.4299
C26 C 0.8233(2) 0.1229(3) 0.18532(12)
H18 H 0.7690 0.0648 0.1775
C27 C 0.9897(3) 0.2144(4) 0.15815(18)
H19 H 0.9763 0.2629 0.1919
H20 H 0.9907 0.2671 0.1249
H21 H 1.0590 0.1735 0.1626
C28 C 0.9104(3) 0.0463(4) 0.10326(14)
H22 H 0.8530 -0.0137 0.1056
H23 H 0.9799 0.0052 0.1033
H24 H 0.9010 0.0930 0.0683
N1 N 0.90043(18) 0.2245(2) 0.40894(10)
N2 N 0.90631(18) 0.1260(2) 0.15094(10)
O1 O 0.52701(13) 0.21945(16) 0.32500(7)
O2 O 0.55471(15) 0.06644(17) 0.38525(7)
O3 O 0.38028(13) 0.37278(16) 0.34116(7)
H25 H 0.4268 0.3349 0.3232
O4 O 0.11176(13) 0.35284(15) 0.34465(7)
H26 H 0.0633 0.3613 0.3198
O5 O -0.02960(14) 0.45840(17) 0.28413(8)
O6 O -0.06673(15) 0.65211(17) 0.29842(7)
O7 O 0.76680(14) 0.25588(19) 0.34459(8)
O8 O 0.81176(15) 0.18839(18) 0.22570(8)
O9 O 0.67456(12) 0.00770(15) 0.29760(7)
H27 H 0.6441 0.0004 0.3294
H28 H 0.6272 -0.0095 0.2717
O10 O 0.64704(14) 0.38924(16) 0.24276(8)
H29 H 0.5924 0.3977 0.2207
H30 H 0.6998 0.4286 0.2302
Mn1A Mn -0.16577(3) 0.70677(3) 0.227602(14)
O6A O 0.56673(15) 0.15211(17) 0.20158(7)
C29 C 0.9170(5) 0.9618(5) 0.7028(3)
H31 H 0.9528 0.8899 0.7143
C30 C 0.7594(5) 0.8623(6) 0.7329(3)
H32 H 0.8053 0.7918 0.7273
H33 H 0.6904 0.8499 0.7132
H34 H 0.7477 0.8734 0.7734
C31 C 0.7485(8) 1.0694(8) 0.7084(3)
H35 H 0.7944 1.1402 0.7034
H36 H 0.7094 1.0775 0.7436
H37 H 0.6974 1.0633 0.6765
N3 N 0.8104(3) 0.9677(4) 0.71080(14)
O11 O 0.9693(2) 1.0390(3) 0.68273(17)
loop_
_geom_bond_atom_site_label_1
_geom_bond_atom_site_label_2
_geom_bond_site_symmetry_1
_geom_bond_site_symmetry_2
Mn1 O1 1_555 1_555
C1 C2 1_555 1_555
C2 C3 1_555 1_555
C3 H1 1_555 1_555
C4 C3 1_555 1_555
C5 C4 1_555 1_555
H2 C5 1_555 1_555
C6 C5 1_555 1_555
H3 C6 1_555 1_555
C7 C6 1_555 1_555
H4 C7 1_555 1_555
C8 C7 1_555 1_555
H5 C8 1_555 1_555
C9 C4 1_555 1_555
C10 C9 1_555 1_555
C11 C2 1_555 1_555
C12 C10 1_555 1_555
C13 C12 1_555 1_555
C14 C13 1_555 1_555
H6 C14 1_555 1_555
C15 C14 1_555 1_555
H7 C15 1_555 1_555
C16 C15 1_555 1_555
H8 C16 1_555 1_555
C17 C16 1_555 1_555
H9 C17 1_555 1_555
C18 C13 1_555 1_555
C19 C18 1_555 1_555
H10 C19 1_555 1_555
C20 C19 1_555 1_555
C21 C20 1_555 1_555
C22 C12 1_555 1_555
C23 H11 1_555 1_555
C24 H12 1_555 1_555
H13 C24 1_555 1_555
H14 C24 1_555 1_555
C25 H15 1_555 1_555
H16 C25 1_555 1_555
H17 C25 1_555 1_555
C26 H18 1_555 1_555
C27 H19 1_555 1_555
H20 C27 1_555 1_555
H21 C27 1_555 1_555
C28 H22 1_555 1_555
H23 C28 1_555 1_555
H24 C28 1_555 1_555
N1 C23 1_555 1_555
N2 C26 1_555 1_555
O1 C1 1_555 1_555
O2 C1 1_555 1_555
O3 C11 1_555 1_555
H25 O3 1_555 1_555
O4 C22 1_555 1_555
H26 O4 1_555 1_555
O5 C21 1_555 1_555
O6 C21 1_555 1_555
O7 Mn1 1_555 1_555
O8 Mn1 1_555 1_555
O9 Mn1 1_555 1_555
H27 O9 1_555 1_555
H28 O9 1_555 1_555
O10 Mn1 1_555 1_555
H29 O10 1_555 1_555
H30 O10 1_555 1_555
C29 H31 1_555 1_555
C30 H32 1_555 1_555
H33 C30 1_555 1_555
H34 C30 1_555 1_555
C31 H35 1_555 1_555
H36 C31 1_555 1_555
H37 C31 1_555 1_555
N3 C29 1_555 1_555
O11 C29 1_555 1_555
Mn1A O6 1_555 1_555
O6A Mn1 1_555 1_555
C8 C9 1_555 1_555
C10 C11 1_555 1_555
C17 C18 1_555 1_555
C20 C22 1_555 1_555
C23 O7 1_555 1_555
C24 N1 1_555 1_555
C25 N1 1_555 1_555
C26 O8 1_555 1_555
C27 N2 1_555 1_555
C28 N2 1_555 1_555
C30 N3 1_555 1_555
C31 N3 1_555 1_555

#END
