
#######################################################################
#
#                 Cambridge Crystallographic Data Centre
#                                CCDC 
#
#######################################################################
#
# If this CIF has been generated from an entry in the Cambridge 
# Structural Database, then it will include bibliographic, chemical, 
# crystal, experimental, refinement or atomic coordinate data resulting 
# from the CCDC's data processing and validation procedures.
#
#######################################################################

data_HAKFEG
_symmetry_cell_setting           monoclinic
_symmetry_space_group_name_H-M   'P 2/c'
_symmetry_Int_Tables_number      13
_space_group_name_Hall           '-P 2yc'
loop_
_symmetry_equiv_pos_site_id
_symmetry_equiv_pos_as_xyz
1 x,y,z
2 -x,y,1/2-z
3 -x,-y,-z
4 x,-y,1/2+z
_cell_length_a                   10.7067(15)
_cell_length_b                   15.089(2)
_cell_length_c                   15.475(2)
_cell_angle_alpha                90
_cell_angle_beta                 98.769(4)
_cell_angle_gamma                90
_cell_volume                     2470.82
loop_
_atom_site_label
_atom_site_type_symbol
_atom_site_fract_x
_atom_site_fract_y
_atom_site_fract_z
O1 O -0.3180(2) 0.77402(17) 1.37045(16)
O2 O -0.3585(3) 0.7199(2) 1.49257(19)
O3 O -0.1703(3) 0.7303(3) 1.4735(3)
N3 N -0.2823(3) 0.73984(17) 1.4444(3)
O5 O 0.9804(5) 0.2659(4) 0.8388(5)
Cu1 Cu -0.5000 0.76072(3) 1.2500
F1 F -0.24493(17) 0.48527(15) 0.92451(14)
F2 F 0.06956(19) 0.46964(15) 1.17325(12)
F3 F -0.21773(18) 0.96922(16) 0.89036(13)
F4 F -0.0025(2) 1.08301(16) 1.15549(13)
N1 N -0.40551(19) 0.66514(14) 1.19429(14)
N2 N -0.41265(19) 0.85591(14) 1.18711(14)
C1 C -0.4640(2) 0.59709(17) 1.14969(18)
H1 H -0.5538 0.5965 1.1388
C2 C -0.2783(2) 0.66529(17) 1.20782(19)
H2 H -0.2350 0.7135 1.2386
C3 C -0.3990(3) 0.52738(18) 1.11871(19)
H3 H -0.4442 0.4806 1.0868
C4 C -0.2080(2) 0.59732(18) 1.1782(2)
H4 H -0.1183 0.6000 1.1883
C5 C -0.2680(2) 0.52596(17) 1.13427(17)
C6 C -0.1940(3) 0.44810(17) 1.1062(2)
H5 H -0.2534 0.4065 1.0717
H6 H -0.1530 0.4163 1.1589
C7 C -0.0938(3) 0.47525(16) 1.05204(18)
C8 C -0.1237(3) 0.49232(19) 0.9635(2)
C9 C 0.0323(3) 0.48399(18) 1.08702(18)
C10 C -0.3466(3) 0.92087(19) 1.2294(2)
H7 H -0.3372 0.9217 1.2914
C11 C -0.4256(3) 0.85598(19) 1.09942(19)
H8 H -0.4729 0.8099 1.0679
C12 C -0.2900(3) 0.9883(2) 1.1873(2)
H9 H -0.2429 1.0334 1.2204
C13 C -0.3725(3) 0.9210(2) 1.0536(2)
H10 H -0.3839 0.9190 0.9915
C14 C -0.3028(3) 0.98882(17) 1.0973(2)
C15 C -0.2415(3) 1.06088(19) 1.0486(2)
H11 H -0.2262 1.1141 1.0862
H12 H -0.2997 1.0777 0.9952
C16 C -0.1168(3) 1.02910(18) 1.0235(2)
C17 C -0.1100(3) 0.9857(2) 0.9460(2)
C18 C -0.0036(3) 1.0425(2) 1.07745(19)
N1A N -0.59449(19) 0.66514(14) 1.30571(14)
N2A N -0.58735(19) 0.85591(14) 1.31289(14)
C8B C 0.1237(3) 0.50768(19) 1.0365(2)
C9B C -0.0323(3) 0.51601(18) 0.91298(18)
C17B C 0.1100(3) 1.0143(2) 1.0540(2)
C18B C 0.0036(3) 0.9575(2) 0.92255(19)
C19? C 0.8785(16) 0.2670(5) 0.3998(9)
C20? C 0.6076(12) 0.2601(5) 0.2972(6)
C21? C 0.6262(16) 0.2700(6) 0.3878(7)
C22? C 0.7496(15) 0.2785(7) 0.4363(9)
C23? C 0.8361(14) 0.2583(7) 0.2905(15)
C24? C 0.7166(13) 0.2555(5) 0.2511(8)
C25? C 0.5000 0.2509(4) 0.2500
C26? C 0.374(2) 0.2350(17) 0.3037(14)
C27? C 0.473(2) 0.1669(12) 0.1900(16)
C28? C 0.448(3) 0.3349(14) 0.1874(17)
O4? O 0.8712(12) 0.2543(8) 0.5090(12)
C29? C 0.984(6) 0.2541(14) 0.339(7)
O6? O 1.0033(8) 0.1666(5) 0.8021(9)
C30? C 0.578(3) 0.1680(17) 0.220(3)
C31? C 0.505(3) 0.239(2) 0.3595(19)
C32? C 0.591(4) 0.3388(18) 0.249(3)
loop_
_geom_bond_atom_site_label_1
_geom_bond_atom_site_label_2
_geom_bond_site_symmetry_1
_geom_bond_site_symmetry_2
Cu1 N1 1_555 1_555
F1 C8 1_555 1_555
F2 C9 1_555 1_555
F3 C17 1_555 1_555
F4 C18 1_555 1_555
O1 N3 1_555 1_555
O2 N3 1_555 1_555
O3 N3 1_555 1_555
N1 C1 1_555 1_555
N2 Cu1 1_555 1_555
C1 H1 1_555 1_555
C2 N1 1_555 1_555
H2 C2 1_555 1_555
C3 C1 1_555 1_555
H3 C3 1_555 1_555
C4 C2 1_555 1_555
H4 C4 1_555 1_555
C5 C3 1_555 1_555
C6 C5 1_555 1_555
H5 C6 1_555 1_555
H6 C6 1_555 1_555
C7 C6 1_555 1_555
C8 C7 1_555 1_555
C9 C7 1_555 1_555
C10 N2 1_555 1_555
H7 C10 1_555 1_555
C11 N2 1_555 1_555
H8 C11 1_555 1_555
C12 C10 1_555 1_555
H9 C12 1_555 1_555
C13 C11 1_555 1_555
H10 C13 1_555 1_555
C14 C12 1_555 1_555
C15 C14 1_555 1_555
H11 C15 1_555 1_555
H12 C15 1_555 1_555
C16 C15 1_555 1_555
C17 C16 1_555 1_555
C18 C16 1_555 1_555
N1A Cu1 1_555 1_555
N2A Cu1 1_555 1_555
C8B C9 1_555 1_555
C9B C8 1_555 1_555
C17B C18 1_555 1_555
C18B C17 1_555 1_555
C4 C5 1_555 1_555
C13 C14 1_555 1_555

#END
