
#######################################################################
#
#                 Cambridge Crystallographic Data Centre
#                                CCDC 
#
#######################################################################
#
# If this CIF has been generated from an entry in the Cambridge 
# Structural Database, then it will include bibliographic, chemical, 
# crystal, experimental, refinement or atomic coordinate data resulting 
# from the CCDC's data processing and validation procedures.
#
#######################################################################

data_HAKKEL
_symmetry_cell_setting           triclinic
_symmetry_space_group_name_H-M   'P -1'
_symmetry_Int_Tables_number      2
_space_group_name_Hall           '-P 1'
loop_
_symmetry_equiv_pos_site_id
_symmetry_equiv_pos_as_xyz
1 x,y,z
2 -x,-y,-z
_cell_length_a                   9.1393(3)
_cell_length_b                   9.4459(6)
_cell_length_c                   10.0234(14)
_cell_angle_alpha                63.21(3)
_cell_angle_beta                 65.45(3)
_cell_angle_gamma                74.16(3)
_cell_volume                     698.679
loop_
_atom_site_label
_atom_site_type_symbol
_atom_site_fract_x
_atom_site_fract_y
_atom_site_fract_z
N1 N -0.1138(3) 0.9332(3) 0.4379(3)
C1 C 0.0313(4) 0.8489(4) 0.4102(4)
H1 H 0.0486 0.7536 0.4913
C2 C -0.1375(4) 1.0699(4) 0.3203(4)
H2 H -0.2370 1.1312 0.3386
C3 C -0.0201(4) 1.1227(4) 0.1737(4)
H3 H -0.0416 1.2166 0.0936
C4 C 0.1284(4) 1.0373(4) 0.1456(4)
H4 H 0.2094 1.0724 0.0470
C5 C 0.1561(4) 0.8959(4) 0.2682(3)
C6 C 0.3168(4) 0.7971(4) 0.2437(4)
H5 H 0.3985 0.8560 0.2280
H6 H 0.3115 0.7001 0.3379
Ag1 Ag 0.68467(3) 0.83975(4) -0.35403(3)
N2 N 0.4951(3) 0.7713(3) -0.1328(3)
N3 N 0.4820(3) 0.8257(3) -0.0277(3)
N4 N 0.3632(3) 0.7561(3) 0.1060(3)
C7 C 0.2304(4) 0.4799(4) -0.0306(4)
H7 H 0.2072 0.4164 -0.0667
C8 C 0.3836(3) 0.6658(4) -0.0676(4)
C9 C 0.3517(4) 0.5751(4) -0.1291(4)
H8 H 0.4105 0.5797 -0.2319
C10 C 0.2959(3) 0.6567(4) 0.0877(3)
C11 C 0.1383(4) 0.4739(4) 0.1248(4)
H9 H 0.0547 0.4089 0.1866
C12 C 0.1687(4) 0.5619(4) 0.1877(4)
H10 H 0.1084 0.5581 0.2900
N1_2 N 0.8862(3) 0.9332(3) -0.5621(3)
Ag1_2 Ag -0.31533(3) 0.83975(4) 0.64597(3)
Cl1 Cl 0.68729(12) 0.69926(13) 0.37742(11)
O1 O 0.7944(6) 0.7979(5) 0.2372(4)
O2 O 0.7694(6) 0.6094(5) 0.4852(5)
O3 O 0.5561(5) 0.7949(6) 0.4485(5)
O4 O 0.6294(5) 0.6024(6) 0.3420(6)
loop_
_geom_bond_atom_site_label_1
_geom_bond_atom_site_label_2
_geom_bond_site_symmetry_1
_geom_bond_site_symmetry_2
N1 C1 1_555 1_555
C1 H1 1_555 1_555
C2 N1 1_555 1_555
H2 C2 1_555 1_555
C3 C2 1_555 1_555
H3 C3 1_555 1_555
C4 C3 1_555 1_555
H4 C4 1_555 1_555
C5 C1 1_555 1_555
C6 C5 1_555 1_555
H5 C6 1_555 1_555
H6 C6 1_555 1_555
Ag1 N2 1_555 1_555
N2 N3 1_555 1_555
N3 N4 1_555 1_555
N4 C6 1_555 1_555
C7 H7 1_555 1_555
C8 N2 1_555 1_555
C9 C7 1_555 1_555
H8 C9 1_555 1_555
C10 N4 1_555 1_555
C11 C7 1_555 1_555
H9 C11 1_555 1_555
C12 C10 1_555 1_555
H10 C12 1_555 1_555
Cl1 O1 1_555 1_555
O2 Cl1 1_555 1_555
O3 Cl1 1_555 1_555
O4 Cl1 1_555 1_555
N1_2 Ag1 1_555 1_555
Ag1_2 N1 1_555 1_555
C4 C5 1_555 1_555
C8 C9 1_555 1_555
C8 C10 1_555 1_555
C11 C12 1_555 1_555

#END
