
#######################################################################
#
#                 Cambridge Crystallographic Data Centre
#                                CCDC 
#
#######################################################################
#
# If this CIF has been generated from an entry in the Cambridge 
# Structural Database, then it will include bibliographic, chemical, 
# crystal, experimental, refinement or atomic coordinate data resulting 
# from the CCDC's data processing and validation procedures.
#
#######################################################################

data_HAKXEX01
_symmetry_cell_setting           triclinic
_symmetry_space_group_name_H-M   'P -1'
_symmetry_Int_Tables_number      2
_space_group_name_Hall           '-P 1'
loop_
_symmetry_equiv_pos_site_id
_symmetry_equiv_pos_as_xyz
1 x,y,z
2 -x,-y,-z
_cell_length_a                   4.96726(10)
_cell_length_b                   7.08981(15)
_cell_length_c                   10.12196(28)
_cell_angle_alpha                92.6981(21)
_cell_angle_beta                 93.1525(18)
_cell_angle_gamma                109.1220(15)
_cell_volume                     335.485
loop_
_atom_site_label
_atom_site_type_symbol
_atom_site_fract_x
_atom_site_fract_y
_atom_site_fract_z
Ga1 Ga 0.0000 0.5000 0.5000
Ga2 Ga -0.5000 0.0000 0.5000
P1 P -0.5981(10) 0.3434(7) 0.3207(5)
O1 O -0.3347(15) 0.5063(12) 0.3890(8)
F1 F -0.1811(15) 0.2368(9) 0.5493(7)
O2 O -0.7105(17) 0.0895(14) 0.6450(8)
O3 O -0.6517(19) 0.1382(11) 0.3746(9)
O4 O -0.8706(16) 0.4123(13) 0.3365(7)
C1 C -0.5467(25) 0.3141(20) 0.1469(10)
C2 C -0.7820(26) 0.1454(19) 0.0693(14)
C3 C -0.8066(27) -0.0475(23) 0.0866(13)
C4 C -0.9705(33) 0.1977(15) -0.0169(15)
C4A C -1.0295(33) -0.1977(15) 0.0169(15)
C2A C -1.2180(26) -0.1454(19) -0.0693(14)
C1A C -1.4533(25) -0.3141(20) -0.1469(10)
P1A P -1.4019(10) -0.3434(7) -0.3207(5)
O1A O -1.6653(15) -0.5063(12) -0.3890(8)
O3A O -1.3483(19) -0.1382(11) -0.3746(9)
O4A O -1.1294(16) -0.4123(13) -0.3365(7)
C3A C -1.1934(27) 0.0475(23) -0.0866(13)
F1A F 0.1811(15) 0.7632(9) 0.4507(7)
O2A O -0.2895(17) -0.0895(14) 0.3550(8)
O1A_2 O 0.3347(15) 0.4937(12) 0.6110(8)
O4_2 O 0.1294(16) 0.4123(13) 0.3365(7)
O4A_2 O -0.1294(16) 0.5877(13) 0.6635(7)
F1A_2 F -0.8189(15) -0.2368(9) 0.4507(7)
O3A_2 O -0.3483(19) -0.1382(11) 0.6254(9)
Ga1_2 Ga -1.0000 0.5000 0.5000
Ga1_3 Ga -2.0000 -0.5000 -0.5000
Ga2_2 Ga -1.5000 0.0000 -0.5000
Ga1_4 Ga -1.0000 -0.5000 -0.5000
Ga2_3 Ga 0.5000 1.0000 0.5000
loop_
_geom_bond_atom_site_label_1
_geom_bond_atom_site_label_2
_geom_bond_site_symmetry_1
_geom_bond_site_symmetry_2
Ga1 O1 1_555 1_555
Ga2 F1 1_555 1_555
P1 O1 1_555 1_555
F1 Ga1 1_555 1_555
O2 Ga2 1_555 1_555
O3 Ga2 1_555 1_555
O4 P1 1_555 1_555
C1 P1 1_555 1_555
C2 C1 1_555 1_555
C3 C2 1_555 1_555
C4 C2 1_555 1_555
C4A C3 1_555 1_555
C2A C4A 1_555 1_555
C1A C2A 1_555 1_555
P1A C1A 1_555 1_555
O1A P1A 1_555 1_555
O3A P1A 1_555 1_555
O4A P1A 1_555 1_555
C3A C4 1_555 1_555
F1A Ga1 1_555 1_555
O2A Ga2 1_555 1_555
O1A_2 Ga1 1_555 1_555
O4_2 Ga1 1_555 1_555
O4A_2 Ga1 1_555 1_555
F1A_2 Ga2 1_555 1_555
O3A_2 Ga2 1_555 1_555
Ga1_2 O4 1_555 1_555
Ga1_3 O1A 1_555 1_555
Ga2_2 O3A 1_555 1_555
Ga1_4 O4A 1_555 1_555
Ga2_3 F1A 1_555 1_555
P1 O3 1_555 1_555
C2A C3A 1_555 1_555

#END
