
#######################################################################
#
#                 Cambridge Crystallographic Data Centre
#                                CCDC 
#
#######################################################################
#
# If this CIF has been generated from an entry in the Cambridge 
# Structural Database, then it will include bibliographic, chemical, 
# crystal, experimental, refinement or atomic coordinate data resulting 
# from the CCDC's data processing and validation procedures.
#
#######################################################################

data_HAKXEX
_symmetry_cell_setting           triclinic
_symmetry_space_group_name_H-M   'P -1'
_symmetry_Int_Tables_number      2
_space_group_name_Hall           '-P 1'
loop_
_symmetry_equiv_pos_site_id
_symmetry_equiv_pos_as_xyz
1 x,y,z
2 -x,-y,-z
_cell_length_a                   4.9587(15)
_cell_length_b                   7.078(2)
_cell_length_c                   10.024(3)
_cell_angle_alpha                92.404(5)
_cell_angle_beta                 92.955(5)
_cell_angle_gamma                109.187(5)
_cell_volume                     331.187
loop_
_atom_site_label
_atom_site_type_symbol
_atom_site_fract_x
_atom_site_fract_y
_atom_site_fract_z
Ga1 Ga 0.00000 1.00000 1.00000
Ga2 Ga 0.50000 1.50000 1.00000
P1 P -0.60033(12) 0.84839(8) 0.82450(6)
F1 F 0.1778(3) 1.2728(2) 0.95278(15)
O1 O -0.3288(3) 1.0077(2) 0.88863(16)
O2 O 0.2847(4) 1.5866(3) 1.14438(18)
H1 H 0.1122 1.5142 1.1521
H2 H 0.298 1.715 1.1425
O3 O -0.6523(4) 0.6397(3) 0.87623(18)
O4 O -0.8637(3) 0.9102(3) 0.84057(17)
C1 C -0.5512(6) 0.8253(4) 0.6502(3)
H3 H -0.5406 0.9506 0.6115
H4 H -0.3691 0.8047 0.6402
C2 C -0.7828(6) 0.6572(4) 0.5719(3)
C3 C -0.8011(6) 0.4572(5) 0.5850(3)
H5 H -0.6679 0.4272 0.6415
C4 C -0.9830(6) 0.6961(4) 0.4858(3)
H6 H -0.9723 0.8282 0.4752
C4A C -1.0170(6) 0.3039(4) 0.5142(3)
C2A C -1.2172(6) 0.3428(4) 0.4281(3)
C1A C -1.4488(6) 0.1747(4) 0.3498(3)
P1A P -1.39967(12) 0.15161(8) 0.17550(6)
O1A O -1.6712(3) -0.0077(2) 0.11137(16)
O3A O -1.3477(4) 0.3603(3) 0.12377(18)
O4A O -1.1363(3) 0.0898(3) 0.15943(17)
H3A H -1.4594 0.0494 0.3885
H4A H -1.6309 0.1953 0.3598
C3A C -1.1989(6) 0.5428(5) 0.4150(3)
H5A H -1.3321 0.5728 0.3585
H6A H -1.0277 0.1718 0.5248
F1A F -0.1778(3) 0.7272(2) 1.04722(15)
O2A O 0.7153(4) 1.4134(3) 0.85562(18)
H1A H 0.8878 1.4858 0.8479
H2A H 0.702 1.285 0.8575
O1A_2 O 0.3288(3) 0.9923(2) 1.11137(16)
O4_2 O 0.1363(3) 0.9102(3) 0.84057(17)
O4A_2 O -0.1363(3) 1.0898(3) 1.15943(17)
F1A_2 F 0.8222(3) 1.7272(2) 1.04722(15)
O3_2 O 0.3477(4) 1.6397(3) 0.87623(18)
O3A_2 O 0.6523(4) 1.3603(3) 1.12377(18)
Ga2_2 Ga -0.50000 0.50000 1.00000
Ga1_2 Ga -1.00000 1.00000 1.00000
Ga1_3 Ga -2.00000 0.00000 0.00000
Ga2_3 Ga -1.50000 0.50000 0.00000
Ga1_4 Ga -1.00000 0.00000 0.00000
loop_
_geom_bond_atom_site_label_1
_geom_bond_atom_site_label_2
_geom_bond_site_symmetry_1
_geom_bond_site_symmetry_2
Ga1 F1 1_555 1_555
Ga2 F1 1_555 1_555
P1 O1 1_555 1_555
O1 Ga1 1_555 1_555
O2 Ga2 1_555 1_555
H1 O2 1_555 1_555
H2 O2 1_555 1_555
O3 P1 1_555 1_555
O4 P1 1_555 1_555
C1 P1 1_555 1_555
H3 C1 1_555 1_555
H4 C1 1_555 1_555
C2 C1 1_555 1_555
C3 C2 1_555 1_555
H5 C3 1_555 1_555
C4 C2 1_555 1_555
H6 C4 1_555 1_555
C4A C3 1_555 1_555
C2A C4A 1_555 1_555
C1A C2A 1_555 1_555
P1A C1A 1_555 1_555
O1A P1A 1_555 1_555
O3A P1A 1_555 1_555
O4A P1A 1_555 1_555
H3A C1A 1_555 1_555
H4A C1A 1_555 1_555
C3A C4 1_555 1_555
H5A C3A 1_555 1_555
H6A C4A 1_555 1_555
F1A Ga1 1_555 1_555
O2A Ga2 1_555 1_555
H1A O2A 1_555 1_555
H2A O2A 1_555 1_555
O1A_2 Ga1 1_555 1_555
O4_2 Ga1 1_555 1_555
O4A_2 Ga1 1_555 1_555
F1A_2 Ga2 1_555 1_555
O3_2 Ga2 1_555 1_555
O3A_2 Ga2 1_555 1_555
Ga2_2 O3 1_555 1_555
Ga1_2 O4 1_555 1_555
Ga1_3 O1A 1_555 1_555
Ga2_3 O3A 1_555 1_555
Ga1_4 O4A 1_555 1_555
C2A C3A 1_555 1_555
F1A Ga2_2 1_555 1_555

#END
