
#######################################################################
#
#                 Cambridge Crystallographic Data Centre
#                                CCDC 
#
#######################################################################
#
# If this CIF has been generated from an entry in the Cambridge 
# Structural Database, then it will include bibliographic, chemical, 
# crystal, experimental, refinement or atomic coordinate data resulting 
# from the CCDC's data processing and validation procedures.
#
#######################################################################

data_HALFAB
_symmetry_cell_setting           monoclinic
_symmetry_space_group_name_H-M   'P 21'
_symmetry_Int_Tables_number      4
_space_group_name_Hall           'P 2yb'
loop_
_symmetry_equiv_pos_site_id
_symmetry_equiv_pos_as_xyz
1 x,y,z
2 -x,1/2+y,-z
_cell_length_a                   5.100(2)
_cell_length_b                   10.051(4)
_cell_length_c                   16.453(7)
_cell_angle_alpha                90
_cell_angle_beta                 94.82(5)
_cell_angle_gamma                90
_cell_volume                     840.4
loop_
_atom_site_label
_atom_site_type_symbol
_atom_site_fract_x
_atom_site_fract_y
_atom_site_fract_z
Cu1 Cu 0.1039(1) -0.2480(1) 0.2161(1)
O1 O -0.1780(5) -0.2785(2) 0.1362(1)
O2 O 0.4143(4) -0.2266(3) 0.2907(1)
O3 O 0.7881(5) -0.1196(3) 0.3038(2)
N1 N 0.2356(5) -0.0998(3) 0.1616(2)
N2 N 0.0420(6) -0.4207(3) 0.2669(2)
N3 N 0.2020(6) -0.4724(4) 0.3278(2)
C1 C -0.2141(6) -0.2190(3) 0.0655(2)
C2 C -0.0533(7) -0.1147(4) 0.0397(2)
C3 C -0.1013(8) -0.0618(5) -0.0396(2)
C4 C -0.3071(8) -0.1062(5) -0.0910(2)
C5 C -0.4691(7) -0.2047(5) -0.0648(2)
C6 C -0.4283(6) -0.2600(5) 0.0123(2)
C7 C 0.1601(7) -0.0604(4) 0.0903(2)
C8 C 0.4583(7) -0.0361(4) 0.2079(2)
C9 C 0.3637(9) 0.0894(5) 0.2497(3)
C10 C 0.5647(6) -0.1338(4) 0.2723(2)
C11 C 0.1248(8) -0.5913(5) 0.3479(3)
C12 C -0.0967(11) -0.6207(6) 0.2980(3)
C13 C -0.1411(9) -0.5094(5) 0.2485(3)
H1 H 0.0680(90) 0.0015(61) -0.0689(30)
H2 H -0.3599(73) -0.0656(52) -0.1443(26)
H3 H -0.6124(76) -0.2297(60) -0.0995(25)
H4 H -0.5371(99) -0.3305(65) 0.0328(32)
H5 H 0.2284(93) 0.0265(62) 0.0662(31)
H6 H 0.6286(75) -0.0063(50) 0.1798(29)
H7 H 0.3019(74) 0.1609(45) 0.2069(25)
H8 H 0.2230(98) 0.0773(64) 0.2721(34)
H9 H 0.5154(99) 0.1218(60) 0.2919(33)
H10 H 0.3850(98) -0.4585(70) 0.3388(40)
H11 H 0.2277(92) -0.6476(61) 0.3862(29)
H12 H -0.1673(92) -0.7262(78) 0.3059(32)
H13 H -0.2513(97) -0.4919(74) 0.2012(36)
O3_2 O -0.2119(5) -0.1196(3) 0.3038(2)
Cu1_2 Cu 1.1039(1) -0.2480(1) 0.2161(1)
N4 N 0.8051(6) -0.3064(4) 0.4377(2)
N5 N 0.6095(7) -0.3922(5) 0.4469(2)
C14 C 0.6904(10) -0.4582(7) 0.5134(3)
C15 C 0.9322(9) -0.4226(6) 0.5437(3)
C16 C 1.0072(10) -0.3225(6) 0.4961(3)
H14 H 0.7880(70) -0.2445(60) 0.3954(23)
H15 H 0.5493(96) -0.5387(67) 0.5338(35)
H16 H 1.0207(81) -0.4406(56) 0.5950(28)
H17 H 1.1661(87) -0.2945(65) 0.4896(30)
loop_
_geom_bond_atom_site_label_1
_geom_bond_atom_site_label_2
_geom_bond_site_symmetry_1
_geom_bond_site_symmetry_2
Cu1 O1 1_555 1_555
O1 C1 1_555 1_555
O2 Cu1 1_555 1_555
O3 C10 1_555 1_555
N1 Cu1 1_555 1_555
N2 Cu1 1_555 1_555
N3 N2 1_555 1_555
C1 C2 1_555 1_555
C2 C3 1_555 1_555
C3 C4 1_555 1_555
C4 C5 1_555 1_555
C5 C6 1_555 1_555
C6 C1 1_555 1_555
C7 N1 1_555 1_555
C8 N1 1_555 1_555
C9 C8 1_555 1_555
C10 O2 1_555 1_555
C11 N3 1_555 1_555
C12 C11 1_555 1_555
C13 N2 1_555 1_555
N4 N5 1_555 1_555
N5 C14 1_555 1_555
C14 C15 1_555 1_555
C15 C16 1_555 1_555
C16 N4 1_555 1_555
H1 C3 1_555 1_555
H2 C4 1_555 1_555
H3 C5 1_555 1_555
H4 C6 1_555 1_555
H5 C7 1_555 1_555
H6 C8 1_555 1_555
H7 C9 1_555 1_555
H8 C9 1_555 1_555
H9 C9 1_555 1_555
H10 N3 1_555 1_555
H11 C11 1_555 1_555
H12 C12 1_555 1_555
H13 C13 1_555 1_555
H14 N4 1_555 1_555
H15 C14 1_555 1_555
H16 C15 1_555 1_555
H17 C16 1_555 1_555
O3_2 Cu1 1_555 1_555
Cu1_2 O3 1_555 1_555
C2 C7 1_555 1_555
C8 C10 1_555 1_555
C12 C13 1_555 1_555

#END
