
#######################################################################
#
#                 Cambridge Crystallographic Data Centre
#                                CCDC 
#
#######################################################################
#
# If this CIF has been generated from an entry in the Cambridge 
# Structural Database, then it will include bibliographic, chemical, 
# crystal, experimental, refinement or atomic coordinate data resulting 
# from the CCDC's data processing and validation procedures.
#
#######################################################################

data_HALFUX
_symmetry_cell_setting           orthorhombic
_symmetry_space_group_name_H-M   'P b c n'
_symmetry_Int_Tables_number      60
_space_group_name_Hall           '-P 2n 2ab'
loop_
_symmetry_equiv_pos_site_id
_symmetry_equiv_pos_as_xyz
1 x,y,z
2 1/2-x,1/2-y,1/2+z
3 -x,y,1/2-z
4 1/2+x,1/2-y,-z
5 -x,-y,-z
6 1/2+x,1/2+y,1/2-z
7 x,-y,1/2+z
8 1/2-x,1/2+y,z
_cell_length_a                   7.2115(15)
_cell_length_b                   10.976(2)
_cell_length_c                   24.962(5)
_cell_angle_alpha                90
_cell_angle_beta                 90
_cell_angle_gamma                90
_cell_volume                     1975.83
loop_
_atom_site_label
_atom_site_type_symbol
_atom_site_fract_x
_atom_site_fract_y
_atom_site_fract_z
Co1 Co 0.0000 0.78751(6) 0.2500
Cl1 Cl 0.23246(18) 0.69069(14) 0.29117(5)
N1 N 0.1409(4) 0.8908(3) 0.19753(10)
N2 N 0.2224(4) 1.0367(3) 0.13973(12)
N3 N 0.3586(4) 0.9518(3) 0.14425(10)
C1 C 0.3090(5) 0.8669(3) 0.17869(13)
H1 H 0.3811 0.8002 0.1884
C2 C 0.0966(5) 0.9953(4) 0.17285(15)
H2 H -0.0151 1.0354 0.1788
C3 C 0.5346(4) 0.9637(3) 0.11547(12)
H3 H 0.6076 0.8906 0.1211
H4 H 0.6034 1.0318 0.1303
C4 C 0.5100(4) 0.9835(3) 0.05586(12)
C5 C 0.5236(4) 1.1013(3) 0.03463(12)
C6 C 0.5391(5) 1.2080(3) 0.06739(14)
H5 H 0.5387 1.1998 0.1045
C7 C 0.5544(5) 1.3200(3) 0.04569(15)
H6 H 0.5628 1.3878 0.0679
C8 C 0.5576(5) 1.3353(3) -0.01019(15)
H7 H 0.5729 1.4128 -0.0246
C9 C 0.5388(5) 1.2383(3) -0.04304(14)
H8 H 0.5400 1.2503 -0.0799
C10 C 0.5172(4) 1.1179(3) -0.02249(12)
Co1D Co 1.0000 1.21249(6) -0.2500
Cl1B Cl -0.23246(18) 0.69069(14) 0.20883(5)
N1D N 0.8591(4) 1.1092(3) -0.19753(10)
N1B N -0.1409(4) 0.8908(3) 0.30247(10)
N2D N 0.7776(4) 0.9633(3) -0.13973(12)
N3D N 0.6414(4) 1.0482(3) -0.14425(10)
C1D C 0.6910(5) 1.1331(3) -0.17869(13)
H1D H 0.6189 1.1998 -0.1884
C2D C 0.9034(5) 1.0047(4) -0.17285(15)
H2D H 1.0151 0.9646 -0.1788
C3D C 0.4654(4) 1.0363(3) -0.11547(12)
H3D H 0.3924 1.1094 -0.1211
H4D H 0.3966 0.9682 -0.1303
C4D C 0.4900(4) 1.0165(3) -0.05586(12)
C5D C 0.4764(4) 0.8987(3) -0.03463(12)
C6D C 0.4609(5) 0.7920(3) -0.06739(14)
H5D H 0.4613 0.8002 -0.1045
C7D C 0.4456(5) 0.6800(3) -0.04569(15)
H6D H 0.4372 0.6122 -0.0679
C8D C 0.4424(5) 0.6647(3) 0.01019(15)
H7D H 0.4271 0.5872 0.0246
C9D C 0.4612(5) 0.7617(3) 0.04304(14)
H8D H 0.4600 0.7497 0.0799
C10D C 0.4828(4) 0.8821(3) 0.02249(12)
loop_
_geom_bond_atom_site_label_1
_geom_bond_atom_site_label_2
_geom_bond_site_symmetry_1
_geom_bond_site_symmetry_2
Co1 Cl1 1_555 1_555
N1 Co1 1_555 1_555
N2 N3 1_555 1_555
N3 C1 1_555 1_555
C1 N1 1_555 1_555
H1 C1 1_555 1_555
C2 N1 1_555 1_555
H2 C2 1_555 1_555
C3 N3 1_555 1_555
H3 C3 1_555 1_555
H4 C3 1_555 1_555
C4 C3 1_555 1_555
C5 C4 1_555 1_555
C6 C5 1_555 1_555
H5 C6 1_555 1_555
C7 C6 1_555 1_555
H6 C7 1_555 1_555
C8 C7 1_555 1_555
H7 C8 1_555 1_555
C9 C8 1_555 1_555
H8 C9 1_555 1_555
C10 C5 1_555 1_555
Co1D N1D 1_555 1_555
Cl1B Co1 1_555 1_555
N1D C1D 1_555 1_555
N1B Co1 1_555 1_555
N2D N3D 1_555 1_555
N3D C1D 1_555 1_555
C1D H1D 1_555 1_555
C2D N1D 1_555 1_555
H2D C2D 1_555 1_555
C3D N3D 1_555 1_555
H3D C3D 1_555 1_555
H4D C3D 1_555 1_555
C4D C10 1_555 1_555
C5D C4D 1_555 1_555
C6D C5D 1_555 1_555
H5D C6D 1_555 1_555
C7D C6D 1_555 1_555
H6D C7D 1_555 1_555
C8D C7D 1_555 1_555
H7D C8D 1_555 1_555
C9D C8D 1_555 1_555
H8D C9D 1_555 1_555
C10D C4 1_555 1_555
N2 C2 1_555 1_555
C9 C10 1_555 1_555
N2D C2D 1_555 1_555
C3D C4D 1_555 1_555
C5D C10D 1_555 1_555
C9D C10D 1_555 1_555

#END
