
#######################################################################
#
#                 Cambridge Crystallographic Data Centre
#                                CCDC 
#
#######################################################################
#
# If this CIF has been generated from an entry in the Cambridge 
# Structural Database, then it will include bibliographic, chemical, 
# crystal, experimental, refinement or atomic coordinate data resulting 
# from the CCDC's data processing and validation procedures.
#
#######################################################################

data_HALHIN
_symmetry_cell_setting           monoclinic
_symmetry_space_group_name_H-M   'P 21/n'
_symmetry_Int_Tables_number      14
_space_group_name_Hall           '-P 2yn'
loop_
_symmetry_equiv_pos_site_id
_symmetry_equiv_pos_as_xyz
1 x,y,z
2 1/2-x,1/2+y,1/2-z
3 -x,-y,-z
4 1/2+x,1/2-y,1/2+z
_cell_length_a                   10.479(2)
_cell_length_b                   11.797(3)
_cell_length_c                   12.290(3)
_cell_angle_alpha                90
_cell_angle_beta                 113.551(2)
_cell_angle_gamma                90
_cell_volume                     1392.75
loop_
_atom_site_label
_atom_site_type_symbol
_atom_site_fract_x
_atom_site_fract_y
_atom_site_fract_z
O1 O 0.9184(2) 0.5933(2) 0.3371(2)
Mn1 Mn 0.5000 1.0000 0.0000
N1 N 0.67908(19) 0.87125(18) 0.05774(18)
C1 C 0.6723(2) 0.7805(2) 0.1214(2)
N2 N 0.4407(2) 0.85547(19) 0.0894(2)
C2 C 0.7873(3) 0.7108(2) 0.1806(2)
N3 N 0.4884(2) 0.6762(2) 0.1572(2)
C3 C 0.7989(3) 0.6100(3) 0.2621(3)
C4 C 0.9095(3) 0.7383(3) 0.1664(3)
H1 H 0.9889 0.6947 0.2045
C5 C 0.5316(3) 0.7689(2) 0.1235(2)
C6 C 0.7973(3) 0.8934(2) 0.0451(3)
H2 H 0.8006 0.9551 -0.0009
C7 C 0.3252(3) 0.8178(3) 0.1066(3)
C8 C 0.9148(3) 0.8275(3) 0.0980(3)
H3 H 0.9959 0.8437 0.0873
C9 C 0.3485(3) 0.6966(3) 0.1545(3)
C10 C 0.2406(4) 0.6162(3) 0.0684(4)
H4 H 0.1499 0.6372 0.0679
C11 C 0.3503(4) 0.6925(4) 0.2798(3)
H5 H 0.3756 0.6177 0.3120
H6 H 0.2596 0.7110 0.2763
H7 H 0.4169 0.7462 0.3296
C12 C 0.2308(5) 0.6299(4) -0.0564(4)
H8 H 0.3162 0.6054 -0.0603
H9 H 0.2148 0.7082 -0.0792
H10 H 0.1552 0.5849 -0.1094
C13 C 0.2675(7) 0.4932(4) 0.1086(7)
H11 H 0.1894 0.4476 0.0605
H12 H 0.2800 0.4878 0.1902
H13 H 0.3498 0.4668 0.1005
O2 O 0.2195(2) 0.8722(2) 0.0885(3)
O3 O 0.6957(3) 0.5499(3) 0.2483(3)
O1B O 0.0816(2) 1.4067(2) -0.3371(2)
O1A O 0.5816(2) 1.0933(2) 0.1629(2)
O1C O 0.4184(2) 0.9067(2) -0.1629(2)
Mn1A Mn 0.0000 1.5000 -0.5000
Mn1A_2 Mn 1.0000 0.5000 0.5000
N1B N 0.32092(19) 1.12875(18) -0.05774(18)
C1B C 0.3277(2) 1.2195(2) -0.1214(2)
N2B N 0.5593(2) 1.14453(19) -0.0894(2)
C2B C 0.2127(3) 1.2892(2) -0.1806(2)
N3B N 0.5116(2) 1.3238(2) -0.1572(2)
C3B C 0.2011(3) 1.3900(3) -0.2621(3)
C4B C 0.0905(3) 1.2617(3) -0.1664(3)
H1B H 0.0111 1.3053 -0.2045
C5B C 0.4684(3) 1.2311(2) -0.1235(2)
C6B C 0.2027(3) 1.1066(2) -0.0451(3)
H2B H 0.1994 1.0449 0.0009
C7B C 0.6748(3) 1.1822(3) -0.1066(3)
C8B C 0.0852(3) 1.1725(3) -0.0980(3)
H3B H 0.0041 1.1563 -0.0873
C9B C 0.6515(3) 1.3034(3) -0.1545(3)
C10B C 0.7594(4) 1.3838(3) -0.0684(4)
H4B H 0.8501 1.3628 -0.0679
C11B C 0.6497(4) 1.3075(4) -0.2798(3)
H5B H 0.6244 1.3823 -0.3120
H6B H 0.7404 1.2890 -0.2763
H7B H 0.5831 1.2538 -0.3296
C12B C 0.7692(5) 1.3701(4) 0.0564(4)
H8B H 0.6838 1.3946 0.0603
H9B H 0.7852 1.2918 0.0792
H10B H 0.8448 1.4151 0.1094
C13B C 0.7325(7) 1.5068(4) -0.1086(7)
H11B H 0.8106 1.5524 -0.0605
H12B H 0.7200 1.5122 -0.1902
H13B H 0.6502 1.5332 -0.1005
O2B O 0.7805(2) 1.1278(2) -0.0885(3)
O3B O 0.3043(3) 1.4501(3) -0.2483(3)
loop_
_geom_bond_atom_site_label_1
_geom_bond_atom_site_label_2
_geom_bond_site_symmetry_1
_geom_bond_site_symmetry_2
O1 C3 1_555 1_555
Mn1 N1 1_555 1_555
N1 C1 1_555 1_555
C1 C2 1_555 1_555
N2 Mn1 1_555 1_555
C2 C3 1_555 1_555
N3 C5 1_555 1_555
C3 O3 1_555 1_555
C4 C2 1_555 1_555
H1 C4 1_555 1_555
C5 C1 1_555 1_555
C6 N1 1_555 1_555
H2 C6 1_555 1_555
C7 N2 1_555 1_555
C8 C4 1_555 1_555
H3 C8 1_555 1_555
C9 N3 1_555 1_555
C10 C9 1_555 1_555
H4 C10 1_555 1_555
C11 C9 1_555 1_555
H5 C11 1_555 1_555
H6 C11 1_555 1_555
H7 C11 1_555 1_555
C12 C10 1_555 1_555
H8 C12 1_555 1_555
H9 C12 1_555 1_555
H10 C12 1_555 1_555
C13 C10 1_555 1_555
H11 C13 1_555 1_555
H12 C13 1_555 1_555
H13 C13 1_555 1_555
O2 C7 1_555 1_555
O1B Mn1A 1_555 1_555
O1A Mn1 1_555 1_555
O1C Mn1 1_555 1_555
Mn1A_2 O1 1_555 1_555
N1B Mn1 1_555 1_555
C1B N1B 1_555 1_555
N2B Mn1 1_555 1_555
C2B C1B 1_555 1_555
N3B C5B 1_555 1_555
C3B O1B 1_555 1_555
C4B C2B 1_555 1_555
H1B C4B 1_555 1_555
C5B C1B 1_555 1_555
C6B N1B 1_555 1_555
H2B C6B 1_555 1_555
C7B N2B 1_555 1_555
C8B C4B 1_555 1_555
H3B C8B 1_555 1_555
C9B N3B 1_555 1_555
C10B C9B 1_555 1_555
H4B C10B 1_555 1_555
C11B C9B 1_555 1_555
H5B C11B 1_555 1_555
H6B C11B 1_555 1_555
H7B C11B 1_555 1_555
C12B C10B 1_555 1_555
H8B C12B 1_555 1_555
H9B C12B 1_555 1_555
H10B C12B 1_555 1_555
C13B C10B 1_555 1_555
H11B C13B 1_555 1_555
H12B C13B 1_555 1_555
H13B C13B 1_555 1_555
O2B C7B 1_555 1_555
O3B C3B 1_555 1_555
N2 C5 1_555 1_555
C6 C8 1_555 1_555
C7 C9 1_555 1_555
N2B C5B 1_555 1_555
C2B C3B 1_555 1_555
C6B C8B 1_555 1_555
C7B C9B 1_555 1_555

#END
