
#######################################################################
#
#                 Cambridge Crystallographic Data Centre
#                                CCDC 
#
#######################################################################
#
# If this CIF has been generated from an entry in the Cambridge 
# Structural Database, then it will include bibliographic, chemical, 
# crystal, experimental, refinement or atomic coordinate data resulting 
# from the CCDC's data processing and validation procedures.
#
#######################################################################

data_HALKEL
_symmetry_cell_setting           monoclinic
_symmetry_space_group_name_H-M   'P 21/c'
_symmetry_Int_Tables_number      14
_space_group_name_Hall           '-P 2ybc'
loop_
_symmetry_equiv_pos_site_id
_symmetry_equiv_pos_as_xyz
1 x,y,z
2 x,1/2-y,1/2+z
3 -x,-y,-z
4 -x,1/2+y,1/2-z
_cell_length_a                   14.207(4)
_cell_length_b                   17.681(6)
_cell_length_c                   10.292(3)
_cell_angle_alpha                90
_cell_angle_beta                 109.445(8)
_cell_angle_gamma                90
_cell_volume                     2437.83
loop_
_atom_site_label
_atom_site_type_symbol
_atom_site_fract_x
_atom_site_fract_y
_atom_site_fract_z
Sn1 Sn 0.06405(8) 0.70536(6) 0.82060(9)
O1 O 0.0634(7) 0.6224(6) 0.9754(10)
O2 O 0.0655(8) 0.7088(7) 1.1313(9)
C1 C -0.0756(12) 0.7541(13) 0.8058(16)
H1 H -0.0939 0.7397 0.8852
H2 H -0.0709 0.8088 0.8045
C2 C -0.1541(13) 0.7268(14) 0.675(2)
H3 H -0.1368 0.7467 0.5985
H4 H -0.1482 0.6722 0.6728
C3 C -0.2580(14) 0.7440(15) 0.650(2)
H5 H -0.2648 0.7986 0.6509
H6 H -0.2762 0.7241 0.7259
C4 C -0.3303(17) 0.7157(14) 0.522(2)
H7 H -0.3967 0.7276 0.5198
H8 H -0.3234 0.6619 0.5166
H9 H -0.3184 0.7391 0.4444
C5 C 0.2083(12) 0.7500(10) 0.9303(17)
H10 H 0.2366 0.7688 0.8628
H11 H 0.1990 0.7933 0.9826
C6 C 0.2843(11) 0.6997(10) 1.0272(19)
H12 H 0.2587 0.6839 1.0992
H13 H 0.2910 0.6547 0.9770
C7 C 0.3845(12) 0.7316(11) 1.093(2)
H14 H 0.3771 0.7777 1.1402
H15 H 0.4106 0.7460 1.0209
C8 C 0.4604(14) 0.6846(13) 1.193(2)
H16 H 0.5224 0.7117 1.2245
H17 H 0.4694 0.6386 1.1486
H18 H 0.4388 0.6729 1.2693
C9 C 0.0600(16) 0.6165(13) 0.6792(19)
H19 H 0.0022 0.5851 0.6707
H20 H 0.0503 0.6388 0.5895
C10 C 0.1483(18) 0.5676(12) 0.714(2)
H21 H 0.2053 0.5992 0.7199
H22 H 0.1592 0.5476 0.8061
C11 C 0.1488(19) 0.5036(12) 0.624(3)
H23 H 0.1382 0.5219 0.5314
H24 H 0.0948 0.4692 0.6208
C12 C 0.2446(19) 0.4634(15) 0.675(3)
H25 H 0.2439 0.4214 0.6157
H26 H 0.2548 0.4451 0.7668
H27 H 0.2978 0.4973 0.6768
C13 C 0.0715(12) 0.6432(11) 1.0994(18)
C14 C 0.0880(13) 0.5758(10) 1.1975(16)
H28 H 0.0902 0.5941 1.2874
H29 H 0.0310 0.5421 1.1642
C15 C 0.1774(14) 0.5330(10) 1.2136(17)
C16 C 0.1831(16) 0.4792(11) 1.118(2)
H30 H 0.1265 0.4687 1.0433
C17 C 0.2677(16) 0.4419(11) 1.131(2)
H31 H 0.2669 0.4054 1.0660
C18 C 0.3528(18) 0.4546(13) 1.233(2)
C19 C 0.3547(16) 0.5071(12) 1.323(2)
H32 H 0.4141 0.5176 1.3938
C20 C 0.2664(14) 0.5486(11) 1.3141(19)
H33 H 0.2694 0.5868 1.3775
C21 C 0.450(3) 0.412(2) 1.253(4)
H34 H 0.4973 0.4263 1.3419
H35 H 0.4374 0.3586 1.2547
C22 C 0.494(3) 0.427(3) 1.149(5)
H36 H 0.5540 0.3976 1.1672
H37 H 0.5106 0.4799 1.1496
H38 H 0.4481 0.4138 1.0601
O2A O 0.0655(8) 0.7912(7) 0.6313(9)
Sn1A Sn 0.06405(8) 0.79464(6) 1.32060(9)
loop_
_geom_bond_atom_site_label_1
_geom_bond_atom_site_label_2
_geom_bond_site_symmetry_1
_geom_bond_site_symmetry_2
Sn1 O1 1_555 1_555
O1 C13 1_555 1_555
O2 C13 1_555 1_555
C1 Sn1 1_555 1_555
H1 C1 1_555 1_555
H2 C1 1_555 1_555
C2 C1 1_555 1_555
H3 C2 1_555 1_555
H4 C2 1_555 1_555
C3 C2 1_555 1_555
H5 C3 1_555 1_555
H6 C3 1_555 1_555
C4 C3 1_555 1_555
H7 C4 1_555 1_555
H8 C4 1_555 1_555
H9 C4 1_555 1_555
C5 Sn1 1_555 1_555
H10 C5 1_555 1_555
H11 C5 1_555 1_555
C6 C5 1_555 1_555
H12 C6 1_555 1_555
H13 C6 1_555 1_555
C7 C6 1_555 1_555
H14 C7 1_555 1_555
H15 C7 1_555 1_555
C8 C7 1_555 1_555
H16 C8 1_555 1_555
H17 C8 1_555 1_555
H18 C8 1_555 1_555
C9 Sn1 1_555 1_555
H19 C9 1_555 1_555
H20 C9 1_555 1_555
C10 C9 1_555 1_555
H21 C10 1_555 1_555
H22 C10 1_555 1_555
C11 C10 1_555 1_555
H23 C11 1_555 1_555
H24 C11 1_555 1_555
C12 C11 1_555 1_555
H25 C12 1_555 1_555
H26 C12 1_555 1_555
H27 C12 1_555 1_555
C13 C14 1_555 1_555
C14 H28 1_555 1_555
H29 C14 1_555 1_555
C15 C14 1_555 1_555
C16 C15 1_555 1_555
H30 C16 1_555 1_555
C17 C16 1_555 1_555
H31 C17 1_555 1_555
C18 C17 1_555 1_555
C19 C18 1_555 1_555
H32 C19 1_555 1_555
C20 C15 1_555 1_555
H33 C20 1_555 1_555
C21 C18 1_555 1_555
H34 C21 1_555 1_555
H35 C21 1_555 1_555
C22 C21 1_555 1_555
H36 C22 1_555 1_555
H37 C22 1_555 1_555
H38 C22 1_555 1_555
O2A Sn1 1_555 1_555
Sn1A O2 1_555 1_555
C19 C20 1_555 1_555

#END
