
#######################################################################
#
#                 Cambridge Crystallographic Data Centre
#                                CCDC 
#
#######################################################################
#
# If this CIF has been generated from an entry in the Cambridge 
# Structural Database, then it will include bibliographic, chemical, 
# crystal, experimental, refinement or atomic coordinate data resulting 
# from the CCDC's data processing and validation procedures.
#
#######################################################################

data_HALZEA
_symmetry_cell_setting           monoclinic
_symmetry_space_group_name_H-M   'P 21/c'
_symmetry_Int_Tables_number      14
_space_group_name_Hall           '-P 2ybc'
loop_
_symmetry_equiv_pos_site_id
_symmetry_equiv_pos_as_xyz
1 x,y,z
2 x,1/2-y,1/2+z
3 -x,-y,-z
4 -x,1/2+y,1/2-z
_cell_length_a                   7.659(5)
_cell_length_b                   15.722(4)
_cell_length_c                   8.210(4)
_cell_angle_alpha                90
_cell_angle_beta                 111.51(5)
_cell_angle_gamma                90
_cell_volume                     919.753
loop_
_atom_site_label
_atom_site_type_symbol
_atom_site_fract_x
_atom_site_fract_y
_atom_site_fract_z
I1 I 0.44722(3) 0.615159(14) 0.63109(3)
Cu1 Cu 0.33195(7) 0.46243(3) 0.51545(6)
N1 N 0.0747(4) 0.4626(2) 0.3233(4)
C1 C -0.0565(5) 0.4603(2) 0.2008(5)
C2 C -0.2192(5) 0.4572(2) 0.0352(4)
H1 H -0.2143 0.5050 -0.0377
H2 H -0.3338 0.4617 0.0591
C3 C -0.2211(5) 0.3742(2) -0.0622(5)
H3 H -0.2607 0.3275 -0.0066
H4 H -0.3081 0.3785 -0.1825
O1 O -0.0377(3) 0.35930(15) -0.0579(3)
C4 C -0.0264(6) 0.2860(2) -0.1520(5)
H5 H -0.1036 0.2928 -0.2748
H6 H -0.0712 0.2369 -0.1073
C5 C 0.1774(6) 0.2733(2) -0.1307(5)
H7 H 0.2552 0.2761 -0.0073
H8 H 0.1919 0.2170 -0.1726
C6 C 0.2428(5) 0.3367(2) -0.2258(4)
N2 N 0.2941(4) 0.38499(19) -0.3013(4)
Cu1B Cu 0.66805(7) 0.53757(3) 0.48455(6)
I1B I 0.55278(3) 0.384841(14) 0.36891(3)
N2_2 N 0.2941(4) 0.38499(19) 0.6987(4)
Cu1_2 Cu 0.33195(7) 0.46243(3) -0.48455(6)
loop_
_geom_bond_atom_site_label_1
_geom_bond_atom_site_label_2
_geom_bond_site_symmetry_1
_geom_bond_site_symmetry_2
I1 Cu1 1_555 1_555
Cu1 N1 1_555 1_555
N1 C1 1_555 1_555
C1 C2 1_555 1_555
C2 H1 1_555 1_555
H2 C2 1_555 1_555
C3 C2 1_555 1_555
H3 C3 1_555 1_555
H4 C3 1_555 1_555
O1 C3 1_555 1_555
C4 O1 1_555 1_555
H5 C4 1_555 1_555
H6 C4 1_555 1_555
C5 C4 1_555 1_555
H7 C5 1_555 1_555
H8 C5 1_555 1_555
C6 C5 1_555 1_555
N2 C6 1_555 1_555
Cu1B I1 1_555 1_555
I1B Cu1 1_555 1_555
N2_2 Cu1 1_555 1_555
Cu1_2 N2 1_555 1_555
Cu1B I1B 1_555 1_555

#END
