
#######################################################################
#
#                 Cambridge Crystallographic Data Centre
#                                CCDC 
#
#######################################################################
#
# If this CIF has been generated from an entry in the Cambridge 
# Structural Database, then it will include bibliographic, chemical, 
# crystal, experimental, refinement or atomic coordinate data resulting 
# from the CCDC's data processing and validation procedures.
#
#######################################################################

data_HAMBOO01
_symmetry_cell_setting           triclinic
_symmetry_space_group_name_H-M   'P -1'
_symmetry_Int_Tables_number      2
_space_group_name_Hall           '-P 1'
loop_
_symmetry_equiv_pos_site_id
_symmetry_equiv_pos_as_xyz
1 x,y,z
2 -x,-y,-z
_cell_length_a                   6.8260(5)
_cell_length_b                   11.0812(7)
_cell_length_c                   16.7789(12)
_cell_angle_alpha                80.324(3)
_cell_angle_beta                 88.402(4)
_cell_angle_gamma                74.916(3)
_cell_volume                     1207.83
loop_
_atom_site_label
_atom_site_type_symbol
_atom_site_fract_x
_atom_site_fract_y
_atom_site_fract_z
Ba1 Ba 0.25149(2) -0.205391(12) 0.508575(8)
Ba2 Ba -0.16474(2) 0.442951(12) 0.245701(8)
O1 O 0.2225(4) -0.45528(18) 0.58561(12)
H1 H 0.135(5) -0.463(3) 0.555(2)
H2 H 0.331(4) -0.515(3) 0.585(2)
O2 O 0.6396(4) -0.3852(2) 0.56545(16)
H3 H 0.645(7) -0.463(2) 0.582(3)
H4 H 0.725(6) -0.382(4) 0.600(2)
O3 O 0.5984(3) -0.12980(18) 0.46700(13)
H5 H 0.675(5) -0.115(3) 0.4996(19)
H6 H 0.593(6) -0.071(3) 0.4275(16)
O4 O -0.0340(3) -0.3182(3) 0.44638(15)
H7 H -0.035(7) -0.313(4) 0.3955(9)
H8 H -0.155(3) -0.283(4) 0.456(3)
O5 O 0.2350(4) 0.4338(2) 0.2524(2)
H9 H 0.343(5) 0.374(4) 0.254(3)
H10 H 0.290(8) 0.493(4) 0.255(3)
O6 O -0.4278(6) 0.4692(3) 0.11160(17)
H11 H -0.336(6) 0.487(5) 0.082(3)
H12 H -0.547(4) 0.509(5) 0.098(3)
O7 O 0.0115(7) 0.3681(3) 0.1059(2)
H13 H 0.124(6) 0.375(6) 0.126(4)
H14 H 0.101(8) 0.357(6) 0.071(3)
N1 N 0.2597(3) -0.10587(17) 0.33754(12)
C1 C 0.1943(4) 0.0186(2) 0.30693(14)
C2 C 0.1895(4) 0.0670(2) 0.22541(15)
H15 H 0.1473 0.1540 0.2076
C3 C 0.2483(4) -0.0158(2) 0.17039(14)
C4 C 0.3162(4) -0.1448(2) 0.20008(15)
H16 H 0.3573 -0.2032 0.1651
C5 C 0.3211(4) -0.1843(2) 0.28356(14)
C6 C 0.4035(4) -0.3237(2) 0.31817(15)
C7 C 0.1224(4) 0.1060(2) 0.36848(14)
O8 O 0.2369(4) 0.03331(19) 0.09169(11)
H17 H 0.275(6) -0.017(4) 0.066(2)
O9 O 0.4628(3) -0.39814(16) 0.26856(11)
O10 O 0.4098(3) -0.35582(16) 0.39358(11)
O11 O 0.1339(3) 0.05667(15) 0.44200(10)
O12 O 0.0494(3) 0.22101(16) 0.34332(12)
N2 N 0.2438(3) 0.05044(18) 0.75960(13)
H18 H 0.228(5) 0.086(3) 0.7095(19)
C8 C 0.3058(4) -0.0779(2) 0.77555(15)
C9 C 0.3279(4) -0.1396(2) 0.85345(15)
H19 H 0.3698 -0.2277 0.8639
C10 C 0.2873(4) -0.0704(2) 0.91916(15)
C11 C 0.2237(4) 0.0641(2) 0.89811(15)
H20 H 0.1954 0.1136 0.9387
C12 C 0.2041(4) 0.1210(2) 0.81917(14)
C13 C 0.1416(4) 0.2637(2) 0.79236(16)
C14 C 0.3433(4) -0.1448(2) 0.70281(15)
O13 O 0.3106(4) -0.12717(17) 0.99259(11)
O14 O 0.1153(4) 0.32999(17) 0.84717(12)
O15 O 0.1277(4) 0.30395(17) 0.71857(12)
O16 O 0.3257(4) -0.07568(18) 0.63503(11)
O17 O 0.3848(3) -0.26295(16) 0.71612(12)
Ba1A Ba -0.25149(2) 0.205391(12) 0.491425(8)
Ba2_2 Ba 0.83526(2) -0.557049(12) 0.245701(8)
Ba2A Ba 0.16474(2) -0.442951(12) 0.754299(8)
Ba2A_2 Ba 0.16474(2) 0.557049(12) 0.754299(8)
O1A O -0.2225(4) 0.45528(18) 0.41439(12)
O9_2 O -0.5372(3) 0.60186(16) 0.26856(11)
O11A O -0.1339(3) -0.05667(15) 0.55800(10)
O12A O -0.0494(3) -0.22101(16) 0.65668(12)
O14A O -0.1153(4) 0.67001(17) 0.15283(12)
O15A O -0.1277(4) 0.69605(17) 0.28143(12)
O17A O -0.3848(3) 0.26295(16) 0.28388(12)
O18 O 0.3263(7) 0.3290(4) -0.0048(3)
H21 H 0.284(11) 0.334(7) -0.0581(19)
H22 H 0.419(8) 0.251(4) 0.013(4)
O19 O 0.1990(7) 0.6445(3) 0.0391(2)
H23 H 0.106(8) 0.669(6) 0.002(3)
H24 H 0.206(10) 0.721(3) 0.031(4)
loop_
_geom_bond_atom_site_label_1
_geom_bond_atom_site_label_2
_geom_bond_site_symmetry_1
_geom_bond_site_symmetry_2
Ba1 O1 1_555 1_555
Ba2 O5 1_555 1_555
O1 H1 1_555 1_555
H2 O1 1_555 1_555
O2 Ba1 1_555 1_555
H3 O2 1_555 1_555
H4 O2 1_555 1_555
O3 Ba1 1_555 1_555
H5 O3 1_555 1_555
H6 O3 1_555 1_555
O4 Ba1 1_555 1_555
H7 O4 1_555 1_555
H8 O4 1_555 1_555
O5 H9 1_555 1_555
H10 O5 1_555 1_555
O6 Ba2 1_555 1_555
H11 O6 1_555 1_555
H12 O6 1_555 1_555
O7 Ba2 1_555 1_555
H13 O7 1_555 1_555
H14 O7 1_555 1_555
N1 Ba1 1_555 1_555
C1 N1 1_555 1_555
C2 C1 1_555 1_555
H15 C2 1_555 1_555
C3 C2 1_555 1_555
C4 C3 1_555 1_555
H16 C4 1_555 1_555
C5 N1 1_555 1_555
C6 C5 1_555 1_555
C7 C1 1_555 1_555
O8 C3 1_555 1_555
H17 O8 1_555 1_555
O9 C6 1_555 1_555
O10 Ba1 1_555 1_555
O11 Ba1 1_555 1_555
O12 Ba2 1_555 1_555
N2 H18 1_555 1_555
C8 N2 1_555 1_555
C9 C8 1_555 1_555
H19 C9 1_555 1_555
C10 C9 1_555 1_555
C11 C10 1_555 1_555
H20 C11 1_555 1_555
C12 N2 1_555 1_555
C13 C12 1_555 1_555
C14 C8 1_555 1_555
O13 C10 1_555 1_555
O14 C13 1_555 1_555
O15 C13 1_555 1_555
O16 Ba1 1_555 1_555
O17 C14 1_555 1_555
O18 H21 1_555 1_555
H22 O18 1_555 1_555
O19 H23 1_555 1_555
H24 O19 1_555 1_555
Ba1A O11 1_555 1_555
Ba2_2 O9 1_555 1_555
Ba2A O1 1_555 1_555
Ba2A_2 O14 1_555 1_555
O1A Ba2 1_555 1_555
O9_2 Ba2 1_555 1_555
O11A Ba1 1_555 1_555
O12A Ba1 1_555 1_555
O14A Ba2 1_555 1_555
O15A Ba2 1_555 1_555
O17A Ba2 1_555 1_555
C4 C5 1_555 1_555
C6 O10 1_555 1_555
C7 O11 1_555 1_555
C7 O12 1_555 1_555
O12 Ba1A 1_555 1_555
C11 C12 1_555 1_555
C14 O16 1_555 1_555
O15 Ba2A_2 1_555 1_555
O17 Ba2A 1_555 1_555
Ba1A O1A 1_555 1_555
Ba1A O11A 1_555 1_555
Ba2A O12A 1_555 1_555

#END
