
#######################################################################
#
#                 Cambridge Crystallographic Data Centre
#                                CCDC 
#
#######################################################################
#
# If this CIF has been generated from an entry in the Cambridge 
# Structural Database, then it will include bibliographic, chemical, 
# crystal, experimental, refinement or atomic coordinate data resulting 
# from the CCDC's data processing and validation procedures.
#
#######################################################################

data_HAMBOO
_symmetry_cell_setting           triclinic
_symmetry_space_group_name_H-M   'P -1'
_symmetry_Int_Tables_number      2
_space_group_name_Hall           '-P 1'
loop_
_symmetry_equiv_pos_site_id
_symmetry_equiv_pos_as_xyz
1 x,y,z
2 -x,-y,-z
_cell_length_a                   6.8235(14)
_cell_length_b                   11.065(2)
_cell_length_c                   16.728(3)
_cell_angle_alpha                80.26(3)
_cell_angle_beta                 88.38(3)
_cell_angle_gamma                74.90(3)
_cell_volume                     1201.65
loop_
_atom_site_label
_atom_site_type_symbol
_atom_site_fract_x
_atom_site_fract_y
_atom_site_fract_z
Ba1 Ba 0.24869(3) 0.705265(17) 0.991525(11)
Ba2 Ba 0.33575(3) 0.942988(17) 0.745808(11)
C1 C 0.1950(5) 0.5775(3) 0.7246(2)
N1 N 0.2567(5) 0.4491(3) 0.74064(17)
H1 H 0.245(9) 0.422(5) 0.789(4)
C2 C 0.2778(6) 0.4356(3) 0.6018(2)
H2 H 0.3078 0.3862 0.5611
C3 C 0.2960(5) 0.3789(3) 0.6809(2)
O1 O 0.1733(6) 0.5757(3) 0.86507(16)
O2 O 0.1892(6) 0.6267(3) 0.50717(16)
C4 C 0.1568(5) 0.6451(3) 0.7972(2)
O3 O 0.1153(5) 0.7629(3) 0.78395(19)
C5 C 0.2129(6) 0.5707(4) 0.5808(2)
C6 C 0.1725(6) 0.6404(3) 0.6463(2)
H3 H 0.1309 0.7286 0.6358
O4 O 0.6341(4) 0.5566(2) 0.94235(15)
O5 O 0.9628(4) 0.1019(2) 0.76865(17)
O6 O 0.9106(5) 0.1444(3) 0.89373(16)
N2 N 0.7597(4) 0.3942(2) 0.83721(16)
O7 O 0.5478(5) 0.7211(3) 0.84341(18)
C7 C 0.8217(5) 0.3153(3) 0.78347(18)
C8 C 0.6947(5) 0.5184(3) 0.80709(18)
C9 C 0.8164(5) 0.3554(3) 0.7003(2)
H4 H 0.8581 0.2970 0.6652
C10 C 0.6221(5) 0.6065(3) 0.86822(19)
C11 C 0.7477(6) 0.4845(3) 0.67022(19)
C12 C 0.6896(5) 0.5674(3) 0.7255(2)
H5 H 0.6478 0.6546 0.7077
O8 O 0.7374(6) 0.5330(3) 0.59169(16)
H6 H 0.785(9) 0.469(6) 0.558(4)
O9 O 0.3857(6) 0.1700(3) 0.65327(19)
O10 O 0.3723(6) 0.1958(3) 0.78161(18)
C13 C 0.9040(5) 0.1768(3) 0.8181(2)
C14 C 0.3595(6) 0.2362(3) 0.7078(2)
O11 O 0.7353(6) 0.9341(4) 0.7517(4)
H7 H 0.834(10) 0.872(6) 0.743(6)
H8 H 0.754(15) 0.994(7) 0.775(6)
O12 O 0.0740(9) 0.9697(5) 0.6115(3)
H9 H 0.170(11) 0.993(9) 0.585(5)
H10 H -0.055(4) 0.998(9) 0.605(6)
O13 O 0.5135(10) 0.8677(6) 0.6063(3)
H11 H 0.528(14) 0.829(10) 0.564(4)
H12 H 0.634(7) 0.867(11) 0.622(6)
O14 O 0.2777(5) 0.9550(3) 0.91417(18)
H13 H 0.174(7) 1.020(4) 0.917(4)
H14 H 0.384(6) 0.951(6) 0.942(3)
O15 O 0.5346(5) 0.8171(4) 1.0536(2)
H15 H 0.653(6) 0.777(7) 1.039(5)
H16 H 0.531(12) 0.816(7) 1.1050(14)
O16 O -0.0992(4) 0.6297(3) 1.03326(19)
H17 H -0.093(10) 0.576(5) 1.077(2)
H18 H -0.161(9) 0.604(6) 0.999(3)
O17 O -0.1389(6) 0.8855(4) 0.9340(2)
H19 H -0.143(13) 0.965(3) 0.926(5)
H20 H -0.229(10) 0.886(8) 0.899(4)
Ba1A Ba 0.75131(3) 0.294735(17) 1.008475(11)
Ba2_2 Ba 1.33575(3) -0.057012(17) 0.745808(11)
Ba2_3 Ba 0.33575(3) -0.057012(17) 0.745808(11)
O4A O 0.3659(4) 0.4434(2) 1.05765(15)
O5_2 O -0.0372(4) 1.1019(2) 0.76865(17)
O6A O 0.0894(5) 0.8556(3) 1.10627(16)
N2A N 0.2403(4) 0.6058(2) 1.16279(16)
O9_2 O 0.3857(6) 1.1700(3) 0.65327(19)
O10_2 O 0.3723(6) 1.1958(3) 0.78161(18)
O18 O 0.3020(11) 0.8544(5) 0.4626(4)
H21 H 0.395(13) 0.843(11) 0.427(6)
H22 H 0.29(2) 0.777(4) 0.467(8)
O19 O 0.8257(11) 0.8287(6) 0.4953(4)
H23 H 0.838(19) 0.830(12) 0.4426(18)
H24 H 0.891(16) 0.748(4) 0.505(8)
loop_
_geom_bond_atom_site_label_1
_geom_bond_atom_site_label_2
_geom_bond_site_symmetry_1
_geom_bond_site_symmetry_2
Ba1 O1 1_555 1_555
Ba2 O3 1_555 1_555
C1 N1 1_555 1_555
N1 H1 1_555 1_555
C2 H2 1_555 1_555
C3 N1 1_555 1_555
O1 C4 1_555 1_555
O2 C5 1_555 1_555
C4 C1 1_555 1_555
O3 C4 1_555 1_555
C5 C2 1_555 1_555
C6 C1 1_555 1_555
H3 C6 1_555 1_555
O4 Ba1 1_555 1_555
O5 C13 1_555 1_555
O6 C13 1_555 1_555
N2 C7 1_555 1_555
O7 Ba2 1_555 1_555
C7 C9 1_555 1_555
C8 N2 1_555 1_555
C9 H4 1_555 1_555
C10 O4 1_555 1_555
C11 C9 1_555 1_555
C12 C8 1_555 1_555
H5 C12 1_555 1_555
O8 C11 1_555 1_555
H6 O8 1_555 1_555
O9 C14 1_555 1_555
O10 C14 1_555 1_555
C13 C7 1_555 1_555
C14 C3 1_555 1_555
O11 Ba2 1_555 1_555
H7 O11 1_555 1_555
H8 O11 1_555 1_555
O12 Ba2 1_555 1_555
H9 O12 1_555 1_555
H10 O12 1_555 1_555
O13 Ba2 1_555 1_555
H11 O13 1_555 1_555
H12 O13 1_555 1_555
O14 Ba1 1_555 1_555
H13 O14 1_555 1_555
H14 O14 1_555 1_555
O15 Ba1 1_555 1_555
H15 O15 1_555 1_555
H16 O15 1_555 1_555
O16 Ba1 1_555 1_555
H17 O16 1_555 1_555
H18 O16 1_555 1_555
O17 Ba1 1_555 1_555
H19 O17 1_555 1_555
H20 O17 1_555 1_555
O18 H21 1_555 1_555
H22 O18 1_555 1_555
O19 H23 1_555 1_555
H24 O19 1_555 1_555
Ba1A O4 1_555 1_555
Ba2_2 O5 1_555 1_555
Ba2_3 O9 1_555 1_555
O4A Ba1 1_555 1_555
O5_2 Ba2 1_555 1_555
O6A Ba1 1_555 1_555
N2A Ba1 1_555 1_555
O9_2 Ba2 1_555 1_555
O10_2 Ba2 1_555 1_555
Ba2 O14 1_555 1_555
C2 C3 1_555 1_555
C5 C6 1_555 1_555
O6 Ba1A 1_555 1_555
N2 Ba1A 1_555 1_555
O7 C10 1_555 1_555
C8 C10 1_555 1_555
C11 C12 1_555 1_555
O10 Ba2_3 1_555 1_555
Ba1A O4A 1_555 1_555

#END
