
#######################################################################
#
#                 Cambridge Crystallographic Data Centre
#                                CCDC 
#
#######################################################################
#
# If this CIF has been generated from an entry in the Cambridge 
# Structural Database, then it will include bibliographic, chemical, 
# crystal, experimental, refinement or atomic coordinate data resulting 
# from the CCDC's data processing and validation procedures.
#
#######################################################################

data_HAMFIM
_symmetry_cell_setting           orthorhombic
_symmetry_space_group_name_H-M   'P b c n'
_symmetry_Int_Tables_number      60
_space_group_name_Hall           '-P 2n 2ab'
loop_
_symmetry_equiv_pos_site_id
_symmetry_equiv_pos_as_xyz
1 x,y,z
2 1/2-x,1/2-y,1/2+z
3 1/2+x,1/2-y,-z
4 -x,y,1/2-z
5 -x,-y,-z
6 1/2+x,1/2+y,1/2-z
7 1/2-x,1/2+y,z
8 x,-y,1/2+z
_cell_length_a                   21.2145(6)
_cell_length_b                   9.7427(3)
_cell_length_c                   6.4590(2)
_cell_angle_alpha                90
_cell_angle_beta                 90
_cell_angle_gamma                90
_cell_volume                     1334.99
loop_
_atom_site_label
_atom_site_type_symbol
_atom_site_fract_x
_atom_site_fract_y
_atom_site_fract_z
O1 O 0.36918(10) 0.2272(2) 0.1364(4)
O2 O 0.43862(10) 0.0631(2) 0.1419(4)
N1 N 0.25095(13) 0.1710(3) 0.0807(5)
N2 N 0.18812(12) 0.1547(3) 0.0620(5)
N3 N 0.17767(12) 0.0233(3) 0.0550(4)
N4 N 0.23254(11) -0.0465(3) 0.0693(5)
N5 N 0.33985(12) 0.0046(3) 0.1013(5)
N6 N 0.38134(12) 0.1011(3) 0.1261(4)
C1 C 0.27800(14) 0.0468(3) 0.0860(5)
O3 O 0.43527(13) 0.2264(3) 0.6003(5)
O4 O 0.44179(12) 0.4404(3) -0.1046(4)
Ba1 Ba 0.5000 0.31523(2) 0.2500
H1 H 0.2653(18) 0.240(4) 0.085(7)
H2 H 0.4427(17) 0.145(4) 0.609(6)
H3 H 0.4099(18) 0.455(4) -0.071(6)
H4 H 0.4047(16) 0.233(4) 0.591(6)
H5 H 0.442(2) 0.379(5) -0.163(8)
O1C O 0.63082(10) 0.2272(2) 0.3636(4)
O2C O 0.56138(10) 0.0631(2) 0.3581(4)
N1C N 0.74905(13) 0.1710(3) 0.4193(5)
N2C N 0.81188(12) 0.1547(3) 0.4380(5)
N3C N 0.82233(12) 0.0233(3) 0.4450(4)
N4C N 0.76746(11) -0.0465(3) 0.4307(5)
N5C N 0.66015(12) 0.0046(3) 0.3987(5)
N6C N 0.61866(12) 0.1011(3) 0.3739(4)
C1C C 0.72200(14) 0.0468(3) 0.4140(5)
O3C O 0.56473(13) 0.2264(3) -0.1003(5)
O4D O 0.55821(12) 0.5596(3) 0.1046(4)
O4C O 0.55821(12) 0.4404(3) 0.6046(4)
O4G O 0.44179(12) 0.5596(3) 0.3954(4)
Ba1D Ba 0.5000 0.68477(2) -0.2500
H1C H 0.7347(18) 0.240(4) 0.415(7)
H2C H 0.5573(17) 0.145(4) -0.109(6)
H3D H 0.5901(18) 0.545(4) 0.071(6)
H3C H 0.5901(18) 0.455(4) 0.571(6)
H3G H 0.4099(18) 0.545(4) 0.429(6)
H4C H 0.5953(16) 0.233(4) -0.091(6)
H5D H 0.558(2) 0.621(5) 0.163(8)
H5C H 0.558(2) 0.379(5) 0.663(8)
H5G H 0.442(2) 0.621(5) 0.337(8)
loop_
_geom_bond_atom_site_label_1
_geom_bond_atom_site_label_2
_geom_bond_site_symmetry_1
_geom_bond_site_symmetry_2
O1 N6 1_555 1_555
O2 N6 1_555 1_555
N1 N2 1_555 1_555
N2 N3 1_555 1_555
N3 N4 1_555 1_555
N4 C1 1_555 1_555
N5 N6 1_555 1_555
C1 N1 1_555 1_555
O3 Ba1 1_555 1_555
O4 Ba1 1_555 1_555
Ba1 O1 1_555 1_555
H1 N1 1_555 1_555
H2 O3 1_555 1_555
H3 O4 1_555 1_555
H4 O3 1_555 1_555
H5 O4 1_555 1_555
O1C Ba1 1_555 1_555
O2C Ba1 1_555 1_555
N1C N2C 1_555 1_555
N2C N3C 1_555 1_555
N3C N4C 1_555 1_555
N4C C1C 1_555 1_555
N5C N6C 1_555 1_555
N6C O1C 1_555 1_555
C1C N1C 1_555 1_555
O3C Ba1 1_555 1_555
O4D Ba1 1_555 1_555
O4C Ba1 1_555 1_555
O4G Ba1 1_555 1_555
Ba1D O4 1_555 1_555
H1C N1C 1_555 1_555
H2C O3C 1_555 1_555
H3D O4D 1_555 1_555
H3C O4C 1_555 1_555
H3G O4G 1_555 1_555
H4C O3C 1_555 1_555
H5D O4D 1_555 1_555
H5C O4C 1_555 1_555
H5G O4G 1_555 1_555
O2 Ba1 1_555 1_555
N5 C1 1_555 1_555
O2C N6C 1_555 1_555
N5C C1C 1_555 1_555
O4D Ba1D 1_555 1_555

#END
