
#######################################################################
#
#                 Cambridge Crystallographic Data Centre
#                                CCDC 
#
#######################################################################
#
# If this CIF has been generated from an entry in the Cambridge 
# Structural Database, then it will include bibliographic, chemical, 
# crystal, experimental, refinement or atomic coordinate data resulting 
# from the CCDC's data processing and validation procedures.
#
#######################################################################

data_HAMGAF
_symmetry_cell_setting           monoclinic
_symmetry_space_group_name_H-M   'P 21/n'
_symmetry_Int_Tables_number      14
_space_group_name_Hall           '-P 2yn'
loop_
_symmetry_equiv_pos_site_id
_symmetry_equiv_pos_as_xyz
1 x,y,z
2 1/2-x,1/2+y,1/2-z
3 -x,-y,-z
4 1/2+x,1/2-y,1/2+z
_cell_length_a                   12.4946(4)
_cell_length_b                   12.9907(4)
_cell_length_c                   16.6219(6)
_cell_angle_alpha                90
_cell_angle_beta                 96.950(2)
_cell_angle_gamma                90
_cell_volume                     2678.14
loop_
_atom_site_label
_atom_site_type_symbol
_atom_site_fract_x
_atom_site_fract_y
_atom_site_fract_z
Se1 Se 0.084957(8) -0.468418(7) 0.882717(6)
O1 O 0.04444(6) 0.00745(6) 0.76858(5)
N1 N 0.22239(8) -0.12078(8) 1.00114(6)
K1 K -0.006200(17) -0.198992(15) 0.752042(12)
O2 O 0.12508(6) -0.10365(6) 0.64640(5)
N2 N 0.11402(7) -0.32690(7) 0.88622(5)
N3 N 0.30442(10) -0.37083(9) 1.14932(7)
O3 O 0.05005(6) -0.30359(6) 0.61372(5)
C1 C 0.16435(8) -0.30608(7) 0.95763(6)
O4 O -0.07098(6) -0.40171(6) 0.72598(5)
C2 C 0.18765(8) -0.39228(7) 1.01112(6)
N4 N 0.15410(7) -0.48298(6) 0.98440(5)
O5 O -0.16797(6) -0.27676(6) 0.83484(4)
O6 O -0.04962(6) -0.09768(6) 0.89076(5)
C9 C 0.19488(8) -0.20235(8) 0.98180(6)
C10 C 0.24970(9) -0.38179(8) 1.08953(7)
C11 C 0.12535(9) 0.04819(8) 0.72461(7)
H6 H 0.1977 0.0291 0.7514
H7 H 0.1203 0.1242 0.7225
C12 C 0.10827(9) 0.00442(8) 0.64051(7)
H8 H 0.0341 0.0192 0.6151
H9 H 0.1597 0.0357 0.6067
C13 C 0.13097(10) -0.15186(8) 0.57045(7)
H10 H 0.1927 -0.1241 0.5451
H11 H 0.0640 -0.1388 0.5336
C14 C 0.14523(9) -0.26541(8) 0.58541(7)
H12 H 0.1576 -0.3009 0.5346
H13 H 0.2083 -0.2779 0.6263
C15 C 0.05510(9) -0.41145(8) 0.62923(7)
H14 H 0.1117 -0.4264 0.6748
H15 H 0.0731 -0.4487 0.5807
C16 C -0.05299(9) -0.44588(8) 0.65020(7)
H16 H -0.1104 -0.4237 0.6074
H17 H -0.0549 -0.5219 0.6538
C17 C -0.17988(8) -0.41658(8) 0.74140(7)
H18 H -0.1997 -0.4901 0.7342
H19 H -0.2289 -0.3756 0.7026
C18 C -0.19139(9) -0.38365(8) 0.82638(7)
H20 H -0.2658 -0.3971 0.8384
H21 H -0.1411 -0.4235 0.8652
C19 C -0.15004(9) -0.24669(9) 0.91792(6)
H22 H -0.0817 -0.2769 0.9439
H23 H -0.2096 -0.2721 0.9469
C20 C -0.14439(9) -0.13156(9) 0.92265(7)
H24 H -0.2090 -0.1011 0.8911
H25 H -0.1424 -0.1091 0.9797
C21 C -0.04265(9) 0.01175(8) 0.88750(7)
H26 H -0.0395 0.0407 0.9428
H27 H -0.1073 0.0399 0.8545
C22 C 0.05660(9) 0.04136(8) 0.85074(7)
H28 H 0.0663 0.1170 0.8531
H29 H 0.1209 0.0088 0.8811
K1C K 0.493800(17) -0.301008(15) 1.252042(12)
N3C N -0.19558(10) -0.12917(9) 0.64932(7)
S1 S 0.03299(2) -0.67154(2) 0.888370(15)
C3 C 0.03464(8) -0.68418(7) 0.78344(6)
C4 C -0.05384(8) -0.72343(8) 0.73234(6)
H1 H -0.1180 -0.7414 0.7544
C5 C -0.04867(9) -0.73621(9) 0.65012(6)
H2 H -0.1087 -0.7647 0.6170
C6 C 0.04293(10) -0.70808(8) 0.61514(6)
H3 H 0.0456 -0.7164 0.5586
C7 C 0.13041(9) -0.66755(8) 0.66480(6)
H4 H 0.1933 -0.6472 0.6420
C8 C 0.12658(8) -0.65653(7) 0.74746(6)
H5 H 0.1876 -0.6297 0.7805
loop_
_geom_bond_atom_site_label_1
_geom_bond_atom_site_label_2
_geom_bond_site_symmetry_1
_geom_bond_site_symmetry_2
Se1 N2 1_555 1_555
S1 C3 1_555 1_555
O1 K1 1_555 1_555
N1 C9 1_555 1_555
K1 O2 1_555 1_555
O2 C12 1_555 1_555
N2 K1 1_555 1_555
N3 C10 1_555 1_555
O3 K1 1_555 1_555
C1 N2 1_555 1_555
O4 K1 1_555 1_555
C2 C1 1_555 1_555
N4 Se1 1_555 1_555
O5 K1 1_555 1_555
O6 K1 1_555 1_555
C3 C4 1_555 1_555
C4 H1 1_555 1_555
C5 C4 1_555 1_555
H2 C5 1_555 1_555
C6 C5 1_555 1_555
H3 C6 1_555 1_555
C7 C6 1_555 1_555
H4 C7 1_555 1_555
C8 C3 1_555 1_555
H5 C8 1_555 1_555
C9 C1 1_555 1_555
C10 C2 1_555 1_555
C11 O1 1_555 1_555
H6 C11 1_555 1_555
H7 C11 1_555 1_555
C12 C11 1_555 1_555
H8 C12 1_555 1_555
H9 C12 1_555 1_555
C13 O2 1_555 1_555
H10 C13 1_555 1_555
H11 C13 1_555 1_555
C14 O3 1_555 1_555
H12 C14 1_555 1_555
H13 C14 1_555 1_555
C15 O3 1_555 1_555
H14 C15 1_555 1_555
H15 C15 1_555 1_555
C16 O4 1_555 1_555
H16 C16 1_555 1_555
H17 C16 1_555 1_555
C17 O4 1_555 1_555
H18 C17 1_555 1_555
H19 C17 1_555 1_555
C18 O5 1_555 1_555
H20 C18 1_555 1_555
H21 C18 1_555 1_555
C19 O5 1_555 1_555
H22 C19 1_555 1_555
H23 C19 1_555 1_555
C20 O6 1_555 1_555
H24 C20 1_555 1_555
H25 C20 1_555 1_555
C21 O6 1_555 1_555
H26 C21 1_555 1_555
H27 C21 1_555 1_555
C22 O1 1_555 1_555
H28 C22 1_555 1_555
H29 C22 1_555 1_555
K1C N3 1_555 1_555
N3C K1 1_555 1_555
C2 N4 1_555 1_555
C7 C8 1_555 1_555
C13 C14 1_555 1_555
C15 C16 1_555 1_555
C17 C18 1_555 1_555
C19 C20 1_555 1_555
C21 C22 1_555 1_555

#END
