
#######################################################################
#
#                 Cambridge Crystallographic Data Centre
#                                CCDC 
#
#######################################################################
#
# If this CIF has been generated from an entry in the Cambridge 
# Structural Database, then it will include bibliographic, chemical, 
# crystal, experimental, refinement or atomic coordinate data resulting 
# from the CCDC's data processing and validation procedures.
#
#######################################################################

data_HAMKOW
_symmetry_cell_setting           triclinic
_symmetry_space_group_name_H-M   'P -1'
_symmetry_Int_Tables_number      2
_space_group_name_Hall           '-P 1'
loop_
_symmetry_equiv_pos_site_id
_symmetry_equiv_pos_as_xyz
1 x,y,z
2 -x,-y,-z
_cell_length_a                   9.4084(19)
_cell_length_b                   10.062(2)
_cell_length_c                   11.130(2)
_cell_angle_alpha                108.46(3)
_cell_angle_beta                 111.04(3)
_cell_angle_gamma                95.46(3)
_cell_volume                     906.477
loop_
_atom_site_label
_atom_site_type_symbol
_atom_site_fract_x
_atom_site_fract_y
_atom_site_fract_z
Cd1 Cd 0.564492(18) 0.399619(16) 0.633815(16)
N1 N 0.6212(3) 0.2225(2) 0.4898(2)
N2 N 0.6729(3) 0.0171(2) 0.4011(3)
N3 N 0.6843(2) 0.3414(2) 0.8239(2)
N4 N 0.8646(3) 0.3112(3) 0.9968(2)
O1 O 0.3217(2) 0.26615(18) 0.62225(18)
O2 O 0.3871(2) 0.50269(19) 0.7189(2)
O3 O 0.0538(2) 0.2504(2) 0.6670(3)
O4 O -0.0044(2) -0.13626(19) 0.81726(18)
O5 O -0.1478(2) -0.4038(2) 0.7681(2)
O6 O -0.35877(19) -0.40128(18) 0.60028(18)
C1 C 0.2941(3) 0.3840(2) 0.6765(3)
C2 C 0.1374(4) 0.3868(3) 0.6866(4)
C3 C 0.1089(3) 0.2005(3) 0.7722(3)
C4 C 0.2301(4) 0.2760(3) 0.9003(3)
C5 C 0.2722(4) 0.2104(3) 0.9967(3)
C6 C 0.1932(3) 0.0732(3) 0.9684(3)
C7 C 0.0691(3) -0.0004(3) 0.8392(3)
C8 C 0.0279(3) 0.0612(3) 0.7405(3)
C9 C -0.1469(3) -0.2018(3) 0.6970(3)
C10 C -0.2201(3) -0.3459(2) 0.6907(2)
C11 C 0.6555(3) 0.1057(3) 0.5086(3)
C12 C 0.6481(5) 0.0797(4) 0.3055(4)
C13 C 0.6175(4) 0.2075(3) 0.3617(3)
C14 C 0.8350(3) 0.3511(3) 0.8882(3)
C15 C 0.7273(4) 0.2761(4) 1.0043(3)
C16 C 0.6159(3) 0.2931(4) 0.8973(3)
H1 H 0.1553 0.4557 0.7773
H2 H 0.0730 0.4201 0.6173
H3 H 0.2829 0.3691 0.9221
H4 H 0.3557 0.2602 1.0826
H5 H 0.2225 0.0312 1.0343
H6 H -0.0533 0.0102 0.6534
H7 H -0.1271 -0.2156 0.6147
H8 H -0.2190 -0.1391 0.6987
H9 H 0.6664 0.0872 0.5878
H10 H 0.6516 0.0420 0.2191
H11 H 0.5971 0.2747 0.3202
H12 H 0.9111 0.3818 0.8616
H13 H 0.7122 0.2459 1.0706
H14 H 0.5092 0.2749 0.8763
H15 H 0.6956 -0.0652 0.3929
H16 H 0.9550 0.3085 1.0518
O5_2 O 0.8522(2) 0.5962(2) 0.7681(2)
O6_2 O 0.64123(19) 0.59872(18) 0.60028(18)
O6A O 0.35877(19) 0.40128(18) 0.39972(18)
Cd1_2 Cd -0.435508(18) -0.600381(16) 0.633815(16)
Cd1A Cd -0.564492(18) -0.399619(16) 0.366185(16)
loop_
_geom_bond_atom_site_label_1
_geom_bond_atom_site_label_2
_geom_bond_site_symmetry_1
_geom_bond_site_symmetry_2
Cd1 N1 1_555 1_555
N1 C11 1_555 1_555
N2 C11 1_555 1_555
N3 Cd1 1_555 1_555
N4 C14 1_555 1_555
O1 Cd1 1_555 1_555
O2 Cd1 1_555 1_555
O3 C2 1_555 1_555
O4 C7 1_555 1_555
O5 C10 1_555 1_555
O6 C10 1_555 1_555
C1 O1 1_555 1_555
C2 C1 1_555 1_555
C3 O3 1_555 1_555
C4 C3 1_555 1_555
C5 C4 1_555 1_555
C6 C5 1_555 1_555
C7 C6 1_555 1_555
C8 C3 1_555 1_555
C9 O4 1_555 1_555
C10 C9 1_555 1_555
C11 H9 1_555 1_555
C12 N2 1_555 1_555
C13 N1 1_555 1_555
C14 N3 1_555 1_555
C15 N4 1_555 1_555
C16 N3 1_555 1_555
H1 C2 1_555 1_555
H2 C2 1_555 1_555
H3 C4 1_555 1_555
H4 C5 1_555 1_555
H5 C6 1_555 1_555
H6 C8 1_555 1_555
H7 C9 1_555 1_555
H8 C9 1_555 1_555
H10 C12 1_555 1_555
H11 C13 1_555 1_555
H12 C14 1_555 1_555
H13 C15 1_555 1_555
H14 C16 1_555 1_555
H15 N2 1_555 1_555
H16 N4 1_555 1_555
O5_2 Cd1 1_555 1_555
O6_2 Cd1 1_555 1_555
O6A Cd1 1_555 1_555
Cd1_2 O5 1_555 1_555
Cd1A O6 1_555 1_555
O2 C1 1_555 1_555
O6 Cd1_2 1_555 1_555
C7 C8 1_555 1_555
C12 C13 1_555 1_555
C15 C16 1_555 1_555

#END
