
#######################################################################
#
#                 Cambridge Crystallographic Data Centre
#                                CCDC 
#
#######################################################################
#
# If this CIF has been generated from an entry in the Cambridge 
# Structural Database, then it will include bibliographic, chemical, 
# crystal, experimental, refinement or atomic coordinate data resulting 
# from the CCDC's data processing and validation procedures.
#
#######################################################################

data_HAMMOY
_symmetry_cell_setting           monoclinic
_symmetry_space_group_name_H-M   'C 2/c'
_symmetry_Int_Tables_number      15
_space_group_name_Hall           '-C 2yn'
loop_
_symmetry_equiv_pos_site_id
_symmetry_equiv_pos_as_xyz
1 x,y,z
2 1/2+x,1/2+y,z
3 x,-y,1/2+z
4 1/2+x,1/2-y,1/2+z
5 -x,-y,-z
6 1/2-x,1/2-y,-z
7 -x,y,1/2-z
8 1/2-x,1/2+y,1/2-z
_cell_length_a                   14.234(3)
_cell_length_b                   13.210(3)
_cell_length_c                   19.522(4)
_cell_angle_alpha                90
_cell_angle_beta                 104.56(3)
_cell_angle_gamma                90
_cell_volume                     3552.86
loop_
_atom_site_label
_atom_site_type_symbol
_atom_site_fract_x
_atom_site_fract_y
_atom_site_fract_z
Zn1 Zn 0.75882(2) 0.29640(2) 0.623469(16)
N1 N 0.82413(16) 0.17169(19) 0.69331(13)
N2 N 0.83963(15) 0.37005(18) 0.71436(12)
O1 O 0.63640(15) 0.1974(2) 0.57170(12)
O2 O 0.62354(16) 0.29325(18) 0.66055(15)
O3 O 0.19044(13) 0.13819(16) 0.57095(12)
O4 O 0.21962(15) -0.06730(16) 0.57184(11)
O5 O 0.10898(17) -0.08538(19) 0.46862(12)
O6 O 0.85504(15) 0.26916(18) 0.56442(10)
C1 C 0.8155(2) 0.0728(2) 0.6790(2)
C2 C 0.8563(3) -0.0004(3) 0.7278(2)
C3 C 0.9086(3) 0.0292(3) 0.7939(2)
C4 C 0.9190(2) 0.1304(3) 0.80874(18)
C5 C 0.87604(18) 0.2007(2) 0.75806(15)
C6 C 0.88325(18) 0.3112(2) 0.76952(14)
C7 C 0.9330(3) 0.3554(3) 0.83300(17)
C8 C 0.9387(3) 0.4585(3) 0.8388(2)
C9 C 0.8958(2) 0.5179(3) 0.78207(19)
C10 C 0.8457(2) 0.4709(2) 0.72087(16)
C11 C 0.5865(2) 0.2350(3) 0.61021(18)
C12 C 0.48087(19) 0.2081(2) 0.59667(15)
C13 C 0.4336(2) 0.1515(2) 0.53859(15)
C14 C 0.3364(2) 0.1263(2) 0.52748(15)
C15 C 0.28554(19) 0.1585(2) 0.57517(16)
C16 C 0.3322(2) 0.2161(2) 0.63359(17)
C17 C 0.4287(2) 0.2403(2) 0.64336(17)
C18 C 0.1366(2) 0.0778(2) 0.51403(18)
C19 C 0.15797(19) -0.0346(2) 0.51880(15)
H1 H 0.850(3) 0.3081(18) 0.5296(12)
H2 H 0.864(3) 0.2086(10) 0.5533(17)
H3 H 0.7805 0.0525 0.6343
H4 H 0.8485 -0.0687 0.7162
H5 H 0.9363 -0.0187 0.8280
H6 H 0.9551 0.1519 0.8529
H7 H 0.9622 0.3149 0.8714
H8 H 0.9718 0.4883 0.8811
H9 H 0.9003 0.5881 0.7848
H10 H 0.8148 0.5107 0.6825
H11 H 0.4677 0.1300 0.5064
H12 H 0.3057 0.0880 0.4883
H13 H 0.2983 0.2380 0.6658
H14 H 0.4593 0.2793 0.6822
H15 H 0.1488 0.1030 0.4704
H16 H 0.0681 0.0872 0.5108
O4A O 0.71962(15) 0.43270(16) 0.57184(11)
Zn1A Zn 0.25882(2) -0.20360(2) 0.623469(16)
loop_
_geom_bond_atom_site_label_1
_geom_bond_atom_site_label_2
_geom_bond_site_symmetry_1
_geom_bond_site_symmetry_2
Zn1 N1 1_555 1_555
N1 C1 1_555 1_555
N2 Zn1 1_555 1_555
O1 Zn1 1_555 1_555
O2 Zn1 1_555 1_555
O3 C15 1_555 1_555
O4 C19 1_555 1_555
O5 C19 1_555 1_555
O6 Zn1 1_555 1_555
C1 C2 1_555 1_555
C2 C3 1_555 1_555
C3 C4 1_555 1_555
C4 C5 1_555 1_555
C5 N1 1_555 1_555
C6 N2 1_555 1_555
C7 C6 1_555 1_555
C8 C7 1_555 1_555
C9 C8 1_555 1_555
C10 N2 1_555 1_555
C11 O1 1_555 1_555
C12 C11 1_555 1_555
C13 C12 1_555 1_555
C14 C13 1_555 1_555
C15 C14 1_555 1_555
C16 C15 1_555 1_555
C17 C12 1_555 1_555
C18 O3 1_555 1_555
C19 C18 1_555 1_555
H1 O6 1_555 1_555
H2 O6 1_555 1_555
H3 C1 1_555 1_555
H4 C2 1_555 1_555
H5 C3 1_555 1_555
H6 C4 1_555 1_555
H7 C7 1_555 1_555
H8 C8 1_555 1_555
H9 C9 1_555 1_555
H10 C10 1_555 1_555
H11 C13 1_555 1_555
H12 C14 1_555 1_555
H13 C16 1_555 1_555
H14 C17 1_555 1_555
H15 C18 1_555 1_555
H16 C18 1_555 1_555
O4A Zn1 1_555 1_555
Zn1A O4 1_555 1_555
O2 C11 1_555 1_555
C5 C6 1_555 1_555
C9 C10 1_555 1_555
C16 C17 1_555 1_555

#END
