
#######################################################################
#
#                 Cambridge Crystallographic Data Centre
#                                CCDC 
#
#######################################################################
#
# If this CIF has been generated from an entry in the Cambridge 
# Structural Database, then it will include bibliographic, chemical, 
# crystal, experimental, refinement or atomic coordinate data resulting 
# from the CCDC's data processing and validation procedures.
#
#######################################################################

data_HAMPOB
_symmetry_cell_setting           orthorhombic
_symmetry_space_group_name_H-M   'F d d 2'
_symmetry_Int_Tables_number      43
_space_group_name_Hall           'F 2 -2d'
loop_
_symmetry_equiv_pos_site_id
_symmetry_equiv_pos_as_xyz
1 x,y,z
2 -x,-y,z
3 1/4+x,1/4-y,1/4+z
4 1/4-x,1/4+y,1/4+z
5 x,1/2+y,1/2+z
6 -x,1/2-y,1/2+z
7 1/4+x,3/4-y,3/4+z
8 1/4-x,3/4+y,3/4+z
9 1/2+x,y,1/2+z
10 1/2-x,-y,1/2+z
11 3/4+x,1/4-y,3/4+z
12 3/4-x,1/4+y,3/4+z
13 1/2+x,1/2+y,z
14 1/2-x,1/2-y,z
15 3/4+x,3/4-y,1/4+z
16 3/4-x,3/4+y,1/4+z
_cell_length_a                   29.0545(14)
_cell_length_b                   42.7251(15)
_cell_length_c                   4.7840(10)
_cell_angle_alpha                90
_cell_angle_beta                 90
_cell_angle_gamma                90
_cell_volume                     5938.65
loop_
_atom_site_label
_atom_site_type_symbol
_atom_site_fract_x
_atom_site_fract_y
_atom_site_fract_z
Cu1 Cu 0.478707(14) 0.102659(10) 0.80838(11)
N1 N 0.54201(10) 0.09679(7) 0.6743(7)
N2 N 0.61404(10) 0.10900(8) 0.5795(8)
O1 O 0.46098(9) 0.12506(7) 0.3872(6)
O2 O 0.49333(9) 0.14170(7) -0.0055(5)
O3 O 0.49748(9) 0.20063(6) 0.1931(7)
O4 O 0.65983(9) 0.15110(6) 0.1346(6)
O5 O 0.70130(9) 0.18858(7) -0.0329(7)
C1 C 0.57664(12) 0.11512(10) 0.7325(9)
C2 C 0.60365(12) 0.08447(9) 0.4038(8)
C3 C 0.62893(15) 0.06884(11) 0.2028(10)
C4 C 0.60752(15) 0.04489(11) 0.0662(11)
C5 C 0.56219(17) 0.03687(11) 0.1258(10)
C6 C 0.53637(14) 0.05244(10) 0.3234(11)
C7 C 0.55780(12) 0.07673(9) 0.4633(8)
C8 C 0.48118(11) 0.14480(9) 0.2473(8)
C9 C 0.49085(13) 0.17598(9) 0.3852(8)
C10 C 0.53981(12) 0.20586(8) 0.0774(9)
C11 C 0.54136(14) 0.23123(9) -0.1035(9)
C12 C 0.58188(15) 0.23949(10) -0.2315(11)
C13 C 0.62186(13) 0.22275(9) -0.1832(11)
C14 C 0.62033(12) 0.19735(8) -0.0054(8)
C15 C 0.57900(12) 0.18855(8) 0.1247(8)
C16 C 0.66222(12) 0.17833(8) 0.0374(9)
H1 H 0.5754 0.1308 0.8667
H2 H 0.6592 0.0744 0.1625
H3 H 0.6235 0.0337 -0.0694
H4 H 0.5488 0.0204 0.0286
H5 H 0.5060 0.0469 0.3607
H6 H 0.4653 0.1812 0.5070
H7 H 0.5182 0.1740 0.5005
H8 H 0.5148 0.2427 -0.1382
H9 H 0.5824 0.2565 -0.3523
H10 H 0.6493 0.2285 -0.2690
H11 H 0.5781 0.1712 0.2417
H12 H 0.6400 0.1187 0.5891
O2_2 O 0.49333(9) 0.14170(7) 0.9945(5)
O4J O 0.40983(9) 0.09890(6) 0.8846(6)
O5J O 0.45130(9) 0.06142(7) 0.7171(7)
Cu1_2 Cu 0.478707(14) 0.102659(10) -0.19162(11)
Cu1B Cu 0.728707(14) 0.147341(10) 0.05838(11)
loop_
_geom_bond_atom_site_label_1
_geom_bond_atom_site_label_2
_geom_bond_site_symmetry_1
_geom_bond_site_symmetry_2
Cu1 N1 1_555 1_555
N1 C1 1_555 1_555
N2 C1 1_555 1_555
O1 Cu1 1_555 1_555
O2 C8 1_555 1_555
O3 C9 1_555 1_555
O4 C16 1_555 1_555
O5 C16 1_555 1_555
C1 H1 1_555 1_555
C2 N2 1_555 1_555
C3 C2 1_555 1_555
C4 C3 1_555 1_555
C5 C4 1_555 1_555
C6 C5 1_555 1_555
C7 N1 1_555 1_555
C8 O1 1_555 1_555
C9 C8 1_555 1_555
C10 O3 1_555 1_555
C11 C10 1_555 1_555
C12 C11 1_555 1_555
C13 C12 1_555 1_555
C14 C13 1_555 1_555
C15 C10 1_555 1_555
C16 C14 1_555 1_555
H2 C3 1_555 1_555
H3 C4 1_555 1_555
H4 C5 1_555 1_555
H5 C6 1_555 1_555
H6 C9 1_555 1_555
H7 C9 1_555 1_555
H8 C11 1_555 1_555
H9 C12 1_555 1_555
H10 C13 1_555 1_555
H11 C15 1_555 1_555
H12 N2 1_555 1_555
O2_2 Cu1 1_555 1_555
O4J Cu1 1_555 1_555
O5J Cu1 1_555 1_555
Cu1_2 O2 1_555 1_555
Cu1B O4 1_555 1_555
O5 Cu1B 1_555 1_555
C2 C7 1_555 1_555
C6 C7 1_555 1_555
C14 C15 1_555 1_555

#END
