
#######################################################################
#
#                 Cambridge Crystallographic Data Centre
#                                CCDC 
#
#######################################################################
#
# If this CIF has been generated from an entry in the Cambridge 
# Structural Database, then it will include bibliographic, chemical, 
# crystal, experimental, refinement or atomic coordinate data resulting 
# from the CCDC's data processing and validation procedures.
#
#######################################################################

data_HAMQAO02
_symmetry_cell_setting           monoclinic
_symmetry_space_group_name_H-M   'P 21/n'
_symmetry_Int_Tables_number      14
_space_group_name_Hall           '-P 2yn'
loop_
_symmetry_equiv_pos_site_id
_symmetry_equiv_pos_as_xyz
1 x,y,z
2 1/2-x,1/2+y,1/2-z
3 -x,-y,-z
4 1/2+x,1/2-y,1/2+z
_cell_length_a                   4.93930(10)
_cell_length_b                   16.7975(4)
_cell_length_c                   10.7076(2)
_cell_angle_alpha                90
_cell_angle_beta                 94.593(2)
_cell_angle_gamma                90
_cell_volume                     885.534
loop_
_atom_site_label
_atom_site_type_symbol
_atom_site_fract_x
_atom_site_fract_y
_atom_site_fract_z
Cu1 Cu 0.50000 -0.50000 0.50000
Cl1 Cl 0.75558(12) -0.30721(3) -0.06770(5)
O1 O -0.1831(3) -0.54930(9) 0.34606(15)
H1 H -0.0502 -0.5204 0.3422
O2 O 0.2741(3) -0.46570(9) 0.35136(14)
C1 C 0.3821(4) -0.42914(12) 0.25884(19)
C2 C 0.2792(5) -0.44167(13) 0.1333(2)
H2 H 0.1319 -0.4756 0.117
C3 C 0.3914(5) -0.40492(13) 0.0343(2)
H3 H 0.3229 -0.4151 -0.0475
C4 C 0.6073(5) -0.35256(13) 0.05765(19)
C5 C 0.7097(5) -0.33655(13) 0.17854(19)
H4 H 0.8514 -0.3004 0.193
C6 C 0.6011(5) -0.37451(12) 0.27978(19)
C7 C 0.7126(4) -0.35384(13) 0.4050(2)
H5 H 0.817 -0.3078 0.4138
N1 N 0.6791(4) -0.39372(10) 0.50475(16)
C8 C 0.7930(5) -0.35870(13) 0.62413(19)
H6 H 0.7053 -0.3829 0.6926
H7 H 0.7522 -0.3022 0.6241
C9 C 1.0978(5) -0.36992(13) 0.6468(2)
H8 H -0.1851 -0.6559 0.4204
H9 H -0.1596 -0.6566 0.2756
Cu1_2 Cu -0.50000 -0.50000 0.50000
Cu1_3 Cu 1.50000 -0.50000 0.50000
Cl1B Cl 0.24442(12) -0.69279(3) 1.06770(5)
O1_2 O 0.8169(3) -0.54930(9) 0.34606(15)
O1B O 0.1831(3) -0.45070(9) 0.65394(15)
O1B_2 O 1.1831(3) -0.45070(9) 0.65394(15)
H1B H 0.0502 -0.4796 0.6578
H1_2 H 0.9498 -0.5204 0.3422
H1B_2 H 1.0502 -0.4796 0.6578
O2B O 0.7259(3) -0.53430(9) 0.64864(14)
C1B C 0.6179(4) -0.57086(12) 0.74116(19)
C2B C 0.7208(5) -0.55833(13) 0.8667(2)
H2B H 0.8681 -0.5244 0.883
C3B C 0.6086(5) -0.59508(13) 0.9657(2)
H3B H 0.6771 -0.5849 1.0475
C4B C 0.3927(5) -0.64744(13) 0.94235(19)
C5B C 0.2903(5) -0.66345(13) 0.82146(19)
H4B H 0.1486 -0.6996 0.807
C6B C 0.3989(5) -0.62549(12) 0.72022(19)
C7B C 0.2874(4) -0.64616(13) 0.5950(2)
H5B H 0.183 -0.6922 0.5862
N1B N 0.3209(4) -0.60628(10) 0.49525(16)
C8B C 0.2070(5) -0.64130(13) 0.37587(19)
H6B H 0.2947 -0.6171 0.3074
H7B H 0.2478 -0.6978 0.3759
C9B C -0.0978(5) -0.63008(13) 0.3532(2)
H8B H 1.1851 -0.3441 0.5796
H9B H 1.1596 -0.3434 0.7244
loop_
_geom_bond_atom_site_label_1
_geom_bond_atom_site_label_2
_geom_bond_site_symmetry_1
_geom_bond_site_symmetry_2
Cu1 O2 1_555 1_555
Cl1 C4 1_555 1_555
O1 H1 1_555 1_555
O2 C1 1_555 1_555
C1 C2 1_555 1_555
C2 H2 1_555 1_555
C3 C2 1_555 1_555
H3 C3 1_555 1_555
C4 C3 1_555 1_555
C5 C4 1_555 1_555
H4 C5 1_555 1_555
C6 C1 1_555 1_555
C7 C6 1_555 1_555
H5 C7 1_555 1_555
N1 Cu1 1_555 1_555
C8 N1 1_555 1_555
H6 C8 1_555 1_555
H7 C8 1_555 1_555
C9 C8 1_555 1_555
H8 C9B 1_555 1_555
H9 C9B 1_555 1_555
Cu1_2 O1 1_555 1_555
Cu1_3 O1B_2 1_555 1_555
Cl1B C4B 1_555 1_555
O1_2 Cu1 1_555 1_555
O1B Cu1 1_555 1_555
O1B_2 C9 1_555 1_555
H1B O1B 1_555 1_555
H1_2 O1_2 1_555 1_555
H1B_2 O1B_2 1_555 1_555
O2B Cu1 1_555 1_555
C1B O2B 1_555 1_555
C2B C1B 1_555 1_555
H2B C2B 1_555 1_555
C3B C2B 1_555 1_555
H3B C3B 1_555 1_555
C4B C3B 1_555 1_555
C5B C4B 1_555 1_555
H4B C5B 1_555 1_555
C6B C1B 1_555 1_555
C7B C6B 1_555 1_555
H5B C7B 1_555 1_555
N1B Cu1 1_555 1_555
C8B N1B 1_555 1_555
H6B C8B 1_555 1_555
H7B C8B 1_555 1_555
C9B O1 1_555 1_555
H8B C9 1_555 1_555
H9B C9 1_555 1_555
C5 C6 1_555 1_555
C7 N1 1_555 1_555
C5B C6B 1_555 1_555
C7B N1B 1_555 1_555
C8B C9B 1_555 1_555

#END
