
#######################################################################
#
#                 Cambridge Crystallographic Data Centre
#                                CCDC 
#
#######################################################################
#
# If this CIF has been generated from an entry in the Cambridge 
# Structural Database, then it will include bibliographic, chemical, 
# crystal, experimental, refinement or atomic coordinate data resulting 
# from the CCDC's data processing and validation procedures.
#
#######################################################################

data_HAMQAO01
_symmetry_cell_setting           monoclinic
_symmetry_space_group_name_H-M   'P 21/n'
_symmetry_Int_Tables_number      14
_space_group_name_Hall           '-P 2yn'
loop_
_symmetry_equiv_pos_site_id
_symmetry_equiv_pos_as_xyz
1 x,y,z
2 1/2-x,1/2+y,1/2-z
3 -x,-y,-z
4 1/2+x,1/2-y,1/2+z
_cell_length_a                   4.994(1)
_cell_length_b                   17.034(3)
_cell_length_c                   10.723(2)
_cell_angle_alpha                90
_cell_angle_beta                 94.65(3)
_cell_angle_gamma                90
_cell_volume                     909.18
loop_
_atom_site_label
_atom_site_type_symbol
_atom_site_fract_x
_atom_site_fract_y
_atom_site_fract_z
C1 C 0.7930(12) 0.1447(4) 0.0960(6)
H1 H 0.6908 0.1903 0.0877
C2 C 0.9046(11) 0.1245(4) 0.2202(6)
C3 C 1.1176(12) 0.0688(4) 0.2416(5)
C4 C 1.2240(13) 0.0584(4) 0.3658(6)
H2 H 1.3743 0.0267 0.3820
C5 C 1.1136(14) 0.0934(5) 0.4625(6)
H3 H 1.1793 0.0820 0.5441
C6 C 0.9000(14) 0.1472(4) 0.4410(6)
C7 C 0.7947(14) 0.1660(4) 0.3205(5)
H4 H 0.6605 0.2035 0.3060
C8 C 0.7095(13) 0.1387(4) -0.1201(6)
H5 H 0.7954 0.1146 -0.1885
H6 H 0.7533 0.1942 -0.1200
C9 C 0.4066(13) 0.1300(4) -0.1459(6)
H7 H 0.3177 0.1555 -0.0797
H8 H 0.3495 0.1560 -0.2240
Cl1 Cl 0.7567(4) 0.19293(11) 0.56544(14)
Cu1 Cu 1.0000 0.0000 0.0000
O1 O 1.2238(8) 0.0323(3) 0.1496(4)
N1 N 0.8223(9) 0.1050(3) -0.0048(4)
O2 O 0.3272(9) 0.0487(3) -0.1533(5)
H9 H 0.3981 0.0126 -0.2164
C1B C 1.2070(12) -0.1447(4) -0.0960(6)
H1B H 1.3092 -0.1903 -0.0877
C2B C 1.0954(11) -0.1245(4) -0.2202(6)
C3B C 0.8824(12) -0.0688(4) -0.2416(5)
C4B C 0.7760(13) -0.0584(4) -0.3658(6)
H2B H 0.6257 -0.0267 -0.3820
C5B C 0.8864(14) -0.0934(5) -0.4625(6)
H3B H 0.8207 -0.0820 -0.5441
C6B C 1.1000(14) -0.1472(4) -0.4410(6)
C7B C 1.2053(14) -0.1660(4) -0.3205(5)
H4B H 1.3395 -0.2035 -0.3060
C8B C 1.2905(13) -0.1387(4) 0.1201(6)
H5B H 1.2046 -0.1146 0.1885
H6B H 1.2467 -0.1942 0.1200
C9B C 1.5934(13) -0.1300(4) 0.1459(6)
H7B H 1.6823 -0.1555 0.0797
H8B H 1.6505 -0.1560 0.2240
Cl1B Cl 1.2433(4) -0.19293(11) -0.56544(14)
Cu1_2 Cu 0.0000 0.0000 0.0000
Cu1_3 Cu 2.0000 0.0000 0.0000
O1B O 0.7762(8) -0.0323(3) -0.1496(4)
N1B N 1.1777(9) -0.1050(3) 0.0048(4)
O2B O 1.6728(9) -0.0487(3) 0.1533(5)
O2_2 O 1.3272(9) 0.0487(3) -0.1533(5)
O2B_2 O 0.6728(9) -0.0487(3) 0.1533(5)
H9B H 1.6019 -0.0126 0.2164
H9_2 H 1.3981 0.0126 -0.2164
H9B_2 H 0.6019 -0.0126 0.2164
loop_
_geom_bond_atom_site_label_1
_geom_bond_atom_site_label_2
_geom_bond_site_symmetry_1
_geom_bond_site_symmetry_2
C1 H1 1_555 1_555
C2 C1 1_555 1_555
C3 C2 1_555 1_555
C4 C3 1_555 1_555
H2 C4 1_555 1_555
C5 C4 1_555 1_555
H3 C5 1_555 1_555
C6 C5 1_555 1_555
C7 C2 1_555 1_555
H4 C7 1_555 1_555
C8 H5 1_555 1_555
H6 C8 1_555 1_555
C9 C8 1_555 1_555
H7 C9 1_555 1_555
H8 C9 1_555 1_555
Cl1 C6 1_555 1_555
Cu1 O1 1_555 1_555
O1 C3 1_555 1_555
N1 C1 1_555 1_555
O2 C9 1_555 1_555
H9 O2 1_555 1_555
C1B H1B 1_555 1_555
C2B C1B 1_555 1_555
C3B C2B 1_555 1_555
C4B C3B 1_555 1_555
H2B C4B 1_555 1_555
C5B C4B 1_555 1_555
H3B C5B 1_555 1_555
C6B C5B 1_555 1_555
C7B C2B 1_555 1_555
H4B C7B 1_555 1_555
C8B H5B 1_555 1_555
H6B C8B 1_555 1_555
C9B C8B 1_555 1_555
H7B C9B 1_555 1_555
H8B C9B 1_555 1_555
Cl1B C6B 1_555 1_555
Cu1_2 O2 1_555 1_555
Cu1_3 O2B 1_555 1_555
O1B Cu1 1_555 1_555
N1B Cu1 1_555 1_555
O2B C9B 1_555 1_555
O2_2 Cu1 1_555 1_555
O2B_2 Cu1 1_555 1_555
H9B O2B 1_555 1_555
H9_2 O2_2 1_555 1_555
H9B_2 O2B_2 1_555 1_555
C6 C7 1_555 1_555
C8 N1 1_555 1_555
Cu1 N1 1_555 1_555
C1B N1B 1_555 1_555
C3B O1B 1_555 1_555
C6B C7B 1_555 1_555
C8B N1B 1_555 1_555

#END
