
#######################################################################
#
#                 Cambridge Crystallographic Data Centre
#                                CCDC 
#
#######################################################################
#
# If this CIF has been generated from an entry in the Cambridge 
# Structural Database, then it will include bibliographic, chemical, 
# crystal, experimental, refinement or atomic coordinate data resulting 
# from the CCDC's data processing and validation procedures.
#
#######################################################################

data_HANKUE
_symmetry_cell_setting           cubic
_symmetry_space_group_name_H-M   'F d -3 m'
_symmetry_Int_Tables_number      227
_space_group_name_Hall           '-F 4vw 2vw 3'
loop_
_symmetry_equiv_pos_site_id
_symmetry_equiv_pos_as_xyz
1 x,y,z
2 3/4-x,1/4-y,1/2+z
3 1/4-x,1/2+y,3/4-z
4 1/2+x,3/4-y,1/4-z
5 z,x,y
6 1/2+z,3/4-x,1/4-y
7 3/4-z,1/4-x,1/2+y
8 1/4-z,1/2+x,3/4-y
9 y,z,x
10 1/4-y,1/2+z,3/4-x
11 1/2+y,3/4-z,1/4-x
12 3/4-y,1/4-z,1/2+x
13 3/4+y,1/4+x,1/2-z
14 -y,-x,-z
15 1/4+y,1/2-x,3/4+z
16 1/2-y,3/4+x,1/4+z
17 3/4+x,1/4+z,1/2-y
18 1/2-x,3/4+z,1/4+y
19 -x,-z,-y
20 1/4+x,1/2-z,3/4+y
21 3/4+z,1/4+y,1/2-x
22 1/4+z,1/2-y,3/4+x
23 1/2-z,3/4+y,1/4+x
24 -z,-y,-x
25 x,1/2+y,1/2+z
26 3/4-x,3/4-y,z
27 1/4-x,y,1/4-z
28 1/2+x,1/4-y,3/4-z
29 z,1/2+x,1/2+y
30 1/2+z,1/4-x,3/4-y
31 3/4-z,3/4-x,y
32 1/4-z,x,1/4-y
33 y,1/2+z,1/2+x
34 1/4-y,z,1/4-x
35 1/2+y,1/4-z,3/4-x
36 3/4-y,3/4-z,x
37 3/4+y,3/4+x,-z
38 -y,1/2-x,1/2-z
39 1/4+y,-x,1/4+z
40 1/2-y,1/4+x,3/4+z
41 3/4+x,3/4+z,-y
42 1/2-x,1/4+z,3/4+y
43 -x,1/2-z,1/2-y
44 1/4+x,-z,1/4+y
45 3/4+z,3/4+y,-x
46 1/4+z,-y,1/4+x
47 1/2-z,1/4+y,3/4+x
48 -z,1/2-y,1/2-x
49 1/2+x,y,1/2+z
50 1/4-x,1/4-y,z
51 3/4-x,1/2+y,1/4-z
52 x,3/4-y,3/4-z
53 1/2+z,x,1/2+y
54 z,3/4-x,3/4-y
55 1/4-z,1/4-x,y
56 3/4-z,1/2+x,1/4-y
57 1/2+y,z,1/2+x
58 3/4-y,1/2+z,1/4-x
59 y,3/4-z,3/4-x
60 1/4-y,1/4-z,x
61 1/4+y,1/4+x,-z
62 1/2-y,-x,1/2-z
63 3/4+y,1/2-x,1/4+z
64 -y,3/4+x,3/4+z
65 1/4+x,1/4+z,-y
66 -x,3/4+z,3/4+y
67 1/2-x,-z,1/2-y
68 3/4+x,1/2-z,1/4+y
69 1/4+z,1/4+y,-x
70 3/4+z,1/2-y,1/4+x
71 -z,3/4+y,3/4+x
72 1/2-z,-y,1/2-x
73 1/2+x,1/2+y,z
74 1/4-x,3/4-y,1/2+z
75 3/4-x,y,3/4-z
76 x,1/4-y,1/4-z
77 1/2+z,1/2+x,y
78 z,1/4-x,1/4-y
79 1/4-z,3/4-x,1/2+y
80 3/4-z,x,3/4-y
81 1/2+y,1/2+z,x
82 3/4-y,z,3/4-x
83 y,1/4-z,1/4-x
84 1/4-y,3/4-z,1/2+x
85 1/4+y,3/4+x,1/2-z
86 1/2-y,1/2-x,-z
87 3/4+y,-x,3/4+z
88 -y,1/4+x,1/4+z
89 1/4+x,3/4+z,1/2-y
90 -x,1/4+z,1/4+y
91 1/2-x,1/2-z,-y
92 3/4+x,-z,3/4+y
93 1/4+z,3/4+y,1/2-x
94 3/4+z,-y,3/4+x
95 -z,1/4+y,1/4+x
96 1/2-z,1/2-y,-x
97 -x,-y,-z
98 1/4+x,3/4+y,1/2-z
99 3/4+x,1/2-y,1/4+z
100 1/2-x,1/4+y,3/4+z
101 -z,-x,-y
102 1/2-z,1/4+x,3/4+y
103 1/4+z,3/4+x,1/2-y
104 3/4+z,1/2-x,1/4+y
105 -y,-z,-x
106 3/4+y,1/2-z,1/4+x
107 1/2-y,1/4+z,3/4+x
108 1/4+y,3/4+z,1/2-x
109 1/4-y,3/4-x,1/2+z
110 y,x,z
111 3/4-y,1/2+x,1/4-z
112 1/2+y,1/4-x,3/4-z
113 1/4-x,3/4-z,1/2+y
114 1/2+x,1/4-z,3/4-y
115 x,z,y
116 3/4-x,1/2+z,1/4-y
117 1/4-z,3/4-y,1/2+x
118 3/4-z,1/2+y,1/4-x
119 1/2+z,1/4-y,3/4-x
120 z,y,x
121 -x,1/2-y,1/2-z
122 1/4+x,1/4+y,-z
123 3/4+x,-y,3/4+z
124 1/2-x,3/4+y,1/4+z
125 -z,1/2-x,1/2-y
126 1/2-z,3/4+x,1/4+y
127 1/4+z,1/4+x,-y
128 3/4+z,-x,3/4+y
129 -y,1/2-z,1/2-x
130 3/4+y,-z,3/4+x
131 1/2-y,3/4+z,1/4+x
132 1/4+y,1/4+z,-x
133 1/4-y,1/4-x,z
134 y,1/2+x,1/2+z
135 3/4-y,x,3/4-z
136 1/2+y,3/4-x,1/4-z
137 1/4-x,1/4-z,y
138 1/2+x,3/4-z,1/4-y
139 x,1/2+z,1/2+y
140 3/4-x,z,3/4-y
141 1/4-z,1/4-y,x
142 3/4-z,y,3/4-x
143 1/2+z,3/4-y,1/4-x
144 z,1/2+y,1/2+x
145 1/2-x,-y,1/2-z
146 3/4+x,3/4+y,-z
147 1/4+x,1/2-y,3/4+z
148 -x,1/4+y,1/4+z
149 1/2-z,-x,1/2-y
150 -z,1/4+x,1/4+y
151 3/4+z,3/4+x,-y
152 1/4+z,1/2-x,3/4+y
153 1/2-y,-z,1/2-x
154 1/4+y,1/2-z,3/4+x
155 -y,1/4+z,1/4+x
156 3/4+y,3/4+z,-x
157 3/4-y,3/4-x,z
158 1/2+y,x,1/2+z
159 1/4-y,1/2+x,3/4-z
160 y,1/4-x,1/4-z
161 3/4-x,3/4-z,y
162 x,1/4-z,1/4-y
163 1/2+x,z,1/2+y
164 1/4-x,1/2+z,3/4-y
165 3/4-z,3/4-y,x
166 1/4-z,1/2+y,3/4-x
167 z,1/4-y,1/4-x
168 1/2+z,y,1/2+x
169 1/2-x,1/2-y,-z
170 3/4+x,1/4+y,1/2-z
171 1/4+x,-y,1/4+z
172 -x,3/4+y,3/4+z
173 1/2-z,1/2-x,-y
174 -z,3/4+x,3/4+y
175 3/4+z,1/4+x,1/2-y
176 1/4+z,-x,1/4+y
177 1/2-y,1/2-z,-x
178 1/4+y,-z,1/4+x
179 -y,3/4+z,3/4+x
180 3/4+y,1/4+z,1/2-x
181 3/4-y,1/4-x,1/2+z
182 1/2+y,1/2+x,z
183 1/4-y,x,1/4-z
184 y,3/4-x,3/4-z
185 3/4-x,1/4-z,1/2+y
186 x,3/4-z,3/4-y
187 1/2+x,1/2+z,y
188 1/4-x,z,1/4-y
189 3/4-z,1/4-y,1/2+x
190 1/4-z,y,1/4-x
191 z,3/4-y,3/4-x
192 1/2+z,1/2+y,x
_cell_length_a                   50.5711(11)
_cell_length_b                   50.5711(11)
_cell_length_c                   50.5711(11)
_cell_angle_alpha                90
_cell_angle_beta                 90
_cell_angle_gamma                90
_cell_volume                     129332
loop_
_atom_site_label
_atom_site_type_symbol
_atom_site_fract_x
_atom_site_fract_y
_atom_site_fract_z
O11 O 0.04934(14) 1.04934(14) 0.04934(14)
O14 O -0.0018(19) 1.0792(13) 0.1708(13)
In1 In -0.12028(2) 1.12028(2) 0.0000
In2 In -0.322103(15) 1.072103(15) 0.02235(2)
Cd2 Cd 0.05576(5) 1.05576(5) 0.10667(7)
O1 O -0.1065(3) 1.0975(2) 0.0334(2)
O2 O -0.0711(3) 1.1195(3) 0.0215(3)
O3 O 0.0159(3) 1.0585(3) 0.0901(4)
O4 O -0.16128(17) 1.10572(19) 0.01137(19)
O5 O -0.15541(19) 1.12651(18) -0.02597(17)
O6 O -0.28444(17) 1.07789(17) 0.00322(17)
O7 O -0.30496(17) 1.05496(17) 0.05496(17)
O8 O -0.36202(15) 1.06984(17) 0.03935(18)
O9 O 0.0744(3) 1.0744(3) 0.0744(3)
C1 C -0.0830(5) 1.1027(3) 0.0353(4)
C2 C -0.0804(5) 1.0707(4) 0.0707(4)
C3 C -0.0664(4) 1.0870(3) 0.0534(3)
C4 C -0.0387(3) 1.0879(3) 0.0558(4)
C5 C -0.0249(6) 1.0726(4) 0.0726(4)
C6 C 0.0031(5) 1.0706(5) 0.0706(5)
C7 C -0.1701(3) 1.1147(3) -0.0102(3)
C8 C -0.2068(2) 1.1142(4) -0.0432(2)
C9 C -0.1986(2) 1.1101(2) -0.0182(2)
C10 C -0.2162(2) 1.0981(2) 0.0001(2)
C11 C -0.2412(2) 1.0929(3) -0.0088(2)
C12 C -0.2614(2) 1.0805(3) 0.0114(2)
C13 C -0.3716(3) 1.0587(2) 0.0587(2)
C14 C -0.3960(3) 1.0691(2) 0.0691(2)
C15 C -0.4073(2) 1.0927(2) 0.0589(3)
O10 O -0.33958(14) 1.08958(14) -0.0161(2)
O12 O 0.0422(4) 1.0422(4) 0.1429(6)
O13 O 0.0491(3) 1.0897(3) 0.1278(3)
In1ZC In -0.12028(2) 1.0000 0.12028(2)
In1VC In 0.0000 1.12028(2) -0.12028(2)
In1WD In -0.2500 1.12028(2) -0.12972(2)
In1XE In -0.12028(2) 1.2500 0.12972(2)
In1OE In -0.37028(2) 0.87028(2) 0.0000
In1CC In -0.37028(2) 1.0000 -0.12972(2)
In1RC In 0.12028(2) 0.87972(2) 0.0000
In1D In 0.0000 0.87972(2) 0.12028(2)
In2DA In -0.27235(2) 1.072103(15) 0.072103(15)
In2M In -0.072103(15) 1.322103(15) -0.02235(2)
In2CC In -0.322103(15) 1.02235(2) 0.072103(15)
In2XB In -0.47765(2) 1.177897(15) 0.072103(15)
In2WA In -0.427897(15) 1.177897(15) 0.02235(2)
In2DB In -0.427897(15) 1.02235(2) 0.177897(15)
In2E In -0.47765(2) 1.072103(15) 0.177897(15)
In2LB In -0.072103(15) 1.27235(2) -0.072103(15)
Cd2H Cd 0.05576(5) 1.10667(7) 0.05576(5)
Cd2M Cd -0.05576(5) 0.94424(5) -0.10667(7)
Cd2D Cd 0.10667(7) 1.05576(5) 0.05576(5)
Cd2W Cd -0.10667(7) 0.94424(5) -0.05576(5)
O1JD O -0.1065(3) 1.0334(2) 0.0975(2)
O1M O -0.0975(2) 1.1065(3) -0.0334(2)
O1VC O -0.0334(2) 1.1065(3) -0.0975(2)
O1ED O 0.0975(2) 0.8935(3) 0.0334(2)
O1D O 0.0334(2) 0.8935(3) 0.0975(2)
O1ZC O -0.0975(2) 0.9666(2) 0.1065(3)
O1OD O 0.0334(2) 1.0975(2) -0.1065(3)
O2JD O -0.0711(3) 1.0215(3) 0.1195(3)
O2M O -0.1195(3) 1.0711(3) -0.0215(3)
O2VC O -0.0215(3) 1.0711(3) -0.1195(3)
O2ED O 0.1195(3) 0.9289(3) 0.0215(3)
O2D O 0.0215(3) 0.9289(3) 0.1195(3)
O2ZC O -0.1195(3) 0.9785(3) 0.0711(3)
O2OD O 0.0215(3) 1.1195(3) -0.0711(3)
O3JD O 0.0159(3) 1.0901(4) 0.0585(3)
O3M O -0.0585(3) 0.9841(3) -0.0901(4)
O3VC O -0.0901(4) 0.9841(3) -0.0585(3)
O3ED O 0.0585(3) 1.0159(3) 0.0901(4)
O3D O 0.0901(4) 1.0159(3) 0.0585(3)
O3H O 0.0585(3) 1.0901(4) 0.0159(3)
O3RC O -0.0159(3) 0.9415(3) -0.0901(4)
O4KE O -0.26137(19) 1.10572(19) -0.08872(17)
O4M O -0.10572(19) 1.16128(17) -0.01137(19)
O4XE O -0.10572(19) 1.26137(19) 0.08872(17)
O4ZE O -0.35572(19) 0.91128(17) 0.01137(19)
O4CC O -0.35572(19) 1.01137(19) -0.08872(17)
O4JD O -0.16128(17) 1.01137(19) 0.10572(19)
O4ZC O -0.10572(19) 0.98863(19) 0.16128(17)
O4VC O -0.01137(19) 1.16128(17) -0.10572(19)
O4OD O 0.01137(19) 1.10572(19) -0.16128(17)
O5KE O -0.22403(17) 1.12651(18) -0.09459(19)
O5M O -0.12651(18) 1.15541(19) 0.02597(17)
O5XE O -0.12651(18) 1.22403(17) 0.09459(19)
O5ZE O -0.37651(18) 0.90541(19) -0.02597(17)
O5CC O -0.37651(18) 0.97403(17) -0.09459(19)
O5JD O -0.15541(19) 0.97403(17) 0.12651(18)
O5ZC O -0.12651(18) 1.02597(17) 0.15541(19)
O5VC O 0.02597(17) 1.15541(19) -0.12651(18)
O5OD O -0.02597(17) 1.12651(18) -0.15541(19)
O6KE O -0.25322(17) 1.07789(17) 0.03444(17)
O6M O -0.07789(17) 1.28444(17) -0.00322(17)
O6XE O -0.07789(17) 1.25322(17) -0.03444(17)
O6ZE O -0.32789(17) 1.03444(17) 0.00322(17)
O6CC O -0.32789(17) 1.00322(17) 0.03444(17)
O6DA O -0.25322(17) 1.03444(17) 0.07789(17)
O6QD O -0.03444(17) 1.32789(17) -0.00322(17)
O7M O -0.05496(17) 1.30496(17) -0.05496(17)
O8JD O -0.36202(15) 1.03935(18) 0.06984(17)
O8XB O -0.46065(18) 1.13798(15) 0.06984(17)
O8YF O -0.43016(17) 1.13798(15) 0.03935(18)
O8DB O -0.43016(17) 1.03935(18) 0.13798(15)
O8KF O -0.46065(18) 1.06984(17) 0.13798(15)
O8ZE O -0.31984(17) 1.11202(15) 0.03935(18)
O8KE O -0.28935(18) 1.06984(17) 0.11202(15)
O8DA O -0.28935(18) 1.11202(15) 0.06984(17)
O8M O -0.06984(17) 1.36202(15) -0.03935(18)
O8QD O -0.11202(15) 1.31984(17) -0.03935(18)
O9M O -0.0744(3) 0.9256(3) -0.0744(3)
C1JD C -0.0830(5) 1.0353(4) 0.1027(3)
C1M C -0.1027(3) 1.0830(5) -0.0353(4)
C1VC C -0.0353(4) 1.0830(5) -0.1027(3)
C1ED C 0.1027(3) 0.9170(5) 0.0353(4)
C1D C 0.0353(4) 0.9170(5) 0.1027(3)
C2M C -0.0707(4) 1.0804(5) -0.0707(4)
C2D C 0.0707(4) 0.9196(5) 0.0707(4)
C3JD C -0.0664(4) 1.0534(3) 0.0870(3)
C3M C -0.0870(3) 1.0664(4) -0.0534(3)
C3VC C -0.0534(3) 1.0664(4) -0.0870(3)
C3ED C 0.0870(3) 0.9336(4) 0.0534(3)
C3D C 0.0534(3) 0.9336(4) 0.0870(3)
C4JD C -0.0387(3) 1.0558(4) 0.0879(3)
C4M C -0.0879(3) 1.0387(3) -0.0558(4)
C4VC C -0.0558(4) 1.0387(3) -0.0879(3)
C4ED C 0.0879(3) 0.9613(3) 0.0558(4)
C4D C 0.0558(4) 0.9613(3) 0.0879(3)
C5M C -0.0726(4) 1.0249(6) -0.0726(4)
C5D C 0.0726(4) 0.9751(6) 0.0726(4)
C6M C -0.0706(5) 0.9969(5) -0.0706(5)
C6D C 0.0706(5) 1.0031(5) 0.0706(5)
C7KE C -0.2398(3) 1.1147(3) -0.0799(3)
C7M C -0.1147(3) 1.1701(3) 0.0102(3)
C7XE C -0.1147(3) 1.2398(3) 0.0799(3)
C7ZE C -0.3647(3) 0.9201(3) -0.0102(3)
C7CC C -0.3647(3) 0.9898(3) -0.0799(3)
C8M C -0.1142(4) 1.2068(2) 0.0432(2)
C8CC C -0.3642(4) 0.9568(2) -0.0432(2)
C9KE C -0.2318(2) 1.1101(2) -0.0514(2)
C9M C -0.1101(2) 1.1986(2) 0.0182(2)
C9XE C -0.1101(2) 1.2318(2) 0.0514(2)
C9ZE C -0.3601(2) 0.9486(2) -0.0182(2)
C9CC C -0.3601(2) 0.9818(2) -0.0514(2)
C10KE C -0.2501(2) 1.0981(2) -0.0338(2)
C10M C -0.0981(2) 1.2162(2) -0.0001(2)
C10XE C -0.0981(2) 1.2501(2) 0.0338(2)
C10ZE C -0.3481(2) 0.9662(2) 0.0001(2)
C10CC C -0.3481(2) 1.0001(2) -0.0338(2)
C11M C -0.0929(3) 1.2412(2) 0.0088(2)
C11CC C -0.3429(3) 0.9912(2) -0.0088(2)
C12M C -0.0805(3) 1.2614(2) -0.0114(2)
C12CC C -0.3305(3) 1.0114(2) 0.0114(2)
C13XB C -0.4413(2) 1.1284(3) 0.0587(2)
C13DB C -0.4413(2) 1.0587(2) 0.1284(3)
C14XB C -0.4309(2) 1.1040(3) 0.0691(2)
C14DB C -0.4309(2) 1.0691(2) 0.1040(3)
C15XB C -0.4411(3) 1.0927(2) 0.0927(2)
C15DB C -0.4073(2) 1.0589(3) 0.0927(2)
O10DA O -0.2339(2) 1.08958(14) 0.08958(14)
O10M O -0.08958(14) 1.33958(14) 0.0161(2)
O12H O 0.0422(4) 1.1429(6) 0.0422(4)
O12M O -0.0422(4) 0.9578(4) -0.1429(6)
O13ED O 0.0897(3) 1.0491(3) 0.1278(3)
O13JD O 0.0491(3) 1.1278(3) 0.0897(3)
O13H O 0.0897(3) 1.1278(3) 0.0491(3)
O13M O -0.0897(3) 0.9509(3) -0.1278(3)
O13RC O -0.0491(3) 0.9103(3) -0.1278(3)
Cd1? Cd -0.322103(15) 1.072103(15) 0.02235(2)
loop_
_geom_bond_atom_site_label_1
_geom_bond_atom_site_label_2
_geom_bond_site_symmetry_1
_geom_bond_site_symmetry_2
In1 O1 1_555 1_555
In2 O6 1_555 1_555
Cd2 O3 1_555 1_555
O1 C1 1_555 1_555
O2 In1 1_555 1_555
O3 C6 1_555 1_555
O4 In1 1_555 1_555
O5 In1 1_555 1_555
O6 C12 1_555 1_555
O7 In2 1_555 1_555
O8 In2 1_555 1_555
O9 Cd2 1_555 1_555
C1 O2 1_555 1_555
C2 C3 1_555 1_555
C3 C1 1_555 1_555
C4 C3 1_555 1_555
C5 C4 1_555 1_555
C6 C5 1_555 1_555
C7 O4 1_555 1_555
C8 C9 1_555 1_555
C9 C7 1_555 1_555
C10 C9 1_555 1_555
C11 C10 1_555 1_555
C12 C11 1_555 1_555
C13 O8 1_555 1_555
C14 C13 1_555 1_555
C15 C14 1_555 1_555
O10 In2 1_555 1_555
O12 Cd2 1_555 1_555
O13 Cd2 1_555 1_555
In1ZC O1JD 1_555 1_555
In1VC O1VC 1_555 1_555
In1WD O4KE 1_555 1_555
In1XE O4XE 1_555 1_555
In1OE O4ZE 1_555 1_555
In1CC O4CC 1_555 1_555
In1RC O1ED 1_555 1_555
In1D O1D 1_555 1_555
In2DA O7 1_555 1_555
In2M O6M 1_555 1_555
In2CC O7 1_555 1_555
In2XB O8XB 1_555 1_555
In2WA O8YF 1_555 1_555
In2DB O8DB 1_555 1_555
In2E O8KF 1_555 1_555
In2LB O6XE 1_555 1_555
Cd2H O9 1_555 1_555
Cd2M O3M 1_555 1_555
Cd2D O9 1_555 1_555
Cd2W O3VC 1_555 1_555
O1JD C1JD 1_555 1_555
O1M In1 1_555 1_555
O1VC C1VC 1_555 1_555
O1ED C1ED 1_555 1_555
O1D C1D 1_555 1_555
O1ZC In1ZC 1_555 1_555
O1OD In1VC 1_555 1_555
O2JD In1ZC 1_555 1_555
O2M In1 1_555 1_555
O2VC In1VC 1_555 1_555
O2ED In1RC 1_555 1_555
O2D In1D 1_555 1_555
O2ZC In1ZC 1_555 1_555
O2OD In1VC 1_555 1_555
O3JD C6 1_555 1_555
O3M C6M 1_555 1_555
O3VC C6M 1_555 1_555
O3ED Cd2 1_555 1_555
O3D Cd2D 1_555 1_555
O3H Cd2H 1_555 1_555
O3RC Cd2M 1_555 1_555
O4KE C7KE 1_555 1_555
O4M In1 1_555 1_555
O4XE C7XE 1_555 1_555
O4ZE C7ZE 1_555 1_555
O4CC C7CC 1_555 1_555
O4JD In1ZC 1_555 1_555
O4ZC In1ZC 1_555 1_555
O4VC In1VC 1_555 1_555
O4OD In1VC 1_555 1_555
O5KE In1WD 1_555 1_555
O5M In1 1_555 1_555
O5XE In1XE 1_555 1_555
O5ZE In1OE 1_555 1_555
O5CC In1CC 1_555 1_555
O5JD In1ZC 1_555 1_555
O5ZC In1ZC 1_555 1_555
O5VC In1VC 1_555 1_555
O5OD In1VC 1_555 1_555
O6KE C12 1_555 1_555
O6M C12M 1_555 1_555
O6XE C12M 1_555 1_555
O6ZE In2 1_555 1_555
O6CC In2CC 1_555 1_555
O6DA In2DA 1_555 1_555
O6QD In2M 1_555 1_555
O7M In2M 1_555 1_555
O8JD C13 1_555 1_555
O8XB C13XB 1_555 1_555
O8YF C13XB 1_555 1_555
O8DB C13DB 1_555 1_555
O8KF C13DB 1_555 1_555
O8ZE In2 1_555 1_555
O8KE In2DA 1_555 1_555
O8DA In2DA 1_555 1_555
O8M In2M 1_555 1_555
O8QD In2M 1_555 1_555
O9M Cd2M 1_555 1_555
C1JD O2JD 1_555 1_555
C1M O1M 1_555 1_555
C1VC O2VC 1_555 1_555
C1ED O2ED 1_555 1_555
C1D O2D 1_555 1_555
C2M C3M 1_555 1_555
C2D C3ED 1_555 1_555
C3JD C2 1_555 1_555
C3M C1M 1_555 1_555
C3VC C1VC 1_555 1_555
C3ED C1ED 1_555 1_555
C3D C1D 1_555 1_555
C4JD C5 1_555 1_555
C4M C3M 1_555 1_555
C4VC C3VC 1_555 1_555
C4ED C3ED 1_555 1_555
C4D C3D 1_555 1_555
C5M C4M 1_555 1_555
C5D C4ED 1_555 1_555
C6M C5M 1_555 1_555
C6D O3ED 1_555 1_555
C7KE O5KE 1_555 1_555
C7M O4M 1_555 1_555
C7XE O5XE 1_555 1_555
C7ZE O5ZE 1_555 1_555
C7CC O5CC 1_555 1_555
C8M C9M 1_555 1_555
C8CC C9ZE 1_555 1_555
C9KE C8 1_555 1_555
C9M C7M 1_555 1_555
C9XE C7XE 1_555 1_555
C9ZE C7ZE 1_555 1_555
C9CC C7CC 1_555 1_555
C10KE C11 1_555 1_555
C10M C9M 1_555 1_555
C10XE C9XE 1_555 1_555
C10ZE C9ZE 1_555 1_555
C10CC C9CC 1_555 1_555
C11M C10M 1_555 1_555
C11CC C10ZE 1_555 1_555
C12M C11M 1_555 1_555
C12CC O6ZE 1_555 1_555
C13XB C14XB 1_555 1_555
C13DB C14DB 1_555 1_555
C14XB C15 1_555 1_555
C14DB C15XB 1_555 1_555
C15XB C14XB 1_555 1_555
C15DB C14 1_555 1_555
O10DA In2DA 1_555 1_555
O10M In2M 1_555 1_555
O12H Cd2H 1_555 1_555
O12M Cd2M 1_555 1_555
O13ED Cd2 1_555 1_555
O13JD Cd2H 1_555 1_555
O13H Cd2H 1_555 1_555
O13M Cd2M 1_555 1_555
O13RC Cd2M 1_555 1_555
O5 C7 1_555 1_555
In2DA O6KE 1_555 1_555
In2CC O8JD 1_555 1_555
In2LB O7M 1_555 1_555
Cd2H O3JD 1_555 1_555
Cd2W O9M 1_555 1_555
O2M C1M 1_555 1_555
O3D C6D 1_555 1_555
O5M C7M 1_555 1_555
O6CC C12CC 1_555 1_555
C1JD C3JD 1_555 1_555
C2M C3VC 1_555 1_555
C2D C3D 1_555 1_555
C3JD C4JD 1_555 1_555
C4VC C5M 1_555 1_555
C4D C5D 1_555 1_555
C5D C6D 1_555 1_555
C7KE C9KE 1_555 1_555
C8M C9XE 1_555 1_555
C8CC C9CC 1_555 1_555
C9KE C10KE 1_555 1_555
C10XE C11M 1_555 1_555
C10CC C11CC 1_555 1_555
C11CC C12CC 1_555 1_555
C14DB C15DB 1_555 1_555

#END
