
#######################################################################
#
#                 Cambridge Crystallographic Data Centre
#                                CCDC 
#
#######################################################################
#
# If this CIF has been generated from an entry in the Cambridge 
# Structural Database, then it will include bibliographic, chemical, 
# crystal, experimental, refinement or atomic coordinate data resulting 
# from the CCDC's data processing and validation procedures.
#
#######################################################################

data_HAPNAP
_symmetry_cell_setting           triclinic
_symmetry_space_group_name_H-M   'P -1'
_symmetry_Int_Tables_number      2
_space_group_name_Hall           '-P 1'
loop_
_symmetry_equiv_pos_site_id
_symmetry_equiv_pos_as_xyz
1 x,y,z
2 -x,-y,-z
_cell_length_a                   17.5175(5)
_cell_length_b                   17.6943(5)
_cell_length_c                   23.4522(7)
_cell_angle_alpha                106.526(2)
_cell_angle_beta                 99.634(2)
_cell_angle_gamma                98.379(2)
_cell_volume                     6725.41
loop_
_atom_site_label
_atom_site_type_symbol
_atom_site_fract_x
_atom_site_fract_y
_atom_site_fract_z
Cd1 Cd 0.65976(9) 0.10551(10) 0.35392(8)
Cd2 Cd 0.79680(9) 0.29089(9) 0.32897(7)
Cd3 Cd 0.63215(9) 0.13819(9) 0.18822(8)
Cd4 Cd 0.57156(8) 0.29239(8) 0.32544(7)
In1 In 0.93537(8) -0.03530(8) 0.21946(7)
In2 In 0.88769(7) 0.10582(8) 0.35621(6)
In3 In 0.71960(7) -0.04763(8) 0.21601(6)
In4 In 0.85840(7) 0.14064(8) 0.19103(6)
In5 In 0.82695(7) 0.25649(8) 0.49165(6)
In6 In 0.49334(7) -0.04468(8) 0.21531(6)
In7 In 0.77662(8) 0.32577(8) 0.16883(6)
In8 In 0.76107(9) 0.40166(9) 0.61403(7)
In9 In 0.59807(7) 0.25823(8) 0.48993(6)
In10 In 0.43231(7) 0.11350(8) 0.35217(6)
In11 In 0.28462(7) -0.02950(8) 0.21556(7)
In12 In 0.73538(8) 0.44629(8) 0.46542(7)
In13 In 0.40386(7) 0.14168(8) 0.18435(6)
In14 In 0.70949(8) 0.47996(8) 0.30534(7)
In15 In 0.54327(8) 0.32454(8) 0.16198(6)
In16 In 0.68507(9) 0.49458(8) 0.14714(7)
S1 S 0.9826(3) 0.0188(3) 0.3289(3)
S2 S 0.8118(3) -0.1343(3) 0.1824(3)
S3 S 0.9556(3) 0.0591(3) 0.1639(3)
S4 S 0.9237(3) 0.1746(3) 0.4654(2)
S5 S 0.7555(3) 0.0154(3) 0.3284(2)
S6 S 0.5872(3) -0.1307(3) 0.1904(3)
S7 S 0.8972(3) 0.2082(3) 0.3026(2)
S8 S 0.7259(3) 0.0488(3) 0.1573(2)
S9 S 0.8696(3) 0.2412(3) 0.1398(2)
S10 S 0.8652(3) 0.3248(3) 0.6006(3)
S11 S 0.6932(3) 0.1692(3) 0.4651(2)
S12 S 0.5243(3) 0.0212(3) 0.3278(2)
S13 S 0.3622(3) -0.1313(3) 0.1884(3)
S14 S 0.8331(3) 0.3616(3) 0.4401(2)
S15 S 0.6652(3) 0.2043(3) 0.2989(2)
S16 S 0.4980(2) 0.0527(3) 0.1570(2)
S17 S 0.8108(3) 0.3977(3) 0.2805(2)
S18 S 0.6411(3) 0.2402(3) 0.1347(2)
S19 S 0.4633(3) 0.1816(3) 0.4617(2)
S20 S 0.2973(3) 0.0378(3) 0.3230(3)
S21 S 0.6016(3) 0.3613(3) 0.4367(2)
S22 S 0.4332(3) 0.2144(3) 0.2969(2)
S23 S 0.2713(3) 0.0578(3) 0.1530(3)
S24 S 0.7403(3) 0.5483(3) 0.4140(2)
S25 S 0.5726(3) 0.3978(3) 0.2742(2)
S26 S 0.4117(3) 0.2383(3) 0.1286(3)
S27 S 0.7137(3) 0.5807(3) 0.2538(2)
S28 S 0.6292(3) 0.3260(3) 0.6006(3)
S29 S 0.5480(3) 0.4227(3) 0.1071(3)
S30 S 0.7902(3) 0.4270(3) 0.1171(3)
S31 S 0.7669(3) 0.5143(3) 0.5745(3)
N1 N 0.1601(9) -0.0945(8) 0.1973(6)
N2 N 0.0293(7) -0.0982(9) 0.1934(6)
C1 C 0.1058(11) -0.0572(10) 0.2154(8)
H1 H 0.1187 -0.0037 0.2427
C2 C 0.0351(9) -0.1703(10) 0.1564(8)
C3 C -0.0246(11) -0.2300(10) 0.1145(10)
H2 H -0.0790 -0.2280 0.1113
C4 C 0.0001(14) -0.2907(14) 0.0789(12)
C5 C 0.0810(13) -0.2946(14) 0.0786(12)
C6 C 0.1389(11) -0.2323(10) 0.1147(8)
H3 H 0.1931 -0.2314 0.1144
C7 C 0.1142(12) -0.1711(10) 0.1515(12)
C8 C -0.0588(15) -0.3626(16) 0.0303(14)
H4 H -0.0503 -0.4128 0.0377
H5 H -0.0506 -0.3642 -0.0103
H6 H -0.1131 -0.3564 0.0325
C9 C 0.093(2) -0.360(2) 0.0211(17)
H7 H 0.0569 -0.3589 -0.0154
H8 H 0.0816 -0.4130 0.0261
H9 H 0.1477 -0.3476 0.0169
N3 N 0.68407(13) 0.58344(8) 0.09789(5)
N4 N 0.66507(10) 0.61290(6) 0.00629(4)
C10 C 0.66529(10) 0.66113(8) 0.12807(7)
H10 H 0.6395 0.6568 0.1618
H11 H 0.7145 0.7029 0.1454
C11 C 0.61277(10) 0.68355(12) 0.08380(5)
H12 H 0.5618 0.6443 0.0709
H13 H 0.6021 0.7368 0.1045
C12 C 0.63976(10) 0.68789(8) 0.02942(6)
H14 H 0.5963 0.6935 -0.0011
H15 H 0.6843 0.7343 0.0394
C13 C 0.66821(19) 0.58779(6) -0.05758(5)
H16 H 0.7152 0.6176 -0.0659
H17 H 0.6194 0.5900 -0.0847
C14 C 0.6748(2) 0.50420(7) -0.05928(6)
H18 H 0.7088 0.4849 -0.0878
H19 H 0.6216 0.4691 -0.0760
C15 C 0.70807(11) 0.49456(9) 0.00158(5)
H20 H 0.6824 0.4434 0.0058
H21 H 0.7661 0.4992 0.0093
C16 C 0.68447(13) 0.56636(7) 0.04091(4)
N5 N 0.80118(7) 0.44559(8) 0.71818(8)
N6 N 0.90918(6) 0.51473(8) 0.80122(4)
C17 C 0.75754(9) 0.38668(10) 0.74045(6)
H22 H 0.7086 0.4023 0.7515
H23 H 0.7446 0.3317 0.7107
C18 C 0.81755(11) 0.39408(9) 0.79356(8)
H24 H 0.7905 0.3695 0.8198
H25 H 0.8544 0.3594 0.7789
C19 C 0.86614(11) 0.47052(9) 0.83320(7)
H26 H 0.8319 0.5040 0.8538
H27 H 0.9044 0.4606 0.8651
C20 C 0.98360(9) 0.57260(10) 0.82378(5)
H28 H 1.0280 0.5481 0.8368
H29 H 0.9809 0.6199 0.8577
C21 C 0.98911(10) 0.59329(14) 0.76709(5)
H30 H 1.0391 0.5826 0.7553
H31 H 0.9893 0.6513 0.7746
C22 C 0.91953(8) 0.54357(11) 0.71596(6)
H32 H 0.8900 0.5790 0.6993
H33 H 0.9380 0.5078 0.6826
C23 C 0.86787(7) 0.49483(11) 0.74320(5)
In1_2 In -0.06463(8) -0.03530(8) 0.21946(7)
N2_2 N 1.0293(7) -0.0982(9) 0.1934(6)
N7 N 0.9120(2) 0.72122(7) 0.36995(6)
N8 N 0.89351(11) 0.71085(6) 0.26274(4)
C24 C 0.92375(13) 0.80816(7) 0.40064(7)
H34 H 0.9014 0.8228 0.4374
H35 H 0.9787 0.8382 0.4082
C25 C 0.87236(16) 0.8076(2) 0.34515(4)
H36 H 0.8215 0.7761 0.3464
H37 H 0.8651 0.8640 0.3556
C26 C 0.86835(14) 0.78693(9) 0.28014(5)
H38 H 0.8136 0.7816 0.2578
H39 H 0.9037 0.8289 0.2711
C27 C 0.89233(10) 0.67587(9) 0.19864(5)
H40 H 0.9208 0.7124 0.1805
H41 H 0.8394 0.6478 0.1727
C28 C 0.94013(12) 0.62290(9) 0.22115(5)
H42 H 0.9963 0.6440 0.2230
H43 H 0.9250 0.5688 0.1901
C29 C 0.93489(12) 0.61222(7) 0.28232(5)
H44 H 0.8935 0.5652 0.2780
H45 H 0.9862 0.6066 0.3041
C30 C 0.91311(14) 0.69003(8) 0.31355(4)
loop_
_geom_bond_atom_site_label_1
_geom_bond_atom_site_label_2
_geom_bond_site_symmetry_1
_geom_bond_site_symmetry_2
Cd1 S5 1_555 1_555
Cd2 S7 1_555 1_555
Cd3 S8 1_555 1_555
Cd4 S15 1_555 1_555
In1 S1 1_555 1_555
In2 S1 1_555 1_555
In3 S2 1_555 1_555
In4 S3 1_555 1_555
In5 S4 1_555 1_555
In6 S6 1_555 1_555
In7 S9 1_555 1_555
In8 S10 1_555 1_555
In9 S11 1_555 1_555
In10 S12 1_555 1_555
In11 S13 1_555 1_555
In12 S14 1_555 1_555
In13 S16 1_555 1_555
In14 S17 1_555 1_555
In15 S18 1_555 1_555
In16 S27 1_555 1_555
S2 In1 1_555 1_555
S3 In1 1_555 1_555
S4 In2 1_555 1_555
S5 In2 1_555 1_555
S6 In3 1_555 1_555
S7 In2 1_555 1_555
S8 In3 1_555 1_555
S9 In4 1_555 1_555
S10 In5 1_555 1_555
S11 Cd1 1_555 1_555
S12 Cd1 1_555 1_555
S13 In6 1_555 1_555
S14 Cd2 1_555 1_555
S15 Cd1 1_555 1_555
S16 Cd3 1_555 1_555
S17 Cd2 1_555 1_555
S18 Cd3 1_555 1_555
S19 In9 1_555 1_555
S20 In10 1_555 1_555
S21 Cd4 1_555 1_555
S22 Cd4 1_555 1_555
S23 In11 1_555 1_555
S24 In12 1_555 1_555
S25 Cd4 1_555 1_555
S26 In13 1_555 1_555
S27 In14 1_555 1_555
S28 In8 1_555 1_555
S29 In15 1_555 1_555
S30 In7 1_555 1_555
S31 In8 1_555 1_555
N1 In11 1_555 1_555
N2 C1 1_555 1_555
C1 N1 1_555 1_555
H1 C1 1_555 1_555
C2 N2 1_555 1_555
C3 C2 1_555 1_555
H2 C3 1_555 1_555
C4 C3 1_555 1_555
C5 C4 1_555 1_555
C6 C5 1_555 1_555
H3 C6 1_555 1_555
C7 N1 1_555 1_555
C8 C4 1_555 1_555
H4 C8 1_555 1_555
H5 C8 1_555 1_555
H6 C8 1_555 1_555
C9 C5 1_555 1_555
H7 C9 1_555 1_555
H8 C9 1_555 1_555
H9 C9 1_555 1_555
N3 In16 1_555 1_555
N4 C12 1_555 1_555
C10 N3 1_555 1_555
H10 C10 1_555 1_555
H11 C10 1_555 1_555
C11 C10 1_555 1_555
H12 C11 1_555 1_555
H13 C11 1_555 1_555
C12 C11 1_555 1_555
H14 C12 1_555 1_555
H15 C12 1_555 1_555
C13 N4 1_555 1_555
H16 C13 1_555 1_555
H17 C13 1_555 1_555
C14 C13 1_555 1_555
H18 C14 1_555 1_555
H19 C14 1_555 1_555
C15 C14 1_555 1_555
H20 C15 1_555 1_555
H21 C15 1_555 1_555
C16 N3 1_555 1_555
N5 In8 1_555 1_555
N6 C19 1_555 1_555
C17 N5 1_555 1_555
H22 C17 1_555 1_555
H23 C17 1_555 1_555
C18 C17 1_555 1_555
H24 C18 1_555 1_555
H25 C18 1_555 1_555
C19 C18 1_555 1_555
H26 C19 1_555 1_555
H27 C19 1_555 1_555
C20 N6 1_555 1_555
H28 C20 1_555 1_555
H29 C20 1_555 1_555
C21 C20 1_555 1_555
H30 C21 1_555 1_555
H31 C21 1_555 1_555
C22 C21 1_555 1_555
H32 C22 1_555 1_555
H33 C22 1_555 1_555
C23 N5 1_555 1_555
N7 C24 1_555 1_555
N8 C26 1_555 1_555
C24 H34 1_555 1_555
H35 C24 1_555 1_555
C25 C24 1_555 1_555
H36 C25 1_555 1_555
H37 C25 1_555 1_555
C26 C25 1_555 1_555
H38 C26 1_555 1_555
H39 C26 1_555 1_555
C27 N8 1_555 1_555
H40 C27 1_555 1_555
H41 C27 1_555 1_555
C28 C27 1_555 1_555
H42 C28 1_555 1_555
H43 C28 1_555 1_555
C29 C28 1_555 1_555
H44 C29 1_555 1_555
H45 C29 1_555 1_555
C30 N7 1_555 1_555
In1_2 N2 1_555 1_555
N2_2 In1 1_555 1_555
Cd2 S15 1_555 1_555
Cd3 S15 1_555 1_555
In3 S5 1_555 1_555
In4 S7 1_555 1_555
In4 S8 1_555 1_555
In5 S11 1_555 1_555
In5 S14 1_555 1_555
In6 S12 1_555 1_555
In6 S16 1_555 1_555
In7 S17 1_555 1_555
In7 S18 1_555 1_555
In9 S21 1_555 1_555
In9 S28 1_555 1_555
In10 S19 1_555 1_555
In10 S22 1_555 1_555
In11 S20 1_555 1_555
In12 S21 1_555 1_555
In12 S31 1_555 1_555
In13 S22 1_555 1_555
In13 S23 1_555 1_555
In14 S24 1_555 1_555
In14 S25 1_555 1_555
In15 S25 1_555 1_555
In15 S26 1_555 1_555
In16 S29 1_555 1_555
In16 S30 1_555 1_555
C2 C7 1_555 1_555
C6 C7 1_555 1_555
N4 C16 1_555 1_555
C15 C16 1_555 1_555
N6 C23 1_555 1_555
C22 C23 1_555 1_555
N8 C30 1_555 1_555
C29 C30 1_555 1_555

#END
