
#######################################################################
#
#                 Cambridge Crystallographic Data Centre
#                                CCDC 
#
#######################################################################
#
# If this CIF has been generated from an entry in the Cambridge 
# Structural Database, then it will include bibliographic, chemical, 
# crystal, experimental, refinement or atomic coordinate data resulting 
# from the CCDC's data processing and validation procedures.
#
#######################################################################

data_HAQCUZ
_symmetry_cell_setting           monoclinic
_symmetry_space_group_name_H-M   'C 2/c'
_symmetry_Int_Tables_number      15
_space_group_name_Hall           '-C 2yn'
loop_
_symmetry_equiv_pos_site_id
_symmetry_equiv_pos_as_xyz
1 x,y,z
2 -x,y,1/2-z
3 1/2+x,1/2+y,z
4 1/2-x,1/2+y,1/2-z
5 -x,-y,-z
6 x,-y,1/2+z
7 1/2-x,1/2-y,-z
8 1/2+x,1/2-y,1/2+z
_cell_length_a                   29.951(6)
_cell_length_b                   7.4407(15)
_cell_length_c                   15.860(3)
_cell_angle_alpha                90
_cell_angle_beta                 103.44(3)
_cell_angle_gamma                90
_cell_volume                     3437.71
loop_
_atom_site_label
_atom_site_type_symbol
_atom_site_fract_x
_atom_site_fract_y
_atom_site_fract_z
C1 C 0.60133(7) 0.3911(3) 0.30392(13)
C2 C 0.60203(9) 0.5053(3) 0.37319(15)
H1 H 0.5826 0.4848 0.4102
C3 C 0.63191(10) 0.6503(3) 0.38686(16)
H2 H 0.6324 0.7276 0.4332
C4 C 0.66092(9) 0.6808(3) 0.33219(16)
H3 H 0.6808 0.7784 0.3424
C5 C 0.66092(7) 0.5676(3) 0.26177(13)
C6 C 0.63074(7) 0.4220(3) 0.24946(14)
H4 H 0.6303 0.3437 0.2036
C7 C 0.56758(7) 0.2378(3) 0.28256(15)
C8 C 0.69154(7) 0.5973(3) 0.20229(15)
C9 C 0.68745(8) 0.5170(3) 0.11928(16)
H5 H 0.6646 0.4374 0.0924
C10 C 0.72432(9) 0.5796(3) 0.08449(19)
H6 H 0.7298 0.5477 0.0311
C11 C 0.75105(9) 0.6981(4) 0.14472(19)
H7 H 0.7773 0.7576 0.1381
C12 C 0.73105(8) 0.7116(3) 0.21733(17)
H8 H 0.7418 0.7823 0.2662
C13 C 0.62897(9) 0.9413(3) 0.11084(18)
H9 H 0.6094 0.9253 0.1480
C14 C 0.62405(10) 0.8628(4) 0.02878(19)
H10 H 0.6007 0.7851 0.0021
C15 C 0.66035(12) 0.9213(4) -0.00603(19)
H11 H 0.6653 0.8896 -0.0599
C16 C 0.68802(11) 1.0361(4) 0.0544(2)
H12 H 0.7145 1.0938 0.0477
C17 C 0.66871(10) 1.0485(3) 0.1269(2)
H13 H 0.6802 1.1158 0.1766
C18 C 0.47394(8) -0.3026(3) 0.32615(15)
H14 H 0.4547 -0.3122 0.2711
C19 C 0.47276(8) -0.4375(3) 0.38515(14)
H15 H 0.4537 -0.5363 0.3689
C20 C 0.49976(7) -0.4262(2) 0.46814(12)
C21 C 0.52591(10) -0.2714(3) 0.48780(14)
H16 H 0.5433 -0.2532 0.5438
C22 C 0.52622(9) -0.1441(3) 0.42448(14)
H17 H 0.5448 -0.0434 0.4391
Cu1 Cu 0.5000 0.02710(4) 0.2500
Fe1 Fe 0.685300(10) 0.78970(4) 0.10765(2)
N1 N 0.50120(6) -0.1588(2) 0.34364(10)
O1 O 0.56684(7) 0.1461(3) 0.21655(13)
O2 O 0.53920(6) 0.2119(2) 0.32921(10)
C1A C 0.39867(7) 0.3911(3) 0.19608(13)
C2A C 0.39797(9) 0.5053(3) 0.12681(15)
H1A H 0.4174 0.4848 0.0898
C3A C 0.36809(10) 0.6503(3) 0.11314(16)
H2A H 0.3676 0.7276 0.0668
C4A C 0.33908(9) 0.6808(3) 0.16781(16)
H3A H 0.3192 0.7784 0.1576
C5A C 0.33908(7) 0.5676(3) 0.23823(13)
C6A C 0.36926(7) 0.4220(3) 0.25054(14)
H4A H 0.3697 0.3437 0.2964
C7A C 0.43242(7) 0.2378(3) 0.21744(15)
C8A C 0.30846(7) 0.5973(3) 0.29771(15)
C9A C 0.31255(8) 0.5170(3) 0.38072(16)
H5A H 0.3354 0.4374 0.4076
C10A C 0.27568(9) 0.5796(3) 0.41551(19)
H6A H 0.2702 0.5477 0.4689
C11A C 0.24895(9) 0.6981(4) 0.35528(19)
H7A H 0.2227 0.7576 0.3619
C12A C 0.26895(8) 0.7116(3) 0.28267(17)
H8A H 0.2582 0.7823 0.2338
C13A C 0.37103(9) 0.9413(3) 0.38916(18)
H9A H 0.3906 0.9253 0.3520
C14A C 0.37595(10) 0.8628(4) 0.47122(19)
H10A H 0.3993 0.7851 0.4979
C15A C 0.33965(12) 0.9213(4) 0.50603(19)
H11A H 0.3347 0.8896 0.5599
C16A C 0.31198(11) 1.0361(4) 0.4456(2)
H12A H 0.2855 1.0938 0.4523
C17A C 0.33129(10) 1.0485(3) 0.3731(2)
H13A H 0.3198 1.1158 0.3234
C18D C 0.52606(8) -0.6974(3) 0.67385(15)
H14D H 0.5453 -0.6878 0.7289
C19D C 0.52724(8) -0.5625(3) 0.61485(14)
H15D H 0.5463 -0.4637 0.6311
C20D C 0.50024(7) -0.5738(2) 0.53186(12)
C21D C 0.47409(10) -0.7286(3) 0.51220(14)
H16D H 0.4567 -0.7468 0.4562
C22D C 0.47378(9) -0.8559(3) 0.57552(14)
H17D H 0.4552 -0.9566 0.5609
Cu1D Cu 0.5000 -1.02710(4) 0.7500
Fe1A Fe 0.314700(10) 0.78970(4) 0.39235(2)
N1D N 0.49880(6) -0.8412(2) 0.65636(10)
N1A N 0.49880(6) -0.1588(2) 0.15636(10)
O1A O 0.43316(7) 0.1461(3) 0.28345(13)
O2A O 0.46080(6) 0.2119(2) 0.17079(10)
loop_
_geom_bond_atom_site_label_1
_geom_bond_atom_site_label_2
_geom_bond_site_symmetry_1
_geom_bond_site_symmetry_2
C1 C2 1_555 1_555
C2 H1 1_555 1_555
C3 C2 1_555 1_555
H2 C3 1_555 1_555
C4 C3 1_555 1_555
H3 C4 1_555 1_555
C5 C4 1_555 1_555
C6 C1 1_555 1_555
H4 C6 1_555 1_555
C7 C1 1_555 1_555
C8 C5 1_555 1_555
C9 C8 1_555 1_555
H5 C9 1_555 1_555
C10 C9 1_555 1_555
H6 C10 1_555 1_555
C11 C10 1_555 1_555
H7 C11 1_555 1_555
C12 C8 1_555 1_555
H8 C12 1_555 1_555
C13 H9 1_555 1_555
C14 C13 1_555 1_555
H10 C14 1_555 1_555
C15 C14 1_555 1_555
H11 C15 1_555 1_555
C16 C15 1_555 1_555
H12 C16 1_555 1_555
C17 C13 1_555 1_555
H13 C17 1_555 1_555
C18 H14 1_555 1_555
C19 C18 1_555 1_555
H15 C19 1_555 1_555
C20 C19 1_555 1_555
C21 C20 1_555 1_555
H16 C21 1_555 1_555
C22 C21 1_555 1_555
H17 C22 1_555 1_555
Cu1 N1 1_555 1_555
Fe1 C8 1_555 1_555
N1 C18 1_555 1_555
O1 C7 1_555 1_555
O2 C7 1_555 1_555
C1A C2A 1_555 1_555
C2A H1A 1_555 1_555
C3A C2A 1_555 1_555
H2A C3A 1_555 1_555
C4A C3A 1_555 1_555
H3A C4A 1_555 1_555
C5A C4A 1_555 1_555
C6A C1A 1_555 1_555
H4A C6A 1_555 1_555
C7A C1A 1_555 1_555
C8A C5A 1_555 1_555
C9A C8A 1_555 1_555
H5A C9A 1_555 1_555
C10A C9A 1_555 1_555
H6A C10A 1_555 1_555
C11A C10A 1_555 1_555
H7A C11A 1_555 1_555
C12A C8A 1_555 1_555
H8A C12A 1_555 1_555
C13A H9A 1_555 1_555
C14A C13A 1_555 1_555
H10A C14A 1_555 1_555
C15A C14A 1_555 1_555
H11A C15A 1_555 1_555
C16A C15A 1_555 1_555
H12A C16A 1_555 1_555
C17A C13A 1_555 1_555
H13A C17A 1_555 1_555
C18D H14D 1_555 1_555
C19D C18D 1_555 1_555
H15D C19D 1_555 1_555
C20D C20 1_555 1_555
C21D C20D 1_555 1_555
H16D C21D 1_555 1_555
C22D C21D 1_555 1_555
H17D C22D 1_555 1_555
Cu1D N1D 1_555 1_555
Fe1A C8A 1_555 1_555
N1D C18D 1_555 1_555
N1A Cu1 1_555 1_555
O1A Cu1 1_555 1_555
O2A Cu1 1_555 1_555
C5 C6 1_555 1_555
C9 Fe1 1_555 1_555
C10 Fe1 1_555 1_555
C11 C12 1_555 1_555
C11 Fe1 1_555 1_555
C12 Fe1 1_555 1_555
C13 Fe1 1_555 1_555
C14 Fe1 1_555 1_555
C15 Fe1 1_555 1_555
C16 C17 1_555 1_555
C16 Fe1 1_555 1_555
C17 Fe1 1_555 1_555
C22 N1 1_555 1_555
Cu1 O1 1_555 1_555
Cu1 O2 1_555 1_555
C5A C6A 1_555 1_555
C7A O1A 1_555 1_555
C7A O2A 1_555 1_555
C9A Fe1A 1_555 1_555
C10A Fe1A 1_555 1_555
C11A C12A 1_555 1_555
C11A Fe1A 1_555 1_555
C12A Fe1A 1_555 1_555
C13A Fe1A 1_555 1_555
C14A Fe1A 1_555 1_555
C15A Fe1A 1_555 1_555
C16A C17A 1_555 1_555
C16A Fe1A 1_555 1_555
C17A Fe1A 1_555 1_555
C19D C20D 1_555 1_555
C22D N1D 1_555 1_555

#END
