
#######################################################################
#
#                 Cambridge Crystallographic Data Centre
#                                CCDC 
#
#######################################################################
#
# If this CIF has been generated from an entry in the Cambridge 
# Structural Database, then it will include bibliographic, chemical, 
# crystal, experimental, refinement or atomic coordinate data resulting 
# from the CCDC's data processing and validation procedures.
#
#######################################################################

data_HAQDOU
_symmetry_cell_setting           monoclinic
_symmetry_space_group_name_H-M   'C c'
_symmetry_Int_Tables_number      9
_space_group_name_Hall           'C -2yc'
loop_
_symmetry_equiv_pos_site_id
_symmetry_equiv_pos_as_xyz
1 x,y,z
2 x,-y,1/2+z
3 1/2+x,1/2+y,z
4 1/2+x,1/2-y,1/2+z
_cell_length_a                   9.5413(10)
_cell_length_b                   12.3171(9)
_cell_length_c                   10.3264(10)
_cell_angle_alpha                90
_cell_angle_beta                 111.155(4)
_cell_angle_gamma                90
_cell_volume                     1131.78
loop_
_atom_site_label
_atom_site_type_symbol
_atom_site_fract_x
_atom_site_fract_y
_atom_site_fract_z
Cu1 Cu -0.66640(6) 0.27047(6) -0.12078(6)
Cl1 Cl -0.6722(2) 0.53963(13) -0.07273(17)
O1 O -0.7822(8) 0.5807(5) -0.0219(8)
O2 O -0.6424(10) 0.6205(6) -0.1551(7)
O3 O -0.5385(7) 0.5126(5) 0.0401(6)
O4 O -0.7346(7) 0.4448(4) -0.1542(6)
N1 N -0.2552(6) 0.2719(4) 0.1835(5)
N2 N -0.3987(6) 0.2559(4) 0.1054(5)
N3 N -0.4407(6) 0.2896(4) -0.0240(5)
C1 C -0.3144(7) 0.3361(5) -0.0321(6)
C2 C -0.2918(8) 0.3880(5) -0.1447(7)
H1 H -0.3668 0.3952 -0.2319
C3 C -0.1519(13) 0.4260(5) -0.1138(12)
H2 H -0.1336 0.4652 -0.1831
C4 C -0.0312(9) 0.4133(5) 0.0107(8)
H3 H 0.0634 0.4393 0.0198
C5 C -0.0528(8) 0.3621(6) 0.1196(8)
H4 H 0.0248 0.3531 0.2049
C6 C -0.1987(7) 0.3239(5) 0.0953(6)
C7 C -0.5045(8) 0.1973(6) 0.1522(7)
H5 H -0.4751 0.2044 0.2520
H6 H -0.5038 0.1208 0.1301
C8 C -0.6582(8) 0.2427(6) 0.0820(6)
H7 H -0.6739 0.3157 0.0957
C9 C -0.7757(8) 0.1837(6) -0.0002(7)
H8 H -0.7631 0.1106 -0.0156
H9 H -0.8694 0.2162 -0.0415
Cu1C Cu -0.16640(6) 0.22953(6) 0.37922(6)
N1C N -0.7552(6) 0.2281(4) -0.3165(5)
loop_
_geom_bond_atom_site_label_1
_geom_bond_atom_site_label_2
_geom_bond_site_symmetry_1
_geom_bond_site_symmetry_2
Cu1 O4 1_555 1_555
Cl1 O1 1_555 1_555
O2 Cl1 1_555 1_555
O3 Cl1 1_555 1_555
O4 Cl1 1_555 1_555
N1 N2 1_555 1_555
N2 N3 1_555 1_555
N3 Cu1 1_555 1_555
C1 N3 1_555 1_555
C2 C1 1_555 1_555
H1 C2 1_555 1_555
C3 C2 1_555 1_555
H2 C3 1_555 1_555
C4 C3 1_555 1_555
H3 C4 1_555 1_555
C5 C4 1_555 1_555
H4 C5 1_555 1_555
C6 N1 1_555 1_555
C7 N2 1_555 1_555
H5 C7 1_555 1_555
H6 C7 1_555 1_555
C8 Cu1 1_555 1_555
H7 C8 1_555 1_555
C9 Cu1 1_555 1_555
H8 C9 1_555 1_555
H9 C9 1_555 1_555
Cu1C N1 1_555 1_555
N1C Cu1 1_555 1_555
C1 C6 1_555 1_555
C5 C6 1_555 1_555
C7 C8 1_555 1_555
C8 C9 1_555 1_555

#END
