
#######################################################################
#
#                 Cambridge Crystallographic Data Centre
#                                CCDC 
#
#######################################################################
#
# If this CIF has been generated from an entry in the Cambridge 
# Structural Database, then it will include bibliographic, chemical, 
# crystal, experimental, refinement or atomic coordinate data resulting 
# from the CCDC's data processing and validation procedures.
#
#######################################################################

data_HAQDIO
_symmetry_cell_setting           orthorhombic
_symmetry_space_group_name_H-M   'P b c a'
_symmetry_Int_Tables_number      61
_space_group_name_Hall           '-P 2ac 2ab'
loop_
_symmetry_equiv_pos_site_id
_symmetry_equiv_pos_as_xyz
1 x,y,z
2 1/2+x,1/2-y,-z
3 -x,1/2+y,1/2-z
4 1/2-x,-y,1/2+z
5 -x,-y,-z
6 1/2-x,1/2+y,z
7 x,1/2-y,1/2+z
8 1/2+x,y,1/2-z
_cell_length_a                   13.502(8)
_cell_length_b                   11.299(5)
_cell_length_c                   16.124(8)
_cell_angle_alpha                90
_cell_angle_beta                 90
_cell_angle_gamma                90
_cell_volume                     2459.86
loop_
_atom_site_label
_atom_site_type_symbol
_atom_site_fract_x
_atom_site_fract_y
_atom_site_fract_z
Cu1 Cu -0.23314(4) 0.38726(4) 0.30783(3)
O1 O -0.0761(2) 0.4061(2) 0.3318(2)
H1 H -0.0528 0.4773 0.3084
H2 H -0.0415 0.3407 0.31
N1 N -0.2468(3) 0.0381(3) 0.2481(2)
N2 N -0.2604(2) 0.1443(3) 0.2811(2)
N3 N -0.2236(2) 0.2342(3) 0.2395(2)
C1 C -0.1961(3) 0.0603(3) 0.1768(2)
C2 C -0.1609(3) -0.0170(3) 0.1150(2)
H3 H -0.171 -0.0983 0.1177
C3 C -0.1110(3) 0.0346(4) 0.0510(2)
H4 H -0.0877 -0.0132 0.0083
C4 C -0.0931(3) 0.1589(4) 0.0468(2)
H5 H -0.0576 0.189 0.0021
C5 C -0.1265(3) 0.2352(4) 0.1065(2)
H6 H -0.1145 0.3162 0.1041
C6 C -0.1804(3) 0.1831(3) 0.1718(2)
C7 C -0.3195(3) 0.1661(3) 0.3562(2)
H7 H -0.3167 0.0973 0.392
H8 H -0.3881 0.1794 0.3409
C8 C -0.2805(3) 0.2723(4) 0.4017(2)
H9 H -0.2175 0.2684 0.4249
C9 C -0.3331(3) 0.3735(4) 0.4105(3)
H10 H -0.3962 0.3794 0.3878
H11 H -0.3061 0.4372 0.4392
Cu1E Cu -0.26686(4) -0.11274(4) 0.30783(3)
N1E N -0.2532(3) 0.5381(3) 0.2481(2)
F1 F -0.4264(7) 0.0337(5) 0.1034(6)
F2 F -0.5026(8) 0.0689(13) 0.2250(6)
F3 F -0.4360(9) 0.2227(14) 0.1484(10)
F4 F -0.5722(2) 0.1368(3) 0.1084(2)
B1 B -0.4827(4) 0.1140(4) 0.1472(3)
F5? F -0.4995(12) 0.0408(18) 0.2095(11)
F6? F -0.4430(14) 0.2077(16) 0.1858(11)
F7? F -0.4189(13) 0.063(2) 0.0991(11)
loop_
_geom_bond_atom_site_label_1
_geom_bond_atom_site_label_2
_geom_bond_site_symmetry_1
_geom_bond_site_symmetry_2
Cu1 O1 1_555 1_555
F1 B1 1_555 1_555
F2 B1 1_555 1_555
F3 B1 1_555 1_555
F4 B1 1_555 1_555
O1 H1 1_555 1_555
H2 O1 1_555 1_555
N1 N2 1_555 1_555
N2 N3 1_555 1_555
N3 Cu1 1_555 1_555
C1 N1 1_555 1_555
C2 C1 1_555 1_555
H3 C2 1_555 1_555
C3 C2 1_555 1_555
H4 C3 1_555 1_555
C4 C3 1_555 1_555
H5 C4 1_555 1_555
C5 C4 1_555 1_555
H6 C5 1_555 1_555
C6 N3 1_555 1_555
C7 N2 1_555 1_555
H7 C7 1_555 1_555
H8 C7 1_555 1_555
C8 Cu1 1_555 1_555
H9 C8 1_555 1_555
C9 Cu1 1_555 1_555
H10 C9 1_555 1_555
H11 C9 1_555 1_555
Cu1E N1 1_555 1_555
N1E Cu1 1_555 1_555
C1 C6 1_555 1_555
C5 C6 1_555 1_555
C7 C8 1_555 1_555
C8 C9 1_555 1_555

#END
