
#######################################################################
#
#                 Cambridge Crystallographic Data Centre
#                                CCDC 
#
#######################################################################
#
# If this CIF has been generated from an entry in the Cambridge 
# Structural Database, then it will include bibliographic, chemical, 
# crystal, experimental, refinement or atomic coordinate data resulting 
# from the CCDC's data processing and validation procedures.
#
#######################################################################

data_HARGOW
_symmetry_cell_setting           monoclinic
_symmetry_space_group_name_H-M   'C 2/c'
_symmetry_Int_Tables_number      15
_space_group_name_Hall           '-C 2yn'
loop_
_symmetry_equiv_pos_site_id
_symmetry_equiv_pos_as_xyz
1 x,y,z
2 1/2+x,1/2+y,z
3 -x,y,1/2-z
4 1/2-x,1/2+y,1/2-z
5 -x,-y,-z
6 1/2-x,1/2-y,-z
7 x,-y,1/2+z
8 1/2+x,1/2-y,1/2+z
_cell_length_a                   16.860(4)
_cell_length_b                   12.395(2)
_cell_length_c                   10.328(3)
_cell_angle_alpha                90
_cell_angle_beta                 91.79(2)
_cell_angle_gamma                90
_cell_volume                     2157.29
loop_
_atom_site_label
_atom_site_type_symbol
_atom_site_fract_x
_atom_site_fract_y
_atom_site_fract_z
Bi1 Bi 0.39851(3) 0.63050(4) 0.48965(5)
O1 O 0.2527(6) 0.6365(8) 0.4553(9)
O2 O 0.1385(5) 0.7069(8) 0.3879(9)
O3 O 0.4663(5) 0.5904(8) 0.080(1)
O4 O 0.4821(6) 0.7578(8) 0.016(1)
O5 O 0.3734(6) 0.5064(7) 0.3327(9)
O6 O 0.2994(6) 0.4920(9) 0.153(1)
O7 O 0.3823(6) 0.7212(8) 0.3158(9)
C1 C 0.2107(7) 0.680(1) 0.374(1)
C2 C 0.2440(8) 0.707(1) 0.241(1)
C3 C 0.3308(8) 0.672(1) 0.225(1)
C4 C 0.3538(9) 0.706(1) 0.089(1)
C5 C 0.4394(8) 0.683(1) 0.061(1)
C6 C 0.3344(8) 0.547(1) 0.236(1)
O1E O 0.2473(6) 0.8635(8) 0.5447(9)
O2E O 0.3615(5) 0.7931(8) 0.6121(9)
O3E O 0.0337(5) 0.9096(8) 0.920(1)
O4E O 0.0179(6) 0.7422(8) 0.984(1)
O5E O 0.1266(6) 0.9936(7) 0.6673(9)
O6E O 0.2006(6) 1.0080(9) 0.847(1)
O7E O 0.1177(6) 0.7788(8) 0.6842(9)
C1E C 0.2893(7) 0.820(1) 0.626(1)
C2E C 0.2560(8) 0.793(1) 0.759(1)
C3E C 0.1692(8) 0.828(1) 0.775(1)
C4E C 0.1462(9) 0.794(1) 0.911(1)
C5E C 0.0606(8) 0.817(1) 0.939(1)
C6E C 0.1656(8) 0.953(1) 0.764(1)
Bi1E Bi 0.10149(3) 0.86950(4) 0.51035(5)
O3B O 0.5337(5) 0.5904(8) 0.420(1)
O3F O 0.4663(5) 0.4096(8) 0.580(1)
O4B O 0.5179(6) 0.7578(8) 0.484(1)
O6F O 0.2994(6) 0.5080(9) 0.653(1)
Bi1B Bi 0.60149(3) 0.63050(4) 0.01035(5)
Bi1F Bi 0.39851(3) 0.36950(4) -0.01035(5)
Bi1C Bi 0.10149(3) 1.13050(4) 1.01035(5)
Bi1G Bi -0.10149(3) 0.86950(4) 0.98965(5)
O3C O 0.0337(5) 1.0904(8) 0.420(1)
O3G O -0.0337(5) 0.9096(8) 0.580(1)
O4G O -0.0179(6) 0.7422(8) 0.516(1)
O6C O 0.2006(6) 0.9920(9) 0.347(1)
K1 K 0.50000 0.8425(5) 0.75000
O8 O 0.50000 0.623(1) 0.75000
O9 O 0.4361(8) 0.971(1) 0.110(1)
N1 N 0.3670(8) 0.945(1) 0.359(1)
loop_
_geom_bond_atom_site_label_1
_geom_bond_atom_site_label_2
_geom_bond_site_symmetry_1
_geom_bond_site_symmetry_2
Bi1 O1 1_555 1_555
O1 C1 1_555 1_555
O2 C1 1_555 1_555
O3 C5 1_555 1_555
O4 C5 1_555 1_555
O5 Bi1 1_555 1_555
O6 C6 1_555 1_555
O7 Bi1 1_555 1_555
C1 C2 1_555 1_555
C2 C3 1_555 1_555
C3 O7 1_555 1_555
C4 C3 1_555 1_555
C5 C4 1_555 1_555
C6 O5 1_555 1_555
O1E C1E 1_555 1_555
O2E Bi1 1_555 1_555
O3E C5E 1_555 1_555
O4E C5E 1_555 1_555
O5E C6E 1_555 1_555
O6E C6E 1_555 1_555
O7E C3E 1_555 1_555
C1E O2E 1_555 1_555
C2E C1E 1_555 1_555
C3E C2E 1_555 1_555
C4E C3E 1_555 1_555
C5E C4E 1_555 1_555
C6E C3E 1_555 1_555
Bi1E O2 1_555 1_555
O3B Bi1 1_555 1_555
O3F Bi1 1_555 1_555
O4B Bi1 1_555 1_555
O6F Bi1 1_555 1_555
Bi1B O3 1_555 1_555
Bi1F O3 1_555 1_555
Bi1C O3E 1_555 1_555
Bi1G O3E 1_555 1_555
O3C Bi1E 1_555 1_555
O3G Bi1E 1_555 1_555
O4G Bi1E 1_555 1_555
O6C Bi1E 1_555 1_555
O4 Bi1B 1_555 1_555
O6 Bi1F 1_555 1_555
C3 C6 1_555 1_555
O1E Bi1E 1_555 1_555
O4E Bi1G 1_555 1_555
O5E Bi1E 1_555 1_555
O6E Bi1C 1_555 1_555
O7E Bi1E 1_555 1_555

#END
