
#######################################################################
#
#                 Cambridge Crystallographic Data Centre
#                                CCDC 
#
#######################################################################
#
# If this CIF has been generated from an entry in the Cambridge 
# Structural Database, then it will include bibliographic, chemical, 
# crystal, experimental, refinement or atomic coordinate data resulting 
# from the CCDC's data processing and validation procedures.
#
#######################################################################

data_HASKIX
_symmetry_cell_setting           monoclinic
_symmetry_space_group_name_H-M   'P 21/c'
_symmetry_Int_Tables_number      14
_space_group_name_Hall           '-P 2ybc'
loop_
_symmetry_equiv_pos_site_id
_symmetry_equiv_pos_as_xyz
1 x,y,z
2 -x,1/2+y,1/2-z
3 -x,-y,-z
4 x,1/2-y,1/2+z
_cell_length_a                   14.6871(12)
_cell_length_b                   13.3910(12)
_cell_length_c                   21.0689(14)
_cell_angle_alpha                90
_cell_angle_beta                 120.95(3)
_cell_angle_gamma                90
_cell_volume                     3553.73
loop_
_atom_site_label
_atom_site_type_symbol
_atom_site_fract_x
_atom_site_fract_y
_atom_site_fract_z
Sn1 Sn 0.50614(2) 0.37623(2) -0.008139(15)
Sn2 Sn 0.63982(2) 0.28427(2) 0.153379(15)
Te1 Te 0.58565(3) 0.38947(2) 0.234744(17)
O1 O 0.4889(2) 0.2584(2) 0.05223(14)
H1 H 0.4354 0.2118 0.0398
O2 O 0.6489(2) 0.3687(2) 0.07763(15)
H2 H 0.7097 0.3980 0.0827
O3 O 0.5382(2) 0.5134(2) -0.04437(14)
C1 C 0.3603(3) 0.3368(3) -0.1059(2)
C2 C 0.4822(3) 0.3068(3) -0.1542(2)
H3 H 0.4881 0.2551 -0.1841
H4 H 0.4903 0.3709 -0.1721
C3 C 0.2655(4) 0.3527(4) 0.0652(3)
H5 H 0.3176 0.4050 0.0860
H6 H 0.2783 0.3052 0.1030
H7 H 0.1959 0.3808 0.0452
C4 C 0.6695(3) 0.3307(4) -0.0621(3)
H8 H 0.6922 0.2906 -0.0892
H9 H 0.7214 0.3270 -0.0102
H10 H 0.6619 0.3988 -0.0783
C5 C 0.2594(3) 0.3354(3) -0.1150(2)
C6 C 0.1739(4) 0.3000(3) -0.1811(2)
H11 H 0.1061 0.3001 -0.1880
N1 N 0.5676(3) 0.2927(3) -0.07520(19)
C7 C 0.8851(4) 0.3036(4) 0.3005(2)
H12 H 0.8752 0.2329 0.3020
H13 H 0.8557 0.3377 0.3260
H14 H 0.9595 0.3181 0.3241
C8 C 0.2892(4) 0.2652(4) -0.2278(2)
H15 H 0.2994 0.2422 -0.2653
C9 C 0.8519(4) 0.0065(4) 0.1484(3)
H16 H 0.8925 -0.0450 0.1459
C10 C 0.8314(3) 0.1793(3) 0.1665(2)
C11 C 0.2047(4) 0.2131(4) -0.0186(3)
H17 H 0.2211 0.1717 0.0232
H18 H 0.2179 0.1766 -0.0523
H19 H 0.1313 0.2323 -0.0433
C12 C 0.6935(4) 0.0627(3) 0.1425(2)
C13 C 0.5763(4) 0.1862(3) -0.0557(3)
H20 H 0.5925 0.1478 -0.0872
H21 H 0.5103 0.1636 -0.0617
H22 H 0.6319 0.1778 -0.0051
C14 C 0.8713(3) 0.2872(3) 0.1815(3)
H23 H 0.9483 0.2878 0.2096
H24 H 0.8475 0.3218 0.1351
C15 C 0.5871(4) 0.0420(3) 0.1339(3)
H25 H 0.5323 0.0475 0.0821
H26 H 0.5858 -0.0256 0.1500
C16 C 0.8918(4) 0.1021(4) 0.1632(3)
H27 H 0.9586 0.1150 0.1701
C17 C 0.4535(4) 0.1117(4) 0.1552(3)
H28 H 0.4098 0.1203 0.1026
H29 H 0.4413 0.1657 0.1799
H30 H 0.4361 0.0495 0.1692
C18 C 0.7310(3) 0.1597(3) 0.1543(2)
C19 C 0.6314(4) 0.0897(4) 0.2560(3)
H31 H 0.6100 0.0274 0.2669
H32 H 0.6220 0.1424 0.2830
H33 H 0.7048 0.0860 0.2702
C20 C 0.8410(4) 0.4470(3) 0.2201(3)
H34 H 0.9146 0.4642 0.2424
H35 H 0.8119 0.4794 0.2464
H36 H 0.8032 0.4683 0.1694
C21 C 0.7550(4) -0.0143(4) 0.1398(3)
H37 H 0.7296 -0.0795 0.1304
N2 N 0.5650(3) 0.1116(3) 0.1771(2)
C22 C 0.1885(4) 0.2651(4) -0.2368(3)
H38 H 0.1310 0.2409 -0.2805
N3 N 0.8307(3) 0.3379(3) 0.22347(19)
C23 C 0.3739(3) 0.3011(3) -0.1624(2)
C24 C 0.2391(3) 0.3732(3) -0.0561(2)
H39 H 0.2770 0.4356 -0.0370
H40 H 0.1640 0.3870 -0.0782
N4 N 0.2726(3) 0.3027(3) 0.0063(2)
Sn1B Sn 0.49386(2) 0.62377(2) 0.008139(15)
O3B O 0.4618(2) 0.4866(2) 0.04437(14)
loop_
_geom_bond_atom_site_label_1
_geom_bond_atom_site_label_2
_geom_bond_site_symmetry_1
_geom_bond_site_symmetry_2
Sn1 O1 1_555 1_555
Sn2 Te1 1_555 1_555
O1 Sn2 1_555 1_555
H1 O1 1_555 1_555
O2 Sn1 1_555 1_555
H2 O2 1_555 1_555
O3 Sn1 1_555 1_555
C1 Sn1 1_555 1_555
C2 H3 1_555 1_555
H4 C2 1_555 1_555
C3 H5 1_555 1_555
H6 C3 1_555 1_555
H7 C3 1_555 1_555
C4 H8 1_555 1_555
H9 C4 1_555 1_555
H10 C4 1_555 1_555
C5 C1 1_555 1_555
C6 C5 1_555 1_555
H11 C6 1_555 1_555
N1 Sn1 1_555 1_555
C7 H12 1_555 1_555
H13 C7 1_555 1_555
H14 C7 1_555 1_555
C8 H15 1_555 1_555
C9 H16 1_555 1_555
C10 C14 1_555 1_555
C11 H17 1_555 1_555
H18 C11 1_555 1_555
H19 C11 1_555 1_555
C12 C15 1_555 1_555
C13 N1 1_555 1_555
H20 C13 1_555 1_555
H21 C13 1_555 1_555
H22 C13 1_555 1_555
C14 H23 1_555 1_555
H24 C14 1_555 1_555
C15 H25 1_555 1_555
H26 C15 1_555 1_555
C16 C9 1_555 1_555
H27 C16 1_555 1_555
C17 H28 1_555 1_555
H29 C17 1_555 1_555
H30 C17 1_555 1_555
C18 Sn2 1_555 1_555
C19 H31 1_555 1_555
H32 C19 1_555 1_555
H33 C19 1_555 1_555
C20 H34 1_555 1_555
H35 C20 1_555 1_555
H36 C20 1_555 1_555
C21 C9 1_555 1_555
H37 C21 1_555 1_555
N2 C15 1_555 1_555
C22 C6 1_555 1_555
H38 C22 1_555 1_555
N3 Sn2 1_555 1_555
C23 C1 1_555 1_555
C24 C5 1_555 1_555
H39 C24 1_555 1_555
H40 C24 1_555 1_555
N4 C3 1_555 1_555
Sn1B O3 1_555 1_555
O3B Sn1 1_555 1_555
Sn2 O2 1_555 1_555
C2 N1 1_555 1_555
C2 C23 1_555 1_555
C4 N1 1_555 1_555
C7 N3 1_555 1_555
C8 C22 1_555 1_555
C8 C23 1_555 1_555
C10 C16 1_555 1_555
C10 C18 1_555 1_555
C11 N4 1_555 1_555
C12 C18 1_555 1_555
C12 C21 1_555 1_555
C14 N3 1_555 1_555
C17 N2 1_555 1_555
C19 N2 1_555 1_555
C20 N3 1_555 1_555
C24 N4 1_555 1_555
Sn1B O3B 1_555 1_555

#END
