
#######################################################################
#
#                 Cambridge Crystallographic Data Centre
#                                CCDC 
#
#######################################################################
#
# If this CIF has been generated from an entry in the Cambridge 
# Structural Database, then it will include bibliographic, chemical, 
# crystal, experimental, refinement or atomic coordinate data resulting 
# from the CCDC's data processing and validation procedures.
#
#######################################################################

data_HASMOF
_symmetry_cell_setting           monoclinic
_symmetry_space_group_name_H-M   'P 21/n'
_symmetry_Int_Tables_number      14
_space_group_name_Hall           '-P 2yn'
loop_
_symmetry_equiv_pos_site_id
_symmetry_equiv_pos_as_xyz
1 x,y,z
2 1/2-x,1/2+y,1/2-z
3 -x,-y,-z
4 1/2+x,1/2-y,1/2+z
_cell_length_a                   15.1305(5)
_cell_length_b                   17.3114(6)
_cell_length_c                   15.8534(5)
_cell_angle_alpha                90
_cell_angle_beta                 114.182(2)
_cell_angle_gamma                90
_cell_volume                     3788.1
loop_
_atom_site_label
_atom_site_type_symbol
_atom_site_fract_x
_atom_site_fract_y
_atom_site_fract_z
La1 La 0.093006(9) 1.047450(8) 0.428131(10)
S1 S 0.01575(5) 1.23752(4) 0.50294(5)
O1 O 0.03577(13) 1.06007(10) 0.55739(12)
O2 O -0.00307(14) 1.07001(11) 0.67634(13)
O3 O 0.04648(13) 1.18716(11) 0.44566(13)
O4 O 0.01755(16) 1.31794(12) 0.47794(15)
O5 O -0.07603(13) 1.21394(12) 0.50320(13)
O6 O 0.24472(12) 1.08780(11) 0.56442(12)
O7 O 0.65953(13) 1.20104(12) 0.70337(14)
O8 O 0.19863(13) 1.13287(11) 0.37034(13)
O9 O 0.61433(13) 1.25341(12) 0.48294(15)
O10 O 0.25113(14) 0.98012(12) 0.22416(14)
O11 O 0.65520(13) 1.11018(12) 0.36112(14)
O12 O -0.09547(14) 1.07024(13) 0.31909(15)
O13 O 0.00409(16) 1.08651(13) 0.25326(14)
O14 O -0.1517(2) 1.08296(16) 0.16827(17)
O15 O 0.16539(13) 0.93399(11) 0.52968(13)
H1 H 0.1449 0.8935 0.5373
H2 H 0.2283 0.9259 0.5699
O16 O 0.20480(18) 0.97047(13) 0.37471(17)
H3 H 0.2254 0.9771 0.3297
H4 H 0.2082 0.9258 0.3858
N1 N 0.38349(15) 1.10347(13) 0.69629(15)
N2 N 0.33305(15) 1.20067(13) 0.59722(15)
N3 N 0.50140(15) 1.24341(14) 0.64981(16)
N4 N 0.55078(15) 1.15235(14) 0.75759(16)
N5 N 0.29539(15) 1.23891(13) 0.43891(16)
N6 N 0.30712(15) 1.18511(13) 0.31675(15)
N7 N 0.46810(15) 1.23896(14) 0.35620(16)
N8 N 0.46697(15) 1.27419(14) 0.49111(16)
N9 N 0.34132(15) 1.08790(14) 0.22556(16)
N10 N 0.38375(16) 0.97458(15) 0.18681(17)
N11 N 0.54990(16) 1.02400(15) 0.25490(16)
N12 N 0.50138(15) 1.14419(14) 0.26108(16)
N13 N -0.08247(19) 1.07914(15) 0.24608(18)
C1 C 0.04386(17) 1.09301(15) 0.63172(16)
C2 C 0.11141(17) 1.16003(16) 0.66884(17)
C3 C 0.10468(18) 1.22765(16) 0.61838(19)
C4 C 0.1667(2) 1.28934(18) 0.6600(2)
H9 H 0.1606 1.3350 0.6272
C5 C 0.2367(2) 1.2835(2) 0.7489(2)
H10 H 0.2779 1.3249 0.7758
C6 C 0.2455(2) 1.2158(2) 0.7982(2)
H11 H 0.2936 1.2113 0.8578
C7 C 0.18281(19) 1.15427(19) 0.75889(19)
H12 H 0.1884 1.1092 0.7927
C8 C 0.31464(17) 1.12690(15) 0.61438(18)
C9 C 0.45181(18) 1.16627(16) 0.74365(18)
H13 H 0.4472 1.1814 0.8013
C10 C 0.41880(18) 1.23235(16) 0.67140(19)
H14 H 0.4035 1.2794 0.6971
C11 C 0.57885(19) 1.19874(16) 0.70212(18)
C12 C 0.27092(18) 1.24463(15) 0.51704(18)
H15 H 0.2735 1.2986 0.5345
H16 H 0.2047 1.2272 0.4986
C13 C 0.50648(19) 1.30096(17) 0.5854(2)
H17 H 0.5736 1.3156 0.6032
H18 H 0.4714 1.3467 0.5894
C14 C 0.26182(18) 1.18041(16) 0.37525(18)
C15 C 0.36781(18) 1.28658(16) 0.42510(19)
H19 H 0.3503 1.3414 0.4198
C16 C 0.36675(17) 1.25446(16) 0.33338(19)
H20 H 0.3396 1.2917 0.2827
C17 C 0.52533(19) 1.25469(16) 0.4481(2)
C18 C 0.27235(17) 1.14404(17) 0.22960(18)
H21 H 0.2584 1.1810 0.1798
H22 H 0.2124 1.1179 0.2203
C19 C 0.50689(19) 1.22449(17) 0.2893(2)
H23 H 0.4721 1.2559 0.2350
H24 H 0.5742 1.2406 0.3147
C20 C 0.31873(19) 1.01170(17) 0.21396(18)
C21 C 0.41616(18) 1.10778(17) 0.19275(18)
H25 H 0.3895 1.1373 0.1350
C22 C 0.45366(19) 1.02821(18) 0.17941(19)
H26 H 0.4569 1.0243 0.1191
C23 C 0.57672(18) 1.09380(17) 0.29955(18)
C24 C 0.61897(19) 1.10673(17) 0.83183(18)
H27 H 0.6838 1.1257 0.8456
H28 H 0.6065 1.1144 0.8866
C25 C 0.37791(19) 1.03269(17) 0.7414(2)
H29 H 0.3140 1.0104 0.7089
H30 H 0.3858 1.0443 0.8039
La1B La -0.093006(9) 0.952550(8) 0.571869(10)
La1B_2 La 0.906994(9) 0.952550(8) 0.571869(10)
S1B S -0.01575(5) 0.76248(4) 0.49706(5)
O1B O -0.03577(13) 0.93993(10) 0.44261(12)
O2B O 0.00307(14) 0.92999(11) 0.32366(13)
O3B O -0.04648(13) 0.81284(11) 0.55434(13)
O4B O -0.01755(16) 0.68206(12) 0.52206(15)
O5B O 0.07603(13) 0.78606(12) 0.49680(13)
O6B O 0.75528(12) 0.91220(11) 0.43558(12)
O6B_2 O -0.24472(12) 0.91220(11) 0.43558(12)
O7B O 0.34047(13) 0.79896(12) 0.29663(14)
O8B O 0.80137(13) 0.86713(11) 0.62966(13)
O8B_2 O -0.19863(13) 0.86713(11) 0.62966(13)
O9B O 0.38567(13) 0.74659(12) 0.51706(15)
O10B O 0.74887(14) 1.01988(12) 0.77584(14)
O11B O 0.34480(13) 0.88982(12) 0.63888(14)
O12B O 0.09547(14) 0.92976(13) 0.68091(15)
O13B O -0.00409(16) 0.91349(13) 0.74674(14)
O14B O 0.1517(2) 0.91704(16) 0.83173(17)
O15B O -0.16539(13) 1.06601(11) 0.47032(13)
H1B H -0.1449 1.1065 0.4627
H2B H -0.2283 1.0741 0.4301
O16B O -0.20480(18) 1.02953(13) 0.62529(17)
H3B H -0.2254 1.0229 0.6703
H4B H -0.2082 1.0742 0.6142
N1B N 0.61651(15) 0.89653(13) 0.30371(15)
N2B N 0.66695(15) 0.79933(13) 0.40278(15)
N3B N 0.49860(15) 0.75659(14) 0.35019(16)
N4B N 0.44922(15) 0.84765(14) 0.24241(16)
N5B N 0.70461(15) 0.76109(13) 0.56109(16)
N6B N 0.69288(15) 0.81489(13) 0.68325(15)
N7B N 0.53190(15) 0.76104(14) 0.64380(16)
N8B N 0.53303(15) 0.72581(14) 0.50889(16)
N9B N 0.65868(15) 0.91210(14) 0.77444(16)
N10B N 0.61625(16) 1.02542(15) 0.81319(17)
N11B N 0.45010(16) 0.97600(15) 0.74510(16)
N12B N 0.49862(15) 0.85581(14) 0.73892(16)
N13B N 0.08247(19) 0.92086(15) 0.75392(18)
C1B C -0.04386(17) 0.90699(15) 0.36828(16)
C2B C -0.11141(17) 0.83997(16) 0.33116(17)
C3B C -0.10468(18) 0.77235(16) 0.38162(19)
C4B C -0.1667(2) 0.71066(18) 0.3400(2)
H9B H -0.1606 0.6650 0.3728
C5B C -0.2367(2) 0.7165(2) 0.2511(2)
H10B H -0.2779 0.6751 0.2242
C6B C -0.2455(2) 0.7842(2) 0.2018(2)
H11B H -0.2936 0.7887 0.1422
C7B C -0.18281(19) 0.84573(19) 0.24111(19)
H12B H -0.1884 0.8908 0.2073
C8B C 0.68536(17) 0.87310(15) 0.38562(18)
C9B C 0.54819(18) 0.83373(16) 0.25635(18)
H13B H 0.5528 0.8186 0.1987
C10B C 0.58120(18) 0.76765(16) 0.32860(19)
H14B H 0.5965 0.7206 0.3029
C11B C 0.42115(19) 0.80126(16) 0.29788(18)
C12B C 0.72908(18) 0.75537(15) 0.48296(18)
H15B H 0.7265 0.7014 0.4655
H16B H 0.7953 0.7728 0.5014
C13B C 0.49352(19) 0.69904(17) 0.4146(2)
H17B H 0.4264 0.6844 0.3968
H18B H 0.5286 0.6533 0.4106
C14B C 0.73818(18) 0.81959(16) 0.62475(18)
C15B C 0.63219(18) 0.71342(16) 0.57490(19)
H19B H 0.6497 0.6586 0.5802
C16B C 0.63325(17) 0.74554(16) 0.66662(19)
H20B H 0.6604 0.7083 0.7173
C17B C 0.47467(19) 0.74531(16) 0.5519(2)
C18B C 0.72765(17) 0.85596(17) 0.77040(18)
H21B H 0.7416 0.8190 0.8202
H22B H 0.7876 0.8821 0.7797
C19B C 0.49311(19) 0.77551(17) 0.7107(2)
H23B H 0.5279 0.7441 0.7650
H24B H 0.4258 0.7594 0.6853
C20B C 0.68127(19) 0.98830(17) 0.78604(18)
C21B C 0.58384(18) 0.89222(17) 0.80725(18)
H25B H 0.6105 0.8627 0.8650
C22B C 0.54634(19) 0.97179(18) 0.82059(19)
H26B H 0.5431 0.9757 0.8809
C23B C 0.42328(18) 0.90620(17) 0.70045(18)
C24B C 0.38103(19) 0.89327(17) 0.16817(18)
H27B H 0.3162 0.8743 0.1544
H28B H 0.3935 0.8856 0.1134
C25B C 0.62209(19) 0.96731(17) 0.2586(2)
H29B H 0.6860 0.9896 0.2911
H30B H 0.6142 0.9557 0.1961
O17 O 0.79789(15) 1.18974(13) 0.60511(14)
H5 H 0.8239 1.1893 0.5593
H6 H 0.7380 1.1955 0.5767
O18 O 0.2862(2) 0.60140(17) 0.4926(2)
H7 H 0.3185 0.6400 0.5158
H8 H 0.3192 0.5630 0.4817
O19 O 1.0541(4) 0.9269(6) 0.1558(7)
O21 O 0.4234(6) 0.4910(5) 0.4906(5)
O22 O 1.1902(4) 0.5047(3) 0.5627(4)
O23 O 0.5682(6) 1.0278(6) 0.5319(6)
O20? O 0.9978(4) 0.5298(3) 0.5050(4)
O24? O 1.0129(6) 0.9225(6) 0.1409(8)
O25? O 0.3242(8) 0.4465(5) 0.4971(6)
O26? O 1.1396(4) 0.5826(3) 0.5499(3)
O27? O 0.5962(7) 0.9655(7) 0.5014(7)
loop_
_geom_bond_atom_site_label_1
_geom_bond_atom_site_label_2
_geom_bond_site_symmetry_1
_geom_bond_site_symmetry_2
La1 O1 1_555 1_555
S1 O3 1_555 1_555
O1 C1 1_555 1_555
O2 C1 1_555 1_555
O3 La1 1_555 1_555
O4 S1 1_555 1_555
O5 S1 1_555 1_555
O6 La1 1_555 1_555
O7 C11 1_555 1_555
O8 La1 1_555 1_555
O9 C17 1_555 1_555
O10 C20 1_555 1_555
O11 C23 1_555 1_555
O12 La1 1_555 1_555
O13 La1 1_555 1_555
O14 N13 1_555 1_555
O15 La1 1_555 1_555
H1 O15 1_555 1_555
H2 O15 1_555 1_555
O16 La1 1_555 1_555
H3 O16 1_555 1_555
H4 O16 1_555 1_555
O17 H5 1_555 1_555
H6 O17 1_555 1_555
O18 H7 1_555 1_555
H8 O18 1_555 1_555
N1 C8 1_555 1_555
N2 C8 1_555 1_555
N3 C10 1_555 1_555
N4 C9 1_555 1_555
N5 C12 1_555 1_555
N6 C14 1_555 1_555
N7 C16 1_555 1_555
N8 C13 1_555 1_555
N9 C18 1_555 1_555
N10 C20 1_555 1_555
N11 C22 1_555 1_555
N12 C19 1_555 1_555
N13 O12 1_555 1_555
C1 C2 1_555 1_555
C2 C3 1_555 1_555
C3 S1 1_555 1_555
C4 C3 1_555 1_555
H9 C4 1_555 1_555
C5 C4 1_555 1_555
H10 C5 1_555 1_555
C6 C5 1_555 1_555
H11 C6 1_555 1_555
C7 C2 1_555 1_555
H12 C7 1_555 1_555
C8 O6 1_555 1_555
C9 N1 1_555 1_555
H13 C9 1_555 1_555
C10 N2 1_555 1_555
H14 C10 1_555 1_555
C11 N3 1_555 1_555
C12 N2 1_555 1_555
H15 C12 1_555 1_555
H16 C12 1_555 1_555
C13 N3 1_555 1_555
H17 C13 1_555 1_555
H18 C13 1_555 1_555
C14 O8 1_555 1_555
C15 N5 1_555 1_555
H19 C15 1_555 1_555
C16 N6 1_555 1_555
H20 C16 1_555 1_555
C17 N7 1_555 1_555
C18 N6 1_555 1_555
H21 C18 1_555 1_555
H22 C18 1_555 1_555
C19 N7 1_555 1_555
H23 C19 1_555 1_555
H24 C19 1_555 1_555
C20 N9 1_555 1_555
C21 N9 1_555 1_555
H25 C21 1_555 1_555
C22 N10 1_555 1_555
H26 C22 1_555 1_555
C23 N11 1_555 1_555
C24 N4 1_555 1_555
H27 C24 1_555 1_555
H28 C24 1_555 1_555
C25 N1 1_555 1_555
H29 C25 1_555 1_555
H30 C25 1_555 1_555
La1B O1 1_555 1_555
La1B_2 O6B 1_555 1_555
S1B O3B 1_555 1_555
O1B La1 1_555 1_555
O2B La1 1_555 1_555
O3B La1B 1_555 1_555
O4B S1B 1_555 1_555
O5B S1B 1_555 1_555
O6B C8B 1_555 1_555
O6B_2 La1B 1_555 1_555
O7B C11B 1_555 1_555
O8B La1B_2 1_555 1_555
O8B_2 La1B 1_555 1_555
O9B C17B 1_555 1_555
O10B C20B 1_555 1_555
O11B C23B 1_555 1_555
O12B La1B 1_555 1_555
O13B La1B 1_555 1_555
O14B N13B 1_555 1_555
O15B La1B 1_555 1_555
H1B O15B 1_555 1_555
H2B O15B 1_555 1_555
O16B La1B 1_555 1_555
H3B O16B 1_555 1_555
H4B O16B 1_555 1_555
N1B C8B 1_555 1_555
N2B C8B 1_555 1_555
N3B C10B 1_555 1_555
N4B C9B 1_555 1_555
N5B C12B 1_555 1_555
N6B C14B 1_555 1_555
N7B C16B 1_555 1_555
N8B C13B 1_555 1_555
N9B C18B 1_555 1_555
N10B C24 1_555 1_555
N11B C25 1_555 1_555
N12B C19B 1_555 1_555
N13B O12B 1_555 1_555
C1B O1B 1_555 1_555
C2B C1B 1_555 1_555
C3B S1B 1_555 1_555
C4B C3B 1_555 1_555
H9B C4B 1_555 1_555
C5B C4B 1_555 1_555
H10B C5B 1_555 1_555
C6B C5B 1_555 1_555
H11B C6B 1_555 1_555
C7B C2B 1_555 1_555
H12B C7B 1_555 1_555
C9B N1B 1_555 1_555
H13B C9B 1_555 1_555
C10B N2B 1_555 1_555
H14B C10B 1_555 1_555
C11B N3B 1_555 1_555
C12B N2B 1_555 1_555
H15B C12B 1_555 1_555
H16B C12B 1_555 1_555
C13B N3B 1_555 1_555
H17B C13B 1_555 1_555
H18B C13B 1_555 1_555
C14B O8B 1_555 1_555
C15B N5B 1_555 1_555
H19B C15B 1_555 1_555
C16B N6B 1_555 1_555
H20B C16B 1_555 1_555
C17B N7B 1_555 1_555
C18B N6B 1_555 1_555
H21B C18B 1_555 1_555
H22B C18B 1_555 1_555
C19B N7B 1_555 1_555
H23B C19B 1_555 1_555
H24B C19B 1_555 1_555
C20B N9B 1_555 1_555
C21B N9B 1_555 1_555
H25B C21B 1_555 1_555
C22B N10B 1_555 1_555
H26B C22B 1_555 1_555
C23B N11B 1_555 1_555
C24B N10 1_555 1_555
H27B C24B 1_555 1_555
H28B C24B 1_555 1_555
C25B N11 1_555 1_555
H29B C25B 1_555 1_555
H30B C25B 1_555 1_555
O2 La1B 1_555 1_555
O13 N13 1_555 1_555
N4 C11 1_555 1_555
N5 C14 1_555 1_555
N8 C15 1_555 1_555
N8 C17 1_555 1_555
N12 C21 1_555 1_555
N12 C23 1_555 1_555
C6 C7 1_555 1_555
C9 C10 1_555 1_555
C15 C16 1_555 1_555
C21 C22 1_555 1_555
La1B O1B 1_555 1_555
O2B C1B 1_555 1_555
O13B N13B 1_555 1_555
N1B C25B 1_555 1_555
N4B C11B 1_555 1_555
N4B C24B 1_555 1_555
N5B C14B 1_555 1_555
N8B C15B 1_555 1_555
N8B C17B 1_555 1_555
N10B C20B 1_555 1_555
N11B C22B 1_555 1_555
N12B C21B 1_555 1_555
N12B C23B 1_555 1_555
C2B C3B 1_555 1_555
C6B C7B 1_555 1_555
C9B C10B 1_555 1_555
C15B C16B 1_555 1_555
C21B C22B 1_555 1_555

#END
