
#######################################################################
#
#                 Cambridge Crystallographic Data Centre
#                                CCDC 
#
#######################################################################
#
# If this CIF has been generated from an entry in the Cambridge 
# Structural Database, then it will include bibliographic, chemical, 
# crystal, experimental, refinement or atomic coordinate data resulting 
# from the CCDC's data processing and validation procedures.
#
#######################################################################

data_HASNIA
_symmetry_cell_setting           monoclinic
_symmetry_space_group_name_H-M   'P 21/n'
_symmetry_Int_Tables_number      14
_space_group_name_Hall           '-P 2yn'
loop_
_symmetry_equiv_pos_site_id
_symmetry_equiv_pos_as_xyz
1 x,y,z
2 1/2-x,1/2+y,1/2-z
3 -x,-y,-z
4 1/2+x,1/2-y,1/2+z
_cell_length_a                   14.6276(2)
_cell_length_b                   17.4349(3)
_cell_length_c                   15.4430(2)
_cell_angle_alpha                90
_cell_angle_beta                 114.6458(6)
_cell_angle_gamma                90
_cell_volume                     3579.66
loop_
_atom_site_label
_atom_site_type_symbol
_atom_site_fract_x
_atom_site_fract_y
_atom_site_fract_z
Dy1 Dy 0.586175(7) 0.474245(5) 0.878133(6)
S1 S 0.51162(4) 0.75855(3) 1.00523(3)
O1 O 0.63692(11) 0.55593(9) 1.00618(10)
O2 O 0.51419(11) 0.57623(9) 1.05429(10)
O3 O 0.51425(12) 0.71699(10) 0.92416(10)
O4 O 0.42753(11) 0.73512(9) 1.02656(11)
O5 O 0.51634(12) 0.84092(9) 0.99625(12)
O6 O 0.43923(12) 0.43060(9) 0.75053(10)
O7 O 0.28282(13) 0.29450(10) 0.35595(10)
O8 O 0.64242(12) 0.37838(9) 0.80106(11)
O9 O 0.51894(13) 0.22847(11) 0.40673(11)
O10 O 0.79742(14) 0.52109(9) 0.74631(12)
O11 O 0.64015(12) 0.37964(9) 0.35814(11)
O12 O 0.46467(13) 0.57426(10) 0.83373(11)
H1 H 0.4786 0.6102 0.8666
H2 H 0.4342 0.5794 0.7769
O13 O 0.59102(18) 0.53896(15) 0.74248(16)
H3 H 0.6468 0.5389 0.7506
H4 H 0.5635 0.5083 0.6962
O14 O 0.75405(17) 0.51480(14) 0.90863(17)
H5 H 0.7766 0.5170 0.8663
H6 H 0.8060 0.5283 0.9639
O15 O 0.69061(11) 0.39176(9) 1.00445(11)
H7 H 0.6522 0.3543 1.0001
H8 H 0.7210 0.4104 1.0623
N1 N 0.29337(13) 0.41139(10) 0.61571(12)
N2 N 0.39535(13) 0.31275(10) 0.67718(12)
N3 N 0.34040(14) 0.26238(11) 0.51554(12)
N4 N 0.22647(13) 0.35459(11) 0.45799(12)
N5 N 0.56535(14) 0.27104(11) 0.71502(12)
N6 N 0.69889(13) 0.31793(10) 0.69991(12)
N7 N 0.65600(14) 0.24947(11) 0.54905(12)
N8 N 0.50986(14) 0.22047(11) 0.55192(12)
N9 N 0.80703(15) 0.40938(11) 0.66986(13)
N10 N 0.82923(14) 0.52015(10) 0.61192(13)
N11 N 0.76351(15) 0.46319(11) 0.45358(13)
N12 N 0.74932(14) 0.34995(11) 0.51286(12)
C1 C 0.59806(15) 0.59073(11) 1.05387(13)
C2 C 0.65850(15) 0.65521(12) 1.11591(13)
C3 C 0.62456(15) 0.73131(12) 1.10420(13)
C4 C 0.68160(16) 0.78795(12) 1.16711(15)
H9 H 0.6584 0.8382 1.1597
C5 C 0.77347(17) 0.76913(13) 1.24121(15)
H10 H 0.8106 0.8067 1.2843
C6 C 0.80974(16) 0.69465(14) 1.25099(15)
H11 H 0.8722 0.6826 1.2992
C7 C 0.75223(15) 0.63782(13) 1.18831(14)
H12 H 0.7766 0.5879 1.1949
C8 C 0.38197(15) 0.38883(12) 0.68683(13)
C9 C 0.24013(15) 0.34747(12) 0.55572(14)
H13 H 0.1765 0.3370 0.5603
C10 C 0.31465(16) 0.28001(12) 0.59406(14)
H14 H 0.2837 0.2360 0.6110
C11 C 0.28371(16) 0.30357(12) 0.43491(14)
C12 C 0.48142(16) 0.27014(13) 0.74134(14)
H15 H 0.4614 0.2174 0.7434
H16 H 0.5031 0.2913 0.8049
C13 C 0.40448(16) 0.19933(12) 0.51536(15)
H17 H 0.3828 0.1805 0.4507
H18 H 0.3969 0.1579 0.5538
C14 C 0.63570(16) 0.32736(13) 0.74337(14)
C15 C 0.58088(16) 0.21611(12) 0.65157(14)
H19 H 0.5869 0.1637 0.6762
C16 C 0.68104(16) 0.24422(12) 0.65006(14)
H20 H 0.7361 0.2080 0.6822
C17 C 0.55726(17) 0.23350(13) 0.49373(15)
C18 C 0.79644(16) 0.35553(13) 0.73651(14)
H21 H 0.8065 0.3825 0.7947
H22 H 0.8485 0.3168 0.7523
C19 C 0.72672(17) 0.26863(13) 0.50952(15)
H23 H 0.6997 0.2517 0.4437
H24 H 0.7888 0.2408 0.5442
C20 C 0.80938(16) 0.48717(13) 0.68230(15)
C21 C 0.83069(16) 0.38614(13) 0.59147(14)
H25 H 0.8923 0.3553 0.6135
C22 C 0.84373(16) 0.46421(12) 0.54910(14)
H26 H 0.9101 0.4689 0.5483
C23 C 0.70988(16) 0.39627(13) 0.43366(14)
C24 C 0.14673(16) 0.39933(12) 0.38780(14)
H27 H 0.1315 0.3784 0.3251
H28 H 0.0868 0.3944 0.3995
C25 C 0.24328(17) 0.48250(12) 0.61939(15)
H29 H 0.2795 0.5061 0.6813
H30 H 0.1759 0.4707 0.6130
Dy1B Dy 0.413825(7) 0.525755(5) 1.121867(6)
Dy1B_2 Dy 0.413825(7) 0.525755(5) 0.121867(6)
S1B S 0.48838(4) 0.24145(3) 0.99477(3)
O1B O 0.36308(11) 0.44407(9) 0.99382(10)
O2B O 0.48581(11) 0.42377(9) 0.94571(10)
O3B O 0.48575(12) 0.28301(10) 1.07584(10)
O4B O 0.57247(11) 0.26488(9) 0.97344(11)
O5B O 0.48366(12) 0.15908(9) 1.00375(12)
O6B O 0.56077(12) 0.56940(9) 0.24947(10)
O6B_2 O 0.56077(12) 0.56940(9) 1.24947(10)
O7B O 0.71718(13) 0.70550(10) 0.64405(10)
O8B O 0.35758(12) 0.62162(9) 0.19894(11)
O8B_2 O 0.35758(12) 0.62162(9) 1.19894(11)
O9B O 0.48106(13) 0.77153(11) 0.59327(11)
O10B O 0.20258(14) 0.47891(9) 0.25369(12)
O11B O 0.35985(12) 0.62036(9) 0.64186(11)
O12B O 0.53533(13) 0.42574(10) 1.16627(11)
H1B H 0.5214 0.3898 1.1334
H2B H 0.5658 0.4206 1.2231
O13B O 0.40898(18) 0.46104(15) 1.25752(16)
H3B H 0.3532 0.4611 1.2494
H4B H 0.4365 0.4917 1.3038
O14B O 0.24595(17) 0.48520(14) 1.09137(17)
H5B H 0.2234 0.4830 1.1337
H6B H 0.1940 0.4717 1.0361
O15B O 0.30939(11) 0.60824(9) 0.99555(11)
H7B H 0.3478 0.6457 0.9999
H8B H 0.2790 0.5896 0.9377
N1B N 0.70663(13) 0.58861(10) 0.38429(12)
N2B N 0.60465(13) 0.68725(10) 0.32282(12)
N3B N 0.65960(14) 0.73762(11) 0.48446(12)
N4B N 0.77353(13) 0.64541(11) 0.54201(12)
N5B N 0.43465(14) 0.72896(11) 0.28498(12)
N6B N 0.30111(13) 0.68207(10) 0.30009(12)
N7B N 0.34400(14) 0.75053(11) 0.45095(12)
N8B N 0.49014(14) 0.77953(11) 0.44808(12)
N9B N 0.19297(15) 0.59062(11) 0.33014(13)
N10B N 0.17077(14) 0.47985(10) 0.38808(13)
N11B N 0.23649(15) 0.53681(11) 0.54642(13)
N12B N 0.25068(14) 0.65005(11) 0.48714(12)
C1B C 0.40194(15) 0.40927(11) 0.94613(13)
C2B C 0.34150(15) 0.34479(12) 0.88409(13)
C3B C 0.37544(15) 0.26869(12) 0.89580(13)
C4B C 0.31840(16) 0.21205(12) 0.83289(15)
H9B H 0.3416 0.1618 0.8403
C5B C 0.22653(17) 0.23087(13) 0.75879(15)
H10B H 0.1894 0.1933 0.7157
C6B C 0.19026(16) 0.30535(14) 0.74901(15)
H11B H 0.1278 0.3174 0.7008
C7B C 0.24777(15) 0.36218(13) 0.81169(14)
H12B H 0.2234 0.4121 0.8051
C8B C 0.61803(15) 0.61117(12) 0.31317(13)
C9B C 0.75987(15) 0.65253(12) 0.44428(14)
H13B H 0.8235 0.6630 0.4397
C10B C 0.68535(16) 0.71999(12) 0.40594(14)
H14B H 0.7163 0.7640 0.3890
C11B C 0.71629(16) 0.69643(12) 0.56509(14)
C12B C 0.51858(16) 0.72986(13) 0.25866(14)
H15B H 0.5386 0.7826 0.2566
H16B H 0.4969 0.7087 0.1951
C13B C 0.59552(16) 0.80067(12) 0.48464(15)
H17B H 0.6172 0.8195 0.5493
H18B H 0.6031 0.8421 0.4462
C14B C 0.36430(16) 0.67264(13) 0.25663(14)
C15B C 0.41912(16) 0.78389(12) 0.34843(14)
H19B H 0.4131 0.8363 0.3238
C16B C 0.31896(16) 0.75578(12) 0.34994(14)
H20B H 0.2639 0.7920 0.3178
C17B C 0.44274(17) 0.76650(13) 0.50627(15)
C18B C 0.20356(16) 0.64447(13) 0.26349(14)
H21B H 0.1935 0.6175 0.2053
H22B H 0.1515 0.6832 0.2477
C19B C 0.27328(17) 0.73137(13) 0.49048(15)
H23B H 0.3003 0.7483 0.5563
H24B H 0.2112 0.7592 0.4558
C20B C 0.19062(16) 0.51283(13) 0.31770(15)
C21B C 0.16931(16) 0.61386(13) 0.40853(14)
H25B H 0.1077 0.6447 0.3865
C22B C 0.15627(16) 0.53579(12) 0.45090(14)
H26B H 0.0899 0.5311 0.4517
C23B C 0.29012(16) 0.60373(13) 0.56634(14)
C24B C 0.85327(16) 0.60067(12) 0.61220(14)
H27B H 0.8685 0.6216 0.6749
H28B H 0.9132 0.6056 0.6005
C25B C 0.75672(17) 0.51750(12) 0.38061(15)
H29B H 0.7205 0.4939 0.3187
H30B H 0.8241 0.5293 0.3870
O16 O 0.5603(2) 0.92297(17) 0.30965(18)
O17 O 0.57232(16) 0.99521(16) 0.20382(16)
O18 O 0.70580(15) 0.94055(12) 0.30516(13)
N13 N 0.61303(18) 0.95159(13) 0.27174(15)
O19 O 0.57265(19) 0.69781(15) 0.76854(18)
O21 O 0.5059(7) 0.0890(5) 0.3145(9)
O22 O 0.5542(8) 0.0207(7) 0.4605(9)
O23 O 0.4704(4) 0.4648(4) 0.5623(3)
O20? O 0.5636(4) 0.0563(3) 0.4318(4)
O24? O 0.5863(5) 0.6703(4) 0.7204(5)
loop_
_geom_bond_atom_site_label_1
_geom_bond_atom_site_label_2
_geom_bond_site_symmetry_1
_geom_bond_site_symmetry_2
Dy1 O1 1_555 1_555
S1 O3 1_555 1_555
O1 C1 1_555 1_555
O2 C1 1_555 1_555
O4 S1 1_555 1_555
O5 S1 1_555 1_555
O6 Dy1 1_555 1_555
O7 C11 1_555 1_555
O8 Dy1 1_555 1_555
O9 C17 1_555 1_555
O10 C20 1_555 1_555
O11 C23 1_555 1_555
O12 Dy1 1_555 1_555
H1 O12 1_555 1_555
H2 O12 1_555 1_555
O13 Dy1 1_555 1_555
H3 O13 1_555 1_555
H4 O13 1_555 1_555
O14 Dy1 1_555 1_555
H5 O14 1_555 1_555
H6 O14 1_555 1_555
O15 Dy1 1_555 1_555
H7 O15 1_555 1_555
H8 O15 1_555 1_555
O16 N13 1_555 1_555
O17 N13 1_555 1_555
O18 N13 1_555 1_555
N1 C8 1_555 1_555
N2 C8 1_555 1_555
N3 C10 1_555 1_555
N4 C9 1_555 1_555
N5 C12 1_555 1_555
N6 C14 1_555 1_555
N7 C16 1_555 1_555
N8 C13 1_555 1_555
N9 C18 1_555 1_555
N10 C20 1_555 1_555
N11 C22 1_555 1_555
N12 C19 1_555 1_555
C1 C2 1_555 1_555
C2 C3 1_555 1_555
C3 S1 1_555 1_555
C4 C3 1_555 1_555
H9 C4 1_555 1_555
C5 C4 1_555 1_555
H10 C5 1_555 1_555
C6 C5 1_555 1_555
H11 C6 1_555 1_555
C7 C2 1_555 1_555
H12 C7 1_555 1_555
C8 O6 1_555 1_555
C9 N1 1_555 1_555
H13 C9 1_555 1_555
C10 N2 1_555 1_555
H14 C10 1_555 1_555
C11 N3 1_555 1_555
C12 N2 1_555 1_555
H15 C12 1_555 1_555
H16 C12 1_555 1_555
C13 N3 1_555 1_555
H17 C13 1_555 1_555
H18 C13 1_555 1_555
C14 O8 1_555 1_555
C15 N5 1_555 1_555
H19 C15 1_555 1_555
C16 N6 1_555 1_555
H20 C16 1_555 1_555
C17 N7 1_555 1_555
C18 N6 1_555 1_555
H21 C18 1_555 1_555
H22 C18 1_555 1_555
C19 N7 1_555 1_555
H23 C19 1_555 1_555
H24 C19 1_555 1_555
C20 N9 1_555 1_555
C21 N9 1_555 1_555
H25 C21 1_555 1_555
C22 N10 1_555 1_555
H26 C22 1_555 1_555
C23 N11 1_555 1_555
C24 N4 1_555 1_555
H27 C24 1_555 1_555
H28 C24 1_555 1_555
C25 N1 1_555 1_555
H29 C25 1_555 1_555
H30 C25 1_555 1_555
Dy1B O2 1_555 1_555
Dy1B_2 O6B 1_555 1_555
S1B O3B 1_555 1_555
O1B Dy1B 1_555 1_555
O2B Dy1 1_555 1_555
O4B S1B 1_555 1_555
O5B S1B 1_555 1_555
O6B C8B 1_555 1_555
O6B_2 Dy1B 1_555 1_555
O7B C11B 1_555 1_555
O8B Dy1B_2 1_555 1_555
O8B_2 Dy1B 1_555 1_555
O9B C17B 1_555 1_555
O10B C20B 1_555 1_555
O11B C23B 1_555 1_555
O12B Dy1B 1_555 1_555
H1B O12B 1_555 1_555
H2B O12B 1_555 1_555
O13B Dy1B 1_555 1_555
H3B O13B 1_555 1_555
H4B O13B 1_555 1_555
O14B Dy1B 1_555 1_555
H5B O14B 1_555 1_555
H6B O14B 1_555 1_555
O15B Dy1B 1_555 1_555
H7B O15B 1_555 1_555
H8B O15B 1_555 1_555
N1B C8B 1_555 1_555
N2B C8B 1_555 1_555
N3B C10B 1_555 1_555
N4B C9B 1_555 1_555
N5B C12B 1_555 1_555
N6B C14B 1_555 1_555
N7B C16B 1_555 1_555
N8B C13B 1_555 1_555
N9B C18B 1_555 1_555
N10B C24 1_555 1_555
N11B C25 1_555 1_555
N12B C19B 1_555 1_555
C1B O1B 1_555 1_555
C2B C1B 1_555 1_555
C3B S1B 1_555 1_555
C4B C3B 1_555 1_555
H9B C4B 1_555 1_555
C5B C4B 1_555 1_555
H10B C5B 1_555 1_555
C6B C5B 1_555 1_555
H11B C6B 1_555 1_555
C7B C2B 1_555 1_555
H12B C7B 1_555 1_555
C9B N1B 1_555 1_555
H13B C9B 1_555 1_555
C10B N2B 1_555 1_555
H14B C10B 1_555 1_555
C11B N3B 1_555 1_555
C12B N2B 1_555 1_555
H15B C12B 1_555 1_555
H16B C12B 1_555 1_555
C13B N3B 1_555 1_555
H17B C13B 1_555 1_555
H18B C13B 1_555 1_555
C14B O8B 1_555 1_555
C15B N5B 1_555 1_555
H19B C15B 1_555 1_555
C16B N6B 1_555 1_555
H20B C16B 1_555 1_555
C17B N7B 1_555 1_555
C18B N6B 1_555 1_555
H21B C18B 1_555 1_555
H22B C18B 1_555 1_555
C19B N7B 1_555 1_555
H23B C19B 1_555 1_555
H24B C19B 1_555 1_555
C20B N9B 1_555 1_555
C21B N9B 1_555 1_555
H25B C21B 1_555 1_555
C22B N10B 1_555 1_555
H26B C22B 1_555 1_555
C23B N11B 1_555 1_555
C24B N10 1_555 1_555
H27B C24B 1_555 1_555
H28B C24B 1_555 1_555
C25B N11 1_555 1_555
H29B C25B 1_555 1_555
H30B C25B 1_555 1_555
N4 C11 1_555 1_555
N5 C14 1_555 1_555
N8 C15 1_555 1_555
N8 C17 1_555 1_555
N12 C21 1_555 1_555
N12 C23 1_555 1_555
C6 C7 1_555 1_555
C9 C10 1_555 1_555
C15 C16 1_555 1_555
C21 C22 1_555 1_555
O2B C1B 1_555 1_555
N1B C25B 1_555 1_555
N4B C11B 1_555 1_555
N4B C24B 1_555 1_555
N5B C14B 1_555 1_555
N8B C15B 1_555 1_555
N8B C17B 1_555 1_555
N10B C20B 1_555 1_555
N11B C22B 1_555 1_555
N12B C21B 1_555 1_555
N12B C23B 1_555 1_555
C2B C3B 1_555 1_555
C6B C7B 1_555 1_555
C9B C10B 1_555 1_555
C15B C16B 1_555 1_555
C21B C22B 1_555 1_555

#END
