
#######################################################################
#
#                 Cambridge Crystallographic Data Centre
#                                CCDC 
#
#######################################################################
#
# If this CIF has been generated from an entry in the Cambridge 
# Structural Database, then it will include bibliographic, chemical, 
# crystal, experimental, refinement or atomic coordinate data resulting 
# from the CCDC's data processing and validation procedures.
#
#######################################################################

data_HASNAS
_symmetry_cell_setting           monoclinic
_symmetry_space_group_name_H-M   'P 21/c'
_symmetry_Int_Tables_number      14
_space_group_name_Hall           '-P 2ybc'
loop_
_symmetry_equiv_pos_site_id
_symmetry_equiv_pos_as_xyz
1 x,y,z
2 -x,1/2+y,1/2-z
3 -x,-y,-z
4 x,1/2-y,1/2+z
_cell_length_a                   25.4539(8)
_cell_length_b                   17.1496(5)
_cell_length_c                   16.3153(5)
_cell_angle_alpha                90
_cell_angle_beta                 94.102(2)
_cell_angle_gamma                90
_cell_volume                     7103.78
loop_
_atom_site_label
_atom_site_type_symbol
_atom_site_fract_x
_atom_site_fract_y
_atom_site_fract_z
Nd1 Nd 0.335443(5) 0.443884(8) 0.221776(8)
Nd2 Nd 0.130614(5) 0.518997(8) 0.240115(8)
S1 S 0.25650(2) 0.25696(4) 0.21744(4)
S2 S 0.24599(2) 0.75309(4) 0.23838(4)
O1 O 0.24312(7) 0.43281(11) 0.18648(12)
O2 O 0.15901(7) 0.42843(11) 0.13915(12)
O3 O 0.30281(7) 0.30519(11) 0.24417(11)
O4 O 0.26719(7) 0.17454(11) 0.22717(12)
O5 O 0.20947(7) 0.28108(11) 0.25634(11)
O6 O 0.29820(7) 0.53973(12) 0.31007(12)
O7 O 0.21510(7) 0.57397(11) 0.27324(12)
O8 O 0.28250(7) 0.70188(12) 0.19835(12)
O9 O 0.25951(7) 0.83495(11) 0.23300(13)
O10 O 0.19123(7) 0.73737(11) 0.20996(12)
O11 O 0.33986(7) 0.40724(11) 0.08129(11)
O12 O 0.48020(7) 0.29364(12) -0.17186(12)
O13 O 0.42181(7) 0.37083(11) 0.21768(11)
O14 O 0.57040(7) 0.24115(13) -0.03246(12)
O15 O 0.51922(7) 0.52866(11) 0.26925(12)
O16 O 0.64882(7) 0.40177(11) 0.01025(11)
O17 O 0.14007(8) 0.55269(11) 0.38959(12)
O18 O 0.04150(7) 0.70362(12) 0.66887(12)
O19 O 0.06262(7) 0.62034(11) 0.25769(12)
O20 O -0.05178(7) 0.78334(12) 0.53381(12)
O21 O -0.03970(7) 0.49065(11) 0.22114(12)
O22 O -0.13805(7) 0.63587(12) 0.50865(12)
O23 O 0.37321(8) 0.42245(12) 0.36388(12)
H1 H 0.3525 0.4333 0.4028
H2 H 0.4020 0.4515 0.3783
O24 O 0.40804(7) 0.53879(12) 0.22830(13)
H3 H 0.4420 0.5356 0.2311
H4 H 0.4013 0.5834 0.2084
O25 O 0.30910(7) 0.55611(11) 0.13413(12)
H5 H 0.2950 0.5960 0.1478
H6 H 0.3202 0.5622 0.0847
O26 O 0.16600(8) 0.40777(12) 0.32483(12)
H7 H 0.1827 0.3665 0.3073
H8 H 0.1539 0.4077 0.3672
O27 O 0.05638(8) 0.44602(14) 0.28492(15)
H9 H 0.0226 0.4642 0.2674
H10 H 0.0564 0.4276 0.3374
O28 O 0.05846(8) 0.50310(14) 0.12531(13)
H11 H 0.0671 0.4892 0.0821
H12 H 0.0268 0.5106 0.1278
O29 O 0.15323(7) 0.60772(11) 0.12845(12)
H13 H 0.1686 0.6456 0.1480
H14 H 0.1679 0.5887 0.0959
N1 N 0.34085(8) 0.38559(13) -0.05750(13)
N2 N 0.36861(8) 0.29164(13) 0.02804(13)
N3 N 0.42708(8) 0.24637(14) -0.07444(14)
N4 N 0.39413(8) 0.33359(13) -0.16423(14)
N5 N 0.43583(8) 0.26307(13) 0.13728(14)
N6 N 0.50491(8) 0.32055(13) 0.20171(13)
N7 N 0.56376(8) 0.26392(14) 0.10593(14)
N8 N 0.49424(8) 0.21834(14) 0.03298(14)
N9 N 0.56925(8) 0.42046(13) 0.24110(14)
N10 N 0.60308(8) 0.53739(13) 0.22440(14)
N11 N 0.65795(8) 0.48614(13) 0.12133(14)
N12 N 0.62563(8) 0.36779(13) 0.13958(14)
N13 N 0.15789(8) 0.57635(13) 0.52776(13)
N14 N 0.13483(8) 0.67608(13) 0.44569(13)
N15 N 0.08958(8) 0.73385(13) 0.55790(14)
N16 N 0.11751(8) 0.63782(13) 0.64134(13)
N17 N 0.06751(8) 0.72494(13) 0.34709(14)
N18 N -0.01058(8) 0.69099(13) 0.28818(13)
N19 N -0.05547(8) 0.76246(13) 0.39342(13)
N20 N 0.02229(8) 0.78506(13) 0.45961(13)
N21 N -0.08373(8) 0.60264(13) 0.25418(14)
N22 N -0.11511(8) 0.48818(13) 0.29210(14)
N23 N -0.16009(9) 0.54932(13) 0.40269(14)
N24 N -0.12164(8) 0.66132(13) 0.37345(14)
C1 C 0.20625(9) 0.40625(15) 0.13964(15)
C2 C 0.21901(9) 0.34213(15) 0.08116(16)
C3 C 0.24295(9) 0.27316(15) 0.11032(15)
C4 C 0.25384(10) 0.21365(16) 0.05534(17)
H31 H 0.2689 0.1672 0.0748
C5 C 0.24213(10) 0.22422(17) -0.02834(17)
H32 H 0.2503 0.1853 -0.0651
C6 C 0.21841(10) 0.29247(17) -0.05728(17)
H33 H 0.2105 0.2992 -0.1134
C7 C 0.20636(10) 0.35109(16) -0.00263(17)
H34 H 0.1898 0.3964 -0.0222
C8 C 0.25866(10) 0.58313(15) 0.31237(15)
C9 C 0.26308(9) 0.65165(15) 0.37110(16)
C10 C 0.25387(9) 0.72868(16) 0.34544(16)
C11 C 0.25383(9) 0.78863(16) 0.40250(17)
H35 H 0.2472 0.8396 0.3852
C12 C 0.26377(10) 0.77221(16) 0.48579(17)
H36 H 0.2625 0.8119 0.5244
C13 C 0.27551(10) 0.69646(17) 0.51120(17)
H37 H 0.2838 0.6859 0.5665
C14 C 0.27493(10) 0.63662(16) 0.45388(16)
H38 H 0.2826 0.5859 0.4711
C15 C 0.35005(9) 0.36564(15) 0.02277(16)
C16 C 0.35133(10) 0.32042(15) -0.11168(16)
H39 H 0.3193 0.3032 -0.1433
C17 C 0.37330(10) 0.25645(16) -0.05183(16)
H40 H 0.3530 0.2080 -0.0582
C18 C 0.43829(10) 0.29184(16) -0.13937(16)
C19 C 0.38218(9) 0.25209(15) 0.10499(16)
H41 H 0.3589 0.2704 0.1454
H42 H 0.3759 0.1967 0.0972
C20 C 0.46288(10) 0.18917(16) -0.03766(16)
H43 H 0.4862 0.1717 -0.0784
H44 H 0.4428 0.1444 -0.0212
C21 C 0.45177(10) 0.32359(15) 0.18773(15)
C22 C 0.47921(9) 0.21368(15) 0.11712(16)
H45 H 0.4735 0.1595 0.1334
C23 C 0.52682(9) 0.24989(15) 0.16745(16)
H46 H 0.5413 0.2145 0.2105
C24 C 0.54533(10) 0.24198(15) 0.02932(17)
C25 C 0.53279(10) 0.36263(16) 0.26856(16)
H47 H 0.5073 0.3884 0.3008
H48 H 0.5521 0.3256 0.3041
C26 C 0.61822(9) 0.28535(16) 0.12500(17)
H49 H 0.6317 0.2569 0.1734
H50 H 0.6386 0.2698 0.0798
C27 C 0.55964(10) 0.49836(16) 0.24657(16)
C28 C 0.62262(9) 0.40359(16) 0.21951(16)
H51 H 0.6427 0.3744 0.2628
C29 C 0.64594(10) 0.48610(15) 0.20713(16)
H52 H 0.6774 0.4956 0.2441
C30 C 0.64455(9) 0.41748(16) 0.08300(16)
C31 C 0.39000(10) 0.38018(16) -0.23788(16)
H53 H 0.3556 0.3715 -0.2660
H54 H 0.4162 0.3624 -0.2739
C32 C 0.31109(10) 0.45406(16) -0.08500(17)
H55 H 0.2947 0.4763 -0.0385
H56 H 0.2832 0.4380 -0.1250
C33 C 0.14355(9) 0.59736(16) 0.44846(16)
C34 C 0.15761(10) 0.64289(15) 0.58323(16)
H57 H 0.1925 0.6526 0.6106
C35 C 0.13912(9) 0.71127(15) 0.52662(16)
H58 H 0.1645 0.7543 0.5298
C36 C 0.07898(10) 0.69299(15) 0.62693(16)
C37 C 0.12292(9) 0.71926(16) 0.37063(16)
H59 H 0.1373 0.7714 0.3774
H60 H 0.1403 0.6943 0.3266
C38 C 0.05985(10) 0.80190(15) 0.52871(16)
H61 H 0.0842 0.8416 0.5124
H62 H 0.0411 0.8229 0.5734
C39 C 0.04174(10) 0.67378(15) 0.29442(16)
C40 C 0.03350(9) 0.78646(15) 0.37335(16)
H63 H 0.0459 0.8379 0.3572
C41 C -0.02062(9) 0.76594(15) 0.32737(16)
H64 H -0.0317 0.8059 0.2868
C42 C -0.03046(10) 0.77663(15) 0.46932(16)
C43 C -0.04660(10) 0.65806(16) 0.22430(16)
H65 H -0.0661 0.7002 0.1965
H66 H -0.0262 0.6323 0.1841
C44 C -0.11061(10) 0.74421(15) 0.38339(17)
H67 H -0.1261 0.7717 0.3356
H68 H -0.1275 0.7631 0.4310
C45 C -0.07565(10) 0.52365(16) 0.25333(16)
C46 C -0.13110(10) 0.62401(16) 0.29355(16)
H69 H -0.1555 0.6543 0.2568
C47 C -0.15471(10) 0.54353(16) 0.31524(16)
H70 H -0.1887 0.5344 0.2848
C48 C -0.13948(9) 0.61693(15) 0.43554(16)
C49 C 0.12539(10) 0.59458(16) 0.71712(16)
H71 H 0.1615 0.6018 0.7392
H72 H 0.1024 0.6158 0.7566
C50 C 0.18728(10) 0.50636(16) 0.54905(17)
H73 H 0.1964 0.4811 0.4988
H74 H 0.2199 0.5210 0.5795
Nd1B Nd 0.664557(5) 0.556116(8) -0.221776(8)
Nd2B Nd 0.869386(5) 0.481003(8) -0.240115(8)
Nd2B_2 Nd -0.130614(5) 0.481003(8) 0.759885(8)
S1B S 0.74350(2) 0.74304(4) -0.21744(4)
S2B S 0.75401(2) 0.24691(4) -0.23838(4)
O1B O 0.75688(7) 0.56719(11) -0.18648(12)
O2B O 0.84099(7) 0.57157(11) -0.13915(12)
O3B O 0.69719(7) 0.69481(11) -0.24417(11)
O4B O 0.73281(7) 0.82546(11) -0.22717(12)
O5B O 0.79053(7) 0.71892(11) -0.25634(11)
O6B O 0.70180(7) 0.46027(12) -0.31007(12)
O7B O 0.78490(7) 0.42603(11) -0.27324(12)
O8B O 0.71750(7) 0.29812(12) -0.19835(12)
O9B O 0.74049(7) 0.16505(11) -0.23300(13)
O10B O 0.80877(7) 0.26263(11) -0.20996(12)
O11B O 0.66014(7) 0.59276(11) -0.08129(11)
O12B O 0.51980(7) 0.70636(12) 0.17186(12)
O13B O 0.57819(7) 0.62917(11) -0.21768(11)
O14B O 0.42960(7) 0.75885(13) 0.03246(12)
O15B O 0.48078(7) 0.47134(11) -0.26925(12)
O16B O 0.35118(7) 0.59823(11) -0.01025(11)
O17B O -0.14007(8) 0.44731(11) 0.61041(12)
O17B_2 O 0.85993(8) 0.44731(11) -0.38959(12)
O18B O -0.04150(7) 0.29638(12) 0.33113(12)
O19B O -0.06262(7) 0.37966(11) 0.74231(12)
O19B_2 O 0.93738(7) 0.37966(11) -0.25769(12)
O20B O 0.05178(7) 0.21666(12) 0.46619(12)
O21B O 0.03970(7) 0.50935(11) 0.77886(12)
O22B O 0.13805(7) 0.36413(12) 0.49135(12)
O23B O 0.62679(8) 0.57755(12) -0.36388(12)
H1B H 0.6475 0.5667 -0.4028
H2B H 0.5980 0.5485 -0.3783
O24B O 0.59196(7) 0.46121(12) -0.22830(13)
H3B H 0.5580 0.4644 -0.2311
H4B H 0.5987 0.4166 -0.2084
O25B O 0.69090(7) 0.44389(11) -0.13413(12)
H5B H 0.7050 0.4040 -0.1478
H6B H 0.6798 0.4378 -0.0847
O26B O 0.83400(8) 0.59223(12) -0.32483(12)
H7B H 0.8173 0.6335 -0.3073
H8B H 0.8461 0.5923 -0.3672
O27B O 0.94362(8) 0.55398(14) -0.28492(15)
H9B H 0.9774 0.5358 -0.2674
H10B H 0.9436 0.5724 -0.3374
O28B O 0.94154(8) 0.49690(14) -0.12531(13)
H11B H 0.9329 0.5108 -0.0821
H12B H 0.9732 0.4894 -0.1278
O29B O 0.84677(7) 0.39228(11) -0.12845(12)
H13B H 0.8314 0.3544 -0.1480
H14B H 0.8321 0.4113 -0.0959
N1B N 0.65915(8) 0.61441(13) 0.05750(13)
N2B N 0.63139(8) 0.70836(13) -0.02804(13)
N3B N 0.57292(8) 0.75363(14) 0.07444(14)
N4B N 0.60587(8) 0.66641(13) 0.16423(14)
N5B N 0.56417(8) 0.73693(13) -0.13728(14)
N6B N 0.49509(8) 0.67945(13) -0.20171(13)
N7B N 0.43624(8) 0.73608(14) -0.10593(14)
N8B N 0.50576(8) 0.78166(14) -0.03298(14)
N9B N 0.43075(8) 0.57954(13) -0.24110(14)
N10B N 0.39692(8) 0.46261(13) -0.22440(14)
N11B N 0.34205(8) 0.51386(13) -0.12133(14)
N12B N 0.37437(8) 0.63221(13) -0.13958(14)
N13B N -0.15789(8) 0.42365(13) 0.47224(13)
N14B N -0.13483(8) 0.32392(13) 0.55431(13)
N15B N -0.08958(8) 0.26615(13) 0.44210(14)
N16B N -0.11751(8) 0.36218(13) 0.35866(13)
N17B N -0.06751(8) 0.27506(13) 0.65291(14)
N18B N 0.01058(8) 0.30901(13) 0.71182(13)
N19B N 0.05547(8) 0.23754(13) 0.60658(13)
N20B N -0.02229(8) 0.21494(13) 0.54039(13)
N21B N 0.08373(8) 0.39736(13) 0.74582(14)
N22B N 0.11511(8) 0.51182(13) 0.70790(14)
N23B N 0.16009(9) 0.45068(13) 0.59731(14)
N24B N 0.12164(8) 0.33868(13) 0.62655(14)
C1B C 0.79375(9) 0.59375(15) -0.13964(15)
C2B C 0.78099(9) 0.65787(15) -0.08116(16)
C3B C 0.75705(9) 0.72684(15) -0.11032(15)
C4B C 0.74616(10) 0.78635(16) -0.05534(17)
H31B H 0.7311 0.8328 -0.0748
C5B C 0.75787(10) 0.77578(17) 0.02834(17)
H32B H 0.7497 0.8147 0.0651
C6B C 0.78159(10) 0.70753(17) 0.05728(17)
H33B H 0.7895 0.7008 0.1134
C7B C 0.79364(10) 0.64891(16) 0.00263(17)
H34B H 0.8102 0.6036 0.0222
C8B C 0.74134(10) 0.41687(15) -0.31237(15)
C9B C 0.73692(9) 0.34835(15) -0.37110(16)
C10B C 0.74613(9) 0.27132(16) -0.34544(16)
C11B C 0.74617(9) 0.21137(16) -0.40250(17)
H35B H 0.7528 0.1604 -0.3852
C12B C 0.73623(10) 0.22779(16) -0.48579(17)
H36B H 0.7375 0.1881 -0.5244
C13B C 0.72449(10) 0.30354(17) -0.51120(17)
H37B H 0.7162 0.3141 -0.5665
C14B C 0.72507(10) 0.36338(16) -0.45388(16)
H38B H 0.7174 0.4141 -0.4711
C15B C 0.64995(9) 0.63436(15) -0.02277(16)
C16B C 0.64867(10) 0.67958(15) 0.11168(16)
H39B H 0.6807 0.6968 0.1433
C17B C 0.62670(10) 0.74355(16) 0.05183(16)
H40B H 0.6470 0.7920 0.0582
C18B C 0.56171(10) 0.70816(16) 0.13937(16)
C19B C 0.61782(9) 0.74791(15) -0.10499(16)
H41B H 0.6411 0.7296 -0.1454
H42B H 0.6241 0.8033 -0.0972
C20B C 0.53712(10) 0.81083(16) 0.03766(16)
H43B H 0.5138 0.8283 0.0784
H44B H 0.5572 0.8556 0.0212
C21B C 0.54823(10) 0.67641(15) -0.18773(15)
C22B C 0.52079(9) 0.78632(15) -0.11712(16)
H45B H 0.5265 0.8405 -0.1334
C23B C 0.47318(9) 0.75011(15) -0.16745(16)
H46B H 0.4587 0.7855 -0.2105
C24B C 0.45467(10) 0.75802(15) -0.02932(17)
C25B C 0.46721(10) 0.63737(16) -0.26856(16)
H47B H 0.4927 0.6116 -0.3008
H48B H 0.4479 0.6744 -0.3041
C26B C 0.38178(9) 0.71465(16) -0.12500(17)
H49B H 0.3683 0.7431 -0.1734
H50B H 0.3614 0.7302 -0.0798
C27B C 0.44036(10) 0.50164(16) -0.24657(16)
C28B C 0.37738(9) 0.59641(16) -0.21951(16)
H51B H 0.3573 0.6256 -0.2628
C29B C 0.35406(10) 0.51390(15) -0.20713(16)
H52B H 0.3226 0.5044 -0.2441
C30B C 0.35545(9) 0.58252(16) -0.08300(16)
C31B C 0.61000(10) 0.61982(16) 0.23788(16)
H53B H 0.6444 0.6285 0.2660
H54B H 0.5838 0.6376 0.2739
C32B C 0.68891(10) 0.54594(16) 0.08500(17)
H55B H 0.7053 0.5237 0.0385
H56B H 0.7168 0.5620 0.1250
C33B C -0.14355(9) 0.40264(16) 0.55154(16)
C34B C -0.15761(10) 0.35711(15) 0.41677(16)
H57B H -0.1925 0.3474 0.3894
C35B C -0.13912(9) 0.28873(15) 0.47338(16)
H58B H -0.1645 0.2457 0.4702
C36B C -0.07898(10) 0.30701(15) 0.37307(16)
C37B C -0.12292(9) 0.28074(16) 0.62937(16)
H59B H -0.1373 0.2286 0.6226
H60B H -0.1403 0.3057 0.6734
C38B C -0.05985(10) 0.19810(15) 0.47129(16)
H61B H -0.0842 0.1584 0.4876
H62B H -0.0411 0.1771 0.4266
C39B C -0.04174(10) 0.32622(15) 0.70558(16)
C40B C -0.03350(9) 0.21354(15) 0.62665(16)
H63B H -0.0459 0.1621 0.6428
C41B C 0.02062(9) 0.23406(15) 0.67263(16)
H64B H 0.0317 0.1941 0.7132
C42B C 0.03046(10) 0.22337(15) 0.53068(16)
C43B C 0.04660(10) 0.34194(16) 0.77570(16)
H65B H 0.0661 0.2998 0.8035
H66B H 0.0262 0.3677 0.8159
C44B C 0.11061(10) 0.25579(15) 0.61661(17)
H67B H 0.1261 0.2283 0.6644
H68B H 0.1275 0.2369 0.5690
C45B C 0.07565(10) 0.47635(16) 0.74667(16)
C46B C 0.13110(10) 0.37599(16) 0.70645(16)
H69B H 0.1555 0.3457 0.7432
C47B C 0.15471(10) 0.45647(16) 0.68476(16)
H70B H 0.1887 0.4656 0.7152
C48B C 0.13948(9) 0.38307(15) 0.56446(16)
C49B C -0.12539(10) 0.40542(16) 0.28288(16)
H71B H -0.1615 0.3982 0.2608
H72B H -0.1024 0.3842 0.2434
C50B C -0.18728(10) 0.49364(16) 0.45095(17)
H73B H -0.1964 0.5189 0.5012
H74B H -0.2199 0.4790 0.4205
O30 O 0.20300(8) 0.55385(13) -0.00836(13)
O31 O 0.13013(9) 0.57910(16) -0.08037(15)
O32 O 0.18953(12) 0.50866(17) -0.13086(15)
N25 N 0.17438(9) 0.54694(14) -0.07346(15)
O33 O 0.32295(14) 0.5094(2) 0.60847(18)
O34 O 0.38733(10) 0.44049(15) 0.56981(17)
O35 O 0.31369(9) 0.44671(14) 0.49355(15)
N26 N 0.34156(13) 0.46517(18) 0.55819(17)
O36 O 0.39240(16) 0.6020(3) 0.4146(3)
H15 H 0.3734 0.6276 0.4532
H16 H 0.3638 0.5745 0.3891
O37 O 0.39046(8) 0.69615(12) 0.17629(13)
H17 H 0.3557 0.6987 0.1779
H18 H 0.3933 0.7156 0.1265
O38 O 0.45748(10) 0.42138(15) 0.04383(17)
H19 H 0.4588 0.4745 0.0579
H20 H 0.4853 0.4190 0.0176
O39 O 0.53839(9) 0.41046(14) -0.06861(16)
H21 H 0.5279 0.3712 -0.1075
H22 H 0.5750 0.3971 -0.0556
O40 O 0.47117(9) 0.49752(15) 0.41912(15)
H23 H 0.4552 0.5426 0.4320
H24 H 0.4909 0.5092 0.3826
O41 O 0.03618(9) 0.38105(15) 0.42614(15)
H25 H 0.0138 0.3415 0.4059
H26 H 0.0684 0.3597 0.4492
O42 O 0.05692(10) 0.45390(15) -0.03612(14)
H27 H 0.0823 0.4885 -0.0555
H28 H 0.0637 0.4010 -0.0555
O43 O 0.0157(4) 0.5603(5) 0.4378(5)
H29 H 0.0046 0.5832 0.4840
H30 H -0.0174 0.5344 0.4206
loop_
_geom_bond_atom_site_label_1
_geom_bond_atom_site_label_2
_geom_bond_site_symmetry_1
_geom_bond_site_symmetry_2
Nd1 O1 1_555 1_555
Nd2 O2 1_555 1_555
S1 O3 1_555 1_555
S2 O8 1_555 1_555
O1 C1 1_555 1_555
O2 C1 1_555 1_555
O3 Nd1 1_555 1_555
O4 S1 1_555 1_555
O5 S1 1_555 1_555
O6 Nd1 1_555 1_555
O7 Nd2 1_555 1_555
O9 S2 1_555 1_555
O10 S2 1_555 1_555
O11 Nd1 1_555 1_555
O12 C18 1_555 1_555
O13 Nd1 1_555 1_555
O14 C24 1_555 1_555
O15 C27 1_555 1_555
O16 C30 1_555 1_555
O17 Nd2 1_555 1_555
O18 C36 1_555 1_555
O19 Nd2 1_555 1_555
O20 C42 1_555 1_555
O21 C45 1_555 1_555
O22 C48 1_555 1_555
O23 Nd1 1_555 1_555
H1 O23 1_555 1_555
H2 O23 1_555 1_555
O24 Nd1 1_555 1_555
H3 O24 1_555 1_555
H4 O24 1_555 1_555
O25 Nd1 1_555 1_555
H5 O25 1_555 1_555
H6 O25 1_555 1_555
O26 Nd2 1_555 1_555
H7 O26 1_555 1_555
H8 O26 1_555 1_555
O27 Nd2 1_555 1_555
H9 O27 1_555 1_555
H10 O27 1_555 1_555
O28 Nd2 1_555 1_555
H11 O28 1_555 1_555
H12 O28 1_555 1_555
O29 Nd2 1_555 1_555
H13 O29 1_555 1_555
H14 O29 1_555 1_555
O30 N25 1_555 1_555
O31 N25 1_555 1_555
O32 N25 1_555 1_555
O33 N26 1_555 1_555
O34 N26 1_555 1_555
O35 N26 1_555 1_555
O36 H15 1_555 1_555
H16 O36 1_555 1_555
O37 H17 1_555 1_555
H18 O37 1_555 1_555
O38 H19 1_555 1_555
H20 O38 1_555 1_555
O39 H21 1_555 1_555
H22 O39 1_555 1_555
O40 H23 1_555 1_555
H24 O40 1_555 1_555
O41 H25 1_555 1_555
H26 O41 1_555 1_555
O42 H27 1_555 1_555
H28 O42 1_555 1_555
O43 H29 1_555 1_555
H30 O43 1_555 1_555
N1 C15 1_555 1_555
N2 C15 1_555 1_555
N3 C17 1_555 1_555
N4 C16 1_555 1_555
N5 C19 1_555 1_555
N6 C21 1_555 1_555
N7 C23 1_555 1_555
N8 C20 1_555 1_555
N9 C25 1_555 1_555
N10 C27 1_555 1_555
N11 C29 1_555 1_555
N12 C26 1_555 1_555
N13 C33 1_555 1_555
N14 C33 1_555 1_555
N15 C35 1_555 1_555
N16 C34 1_555 1_555
N17 C37 1_555 1_555
N18 C39 1_555 1_555
N19 C41 1_555 1_555
N20 C38 1_555 1_555
N21 C43 1_555 1_555
N22 C45 1_555 1_555
N23 C47 1_555 1_555
N24 C44 1_555 1_555
C1 C2 1_555 1_555
C2 C3 1_555 1_555
C3 S1 1_555 1_555
C4 C3 1_555 1_555
H31 C4 1_555 1_555
C5 C4 1_555 1_555
H32 C5 1_555 1_555
C6 C5 1_555 1_555
H33 C6 1_555 1_555
C7 C2 1_555 1_555
H34 C7 1_555 1_555
C8 O6 1_555 1_555
C9 C8 1_555 1_555
C10 S2 1_555 1_555
C11 C10 1_555 1_555
H35 C11 1_555 1_555
C12 C11 1_555 1_555
H36 C12 1_555 1_555
C13 C12 1_555 1_555
H37 C13 1_555 1_555
C14 C9 1_555 1_555
H38 C14 1_555 1_555
C15 O11 1_555 1_555
C16 N1 1_555 1_555
H39 C16 1_555 1_555
C17 N2 1_555 1_555
H40 C17 1_555 1_555
C18 N3 1_555 1_555
C19 N2 1_555 1_555
H41 C19 1_555 1_555
H42 C19 1_555 1_555
C20 N3 1_555 1_555
H43 C20 1_555 1_555
H44 C20 1_555 1_555
C21 O13 1_555 1_555
C22 N5 1_555 1_555
H45 C22 1_555 1_555
C23 N6 1_555 1_555
H46 C23 1_555 1_555
C24 N7 1_555 1_555
C25 N6 1_555 1_555
H47 C25 1_555 1_555
H48 C25 1_555 1_555
C26 N7 1_555 1_555
H49 C26 1_555 1_555
H50 C26 1_555 1_555
C27 N9 1_555 1_555
C28 N9 1_555 1_555
H51 C28 1_555 1_555
C29 N10 1_555 1_555
H52 C29 1_555 1_555
C30 N11 1_555 1_555
C31 N4 1_555 1_555
H53 C31 1_555 1_555
H54 C31 1_555 1_555
C32 N1 1_555 1_555
H55 C32 1_555 1_555
H56 C32 1_555 1_555
C33 O17 1_555 1_555
C34 N13 1_555 1_555
H57 C34 1_555 1_555
C35 N14 1_555 1_555
H58 C35 1_555 1_555
C36 N15 1_555 1_555
C37 N14 1_555 1_555
H59 C37 1_555 1_555
H60 C37 1_555 1_555
C38 N15 1_555 1_555
H61 C38 1_555 1_555
H62 C38 1_555 1_555
C39 O19 1_555 1_555
C40 N17 1_555 1_555
H63 C40 1_555 1_555
C41 N18 1_555 1_555
H64 C41 1_555 1_555
C42 N19 1_555 1_555
C43 N18 1_555 1_555
H65 C43 1_555 1_555
H66 C43 1_555 1_555
C44 N19 1_555 1_555
H67 C44 1_555 1_555
H68 C44 1_555 1_555
C45 N21 1_555 1_555
C46 N21 1_555 1_555
H69 C46 1_555 1_555
C47 N22 1_555 1_555
H70 C47 1_555 1_555
C48 N23 1_555 1_555
C49 N16 1_555 1_555
H71 C49 1_555 1_555
H72 C49 1_555 1_555
C50 N13 1_555 1_555
H73 C50 1_555 1_555
H74 C50 1_555 1_555
Nd1B O1B 1_555 1_555
Nd2B O2B 1_555 1_555
Nd2B_2 O17B 1_555 1_555
S1B O3B 1_555 1_555
S2B O8B 1_555 1_555
O1B C1B 1_555 1_555
O2B C1B 1_555 1_555
O3B Nd1B 1_555 1_555
O4B S1B 1_555 1_555
O5B S1B 1_555 1_555
O6B Nd1B 1_555 1_555
O7B Nd2B 1_555 1_555
O9B S2B 1_555 1_555
O10B S2B 1_555 1_555
O11B Nd1B 1_555 1_555
O12B C18B 1_555 1_555
O13B Nd1B 1_555 1_555
O14B C24B 1_555 1_555
O15B C27B 1_555 1_555
O16B C30B 1_555 1_555
O17B C33B 1_555 1_555
O17B_2 Nd2B 1_555 1_555
O18B C36B 1_555 1_555
O19B Nd2B_2 1_555 1_555
O19B_2 Nd2B 1_555 1_555
O20B C42B 1_555 1_555
O21B C45B 1_555 1_555
O22B C48B 1_555 1_555
O23B Nd1B 1_555 1_555
H1B O23B 1_555 1_555
H2B O23B 1_555 1_555
O24B Nd1B 1_555 1_555
H3B O24B 1_555 1_555
H4B O24B 1_555 1_555
O25B Nd1B 1_555 1_555
H5B O25B 1_555 1_555
H6B O25B 1_555 1_555
O26B Nd2B 1_555 1_555
H7B O26B 1_555 1_555
H8B O26B 1_555 1_555
O27B Nd2B 1_555 1_555
H9B O27B 1_555 1_555
H10B O27B 1_555 1_555
O28B Nd2B 1_555 1_555
H11B O28B 1_555 1_555
H12B O28B 1_555 1_555
O29B Nd2B 1_555 1_555
H13B O29B 1_555 1_555
H14B O29B 1_555 1_555
N1B C15B 1_555 1_555
N2B C15B 1_555 1_555
N3B C17B 1_555 1_555
N4B C16B 1_555 1_555
N5B C19B 1_555 1_555
N6B C21B 1_555 1_555
N7B C23B 1_555 1_555
N8B C20B 1_555 1_555
N9B C25B 1_555 1_555
N10B C31 1_555 1_555
N11B C32 1_555 1_555
N12B C26B 1_555 1_555
N13B C33B 1_555 1_555
N14B C33B 1_555 1_555
N15B C35B 1_555 1_555
N16B C34B 1_555 1_555
N17B C37B 1_555 1_555
N18B C39B 1_555 1_555
N19B C41B 1_555 1_555
N20B C38B 1_555 1_555
N21B C43B 1_555 1_555
N22B C49 1_555 1_555
N23B C50 1_555 1_555
N24B C44B 1_555 1_555
C1B C2B 1_555 1_555
C2B C3B 1_555 1_555
C3B S1B 1_555 1_555
C4B C3B 1_555 1_555
H31B C4B 1_555 1_555
C5B C4B 1_555 1_555
H32B C5B 1_555 1_555
C6B C5B 1_555 1_555
H33B C6B 1_555 1_555
C7B C2B 1_555 1_555
H34B C7B 1_555 1_555
C8B O6B 1_555 1_555
C9B C8B 1_555 1_555
C10B S2B 1_555 1_555
C11B C10B 1_555 1_555
H35B C11B 1_555 1_555
C12B C11B 1_555 1_555
H36B C12B 1_555 1_555
C13B C12B 1_555 1_555
H37B C13B 1_555 1_555
C14B C9B 1_555 1_555
H38B C14B 1_555 1_555
C15B O11B 1_555 1_555
C16B N1B 1_555 1_555
H39B C16B 1_555 1_555
C17B N2B 1_555 1_555
H40B C17B 1_555 1_555
C18B N3B 1_555 1_555
C19B N2B 1_555 1_555
H41B C19B 1_555 1_555
H42B C19B 1_555 1_555
C20B N3B 1_555 1_555
H43B C20B 1_555 1_555
H44B C20B 1_555 1_555
C21B O13B 1_555 1_555
C22B N5B 1_555 1_555
H45B C22B 1_555 1_555
C23B N6B 1_555 1_555
H46B C23B 1_555 1_555
C24B N7B 1_555 1_555
C25B N6B 1_555 1_555
H47B C25B 1_555 1_555
H48B C25B 1_555 1_555
C26B N7B 1_555 1_555
H49B C26B 1_555 1_555
H50B C26B 1_555 1_555
C27B N9B 1_555 1_555
C28B N9B 1_555 1_555
H51B C28B 1_555 1_555
C29B N10B 1_555 1_555
H52B C29B 1_555 1_555
C30B N11B 1_555 1_555
C31B N10 1_555 1_555
H53B C31B 1_555 1_555
H54B C31B 1_555 1_555
C32B N11 1_555 1_555
H55B C32B 1_555 1_555
H56B C32B 1_555 1_555
C34B N13B 1_555 1_555
H57B C34B 1_555 1_555
C35B N14B 1_555 1_555
H58B C35B 1_555 1_555
C36B N15B 1_555 1_555
C37B N14B 1_555 1_555
H59B C37B 1_555 1_555
H60B C37B 1_555 1_555
C38B N15B 1_555 1_555
H61B C38B 1_555 1_555
H62B C38B 1_555 1_555
C39B O19B 1_555 1_555
C40B N17B 1_555 1_555
H63B C40B 1_555 1_555
C41B N18B 1_555 1_555
H64B C41B 1_555 1_555
C42B N19B 1_555 1_555
C43B N18B 1_555 1_555
H65B C43B 1_555 1_555
H66B C43B 1_555 1_555
C44B N19B 1_555 1_555
H67B C44B 1_555 1_555
H68B C44B 1_555 1_555
C45B N21B 1_555 1_555
C46B N21B 1_555 1_555
H69B C46B 1_555 1_555
C47B N22B 1_555 1_555
H70B C47B 1_555 1_555
C48B N23B 1_555 1_555
C49B N22 1_555 1_555
H71B C49B 1_555 1_555
H72B C49B 1_555 1_555
C50B N23 1_555 1_555
H73B C50B 1_555 1_555
H74B C50B 1_555 1_555
O7 C8 1_555 1_555
N4 C18 1_555 1_555
N5 C21 1_555 1_555
N8 C22 1_555 1_555
N8 C24 1_555 1_555
N12 C28 1_555 1_555
N12 C30 1_555 1_555
N16 C36 1_555 1_555
N17 C39 1_555 1_555
N20 C40 1_555 1_555
N20 C42 1_555 1_555
N24 C46 1_555 1_555
N24 C48 1_555 1_555
C6 C7 1_555 1_555
C9 C10 1_555 1_555
C13 C14 1_555 1_555
C16 C17 1_555 1_555
C22 C23 1_555 1_555
C28 C29 1_555 1_555
C34 C35 1_555 1_555
C40 C41 1_555 1_555
C46 C47 1_555 1_555
O7B C8B 1_555 1_555
N1B C32B 1_555 1_555
N4B C18B 1_555 1_555
N4B C31B 1_555 1_555
N5B C21B 1_555 1_555
N8B C22B 1_555 1_555
N8B C24B 1_555 1_555
N10B C27B 1_555 1_555
N11B C29B 1_555 1_555
N12B C28B 1_555 1_555
N12B C30B 1_555 1_555
N13B C50B 1_555 1_555
N16B C36B 1_555 1_555
N16B C49B 1_555 1_555
N17B C39B 1_555 1_555
N20B C40B 1_555 1_555
N20B C42B 1_555 1_555
N22B C45B 1_555 1_555
N23B C47B 1_555 1_555
N24B C46B 1_555 1_555
N24B C48B 1_555 1_555
C6B C7B 1_555 1_555
C9B C10B 1_555 1_555
C13B C14B 1_555 1_555
C16B C17B 1_555 1_555
C22B C23B 1_555 1_555
C28B C29B 1_555 1_555
C34B C35B 1_555 1_555
C40B C41B 1_555 1_555
C46B C47B 1_555 1_555

#END
