
#######################################################################
#
#                 Cambridge Crystallographic Data Centre
#                                CCDC 
#
#######################################################################
#
# If this CIF has been generated from an entry in the Cambridge 
# Structural Database, then it will include bibliographic, chemical, 
# crystal, experimental, refinement or atomic coordinate data resulting 
# from the CCDC's data processing and validation procedures.
#
#######################################################################

data_HASNEW
_symmetry_cell_setting           monoclinic
_symmetry_space_group_name_H-M   'P 21/n'
_symmetry_Int_Tables_number      14
_space_group_name_Hall           '-P 2yn'
loop_
_symmetry_equiv_pos_site_id
_symmetry_equiv_pos_as_xyz
1 x,y,z
2 1/2-x,1/2+y,1/2-z
3 -x,-y,-z
4 1/2+x,1/2-y,1/2+z
_cell_length_a                   14.6450(3)
_cell_length_b                   17.4413(6)
_cell_length_c                   15.4932(5)
_cell_angle_alpha                90
_cell_angle_beta                 114.636(2)
_cell_angle_gamma                90
_cell_volume                     3597.17
loop_
_atom_site_label
_atom_site_type_symbol
_atom_site_fract_x
_atom_site_fract_y
_atom_site_fract_z
Eu1 Eu 0.587399(9) 0.474143(8) 0.878699(9)
S1 S 0.51174(5) 0.75934(4) 1.00650(5)
O1 O 0.63946(14) 0.55766(12) 1.00801(13)
O2 O 0.51516(13) 0.57691(11) 1.05359(13)
O3 O 0.51482(15) 0.71807(12) 0.92571(13)
O4 O 0.42801(14) 0.73528(12) 1.02759(14)
O5 O 0.51607(15) 0.84168(11) 0.99806(15)
O6 O 0.43828(14) 0.43001(12) 0.74948(13)
O7 O 0.28258(15) 0.29553(12) 0.35535(13)
O8 O 0.64364(15) 0.37681(12) 0.80045(14)
O9 O 0.51897(16) 0.22876(14) 0.40581(14)
O10 O 0.79852(17) 0.52019(12) 0.74616(15)
O11 O 0.64024(14) 0.37964(12) 0.35789(13)
O12 O 0.46402(16) 0.57569(13) 0.83320(14)
H1 H 0.4776 0.6091 0.8698
H2 H 0.4252 0.5862 0.7690
O13 O 0.5927(2) 0.5384(2) 0.7407(2)
H3 H 0.5477 0.5301 0.6765
H4 H 0.5832 0.5807 0.7523
O14 O 0.7581(2) 0.51420(18) 0.9091(2)
H5 H 0.7750 0.5199 0.8614
H6 H 0.8219 0.5246 0.9619
O15 O 0.69255(14) 0.39067(12) 1.00784(14)
H7 H 0.6500 0.3514 1.0045
H8 H 0.7286 0.3989 1.0767
N1 N 0.29365(17) 0.41152(13) 0.61529(16)
N2 N 0.39564(17) 0.31303(14) 0.67562(16)
N3 N 0.34054(18) 0.26284(14) 0.51433(16)
N4 N 0.22671(17) 0.35485(14) 0.45713(15)
N5 N 0.56492(17) 0.27044(14) 0.71318(16)
N6 N 0.69924(17) 0.31651(14) 0.69889(16)
N7 N 0.65607(17) 0.24889(14) 0.54797(16)
N8 N 0.50987(17) 0.22071(15) 0.55037(16)
N9 N 0.80623(19) 0.40841(14) 0.66869(17)
N10 N 0.82897(18) 0.51956(13) 0.61199(17)
N11 N 0.76325(18) 0.46313(14) 0.45347(16)
N12 N 0.74960(17) 0.34961(14) 0.51220(16)
C1 C 0.59988(19) 0.59181(15) 1.05482(18)
C2 C 0.65911(19) 0.65683(16) 1.11696(18)
C3 C 0.62505(19) 0.73235(16) 1.10571(18)
C4 C 0.6810(2) 0.78900(17) 1.16817(19)
H9 H 0.6576 0.8392 1.1606
C5 C 0.7725(2) 0.77014(17) 1.2423(2)
H10 H 0.8095 0.8077 1.2853
C6 C 0.8085(2) 0.69613(18) 1.2523(2)
H11 H 0.8705 0.6841 1.3009
C7 C 0.75214(19) 0.63942(17) 1.18969(18)
H12 H 0.7767 0.5896 1.1964
C8 C 0.3817(2) 0.38870(17) 0.68567(18)
C9 C 0.2401(2) 0.34753(16) 0.55458(18)
H13 H 0.1766 0.3368 0.5590
C10 C 0.3147(2) 0.28003(16) 0.59228(18)
H14 H 0.2839 0.2359 0.6090
C11 C 0.2836(2) 0.30417(16) 0.43384(19)
C12 C 0.4813(2) 0.26996(17) 0.73962(19)
H15 H 0.4609 0.2173 0.7416
H16 H 0.5032 0.2911 0.8030
C13 C 0.4042(2) 0.19966(16) 0.5138(2)
H17 H 0.3823 0.1810 0.4493
H18 H 0.3964 0.1582 0.5520
C14 C 0.6361(2) 0.32640(17) 0.74199(18)
C15 C 0.5799(2) 0.21560(17) 0.64966(18)
H19 H 0.5852 0.1631 0.6737
C16 C 0.6809(2) 0.24325(16) 0.64862(19)
H20 H 0.7355 0.2067 0.6804
C17 C 0.5572(2) 0.23312(17) 0.4928(2)
C18 C 0.7965(2) 0.35433(17) 0.73548(19)
H21 H 0.8066 0.3812 0.7936
H22 H 0.8488 0.3158 0.7510
C19 C 0.7268(2) 0.26823(17) 0.5088(2)
H23 H 0.7000 0.2513 0.4433
H24 H 0.7888 0.2404 0.5434
C20 C 0.8096(2) 0.48633(17) 0.68188(19)
C21 C 0.8305(2) 0.38551(17) 0.59063(19)
H25 H 0.8921 0.3548 0.6126
C22 C 0.8437(2) 0.46407(16) 0.54910(19)
H26 H 0.9100 0.4690 0.5484
C23 C 0.7095(2) 0.39618(17) 0.43348(19)
C24 C 0.1469(2) 0.40000(17) 0.38725(19)
H27 H 0.0870 0.3950 0.3989
H28 H 0.1317 0.3793 0.3246
C25 C 0.2429(2) 0.48235(16) 0.6186(2)
H29 H 0.2783 0.5058 0.6804
H30 H 0.1754 0.4703 0.6114
Eu1B Eu 0.412601(9) 0.525857(8) 1.121301(9)
Eu1B_2 Eu 0.412601(9) 0.525857(8) 0.121301(9)
S1B S 0.48826(5) 0.24066(4) 0.99350(5)
O1B O 0.36054(14) 0.44234(12) 0.99199(13)
O2B O 0.48484(13) 0.42309(11) 0.94641(13)
O3B O 0.48518(15) 0.28193(12) 1.07429(13)
O4B O 0.57199(14) 0.26472(12) 0.97241(14)
O5B O 0.48393(15) 0.15832(11) 1.00194(15)
O6B O 0.56172(14) 0.56999(12) 0.25052(13)
O6B_2 O 0.56172(14) 0.56999(12) 1.25052(13)
O7B O 0.71742(15) 0.70447(12) 0.64465(13)
O8B O 0.35636(15) 0.62319(12) 0.19955(14)
O8B_2 O 0.35636(15) 0.62319(12) 1.19955(14)
O9B O 0.48103(16) 0.77124(14) 0.59419(14)
O10B O 0.20148(17) 0.47981(12) 0.25384(15)
O11B O 0.35976(14) 0.62036(12) 0.64211(13)
O12B O 0.53598(16) 0.42431(13) 1.16680(14)
H1B H 0.5224 0.3909 1.1302
H2B H 0.5748 0.4138 1.2310
O13B O 0.4073(2) 0.4616(2) 1.2593(2)
H3B H 0.4523 0.4699 1.3235
H4B H 0.4168 0.4193 1.2477
O14B O 0.2419(2) 0.48580(18) 1.0909(2)
H5B H 0.2250 0.4801 1.1386
H6B H 0.1781 0.4754 1.0381
O15B O 0.30745(14) 0.60933(12) 0.99216(14)
H7B H 0.3500 0.6486 0.9955
H8B H 0.2714 0.6011 0.9233
N1B N 0.70635(17) 0.58848(13) 0.38471(16)
N2B N 0.60436(17) 0.68697(14) 0.32438(16)
N3B N 0.65946(18) 0.73716(14) 0.48567(16)
N4B N 0.77329(17) 0.64515(14) 0.54287(15)
N5B N 0.43508(17) 0.72956(14) 0.28682(16)
N6B N 0.30076(17) 0.68349(14) 0.30111(16)
N7B N 0.34393(17) 0.75111(14) 0.45203(16)
N8B N 0.49013(17) 0.77929(15) 0.44963(16)
N9B N 0.19377(19) 0.59159(14) 0.33131(17)
N10B N 0.17103(18) 0.48044(13) 0.38801(17)
N11B N 0.23675(18) 0.53687(14) 0.54653(16)
N12B N 0.25040(17) 0.65039(14) 0.48780(16)
C1B C 0.40012(19) 0.40819(15) 0.94518(18)
C2B C 0.34089(19) 0.34317(16) 0.88304(18)
C3B C 0.37495(19) 0.26765(16) 0.89429(18)
C4B C 0.3190(2) 0.21100(17) 0.83183(19)
H9B H 0.3424 0.1608 0.8394
C5B C 0.2275(2) 0.22986(17) 0.7577(2)
H10B H 0.1905 0.1923 0.7147
C6B C 0.1915(2) 0.30387(18) 0.7477(2)
H11B H 0.1295 0.3159 0.6991
C7B C 0.24786(19) 0.36058(17) 0.81031(18)
H12B H 0.2233 0.4104 0.8036
C8B C 0.6183(2) 0.61130(17) 0.31433(18)
C9B C 0.7599(2) 0.65247(16) 0.44542(18)
H13B H 0.8234 0.6632 0.4410
C10B C 0.6853(2) 0.71997(16) 0.40772(18)
H14B H 0.7161 0.7641 0.3910
C11B C 0.7164(2) 0.69583(16) 0.56616(19)
C12B C 0.5187(2) 0.73004(17) 0.26038(19)
H15B H 0.5391 0.7827 0.2584
H16B H 0.4968 0.7089 0.1970
C13B C 0.5958(2) 0.80034(16) 0.4862(2)
H17B H 0.6177 0.8190 0.5507
H18B H 0.6036 0.8418 0.4480
C14B C 0.3639(2) 0.67360(17) 0.25801(18)
C15B C 0.4201(2) 0.78440(17) 0.35034(18)
H19B H 0.4148 0.8369 0.3263
C16B C 0.3191(2) 0.75675(16) 0.35138(19)
H20B H 0.2645 0.7933 0.3196
C17B C 0.4428(2) 0.76688(17) 0.5072(2)
C18B C 0.2035(2) 0.64567(17) 0.26452(19)
H21B H 0.1934 0.6188 0.2064
H22B H 0.1512 0.6842 0.2490
C19B C 0.2732(2) 0.73177(17) 0.4912(2)
H23B H 0.3000 0.7487 0.5567
H24B H 0.2112 0.7596 0.4566
C20B C 0.1904(2) 0.51367(17) 0.31812(19)
C21B C 0.1695(2) 0.61449(17) 0.40937(19)
H25B H 0.1079 0.6452 0.3874
C22B C 0.1563(2) 0.53593(16) 0.45090(19)
H26B H 0.0900 0.5310 0.4516
C23B C 0.2905(2) 0.60382(17) 0.56652(19)
C24B C 0.8531(2) 0.60000(17) 0.61275(19)
H27B H 0.9130 0.6050 0.6011
H28B H 0.8683 0.6207 0.6754
C25B C 0.7571(2) 0.51765(16) 0.3814(2)
H29B H 0.7217 0.4942 0.3196
H30B H 0.8246 0.5297 0.3886
O16 O 0.5626(2) 0.9210(2) 0.3098(2)
O17 O 0.57160(19) 0.99690(18) 0.2045(2)
O18 O 0.70674(18) 0.94209(15) 0.30426(16)
N13 N 0.6136(2) 0.95216(17) 0.27183(19)
O19 O 0.4735(5) 0.4636(4) 0.5621(4)
O20 O 0.9420(3) 0.5473(3) 1.0620(4)
O21 O 0.5716(2) 0.6988(2) 0.7689(2)
O22? O 0.9959(7) 0.5913(7) 1.1900(8)
O23? O 0.5877(6) 0.6698(5) 0.7182(6)
loop_
_geom_bond_atom_site_label_1
_geom_bond_atom_site_label_2
_geom_bond_site_symmetry_1
_geom_bond_site_symmetry_2
Eu1 O1 1_555 1_555
S1 O3 1_555 1_555
O1 C1 1_555 1_555
O2 C1 1_555 1_555
O4 S1 1_555 1_555
O5 S1 1_555 1_555
O6 Eu1 1_555 1_555
O7 C11 1_555 1_555
O8 Eu1 1_555 1_555
O9 C17 1_555 1_555
O10 C20 1_555 1_555
O11 C23 1_555 1_555
O12 Eu1 1_555 1_555
H1 O12 1_555 1_555
H2 O12 1_555 1_555
O13 Eu1 1_555 1_555
H3 O13 1_555 1_555
H4 O13 1_555 1_555
O14 Eu1 1_555 1_555
H5 O14 1_555 1_555
H6 O14 1_555 1_555
O15 Eu1 1_555 1_555
H7 O15 1_555 1_555
H8 O15 1_555 1_555
O16 N13 1_555 1_555
O17 N13 1_555 1_555
O18 N13 1_555 1_555
N1 C8 1_555 1_555
N2 C8 1_555 1_555
N3 C10 1_555 1_555
N4 C9 1_555 1_555
N5 C12 1_555 1_555
N6 C14 1_555 1_555
N7 C16 1_555 1_555
N8 C13 1_555 1_555
N9 C18 1_555 1_555
N10 C20 1_555 1_555
N11 C22 1_555 1_555
N12 C19 1_555 1_555
C1 C2 1_555 1_555
C2 C3 1_555 1_555
C3 S1 1_555 1_555
C4 C3 1_555 1_555
H9 C4 1_555 1_555
C5 C4 1_555 1_555
H10 C5 1_555 1_555
C6 C5 1_555 1_555
H11 C6 1_555 1_555
C7 C2 1_555 1_555
H12 C7 1_555 1_555
C8 O6 1_555 1_555
C9 N1 1_555 1_555
H13 C9 1_555 1_555
C10 N2 1_555 1_555
H14 C10 1_555 1_555
C11 N3 1_555 1_555
C12 N2 1_555 1_555
H15 C12 1_555 1_555
H16 C12 1_555 1_555
C13 N3 1_555 1_555
H17 C13 1_555 1_555
H18 C13 1_555 1_555
C14 O8 1_555 1_555
C15 N5 1_555 1_555
H19 C15 1_555 1_555
C16 N6 1_555 1_555
H20 C16 1_555 1_555
C17 N7 1_555 1_555
C18 N6 1_555 1_555
H21 C18 1_555 1_555
H22 C18 1_555 1_555
C19 N7 1_555 1_555
H23 C19 1_555 1_555
H24 C19 1_555 1_555
C20 N9 1_555 1_555
C21 N9 1_555 1_555
H25 C21 1_555 1_555
C22 N10 1_555 1_555
H26 C22 1_555 1_555
C23 N11 1_555 1_555
C24 N4 1_555 1_555
H27 C24 1_555 1_555
H28 C24 1_555 1_555
C25 N1 1_555 1_555
H29 C25 1_555 1_555
H30 C25 1_555 1_555
Eu1B O2 1_555 1_555
Eu1B_2 O6B 1_555 1_555
S1B O3B 1_555 1_555
O1B Eu1B 1_555 1_555
O2B Eu1 1_555 1_555
O4B S1B 1_555 1_555
O5B S1B 1_555 1_555
O6B C8B 1_555 1_555
O6B_2 Eu1B 1_555 1_555
O7B C11B 1_555 1_555
O8B Eu1B_2 1_555 1_555
O8B_2 Eu1B 1_555 1_555
O9B C17B 1_555 1_555
O10B C20B 1_555 1_555
O11B C23B 1_555 1_555
O12B Eu1B 1_555 1_555
H1B O12B 1_555 1_555
H2B O12B 1_555 1_555
O13B Eu1B 1_555 1_555
H3B O13B 1_555 1_555
H4B O13B 1_555 1_555
O14B Eu1B 1_555 1_555
H5B O14B 1_555 1_555
H6B O14B 1_555 1_555
O15B Eu1B 1_555 1_555
H7B O15B 1_555 1_555
H8B O15B 1_555 1_555
N1B C8B 1_555 1_555
N2B C8B 1_555 1_555
N3B C10B 1_555 1_555
N4B C9B 1_555 1_555
N5B C12B 1_555 1_555
N6B C14B 1_555 1_555
N7B C16B 1_555 1_555
N8B C13B 1_555 1_555
N9B C18B 1_555 1_555
N10B C24 1_555 1_555
N11B C25 1_555 1_555
N12B C19B 1_555 1_555
C1B O1B 1_555 1_555
C2B C1B 1_555 1_555
C3B S1B 1_555 1_555
C4B C3B 1_555 1_555
H9B C4B 1_555 1_555
C5B C4B 1_555 1_555
H10B C5B 1_555 1_555
C6B C5B 1_555 1_555
H11B C6B 1_555 1_555
C7B C2B 1_555 1_555
H12B C7B 1_555 1_555
C9B N1B 1_555 1_555
H13B C9B 1_555 1_555
C10B N2B 1_555 1_555
H14B C10B 1_555 1_555
C11B N3B 1_555 1_555
C12B N2B 1_555 1_555
H15B C12B 1_555 1_555
H16B C12B 1_555 1_555
C13B N3B 1_555 1_555
H17B C13B 1_555 1_555
H18B C13B 1_555 1_555
C14B O8B 1_555 1_555
C15B N5B 1_555 1_555
H19B C15B 1_555 1_555
C16B N6B 1_555 1_555
H20B C16B 1_555 1_555
C17B N7B 1_555 1_555
C18B N6B 1_555 1_555
H21B C18B 1_555 1_555
H22B C18B 1_555 1_555
C19B N7B 1_555 1_555
H23B C19B 1_555 1_555
H24B C19B 1_555 1_555
C20B N9B 1_555 1_555
C21B N9B 1_555 1_555
H25B C21B 1_555 1_555
C22B N10B 1_555 1_555
H26B C22B 1_555 1_555
C23B N11B 1_555 1_555
C24B N10 1_555 1_555
H27B C24B 1_555 1_555
H28B C24B 1_555 1_555
C25B N11 1_555 1_555
H29B C25B 1_555 1_555
H30B C25B 1_555 1_555
N4 C11 1_555 1_555
N5 C14 1_555 1_555
N8 C15 1_555 1_555
N8 C17 1_555 1_555
N12 C21 1_555 1_555
N12 C23 1_555 1_555
C6 C7 1_555 1_555
C9 C10 1_555 1_555
C15 C16 1_555 1_555
C21 C22 1_555 1_555
O2B C1B 1_555 1_555
N1B C25B 1_555 1_555
N4B C11B 1_555 1_555
N4B C24B 1_555 1_555
N5B C14B 1_555 1_555
N8B C15B 1_555 1_555
N8B C17B 1_555 1_555
N10B C20B 1_555 1_555
N11B C22B 1_555 1_555
N12B C21B 1_555 1_555
N12B C23B 1_555 1_555
C2B C3B 1_555 1_555
C6B C7B 1_555 1_555
C9B C10B 1_555 1_555
C15B C16B 1_555 1_555
C21B C22B 1_555 1_555

#END
