
#######################################################################
#
#                 Cambridge Crystallographic Data Centre
#                                CCDC 
#
#######################################################################
#
# If this CIF has been generated from an entry in the Cambridge 
# Structural Database, then it will include bibliographic, chemical, 
# crystal, experimental, refinement or atomic coordinate data resulting 
# from the CCDC's data processing and validation procedures.
#
#######################################################################

data_HASNOG
_symmetry_cell_setting           monoclinic
_symmetry_space_group_name_H-M   'P 21/n'
_symmetry_Int_Tables_number      14
_space_group_name_Hall           '-P 2yn'
loop_
_symmetry_equiv_pos_site_id
_symmetry_equiv_pos_as_xyz
1 x,y,z
2 1/2-x,1/2+y,1/2-z
3 -x,-y,-z
4 1/2+x,1/2-y,1/2+z
_cell_length_a                   14.6535(5)
_cell_length_b                   17.4352(6)
_cell_length_c                   15.3977(3)
_cell_angle_alpha                90
_cell_angle_beta                 114.691(2)
_cell_angle_gamma                90
_cell_volume                     3574.25
loop_
_atom_site_label
_atom_site_type_symbol
_atom_site_fract_x
_atom_site_fract_y
_atom_site_fract_z
Er1 Er 0.585021(9) 0.474138(8) 0.877917(8)
S1 S 0.51165(5) 0.75810(4) 1.00424(5)
O1 O 0.63543(15) 0.55482(14) 1.00565(13)
O2 O 0.51450(14) 0.57612(13) 1.05499(13)
O3 O 0.51315(16) 0.71582(15) 0.92275(13)
O4 O 0.42742(15) 0.73525(14) 1.02567(14)
O5 O 0.51679(17) 0.84019(13) 0.99459(15)
O6 O 0.43914(15) 0.43068(14) 0.75029(13)
O7 O 0.28220(17) 0.29403(14) 0.35548(14)
O8 O 0.64127(16) 0.37945(14) 0.80128(14)
O9 O 0.51826(17) 0.22949(16) 0.40637(14)
O10 O 0.7975(2) 0.52232(13) 0.74699(16)
O11 O 0.64050(15) 0.38076(14) 0.35758(13)
O12 O 0.46410(17) 0.57217(15) 0.83479(15)
H1 H 0.4457 0.6131 0.8599
H2 H 0.4357 0.5764 0.7802
O13 O 0.5885(2) 0.5384(2) 0.7434(2)
H3 H 0.6404 0.5078 0.7421
H4 H 0.6148 0.5769 0.7705
O14 O 0.7510(2) 0.5151(2) 0.9083(2)
H5 H 0.7726 0.4942 0.8681
H6 H 0.7884 0.5121 0.9620
O15 O 0.68845(15) 0.39169(14) 1.00238(14)
H7 H 0.6482 0.3587 1.0078
H8 H 0.7347 0.3989 1.0703
N1 N 0.29298(18) 0.41168(16) 0.61596(16)
N2 N 0.39515(18) 0.31325(16) 0.67788(16)
N3 N 0.34031(19) 0.26238(17) 0.51536(16)
N4 N 0.22556(19) 0.35410(17) 0.45790(16)
N5 N 0.56483(18) 0.27163(17) 0.71533(16)
N6 N 0.69824(19) 0.31889(16) 0.70015(16)
N7 N 0.65478(18) 0.25057(17) 0.54905(16)
N8 N 0.50962(18) 0.22139(17) 0.55188(16)
N9 N 0.8063(2) 0.41010(17) 0.67020(17)
N10 N 0.8294(2) 0.52043(16) 0.61207(17)
N11 N 0.7640(2) 0.46336(17) 0.45312(18)
N12 N 0.74825(18) 0.35037(16) 0.51273(16)
C1 C 0.5970(2) 0.58995(18) 1.05332(17)
C2 C 0.6581(2) 0.65484(18) 1.11550(18)
C3 C 0.6250(2) 0.73070(19) 1.10420(18)
C4 C 0.6816(2) 0.7877(2) 1.16611(19)
H9 H 0.6587 0.8381 1.1584
C5 C 0.7734(2) 0.7684(2) 1.2399(2)
H10 H 0.8110 0.8058 1.2830
C6 C 0.8093(2) 0.6942(2) 1.2497(2)
H11 H 0.8717 0.6821 1.2979
C7 C 0.7518(2) 0.6376(2) 1.18718(18)
H12 H 0.7763 0.5877 1.1935
C8 C 0.3823(2) 0.38888(19) 0.68737(18)
C9 C 0.2398(2) 0.34708(19) 0.55663(18)
H13 H 0.1765 0.3367 0.5616
C10 C 0.3141(2) 0.27968(19) 0.59465(18)
H14 H 0.2836 0.2355 0.6119
C11 C 0.2826(2) 0.30314(19) 0.43448(19)
C12 C 0.4806(2) 0.2705(2) 0.74140(19)
H15 H 0.4605 0.2177 0.7428
H16 H 0.5023 0.2912 0.8054
C13 C 0.4046(2) 0.19966(19) 0.5154(2)
H17 H 0.3830 0.1806 0.4506
H18 H 0.3975 0.1583 0.5542
C14 C 0.6350(2) 0.32857(19) 0.74447(18)
C15 C 0.5804(2) 0.21664(19) 0.65173(18)
H19 H 0.5863 0.1641 0.6762
C16 C 0.6805(2) 0.24497(19) 0.65054(18)
H20 H 0.7357 0.2088 0.6826
C17 C 0.5568(2) 0.23410(19) 0.4941(2)
C18 C 0.7957(2) 0.3563(2) 0.73732(18)
H21 H 0.8056 0.3833 0.7956
H22 H 0.8477 0.3175 0.7533
C19 C 0.7260(2) 0.2691(2) 0.5096(2)
H23 H 0.6994 0.2518 0.4437
H24 H 0.7880 0.2413 0.5449
C20 C 0.8088(2) 0.4881(2) 0.68236(19)
C21 C 0.8303(2) 0.3865(2) 0.59212(19)
H25 H 0.8917 0.3554 0.6144
C22 C 0.8437(2) 0.46412(19) 0.5497(2)
H26 H 0.9102 0.4685 0.5494
C23 C 0.7101(2) 0.3970(2) 0.43324(19)
C24 C 0.1467(2) 0.3994(2) 0.38786(19)
H27 H 0.1313 0.3785 0.3249
H28 H 0.0868 0.3947 0.3995
C25 C 0.2429(2) 0.48246(19) 0.61976(19)
H29 H 0.2791 0.5060 0.6819
H30 H 0.1757 0.4706 0.6133
Er1B Er 0.414979(9) 0.525862(8) 1.122083(8)
Er1B_2 Er 0.414979(9) 0.525862(8) 0.122083(8)
S1B S 0.48835(5) 0.24190(4) 0.99576(5)
O1B O 0.36457(15) 0.44518(14) 0.99435(13)
O2B O 0.48550(14) 0.42388(13) 0.94501(13)
O3B O 0.48685(16) 0.28418(15) 1.07725(13)
O4B O 0.57258(15) 0.26475(14) 0.97433(14)
O5B O 0.48321(17) 0.15981(13) 1.00541(15)
O6B O 0.56086(15) 0.56932(14) 0.24971(13)
O6B_2 O 0.56086(15) 0.56932(14) 1.24971(13)
O7B O 0.71780(17) 0.70597(14) 0.64452(14)
O8B O 0.35873(16) 0.62055(14) 0.19872(14)
O8B_2 O 0.35873(16) 0.62055(14) 1.19872(14)
O9B O 0.48174(17) 0.77051(16) 0.59363(14)
O10B O 0.2025(2) 0.47768(13) 0.25301(16)
O11B O 0.35950(15) 0.61924(14) 0.64242(13)
O12B O 0.53590(17) 0.42783(15) 1.16521(15)
H1B H 0.5543 0.3869 1.1401
H2B H 0.5643 0.4236 1.2198
O13B O 0.4115(2) 0.4616(2) 1.2566(2)
H3B H 0.3596 0.4922 1.2579
H4B H 0.3852 0.4231 1.2295
O14B O 0.2490(2) 0.4849(2) 1.0917(2)
H5B H 0.2274 0.5058 1.1319
H6B H 0.2116 0.4879 1.0380
O15B O 0.31155(15) 0.60831(14) 0.99762(14)
H7B H 0.3518 0.6413 0.9922
H8B H 0.2653 0.6011 0.9297
N1B N 0.70702(18) 0.58832(16) 0.38404(16)
N2B N 0.60485(18) 0.68675(16) 0.32212(16)
N3B N 0.65969(19) 0.73762(17) 0.48464(16)
N4B N 0.77444(19) 0.64590(17) 0.54210(16)
N5B N 0.43517(18) 0.72837(17) 0.28467(16)
N6B N 0.30176(19) 0.68111(16) 0.29985(16)
N7B N 0.34522(18) 0.74943(17) 0.45095(16)
N8B N 0.49038(18) 0.77861(17) 0.44812(16)
N9B N 0.1937(2) 0.58990(17) 0.32980(17)
N10B N 0.1706(2) 0.47957(16) 0.38793(17)
N11B N 0.2360(2) 0.53664(17) 0.54688(18)
N12B N 0.25175(18) 0.64963(16) 0.48727(16)
C1B C 0.4030(2) 0.41005(18) 0.94668(17)
C2B C 0.3419(2) 0.34516(18) 0.88450(18)
C3B C 0.3750(2) 0.26930(19) 0.89580(18)
C4B C 0.3184(2) 0.2123(2) 0.83389(19)
H9B H 0.3413 0.1619 0.8416
C5B C 0.2266(2) 0.2316(2) 0.7601(2)
H10B H 0.1890 0.1942 0.7170
C6B C 0.1907(2) 0.3058(2) 0.7503(2)
H11B H 0.1283 0.3179 0.7021
C7B C 0.2482(2) 0.3624(2) 0.81282(18)
H12B H 0.2237 0.4123 0.8065
C8B C 0.6177(2) 0.61112(19) 0.31263(18)
C9B C 0.7602(2) 0.65292(19) 0.44337(18)
H13B H 0.8235 0.6633 0.4384
C10B C 0.6859(2) 0.72032(19) 0.40535(18)
H14B H 0.7164 0.7645 0.3881
C11B C 0.7174(2) 0.69686(19) 0.56552(19)
C12B C 0.5194(2) 0.7295(2) 0.25860(19)
H15B H 0.5395 0.7823 0.2572
H16B H 0.4977 0.7088 0.1946
C13B C 0.5954(2) 0.80034(19) 0.4846(2)
H17B H 0.6170 0.8194 0.5494
H18B H 0.6025 0.8417 0.4458
C14B C 0.3650(2) 0.67143(19) 0.25553(18)
C15B C 0.4196(2) 0.78336(19) 0.34827(18)
H19B H 0.4137 0.8359 0.3238
C16B C 0.3195(2) 0.75503(19) 0.34946(18)
H20B H 0.2643 0.7912 0.3174
C17B C 0.4432(2) 0.76590(19) 0.5059(2)
C18B C 0.2043(2) 0.6437(2) 0.26268(18)
H21B H 0.1944 0.6167 0.2044
H22B H 0.1523 0.6825 0.2467
C19B C 0.2740(2) 0.7309(2) 0.4904(2)
H23B H 0.3006 0.7482 0.5563
H24B H 0.2120 0.7587 0.4551
C20B C 0.1912(2) 0.5119(2) 0.31764(19)
C21B C 0.1697(2) 0.6135(2) 0.40788(19)
H25B H 0.1083 0.6446 0.3856
C22B C 0.1563(2) 0.53588(19) 0.4503(2)
H26B H 0.0898 0.5315 0.4506
C23B C 0.2899(2) 0.6030(2) 0.56676(19)
C24B C 0.8533(2) 0.6006(2) 0.61214(19)
H27B H 0.8687 0.6215 0.6751
H28B H 0.9132 0.6053 0.6005
C25B C 0.7571(2) 0.51754(19) 0.38024(19)
H29B H 0.7209 0.4940 0.3181
H30B H 0.8243 0.5294 0.3867
O16 O 0.5617(3) 0.9214(3) 0.3093(2)
O17 O 0.5731(2) 0.9944(2) 0.2050(2)
O18 O 0.7065(2) 0.93988(18) 0.30656(18)
N13 N 0.6141(3) 0.9509(2) 0.2732(2)
O19 O 0.5740(2) 0.6978(2) 0.7694(2)
O20 O 0.5657(5) 0.0565(4) 0.4330(5)
O21 O 0.4720(7) 0.4651(6) 0.5604(5)
O22? O 0.5857(10) 0.6713(10) 0.7212(10)
O23? O 0.5057(9) 0.0891(8) 0.3131(12)
O24? O 0.5569(10) 0.0048(12) 0.4719(10)
loop_
_geom_bond_atom_site_label_1
_geom_bond_atom_site_label_2
_geom_bond_site_symmetry_1
_geom_bond_site_symmetry_2
Er1 O1 1_555 1_555
S1 O3 1_555 1_555
O1 C1 1_555 1_555
O2 C1 1_555 1_555
O4 S1 1_555 1_555
O5 S1 1_555 1_555
O6 Er1 1_555 1_555
O7 C11 1_555 1_555
O8 Er1 1_555 1_555
O9 C17 1_555 1_555
O10 C20 1_555 1_555
O11 C23 1_555 1_555
O12 Er1 1_555 1_555
H1 O12 1_555 1_555
H2 O12 1_555 1_555
O13 Er1 1_555 1_555
H3 O13 1_555 1_555
H4 O13 1_555 1_555
O14 Er1 1_555 1_555
H5 O14 1_555 1_555
H6 O14 1_555 1_555
O15 Er1 1_555 1_555
H7 O15 1_555 1_555
H8 O15 1_555 1_555
O16 N13 1_555 1_555
O17 N13 1_555 1_555
O18 N13 1_555 1_555
N1 C8 1_555 1_555
N2 C8 1_555 1_555
N3 C10 1_555 1_555
N4 C9 1_555 1_555
N5 C12 1_555 1_555
N6 C14 1_555 1_555
N7 C16 1_555 1_555
N8 C13 1_555 1_555
N9 C18 1_555 1_555
N10 C20 1_555 1_555
N11 C22 1_555 1_555
N12 C19 1_555 1_555
C1 C2 1_555 1_555
C2 C3 1_555 1_555
C3 S1 1_555 1_555
C4 C3 1_555 1_555
H9 C4 1_555 1_555
C5 C4 1_555 1_555
H10 C5 1_555 1_555
C6 C5 1_555 1_555
H11 C6 1_555 1_555
C7 C2 1_555 1_555
H12 C7 1_555 1_555
C8 O6 1_555 1_555
C9 N1 1_555 1_555
H13 C9 1_555 1_555
C10 N2 1_555 1_555
H14 C10 1_555 1_555
C11 N3 1_555 1_555
C12 N2 1_555 1_555
H15 C12 1_555 1_555
H16 C12 1_555 1_555
C13 N3 1_555 1_555
H17 C13 1_555 1_555
H18 C13 1_555 1_555
C14 O8 1_555 1_555
C15 N5 1_555 1_555
H19 C15 1_555 1_555
C16 N6 1_555 1_555
H20 C16 1_555 1_555
C17 N7 1_555 1_555
C18 N6 1_555 1_555
H21 C18 1_555 1_555
H22 C18 1_555 1_555
C19 N7 1_555 1_555
H23 C19 1_555 1_555
H24 C19 1_555 1_555
C20 N9 1_555 1_555
C21 N9 1_555 1_555
H25 C21 1_555 1_555
C22 N10 1_555 1_555
H26 C22 1_555 1_555
C23 N11 1_555 1_555
C24 N4 1_555 1_555
H27 C24 1_555 1_555
H28 C24 1_555 1_555
C25 N1 1_555 1_555
H29 C25 1_555 1_555
H30 C25 1_555 1_555
Er1B O2 1_555 1_555
Er1B_2 O6B 1_555 1_555
S1B O3B 1_555 1_555
O1B Er1B 1_555 1_555
O2B Er1 1_555 1_555
O4B S1B 1_555 1_555
O5B S1B 1_555 1_555
O6B C8B 1_555 1_555
O6B_2 Er1B 1_555 1_555
O7B C11B 1_555 1_555
O8B Er1B_2 1_555 1_555
O8B_2 Er1B 1_555 1_555
O9B C17B 1_555 1_555
O10B C20B 1_555 1_555
O11B C23B 1_555 1_555
O12B Er1B 1_555 1_555
H1B O12B 1_555 1_555
H2B O12B 1_555 1_555
O13B Er1B 1_555 1_555
H3B O13B 1_555 1_555
H4B O13B 1_555 1_555
O14B Er1B 1_555 1_555
H5B O14B 1_555 1_555
H6B O14B 1_555 1_555
O15B Er1B 1_555 1_555
H7B O15B 1_555 1_555
H8B O15B 1_555 1_555
N1B C8B 1_555 1_555
N2B C8B 1_555 1_555
N3B C10B 1_555 1_555
N4B C9B 1_555 1_555
N5B C12B 1_555 1_555
N6B C14B 1_555 1_555
N7B C16B 1_555 1_555
N8B C13B 1_555 1_555
N9B C18B 1_555 1_555
N10B C24 1_555 1_555
N11B C25 1_555 1_555
N12B C19B 1_555 1_555
C1B O1B 1_555 1_555
C2B C1B 1_555 1_555
C3B S1B 1_555 1_555
C4B C3B 1_555 1_555
H9B C4B 1_555 1_555
C5B C4B 1_555 1_555
H10B C5B 1_555 1_555
C6B C5B 1_555 1_555
H11B C6B 1_555 1_555
C7B C2B 1_555 1_555
H12B C7B 1_555 1_555
C9B N1B 1_555 1_555
H13B C9B 1_555 1_555
C10B N2B 1_555 1_555
H14B C10B 1_555 1_555
C11B N3B 1_555 1_555
C12B N2B 1_555 1_555
H15B C12B 1_555 1_555
H16B C12B 1_555 1_555
C13B N3B 1_555 1_555
H17B C13B 1_555 1_555
H18B C13B 1_555 1_555
C14B O8B 1_555 1_555
C15B N5B 1_555 1_555
H19B C15B 1_555 1_555
C16B N6B 1_555 1_555
H20B C16B 1_555 1_555
C17B N7B 1_555 1_555
C18B N6B 1_555 1_555
H21B C18B 1_555 1_555
H22B C18B 1_555 1_555
C19B N7B 1_555 1_555
H23B C19B 1_555 1_555
H24B C19B 1_555 1_555
C20B N9B 1_555 1_555
C21B N9B 1_555 1_555
H25B C21B 1_555 1_555
C22B N10B 1_555 1_555
H26B C22B 1_555 1_555
C23B N11B 1_555 1_555
C24B N10 1_555 1_555
H27B C24B 1_555 1_555
H28B C24B 1_555 1_555
C25B N11 1_555 1_555
H29B C25B 1_555 1_555
H30B C25B 1_555 1_555
N4 C11 1_555 1_555
N5 C14 1_555 1_555
N8 C15 1_555 1_555
N8 C17 1_555 1_555
N12 C21 1_555 1_555
N12 C23 1_555 1_555
C6 C7 1_555 1_555
C9 C10 1_555 1_555
C15 C16 1_555 1_555
C21 C22 1_555 1_555
O2B C1B 1_555 1_555
N1B C25B 1_555 1_555
N4B C11B 1_555 1_555
N4B C24B 1_555 1_555
N5B C14B 1_555 1_555
N8B C15B 1_555 1_555
N8B C17B 1_555 1_555
N10B C20B 1_555 1_555
N11B C22B 1_555 1_555
N12B C21B 1_555 1_555
N12B C23B 1_555 1_555
C2B C3B 1_555 1_555
C6B C7B 1_555 1_555
C9B C10B 1_555 1_555
C15B C16B 1_555 1_555
C21B C22B 1_555 1_555

#END
