
#######################################################################
#
#                 Cambridge Crystallographic Data Centre
#                                CCDC 
#
#######################################################################
#
# If this CIF has been generated from an entry in the Cambridge 
# Structural Database, then it will include bibliographic, chemical, 
# crystal, experimental, refinement or atomic coordinate data resulting 
# from the CCDC's data processing and validation procedures.
#
#######################################################################

data_HASNUM
_symmetry_cell_setting           monoclinic
_symmetry_space_group_name_H-M   'P 21/n'
_symmetry_Int_Tables_number      14
_space_group_name_Hall           '-P 2yn'
loop_
_symmetry_equiv_pos_site_id
_symmetry_equiv_pos_as_xyz
1 x,y,z
2 1/2-x,1/2+y,1/2-z
3 -x,-y,-z
4 1/2+x,1/2-y,1/2+z
_cell_length_a                   14.6399(2)
_cell_length_b                   17.4055(2)
_cell_length_c                   15.4042(2)
_cell_angle_alpha                90
_cell_angle_beta                 114.660(2)
_cell_angle_gamma                90
_cell_volume                     3567.24
loop_
_atom_site_label
_atom_site_type_symbol
_atom_site_fract_x
_atom_site_fract_y
_atom_site_fract_z
Yb1 Yb 0.583537(7) 0.474067(5) 0.877244(6)
S1 S 0.51245(4) 0.75790(3) 1.00345(4)
O1 O 0.63447(12) 0.55419(10) 1.00431(11)
O2 O 0.51428(12) 0.57500(9) 1.05515(11)
O3 O 0.51493(13) 0.71635(10) 0.92194(11)
O4 O 0.42808(12) 0.73444(10) 1.02463(12)
O5 O 0.51728(13) 0.84050(10) 0.99456(13)
O6 O 0.43865(12) 0.43099(10) 0.75165(11)
O7 O 0.28159(14) 0.29378(11) 0.35708(12)
O8 O 0.63995(13) 0.37933(10) 0.80239(12)
O9 O 0.51686(14) 0.22861(12) 0.40744(12)
O10 O 0.79755(16) 0.52259(10) 0.74682(13)
O11 O 0.63851(13) 0.37992(10) 0.35807(12)
O12 O 0.46615(14) 0.57304(11) 0.83362(12)
H1 H 0.4756 0.6095 0.8647
H2 H 0.4409 0.5817 0.7725
O13 O 0.5863(2) 0.53323(16) 0.74069(18)
H3 H 0.6435 0.5171 0.7373
H4 H 0.5778 0.5807 0.7317
O14 O 0.74574(19) 0.51666(14) 0.90517(19)
H5 H 0.7692 0.5183 0.8698
H6 H 0.8057 0.5297 0.9598
O15 O 0.68730(12) 0.39283(10) 1.00063(12)
H7 H 0.6503 0.3513 0.9998
H8 H 0.7072 0.4183 1.0519
N1 N 0.29263(14) 0.41165(11) 0.61707(13)
N2 N 0.39396(14) 0.31255(11) 0.67894(13)
N3 N 0.33887(15) 0.26177(12) 0.51704(14)
N4 N 0.22544(15) 0.35453(12) 0.45882(13)
N5 N 0.56419(15) 0.27119(12) 0.71658(13)
N6 N 0.69677(15) 0.31878(11) 0.70110(13)
N7 N 0.65389(15) 0.25022(12) 0.54983(13)
N8 N 0.50844(15) 0.22050(12) 0.55324(14)
N9 N 0.80442(17) 0.41007(12) 0.67000(14)
N10 N 0.82992(16) 0.52021(11) 0.61215(14)
N11 N 0.76286(16) 0.46305(12) 0.45370(14)
N12 N 0.74819(15) 0.34986(12) 0.51291(13)
C1 C 0.59684(16) 0.58929(12) 1.05306(14)
C2 C 0.65855(16) 0.65390(13) 1.11451(15)
C3 C 0.62521(16) 0.73041(13) 1.10285(15)
C4 C 0.68268(18) 0.78709(14) 1.16504(16)
H9 H 0.6600 0.8376 1.1572
C5 C 0.77464(18) 0.76796(15) 1.23933(16)
H10 H 0.8122 0.8055 1.2823
C6 C 0.81019(18) 0.69338(15) 1.24934(16)
H11 H 0.8725 0.6812 1.2976
C7 C 0.75219(17) 0.63648(14) 1.18674(15)
H12 H 0.7764 0.5864 1.1934
C8 C 0.38114(16) 0.38884(13) 0.68832(15)
C9 C 0.23864(17) 0.34752(13) 0.55676(15)
H13 H 0.1749 0.3373 0.5613
C10 C 0.31318(17) 0.27966(13) 0.59555(15)
H14 H 0.2822 0.2357 0.6126
C11 C 0.28254(17) 0.30284(13) 0.43618(16)
C12 C 0.48034(18) 0.26983(14) 0.74333(16)
H15 H 0.4606 0.2169 0.7453
H16 H 0.5021 0.2909 0.8071
C13 C 0.40294(18) 0.19886(13) 0.51657(17)
H17 H 0.3812 0.1801 0.4517
H18 H 0.3956 0.1572 0.5551
C14 C 0.63368(17) 0.32822(14) 0.74505(15)
C15 C 0.57960(17) 0.21658(13) 0.65307(15)
H19 H 0.5860 0.1641 0.6779
C16 C 0.67913(18) 0.24487(13) 0.65112(15)
H20 H 0.7344 0.2087 0.6832
C17 C 0.55536(18) 0.23359(14) 0.49476(16)
C18 C 0.79393(18) 0.35703(14) 0.73733(15)
H21 H 0.8035 0.3847 0.7951
H22 H 0.8463 0.3185 0.7541
C19 C 0.72468(18) 0.26826(14) 0.51022(16)
H23 H 0.6976 0.2509 0.4444
H24 H 0.7864 0.2401 0.5453
C20 C 0.80865(18) 0.48816(14) 0.68259(17)
C21 C 0.82953(17) 0.38597(14) 0.59205(15)
H25 H 0.8910 0.3549 0.6149
C22 C 0.84301(18) 0.46388(13) 0.54946(16)
H26 H 0.9093 0.4679 0.5485
C23 C 0.70879(17) 0.39603(14) 0.43376(16)
C24 C 0.14601(17) 0.39923(14) 0.38824(16)
H27 H 0.1308 0.3779 0.3255
H28 H 0.0861 0.3946 0.4000
C25 C 0.24281(19) 0.48332(13) 0.61978(16)
H29 H 0.2788 0.5073 0.6817
H30 H 0.1753 0.4720 0.6129
Yb1B Yb 0.416463(7) 0.525933(5) 1.122756(6)
Yb1B_2 Yb 0.416463(7) 0.525933(5) 0.122756(6)
S1B S 0.48755(4) 0.24210(3) 0.99655(4)
O1B O 0.36553(12) 0.44581(10) 0.99569(11)
O2B O 0.48572(12) 0.42500(9) 0.94485(11)
O3B O 0.48507(13) 0.28365(10) 1.07806(11)
O4B O 0.57192(12) 0.26556(10) 0.97537(12)
O5B O 0.48272(13) 0.15950(10) 1.00544(13)
O6B O 0.56135(12) 0.56901(10) 0.24835(11)
O6B_2 O 0.56135(12) 0.56901(10) 1.24835(11)
O7B O 0.71841(14) 0.70622(11) 0.64292(12)
O8B O 0.36005(13) 0.62067(10) 0.19761(12)
O8B_2 O 0.36005(13) 0.62067(10) 1.19761(12)
O9B O 0.48314(14) 0.77139(12) 0.59256(12)
O10B O 0.20245(16) 0.47741(10) 0.25318(13)
O11B O 0.36149(13) 0.62008(10) 0.64193(12)
O12B O 0.53385(14) 0.42696(11) 1.16638(12)
H1B H 0.5244 0.3905 1.1353
H2B H 0.5591 0.4183 1.2275
O13B O 0.4137(2) 0.46677(16) 1.25931(18)
H3B H 0.3565 0.4829 1.2627
H4B H 0.4222 0.4193 1.2683
O14B O 0.25426(19) 0.48334(14) 1.09483(19)
H5B H 0.2308 0.4817 1.1302
H6B H 0.1943 0.4703 1.0402
O15B O 0.31270(12) 0.60717(10) 0.99937(12)
H7B H 0.3497 0.6487 1.0002
H8B H 0.2928 0.5817 0.9481
N1B N 0.70737(14) 0.58835(11) 0.38293(13)
N2B N 0.60604(14) 0.68745(11) 0.32106(13)
N3B N 0.66113(15) 0.73823(12) 0.48296(14)
N4B N 0.77456(15) 0.64547(12) 0.54118(13)
N5B N 0.43581(15) 0.72881(12) 0.28342(13)
N6B N 0.30323(15) 0.68122(11) 0.29890(13)
N7B N 0.34611(15) 0.74978(12) 0.45017(13)
N8B N 0.49156(15) 0.77950(12) 0.44676(14)
N9B N 0.19558(17) 0.58993(12) 0.33000(14)
N10B N 0.17008(16) 0.47979(11) 0.38785(14)
N11B N 0.23714(16) 0.53695(12) 0.54630(14)
N12B N 0.25181(15) 0.65014(12) 0.48709(13)
C1B C 0.40316(16) 0.41071(12) 0.94694(14)
C2B C 0.34145(16) 0.34610(13) 0.88549(15)
C3B C 0.37479(16) 0.26959(13) 0.89715(15)
C4B C 0.31732(18) 0.21291(14) 0.83496(16)
H9B H 0.3400 0.1624 0.8428
C5B C 0.22536(18) 0.23204(15) 0.76067(16)
H10B H 0.1878 0.1945 0.7177
C6B C 0.18981(18) 0.30662(15) 0.75066(16)
H11B H 0.1275 0.3188 0.7024
C7B C 0.24781(17) 0.36352(14) 0.81326(15)
H12B H 0.2236 0.4136 0.8066
C8B C 0.61886(16) 0.61116(13) 0.31168(15)
C9B C 0.76136(17) 0.65248(13) 0.44324(15)
H13B H 0.8251 0.6627 0.4387
C10B C 0.68682(17) 0.72034(13) 0.40445(15)
H14B H 0.7178 0.7643 0.3874
C11B C 0.71746(17) 0.69716(13) 0.56382(16)
C12B C 0.51966(18) 0.73017(14) 0.25667(16)
H15B H 0.5394 0.7831 0.2547
H16B H 0.4979 0.7091 0.1929
C13B C 0.59706(18) 0.80114(13) 0.48343(17)
H17B H 0.6188 0.8199 0.5483
H18B H 0.6044 0.8428 0.4449
C14B C 0.36632(17) 0.67178(14) 0.25495(15)
C15B C 0.42040(17) 0.78342(13) 0.34693(15)
H19B H 0.4140 0.8359 0.3221
C16B C 0.32087(18) 0.75513(13) 0.34888(15)
H20B H 0.2656 0.7913 0.3168
C17B C 0.44464(18) 0.76641(14) 0.50524(16)
C18B C 0.20607(18) 0.64297(14) 0.26267(15)
H21B H 0.1965 0.6153 0.2049
H22B H 0.1537 0.6815 0.2459
C19B C 0.27532(18) 0.73174(14) 0.48978(16)
H23B H 0.3024 0.7491 0.5556
H24B H 0.2136 0.7599 0.4547
C20B C 0.19135(18) 0.51184(14) 0.31741(17)
C21B C 0.17047(17) 0.61403(14) 0.40795(15)
H25B H 0.1090 0.6451 0.3851
C22B C 0.15699(18) 0.53612(13) 0.45054(16)
H26B H 0.0907 0.5321 0.4515
C23B C 0.29121(17) 0.60397(14) 0.56624(16)
C24B C 0.85399(17) 0.60077(14) 0.61176(16)
H27B H 0.8692 0.6221 0.6745
H28B H 0.9139 0.6054 0.6000
C25B C 0.75719(19) 0.51668(13) 0.38022(16)
H29B H 0.7212 0.4927 0.3183
H30B H 0.8247 0.5280 0.3871
O16 O 0.5605(2) 0.9226(2) 0.3094(2)
O17 O 0.57376(18) 0.99423(18) 0.20343(19)
O18 O 0.70670(17) 0.93933(13) 0.30652(15)
N13 N 0.6138(2) 0.95087(15) 0.27224(17)
O19 O 0.5757(2) 0.69525(18) 0.7674(2)
O21 O 0.5035(6) 0.0887(5) 0.3133(8)
O22 O 0.5605(8) 0.0070(12) 0.4737(9)
O23 O 0.4692(4) 0.4640(3) 0.5613(3)
O20? O 0.5674(4) 0.0554(4) 0.4354(4)
O24? O 0.5884(5) 0.6687(4) 0.7192(5)
loop_
_geom_bond_atom_site_label_1
_geom_bond_atom_site_label_2
_geom_bond_site_symmetry_1
_geom_bond_site_symmetry_2
Yb1 O1 1_555 1_555
S1 O3 1_555 1_555
O1 C1 1_555 1_555
O2 C1 1_555 1_555
O4 S1 1_555 1_555
O5 S1 1_555 1_555
O6 Yb1 1_555 1_555
O7 C11 1_555 1_555
O8 Yb1 1_555 1_555
O9 C17 1_555 1_555
O10 C20 1_555 1_555
O11 C23 1_555 1_555
O12 Yb1 1_555 1_555
H1 O12 1_555 1_555
H2 O12 1_555 1_555
O13 Yb1 1_555 1_555
H3 O13 1_555 1_555
H4 O13 1_555 1_555
O14 Yb1 1_555 1_555
H5 O14 1_555 1_555
H6 O14 1_555 1_555
O15 Yb1 1_555 1_555
H7 O15 1_555 1_555
H8 O15 1_555 1_555
O16 N13 1_555 1_555
O17 N13 1_555 1_555
O18 N13 1_555 1_555
N1 C8 1_555 1_555
N2 C8 1_555 1_555
N3 C10 1_555 1_555
N4 C9 1_555 1_555
N5 C12 1_555 1_555
N6 C14 1_555 1_555
N7 C16 1_555 1_555
N8 C13 1_555 1_555
N9 C18 1_555 1_555
N10 C20 1_555 1_555
N11 C22 1_555 1_555
N12 C19 1_555 1_555
C1 C2 1_555 1_555
C2 C3 1_555 1_555
C3 S1 1_555 1_555
C4 C3 1_555 1_555
H9 C4 1_555 1_555
C5 C4 1_555 1_555
H10 C5 1_555 1_555
C6 C5 1_555 1_555
H11 C6 1_555 1_555
C7 C2 1_555 1_555
H12 C7 1_555 1_555
C8 O6 1_555 1_555
C9 N1 1_555 1_555
H13 C9 1_555 1_555
C10 N2 1_555 1_555
H14 C10 1_555 1_555
C11 N3 1_555 1_555
C12 N2 1_555 1_555
H15 C12 1_555 1_555
H16 C12 1_555 1_555
C13 N3 1_555 1_555
H17 C13 1_555 1_555
H18 C13 1_555 1_555
C14 O8 1_555 1_555
C15 N5 1_555 1_555
H19 C15 1_555 1_555
C16 N6 1_555 1_555
H20 C16 1_555 1_555
C17 N7 1_555 1_555
C18 N6 1_555 1_555
H21 C18 1_555 1_555
H22 C18 1_555 1_555
C19 N7 1_555 1_555
H23 C19 1_555 1_555
H24 C19 1_555 1_555
C20 N9 1_555 1_555
C21 N9 1_555 1_555
H25 C21 1_555 1_555
C22 N10 1_555 1_555
H26 C22 1_555 1_555
C23 N11 1_555 1_555
C24 N4 1_555 1_555
H27 C24 1_555 1_555
H28 C24 1_555 1_555
C25 N1 1_555 1_555
H29 C25 1_555 1_555
H30 C25 1_555 1_555
Yb1B O2 1_555 1_555
Yb1B_2 O6B 1_555 1_555
S1B O3B 1_555 1_555
O1B Yb1B 1_555 1_555
O2B Yb1 1_555 1_555
O4B S1B 1_555 1_555
O5B S1B 1_555 1_555
O6B C8B 1_555 1_555
O6B_2 Yb1B 1_555 1_555
O7B C11B 1_555 1_555
O8B Yb1B_2 1_555 1_555
O8B_2 Yb1B 1_555 1_555
O9B C17B 1_555 1_555
O10B C20B 1_555 1_555
O11B C23B 1_555 1_555
O12B Yb1B 1_555 1_555
H1B O12B 1_555 1_555
H2B O12B 1_555 1_555
O13B Yb1B 1_555 1_555
H3B O13B 1_555 1_555
H4B O13B 1_555 1_555
O14B Yb1B 1_555 1_555
H5B O14B 1_555 1_555
H6B O14B 1_555 1_555
O15B Yb1B 1_555 1_555
H7B O15B 1_555 1_555
H8B O15B 1_555 1_555
N1B C8B 1_555 1_555
N2B C8B 1_555 1_555
N3B C10B 1_555 1_555
N4B C9B 1_555 1_555
N5B C12B 1_555 1_555
N6B C14B 1_555 1_555
N7B C16B 1_555 1_555
N8B C13B 1_555 1_555
N9B C18B 1_555 1_555
N10B C24 1_555 1_555
N11B C25 1_555 1_555
N12B C19B 1_555 1_555
C1B O1B 1_555 1_555
C2B C1B 1_555 1_555
C3B S1B 1_555 1_555
C4B C3B 1_555 1_555
H9B C4B 1_555 1_555
C5B C4B 1_555 1_555
H10B C5B 1_555 1_555
C6B C5B 1_555 1_555
H11B C6B 1_555 1_555
C7B C2B 1_555 1_555
H12B C7B 1_555 1_555
C9B N1B 1_555 1_555
H13B C9B 1_555 1_555
C10B N2B 1_555 1_555
H14B C10B 1_555 1_555
C11B N3B 1_555 1_555
C12B N2B 1_555 1_555
H15B C12B 1_555 1_555
H16B C12B 1_555 1_555
C13B N3B 1_555 1_555
H17B C13B 1_555 1_555
H18B C13B 1_555 1_555
C14B O8B 1_555 1_555
C15B N5B 1_555 1_555
H19B C15B 1_555 1_555
C16B N6B 1_555 1_555
H20B C16B 1_555 1_555
C17B N7B 1_555 1_555
C18B N6B 1_555 1_555
H21B C18B 1_555 1_555
H22B C18B 1_555 1_555
C19B N7B 1_555 1_555
H23B C19B 1_555 1_555
H24B C19B 1_555 1_555
C20B N9B 1_555 1_555
C21B N9B 1_555 1_555
H25B C21B 1_555 1_555
C22B N10B 1_555 1_555
H26B C22B 1_555 1_555
C23B N11B 1_555 1_555
C24B N10 1_555 1_555
H27B C24B 1_555 1_555
H28B C24B 1_555 1_555
C25B N11 1_555 1_555
H29B C25B 1_555 1_555
H30B C25B 1_555 1_555
N4 C11 1_555 1_555
N5 C14 1_555 1_555
N8 C15 1_555 1_555
N8 C17 1_555 1_555
N12 C21 1_555 1_555
N12 C23 1_555 1_555
C6 C7 1_555 1_555
C9 C10 1_555 1_555
C15 C16 1_555 1_555
C21 C22 1_555 1_555
O2B C1B 1_555 1_555
N1B C25B 1_555 1_555
N4B C11B 1_555 1_555
N4B C24B 1_555 1_555
N5B C14B 1_555 1_555
N8B C15B 1_555 1_555
N8B C17B 1_555 1_555
N10B C20B 1_555 1_555
N11B C22B 1_555 1_555
N12B C21B 1_555 1_555
N12B C23B 1_555 1_555
C2B C3B 1_555 1_555
C6B C7B 1_555 1_555
C9B C10B 1_555 1_555
C15B C16B 1_555 1_555
C21B C22B 1_555 1_555

#END
