
#######################################################################
#
#                 Cambridge Crystallographic Data Centre
#                                CCDC 
#
#######################################################################
#
# If this CIF has been generated from an entry in the Cambridge 
# Structural Database, then it will include bibliographic, chemical, 
# crystal, experimental, refinement or atomic coordinate data resulting 
# from the CCDC's data processing and validation procedures.
#
#######################################################################

data_HASPEY
_symmetry_cell_setting           monoclinic
_symmetry_space_group_name_H-M   'P 21/n'
_symmetry_Int_Tables_number      14
_space_group_name_Hall           '-P 2yn'
loop_
_symmetry_equiv_pos_site_id
_symmetry_equiv_pos_as_xyz
1 x,y,z
2 1/2-x,1/2+y,1/2-z
3 -x,-y,-z
4 1/2+x,1/2-y,1/2+z
_cell_length_a                   15.1723(4)
_cell_length_b                   17.3255(5)
_cell_length_c                   15.1843(3)
_cell_angle_alpha                90
_cell_angle_beta                 112.784(2)
_cell_angle_gamma                90
_cell_volume                     3680.01
loop_
_atom_site_label
_atom_site_type_symbol
_atom_site_fract_x
_atom_site_fract_y
_atom_site_fract_z
Er1 Er 0.632438(8) 0.480737(7) 0.930435(8)
S1 S 0.50136(5) 0.76073(4) 1.00316(4)
O1 O 0.50539(14) 0.56486(12) 0.87546(13)
O2 O 0.44407(14) 0.57723(11) 0.98612(12)
O3 O 0.58306(14) 0.71755(12) 0.99993(14)
O4 O 0.47380(14) 0.73364(12) 1.07989(13)
O5 O 0.51410(16) 0.84374(11) 1.00468(14)
O6 O 0.75502(14) 0.43269(11) 1.06638(12)
O7 O 1.14585(14) 0.28619(13) 1.20360(15)
O8 O 0.70948(14) 0.39295(12) 0.86559(13)
O9 O 1.09469(14) 0.24954(13) 0.96407(14)
O10 O 0.75535(15) 0.53482(13) 0.70984(15)
O11 O 1.14283(14) 0.39299(12) 0.84425(13)
O12 O 0.66402(16) 0.57233(12) 1.05375(14)
H1 H 0.6340 0.6157 1.0452
H2 H 0.7206 0.5770 1.0838
O13 O 0.7732(2) 0.55199(17) 0.9442(2)
H3 H 0.7533 0.5891 0.8915
H4 H 0.8164 0.5245 0.9223
O14 O 0.6171(2) 0.53451(18) 0.78206(19)
H5 H 0.5673 0.5614 0.7631
H6 H 0.6564 0.5469 0.7588
O15 O 0.51137(14) 0.40218(12) 0.82035(13)
H7 H 0.5107 0.3678 0.8536
H8 H 0.4597 0.4168 0.7818
N1 N 0.88253(16) 0.40109(14) 1.20395(14)
N2 N 0.82410(16) 0.31211(13) 1.09169(14)
N3 N 0.98457(16) 0.25780(14) 1.14072(15)
N4 N 1.03976(16) 0.34138(14) 1.26033(15)
N5 N 0.78423(16) 0.27784(14) 0.92537(15)
N6 N 0.80253(16) 0.32947(13) 0.79975(15)
N7 N 0.95230(16) 0.26010(14) 0.83322(15)
N8 N 0.94833(16) 0.23031(15) 0.97386(15)
N9 N 0.83033(16) 0.42233(13) 0.69378(15)
N10 N 0.89053(17) 0.53489(14) 0.67520(16)
N11 N 1.04859(17) 0.47633(13) 0.72650(17)
N12 N 0.98792(16) 0.36343(14) 0.74367(15)
C1 C 0.45258(18) 0.59666(16) 0.91028(17)
C2 C 0.39259(18) 0.66421(16) 0.85587(17)
C3 C 0.40456(19) 0.73897(16) 0.89325(18)
C4 C 0.3438(2) 0.79791(17) 0.8434(2)
H11 H 0.3519 0.8475 0.8687
C5 C 0.2705(2) 0.78256(19) 0.7554(2)
H12 H 0.2283 0.8216 0.7229
C6 C 0.2603(2) 0.70920(19) 0.71623(19)
H13 H 0.2129 0.6997 0.6564
C7 C 0.32059(19) 0.64998(17) 0.76575(17)
H14 H 0.3133 0.6008 0.7392
C8 C 0.81483(18) 0.38650(16) 1.11519(17)
C9 C 0.93996(19) 0.33319(16) 1.24489(18)
H15 H 0.9322 0.3162 1.3030
C10 C 0.90285(18) 0.27176(16) 1.16461(17)
H16 H 0.8815 0.2247 1.1863
C11 C 1.0661(2) 0.29492(17) 1.20191(18)
C12 C 0.75690(19) 0.27487(17) 1.00665(17)
H17 H 0.7502 0.2212 1.0214
H18 H 0.6949 0.2993 0.9893
C13 C 0.9853(2) 0.20151(16) 1.07121(18)
H19 H 0.9475 0.1574 1.0746
H20 H 1.0504 0.1839 1.0875
C14 C 0.76107(19) 0.33885(17) 0.86409(17)
C15 C 0.84924(18) 0.22419(16) 0.90798(17)
H21 H 0.8259 0.1709 0.9022
C16 C 0.85152(19) 0.25449(15) 0.81267(19)
H22 H 0.8190 0.2193 0.7594
C17 C 1.0078(2) 0.24782(16) 0.92818(19)
C18 C 0.76463(19) 0.36808(16) 0.70723(17)
H23 H 0.7481 0.3294 0.6572
H24 H 0.7064 0.3951 0.7007
C19 C 0.9924(2) 0.28153(17) 0.76483(19)
H25 H 0.9588 0.2537 0.7059
H26 H 1.0588 0.2653 0.7890
C20 C 0.8190(2) 0.50075(18) 0.69516(19)
C21 C 0.90909(19) 0.40058(17) 0.66725(18)
H27 H 0.8874 0.3702 0.6082
C22 C 0.9513(2) 0.47973(15) 0.65496(19)
H28 H 0.9501 0.4862 0.5904
C23 C 1.0670(2) 0.40983(17) 0.77858(18)
C24 C 1.10772(19) 0.38271(16) 1.34084(18)
H29 H 1.0921 0.3741 1.3963
H30 H 1.1711 0.3618 1.3550
C25 C 0.8789(2) 0.46668(17) 1.2616(2)
H31 H 0.8853 0.4483 1.3242
H32 H 0.8167 0.4910 1.2323
Er1B Er 0.367562(8) 0.519263(7) 1.069565(8)
Er1B_2 Er 1.367562(8) 0.519263(7) 1.069565(8)
S1B S 0.49864(5) 0.23927(4) 0.99684(4)
O1B O 0.49461(14) 0.43514(12) 1.12454(13)
O2B O 0.55593(14) 0.42277(11) 1.01388(12)
O3B O 0.41694(14) 0.28245(12) 1.00007(14)
O4B O 0.52620(14) 0.26636(12) 0.92011(13)
O5B O 0.48590(16) 0.15626(11) 0.99532(14)
O6B O 1.24498(14) 0.56731(11) 0.93362(12)
O6B_2 O 0.24498(14) 0.56731(11) 0.93362(12)
O7B O 0.85415(14) 0.71381(13) 0.79640(15)
O8B O 1.29052(14) 0.60705(12) 1.13441(13)
O8B_2 O 0.29052(14) 0.60705(12) 1.13441(13)
O9B O 0.90531(14) 0.75046(13) 1.03593(14)
O10B O 1.24465(15) 0.46518(13) 1.29016(15)
O11B O 0.85717(14) 0.60701(12) 1.15575(13)
O12B O 0.33598(16) 0.42767(12) 0.94625(14)
H1B H 0.3660 0.3843 0.9548
H2B H 0.2794 0.4230 0.9162
O13B O 0.2268(2) 0.44801(17) 1.0558(2)
H3B H 0.2467 0.4109 1.1085
H4B H 0.1836 0.4755 1.0777
O14B O 0.3829(2) 0.46549(18) 1.21794(19)
H5B H 0.4327 0.4386 1.2369
H6B H 0.3436 0.4531 1.2412
O15B O 0.48863(14) 0.59782(12) 1.17965(13)
H7B H 0.4893 0.6322 1.1464
H8B H 0.5403 0.5832 1.2182
N1B N 1.11747(16) 0.59891(14) 0.79605(14)
N2B N 1.17590(16) 0.68789(13) 0.90831(14)
N3B N 1.01543(16) 0.74220(14) 0.85928(15)
N4B N 0.96024(16) 0.65862(14) 0.73967(15)
N5B N 1.21577(16) 0.72216(14) 1.07463(15)
N6B N 1.19747(16) 0.67053(13) 1.20025(15)
N7B N 1.04770(16) 0.73990(14) 1.16678(15)
N8B N 1.05167(16) 0.76969(15) 1.02614(15)
N9B N 1.16967(16) 0.57767(13) 1.30622(15)
N10B N 1.10947(17) 0.46511(14) 1.32480(16)
N11B N 0.95141(17) 0.52367(13) 1.27350(17)
N12B N 1.01208(16) 0.63657(14) 1.25633(15)
C1B C 0.54742(18) 0.40334(16) 1.08972(17)
C2B C 0.60741(18) 0.33579(16) 1.14413(17)
C3B C 0.59544(19) 0.26103(16) 1.10675(18)
C4B C 0.6562(2) 0.20209(17) 1.1566(2)
H11B H 0.6481 0.1525 1.1313
C5B C 0.7295(2) 0.21744(19) 1.2446(2)
H12B H 0.7717 0.1784 1.2771
C6B C 0.7397(2) 0.29080(19) 1.28377(19)
H13B H 0.7871 0.3003 1.3436
C7B C 0.67941(19) 0.35002(17) 1.23425(17)
H14B H 0.6867 0.3992 1.2608
C8B C 1.18517(18) 0.61350(16) 0.88481(17)
C9B C 1.06004(19) 0.66681(16) 0.75511(18)
H15B H 1.0678 0.6838 0.6970
C10B C 1.09715(18) 0.72824(16) 0.83539(17)
H16B H 1.1185 0.7753 0.8137
C11B C 0.9339(2) 0.70508(17) 0.79809(18)
C12B C 1.24310(19) 0.72513(17) 0.99335(17)
H17B H 1.2498 0.7788 0.9786
H18B H 1.3051 0.7007 1.0107
C13B C 1.0147(2) 0.79849(16) 0.92879(18)
H19B H 1.0525 0.8426 0.9254
H20B H 0.9496 0.8161 0.9125
C14B C 1.23893(19) 0.66115(17) 1.13591(17)
C15B C 1.15076(18) 0.77581(16) 1.09202(17)
H21B H 1.1741 0.8291 1.0978
C16B C 1.14848(19) 0.74551(15) 1.18733(19)
H22B H 1.1810 0.7807 1.2406
C17B C 0.9922(2) 0.75218(16) 1.07182(19)
C18B C 1.23537(19) 0.63192(16) 1.29277(17)
H23B H 1.2519 0.6706 1.3428
H24B H 1.2936 0.6049 1.2993
C19B C 1.0076(2) 0.71847(17) 1.23517(19)
H25B H 1.0412 0.7463 1.2941
H26B H 0.9412 0.7347 1.2110
C20B C 1.1810(2) 0.49925(18) 1.30484(19)
C21B C 1.09091(19) 0.59942(17) 1.33275(18)
H27B H 1.1126 0.6298 1.3918
C22B C 1.0487(2) 0.52027(15) 1.34504(19)
H28B H 1.0499 0.5138 1.4096
C23B C 0.9330(2) 0.59017(17) 1.22142(18)
C24B C 0.89228(19) 0.61729(16) 0.65916(18)
H29B H 0.9079 0.6259 0.6037
H30B H 0.8289 0.6382 0.6450
C25B C 1.1211(2) 0.53332(17) 0.7384(2)
H31B H 1.1147 0.5517 0.6758
H32B H 1.1833 0.5090 0.7677
S2 S 0.20459(6) 0.97555(4) 0.91017(5)
O16 O 0.21610(18) 0.90998(14) 0.97216(16)
O17 O 0.16505(18) 0.95849(16) 0.80911(15)
O18 O 0.28389(19) 1.02808(15) 0.93873(18)
F1 F 0.13735(19) 1.05807(15) 1.01568(14)
F2 F 0.08076(15) 1.09047(11) 0.86794(13)
F3 F 0.03328(18) 0.98693(13) 0.9131(2)
C26 C 0.1102(3) 1.0308(2) 0.9279(2)
O19 O 0.72315(16) 0.70656(13) 0.92035(15)
H9 H 0.6842 0.7193 0.9536
H10 H 0.7753 0.7255 0.9595
O20 O 0.9370(9) 0.5097(8) 0.9084(8)
loop_
_geom_bond_atom_site_label_1
_geom_bond_atom_site_label_2
_geom_bond_site_symmetry_1
_geom_bond_site_symmetry_2
Er1 O1 1_555 1_555
S1 O3 1_555 1_555
S2 O16 1_555 1_555
O1 C1 1_555 1_555
O2 C1 1_555 1_555
O4 S1 1_555 1_555
O5 S1 1_555 1_555
O6 Er1 1_555 1_555
O7 C11 1_555 1_555
O8 Er1 1_555 1_555
O9 C17 1_555 1_555
O10 C20 1_555 1_555
O11 C23 1_555 1_555
O12 Er1 1_555 1_555
H1 O12 1_555 1_555
H2 O12 1_555 1_555
O13 Er1 1_555 1_555
H3 O13 1_555 1_555
H4 O13 1_555 1_555
O14 Er1 1_555 1_555
H5 O14 1_555 1_555
H6 O14 1_555 1_555
O15 Er1 1_555 1_555
H7 O15 1_555 1_555
H8 O15 1_555 1_555
O17 S2 1_555 1_555
O18 S2 1_555 1_555
O19 H9 1_555 1_555
H10 O19 1_555 1_555
F1 C26 1_555 1_555
F2 C26 1_555 1_555
F3 C26 1_555 1_555
N1 C8 1_555 1_555
N2 C8 1_555 1_555
N3 C10 1_555 1_555
N4 C9 1_555 1_555
N5 C12 1_555 1_555
N6 C14 1_555 1_555
N7 C16 1_555 1_555
N8 C13 1_555 1_555
N9 C18 1_555 1_555
N10 C20 1_555 1_555
N11 C22 1_555 1_555
N12 C19 1_555 1_555
C1 C2 1_555 1_555
C2 C3 1_555 1_555
C3 S1 1_555 1_555
C4 C3 1_555 1_555
H11 C4 1_555 1_555
C5 C4 1_555 1_555
H12 C5 1_555 1_555
C6 C5 1_555 1_555
H13 C6 1_555 1_555
C7 C2 1_555 1_555
H14 C7 1_555 1_555
C8 O6 1_555 1_555
C9 N1 1_555 1_555
H15 C9 1_555 1_555
C10 N2 1_555 1_555
H16 C10 1_555 1_555
C11 N3 1_555 1_555
C12 N2 1_555 1_555
H17 C12 1_555 1_555
H18 C12 1_555 1_555
C13 N3 1_555 1_555
H19 C13 1_555 1_555
H20 C13 1_555 1_555
C14 O8 1_555 1_555
C15 N5 1_555 1_555
H21 C15 1_555 1_555
C16 N6 1_555 1_555
H22 C16 1_555 1_555
C17 N7 1_555 1_555
C18 N6 1_555 1_555
H23 C18 1_555 1_555
H24 C18 1_555 1_555
C19 N7 1_555 1_555
H25 C19 1_555 1_555
H26 C19 1_555 1_555
C20 N9 1_555 1_555
C21 N9 1_555 1_555
H27 C21 1_555 1_555
C22 N10 1_555 1_555
H28 C22 1_555 1_555
C23 N11 1_555 1_555
C24 N4 1_555 1_555
H29 C24 1_555 1_555
H30 C24 1_555 1_555
C25 N1 1_555 1_555
H31 C25 1_555 1_555
H32 C25 1_555 1_555
C26 S2 1_555 1_555
Er1B O2 1_555 1_555
Er1B_2 O6B 1_555 1_555
S1B O3B 1_555 1_555
O1B Er1B 1_555 1_555
O2B Er1 1_555 1_555
O4B S1B 1_555 1_555
O5B S1B 1_555 1_555
O6B C8B 1_555 1_555
O6B_2 Er1B 1_555 1_555
O7B C11B 1_555 1_555
O8B Er1B_2 1_555 1_555
O8B_2 Er1B 1_555 1_555
O9B C17B 1_555 1_555
O10B C20B 1_555 1_555
O11B C23B 1_555 1_555
O12B Er1B 1_555 1_555
H1B O12B 1_555 1_555
H2B O12B 1_555 1_555
O13B Er1B 1_555 1_555
H3B O13B 1_555 1_555
H4B O13B 1_555 1_555
O14B Er1B 1_555 1_555
H5B O14B 1_555 1_555
H6B O14B 1_555 1_555
O15B Er1B 1_555 1_555
H7B O15B 1_555 1_555
H8B O15B 1_555 1_555
N1B C8B 1_555 1_555
N2B C8B 1_555 1_555
N3B C10B 1_555 1_555
N4B C9B 1_555 1_555
N5B C12B 1_555 1_555
N6B C14B 1_555 1_555
N7B C16B 1_555 1_555
N8B C13B 1_555 1_555
N9B C18B 1_555 1_555
N10B C24 1_555 1_555
N11B C25 1_555 1_555
N12B C19B 1_555 1_555
C1B O1B 1_555 1_555
C2B C1B 1_555 1_555
C3B S1B 1_555 1_555
C4B C3B 1_555 1_555
H11B C4B 1_555 1_555
C5B C4B 1_555 1_555
H12B C5B 1_555 1_555
C6B C5B 1_555 1_555
H13B C6B 1_555 1_555
C7B C2B 1_555 1_555
H14B C7B 1_555 1_555
C9B N1B 1_555 1_555
H15B C9B 1_555 1_555
C10B N2B 1_555 1_555
H16B C10B 1_555 1_555
C11B N3B 1_555 1_555
C12B N2B 1_555 1_555
H17B C12B 1_555 1_555
H18B C12B 1_555 1_555
C13B N3B 1_555 1_555
H19B C13B 1_555 1_555
H20B C13B 1_555 1_555
C14B O8B 1_555 1_555
C15B N5B 1_555 1_555
H21B C15B 1_555 1_555
C16B N6B 1_555 1_555
H22B C16B 1_555 1_555
C17B N7B 1_555 1_555
C18B N6B 1_555 1_555
H23B C18B 1_555 1_555
H24B C18B 1_555 1_555
C19B N7B 1_555 1_555
H25B C19B 1_555 1_555
H26B C19B 1_555 1_555
C20B N9B 1_555 1_555
C21B N9B 1_555 1_555
H27B C21B 1_555 1_555
C22B N10B 1_555 1_555
H28B C22B 1_555 1_555
C23B N11B 1_555 1_555
C24B N10 1_555 1_555
H29B C24B 1_555 1_555
H30B C24B 1_555 1_555
C25B N11 1_555 1_555
H31B C25B 1_555 1_555
H32B C25B 1_555 1_555
N4 C11 1_555 1_555
N5 C14 1_555 1_555
N8 C15 1_555 1_555
N8 C17 1_555 1_555
N12 C21 1_555 1_555
N12 C23 1_555 1_555
C6 C7 1_555 1_555
C9 C10 1_555 1_555
C15 C16 1_555 1_555
C21 C22 1_555 1_555
O2B C1B 1_555 1_555
N1B C25B 1_555 1_555
N4B C11B 1_555 1_555
N4B C24B 1_555 1_555
N5B C14B 1_555 1_555
N8B C15B 1_555 1_555
N8B C17B 1_555 1_555
N10B C20B 1_555 1_555
N11B C22B 1_555 1_555
N12B C21B 1_555 1_555
N12B C23B 1_555 1_555
C2B C3B 1_555 1_555
C6B C7B 1_555 1_555
C9B C10B 1_555 1_555
C15B C16B 1_555 1_555
C21B C22B 1_555 1_555

#END
