
#######################################################################
#
#                 Cambridge Crystallographic Data Centre
#                                CCDC 
#
#######################################################################
#
# If this CIF has been generated from an entry in the Cambridge 
# Structural Database, then it will include bibliographic, chemical, 
# crystal, experimental, refinement or atomic coordinate data resulting 
# from the CCDC's data processing and validation procedures.
#
#######################################################################

data_HASREA
_symmetry_cell_setting           orthorhombic
_symmetry_space_group_name_H-M   'P 21 21 21'
_symmetry_Int_Tables_number      19
_space_group_name_Hall           'P 2ac 2ab'
loop_
_symmetry_equiv_pos_site_id
_symmetry_equiv_pos_as_xyz
1 x,y,z
2 1/2-x,-y,1/2+z
3 1/2+x,1/2-y,-z
4 -x,1/2+y,1/2-z
_cell_length_a                   7.8463(3)
_cell_length_b                   12.7472(8)
_cell_length_c                   16.5140(11)
_cell_angle_alpha                90
_cell_angle_beta                 90
_cell_angle_gamma                90
_cell_volume                     1651.7
loop_
_atom_site_label
_atom_site_type_symbol
_atom_site_fract_x
_atom_site_fract_y
_atom_site_fract_z
C1 C 1.1664(5) -0.2167(3) 0.6646(3)
H1 H 1.2290 -0.1771 0.6279
C2 C 0.9564(5) -0.0595(3) 0.5023(3)
C3 C 0.9626(5) -0.3436(3) 0.6884(2)
C4 C 0.7296(5) 0.2266(3) 0.4812(3)
C5 C 0.9856(7) -0.3310(3) 0.7717(3)
H2 H 0.9224 -0.3707 0.8081
C6 C 1.1942(6) -0.2011(4) 0.7454(3)
H3 H 1.2735 -0.1520 0.7632
C7 C 1.1026(7) -0.2592(4) 0.7991(3)
H4 H 1.1192 -0.2503 0.8545
C8 C 0.8311(5) -0.4174(3) 0.6528(2)
H5 H 0.7762 -0.4553 0.6966
H6 H 0.7444 -0.3764 0.6254
C9 C 0.9049(6) -0.4944(3) 0.5944(2)
H7 H 1.0012 -0.5292 0.6196
H8 H 0.8200 -0.5474 0.5822
C10 C 0.9714(6) -0.5066(3) 0.4567(2)
H9 H 0.9365 -0.5755 0.4647
C11 C 1.0301(5) -0.4811(3) 0.3766(2)
C12 C 1.0865(5) -0.3796(3) 0.3556(2)
C13 C 1.1432(6) -0.3665(4) 0.2755(3)
H10 H 1.1827 -0.3010 0.2593
C14 C 1.1425(6) -0.4468(4) 0.2204(3)
H11 H 1.1819 -0.4348 0.1681
C15 C 1.0845(7) -0.5449(4) 0.2412(3)
H12 H 1.0829 -0.5988 0.2032
C16 C 1.0295(6) -0.5619(4) 0.3181(3)
H13 H 0.9906 -0.6282 0.3325
Ag1 Ag 0.88955(4) 0.097794(19) 0.49772(2)
Cu1 Cu 1.02424(6) -0.29815(3) 0.51536(3)
N1 N 1.0538(4) -0.2861(3) 0.63541(18)
N2 N 0.9889(4) -0.1458(2) 0.5068(3)
N3 N 0.9613(4) -0.4456(2) 0.51872(19)
N4 N 0.6508(5) 0.2997(3) 0.4750(3)
O1 O 1.0861(4) -0.3000(2) 0.40507(15)
Ag1B Ag 0.38955(4) 0.402206(19) 0.50228(2)
N4B N 1.1508(5) 0.2003(3) 0.5250(3)
loop_
_geom_bond_atom_site_label_1
_geom_bond_atom_site_label_2
_geom_bond_site_symmetry_1
_geom_bond_site_symmetry_2
C1 H1 1_555 1_555
C2 Ag1 1_555 1_555
C3 C5 1_555 1_555
C4 Ag1 1_555 1_555
C5 H2 1_555 1_555
C6 C1 1_555 1_555
H3 C6 1_555 1_555
C7 C5 1_555 1_555
H4 C7 1_555 1_555
C8 C3 1_555 1_555
H5 C8 1_555 1_555
H6 C8 1_555 1_555
C9 C8 1_555 1_555
H7 C9 1_555 1_555
H8 C9 1_555 1_555
C10 H9 1_555 1_555
C11 C10 1_555 1_555
C12 C11 1_555 1_555
C13 C12 1_555 1_555
H10 C13 1_555 1_555
C14 C13 1_555 1_555
H11 C14 1_555 1_555
C15 C14 1_555 1_555
H12 C15 1_555 1_555
C16 C11 1_555 1_555
H13 C16 1_555 1_555
Ag1 N4B 1_555 1_555
Cu1 N1 1_555 1_555
N1 C1 1_555 1_555
N2 C2 1_555 1_555
N3 C9 1_555 1_555
N4 C4 1_555 1_555
O1 C12 1_555 1_555
Ag1B N4 1_555 1_555
C3 N1 1_555 1_555
C6 C7 1_555 1_555
C10 N3 1_555 1_555
C15 C16 1_555 1_555
Cu1 N2 1_555 1_555
Cu1 N3 1_555 1_555
Cu1 O1 1_555 1_555

#END
