
#######################################################################
#
#                 Cambridge Crystallographic Data Centre
#                                CCDC 
#
#######################################################################
#
# If this CIF has been generated from an entry in the Cambridge 
# Structural Database, then it will include bibliographic, chemical, 
# crystal, experimental, refinement or atomic coordinate data resulting 
# from the CCDC's data processing and validation procedures.
#
#######################################################################

data_HASRIE
_symmetry_cell_setting           orthorhombic
_symmetry_space_group_name_H-M   'P 21 21 21'
_symmetry_Int_Tables_number      19
_space_group_name_Hall           'P 2ac 2ab'
loop_
_symmetry_equiv_pos_site_id
_symmetry_equiv_pos_as_xyz
1 x,y,z
2 1/2-x,-y,1/2+z
3 1/2+x,1/2-y,-z
4 -x,1/2+y,1/2-z
_cell_length_a                   7.9944(9)
_cell_length_b                   16.488(2)
_cell_length_c                   12.0209(16)
_cell_angle_alpha                90
_cell_angle_beta                 90
_cell_angle_gamma                90
_cell_volume                     1584.49
loop_
_atom_site_label
_atom_site_type_symbol
_atom_site_fract_x
_atom_site_fract_y
_atom_site_fract_z
Cu1 Cu 0.22934(9) 0.73884(4) 0.96145(5)
Cu2 Cu 0.30461(8) 0.75023(5) 1.37395(5)
N1 N 0.2849(6) 0.7400(3) 0.8033(3)
N2 N 0.1962(7) 0.6186(3) 0.9687(5)
O1 O 0.1618(6) 0.8483(2) 0.9619(4)
C1 C 0.5001(6) 0.7612(4) 1.4617(5)
C2 C 0.2791(9) 0.5664(3) 0.9006(5)
C3 C 0.2208(8) 0.8820(3) 0.7723(4)
C4 C 0.2773(9) 0.8036(3) 0.7411(6)
H1 H 0.3125 0.7974 0.6679
C5 C 0.1080(9) 0.9804(4) 0.8995(6)
H2 H 0.0670 0.9949 0.9691
C6 C 0.1619(8) 0.9004(3) 0.8803(6)
C7 C 0.1738(10) 1.0202(4) 0.7124(6)
H3 H 0.1783 1.0600 0.6578
C8 C 0.3339(10) 0.6634(4) 0.7468(5)
H4 H 0.4151 0.6756 0.6892
H5 H 0.2362 0.6400 0.7113
C9 C 0.2259(9) 0.9424(3) 0.6908(5)
H6 H 0.2654 0.9295 0.6202
C10 C 0.1345(10) 0.4559(4) 0.9840(6)
H7 H 0.1152 0.4005 0.9897
C11 C 0.2484(10) 0.4832(3) 0.9092(6)
H8 H 0.3056 0.4469 0.8639
C12 C 0.4072(9) 0.6027(4) 0.8253(5)
H9 H 0.4602 0.5598 0.7828
H10 H 0.4928 0.6288 0.8699
C13 C 0.0859(8) 0.5881(4) 1.0408(5)
H11 H 0.0304 0.6239 1.0879
C14 C 0.0494(9) 0.5066(4) 1.0496(7)
H12 H -0.0310 0.4877 1.0992
C15 C 0.1157(9) 1.0371(4) 0.8159(7)
H13 H 0.0793 1.0895 0.8309
N3 N 0.2668(5) 0.7431(3) 1.1221(4)
C16 C 0.2868(7) 0.7460(4) 1.2162(5)
N4 N 0.6128(6) 0.7607(4) 1.5237(4)
Cu2B Cu 0.80461(8) 0.74977(5) 1.62605(5)
N4B N 0.1128(6) 0.7393(4) 1.4763(4)
loop_
_geom_bond_atom_site_label_1
_geom_bond_atom_site_label_2
_geom_bond_site_symmetry_1
_geom_bond_site_symmetry_2
Cu1 N1 1_555 1_555
Cu2 C1 1_555 1_555
N1 C4 1_555 1_555
N2 Cu1 1_555 1_555
O1 Cu1 1_555 1_555
C1 N4 1_555 1_555
C2 N2 1_555 1_555
C3 C4 1_555 1_555
C4 H1 1_555 1_555
C5 H2 1_555 1_555
C6 O1 1_555 1_555
C7 H3 1_555 1_555
C8 N1 1_555 1_555
H4 C8 1_555 1_555
H5 C8 1_555 1_555
C9 C3 1_555 1_555
H6 C9 1_555 1_555
C10 H7 1_555 1_555
C11 C2 1_555 1_555
H8 C11 1_555 1_555
C12 C2 1_555 1_555
H9 C12 1_555 1_555
H10 C12 1_555 1_555
C13 N2 1_555 1_555
H11 C13 1_555 1_555
C14 C10 1_555 1_555
H12 C14 1_555 1_555
C15 C5 1_555 1_555
H13 C15 1_555 1_555
N3 Cu1 1_555 1_555
C16 Cu2 1_555 1_555
N4 Cu2B 1_555 1_555
N4B Cu2 1_555 1_555
C3 C6 1_555 1_555
C5 C6 1_555 1_555
C7 C9 1_555 1_555
C7 C15 1_555 1_555
C8 C12 1_555 1_555
C10 C11 1_555 1_555
C13 C14 1_555 1_555
N3 C16 1_555 1_555

#END
