
#######################################################################
#
#                 Cambridge Crystallographic Data Centre
#                                CCDC 
#
#######################################################################
#
# If this CIF has been generated from an entry in the Cambridge 
# Structural Database, then it will include bibliographic, chemical, 
# crystal, experimental, refinement or atomic coordinate data resulting 
# from the CCDC's data processing and validation procedures.
#
#######################################################################

data_HATGUF01
_symmetry_cell_setting           tetragonal
_symmetry_space_group_name_H-M   'P 4/n m m'
_symmetry_Int_Tables_number      129
_space_group_name_Hall           '-P 4a 2a'
loop_
_symmetry_equiv_pos_site_id
_symmetry_equiv_pos_as_xyz
1 x,y,z
2 1/2-x,1/2-y,z
3 1/2-y,x,z
4 y,1/2-x,z
5 -x,1/2+y,-z
6 1/2+x,-y,-z
7 1/2+y,1/2+x,-z
8 -y,-x,-z
9 -x,-y,-z
10 1/2+x,1/2+y,-z
11 1/2+y,-x,-z
12 -y,1/2+x,-z
13 x,1/2-y,z
14 1/2-x,y,z
15 1/2-y,1/2-x,z
16 y,x,z
_cell_length_a                   19.129(3)
_cell_length_b                   19.129(3)
_cell_length_c                   6.7640(14)
_cell_angle_alpha                90
_cell_angle_beta                 90
_cell_angle_gamma                90
_cell_volume                     2475.07
loop_
_atom_site_label
_atom_site_type_symbol
_atom_site_fract_x
_atom_site_fract_y
_atom_site_fract_z
Cu1 Cu 0.531159(15) 0.531159(15) 0.14758(6)
C1 C 0.52582(14) 0.31305(14) 0.2645(4)
C2 C 0.54892(17) 0.31301(15) 0.4601(5)
H1 H 0.5569 0.3551 0.5251
C3 C 0.5600(3) 0.2500 0.5581(7)
H2 H 0.5749 0.2500 0.6890
C4 C 0.5140(2) 0.2500 0.1676(6)
H3 H 0.4981 0.2500 0.0376
C5 C 0.51447(15) 0.38136(14) 0.1615(4)
O1 O 0.48406(14) 0.38101(11) -0.0026(4)
O2 O 0.53591(13) 0.43497(11) 0.2473(4)
O3 O 0.57482(12) 0.57482(12) 0.4086(5)
H4 H 0.6048 0.6048 0.3949
H5 H 0.5669 0.5669 0.5253
Cu1G Cu 0.468841(15) 0.468841(15) -0.14758(6)
Cu1D Cu 0.468841(15) 0.031159(15) -0.14758(6)
Cu1C Cu 0.531159(15) -0.031159(15) 0.14758(6)
C1L C 0.52582(14) 0.18695(14) 0.2645(4)
C2L C 0.54892(17) 0.18699(15) 0.4601(5)
H1L H 0.5569 0.1449 0.5251
C5L C 0.51447(15) 0.11864(14) 0.1615(4)
O1L O 0.48406(14) 0.11899(11) -0.0026(4)
O1H O 0.51594(14) 0.61899(11) 0.0026(4)
O1G O 0.61899(11) 0.51594(14) 0.0026(4)
O2L O 0.53591(13) 0.06503(11) 0.2473(4)
O2O O 0.43497(11) 0.53591(13) 0.2473(4)
O4 O 0.6726(3) 0.6726(3) 0.9545(19)
H6 H 0.6656 0.6656 1.0727
H7 H 0.6480 0.6480 0.8832
O5 O 0.6721(3) 0.6721(3) 0.487(2)
H8 H 0.7022 0.7022 0.5008
H9 H 0.6580 0.6580 0.5943
loop_
_geom_bond_atom_site_label_1
_geom_bond_atom_site_label_2
_geom_bond_site_symmetry_1
_geom_bond_site_symmetry_2
Cu1 O2 1_555 1_555
C1 C2 1_555 1_555
C2 H1 1_555 1_555
C3 C2 1_555 1_555
H2 C3 1_555 1_555
C4 C1 1_555 1_555
H3 C4 1_555 1_555
C5 C1 1_555 1_555
O1 C5 1_555 1_555
O2 C5 1_555 1_555
O3 Cu1 1_555 1_555
H4 O3 1_555 1_555
H5 O3 1_555 1_555
O4 H6 1_555 1_555
H7 O4 1_555 1_555
O5 H8 1_555 1_555
H9 O5 1_555 1_555
Cu1G Cu1 1_555 1_555
Cu1D Cu1C 1_555 1_555
Cu1C O2L 1_555 1_555
C1L C4 1_555 1_555
C2L C3 1_555 1_555
H1L C2L 1_555 1_555
C5L C1L 1_555 1_555
O1L Cu1D 1_555 1_555
O1H Cu1 1_555 1_555
O1G Cu1 1_555 1_555
O2L C5L 1_555 1_555
O2O Cu1 1_555 1_555
O1 Cu1G 1_555 1_555
C1L C2L 1_555 1_555
C5L O1L 1_555 1_555

#END
