
#######################################################################
#
#                 Cambridge Crystallographic Data Centre
#                                CCDC 
#
#######################################################################
#
# If this CIF has been generated from an entry in the Cambridge 
# Structural Database, then it will include bibliographic, chemical, 
# crystal, experimental, refinement or atomic coordinate data resulting 
# from the CCDC's data processing and validation procedures.
#
#######################################################################

data_HATGUF
_symmetry_cell_setting           tetragonal
_symmetry_space_group_name_H-M   'P 4/n'
_symmetry_Int_Tables_number      85
_space_group_name_Hall           '-P 4a'
loop_
_symmetry_equiv_pos_site_id
_symmetry_equiv_pos_as_xyz
1 x,y,z
2 1/2-y,x,z
3 y,1/2-x,z
4 1/2-x,1/2-y,z
5 -x,-y,-z
6 1/2+y,-x,-z
7 -y,1/2+x,-z
8 1/2+x,1/2+y,-z
_cell_length_a                   19.1062(16)
_cell_length_b                   19.1062(16)
_cell_length_c                   6.7812(6)
_cell_angle_alpha                90
_cell_angle_beta                 90
_cell_angle_gamma                90
_cell_volume                     2475.46
loop_
_atom_site_label
_atom_site_type_symbol
_atom_site_fract_x
_atom_site_fract_y
_atom_site_fract_z
Cu1 Cu 0.03108(3) 0.46888(3) 0.35279(8)
O1 O 0.0158(3) 0.3818(2) 0.4982(7)
O2 O -0.0356(3) 0.43470(19) 0.7461(6)
O3 O 0.0154(2) 0.1189(3) 0.4970(6)
O4 O -0.0355(2) 0.0651(3) 0.7466(7)
O5 O 0.0749(2) 0.4256(2) 0.0909(6)
C1 C -0.0143(3) 0.3811(3) 0.6612(7)
C2 C -0.0243(3) 0.3131(3) 0.7653(8)
C3 C -0.0471(3) 0.3133(3) 0.9609(8)
H1 H -0.0549 0.3556 1.0254
C4 C -0.0581(3) 0.2497(3) 1.0604(8)
H2 H -0.0725 0.2497 1.1914
C5 C -0.0473(3) 0.1864(3) 0.9611(8)
H3 H -0.0551 0.1441 1.0249
C6 C -0.0246(3) 0.1874(3) 0.7655(8)
C7 C -0.0126(3) 0.2496(3) 0.6684(8)
H4 H 0.0033 0.2493 0.5388
C8 C -0.0139(3) 0.1185(3) 0.6631(8)
Cu1D Cu -0.03108(3) 0.53112(3) 0.64721(8)
Cu1A Cu 0.03112(3) 0.03108(3) 0.35279(8)
Cu1E Cu -0.03112(3) -0.03108(3) 0.64721(8)
O2D O 0.0356(3) 0.56530(19) 0.2539(6)
O3B O 0.1189(3) 0.4846(2) 0.4970(6)
O4F O -0.0651(3) 0.4645(2) 0.2534(7)
O6 O 0.6745(8) 0.8262(6) 0.448(2)
O7 O 0.3275(9) 0.1724(6) 0.002(3)
loop_
_geom_bond_atom_site_label_1
_geom_bond_atom_site_label_2
_geom_bond_site_symmetry_1
_geom_bond_site_symmetry_2
Cu1 O1 1_555 1_555
O1 C1 1_555 1_555
O2 C1 1_555 1_555
O3 C8 1_555 1_555
O4 C8 1_555 1_555
O5 Cu1 1_555 1_555
C1 C2 1_555 1_555
C2 C3 1_555 1_555
C3 H1 1_555 1_555
C4 C3 1_555 1_555
H2 C4 1_555 1_555
C5 C4 1_555 1_555
H3 C5 1_555 1_555
C6 C5 1_555 1_555
C7 C2 1_555 1_555
H4 C7 1_555 1_555
C8 C6 1_555 1_555
Cu1D Cu1 1_555 1_555
Cu1A O3 1_555 1_555
Cu1E O4 1_555 1_555
O2D Cu1 1_555 1_555
O3B Cu1 1_555 1_555
O4F Cu1 1_555 1_555
O2 Cu1D 1_555 1_555
C6 C7 1_555 1_555
Cu1A Cu1E 1_555 1_555

#END
