
#######################################################################
#
#                 Cambridge Crystallographic Data Centre
#                                CCDC 
#
#######################################################################
#
# If this CIF has been generated from an entry in the Cambridge 
# Structural Database, then it will include bibliographic, chemical, 
# crystal, experimental, refinement or atomic coordinate data resulting 
# from the CCDC's data processing and validation procedures.
#
#######################################################################

data_HATHUF
_symmetry_cell_setting           orthorhombic
_symmetry_space_group_name_H-M   'P 21 21 21'
_symmetry_Int_Tables_number      19
_space_group_name_Hall           'P 2ac 2ab'
loop_
_symmetry_equiv_pos_site_id
_symmetry_equiv_pos_as_xyz
1 x,y,z
2 1/2+x,1/2-y,-z
3 -x,1/2+y,1/2-z
4 1/2-x,-y,1/2+z
_cell_length_a                   11.754(2)
_cell_length_b                   19.794(2)
_cell_length_c                   29.926(4)
_cell_angle_alpha                90
_cell_angle_beta                 90
_cell_angle_gamma                90
_cell_volume                     6962.54
loop_
_atom_site_label
_atom_site_type_symbol
_atom_site_fract_x
_atom_site_fract_y
_atom_site_fract_z
S1 S 0.7289(6) 0.1425(3) 0.09739(20)
O1 O 0.8168(12) 0.1031(8) 0.1249(5)
O2 O 0.7272(14) 0.2105(8) 0.1138(6)
O3 O 0.6198(12) 0.1084(7) 0.1017(5)
O4 O 0.7670(15) 0.1373(9) 0.0511(5)
Cu1 Cu 0.44150(24) 0.14524(14) 0.12236(9)
N1 N 0.3793(17) 0.1514(10) 0.0635(6)
N2 N 0.3568(15) 0.0585(9) 0.1217(6)
N3 N 0.4844(16) 0.2422(9) 0.1130(6)
C1 C 0.3119(21) 0.1071(13) 0.0464(8)
C2 C 0.2572(24) 0.1130(14) 0.0060(8)
C3 C 0.275(3) 0.1705(16) -0.0179(11)
C4 C 0.3489(24) 0.2248(14) -0.0019(9)
C5 C 0.3989(21) 0.2113(11) 0.0407(8)
C6 C 0.2946(19) 0.0462(11) 0.0763(7)
C7 C 0.354(3) -0.0196(16) 0.0597(10)
C8 C 0.372(3) -0.0630(14) 0.1012(9)
C9 C 0.4202(25) -0.0051(13) 0.1287(9)
C10 C 0.4790(20) 0.2594(11) 0.0640(7)
C11 C 0.446(3) 0.3353(16) 0.0610(11)
C12 C 0.389(3) 0.3511(16) 0.1025(10)
C13 C 0.4117(24) 0.2937(13) 0.1373(8)
S2 S 1.0555(6) -0.0091(3) 0.15747(23)
O5 O 1.1417(14) 0.0431(9) 0.1662(6)
O6 O 0.9527(14) 0.0122(8) 0.1813(5)
O7 O 1.0355(14) -0.0123(11) 0.1098(5)
O8 O 1.0945(18) -0.0726(9) 0.1729(6)
Cu2 Cu 0.76600(24) 0.02343(13) 0.15717(10)
N4 N 0.7223(15) -0.0537(8) 0.1914(6)
N5 N 0.6965(14) 0.0718(8) 0.2093(6)
N6 N 0.7986(15) -0.0477(8) 0.1081(6)
C14 C 0.6833(22) -0.0453(12) 0.2319(8)
C15 C 0.6691(21) -0.0977(12) 0.2612(8)
C16 C 0.6882(24) -0.1617(14) 0.2463(9)
C17 C 0.7260(24) -0.1712(13) 0.2033(9)
C18 C 0.7491(21) -0.1152(12) 0.1763(7)
C19 C 0.6487(19) 0.0267(12) 0.2450(8)
C20 C 0.7043(23) 0.0540(13) 0.2875(9)
C21 C 0.7295(21) 0.1272(11) 0.2814(8)
C22 C 0.7664(22) 0.1218(12) 0.2315(8)
C23 C 0.7925(22) -0.1168(13) 0.1313(8)
C24 C 0.730(3) -0.1588(16) 0.0974(11)
C25 C 0.731(3) -0.1234(16) 0.0528(11)
C26 C 0.7250(23) -0.0487(12) 0.0687(8)
S3 S 0.3880(5) 0.1471(3) 0.22027(19)
O9 O 0.4805(13) 0.1474(8) 0.1856(5)
O10 O 0.4231(15) 0.1929(7) 0.2551(5)
O11 O 0.2814(13) 0.1688(7) 0.1987(5)
O12 O 0.3782(13) 0.0798(8) 0.2392(5)
Cu3 Cu 0.0997(3) 0.11512(15) 0.20610(10)
N7 N 0.0464(18) 0.1845(10) 0.2466(7)
N8 N 0.0209(16) 0.1740(9) 0.1601(6)
N9 N 0.1382(17) 0.0668(10) 0.2644(6)
C27 C -0.0061(22) 0.2377(12) 0.2280(8)
C28 C -0.0438(23) 0.2894(13) 0.2576(9)
C29 C -0.029(3) 0.2806(16) 0.3002(11)
C30 C 0.0212(25) 0.2239(14) 0.3221(9)
C31 C 0.0568(22) 0.1751(11) 0.2901(8)
C32 C -0.0221(24) 0.2374(13) 0.1811(9)
C33 C 0.044(3) 0.2948(15) 0.1561(11)
C34 C 0.060(3) 0.2646(15) 0.1105(10)
C35 C 0.0859(24) 0.1917(13) 0.1179(9)
C36 C 0.120(3) 0.1117(16) 0.3020(10)
C37 C 0.058(3) 0.0713(17) 0.3382(11)
C38 C 0.043(4) 0.0074(20) 0.3225(13)
C39 C 0.072(3) 0.0042(14) 0.2762(9)
H1 H 0.294 0.064 0.147
H2 H 0.572 0.246 0.125
H3 H 0.201 0.074 -0.006
H4 H 0.234 0.176 -0.050
H5 H 0.364 0.271 -0.020
H6 H 0.205 0.037 0.082
H7 H 0.433 -0.007 0.044
H8 H 0.299 -0.045 0.036
H9 H 0.433 -0.103 0.096
H10 H 0.295 -0.083 0.115
H11 H 0.507 0.003 0.119
H12 H 0.415 -0.018 0.163
H13 H 0.563 0.254 0.050
H14 H 0.390 0.344 0.033
H15 H 0.521 0.366 0.057
H16 H 0.420 0.398 0.116
H17 H 0.298 0.355 0.097
H18 H 0.333 0.271 0.148
H19 H 0.457 0.313 0.166
H20 H 0.625 0.098 0.194
H21 H 0.886 -0.038 0.098
H22 H 0.643 -0.089 0.295
H23 H 0.674 -0.204 0.269
H24 H 0.740 -0.222 0.190
H25 H 0.557 0.031 0.247
H26 H 0.782 0.027 0.294
H27 H 0.647 0.048 0.316
H28 H 0.656 0.159 0.286
H29 H 0.798 0.145 0.303
H30 H 0.855 0.107 0.230
H31 H 0.756 0.170 0.215
H32 H 0.878 -0.136 0.133
H33 H 0.773 -0.207 0.094
H34 H 0.644 -0.166 0.108
H35 H 0.807 -0.133 0.034
H36 H 0.657 -0.137 0.033
H37 H 0.640 -0.034 0.077
H38 H 0.758 -0.015 0.043
H39 H -0.052 0.144 0.151
H40 H 0.228 0.055 0.262
H41 H -0.085 0.335 0.245
H42 H -0.056 0.321 0.322
H43 H 0.031 0.218 0.358
H44 H -0.112 0.243 0.174
H45 H 0.125 0.305 0.171
H46 H -0.006 0.341 0.154
H47 H -0.018 0.270 0.091
H48 H 0.128 0.289 0.094
H49 H 0.056 0.162 0.090
H50 H 0.175 0.184 0.122
H51 H 0.201 0.126 0.315
H52 H -0.024 0.094 0.345
H53 H 0.108 0.070 0.368
H54 H 0.097 -0.027 0.341
H55 H -0.045 -0.007 0.326
H56 H 0.124 -0.040 0.270
H57 H -0.004 0.002 0.256
Cu3_2 Cu 1.0997(3) 0.11512(15) 0.20610(10)
O5_2 O 0.1417(14) 0.0431(9) 0.1662(6)
O13 O 0.4971(16) 0.4959(10) 0.0355(6)
O14 O 0.559(3) 0.5862(14) -0.0010(8)
O15 O 0.6916(15) 0.6828(8) 0.1392(6)
O16 O 0.5187(15) 0.6650(9) 0.1669(5)
O17 O 0.7243(19) 0.4696(10) 0.0820(7)
O18 O 0.5895(15) 0.5328(8) 0.1128(6)
O19 O 0.4247(20) 0.7554(11) 0.0832(8)
O20 O 0.4283(14) 0.6415(10) 0.0869(5)
C40 C 0.6023(24) 0.5768(13) 0.0753(9)
C41 C 0.5495(23) 0.6474(13) 0.0902(8)
C42 C 0.549(3) 0.5497(18) 0.0318(12)
C43 C 0.591(3) 0.6689(12) 0.1361(9)
C44 C 0.6594(24) 0.4777(15) 0.1139(10)
C45 C 0.372(3) 0.7044(17) 0.0818(10)
C46 C 0.6509(19) 0.4387(11) 0.1531(8)
C47 C 0.6142(24) 0.4668(14) 0.1929(9)
C48 C 0.6131(24) 0.4283(14) 0.2297(9)
C49 C 0.650(3) 0.3594(16) 0.2329(10)
C50 C 0.686(3) 0.3332(15) 0.1922(10)
C51 C 0.693(3) 0.3720(15) 0.1532(10)
C52 C 0.640(3) 0.3174(16) 0.2738(11)
C53 C 0.250(3) 0.6926(16) 0.0720(10)
C54 C 0.203(3) 0.6280(16) 0.0699(11)
C55 C 0.080(4) 0.6307(19) 0.0578(12)
C56 C 0.029(4) 0.6905(24) 0.0478(15)
C57 C 0.073(5) 0.749(3) 0.0544(15)
C58 C 0.186(4) 0.7528(23) 0.0640(15)
C59 C -0.102(4) 0.6723(18) 0.0356(13)
H58 H 0.691 0.585 0.069
H59 H 0.578 0.685 0.066
H60 H 0.587 0.519 0.194
H61 H 0.582 0.452 0.260
H62 H 0.707 0.280 0.191
H63 H 0.730 0.350 0.123
H64 H 0.675 0.268 0.266
H65 H 0.688 0.341 0.300
H66 H 0.552 0.314 0.283
H67 H 0.249 0.582 0.076
H68 H 0.030 0.584 0.057
H69 H 0.020 0.794 0.054
H70 H 0.226 0.801 0.065
H71 H -0.146 0.718 0.027
H72 H -0.102 0.638 0.008
H73 H -0.140 0.649 0.064
O21 O 0.9599(18) 0.0610(9) 0.0394(6)
O22 O 0.612(4) 0.088(3) 0.9766(12)
loop_
_geom_bond_atom_site_label_1
_geom_bond_atom_site_label_2
_geom_bond_site_symmetry_1
_geom_bond_site_symmetry_2
S1 O1 1_555 1_555
O1 Cu2 1_555 1_555
O2 S1 1_555 1_555
O3 S1 1_555 1_555
O4 S1 1_555 1_555
Cu1 O3 1_555 1_555
N1 Cu1 1_555 1_555
N2 Cu1 1_555 1_555
N3 Cu1 1_555 1_555
C1 N1 1_555 1_555
C2 C1 1_555 1_555
C3 C2 1_555 1_555
C4 C3 1_555 1_555
C5 N1 1_555 1_555
C6 N2 1_555 1_555
C7 C6 1_555 1_555
C8 C7 1_555 1_555
C9 N2 1_555 1_555
C10 N3 1_555 1_555
C11 C10 1_555 1_555
C12 C11 1_555 1_555
C13 N3 1_555 1_555
S2 O5 1_555 1_555
O5 Cu3_2 1_555 1_555
O6 S2 1_555 1_555
O7 S2 1_555 1_555
O8 S2 1_555 1_555
Cu2 O6 1_555 1_555
N4 Cu2 1_555 1_555
N5 Cu2 1_555 1_555
N6 Cu2 1_555 1_555
C14 N4 1_555 1_555
C15 C14 1_555 1_555
C16 C15 1_555 1_555
C17 C16 1_555 1_555
C18 N4 1_555 1_555
C19 N5 1_555 1_555
C20 C19 1_555 1_555
C21 C20 1_555 1_555
C22 N5 1_555 1_555
C23 N6 1_555 1_555
C24 C23 1_555 1_555
C25 C24 1_555 1_555
C26 N6 1_555 1_555
S3 O9 1_555 1_555
O9 Cu1 1_555 1_555
O10 S3 1_555 1_555
O11 S3 1_555 1_555
O12 S3 1_555 1_555
Cu3 O11 1_555 1_555
N7 Cu3 1_555 1_555
N8 Cu3 1_555 1_555
N9 Cu3 1_555 1_555
C27 N7 1_555 1_555
C28 C27 1_555 1_555
C29 C28 1_555 1_555
C30 C29 1_555 1_555
C31 N7 1_555 1_555
C32 N8 1_555 1_555
C33 C32 1_555 1_555
C34 C33 1_555 1_555
C35 N8 1_555 1_555
C36 N9 1_555 1_555
C37 C36 1_555 1_555
C38 C37 1_555 1_555
C39 N9 1_555 1_555
O13 C42 1_555 1_555
O14 C42 1_555 1_555
O15 C43 1_555 1_555
O16 C43 1_555 1_555
O17 C44 1_555 1_555
O18 C40 1_555 1_555
O19 C45 1_555 1_555
O20 C41 1_555 1_555
C40 C41 1_555 1_555
C41 C43 1_555 1_555
C42 C40 1_555 1_555
C44 O18 1_555 1_555
C45 O20 1_555 1_555
C46 C44 1_555 1_555
C47 C46 1_555 1_555
C48 C47 1_555 1_555
C49 C48 1_555 1_555
C50 C49 1_555 1_555
C51 C46 1_555 1_555
C52 C49 1_555 1_555
C53 C45 1_555 1_555
C54 C53 1_555 1_555
C55 C54 1_555 1_555
C56 C55 1_555 1_555
C57 C56 1_555 1_555
C58 C53 1_555 1_555
C59 C56 1_555 1_555
H1 N2 1_555 1_555
H2 N3 1_555 1_555
H3 C2 1_555 1_555
H4 C3 1_555 1_555
H5 C4 1_555 1_555
H6 C6 1_555 1_555
H7 C7 1_555 1_555
H8 C7 1_555 1_555
H9 C8 1_555 1_555
H10 C8 1_555 1_555
H11 C9 1_555 1_555
H12 C9 1_555 1_555
H13 C10 1_555 1_555
H14 C11 1_555 1_555
H15 C11 1_555 1_555
H16 C12 1_555 1_555
H17 C12 1_555 1_555
H18 C13 1_555 1_555
H19 C13 1_555 1_555
H20 N5 1_555 1_555
H21 N6 1_555 1_555
H22 C15 1_555 1_555
H23 C16 1_555 1_555
H24 C17 1_555 1_555
H25 C19 1_555 1_555
H26 C20 1_555 1_555
H27 C20 1_555 1_555
H28 C21 1_555 1_555
H29 C21 1_555 1_555
H30 C22 1_555 1_555
H31 C22 1_555 1_555
H32 C23 1_555 1_555
H33 C24 1_555 1_555
H34 C24 1_555 1_555
H35 C25 1_555 1_555
H36 C25 1_555 1_555
H37 C26 1_555 1_555
H38 C26 1_555 1_555
H39 N8 1_555 1_555
H40 N9 1_555 1_555
H41 C28 1_555 1_555
H42 C29 1_555 1_555
H43 C30 1_555 1_555
H44 C32 1_555 1_555
H45 C33 1_555 1_555
H46 C33 1_555 1_555
H47 C34 1_555 1_555
H48 C34 1_555 1_555
H49 C35 1_555 1_555
H50 C35 1_555 1_555
H51 C36 1_555 1_555
H52 C37 1_555 1_555
H53 C37 1_555 1_555
H54 C38 1_555 1_555
H55 C38 1_555 1_555
H56 C39 1_555 1_555
H57 C39 1_555 1_555
H58 C40 1_555 1_555
H59 C41 1_555 1_555
H60 C47 1_555 1_555
H61 C48 1_555 1_555
H62 C50 1_555 1_555
H63 C51 1_555 1_555
H64 C52 1_555 1_555
H65 C52 1_555 1_555
H66 C52 1_555 1_555
H67 C54 1_555 1_555
H68 C55 1_555 1_555
H69 C57 1_555 1_555
H70 C58 1_555 1_555
H71 C59 1_555 1_555
H72 C59 1_555 1_555
H73 C59 1_555 1_555
O5_2 Cu3 1_555 1_555
C1 C6 1_555 1_555
C4 C5 1_555 1_555
C5 C10 1_555 1_555
C8 C9 1_555 1_555
C12 C13 1_555 1_555
C14 C19 1_555 1_555
C17 C18 1_555 1_555
C18 C23 1_555 1_555
C21 C22 1_555 1_555
C25 C26 1_555 1_555
C27 C32 1_555 1_555
C30 C31 1_555 1_555
C31 C36 1_555 1_555
C34 C35 1_555 1_555
C38 C39 1_555 1_555
C50 C51 1_555 1_555
C57 C58 1_555 1_555

#END
