
#######################################################################
#
#                 Cambridge Crystallographic Data Centre
#                                CCDC 
#
#######################################################################
#
# If this CIF has been generated from an entry in the Cambridge 
# Structural Database, then it will include bibliographic, chemical, 
# crystal, experimental, refinement or atomic coordinate data resulting 
# from the CCDC's data processing and validation procedures.
#
#######################################################################

data_HATHUH
_symmetry_cell_setting           monoclinic
_symmetry_space_group_name_H-M   'P 21/c'
_symmetry_Int_Tables_number      14
_space_group_name_Hall           '-P 2ybc'
loop_
_symmetry_equiv_pos_site_id
_symmetry_equiv_pos_as_xyz
1 x,y,z
2 -x,1/2+y,1/2-z
3 -x,-y,-z
4 x,1/2-y,1/2+z
_cell_length_a                   9.7698(11)
_cell_length_b                   20.060(2)
_cell_length_c                   18.2973(16)
_cell_angle_alpha                90
_cell_angle_beta                 100.457(4)
_cell_angle_gamma                90
_cell_volume                     3526.39
loop_
_atom_site_label
_atom_site_type_symbol
_atom_site_fract_x
_atom_site_fract_y
_atom_site_fract_z
Gd1 Gd 0.25903(4) 0.949053(18) 0.23016(2)
Fe1 Fe -0.03942(10) 0.70712(5) 0.24653(5)
O1 O 0.2207(4) 0.8592(2) 0.3152(2)
O2 O 0.0618(5) 0.8872(2) 0.1787(3)
O3 O 0.0934(5) 1.0101(2) 0.2858(2)
O4 O 0.3269(5) 1.0650(2) 0.2348(2)
N1 N 0.0675(5) 0.7050(3) 0.3464(3)
N2 N 0.0475(5) 0.7929(3) 0.2478(3)
N3 N -0.1312(5) 0.7377(3) 0.1474(3)
N4 N -0.1034(6) 1.1567(3) 0.2923(3)
N5 N 0.1258(5) 1.1217(3) 0.2572(3)
N6 N 0.2063(6) 1.2329(3) 0.2160(3)
C1 C 0.0717(7) 0.6578(3) 0.4002(3)
H1 H 0.0146 0.6194 0.3896
C2 C 0.1564(7) 0.6633(4) 0.4704(4)
H2 H 0.1543 0.6289 0.5060
C3 C 0.2419(7) 0.7168(4) 0.4889(4)
H3 H 0.2990 0.7208 0.5366
C4 C 0.2412(7) 0.7648(4) 0.4347(4)
H4 H 0.3003 0.8026 0.4445
C5 C 0.1545(6) 0.7581(3) 0.3661(3)
C6 C 0.1419(6) 0.8105(3) 0.3076(4)
C7 C 0.0144(7) 0.8307(3) 0.1862(4)
C8 C -0.0929(7) 0.7998(3) 0.1320(3)
C9 C -0.1486(7) 0.8318(4) 0.0680(4)
H5 H -0.1179 0.8755 0.0588
C10 C -0.2526(7) 0.8002(4) 0.0150(4)
H6 H -0.2917 0.8203 -0.0311
C11 C -0.2921(8) 0.7381(4) 0.0358(4)
H7 H -0.3666 0.7156 0.0050
C12 C -0.2255(7) 0.7078(3) 0.1005(3)
H8 H -0.2505 0.6635 0.1108
C13 C -0.2193(7) 1.1792(4) 0.3126(4)
H9 H -0.2389 1.2256 0.3086
C14 C -0.3160(8) 1.1359(4) 0.3404(4)
H10 H -0.3969 1.1527 0.3561
C15 C -0.2844(8) 1.0684(4) 0.3429(4)
H11 H -0.3482 1.0377 0.3578
C16 C -0.1619(7) 1.0446(4) 0.3242(4)
H12 H -0.1394 0.9985 0.3272
C17 C -0.0732(7) 1.0911(3) 0.3009(4)
C18 C 0.0588(7) 1.0701(3) 0.2809(4)
C19 C 0.2509(7) 1.1188(3) 0.2369(4)
C20 C 0.2953(6) 1.1817(3) 0.2130(3)
C21 C 0.4234(7) 1.1929(3) 0.1907(4)
H13 H 0.4902 1.1581 0.1936
C22 C 0.4509(8) 1.2542(4) 0.1649(4)
H14 H 0.5350 1.2615 0.1470
C23 C 0.3582(7) 1.3054(4) 0.1647(4)
H15 H 0.3769 1.3483 0.1469
C24 C 0.2357(7) 1.2928(3) 0.1911(4)
H16 H 0.1709 1.3281 0.1913
O5 O 0.3318(5) 0.8413(2) 0.1768(3)
O6 O 0.4928(5) 0.9157(3) 0.2131(3)
O7 O 0.5420(6) 0.8274(3) 0.1546(3)
N7 N 0.4547(7) 0.8615(3) 0.1810(4)
O8 O 0.2807(6) 0.9686(3) 0.0991(3)
O9 O 0.1017(5) 1.0167(2) 0.1338(3)
O10 O 0.1381(7) 1.0350(3) 0.0216(3)
N8 N 0.1739(7) 1.0061(3) 0.0823(4)
O11 O 0.3981(5) 0.9705(2) 0.3491(3)
Fe1A Fe 0.03942(10) 1.20712(5) 0.25347(5)
N4A N 0.1034(6) 0.6567(3) 0.2077(3)
N5A N -0.1258(5) 0.6217(3) 0.2428(3)
N6A N -0.2063(6) 0.7329(3) 0.2840(3)
O12 O -0.4377(5) 0.5891(2) 0.0803(3)
O13 O -0.3658(5) 0.5376(2) -0.0096(3)
O14 O -0.5250(5) 0.6160(2) -0.0351(3)
N9 N -0.4407(6) 0.5796(3) 0.0113(3)
O15 O -0.0710(8) 0.6089(4) -0.0854(4)
O16 O 0.0173(8) 0.6362(4) 0.0232(4)
N10 N 0.0189(8) 0.6009(4) -0.0328(4)
C25 C 0.1372(9) 0.5542(5) -0.0309(5)
H17 H 0.1543 0.5472 -0.0815
H18 H 0.1148 0.5115 -0.0099
H19 H 0.2207 0.5730 0.0000
O17 O 0.3200(6) 0.5953(3) 0.3437(3)
O18 O 0.4793(7) 0.5896(4) 0.4402(4)
N11 N 0.3838(8) 0.5618(4) 0.3927(4)
C26 C 0.3395(11) 0.4947(5) 0.4023(5)
H20 H 0.4162 0.4640 0.3992
H21 H 0.2600 0.4840 0.3632
H22 H 0.3122 0.4903 0.4510
loop_
_geom_bond_atom_site_label_1
_geom_bond_atom_site_label_2
_geom_bond_site_symmetry_1
_geom_bond_site_symmetry_2
Gd1 O1 1_555 1_555
Fe1 N1 1_555 1_555
O1 C6 1_555 1_555
O2 Gd1 1_555 1_555
O3 Gd1 1_555 1_555
O4 Gd1 1_555 1_555
N1 C1 1_555 1_555
N2 Fe1 1_555 1_555
N3 Fe1 1_555 1_555
N4 C13 1_555 1_555
N5 C18 1_555 1_555
N6 C20 1_555 1_555
C1 H1 1_555 1_555
C2 C1 1_555 1_555
H2 C2 1_555 1_555
C3 C2 1_555 1_555
H3 C3 1_555 1_555
C4 C3 1_555 1_555
H4 C4 1_555 1_555
C5 N1 1_555 1_555
C6 N2 1_555 1_555
C7 O2 1_555 1_555
C8 N3 1_555 1_555
C9 C8 1_555 1_555
H5 C9 1_555 1_555
C10 C9 1_555 1_555
H6 C10 1_555 1_555
C11 C10 1_555 1_555
H7 C11 1_555 1_555
C12 N3 1_555 1_555
H8 C12 1_555 1_555
C13 H9 1_555 1_555
C14 C13 1_555 1_555
H10 C14 1_555 1_555
C15 C14 1_555 1_555
H11 C15 1_555 1_555
C16 C15 1_555 1_555
H12 C16 1_555 1_555
C17 N4 1_555 1_555
C18 O3 1_555 1_555
C19 O4 1_555 1_555
C20 C19 1_555 1_555
C21 C20 1_555 1_555
H13 C21 1_555 1_555
C22 C21 1_555 1_555
H14 C22 1_555 1_555
C23 C22 1_555 1_555
H15 C23 1_555 1_555
C24 N6 1_555 1_555
H16 C24 1_555 1_555
O5 Gd1 1_555 1_555
O6 Gd1 1_555 1_555
O7 N7 1_555 1_555
N7 O5 1_555 1_555
O8 Gd1 1_555 1_555
O9 Gd1 1_555 1_555
O10 N8 1_555 1_555
N8 O8 1_555 1_555
O11 Gd1 1_555 1_555
O12 N9 1_555 1_555
O13 N9 1_555 1_555
O14 N9 1_555 1_555
O15 N10 1_555 1_555
O16 N10 1_555 1_555
N10 C25 1_555 1_555
C25 H17 1_555 1_555
H18 C25 1_555 1_555
H19 C25 1_555 1_555
O17 N11 1_555 1_555
O18 N11 1_555 1_555
N11 C26 1_555 1_555
C26 H20 1_555 1_555
H21 C26 1_555 1_555
H22 C26 1_555 1_555
Fe1A N4 1_555 1_555
N4A Fe1 1_555 1_555
N5A Fe1 1_555 1_555
N6A Fe1 1_555 1_555
N2 C7 1_555 1_555
N5 C19 1_555 1_555
N5 Fe1A 1_555 1_555
N6 Fe1A 1_555 1_555
C4 C5 1_555 1_555
C5 C6 1_555 1_555
C7 C8 1_555 1_555
C11 C12 1_555 1_555
C16 C17 1_555 1_555
C17 C18 1_555 1_555
C23 C24 1_555 1_555
O6 N7 1_555 1_555
O9 N8 1_555 1_555

#END
