
#######################################################################
#
#                 Cambridge Crystallographic Data Centre
#                                CCDC 
#
#######################################################################
#
# If this CIF has been generated from an entry in the Cambridge 
# Structural Database, then it will include bibliographic, chemical, 
# crystal, experimental, refinement or atomic coordinate data resulting 
# from the CCDC's data processing and validation procedures.
#
#######################################################################

data_HATQID
_symmetry_cell_setting           orthorhombic
_symmetry_space_group_name_H-M   'P 21 21 21'
_symmetry_Int_Tables_number      19
_space_group_name_Hall           'P 2ac 2ab'
loop_
_symmetry_equiv_pos_site_id
_symmetry_equiv_pos_as_xyz
1 x,y,z
2 1/2-x,-y,1/2+z
3 1/2+x,1/2-y,-z
4 -x,1/2+y,1/2-z
_cell_length_a                   7.9965(4)
_cell_length_b                   12.5321(7)
_cell_length_c                   17.6130(12)
_cell_angle_alpha                90
_cell_angle_beta                 90
_cell_angle_gamma                90
_cell_volume                     1765.05
loop_
_atom_site_label
_atom_site_type_symbol
_atom_site_fract_x
_atom_site_fract_y
_atom_site_fract_z
Cu1 Cu 0.35385(4) 0.20393(3) 0.37990(2)
O1 O 0.2551(2) 0.28124(17) 0.29489(12)
O2 O 0.2727(3) 0.43996(19) 0.23852(16)
O3 O 0.4883(2) 0.14503(16) 0.46241(12)
O4 O 0.6896(3) 0.19213(18) 0.54210(14)
N1 N 0.5391(2) 0.31155(16) 0.37323(14)
N2 N 0.2135(3) 0.07731(18) 0.37095(16)
N3 N 0.0064(3) -0.02970(19) 0.34213(16)
H1 H -0.0846 -0.0543 0.3167
C1 C 0.0710(4) 0.0676(2) 0.33396(19)
H2 H 0.0209 0.1206 0.3069
C2 C 0.1133(4) -0.0879(2) 0.38689(18)
C3 C 0.2408(4) -0.0210(2) 0.4040(2)
H3 H 0.3206 -0.0290 0.4320
C4 C 0.0871(4) -0.2019(2) 0.40445(18)
C5 C -0.0350(4) -0.2608(2) 0.3696(2)
H4 H -0.1095 -0.2241 0.3374
C6 C -0.0461(5) -0.3700(3) 0.3830(2)
H5 H -0.1332 -0.4081 0.3617
C7 C 0.0594(6) -0.4186(3) 0.4324(3)
H6 H 0.0364 -0.4889 0.4376
C8 C 0.1764(7) -0.3614(3) 0.4681(3)
H7 H 0.2414 -0.4015 0.4994
C9 C 0.1947(5) -0.2530(3) 0.4542(2)
H8 H 0.2726 -0.2042 0.4836
C10 C 0.4600(4) 0.4070(2) 0.33956(19)
H9 H 0.4073 0.4436 0.3884
H10 H 0.5418 0.4455 0.3089
C11 C 0.3181(4) 0.3740(3) 0.28623(19)
C12 C 0.5918(4) 0.3219(2) 0.45370(18)
H11 H 0.6985 0.3540 0.4589
H12 H 0.5091 0.3711 0.4783
C13 C 0.5933(3) 0.2116(2) 0.48956(17)
C14 C 0.6833(3) 0.2677(2) 0.32684(19)
H13 H 0.7253 0.2022 0.3622
C15 C 0.6258(5) 0.2254(3) 0.2502(2)
H14 H 0.7186 0.1891 0.2322
H15 H 0.5554 0.1677 0.2563
H16 H 0.5806 0.2786 0.2164
C16 C 0.8254(4) 0.3472(3) 0.3181(3)
H17 H 0.8947 0.3088 0.3000
H18 H 0.8290 0.3813 0.3742
H19 H 0.8095 0.3950 0.2772
Cu1B Cu 0.85385(4) 0.29607(3) 0.62010(2)
O4B O 0.1896(3) 0.30787(18) 0.45790(14)
loop_
_geom_bond_atom_site_label_1
_geom_bond_atom_site_label_2
_geom_bond_site_symmetry_1
_geom_bond_site_symmetry_2
Cu1 O1 1_555 1_555
O1 C11 1_555 1_555
O2 C11 1_555 1_555
O3 Cu1 1_555 1_555
O4 C13 1_555 1_555
N1 Cu1 1_555 1_555
N2 Cu1 1_555 1_555
N3 H1 1_555 1_555
C1 N2 1_555 1_555
H2 C1 1_555 1_555
C2 N3 1_555 1_555
C3 N2 1_555 1_555
H3 C3 1_555 1_555
C4 C2 1_555 1_555
C5 C4 1_555 1_555
H4 C5 1_555 1_555
C6 C5 1_555 1_555
H5 C6 1_555 1_555
C7 C6 1_555 1_555
H6 C7 1_555 1_555
C8 C7 1_555 1_555
H7 C8 1_555 1_555
C9 C4 1_555 1_555
H8 C9 1_555 1_555
C10 N1 1_555 1_555
H9 C10 1_555 1_555
H10 C10 1_555 1_555
C11 C10 1_555 1_555
C12 N1 1_555 1_555
H11 C12 1_555 1_555
H12 C12 1_555 1_555
C13 O3 1_555 1_555
C14 N1 1_555 1_555
H13 C14 1_555 1_555
C15 C14 1_555 1_555
H14 C15 1_555 1_555
H15 C15 1_555 1_555
H16 C15 1_555 1_555
C16 C14 1_555 1_555
H17 C16 1_555 1_555
H18 C16 1_555 1_555
H19 C16 1_555 1_555
Cu1B O4 1_555 1_555
O4B Cu1 1_555 1_555
N3 C1 1_555 1_555
C2 C3 1_555 1_555
C8 C9 1_555 1_555
C12 C13 1_555 1_555

#END
