
#######################################################################
#
#                 Cambridge Crystallographic Data Centre
#                                CCDC 
#
#######################################################################
#
# If this CIF has been generated from an entry in the Cambridge 
# Structural Database, then it will include bibliographic, chemical, 
# crystal, experimental, refinement or atomic coordinate data resulting 
# from the CCDC's data processing and validation procedures.
#
#######################################################################

data_HATVUV05
_symmetry_cell_setting           trigonal
_symmetry_space_group_name_H-M   'P -3'
_symmetry_Int_Tables_number      147
_space_group_name_Hall           '-P 3'
loop_
_symmetry_equiv_pos_site_id
_symmetry_equiv_pos_as_xyz
1 x,y,z
2 -y,x-y,z
3 -x+y,-x,z
4 -x,-y,-z
5 y,-x+y,-z
6 x-y,x,-z
_cell_length_a                   9.944(3)
_cell_length_b                   9.944(3)
_cell_length_c                   8.126(2)
_cell_angle_alpha                90
_cell_angle_beta                 90
_cell_angle_gamma                120
_cell_volume                     695.873
loop_
_atom_site_label
_atom_site_type_symbol
_atom_site_fract_x
_atom_site_fract_y
_atom_site_fract_z
Fe1 Fe -1.0000 -1.0000 0.0000
N1 N -0.82554(23) -0.61946(16) -0.30029(18)
N2 N -0.74807(25) -0.68935(18) -0.3573(2)
N3 N -0.78423(25) -0.80669(18) -0.2621(2)
N4 N -0.88529(23) -0.81479(16) -0.14326(17)
C1 C -0.81088(28) -0.48128(19) -0.3811(2)
H1 H -0.8042 -0.4911 -0.5016
H2 H -0.9046 -0.4736 -0.3578
C2 C -0.6667 -0.3333 -0.3214(4)
H3 H -0.6667 -0.3333 -0.1983
C3 C -0.90804(28) -0.69664(19) -0.1701(2)
H4 H -0.9727 -0.6714 -0.1067
Fe1_2 Fe -1.0000 0.0000 0.0000
Fe1_3 Fe 0.0000 0.0000 0.0000
Fe1_4 Fe -2.0000 -2.0000 0.0000
Fe1_5 Fe -2.0000 -1.0000 0.0000
N1B N -0.79392(28) -0.17446(23) -0.30029(18)
N1A N -0.38054(16) -0.20608(28) -0.30029(18)
N1A_2 N -1.38054(16) -1.20608(28) -0.30029(18)
N1_2 N -1.82554(23) -1.61946(16) -0.30029(18)
N1B_2 N -1.79392(28) -1.17446(23) -0.30029(18)
N2B N -0.94128(31) -0.25193(25) -0.3573(2)
N2A N -0.31065(18) -0.05872(31) -0.3573(2)
N2A_2 N -1.31065(18) -1.05872(31) -0.3573(2)
N2_2 N -1.74807(25) -1.68935(18) -0.3573(2)
N2B_2 N -1.94128(31) -1.25193(25) -0.3573(2)
N3B N -1.02246(31) -0.21577(25) -0.2621(2)
N3A N -0.19331(18) 0.02246(31) -0.2621(2)
N3A_2 N -1.19331(18) -0.97754(31) -0.2621(2)
N3_2 N -1.78423(25) -1.80669(18) -0.2621(2)
N3B_2 N -2.02246(31) -1.21577(25) -0.2621(2)
N4B N -0.92950(28) -0.11471(23) -0.14326(17)
N4A N -0.18521(16) -0.07050(28) -0.14326(17)
N4A_2 N -1.18521(16) -1.07050(28) -0.14326(17)
N4_2 N -1.88529(23) -1.81479(16) -0.14326(17)
N4B_2 N -1.92950(28) -1.11471(23) -0.14326(17)
N4B_3 N -0.92950(28) -1.11471(23) -0.14326(17)
N4C N -1.11471(23) -1.18521(16) 0.14326(17)
N4D N -0.81479(16) -0.92950(28) 0.14326(17)
N4E N -1.07050(28) -0.88529(23) 0.14326(17)
C1B C -0.67040(34) -0.18912(28) -0.3811(2)
C1A C -0.51872(19) -0.32960(34) -0.3811(2)
C1A_2 C -1.51872(19) -1.32960(34) -0.3811(2)
C1_2 C -1.81088(28) -1.48128(19) -0.3811(2)
C1B_2 C -1.67040(34) -1.18912(28) -0.3811(2)
H1B H -0.6869 -0.1958 -0.5016
H1A H -0.5089 -0.3131 -0.5016
H1A_2 H -1.5089 -1.3131 -0.5016
H1_2 H -1.8042 -1.4911 -0.5016
H1B_2 H -1.6869 -1.1958 -0.5016
H2B H -0.5690 -0.0954 -0.3578
H2A H -0.5264 -0.4310 -0.3578
H2A_2 H -1.5264 -1.4310 -0.3578
H2_2 H -1.9046 -1.4736 -0.3578
H2B_2 H -1.5690 -1.0954 -0.3578
C2A C -1.6667 -1.3334 -0.3214(4)
H3A H -1.6667 -1.3334 -0.1983
C3B C -0.78860(34) -0.09196(28) -0.1701(2)
C3A C -0.30336(19) -0.21140(34) -0.1701(2)
C3A_2 C -1.30336(19) -1.21140(34) -0.1701(2)
C3_2 C -1.90804(28) -1.69664(19) -0.1701(2)
C3B_2 C -1.78860(34) -1.09196(28) -0.1701(2)
H4B H -0.6987 -0.0273 -0.1067
H4A H -0.3286 -0.3013 -0.1067
H4A_2 H -1.3286 -1.3013 -0.1067
H4_2 H -1.9727 -1.6714 -0.1067
H4B_2 H -1.6987 -1.0273 -0.1067
B1 B 0.3333 0.6667 0.1123(3)
F3 F 0.3333 0.6667 0.2826(3)
F4 F 0.1825(7) 0.6220(10) 0.0636(18)
F4A F 0.3780(10) 0.5605(12) 0.0636(18)
F4B F 0.4395(12) 0.8175(7) 0.0636(18)
F1? F 0.3740(8) 0.5612(8) 0.0516(11)
F2? F 0.4349(8) 0.8145(6) 0.0525(11)
loop_
_geom_bond_atom_site_label_1
_geom_bond_atom_site_label_2
_geom_bond_site_symmetry_1
_geom_bond_site_symmetry_2
Fe1 N4 1_555 1_555
N1 N2 1_555 1_555
N2 N3 1_555 1_555
N3 N4 1_555 1_555
N4 C3 1_555 1_555
C1 N1 1_555 1_555
H1 C1 1_555 1_555
H2 C1 1_555 1_555
C2 C1 1_555 1_555
H3 C2 1_555 1_555
C3 N1 1_555 1_555
H4 C3 1_555 1_555
B1 F3 1_555 1_555
F4 B1 1_555 1_555
Fe1_2 N4B 1_555 1_555
Fe1_3 N4A 1_555 1_555
Fe1_4 N4_2 1_555 1_555
Fe1_5 N4B_2 1_555 1_555
N1B N2B 1_555 1_555
N1A N2A 1_555 1_555
N1A_2 N2A_2 1_555 1_555
N1_2 N2_2 1_555 1_555
N1B_2 N2B_2 1_555 1_555
N2B N3B 1_555 1_555
N2A N3A 1_555 1_555
N2A_2 N3A_2 1_555 1_555
N2_2 N3_2 1_555 1_555
N2B_2 N3B_2 1_555 1_555
N3B N4B 1_555 1_555
N3A N4A 1_555 1_555
N3A_2 N4A_2 1_555 1_555
N3_2 N4_2 1_555 1_555
N3B_2 N4B_2 1_555 1_555
N4B C3B 1_555 1_555
N4A C3A 1_555 1_555
N4A_2 Fe1 1_555 1_555
N4_2 C3_2 1_555 1_555
N4B_2 C3B_2 1_555 1_555
N4B_3 Fe1 1_555 1_555
N4C Fe1 1_555 1_555
N4D Fe1 1_555 1_555
N4E Fe1 1_555 1_555
C1B C2 1_555 1_555
C1A C2 1_555 1_555
C1A_2 N1A_2 1_555 1_555
C1_2 N1_2 1_555 1_555
C1B_2 N1B_2 1_555 1_555
H1B C1B 1_555 1_555
H1A C1A 1_555 1_555
H1A_2 C1A_2 1_555 1_555
H1_2 C1_2 1_555 1_555
H1B_2 C1B_2 1_555 1_555
H2B C1B 1_555 1_555
H2A C1A 1_555 1_555
H2A_2 C1A_2 1_555 1_555
H2_2 C1_2 1_555 1_555
H2B_2 C1B_2 1_555 1_555
C2A C1A_2 1_555 1_555
H3A C2A 1_555 1_555
C3B N1B 1_555 1_555
C3A N1A 1_555 1_555
C3A_2 N1A_2 1_555 1_555
C3_2 N1_2 1_555 1_555
C3B_2 N1B_2 1_555 1_555
H4B C3B 1_555 1_555
H4A C3A 1_555 1_555
H4A_2 C3A_2 1_555 1_555
H4_2 C3_2 1_555 1_555
H4B_2 C3B_2 1_555 1_555
F4A B1 1_555 1_555
F4B B1 1_555 1_555
N1B C1B 1_555 1_555
N1A C1A 1_555 1_555
N4A_2 C3A_2 1_555 1_555
C1_2 C2A 1_555 1_555
C1B_2 C2A 1_555 1_555

#END
