
#######################################################################
#
#                 Cambridge Crystallographic Data Centre
#                                CCDC 
#
#######################################################################
#
# If this CIF has been generated from an entry in the Cambridge 
# Structural Database, then it will include bibliographic, chemical, 
# crystal, experimental, refinement or atomic coordinate data resulting 
# from the CCDC's data processing and validation procedures.
#
#######################################################################

data_HATVUV02
_symmetry_cell_setting           trigonal
_symmetry_space_group_name_H-M   'P -3'
_symmetry_Int_Tables_number      147
_space_group_name_Hall           '-P 3'
loop_
_symmetry_equiv_pos_site_id
_symmetry_equiv_pos_as_xyz
1 x,y,z
2 -y,x-y,z
3 -x+y,-x,z
4 -x,-y,-z
5 y,-x+y,-z
6 x-y,x,-z
_cell_length_a                   10.115(3)
_cell_length_b                   10.115(3)
_cell_length_c                   8.202(3)
_cell_angle_alpha                90
_cell_angle_beta                 90
_cell_angle_gamma                120
_cell_volume                     726.745
loop_
_atom_site_label
_atom_site_type_symbol
_atom_site_fract_x
_atom_site_fract_y
_atom_site_fract_z
Fe1 Fe 0.0000 0.0000 0.0000
N1 N 0.38561(17) 0.20855(17) 0.31424(17)
N2 N 0.3165(2) 0.06307(19) 0.3675(2)
N3 N 0.2033(2) -0.01543(19) 0.2704(2)
N4 N 0.19760(17) 0.07720(18) 0.15352(19)
C1 C 0.5209(2) 0.3286(2) 0.3958(2)
H1 H 0.5105 0.3106 0.5149
H2 H 0.5285 0.4285 0.3745
C2 C 0.6667 0.3333 0.3368(4)
H3 H 0.6667 0.3333 0.2149
C3 C 0.3119(2) 0.2148(2) 0.1845(2)
H4 H 0.3372 0.3041 0.1234
C1A C 0.6714(2) 0.1923(3) 0.3958(2)
N1A N 0.79145(17) 0.17706(24) 0.31424(17)
N2A N 0.93693(19) 0.25343(28) 0.3675(2)
N3A N 1.01543(19) 0.21873(28) 0.2704(2)
N4A N 0.92280(18) 0.12040(25) 0.15352(19)
C3A C 0.7852(2) 0.0971(3) 0.1845(2)
H4A H 0.6959 0.0331 0.1234
H1A H 0.6894 0.1999 0.5149
H2A H 0.5715 0.1000 0.3745
C1B C 0.8077(3) 0.4791(2) 0.3958(2)
N1B N 0.82294(24) 0.61439(17) 0.31424(17)
N2B N 0.74657(28) 0.6835(2) 0.3675(2)
N3B N 0.78127(28) 0.7967(2) 0.2704(2)
N4B N 0.87960(25) 0.80240(17) 0.15352(19)
C3B C 0.9029(3) 0.6881(2) 0.1845(2)
H4B H 0.9669 0.6628 0.1234
H1B H 0.8001 0.4895 0.5149
H2B H 0.9000 0.4715 0.3745
N1A_2 N -0.20855(17) 0.17706(24) 0.31424(17)
N2A_2 N -0.06307(19) 0.25343(28) 0.3675(2)
N3A_2 N 0.01543(19) 0.21873(28) 0.2704(2)
N4A_2 N -0.07720(18) 0.12040(25) 0.15352(19)
C1A_2 C -0.3286(2) 0.1923(3) 0.3958(2)
H1A_2 H -0.3106 0.1999 0.5149
H2A_2 H -0.4285 0.1000 0.3745
C2A C -0.3333 0.3334 0.3368(4)
H3A H -0.3333 0.3334 0.2149
C3A_2 C -0.2148(2) 0.0971(3) 0.1845(2)
H4A_2 H -0.3041 0.0331 0.1234
C1B_2 C -0.1923(3) 0.4791(2) 0.3958(2)
N1B_2 N -0.17706(24) 0.61439(17) 0.31424(17)
N2B_2 N -0.25343(28) 0.6835(2) 0.3675(2)
N3B_2 N -0.21873(28) 0.7967(2) 0.2704(2)
N4B_2 N -0.12040(25) 0.80240(17) 0.15352(19)
C3B_2 C -0.0971(3) 0.6881(2) 0.1845(2)
H4B_2 H -0.0331 0.6628 0.1234
H1B_2 H -0.1999 0.4895 0.5149
H2B_2 H -0.1000 0.4715 0.3745
C1_2 C -0.4791(2) 0.3286(2) 0.3958(2)
N1_2 N -0.61439(17) 0.20855(17) 0.31424(17)
N2_2 N -0.6835(2) 0.06307(19) 0.3675(2)
N3_2 N -0.7967(2) -0.01543(19) 0.2704(2)
N4_2 N -0.80240(17) 0.07720(18) 0.15352(19)
C3_2 C -0.6881(2) 0.2148(2) 0.1845(2)
H4_2 H -0.6628 0.3041 0.1234
H1_2 H -0.4895 0.3106 0.5149
H2_2 H -0.4715 0.4285 0.3745
N4B_3 N -0.12040(25) -0.19760(17) 0.15352(19)
N4E N 0.12040(25) 0.19760(17) -0.15352(19)
N4D N 0.07720(18) -0.12040(25) -0.15352(19)
N4C N -0.19760(17) -0.07720(18) -0.15352(19)
Fe1A Fe 1.0000 0.0000 0.0000
Fe1B Fe 1.0000 1.0000 0.0000
Fe1B_2 Fe 0.0000 1.0000 0.0000
Fe1_2 Fe -1.0000 0.0000 0.0000
B1 B 0.3333 0.6667 0.1020(6)
F1 F 0.3834(15) 0.5775(13) 0.022(3)
F2 F 0.1795(8) 0.6186(13) 0.076(2)
F3 F 0.325(4) 0.635(2) 0.2688(6)
F4 F 0.4428(16) 0.8068(11) 0.036(3)
B2? B 0.365(4) 0.704(3) 0.134(4)
F5? F 0.350(6) 0.567(5) 0.189(6)
F6? F 0.426(6) 0.812(4) 0.260(4)
F7? F 0.467(6) 0.757(5) 0.004(4)
F8? F 0.219(6) 0.680(4) 0.096(7)
loop_
_geom_bond_atom_site_label_1
_geom_bond_atom_site_label_2
_geom_bond_site_symmetry_1
_geom_bond_site_symmetry_2
Fe1 N4 1_555 1_555
N1 N2 1_555 1_555
N2 N3 1_555 1_555
N3 N4 1_555 1_555
N4 C3 1_555 1_555
C1 N1 1_555 1_555
H1 C1 1_555 1_555
H2 C1 1_555 1_555
C2 C1 1_555 1_555
H3 C2 1_555 1_555
C3 N1 1_555 1_555
H4 C3 1_555 1_555
B1 F1 1_555 1_555
F2 B1 1_555 1_555
F3 B1 1_555 1_555
F4 B1 1_555 1_555
C1A C2 1_555 1_555
N1A C1A 1_555 1_555
N2A N1A 1_555 1_555
N3A N2A 1_555 1_555
N4A N3A 1_555 1_555
C3A N1A 1_555 1_555
H4A C3A 1_555 1_555
H1A C1A 1_555 1_555
H2A C1A 1_555 1_555
C1B C2 1_555 1_555
N1B C1B 1_555 1_555
N2B N1B 1_555 1_555
N3B N2B 1_555 1_555
N4B N3B 1_555 1_555
C3B N1B 1_555 1_555
H4B C3B 1_555 1_555
H1B C1B 1_555 1_555
H2B C1B 1_555 1_555
N1A_2 N2A_2 1_555 1_555
N2A_2 N3A_2 1_555 1_555
N3A_2 N4A_2 1_555 1_555
N4A_2 Fe1 1_555 1_555
C1A_2 N1A_2 1_555 1_555
H1A_2 C1A_2 1_555 1_555
H2A_2 C1A_2 1_555 1_555
C2A C1A_2 1_555 1_555
H3A C2A 1_555 1_555
C3A_2 N1A_2 1_555 1_555
H4A_2 C3A_2 1_555 1_555
C1B_2 C2A 1_555 1_555
N1B_2 C1B_2 1_555 1_555
N2B_2 N1B_2 1_555 1_555
N3B_2 N2B_2 1_555 1_555
N4B_2 N3B_2 1_555 1_555
C3B_2 N1B_2 1_555 1_555
H4B_2 C3B_2 1_555 1_555
H1B_2 C1B_2 1_555 1_555
H2B_2 C1B_2 1_555 1_555
C1_2 C2A 1_555 1_555
N1_2 C1_2 1_555 1_555
N2_2 N1_2 1_555 1_555
N3_2 N2_2 1_555 1_555
N4_2 N3_2 1_555 1_555
C3_2 N1_2 1_555 1_555
H4_2 C3_2 1_555 1_555
H1_2 C1_2 1_555 1_555
H2_2 C1_2 1_555 1_555
N4B_3 Fe1 1_555 1_555
N4E Fe1 1_555 1_555
N4D Fe1 1_555 1_555
N4C Fe1 1_555 1_555
Fe1A N4A 1_555 1_555
Fe1B N4B 1_555 1_555
Fe1B_2 N4B_2 1_555 1_555
Fe1_2 N4_2 1_555 1_555
N4A C3A 1_555 1_555
N4B C3B 1_555 1_555
N4A_2 C3A_2 1_555 1_555
N4B_2 C3B_2 1_555 1_555
N4_2 C3_2 1_555 1_555

#END
