
#######################################################################
#
#                 Cambridge Crystallographic Data Centre
#                                CCDC 
#
#######################################################################
#
# If this CIF has been generated from an entry in the Cambridge 
# Structural Database, then it will include bibliographic, chemical, 
# crystal, experimental, refinement or atomic coordinate data resulting 
# from the CCDC's data processing and validation procedures.
#
#######################################################################

data_HATZOS01
_symmetry_cell_setting           monoclinic
_symmetry_space_group_name_H-M   'P 21/c'
_symmetry_Int_Tables_number      14
_space_group_name_Hall           '-P 2ybc'
loop_
_symmetry_equiv_pos_site_id
_symmetry_equiv_pos_as_xyz
1 x,y,z
2 -x,1/2+y,1/2-z
3 -x,-y,-z
4 x,1/2-y,1/2+z
_cell_length_a                   9.5431(6)
_cell_length_b                   12.4438(8)
_cell_length_c                   13.3198(9)
_cell_angle_alpha                90
_cell_angle_beta                 105.1650(10)
_cell_angle_gamma                90
_cell_volume                     1526.68
loop_
_atom_site_label
_atom_site_type_symbol
_atom_site_fract_x
_atom_site_fract_y
_atom_site_fract_z
Ag1 Ag -0.53470(5) 0.33000(3) 0.06142(3)
N1 N -0.3508(5) -0.0205(3) 0.4358(3)
N2 N -0.4111(4) 0.1848(3) 0.0532(3)
C1 C -0.2475(8) 0.0133(5) 0.5192(4)
H1 H -0.2315 -0.0257 0.5807
C2 C -0.1650(8) 0.1030(5) 0.5170(4)
H2 H -0.0944 0.1240 0.5761
C3 C -0.1875(7) 0.1614(4) 0.4269(4)
H3 H -0.1342 0.2235 0.4244
C4 C -0.2909(5) 0.1263(4) 0.3397(3)
C5 C -0.3690(5) 0.0351(4) 0.3483(4)
H4 H -0.4382 0.0113 0.2896
C6 C -0.3223(5) 0.1909(4) 0.2407(4)
C7 C -0.3386(5) 0.1320(4) 0.1401(3)
C8 C -0.2723(5) 0.0346(4) 0.1357(4)
H5 H -0.2261 -0.0011 0.1967
C9 C -0.2747(6) -0.0103(4) 0.0395(4)
H6 H -0.2300 -0.0759 0.0351
C10 C -0.3446(6) 0.0449(4) -0.0488(4)
H7 H -0.3457 0.0181 -0.1142
C11 C -0.4127(6) 0.1398(4) -0.0391(4)
H8 H -0.4628 0.1749 -0.0994
O1 O -0.3269(5) 0.2871(3) 0.2439(3)
Ag1A Ag -0.46530(5) -0.17000(3) 0.43858(3)
N1A N -0.6492(5) 0.4795(3) 0.0642(3)
S1 S -0.26444(17) 0.71893(12) 0.25703(12)
C12 C -0.0956(8) 0.6508(7) 0.3023(5)
O2 O -0.3032(8) 0.7032(7) 0.1490(5)
O3 O -0.2273(13) 0.8275(4) 0.2846(7)
O4 O -0.3494(8) 0.6745(6) 0.3187(8)
F1 F -0.0044(7) 0.6774(9) 0.2535(8)
F2 F -0.1117(8) 0.5467(5) 0.2864(6)
F3 F -0.0418(8) 0.6606(5) 0.4015(5)
loop_
_geom_bond_atom_site_label_1
_geom_bond_atom_site_label_2
_geom_bond_site_symmetry_1
_geom_bond_site_symmetry_2
Ag1 N2 1_555 1_555
S1 C12 1_555 1_555
N1 C1 1_555 1_555
N2 C7 1_555 1_555
C1 H1 1_555 1_555
C2 C1 1_555 1_555
H2 C2 1_555 1_555
C3 C2 1_555 1_555
H3 C3 1_555 1_555
C4 C3 1_555 1_555
C5 N1 1_555 1_555
H4 C5 1_555 1_555
C6 C4 1_555 1_555
C7 C6 1_555 1_555
C8 C7 1_555 1_555
H5 C8 1_555 1_555
C9 C8 1_555 1_555
H6 C9 1_555 1_555
C10 C9 1_555 1_555
H7 C10 1_555 1_555
C11 N2 1_555 1_555
H8 C11 1_555 1_555
C12 F1 1_555 1_555
O1 C6 1_555 1_555
O2 S1 1_555 1_555
O3 S1 1_555 1_555
O4 S1 1_555 1_555
F2 C12 1_555 1_555
F3 C12 1_555 1_555
Ag1A N1 1_555 1_555
N1A Ag1 1_555 1_555
C4 C5 1_555 1_555
C10 C11 1_555 1_555

#END
