
#######################################################################
#
#                 Cambridge Crystallographic Data Centre
#                                CCDC 
#
#######################################################################
#
# If this CIF has been generated from an entry in the Cambridge 
# Structural Database, then it will include bibliographic, chemical, 
# crystal, experimental, refinement or atomic coordinate data resulting 
# from the CCDC's data processing and validation procedures.
#
#######################################################################

data_HAVCUE
_symmetry_cell_setting           monoclinic
_symmetry_space_group_name_H-M   'C 2/c'
_symmetry_Int_Tables_number      15
_space_group_name_Hall           '-C 2yn'
loop_
_symmetry_equiv_pos_site_id
_symmetry_equiv_pos_as_xyz
1 x,y,z
2 -x,y,1/2-z
3 1/2+x,1/2+y,z
4 1/2-x,1/2+y,1/2-z
5 -x,-y,-z
6 x,-y,1/2+z
7 1/2-x,1/2-y,-z
8 1/2+x,1/2-y,1/2+z
_cell_length_a                   13.1472(4)
_cell_length_b                   7.1208(3)
_cell_length_c                   11.6303(4)
_cell_angle_alpha                90
_cell_angle_beta                 102.606(2)
_cell_angle_gamma                90
_cell_volume                     1062.57
loop_
_atom_site_label
_atom_site_type_symbol
_atom_site_fract_x
_atom_site_fract_y
_atom_site_fract_z
Hg1 Hg 0.00000 -0.02191(16) 0.25000
S1 S 0.1464(3) -0.1356(4) 0.3911(3)
N1 N 0.0541(6) 0.2738(14) 0.1522(6)
C1 C 0.2050(2) 0.0827(7) 0.4528(2)
C2 C 0.2676(5) 0.1850(6) 0.3935(5)
C3 C 0.1874(5) 0.1479(6) 0.5593(4)
C4 C 0.0024(8) 0.4356(10) 0.1878(7)
H1 H 0.0340(10) 0.260(2) 0.0650(10)
H2 H 0.1310(10) 0.291(2) 0.1770(10)
H3 H 0.2800(10) 0.1380(10) 0.3170(10)
H4 H 0.1420(10) 0.0740(10) 0.6020(10)
H5 H 0.0380(10) 0.5520(10) 0.1690(10)
H6 H -0.0720(10) 0.437(2) 0.1440(10)
Hg1F Hg 0.50000 0.52191(16) 0.75000
S1F S 0.3536(3) 0.6356(4) 0.6089(3)
S1A S -0.1464(3) -0.1356(4) 0.1089(3)
N1A N -0.0541(6) 0.2738(14) 0.3478(6)
C1F C 0.2950(2) 0.4173(7) 0.5472(2)
C2F C 0.2324(5) 0.3150(6) 0.6065(5)
C3F C 0.3126(5) 0.3521(6) 0.4407(4)
C4A C -0.0024(8) 0.4356(10) 0.3122(7)
H1A H -0.0340(10) 0.260(2) 0.4350(10)
H2A H -0.1310(10) 0.291(2) 0.3230(10)
H3F H 0.2200(10) 0.3620(10) 0.6830(10)
H4F H 0.3580(10) 0.4260(10) 0.3980(10)
H5A H -0.0380(10) 0.5520(10) 0.3310(10)
H6A H 0.0720(10) 0.437(2) 0.3560(10)
loop_
_geom_bond_atom_site_label_1
_geom_bond_atom_site_label_2
_geom_bond_site_symmetry_1
_geom_bond_site_symmetry_2
Hg1 S1 1_555 1_555
S1 C1 1_555 1_555
N1 Hg1 1_555 1_555
C1 C2 1_555 1_555
C2 H3 1_555 1_555
C3 C1 1_555 1_555
C4 N1 1_555 1_555
H1 N1 1_555 1_555
H2 N1 1_555 1_555
H4 C3 1_555 1_555
H5 C4 1_555 1_555
H6 C4 1_555 1_555
Hg1F S1F 1_555 1_555
S1F C1F 1_555 1_555
S1A Hg1 1_555 1_555
N1A Hg1 1_555 1_555
C1F C2F 1_555 1_555
C2F C3 1_555 1_555
C3F C2 1_555 1_555
C4A C4 1_555 1_555
H1A N1A 1_555 1_555
H2A N1A 1_555 1_555
H3F C2F 1_555 1_555
H4F C3F 1_555 1_555
H5A C4A 1_555 1_555
H6A C4A 1_555 1_555
N1A C4A 1_555 1_555
C1F C3F 1_555 1_555

#END
