
#######################################################################
#
#                 Cambridge Crystallographic Data Centre
#                                CCDC 
#
#######################################################################
#
# If this CIF has been generated from an entry in the Cambridge 
# Structural Database, then it will include bibliographic, chemical, 
# crystal, experimental, refinement or atomic coordinate data resulting 
# from the CCDC's data processing and validation procedures.
#
#######################################################################

data_HAVDAL
_symmetry_cell_setting           triclinic
_symmetry_space_group_name_H-M   'P -1'
_symmetry_Int_Tables_number      2
_space_group_name_Hall           '-P 1'
loop_
_symmetry_equiv_pos_site_id
_symmetry_equiv_pos_as_xyz
1 x,y,z
2 -x,-y,-z
_cell_length_a                   7.3106(3)
_cell_length_b                   10.2825(4)
_cell_length_c                   10.2809(4)
_cell_angle_alpha                61.186(3)
_cell_angle_beta                 86.117(3)
_cell_angle_gamma                86.053(3)
_cell_volume                     675.01
loop_
_atom_site_label
_atom_site_type_symbol
_atom_site_fract_x
_atom_site_fract_y
_atom_site_fract_z
Pb1 Pb 0.7503(6) 0.3942(3) 0.1073(3)
S1 S 1.102(2) 0.2680(10) 0.0476(13)
S2 S 0.387(2) 0.392(2) 0.277(2)
N1 N 0.566(2) 0.1810(10) 0.116(2)
N2 N 0.7130(10) 0.1860(10) 0.3680(10)
N3 N 0.927(2) 0.4380(10) 0.2970(10)
C1 C 1.0450(10) 0.1190(10) 0.0210(10)
C2 C 0.4500(10) 0.4520(10) 0.4010(10)
C3 C 0.9640(10) 0.1470(10) -0.110(2)
C4 C 0.3950(10) 0.374(2) 0.5520(10)
C5 C 1.0820(10) -0.0280(10) 0.1320(10)
C6 C 0.5550(10) 0.578(2) 0.3490(10)
C7 C 0.524(2) 0.0680(10) 0.269(2)
C8 C 0.678(2) 0.0480(10) 0.3690(10)
C9 C 0.8640(10) 0.1740(10) 0.4590(10)
C10 C 0.893(2) 0.3230(10) 0.4500(10)
H1 H 0.633(2) 0.1370(10) 0.071(2)
H2 H 0.9410(10) 0.2410(10) -0.181(3)
H3 H 0.4600(10) 0.2190(10) 0.071(2)
H4 H 0.3270(10) 0.293(3) 0.585(2)
H5 H 1.1330(10) -0.0460(10) 0.216(3)
H6 H 0.5090(10) -0.0200(10) 0.271(2)
H7 H 0.5910(10) 0.6280(10) 0.2530(10)
H8 H 0.420(2) 0.0950(10) 0.303(2)
H9 H 0.649(2) -0.0210(10) 0.4630(10)
H10 H 0.782(2) 0.0170(10) 0.3380(10)
H11 H 0.6110(10) 0.2270(10) 0.3900(10)
H12 H 0.9680(10) 0.1450(10) 0.4270(10)
H13 H 0.8390(10) 0.107(2) 0.5540(10)
H14 H 0.990(2) 0.315(2) 0.5030(10)
H15 H 0.792(2) 0.351(2) 0.4880(10)
H16 H 1.048(2) 0.438(2) 0.2740(10)
H17 H 0.890(2) 0.5270(10) 0.288(2)
Pb1A Pb 1.2497(6) -0.3942(3) -0.1073(3)
Pb1A_2 Pb 0.2497(6) 0.6058(3) 0.8927(3)
S1A S 0.898(2) -0.2680(10) -0.0476(13)
S2A S 0.613(2) 0.608(2) 0.723(2)
S2A_2 S 1.613(2) -0.392(2) -0.277(2)
N1A N 1.434(2) -0.1810(10) -0.116(2)
N2A N 1.2870(10) -0.1860(10) -0.3680(10)
N3A N 1.073(2) -0.4380(10) -0.2970(10)
C1A C 0.9550(10) -0.1190(10) -0.0210(10)
C2A C 0.5500(10) 0.5480(10) 0.5990(10)
C3A C 1.0360(10) -0.1470(10) 0.110(2)
C4A C 0.6050(10) 0.626(2) 0.4480(10)
C5A C 0.9180(10) 0.0280(10) -0.1320(10)
C6A C 0.4450(10) 0.422(2) 0.6510(10)
C7A C 1.476(2) -0.0680(10) -0.269(2)
C8A C 1.322(2) -0.0480(10) -0.3690(10)
C9A C 1.1360(10) -0.1740(10) -0.4590(10)
C10A C 1.107(2) -0.3230(10) -0.4500(10)
H1A H 1.367(2) -0.1370(10) -0.071(2)
H2A H 1.0590(10) -0.2410(10) 0.181(3)
H3A H 1.5400(10) -0.2190(10) -0.071(2)
H4A H 0.6730(10) 0.707(3) 0.415(2)
H5A H 0.8670(10) 0.0460(10) -0.216(3)
H6A H 1.4910(10) 0.0200(10) -0.271(2)
H7A H 0.4090(10) 0.3720(10) 0.7470(10)
H8A H 1.580(2) -0.0950(10) -0.303(2)
H9A H 1.351(2) 0.0210(10) -0.4630(10)
H10A H 1.218(2) -0.0170(10) -0.3380(10)
H11A H 1.3890(10) -0.2270(10) -0.3900(10)
H12A H 1.0320(10) -0.1450(10) -0.4270(10)
H13A H 1.1610(10) -0.107(2) -0.5540(10)
H14A H 1.010(2) -0.315(2) -0.5030(10)
H15A H 1.208(2) -0.351(2) -0.4880(10)
H16A H 0.952(2) -0.438(2) -0.2740(10)
H17A H 1.110(2) -0.5270(10) -0.288(2)
loop_
_geom_bond_atom_site_label_1
_geom_bond_atom_site_label_2
_geom_bond_site_symmetry_1
_geom_bond_site_symmetry_2
Pb1 S1 1_555 1_555
S1 C1 1_555 1_555
S2 Pb1 1_555 1_555
N1 Pb1 1_555 1_555
N2 Pb1 1_555 1_555
N3 Pb1 1_555 1_555
C1 C3 1_555 1_555
C2 S2 1_555 1_555
C3 H2 1_555 1_555
C4 C2 1_555 1_555
C5 C1 1_555 1_555
C6 C2 1_555 1_555
C7 N1 1_555 1_555
C8 N2 1_555 1_555
C9 N2 1_555 1_555
C10 N3 1_555 1_555
H1 N1 1_555 1_555
H3 N1 1_555 1_555
H4 C4 1_555 1_555
H5 C5 1_555 1_555
H6 C7 1_555 1_555
H7 C6 1_555 1_555
H8 C7 1_555 1_555
H9 C8 1_555 1_555
H10 C8 1_555 1_555
H11 N2 1_555 1_555
H12 C9 1_555 1_555
H13 C9 1_555 1_555
H14 C10 1_555 1_555
H15 C10 1_555 1_555
H16 N3 1_555 1_555
H17 N3 1_555 1_555
Pb1A S1A 1_555 1_555
Pb1A_2 S2A 1_555 1_555
S1A C1A 1_555 1_555
S2A C2A 1_555 1_555
S2A_2 Pb1A 1_555 1_555
N1A Pb1A 1_555 1_555
N2A Pb1A 1_555 1_555
N3A Pb1A 1_555 1_555
C1A C3A 1_555 1_555
C2A C4A 1_555 1_555
C3A C5 1_555 1_555
C4A C6 1_555 1_555
C5A C3 1_555 1_555
C6A C4 1_555 1_555
C7A N1A 1_555 1_555
C8A N2A 1_555 1_555
C9A N2A 1_555 1_555
C10A N3A 1_555 1_555
H1A N1A 1_555 1_555
H2A C3A 1_555 1_555
H3A N1A 1_555 1_555
H4A C4A 1_555 1_555
H5A C5A 1_555 1_555
H6A C7A 1_555 1_555
H7A C6A 1_555 1_555
H8A C7A 1_555 1_555
H9A C8A 1_555 1_555
H10A C8A 1_555 1_555
H11A N2A 1_555 1_555
H12A C9A 1_555 1_555
H13A C9A 1_555 1_555
H14A C10A 1_555 1_555
H15A C10A 1_555 1_555
H16A N3A 1_555 1_555
H17A N3A 1_555 1_555
C7 C8 1_555 1_555
C9 C10 1_555 1_555
C1A C5A 1_555 1_555
C2A C6A 1_555 1_555
C7A C8A 1_555 1_555
C9A C10A 1_555 1_555

#END
