
#######################################################################
#
#                 Cambridge Crystallographic Data Centre
#                                CCDC 
#
#######################################################################
#
# If this CIF has been generated from an entry in the Cambridge 
# Structural Database, then it will include bibliographic, chemical, 
# crystal, experimental, refinement or atomic coordinate data resulting 
# from the CCDC's data processing and validation procedures.
#
#######################################################################

data_HAVDAK
_symmetry_cell_setting           monoclinic
_symmetry_space_group_name_H-M   'C 2/c'
_symmetry_Int_Tables_number      15
_space_group_name_Hall           '-C 2yn'
loop_
_symmetry_equiv_pos_site_id
_symmetry_equiv_pos_as_xyz
1 x,y,z
2 1/2+x,1/2+y,z
3 -x,y,1/2-z
4 1/2-x,1/2+y,1/2-z
5 -x,-y,-z
6 1/2-x,1/2-y,-z
7 x,-y,1/2+z
8 1/2+x,1/2-y,1/2+z
_cell_length_a                   17.2451(10)
_cell_length_b                   10.4431(8)
_cell_length_c                   7.0349(5)
_cell_angle_alpha                90
_cell_angle_beta                 111.9830(10)
_cell_angle_gamma                90
_cell_volume                     1174.82
loop_
_atom_site_label
_atom_site_type_symbol
_atom_site_fract_x
_atom_site_fract_y
_atom_site_fract_z
Mn1 Mn 0.5000 0.42949(6) 0.2500
Cl1 Cl 0.59001(4) 0.57823(7) 0.51538(11)
N1 N 0.42435(16) 0.2562(2) 0.0961(4)
C1 C 0.3487(2) 0.2568(4) -0.0509(6)
H1 H 0.325(2) 0.337(2) -0.095(6)
C2 C 0.3035(3) 0.1455(7) -0.1255(8)
H2 H 0.2542(19) 0.163(4) -0.234(5)
C3 C 0.3376(4) 0.0316(6) -0.0515(9)
H3 H 0.309(3) -0.045(3) -0.101(8)
C4 C 0.4181(3) 0.0245(4) 0.0979(7)
C5 C 0.4586(2) 0.1418(3) 0.1703(5)
C6 C 0.4617(4) -0.0921(3) 0.1803(9)
H4 H 0.431(3) -0.167(4) 0.120(7)
Mn1F Mn 0.5000 0.57051(6) 0.7500
Mn1F_2 Mn 0.5000 0.57051(6) -0.2500
Cl1F Cl 0.59001(4) 0.42177(7) 0.01538(11)
Cl1D Cl 0.40999(4) 0.42177(7) 0.48462(11)
Cl1B Cl 0.40999(4) 0.57823(7) -0.01538(11)
N1B N 0.57565(16) 0.2562(2) 0.4039(4)
C1B C 0.6513(2) 0.2568(4) 0.5509(6)
H1B H 0.675(2) 0.337(2) 0.595(6)
C2B C 0.6965(3) 0.1455(7) 0.6255(8)
H2B H 0.7458(19) 0.163(4) 0.734(5)
C3B C 0.6624(4) 0.0316(6) 0.5515(9)
H3B H 0.691(3) -0.045(3) 0.601(8)
C4B C 0.5819(3) 0.0245(4) 0.4021(7)
C5B C 0.5414(2) 0.1418(3) 0.3297(5)
C6B C 0.5383(4) -0.0921(3) 0.3197(9)
H4B H 0.569(3) -0.167(4) 0.380(7)
loop_
_geom_bond_atom_site_label_1
_geom_bond_atom_site_label_2
_geom_bond_site_symmetry_1
_geom_bond_site_symmetry_2
Mn1 Cl1 1_555 1_555
Cl1 Mn1F 1_555 1_555
N1 Mn1 1_555 1_555
C1 N1 1_555 1_555
H1 C1 1_555 1_555
C2 C1 1_555 1_555
H2 C2 1_555 1_555
C3 C2 1_555 1_555
H3 C3 1_555 1_555
C4 C3 1_555 1_555
C5 N1 1_555 1_555
C6 C4 1_555 1_555
H4 C6 1_555 1_555
Mn1F Cl1D 1_555 1_555
Mn1F_2 Cl1F 1_555 1_555
Cl1F Mn1 1_555 1_555
Cl1D Mn1 1_555 1_555
Cl1B Mn1 1_555 1_555
N1B Mn1 1_555 1_555
C1B N1B 1_555 1_555
H1B C1B 1_555 1_555
C2B C1B 1_555 1_555
H2B C2B 1_555 1_555
C3B C2B 1_555 1_555
H3B C3B 1_555 1_555
C4B C3B 1_555 1_555
C5B C5 1_555 1_555
C6B C6 1_555 1_555
H4B C6B 1_555 1_555
C4 C5 1_555 1_555
Mn1F_2 Cl1B 1_555 1_555
N1B C5B 1_555 1_555
C4B C5B 1_555 1_555
C4B C6B 1_555 1_555

#END
