
#######################################################################
#
#                 Cambridge Crystallographic Data Centre
#                                CCDC 
#
#######################################################################
#
# If this CIF has been generated from an entry in the Cambridge 
# Structural Database, then it will include bibliographic, chemical, 
# crystal, experimental, refinement or atomic coordinate data resulting 
# from the CCDC's data processing and validation procedures.
#
#######################################################################

data_HAVFAM
_symmetry_cell_setting           monoclinic
_symmetry_space_group_name_H-M   'C 2/c'
_symmetry_Int_Tables_number      15
_space_group_name_Hall           '-C 2yn'
loop_
_symmetry_equiv_pos_site_id
_symmetry_equiv_pos_as_xyz
1 x,y,z
2 1/2+x,1/2+y,z
3 -x,y,1/2-z
4 1/2-x,1/2+y,1/2-z
5 -x,-y,-z
6 1/2-x,1/2-y,-z
7 x,-y,1/2+z
8 1/2+x,1/2-y,1/2+z
_cell_length_a                   7.7865(12)
_cell_length_b                   20.4215(18)
_cell_length_c                   13.4880(14)
_cell_angle_alpha                90
_cell_angle_beta                 103.298(2)
_cell_angle_gamma                90
_cell_volume                     2087.25
loop_
_atom_site_label
_atom_site_type_symbol
_atom_site_fract_x
_atom_site_fract_y
_atom_site_fract_z
Co1 Co 0.5000 0.21088(4) 0.2500
O1 O 0.3147(4) 0.1492(2) 0.2436(3)
O2 O 0.1509(4) 0.18090(18) 0.3489(3)
N1 N 0.4382(5) 0.26957(19) 0.1299(3)
N2 N 0.4555(5) 0.3271(2) -0.0046(3)
H1 H 0.4965 0.3417 -0.0544
C1 C 0.5293(6) 0.2822(2) 0.0620(3)
H2 H 0.6353 0.2616 0.0608
C2 C 0.2894(6) 0.3093(2) 0.1043(3)
C3 C 0.1465(6) 0.3150(3) 0.1495(4)
H3 H 0.1372 0.2900 0.2057
C4 C 0.0206(7) 0.3596(3) 0.1062(4)
H4 H -0.0773 0.3651 0.1339
C5 C 0.0339(7) 0.3967(3) 0.0230(4)
H5 H -0.0552 0.4264 -0.0038
C6 C 0.1724(7) 0.3910(3) -0.0205(4)
H6 H 0.1807 0.4165 -0.0764
C7 C 0.3001(6) 0.3467(2) 0.0203(3)
C8 C 0.1903(5) 0.1420(2) 0.2894(3)
C9 C 0.0918(6) 0.0799(2) 0.2648(3)
C10 C 0.1804(7) 0.0216(3) 0.2784(4)
H7 H 0.3030 0.0215 0.2975
C11 C 0.0913(8) -0.0364(3) 0.2645(5)
H8 H 0.1529 -0.0757 0.2743
Co1_2 Co -0.5000 0.21088(4) 0.2500
O1B O -0.3147(4) 0.1492(2) 0.2564(3)
O1B_2 O 0.6853(4) 0.1492(2) 0.2564(3)
O2B O -0.1509(4) 0.18090(18) 0.1511(3)
N1B N 0.5618(5) 0.26957(19) 0.3701(3)
N2B N 0.5445(5) 0.3271(2) 0.5046(3)
H1B H 0.5035 0.3417 0.5544
C1B C 0.4707(6) 0.2822(2) 0.4380(3)
H2B H 0.3647 0.2616 0.4392
C2B C 0.7106(6) 0.3093(2) 0.3957(3)
C3B C 0.8535(6) 0.3150(3) 0.3505(4)
H3B H 0.8628 0.2900 0.2943
C4B C 0.9794(7) 0.3596(3) 0.3938(4)
H4B H 1.0773 0.3651 0.3661
C5B C 0.9661(7) 0.3967(3) 0.4770(4)
H5B H 1.0552 0.4264 0.5038
C6B C 0.8276(7) 0.3910(3) 0.5205(4)
H6B H 0.8193 0.4165 0.5764
C7B C 0.6999(6) 0.3467(2) 0.4797(3)
C8B C -0.1903(5) 0.1420(2) 0.2106(3)
C9B C -0.0918(6) 0.0799(2) 0.2352(3)
C10B C -0.1804(7) 0.0216(3) 0.2216(4)
H7B H -0.3030 0.0215 0.2025
C11B C -0.0913(8) -0.0364(3) 0.2355(5)
H8B H -0.1529 -0.0757 0.2257
loop_
_geom_bond_atom_site_label_1
_geom_bond_atom_site_label_2
_geom_bond_site_symmetry_1
_geom_bond_site_symmetry_2
Co1 O1 1_555 1_555
O1 C8 1_555 1_555
O2 C8 1_555 1_555
N1 Co1 1_555 1_555
N2 H1 1_555 1_555
C1 N1 1_555 1_555
H2 C1 1_555 1_555
C2 N1 1_555 1_555
C3 C2 1_555 1_555
H3 C3 1_555 1_555
C4 C3 1_555 1_555
H4 C4 1_555 1_555
C5 C4 1_555 1_555
H5 C5 1_555 1_555
C6 C5 1_555 1_555
H6 C6 1_555 1_555
C7 N2 1_555 1_555
C8 C9 1_555 1_555
C9 C10 1_555 1_555
C10 H7 1_555 1_555
C11 C10 1_555 1_555
H8 C11 1_555 1_555
Co1_2 O1B 1_555 1_555
O1B C8B 1_555 1_555
O1B_2 Co1 1_555 1_555
O2B C8B 1_555 1_555
N1B Co1 1_555 1_555
N2B H1B 1_555 1_555
C1B N1B 1_555 1_555
H2B C1B 1_555 1_555
C2B N1B 1_555 1_555
C3B C2B 1_555 1_555
H3B C3B 1_555 1_555
C4B C3B 1_555 1_555
H4B C4B 1_555 1_555
C5B C4B 1_555 1_555
H5B C5B 1_555 1_555
C6B C5B 1_555 1_555
H6B C6B 1_555 1_555
C7B N2B 1_555 1_555
C8B C9B 1_555 1_555
C9B C9 1_555 1_555
C10B C9B 1_555 1_555
H7B C10B 1_555 1_555
C11B C11 1_555 1_555
H8B C11B 1_555 1_555
N2 C1 1_555 1_555
C2 C7 1_555 1_555
C6 C7 1_555 1_555
N2B C1B 1_555 1_555
C2B C7B 1_555 1_555
C6B C7B 1_555 1_555
C10B C11B 1_555 1_555

#END
