
#######################################################################
#
#                 Cambridge Crystallographic Data Centre
#                                CCDC 
#
#######################################################################
#
# If this CIF has been generated from an entry in the Cambridge 
# Structural Database, then it will include bibliographic, chemical, 
# crystal, experimental, refinement or atomic coordinate data resulting 
# from the CCDC's data processing and validation procedures.
#
#######################################################################

data_HAVGER
_symmetry_cell_setting           monoclinic
_symmetry_space_group_name_H-M   'P 21/c'
_symmetry_Int_Tables_number      14
_space_group_name_Hall           '-P 2ybc'
loop_
_symmetry_equiv_pos_site_id
_symmetry_equiv_pos_as_xyz
1 x,y,z
2 -x,1/2+y,1/2-z
3 -x,-y,-z
4 x,1/2-y,1/2+z
_cell_length_a                   26.4760(5)
_cell_length_b                   14.5799(3)
_cell_length_c                   19.8146(2)
_cell_angle_alpha                90
_cell_angle_beta                 103.7710(10)
_cell_angle_gamma                90
_cell_volume                     7428.92
loop_
_atom_site_label
_atom_site_type_symbol
_atom_site_fract_x
_atom_site_fract_y
_atom_site_fract_z
Mo1 Mo 0.70918(4) 0.48436(6) 0.44602(5)
Mo2 Mo 0.81448(3) 0.59134(7) 0.36243(5)
Mo3 Mo 0.81730(4) 0.68870(7) 0.87800(5)
Mo4 Mo 0.68040(4) 0.62323(6) 0.88058(5)
Mo5 Mo 0.61952(3) 0.81547(6) 0.87654(4)
Mo6 Mo 0.68107(3) 1.00296(6) 0.78746(5)
Ni1 Ni 0.53952(5) 0.94860(9) 0.73803(7)
P1 P 0.74863(10) 0.69576(18) 0.48270(13)
P2 P 0.70760(10) 0.78668(19) 0.76536(13)
N1 N 0.4647(3) 0.8966(6) 0.7308(5)
N2 N 0.5227(3) 1.0125(6) 0.8229(5)
N3 N 0.5535(4) 0.8907(6) 0.6494(5)
N4 N 0.5224(3) 1.0602(6) 0.6710(4)
O2 O 0.7055(3) 1.0729(5) 0.7336(4)
O4 O 0.6146(3) 1.0022(5) 0.7535(4)
O6 O 0.6904(3) 0.8833(5) 0.7396(3)
O8 O 0.5913(3) 0.8417(5) 0.9427(4)
O10 O 0.5716(3) 0.8386(5) 0.8017(4)
O12 O 0.6611(3) 0.5510(6) 0.8123(5)
O13 O 0.6870(3) 0.5531(5) 0.9521(4)
O14 O 0.6161(3) 0.6835(5) 0.8807(4)
O15 O 0.6733(2) 0.7511(5) 0.8119(3)
O16 O 0.6971(3) 0.7427(5) 0.4497(3)
O17 O 0.8530(3) 0.5261(6) 0.4257(5)
O18 O 0.8256(3) 0.5498(6) 0.2868(4)
O19 O 0.6642(3) 0.4566(6) 0.4916(4)
O20 O 0.7611(3) 0.4156(5) 0.4819(4)
O21 O 0.7488(3) 0.5380(5) 0.3596(3)
O22 O 0.6825(3) 0.4138(5) 0.3630(4)
O23 O 0.7388(3) 0.5949(5) 0.5016(3)
O24 O 0.6616(3) 0.5828(5) 0.3776(3)
O25 O 0.8552(3) 0.6456(6) 0.9534(5)
O26 O 0.8345(3) 0.6245(6) 0.8143(5)
O27 O 0.8566(3) 0.7015(5) 0.3706(4)
O28 O 0.7654(3) 0.7860(5) 0.8005(3)
O29 O 0.7519(3) 0.6367(5) 0.8804(4)
O30 O 0.7885(3) 0.6937(5) 0.4378(3)
C1 C 0.4377(5) 0.8358(9) 0.6875(6)
H1 H 0.4511 0.8154 0.6508
C2 C 0.3900(5) 0.8007(10) 0.6941(7)
H2 H 0.3727 0.7571 0.6627
C3 C 0.3694(5) 0.8297(10) 0.7456(7)
H3 H 0.3375 0.8071 0.7500
C4 C 0.3962(5) 0.8946(9) 0.7928(7)
C5 C 0.3783(5) 0.9327(10) 0.8520(7)
H4 H 0.3459 0.9152 0.8583
C6 C 0.4069(5) 0.9913(10) 0.8967(7)
H5 H 0.3942 1.0127 0.9337
C7 C 0.4564(5) 1.0222(8) 0.8899(6)
C8 C 0.4893(5) 1.0803(8) 0.9366(6)
H6 H 0.4789 1.1032 0.9750
C9 C 0.5364(5) 1.1031(8) 0.9262(6)
H7 H 0.5583 1.1417 0.9574
C10 C 0.5525(5) 1.0682(8) 0.8673(6)
H8 H 0.5848 1.0852 0.8603
C11 C 0.4752(4) 0.9892(8) 0.8323(6)
C12 C 0.4447(4) 0.9272(8) 0.7841(6)
C13 C 0.5654(4) 0.8058(8) 0.6371(6)
H9 H 0.5625 0.7611 0.6695
C14 C 0.5820(5) 0.7786(9) 0.5781(6)
H10 H 0.5897 0.7174 0.5717
C15 C 0.5869(4) 0.8436(8) 0.5298(6)
H11 H 0.5982 0.8273 0.4905
C16 C 0.5745(4) 0.9354(8) 0.5410(5)
C17 C 0.5782(5) 1.0086(9) 0.4949(6)
H12 H 0.5898 0.9961 0.4551
C18 C 0.5653(5) 1.0959(10) 0.5072(6)
H13 H 0.5690 1.1422 0.4764
C19 C 0.5459(4) 1.1179(8) 0.5677(5)
C20 C 0.5316(4) 1.2055(8) 0.5822(6)
H14 H 0.5358 1.2545 0.5540
C21 C 0.5111(5) 1.2190(8) 0.6391(6)
H15 H 0.5002 1.2771 0.6491
C22 C 0.5067(4) 1.1440(8) 0.6818(6)
H16 H 0.4920 1.1537 0.7194
C23 C 0.5416(4) 1.0456(7) 0.6133(5)
C24 C 0.5567(4) 0.9549(7) 0.6014(5)
C61 C 0.7786(5) 0.7587(8) 0.5591(5)
H41 H 0.8089 0.7248 0.5838
H42 H 0.7907 0.8167 0.5449
C62 C 0.7441(5) 0.7790(8) 0.6104(6)
H43 H 0.7600 0.8273 0.6420
H44 H 0.7104 0.8006 0.5846
C63 C 0.6956(4) 0.7072(8) 0.6939(6)
H45 H 0.6633 0.7250 0.6620
H46 H 0.6900 0.6472 0.7120
C64 C 0.7368(5) 0.6963(8) 0.6514(6)
H47 H 0.7271 0.6451 0.6197
H48 H 0.7698 0.6813 0.6828
Mo1C Mo 0.70918(4) 1.01564(6) 0.94602(5)
Mo2C Mo 0.81448(3) 0.90866(7) 0.86243(5)
Mo3C Mo 0.81730(4) 0.81130(7) 0.37800(5)
Mo4C Mo 0.68040(4) 0.87677(6) 0.38058(5)
Mo5C Mo 0.61952(3) 0.68453(6) 0.37654(4)
Mo6C Mo 0.68107(3) 0.49704(6) 0.28746(5)
O16C O 0.6971(3) 0.7573(5) 0.9497(3)
O21C O 0.7488(3) 0.9620(5) 0.8596(3)
O22C O 0.6825(3) 1.0862(5) 0.8630(4)
O24C O 0.6616(3) 0.9172(5) 0.8776(3)
O27C O 0.8566(3) 0.7985(5) 0.8706(4)
O28C O 0.7654(3) 0.7140(5) 0.3005(3)
O30C O 0.7885(3) 0.8063(5) 0.9378(3)
Ni2 Ni 0.91075(5) 0.29823(10) 0.23048(7)
N5 N 0.8593(4) 0.2748(7) 0.2942(5)
N6 N 0.8734(3) 0.1801(6) 0.1845(5)
N7 N 0.9704(4) 0.2225(6) 0.2959(5)
N8 N 0.9494(4) 0.4024(7) 0.2952(5)
N9 N 0.8595(4) 0.3827(7) 0.1600(6)
N10 N 0.9528(3) 0.3168(7) 0.1546(5)
C25 C 0.8530(6) 0.3261(9) 0.3472(8)
H17 H 0.8738 0.3776 0.3600
C26 C 0.8155(7) 0.3036(11) 0.3838(9)
H18 H 0.8109 0.3405 0.4202
C27 C 0.7861(6) 0.2277(11) 0.3657(9)
H19 H 0.7615 0.2122 0.3903
C28 C 0.7920(5) 0.1729(9) 0.3113(8)
C29 C 0.7626(6) 0.0905(11) 0.2886(10)
H20 H 0.7385 0.0703 0.3127
C30 C 0.7694(6) 0.0416(11) 0.2328(9)
H21 H 0.7500 -0.0114 0.2196
C31 C 0.8061(5) 0.0708(9) 0.1941(8)
C32 C 0.8147(6) 0.0248(9) 0.1362(8)
H22 H 0.7960 -0.0279 0.1198
C33 C 0.8511(6) 0.0580(9) 0.1039(8)
H23 H 0.8565 0.0285 0.0646
C34 C 0.8799(5) 0.1348(9) 0.1290(7)
H24 H 0.9046 0.1556 0.1063
C35 C 0.8371(4) 0.1482(8) 0.2163(7)
C36 C 0.8303(5) 0.1994(8) 0.2760(7)
C37 C 0.9812(5) 0.1330(9) 0.2961(7)
H25 H 0.9599 0.0959 0.2629
C38 C 1.0227(6) 0.0922(10) 0.3434(7)
H26 H 1.0288 0.0295 0.3416
C39 C 1.0537(5) 0.1454(11) 0.3916(7)
H27 H 1.0818 0.1191 0.4230
C40 C 1.0444(5) 0.2395(10) 0.3953(6)
C41 C 1.0730(5) 0.3018(12) 0.4468(7)
H28 H 1.1018 0.2801 0.4795
C42 C 1.0594(6) 0.3900(13) 0.4492(7)
H29 H 1.0780 0.4272 0.4846
C43 C 1.0174(5) 0.4281(11) 0.3986(6)
C44 C 1.0007(6) 0.5201(10) 0.3991(8)
H30 H 1.0172 0.5596 0.4343
C45 C 0.9606(5) 0.5505(9) 0.3484(8)
H31 H 0.9495 0.6111 0.3483
C46 C 0.9359(4) 0.4899(8) 0.2960(7)
H32 H 0.9090 0.5118 0.2606
C47 C 0.9890(4) 0.3707(9) 0.3458(6)
C48 C 1.0024(5) 0.2738(9) 0.3450(6)
C49 C 0.8144(5) 0.4173(10) 0.1635(8)
H33 H 0.8031 0.4083 0.2040
C50 C 0.7821(5) 0.4677(10) 0.1083(12)
H34 H 0.7510 0.4935 0.1130
C51 C 0.7984(7) 0.4770(11) 0.0479(11)
H35 H 0.7778 0.5090 0.0108
C52 C 0.8450(6) 0.4396(9) 0.0412(9)
C53 C 0.8636(9) 0.4468(10) -0.0215(8)
H36 H 0.8432 0.4738 -0.0613
C54 C 0.9105(9) 0.4140(12) -0.0213(8)
H37 H 0.9223 0.4195 -0.0618
C55 C 0.9434(7) 0.3713(10) 0.0367(7)
C56 C 0.9942(8) 0.3401(14) 0.0392(9)
H38 H 1.0082 0.3469 0.0006
C57 C 1.0221(6) 0.3011(12) 0.0967(9)
H39 H 1.0560 0.2818 0.0992
C58 C 0.9995(5) 0.2892(10) 0.1543(8)
H40 H 1.0190 0.2603 0.1938
C59 C 0.9247(5) 0.3599(8) 0.0973(6)
C60 C 0.8747(5) 0.3952(8) 0.0994(7)
O1 O 0.7718(4) 0.2472(7) 0.5572(6)
O3 O 0.6982(4) 1.1454(7) 0.4578(6)
O5 O 0.6374(4) 0.2713(7) 0.5165(7)
O7 O 0.7039(5) 0.2660(8) 0.1477(6)
O9 O 0.8849(5) 0.7181(10) 0.2328(6)
O11 O 0.9172(7) -0.0713(13) 0.2503(9)
loop_
_geom_bond_atom_site_label_1
_geom_bond_atom_site_label_2
_geom_bond_site_symmetry_1
_geom_bond_site_symmetry_2
Mo1 O19 1_555 1_555
Mo2 O17 1_555 1_555
Mo3 O25 1_555 1_555
Mo4 O12 1_555 1_555
Mo5 O8 1_555 1_555
Mo6 O2 1_555 1_555
Ni1 N1 1_555 1_555
Ni2 N5 1_555 1_555
P1 O16 1_555 1_555
P2 O6 1_555 1_555
N1 C1 1_555 1_555
N2 Ni1 1_555 1_555
N3 Ni1 1_555 1_555
N4 Ni1 1_555 1_555
N5 C25 1_555 1_555
N6 Ni2 1_555 1_555
N7 Ni2 1_555 1_555
N8 Ni2 1_555 1_555
N9 Ni2 1_555 1_555
N10 Ni2 1_555 1_555
O4 Mo6 1_555 1_555
O6 Mo6 1_555 1_555
O10 Mo5 1_555 1_555
O13 Mo4 1_555 1_555
O14 Mo4 1_555 1_555
O15 Mo4 1_555 1_555
O16 Mo4C 1_555 1_555
O18 Mo2 1_555 1_555
O20 Mo1 1_555 1_555
O21 Mo1 1_555 1_555
O22 Mo1 1_555 1_555
O23 Mo1 1_555 1_555
O24 Mo1 1_555 1_555
O26 Mo3 1_555 1_555
O27 Mo2 1_555 1_555
O28 Mo3 1_555 1_555
O29 Mo3 1_555 1_555
O30 Mo2 1_555 1_555
C1 H1 1_555 1_555
C2 C1 1_555 1_555
H2 C2 1_555 1_555
C3 C2 1_555 1_555
H3 C3 1_555 1_555
C4 C3 1_555 1_555
C5 C4 1_555 1_555
H4 C5 1_555 1_555
C6 C5 1_555 1_555
H5 C6 1_555 1_555
C7 C6 1_555 1_555
C8 C7 1_555 1_555
H6 C8 1_555 1_555
C9 C8 1_555 1_555
H7 C9 1_555 1_555
C10 N2 1_555 1_555
H8 C10 1_555 1_555
C11 N2 1_555 1_555
C12 N1 1_555 1_555
C13 N3 1_555 1_555
H9 C13 1_555 1_555
C14 C13 1_555 1_555
H10 C14 1_555 1_555
C15 C14 1_555 1_555
H11 C15 1_555 1_555
C16 C15 1_555 1_555
C17 C16 1_555 1_555
H12 C17 1_555 1_555
C18 C17 1_555 1_555
H13 C18 1_555 1_555
C19 C18 1_555 1_555
C20 C19 1_555 1_555
H14 C20 1_555 1_555
C21 C20 1_555 1_555
H15 C21 1_555 1_555
C22 N4 1_555 1_555
H16 C22 1_555 1_555
C23 N4 1_555 1_555
C24 N3 1_555 1_555
C25 H17 1_555 1_555
C26 C25 1_555 1_555
H18 C26 1_555 1_555
C27 C26 1_555 1_555
H19 C27 1_555 1_555
C28 C27 1_555 1_555
C29 C28 1_555 1_555
H20 C29 1_555 1_555
C30 C29 1_555 1_555
H21 C30 1_555 1_555
C31 C30 1_555 1_555
C32 C31 1_555 1_555
H22 C32 1_555 1_555
C33 C32 1_555 1_555
H23 C33 1_555 1_555
C34 N6 1_555 1_555
H24 C34 1_555 1_555
C35 N6 1_555 1_555
C36 N5 1_555 1_555
C37 N7 1_555 1_555
H25 C37 1_555 1_555
C38 C37 1_555 1_555
H26 C38 1_555 1_555
C39 C38 1_555 1_555
H27 C39 1_555 1_555
C40 C39 1_555 1_555
C41 C40 1_555 1_555
H28 C41 1_555 1_555
C42 C41 1_555 1_555
H29 C42 1_555 1_555
C43 C42 1_555 1_555
C44 C43 1_555 1_555
H30 C44 1_555 1_555
C45 C44 1_555 1_555
H31 C45 1_555 1_555
C46 N8 1_555 1_555
H32 C46 1_555 1_555
C47 N8 1_555 1_555
C48 N7 1_555 1_555
C49 N9 1_555 1_555
H33 C49 1_555 1_555
C50 C49 1_555 1_555
H34 C50 1_555 1_555
C51 C50 1_555 1_555
H35 C51 1_555 1_555
C52 C51 1_555 1_555
C53 C52 1_555 1_555
H36 C53 1_555 1_555
C54 C53 1_555 1_555
H37 C54 1_555 1_555
C55 C54 1_555 1_555
C56 C55 1_555 1_555
H38 C56 1_555 1_555
C57 C56 1_555 1_555
H39 C57 1_555 1_555
C58 N10 1_555 1_555
H40 C58 1_555 1_555
C59 N10 1_555 1_555
C60 N9 1_555 1_555
C61 P1 1_555 1_555
H41 C61 1_555 1_555
H42 C61 1_555 1_555
C62 C61 1_555 1_555
H43 C62 1_555 1_555
H44 C62 1_555 1_555
C63 P2 1_555 1_555
H45 C63 1_555 1_555
H46 C63 1_555 1_555
C64 C62 1_555 1_555
H47 C64 1_555 1_555
H48 C64 1_555 1_555
Mo1C Mo6 1_555 1_555
Mo2C O28 1_555 1_555
Mo3C O27 1_555 1_555
Mo5C O16 1_555 1_555
Mo6C Mo1 1_555 1_555
O16C Mo4 1_555 1_555
O21C Mo6 1_555 1_555
O22C Mo6 1_555 1_555
O24C Mo5 1_555 1_555
O27C Mo3 1_555 1_555
O28C Mo2 1_555 1_555
O30C Mo3 1_555 1_555
Mo2 O21 1_555 1_555
Mo4 O29 1_555 1_555
Mo5 O14 1_555 1_555
Mo5 O15 1_555 1_555
Mo5 O16C 1_555 1_555
Mo6 O24C 1_555 1_555
Ni1 O4 1_555 1_555
Ni1 O10 1_555 1_555
P1 O23 1_555 1_555
P1 O30 1_555 1_555
P2 O15 1_555 1_555
P2 O28 1_555 1_555
O21 Mo6C 1_555 1_555
O22 Mo6C 1_555 1_555
O24 Mo5C 1_555 1_555
O24 Mo6C 1_555 1_555
O30 Mo3C 1_555 1_555
C4 C12 1_555 1_555
C7 C11 1_555 1_555
C9 C10 1_555 1_555
C11 C12 1_555 1_555
C16 C24 1_555 1_555
C19 C23 1_555 1_555
C21 C22 1_555 1_555
C23 C24 1_555 1_555
C28 C36 1_555 1_555
C31 C35 1_555 1_555
C33 C34 1_555 1_555
C35 C36 1_555 1_555
C40 C48 1_555 1_555
C43 C47 1_555 1_555
C45 C46 1_555 1_555
C47 C48 1_555 1_555
C52 C60 1_555 1_555
C55 C59 1_555 1_555
C57 C58 1_555 1_555
C59 C60 1_555 1_555
C63 C64 1_555 1_555
Mo1C O21C 1_555 1_555
Mo1C O22C 1_555 1_555
Mo1C O24C 1_555 1_555
Mo2C O21C 1_555 1_555
Mo2C O27C 1_555 1_555
Mo2C O30C 1_555 1_555
Mo3C O28C 1_555 1_555

#END
