
#######################################################################
#
#                 Cambridge Crystallographic Data Centre
#                                CCDC 
#
#######################################################################
#
# If this CIF has been generated from an entry in the Cambridge 
# Structural Database, then it will include bibliographic, chemical, 
# crystal, experimental, refinement or atomic coordinate data resulting 
# from the CCDC's data processing and validation procedures.
#
#######################################################################

data_HAVHER
_symmetry_cell_setting           triclinic
_symmetry_space_group_name_H-M   'P -1'
_symmetry_Int_Tables_number      2
_space_group_name_Hall           '-P 1'
loop_
_symmetry_equiv_pos_site_id
_symmetry_equiv_pos_as_xyz
1 x,y,z
2 -x,-y,-z
_cell_length_a                   9.963(4)
_cell_length_b                   10.059(4)
_cell_length_c                   10.882(4)
_cell_angle_alpha                96.10(4)
_cell_angle_beta                 105.62(4)
_cell_angle_gamma                90.31(3)
_cell_volume                     1043.69
loop_
_atom_site_label
_atom_site_type_symbol
_atom_site_fract_x
_atom_site_fract_y
_atom_site_fract_z
I1 I -0.57191(8) -0.13285(8) -0.18544(7)
Cu1 Cu -0.62172(14) -0.03336(13) 0.02856(14)
N1 N -0.6508(11) -0.1745(9) 0.1342(9)
C1 C -0.6628(11) -0.2505(10) 0.2009(11)
C2 C -0.6779(10) -0.3461(9) 0.2844(9)
C3 C -0.6798(11) -0.4810(10) 0.2423(10)
H1 H -0.6740(11) -0.5092(10) 0.1598(10)
C4 C -0.6907(13) -0.5733(11) 0.3253(12)
H2 H -0.6925(13) -0.6644(11) 0.2986(12)
C5 C -0.6988(14) -0.5309(12) 0.4451(12)
H3 H -0.7087(14) -0.5933(12) 0.4995(12)
C6 C -0.6926(20) -0.3994(14) 0.4865(13)
H4 H -0.6902(20) -0.3719(14) 0.5714(13)
C7 C -0.6899(18) -0.3057(11) 0.4039(13)
H5 H -0.6962(18) -0.2154(11) 0.4297(13)
As1 As -0.18888(10) -0.11184(8) 0.01625(8)
As2 As -0.01759(11) 0.12994(9) 0.16853(9)
O1 O -0.0289(6) -0.0484(5) 0.1265(5)
O2 O 0.1311(9) 0.1654(9) 0.1183(7)
C8 C -0.1955(9) -0.2847(8) 0.0775(7)
C9 C -0.3201(9) -0.3340(9) 0.0892(9)
H6 H -0.4002(9) -0.2847(9) 0.0683(9)
C10 C -0.3245(11) -0.4581(10) 0.1327(10)
H7 H -0.4078(11) -0.4909(10) 0.1430(10)
C11 C -0.2090(13) -0.5327(10) 0.1605(12)
H8 H -0.2139(13) -0.6171(10) 0.1868(12)
C12 C -0.0865(13) -0.4825(11) 0.1493(14)
H9 H -0.0064(13) -0.5317(11) 0.1713(14)
C13 C -0.0796(11) -0.3587(10) 0.1055(11)
H10 H 0.0040(11) -0.3265(10) 0.0954(11)
C14 C -0.0856(11) -0.1277(9) -0.3461(8)
C15 C -0.2169(14) -0.0838(11) -0.3815(10)
H11 H -0.2615(14) -0.0526(11) -0.3198(10)
C16 C -0.2845(17) -0.0858(14) -0.5116(13)
H12 H -0.3747(17) -0.0555(14) -0.5374(13)
C17 C -0.2199(27) -0.1312(17) -0.5985(16)
H13 H -0.2651(27) -0.1288(17) -0.6849(16)
C18 C -0.0980(29) -0.1781(18) -0.5682(14)
H14 H -0.0601(29) -0.2148(18) -0.6331(14)
C19 C -0.0175(15) -0.1758(13) -0.4365(12)
H15 H 0.0736(15) -0.2045(13) -0.4136(12)
I1A I -0.42809(8) 0.13285(8) 0.18544(7)
Cu1A Cu -0.37828(14) 0.03336(13) -0.02856(14)
N1A N -0.3492(11) 0.1745(9) -0.1342(9)
C1A C -0.3372(11) 0.2505(10) -0.2009(11)
C2A C -0.3221(10) 0.3461(9) -0.2844(9)
C3A C -0.3202(11) 0.4810(10) -0.2423(10)
H1A H -0.3260(11) 0.5092(10) -0.1598(10)
C4A C -0.3093(13) 0.5733(11) -0.3253(12)
H2A H -0.3075(13) 0.6644(11) -0.2986(12)
C5A C -0.3012(14) 0.5309(12) -0.4451(12)
H3A H -0.2913(14) 0.5933(12) -0.4995(12)
C6A C -0.3074(20) 0.3994(14) -0.4865(13)
H4A H -0.3098(20) 0.3719(14) -0.5714(13)
C7A C -0.3101(18) 0.3057(11) -0.4039(13)
H5A H -0.3038(18) 0.2154(11) -0.4297(13)
As1A As -0.81112(10) 0.11184(8) -0.01625(8)
As1A_2 As 0.18888(10) 0.11184(8) -0.01625(8)
Cu1_2 Cu 0.37828(14) -0.03336(13) 0.02856(14)
O1A O 0.0289(6) 0.0484(5) -0.1265(5)
As2A As 0.01759(11) -0.12994(9) -0.16853(9)
O2A O -0.1311(9) -0.1654(9) -0.1183(7)
C8A C 0.1955(9) 0.2847(8) -0.0775(7)
C9A C 0.3201(9) 0.3340(9) -0.0892(9)
H6A H 0.4002(9) 0.2847(9) -0.0683(9)
C10A C 0.3245(11) 0.4581(10) -0.1327(10)
H7A H 0.4078(11) 0.4909(10) -0.1430(10)
C11A C 0.2090(13) 0.5327(10) -0.1605(12)
H8A H 0.2139(13) 0.6171(10) -0.1868(12)
C12A C 0.0865(13) 0.4825(11) -0.1493(14)
H9A H 0.0064(13) 0.5317(11) -0.1713(14)
C13A C 0.0796(11) 0.3587(10) -0.1055(11)
H10A H -0.0040(11) 0.3265(10) -0.0954(11)
C14A C 0.0856(11) 0.1277(9) 0.3461(8)
C15A C 0.2169(14) 0.0838(11) 0.3815(10)
H11A H 0.2615(14) 0.0526(11) 0.3198(10)
C16A C 0.2845(17) 0.0858(14) 0.5116(13)
H12A H 0.3747(17) 0.0555(14) 0.5374(13)
C17A C 0.2199(27) 0.1312(17) 0.5985(16)
H13A H 0.2651(27) 0.1288(17) 0.6849(16)
C18A C 0.0980(29) 0.1781(18) 0.5682(14)
H14A H 0.0601(29) 0.2148(18) 0.6331(14)
C19A C 0.0175(15) 0.1758(13) 0.4365(12)
H15A H -0.0736(15) 0.2045(13) 0.4136(12)
loop_
_geom_bond_atom_site_label_1
_geom_bond_atom_site_label_2
_geom_bond_site_symmetry_1
_geom_bond_site_symmetry_2
I1 Cu1 1_555 1_555
Cu1 N1 1_555 1_555
N1 C1 1_555 1_555
C1 C2 1_555 1_555
C2 C3 1_555 1_555
C3 H1 1_555 1_555
C4 C3 1_555 1_555
H2 C4 1_555 1_555
C5 C4 1_555 1_555
H3 C5 1_555 1_555
C6 C5 1_555 1_555
H4 C6 1_555 1_555
C7 C2 1_555 1_555
H5 C7 1_555 1_555
As1 O1 1_555 1_555
As2 O1 1_555 1_555
O2 As2 1_555 1_555
C8 As1 1_555 1_555
C9 C8 1_555 1_555
H6 C9 1_555 1_555
C10 C9 1_555 1_555
H7 C10 1_555 1_555
C11 C10 1_555 1_555
H8 C11 1_555 1_555
C12 C11 1_555 1_555
H9 C12 1_555 1_555
C13 C8 1_555 1_555
H10 C13 1_555 1_555
C14 C15 1_555 1_555
C15 H11 1_555 1_555
C16 C15 1_555 1_555
H12 C16 1_555 1_555
C17 C16 1_555 1_555
H13 C17 1_555 1_555
C18 C17 1_555 1_555
H14 C18 1_555 1_555
C19 C14 1_555 1_555
H15 C19 1_555 1_555
I1A Cu1 1_555 1_555
Cu1A I1 1_555 1_555
N1A Cu1A 1_555 1_555
C1A N1A 1_555 1_555
C2A C1A 1_555 1_555
C3A C2A 1_555 1_555
H1A C3A 1_555 1_555
C4A C3A 1_555 1_555
H2A C4A 1_555 1_555
C5A C4A 1_555 1_555
H3A C5A 1_555 1_555
C6A C5A 1_555 1_555
H4A C6A 1_555 1_555
C7A C2A 1_555 1_555
H5A C7A 1_555 1_555
As1A Cu1 1_555 1_555
As1A_2 O2 1_555 1_555
Cu1_2 As1A_2 1_555 1_555
O1A As1A_2 1_555 1_555
As2A C14 1_555 1_555
O2A As1 1_555 1_555
C8A As1A_2 1_555 1_555
C9A C8A 1_555 1_555
H6A C9A 1_555 1_555
C10A C9A 1_555 1_555
H7A C10A 1_555 1_555
C11A C10A 1_555 1_555
H8A C11A 1_555 1_555
C12A C11A 1_555 1_555
H9A C12A 1_555 1_555
C13A C8A 1_555 1_555
H10A C13A 1_555 1_555
C14A As2 1_555 1_555
C15A C14A 1_555 1_555
H11A C15A 1_555 1_555
C16A C15A 1_555 1_555
H12A C16A 1_555 1_555
C17A C16A 1_555 1_555
H13A C17A 1_555 1_555
C18A C17A 1_555 1_555
H14A C18A 1_555 1_555
C19A C14A 1_555 1_555
H15A C19A 1_555 1_555
C6 C7 1_555 1_555
As1 Cu1A 1_555 1_555
C12 C13 1_555 1_555
C18 C19 1_555 1_555
I1A Cu1A 1_555 1_555
C6A C7A 1_555 1_555
O1A As2A 1_555 1_555
As2A O2A 1_555 1_555
C12A C13A 1_555 1_555
C18A C19A 1_555 1_555

#END
