
#######################################################################
#
#                 Cambridge Crystallographic Data Centre
#                                CCDC 
#
#######################################################################
#
# If this CIF has been generated from an entry in the Cambridge 
# Structural Database, then it will include bibliographic, chemical, 
# crystal, experimental, refinement or atomic coordinate data resulting 
# from the CCDC's data processing and validation procedures.
#
#######################################################################

data_HAVKOG
_symmetry_cell_setting           monoclinic
_symmetry_space_group_name_H-M   'P 21/n'
_symmetry_Int_Tables_number      14
_space_group_name_Hall           '-P 2yn'
loop_
_symmetry_equiv_pos_site_id
_symmetry_equiv_pos_as_xyz
1 x,y,z
2 1/2-x,1/2+y,1/2-z
3 -x,-y,-z
4 1/2+x,1/2-y,1/2+z
_cell_length_a                   17.1900(3)
_cell_length_b                   15.1901(3)
_cell_length_c                   25.3382(5)
_cell_angle_alpha                90
_cell_angle_beta                 106.5810(10)
_cell_angle_gamma                90
_cell_volume                     6341.13
loop_
_atom_site_label
_atom_site_type_symbol
_atom_site_fract_x
_atom_site_fract_y
_atom_site_fract_z
Nd1 Nd 0.554820(6) 0.322946(8) 0.247275(4)
Nd2 Nd 0.769105(7) 0.444085(8) 0.248173(5)
Nd3 Nd 0.274945(6) 0.309391(8) 0.255934(4)
Nd4 Nd 0.059093(6) 0.431642(8) 0.250106(4)
O1 O 0.20122(10) 0.44254(12) 0.30800(7)
O2 O 0.12347(10) 0.48126(12) 0.17980(7)
O3 O 0.94105(9) 0.25614(11) 0.69172(6)
O4 O 0.62906(10) 0.45245(12) 0.19523(7)
O5 O 0.11406(10) 0.22897(12) 0.67192(7)
O6 O 0.80963(10) 0.22394(14) 0.67178(7)
O7 O 0.33189(10) 0.41059(12) 0.33182(7)
O8 O 0.49773(11) 0.42670(12) 0.17363(7)
O9 O 0.82587(10) 0.34325(13) 0.32361(7)
O10 O 0.21415(10) 0.25928(12) 0.32947(7)
O11 O 0.63694(10) 0.20172(12) 0.70042(7)
O12 O 0.24538(11) 0.19290(13) 0.69764(7)
O13 O 0.05795(9) 0.49540(12) -0.19010(6)
O14 O 0.29228(10) 0.50250(12) 0.67873(7)
O15 O 0.52075(10) 0.27748(13) 0.32939(7)
O16 O 0.69466(10) 0.31424(12) 0.30176(7)
O17 O 0.50513(10) 0.17778(13) 0.67963(7)
O18 O 1.01465(10) 0.48718(13) 0.32384(7)
O19 O 0.39242(9) 0.23301(11) 0.30917(6)
O20 O 0.41522(8) 0.39761(12) 0.25343(6)
O21 O 0.25536(10) 0.44790(12) 0.20485(7)
O22 O 0.88423(9) 0.52340(11) 0.30266(6)
O23 O 0.19016(11) 0.52269(15) -0.16709(7)
O24 O 0.08371(11) 0.30062(13) 0.30665(7)
O25 O 0.09008(11) 0.59243(12) 0.25745(7)
O26 O 0.42284(10) 0.54128(12) 0.69949(7)
O27 O 0.58995(11) 0.16256(12) 0.26108(8)
O28 O 0.91483(9) 0.35493(13) 0.25110(6)
O29 O 0.24268(14) 0.14409(14) 0.23822(10)
O30 O 0.73742(14) 0.61001(15) 0.22898(11)
C1 C 0.27087(13) 0.44305(14) 0.34298(8)
C2 C 0.76544(13) 0.31066(15) 0.33531(9)
C3 C 0.45914(12) 0.25626(14) 0.34350(8)
C4 C 0.95168(12) 0.50470(14) 0.33718(8)
C5 C 0.55867(13) 0.45455(15) 0.16107(9)
C6 C 0.19067(13) 0.47235(15) 0.16971(9)
C7 C 0.28051(12) 0.47616(14) 0.39985(8)
C8 C 0.19389(12) 0.48816(14) 0.11224(8)
C9 C 0.95680(12) 0.50795(14) 0.39650(8)
C10 C 0.54840(12) 0.48388(15) 0.10347(8)
C11 C 0.77720(12) 0.27322(14) 0.39142(8)
C12 C 0.46392(12) 0.25475(14) 0.40335(8)
C13 C 0.35094(12) 0.45800(14) 0.44142(8)
H1 H 0.3951 0.4332 0.4326
C14 C 0.87253(12) 0.23961(14) 0.65755(8)
C15 C 0.21510(13) 0.51929(15) 0.41243(9)
H2 H 0.1691 0.5346 0.3843
C16 C 0.71293(13) 0.22925(15) 0.40534(9)
H3 H 0.6656 0.2153 0.3781
C17 C 0.14813(14) 0.27195(15) 0.34064(9)
C18 C 0.12818(12) 0.46422(14) 0.06946(8)
H4 H 0.0824 0.4411 0.0770
C19 C 0.26400(13) 0.52360(16) 0.10089(9)
H5 H 0.3094 0.5379 0.1297
C20 C 0.89495(13) 0.55100(15) 0.41353(9)
H6 H 0.8500 0.5740 0.3875
C21 C 0.90155(13) 0.55860(15) 0.46843(9)
H7 H 0.8613 0.5877 0.4795
C22 C 0.53001(12) 0.28839(14) 0.44219(8)
H8 H 0.5702 0.3177 0.4311
C23 C 0.86741(12) 0.24414(14) 0.59794(8)
C24 C 0.35631(12) 0.47674(14) 0.49691(8)
C25 C 0.21944(13) 0.53855(15) 0.46600(9)
H9 H 0.1764 0.5676 0.4739
C26 C 0.39959(12) 0.21385(15) 0.41914(8)
H10 H 0.3542 0.1930 0.3925
C27 C 0.72086(12) 0.20744(14) 0.45917(8)
H11 H 0.6789 0.1779 0.4681
C28 C 0.14337(13) 0.25305(15) 0.39794(9)
C29 C 0.47719(12) 0.46275(15) 0.06403(8)
H12 H 0.4349 0.4370 0.0746
C30 C 0.26489(13) 0.53680(15) 0.04724(9)
H13 H 0.3103 0.5620 0.0403
C31 C 1.02251(12) 0.47124(15) 0.43420(8)
H14 H 1.0619 0.4421 0.4222
C32 C 0.53743(12) 0.27872(14) 0.49896(8)
C33 C 0.12905(12) 0.47416(14) 0.01411(8)
C34 C 0.19771(12) 0.51252(14) 0.00237(8)
C35 C 0.28824(12) 0.51500(14) 0.50959(8)
C36 C 0.96935(12) 0.52254(14) 0.50870(8)
C37 C 0.79234(12) 0.22948(14) 0.50148(8)
C38 C 0.40497(12) 0.20539(15) 0.47362(9)
H15 H 0.3626 0.1793 0.4839
C39 C 0.46768(12) 0.47976(14) 0.00767(8)
C40 C 0.42629(13) 0.45713(16) 0.54106(9)
H16 H 0.4723 0.4348 0.5334
C41 C 0.84909(12) 0.29016(14) 0.43099(8)
H17 H 0.8921 0.3151 0.4209
C42 C 0.79908(12) 0.21720(14) 0.55813(8)
H18 H 0.7569 0.1907 0.5684
C43 C 0.93407(12) 0.28110(15) 0.58286(8)
H19 H 0.9810 0.2970 0.6100
C44 C 0.20815(13) 0.27132(15) 0.44331(8)
H20 H 0.2562 0.2928 0.4382
C45 C 0.07007(13) 0.21994(16) 0.40562(9)
H21 H 0.0258 0.2090 0.3752
C46 C 0.56595(13) 0.20702(15) 0.66716(9)
C47 C 0.35682(14) 0.51581(16) 0.66615(9)
C48 C 0.12575(12) 0.50789(15) -0.15479(8)
C49 C 0.47396(12) 0.23567(14) 0.51481(8)
C50 C 0.85810(11) 0.27006(14) 0.48673(8)
C51 C 0.06128(12) 0.44858(15) -0.02982(9)
H22 H 0.0166 0.4230 -0.0222
C52 C 0.20268(13) 0.25786(14) 0.49751(8)
C53 C 0.60741(13) 0.30599(15) 0.54064(9)
H23 H 0.6476 0.3377 0.5310
C54 C 0.35686(13) 0.50274(15) 0.60742(9)
C55 C 0.12886(12) 0.49925(15) -0.09553(8)
C56 C 0.92923(12) 0.29321(15) 0.52865(9)
H24 H 0.9732 0.3170 0.5191
C57 C 0.19588(12) 0.52449(14) -0.05363(8)
H25 H 0.2402 0.5495 -0.0621
C58 C 0.28949(13) 0.52537(15) 0.56549(9)
H26 H 0.2441 0.5478 0.5738
C59 C 0.39594(13) 0.45603(15) -0.03397(9)
H27 H 0.3540 0.4278 -0.0243
C60 C 0.55435(12) 0.24062(14) 0.61036(8)
C61 C 0.06423(14) 0.20398(16) 0.45760(9)
H28 H 0.0166 0.1802 0.4619
C62 C 0.61216(13) 0.52569(16) 0.08819(9)
H29 H 0.6597 0.5408 0.1150
C63 C 0.42721(14) 0.47052(17) 0.59468(9)
H30 H 0.4740 0.4585 0.6229
C64 C 0.18093(13) 0.21780(15) 0.66202(9)
C65 C 0.12961(12) 0.22301(14) 0.50501(8)
C66 C 0.48392(12) 0.21859(14) 0.57117(8)
H31 H 0.4421 0.1920 0.5818
C67 C 0.18737(13) 0.23250(15) 0.60458(8)
C68 C 0.06085(12) 0.46099(15) -0.08319(9)
H32 H 0.0158 0.4443 -0.1116
C69 C 0.26728(13) 0.27891(16) 0.54495(9)
H33 H 0.3151 0.3021 0.5406
C70 C 0.61691(13) 0.28637(15) 0.59510(9)
H34 H 0.6640 0.3029 0.6218
C71 C 0.12364(13) 0.21210(15) 0.55940(9)
H35 H 0.0756 0.1907 0.5646
C72 C 0.26069(13) 0.26587(16) 0.59701(9)
H36 H 0.3043 0.2789 0.6274
Nd1B Nd -0.554820(6) 0.677054(8) -0.247275(4)
Nd1_2 Nd -0.445180(6) 0.322946(8) -0.752725(4)
Nd1A Nd -1.054820(6) 0.822946(8) -0.747275(4)
Nd1A_2 Nd -0.054820(6) 0.822946(8) -0.747275(4)
Nd1B_2 Nd 0.445180(6) 0.677054(8) -0.247275(4)
Nd1B_3 Nd 0.445180(6) 0.677054(8) 0.752725(4)
Nd1C Nd 0.054820(6) 0.177054(8) 0.747275(4)
Nd1C_2 Nd 1.054820(6) 0.177054(8) 0.747275(4)
Nd2B Nd -0.769105(7) 0.555915(8) -0.248173(5)
Nd2_2 Nd -0.230895(7) 0.444085(8) -0.751827(5)
Nd2_3 Nd -0.230895(7) 0.444085(8) 0.248173(5)
Nd2A Nd -0.269105(7) 0.944085(8) -0.748173(5)
Nd2B_2 Nd 0.230895(7) 0.555915(8) -0.248173(5)
Nd2B_3 Nd 0.230895(7) 0.555915(8) 0.751827(5)
Nd2B_4 Nd 1.230895(7) 0.555915(8) 0.751827(5)
Nd2C Nd 0.269105(7) 0.055915(8) 0.748173(5)
Nd3B Nd -0.274945(6) 0.690609(8) -0.255934(4)
Nd3A Nd -0.774945(6) 0.809391(8) -0.755934(4)
Nd3C Nd 0.774945(6) 0.190609(8) 0.755934(4)
Nd4B Nd -0.059093(6) 0.568358(8) -0.250106(4)
Nd4_2 Nd 1.059093(6) 0.431642(8) 0.250106(4)
Nd4A Nd -0.559093(6) 0.931642(8) -0.750106(4)
Nd4B_2 Nd -1.059093(6) 0.568358(8) -0.250106(4)
Nd4B_3 Nd 0.940907(6) 0.568358(8) 0.749894(4)
Nd4C Nd 0.559093(6) 0.068358(8) 0.750106(4)
O1B O -0.20122(10) 0.55746(12) -0.30800(7)
O2B O -0.12347(10) 0.51874(12) -0.17980(7)
O3B O -0.94105(9) 0.74386(11) -0.69172(6)
O3A O -0.44105(9) 0.75614(11) -0.19172(6)
O3C O 0.44105(9) 0.24386(11) 0.19172(6)
O4B O 0.37094(10) 0.54755(12) -0.19523(7)
O4B_2 O -0.62906(10) 0.54755(12) -0.19523(7)
O5B O -0.11406(10) 0.77103(12) -0.67192(7)
O5A O -0.61406(10) 0.72897(12) -0.17192(7)
O5C O 0.61406(10) 0.27103(12) 0.17192(7)
O6B O -0.80963(10) 0.77606(14) -0.67178(7)
O6A O -0.30963(10) 0.72394(14) -0.17178(7)
O6C O 0.30963(10) 0.27606(14) 0.17178(7)
O7B O -0.33189(10) 0.58941(12) -0.33182(7)
O8B O 0.50227(11) 0.57330(12) -0.17363(7)
O8B_2 O -0.49773(11) 0.57330(12) -0.17363(7)
O9B O -0.82587(10) 0.65675(13) -0.32361(7)
O10B O -0.21415(10) 0.74072(12) -0.32947(7)
O11B O -0.63694(10) 0.79828(12) -0.70042(7)
O11A O -0.13694(10) 0.70172(12) -0.20042(7)
O11C O 0.13694(10) 0.29828(12) 0.20042(7)
O12B O -0.24538(11) 0.80710(13) -0.69764(7)
O12A O -0.74538(11) 0.69290(13) -0.19764(7)
O12C O 0.74538(11) 0.30710(13) 0.19764(7)
O13B O -0.05795(9) 0.50460(12) 0.19010(6)
O14B O -0.29228(10) 0.49750(12) -0.67873(7)
O14_2 O -0.70772(10) 0.50250(12) -0.32127(7)
O14B_2 O 0.70772(10) 0.49750(12) 0.32127(7)
O15B O -0.52075(10) 0.72252(13) -0.32939(7)
O16B O -0.69466(10) 0.68576(12) -0.30176(7)
O17B O -0.50513(10) 0.82222(13) -0.67963(7)
O17A O -0.00513(10) 0.67778(13) -0.17963(7)
O17C O 0.00513(10) 0.32222(13) 0.17963(7)
O18B O 0.98535(10) 0.51282(13) 0.67616(7)
O18_2 O 0.01465(10) 0.48718(13) 0.32384(7)
O18B_2 O -0.01465(10) 0.51282(13) -0.32384(7)
O19B O -0.39242(9) 0.76699(11) -0.30917(6)
O20B O -0.41522(8) 0.60239(12) -0.25343(6)
O21B O -0.25536(10) 0.55210(12) -0.20485(7)
O22B O 1.11577(9) 0.47660(11) 0.69734(6)
O22B_2 O -0.88423(9) 0.47660(11) -0.30266(6)
O23B O -0.19016(11) 0.47731(15) 0.16709(7)
O23_2 O -0.80984(11) 0.52269(15) -0.16709(7)
O23B_2 O 0.80984(11) 0.47731(15) 0.16709(7)
O24B O -0.08371(11) 0.69938(13) -0.30665(7)
O25B O -0.09008(11) 0.40757(12) -0.25745(7)
O26B O -0.42284(10) 0.45872(12) -0.69949(7)
O26_2 O -0.57716(10) 0.54128(12) -0.30051(7)
O26B_2 O 0.57716(10) 0.45872(12) 0.30051(7)
O27B O -0.58995(11) 0.83744(12) -0.26108(8)
O28B O -0.91483(9) 0.64507(13) -0.25110(6)
O28_2 O -0.08517(9) 0.35493(13) 0.25110(6)
O28B_2 O 0.08517(9) 0.64507(13) -0.25110(6)
O29B O -0.24268(14) 0.85591(14) -0.23822(10)
O30B O -0.73742(14) 0.38999(15) -0.22898(11)
C1B C -0.27087(13) 0.55695(14) -0.34298(8)
C2B C -0.76544(13) 0.68934(15) -0.33531(9)
C3B C -0.45914(12) 0.74374(14) -0.34350(8)
C4B C 1.04832(12) 0.49530(14) 0.66282(8)
C5B C 0.44133(13) 0.54545(15) -0.16107(9)
C6B C -0.19067(13) 0.52765(15) -0.16971(9)
C7B C -0.28051(12) 0.52384(14) -0.39985(8)
C8B C -0.19389(12) 0.51184(14) -0.11224(8)
C9B C 1.04320(12) 0.49205(14) 0.60350(8)
C10B C 0.45160(12) 0.51612(15) -0.10347(8)
C11B C -0.77720(12) 0.72678(14) -0.39142(8)
C12B C -0.46392(12) 0.74525(14) -0.40335(8)
C13B C -0.35094(12) 0.54200(14) -0.44142(8)
H1B H -0.3951 0.5668 -0.4326
C14B C -0.87253(12) 0.76039(14) -0.65755(8)
C15B C -0.21510(13) 0.48071(15) -0.41243(9)
H2B H -0.1691 0.4654 -0.3843
C16B C -0.71293(13) 0.77075(15) -0.40534(9)
H3B H -0.6656 0.7847 -0.3781
C17B C -0.14813(14) 0.72805(15) -0.34064(9)
C18B C -0.12818(12) 0.53578(14) -0.06946(8)
H4B H -0.0824 0.5589 -0.0770
C19B C -0.26400(13) 0.47640(16) -0.10089(9)
H5B H -0.3094 0.4621 -0.1297
C20B C 1.10505(13) 0.44900(15) 0.58647(9)
H6B H 1.1500 0.4260 0.6125
C21B C 1.09845(13) 0.44140(15) 0.53157(9)
H7B H 1.1387 0.4123 0.5205
C22B C -0.53001(12) 0.71161(14) -0.44219(8)
H8B H -0.5702 0.6823 -0.4311
C23B C -0.86741(12) 0.75586(14) -0.59794(8)
C24B C -0.35631(12) 0.52326(14) -0.49691(8)
C25B C -0.21944(13) 0.46145(15) -0.46600(9)
H9B H -0.1764 0.4324 -0.4739
C26B C -0.39959(12) 0.78615(15) -0.41914(8)
H10B H -0.3542 0.8070 -0.3925
C27B C -0.72086(12) 0.79256(14) -0.45917(8)
H11B H -0.6789 0.8221 -0.4681
C28B C -0.14337(13) 0.74695(15) -0.39794(9)
C29B C 0.52281(12) 0.53725(15) -0.06403(8)
H12B H 0.5651 0.5630 -0.0746
C30B C -0.26489(13) 0.46320(15) -0.04724(9)
H13B H -0.3103 0.4380 -0.0403
C31B C 0.97749(12) 0.52876(15) 0.56580(8)
H14B H 0.9381 0.5579 0.5778
C32B C -0.53743(12) 0.72128(14) -0.49896(8)
C33B C -0.12905(12) 0.52584(14) -0.01411(8)
C34B C -0.19771(12) 0.48748(14) -0.00237(8)
C35B C -0.28824(12) 0.48500(14) -0.50959(8)
C36B C 1.03065(12) 0.47746(14) 0.49130(8)
C37B C -0.79234(12) 0.77052(14) -0.50148(8)
C38B C -0.40497(12) 0.79461(15) -0.47362(9)
H15B H -0.3626 0.8207 -0.4839
C39B C 0.53232(12) 0.52024(14) -0.00767(8)
C40B C -0.42629(13) 0.54287(16) -0.54106(9)
H16B H -0.4723 0.5652 -0.5334
C41B C -0.84909(12) 0.70984(14) -0.43099(8)
H17B H -0.8921 0.6849 -0.4209
C42B C -0.79908(12) 0.78280(14) -0.55813(8)
H18B H -0.7569 0.8093 -0.5684
C43B C -0.93407(12) 0.71890(15) -0.58286(8)
H19B H -0.9810 0.7030 -0.6100
C44B C -0.20815(13) 0.72868(15) -0.44331(8)
H20B H -0.2562 0.7072 -0.4382
C45B C -0.07007(13) 0.78006(16) -0.40562(9)
H21B H -0.0258 0.7910 -0.3752
C46B C -0.56595(13) 0.79298(15) -0.66716(9)
C47B C -0.35682(14) 0.48419(16) -0.66615(9)
C48B C -0.12575(12) 0.49211(15) 0.15479(8)
C49B C -0.47396(12) 0.76433(14) -0.51481(8)
C50B C -0.85810(11) 0.72994(14) -0.48673(8)
C51B C -0.06128(12) 0.55142(15) 0.02982(9)
H22B H -0.0166 0.5770 0.0222
C52B C -0.20268(13) 0.74214(14) -0.49751(8)
C53B C -0.60741(13) 0.69401(15) -0.54064(9)
H23B H -0.6476 0.6623 -0.5310
C54B C -0.35686(13) 0.49726(15) -0.60742(9)
C55B C -0.12886(12) 0.50075(15) 0.09553(8)
C56B C -0.92923(12) 0.70679(15) -0.52865(9)
H24B H -0.9732 0.6830 -0.5191
C57B C -0.19588(12) 0.47551(14) 0.05363(8)
H25B H -0.2402 0.4505 0.0621
C58B C -0.28949(13) 0.47463(15) -0.56549(9)
H26B H -0.2441 0.4522 -0.5738
C59B C 0.60406(13) 0.54397(15) 0.03397(9)
H27B H 0.6460 0.5722 0.0243
C60B C -0.55435(12) 0.75938(14) -0.61036(8)
C61B C -0.06423(14) 0.79602(16) -0.45760(9)
H28B H -0.0166 0.8198 -0.4619
C62B C 0.38784(13) 0.47431(16) -0.08819(9)
H29B H 0.3403 0.4592 -0.1150
C63B C -0.42721(14) 0.52948(17) -0.59468(9)
H30B H -0.4740 0.5415 -0.6229
C64B C -0.18093(13) 0.78220(15) -0.66202(9)
C65B C -0.12961(12) 0.77699(14) -0.50501(8)
C66B C -0.48392(12) 0.78141(14) -0.57117(8)
H31B H -0.4421 0.8080 -0.5818
C67B C -0.18737(13) 0.76750(15) -0.60458(8)
C68B C -0.06085(12) 0.53901(15) 0.08319(9)
H32B H -0.0158 0.5557 0.1116
C69B C -0.26728(13) 0.72109(16) -0.54495(9)
H33B H -0.3151 0.6979 -0.5406
C70B C -0.61691(13) 0.71363(15) -0.59510(9)
H34B H -0.6640 0.6971 -0.6218
C71B C -0.12364(13) 0.78790(15) -0.55940(9)
H35B H -0.0756 0.8093 -0.5646
C72B C -0.26069(13) 0.73413(16) -0.59701(9)
H36B H -0.3043 0.7211 -0.6274
O31 O 0.0759(3) 0.1092(4) 0.2483(2)
O32 O 0.5835(4) 0.6517(5) 0.2459(3)
loop_
_geom_bond_atom_site_label_1
_geom_bond_atom_site_label_2
_geom_bond_site_symmetry_1
_geom_bond_site_symmetry_2
Nd1 O4 1_555 1_555
Nd2 O4 1_555 1_555
Nd3 O1 1_555 1_555
Nd4 O1 1_555 1_555
O1 C1 1_555 1_555
O2 Nd4 1_555 1_555
O3 C14 1_555 1_555
O4 C5 1_555 1_555
O5 C64 1_555 1_555
O6 C14 1_555 1_555
O7 Nd3 1_555 1_555
O8 Nd1 1_555 1_555
O9 Nd2 1_555 1_555
O10 Nd3 1_555 1_555
O11 C46 1_555 1_555
O12 C64 1_555 1_555
O13 C48 1_555 1_555
O14 C47 1_555 1_555
O15 Nd1 1_555 1_555
O16 Nd1 1_555 1_555
O17 C46 1_555 1_555
O18 C4 1_555 1_555
O19 Nd3 1_555 1_555
O20 Nd1 1_555 1_555
O21 Nd3 1_555 1_555
O22 Nd2 1_555 1_555
O23 C48 1_555 1_555
O24 Nd4 1_555 1_555
O25 Nd4 1_555 1_555
O26 C47 1_555 1_555
O27 Nd1 1_555 1_555
O28 Nd2 1_555 1_555
O29 Nd3 1_555 1_555
O30 Nd2 1_555 1_555
C1 O7 1_555 1_555
C2 O9 1_555 1_555
C3 O15 1_555 1_555
C4 O22 1_555 1_555
C5 O8 1_555 1_555
C6 O2 1_555 1_555
C7 C1 1_555 1_555
C8 C6 1_555 1_555
C9 C4 1_555 1_555
C10 C5 1_555 1_555
C11 C2 1_555 1_555
C12 C3 1_555 1_555
C13 C7 1_555 1_555
H1 C13 1_555 1_555
C14 C23 1_555 1_555
C15 C7 1_555 1_555
H2 C15 1_555 1_555
C16 C11 1_555 1_555
H3 C16 1_555 1_555
C17 O10 1_555 1_555
C18 C8 1_555 1_555
H4 C18 1_555 1_555
C19 C8 1_555 1_555
H5 C19 1_555 1_555
C20 C9 1_555 1_555
H6 C20 1_555 1_555
C21 C20 1_555 1_555
H7 C21 1_555 1_555
C22 C12 1_555 1_555
H8 C22 1_555 1_555
C23 C42 1_555 1_555
C24 C13 1_555 1_555
C25 C15 1_555 1_555
H9 C25 1_555 1_555
C26 C12 1_555 1_555
H10 C26 1_555 1_555
C27 C16 1_555 1_555
H11 C27 1_555 1_555
C28 C17 1_555 1_555
C29 C10 1_555 1_555
H12 C29 1_555 1_555
C30 C19 1_555 1_555
H13 C30 1_555 1_555
C31 C9 1_555 1_555
H14 C31 1_555 1_555
C32 C22 1_555 1_555
C33 C18 1_555 1_555
C34 C30 1_555 1_555
C35 C24 1_555 1_555
C36 C21 1_555 1_555
C37 C27 1_555 1_555
C38 C26 1_555 1_555
H15 C38 1_555 1_555
C39 C29 1_555 1_555
C40 C24 1_555 1_555
H16 C40 1_555 1_555
C41 C11 1_555 1_555
H17 C41 1_555 1_555
C42 C37 1_555 1_555
H18 C42 1_555 1_555
C43 C23 1_555 1_555
H19 C43 1_555 1_555
C44 C28 1_555 1_555
H20 C44 1_555 1_555
C45 C28 1_555 1_555
H21 C45 1_555 1_555
C46 C60 1_555 1_555
C47 C54 1_555 1_555
C48 C55 1_555 1_555
C49 C32 1_555 1_555
C50 C37 1_555 1_555
C51 C33 1_555 1_555
H22 C51 1_555 1_555
C52 C44 1_555 1_555
C53 C32 1_555 1_555
H23 C53 1_555 1_555
C54 C58 1_555 1_555
C55 C57 1_555 1_555
C56 C43 1_555 1_555
H24 C56 1_555 1_555
C57 C34 1_555 1_555
H25 C57 1_555 1_555
C58 C35 1_555 1_555
H26 C58 1_555 1_555
C59 C39 1_555 1_555
H27 C59 1_555 1_555
C60 C66 1_555 1_555
C61 C45 1_555 1_555
H28 C61 1_555 1_555
C62 C10 1_555 1_555
H29 C62 1_555 1_555
C63 C40 1_555 1_555
H30 C63 1_555 1_555
C64 C67 1_555 1_555
C65 C52 1_555 1_555
C66 C49 1_555 1_555
H31 C66 1_555 1_555
C67 C71 1_555 1_555
C68 C51 1_555 1_555
H32 C68 1_555 1_555
C69 C52 1_555 1_555
H33 C69 1_555 1_555
C70 C53 1_555 1_555
H34 C70 1_555 1_555
C71 C65 1_555 1_555
H35 C71 1_555 1_555
C72 C67 1_555 1_555
H36 C72 1_555 1_555
Nd1B O3A 1_555 1_555
Nd1_2 O26B 1_555 1_555
Nd1A O3B 1_555 1_555
Nd1A_2 O5B 1_555 1_555
Nd1B_2 O4B 1_555 1_555
Nd1B_3 O26 1_555 1_555
Nd1C O5 1_555 1_555
Nd1C_2 O3 1_555 1_555
Nd2B O4B_2 1_555 1_555
Nd2_2 O14B 1_555 1_555
Nd2_3 O23B 1_555 1_555
Nd2A O12B 1_555 1_555
Nd2B_2 O23 1_555 1_555
Nd2B_3 O14 1_555 1_555
Nd2B_4 O22B 1_555 1_555
Nd2C O12 1_555 1_555
Nd3B O1B 1_555 1_555
Nd3A O6B 1_555 1_555
Nd3C O6 1_555 1_555
Nd4B O13 1_555 1_555
Nd4_2 O18 1_555 1_555
Nd4A O11B 1_555 1_555
Nd4B_2 O28B 1_555 1_555
Nd4B_3 O18B 1_555 1_555
Nd4C O11 1_555 1_555
O1B Nd4B 1_555 1_555
O2B Nd4B 1_555 1_555
O3B C14B 1_555 1_555
O3C Nd1 1_555 1_555
O4B Nd2B_2 1_555 1_555
O4B_2 Nd1B 1_555 1_555
O5B C64B 1_555 1_555
O5A Nd1B 1_555 1_555
O5C Nd1 1_555 1_555
O6B C14B 1_555 1_555
O6A Nd3B 1_555 1_555
O6C Nd3 1_555 1_555
O7B Nd3B 1_555 1_555
O8B Nd1B_2 1_555 1_555
O8B_2 Nd1B 1_555 1_555
O9B Nd2B 1_555 1_555
O10B Nd3B 1_555 1_555
O11B Nd3A 1_555 1_555
O11A Nd3B 1_555 1_555
O11C Nd3 1_555 1_555
O12B C64B 1_555 1_555
O12A Nd2B 1_555 1_555
O12C Nd2 1_555 1_555
O13B Nd4 1_555 1_555
O14B C47B 1_555 1_555
O14_2 Nd2B 1_555 1_555
O14B_2 Nd2 1_555 1_555
O15B Nd1B 1_555 1_555
O16B Nd1B 1_555 1_555
O17B Nd4A 1_555 1_555
O17A Nd4B 1_555 1_555
O17C Nd4 1_555 1_555
O18B C4B 1_555 1_555
O18_2 Nd4 1_555 1_555
O18B_2 Nd4B 1_555 1_555
O19B Nd3B 1_555 1_555
O20B Nd1B 1_555 1_555
O21B Nd3B 1_555 1_555
O22B C4B 1_555 1_555
O22B_2 Nd2B 1_555 1_555
O23B C48B 1_555 1_555
O23_2 Nd2B 1_555 1_555
O23B_2 Nd2 1_555 1_555
O24B Nd4B 1_555 1_555
O25B Nd4B 1_555 1_555
O26B C47B 1_555 1_555
O26_2 Nd1B 1_555 1_555
O26B_2 Nd1 1_555 1_555
O27B Nd1B 1_555 1_555
O28B Nd2B 1_555 1_555
O28_2 Nd4 1_555 1_555
O28B_2 Nd2B_2 1_555 1_555
O29B Nd3B 1_555 1_555
O30B Nd2B 1_555 1_555
C1B O1B 1_555 1_555
C2B O9B 1_555 1_555
C3B O15B 1_555 1_555
C4B C9B 1_555 1_555
C5B O4B 1_555 1_555
C6B O2B 1_555 1_555
C7B C1B 1_555 1_555
C8B C6B 1_555 1_555
C9B C20B 1_555 1_555
C10B C5B 1_555 1_555
C11B C2B 1_555 1_555
C12B C3B 1_555 1_555
C13B C7B 1_555 1_555
H1B C13B 1_555 1_555
C14B C23B 1_555 1_555
C15B C7B 1_555 1_555
H2B C15B 1_555 1_555
C16B C11B 1_555 1_555
H3B C16B 1_555 1_555
C17B O10B 1_555 1_555
C18B C8B 1_555 1_555
H4B C18B 1_555 1_555
C19B C8B 1_555 1_555
H5B C19B 1_555 1_555
C20B H6B 1_555 1_555
C21B C20B 1_555 1_555
H7B C21B 1_555 1_555
C22B C12B 1_555 1_555
H8B C22B 1_555 1_555
C23B C42B 1_555 1_555
C24B C13B 1_555 1_555
C25B C15B 1_555 1_555
H9B C25B 1_555 1_555
C26B C12B 1_555 1_555
H10B C26B 1_555 1_555
C27B C16B 1_555 1_555
H11B C27B 1_555 1_555
C28B C17B 1_555 1_555
C29B C10B 1_555 1_555
H12B C29B 1_555 1_555
C30B C19B 1_555 1_555
H13B C30B 1_555 1_555
C31B C36 1_555 1_555
H14B C31B 1_555 1_555
C32B C22B 1_555 1_555
C33B C18B 1_555 1_555
C34B C30B 1_555 1_555
C35B C24B 1_555 1_555
C36B C31 1_555 1_555
C37B C27B 1_555 1_555
C38B C26B 1_555 1_555
H15B C38B 1_555 1_555
C39B C39 1_555 1_555
C40B C24B 1_555 1_555
H16B C40B 1_555 1_555
C41B C11B 1_555 1_555
H17B C41B 1_555 1_555
C42B C37B 1_555 1_555
H18B C42B 1_555 1_555
C43B C23B 1_555 1_555
H19B C43B 1_555 1_555
C44B C28B 1_555 1_555
H20B C44B 1_555 1_555
C45B C28B 1_555 1_555
H21B C45B 1_555 1_555
C46B O11B 1_555 1_555
C47B C54B 1_555 1_555
C48B O13B 1_555 1_555
C49B C32B 1_555 1_555
C50B C37B 1_555 1_555
C51B C33B 1_555 1_555
H22B C51B 1_555 1_555
C52B C44B 1_555 1_555
C53B C32B 1_555 1_555
H23B C53B 1_555 1_555
C54B C58B 1_555 1_555
C55B C48B 1_555 1_555
C56B C43B 1_555 1_555
H24B C56B 1_555 1_555
C57B C34B 1_555 1_555
H25B C57B 1_555 1_555
C58B C35B 1_555 1_555
H26B C58B 1_555 1_555
C59B C62 1_555 1_555
H27B C59B 1_555 1_555
C60B C46B 1_555 1_555
C61B C45B 1_555 1_555
H28B C61B 1_555 1_555
C62B C59 1_555 1_555
H29B C62B 1_555 1_555
C63B C40B 1_555 1_555
H30B C63B 1_555 1_555
C64B C67B 1_555 1_555
C65B C52B 1_555 1_555
C66B C49B 1_555 1_555
H31B C66B 1_555 1_555
C67B C71B 1_555 1_555
C68B C51B 1_555 1_555
H32B C68B 1_555 1_555
C69B C52B 1_555 1_555
H33B C69B 1_555 1_555
C70B C53B 1_555 1_555
H34B C70B 1_555 1_555
C71B C65B 1_555 1_555
H35B C71B 1_555 1_555
C72B C67B 1_555 1_555
H36B C72B 1_555 1_555
Nd2 O16 1_555 1_555
Nd3 O20 1_555 1_555
Nd4 O11C 1_555 1_555
O11 Nd3C 1_555 1_555
O16 C2 1_555 1_555
O17 Nd4C 1_555 1_555
O19 C3 1_555 1_555
O21 C6 1_555 1_555
O24 C17 1_555 1_555
O28 Nd4_2 1_555 1_555
C25 C35 1_555 1_555
C33 C34 1_555 1_555
C36 C36B 1_555 1_555
C38 C49 1_555 1_555
C41 C50 1_555 1_555
C50 C56 1_555 1_555
C54 C63 1_555 1_555
C55 C68 1_555 1_555
C60 C70 1_555 1_555
C61 C65 1_555 1_555
C69 C72 1_555 1_555
Nd2B O16B 1_555 1_555
Nd2_3 O28_2 1_555 1_555
Nd3B O20B 1_555 1_555
Nd4B O11A 1_555 1_555
Nd4B O28B_2 1_555 1_555
O7B C1B 1_555 1_555
O8B C5B 1_555 1_555
O16B C2B 1_555 1_555
O17B C46B 1_555 1_555
O19B C3B 1_555 1_555
O21B C6B 1_555 1_555
O24B C17B 1_555 1_555
C9B C31B 1_555 1_555
C10B C62B 1_555 1_555
C21B C36B 1_555 1_555
C25B C35B 1_555 1_555
C29B C39B 1_555 1_555
C33B C34B 1_555 1_555
C38B C49B 1_555 1_555
C39B C59B 1_555 1_555
C41B C50B 1_555 1_555
C50B C56B 1_555 1_555
C54B C63B 1_555 1_555
C55B C57B 1_555 1_555
C55B C68B 1_555 1_555
C60B C66B 1_555 1_555
C60B C70B 1_555 1_555
C61B C65B 1_555 1_555
C69B C72B 1_555 1_555

#END
