
#######################################################################
#
#                 Cambridge Crystallographic Data Centre
#                                CCDC 
#
#######################################################################
#
# If this CIF has been generated from an entry in the Cambridge 
# Structural Database, then it will include bibliographic, chemical, 
# crystal, experimental, refinement or atomic coordinate data resulting 
# from the CCDC's data processing and validation procedures.
#
#######################################################################

data_HAVKEW
_symmetry_cell_setting           monoclinic
_symmetry_space_group_name_H-M   'P 21/c'
_symmetry_Int_Tables_number      14
_space_group_name_Hall           '-P 2ybc'
loop_
_symmetry_equiv_pos_site_id
_symmetry_equiv_pos_as_xyz
1 x,y,z
2 -x,1/2+y,1/2-z
3 -x,-y,-z
4 x,1/2-y,1/2+z
_cell_length_a                   13.1316(11)
_cell_length_b                   20.2390(11)
_cell_length_c                   15.7388(14)
_cell_angle_alpha                90
_cell_angle_beta                 109.372(4)
_cell_angle_gamma                90
_cell_volume                     3946.09
loop_
_atom_site_label
_atom_site_type_symbol
_atom_site_fract_x
_atom_site_fract_y
_atom_site_fract_z
As1 As 0.92543(2) 0.588712(15) 0.343569(19)
As2 As 0.56435(2) 0.573435(16) 0.17265(2)
Mn1 Mn 1.09142(3) 0.46537(2) 0.45704(3)
Mn2 Mn 0.76516(3) 0.46878(2) 0.23870(3)
Mn3 Mn 0.43203(3) 0.44597(2) 0.04123(3)
S1 S 1.05186(6) 0.58661(4) 0.48279(5)
S2 S 0.97319(6) 0.49536(4) 0.28945(5)
S3 S 0.78204(6) 0.54869(4) 0.37498(5)
S4 S 0.55954(6) 0.46574(4) 0.20527(5)
S5 S 0.42804(6) 0.57343(4) 0.03924(5)
S6 S 0.70763(6) 0.56764(4) 0.12325(5)
N1 N 0.8124(2) 0.39225(14) 0.15007(17)
N2 N 0.75486(19) 0.36559(13) 0.29592(18)
N3 N 1.24442(19) 0.47954(12) 0.42023(15)
N4 N 1.13994(19) 0.36476(11) 0.41821(15)
N5 N 0.29609(18) 0.42987(12) 0.09880(15)
N6 N 0.43038(19) 0.33589(12) 0.07562(15)
C1 C 0.8466(3) 0.4066(2) 0.0812(2)
H1 H 0.8444 0.4502 0.0621
C2 C 0.8862(3) 0.3573(2) 0.0364(3)
H2 H 0.9116 0.3686 -0.0102
C3 C 0.8865(3) 0.2935(2) 0.0622(3)
H3 H 0.9120 0.2609 0.0328
C4 C 0.8497(3) 0.27625(19) 0.1312(3)
C5 C 0.8435(4) 0.2110(2) 0.1612(3)
H4 H 0.8676 0.1768 0.1332
C6 C 0.8057(4) 0.1958(2) 0.2266(3)
H5 H 0.8022 0.1517 0.2419
C7 C 0.7689(3) 0.2472(2) 0.2758(3)
C8 C 0.7260(4) 0.2364(2) 0.3445(3)
H6 H 0.7146 0.1934 0.3603
C9 C 0.7003(3) 0.2888(2) 0.3890(3)
H7 H 0.6720 0.2820 0.4352
C10 C 1.2923(3) 0.53627(17) 0.4168(2)
H8 H 1.2622 0.5746 0.4306
C11 C 1.3857(3) 0.5421(2) 0.3935(3)
H9 H 1.4165 0.5832 0.3914
C12 C 1.4306(3) 0.4858(2) 0.3738(2)
H10 H 1.4925 0.4884 0.3577
C13 C 1.3848(2) 0.42497(17) 0.3777(2)
C14 C 1.4267(3) 0.36328(19) 0.3575(2)
H11 H 1.4887 0.3636 0.3413
C15 C 1.3788(3) 0.3060(2) 0.3615(2)
H12 H 1.4096 0.2670 0.3502
C16 C 1.2799(3) 0.30297(16) 0.3831(2)
C17 C 1.2231(3) 0.24462(17) 0.3830(2)
H13 H 1.2505 0.2043 0.3721
C18 C 1.1274(3) 0.24705(17) 0.3989(2)
H14 H 1.0885 0.2085 0.3982
C19 C 0.2371(2) 0.47691(17) 0.1191(2)
H15 H 0.2500 0.5207 0.1077
C20 C 0.1566(3) 0.4636(2) 0.1570(2)
H16 H 0.1189 0.4979 0.1723
C21 C 0.1343(3) 0.39935(19) 0.1710(2)
H17 H 0.0795 0.3897 0.1943
C22 C 0.1932(2) 0.34858(18) 0.1505(2)
C23 C 0.1782(3) 0.27996(19) 0.1653(2)
H18 H 0.1199 0.2674 0.1828
C24 C 0.2455(3) 0.23311(19) 0.1548(2)
H19 H 0.2341 0.1892 0.1665
C25 C 0.3347(3) 0.25018(15) 0.1258(2)
C26 C 0.4116(3) 0.20430(17) 0.1187(2)
H20 H 0.4055 0.1601 0.1322
C27 C 0.4946(3) 0.22432(17) 0.0921(2)
H21 H 0.5469 0.1943 0.0890
C28 C 0.7181(3) 0.35278(18) 0.3630(2)
H22 H 0.7031 0.3882 0.3945
C29 C 0.7790(3) 0.31293(17) 0.2511(2)
C30 C 0.8140(3) 0.32881(18) 0.1759(2)
C31 C 1.0883(3) 0.30780(16) 0.4162(2)
H23 H 1.0227 0.3086 0.4268
C32 C 1.2348(2) 0.36238(14) 0.40109(18)
C33 C 1.2893(2) 0.42379(15) 0.40012(17)
C34 C 0.5010(3) 0.29099(15) 0.0692(2)
H24 H 0.5567 0.3041 0.0489
C35 C 0.3482(2) 0.31661(14) 0.10427(18)
C36 C 0.2775(2) 0.36593(15) 0.11705(18)
As1B As 0.07457(2) 0.411288(15) -0.343569(19)
As2B As 0.43565(2) 0.426565(16) -0.17265(2)
Mn1B Mn -0.09142(3) 0.53463(2) -0.45704(3)
Mn1_2 Mn 0.09142(3) 0.46537(2) -0.54296(3)
Mn1B_2 Mn 0.90858(3) 0.53463(2) 0.54296(3)
Mn2B Mn 0.23484(3) 0.53122(2) -0.23870(3)
Mn3B Mn 0.56797(3) 0.55403(2) -0.04123(3)
S1B S -0.05186(6) 0.41339(4) -0.48279(5)
S1_2 S 0.05186(6) 0.58661(4) -0.51721(5)
S1B_2 S 0.94814(6) 0.41339(4) 0.51721(5)
S2B S 0.02681(6) 0.50464(4) -0.28945(5)
S3B S 0.21796(6) 0.45131(4) -0.37498(5)
S3_2 S -0.21796(6) 0.54869(4) -0.62502(5)
S3B_2 S 1.21796(6) 0.45131(4) 0.62502(5)
S4B S 0.44046(6) 0.53426(4) -0.20527(5)
S5B S 0.57196(6) 0.42657(4) -0.03924(5)
S6B S 0.29237(6) 0.43236(4) -0.12325(5)
N1B N 0.1876(2) 0.60775(14) -0.15007(17)
N2B N 0.24514(19) 0.63441(13) -0.29592(18)
N3B N -0.24442(19) 0.52046(12) -0.42023(15)
N4B N -0.13994(19) 0.63524(11) -0.41821(15)
N5B N 0.70391(18) 0.57013(12) -0.09880(15)
N6B N 0.56962(19) 0.66411(12) -0.07562(15)
C1B C 0.1534(3) 0.5934(2) -0.0812(2)
H1B H 0.1556 0.5498 -0.0621
C2B C 0.1138(3) 0.6427(2) -0.0364(3)
H2B H 0.0884 0.6314 0.0102
C3B C 0.1135(3) 0.7065(2) -0.0622(3)
H3B H 0.0880 0.7391 -0.0328
C4B C 0.1503(3) 0.72375(19) -0.1312(3)
C5B C 0.1565(4) 0.7890(2) -0.1612(3)
H4B H 0.1324 0.8232 -0.1332
C6B C 0.1943(4) 0.8042(2) -0.2266(3)
H5B H 0.1978 0.8483 -0.2419
C7B C 0.2311(3) 0.7528(2) -0.2758(3)
C8B C 0.2740(4) 0.7636(2) -0.3445(3)
H6B H 0.2854 0.8066 -0.3603
C9B C 0.2997(3) 0.7112(2) -0.3890(3)
H7B H 0.3280 0.7180 -0.4352
C10B C -0.2923(3) 0.46373(17) -0.4168(2)
H8B H -0.2622 0.4254 -0.4306
C11B C -0.3857(3) 0.4579(2) -0.3935(3)
H9B H -0.4165 0.4168 -0.3914
C12B C -0.4306(3) 0.5142(2) -0.3738(2)
H10B H -0.4925 0.5116 -0.3577
C13B C -0.3848(2) 0.57503(17) -0.3777(2)
C14B C -0.4267(3) 0.63672(19) -0.3575(2)
H11B H -0.4887 0.6364 -0.3413
C15B C -0.3788(3) 0.6940(2) -0.3615(2)
H12B H -0.4096 0.7330 -0.3502
C16B C -0.2799(3) 0.69703(16) -0.3831(2)
C17B C -0.2231(3) 0.75538(17) -0.3830(2)
H13B H -0.2505 0.7957 -0.3721
C18B C -0.1274(3) 0.75295(17) -0.3989(2)
H14B H -0.0885 0.7915 -0.3982
C19B C 0.7629(2) 0.52309(17) -0.1191(2)
H15B H 0.7500 0.4793 -0.1077
C20B C 0.8434(3) 0.5364(2) -0.1570(2)
H16B H 0.8811 0.5021 -0.1723
C21B C 0.8657(3) 0.60065(19) -0.1710(2)
H17B H 0.9205 0.6103 -0.1943
C22B C 0.8068(2) 0.65142(18) -0.1505(2)
C23B C 0.8218(3) 0.72004(19) -0.1653(2)
H18B H 0.8801 0.7326 -0.1828
C24B C 0.7545(3) 0.76689(19) -0.1548(2)
H19B H 0.7659 0.8108 -0.1665
C25B C 0.6653(3) 0.74982(15) -0.1258(2)
C26B C 0.5884(3) 0.79570(17) -0.1187(2)
H20B H 0.5945 0.8399 -0.1322
C27B C 0.5054(3) 0.77568(17) -0.0921(2)
H21B H 0.4531 0.8057 -0.0890
C28B C 0.2819(3) 0.64722(18) -0.3630(2)
H22B H 0.2969 0.6118 -0.3945
C29B C 0.2210(3) 0.68707(17) -0.2511(2)
C30B C 0.1860(3) 0.67119(18) -0.1759(2)
C31B C -0.0883(3) 0.69220(16) -0.4162(2)
H23B H -0.0227 0.6914 -0.4268
C32B C -0.2348(2) 0.63762(14) -0.40109(18)
C33B C -0.2893(2) 0.57621(15) -0.40012(17)
C34B C 0.4990(3) 0.70901(15) -0.0692(2)
H24B H 0.4433 0.6959 -0.0489
C35B C 0.6518(2) 0.68339(14) -0.10427(18)
C36B C 0.7225(2) 0.63407(15) -0.11705(18)
O1 O 0.0418(3) 0.41254(15) -0.1021(2)
H25 H 0.042(2) 0.4463(6) -0.0690(10)
H26 H 0.0448(18) 0.4318(10) -0.1502(8)
loop_
_geom_bond_atom_site_label_1
_geom_bond_atom_site_label_2
_geom_bond_site_symmetry_1
_geom_bond_site_symmetry_2
As1 S1 1_555 1_555
As2 S4 1_555 1_555
Mn1 S1 1_555 1_555
Mn2 S2 1_555 1_555
Mn3 S4 1_555 1_555
S1 Mn1B_2 1_555 1_555
S2 As1 1_555 1_555
S3 As1 1_555 1_555
S4 Mn2 1_555 1_555
S5 As2 1_555 1_555
S6 As2 1_555 1_555
N1 Mn2 1_555 1_555
N2 Mn2 1_555 1_555
N3 Mn1 1_555 1_555
N4 Mn1 1_555 1_555
N5 Mn3 1_555 1_555
N6 Mn3 1_555 1_555
C1 N1 1_555 1_555
H1 C1 1_555 1_555
C2 C1 1_555 1_555
H2 C2 1_555 1_555
C3 C2 1_555 1_555
H3 C3 1_555 1_555
C4 C3 1_555 1_555
C5 C4 1_555 1_555
H4 C5 1_555 1_555
C6 C5 1_555 1_555
H5 C6 1_555 1_555
C7 C6 1_555 1_555
C8 C7 1_555 1_555
H6 C8 1_555 1_555
C9 C8 1_555 1_555
H7 C9 1_555 1_555
C10 N3 1_555 1_555
H8 C10 1_555 1_555
C11 C10 1_555 1_555
H9 C11 1_555 1_555
C12 C11 1_555 1_555
H10 C12 1_555 1_555
C13 C12 1_555 1_555
C14 C13 1_555 1_555
H11 C14 1_555 1_555
C15 C14 1_555 1_555
H12 C15 1_555 1_555
C16 C15 1_555 1_555
C17 C16 1_555 1_555
H13 C17 1_555 1_555
C18 C17 1_555 1_555
H14 C18 1_555 1_555
C19 N5 1_555 1_555
H15 C19 1_555 1_555
C20 C19 1_555 1_555
H16 C20 1_555 1_555
C21 C20 1_555 1_555
H17 C21 1_555 1_555
C22 C21 1_555 1_555
C23 C22 1_555 1_555
H18 C23 1_555 1_555
C24 C23 1_555 1_555
H19 C24 1_555 1_555
C25 C24 1_555 1_555
C26 C25 1_555 1_555
H20 C26 1_555 1_555
C27 C26 1_555 1_555
H21 C27 1_555 1_555
C28 N2 1_555 1_555
H22 C28 1_555 1_555
C29 N2 1_555 1_555
C30 N1 1_555 1_555
C31 N4 1_555 1_555
H23 C31 1_555 1_555
C32 N4 1_555 1_555
C33 N3 1_555 1_555
C34 N6 1_555 1_555
H24 C34 1_555 1_555
C35 N6 1_555 1_555
C36 N5 1_555 1_555
O1 H25 1_555 1_555
H26 O1 1_555 1_555
As1B S1B 1_555 1_555
As2B S4B 1_555 1_555
Mn1B S1B 1_555 1_555
Mn1_2 S1B 1_555 1_555
Mn1B_2 S3 1_555 1_555
Mn2B S2B 1_555 1_555
Mn3B S5 1_555 1_555
S1_2 Mn1B 1_555 1_555
S1B_2 Mn1 1_555 1_555
S2B As1B 1_555 1_555
S3B As1B 1_555 1_555
S3_2 Mn1B 1_555 1_555
S3B_2 Mn1 1_555 1_555
S4B Mn2B 1_555 1_555
S5B Mn3 1_555 1_555
S6B Mn3 1_555 1_555
N1B Mn2B 1_555 1_555
N2B Mn2B 1_555 1_555
N3B Mn1B 1_555 1_555
N4B Mn1B 1_555 1_555
N5B Mn3B 1_555 1_555
N6B Mn3B 1_555 1_555
C1B N1B 1_555 1_555
H1B C1B 1_555 1_555
C2B C1B 1_555 1_555
H2B C2B 1_555 1_555
C3B C2B 1_555 1_555
H3B C3B 1_555 1_555
C4B C3B 1_555 1_555
C5B C4B 1_555 1_555
H4B C5B 1_555 1_555
C6B C5B 1_555 1_555
H5B C6B 1_555 1_555
C7B C6B 1_555 1_555
C8B C7B 1_555 1_555
H6B C8B 1_555 1_555
C9B C8B 1_555 1_555
H7B C9B 1_555 1_555
C10B N3B 1_555 1_555
H8B C10B 1_555 1_555
C11B C10B 1_555 1_555
H9B C11B 1_555 1_555
C12B C11B 1_555 1_555
H10B C12B 1_555 1_555
C13B C12B 1_555 1_555
C14B C13B 1_555 1_555
H11B C14B 1_555 1_555
C15B C14B 1_555 1_555
H12B C15B 1_555 1_555
C16B C15B 1_555 1_555
C17B C16B 1_555 1_555
H13B C17B 1_555 1_555
C18B C17B 1_555 1_555
H14B C18B 1_555 1_555
C19B N5B 1_555 1_555
H15B C19B 1_555 1_555
C20B C19B 1_555 1_555
H16B C20B 1_555 1_555
C21B C20B 1_555 1_555
H17B C21B 1_555 1_555
C22B C21B 1_555 1_555
C23B C22B 1_555 1_555
H18B C23B 1_555 1_555
C24B C23B 1_555 1_555
H19B C24B 1_555 1_555
C25B C24B 1_555 1_555
C26B C25B 1_555 1_555
H20B C26B 1_555 1_555
C27B C26B 1_555 1_555
H21B C27B 1_555 1_555
C28B N2B 1_555 1_555
H22B C28B 1_555 1_555
C29B N2B 1_555 1_555
C30B N1B 1_555 1_555
C31B N4B 1_555 1_555
H23B C31B 1_555 1_555
C32B N4B 1_555 1_555
C33B N3B 1_555 1_555
C34B N6B 1_555 1_555
H24B C34B 1_555 1_555
C35B N6B 1_555 1_555
C36B N5B 1_555 1_555
Mn1 S2 1_555 1_555
Mn2 S3 1_555 1_555
Mn2 S6 1_555 1_555
Mn3 S5 1_555 1_555
S6 Mn3B 1_555 1_555
C4 C30 1_555 1_555
C7 C29 1_555 1_555
C9 C28 1_555 1_555
C13 C33 1_555 1_555
C16 C32 1_555 1_555
C18 C31 1_555 1_555
C22 C36 1_555 1_555
C25 C35 1_555 1_555
C27 C34 1_555 1_555
C29 C30 1_555 1_555
C32 C33 1_555 1_555
C35 C36 1_555 1_555
As2B S5B 1_555 1_555
As2B S6B 1_555 1_555
Mn1B S2B 1_555 1_555
Mn1_2 S1_2 1_555 1_555
Mn1_2 S3B 1_555 1_555
Mn1B_2 S1B_2 1_555 1_555
Mn2B S3B 1_555 1_555
Mn2B S6B 1_555 1_555
Mn3B S4B 1_555 1_555
Mn3B S5B 1_555 1_555
C4B C30B 1_555 1_555
C7B C29B 1_555 1_555
C9B C28B 1_555 1_555
C13B C33B 1_555 1_555
C16B C32B 1_555 1_555
C18B C31B 1_555 1_555
C22B C36B 1_555 1_555
C25B C35B 1_555 1_555
C27B C34B 1_555 1_555
C29B C30B 1_555 1_555
C32B C33B 1_555 1_555
C35B C36B 1_555 1_555

#END
