
#######################################################################
#
#                 Cambridge Crystallographic Data Centre
#                                CCDC 
#
#######################################################################
#
# If this CIF has been generated from an entry in the Cambridge 
# Structural Database, then it will include bibliographic, chemical, 
# crystal, experimental, refinement or atomic coordinate data resulting 
# from the CCDC's data processing and validation procedures.
#
#######################################################################

data_HAVKAS
_symmetry_cell_setting           monoclinic
_symmetry_space_group_name_H-M   'P 21/c'
_symmetry_Int_Tables_number      14
_space_group_name_Hall           '-P 2ybc'
loop_
_symmetry_equiv_pos_site_id
_symmetry_equiv_pos_as_xyz
1 x,y,z
2 -x,1/2+y,1/2-z
3 -x,-y,-z
4 x,1/2-y,1/2+z
_cell_length_a                   13.3689(7)
_cell_length_b                   7.5174(4)
_cell_length_c                   25.3577(18)
_cell_angle_alpha                90
_cell_angle_beta                 93.278(4)
_cell_angle_gamma                90
_cell_volume                     2544.26
loop_
_atom_site_label
_atom_site_type_symbol
_atom_site_fract_x
_atom_site_fract_y
_atom_site_fract_z
As1 As 0.396677(18) 0.58105(4) 0.281909(10)
As2 As 0.570017(19) 0.52285(4) 0.196507(11)
Mn1 Mn 0.24931(3) 0.69619(5) 0.384972(15)
S1 S 0.25408(5) 0.48218(10) 0.30907(3)
S2 S 0.34645(5) 0.84578(10) 0.24337(3)
S3 S 0.40969(5) 0.42105(10) 0.20565(3)
S4 S 0.59818(5) 0.39067(10) 0.12166(3)
N1 N 0.09406(16) 0.5701(3) 0.40115(9)
N2 N 0.12671(15) 0.8832(3) 0.35149(9)
N3 N 0.23926(16) 0.8251(3) 0.46943(9)
N4 N 0.32414(15) 0.5077(3) 0.44687(8)
C1 C 0.0780(2) 0.4202(4) 0.42626(15)
H1 H 0.1318 0.3668 0.4450
C2 C -0.0150(3) 0.3375(5) 0.42633(19)
H2 H -0.0231 0.2324 0.4449
C3 C -0.0941(3) 0.4141(5) 0.39849(18)
H3 H -0.1566 0.3596 0.3975
C4 C -0.0817(2) 0.5735(4) 0.37150(13)
C5 C -0.1613(2) 0.6646(5) 0.34217(14)
H4 H -0.2250 0.6144 0.3396
C6 C -0.1455(2) 0.8200(5) 0.31843(12)
H5 H -0.1986 0.8762 0.2999
C7 C -0.0489(2) 0.9018(4) 0.32090(11)
C8 C -0.0294(2) 1.0649(5) 0.29718(12)
H6 H -0.0806 1.1259 0.2786
C9 C 0.0650(2) 1.1343(5) 0.30138(13)
H7 H 0.0783 1.2440 0.2864
C10 C 0.1970(2) 0.9784(4) 0.48064(13)
H8 H 0.1597 1.0371 0.4539
C11 C 0.2054(3) 1.0569(5) 0.53077(14)
H9 H 0.1726 1.1631 0.5373
C12 C 0.2622(3) 0.9751(5) 0.56973(13)
H10 H 0.2710 1.0281 0.6028
C13 C 0.3076(2) 0.8109(4) 0.56017(11)
C14 C 0.3626(2) 0.7103(5) 0.60021(11)
H11 H 0.3738 0.7585 0.6338
C15 C 0.3982(2) 0.5481(5) 0.59002(12)
H12 H 0.4313 0.4836 0.6171
C16 C 0.3863(2) 0.4719(4) 0.53813(11)
C17 C 0.4242(2) 0.3046(4) 0.52524(13)
H13 H 0.4572 0.2353 0.5512
C18 C 0.4126(2) 0.2438(4) 0.47479(13)
H14 H 0.4377 0.1331 0.4659
C19 C 0.1414(2) 1.0386(4) 0.32851(11)
H15 H 0.2057 1.0863 0.3305
C20 C 0.03193(18) 0.8148(4) 0.34836(10)
C21 C 0.01490(18) 0.6486(4) 0.37446(11)
C22 C 0.3626(2) 0.3495(4) 0.43648(11)
H16 H 0.3559 0.3071 0.4020
C23 C 0.33536(18) 0.5694(4) 0.49730(10)
C24 C 0.29335(19) 0.7402(4) 0.50869(10)
As2A As 0.429983(19) 1.02285(4) 0.303493(11)
Mn1A Mn 0.75069(3) 0.19619(5) 0.115028(15)
S2A S 0.65355(5) 0.34578(10) 0.25663(3)
S4A S 0.40182(5) 0.89067(10) 0.37834(3)
loop_
_geom_bond_atom_site_label_1
_geom_bond_atom_site_label_2
_geom_bond_site_symmetry_1
_geom_bond_site_symmetry_2
As1 S1 1_555 1_555
As2 S3 1_555 1_555
Mn1 S1 1_555 1_555
S2 As1 1_555 1_555
S3 As1 1_555 1_555
S4 As2 1_555 1_555
N1 Mn1 1_555 1_555
N2 Mn1 1_555 1_555
N3 Mn1 1_555 1_555
N4 Mn1 1_555 1_555
C1 N1 1_555 1_555
H1 C1 1_555 1_555
C2 C1 1_555 1_555
H2 C2 1_555 1_555
C3 C2 1_555 1_555
H3 C3 1_555 1_555
C4 C3 1_555 1_555
C5 C4 1_555 1_555
H4 C5 1_555 1_555
C6 C5 1_555 1_555
H5 C6 1_555 1_555
C7 C6 1_555 1_555
C8 C7 1_555 1_555
H6 C8 1_555 1_555
C9 C8 1_555 1_555
H7 C9 1_555 1_555
C10 N3 1_555 1_555
H8 C10 1_555 1_555
C11 C10 1_555 1_555
H9 C11 1_555 1_555
C12 C11 1_555 1_555
H10 C12 1_555 1_555
C13 C12 1_555 1_555
C14 C13 1_555 1_555
H11 C14 1_555 1_555
C15 C14 1_555 1_555
H12 C15 1_555 1_555
C16 C15 1_555 1_555
C17 C16 1_555 1_555
H13 C17 1_555 1_555
C18 C17 1_555 1_555
H14 C18 1_555 1_555
C19 N2 1_555 1_555
H15 C19 1_555 1_555
C20 N2 1_555 1_555
C21 N1 1_555 1_555
C22 N4 1_555 1_555
H16 C22 1_555 1_555
C23 N4 1_555 1_555
C24 N3 1_555 1_555
As2A S2 1_555 1_555
Mn1A S4 1_555 1_555
S2A As2 1_555 1_555
S4A Mn1 1_555 1_555
C4 C21 1_555 1_555
C7 C20 1_555 1_555
C9 C19 1_555 1_555
C13 C24 1_555 1_555
C16 C23 1_555 1_555
C18 C22 1_555 1_555
C20 C21 1_555 1_555
C23 C24 1_555 1_555
As2A S4A 1_555 1_555

#END
