
#######################################################################
#
#                 Cambridge Crystallographic Data Centre
#                                CCDC 
#
#######################################################################
#
# If this CIF has been generated from an entry in the Cambridge 
# Structural Database, then it will include bibliographic, chemical, 
# crystal, experimental, refinement or atomic coordinate data resulting 
# from the CCDC's data processing and validation procedures.
#
#######################################################################

data_HAVKUM
_symmetry_cell_setting           monoclinic
_symmetry_space_group_name_H-M   'P 21/c'
_symmetry_Int_Tables_number      14
_space_group_name_Hall           '-P 2ybc'
loop_
_symmetry_equiv_pos_site_id
_symmetry_equiv_pos_as_xyz
1 x,y,z
2 -x,1/2+y,1/2-z
3 -x,-y,-z
4 x,1/2-y,1/2+z
_cell_length_a                   13.0575(9)
_cell_length_b                   13.0531(9)
_cell_length_c                   6.9251(4)
_cell_angle_alpha                90
_cell_angle_beta                 94.070(3)
_cell_angle_gamma                90
_cell_volume                     1177.34
loop_
_atom_site_label
_atom_site_type_symbol
_atom_site_fract_x
_atom_site_fract_y
_atom_site_fract_z
Nd1 Nd 0.934170(10) 0.370392(9) 0.09495(2)
O1 O 0.85242(17) 0.12146(15) -0.1172(3)
O2 O 0.10908(18) 0.11425(18) -0.2766(4)
O3 O 0.79178(15) 0.25689(16) 0.0328(3)
O4 O 0.95541(18) 0.55156(16) 0.1768(3)
O5 O 1.01179(17) 0.70756(15) 0.2311(3)
O6 O 0.17532(16) -0.03226(16) -0.3792(3)
C1 C 0.9658(2) 0.6283(2) 0.2846(5)
H1 H 0.9394 0.6270 0.4058
C2 C 0.7790(2) 0.1744(2) -0.0581(4)
C3 C 0.6718(2) 0.1358(2) -0.1052(4)
C4 C 0.6573(2) 0.0417(2) -0.2026(4)
H2 H 0.7140 0.0031 -0.2324
C5 C 0.5601(2) 0.0066(2) -0.2537(4)
H3 H 0.5512 -0.0562 -0.3161
C6 C 0.4736(2) 0.0652(2) -0.2122(4)
C7 C 0.4870(2) 0.1595(2) -0.1105(4)
C8 C 0.3998(2) 0.2171(2) -0.0688(4)
H4 H 0.4082 0.2784 -0.0011
C9 C 0.1833(2) 0.0546(2) -0.3001(4)
C10 C 0.3028(2) 0.1837(2) -0.1269(4)
H5 H 0.2462 0.2227 -0.0986
C11 C 0.2884(2) 0.0905(2) -0.2296(4)
C12 C 0.3724(2) 0.0321(2) -0.2685(4)
H6 H 0.3626 -0.0300 -0.3327
C13 C 0.5887(2) 0.1931(2) -0.0578(4)
H7 H 0.5991 0.2543 0.0093
Nd1B Nd 1.065830(10) 0.629608(9) -0.09495(2)
Nd1A Nd 0.065830(10) -0.129608(9) -0.59495(2)
Nd1A_2 Nd 1.065830(10) 0.870392(9) 0.40505(2)
Nd1A_3 Nd 2.065830(10) 0.870392(9) 0.40505(2)
Nd1C Nd -0.065830(10) 0.129608(9) -0.40505(2)
Nd1C_2 Nd 0.934170(10) 0.129608(9) -0.40505(2)
Nd1C_3 Nd 1.934170(10) 1.129608(9) 0.59495(2)
O1B O 1.14758(17) 0.87854(15) 0.1172(3)
O1A O 1.14758(17) 0.62146(15) -0.3828(3)
O1C O 0.85242(17) 0.37854(15) 0.3828(3)
O2B O 1.89092(18) 0.88575(18) 0.2766(4)
O2A O 0.89092(18) 0.61425(18) -0.2234(4)
O2C O 1.10908(18) 0.38575(18) 0.2234(4)
O3B O 1.20822(15) 0.74311(16) -0.0328(3)
O4B O 1.04459(18) 0.44844(16) -0.1768(3)
O5B O 0.98821(17) 0.29244(15) -0.2311(3)
O5A O 0.98821(17) 0.20756(15) 0.2689(3)
O5C O 1.01179(17) 0.79244(15) -0.2689(3)
O6B O 1.82468(16) 1.03226(16) 0.3792(3)
O6A O 0.82468(16) 0.46774(16) -0.1208(3)
O6C O 1.17532(16) 0.53226(16) 0.1208(3)
C1B C 1.0342(2) 0.3717(2) -0.2846(5)
H1B H 1.0606 0.3730 -0.4058
C2B C 1.2210(2) 0.8256(2) 0.0581(4)
C3B C 1.3282(2) 0.8642(2) 0.1052(4)
C4B C 1.3427(2) 0.9583(2) 0.2026(4)
H2B H 1.2860 0.9969 0.2324
C5B C 1.4399(2) 0.9934(2) 0.2537(4)
H3B H 1.4488 1.0562 0.3161
C6B C 1.5264(2) 0.9348(2) 0.2122(4)
C7B C 1.5130(2) 0.8405(2) 0.1105(4)
C8B C 1.6002(2) 0.7829(2) 0.0688(4)
H4B H 1.5918 0.7216 0.0011
C9B C 1.8167(2) 0.9454(2) 0.3001(4)
C10B C 1.6972(2) 0.8163(2) 0.1269(4)
H5B H 1.7538 0.7773 0.0986
C11B C 1.7116(2) 0.9095(2) 0.2296(4)
C12B C 1.6276(2) 0.9679(2) 0.2685(4)
H6B H 1.6374 1.0300 0.3327
C13B C 1.4113(2) 0.8069(2) 0.0578(4)
H7B H 1.4009 0.7457 -0.0093
loop_
_geom_bond_atom_site_label_1
_geom_bond_atom_site_label_2
_geom_bond_site_symmetry_1
_geom_bond_site_symmetry_2
Nd1 O3 1_555 1_555
O1 C2 1_555 1_555
O2 C9 1_555 1_555
O3 C2 1_555 1_555
O4 Nd1 1_555 1_555
O5 C1 1_555 1_555
O6 C9 1_555 1_555
C1 O4 1_555 1_555
H1 C1 1_555 1_555
C2 C3 1_555 1_555
C3 C4 1_555 1_555
C4 H2 1_555 1_555
C5 C4 1_555 1_555
H3 C5 1_555 1_555
C6 C5 1_555 1_555
C7 C6 1_555 1_555
C8 C7 1_555 1_555
H4 C8 1_555 1_555
C9 C11 1_555 1_555
C10 C8 1_555 1_555
H5 C10 1_555 1_555
C11 C10 1_555 1_555
C12 C6 1_555 1_555
H6 C12 1_555 1_555
C13 C3 1_555 1_555
H7 C13 1_555 1_555
Nd1B O4 1_555 1_555
Nd1A O6 1_555 1_555
Nd1A_2 O5 1_555 1_555
Nd1A_3 O2B 1_555 1_555
Nd1C O2 1_555 1_555
Nd1C_2 O1 1_555 1_555
Nd1C_3 O6B 1_555 1_555
O1B Nd1A_2 1_555 1_555
O1A Nd1B 1_555 1_555
O1C Nd1 1_555 1_555
O2B C9B 1_555 1_555
O2A Nd1B 1_555 1_555
O2C Nd1 1_555 1_555
O3B Nd1B 1_555 1_555
O4B Nd1 1_555 1_555
O5B Nd1 1_555 1_555
O5A Nd1 1_555 1_555
O5C Nd1B 1_555 1_555
O6B C9B 1_555 1_555
O6A Nd1 1_555 1_555
O6C Nd1B 1_555 1_555
C1B O4B 1_555 1_555
H1B C1B 1_555 1_555
C2B O1B 1_555 1_555
C3B C2B 1_555 1_555
C4B C3B 1_555 1_555
H2B C4B 1_555 1_555
C5B C4B 1_555 1_555
H3B C5B 1_555 1_555
C6B C5B 1_555 1_555
C7B C6B 1_555 1_555
C8B C7B 1_555 1_555
H4B C8B 1_555 1_555
C9B C11B 1_555 1_555
C10B C8B 1_555 1_555
H5B C10B 1_555 1_555
C11B C10B 1_555 1_555
C12B C6B 1_555 1_555
H6B C12B 1_555 1_555
C13B C3B 1_555 1_555
H7B C13B 1_555 1_555
O5 Nd1B 1_555 1_555
C7 C13 1_555 1_555
C11 C12 1_555 1_555
Nd1B O4B 1_555 1_555
Nd1C_2 O5B 1_555 1_555
O3B C2B 1_555 1_555
O5B C1B 1_555 1_555
C7B C13B 1_555 1_555
C11B C12B 1_555 1_555

#END
