
#######################################################################
#
#                 Cambridge Crystallographic Data Centre
#                                CCDC 
#
#######################################################################
#
# If this CIF has been generated from an entry in the Cambridge 
# Structural Database, then it will include bibliographic, chemical, 
# crystal, experimental, refinement or atomic coordinate data resulting 
# from the CCDC's data processing and validation procedures.
#
#######################################################################

data_HAVLAT
_symmetry_cell_setting           orthorhombic
_symmetry_space_group_name_H-M   'P b c a'
_symmetry_Int_Tables_number      61
_space_group_name_Hall           '-P 2ac 2ab'
loop_
_symmetry_equiv_pos_site_id
_symmetry_equiv_pos_as_xyz
1 x,y,z
2 1/2-x,-y,1/2+z
3 -x,1/2+y,1/2-z
4 1/2+x,1/2-y,-z
5 -x,-y,-z
6 1/2+x,y,1/2-z
7 x,1/2-y,1/2+z
8 1/2-x,1/2+y,z
_cell_length_a                   10.7908(11)
_cell_length_b                   8.6951(9)
_cell_length_c                   25.475(2)
_cell_angle_alpha                90
_cell_angle_beta                 90
_cell_angle_gamma                90
_cell_volume                     2390.24
loop_
_atom_site_label
_atom_site_type_symbol
_atom_site_fract_x
_atom_site_fract_y
_atom_site_fract_z
Nd1 Nd 0.245726(19) 0.18029(3) 0.529983(8)
O1 O 0.3930(3) 0.0739(4) 0.46588(14)
O2 O 0.2168(4) 0.0761(4) 0.61717(14)
O3 O 0.0184(3) 0.1497(4) 0.54472(14)
O4 O 0.3683(3) -0.2538(4) 0.95041(13)
O5 O 0.5628(3) -0.2731(5) 0.92268(14)
O6 O -0.1535(3) 0.0666(4) 0.50448(14)
O7 O 0.3329(3) -0.0917(4) 0.57505(13)
C1 C -0.0384(4) 0.0626(5) 0.51455(18)
C2 C 0.4513(4) -0.2375(5) 0.91563(17)
C3 C 0.2921(4) -0.0325(6) 0.61808(18)
C4 C 0.4122(4) -0.1775(6) 0.86281(18)
C5 C 0.3400(5) -0.0881(6) 0.66957(18)
C6 C 0.4762(4) -0.2182(6) 0.81862(18)
H1 H 0.5493 -0.2741 0.8216
C7 C 0.4451(5) -0.1833(6) 0.67320(19)
H2 H 0.4833 -0.2192 0.6429
C8 C 0.2806(5) -0.0396(6) 0.71450(19)
H3 H 0.2106 0.0223 0.7118
C9 C 0.3047(5) -0.0853(7) 0.8592(2)
H4 H 0.2618 -0.0577 0.8894
C10 C 0.4321(4) -0.1762(6) 0.76842(18)
C11 C 0.2636(5) -0.0365(7) 0.8112(2)
H5 H 0.1948 0.0276 0.8091
C12 C 0.3245(4) -0.0825(6) 0.76476(19)
C13 C 0.4912(5) -0.2232(6) 0.72138(18)
H6 H 0.5628 -0.2825 0.7233
Nd1D Nd -0.245726(19) -0.18029(3) 0.470017(8)
Nd1A Nd 0.254274(19) -0.18029(3) 1.029983(8)
Nd1B Nd 0.754274(19) -0.31971(3) 0.970017(8)
Nd1C Nd -0.254274(19) 0.31971(3) 0.470017(8)
Nd1E Nd -0.254274(19) 0.18029(3) -0.029983(8)
Nd1F Nd -0.754274(19) 0.31971(3) 0.029983(8)
Nd1G Nd 0.254274(19) -0.31971(3) 0.529983(8)
O1D O -0.3930(3) -0.0739(4) 0.53412(14)
O2D O -0.2168(4) -0.0761(4) 0.38283(14)
O3D O -0.0184(3) -0.1497(4) 0.45528(14)
O4D O -0.3683(3) 0.2538(4) 0.04959(13)
O4A O 0.1317(3) 0.2538(4) 0.45041(13)
O4E O -0.1317(3) -0.2538(4) 0.54959(13)
O5D O -0.5628(3) 0.2731(5) 0.07732(14)
O5B O 0.4372(3) 0.2269(5) 0.57732(14)
O5F O -0.4372(3) -0.2269(5) 0.42268(14)
O6D O 0.1535(3) -0.0666(4) 0.49552(14)
O6C O 0.3465(3) 0.4334(4) 0.49552(14)
O6G O -0.3465(3) -0.4334(4) 0.50448(14)
O7D O -0.3329(3) 0.0917(4) 0.42495(13)
O7C O -0.1671(3) -0.4083(4) 0.42495(13)
O7G O 0.1671(3) 0.4083(4) 0.57505(13)
C1D C 0.0384(4) -0.0626(5) 0.48545(18)
C2D C -0.4513(4) 0.2375(5) 0.08437(17)
C3D C -0.2921(4) 0.0325(6) 0.38192(18)
C4D C -0.4122(4) 0.1775(6) 0.13719(18)
C5D C -0.3400(5) 0.0881(6) 0.33043(18)
C6D C -0.4762(4) 0.2182(6) 0.18138(18)
H1D H -0.5493 0.2741 0.1784
C7D C -0.4451(5) 0.1833(6) 0.32680(19)
H2D H -0.4833 0.2192 0.3571
C8D C -0.2806(5) 0.0396(6) 0.28550(19)
H3D H -0.2106 -0.0223 0.2882
C9D C -0.3047(5) 0.0853(7) 0.1408(2)
H4D H -0.2618 0.0577 0.1106
C10D C -0.4321(4) 0.1762(6) 0.23158(18)
C11D C -0.2636(5) 0.0365(7) 0.1888(2)
H5D H -0.1948 -0.0276 0.1909
C12D C -0.3245(4) 0.0825(6) 0.23524(19)
C13D C -0.4912(5) 0.2232(6) 0.27862(18)
H6D H -0.5628 0.2825 0.2767
loop_
_geom_bond_atom_site_label_1
_geom_bond_atom_site_label_2
_geom_bond_site_symmetry_1
_geom_bond_site_symmetry_2
Nd1 O1 1_555 1_555
O2 Nd1 1_555 1_555
O3 Nd1 1_555 1_555
O4 C2 1_555 1_555
O5 C2 1_555 1_555
O6 C1 1_555 1_555
O7 Nd1 1_555 1_555
C1 O3 1_555 1_555
C2 C4 1_555 1_555
C3 O2 1_555 1_555
C4 C6 1_555 1_555
C5 C3 1_555 1_555
C6 H1 1_555 1_555
C7 C5 1_555 1_555
H2 C7 1_555 1_555
C8 C5 1_555 1_555
H3 C8 1_555 1_555
C9 C4 1_555 1_555
H4 C9 1_555 1_555
C10 C6 1_555 1_555
C11 C9 1_555 1_555
H5 C11 1_555 1_555
C12 C8 1_555 1_555
C13 C7 1_555 1_555
H6 C13 1_555 1_555
Nd1D O6 1_555 1_555
Nd1A O4 1_555 1_555
Nd1B O5 1_555 1_555
Nd1C O6 1_555 1_555
Nd1E O4D 1_555 1_555
Nd1F O5D 1_555 1_555
Nd1G O7 1_555 1_555
O1D Nd1D 1_555 1_555
O2D Nd1D 1_555 1_555
O3D Nd1D 1_555 1_555
O4D C2D 1_555 1_555
O4A Nd1 1_555 1_555
O4E Nd1D 1_555 1_555
O5D C2D 1_555 1_555
O5B Nd1 1_555 1_555
O5F Nd1D 1_555 1_555
O6D Nd1 1_555 1_555
O6C Nd1 1_555 1_555
O6G Nd1D 1_555 1_555
O7D Nd1D 1_555 1_555
O7C Nd1D 1_555 1_555
O7G Nd1 1_555 1_555
C1D C1 1_555 1_555
C2D C4D 1_555 1_555
C3D O2D 1_555 1_555
C4D C6D 1_555 1_555
C5D C3D 1_555 1_555
C6D H1D 1_555 1_555
C7D C5D 1_555 1_555
H2D C7D 1_555 1_555
C8D C5D 1_555 1_555
H3D C8D 1_555 1_555
C9D C4D 1_555 1_555
H4D C9D 1_555 1_555
C10D C6D 1_555 1_555
C11D C9D 1_555 1_555
H5D C11D 1_555 1_555
C12D C8D 1_555 1_555
C13D C7D 1_555 1_555
H6D C13D 1_555 1_555
O7 C3 1_555 1_555
C10 C12 1_555 1_555
C10 C13 1_555 1_555
C11 C12 1_555 1_555
Nd1C O7D 1_555 1_555
Nd1G O6D 1_555 1_555
O3D C1D 1_555 1_555
O6D C1D 1_555 1_555
O7D C3D 1_555 1_555
C10D C12D 1_555 1_555
C10D C13D 1_555 1_555
C11D C12D 1_555 1_555

#END
