
#######################################################################
#
#                 Cambridge Crystallographic Data Centre
#                                CCDC 
#
#######################################################################
#
# If this CIF has been generated from an entry in the Cambridge 
# Structural Database, then it will include bibliographic, chemical, 
# crystal, experimental, refinement or atomic coordinate data resulting 
# from the CCDC's data processing and validation procedures.
#
#######################################################################

data_HAVWOS
_symmetry_cell_setting           monoclinic
_symmetry_space_group_name_H-M   'C 2/c'
_symmetry_Int_Tables_number      15
_space_group_name_Hall           '-C 2yn'
loop_
_symmetry_equiv_pos_site_id
_symmetry_equiv_pos_as_xyz
1 x,y,z
2 -x,y,1/2-z
3 1/2+x,1/2+y,z
4 1/2-x,1/2+y,1/2-z
5 -x,-y,-z
6 x,-y,1/2+z
7 1/2-x,1/2-y,-z
8 1/2+x,1/2-y,1/2+z
_cell_length_a                   34.123(7)
_cell_length_b                   9.5097(16)
_cell_length_c                   22.639(4)
_cell_angle_alpha                90
_cell_angle_beta                 128.926(2)
_cell_angle_gamma                90
_cell_volume                     5715.15
loop_
_atom_site_label
_atom_site_type_symbol
_atom_site_fract_x
_atom_site_fract_y
_atom_site_fract_z
C1 C 0.89152(10) 0.2584(3) 0.28414(15)
H1 H 0.9129 0.1854 0.2907
C2 C 0.82581(10) 0.3955(3) 0.23217(16)
H2 H 0.7935 0.4370 0.1970
C3 C 0.86224(10) 0.4345(3) 0.30541(16)
H3 H 0.8597 0.5096 0.3305
C4 C 0.82126(10) 0.2011(3) 0.15102(15)
C5 C 0.85178(10) 0.1357(3) 0.13833(16)
H4 H 0.8871 0.1515 0.1719
C6 C 0.83024(10) 0.0473(3) 0.07630(16)
H5 H 0.8513 0.0005 0.0686
C7 C 0.77801(10) 0.0253(3) 0.02462(15)
C8 C 0.74831(10) 0.0972(3) 0.03743(15)
H6 H 0.7127 0.0874 0.0022
C9 C 0.76983(11) 0.1831(3) 0.10078(16)
H7 H 0.7491 0.2292 0.1093
C10 C 0.75593(9) -0.0744(3) -0.03945(14)
C11 C 0.78218(10) -0.1154(3) -0.06538(15)
H8 H 0.8145 -0.0765 -0.0424
C12 C 0.76183(10) -0.2123(3) -0.12425(15)
H9 H 0.7803 -0.2403 -0.1407
C13 C 0.71457(10) -0.2672(3) -0.15832(15)
C14 C 0.68781(10) -0.2292(3) -0.13399(16)
H10 H 0.6554 -0.2678 -0.1576
C15 C 0.70853(10) -0.1342(3) -0.07490(16)
H11 H 0.6901 -0.1091 -0.0580
C16 C 0.64271(10) -0.3629(3) -0.28344(17)
H12 H 0.6180 -0.3039 -0.2892
C17 C 0.71513(11) -0.4625(4) -0.23419(19)
H13 H 0.7498 -0.4870 -0.2010
C18 C 0.67871(11) -0.5196(3) -0.30312(18)
H14 H 0.6837 -0.5926 -0.3264
C19 C 1.07740(12) 0.6944(3) 0.98140(19)
C20 C 1.12491(10) 0.6846(3) 0.98931(16)
H15 H 1.1496 0.6242 1.0334
H16 H 1.1398 0.7796 0.9996
C21 C 1.10013(10) 0.4924(3) 0.90489(15)
C22 C 1.10228(9) 0.3931(3) 0.95133(15)
H17 H 1.1142 0.4177 1.0008
C23 C 1.08663(9) 0.2556(3) 0.92438(14)
C24 C 1.08626(10) 0.1485(3) 0.97370(15)
C25 C 1.06966(9) 0.2187(3) 0.85215(14)
H18 H 1.0600 0.1246 0.8346
C26 C 1.06701(9) 0.3223(3) 0.80585(14)
C27 C 1.08179(10) 0.4587(3) 0.83150(15)
H19 H 1.0795 0.5288 0.7996
C28 C 1.03749(10) 0.3899(3) 0.68265(14)
H20 H 1.0093 0.4461 0.6721
H21 H 1.0668 0.4529 0.7052
C29 C 1.02246(9) 0.3277(3) 0.60923(14)
Cd1 Cd 0.982430(7) 0.329603(19) 0.450182(10)
Cd2 Cd 0.562032(7) -0.469131(19) -0.457250(10)
N1 N 0.84498(8) 0.2838(2) 0.21892(12)
N2 N 0.90359(8) 0.3479(2) 0.33784(12)
N3 N 0.69199(8) -0.3623(2) -0.22187(13)
N4 N 0.63305(9) -0.4551(2) -0.33443(14)
O1 O 1.03586(8) 0.6698(2) 0.91812(15)
O2 O 1.08404(11) 0.7281(2) 1.04064(14)
O3 O 1.09276(8) 0.1913(2) 1.03177(11)
O4 O 1.07874(8) 0.0217(2) 0.95414(12)
O5 O 1.02620(7) 0.20119(18) 0.60320(10)
O6 O 1.00657(7) 0.41999(19) 0.55704(10)
O7 O 0.98526(6) 0.10136(17) 0.44223(9)
H22 H 0.9818 0.0770 0.4032
O8 O 1.11624(7) 0.6292(2) 0.92393(12)
O9 O 1.05007(7) 0.27931(18) 0.73490(10)
C1E C 0.89152(10) 0.7416(3) -0.21586(15)
H1E H 0.9129 0.8146 -0.2093
C2E C 0.82581(10) 0.6045(3) -0.26783(16)
H2E H 0.7935 0.5630 -0.3030
C3E C 0.86224(10) 0.5655(3) -0.19459(16)
H3E H 0.8597 0.4904 -0.1695
C4E C 0.82126(10) 0.7989(3) -0.34898(15)
C5E C 0.85178(10) 0.8643(3) -0.36167(16)
H4E H 0.8871 0.8485 -0.3281
C6E C 0.83024(10) 0.9527(3) -0.42370(16)
H5E H 0.8513 0.9995 -0.4314
C7E C 0.77801(10) 0.9747(3) -0.47538(15)
C8E C 0.74831(10) 0.9028(3) -0.46257(15)
H6E H 0.7127 0.9126 -0.4978
C9E C 0.76983(11) 0.8169(3) -0.39922(16)
H7E H 0.7491 0.7708 -0.3907
C10E C 0.75593(9) 1.0744(3) -0.53945(14)
C11E C 0.78218(10) 1.1154(3) -0.56538(15)
H8E H 0.8145 1.0765 -0.5424
C12E C 0.76183(10) 1.2123(3) -0.62425(15)
H9E H 0.7803 1.2403 -0.6407
C13E C 0.71457(10) 1.2672(3) -0.65832(15)
C14E C 0.68781(10) 1.2292(3) -0.63399(16)
H10E H 0.6554 1.2678 -0.6576
C15E C 0.70853(10) 1.1342(3) -0.57490(16)
H11E H 0.6901 1.1091 -0.5580
C16E C 0.64271(10) 1.3629(3) -0.78344(17)
H12E H 0.6180 1.3039 -0.7892
C17E C 0.71513(11) 1.4625(4) -0.73419(19)
H13E H 0.7498 1.4870 -0.7010
C18E C 0.67871(11) 1.5196(3) -0.80312(18)
H14E H 0.6837 1.5926 -0.8264
C19E C 1.07740(12) 0.3056(3) 0.48140(19)
C20E C 1.12491(10) 0.3154(3) 0.48931(16)
H15E H 1.1496 0.3758 0.5334
H16E H 1.1398 0.2204 0.4996
C21E C 1.10013(10) 0.5076(3) 0.40489(15)
C22E C 1.10228(9) 0.6069(3) 0.45133(15)
H17E H 1.1142 0.5823 0.5008
C23E C 1.08663(9) 0.7444(3) 0.42438(14)
C24E C 1.08626(10) 0.8515(3) 0.47370(15)
C25E C 1.06966(9) 0.7813(3) 0.35215(14)
H18E H 1.0600 0.8754 0.3346
C26E C 1.06701(9) 0.6777(3) 0.30585(14)
C27E C 1.08179(10) 0.5413(3) 0.33150(15)
H19E H 1.0795 0.4712 0.2996
C28E C 1.03749(10) 0.6101(3) 0.18265(14)
H20E H 1.0093 0.5539 0.1721
H21E H 1.0668 0.5471 0.2052
C29E C 1.02246(9) 0.6723(3) 0.10923(14)
Cd1E Cd 0.982430(7) 0.670397(19) -0.049818(10)
Cd1E_2 Cd 0.982430(7) 0.670397(19) 0.950182(10)
Cd1D Cd 1.017570(7) 0.670397(19) 0.549818(10)
Cd1A Cd 1.017570(7) 0.329603(19) 0.049818(10)
Cd1B Cd 0.482430(7) -0.170397(19) -0.549818(10)
Cd2G Cd 1.062032(7) 0.969131(19) 1.042750(10)
Cd2G_2 Cd 1.062032(7) -0.030869(19) 1.042750(10)
Cd2B Cd 1.062032(7) 0.030869(19) 0.542750(10)
Cd2F Cd 0.937968(7) -0.030869(19) 0.457250(10)
Cd2B_2 Cd 1.062032(7) 1.030869(19) 0.542750(10)
Cd2D Cd 0.437968(7) -0.530869(19) -0.542750(10)
Cd2E Cd 0.562032(7) 1.469131(19) -0.957250(10)
N1E N 0.84498(8) 0.7162(2) -0.28108(12)
N2E N 0.90359(8) 0.6521(2) -0.16216(12)
N3E N 0.69199(8) 1.3623(2) -0.72187(13)
N4E N 0.63305(9) 1.4551(2) -0.83443(14)
N4G N 1.13305(9) 0.9551(2) 1.16557(14)
O1E O 1.03586(8) 0.3302(2) 0.41812(15)
O1_2 O 1.03586(8) 0.6698(2) -0.08188(15)
O2E O 1.08404(11) 0.2719(2) 0.54064(14)
O2G O 0.58404(11) -0.2281(2) -0.45936(14)
O3E O 1.09276(8) 0.8087(2) 0.53177(11)
O3G O 0.59276(8) -0.6913(2) -0.46823(11)
O3_2 O 1.09276(8) 1.1913(2) 1.03177(11)
O4E O 1.07874(8) 0.9783(2) 0.45414(12)
O4G O 0.57874(8) -0.5217(2) -0.54586(12)
O4_2 O 1.07874(8) 1.0217(2) 0.95414(12)
O5E O 1.02620(7) 0.79881(18) 0.10320(10)
O6E O 1.00657(7) 0.58001(19) 0.05704(10)
O6D O 0.99343(7) 0.58001(19) 0.44296(10)
O6A O 0.99343(7) 0.41999(19) -0.05704(10)
O7B O 0.48526(6) -0.39864(17) -0.55777(9)
O7F O 0.51474(6) -0.60136(17) -0.44223(9)
O7E O 0.98526(6) 0.89864(17) -0.05777(9)
O7E_2 O 0.98526(6) 0.89864(17) 0.94223(9)
O7A O 1.01474(6) 1.10136(17) 1.05777(9)
H22B H 0.4818 -0.4230 -0.5968
H22F H 0.5182 -0.5770 -0.4032
H22E H 0.9818 0.9230 -0.0968
H22E_2 H 0.9818 0.9230 0.9032
H22A H 1.0182 1.0770 1.0968
O8E O 1.11624(7) 0.3708(2) 0.42393(12)
O9E O 1.05007(7) 0.72069(18) 0.23490(10)
O10 O 0.96661(13) 0.0267(2) 0.30282(14)
H23 H 0.9737 -0.0576 0.3181
H24 H 0.9794 0.0609 0.2838
O11 O 0.0000 0.2281(13) 0.2500
H25 H 0.0116 0.2770 0.2326
H25A H -0.0116 0.2770 0.2674
O12 O 0.8013(4) 0.2972(11) 0.8315(6)
H26 H 0.7683 0.2858 0.8124
H27 H 0.8038 0.3026 0.7977
loop_
_geom_bond_atom_site_label_1
_geom_bond_atom_site_label_2
_geom_bond_site_symmetry_1
_geom_bond_site_symmetry_2
C1 H1 1_555 1_555
C2 H2 1_555 1_555
C3 C2 1_555 1_555
H3 C3 1_555 1_555
C4 C5 1_555 1_555
C5 H4 1_555 1_555
C6 C5 1_555 1_555
H5 C6 1_555 1_555
C7 C6 1_555 1_555
C8 C7 1_555 1_555
H6 C8 1_555 1_555
C9 C4 1_555 1_555
H7 C9 1_555 1_555
C10 C7 1_555 1_555
C11 C10 1_555 1_555
H8 C11 1_555 1_555
C12 C11 1_555 1_555
H9 C12 1_555 1_555
C13 C12 1_555 1_555
C14 C13 1_555 1_555
H10 C14 1_555 1_555
C15 C10 1_555 1_555
H11 C15 1_555 1_555
C16 H12 1_555 1_555
C17 H13 1_555 1_555
C18 C17 1_555 1_555
H14 C18 1_555 1_555
C19 C20 1_555 1_555
C20 H15 1_555 1_555
H16 C20 1_555 1_555
C21 C22 1_555 1_555
C22 H17 1_555 1_555
C23 C22 1_555 1_555
C24 C23 1_555 1_555
C25 C23 1_555 1_555
H18 C25 1_555 1_555
C26 C25 1_555 1_555
C27 C21 1_555 1_555
H19 C27 1_555 1_555
C28 H20 1_555 1_555
H21 C28 1_555 1_555
C29 C28 1_555 1_555
Cd1 N2 1_555 1_555
Cd2 N4 1_555 1_555
N1 C1 1_555 1_555
N2 C1 1_555 1_555
N3 C13 1_555 1_555
N4 C16 1_555 1_555
O1 C19 1_555 1_555
O2 C19 1_555 1_555
O3 C24 1_555 1_555
O4 C24 1_555 1_555
O5 C29 1_555 1_555
O6 C29 1_555 1_555
O7 Cd1 1_555 1_555
H22 O7 1_555 1_555
O8 C20 1_555 1_555
O9 C26 1_555 1_555
O10 H23 1_555 1_555
H24 O10 1_555 1_555
O11 H25 1_555 1_555
O12 H26 1_555 1_555
H27 O12 1_555 1_555
C1E H1E 1_555 1_555
C2E H2E 1_555 1_555
C3E C2E 1_555 1_555
H3E C3E 1_555 1_555
C4E C5E 1_555 1_555
C5E H4E 1_555 1_555
C6E C5E 1_555 1_555
H5E C6E 1_555 1_555
C7E C6E 1_555 1_555
C8E C7E 1_555 1_555
H6E C8E 1_555 1_555
C9E C4E 1_555 1_555
H7E C9E 1_555 1_555
C10E C7E 1_555 1_555
C11E C10E 1_555 1_555
H8E C11E 1_555 1_555
C12E C11E 1_555 1_555
H9E C12E 1_555 1_555
C13E C12E 1_555 1_555
C14E C13E 1_555 1_555
H10E C14E 1_555 1_555
C15E C10E 1_555 1_555
H11E C15E 1_555 1_555
C16E H12E 1_555 1_555
C17E H13E 1_555 1_555
C18E C17E 1_555 1_555
H14E C18E 1_555 1_555
C19E C20E 1_555 1_555
C20E H15E 1_555 1_555
H16E C20E 1_555 1_555
C21E C22E 1_555 1_555
C22E H17E 1_555 1_555
C23E C22E 1_555 1_555
C24E C23E 1_555 1_555
C25E C23E 1_555 1_555
H18E C25E 1_555 1_555
C26E C25E 1_555 1_555
C27E C21E 1_555 1_555
H19E C27E 1_555 1_555
C28E H20E 1_555 1_555
H21E C28E 1_555 1_555
C29E C28E 1_555 1_555
Cd1E N2E 1_555 1_555
Cd1E_2 O1 1_555 1_555
Cd1D O6 1_555 1_555
Cd1A O6E 1_555 1_555
Cd1B O7B 1_555 1_555
Cd2G O2 1_555 1_555
Cd2G_2 O3 1_555 1_555
Cd2B O7 1_555 1_555
Cd2F O7 1_555 1_555
Cd2B_2 O3E 1_555 1_555
Cd2D O7B 1_555 1_555
Cd2E N4E 1_555 1_555
N1E C1E 1_555 1_555
N2E C1E 1_555 1_555
N3E C13E 1_555 1_555
N4E C16E 1_555 1_555
N4G Cd2G 1_555 1_555
O1E Cd1 1_555 1_555
O1_2 Cd1E 1_555 1_555
O2E C19E 1_555 1_555
O2G Cd2 1_555 1_555
O3E C24E 1_555 1_555
O3G Cd2 1_555 1_555
O3_2 Cd2G 1_555 1_555
O4E C24E 1_555 1_555
O4G Cd2 1_555 1_555
O4_2 Cd2G 1_555 1_555
O5E C29E 1_555 1_555
O6E C29E 1_555 1_555
O6D Cd1 1_555 1_555
O6A Cd1E 1_555 1_555
O7B Cd2 1_555 1_555
O7F Cd2 1_555 1_555
O7E Cd1E 1_555 1_555
O7E_2 Cd1E_2 1_555 1_555
O7A Cd2G 1_555 1_555
H22B O7B 1_555 1_555
H22F O7F 1_555 1_555
H22E O7E 1_555 1_555
H22E_2 O7E_2 1_555 1_555
H22A O7A 1_555 1_555
O8E C20E 1_555 1_555
O9E C26E 1_555 1_555
H25A O11 1_555 1_555
C2 N1 1_555 1_555
C3 N2 1_555 1_555
C4 N1 1_555 1_555
C8 C9 1_555 1_555
C14 C15 1_555 1_555
C16 N3 1_555 1_555
C17 N3 1_555 1_555
C18 N4 1_555 1_555
C21 O8 1_555 1_555
C26 C27 1_555 1_555
C28 O9 1_555 1_555
Cd1 O6 1_555 1_555
O4 Cd2G_2 1_555 1_555
C2E N1E 1_555 1_555
C3E N2E 1_555 1_555
C4E N1E 1_555 1_555
C8E C9E 1_555 1_555
C14E C15E 1_555 1_555
C16E N3E 1_555 1_555
C17E N3E 1_555 1_555
C18E N4E 1_555 1_555
C19E O1E 1_555 1_555
C21E O8E 1_555 1_555
C26E C27E 1_555 1_555
C28E O9E 1_555 1_555
Cd1E O6E 1_555 1_555
Cd1D O6D 1_555 1_555
Cd1A O6A 1_555 1_555
Cd2G O7E_2 1_555 1_555
Cd2B O2E 1_555 1_555
Cd2B_2 O4E 1_555 1_555
Cd2D O7F 1_555 1_555

#END
