
#######################################################################
#
#                 Cambridge Crystallographic Data Centre
#                                CCDC 
#
#######################################################################
#
# If this CIF has been generated from an entry in the Cambridge 
# Structural Database, then it will include bibliographic, chemical, 
# crystal, experimental, refinement or atomic coordinate data resulting 
# from the CCDC's data processing and validation procedures.
#
#######################################################################

data_HAVWUY
_symmetry_cell_setting           orthorhombic
_symmetry_space_group_name_H-M   'P b c a'
_symmetry_Int_Tables_number      61
_space_group_name_Hall           '-P 2ac 2ab'
loop_
_symmetry_equiv_pos_site_id
_symmetry_equiv_pos_as_xyz
1 x,y,z
2 1/2-x,-y,1/2+z
3 1/2+x,1/2-y,-z
4 -x,1/2+y,1/2-z
5 -x,-y,-z
6 1/2+x,y,1/2-z
7 1/2-x,1/2+y,z
8 x,1/2-y,1/2+z
_cell_length_a                   10.9413(12)
_cell_length_b                   7.3114(8)
_cell_length_c                   20.281(2)
_cell_angle_alpha                90
_cell_angle_beta                 90
_cell_angle_gamma                90
_cell_volume                     1622.4
loop_
_atom_site_label
_atom_site_type_symbol
_atom_site_fract_x
_atom_site_fract_y
_atom_site_fract_z
C1 C 0.0524(3) 0.3262(4) 0.13752(17)
C2 C 0.1662(3) 0.2518(4) 0.15277(16)
C3 C 0.2097(3) 0.2651(5) 0.21668(17)
H1 H 0.2862 0.2173 0.2270
C4 C 0.1417(4) 0.3476(5) 0.26487(19)
H2 H 0.1710 0.3529 0.3079
C5 C 0.0285(4) 0.4236(5) 0.24934(18)
H3 H -0.0178 0.4803 0.2819
C6 C -0.0145(3) 0.4143(5) 0.18549(19)
H4 H -0.0890 0.4678 0.1748
Cl1 Cl 0.23190(8) 0.41081(11) -0.03259(4)
Cl2 Cl 0.01141(7) -0.11877(12) 0.07234(4)
H5 H 0.258(3) 0.047(5) 0.1165(17)
H6 H 0.290(3) 0.216(5) 0.0953(18)
H7 H 0.006(4) 0.415(6) 0.053(2)
H8 H -0.052(4) 0.260(6) 0.071(2)
N1 N 0.2331(3) 0.1583(5) 0.10061(16)
N2 N 0.0110(3) 0.3067(5) 0.06973(17)
Ni1 Ni 0.12724(4) 0.13578(6) 0.01788(2)
Cl1F Cl 0.26810(8) -0.08919(11) -0.03259(4)
Cl2D Cl -0.01141(7) 0.11877(12) -0.07234(4)
Ni1F Ni 0.37276(4) 0.63578(6) 0.01788(2)
Ni1D Ni -0.12724(4) -0.13578(6) -0.01788(2)
loop_
_geom_bond_atom_site_label_1
_geom_bond_atom_site_label_2
_geom_bond_site_symmetry_1
_geom_bond_site_symmetry_2
C1 C2 1_555 1_555
C2 C3 1_555 1_555
C3 H1 1_555 1_555
C4 C3 1_555 1_555
H2 C4 1_555 1_555
C5 C4 1_555 1_555
H3 C5 1_555 1_555
C6 C1 1_555 1_555
H4 C6 1_555 1_555
Cl1 Ni1 1_555 1_555
Cl2 Ni1 1_555 1_555
H5 N1 1_555 1_555
H6 N1 1_555 1_555
H7 N2 1_555 1_555
H8 N2 1_555 1_555
N1 C2 1_555 1_555
N2 C1 1_555 1_555
Ni1 N1 1_555 1_555
Cl1F Ni1 1_555 1_555
Cl2D Ni1 1_555 1_555
Ni1F Cl1 1_555 1_555
Ni1D Cl2 1_555 1_555
C5 C6 1_555 1_555
N2 Ni1 1_555 1_555
Cl2D Ni1D 1_555 1_555

#END
