
#######################################################################
#
#                 Cambridge Crystallographic Data Centre
#                                CCDC 
#
#######################################################################
#
# If this CIF has been generated from an entry in the Cambridge 
# Structural Database, then it will include bibliographic, chemical, 
# crystal, experimental, refinement or atomic coordinate data resulting 
# from the CCDC's data processing and validation procedures.
#
#######################################################################

data_HAVXAF
_symmetry_cell_setting           triclinic
_symmetry_space_group_name_H-M   'P -1'
_symmetry_Int_Tables_number      2
_space_group_name_Hall           '-P 1'
loop_
_symmetry_equiv_pos_site_id
_symmetry_equiv_pos_as_xyz
1 x,y,z
2 -x,-y,-z
_cell_length_a                   14.6831(14)
_cell_length_b                   15.0031(14)
_cell_length_c                   15.362(3)
_cell_angle_alpha                106.352(2)
_cell_angle_beta                 99.882(2)
_cell_angle_gamma                118.6030(10)
_cell_volume                     2655.69
loop_
_atom_site_label
_atom_site_type_symbol
_atom_site_fract_x
_atom_site_fract_y
_atom_site_fract_z
O3 O 0.1171(16) 0.0501(17) 0.4309(17)
O6 O -0.0542(15) -0.1808(15) 0.4141(15)
Cu2 Cu 0.0000 0.0000 0.5000
C19 C -0.095(3) 0.055(2) 0.353(3)
H17 H -0.0269 0.1194 0.3668
C20 C -0.225(2) -0.095(3) 0.355(3)
H18 H -0.2627 -0.1533 0.3732
C21 C -0.210(3) 0.059(3) 0.214(3)
H19 H -0.2894 0.0172 0.1780
H20 H -0.1830 0.1369 0.2473
C22 C -0.1508(19) 0.0458(17) 0.1449(16)
C23 C -0.2026(19) -0.0583(17) 0.0664(18)
H21 H -0.2760 -0.1143 0.0521
C24 C -0.144(2) -0.0780(17) 0.0092(16)
H22 H -0.1783 -0.1472 -0.0430
C25 C -0.0333(19) 0.0063(17) 0.0307(16)
C26 C 0.0186(16) 0.1104(17) 0.1092(16)
H23 H 0.0920 0.1664 0.1235
C27 C -0.0402(17) 0.1302(16) 0.1664(15)
H24 H -0.0058 0.1993 0.2186
N7 N -0.1153(19) -0.0185(16) 0.3949(15)
N8 N -0.192(2) 0.017(2) 0.2880(17)
N9 N -0.275(2) -0.079(2) 0.286(2)
O3A O -0.1171(16) -0.0501(17) 0.5691(17)
O6A O 0.0542(15) 0.1808(15) 0.5859(15)
Cu2_2 Cu 0.0000 0.0000 -0.5000
C19A C 0.095(3) -0.055(2) -0.353(3)
H17A H 0.0269 -0.1194 -0.3668
C20A C 0.225(2) 0.095(3) -0.355(3)
H18A H 0.2627 0.1533 -0.3732
C21A C 0.210(3) -0.059(3) -0.214(3)
H19A H 0.2894 -0.0172 -0.1780
H20A H 0.1830 -0.1369 -0.2473
C22A C 0.1508(19) -0.0458(17) -0.1449(16)
C23A C 0.2026(19) 0.0583(17) -0.0664(18)
H21A H 0.2760 0.1143 -0.0521
C24A C 0.144(2) 0.0780(17) -0.0092(16)
H22A H 0.1783 0.1472 0.0430
C25A C 0.0333(19) -0.0063(17) -0.0307(16)
C26A C -0.0186(16) -0.1104(17) -0.1092(16)
H23A H -0.0920 -0.1664 -0.1235
C27A C 0.0402(17) -0.1302(16) -0.1664(15)
H24A H 0.0058 -0.1993 -0.2186
N7A N 0.1153(19) 0.0185(16) -0.3949(15)
N7A_2 N 0.1153(19) 0.0185(16) 0.6051(15)
N8A N 0.192(2) -0.017(2) -0.2880(17)
N9A N 0.275(2) 0.079(2) -0.286(2)
O25 O 0.041(4) 0.906(4) 0.244(4)
O26 O 0.525(6) 0.442(6) 0.918(5)
P1 P 0.5000 0.5000 0.5000
W1 W 0.39813(10) 0.64634(9) 0.62911(9)
W2 W 0.67343(10) 0.55077(10) 0.72672(9)
W3 W 0.20967(8) 0.37055(9) 0.44701(9)
W4 W 0.30998(8) 0.22290(8) 0.31742(8)
W5 W 0.38251(11) 0.42206(10) 0.67133(10)
W6 W 0.48433(9) 0.27406(8) 0.54501(8)
O1 O 0.511(3) 0.452(3) 0.576(2)
O2 O 0.389(2) 0.416(2) 0.420(2)
O4 O 0.522(2) 0.609(2) 0.544(2)
O5 O 0.407(3) 0.491(3) 0.545(2)
O7 O 0.5382(16) 0.5056(17) 0.7483(17)
O8 O 0.760(2) 0.581(2) 0.8372(16)
O9 O 0.391(2) 0.5588(16) 0.6968(15)
O10 O 0.3973(15) 0.3004(17) 0.6118(18)
O11 O 0.326(2) 0.3811(17) 0.7597(18)
O12 O 0.260(2) 0.5170(16) 0.5309(18)
O13 O 0.250(2) 0.3479(14) 0.5599(16)
O14 O 0.6137(17) 0.3966(18) 0.6533(16)
O15 O 0.5578(16) 0.7492(19) 0.7007(13)
O16 O 0.2237(17) 0.0874(14) 0.2313(14)
O17 O 0.4785(15) 0.1631(16) 0.5597(17)
O18 O 0.2157(17) 0.2460(16) 0.3774(15)
O19 O 0.7002(18) 0.6956(18) 0.7537(16)
O20 O 0.3591(14) 0.1963(18) 0.4241(15)
O21 O 0.7724(17) 0.5880(18) 0.6578(16)
O22 O 0.3570(17) 0.7238(17) 0.6875(15)
O23 O 0.5763(15) 0.3010(18) 0.4689(14)
O24 O 0.0723(15) 0.3063(15) 0.4185(16)
Cu1 Cu 0.5000 0.0000 0.5000
C1 C 0.515(3) -0.049(3) 0.301(3)
H1 H 0.5592 -0.0750 0.3181
C2 C 0.413(2) 0.011(2) 0.3046(18)
H2 H 0.3706 0.0388 0.3213
C3 C 0.382(2) 0.015(2) 0.1422(17)
H3 H 0.4428 0.0714 0.1318
H4 H 0.3380 0.0447 0.1605
C4 C 0.310(2) -0.089(2) 0.0491(17)
C5 C 0.353(3) -0.119(3) -0.017(2)
H5 H 0.4288 -0.0784 -0.0032
C6 C 0.275(3) -0.217(3) -0.109(3)
H6 H 0.3007 -0.2333 -0.1589
C7 C 0.167(2) -0.286(2) -0.122(2)
C8 C 0.130(3) -0.254(2) -0.054(2)
H7 H 0.0547 -0.2989 -0.0655
C9 C 0.198(2) -0.159(2) 0.033(2)
H8 H 0.1684 -0.1428 0.0797
C10 C 0.099(2) -0.3861(18) -0.2155(19)
C11 C 0.135(2) -0.443(2) -0.267(2)
H9 H 0.2091 -0.4183 -0.2425
C12 C 0.063(3) -0.538(2) -0.355(2)
H10 H 0.0905 -0.5775 -0.3844
C13 C -0.0375(19) -0.5726(19) -0.398(2)
C14 C -0.082(3) -0.519(2) -0.347(2)
H11 H -0.1577 -0.5471 -0.3719
C15 C -0.014(2) -0.426(2) -0.259(2)
H12 H -0.0427 -0.3885 -0.2287
C16 C -0.114(2) -0.675(2) -0.4979(18)
H13 H -0.1564 -0.6586 -0.5387
H14 H -0.0694 -0.6913 -0.5304
C17 C -0.246(2) -0.904(2) -0.449(2)
H15 H -0.2451 -0.9545 -0.4253
C18 C -0.296(2) -0.813(2) -0.4976(18)
H16 H -0.3347 -0.7843 -0.5185
N1 N 0.4669(15) -0.0161(15) 0.3608(14)
N2 N 0.496(3) -0.043(3) 0.221(2)
N3 N 0.429(2) -0.0069(18) 0.2268(13)
N4 N -0.3374(15) -0.9011(17) -0.4765(14)
N5 N -0.162(2) -0.831(2) -0.4582(17)
N6 N -0.1905(18) -0.7723(15) -0.4845(15)
W1A W 0.60187(10) 0.35366(9) 0.37089(9)
W1_2 W 0.39813(10) -0.35366(9) 0.62911(9)
W2A W 0.32657(10) 0.44923(10) 0.27328(9)
W2A_2 W 0.32657(10) -0.55077(10) 0.27328(9)
W3A W 0.79033(8) 0.62945(9) 0.55299(9)
W4A W 0.69002(8) 0.77710(8) 0.68258(8)
W4A_2 W 0.69002(8) -0.22290(8) 0.68258(8)
W5A W 0.61749(11) 0.57794(10) 0.32867(10)
W5A_2 W 0.61749(11) -0.42206(10) 0.32867(10)
W6A W 0.51567(9) -0.27406(8) 0.45499(8)
W6A_2 W 0.51567(9) 0.72594(8) 0.45499(8)
O1A O 0.489(3) 0.548(3) 0.424(2)
O1A_2 O 0.489(3) -0.452(3) 0.424(2)
O2A O 0.611(2) 0.584(2) 0.580(2)
O4A O 0.478(2) 0.391(2) 0.456(2)
O4_2 O 0.522(2) -0.391(2) 0.544(2)
O5A O 0.593(3) 0.509(3) 0.455(2)
O7A O 0.4618(16) 0.4944(17) 0.2517(17)
O8A O 0.240(2) 0.419(2) 0.1628(16)
O9A O 0.609(2) 0.4412(16) 0.3032(15)
O10A O 0.6027(15) -0.3004(17) 0.3882(18)
O10A_2 O 0.6027(15) 0.6996(17) 0.3882(18)
O11A O 0.674(2) 0.6189(17) 0.2403(18)
O12A O 0.740(2) 0.4830(16) 0.4691(18)
O13A O 0.750(2) 0.6521(14) 0.4401(16)
O14A O 0.3863(17) -0.3966(18) 0.3467(16)
O14A_2 O 0.3863(17) 0.6034(18) 0.3467(16)
O15A O 0.4422(16) 0.2508(19) 0.2993(13)
O16A O 0.7763(17) 0.9126(14) 0.7687(14)
O17A O 0.5215(15) -0.1631(16) 0.4403(17)
O17A_2 O 0.5215(15) 0.8369(16) 0.4403(17)
O18A O 0.7843(17) 0.7540(16) 0.6226(15)
O19A O 0.2998(18) 0.3044(18) 0.2463(16)
O20A O 0.6409(14) -0.1963(18) 0.5759(15)
O20A_2 O 0.6409(14) 0.8037(18) 0.5759(15)
O21A O 0.2276(17) 0.4120(18) 0.3422(16)
O22A O 0.6430(17) 0.2762(17) 0.3125(15)
O23A O 0.4237(15) -0.3010(18) 0.5311(14)
O23A_2 O 0.4237(15) 0.6990(18) 0.5311(14)
O24A O 0.9277(15) 0.6937(15) 0.5815(16)
Cu1_2 Cu -0.5000 -1.0000 -0.5000
Cu1_3 Cu 1.5000 1.0000 1.5000
Cu1_4 Cu 0.5000 1.0000 0.5000
C1A C 0.485(3) 0.049(3) 0.699(3)
H1A H 0.4408 0.0750 0.6819
C2A C 0.587(2) -0.011(2) 0.6954(18)
H2A H 0.6294 -0.0388 0.6787
C3A C 0.618(2) -0.015(2) 0.8578(17)
H3A H 0.5572 -0.0714 0.8682
H4A H 0.6620 -0.0447 0.8395
C4A C 0.690(2) 0.089(2) 0.9509(17)
C5A C 0.647(3) 0.119(3) 1.017(2)
H5A H 0.5712 0.0784 1.0032
C6A C 0.725(3) 0.217(3) 1.109(3)
H6A H 0.6993 0.2333 1.1589
C7A C 0.833(2) 0.286(2) 1.122(2)
C8A C 0.870(3) 0.254(2) 1.054(2)
H7A H 0.9453 0.2989 1.0655
C9A C 0.802(2) 0.159(2) 0.967(2)
H8A H 0.8316 0.1428 0.9203
C10A C 0.901(2) 0.3861(18) 1.2155(19)
C11A C 0.865(2) 0.443(2) 1.267(2)
H9A H 0.7909 0.4183 1.2425
C12A C 0.937(3) 0.538(2) 1.355(2)
H10A H 0.9095 0.5775 1.3844
C13A C 1.0375(19) 0.5726(19) 1.398(2)
C14A C 1.082(3) 0.519(2) 1.347(2)
H11A H 1.1577 0.5471 1.3719
C15A C 1.014(2) 0.426(2) 1.259(2)
H12A H 1.0427 0.3885 1.2287
C16A C 1.114(2) 0.675(2) 1.4979(18)
H13A H 1.1564 0.6586 1.5387
H14A H 1.0694 0.6913 1.5304
C17A C 1.246(2) 0.904(2) 1.449(2)
H15A H 1.2451 0.9545 1.4253
C18A C 1.296(2) 0.813(2) 1.4976(18)
H16A H 1.3347 0.7843 1.5185
N1A N 0.5331(15) 0.0161(15) 0.6392(14)
N2A N 0.504(3) 0.043(3) 0.779(2)
N3A N 0.571(2) 0.0069(18) 0.7732(13)
N4A N 1.3374(15) 0.9011(17) 1.4765(14)
N4_2 N 0.6626(15) 0.0989(17) 0.5235(14)
N4A_2 N 0.3374(15) -0.0989(17) 0.4765(14)
N5A N 1.162(2) 0.831(2) 1.4582(17)
N6A N 1.1905(18) 0.7723(15) 1.4845(15)
loop_
_geom_bond_atom_site_label_1
_geom_bond_atom_site_label_2
_geom_bond_site_symmetry_1
_geom_bond_site_symmetry_2
P1 O1 1_555 1_555
W1 O5 1_555 1_555
W2 O1 1_555 1_555
W3 O2 1_555 1_555
W4 O2 1_555 1_555
W5 O1 1_555 1_555
W6 O1 1_555 1_555
O1 O2A 1_555 1_555
O2 P1 1_555 1_555
O3 Cu2 1_555 1_555
O4 P1 1_555 1_555
O5 P1 1_555 1_555
O6 Cu2 1_555 1_555
O7 W2 1_555 1_555
O8 W2 1_555 1_555
O9 W1 1_555 1_555
O10 W5 1_555 1_555
O11 W5 1_555 1_555
O12 W1 1_555 1_555
O13 W3 1_555 1_555
O14 W2 1_555 1_555
O15 W1 1_555 1_555
O16 W4 1_555 1_555
O17 W6 1_555 1_555
O18 W3 1_555 1_555
O19 W2 1_555 1_555
O20 W4 1_555 1_555
O21 W2 1_555 1_555
O22 W1 1_555 1_555
O23 W6 1_555 1_555
O24 W3 1_555 1_555
Cu1 O17 1_555 1_555
Cu2 N7 1_555 1_555
C1 H1 1_555 1_555
C2 H2 1_555 1_555
C3 H3 1_555 1_555
H4 C3 1_555 1_555
C4 C3 1_555 1_555
C5 C4 1_555 1_555
H5 C5 1_555 1_555
C6 C5 1_555 1_555
H6 C6 1_555 1_555
C7 C6 1_555 1_555
C8 C7 1_555 1_555
H7 C8 1_555 1_555
C9 C4 1_555 1_555
H8 C9 1_555 1_555
C10 C7 1_555 1_555
C11 C10 1_555 1_555
H9 C11 1_555 1_555
C12 C11 1_555 1_555
H10 C12 1_555 1_555
C13 C12 1_555 1_555
C14 C13 1_555 1_555
H11 C14 1_555 1_555
C15 C10 1_555 1_555
H12 C15 1_555 1_555
C16 C13 1_555 1_555
H13 C16 1_555 1_555
H14 C16 1_555 1_555
C17 H15 1_555 1_555
C18 H16 1_555 1_555
C19 H17 1_555 1_555
C20 H18 1_555 1_555
C21 H19 1_555 1_555
H20 C21 1_555 1_555
C22 C21 1_555 1_555
C23 C22 1_555 1_555
H21 C23 1_555 1_555
C24 C23 1_555 1_555
H22 C24 1_555 1_555
C25 C24 1_555 1_555
C26 C25 1_555 1_555
H23 C26 1_555 1_555
C27 C22 1_555 1_555
H24 C27 1_555 1_555
N1 Cu1 1_555 1_555
N2 C1 1_555 1_555
N3 C2 1_555 1_555
N4 C17 1_555 1_555
N5 C17 1_555 1_555
N6 C16 1_555 1_555
N7 C19 1_555 1_555
N8 C19 1_555 1_555
N9 C20 1_555 1_555
W1A O23 1_555 1_555
W1_2 O23A 1_555 1_555
W2A O2 1_555 1_555
W2A_2 O1A_2 1_555 1_555
W3A O21 1_555 1_555
W4A O4 1_555 1_555
W4A_2 O4_2 1_555 1_555
W5A O1A 1_555 1_555
W5A_2 O1A_2 1_555 1_555
W6A O1A_2 1_555 1_555
W6A_2 O4 1_555 1_555
O1A P1 1_555 1_555
O1A_2 O4_2 1_555 1_555
O2A P1 1_555 1_555
O3A Cu2 1_555 1_555
O4A P1 1_555 1_555
O4_2 W6A 1_555 1_555
O5A P1 1_555 1_555
O6A Cu2 1_555 1_555
O7A W2A 1_555 1_555
O8A W2A 1_555 1_555
O9A W1A 1_555 1_555
O10A W5A_2 1_555 1_555
O10A_2 W5A 1_555 1_555
O11A W5A 1_555 1_555
O12A W1A 1_555 1_555
O13A W3A 1_555 1_555
O14A W2A_2 1_555 1_555
O14A_2 W2A 1_555 1_555
O15A W4 1_555 1_555
O16A W4A 1_555 1_555
O17A Cu1 1_555 1_555
O17A_2 W6A_2 1_555 1_555
O18A W3A 1_555 1_555
O19A W4 1_555 1_555
O20A W4A_2 1_555 1_555
O20A_2 W4A 1_555 1_555
O21A W3 1_555 1_555
O22A W1A 1_555 1_555
O23A W6A 1_555 1_555
O23A_2 W1 1_555 1_555
O24A W3A 1_555 1_555
Cu1_2 N4 1_555 1_555
Cu1_3 N4A 1_555 1_555
Cu1_4 O17A_2 1_555 1_555
Cu2_2 N7A 1_555 1_555
C1A H1A 1_555 1_555
C2A H2A 1_555 1_555
C3A H3A 1_555 1_555
H4A C3A 1_555 1_555
C4A C3A 1_555 1_555
C5A C4A 1_555 1_555
H5A C5A 1_555 1_555
C6A C5A 1_555 1_555
H6A C6A 1_555 1_555
C7A C6A 1_555 1_555
C8A C7A 1_555 1_555
H7A C8A 1_555 1_555
C9A C4A 1_555 1_555
H8A C9A 1_555 1_555
C10A C7A 1_555 1_555
C11A C10A 1_555 1_555
H9A C11A 1_555 1_555
C12A C11A 1_555 1_555
H10A C12A 1_555 1_555
C13A C12A 1_555 1_555
C14A C13A 1_555 1_555
H11A C14A 1_555 1_555
C15A C10A 1_555 1_555
H12A C15A 1_555 1_555
C16A C13A 1_555 1_555
H13A C16A 1_555 1_555
H14A C16A 1_555 1_555
C17A H15A 1_555 1_555
C18A H16A 1_555 1_555
C19A H17A 1_555 1_555
C20A H18A 1_555 1_555
C21A H19A 1_555 1_555
H20A C21A 1_555 1_555
C22A C21A 1_555 1_555
C23A C22A 1_555 1_555
H21A C23A 1_555 1_555
C24A C23A 1_555 1_555
H22A C24A 1_555 1_555
C25A C25 1_555 1_555
C26A C25A 1_555 1_555
H23A C26A 1_555 1_555
C27A C22A 1_555 1_555
H24A C27A 1_555 1_555
N1A Cu1 1_555 1_555
N2A C1A 1_555 1_555
N3A C2A 1_555 1_555
N4A C17A 1_555 1_555
N4_2 Cu1 1_555 1_555
N4A_2 Cu1 1_555 1_555
N5A C17A 1_555 1_555
N6A C16A 1_555 1_555
N7A C19A 1_555 1_555
N7A_2 Cu2 1_555 1_555
N8A C19A 1_555 1_555
N9A C20A 1_555 1_555
W2 O2A 1_555 1_555
W3 O5 1_555 1_555
W3 O12 1_555 1_555
W4 O18 1_555 1_555
W4 O4A 1_555 1_555
W5 O5 1_555 1_555
W5 O7 1_555 1_555
W5 O9 1_555 1_555
W5 O13 1_555 1_555
W6 O10 1_555 1_555
W6 O14 1_555 1_555
W6 O20 1_555 1_555
W6 O4A 1_555 1_555
O1 O4A 1_555 1_555
O2 O5 1_555 1_555
O2 O1A 1_555 1_555
O2 O4A 1_555 1_555
O4 O5 1_555 1_555
O4 O1A 1_555 1_555
O4 O2A 1_555 1_555
O15 W4A 1_555 1_555
O19 W4A 1_555 1_555
C1 N1 1_555 1_555
C2 N1 1_555 1_555
C3 N3 1_555 1_555
C8 C9 1_555 1_555
C14 C15 1_555 1_555
C18 N4 1_555 1_555
C18 N6 1_555 1_555
C20 N7 1_555 1_555
C21 N8 1_555 1_555
C26 C27 1_555 1_555
N2 N3 1_555 1_555
N5 N6 1_555 1_555
N8 N9 1_555 1_555
W1A O5A 1_555 1_555
W1A O15A 1_555 1_555
W2A O1A 1_555 1_555
W2A O19A 1_555 1_555
W2A O21A 1_555 1_555
W3A O2A 1_555 1_555
W3A O5A 1_555 1_555
W3A O12A 1_555 1_555
W4A O2A 1_555 1_555
W4A O18A 1_555 1_555
W5A O5A 1_555 1_555
W5A O7A 1_555 1_555
W5A O9A 1_555 1_555
W5A O13A 1_555 1_555
W6A O10A 1_555 1_555
W6A O14A 1_555 1_555
W6A O17A 1_555 1_555
W6A O20A 1_555 1_555
W6A_2 O1A 1_555 1_555
W6A_2 O10A_2 1_555 1_555
W6A_2 O14A_2 1_555 1_555
W6A_2 O20A_2 1_555 1_555
W6A_2 O23A_2 1_555 1_555
O2A O5A 1_555 1_555
O4A O5A 1_555 1_555
C1A N1A 1_555 1_555
C2A N1A 1_555 1_555
C3A N3A 1_555 1_555
C8A C9A 1_555 1_555
C14A C15A 1_555 1_555
C18A N4A 1_555 1_555
C18A N6A 1_555 1_555
C20A N7A 1_555 1_555
C21A N8A 1_555 1_555
C24A C25A 1_555 1_555
C26A C27A 1_555 1_555
N2A N3A 1_555 1_555
N5A N6A 1_555 1_555
N8A N9A 1_555 1_555

#END
