
#######################################################################
#
#                 Cambridge Crystallographic Data Centre
#                                CCDC 
#
#######################################################################
#
# If this CIF has been generated from an entry in the Cambridge 
# Structural Database, then it will include bibliographic, chemical, 
# crystal, experimental, refinement or atomic coordinate data resulting 
# from the CCDC's data processing and validation procedures.
#
#######################################################################

data_HAVXOT01
_symmetry_cell_setting           monoclinic
_symmetry_space_group_name_H-M   'P 21/n'
_symmetry_Int_Tables_number      14
_space_group_name_Hall           '-P 2yn'
loop_
_symmetry_equiv_pos_site_id
_symmetry_equiv_pos_as_xyz
1 x,y,z
2 1/2-x,1/2+y,1/2-z
3 -x,-y,-z
4 1/2+x,1/2-y,1/2+z
_cell_length_a                   9.7232(5)
_cell_length_b                   11.5052(6)
_cell_length_c                   11.6284(6)
_cell_angle_alpha                90
_cell_angle_beta                 109.3831(6)
_cell_angle_gamma                90
_cell_volume                     1227.11
loop_
_atom_site_label
_atom_site_type_symbol
_atom_site_fract_x
_atom_site_fract_y
_atom_site_fract_z
Eu1 Eu 0.754239(11) 0.177479(10) 0.498081(9)
O1 O 0.58715(18) 0.10542(15) 0.60525(15)
O2 O 0.91471(19) 0.10402(16) 0.39226(16)
O3 O 0.4936(2) 0.24071(18) 0.39725(15)
O4 O 0.68873(19) 0.22817(17) 0.28102(16)
O5 O 0.6034(2) 0.00733(16) 0.40294(16)
O6 O 0.8896(2) 0.00309(16) 0.59130(17)
O7 O 0.82400(19) 0.20551(16) 0.72349(16)
O8 O 1.0125(2) 0.23429(18) 0.60478(16)
O9 O 0.7479(2) 0.37861(19) 0.50415(17)
Zn1 Zn 0.65039(3) 0.17350(2) 0.79056(3)
C1 C 0.4945(2) 0.0278(2) 0.5588(2)
C2 C 1.0067(3) 0.0297(2) 0.4425(2)
C3 C 0.4508(3) 0.2624(2) 0.2872(2)
C4 C 0.5599(3) 0.2509(2) 0.2175(2)
C5 C 0.7676(3) 0.4780(2) 0.5499(2)
O10 O 0.7150(2) -0.00057(16) 0.84087(17)
O11 O 0.4376(2) 0.1385(2) 0.7905(2)
O12 O 0.5931(3) 0.34267(18) 0.7253(2)
N1 N 0.7310(3) 0.19097(19) 0.9790(2)
C6 C 0.7707(4) 0.5765(2) 0.4648(3)
H1 H 0.3826 0.1265 0.7187
H2 H 0.4066 0.1957 0.8195
H3 H 0.6671 0.3856 0.7484
H4 H 0.5293 0.3686 0.7527
H5 H 0.8206 0.2181 1.0017
H6 H 0.6768 0.2403 1.0029
H7 H 0.8578 0.5699 0.4421
H8 H 0.6869 0.5702 0.3911
C1B C 0.5055(2) -0.0278(2) 0.4412(2)
C2B C 0.9933(3) -0.0297(2) 0.5575(2)
C3C C 0.9508(3) 0.2376(2) 0.7872(2)
C4C C 1.0599(3) 0.2491(2) 0.7175(2)
O5B O 0.3966(2) -0.00733(16) 0.59706(16)
O6B O 1.1104(2) -0.00309(16) 0.40870(17)
O7C O 0.32400(19) 0.29449(16) 0.22349(16)
O8C O 0.5125(2) 0.26571(18) 0.10478(16)
O1B O 0.41285(18) -0.10542(15) 0.39475(15)
O2B O 1.08529(19) -0.10402(16) 0.60774(16)
O3C O 0.9936(2) 0.25929(18) 0.89725(15)
O4C O 1.18873(19) 0.27183(17) 0.78102(16)
O10A O 0.7850(2) 0.49943(16) 0.65913(17)
C5A C 0.7324(3) -0.0220(2) 0.9501(2)
C6A C 0.7293(4) 0.0765(2) 1.0352(3)
Eu1B Eu 0.245761(11) -0.177479(10) 0.501919(9)
Eu1B_2 Eu 1.245761(11) -0.177479(10) 0.501919(9)
Eu1C Eu 0.254239(11) 0.322521(10) -0.001919(9)
Zn1C Zn 0.15039(3) 0.32650(2) 0.29056(3)
Zn1B Zn 0.34961(3) -0.17350(2) 0.20944(3)
Eu1C_2 Eu 1.254239(11) 0.322521(10) 0.998081(9)
N1A N 0.7690(3) 0.69097(19) 0.5210(2)
Zn1A Zn 0.84961(3) 0.67350(2) 0.70944(3)
O9A O 0.7521(2) -0.12139(19) 0.99585(17)
H7A H 0.6422 0.0699 1.0579
H8A H 0.8131 0.0702 1.1089
O3B O 0.5064(2) -0.24071(18) 0.60275(15)
O4B O 0.31127(19) -0.22817(17) 0.71898(16)
O2B_2 O 0.08529(19) -0.10402(16) 0.60774(16)
O6B_2 O 0.1104(2) -0.00309(16) 0.40870(17)
O7B O 0.17600(19) -0.20551(16) 0.27651(16)
O8B O -0.0125(2) -0.23429(18) 0.39522(16)
O9B O 0.2521(2) -0.37861(19) 0.49585(17)
O10B O 0.2850(2) 0.00057(16) 0.15913(17)
O11B O 0.5624(2) -0.1385(2) 0.2095(2)
O12B O 0.4069(3) -0.34267(18) 0.2747(2)
N1B N 0.2690(3) -0.19097(19) 0.0210(2)
H5A H 0.6794 0.7181 0.4983
H6A H 0.8232 0.7403 0.4971
Eu1A Eu 0.745761(11) -0.322521(10) 1.001919(9)
H1B H 0.6174 -0.1265 0.2813
H2B H 0.5934 -0.1957 0.1805
H3B H 0.3329 -0.3856 0.2516
H4B H 0.4707 -0.3686 0.2473
H5B H 0.1794 -0.2181 -0.0017
H6B H 0.3232 -0.2403 -0.0029
loop_
_geom_bond_atom_site_label_1
_geom_bond_atom_site_label_2
_geom_bond_site_symmetry_1
_geom_bond_site_symmetry_2
Eu1 O1 1_555 1_555
O1 Zn1 1_555 1_555
O2 Eu1 1_555 1_555
O3 Eu1 1_555 1_555
O4 Eu1 1_555 1_555
O5 Eu1 1_555 1_555
O6 Eu1 1_555 1_555
O7 Eu1 1_555 1_555
O8 Eu1 1_555 1_555
O9 Eu1 1_555 1_555
Zn1 O7 1_555 1_555
C1 O1 1_555 1_555
C2 O2 1_555 1_555
C3 O3 1_555 1_555
C4 O4 1_555 1_555
C5 O9 1_555 1_555
O10 Zn1 1_555 1_555
O11 Zn1 1_555 1_555
O12 Zn1 1_555 1_555
N1 Zn1 1_555 1_555
C6 C5 1_555 1_555
H1 O11 1_555 1_555
H2 O11 1_555 1_555
H3 O12 1_555 1_555
H4 O12 1_555 1_555
H5 N1 1_555 1_555
H6 N1 1_555 1_555
H7 C6 1_555 1_555
H8 C6 1_555 1_555
C1B O5 1_555 1_555
C2B O6 1_555 1_555
C3C O7 1_555 1_555
C4C O8 1_555 1_555
O5B C1 1_555 1_555
O6B C2 1_555 1_555
O7C C3 1_555 1_555
O8C C4 1_555 1_555
O1B C1B 1_555 1_555
O2B C2B 1_555 1_555
O3C C3C 1_555 1_555
O4C C4C 1_555 1_555
O10A C5 1_555 1_555
C5A O10 1_555 1_555
C6A N1 1_555 1_555
Eu1B O5B 1_555 1_555
Eu1B_2 O6B 1_555 1_555
Eu1C O7C 1_555 1_555
Zn1C O7C 1_555 1_555
Zn1B O1B 1_555 1_555
Eu1C_2 O3C 1_555 1_555
N1A C6 1_555 1_555
Zn1A O10A 1_555 1_555
O9A C5A 1_555 1_555
H7A C6A 1_555 1_555
H8A C6A 1_555 1_555
O3B Eu1B 1_555 1_555
O4B Eu1B 1_555 1_555
O2B_2 Eu1B 1_555 1_555
O6B_2 Eu1B 1_555 1_555
O7B Eu1B 1_555 1_555
O8B Eu1B 1_555 1_555
O9B Eu1B 1_555 1_555
O10B Zn1B 1_555 1_555
O11B Zn1B 1_555 1_555
O12B Zn1B 1_555 1_555
N1B Zn1B 1_555 1_555
H5A N1A 1_555 1_555
H6A N1A 1_555 1_555
Eu1A O9A 1_555 1_555
H1B O11B 1_555 1_555
H2B O11B 1_555 1_555
H3B O12B 1_555 1_555
H4B O12B 1_555 1_555
H5B N1B 1_555 1_555
H6B N1B 1_555 1_555
C1 C1B 1_555 1_555
C2 C2B 1_555 1_555
C3 C4 1_555 1_555
C3C C4C 1_555 1_555
O8C Eu1C 1_555 1_555
O1B Eu1B 1_555 1_555
O2B Eu1B_2 1_555 1_555
O4C Eu1C_2 1_555 1_555
C5A C6A 1_555 1_555
Zn1B O7B 1_555 1_555
N1A Zn1A 1_555 1_555

#END
