
#######################################################################
#
#                 Cambridge Crystallographic Data Centre
#                                CCDC 
#
#######################################################################
#
# If this CIF has been generated from an entry in the Cambridge 
# Structural Database, then it will include bibliographic, chemical, 
# crystal, experimental, refinement or atomic coordinate data resulting 
# from the CCDC's data processing and validation procedures.
#
#######################################################################

data_HAVYIN
_symmetry_cell_setting           monoclinic
_symmetry_space_group_name_H-M   'P 21/c'
_symmetry_Int_Tables_number      14
_space_group_name_Hall           '-P 2ybc'
loop_
_symmetry_equiv_pos_site_id
_symmetry_equiv_pos_as_xyz
1 x,y,z
2 -x,1/2+y,1/2-z
3 -x,-y,-z
4 x,1/2-y,1/2+z
_cell_length_a                   12.848(12)
_cell_length_b                   12.943(12)
_cell_length_c                   16.386(15)
_cell_angle_alpha                90
_cell_angle_beta                 106.287(15)
_cell_angle_gamma                90
_cell_volume                     2615.5
loop_
_atom_site_label
_atom_site_type_symbol
_atom_site_fract_x
_atom_site_fract_y
_atom_site_fract_z
Ni1 Ni 0.5000 0.5000 0.5000
K1 K 0.65587(9) 0.45387(8) 0.08624(7)
N1 N 0.7581(4) 0.4382(5) 0.2669(4)
N2 N 0.9334(4) 0.6253(4) 0.4852(4)
O1 O 0.8168(2) 0.5634(2) 0.04651(19)
O2 O 0.8094(2) 0.3683(2) 0.0203(2)
O3 O 0.6694(2) 0.2452(2) 0.08078(19)
O4 O 0.5198(3) 0.3455(3) 0.1508(2)
O5 O 0.4586(3) 0.5543(3) 0.09819(19)
O6 O 0.6572(2) 0.6602(2) 0.10393(19)
S1 S 0.55988(10) 0.44568(10) 0.39450(8)
S2 S 0.66571(10) 0.56474(10) 0.53520(8)
C1 C 0.8503(3) 0.5332(3) -0.0223(3)
C2 C 0.8834(3) 0.5997(4) -0.0738(3)
H1 H 0.8867 0.6702 -0.0625
C3 C 0.9133(4) 0.5608(4) -0.1456(3)
C4 C 0.9469(4) 0.6269(4) -0.2021(3)
H2 H 0.9506 0.6977 -0.1923
C5 C 0.9738(4) 0.5884(5) -0.2703(4)
H3 H 0.9943 0.6329 -0.3076
C6 C 0.9705(4) 0.4816(5) -0.2845(4)
H4 H 0.9911 0.4551 -0.3304
C7 C 0.9377(4) 0.4166(5) -0.2318(3)
H5 H 0.9346 0.3460 -0.2426
C8 C 0.9085(4) 0.4547(4) -0.1613(3)
C9 C 0.8733(3) 0.3876(4) -0.1054(3)
H6 H 0.8696 0.3169 -0.1157
C10 C 0.8452(3) 0.4254(4) -0.0374(3)
C11 C 0.8092(4) 0.2577(3) 0.0121(3)
H7 H 0.8806 0.2332 0.0122
H8 H 0.7576 0.2364 -0.0406
C12 C 0.7779(4) 0.2149(4) 0.0864(3)
H9 H 0.7831 0.1401 0.0866
H10 H 0.8267 0.2407 0.1388
C13 C 0.6310(5) 0.2018(4) 0.1472(3)
H11 H 0.6767 0.2240 0.2022
H12 H 0.6331 0.1270 0.1449
C14 C 0.5187(5) 0.2374(4) 0.1356(3)
H13 H 0.4751 0.2224 0.0782
H14 H 0.4872 0.2016 0.1750
C15 C 0.4161(4) 0.3898(4) 0.1416(3)
H15 H 0.3807 0.3547 0.1788
H16 H 0.3715 0.3814 0.0835
C16 C 0.4274(4) 0.5009(4) 0.1633(3)
H17 H 0.3591 0.5279 0.1683
H18 H 0.4818 0.5104 0.2174
C17 C 0.4791(4) 0.6639(4) 0.1168(3)
H19 H 0.4349 0.6873 0.1524
H20 H 0.4576 0.7027 0.0641
C18 C 0.5936(4) 0.6856(4) 0.1600(3)
H21 H 0.6026 0.7581 0.1754
H22 H 0.6171 0.6449 0.2116
C19 C 0.7680(4) 0.6875(4) 0.1356(3)
H23 H 0.8031 0.6442 0.1838
H24 H 0.7747 0.7590 0.1541
C20 C 0.8205(4) 0.6725(3) 0.0655(3)
H25 H 0.7819 0.7113 0.0155
H26 H 0.8951 0.6964 0.0833
C21 C 0.6780(4) 0.5106(3) 0.4424(3)
C22 C 0.7663(4) 0.5201(4) 0.4101(3)
C23 C 0.7639(4) 0.4712(4) 0.3318(4)
C24 C 0.8593(4) 0.5767(4) 0.4529(4)
K1B K 0.34413(9) 0.54613(8) 0.91376(7)
K1B_2 K 0.34413(9) 0.54613(8) -0.08624(7)
N1B N 0.2419(4) 0.5618(5) 0.7331(4)
N1B_2 N 0.2419(4) 0.5618(5) -0.2669(4)
N2B N 0.0666(4) 0.3747(4) 0.5148(4)
O1B O 0.1832(2) 0.4366(2) -0.04651(19)
O2B O 0.1906(2) 0.6317(2) -0.0203(2)
O3B O 0.3306(2) 0.7548(2) -0.08078(19)
O4B O 0.4802(3) 0.6545(3) -0.1508(2)
O5B O 0.5414(3) 0.4457(3) -0.09819(19)
O6B O 0.3428(2) 0.3398(2) -0.10393(19)
S1B S 0.44012(10) 0.55432(10) 0.60550(8)
S2B S 0.33429(10) 0.43526(10) 0.46480(8)
C1B C 0.1497(3) 0.4668(3) 0.0223(3)
C2B C 0.1166(3) 0.4003(4) 0.0738(3)
H1B H 0.1133 0.3298 0.0625
C3B C 0.0867(4) 0.4392(4) 0.1456(3)
C4B C 0.0531(4) 0.3731(4) 0.2021(3)
H2B H 0.0494 0.3023 0.1923
C5B C 0.0262(4) 0.4116(5) 0.2703(4)
H3B H 0.0057 0.3671 0.3076
C6B C 0.0295(4) 0.5184(5) 0.2845(4)
H4B H 0.0089 0.5449 0.3304
C7B C 0.0623(4) 0.5834(5) 0.2318(3)
H5B H 0.0654 0.6540 0.2426
C8B C 0.0915(4) 0.5453(4) 0.1613(3)
C9B C 0.1267(3) 0.6124(4) 0.1054(3)
H6B H 0.1304 0.6831 0.1157
C10B C 0.1548(3) 0.5746(4) 0.0374(3)
C11B C 0.1908(4) 0.7423(3) -0.0121(3)
H7B H 0.1194 0.7668 -0.0122
H8B H 0.2424 0.7636 0.0406
C12B C 0.2221(4) 0.7851(4) -0.0864(3)
H9B H 0.2169 0.8599 -0.0866
H10B H 0.1733 0.7593 -0.1388
C13B C 0.3690(5) 0.7982(4) -0.1472(3)
H11B H 0.3233 0.7760 -0.2022
H12B H 0.3669 0.8730 -0.1449
C14B C 0.4813(5) 0.7626(4) -0.1356(3)
H13B H 0.5249 0.7776 -0.0782
H14B H 0.5128 0.7984 -0.1750
C15B C 0.5839(4) 0.6102(4) -0.1416(3)
H15B H 0.6193 0.6453 -0.1788
H16B H 0.6285 0.6186 -0.0835
C16B C 0.5726(4) 0.4991(4) -0.1633(3)
H17B H 0.6409 0.4721 -0.1683
H18B H 0.5182 0.4896 -0.2174
C17B C 0.5209(4) 0.3361(4) -0.1168(3)
H19B H 0.5651 0.3127 -0.1524
H20B H 0.5424 0.2973 -0.0641
C18B C 0.4064(4) 0.3144(4) -0.1600(3)
H21B H 0.3974 0.2419 -0.1754
H22B H 0.3829 0.3551 -0.2116
C19B C 0.2320(4) 0.3125(4) -0.1356(3)
H23B H 0.1969 0.3558 -0.1838
H24B H 0.2253 0.2410 -0.1541
C20B C 0.1795(4) 0.3275(3) -0.0655(3)
H25B H 0.2181 0.2887 -0.0155
H26B H 0.1049 0.3036 -0.0833
C21B C 0.3220(4) 0.4894(3) 0.5576(3)
C22B C 0.2337(4) 0.4799(4) 0.5899(3)
C23B C 0.2361(4) 0.5288(4) 0.6682(4)
C24B C 0.1407(4) 0.4233(4) 0.5471(4)
loop_
_geom_bond_atom_site_label_1
_geom_bond_atom_site_label_2
_geom_bond_site_symmetry_1
_geom_bond_site_symmetry_2
Ni1 S1 1_555 1_555
K1 N1 1_555 1_555
N1 C23 1_555 1_555
N2 C24 1_555 1_555
O1 K1 1_555 1_555
O2 K1 1_555 1_555
O3 K1 1_555 1_555
O4 K1 1_555 1_555
O5 K1 1_555 1_555
O6 K1 1_555 1_555
S1 C21 1_555 1_555
S2 Ni1 1_555 1_555
C1 O1 1_555 1_555
C2 C1 1_555 1_555
H1 C2 1_555 1_555
C3 C2 1_555 1_555
C4 C3 1_555 1_555
H2 C4 1_555 1_555
C5 C4 1_555 1_555
H3 C5 1_555 1_555
C6 C5 1_555 1_555
H4 C6 1_555 1_555
C7 C6 1_555 1_555
H5 C7 1_555 1_555
C8 C3 1_555 1_555
C9 C8 1_555 1_555
H6 C9 1_555 1_555
C10 O2 1_555 1_555
C11 O2 1_555 1_555
H7 C11 1_555 1_555
H8 C11 1_555 1_555
C12 O3 1_555 1_555
H9 C12 1_555 1_555
H10 C12 1_555 1_555
C13 O3 1_555 1_555
H11 C13 1_555 1_555
H12 C13 1_555 1_555
C14 O4 1_555 1_555
H13 C14 1_555 1_555
H14 C14 1_555 1_555
C15 O4 1_555 1_555
H15 C15 1_555 1_555
H16 C15 1_555 1_555
C16 O5 1_555 1_555
H17 C16 1_555 1_555
H18 C16 1_555 1_555
C17 O5 1_555 1_555
H19 C17 1_555 1_555
H20 C17 1_555 1_555
C18 O6 1_555 1_555
H21 C18 1_555 1_555
H22 C18 1_555 1_555
C19 O6 1_555 1_555
H23 C19 1_555 1_555
H24 C19 1_555 1_555
C20 O1 1_555 1_555
H25 C20 1_555 1_555
H26 C20 1_555 1_555
C21 S2 1_555 1_555
C22 C21 1_555 1_555
C23 C22 1_555 1_555
C24 C22 1_555 1_555
K1B N1B 1_555 1_555
K1B_2 O5 1_555 1_555
N1B C23B 1_555 1_555
N1B_2 K1B_2 1_555 1_555
N2B C24B 1_555 1_555
O1B K1B_2 1_555 1_555
O2B K1B_2 1_555 1_555
O3B K1B_2 1_555 1_555
O4B K1B_2 1_555 1_555
O5B K1 1_555 1_555
O6B K1B_2 1_555 1_555
S1B Ni1 1_555 1_555
S2B Ni1 1_555 1_555
C1B O1B 1_555 1_555
C2B C1B 1_555 1_555
H1B C2B 1_555 1_555
C3B C2B 1_555 1_555
C4B C3B 1_555 1_555
H2B C4B 1_555 1_555
C5B C4B 1_555 1_555
H3B C5B 1_555 1_555
C6B C5B 1_555 1_555
H4B C6B 1_555 1_555
C7B C6B 1_555 1_555
H5B C7B 1_555 1_555
C8B C3B 1_555 1_555
C9B C8B 1_555 1_555
H6B C9B 1_555 1_555
C10B O2B 1_555 1_555
C11B O2B 1_555 1_555
H7B C11B 1_555 1_555
H8B C11B 1_555 1_555
C12B O3B 1_555 1_555
H9B C12B 1_555 1_555
H10B C12B 1_555 1_555
C13B O3B 1_555 1_555
H11B C13B 1_555 1_555
H12B C13B 1_555 1_555
C14B O4B 1_555 1_555
H13B C14B 1_555 1_555
H14B C14B 1_555 1_555
C15B O4B 1_555 1_555
H15B C15B 1_555 1_555
H16B C15B 1_555 1_555
C16B O5B 1_555 1_555
H17B C16B 1_555 1_555
H18B C16B 1_555 1_555
C17B O5B 1_555 1_555
H19B C17B 1_555 1_555
H20B C17B 1_555 1_555
C18B O6B 1_555 1_555
H21B C18B 1_555 1_555
H22B C18B 1_555 1_555
C19B O6B 1_555 1_555
H23B C19B 1_555 1_555
H24B C19B 1_555 1_555
C20B O1B 1_555 1_555
H25B C20B 1_555 1_555
H26B C20B 1_555 1_555
C21B S1B 1_555 1_555
C22B C21B 1_555 1_555
C23B C22B 1_555 1_555
C24B C22B 1_555 1_555
C1 C10 1_555 1_555
C7 C8 1_555 1_555
C9 C10 1_555 1_555
C11 C12 1_555 1_555
C13 C14 1_555 1_555
C15 C16 1_555 1_555
C17 C18 1_555 1_555
C19 C20 1_555 1_555
K1B_2 O5B 1_555 1_555
S2B C21B 1_555 1_555
C1B C10B 1_555 1_555
C7B C8B 1_555 1_555
C9B C10B 1_555 1_555
C11B C12B 1_555 1_555
C13B C14B 1_555 1_555
C15B C16B 1_555 1_555
C17B C18B 1_555 1_555
C19B C20B 1_555 1_555

#END
