
#######################################################################
#
#                 Cambridge Crystallographic Data Centre
#                                CCDC 
#
#######################################################################
#
# If this CIF has been generated from an entry in the Cambridge 
# Structural Database, then it will include bibliographic, chemical, 
# crystal, experimental, refinement or atomic coordinate data resulting 
# from the CCDC's data processing and validation procedures.
#
#######################################################################

data_HAVZAG
_symmetry_cell_setting           triclinic
_symmetry_space_group_name_H-M   'P -1'
_symmetry_Int_Tables_number      2
_space_group_name_Hall           '-P 1'
loop_
_symmetry_equiv_pos_site_id
_symmetry_equiv_pos_as_xyz
1 x,y,z
2 -x,-y,-z
_cell_length_a                   8.298(3)
_cell_length_b                   12.856(5)
_cell_length_c                   12.909(5)
_cell_angle_alpha                115.456(6)
_cell_angle_beta                 105.453(6)
_cell_angle_gamma                91.307(6)
_cell_volume                     1183.46
loop_
_atom_site_label
_atom_site_type_symbol
_atom_site_fract_x
_atom_site_fract_y
_atom_site_fract_z
Pd1 Pd 1.0000 1.0000 1.0000
Na1 Na 0.7448(2) 0.32608(14) 0.61692(14)
N1 N 0.9842(6) 0.4954(4) 0.7150(4)
N2 N 1.1774(6) 0.6967(4) 0.5595(4)
O1 O 0.4796(4) 0.1919(3) 0.4406(2)
O2 O 0.6908(3) 0.1057(2) 0.5456(2)
O3 O 0.8868(4) 0.2621(2) 0.7667(2)
O4 O 0.6629(4) 0.4229(3) 0.7994(3)
O5 O 0.4964(4) 0.4240(3) 0.5837(3)
S1 S 0.94610(16) 0.79836(10) 0.91753(10)
S2 S 1.08429(15) 0.93171(10) 0.82686(10)
C1 C 0.5252(5) 0.0941(4) 0.3630(4)
C2 C 0.4680(5) 0.0427(4) 0.2405(4)
H1 H 0.3901 0.0753 0.2017
C3 C 0.5252(6) -0.0596(4) 0.1710(4)
C4 C 0.4683(6) -0.1147(4) 0.0446(4)
H2 H 0.3866 -0.0853 0.0043
C5 C 0.5302(7) -0.2100(5) -0.0199(5)
H3 H 0.4931 -0.2440 -0.1037
C6 C 0.6492(7) -0.2575(4) 0.0387(5)
H4 H 0.6910 -0.3230 -0.0060
C7 C 0.7041(6) -0.2081(4) 0.1610(4)
H5 H 0.7834 -0.2405 0.1992
C8 C 0.6433(5) -0.1090(4) 0.2308(4)
C9 C 0.6989(5) -0.0543(4) 0.3591(4)
H6 H 0.7746 -0.0869 0.3994
C10 C 0.6434(5) 0.0442(4) 0.4236(4)
C11 C 0.8131(5) 0.0666(4) 0.6158(4)
H7 H 0.9204 0.0699 0.5998
H8 H 0.7750 -0.0131 0.5972
C12 C 0.8317(6) 0.1470(4) 0.7445(4)
H9 H 0.7242 0.1431 0.7600
H10 H 0.9138 0.1246 0.7973
C13 C 0.8889(6) 0.3487(4) 0.8818(4)
H11 H 0.9653 0.4182 0.9037
H12 H 0.9318 0.3206 0.9411
C14 C 0.7171(6) 0.3795(4) 0.8844(4)
H13 H 0.6392 0.3110 0.8635
H14 H 0.7221 0.4382 0.9643
C15 C 0.4951(6) 0.4446(4) 0.7775(4)
H15 H 0.4752 0.4962 0.8524
H16 H 0.4167 0.3723 0.7399
C16 C 0.4721(7) 0.5003(4) 0.6954(4)
H17 H 0.3590 0.5202 0.6807
H18 H 0.5526 0.5718 0.7337
C17 C 0.3442(6) 0.3571(4) 0.4937(4)
H19 H 0.2787 0.4061 0.4648
H20 H 0.2770 0.3243 0.5268
C18 C 0.3863(6) 0.2612(4) 0.3921(4)
H21 H 0.2835 0.2143 0.3287
H22 H 0.4537 0.2934 0.3587
C19 C 1.0366(5) 0.7942(4) 0.8113(4)
C20 C 1.0625(5) 0.6929(4) 0.7240(4)
C21 C 1.0204(6) 0.5833(4) 0.7191(4)
C22 C 1.1271(6) 0.6942(4) 0.6327(4)
Na1A Na 1.2552(2) 1.67392(14) 1.38308(14)
Na1A_2 Na 1.2552(2) 0.67392(14) 0.38308(14)
Na1_2 Na 0.7448(2) 1.32608(14) 1.61692(14)
N1A N 1.0158(6) 1.5046(4) 1.2850(4)
N2A N 0.8226(6) 1.3033(4) 1.4405(4)
N2A_2 N 0.8226(6) 0.3033(4) 0.4405(4)
N2_2 N 1.1774(6) 1.6967(4) 1.5595(4)
O1A O 1.5204(4) 1.8081(3) 1.5594(2)
O2A O 1.3092(3) 1.8943(2) 1.4544(2)
O3A O 1.1132(4) 1.7379(2) 1.2333(2)
O4A O 1.3371(4) 1.5771(3) 1.2006(3)
O5A O 1.5036(4) 1.5760(3) 1.4163(3)
S1A S 1.05390(16) 1.20164(10) 1.08247(10)
S2A S 0.91571(15) 1.06829(10) 1.17314(10)
C1A C 1.4748(5) 1.9059(4) 1.6370(4)
C2A C 1.5320(5) 1.9573(4) 1.7595(4)
H1A H 1.6099 1.9247 1.7983
C3A C 1.4748(6) 2.0596(4) 1.8290(4)
C4A C 1.5317(6) 2.1147(4) 1.9554(4)
H2A H 1.6134 2.0853 1.9957
C5A C 1.4698(7) 2.2100(5) 2.0199(5)
H3A H 1.5069 2.2440 2.1037
C6A C 1.3508(7) 2.2575(4) 1.9613(5)
H4A H 1.3090 2.3230 2.0060
C7A C 1.2959(6) 2.2081(4) 1.8390(4)
H5A H 1.2166 2.2405 1.8008
C8A C 1.3567(5) 2.1090(4) 1.7692(4)
C9A C 1.3011(5) 2.0543(4) 1.6409(4)
H6A H 1.2254 2.0869 1.6006
C10A C 1.3566(5) 1.9558(4) 1.5764(4)
C11A C 1.1869(5) 1.9334(4) 1.3842(4)
H7A H 1.0796 1.9301 1.4002
H8A H 1.2250 2.0131 1.4028
C12A C 1.1683(6) 1.8530(4) 1.2555(4)
H9A H 1.2758 1.8569 1.2400
H10A H 1.0862 1.8754 1.2027
C13A C 1.1111(6) 1.6513(4) 1.1182(4)
H11A H 1.0347 1.5818 1.0963
H12A H 1.0682 1.6794 1.0589
C14A C 1.2829(6) 1.6205(4) 1.1156(4)
H13A H 1.3608 1.6890 1.1365
H14A H 1.2779 1.5618 1.0357
C15A C 1.5049(6) 1.5554(4) 1.2225(4)
H15A H 1.5248 1.5038 1.1476
H16A H 1.5833 1.6277 1.2601
C16A C 1.5279(7) 1.4997(4) 1.3046(4)
H17A H 1.6410 1.4798 1.3193
H18A H 1.4474 1.4282 1.2663
C17A C 1.6558(6) 1.6429(4) 1.5063(4)
H19A H 1.7213 1.5939 1.5352
H20A H 1.7230 1.6757 1.4732
C18A C 1.6137(6) 1.7388(4) 1.6079(4)
H21A H 1.7165 1.7857 1.6713
H22A H 1.5463 1.7066 1.6413
C19A C 0.9634(5) 1.2058(4) 1.1887(4)
C20A C 0.9375(5) 1.3071(4) 1.2760(4)
C21A C 0.9796(6) 1.4167(4) 1.2809(4)
C22A C 0.8729(6) 1.3058(4) 1.3673(4)
loop_
_geom_bond_atom_site_label_1
_geom_bond_atom_site_label_2
_geom_bond_site_symmetry_1
_geom_bond_site_symmetry_2
Pd1 S1 1_555 1_555
Na1 N1 1_555 1_555
N1 C21 1_555 1_555
N2 C22 1_555 1_555
O1 Na1 1_555 1_555
O2 Na1 1_555 1_555
O3 Na1 1_555 1_555
O4 Na1 1_555 1_555
O5 Na1 1_555 1_555
S1 C19 1_555 1_555
S2 Pd1 1_555 1_555
C1 O1 1_555 1_555
C2 C1 1_555 1_555
H1 C2 1_555 1_555
C3 C2 1_555 1_555
C4 C3 1_555 1_555
H2 C4 1_555 1_555
C5 C4 1_555 1_555
H3 C5 1_555 1_555
C6 C5 1_555 1_555
H4 C6 1_555 1_555
C7 C6 1_555 1_555
H5 C7 1_555 1_555
C8 C3 1_555 1_555
C9 C8 1_555 1_555
H6 C9 1_555 1_555
C10 O2 1_555 1_555
C11 O2 1_555 1_555
H7 C11 1_555 1_555
H8 C11 1_555 1_555
C12 O3 1_555 1_555
H9 C12 1_555 1_555
H10 C12 1_555 1_555
C13 O3 1_555 1_555
H11 C13 1_555 1_555
H12 C13 1_555 1_555
C14 O4 1_555 1_555
H13 C14 1_555 1_555
H14 C14 1_555 1_555
C15 O4 1_555 1_555
H15 C15 1_555 1_555
H16 C15 1_555 1_555
C16 O5 1_555 1_555
H17 C16 1_555 1_555
H18 C16 1_555 1_555
C17 O5 1_555 1_555
H19 C17 1_555 1_555
H20 C17 1_555 1_555
C18 O1 1_555 1_555
H21 C18 1_555 1_555
H22 C18 1_555 1_555
C19 S2 1_555 1_555
C20 C19 1_555 1_555
C21 C20 1_555 1_555
C22 C20 1_555 1_555
Na1A N1A 1_555 1_555
Na1A_2 N2 1_555 1_555
Na1_2 N2A 1_555 1_555
N1A C21A 1_555 1_555
N2A C22A 1_555 1_555
N2A_2 Na1 1_555 1_555
N2_2 Na1A 1_555 1_555
O1A Na1A 1_555 1_555
O2A Na1A 1_555 1_555
O3A Na1A 1_555 1_555
O4A Na1A 1_555 1_555
O5A Na1A 1_555 1_555
S1A Pd1 1_555 1_555
S2A Pd1 1_555 1_555
C1A O1A 1_555 1_555
C2A C1A 1_555 1_555
H1A C2A 1_555 1_555
C3A C2A 1_555 1_555
C4A C3A 1_555 1_555
H2A C4A 1_555 1_555
C5A C4A 1_555 1_555
H3A C5A 1_555 1_555
C6A C5A 1_555 1_555
H4A C6A 1_555 1_555
C7A C6A 1_555 1_555
H5A C7A 1_555 1_555
C8A C3A 1_555 1_555
C9A C8A 1_555 1_555
H6A C9A 1_555 1_555
C10A O2A 1_555 1_555
C11A O2A 1_555 1_555
H7A C11A 1_555 1_555
H8A C11A 1_555 1_555
C12A O3A 1_555 1_555
H9A C12A 1_555 1_555
H10A C12A 1_555 1_555
C13A O3A 1_555 1_555
H11A C13A 1_555 1_555
H12A C13A 1_555 1_555
C14A O4A 1_555 1_555
H13A C14A 1_555 1_555
H14A C14A 1_555 1_555
C15A O4A 1_555 1_555
H15A C15A 1_555 1_555
H16A C15A 1_555 1_555
C16A O5A 1_555 1_555
H17A C16A 1_555 1_555
H18A C16A 1_555 1_555
C17A O5A 1_555 1_555
H19A C17A 1_555 1_555
H20A C17A 1_555 1_555
C18A O1A 1_555 1_555
H21A C18A 1_555 1_555
H22A C18A 1_555 1_555
C19A S1A 1_555 1_555
C20A C19A 1_555 1_555
C21A C20A 1_555 1_555
C22A C20A 1_555 1_555
C1 C10 1_555 1_555
C7 C8 1_555 1_555
C9 C10 1_555 1_555
C11 C12 1_555 1_555
C13 C14 1_555 1_555
C15 C16 1_555 1_555
C17 C18 1_555 1_555
S2A C19A 1_555 1_555
C1A C10A 1_555 1_555
C7A C8A 1_555 1_555
C9A C10A 1_555 1_555
C11A C12A 1_555 1_555
C13A C14A 1_555 1_555
C15A C16A 1_555 1_555
C17A C18A 1_555 1_555

#END
