
#######################################################################
#
#                 Cambridge Crystallographic Data Centre
#                                CCDC 
#
#######################################################################
#
# If this CIF has been generated from an entry in the Cambridge 
# Structural Database, then it will include bibliographic, chemical, 
# crystal, experimental, refinement or atomic coordinate data resulting 
# from the CCDC's data processing and validation procedures.
#
#######################################################################

data_HAVZOV
_symmetry_cell_setting           monoclinic
_symmetry_space_group_name_H-M   'P 21/c'
_symmetry_Int_Tables_number      14
_space_group_name_Hall           '-P 2ybc'
loop_
_symmetry_equiv_pos_site_id
_symmetry_equiv_pos_as_xyz
1 x,y,z
2 -x,1/2+y,1/2-z
3 -x,-y,-z
4 x,1/2-y,1/2+z
_cell_length_a                   10.5505(9)
_cell_length_b                   7.4128(7)
_cell_length_c                   23.860(2)
_cell_angle_alpha                90
_cell_angle_beta                 100.9750(10)
_cell_angle_gamma                90
_cell_volume                     1831.93
loop_
_atom_site_label
_atom_site_type_symbol
_atom_site_fract_x
_atom_site_fract_y
_atom_site_fract_z
Cd1 Cd 0.43002(3) 0.26508(4) 0.170678(13)
Cd2 Cd 0.41245(4) 0.26241(4) 0.317580(14)
P1 P 0.66452(12) 0.40090(15) 0.26241(5)
O1 O 0.5555(3) 0.2645(4) 0.25936(14)
O2 O 0.6520(4) 0.4906(4) 0.20476(13)
O3 O 0.6770(3) 0.5186(4) 0.31478(13)
O4 O 0.7077(3) -0.1210(4) 0.26631(13)
O5 O 0.8740(5) -0.1930(9) 0.2283(2)
O6 O 0.3996(4) 0.5721(5) 0.13218(13)
O7 O 0.3458(4) 0.3406(5) 0.07587(14)
O8 O 0.3439(4) 1.1570(4) -0.10108(14)
O9 O 0.4178(3) 0.9344(4) -0.14624(13)
N1 N 0.8473(5) 0.1571(7) 0.32076(18)
H1 H 0.7730 0.1263 0.3325
C1 C 0.8119(5) 0.2754(7) 0.2670(2)
H2 H 0.8044 0.1986 0.2336
H3 H 0.8819 0.3595 0.2660
C2 C 0.9271(7) 0.2782(10) 0.3668(3)
H4 H 0.8753 0.3789 0.3755
H5 H 1.0019 0.3254 0.3536
C3 C 0.9705(8) 0.1589(13) 0.4213(3)
H6 H 1.0251 0.2302 0.4504
H7 H 0.8947 0.1234 0.4361
C4 C 1.0395(8) -0.0004(13) 0.4103(3)
H8 H 1.0609 -0.0719 0.4449
H9 H 1.1194 0.0335 0.3986
C5 C 0.9579(7) -0.1096(11) 0.3642(3)
H10 H 1.0068 -0.2147 0.3566
H11 H 0.8826 -0.1522 0.3780
C6 C 0.9140(6) -0.0103(8) 0.3095(3)
H12 H 0.9905 0.0230 0.2941
C7 C 0.8252(6) -0.1126(8) 0.2648(2)
C8 C 0.3650(5) 0.5049(7) 0.08235(18)
C9 C 0.3500(4) 0.6306(6) 0.03253(18)
C10 C 0.3487(4) 0.5624(6) -0.02177(18)
H13 H 0.3459 0.4384 -0.0279
C11 C 0.3514(4) 0.6795(6) -0.06701(18)
H14 H 0.3527 0.6341 -0.1032
C12 C 0.3522(4) 0.8650(6) -0.05789(17)
C13 C 0.3434(5) 0.9326(6) -0.00431(19)
H15 H 0.3358 1.0562 0.0009
C14 C 0.3459(5) 0.8167(6) 0.04076(19)
H16 H 0.3449 0.8624 0.0770
C15 C 0.3707(4) 0.9928(6) -0.10442(18)
Cd1A Cd 0.56998(3) 0.76508(4) 0.329322(13)
Cd1A_2 Cd 0.56998(3) -0.23492(4) 0.329322(13)
Cd1B Cd 0.56998(3) 0.73492(4) -0.170678(13)
Cd2A Cd 0.58755(4) 0.76241(4) 0.182420(14)
Cd2A_2 Cd 0.58755(4) -0.23759(4) 0.182420(14)
Cd2C Cd 0.41245(4) 1.23759(4) -0.182420(14)
O2A O 0.3480(4) -0.0094(4) 0.29524(13)
O3A O 0.3230(3) 0.0186(4) 0.18522(13)
O4A O 0.2923(3) 0.3790(4) 0.23369(13)
O6A O 0.6004(4) 0.0721(5) 0.36782(13)
O8C O 0.3439(4) 0.3430(4) 0.39892(14)
O9B O 0.5822(3) 0.0656(4) 0.14624(13)
O9C O 0.4178(3) 0.5656(4) 0.35376(13)
loop_
_geom_bond_atom_site_label_1
_geom_bond_atom_site_label_2
_geom_bond_site_symmetry_1
_geom_bond_site_symmetry_2
Cd1 O1 1_555 1_555
Cd2 O1 1_555 1_555
P1 O1 1_555 1_555
O2 P1 1_555 1_555
O3 P1 1_555 1_555
O4 C7 1_555 1_555
O5 C7 1_555 1_555
O6 Cd1 1_555 1_555
O7 Cd1 1_555 1_555
O8 C15 1_555 1_555
O9 C15 1_555 1_555
N1 H1 1_555 1_555
C1 P1 1_555 1_555
H2 C1 1_555 1_555
H3 C1 1_555 1_555
C2 N1 1_555 1_555
H4 C2 1_555 1_555
H5 C2 1_555 1_555
C3 C2 1_555 1_555
H6 C3 1_555 1_555
H7 C3 1_555 1_555
C4 C3 1_555 1_555
H8 C4 1_555 1_555
H9 C4 1_555 1_555
C5 C4 1_555 1_555
H10 C5 1_555 1_555
H11 C5 1_555 1_555
C6 N1 1_555 1_555
H12 C6 1_555 1_555
C7 C6 1_555 1_555
C8 O6 1_555 1_555
C9 C8 1_555 1_555
C10 C9 1_555 1_555
H13 C10 1_555 1_555
C11 C10 1_555 1_555
H14 C11 1_555 1_555
C12 C11 1_555 1_555
C13 C12 1_555 1_555
H15 C13 1_555 1_555
C14 C9 1_555 1_555
H16 C14 1_555 1_555
C15 C12 1_555 1_555
Cd1A O3 1_555 1_555
Cd1A_2 O4 1_555 1_555
Cd1B O9 1_555 1_555
Cd2A O2 1_555 1_555
Cd2A_2 O4 1_555 1_555
Cd2C O8 1_555 1_555
O2A Cd2 1_555 1_555
O3A Cd1 1_555 1_555
O4A Cd1 1_555 1_555
O6A Cd2 1_555 1_555
O8C Cd2 1_555 1_555
O9B Cd1 1_555 1_555
O9C Cd2 1_555 1_555
Cd2 O4A 1_555 1_555
O6 Cd2A 1_555 1_555
O7 C8 1_555 1_555
O9 Cd2C 1_555 1_555
N1 C1 1_555 1_555
C5 C6 1_555 1_555
C13 C14 1_555 1_555
Cd1A O9C 1_555 1_555
Cd1A_2 O6A 1_555 1_555
Cd2A_2 O9B 1_555 1_555

#END
