
#######################################################################
#
#                 Cambridge Crystallographic Data Centre
#                                CCDC 
#
#######################################################################
#
# If this CIF has been generated from an entry in the Cambridge 
# Structural Database, then it will include bibliographic, chemical, 
# crystal, experimental, refinement or atomic coordinate data resulting 
# from the CCDC's data processing and validation procedures.
#
#######################################################################

data_HAVZEK
_symmetry_cell_setting           monoclinic
_symmetry_space_group_name_H-M   'P 21/c'
_symmetry_Int_Tables_number      14
_space_group_name_Hall           '-P 2ybc'
loop_
_symmetry_equiv_pos_site_id
_symmetry_equiv_pos_as_xyz
1 x,y,z
2 -x,1/2+y,1/2-z
3 -x,-y,-z
4 x,1/2-y,1/2+z
_cell_length_a                   12.942(9)
_cell_length_b                   12.937(9)
_cell_length_c                   16.504(12)
_cell_angle_alpha                90
_cell_angle_beta                 106.656(10)
_cell_angle_gamma                90
_cell_volume                     2647.34
loop_
_atom_site_label
_atom_site_type_symbol
_atom_site_fract_x
_atom_site_fract_y
_atom_site_fract_z
Pd1 Pd 0.0000 1.0000 0.5000
K1 K 0.15665(6) 0.95367(6) 0.08629(5)
N1 N 0.2641(3) 0.9373(4) 0.2674(3)
N2 N 0.4381(3) 1.1266(3) 0.4849(3)
O1 O 0.31679(17) 1.06384(15) 0.04745(14)
O2 O 0.30779(17) 0.86833(16) 0.01956(14)
O3 O 0.16884(17) 0.74475(16) 0.08111(14)
O4 O 0.02057(18) 0.84682(18) 0.15070(15)
O5 O -0.03839(18) 1.05624(18) 0.09750(14)
O6 O 0.15898(17) 1.16266(16) 0.10423(14)
S1 S 0.06774(7) 0.94470(7) 0.39129(5)
S2 S 0.17450(7) 1.06701(7) 0.53300(6)
C1 C 0.3496(2) 1.0338(2) -0.0214(2)
C2 C 0.3838(2) 1.0990(3) -0.0727(2)
H1 H 0.3883 1.1695 -0.0612
C3 C 0.4128(2) 1.0607(3) -0.1441(2)
C4 C 0.4466(3) 1.1261(3) -0.1999(2)
H2 H 0.4511 1.1969 -0.1901
C5 C 0.4726(3) 1.0870(4) -0.2680(3)
H3 H 0.4934 1.1315 -0.3047
C6 C 0.4684(3) 0.9815(4) -0.2833(3)
H4 H 0.4874 0.9557 -0.3297
C7 C 0.4366(3) 0.9153(3) -0.2307(2)
H5 H 0.4344 0.8446 -0.2413
C8 C 0.4070(2) 0.9530(3) -0.1600(2)
C9 C 0.3716(2) 0.8865(3) -0.1045(2)
H6 H 0.3677 0.8156 -0.1145
C10 C 0.3435(2) 0.9250(2) -0.0372(2)
C11 C 0.3063(3) 0.7572(2) 0.0120(2)
H7 H 0.3767 0.7320 0.0115
H8 H 0.2538 0.7360 -0.0401
C12 C 0.2768(3) 0.7151(3) 0.0866(2)
H9 H 0.2826 0.6403 0.0875
H10 H 0.3257 0.7418 0.1384
C13 C 0.1318(3) 0.7024(3) 0.1477(2)
H11 H 0.1775 0.7255 0.2022
H12 H 0.1339 0.6275 0.1462
C14 C 0.0187(3) 0.7387(3) 0.1353(2)
H13 H -0.0246 0.7242 0.0780
H14 H -0.0130 0.7029 0.1740
C15 C -0.0823(3) 0.8896(3) 0.1414(2)
H15 H -0.1166 0.8550 0.1790
H16 H -0.1273 0.8802 0.0838
C16 C -0.0704(3) 1.0016(3) 0.1620(2)
H17 H -0.1384 1.0290 0.1664
H18 H -0.0167 1.0113 0.2161
C17 C -0.0180(3) 1.1652(3) 0.1155(2)
H19 H -0.0624 1.1889 0.1502
H20 H -0.0393 1.2035 0.0628
C18 C 0.0977(3) 1.1884(3) 0.1601(2)
H21 H 0.1064 1.2610 0.1749
H22 H 0.1216 1.1479 0.2116
C19 C 0.2702(3) 1.1879(3) 0.1366(2)
H23 H 0.3043 1.1436 0.1841
H24 H 0.2783 1.2591 0.1557
C20 C 0.3212(3) 1.1726(2) 0.0669(2)
H25 H 0.2827 1.2118 0.0174
H26 H 0.3955 1.1960 0.0847
C21 C 0.1843(2) 1.0117(2) 0.4409(2)
C22 C 0.2717(3) 1.0199(2) 0.4096(2)
C23 C 0.2684(3) 0.9733(3) 0.3311(3)
C24 C 0.3650(3) 1.0780(3) 0.4524(3)
K1B K -0.15665(6) 1.04633(6) 0.91371(5)
K1B_2 K -0.15665(6) 1.04633(6) -0.08629(5)
N1B N -0.2641(3) 1.0627(4) 0.7326(3)
N1B_2 N -0.2641(3) 1.0627(4) -0.2674(3)
N2B N -0.4381(3) 0.8734(3) 0.5151(3)
O1B O -0.31679(17) 0.93616(15) -0.04745(14)
O2B O -0.30779(17) 1.13167(16) -0.01956(14)
O3B O -0.16884(17) 1.25525(16) -0.08111(14)
O4B O -0.02057(18) 1.15318(18) -0.15070(15)
O5B O 0.03839(18) 0.94376(18) -0.09750(14)
O6B O -0.15898(17) 0.83734(16) -0.10423(14)
S1B S -0.06774(7) 1.05530(7) 0.60871(5)
S2B S -0.17450(7) 0.93299(7) 0.46700(6)
C1B C -0.3496(2) 0.9662(2) 0.0214(2)
C2B C -0.3838(2) 0.9010(3) 0.0727(2)
H1B H -0.3883 0.8305 0.0612
C3B C -0.4128(2) 0.9393(3) 0.1441(2)
C4B C -0.4466(3) 0.8739(3) 0.1999(2)
H2B H -0.4511 0.8031 0.1901
C5B C -0.4726(3) 0.9130(4) 0.2680(3)
H3B H -0.4934 0.8685 0.3047
C6B C -0.4684(3) 1.0185(4) 0.2833(3)
H4B H -0.4874 1.0443 0.3297
C7B C -0.4366(3) 1.0847(3) 0.2307(2)
H5B H -0.4344 1.1554 0.2413
C8B C -0.4070(2) 1.0470(3) 0.1600(2)
C9B C -0.3716(2) 1.1135(3) 0.1045(2)
H6B H -0.3677 1.1844 0.1145
C10B C -0.3435(2) 1.0750(2) 0.0372(2)
C11B C -0.3063(3) 1.2428(2) -0.0120(2)
H7B H -0.3767 1.2680 -0.0115
H8B H -0.2538 1.2640 0.0401
C12B C -0.2768(3) 1.2849(3) -0.0866(2)
H9B H -0.2826 1.3597 -0.0875
H10B H -0.3257 1.2582 -0.1384
C13B C -0.1318(3) 1.2976(3) -0.1477(2)
H11B H -0.1775 1.2745 -0.2022
H12B H -0.1339 1.3725 -0.1462
C14B C -0.0187(3) 1.2613(3) -0.1353(2)
H13B H 0.0246 1.2758 -0.0780
H14B H 0.0130 1.2971 -0.1740
C15B C 0.0823(3) 1.1104(3) -0.1414(2)
H15B H 0.1166 1.1450 -0.1790
H16B H 0.1273 1.1198 -0.0838
C16B C 0.0704(3) 0.9984(3) -0.1620(2)
H17B H 0.1384 0.9710 -0.1664
H18B H 0.0167 0.9887 -0.2161
C17B C 0.0180(3) 0.8348(3) -0.1155(2)
H19B H 0.0624 0.8111 -0.1502
H20B H 0.0393 0.7965 -0.0628
C18B C -0.0977(3) 0.8116(3) -0.1601(2)
H21B H -0.1064 0.7390 -0.1749
H22B H -0.1216 0.8521 -0.2116
C19B C -0.2702(3) 0.8121(3) -0.1366(2)
H23B H -0.3043 0.8564 -0.1841
H24B H -0.2783 0.7409 -0.1557
C20B C -0.3212(3) 0.8274(2) -0.0669(2)
H25B H -0.2827 0.7882 -0.0174
H26B H -0.3955 0.8040 -0.0847
C21B C -0.1843(2) 0.9883(2) 0.5591(2)
C22B C -0.2717(3) 0.9801(2) 0.5904(2)
C23B C -0.2684(3) 1.0267(3) 0.6689(3)
C24B C -0.3650(3) 0.9220(3) 0.5476(3)
loop_
_geom_bond_atom_site_label_1
_geom_bond_atom_site_label_2
_geom_bond_site_symmetry_1
_geom_bond_site_symmetry_2
Pd1 S1 1_555 1_555
K1 N1 1_555 1_555
N1 C23 1_555 1_555
N2 C24 1_555 1_555
O1 K1 1_555 1_555
O2 K1 1_555 1_555
O3 K1 1_555 1_555
O4 K1 1_555 1_555
O5 K1 1_555 1_555
O6 K1 1_555 1_555
S1 C21 1_555 1_555
S2 Pd1 1_555 1_555
C1 O1 1_555 1_555
C2 C1 1_555 1_555
H1 C2 1_555 1_555
C3 C2 1_555 1_555
C4 C3 1_555 1_555
H2 C4 1_555 1_555
C5 C4 1_555 1_555
H3 C5 1_555 1_555
C6 C5 1_555 1_555
H4 C6 1_555 1_555
C7 C6 1_555 1_555
H5 C7 1_555 1_555
C8 C3 1_555 1_555
C9 C8 1_555 1_555
H6 C9 1_555 1_555
C10 O2 1_555 1_555
C11 O2 1_555 1_555
H7 C11 1_555 1_555
H8 C11 1_555 1_555
C12 O3 1_555 1_555
H9 C12 1_555 1_555
H10 C12 1_555 1_555
C13 O3 1_555 1_555
H11 C13 1_555 1_555
H12 C13 1_555 1_555
C14 O4 1_555 1_555
H13 C14 1_555 1_555
H14 C14 1_555 1_555
C15 O4 1_555 1_555
H15 C15 1_555 1_555
H16 C15 1_555 1_555
C16 O5 1_555 1_555
H17 C16 1_555 1_555
H18 C16 1_555 1_555
C17 O5 1_555 1_555
H19 C17 1_555 1_555
H20 C17 1_555 1_555
C18 O6 1_555 1_555
H21 C18 1_555 1_555
H22 C18 1_555 1_555
C19 O6 1_555 1_555
H23 C19 1_555 1_555
H24 C19 1_555 1_555
C20 O1 1_555 1_555
H25 C20 1_555 1_555
H26 C20 1_555 1_555
C21 S2 1_555 1_555
C22 C21 1_555 1_555
C23 C22 1_555 1_555
C24 C22 1_555 1_555
K1B N1B 1_555 1_555
K1B_2 O5 1_555 1_555
N1B C23B 1_555 1_555
N1B_2 K1B_2 1_555 1_555
N2B C24B 1_555 1_555
O1B K1B_2 1_555 1_555
O2B K1B_2 1_555 1_555
O3B K1B_2 1_555 1_555
O4B K1B_2 1_555 1_555
O5B K1 1_555 1_555
O6B K1B_2 1_555 1_555
S1B Pd1 1_555 1_555
S2B Pd1 1_555 1_555
C1B O1B 1_555 1_555
C2B C1B 1_555 1_555
H1B C2B 1_555 1_555
C3B C2B 1_555 1_555
C4B C3B 1_555 1_555
H2B C4B 1_555 1_555
C5B C4B 1_555 1_555
H3B C5B 1_555 1_555
C6B C5B 1_555 1_555
H4B C6B 1_555 1_555
C7B C6B 1_555 1_555
H5B C7B 1_555 1_555
C8B C3B 1_555 1_555
C9B C8B 1_555 1_555
H6B C9B 1_555 1_555
C10B O2B 1_555 1_555
C11B O2B 1_555 1_555
H7B C11B 1_555 1_555
H8B C11B 1_555 1_555
C12B O3B 1_555 1_555
H9B C12B 1_555 1_555
H10B C12B 1_555 1_555
C13B O3B 1_555 1_555
H11B C13B 1_555 1_555
H12B C13B 1_555 1_555
C14B O4B 1_555 1_555
H13B C14B 1_555 1_555
H14B C14B 1_555 1_555
C15B O4B 1_555 1_555
H15B C15B 1_555 1_555
H16B C15B 1_555 1_555
C16B O5B 1_555 1_555
H17B C16B 1_555 1_555
H18B C16B 1_555 1_555
C17B O5B 1_555 1_555
H19B C17B 1_555 1_555
H20B C17B 1_555 1_555
C18B O6B 1_555 1_555
H21B C18B 1_555 1_555
H22B C18B 1_555 1_555
C19B O6B 1_555 1_555
H23B C19B 1_555 1_555
H24B C19B 1_555 1_555
C20B O1B 1_555 1_555
H25B C20B 1_555 1_555
H26B C20B 1_555 1_555
C21B S1B 1_555 1_555
C22B C21B 1_555 1_555
C23B C22B 1_555 1_555
C24B C22B 1_555 1_555
C1 C10 1_555 1_555
C7 C8 1_555 1_555
C9 C10 1_555 1_555
C11 C12 1_555 1_555
C13 C14 1_555 1_555
C15 C16 1_555 1_555
C17 C18 1_555 1_555
C19 C20 1_555 1_555
K1B_2 O5B 1_555 1_555
S2B C21B 1_555 1_555
C1B C10B 1_555 1_555
C7B C8B 1_555 1_555
C9B C10B 1_555 1_555
C11B C12B 1_555 1_555
C13B C14B 1_555 1_555
C15B C16B 1_555 1_555
C17B C18B 1_555 1_555
C19B C20B 1_555 1_555

#END
