
#######################################################################
#
#                 Cambridge Crystallographic Data Centre
#                                CCDC 
#
#######################################################################
#
# If this CIF has been generated from an entry in the Cambridge 
# Structural Database, then it will include bibliographic, chemical, 
# crystal, experimental, refinement or atomic coordinate data resulting 
# from the CCDC's data processing and validation procedures.
#
#######################################################################

data_HAVZEL
_symmetry_cell_setting           tetragonal
_symmetry_space_group_name_H-M   'P 43'
_symmetry_Int_Tables_number      78
_space_group_name_Hall           'P 4cw'
loop_
_symmetry_equiv_pos_site_id
_symmetry_equiv_pos_as_xyz
1 x,y,z
2 -x,-y,1/2+z
3 -y,x,3/4+z
4 y,-x,1/4+z
_cell_length_a                   10.0515(14)
_cell_length_b                   10.0515(14)
_cell_length_c                   14.906(3)
_cell_angle_alpha                90
_cell_angle_beta                 90
_cell_angle_gamma                90
_cell_volume                     1505.99
loop_
_atom_site_label
_atom_site_type_symbol
_atom_site_fract_x
_atom_site_fract_y
_atom_site_fract_z
O1 O 0.9859(3) 0.9642(2) 0.07848(16)
H1 H 0.9272 0.9680 0.0379
H2 H 0.9834 1.0372 0.1064
C1 C 0.0526(3) 0.4457(3) 0.4212(2)
C2 C 0.0634(3) 0.3084(3) 0.1760(2)
C3 C 0.1734(3) 0.3292(3) 0.10921(19)
C4 C 0.2366(3) 0.2272(3) 0.06348(19)
H3 H 0.2073 0.1382 0.0718
C5 C 0.3757(3) 0.3788(3) -0.0027(2)
H4 H 0.4500 0.3986 -0.0397
C6 C 0.3092(3) 0.4819(3) 0.03900(19)
H5 H 0.3347 0.5713 0.0272
C7 C 0.0414(4) 0.5769(3) 0.4522(2)
H6 H -0.0361 0.6267 0.4381
C8 C 0.1404(3) 0.6352(3) 0.5028(2)
H7 H 0.1293 0.7234 0.5245
C9 C 0.2550(4) 0.5661(4) 0.5219(2)
H8 H 0.3236 0.6066 0.5563
C10 C 0.2698(4) 0.4374(4) 0.4907(3)
H9 H 0.3492 0.3897 0.5033
C11 C 0.1690(4) 0.3770(3) 0.4408(2)
H10 H 0.1800 0.2884 0.4200
C12 C -0.0593(3) 0.3792(3) 0.3705(2)
H11 H -0.1421 0.3900 0.4057
H12 H -0.0400 0.2827 0.3673
C13 C -0.0855(3) 0.4298(3) 0.2745(2)
H13 H -0.161(4) 0.375(3) 0.253(2)
C14 C -0.1282(3) 0.5771(3) 0.2740(2)
Cu1 Cu 0.09006(3) 0.58474(3) 0.16431(3)
N1 N 0.2102(2) 0.4573(2) 0.09528(15)
N2 N 0.3386(2) 0.2519(2) 0.00750(16)
N3 N 0.0282(2) 0.4204(2) 0.21492(17)
O2 O 0.0154(2) 0.19284(19) 0.18740(13)
O3 O -0.2278(2) 0.6089(2) 0.31941(16)
O4 O -0.0595(2) 0.6607(2) 0.22880(15)
O5 O 0.1223(2) 0.7371(2) 0.08553(15)
H14 H 0.2005 0.7645 0.0802
H15 H 0.0678 0.7978 0.0952
Cu1B Cu 0.41526(3) 0.09006(3) -0.08569(3)
N2C N 0.2519(2) 0.6614(2) 0.25750(16)
loop_
_geom_bond_atom_site_label_1
_geom_bond_atom_site_label_2
_geom_bond_site_symmetry_1
_geom_bond_site_symmetry_2
O1 H1 1_555 1_555
H2 O1 1_555 1_555
C1 C7 1_555 1_555
C2 C3 1_555 1_555
C3 C4 1_555 1_555
C4 H3 1_555 1_555
C5 H4 1_555 1_555
C6 C5 1_555 1_555
H5 C6 1_555 1_555
C7 H6 1_555 1_555
C8 C7 1_555 1_555
H7 C8 1_555 1_555
C9 C8 1_555 1_555
H8 C9 1_555 1_555
C10 C9 1_555 1_555
H9 C10 1_555 1_555
C11 C1 1_555 1_555
H10 C11 1_555 1_555
C12 C1 1_555 1_555
H11 C12 1_555 1_555
H12 C12 1_555 1_555
C13 C12 1_555 1_555
H13 C13 1_555 1_555
C14 C13 1_555 1_555
Cu1 N1 1_555 1_555
N1 C3 1_555 1_555
N2 C4 1_555 1_555
N3 C2 1_555 1_555
O2 C2 1_555 1_555
O3 C14 1_555 1_555
O4 C14 1_555 1_555
O5 Cu1 1_555 1_555
H14 O5 1_555 1_555
H15 O5 1_555 1_555
Cu1B N2 1_555 1_555
N2C Cu1 1_555 1_555
C5 N2 1_555 1_555
C6 N1 1_555 1_555
C10 C11 1_555 1_555
C13 N3 1_555 1_555
Cu1 N3 1_555 1_555
Cu1 O4 1_555 1_555

#END
