
#######################################################################
#
#                 Cambridge Crystallographic Data Centre
#                                CCDC 
#
#######################################################################
#
# If this CIF has been generated from an entry in the Cambridge 
# Structural Database, then it will include bibliographic, chemical, 
# crystal, experimental, refinement or atomic coordinate data resulting 
# from the CCDC's data processing and validation procedures.
#
#######################################################################

data_HAWBEO
_symmetry_cell_setting           orthorhombic
_symmetry_space_group_name_H-M   'P c c n'
_symmetry_Int_Tables_number      56
_space_group_name_Hall           '-P 2ab 2ac'
loop_
_symmetry_equiv_pos_site_id
_symmetry_equiv_pos_as_xyz
1 x,y,z
2 1/2-x,1/2-y,z
3 1/2+x,-y,1/2-z
4 -x,1/2+y,1/2-z
5 -x,-y,-z
6 1/2+x,1/2+y,-z
7 1/2-x,y,1/2+z
8 x,1/2-y,1/2+z
_cell_length_a                   8.4891(18)
_cell_length_b                   16.308(4)
_cell_length_c                   19.465(5)
_cell_angle_alpha                90
_cell_angle_beta                 90
_cell_angle_gamma                90
_cell_volume                     2694.74
loop_
_atom_site_label
_atom_site_type_symbol
_atom_site_fract_x
_atom_site_fract_y
_atom_site_fract_z
Se1 Se 0.10367(6) 0.34451(3) 0.39290(2)
Se2 Se 0.2500 0.2500 0.23260(3)
Se3 Se -0.14875(5) 0.29885(3) 0.24074(3)
As1 As 0.04706(5) 0.23703(3) 0.31740(2)
Mn1 Mn 0.2500 0.2500 0.48734(4)
N1 N 0.3277(4) 0.1597(2) 0.57199(17)
N2 N 0.0403(4) 0.1661(2) 0.51139(18)
C1 C 0.4683(5) 0.1563(3) 0.6023(2)
H1 H 0.5435 0.1952 0.5901
C2 C 0.5082(6) 0.0978(3) 0.6509(2)
H2 H 0.6086 0.0975 0.6699
C3 C 0.3992(6) 0.0405(3) 0.6709(2)
H3 H 0.4250 0.0008 0.7033
C4 C 0.2480(5) 0.0428(3) 0.6417(2)
C5 C 0.1260(6) -0.0133(3) 0.6603(3)
H4 H 0.1453 -0.0527 0.6939
C6 C -0.0157(6) -0.0102(3) 0.6302(3)
H5 H -0.0931 -0.0475 0.6432
C7 C -0.0503(5) 0.0498(3) 0.5781(2)
C8 C -0.1957(5) 0.0524(3) 0.5436(2)
H6 H -0.2743 0.0146 0.5537
C9 C -0.2193(5) 0.1113(3) 0.4951(2)
H7 H -0.3142 0.1141 0.4714
C10 C -0.0996(5) 0.1674(3) 0.4815(2)
H8 H -0.1193 0.2083 0.4494
C11 C 0.0658(5) 0.1073(2) 0.5599(2)
C12 C 0.2180(5) 0.1038(2) 0.5922(2)
Se1A Se 0.39633(6) 0.15549(3) 0.39290(2)
Se3A Se -0.35125(5) 0.20115(3) 0.24074(3)
Se3A_2 Se 0.64875(5) 0.20115(3) 0.24074(3)
As1A As 0.45294(5) 0.26297(3) 0.31740(2)
As1A_2 As -0.54706(5) 0.26297(3) 0.31740(2)
N1A N 0.1723(4) 0.3403(2) 0.57199(17)
N2A N 0.4597(4) 0.3339(2) 0.51139(18)
C1A C 0.0317(5) 0.3437(3) 0.6023(2)
H1A H -0.0435 0.3048 0.5901
C2A C -0.0082(6) 0.4022(3) 0.6509(2)
H2A H -0.1086 0.4025 0.6699
C3A C 0.1008(6) 0.4595(3) 0.6709(2)
H3A H 0.0750 0.4992 0.7033
C4A C 0.2520(5) 0.4572(3) 0.6417(2)
C5A C 0.3740(6) 0.5133(3) 0.6603(3)
H4A H 0.3547 0.5527 0.6939
C6A C 0.5157(6) 0.5102(3) 0.6302(3)
H5A H 0.5931 0.5475 0.6432
C7A C 0.5503(5) 0.4502(3) 0.5781(2)
C8A C 0.6957(5) 0.4476(3) 0.5436(2)
H6A H 0.7743 0.4854 0.5537
C9A C 0.7193(5) 0.3887(3) 0.4951(2)
H7A H 0.8142 0.3859 0.4714
C10A C 0.5996(5) 0.3326(3) 0.4815(2)
H8A H 0.6193 0.2917 0.4494
C11A C 0.4342(5) 0.3927(2) 0.5599(2)
C12A C 0.2820(5) 0.3962(2) 0.5922(2)
loop_
_geom_bond_atom_site_label_1
_geom_bond_atom_site_label_2
_geom_bond_site_symmetry_1
_geom_bond_site_symmetry_2
Se1 As1 1_555 1_555
Se2 As1 1_555 1_555
Se3 As1 1_555 1_555
Mn1 Se1 1_555 1_555
N1 Mn1 1_555 1_555
N2 Mn1 1_555 1_555
C1 N1 1_555 1_555
H1 C1 1_555 1_555
C2 C1 1_555 1_555
H2 C2 1_555 1_555
C3 C2 1_555 1_555
H3 C3 1_555 1_555
C4 C3 1_555 1_555
C5 C4 1_555 1_555
H4 C5 1_555 1_555
C6 C5 1_555 1_555
H5 C6 1_555 1_555
C7 C6 1_555 1_555
C8 C7 1_555 1_555
H6 C8 1_555 1_555
C9 C8 1_555 1_555
H7 C9 1_555 1_555
C10 N2 1_555 1_555
H8 C10 1_555 1_555
C11 N2 1_555 1_555
C12 N1 1_555 1_555
Se1A Mn1 1_555 1_555
Se3A Se3 1_555 1_555
Se3A_2 As1A 1_555 1_555
As1A Se2 1_555 1_555
As1A_2 Se3A 1_555 1_555
N1A Mn1 1_555 1_555
N2A Mn1 1_555 1_555
C1A N1A 1_555 1_555
H1A C1A 1_555 1_555
C2A C1A 1_555 1_555
H2A C2A 1_555 1_555
C3A C2A 1_555 1_555
H3A C3A 1_555 1_555
C4A C3A 1_555 1_555
C5A C4A 1_555 1_555
H4A C5A 1_555 1_555
C6A C5A 1_555 1_555
H5A C6A 1_555 1_555
C7A C6A 1_555 1_555
C8A C7A 1_555 1_555
H6A C8A 1_555 1_555
C9A C8A 1_555 1_555
H7A C9A 1_555 1_555
C10A N2A 1_555 1_555
H8A C10A 1_555 1_555
C11A N2A 1_555 1_555
C12A N1A 1_555 1_555
C4 C12 1_555 1_555
C7 C11 1_555 1_555
C9 C10 1_555 1_555
C11 C12 1_555 1_555
Se1A As1A 1_555 1_555
C4A C12A 1_555 1_555
C7A C11A 1_555 1_555
C9A C10A 1_555 1_555
C11A C12A 1_555 1_555

#END
