
#######################################################################
#
#                 Cambridge Crystallographic Data Centre
#                                CCDC 
#
#######################################################################
#
# If this CIF has been generated from an entry in the Cambridge 
# Structural Database, then it will include bibliographic, chemical, 
# crystal, experimental, refinement or atomic coordinate data resulting 
# from the CCDC's data processing and validation procedures.
#
#######################################################################

data_HAWBOY
_symmetry_cell_setting           triclinic
_symmetry_space_group_name_H-M   'P 1'
_symmetry_Int_Tables_number      1
_space_group_name_Hall           'P 1'
loop_
_symmetry_equiv_pos_site_id
_symmetry_equiv_pos_as_xyz
1 x,y,z
_cell_length_a                   6.3425(11)
_cell_length_b                   8.246(2)
_cell_length_c                   8.6769(11)
_cell_angle_alpha                91.886(17)
_cell_angle_beta                 104.273(11)
_cell_angle_gamma                98.847(17)
_cell_volume                     433.373
loop_
_atom_site_label
_atom_site_type_symbol
_atom_site_fract_x
_atom_site_fract_y
_atom_site_fract_z
Cu1 Cu 0.1430 0.9684 0.7622
C1 C -0.2258(7) 0.3746(4) 0.4445(5)
H1 H -0.3724 0.3273 0.4321
C2 C -0.1804(6) 0.5214(4) 0.3752(4)
H2 H -0.2954 0.5711 0.3194
C3 C 0.0360(6) 0.5934(3) 0.3895(3)
C4 C 0.2007(7) 0.5117(5) 0.4724(5)
H3 H 0.3490 0.5528 0.4831
C5 C 0.1369(9) 0.3671(5) 0.5386(6)
H4 H 0.2478 0.3142 0.5952
C6 C 0.0908(6) 0.7522(4) 0.3166(4)
H5 H -0.0392 0.7714 0.2379
H6 H 0.2046 0.7419 0.2617
C7 C 0.1715(5) 0.9025(3) 0.4401(3)
H7 H 0.1945 1.0002 0.3811
C8 C 0.3919(5) 0.8916(4) 0.5566(4)
C9 C -0.1726(7) 0.6420(5) 0.8219(5)
H8 H -0.2838 0.6940 0.7644
C10 C -0.2336(6) 0.4942(4) 0.8844(5)
H9 H -0.3818 0.4489 0.8673
C11 C -0.0712(6) 0.4150(3) 0.9727(3)
C12 C 0.1452(6) 0.4898(4) 0.9917(4)
H10 H 0.2598 0.4415 1.0503
C13 C 0.1918(6) 0.6367(4) 0.9235(5)
H11 H 0.3386 0.6841 0.9370
C14 C -0.1343(6) 0.2570(4) 1.0470(4)
H12 H -0.2940 0.2296 1.0211
H13 H -0.0817 0.2755 1.1620
C15 C -0.0421(6) 0.1105(4) 0.9922(4)
H14 H -0.1127 0.0133 1.0338
C16 C 0.2083(6) 0.1219(3) 1.0624(3)
N1 N -0.0694(7) 0.2992(4) 0.5273(5)
N2 N 0.0057(5) 0.9275(3) 0.5285(3)
H15 H -0.1001 0.8378 0.5106
H16 H -0.0582 1.0139 0.4925
N3 N 0.0345(5) 0.7129(3) 0.8394(3)
N4 N -0.0961(5) 0.0765(3) 0.8169(3)
H17 H -0.1049 0.1711 0.7686
H18 H -0.2272 0.0096 0.7829
O1 O 0.4098(5) 0.9221(3) 0.7065(3)
O2 O 0.5458(4) 0.8581(4) 0.5041(3)
O3 O 0.2914(6) 0.1765(4) 1.2005(3)
O4 O 0.3154(5) 0.0635(4) 0.9719(3)
Cu1_2 Cu 0.1430 -0.0316 0.7622
N4_2 N -0.0961(5) 1.0765(3) 0.8169(3)
O4_2 O 0.3154(5) 1.0635(4) 0.9719(3)
O5 O -0.3818(7) 0.8967(6) 0.1912(5)
H19 H -0.501(8) 0.919(8) 0.135(8)
H20 H -0.307(10) 0.984(6) 0.248(8)
loop_
_geom_bond_atom_site_label_1
_geom_bond_atom_site_label_2
_geom_bond_site_symmetry_1
_geom_bond_site_symmetry_2
Cu1 N2 1_555 1_555
C1 H1 1_555 1_555
C2 C1 1_555 1_555
H2 C2 1_555 1_555
C3 C2 1_555 1_555
C4 C3 1_555 1_555
H3 C4 1_555 1_555
C5 C4 1_555 1_555
H4 C5 1_555 1_555
C6 C3 1_555 1_555
H5 C6 1_555 1_555
H6 C6 1_555 1_555
C7 C6 1_555 1_555
H7 C7 1_555 1_555
C8 C7 1_555 1_555
C9 H8 1_555 1_555
C10 C9 1_555 1_555
H9 C10 1_555 1_555
C11 C10 1_555 1_555
C12 C11 1_555 1_555
H10 C12 1_555 1_555
C13 C12 1_555 1_555
H11 C13 1_555 1_555
C14 C11 1_555 1_555
H12 C14 1_555 1_555
H13 C14 1_555 1_555
C15 C14 1_555 1_555
H14 C15 1_555 1_555
C16 C15 1_555 1_555
N1 C1 1_555 1_555
N2 C7 1_555 1_555
H15 N2 1_555 1_555
H16 N2 1_555 1_555
N3 Cu1 1_555 1_555
N4 C15 1_555 1_555
H17 N4 1_555 1_555
H18 N4 1_555 1_555
O1 Cu1 1_555 1_555
O2 C8 1_555 1_555
O3 C16 1_555 1_555
O4 C16 1_555 1_555
O5 H19 1_555 1_555
H20 O5 1_555 1_555
Cu1_2 N4 1_555 1_555
N4_2 Cu1 1_555 1_555
O4_2 Cu1 1_555 1_555
C5 N1 1_555 1_555
C8 O1 1_555 1_555
C9 N3 1_555 1_555
C13 N3 1_555 1_555
O4 Cu1_2 1_555 1_555

#END
