
#######################################################################
#
#                 Cambridge Crystallographic Data Centre
#                                CCDC 
#
#######################################################################
#
# If this CIF has been generated from an entry in the Cambridge 
# Structural Database, then it will include bibliographic, chemical, 
# crystal, experimental, refinement or atomic coordinate data resulting 
# from the CCDC's data processing and validation procedures.
#
#######################################################################

data_HAWCUF
_symmetry_cell_setting           monoclinic
_symmetry_space_group_name_H-M   'P 21/c'
_symmetry_Int_Tables_number      14
_space_group_name_Hall           '-P 2ybc'
loop_
_symmetry_equiv_pos_site_id
_symmetry_equiv_pos_as_xyz
1 x,y,z
2 -x,1/2+y,1/2-z
3 -x,-y,-z
4 x,1/2-y,1/2+z
_cell_length_a                   10.967(2)
_cell_length_b                   13.719(3)
_cell_length_c                   15.982(5)
_cell_angle_alpha                90
_cell_angle_beta                 130.038(19)
_cell_angle_gamma                90
_cell_volume                     1841
loop_
_atom_site_label
_atom_site_type_symbol
_atom_site_fract_x
_atom_site_fract_y
_atom_site_fract_z
Co1 Co 0.65014(4) 0.94456(2) 0.15257(3)
O1 O 0.7411(2) 0.95044(15) 0.32312(17)
O2 O 0.8863(2) 0.88481(14) 0.28878(17)
O3 O 0.5663(2) 0.49236(14) 0.40410(17)
O4 O 0.6932(3) 0.58962(14) 0.54947(17)
N1 N 0.5610(3) 0.79987(15) 0.13373(19)
N2 N 0.5630(3) 0.63935(14) 0.14125(18)
N3 N 0.7352(3) 0.08857(15) 0.16657(19)
N4 N 0.7476(3) 0.24940(14) 0.16923(18)
C1 C 0.6381(3) 0.71978(19) 0.1460(2)
H1 H 0.7319 0.7190 0.1564
C2 C 0.4301(4) 0.76903(19) 0.1197(3)
H2 H 0.3530 0.8097 0.1087
C3 C 0.4298(3) 0.67078(19) 0.1243(3)
H3 H 0.3542 0.6320 0.1174
C4 C 0.6099(3) 0.54034(17) 0.1486(2)
C5 C 0.5484(4) 0.46748(19) 0.1712(3)
H4 H 0.4768 0.4825 0.1821
C6 C 0.5941(4) 0.37149(19) 0.1777(3)
H5 H 0.5516 0.3221 0.1920
C7 C 0.7023(3) 0.34846(17) 0.1629(2)
C8 C 0.7647(4) 0.42182(19) 0.1409(3)
H6 H 0.8375 0.4070 0.1311
C9 C 0.7180(3) 0.51797(19) 0.1336(2)
H7 H 0.7596 0.5674 0.1186
C10 C 0.8746(3) 0.21546(19) 0.1797(2)
H8 H 0.9514 0.2525 0.1863
C11 C 0.8653(3) 0.11735(19) 0.1785(2)
H9 H 0.9373 0.0751 0.1850
C12 C 0.6654(3) 0.16947(18) 0.1600(2)
H10 H 0.5723 0.1720 0.1503
C13 C 0.8638(3) 0.9039(2) 0.3548(2)
C14 C 0.9847(4) 0.8705(3) 0.4716(3)
H11 H 1.0631 0.9217 0.5137
H12 H 1.0396 0.8138 0.4737
C15 C 0.9176(5) 0.8453(3) 0.5242(3)
H13 H 1.0042 0.8369 0.6019
H14 H 0.8528 0.8993 0.5150
C16 C 0.6774(3) 0.54893(17) 0.4736(2)
C17 C 0.8025(4) 0.5665(2) 0.4617(3)
H15 H 0.8715 0.5099 0.4893
H16 H 0.7492 0.5724 0.3845
C18 C 0.9065(4) 0.6576(3) 0.5210(3)
H17 H 0.9881 0.6592 0.5141
H18 H 0.9596 0.6520 0.5982
C19 C 0.8160(5) 0.7527(3) 0.4790(3)
H19 H 0.7499 0.7534 0.4000
H20 H 0.7454 0.7547 0.4958
Co1A Co 0.34986(4) 0.44456(2) 0.34743(3)
Co1C Co 0.65014(4) 0.55544(2) 0.65257(3)
Co1_2 Co 0.65014(4) -0.05544(2) 0.15257(3)
O3A O 0.4337(2) 0.99236(14) 0.09590(17)
O4C O 0.6932(3) 0.91038(14) 0.04947(17)
N3_2 N 0.7352(3) 1.08857(15) 0.16657(19)
loop_
_geom_bond_atom_site_label_1
_geom_bond_atom_site_label_2
_geom_bond_site_symmetry_1
_geom_bond_site_symmetry_2
Co1 O1 1_555 1_555
O1 C13 1_555 1_555
O2 Co1 1_555 1_555
O3 C16 1_555 1_555
O4 C16 1_555 1_555
N1 Co1 1_555 1_555
N2 C1 1_555 1_555
N3 C11 1_555 1_555
N4 C7 1_555 1_555
C1 N1 1_555 1_555
H1 C1 1_555 1_555
C2 N1 1_555 1_555
H2 C2 1_555 1_555
C3 N2 1_555 1_555
H3 C3 1_555 1_555
C4 N2 1_555 1_555
C5 C4 1_555 1_555
H4 C5 1_555 1_555
C6 C5 1_555 1_555
H5 C6 1_555 1_555
C7 C6 1_555 1_555
C8 C7 1_555 1_555
H6 C8 1_555 1_555
C9 C4 1_555 1_555
H7 C9 1_555 1_555
C10 N4 1_555 1_555
H8 C10 1_555 1_555
C11 C10 1_555 1_555
H9 C11 1_555 1_555
C12 N3 1_555 1_555
H10 C12 1_555 1_555
C13 O2 1_555 1_555
C14 C13 1_555 1_555
H11 C14 1_555 1_555
H12 C14 1_555 1_555
C15 C14 1_555 1_555
H13 C15 1_555 1_555
H14 C15 1_555 1_555
C16 C17 1_555 1_555
C17 H15 1_555 1_555
H16 C17 1_555 1_555
C18 C17 1_555 1_555
H17 C18 1_555 1_555
H18 C18 1_555 1_555
C19 C15 1_555 1_555
H19 C19 1_555 1_555
H20 C19 1_555 1_555
Co1A O3 1_555 1_555
Co1C O4 1_555 1_555
Co1_2 N3 1_555 1_555
O3A Co1 1_555 1_555
O4C Co1 1_555 1_555
N3_2 Co1 1_555 1_555
N4 C12 1_555 1_555
C2 C3 1_555 1_555
C8 C9 1_555 1_555
C18 C19 1_555 1_555

#END
