
#######################################################################
#
#                 Cambridge Crystallographic Data Centre
#                                CCDC 
#
#######################################################################
#
# If this CIF has been generated from an entry in the Cambridge 
# Structural Database, then it will include bibliographic, chemical, 
# crystal, experimental, refinement or atomic coordinate data resulting 
# from the CCDC's data processing and validation procedures.
#
#######################################################################

data_HAWCIT
_symmetry_cell_setting           monoclinic
_symmetry_space_group_name_H-M   'C 2/m'
_symmetry_Int_Tables_number      12
_space_group_name_Hall           '-C 2y'
loop_
_symmetry_equiv_pos_site_id
_symmetry_equiv_pos_as_xyz
1 x,y,z
2 -x,y,-z
3 1/2+x,1/2+y,z
4 1/2-x,1/2+y,-z
5 -x,-y,-z
6 x,-y,z
7 1/2-x,1/2-y,-z
8 1/2+x,1/2-y,z
_cell_length_a                   19.2555(19)
_cell_length_b                   6.7405(6)
_cell_length_c                   7.8354(6)
_cell_angle_alpha                90
_cell_angle_beta                 97.144(2)
_cell_angle_gamma                90
_cell_volume                     1009.07
loop_
_atom_site_label
_atom_site_type_symbol
_atom_site_fract_x
_atom_site_fract_y
_atom_site_fract_z
Mo1 Mo 0.19207(5) 0.0000 0.57330(12)
Mo2 Mo 0.16822(7) 0.5000 0.6787(2)
Cu1 Cu 0.2500 0.7500 1.0000
O1 O 0.2590(4) 0.5000 0.8876(11)
O2 O 0.1755(3) 0.2139(9) 0.6989(9)
O3 O -0.1648(3) 0.6657(9) 0.9065(9)
O4 O 0.2788(5) 0.0000 0.5266(13)
N1 N 0.0658(5) 0.5000 0.7219(15)
C1 C -0.1402(6) 0.5000 0.8794(15)
O5 O 0.1391(6) 0.0000 0.3825(14)
C2 C 0.0320(5) 0.6685(16) 0.7420(19)
H1 H 0.0545 0.7877 0.7254
C3 C -0.0689(6) 0.5000 0.8127(15)
C4 C -0.0354(5) 0.6742(16) 0.7866(18)
H2 H -0.0575 0.7951 0.7986
Mo2C Mo 0.33178(7) 0.0000 0.3213(2)
Mo2_2 Mo 0.16822(7) -0.5000 0.6787(2)
Cu1C Cu 0.2500 0.2500 1.0000
Cu1A Cu -0.2500 0.7500 1.0000
Cu1B Cu -0.2500 0.2500 1.0000
O1C O 0.2410(4) 1.0000 1.1124(11)
O2E O 0.1755(3) -0.2139(9) 0.6989(9)
O2E_2 O 0.1755(3) 0.7861(9) 0.6989(9)
O3E O -0.1648(3) 0.3343(9) 0.9065(9)
O3A O 0.1648(3) 0.6657(9) 1.0935(9)
O3G O 0.3352(3) 0.8343(9) 0.9065(9)
O4C O 0.2212(5) 0.5000 0.4734(13)
C2E C 0.0320(5) 0.3315(16) 0.7420(19)
H1E H 0.0545 0.2123 0.7254
C4E C -0.0354(5) 0.3258(16) 0.7866(18)
H2E H -0.0575 0.2049 0.7986
loop_
_geom_bond_atom_site_label_1
_geom_bond_atom_site_label_2
_geom_bond_site_symmetry_1
_geom_bond_site_symmetry_2
Mo1 O2 1_555 1_555
Mo2 O1 1_555 1_555
Cu1 O1 1_555 1_555
O1 Cu1C 1_555 1_555
O2 Mo2 1_555 1_555
O3 C1 1_555 1_555
O4 Mo1 1_555 1_555
N1 Mo2 1_555 1_555
C1 C3 1_555 1_555
O5 Mo1 1_555 1_555
C2 N1 1_555 1_555
H1 C2 1_555 1_555
C3 C4 1_555 1_555
C4 C2 1_555 1_555
H2 C4 1_555 1_555
Mo2C O4 1_555 1_555
Mo2_2 O2E 1_555 1_555
Cu1A O3 1_555 1_555
Cu1B O3E 1_555 1_555
O1C Cu1 1_555 1_555
O2E Mo1 1_555 1_555
O2E_2 Mo2 1_555 1_555
O3E C1 1_555 1_555
O3A Cu1 1_555 1_555
O3G Cu1 1_555 1_555
O4C Mo2 1_555 1_555
C2E N1 1_555 1_555
H1E C2E 1_555 1_555
C4E C3 1_555 1_555
H2E C4E 1_555 1_555
C2E C4E 1_555 1_555

#END
