
#######################################################################
#
#                 Cambridge Crystallographic Data Centre
#                                CCDC 
#
#######################################################################
#
# If this CIF has been generated from an entry in the Cambridge 
# Structural Database, then it will include bibliographic, chemical, 
# crystal, experimental, refinement or atomic coordinate data resulting 
# from the CCDC's data processing and validation procedures.
#
#######################################################################

data_HAWDUG
_symmetry_cell_setting           monoclinic
_symmetry_space_group_name_H-M   'P 21/c'
_symmetry_Int_Tables_number      14
_space_group_name_Hall           '-P 2ybc'
loop_
_symmetry_equiv_pos_site_id
_symmetry_equiv_pos_as_xyz
1 x,y,z
2 -x,1/2+y,1/2-z
3 -x,-y,-z
4 x,1/2-y,1/2+z
_cell_length_a                   17.256(3)
_cell_length_b                   8.8829(13)
_cell_length_c                   25.443(4)
_cell_angle_alpha                90
_cell_angle_beta                 97.284(3)
_cell_angle_gamma                90
_cell_volume                     3868.51
loop_
_atom_site_label
_atom_site_type_symbol
_atom_site_fract_x
_atom_site_fract_y
_atom_site_fract_z
Ag1 Ag 0.47133(3) 0.87080(5) 0.461901(16)
C2 C 0.2663(3) 1.0277(6) 0.5597(2)
C3 C 0.2521(3) 0.8943(6) 0.5856(2)
H4 H 0.2492 0.8016 0.5668
C4 C 0.2425(3) 0.8971(6) 0.6383(2)
H5 H 0.2334 0.8056 0.6558
C5 C 0.2458(3) 1.0311(7) 0.6662(2)
C6 C 0.2575(3) 1.1676(6) 0.6400(2)
C7 C 0.2680(2) 1.1620(6) 0.58711(19)
H6 H 0.2766 1.2530 0.5691
C8 C 0.2578(3) 1.3173(8) 0.6681(2)
C9 C 0.4081(3) 0.6458(6) 0.5362(2)
H7 H 0.3597 0.6809 0.5185
C10 C 0.4070(3) 0.5380(6) 0.5740(2)
H8 H 0.3585 0.5002 0.5823
C11 C 0.4762(3) 0.4835(5) 0.60028(19)
C12 C 0.5442(3) 0.5446(6) 0.5863(2)
H9 H 0.5932 0.5096 0.6030
C13 C 0.5417(3) 0.6548(6) 0.5487(2)
H10 H 0.5894 0.6973 0.5407
C14 C 0.4781(3) 0.3633(6) 0.6417(2)
H11 H 0.5268 0.3042 0.6420
H12 H 0.4336 0.2941 0.6323
C15 C 0.4741(3) 0.4262(6) 0.69697(19)
H13 H 0.5191 0.4942 0.7068
H14 H 0.4257 0.4859 0.6968
C16 C 0.4753(3) 0.3014(6) 0.73803(19)
H15 H 0.4294 0.2353 0.7289
H16 H 0.5229 0.2397 0.7374
C17 C 0.4739(3) 0.3636(5) 0.79267(19)
C18 C 0.5417(3) 0.3834(6) 0.8277(2)
H17 H 0.5905 0.3502 0.8184
C19 C 0.5378(3) 0.4507(6) 0.8754(2)
H18 H 0.5848 0.4633 0.8988
C20 C 0.4057(3) 0.4781(7) 0.8580(2)
H19 H 0.3575 0.5093 0.8688
C21 C 0.4051(3) 0.4127(7) 0.8093(2)
H20 H 0.3571 0.4010 0.7868
N1 N 0.4743(2) 0.7047(5) 0.52275(16)
N2 N 0.4710(2) 0.4997(5) 0.89091(16)
O3 O 0.2389(3) 1.1414(4) 0.46551(16)
O5 O 0.2698(2) 0.8783(4) 0.47300(15)
O7 O 0.3700(2) 1.0627(5) 0.49762(17)
O9 O 0.2632(2) 1.4359(5) 0.64413(17)
O11 O 0.2520(2) 1.3090(5) 0.71766(16)
H46 H 0.2403 1.2200 0.7260
O12 O 0.2369(3) 1.0321(5) 0.71783(15)
S1 S 0.28816(7) 1.02732(15) 0.49398(5)
Ag1C Ag 0.47133(3) 0.62920(5) 0.961901(16)
Ag1B Ag 0.52867(3) 1.12920(5) 0.538099(16)
N2C N 0.4710(2) 1.0003(5) 0.39091(16)
O7B O 0.6300(2) 0.9373(5) 0.50238(17)
Ag2 Ag 0.02222(3) 0.92564(5) 0.053844(16)
C22 C 0.0757(3) 0.7106(6) -0.0292(2)
H21 H 0.1253 0.7530 -0.0170
C23 C 0.0719(3) 0.5962(6) -0.0659(2)
H22 H 0.1180 0.5626 -0.0790
C24 C 0.0004(3) 0.5299(6) -0.0836(2)
C25 C -0.0637(3) 0.5888(6) -0.0636(2)
H23 H -0.1141 0.5486 -0.0748
C26 C -0.0558(3) 0.7030(6) -0.0282(2)
H24 H -0.1016 0.7411 -0.0157
C27 C -0.0072(3) 0.4015(6) -0.1219(2)
H25 H -0.0543 0.3423 -0.1167
H26 H 0.0387 0.3347 -0.1141
C28 C -0.0133(3) 0.4504(6) -0.1788(2)
H27 H 0.0355 0.5027 -0.1849
H28 H -0.0570 0.5226 -0.1863
C29 C -0.0270(3) 0.3147(6) -0.2173(2)
H29 H 0.0108 0.2338 -0.2058
H30 H -0.0803 0.2744 -0.2165
C30 C -0.0175(3) 0.3611(5) -0.2722(2)
C31 C 0.0555(3) 0.3845(7) -0.2872(2)
H31 H 0.1009 0.3647 -0.2630
C32 C 0.0629(3) 0.4364(7) -0.3370(2)
H32 H 0.1140 0.4525 -0.3461
C33 C -0.0688(3) 0.4384(7) -0.3597(2)
H33 H -0.1131 0.4545 -0.3853
C34 C -0.0806(3) 0.3887(7) -0.3105(2)
H34 H -0.1323 0.3729 -0.3025
N3 N 0.0123(2) 0.7648(5) -0.00996(16)
N4 N 0.0022(2) 0.4654(5) -0.37341(16)
O2 O 0.1679(2) 0.9498(5) 0.05974(18)
H36 H 0.1981 0.9862 0.0856
H37 H 0.1822 0.9828 0.0311
Ag2C Ag 0.02222(3) 0.57436(5) -0.446156(16)
N4C N 0.0022(2) 1.0346(5) 0.12659(16)
C1 C 0.2197(6) 1.2714(11) 0.3428(3)
H1 H 0.2381 1.3278 0.3751
H2 H 0.1727 1.3196 0.3246
H3 H 0.2607 1.2704 0.3194
O1 O 0.2024(3) 1.1253(6) 0.3560(2)
H35 H 0.2182 1.1068 0.3884
O4 O 0.2723(3) 0.6419(5) 0.40169(19)
H38 H 0.2734 0.7218 0.4201
H39 H 0.2837 0.6640 0.3711
O6 O 0.2194(3) 0.5766(6) 0.7715(2)
H40 H 0.2126 0.5334 0.8004
H41 H 0.2302 0.5092 0.7499
O8 O 0.3082(3) 0.8271(6) 0.79905(17)
H42 H 0.2900 0.8924 0.7764
H43 H 0.2829 0.7457 0.7926
O10 O 0.2109(3) 1.4483(5) 0.46827(19)
H44 H 0.2226 1.3562 0.4647
H45 H 0.2325 1.5001 0.4461
loop_
_geom_bond_atom_site_label_1
_geom_bond_atom_site_label_2
_geom_bond_site_symmetry_1
_geom_bond_site_symmetry_2
Ag1 N1 1_555 1_555
Ag2 N3 1_555 1_555
C1 H1 1_555 1_555
H2 C1 1_555 1_555
H3 C1 1_555 1_555
C2 C3 1_555 1_555
C3 H4 1_555 1_555
C4 C3 1_555 1_555
H5 C4 1_555 1_555
C5 C4 1_555 1_555
C6 C5 1_555 1_555
C7 C2 1_555 1_555
H6 C7 1_555 1_555
C8 C6 1_555 1_555
C9 H7 1_555 1_555
C10 C9 1_555 1_555
H8 C10 1_555 1_555
C11 C10 1_555 1_555
C12 C11 1_555 1_555
H9 C12 1_555 1_555
C13 C12 1_555 1_555
H10 C13 1_555 1_555
C14 C11 1_555 1_555
H11 C14 1_555 1_555
H12 C14 1_555 1_555
C15 C14 1_555 1_555
H13 C15 1_555 1_555
H14 C15 1_555 1_555
C16 C15 1_555 1_555
H15 C16 1_555 1_555
H16 C16 1_555 1_555
C17 C16 1_555 1_555
C18 C17 1_555 1_555
H17 C18 1_555 1_555
C19 C18 1_555 1_555
H18 C19 1_555 1_555
C20 H19 1_555 1_555
C21 C17 1_555 1_555
H20 C21 1_555 1_555
C22 H21 1_555 1_555
C23 C22 1_555 1_555
H22 C23 1_555 1_555
C24 C23 1_555 1_555
C25 C24 1_555 1_555
H23 C25 1_555 1_555
C26 C25 1_555 1_555
H24 C26 1_555 1_555
C27 C24 1_555 1_555
H25 C27 1_555 1_555
H26 C27 1_555 1_555
C28 C27 1_555 1_555
H27 C28 1_555 1_555
H28 C28 1_555 1_555
C29 C28 1_555 1_555
H29 C29 1_555 1_555
H30 C29 1_555 1_555
C30 C29 1_555 1_555
C31 C30 1_555 1_555
H31 C31 1_555 1_555
C32 C31 1_555 1_555
H32 C32 1_555 1_555
C33 H33 1_555 1_555
C34 C30 1_555 1_555
H34 C34 1_555 1_555
N1 C9 1_555 1_555
N2 C19 1_555 1_555
N3 C22 1_555 1_555
N4 C32 1_555 1_555
O1 C1 1_555 1_555
H35 O1 1_555 1_555
O2 Ag2 1_555 1_555
H36 O2 1_555 1_555
H37 O2 1_555 1_555
O3 S1 1_555 1_555
O4 H38 1_555 1_555
H39 O4 1_555 1_555
O5 S1 1_555 1_555
O6 H40 1_555 1_555
H41 O6 1_555 1_555
O7 Ag1 1_555 1_555
O8 H42 1_555 1_555
H43 O8 1_555 1_555
O9 C8 1_555 1_555
O10 H44 1_555 1_555
H45 O10 1_555 1_555
O11 C8 1_555 1_555
H46 O11 1_555 1_555
O12 C5 1_555 1_555
S1 C2 1_555 1_555
Ag1C N2 1_555 1_555
Ag1B O7 1_555 1_555
Ag2C N4 1_555 1_555
N2C Ag1 1_555 1_555
N4C Ag2 1_555 1_555
O7B Ag1 1_555 1_555
C6 C7 1_555 1_555
C13 N1 1_555 1_555
C20 C21 1_555 1_555
C20 N2 1_555 1_555
C26 N3 1_555 1_555
C33 C34 1_555 1_555
C33 N4 1_555 1_555
O7 S1 1_555 1_555
Ag1B O7B 1_555 1_555

#END
