
#######################################################################
#
#                 Cambridge Crystallographic Data Centre
#                                CCDC 
#
#######################################################################
#
# If this CIF has been generated from an entry in the Cambridge 
# Structural Database, then it will include bibliographic, chemical, 
# crystal, experimental, refinement or atomic coordinate data resulting 
# from the CCDC's data processing and validation procedures.
#
#######################################################################

data_HAWDIU
_symmetry_cell_setting           monoclinic
_symmetry_space_group_name_H-M   'P 21/c'
_symmetry_Int_Tables_number      14
_space_group_name_Hall           '-P 2ybc'
loop_
_symmetry_equiv_pos_site_id
_symmetry_equiv_pos_as_xyz
1 x,y,z
2 -x,1/2+y,1/2-z
3 -x,-y,-z
4 x,1/2-y,1/2+z
_cell_length_a                   9.9715(5)
_cell_length_b                   11.7086(6)
_cell_length_c                   7.3056(3)
_cell_angle_alpha                90
_cell_angle_beta                 91.439(4)
_cell_angle_gamma                90
_cell_volume                     852.677
loop_
_atom_site_label
_atom_site_type_symbol
_atom_site_fract_x
_atom_site_fract_y
_atom_site_fract_z
La1 La 1.23917(2) 0.30774(3) 1.08848(4)
C1 C 0.9828(4) 0.2182(4) 0.9236(6)
C2 C 0.8558(4) 0.1516(4) 0.8967(6)
C3 C 0.7333(4) 0.2010(5) 0.9377(6)
H1 H 0.7300 0.2731 0.9910
C4 C 0.6151(4) 0.1405(5) 0.8973(6)
C5 C 0.4839(4) 0.1981(5) 0.9344(6)
C6 C 0.6196(4) 0.0315(4) 0.8229(6)
H2 H 0.5403 -0.0065 0.7923
C7 C 0.7442(5) -0.0219(5) 0.7932(6)
C8 C 0.8604(4) 0.0410(4) 0.8268(6)
H3 H 0.9431 0.0086 0.8020
O1 O 0.9803(3) 0.3176(3) 0.9900(5)
O2 O 1.0943(3) 0.1721(3) 0.8830(5)
O3 O 0.4857(3) 0.2884(4) 1.0256(5)
O4 O 0.3743(3) 0.1536(3) 0.8761(4)
O5 O 0.7502(3) -0.1298(3) 0.7321(4)
O6 O 1.2054(4) 0.5213(4) 1.1463(5)
H4 H 1.1307 0.5526 1.1186
H5 H 1.2688 0.5609 1.1934
La1C La 1.23917(2) 0.19226(3) 0.58848(4)
La1_2 La 0.23917(2) 0.30774(3) 1.08848(4)
La1C_2 La 0.23917(2) 0.19226(3) 0.58848(4)
La1A La 0.76083(2) -0.19226(3) 0.41152(4)
La1B La 0.76083(2) -0.30774(3) 0.91152(4)
O2C O 1.0943(3) 0.3279(3) 1.3830(5)
O3_2 O 1.4857(3) 0.2884(4) 1.0256(5)
O4_2 O 1.3743(3) 0.1536(3) 0.8761(4)
O4C O 1.3743(3) 0.3464(3) 1.3761(4)
O5A O 1.2498(3) 0.3702(3) 0.7679(4)
O5B O 1.2498(3) 0.1298(3) 1.2679(4)
loop_
_geom_bond_atom_site_label_1
_geom_bond_atom_site_label_2
_geom_bond_site_symmetry_1
_geom_bond_site_symmetry_2
La1 O1 1_555 1_555
C1 C2 1_555 1_555
C2 C3 1_555 1_555
C3 H1 1_555 1_555
C4 C3 1_555 1_555
C5 C4 1_555 1_555
C6 C4 1_555 1_555
H2 C6 1_555 1_555
C7 C6 1_555 1_555
C8 C2 1_555 1_555
H3 C8 1_555 1_555
O1 C1 1_555 1_555
O2 La1 1_555 1_555
O3 C5 1_555 1_555
O4 C5 1_555 1_555
O5 C7 1_555 1_555
O6 La1 1_555 1_555
H4 O6 1_555 1_555
H5 O6 1_555 1_555
La1C O2 1_555 1_555
La1_2 O3 1_555 1_555
La1C_2 O4 1_555 1_555
La1A O5 1_555 1_555
La1B O5 1_555 1_555
O2C La1 1_555 1_555
O3_2 La1 1_555 1_555
O4_2 La1 1_555 1_555
O4C La1 1_555 1_555
O5A La1 1_555 1_555
O5B La1 1_555 1_555
C1 O2 1_555 1_555
C7 C8 1_555 1_555
O4 La1_2 1_555 1_555
La1C O4_2 1_555 1_555
La1C O5A 1_555 1_555

#END
