
#######################################################################
#
#                 Cambridge Crystallographic Data Centre
#                                CCDC 
#
#######################################################################
#
# If this CIF has been generated from an entry in the Cambridge 
# Structural Database, then it will include bibliographic, chemical, 
# crystal, experimental, refinement or atomic coordinate data resulting 
# from the CCDC's data processing and validation procedures.
#
#######################################################################

data_HAWDOA
_symmetry_cell_setting           monoclinic
_symmetry_space_group_name_H-M   'P 21/c'
_symmetry_Int_Tables_number      14
_space_group_name_Hall           '-P 2ybc'
loop_
_symmetry_equiv_pos_site_id
_symmetry_equiv_pos_as_xyz
1 x,y,z
2 -x,1/2+y,1/2-z
3 -x,-y,-z
4 x,1/2-y,1/2+z
_cell_length_a                   10.7636(11)
_cell_length_b                   14.3485(13)
_cell_length_c                   17.528(2)
_cell_angle_alpha                90
_cell_angle_beta                 102.116(11)
_cell_angle_gamma                90
_cell_volume                     2646.75
loop_
_atom_site_label
_atom_site_type_symbol
_atom_site_fract_x
_atom_site_fract_y
_atom_site_fract_z
Ho1 Ho 0.33576(5) -0.06059(4) 0.15349(3)
Ho2 Ho 0.60453(5) 0.17601(4) 0.16020(3)
C1 C 0.2932(12) 0.1421(9) 0.1787(8)
C2 C 0.2443(13) 0.2368(10) 0.1802(8)
C3 C 0.1206(13) 0.2564(10) 0.1412(8)
H1 H 0.0733 0.2107 0.1105
C4 C 0.0681(12) 0.3414(11) 0.1473(8)
C5 C 0.1400(14) 0.4123(10) 0.1931(9)
H2 H 0.1054 0.4711 0.1968
C6 C 0.2619(11) 0.3923(10) 0.2320(8)
C7 C 0.3386(12) 0.4637(10) 0.2830(8)
C8 C 0.3136(11) 0.3040(9) 0.2269(7)
H3 H 0.3949 0.2904 0.2549
C9 C 0.4515(12) -0.0979(9) 0.3467(8)
C10 C 0.5431(12) -0.0257(10) 0.3910(7)
C11 C 0.6202(15) -0.0467(11) 0.4623(9)
H4 H 0.6169 -0.1054 0.4842
C12 C 0.7022(15) 0.0201(10) 0.5005(8)
C13 C 0.7048(13) 0.1097(10) 0.4692(8)
H5 H 0.7574 0.1557 0.4960
C14 C 0.6262(13) 0.1282(9) 0.3965(8)
C15 C 0.5443(14) 0.0629(9) 0.3593(8)
H6 H 0.4888 0.0775 0.3126
C16 C 0.6330(12) 0.2236(10) 0.3598(7)
C17 C 0.0831(13) -0.1212(10) 0.1141(7)
C18 C -0.0543(13) -0.1541(10) 0.0986(8)
C19 C -0.1481(13) -0.1054(11) 0.0504(7)
H7 H -0.1297 -0.0505 0.0268
C20 C -0.2725(11) -0.1399(10) 0.0371(7)
C21 C -0.3756(11) -0.0911(9) -0.0194(6)
C22 C -0.0797(12) -0.2351(10) 0.1364(7)
H8 H -0.0153 -0.2663 0.1706
C23 C -0.2984(12) -0.2221(9) 0.0738(7)
H9 H -0.3808 -0.2455 0.0654
C24 C -0.2014(13) -0.2674(9) 0.1220(8)
O1 O 0.4129(8) 0.1263(7) 0.1869(5)
O2 O 0.2186(8) 0.0731(7) 0.1662(6)
O3 O 0.4502(9) 0.4399(7) 0.3220(6)
O4 O 0.2952(10) 0.5430(7) 0.2892(7)
O5 O -0.0554(9) 0.3561(8) 0.1105(7)
H10 H -0.0835 0.3090 0.0865
O6 O 0.3826(9) -0.0736(6) 0.2841(5)
O7 O 0.4574(10) -0.1783(6) 0.3763(5)
O8 O 0.6151(9) 0.2289(7) 0.2873(5)
O9 O 0.6499(9) 0.2934(6) 0.4032(5)
O10 O 0.7814(12) 0.0047(8) 0.5718(6)
H11 H 0.8309 0.0485 0.5825
O11 O 0.1262(9) -0.0800(7) 0.0631(6)
O12 O 0.1536(8) -0.1369(7) 0.1806(5)
O13 O -0.3520(8) -0.0083(6) -0.0381(5)
O14 O -0.4747(8) -0.1345(7) -0.0455(5)
O15 O 0.8083(8) 0.2431(7) 0.2007(5)
H12 H 0.8193 0.2845 0.1681
H13 H 0.8144 0.2678 0.2454
O16 O 0.7300(10) 0.1553(9) 0.0640(6)
H14 H 0.8050 0.1205 0.0863
H15 H 0.6814 0.1217 0.0204
O17 O -0.2291(9) -0.3507(6) 0.1568(6)
H16 H -0.2238 -0.3946 0.1277
Ho1A Ho 0.66424(5) 0.43941(4) 0.34651(3)
Ho1B Ho -0.33576(5) 0.06059(4) -0.15349(3)
Ho2A Ho 0.39547(5) 0.67601(4) 0.33980(3)
Ho2A_2 Ho 0.39547(5) -0.32399(4) 0.33980(3)
Ho2B Ho -0.60453(5) -0.17601(4) -0.16020(3)
O3A O 0.5498(9) -0.0601(7) 0.1780(6)
O4A O 0.7048(10) 0.0430(7) 0.2108(7)
O7A O 0.5426(10) 0.3217(6) 0.1237(5)
O9A O 0.3501(9) -0.2066(6) 0.0968(5)
O13B O 0.3520(8) 0.0083(6) 0.0381(5)
O14B O 0.4747(8) 0.1345(7) 0.0455(5)
O18 O 0.0191(13) 0.0816(10) 0.2427(8)
H17 H 0.0801 0.0885 0.2196
H18 H -0.0324 0.1278 0.2281
loop_
_geom_bond_atom_site_label_1
_geom_bond_atom_site_label_2
_geom_bond_site_symmetry_1
_geom_bond_site_symmetry_2
Ho1 O2 1_555 1_555
Ho2 O1 1_555 1_555
C1 C2 1_555 1_555
C2 C3 1_555 1_555
C3 H1 1_555 1_555
C4 C3 1_555 1_555
C5 C4 1_555 1_555
H2 C5 1_555 1_555
C6 C5 1_555 1_555
C7 C6 1_555 1_555
C8 C2 1_555 1_555
H3 C8 1_555 1_555
C9 C10 1_555 1_555
C10 C11 1_555 1_555
C11 H4 1_555 1_555
C12 C11 1_555 1_555
C13 C12 1_555 1_555
H5 C13 1_555 1_555
C14 C13 1_555 1_555
C15 C10 1_555 1_555
H6 C15 1_555 1_555
C16 C14 1_555 1_555
C17 C18 1_555 1_555
C18 C19 1_555 1_555
C19 H7 1_555 1_555
C20 C19 1_555 1_555
C21 C20 1_555 1_555
C22 C18 1_555 1_555
H8 C22 1_555 1_555
C23 C20 1_555 1_555
H9 C23 1_555 1_555
C24 C22 1_555 1_555
O1 C1 1_555 1_555
O2 C1 1_555 1_555
O3 C7 1_555 1_555
O4 C7 1_555 1_555
O5 C4 1_555 1_555
H10 O5 1_555 1_555
O6 Ho1 1_555 1_555
O7 C9 1_555 1_555
O8 Ho2 1_555 1_555
O9 C16 1_555 1_555
O10 C12 1_555 1_555
H11 O10 1_555 1_555
O11 Ho1 1_555 1_555
O12 Ho1 1_555 1_555
O13 C21 1_555 1_555
O14 C21 1_555 1_555
O15 Ho2 1_555 1_555
H12 O15 1_555 1_555
H13 O15 1_555 1_555
O16 Ho2 1_555 1_555
H14 O16 1_555 1_555
H15 O16 1_555 1_555
O17 C24 1_555 1_555
H16 O17 1_555 1_555
O18 H17 1_555 1_555
H18 O18 1_555 1_555
Ho1A O3 1_555 1_555
Ho1B O13 1_555 1_555
Ho2A O4 1_555 1_555
Ho2A_2 O7 1_555 1_555
Ho2B O14 1_555 1_555
O3A Ho1 1_555 1_555
O4A Ho2 1_555 1_555
O7A Ho2 1_555 1_555
O9A Ho1 1_555 1_555
O13B Ho1 1_555 1_555
O14B Ho2 1_555 1_555
C6 C8 1_555 1_555
C9 O6 1_555 1_555
C14 C15 1_555 1_555
C16 O8 1_555 1_555
C17 O11 1_555 1_555
C17 O12 1_555 1_555
C23 C24 1_555 1_555
O9 Ho1A 1_555 1_555

#END
