
#######################################################################
#
#                 Cambridge Crystallographic Data Centre
#                                CCDC 
#
#######################################################################
#
# If this CIF has been generated from an entry in the Cambridge 
# Structural Database, then it will include bibliographic, chemical, 
# crystal, experimental, refinement or atomic coordinate data resulting 
# from the CCDC's data processing and validation procedures.
#
#######################################################################

data_HAWFIV
_symmetry_cell_setting           triclinic
_symmetry_space_group_name_H-M   'P -1'
_symmetry_Int_Tables_number      2
_space_group_name_Hall           '-P 1'
loop_
_symmetry_equiv_pos_site_id
_symmetry_equiv_pos_as_xyz
1 x,y,z
2 -x,-y,-z
_cell_length_a                   6.72240(10)
_cell_length_b                   10.182
_cell_length_c                   11.7912(2)
_cell_angle_alpha                75.06
_cell_angle_beta                 74.51
_cell_angle_gamma                88.1730(10)
_cell_volume                     750.879
loop_
_atom_site_label
_atom_site_type_symbol
_atom_site_fract_x
_atom_site_fract_y
_atom_site_fract_z
Cd1 Cd 0.0000 0.0000 0.0000
Cd2 Cd 0.27256(5) 0.16730(3) 0.18531(3)
O1 O 0.3998(6) -0.0476(4) 0.2025(3)
N1 N 0.1903(6) 0.1788(4) 0.0062(3)
N2 N 0.2782(6) 0.2650(4) -0.0839(3)
N3 N 0.3608(7) 0.3479(5) -0.1683(4)
N4 N 0.1417(6) -0.6197(4) 0.2010(4)
O2 O 0.4174(5) -0.2850(3) -0.0730(3)
O3 O 0.2698(6) -0.1398(3) 0.0357(3)
C1 C 0.2196(8) -0.5074(5) 0.1100(5)
H1 H 0.2962 -0.5199 0.0335
C2 C 0.1941(8) -0.3756(5) 0.1220(5)
C3 C 0.0783(9) -0.3568(6) 0.2343(5)
H2 H 0.0581 -0.2681 0.2464
C4 C -0.0053(10) -0.4700(6) 0.3268(5)
H3 H -0.0870 -0.4607 0.4034
C5 C 0.0318(9) -0.5978(6) 0.3062(5)
H4 H -0.0249 -0.6748 0.3714
C6 C 0.3049(7) -0.2535(5) 0.0158(5)
N5 N 0.3753(6) 0.1706(4) -0.6399(3)
O4 O 0.0320(5) -0.0639(4) -0.3096(3)
O5 O 0.1738(5) 0.0448(3) -0.2047(3)
C7 C 0.2743(7) 0.0903(5) -0.5304(4)
H5 H 0.1939 0.0143 -0.5287
C8 C 0.2812(7) 0.1124(4) -0.4201(4)
C9 C 0.4022(8) 0.2224(5) -0.4232(4)
H6 H 0.4119 0.2409 -0.3499
C10 C 0.5083(9) 0.3042(6) -0.5354(5)
H7 H 0.5916 0.3799 -0.5398
C11 C 0.4921(8) 0.2751(5) -0.6409(5)
H8 H 0.5670 0.3316 -0.7171
C12 C 0.1516(7) 0.0219(4) -0.3011(4)
H9 H 0.359(12) -0.092(7) 0.158(6)
H10 H 0.530(5) -0.050(9) 0.204(8)
Cd2A Cd -0.27256(5) -0.16730(3) -0.18531(3)
Cd2_2 Cd 0.27256(5) -0.83270(3) 0.18531(3)
Cd2A_2 Cd 0.72744(5) -0.16730(3) -0.18531(3)
Cd2_3 Cd 0.27256(5) 0.16730(3) -0.81469(3)
Cd2A_3 Cd -0.27256(5) 0.83270(3) -0.18531(3)
Cd2_4 Cd -0.72744(5) 0.16730(3) 0.18531(3)
Cd2A_4 Cd -0.27256(5) -0.16730(3) 0.81469(3)
O1A O -0.3998(6) 0.0476(4) -0.2025(3)
N1A N -0.1903(6) -0.1788(4) -0.0062(3)
N2A N -0.2782(6) -0.2650(4) 0.0839(3)
N3A N -0.3608(7) -0.3479(5) 0.1683(4)
N4A N -0.1417(6) 0.6197(4) -0.2010(4)
N4_2 N 0.1417(6) 0.3803(4) 0.2010(4)
N4A_2 N -0.1417(6) -0.3803(4) -0.2010(4)
O2A O -0.4174(5) 0.2850(3) 0.0730(3)
O2A_2 O 0.5826(5) 0.2850(3) 0.0730(3)
O2_2 O -0.5826(5) -0.2850(3) -0.0730(3)
O3A O -0.2698(6) 0.1398(3) -0.0357(3)
C1A C -0.2196(8) 0.5074(5) -0.1100(5)
H1A H -0.2962 0.5199 -0.0335
C2A C -0.1941(8) 0.3756(5) -0.1220(5)
C3A C -0.0783(9) 0.3568(6) -0.2343(5)
H2A H -0.0581 0.2681 -0.2464
C4A C 0.0053(10) 0.4700(6) -0.3268(5)
H3A H 0.0870 0.4607 -0.4034
C5A C -0.0318(9) 0.5978(6) -0.3062(5)
H4A H 0.0249 0.6748 -0.3714
C6A C -0.3049(7) 0.2535(5) -0.0158(5)
N5A N -0.3753(6) -0.1706(4) 0.6399(3)
N5_2 N 0.3753(6) 0.1706(4) 0.3601(3)
N5A_2 N -0.3753(6) -0.1706(4) -0.3601(3)
O4A O -0.0320(5) 0.0639(4) 0.3096(3)
O5A O -0.1738(5) -0.0448(3) 0.2047(3)
C7A C -0.2743(7) -0.0903(5) 0.5304(4)
H5A H -0.1939 -0.0143 0.5287
C8A C -0.2812(7) -0.1124(4) 0.4201(4)
C9A C -0.4022(8) -0.2224(5) 0.4232(4)
H6A H -0.4119 -0.2409 0.3499
C10A C -0.5083(9) -0.3042(6) 0.5354(5)
H7A H -0.5916 -0.3799 0.5398
C11A C -0.4921(8) -0.2751(5) 0.6409(5)
H8A H -0.5670 -0.3316 0.7171
C12A C -0.1516(7) -0.0219(4) 0.3011(4)
H9A H -0.359(12) 0.092(7) -0.158(6)
H10A H -0.530(5) 0.050(9) -0.204(8)
loop_
_geom_bond_atom_site_label_1
_geom_bond_atom_site_label_2
_geom_bond_site_symmetry_1
_geom_bond_site_symmetry_2
Cd1 N1 1_555 1_555
Cd2 O1 1_555 1_555
O1 H9 1_555 1_555
N1 Cd2 1_555 1_555
N2 N1 1_555 1_555
N3 N2 1_555 1_555
N4 C1 1_555 1_555
O2 C6 1_555 1_555
O3 Cd1 1_555 1_555
C1 H1 1_555 1_555
C2 C1 1_555 1_555
C3 C2 1_555 1_555
H2 C3 1_555 1_555
C4 C3 1_555 1_555
H3 C4 1_555 1_555
C5 N4 1_555 1_555
H4 C5 1_555 1_555
C6 O3 1_555 1_555
N5 C7 1_555 1_555
O4 C12 1_555 1_555
O5 Cd1 1_555 1_555
C7 H5 1_555 1_555
C8 C7 1_555 1_555
C9 C8 1_555 1_555
H6 C9 1_555 1_555
C10 C9 1_555 1_555
H7 C10 1_555 1_555
C11 N5 1_555 1_555
H8 C11 1_555 1_555
C12 O5 1_555 1_555
H10 O1 1_555 1_555
Cd2A O4 1_555 1_555
Cd2_2 N4 1_555 1_555
Cd2A_2 O2 1_555 1_555
Cd2_3 N5 1_555 1_555
Cd2A_3 N4A 1_555 1_555
Cd2_4 O2A 1_555 1_555
Cd2A_4 N5A 1_555 1_555
O1A Cd2A 1_555 1_555
N1A Cd1 1_555 1_555
N2A N1A 1_555 1_555
N3A N2A 1_555 1_555
N4A C1A 1_555 1_555
N4_2 Cd2 1_555 1_555
N4A_2 Cd2A 1_555 1_555
O2A C6A 1_555 1_555
O2A_2 Cd2 1_555 1_555
O2_2 Cd2A 1_555 1_555
O3A Cd1 1_555 1_555
C1A H1A 1_555 1_555
C2A C1A 1_555 1_555
C3A C2A 1_555 1_555
H2A C3A 1_555 1_555
C4A C3A 1_555 1_555
H3A C4A 1_555 1_555
C5A N4A 1_555 1_555
H4A C5A 1_555 1_555
C6A O3A 1_555 1_555
N5A C7A 1_555 1_555
N5_2 Cd2 1_555 1_555
N5A_2 Cd2A 1_555 1_555
O4A Cd2 1_555 1_555
O5A Cd1 1_555 1_555
C7A H5A 1_555 1_555
C8A C7A 1_555 1_555
C9A C8A 1_555 1_555
H6A C9A 1_555 1_555
C10A C9A 1_555 1_555
H7A C10A 1_555 1_555
C11A N5A 1_555 1_555
H8A C11A 1_555 1_555
C12A O4A 1_555 1_555
H9A O1A 1_555 1_555
H10A O1A 1_555 1_555
C2 C6 1_555 1_555
C4 C5 1_555 1_555
C8 C12 1_555 1_555
C10 C11 1_555 1_555
Cd2A N1A 1_555 1_555
C2A C6A 1_555 1_555
C4A C5A 1_555 1_555
O5A C12A 1_555 1_555
C8A C12A 1_555 1_555
C10A C11A 1_555 1_555

#END
