
#######################################################################
#
#                 Cambridge Crystallographic Data Centre
#                                CCDC 
#
#######################################################################
#
# If this CIF has been generated from an entry in the Cambridge 
# Structural Database, then it will include bibliographic, chemical, 
# crystal, experimental, refinement or atomic coordinate data resulting 
# from the CCDC's data processing and validation procedures.
#
#######################################################################

data_HAWGIV
_symmetry_cell_setting           monoclinic
_symmetry_space_group_name_H-M   'B 1 1 2'
_symmetry_Int_Tables_number      5
_space_group_name_Hall           'B 2'
loop_
_symmetry_equiv_pos_site_id
_symmetry_equiv_pos_as_xyz
1 x,y,z
2 1/2+x,y,1/2+z
3 -x,-y,z
4 1/2-x,-y,1/2+z
_cell_length_a                   15.385(2)
_cell_length_b                   8.821(2)
_cell_length_c                   5.595(3)
_cell_angle_alpha                90
_cell_angle_beta                 90
_cell_angle_gamma                76.97(3)
_cell_volume                     739.753
loop_
_atom_site_label
_atom_site_type_symbol
_atom_site_fract_x
_atom_site_fract_y
_atom_site_fract_z
Ca1 Ca 0.0000 0.0000 0.0000
O1 O 0.0731(4) 0.1099(6) 0.3108(9)
O2 O -0.1390(3) -0.0361(6) -0.1879(11)
O3 O -0.0369(3) 0.2255(5) -0.2618(9)
N1 N -0.1226(5) 0.2410(6) 0.1608(13)
N2 N -0.1171(4) 0.3759(6) 0.0260(11)
C1 C -0.0766(4) 0.3579(6) -0.1879(11)
C2 C -0.0840(4) 0.5027(6) -0.3292(12)
C3 C 0.0000 0.5000 -0.4795(18)
O1B O -0.0731(4) -0.1099(6) 0.3108(9)
O2B O 0.1390(3) 0.0361(6) -0.1879(11)
O3B O 0.0369(3) -0.2255(5) -0.2618(9)
N1B N 0.1226(5) -0.2410(6) 0.1608(13)
C2B C 0.0840(4) 0.4973(6) -0.3292(12)
C1B C 0.0766(4) 0.6421(6) -0.1879(11)
O3B_2 O 0.0369(3) 0.7745(5) -0.2618(9)
N2B N 0.1171(4) 0.6241(6) 0.0260(11)
Ca1_2 Ca 0.0000 1.0000 0.0000
N1B_2 N 0.1226(5) 0.7590(6) 0.1608(13)
Cl1 Cl 0.2257(1) 0.2667(2) 0.1382(5)
loop_
_geom_bond_atom_site_label_1
_geom_bond_atom_site_label_2
_geom_bond_site_symmetry_1
_geom_bond_site_symmetry_2
Ca1 O1 1_555 1_555
O2 Ca1 1_555 1_555
O3 Ca1 1_555 1_555
N1 Ca1 1_555 1_555
N2 N1 1_555 1_555
C1 O3 1_555 1_555
C2 C1 1_555 1_555
C3 C2 1_555 1_555
O1B Ca1 1_555 1_555
O2B Ca1 1_555 1_555
O3B Ca1 1_555 1_555
N1B Ca1 1_555 1_555
C2B C3 1_555 1_555
C1B C2B 1_555 1_555
O3B_2 C1B 1_555 1_555
N2B C1B 1_555 1_555
Ca1_2 O3B_2 1_555 1_555
N1B_2 N2B 1_555 1_555
N2 C1 1_555 1_555
Ca1_2 N1B_2 1_555 1_555

#END
