
#######################################################################
#
#                 Cambridge Crystallographic Data Centre
#                                CCDC 
#
#######################################################################
#
# If this CIF has been generated from an entry in the Cambridge 
# Structural Database, then it will include bibliographic, chemical, 
# crystal, experimental, refinement or atomic coordinate data resulting 
# from the CCDC's data processing and validation procedures.
#
#######################################################################

data_HAWGUJ
_symmetry_cell_setting           triclinic
_symmetry_space_group_name_H-M   'P -1'
_symmetry_Int_Tables_number      2
_space_group_name_Hall           '-P 1'
loop_
_symmetry_equiv_pos_site_id
_symmetry_equiv_pos_as_xyz
1 x,y,z
2 -x,-y,-z
_cell_length_a                   16.711(6)
_cell_length_b                   25.773(9)
_cell_length_c                   28.111(10)
_cell_angle_alpha                75.982(9)
_cell_angle_beta                 82.001(11)
_cell_angle_gamma                80.974(12)
_cell_volume                     11536.4
loop_
_atom_site_label
_atom_site_type_symbol
_atom_site_fract_x
_atom_site_fract_y
_atom_site_fract_z
Mn1 Mn 0.73905(6) 0.45403(3) 0.92693(3)
Mn2 Mn 0.63867(6) 0.37072(3) 0.85824(3)
Mn3 Mn 0.44312(6) 0.28103(4) 0.80072(3)
Mn4 Mn 1.23834(5) -0.78597(3) 1.69733(3)
Mn5 Mn 0.95887(6) -0.72004(4) 1.80671(3)
Mn6 Mn 1.51165(6) -0.86998(3) 1.64290(3)
Mn7 Mn 1.68471(6) -0.95288(3) 1.57449(3)
Mn8 Mn 0.25677(8) -0.22721(4) 1.30272(4)
Mn9 Mn 0.87343(6) 0.96418(3) 0.43496(3)
Mn10 Mn 1.03890(7) -0.12614(3) 1.36848(3)
Mn11 Mn 0.82551(6) -1.46413(3) 2.06623(3)
Mn12 Mn 0.92428(7) -1.37560(4) 2.13010(3)
C1 C 0.5995(3) 0.7027(2) 0.6937(2)
C2 C 0.7349(3) 0.6838(2) 0.6892(2)
C3 C 0.6778(4) 0.7702(2) 0.6773(2)
C4 C 0.5236(3) 0.6120(2) 0.7078(2)
C5 C 0.5332(3) 0.5778(2) 0.7534(2)
H1 H 0.5320(3) 0.5920(2) 0.7809(2)
C6 C 0.5447(3) 0.5222(2) 0.7582(2)
C7 C 0.5447(4) 0.5012(2) 0.7164(2)
H2 H 0.5523(4) 0.4641(2) 0.7192(2)
C8 C 0.5332(4) 0.5362(3) 0.6708(2)
H3 H 0.5326(4) 0.5223(3) 0.6432(2)
C9 C 0.5226(4) 0.5915(2) 0.6662(2)
H4 H 0.5150(4) 0.6147(2) 0.6358(2)
C10 C 0.5574(4) 0.4845(2) 0.8070(2)
C11 C 0.7973(3) 0.5741(2) 0.7068(2)
C12 C 0.7874(3) 0.5449(2) 0.7549(2)
H5 H 0.7919(3) 0.5604(2) 0.7809(2)
C13 C 0.7703(3) 0.4912(2) 0.7642(2)
C14 C 0.7638(4) 0.4680(2) 0.7248(2)
H6 H 0.7525(4) 0.4327(2) 0.7308(2)
C15 C 0.7744(4) 0.4983(2) 0.6768(2)
H7 H 0.7703(4) 0.4829(2) 0.6507(2)
C16 C 0.7913(4) 0.5519(2) 0.6671(2)
H8 H 0.7984(4) 0.5720(2) 0.6349(2)
C17 C 0.7593(4) 0.4596(2) 0.8160(2)
C18 C 0.7887(4) 0.8445(2) 0.6485(2)
C19 C 0.8163(4) 0.8724(2) 0.6016(2)
H9 H 0.7792(4) 0.8891(2) 0.5790(2)
C20 C 0.8999(4) 0.8754(2) 0.5884(2)
C21 C 0.9552(4) 0.8490(2) 0.6223(2)
H10 H 1.0108(4) 0.8495(2) 0.6134(2)
C22 C 0.9272(4) 0.8219(2) 0.6695(2)
H11 H 0.9644(4) 0.8048(2) 0.6919(2)
C23 C 0.8439(4) 0.8203(2) 0.6836(2)
H12 H 0.8252(4) 0.8036(2) 0.7155(2)
C24 C 0.9313(4) 0.9062(2) 0.5379(2)
C25 C 0.5293(3) 0.0737(2) 1.0488(2)
C26 C 0.6653(3) 0.0546(2) 1.0457(2)
C27 C 0.5871(4) -0.0129(2) 1.0663(2)
C28 C 0.4734(3) 0.1829(2) 1.0209(2)
C29 C 0.4752(3) 0.2088(2) 0.9712(2)
H13 H 0.4601(3) 0.1920(2) 0.9487(2)
C30 C 0.4999(3) 0.2603(2) 0.9551(2)
C31 C 0.5232(4) 0.2846(2) 0.9892(2)
H14 H 0.5407(4) 0.3184(2) 0.9786(2)
C32 C 0.5208(4) 0.2590(2) 1.0392(2)
H15 H 0.5360(4) 0.2759(2) 1.0616(2)
C33 C 0.4953(4) 0.2076(2) 1.0556(2)
H16 H 0.4930(4) 0.1903(2) 1.0888(2)
C34 C 0.5000(4) 0.2890(2) 0.9018(2)
C35 C 0.7467(3) 0.1444(2) 1.0270(2)
C36 C 0.7406(3) 0.1742(2) 0.9788(2)
H17 H 0.7426(3) 0.1569(2) 0.9532(2)
C37 C 0.7317(3) 0.2302(2) 0.9697(2)
C38 C 0.7313(4) 0.2562(2) 1.0080(2)
H18 H 0.7265(4) 0.2936(2) 1.0015(2)
C39 C 0.7380(3) 0.2262(2) 1.0555(2)
H19 H 0.7375(3) 0.2435(2) 1.0810(2)
C40 C 0.7455(3) 0.1700(2) 1.0654(2)
H20 H 0.7498(3) 0.1498(2) 1.0974(2)
C41 C 0.7213(3) 0.2628(2) 0.9172(2)
C42 C 0.4873(4) -0.0974(2) 1.1020(2)
C43 C 0.4751(4) -0.1383(2) 1.1441(2)
H21 H 0.5184(4) -0.1549(2) 1.1622(2)
C44 C 0.3969(4) -0.1546(2) 1.1592(2)
C45 C 0.3319(4) -0.1278(2) 1.1323(2)
H22 H 0.2797(4) -0.1371(2) 1.1429(2)
C46 C 0.3446(4) -0.0875(2) 1.0899(2)
H23 H 0.3012(4) -0.0706(2) 1.0721(2)
C47 C 0.4227(4) -0.0722(2) 1.0740(2)
H24 H 0.4316(4) -0.0458(2) 1.0454(2)
C48 C 0.3825(4) -0.1986(2) 1.2044(2)
C49 C 0.8482(4) 0.2616(2) 1.1842(2)
C50 C 0.8258(4) 0.1755(2) 1.1976(2)
C51 C 0.9515(4) 0.1940(2) 1.2002(2)
C52 C 0.7238(4) 0.3414(2) 1.1479(2)
C53 C 0.7170(4) 0.3673(2) 1.0991(2)
H25 H 0.7629(4) 0.3785(2) 1.0788(2)
C54 C 0.6428(4) 0.3766(2) 1.0802(2)
C55 C 0.5734(4) 0.3593(2) 1.1105(2)
H26 H 0.5236(4) 0.3649(2) 1.0977(2)
C56 C 0.5797(4) 0.3335(2) 1.1606(2)
H27 H 0.5338(4) 0.3223(2) 1.1809(2)
C57 C 0.6542(4) 0.3249(2) 1.1793(2)
H28 H 0.6585(4) 0.3083(2) 1.2123(2)
C58 C 0.6359(4) 0.4044(2) 1.0266(2)
C59 C 0.8125(3) 0.0663(2) 1.2157(2)
C60 C 0.8323(3) 0.0427(2) 1.2635(2)
H29 H 0.8160(3) 0.0609(2) 1.2888(2)
C61 C 0.8769(4) -0.0087(2) 1.2728(2)
C62 C 0.9029(4) -0.0353(2) 1.2345(2)
H30 H 0.9342(4) -0.0689(2) 1.2406(2)
C63 C 0.8821(4) -0.0116(2) 1.1872(2)
H31 H 0.8991(4) -0.0294(2) 1.1618(2)
C64 C 0.8356(4) 0.0393(2) 1.1779(2)
H32 H 0.8203(4) 0.0549(2) 1.1465(2)
C65 C 0.8987(5) -0.0340(3) 1.3246(3)
C66 C 1.0718(3) 0.1053(2) 1.2155(2)
C67 C 1.0747(3) 0.0739(2) 1.2635(2)
H33 H 1.0627(3) 0.0901(2) 1.2903(2)
C68 C 1.0957(4) 0.0181(2) 1.2712(2)
C69 C 1.1144(4) -0.0062(2) 1.2306(3)
H34 H 1.1285(4) -0.0433(2) 1.2354(3)
C70 C 1.1116(5) 0.0254(3) 1.1836(3)
H35 H 1.1244(5) 0.0094(3) 1.1568(3)
C71 C 1.0897(4) 0.0813(3) 1.1756(2)
H36 H 1.0873(4) 0.1022(3) 1.1437(2)
C72 C 1.0974(4) -0.0164(2) 1.3235(2)
C73 C 1.1289(4) -0.5157(2) 1.5680(2)
C74 C 1.1560(3) -0.4305(2) 1.5559(2)
C75 C 1.0322(3) -0.4458(2) 1.5456(2)
C76 C 1.2540(3) -0.5994(2) 1.6002(2)
C77 C 1.2673(3) -0.6415(2) 1.6421(2)
H37 H 1.2242(3) -0.6594(2) 1.6593(2)
C78 C 1.3453(4) -0.6564(2) 1.6579(2)
C79 C 1.4102(4) -0.6284(2) 1.6314(2)
H38 H 1.4619(4) -0.6373(2) 1.6421(2)
C80 C 1.3971(4) -0.5880(2) 1.5895(2)
H39 H 1.4403(4) -0.5704(2) 1.5721(2)
C81 C 1.3193(4) -0.5733(2) 1.5733(2)
H40 H 1.3111(4) -0.5465(2) 1.5450(2)
C82 C 1.3602(4) -0.6997(2) 1.7029(2)
C83 C 1.1824(3) -0.3229(2) 1.5312(2)
C84 C 1.1957(3) -0.2998(2) 1.4809(2)
H41 H 1.2252(3) -0.3200(2) 1.4594(2)
C85 C 1.1638(4) -0.2453(2) 1.4629(2)
C86 C 1.1221(4) -0.2161(2) 1.4962(3)
H42 H 1.1027(4) -0.1799(2) 1.4848(3)
C87 C 1.1083(4) -0.2391(3) 1.5460(3)
H43 H 1.0787(4) -0.2190(3) 1.5674(3)
C88 C 1.1393(4) -0.2925(2) 1.5638(3)
H44 H 1.1313(4) -0.3081(2) 1.5973(3)
C89 C 1.1780(4) -0.2195(2) 1.4085(3)
C90 C 0.9247(3) -0.3533(2) 1.5230(2)
C91 C 0.9371(3) -0.2655(2) 1.4686(2)
C92 C 0.9415(3) -0.3219(2) 1.4763(2)
H45 H 0.9559(3) -0.3382(2) 1.4497(2)
C93 C 0.9138(4) -0.2421(2) 1.5100(2)
H46 H 0.9113(4) -0.2050(2) 1.5059(2)
C94 C 0.8948(4) -0.2735(2) 1.5562(3)
H47 H 0.8781(4) -0.2574(2) 1.5828(3)
C95 C 0.9005(4) -0.3298(2) 1.5633(2)
H48 H 0.8883(4) -0.3511(2) 1.5945(2)
C96 C 0.9604(4) -0.2319(2) 1.4183(2)
C97 C 0.9066(3) -0.9846(2) 1.9343(2)
C98 C 0.9694(3) -1.0692(2) 1.9436(2)
C99 C 0.8335(3) -1.0542(2) 1.9565(2)
C100 C 1.0074(3) -0.9019(2) 1.9010(2)
C101 C 1.0221(3) -0.8630(2) 1.8584(2)
H49 H 0.9792(3) -0.8458(2) 1.8402(2)
C102 C 1.1008(3) -0.8493(2) 1.8424(2)
C103 C 1.1659(3) -0.8763(2) 1.8686(2)
H50 H 1.2187(3) -0.8684(2) 1.8574(2)
C104 C 1.1506(4) -0.9154(2) 1.9121(2)
H51 H 1.1936(4) -0.9332(2) 1.9300(2)
C105 C 1.0719(3) -0.9280(2) 1.9288(2)
H52 H 1.0622(3) -0.9533(2) 1.9580(2)
C106 C 1.1165(3) -0.8068(2) 1.7956(2)
C107 C 1.0410(4) -1.1765(2) 1.9644(2)
C108 C 1.0399(4) -1.2003(2) 2.0144(2)
H53 H 1.0456(4) -1.1802(2) 2.0368(2)
C109 C 1.0301(4) -1.2550(2) 2.0305(2)
C110 C 1.0213(5) -1.2848(2) 1.9968(3)
H54 H 1.0161(5) -1.3213(2) 2.0076(3)
C111 C 1.0203(5) -1.2602(3) 1.9469(3)
H55 H 1.0128(5) -1.2800(3) 1.9245(3)
C112 C 1.0305(5) -1.2059(3) 1.9306(3)
H56 H 1.0304(5) -1.1893(3) 1.8973(3)
C113 C 1.0300(4) -1.2817(2) 2.0847(2)
C114 C 0.7618(4) -1.1476(2) 1.9816(2)
C115 C 0.7717(4) -1.1794(2) 2.0287(2)
H57 H 0.7638(4) -1.1633(2) 2.0555(2)
C116 C 0.7935(4) -1.2355(2) 2.0360(2)
C117 C 0.8030(5) -1.2588(2) 1.9945(3)
H58 H 0.8176(5) -1.2958(2) 1.9985(3)
C118 C 0.7909(5) -1.2273(3) 1.9478(3)
H59 H 0.7965(5) -1.2433(3) 1.9210(3)
C119 C 0.7702(4) -1.1712(3) 1.9409(3)
H60 H 0.7622(4) -1.1499(3) 1.9097(3)
C120 C 0.8090(4) -1.2698(2) 2.0863(3)
C121 C 1.3426(3) -0.5740(2) 1.4518(2)
C122 C 1.4661(3) -0.5539(2) 1.4558(2)
C123 C 1.3650(3) -0.4867(2) 1.4353(2)
C124 C 1.3281(3) -0.6830(2) 1.4792(2)
C125 C 1.3199(4) -0.7096(2) 1.5286(2)
H61 H 1.2858(4) -0.6934(2) 1.5514(2)
C126 C 1.3632(4) -0.7612(2) 1.5443(2)
C127 C 1.4154(4) -0.7843(2) 1.5102(2)
H62 H 1.4453(4) -0.8178(2) 1.5206(2)
C128 C 1.4238(4) -0.7582(2) 1.4603(2)
H63 H 1.4585(4) -0.7744(2) 1.4378(2)
C129 C 1.3796(4) -0.7073(2) 1.4443(2)
H64 H 1.3843(4) -0.6898(2) 1.4112(2)
C130 C 1.3521(4) -0.7902(2) 1.5978(2)
C131 C 1.5848(3) -0.6437(2) 1.4742(2)
C132 C 1.5694(3) -0.6731(2) 1.5220(2)
H65 H 1.5487(3) -0.6555(2) 1.5472(2)
C133 C 1.5852(4) -0.7295(2) 1.5323(2)
C134 C 1.6173(4) -0.7552(2) 1.4935(2)
H66 H 1.6293(4) -0.7925(2) 1.5001(2)
C135 C 1.6311(4) -0.7251(2) 1.4455(2)
H67 H 1.6511(4) -0.7425(2) 1.4201(2)
C136 C 1.6148(4) -0.6690(2) 1.4355(2)
H68 H 1.6238(4) -0.6487(2) 1.4035(2)
C137 C 1.5660(4) -0.7609(2) 1.5840(2)
C138 C 1.2390(3) -0.4041(2) 1.3997(2)
C139 C 1.2263(3) -0.3647(2) 1.3562(2)
H69 H 1.2697(3) -0.3484(2) 1.3373(2)
C140 C 1.1470(3) -0.3501(2) 1.3413(2)
C141 C 1.0830(3) -0.3758(2) 1.3695(2)
H70 H 1.0309(3) -0.3670(2) 1.3593(2)
C142 C 1.0963(4) -0.4147(2) 1.4130(2)
H71 H 1.0530(4) -0.4314(2) 1.4316(2)
C143 C 1.1738(3) -0.4285(2) 1.4287(2)
H72 H 1.1823(3) -0.4535(2) 1.4581(2)
C144 C 1.1323(4) -0.3073(2) 1.2945(2)
C145 C 1.6736(3) -1.1834(2) 1.8114(2)
C146 C 1.5499(4) -1.2026(2) 1.8058(2)
C147 C 1.6533(4) -1.2697(2) 1.8222(2)
C148 C 1.6912(3) -1.0744(2) 1.7952(2)
C149 C 1.6926(3) -1.0443(2) 1.7465(2)
H73 H 1.7185(3) -1.0594(2) 1.7206(2)
C150 C 1.6543(3) -0.9913(2) 1.7378(2)
C151 C 1.6152(4) -0.9689(2) 1.7768(2)
H74 H 1.5897(4) -0.9335(2) 1.7706(2)
C152 C 1.6146(4) -0.9995(3) 1.8244(2)
H75 H 1.5880(4) -0.9848(3) 1.8504(2)
C153 C 1.6535(4) -1.0518(3) 1.8336(2)
H76 H 1.6542(4) -1.0719(3) 1.8659(2)
C154 C 1.6543(4) -0.9588(2) 1.6853(2)
C155 C 1.4357(3) -1.1123(2) 1.7916(2)
C156 C 1.4548(3) -1.0780(2) 1.7462(2)
H77 H 1.4764(3) -1.0922(2) 1.7190(2)
C157 C 1.4410(4) -1.0221(2) 1.7417(2)
C158 C 1.4091(4) -1.0012(2) 1.7831(2)
H78 H 1.4002(4) -0.9642(2) 1.7805(2)
C159 C 1.3909(4) -1.0364(2) 1.8281(2)
H79 H 1.3696(4) -1.0225(2) 1.8555(2)
C160 C 1.4039(4) -1.0917(2) 1.8328(2)
H80 H 1.3916(4) -1.1149(2) 1.8630(2)
C161 C 1.4607(4) -0.9842(2) 1.6928(2)
C162 C 1.7865(4) -1.3446(2) 1.8511(2)
C163 C 1.8043(4) -1.3724(2) 1.8986(2)
H81 H 1.7642(4) -1.3884(2) 1.9212(2)
C164 C 1.8836(3) -1.3760(2) 1.9116(2)
C165 C 1.9419(4) -1.3510(2) 1.8781(2)
H82 H 1.9939(4) -1.3523(2) 1.8871(2)
C166 C 1.9234(4) -1.3236(2) 1.8305(2)
H83 H 1.9632(4) -1.3068(2) 1.8082(2)
C167 C 1.8466(4) -1.3212(2) 1.8164(2)
H84 H 1.8351(4) -1.3044(2) 1.7845(2)
C168 C 1.9045(4) -1.4067(2) 1.9625(2)
C169 C 0.7651(3) -1.6739(2) 2.3040(2)
C170 C 0.8998(3) -1.6936(2) 2.3021(2)
C171 C 0.8214(4) -1.7597(2) 2.3177(2)
C172 C 0.7078(3) -1.5642(2) 2.2848(2)
C173 C 0.7419(4) -1.5412(2) 2.2374(2)
H85 H 0.7478(4) -1.5597(2) 2.2122(2)
C174 C 0.7670(3) -1.4898(2) 2.2283(2)
C175 C 0.7576(4) -1.4626(2) 2.2663(2)
H86 H 0.7748(4) -1.4287(2) 2.2606(2)
C176 C 0.7226(4) -1.4860(2) 2.3130(2)
H87 H 0.7159(4) -1.4673(2) 2.3380(2)
C177 C 0.6975(4) -1.5368(2) 2.3227(2)
H88 H 0.6743(4) -1.5522(2) 2.3540(2)
C178 C 0.8041(4) -1.4642(3) 2.1775(2)
C179 C 0.9864(3) -1.6051(2) 2.2849(2)
C180 C 0.9989(4) -1.5744(2) 2.2359(2)
H89 H 1.0066(4) -1.5913(2) 2.2096(2)
C181 C 0.9998(4) -1.5185(2) 2.2273(2)
C182 C 0.9860(5) -1.4940(2) 2.2673(3)
H90 H 0.9853(5) -1.4569(2) 2.2617(3)
C183 C 0.9731(5) -1.5241(3) 2.3156(3)
H91 H 0.9642(5) -1.5070(3) 2.3418(3)
C184 C 0.9738(4) -1.5804(3) 2.3247(2)
H92 H 0.9659(4) -1.6007(3) 2.3568(2)
C185 C 1.0126(4) -1.4854(2) 2.1749(2)
C186 C 0.7179(4) -1.8398(2) 2.3529(2)
C187 C 0.7014(4) -1.8658(2) 2.4021(2)
H93 H 0.7433(4) -1.8766(2) 2.4224(2)
C188 C 0.6214(4) -1.8756(2) 2.4212(2)
C189 C 0.5589(4) -1.8586(2) 2.3903(2)
H94 H 0.5056(4) -1.8644(2) 2.4026(2)
C190 C 0.5766(4) -1.8328(2) 2.3410(2)
H95 H 0.5348(4) -1.8217(2) 2.3206(2)
C191 C 0.6560(4) -1.8236(2) 2.3219(2)
H96 H 0.6675(4) -1.8068(2) 2.2889(2)
C192 C 0.6039(4) -1.9032(2) 2.4751(2)
N1 N 0.6639(3) 0.6642(2) 0.6965(2)
N2 N 0.7475(3) 0.7357(2) 0.6792(2)
N3 N 0.6015(3) 0.7562(2) 0.6851(2)
N4 N 0.6010(3) 0.0934(2) 1.0409(2)
N5 N 0.6636(3) 0.0011(2) 1.0570(2)
N6 N 0.5179(3) 0.0210(2) 1.0622(2)
N7 N 0.7943(3) 0.2278(2) 1.1866(2)
N8 N 0.9042(3) 0.1555(2) 1.2037(2)
N9 N 0.9276(3) 0.2477(2) 1.1911(2)
N10 N 1.1842(3) -0.4836(2) 1.5688(2)
N11 N 1.0811(3) -0.4087(2) 1.5450(2)
N12 N 1.0519(3) -0.4997(2) 1.5563(2)
N13 N 0.9778(3) -1.0164(2) 1.9320(2)
N14 N 0.9000(3) -1.0912(2) 1.9559(2)
N15 N 0.8317(3) -1.0009(2) 1.9467(2)
N16 N 1.4200(3) -0.5931(2) 1.4600(2)
N17 N 1.4439(3) -0.5011(2) 1.4446(2)
N18 N 1.3107(3) -0.5211(2) 1.4383(2)
N19 N 1.5967(3) -1.1641(2) 1.8039(2)
N20 N 1.5746(3) -1.2561(2) 1.8138(2)
N21 N 1.7060(3) -1.2357(2) 1.8217(2)
N22 N 0.8356(3) -1.6545(2) 2.2981(2)
N23 N 0.8970(3) -1.7465(2) 2.3106(2)
N24 N 0.7520(3) -1.7263(2) 2.3147(2)
O1 O 0.8107(3) 0.3753(2) 0.9338(2)
O2 O 0.8489(3) 0.4848(2) 0.9368(2)
O3 O 0.6605(3) 0.5335(2) 0.9191(2)
O4 O 0.6232(3) 0.4254(2) 0.91072(14)
O5 O 0.6690(3) 0.3164(2) 0.8074(2)
O6 O 0.3517(3) 0.2237(2) 0.8161(2)
O7 O 0.5116(3) 0.3552(2) 0.7678(2)
O8 O 0.3368(3) 0.3439(2) 0.8130(2)
O9 O 1.1227(2) -0.7311(2) 1.68333(14)
O10 O 1.3306(3) -0.8565(2) 1.7309(2)
O11 O 1.1755(3) -0.8489(2) 1.6828(2)
O12 O 0.8577(2) -0.7675(2) 1.81536(15)
O13 O 0.8992(4) -0.6406(2) 1.8069(2)
O14 O 1.4882(3) -0.8153(2) 1.6946(2)
O15 O 1.5473(3) -0.9243(2) 1.58976(15)
O16 O 1.8137(2) -0.9840(2) 1.5642(2)
O17 O 1.6402(3) -1.0323(2) 1.5818(2)
O18 O 1.7211(3) -0.8733(2) 1.5683(2)
O19 O 0.3737(3) -0.2772(2) 1.3138(2)
O20 O 0.2602(4) -0.1448(2) 1.3044(2)
O21 O 0.8284(3) 0.8868(2) 0.4373(2)
O22 O 0.7423(3) 0.9946(2) 0.4476(2)
O23 O 0.9118(5) 1.0450(2) 0.4274(2)
O24 O 1.0088(3) 0.9281(2) 0.42582(15)
O25 O 1.0482(9) -0.1775(3) 1.3135(2)
O26 O 0.7453(3) -1.3871(2) 2.0655(2)
O27 O 0.7147(3) -1.4942(2) 2.0536(2)
O28 O 0.8972(4) -1.5455(2) 2.0740(2)
O29 O 0.9409(3) -1.4296(2) 2.07432(15)
O30 O 1.0856(5) -0.6768(3) 1.8139(3)
O31 O 0.5657(3) 0.43352(15) 0.8096(2)
O32 O 0.5592(3) 0.5045(2) 0.8438(2)
O33 O 0.7647(3) 0.4825(2) 0.8501(2)
O34 O 0.7447(3) 0.4106(2) 0.8238(2)
O35 O 0.8781(3) 0.9385(2) 0.51259(15)
O36 O 1.0062(2) 0.8989(2) 0.5234(2)
O37 O 0.5257(3) 0.3355(2) 0.8875(2)
O38 O 0.4708(3) 0.2666(2) 0.8737(2)
O39 O 0.7093(3) 0.31409(14) 0.91070(14)
O40 O 0.7235(2) 0.23790(15) 0.88370(14)
O41 O 0.4437(3) -0.2327(2) 1.2207(2)
O42 O 0.3106(3) -0.2012(2) 1.22487(15)
O43 O 0.6942(3) 0.4313(2) 1.00409(14)
O44 O 0.5757(3) 0.3991(2) 1.0060(2)
O45 O 0.8743(4) -0.0072(2) 1.3579(2)
O46 O 0.9370(4) -0.0814(2) 1.3320(2)
O47 O 1.1157(3) -0.0671(2) 1.3283(2)
O48 O 1.0818(3) 0.0063(2) 1.3598(2)
O49 O 1.4235(3) -0.7018(2) 1.7236(2)
O50 O 1.3070(3) -0.7331(2) 1.7202(2)
O51 O 1.2173(3) -0.2477(2) 1.3800(2)
O52 O 1.1514(3) -0.1699(2) 1.3944(2)
O53 O 0.9636(3) -0.1818(2) 1.4159(2)
O54 O 0.9784(3) -0.2540(2) 1.3822(2)
O55 O 1.1880(2) -0.8068(2) 1.77463(15)
O56 O 1.0563(2) -0.77269(15) 1.77880(14)
O57 O 1.0356(3) -1.2545(2) 2.1151(2)
O58 O 1.0255(3) -1.3328(2) 2.0964(2)
O59 O 0.8385(3) -1.3195(2) 2.0881(2)
O60 O 0.7942(3) -1.2489(2) 2.1230(2)
O61 O 1.2961(3) -0.7693(2) 1.6253(2)
O62 O 1.3971(3) -0.8353(2) 1.6123(2)
O63 O 1.5799(3) -0.81251(15) 1.5913(2)
O64 O 1.5358(3) -0.7363(2) 1.6172(2)
O65 O 1.0701(2) -0.3058(2) 1.27380(14)
O66 O 1.1853(3) -0.2744(2) 1.2776(2)
O67 O 1.6204(3) -0.9099(2) 1.6780(2)
O68 O 1.6883(3) -0.9818(2) 1.6518(2)
O69 O 1.4458(3) -0.93340(15) 1.69049(15)
O70 O 1.4905(3) -1.0041(2) 1.6564(2)
O71 O 1.8534(3) -1.4374(2) 1.98807(15)
O72 O 1.9705(3) -1.4012(2) 1.97685(15)
O73 O 0.8075(3) -1.4906(2) 2.1441(2)
O74 O 0.8285(3) -1.4191(2) 2.1707(2)
O75 O 1.0128(3) -1.4348(2) 2.1691(2)
O76 O 1.0212(3) -1.5083(2) 2.1397(2)
O77 O 0.6651(3) -1.9299(2) 2.4972(2)
O78 O 0.5320(3) -1.8987(2) 2.4948(2)
S1 S 0.50082(9) 0.68397(5) 0.70135(6)
S2 S 0.82721(9) 0.64011(5) 0.69500(6)
S3 S 0.68156(9) 0.84049(6) 0.66439(6)
S4 S 0.43828(9) 0.11815(5) 1.04080(6)
S5 S 0.76470(8) 0.07208(5) 1.03879(5)
S6 S 0.58996(10) -0.08365(5) 1.08495(6)
S7 S 0.82116(9) 0.33249(6) 1.17056(6)
S8 S 0.75298(9) 0.13152(6) 1.20356(6)
S9 S 1.05661(9) 0.17759(5) 1.20466(5)
S10 S 1.15288(9) -0.58658(5) 1.58289(6)
S11 S 1.23055(9) -0.38951(6) 1.55487(6)
S12 S 0.93051(9) -0.42512(5) 1.53275(6)
S13 S 0.90381(9) -0.91363(5) 1.92020(6)
S14 S 1.06513(9) -1.10939(6) 1.94206(6)
S15 S 0.73624(9) -1.07580(6) 1.97180(6)
S16 S 1.27012(9) -0.61859(6) 1.45935(6)
S17 S 1.57172(9) -0.57105(5) 1.46218(6)
S18 S 1.34028(9) -0.41613(5) 1.41716(6)
S19 S 1.74737(9) -1.14027(5) 1.80699(6)
S20 S 1.44609(9) -1.18391(5) 1.79754(6)
S21 S 1.68486(10) -1.34036(6) 1.83486(6)
S22 S 0.67327(9) -1.62929(6) 2.29700(6)
S23 S 0.99947(9) -1.67703(5) 2.29646(5)
S24 S 0.82186(9) -1.83102(6) 2.33075(6)
Mn3A Mn 0.55688(6) -0.28103(4) 1.19928(3)
Mn3_2 Mn 1.44312(6) -0.71897(4) 1.80072(3)
Mn5A Mn 1.04113(6) -1.27996(4) 2.19329(3)
Mn5A_2 Mn 1.04113(6) -0.27996(4) 1.19329(3)
Mn7_2 Mn 0.68471(6) -1.95288(3) 2.57449(3)
Mn8_2 Mn 1.25677(8) -0.22721(4) 1.30272(4)
Mn9_2 Mn 0.87343(6) -0.03582(3) 1.43496(3)
Mn10_2 Mn 1.03890(7) 0.87386(3) 0.36848(3)
Mn11_2 Mn 1.82551(6) -1.46413(3) 2.06623(3)
Mn12A Mn 1.07572(7) -0.62440(4) 1.86990(3)
O24_2 O 1.0088(3) -0.0719(2) 1.42582(15)
O30A O 0.9144(5) -1.3232(3) 2.1861(3)
O41A O 0.5563(3) 0.2327(2) 0.7793(2)
O45_2 O 0.8743(4) 0.9928(2) 0.3579(2)
O49_2 O 0.4235(3) 0.2982(2) 0.7236(2)
O51_2 O 0.2173(3) -0.2477(2) 1.3800(2)
O57A O 0.9644(3) -0.7455(2) 1.8849(2)
O65A O 0.9299(2) -0.6942(2) 1.72620(14)
O66_2 O 0.1853(3) -0.2744(2) 1.2776(2)
O71_2 O 0.8534(3) -1.4374(2) 1.98807(15)
O77_2 O 1.6651(3) -0.9299(2) 1.4972(2)
O79 O 0.2833(4) 0.0902(2) 0.6303(3)
O80 O 0.6134(3) 0.5910(2) 0.1352(2)
O81 O 0.6283(5) -0.0817(4) 0.5089(3)
O82 O 0.6740(4) 0.0200(2) 0.3540(2)
O83 O 0.6158(3) 0.4808(2) 0.1478(2)
O84 O 0.5962(4) 0.5850(3) -0.0088(3)
O85 O 0.9350(5) 0.6334(3) 0.2801(3)
O86 O 0.1427(6) 0.8583(4) 0.2307(6)
O87 O 0.6678(14) 0.6702(8) -0.0209(9)
O88 O 0.7336(13) -0.1688(11) 0.5221(9)
loop_
_geom_bond_atom_site_label_1
_geom_bond_atom_site_label_2
_geom_bond_site_symmetry_1
_geom_bond_site_symmetry_2
Mn1 O1 1_555 1_555
Mn2 O4 1_555 1_555
Mn3 O6 1_555 1_555
Mn4 O9 1_555 1_555
Mn5 O12 1_555 1_555
Mn6 O14 1_555 1_555
Mn7 O15 1_555 1_555
Mn8 O19 1_555 1_555
Mn9 O21 1_555 1_555
Mn10 O25 1_555 1_555
Mn11 O26 1_555 1_555
Mn12 O29 1_555 1_555
C1 N1 1_555 1_555
C2 N1 1_555 1_555
C3 N2 1_555 1_555
C4 C5 1_555 1_555
C5 H1 1_555 1_555
C6 C5 1_555 1_555
C7 C6 1_555 1_555
H2 C7 1_555 1_555
C8 C7 1_555 1_555
H3 C8 1_555 1_555
C9 C4 1_555 1_555
H4 C9 1_555 1_555
C10 C6 1_555 1_555
C11 C12 1_555 1_555
C12 H5 1_555 1_555
C13 C12 1_555 1_555
C14 C13 1_555 1_555
H6 C14 1_555 1_555
C15 C14 1_555 1_555
H7 C15 1_555 1_555
C16 C11 1_555 1_555
H8 C16 1_555 1_555
C17 C13 1_555 1_555
C18 C19 1_555 1_555
C19 H9 1_555 1_555
C20 C19 1_555 1_555
C21 C20 1_555 1_555
H10 C21 1_555 1_555
C22 C21 1_555 1_555
H11 C22 1_555 1_555
C23 C18 1_555 1_555
H12 C23 1_555 1_555
C24 C20 1_555 1_555
C25 N4 1_555 1_555
C26 N4 1_555 1_555
C27 N5 1_555 1_555
C28 C29 1_555 1_555
C29 H13 1_555 1_555
C30 C29 1_555 1_555
C31 C30 1_555 1_555
H14 C31 1_555 1_555
C32 C31 1_555 1_555
H15 C32 1_555 1_555
C33 C28 1_555 1_555
H16 C33 1_555 1_555
C34 C30 1_555 1_555
C35 C36 1_555 1_555
C36 H17 1_555 1_555
C37 C36 1_555 1_555
C38 C37 1_555 1_555
H18 C38 1_555 1_555
C39 C38 1_555 1_555
H19 C39 1_555 1_555
C40 C35 1_555 1_555
H20 C40 1_555 1_555
C41 C37 1_555 1_555
C42 C43 1_555 1_555
C43 H21 1_555 1_555
C44 C43 1_555 1_555
C45 C44 1_555 1_555
H22 C45 1_555 1_555
C46 C45 1_555 1_555
H23 C46 1_555 1_555
C47 C42 1_555 1_555
H24 C47 1_555 1_555
C48 C44 1_555 1_555
C49 N7 1_555 1_555
C50 N7 1_555 1_555
C51 N8 1_555 1_555
C52 C53 1_555 1_555
C53 H25 1_555 1_555
C54 C53 1_555 1_555
C55 C54 1_555 1_555
H26 C55 1_555 1_555
C56 C55 1_555 1_555
H27 C56 1_555 1_555
C57 C52 1_555 1_555
H28 C57 1_555 1_555
C58 C54 1_555 1_555
C59 C60 1_555 1_555
C60 H29 1_555 1_555
C61 C60 1_555 1_555
C62 C61 1_555 1_555
H30 C62 1_555 1_555
C63 C62 1_555 1_555
H31 C63 1_555 1_555
C64 C59 1_555 1_555
H32 C64 1_555 1_555
C65 C61 1_555 1_555
C66 C67 1_555 1_555
C67 H33 1_555 1_555
C68 C67 1_555 1_555
C69 C68 1_555 1_555
H34 C69 1_555 1_555
C70 C69 1_555 1_555
H35 C70 1_555 1_555
C71 C66 1_555 1_555
H36 C71 1_555 1_555
C72 C68 1_555 1_555
C73 N10 1_555 1_555
C74 N10 1_555 1_555
C75 N11 1_555 1_555
C76 C77 1_555 1_555
C77 H37 1_555 1_555
C78 C77 1_555 1_555
C79 C78 1_555 1_555
H38 C79 1_555 1_555
C80 C79 1_555 1_555
H39 C80 1_555 1_555
C81 C76 1_555 1_555
H40 C81 1_555 1_555
C82 C78 1_555 1_555
C83 C84 1_555 1_555
C84 H41 1_555 1_555
C85 C84 1_555 1_555
C86 C85 1_555 1_555
H42 C86 1_555 1_555
C87 C86 1_555 1_555
H43 C87 1_555 1_555
C88 C83 1_555 1_555
H44 C88 1_555 1_555
C89 C85 1_555 1_555
C90 C92 1_555 1_555
C91 C92 1_555 1_555
C92 H45 1_555 1_555
C93 C91 1_555 1_555
H46 C93 1_555 1_555
C94 C93 1_555 1_555
H47 C94 1_555 1_555
C95 C90 1_555 1_555
H48 C95 1_555 1_555
C96 C91 1_555 1_555
C97 N13 1_555 1_555
C98 N13 1_555 1_555
C99 N14 1_555 1_555
C100 C101 1_555 1_555
C101 H49 1_555 1_555
C102 C101 1_555 1_555
C103 C102 1_555 1_555
H50 C103 1_555 1_555
C104 C103 1_555 1_555
H51 C104 1_555 1_555
C105 C100 1_555 1_555
H52 C105 1_555 1_555
C106 C102 1_555 1_555
C107 C108 1_555 1_555
C108 H53 1_555 1_555
C109 C108 1_555 1_555
C110 C109 1_555 1_555
H54 C110 1_555 1_555
C111 C110 1_555 1_555
H55 C111 1_555 1_555
C112 C107 1_555 1_555
H56 C112 1_555 1_555
C113 C109 1_555 1_555
C114 C115 1_555 1_555
C115 H57 1_555 1_555
C116 C115 1_555 1_555
C117 C116 1_555 1_555
H58 C117 1_555 1_555
C118 C117 1_555 1_555
H59 C118 1_555 1_555
C119 C114 1_555 1_555
H60 C119 1_555 1_555
C120 C116 1_555 1_555
C121 N16 1_555 1_555
C122 N16 1_555 1_555
C123 N17 1_555 1_555
C124 C125 1_555 1_555
C125 H61 1_555 1_555
C126 C125 1_555 1_555
C127 C126 1_555 1_555
H62 C127 1_555 1_555
C128 C127 1_555 1_555
H63 C128 1_555 1_555
C129 C124 1_555 1_555
H64 C129 1_555 1_555
C130 C126 1_555 1_555
C131 C132 1_555 1_555
C132 H65 1_555 1_555
C133 C132 1_555 1_555
C134 C133 1_555 1_555
H66 C134 1_555 1_555
C135 C134 1_555 1_555
H67 C135 1_555 1_555
C136 C131 1_555 1_555
H68 C136 1_555 1_555
C137 C133 1_555 1_555
C138 C139 1_555 1_555
C139 H69 1_555 1_555
C140 C139 1_555 1_555
C141 C140 1_555 1_555
H70 C141 1_555 1_555
C142 C141 1_555 1_555
H71 C142 1_555 1_555
C143 C138 1_555 1_555
H72 C143 1_555 1_555
C144 C140 1_555 1_555
C145 N19 1_555 1_555
C146 N19 1_555 1_555
C147 N20 1_555 1_555
C148 C149 1_555 1_555
C149 H73 1_555 1_555
C150 C149 1_555 1_555
C151 C150 1_555 1_555
H74 C151 1_555 1_555
C152 C151 1_555 1_555
H75 C152 1_555 1_555
C153 C148 1_555 1_555
H76 C153 1_555 1_555
C154 C150 1_555 1_555
C155 C156 1_555 1_555
C156 H77 1_555 1_555
C157 C156 1_555 1_555
C158 C157 1_555 1_555
H78 C158 1_555 1_555
C159 C158 1_555 1_555
H79 C159 1_555 1_555
C160 C155 1_555 1_555
H80 C160 1_555 1_555
C161 C157 1_555 1_555
C162 C163 1_555 1_555
C163 H81 1_555 1_555
C164 C163 1_555 1_555
C165 C164 1_555 1_555
H82 C165 1_555 1_555
C166 C165 1_555 1_555
H83 C166 1_555 1_555
C167 C162 1_555 1_555
H84 C167 1_555 1_555
C168 C164 1_555 1_555
C169 N22 1_555 1_555
C170 N22 1_555 1_555
C171 N23 1_555 1_555
C172 C173 1_555 1_555
C173 H85 1_555 1_555
C174 C173 1_555 1_555
C175 C174 1_555 1_555
H86 C175 1_555 1_555
C176 C175 1_555 1_555
H87 C176 1_555 1_555
C177 C172 1_555 1_555
H88 C177 1_555 1_555
C178 C174 1_555 1_555
C179 C180 1_555 1_555
C180 H89 1_555 1_555
C181 C180 1_555 1_555
C182 C181 1_555 1_555
H90 C182 1_555 1_555
C183 C182 1_555 1_555
H91 C183 1_555 1_555
C184 C179 1_555 1_555
H92 C184 1_555 1_555
C185 C181 1_555 1_555
C186 C187 1_555 1_555
C187 H93 1_555 1_555
C188 C187 1_555 1_555
C189 C188 1_555 1_555
H94 C189 1_555 1_555
C190 C189 1_555 1_555
H95 C190 1_555 1_555
C191 C186 1_555 1_555
H96 C191 1_555 1_555
C192 C188 1_555 1_555
N2 C2 1_555 1_555
N3 C1 1_555 1_555
N5 C26 1_555 1_555
N6 C25 1_555 1_555
N8 C50 1_555 1_555
N9 C49 1_555 1_555
N11 C74 1_555 1_555
N12 C73 1_555 1_555
N14 C98 1_555 1_555
N15 C97 1_555 1_555
N17 C122 1_555 1_555
N18 C121 1_555 1_555
N20 C146 1_555 1_555
N21 C145 1_555 1_555
N23 C170 1_555 1_555
N24 C169 1_555 1_555
O2 Mn1 1_555 1_555
O3 Mn1 1_555 1_555
O4 Mn1 1_555 1_555
O5 Mn2 1_555 1_555
O7 Mn3 1_555 1_555
O8 Mn3 1_555 1_555
O10 Mn4 1_555 1_555
O11 Mn4 1_555 1_555
O13 Mn5 1_555 1_555
O15 Mn6 1_555 1_555
O16 Mn7 1_555 1_555
O17 Mn7 1_555 1_555
O18 Mn7 1_555 1_555
O20 Mn8 1_555 1_555
O22 Mn9 1_555 1_555
O23 Mn9 1_555 1_555
O24 Mn9 1_555 1_555
O27 Mn11 1_555 1_555
O28 Mn11 1_555 1_555
O29 Mn11 1_555 1_555
O30 Mn5 1_555 1_555
O31 Mn2 1_555 1_555
O32 C10 1_555 1_555
O33 Mn1 1_555 1_555
O34 Mn2 1_555 1_555
O35 Mn9 1_555 1_555
O36 C24 1_555 1_555
O37 Mn2 1_555 1_555
O38 Mn3 1_555 1_555
O39 Mn2 1_555 1_555
O40 C41 1_555 1_555
O41 C48 1_555 1_555
O42 Mn8 1_555 1_555
O43 Mn1 1_555 1_555
O44 C58 1_555 1_555
O45 C65 1_555 1_555
O46 Mn10 1_555 1_555
O47 Mn10 1_555 1_555
O48 C72 1_555 1_555
O49 C82 1_555 1_555
O50 Mn4 1_555 1_555
O51 C89 1_555 1_555
O52 Mn10 1_555 1_555
O53 Mn10 1_555 1_555
O54 C96 1_555 1_555
O55 Mn4 1_555 1_555
O56 Mn5 1_555 1_555
O57 C113 1_555 1_555
O58 Mn12 1_555 1_555
O59 Mn12 1_555 1_555
O60 C120 1_555 1_555
O61 Mn4 1_555 1_555
O62 Mn6 1_555 1_555
O63 Mn6 1_555 1_555
O64 C137 1_555 1_555
O65 C144 1_555 1_555
O66 C144 1_555 1_555
O67 Mn6 1_555 1_555
O68 Mn7 1_555 1_555
O69 Mn6 1_555 1_555
O70 C161 1_555 1_555
O71 C168 1_555 1_555
O72 C168 1_555 1_555
O73 Mn11 1_555 1_555
O74 Mn12 1_555 1_555
O75 Mn12 1_555 1_555
O76 C185 1_555 1_555
O77 C192 1_555 1_555
O78 C192 1_555 1_555
S1 C1 1_555 1_555
S2 C2 1_555 1_555
S3 C3 1_555 1_555
S4 C25 1_555 1_555
S5 C26 1_555 1_555
S6 C27 1_555 1_555
S7 C49 1_555 1_555
S8 C50 1_555 1_555
S9 C51 1_555 1_555
S10 C73 1_555 1_555
S11 C74 1_555 1_555
S12 C75 1_555 1_555
S13 C97 1_555 1_555
S14 C98 1_555 1_555
S15 C99 1_555 1_555
S16 C121 1_555 1_555
S17 C122 1_555 1_555
S18 C123 1_555 1_555
S19 C145 1_555 1_555
S20 C146 1_555 1_555
S21 C147 1_555 1_555
S22 C169 1_555 1_555
S23 C170 1_555 1_555
S24 C171 1_555 1_555
Mn3A O41 1_555 1_555
Mn3_2 O49 1_555 1_555
Mn5A O57 1_555 1_555
Mn5A_2 O65 1_555 1_555
Mn7_2 O77 1_555 1_555
Mn8_2 O51 1_555 1_555
Mn9_2 O45 1_555 1_555
Mn10_2 O24 1_555 1_555
Mn11_2 O71 1_555 1_555
Mn12A O30 1_555 1_555
O24_2 Mn10 1_555 1_555
O30A Mn12 1_555 1_555
O41A Mn3 1_555 1_555
O45_2 Mn9 1_555 1_555
O49_2 Mn3 1_555 1_555
O51_2 Mn8 1_555 1_555
O57A Mn5 1_555 1_555
O65A Mn5 1_555 1_555
O66_2 Mn8 1_555 1_555
O71_2 Mn11 1_555 1_555
O77_2 Mn7 1_555 1_555
C3 N3 1_555 1_555
C4 S1 1_555 1_555
C8 C9 1_555 1_555
C10 O31 1_555 1_555
C11 S2 1_555 1_555
C15 C16 1_555 1_555
C17 O33 1_555 1_555
C17 O34 1_555 1_555
C18 S3 1_555 1_555
C22 C23 1_555 1_555
C24 O35 1_555 1_555
C27 N6 1_555 1_555
C28 S4 1_555 1_555
C32 C33 1_555 1_555
C34 O37 1_555 1_555
C34 O38 1_555 1_555
C35 S5 1_555 1_555
C39 C40 1_555 1_555
C41 O39 1_555 1_555
C42 S6 1_555 1_555
C46 C47 1_555 1_555
C48 O42 1_555 1_555
C51 N9 1_555 1_555
C52 S7 1_555 1_555
C56 C57 1_555 1_555
C58 O43 1_555 1_555
C59 S8 1_555 1_555
C63 C64 1_555 1_555
C65 O46 1_555 1_555
C66 S9 1_555 1_555
C70 C71 1_555 1_555
C72 O47 1_555 1_555
C75 N12 1_555 1_555
C76 S10 1_555 1_555
C80 C81 1_555 1_555
C82 O50 1_555 1_555
C83 S11 1_555 1_555
C87 C88 1_555 1_555
C89 O52 1_555 1_555
C90 S12 1_555 1_555
C94 C95 1_555 1_555
C96 O53 1_555 1_555
C99 N15 1_555 1_555
C100 S13 1_555 1_555
C104 C105 1_555 1_555
C106 O55 1_555 1_555
C106 O56 1_555 1_555
C107 S14 1_555 1_555
C111 C112 1_555 1_555
C113 O58 1_555 1_555
C114 S15 1_555 1_555
C118 C119 1_555 1_555
C120 O59 1_555 1_555
C123 N18 1_555 1_555
C124 S16 1_555 1_555
C128 C129 1_555 1_555
C130 O61 1_555 1_555
C130 O62 1_555 1_555
C131 S17 1_555 1_555
C135 C136 1_555 1_555
C137 O63 1_555 1_555
C138 S18 1_555 1_555
C142 C143 1_555 1_555
C147 N21 1_555 1_555
C148 S19 1_555 1_555
C152 C153 1_555 1_555
C154 O67 1_555 1_555
C154 O68 1_555 1_555
C155 S20 1_555 1_555
C159 C160 1_555 1_555
C161 O69 1_555 1_555
C162 S21 1_555 1_555
C166 C167 1_555 1_555
C171 N24 1_555 1_555
C172 S22 1_555 1_555
C176 C177 1_555 1_555
C178 O73 1_555 1_555
C178 O74 1_555 1_555
C179 S23 1_555 1_555
C183 C184 1_555 1_555
C185 O75 1_555 1_555
C186 S24 1_555 1_555
C190 C191 1_555 1_555
O66 Mn8_2 1_555 1_555
Mn5A O30A 1_555 1_555
Mn9_2 O24_2 1_555 1_555

#END
