
#######################################################################
#
#                 Cambridge Crystallographic Data Centre
#                                CCDC 
#
#######################################################################
#
# If this CIF has been generated from an entry in the Cambridge 
# Structural Database, then it will include bibliographic, chemical, 
# crystal, experimental, refinement or atomic coordinate data resulting 
# from the CCDC's data processing and validation procedures.
#
#######################################################################

data_HAWGOD
_symmetry_cell_setting           monoclinic
_symmetry_space_group_name_H-M   'C 2/c'
_symmetry_Int_Tables_number      15
_space_group_name_Hall           '-C 2yn'
loop_
_symmetry_equiv_pos_site_id
_symmetry_equiv_pos_as_xyz
1 x,y,z
2 -x,y,1/2-z
3 1/2+x,1/2+y,z
4 1/2-x,1/2+y,1/2-z
5 -x,-y,-z
6 x,-y,1/2+z
7 1/2-x,1/2-y,-z
8 1/2+x,1/2-y,1/2+z
_cell_length_a                   49.476(18)
_cell_length_b                   6.715(2)
_cell_length_c                   15.107(5)
_cell_angle_alpha                90
_cell_angle_beta                 92.809(5)
_cell_angle_gamma                90
_cell_volume                     5012.99
loop_
_atom_site_label
_atom_site_type_symbol
_atom_site_fract_x
_atom_site_fract_y
_atom_site_fract_z
Mn1 Mn 0.250784(8) 0.73298(6) 0.38496(2)
C1 C 0.09976(5) 0.1853(4) 0.48357(17)
C2 C 0.10284(5) 0.1407(4) 0.33860(17)
C3 C 0.07455(5) -0.0469(4) 0.41364(18)
C4 C 0.13492(5) 0.4723(4) 0.54859(16)
C5 C 0.16140(5) 0.4160(4) 0.53465(17)
H1 H 0.1663 0.2823 0.5377
C6 C 0.18058(5) 0.5589(4) 0.51612(16)
C7 C 0.17326(5) 0.7592(4) 0.51348(18)
H2 H 0.1862 0.8563 0.5035
C8 C 0.14669(6) 0.8134(4) 0.5258(2)
H3 H 0.1418 0.9470 0.5233
C9 C 0.12736(5) 0.6707(4) 0.54189(17)
H4 H 0.1094 0.7076 0.5481
C10 C 0.20889(5) 0.4993(4) 0.49664(16)
C11 C 0.13903(5) 0.3899(4) 0.26376(17)
C12 C 0.16623(5) 0.3613(4) 0.24868(16)
H5 H 0.1723 0.2380 0.2298
C13 C 0.18436(5) 0.5184(4) 0.26195(16)
C14 C 0.17528(6) 0.7014(4) 0.29098(18)
H6 H 0.1874 0.8060 0.3007
C15 C 0.14797(6) 0.7277(4) 0.30551(19)
H7 H 0.1419 0.8500 0.3254
C16 C 0.12986(5) 0.5741(4) 0.29063(18)
H8 H 0.1115 0.5940 0.2986
C17 C 0.21326(5) 0.4913(4) 0.24018(16)
C18 C 0.04519(6) -0.3281(4) 0.31475(19)
C19 C 0.03502(6) -0.2085(4) 0.24675(19)
H9 H 0.0314 -0.0751 0.2576
C20 C 0.03012(6) -0.2861(5) 0.1620(2)
C21 C 0.03512(7) -0.4873(5) 0.1474(2)
H10 H 0.0320 -0.5405 0.0910
C22 C 0.04461(8) -0.6076(5) 0.2153(3)
H11 H 0.0476 -0.7422 0.2051
C23 C 0.04966(7) -0.5283(5) 0.2990(2)
H12 H 0.0561 -0.6100 0.3450
C24 C 0.01865(6) -0.1575(5) 0.0903(2)
N1 N 0.11145(4) 0.2415(3) 0.41013(14)
N2 N 0.08457(4) -0.0078(3) 0.33564(15)
N3 N 0.08094(4) 0.0451(3) 0.49064(15)
O1 O 0.22648(4) 0.6425(3) 0.49211(11)
O2 O 0.27216(6) 0.4464(3) 0.38189(18)
H13 H 0.2752(9) 0.372(7) 0.424(3)
H14 H 0.2715(8) 0.388(6) 0.338(3)
O3 O 0.21452(4) 0.3223(3) 0.48568(13)
O4 O 0.22996(5) 1.0238(3) 0.36366(16)
H15 H 0.2261(7) 1.107(6) 0.399(3)
H16 H 0.2366(7) 1.070(5) 0.321(3)
O5 O 0.23018(4) 0.6272(3) 0.26211(12)
O6 O 0.21918(4) 0.3384(3) 0.19834(13)
O7 O 0.01196(5) 0.0173(3) 0.10641(15)
O8 O 0.01567(5) -0.2379(3) 0.01312(14)
H17 H 0.0070 -0.1626 -0.0203
S1 S 0.110305(14) 0.29805(12) 0.58389(5)
S2 S 0.115823(15) 0.19398(12) 0.23628(4)
S3 S 0.050833(15) -0.23838(12) 0.42457(5)
Mn1F Mn 0.249216(8) 0.76702(6) 0.61504(2)
Mn1C Mn 0.249216(8) 0.23298(6) 0.11504(2)
O1F O 0.27352(4) 0.8575(3) 0.50789(11)
O6C O 0.28082(4) 0.8384(3) 0.30166(13)
loop_
_geom_bond_atom_site_label_1
_geom_bond_atom_site_label_2
_geom_bond_site_symmetry_1
_geom_bond_site_symmetry_2
Mn1 O1 1_555 1_555
C1 N1 1_555 1_555
C2 N1 1_555 1_555
C3 N2 1_555 1_555
C4 C5 1_555 1_555
C5 H1 1_555 1_555
C6 C5 1_555 1_555
C7 C6 1_555 1_555
H2 C7 1_555 1_555
C8 C7 1_555 1_555
H3 C8 1_555 1_555
C9 C4 1_555 1_555
H4 C9 1_555 1_555
C10 C6 1_555 1_555
C11 C12 1_555 1_555
C12 H5 1_555 1_555
C13 C12 1_555 1_555
C14 C13 1_555 1_555
H6 C14 1_555 1_555
C15 C14 1_555 1_555
H7 C15 1_555 1_555
C16 C11 1_555 1_555
H8 C16 1_555 1_555
C17 C13 1_555 1_555
C18 C19 1_555 1_555
C19 H9 1_555 1_555
C20 C19 1_555 1_555
C21 C20 1_555 1_555
H10 C21 1_555 1_555
C22 C21 1_555 1_555
H11 C22 1_555 1_555
C23 C18 1_555 1_555
H12 C23 1_555 1_555
C24 C20 1_555 1_555
N2 C2 1_555 1_555
N3 C1 1_555 1_555
O1 C10 1_555 1_555
O2 Mn1 1_555 1_555
H13 O2 1_555 1_555
H14 O2 1_555 1_555
O3 C10 1_555 1_555
O4 Mn1 1_555 1_555
H15 O4 1_555 1_555
H16 O4 1_555 1_555
O5 Mn1 1_555 1_555
O6 C17 1_555 1_555
O7 C24 1_555 1_555
O8 C24 1_555 1_555
H17 O8 1_555 1_555
S1 C1 1_555 1_555
S2 C2 1_555 1_555
S3 C3 1_555 1_555
Mn1F O1 1_555 1_555
Mn1C O6 1_555 1_555
O1F Mn1 1_555 1_555
O6C Mn1 1_555 1_555
C3 N3 1_555 1_555
C4 S1 1_555 1_555
C8 C9 1_555 1_555
C11 S2 1_555 1_555
C15 C16 1_555 1_555
C17 O5 1_555 1_555
C18 S3 1_555 1_555
C22 C23 1_555 1_555
Mn1F O1F 1_555 1_555

#END
