
#######################################################################
#
#                 Cambridge Crystallographic Data Centre
#                                CCDC 
#
#######################################################################
#
# If this CIF has been generated from an entry in the Cambridge 
# Structural Database, then it will include bibliographic, chemical, 
# crystal, experimental, refinement or atomic coordinate data resulting 
# from the CCDC's data processing and validation procedures.
#
#######################################################################

data_HAWJEW
_symmetry_cell_setting           triclinic
_symmetry_space_group_name_H-M   'P -1'
_symmetry_Int_Tables_number      2
_space_group_name_Hall           '-P 1'
loop_
_symmetry_equiv_pos_site_id
_symmetry_equiv_pos_as_xyz
1 x,y,z
2 -x,-y,-z
_cell_length_a                   6.7010(10)
_cell_length_b                   8.284(2)
_cell_length_c                   10.448(2)
_cell_angle_alpha                78.23(3)
_cell_angle_beta                 71.53(3)
_cell_angle_gamma                84.93(3)
_cell_volume                     538.362
loop_
_atom_site_label
_atom_site_type_symbol
_atom_site_fract_x
_atom_site_fract_y
_atom_site_fract_z
La1 La 0.22898(2) 0.342383(16) 0.318347(13)
O1 O 0.2463(3) 0.2434(3) 0.5625(2)
O2 O 0.0559(3) 0.4504(3) 0.6523(2)
O3 O 0.0427(3) 0.2887(2) 1.1560(2)
O4 O 0.2365(3) 0.0279(2) 0.3643(2)
O5 O 0.1120(3) -0.1992(2) 0.5188(2)
O6 O 0.5040(3) 0.2982(2) 0.0914(2)
O7 O 0.6539(4) 0.3995(3) -0.1308(2)
O8 O 0.6103(3) 0.2619(3) 0.3224(2)
H1 H 0.7471 0.2754 0.2620
H2 H 0.6381 0.2444 0.3893
O9 O 0.3881(3) 0.5714(3) 0.3931(2)
H3 H 0.3178 0.6422 0.4295
H4 H 0.4657 0.6240 0.3317
N1 N 0.2889(4) 0.0017(3) 0.9338(3)
H5 H 0.3650 -0.0990 0.9315
C1 C 0.1573(4) 0.3164(3) 0.6613(3)
C2 C 0.1781(4) 0.2341(3) 0.7997(3)
C3 C 0.2781(5) 0.0805(4) 0.8098(3)
H6 H 0.3542 0.0200 0.7424
C4 C 0.2099(4) 0.0655(4) 1.0487(3)
H7 H 0.1997 -0.0014 1.1364
C5 C 0.1128(4) 0.2236(3) 1.0456(3)
C6 C 0.0985(4) 0.3064(3) 0.9160(3)
H8 H 0.0166 0.4117 0.9122
C7 C 0.1011(4) -0.0488(3) 0.4653(3)
C8 C 0.5462(4) 0.4132(3) -0.0122(3)
La1A La -0.22898(2) -0.342383(16) 0.681653(13)
La1_2 La 0.22898(2) -0.657617(16) 0.318347(13)
La1_3 La 0.22898(2) 0.342383(16) 1.318347(13)
La1A_2 La -0.22898(2) -0.342383(16) -0.318347(13)
La1A_3 La -0.22898(2) 0.657617(16) 0.681653(13)
La1A_4 La 0.77102(2) 0.657617(16) -0.318347(13)
O1A O -0.2463(3) -0.2434(3) 0.4375(2)
O2A O -0.0559(3) -0.4504(3) 0.3477(2)
O2_2 O 0.0559(3) -0.5496(3) 0.6523(2)
O2A_2 O -0.0559(3) 0.5496(3) 0.3477(2)
O3A O -0.0427(3) -0.2887(2) -0.1560(2)
O3_2 O 0.0427(3) 0.2887(2) 0.1560(2)
O3A_2 O -0.0427(3) -0.2887(2) 0.8440(2)
O4A O -0.2365(3) -0.0279(2) 0.6357(2)
O5A O -0.1120(3) 0.1992(2) 0.4812(2)
O6A O 0.4960(3) 0.7018(2) -0.0914(2)
O6A_2 O -0.5040(3) -0.2982(2) 0.9086(2)
O7A O 0.3461(4) 0.6005(3) 0.1308(2)
O7_2 O -0.3461(4) -0.6005(3) 0.8692(2)
O8A O -0.6103(3) -0.2619(3) 0.6776(2)
H1A H -0.7471 -0.2754 0.7380
H2A H -0.6381 -0.2444 0.6107
O9A O -0.3881(3) -0.5714(3) 0.6069(2)
H3A H -0.3178 -0.6422 0.5705
H4A H -0.4657 -0.6240 0.6683
N1A N -0.2889(4) -0.0017(3) 0.0662(3)
H5A H -0.3650 0.0990 0.0685
C1A C -0.1573(4) -0.3164(3) 0.3387(3)
C2A C -0.1781(4) -0.2341(3) 0.2003(3)
C3A C -0.2781(5) -0.0805(4) 0.1902(3)
H6A H -0.3542 -0.0200 0.2576
C4A C -0.2099(4) -0.0655(4) -0.0487(3)
H7A H -0.1997 0.0014 -0.1364
C5A C -0.1128(4) -0.2236(3) -0.0456(3)
C6A C -0.0985(4) -0.3064(3) 0.0840(3)
H8A H -0.0166 -0.4117 0.0878
C7A C -0.1011(4) 0.0488(3) 0.5347(3)
C8A C 0.4538(4) 0.5868(3) 0.0122(3)
loop_
_geom_bond_atom_site_label_1
_geom_bond_atom_site_label_2
_geom_bond_site_symmetry_1
_geom_bond_site_symmetry_2
La1 O1 1_555 1_555
O1 C1 1_555 1_555
O2 C1 1_555 1_555
O3 C5 1_555 1_555
O4 La1 1_555 1_555
O5 C7 1_555 1_555
O6 La1 1_555 1_555
O7 C8 1_555 1_555
O8 La1 1_555 1_555
H1 O8 1_555 1_555
H2 O8 1_555 1_555
O9 La1 1_555 1_555
H3 O9 1_555 1_555
H4 O9 1_555 1_555
N1 H5 1_555 1_555
C1 C2 1_555 1_555
C2 C3 1_555 1_555
C3 N1 1_555 1_555
H6 C3 1_555 1_555
C4 N1 1_555 1_555
H7 C4 1_555 1_555
C5 C4 1_555 1_555
C6 C2 1_555 1_555
H8 C6 1_555 1_555
C7 O4 1_555 1_555
C8 O6 1_555 1_555
La1A O5 1_555 1_555
La1_2 O2A 1_555 1_555
La1_3 O3 1_555 1_555
La1A_2 O3A 1_555 1_555
La1A_3 O2 1_555 1_555
La1A_4 O7 1_555 1_555
O1A La1A 1_555 1_555
O2A C1A 1_555 1_555
O2_2 La1A 1_555 1_555
O2A_2 La1 1_555 1_555
O3A C5A 1_555 1_555
O3_2 La1 1_555 1_555
O3A_2 La1A 1_555 1_555
O4A La1A 1_555 1_555
O5A La1 1_555 1_555
O6A La1A_4 1_555 1_555
O6A_2 La1A 1_555 1_555
O7A La1 1_555 1_555
O7_2 La1A 1_555 1_555
O8A La1A 1_555 1_555
H1A O8A 1_555 1_555
H2A O8A 1_555 1_555
O9A La1A 1_555 1_555
H3A O9A 1_555 1_555
H4A O9A 1_555 1_555
N1A H5A 1_555 1_555
C1A O1A 1_555 1_555
C2A C1A 1_555 1_555
C3A N1A 1_555 1_555
H6A C3A 1_555 1_555
C4A N1A 1_555 1_555
H7A C4A 1_555 1_555
C5A C4A 1_555 1_555
C6A C2A 1_555 1_555
H8A C6A 1_555 1_555
C7A C7 1_555 1_555
C8A C8 1_555 1_555
C5 C6 1_555 1_555
O4A C7A 1_555 1_555
O5A C7A 1_555 1_555
O6A C8A 1_555 1_555
O7A C8A 1_555 1_555
C2A C3A 1_555 1_555
C5A C6A 1_555 1_555

#END
