
#######################################################################
#
#                 Cambridge Crystallographic Data Centre
#                                CCDC 
#
#######################################################################
#
# If this CIF has been generated from an entry in the Cambridge 
# Structural Database, then it will include bibliographic, chemical, 
# crystal, experimental, refinement or atomic coordinate data resulting 
# from the CCDC's data processing and validation procedures.
#
#######################################################################

data_HAWJUM
_symmetry_cell_setting           triclinic
_symmetry_space_group_name_H-M   'P -1'
_symmetry_Int_Tables_number      2
_space_group_name_Hall           '-P 1'
loop_
_symmetry_equiv_pos_site_id
_symmetry_equiv_pos_as_xyz
1 x,y,z
2 -x,-y,-z
_cell_length_a                   7.6371(13)
_cell_length_b                   8.0963(14)
_cell_length_c                   10.6706(18)
_cell_angle_alpha                103.562(3)
_cell_angle_beta                 98.743(3)
_cell_angle_gamma                92.513(3)
_cell_volume                     631.764
loop_
_atom_site_label
_atom_site_type_symbol
_atom_site_fract_x
_atom_site_fract_y
_atom_site_fract_z
C1 C 0.7312(4) 0.6133(4) 0.5375(3)
C2 C 0.7590(4) 0.7682(4) 0.4852(3)
C3 C 0.7260(4) 0.9289(4) 0.5539(3)
H1 H 0.6893 0.9430 0.6366
C4 C 0.7468(4) 1.0697(4) 0.5014(3)
C5 C 0.7976(4) 1.0439(4) 0.3783(3)
H2 H 0.8094 1.1366 0.3388
C6 C 0.8144(4) 0.7507(4) 0.3648(3)
H3 H 0.8410 0.6425 0.3174
C7 C 0.5246(4) 1.0476(4) 0.9484(3)
C8 C 1.0522(4) 0.5035(4) 0.9428(3)
C9 C 0.9864(4) 0.9966(4) 1.0694(3)
H4 H 0.858(4) 0.880(4) 0.249(3)
H5 H 0.318(6) 0.614(5) 0.842(4)
H6 H 0.342(5) 0.616(5) 0.718(4)
H7 H 0.545(8) 0.304(8) 0.854(6)
H8 H 0.615(6) 0.320(5) 0.731(4)
N1 N 0.8295(3) 0.8869(3) 0.3168(3)
O1 O 0.6773(3) 0.6346(3) 0.6445(2)
O2 O 0.7628(3) 0.4726(3) 0.4685(2)
O3 O 0.7184(4) 1.2242(3) 0.5720(2)
H9 H 0.7347 1.2978 0.5301
O4 O 0.6116(3) 0.9718(3) 0.8662(2)
O5 O 0.4721(3) 1.1944(3) 0.9563(2)
O6 O 0.9699(3) 0.5451(3) 0.8463(2)
O7 O 1.2113(3) 0.4683(3) 0.9568(2)
O8 O 0.8925(3) 0.8664(3) 1.0751(2)
O9 O 1.0549(3) 1.1146(3) 1.1631(2)
O10 O 0.3708(3) 0.6653(3) 0.7926(2)
O11 O 0.5845(3) 0.3824(3) 0.7934(2)
Sm1 Sm 0.70169(2) 0.687246(19) 0.872978(14)
C1A C 0.2688(4) 1.3867(4) 1.4625(3)
C2A C 0.2410(4) 1.2318(4) 1.5148(3)
C3A C 0.2740(4) 1.0711(4) 1.4461(3)
H1A H 0.3107 1.0570 1.3634
C4A C 0.2532(4) 0.9303(4) 1.4986(3)
C5A C 0.2024(4) 0.9561(4) 1.6217(3)
H2A H 0.1906 0.8634 1.6612
C6A C 0.1856(4) 1.2493(4) 1.6352(3)
H3A H 0.1590 1.3575 1.6826
C7A C 0.4754(4) 0.9524(4) 1.0516(3)
C8A C 0.9478(4) 0.4965(4) 1.0572(3)
C9A C 1.0136(4) 1.0034(4) 0.9306(3)
H4A H 0.142(4) 1.120(4) 1.751(3)
H5A H 0.682(6) 1.386(5) 1.158(4)
H6A H 0.658(5) 1.384(5) 1.282(4)
H7A H 0.455(8) 1.696(8) 1.146(6)
H8A H 0.385(6) 1.680(5) 1.269(4)
N1A N 0.1705(3) 1.1131(3) 1.6832(3)
O1A O 0.3227(3) 1.3654(3) 1.3555(2)
O2A O 0.2372(3) 1.5274(3) 1.5315(2)
O3A O 0.2816(4) 0.7758(3) 1.4280(2)
H9A H 0.2653 0.7022 1.4699
O4A O 0.3884(3) 1.0282(3) 1.1338(2)
O5A O 0.5279(3) 0.8056(3) 1.0437(2)
O6A O 1.0301(3) 0.4549(3) 1.1537(2)
O6A_2 O 0.0301(3) 1.4549(3) 1.1537(2)
O7A O 0.7887(3) 0.5317(3) 1.0432(2)
O7_2 O 0.2113(3) 1.4683(3) 0.9568(2)
O8A O 1.1075(3) 1.1336(3) 0.9249(2)
O8A_2 O 0.1075(3) 1.1336(3) 0.9249(2)
O9A O 0.9451(3) 0.8854(3) 0.8369(2)
O9_2 O 0.0549(3) 1.1146(3) 1.1631(2)
O10A O 0.6292(3) 1.3347(3) 1.2074(2)
O11A O 0.4155(3) 1.6176(3) 1.2066(2)
Sm1A Sm 0.29831(2) 1.312754(19) 1.127022(14)
Sm1A_2 Sm 1.29831(2) 0.312754(19) 1.127022(14)
Sm1A_3 Sm 1.29831(2) 1.312754(19) 1.127022(14)
loop_
_geom_bond_atom_site_label_1
_geom_bond_atom_site_label_2
_geom_bond_site_symmetry_1
_geom_bond_site_symmetry_2
C1 C2 1_555 1_555
C2 C3 1_555 1_555
C3 H1 1_555 1_555
C4 C3 1_555 1_555
C5 C4 1_555 1_555
H2 C5 1_555 1_555
C6 C2 1_555 1_555
H3 C6 1_555 1_555
C7 O4 1_555 1_555
C8 O6 1_555 1_555
C9 O8 1_555 1_555
H4 N1 1_555 1_555
H5 O10 1_555 1_555
H6 O10 1_555 1_555
H7 O11 1_555 1_555
H8 O11 1_555 1_555
N1 C5 1_555 1_555
O1 C1 1_555 1_555
O2 C1 1_555 1_555
O3 C4 1_555 1_555
H9 O3 1_555 1_555
O4 Sm1 1_555 1_555
O5 C7 1_555 1_555
O6 Sm1 1_555 1_555
O7 C8 1_555 1_555
O8 Sm1 1_555 1_555
O9 C9 1_555 1_555
O10 Sm1 1_555 1_555
O11 Sm1 1_555 1_555
Sm1 O1 1_555 1_555
C1A C2A 1_555 1_555
C2A C3A 1_555 1_555
C3A H1A 1_555 1_555
C4A C3A 1_555 1_555
C5A C4A 1_555 1_555
H2A C5A 1_555 1_555
C6A C2A 1_555 1_555
H3A C6A 1_555 1_555
C7A C7 1_555 1_555
C8A C8 1_555 1_555
C9A C9 1_555 1_555
H4A N1A 1_555 1_555
H5A O10A 1_555 1_555
H6A O10A 1_555 1_555
H7A O11A 1_555 1_555
H8A O11A 1_555 1_555
N1A C5A 1_555 1_555
O1A C1A 1_555 1_555
O2A C1A 1_555 1_555
O3A C4A 1_555 1_555
H9A O3A 1_555 1_555
O4A C7A 1_555 1_555
O5A Sm1 1_555 1_555
O6A C8A 1_555 1_555
O6A_2 Sm1A 1_555 1_555
O7A Sm1 1_555 1_555
O7_2 Sm1A 1_555 1_555
O8A C9A 1_555 1_555
O8A_2 Sm1A 1_555 1_555
O9A Sm1 1_555 1_555
O9_2 Sm1A 1_555 1_555
O10A Sm1A 1_555 1_555
O11A Sm1A 1_555 1_555
Sm1A O5 1_555 1_555
Sm1A_2 O7 1_555 1_555
Sm1A_3 O9 1_555 1_555
C6 N1 1_555 1_555
C6A N1A 1_555 1_555
C7A O5A 1_555 1_555
C8A O7A 1_555 1_555
C9A O9A 1_555 1_555
O1A Sm1A 1_555 1_555
O4A Sm1A 1_555 1_555
O6A Sm1A_2 1_555 1_555
O8A Sm1A_3 1_555 1_555

#END
