
#######################################################################
#
#                 Cambridge Crystallographic Data Centre
#                                CCDC 
#
#######################################################################
#
# If this CIF has been generated from an entry in the Cambridge 
# Structural Database, then it will include bibliographic, chemical, 
# crystal, experimental, refinement or atomic coordinate data resulting 
# from the CCDC's data processing and validation procedures.
#
#######################################################################

data_HAWJIA
_symmetry_cell_setting           triclinic
_symmetry_space_group_name_H-M   'P -1'
_symmetry_Int_Tables_number      2
_space_group_name_Hall           '-P 1'
loop_
_symmetry_equiv_pos_site_id
_symmetry_equiv_pos_as_xyz
1 x,y,z
2 -x,-y,-z
_cell_length_a                   6.6640(10)
_cell_length_b                   8.229(2)
_cell_length_c                   10.384(2)
_cell_angle_alpha                78.06(3)
_cell_angle_beta                 71.43(3)
_cell_angle_gamma                85.47(3)
_cell_volume                     528.06
loop_
_atom_site_label
_atom_site_type_symbol
_atom_site_fract_x
_atom_site_fract_y
_atom_site_fract_z
N1 N 0.2894(3) 0.0034(2) 0.9321(2)
H1 H 0.3434 -0.1054 0.9357
Pr1 Pr 0.229224(19) 0.341541(14) 0.317527(12)
O1 O 0.2412(3) 0.2487(2) 0.56078(17)
O2 O 0.0526(3) 0.4555(2) 0.65254(17)
O3 O 0.0451(3) 0.2881(2) 1.15831(17)
O4 O -0.2389(3) -0.0300(2) 0.63540(17)
O5 O -0.1110(3) 0.1995(2) 0.47997(17)
O6 O 0.5040(3) 0.2973(2) 0.09319(17)
O7 O 0.6561(3) 0.4008(2) -0.13081(17)
O8 O 0.6052(3) 0.2631(2) 0.32460(19)
H2 H 0.7284 0.2720 0.2578
H3 H 0.6287 0.2395 0.3997
O9 O 0.3859(3) 0.5711(2) 0.39084(18)
H4 H 0.2861 0.6422 0.4236
H5 H 0.4480 0.5557 0.4524
C1 C 0.1545(4) 0.3207(3) 0.6603(2)
C2 C 0.1766(4) 0.2367(3) 0.7990(2)
C3 C 0.2777(4) 0.0821(3) 0.8078(2)
H6 H 0.3381 0.0217 0.7358
C4 C 0.2120(4) 0.0659(3) 1.0481(2)
H7 H 0.2179 0.0069 1.1378
C5 C 0.1144(4) 0.2243(3) 1.0461(2)
C6 C 0.0985(4) 0.3072(3) 0.9162(2)
H8 H 0.0356 0.4069 0.9203
C7 C -0.1020(4) 0.0483(3) 0.5339(2)
C8 C 0.5468(4) 0.4132(3) -0.0122(2)
N1A N -0.2894(3) -0.0034(2) 0.0679(2)
H1A H -0.3434 0.1054 0.0643
Pr1A Pr -0.229224(19) -0.341541(14) 0.682473(12)
Pr1_2 Pr 0.229224(19) -0.658459(14) 0.317527(12)
Pr1_3 Pr 0.229224(19) 0.341541(14) 1.317527(12)
Pr1A_2 Pr -0.229224(19) -0.341541(14) -0.317527(12)
Pr1A_3 Pr -0.229224(19) 0.658459(14) 0.682473(12)
Pr1A_4 Pr 0.770776(19) 0.658459(14) -0.317527(12)
O1A O -0.2412(3) -0.2487(2) 0.43922(17)
O2A O -0.0526(3) -0.4555(2) 0.34746(17)
O2_2 O 0.0526(3) -0.5445(2) 0.65254(17)
O2A_2 O -0.0526(3) 0.5445(2) 0.34746(17)
O3A O -0.0451(3) -0.2881(2) -0.15831(17)
O3_2 O 0.0451(3) 0.2881(2) 0.15831(17)
O3A_2 O -0.0451(3) -0.2881(2) 0.84169(17)
O4A O 0.2389(3) 0.0300(2) 0.36460(17)
O5A O 0.1110(3) -0.1995(2) 0.52003(17)
O6A O 0.4960(3) 0.7027(2) -0.09319(17)
O6A_2 O -0.5040(3) -0.2973(2) 0.90681(17)
O7A O 0.3439(3) 0.5992(2) 0.13081(17)
O7_2 O -0.3439(3) -0.5992(2) 0.86919(17)
O8A O -0.6052(3) -0.2631(2) 0.67540(19)
H2A H -0.7284 -0.2720 0.7422
H3A H -0.6287 -0.2395 0.6003
O9A O -0.3859(3) -0.5711(2) 0.60916(18)
H4A H -0.2861 -0.6422 0.5764
H5A H -0.4480 -0.5557 0.5476
C1A C -0.1545(4) -0.3207(3) 0.3397(2)
C2A C -0.1766(4) -0.2367(3) 0.2010(2)
C3A C -0.2777(4) -0.0821(3) 0.1922(2)
H6A H -0.3381 -0.0217 0.2642
C4A C -0.2120(4) -0.0659(3) -0.0481(2)
H7A H -0.2179 -0.0069 -0.1378
C5A C -0.1144(4) -0.2243(3) -0.0461(2)
C6A C -0.0985(4) -0.3072(3) 0.0838(2)
H8A H -0.0356 -0.4069 0.0797
C7A C 0.1020(4) -0.0483(3) 0.4661(2)
C8A C 0.4532(4) 0.5868(3) 0.0122(2)
loop_
_geom_bond_atom_site_label_1
_geom_bond_atom_site_label_2
_geom_bond_site_symmetry_1
_geom_bond_site_symmetry_2
N1 H1 1_555 1_555
Pr1 O1 1_555 1_555
O1 C1 1_555 1_555
O2 C1 1_555 1_555
O3 C5 1_555 1_555
O4 C7 1_555 1_555
O5 Pr1 1_555 1_555
O6 Pr1 1_555 1_555
O7 C8 1_555 1_555
O8 Pr1 1_555 1_555
H2 O8 1_555 1_555
H3 O8 1_555 1_555
O9 Pr1 1_555 1_555
H4 O9 1_555 1_555
H5 O9 1_555 1_555
C1 C2 1_555 1_555
C2 C3 1_555 1_555
C3 N1 1_555 1_555
H6 C3 1_555 1_555
C4 N1 1_555 1_555
H7 C4 1_555 1_555
C5 C4 1_555 1_555
C6 C2 1_555 1_555
H8 C6 1_555 1_555
C7 O5 1_555 1_555
C8 O6 1_555 1_555
N1A H1A 1_555 1_555
Pr1A O4 1_555 1_555
Pr1_2 O2A 1_555 1_555
Pr1_3 O3 1_555 1_555
Pr1A_2 O3A 1_555 1_555
Pr1A_3 O2 1_555 1_555
Pr1A_4 O7 1_555 1_555
O1A Pr1A 1_555 1_555
O2A C1A 1_555 1_555
O2_2 Pr1A 1_555 1_555
O2A_2 Pr1 1_555 1_555
O3A C5A 1_555 1_555
O3_2 Pr1 1_555 1_555
O3A_2 Pr1A 1_555 1_555
O4A Pr1 1_555 1_555
O5A Pr1A 1_555 1_555
O6A Pr1A_4 1_555 1_555
O6A_2 Pr1A 1_555 1_555
O7A Pr1 1_555 1_555
O7_2 Pr1A 1_555 1_555
O8A Pr1A 1_555 1_555
H2A O8A 1_555 1_555
H3A O8A 1_555 1_555
O9A Pr1A 1_555 1_555
H4A O9A 1_555 1_555
H5A O9A 1_555 1_555
C1A O1A 1_555 1_555
C2A C1A 1_555 1_555
C3A N1A 1_555 1_555
H6A C3A 1_555 1_555
C4A N1A 1_555 1_555
H7A C4A 1_555 1_555
C5A C4A 1_555 1_555
C6A C2A 1_555 1_555
H8A C6A 1_555 1_555
C7A C7 1_555 1_555
C8A C8 1_555 1_555
C5 C6 1_555 1_555
O4A C7A 1_555 1_555
O5A C7A 1_555 1_555
O6A C8A 1_555 1_555
O7A C8A 1_555 1_555
C2A C3A 1_555 1_555
C5A C6A 1_555 1_555

#END
