
#######################################################################
#
#                 Cambridge Crystallographic Data Centre
#                                CCDC 
#
#######################################################################
#
# If this CIF has been generated from an entry in the Cambridge 
# Structural Database, then it will include bibliographic, chemical, 
# crystal, experimental, refinement or atomic coordinate data resulting 
# from the CCDC's data processing and validation procedures.
#
#######################################################################

data_HAWKOG
_symmetry_cell_setting           monoclinic
_symmetry_space_group_name_H-M   'P 2/c'
_symmetry_Int_Tables_number      13
_space_group_name_Hall           '-P 2yc'
loop_
_symmetry_equiv_pos_site_id
_symmetry_equiv_pos_as_xyz
1 x,y,z
2 -x,y,1/2-z
3 -x,-y,-z
4 x,-y,1/2+z
_cell_length_a                   14.591(3)
_cell_length_b                   9.815(2)
_cell_length_c                   12.922(3)
_cell_angle_alpha                90
_cell_angle_beta                 94.06(3)
_cell_angle_gamma                90
_cell_volume                     1845.92
loop_
_atom_site_label
_atom_site_type_symbol
_atom_site_fract_x
_atom_site_fract_y
_atom_site_fract_z
K1 K 0.5000 0.16085(15) 0.2500
K2 K 0.5000 -0.44106(15) 0.2500
Co1 Co 0.71635(4) -0.34213(6) 0.15599(4)
O1 O 0.6565(2) -0.2681(3) 0.2715(2)
O2 O 0.5919(3) -0.0773(3) 0.3254(3)
O3 O 0.6781(2) -0.5143(3) 0.2049(2)
O4 O 0.6693(2) -0.7342(3) 0.2346(2)
O5 O 0.6038(2) -0.3343(3) 0.0751(2)
O6 O 0.5358(2) -0.3919(4) -0.0782(2)
O7 O 0.8282(2) -0.3620(3) 0.2406(2)
O8 O 0.9312(2) -0.3062(4) 0.3660(2)
N1 N 0.7694(2) -0.4250(4) 0.0349(3)
N2 N 0.7386(3) -0.1484(3) 0.1205(3)
C1 C 0.8386(3) -0.3328(5) -0.0103(4)
H1 H 0.8654 -0.3818 -0.0650
H2 H 0.8868 -0.3155 0.0425
C2 C 0.8035(4) -0.1967(5) -0.0528(4)
H3 H 0.7781 -0.2109 -0.1226
H4 H 0.8556 -0.1375 -0.0563
C3 C 0.7322(4) -0.1214(5) 0.0063(3)
H5 H 0.7379 -0.0250 -0.0045
H6 H 0.6722 -0.1484 -0.0215
C4 C 0.6612(4) -0.0741(5) 0.1648(4)
H7 H 0.6092 -0.0747 0.1150
H8 H 0.6782 0.0190 0.1785
C5 C 0.6344(3) -0.1418(5) 0.2629(4)
C6 C 0.7012(3) -0.6381(5) 0.1871(3)
C7 C 0.7674(4) -0.6669(5) 0.1058(4)
H9 H 0.7325 -0.7062 0.0475
H10 H 0.8097 -0.7354 0.1325
C8 C 0.8214(3) -0.5517(5) 0.0645(4)
H11 H 0.8687 -0.5280 0.1170
H12 H 0.8512 -0.5832 0.0051
C9 C 0.6915(3) -0.4551(5) -0.0433(3)
H13 H 0.6836 -0.5520 -0.0485
H14 H 0.7068 -0.4217 -0.1097
C10 C 0.6029(3) -0.3912(5) -0.0161(3)
C11 C 0.8704(3) -0.2720(5) 0.2981(3)
C12 C 0.8495(4) -0.1252(5) 0.2796(3)
H15 H 0.9013 -0.0719 0.3058
H16 H 0.7978 -0.1001 0.3174
C13 C 0.8283(3) -0.0923(5) 0.1654(3)
H17 H 0.8277 0.0047 0.1562
H18 H 0.8770 -0.1283 0.1272
O10 O 0.4411(4) 0.1558(5) 0.4708(3)
H20 H 0.4643 0.2603 0.4679
H21 H 0.4388 0.1448 0.5359
K1_2 K 0.5000 -0.83915(15) 0.2500
K1C K 0.5000 -0.16085(15) -0.2500
K1C_2 K 0.5000 -0.16085(15) 0.7500
K2_2 K 0.5000 0.55894(15) 0.2500
K2C K 0.5000 -0.55894(15) -0.2500
K2C_2 K 0.5000 -0.55894(15) 0.7500
Co1A Co 0.28365(4) -0.34213(6) 0.34401(4)
O1A O 0.3435(2) -0.2681(3) 0.2285(2)
O2A O 0.4081(3) -0.0773(3) 0.1746(3)
O3A O 0.3219(2) -0.5143(3) 0.2951(2)
O4A O 0.3307(2) -0.7342(3) 0.2654(2)
O4_2 O 0.6693(2) 0.2658(3) 0.2346(2)
O4A_2 O 0.3307(2) 0.2658(3) 0.2654(2)
O5A O 0.3962(2) -0.3343(3) 0.4249(2)
O6A O 0.4642(2) -0.3919(4) 0.5782(2)
O6C O 0.5358(2) 0.3919(4) 0.4218(2)
O6B O 0.4642(2) 0.3919(4) 0.0782(2)
O6C_2 O 0.5358(2) -0.6081(4) 0.4218(2)
O6B_2 O 0.4642(2) -0.6081(4) 0.0782(2)
O7A O 0.1718(2) -0.3620(3) 0.2594(2)
O8A O 0.0688(2) -0.3062(4) 0.1340(2)
N1A N 0.2306(2) -0.4250(4) 0.4651(3)
N2A N 0.2614(3) -0.1484(3) 0.3795(3)
C1A C 0.1614(3) -0.3328(5) 0.5103(4)
H1A H 0.1346 -0.3818 0.5650
H2A H 0.1132 -0.3155 0.4575
C2A C 0.1965(4) -0.1967(5) 0.5528(4)
H3A H 0.2219 -0.2109 0.6226
H4A H 0.1444 -0.1375 0.5563
C3A C 0.2678(4) -0.1214(5) 0.4937(3)
H5A H 0.2621 -0.0250 0.5045
H6A H 0.3278 -0.1484 0.5215
C4A C 0.3388(4) -0.0741(5) 0.3352(4)
H7A H 0.3908 -0.0747 0.3850
H8A H 0.3218 0.0190 0.3215
C5A C 0.3656(3) -0.1418(5) 0.2371(4)
C6A C 0.2988(3) -0.6381(5) 0.3129(3)
C7A C 0.2326(4) -0.6669(5) 0.3942(4)
H9A H 0.2675 -0.7062 0.4525
H10A H 0.1903 -0.7354 0.3675
C8A C 0.1786(3) -0.5517(5) 0.4355(4)
H11A H 0.1313 -0.5280 0.3830
H12A H 0.1488 -0.5832 0.4949
C9A C 0.3085(3) -0.4551(5) 0.5433(3)
H13A H 0.3164 -0.5520 0.5485
H14A H 0.2932 -0.4217 0.6097
C10A C 0.3971(3) -0.3912(5) 0.5161(3)
C11A C 0.1296(3) -0.2720(5) 0.2019(3)
C12A C 0.1505(4) -0.1252(5) 0.2204(3)
H15A H 0.0987 -0.0719 0.1942
H16A H 0.2022 -0.1001 0.1826
C13A C 0.1717(3) -0.0923(5) 0.3346(3)
H17A H 0.1723 0.0047 0.3438
H18A H 0.1230 -0.1283 0.3728
O10A O 0.5589(4) 0.1558(5) 0.0292(3)
H20A H 0.5357 0.2603 0.0321
H21A H 0.5612 0.1448 -0.0359
O9 O 1.0000 0.1782(6) 0.2500
H19 H 1.0000 0.2805 0.2500
O11 O 1.0000 0.4551(6) 0.2500
H22 H 1.0187 0.5179 0.2115
H22A H 0.9813 0.5179 0.2885
O12 O 0.9576(3) 0.1196(4) 0.0351(3)
H23 H 0.9478 0.1784 -0.0127
H24 H 0.9826 0.0426 0.0261
loop_
_geom_bond_atom_site_label_1
_geom_bond_atom_site_label_2
_geom_bond_site_symmetry_1
_geom_bond_site_symmetry_2
K1 O2 1_555 1_555
K2 O1 1_555 1_555
Co1 O1 1_555 1_555
O1 C5 1_555 1_555
O2 C5 1_555 1_555
O3 K2 1_555 1_555
O4 C6 1_555 1_555
O5 K2 1_555 1_555
O6 C10 1_555 1_555
O7 Co1 1_555 1_555
O8 C11 1_555 1_555
N1 Co1 1_555 1_555
N2 Co1 1_555 1_555
C1 N1 1_555 1_555
H1 C1 1_555 1_555
H2 C1 1_555 1_555
C2 C1 1_555 1_555
H3 C2 1_555 1_555
H4 C2 1_555 1_555
C3 N2 1_555 1_555
H5 C3 1_555 1_555
H6 C3 1_555 1_555
C4 N2 1_555 1_555
H7 C4 1_555 1_555
H8 C4 1_555 1_555
C5 C4 1_555 1_555
C6 O3 1_555 1_555
C7 C6 1_555 1_555
H9 C7 1_555 1_555
H10 C7 1_555 1_555
C8 N1 1_555 1_555
H11 C8 1_555 1_555
H12 C8 1_555 1_555
C9 N1 1_555 1_555
H13 C9 1_555 1_555
H14 C9 1_555 1_555
C10 O5 1_555 1_555
C11 O7 1_555 1_555
C12 C11 1_555 1_555
H15 C12 1_555 1_555
H16 C12 1_555 1_555
C13 N2 1_555 1_555
H17 C13 1_555 1_555
H18 C13 1_555 1_555
O9 H19 1_555 1_555
O10 K1 1_555 1_555
H20 O10 1_555 1_555
H21 O10 1_555 1_555
O11 H22 1_555 1_555
O12 H23 1_555 1_555
H24 O12 1_555 1_555
K1_2 O4 1_555 1_555
K1C O6 1_555 1_555
K1C_2 O6A 1_555 1_555
K2_2 O6C 1_555 1_555
K2C O6 1_555 1_555
K2C_2 O6A 1_555 1_555
Co1A O1A 1_555 1_555
O1A K2 1_555 1_555
O2A K1 1_555 1_555
O3A K2 1_555 1_555
O4A K1_2 1_555 1_555
O4_2 K1 1_555 1_555
O4A_2 K1 1_555 1_555
O5A K2 1_555 1_555
O6A C10A 1_555 1_555
O6C K1 1_555 1_555
O6B K1 1_555 1_555
O6C_2 K2 1_555 1_555
O6B_2 K2 1_555 1_555
O7A Co1A 1_555 1_555
O8A C11A 1_555 1_555
N1A Co1A 1_555 1_555
N2A Co1A 1_555 1_555
C1A N1A 1_555 1_555
H1A C1A 1_555 1_555
H2A C1A 1_555 1_555
C2A C1A 1_555 1_555
H3A C2A 1_555 1_555
H4A C2A 1_555 1_555
C3A N2A 1_555 1_555
H5A C3A 1_555 1_555
H6A C3A 1_555 1_555
C4A N2A 1_555 1_555
H7A C4A 1_555 1_555
H8A C4A 1_555 1_555
C5A O1A 1_555 1_555
C6A O3A 1_555 1_555
C7A C6A 1_555 1_555
H9A C7A 1_555 1_555
H10A C7A 1_555 1_555
C8A N1A 1_555 1_555
H11A C8A 1_555 1_555
H12A C8A 1_555 1_555
C9A N1A 1_555 1_555
H13A C9A 1_555 1_555
H14A C9A 1_555 1_555
C10A O5A 1_555 1_555
C11A O7A 1_555 1_555
C12A C11A 1_555 1_555
H15A C12A 1_555 1_555
H16A C12A 1_555 1_555
C13A N2A 1_555 1_555
H17A C13A 1_555 1_555
H18A C13A 1_555 1_555
O10A K1 1_555 1_555
H20A O10A 1_555 1_555
H21A O10A 1_555 1_555
H22A O11 1_555 1_555
Co1 O3 1_555 1_555
Co1 O5 1_555 1_555
C2 C3 1_555 1_555
C7 C8 1_555 1_555
C9 C10 1_555 1_555
C12 C13 1_555 1_555
K1_2 O6C_2 1_555 1_555
K1_2 O6B_2 1_555 1_555
K2_2 O6B 1_555 1_555
Co1A O3A 1_555 1_555
Co1A O5A 1_555 1_555
O2A C5A 1_555 1_555
O4A C6A 1_555 1_555
C2A C3A 1_555 1_555
C4A C5A 1_555 1_555
C7A C8A 1_555 1_555
C9A C10A 1_555 1_555
C12A C13A 1_555 1_555

#END
