
#######################################################################
#
#                 Cambridge Crystallographic Data Centre
#                                CCDC 
#
#######################################################################
#
# If this CIF has been generated from an entry in the Cambridge 
# Structural Database, then it will include bibliographic, chemical, 
# crystal, experimental, refinement or atomic coordinate data resulting 
# from the CCDC's data processing and validation procedures.
#
#######################################################################

data_HAWKAT
_symmetry_cell_setting           triclinic
_symmetry_space_group_name_H-M   'P -1'
_symmetry_Int_Tables_number      2
_space_group_name_Hall           '-P 1'
loop_
_symmetry_equiv_pos_site_id
_symmetry_equiv_pos_as_xyz
1 x,y,z
2 -x,-y,-z
_cell_length_a                   7.5374(12)
_cell_length_b                   8.0915(13)
_cell_length_c                   10.6418(17)
_cell_angle_alpha                103.582(2)
_cell_angle_beta                 98.911(2)
_cell_angle_gamma                91.849(2)
_cell_volume                     621.672
loop_
_atom_site_label
_atom_site_type_symbol
_atom_site_fract_x
_atom_site_fract_y
_atom_site_fract_z
C1 C 0.7314(4) 0.6160(4) 0.5408(3)
C2 C 0.7570(4) 0.7709(4) 0.4876(3)
C3 C 0.7258(4) 0.9313(4) 0.5576(3)
H1 H 0.6904 0.9458 0.6412
C4 C 0.7468(4) 1.0724(4) 0.5045(3)
C5 C 0.7947(4) 1.0463(4) 0.3805(3)
H2 H 0.8055 1.1391 0.3410
C6 C 0.8101(4) 0.7512(4) 0.3655(3)
H3 H 0.8350 0.6423 0.3174
C7 C 0.9473(4) 0.4970(3) 1.0570(3)
C8 C 0.9844(4) 0.9979(4) 1.0696(3)
C9 C 0.4746(4) 0.9524(4) 1.0511(3)
N1 N 0.8252(4) 0.8887(3) 0.3176(3)
O1 O 0.6788(3) 0.6382(3) 0.6494(2)
O2 O 0.7606(3) 0.4742(3) 0.4708(2)
O3 O 0.7201(3) 1.2273(3) 0.5752(2)
H4 H 0.7319 1.2997 0.5314
O4 O 0.7878(3) 0.5388(3) 1.0451(2)
O5 O 1.0290(3) 0.4497(3) 1.1525(2)
O6 O 0.8878(3) 0.8697(3) 1.0752(2)
O7 O 1.0547(3) 1.1156(3) 1.1631(2)
O8 O 0.5245(3) 0.8033(3) 1.0412(2)
O9 O 0.3891(3) 1.0298(3) 1.1349(2)
O10 O 0.3732(3) 0.6673(3) 0.7911(3)
O11 O 0.5892(3) 0.3907(3) 0.7981(2)
Tb1 Tb 0.703060(18) 0.690595(17) 0.874664(13)
H5 H 0.854(5) 0.881(4) 0.242(4)
H6 H 0.564(5) 0.327(5) 0.841(4)
H7 H 0.623(5) 0.338(5) 0.742(4)
H8 H 0.349(5) 0.617(5) 0.722(4)
H9 H 0.316(5) 0.624(5) 0.833(4)
C1A C 0.2686(4) 1.3840(4) 1.4592(3)
C2A C 0.2430(4) 1.2291(4) 1.5124(3)
C3A C 0.2742(4) 1.0687(4) 1.4424(3)
H1A H 0.3096 1.0542 1.3588
C4A C 0.2532(4) 0.9276(4) 1.4955(3)
C5A C 0.2053(4) 0.9537(4) 1.6195(3)
H2A H 0.1945 0.8609 1.6590
C6A C 0.1899(4) 1.2488(4) 1.6345(3)
H3A H 0.1650 1.3577 1.6826
C7A C 1.0527(4) 0.5030(3) 0.9430(3)
C8A C 1.0156(4) 1.0021(4) 0.9304(3)
C9A C 0.5254(4) 1.0476(4) 0.9489(3)
N1A N 0.1748(4) 1.1113(3) 1.6824(3)
O1A O 0.3212(3) 1.3618(3) 1.3506(2)
O2A O 0.2394(3) 1.5258(3) 1.5292(2)
O3A O 0.2799(3) 0.7727(3) 1.4248(2)
H4A H 0.2681 0.7003 1.4686
O4A O 1.2122(3) 0.4612(3) 0.9549(2)
O4A_2 O 0.2122(3) 1.4612(3) 0.9549(2)
O5A O 0.9710(3) 0.5503(3) 0.8475(2)
O5_2 O 0.0290(3) 1.4497(3) 1.1525(2)
O6A O 1.1122(3) 1.1303(3) 0.9248(2)
O6A_2 O 0.1122(3) 1.1303(3) 0.9248(2)
O7A O 0.9453(3) 0.8844(3) 0.8369(2)
O7_2 O 0.0547(3) 1.1156(3) 1.1631(2)
O8A O 0.4755(3) 1.1967(3) 0.9588(2)
O9A O 0.6109(3) 0.9702(3) 0.8651(2)
O10A O 0.6268(3) 1.3327(3) 1.2089(3)
O11A O 0.4108(3) 1.6093(3) 1.2019(2)
Tb1A Tb 0.296940(18) 1.309405(17) 1.125336(13)
Tb1A_2 Tb 1.296940(18) 0.309405(17) 1.125336(13)
Tb1A_3 Tb 1.296940(18) 1.309405(17) 1.125336(13)
H5A H 0.146(5) 1.119(4) 1.758(4)
H6A H 0.436(5) 1.673(5) 1.159(4)
H7A H 0.377(5) 1.662(5) 1.258(4)
H8A H 0.651(5) 1.383(5) 1.278(4)
H9A H 0.684(5) 1.376(5) 1.167(4)
loop_
_geom_bond_atom_site_label_1
_geom_bond_atom_site_label_2
_geom_bond_site_symmetry_1
_geom_bond_site_symmetry_2
C1 C2 1_555 1_555
C2 C3 1_555 1_555
C3 H1 1_555 1_555
C4 C3 1_555 1_555
C5 C4 1_555 1_555
H2 C5 1_555 1_555
C6 C2 1_555 1_555
H3 C6 1_555 1_555
C7 O4 1_555 1_555
C8 O6 1_555 1_555
C9 O8 1_555 1_555
N1 C5 1_555 1_555
O1 C1 1_555 1_555
O2 C1 1_555 1_555
O3 C4 1_555 1_555
H4 O3 1_555 1_555
O4 Tb1 1_555 1_555
O5 C7 1_555 1_555
O6 Tb1 1_555 1_555
O7 C8 1_555 1_555
O8 Tb1 1_555 1_555
O9 C9 1_555 1_555
O10 Tb1 1_555 1_555
O11 Tb1 1_555 1_555
Tb1 O1 1_555 1_555
H5 N1 1_555 1_555
H6 O11 1_555 1_555
H7 O11 1_555 1_555
H8 O10 1_555 1_555
H9 O10 1_555 1_555
C1A C2A 1_555 1_555
C2A C3A 1_555 1_555
C3A H1A 1_555 1_555
C4A C3A 1_555 1_555
C5A C4A 1_555 1_555
H2A C5A 1_555 1_555
C6A C2A 1_555 1_555
H3A C6A 1_555 1_555
C7A C7 1_555 1_555
C8A C8 1_555 1_555
C9A C9 1_555 1_555
N1A C5A 1_555 1_555
O1A C1A 1_555 1_555
O2A C1A 1_555 1_555
O3A C4A 1_555 1_555
H4A O3A 1_555 1_555
O4A C7A 1_555 1_555
O4A_2 Tb1A 1_555 1_555
O5A Tb1 1_555 1_555
O5_2 Tb1A 1_555 1_555
O6A C8A 1_555 1_555
O6A_2 Tb1A 1_555 1_555
O7A Tb1 1_555 1_555
O7_2 Tb1A 1_555 1_555
O8A C9A 1_555 1_555
O9A Tb1 1_555 1_555
O10A Tb1A 1_555 1_555
O11A Tb1A 1_555 1_555
Tb1A O9 1_555 1_555
Tb1A_2 O5 1_555 1_555
Tb1A_3 O7 1_555 1_555
H5A N1A 1_555 1_555
H6A O11A 1_555 1_555
H7A O11A 1_555 1_555
H8A O10A 1_555 1_555
H9A O10A 1_555 1_555
C6 N1 1_555 1_555
C6A N1A 1_555 1_555
C7A O5A 1_555 1_555
C8A O7A 1_555 1_555
C9A O9A 1_555 1_555
O1A Tb1A 1_555 1_555
O4A Tb1A_2 1_555 1_555
O6A Tb1A_3 1_555 1_555
O8A Tb1A 1_555 1_555

#END
