
#######################################################################
#
#                 Cambridge Crystallographic Data Centre
#                                CCDC 
#
#######################################################################
#
# If this CIF has been generated from an entry in the Cambridge 
# Structural Database, then it will include bibliographic, chemical, 
# crystal, experimental, refinement or atomic coordinate data resulting 
# from the CCDC's data processing and validation procedures.
#
#######################################################################

data_HAWKEX
_symmetry_cell_setting           triclinic
_symmetry_space_group_name_H-M   'P -1'
_symmetry_Int_Tables_number      2
_space_group_name_Hall           '-P 1'
loop_
_symmetry_equiv_pos_site_id
_symmetry_equiv_pos_as_xyz
1 x,y,z
2 -x,-y,-z
_cell_length_a                   7.7925(13)
_cell_length_b                   8.0382(13)
_cell_length_c                   9.4970(15)
_cell_angle_alpha                110.975(2)
_cell_angle_beta                 96.491(2)
_cell_angle_gamma                95.865(2)
_cell_volume                     545.328
loop_
_atom_site_label
_atom_site_type_symbol
_atom_site_fract_x
_atom_site_fract_y
_atom_site_fract_z
Dy1 Dy 0.353950(19) 1.02727(2) 0.194903(17)
O1 O 0.5811(4) 1.1515(4) 0.4231(3)
O2 O 0.7036(3) 1.0864(4) 0.6177(3)
O3 O 0.2371(3) 0.7349(4) -0.0064(3)
O4 O 0.0404(3) 0.9545(4) 0.1666(3)
O5 O 0.4315(3) 0.8118(3) -0.1332(3)
O6 O -0.2072(3) 0.8962(4) 0.0028(3)
N1 N -0.0015(4) 0.2996(4) -0.3815(4)
C1 C 0.0738(5) 0.4411(5) -0.2566(4)
H1 H 0.0250 0.4710 -0.1650
C2 C -0.0474(4) 0.9565(5) 0.0490(4)
C3 C 0.2247(5) 0.5432(5) -0.2637(4)
C4 C 0.3048(5) 0.7067(5) -0.1252(4)
C5 C 0.2956(5) 0.4932(5) -0.3987(4)
H2 H 0.4005 0.5618 -0.4028
C6 C 0.0612(5) 0.2482(5) -0.5137(4)
H3 H 0.0008 0.1462 -0.5981
C7 C 0.5812(5) 1.0699(5) 0.5104(4)
O7 O 0.5683(4) 0.8247(5) 0.1894(3)
O8 O 0.2776(3) 0.2942(4) -0.6576(3)
C8 C 0.2146(5) 0.3428(5) -0.5292(4)
H5 H 0.635(8) 0.851(8) 0.141(7)
H6 H 0.518(9) 0.733(9) 0.181(7)
H8 H -0.097(7) 0.246(7) -0.376(6)
Dy1A Dy 0.646050(19) 0.97273(2) 0.805097(17)
Dy1A_2 Dy 0.646050(19) 0.97273(2) -0.194903(17)
Dy1A_3 Dy -0.353950(19) 0.97273(2) -0.194903(17)
Dy1_2 Dy 0.353950(19) 0.02727(2) -0.805097(17)
Dy1A_4 Dy 0.646050(19) 1.97273(2) 0.805097(17)
O1A O 0.4189(4) 0.8485(4) 0.5769(3)
O2A O 0.2964(3) 0.9136(4) 0.3823(3)
O3A O 0.7629(3) 1.2651(4) 0.0064(3)
O3A_2 O 0.7629(3) 1.2651(4) 1.0064(3)
O4A O -0.0404(3) 1.0455(4) -0.1666(3)
O4A_2 O 0.9596(3) 1.0455(4) 0.8334(3)
O5A O 0.5685(3) 1.1882(3) 0.1332(3)
O5_2 O 0.4315(3) 0.8118(3) 0.8668(3)
O6A O 0.2072(3) 1.1038(4) -0.0028(3)
O6_2 O 0.7928(3) 0.8962(4) 1.0028(3)
N1A N 1.0015(4) 1.7004(4) 0.3815(4)
C1A C 0.9262(5) 1.5589(5) 0.2566(4)
H1A H 0.9750 1.5290 0.1650
C2A C 0.0474(4) 1.0435(5) -0.0490(4)
C3A C 0.7753(5) 1.4568(5) 0.2637(4)
C4A C 0.6952(5) 1.2933(5) 0.1252(4)
C5A C 0.7044(5) 1.5068(5) 0.3987(4)
H2A H 0.5995 1.4382 0.4028
C6A C 0.9388(5) 1.7518(5) 0.5137(4)
H3A H 0.9992 1.8538 0.5981
C7A C 0.4188(5) 0.9301(5) 0.4896(4)
O7A O 0.4317(4) 1.1753(5) 0.8106(3)
O8A O 0.7224(3) 1.7058(4) 0.6576(3)
O8_2 O 0.2776(3) 1.2942(4) 0.3424(3)
O8A_2 O 0.7224(3) 0.7058(4) 0.6576(3)
C8A C 0.7854(5) 1.6572(5) 0.5292(4)
H5A H 0.365(8) 1.149(8) 0.859(7)
H6A H 0.482(9) 1.267(9) 0.819(7)
H8A H 1.097(7) 1.754(7) 0.376(6)
O9 O 0.3589(6) 0.5132(5) 0.1650(5)
H4 H 0.332(11) 0.448(12) 0.215(10)
H7 H 0.277(15) 0.489(14) 0.099(13)
loop_
_geom_bond_atom_site_label_1
_geom_bond_atom_site_label_2
_geom_bond_site_symmetry_1
_geom_bond_site_symmetry_2
Dy1 O1 1_555 1_555
O1 C7 1_555 1_555
O2 C7 1_555 1_555
O3 Dy1 1_555 1_555
O4 Dy1 1_555 1_555
O5 C4 1_555 1_555
O6 C2 1_555 1_555
N1 C1 1_555 1_555
C1 H1 1_555 1_555
C2 O4 1_555 1_555
C3 C1 1_555 1_555
C4 O3 1_555 1_555
C5 C3 1_555 1_555
H2 C5 1_555 1_555
C6 N1 1_555 1_555
H3 C6 1_555 1_555
C7 C7A 1_555 1_555
O7 Dy1 1_555 1_555
O8 C8 1_555 1_555
O9 H4 1_555 1_555
C8 C5 1_555 1_555
H5 O7 1_555 1_555
H6 O7 1_555 1_555
H7 O9 1_555 1_555
H8 N1 1_555 1_555
Dy1A O2 1_555 1_555
Dy1A_2 O5 1_555 1_555
Dy1A_3 O6 1_555 1_555
Dy1_2 O8 1_555 1_555
Dy1A_4 O8A 1_555 1_555
O1A Dy1A 1_555 1_555
O2A Dy1 1_555 1_555
O3A Dy1A_2 1_555 1_555
O3A_2 Dy1A 1_555 1_555
O4A Dy1A_3 1_555 1_555
O4A_2 Dy1A 1_555 1_555
O5A Dy1 1_555 1_555
O5_2 Dy1A 1_555 1_555
O6A Dy1 1_555 1_555
O6_2 Dy1A 1_555 1_555
N1A C1A 1_555 1_555
C1A H1A 1_555 1_555
C2A C2 1_555 1_555
C3A C1A 1_555 1_555
C4A O3A 1_555 1_555
C5A C3A 1_555 1_555
H2A C5A 1_555 1_555
C6A N1A 1_555 1_555
H3A C6A 1_555 1_555
C7A O1A 1_555 1_555
O7A Dy1A 1_555 1_555
O8A C8A 1_555 1_555
O8_2 Dy1 1_555 1_555
O8A_2 Dy1A 1_555 1_555
C8A C5A 1_555 1_555
H5A O7A 1_555 1_555
H6A O7A 1_555 1_555
H8A N1A 1_555 1_555
C3 C4 1_555 1_555
C6 C8 1_555 1_555
O2A C7A 1_555 1_555
O4A C2A 1_555 1_555
O5A C4A 1_555 1_555
O6A C2A 1_555 1_555
C3A C4A 1_555 1_555
C6A C8A 1_555 1_555

#END
