
#######################################################################
#
#                 Cambridge Crystallographic Data Centre
#                                CCDC 
#
#######################################################################
#
# If this CIF has been generated from an entry in the Cambridge 
# Structural Database, then it will include bibliographic, chemical, 
# crystal, experimental, refinement or atomic coordinate data resulting 
# from the CCDC's data processing and validation procedures.
#
#######################################################################

data_HAWMAT
_symmetry_cell_setting           triclinic
_symmetry_space_group_name_H-M   'P -1'
_symmetry_Int_Tables_number      2
_space_group_name_Hall           '-P 1'
loop_
_symmetry_equiv_pos_site_id
_symmetry_equiv_pos_as_xyz
1 x,y,z
2 -x,-y,-z
_cell_length_a                   8.168
_cell_length_b                   12.428
_cell_length_c                   19.895
_cell_angle_alpha                74.85
_cell_angle_beta                 75.02
_cell_angle_gamma                74.570
_cell_volume                     1839.97
loop_
_atom_site_label
_atom_site_type_symbol
_atom_site_fract_x
_atom_site_fract_y
_atom_site_fract_z
Ag1 Ag 0.55983(7) 0.69226(5) 0.75052(3)
Ag2 Ag 0.96188(7) 0.66187(5) 0.73470(3)
P1 P 0.9095(2) 0.4931(2) 0.7166(1)
P2 P 0.6065(2) 0.8184(2) 0.81174(9)
N1 N 0.6406(7) 0.6100(5) 0.6563(3)
N2 N 0.9003(7) 0.8517(5) 0.7199(3)
C1 C 0.7879(8) 0.5293(5) 0.6451(4)
C2 C 0.7472(9) 0.9106(5) 0.7521(4)
O1 O 0.2528(6) 0.6639(4) 0.7600(3)
O2 O 1.1199(7) 0.5521(6) 0.8441(4)
O3 O 0.3627(7) 0.5806(6) 0.8525(3)
N3 N 0.2425(8) 0.5980(5) 0.8199(3)
O1_2 O 1.2528(6) 0.6639(4) 0.7600(3)
Ag2_2 Ag -0.03812(7) 0.66187(5) 0.73470(3)
N3_2 N 1.2425(8) 0.5980(5) 0.8199(3)
O2_2 O 0.1199(7) 0.5521(6) 0.8441(4)
loop_
_geom_bond_atom_site_label_1
_geom_bond_atom_site_label_2
_geom_bond_site_symmetry_1
_geom_bond_site_symmetry_2
Ag1 Ag2 1_555 1_555
Ag2 P1 1_555 1_555
P1 C1 1_555 1_555
P2 Ag1 1_555 1_555
N1 Ag1 1_555 1_555
N2 Ag2 1_555 1_555
C1 N1 1_555 1_555
C2 P2 1_555 1_555
O1 Ag1 1_555 1_555
O2 Ag2 1_555 1_555
O3 Ag1 1_555 1_555
N3 O1 1_555 1_555
O1_2 Ag2 1_555 1_555
Ag2_2 O1 1_555 1_555
N3_2 O2 1_555 1_555
O2_2 N3 1_555 1_555
N2 C2 1_555 1_555
O3 N3 1_555 1_555
O1_2 N3_2 1_555 1_555
Ag2_2 O2_2 1_555 1_555

#END
