
#######################################################################
#
#                 Cambridge Crystallographic Data Centre
#                                CCDC 
#
#######################################################################
#
# If this CIF has been generated from an entry in the Cambridge 
# Structural Database, then it will include bibliographic, chemical, 
# crystal, experimental, refinement or atomic coordinate data resulting 
# from the CCDC's data processing and validation procedures.
#
#######################################################################

data_HAWNIC01
_symmetry_cell_setting           monoclinic
_symmetry_space_group_name_H-M   'P 21/c'
_symmetry_Int_Tables_number      14
_space_group_name_Hall           '-P 2ybc'
loop_
_symmetry_equiv_pos_site_id
_symmetry_equiv_pos_as_xyz
1 x,y,z
2 -x,1/2+y,1/2-z
3 -x,-y,-z
4 x,1/2-y,1/2+z
_cell_length_a                   14.068(3)
_cell_length_b                   11.227(2)
_cell_length_c                   12.908(3)
_cell_angle_alpha                90
_cell_angle_beta                 102.12(3)
_cell_angle_gamma                90
_cell_volume                     1993.27
loop_
_atom_site_label
_atom_site_type_symbol
_atom_site_fract_x
_atom_site_fract_y
_atom_site_fract_z
Nd1 Nd 0.730315(10) 0.794996(12) 0.351269(10)
O1 O 0.65681(14) 0.59864(17) 0.36972(14)
C1 C 0.5037(2) 0.6868(3) 0.3696(2)
O2 O 0.84449(15) 0.92801(17) 0.28158(14)
C2 C 0.77439(19) 0.8458(2) 0.6190(2)
O3 O 0.72712(14) 0.78033(16) 0.54658(14)
O4 O 0.87478(16) 0.6852(2) 0.43645(18)
O5 O 0.78120(15) 0.83196(17) 0.71624(13)
O6 O 0.92024(16) 1.10389(18) 0.28450(15)
N1 N 0.54929(17) 0.7903(2) 0.36796(17)
O7 O 0.53099(16) 0.47929(19) 0.37620(18)
O8 O 0.64469(15) 0.99211(18) 0.36434(15)
C3 C 0.8797(2) 1.0234(3) 0.3257(2)
N2 N 0.83161(16) 0.94732(19) 0.48083(15)
C4 C 0.82629(19) 0.9512(2) 0.58345(19)
C5 C 0.8619(2) 1.0449(3) 0.6488(2)
C6 C 0.5590(2) 1.0011(3) 0.3677(2)
C7 C 0.4983(2) 0.8909(3) 0.3660(2)
C8 C 0.8734(2) 1.0386(2) 0.4407(2)
C9 C 0.4055(3) 0.6794(4) 0.3686(3)
O9 O 0.63337(17) 0.8451(2) 0.17420(15)
C10 C 0.9075(2) 1.1374(3) 0.5008(2)
C11 C 0.9013(2) 1.1407(3) 0.6059(2)
C12 C 0.5684(2) 0.5790(3) 0.3720(2)
C13 C 0.3993(3) 0.8920(4) 0.3635(3)
C14 C 0.3527(3) 0.7841(4) 0.3632(4)
H1 H 0.934(2) 1.196(3) 0.475(2)
H2 H 0.856(2) 1.047(3) 0.720(2)
H3 H 0.5878(18) 0.902(2) 0.153(2)
H4 H 0.921(2) 1.204(3) 0.645(2)
H5 H 0.654(3) 0.807(3) 0.121(2)
H6 H 0.368(3) 0.970(3) 0.357(3)
O10 O 0.51504(17) 1.1013(2) 0.37364(18)
H7 H 0.373(3) 0.598(3) 0.370(3)
H8 H 0.277(3) 0.781(3) 0.362(3)
H9 H 0.913(3) 0.643(3) 0.407(3)
H10 H 0.888(2) 0.695(3) 0.494(3)
Nd1C Nd 0.730315(10) 0.705004(12) 0.851269(10)
O5C O 0.78120(15) 0.66804(17) 0.21624(13)
O11 O 0.95846(16) 0.69242(19) 0.64843(15)
H11 H 1.000(2) 0.755(3) 0.673(3)
H12 H 0.919(2) 0.677(3) 0.695(2)
O12 O 0.97007(18) 0.4424(2) 0.59807(17)
H13 H 0.953(2) 0.420(3) 0.6592(19)
H14 H 0.984(3) 0.5219(17) 0.601(2)
O13 O 0.3751(3) 0.7744(3) 0.1150(3)
H15 H 0.395(3) 0.853(2) 0.111(5)
H16 H 0.3095(15) 0.765(3) 0.106(3)
O14 O 0.8003(3) 0.4048(3) 0.4136(3)
H17 H 0.7783(16) 0.403(2) 0.4853(13)
H18 H 0.768(9) 0.479(6) 0.389(6)
loop_
_geom_bond_atom_site_label_1
_geom_bond_atom_site_label_2
_geom_bond_site_symmetry_1
_geom_bond_site_symmetry_2
Nd1 O1 1_555 1_555
O1 C12 1_555 1_555
C1 N1 1_555 1_555
O2 Nd1 1_555 1_555
C2 O3 1_555 1_555
O3 Nd1 1_555 1_555
O4 Nd1 1_555 1_555
O5 C2 1_555 1_555
O6 C3 1_555 1_555
N1 Nd1 1_555 1_555
O7 C12 1_555 1_555
O8 Nd1 1_555 1_555
C3 O2 1_555 1_555
N2 Nd1 1_555 1_555
C4 C2 1_555 1_555
C5 C4 1_555 1_555
C6 O8 1_555 1_555
C7 N1 1_555 1_555
C8 C3 1_555 1_555
C9 C1 1_555 1_555
O9 Nd1 1_555 1_555
C10 C8 1_555 1_555
C11 C5 1_555 1_555
C12 C1 1_555 1_555
C13 C7 1_555 1_555
C14 C9 1_555 1_555
H1 C10 1_555 1_555
H2 C5 1_555 1_555
H3 O9 1_555 1_555
H4 C11 1_555 1_555
H5 O9 1_555 1_555
H6 C13 1_555 1_555
O10 C6 1_555 1_555
H7 C9 1_555 1_555
H8 C14 1_555 1_555
H9 O4 1_555 1_555
H10 O4 1_555 1_555
O11 H11 1_555 1_555
H12 O11 1_555 1_555
O12 H13 1_555 1_555
H14 O12 1_555 1_555
O13 H15 1_555 1_555
H16 O13 1_555 1_555
O14 H17 1_555 1_555
H18 O14 1_555 1_555
Nd1C O5 1_555 1_555
O5C Nd1 1_555 1_555
N2 C4 1_555 1_555
N2 C8 1_555 1_555
C6 C7 1_555 1_555
C10 C11 1_555 1_555
C13 C14 1_555 1_555

#END
