
#######################################################################
#
#                 Cambridge Crystallographic Data Centre
#                                CCDC 
#
#######################################################################
#
# If this CIF has been generated from an entry in the Cambridge 
# Structural Database, then it will include bibliographic, chemical, 
# crystal, experimental, refinement or atomic coordinate data resulting 
# from the CCDC's data processing and validation procedures.
#
#######################################################################

data_HAWNUP
_symmetry_cell_setting           rhombohedral
_symmetry_space_group_name_H-M   'R -3'
_symmetry_Int_Tables_number      148
_space_group_name_Hall           '-R 3'
loop_
_symmetry_equiv_pos_site_id
_symmetry_equiv_pos_as_xyz
1 x,y,z
2 -y,x-y,z
3 -x+y,-x,z
4 2/3+x,1/3+y,1/3+z
5 2/3-y,1/3+x-y,1/3+z
6 2/3-x+y,1/3-x,1/3+z
7 1/3+x,2/3+y,2/3+z
8 1/3-y,2/3+x-y,2/3+z
9 1/3-x+y,2/3-x,2/3+z
10 -x,-y,-z
11 y,-x+y,-z
12 x-y,x,-z
13 1/3-x,2/3-y,2/3-z
14 1/3+y,2/3-x+y,2/3-z
15 1/3+x-y,2/3+x,2/3-z
16 2/3-x,1/3-y,1/3-z
17 2/3+y,1/3-x+y,1/3-z
18 2/3+x-y,1/3+x,1/3-z
_cell_length_a                   15.1677(9)
_cell_length_b                   15.1677(9)
_cell_length_c                   24.4621(18)
_cell_angle_alpha                90
_cell_angle_beta                 90
_cell_angle_gamma                120.0000
_cell_volume                     4873.76
loop_
_atom_site_label
_atom_site_type_symbol
_atom_site_fract_x
_atom_site_fract_y
_atom_site_fract_z
Br1 Br 1.26100(2) 0.76966(2) 0.098620(10)
Cu1 Cu 1.14783(3) 0.58812(3) 0.133840(10)
N1 N 1.00853(16) 0.53646(16) 0.09930(9)
C1 C 0.77010(18) 0.36094(19) 0.21030(10)
C2 C 0.69400(19) 0.25735(19) 0.21027(10)
C3 C 0.7236(2) 0.1754(2) 0.21507(11)
C4 C 0.7258(2) 0.1453(2) 0.27459(12)
C5 C 0.88222(19) 0.3899(2) 0.21193(11)
C6 C 0.9287(2) 0.3828(2) 0.15683(11)
C7 C 0.92461(19) 0.44625(19) 0.11076(11)
C8 C 0.8370(2) 0.4111(2) 0.07988(12)
C9 C 0.8339(2) 0.4669(2) 0.03613(12)
C10 C 0.9190(2) 0.5594(2) 0.02462(12)
C11 C 1.0037(2) 0.5908(2) 0.05700(11)
H1 H 0.6753 0.1167 0.1957
H2 H 0.7892 0.2000 0.1995
H3 H 0.7921 0.1875 0.2891
H4 H 0.7090 0.0761 0.2766
H5 H 0.6779 0.1546 0.2951
H6 H 0.9201 0.4585 0.2241
H7 H 0.8889 0.3467 0.2377
H8 H 0.9982 0.4030 0.1629
H9 H 0.8928 0.3136 0.1455
H10 H 0.7790 0.3476 0.0889
H11 H 0.7743 0.4424 0.0144
H12 H 0.9195 0.6002 -0.0050
H13 H 1.0621 0.6549 0.0494
Br1A Br 1.23034(2) 0.49134(3) 0.098620(10)
Br1Q Br 1.15801(3) 0.59433(2) 0.234713(10)
Br1B Br 1.50866(3) 0.73900(2) 0.098620(10)
Br1O Br 1.40567(2) 0.56367(2) 0.234713(10)
Cu1A Cu 1.41188(3) 0.55971(4) 0.133840(10)
Cu1Q Cu 1.22638(4) 0.48116(3) 0.199493(10)
Cu1B Cu 1.44029(4) 0.85217(3) 0.133840(10)
Cu1P Cu 1.25479(3) 0.77362(4) 0.199493(10)
Cu1A_2 Cu 0.41188(3) 0.55971(4) 0.133840(10)
Cu1B_2 Cu 0.44029(4) -0.14783(3) 0.133840(10)
N1A N 0.46354(16) 0.47207(23) 0.09930(9)
N1B N 0.52793(23) -0.00853(16) 0.09930(9)
N1A_2 N 1.46354(16) 0.47207(23) 0.09930(9)
N1Q N 1.13874(23) 0.34186(16) 0.23403(9)
C1B C 0.59084(26) 0.22990(18) 0.21030(10)
C1A C 0.63906(19) 0.40916(26) 0.21030(10)
C2B C 0.56335(27) 0.30600(19) 0.21027(10)
C2A C 0.74265(19) 0.43665(27) 0.21027(10)
C3A C 0.8246(2) 0.5482(3) 0.21507(11)
C3B C 0.4518(3) 0.2764(2) 0.21507(11)
C4A C 0.8547(2) 0.5805(3) 0.27459(12)
C4B C 0.4195(3) 0.2742(2) 0.27459(12)
C5A C 0.6101(2) 0.49232(28) 0.21193(11)
C5B C 0.50768(28) 0.11778(19) 0.21193(11)
C6A C 0.6172(2) 0.5459(3) 0.15683(11)
C6B C 0.4541(3) 0.0713(2) 0.15683(11)
C7A C 0.55375(19) 0.47836(27) 0.11076(11)
C7B C 0.52164(27) 0.07539(19) 0.11076(11)
C8A C 0.5889(2) 0.4259(3) 0.07988(12)
C8B C 0.5741(3) 0.1630(2) 0.07988(12)
C9A C 0.5331(2) 0.3670(3) 0.03613(12)
C9B C 0.6330(3) 0.1661(2) 0.03613(12)
C10A C 0.4406(2) 0.3596(3) 0.02462(12)
C10B C 0.6404(3) 0.0810(2) 0.02462(12)
C11A C 0.4092(2) 0.4129(3) 0.05700(11)
C11B C 0.5871(3) -0.0037(2) 0.05700(11)
H1A H 0.8833 0.5586 0.1957
H1B H 0.4414 0.3247 0.1957
H2A H 0.8000 0.5892 0.1995
H2B H 0.4108 0.2108 0.1995
H3A H 0.8125 0.6046 0.2891
H3B H 0.3954 0.2079 0.2891
H4A H 0.9239 0.6329 0.2766
H4B H 0.3671 0.2910 0.2766
H5A H 0.8454 0.5233 0.2951
H5B H 0.4767 0.3221 0.2951
H6A H 0.5415 0.4616 0.2241
H6B H 0.5384 0.0799 0.2241
H7A H 0.6533 0.5422 0.2377
H7B H 0.4578 0.1111 0.2377
H8A H 0.5970 0.5952 0.1629
H8B H 0.4048 0.0018 0.1629
H9A H 0.6864 0.5792 0.1455
H9B H 0.4208 0.1072 0.1455
H10A H 0.6524 0.4314 0.0889
H10B H 0.5686 0.2210 0.0889
H11A H 0.5576 0.3319 0.0144
H11B H 0.6681 0.2257 0.0144
H12A H 0.3998 0.3193 -0.0050
H12B H 0.6807 0.0805 -0.0050
H13A H 0.3451 0.4072 0.0494
H13B H 0.5928 -0.0621 0.0494
loop_
_geom_bond_atom_site_label_1
_geom_bond_atom_site_label_2
_geom_bond_site_symmetry_1
_geom_bond_site_symmetry_2
Br1 Cu1 1_555 1_555
Cu1 N1 1_555 1_555
N1 C7 1_555 1_555
C1 C2 1_555 1_555
C2 C3 1_555 1_555
C3 C4 1_555 1_555
C4 H3 1_555 1_555
C5 C1 1_555 1_555
C6 C5 1_555 1_555
C7 C6 1_555 1_555
C8 C7 1_555 1_555
C9 C8 1_555 1_555
C10 C9 1_555 1_555
C11 N1 1_555 1_555
H1 C3 1_555 1_555
H2 C3 1_555 1_555
H4 C4 1_555 1_555
H5 C4 1_555 1_555
H6 C5 1_555 1_555
H7 C5 1_555 1_555
H8 C6 1_555 1_555
H9 C6 1_555 1_555
H10 C8 1_555 1_555
H11 C9 1_555 1_555
H12 C10 1_555 1_555
H13 C11 1_555 1_555
Br1A Cu1 1_555 1_555
Br1Q Cu1 1_555 1_555
Br1B Cu1A 1_555 1_555
Br1O Cu1A 1_555 1_555
Cu1A Br1A 1_555 1_555
Cu1Q Br1A 1_555 1_555
Cu1B Br1 1_555 1_555
Cu1P Br1 1_555 1_555
Cu1A_2 N1A 1_555 1_555
Cu1B_2 N1B 1_555 1_555
N1A C7A 1_555 1_555
N1B C7B 1_555 1_555
N1A_2 Cu1A 1_555 1_555
N1Q Cu1Q 1_555 1_555
C1B C2 1_555 1_555
C1A C2B 1_555 1_555
C2B C1B 1_555 1_555
C2A C1 1_555 1_555
C3A C2A 1_555 1_555
C3B C2B 1_555 1_555
C4A C3A 1_555 1_555
C4B C3B 1_555 1_555
C5A C1A 1_555 1_555
C5B C1B 1_555 1_555
C6A C5A 1_555 1_555
C6B C5B 1_555 1_555
C7A C6A 1_555 1_555
C7B C6B 1_555 1_555
C8A C7A 1_555 1_555
C8B C7B 1_555 1_555
C9A C8A 1_555 1_555
C9B C8B 1_555 1_555
C10A C9A 1_555 1_555
C10B C9B 1_555 1_555
C11A N1A 1_555 1_555
C11B N1B 1_555 1_555
H1A C3A 1_555 1_555
H1B C3B 1_555 1_555
H2A C3A 1_555 1_555
H2B C3B 1_555 1_555
H3A C4A 1_555 1_555
H3B C4B 1_555 1_555
H4A C4A 1_555 1_555
H4B C4B 1_555 1_555
H5A C4A 1_555 1_555
H5B C4B 1_555 1_555
H6A C5A 1_555 1_555
H6B C5B 1_555 1_555
H7A C5A 1_555 1_555
H7B C5B 1_555 1_555
H8A C6A 1_555 1_555
H8B C6B 1_555 1_555
H9A C6A 1_555 1_555
H9B C6B 1_555 1_555
H10A C8A 1_555 1_555
H10B C8B 1_555 1_555
H11A C9A 1_555 1_555
H11B C9B 1_555 1_555
H12A C10A 1_555 1_555
H12B C10B 1_555 1_555
H13A C11A 1_555 1_555
H13B C11B 1_555 1_555
C10 C11 1_555 1_555
Br1Q Cu1Q 1_555 1_555
Br1Q Cu1P 1_555 1_555
Br1B Cu1B 1_555 1_555
Br1O Cu1Q 1_555 1_555
C1A C2A 1_555 1_555
C10A C11A 1_555 1_555
C10B C11B 1_555 1_555

#END
