
#######################################################################
#
#                 Cambridge Crystallographic Data Centre
#                                CCDC 
#
#######################################################################
#
# If this CIF has been generated from an entry in the Cambridge 
# Structural Database, then it will include bibliographic, chemical, 
# crystal, experimental, refinement or atomic coordinate data resulting 
# from the CCDC's data processing and validation procedures.
#
#######################################################################

data_HAWNIC02
_symmetry_cell_setting           monoclinic
_symmetry_space_group_name_H-M   'P 21/c'
_symmetry_Int_Tables_number      14
_space_group_name_Hall           '-P 2ybc'
loop_
_symmetry_equiv_pos_site_id
_symmetry_equiv_pos_as_xyz
1 x,y,z
2 -x,1/2+y,1/2-z
3 -x,-y,-z
4 x,1/2-y,1/2+z
_cell_length_a                   14.080(3)
_cell_length_b                   11.216(2)
_cell_length_c                   12.904(3)
_cell_angle_alpha                90
_cell_angle_beta                 102.08(3)
_cell_angle_gamma                90
_cell_volume                     1992.69
loop_
_atom_site_label
_atom_site_type_symbol
_atom_site_fract_x
_atom_site_fract_y
_atom_site_fract_z
Nd1 Nd 0.730043(10) 0.704913(12) 0.351309(11)
N1 N 0.54931(19) 0.7096(2) 0.3681(2)
N2 N 0.83145(17) 0.5524(2) 0.48097(18)
O1 O 0.6329(2) 0.6553(3) 0.17372(19)
H1 H 0.662(3) 0.683(4) 0.124(3)
O2 O 0.65680(16) 0.90156(19) 0.36964(19)
O3 O 0.87449(19) 0.8148(2) 0.4369(2)
H2 H 0.889(3) 0.802(3) 0.494(4)
O4 O 0.53105(19) 1.0211(2) 0.3772(2)
O5 O 0.64482(17) 0.5079(2) 0.36421(19)
O6 O 0.5146(2) 0.3989(2) 0.3738(3)
O7 O 0.84431(17) 0.57140(19) 0.28165(17)
O8 O 0.9203(2) 0.3964(2) 0.28483(19)
O9 O 0.72682(17) 0.71939(18) 0.54666(16)
O10 O 0.78086(17) 0.6683(2) 0.71630(16)
C1 C 0.5687(2) 0.9217(3) 0.3725(3)
C2 C 0.5042(2) 0.8137(3) 0.3706(3)
C3 C 0.4059(3) 0.8212(4) 0.3701(4)
H3 H 0.379(3) 0.913(4) 0.382(3)
C4 C 0.3532(4) 0.7167(5) 0.3656(5)
H4 H 0.279(4) 0.718(4) 0.367(4)
C5 C 0.3995(3) 0.6085(4) 0.3650(4)
H5 H 0.374(3) 0.531(4) 0.375(3)
C6 C 0.4985(3) 0.6087(3) 0.3668(3)
C7 C 0.5590(3) 0.4994(3) 0.3684(3)
C8 C 0.8796(2) 0.4764(3) 0.3258(2)
C9 C 0.8735(2) 0.4615(2) 0.4410(2)
C10 C 0.9076(2) 0.3617(3) 0.5006(2)
H6 H 0.938(3) 0.301(3) 0.478(3)
C11 C 0.9016(3) 0.3594(3) 0.6065(3)
H7 H 0.915(3) 0.296(3) 0.646(3)
C12 C 0.8617(2) 0.4548(3) 0.6488(2)
H8 H 0.860(3) 0.453(4) 0.708(4)
C13 C 0.8259(2) 0.5498(2) 0.5835(2)
C14 C 0.7741(2) 0.6542(2) 0.6192(2)
H9 H 0.593(4) 0.608(4) 0.150(4)
H10 H 0.914(3) 0.857(4) 0.415(4)
Nd1C Nd 0.730043(10) 0.795087(12) 0.851309(11)
O10C O 0.78086(17) 0.8317(2) 0.21630(16)
O11 O 0.95837(19) 0.8076(2) 0.64872(19)
H11 H 0.996(2) 0.751(3) 0.671(3)
H12 H 0.919(3) 0.826(4) 0.686(3)
O12 O 0.9702(2) 0.0578(3) 0.5979(2)
H13 H 0.955(3) 0.077(3) 0.657(3)
H14 H 0.982(3) -0.011(4) 0.606(3)
O13 O 0.6256(4) 0.2751(3) 0.8854(4)
H15 H 0.687(4) 0.247(5) 0.899(4)
H16 H 0.596(7) 0.347(8) 0.909(7)
O14 O 0.7996(3) 0.4043(3) 0.9172(4)
loop_
_geom_bond_atom_site_label_1
_geom_bond_atom_site_label_2
_geom_bond_site_symmetry_1
_geom_bond_site_symmetry_2
Nd1 N1 1_555 1_555
N1 C2 1_555 1_555
N2 Nd1 1_555 1_555
O1 Nd1 1_555 1_555
H1 O1 1_555 1_555
O2 Nd1 1_555 1_555
O3 Nd1 1_555 1_555
H2 O3 1_555 1_555
O4 C1 1_555 1_555
O5 Nd1 1_555 1_555
O6 C7 1_555 1_555
O7 Nd1 1_555 1_555
O8 C8 1_555 1_555
O9 Nd1 1_555 1_555
O10 C14 1_555 1_555
C1 O2 1_555 1_555
C2 C1 1_555 1_555
C3 C2 1_555 1_555
H3 C3 1_555 1_555
C4 C3 1_555 1_555
H4 C4 1_555 1_555
C5 C4 1_555 1_555
H5 C5 1_555 1_555
C6 N1 1_555 1_555
C7 O5 1_555 1_555
C8 O7 1_555 1_555
C9 N2 1_555 1_555
C10 C9 1_555 1_555
H6 C10 1_555 1_555
C11 C10 1_555 1_555
H7 C11 1_555 1_555
C12 C11 1_555 1_555
H8 C12 1_555 1_555
C13 N2 1_555 1_555
C14 O9 1_555 1_555
H9 O1 1_555 1_555
H10 O3 1_555 1_555
O11 H11 1_555 1_555
H12 O11 1_555 1_555
O12 H13 1_555 1_555
H14 O12 1_555 1_555
O13 H15 1_555 1_555
H16 O13 1_555 1_555
Nd1C O10 1_555 1_555
O10C Nd1 1_555 1_555
C5 C6 1_555 1_555
C6 C7 1_555 1_555
C8 C9 1_555 1_555
C12 C13 1_555 1_555
C13 C14 1_555 1_555

#END
