
#######################################################################
#
#                 Cambridge Crystallographic Data Centre
#                                CCDC 
#
#######################################################################
#
# If this CIF has been generated from an entry in the Cambridge 
# Structural Database, then it will include bibliographic, chemical, 
# crystal, experimental, refinement or atomic coordinate data resulting 
# from the CCDC's data processing and validation procedures.
#
#######################################################################

data_HAWNOJ
_symmetry_cell_setting           rhombohedral
_symmetry_space_group_name_H-M   'R -3'
_symmetry_Int_Tables_number      148
_space_group_name_Hall           '-R 3'
loop_
_symmetry_equiv_pos_site_id
_symmetry_equiv_pos_as_xyz
1 x,y,z
2 -y,x-y,z
3 -x+y,-x,z
4 2/3+x,1/3+y,1/3+z
5 2/3-y,1/3+x-y,1/3+z
6 2/3-x+y,1/3-x,1/3+z
7 1/3+x,2/3+y,2/3+z
8 1/3-y,2/3+x-y,2/3+z
9 1/3-x+y,2/3-x,2/3+z
10 -x,-y,-z
11 y,-x+y,-z
12 x-y,x,-z
13 1/3-x,2/3-y,2/3-z
14 1/3+y,2/3-x+y,2/3-z
15 1/3+x-y,2/3+x,2/3-z
16 2/3-x,1/3-y,1/3-z
17 2/3+y,1/3-x+y,1/3-z
18 2/3+x-y,1/3+x,1/3-z
_cell_length_a                   15.029(4)
_cell_length_b                   15.029(4)
_cell_length_c                   23.744(8)
_cell_angle_alpha                90
_cell_angle_beta                 90
_cell_angle_gamma                120.0000
_cell_volume                     4644.56
loop_
_atom_site_label
_atom_site_type_symbol
_atom_site_fract_x
_atom_site_fract_y
_atom_site_fract_z
Cu1 Cu 1.15215(2) 0.58826(2) 0.130320(10)
Cl1 Cl 1.26175(4) 0.76596(4) 0.10234(2)
N1 N 1.01263(12) 0.54044(12) 0.09621(6)
C1 C 0.77163(14) 0.36330(14) 0.21108(8)
C2 C 0.69641(14) 0.25862(14) 0.21098(9)
C3 C 0.72860(16) 0.17739(16) 0.21580(9)
C4 C 0.73251(18) 0.14852(18) 0.27661(9)
C5 C 0.88474(14) 0.39454(16) 0.21260(9)
C6 C 0.93182(16) 0.38742(16) 0.15626(9)
C7 C 0.92759(16) 0.45133(14) 0.10897(9)
C8 C 0.83788(17) 0.41690(17) 0.07796(9)
C9 C 0.83525(17) 0.47269(18) 0.03293(9)
C10 C 0.92242(17) 0.56454(17) 0.02018(10)
C11 C 1.00823(16) 0.59605(17) 0.05287(9)
H1 H 0.6808 0.1176 0.1959
H2 H 0.7949 0.2039 0.1996
H3 H 0.7991 0.1925 0.2915
H4 H 0.7174 0.0792 0.2788
H5 H 0.6832 0.1564 0.2977
H6 H 0.9222 0.4640 0.2247
H7 H 0.8928 0.3520 0.2393
H8 H 1.0019 0.4076 0.1624
H9 H 0.8953 0.3176 0.1446
H10 H 0.7784 0.3541 0.0879
H11 H 0.7746 0.4485 0.0110
H12 H 0.9228 0.6051 -0.0106
H13 H 1.0677 0.6601 0.0446
Cu1A Cu 1.41174(2) 0.56389(3) 0.130320(10)
Cu1Q Cu 1.23056(3) 0.48548(2) 0.203013(10)
Cu1B Cu 1.43611(3) 0.84785(2) 0.130320(10)
Cu1P Cu 1.25493(2) 0.76944(3) 0.203013(10)
Cu1A_2 Cu 0.41174(2) 0.56389(3) 0.130320(10)
Cu1B_2 Cu 0.43611(3) -0.15215(2) 0.130320(10)
Cl1A Cl 1.23404(4) 0.49579(6) 0.10234(2)
Cl1Q Cl 1.16246(6) 0.59508(4) 0.23099(2)
Cl1B Cl 1.50421(6) 0.73825(4) 0.10234(2)
Cl1O Cl 1.40492(4) 0.56737(4) 0.23099(2)
N1A N 0.45956(12) 0.47219(17) 0.09621(6)
N1B N 0.52781(17) -0.01263(12) 0.09621(6)
N1A_2 N 1.45956(12) 0.47219(17) 0.09621(6)
N1Q N 1.13886(17) 0.34596(12) 0.23712(6)
C1B C 0.59167(20) 0.22837(14) 0.21108(8)
C1A C 0.63670(14) 0.40833(20) 0.21108(8)
C2B C 0.56221(20) 0.30359(14) 0.21098(9)
C2A C 0.74138(14) 0.43779(20) 0.21098(9)
C3A C 0.82261(16) 0.55121(23) 0.21580(9)
C3B C 0.44879(23) 0.27140(16) 0.21580(9)
C4A C 0.85148(18) 0.58399(25) 0.27661(9)
C4B C 0.41601(25) 0.26749(18) 0.27661(9)
C5A C 0.60546(16) 0.49020(21) 0.21260(9)
C5B C 0.50980(21) 0.11526(14) 0.21260(9)
C6A C 0.61258(16) 0.54440(23) 0.15626(9)
C6B C 0.45560(23) 0.06818(16) 0.15626(9)
C7A C 0.54867(14) 0.47626(21) 0.10897(9)
C7B C 0.52374(21) 0.07241(16) 0.10897(9)
C8A C 0.58310(17) 0.42098(24) 0.07796(9)
C8B C 0.57902(24) 0.16212(17) 0.07796(9)
C9A C 0.52731(18) 0.36256(25) 0.03293(9)
C9B C 0.63744(25) 0.16475(17) 0.03293(9)
C10A C 0.43546(17) 0.35788(24) 0.02018(10)
C10B C 0.64212(24) 0.07758(17) 0.02018(10)
C11A C 0.40395(17) 0.41218(23) 0.05287(9)
C11B C 0.58782(23) -0.00823(16) 0.05287(9)
H1A H 0.8824 0.5632 0.1959
H1B H 0.4368 0.3192 0.1959
H2A H 0.7961 0.5910 0.1996
H2B H 0.4090 0.2051 0.1996
H3A H 0.8075 0.6066 0.2915
H3B H 0.3934 0.2009 0.2915
H4A H 0.9208 0.6382 0.2788
H4B H 0.3618 0.2826 0.2788
H5A H 0.8436 0.5268 0.2977
H5B H 0.4732 0.3168 0.2977
H6A H 0.5360 0.4582 0.2247
H6B H 0.5418 0.0778 0.2247
H7A H 0.6480 0.5408 0.2393
H7B H 0.4592 0.1072 0.2393
H8A H 0.5924 0.5943 0.1624
H8B H 0.4057 -0.0019 0.1624
H9A H 0.6824 0.5777 0.1446
H9B H 0.4223 0.1047 0.1446
H10A H 0.6459 0.4243 0.0879
H10B H 0.5757 0.2216 0.0879
H11A H 0.5515 0.3261 0.0110
H11B H 0.6739 0.2254 0.0110
H12A H 0.3949 0.3177 -0.0106
H12B H 0.6823 0.0772 -0.0106
H13A H 0.3399 0.4076 0.0446
H13B H 0.5924 -0.0677 0.0446
loop_
_geom_bond_atom_site_label_1
_geom_bond_atom_site_label_2
_geom_bond_site_symmetry_1
_geom_bond_site_symmetry_2
Cu1 Cl1 1_555 1_555
Cl1 Cu1B 1_555 1_555
N1 Cu1 1_555 1_555
C1 C2 1_555 1_555
C2 C3 1_555 1_555
C3 C4 1_555 1_555
C4 H3 1_555 1_555
C5 C1 1_555 1_555
C6 C5 1_555 1_555
C7 N1 1_555 1_555
C8 C7 1_555 1_555
C9 C8 1_555 1_555
C10 C9 1_555 1_555
C11 N1 1_555 1_555
H1 C3 1_555 1_555
H2 C3 1_555 1_555
H4 C4 1_555 1_555
H5 C4 1_555 1_555
H6 C5 1_555 1_555
H7 C5 1_555 1_555
H8 C6 1_555 1_555
H9 C6 1_555 1_555
H10 C8 1_555 1_555
H11 C9 1_555 1_555
H12 C10 1_555 1_555
H13 C11 1_555 1_555
Cu1A Cl1A 1_555 1_555
Cu1Q Cl1A 1_555 1_555
Cu1B Cl1B 1_555 1_555
Cu1P Cl1 1_555 1_555
Cu1A_2 N1A 1_555 1_555
Cu1B_2 N1B 1_555 1_555
Cl1A Cu1 1_555 1_555
Cl1Q Cu1 1_555 1_555
Cl1B Cu1A 1_555 1_555
Cl1O Cu1A 1_555 1_555
N1A C7A 1_555 1_555
N1B C7B 1_555 1_555
N1A_2 Cu1A 1_555 1_555
N1Q Cu1Q 1_555 1_555
C1B C2 1_555 1_555
C1A C2B 1_555 1_555
C2B C1B 1_555 1_555
C2A C1 1_555 1_555
C3A C2A 1_555 1_555
C3B C2B 1_555 1_555
C4A C3A 1_555 1_555
C4B C3B 1_555 1_555
C5A C1A 1_555 1_555
C5B C1B 1_555 1_555
C6A C5A 1_555 1_555
C6B C5B 1_555 1_555
C7A C6A 1_555 1_555
C7B C6B 1_555 1_555
C8A C7A 1_555 1_555
C8B C7B 1_555 1_555
C9A C8A 1_555 1_555
C9B C8B 1_555 1_555
C10A C9A 1_555 1_555
C10B C9B 1_555 1_555
C11A N1A 1_555 1_555
C11B N1B 1_555 1_555
H1A C3A 1_555 1_555
H1B C3B 1_555 1_555
H2A C3A 1_555 1_555
H2B C3B 1_555 1_555
H3A C4A 1_555 1_555
H3B C4B 1_555 1_555
H4A C4A 1_555 1_555
H4B C4B 1_555 1_555
H5A C4A 1_555 1_555
H5B C4B 1_555 1_555
H6A C5A 1_555 1_555
H6B C5B 1_555 1_555
H7A C5A 1_555 1_555
H7B C5B 1_555 1_555
H8A C6A 1_555 1_555
H8B C6B 1_555 1_555
H9A C6A 1_555 1_555
H9B C6B 1_555 1_555
H10A C8A 1_555 1_555
H10B C8B 1_555 1_555
H11A C9A 1_555 1_555
H11B C9B 1_555 1_555
H12A C10A 1_555 1_555
H12B C10B 1_555 1_555
H13A C11A 1_555 1_555
H13B C11B 1_555 1_555
C6 C7 1_555 1_555
C10 C11 1_555 1_555
Cu1Q Cl1Q 1_555 1_555
Cu1Q Cl1O 1_555 1_555
Cu1P Cl1Q 1_555 1_555
C1A C2A 1_555 1_555
C10A C11A 1_555 1_555
C10B C11B 1_555 1_555

#END
