
#######################################################################
#
#                 Cambridge Crystallographic Data Centre
#                                CCDC 
#
#######################################################################
#
# If this CIF has been generated from an entry in the Cambridge 
# Structural Database, then it will include bibliographic, chemical, 
# crystal, experimental, refinement or atomic coordinate data resulting 
# from the CCDC's data processing and validation procedures.
#
#######################################################################

data_HAWTIK
_symmetry_cell_setting           monoclinic
_symmetry_space_group_name_H-M   'P 21/c'
_symmetry_Int_Tables_number      14
_space_group_name_Hall           '-P 2ybc'
loop_
_symmetry_equiv_pos_site_id
_symmetry_equiv_pos_as_xyz
1 x,y,z
2 -x,1/2+y,1/2-z
3 -x,-y,-z
4 x,1/2-y,1/2+z
_cell_length_a                   10.3368(3)
_cell_length_b                   7.6318(3)
_cell_length_c                   17.4468(6)
_cell_angle_alpha                90
_cell_angle_beta                 120.782(2)
_cell_angle_gamma                90
_cell_volume                     1182.45
loop_
_atom_site_label
_atom_site_type_symbol
_atom_site_fract_x
_atom_site_fract_y
_atom_site_fract_z
Cu1 Cu 0.66797(7) 0.24214(9) 0.86454(4)
Cu2 Cu 0.49039(7) 0.55569(8) 0.85950(4)
Cu3 Cu 0.79692(8) 0.53957(9) 0.93262(4)
Br1 Br 0.93048(6) 0.28825(7) 0.90509(4)
C1 C 0.3166(6) 0.2974(6) 0.7164(3)
C2 C 0.1762(6) 0.4245(7) 0.7685(3)
H1 H 0.1680 0.5023 0.8084
C3 C 0.0502(6) 0.3363(7) 0.7069(4)
H2 H -0.0427 0.3456 0.7055
C4 C 0.0646(6) 0.2354(7) 0.6482(4)
H3 H -0.0221 0.1780 0.6024
C5 C 0.6642(5) 0.2800(6) 1.0259(3)
C6 C 0.6930(6) -0.0096(7) 1.0021(3)
H4 H 0.7064 -0.0978 0.9684
C7 C 0.6899(6) -0.0575(6) 1.0764(3)
H5 H 0.7039 -0.1758 1.0961
C8 C 0.6655(5) 0.0743(7) 1.1218(3)
H6 H 0.6579 0.0445 1.1722
N1 N 0.3099(5) 0.4064(5) 0.7752(3)
N2 N 0.1967(5) 0.2127(6) 0.6519(3)
N3 N 0.6780(5) 0.1560(5) 0.9750(3)
N4 N 0.6522(5) 0.2438(5) 1.0972(3)
S1 S 0.49145(14) 0.27255(17) 0.72486(8)
S2 S 0.67029(14) 0.50085(16) 1.00168(8)
Cu2A Cu 0.50961(7) 0.05569(8) 0.64050(4)
Cu3A Cu 0.20308(8) 0.03957(9) 0.56738(4)
N2A N 0.8033(5) 0.7127(6) 0.8481(3)
S1A S 0.50855(14) 0.77255(17) 0.77514(8)
loop_
_geom_bond_atom_site_label_1
_geom_bond_atom_site_label_2
_geom_bond_site_symmetry_1
_geom_bond_site_symmetry_2
Cu1 Br1 1_555 1_555
Cu2 N1 1_555 1_555
Cu3 Br1 1_555 1_555
C1 N1 1_555 1_555
C2 H1 1_555 1_555
C3 C2 1_555 1_555
H2 C3 1_555 1_555
C4 C3 1_555 1_555
H3 C4 1_555 1_555
C5 N3 1_555 1_555
C6 H4 1_555 1_555
C7 C6 1_555 1_555
H5 C7 1_555 1_555
C8 C7 1_555 1_555
H6 C8 1_555 1_555
N1 C2 1_555 1_555
N2 C1 1_555 1_555
N3 Cu1 1_555 1_555
N4 C5 1_555 1_555
S1 Cu1 1_555 1_555
S2 Cu2 1_555 1_555
Cu2A S1 1_555 1_555
Cu3A N2 1_555 1_555
N2A Cu3 1_555 1_555
S1A Cu2 1_555 1_555
Cu3 S2 1_555 1_555
C1 S1 1_555 1_555
C4 N2 1_555 1_555
C5 S2 1_555 1_555
C6 N3 1_555 1_555
C8 N4 1_555 1_555

#END
