
#######################################################################
#
#                 Cambridge Crystallographic Data Centre
#                                CCDC 
#
#######################################################################
#
# If this CIF has been generated from an entry in the Cambridge 
# Structural Database, then it will include bibliographic, chemical, 
# crystal, experimental, refinement or atomic coordinate data resulting 
# from the CCDC's data processing and validation procedures.
#
#######################################################################

data_HAWTUW
_symmetry_cell_setting           triclinic
_symmetry_space_group_name_H-M   'P -1'
_symmetry_Int_Tables_number      2
_space_group_name_Hall           '-P 1'
loop_
_symmetry_equiv_pos_site_id
_symmetry_equiv_pos_as_xyz
1 x,y,z
2 -x,-y,-z
_cell_length_a                   7.3069(4)
_cell_length_b                   8.0037(4)
_cell_length_c                   8.5871(4)
_cell_angle_alpha                97.410(2)
_cell_angle_beta                 100.887(2)
_cell_angle_gamma                111.137(2)
_cell_volume                     449.202
loop_
_atom_site_label
_atom_site_type_symbol
_atom_site_fract_x
_atom_site_fract_y
_atom_site_fract_z
Cu1 Cu 0.33406(11) 0.92235(10) 0.87895(9)
Cu2 Cu 0.39234(11) 1.27946(10) 0.95347(9)
I1 I 0.31406(5) 1.07838(5) 1.16423(4)
I2 I 0.27554(6) 1.12342(5) 0.65296(5)
C1 C -0.0528(8) 0.6563(8) 0.6631(7)
H1 H -0.0555 0.7655 0.6327
C2 C -0.2115(9) 0.4900(8) 0.5819(7)
H2 H -0.3241 0.4854 0.5026
C3 C -0.1984(8) 0.3352(8) 0.6207(7)
H3 H -0.2993 0.2180 0.5656
C4 C 0.1042(8) 0.5156(8) 0.8268(7)
N1 N 0.1024(7) 0.6696(6) 0.7811(6)
N2 N -0.0406(7) 0.3509(7) 0.7384(6)
H4 H -0.0295 0.2499 0.7600
S1 S 0.2709(2) 0.51513(19) 0.99360(17)
Cu1A Cu 0.66594(11) 1.07765(10) 1.12105(9)
Cu2_2 Cu 0.39234(11) 0.27946(10) 0.95347(9)
Cu2A Cu 0.60766(11) 0.72054(10) 1.04653(9)
I1A I 0.68594(5) 0.92162(5) 0.83577(4)
S1_2 S 0.2709(2) 1.51513(19) 0.99360(17)
S1A S 0.7291(2) 1.48487(19) 1.00640(17)
loop_
_geom_bond_atom_site_label_1
_geom_bond_atom_site_label_2
_geom_bond_site_symmetry_1
_geom_bond_site_symmetry_2
Cu1 I1 1_555 1_555
Cu2 I1 1_555 1_555
I1 Cu1A 1_555 1_555
I2 Cu1 1_555 1_555
C1 H1 1_555 1_555
C2 C1 1_555 1_555
H2 C2 1_555 1_555
C3 C2 1_555 1_555
H3 C3 1_555 1_555
C4 N1 1_555 1_555
N1 Cu1 1_555 1_555
N2 C3 1_555 1_555
H4 N2 1_555 1_555
S1 C4 1_555 1_555
Cu1A I1A 1_555 1_555
Cu2_2 S1 1_555 1_555
Cu2A S1 1_555 1_555
I1A Cu1 1_555 1_555
S1_2 Cu2 1_555 1_555
S1A Cu2 1_555 1_555
Cu2 I2 1_555 1_555
C1 N1 1_555 1_555
C4 N2 1_555 1_555
Cu2A I1A 1_555 1_555

#END
