
#######################################################################
#
#                 Cambridge Crystallographic Data Centre
#                                CCDC 
#
#######################################################################
#
# If this CIF has been generated from an entry in the Cambridge 
# Structural Database, then it will include bibliographic, chemical, 
# crystal, experimental, refinement or atomic coordinate data resulting 
# from the CCDC's data processing and validation procedures.
#
#######################################################################

data_HAWVOQ
_symmetry_cell_setting           orthorhombic
_symmetry_space_group_name_H-M   'P n n m'
_symmetry_Int_Tables_number      58
_space_group_name_Hall           '-P 2 2n'
loop_
_symmetry_equiv_pos_site_id
_symmetry_equiv_pos_as_xyz
1 x,y,z
2 -x,-y,z
3 1/2+x,1/2-y,1/2-z
4 1/2-x,1/2+y,1/2-z
5 -x,-y,-z
6 x,y,-z
7 1/2-x,1/2+y,1/2+z
8 1/2+x,1/2-y,1/2+z
_cell_length_a                   7.0433(2)
_cell_length_b                   5.9748(3)
_cell_length_c                   7.4039(4)
_cell_angle_alpha                90
_cell_angle_beta                 90
_cell_angle_gamma                90
_cell_volume                     311.573
loop_
_atom_site_label
_atom_site_type_symbol
_atom_site_fract_x
_atom_site_fract_y
_atom_site_fract_z
Co1 Co 0.0000 0.0000 0.0000
N1 N -0.0953(3) 0.2089(3) 0.2079(3)
N2 N -0.2275(4) 0.3380(5) 0.5000
C1 C -0.1519(3) 0.2644(4) 0.3474(4)
N2G N 0.2725(4) 0.1620(5) 0.0000
Co1G Co -0.5000 0.5000 0.5000
N2F N -0.2725(4) -0.1620(5) 0.0000
N1E N -0.0953(3) 0.2089(3) -0.2079(3)
N1D N 0.0953(3) -0.2089(3) -0.2079(3)
N1A N 0.0953(3) -0.2089(3) 0.2079(3)
C1A C 0.1519(3) -0.2644(4) 0.3474(4)
N2D N 0.2275(4) -0.3380(5) 0.5000
Co1F Co 0.5000 -0.5000 0.5000
C1D C 0.1519(3) -0.2644(4) 0.6526(4)
N1D_2 N 0.0953(3) -0.2089(3) 0.7921(3)
Co1D Co 0.0000 0.0000 1.0000
C1E C -0.1519(3) 0.2644(4) 0.6526(4)
N1E_2 N -0.0953(3) 0.2089(3) 0.7921(3)
loop_
_geom_bond_atom_site_label_1
_geom_bond_atom_site_label_2
_geom_bond_site_symmetry_1
_geom_bond_site_symmetry_2
Co1 N1 1_555 1_555
N1 C1 1_555 1_555
N2 C1 1_555 1_555
N2G Co1 1_555 1_555
Co1G N2 1_555 1_555
N2F Co1 1_555 1_555
N1E Co1 1_555 1_555
N1D Co1 1_555 1_555
N1A Co1 1_555 1_555
C1A N1A 1_555 1_555
N2D C1A 1_555 1_555
Co1F N2D 1_555 1_555
C1D N2D 1_555 1_555
N1D_2 C1D 1_555 1_555
Co1D N1D_2 1_555 1_555
C1E N2 1_555 1_555
N1E_2 Co1D 1_555 1_555
C1E N1E_2 1_555 1_555

#END
