
#######################################################################
#
#                 Cambridge Crystallographic Data Centre
#                                CCDC 
#
#######################################################################
#
# If this CIF has been generated from an entry in the Cambridge 
# Structural Database, then it will include bibliographic, chemical, 
# crystal, experimental, refinement or atomic coordinate data resulting 
# from the CCDC's data processing and validation procedures.
#
#######################################################################

data_HAWVOQ06
_symmetry_cell_setting           monoclinic
_symmetry_space_group_name_H-M   'P 21/n'
_symmetry_Int_Tables_number      14
_space_group_name_Hall           '-P 2yn'
loop_
_symmetry_equiv_pos_site_id
_symmetry_equiv_pos_as_xyz
1 x,y,z
2 1/2-x,1/2+y,1/2-z
3 -x,-y,-z
4 1/2+x,1/2-y,1/2+z
_cell_length_a                   7.33769(16)
_cell_length_b                   6.57499(10)
_cell_length_c                   5.50296(8)
_cell_angle_alpha                90
_cell_angle_beta                 98.0367(13)
_cell_angle_gamma                90
_cell_volume                     262.884
loop_
_atom_site_label
_atom_site_type_symbol
_atom_site_fract_x
_atom_site_fract_y
_atom_site_fract_z
Co1 Co 0.500 0.000 0.000
N1 N 0.35553(9) 0.1418(4) 0.2496(3)
N2 N 0.04226(7) 0.22390(16) 0.3381(3)
N3 N -0.24325(10) 0.03124(18) 0.2029(4)
C1 C 0.20951(7) 0.1783(3) 0.2914(2)
C2 C -0.10953(8) 0.12007(13) 0.2633(3)
N1B N -0.35553(9) -0.1418(4) -0.2496(3)
N2B N -0.04226(7) -0.22390(16) -0.3381(3)
N3B N 0.24325(10) -0.03124(18) -0.2029(4)
C1B C -0.20951(7) -0.1783(3) -0.2914(2)
C2B C 0.10953(8) -0.12007(13) -0.2633(3)
Co1_2 Co -0.500 0.000 0.000
Co1A Co 0.000 -0.500 -0.500
Co1A_2 Co 0.000 0.500 0.500
N1B_2 N 0.64447(9) -0.1418(4) -0.2496(3)
N2A N 0.45774(7) -0.27610(16) 0.1619(3)
N2C N 0.54226(7) 0.27610(16) -0.1619(3)
N3_2 N 0.75675(10) 0.03124(18) 0.2029(4)
loop_
_geom_bond_atom_site_label_1
_geom_bond_atom_site_label_2
_geom_bond_site_symmetry_1
_geom_bond_site_symmetry_2
Co1 N1 1_555 1_555
N1 C1 1_555 1_555
N2 C1 1_555 1_555
N3 C2 1_555 1_555
C2 N2 1_555 1_555
N1B C1B 1_555 1_555
N2B C1B 1_555 1_555
N3B Co1 1_555 1_555
C2B N2B 1_555 1_555
Co1_2 N3 1_555 1_555
Co1A N2B 1_555 1_555
Co1A_2 N2 1_555 1_555
N1B_2 Co1 1_555 1_555
N2A Co1 1_555 1_555
N2C Co1 1_555 1_555
N3_2 Co1 1_555 1_555
N1B Co1_2 1_555 1_555
N3B C2B 1_555 1_555

#END
