
#######################################################################
#
#                 Cambridge Crystallographic Data Centre
#                                CCDC 
#
#######################################################################
#
# If this CIF has been generated from an entry in the Cambridge 
# Structural Database, then it will include bibliographic, chemical, 
# crystal, experimental, refinement or atomic coordinate data resulting 
# from the CCDC's data processing and validation procedures.
#
#######################################################################

data_HAWVOQ01
_symmetry_cell_setting           orthorhombic
_symmetry_space_group_name_H-M   'P n n m'
_symmetry_Int_Tables_number      58
_space_group_name_Hall           '-P 2 2n'
loop_
_symmetry_equiv_pos_site_id
_symmetry_equiv_pos_as_xyz
1 x,y,z
2 1/2+x,1/2-y,1/2-z
3 1/2-x,1/2+y,1/2-z
4 -x,-y,z
5 -x,-y,-z
6 1/2-x,1/2+y,1/2+z
7 1/2+x,1/2-y,1/2+z
8 x,y,-z
_cell_length_a                   5.970(1)
_cell_length_b                   7.060(1)
_cell_length_c                   7.406(1)
_cell_angle_alpha                90
_cell_angle_beta                 90
_cell_angle_gamma                90
_cell_volume                     312.15
loop_
_atom_site_label
_atom_site_type_symbol
_atom_site_fract_x
_atom_site_fract_y
_atom_site_fract_z
Co1 Co 0.0000 0.0000 0.5000
N1 N 0.2087(3) 0.0958(2) 0.2916(2)
N2 N 0.3366(4) 0.2281(3) 0.0000
C1 C 0.2635(3) 0.1526(3) 0.1526(2)
N2E N 0.1634(4) -0.2719(3) 0.5000
Co1E Co 0.5000 0.5000 0.0000
N2F N -0.1634(4) 0.2719(3) 0.5000
N1G N 0.2087(3) 0.0958(2) 0.7084(2)
N1D N -0.2087(3) -0.0958(2) 0.7084(2)
N1C N -0.2087(3) -0.0958(2) 0.2916(2)
C1C C -0.2635(3) -0.1526(3) 0.1526(2)
N2D N -0.3366(4) -0.2281(3) 0.0000
Co1F Co -0.5000 -0.5000 0.0000
C1D C -0.2635(3) -0.1526(3) -0.1526(2)
N1D_2 N -0.2087(3) -0.0958(2) -0.2916(2)
Co1D Co 0.0000 0.0000 -0.5000
C1G C 0.2635(3) 0.1526(3) -0.1526(2)
N1G_2 N 0.2087(3) 0.0958(2) -0.2916(2)
loop_
_geom_bond_atom_site_label_1
_geom_bond_atom_site_label_2
_geom_bond_site_symmetry_1
_geom_bond_site_symmetry_2
Co1 N1 1_555 1_555
N1 C1 1_555 1_555
N2 C1 1_555 1_555
N2E Co1 1_555 1_555
Co1E N2 1_555 1_555
N2F Co1 1_555 1_555
N1G Co1 1_555 1_555
N1D Co1 1_555 1_555
N1C Co1 1_555 1_555
C1C N1C 1_555 1_555
N2D C1C 1_555 1_555
Co1F N2D 1_555 1_555
C1D N2D 1_555 1_555
N1D_2 C1D 1_555 1_555
Co1D N1D_2 1_555 1_555
C1G N2 1_555 1_555
N1G_2 Co1D 1_555 1_555
C1G N1G_2 1_555 1_555

#END
