
#######################################################################
#
#                 Cambridge Crystallographic Data Centre
#                                CCDC 
#
#######################################################################
#
# If this CIF has been generated from an entry in the Cambridge 
# Structural Database, then it will include bibliographic, chemical, 
# crystal, experimental, refinement or atomic coordinate data resulting 
# from the CCDC's data processing and validation procedures.
#
#######################################################################

data_HAWWEI
_symmetry_cell_setting           orthorhombic
_symmetry_space_group_name_H-M   'F d d d'
_symmetry_Int_Tables_number      70
_space_group_name_Hall           '-F 2uv 2vw'
loop_
_symmetry_equiv_pos_site_id
_symmetry_equiv_pos_as_xyz
1 x,y,z
2 1/4-x,1/4-y,z
3 x,1/4-y,1/4-z
4 1/4-x,y,1/4-z
5 x,1/2+y,1/2+z
6 1/2+x,y,1/2+z
7 1/2+x,1/2+y,z
8 1/4-x,3/4-y,1/2+z
9 x,3/4-y,3/4-z
10 1/4-x,1/2+y,3/4-z
11 3/4-x,1/4-y,1/2+z
12 1/2+x,1/4-y,3/4-z
13 3/4-x,y,3/4-z
14 3/4-x,3/4-y,z
15 1/2+x,3/4-y,1/4-z
16 3/4-x,1/2+y,1/4-z
17 -x,-y,-z
18 3/4+x,3/4+y,-z
19 -x,3/4+y,3/4+z
20 3/4+x,-y,3/4+z
21 -x,1/2-y,1/2-z
22 1/2-x,-y,1/2-z
23 1/2-x,1/2-y,-z
24 3/4+x,1/4+y,1/2-z
25 -x,1/4+y,1/4+z
26 3/4+x,1/2-y,1/4+z
27 1/4+x,3/4+y,1/2-z
28 1/2-x,3/4+y,1/4+z
29 1/4+x,-y,1/4+z
30 1/4+x,1/4+y,-z
31 1/2-x,1/4+y,3/4+z
32 1/4+x,1/2-y,3/4+z
_cell_length_a                   23.1613(5)
_cell_length_b                   24.0324(6)
_cell_length_c                   29.47850(10)
_cell_angle_alpha                90
_cell_angle_beta                 90
_cell_angle_gamma                90
_cell_volume                     16408.4
loop_
_atom_site_label
_atom_site_type_symbol
_atom_site_fract_x
_atom_site_fract_y
_atom_site_fract_z
Zn1 Zn 0.61515(2) -0.14266(2) 0.49178(2)
N1 N 0.61715(16) -0.22876(17) 0.49513(13)
N2 N 0.52642(16) -0.13441(16) 0.48438(14)
O1 O 0.62009(15) -0.10536(17) 0.55157(15)
O2 O 0.70667(19) -0.12937(19) 0.53766(18)
O3 O 0.6619(2) -0.13291(18) 0.43827(14)
O4 O 0.6264(2) -0.0502(2) 0.4456(3)
C1 C 0.6643(2) -0.2549(2) 0.48062(18)
H1 H 0.6957 -0.2333 0.4697
C2 C 0.6692(2) -0.3122(2) 0.48079(18)
H2 H 0.7038 -0.3295 0.4707
C3 C 0.6233(2) -0.3441(2) 0.49589(16)
C4 C 0.5739(2) -0.3168(2) 0.51063(16)
H3 H 0.5413 -0.3373 0.5207
C5 C 0.5731(2) -0.2598(2) 0.51046(17)
H4 H 0.5397 -0.2414 0.5217
C6 C 0.4974(2) -0.1513(2) 0.44768(18)
H5 H 0.5186 -0.1664 0.4230
C7 C 0.4387(2) -0.1478(2) 0.44400(17)
H6 H 0.4198 -0.1599 0.4171
C8 C 0.4069(2) -0.1264(2) 0.47987(18)
C9 C 0.4375(2) -0.1088(3) 0.5175(2)
H7 H 0.4176 -0.0934 0.5428
C10 C 0.4965(2) -0.1134(3) 0.5185(2)
H8 H 0.5167 -0.1010 0.5447
C11 C 0.6721(2) -0.1029(2) 0.55978(18)
C12 C 0.6936(2) -0.06428(19) 0.59677(17)
C13 C 0.6572(2) -0.03512(18) 0.62638(16)
C14 C 0.6827(2) -0.0019(2) 0.65880(19)
H9 H 0.6590 0.0170 0.6801
C15 C 0.7422(3) 0.0046(2) 0.6612(2)
H10 H 0.7585 0.0284 0.6835
C16 C 0.7774(3) -0.0231(2) 0.6317(2)
H11 H 0.8181 -0.0183 0.6329
C17 C 0.7530(2) -0.0580(2) 0.60048(18)
H12 H 0.7774 -0.0785 0.5807
C18 C 0.6615(2) -0.0829(3) 0.4279(2)
C19 C 0.7086(2) -0.0604(2) 0.39801(18)
C20 C 0.7482(2) -0.0938(2) 0.37544(17)
C21 C 0.7938(3) -0.0670(3) 0.3530(2)
H13 H 0.8221 -0.0887 0.3379
C22 C 0.7984(3) -0.0104(4) 0.3526(2)
H14 H 0.8301 0.0065 0.3375
C23 C 0.7582(3) 0.0224(3) 0.3735(2)
H15 H 0.7610 0.0618 0.3723
C24 C 0.7144(3) -0.0025(3) 0.3960(2)
H16 H 0.6866 0.0201 0.4110
Zn1A Zn 0.63485(2) -0.60734(2) 0.49178(2)
Zn1M Zn 0.13485(2) -0.10734(2) 0.49178(2)
Zn1C Zn 0.63485(2) -0.14266(2) 0.75822(2)
Zn1H Zn 0.61515(2) -0.10734(2) 0.25822(2)
N1A N 0.63285(16) -0.52124(17) 0.49513(13)
N2M N 0.22358(16) -0.11559(16) 0.48438(14)
N2A N 0.72358(16) -0.61559(16) 0.48438(14)
O1C O 0.62991(15) -0.10536(17) 0.69843(15)
O1A O 0.62991(15) -0.64464(17) 0.55157(15)
O2C O 0.54333(19) -0.12937(19) 0.71234(18)
O2A O 0.54333(19) -0.62063(19) 0.53766(18)
O3H O 0.6619(2) -0.11709(18) 0.31173(14)
O3A O 0.5881(2) -0.61709(18) 0.43827(14)
O4H O 0.6264(2) -0.1998(2) 0.3044(3)
O4A O 0.6236(2) -0.6998(2) 0.4456(3)
C1A C 0.5857(2) -0.4951(2) 0.48062(18)
H1A H 0.5543 -0.5167 0.4697
C2A C 0.5808(2) -0.4378(2) 0.48079(18)
H2A H 0.5462 -0.4205 0.4707
C3A C 0.6267(2) -0.4059(2) 0.49589(16)
C4A C 0.6761(2) -0.4332(2) 0.51063(16)
H3A H 0.7087 -0.4127 0.5207
C5A C 0.6769(2) -0.4902(2) 0.51046(17)
H4A H 0.7103 -0.5086 0.5217
C6M C 0.2526(2) -0.0987(2) 0.44768(18)
H5M H 0.2314 -0.0836 0.4230
C7M C 0.3113(2) -0.1022(2) 0.44400(17)
H6M H 0.3302 -0.0901 0.4171
C8M C 0.3431(2) -0.1236(2) 0.47987(18)
C9M C 0.3125(2) -0.1412(3) 0.5175(2)
H7M H 0.3324 -0.1566 0.5428
C10M C 0.2535(2) -0.1366(3) 0.5185(2)
H8M H 0.2333 -0.1490 0.5447
C11C C 0.5779(2) -0.1029(2) 0.69022(18)
C12C C 0.5564(2) -0.06428(19) 0.65323(17)
C13C C 0.5928(2) -0.03512(18) 0.62362(16)
C14C C 0.5673(2) -0.0019(2) 0.59120(19)
H9C H 0.5910 0.0170 0.5699
C15C C 0.5078(3) 0.0046(2) 0.5888(2)
H10C H 0.4915 0.0284 0.5665
C16C C 0.4726(3) -0.0231(2) 0.6183(2)
H11C H 0.4319 -0.0183 0.6171
C17C C 0.4970(2) -0.0580(2) 0.64952(18)
H12C H 0.4726 -0.0785 0.6693
C18H C 0.6615(2) -0.1671(3) 0.3221(2)
C19H C 0.7086(2) -0.1896(2) 0.35199(18)
C20H C 0.7482(2) -0.1562(2) 0.37456(17)
C21H C 0.7938(3) -0.1830(3) 0.3970(2)
H13H H 0.8221 -0.1613 0.4121
C22H C 0.7984(3) -0.2396(4) 0.3974(2)
H14H H 0.8301 -0.2565 0.4125
C23H C 0.7582(3) -0.2724(3) 0.3765(2)
H15H H 0.7610 -0.3118 0.3777
C24H C 0.7144(3) -0.2475(3) 0.3540(2)
H16H H 0.6866 -0.2701 0.3390
loop_
_geom_bond_atom_site_label_1
_geom_bond_atom_site_label_2
_geom_bond_site_symmetry_1
_geom_bond_site_symmetry_2
Zn1 N1 1_555 1_555
N1 C1 1_555 1_555
N2 Zn1 1_555 1_555
O1 Zn1 1_555 1_555
O2 Zn1 1_555 1_555
O3 Zn1 1_555 1_555
O4 Zn1 1_555 1_555
C1 H1 1_555 1_555
C2 C1 1_555 1_555
H2 C2 1_555 1_555
C3 C2 1_555 1_555
C4 C3 1_555 1_555
H3 C4 1_555 1_555
C5 N1 1_555 1_555
H4 C5 1_555 1_555
C6 N2 1_555 1_555
H5 C6 1_555 1_555
C7 C6 1_555 1_555
H6 C7 1_555 1_555
C8 C7 1_555 1_555
C9 C8 1_555 1_555
H7 C9 1_555 1_555
C10 N2 1_555 1_555
H8 C10 1_555 1_555
C11 O1 1_555 1_555
C12 C11 1_555 1_555
C13 C12 1_555 1_555
C14 C13 1_555 1_555
H9 C14 1_555 1_555
C15 C14 1_555 1_555
H10 C15 1_555 1_555
C16 C15 1_555 1_555
H11 C16 1_555 1_555
C17 C12 1_555 1_555
H12 C17 1_555 1_555
C18 O3 1_555 1_555
C19 C18 1_555 1_555
C20 C19 1_555 1_555
C21 C20 1_555 1_555
H13 C21 1_555 1_555
C22 C21 1_555 1_555
H14 C22 1_555 1_555
C23 C22 1_555 1_555
H15 C23 1_555 1_555
C24 C19 1_555 1_555
H16 C24 1_555 1_555
Zn1A N1A 1_555 1_555
Zn1M N2M 1_555 1_555
Zn1C O1C 1_555 1_555
Zn1H O3H 1_555 1_555
N1A C1A 1_555 1_555
N2M C6M 1_555 1_555
N2A Zn1A 1_555 1_555
O1C C11C 1_555 1_555
O1A Zn1A 1_555 1_555
O2C Zn1C 1_555 1_555
O2A Zn1A 1_555 1_555
O3H C18H 1_555 1_555
O3A Zn1A 1_555 1_555
O4H Zn1H 1_555 1_555
O4A Zn1A 1_555 1_555
C1A H1A 1_555 1_555
C2A C1A 1_555 1_555
H2A C2A 1_555 1_555
C3A C3 1_555 1_555
C4A C3A 1_555 1_555
H3A C4A 1_555 1_555
C5A N1A 1_555 1_555
H4A C5A 1_555 1_555
C6M H5M 1_555 1_555
C7M C6M 1_555 1_555
H6M C7M 1_555 1_555
C8M C8 1_555 1_555
C9M C8M 1_555 1_555
H7M C9M 1_555 1_555
C10M N2M 1_555 1_555
H8M C10M 1_555 1_555
C11C O2C 1_555 1_555
C12C C11C 1_555 1_555
C13C C13 1_555 1_555
C14C C13C 1_555 1_555
H9C C14C 1_555 1_555
C15C C14C 1_555 1_555
H10C C15C 1_555 1_555
C16C C15C 1_555 1_555
H11C C16C 1_555 1_555
C17C C12C 1_555 1_555
H12C C17C 1_555 1_555
C18H O4H 1_555 1_555
C19H C18H 1_555 1_555
C20H C20 1_555 1_555
C21H C20H 1_555 1_555
H13H C21H 1_555 1_555
C22H C21H 1_555 1_555
H14H C22H 1_555 1_555
C23H C22H 1_555 1_555
H15H C23H 1_555 1_555
C24H C19H 1_555 1_555
H16H C24H 1_555 1_555
O2 C11 1_555 1_555
O4 C18 1_555 1_555
C4 C5 1_555 1_555
C9 C10 1_555 1_555
C16 C17 1_555 1_555
C23 C24 1_555 1_555
C2A C3A 1_555 1_555
C4A C5A 1_555 1_555
C7M C8M 1_555 1_555
C9M C10M 1_555 1_555
C12C C13C 1_555 1_555
C16C C17C 1_555 1_555
C19H C20H 1_555 1_555
C23H C24H 1_555 1_555

#END
