
#######################################################################
#
#                 Cambridge Crystallographic Data Centre
#                                CCDC 
#
#######################################################################
#
# If this CIF has been generated from an entry in the Cambridge 
# Structural Database, then it will include bibliographic, chemical, 
# crystal, experimental, refinement or atomic coordinate data resulting 
# from the CCDC's data processing and validation procedures.
#
#######################################################################

data_HAWWEI01
_symmetry_cell_setting           orthorhombic
_symmetry_space_group_name_H-M   'F d d d'
_symmetry_Int_Tables_number      70
_space_group_name_Hall           '-F 2uv 2vw'
loop_
_symmetry_equiv_pos_site_id
_symmetry_equiv_pos_as_xyz
1 x,y,z
2 x,1/2+y,1/2+z
3 x,1/4-y,1/4-z
4 1/2+x,y,1/2+z
5 1/4-x,y,1/4-z
6 1/2+x,1/2+y,z
7 1/4-x,1/4-y,z
8 3/4-x,3/4-y,z
9 3/4-x,y,3/4-z
10 x,3/4-y,3/4-z
11 3/4-x,1/4-y,1/2+z
12 3/4-x,1/2+y,1/4-z
13 1/4-x,3/4-y,1/2+z
14 1/2+x,3/4-y,1/4-z
15 1/4-x,1/2+y,3/4-z
16 1/2+x,1/4-y,3/4-z
17 -x,-y,-z
18 -x,1/2-y,1/2-z
19 -x,3/4+y,3/4+z
20 1/2-x,-y,1/2-z
21 3/4+x,-y,3/4+z
22 1/2-x,1/2-y,-z
23 3/4+x,3/4+y,-z
24 1/4+x,1/4+y,-z
25 1/4+x,-y,1/4+z
26 -x,1/4+y,1/4+z
27 1/4+x,3/4+y,1/2-z
28 1/4+x,1/2-y,3/4+z
29 3/4+x,1/4+y,1/2-z
30 1/2-x,1/4+y,3/4+z
31 3/4+x,1/2-y,1/4+z
32 1/2-x,3/4+y,1/4+z
_cell_length_a                   23.270(3)
_cell_length_b                   24.089(4)
_cell_length_c                   29.240(4)
_cell_angle_alpha                90
_cell_angle_beta                 90
_cell_angle_gamma                90
_cell_volume                     16390.5
loop_
_atom_site_label
_atom_site_type_symbol
_atom_site_fract_x
_atom_site_fract_y
_atom_site_fract_z
C1 C 0.24720(8) 0.59870(8) 0.05289(7)
H1 H 0.2677 0.5842 0.0775
C2 C 0.18822(8) 0.60233(9) 0.05623(7)
H2 H 0.1696 0.5908 0.0827
C3 C 0.15699(8) 0.62330(9) 0.01985(7)
C4 C 0.18727(9) 0.64087(12) -0.01806(8)
H3 H 0.1679 0.6559 -0.0430
C5 C 0.24633(9) 0.63610(11) -0.01901(8)
H4 H 0.2661 0.6480 -0.0449
C6 C 0.41401(8) 0.49500(9) 0.01961(8)
H5 H 0.4446 0.5162 0.0303
C7 C 0.41925(8) 0.43796(8) 0.01935(8)
H6 H 0.4531 0.4212 0.0291
C8 C 0.37328(8) 0.40574(8) 0.00438(6)
C9 C 0.32402(8) 0.43295(8) -0.01049(7)
H7 H 0.2923 0.4129 -0.0206
C10 C 0.32286(8) 0.49000(8) -0.01008(7)
H8 H 0.2901 0.5079 -0.0208
C11 C 0.44354(8) 0.68537(8) -0.09676(6)
C12 C 0.40734(8) 0.71430(7) -0.12648(6)
C13 C 0.43253(9) 0.74838(9) -0.15952(8)
H9 H 0.4091 0.7671 -0.1802
C14 C 0.49149(10) 0.75504(9) -0.16220(9)
H10 H 0.5071 0.7785 -0.1842
C15 C 0.52698(9) 0.72722(10) -0.13264(8)
H11 H 0.5666 0.7320 -0.1341
C16 C 0.50325(9) 0.69207(10) -0.10074(8)
H12 H 0.5274 0.6723 -0.0813
C17 C 0.45825(9) 0.68971(10) 0.10203(7)
C18 C 0.46392(11) 0.74719(11) 0.10381(9)
H13 H 0.4368 0.7692 0.0891
C19 C 0.50844(13) 0.77220(13) 0.12668(9)
H14 H 0.5112 0.8107 0.1277
C20 C 0.54888(14) 0.73954(14) 0.14799(9)
H15 H 0.5798 0.7559 0.1630
C21 C 0.54361(11) 0.68249(13) 0.14716(8)
H16 H 0.5711 0.6610 0.1619
C22 C 0.49808(9) 0.65623(10) 0.12483(7)
C23 C 0.42277(8) 0.64716(8) -0.05956(7)
C24 C 0.41062(9) 0.66756(11) 0.07201(8)
N1 N 0.27609(7) 0.61512(6) 0.01582(6)
N2 N 0.36663(7) 0.52106(7) 0.00501(5)
O1 O 0.36973(6) 0.64413(7) -0.05158(6)
O2 O 0.45763(7) 0.62050(8) -0.03705(8)
O3 O 0.41074(8) 0.61689(7) 0.06281(6)
O4 O 0.37604(10) 0.69983(10) 0.05415(12)
Zn1 Zn 0.364542(9) 0.606786(9) 0.008378(8)
C1F C 0.00280(8) 0.65130(8) 0.05289(7)
H1F H -0.0177 0.6658 0.0775
C2F C 0.06178(8) 0.64767(9) 0.05623(7)
H2F H 0.0804 0.6592 0.0827
C3F C 0.09301(8) 0.62670(9) 0.01985(7)
C4F C 0.06273(9) 0.60913(12) -0.01806(8)
H3F H 0.0821 0.5941 -0.0430
C5F C 0.00367(9) 0.61390(11) -0.01901(8)
H4F H -0.0161 0.6020 -0.0449
C6G C 0.33599(8) 0.25500(9) 0.01961(8)
H5G H 0.3054 0.2338 0.0303
C7G C 0.33075(8) 0.31204(8) 0.01935(8)
H6G H 0.2969 0.3288 0.0291
C8G C 0.37672(8) 0.34426(8) 0.00438(6)
C9G C 0.42598(8) 0.31705(8) -0.01049(7)
H7G H 0.4577 0.3371 -0.0206
C10G C 0.42714(8) 0.26000(8) -0.01008(7)
H8G H 0.4599 0.2421 -0.0208
C11H C 0.30646(8) 0.68537(8) -0.15324(6)
C12H C 0.34266(8) 0.71430(7) -0.12352(6)
C13H C 0.31747(9) 0.74838(9) -0.09048(8)
H9H H 0.3409 0.7671 -0.0698
C14H C 0.25851(10) 0.75504(9) -0.08780(9)
H10H H 0.2429 0.7785 -0.0658
C15H C 0.22302(9) 0.72722(10) -0.11736(8)
H11H H 0.1834 0.7320 -0.1159
C16H C 0.24675(9) 0.69207(10) -0.14926(8)
H12H H 0.2226 0.6723 -0.1687
C17B C 0.45825(9) 0.56029(10) 0.14797(7)
C18B C 0.46392(11) 0.50281(11) 0.14619(9)
H13B H 0.4368 0.4808 0.1609
C19B C 0.50844(13) 0.47780(13) 0.12332(9)
H14B H 0.5112 0.4393 0.1223
C20B C 0.54888(14) 0.51046(14) 0.10201(9)
H15B H 0.5798 0.4941 0.0870
C21B C 0.54361(11) 0.56751(13) 0.10284(8)
H16B H 0.5711 0.5890 0.0881
C22B C 0.49808(9) 0.59377(10) 0.12517(7)
C23H C 0.32723(8) 0.64716(8) -0.19044(7)
C24B C 0.41062(9) 0.58244(11) 0.17799(8)
N1F N -0.02609(7) 0.63488(6) 0.01582(6)
N2G N 0.38337(7) 0.22894(7) 0.00501(5)
N2F N -0.11663(7) 0.72894(7) 0.00501(5)
O1H O 0.38027(6) 0.64413(7) -0.19842(6)
O1F O -0.11973(6) 0.60587(7) -0.05158(6)
O2H O 0.29237(7) 0.62050(8) -0.21295(8)
O2F O -0.20763(7) 0.62950(8) -0.03705(8)
O3B O 0.41074(8) 0.63311(7) 0.18719(6)
O3F O -0.16074(8) 0.63311(7) 0.06281(6)
O4B O 0.37604(10) 0.55017(10) 0.19585(12)
O4F O -0.12604(10) 0.55017(10) 0.05415(12)
Zn1F Zn -0.114542(9) 0.643214(9) 0.008378(8)
Zn1G Zn 0.385458(9) 0.143214(9) 0.008378(8)
Zn1H Zn 0.385458(9) 0.606786(9) -0.258378(8)
Zn1B Zn 0.364542(9) 0.643214(9) 0.241622(8)
loop_
_geom_bond_atom_site_label_1
_geom_bond_atom_site_label_2
_geom_bond_site_symmetry_1
_geom_bond_site_symmetry_2
C1 H1 1_555 1_555
C2 C1 1_555 1_555
H2 C2 1_555 1_555
C3 C2 1_555 1_555
C4 C3 1_555 1_555
H3 C4 1_555 1_555
C5 C4 1_555 1_555
H4 C5 1_555 1_555
C6 H5 1_555 1_555
C7 C6 1_555 1_555
H6 C7 1_555 1_555
C8 C7 1_555 1_555
C9 C8 1_555 1_555
H7 C9 1_555 1_555
C10 C9 1_555 1_555
H8 C10 1_555 1_555
C11 C12 1_555 1_555
C12 C13 1_555 1_555
C13 H9 1_555 1_555
C14 C13 1_555 1_555
H10 C14 1_555 1_555
C15 C14 1_555 1_555
H11 C15 1_555 1_555
C16 C11 1_555 1_555
H12 C16 1_555 1_555
C17 C18 1_555 1_555
C18 H13 1_555 1_555
C19 C18 1_555 1_555
H14 C19 1_555 1_555
C20 C19 1_555 1_555
H15 C20 1_555 1_555
C21 C20 1_555 1_555
H16 C21 1_555 1_555
C22 C17 1_555 1_555
C23 C11 1_555 1_555
C24 C17 1_555 1_555
N1 C1 1_555 1_555
N2 C6 1_555 1_555
O1 C23 1_555 1_555
O2 C23 1_555 1_555
O3 C24 1_555 1_555
O4 C24 1_555 1_555
Zn1 N1 1_555 1_555
C1F H1F 1_555 1_555
C2F C1F 1_555 1_555
H2F C2F 1_555 1_555
C3F C3 1_555 1_555
C4F C3F 1_555 1_555
H3F C4F 1_555 1_555
C5F C4F 1_555 1_555
H4F C5F 1_555 1_555
C6G H5G 1_555 1_555
C7G C6G 1_555 1_555
H6G C7G 1_555 1_555
C8G C8 1_555 1_555
C9G C8G 1_555 1_555
H7G C9G 1_555 1_555
C10G C9G 1_555 1_555
H8G C10G 1_555 1_555
C11H C12H 1_555 1_555
C12H C12 1_555 1_555
C13H C12H 1_555 1_555
H9H C13H 1_555 1_555
C14H C13H 1_555 1_555
H10H C14H 1_555 1_555
C15H C14H 1_555 1_555
H11H C15H 1_555 1_555
C16H C11H 1_555 1_555
H12H C16H 1_555 1_555
C17B C18B 1_555 1_555
C18B H13B 1_555 1_555
C19B C18B 1_555 1_555
H14B C19B 1_555 1_555
C20B C19B 1_555 1_555
H15B C20B 1_555 1_555
C21B C20B 1_555 1_555
H16B C21B 1_555 1_555
C22B C22 1_555 1_555
C23H C11H 1_555 1_555
C24B C17B 1_555 1_555
N1F C1F 1_555 1_555
N2G C6G 1_555 1_555
N2F Zn1F 1_555 1_555
O1H C23H 1_555 1_555
O1F Zn1F 1_555 1_555
O2H C23H 1_555 1_555
O2F Zn1F 1_555 1_555
O3B C24B 1_555 1_555
O3F Zn1F 1_555 1_555
O4B C24B 1_555 1_555
O4F Zn1F 1_555 1_555
Zn1F N1F 1_555 1_555
Zn1G N2G 1_555 1_555
Zn1H O1H 1_555 1_555
Zn1B O3B 1_555 1_555
C5 N1 1_555 1_555
C10 N2 1_555 1_555
C15 C16 1_555 1_555
C21 C22 1_555 1_555
N2 Zn1 1_555 1_555
O1 Zn1 1_555 1_555
O2 Zn1 1_555 1_555
O3 Zn1 1_555 1_555
O4 Zn1 1_555 1_555
C2F C3F 1_555 1_555
C5F N1F 1_555 1_555
C7G C8G 1_555 1_555
C10G N2G 1_555 1_555
C15H C16H 1_555 1_555
C17B C22B 1_555 1_555
C21B C22B 1_555 1_555
O2H Zn1H 1_555 1_555
O4B Zn1B 1_555 1_555

#END
