
#######################################################################
#
#                 Cambridge Crystallographic Data Centre
#                                CCDC 
#
#######################################################################
#
# If this CIF has been generated from an entry in the Cambridge 
# Structural Database, then it will include bibliographic, chemical, 
# crystal, experimental, refinement or atomic coordinate data resulting 
# from the CCDC's data processing and validation procedures.
#
#######################################################################

data_HAWZEK01
_symmetry_cell_setting           triclinic
_symmetry_space_group_name_H-M   'P -1'
_symmetry_Int_Tables_number      2
_space_group_name_Hall           '-P 1'
loop_
_symmetry_equiv_pos_site_id
_symmetry_equiv_pos_as_xyz
1 x,y,z
2 -x,-y,-z
_cell_length_a                   7.315(1)
_cell_length_b                   7.863(2)
_cell_length_c                   10.258(2)
_cell_angle_alpha                99.77(3)
_cell_angle_beta                 106.15(3)
_cell_angle_gamma                109.59(3)
_cell_volume                     510.891
loop_
_atom_site_label
_atom_site_type_symbol
_atom_site_fract_x
_atom_site_fract_y
_atom_site_fract_z
K1 K 0.40970(4) 0.95061(4) 0.15685(3)
K2 K 0.85019(4) 1.66807(4) -0.12229(3)
N1 N 0.9297(2) 1.7000(1) 0.2894(1)
C1 C 0.8036(2) 1.5008(2) 0.2794(1)
C2 C 1.1018(2) 1.8078(2) 0.4297(1)
C3 C 0.7933(2) 1.8013(2) 0.2460(1)
C4 C 0.6816(2) 1.3912(2) 0.1219(1)
C5 C 1.2913(2) 1.7616(2) 0.4391(1)
C6 C 0.8977(2) 1.9587(2) 0.1874(1)
O1 O 0.4986(1) 1.2779(1) 0.0888(1)
O2 O 0.7805(2) 1.4261(1) 0.0405(1)
O3 O 1.2974(2) 1.6817(2) 0.3249(1)
O4 O 1.4242(2) 1.8134(2) 0.5610(1)
O5 O 1.0431(1) 1.9462(1) 0.1499(1)
O6 O 0.8221(2) 2.0779(1) 0.1768(1)
H1 H 0.993(2) 1.696(2) 0.229(2)
H2 H 0.715(3) 1.503(2) 0.331(2)
H3 H 0.899(3) 1.443(2) 0.320(2)
H4 H 1.050(3) 1.780(2) 0.500(2)
H5 H 1.142(3) 1.940(2) 0.435(2)
H6 H 0.761(2) 1.844(2) 0.327(2)
H7 H 0.666(2) 1.710(2) 0.171(2)
K1_2 K 1.40970(4) 1.95061(4) 0.15685(3)
K1_3 K 0.40970(4) 1.95061(4) 0.15685(3)
K2A K 1.14981(4) 1.33193(4) 0.12229(3)
O3A O 0.7026(2) 1.3183(2) -0.3249(1)
O5_2 O 0.0431(1) 0.9462(1) 0.1499(1)
O6_2 O 0.8221(2) 1.0779(1) 0.1768(1)
O7 O 0.2759(2) 1.3262(7) 0.4221(2)
H8 H 0.377(5) 1.269(4) 0.435(3)
H9 H 0.355(4) 1.449(4) 0.438(3)
loop_
_geom_bond_atom_site_label_1
_geom_bond_atom_site_label_2
_geom_bond_site_symmetry_1
_geom_bond_site_symmetry_2
K1 O1 1_555 1_555
K2 O2 1_555 1_555
N1 C1 1_555 1_555
C1 C4 1_555 1_555
C2 N1 1_555 1_555
C3 N1 1_555 1_555
C4 O1 1_555 1_555
C5 C2 1_555 1_555
C6 C3 1_555 1_555
O2 C4 1_555 1_555
O3 C5 1_555 1_555
O4 C5 1_555 1_555
O5 C6 1_555 1_555
O6 C6 1_555 1_555
O7 H8 1_555 1_555
H1 N1 1_555 1_555
H2 C1 1_555 1_555
H3 C1 1_555 1_555
H4 C2 1_555 1_555
H5 C2 1_555 1_555
H6 C3 1_555 1_555
H7 C3 1_555 1_555
H9 O7 1_555 1_555
K1_2 O5 1_555 1_555
K1_3 O6 1_555 1_555
K2A O3 1_555 1_555
O3A K2 1_555 1_555
O5_2 K1 1_555 1_555
O6_2 K1 1_555 1_555

#END
