
#######################################################################
#
#                 Cambridge Crystallographic Data Centre
#                                CCDC 
#
#######################################################################
#
# If this CIF has been generated from an entry in the Cambridge 
# Structural Database, then it will include bibliographic, chemical, 
# crystal, experimental, refinement or atomic coordinate data resulting 
# from the CCDC's data processing and validation procedures.
#
#######################################################################

data_HAWZAI
_symmetry_cell_setting           triclinic
_symmetry_space_group_name_H-M   'P -1'
_symmetry_Int_Tables_number      2
_space_group_name_Hall           '-P 1'
loop_
_symmetry_equiv_pos_site_id
_symmetry_equiv_pos_as_xyz
1 x,y,z
2 -x,-y,-z
_cell_length_a                   10.528(3)
_cell_length_b                   12.169(3)
_cell_length_c                   14.325(4)
_cell_angle_alpha                83.549(4)
_cell_angle_beta                 77.461(4)
_cell_angle_gamma                80.263(4)
_cell_volume                     1760.21
loop_
_atom_site_label
_atom_site_type_symbol
_atom_site_fract_x
_atom_site_fract_y
_atom_site_fract_z
Ag1 Ag 0.86004(5) -0.10989(4) 1.13788(3)
Ag2 Ag 0.62940(5) 0.58746(4) 0.35211(3)
C9 C 0.8647(7) -0.0638(5) 0.9170(4)
H11 H 0.8923 -0.1422 0.9153
C10 C 0.8459(7) -0.0020(5) 0.8320(4)
H12 H 0.8588 -0.0379 0.7744
C11 C 0.8072(6) 0.1150(5) 0.8326(4)
C12 C 0.7895(6) 0.1605(5) 0.9205(4)
H13 H 0.7635 0.2387 0.9250
C13 C 0.8098(6) 0.0918(5) 1.0010(4)
H14 H 0.7973 0.1251 1.0599
C14 C 0.7848(6) 0.1824(5) 0.7443(4)
H15 H 0.7979 0.1443 0.6879
C15 C 0.7471(6) 0.2934(5) 0.7370(4)
H16 H 0.7351 0.3315 0.7933
C16 C 0.7230(5) 0.3608(5) 0.6497(4)
C17 C 0.7460(6) 0.3171(5) 0.5600(4)
H17 H 0.7821 0.2407 0.5534
C18 C 0.7165(6) 0.3846(5) 0.4813(4)
H18 H 0.7315 0.3525 0.4217
C19 C 0.6462(7) 0.5371(5) 0.5705(4)
H19 H 0.6104 0.6137 0.5754
C20 C 0.6742(7) 0.4745(5) 0.6515(4)
H20 H 0.6600 0.5094 0.7097
C21 C 0.9167(7) -0.3349(5) 1.2558(4)
H21 H 0.9147 -0.3636 1.1973
C22 C 0.9459(7) -0.4098(5) 1.3304(4)
H22 H 0.9660 -0.4876 1.3218
C23 C 0.9460(6) -0.3711(5) 1.4188(4)
C24 C 0.9166(6) -0.2558(5) 1.4245(4)
H23 H 0.9137 -0.2253 1.4833
C25 C 0.8915(6) -0.1851(5) 1.3457(5)
H24 H 0.8741 -0.1068 1.3517
C26 C 0.9770(6) -0.4453(5) 1.5014(4)
H25 H 0.9634 -0.4136 1.5611
C27 C 0.5728(6) 0.6749(5) 0.1516(4)
H26 H 0.5802 0.5971 0.1452
C28 C 0.5509(7) 0.7500(5) 0.0743(4)
H27 H 0.5461 0.7228 0.0157
C29 C 0.5357(6) 0.8653(5) 0.0816(4)
C30 C 0.5457(6) 0.8984(5) 0.1698(4)
H28 H 0.5360 0.9756 0.1795
C31 C 0.5697(6) 0.8192(5) 0.2422(4)
H29 H 0.5768 0.8443 0.3010
C32 C 0.5106(6) 0.9442(5) -0.0003(4)
H30 H 0.5093 0.9136 -0.0581
N1 N 0.8461(5) -0.0191(4) 1.0009(4)
N2 N 0.6668(5) 0.4955(4) 0.4850(4)
N3 N 0.8906(5) -0.2226(4) 1.2609(3)
N4 N 0.5839(5) 0.7087(4) 0.2357(3)
O1 O 0.7637(5) 0.0548(4) 1.2418(3)
H31 H 0.6891 0.0855 1.2307
H32 H 0.8051 0.0959 1.2503
O3 O 0.6974(6) 0.4261(5) 0.2509(4)
H33 H 0.7560 0.3694 0.2553
H34 H 0.6492 0.4127 0.2143
Ag1A Ag 1.13996(5) -0.89011(4) 1.86212(3)
Ag2A Ag 1.37060(5) -1.58746(4) 2.64789(3)
Ag2A_2 Ag 0.37060(5) 1.41254(4) -0.35211(3)
C9A C 1.1353(7) -0.9362(5) 2.0830(4)
H11A H 1.1077 -0.8578 2.0847
C10A C 1.1541(7) -0.9980(5) 2.1680(4)
H12A H 1.1412 -0.9621 2.2256
C11A C 1.1928(6) -1.1150(5) 2.1674(4)
C12A C 1.2105(6) -1.1605(5) 2.0795(4)
H13A H 1.2365 -1.2387 2.0750
C13A C 1.1902(6) -1.0918(5) 1.9990(4)
H14A H 1.2027 -1.1251 1.9401
C14A C 1.2152(6) -1.1824(5) 2.2557(4)
H15A H 1.2021 -1.1443 2.3121
C15A C 1.2529(6) -1.2934(5) 2.2630(4)
H16A H 1.2649 -1.3315 2.2067
C16A C 1.2770(5) -1.3608(5) 2.3503(4)
C17A C 1.2540(6) -1.3171(5) 2.4400(4)
H17A H 1.2179 -1.2407 2.4466
C18A C 1.2835(6) -1.3846(5) 2.5187(4)
H18A H 1.2685 -1.3525 2.5783
C19A C 1.3538(7) -1.5371(5) 2.4295(4)
H19A H 1.3896 -1.6137 2.4246
C20A C 1.3258(7) -1.4745(5) 2.3485(4)
H20A H 1.3400 -1.5094 2.2903
C21A C 1.0833(7) -0.6651(5) 1.7442(4)
H21A H 1.0853 -0.6364 1.8027
C22A C 1.0541(7) -0.5902(5) 1.6696(4)
H22A H 1.0340 -0.5124 1.6782
C23A C 1.0540(6) -0.6289(5) 1.5812(4)
C24A C 1.0834(6) -0.7442(5) 1.5755(4)
H23A H 1.0863 -0.7747 1.5167
C25A C 1.1085(6) -0.8149(5) 1.6543(5)
H24A H 1.1259 -0.8932 1.6483
C26A C 1.0230(6) -0.5547(5) 1.4986(4)
H25A H 1.0366 -0.5864 1.4389
C27A C 0.4272(6) 1.3251(5) -0.1516(4)
H26A H 0.4198 1.4029 -0.1452
C28A C 0.4491(7) 1.2500(5) -0.0743(4)
H27A H 0.4539 1.2772 -0.0157
C29A C 0.4643(6) 1.1347(5) -0.0816(4)
C30A C 0.4543(6) 1.1016(5) -0.1698(4)
H28A H 0.4640 1.0244 -0.1795
C31A C 0.4303(6) 1.1808(5) -0.2422(4)
H29A H 0.4232 1.1557 -0.3010
C32A C 0.4894(6) 1.0558(5) 0.0003(4)
H30A H 0.4907 1.0864 0.0581
N1A N 1.1539(5) -0.9809(4) 1.9991(4)
N2A N 1.3332(5) -1.4955(4) 2.5150(4)
N3A N 1.1094(5) -0.7774(4) 1.7391(3)
N4A N 0.4161(5) 1.2913(4) -0.2357(3)
N4A_2 N 1.4161(5) -1.7087(4) 2.7643(3)
O1A O 1.2363(5) -1.0548(4) 1.7582(3)
H31A H 1.3109 -1.0855 1.7693
H32A H 1.1949 -1.0959 1.7497
O3A O 1.3026(6) -1.4261(5) 2.7491(4)
H33A H 1.2440 -1.3694 2.7447
H34A H 1.3508 -1.4127 2.7857
C1 C 0.2879(7) 0.0667(6) 0.3913(4)
C2 C 0.4170(6) 0.0260(5) 0.4258(4)
H1 H 0.4875 0.0099 0.3677
C3 C 0.4550(6) 0.1196(5) 0.4748(4)
H2 H 0.4622 0.1867 0.4291
H3 H 0.3848 0.1401 0.5309
C4 C 0.4147(6) -0.0823(5) 0.4926(5)
H4 H 0.3962 -0.1423 0.4585
H5 H 0.3429 -0.0700 0.5495
O2 O 0.1880(5) 0.0242(4) 0.4275(4)
O4 O 0.2909(5) 0.1437(5) 0.3258(4)
C1A C 0.7121(7) -0.0667(6) 0.6087(4)
C2A C 0.5830(6) -0.0260(5) 0.5742(4)
H1A H 0.5125 -0.0099 0.6323
C3A C 0.5450(6) -0.1196(5) 0.5252(4)
H2A H 0.5378 -0.1867 0.5709
H3A H 0.6152 -0.1401 0.4691
C4A C 0.5853(6) 0.0823(5) 0.5074(5)
H4A H 0.6038 0.1423 0.5415
H5A H 0.6571 0.0700 0.4505
O2A O 0.8120(5) -0.0242(4) 0.5725(4)
O4A O 0.7091(5) -0.1437(5) 0.6742(4)
C5 C 0.2365(7) 0.5066(6) 0.0774(4)
C6 C 0.0994(6) 0.5026(5) 0.0589(4)
H6 H 0.0400 0.4932 0.1231
C7 C 0.0994(7) 0.3997(5) 0.0053(4)
H7 H 0.1580 0.4054 -0.0587
H8 H 0.1343 0.3311 0.0414
C8 C 0.0386(7) 0.6091(5) 0.0065(5)
H9 H 0.0951 0.6217 -0.0575
H10 H 0.0350 0.6741 0.0433
O5 O 0.2981(5) 0.5838(4) 0.0362(3)
O7 O 0.2799(5) 0.4297(4) 0.1344(4)
C5A C -0.2365(7) 0.4934(6) -0.0774(4)
C6A C -0.0994(6) 0.4974(5) -0.0589(4)
H6A H -0.0400 0.5068 -0.1231
C7A C -0.0994(7) 0.6003(5) -0.0053(4)
H7A H -0.1580 0.5946 0.0587
H8A H -0.1343 0.6689 -0.0414
C8A C -0.0386(7) 0.3909(5) -0.0065(5)
H9A H -0.0951 0.3783 0.0575
H10A H -0.0350 0.3259 -0.0433
O5A O -0.2981(5) 0.4162(4) -0.0362(3)
O7A O -0.2799(5) 0.5703(4) -0.1344(4)
O6 O 0.5290(5) 0.1693(4) 1.2073(4)
H35 H 0.4546 0.1633 1.2435
H36 H 0.5292 0.2372 1.1855
O8 O 0.8900(6) 0.2443(5) 0.2679(4)
H37 H 0.9586 0.2750 0.2606
H38 H 0.8908 0.1946 0.3246
O9 O 0.1172(5) 0.3185(5) 0.2704(4)
H39 H 0.1674 0.2627 0.2904
H40 H 0.1640 0.3568 0.2273
O10 O -0.0696(5) 0.0988(5) 0.4165(5)
H41 H 0.0120 0.0793 0.4158
H42 H -0.1124 0.0627 0.4638
O11 O 0.4629(5) 0.6114(4) -0.1333(3)
H43 H 0.4158 0.6012 -0.0777
H44 H 0.5434 0.5969 -0.1291
loop_
_geom_bond_atom_site_label_1
_geom_bond_atom_site_label_2
_geom_bond_site_symmetry_1
_geom_bond_site_symmetry_2
Ag1 N1 1_555 1_555
Ag2 N2 1_555 1_555
C1 C2 1_555 1_555
C2 H1 1_555 1_555
C3 C2 1_555 1_555
H2 C3 1_555 1_555
H3 C3 1_555 1_555
C4 C2 1_555 1_555
H4 C4 1_555 1_555
H5 C4 1_555 1_555
C5 C6 1_555 1_555
C6 H6 1_555 1_555
C7 C6 1_555 1_555
H7 C7 1_555 1_555
H8 C7 1_555 1_555
C8 C6 1_555 1_555
H9 C8 1_555 1_555
H10 C8 1_555 1_555
C9 H11 1_555 1_555
C10 C9 1_555 1_555
H12 C10 1_555 1_555
C11 C10 1_555 1_555
C12 C11 1_555 1_555
H13 C12 1_555 1_555
C13 C12 1_555 1_555
H14 C13 1_555 1_555
C14 C11 1_555 1_555
H15 C14 1_555 1_555
C15 C14 1_555 1_555
H16 C15 1_555 1_555
C16 C15 1_555 1_555
C17 C16 1_555 1_555
H17 C17 1_555 1_555
C18 C17 1_555 1_555
H18 C18 1_555 1_555
C19 H19 1_555 1_555
C20 C16 1_555 1_555
H20 C20 1_555 1_555
C21 H21 1_555 1_555
C22 C21 1_555 1_555
H22 C22 1_555 1_555
C23 C22 1_555 1_555
C24 C23 1_555 1_555
H23 C24 1_555 1_555
C25 C24 1_555 1_555
H24 C25 1_555 1_555
C26 C23 1_555 1_555
H25 C26 1_555 1_555
C27 H26 1_555 1_555
C28 C27 1_555 1_555
H27 C28 1_555 1_555
C29 C28 1_555 1_555
C30 C29 1_555 1_555
H28 C30 1_555 1_555
C31 C30 1_555 1_555
H29 C31 1_555 1_555
C32 C29 1_555 1_555
H30 C32 1_555 1_555
N1 C9 1_555 1_555
N2 C18 1_555 1_555
N3 Ag1 1_555 1_555
N4 Ag2 1_555 1_555
O1 Ag1 1_555 1_555
H31 O1 1_555 1_555
H32 O1 1_555 1_555
O2 C1 1_555 1_555
O3 Ag2 1_555 1_555
H33 O3 1_555 1_555
H34 O3 1_555 1_555
O4 C1 1_555 1_555
O5 C5 1_555 1_555
O6 H35 1_555 1_555
H36 O6 1_555 1_555
O7 C5 1_555 1_555
O8 H37 1_555 1_555
H38 O8 1_555 1_555
O9 H39 1_555 1_555
H40 O9 1_555 1_555
O10 H41 1_555 1_555
H42 O10 1_555 1_555
O11 H43 1_555 1_555
H44 O11 1_555 1_555
Ag1A N1A 1_555 1_555
Ag2A N2A 1_555 1_555
Ag2A_2 N4A 1_555 1_555
C1A C2A 1_555 1_555
C2A H1A 1_555 1_555
C3A C4 1_555 1_555
H2A C3A 1_555 1_555
H3A C3A 1_555 1_555
C4A C3 1_555 1_555
H4A C4A 1_555 1_555
H5A C4A 1_555 1_555
C5A C6A 1_555 1_555
C6A H6A 1_555 1_555
C7A C8 1_555 1_555
H7A C7A 1_555 1_555
H8A C7A 1_555 1_555
C8A C7 1_555 1_555
H9A C8A 1_555 1_555
H10A C8A 1_555 1_555
C9A H11A 1_555 1_555
C10A C9A 1_555 1_555
H12A C10A 1_555 1_555
C11A C10A 1_555 1_555
C12A C11A 1_555 1_555
H13A C12A 1_555 1_555
C13A C12A 1_555 1_555
H14A C13A 1_555 1_555
C14A C11A 1_555 1_555
H15A C14A 1_555 1_555
C15A C14A 1_555 1_555
H16A C15A 1_555 1_555
C16A C15A 1_555 1_555
C17A C16A 1_555 1_555
H17A C17A 1_555 1_555
C18A C17A 1_555 1_555
H18A C18A 1_555 1_555
C19A H19A 1_555 1_555
C20A C16A 1_555 1_555
H20A C20A 1_555 1_555
C21A H21A 1_555 1_555
C22A C21A 1_555 1_555
H22A C22A 1_555 1_555
C23A C22A 1_555 1_555
C24A C23A 1_555 1_555
H23A C24A 1_555 1_555
C25A C24A 1_555 1_555
H24A C25A 1_555 1_555
C26A C26 1_555 1_555
H25A C26A 1_555 1_555
C27A H26A 1_555 1_555
C28A C27A 1_555 1_555
H27A C28A 1_555 1_555
C29A C28A 1_555 1_555
C30A C29A 1_555 1_555
H28A C30A 1_555 1_555
C31A C30A 1_555 1_555
H29A C31A 1_555 1_555
C32A C32 1_555 1_555
H30A C32A 1_555 1_555
N1A C9A 1_555 1_555
N2A C18A 1_555 1_555
N3A Ag1A 1_555 1_555
N4A C27A 1_555 1_555
N4A_2 Ag2A 1_555 1_555
O1A Ag1A 1_555 1_555
H31A O1A 1_555 1_555
H32A O1A 1_555 1_555
O2A C1A 1_555 1_555
O3A Ag2A 1_555 1_555
H33A O3A 1_555 1_555
H34A O3A 1_555 1_555
O4A C1A 1_555 1_555
O5A C5A 1_555 1_555
O7A C5A 1_555 1_555
C13 N1 1_555 1_555
C19 C20 1_555 1_555
C19 N2 1_555 1_555
C21 N3 1_555 1_555
C25 N3 1_555 1_555
C27 N4 1_555 1_555
C31 N4 1_555 1_555
C2A C3A 1_555 1_555
C2A C4A 1_555 1_555
C6A C7A 1_555 1_555
C6A C8A 1_555 1_555
C13A N1A 1_555 1_555
C19A C20A 1_555 1_555
C19A N2A 1_555 1_555
C21A N3A 1_555 1_555
C23A C26A 1_555 1_555
C25A N3A 1_555 1_555
C29A C32A 1_555 1_555
C31A N4A 1_555 1_555

#END
