
#######################################################################
#
#                 Cambridge Crystallographic Data Centre
#                                CCDC 
#
#######################################################################
#
# If this CIF has been generated from an entry in the Cambridge 
# Structural Database, then it will include bibliographic, chemical, 
# crystal, experimental, refinement or atomic coordinate data resulting 
# from the CCDC's data processing and validation procedures.
#
#######################################################################

data_HAXBIT
_symmetry_cell_setting           triclinic
_symmetry_space_group_name_H-M   'P -1'
_symmetry_Int_Tables_number      2
_space_group_name_Hall           '-P 1'
loop_
_symmetry_equiv_pos_site_id
_symmetry_equiv_pos_as_xyz
1 x,y,z
2 -x,-y,-z
_cell_length_a                   10.262(5)
_cell_length_b                   13.000(5)
_cell_length_c                   13.401(5)
_cell_angle_alpha                78.067(5)
_cell_angle_beta                 67.587(5)
_cell_angle_gamma                82.625(5)
_cell_volume                     1614.58
loop_
_atom_site_label
_atom_site_type_symbol
_atom_site_fract_x
_atom_site_fract_y
_atom_site_fract_z
O3 O 0.148(4) 0.308(3) 0.138(3)
C1 C 0.3337(16) 0.5478(12) 0.3222(13)
C2 C 0.3822(16) 0.5808(13) 0.2029(13)
C3 C -0.0009(18) 0.6772(14) 0.1211(15)
C4 C 0.093(2) 0.7597(15) 0.0978(16)
C5 C 0.3234(18) 0.5400(14) 0.1456(14)
H1 H 0.2595 0.4876 0.1820
C6 C 0.481(2) 0.6586(15) 0.1504(16)
H2 H 0.5211 0.6876 0.1888
C7 C 0.515(2) 0.6907(16) 0.0369(17)
H3 H 0.5835 0.7394 -0.0027
C8 C 0.447(2) 0.6493(17) -0.0142(19)
H4 H 0.4656 0.6752 -0.0880
C9 C 0.117(2) 0.7937(17) 0.1802(18)
H5 H 0.0775 0.7596 0.2522
C10 C 0.154(3) 0.815(2) -0.008(2)
H6 H 0.1334 0.7961 -0.0637
C11 C 0.258(3) 0.925(2) 0.050(3)
H7 H 0.3139 0.9814 0.0361
C12 C 0.199(2) 0.8768(19) 0.157(2)
H8 H 0.2150 0.9000 0.2124
N1 N 0.2025(14) 0.5263(11) 0.3840(12)
N2 N -0.0658(15) 0.6230(11) 0.2187(12)
N3 N 0.1975(14) 0.5020(11) 0.4895(11)
N4 N 0.3245(15) 0.5079(12) 0.4884(12)
N5 N -0.1540(16) 0.5612(12) 0.2084(12)
N6 N 0.4153(14) 0.5352(11) 0.3823(11)
N7 N -0.1373(17) 0.5793(13) 0.1036(13)
N8 N 0.3557(17) 0.5739(13) 0.0357(13)
N9 N -0.0418(18) 0.6469(14) 0.0483(14)
N10 N 0.242(3) 0.898(2) -0.036(3)
O1 O -0.442(2) 0.9088(16) 0.5683(17)
O2 O -0.268(2) 0.7886(15) 0.3698(14)
O4 O -0.615(2) 0.9101(17) 0.5596(17)
O5 O -0.3336(16) 0.8973(12) 0.8309(13)
O6 O 0.254(2) 0.8326(16) 0.7308(17)
O7 O -0.2753(16) 0.8128(11) 0.1617(12)
O8 O 0.4879(18) 0.8002(12) 0.3459(16)
O9 O 0.163(2) 0.8848(15) 0.5631(15)
O10 O 0.2129(15) 0.7443(11) 0.4260(15)
O11 O -0.0951(15) 0.7134(11) 0.4857(15)
O12 O -0.120(3) 0.9234(16) 0.4027(17)
O13 O -0.2446(17) 0.8607(13) 0.6163(13)
O14 O 0.367(2) 0.7347(17) 0.5590(14)
O15 O -0.5049(17) 0.8213(13) 0.7523(14)
O16 O -0.3863(16) 0.7230(14) 0.5815(14)
O17 O 0.212(2) 1.0288(16) 0.7610(17)
O18 O -0.0099(14) 0.9241(12) 0.7710(12)
O19 O -0.6102(14) 0.6377(11) 0.7540(12)
O20 O 0.2847(17) 0.9457(13) 0.3545(17)
O21 O -0.467(2) 1.0414(17) 0.5937(18)
O22 O -0.356(2) 0.9489(16) 0.4244(17)
O23 O -0.5476(16) 1.0152(14) 0.7821(18)
Si1 Si -0.5000 1.0000 0.5000
Ag1 Ag 0.25275(19) 0.50511(16) -0.04566(14)
Ag2 Ag 0.64507(15) 0.52011(14) 0.34838(12)
Ag3 Ag 0.0000 1.0000 0.5000
Ag4 Ag -0.00352(15) 0.55169(14) 0.36561(12)
W1 W -0.22566(8) 0.80467(6) 0.49141(7)
W2 W -0.57368(8) 0.75237(5) 0.67027(6)
W3 W -0.38362(8) 0.93002(6) 0.72227(6)
W4 W 0.30537(8) 0.82334(6) 0.45131(7)
W5 W -0.34627(9) 0.87036(6) 0.27203(7)
W6 W 0.15264(8) 0.94855(7) 0.68438(7)
O24 O -0.023(4) 0.352(3) 0.340(3)
C1A C -0.3337(16) 0.4522(12) 0.6778(13)
C2A C -0.3822(16) 0.4192(13) 0.7971(13)
C3A C 0.0009(18) 1.3228(14) 0.8789(15)
C4A C -0.093(2) 1.2403(15) 0.9022(16)
C5A C -0.3234(18) 0.4600(14) 0.8544(14)
H1A H -0.2595 0.5124 0.8180
C6A C -0.481(2) 0.3414(15) 0.8496(16)
H2A H -0.5211 0.3124 0.8112
C7A C -0.515(2) 0.3093(16) 0.9631(17)
H3A H -0.5835 0.2606 1.0027
C8A C -0.447(2) 0.3507(17) 1.0142(19)
H4A H -0.4656 0.3248 1.0880
C9A C -0.117(2) 1.2063(17) 0.8198(18)
H5A H -0.0775 1.2404 0.7478
C10A C -0.154(3) 1.185(2) 1.008(2)
H6A H -0.1334 1.2039 1.0637
C11A C -0.258(3) 1.075(2) 0.950(3)
H7A H -0.3139 1.0186 0.9639
C12A C -0.199(2) 1.1232(19) 0.843(2)
H8A H -0.2150 1.1000 0.7876
N1A N -0.2025(14) 0.4737(11) 0.6160(12)
N1A_2 N -0.2025(14) 1.4737(11) 0.6160(12)
N2A N 0.0658(15) 1.3770(11) 0.7813(12)
N3A N -0.1975(14) 0.4980(11) 0.5105(11)
N3_2 N 0.1975(14) 1.5020(11) 0.4895(11)
N4A N -0.3245(15) 0.4921(12) 0.5116(12)
N4A_2 N 0.6755(15) 0.4921(12) 0.5116(12)
N4_2 N -0.6755(15) 0.5079(12) 0.4884(12)
N5A N 0.1540(16) 1.4388(12) 0.7916(12)
N5_2 N 0.8460(16) 0.5612(12) 0.2084(12)
N5A_2 N -0.8460(16) 0.4388(12) 0.7916(12)
N6A N -0.4153(14) 0.4648(11) 0.6177(11)
N7A N 0.1373(17) 1.4207(13) 0.8964(13)
N7A_2 N 0.1373(17) 0.4207(13) -0.1036(13)
N7_2 N -0.1373(17) 0.5793(13) 1.1036(13)
N8A N -0.3557(17) 0.4261(13) 0.9643(13)
N9A N 0.0418(18) 1.3531(14) 0.9517(14)
N10A N -0.242(3) 1.102(2) 1.036(3)
O1A O -0.558(2) 1.0912(16) 0.4317(17)
O2A O 0.268(2) 1.2114(15) 0.6302(14)
O4A O -0.385(2) 1.0899(17) 0.4404(17)
O5A O 0.3336(16) 1.1027(12) 0.1691(13)
O6A O -0.254(2) 1.1674(16) 0.2692(17)
O6_2 O -0.746(2) 0.8326(16) 0.7308(17)
O7A O 0.2753(16) 1.1872(11) 0.8383(12)
O8A O -0.4879(18) 1.1998(12) 0.6541(16)
O8_2 O -0.5121(18) 0.8002(12) 0.3459(16)
O8A_2 O 0.5121(18) 1.1998(12) 0.6541(16)
O9A O -0.163(2) 1.1152(15) 0.4369(15)
O10A O -0.2129(15) 1.2557(11) 0.5740(15)
O11A O 0.0951(15) 1.2866(11) 0.5143(15)
O12A O 0.120(3) 1.0766(16) 0.5973(17)
O13A O 0.2446(17) 1.1393(13) 0.3837(13)
O14A O -0.367(2) 1.2653(17) 0.4410(14)
O14_2 O -0.633(2) 0.7347(17) 0.5590(14)
O15A O -0.4951(17) 1.1787(13) 0.2477(14)
O15A_2 O 0.5049(17) 1.1787(13) 0.2477(14)
O16A O 0.3863(16) 1.2770(14) 0.4185(14)
O16A_2 O -0.6137(16) 1.2770(14) 0.4185(14)
O17A O -0.212(2) 0.9712(16) 0.2390(17)
O18A O 0.0099(14) 1.0759(12) 0.2290(12)
O19A O -0.3898(14) 1.3623(11) 0.2460(12)
O19_2 O 0.3898(14) 0.6377(11) -0.2460(12)
O19A_2 O 0.6102(14) 0.3623(11) 0.2460(12)
O19A_3 O -0.3898(14) 0.3623(11) 1.2460(12)
O20A O -0.2847(17) 1.0543(13) 0.6455(17)
O21A O -0.533(2) 0.9586(17) 0.4063(18)
O21A_2 O 0.467(2) 0.9586(17) 0.4063(18)
O22A O -0.644(2) 1.0511(16) 0.5756(17)
O22A_2 O 0.356(2) 1.0511(16) 0.5756(17)
O23A O -0.4524(16) 0.9848(14) 0.2179(18)
O23A_2 O 0.5476(16) 0.9848(14) 0.2179(18)
O23_2 O 0.4524(16) 1.0152(14) 0.7821(18)
Ag1A Ag -0.25275(19) 0.49489(16) 1.04566(14)
Ag1A_2 Ag -0.25275(19) 0.49489(16) 0.04566(14)
Ag1_2 Ag -0.74725(19) 0.50511(16) 0.95434(14)
Ag1_3 Ag 0.25275(19) 1.50511(16) 0.95434(14)
Ag1A_3 Ag -0.25275(19) 1.49489(16) 0.04566(14)
Ag2A Ag -0.64507(15) 0.47989(14) 0.65162(12)
Ag2A_2 Ag 0.35493(15) 0.47989(14) 0.65162(12)
Ag2_2 Ag -0.35493(15) 0.52011(14) 0.34838(12)
Ag2A_3 Ag 0.35493(15) 1.47989(14) 0.65162(12)
Ag2_3 Ag -0.35493(15) 1.52011(14) 0.34838(12)
Ag4A Ag 0.00352(15) 1.44831(14) 0.63439(12)
Ag4A_2 Ag 0.00352(15) 0.44831(14) 0.63439(12)
Ag4_2 Ag -0.00352(15) 1.55169(14) 0.36561(12)
W1A W 0.22566(8) 1.19533(6) 0.50859(7)
W1A_2 W -0.77434(8) 1.19533(6) 0.50859(7)
W2A W -0.42632(8) 1.24763(5) 0.32973(6)
W2_2 W 0.42632(8) 0.75237(5) 0.67027(6)
W2A_2 W 0.57368(8) 1.24763(5) 0.32973(6)
W3A W 0.38362(8) 1.06998(6) 0.27773(6)
W3A_2 W -0.61638(8) 1.06998(6) 0.27773(6)
W4A W -0.30537(8) 1.17666(6) 0.54869(7)
W5A W 0.34627(9) 1.12964(6) 0.72797(7)
W5_2 W 0.65373(9) 0.87036(6) 0.27203(7)
W5A_2 W -0.65373(9) 1.12964(6) 0.72797(7)
W6A W -0.15264(8) 1.05145(7) 0.31562(7)
O24A O 0.023(4) 1.648(3) 0.660(3)
loop_
_geom_bond_atom_site_label_1
_geom_bond_atom_site_label_2
_geom_bond_site_symmetry_1
_geom_bond_site_symmetry_2
C1 C2 1_555 1_555
C2 C5 1_555 1_555
C3 C4 1_555 1_555
C4 C9 1_555 1_555
C5 H1 1_555 1_555
C6 C2 1_555 1_555
H2 C6 1_555 1_555
C7 C6 1_555 1_555
H3 C7 1_555 1_555
C8 C7 1_555 1_555
H4 C8 1_555 1_555
C9 H5 1_555 1_555
C10 C4 1_555 1_555
H6 C10 1_555 1_555
C11 H7 1_555 1_555
C12 C9 1_555 1_555
H8 C12 1_555 1_555
N1 C1 1_555 1_555
N2 C3 1_555 1_555
N3 N1 1_555 1_555
N4 N3 1_555 1_555
N5 N2 1_555 1_555
N6 C1 1_555 1_555
N7 N5 1_555 1_555
N8 C5 1_555 1_555
N9 C3 1_555 1_555
N10 C10 1_555 1_555
O1 O4 1_555 1_555
O2 W1 1_555 1_555
O4 Si1 1_555 1_555
O5 W3 1_555 1_555
O6 W6 1_555 1_555
O7 W5 1_555 1_555
O8 W4 1_555 1_555
O9 Ag3 1_555 1_555
O10 W4 1_555 1_555
O11 Ag4 1_555 1_555
O12 Ag3 1_555 1_555
O13 W1 1_555 1_555
O14 W4 1_555 1_555
O15 W2 1_555 1_555
O16 W1 1_555 1_555
O17 W6 1_555 1_555
O18 W6 1_555 1_555
O19 W2 1_555 1_555
O20 W4 1_555 1_555
O21 O1 1_555 1_555
O22 O1 1_555 1_555
O23 W3 1_555 1_555
Si1 O1 1_555 1_555
Ag1 N8 1_555 1_555
Ag2 N6 1_555 1_555
Ag3 O9A 1_555 1_555
Ag4 N1 1_555 1_555
W1 O11 1_555 1_555
W2 O4 1_555 1_555
W3 O13 1_555 1_555
W4 O9 1_555 1_555
W5 O2 1_555 1_555
W6 O9 1_555 1_555
O24 Ag4 1_555 1_555
C1A C2A 1_555 1_555
C2A C5A 1_555 1_555
C3A C4A 1_555 1_555
C4A C9A 1_555 1_555
C5A H1A 1_555 1_555
C6A C2A 1_555 1_555
H2A C6A 1_555 1_555
C7A C6A 1_555 1_555
H3A C7A 1_555 1_555
C8A C7A 1_555 1_555
H4A C8A 1_555 1_555
C9A H5A 1_555 1_555
C10A C4A 1_555 1_555
H6A C10A 1_555 1_555
C11A H7A 1_555 1_555
C12A C9A 1_555 1_555
H8A C12A 1_555 1_555
N1A C1A 1_555 1_555
N1A_2 Ag4A 1_555 1_555
N2A C3A 1_555 1_555
N3A Ag4 1_555 1_555
N3_2 Ag4A 1_555 1_555
N4A N3A 1_555 1_555
N4A_2 Ag2 1_555 1_555
N4_2 Ag2A 1_555 1_555
N5A N2A 1_555 1_555
N5_2 Ag2 1_555 1_555
N5A_2 Ag2A 1_555 1_555
N6A C1A 1_555 1_555
N7A N5A 1_555 1_555
N7A_2 Ag1 1_555 1_555
N7_2 Ag1A 1_555 1_555
N8A C5A 1_555 1_555
N9A C3A 1_555 1_555
N10A C10A 1_555 1_555
O1A Si1 1_555 1_555
O2A W1A 1_555 1_555
O4A O21 1_555 1_555
O5A W3A 1_555 1_555
O6A W2A 1_555 1_555
O6_2 W2 1_555 1_555
O7A W5A 1_555 1_555
O8A W4A 1_555 1_555
O8_2 W5 1_555 1_555
O8A_2 W5A 1_555 1_555
O9A W4A 1_555 1_555
O10A W4A 1_555 1_555
O11A Ag4A 1_555 1_555
O12A Ag3 1_555 1_555
O13A W1A 1_555 1_555
O14A W2A 1_555 1_555
O14_2 W2 1_555 1_555
O15A W2A 1_555 1_555
O15A_2 W2A_2 1_555 1_555
O16A W1A 1_555 1_555
O16A_2 W1A_2 1_555 1_555
O17A W5 1_555 1_555
O18A W6A 1_555 1_555
O19A Ag1A_3 1_555 1_555
O19_2 Ag1 1_555 1_555
O19A_2 Ag2 1_555 1_555
O19A_3 Ag1A 1_555 1_555
O20A W3 1_555 1_555
O21A O4 1_555 1_555
O21A_2 W3A 1_555 1_555
O22A O4 1_555 1_555
O22A_2 W1A 1_555 1_555
O23A W5 1_555 1_555
O23A_2 W3A 1_555 1_555
O23_2 W5A 1_555 1_555
Ag1A N8A 1_555 1_555
Ag1A_2 N7 1_555 1_555
Ag1_2 O19 1_555 1_555
Ag1_3 N7A 1_555 1_555
Ag2A O19 1_555 1_555
Ag2A_2 N4 1_555 1_555
Ag2_2 N5 1_555 1_555
Ag2A_3 N5A 1_555 1_555
Ag2_3 O19A 1_555 1_555
Ag4A N2A 1_555 1_555
Ag4A_2 N3 1_555 1_555
Ag4_2 Ag4A 1_555 1_555
W1A O11A 1_555 1_555
W1A_2 O22A 1_555 1_555
W2A O4A 1_555 1_555
W2_2 O6 1_555 1_555
W2A_2 O16A 1_555 1_555
W3A O20 1_555 1_555
W3A_2 O15A 1_555 1_555
W4A O14A 1_555 1_555
W5A O17 1_555 1_555
W5_2 O8 1_555 1_555
W5A_2 O23 1_555 1_555
W6A O12 1_555 1_555
O24A Ag4A 1_555 1_555
C8 N8 1_555 1_555
C11 C12 1_555 1_555
C11 N10 1_555 1_555
N2 Ag4 1_555 1_555
N4 N6 1_555 1_555
N7 N9 1_555 1_555
O12 W1 1_555 1_555
O14 W2_2 1_555 1_555
O15 W3 1_555 1_555
O16 W2 1_555 1_555
O21 Si1 1_555 1_555
O21 W3 1_555 1_555
O21 O22A 1_555 1_555
O22 Si1 1_555 1_555
O22 W1 1_555 1_555
O22 O4A 1_555 1_555
O22 O21A 1_555 1_555
Si1 O4A 1_555 1_555
Si1 O21A 1_555 1_555
Si1 O22A 1_555 1_555
Ag4 Ag4A_2 1_555 1_555
W6 O12A 1_555 1_555
C8A N8A 1_555 1_555
C11A C12A 1_555 1_555
C11A N10A 1_555 1_555
N1A N3A 1_555 1_555
N1A Ag4A_2 1_555 1_555
N4A N6A 1_555 1_555
N4A Ag2_2 1_555 1_555
N6A Ag2A 1_555 1_555
N7A N9A 1_555 1_555
O1A O4A 1_555 1_555
O1A O21A 1_555 1_555
O1A O22A 1_555 1_555
O2A W5A 1_555 1_555
O6A W6A 1_555 1_555
O8A W5A_2 1_555 1_555
O9A W6A 1_555 1_555
O12A W1A 1_555 1_555
O13A W3A 1_555 1_555
O15A_2 W3A 1_555 1_555
O16A_2 W2A 1_555 1_555
O17A W6A 1_555 1_555
O19A W2A 1_555 1_555
O20A W4A 1_555 1_555
O21A W3A_2 1_555 1_555
O23A W3A_2 1_555 1_555
O23A_2 W5_2 1_555 1_555

#END
