
#######################################################################
#
#                 Cambridge Crystallographic Data Centre
#                                CCDC 
#
#######################################################################
#
# If this CIF has been generated from an entry in the Cambridge 
# Structural Database, then it will include bibliographic, chemical, 
# crystal, experimental, refinement or atomic coordinate data resulting 
# from the CCDC's data processing and validation procedures.
#
#######################################################################

data_HAXDIV
_symmetry_cell_setting           monoclinic
_symmetry_space_group_name_H-M   'C 2/c'
_symmetry_Int_Tables_number      15
_space_group_name_Hall           '-C 2yn'
loop_
_symmetry_equiv_pos_site_id
_symmetry_equiv_pos_as_xyz
1 x,y,z
2 -x,y,1/2-z
3 1/2+x,1/2+y,z
4 1/2-x,1/2+y,1/2-z
5 -x,-y,-z
6 x,-y,1/2+z
7 1/2-x,1/2-y,-z
8 1/2+x,1/2-y,1/2+z
_cell_length_a                   43.795(11)
_cell_length_b                   12.608(4)
_cell_length_c                   25.850(8)
_cell_angle_alpha                90
_cell_angle_beta                 119.26(2)
_cell_angle_gamma                90
_cell_volume                     12452.4
loop_
_atom_site_label
_atom_site_type_symbol
_atom_site_fract_x
_atom_site_fract_y
_atom_site_fract_z
Zn1 Zn 0.207759(9) 0.47804(3) 0.200745(16)
Zn2 Zn 0.136422(9) 0.63183(3) 0.147456(15)
Zn3 Zn 0.139176(10) 0.45812(3) 0.059697(16)
C1 C 0.15841(10) 0.2892(3) 0.14432(17)
C2 C 0.15581(10) 0.1733(3) 0.15563(16)
C3 C 0.14112(11) 0.1041(3) 0.10781(18)
H1 H 0.1303 0.1310 0.0694
C4 C 0.14232(11) -0.0049(3) 0.11659(17)
C5 C 0.15962(10) -0.0450(3) 0.17436(17)
C6 C 0.17323(10) 0.0249(3) 0.22202(17)
H2 H 0.1843 -0.0019 0.2605
C7 C 0.17058(9) 0.1340(3) 0.21331(16)
C8 C 0.16403(10) -0.1623(3) 0.18446(18)
C9 C 0.18390(10) 0.2005(3) 0.26888(16)
C10 C 0.15822(12) 0.2430(3) 0.2851(2)
C11 C 0.12392(14) 0.2665(5) 0.2431(3)
H3 H 0.1166 0.2598 0.2029
C12 C 0.10034(18) 0.3005(5) 0.2621(5)
H4 H 0.0776 0.3192 0.2344
C13 C 0.1112(3) 0.3063(5) 0.3228(6)
C14 C 0.1455(3) 0.2823(5) 0.3638(4)
H5 H 0.1530 0.2866 0.4042
C15 C 0.16832(18) 0.2526(4) 0.3450(3)
H6 H 0.1914 0.2383 0.3731
C16 C 0.12895(14) -0.0760(3) 0.06307(18)
C17 C 0.09133(14) -0.1061(4) 0.0297(2)
C18 C 0.06843(15) -0.0789(5) 0.0500(3)
H7 H 0.0758 -0.0382 0.0841
C19 C 0.03399(17) -0.1145(6) 0.0179(3)
H8 H 0.0183 -0.0967 0.0310
C20 C 0.02239(18) -0.1746(5) -0.0323(3)
C21 C 0.0451(2) -0.2008(5) -0.0521(3)
H9 H 0.0373 -0.2408 -0.0865
C22 C 0.07990(18) -0.1686(5) -0.0216(2)
H10 H 0.0954 -0.1879 -0.0350
C23 C -0.0151(2) -0.2181(7) -0.0658(3)
H11 H -0.0214 -0.2306 -0.1065
H12 H -0.0309 -0.1675 -0.0641
H13 H -0.0164 -0.2835 -0.0480
C24 C 0.16707(9) 0.5495(3) 0.26347(14)
C25 C 0.16652(9) 0.5436(3) 0.32067(15)
C26 C 0.19662(10) 0.5099(3) 0.37126(15)
H14 H 0.2162 0.4908 0.3683
C27 C 0.19792(10) 0.5044(3) 0.42590(16)
C28 C 0.16863(11) 0.5345(3) 0.43031(16)
C29 C 0.13805(11) 0.5668(3) 0.37917(17)
H15 H 0.1184 0.5853 0.3821
C30 C 0.13670(10) 0.5714(3) 0.32445(16)
C31 C 0.16991(13) 0.5383(3) 0.48940(18)
C32 C 0.23022(12) 0.4570(4) 0.47754(16)
C33 C 0.26388(11) 0.5132(4) 0.49824(17)
C34 C 0.29509(13) 0.4575(4) 0.5314(2)
H16 H 0.2945 0.3873 0.5418
C35 C 0.32664(14) 0.5059(5) 0.5485(2)
H17 H 0.3472 0.4677 0.5705
C36 C 0.32866(12) 0.6096(5) 0.5341(2)
C37 C 0.29711(12) 0.6681(4) 0.5017(2)
H18 H 0.2979 0.7390 0.4924
C38 C 0.26504(11) 0.6188(4) 0.48388(18)
H19 H 0.2444 0.6566 0.4623
C39 C 0.36322(14) 0.6640(6) 0.5517(3)
H20 H 0.3739 0.6849 0.5926
H21 H 0.3592 0.7256 0.5274
H22 H 0.3784 0.6159 0.5463
C40 C 0.10177(12) 0.6049(4) 0.27200(18)
C41 C 0.09614(12) 0.7144(4) 0.25396(19)
C42 C 0.06393(14) 0.7429(5) 0.2050(2)
H23 H 0.0473 0.6912 0.1837
C43 C 0.05716(18) 0.8482(6) 0.1887(3)
H24 H 0.0357 0.8671 0.1567
C44 C 0.08150(16) 0.9252(5) 0.2188(3)
C45 C 0.11297(18) 0.8978(5) 0.2674(3)
H25 H 0.1292 0.9502 0.2889
C46 C 0.12052(15) 0.7913(4) 0.2845(2)
H26 H 0.1420 0.7728 0.3165
C47 C 0.07375(9) 0.5397(3) 0.04961(16)
C48 C 0.03518(9) 0.5220(3) 0.02254(17)
C49 C 0.01571(11) 0.4807(4) -0.0352(2)
C50 C 0.01947(11) 0.5428(4) 0.0560(2)
H27 H 0.0325 0.5733 0.0933
C51 C 0.02990(12) 0.4702(4) -0.0782(2)
C52 C 0.03509(11) 0.3618(5) -0.0958(2)
C53 C 0.03808(13) 0.2754(5) -0.0620(3)
H28 H 0.0371 0.2831 -0.0270
C54 C 0.04260(17) 0.1742(6) -0.0805(3)
H29 H 0.0452 0.1151 -0.0571
C55 C 0.04317(16) 0.1624(6) -0.1328(3)
C56 C 0.04094(17) 0.2499(7) -0.1655(3)
H30 H 0.0423 0.2419 -0.2001
C57 C 0.03674(14) 0.3497(6) -0.1484(3)
H31 H 0.0350 0.4085 -0.1713
C58 C 0.0740(4) 0.3421(14) 0.3183(8)
H32 H 0.0628 0.2813 0.3242
H33 H 0.0590 0.3718 0.2799
H34 H 0.0783 0.3942 0.3482
C59 C 0.0682(6) 1.0329(17) 0.1901(9)
H35 H 0.0751 1.0860 0.2204
H36 H 0.0431 1.0311 0.1669
H37 H 0.0780 1.0495 0.1649
C60 C 0.0488(5) 0.0452(14) -0.1469(8)
H38 H 0.0266 0.0139 -0.1736
H39 H 0.0599 0.0049 -0.1108
H40 H 0.0635 0.0451 -0.1650
O1 O 0.14397(9) 0.3159(2) 0.09008(12)
O2 O 0.17514(7) 0.34737(18) 0.18795(11)
O3 O 0.19483(6) 0.5289(2) 0.26349(10)
O4 O 0.13858(6) 0.5773(2) 0.21877(10)
O5 O 0.19053(9) -0.1978(2) 0.22719(17)
O6 O 0.13982(7) -0.21693(19) 0.14406(11)
O7 O 0.08716(6) 0.6068(2) 0.09005(11)
O8 O 0.08940(7) 0.4845(3) 0.02990(16)
O9 O 0.14031(9) 0.5346(3) 0.48720(13)
O10 O 0.19843(9) 0.5468(3) 0.53436(12)
O11 O 0.14987(11) -0.1016(3) 0.04649(15)
O12 O 0.21519(7) 0.2028(2) 0.30379(11)
O13 O 0.22802(10) 0.3709(3) 0.49686(15)
O14 O 0.07803(9) 0.5400(3) 0.24973(16)
O15 O 0.03412(11) 0.5508(3) -0.10047(19)
O16 O 0.16737(6) 0.55599(17) 0.12498(9)
H41 H 0.1756(10) 0.600(2) 0.1106(16)
O17 O 0.23590(7) 0.6206(2) 0.22206(12)
H42 H 0.2392 0.6515 0.2534
H43 H 0.2514 0.6417 0.2141
O18 O 0.24989(7) 0.3958(2) 0.27072(11)
H44 H 0.2664 0.3682 0.2672
H45 H 0.2594 0.4219 0.3053
O19 O 0.22812(7) 0.4167(2) 0.15003(11)
H46 H 0.2183 0.4345 0.1138
H47 H 0.2283 0.3492 0.1499
Zn1_2 Zn 0.207759(9) 1.47804(3) 0.200745(16)
Zn1E Zn 0.207759(9) 0.52196(3) -0.299255(16)
Zn1_3 Zn 0.207759(9) -0.52196(3) 0.200745(16)
Zn2_2 Zn 0.136422(9) -0.36817(3) 0.147456(15)
Zn2D Zn -0.136422(9) 0.36817(3) -0.147456(15)
Zn2E Zn 0.136422(9) 0.36817(3) -0.352544(15)
Zn3E Zn 0.139176(10) 0.54188(3) 0.559697(16)
Zn3D Zn -0.139176(10) 0.54188(3) -0.059697(16)
Zn3_2 Zn 0.139176(10) 1.45812(3) 0.059697(16)
Zn3_3 Zn 0.139176(10) -0.54188(3) 0.059697(16)
C1_2 C 0.15841(10) 1.2892(3) 0.14432(17)
C2_2 C 0.15581(10) 1.1733(3) 0.15563(16)
C3_2 C 0.14112(11) 1.1041(3) 0.10781(18)
H1_2 H 0.1303 1.1310 0.0694
C4_2 C 0.14232(11) 0.9951(3) 0.11659(17)
C5_2 C 0.15962(10) 0.9550(3) 0.17436(17)
C6_2 C 0.17323(10) 1.0249(3) 0.22202(17)
H2_2 H 0.1843 0.9981 0.2605
C7_2 C 0.17058(9) 1.1340(3) 0.21331(16)
C8_2 C 0.16403(10) 0.8377(3) 0.18446(18)
C9_2 C 0.18390(10) 1.2005(3) 0.26888(16)
C10_2 C 0.15822(12) 1.2430(3) 0.2851(2)
C11_2 C 0.12392(14) 1.2665(5) 0.2431(3)
H3_2 H 0.1166 1.2598 0.2029
C12_2 C 0.10034(18) 1.3005(5) 0.2621(5)
H4_2 H 0.0776 1.3192 0.2344
C13_2 C 0.1112(3) 1.3063(5) 0.3228(6)
C14_2 C 0.1455(3) 1.2823(5) 0.3638(4)
H5_2 H 0.1530 1.2866 0.4042
C15_2 C 0.16832(18) 1.2526(4) 0.3450(3)
H6_2 H 0.1914 1.2383 0.3731
C16_2 C 0.12895(14) 0.9240(3) 0.06307(18)
C17_2 C 0.09133(14) 0.8939(4) 0.0297(2)
C18_2 C 0.06843(15) 0.9211(5) 0.0500(3)
H7_2 H 0.0758 0.9618 0.0841
C19_2 C 0.03399(17) 0.8855(6) 0.0179(3)
H8_2 H 0.0183 0.9033 0.0310
C20_2 C 0.02239(18) 0.8254(5) -0.0323(3)
C21_2 C 0.0451(2) 0.7992(5) -0.0521(3)
H9_2 H 0.0373 0.7592 -0.0865
C22_2 C 0.07990(18) 0.8314(5) -0.0216(2)
H10_2 H 0.0954 0.8121 -0.0350
C23_2 C -0.0151(2) 0.7819(7) -0.0658(3)
H11_2 H -0.0214 0.7694 -0.1065
H12_2 H -0.0309 0.8325 -0.0641
H13_2 H -0.0164 0.7165 -0.0480
C24E C 0.16707(9) 0.4505(3) -0.23653(14)
C25E C 0.16652(9) 0.4564(3) -0.17933(15)
C26E C 0.19662(10) 0.4901(3) -0.12874(15)
H14E H 0.2162 0.5092 -0.1317
C27E C 0.19792(10) 0.4956(3) -0.07410(16)
C28E C 0.16863(11) 0.4655(3) -0.06969(16)
C29E C 0.13805(11) 0.4332(3) -0.12083(17)
H15E H 0.1184 0.4147 -0.1179
C30E C 0.13670(10) 0.4286(3) -0.17555(16)
C31E C 0.16991(13) 0.4617(3) -0.01060(18)
C32E C 0.23022(12) 0.5430(4) -0.02246(16)
C33E C 0.26388(11) 0.4868(4) -0.00176(17)
C34E C 0.29509(13) 0.5425(4) 0.0314(2)
H16E H 0.2945 0.6127 0.0418
C35E C 0.32664(14) 0.4941(5) 0.0485(2)
H17E H 0.3472 0.5323 0.0705
C36E C 0.32866(12) 0.3904(5) 0.0341(2)
C37E C 0.29711(12) 0.3319(4) 0.0017(2)
H18E H 0.2979 0.2610 -0.0076
C38E C 0.26504(11) 0.3812(4) -0.01612(18)
H19E H 0.2444 0.3434 -0.0377
C39E C 0.36322(14) 0.3360(6) 0.0517(3)
H20E H 0.3739 0.3151 0.0926
H21E H 0.3592 0.2744 0.0274
H22E H 0.3784 0.3841 0.0463
C40E C 0.10177(12) 0.3951(4) -0.22800(18)
C41E C 0.09614(12) 0.2856(4) -0.24604(19)
C42E C 0.06393(14) 0.2571(5) -0.2950(2)
H23E H 0.0473 0.3088 -0.3163
C43E C 0.05716(18) 0.1518(6) -0.3113(3)
H24E H 0.0357 0.1329 -0.3433
C44E C 0.08150(16) 0.0748(5) -0.2812(3)
C45E C 0.11297(18) 0.1022(5) -0.2326(3)
H25E H 0.1292 0.0498 -0.2111
C46E C 0.12052(15) 0.2087(4) -0.2155(2)
H26E H 0.1420 0.2272 -0.1835
C47D C -0.07375(9) 0.4603(3) -0.04961(16)
C48D C -0.03518(9) 0.4780(3) -0.02254(17)
C49D C -0.01571(11) 0.5193(4) 0.0352(2)
C50D C -0.01947(11) 0.4572(4) -0.0560(2)
H27D H -0.0325 0.4267 -0.0933
C51D C -0.02990(12) 0.5298(4) 0.0782(2)
C52D C -0.03509(11) 0.6382(5) 0.0958(2)
C53D C -0.03808(13) 0.7246(5) 0.0620(3)
H28D H -0.0371 0.7169 0.0270
C54D C -0.04260(17) 0.8258(6) 0.0805(3)
H29D H -0.0452 0.8849 0.0571
C55D C -0.04317(16) 0.8376(6) 0.1328(3)
C56D C -0.04094(17) 0.7501(7) 0.1655(3)
H30D H -0.0423 0.7581 0.2001
C57D C -0.03674(14) 0.6503(6) 0.1484(3)
H31D H -0.0350 0.5915 0.1713
C58_2 C 0.0740(4) 1.3421(14) 0.3183(8)
H32_2 H 0.0628 1.2813 0.3242
H33_2 H 0.0590 1.3718 0.2799
H34_2 H 0.0783 1.3942 0.3482
C59E C 0.0682(6) -0.0329(17) -0.3099(9)
H35E H 0.0751 -0.0860 -0.2796
H36E H 0.0431 -0.0311 -0.3331
H37E H 0.0780 -0.0495 -0.3351
C60D C -0.0488(5) 0.9548(14) 0.1469(8)
H38D H -0.0266 0.9861 0.1736
H39D H -0.0599 0.9951 0.1108
H40D H -0.0635 0.9549 0.1650
O1_2 O 0.14397(9) 1.3159(2) 0.09008(12)
O1E O 0.14397(9) 0.6841(2) 0.59008(12)
O2_2 O 0.17514(7) 1.34737(18) 0.18795(11)
O3E O 0.19483(6) 0.4711(2) -0.23651(10)
O3_2 O 0.19483(6) 1.5289(2) 0.26349(10)
O4E O 0.13858(6) 0.4227(2) -0.28123(10)
O4_2 O 0.13858(6) -0.4227(2) 0.21877(10)
O5_2 O 0.19053(9) 0.8022(2) 0.22719(17)
O6_2 O 0.13982(7) 0.78307(19) 0.14406(11)
O7D O -0.08716(6) 0.3932(2) -0.09005(11)
O7_2 O 0.08716(6) -0.3932(2) 0.09005(11)
O8D O -0.08940(7) 0.5155(3) -0.02990(16)
O8E O 0.08940(7) 0.5155(3) 0.52990(16)
O9E O 0.14031(9) 0.4654(3) -0.01280(13)
O10E O 0.19843(9) 0.4532(3) 0.03436(12)
O11_2 O 0.14987(11) 0.8984(3) 0.04649(15)
O12_2 O 0.21519(7) 1.2028(2) 0.30379(11)
O13E O 0.22802(10) 0.6291(3) -0.00314(15)
O14E O 0.07803(9) 0.4600(3) -0.25027(16)
O15D O -0.03412(11) 0.4492(3) 0.10047(19)
O16_2 O 0.16737(6) -0.44401(17) 0.12498(9)
O16E O 0.16737(6) 0.44401(17) 0.62498(9)
O16_3 O 0.16737(6) 1.55599(17) 0.12498(9)
H41_2 H 0.1756(10) -0.400(2) 0.1106(16)
H41E H 0.1756(10) 0.400(2) 0.6106(16)
H41_3 H 0.1756(10) 1.600(2) 0.1106(16)
O17_2 O 0.23590(7) 1.6206(2) 0.22206(12)
H42_2 H 0.2392 1.6515 0.2534
H43_2 H 0.2514 1.6417 0.2141
O18_2 O 0.24989(7) 1.3958(2) 0.27072(11)
H44_2 H 0.2664 1.3682 0.2672
H45_2 H 0.2594 1.4219 0.3053
O19_2 O 0.22812(7) 1.4167(2) 0.15003(11)
H46_2 H 0.2183 1.4345 0.1138
H47_2 H 0.2283 1.3492 0.1499
O20 O 0.26010(17) 0.6971(4) 0.3395(2)
O21 O 0.21992(11) 0.9786(6) 0.11617(19)
O22 O 0.18513(18) 0.6948(3) 0.0655(2)
O23 O 0.24301(14) 0.2218(5) 0.5819(2)
C61? C 0.0912(4) 0.3350(12) 0.3561(7)
C62? C 0.0772(7) 1.048(2) 0.2137(10)
C63? C 0.0428(6) 0.0735(18) -0.1714(9)
H48? H 0.0800 0.2728 0.3603
H49? H 0.0739 0.3878 0.3341
H50? H 0.1074 0.3623 0.3946
H51? H 0.0894 1.0785 0.2526
H52? H 0.0529 1.0654 0.1954
H53? H 0.0869 1.0746 0.1901
H54? H 0.0198 0.0430 -0.1918
H55? H 0.0593 0.0203 -0.1474
H56? H 0.0489 0.1001 -0.1999
loop_
_geom_bond_atom_site_label_1
_geom_bond_atom_site_label_2
_geom_bond_site_symmetry_1
_geom_bond_site_symmetry_2
Zn1 O2 1_555 1_555
Zn2 O4 1_555 1_555
Zn3 O1 1_555 1_555
C1 C2 1_555 1_555
C2 C3 1_555 1_555
C3 H1 1_555 1_555
C4 C3 1_555 1_555
C5 C4 1_555 1_555
C6 C5 1_555 1_555
H2 C6 1_555 1_555
C7 C2 1_555 1_555
C8 C5 1_555 1_555
C9 C7 1_555 1_555
C10 C9 1_555 1_555
C11 C10 1_555 1_555
H3 C11 1_555 1_555
C12 C11 1_555 1_555
H4 C12 1_555 1_555
C13 C12 1_555 1_555
C14 C13 1_555 1_555
H5 C14 1_555 1_555
C15 C10 1_555 1_555
H6 C15 1_555 1_555
C16 C4 1_555 1_555
C17 C16 1_555 1_555
C18 C17 1_555 1_555
H7 C18 1_555 1_555
C19 C18 1_555 1_555
H8 C19 1_555 1_555
C20 C19 1_555 1_555
C21 C20 1_555 1_555
H9 C21 1_555 1_555
C22 C17 1_555 1_555
H10 C22 1_555 1_555
C23 C20 1_555 1_555
H11 C23 1_555 1_555
H12 C23 1_555 1_555
H13 C23 1_555 1_555
C24 C25 1_555 1_555
C25 C26 1_555 1_555
C26 H14 1_555 1_555
C27 C26 1_555 1_555
C28 C27 1_555 1_555
C29 C28 1_555 1_555
H15 C29 1_555 1_555
C30 C25 1_555 1_555
C31 C28 1_555 1_555
C32 C27 1_555 1_555
C33 C32 1_555 1_555
C34 C33 1_555 1_555
H16 C34 1_555 1_555
C35 C34 1_555 1_555
H17 C35 1_555 1_555
C36 C35 1_555 1_555
C37 C36 1_555 1_555
H18 C37 1_555 1_555
C38 C33 1_555 1_555
H19 C38 1_555 1_555
C39 C36 1_555 1_555
H20 C39 1_555 1_555
H21 C39 1_555 1_555
H22 C39 1_555 1_555
C40 C30 1_555 1_555
C41 C40 1_555 1_555
C42 C41 1_555 1_555
H23 C42 1_555 1_555
C43 C42 1_555 1_555
H24 C43 1_555 1_555
C44 C43 1_555 1_555
C45 C44 1_555 1_555
H25 C45 1_555 1_555
C46 C41 1_555 1_555
H26 C46 1_555 1_555
C47 C48 1_555 1_555
C48 C49 1_555 1_555
C49 C51 1_555 1_555
C50 C48 1_555 1_555
H27 C50 1_555 1_555
C51 C52 1_555 1_555
C52 C53 1_555 1_555
C53 H28 1_555 1_555
C54 C53 1_555 1_555
H29 C54 1_555 1_555
C55 C54 1_555 1_555
C56 C55 1_555 1_555
H30 C56 1_555 1_555
C57 C52 1_555 1_555
H31 C57 1_555 1_555
C58 C13 1_555 1_555
H32 C58 1_555 1_555
H33 C58 1_555 1_555
H34 C58 1_555 1_555
C59 C44 1_555 1_555
H35 C59 1_555 1_555
H36 C59 1_555 1_555
H37 C59 1_555 1_555
C60 C55 1_555 1_555
H38 C60 1_555 1_555
H39 C60 1_555 1_555
H40 C60 1_555 1_555
O1 C1 1_555 1_555
O2 C1 1_555 1_555
O3 Zn1 1_555 1_555
O4 C24 1_555 1_555
O5 C8 1_555 1_555
O6 C8 1_555 1_555
O7 Zn2 1_555 1_555
O8 Zn3 1_555 1_555
O9 C31 1_555 1_555
O10 C31 1_555 1_555
O11 C16 1_555 1_555
O12 C9 1_555 1_555
O13 C32 1_555 1_555
O14 C40 1_555 1_555
O15 C51 1_555 1_555
O16 Zn1 1_555 1_555
H41 O16 1_555 1_555
O17 Zn1 1_555 1_555
H42 O17 1_555 1_555
H43 O17 1_555 1_555
O18 Zn1 1_555 1_555
H44 O18 1_555 1_555
H45 O18 1_555 1_555
O19 Zn1 1_555 1_555
H46 O19 1_555 1_555
H47 O19 1_555 1_555
Zn1_2 O2_2 1_555 1_555
Zn1E O3E 1_555 1_555
Zn1_3 O16_2 1_555 1_555
Zn2_2 O6 1_555 1_555
Zn2D O7D 1_555 1_555
Zn2E O4E 1_555 1_555
Zn3E O9 1_555 1_555
Zn3D O8D 1_555 1_555
Zn3_2 O1_2 1_555 1_555
Zn3_3 O16_2 1_555 1_555
C1_2 C2_2 1_555 1_555
C2_2 C3_2 1_555 1_555
C3_2 H1_2 1_555 1_555
C4_2 C3_2 1_555 1_555
C5_2 C4_2 1_555 1_555
C6_2 C5_2 1_555 1_555
H2_2 C6_2 1_555 1_555
C7_2 C2_2 1_555 1_555
C8_2 C5_2 1_555 1_555
C9_2 C7_2 1_555 1_555
C10_2 C9_2 1_555 1_555
C11_2 C10_2 1_555 1_555
H3_2 C11_2 1_555 1_555
C12_2 C11_2 1_555 1_555
H4_2 C12_2 1_555 1_555
C13_2 C12_2 1_555 1_555
C14_2 C13_2 1_555 1_555
H5_2 C14_2 1_555 1_555
C15_2 C10_2 1_555 1_555
H6_2 C15_2 1_555 1_555
C16_2 C4_2 1_555 1_555
C17_2 C16_2 1_555 1_555
C18_2 C17_2 1_555 1_555
H7_2 C18_2 1_555 1_555
C19_2 C18_2 1_555 1_555
H8_2 C19_2 1_555 1_555
C20_2 C19_2 1_555 1_555
C21_2 C20_2 1_555 1_555
H9_2 C21_2 1_555 1_555
C22_2 C17_2 1_555 1_555
H10_2 C22_2 1_555 1_555
C23_2 C20_2 1_555 1_555
H11_2 C23_2 1_555 1_555
H12_2 C23_2 1_555 1_555
H13_2 C23_2 1_555 1_555
C24E C25E 1_555 1_555
C25E C26E 1_555 1_555
C26E H14E 1_555 1_555
C27E C26E 1_555 1_555
C28E C27E 1_555 1_555
C29E C28E 1_555 1_555
H15E C29E 1_555 1_555
C30E C25E 1_555 1_555
C31E C28E 1_555 1_555
C32E C27E 1_555 1_555
C33E C32E 1_555 1_555
C34E C33E 1_555 1_555
H16E C34E 1_555 1_555
C35E C34E 1_555 1_555
H17E C35E 1_555 1_555
C36E C35E 1_555 1_555
C37E C36E 1_555 1_555
H18E C37E 1_555 1_555
C38E C33E 1_555 1_555
H19E C38E 1_555 1_555
C39E C36E 1_555 1_555
H20E C39E 1_555 1_555
H21E C39E 1_555 1_555
H22E C39E 1_555 1_555
C40E C30E 1_555 1_555
C41E C40E 1_555 1_555
C42E C41E 1_555 1_555
H23E C42E 1_555 1_555
C43E C42E 1_555 1_555
H24E C43E 1_555 1_555
C44E C43E 1_555 1_555
C45E C44E 1_555 1_555
H25E C45E 1_555 1_555
C46E C41E 1_555 1_555
H26E C46E 1_555 1_555
C47D C48D 1_555 1_555
C48D C49D 1_555 1_555
C49D C50 1_555 1_555
C50D C49 1_555 1_555
H27D C50D 1_555 1_555
C51D C49D 1_555 1_555
C52D C51D 1_555 1_555
C53D C52D 1_555 1_555
H28D C53D 1_555 1_555
C54D C53D 1_555 1_555
H29D C54D 1_555 1_555
C55D C54D 1_555 1_555
C56D C55D 1_555 1_555
H30D C56D 1_555 1_555
C57D C52D 1_555 1_555
H31D C57D 1_555 1_555
C58_2 C13_2 1_555 1_555
H32_2 C58_2 1_555 1_555
H33_2 C58_2 1_555 1_555
H34_2 C58_2 1_555 1_555
C59E C44E 1_555 1_555
H35E C59E 1_555 1_555
H36E C59E 1_555 1_555
H37E C59E 1_555 1_555
C60D C55D 1_555 1_555
H38D C60D 1_555 1_555
H39D C60D 1_555 1_555
H40D C60D 1_555 1_555
O1_2 C1_2 1_555 1_555
O1E Zn3E 1_555 1_555
O2_2 C1_2 1_555 1_555
O3E C24E 1_555 1_555
O3_2 Zn1_2 1_555 1_555
O4E C24E 1_555 1_555
O4_2 Zn2_2 1_555 1_555
O5_2 C8_2 1_555 1_555
O6_2 Zn2 1_555 1_555
O7D C47D 1_555 1_555
O7_2 Zn2_2 1_555 1_555
O8D C47D 1_555 1_555
O8E Zn3E 1_555 1_555
O9E Zn3 1_555 1_555
O10E C31E 1_555 1_555
O11_2 C16_2 1_555 1_555
O12_2 C9_2 1_555 1_555
O13E C32E 1_555 1_555
O14E C40E 1_555 1_555
O15D C51D 1_555 1_555
O16_2 Zn2_2 1_555 1_555
O16E Zn3E 1_555 1_555
O16_3 Zn1_2 1_555 1_555
H41_2 O16_2 1_555 1_555
H41E O16E 1_555 1_555
H41_3 O16_3 1_555 1_555
O17_2 Zn1_2 1_555 1_555
H42_2 O17_2 1_555 1_555
H43_2 O17_2 1_555 1_555
O18_2 Zn1_2 1_555 1_555
H44_2 O18_2 1_555 1_555
H45_2 O18_2 1_555 1_555
O19_2 Zn1_2 1_555 1_555
H46_2 O19_2 1_555 1_555
H47_2 O19_2 1_555 1_555
Zn2 O16 1_555 1_555
Zn3 O16 1_555 1_555
C6 C7 1_555 1_555
C14 C15 1_555 1_555
C21 C22 1_555 1_555
C24 O3 1_555 1_555
C29 C30 1_555 1_555
C37 C38 1_555 1_555
C45 C46 1_555 1_555
C47 O7 1_555 1_555
C47 O8 1_555 1_555
C56 C57 1_555 1_555
Zn3_2 O16_3 1_555 1_555
C6_2 C7_2 1_555 1_555
C8_2 O6_2 1_555 1_555
C14_2 C15_2 1_555 1_555
C21_2 C22_2 1_555 1_555
C29E C30E 1_555 1_555
C31E O9E 1_555 1_555
C37E C38E 1_555 1_555
C45E C46E 1_555 1_555
C48D C50D 1_555 1_555
C56D C57D 1_555 1_555

#END
