
#######################################################################
#
#                 Cambridge Crystallographic Data Centre
#                                CCDC 
#
#######################################################################
#
# If this CIF has been generated from an entry in the Cambridge 
# Structural Database, then it will include bibliographic, chemical, 
# crystal, experimental, refinement or atomic coordinate data resulting 
# from the CCDC's data processing and validation procedures.
#
#######################################################################

data_HAXFIV
_symmetry_cell_setting           orthorhombic
_symmetry_space_group_name_H-M   'P n m a'
_symmetry_Int_Tables_number      62
_space_group_name_Hall           '-P 2ac 2n'
loop_
_symmetry_equiv_pos_site_id
_symmetry_equiv_pos_as_xyz
1 x,y,z
2 1/2-x,1/2+y,1/2+z
3 x,1/2-y,z
4 1/2+x,y,1/2-z
5 -x,-y,-z
6 1/2+x,1/2-y,1/2-z
7 -x,1/2+y,-z
8 1/2-x,-y,1/2+z
_cell_length_a                   7.6070(3)
_cell_length_b                   7.5828(4)
_cell_length_c                   11.8468(6)
_cell_angle_alpha                90
_cell_angle_beta                 90
_cell_angle_gamma                90
_cell_volume                     683.351
loop_
_atom_site_label
_atom_site_type_symbol
_atom_site_fract_x
_atom_site_fract_y
_atom_site_fract_z
Zn1 Zn 0.22120(4) 0.2500 0.34731(3)
N1 N -0.5701(4) 0.2500 0.4434(3)
N2 N -0.2784(3) 0.2500 0.5302(2)
N3 N 0.0067(4) 0.2500 0.4346(2)
N4 N 0.2311(2) 0.0405(3) 0.2509(2)
N5 N 0.3337(5) -0.2500 0.1914(3)
C1 C -0.4293(5) 0.2500 0.4781(3)
C2 C -0.1309(4) 0.2500 0.4747(3)
C3 C 0.2727(3) -0.0998(3) 0.2271(2)
Zn1_2 Zn -0.77880(4) 0.2500 0.34731(3)
N1_2 N 0.4299(4) 0.2500 0.4434(3)
C3B C 0.2727(3) -0.4002(3) 0.2271(2)
N4B N 0.2311(2) -0.5405(3) 0.2509(2)
Zn1_3 Zn 0.22120(4) -0.7500 0.34731(3)
N4B_2 N 0.2311(2) 0.4595(3) 0.2509(2)
loop_
_geom_bond_atom_site_label_1
_geom_bond_atom_site_label_2
_geom_bond_site_symmetry_1
_geom_bond_site_symmetry_2
Zn1 N3 1_555 1_555
N1 C1 1_555 1_555
N2 C1 1_555 1_555
N3 C2 1_555 1_555
N4 Zn1 1_555 1_555
N5 C3 1_555 1_555
C2 N2 1_555 1_555
C3 N4 1_555 1_555
Zn1_2 N1 1_555 1_555
N1_2 Zn1 1_555 1_555
C3B N5 1_555 1_555
N4B C3B 1_555 1_555
Zn1_3 N4B 1_555 1_555
N4B_2 Zn1 1_555 1_555

#END
