
#######################################################################
#
#                 Cambridge Crystallographic Data Centre
#                                CCDC 
#
#######################################################################
#
# If this CIF has been generated from an entry in the Cambridge 
# Structural Database, then it will include bibliographic, chemical, 
# crystal, experimental, refinement or atomic coordinate data resulting 
# from the CCDC's data processing and validation procedures.
#
#######################################################################

data_HAXNAX
_symmetry_cell_setting           orthorhombic
_symmetry_space_group_name_H-M   'P 21 21 21'
_symmetry_Int_Tables_number      19
_space_group_name_Hall           'P 2ac 2ab'
loop_
_symmetry_equiv_pos_site_id
_symmetry_equiv_pos_as_xyz
1 x,y,z
2 1/2-x,-y,1/2+z
3 1/2+x,1/2-y,-z
4 -x,1/2+y,1/2-z
_cell_length_a                   7.6419(4)
_cell_length_b                   16.2205(8)
_cell_length_c                   23.4299(12)
_cell_angle_alpha                90
_cell_angle_beta                 90
_cell_angle_gamma                90
_cell_volume                     2904.26
loop_
_atom_site_label
_atom_site_type_symbol
_atom_site_fract_x
_atom_site_fract_y
_atom_site_fract_z
Na1 Na 0.3561(2) 0.93046(11) 0.25270(7)
O1 O 0.6199(5) 1.0006(2) 0.23657(15)
H1 H 0.692(7) 0.981(4) 0.213(2)
H2 H 0.647(8) 0.992(4) 0.2710(12)
O2 O 0.4540(5) 0.7986(2) 0.23217(16)
H3 H 0.426(9) 0.761(3) 0.255(2)
H4 H 0.562(3) 0.799(4) 0.232(3)
O4 O 0.5223(4) 0.81992(19) 0.50674(14)
O5 O 0.4343(4) 0.92329(19) 0.35024(14)
O6 O 0.6989(4) 0.97840(17) 0.34759(13)
O7 O 0.6861(4) 0.79487(17) 0.58525(13)
O8 O 0.5138(4) 0.83495(17) 0.65931(13)
O9 O 0.6190(4) 0.62765(18) 0.61009(13)
H7 H 0.6999 0.5954 0.6197
O10 O 0.5649(4) 0.60366(19) 0.72886(14)
H8 H 0.5387 0.6066 0.7636
O11 O 0.3178(4) 0.72449(19) 0.77836(14)
H9 H 0.3456 0.681 0.7956
O12 O 0.2931(5) 0.95967(19) 0.70205(15)
H10 H 0.3731 0.9749 0.6798
N1 N 0.6804(5) 1.1997(2) 0.54195(17)
H11 H 0.6665 1.1622 0.5687
N2 N 0.7853(5) 1.1094(2) 0.40300(16)
H12 H 0.9004 1.1203 0.4116
H13 H 0.7814 1.0602 0.3834
C1 C 0.6827(5) 1.1009(2) 0.45771(19)
H14 H 0.5581 1.0886 0.4478
C2 C 0.6905(6) 1.1850(3) 0.48518(19)
C3 C 0.6957(6) 1.2834(3) 0.5505(2)
C4 C 0.6970(6) 1.3297(3) 0.6007(2)
H15 H 0.6878 1.3038 0.6369
C5 C 0.7122(6) 1.4145(3) 0.5961(2)
H16 H 0.7134 1.4472 0.6297
C6 C 0.7259(6) 1.4528(3) 0.5426(2)
H17 H 0.7319 1.5113 0.5406
C7 C 0.7306(6) 1.4076(3) 0.4933(2)
H18 H 0.7438 1.434 0.4574
C8 C 0.7154(6) 1.3212(3) 0.4968(2)
C9 C 0.7143(6) 1.2570(2) 0.4554(2)
C10 C 0.7423(6) 1.2607(3) 0.3923(2)
H19 H 0.8626 1.2802 0.3843
H20 H 0.6592 1.3006 0.3753
C11 C 0.7155(7) 1.1768(3) 0.36551(19)
H21 H 0.5891 1.1677 0.3588
H22 H 0.7757 1.175 0.3281
C12 C 0.7520(6) 1.0316(3) 0.49490(19)
H23 H 0.6748 1.027 0.5287
H24 H 0.8693 1.0479 0.5088
C13 C 0.7677(5) 0.9449(2) 0.46762(18)
H25 H 0.8683 0.9468 0.4404
C14 C 0.6081(6) 0.9149(3) 0.43428(19)
C15 C 0.5084(5) 0.8542(2) 0.45537(19)
H26 H 0.4188 0.8335 0.4312
C16 C 0.6458(6) 0.8560(3) 0.54527(19)
H27 H 0.5934 0.905 0.5647
C17 C 0.8126(6) 0.8804(3) 0.51379(19)
H28 H 0.8569 0.8301 0.4937
C18 C 0.5765(5) 0.9404(2) 0.37354(18)
C19 C 0.9515(6) 0.9067(2) 0.5556(2)
H29 H 0.9209 0.9466 0.5836
C20 C 1.1120(6) 0.8781(3) 0.5559(2)
H30 H 1.1468 0.8382 0.5285
H31 H 1.1934 0.8973 0.5835
C21 C 0.5454(6) 0.7701(2) 0.62002(18)
H32 H 0.4389 0.7588 0.5965
C22 C 0.6060(6) 0.6926(2) 0.65071(18)
H33 H 0.7244 0.703 0.6674
C23 C 0.4815(6) 0.6694(3) 0.69848(19)
H34 H 0.3687 0.6493 0.6819
C24 C 0.4466(6) 0.7429(3) 0.73655(19)
H35 H 0.5576 0.7593 0.756
C25 C 0.3807(6) 0.8147(3) 0.70055(19)
H36 H 0.2701 0.7989 0.6806
C26 C 0.3520(6) 0.8925(3) 0.7348(2)
H37 H 0.2651 0.881 0.7652
H38 H 0.4633 0.9079 0.7537
Na1B Na 0.8561(2) 0.56954(11) 0.74730(7)
Na1A Na 0.1439(2) 1.06954(11) 0.75270(7)
O10B O 0.0649(4) 0.89634(19) 0.27114(14)
H8B H 0.0387 0.8934 0.2364
O12A O 0.2069(5) 1.04033(19) 0.20205(15)
H10A H 0.1269 1.0251 0.1798
Cl1 Cl 0.39910(14) 0.56856(6) 0.85273(5)
O3 O 0.5825(7) 1.1638(3) 0.1994(2)
H5 H 0.652(9) 1.142(5) 0.223(3)
H6 H 0.627(10) 1.158(5) 0.1665(17)
loop_
_geom_bond_atom_site_label_1
_geom_bond_atom_site_label_2
_geom_bond_site_symmetry_1
_geom_bond_site_symmetry_2
Na1 O1 1_555 1_555
O1 H1 1_555 1_555
H2 O1 1_555 1_555
O2 Na1 1_555 1_555
H3 O2 1_555 1_555
H4 O2 1_555 1_555
O3 H5 1_555 1_555
H6 O3 1_555 1_555
O4 C15 1_555 1_555
O5 Na1 1_555 1_555
O6 C18 1_555 1_555
O7 C16 1_555 1_555
O8 C21 1_555 1_555
O9 H7 1_555 1_555
O10 H8 1_555 1_555
O11 H9 1_555 1_555
O12 H10 1_555 1_555
N1 H11 1_555 1_555
N2 H12 1_555 1_555
H13 N2 1_555 1_555
C1 N2 1_555 1_555
H14 C1 1_555 1_555
C2 N1 1_555 1_555
C3 N1 1_555 1_555
C4 C3 1_555 1_555
H15 C4 1_555 1_555
C5 C4 1_555 1_555
H16 C5 1_555 1_555
C6 C5 1_555 1_555
H17 C6 1_555 1_555
C7 C6 1_555 1_555
H18 C7 1_555 1_555
C8 C3 1_555 1_555
C9 C2 1_555 1_555
C10 C9 1_555 1_555
H19 C10 1_555 1_555
H20 C10 1_555 1_555
C11 N2 1_555 1_555
H21 C11 1_555 1_555
H22 C11 1_555 1_555
C12 C1 1_555 1_555
H23 C12 1_555 1_555
H24 C12 1_555 1_555
C13 C12 1_555 1_555
H25 C13 1_555 1_555
C14 C13 1_555 1_555
C15 C14 1_555 1_555
H26 C15 1_555 1_555
C16 O4 1_555 1_555
H27 C16 1_555 1_555
C17 C13 1_555 1_555
H28 C17 1_555 1_555
C18 O5 1_555 1_555
C19 C17 1_555 1_555
H29 C19 1_555 1_555
C20 C19 1_555 1_555
H30 C20 1_555 1_555
H31 C20 1_555 1_555
C21 O7 1_555 1_555
H32 C21 1_555 1_555
C22 O9 1_555 1_555
H33 C22 1_555 1_555
C23 O10 1_555 1_555
H34 C23 1_555 1_555
C24 O11 1_555 1_555
H35 C24 1_555 1_555
C25 O8 1_555 1_555
H36 C25 1_555 1_555
C26 O12 1_555 1_555
H37 C26 1_555 1_555
H38 C26 1_555 1_555
Na1B O10 1_555 1_555
Na1A O12 1_555 1_555
O10B Na1 1_555 1_555
H8B O10B 1_555 1_555
O12A Na1 1_555 1_555
H10A O12A 1_555 1_555
C1 C2 1_555 1_555
C7 C8 1_555 1_555
C8 C9 1_555 1_555
C10 C11 1_555 1_555
C14 C18 1_555 1_555
C16 C17 1_555 1_555
C21 C22 1_555 1_555
C22 C23 1_555 1_555
C23 C24 1_555 1_555
C24 C25 1_555 1_555
C25 C26 1_555 1_555

#END
