
#######################################################################
#
#                 Cambridge Crystallographic Data Centre
#                                CCDC 
#
#######################################################################
#
# If this CIF has been generated from an entry in the Cambridge 
# Structural Database, then it will include bibliographic, chemical, 
# crystal, experimental, refinement or atomic coordinate data resulting 
# from the CCDC's data processing and validation procedures.
#
#######################################################################

data_HAXNUR
_symmetry_cell_setting           monoclinic
_symmetry_space_group_name_H-M   'C 2/c'
_symmetry_Int_Tables_number      15
_space_group_name_Hall           '-C 2yn'
loop_
_symmetry_equiv_pos_site_id
_symmetry_equiv_pos_as_xyz
1 x,y,z
2 -x,y,1/2-z
3 1/2+x,1/2+y,z
4 1/2-x,1/2+y,1/2-z
5 -x,-y,-z
6 x,-y,1/2+z
7 1/2-x,1/2-y,-z
8 1/2+x,1/2-y,1/2+z
_cell_length_a                   23.251(5)
_cell_length_b                   8.907(5)
_cell_length_c                   19.233(5)
_cell_angle_alpha                90
_cell_angle_beta                 101.221(5)
_cell_angle_gamma                90
_cell_volume                     3906.95
loop_
_atom_site_label
_atom_site_type_symbol
_atom_site_fract_x
_atom_site_fract_y
_atom_site_fract_z
C1 C 0.45636(9) 0.4129(2) 0.09660(11)
C2 C 0.49931(8) 0.3117(2) 0.07158(11)
C3 C 0.49185(9) 0.2775(3) -0.00011(11)
H1 H 0.4615 0.3218 -0.0321
C4 C 0.52900(9) 0.1788(3) -0.02399(11)
H2 H 0.5242 0.1584 -0.0722
C5 C 0.57364(9) 0.1094(2) 0.02336(11)
C6 C 0.58157(10) 0.1443(3) 0.09514(11)
H3 H 0.6117 0.0987 0.1271
C7 C 0.54511(10) 0.2459(3) 0.11914(12)
H4 H 0.5511 0.2703 0.1670
C8 C 0.61093(9) -0.0088(3) -0.00113(12)
C9 C 0.25792(13) 0.7131(3) 0.10179(14)
H5 H 0.2222 0.6727 0.0733
H6 H 0.2576 0.8210 0.0950
C10 C 0.25932(10) 0.6789(3) 0.17824(13)
H7 H 0.2301 0.7400 0.1948
H8 H 0.2488 0.5744 0.1827
C11 C 0.39632(12) 0.9000(3) 0.22971(13)
H9 H 0.4018 1.0074 0.2259
H10 H 0.4199 0.8666 0.2743
C12 C 0.33243(12) 0.8679(3) 0.22959(14)
H11 H 0.3228 0.9071 0.2730
H12 H 0.3085 0.9207 0.1902
C13 C 0.38053(11) 0.6198(3) 0.33519(12)
H13 H 0.3944 0.7167 0.3546
H14 H 0.3810 0.5507 0.3743
C14 C 0.31975(10) 0.6344(3) 0.29337(12)
H15 H 0.3023 0.5353 0.2859
H16 H 0.2965 0.6925 0.3205
N1 N 0.31739(8) 0.7071(2) 0.22393(9)
O1 O 0.47267(6) 0.48765(19) 0.15310(8)
O2 O 0.40496(6) 0.42171(17) 0.06169(8)
O3 O 0.64129(7) -0.09341(19) 0.04325(9)
O4 O 0.60972(7) -0.02424(19) -0.06708(8)
O5 O 0.30721(8) 0.6506(2) 0.07873(8)
O6 O 0.41577(8) 0.82625(19) 0.17254(9)
O7 O 0.41747(7) 0.5658(2) 0.29025(8)
Cl1 Cl 0.33344(3) 0.30705(6) 0.17663(3)
Cl2 Cl 0.22968(2) 0.08518(6) 0.03986(3)
Cd1 Cd 0.384088(6) 0.574018(17) 0.168115(7)
Cd2 Cd 0.329506(6) 0.233430(17) 0.048503(8)
H17 H 0.2938(11) 0.584(2) 0.0450(10)
H18 H 0.4077(11) 0.891(2) 0.1369(10)
H19 H 0.4533(6) 0.537(3) 0.3112(12)
O3D O 0.35871(7) 0.09341(19) -0.04325(9)
O4D O 0.39028(7) 0.02424(19) 0.06708(8)
Cl2F Cl 0.27032(2) 0.41482(6) -0.03986(3)
Cd2D Cd 0.670494(6) -0.233430(17) -0.048503(8)
Cd2F Cd 0.170494(6) 0.266570(17) -0.048503(8)
loop_
_geom_bond_atom_site_label_1
_geom_bond_atom_site_label_2
_geom_bond_site_symmetry_1
_geom_bond_site_symmetry_2
C1 C2 1_555 1_555
C2 C3 1_555 1_555
C3 H1 1_555 1_555
C4 C3 1_555 1_555
H2 C4 1_555 1_555
C5 C4 1_555 1_555
C6 C5 1_555 1_555
H3 C6 1_555 1_555
C7 C2 1_555 1_555
H4 C7 1_555 1_555
C8 C5 1_555 1_555
C9 H5 1_555 1_555
H6 C9 1_555 1_555
C10 C9 1_555 1_555
H7 C10 1_555 1_555
H8 C10 1_555 1_555
C11 H9 1_555 1_555
H10 C11 1_555 1_555
C12 C11 1_555 1_555
H11 C12 1_555 1_555
H12 C12 1_555 1_555
C13 H13 1_555 1_555
H14 C13 1_555 1_555
C14 C13 1_555 1_555
H15 C14 1_555 1_555
H16 C14 1_555 1_555
N1 C10 1_555 1_555
O1 C1 1_555 1_555
O2 C1 1_555 1_555
O3 C8 1_555 1_555
O4 C8 1_555 1_555
O5 C9 1_555 1_555
O6 C11 1_555 1_555
O7 C13 1_555 1_555
Cl1 Cd1 1_555 1_555
Cl2 Cd2 1_555 1_555
Cd1 N1 1_555 1_555
Cd2 O2 1_555 1_555
H17 O5 1_555 1_555
H18 O6 1_555 1_555
H19 O7 1_555 1_555
O3D Cd2 1_555 1_555
O4D Cd2 1_555 1_555
Cl2F Cd2 1_555 1_555
Cd2D O3 1_555 1_555
Cd2F Cl2 1_555 1_555
C6 C7 1_555 1_555
C12 N1 1_555 1_555
C14 N1 1_555 1_555
O1 Cd1 1_555 1_555
O2 Cd1 1_555 1_555
O4 Cd2D 1_555 1_555
O5 Cd1 1_555 1_555
O6 Cd1 1_555 1_555
O7 Cd1 1_555 1_555
Cl1 Cd2 1_555 1_555
Cl2F Cd2F 1_555 1_555

#END
