
#######################################################################
#
#                 Cambridge Crystallographic Data Centre
#                                CCDC 
#
#######################################################################
#
# If this CIF has been generated from an entry in the Cambridge 
# Structural Database, then it will include bibliographic, chemical, 
# crystal, experimental, refinement or atomic coordinate data resulting 
# from the CCDC's data processing and validation procedures.
#
#######################################################################

data_HAXNEB
_symmetry_cell_setting           triclinic
_symmetry_space_group_name_H-M   'P -1'
_symmetry_Int_Tables_number      2
_space_group_name_Hall           '-P 1'
loop_
_symmetry_equiv_pos_site_id
_symmetry_equiv_pos_as_xyz
1 x,y,z
2 -x,-y,-z
_cell_length_a                   7.9019(5)
_cell_length_b                   10.2333(7)
_cell_length_c                   10.4441(7)
_cell_angle_alpha                112.281(3)
_cell_angle_beta                 95.373(4)
_cell_angle_gamma                104.862(3)
_cell_volume                     737.932
loop_
_atom_site_label
_atom_site_type_symbol
_atom_site_fract_x
_atom_site_fract_y
_atom_site_fract_z
Cu1 Cu 0.5000 0.5000 0.5000
Cu2 Cu 0.09727(4) 0.50733(3) 0.37988(3)
C1 C 0.8328(3) 0.2326(3) 0.3886(3)
C2 C 0.6733(3) 0.2699(3) 0.3796(3)
C3 C 0.5243(3) 0.1756(3) 0.2708(3)
C4 C 0.5307(4) 0.0352(3) 0.1766(3)
H1 H 0.4306 -0.0315 0.1063
C5 C 0.6825(4) -0.0021(3) 0.1886(3)
H2 H 0.6851 -0.0947 0.1266
C6 C 0.8340(4) 0.0960(3) 0.2922(3)
H3 H 0.9377 0.0695 0.2968
C7 C 0.3712(3) 0.2182(3) 0.2412(3)
H4 H 0.2764 0.1460 0.1689
C8 C 0.1539(3) 0.3233(3) 0.1124(3)
H5 H 0.2303 0.2829 0.0589
C9 C -0.0040(3) 0.3272(3) 0.0382(3)
C10 C -0.1293(3) 0.3860(3) 0.1080(3)
C11 C -0.2855(3) 0.3828(3) 0.0252(3)
C12 C -0.3109(4) 0.3246(3) -0.1196(3)
H6 H -0.4128 0.3236 -0.1728
C13 C -0.1858(4) 0.2667(3) -0.1886(3)
H7 H -0.2045 0.2281 -0.2869
C14 C -0.0365(4) 0.2669(3) -0.1118(3)
H8 H 0.0453 0.2270 -0.1584
C15 C 0.2933(5) 0.1908(4) 0.5662(4)
H9 H 0.2137 0.1290 0.4756
H10 H 0.2452 0.1642 0.6373
H11 H 0.4085 0.1766 0.5632
N1 N 0.3524(3) 0.3479(2) 0.3057(2)
N2 N 0.1996(3) 0.3718(2) 0.2492(2)
O1 O 0.9742(2) 0.33502(19) 0.48878(19)
O2 O 0.6773(2) 0.40128(19) 0.48112(18)
O3 O -0.1134(2) 0.4491(2) 0.24474(19)
O4 O -0.4057(3) 0.4399(3) 0.0925(2)
H12 H -0.355(4) 0.487(4) 0.181(2)
O5 O 0.3112(3) 0.3406(3) 0.5992(2)
H13 H 0.214(3) 0.343(4) 0.575(4)
Cu2A Cu 0.90273(4) 0.49267(3) 0.62012(3)
Cu2_2 Cu 1.09727(4) 0.50733(3) 0.37988(3)
Cu2A_2 Cu -0.09727(4) 0.49267(3) 0.62012(3)
C1A C 0.1672(3) 0.7674(3) 0.6114(3)
C2A C 0.3267(3) 0.7301(3) 0.6204(3)
C3A C 0.4757(3) 0.8244(3) 0.7292(3)
C4A C 0.4693(4) 0.9648(3) 0.8234(3)
H1A H 0.5694 1.0315 0.8937
C5A C 0.3175(4) 1.0021(3) 0.8114(3)
H2A H 0.3149 1.0947 0.8734
C6A C 0.1660(4) 0.9040(3) 0.7078(3)
H3A H 0.0623 0.9305 0.7032
C7A C 0.6288(3) 0.7818(3) 0.7588(3)
H4A H 0.7236 0.8540 0.8311
C8A C 0.8461(3) 0.6767(3) 0.8876(3)
H5A H 0.7697 0.7171 0.9411
C9A C 1.0040(3) 0.6728(3) 0.9618(3)
C10A C 1.1293(3) 0.6140(3) 0.8920(3)
C11A C 1.2855(3) 0.6172(3) 0.9748(3)
C12A C 1.3109(4) 0.6754(3) 1.1196(3)
H6A H 1.4128 0.6764 1.1728
C13A C 1.1858(4) 0.7333(3) 1.1886(3)
H7A H 1.2045 0.7719 1.2869
C14A C 1.0365(4) 0.7331(3) 1.1118(3)
H8A H 0.9547 0.7730 1.1584
C15A C 0.7067(5) 0.8092(4) 0.4338(4)
H9A H 0.7863 0.8710 0.5244
H10A H 0.7548 0.8358 0.3627
H11A H 0.5915 0.8234 0.4368
N1A N 0.6476(3) 0.6521(2) 0.6943(2)
N2A N 0.8004(3) 0.6282(2) 0.7508(2)
O1A O 0.0258(2) 0.66498(19) 0.51122(19)
O1_2 O -0.0258(2) 0.33502(19) 0.48878(19)
O1A_2 O 1.0258(2) 0.66498(19) 0.51122(19)
O2A O 0.3227(2) 0.59872(19) 0.51888(18)
O3A O 1.1134(2) 0.5509(2) 0.75526(19)
O4A O 1.4057(3) 0.5601(3) 0.9075(2)
H12A H 1.355(4) 0.513(4) 0.819(2)
O5A O 0.6888(3) 0.6594(3) 0.4008(2)
H13A H 0.786(3) 0.657(4) 0.425(4)
loop_
_geom_bond_atom_site_label_1
_geom_bond_atom_site_label_2
_geom_bond_site_symmetry_1
_geom_bond_site_symmetry_2
Cu1 N1 1_555 1_555
Cu2 N2 1_555 1_555
C1 C2 1_555 1_555
C2 C3 1_555 1_555
C3 C4 1_555 1_555
C4 H1 1_555 1_555
C5 C4 1_555 1_555
H2 C5 1_555 1_555
C6 C1 1_555 1_555
H3 C6 1_555 1_555
C7 C3 1_555 1_555
H4 C7 1_555 1_555
C8 H5 1_555 1_555
C9 C8 1_555 1_555
C10 C9 1_555 1_555
C11 C10 1_555 1_555
C12 C11 1_555 1_555
H6 C12 1_555 1_555
C13 C12 1_555 1_555
H7 C13 1_555 1_555
C14 C9 1_555 1_555
H8 C14 1_555 1_555
C15 H9 1_555 1_555
H10 C15 1_555 1_555
H11 C15 1_555 1_555
N1 C7 1_555 1_555
N2 C8 1_555 1_555
O1 C1 1_555 1_555
O2 Cu1 1_555 1_555
O3 Cu2 1_555 1_555
O4 C11 1_555 1_555
H12 O4 1_555 1_555
O5 Cu1 1_555 1_555
H13 O5 1_555 1_555
Cu2A O1 1_555 1_555
Cu2_2 O1 1_555 1_555
Cu2A_2 O1A 1_555 1_555
C1A C2A 1_555 1_555
C2A C3A 1_555 1_555
C3A C4A 1_555 1_555
C4A H1A 1_555 1_555
C5A C4A 1_555 1_555
H2A C5A 1_555 1_555
C6A C1A 1_555 1_555
H3A C6A 1_555 1_555
C7A C3A 1_555 1_555
H4A C7A 1_555 1_555
C8A H5A 1_555 1_555
C9A C8A 1_555 1_555
C10A C9A 1_555 1_555
C11A C10A 1_555 1_555
C12A C11A 1_555 1_555
H6A C12A 1_555 1_555
C13A C12A 1_555 1_555
H7A C13A 1_555 1_555
C14A C9A 1_555 1_555
H8A C14A 1_555 1_555
C15A H9A 1_555 1_555
H10A C15A 1_555 1_555
H11A C15A 1_555 1_555
N1A Cu1 1_555 1_555
N2A Cu2A 1_555 1_555
O1A Cu2 1_555 1_555
O1_2 Cu2 1_555 1_555
O1A_2 Cu2A 1_555 1_555
O2A Cu1 1_555 1_555
O3A Cu2A 1_555 1_555
O4A C11A 1_555 1_555
H12A O4A 1_555 1_555
O5A Cu1 1_555 1_555
H13A O5A 1_555 1_555
Cu2 O2A 1_555 1_555
C2 O2 1_555 1_555
C5 C6 1_555 1_555
C10 O3 1_555 1_555
C13 C14 1_555 1_555
C15 O5 1_555 1_555
N1 N2 1_555 1_555
O2 Cu2A 1_555 1_555
Cu2_2 O1A_2 1_555 1_555
Cu2A_2 O1_2 1_555 1_555
C1A O1A 1_555 1_555
C2A O2A 1_555 1_555
C5A C6A 1_555 1_555
C7A N1A 1_555 1_555
C8A N2A 1_555 1_555
C10A O3A 1_555 1_555
C13A C14A 1_555 1_555
C15A O5A 1_555 1_555
N1A N2A 1_555 1_555

#END
