
#######################################################################
#
#                 Cambridge Crystallographic Data Centre
#                                CCDC 
#
#######################################################################
#
# If this CIF has been generated from an entry in the Cambridge 
# Structural Database, then it will include bibliographic, chemical, 
# crystal, experimental, refinement or atomic coordinate data resulting 
# from the CCDC's data processing and validation procedures.
#
#######################################################################

data_HAXRIJ
_symmetry_cell_setting           monoclinic
_symmetry_space_group_name_H-M   'P 21/c'
_symmetry_Int_Tables_number      14
_space_group_name_Hall           '-P 2ybc'
loop_
_symmetry_equiv_pos_site_id
_symmetry_equiv_pos_as_xyz
1 x,y,z
2 -x,1/2+y,1/2-z
3 -x,-y,-z
4 x,1/2-y,1/2+z
_cell_length_a                   4.99720(10)
_cell_length_b                   21.8972(6)
_cell_length_c                   10.4994(3)
_cell_angle_alpha                90
_cell_angle_beta                 90.6680(10)
_cell_angle_gamma                90
_cell_volume                     1148.82
loop_
_atom_site_label
_atom_site_type_symbol
_atom_site_fract_x
_atom_site_fract_y
_atom_site_fract_z
Ag1 Ag 0.14570(8) 0.346987(19) 0.59538(4)
S1 S 0.0697(2) 0.36458(5) 0.92376(10)
O1 O 0.2438(6) 0.33133(16) 0.8321(3)
C1 C -0.3721(9) 0.2118(2) 0.9531(4)
H1 H -0.3839 0.1749 0.9098
C2 C -0.1836(9) 0.2540(2) 0.9145(4)
H2 H -0.0681 0.2453 0.8480
C3 C -0.1721(8) 0.30918(18) 0.9773(4)
C4 C -0.3375(9) 0.3204(2) 1.0791(4)
H3 H -0.3291 0.3571 1.1238
C5 C -0.5177(9) 0.2745(2) 1.1123(4)
H4 H -0.6291 0.2811 1.1813
C6 C -0.1759(8) 0.40810(17) 0.8285(4)
C7 C -0.3535(9) 0.4349(2) 0.6390(4)
H5 H -0.3608 0.4321 0.5507
C8 C -0.5290(9) 0.4727(2) 0.7002(5)
H6 H -0.6570 0.4950 0.6551
N1 N -0.3293(8) 0.44333(17) 0.8973(3)
N2 N -0.5377(7) 0.22166(17) 1.0496(3)
C9 C -0.5089(10) 0.4764(2) 0.8305(5)
H7 H -0.6228 0.5026 0.8738
N3 N -0.1699(7) 0.40150(15) 0.7042(3)
N4 N 0.0953(8) 0.40869(18) 0.3220(4)
O2 O 0.183(2) 0.3610(4) 0.3070(10)
O3 O 0.0806(17) 0.4309(3) 0.4289(5)
O4 O 0.0188(13) 0.4358(3) 0.2239(5)
Ag1C Ag -0.85430(8) 0.153013(19) 1.09538(4)
N2C N 0.4623(7) 0.27834(17) 0.5496(3)
loop_
_geom_bond_atom_site_label_1
_geom_bond_atom_site_label_2
_geom_bond_site_symmetry_1
_geom_bond_site_symmetry_2
Ag1 O1 1_555 1_555
S1 O1 1_555 1_555
C1 H1 1_555 1_555
C2 C1 1_555 1_555
H2 C2 1_555 1_555
C3 S1 1_555 1_555
C4 C3 1_555 1_555
H3 C4 1_555 1_555
C5 C4 1_555 1_555
H4 C5 1_555 1_555
C6 S1 1_555 1_555
C7 H5 1_555 1_555
C8 C7 1_555 1_555
H6 C8 1_555 1_555
N1 C6 1_555 1_555
N2 C1 1_555 1_555
C9 C8 1_555 1_555
H7 C9 1_555 1_555
N3 Ag1 1_555 1_555
N4 O2 1_555 1_555
O3 Ag1 1_555 1_555
O4 N4 1_555 1_555
Ag1C N2 1_555 1_555
N2C Ag1 1_555 1_555
C2 C3 1_555 1_555
C5 N2 1_555 1_555
C6 N3 1_555 1_555
C7 N3 1_555 1_555
N1 C9 1_555 1_555
N4 O3 1_555 1_555

#END
