
#######################################################################
#
#                 Cambridge Crystallographic Data Centre
#                                CCDC 
#
#######################################################################
#
# If this CIF has been generated from an entry in the Cambridge 
# Structural Database, then it will include bibliographic, chemical, 
# crystal, experimental, refinement or atomic coordinate data resulting 
# from the CCDC's data processing and validation procedures.
#
#######################################################################

data_HAXSUW
_symmetry_cell_setting           tetragonal
_symmetry_space_group_name_H-M   'P 43 21 2'
_symmetry_Int_Tables_number      96
_space_group_name_Hall           'P 4nw 2abw'
loop_
_symmetry_equiv_pos_site_id
_symmetry_equiv_pos_as_xyz
1 x,y,z
2 -x,-y,1/2+z
3 1/2+x,1/2-y,1/4-z
4 1/2-x,1/2+y,3/4-z
5 -y,-x,1/2-z
6 y,x,-z
7 1/2+y,1/2-x,1/4+z
8 1/2-y,1/2+x,3/4+z
_cell_length_a                   14.6316(9)
_cell_length_b                   14.6316(9)
_cell_length_c                   6.6239(4)
_cell_angle_alpha                90
_cell_angle_beta                 90
_cell_angle_gamma                90
_cell_volume                     1418.07
loop_
_atom_site_label
_atom_site_type_symbol
_atom_site_fract_x
_atom_site_fract_y
_atom_site_fract_z
Cu1 Cu 0.1408 0.1408 0.0000
C1 C -0.02603(11) 0.04600(12) 0.0037(3)
C2 C 0.18881(12) 0.29030(12) 0.2560(3)
C3 C 0.23919(13) 0.22103(12) 0.3889(3)
N1 N 0.00707(11) 0.12625(11) 0.0363(3)
N2 N -0.11351(11) 0.02580(12) -0.0238(3)
O1 O -0.05969(10) 0.19413(10) 0.0267(3)
O2 O 0.14398(11) 0.26419(9) 0.1051(2)
O3 O 0.19637(12) 0.37216(10) 0.3041(2)
O4 O 0.21444(9) 0.13028(9) 0.3343(2)
H1 H 0.3030 0.2315 0.3653
H2 H -0.1482 0.0701 -0.0205
H3 H -0.1263 -0.0272 -0.0471
H4 H -0.0340 0.2413 0.0999
H5 H 0.2583 0.0999 0.3124
Cu1_2 Cu 0.1408 0.1408 1.0000
C1E C 0.04600(12) -0.02603(11) -0.0037(3)
C2E C 0.29030(12) 0.18881(12) 0.7440(3)
C3E C 0.22103(12) 0.23919(13) 0.6111(3)
N1E N 0.12625(11) 0.00707(11) -0.0363(3)
N2E N 0.02580(12) -0.11351(11) 0.0238(3)
O1E O 0.19413(10) -0.05969(10) -0.0267(3)
O2E O 0.26419(9) 0.14398(11) 0.8949(2)
O2E_2 O 0.26419(9) 0.14398(11) -0.1051(2)
O3E O 0.37216(10) 0.19637(12) 0.6959(2)
O4E O 0.13028(9) 0.21444(9) 0.6657(2)
O4E_2 O 0.13028(9) 0.21444(9) -0.3343(2)
H1E H 0.2315 0.3030 0.6347
H2E H 0.0701 -0.1482 0.0205
H3E H -0.0272 -0.1263 0.0471
H4E H 0.2413 -0.0340 -0.0999
H5E H 0.0999 0.2583 0.6876
H5E_2 H 0.0999 0.2583 -0.3124
O5 O 0.37291(12) 0.04366(11) 0.3020(3)
H6 H 0.3680 -0.0132 0.2643
H7 H 0.3978 0.0629 0.2158
O6 O 0.14712(11) 0.47039(10) -0.0276(3)
H8 H 0.1379 0.5193 -0.0020
H9 H 0.1588 0.4414 0.0919
loop_
_geom_bond_atom_site_label_1
_geom_bond_atom_site_label_2
_geom_bond_site_symmetry_1
_geom_bond_site_symmetry_2
Cu1 N1 1_555 1_555
C1 N1 1_555 1_555
C2 C3 1_555 1_555
C3 O4 1_555 1_555
N1 O1 1_555 1_555
N2 C1 1_555 1_555
O1 H4 1_555 1_555
O2 Cu1 1_555 1_555
O3 C2 1_555 1_555
O4 Cu1 1_555 1_555
O5 H6 1_555 1_555
O6 H8 1_555 1_555
H1 C3 1_555 1_555
H2 N2 1_555 1_555
H3 N2 1_555 1_555
H5 O4 1_555 1_555
H7 O5 1_555 1_555
H9 O6 1_555 1_555
Cu1_2 O2E 1_555 1_555
C1E C1 1_555 1_555
C2E C3E 1_555 1_555
C3E C3 1_555 1_555
N1E Cu1 1_555 1_555
N2E C1E 1_555 1_555
O1E N1E 1_555 1_555
O2E C2E 1_555 1_555
O2E_2 Cu1 1_555 1_555
O3E C2E 1_555 1_555
O4E Cu1_2 1_555 1_555
O4E_2 Cu1 1_555 1_555
H1E C3E 1_555 1_555
H2E N2E 1_555 1_555
H3E N2E 1_555 1_555
H4E O1E 1_555 1_555
H5E O4E 1_555 1_555
H5E_2 O4E_2 1_555 1_555
C2 O2 1_555 1_555
C1E N1E 1_555 1_555
C3E O4E 1_555 1_555

#END
