
#######################################################################
#
#                 Cambridge Crystallographic Data Centre
#                                CCDC 
#
#######################################################################
#
# If this CIF has been generated from an entry in the Cambridge 
# Structural Database, then it will include bibliographic, chemical, 
# crystal, experimental, refinement or atomic coordinate data resulting 
# from the CCDC's data processing and validation procedures.
#
#######################################################################

data_HAXTIK
_symmetry_cell_setting           orthorhombic
_symmetry_space_group_name_H-M   'P 21 21 21'
_symmetry_Int_Tables_number      19
_space_group_name_Hall           'P 2ac 2ab'
loop_
_symmetry_equiv_pos_site_id
_symmetry_equiv_pos_as_xyz
1 x,y,z
2 1/2-x,-y,1/2+z
3 -x,1/2+y,1/2-z
4 1/2+x,1/2-y,-z
_cell_length_a                   6.789(2)
_cell_length_b                   19.326(6)
_cell_length_c                   19.896(6)
_cell_angle_alpha                90
_cell_angle_beta                 90
_cell_angle_gamma                90
_cell_volume                     2610.44
loop_
_atom_site_label
_atom_site_type_symbol
_atom_site_fract_x
_atom_site_fract_y
_atom_site_fract_z
Sn1 Sn 0.89457(3) 0.516614(12) 0.578630(11)
N1 N 0.5625(4) 0.53501(14) 0.53316(13)
N2 N 0.5780(4) 0.56079(16) 0.46699(13)
O1 O 0.2678(3) 0.53681(11) 0.48867(10)
S1 S 0.26449(11) 0.49354(5) 0.61596(4)
C1 C 0.3780(5) 0.52209(17) 0.54504(14)
C2 C 0.4025(5) 0.56156(16) 0.44326(14)
C3 C 0.3310(5) 0.58711(19) 0.37924(17)
C4 C 0.1434(6) 0.5703(2) 0.35662(18)
H1 H 0.0611 0.5429 0.3828
C5 C 0.0796(8) 0.5945(2) 0.2951(2)
H2 H -0.0455 0.5827 0.2798
C6 C 0.1973(8) 0.6356(2) 0.2562(2)
H3 H 0.1532 0.6515 0.2147
C7 C 0.3802(9) 0.6531(2) 0.2789(2)
H4 H 0.4599 0.6815 0.2528
C8 C 0.4490(7) 0.6296(2) 0.33984(19)
H5 H 0.5741 0.6420 0.3546
C9 C 0.9092(6) 0.62748(17) 0.56355(19)
H6 H 0.8956 0.6363 0.5158
H7 H 0.7958 0.6480 0.5855
C10 C 1.0885(5) 0.66470(15) 0.58752(18)
C11 C 1.1137(8) 0.68045(19) 0.6547(2)
H8 H 1.0175 0.6676 0.6855
C12 C 1.2802(9) 0.7150(3) 0.6767(3)
H9 H 1.2943 0.7263 0.7219
C13 C 1.4218(9) 0.7324(3) 0.6323(4)
H10 H 1.5354 0.7543 0.6474
C14 C 1.4010(8) 0.7182(2) 0.5658(3)
H11 H 1.4990 0.7310 0.5356
C15 C 1.2345(6) 0.68500(19) 0.5433(2)
H12 H 1.2200 0.6761 0.4976
C16 C 0.8989(6) 0.43278(17) 0.50544(16)
H13 H 0.8385 0.4479 0.4638
H14 H 1.0338 0.4194 0.4960
C17 C 0.7882(6) 0.37276(19) 0.53347(18)
C18 C 0.5968(7) 0.3593(2) 0.5144(2)
H15 H 0.5366 0.3875 0.4826
C19 C 0.4924(9) 0.3044(3) 0.5417(3)
H16 H 0.3637 0.2958 0.5280
C20 C 0.5778(14) 0.2637(3) 0.5880(3)
H17 H 0.5062 0.2277 0.6070
C21 C 0.7698(14) 0.2745(3) 0.6077(3)
H18 H 0.8291 0.2452 0.6388
C22 C 0.8726(9) 0.3293(2) 0.5807(2)
H19 H 1.0015 0.3372 0.5945
C23 C 0.7879(5) 0.48214(19) 0.67484(13)
H20 H 0.6510 0.4685 0.6703
H21 H 0.8620 0.4416 0.6884
C24 C 0.8036(5) 0.53589(18) 0.72904(15)
C25 C 0.9701(6) 0.5414(2) 0.76913(17)
H22 H 1.0756 0.5115 0.7625
C26 C 0.9796(8) 0.5916(3) 0.8192(2)
H23 H 1.0902 0.5943 0.8466
C27 C 0.8290(10) 0.6365(3) 0.8280(2)
H24 H 0.8368 0.6700 0.8615
C28 C 0.6663(9) 0.6330(3) 0.7884(3)
H25 H 0.5643 0.6645 0.7945
C29 C 0.6515(6) 0.5823(2) 0.7387(2)
H26 H 0.5392 0.5799 0.7121
Sn1_2 Sn -0.10543(3) 0.516614(12) 0.578630(11)
S1_2 S 1.26449(11) 0.49354(5) 0.61596(4)
loop_
_geom_bond_atom_site_label_1
_geom_bond_atom_site_label_2
_geom_bond_site_symmetry_1
_geom_bond_site_symmetry_2
Sn1 N1 1_555 1_555
N1 N2 1_555 1_555
N2 C2 1_555 1_555
O1 C1 1_555 1_555
S1 C1 1_555 1_555
C1 N1 1_555 1_555
C2 O1 1_555 1_555
C3 C2 1_555 1_555
C4 C3 1_555 1_555
H1 C4 1_555 1_555
C5 C4 1_555 1_555
H2 C5 1_555 1_555
C6 C5 1_555 1_555
H3 C6 1_555 1_555
C7 C6 1_555 1_555
H4 C7 1_555 1_555
C8 C3 1_555 1_555
H5 C8 1_555 1_555
C9 Sn1 1_555 1_555
H6 C9 1_555 1_555
H7 C9 1_555 1_555
C10 C9 1_555 1_555
C11 C10 1_555 1_555
H8 C11 1_555 1_555
C12 C11 1_555 1_555
H9 C12 1_555 1_555
C13 C12 1_555 1_555
H10 C13 1_555 1_555
C14 C13 1_555 1_555
H11 C14 1_555 1_555
C15 C10 1_555 1_555
H12 C15 1_555 1_555
C16 Sn1 1_555 1_555
H13 C16 1_555 1_555
H14 C16 1_555 1_555
C17 C16 1_555 1_555
C18 C17 1_555 1_555
H15 C18 1_555 1_555
C19 C18 1_555 1_555
H16 C19 1_555 1_555
C20 C19 1_555 1_555
H17 C20 1_555 1_555
C21 C20 1_555 1_555
H18 C21 1_555 1_555
C22 C17 1_555 1_555
H19 C22 1_555 1_555
C23 Sn1 1_555 1_555
H20 C23 1_555 1_555
H21 C23 1_555 1_555
C24 C23 1_555 1_555
C25 C24 1_555 1_555
H22 C25 1_555 1_555
C26 C25 1_555 1_555
H23 C26 1_555 1_555
C27 C26 1_555 1_555
H24 C27 1_555 1_555
C28 C27 1_555 1_555
H25 C28 1_555 1_555
C29 C24 1_555 1_555
H26 C29 1_555 1_555
Sn1_2 S1 1_555 1_555
S1_2 Sn1 1_555 1_555
C7 C8 1_555 1_555
C14 C15 1_555 1_555
C21 C22 1_555 1_555
C28 C29 1_555 1_555

#END
