
#######################################################################
#
#                 Cambridge Crystallographic Data Centre
#                                CCDC 
#
#######################################################################
#
# If this CIF has been generated from an entry in the Cambridge 
# Structural Database, then it will include bibliographic, chemical, 
# crystal, experimental, refinement or atomic coordinate data resulting 
# from the CCDC's data processing and validation procedures.
#
#######################################################################

data_HAXTEG
_symmetry_cell_setting           triclinic
_symmetry_space_group_name_H-M   'P -1'
_symmetry_Int_Tables_number      2
_space_group_name_Hall           '-P 1'
loop_
_symmetry_equiv_pos_site_id
_symmetry_equiv_pos_as_xyz
1 x,y,z
2 -x,-y,-z
_cell_length_a                   10.562(13)
_cell_length_b                   12.551(15)
_cell_length_c                   18.31(2)
_cell_angle_alpha                88.417(18)
_cell_angle_beta                 75.265(17)
_cell_angle_gamma                87.481(19)
_cell_volume                     2344.81
loop_
_atom_site_label
_atom_site_type_symbol
_atom_site_fract_x
_atom_site_fract_y
_atom_site_fract_z
Sn1 Sn 0.79936(5) 0.18580(4) 0.25113(3)
Sn2 Sn 0.80249(4) -0.31310(3) 0.28721(3)
N1 N 0.8766(6) 0.3488(4) 0.1847(3)
N2 N 0.9971(6) 0.3432(5) 0.1299(3)
N3 N 0.8872(5) -0.1580(4) 0.3339(3)
N4 N 1.0046(6) -0.1670(4) 0.3580(3)
O1 O 0.9206(4) 0.5098(3) 0.1418(3)
O2 O 0.9293(4) -0.0007(3) 0.3676(3)
S1 S 0.69921(18) 0.50360(14) 0.24854(12)
S2 S 0.70645(18) -0.00300(14) 0.32200(13)
C1 C 0.8340(6) 0.4482(5) 0.1907(4)
C2 C 1.0179(7) 0.4401(6) 0.1068(4)
C3 C 1.1315(7) 0.4820(7) 0.0523(4)
C4 C 1.2365(9) 0.4098(7) 0.0226(5)
H1 H 1.2322 0.3381 0.0369
C5 C 1.3472(9) 0.4479(10) -0.0289(6)
H2 H 1.4185 0.4022 -0.0490
C6 C 1.3490(11) 0.5528(10) -0.0492(6)
H3 H 1.4223 0.5779 -0.0841
C7 C 1.2473(10) 0.6226(8) -0.0202(5)
H4 H 1.2522 0.6943 -0.0345
C8 C 1.1370(8) 0.5861(7) 0.0305(4)
H5 H 1.0664 0.6330 0.0498
C9 C 0.8442(7) -0.0598(5) 0.3417(4)
C10 C 1.0259(7) -0.0725(5) 0.3766(4)
C11 C 1.1357(7) -0.0363(6) 0.4006(4)
C12 C 1.2455(8) -0.1008(7) 0.3935(6)
H6 H 1.2499 -0.1680 0.3726
C13 C 1.3520(9) -0.0651(9) 0.4179(8)
H7 H 1.4262 -0.1097 0.4131
C14 C 1.3494(9) 0.0304(8) 0.4476(6)
H8 H 1.4211 0.0538 0.4626
C15 C 1.2415(9) 0.0914(7) 0.4553(5)
H9 H 1.2378 0.1578 0.4773
C16 C 1.1350(8) 0.0608(6) 0.4321(5)
H10 H 1.0617 0.1067 0.4380
C17 C 0.9844(12) 0.1075(8) 0.1946(6)
H11 H 1.0518 0.1599 0.1851
H12 H 1.0068 0.0537 0.2287
C18 C 0.9874(15) 0.0594(12) 0.1269(9)
H13 H 0.9579 0.1113 0.0939
H14 H 0.9266 0.0019 0.1367
C19 C 1.1275(17) 0.0134(14) 0.0852(11)
H15 H 1.1439 0.0347 0.0324
H16 H 1.1912 0.0475 0.1057
C20 C 1.1501(19) -0.0910(15) 0.0884(17)
H17 H 1.2375 -0.1085 0.0594
H18 H 1.0885 -0.1267 0.0680
H19 H 1.1407 -0.1134 0.1400
C21 C 0.7909(12) 0.2559(8) 0.3559(6)
H20 H 0.7303 0.3172 0.3615
H21 H 0.7542 0.2049 0.3956
C22 C 0.9117(13) 0.2899(9) 0.3681(7)
H22 H 0.9477 0.3452 0.3315
H23 H 0.9750 0.2304 0.3623
C23 C 0.8810(16) 0.3356(12) 0.4529(8)
H24 H 0.8232 0.3986 0.4570
H25 H 0.8371 0.2822 0.4887
C24 C 0.994(2) 0.3606(15) 0.4696(11)
H26 H 0.9754 0.3867 0.5202
H27 H 1.0366 0.4147 0.4348
H28 H 1.0515 0.2982 0.4654
C25 C 0.6341(11) 0.2018(9) 0.2067(8)
H29 H 0.6244 0.2771 0.1949
H30 H 0.6577 0.1655 0.1588
C26 C 0.5138(12) 0.1705(13) 0.2423(10)
H31 H 0.4851 0.2101 0.2887
H32 H 0.5215 0.0959 0.2565
C27 C 0.4032(14) 0.1822(16) 0.2001(13)
H33 H 0.4424 0.1981 0.1472
H34 H 0.3612 0.1145 0.2029
C28 C 0.312(2) 0.2575(16) 0.2272(18)
H35 H 0.2524 0.2649 0.1956
H36 H 0.3534 0.3240 0.2280
H37 H 0.2653 0.2381 0.2775
C29 C 0.7927(7) -0.2301(6) 0.1850(4)
H38 H 0.8328 -0.1618 0.1836
H39 H 0.8437 -0.2708 0.1425
C30 C 0.6542(8) -0.2112(6) 0.1757(5)
H40 H 0.6154 -0.2793 0.1736
H41 H 0.6013 -0.1734 0.2191
C31 C 0.6537(11) -0.1469(8) 0.1046(7)
H42 H 0.6932 -0.0791 0.1066
H43 H 0.7066 -0.1849 0.0612
C32 C 0.5170(15) -0.1266(12) 0.0942(10)
H44 H 0.5215 -0.0857 0.0486
H45 H 0.4647 -0.0878 0.1365
H46 H 0.4782 -0.1935 0.0910
C33 C 0.9779(6) -0.3950(5) 0.2983(4)
H47 H 0.9879 -0.3828 0.3485
H48 H 0.9676 -0.4709 0.2943
C34 C 1.1030(6) -0.3643(6) 0.2415(5)
H49 H 1.1149 -0.2885 0.2446
H50 H 1.0960 -0.3785 0.1909
C35 C 1.2216(8) -0.4269(10) 0.2563(8)
H51 H 1.2282 -0.4106 0.3067
H52 H 1.2060 -0.5024 0.2558
C36 C 1.3446(9) -0.4068(13) 0.2041(9)
H53 H 1.4126 -0.4498 0.2179
H54 H 1.3632 -0.3328 0.2053
H55 H 1.3406 -0.4244 0.1541
C37 C 0.6396(7) -0.3045(5) 0.3849(4)
H56 H 0.6196 -0.2306 0.3990
H57 H 0.5633 -0.3326 0.3730
C38 C 0.6703(8) -0.3679(6) 0.4506(4)
H58 H 0.6823 -0.4427 0.4376
H59 H 0.7523 -0.3446 0.4583
C39 C 0.5652(9) -0.3564(8) 0.5237(4)
H60 H 0.4830 -0.3802 0.5167
H61 H 0.5530 -0.2818 0.5373
C40 C 0.6018(12) -0.4214(10) 0.5873(5)
H62 H 0.5335 -0.4128 0.6330
H63 H 0.6824 -0.3971 0.5949
H64 H 0.6125 -0.4954 0.5742
Sn2_2 Sn 0.80249(4) 0.68690(3) 0.28721(3)
S1_2 S 0.69921(18) -0.49640(14) 0.24854(12)
loop_
_geom_bond_atom_site_label_1
_geom_bond_atom_site_label_2
_geom_bond_site_symmetry_1
_geom_bond_site_symmetry_2
Sn1 N1 1_555 1_555
Sn2 N3 1_555 1_555
N1 N2 1_555 1_555
N2 C2 1_555 1_555
N3 N4 1_555 1_555
N4 C10 1_555 1_555
O1 C1 1_555 1_555
O2 C9 1_555 1_555
S1 C1 1_555 1_555
S2 Sn1 1_555 1_555
C1 N1 1_555 1_555
C2 O1 1_555 1_555
C3 C2 1_555 1_555
C4 C3 1_555 1_555
H1 C4 1_555 1_555
C5 C4 1_555 1_555
H2 C5 1_555 1_555
C6 C5 1_555 1_555
H3 C6 1_555 1_555
C7 C6 1_555 1_555
H4 C7 1_555 1_555
C8 C3 1_555 1_555
H5 C8 1_555 1_555
C9 N3 1_555 1_555
C10 O2 1_555 1_555
C11 C10 1_555 1_555
C12 C11 1_555 1_555
H6 C12 1_555 1_555
C13 C12 1_555 1_555
H7 C13 1_555 1_555
C14 C13 1_555 1_555
H8 C14 1_555 1_555
C15 C14 1_555 1_555
H9 C15 1_555 1_555
C16 C11 1_555 1_555
H10 C16 1_555 1_555
C17 Sn1 1_555 1_555
H11 C17 1_555 1_555
H12 C17 1_555 1_555
C18 C17 1_555 1_555
H13 C18 1_555 1_555
H14 C18 1_555 1_555
C19 C18 1_555 1_555
H15 C19 1_555 1_555
H16 C19 1_555 1_555
C20 C19 1_555 1_555
H17 C20 1_555 1_555
H18 C20 1_555 1_555
H19 C20 1_555 1_555
C21 Sn1 1_555 1_555
H20 C21 1_555 1_555
H21 C21 1_555 1_555
C22 C21 1_555 1_555
H22 C22 1_555 1_555
H23 C22 1_555 1_555
C23 C22 1_555 1_555
H24 C23 1_555 1_555
H25 C23 1_555 1_555
C24 C23 1_555 1_555
H26 C24 1_555 1_555
H27 C24 1_555 1_555
H28 C24 1_555 1_555
C25 Sn1 1_555 1_555
H29 C25 1_555 1_555
H30 C25 1_555 1_555
C26 C25 1_555 1_555
H31 C26 1_555 1_555
H32 C26 1_555 1_555
C27 C26 1_555 1_555
H33 C27 1_555 1_555
H34 C27 1_555 1_555
C28 C27 1_555 1_555
H35 C28 1_555 1_555
H36 C28 1_555 1_555
H37 C28 1_555 1_555
C29 Sn2 1_555 1_555
H38 C29 1_555 1_555
H39 C29 1_555 1_555
C30 C29 1_555 1_555
H40 C30 1_555 1_555
H41 C30 1_555 1_555
C31 C30 1_555 1_555
H42 C31 1_555 1_555
H43 C31 1_555 1_555
C32 C31 1_555 1_555
H44 C32 1_555 1_555
H45 C32 1_555 1_555
H46 C32 1_555 1_555
C33 Sn2 1_555 1_555
H47 C33 1_555 1_555
H48 C33 1_555 1_555
C34 C33 1_555 1_555
H49 C34 1_555 1_555
H50 C34 1_555 1_555
C35 C34 1_555 1_555
H51 C35 1_555 1_555
H52 C35 1_555 1_555
C36 C35 1_555 1_555
H53 C36 1_555 1_555
H54 C36 1_555 1_555
H55 C36 1_555 1_555
C37 Sn2 1_555 1_555
H56 C37 1_555 1_555
H57 C37 1_555 1_555
C38 C37 1_555 1_555
H58 C38 1_555 1_555
H59 C38 1_555 1_555
C39 C38 1_555 1_555
H60 C39 1_555 1_555
H61 C39 1_555 1_555
C40 C39 1_555 1_555
H62 C40 1_555 1_555
H63 C40 1_555 1_555
H64 C40 1_555 1_555
Sn2_2 S1 1_555 1_555
S1_2 Sn2 1_555 1_555
S2 C9 1_555 1_555
C7 C8 1_555 1_555
C15 C16 1_555 1_555

#END
