
#######################################################################
#
#                 Cambridge Crystallographic Data Centre
#                                CCDC 
#
#######################################################################
#
# If this CIF has been generated from an entry in the Cambridge 
# Structural Database, then it will include bibliographic, chemical, 
# crystal, experimental, refinement or atomic coordinate data resulting 
# from the CCDC's data processing and validation procedures.
#
#######################################################################

data_HAXTOQ
_symmetry_cell_setting           monoclinic
_symmetry_space_group_name_H-M   'P 21/m'
_symmetry_Int_Tables_number      11
_space_group_name_Hall           '-P 2yb'
loop_
_symmetry_equiv_pos_site_id
_symmetry_equiv_pos_as_xyz
1 x,y,z
2 -x,1/2+y,-z
3 -x,-y,-z
4 x,1/2-y,z
_cell_length_a                   6.891(3)
_cell_length_b                   7.509(4)
_cell_length_c                   13.354(7)
_cell_angle_alpha                90
_cell_angle_beta                 104.723(5)
_cell_angle_gamma                90
_cell_volume                     668.308
loop_
_atom_site_label
_atom_site_type_symbol
_atom_site_fract_x
_atom_site_fract_y
_atom_site_fract_z
Sn1 Sn 0.29414(13) 0.2500 0.11983(5)
N1 N 0.6573(17) 0.2500 0.1970(8)
N2 N 0.6839(15) 0.2500 0.3051(8)
O1 O 0.9760(12) 0.2500 0.2649(6)
S1 S 0.8875(5) 0.2500 0.0582(3)
C1 C 0.8181(19) 0.2500 0.1711(9)
C2 C 0.877(2) 0.2500 0.3394(8)
C3 C 0.9854(18) 0.2500 0.4490(7)
C4 C 1.194(2) 0.2500 0.4749(10)
H1 H 1.2601 0.2500 0.4222
C5 C 1.307(2) 0.2500 0.5775(10)
H2 H 1.4464 0.2500 0.5924
C6 C 1.2133(16) 0.2500 0.6564(10)
H3 H 1.2894 0.2500 0.7247
C7 C 1.0103(13) 0.2500 0.6355(7)
H4 H 0.9466 0.2500 0.6891
C8 C 0.894(3) 0.2500 0.5290(10)
H5 H 0.7547 0.2500 0.5144
C9 C 0.312(2) 0.2500 -0.0357(9)
C10 C 0.3068(18) 0.0009(14) 0.1968(7)
H6 H 0.1754 -0.0301 0.2033
H7 H 0.3974 0.0093 0.2643
H8 H 0.3534 -0.0891 0.1574
H9 H 0.180(3) 0.2500 -0.0827(17)
H10 H 0.384(7) 0.145(5) -0.050(2)
Sn1_2 Sn 1.29414(13) 0.2500 0.11983(5)
S1_2 S -0.1125(5) 0.2500 0.0582(3)
C10C C 0.3068(18) 0.4991(14) 0.1968(7)
H6C H 0.1754 0.5301 0.2033
H7C H 0.3974 0.4907 0.2643
H8C H 0.3534 0.5891 0.1574
H10C H 0.384(7) 0.355(5) -0.050(2)
loop_
_geom_bond_atom_site_label_1
_geom_bond_atom_site_label_2
_geom_bond_site_symmetry_1
_geom_bond_site_symmetry_2
Sn1 N1 1_555 1_555
N1 N2 1_555 1_555
N2 C2 1_555 1_555
O1 C1 1_555 1_555
S1 C1 1_555 1_555
C1 N1 1_555 1_555
C2 O1 1_555 1_555
C3 C2 1_555 1_555
C4 C3 1_555 1_555
H1 C4 1_555 1_555
C5 C4 1_555 1_555
H2 C5 1_555 1_555
C6 C5 1_555 1_555
H3 C6 1_555 1_555
C7 C6 1_555 1_555
H4 C7 1_555 1_555
C8 C3 1_555 1_555
H5 C8 1_555 1_555
C9 Sn1 1_555 1_555
C10 Sn1 1_555 1_555
H6 C10 1_555 1_555
H7 C10 1_555 1_555
H8 C10 1_555 1_555
H9 C9 1_555 1_555
H10 C9 1_555 1_555
Sn1_2 S1 1_555 1_555
S1_2 Sn1 1_555 1_555
C10C Sn1 1_555 1_555
H6C C10C 1_555 1_555
H7C C10C 1_555 1_555
H8C C10C 1_555 1_555
H10C C9 1_555 1_555
C7 C8 1_555 1_555

#END
