
#######################################################################
#
#                 Cambridge Crystallographic Data Centre
#                                CCDC 
#
#######################################################################
#
# If this CIF has been generated from an entry in the Cambridge 
# Structural Database, then it will include bibliographic, chemical, 
# crystal, experimental, refinement or atomic coordinate data resulting 
# from the CCDC's data processing and validation procedures.
#
#######################################################################

data_HAXTUW
_symmetry_cell_setting           monoclinic
_symmetry_space_group_name_H-M   'P 21/c'
_symmetry_Int_Tables_number      14
_space_group_name_Hall           '-P 2ybc'
loop_
_symmetry_equiv_pos_site_id
_symmetry_equiv_pos_as_xyz
1 x,y,z
2 -x,1/2+y,1/2-z
3 -x,-y,-z
4 x,1/2-y,1/2+z
_cell_length_a                   12.6028(11)
_cell_length_b                   12.5488(11)
_cell_length_c                   19.8178(13)
_cell_angle_alpha                90
_cell_angle_beta                 125.503(4)
_cell_angle_gamma                90
_cell_volume                     2551.49
loop_
_atom_site_label
_atom_site_type_symbol
_atom_site_fract_x
_atom_site_fract_y
_atom_site_fract_z
Sn1 Sn 1.047906(18) 0.847312(16) 0.810887(11)
S1 S 0.93221(9) 1.04940(6) 0.78059(5)
O1 O 0.76320(19) 1.00627(15) 0.61983(12)
N1 N 0.8355(2) 1.17035(18) 0.64182(15)
N2 N 0.7472(3) 1.15499(18) 0.55604(15)
C1 C 1.1910(3) 0.9072(2) 0.93513(17)
H1 H 1.2513 0.8484 0.9667
C2 C 1.2717(3) 0.9973(3) 0.9352(2)
H2 H 1.2146 1.0563 0.9027
H3 H 1.3129 0.9730 0.9092
C3 C 1.3763(4) 1.0361(3) 1.0229(2)
H4 H 1.4400 0.9800 1.0532
H5 H 1.4210 1.0969 1.0200
C4 C 1.3190(4) 1.0672(3) 1.0685(2)
H6 H 1.2639 1.1293 1.0421
H7 H 1.3887 1.0864 1.1250
C5 C 1.2398(5) 0.9779(4) 1.0696(2)
H8 H 1.2000 1.0021 1.0965
H9 H 1.2966 0.9184 1.1012
C6 C 1.1335(4) 0.9410(3) 0.9815(2)
H10 H 1.0866 0.8816 0.9838
H11 H 1.0719 0.9986 0.9516
C7 C 0.8802(3) 0.7577(3) 0.7824(2)
C8 C 0.7639(4) 0.7631(4) 0.6965(2)
H12 H 0.7880 0.7404 0.6603
H13 H 0.7367 0.8370 0.6835
C9 C 0.6492(4) 0.6979(4) 0.6767(3)
H14 H 0.5716 0.7255 0.6262
H15 H 0.6615 0.6253 0.6657
C10 C 0.6261(5) 0.6955(5) 0.7419(3)
H16 H 0.5818 0.7607 0.7385
H17 H 0.5685 0.6364 0.7309
C11 C 0.7454(4) 0.6848(4) 0.8270(3)
H18 H 0.7731 0.6109 0.8363
H19 H 0.7248 0.7028 0.8658
C12 C 0.8579(4) 0.7540(5) 0.8454(2)
H20 H 0.9095 0.7918 0.8947
C13 C 1.0908(3) 0.8731(3) 0.7211(2)
H21 H 1.0949 0.9507 0.7176
C14 C 0.9851(4) 0.8386(3) 0.6348(2)
H22 H 0.9048 0.8748 0.6171
H23 H 0.9709 0.7626 0.6347
C15 C 1.0178(5) 0.8627(5) 0.5730(3)
H24 H 0.9527 0.8297 0.5202
H25 H 1.0137 0.9390 0.5642
C16 C 1.1466(6) 0.8243(6) 0.6008(3)
H26 H 1.1659 0.8504 0.5629
H27 H 1.1444 0.7471 0.5979
C17 C 1.2538(4) 0.8571(3) 0.6864(3)
H28 H 1.2700 0.9327 0.6868
H29 H 1.3327 0.8193 0.7032
C18 C 1.2225(4) 0.8346(3) 0.7489(2)
H30 H 1.2276 0.7584 0.7586
H31 H 1.2878 0.8686 0.8011
C19 C 0.8439(3) 1.0803(2) 0.67842(17)
C20 C 0.7086(3) 1.0582(2) 0.54683(17)
C21 C 0.6177(3) 1.0009(2) 0.46962(18)
C22 C 0.5643(3) 1.0521(3) 0.39448(19)
H32 H 0.5878 1.1220 0.3933
C23 C 0.4763(4) 0.9993(3) 0.3217(2)
H33 H 0.4402 1.0340 0.2713
C24 C 0.4416(3) 0.8967(3) 0.3224(2)
H34 H 0.3821 0.8618 0.2728
C25 C 0.4944(4) 0.8451(3) 0.3963(2)
H35 H 0.4709 0.7750 0.3967
C26 C 0.5826(3) 0.8967(3) 0.4706(2)
H36 H 0.6179 0.8616 0.5207
Sn1A Sn 0.952094(18) 1.347312(16) 0.689113(11)
N1A N 1.1645(2) 0.67035(18) 0.85818(15)
loop_
_geom_bond_atom_site_label_1
_geom_bond_atom_site_label_2
_geom_bond_site_symmetry_1
_geom_bond_site_symmetry_2
Sn1 S1 1_555 1_555
S1 C19 1_555 1_555
O1 C19 1_555 1_555
N1 N2 1_555 1_555
N2 C20 1_555 1_555
C1 Sn1 1_555 1_555
H1 C1 1_555 1_555
C2 C1 1_555 1_555
H2 C2 1_555 1_555
H3 C2 1_555 1_555
C3 C2 1_555 1_555
H4 C3 1_555 1_555
H5 C3 1_555 1_555
C4 C3 1_555 1_555
H6 C4 1_555 1_555
H7 C4 1_555 1_555
C5 C4 1_555 1_555
H8 C5 1_555 1_555
H9 C5 1_555 1_555
C6 C1 1_555 1_555
H10 C6 1_555 1_555
H11 C6 1_555 1_555
C7 Sn1 1_555 1_555
C8 C7 1_555 1_555
H12 C8 1_555 1_555
H13 C8 1_555 1_555
C9 C8 1_555 1_555
H14 C9 1_555 1_555
H15 C9 1_555 1_555
C10 C9 1_555 1_555
H16 C10 1_555 1_555
H17 C10 1_555 1_555
C11 C10 1_555 1_555
H18 C11 1_555 1_555
H19 C11 1_555 1_555
C12 C7 1_555 1_555
H20 C12 1_555 1_555
C13 Sn1 1_555 1_555
H21 C13 1_555 1_555
C14 C13 1_555 1_555
H22 C14 1_555 1_555
H23 C14 1_555 1_555
C15 C14 1_555 1_555
H24 C15 1_555 1_555
H25 C15 1_555 1_555
C16 C15 1_555 1_555
H26 C16 1_555 1_555
H27 C16 1_555 1_555
C17 C16 1_555 1_555
H28 C17 1_555 1_555
H29 C17 1_555 1_555
C18 C13 1_555 1_555
H30 C18 1_555 1_555
H31 C18 1_555 1_555
C19 N1 1_555 1_555
C20 O1 1_555 1_555
C21 C20 1_555 1_555
C22 C21 1_555 1_555
H32 C22 1_555 1_555
C23 C22 1_555 1_555
H33 C23 1_555 1_555
C24 C23 1_555 1_555
H34 C24 1_555 1_555
C25 C24 1_555 1_555
H35 C25 1_555 1_555
C26 C21 1_555 1_555
H36 C26 1_555 1_555
Sn1A N1 1_555 1_555
N1A Sn1 1_555 1_555
C5 C6 1_555 1_555
C11 C12 1_555 1_555
C17 C18 1_555 1_555
C25 C26 1_555 1_555

#END
