
#######################################################################
#
#                 Cambridge Crystallographic Data Centre
#                                CCDC 
#
#######################################################################
#
# If this CIF has been generated from an entry in the Cambridge 
# Structural Database, then it will include bibliographic, chemical, 
# crystal, experimental, refinement or atomic coordinate data resulting 
# from the CCDC's data processing and validation procedures.
#
#######################################################################

data_HAXXUB
_symmetry_cell_setting           monoclinic
_symmetry_space_group_name_H-M   'C 2/c'
_symmetry_Int_Tables_number      15
_space_group_name_Hall           '-C 2yn'
loop_
_symmetry_equiv_pos_site_id
_symmetry_equiv_pos_as_xyz
1 x,y,z
2 -x,y,1/2-z
3 1/2+x,1/2+y,z
4 1/2-x,1/2+y,1/2-z
5 -x,-y,-z
6 x,-y,1/2+z
7 1/2-x,1/2-y,-z
8 1/2+x,1/2-y,1/2+z
_cell_length_a                   20.047(4)
_cell_length_b                   9.592(2)
_cell_length_c                   13.670(3)
_cell_angle_alpha                90
_cell_angle_beta                 117.810(2)
_cell_angle_gamma                90
_cell_volume                     2325.01
loop_
_atom_site_label
_atom_site_type_symbol
_atom_site_fract_x
_atom_site_fract_y
_atom_site_fract_z
C1 C 0.0410(3) 0.3120(5) 0.1508(3)
C2 C -0.0121(3) 0.4328(4) 0.1225(4)
C3 C -0.0873(3) 0.4068(5) 0.0894(3)
H1 H -0.1043 0.3155 0.0846
C4 C -0.1372(2) 0.5164(4) 0.0632(3)
C5 C -0.1136(2) 0.6520(4) 0.0653(3)
H2 H -0.1480 0.7249 0.0465
C6 C -0.0386(2) 0.6794(4) 0.0956(3)
C7 C 0.0131(2) 0.5702(4) 0.1271(3)
H3 H 0.0639 0.5882 0.1511
C8 C -0.0168(3) 0.8255(5) 0.0841(4)
C9 C 0.2271(2) -0.2176(5) 0.1774(4)
C10 C 0.2346(2) -0.2223(5) 0.2950(4)
N1 N -0.2164(2) 0.4895(4) 0.0294(3)
H4 H -0.2248 0.3981 0.0228
H5 H -0.2448 0.5306 -0.0353
H6 H -0.2282 0.5235 0.0800
Nd1 Nd 0.131834(12) 0.06274(2) 0.184227(18)
O1 O 0.01407(17) 0.1908(3) 0.1433(3)
O2 O 0.10891(17) 0.3304(3) 0.1781(2)
O3 O -0.06874(17) 0.9033(3) 0.0145(2)
O4 O 0.05001(17) 0.8623(3) 0.1427(3)
O5 O 0.20791(17) -0.1221(3) 0.3242(2)
O6 O 0.19047(18) -0.1178(3) 0.1175(2)
O7 O 0.25959(17) -0.3114(3) 0.1530(2)
O8 O 0.26728(17) -0.3267(3) 0.3532(2)
O9 O 0.10490(18) 0.0638(3) 0.3446(3)
H7 H 0.1092 0.0089 0.3930
H8 H 0.0717 0.1186 0.3396
Nd1D Nd -0.131834(12) 0.93726(2) -0.184227(18)
Nd1_2 Nd 0.131834(12) 1.06274(2) 0.184227(18)
Nd1C Nd 0.368166(12) -0.43726(2) 0.315773(18)
O3D O 0.06874(17) 0.0967(3) -0.0145(2)
O4_2 O 0.05001(17) -0.1377(3) 0.1427(3)
O7C O 0.24041(17) 0.1886(3) 0.3470(2)
O8C O 0.23272(17) 0.1733(3) 0.1468(2)
loop_
_geom_bond_atom_site_label_1
_geom_bond_atom_site_label_2
_geom_bond_site_symmetry_1
_geom_bond_site_symmetry_2
C1 C2 1_555 1_555
C2 C3 1_555 1_555
C3 H1 1_555 1_555
C4 C3 1_555 1_555
C5 C4 1_555 1_555
H2 C5 1_555 1_555
C6 C5 1_555 1_555
C7 C2 1_555 1_555
H3 C7 1_555 1_555
C8 C6 1_555 1_555
C9 C10 1_555 1_555
C10 O5 1_555 1_555
N1 C4 1_555 1_555
H4 N1 1_555 1_555
H5 N1 1_555 1_555
H6 N1 1_555 1_555
Nd1 O1 1_555 1_555
O1 C1 1_555 1_555
O2 C1 1_555 1_555
O3 C8 1_555 1_555
O4 C8 1_555 1_555
O5 Nd1 1_555 1_555
O6 C9 1_555 1_555
O7 C9 1_555 1_555
O8 C10 1_555 1_555
O9 Nd1 1_555 1_555
H7 O9 1_555 1_555
H8 O9 1_555 1_555
Nd1D O3 1_555 1_555
Nd1_2 O4 1_555 1_555
Nd1C O7 1_555 1_555
O3D Nd1 1_555 1_555
O4_2 Nd1 1_555 1_555
O7C Nd1 1_555 1_555
O8C Nd1 1_555 1_555
C6 C7 1_555 1_555
Nd1 O2 1_555 1_555
Nd1 O6 1_555 1_555
O8 Nd1C 1_555 1_555

#END
