
#######################################################################
#
#                 Cambridge Crystallographic Data Centre
#                                CCDC 
#
#######################################################################
#
# If this CIF has been generated from an entry in the Cambridge 
# Structural Database, then it will include bibliographic, chemical, 
# crystal, experimental, refinement or atomic coordinate data resulting 
# from the CCDC's data processing and validation procedures.
#
#######################################################################

data_HAXXUB01
_symmetry_cell_setting           monoclinic
_symmetry_space_group_name_H-M   'C 2/c'
_symmetry_Int_Tables_number      15
_space_group_name_Hall           '-C 2yn'
loop_
_symmetry_equiv_pos_site_id
_symmetry_equiv_pos_as_xyz
1 x,y,z
2 -x,y,1/2-z
3 1/2+x,1/2+y,z
4 1/2-x,1/2+y,1/2-z
5 -x,-y,-z
6 x,-y,1/2+z
7 1/2-x,1/2-y,-z
8 1/2+x,1/2-y,1/2+z
_cell_length_a                   20.0750(16)
_cell_length_b                   9.6082(8)
_cell_length_c                   13.6929(11)
_cell_angle_alpha                90
_cell_angle_beta                 117.7910(10)
_cell_angle_gamma                90
_cell_volume                     2336.5
loop_
_atom_site_label
_atom_site_type_symbol
_atom_site_fract_x
_atom_site_fract_y
_atom_site_fract_z
Nd1 Nd 0.131789(10) 0.437206(18) 0.184191(16)
O1 O 0.10515(15) 0.4358(2) 0.3456(2)
O2 O 0.01399(14) 0.3086(3) 0.1433(2)
O3 O 0.10913(14) 0.1691(3) 0.1780(2)
O4 O 0.20797(14) 0.6221(3) 0.3242(2)
C1 C 0.2348(2) 0.7223(4) 0.2952(3)
C2 C -0.0120(2) 0.0656(3) 0.1224(3)
C3 C 0.0409(2) 0.1875(4) 0.1505(3)
C4 C 0.0124(2) -0.0701(4) 0.1264(3)
C5 C -0.0393(2) -0.1798(3) 0.0944(3)
C6 C -0.13713(19) -0.0165(4) 0.0638(3)
C7 C -0.0870(2) 0.0933(4) 0.0898(3)
N1 N -0.21656(16) 0.0107(3) 0.0289(3)
H1 H -0.2447 -0.0365 -0.0327
H2 H -0.2257 0.1013 0.0164
H3 H -0.2277 -0.0162 0.0817
C8 C -0.1139(2) -0.1523(3) 0.0650(3)
O5 O 0.19097(14) 0.6173(3) 0.1181(2)
C9 C 0.22737(19) 0.7170(3) 0.1782(3)
O6 O 0.25978(14) 0.8115(3) 0.1531(2)
C10 C -0.0169(2) -0.3264(4) 0.0840(3)
O7 O -0.06892(14) -0.4032(2) 0.0145(2)
O8 O 0.04980(14) -0.3625(3) 0.1425(2)
H4 H -0.104(2) 0.179(4) 0.084(3)
H5 H 0.0598(19) -0.088(3) 0.145(3)
O9 O 0.26741(14) 0.8269(2) 0.3531(2)
H6 H 0.0684 0.3890 0.3415
H7 H 0.1068 0.5078 0.3834
H8 H -0.1496 -0.2256 0.0437
Nd1C Nd 0.368211(10) 0.937206(18) 0.315809(16)
Nd1D Nd -0.131789(10) -0.437206(18) -0.184191(16)
Nd1_2 Nd 0.131789(10) -0.562794(18) 0.184191(16)
O6C O 0.24022(14) 0.3115(3) 0.3469(2)
O7D O 0.06892(14) 0.4032(2) -0.0145(2)
O8_2 O 0.04980(14) 0.6375(3) 0.1425(2)
O9C O 0.23259(14) 0.3269(2) 0.1469(2)
loop_
_geom_bond_atom_site_label_1
_geom_bond_atom_site_label_2
_geom_bond_site_symmetry_1
_geom_bond_site_symmetry_2
Nd1 O1 1_555 1_555
O1 H6 1_555 1_555
O2 Nd1 1_555 1_555
O3 Nd1 1_555 1_555
O4 Nd1 1_555 1_555
C1 O4 1_555 1_555
C2 C3 1_555 1_555
C3 O2 1_555 1_555
C4 C2 1_555 1_555
C5 C4 1_555 1_555
C6 C7 1_555 1_555
C7 C2 1_555 1_555
N1 C6 1_555 1_555
H1 N1 1_555 1_555
H2 N1 1_555 1_555
H3 N1 1_555 1_555
C8 C5 1_555 1_555
O5 Nd1 1_555 1_555
C9 C1 1_555 1_555
O6 C9 1_555 1_555
C10 C5 1_555 1_555
O7 C10 1_555 1_555
O8 C10 1_555 1_555
H4 C7 1_555 1_555
H5 C4 1_555 1_555
O9 C1 1_555 1_555
H7 O1 1_555 1_555
H8 C8 1_555 1_555
Nd1C O6 1_555 1_555
Nd1D O7 1_555 1_555
Nd1_2 O8 1_555 1_555
O6C Nd1 1_555 1_555
O7D Nd1 1_555 1_555
O8_2 Nd1 1_555 1_555
O9C Nd1 1_555 1_555
O3 C3 1_555 1_555
C6 C8 1_555 1_555
O5 C9 1_555 1_555
O9 Nd1C 1_555 1_555

#END
