
#######################################################################
#
#                 Cambridge Crystallographic Data Centre
#                                CCDC 
#
#######################################################################
#
# If this CIF has been generated from an entry in the Cambridge 
# Structural Database, then it will include bibliographic, chemical, 
# crystal, experimental, refinement or atomic coordinate data resulting 
# from the CCDC's data processing and validation procedures.
#
#######################################################################

data_HAXXAH
_symmetry_cell_setting           triclinic
_symmetry_space_group_name_H-M   'P -1'
_symmetry_Int_Tables_number      2
_space_group_name_Hall           '-P 1'
loop_
_symmetry_equiv_pos_site_id
_symmetry_equiv_pos_as_xyz
1 x,y,z
2 -x,-y,-z
_cell_length_a                   9.6742(8)
_cell_length_b                   10.6187(8)
_cell_length_c                   15.8542(12)
_cell_angle_alpha                81.4430(10)
_cell_angle_beta                 78.753(2)
_cell_angle_gamma                64.166(2)
_cell_volume                     1433.98
loop_
_atom_site_label
_atom_site_type_symbol
_atom_site_fract_x
_atom_site_fract_y
_atom_site_fract_z
Ce1 Ce 0.731679(19) 0.960889(17) 0.503370(11)
C1 C 0.5111(4) 1.0993(4) 0.3253(2)
C2 C 0.5318(4) 1.1620(4) 0.2339(2)
C3 C 0.4389(4) 1.1697(4) 0.1751(2)
H1 H 0.3671 1.1309 0.1903
C4 C 0.4534(4) 1.2359(4) 0.0934(2)
C5 C 0.5503(5) 1.3043(4) 0.0741(2)
H2 H 0.5531 1.3560 0.0215
C6 C 0.6427(5) 1.2962(4) 0.1326(2)
C7 C 0.6388(4) 1.2197(4) 0.2109(2)
H3 H 0.7079 1.2070 0.2481
C8 C 0.3250(5) 1.1435(5) 0.0155(3)
C9 C 0.2671(5) 1.1588(4) -0.0677(2)
C10 C 0.1640(6) 1.1015(5) -0.0707(3)
H4 H 0.1281 1.0590 -0.0213
C11 C 0.1153(6) 1.1087(6) -0.1486(3)
H5 H 0.0458 1.0705 -0.1502
C12 C 0.2624(7) 1.2209(6) -0.2179(3)
H6 H 0.2969 1.2615 -0.2687
C13 C 0.3175(6) 1.2199(5) -0.1436(3)
H7 H 0.3869 1.2593 -0.1445
C14 C 0.7431(5) 1.3750(5) 0.1128(3)
C15 C 1.1064(4) 0.7882(3) 0.5569(2)
C16 C 1.2354(4) 0.6476(3) 0.5727(2)
C17 C 1.3614(4) 0.6391(4) 0.6063(2)
H8 H 1.3649 0.7207 0.6183
C18 C 1.4816(4) 0.5108(4) 0.6220(2)
C19 C 1.4817(4) 0.3891(4) 0.6011(2)
H9 H 1.5633 0.3028 0.6113
C20 C 1.3580(4) 0.3973(4) 0.5645(2)
C21 C 1.2335(4) 0.5254(3) 0.5521(2)
H10 H 1.1491 0.5296 0.5301
C22 C 1.6591(5) 0.4429(4) 0.7281(3)
C23 C 1.7777(4) 0.4767(4) 0.7573(3)
C24 C 1.8537(5) 0.5516(5) 0.7061(3)
H11 H 1.8401 0.5784 0.6487
C25 C 1.9499(5) 0.5854(5) 0.7425(3)
H12 H 1.9997 0.6369 0.7083
C26 C 1.9051(5) 0.4746(5) 0.8713(3)
H13 H 1.9236 0.4468 0.9280
C27 C 1.8059(5) 0.4367(5) 0.8415(3)
H14 H 1.7583 0.3848 0.8773
C28 C 1.3639(4) 0.2695(4) 0.5316(2)
N1 N 0.3669(4) 1.2433(4) 0.0286(2)
H15 H 0.4223 1.2574 -0.0215
N2 N 0.1632(5) 1.1672(5) -0.2205(3)
N3 N 1.6082(4) 0.5117(3) 0.6555(2)
H16 H 1.6550 0.5606 0.6263
N4 N 1.9759(4) 0.5488(4) 0.8236(2)
O1 O 0.3837(3) 1.0938(3) 0.35242(16)
O2 O 0.6201(3) 1.0635(3) 0.36808(16)
O3 O 0.8519(5) 1.3290(5) 0.1605(3)
H17 H 0.8914 1.3846 0.1553
O4 O 0.7212(4) 1.4718(4) 0.0589(2)
O5 O 0.3353(5) 1.0419(4) 0.0661(2)
O6 O 0.9822(3) 0.7910(2) 0.54280(17)
O7 O 1.1291(3) 0.8947(2) 0.56132(17)
O8 O 1.4778(3) 0.1545(3) 0.53961(18)
O9 O 1.2553(4) 0.2827(3) 0.4946(3)
O10 O 1.6089(5) 0.3622(5) 0.7707(2)
O11 O 0.9238(4) 0.8370(3) 0.37514(18)
H18 H 0.8907 0.7774 0.3687
H19 H 0.9094 0.8880 0.3282
O12 O 0.7983(3) 1.0672(3) 0.61536(17)
H20 H 0.8768 1.0855 0.5974
H21 H 0.8080 1.0189 0.6634
Ce1A Ce 0.268321(19) 1.039111(17) 0.496630(11)
Ce1A_2 Ce 1.268321(19) 1.039111(17) 0.496630(11)
Ce1_2 Ce 1.731679(19) -0.039111(17) 0.503370(11)
Ce1A_3 Ce 1.268321(19) 0.039111(17) 0.496630(11)
O1A O 0.6163(3) 0.9062(3) 0.64758(16)
O7A O 0.8709(3) 1.1053(2) 0.43868(17)
O8_2 O 0.4778(3) 1.1545(3) 0.53961(18)
O9A O 0.7447(4) 0.7173(3) 0.5054(3)
O13 O 0.7921(9) 0.0666(7) 0.7882(3)
H22 H 0.7410 0.1497 0.7680
H23 H 0.7469 0.0249 0.8251
loop_
_geom_bond_atom_site_label_1
_geom_bond_atom_site_label_2
_geom_bond_site_symmetry_1
_geom_bond_site_symmetry_2
Ce1 O2 1_555 1_555
C1 C2 1_555 1_555
C2 C3 1_555 1_555
C3 H1 1_555 1_555
C4 C3 1_555 1_555
C5 C4 1_555 1_555
H2 C5 1_555 1_555
C6 C5 1_555 1_555
C7 C2 1_555 1_555
H3 C7 1_555 1_555
C8 C9 1_555 1_555
C9 C10 1_555 1_555
C10 H4 1_555 1_555
C11 C10 1_555 1_555
H5 C11 1_555 1_555
C12 H6 1_555 1_555
C13 C9 1_555 1_555
H7 C13 1_555 1_555
C14 C6 1_555 1_555
C15 C16 1_555 1_555
C16 C17 1_555 1_555
C17 H8 1_555 1_555
C18 C17 1_555 1_555
C19 C18 1_555 1_555
H9 C19 1_555 1_555
C20 C19 1_555 1_555
C21 C16 1_555 1_555
H10 C21 1_555 1_555
C22 C23 1_555 1_555
C23 C24 1_555 1_555
C24 H11 1_555 1_555
C25 C24 1_555 1_555
H12 C25 1_555 1_555
C26 H13 1_555 1_555
C27 C23 1_555 1_555
H14 C27 1_555 1_555
C28 C20 1_555 1_555
N1 C4 1_555 1_555
H15 N1 1_555 1_555
N2 C11 1_555 1_555
N3 C18 1_555 1_555
H16 N3 1_555 1_555
N4 C25 1_555 1_555
O1 C1 1_555 1_555
O2 C1 1_555 1_555
O3 C14 1_555 1_555
H17 O3 1_555 1_555
O4 C14 1_555 1_555
O5 C8 1_555 1_555
O6 Ce1 1_555 1_555
O7 C15 1_555 1_555
O8 C28 1_555 1_555
O9 C28 1_555 1_555
O10 C22 1_555 1_555
O11 Ce1 1_555 1_555
H18 O11 1_555 1_555
H19 O11 1_555 1_555
O12 Ce1 1_555 1_555
H20 O12 1_555 1_555
H21 O12 1_555 1_555
O13 H22 1_555 1_555
H23 O13 1_555 1_555
Ce1A O1 1_555 1_555
Ce1A_2 O7 1_555 1_555
Ce1_2 O8 1_555 1_555
Ce1A_3 O9 1_555 1_555
O1A Ce1 1_555 1_555
O7A Ce1 1_555 1_555
O8_2 Ce1 1_555 1_555
O9A Ce1 1_555 1_555
C6 C7 1_555 1_555
C8 N1 1_555 1_555
C12 C13 1_555 1_555
C12 N2 1_555 1_555
C15 O6 1_555 1_555
C20 C21 1_555 1_555
C22 N3 1_555 1_555
C26 C27 1_555 1_555
C26 N4 1_555 1_555

#END
