
#######################################################################
#
#                 Cambridge Crystallographic Data Centre
#                                CCDC 
#
#######################################################################
#
# If this CIF has been generated from an entry in the Cambridge 
# Structural Database, then it will include bibliographic, chemical, 
# crystal, experimental, refinement or atomic coordinate data resulting 
# from the CCDC's data processing and validation procedures.
#
#######################################################################

data_HAXYUB
_symmetry_cell_setting           triclinic
_symmetry_space_group_name_H-M   'P -1'
_symmetry_Int_Tables_number      2
_space_group_name_Hall           '-P 1'
loop_
_symmetry_equiv_pos_site_id
_symmetry_equiv_pos_as_xyz
1 x,y,z
2 -x,-y,-z
_cell_length_a                   10.6560(3)
_cell_length_b                   10.7154(4)
_cell_length_c                   10.8898(2)
_cell_angle_alpha                97.8288(18)
_cell_angle_beta                 117.3550(16)
_cell_angle_gamma                98.5935(15)
_cell_volume                     1061.86
loop_
_atom_site_label
_atom_site_type_symbol
_atom_site_fract_x
_atom_site_fract_y
_atom_site_fract_z
Mn1 Mn 0.0000 0.0000 1.0000
Ni1 Ni 0.0000 -0.5000 0.5000
S1 S -0.03062(5) -0.35300(5) 0.63037(5)
S2 S 0.22920(5) -0.46290(5) 0.64894(5)
N1 N 0.16133(16) 0.12497(14) 1.17837(14)
N2 N 0.01258(16) 0.12790(14) 0.88509(14)
N3 N 0.16063(18) -0.10310(16) 0.95951(16)
C1 C 0.22127(19) 0.10596(18) 1.31515(17)
C2 C 0.3340(2) 0.21888(18) 1.41178(19)
C3 C 0.3401(2) 0.30596(19) 1.33489(19)
C4 C 0.23138(19) 0.24848(17) 1.18927(18)
C5 C 0.20130(19) 0.31085(17) 1.07818(18)
C6 C 0.10074(19) 0.25226(17) 0.93623(18)
C7 C 0.0756(2) 0.31345(19) 0.82040(19)
C8 C -0.0267(2) 0.22618(19) 0.69929(19)
C9 C -0.06868(19) 0.11177(17) 0.73897(18)
C10 C 0.17787(19) -0.00265(17) 1.35532(17)
C11 C 0.27586(19) 0.45142(17) 1.11486(18)
C12 C 0.4080(2) 0.4910(2) 1.1202(2)
C13 C 0.4758(2) 0.6226(2) 1.1584(2)
C14 C 0.4100(2) 0.7143(2) 1.1888(2)
C15 C 0.2783(3) 0.6756(2) 1.1827(3)
C16 C 0.2111(2) 0.5444(2) 1.1466(2)
C17 C 0.25104(19) -0.00419(18) 1.51019(18)
C18 C 0.3593(2) -0.0708(2) 1.5653(2)
C19 C 0.4211(2) -0.0773(2) 1.7071(2)
C20 C 0.3732(2) -0.0179(2) 1.7931(2)
C21 C 0.2671(2) 0.0501(2) 1.7398(2)
C22 C 0.2064(2) 0.0582(2) 1.59808(19)
C23 C 0.1574(2) -0.18922(19) 0.88195(19)
C24 C 0.1421(2) -0.29478(19) 0.77677(19)
C25 C 0.2550(2) -0.3438(2) 0.7849(2)
H1 H 0.390(2) 0.226(2) 1.511(2)
H2 H 0.403(2) 0.391(2) 1.365(2)
H3 H 0.125(2) 0.398(2) 0.831(2)
H4 H -0.066(2) 0.239(2) 0.604(2)
H5 H 0.454(3) 0.428(3) 1.098(3)
H6 H 0.565(3) 0.648(3) 1.162(3)
H7 H 0.458(2) 0.804(2) 1.213(2)
H8 H 0.229(3) 0.735(3) 1.202(3)
H9 H 0.117(3) 0.518(3) 1.143(3)
H10 H 0.389(3) -0.113(2) 1.507(3)
H11 H 0.496(3) -0.124(3) 1.746(3)
H12 H 0.413(3) -0.026(2) 1.892(3)
H13 H 0.234(3) 0.092(3) 1.797(3)
H14 H 0.134(2) 0.105(2) 1.561(2)
H15 H 0.349(3) -0.310(3) 0.862(3)
Mn1_2 Mn 0.0000 -1.0000 0.0000
S1A S 0.03062(5) -0.64700(5) 0.36963(5)
S2A S -0.22920(5) -0.53710(5) 0.35106(5)
N1A N -0.16133(16) -0.12497(14) 0.82163(14)
N2A N -0.01258(16) -0.12790(14) 1.11491(14)
N3A N -0.16063(18) 0.10310(16) 1.04049(16)
N3A_2 N -0.16063(18) -0.89690(16) 0.04049(16)
C1A C -0.22127(19) -0.10596(18) 0.68485(17)
C2A C -0.3340(2) -0.21888(18) 0.58822(19)
C3A C -0.3401(2) -0.30596(19) 0.66511(19)
C4A C -0.23138(19) -0.24848(17) 0.81073(18)
C5A C -0.20130(19) -0.31085(17) 0.92182(18)
C6A C -0.10074(19) -0.25226(17) 1.06377(18)
C7A C -0.0756(2) -0.31345(19) 1.17960(19)
C8A C 0.0267(2) -0.22618(19) 1.30071(19)
C9A C 0.06868(19) -0.11177(17) 1.26103(18)
C10A C -0.17787(19) 0.00265(17) 0.64468(17)
C11A C -0.27586(19) -0.45142(17) 0.88514(18)
C12A C -0.4080(2) -0.4910(2) 0.8798(2)
C13A C -0.4758(2) -0.6226(2) 0.8416(2)
C14A C -0.4100(2) -0.7143(2) 0.8112(2)
C15A C -0.2783(3) -0.6756(2) 0.8173(3)
C16A C -0.2111(2) -0.5444(2) 0.8534(2)
C17A C -0.25104(19) 0.00419(18) 0.48981(18)
C18A C -0.3593(2) 0.0708(2) 0.4347(2)
C19A C -0.4211(2) 0.0773(2) 0.2929(2)
C20A C -0.3732(2) 0.0179(2) 0.2069(2)
C21A C -0.2671(2) -0.0501(2) 0.2602(2)
C22A C -0.2064(2) -0.0582(2) 0.40192(19)
C23A C -0.1574(2) -0.81078(19) 0.11805(19)
C24A C -0.1421(2) -0.70522(19) 0.22323(19)
C25A C -0.2550(2) -0.6562(2) 0.2151(2)
H1A H -0.390(2) -0.226(2) 0.489(2)
H2A H -0.403(2) -0.391(2) 0.635(2)
H3A H -0.125(2) -0.398(2) 1.169(2)
H4A H 0.066(2) -0.239(2) 1.396(2)
H5A H -0.454(3) -0.428(3) 0.902(3)
H6A H -0.565(3) -0.648(3) 0.838(3)
H7A H -0.458(2) -0.804(2) 0.787(2)
H8A H -0.229(3) -0.735(3) 0.798(3)
H9A H -0.117(3) -0.518(3) 0.857(3)
H10A H -0.389(3) 0.113(2) 0.493(3)
H11A H -0.496(3) 0.124(3) 0.254(3)
H12A H -0.413(3) 0.026(2) 0.108(3)
H13A H -0.234(3) -0.092(3) 0.203(3)
H14A H -0.134(2) -0.105(2) 0.439(2)
H15A H -0.349(3) -0.690(3) 0.138(3)
loop_
_geom_bond_atom_site_label_1
_geom_bond_atom_site_label_2
_geom_bond_site_symmetry_1
_geom_bond_site_symmetry_2
Mn1 N1 1_555 1_555
Ni1 S1 1_555 1_555
S1 C24 1_555 1_555
S2 Ni1 1_555 1_555
N1 C1 1_555 1_555
N2 Mn1 1_555 1_555
N3 Mn1 1_555 1_555
C1 C2 1_555 1_555
C2 C3 1_555 1_555
C3 C4 1_555 1_555
C4 N1 1_555 1_555
C5 C4 1_555 1_555
C6 N2 1_555 1_555
C7 C6 1_555 1_555
C8 C7 1_555 1_555
C9 N2 1_555 1_555
C10 C1 1_555 1_555
C11 C5 1_555 1_555
C12 C11 1_555 1_555
C13 C12 1_555 1_555
C14 C13 1_555 1_555
C15 C14 1_555 1_555
C16 C11 1_555 1_555
C17 C10 1_555 1_555
C18 C17 1_555 1_555
C19 C18 1_555 1_555
C20 C19 1_555 1_555
C21 C20 1_555 1_555
C22 C17 1_555 1_555
C23 N3 1_555 1_555
C24 C23 1_555 1_555
C25 S2 1_555 1_555
H1 C2 1_555 1_555
H2 C3 1_555 1_555
H3 C7 1_555 1_555
H4 C8 1_555 1_555
H5 C12 1_555 1_555
H6 C13 1_555 1_555
H7 C14 1_555 1_555
H8 C15 1_555 1_555
H9 C16 1_555 1_555
H10 C18 1_555 1_555
H11 C19 1_555 1_555
H12 C20 1_555 1_555
H13 C21 1_555 1_555
H14 C22 1_555 1_555
H15 C25 1_555 1_555
Mn1_2 N3A_2 1_555 1_555
S1A Ni1 1_555 1_555
S2A Ni1 1_555 1_555
N1A Mn1 1_555 1_555
N2A Mn1 1_555 1_555
N3A Mn1 1_555 1_555
N3A_2 C23A 1_555 1_555
C1A N1A 1_555 1_555
C2A C1A 1_555 1_555
C3A C2A 1_555 1_555
C4A N1A 1_555 1_555
C5A C4A 1_555 1_555
C6A N2A 1_555 1_555
C7A C6A 1_555 1_555
C8A C7A 1_555 1_555
C9A C10 1_555 1_555
C10A C9 1_555 1_555
C11A C5A 1_555 1_555
C12A C11A 1_555 1_555
C13A C12A 1_555 1_555
C14A C13A 1_555 1_555
C15A C14A 1_555 1_555
C16A C11A 1_555 1_555
C17A C10A 1_555 1_555
C18A C17A 1_555 1_555
C19A C18A 1_555 1_555
C20A C19A 1_555 1_555
C21A C20A 1_555 1_555
C22A C17A 1_555 1_555
C23A C24A 1_555 1_555
C24A S1A 1_555 1_555
C25A S2A 1_555 1_555
H1A C2A 1_555 1_555
H2A C3A 1_555 1_555
H3A C7A 1_555 1_555
H4A C8A 1_555 1_555
H5A C12A 1_555 1_555
H6A C13A 1_555 1_555
H7A C14A 1_555 1_555
H8A C15A 1_555 1_555
H9A C16A 1_555 1_555
H10A C18A 1_555 1_555
H11A C19A 1_555 1_555
H12A C20A 1_555 1_555
H13A C21A 1_555 1_555
H14A C22A 1_555 1_555
H15A C25A 1_555 1_555
C5 C6 1_555 1_555
C8 C9 1_555 1_555
C15 C16 1_555 1_555
C21 C22 1_555 1_555
C24 C25 1_555 1_555
N2A C9A 1_555 1_555
C1A C10A 1_555 1_555
C3A C4A 1_555 1_555
C5A C6A 1_555 1_555
C8A C9A 1_555 1_555
C15A C16A 1_555 1_555
C21A C22A 1_555 1_555
C24A C25A 1_555 1_555

#END
