
#######################################################################
#
#                 Cambridge Crystallographic Data Centre
#                                CCDC 
#
#######################################################################
#
# If this CIF has been generated from an entry in the Cambridge 
# Structural Database, then it will include bibliographic, chemical, 
# crystal, experimental, refinement or atomic coordinate data resulting 
# from the CCDC's data processing and validation procedures.
#
#######################################################################

data_HAXYIQ
_symmetry_cell_setting           rhombohedral
_symmetry_space_group_name_H-M   'R -3'
_symmetry_Int_Tables_number      148
_space_group_name_Hall           '-R 3'
loop_
_symmetry_equiv_pos_site_id
_symmetry_equiv_pos_as_xyz
1 x,y,z
2 -y,x-y,z
3 -x+y,-x,z
4 2/3+x,1/3+y,1/3+z
5 2/3-y,1/3+x-y,1/3+z
6 2/3-x+y,1/3-x,1/3+z
7 1/3+x,2/3+y,2/3+z
8 1/3-y,2/3+x-y,2/3+z
9 1/3-x+y,2/3-x,2/3+z
10 -x,-y,-z
11 y,-x+y,-z
12 x-y,x,-z
13 1/3-x,2/3-y,2/3-z
14 1/3+y,2/3-x+y,2/3-z
15 1/3+x-y,2/3+x,2/3-z
16 2/3-x,1/3-y,1/3-z
17 2/3+y,1/3-x+y,1/3-z
18 2/3+x-y,1/3+x,1/3-z
_cell_length_a                   23.081(3)
_cell_length_b                   23.081(3)
_cell_length_c                   8.9690(18)
_cell_angle_alpha                90
_cell_angle_beta                 90
_cell_angle_gamma                120
_cell_volume                     4137.94
loop_
_atom_site_label
_atom_site_type_symbol
_atom_site_fract_x
_atom_site_fract_y
_atom_site_fract_z
Nd1 Nd 0.041666(9) 0.128240(9) 0.329953(18)
C1 C 0.03699(16) 0.21892(16) 0.0150(4)
C2 C 0.0445(2) 0.26676(18) -0.0868(4)
H1 H 0.0244 0.2544 -0.1801
C3 C 0.0822(2) 0.33329(18) -0.0484(4)
H2 H 0.0873 0.3664 -0.1150
C4 C 0.11239(17) 0.35025(16) 0.0903(4)
C5 C 0.10166(17) 0.29858(16) 0.1863(4)
H3 H 0.1211 0.3095 0.2804
C6 C -0.00545(16) 0.14569(16) -0.0166(4)
C7 C 0.15650(17) 0.42256(17) 0.1364(4)
N1 N 0.06494(13) 0.23415(13) 0.1504(3)
O1 O 0.19772(12) 0.43481(11) 0.2386(3)
O2 O 0.14805(13) 0.46471(12) 0.0684(3)
O3 O -0.02355(11) 0.12927(11) -0.1493(2)
O4 O -0.02057(12) 0.10561(11) 0.0918(3)
O6 O 0.03467(11) 0.10550(12) 0.6017(3)
H4 H 0.0397(19) 0.1334(18) 0.650(5)
Nd1L Nd 0.291667(9) 0.538427(9) 0.336714(18)
Nd1E Nd -0.246759(13) 0.291667(9) 0.663286(18)
Nd1G Nd 0.205093(9) 0.580093(13) -0.003380(18)
Nd1K Nd -0.086574(13) 0.041666(9) -0.329953(18)
Nd1K_2 Nd -0.086574(13) 0.041666(9) 0.670047(18)
Nd1J Nd 0.128240(9) 0.086574(13) 0.670047(18)
Nd1H Nd 0.419907(13) 0.625001(9) 0.996620(18)
Nd1P Nd -0.205093(9) 0.419907(13) 0.003380(18)
Nd1B Nd 0.086574(13) -0.041666(9) 0.329953(18)
Nd1A Nd -0.128240(9) -0.086574(13) 0.329953(18)
C1L C 0.29634(16) 0.44775(16) 0.6517(4)
C1E C -0.15140(23) 0.29634(16) 0.3483(4)
C2L C 0.2888(2) 0.39991(18) 0.7535(4)
C2E C -0.11107(27) 0.2888(2) 0.2465(4)
H1L H 0.3089 0.4123 0.8468
H1E H -0.1033 0.3089 0.1532
C3L C 0.2511(2) 0.33338(18) 0.7151(4)
C3E C -0.08224(27) 0.2511(2) 0.2849(4)
H2L H 0.2460 0.3003 0.7817
H2E H -0.0542 0.2460 0.2183
C4L C 0.22094(17) 0.31642(16) 0.5764(4)
C4E C -0.09547(23) 0.22094(17) 0.4236(4)
C5L C 0.23167(17) 0.36809(16) 0.4804(4)
C5E C -0.13641(23) 0.23167(17) 0.5196(4)
H3L H 0.2122 0.3572 0.3863
H3E H -0.1449 0.2122 0.6137
C6L C 0.33878(16) 0.52098(16) 0.6833(4)
C6E C -0.18219(23) 0.33878(16) 0.3167(4)
C7L C 0.17683(17) 0.24411(17) 0.5303(4)
C7E C -0.06727(24) 0.17683(17) 0.4697(4)
N1L N 0.26839(13) 0.43252(13) 0.5163(3)
N1E N -0.16412(18) 0.26839(13) 0.4837(3)
O1L O 0.13561(12) 0.23186(11) 0.4281(3)
O1E O -0.09624(16) 0.13561(12) 0.5719(3)
O1K O -0.23709(16) 0.19772(12) 0.7614(3)
O2L O 0.18528(13) 0.20196(12) 0.5983(3)
O2E O -0.01667(18) 0.18528(13) 0.4017(3)
O2Q O 0.35001(18) 0.48138(13) 0.2649(3)
O2G O -0.13138(12) 0.35001(18) 0.7351(3)
O3L O 0.35688(11) 0.53740(11) 0.8160(2)
O3E O -0.18051(16) 0.35688(11) 0.1840(2)
O3J O 0.12927(11) 0.15282(16) 0.1493(2)
O3G O 0.20406(11) 0.51385(16) 0.5174(2)
O3O O -0.30978(11) 0.20406(11) 0.4826(2)
O4L O 0.35390(12) 0.56106(11) 0.5749(3)
O4E O -0.20715(16) 0.35390(12) 0.4251(3)
O6J O 0.10550(12) 0.07083(16) 0.3983(3)
O6K O -0.07083(16) 0.03467(11) 0.3983(3)
O6L O 0.29866(11) 0.56117(12) 0.0650(3)
O6G O 0.22783(12) 0.59584(16) 0.2684(3)
O6H O 0.40416(16) 0.63200(11) 0.2684(3)
O6E O -0.26250(16) 0.29866(11) 0.9350(3)
O6O O -0.36800(11) 0.22783(12) 0.7316(3)
O6P O -0.22783(12) 0.40416(16) 0.7316(3)
H4J H 0.1334(18) 0.0937(26) 0.350(5)
H4K H -0.0937(26) 0.0397(19) 0.350(5)
H4L H 0.2936(19) 0.5333(18) 0.017(5)
H4G H 0.1999(18) 0.5730(26) 0.317(5)
H4H H 0.4270(26) 0.6270(19) 0.317(5)
H4E H -0.2396(26) 0.2936(19) 0.983(5)
H4O H -0.3730(19) 0.1999(18) 0.683(5)
H4P H -0.1999(18) 0.4270(26) 0.683(5)
O5 O 0.0000 0.0000 0.1697(6)
loop_
_geom_bond_atom_site_label_1
_geom_bond_atom_site_label_2
_geom_bond_site_symmetry_1
_geom_bond_site_symmetry_2
Nd1 N1 1_555 1_555
C1 C2 1_555 1_555
C2 H1 1_555 1_555
C3 C2 1_555 1_555
H2 C3 1_555 1_555
C4 C3 1_555 1_555
C5 C4 1_555 1_555
H3 C5 1_555 1_555
C6 C1 1_555 1_555
C7 C4 1_555 1_555
N1 C1 1_555 1_555
O1 C7 1_555 1_555
O2 C7 1_555 1_555
O3 C6 1_555 1_555
O4 Nd1 1_555 1_555
O6 Nd1 1_555 1_555
H4 O6 1_555 1_555
Nd1L O1 1_555 1_555
Nd1E N1E 1_555 1_555
Nd1G O2 1_555 1_555
Nd1K O3 1_555 1_555
Nd1K_2 O6 1_555 1_555
Nd1J O6 1_555 1_555
Nd1H O3L 1_555 1_555
Nd1P O3E 1_555 1_555
Nd1B O6J 1_555 1_555
Nd1A O6K 1_555 1_555
C1L C2L 1_555 1_555
C1E C2E 1_555 1_555
C2L H1L 1_555 1_555
C2E H1E 1_555 1_555
C3L C2L 1_555 1_555
C3E C2E 1_555 1_555
H2L C3L 1_555 1_555
H2E C3E 1_555 1_555
C4L C3L 1_555 1_555
C4E C3E 1_555 1_555
C5L C4L 1_555 1_555
C5E C4E 1_555 1_555
H3L C5L 1_555 1_555
H3E C5E 1_555 1_555
C6L C1L 1_555 1_555
C6E C1E 1_555 1_555
C7L C4L 1_555 1_555
C7E C4E 1_555 1_555
N1L Nd1L 1_555 1_555
N1E C1E 1_555 1_555
O1L Nd1 1_555 1_555
O1E Nd1K_2 1_555 1_555
O1K Nd1E 1_555 1_555
O2L Nd1J 1_555 1_555
O2E Nd1 1_555 1_555
O2Q Nd1L 1_555 1_555
O2G Nd1E 1_555 1_555
O3L C6L 1_555 1_555
O3E C6E 1_555 1_555
O3J Nd1 1_555 1_555
O3G Nd1L 1_555 1_555
O3O Nd1E 1_555 1_555
O4L Nd1L 1_555 1_555
O4E Nd1E 1_555 1_555
O6J Nd1 1_555 1_555
O6K Nd1 1_555 1_555
O6L Nd1L 1_555 1_555
O6G Nd1L 1_555 1_555
O6H Nd1L 1_555 1_555
O6E Nd1E 1_555 1_555
O6O Nd1E 1_555 1_555
O6P Nd1E 1_555 1_555
H4J O6J 1_555 1_555
H4K O6K 1_555 1_555
H4L O6L 1_555 1_555
H4G O6G 1_555 1_555
H4H O6H 1_555 1_555
H4E O6E 1_555 1_555
H4O O6O 1_555 1_555
H4P O6P 1_555 1_555
C5 N1 1_555 1_555
C6 O4 1_555 1_555
Nd1G O6L 1_555 1_555
Nd1G O6G 1_555 1_555
Nd1K_2 O6K 1_555 1_555
Nd1J O6J 1_555 1_555
C1L N1L 1_555 1_555
C5L N1L 1_555 1_555
C5E N1E 1_555 1_555
C6L O4L 1_555 1_555
C6E O4E 1_555 1_555
C7L O1L 1_555 1_555
C7L O2L 1_555 1_555
C7E O1E 1_555 1_555
C7E O2E 1_555 1_555

#END
