
#######################################################################
#
#                 Cambridge Crystallographic Data Centre
#                                CCDC 
#
#######################################################################
#
# If this CIF has been generated from an entry in the Cambridge 
# Structural Database, then it will include bibliographic, chemical, 
# crystal, experimental, refinement or atomic coordinate data resulting 
# from the CCDC's data processing and validation procedures.
#
#######################################################################

data_HAXZIQ
_symmetry_cell_setting           triclinic
_symmetry_space_group_name_H-M   'P -1'
_symmetry_Int_Tables_number      2
_space_group_name_Hall           '-P 1'
loop_
_symmetry_equiv_pos_site_id
_symmetry_equiv_pos_as_xyz
1 x,y,z
2 -x,-y,-z
_cell_length_a                   8.6311(11)
_cell_length_b                   11.3015(14)
_cell_length_c                   11.9468(15)
_cell_angle_alpha                112.066(2)
_cell_angle_beta                 100.134(2)
_cell_angle_gamma                108.468(2)
_cell_volume                     964.976
loop_
_atom_site_label
_atom_site_type_symbol
_atom_site_fract_x
_atom_site_fract_y
_atom_site_fract_z
Ni1 Ni 0.5000 0.0000 0.5000
Ni2 Ni 0.42928(5) 0.16568(4) 0.28806(3)
O1 O 0.5033(3) 0.1976(2) 0.5942(2)
O2 O 0.5675(3) 0.3118(2) 0.47763(19)
O3 O 0.3016(3) 0.0302(2) 0.0939(2)
O4 O 0.0376(4) -0.1295(3) 0.0496(3)
O5 O -0.2161(3) -0.1614(3) 0.6505(2)
O6 O 0.0359(3) 0.0302(3) 0.7617(3)
N1 N 0.5897(3) 0.6748(3) 0.7567(2)
N2 N 0.3292(3) -0.2128(3) -0.2531(2)
N3 N 0.2355(3) -0.0966(3) 0.4723(2)
N4 N 0.5624(4) 0.0033(3) 0.6818(2)
N5 N 0.5690(4) 0.0988(3) 0.7753(3)
N6 N 0.5752(6) 0.1886(4) 0.8646(3)
C1 C 0.5869(4) 0.5569(3) 0.6693(3)
H1 H 0.600(4) 0.558(4) 0.597(3)
C2 C 0.5708(4) 0.4401(3) 0.6867(3)
C3 C 0.5724(6) 0.4509(4) 0.8069(4)
H2 H 0.547(6) 0.376(5) 0.813(5)
C4 C 0.5876(7) 0.5757(4) 0.9011(4)
H3 H 0.595(6) 0.578(5) 0.988(5)
C5 C 0.5904(6) 0.6824(4) 0.8711(4)
H4 H 0.596(5) 0.762(4) 0.924(4)
C6 C 0.5451(4) 0.3038(3) 0.5769(3)
C7 C 0.3127(4) -0.1307(3) -0.1451(3)
H5 H 0.405(4) -0.041(3) -0.090(3)
C8 C 0.1709(4) -0.1707(3) -0.1073(3)
C9 C 0.0329(5) -0.3001(4) -0.1893(3)
H6 H -0.050(7) -0.348(6) -0.149(5)
C10 C 0.0452(5) -0.3828(4) -0.3040(3)
H7 H -0.050(5) -0.464(4) -0.367(4)
C11 C 0.1943(5) -0.3375(4) -0.3312(3)
H8 H 0.221(5) -0.389(4) -0.408(4)
C12 C 0.1709(4) -0.0810(3) 0.0224(3)
C13 C 0.1697(4) -0.0588(3) 0.5666(3)
H9 H 0.250(4) 0.028(3) 0.642(3)
C14 C 0.0015(4) -0.1323(4) 0.5553(3)
C15 C -0.1060(5) -0.2505(4) 0.4404(4)
H10 H -0.230(6) -0.302(5) 0.426(4)
C16 C -0.0426(5) -0.2876(4) 0.3401(4)
H11 H -0.1134 -0.3639 0.2607
C17 C 0.1283(5) -0.2089(4) 0.3603(3)
H12 H 0.173(5) -0.225(4) 0.292(3)
C18 C -0.0676(4) -0.0864(4) 0.6637(3)
Ni2A Ni 0.57072(5) -0.16568(4) 0.71194(3)
Ni2A_2 Ni -0.42928(5) -0.16568(4) 0.71194(3)
Ni2A_3 Ni 0.57072(5) 0.83432(4) 0.71194(3)
Ni2A_4 Ni 0.57072(5) -0.16568(4) -0.28806(3)
Ni2_2 Ni 0.42928(5) -0.83432(4) 0.28806(3)
Ni2_3 Ni 1.42928(5) 0.16568(4) 0.28806(3)
O1A O 0.4967(3) -0.1976(2) 0.4058(2)
O2A O 0.4325(3) -0.3118(2) 0.52237(19)
O3A O 0.6984(3) -0.0302(2) -0.0939(2)
O3A_2 O 0.6984(3) -0.0302(2) 0.9061(2)
O4A O 0.9624(4) 0.1295(3) -0.0496(3)
O5A O 1.2161(3) 0.1614(3) 0.3495(2)
O5A_2 O 0.2161(3) 0.1614(3) 0.3495(2)
O5_2 O 0.7839(3) -0.1614(3) 0.6505(2)
O6A O 0.9641(3) -0.0302(3) 0.2383(3)
N1A N 0.4103(3) -0.6748(3) 0.2433(2)
N1A_2 N 0.4103(3) 0.3252(3) 0.2433(2)
N1_2 N 0.5897(3) -0.3252(3) 0.7567(2)
N2A N 0.6708(3) 0.2128(3) 0.2531(2)
N2_2 N 0.3292(3) -0.2128(3) 0.7469(2)
N3A N 0.7645(3) 0.0966(3) 0.5277(2)
N4A N 0.4376(4) -0.0033(3) 0.3182(2)
N5A N 0.4310(4) -0.0988(3) 0.2247(3)
N6A N 0.4248(6) -0.1886(4) 0.1354(3)
C1A C 0.4131(4) -0.5569(3) 0.3307(3)
H1A H 0.400(4) -0.558(4) 0.403(3)
C2A C 0.4292(4) -0.4401(3) 0.3133(3)
C3A C 0.4276(6) -0.4509(4) 0.1931(4)
H2A H 0.453(6) -0.376(5) 0.187(5)
C4A C 0.4124(7) -0.5757(4) 0.0989(4)
H3A H 0.405(6) -0.578(5) 0.012(5)
C5A C 0.4096(6) -0.6824(4) 0.1289(4)
H4A H 0.404(5) -0.762(4) 0.076(4)
C6A C 0.4549(4) -0.3038(3) 0.4231(3)
C7A C 0.6873(4) 0.1307(3) 0.1451(3)
H5A H 0.595(4) 0.041(3) 0.090(3)
C8A C 0.8291(4) 0.1707(3) 0.1073(3)
C9A C 0.9671(5) 0.3001(4) 0.1893(3)
H6A H 1.050(7) 0.348(6) 0.149(5)
C10A C 0.9548(5) 0.3828(4) 0.3040(3)
H7A H 1.050(5) 0.464(4) 0.367(4)
C11A C 0.8057(5) 0.3375(4) 0.3312(3)
H8A H 0.779(5) 0.389(4) 0.408(4)
C12A C 0.8291(4) 0.0810(3) -0.0224(3)
C13A C 0.8303(4) 0.0588(3) 0.4334(3)
H9A H 0.750(4) -0.028(3) 0.358(3)
C14A C 0.9985(4) 0.1323(4) 0.4447(3)
C15A C 1.1060(5) 0.2505(4) 0.5596(4)
H10A H 1.230(6) 0.302(5) 0.574(4)
C16A C 1.0426(5) 0.2876(4) 0.6599(4)
H11A H 1.1134 0.3639 0.7393
C17A C 0.8717(5) 0.2089(4) 0.6397(3)
H12A H 0.827(5) 0.225(4) 0.708(3)
C18A C 1.0676(4) 0.0864(4) 0.3363(3)
loop_
_geom_bond_atom_site_label_1
_geom_bond_atom_site_label_2
_geom_bond_site_symmetry_1
_geom_bond_site_symmetry_2
Ni1 O1 1_555 1_555
Ni2 O2 1_555 1_555
O1 C6 1_555 1_555
O2 C6 1_555 1_555
O3 Ni2 1_555 1_555
O4 C12 1_555 1_555
O5 C18 1_555 1_555
O6 C18 1_555 1_555
N1 C1 1_555 1_555
N2 C7 1_555 1_555
N3 Ni1 1_555 1_555
N4 Ni1 1_555 1_555
N5 N4 1_555 1_555
N6 N5 1_555 1_555
C1 H1 1_555 1_555
C2 C1 1_555 1_555
C3 C2 1_555 1_555
H2 C3 1_555 1_555
C4 C3 1_555 1_555
H3 C4 1_555 1_555
C5 N1 1_555 1_555
H4 C5 1_555 1_555
C6 C2 1_555 1_555
C7 H5 1_555 1_555
C8 C7 1_555 1_555
C9 C8 1_555 1_555
H6 C9 1_555 1_555
C10 C9 1_555 1_555
H7 C10 1_555 1_555
C11 N2 1_555 1_555
H8 C11 1_555 1_555
C12 O3 1_555 1_555
C13 N3 1_555 1_555
H9 C13 1_555 1_555
C14 C13 1_555 1_555
C15 C14 1_555 1_555
H10 C15 1_555 1_555
C16 C15 1_555 1_555
H11 C16 1_555 1_555
C17 N3 1_555 1_555
H12 C17 1_555 1_555
C18 C14 1_555 1_555
Ni2A N4 1_555 1_555
Ni2A_2 O5 1_555 1_555
Ni2A_3 N1 1_555 1_555
Ni2A_4 N2 1_555 1_555
Ni2_2 N1A 1_555 1_555
Ni2_3 O5A 1_555 1_555
O1A Ni1 1_555 1_555
O2A Ni2A 1_555 1_555
O3A Ni2A_4 1_555 1_555
O3A_2 Ni2A 1_555 1_555
O4A C12A 1_555 1_555
O5A C18A 1_555 1_555
O5A_2 Ni2 1_555 1_555
O5_2 Ni2A 1_555 1_555
O6A C18A 1_555 1_555
N1A C1A 1_555 1_555
N1A_2 Ni2 1_555 1_555
N1_2 Ni2A 1_555 1_555
N2A Ni2 1_555 1_555
N2_2 Ni2A 1_555 1_555
N3A Ni1 1_555 1_555
N4A Ni1 1_555 1_555
N5A N4A 1_555 1_555
N6A N5A 1_555 1_555
C1A H1A 1_555 1_555
C2A C1A 1_555 1_555
C3A C2A 1_555 1_555
H2A C3A 1_555 1_555
C4A C3A 1_555 1_555
H3A C4A 1_555 1_555
C5A N1A 1_555 1_555
H4A C5A 1_555 1_555
C6A O1A 1_555 1_555
C7A N2A 1_555 1_555
H5A C7A 1_555 1_555
C8A C7A 1_555 1_555
C9A C8A 1_555 1_555
H6A C9A 1_555 1_555
C10A C9A 1_555 1_555
H7A C10A 1_555 1_555
C11A N2A 1_555 1_555
H8A C11A 1_555 1_555
C12A O3A 1_555 1_555
C13A N3A 1_555 1_555
H9A C13A 1_555 1_555
C14A C13A 1_555 1_555
C15A C14A 1_555 1_555
H10A C15A 1_555 1_555
C16A C15A 1_555 1_555
H11A C16A 1_555 1_555
C17A N3A 1_555 1_555
H12A C17A 1_555 1_555
C18A C14A 1_555 1_555
Ni2 N4A 1_555 1_555
C4 C5 1_555 1_555
C8 C12 1_555 1_555
C10 C11 1_555 1_555
C16 C17 1_555 1_555
O2A C6A 1_555 1_555
C2A C6A 1_555 1_555
C4A C5A 1_555 1_555
C8A C12A 1_555 1_555
C10A C11A 1_555 1_555
C16A C17A 1_555 1_555

#END
