
#######################################################################
#
#                 Cambridge Crystallographic Data Centre
#                                CCDC 
#
#######################################################################
#
# If this CIF has been generated from an entry in the Cambridge 
# Structural Database, then it will include bibliographic, chemical, 
# crystal, experimental, refinement or atomic coordinate data resulting 
# from the CCDC's data processing and validation procedures.
#
#######################################################################

data_HAXZAI
_symmetry_cell_setting           triclinic
_symmetry_space_group_name_H-M   'P -1'
_symmetry_Int_Tables_number      2
_space_group_name_Hall           '-P 1'
loop_
_symmetry_equiv_pos_site_id
_symmetry_equiv_pos_as_xyz
1 x,y,z
2 -x,-y,-z
_cell_length_a                   10.4769(9)
_cell_length_b                   10.8561(9)
_cell_length_c                   11.2213(9)
_cell_angle_alpha                99.060(2)
_cell_angle_beta                 101.452(2)
_cell_angle_gamma                113.5120(10)
_cell_volume                     1106.54
loop_
_atom_site_label
_atom_site_type_symbol
_atom_site_fract_x
_atom_site_fract_y
_atom_site_fract_z
Mn1 Mn 0.0000 0.0000 0.0000
Ni1 Ni 0.0000 0.5000 0.5000
S1 S 0.02764(9) 0.36990(9) 0.35372(9)
S2 S -0.22956(9) 0.37144(9) 0.44757(8)
N1 N 0.1571(3) 0.1735(2) 0.1253(2)
N2 N 0.0162(2) -0.1083(2) 0.1257(2)
N3 N -0.1605(3) 0.0552(3) 0.0982(3)
N4 N -0.5229(3) 0.0598(3) 0.2124(3)
C1 C 0.2147(3) 0.3049(3) 0.1069(3)
C2 C 0.3260(3) 0.4006(3) 0.2189(3)
H1 H 0.3837 0.4960 0.2301
C3 C 0.3324(3) 0.3282(3) 0.3049(3)
H2 H 0.3948 0.3640 0.3877
C4 C 0.2271(3) 0.1868(3) 0.2474(3)
C5 C 0.1997(3) 0.0815(3) 0.3085(3)
C6 C 0.1051(3) -0.0576(3) 0.2482(3)
C7 C 0.0849(3) -0.1693(3) 0.3059(3)
H3 H 0.1326 -0.1621 0.3889
C8 C -0.0153(3) -0.2871(3) 0.2192(3)
H4 H -0.0494 -0.3775 0.2304
C9 C -0.0602(3) -0.2500(3) 0.1077(3)
C10 C 0.1701(3) 0.3424(3) -0.0005(3)
C11 C 0.2697(3) 0.1191(3) 0.4467(3)
C12 C 0.1967(6) 0.1424(7) 0.5286(4)
H5 H 0.1029 0.1345 0.4971
C13 C 0.2585(7) 0.1775(8) 0.6571(4)
H6 H 0.2055 0.1913 0.7121
C14 C 0.3942(5) 0.1923(4) 0.7046(3)
H7 H 0.4373 0.2196 0.7922
C15 C 0.4667(4) 0.1676(5) 0.6257(3)
H8 H 0.5602 0.1748 0.6577
C16 C 0.4041(4) 0.1313(5) 0.4972(3)
H9 H 0.4565 0.1146 0.4429
C17 C 0.2432(3) 0.4918(3) -0.0012(3)
C18 C 0.2043(3) 0.5872(3) 0.0596(3)
H10 H 0.1321 0.5576 0.1010
C19 C 0.2716(3) 0.7257(3) 0.0593(3)
H11 H 0.2449 0.7903 0.1001
C20 C 0.3777(3) 0.7686(3) -0.0008(3)
H12 H 0.4234 0.8627 -0.0009
C21 C 0.4178(4) 0.6748(3) -0.0611(3)
H13 H 0.4910 0.7049 -0.1013
C22 C 0.3488(4) 0.5358(3) -0.0617(3)
H14 H 0.3745 0.4712 -0.1037
C23 C -0.1595(3) 0.1338(3) 0.1787(3)
C24 C -0.1450(4) 0.2394(3) 0.2825(3)
C25 C -0.2577(3) 0.2399(3) 0.3227(3)
C26 C -0.4048(4) 0.1383(3) 0.2616(3)
Mn1_2 Mn 0.0000 1.0000 1.0000
S1A S -0.02764(9) 0.63010(9) 0.64628(9)
S2A S 0.22956(9) 0.62856(9) 0.55243(8)
N1A N -0.1571(3) -0.1735(2) -0.1253(2)
N2A N -0.0162(2) 0.1083(2) -0.1257(2)
N3A N 0.1605(3) -0.0552(3) -0.0982(3)
N3A_2 N 0.1605(3) 0.9448(3) 0.9018(3)
N4A N 0.5229(3) 0.9402(3) 0.7876(3)
C1A C -0.2147(3) -0.3049(3) -0.1069(3)
C2A C -0.3260(3) -0.4006(3) -0.2189(3)
H1A H -0.3837 -0.4960 -0.2301
C3A C -0.3324(3) -0.3282(3) -0.3049(3)
H2A H -0.3948 -0.3640 -0.3877
C4A C -0.2271(3) -0.1868(3) -0.2474(3)
C5A C -0.1997(3) -0.0815(3) -0.3085(3)
C6A C -0.1051(3) 0.0576(3) -0.2482(3)
C7A C -0.0849(3) 0.1693(3) -0.3059(3)
H3A H -0.1326 0.1621 -0.3889
C8A C 0.0153(3) 0.2871(3) -0.2192(3)
H4A H 0.0494 0.3775 -0.2304
C9A C 0.0602(3) 0.2500(3) -0.1077(3)
C10A C -0.1701(3) -0.3424(3) 0.0005(3)
C11A C -0.2697(3) -0.1191(3) -0.4467(3)
C12A C -0.1967(6) -0.1424(7) -0.5286(4)
H5A H -0.1029 -0.1345 -0.4971
C13A C -0.2585(7) -0.1775(8) -0.6571(4)
H6A H -0.2055 -0.1913 -0.7121
C14A C -0.3942(5) -0.1923(4) -0.7046(3)
H7A H -0.4373 -0.2196 -0.7922
C15A C -0.4667(4) -0.1676(5) -0.6257(3)
H8A H -0.5602 -0.1748 -0.6577
C16A C -0.4041(4) -0.1313(5) -0.4972(3)
H9A H -0.4565 -0.1146 -0.4429
C17A C -0.2432(3) -0.4918(3) 0.0012(3)
C18A C -0.2043(3) -0.5872(3) -0.0596(3)
H10A H -0.1321 -0.5576 -0.1010
C19A C -0.2716(3) -0.7257(3) -0.0593(3)
H11A H -0.2449 -0.7903 -0.1001
C20A C -0.3777(3) -0.7686(3) 0.0008(3)
H12A H -0.4234 -0.8627 0.0009
C21A C -0.4178(4) -0.6748(3) 0.0611(3)
H13A H -0.4910 -0.7049 0.1013
C22A C -0.3488(4) -0.5358(3) 0.0617(3)
H14A H -0.3745 -0.4712 0.1037
C23A C 0.1595(3) 0.8662(3) 0.8213(3)
C24A C 0.1450(4) 0.7606(3) 0.7175(3)
C25A C 0.2577(3) 0.7601(3) 0.6773(3)
C26A C 0.4048(4) 0.8617(3) 0.7384(3)
loop_
_geom_bond_atom_site_label_1
_geom_bond_atom_site_label_2
_geom_bond_site_symmetry_1
_geom_bond_site_symmetry_2
Mn1 N1 1_555 1_555
Ni1 S1 1_555 1_555
S1 C24 1_555 1_555
S2 Ni1 1_555 1_555
N1 C1 1_555 1_555
N2 Mn1 1_555 1_555
N3 Mn1 1_555 1_555
N4 C26 1_555 1_555
C1 C2 1_555 1_555
C2 H1 1_555 1_555
C3 C2 1_555 1_555
H2 C3 1_555 1_555
C4 N1 1_555 1_555
C5 C4 1_555 1_555
C6 N2 1_555 1_555
C7 C6 1_555 1_555
H3 C7 1_555 1_555
C8 C7 1_555 1_555
H4 C8 1_555 1_555
C9 N2 1_555 1_555
C10 C1 1_555 1_555
C11 C5 1_555 1_555
C12 C11 1_555 1_555
H5 C12 1_555 1_555
C13 C12 1_555 1_555
H6 C13 1_555 1_555
C14 C13 1_555 1_555
H7 C14 1_555 1_555
C15 C14 1_555 1_555
H8 C15 1_555 1_555
C16 C11 1_555 1_555
H9 C16 1_555 1_555
C17 C10 1_555 1_555
C18 C17 1_555 1_555
H10 C18 1_555 1_555
C19 C18 1_555 1_555
H11 C19 1_555 1_555
C20 C19 1_555 1_555
H12 C20 1_555 1_555
C21 C20 1_555 1_555
H13 C21 1_555 1_555
C22 C17 1_555 1_555
H14 C22 1_555 1_555
C23 N3 1_555 1_555
C24 C23 1_555 1_555
C25 S2 1_555 1_555
C26 C25 1_555 1_555
Mn1_2 N3A_2 1_555 1_555
S1A Ni1 1_555 1_555
S2A Ni1 1_555 1_555
N1A Mn1 1_555 1_555
N2A Mn1 1_555 1_555
N3A Mn1 1_555 1_555
N3A_2 C23A 1_555 1_555
N4A C26A 1_555 1_555
C1A N1A 1_555 1_555
C2A C1A 1_555 1_555
H1A C2A 1_555 1_555
C3A C2A 1_555 1_555
H2A C3A 1_555 1_555
C4A N1A 1_555 1_555
C5A C4A 1_555 1_555
C6A N2A 1_555 1_555
C7A C6A 1_555 1_555
H3A C7A 1_555 1_555
C8A C7A 1_555 1_555
H4A C8A 1_555 1_555
C9A C10 1_555 1_555
C10A C9 1_555 1_555
C11A C5A 1_555 1_555
C12A C11A 1_555 1_555
H5A C12A 1_555 1_555
C13A C12A 1_555 1_555
H6A C13A 1_555 1_555
C14A C13A 1_555 1_555
H7A C14A 1_555 1_555
C15A C14A 1_555 1_555
H8A C15A 1_555 1_555
C16A C11A 1_555 1_555
H9A C16A 1_555 1_555
C17A C10A 1_555 1_555
C18A C17A 1_555 1_555
H10A C18A 1_555 1_555
C19A C18A 1_555 1_555
H11A C19A 1_555 1_555
C20A C19A 1_555 1_555
H12A C20A 1_555 1_555
C21A C20A 1_555 1_555
H13A C21A 1_555 1_555
C22A C17A 1_555 1_555
H14A C22A 1_555 1_555
C23A C24A 1_555 1_555
C24A S1A 1_555 1_555
C25A S2A 1_555 1_555
C26A C25A 1_555 1_555
C3 C4 1_555 1_555
C5 C6 1_555 1_555
C8 C9 1_555 1_555
C15 C16 1_555 1_555
C21 C22 1_555 1_555
C24 C25 1_555 1_555
N2A C9A 1_555 1_555
C1A C10A 1_555 1_555
C3A C4A 1_555 1_555
C5A C6A 1_555 1_555
C8A C9A 1_555 1_555
C15A C16A 1_555 1_555
C21A C22A 1_555 1_555
C24A C25A 1_555 1_555

#END
