
#######################################################################
#
#                 Cambridge Crystallographic Data Centre
#                                CCDC 
#
#######################################################################
#
# If this CIF has been generated from an entry in the Cambridge 
# Structural Database, then it will include bibliographic, chemical, 
# crystal, experimental, refinement or atomic coordinate data resulting 
# from the CCDC's data processing and validation procedures.
#
#######################################################################

data_HAYDUI
_symmetry_cell_setting           monoclinic
_symmetry_space_group_name_H-M   'C 2/c'
_symmetry_Int_Tables_number      15
_space_group_name_Hall           '-C 2yn'
loop_
_symmetry_equiv_pos_site_id
_symmetry_equiv_pos_as_xyz
1 x,y,z
2 -x,y,1/2-z
3 1/2+x,1/2+y,z
4 1/2-x,1/2+y,1/2-z
5 -x,-y,-z
6 x,-y,1/2+z
7 1/2-x,1/2-y,-z
8 1/2+x,1/2-y,1/2+z
_cell_length_a                   22.837(5)
_cell_length_b                   5.9004(12)
_cell_length_c                   16.012(3)
_cell_angle_alpha                90
_cell_angle_beta                 117.08(3)
_cell_angle_gamma                90
_cell_volume                     1921.04
loop_
_atom_site_label
_atom_site_type_symbol
_atom_site_fract_x
_atom_site_fract_y
_atom_site_fract_z
C1 C 0.02165(11) 0.3388(4) 0.10470(15)
H1 H -0.0130 0.4089 0.0544
C2 C 0.05856(10) 0.1682(4) 0.09746(15)
H2 H 0.0543 0.1002 0.0426
C3 C 0.09174(10) 0.2535(3) 0.24453(14)
H3 H 0.1152 0.2508 0.3096
C4 C 0.15012(12) -0.0734(4) 0.21863(17)
H4 H 0.1281 -0.2080 0.2249
H5 H 0.1856 -0.0379 0.2800
C5 C 0.17867(10) -0.1230(3) 0.15169(14)
C6 C 0.16437(12) -0.3221(4) 0.10166(18)
H6 H 0.1358 -0.4253 0.1077
C7 C 0.19175(12) -0.3717(4) 0.04240(18)
H7 H 0.1810 -0.5075 0.0093
C8 C 0.23486(8) -0.2230(3) 0.03141(12)
C9 C 0.24832(10) -0.0205(4) 0.08169(15)
H8 H 0.2766 0.0840 0.0756
C10 C 0.22065(11) 0.0283(4) 0.14005(16)
H9 H 0.2303 0.1653 0.1722
Cl1 Cl -0.07645(3) 0.79888(10) 0.12779(4)
N1 N 0.04281(8) 0.3932(3) 0.19687(12)
N2 N 0.10332(8) 0.1157(3) 0.18714(12)
Zn1 Zn 0.0000 0.61108(5) 0.2500
C1F C 0.47835(11) -0.8388(4) -0.10470(15)
H1F H 0.5130 -0.9089 -0.0544
C2F C 0.44144(10) -0.6682(4) -0.09746(15)
H2F H 0.4457 -0.6002 -0.0426
C3F C 0.40826(10) -0.7535(3) -0.24453(14)
H3F H 0.3848 -0.7508 -0.3096
C4F C 0.34988(12) -0.4266(4) -0.21863(17)
H4F H 0.3719 -0.2920 -0.2249
H5F H 0.3144 -0.4621 -0.2800
C5F C 0.32133(10) -0.3770(3) -0.15169(14)
C6F C 0.33563(12) -0.1779(4) -0.10166(18)
H6F H 0.3642 -0.0747 -0.1077
C7F C 0.30825(12) -0.1283(4) -0.04240(18)
H7F H 0.3190 0.0075 -0.0093
C8F C 0.26514(8) -0.2770(3) -0.03141(12)
C9F C 0.25168(10) -0.4795(4) -0.08169(15)
H8F H 0.2234 -0.5840 -0.0756
C10F C 0.27935(11) -0.5283(4) -0.14005(16)
H9F H 0.2697 -0.6653 -0.1722
Cl1A Cl 0.07645(3) 0.79888(10) 0.37221(4)
N1F N 0.45719(8) -0.8932(3) -0.19687(12)
N1A N -0.04281(8) 0.3932(3) 0.30313(12)
N2F N 0.39668(8) -0.6157(3) -0.18714(12)
Zn1F Zn 0.5000 -1.11108(5) -0.2500
loop_
_geom_bond_atom_site_label_1
_geom_bond_atom_site_label_2
_geom_bond_site_symmetry_1
_geom_bond_site_symmetry_2
C1 H1 1_555 1_555
C2 C1 1_555 1_555
H2 C2 1_555 1_555
C3 H3 1_555 1_555
C4 H4 1_555 1_555
H5 C4 1_555 1_555
C5 C4 1_555 1_555
C6 C5 1_555 1_555
H6 C6 1_555 1_555
C7 C6 1_555 1_555
H7 C7 1_555 1_555
C8 C7 1_555 1_555
C9 C8 1_555 1_555
H8 C9 1_555 1_555
C10 C5 1_555 1_555
H9 C10 1_555 1_555
Cl1 Zn1 1_555 1_555
N1 C1 1_555 1_555
N2 C2 1_555 1_555
Zn1 N1 1_555 1_555
C1F H1F 1_555 1_555
C2F C1F 1_555 1_555
H2F C2F 1_555 1_555
C3F H3F 1_555 1_555
C4F H4F 1_555 1_555
H5F C4F 1_555 1_555
C5F C4F 1_555 1_555
C6F C5F 1_555 1_555
H6F C6F 1_555 1_555
C7F C6F 1_555 1_555
H7F C7F 1_555 1_555
C8F C8 1_555 1_555
C9F C8F 1_555 1_555
H8F C9F 1_555 1_555
C10F C5F 1_555 1_555
H9F C10F 1_555 1_555
Cl1A Zn1 1_555 1_555
N1F C1F 1_555 1_555
N1A Zn1 1_555 1_555
N2F C2F 1_555 1_555
Zn1F N1F 1_555 1_555
C3 N1 1_555 1_555
C3 N2 1_555 1_555
C4 N2 1_555 1_555
C9 C10 1_555 1_555
C3F N1F 1_555 1_555
C3F N2F 1_555 1_555
C4F N2F 1_555 1_555
C7F C8F 1_555 1_555
C9F C10F 1_555 1_555

#END
