
#######################################################################
#
#                 Cambridge Crystallographic Data Centre
#                                CCDC 
#
#######################################################################
#
# If this CIF has been generated from an entry in the Cambridge 
# Structural Database, then it will include bibliographic, chemical, 
# crystal, experimental, refinement or atomic coordinate data resulting 
# from the CCDC's data processing and validation procedures.
#
#######################################################################

data_HAYDUH
_symmetry_cell_setting           triclinic
_symmetry_space_group_name_H-M   'P -1'
_symmetry_Int_Tables_number      2
_space_group_name_Hall           '-P 1'
loop_
_symmetry_equiv_pos_site_id
_symmetry_equiv_pos_as_xyz
1 x,y,z
2 -x,-y,-z
_cell_length_a                   9.565
_cell_length_b                   9.829
_cell_length_c                   18.2720(10)
_cell_angle_alpha                91.0570(10)
_cell_angle_beta                 104.607(2)
_cell_angle_gamma                118.210(2)
_cell_volume                     1445.65
loop_
_atom_site_label
_atom_site_type_symbol
_atom_site_fract_x
_atom_site_fract_y
_atom_site_fract_z
Cr1 Cr 0.31314(7) 0.55887(7) 0.25408(3)
Na1 Na -0.01651(18) 0.90730(17) 0.25693(9)
O1 O 0.3444(3) 0.7416(3) 0.31804(15)
O2 O 0.1062(3) 0.5546(3) 0.19689(15)
O3 O -0.0348(3) 0.6824(3) 0.19800(17)
O4 O 0.2165(4) 0.8780(4) 0.32831(19)
O5 O 0.5336(3) 0.5970(3) 0.31561(15)
O6 O 0.4420(3) 0.6933(3) 0.18906(15)
O7 O 0.7039(4) 0.8290(4) 0.18475(17)
O8 O 0.8022(3) 0.7510(4) 0.32533(18)
O9 O 0.1957(3) 0.4114(3) 0.31730(16)
O10 O 0.2607(3) 0.3650(3) 0.19236(15)
O11 O 0.1278(4) 0.1046(3) 0.18827(19)
O12 O 0.0525(4) 0.1543(3) 0.32006(17)
C1 C 0.2245(5) 0.7728(4) 0.2972(2)
C2 C 0.0842(5) 0.6620(4) 0.2241(2)
C3 C 0.6533(5) 0.6950(5) 0.2919(2)
C4 C 0.5972(5) 0.7440(5) 0.2150(2)
C5 C 0.1369(5) 0.2669(5) 0.2919(2)
C6 C 0.1757(5) 0.2372(5) 0.2174(2)
Cr1_2 Cr 1.31314(7) 0.55887(7) 0.25408(3)
Cr1_3 Cr -0.68686(7) 0.55887(7) 0.25408(3)
Cr1_4 Cr 0.31314(7) 1.55887(7) 0.25408(3)
Na1_2 Na 0.98349(18) 0.90730(17) 0.25693(9)
Na1_3 Na -0.01651(18) -0.09270(17) 0.25693(9)
O1_2 O 1.3444(3) 0.7416(3) 0.31804(15)
O2_2 O 1.1062(3) 0.5546(3) 0.19689(15)
O3_2 O 0.9652(3) 0.6824(3) 0.19800(17)
O4_2 O 1.2165(4) 0.8780(4) 0.32831(19)
O5_2 O -0.4664(3) 0.5970(3) 0.31561(15)
O5_3 O 1.5336(3) 0.5970(3) 0.31561(15)
O6_2 O -0.5580(3) 0.6933(3) 0.18906(15)
O6_3 O 1.4420(3) 0.6933(3) 0.18906(15)
O7_2 O -0.2961(4) 0.8290(4) 0.18475(17)
O8_2 O -0.1978(3) 0.7510(4) 0.32533(18)
O9_2 O 0.1957(3) 1.4114(3) 0.31730(16)
O9_3 O 1.1957(3) 0.4114(3) 0.31730(16)
O10_2 O 0.2607(3) 1.3650(3) 0.19236(15)
O10_3 O 1.2607(3) 0.3650(3) 0.19236(15)
O11_2 O 0.1278(4) 1.1046(3) 0.18827(19)
O11_3 O 1.1278(4) 1.1046(3) 0.18827(19)
O12_2 O 0.0525(4) 1.1543(3) 0.32006(17)
O12_3 O 1.0525(4) 1.1543(3) 0.32006(17)
C1_2 C 1.2245(5) 0.7728(4) 0.2972(2)
C2_2 C 1.0842(5) 0.6620(4) 0.2241(2)
C3_2 C -0.3467(5) 0.6950(5) 0.2919(2)
C4_2 C -0.4028(5) 0.7440(5) 0.2150(2)
C5_2 C 0.1369(5) 1.2669(5) 0.2919(2)
C6_2 C 0.1757(5) 1.2372(5) 0.2174(2)
Ni1 Ni 0.5000 0.0000 0.0000
N1 N 0.7139(4) 0.1992(4) 0.06313(19)
H1 H 0.6962 0.2834 0.0538
N2 N 0.4386(4) -0.0301(4) 0.10133(19)
H2 H 0.4643 -0.1044 0.1215
O13 O 0.6215(4) -0.1385(4) 0.03032(17)
C7 C 0.8512(6) 0.2430(6) -0.0398(3)
H3 H 0.9634 0.2890 -0.0464
H4 H 0.8082 0.3155 -0.0550
C8 C 0.8675(6) 0.2342(6) 0.0444(3)
H5 H 0.8965 0.1520 0.0586
H6 H 0.9594 0.3352 0.0752
C9 C 0.7266(6) 0.1852(5) 0.1452(2)
H7 H 0.8022 0.2892 0.1776
H8 H 0.7718 0.1147 0.1613
C10 C 0.5536(6) 0.1195(5) 0.1543(2)
H9 H 0.5574 0.1020 0.2078
H10 H 0.5136 0.1952 0.1429
C11 C 0.7395(6) 0.0888(6) -0.0942(3)
H11 H 0.7705 0.0101 -0.0752
H12 H 0.7566 0.1029 -0.1454
N1A N 0.2861(4) -0.1992(4) -0.06313(19)
H1A H 0.3038 -0.2834 -0.0538
N2A N 0.5614(4) 0.0301(4) -0.10133(19)
H2A H 0.5357 0.1044 -0.1215
O13A O 0.3785(4) 0.1385(4) -0.03032(17)
C7A C 0.1488(6) -0.2430(6) 0.0398(3)
H3A H 0.0366 -0.2890 0.0464
H4A H 0.1918 -0.3155 0.0550
C8A C 0.1325(6) -0.2342(6) -0.0444(3)
H5A H 0.1035 -0.1520 -0.0586
H6A H 0.0406 -0.3352 -0.0752
C9A C 0.2734(6) -0.1852(5) -0.1452(2)
H7A H 0.1978 -0.2892 -0.1776
H8A H 0.2282 -0.1147 -0.1613
C10A C 0.4464(6) -0.1195(5) -0.1543(2)
H9A H 0.4426 -0.1020 -0.2078
H10A H 0.4864 -0.1952 -0.1429
C11A C 0.2605(6) -0.0888(6) 0.0942(3)
H11A H 0.2295 -0.0101 0.0752
H12A H 0.2434 -0.1029 0.1454
Ni2 Ni 0.5000 0.0000 0.5000
N3 N 0.5767(5) 0.1885(4) 0.4547(2)
H13 H 0.6656 0.2661 0.4932
N4 N 0.6326(4) -0.0514(4) 0.4530(2)
H14 H 0.5579 -0.1229 0.4090
C12 C 0.3892(7) 0.2755(7) 0.4838(3)
H15 H 0.4793 0.3430 0.5306
H16 H 0.3269 0.3304 0.4638
C13 C 0.4659(7) 0.2543(6) 0.4243(3)
H17 H 0.3766 0.1831 0.3782
H18 H 0.5306 0.3566 0.4091
C14 C 0.6495(7) 0.1686(6) 0.3949(3)
H19 H 0.5600 0.1048 0.3472
H20 H 0.7229 0.2719 0.3831
C15 C 0.7460(6) 0.0895(6) 0.4250(3)
H21 H 0.8464 0.1601 0.4674
H22 H 0.7807 0.0579 0.3841
C16 C 0.2767(7) 0.1280(6) 0.5046(3)
H23 H 0.2177 0.1488 0.5368
H24 H 0.1926 0.0560 0.4574
N3A N 0.4233(5) -0.1885(4) 0.5453(2)
H13A H 0.3344 -0.2661 0.5068
N4A N 0.3674(4) 0.0514(4) 0.5470(2)
H14A H 0.4421 0.1229 0.5910
C12A C 0.6108(7) -0.2755(7) 0.5162(3)
H15A H 0.5207 -0.3430 0.4694
H16A H 0.6731 -0.3304 0.5362
C13A C 0.5341(7) -0.2543(6) 0.5757(3)
H17A H 0.6234 -0.1831 0.6218
H18A H 0.4694 -0.3566 0.5909
C14A C 0.3505(7) -0.1686(6) 0.6051(3)
H19A H 0.4400 -0.1048 0.6528
H20A H 0.2771 -0.2719 0.6169
C15A C 0.2540(6) -0.0895(6) 0.5750(3)
H21A H 0.1536 -0.1601 0.5326
H22A H 0.2193 -0.0579 0.6159
C16A C 0.7233(7) -0.1280(6) 0.4954(3)
H23A H 0.7823 -0.1488 0.4632
H24A H 0.8074 -0.0560 0.5426
O14 O 0.7005(4) 0.5054(4) 0.06753(18)
O15 O 0.3642(4) 0.3600(4) 0.06044(18)
O16 O 0.9033(6) 0.6030(6) 0.4343(2)
O17 O 0.1467(4) 0.5272(4) 0.44074(18)
loop_
_geom_bond_atom_site_label_1
_geom_bond_atom_site_label_2
_geom_bond_site_symmetry_1
_geom_bond_site_symmetry_2
Cr1 O1 1_555 1_555
Na1 O3 1_555 1_555
O1 C1 1_555 1_555
O2 Cr1 1_555 1_555
O3 C2 1_555 1_555
O4 Na1 1_555 1_555
O5 Cr1 1_555 1_555
O6 Cr1 1_555 1_555
O7 C4 1_555 1_555
O8 C3 1_555 1_555
O9 Cr1 1_555 1_555
O10 Cr1 1_555 1_555
O11 C6 1_555 1_555
O12 C5 1_555 1_555
C1 O4 1_555 1_555
C2 O2 1_555 1_555
C3 O5 1_555 1_555
C4 O6 1_555 1_555
C5 O9 1_555 1_555
C6 O10 1_555 1_555
Ni1 N1 1_555 1_555
N1 H1 1_555 1_555
N2 Ni1 1_555 1_555
H2 N2 1_555 1_555
O13 Ni1 1_555 1_555
C7 H3 1_555 1_555
H4 C7 1_555 1_555
C8 N1 1_555 1_555
H5 C8 1_555 1_555
H6 C8 1_555 1_555
C9 N1 1_555 1_555
H7 C9 1_555 1_555
H8 C9 1_555 1_555
C10 N2 1_555 1_555
H9 C10 1_555 1_555
H10 C10 1_555 1_555
C11 C7 1_555 1_555
H11 C11 1_555 1_555
H12 C11 1_555 1_555
Ni2 N3 1_555 1_555
N3 H13 1_555 1_555
N4 Ni2 1_555 1_555
H14 N4 1_555 1_555
C12 H15 1_555 1_555
H16 C12 1_555 1_555
C13 N3 1_555 1_555
H17 C13 1_555 1_555
H18 C13 1_555 1_555
C14 N3 1_555 1_555
H19 C14 1_555 1_555
H20 C14 1_555 1_555
C15 N4 1_555 1_555
H21 C15 1_555 1_555
H22 C15 1_555 1_555
C16 C12 1_555 1_555
H23 C16 1_555 1_555
H24 C16 1_555 1_555
Cr1_2 O1_2 1_555 1_555
Cr1_3 O5_2 1_555 1_555
Cr1_4 O9_2 1_555 1_555
Na1_2 O7 1_555 1_555
Na1_3 O11 1_555 1_555
O1_2 C1_2 1_555 1_555
O2_2 Cr1_2 1_555 1_555
O3_2 Na1_2 1_555 1_555
O4_2 Na1_2 1_555 1_555
O5_2 C3_2 1_555 1_555
O5_3 Cr1_2 1_555 1_555
O6_2 Cr1_3 1_555 1_555
O6_3 Cr1_2 1_555 1_555
O7_2 Na1 1_555 1_555
O8_2 Na1 1_555 1_555
O9_2 C5_2 1_555 1_555
O9_3 Cr1_2 1_555 1_555
O10_2 Cr1_4 1_555 1_555
O10_3 Cr1_2 1_555 1_555
O11_2 Na1 1_555 1_555
O11_3 Na1_2 1_555 1_555
O12_2 Na1 1_555 1_555
O12_3 Na1_2 1_555 1_555
C1_2 O4_2 1_555 1_555
C2_2 O2_2 1_555 1_555
C3_2 O8_2 1_555 1_555
C4_2 O6_2 1_555 1_555
C5_2 O12_2 1_555 1_555
C6_2 O10_2 1_555 1_555
N1A Ni1 1_555 1_555
H1A N1A 1_555 1_555
N2A Ni1 1_555 1_555
H2A N2A 1_555 1_555
O13A Ni1 1_555 1_555
C7A H3A 1_555 1_555
H4A C7A 1_555 1_555
C8A N1A 1_555 1_555
H5A C8A 1_555 1_555
H6A C8A 1_555 1_555
C9A N1A 1_555 1_555
H7A C9A 1_555 1_555
H8A C9A 1_555 1_555
C10A N2A 1_555 1_555
H9A C10A 1_555 1_555
H10A C10A 1_555 1_555
C11A N2 1_555 1_555
H11A C11A 1_555 1_555
H12A C11A 1_555 1_555
N3A Ni2 1_555 1_555
H13A N3A 1_555 1_555
N4A Ni2 1_555 1_555
H14A N4A 1_555 1_555
C12A H15A 1_555 1_555
H16A C12A 1_555 1_555
C13A N3A 1_555 1_555
H17A C13A 1_555 1_555
H18A C13A 1_555 1_555
C14A N3A 1_555 1_555
H19A C14A 1_555 1_555
H20A C14A 1_555 1_555
C15A N4A 1_555 1_555
H21A C15A 1_555 1_555
H22A C15A 1_555 1_555
C16A N4 1_555 1_555
H23A C16A 1_555 1_555
H24A C16A 1_555 1_555
O8 Na1_2 1_555 1_555
O12 Na1_3 1_555 1_555
C1 C2 1_555 1_555
C3 C4 1_555 1_555
C5 C6 1_555 1_555
C7 C8 1_555 1_555
C9 C10 1_555 1_555
C11 N2A 1_555 1_555
C12 C13 1_555 1_555
C14 C15 1_555 1_555
C16 N4A 1_555 1_555
O3_2 C2_2 1_555 1_555
O7_2 C4_2 1_555 1_555
O11_2 C6_2 1_555 1_555
C1_2 C2_2 1_555 1_555
C3_2 C4_2 1_555 1_555
C5_2 C6_2 1_555 1_555
C7A C8A 1_555 1_555
C7A C11A 1_555 1_555
C9A C10A 1_555 1_555
C12A C13A 1_555 1_555
C12A C16A 1_555 1_555
C14A C15A 1_555 1_555

#END
