
#######################################################################
#
#                 Cambridge Crystallographic Data Centre
#                                CCDC 
#
#######################################################################
#
# If this CIF has been generated from an entry in the Cambridge 
# Structural Database, then it will include bibliographic, chemical, 
# crystal, experimental, refinement or atomic coordinate data resulting 
# from the CCDC's data processing and validation procedures.
#
#######################################################################

data_HAYFIY
_symmetry_cell_setting           triclinic
_symmetry_space_group_name_H-M   'P -1'
_symmetry_Int_Tables_number      2
_space_group_name_Hall           '-P 1'
loop_
_symmetry_equiv_pos_site_id
_symmetry_equiv_pos_as_xyz
1 x,y,z
2 -x,-y,-z
_cell_length_a                   7.6070(6)
_cell_length_b                   8.0621(8)
_cell_length_c                   9.1509(9)
_cell_angle_alpha                102.7620(10)
_cell_angle_beta                 97.4950(10)
_cell_angle_gamma                106.073(2)
_cell_volume                     514.841
loop_
_atom_site_label
_atom_site_type_symbol
_atom_site_fract_x
_atom_site_fract_y
_atom_site_fract_z
Cd1 Cd 0.5000 0.5000 0.5000
N1 N 0.2660(3) 0.6294(3) 0.4304(3)
N2 N 0.3282(3) 0.8094(3) 0.4926(3)
N3 N 0.2042(3) 0.8776(3) 0.4406(3)
N4 N 0.0567(3) 0.7454(3) 0.3421(3)
N5 N -0.3041(3) -0.1036(3) -0.0476(3)
N6 N -0.4348(3) -0.3262(3) -0.2564(3)
O1 O 0.6896(3) 0.7364(3) 0.4031(3)
H1 H 0.7079 0.8454 0.4492
H2 H 0.7919 0.7268 0.3806
C1 C 0.0999(4) 0.5951(4) 0.3384(3)
C2 C -0.0149(4) 0.4151(4) 0.2423(3)
C3 C 0.0003(4) 0.2630(4) 0.2830(4)
H3 H 0.0763 0.2756 0.3757
C4 C -0.0950(4) 0.0934(4) 0.1889(3)
H4 H -0.0818 -0.0071 0.2173
C5 C -0.2105(4) 0.0742(4) 0.0518(3)
C6 C -0.2325(4) 0.2233(4) 0.0103(4)
H5 H -0.3123 0.2100 -0.0806
C7 C -0.1346(4) 0.3928(4) 0.1053(4)
H6 H -0.1489 0.4931 0.0773
C8 C -0.3743(4) -0.1495(4) -0.2001(3)
H7 H -0.3793 -0.0683 -0.2573
C9 C -0.4018(4) -0.3952(4) -0.1350(4)
H8 H -0.4304 -0.5167 -0.1406
C10 C -0.3218(4) -0.2606(4) -0.0065(4)
H9 H -0.2857 -0.2717 0.0910
Cd1_2 Cd -0.5000 -0.5000 -0.5000
Cd1_3 Cd 1.5000 1.5000 1.5000
N1_2 N 1.2660(3) 1.6294(3) 1.4304(3)
N1A N 0.7340(3) 0.3706(3) 0.5696(3)
N2_2 N 1.3282(3) 1.8094(3) 1.4926(3)
N3_2 N 1.2042(3) 1.8776(3) 1.4406(3)
N4_2 N 1.0567(3) 1.7454(3) 1.3421(3)
N5_2 N 0.6959(3) 0.8964(3) 0.9524(3)
N6_2 N 0.5652(3) 0.6738(3) 0.7436(3)
N6A N 0.4348(3) 0.3262(3) 0.2564(3)
O1A O 0.3104(3) 0.2636(3) 0.5969(3)
H1A H 0.2921 0.1546 0.5508
H2A H 0.2081 0.2732 0.6194
C1_2 C 1.0999(4) 1.5951(4) 1.3384(3)
C2_2 C 0.9851(4) 1.4151(4) 1.2423(3)
C3_2 C 1.0003(4) 1.2630(4) 1.2830(4)
H3_2 H 1.0763 1.2756 1.3757
C4_2 C 0.9050(4) 1.0934(4) 1.1889(3)
H4_2 H 0.9182 0.9929 1.2173
C5_2 C 0.7895(4) 1.0742(4) 1.0518(3)
C6_2 C 0.7675(4) 1.2233(4) 1.0103(4)
H5_2 H 0.6877 1.2100 0.9194
C7_2 C 0.8654(4) 1.3928(4) 1.1053(4)
H6_2 H 0.8511 1.4931 1.0773
C8_2 C 0.6257(4) 0.8505(4) 0.7999(3)
H7_2 H 0.6207 0.9317 0.7427
C9_2 C 0.5982(4) 0.6048(4) 0.8650(4)
H8_2 H 0.5696 0.4833 0.8594
C10_2 C 0.6782(4) 0.7394(4) 0.9935(4)
H9_2 H 0.7143 0.7283 1.0910
loop_
_geom_bond_atom_site_label_1
_geom_bond_atom_site_label_2
_geom_bond_site_symmetry_1
_geom_bond_site_symmetry_2
Cd1 N1 1_555 1_555
N1 N2 1_555 1_555
N2 N3 1_555 1_555
N3 N4 1_555 1_555
N4 C1 1_555 1_555
N5 C5 1_555 1_555
N6 C8 1_555 1_555
O1 Cd1 1_555 1_555
H1 O1 1_555 1_555
H2 O1 1_555 1_555
C1 N1 1_555 1_555
C2 C1 1_555 1_555
C3 C2 1_555 1_555
H3 C3 1_555 1_555
C4 C3 1_555 1_555
H4 C4 1_555 1_555
C5 C4 1_555 1_555
C6 C5 1_555 1_555
H5 C6 1_555 1_555
C7 C2 1_555 1_555
H6 C7 1_555 1_555
C8 N5 1_555 1_555
H7 C8 1_555 1_555
C9 N6 1_555 1_555
H8 C9 1_555 1_555
C10 N5 1_555 1_555
H9 C10 1_555 1_555
Cd1_2 N6 1_555 1_555
Cd1_3 N1_2 1_555 1_555
N1_2 N2_2 1_555 1_555
N1A Cd1 1_555 1_555
N2_2 N3_2 1_555 1_555
N3_2 N4_2 1_555 1_555
N4_2 C1_2 1_555 1_555
N5_2 C5_2 1_555 1_555
N6_2 Cd1 1_555 1_555
N6A Cd1 1_555 1_555
O1A Cd1 1_555 1_555
H1A O1A 1_555 1_555
H2A O1A 1_555 1_555
C1_2 N1_2 1_555 1_555
C2_2 C1_2 1_555 1_555
C3_2 C2_2 1_555 1_555
H3_2 C3_2 1_555 1_555
C4_2 C3_2 1_555 1_555
H4_2 C4_2 1_555 1_555
C5_2 C4_2 1_555 1_555
C6_2 C5_2 1_555 1_555
H5_2 C6_2 1_555 1_555
C7_2 C2_2 1_555 1_555
H6_2 C7_2 1_555 1_555
C8_2 N5_2 1_555 1_555
H7_2 C8_2 1_555 1_555
C9_2 N6_2 1_555 1_555
H8_2 C9_2 1_555 1_555
C10_2 N5_2 1_555 1_555
H9_2 C10_2 1_555 1_555
C6 C7 1_555 1_555
C9 C10 1_555 1_555
N6_2 C8_2 1_555 1_555
C6_2 C7_2 1_555 1_555
C9_2 C10_2 1_555 1_555

#END
