
#######################################################################
#
#                 Cambridge Crystallographic Data Centre
#                                CCDC 
#
#######################################################################
#
# If this CIF has been generated from an entry in the Cambridge 
# Structural Database, then it will include bibliographic, chemical, 
# crystal, experimental, refinement or atomic coordinate data resulting 
# from the CCDC's data processing and validation procedures.
#
#######################################################################

data_HAYFAP
_symmetry_cell_setting           monoclinic
_symmetry_space_group_name_H-M   'P 21/c'
_symmetry_Int_Tables_number      14
_space_group_name_Hall           '-P 2ybc'
loop_
_symmetry_equiv_pos_site_id
_symmetry_equiv_pos_as_xyz
1 x,y,z
2 -x,1/2+y,1/2-z
3 -x,-y,-z
4 x,1/2-y,1/2+z
_cell_length_a                   9.389
_cell_length_b                   17.4770(10)
_cell_length_c                   16.3760(10)
_cell_angle_alpha                90
_cell_angle_beta                 103.1850(10)
_cell_angle_gamma                90
_cell_volume                     2616.33
loop_
_atom_site_label
_atom_site_type_symbol
_atom_site_fract_x
_atom_site_fract_y
_atom_site_fract_z
Cu1 Cu 0.22014(9) 0.29599(6) 0.03279(6)
O1 O 0.2704(6) 0.2260(4) -0.0538(5)
N1 N 0.3675(6) 0.3765(4) 0.0162(4)
H1 H 0.4564 0.3652 0.0482
H2 H 0.3738 0.3772 -0.0378
N2 N 0.3227(6) 0.2366(4) 0.1466(5)
H3 H 0.2786 0.1913 0.1498
H4 H 0.4180 0.2282 0.1485
N3 N 0.1590(6) 0.3722(3) 0.1079(4)
N4 N 0.0060(7) 0.2681(5) -0.0003(5)
H5 H -0.0255 0.2703 -0.0564
H6 H -0.0069 0.2200 0.0163
C1 C 0.3177(8) 0.4547(5) 0.0409(5)
H7 H 0.4010 0.4888 0.0566
H8 H 0.2484 0.4772 -0.0061
C2 C 0.2469(12) 0.4437(6) 0.1139(8)
H9 H 0.3225 0.4425 0.1653
H10 H 0.1840 0.4871 0.1169
C3 C 0.3056(8) 0.2881(5) 0.2171(6)
H11 H 0.2968 0.2574 0.2650
H12 H 0.3917 0.3201 0.2338
C4 C 0.1826(14) 0.3340(7) 0.1927(7)
H13 H 0.1872 0.3736 0.2347
H14 H 0.0972 0.3029 0.1933
C5 C 0.0061(9) 0.3854(6) 0.0753(9)
H15 H -0.0353 0.4045 0.1205
H16 H -0.0046 0.4254 0.0332
C6 C -0.0776(8) 0.3210(6) 0.0388(6)
H17 H -0.1616 0.3387 -0.0031
H18 H -0.1135 0.2942 0.0819
Cr1 Cr 0.77537(11) 0.31213(7) -0.24226(8)
Na1 Na 1.2781(2) 0.48956(17) -0.22895(18)
O2 O 0.9258(5) 0.3232(3) -0.3075(3)
O3 O 0.9085(5) 0.3812(3) -0.1625(3)
O4 O 1.1295(5) 0.3916(3) -0.3073(4)
O5 O 1.1094(5) 0.4507(3) -0.1524(3)
O6 O 0.6624(5) 0.3994(3) -0.3023(3)
O7 O 0.6279(5) 0.3185(3) -0.1744(3)
O8 O 0.4752(5) 0.4734(3) -0.2954(4)
O9 O 0.4499(5) 0.3958(3) -0.1538(3)
O10 O 0.6606(5) 0.2377(3) -0.3197(3)
O11 O 0.8686(5) 0.2207(3) -0.1847(3)
O12 O 0.6378(5) 0.1106(3) -0.3391(3)
O13 O 0.8596(6) 0.0917(3) -0.1966(4)
C7 C 1.0297(8) 0.3711(5) -0.2761(5)
C8 C 1.0171(8) 0.4053(4) -0.1894(5)
C9 C 0.5585(8) 0.4215(4) -0.2691(5)
C10 C 0.5409(8) 0.3767(5) -0.1930(5)
C11 C 0.6927(7) 0.1690(6) -0.3005(5)
C12 C 0.8202(7) 0.1563(6) -0.2200(5)
Na1_2 Na 0.2781(2) 0.48956(17) -0.22895(18)
Na1A Na 0.7219(2) -0.01044(17) -0.27105(18)
O8_2 O 1.4752(5) 0.4734(3) -0.2954(4)
O9_2 O 1.4499(5) 0.3958(3) -0.1538(3)
O12A O 1.3622(5) 0.6106(3) -0.1609(3)
O13A O 1.1404(6) 0.5917(3) -0.3034(4)
O14 O 0.1433(15) 0.4045(7) 0.4157(11)
O15 O 0.761(3) 0.1136(8) 0.0216(7)
O16 O 0.5538(7) 0.2304(5) -0.0472(5)
loop_
_geom_bond_atom_site_label_1
_geom_bond_atom_site_label_2
_geom_bond_site_symmetry_1
_geom_bond_site_symmetry_2
Cu1 O1 1_555 1_555
N1 Cu1 1_555 1_555
H1 N1 1_555 1_555
H2 N1 1_555 1_555
N2 Cu1 1_555 1_555
H3 N2 1_555 1_555
H4 N2 1_555 1_555
N3 Cu1 1_555 1_555
N4 Cu1 1_555 1_555
H5 N4 1_555 1_555
H6 N4 1_555 1_555
C1 N1 1_555 1_555
H7 C1 1_555 1_555
H8 C1 1_555 1_555
C2 N3 1_555 1_555
H9 C2 1_555 1_555
H10 C2 1_555 1_555
C3 N2 1_555 1_555
H11 C3 1_555 1_555
H12 C3 1_555 1_555
C4 N3 1_555 1_555
H13 C4 1_555 1_555
H14 C4 1_555 1_555
C5 N3 1_555 1_555
H15 C5 1_555 1_555
H16 C5 1_555 1_555
C6 N4 1_555 1_555
H17 C6 1_555 1_555
H18 C6 1_555 1_555
Cr1 O2 1_555 1_555
Na1 O4 1_555 1_555
O2 C7 1_555 1_555
O3 Cr1 1_555 1_555
O4 C7 1_555 1_555
O5 Na1 1_555 1_555
O6 Cr1 1_555 1_555
O7 Cr1 1_555 1_555
O8 C9 1_555 1_555
O9 C10 1_555 1_555
O10 Cr1 1_555 1_555
O11 Cr1 1_555 1_555
O12 C11 1_555 1_555
O13 C12 1_555 1_555
C7 C8 1_555 1_555
C8 O3 1_555 1_555
C9 O6 1_555 1_555
C10 O7 1_555 1_555
C11 O10 1_555 1_555
C12 O11 1_555 1_555
Na1_2 O8 1_555 1_555
Na1A O12 1_555 1_555
O8_2 Na1 1_555 1_555
O9_2 Na1 1_555 1_555
O12A Na1 1_555 1_555
O13A Na1 1_555 1_555
C1 C2 1_555 1_555
C3 C4 1_555 1_555
C5 C6 1_555 1_555
O5 C8 1_555 1_555
O9 Na1_2 1_555 1_555
O13 Na1A 1_555 1_555
C9 C10 1_555 1_555
C11 C12 1_555 1_555

#END
