
#######################################################################
#
#                 Cambridge Crystallographic Data Centre
#                                CCDC 
#
#######################################################################
#
# If this CIF has been generated from an entry in the Cambridge 
# Structural Database, then it will include bibliographic, chemical, 
# crystal, experimental, refinement or atomic coordinate data resulting 
# from the CCDC's data processing and validation procedures.
#
#######################################################################

data_HAYFAO
_symmetry_cell_setting           monoclinic
_symmetry_space_group_name_H-M   'P 21/c'
_symmetry_Int_Tables_number      14
_space_group_name_Hall           '-P 2ybc'
loop_
_symmetry_equiv_pos_site_id
_symmetry_equiv_pos_as_xyz
1 x,y,z
2 -x,1/2+y,1/2-z
3 -x,-y,-z
4 x,1/2-y,1/2+z
_cell_length_a                   9.7366(13)
_cell_length_b                   10.0527(9)
_cell_length_c                   15.6947(15)
_cell_angle_alpha                90
_cell_angle_beta                 102.367(8)
_cell_angle_gamma                90
_cell_volume                     1500.54
loop_
_atom_site_label
_atom_site_type_symbol
_atom_site_fract_x
_atom_site_fract_y
_atom_site_fract_z
Cu1 Cu 0.13190(8) 0.08143(9) 0.00533(5)
Cu2 Cu 0.50000 0.00000 0.00000
O1 O 0.4206(5) 0.0269(5) 0.1023(3)
N1 N 0.2563(5) 0.1878(6) 0.0973(3)
C1 C 0.3879(7) 0.1415(7) 0.1318(4)
C2 C 0.4789(7) 0.2136(8) 0.1962(4)
C3 C 0.4326(8) 0.3279(9) 0.2285(5)
C4 C 0.2979(8) 0.3756(8) 0.1936(5)
C5 C 0.2174(7) 0.3043(8) 0.1284(5)
Cl1 Cl 0.05306(22) 0.36098(25) 0.07573(18)
O2 O 0.2358(5) 0.1203(5) -0.0822(3)
N2 N 0.4623(5) 0.1872(6) -0.0398(3)
C6 C 0.3278(7) 0.2146(7) -0.0795(4)
C7 C 0.2938(8) 0.3415(8) -0.1150(5)
C8 C 0.3972(9) 0.4324(9) -0.1145(5)
C9 C 0.5360(8) 0.4018(7) -0.0751(5)
C10 C 0.5604(7) 0.2791(8) -0.0393(4)
Cl2 Cl 0.72830(19) 0.23560(24) 0.01650(16)
O3 O 0.0149(5) 0.0056(5) 0.0774(3)
C11 C 0.0341(10) 0.0008(10) 0.1681(5)
C12 C 0.0937(11) -0.1238(16) 0.2050(7)
O4 O 0.2211(11) -0.1462(14) 0.2011(6)
H1 H 0.5733 0.1828 0.2177
H2 H 0.4935 0.3751 0.2749
H3 H 0.2628 0.4553 0.2151
H4 H 0.1975 0.3639 -0.1390
H5 H 0.3749 0.5173 -0.1420
H6 H 0.6112 0.4643 -0.0728
H7 H -0.0555 0.0158 0.1828
H8 H 0.0963 0.0711 0.1935
H9 H 0.0391 -0.1943 0.1731
H10 H 0.0853 -0.1303 0.2647
H11 H 0.2447 -0.0856 0.1692
Cu1B Cu -0.13190(8) -0.08143(9) -0.00533(5)
N1B N -0.2563(5) -0.1878(6) -0.0973(3)
C1B C -0.3879(7) -0.1415(7) -0.1318(4)
O1B O -0.4206(5) -0.0269(5) -0.1023(3)
Cu2B Cu -0.50000 0.00000 0.00000
N2B N -0.4623(5) -0.1872(6) 0.0398(3)
C6B C -0.3278(7) -0.2146(7) 0.0795(4)
O2B O -0.2358(5) -0.1203(5) 0.0822(3)
O3B O -0.0149(5) -0.0056(5) -0.0774(3)
C11B C -0.0341(10) -0.0008(10) -0.1681(5)
C12B C -0.0937(11) 0.1238(16) -0.2050(7)
O4B O -0.2211(11) 0.1462(14) -0.2011(6)
H11B H -0.2447 0.0856 -0.1692
H9B H -0.0391 0.1943 -0.1731
H10B H -0.0853 0.1303 -0.2647
H7B H 0.0555 -0.0158 -0.1828
H8B H -0.0963 -0.0711 -0.1935
C7B C -0.2938(8) -0.3415(8) 0.1150(5)
C8B C -0.3972(9) -0.4324(9) 0.1145(5)
C9B C -0.5360(8) -0.4018(7) 0.0751(5)
C10B C -0.5604(7) -0.2791(8) 0.0393(4)
Cl2B Cl -0.72830(19) -0.23560(24) -0.01650(16)
H6B H -0.6112 -0.4643 0.0728
H5B H -0.3749 -0.5173 0.1420
H4B H -0.1975 -0.3639 0.1390
C2B C -0.4789(7) -0.2136(8) -0.1962(4)
C3B C -0.4326(8) -0.3279(9) -0.2285(5)
C4B C -0.2979(8) -0.3756(8) -0.1936(5)
C5B C -0.2174(7) -0.3043(8) -0.1284(5)
Cl1B Cl -0.05306(22) -0.36098(25) -0.07573(18)
H3B H -0.2628 -0.4553 -0.2151
H2B H -0.4935 -0.3751 -0.2749
H1B H -0.5733 -0.1828 -0.2177
O1B_2 O 0.5794(5) -0.0269(5) -0.1023(3)
N2B_2 N 0.5377(5) -0.1872(6) 0.0398(3)
loop_
_geom_bond_atom_site_label_1
_geom_bond_atom_site_label_2
_geom_bond_site_symmetry_1
_geom_bond_site_symmetry_2
Cu1 N1 1_555 1_555
Cu2 O1 1_555 1_555
O1 C1 1_555 1_555
N1 C1 1_555 1_555
C1 C2 1_555 1_555
C2 C3 1_555 1_555
C3 C4 1_555 1_555
C4 C5 1_555 1_555
C5 N1 1_555 1_555
Cl1 C5 1_555 1_555
O2 Cu1 1_555 1_555
N2 Cu2 1_555 1_555
C6 O2 1_555 1_555
C7 C6 1_555 1_555
C8 C7 1_555 1_555
C9 C8 1_555 1_555
C10 N2 1_555 1_555
Cl2 C10 1_555 1_555
O3 Cu1 1_555 1_555
C11 O3 1_555 1_555
C12 C11 1_555 1_555
O4 C12 1_555 1_555
H1 C2 1_555 1_555
H2 C3 1_555 1_555
H3 C4 1_555 1_555
H4 C7 1_555 1_555
H5 C8 1_555 1_555
H6 C9 1_555 1_555
H7 C11 1_555 1_555
H8 C11 1_555 1_555
H9 C12 1_555 1_555
H10 C12 1_555 1_555
H11 O4 1_555 1_555
Cu1B Cu1 1_555 1_555
N1B Cu1B 1_555 1_555
C1B N1B 1_555 1_555
O1B C1B 1_555 1_555
Cu2B O1B 1_555 1_555
N2B Cu2B 1_555 1_555
C6B N2B 1_555 1_555
O2B Cu1B 1_555 1_555
O3B Cu1 1_555 1_555
C11B O3B 1_555 1_555
C12B C11B 1_555 1_555
O4B C12B 1_555 1_555
H11B O4B 1_555 1_555
H9B C12B 1_555 1_555
H10B C12B 1_555 1_555
H7B C11B 1_555 1_555
H8B C11B 1_555 1_555
C7B C6B 1_555 1_555
C8B C7B 1_555 1_555
C9B C8B 1_555 1_555
C10B N2B 1_555 1_555
Cl2B C10B 1_555 1_555
H6B C9B 1_555 1_555
H5B C8B 1_555 1_555
H4B C7B 1_555 1_555
C2B C1B 1_555 1_555
C3B C2B 1_555 1_555
C4B C3B 1_555 1_555
C5B N1B 1_555 1_555
Cl1B C5B 1_555 1_555
H3B C4B 1_555 1_555
H2B C3B 1_555 1_555
H1B C2B 1_555 1_555
O1B_2 Cu2 1_555 1_555
N2B_2 Cu2 1_555 1_555
N2 C6 1_555 1_555
C9 C10 1_555 1_555
O3 Cu1B 1_555 1_555
Cu1B O3B 1_555 1_555
C6B O2B 1_555 1_555
C9B C10B 1_555 1_555
C4B C5B 1_555 1_555

#END
