
#######################################################################
#
#                 Cambridge Crystallographic Data Centre
#                                CCDC 
#
#######################################################################
#
# If this CIF has been generated from an entry in the Cambridge 
# Structural Database, then it will include bibliographic, chemical, 
# crystal, experimental, refinement or atomic coordinate data resulting 
# from the CCDC's data processing and validation procedures.
#
#######################################################################

data_HAYGEU
_symmetry_cell_setting           triclinic
_symmetry_space_group_name_H-M   'P -1'
_symmetry_Int_Tables_number      2
_space_group_name_Hall           '-P 1'
loop_
_symmetry_equiv_pos_site_id
_symmetry_equiv_pos_as_xyz
1 x,y,z
2 -x,-y,-z
_cell_length_a                   6.9600(14)
_cell_length_b                   10.680(2)
_cell_length_c                   12.140(2)
_cell_angle_alpha                71.13(3)
_cell_angle_beta                 80.85(3)
_cell_angle_gamma                72.86(3)
_cell_volume                     813.949
loop_
_atom_site_label
_atom_site_type_symbol
_atom_site_fract_x
_atom_site_fract_y
_atom_site_fract_z
Ni1 Ni 0.74350(5) 0.58144(4) 0.75818(3)
O1 O 0.9425(3) 0.4013(2) 0.72950(18)
H1 H 0.941(4) 0.365(3) 0.678(2)
H2 H 1.061(2) 0.402(3) 0.735(3)
N1 N 0.5670(3) 0.6402(2) 0.61687(18)
N2 N 0.8900(3) 0.5369(2) 0.90372(19)
O2 O 0.9413(3) 0.6862(2) 0.64933(16)
O3 O 1.0590(3) 0.7198(2) 0.43479(17)
O4 O 0.7843(3) 0.8993(2) 0.50359(18)
H3 H 0.751(5) 0.950(3) 0.4265(13)
O5 O 0.5589(3) 0.7565(2) 0.78930(17)
O6 O 0.3325(4) 0.9484(2) 0.7062(2)
O7 O 0.5381(3) 0.4732(2) 0.83578(16)
O8 O 0.3126(3) 0.3884(2) 0.79435(16)
P1 P 0.89111(11) 0.74201(7) 0.52452(6)
C1 C 0.7040(4) 0.6611(3) 0.5099(2)
H4 H 0.6265 0.7184 0.4434
H5 H 0.7712 0.5734 0.4961
C2 C 0.4101(4) 0.7685(3) 0.6210(2)
H6 H 0.2789 0.7494 0.6360
H7 H 0.4121 0.8359 0.5451
C3 C 0.4357(4) 0.8292(3) 0.7123(3)
C4 C 0.4760(4) 0.5254(3) 0.6365(2)
H8 H 0.5658 0.4578 0.6015
H9 H 0.3500 0.5591 0.5990
C5 C 0.4367(4) 0.4582(3) 0.7655(2)
C6 C 1.0209(4) 0.6036(3) 0.9076(2)
H10 H 1.0387 0.6773 0.8441
C7 C 0.8689(4) 0.4333(3) 0.9969(2)
H11 H 0.7776 0.3845 0.9979
Ni1A Ni 1.25650(5) 0.41856(4) 1.24182(3)
O1A O 1.0575(3) 0.5987(2) 1.27050(18)
H1A H 1.059(4) 0.635(3) 1.322(2)
H2A H 0.939(2) 0.598(3) 1.265(3)
N1A N 1.4330(3) 0.3598(2) 1.38313(18)
N2A N 1.1100(3) 0.4631(2) 1.09628(19)
O2A O 1.0587(3) 0.3138(2) 1.35067(16)
O3A O 0.9410(3) 0.2802(2) 1.56521(17)
O4A O 1.2157(3) 0.1007(2) 1.49641(18)
H3A H 1.249(5) 0.050(3) 1.5735(13)
O5A O 1.4411(3) 0.2435(2) 1.21070(17)
O6A O 1.6675(4) 0.0516(2) 1.2938(2)
O7A O 1.4619(3) 0.5268(2) 1.16422(16)
O8A O 1.6874(3) 0.6116(2) 1.20565(16)
P1A P 1.10889(11) 0.25799(7) 1.47548(6)
C1A C 1.2960(4) 0.3389(3) 1.4901(2)
H4A H 1.3735 0.2816 1.5566
H5A H 1.2288 0.4266 1.5039
C2A C 1.5899(4) 0.2315(3) 1.3790(2)
H6A H 1.7211 0.2506 1.3640
H7A H 1.5879 0.1641 1.4549
C3A C 1.5643(4) 0.1708(3) 1.2877(3)
C4A C 1.5240(4) 0.4746(3) 1.3635(2)
H8A H 1.4342 0.5422 1.3985
H9A H 1.6500 0.4409 1.4010
C5A C 1.5633(4) 0.5418(3) 1.2345(2)
C6A C 0.9791(4) 0.3964(3) 1.0924(2)
H10A H 0.9613 0.3227 1.1559
C7A C 1.1311(4) 0.5667(3) 1.0031(2)
H11A H 1.2224 0.6155 1.0021
Ni2 Ni 0.5000 0.0000 1.0000
O9 O 0.4986(3) -0.0637(2) 1.17759(17)
H12 H 0.572(3) -0.031(3) 1.203(2)
H13 H 0.389(3) -0.059(3) 1.217(2)
O10 O 0.4043(3) 0.19860(19) 1.00314(17)
H14 H 0.386(5) 0.265(2) 0.9435(14)
H15 H 0.418(5) 0.221(3) 1.0604(16)
N3 N 0.1993(3) -0.0016(2) 1.0025(2)
C8 C 0.1268(4) -0.1065(3) 1.0662(3)
H16 H 0.2115 -0.1828 1.1137
C9 C 0.0703(4) 0.1054(3) 0.9362(3)
H17 H 0.1153 0.1812 0.8905
Ni2_2 Ni -0.5000 0.0000 1.0000
O9A O 0.5014(3) 0.0637(2) 0.82241(17)
H12A H 0.428(3) 0.031(3) 0.797(2)
H13A H 0.611(3) 0.059(3) 0.783(2)
O10A O 0.5957(3) -0.19860(19) 0.99686(17)
H14A H 0.614(5) -0.265(2) 1.0565(14)
H15A H 0.582(5) -0.221(3) 0.9396(16)
N3A N -0.1993(3) 0.0016(2) 0.9975(2)
N3A_2 N 0.8007(3) 0.0016(2) 0.9975(2)
C8A C -0.1268(4) 0.1065(3) 0.9338(3)
H16A H -0.2115 0.1828 0.8863
C9A C -0.0703(4) -0.1054(3) 1.0638(3)
H17A H -0.1153 -0.1812 1.1095
O11 O 0.1660(7) 0.9691(4) 0.3170(3)
H18 H 0.129(11) 1.051(2) 0.274(4)
H19 H 0.193(10) 0.970(6) 0.382(3)
loop_
_geom_bond_atom_site_label_1
_geom_bond_atom_site_label_2
_geom_bond_site_symmetry_1
_geom_bond_site_symmetry_2
Ni1 O1 1_555 1_555
O1 H1 1_555 1_555
H2 O1 1_555 1_555
N1 Ni1 1_555 1_555
N2 Ni1 1_555 1_555
O2 Ni1 1_555 1_555
O3 P1 1_555 1_555
O4 H3 1_555 1_555
O5 Ni1 1_555 1_555
O6 C3 1_555 1_555
O7 Ni1 1_555 1_555
O8 C5 1_555 1_555
P1 O2 1_555 1_555
C1 N1 1_555 1_555
H4 C1 1_555 1_555
H5 C1 1_555 1_555
C2 N1 1_555 1_555
H6 C2 1_555 1_555
H7 C2 1_555 1_555
C3 O5 1_555 1_555
C4 N1 1_555 1_555
H8 C4 1_555 1_555
H9 C4 1_555 1_555
C5 O7 1_555 1_555
C6 N2 1_555 1_555
H10 C6 1_555 1_555
C7 N2 1_555 1_555
H11 C7 1_555 1_555
Ni2 O9 1_555 1_555
O9 H12 1_555 1_555
H13 O9 1_555 1_555
O10 Ni2 1_555 1_555
H14 O10 1_555 1_555
H15 O10 1_555 1_555
N3 Ni2 1_555 1_555
C8 N3 1_555 1_555
H16 C8 1_555 1_555
C9 N3 1_555 1_555
H17 C9 1_555 1_555
O11 H18 1_555 1_555
H19 O11 1_555 1_555
Ni1A O1A 1_555 1_555
O1A H1A 1_555 1_555
H2A O1A 1_555 1_555
N1A Ni1A 1_555 1_555
N2A Ni1A 1_555 1_555
O2A Ni1A 1_555 1_555
O3A P1A 1_555 1_555
O4A H3A 1_555 1_555
O5A Ni1A 1_555 1_555
O6A C3A 1_555 1_555
O7A Ni1A 1_555 1_555
O8A C5A 1_555 1_555
P1A O2A 1_555 1_555
C1A N1A 1_555 1_555
H4A C1A 1_555 1_555
H5A C1A 1_555 1_555
C2A N1A 1_555 1_555
H6A C2A 1_555 1_555
H7A C2A 1_555 1_555
C3A O5A 1_555 1_555
C4A N1A 1_555 1_555
H8A C4A 1_555 1_555
H9A C4A 1_555 1_555
C5A O7A 1_555 1_555
C6A C7 1_555 1_555
H10A C6A 1_555 1_555
C7A C6 1_555 1_555
H11A C7A 1_555 1_555
Ni2_2 N3A 1_555 1_555
O9A Ni2 1_555 1_555
H12A O9A 1_555 1_555
H13A O9A 1_555 1_555
O10A Ni2 1_555 1_555
H14A O10A 1_555 1_555
H15A O10A 1_555 1_555
N3A C8A 1_555 1_555
N3A_2 Ni2 1_555 1_555
C8A C9 1_555 1_555
H16A C8A 1_555 1_555
C9A C8 1_555 1_555
H17A C9A 1_555 1_555
O4 P1 1_555 1_555
P1 C1 1_555 1_555
C2 C3 1_555 1_555
C4 C5 1_555 1_555
N2A C6A 1_555 1_555
N2A C7A 1_555 1_555
O4A P1A 1_555 1_555
P1A C1A 1_555 1_555
C2A C3A 1_555 1_555
C4A C5A 1_555 1_555
N3A C9A 1_555 1_555

#END
