
#######################################################################
#
#                 Cambridge Crystallographic Data Centre
#                                CCDC 
#
#######################################################################
#
# If this CIF has been generated from an entry in the Cambridge 
# Structural Database, then it will include bibliographic, chemical, 
# crystal, experimental, refinement or atomic coordinate data resulting 
# from the CCDC's data processing and validation procedures.
#
#######################################################################

data_HAYGIY
_symmetry_cell_setting           monoclinic
_symmetry_space_group_name_H-M   'P 21/c'
_symmetry_Int_Tables_number      14
_space_group_name_Hall           '-P 2ybc'
loop_
_symmetry_equiv_pos_site_id
_symmetry_equiv_pos_as_xyz
1 x,y,z
2 -x,1/2+y,1/2-z
3 -x,-y,-z
4 x,1/2-y,1/2+z
_cell_length_a                   13.622(4)
_cell_length_b                   23.286(7)
_cell_length_c                   10.547(3)
_cell_angle_alpha                90
_cell_angle_beta                 111.084(6)
_cell_angle_gamma                90
_cell_volume                     3121.56
loop_
_atom_site_label
_atom_site_type_symbol
_atom_site_fract_x
_atom_site_fract_y
_atom_site_fract_z
C1 C 0.3073(8) 0.5042(4) -0.0374(9)
H1 H 0.3734 0.5091 0.0296
C2 C 0.2958(11) 0.4714(4) -0.1514(12)
H2 H 0.3545 0.4549 -0.1621
C3 C 0.1986(14) 0.4632(5) -0.2480(12)
H3 H 0.1905 0.4401 -0.3231
C4 C 0.1135(11) 0.4888(5) -0.2341(13)
H4 H 0.0476 0.4839 -0.3014
C5 C 0.1232(8) 0.5211(4) -0.1247(11)
H5 H 0.0638 0.5379 -0.1166
C6 C 0.2204(7) 0.5295(3) -0.0242(9)
C7 C 0.2264(7) 0.5658(3) 0.0953(9)
H6 H 0.1773 0.5975 0.0645
H7 H 0.2051 0.5429 0.1579
C8 C 0.4049(8) 0.5699(3) 0.2830(8)
H8 H 0.3964 0.5404 0.3375
C9 C 0.4936(7) 0.6015(3) 0.3068(8)
H9 H 0.5574 0.5977 0.3788
C10 C 0.4680(6) 0.6410(3) 0.1991(7)
C11 C 0.5290(6) 0.6877(3) 0.1720(7)
C12 C 0.6383(7) 0.6920(4) 0.2374(9)
H10 H 0.6744 0.6652 0.3029
C13 C 0.6912(8) 0.7353(5) 0.2048(10)
H11 H 0.7641 0.7375 0.2453
C14 C 0.6374(9) 0.7756(5) 0.1128(11)
H12 H 0.6727 0.8062 0.0914
C15 C 0.5287(8) 0.7705(3) 0.0510(9)
H13 H 0.4920 0.7984 -0.0112
C16 C 0.0231(8) 0.7946(4) -0.2335(9)
H14 H 0.0732 0.7915 -0.1463
C17 C -0.0017(9) 0.8483(4) -0.2931(12)
H15 H 0.0333 0.8807 -0.2473
C18 C -0.0771(9) 0.8534(4) -0.4184(11)
H16 H -0.0958 0.8896 -0.4570
C19 C -0.1248(9) 0.8066(4) -0.4867(10)
H17 H -0.1752 0.8103 -0.5735
C20 C -0.0997(7) 0.7525(4) -0.4289(9)
H18 H -0.1337 0.7203 -0.4772
C21 C -0.0249(6) 0.7460(3) -0.3005(7)
C22 C 0.0033(6) 0.6876(3) -0.2368(7)
H19 H 0.0421 0.6921 -0.1402
H20 H -0.0608 0.6667 -0.2476
C23 C 0.0331(6) 0.6219(3) -0.4081(8)
H21 H -0.0367 0.6143 -0.4611
C24 C 0.1191(6) 0.6020(3) -0.4314(8)
H22 H 0.1204 0.5787 -0.5024
C25 C 0.2044(6) 0.6243(3) -0.3258(7)
C26 C 0.3169(6) 0.6165(3) -0.2978(7)
C27 C 0.3531(7) 0.5808(3) -0.3767(8)
H23 H 0.3060 0.5612 -0.4503
C28 C 0.4588(8) 0.5750(4) -0.3450(9)
H24 H 0.4838 0.5511 -0.3974
C29 C 0.5280(7) 0.6035(4) -0.2379(9)
H25 H 0.6003 0.5997 -0.2154
C30 C 0.4868(7) 0.6383(4) -0.1638(8)
H26 H 0.5333 0.6580 -0.0898
N1 N 0.4750(5) 0.7268(2) 0.0778(6)
N2 N 0.3706(5) 0.6321(2) 0.1148(6)
N3 N 0.3321(5) 0.5888(2) 0.1675(6)
N4 N 0.1718(5) 0.6560(2) -0.2433(5)
N5 N 0.0665(5) 0.6540(2) -0.2961(6)
N6 N 0.3834(5) 0.6453(2) -0.1926(6)
N7 N 0.2063(5) 0.7285(3) 0.0651(6)
N8 N 0.2455(5) 0.7244(2) 0.1840(7)
N9 N 0.2842(6) 0.7189(3) 0.3032(7)
Cd1 Cd 0.30243(4) 0.70071(2) -0.06333(5)
N9C N 0.2842(6) 0.7811(3) -0.1968(7)
Cd1C Cd 0.30243(4) 0.79929(2) 0.43667(5)
Cl1 Cl 0.22764(15) 0.43834(7) 0.37074(19)
O1 O 0.2006(7) 0.4174(3) 0.2390(7)
O2 O 0.1589(5) 0.4824(3) 0.3763(8)
O3 O 0.3316(5) 0.4609(3) 0.4168(7)
O4 O 0.2242(5) 0.3924(2) 0.4585(6)
loop_
_geom_bond_atom_site_label_1
_geom_bond_atom_site_label_2
_geom_bond_site_symmetry_1
_geom_bond_site_symmetry_2
C1 H1 1_555 1_555
C2 C1 1_555 1_555
H2 C2 1_555 1_555
C3 C2 1_555 1_555
H3 C3 1_555 1_555
C4 C3 1_555 1_555
H4 C4 1_555 1_555
C5 C4 1_555 1_555
H5 C5 1_555 1_555
C6 C1 1_555 1_555
C7 C6 1_555 1_555
H6 C7 1_555 1_555
H7 C7 1_555 1_555
C8 H8 1_555 1_555
C9 C8 1_555 1_555
H9 C9 1_555 1_555
C10 C9 1_555 1_555
C11 C10 1_555 1_555
C12 C11 1_555 1_555
H10 C12 1_555 1_555
C13 C12 1_555 1_555
H11 C13 1_555 1_555
C14 C13 1_555 1_555
H12 C14 1_555 1_555
C15 C14 1_555 1_555
H13 C15 1_555 1_555
C16 H14 1_555 1_555
C17 C16 1_555 1_555
H15 C17 1_555 1_555
C18 C17 1_555 1_555
H16 C18 1_555 1_555
C19 C18 1_555 1_555
H17 C19 1_555 1_555
C20 C19 1_555 1_555
H18 C20 1_555 1_555
C21 C16 1_555 1_555
C22 C21 1_555 1_555
H19 C22 1_555 1_555
H20 C22 1_555 1_555
C23 H21 1_555 1_555
C24 C23 1_555 1_555
H22 C24 1_555 1_555
C25 C24 1_555 1_555
C26 C25 1_555 1_555
C27 C26 1_555 1_555
H23 C27 1_555 1_555
C28 C27 1_555 1_555
H24 C28 1_555 1_555
C29 C28 1_555 1_555
H25 C29 1_555 1_555
C30 C29 1_555 1_555
H26 C30 1_555 1_555
N1 C11 1_555 1_555
N2 C10 1_555 1_555
N3 C7 1_555 1_555
N4 C25 1_555 1_555
N5 C22 1_555 1_555
N6 C26 1_555 1_555
N7 N8 1_555 1_555
N8 N9 1_555 1_555
N9 Cd1C 1_555 1_555
Cl1 O1 1_555 1_555
O2 Cl1 1_555 1_555
O3 Cl1 1_555 1_555
O4 Cl1 1_555 1_555
Cd1 N1 1_555 1_555
N9C Cd1 1_555 1_555
C5 C6 1_555 1_555
C8 N3 1_555 1_555
C15 N1 1_555 1_555
C20 C21 1_555 1_555
C23 N5 1_555 1_555
C30 N6 1_555 1_555
N2 N3 1_555 1_555
N2 Cd1 1_555 1_555
N4 N5 1_555 1_555
N4 Cd1 1_555 1_555
N6 Cd1 1_555 1_555
N7 Cd1 1_555 1_555

#END
