
#######################################################################
#
#                 Cambridge Crystallographic Data Centre
#                                CCDC 
#
#######################################################################
#
# If this CIF has been generated from an entry in the Cambridge 
# Structural Database, then it will include bibliographic, chemical, 
# crystal, experimental, refinement or atomic coordinate data resulting 
# from the CCDC's data processing and validation procedures.
#
#######################################################################

data_HAYGAQ
_symmetry_cell_setting           triclinic
_symmetry_space_group_name_H-M   'P -1'
_symmetry_Int_Tables_number      2
_space_group_name_Hall           '-P 1'
loop_
_symmetry_equiv_pos_site_id
_symmetry_equiv_pos_as_xyz
1 x,y,z
2 -x,-y,-z
_cell_length_a                   7.0480(14)
_cell_length_b                   10.674(2)
_cell_length_c                   12.234(2)
_cell_angle_alpha                71.18(3)
_cell_angle_beta                 79.85(3)
_cell_angle_gamma                72.86(3)
_cell_volume                     829.114
loop_
_atom_site_label
_atom_site_type_symbol
_atom_site_fract_x
_atom_site_fract_y
_atom_site_fract_z
Co1 Co 1.25978(13) 0.41883(9) 0.23970(7)
O1 O 1.0553(6) 0.5995(5) 0.2697(4)
H1 H 0.942(4) 0.596(7) 0.261(5)
H2 H 1.047(7) 0.630(7) 0.326(4)
N1 N 1.4382(7) 0.3592(5) 0.3834(4)
N2 N 1.1123(8) 0.4622(6) 0.0930(4)
P1 P 1.1137(3) 0.25715(19) 0.47572(16)
O2 O 1.0651(6) 0.3130(4) 0.3528(3)
O3 O 0.9459(6) 0.2786(5) 0.5669(4)
O4 O 1.2194(7) 0.1005(4) 0.4941(4)
H3 H 1.250(10) 0.041(6) 0.569(3)
O5 O 1.4528(7) 0.2447(5) 0.2080(4)
O6 O 1.6730(8) 0.0535(6) 0.2908(5)
O7 O 1.4603(6) 0.5349(5) 0.1654(4)
O8 O 1.6908(6) 0.6131(5) 0.2047(4)
C1 C 1.2984(9) 0.3382(7) 0.4894(5)
H4 H 1.2315 0.4259 0.5033
H5 H 1.3727 0.2813 0.5555
C2 C 1.5909(9) 0.2325(7) 0.3775(5)
H6 H 1.5846 0.1639 0.4519
H7 H 1.7212 0.2507 0.3647
C3 C 1.5716(11) 0.1741(9) 0.2840(7)
C4 C 1.5281(10) 0.4749(7) 0.3616(5)
H8 H 1.6530 0.4413 0.3972
H9 H 1.4398 0.5412 0.3986
C5 C 1.5670(11) 0.5456(7) 0.2345(6)
C6 C 0.9826(10) 0.3948(7) 0.0910(6)
H10 H 0.9660 0.3204 0.1538
C7 C 1.1282(9) 0.5674(7) 0.0021(6)
H11 H 1.2167 0.6176 0.0007
Co1A Co 0.74022(13) 0.58117(9) -0.23970(7)
O1A O 0.9447(6) 0.4005(5) -0.2697(4)
H1A H 1.058(4) 0.404(7) -0.261(5)
H2A H 0.953(7) 0.370(7) -0.326(4)
N1A N 0.5618(7) 0.6408(5) -0.3834(4)
N2A N 0.8877(8) 0.5378(6) -0.0930(4)
P1A P 0.8863(3) 0.74285(19) -0.47572(16)
O2A O 0.9349(6) 0.6870(4) -0.3528(3)
O3A O 1.0541(6) 0.7214(5) -0.5669(4)
O4A O 0.7806(7) 0.8995(4) -0.4941(4)
H3A H 0.750(10) 0.959(6) -0.569(3)
O5A O 0.5472(7) 0.7553(5) -0.2080(4)
O6A O 0.3270(8) 0.9465(6) -0.2908(5)
O7A O 0.5397(6) 0.4651(5) -0.1654(4)
O8A O 0.3092(6) 0.3869(5) -0.2047(4)
C1A C 0.7016(9) 0.6618(7) -0.4894(5)
H4A H 0.7685 0.5741 -0.5033
H5A H 0.6273 0.7187 -0.5555
C2A C 0.4091(9) 0.7675(7) -0.3775(5)
H6A H 0.4154 0.8361 -0.4519
H7A H 0.2788 0.7493 -0.3647
C3A C 0.4284(11) 0.8259(9) -0.2840(7)
C4A C 0.4719(10) 0.5251(7) -0.3616(5)
H8A H 0.3470 0.5587 -0.3972
H9A H 0.5602 0.4588 -0.3986
C5A C 0.4330(11) 0.4544(7) -0.2345(6)
C6A C 1.0174(10) 0.6052(7) -0.0910(6)
H10A H 1.0340 0.6796 -0.1538
C7A C 0.8718(9) 0.4326(7) -0.0021(6)
H11A H 0.7833 0.3824 -0.0007
Co2 Co 0.5000 0.0000 0.0000
O9 O 0.4959(7) -0.0629(5) 0.1793(4)
H12 H 0.562(7) -0.016(6) 0.192(6)
H13 H 0.386(5) -0.055(7) 0.219(5)
O10 O 0.5905(8) -0.1998(4) -0.0033(4)
H14 H 0.573(10) -0.236(5) -0.051(4)
H15 H 0.629(10) -0.259(4) 0.058(3)
N3 N 0.1959(8) -0.0017(6) 0.0028(5)
C8 C 0.0737(11) 0.1038(8) -0.0627(6)
H16 H 0.1209 0.1788 -0.1079
C9 C 0.1226(10) -0.1062(7) 0.0662(6)
H17 H 0.2040 -0.1822 0.1137
Co2_2 Co -0.5000 0.0000 0.0000
O9A O 0.5041(7) 0.0629(5) -0.1793(4)
H12A H 0.438(7) 0.016(6) -0.192(6)
H13A H 0.614(5) 0.055(7) -0.219(5)
O10A O 0.4095(8) 0.1998(4) 0.0033(4)
H14A H 0.427(10) 0.236(5) 0.051(4)
H15A H 0.371(10) 0.259(4) -0.058(3)
N3A N -0.1959(8) 0.0017(6) -0.0028(5)
N3A_2 N 0.8041(8) 0.0017(6) -0.0028(5)
C8A C -0.0737(11) -0.1038(8) 0.0627(6)
H16A H -0.1209 -0.1788 0.1079
C9A C -0.1226(10) 0.1062(7) -0.0662(6)
H17A H -0.2040 0.1822 -0.1137
O11 O 0.1540(12) 0.9752(9) 0.3174(6)
H18 H 0.244(15) 0.913(9) 0.354(9)
H19 H 0.107(16) 1.034(8) 0.354(9)
loop_
_geom_bond_atom_site_label_1
_geom_bond_atom_site_label_2
_geom_bond_site_symmetry_1
_geom_bond_site_symmetry_2
Co1 O1 1_555 1_555
O1 H1 1_555 1_555
H2 O1 1_555 1_555
N1 Co1 1_555 1_555
N2 Co1 1_555 1_555
P1 O2 1_555 1_555
O2 Co1 1_555 1_555
O3 P1 1_555 1_555
O4 P1 1_555 1_555
H3 O4 1_555 1_555
O5 Co1 1_555 1_555
O6 C3 1_555 1_555
O7 Co1 1_555 1_555
O8 C5 1_555 1_555
C1 N1 1_555 1_555
H4 C1 1_555 1_555
H5 C1 1_555 1_555
C2 N1 1_555 1_555
H6 C2 1_555 1_555
H7 C2 1_555 1_555
C3 O5 1_555 1_555
C4 N1 1_555 1_555
H8 C4 1_555 1_555
H9 C4 1_555 1_555
C5 O7 1_555 1_555
C6 N2 1_555 1_555
H10 C6 1_555 1_555
C7 N2 1_555 1_555
H11 C7 1_555 1_555
Co2 O9 1_555 1_555
O9 H12 1_555 1_555
H13 O9 1_555 1_555
O10 Co2 1_555 1_555
H14 O10 1_555 1_555
H15 O10 1_555 1_555
N3 Co2 1_555 1_555
C8 N3 1_555 1_555
H16 C8 1_555 1_555
C9 N3 1_555 1_555
H17 C9 1_555 1_555
O11 H18 1_555 1_555
H19 O11 1_555 1_555
Co1A O1A 1_555 1_555
O1A H1A 1_555 1_555
H2A O1A 1_555 1_555
N1A Co1A 1_555 1_555
N2A Co1A 1_555 1_555
P1A O2A 1_555 1_555
O2A Co1A 1_555 1_555
O3A P1A 1_555 1_555
O4A P1A 1_555 1_555
H3A O4A 1_555 1_555
O5A Co1A 1_555 1_555
O6A C3A 1_555 1_555
O7A Co1A 1_555 1_555
O8A C5A 1_555 1_555
C1A N1A 1_555 1_555
H4A C1A 1_555 1_555
H5A C1A 1_555 1_555
C2A N1A 1_555 1_555
H6A C2A 1_555 1_555
H7A C2A 1_555 1_555
C3A O5A 1_555 1_555
C4A N1A 1_555 1_555
H8A C4A 1_555 1_555
H9A C4A 1_555 1_555
C5A O7A 1_555 1_555
C6A C7 1_555 1_555
H10A C6A 1_555 1_555
C7A C6 1_555 1_555
H11A C7A 1_555 1_555
Co2_2 N3A 1_555 1_555
O9A Co2 1_555 1_555
H12A O9A 1_555 1_555
H13A O9A 1_555 1_555
O10A Co2 1_555 1_555
H14A O10A 1_555 1_555
H15A O10A 1_555 1_555
N3A C8A 1_555 1_555
N3A_2 Co2 1_555 1_555
C8A C9 1_555 1_555
H16A C8A 1_555 1_555
C9A C8 1_555 1_555
H17A C9A 1_555 1_555
P1 C1 1_555 1_555
C2 C3 1_555 1_555
C4 C5 1_555 1_555
N2A C6A 1_555 1_555
N2A C7A 1_555 1_555
P1A C1A 1_555 1_555
C2A C3A 1_555 1_555
C4A C5A 1_555 1_555
N3A C9A 1_555 1_555

#END
