
#######################################################################
#
#                 Cambridge Crystallographic Data Centre
#                                CCDC 
#
#######################################################################
#
# If this CIF has been generated from an entry in the Cambridge 
# Structural Database, then it will include bibliographic, chemical, 
# crystal, experimental, refinement or atomic coordinate data resulting 
# from the CCDC's data processing and validation procedures.
#
#######################################################################

data_HAYHIA
_symmetry_cell_setting           orthorhombic
_symmetry_space_group_name_H-M   'P 21 21 21'
_symmetry_Int_Tables_number      19
_space_group_name_Hall           'P 2ac 2ab'
loop_
_symmetry_equiv_pos_site_id
_symmetry_equiv_pos_as_xyz
1 x,y,z
2 1/2+x,1/2-y,-z
3 -x,1/2+y,1/2-z
4 1/2-x,-y,1/2+z
_cell_length_a                   7.5051(3)
_cell_length_b                   10.5639(4)
_cell_length_c                   21.6723(9)
_cell_angle_alpha                90
_cell_angle_beta                 90
_cell_angle_gamma                90
_cell_volume                     1718.25
loop_
_atom_site_label
_atom_site_type_symbol
_atom_site_fract_x
_atom_site_fract_y
_atom_site_fract_z
I1 I 1.14075(3) 0.58295(2) 0.834432(12)
I2 I 1.36998(3) 0.54434(2) 1.141350(9)
Co1 Co 0.81243(5) 0.25155(4) 0.997594(19)
O1 O 1.0232(3) 0.2952(2) 0.86860(10)
O2 O 0.7492(3) 0.3161(2) 0.90771(10)
O3 O 0.9106(3) 0.4256(2) 1.01614(11)
O4 O 1.2100(3) 0.4214(2) 1.01920(11)
O5 O 0.5662(3) 0.3202(2) 1.03253(11)
H1 H 0.562(7) 0.289(4) 1.0690(12)
H2 H 0.561(7) 0.4004(18) 1.037(2)
O6 O 0.8845(3) 0.1971(2) 1.08789(11)
H3 H 0.993(3) 0.190(5) 1.100(2)
H4 H 0.824(6) 0.151(5) 1.113(2)
C1 C 0.8667(5) 0.3361(3) 0.86686(13)
C2 C 0.8126(4) 0.4134(3) 0.81193(14)
C3 C 0.9090(5) 0.5170(3) 0.79051(15)
C4 C 0.8484(6) 0.5875(4) 0.74032(16)
H5 H 0.9116 0.6607 0.7273
C5 C 0.6959(6) 0.5502(5) 0.70965(16)
H6 H 0.6560 0.5967 0.6748
C6 C 0.6007(6) 0.4452(5) 0.72940(19)
H7 H 0.4969 0.4192 0.7078
C7 C 0.6571(5) 0.3786(4) 0.78044(16)
H8 H 0.5897 0.3082 0.7945
C8 C 1.0602(4) 0.4726(3) 1.02726(13)
C9 C 1.0600(4) 0.6065(3) 1.05106(14)
C10 C 1.1767(4) 0.6532(3) 1.09556(13)
C11 C 1.1674(4) 0.7780(3) 1.11453(15)
H9 H 1.2435 0.8072 1.1465
C12 C 1.0480(5) 0.8607(3) 1.08721(16)
H10 H 1.0450 0.9471 1.0994
C13 C 0.9330(5) 0.8169(3) 1.04205(18)
H11 H 0.8521 0.8733 1.0226
C14 C 0.9365(5) 0.6903(3) 1.02541(15)
H12 H 0.8531 0.6599 0.9960
Co1A Co 1.31243(5) 0.24845(4) 1.002406(19)
Co1A_2 Co 0.31243(5) 0.24845(4) 1.002406(19)
O4A O 0.7100(3) 0.0786(2) 0.98080(11)
O5A O 1.0662(3) 0.1798(2) 0.96747(11)
H1A H 1.062(7) 0.211(4) 0.9310(12)
H2A H 1.061(7) 0.0996(18) 0.963(2)
loop_
_geom_bond_atom_site_label_1
_geom_bond_atom_site_label_2
_geom_bond_site_symmetry_1
_geom_bond_site_symmetry_2
I1 C3 1_555 1_555
I2 C10 1_555 1_555
Co1 O2 1_555 1_555
O1 C1 1_555 1_555
O2 C1 1_555 1_555
O3 Co1 1_555 1_555
O4 C8 1_555 1_555
O5 Co1 1_555 1_555
H1 O5 1_555 1_555
H2 O5 1_555 1_555
O6 Co1 1_555 1_555
H3 O6 1_555 1_555
H4 O6 1_555 1_555
C1 C2 1_555 1_555
C2 C3 1_555 1_555
C3 C4 1_555 1_555
C4 H5 1_555 1_555
C5 C4 1_555 1_555
H6 C5 1_555 1_555
C6 C5 1_555 1_555
H7 C6 1_555 1_555
C7 C2 1_555 1_555
H8 C7 1_555 1_555
C8 O3 1_555 1_555
C9 C8 1_555 1_555
C10 C9 1_555 1_555
C11 C10 1_555 1_555
H9 C11 1_555 1_555
C12 C11 1_555 1_555
H10 C12 1_555 1_555
C13 C12 1_555 1_555
H11 C13 1_555 1_555
C14 C9 1_555 1_555
H12 C14 1_555 1_555
Co1A O4 1_555 1_555
Co1A_2 O5 1_555 1_555
O4A Co1 1_555 1_555
O5A Co1 1_555 1_555
H1A O5A 1_555 1_555
H2A O5A 1_555 1_555
C6 C7 1_555 1_555
C13 C14 1_555 1_555
Co1A O5A 1_555 1_555

#END
