
#######################################################################
#
#                 Cambridge Crystallographic Data Centre
#                                CCDC 
#
#######################################################################
#
# If this CIF has been generated from an entry in the Cambridge 
# Structural Database, then it will include bibliographic, chemical, 
# crystal, experimental, refinement or atomic coordinate data resulting 
# from the CCDC's data processing and validation procedures.
#
#######################################################################

data_HAYJOI
_symmetry_cell_setting           monoclinic
_symmetry_space_group_name_H-M   'P 21/c'
_symmetry_Int_Tables_number      14
_space_group_name_Hall           '-P 2ybc'
loop_
_symmetry_equiv_pos_site_id
_symmetry_equiv_pos_as_xyz
1 x,y,z
2 -x,1/2+y,1/2-z
3 -x,-y,-z
4 x,1/2-y,1/2+z
_cell_length_a                   16.434(7)
_cell_length_b                   11.436(5)
_cell_length_c                   14.320(6)
_cell_angle_alpha                90
_cell_angle_beta                 104.310(7)
_cell_angle_gamma                90
_cell_volume                     2607.79
loop_
_atom_site_label
_atom_site_type_symbol
_atom_site_fract_x
_atom_site_fract_y
_atom_site_fract_z
Ag1 Ag -0.469349(16) 0.917359(18) 0.622126(19)
N1 N -0.47718(16) 0.7266(2) 0.62575(17)
N2 N -0.48183(15) 0.1071(2) 0.61686(17)
C1 C -0.41117(19) 0.2880(2) 0.6165(2)
H2 H -0.3625 0.3270 0.6123
C2 C -0.4139(2) 0.1688(2) 0.6116(2)
H3 H -0.3666 0.1288 0.6043
C3 C -0.5482(2) 0.1674(3) 0.6274(2)
H4 H -0.5961 0.1262 0.6306
C4 C -0.54983(19) 0.2870(2) 0.6337(2)
H5 H -0.5977 0.3247 0.6421
C5 C -0.47977(17) 0.3515(2) 0.62763(19)
C6 C -0.47882(18) 0.4813(2) 0.63058(19)
C7 C -0.55012(19) 0.5469(2) 0.6263(2)
H6 H -0.6007 0.5096 0.6251
C8 C -0.5469(2) 0.6668(2) 0.6239(2)
H7 H -0.5962 0.7083 0.6207
C9 C -0.4077(2) 0.6642(3) 0.6312(3)
H8 H -0.3579 0.7040 0.6331
C10 C -0.4059(2) 0.5440(3) 0.6341(3)
H9 H -0.3555 0.5046 0.6385
Ag1_2 Ag -0.469349(16) -0.082641(18) 0.622126(19)
N2_2 N -0.48183(15) 1.1071(2) 0.61686(17)
F1 F 0.02974(15) 0.6454(2) 0.92201(18)
F2 F 0.06031(13) 0.61728(17) 0.78671(18)
F3 F 0.15860(14) 0.6401(2) 0.91554(16)
F4 F 0.09383(15) 0.8354(2) 1.01974(14)
F5 F 0.10424(14) 0.9881(2) 0.93702(15)
F6 F 0.20357(13) 0.8623(3) 0.96704(15)
O1 O -0.32135(14) 0.9301(2) 0.75562(17)
O2 O -0.31043(12) 0.90448(18) 0.60650(15)
O3 O 0.33356(15) 0.9023(2) 0.56863(18)
O4 O 0.24921(14) 1.05711(19) 0.53684(16)
H1 H 0.2713 1.0657 0.4919
C11 C -0.27936(19) 0.9090(2) 0.6968(2)
C12 C -0.18662(18) 0.8837(3) 0.7344(2)
C13 C -0.13701(19) 0.8418(3) 0.6766(2)
H10 H -0.1609 0.8275 0.6117
C14 C -0.05230(19) 0.8210(3) 0.7143(2)
H11 H -0.0199 0.7935 0.6741
C15 C -0.01503(19) 0.8405(3) 0.8103(2)
C16 C -0.0646(2) 0.8806(3) 0.8685(2)
H12 H -0.0410 0.8934 0.9337
C17 C -0.1491(2) 0.9019(3) 0.8306(2)
H13 H -0.1814 0.9291 0.8710
C18 C 0.07922(19) 0.8103(3) 0.8496(2)
C19 C 0.0819(2) 0.6771(4) 0.8687(3)
C20 C 0.1197(2) 0.8734(4) 0.9440(3)
C21 C 0.13085(18) 0.8446(3) 0.7768(2)
C22 C 0.1201(2) 0.9558(3) 0.7381(2)
H14 H 0.0809 1.0055 0.7542
C23 C 0.1665(2) 0.9947(3) 0.6759(2)
H15 H 0.1586 1.0702 0.6512
C24 C 0.22482(18) 0.9221(3) 0.6502(2)
C25 C 0.2352(2) 0.8112(3) 0.6884(2)
H16 H 0.2740 0.7615 0.6716
C26 C 0.18943(19) 0.7715(3) 0.7511(2)
H17 H 0.1978 0.6962 0.7761
C27 C 0.27476(19) 0.9585(3) 0.5814(2)
loop_
_geom_bond_atom_site_label_1
_geom_bond_atom_site_label_2
_geom_bond_site_symmetry_1
_geom_bond_site_symmetry_2
Ag1 N1 1_555 1_555
F1 C19 1_555 1_555
F2 C19 1_555 1_555
F3 C19 1_555 1_555
F4 C20 1_555 1_555
F5 C20 1_555 1_555
F6 C20 1_555 1_555
O1 C11 1_555 1_555
O2 C11 1_555 1_555
O3 C27 1_555 1_555
O4 H1 1_555 1_555
N1 C8 1_555 1_555
N2 C2 1_555 1_555
C1 H2 1_555 1_555
C2 C1 1_555 1_555
H3 C2 1_555 1_555
C3 N2 1_555 1_555
H4 C3 1_555 1_555
C4 C3 1_555 1_555
H5 C4 1_555 1_555
C5 C1 1_555 1_555
C6 C5 1_555 1_555
C7 C6 1_555 1_555
H6 C7 1_555 1_555
C8 C7 1_555 1_555
H7 C8 1_555 1_555
C9 N1 1_555 1_555
H8 C9 1_555 1_555
C10 C6 1_555 1_555
H9 C10 1_555 1_555
C11 C12 1_555 1_555
C12 C13 1_555 1_555
C13 H10 1_555 1_555
C14 C13 1_555 1_555
H11 C14 1_555 1_555
C15 C14 1_555 1_555
C16 C15 1_555 1_555
H12 C16 1_555 1_555
C17 C12 1_555 1_555
H13 C17 1_555 1_555
C18 C15 1_555 1_555
C19 C18 1_555 1_555
C20 C18 1_555 1_555
C21 C18 1_555 1_555
C22 C21 1_555 1_555
H14 C22 1_555 1_555
C23 C22 1_555 1_555
H15 C23 1_555 1_555
C24 C23 1_555 1_555
C25 C24 1_555 1_555
H16 C25 1_555 1_555
C26 C21 1_555 1_555
H17 C26 1_555 1_555
C27 O4 1_555 1_555
Ag1_2 N2 1_555 1_555
N2_2 Ag1 1_555 1_555
C4 C5 1_555 1_555
C9 C10 1_555 1_555
C16 C17 1_555 1_555
C24 C27 1_555 1_555
C25 C26 1_555 1_555

#END
