
#######################################################################
#
#                 Cambridge Crystallographic Data Centre
#                                CCDC 
#
#######################################################################
#
# If this CIF has been generated from an entry in the Cambridge 
# Structural Database, then it will include bibliographic, chemical, 
# crystal, experimental, refinement or atomic coordinate data resulting 
# from the CCDC's data processing and validation procedures.
#
#######################################################################

data_HAYKUP
_symmetry_cell_setting           monoclinic
_symmetry_space_group_name_H-M   'P 21/c'
_symmetry_Int_Tables_number      14
_space_group_name_Hall           '-P 2ybc'
loop_
_symmetry_equiv_pos_site_id
_symmetry_equiv_pos_as_xyz
1 x,y,z
2 -x,1/2+y,1/2-z
3 -x,-y,-z
4 x,1/2-y,1/2+z
_cell_length_a                   10.4889(11)
_cell_length_b                   15.7477(16)
_cell_length_c                   9.9332(10)
_cell_angle_alpha                90
_cell_angle_beta                 97.664(8)
_cell_angle_gamma                90
_cell_volume                     1626.07
loop_
_atom_site_label
_atom_site_type_symbol
_atom_site_fract_x
_atom_site_fract_y
_atom_site_fract_z
C1 C 0.7871(6) 0.4587(4) 0.1320(7)
H1 H 0.8748 0.4701 0.1417
C2 C 0.7334(6) 0.4048(5) 0.0291(7)
H2 H 0.7859 0.3819 -0.0300
C3 C 0.5393(6) 0.4184(4) 0.1012(7)
H3 H 0.4526 0.4043 0.0946
C4 C 0.5906(5) 0.4738(3) 0.2038(6)
C5 C 0.5169(5) 0.5161(3) 0.3017(6)
C6 C 0.6418(5) 0.7234(4) 0.1580(7)
H4 H 0.5624 0.7048 0.1782
C7 C 0.6463(5) 0.7868(4) 0.0610(7)
H5 H 0.5699 0.8084 0.0154
C8 C 0.8651(5) 0.7831(3) 0.0990(6)
H6 H 0.9445 0.8033 0.0814
C9 C 0.8615(5) 0.7189(3) 0.1932(6)
C10 C 0.9758(5) 0.6759(3) 0.2712(6)
N1 N 0.7158(4) 0.4940(3) 0.2159(5)
N2 N 0.6089(5) 0.3848(4) 0.0128(6)
N3 N 0.3939(5) 0.5002(3) 0.3014(6)
H7 H 0.3515 0.5264 0.3571
H8 H 0.3558 0.4637 0.2454
N4 N 0.7479(4) 0.6893(3) 0.2219(5)
N5 N 0.7584(4) 0.8170(3) 0.0325(5)
N6 N 1.0915(4) 0.7048(3) 0.2613(5)
H9 H 1.1576 0.6814 0.3071
H10 H 1.1012 0.7472 0.2090
O1 O 0.5749(3) 0.5684(2) 0.3812(4)
O2 O 0.9561(3) 0.6152(2) 0.3448(4)
O3 O 0.8371(5) 0.5012(4) 0.5193(6)
H11 H 0.850(7) 0.456(4) 0.503(8)
H12 H 0.853(6) 0.510(4) 0.595(7)
Zn1 Zn 0.76855(6) 0.58798(4) 0.37477(7)
N5C N 0.7584(4) 0.6830(3) 0.5325(5)
Zn1C Zn 0.76855(6) 0.91202(4) -0.12523(7)
N7 N 0.7146(5) 0.3192(3) 0.4190(7)
O4 O 0.8335(4) 0.3362(3) 0.4190(5)
O5 O 0.6640(5) 0.3426(4) 0.5181(7)
O6 O 0.6571(5) 0.2815(4) 0.3235(6)
N8 N 0.1273(5) 0.4024(4) 0.1241(6)
O7 O 0.2393(5) 0.3816(3) 0.1188(7)
O8 O 0.1027(5) 0.4586(4) 0.2039(6)
O9 O 0.0400(5) 0.3687(4) 0.0522(8)
loop_
_geom_bond_atom_site_label_1
_geom_bond_atom_site_label_2
_geom_bond_site_symmetry_1
_geom_bond_site_symmetry_2
C1 H1 1_555 1_555
C2 C1 1_555 1_555
H2 C2 1_555 1_555
C3 H3 1_555 1_555
C4 C3 1_555 1_555
C5 C4 1_555 1_555
C6 H4 1_555 1_555
C7 C6 1_555 1_555
H5 C7 1_555 1_555
C8 H6 1_555 1_555
C9 C8 1_555 1_555
C10 C9 1_555 1_555
N1 C1 1_555 1_555
N2 C2 1_555 1_555
N3 C5 1_555 1_555
H7 N3 1_555 1_555
H8 N3 1_555 1_555
N4 C6 1_555 1_555
N5 C7 1_555 1_555
N6 C10 1_555 1_555
H9 N6 1_555 1_555
H10 N6 1_555 1_555
O1 C5 1_555 1_555
O2 C10 1_555 1_555
O3 H11 1_555 1_555
H12 O3 1_555 1_555
Zn1 N1 1_555 1_555
N7 O4 1_555 1_555
O5 N7 1_555 1_555
O6 N7 1_555 1_555
N8 O7 1_555 1_555
O8 N8 1_555 1_555
O9 N8 1_555 1_555
N5C Zn1 1_555 1_555
Zn1C N5 1_555 1_555
C3 N2 1_555 1_555
C4 N1 1_555 1_555
C8 N5 1_555 1_555
C9 N4 1_555 1_555
N4 Zn1 1_555 1_555
O1 Zn1 1_555 1_555
O2 Zn1 1_555 1_555
O3 Zn1 1_555 1_555

#END
