
#######################################################################
#
#                 Cambridge Crystallographic Data Centre
#                                CCDC 
#
#######################################################################
#
# If this CIF has been generated from an entry in the Cambridge 
# Structural Database, then it will include bibliographic, chemical, 
# crystal, experimental, refinement or atomic coordinate data resulting 
# from the CCDC's data processing and validation procedures.
#
#######################################################################

data_HAYMUR
_symmetry_cell_setting           monoclinic
_symmetry_space_group_name_H-M   'C 2/c'
_symmetry_Int_Tables_number      15
_space_group_name_Hall           '-C 2yn'
loop_
_symmetry_equiv_pos_site_id
_symmetry_equiv_pos_as_xyz
1 x,y,z
2 -x,y,1/2-z
3 1/2+x,1/2+y,z
4 1/2-x,1/2+y,1/2-z
5 -x,-y,-z
6 x,-y,1/2+z
7 1/2-x,1/2-y,-z
8 1/2+x,1/2-y,1/2+z
_cell_length_a                   25.819(2)
_cell_length_b                   6.0060(4)
_cell_length_c                   20.1176(15)
_cell_angle_alpha                90
_cell_angle_beta                 136.222(4)
_cell_angle_gamma                90
_cell_volume                     2158.36
loop_
_atom_site_label
_atom_site_type_symbol
_atom_site_fract_x
_atom_site_fract_y
_atom_site_fract_z
Hg1 Hg 0.16617(2) 0.10942(6) 0.33894(3)
S1 S 0.1305(2) 0.3052(4) 0.4049(2)
S2 S 0.25302(16) -0.0298(4) 0.3378(2)
C1 C 0.0285(5) 0.2478(15) 0.1021(6)
C2 C 0.0007(6) -0.0719(16) 0.1318(7)
H1 H 0.0126 -0.1780 0.1749
C3 C -0.0648(5) -0.0935(19) 0.0381(7)
H2 H -0.0961 -0.2152 0.0153
C4 C -0.0821(5) 0.0738(17) -0.0211(7)
H3 H -0.1278 0.0675 -0.0855
C5 C 0.1323(6) 0.5655(15) 0.3790(8)
C6 C 0.2379(5) -0.3009(18) 0.3346(6)
N1 N 0.0752(5) 0.4154(14) 0.1322(6)
H4 H 0.1176 0.4234 0.1916
H5 H 0.0629 0.5155 0.0923
N2 N 0.0491(4) 0.0940(11) 0.1659(5)
N3 N -0.0368(4) 0.2472(13) 0.0082(5)
N4 N 0.1294(7) 0.7461(14) 0.3608(9)
N5 N 0.2301(5) -0.4879(17) 0.3329(7)
Hg1_2 Hg 0.16617(2) 1.10942(6) 0.33894(3)
N4_2 N 0.1294(7) -0.2539(14) 0.3608(9)
loop_
_geom_bond_atom_site_label_1
_geom_bond_atom_site_label_2
_geom_bond_site_symmetry_1
_geom_bond_site_symmetry_2
Hg1 S1 1_555 1_555
S1 C5 1_555 1_555
S2 Hg1 1_555 1_555
C1 N1 1_555 1_555
C2 H1 1_555 1_555
C3 C2 1_555 1_555
H2 C3 1_555 1_555
C4 C3 1_555 1_555
H3 C4 1_555 1_555
C5 N4 1_555 1_555
C6 S2 1_555 1_555
N1 H4 1_555 1_555
H5 N1 1_555 1_555
N2 Hg1 1_555 1_555
N3 C1 1_555 1_555
N4 Hg1_2 1_555 1_555
N5 C6 1_555 1_555
N4_2 Hg1 1_555 1_555
C1 N2 1_555 1_555
C2 N2 1_555 1_555
C4 N3 1_555 1_555

#END
