
#######################################################################
#
#                 Cambridge Crystallographic Data Centre
#                                CCDC 
#
#######################################################################
#
# If this CIF has been generated from an entry in the Cambridge 
# Structural Database, then it will include bibliographic, chemical, 
# crystal, experimental, refinement or atomic coordinate data resulting 
# from the CCDC's data processing and validation procedures.
#
#######################################################################

data_HAYMEB
_symmetry_cell_setting           triclinic
_symmetry_space_group_name_H-M   'P -1'
_symmetry_Int_Tables_number      2
_space_group_name_Hall           '-P 1'
loop_
_symmetry_equiv_pos_site_id
_symmetry_equiv_pos_as_xyz
1 x,y,z
2 -x,-y,-z
_cell_length_a                   9.977(2)
_cell_length_b                   11.715(2)
_cell_length_c                   11.734(2)
_cell_angle_alpha                65.28(3)
_cell_angle_beta                 77.52(3)
_cell_angle_gamma                77.15(3)
_cell_volume                     1202.81
loop_
_atom_site_label
_atom_site_type_symbol
_atom_site_fract_x
_atom_site_fract_y
_atom_site_fract_z
Cd1 Cd 0.30365(2) 0.70429(2) 0.09531(2)
S1 S 0.41833(9) 0.83130(8) -0.62591(8)
O1 O 0.3596(3) 0.7157(2) -0.1166(2)
O2 O 0.2554(3) 0.8927(3) -0.0912(2)
N1 N 0.1528(3) 0.8327(3) 0.1983(3)
N2 N 0.2833(3) 0.5972(3) 0.3298(3)
N3 N 0.3521(3) 1.0786(3) -0.6983(3)
N4 N 0.4267(3) 1.0043(3) -0.8634(3)
H1 H 0.4161 1.0813 -0.9227
H2 H 0.4567 0.9382 -0.8844
S2 S 0.06488(8) 0.34375(7) 0.19139(8)
N5 N 0.1635(3) 0.5537(3) 0.1288(3)
N6 N 0.3306(3) 0.3686(3) 0.1717(3)
H3 H 0.3994 0.4110 0.1563
H4 H 0.3471 0.2856 0.1940
O3 O -0.4784(2) 0.5623(2) 0.1301(2)
O4 O -0.4823(2) 0.7664(2) 0.0858(2)
C1 C 0.1130(3) 0.9574(3) 0.1355(3)
H5 H 0.1300 0.9911 0.0456
C2 C 0.0484(4) 1.0395(3) 0.1951(3)
H6 H 0.0224 1.1273 0.1470
C3 C 0.0224(4) 0.9910(3) 0.3263(3)
H7 H -0.0199 1.0452 0.3699
C4 C 0.0592(3) 0.8621(3) 0.3925(3)
H8 H 0.0400 0.8262 0.4824
C5 C 0.1251(3) 0.7848(3) 0.3261(3)
C6 C 0.1758(4) 0.6489(3) 0.3931(3)
C7 C 0.1184(4) 0.5801(4) 0.5154(3)
H9 H 0.0404 0.6179 0.5569
C8 C 0.1773(4) 0.4542(4) 0.5763(3)
H10 H 0.1392 0.4042 0.6596
C9 C 0.2915(4) 0.4038(3) 0.5134(3)
H11 H 0.3361 0.3195 0.5541
C10 C 0.3402(4) 0.4771(3) 0.3908(4)
H12 H 0.4178 0.4408 0.3475
C11 C 0.0212(3) 0.5869(3) 0.1247(3)
C12 C -0.0528(3) 0.7099(3) 0.0958(3)
H13 H -0.0063 0.7795 0.0771
C13 C -0.1952(3) 0.7287(3) 0.0949(3)
H14 H -0.2461 0.8115 0.0777
C14 C -0.2650(3) 0.6284(3) 0.1187(3)
C15 C -0.1930(3) 0.5050(3) 0.1483(3)
H15 H -0.2395 0.4360 0.1651
C16 C -0.0512(3) 0.4864(3) 0.1522(3)
C17 C 0.2006(3) 0.4302(3) 0.1613(3)
C18 C 0.3359(3) 1.0268(3) -0.5664(3)
C19 C 0.2953(4) 1.0964(3) -0.4897(3)
H16 H 0.2735 1.1864 -0.5264
C20 C 0.2872(3) 1.0324(3) -0.3587(3)
H17 H 0.2600 1.0796 -0.3064
C21 C 0.3182(3) 0.9002(3) -0.3027(3)
C22 C 0.3572(3) 0.8301(3) -0.3795(3)
H18 H 0.3774 0.7400 -0.3426
C23 C 0.3659(3) 0.8933(3) -0.5094(3)
C24 C 0.3974(3) 0.9876(3) -0.7413(3)
C25 C 0.3105(3) 0.8324(3) -0.1607(3)
C26 C -0.4178(3) 0.6531(3) 0.1118(3)
Cd1_2 Cd -0.69635(2) 0.70429(2) 0.09531(2)
O3_2 O 0.5216(2) 0.5623(2) 0.1301(2)
O4_2 O 0.5177(2) 0.7664(2) 0.0858(2)
loop_
_geom_bond_atom_site_label_1
_geom_bond_atom_site_label_2
_geom_bond_site_symmetry_1
_geom_bond_site_symmetry_2
Cd1 O1 1_555 1_555
S1 C23 1_555 1_555
O1 C25 1_555 1_555
O2 Cd1 1_555 1_555
N1 Cd1 1_555 1_555
N2 Cd1 1_555 1_555
N3 C18 1_555 1_555
N4 H1 1_555 1_555
H2 N4 1_555 1_555
S2 C16 1_555 1_555
N5 Cd1 1_555 1_555
N6 H3 1_555 1_555
H4 N6 1_555 1_555
O3 C26 1_555 1_555
O4 C26 1_555 1_555
C1 N1 1_555 1_555
H5 C1 1_555 1_555
C2 C1 1_555 1_555
H6 C2 1_555 1_555
C3 C2 1_555 1_555
H7 C3 1_555 1_555
C4 C3 1_555 1_555
H8 C4 1_555 1_555
C5 N1 1_555 1_555
C6 N2 1_555 1_555
C7 C6 1_555 1_555
H9 C7 1_555 1_555
C8 C7 1_555 1_555
H10 C8 1_555 1_555
C9 C8 1_555 1_555
H11 C9 1_555 1_555
C10 N2 1_555 1_555
H12 C10 1_555 1_555
C11 N5 1_555 1_555
C12 C11 1_555 1_555
H13 C12 1_555 1_555
C13 C12 1_555 1_555
H14 C13 1_555 1_555
C14 C13 1_555 1_555
C15 C14 1_555 1_555
H15 C15 1_555 1_555
C16 C11 1_555 1_555
C17 S2 1_555 1_555
C18 C19 1_555 1_555
C19 H16 1_555 1_555
C20 C19 1_555 1_555
H17 C20 1_555 1_555
C21 C20 1_555 1_555
C22 C21 1_555 1_555
H18 C22 1_555 1_555
C23 C18 1_555 1_555
C24 S1 1_555 1_555
C25 O2 1_555 1_555
C26 C14 1_555 1_555
Cd1_2 O3 1_555 1_555
O3_2 Cd1 1_555 1_555
O4_2 Cd1 1_555 1_555
N3 C24 1_555 1_555
N4 C24 1_555 1_555
N5 C17 1_555 1_555
N6 C17 1_555 1_555
O4 Cd1_2 1_555 1_555
C4 C5 1_555 1_555
C5 C6 1_555 1_555
C9 C10 1_555 1_555
C15 C16 1_555 1_555
C21 C25 1_555 1_555
C22 C23 1_555 1_555

#END
