
#######################################################################
#
#                 Cambridge Crystallographic Data Centre
#                                CCDC 
#
#######################################################################
#
# If this CIF has been generated from an entry in the Cambridge 
# Structural Database, then it will include bibliographic, chemical, 
# crystal, experimental, refinement or atomic coordinate data resulting 
# from the CCDC's data processing and validation procedures.
#
#######################################################################

data_HAYNEC
_symmetry_cell_setting           monoclinic
_symmetry_space_group_name_H-M   'P 21/c'
_symmetry_Int_Tables_number      14
_space_group_name_Hall           '-P 2ybc'
loop_
_symmetry_equiv_pos_site_id
_symmetry_equiv_pos_as_xyz
1 x,y,z
2 -x,1/2+y,1/2-z
3 -x,-y,-z
4 x,1/2-y,1/2+z
_cell_length_a                   15.142(2)
_cell_length_b                   9.6734(13)
_cell_length_c                   21.313(3)
_cell_angle_alpha                90
_cell_angle_beta                 107.445(3)
_cell_angle_gamma                90
_cell_volume                     2978.23
loop_
_atom_site_label
_atom_site_type_symbol
_atom_site_fract_x
_atom_site_fract_y
_atom_site_fract_z
C1 C 0.3740(2) 0.7528(3) 0.29214(19)
C2 C 0.2736(2) 0.7716(3) 0.25997(18)
C3 C 0.2389(3) 0.7855(4) 0.1934(2)
H1 H 0.2792 0.7920 0.1681
C4 C 0.1436(3) 0.7902(4) 0.1629(2)
H2 H 0.1210 0.7955 0.1173
C5 C 0.0817(2) 0.7869(4) 0.2000(2)
C6 C 0.1170(2) 0.7801(4) 0.2663(2)
H3 H 0.0773 0.7823 0.2922
C7 C 0.2110(2) 0.7702(3) 0.2959(2)
H4 H 0.2332 0.7622 0.3415
C8 C -0.0824(3) 0.7829(4) 0.2049(2)
C9 C -0.1346(3) 0.8984(4) 0.2073(2)
H5 H -0.1226 0.9813 0.1893
C10 C -0.2044(3) 0.8919(4) 0.2363(2)
H6 H -0.2394 0.9702 0.2375
C11 C -0.2229(2) 0.7697(3) 0.26370(17)
C12 C -0.3046(3) 0.7581(4) 0.28836(19)
C13 C -0.1686(2) 0.6567(4) 0.2626(2)
H7 H -0.1787 0.5747 0.2822
C14 C -0.0992(3) 0.6628(4) 0.2329(2)
H8 H -0.0639 0.5847 0.2319
C15 C -0.0547(3) 0.7657(4) 0.1000(2)
H9 H -0.0172 0.8111 0.0764
H10 H -0.1161 0.8062 0.0855
C16 C -0.0618(3) 0.6100(4) 0.0825(2)
C17 C -0.1327(3) 0.5656(5) 0.0317(3)
H11 H -0.1743 0.6293 0.0064
C18 C -0.1442(3) 0.4278(5) 0.0170(3)
H12 H -0.1964 0.3987 -0.0160
C19 C -0.0806(3) 0.3322(4) 0.0497(2)
C20 C -0.0882(3) 0.1837(5) 0.0329(2)
C21 C -0.0069(3) 0.3772(5) 0.0987(2)
H13 H 0.0383 0.3148 0.1211
C22 C 0.0016(3) 0.5167(4) 0.1156(2)
H14 H 0.0517 0.5462 0.1502
C23 C 0.5734(3) 1.0407(4) 0.3660(2)
H15 H 0.5594 1.0478 0.3205
C24 C 0.5840(3) 1.1605(4) 0.4018(3)
H16 H 0.5780 1.2461 0.3810
C25 C 0.6034(4) 1.1522(4) 0.4681(3)
H17 H 0.6106 1.2325 0.4931
C26 C 0.6127(3) 1.0233(4) 0.4988(2)
C27 C 0.6320(3) 1.0064(5) 0.5675(2)
H18 H 0.6385 1.0839 0.5943
C28 C 0.6411(3) 0.8794(5) 0.5946(2)
H19 H 0.6543 0.8709 0.6399
C29 C 0.6310(3) 0.7583(4) 0.55564(19)
C30 C 0.6373(3) 0.6263(5) 0.5807(2)
H20 H 0.6486 0.6131 0.6256
C31 C 0.6274(4) 0.5170(5) 0.5410(2)
H21 H 0.6317 0.4276 0.5577
C32 C 0.6105(3) 0.5400(4) 0.4740(2)
H22 H 0.6062 0.4634 0.4469
C33 C 0.6116(2) 0.7712(4) 0.48698(16)
C34 C 0.6021(2) 0.9068(3) 0.45838(18)
Mn1 Mn 0.55471(3) 0.71229(5) 0.33754(2)
N1 N 0.58186(19) 0.9152(3) 0.39227(14)
N2 N 0.60042(19) 0.6619(3) 0.44679(14)
N3 N -0.0154(2) 0.7910(4) 0.16835(18)
O1 O 0.43035(16) 0.7798(2) 0.26018(12)
O2 O 0.40297(16) 0.7085(2) 0.34972(13)
O3 O -0.37284(18) 0.8342(3) 0.26431(14)
O4 O -0.30488(16) 0.6694(3) 0.33120(14)
O6 O 0.52533(15) 0.4896(2) 0.31171(12)
H25 H 0.5622 0.4606 0.2914
H26 H 0.4717 0.4808 0.2883
O7 O -0.0275(3) 0.1014(3) 0.0524(2)
O8 O -0.1701(2) 0.1488(3) -0.00651(18)
H27 H -0.1699 0.0666 -0.0158
Mn1_2 Mn -0.44529(3) 0.71229(5) 0.33754(2)
O3_2 O 0.62716(18) 0.8342(3) 0.26431(14)
O4_2 O 0.69512(16) 0.6694(3) 0.33120(14)
O5 O 0.8366(2) 0.9035(3) 0.94467(16)
H23 H 0.7988 0.8752 0.9089
H24 H 0.8773 0.8417 0.9599
loop_
_geom_bond_atom_site_label_1
_geom_bond_atom_site_label_2
_geom_bond_site_symmetry_1
_geom_bond_site_symmetry_2
C1 C2 1_555 1_555
C2 C3 1_555 1_555
C3 H1 1_555 1_555
C4 C3 1_555 1_555
H2 C4 1_555 1_555
C5 C4 1_555 1_555
C6 C5 1_555 1_555
H3 C6 1_555 1_555
C7 C2 1_555 1_555
H4 C7 1_555 1_555
C8 C9 1_555 1_555
C9 H5 1_555 1_555
C10 C9 1_555 1_555
H6 C10 1_555 1_555
C11 C10 1_555 1_555
C12 C11 1_555 1_555
C13 C11 1_555 1_555
H7 C13 1_555 1_555
C14 C8 1_555 1_555
H8 C14 1_555 1_555
C15 H9 1_555 1_555
H10 C15 1_555 1_555
C16 C15 1_555 1_555
C17 C16 1_555 1_555
H11 C17 1_555 1_555
C18 C17 1_555 1_555
H12 C18 1_555 1_555
C19 C18 1_555 1_555
C20 C19 1_555 1_555
C21 C19 1_555 1_555
H13 C21 1_555 1_555
C22 C16 1_555 1_555
H14 C22 1_555 1_555
C23 H15 1_555 1_555
C24 C23 1_555 1_555
H16 C24 1_555 1_555
C25 C24 1_555 1_555
H17 C25 1_555 1_555
C26 C25 1_555 1_555
C27 C26 1_555 1_555
H18 C27 1_555 1_555
C28 C27 1_555 1_555
H19 C28 1_555 1_555
C29 C28 1_555 1_555
C30 C29 1_555 1_555
H20 C30 1_555 1_555
C31 C30 1_555 1_555
H21 C31 1_555 1_555
C32 C31 1_555 1_555
H22 C32 1_555 1_555
C33 C29 1_555 1_555
C34 C26 1_555 1_555
Mn1 N1 1_555 1_555
N1 C23 1_555 1_555
N2 C32 1_555 1_555
N3 C5 1_555 1_555
O1 C1 1_555 1_555
O2 C1 1_555 1_555
O3 C12 1_555 1_555
O4 C12 1_555 1_555
O5 H23 1_555 1_555
H24 O5 1_555 1_555
O6 Mn1 1_555 1_555
H25 O6 1_555 1_555
H26 O6 1_555 1_555
O7 C20 1_555 1_555
O8 C20 1_555 1_555
H27 O8 1_555 1_555
Mn1_2 O3 1_555 1_555
O3_2 Mn1 1_555 1_555
O4_2 Mn1 1_555 1_555
C6 C7 1_555 1_555
C8 N3 1_555 1_555
C13 C14 1_555 1_555
C15 N3 1_555 1_555
C21 C22 1_555 1_555
C33 C34 1_555 1_555
C33 N2 1_555 1_555
C34 N1 1_555 1_555
Mn1 N2 1_555 1_555
Mn1 O1 1_555 1_555
Mn1 O2 1_555 1_555
O4 Mn1_2 1_555 1_555

#END
