
#######################################################################
#
#                 Cambridge Crystallographic Data Centre
#                                CCDC 
#
#######################################################################
#
# If this CIF has been generated from an entry in the Cambridge 
# Structural Database, then it will include bibliographic, chemical, 
# crystal, experimental, refinement or atomic coordinate data resulting 
# from the CCDC's data processing and validation procedures.
#
#######################################################################

data_HAYPOO
_symmetry_cell_setting           monoclinic
_symmetry_space_group_name_H-M   'P 21/c'
_symmetry_Int_Tables_number      14
_space_group_name_Hall           '-P 2ybc'
loop_
_symmetry_equiv_pos_site_id
_symmetry_equiv_pos_as_xyz
1 x,y,z
2 -x,1/2+y,1/2-z
3 -x,-y,-z
4 x,1/2-y,1/2+z
_cell_length_a                   7.5725(15)
_cell_length_b                   13.339(3)
_cell_length_c                   18.881(5)
_cell_angle_alpha                90
_cell_angle_beta                 113.42(3)
_cell_angle_gamma                90
_cell_volume                     1750.04
loop_
_atom_site_label
_atom_site_type_symbol
_atom_site_fract_x
_atom_site_fract_y
_atom_site_fract_z
Cu1 Cu 0.80735(3) 0.279641(17) 0.187220(13)
O1 O 0.7606(2) 0.35512(11) 0.26878(8)
O2 O 0.8142(3) 0.22327(10) 0.34881(10)
O3 O 0.81345(18) 0.34055(9) 0.46325(7)
O4 O 0.85663(19) 0.29295(10) 0.60515(8)
O5 O 0.7608(3) 0.44502(11) 0.62582(9)
N1 N 0.5261(2) 0.27626(12) 0.12482(10)
N2 N 0.2161(3) 0.26486(15) 0.08964(13)
H1 H 0.1064 0.2561 0.0923
N3 N 1.0749(2) 0.25501(13) 0.25855(10)
N4 N 1.3374(3) 0.17360(18) 0.32566(13)
H2 H 1.4207 0.1260 0.3413
C1 C 0.7868(3) 0.31396(15) 0.33307(12)
C2 C 0.7783(3) 0.38283(14) 0.39338(11)
C3 C 0.7261(3) 0.47994(15) 0.39320(13)
H3 H 0.6959 0.5251 0.3525
C4 C 0.7265(3) 0.49939(15) 0.46681(12)
H4 H 0.6956 0.5597 0.4839
C5 C 0.7806(3) 0.41319(14) 0.50774(11)
C6 C 0.8006(3) 0.38347(15) 0.58597(11)
C7 C 0.4381(3) 0.29424(18) 0.04730(13)
H5 H 0.5004 0.3088 0.0149
C8 C 0.2447(3) 0.28732(19) 0.02537(16)
H6 H 0.1507 0.2963 -0.0241
C9 C 0.3867(3) 0.25861(16) 0.14793(14)
H7 H 0.4053 0.2437 0.1985
C10 C 1.1938(3) 0.3177(2) 0.31533(13)
H8 H 1.1667 0.3834 0.3240
C11 C 1.3568(3) 0.2670(2) 0.35633(16)
H9 H 1.4627 0.2915 0.3979
C12 C 1.1672(3) 0.16913(18) 0.26737(14)
H10 H 1.1190 0.1128 0.2367
O6 O 0.8545(3) 0.42683(13) 0.13588(11)
H11 H 0.847(4) 0.423(2) 0.0890(10)
H12 H 0.963(3) 0.454(2) 0.1640(13)
Cu1C Cu 0.80735(3) 0.220359(17) 0.687220(13)
O4C O 0.85663(19) 0.20705(10) 0.10515(8)
O7 O 0.1888(3) 0.54338(12) 0.22157(10)
H13 H 0.224(4) 0.5465(18) 0.2687(9)
H14 H 0.182(3) 0.6015(13) 0.2018(13)
O8 O 0.4606(3) 0.49932(15) 0.16719(15)
H15 H 0.552(3) 0.458(2) 0.1840(19)
H16 H 0.387(4) 0.500(2) 0.1888(18)
O9 O 0.2270(4) 0.5961(2) 0.02425(14)
H17 H 0.264(5) 0.5371(16) 0.046(2)
H18 H 0.202(5) 0.636(2) 0.0576(18)
loop_
_geom_bond_atom_site_label_1
_geom_bond_atom_site_label_2
_geom_bond_site_symmetry_1
_geom_bond_site_symmetry_2
Cu1 O1 1_555 1_555
O1 C1 1_555 1_555
O2 C1 1_555 1_555
O3 C2 1_555 1_555
O4 C6 1_555 1_555
O5 C6 1_555 1_555
N1 Cu1 1_555 1_555
N2 H1 1_555 1_555
N3 Cu1 1_555 1_555
N4 H2 1_555 1_555
C1 C2 1_555 1_555
C2 C3 1_555 1_555
C3 H3 1_555 1_555
C4 C3 1_555 1_555
H4 C4 1_555 1_555
C5 O3 1_555 1_555
C6 C5 1_555 1_555
C7 N1 1_555 1_555
H5 C7 1_555 1_555
C8 N2 1_555 1_555
H6 C8 1_555 1_555
C9 N1 1_555 1_555
H7 C9 1_555 1_555
C10 N3 1_555 1_555
H8 C10 1_555 1_555
C11 N4 1_555 1_555
H9 C11 1_555 1_555
C12 N3 1_555 1_555
H10 C12 1_555 1_555
O6 Cu1 1_555 1_555
H11 O6 1_555 1_555
H12 O6 1_555 1_555
O7 H13 1_555 1_555
H14 O7 1_555 1_555
O8 H15 1_555 1_555
H16 O8 1_555 1_555
O9 H17 1_555 1_555
H18 O9 1_555 1_555
Cu1C O4 1_555 1_555
O4C Cu1 1_555 1_555
N2 C9 1_555 1_555
N4 C12 1_555 1_555
C4 C5 1_555 1_555
C7 C8 1_555 1_555
C10 C11 1_555 1_555

#END
