
#######################################################################
#
#                 Cambridge Crystallographic Data Centre
#                                CCDC 
#
#######################################################################
#
# If this CIF has been generated from an entry in the Cambridge 
# Structural Database, then it will include bibliographic, chemical, 
# crystal, experimental, refinement or atomic coordinate data resulting 
# from the CCDC's data processing and validation procedures.
#
#######################################################################

data_HAYRIK
_symmetry_cell_setting           triclinic
_symmetry_space_group_name_H-M   'P -1'
_symmetry_Int_Tables_number      2
_space_group_name_Hall           '-P 1'
loop_
_symmetry_equiv_pos_site_id
_symmetry_equiv_pos_as_xyz
1 x,y,z
2 -x,-y,-z
_cell_length_a                   7.4577(15)
_cell_length_b                   9.0399(19)
_cell_length_c                   9.792(2)
_cell_angle_alpha                86.895(2)
_cell_angle_beta                 86.510(2)
_cell_angle_gamma                84.707(2)
_cell_volume                     655.329
loop_
_atom_site_label
_atom_site_type_symbol
_atom_site_fract_x
_atom_site_fract_y
_atom_site_fract_z
Ce1 Ce 0.35253(3) 0.35579(2) 0.893484(19)
O1 O 0.3692(4) 0.0660(3) 0.8693(3)
O2 O 0.5196(3) 0.1955(3) 0.7120(3)
O3 O 0.1354(3) 0.5879(3) 0.8893(3)
O4 O -0.1202(3) 0.7225(3) 0.9418(2)
O5 O 0.6258(4) 0.2197(3) 1.0107(3)
O6 O -0.5225(3) 0.5295(3) 0.7017(3)
O7 O -0.3601(3) 0.5169(3) 0.8819(2)
N1 N -0.1240(4) 0.6974(3) 0.2905(3)
N2 N 0.1340(4) 0.7564(4) 0.3659(3)
C1 C -0.1286(5) 0.6770(4) 0.4337(3)
C2 C 0.0343(5) 0.7443(4) 0.2582(4)
H1 H 0.0745 0.7672 0.1685
C3 C 0.0331(5) 0.7135(4) 0.4812(4)
C4 C 0.0694(5) 0.6973(4) 0.6188(4)
H2 H 0.1804 0.7177 0.6484
C5 C -0.2613(5) 0.6264(4) 0.5254(4)
H3 H -0.3695 0.6017 0.4941
C6 C -0.2310(5) 0.6129(4) 0.6647(3)
C7 C -0.0645(5) 0.6498(4) 0.7111(4)
C8 C 0.4720(5) 0.0728(4) 0.7632(4)
C9 C -0.3800(5) 0.5515(4) 0.7549(3)
C10 C -0.0166(5) 0.6502(4) 0.8595(3)
C11 C 0.5451(11) -0.0663(6) 0.6954(7)
H4 H 0.6391 -0.1166 0.7478
H5 H 0.5930 -0.0413 0.6047
H6 H 0.4501 -0.1302 0.6901
H7 H 0.629(6) 0.133(3) 1.043(5)
H8 H 0.717(5) 0.259(4) 1.032(5)
H9 H 0.239(3) 0.788(5) 0.365(5)
Ce1A Ce -0.35253(3) 0.64421(2) 1.106516(19)
Ce1_2 Ce -0.64747(3) 0.35579(2) 0.893484(19)
Ce1A_2 Ce -0.35253(3) 0.64421(2) 0.106516(19)
O4A O 0.1202(3) 0.2775(3) 1.0582(2)
O6_2 O 0.4775(3) 0.5295(3) 0.7017(3)
O7A O 0.3601(3) 0.4831(3) 1.1181(2)
O7_2 O 0.6399(3) 0.5169(3) 0.8819(2)
N1A N 0.1240(4) 0.3026(3) 0.7095(3)
loop_
_geom_bond_atom_site_label_1
_geom_bond_atom_site_label_2
_geom_bond_site_symmetry_1
_geom_bond_site_symmetry_2
Ce1 O1 1_555 1_555
O1 C8 1_555 1_555
O2 Ce1 1_555 1_555
O3 Ce1 1_555 1_555
O4 C10 1_555 1_555
O5 Ce1 1_555 1_555
O6 C9 1_555 1_555
O7 C9 1_555 1_555
N1 C1 1_555 1_555
N2 C2 1_555 1_555
C1 C3 1_555 1_555
C2 N1 1_555 1_555
H1 C2 1_555 1_555
C3 N2 1_555 1_555
C4 C3 1_555 1_555
H2 C4 1_555 1_555
C5 C1 1_555 1_555
H3 C5 1_555 1_555
C6 C5 1_555 1_555
C7 C4 1_555 1_555
C8 O2 1_555 1_555
C9 C6 1_555 1_555
C10 O3 1_555 1_555
C11 C8 1_555 1_555
H4 C11 1_555 1_555
H5 C11 1_555 1_555
H6 C11 1_555 1_555
H7 O5 1_555 1_555
H8 O5 1_555 1_555
H9 N2 1_555 1_555
Ce1A O4 1_555 1_555
Ce1_2 O6 1_555 1_555
Ce1A_2 N1 1_555 1_555
O4A Ce1 1_555 1_555
O6_2 Ce1 1_555 1_555
O7A Ce1 1_555 1_555
O7_2 Ce1 1_555 1_555
N1A Ce1 1_555 1_555
O7 Ce1A 1_555 1_555
O7 Ce1_2 1_555 1_555
C6 C7 1_555 1_555
C7 C10 1_555 1_555

#END
