
#######################################################################
#
#                 Cambridge Crystallographic Data Centre
#                                CCDC 
#
#######################################################################
#
# If this CIF has been generated from an entry in the Cambridge 
# Structural Database, then it will include bibliographic, chemical, 
# crystal, experimental, refinement or atomic coordinate data resulting 
# from the CCDC's data processing and validation procedures.
#
#######################################################################

data_HAYSIK
_symmetry_cell_setting           monoclinic
_symmetry_space_group_name_H-M   'P 21/n'
_symmetry_Int_Tables_number      14
_space_group_name_Hall           '-P 2yn'
loop_
_symmetry_equiv_pos_site_id
_symmetry_equiv_pos_as_xyz
1 x,y,z
2 1/2-x,1/2+y,1/2-z
3 -x,-y,-z
4 1/2+x,1/2-y,1/2+z
_cell_length_a                   11.649(4)
_cell_length_b                   11.774(4)
_cell_length_c                   13.292(4)
_cell_angle_alpha                90
_cell_angle_beta                 109.939(5)
_cell_angle_gamma                90
_cell_volume                     1713.79
loop_
_atom_site_label
_atom_site_type_symbol
_atom_site_fract_x
_atom_site_fract_y
_atom_site_fract_z
Mn1 Mn 0.96099(5) 0.91660(5) 0.82927(5)
N1 N 0.7678(3) 0.8427(3) 0.7819(3)
N2 N 0.8964(4) 1.0262(3) 0.6736(3)
N3 N 1.1266(3) 0.9953(3) 0.8108(3)
O1 O 0.8457(3) 0.6427(3) 0.6186(2)
O2 O 0.9577(2) 0.7699(2) 0.7340(2)
O3 O 0.6049(2) 0.5376(2) 0.5869(2)
O4 O 0.5624(3) 0.6788(2) 0.4688(2)
C1 C 0.7470(3) 0.7637(3) 0.7064(3)
C2 C 0.6282(4) 0.7268(3) 0.6506(3)
C3 C 0.5338(3) 0.7657(3) 0.6736(3)
H1 H 0.4548 0.7402 0.6375
C4 C 0.5569(4) 0.8427(4) 0.7507(4)
H2 H 0.4921 0.8715 0.7686
C5 C 0.6730(4) 0.8818(4) 0.8054(4)
H3 H 0.6850 0.9359 0.8590
C6 C 0.8595(3) 0.7200(3) 0.6836(3)
C7 C 0.5969(3) 0.6389(4) 0.5620(3)
C8 C 0.7824(5) 1.0457(5) 0.6077(4)
H4 H 0.7178 1.0152 0.6248
C9 C 0.7565(7) 1.1097(6) 0.5148(5)
H5 H 0.6759 1.1217 0.4712
C10 C 0.8485(7) 1.1543(5) 0.4882(5)
H6 H 0.8319 1.1959 0.4254
C11 C 0.9679(6) 1.1380(5) 0.5546(4)
C12 C 1.0703(7) 1.1886(5) 0.5362(5)
H7 H 1.0573 1.2332 0.4755
C13 C 1.1823(7) 1.1742(5) 0.6025(5)
H8 H 1.2468 1.2064 0.5863
C14 C 1.2077(6) 1.1096(4) 0.6996(5)
C15 C 1.3247(6) 1.0938(5) 0.7744(6)
H9 H 1.3917 1.1261 0.7625
C16 C 1.3413(5) 1.0315(5) 0.8644(5)
H10 H 1.4191 1.0211 0.9142
C17 C 1.2392(4) 0.9832(4) 0.8807(4)
H11 H 1.2504 0.9412 0.9426
C18 C 1.1102(5) 1.0573(4) 0.7210(4)
C19 C 0.9883(5) 1.0721(4) 0.6482(4)
Mn1A Mn 0.53901(5) 0.41660(5) 0.67073(5)
Mn1C Mn 0.46099(5) 0.58340(5) 0.32927(5)
O3A O 0.8951(2) 1.0376(2) 0.9131(2)
O4C O 1.0624(3) 0.8212(2) 0.9688(2)
O5 O 0.5104(9) 0.9206(6) 0.4219(7)
H12 H 0.541(5) 0.8578(12) 0.462(3)
H13 H 0.566(2) 0.970(2) 0.460(3)
loop_
_geom_bond_atom_site_label_1
_geom_bond_atom_site_label_2
_geom_bond_site_symmetry_1
_geom_bond_site_symmetry_2
Mn1 N1 1_555 1_555
N1 C1 1_555 1_555
N2 Mn1 1_555 1_555
N3 Mn1 1_555 1_555
O1 C6 1_555 1_555
O2 Mn1 1_555 1_555
O3 C7 1_555 1_555
O4 C7 1_555 1_555
C1 C2 1_555 1_555
C2 C3 1_555 1_555
C3 H1 1_555 1_555
C4 C3 1_555 1_555
H2 C4 1_555 1_555
C5 N1 1_555 1_555
H3 C5 1_555 1_555
C6 O2 1_555 1_555
C7 C2 1_555 1_555
C8 N2 1_555 1_555
H4 C8 1_555 1_555
C9 C8 1_555 1_555
H5 C9 1_555 1_555
C10 C9 1_555 1_555
H6 C10 1_555 1_555
C11 C10 1_555 1_555
C12 C11 1_555 1_555
H7 C12 1_555 1_555
C13 C12 1_555 1_555
H8 C13 1_555 1_555
C14 C13 1_555 1_555
C15 C14 1_555 1_555
H9 C15 1_555 1_555
C16 C15 1_555 1_555
H10 C16 1_555 1_555
C17 N3 1_555 1_555
H11 C17 1_555 1_555
C18 N3 1_555 1_555
C19 N2 1_555 1_555
O5 H12 1_555 1_555
H13 O5 1_555 1_555
Mn1A O3 1_555 1_555
Mn1C O4 1_555 1_555
O3A Mn1 1_555 1_555
O4C Mn1 1_555 1_555
C1 C6 1_555 1_555
C4 C5 1_555 1_555
C11 C19 1_555 1_555
C14 C18 1_555 1_555
C16 C17 1_555 1_555
C18 C19 1_555 1_555

#END
