
#######################################################################
#
#                 Cambridge Crystallographic Data Centre
#                                CCDC 
#
#######################################################################
#
# If this CIF has been generated from an entry in the Cambridge 
# Structural Database, then it will include bibliographic, chemical, 
# crystal, experimental, refinement or atomic coordinate data resulting 
# from the CCDC's data processing and validation procedures.
#
#######################################################################

data_HAYSOR
_symmetry_cell_setting           monoclinic
_symmetry_space_group_name_H-M   'P 21/c'
_symmetry_Int_Tables_number      14
_space_group_name_Hall           '-P 2ybc'
loop_
_symmetry_equiv_pos_site_id
_symmetry_equiv_pos_as_xyz
1 x,y,z
2 -x,1/2+y,1/2-z
3 -x,-y,-z
4 x,1/2-y,1/2+z
_cell_length_a                   7.9792(16)
_cell_length_b                   12.516(3)
_cell_length_c                   8.7110(17)
_cell_angle_alpha                90
_cell_angle_beta                 113.84(3)
_cell_angle_gamma                90
_cell_volume                     795.721
loop_
_atom_site_label
_atom_site_type_symbol
_atom_site_fract_x
_atom_site_fract_y
_atom_site_fract_z
Co1 Co 1.0000 0.0000 1.0000
Na1 Na 0.60461(14) 0.11777(8) 1.03513(13)
Na2 Na 0.44536(14) 0.37904(8) 0.83883(13)
O1 O 1.0085(2) 0.01241(12) 0.7650(2)
H1 H 0.9089 0.0001 0.6807
O2 O 0.8226(2) 0.12772(13) 0.9279(2)
O3 O 0.6796(2) 0.27068(15) 0.7861(2)
O4 O 1.3026(2) 0.01125(14) 0.5009(2)
O5 O 1.4004(2) 0.01690(13) 0.7789(2)
O6 O 1.2231(2) 0.10114(14) 1.0518(2)
O7 O 1.3273(2) 0.22348(13) 0.9263(2)
C1 C 1.0686(3) 0.12024(19) 0.7524(3)
C2 C 0.9109(3) 0.19974(19) 0.7122(3)
H2 H 0.9616 0.2709 0.7193
H3 H 0.8274 0.1886 0.5961
C3 C 0.7974(3) 0.1990(2) 0.8171(3)
C4 C 1.1394(3) 0.12288(19) 0.6139(3)
H4 H 1.0377 0.1087 0.5075
H5 H 1.1833 0.1944 0.6082
C5 C 1.2912(3) 0.0446(2) 0.6347(3)
C6 C 1.2209(3) 0.1507(2) 0.9229(3)
Na1B Na 1.39539(14) -0.11777(8) 0.96487(13)
Na1C Na 0.60461(14) 0.38223(8) 0.53513(13)
Na1_2 Na 1.60461(14) 0.11777(8) 1.03513(13)
Na1A Na 1.39539(14) -0.38223(8) 1.46487(13)
Na1B_2 Na 0.39539(14) -0.11777(8) 0.96487(13)
Na2B Na 1.55464(14) -0.37904(8) 1.16117(13)
Na2C Na 1.44536(14) 0.12096(8) 1.33883(13)
Na2_2 Na 1.44536(14) 0.37904(8) 0.83883(13)
Na2A Na 0.55464(14) -0.12096(8) 0.66117(13)
Na2B_2 Na 0.55464(14) -0.37904(8) 1.16117(13)
O1B O 0.9915(2) -0.01241(12) 1.2350(2)
H1B H 1.0911 -0.0001 1.3193
O2B O 1.1774(2) -0.12772(13) 1.0721(2)
O3B O 1.3204(2) -0.27068(15) 1.2139(2)
O3C O 0.6796(2) 0.22932(15) 1.2861(2)
O3A O 1.3204(2) -0.22932(15) 0.7139(2)
O4B O 0.6974(2) -0.01125(14) 1.4991(2)
O5B O 0.5996(2) -0.01690(13) 1.2211(2)
O5_2 O 0.4004(2) 0.01690(13) 0.7789(2)
O5B_2 O 1.5996(2) -0.01690(13) 1.2211(2)
O6B O 0.7769(2) -0.10114(14) 0.9482(2)
O6C O 0.2231(2) 0.39886(14) 0.5518(2)
O6A O 1.7769(2) -0.39886(14) 1.4482(2)
O7B O 0.6727(2) -0.22348(13) 1.0737(2)
O7_2 O 0.3273(2) 0.22348(13) 0.9263(2)
O7B_2 O 1.6727(2) -0.22348(13) 1.0737(2)
C1B C 0.9314(3) -0.12024(19) 1.2476(3)
C2B C 1.0891(3) -0.19974(19) 1.2878(3)
H2B H 1.0384 -0.2709 1.2807
H3B H 1.1726 -0.1886 1.4039
C3B C 1.2026(3) -0.1990(2) 1.1829(3)
C4B C 0.8606(3) -0.12288(19) 1.3861(3)
H4B H 0.9623 -0.1087 1.4925
H5B H 0.8167 -0.1944 1.3918
C5B C 0.7088(3) -0.0446(2) 1.3653(3)
C6B C 0.7791(3) -0.1507(2) 1.0771(3)
loop_
_geom_bond_atom_site_label_1
_geom_bond_atom_site_label_2
_geom_bond_site_symmetry_1
_geom_bond_site_symmetry_2
Co1 O1 1_555 1_555
Na1 O2 1_555 1_555
Na2 O3 1_555 1_555
O1 H1 1_555 1_555
O2 Co1 1_555 1_555
O3 C3 1_555 1_555
O4 C5 1_555 1_555
O5 C5 1_555 1_555
O6 Co1 1_555 1_555
O7 C6 1_555 1_555
C1 O1 1_555 1_555
C2 C1 1_555 1_555
H2 C2 1_555 1_555
H3 C2 1_555 1_555
C3 O2 1_555 1_555
C4 C1 1_555 1_555
H4 C4 1_555 1_555
H5 C4 1_555 1_555
C5 C4 1_555 1_555
C6 O6 1_555 1_555
Na1B O5 1_555 1_555
Na1C O3 1_555 1_555
Na1_2 O5 1_555 1_555
Na1A O3B 1_555 1_555
Na1B_2 O5B 1_555 1_555
Na2B O3B 1_555 1_555
Na2C O6 1_555 1_555
Na2_2 O7 1_555 1_555
Na2A O6B 1_555 1_555
Na2B_2 O7B 1_555 1_555
O1B Co1 1_555 1_555
H1B O1B 1_555 1_555
O2B Co1 1_555 1_555
O3B C3B 1_555 1_555
O3C Na1 1_555 1_555
O3A Na1B 1_555 1_555
O4B C5B 1_555 1_555
O5B Na1 1_555 1_555
O5_2 Na1 1_555 1_555
O5B_2 Na1B 1_555 1_555
O6B Co1 1_555 1_555
O6C Na2 1_555 1_555
O6A Na2B 1_555 1_555
O7B Na1B_2 1_555 1_555
O7_2 Na1 1_555 1_555
O7B_2 Na1B 1_555 1_555
C1B O1B 1_555 1_555
C2B C1B 1_555 1_555
H2B C2B 1_555 1_555
H3B C2B 1_555 1_555
C3B O2B 1_555 1_555
C4B C1B 1_555 1_555
H4B C4B 1_555 1_555
H5B C4B 1_555 1_555
C5B O5B 1_555 1_555
C6B O6B 1_555 1_555
Na2 O7_2 1_555 1_555
O7 Na1_2 1_555 1_555
C1 C6 1_555 1_555
C2 C3 1_555 1_555
Na1B O2B 1_555 1_555
Na1_2 O5B_2 1_555 1_555
Na1B_2 O5_2 1_555 1_555
Na2B O7B_2 1_555 1_555
O7B C6B 1_555 1_555
C1B C6B 1_555 1_555
C2B C3B 1_555 1_555
C4B C5B 1_555 1_555

#END
