
#######################################################################
#
#                 Cambridge Crystallographic Data Centre
#                                CCDC 
#
#######################################################################
#
# If this CIF has been generated from an entry in the Cambridge 
# Structural Database, then it will include bibliographic, chemical, 
# crystal, experimental, refinement or atomic coordinate data resulting 
# from the CCDC's data processing and validation procedures.
#
#######################################################################

data_HAYTEI
_symmetry_cell_setting           monoclinic
_symmetry_space_group_name_H-M   'P 2/c'
_symmetry_Int_Tables_number      13
_space_group_name_Hall           '-P 2yc'
loop_
_symmetry_equiv_pos_site_id
_symmetry_equiv_pos_as_xyz
1 x,y,z
2 -x,y,1/2-z
3 -x,-y,-z
4 x,-y,1/2+z
_cell_length_a                   16.070(4)
_cell_length_b                   9.471(2)
_cell_length_c                   23.540(6)
_cell_angle_alpha                90
_cell_angle_beta                 107.685(4)
_cell_angle_gamma                90
_cell_volume                     3413.45
loop_
_atom_site_label
_atom_site_type_symbol
_atom_site_fract_x
_atom_site_fract_y
_atom_site_fract_z
Eu1 Eu 0.296251(16) 0.50554(3) 0.097315(11)
Ca1 Ca 0.5000 0.0000 0.0000
Ca2 Ca 0.5000 1.00350(17) 0.2500
Ca3 Ca 0.0000 0.0000 0.0000
O1 O 0.3736(2) 0.3233(4) 0.16621(16)
O2 O 0.4013(3) 0.2000(4) 0.25127(16)
O3 O 0.1929(2) 0.6789(4) 0.11297(16)
O4 O 0.1130(3) 0.7722(5) 0.16683(18)
O5 O 0.3886(2) 0.6872(4) 0.15705(16)
O6 O 0.5155(2) 0.8058(4) 0.18919(16)
O7 O 0.3344(2) 0.3313(4) 0.03339(16)
O8 O 0.4335(2) 0.2095(4) 0.00428(16)
O9 O 0.2999(2) 0.6871(4) 0.02212(16)
O10 O 0.2495(3) 0.7858(4) -0.06830(18)
O11 O 0.1823(2) 0.3273(4) 0.08688(16)
O12 O 0.0604(3) 0.2142(4) 0.03527(18)
O13 O 0.6116(2) 0.0662(4) 0.08852(17)
H1 H 0.647(2) 0.113(5) 0.075(2)
H2 H 0.639(3) 0.012(5) 0.1167(18)
O14 O 0.4145(3) -0.0939(4) 0.05348(17)
H3 H 0.419(4) -0.043(5) 0.0840(16)
H4 H 0.380(3) -0.162(4) 0.052(2)
O15 O 0.3478(3) 0.9194(4) 0.21233(17)
H5 H 0.306(3) 0.974(5) 0.194(2)
H6 H 0.354(4) 0.854(4) 0.1894(18)
O16 O 0.4648(3) 1.0983(4) 0.14661(18)
H7 H 0.504(4) 1.121(7) 0.135(3)
H8 H 0.437(4) 1.172(7) 0.148(3)
O17 O 0.1405(3) -0.0914(5) 0.0396(2)
H9 H 0.164(3) -0.161(4) 0.061(3)
H10 H 0.179(3) -0.033(5) 0.036(3)
O18 O -0.0140(3) -0.0554(5) 0.0933(2)
H11 H -0.0678(13) -0.048(7) 0.090(3)
H12 H 0.011(3) -0.118(6) 0.118(3)
N1 N 0.2624(3) 0.4885(5) 0.19488(18)
N2 N 0.4526(3) 0.5088(4) 0.09633(18)
N3 N 0.1693(3) 0.5085(5) 0.00041(19)
C1 C 0.3627(4) 0.2941(6) 0.2164(2)
C2 C 0.2960(4) 0.3823(6) 0.2330(2)
C3 C 0.2680(4) 0.3533(7) 0.2820(2)
H13 H 0.2916 0.2765 0.3078
C4 C 0.2045(4) 0.4396(8) 0.2922(3)
H14 H 0.1838 0.4223 0.3253
C5 C 0.1711(4) 0.5518(7) 0.2539(3)
H15 H 0.1283 0.6128 0.2608
C6 C 0.2015(4) 0.5727(6) 0.2057(2)
C7 C 0.1659(4) 0.6849(6) 0.1585(2)
C8 C 0.4686(4) 0.7088(6) 0.1610(2)
C9 C 0.5084(3) 0.6070(5) 0.1267(2)
C10 C 0.5932(4) 0.6158(6) 0.1249(2)
H16 H 0.6311 0.6876 0.1464
C11 C 0.6218(4) 0.5190(6) 0.0915(2)
H17 H 0.6800 0.5233 0.0896
C12 C 0.5646(4) 0.4142(6) 0.0603(2)
H18 H 0.5832 0.3458 0.0372
C13 C 0.4797(3) 0.4130(5) 0.0640(2)
C14 C 0.4114(4) 0.3098(6) 0.0316(2)
C15 C 0.2437(4) 0.7017(6) -0.0285(3)
C16 C 0.1646(4) 0.6081(6) -0.0416(2)
C17 C 0.0927(4) 0.6196(6) -0.0923(2)
H19 H 0.0898 0.6920 -0.1207
C18 C 0.0254(4) 0.5236(7) -0.1002(3)
H20 H -0.0243 0.5285 -0.1346
C19 C 0.0312(4) 0.4197(6) -0.0574(3)
H21 H -0.0142 0.3524 -0.0622
C20 C 0.1038(3) 0.4157(6) -0.0079(2)
C21 C 0.1156(4) 0.3100(6) 0.0415(2)
Eu1B Eu 0.703749(16) -0.50554(3) -0.097315(11)
Eu1_2 Eu 0.296251(16) 1.50554(3) 0.097315(11)
Ca2_2 Ca 0.5000 0.00350(17) 0.2500
Ca2B Ca 0.5000 -1.00350(17) -0.2500
Ca3_2 Ca 1.0000 0.0000 0.0000
O1_2 O 0.3736(2) 1.3233(4) 0.16621(16)
O1B O 0.6264(2) -0.3233(4) -0.16621(16)
O2_2 O 0.4013(3) 1.2000(4) 0.25127(16)
O2A O 0.5987(3) 1.2000(4) 0.24873(16)
O3_2 O 0.1929(2) 1.6789(4) 0.11297(16)
O3B O 0.8071(2) -0.6789(4) -0.11297(16)
O4_2 O 0.1130(3) 1.7722(5) 0.16683(18)
O5B O 0.6114(2) -0.6872(4) -0.15705(16)
O6B O 0.4845(2) -0.8058(4) -0.18919(16)
O6A O 0.4845(2) 0.8058(4) 0.31081(16)
O7B O 0.6656(2) -0.3313(4) -0.03339(16)
O8B O 0.5665(2) -0.2095(4) -0.00428(16)
O9B O 0.7001(2) -0.6871(4) -0.02212(16)
O10B O 0.7505(3) -0.7858(4) 0.06830(18)
O11B O 0.8177(2) -0.3273(4) -0.08688(16)
O12B O 0.9396(3) -0.2142(4) -0.03527(18)
O12B_2 O -0.0604(3) -0.2142(4) -0.03527(18)
O13B O 0.3884(2) -0.0662(4) -0.08852(17)
H1B H 0.353(2) -0.113(5) -0.075(2)
H2B H 0.361(3) -0.012(5) -0.1167(18)
O14B O 0.5855(3) 0.0939(4) -0.05348(17)
H3B H 0.581(4) 0.043(5) -0.0840(16)
H4B H 0.620(3) 0.162(4) -0.052(2)
O15A O 0.6522(3) 0.9194(4) 0.28767(17)
H5A H 0.694(3) 0.974(5) 0.306(2)
H6A H 0.646(4) 0.854(4) 0.3106(18)
O16A O 0.5352(3) 1.0983(4) 0.35339(18)
H7A H 0.496(4) 1.121(7) 0.365(3)
H8A H 0.563(4) 1.172(7) 0.352(3)
O17B O -0.1405(3) 0.0914(5) -0.0396(2)
H9B H -0.164(3) 0.161(4) -0.061(3)
H10B H -0.179(3) 0.033(5) -0.036(3)
O18B O 0.0140(3) 0.0554(5) -0.0933(2)
H11B H 0.0678(13) 0.048(7) -0.090(3)
H12B H -0.011(3) 0.118(6) -0.118(3)
N1_2 N 0.2624(3) 1.4885(5) 0.19488(18)
N1B N 0.7376(3) -0.4885(5) -0.19488(18)
N2B N 0.5474(3) -0.5088(4) -0.09633(18)
N3B N 0.8307(3) -0.5085(5) -0.00041(19)
C1_2 C 0.3627(4) 1.2941(6) 0.2164(2)
C2_2 C 0.2960(4) 1.3823(6) 0.2330(2)
C3_2 C 0.2680(4) 1.3533(7) 0.2820(2)
H13_2 H 0.2916 1.2765 0.3078
C4_2 C 0.2045(4) 1.4396(8) 0.2922(3)
H14_2 H 0.1838 1.4223 0.3253
C5_2 C 0.1711(4) 1.5518(7) 0.2539(3)
H15_2 H 0.1283 1.6128 0.2608
C6_2 C 0.2015(4) 1.5727(6) 0.2057(2)
C7_2 C 0.1659(4) 1.6849(6) 0.1585(2)
C8B C 0.5314(4) -0.7088(6) -0.1610(2)
C9B C 0.4916(3) -0.6070(5) -0.1267(2)
C10B C 0.4068(4) -0.6158(6) -0.1249(2)
H16B H 0.3689 -0.6876 -0.1464
C11B C 0.3782(4) -0.5190(6) -0.0915(2)
H17B H 0.3200 -0.5233 -0.0896
C12B C 0.4354(4) -0.4142(6) -0.0603(2)
H18B H 0.4168 -0.3458 -0.0372
C13B C 0.5203(3) -0.4130(5) -0.0640(2)
C14B C 0.5886(4) -0.3098(6) -0.0316(2)
C15B C 0.7563(4) -0.7017(6) 0.0285(3)
C16B C 0.8354(4) -0.6081(6) 0.0416(2)
C17B C 0.9073(4) -0.6196(6) 0.0923(2)
H19B H 0.9102 -0.6920 0.1207
C18B C 0.9746(4) -0.5236(7) 0.1002(3)
H20B H 1.0243 -0.5285 0.1346
C19B C 0.9688(4) -0.4197(6) 0.0574(3)
H21B H 1.0142 -0.3524 0.0622
C20B C 0.8962(3) -0.4157(6) 0.0079(2)
C21B C 0.8844(4) -0.3100(6) -0.0415(2)
O19 O 0.2379(3) 0.0820(5) 0.9928(2)
H22 H 0.211(4) 0.121(6) 0.9594(17)
H23 H 0.282(3) 0.132(6) 1.011(2)
O20 O 0.2972(3) 0.9062(5) 0.3187(2)
H24 H 0.314(4) 0.890(7) 0.2883(16)
H25 H 0.253(3) 0.960(6) 0.309(2)
O21 O 0.1986(3) 0.0862(5) 0.15634(18)
H26 H 0.196(4) 0.152(4) 0.1311(18)
H27 H 0.176(4) 0.011(3) 0.139(2)
O22 O 0.1015(10) 0.9136(14) 0.8459(6)
O23 O 0.1373(5) 0.9971(10) 0.2459(3)
O24 O 0.8088(12) 0.744(2) 0.1251(9)
O25? O 0.0826(8) 1.1594(14) 0.2299(5)
loop_
_geom_bond_atom_site_label_1
_geom_bond_atom_site_label_2
_geom_bond_site_symmetry_1
_geom_bond_site_symmetry_2
Eu1 O1 1_555 1_555
Ca1 O8 1_555 1_555
Ca2 O6 1_555 1_555
Ca3 O12 1_555 1_555
O1 C1 1_555 1_555
O2 C1 1_555 1_555
O3 Eu1 1_555 1_555
O4 C7 1_555 1_555
O5 Eu1 1_555 1_555
O6 C8 1_555 1_555
O7 Eu1 1_555 1_555
O8 C14 1_555 1_555
O9 Eu1 1_555 1_555
O10 C15 1_555 1_555
O11 Eu1 1_555 1_555
O12 C21 1_555 1_555
O13 Ca1 1_555 1_555
H1 O13 1_555 1_555
H2 O13 1_555 1_555
O14 Ca1 1_555 1_555
H3 O14 1_555 1_555
H4 O14 1_555 1_555
O15 Ca2 1_555 1_555
H5 O15 1_555 1_555
H6 O15 1_555 1_555
O16 Ca2 1_555 1_555
H7 O16 1_555 1_555
H8 O16 1_555 1_555
O17 Ca3 1_555 1_555
H9 O17 1_555 1_555
H10 O17 1_555 1_555
O18 Ca3 1_555 1_555
H11 O18 1_555 1_555
H12 O18 1_555 1_555
N1 Eu1 1_555 1_555
N2 Eu1 1_555 1_555
N3 Eu1 1_555 1_555
C1 C2 1_555 1_555
C2 N1 1_555 1_555
C3 C2 1_555 1_555
H13 C3 1_555 1_555
C4 C3 1_555 1_555
H14 C4 1_555 1_555
C5 C4 1_555 1_555
H15 C5 1_555 1_555
C6 N1 1_555 1_555
C7 O3 1_555 1_555
C8 O5 1_555 1_555
C9 N2 1_555 1_555
C10 C9 1_555 1_555
H16 C10 1_555 1_555
C11 C10 1_555 1_555
H17 C11 1_555 1_555
C12 C11 1_555 1_555
H18 C12 1_555 1_555
C13 N2 1_555 1_555
C14 O7 1_555 1_555
C15 O9 1_555 1_555
C16 N3 1_555 1_555
C17 C16 1_555 1_555
H19 C17 1_555 1_555
C18 C17 1_555 1_555
H20 C18 1_555 1_555
C19 C18 1_555 1_555
H21 C19 1_555 1_555
C20 N3 1_555 1_555
C21 O11 1_555 1_555
O19 H22 1_555 1_555
H23 O19 1_555 1_555
O20 H24 1_555 1_555
H25 O20 1_555 1_555
O21 H26 1_555 1_555
H27 O21 1_555 1_555
Eu1B O1B 1_555 1_555
Eu1_2 O1_2 1_555 1_555
Ca2_2 O2 1_555 1_555
Ca2B O6B 1_555 1_555
Ca3_2 O12B 1_555 1_555
O1_2 C1_2 1_555 1_555
O2_2 Ca2 1_555 1_555
O2A Ca2 1_555 1_555
O3_2 Eu1_2 1_555 1_555
O3B Eu1B 1_555 1_555
O4_2 C7_2 1_555 1_555
O5B Eu1B 1_555 1_555
O6B C8B 1_555 1_555
O6A Ca2 1_555 1_555
O7B Eu1B 1_555 1_555
O8B Ca1 1_555 1_555
O9B Eu1B 1_555 1_555
O10B C15B 1_555 1_555
O11B Eu1B 1_555 1_555
O12B C21B 1_555 1_555
O12B_2 Ca3 1_555 1_555
O13B Ca1 1_555 1_555
H1B O13B 1_555 1_555
H2B O13B 1_555 1_555
O14B Ca1 1_555 1_555
H3B O14B 1_555 1_555
H4B O14B 1_555 1_555
O15A Ca2 1_555 1_555
H5A O15A 1_555 1_555
H6A O15A 1_555 1_555
O16A Ca2 1_555 1_555
H7A O16A 1_555 1_555
H8A O16A 1_555 1_555
O17B Ca3 1_555 1_555
H9B O17B 1_555 1_555
H10B O17B 1_555 1_555
O18B Ca3 1_555 1_555
H11B O18B 1_555 1_555
H12B O18B 1_555 1_555
N1_2 Eu1_2 1_555 1_555
N1B Eu1B 1_555 1_555
N2B Eu1B 1_555 1_555
N3B Eu1B 1_555 1_555
C1_2 O2_2 1_555 1_555
C2_2 N1_2 1_555 1_555
C3_2 C2_2 1_555 1_555
H13_2 C3_2 1_555 1_555
C4_2 C3_2 1_555 1_555
H14_2 C4_2 1_555 1_555
C5_2 C4_2 1_555 1_555
H15_2 C5_2 1_555 1_555
C6_2 N1_2 1_555 1_555
C7_2 O3_2 1_555 1_555
C8B O5B 1_555 1_555
C9B N2B 1_555 1_555
C10B C9B 1_555 1_555
H16B C10B 1_555 1_555
C11B C10B 1_555 1_555
H17B C11B 1_555 1_555
C12B C11B 1_555 1_555
H18B C12B 1_555 1_555
C13B N2B 1_555 1_555
C14B O7B 1_555 1_555
C15B O9B 1_555 1_555
C16B N3B 1_555 1_555
C17B C16B 1_555 1_555
H19B C17B 1_555 1_555
C18B C17B 1_555 1_555
H20B C18B 1_555 1_555
C19B C18B 1_555 1_555
H21B C19B 1_555 1_555
C20B N3B 1_555 1_555
C21B O11B 1_555 1_555
C5 C6 1_555 1_555
C6 C7 1_555 1_555
C8 C9 1_555 1_555
C12 C13 1_555 1_555
C13 C14 1_555 1_555
C15 C16 1_555 1_555
C19 C20 1_555 1_555
C20 C21 1_555 1_555
O8B C14B 1_555 1_555
C1_2 C2_2 1_555 1_555
C5_2 C6_2 1_555 1_555
C6_2 C7_2 1_555 1_555
C8B C9B 1_555 1_555
C12B C13B 1_555 1_555
C13B C14B 1_555 1_555
C15B C16B 1_555 1_555
C19B C20B 1_555 1_555
C20B C21B 1_555 1_555

#END
