
#######################################################################
#
#                 Cambridge Crystallographic Data Centre
#                                CCDC 
#
#######################################################################
#
# If this CIF has been generated from an entry in the Cambridge 
# Structural Database, then it will include bibliographic, chemical, 
# crystal, experimental, refinement or atomic coordinate data resulting 
# from the CCDC's data processing and validation procedures.
#
#######################################################################

data_HAYTOR
_symmetry_cell_setting           monoclinic
_symmetry_space_group_name_H-M   'P 21/n'
_symmetry_Int_Tables_number      14
_space_group_name_Hall           '-P 2yn'
loop_
_symmetry_equiv_pos_site_id
_symmetry_equiv_pos_as_xyz
1 x,y,z
2 1/2-x,1/2+y,1/2-z
3 -x,-y,-z
4 1/2+x,1/2-y,1/2+z
_cell_length_a                   7.6164(15)
_cell_length_b                   15.542(3)
_cell_length_c                   15.186(3)
_cell_angle_alpha                90
_cell_angle_beta                 94.60(3)
_cell_angle_gamma                90
_cell_volume                     1791.84
loop_
_atom_site_label
_atom_site_type_symbol
_atom_site_fract_x
_atom_site_fract_y
_atom_site_fract_z
Zn1 Zn 0.72774(3) 0.167873(15) 0.660579(15)
O1 O 0.7047(2) 0.32590(10) 0.66007(12)
O2 O 0.4961(2) 0.22907(9) 0.64081(11)
O3 O 0.3637(2) 0.60832(10) 0.59409(12)
O4 O 0.5511(2) 0.66050(11) 0.75065(11)
O5 O 0.7980(3) 0.63536(15) 0.69337(13)
N1 N 0.8197(2) 0.17276(10) 0.53422(11)
N2 N 0.6913(2) 0.03875(11) 0.62042(11)
C1 C 0.8804(3) 0.23990(14) 0.49221(15)
C2 C 0.9360(3) 0.23427(16) 0.40784(16)
C3 C 0.9261(3) 0.15744(17) 0.36500(15)
C4 C 0.8588(3) 0.08464(14) 0.40578(13)
C5 C 0.8403(3) 0.00179(16) 0.36500(15)
C6 C 0.7742(3) -0.06482(15) 0.40754(15)
C7 C 0.7216(3) -0.05586(13) 0.49553(15)
C8 C 0.6546(3) -0.12345(15) 0.54405(18)
C9 C 0.6115(3) -0.10942(15) 0.62797(18)
C10 C 0.6306(3) -0.02705(15) 0.66462(15)
C11 C 0.7384(2) 0.02465(12) 0.53764(13)
C12 C 0.8075(2) 0.09603(12) 0.49157(12)
C13 C 0.5474(3) 0.30644(13) 0.64579(13)
C14 C 0.4079(3) 0.37551(12) 0.63429(12)
C15 C 0.2313(3) 0.35438(15) 0.63704(16)
C16 C 0.1055(3) 0.41841(16) 0.62768(18)
C17 C 0.1536(3) 0.50241(16) 0.61370(17)
C18 C 0.3307(3) 0.52352(13) 0.61017(14)
C19 C 0.4584(3) 0.46022(13) 0.62220(13)
C20 C 0.5407(4) 0.63428(16) 0.59473(15)
C21 C 0.6348(4) 0.64308(14) 0.68622(15)
H1 H 0.8858 0.2930 0.5206
H2 H 0.9797 0.2826 0.3808
H3 H 0.9640 0.1530 0.3085
H4 H 0.8747 -0.0059 0.3081
H5 H 0.7622 -0.1179 0.3794
H6 H 0.6398 -0.1778 0.5189
H7 H 0.5694 -0.1543 0.6609
H8 H 0.5997 -0.0181 0.7219
H9 H 0.1980 0.2975 0.6451
H10 H -0.0127 0.4047 0.6308
H11 H 0.0679 0.5450 0.6066
H12 H 0.5771 0.4744 0.6222
H13 H 0.5452 0.6892 0.5647
H14 H 0.6037 0.5928 0.5615
Zn1A Zn 0.77226(3) 0.667873(15) 0.839421(15)
O4A O 0.9489(2) 0.16050(11) 0.74935(11)
O5A O 0.7020(3) 0.13536(15) 0.80663(13)
loop_
_geom_bond_atom_site_label_1
_geom_bond_atom_site_label_2
_geom_bond_site_symmetry_1
_geom_bond_site_symmetry_2
Zn1 O1 1_555 1_555
O1 C13 1_555 1_555
O2 Zn1 1_555 1_555
O3 C18 1_555 1_555
O4 C21 1_555 1_555
O5 C21 1_555 1_555
N1 Zn1 1_555 1_555
N2 Zn1 1_555 1_555
C1 N1 1_555 1_555
C2 C1 1_555 1_555
C3 C2 1_555 1_555
C4 C3 1_555 1_555
C5 C4 1_555 1_555
C6 C5 1_555 1_555
C7 C6 1_555 1_555
C8 C7 1_555 1_555
C9 C8 1_555 1_555
C10 N2 1_555 1_555
C11 N2 1_555 1_555
C12 N1 1_555 1_555
C13 O2 1_555 1_555
C14 C13 1_555 1_555
C15 C14 1_555 1_555
C16 C15 1_555 1_555
C17 C16 1_555 1_555
C18 C17 1_555 1_555
C19 C14 1_555 1_555
C20 O3 1_555 1_555
C21 C20 1_555 1_555
H1 C1 1_555 1_555
H2 C2 1_555 1_555
H3 C3 1_555 1_555
H4 C5 1_555 1_555
H5 C6 1_555 1_555
H6 C8 1_555 1_555
H7 C9 1_555 1_555
H8 C10 1_555 1_555
H9 C15 1_555 1_555
H10 C16 1_555 1_555
H11 C17 1_555 1_555
H12 C19 1_555 1_555
H13 C20 1_555 1_555
H14 C20 1_555 1_555
Zn1A O4 1_555 1_555
O4A Zn1 1_555 1_555
O5A Zn1 1_555 1_555
O5 Zn1A 1_555 1_555
C4 C12 1_555 1_555
C7 C11 1_555 1_555
C9 C10 1_555 1_555
C11 C12 1_555 1_555
C18 C19 1_555 1_555

#END
