
#######################################################################
#
#                 Cambridge Crystallographic Data Centre
#                                CCDC 
#
#######################################################################
#
# If this CIF has been generated from an entry in the Cambridge 
# Structural Database, then it will include bibliographic, chemical, 
# crystal, experimental, refinement or atomic coordinate data resulting 
# from the CCDC's data processing and validation procedures.
#
#######################################################################

data_HAYTUY
_symmetry_cell_setting           monoclinic
_symmetry_space_group_name_H-M   'P 21/m'
_symmetry_Int_Tables_number      11
_space_group_name_Hall           '-P 2yb'
loop_
_symmetry_equiv_pos_site_id
_symmetry_equiv_pos_as_xyz
1 x,y,z
2 -x,1/2+y,-z
3 -x,-y,-z
4 x,1/2-y,z
_cell_length_a                   5.1997(10)
_cell_length_b                   27.188(5)
_cell_length_c                   6.4347(13)
_cell_angle_alpha                90
_cell_angle_beta                 111.24(3)
_cell_angle_gamma                90
_cell_volume                     847.877
loop_
_atom_site_label
_atom_site_type_symbol
_atom_site_fract_x
_atom_site_fract_y
_atom_site_fract_z
Ag1 Ag 0.3011(3) 0.2500 0.2938(2)
Ni1 Ni 0.0000 0.5000 0.0000
N1 N 0.2323(14) 0.3299(2) 0.1956(11)
N2 N 0.1250(11) 0.4272(2) 0.0665(9)
N3 N 0.958(4) 0.2500 0.613(4)
C1 C 0.3158(15) 0.3494(3) 0.0409(14)
H1 H 0.4108 0.3299 -0.0261
C2 C 0.2639(14) 0.3976(3) -0.0208(12)
H2 H 0.3278 0.4102 -0.1276
C3 C 0.0911(16) 0.3592(3) 0.2839(12)
H3 H 0.0267 0.3464 0.3900
C4 C 0.0390(14) 0.4078(2) 0.2212(10)
C5 C -0.1318(13) 0.4409(2) 0.3121(10)
O1 O -0.1725(10) 0.48437(18) 0.2343(8)
O2 O -0.2190(12) 0.4236(2) 0.4499(9)
O3 O 0.838(3) 0.2500 0.405(3)
O4 O 0.822(4) 0.2500 0.728(4)
O5 O 1.220(3) 0.2500 0.687(3)
O6 O 0.3534(10) 0.5258(2) 0.2428(8)
H4 H 0.5129 0.5184 0.2445
H5 H 0.3385 0.5345 0.3648
Ag1_2 Ag 1.3011(3) 0.2500 0.2938(2)
Ag1A Ag -0.3011(3) 0.7500 -0.2938(2)
N1C N 0.2323(14) 0.1701(2) 0.1956(11)
N1B N -0.2323(14) 0.6701(2) -0.1956(11)
N2B N -0.1250(11) 0.5728(2) -0.0665(9)
C1B C -0.3158(15) 0.6506(3) -0.0409(14)
H1B H -0.4108 0.6701 0.0261
C2B C -0.2639(14) 0.6024(3) 0.0208(12)
H2B H -0.3278 0.5898 0.1276
C3B C -0.0911(16) 0.6408(3) -0.2839(12)
H3B H -0.0267 0.6536 -0.3900
C4B C -0.0390(14) 0.5922(2) -0.2212(10)
C5B C 0.1318(13) 0.5591(2) -0.3121(10)
O1B O 0.1725(10) 0.51563(18) -0.2343(8)
O2B O 0.2190(12) 0.5764(2) -0.4499(9)
O5_2 O 0.220(3) 0.2500 0.687(3)
O6B O -0.3534(10) 0.4742(2) -0.2428(8)
H4B H -0.5129 0.4816 -0.2445
H5B H -0.3385 0.4655 -0.3648
O7 O 0.638(2) 0.3502(4) 0.7228(15)
H6 H 0.6676 0.3681 0.6253
H7 H 0.6292 0.3193 0.6999
loop_
_geom_bond_atom_site_label_1
_geom_bond_atom_site_label_2
_geom_bond_site_symmetry_1
_geom_bond_site_symmetry_2
Ag1 N1 1_555 1_555
Ni1 N2 1_555 1_555
N1 C1 1_555 1_555
N2 C2 1_555 1_555
N3 O3 1_555 1_555
C1 H1 1_555 1_555
C2 C1 1_555 1_555
H2 C2 1_555 1_555
C3 N1 1_555 1_555
H3 C3 1_555 1_555
C4 N2 1_555 1_555
C5 C4 1_555 1_555
O1 Ni1 1_555 1_555
O2 C5 1_555 1_555
O3 Ag1 1_555 1_555
O4 N3 1_555 1_555
O5 N3 1_555 1_555
O6 Ni1 1_555 1_555
H4 O6 1_555 1_555
H5 O6 1_555 1_555
O7 H6 1_555 1_555
H7 O7 1_555 1_555
Ag1_2 O5 1_555 1_555
Ag1A N1B 1_555 1_555
N1C Ag1 1_555 1_555
N1B C1B 1_555 1_555
N2B Ni1 1_555 1_555
C1B H1B 1_555 1_555
C2B N2B 1_555 1_555
H2B C2B 1_555 1_555
C3B N1B 1_555 1_555
H3B C3B 1_555 1_555
C4B N2B 1_555 1_555
C5B C4B 1_555 1_555
O1B Ni1 1_555 1_555
O2B C5B 1_555 1_555
O5_2 Ag1 1_555 1_555
O6B Ni1 1_555 1_555
H4B O6B 1_555 1_555
H5B O6B 1_555 1_555
C3 C4 1_555 1_555
C5 O1 1_555 1_555
C1B C2B 1_555 1_555
C3B C4B 1_555 1_555
C5B O1B 1_555 1_555

#END
