
#######################################################################
#
#                 Cambridge Crystallographic Data Centre
#                                CCDC 
#
#######################################################################
#
# If this CIF has been generated from an entry in the Cambridge 
# Structural Database, then it will include bibliographic, chemical, 
# crystal, experimental, refinement or atomic coordinate data resulting 
# from the CCDC's data processing and validation procedures.
#
#######################################################################

data_HAYTAE
_symmetry_cell_setting           monoclinic
_symmetry_space_group_name_H-M   'P 21/n'
_symmetry_Int_Tables_number      14
_space_group_name_Hall           '-P 2yn'
loop_
_symmetry_equiv_pos_site_id
_symmetry_equiv_pos_as_xyz
1 x,y,z
2 1/2-x,1/2+y,1/2-z
3 -x,-y,-z
4 1/2+x,1/2-y,1/2+z
_cell_length_a                   10.4870(3)
_cell_length_b                   10.9123(3)
_cell_length_c                   12.9248(3)
_cell_angle_alpha                90
_cell_angle_beta                 99.694(2)
_cell_angle_gamma                90
_cell_volume                     1457.96
loop_
_atom_site_label
_atom_site_type_symbol
_atom_site_fract_x
_atom_site_fract_y
_atom_site_fract_z
Eu1 Eu 0.19538(2) 0.471828(18) 0.142087(15)
C1 C 0.3314(5) 0.5083(4) 0.5245(4)
H1 H 0.3248 0.5679 0.5747
C2 C 0.3857(4) 0.3967(4) 0.5540(3)
H2 H 0.4170 0.3801 0.6243
C3 C 0.3934(4) 0.3081(4) 0.4773(3)
C4 C 0.3480(4) 0.3388(4) 0.3733(3)
C5 C 0.2865(4) 0.5315(4) 0.4197(3)
H3 H 0.2492 0.6073 0.4008
C6 C 0.3560(4) 0.2542(4) 0.2820(3)
C7 C 0.4542(4) 0.1855(4) 0.5113(3)
C8 C -0.0245(5) 0.4395(4) 0.3294(4)
H4 H -0.1158 0.4238 0.3164
H5 H -0.0096 0.5262 0.3342
H6 H 0.0137 0.4012 0.3942
C9 C 0.2592(5) 0.3714(5) -0.1019(4)
H7 H 0.3221 0.3790 -0.1476
H8 H 0.1840 0.4189 -0.1292
H9 H 0.2353 0.2869 -0.0974
Cl1 Cl 0.41214(10) 0.62123(9) 0.17815(8)
N1 N 0.2947(3) 0.4493(3) 0.3441(3)
O1 O 0.5723(3) 0.1882(2) 0.5493(2)
O2 O 0.3829(3) 0.0928(2) 0.5058(2)
O3 O 0.3174(3) 0.2950(2) 0.1916(2)
O4 O 0.4007(3) 0.1474(2) 0.2999(2)
O5 O 0.3136(3) 0.4156(3) 0.0010(2)
O6 O 0.0332(3) 0.3900(3) 0.2445(2)
H14 H 0.3905 0.3848 0.0202
H15 H 0.0268 0.3152 0.2582
Eu1C Eu 0.69538(2) 0.028172(18) 0.642087(15)
Eu1A Eu 0.30462(2) -0.028172(18) 0.357913(15)
O1C O 0.0723(3) 0.3118(2) 0.0493(2)
O2A O 0.1171(3) 0.5928(2) -0.0058(2)
O4A O 0.0993(3) 0.6474(2) 0.2001(2)
C10 C 0.6250(6) 0.3148(5) 0.1466(4)
H10 H 0.7143 0.3136 0.1383
H11 H 0.6088 0.2489 0.1919
H12 H 0.6057 0.3915 0.1769
O7 O 0.5459(4) 0.3005(4) 0.0477(3)
H13 H 0.5784 0.3203 -0.0159
loop_
_geom_bond_atom_site_label_1
_geom_bond_atom_site_label_2
_geom_bond_site_symmetry_1
_geom_bond_site_symmetry_2
Eu1 Cl1 1_555 1_555
C1 H1 1_555 1_555
C2 C1 1_555 1_555
H2 C2 1_555 1_555
C3 C2 1_555 1_555
C4 C3 1_555 1_555
C5 C1 1_555 1_555
H3 C5 1_555 1_555
C6 C4 1_555 1_555
C7 C3 1_555 1_555
C8 H4 1_555 1_555
H5 C8 1_555 1_555
H6 C8 1_555 1_555
C9 H7 1_555 1_555
H8 C9 1_555 1_555
H9 C9 1_555 1_555
C10 H10 1_555 1_555
H11 C10 1_555 1_555
H12 C10 1_555 1_555
N1 Eu1 1_555 1_555
O1 C7 1_555 1_555
O2 C7 1_555 1_555
O3 Eu1 1_555 1_555
O4 C6 1_555 1_555
O5 Eu1 1_555 1_555
O6 Eu1 1_555 1_555
O7 C10 1_555 1_555
H13 O7 1_555 1_555
H14 O5 1_555 1_555
H15 O6 1_555 1_555
Eu1C O1 1_555 1_555
Eu1A O2 1_555 1_555
O1C Eu1 1_555 1_555
O2A Eu1 1_555 1_555
O4A Eu1 1_555 1_555
C4 N1 1_555 1_555
C5 N1 1_555 1_555
C6 O3 1_555 1_555
C8 O6 1_555 1_555
C9 O5 1_555 1_555
O4 Eu1A 1_555 1_555

#END
