
#######################################################################
#
#                 Cambridge Crystallographic Data Centre
#                                CCDC 
#
#######################################################################
#
# If this CIF has been generated from an entry in the Cambridge 
# Structural Database, then it will include bibliographic, chemical, 
# crystal, experimental, refinement or atomic coordinate data resulting 
# from the CCDC's data processing and validation procedures.
#
#######################################################################

data_HAYVOU
_symmetry_cell_setting           triclinic
_symmetry_space_group_name_H-M   'P -1'
_symmetry_Int_Tables_number      2
_space_group_name_Hall           '-P 1'
loop_
_symmetry_equiv_pos_site_id
_symmetry_equiv_pos_as_xyz
1 x,y,z
2 -x,-y,-z
_cell_length_a                   9.826(2)
_cell_length_b                   13.290(3)
_cell_length_c                   14.698(3)
_cell_angle_alpha                73.22(3)
_cell_angle_beta                 83.32(3)
_cell_angle_gamma                89.79(3)
_cell_volume                     1824.27
loop_
_atom_site_label
_atom_site_type_symbol
_atom_site_fract_x
_atom_site_fract_y
_atom_site_fract_z
Mn1 Mn 1.0000 0.0000 1.0000
Mn2 Mn 1.35919(5) -0.63958(4) 1.33585(3)
O1 O 1.0590(2) -0.06181(19) 1.14191(14)
O2 O 0.8883(3) -0.04824(19) 1.25050(16)
O3 O 1.3739(2) -0.35363(17) 1.21994(15)
H1 H 1.4278 -0.3959 1.2067
O4 O 1.3256(2) -0.48344(17) 1.35625(15)
O5 O 0.8257(2) -0.31041(18) 1.56693(15)
O6 O 0.9930(2) -0.42307(18) 1.60883(14)
H2 H 0.9436 -0.4415 1.6601
O7 O 0.9379(2) 0.14743(17) 1.02342(16)
O8 O 0.7940(3) 0.11542(18) 1.15860(16)
H3 H 0.8405 0.0635 1.1760
O9 O 0.9107(2) 0.49197(19) 0.77771(15)
O10 O 0.7326(2) 0.59048(17) 0.79841(14)
O11 O 0.5417(2) 0.55479(17) 1.13690(15)
O12 O 0.5501(2) 0.39777(18) 1.24445(15)
O13 O 0.7895(3) -0.0676(2) 1.03997(18)
O14 O 1.3583(3) -0.8009(2) 1.32168(19)
O17 O 1.4837(3) -0.6835(2) 1.45092(16)
H4 H 1.5691 -0.6935 1.4422
H5 H 1.4644 -0.7017 1.5114
N1 N 0.6125(4) -0.1482(3) 0.9988(3)
N2 N 1.4559(4) -0.9589(3) 1.3459(3)
C1 C 0.9950(3) -0.0916(2) 1.2233(2)
C2 C 1.3077(3) -0.3950(2) 1.3036(2)
C3 C 0.9364(3) -0.3492(2) 1.5497(2)
C4 C 1.0434(3) -0.1846(2) 1.2955(2)
C5 C 1.1553(3) -0.2386(2) 1.2693(2)
H6 H 1.2024 -0.2142 1.2081
C6 C 1.1979(3) -0.3284(2) 1.3335(2)
C7 C 1.1277(3) -0.3631(2) 1.4253(2)
H7 H 1.1563 -0.4225 1.4692
C8 C 1.0154(3) -0.3099(2) 1.4523(2)
C9 C 0.9725(3) -0.2219(2) 1.3868(2)
H8 H 0.8956 -0.1874 1.4039
C10 C 0.8490(3) 0.1743(2) 1.0777(2)
C11 C 0.8095(3) 0.5173(2) 0.8280(2)
C12 C 0.5792(3) 0.4611(2) 1.1633(2)
C13 C 0.7994(3) 0.2843(2) 1.0503(2)
C14 C 0.8347(3) 0.3501(2) 0.9576(2)
H9 H 0.8927 0.3267 0.9139
C15 C 0.7838(3) 0.4499(2) 0.9307(2)
C16 C 0.7011(3) 0.4862(2) 0.9972(2)
H10 H 0.6671 0.5535 0.9789
C17 C 0.6688(3) 0.4234(2) 1.0903(2)
C18 C 0.7168(3) 0.3212(2) 1.1157(2)
H11 H 0.6930 0.2774 1.1774
C19 C 0.7395(4) -0.1154(3) 0.9906(3)
H12 H 0.7990 -0.1296 0.9421
C20 C 0.5644(6) -0.2077(5) 0.9397(5)
H13 H 0.6388 -0.2159 0.8942
H14 H 0.4923 -0.1710 0.9064
H15 H 0.5303 -0.2757 0.9794
C21 C 0.5122(5) -0.1282(4) 1.0712(4)
H16 H 0.5550 -0.0888 1.1061
H17 H 0.4759 -0.1939 1.1144
H18 H 0.4392 -0.0888 1.0412
C22 C 1.4520(4) -0.8594(3) 1.3412(3)
H19 H 1.5305 -0.8301 1.3544
C23 C 1.3419(6) -1.0127(4) 1.3259(5)
H20 H 1.2694 -0.9646 1.3097
H21 H 1.3702 -1.0402 1.2733
H22 H 1.3097 -1.0695 1.3815
C24 C 1.5772(6) -1.0195(5) 1.3708(5)
H23 H 1.6461 -0.9750 1.3820
H24 H 1.5532 -1.0768 1.4276
H25 H 1.6121 -1.0467 1.3191
Mn2A Mn 0.64081(5) 0.63958(4) 0.66415(3)
Mn2A_2 Mn 0.64081(5) -0.36042(4) 1.66415(3)
Mn2_2 Mn 0.35919(5) 0.36042(4) 1.33585(3)
Mn2_3 Mn 1.35919(5) 0.36042(4) 0.33585(3)
Mn2A_3 Mn 1.64081(5) -0.36042(4) 0.66415(3)
O1A O 0.9410(2) 0.06181(19) 0.85809(14)
O2A O 1.1117(3) 0.04824(19) 0.74950(16)
O3A O 0.6261(2) 0.35363(17) 0.78006(15)
H1A H 0.5722 0.3959 0.7933
O4A O 0.6744(2) 0.48344(17) 0.64375(15)
O5A O 1.1743(2) 0.31041(18) 0.43307(15)
O5A_2 O 1.1743(2) -0.68959(18) 1.43307(15)
O5_2 O 0.8257(2) 0.68959(18) 0.56693(15)
O6A O 1.0070(2) 0.42307(18) 0.39117(14)
H2A H 1.0564 0.4415 0.3399
O7A O 1.0621(2) -0.14743(17) 0.97658(16)
O8A O 1.2060(3) -0.11542(18) 0.84140(16)
H3A H 1.1595 -0.0635 0.8240
O9A O 1.0893(2) -0.49197(19) 1.22229(15)
O10A O 1.2674(2) -0.59048(17) 1.20159(14)
O11A O 1.4583(2) -0.55479(17) 0.86310(15)
O12A O 1.4499(2) -0.39777(18) 0.75555(15)
O12_2 O 1.5501(2) -0.60223(18) 1.24445(15)
O12A_2 O 0.4499(2) 0.60223(18) 0.75555(15)
O13A O 1.2105(3) 0.0676(2) 0.96003(18)
O14A O 0.6417(3) 0.8009(2) 0.67832(19)
O17A O 0.5163(3) 0.6835(2) 0.54908(16)
H4A H 0.4309 0.6935 0.5578
H5A H 0.5356 0.7017 0.4886
N1A N 1.3875(4) 0.1482(3) 1.0012(3)
N2A N 0.5441(4) 0.9589(3) 0.6541(3)
C1A C 1.0050(3) 0.0916(2) 0.7767(2)
C2A C 0.6923(3) 0.3950(2) 0.6964(2)
C3A C 1.0636(3) 0.3492(2) 0.4503(2)
C4A C 0.9566(3) 0.1846(2) 0.7045(2)
C5A C 0.8447(3) 0.2386(2) 0.7307(2)
H6A H 0.7976 0.2142 0.7919
C6A C 0.8021(3) 0.3284(2) 0.6665(2)
C7A C 0.8723(3) 0.3631(2) 0.5747(2)
H7A H 0.8437 0.4225 0.5308
C8A C 0.9846(3) 0.3099(2) 0.5477(2)
C9A C 1.0275(3) 0.2219(2) 0.6132(2)
H8A H 1.1044 0.1874 0.5961
C10A C 1.1510(3) -0.1743(2) 0.9223(2)
C11A C 1.1905(3) -0.5173(2) 1.1720(2)
C12A C 1.4208(3) -0.4611(2) 0.8367(2)
C13A C 1.2006(3) -0.2843(2) 0.9497(2)
C14A C 1.1653(3) -0.3501(2) 1.0424(2)
H9A H 1.1073 -0.3267 1.0861
C15A C 1.2162(3) -0.4499(2) 1.0693(2)
C16A C 1.2989(3) -0.4862(2) 1.0028(2)
H10A H 1.3329 -0.5535 1.0211
C17A C 1.3312(3) -0.4234(2) 0.9097(2)
C18A C 1.2832(3) -0.3212(2) 0.8843(2)
H11A H 1.3070 -0.2774 0.8226
C19A C 1.2605(4) 0.1154(3) 1.0094(3)
H12A H 1.2010 0.1296 1.0579
C20A C 1.4356(6) 0.2077(5) 1.0603(5)
H13A H 1.3612 0.2159 1.1058
H14A H 1.5077 0.1710 1.0936
H15A H 1.4697 0.2757 1.0206
C21A C 1.4878(5) 0.1282(4) 0.9288(4)
H16A H 1.4450 0.0888 0.8939
H17A H 1.5241 0.1939 0.8856
H18A H 1.5608 0.0888 0.9588
C22A C 0.5480(4) 0.8594(3) 0.6588(3)
H19A H 0.4695 0.8301 0.6456
C23A C 0.6581(6) 1.0127(4) 0.6741(5)
H20A H 0.7306 0.9646 0.6903
H21A H 0.6298 1.0402 0.7267
H22A H 0.6903 1.0695 0.6185
C24A C 0.4228(6) 1.0195(5) 0.6292(5)
H23A H 0.3539 0.9750 0.6180
H24A H 0.4468 1.0768 0.5724
H25A H 0.3879 1.0467 0.6809
O15 O 0.7270(3) 0.2236(3) 0.4303(3)
N3 N 0.9217(3) 0.1958(3) 0.3439(3)
C25 C 0.8121(5) 0.2499(4) 0.3601(4)
H26 H 0.7995 0.3129 0.3142
C26 C 1.0185(5) 0.2309(4) 0.2581(3)
H27 H 0.9883 0.2951 0.2171
H28 H 1.0241 0.1780 0.2251
H29 H 1.1071 0.2427 0.2752
C27 C 0.9503(5) 0.0999(4) 0.4130(4)
H30 H 0.8797 0.0847 0.4664
H31 H 1.0372 0.1073 0.4346
H32 H 0.9533 0.0435 0.3842
O16 O 0.5669(4) 0.7479(2) 0.3566(2)
N4 N 0.7209(3) 0.6531(3) 0.2913(2)
C28 C 0.6549(5) 0.7381(3) 0.2937(3)
H33 H 0.6772 0.7976 0.2421
C29 C 0.8230(5) 0.6526(4) 0.2122(4)
H34 H 0.8311 0.7212 0.1666
H35 H 0.7959 0.6020 0.1819
H36 H 0.9097 0.6342 0.2355
C30 C 0.6934(5) 0.5587(4) 0.3695(4)
H37 H 0.6237 0.5713 0.4161
H38 H 0.7757 0.5383 0.3986
H39 H 0.6625 0.5034 0.3461
loop_
_geom_bond_atom_site_label_1
_geom_bond_atom_site_label_2
_geom_bond_site_symmetry_1
_geom_bond_site_symmetry_2
Mn1 O1 1_555 1_555
Mn2 O4 1_555 1_555
O1 C1 1_555 1_555
O2 C1 1_555 1_555
O3 H1 1_555 1_555
O4 C2 1_555 1_555
O5 C3 1_555 1_555
O6 H2 1_555 1_555
O7 Mn1 1_555 1_555
O8 H3 1_555 1_555
O9 C11 1_555 1_555
O10 C11 1_555 1_555
O11 C12 1_555 1_555
O12 C12 1_555 1_555
O13 Mn1 1_555 1_555
O14 Mn2 1_555 1_555
O15 C25 1_555 1_555
O16 C28 1_555 1_555
O17 Mn2 1_555 1_555
H4 O17 1_555 1_555
H5 O17 1_555 1_555
N1 C19 1_555 1_555
N2 C22 1_555 1_555
N3 C25 1_555 1_555
N4 C28 1_555 1_555
C1 C4 1_555 1_555
C2 O3 1_555 1_555
C3 O6 1_555 1_555
C4 C5 1_555 1_555
C5 H6 1_555 1_555
C6 C2 1_555 1_555
C7 C6 1_555 1_555
H7 C7 1_555 1_555
C8 C3 1_555 1_555
C9 C4 1_555 1_555
H8 C9 1_555 1_555
C10 O7 1_555 1_555
C11 C15 1_555 1_555
C12 C17 1_555 1_555
C13 C10 1_555 1_555
C14 C13 1_555 1_555
H9 C14 1_555 1_555
C15 C14 1_555 1_555
C16 C15 1_555 1_555
H10 C16 1_555 1_555
C17 C16 1_555 1_555
C18 C13 1_555 1_555
H11 C18 1_555 1_555
C19 O13 1_555 1_555
H12 C19 1_555 1_555
C20 N1 1_555 1_555
H13 C20 1_555 1_555
H14 C20 1_555 1_555
H15 C20 1_555 1_555
C21 N1 1_555 1_555
H16 C21 1_555 1_555
H17 C21 1_555 1_555
H18 C21 1_555 1_555
C22 O14 1_555 1_555
H19 C22 1_555 1_555
C23 N2 1_555 1_555
H20 C23 1_555 1_555
H21 C23 1_555 1_555
H22 C23 1_555 1_555
C24 N2 1_555 1_555
H23 C24 1_555 1_555
H24 C24 1_555 1_555
H25 C24 1_555 1_555
C25 H26 1_555 1_555
C26 N3 1_555 1_555
H27 C26 1_555 1_555
H28 C26 1_555 1_555
H29 C26 1_555 1_555
C27 N3 1_555 1_555
H30 C27 1_555 1_555
H31 C27 1_555 1_555
H32 C27 1_555 1_555
C28 H33 1_555 1_555
C29 N4 1_555 1_555
H34 C29 1_555 1_555
H35 C29 1_555 1_555
H36 C29 1_555 1_555
C30 N4 1_555 1_555
H37 C30 1_555 1_555
H38 C30 1_555 1_555
H39 C30 1_555 1_555
Mn2A O10 1_555 1_555
Mn2A_2 O5 1_555 1_555
Mn2_2 O12 1_555 1_555
Mn2_3 O5A 1_555 1_555
Mn2A_3 O12A 1_555 1_555
O1A Mn1 1_555 1_555
O2A C1A 1_555 1_555
O3A H1A 1_555 1_555
O4A Mn2A 1_555 1_555
O5A C3A 1_555 1_555
O5A_2 Mn2 1_555 1_555
O5_2 Mn2A 1_555 1_555
O6A H2A 1_555 1_555
O7A Mn1 1_555 1_555
O8A H3A 1_555 1_555
O9A C11A 1_555 1_555
O10A Mn2 1_555 1_555
O11A C12A 1_555 1_555
O12A C12A 1_555 1_555
O12_2 Mn2 1_555 1_555
O12A_2 Mn2A 1_555 1_555
O13A Mn1 1_555 1_555
O14A Mn2A 1_555 1_555
O17A Mn2A 1_555 1_555
H4A O17A 1_555 1_555
H5A O17A 1_555 1_555
N1A C19A 1_555 1_555
N2A C22A 1_555 1_555
C1A O1A 1_555 1_555
C2A O3A 1_555 1_555
C3A O6A 1_555 1_555
C4A C1A 1_555 1_555
C5A C4A 1_555 1_555
H6A C5A 1_555 1_555
C6A C2A 1_555 1_555
C7A C6A 1_555 1_555
H7A C7A 1_555 1_555
C8A C3A 1_555 1_555
C9A C4A 1_555 1_555
H8A C9A 1_555 1_555
C10A O7A 1_555 1_555
C11A O10A 1_555 1_555
C12A C17A 1_555 1_555
C13A C10A 1_555 1_555
C14A C13A 1_555 1_555
H9A C14A 1_555 1_555
C15A C11A 1_555 1_555
C16A C15A 1_555 1_555
H10A C16A 1_555 1_555
C17A C16A 1_555 1_555
C18A C13A 1_555 1_555
H11A C18A 1_555 1_555
C19A O13A 1_555 1_555
H12A C19A 1_555 1_555
C20A N1A 1_555 1_555
H13A C20A 1_555 1_555
H14A C20A 1_555 1_555
H15A C20A 1_555 1_555
C21A N1A 1_555 1_555
H16A C21A 1_555 1_555
H17A C21A 1_555 1_555
H18A C21A 1_555 1_555
C22A O14A 1_555 1_555
H19A C22A 1_555 1_555
C23A N2A 1_555 1_555
H20A C23A 1_555 1_555
H21A C23A 1_555 1_555
H22A C23A 1_555 1_555
C24A N2A 1_555 1_555
H23A C24A 1_555 1_555
H24A C24A 1_555 1_555
H25A C24A 1_555 1_555
O8 C10 1_555 1_555
C5 C6 1_555 1_555
C7 C8 1_555 1_555
C8 C9 1_555 1_555
C17 C18 1_555 1_555
O4A C2A 1_555 1_555
O8A C10A 1_555 1_555
C5A C6A 1_555 1_555
C7A C8A 1_555 1_555
C8A C9A 1_555 1_555
C14A C15A 1_555 1_555
C17A C18A 1_555 1_555

#END
