
#######################################################################
#
#                 Cambridge Crystallographic Data Centre
#                                CCDC 
#
#######################################################################
#
# If this CIF has been generated from an entry in the Cambridge 
# Structural Database, then it will include bibliographic, chemical, 
# crystal, experimental, refinement or atomic coordinate data resulting 
# from the CCDC's data processing and validation procedures.
#
#######################################################################

data_HAYWUB
_symmetry_cell_setting           tetragonal
_symmetry_space_group_name_H-M   'P 4/n c c'
_symmetry_Int_Tables_number      130
_space_group_name_Hall           '-P 4a 2ac'
loop_
_symmetry_equiv_pos_site_id
_symmetry_equiv_pos_as_xyz
1 x,y,z
2 1/2-x,1/2-y,z
3 1/2+x,-y,1/2-z
4 -x,1/2+y,1/2-z
5 -y,-x,1/2-z
6 1/2+y,1/2+x,1/2-z
7 y,1/2-x,z
8 1/2-y,x,z
9 -x,-y,-z
10 1/2+x,1/2+y,-z
11 1/2-x,y,1/2+z
12 x,1/2-y,1/2+z
13 y,x,1/2+z
14 1/2-y,1/2-x,1/2+z
15 -y,1/2+x,-z
16 1/2+y,-x,-z
_cell_length_a                   19.1896(12)
_cell_length_b                   19.1896(12)
_cell_length_c                   11.7791(7)
_cell_angle_alpha                90
_cell_angle_beta                 90
_cell_angle_gamma                90
_cell_volume                     4337.54
loop_
_atom_site_label
_atom_site_type_symbol
_atom_site_fract_x
_atom_site_fract_y
_atom_site_fract_z
Ag1 Ag 0.609538(18) 0.109538(18) 0.2500
Ag2 Ag 0.50888(2) 0.00888(2) -0.2500
Cl1 Cl 0.75336(6) 0.14145(8) 0.12337(12)
C1 C 0.7163(2) 0.0695(3) -0.0629(4)
H1 H 0.7629 0.0681 -0.0841
C2 C 0.6632(2) 0.0384(2) -0.1280(4)
C3 C 0.5798(2) 0.0805(2) -0.0068(3)
C4 C 0.6941(2) 0.1020(2) 0.0338(4)
C5 C 0.6956(3) -0.1000(3) 0.1164(7)
H2 H 0.6697 -0.1264 0.0615
H3 H 0.7212 -0.1312 0.1646
H4 H 0.7275 -0.0695 0.0779
C6 C 0.6458(2) -0.0572(2) 0.1876(4)
N1 N 0.59485(18) 0.04701(19) -0.1042(3)
N2 N 0.62757(17) 0.10540(17) 0.0671(3)
N3 N 0.6802(2) -0.0005(2) -0.2192(4)
H5 H 0.6480 -0.0189 -0.2601
H6 H 0.7233 -0.0068 -0.2365
N4 N 0.51296(18) 0.0897(2) 0.0200(3)
H7 H 0.4809 0.0744 -0.0244
H8 H 0.5019 0.1109 0.0818
O1 O 0.58238(16) -0.0629(2) 0.1635(3)
O2 O 0.66979(17) -0.01916(19) 0.2633(3)
Ag2H Ag 0.49112(2) -0.00888(2) 0.2500
Ag2_2 Ag 0.50888(2) 0.00888(2) 0.7500
Cl1E Cl 0.64145(8) 0.25336(6) 0.37663(12)
C1E C 0.5695(3) 0.2163(2) 0.5629(4)
H1E H 0.5681 0.2629 0.5841
C2E C 0.5384(2) 0.1632(2) 0.6280(4)
C3E C 0.5805(2) 0.0798(2) 0.5068(3)
C4E C 0.6020(2) 0.1941(2) 0.4662(4)
C5E C 0.4000(3) 0.1956(3) 0.3836(7)
H2E H 0.3736 0.1697 0.4385
H3E H 0.3688 0.2212 0.3354
H4E H 0.4305 0.2275 0.4221
C6E C 0.4428(2) 0.1458(2) 0.3124(4)
N1E N 0.54701(19) 0.09485(18) 0.6042(3)
N1E_2 N 0.54701(19) 0.09485(18) -0.3958(3)
N2E N 0.60540(17) 0.12757(17) 0.4329(3)
N3E N 0.4995(2) 0.1802(2) 0.7192(4)
H5E H 0.4811 0.1480 0.7601
H6E H 0.4932 0.2233 0.7365
N4E N 0.5897(2) 0.01296(18) 0.4800(3)
H7E H 0.5744 -0.0191 0.5244
H8E H 0.6109 0.0019 0.4182
O1E O 0.4371(2) 0.08238(16) 0.3365(3)
O1H O 0.41762(16) 0.0629(2) -0.1635(3)
O1M O 0.5629(2) -0.08238(16) -0.3365(3)
O2E O 0.48084(19) 0.16979(17) 0.2367(3)
loop_
_geom_bond_atom_site_label_1
_geom_bond_atom_site_label_2
_geom_bond_site_symmetry_1
_geom_bond_site_symmetry_2
Ag1 N2 1_555 1_555
Ag2 N1 1_555 1_555
Cl1 C4 1_555 1_555
C1 H1 1_555 1_555
C2 C1 1_555 1_555
C3 N1 1_555 1_555
C4 C1 1_555 1_555
C5 H2 1_555 1_555
H3 C5 1_555 1_555
H4 C5 1_555 1_555
C6 C5 1_555 1_555
N1 C2 1_555 1_555
N2 C3 1_555 1_555
N3 C2 1_555 1_555
H5 N3 1_555 1_555
H6 N3 1_555 1_555
N4 C3 1_555 1_555
H7 N4 1_555 1_555
H8 N4 1_555 1_555
O1 C6 1_555 1_555
O2 Ag1 1_555 1_555
Ag2H O1 1_555 1_555
Ag2_2 N1E 1_555 1_555
Cl1E C4E 1_555 1_555
C1E H1E 1_555 1_555
C2E C1E 1_555 1_555
C3E N1E 1_555 1_555
C4E C1E 1_555 1_555
C5E H2E 1_555 1_555
H3E C5E 1_555 1_555
H4E C5E 1_555 1_555
C6E C5E 1_555 1_555
N1E C2E 1_555 1_555
N1E_2 Ag2 1_555 1_555
N2E Ag1 1_555 1_555
N3E C2E 1_555 1_555
H5E N3E 1_555 1_555
H6E N3E 1_555 1_555
N4E C3E 1_555 1_555
H7E N4E 1_555 1_555
H8E N4E 1_555 1_555
O1E Ag2H 1_555 1_555
O1H Ag2 1_555 1_555
O1M Ag2 1_555 1_555
O2E Ag1 1_555 1_555
C4 N2 1_555 1_555
C6 O2 1_555 1_555
C3E N2E 1_555 1_555
C4E N2E 1_555 1_555
C6E O1E 1_555 1_555
C6E O2E 1_555 1_555

#END
