
#######################################################################
#
#                 Cambridge Crystallographic Data Centre
#                                CCDC 
#
#######################################################################
#
# If this CIF has been generated from an entry in the Cambridge 
# Structural Database, then it will include bibliographic, chemical, 
# crystal, experimental, refinement or atomic coordinate data resulting 
# from the CCDC's data processing and validation procedures.
#
#######################################################################

data_HAYXIP01
_symmetry_cell_setting           orthorhombic
_symmetry_space_group_name_H-M   'P b c a'
_symmetry_Int_Tables_number      61
_space_group_name_Hall           '-P 2ac 2ab'
loop_
_symmetry_equiv_pos_site_id
_symmetry_equiv_pos_as_xyz
1 x,y,z
2 1/2-x,-y,1/2+z
3 1/2+x,1/2-y,-z
4 -x,1/2+y,1/2-z
5 -x,-y,-z
6 1/2+x,y,1/2-z
7 1/2-x,1/2+y,z
8 x,1/2-y,1/2+z
_cell_length_a                   15.7557(10)
_cell_length_b                   15.1427(9)
_cell_length_c                   16.8380(10)
_cell_angle_alpha                90
_cell_angle_beta                 90
_cell_angle_gamma                90
_cell_volume                     4017.27
loop_
_atom_site_label
_atom_site_type_symbol
_atom_site_fract_x
_atom_site_fract_y
_atom_site_fract_z
Zn1 Zn 0.483612(12) 0.457102(11) 0.355376(11)
O1 O 0.51287(7) 0.11710(7) -0.04312(7)
O2 O 0.54857(8) 0.17609(8) -0.15707(7)
O3 O 0.41318(8) 0.55915(8) 0.41038(7)
N1 N 0.36802(9) 0.40168(9) 0.32268(8)
N2 N 0.58442(9) 0.54621(8) 0.35808(8)
N3 N 0.46664(9) 0.52250(9) 0.24020(8)
C1 C 0.37444(11) 0.51928(11) 0.22361(10)
H1 H 0.3655 0.5196 0.1654
H2 H 0.3473 0.5729 0.2457
C2 C 0.33189(11) 0.43819(11) 0.25869(10)
C3 C 0.25529(12) 0.40655(12) 0.22894(11)
H3 H 0.2313 0.4314 0.1822
C4 C 0.21440(12) 0.33841(13) 0.26827(12)
H4 H 0.1616 0.3166 0.2494
C5 C 0.25141(12) 0.30232(12) 0.33554(12)
H5 H 0.2242 0.2561 0.3639
C6 C 0.32876(11) 0.33518(11) 0.36032(10)
H6 H 0.3551 0.3098 0.4056
C7 C 0.49666(12) 0.61415(10) 0.25565(11)
H7 H 0.4505 0.6484 0.2810
H8 H 0.5107 0.6430 0.2046
C8 C 0.57409(11) 0.61513(10) 0.30899(10)
C9 C 0.62839(12) 0.68715(11) 0.31103(11)
H9 H 0.6211 0.7347 0.2749
C10 C 0.69324(13) 0.68893(12) 0.36632(12)
H10 H 0.7302 0.7384 0.3694
C11 C 0.70370(12) 0.61808(11) 0.41702(11)
H11 H 0.7481 0.6176 0.4552
C12 C 0.64806(11) 0.54782(10) 0.41084(10)
H12 H 0.6552 0.4988 0.4454
C13 C 0.51728(11) 0.48743(11) 0.17274(10)
H13 H 0.5782 0.4921 0.1866
H14 H 0.5073 0.5256 0.1259
C14 C 0.49868(11) 0.39212(10) 0.14930(10)
H15 H 0.5184 0.3515 0.1915
H16 H 0.4368 0.3837 0.1423
C15 C 0.54474(11) 0.37201(10) 0.07177(10)
H17 H 0.6065 0.3793 0.0802
H18 H 0.5269 0.4155 0.0311
C16 C 0.52781(11) 0.27911(10) 0.04036(10)
H19 H 0.5504 0.2352 0.0784
H20 H 0.4658 0.2697 0.0358
C17 C 0.56921(11) 0.26520(10) -0.04062(10)
H21 H 0.5555 0.3165 -0.0748
H22 H 0.6316 0.2641 -0.0335
C18 C 0.54274(10) 0.18204(10) -0.08322(10)
H23 H 0.4334(9) 0.5825(13) 0.4515(6)
H24 H 0.3611(3) 0.5536(13) 0.4198(10)
Zn1G Zn 0.483612(12) 0.042898(11) -0.144624(11)
O1G O 0.51287(7) 0.38290(7) 0.45688(7)
O2G O 0.54857(8) 0.32391(8) 0.34293(7)
Cl1 Cl 0.19454(3) 0.59205(3) 0.46838(3)
O4 O 0.23731(9) 0.53250(10) 0.41466(9)
O5 O 0.15567(11) 0.54089(11) 0.53007(10)
O6 O 0.25621(10) 0.65084(10) 0.50210(10)
O7 O 0.13104(9) 0.64087(10) 0.42632(10)
loop_
_geom_bond_atom_site_label_1
_geom_bond_atom_site_label_2
_geom_bond_site_symmetry_1
_geom_bond_site_symmetry_2
Zn1 O3 1_555 1_555
O1 C18 1_555 1_555
O2 C18 1_555 1_555
O3 H23 1_555 1_555
N1 Zn1 1_555 1_555
N2 Zn1 1_555 1_555
N3 Zn1 1_555 1_555
C1 N3 1_555 1_555
H1 C1 1_555 1_555
H2 C1 1_555 1_555
C2 N1 1_555 1_555
C3 C2 1_555 1_555
H3 C3 1_555 1_555
C4 C3 1_555 1_555
H4 C4 1_555 1_555
C5 C4 1_555 1_555
H5 C5 1_555 1_555
C6 N1 1_555 1_555
H6 C6 1_555 1_555
C7 N3 1_555 1_555
H7 C7 1_555 1_555
H8 C7 1_555 1_555
C8 N2 1_555 1_555
C9 C8 1_555 1_555
H9 C9 1_555 1_555
C10 C9 1_555 1_555
H10 C10 1_555 1_555
C11 C10 1_555 1_555
H11 C11 1_555 1_555
C12 N2 1_555 1_555
H12 C12 1_555 1_555
C13 N3 1_555 1_555
H13 C13 1_555 1_555
H14 C13 1_555 1_555
C14 C13 1_555 1_555
H15 C14 1_555 1_555
H16 C14 1_555 1_555
C15 C14 1_555 1_555
H17 C15 1_555 1_555
H18 C15 1_555 1_555
C16 C15 1_555 1_555
H19 C16 1_555 1_555
H20 C16 1_555 1_555
C17 C16 1_555 1_555
H21 C17 1_555 1_555
H22 C17 1_555 1_555
C18 C17 1_555 1_555
H24 O3 1_555 1_555
Cl1 O4 1_555 1_555
O5 Cl1 1_555 1_555
O6 Cl1 1_555 1_555
O7 Cl1 1_555 1_555
Zn1G O1 1_555 1_555
O1G Zn1 1_555 1_555
O2G Zn1 1_555 1_555
O2 Zn1G 1_555 1_555
C1 C2 1_555 1_555
C5 C6 1_555 1_555
C7 C8 1_555 1_555
C11 C12 1_555 1_555

#END
