
#######################################################################
#
#                 Cambridge Crystallographic Data Centre
#                                CCDC 
#
#######################################################################
#
# If this CIF has been generated from an entry in the Cambridge 
# Structural Database, then it will include bibliographic, chemical, 
# crystal, experimental, refinement or atomic coordinate data resulting 
# from the CCDC's data processing and validation procedures.
#
#######################################################################

data_HAYXEM
_symmetry_cell_setting           monoclinic
_symmetry_space_group_name_H-M   'P 2/c'
_symmetry_Int_Tables_number      13
_space_group_name_Hall           '-P 2yc'
loop_
_symmetry_equiv_pos_site_id
_symmetry_equiv_pos_as_xyz
1 x,y,z
2 -x,y,1/2-z
3 -x,-y,-z
4 x,-y,1/2+z
_cell_length_a                   8.4939(19)
_cell_length_b                   4.8583(6)
_cell_length_c                   19.594(4)
_cell_angle_alpha                90
_cell_angle_beta                 114.544(18)
_cell_angle_gamma                90
_cell_volume                     735.505
loop_
_atom_site_label
_atom_site_type_symbol
_atom_site_fract_x
_atom_site_fract_y
_atom_site_fract_z
Ag1 Ag 0.5000 0.86366(10) 0.2500
Cl1 Cl 0.85229(12) 0.9122(2) 0.39970(5)
C1 C 0.7726(5) 0.5504(8) 0.48441(19)
H1 H 0.8656 0.6177 0.5262
C2 C 0.6664(4) 0.3348(8) 0.48994(17)
C3 C 0.5067(4) 0.3550(8) 0.36320(17)
C4 C 0.7308(4) 0.6537(8) 0.41451(18)
N1 N 0.5337(4) 0.2363(7) 0.42844(15)
N2 N 0.5970(4) 0.5630(6) 0.35204(15)
N3 N 0.6946(5) 0.2184(8) 0.55564(16)
H2 H 0.6295 0.0860 0.5576
H3 H 0.7780 0.2758 0.5960
N4 N 0.3771(4) 0.2435(7) 0.29968(16)
H4 H 0.3187 0.1045 0.3036
H5 H 0.3550 0.3132 0.2563
Ag1_2 Ag 0.5000 -0.13634(10) 0.2500
Cl1A Cl 0.14771(12) 0.9122(2) 0.10030(5)
C1A C 0.2274(5) 0.5504(8) 0.01559(19)
H1A H 0.1344 0.6177 -0.0262
C2A C 0.3336(4) 0.3348(8) 0.01006(17)
C3A C 0.4933(4) 0.3550(8) 0.13680(17)
C4A C 0.2692(4) 0.6537(8) 0.08549(18)
N1A N 0.4663(4) 0.2363(7) 0.07156(15)
N2A N 0.4030(4) 0.5630(6) 0.14796(15)
N3A N 0.3054(5) 0.2184(8) -0.05564(16)
H2A H 0.3705 0.0860 -0.0576
H3A H 0.2220 0.2758 -0.0960
N4A N 0.6229(4) 0.2435(7) 0.20032(16)
N4_2 N 0.3771(4) 1.2435(7) 0.29968(16)
N4A_2 N 0.6229(4) 1.2435(7) 0.20032(16)
H4A H 0.6813 0.1045 0.1964
H4_2 H 0.3187 1.1045 0.3036
H4A_2 H 0.6813 1.1045 0.1964
H5A H 0.6450 0.3132 0.2437
H5_2 H 0.3550 1.3132 0.2563
H5A_2 H 0.6450 1.3132 0.2437
B1 B 0.0000 1.6019(14) 0.2500
F1 F 0.0004(4) 1.4396(6) 0.19221(14)
F2 F 0.1478(3) 1.7643(6) 0.27762(14)
F1A F -0.0004(4) 1.4396(6) 0.30779(14)
F2A F -0.1478(3) 1.7643(6) 0.22238(14)
loop_
_geom_bond_atom_site_label_1
_geom_bond_atom_site_label_2
_geom_bond_site_symmetry_1
_geom_bond_site_symmetry_2
Ag1 N2 1_555 1_555
Cl1 C4 1_555 1_555
C1 H1 1_555 1_555
C2 C1 1_555 1_555
C3 N1 1_555 1_555
C4 C1 1_555 1_555
B1 F1 1_555 1_555
F2 B1 1_555 1_555
N1 C2 1_555 1_555
N2 C3 1_555 1_555
N3 C2 1_555 1_555
H2 N3 1_555 1_555
H3 N3 1_555 1_555
N4 C3 1_555 1_555
H4 N4 1_555 1_555
H5 N4 1_555 1_555
Ag1_2 N4 1_555 1_555
Cl1A C4A 1_555 1_555
C1A H1A 1_555 1_555
C2A C1A 1_555 1_555
C3A N1A 1_555 1_555
C4A C1A 1_555 1_555
F1A B1 1_555 1_555
F2A B1 1_555 1_555
N1A C2A 1_555 1_555
N2A Ag1 1_555 1_555
N3A C2A 1_555 1_555
H2A N3A 1_555 1_555
H3A N3A 1_555 1_555
N4A Ag1_2 1_555 1_555
N4_2 Ag1 1_555 1_555
N4A_2 Ag1 1_555 1_555
H4A N4A 1_555 1_555
H4_2 N4_2 1_555 1_555
H4A_2 N4A_2 1_555 1_555
H5A N4A 1_555 1_555
H5_2 N4_2 1_555 1_555
H5A_2 N4A_2 1_555 1_555
C4 N2 1_555 1_555
C3A N2A 1_555 1_555
C3A N4A 1_555 1_555
C4A N2A 1_555 1_555

#END
