
#######################################################################
#
#                 Cambridge Crystallographic Data Centre
#                                CCDC 
#
#######################################################################
#
# If this CIF has been generated from an entry in the Cambridge 
# Structural Database, then it will include bibliographic, chemical, 
# crystal, experimental, refinement or atomic coordinate data resulting 
# from the CCDC's data processing and validation procedures.
#
#######################################################################

data_HAYXIP
_symmetry_cell_setting           orthorhombic
_symmetry_space_group_name_H-M   'P b c a'
_symmetry_Int_Tables_number      61
_space_group_name_Hall           '-P 2ac 2ab'
loop_
_symmetry_equiv_pos_site_id
_symmetry_equiv_pos_as_xyz
1 x,y,z
2 1/2-x,-y,1/2+z
3 -x,1/2+y,1/2-z
4 1/2+x,1/2-y,-z
5 -x,-y,-z
6 1/2+x,y,1/2-z
7 x,1/2-y,1/2+z
8 1/2-x,1/2+y,z
_cell_length_a                   15.9996(7)
_cell_length_b                   15.3187(6)
_cell_length_c                   16.7417(7)
_cell_angle_alpha                90
_cell_angle_beta                 90
_cell_angle_gamma                90
_cell_volume                     4103.27
loop_
_atom_site_label
_atom_site_type_symbol
_atom_site_fract_x
_atom_site_fract_y
_atom_site_fract_z
Zn1 Zn 0.01668(3) 0.45775(2) 0.35349(2)
O1 O -0.01237(16) 0.38347(15) 0.45502(13)
O2 O -0.04708(17) 0.32496(17) 0.34124(13)
O3 O 0.0840(2) 0.55871(19) 0.41010(17)
H1 H 0.064(3) 0.578(3) 0.446(3)
H2 H 0.134(3) 0.557(3) 0.415(3)
N1 N -0.08408(19) -0.04498(19) 0.85616(17)
N2 N 0.0318(2) -0.02091(19) 0.73721(16)
N3 N 0.13118(19) 0.09602(19) 0.82071(17)
C1 C -0.1456(3) -0.0483(3) 0.9094(2)
H3 H -0.1519 -0.0016 0.9445
C2 C -0.2006(3) -0.1171(3) 0.9155(3)
H4 H -0.2428 -0.1171 0.9537
C3 C -0.1913(3) -0.1857(3) 0.8634(3)
H5 H -0.2275 -0.2332 0.8658
C4 C -0.1288(3) -0.1838(3) 0.8083(3)
H6 H -0.1223 -0.2296 0.7724
C5 C -0.0750(3) -0.1135(2) 0.8060(2)
C6 C 0.0011(3) -0.1123(2) 0.7525(2)
H7 H -0.0127 -0.1397 0.7019
H8 H 0.0454 -0.1461 0.7772
C7 C 0.1227(3) -0.0186(3) 0.7205(2)
H9 H 0.1482 -0.0712 0.7415
H10 H 0.1312 -0.0182 0.6632
C8 C 0.1660(2) 0.0598(2) 0.7563(2)
C9 C 0.2415(3) 0.0910(3) 0.7266(3)
H11 H 0.2640 0.0677 0.6800
C10 C 0.2822(3) 0.1558(3) 0.7663(3)
H12 H 0.3336 0.1757 0.7479
C11 C 0.2466(3) 0.1924(3) 0.8345(3)
H13 H 0.2731 0.2369 0.8625
C12 C 0.1708(2) 0.1598(3) 0.8585(2)
H14 H 0.1459 0.1838 0.9037
C13 C -0.0419(2) 0.3197(2) 0.41514(19)
C14 C -0.0688(2) 0.2380(2) 0.45814(19)
H15 H -0.0576 0.1884 0.4237
H16 H -0.1287 0.2406 0.4665
C15 C -0.0269(2) 0.2217(2) 0.5383(2)
H17 H 0.0330 0.2293 0.5327
H18 H -0.0468 0.2643 0.5767
C16 C -0.0450(2) 0.1305(2) 0.5692(2)
H19 H -0.0293 0.0885 0.5286
H20 H -0.1046 0.1248 0.5782
C17 C 0.0011(2) 0.1083(2) 0.6466(2)
H21 H 0.0608 0.1158 0.6391
H22 H -0.0168 0.1474 0.6889
C18 C -0.0175(3) 0.0148(2) 0.6699(2)
H23 H -0.0082 -0.0220 0.6235
H24 H -0.0763 0.0106 0.6835
Zn1F Zn 0.01668(3) 0.04225(2) 0.85349(2)
N1F N -0.08408(19) 0.54498(19) 0.35616(17)
N2F N 0.0318(2) 0.52091(19) 0.23721(16)
N3F N 0.13118(19) 0.40398(19) 0.32071(17)
Cl1 Cl -0.30246(7) 0.40472(7) 0.53505(6)
O4 O -0.3419(3) 0.4593(3) 0.4783(3)
O5 O -0.2452(3) 0.3500(3) 0.4968(2)
O6 O -0.3653(2) 0.3565(3) 0.5763(3)
O7 O -0.2593(2) 0.4582(3) 0.5897(2)
loop_
_geom_bond_atom_site_label_1
_geom_bond_atom_site_label_2
_geom_bond_site_symmetry_1
_geom_bond_site_symmetry_2
Zn1 O1 1_555 1_555
O1 C13 1_555 1_555
O2 Zn1 1_555 1_555
O3 Zn1 1_555 1_555
H1 O3 1_555 1_555
H2 O3 1_555 1_555
N1 C1 1_555 1_555
N2 C6 1_555 1_555
N3 C8 1_555 1_555
C1 H3 1_555 1_555
C2 C1 1_555 1_555
H4 C2 1_555 1_555
C3 C2 1_555 1_555
H5 C3 1_555 1_555
C4 C3 1_555 1_555
H6 C4 1_555 1_555
C5 N1 1_555 1_555
C6 C5 1_555 1_555
H7 C6 1_555 1_555
H8 C6 1_555 1_555
C7 N2 1_555 1_555
H9 C7 1_555 1_555
H10 C7 1_555 1_555
C8 C7 1_555 1_555
C9 C8 1_555 1_555
H11 C9 1_555 1_555
C10 C9 1_555 1_555
H12 C10 1_555 1_555
C11 C10 1_555 1_555
H13 C11 1_555 1_555
C12 N3 1_555 1_555
H14 C12 1_555 1_555
C13 O2 1_555 1_555
C14 C13 1_555 1_555
H15 C14 1_555 1_555
H16 C14 1_555 1_555
C15 C14 1_555 1_555
H17 C15 1_555 1_555
H18 C15 1_555 1_555
C16 C15 1_555 1_555
H19 C16 1_555 1_555
H20 C16 1_555 1_555
C17 C16 1_555 1_555
H21 C17 1_555 1_555
H22 C17 1_555 1_555
C18 N2 1_555 1_555
H23 C18 1_555 1_555
H24 C18 1_555 1_555
Cl1 O4 1_555 1_555
O5 Cl1 1_555 1_555
O6 Cl1 1_555 1_555
O7 Cl1 1_555 1_555
Zn1F N1 1_555 1_555
N1F Zn1 1_555 1_555
N2F Zn1 1_555 1_555
N3F Zn1 1_555 1_555
N2 Zn1F 1_555 1_555
N3 Zn1F 1_555 1_555
C4 C5 1_555 1_555
C11 C12 1_555 1_555
C17 C18 1_555 1_555

#END
