
#######################################################################
#
#                 Cambridge Crystallographic Data Centre
#                                CCDC 
#
#######################################################################
#
# If this CIF has been generated from an entry in the Cambridge 
# Structural Database, then it will include bibliographic, chemical, 
# crystal, experimental, refinement or atomic coordinate data resulting 
# from the CCDC's data processing and validation procedures.
#
#######################################################################

data_HAYXAI
_symmetry_cell_setting           tetragonal
_symmetry_space_group_name_H-M   'P 4/n c c'
_symmetry_Int_Tables_number      130
_space_group_name_Hall           '-P 4a 2ac'
loop_
_symmetry_equiv_pos_site_id
_symmetry_equiv_pos_as_xyz
1 x,y,z
2 1/2-x,1/2-y,z
3 1/2+x,-y,1/2-z
4 -x,1/2+y,1/2-z
5 -y,-x,1/2-z
6 1/2+y,1/2+x,1/2-z
7 y,1/2-x,z
8 1/2-y,x,z
9 -x,-y,-z
10 1/2+x,1/2+y,-z
11 1/2-x,y,1/2+z
12 x,1/2-y,1/2+z
13 y,x,1/2+z
14 1/2-y,1/2-x,1/2+z
15 -y,1/2+x,-z
16 1/2+y,-x,-z
_cell_length_a                   19.6712(13)
_cell_length_b                   19.6712(13)
_cell_length_c                   11.6476(8)
_cell_angle_alpha                90
_cell_angle_beta                 90
_cell_angle_gamma                90
_cell_volume                     4507.11
loop_
_atom_site_label
_atom_site_type_symbol
_atom_site_fract_x
_atom_site_fract_y
_atom_site_fract_z
Ag1 Ag 0.61160(2) 0.11160(2) -0.2500
Ag2 Ag 0.51137(3) 0.01137(3) 0.2500
Cl1 Cl 0.74924(8) 0.14365(10) -0.11826(14)
C1 C 0.7119(3) 0.0738(3) 0.0691(5)
H1 H 0.7571 0.0734 0.0927
C2 C 0.6601(3) 0.0428(3) 0.1327(5)
C3 C 0.5795(2) 0.0815(3) 0.0075(4)
C4 C 0.6914(2) 0.1043(3) -0.0294(5)
C5 C 0.6896(3) -0.0966(3) -0.1109(7)
C6 C 0.6435(3) -0.0511(3) -0.1838(5)
N1 N 0.5935(2) 0.0491(2) 0.1064(4)
N2 N 0.6267(2) 0.1072(2) -0.0645(4)
N3 N 0.6764(2) 0.0049(3) 0.2280(4)
H2 H 0.6448 -0.0137 0.2682
H3 H 0.7183 -0.0003 0.2474
N4 N 0.5145(2) 0.0886(3) -0.0213(4)
H4 H 0.4833 0.0727 0.0228
H5 H 0.5038 0.1091 -0.0839
O1 O 0.5822(2) -0.0575(2) -0.1630(4)
O2 O 0.6720(2) -0.0143(2) -0.2554(4)
F1 F 0.6613(3) -0.1136(4) -0.0129(6)
F2 F 0.7030(4) -0.1520(3) -0.1602(7)
F3 F 0.7472(2) -0.0674(3) -0.0850(5)
Ag2H Ag 0.48863(3) -0.01137(3) -0.2500
Ag2_2 Ag 0.51137(3) 0.01137(3) -0.7500
Cl1E Cl 0.64365(10) 0.24924(8) -0.38174(14)
C1E C 0.5738(3) 0.2119(3) -0.5691(5)
H1E H 0.5734 0.2571 -0.5927
C2E C 0.5428(3) 0.1601(3) -0.6327(5)
C3E C 0.5815(3) 0.0795(2) -0.5075(4)
C4E C 0.6043(3) 0.1914(2) -0.4706(5)
C5E C 0.4034(3) 0.1896(3) -0.3891(7)
C6E C 0.4489(3) 0.1435(3) -0.3162(5)
N1E N 0.5491(2) 0.0935(2) -0.6064(4)
N1E_2 N 0.5491(2) 0.0935(2) 0.3936(4)
N2E N 0.6072(2) 0.1267(2) -0.4355(4)
N3E N 0.5049(3) 0.1764(2) -0.7280(4)
H2E H 0.4863 0.1448 -0.7682
H3E H 0.4997 0.2183 -0.7474
N4E N 0.5886(3) 0.0145(2) -0.4787(4)
H4E H 0.5727 -0.0167 -0.5228
H5E H 0.6091 0.0038 -0.4161
O1E O 0.4425(2) 0.0822(2) -0.3370(4)
O1H O 0.4178(2) 0.0575(2) 0.1630(4)
O1M O 0.5575(2) -0.0822(2) 0.3370(4)
O2E O 0.4857(2) 0.1720(2) -0.2446(4)
F1E F 0.3864(4) 0.1613(3) -0.4871(6)
F2E F 0.3480(3) 0.2030(4) -0.3398(7)
F3E F 0.4326(3) 0.2472(2) -0.4150(5)
loop_
_geom_bond_atom_site_label_1
_geom_bond_atom_site_label_2
_geom_bond_site_symmetry_1
_geom_bond_site_symmetry_2
Ag1 N2 1_555 1_555
Ag2 N1 1_555 1_555
Cl1 C4 1_555 1_555
C1 H1 1_555 1_555
C2 C1 1_555 1_555
C3 N1 1_555 1_555
C4 C1 1_555 1_555
C5 C6 1_555 1_555
C6 O1 1_555 1_555
N1 C2 1_555 1_555
N2 C3 1_555 1_555
N3 C2 1_555 1_555
H2 N3 1_555 1_555
H3 N3 1_555 1_555
N4 C3 1_555 1_555
H4 N4 1_555 1_555
H5 N4 1_555 1_555
O1 Ag2H 1_555 1_555
O2 Ag1 1_555 1_555
F1 C5 1_555 1_555
F2 C5 1_555 1_555
F3 C5 1_555 1_555
Ag2H O1E 1_555 1_555
Ag2_2 N1E 1_555 1_555
Cl1E C4E 1_555 1_555
C1E H1E 1_555 1_555
C2E C1E 1_555 1_555
C3E N1E 1_555 1_555
C4E C1E 1_555 1_555
C5E C6E 1_555 1_555
C6E O1E 1_555 1_555
N1E C2E 1_555 1_555
N1E_2 Ag2 1_555 1_555
N2E Ag1 1_555 1_555
N3E C2E 1_555 1_555
H2E N3E 1_555 1_555
H3E N3E 1_555 1_555
N4E C3E 1_555 1_555
H4E N4E 1_555 1_555
H5E N4E 1_555 1_555
O1H Ag2 1_555 1_555
O1M Ag2 1_555 1_555
O2E Ag1 1_555 1_555
F1E C5E 1_555 1_555
F2E C5E 1_555 1_555
F3E C5E 1_555 1_555
C4 N2 1_555 1_555
C6 O2 1_555 1_555
C3E N2E 1_555 1_555
C4E N2E 1_555 1_555
C6E O2E 1_555 1_555

#END
