
#######################################################################
#
#                 Cambridge Crystallographic Data Centre
#                                CCDC 
#
#######################################################################
#
# If this CIF has been generated from an entry in the Cambridge 
# Structural Database, then it will include bibliographic, chemical, 
# crystal, experimental, refinement or atomic coordinate data resulting 
# from the CCDC's data processing and validation procedures.
#
#######################################################################

data_HAYYAJ
_symmetry_cell_setting           triclinic
_symmetry_space_group_name_H-M   'P -1'
_symmetry_Int_Tables_number      2
_space_group_name_Hall           '-P 1'
loop_
_symmetry_equiv_pos_site_id
_symmetry_equiv_pos_as_xyz
1 x,y,z
2 -x,-y,-z
_cell_length_a                   8.896(3)
_cell_length_b                   8.861(2)
_cell_length_c                   11.693(3)
_cell_angle_alpha                103.09(3)
_cell_angle_beta                 109.91(3)
_cell_angle_gamma                96.59(3)
_cell_volume                     825.379
loop_
_atom_site_label
_atom_site_type_symbol
_atom_site_fract_x
_atom_site_fract_y
_atom_site_fract_z
Ag1 Ag -0.02752(9) 0.01273(9) 0.24097(8)
C1 C -0.2706(10) 0.2594(10) 0.2169(9)
C2 C -0.3597(11) 0.3765(10) 0.2679(10)
C3 C 0.1803(9) 0.1103(9) 0.0888(8)
C4 C 0.1765(10) 0.3359(9) 0.0304(8)
C5 C 0.1444(9) 0.3306(9) 0.2128(8)
C6 C -0.1010(9) -0.1860(9) 0.4140(8)
C7 C -0.3245(9) -0.1646(9) 0.4633(8)
C8 C -0.3357(10) -0.1641(9) 0.2685(8)
N1 N 0.1475(8) 0.1745(7) 0.1920(6)
N2 N 0.1937(8) 0.1844(7) 0.0048(6)
N3 N 0.1548(8) 0.4149(8) 0.1332(7)
N4 N -0.1761(8) -0.1690(8) 0.2990(7)
N5 N -0.1684(8) -0.1820(8) 0.5014(7)
N6 N -0.4160(8) -0.1577(8) 0.3482(7)
N7 N 0.2007(8) -0.0395(8) 0.0710(7)
H1 H 0.2219 -0.0848 0.0066
H2 H 0.1927 -0.0904 0.1239
N8 N 0.1811(10) 0.4124(9) -0.0537(8)
H3 H 0.1703 0.5093 -0.0410
H4 H 0.1949 0.3651 -0.1211
N9 N 0.1280(9) 0.4038(8) 0.3197(7)
H5 H 0.1243 0.5026 0.3359
H6 H 0.1210 0.3521 0.3723
N10 N 0.0509(8) -0.2087(8) 0.4442(7)
H7 H 0.0974 -0.2120 0.3904
H8 H 0.1028 -0.2201 0.5176
N11 N -0.3954(9) -0.1544(9) 0.5471(8)
H9 H -0.4953 -0.1440 0.5260
H10 H -0.3415 -0.1583 0.6226
N12 N -0.4182(8) -0.1613(10) 0.1510(7)
H11 H -0.3696 -0.1628 0.0986
H12 H -0.5202 -0.1582 0.1272
O2 O -0.2038(8) 0.1888(8) 0.2917(7)
O3 O -0.2733(9) 0.2513(9) 0.1097(7)
F1 F -0.2710(13) 0.4686(11) 0.3768(9)
F2 F -0.4166(11) 0.4660(9) 0.1956(9)
F3 F -0.4859(9) 0.3065(10) 0.2818(9)
Ag1A Ag 0.02752(9) -0.01273(9) -0.24097(8)
Ag1A_2 Ag 0.02752(9) -0.01273(9) 0.75903(8)
N2A N -0.1937(8) -0.1844(7) -0.0048(6)
N5A N 0.1684(8) 0.1820(8) 0.4986(7)
O1 O 0.2301(7) 0.7568(7) 0.2544(6)
loop_
_geom_bond_atom_site_label_1
_geom_bond_atom_site_label_2
_geom_bond_site_symmetry_1
_geom_bond_site_symmetry_2
Ag1 N1 1_555 1_555
C1 C2 1_555 1_555
C2 F1 1_555 1_555
C3 N1 1_555 1_555
C4 N2 1_555 1_555
C5 N1 1_555 1_555
C6 N4 1_555 1_555
C7 N5 1_555 1_555
C8 N4 1_555 1_555
N2 C3 1_555 1_555
N3 C4 1_555 1_555
N4 Ag1 1_555 1_555
N5 C6 1_555 1_555
N6 C7 1_555 1_555
N7 C3 1_555 1_555
H1 N7 1_555 1_555
H2 N7 1_555 1_555
N8 C4 1_555 1_555
H3 N8 1_555 1_555
H4 N8 1_555 1_555
N9 C5 1_555 1_555
H5 N9 1_555 1_555
H6 N9 1_555 1_555
N10 C6 1_555 1_555
H7 N10 1_555 1_555
H8 N10 1_555 1_555
N11 C7 1_555 1_555
H9 N11 1_555 1_555
H10 N11 1_555 1_555
N12 C8 1_555 1_555
H11 N12 1_555 1_555
H12 N12 1_555 1_555
O2 Ag1 1_555 1_555
O3 C1 1_555 1_555
F2 C2 1_555 1_555
F3 C2 1_555 1_555
Ag1A N2 1_555 1_555
Ag1A_2 N5 1_555 1_555
N2A Ag1 1_555 1_555
N5A Ag1 1_555 1_555
C1 O2 1_555 1_555
C5 N3 1_555 1_555
C8 N6 1_555 1_555

#END
