
#######################################################################
#
#                 Cambridge Crystallographic Data Centre
#                                CCDC 
#
#######################################################################
#
# If this CIF has been generated from an entry in the Cambridge 
# Structural Database, then it will include bibliographic, chemical, 
# crystal, experimental, refinement or atomic coordinate data resulting 
# from the CCDC's data processing and validation procedures.
#
#######################################################################

data_HAYZOY
_symmetry_cell_setting           monoclinic
_symmetry_space_group_name_H-M   'P 21/c'
_symmetry_Int_Tables_number      14
_space_group_name_Hall           '-P 2ybc'
loop_
_symmetry_equiv_pos_site_id
_symmetry_equiv_pos_as_xyz
1 x,y,z
2 -x,1/2+y,1/2-z
3 -x,-y,-z
4 x,1/2-y,1/2+z
_cell_length_a                   6.6909(6)
_cell_length_b                   20.042(2)
_cell_length_c                   9.6608(9)
_cell_angle_alpha                90
_cell_angle_beta                 96.357(7)
_cell_angle_gamma                90
_cell_volume                     1287.54
loop_
_atom_site_label
_atom_site_type_symbol
_atom_site_fract_x
_atom_site_fract_y
_atom_site_fract_z
Ag1 Ag -0.24105(4) 0.329356(12) 0.64440(3)
Ag2 Ag -0.29307(4) 0.698219(11) 0.77742(2)
C1 C -0.2595(4) 0.48910(14) 0.5915(3)
C2 C -0.2776(5) 0.47520(16) 0.8244(3)
H1 H -0.2800 0.4479 0.9021
C3 C -0.2900(5) 0.54469(16) 0.8411(3)
H2 H -0.2987 0.5619 0.9296
C4 C -0.2751(4) 0.55896(14) 0.6064(3)
C5 C -0.2734(4) 0.60167(14) 0.4872(3)
H3 H -0.2851 0.6476 0.4975
C6 C -0.2548(5) 0.57547(15) 0.3591(3)
H4 H -0.2542 0.6037 0.2828
C7 C -0.2361(4) 0.50507(15) 0.3408(3)
C8 C -0.2391(4) 0.46146(14) 0.4556(3)
C9 C -0.1992(5) 0.37175(15) 0.3161(3)
H5 H -0.1864 0.3261 0.3025
C10 C -0.1944(5) 0.41537(16) 0.2019(3)
H6 H -0.1767 0.3971 0.1156
N1 N -0.2625(4) 0.44725(12) 0.7017(3)
N2 N -0.2898(4) 0.58642(13) 0.7347(3)
N3 N -0.2216(4) 0.39443(12) 0.4422(3)
N4 N -0.2137(4) 0.48064(14) 0.2110(3)
N5 N -0.4479(4) 0.20346(13) 0.4648(3)
N6 N 0.0598(4) 0.29524(12) 0.9020(3)
O1 O -0.4176(4) 0.22667(13) 0.5883(2)
O2 O -0.4043(4) 0.23803(13) 0.3652(2)
O3 O -0.5208(4) 0.14703(11) 0.4467(2)
O4 O 0.0520(4) 0.27949(12) 0.7734(2)
O5 O 0.1457(4) 0.25633(12) 0.9900(2)
O6 O -0.0167(4) 0.34799(12) 0.9359(3)
Ag2A Ag -0.70693(4) 0.198219(11) 0.72258(2)
Ag2A_2 Ag 0.29307(4) 0.198219(11) 0.72258(2)
Ag2B Ag 0.29307(4) 0.301781(11) 1.22258(2)
O1A O -0.5824(4) 0.72667(13) 0.9117(2)
O4A O -0.0520(4) 0.77949(12) 0.7266(2)
O5B O -0.1457(4) 0.74367(12) 1.0100(2)
loop_
_geom_bond_atom_site_label_1
_geom_bond_atom_site_label_2
_geom_bond_site_symmetry_1
_geom_bond_site_symmetry_2
Ag1 N1 1_555 1_555
Ag2 N2 1_555 1_555
C1 C4 1_555 1_555
C2 H1 1_555 1_555
C3 C2 1_555 1_555
H2 C3 1_555 1_555
C4 C5 1_555 1_555
C5 H3 1_555 1_555
C6 C5 1_555 1_555
H4 C6 1_555 1_555
C7 C6 1_555 1_555
C8 C1 1_555 1_555
C9 H5 1_555 1_555
C10 C9 1_555 1_555
H6 C10 1_555 1_555
N1 C1 1_555 1_555
N2 C3 1_555 1_555
N3 Ag1 1_555 1_555
N4 C7 1_555 1_555
N5 O1 1_555 1_555
N6 O4 1_555 1_555
O1 Ag1 1_555 1_555
O2 N5 1_555 1_555
O3 N5 1_555 1_555
O4 Ag1 1_555 1_555
O5 N6 1_555 1_555
O6 N6 1_555 1_555
Ag2A O1 1_555 1_555
Ag2A_2 O4 1_555 1_555
Ag2B O5 1_555 1_555
O1A Ag2 1_555 1_555
O4A Ag2 1_555 1_555
O5B Ag2 1_555 1_555
C2 N1 1_555 1_555
C4 N2 1_555 1_555
C7 C8 1_555 1_555
C8 N3 1_555 1_555
C9 N3 1_555 1_555
C10 N4 1_555 1_555

#END
