
#######################################################################
#
#                 Cambridge Crystallographic Data Centre
#                                CCDC 
#
#######################################################################
#
# If this CIF has been generated from an entry in the Cambridge 
# Structural Database, then it will include bibliographic, chemical, 
# crystal, experimental, refinement or atomic coordinate data resulting 
# from the CCDC's data processing and validation procedures.
#
#######################################################################

data_HAZBIV
_symmetry_cell_setting           monoclinic
_symmetry_space_group_name_H-M   'P 21/c'
_symmetry_Int_Tables_number      14
_space_group_name_Hall           '-P 2ybc'
loop_
_symmetry_equiv_pos_site_id
_symmetry_equiv_pos_as_xyz
1 x,y,z
2 -x,1/2+y,1/2-z
3 -x,-y,-z
4 x,1/2-y,1/2+z
_cell_length_a                   7.7970(9)
_cell_length_b                   11.1107(7)
_cell_length_c                   17.4479(19)
_cell_angle_alpha                90
_cell_angle_beta                 102.829(9)
_cell_angle_gamma                90
_cell_volume                     1473.78
loop_
_atom_site_label
_atom_site_type_symbol
_atom_site_fract_x
_atom_site_fract_y
_atom_site_fract_z
Ag1 Ag 0.43351(3) 0.011800(19) 0.322140(12)
C1 C 0.3605(4) -0.2705(3) 0.28707(19)
H1 H 0.3063 -0.3323 0.2503
H2 H 0.2912 -0.2617 0.3265
C2 C 0.5448(5) -0.3077(3) 0.32589(18)
H3 H 0.5984 -0.2469 0.3636
H4 H 0.5422 -0.3829 0.3539
C3 C 0.6547(4) -0.2078(3) 0.2251(2)
H5 H 0.7244 -0.2166 0.1858
H6 H 0.7094 -0.1468 0.2624
C4 C 0.4705(4) -0.1693(3) 0.18619(17)
H7 H 0.4746 -0.0934 0.1592
H8 H 0.4176 -0.2290 0.1475
C5 C 0.6604(4) -0.0516(3) 0.49029(17)
H9 H 0.7396 -0.0269 0.5388
H10 H 0.7270 -0.0988 0.4602
C6 C 0.5137(4) -0.1276(3) 0.50893(16)
H11 H 0.4364 -0.1546 0.4605
H12 H 0.5628 -0.1980 0.5387
N1 N 0.3629(3) -0.1557(2) 0.24508(14)
H13 H 0.3097 -0.0909 0.2536
N2 N 0.6492(3) -0.3226(2) 0.26594(15)
H14 H 0.6990 -0.3883 0.2563
N3 N 0.5875(3) 0.0557(2) 0.44487(14)
H15 H 0.6016 0.0737 0.3987
Ag1A Ag 0.56649(3) 0.511800(19) 0.177860(12)
Ag1A_2 Ag 0.56649(3) -0.488200(19) 0.177860(12)
Ag1B Ag 0.56649(3) -0.011800(19) 0.677860(12)
C1A C 0.6395(4) 0.2295(3) 0.21293(19)
H1A H 0.6937 0.1677 0.2497
H2A H 0.7088 0.2383 0.1735
C2A C 0.4552(5) 0.1923(3) 0.17411(18)
H3A H 0.4016 0.2531 0.1364
H4A H 0.4578 0.1171 0.1461
C3A C 0.3453(4) 0.2922(3) 0.2749(2)
H5A H 0.2756 0.2834 0.3142
H6A H 0.2906 0.3532 0.2376
C4A C 0.5295(4) 0.3307(3) 0.31381(17)
H7A H 0.5254 0.4066 0.3408
H8A H 0.5824 0.2710 0.3525
C5B C 0.3396(4) 0.0516(3) 0.50971(17)
H9B H 0.2604 0.0269 0.4612
H10B H 0.2730 0.0988 0.5398
C6B C 0.4863(4) 0.1276(3) 0.49107(16)
H11B H 0.5636 0.1546 0.5395
H12B H 0.4372 0.1980 0.4613
N1A N 0.6371(3) 0.3443(2) 0.25492(14)
H13A H 0.6903 0.4091 0.2464
N2A N 0.3508(3) 0.1774(2) 0.23406(15)
N2_2 N 0.6492(3) 0.6774(2) 0.26594(15)
H14A H 0.3010 0.1117 0.2437
H14_2 H 0.6990 0.6117 0.2563
N3B N 0.4125(3) -0.0557(2) 0.55513(14)
N3A N 0.4125(3) 0.5557(2) 0.05513(14)
H15B H 0.3984 -0.0737 0.6013
H15A H 0.3984 0.5737 0.1013
C7 C 0.0553(4) -0.5095(2) 0.37809(17)
C8 C 0.2014(4) -0.5072(3) 0.45467(18)
O4 O 0.0298(3) -0.4130(2) 0.34131(13)
O5 O -0.0139(3) -0.6085(2) 0.36048(14)
F1 F 0.3522(3) -0.5439(3) 0.43984(15)
F2 F 0.1667(3) -0.5795(2) 0.50987(13)
F3 F 0.2288(3) -0.3995(2) 0.48709(14)
O1 O 0.0071(4) -0.1780(3) 0.40196(19)
H19 H 0.023(6) -0.177(4) 0.440(3)
H21 H 0.019(7) -0.247(5) 0.387(3)
O2 O -0.0644(4) -0.4706(2) 0.17470(16)
H17 H -0.029(6) -0.459(4) 0.214(3)
H18 H -0.052(7) -0.545(5) 0.160(3)
O3 O -0.0730(3) -0.8247(2) 0.43035(15)
H16 H -0.061(5) -0.760(4) 0.416(2)
H20 H -0.035(7) -0.857(5) 0.405(3)
loop_
_geom_bond_atom_site_label_1
_geom_bond_atom_site_label_2
_geom_bond_site_symmetry_1
_geom_bond_site_symmetry_2
Ag1 N1 1_555 1_555
C1 H1 1_555 1_555
H2 C1 1_555 1_555
C2 C1 1_555 1_555
H3 C2 1_555 1_555
H4 C2 1_555 1_555
C3 H5 1_555 1_555
H6 C3 1_555 1_555
C4 C3 1_555 1_555
H7 C4 1_555 1_555
H8 C4 1_555 1_555
C5 H9 1_555 1_555
H10 C5 1_555 1_555
C6 C5 1_555 1_555
H11 C6 1_555 1_555
H12 C6 1_555 1_555
C7 C8 1_555 1_555
C8 F1 1_555 1_555
N1 C1 1_555 1_555
H13 N1 1_555 1_555
N2 C2 1_555 1_555
H14 N2 1_555 1_555
N3 Ag1 1_555 1_555
H15 N3 1_555 1_555
O1 H19 1_555 1_555
O2 H17 1_555 1_555
O3 H16 1_555 1_555
O4 C7 1_555 1_555
O5 C7 1_555 1_555
F2 C8 1_555 1_555
F3 C8 1_555 1_555
H18 O2 1_555 1_555
H20 O3 1_555 1_555
H21 O1 1_555 1_555
Ag1A N1A 1_555 1_555
Ag1A_2 N2 1_555 1_555
Ag1B N3B 1_555 1_555
C1A H1A 1_555 1_555
H2A C1A 1_555 1_555
C2A C1A 1_555 1_555
H3A C2A 1_555 1_555
H4A C2A 1_555 1_555
C3A H5A 1_555 1_555
H6A C3A 1_555 1_555
C4A C3A 1_555 1_555
H7A C4A 1_555 1_555
H8A C4A 1_555 1_555
C5B H9B 1_555 1_555
H10B C5B 1_555 1_555
C6B N3 1_555 1_555
H11B C6B 1_555 1_555
H12B C6B 1_555 1_555
N1A C1A 1_555 1_555
H13A N1A 1_555 1_555
N2A Ag1 1_555 1_555
N2_2 Ag1A 1_555 1_555
H14A N2A 1_555 1_555
H14_2 N2_2 1_555 1_555
N3B C6 1_555 1_555
N3A Ag1A 1_555 1_555
H15B N3B 1_555 1_555
H15A N3A 1_555 1_555
C3 N2 1_555 1_555
C4 N1 1_555 1_555
C5 N3 1_555 1_555
C2A N2A 1_555 1_555
C3A N2A 1_555 1_555
C4A N1A 1_555 1_555
C5B C6B 1_555 1_555
C5B N3B 1_555 1_555

#END
