
#######################################################################
#
#                 Cambridge Crystallographic Data Centre
#                                CCDC 
#
#######################################################################
#
# If this CIF has been generated from an entry in the Cambridge 
# Structural Database, then it will include bibliographic, chemical, 
# crystal, experimental, refinement or atomic coordinate data resulting 
# from the CCDC's data processing and validation procedures.
#
#######################################################################

data_HAZBAN
_symmetry_cell_setting           triclinic
_symmetry_space_group_name_H-M   'P -1'
_symmetry_Int_Tables_number      2
_space_group_name_Hall           '-P 1'
loop_
_symmetry_equiv_pos_site_id
_symmetry_equiv_pos_as_xyz
1 x,y,z
2 -x,-y,-z
_cell_length_a                   10.730(2)
_cell_length_b                   15.104(3)
_cell_length_c                   16.445(4)
_cell_angle_alpha                80.78(2)
_cell_angle_beta                 72.68(3)
_cell_angle_gamma                89.70(2)
_cell_volume                     2508.9
loop_
_atom_site_label
_atom_site_type_symbol
_atom_site_fract_x
_atom_site_fract_y
_atom_site_fract_z
Ag1 Ag 0.20401(10) 0.80035(6) 0.36194(5)
Ag2 Ag 0.38835(10) 1.08173(6) -0.04064(5)
Ag3 Ag 0.18766(16) 0.20008(11) 0.81887(7)
Ag4 Ag 0.36085(12) 0.58288(7) 0.50231(8)
C1 C 0.1851(9) 0.7816(6) 0.1712(5)
C2 C 0.2642(10) 0.9206(6) 0.1668(5)
C3 C 0.2587(9) 0.8756(6) 0.0436(5)
C4 C 0.1975(10) 0.2612(7) 0.6140(6)
C5 C 0.2739(9) 0.3907(6) 0.6397(6)
C6 C 0.2717(10) 0.3782(7) 0.5046(6)
C7 C 0.1112(10) 0.7358(7) 0.5503(5)
C8 C 0.0676(12) 0.7415(7) 0.6468(6)
C9 C 0.4986(10) 1.2750(6) -0.0457(6)
C10 C 0.5189(11) 1.3475(8) 0.0035(7)
C11 C 0.1203(12) 1.2196(10) 0.0069(7)
C12 C 0.0923(15) 1.2692(13) 0.0805(8)
C13 C 0.4595(11) 0.7731(7) 0.4593(6)
C14 C 0.4979(12) 0.8650(8) 0.4732(7)
C15 C 0.2898(9) 0.9902(6) 0.2166(5)
C16 C 0.2957(13) 1.0234(8) 0.3467(6)
H1 H 0.2883 1.0041 0.4047
C17 C 0.3200(13) 1.1116(9) 0.3151(7)
H2 H 0.3293 1.1515 0.3507
C18 C 0.3310(14) 1.1418(8) 0.2308(7)
H3 H 0.3514 1.2020 0.2069
C19 C 0.3108(12) 1.0801(7) 0.1814(6)
H4 H 0.3115 1.0994 0.1247
C20 C 0.1283(10) 0.6919(6) 0.2226(5)
C21 C 0.0676(10) 0.6024(7) 0.3552(6)
H5 H 0.0620 0.5942 0.4134
C22 C 0.0211(11) 0.5335(7) 0.3242(6)
H6 H -0.0143 0.4799 0.3602
C23 C 0.0296(11) 0.5480(7) 0.2359(7)
H7 H -0.0014 0.5035 0.2129
C24 C 0.0834(10) 0.6270(6) 0.1837(6)
H8 H 0.0899 0.6374 0.1252
C25 C 0.2835(9) 0.8896(6) -0.0517(5)
C26 C 0.3689(11) 0.9787(7) -0.1839(6)
H9 H 0.4100 1.0326 -0.2163
C27 C 0.3353(11) 0.9154(7) -0.2270(6)
H10 H 0.3516 0.9273 -0.2866
C28 C 0.2778(12) 0.8352(8) -0.1804(6)
H11 H 0.2561 0.7905 -0.2074
C29 C 0.2530(11) 0.8226(7) -0.0918(6)
H12 H 0.2151 0.7683 -0.0586
C30 C 0.2967(11) 0.4505(7) 0.7010(7)
C31 C 0.3428(15) 0.5920(9) 0.7188(9)
H13 H 0.3649 0.6522 0.6961
C32 C 0.3239(14) 0.5662(10) 0.8032(9)
H14 H 0.3320 0.6077 0.8376
C33 C 0.2925(16) 0.4777(13) 0.8386(9)
H15 H 0.2806 0.4582 0.8971
C34 C 0.2784(13) 0.4166(8) 0.7852(7)
H16 H 0.2575 0.3560 0.8068
C35 C 0.1386(10) 0.1686(6) 0.6448(6)
C36 C 0.0422(13) -0.0077(10) 0.6997(11)
H17 H 0.0114 -0.0672 0.7189
C37 C 0.0606(13) 0.0330(8) 0.6165(9)
H18 H 0.0412 0.0006 0.5780
C38 C 0.1070(11) 0.1205(8) 0.5880(8)
H19 H 0.1172 0.1473 0.5312
C39 C 0.3003(10) 0.4181(6) 0.4123(6)
C40 C 0.0725(13) 0.0451(9) 0.7547(9)
H20 H 0.0592 0.0197 0.8122
C41 C 0.3703(12) 0.5417(9) 0.3051(8)
H21 H 0.4000 0.6016 0.2890
C42 C 0.3542(13) 0.4956(9) 0.2433(8)
H22 H 0.3794 0.5224 0.1855
C43 C 0.2999(13) 0.4083(10) 0.2677(7)
H23 H 0.2811 0.3775 0.2278
C44 C 0.2749(12) 0.3688(8) 0.3534(7)
H24 H 0.2414 0.3099 0.3717
N1 N 0.2035(8) 0.7951(5) 0.0853(4)
N2 N 0.2136(8) 0.8426(5) 0.2137(4)
N3 N 0.2919(8) 0.9406(5) 0.0812(4)
N4 N 0.2164(9) 0.2944(5) 0.5305(5)
N5 N 0.2232(8) 0.3065(6) 0.6719(5)
N6 N 0.3012(8) 0.4275(5) 0.5566(5)
N7 N 0.2814(9) 0.9616(6) 0.2993(5)
N8 N 0.1188(8) 0.6784(6) 0.3067(5)
N9 N 0.3455(8) 0.9665(5) -0.0985(4)
N10 N 0.3321(10) 0.5364(6) 0.6640(6)
N11 N 0.1202(9) 0.1308(6) 0.7282(5)
N12 N 0.3437(9) 0.5022(6) 0.3905(6)
O1 O 0.4321(9) 0.1910(5) 0.7860(4)
O2 O 0.1245(10) 0.8096(6) 0.5035(4)
O3 O 0.1278(9) 0.6594(6) 0.5312(5)
O4 O 0.4601(8) 1.2003(5) -0.0021(4)
O5 O 0.5247(9) 1.2967(6) -0.1243(5)
O6 O 0.1284(13) 1.2664(9) -0.0616(5)
O7 O 0.1402(15) 1.1396(9) 0.0187(10)
O8 O 0.4501(11) 0.7129(6) 0.5195(6)
O9 O 0.4405(10) 0.7680(8) 0.3904(6)
F1 F 0.0502(13) 0.6641(6) 0.6976(5)
F2 F 0.1516(8) 0.7905(6) 0.6679(4)
F3 F -0.0435(8) 0.7832(7) 0.6676(5)
F4 F 0.4993(11) 1.3190(6) 0.0873(5)
F5 F 0.6361(8) 1.3869(6) -0.0248(6)
F6 F 0.4394(10) 1.4128(6) -0.0008(7)
F7 F -0.0094(14) 1.3132(11) 0.0905(10)
F8 F 0.1863(12) 1.3059(15) 0.0885(11)
F9 F 0.047(2) 1.2118(14) 0.1530(7)
F10 F 0.5835(10) 0.8632(7) 0.5141(7)
F11 F 0.3948(9) 0.9074(6) 0.5130(6)
F12 F 0.5520(12) 0.9210(6) 0.4002(7)
Ag3_2 Ag 0.18766(16) 1.20008(11) -0.18113(7)
O6_2 O 0.1284(13) 0.2664(9) 0.9384(5)
loop_
_geom_bond_atom_site_label_1
_geom_bond_atom_site_label_2
_geom_bond_site_symmetry_1
_geom_bond_site_symmetry_2
Ag1 N2 1_555 1_555
Ag2 N3 1_555 1_555
Ag3 N5 1_555 1_555
Ag4 N6 1_555 1_555
C1 C20 1_555 1_555
C2 C15 1_555 1_555
C3 C25 1_555 1_555
C4 C35 1_555 1_555
C5 C30 1_555 1_555
C6 C39 1_555 1_555
C7 C8 1_555 1_555
C8 F1 1_555 1_555
C9 C10 1_555 1_555
C10 F4 1_555 1_555
C11 C12 1_555 1_555
C12 F7 1_555 1_555
C13 C14 1_555 1_555
C14 F10 1_555 1_555
C15 C19 1_555 1_555
C16 H1 1_555 1_555
C17 C16 1_555 1_555
H2 C17 1_555 1_555
C18 C17 1_555 1_555
H3 C18 1_555 1_555
C19 C18 1_555 1_555
H4 C19 1_555 1_555
C20 C24 1_555 1_555
C21 H5 1_555 1_555
C22 C21 1_555 1_555
H6 C22 1_555 1_555
C23 C22 1_555 1_555
H7 C23 1_555 1_555
C24 C23 1_555 1_555
H8 C24 1_555 1_555
C25 C29 1_555 1_555
C26 H9 1_555 1_555
C27 C26 1_555 1_555
H10 C27 1_555 1_555
C28 C27 1_555 1_555
H11 C28 1_555 1_555
C29 C28 1_555 1_555
H12 C29 1_555 1_555
C30 C34 1_555 1_555
C31 H13 1_555 1_555
C32 C31 1_555 1_555
H14 C32 1_555 1_555
C33 C32 1_555 1_555
H15 C33 1_555 1_555
C34 C33 1_555 1_555
H16 C34 1_555 1_555
C35 C38 1_555 1_555
C36 H17 1_555 1_555
C37 C36 1_555 1_555
H18 C37 1_555 1_555
C38 C37 1_555 1_555
H19 C38 1_555 1_555
C39 C44 1_555 1_555
C40 C36 1_555 1_555
H20 C40 1_555 1_555
C41 H21 1_555 1_555
C42 C41 1_555 1_555
H22 C42 1_555 1_555
C43 C42 1_555 1_555
H23 C43 1_555 1_555
C44 C43 1_555 1_555
H24 C44 1_555 1_555
N1 C1 1_555 1_555
N2 C1 1_555 1_555
N3 C2 1_555 1_555
N4 C4 1_555 1_555
N5 C4 1_555 1_555
N6 C5 1_555 1_555
N7 Ag1 1_555 1_555
N8 Ag1 1_555 1_555
N9 Ag2 1_555 1_555
N10 Ag4 1_555 1_555
N11 Ag3 1_555 1_555
N12 Ag4 1_555 1_555
O1 Ag3 1_555 1_555
O2 Ag1 1_555 1_555
O3 Ag4 1_555 1_555
O4 Ag2 1_555 1_555
O5 C9 1_555 1_555
O6 C11 1_555 1_555
O7 Ag2 1_555 1_555
O8 Ag4 1_555 1_555
O9 Ag1 1_555 1_555
F2 C8 1_555 1_555
F3 C8 1_555 1_555
F5 C10 1_555 1_555
F6 C10 1_555 1_555
F8 C12 1_555 1_555
F9 C12 1_555 1_555
F11 C14 1_555 1_555
F12 C14 1_555 1_555
Ag3_2 O6 1_555 1_555
O6_2 Ag3 1_555 1_555
C2 N2 1_555 1_555
C3 N1 1_555 1_555
C3 N3 1_555 1_555
C5 N5 1_555 1_555
C6 N4 1_555 1_555
C6 N6 1_555 1_555
C7 O2 1_555 1_555
C7 O3 1_555 1_555
C9 O4 1_555 1_555
C11 O7 1_555 1_555
C13 O8 1_555 1_555
C13 O9 1_555 1_555
C15 N7 1_555 1_555
C16 N7 1_555 1_555
C20 N8 1_555 1_555
C21 N8 1_555 1_555
C25 N9 1_555 1_555
C26 N9 1_555 1_555
C30 N10 1_555 1_555
C31 N10 1_555 1_555
C35 N11 1_555 1_555
C39 N12 1_555 1_555
C40 N11 1_555 1_555
C41 N12 1_555 1_555

#END
