
#######################################################################
#
#                 Cambridge Crystallographic Data Centre
#                                CCDC 
#
#######################################################################
#
# If this CIF has been generated from an entry in the Cambridge 
# Structural Database, then it will include bibliographic, chemical, 
# crystal, experimental, refinement or atomic coordinate data resulting 
# from the CCDC's data processing and validation procedures.
#
#######################################################################

data_HAZBOA
_symmetry_cell_setting           triclinic
_symmetry_space_group_name_H-M   'P -1'
_symmetry_Int_Tables_number      2
_space_group_name_Hall           '-P 1'
loop_
_symmetry_equiv_pos_site_id
_symmetry_equiv_pos_as_xyz
1 x,y,z
2 -x,-y,-z
_cell_length_a                   6.3222(8)
_cell_length_b                   9.2626(11)
_cell_length_c                   9.4421(12)
_cell_angle_alpha                88.316(2)
_cell_angle_beta                 73.963(2)
_cell_angle_gamma                76.626(2)
_cell_volume                     516.648
loop_
_atom_site_label
_atom_site_type_symbol
_atom_site_fract_x
_atom_site_fract_y
_atom_site_fract_z
Sm1 Sm 0.15238(5) 0.05958(3) 0.78066(4)
C1 C 0.4039(12) 0.3899(7) 0.9614(8)
C2 C 0.3337(12) 0.5366(8) 0.9281(8)
H1 H 0.2212 0.5618 0.8798
C3 C 0.5728(11) 0.3526(7) 1.0350(7)
C4 C 0.3029(11) 0.2750(7) 0.9152(8)
C5 C 0.6590(11) 0.1987(7) 1.0828(8)
C6 C -0.3927(12) 0.5892(8) 0.5544(8)
H2 H -0.3184 0.6486 0.5913
C7 C -0.3331(12) 0.4341(8) 0.5688(8)
C8 C -0.5574(11) 0.6560(7) 0.4874(7)
C9 C -0.1608(12) 0.3716(8) 0.6458(8)
O1 O 0.3764(9) 0.1391(5) 0.9355(6)
O2 O -0.1518(10) -0.0503(7) 0.7766(7)
H3 H -0.2136 -0.0713 0.8604
O3 O 0.1463(9) 0.3150(5) 0.8544(6)
O4 O 0.5495(8) 0.1552(5) 1.2012(5)
O5 O 0.8503(8) 0.1248(5) 1.0121(6)
O6 O -0.0841(10) 0.4729(6) 0.6973(7)
H4 H 0.0035 0.4281 0.7540
O7 O -0.0976(9) 0.2380(6) 0.6620(6)
C10 C -0.6042(11) 0.8252(7) 0.4797(8)
O8 O -0.4592(9) 0.8746(6) 0.3827(6)
O9 O -0.7688(8) 0.9023(6) 0.5688(6)
H5 H -0.194(15) -0.050(11) 0.702(6)
Sm1A Sm 0.84762(5) 0.94042(3) 1.21934(4)
Sm1A_2 Sm 0.84762(5) -0.05958(3) 1.21934(4)
Sm1_2 Sm 1.15238(5) 0.05958(3) 0.78066(4)
Sm1A_3 Sm -0.15238(5) 0.94042(3) 0.21934(4)
Sm1_3 Sm -0.84762(5) 1.05958(3) 0.78066(4)
Sm1_4 Sm 0.15238(5) 1.05958(3) 0.78066(4)
Sm1A_4 Sm -0.15238(5) 0.94042(3) 1.21934(4)
Sm1A_5 Sm -1.15238(5) 0.94042(3) 0.21934(4)
Sm1_5 Sm -0.84762(5) 0.05958(3) 0.78066(4)
Sm1A_6 Sm -0.15238(5) -0.05958(3) 0.21934(4)
C1A C 0.5961(12) 0.6101(7) 1.0386(8)
C2A C 0.6663(12) 0.4634(8) 1.0719(8)
H1A H 0.7788 0.4382 1.1202
C3A C 0.4272(11) 0.6474(7) 0.9650(7)
C4A C 0.6971(11) 0.7250(7) 1.0848(8)
C5A C 0.3410(11) 0.8013(7) 0.9172(8)
C6A C -0.6073(12) 0.4108(8) 0.4456(8)
H2A H -0.6816 0.3514 0.4087
C7A C -0.6669(12) 0.5659(8) 0.4312(8)
C8A C -0.4426(11) 0.3440(7) 0.5126(7)
C9A C -0.8392(12) 0.6284(8) 0.3542(8)
O1A O 0.6236(9) 0.8609(5) 1.0645(6)
O2A O 1.1518(10) 1.0503(7) 1.2234(7)
H3A H 1.2136 1.0713 1.1396
O3A O 0.8537(9) 0.6850(5) 1.1456(6)
O4A O 0.4505(8) 0.8448(5) 0.7988(5)
O4A_2 O 0.4505(8) -0.1552(5) 0.7988(5)
O4_2 O 0.5495(8) 1.1552(5) 1.2012(5)
O5A O 0.1497(8) 0.8752(5) 0.9879(6)
O5_2 O -0.1497(8) 0.1248(5) 1.0121(6)
O5A_2 O 0.1497(8) -0.1248(5) 0.9879(6)
O5_3 O 0.8503(8) 1.1248(5) 1.0121(6)
O5A_3 O 1.1497(8) 0.8752(5) 0.9879(6)
O6A O -0.9159(10) 0.5271(6) 0.3027(7)
H4A H -1.0035 0.5719 0.2460
O7A O -0.9024(9) 0.7620(6) 0.3380(6)
O7A_2 O 1.0976(9) 0.7620(6) 1.3380(6)
C10A C -0.3958(11) 0.1748(7) 0.5203(8)
O8A O -0.5408(9) 0.1254(6) 0.6173(6)
O8A_2 O 0.4592(9) 0.1254(6) 0.6173(6)
O8_2 O 0.5408(9) 0.8746(6) 1.3827(6)
O9A O -0.2312(8) 0.0977(6) 0.4312(6)
O9_2 O 0.2312(8) -0.0977(6) 0.5688(6)
O9A_2 O 0.7688(8) 1.0977(6) 1.4312(6)
H5A H 1.194(15) 1.050(11) 1.298(6)
loop_
_geom_bond_atom_site_label_1
_geom_bond_atom_site_label_2
_geom_bond_site_symmetry_1
_geom_bond_site_symmetry_2
Sm1 O1 1_555 1_555
C1 C2 1_555 1_555
C2 H1 1_555 1_555
C3 C1 1_555 1_555
C4 C1 1_555 1_555
C5 C3 1_555 1_555
C6 H2 1_555 1_555
C7 C6 1_555 1_555
C8 C6 1_555 1_555
C9 C7 1_555 1_555
O1 C4 1_555 1_555
O2 Sm1 1_555 1_555
H3 O2 1_555 1_555
O3 Sm1 1_555 1_555
O4 C5 1_555 1_555
O5 C5 1_555 1_555
O6 C9 1_555 1_555
H4 O6 1_555 1_555
O7 Sm1 1_555 1_555
C10 C8 1_555 1_555
O8 C10 1_555 1_555
O9 C10 1_555 1_555
H5 O2 1_555 1_555
Sm1A O1A 1_555 1_555
Sm1A_2 O4 1_555 1_555
Sm1_2 O5 1_555 1_555
Sm1A_3 O8 1_555 1_555
Sm1_3 O9 1_555 1_555
Sm1_4 O4A 1_555 1_555
Sm1A_4 O5A 1_555 1_555
Sm1A_5 O7A 1_555 1_555
Sm1_5 O8A 1_555 1_555
Sm1A_6 O9A 1_555 1_555
C1A C2A 1_555 1_555
C2A C3 1_555 1_555
H1A C2A 1_555 1_555
C3A C2 1_555 1_555
C4A C1A 1_555 1_555
C5A C3A 1_555 1_555
C6A H2A 1_555 1_555
C7A C8 1_555 1_555
C8A C7 1_555 1_555
C9A C7A 1_555 1_555
O1A C4A 1_555 1_555
O2A Sm1A 1_555 1_555
H3A O2A 1_555 1_555
O3A Sm1A 1_555 1_555
O4A C5A 1_555 1_555
O4A_2 Sm1 1_555 1_555
O4_2 Sm1A 1_555 1_555
O5A Sm1_4 1_555 1_555
O5_2 Sm1 1_555 1_555
O5A_2 Sm1 1_555 1_555
O5_3 Sm1A 1_555 1_555
O5A_3 Sm1A 1_555 1_555
O6A C9A 1_555 1_555
H4A O6A 1_555 1_555
O7A C9A 1_555 1_555
O7A_2 Sm1A 1_555 1_555
C10A C8A 1_555 1_555
O8A C10A 1_555 1_555
O8A_2 Sm1 1_555 1_555
O8_2 Sm1A 1_555 1_555
O9A C10A 1_555 1_555
O9_2 Sm1 1_555 1_555
O9A_2 Sm1A 1_555 1_555
H5A O2A 1_555 1_555
C4 O3 1_555 1_555
C9 O7 1_555 1_555
O5 Sm1A_2 1_555 1_555
C1A C3A 1_555 1_555
C4A O3A 1_555 1_555
C5A O5A 1_555 1_555
C6A C7A 1_555 1_555
C6A C8A 1_555 1_555

#END
