
#######################################################################
#
#                 Cambridge Crystallographic Data Centre
#                                CCDC 
#
#######################################################################
#
# If this CIF has been generated from an entry in the Cambridge 
# Structural Database, then it will include bibliographic, chemical, 
# crystal, experimental, refinement or atomic coordinate data resulting 
# from the CCDC's data processing and validation procedures.
#
#######################################################################

data_HAZBOB
_symmetry_cell_setting           monoclinic
_symmetry_space_group_name_H-M   'P 21/c'
_symmetry_Int_Tables_number      14
_space_group_name_Hall           '-P 2ybc'
loop_
_symmetry_equiv_pos_site_id
_symmetry_equiv_pos_as_xyz
1 x,y,z
2 -x,1/2+y,1/2-z
3 -x,-y,-z
4 x,1/2-y,1/2+z
_cell_length_a                   10.1994(14)
_cell_length_b                   10.898(2)
_cell_length_c                   12.3603(17)
_cell_angle_alpha                90
_cell_angle_beta                 112.629(15)
_cell_angle_gamma                90
_cell_volume                     1268.12
loop_
_atom_site_label
_atom_site_type_symbol
_atom_site_fract_x
_atom_site_fract_y
_atom_site_fract_z
Ag1 Ag 0.72720(5) 0.21567(4) 0.09969(5)
N1 N 0.9413(4) 0.2442(4) 0.2777(4)
H1 H 0.9210 0.2341 0.2040
C1 C 0.9742(6) 0.1447(6) 0.3638(6)
H2 H 1.0706 0.1538 0.4209
H3 H 0.9673 0.0664 0.3247
C2 C 0.8710(6) 0.1479(6) 0.4252(5)
H4 H 0.7761 0.1305 0.3686
H5 H 0.8963 0.0842 0.4845
N2 N 0.8707(5) 0.2662(4) 0.4801(4)
H6 H 0.8845 0.2760 0.5528
C3 C 0.8440(6) 0.3659(5) 0.3953(6)
H7 H 0.8523 0.4439 0.4352
H8 H 0.7478 0.3591 0.3373
C4 C 0.9477(6) 0.3629(6) 0.3343(6)
H9 H 0.9244 0.4276 0.2760
H10 H 1.0433 0.3772 0.3911
N3 N 0.5626(5) 0.3830(4) 0.0528(4)
H11 H 0.5689 0.3147 0.0893
C5 C 0.6185(6) 0.5005(5) 0.1077(6)
H12 H 0.6950 0.5259 0.0845
H13 H 0.6577 0.4905 0.1922
C6 C 0.4940(7) 0.4000(5) -0.0745(5)
H14 H 0.5655 0.4213 -0.1051
H15 H 0.4506 0.3233 -0.1105
N4 N 0.6249(5) 0.0195(4) 0.1031(4)
H16 H 0.6980 0.0592 0.1490
C7 C 0.4827(6) 0.0270(5) 0.1050(6)
H17 H 0.4831 0.0858 0.1641
H18 H 0.4564 -0.0523 0.1260
C8 C 0.6240(6) -0.0653(5) 0.0117(6)
H19 H 0.7177 -0.0676 0.0088
H20 H 0.6016 -0.1472 0.0301
Ag1C Ag 0.72720(5) 0.28433(4) -0.40031(5)
Ag1C_2 Ag 0.72720(5) 0.28433(4) 0.59969(5)
Ag1B Ag 0.27280(5) 0.78433(4) -0.09969(5)
Ag1B_2 Ag 0.27280(5) -0.21567(4) -0.09969(5)
N1C N 0.9413(4) 0.2558(4) -0.2223(4)
H1C H 0.9210 0.2659 -0.2960
C1C C 0.9742(6) 0.3553(6) -0.1362(6)
H2C H 1.0706 0.3462 -0.0791
H3C H 0.9673 0.4336 -0.1753
C2C C 0.8710(6) 0.3521(6) -0.0748(5)
H4C H 0.7761 0.3695 -0.1314
H5C H 0.8963 0.4158 -0.0155
N2C N 0.8707(5) 0.2338(4) -0.0199(4)
N2_2 N 0.8707(5) 0.2662(4) -0.5199(4)
H6C H 0.8845 0.2240 0.0528
H6_2 H 0.8845 0.2760 -0.4472
C3C C 0.8440(6) 0.1341(5) -0.1047(6)
H7C H 0.8523 0.0561 -0.0648
H8C H 0.7478 0.1409 -0.1627
C4C C 0.9477(6) 0.1371(6) -0.1657(6)
H9C H 0.9244 0.0724 -0.2240
H10C H 1.0433 0.1228 -0.1089
N3B N 0.4374(5) 0.6170(4) -0.0528(4)
N3C N 0.5626(5) 0.1170(4) -0.4472(4)
H11B H 0.4311 0.6853 -0.0893
H11C H 0.5689 0.1853 -0.4107
C5B C 0.3815(6) 0.4995(5) -0.1077(6)
H12B H 0.3050 0.4741 -0.0845
H13B H 0.3423 0.5095 -0.1922
C6B C 0.5060(7) 0.6000(5) 0.0745(5)
H14B H 0.4345 0.5787 0.1051
H15B H 0.5494 0.6767 0.1105
N4B N 0.3751(5) -0.0195(4) -0.1031(4)
N4C N 0.6249(5) 0.4805(4) -0.3969(4)
H16B H 0.3020 -0.0592 -0.1490
H16C H 0.6980 0.4408 -0.3510
C7B C 0.5173(6) -0.0270(5) -0.1050(6)
H17B H 0.5169 -0.0858 -0.1641
H18B H 0.5436 0.0523 -0.1260
C8B C 0.3760(6) 0.0653(5) -0.0117(6)
H19B H 0.2823 0.0676 -0.0088
H20B H 0.3984 0.1472 -0.0301
N5 N 0.2384(5) 0.2828(6) 0.1743(4)
O1 O 0.1911(6) 0.1782(4) 0.1540(5)
O2 O 0.3561(5) 0.3104(5) 0.1746(6)
O3 O 0.1654(5) 0.3634(4) 0.1951(5)
loop_
_geom_bond_atom_site_label_1
_geom_bond_atom_site_label_2
_geom_bond_site_symmetry_1
_geom_bond_site_symmetry_2
Ag1 N1 1_555 1_555
N1 H1 1_555 1_555
C1 N1 1_555 1_555
H2 C1 1_555 1_555
H3 C1 1_555 1_555
C2 C1 1_555 1_555
H4 C2 1_555 1_555
H5 C2 1_555 1_555
N2 C2 1_555 1_555
H6 N2 1_555 1_555
C3 N2 1_555 1_555
H7 C3 1_555 1_555
H8 C3 1_555 1_555
C4 N1 1_555 1_555
H9 C4 1_555 1_555
H10 C4 1_555 1_555
N3 Ag1 1_555 1_555
H11 N3 1_555 1_555
C5 N3 1_555 1_555
H12 C5 1_555 1_555
H13 C5 1_555 1_555
C6 N3 1_555 1_555
H14 C6 1_555 1_555
H15 C6 1_555 1_555
N4 Ag1 1_555 1_555
H16 N4 1_555 1_555
C7 N4 1_555 1_555
H17 C7 1_555 1_555
H18 C7 1_555 1_555
C8 N4 1_555 1_555
H19 C8 1_555 1_555
H20 C8 1_555 1_555
N5 O1 1_555 1_555
O2 N5 1_555 1_555
O3 N5 1_555 1_555
Ag1C N1C 1_555 1_555
Ag1C_2 N2 1_555 1_555
Ag1B N3B 1_555 1_555
Ag1B_2 N4B 1_555 1_555
N1C H1C 1_555 1_555
C1C N1C 1_555 1_555
H2C C1C 1_555 1_555
H3C C1C 1_555 1_555
C2C C1C 1_555 1_555
H4C C2C 1_555 1_555
H5C C2C 1_555 1_555
N2C Ag1 1_555 1_555
N2_2 Ag1C 1_555 1_555
H6C N2C 1_555 1_555
H6_2 N2_2 1_555 1_555
C3C N2C 1_555 1_555
H7C C3C 1_555 1_555
H8C C3C 1_555 1_555
C4C N1C 1_555 1_555
H9C C4C 1_555 1_555
H10C C4C 1_555 1_555
N3B H11B 1_555 1_555
N3C Ag1C 1_555 1_555
H11C N3C 1_555 1_555
C5B C6 1_555 1_555
H12B C5B 1_555 1_555
H13B C5B 1_555 1_555
C6B C5 1_555 1_555
H14B C6B 1_555 1_555
H15B C6B 1_555 1_555
N4B H16B 1_555 1_555
N4C Ag1C 1_555 1_555
H16C N4C 1_555 1_555
C7B C8 1_555 1_555
H17B C7B 1_555 1_555
H18B C7B 1_555 1_555
C8B C7 1_555 1_555
H19B C8B 1_555 1_555
H20B C8B 1_555 1_555
C3 C4 1_555 1_555
C2C N2C 1_555 1_555
C3C C4C 1_555 1_555
N3B C5B 1_555 1_555
N3B C6B 1_555 1_555
N4B C7B 1_555 1_555
N4B C8B 1_555 1_555

#END
