
#######################################################################
#
#                 Cambridge Crystallographic Data Centre
#                                CCDC 
#
#######################################################################
#
# If this CIF has been generated from an entry in the Cambridge 
# Structural Database, then it will include bibliographic, chemical, 
# crystal, experimental, refinement or atomic coordinate data resulting 
# from the CCDC's data processing and validation procedures.
#
#######################################################################

data_HAZBER
_symmetry_cell_setting           monoclinic
_symmetry_space_group_name_H-M   'P 2/c'
_symmetry_Int_Tables_number      13
_space_group_name_Hall           '-P 2yc'
loop_
_symmetry_equiv_pos_site_id
_symmetry_equiv_pos_as_xyz
1 x,y,z
2 -x,y,1/2-z
3 -x,-y,-z
4 x,-y,1/2+z
_cell_length_a                   11.4615(17)
_cell_length_b                   6.0079(8)
_cell_length_c                   16.367(3)
_cell_angle_alpha                90
_cell_angle_beta                 131.813(13)
_cell_angle_gamma                90
_cell_volume                     839.999
loop_
_atom_site_label
_atom_site_type_symbol
_atom_site_fract_x
_atom_site_fract_y
_atom_site_fract_z
Ag1 Ag -0.27412(10) -0.57271(13) -0.52495(8)
C1 C -0.0855(11) -0.6344(15) -0.5966(8)
H1 H -0.0500 -0.5754 -0.6320
H2 H -0.1590 -0.7540 -0.6416
C2 C 0.0510(12) -0.7206(14) -0.4849(8)
H3 H 0.1024 -0.8378 -0.4915
H4 H 0.0140 -0.7836 -0.4512
C3 C -0.5467(11) -0.7175(14) -0.5428(8)
H5 H -0.5840 -0.7753 -0.5085
H6 H -0.5588 -0.8332 -0.5893
C4 C -0.6424(12) -0.5189(19) -0.6114(8)
H7 H -0.6104 -0.4675 -0.6501
H8 H -0.7521 -0.5603 -0.6654
N1 N -0.1627(10) -0.4562(12) -0.5844(7)
H9 H -0.2589 -0.4573 -0.6138
N2 N -0.3776(9) -0.6570(7) -0.4565(6)
H10 H -0.3029 -0.7187 -0.4485
Ag1B Ag 0.27412(10) -0.42729(13) -0.47505(8)
Ag1B_2 Ag -0.72588(10) -0.42729(13) -0.47505(8)
C1B C 0.0855(11) -0.3656(15) -0.4034(8)
H1B H 0.0500 -0.4246 -0.3680
H2B H 0.1590 -0.2460 -0.3584
C2B C -0.0510(12) -0.2794(14) -0.5151(8)
H3B H -0.1024 -0.1622 -0.5085
H4B H -0.0140 -0.2164 -0.5488
C3B C -0.4533(11) -0.2825(14) -0.4572(8)
H5B H -0.4160 -0.2247 -0.4915
H6B H -0.4412 -0.1668 -0.4107
C4B C -0.3576(12) -0.4811(19) -0.3886(8)
H7B H -0.3896 -0.5325 -0.3499
H8B H -0.2479 -0.4397 -0.3346
N1B N 0.1627(10) -0.5438(12) -0.4156(7)
H9B H 0.2589 -0.5427 -0.3862
N2B N -0.6224(9) -0.3430(7) -0.5435(6)
N2B_2 N 0.3776(9) -0.3430(7) -0.5435(6)
H10B H -0.6971 -0.2813 -0.5515
H10B_2 H 0.3029 -0.2813 -0.5515
B1 B 0.0001(9) -0.9586(7) -0.2499(6)
F1 F 0.1102(9) -1.0662(7) -0.1596(6)
F2 F -0.1281(9) -0.9282(7) -0.2516(6)
F1A F -0.1102(9) -1.0662(7) -0.3404(6)
F2A F 0.1281(9) -0.9282(7) -0.2484(6)
B2 B 0.5001(9) 0.0165(7) -0.2499(6)
F3 F 0.6331(9) 0.0229(7) -0.1311(6)
F4 F 0.4058(9) 0.1119(7) -0.2412(6)
F3A F 0.3669(9) 0.0229(7) -0.3689(6)
F4A F 0.5942(9) 0.1119(7) -0.2588(6)
loop_
_geom_bond_atom_site_label_1
_geom_bond_atom_site_label_2
_geom_bond_site_symmetry_1
_geom_bond_site_symmetry_2
Ag1 N1 1_555 1_555
C1 H1 1_555 1_555
H2 C1 1_555 1_555
C2 C1 1_555 1_555
H3 C2 1_555 1_555
H4 C2 1_555 1_555
C3 H5 1_555 1_555
H6 C3 1_555 1_555
C4 C3 1_555 1_555
H7 C4 1_555 1_555
H8 C4 1_555 1_555
N1 C1 1_555 1_555
H9 N1 1_555 1_555
N2 Ag1 1_555 1_555
H10 N2 1_555 1_555
B1 F1 1_555 1_555
B2 F3 1_555 1_555
F2 B1 1_555 1_555
F4 B2 1_555 1_555
Ag1B N1B 1_555 1_555
Ag1B_2 N2B 1_555 1_555
C1B H1B 1_555 1_555
H2B C1B 1_555 1_555
C2B N1 1_555 1_555
H3B C2B 1_555 1_555
H4B C2B 1_555 1_555
C3B H5B 1_555 1_555
H6B C3B 1_555 1_555
C4B N2 1_555 1_555
H7B C4B 1_555 1_555
H8B C4B 1_555 1_555
N1B C2 1_555 1_555
H9B N1B 1_555 1_555
N2B C4 1_555 1_555
N2B_2 Ag1B 1_555 1_555
H10B N2B 1_555 1_555
H10B_2 N2B_2 1_555 1_555
F1A B1 1_555 1_555
F2A B1 1_555 1_555
F3A B2 1_555 1_555
F4A B2 1_555 1_555
C3 N2 1_555 1_555
C1B C2B 1_555 1_555
C1B N1B 1_555 1_555
C3B C4B 1_555 1_555
C3B N2B 1_555 1_555

#END
