
#######################################################################
#
#                 Cambridge Crystallographic Data Centre
#                                CCDC 
#
#######################################################################
#
# If this CIF has been generated from an entry in the Cambridge 
# Structural Database, then it will include bibliographic, chemical, 
# crystal, experimental, refinement or atomic coordinate data resulting 
# from the CCDC's data processing and validation procedures.
#
#######################################################################

data_HAZCER
_symmetry_cell_setting           monoclinic
_symmetry_space_group_name_H-M   'C 2/c'
_symmetry_Int_Tables_number      15
_space_group_name_Hall           '-C 2yn'
loop_
_symmetry_equiv_pos_site_id
_symmetry_equiv_pos_as_xyz
1 x,y,z
2 1/2+x,1/2+y,z
3 -x,y,1/2-z
4 1/2-x,1/2+y,1/2-z
5 -x,-y,-z
6 1/2-x,1/2-y,-z
7 x,-y,1/2+z
8 1/2+x,1/2-y,1/2+z
_cell_length_a                   22.088(4)
_cell_length_b                   7.5560(15)
_cell_length_c                   11.152(2)
_cell_angle_alpha                90
_cell_angle_beta                 113.56(3)
_cell_angle_gamma                90
_cell_volume                     1706.09
loop_
_atom_site_label
_atom_site_type_symbol
_atom_site_fract_x
_atom_site_fract_y
_atom_site_fract_z
Co1 Co 0.5000 0.0000 0.0000
S1 S 0.40570(2) 0.44676(7) -0.33540(5)
N1 N 0.57003(8) 0.2151(2) 0.10192(16)
C1 C 0.65389(9) 0.1204(2) 0.31474(18)
C2 C 0.63671(9) 0.1763(2) 0.18521(18)
C3 C 0.71978(9) 0.0875(2) 0.39695(19)
H1 H 0.7310 0.0516 0.4849
C4 C 0.60361(9) 0.0968(2) 0.36497(18)
C5 C 0.75164(9) 0.1563(3) 0.22096(19)
H2 H 0.7851 0.1674 0.1881
C6 C 0.68623(9) 0.1895(2) 0.13891(18)
H3 H 0.6753 0.2215 0.0503
C7 C 0.76865(9) 0.1074(3) 0.34988(19)
H4 H 0.8136 0.0875 0.4058
H5 H 0.5522(10) 0.276(3) 0.142(2)
N2 N 0.45294(8) 0.1837(2) -0.14249(15)
N3 N 0.56472(8) 0.0740(2) 0.40709(15)
C8 C 0.43375(9) 0.2935(3) -0.22186(18)
H6 H 0.5672(9) 0.274(3) 0.028(2)
Co1F Co 0.5000 0.0000 0.5000
Co1F_2 Co 0.5000 0.0000 -0.5000
S1D S 0.59430(2) -0.44676(7) 0.33540(5)
N1D N 0.42997(8) -0.2151(2) -0.10192(16)
C1D C 0.34611(9) -0.1204(2) -0.31474(18)
C2D C 0.36329(9) -0.1763(2) -0.18521(18)
C3D C 0.28022(9) -0.0875(2) -0.39695(19)
H1D H 0.2690 -0.0516 -0.4849
C4D C 0.39639(9) -0.0968(2) -0.36497(18)
C5D C 0.24836(9) -0.1563(3) -0.22096(19)
H2D H 0.2149 -0.1674 -0.1881
C6D C 0.31377(9) -0.1895(2) -0.13891(18)
H3D H 0.3247 -0.2215 -0.0503
C7D C 0.23135(9) -0.1074(3) -0.34988(19)
H4D H 0.1864 -0.0875 -0.4058
H5D H 0.4478(10) -0.276(3) -0.142(2)
N2D N 0.54706(8) -0.1837(2) 0.14249(15)
N3D N 0.43528(8) -0.0740(2) -0.40709(15)
N3F N 0.56472(8) -0.0740(2) -0.09291(15)
N3B N 0.43528(8) 0.0740(2) 0.09291(15)
C8D C 0.56625(9) -0.2935(3) 0.22186(18)
H6D H 0.4328(9) -0.274(3) -0.028(2)
loop_
_geom_bond_atom_site_label_1
_geom_bond_atom_site_label_2
_geom_bond_site_symmetry_1
_geom_bond_site_symmetry_2
Co1 N1 1_555 1_555
S1 C8 1_555 1_555
N1 C2 1_555 1_555
C1 C2 1_555 1_555
C2 C6 1_555 1_555
C3 C1 1_555 1_555
H1 C3 1_555 1_555
C4 C1 1_555 1_555
C5 H2 1_555 1_555
C6 C5 1_555 1_555
H3 C6 1_555 1_555
C7 C3 1_555 1_555
H4 C7 1_555 1_555
H5 N1 1_555 1_555
N2 Co1 1_555 1_555
N3 C4 1_555 1_555
C8 N2 1_555 1_555
H6 N1 1_555 1_555
Co1F N3 1_555 1_555
Co1F_2 N3D 1_555 1_555
S1D C8D 1_555 1_555
N1D Co1 1_555 1_555
C1D C2D 1_555 1_555
C2D N1D 1_555 1_555
C3D C1D 1_555 1_555
H1D C3D 1_555 1_555
C4D C1D 1_555 1_555
C5D H2D 1_555 1_555
C6D C2D 1_555 1_555
H3D C6D 1_555 1_555
C7D C3D 1_555 1_555
H4D C7D 1_555 1_555
H5D N1D 1_555 1_555
N2D Co1 1_555 1_555
N3D C4D 1_555 1_555
N3F Co1 1_555 1_555
N3B Co1 1_555 1_555
C8D N2D 1_555 1_555
H6D N1D 1_555 1_555
C5 C7 1_555 1_555
C5D C6D 1_555 1_555
C5D C7D 1_555 1_555

#END
