
#######################################################################
#
#                 Cambridge Crystallographic Data Centre
#                                CCDC 
#
#######################################################################
#
# If this CIF has been generated from an entry in the Cambridge 
# Structural Database, then it will include bibliographic, chemical, 
# crystal, experimental, refinement or atomic coordinate data resulting 
# from the CCDC's data processing and validation procedures.
#
#######################################################################

data_HAZGOF
_symmetry_cell_setting           orthorhombic
_symmetry_space_group_name_H-M   'F d d d'
_symmetry_Int_Tables_number      70
_space_group_name_Hall           '-F 2uv 2vw'
loop_
_symmetry_equiv_pos_site_id
_symmetry_equiv_pos_as_xyz
1 x,y,z
2 x,1/2+y,1/2+z
3 x,1/4-y,1/4-z
4 1/2+x,y,1/2+z
5 1/4-x,y,1/4-z
6 1/2+x,1/2+y,z
7 1/4-x,1/4-y,z
8 3/4-x,3/4-y,z
9 3/4-x,y,3/4-z
10 x,3/4-y,3/4-z
11 3/4-x,1/4-y,1/2+z
12 3/4-x,1/2+y,1/4-z
13 1/4-x,3/4-y,1/2+z
14 1/2+x,3/4-y,1/4-z
15 1/4-x,1/2+y,3/4-z
16 1/2+x,1/4-y,3/4-z
17 -x,-y,-z
18 -x,1/2-y,1/2-z
19 -x,3/4+y,3/4+z
20 1/2-x,-y,1/2-z
21 3/4+x,-y,3/4+z
22 1/2-x,1/2-y,-z
23 3/4+x,3/4+y,-z
24 1/4+x,1/4+y,-z
25 1/4+x,-y,1/4+z
26 -x,1/4+y,1/4+z
27 1/4+x,3/4+y,1/2-z
28 1/4+x,1/2-y,3/4+z
29 3/4+x,1/4+y,1/2-z
30 1/2-x,1/4+y,3/4+z
31 3/4+x,1/2-y,1/4+z
32 1/2-x,3/4+y,1/4+z
_cell_length_a                   8.7433(5)
_cell_length_b                   20.7448(11)
_cell_length_c                   34.3664(18)
_cell_angle_alpha                90
_cell_angle_beta                 90
_cell_angle_gamma                90
_cell_volume                     6233.31
loop_
_atom_site_label
_atom_site_type_symbol
_atom_site_fract_x
_atom_site_fract_y
_atom_site_fract_z
Sc1 Sc 0.3750 0.8750 0.135677(9)
O1 O 0.50527(14) 0.79181(6) 0.13531(5)
O2 O 0.24530(14) 0.83425(8) 0.09257(4)
O3 O 0.24125(13) 0.83332(7) 0.17946(3)
C1 C 0.6250 0.76357(12) 0.1250
C2 C 0.14781(18) 0.81972(9) 0.06770(4)
C3 C 0.6250 0.69190(12) 0.1250
C4 C 0.20039(18) 0.78357(10) 0.03248(5)
C5 C 0.4891(2) 0.65830(11) 0.12549(10)
C6 C 0.3537(2) 0.76946(13) 0.02772(6)
C7 C 0.0968(2) 0.76415(13) 0.00473(6)
O1G O 0.24473(14) 0.95819(6) 0.13531(5)
O2G O 0.50470(14) 0.91575(8) 0.09257(4)
O3G O 0.50875(13) 0.91668(7) 0.17946(3)
C1G C 0.1250 0.98643(12) 0.1250
O1D O 0.74473(14) 0.79181(6) 0.11469(5)
O3D O 0.00875(13) 0.83332(7) 0.07054(3)
O1M O 0.00527(14) 0.95819(6) 0.11469(5)
C3G C 0.1250 1.05810(12) 0.1250
C5D C 0.7609(2) 0.65830(11) 0.12451(10)
Sc1D Sc 0.8750 0.8750 0.114323(9)
Sc1D_2 Sc -0.1250 0.8750 0.114323(9)
C5M C -0.0109(2) 1.09170(11) 0.12451(10)
C5G C 0.2609(2) 1.09170(11) 0.12549(10)
C5B C 0.4891(2) 0.59170(11) 0.12451(10)
C5F C 0.7609(2) 0.59170(11) 0.12549(10)
C7U C 0.4032(2) 0.73585(13) -0.00473(6)
C6U C 0.1463(2) 0.73054(13) -0.02772(6)
C5E C -0.0109(2) 1.15830(11) 0.12549(10)
C5K C 0.2609(2) 1.15830(11) 0.12451(10)
C3B C 0.6250 0.55810(12) 0.1250
C4U C 0.29961(18) 0.71643(10) -0.03248(5)
C3E C 0.1250 1.19190(12) 0.1250
C1B C 0.6250 0.48643(12) 0.1250
C2U C 0.35219(18) 0.68028(9) -0.06770(4)
C1E C 0.1250 1.26357(12) 0.1250
O1B O 0.50527(14) 0.45819(6) 0.11469(5)
O1F O 0.74473(14) 0.45819(6) 0.13531(5)
O2U O 0.25470(14) 0.66575(8) -0.09257(4)
O3AA O 0.49125(13) 0.66668(7) -0.07054(3)
O1E O 0.00527(14) 1.29181(6) 0.13531(5)
O1K O 0.24473(14) 1.29181(6) 0.11469(5)
Sc1B Sc 0.3750 0.3750 0.114323(9)
Sc1E Sc 0.8750 0.3750 0.135677(9)
Sc1U Sc 0.1250 0.6250 -0.135677(9)
Sc1R Sc 0.6250 0.6250 -0.114323(9)
Sc1E_2 Sc -0.1250 1.3750 0.135677(9)
Sc1B_2 Sc 0.3750 1.3750 0.114323(9)
O3V O -0.00875(13) 0.58332(7) -0.17946(3)
O1U O -0.00527(14) 0.70819(6) -0.13531(5)
O1V O 0.25527(14) 0.54181(6) -0.13531(5)
O2V O -0.00470(14) 0.58425(8) -0.09257(4)
O3U O 0.25875(13) 0.66668(7) -0.17946(3)
loop_
_geom_bond_atom_site_label_1
_geom_bond_atom_site_label_2
_geom_bond_site_symmetry_1
_geom_bond_site_symmetry_2
Sc1 O1 1_555 1_555
O1 C1 1_555 1_555
O2 Sc1 1_555 1_555
O3 Sc1 1_555 1_555
C1 C3 1_555 1_555
C2 O2 1_555 1_555
C3 C5 1_555 1_555
C4 C2 1_555 1_555
C5 C5B 1_555 1_555
C6 C4 1_555 1_555
C7 C4 1_555 1_555
O1G Sc1 1_555 1_555
O2G Sc1 1_555 1_555
O3G Sc1 1_555 1_555
C1G O1G 1_555 1_555
O1D C1 1_555 1_555
O3D C2 1_555 1_555
O1M C1G 1_555 1_555
C3G C1G 1_555 1_555
C5D C3 1_555 1_555
Sc1D O1D 1_555 1_555
Sc1D_2 O3D 1_555 1_555
C5M C3G 1_555 1_555
C5G C3G 1_555 1_555
C5B C3B 1_555 1_555
C5F C5D 1_555 1_555
C7U C6 1_555 1_555
C6U C7 1_555 1_555
C5E C5M 1_555 1_555
C5K C5G 1_555 1_555
C3B C5F 1_555 1_555
C4U C7U 1_555 1_555
C3E C5E 1_555 1_555
C1B C3B 1_555 1_555
C2U C4U 1_555 1_555
C1E C3E 1_555 1_555
O1B C1B 1_555 1_555
O1F C1B 1_555 1_555
O2U C2U 1_555 1_555
O3AA C2U 1_555 1_555
O1E C1E 1_555 1_555
O1K C1E 1_555 1_555
Sc1B O1B 1_555 1_555
Sc1E O1F 1_555 1_555
Sc1U O2U 1_555 1_555
Sc1R O3AA 1_555 1_555
Sc1E_2 O1E 1_555 1_555
Sc1B_2 O1K 1_555 1_555
O3V Sc1U 1_555 1_555
O1U Sc1U 1_555 1_555
O1V Sc1U 1_555 1_555
O2V Sc1U 1_555 1_555
O3U Sc1U 1_555 1_555
O1M Sc1D_2 1_555 1_555
C6U C4U 1_555 1_555
C5K C3E 1_555 1_555

#END
