
#######################################################################
#
#                 Cambridge Crystallographic Data Centre
#                                CCDC 
#
#######################################################################
#
# If this CIF has been generated from an entry in the Cambridge 
# Structural Database, then it will include bibliographic, chemical, 
# crystal, experimental, refinement or atomic coordinate data resulting 
# from the CCDC's data processing and validation procedures.
#
#######################################################################

data_HAZGUM
_symmetry_cell_setting           triclinic
_symmetry_space_group_name_H-M   'P -1'
_symmetry_Int_Tables_number      2
_space_group_name_Hall           '-P 1'
loop_
_symmetry_equiv_pos_site_id
_symmetry_equiv_pos_as_xyz
1 x,y,z
2 -x,-y,-z
_cell_length_a                   6.7987(8)
_cell_length_b                   10.452(6)
_cell_length_c                   7.272(2)
_cell_angle_alpha                86.24(3)
_cell_angle_beta                 115.844(16)
_cell_angle_gamma                88.71(2)
_cell_volume                     463.313
loop_
_atom_site_label
_atom_site_type_symbol
_atom_site_fract_x
_atom_site_fract_y
_atom_site_fract_z
Cu1 Cu 1.0000 1.0000 1.0000
F1 F 0.979(2) 0.8204(15) 1.017(3)
O1 O 0.824(2) 1.0019(19) 0.639(4)
N1 N 1.305(3) 0.980(2) 1.011(4)
C1 C 1.476(2) 1.030(2) 1.163(4)
C2 C 1.330(3) 0.957(3) 0.845(5)
H1 H 1.2079 0.9298 0.7303
H2 H 1.4616 1.0537 1.2802
H3 H 0.8584 0.9395 0.5878
H4 H 0.8367 1.0688 0.5731
Cu1_2 Cu 2.0000 1.0000 1.0000
F1A F 1.021(2) 1.1796(15) 0.983(3)
O1A O 1.176(2) 0.9981(19) 1.361(4)
N1A N 1.695(3) 1.020(2) 0.989(4)
N1A_2 N 0.695(3) 1.020(2) 0.989(4)
C1A C 1.524(2) 0.970(2) 0.837(4)
C2A C 1.670(3) 1.043(3) 1.155(5)
H1A H 1.7921 1.0702 1.2697
H2A H 1.5384 0.9463 0.7198
H3A H 1.1416 1.0605 1.4122
H4A H 1.1633 0.9312 1.4269
Cu2 Cu 1.0514(4) 0.6373(3) 0.6053(6)
F2 F 1.092(2) 0.4589(17) 0.695(3)
F3 F 0.9896(19) 0.8126(14) 0.494(3)
O2 O 1.222(3) 0.671(2) 0.936(4)
N2 N 0.743(2) 0.6475(17) 0.596(3)
N3 N 0.344(3) 0.6430(18) 0.598(3)
C3 C 0.715(3) 0.5708(19) 0.739(3)
C4 C 0.377(3) 0.718(2) 0.456(4)
C5 C 0.579(2) 0.727(2) 0.459(3)
C6 C 0.513(2) 0.564(2) 0.736(4)
H5 H 0.8348 0.5208 0.8434
H6 H 0.2578 0.7674 0.3497
H7 H 0.6013 0.7866 0.3659
H8 H 0.4918 0.5069 0.8313
H9 H 1.3565 0.6863 0.9867
H10 H 1.1638 0.7261 0.9811
Cu2A Cu 0.9486(4) 0.3627(3) 0.3947(6)
Cu2_2 Cu 0.0514(4) 0.6373(3) 0.6053(6)
Cu2A_2 Cu 1.9486(4) 0.3627(3) 0.3947(6)
F2A F 0.908(2) 0.5411(17) 0.305(3)
F3A F 1.0104(19) 0.1874(14) 0.506(3)
O2A O 0.778(3) 0.329(2) 0.064(4)
N2A N 1.257(2) 0.3525(17) 0.404(3)
N3A N 1.656(3) 0.3570(18) 0.402(3)
N3_2 N 1.344(3) 0.6430(18) 0.598(3)
N3A_2 N 0.656(3) 0.3570(18) 0.402(3)
C3A C 1.285(3) 0.4292(19) 0.261(3)
C4A C 1.623(3) 0.282(2) 0.544(4)
C5A C 1.421(2) 0.273(2) 0.541(3)
C6A C 1.487(2) 0.436(2) 0.264(4)
H5A H 1.1652 0.4792 0.1566
H6A H 1.7422 0.2326 0.6503
H7A H 1.3987 0.2134 0.6341
H8A H 1.5082 0.4931 0.1687
H9A H 0.6435 0.3137 0.0133
H10A H 0.8362 0.2739 0.0189
O3 O 0.650(3) 0.725(2) 1.076(4)
H11 H 0.7371 0.6639 1.1540
H12 H 0.7528 0.7570 1.0558
loop_
_geom_bond_atom_site_label_1
_geom_bond_atom_site_label_2
_geom_bond_site_symmetry_1
_geom_bond_site_symmetry_2
Cu1 F1 1_555 1_555
O1 Cu1 1_555 1_555
N1 Cu1 1_555 1_555
C1 N1 1_555 1_555
C2 N1 1_555 1_555
H1 C2 1_555 1_555
H2 C1 1_555 1_555
H3 O1 1_555 1_555
H4 O1 1_555 1_555
Cu2 F2 1_555 1_555
F2 Cu2A 1_555 1_555
F3 Cu2 1_555 1_555
O2 Cu2 1_555 1_555
N2 Cu2 1_555 1_555
N3 C4 1_555 1_555
C3 N2 1_555 1_555
C4 C5 1_555 1_555
C5 N2 1_555 1_555
C6 N3 1_555 1_555
H5 C3 1_555 1_555
H6 C4 1_555 1_555
H7 C5 1_555 1_555
H8 C6 1_555 1_555
H9 O2 1_555 1_555
H10 O2 1_555 1_555
O3 H11 1_555 1_555
H12 O3 1_555 1_555
Cu1_2 N1A 1_555 1_555
F1A Cu1 1_555 1_555
O1A Cu1 1_555 1_555
N1A C1A 1_555 1_555
N1A_2 Cu1 1_555 1_555
C1A C2 1_555 1_555
C2A C1 1_555 1_555
H1A C2A 1_555 1_555
H2A C1A 1_555 1_555
H3A O1A 1_555 1_555
H4A O1A 1_555 1_555
Cu2A F2A 1_555 1_555
Cu2_2 N3 1_555 1_555
Cu2A_2 N3A 1_555 1_555
F2A Cu2 1_555 1_555
F3A Cu2A 1_555 1_555
O2A Cu2A 1_555 1_555
N2A Cu2A 1_555 1_555
N3A C4A 1_555 1_555
N3_2 Cu2 1_555 1_555
N3A_2 Cu2A 1_555 1_555
C3A N2A 1_555 1_555
C4A C5A 1_555 1_555
C5A N2A 1_555 1_555
C6A N3A 1_555 1_555
H5A C3A 1_555 1_555
H6A C4A 1_555 1_555
H7A C5A 1_555 1_555
H8A C6A 1_555 1_555
H9A O2A 1_555 1_555
H10A O2A 1_555 1_555
C3 C6 1_555 1_555
N1A C2A 1_555 1_555
C3A C6A 1_555 1_555

#END
