
#######################################################################
#
#                 Cambridge Crystallographic Data Centre
#                                CCDC 
#
#######################################################################
#
# If this CIF has been generated from an entry in the Cambridge 
# Structural Database, then it will include bibliographic, chemical, 
# crystal, experimental, refinement or atomic coordinate data resulting 
# from the CCDC's data processing and validation procedures.
#
#######################################################################

data_HAZJIC
_symmetry_cell_setting           monoclinic
_symmetry_space_group_name_H-M   'P 21/n'
_symmetry_Int_Tables_number      14
_space_group_name_Hall           '-P 2yn'
loop_
_symmetry_equiv_pos_site_id
_symmetry_equiv_pos_as_xyz
1 x,y,z
2 1/2-x,1/2+y,1/2-z
3 -x,-y,-z
4 1/2+x,1/2-y,1/2+z
_cell_length_a                   8.812(8)
_cell_length_b                   19.184(17)
_cell_length_c                   14.234(13)
_cell_angle_alpha                90
_cell_angle_beta                 90.554(13)
_cell_angle_gamma                90
_cell_volume                     2406.14
loop_
_atom_site_label
_atom_site_type_symbol
_atom_site_fract_x
_atom_site_fract_y
_atom_site_fract_z
Sn1 Sn 0.31995(2) 0.101526(11) 0.752401(17)
F1 F 0.1753(4) 0.09426(18) 1.2154(2)
F2 F 0.8480(3) 0.34557(12) 0.8741(2)
F3 F 0.9976(3) 0.07162(16) 0.5522(2)
N1 N 0.3228(3) -0.03560(14) 0.7666(2)
O1 O 0.1797(3) -0.28712(11) 0.74907(17)
O2 O 0.3851(3) -0.28878(11) 0.84210(17)
C1 C 0.2899(4) -0.25825(17) 0.7948(3)
C2 C 0.2983(4) -0.17963(16) 0.7852(2)
C3 C 0.1993(4) -0.14317(18) 0.7284(3)
H1 H 0.1223 -0.1662 0.6958
C4 C 0.2161(4) -0.07199(19) 0.7206(3)
H2 H 0.1497 -0.0480 0.6811
C5 C 0.4160(4) -0.07214(18) 0.8215(3)
H3 H 0.4911 -0.0482 0.8546
C6 C 0.4082(4) -0.14307(17) 0.8324(3)
H4 H 0.4769 -0.1661 0.8715
C7 C 0.1070(4) 0.09074(17) 0.8225(3)
H5 H 0.0402 0.1285 0.8036
H6 H 0.0597 0.0472 0.8037
C8 C 0.1266(4) 0.09169(18) 0.9272(3)
C9 C 0.1072(5) 0.1520(2) 0.9779(3)
H7 H 0.0817 0.1928 0.9463
C10 C 0.1246(7) 0.1537(3) 1.0750(4)
H8 H 0.1107 0.1951 1.1080
C11 C 0.1618(6) 0.0947(3) 1.1201(4)
C12 C 0.1833(4) 0.0334(3) 1.0736(3)
H9 H 0.2089 -0.0069 1.1065
C13 C 0.1663(4) 0.0320(2) 0.9767(3)
H10 H 0.1819 -0.0095 0.9444
C14 C 0.5130(4) 0.09840(17) 0.8445(3)
H11 H 0.4787 0.0852 0.9066
H12 H 0.5805 0.0620 0.8229
C15 C 0.6021(4) 0.16428(16) 0.8533(2)
C16 C 0.5686(4) 0.2143(2) 0.9198(3)
H13 H 0.4887 0.2064 0.9606
C17 C 0.6496(5) 0.2753(2) 0.9276(3)
H14 H 0.6258 0.3082 0.9731
C18 C 0.7642(5) 0.28594(19) 0.8676(3)
C19 C 0.8015(4) 0.2390(2) 0.8001(3)
H15 H 0.8807 0.2478 0.7591
C20 C 0.7195(4) 0.17815(18) 0.7939(3)
H16 H 0.7445 0.1456 0.7481
C21 C 0.3690(4) 0.08364(18) 0.6070(3)
H17 H 0.3222 0.0403 0.5872
H18 H 0.3254 0.1210 0.5696
C22 C 0.5353(4) 0.08010(18) 0.5900(2)
C23 C 0.6183(4) 0.02081(19) 0.6098(3)
H19 H 0.5681 -0.0182 0.6327
C24 C 0.7720(5) 0.0175(2) 0.5970(3)
H20 H 0.8252 -0.0232 0.6107
C25 C 0.8446(5) 0.0738(3) 0.5644(3)
C26 C 0.7704(6) 0.1340(3) 0.5423(3)
H21 H 0.8228 0.1724 0.5195
C27 C 0.6151(5) 0.1365(2) 0.5547(3)
H22 H 0.5629 0.1770 0.5390
Sn1A Sn 0.18005(2) -0.398474(11) 0.747599(17)
O1A O 0.3203(3) 0.21288(11) 0.75093(17)
loop_
_geom_bond_atom_site_label_1
_geom_bond_atom_site_label_2
_geom_bond_site_symmetry_1
_geom_bond_site_symmetry_2
Sn1 N1 1_555 1_555
F1 C11 1_555 1_555
F2 C18 1_555 1_555
F3 C25 1_555 1_555
N1 C4 1_555 1_555
O1 C1 1_555 1_555
O2 C1 1_555 1_555
C1 C2 1_555 1_555
C2 C3 1_555 1_555
C3 H1 1_555 1_555
C4 C3 1_555 1_555
H2 C4 1_555 1_555
C5 N1 1_555 1_555
H3 C5 1_555 1_555
C6 C2 1_555 1_555
H4 C6 1_555 1_555
C7 Sn1 1_555 1_555
H5 C7 1_555 1_555
H6 C7 1_555 1_555
C8 C7 1_555 1_555
C9 C8 1_555 1_555
H7 C9 1_555 1_555
C10 C9 1_555 1_555
H8 C10 1_555 1_555
C11 C10 1_555 1_555
C12 C11 1_555 1_555
H9 C12 1_555 1_555
C13 C8 1_555 1_555
H10 C13 1_555 1_555
C14 Sn1 1_555 1_555
H11 C14 1_555 1_555
H12 C14 1_555 1_555
C15 C14 1_555 1_555
C16 C15 1_555 1_555
H13 C16 1_555 1_555
C17 C16 1_555 1_555
H14 C17 1_555 1_555
C18 C17 1_555 1_555
C19 C18 1_555 1_555
H15 C19 1_555 1_555
C20 C15 1_555 1_555
H16 C20 1_555 1_555
C21 Sn1 1_555 1_555
H17 C21 1_555 1_555
H18 C21 1_555 1_555
C22 C21 1_555 1_555
C23 C22 1_555 1_555
H19 C23 1_555 1_555
C24 C23 1_555 1_555
H20 C24 1_555 1_555
C25 C24 1_555 1_555
C26 C25 1_555 1_555
H21 C26 1_555 1_555
C27 C22 1_555 1_555
H22 C27 1_555 1_555
Sn1A O1 1_555 1_555
O1A Sn1 1_555 1_555
C5 C6 1_555 1_555
C12 C13 1_555 1_555
C19 C20 1_555 1_555
C26 C27 1_555 1_555

#END
