
#######################################################################
#
#                 Cambridge Crystallographic Data Centre
#                                CCDC 
#
#######################################################################
#
# If this CIF has been generated from an entry in the Cambridge 
# Structural Database, then it will include bibliographic, chemical, 
# crystal, experimental, refinement or atomic coordinate data resulting 
# from the CCDC's data processing and validation procedures.
#
#######################################################################

data_HAZNAZ
_symmetry_cell_setting           monoclinic
_symmetry_space_group_name_H-M   'P 21/c'
_symmetry_Int_Tables_number      14
_space_group_name_Hall           '-P 2ybc'
loop_
_symmetry_equiv_pos_site_id
_symmetry_equiv_pos_as_xyz
1 x,y,z
2 -x,1/2+y,1/2-z
3 -x,-y,-z
4 x,1/2-y,1/2+z
_cell_length_a                   7.9664(12)
_cell_length_b                   15.471(2)
_cell_length_c                   14.095(2)
_cell_angle_alpha                90
_cell_angle_beta                 104.895(2)
_cell_angle_gamma                90
_cell_volume                     1678.81
loop_
_atom_site_label
_atom_site_type_symbol
_atom_site_fract_x
_atom_site_fract_y
_atom_site_fract_z
Cd1 Cd 0.60964(3) 0.942337(16) 0.35997(2)
Br1 Br 1.22483(9) 1.34917(5) 0.44601(5)
Br2 Br -0.13818(6) 0.58932(3) 0.28820(4)
O1 O 0.5727(4) 1.09188(19) 0.3849(2)
O2 O 0.8379(4) 1.05449(18) 0.3897(3)
O3 O 0.3190(3) 0.93877(16) 0.3573(2)
O4 O 0.4156(3) 0.80905(18) 0.3371(2)
O5 O 0.6948(4) 0.91285(18) 0.5259(2)
H1 H 0.7515 0.9566 0.5537
H2 H 0.6115 0.8957 0.5487
O6 O 0.5430(4) 0.96636(18) 0.1919(2)
H3 H 0.4631 0.9363 0.1549
N1 N 0.7005(6) 1.3505(2) 0.4148(3)
N2 N -0.1751(3) 0.84805(18) 0.3398(2)
C1 C 0.7295(5) 1.1096(2) 0.3946(3)
C2 C 0.7837(5) 1.2027(2) 0.4087(3)
C3 C 0.6619(5) 1.2670(3) 0.4053(3)
H4 H 0.5463 1.2508 0.3958
C4 C 0.8664(8) 1.3721(3) 0.4280(3)
H5 H 0.8967 1.4302 0.4351
C5 C 0.9946(6) 1.3123(3) 0.4315(3)
C6 C 0.9544(5) 1.2261(2) 0.4224(3)
H6 H 1.0403 1.1847 0.4253
C7 C 0.2975(4) 0.8587(2) 0.3446(3)
C8 C 0.1193(4) 0.8228(2) 0.3371(2)
C9 C 0.0856(4) 0.7357(2) 0.3213(3)
H7 H 0.1731 0.6976 0.3160
C10 C -0.0804(4) 0.7068(2) 0.3137(3)
C11 C -0.2074(4) 0.7640(2) 0.3237(3)
H8 H -0.3189 0.7434 0.3190
C12 C -0.0148(4) 0.8767(2) 0.3457(3)
H9 H 0.0079 0.9354 0.3560
C13 C 0.5823(7) 1.0412(3) 0.1448(4)
H10 H 0.5262 1.0902 0.1650
H11 H 0.5417 1.0342 0.0750
H12 H 0.7057 1.0501 0.1624
Cd1_2 Cd -0.39036(3) 0.942337(16) 0.35997(2)
N2_2 N 0.8249(3) 0.84805(18) 0.3398(2)
loop_
_geom_bond_atom_site_label_1
_geom_bond_atom_site_label_2
_geom_bond_site_symmetry_1
_geom_bond_site_symmetry_2
Cd1 O1 1_555 1_555
Br1 C5 1_555 1_555
Br2 C10 1_555 1_555
O1 C1 1_555 1_555
O2 Cd1 1_555 1_555
O3 Cd1 1_555 1_555
O4 Cd1 1_555 1_555
O5 Cd1 1_555 1_555
H1 O5 1_555 1_555
H2 O5 1_555 1_555
O6 Cd1 1_555 1_555
H3 O6 1_555 1_555
N1 C3 1_555 1_555
N2 C11 1_555 1_555
C1 O2 1_555 1_555
C2 C1 1_555 1_555
C3 C2 1_555 1_555
H4 C3 1_555 1_555
C4 N1 1_555 1_555
H5 C4 1_555 1_555
C5 C4 1_555 1_555
C6 C2 1_555 1_555
H6 C6 1_555 1_555
C7 O3 1_555 1_555
C8 C7 1_555 1_555
C9 C8 1_555 1_555
H7 C9 1_555 1_555
C10 C9 1_555 1_555
C11 C10 1_555 1_555
H8 C11 1_555 1_555
C12 N2 1_555 1_555
H9 C12 1_555 1_555
C13 O6 1_555 1_555
H10 C13 1_555 1_555
H11 C13 1_555 1_555
H12 C13 1_555 1_555
Cd1_2 N2 1_555 1_555
N2_2 Cd1 1_555 1_555
O4 C7 1_555 1_555
C5 C6 1_555 1_555
C8 C12 1_555 1_555

#END
