
#######################################################################
#
#                 Cambridge Crystallographic Data Centre
#                                CCDC 
#
#######################################################################
#
# If this CIF has been generated from an entry in the Cambridge 
# Structural Database, then it will include bibliographic, chemical, 
# crystal, experimental, refinement or atomic coordinate data resulting 
# from the CCDC's data processing and validation procedures.
#
#######################################################################

data_HAZNUT
_symmetry_cell_setting           monoclinic
_symmetry_space_group_name_H-M   'P 21/c'
_symmetry_Int_Tables_number      14
_space_group_name_Hall           '-P 2ybc'
loop_
_symmetry_equiv_pos_site_id
_symmetry_equiv_pos_as_xyz
1 x,y,z
2 -x,1/2+y,1/2-z
3 -x,-y,-z
4 x,1/2-y,1/2+z
_cell_length_a                   7.9547(3)
_cell_length_b                   13.8229(5)
_cell_length_c                   18.4040(6)
_cell_angle_alpha                90
_cell_angle_beta                 95.3190(10)
_cell_angle_gamma                90
_cell_volume                     2014.94
loop_
_atom_site_label
_atom_site_type_symbol
_atom_site_fract_x
_atom_site_fract_y
_atom_site_fract_z
Cd1 Cd -0.83392(3) 0.121210(16) 0.428820(12)
Br1 Br -0.61877(5) 0.08473(3) 0.126270(19)
Br2 Br -0.17477(5) 0.14412(3) 0.77931(2)
O1 O -0.0424(3) 0.09659(19) 0.31509(14)
O2 O -0.1248(3) 0.12037(17) 0.42454(13)
O3 O -0.5908(3) 0.1290(2) 0.52488(14)
O4 O -0.8492(3) 0.13368(18) 0.55504(13)
O5 O -0.8343(3) -0.04836(16) 0.43682(12)
H1 H -0.7939 -0.0666 0.4790
H2 H -0.9310 -0.0701 0.4213
O6 O -0.8371(3) 0.28392(17) 0.40318(14)
H3 H -0.8418 0.3094 0.3608
H4 H -0.7989 0.3187 0.4390
N1 N -0.6288(3) 0.10926(17) 0.34762(14)
N2 N -0.6892(4) 0.1587(2) 0.77511(15)
C1 C -0.3795(4) 0.0967(2) 0.25172(17)
H5 H -0.2968 0.0922 0.2194
C2 C -0.5492(4) 0.0958(2) 0.22687(17)
C3 C -0.6697(4) 0.1017(2) 0.27552(17)
H6 H -0.7832 0.1005 0.2579
C4 C -0.4645(4) 0.1114(2) 0.37175(17)
H7 H -0.4351 0.1177 0.4216
C5 C -0.3369(4) 0.1046(2) 0.32585(17)
C6 C -0.1542(4) 0.1066(2) 0.35670(19)
C7 C -0.6930(4) 0.1337(2) 0.57076(18)
C8 C -0.6290(4) 0.1411(2) 0.65082(17)
C9 C -0.7387(4) 0.1514(2) 0.70383(18)
H8 H -0.8538 0.1533 0.6893
C10 C -0.5240(5) 0.1556(2) 0.79454(19)
H9 H -0.4866 0.1606 0.8438
C11 C -0.4065(4) 0.1453(2) 0.74500(19)
C12 C -0.4569(4) 0.1373(2) 0.67197(18)
H10 H -0.3788 0.1296 0.6378
Cd1_2 Cd 0.16608(3) 0.121210(16) 0.428820(12)
O1_2 O -1.0424(3) 0.09659(19) 0.31509(14)
O2_2 O -1.1248(3) 0.12037(17) 0.42454(13)
O7 O -0.2213(5) -0.0466(2) 0.02737(16)
N3 N -0.1766(4) 0.1110(2) 0.05615(18)
C13 C -0.2818(8) 0.1473(3) -0.0055(3)
H11 H -0.2129 0.1787 -0.0386
H12 H -0.3613 0.1928 0.0109
H13 H -0.3416 0.0945 -0.0300
C14 C -0.0911(6) 0.1818(3) 0.1040(3)
H14 H -0.0251 0.1493 0.1430
H15 H -0.1730 0.2226 0.1240
H16 H -0.0184 0.2205 0.0770
C15 C -0.1554(6) 0.0177(3) 0.0664(2)
H17 H -0.0842 -0.0015 0.1068
loop_
_geom_bond_atom_site_label_1
_geom_bond_atom_site_label_2
_geom_bond_site_symmetry_1
_geom_bond_site_symmetry_2
Cd1 O3 1_555 1_555
Br1 C2 1_555 1_555
Br2 C11 1_555 1_555
O1 C6 1_555 1_555
O2 C6 1_555 1_555
O3 C7 1_555 1_555
O4 Cd1 1_555 1_555
O5 Cd1 1_555 1_555
H1 O5 1_555 1_555
H2 O5 1_555 1_555
O6 Cd1 1_555 1_555
H3 O6 1_555 1_555
H4 O6 1_555 1_555
N1 Cd1 1_555 1_555
N2 C9 1_555 1_555
C1 H5 1_555 1_555
C2 C1 1_555 1_555
C3 N1 1_555 1_555
H6 C3 1_555 1_555
C4 N1 1_555 1_555
H7 C4 1_555 1_555
C5 C1 1_555 1_555
C6 C5 1_555 1_555
C7 O4 1_555 1_555
C8 C7 1_555 1_555
C9 C8 1_555 1_555
H8 C9 1_555 1_555
C10 N2 1_555 1_555
H9 C10 1_555 1_555
C11 C10 1_555 1_555
C12 C8 1_555 1_555
H10 C12 1_555 1_555
O7 C15 1_555 1_555
N3 C13 1_555 1_555
C13 H11 1_555 1_555
H12 C13 1_555 1_555
H13 C13 1_555 1_555
C14 N3 1_555 1_555
H14 C14 1_555 1_555
H15 C14 1_555 1_555
H16 C14 1_555 1_555
C15 N3 1_555 1_555
H17 C15 1_555 1_555
Cd1_2 O1 1_555 1_555
O1_2 Cd1 1_555 1_555
O2_2 Cd1 1_555 1_555
O2 Cd1_2 1_555 1_555
C2 C3 1_555 1_555
C4 C5 1_555 1_555
C11 C12 1_555 1_555

#END
