
#######################################################################
#
#                 Cambridge Crystallographic Data Centre
#                                CCDC 
#
#######################################################################
#
# If this CIF has been generated from an entry in the Cambridge 
# Structural Database, then it will include bibliographic, chemical, 
# crystal, experimental, refinement or atomic coordinate data resulting 
# from the CCDC's data processing and validation procedures.
#
#######################################################################

data_HAZPIJ
_symmetry_cell_setting           monoclinic
_symmetry_space_group_name_H-M   'P 21/c'
_symmetry_Int_Tables_number      14
_space_group_name_Hall           '-P 2ybc'
loop_
_symmetry_equiv_pos_site_id
_symmetry_equiv_pos_as_xyz
1 x,y,z
2 -x,1/2+y,1/2-z
3 -x,-y,-z
4 x,1/2-y,1/2+z
_cell_length_a                   11.3003(17)
_cell_length_b                   9.9465(14)
_cell_length_c                   14.4132(16)
_cell_angle_alpha                90
_cell_angle_beta                 119.137(8)
_cell_angle_gamma                90
_cell_volume                     1415.02
loop_
_atom_site_label
_atom_site_type_symbol
_atom_site_fract_x
_atom_site_fract_y
_atom_site_fract_z
Cd1 Cd 0.688508(18) 0.880052(19) 0.603322(14)
Br1 Br 0.83058(3) 1.15232(4) 0.29909(2)
Br2 Br 0.22685(3) 0.49039(3) 0.45106(2)
O1 O 1.1293(2) 1.2392(2) 0.80804(16)
O2 O 1.1579(2) 1.3733(2) 0.69895(17)
O3 O 0.59790(19) 0.6890(2) 0.93380(14)
O4 O 0.4105(2) 0.5680(2) 0.87714(17)
N1 N 0.8175(2) 1.0327(2) 0.56504(18)
N2 N 0.5406(2) 0.7445(2) 0.63265(18)
C1 C 0.9910(3) 1.2012(3) 0.6243(2)
C2 C 0.9136(3) 1.1068(3) 0.6422(2)
H1 H 0.9296 1.0947 0.7113
C3 C 0.7973(3) 1.0492(3) 0.4663(2)
H2 H 0.7320 0.9970 0.4120
C4 C 0.8698(3) 1.1409(3) 0.4422(2)
C5 C 0.9678(3) 1.2191(3) 0.5212(2)
H3 H 1.0169 1.2818 0.5059
C6 C 1.1003(3) 1.2776(3) 0.7167(2)
C7 C 0.4695(3) 0.6478(3) 0.7499(2)
C8 C 0.5548(3) 0.7288(3) 0.7301(2)
H4 H 0.6247 0.7742 0.7866
C9 C 0.4423(3) 0.6745(3) 0.5524(2)
H5 H 0.4326 0.6826 0.4847
C10 C 0.3553(3) 0.5910(3) 0.5672(2)
C11 C 0.3668(3) 0.5789(3) 0.6667(2)
H6 H 0.3069 0.5255 0.6773
C12 C 0.4938(3) 0.6333(3) 0.8623(2)
Cd1A Cd 1.311492(18) 1.380052(19) 0.896678(14)
Cd1C Cd 0.688508(18) 0.619948(19) 1.103322(14)
Cd1A_2 Cd 0.311492(18) 0.380052(19) 0.896678(14)
O1A O 0.8707(2) 0.7392(2) 0.69196(16)
O2A O 0.8421(2) 0.8733(2) 0.80105(17)
O3C O 0.59790(19) 0.8110(2) 0.43380(14)
O4A O 0.5895(2) 1.0680(2) 0.62286(17)
loop_
_geom_bond_atom_site_label_1
_geom_bond_atom_site_label_2
_geom_bond_site_symmetry_1
_geom_bond_site_symmetry_2
Cd1 N1 1_555 1_555
Br1 C4 1_555 1_555
Br2 C10 1_555 1_555
O1 C6 1_555 1_555
O2 C6 1_555 1_555
O3 C12 1_555 1_555
O4 C12 1_555 1_555
N1 C2 1_555 1_555
N2 Cd1 1_555 1_555
C1 C2 1_555 1_555
C2 H1 1_555 1_555
C3 N1 1_555 1_555
H2 C3 1_555 1_555
C4 C3 1_555 1_555
C5 C1 1_555 1_555
H3 C5 1_555 1_555
C6 C1 1_555 1_555
C7 C8 1_555 1_555
C8 N2 1_555 1_555
H4 C8 1_555 1_555
C9 N2 1_555 1_555
H5 C9 1_555 1_555
C10 C9 1_555 1_555
C11 C7 1_555 1_555
H6 C11 1_555 1_555
C12 C7 1_555 1_555
Cd1A O1 1_555 1_555
Cd1C O3 1_555 1_555
Cd1A_2 O4 1_555 1_555
O1A Cd1 1_555 1_555
O2A Cd1 1_555 1_555
O3C Cd1 1_555 1_555
O4A Cd1 1_555 1_555
O2 Cd1A 1_555 1_555
C4 C5 1_555 1_555
C10 C11 1_555 1_555

#END
