
#######################################################################
#
#                 Cambridge Crystallographic Data Centre
#                                CCDC 
#
#######################################################################
#
# If this CIF has been generated from an entry in the Cambridge 
# Structural Database, then it will include bibliographic, chemical, 
# crystal, experimental, refinement or atomic coordinate data resulting 
# from the CCDC's data processing and validation procedures.
#
#######################################################################

data_HAZPEF
_symmetry_cell_setting           monoclinic
_symmetry_space_group_name_H-M   'C 2'
_symmetry_Int_Tables_number      5
_space_group_name_Hall           'C 2y'
loop_
_symmetry_equiv_pos_site_id
_symmetry_equiv_pos_as_xyz
1 x,y,z
2 -x,y,-z
3 1/2+x,1/2+y,z
4 1/2-x,1/2+y,-z
_cell_length_a                   11.8145(8)
_cell_length_b                   10.3523(7)
_cell_length_c                   8.9493(6)
_cell_angle_alpha                90
_cell_angle_beta                 118.2740(10)
_cell_angle_gamma                90
_cell_volume                     963.974
loop_
_atom_site_label
_atom_site_type_symbol
_atom_site_fract_x
_atom_site_fract_y
_atom_site_fract_z
Cd1 Cd 1.0000 0.4724 0.0000
Br1 Br 0.74347(10) 0.27913(11) 0.64093(10)
O1 O 0.9370(5) 0.4557(7) 0.2296(6)
O2 O 0.8650(4) 0.3240(5) 0.0128(5)
N1 N 0.6420(4) 0.1242(5) 0.1747(5)
C1 C 0.8715(5) 0.3614(6) 0.1493(7)
C2 C 0.7966(5) 0.2895(6) 0.2179(7)
C3 C 0.7140(5) 0.1909(6) 0.1225(6)
H1 H 0.7085 0.1704 0.0181
C4 C 0.6512(5) 0.1529(7) 0.3271(7)
H2 H 0.6010 0.1084 0.3646
C5 C 0.7343(6) 0.2478(8) 0.4280(7)
C6 C 0.8074(6) 0.3178(7) 0.3755(8)
H3 H 0.8626 0.3823 0.4435
Cd1B Cd 0.5000 -0.0276 0.0000
Cd1B_2 Cd 1.5000 -0.0276 0.0000
Br1A Br 1.25653(10) 0.27913(11) -0.64093(10)
O1A O 1.0630(5) 0.4557(7) -0.2296(6)
O2A O 1.1350(4) 0.3240(5) -0.0128(5)
N1A N 1.3580(4) 0.1242(5) -0.1747(5)
N1B N 1.1420(4) 0.6242(5) 0.1747(5)
N1C N 0.8580(4) 0.6242(5) -0.1747(5)
C1A C 1.1285(5) 0.3614(6) -0.1493(7)
C2A C 1.2034(5) 0.2895(6) -0.2179(7)
C3A C 1.2860(5) 0.1909(6) -0.1225(6)
H1A H 1.2915 0.1704 -0.0181
C4A C 1.3488(5) 0.1529(7) -0.3271(7)
H2A H 1.3990 0.1084 -0.3646
C5A C 1.2657(6) 0.2478(8) -0.4280(7)
C6A C 1.1926(6) 0.3178(7) -0.3755(8)
H3A H 1.1374 0.3823 -0.4435
Cl1 Cl 0.9724(3) -0.0333(6) 0.1392(5)
C7 C 1.0000 0.052(2) 0.0000
H4 H 0.9264 0.1077 -0.0636
Cl1A Cl 1.0276(3) -0.0333(6) -0.1392(5)
H4A H 1.0736 0.1077 0.0636
loop_
_geom_bond_atom_site_label_1
_geom_bond_atom_site_label_2
_geom_bond_site_symmetry_1
_geom_bond_site_symmetry_2
Cd1 O1 1_555 1_555
Br1 C5 1_555 1_555
Cl1 C7 1_555 1_555
O1 C1 1_555 1_555
O2 Cd1 1_555 1_555
N1 C3 1_555 1_555
C1 O2 1_555 1_555
C2 C1 1_555 1_555
C3 C2 1_555 1_555
H1 C3 1_555 1_555
C4 N1 1_555 1_555
H2 C4 1_555 1_555
C5 C4 1_555 1_555
C6 C2 1_555 1_555
H3 C6 1_555 1_555
C7 H4 1_555 1_555
Cd1B N1 1_555 1_555
Cd1B_2 N1A 1_555 1_555
Br1A C5A 1_555 1_555
Cl1A C7 1_555 1_555
O1A Cd1 1_555 1_555
O2A Cd1 1_555 1_555
N1A C3A 1_555 1_555
N1B Cd1 1_555 1_555
N1C Cd1 1_555 1_555
C1A O1A 1_555 1_555
C2A C1A 1_555 1_555
C3A C2A 1_555 1_555
H1A C3A 1_555 1_555
C4A N1A 1_555 1_555
H2A C4A 1_555 1_555
C5A C4A 1_555 1_555
C6A C2A 1_555 1_555
H3A C6A 1_555 1_555
H4A C7 1_555 1_555
C5 C6 1_555 1_555
O2A C1A 1_555 1_555
C5A C6A 1_555 1_555

#END
