
#######################################################################
#
#                 Cambridge Crystallographic Data Centre
#                                CCDC 
#
#######################################################################
#
# If this CIF has been generated from an entry in the Cambridge 
# Structural Database, then it will include bibliographic, chemical, 
# crystal, experimental, refinement or atomic coordinate data resulting 
# from the CCDC's data processing and validation procedures.
#
#######################################################################

data_HAZPIJ01
_symmetry_cell_setting           monoclinic
_symmetry_space_group_name_H-M   'P 21/n'
_symmetry_Int_Tables_number      14
_space_group_name_Hall           '-P 2yn'
loop_
_symmetry_equiv_pos_site_id
_symmetry_equiv_pos_as_xyz
1 x,y,z
2 1/2-x,1/2+y,1/2-z
3 -x,-y,-z
4 1/2+x,1/2-y,1/2+z
_cell_length_a                   11.2814(12)
_cell_length_b                   9.9474(11)
_cell_length_c                   13.2863(15)
_cell_angle_alpha                90
_cell_angle_beta                 108.7840(10)
_cell_angle_gamma                90
_cell_volume                     1411.58
loop_
_atom_site_label
_atom_site_type_symbol
_atom_site_fract_x
_atom_site_fract_y
_atom_site_fract_z
Cd1 Cd 0.58518(3) 0.38010(3) 0.39674(3)
Br1 Br 1.03152(5) 0.65227(7) 0.70089(5)
Br2 Br 0.27586(5) -0.00962(5) 0.54900(4)
C1 C 0.7710(4) 0.6070(5) 0.3577(4)
H1 H 0.7170 0.5956 0.2887
C2 C 0.3251(4) 0.2297(5) 0.2707(4)
H2 H 0.3384 0.2764 0.2146
C3 C 0.8668(4) 0.7014(5) 0.3753(4)
C4 C 0.2193(4) 0.1478(4) 0.2493(4)
C5 C 0.9460(4) 0.7204(5) 0.4779(4)
H3 H 1.0094 0.7844 0.4931
C6 C 0.2006(5) 0.0791(4) 0.3337(4)
H4 H 0.1300 0.0257 0.3234
C7 C 0.9276(5) 0.6409(5) 0.5573(4)
C8 C 0.2879(5) 0.0914(5) 0.4327(4)
C9 C 0.8305(5) 0.5495(5) 0.5336(4)
H5 H 0.8187 0.4982 0.5882
C10 C 0.3902(5) 0.1746(5) 0.4466(4)
H6 H 0.4490 0.1822 0.5140
C11 C 0.8834(5) 0.7778(5) 0.2829(5)
C12 C 0.1315(5) 0.1332(4) 0.1378(4)
N1 N 0.7526(4) 0.5326(4) 0.4341(3)
N2 N 0.4074(4) 0.2440(4) 0.3669(3)
O1 O 0.8210(3) 0.7394(3) 0.1915(3)
O2 O 0.1645(3) 0.1892(4) 0.0665(3)
O3 O 0.9584(3) 0.8742(3) 0.3012(3)
O4 O 0.0340(3) 0.0680(4) 0.1229(3)
Cd1A Cd 0.91482(3) 0.88010(3) 0.10326(3)
Cd1C Cd 0.08518(3) 0.11990(3) -0.10326(3)
Cd1A_2 Cd -0.08518(3) -0.11990(3) 0.10326(3)
O1A O 0.6790(3) 0.2394(3) 0.3085(3)
O2C O 0.6645(3) 0.3108(4) 0.5665(3)
O3A O 0.5416(3) 0.3742(3) 0.1988(3)
O4A O 0.4660(3) 0.5680(4) 0.3771(3)
loop_
_geom_bond_atom_site_label_1
_geom_bond_atom_site_label_2
_geom_bond_site_symmetry_1
_geom_bond_site_symmetry_2
Cd1 N1 1_555 1_555
Br1 C7 1_555 1_555
Br2 C8 1_555 1_555
C1 H1 1_555 1_555
C2 H2 1_555 1_555
C3 C1 1_555 1_555
C4 C2 1_555 1_555
C5 C3 1_555 1_555
H3 C5 1_555 1_555
C6 C4 1_555 1_555
H4 C6 1_555 1_555
C7 C5 1_555 1_555
C8 C6 1_555 1_555
C9 C7 1_555 1_555
H5 C9 1_555 1_555
C10 C8 1_555 1_555
H6 C10 1_555 1_555
C11 C3 1_555 1_555
C12 C4 1_555 1_555
N1 C1 1_555 1_555
N2 Cd1 1_555 1_555
O1 C11 1_555 1_555
O2 C12 1_555 1_555
O3 C11 1_555 1_555
O4 C12 1_555 1_555
Cd1A O1 1_555 1_555
Cd1C O2 1_555 1_555
Cd1A_2 O4 1_555 1_555
O1A Cd1 1_555 1_555
O2C Cd1 1_555 1_555
O3A Cd1 1_555 1_555
O4A Cd1 1_555 1_555
C2 N2 1_555 1_555
C9 N1 1_555 1_555
C10 N2 1_555 1_555
O3 Cd1A 1_555 1_555

#END
