
#######################################################################
#
#                 Cambridge Crystallographic Data Centre
#                                CCDC 
#
#######################################################################
#
# If this CIF has been generated from an entry in the Cambridge 
# Structural Database, then it will include bibliographic, chemical, 
# crystal, experimental, refinement or atomic coordinate data resulting 
# from the CCDC's data processing and validation procedures.
#
#######################################################################

data_HAZPIJ02
_symmetry_cell_setting           monoclinic
_symmetry_space_group_name_H-M   'P 21/n'
_symmetry_Int_Tables_number      14
_space_group_name_Hall           '-P 2yn'
loop_
_symmetry_equiv_pos_site_id
_symmetry_equiv_pos_as_xyz
1 x,y,z
2 1/2-x,1/2+y,1/2-z
3 -x,-y,-z
4 1/2+x,1/2-y,1/2+z
_cell_length_a                   11.2843(3)
_cell_length_b                   9.9440(3)
_cell_length_c                   13.2772(4)
_cell_angle_alpha                90
_cell_angle_beta                 108.814(3)
_cell_angle_gamma                90
_cell_volume                     1410.25
loop_
_atom_site_label
_atom_site_type_symbol
_atom_site_fract_x
_atom_site_fract_y
_atom_site_fract_z
Cd1 Cd 0.41484(3) 0.38009(3) 0.60325(2)
O1 O 0.4591(3) 0.3730(3) 0.8013(3)
O2 O 0.3214(3) 0.2388(3) 0.6920(3)
O3 O 0.3358(3) 0.3106(3) 0.4339(2)
O4 O 0.4669(3) 0.4324(3) 0.3775(3)
N1 N 0.2526(3) 0.0332(3) 0.9349(3)
N2 N 0.0919(3) 0.2560(3) 0.1324(3)
C1 C 0.3835(4) 0.2772(4) 0.7833(4)
C2 C 0.3672(4) 0.2006(4) 0.8763(4)
C3 C 0.2719(4) 0.1072(4) 0.8578(3)
H1 H 0.2187 0.0955 0.7884
C4 C 0.3311(4) 0.0493(4) 1.0338(4)
H2 H 0.3202 -0.0035 1.0879
C5 C 0.4278(4) 0.1412(4) 1.0587(4)
C6 C 0.4467(4) 0.2191(4) 0.9791(4)
H3 H 0.5110 0.2820 0.9942
C7 C 0.3687(4) 0.3667(4) 0.3617(3)
C8 C 0.2801(4) 0.3518(4) 0.2499(3)
C9 C 0.1758(4) 0.2708(4) 0.2299(3)
H4 H 0.1631 0.2245 0.2864
C10 C 0.1100(4) 0.3264(5) 0.0519(4)
H5 H 0.0519 0.3192 -0.0159
C11 C 0.2119(4) 0.4084(4) 0.0675(3)
C12 C 0.3002(4) 0.4199(4) 0.1667(3)
H6 H 0.3715 0.4723 0.1772
Br1 Br 0.53150(5) 0.15221(6) 1.20092(4)
Br2 Br 0.22443(5) 0.50968(5) -0.04900(4)
Cd1A Cd 0.08516(3) -0.11991(3) 0.89675(2)
Cd1B Cd 0.58516(3) 0.61991(3) 0.39675(2)
Cd1C Cd -0.08516(3) 0.11991(3) 0.10325(2)
O4B O 0.5331(3) 0.5676(3) 0.6225(3)
N1A N 0.2474(3) 0.5332(3) 0.5651(3)
N2C N 0.5919(3) 0.2440(3) 0.6324(3)
loop_
_geom_bond_atom_site_label_1
_geom_bond_atom_site_label_2
_geom_bond_site_symmetry_1
_geom_bond_site_symmetry_2
Cd1 O1 1_555 1_555
O1 C1 1_555 1_555
O2 Cd1 1_555 1_555
O3 Cd1 1_555 1_555
O4 C7 1_555 1_555
N1 C3 1_555 1_555
N2 C9 1_555 1_555
C1 O2 1_555 1_555
C2 C1 1_555 1_555
C3 C2 1_555 1_555
H1 C3 1_555 1_555
C4 N1 1_555 1_555
H2 C4 1_555 1_555
C5 C4 1_555 1_555
C6 C2 1_555 1_555
H3 C6 1_555 1_555
C7 O3 1_555 1_555
C8 C7 1_555 1_555
C9 C8 1_555 1_555
H4 C9 1_555 1_555
C10 N2 1_555 1_555
H5 C10 1_555 1_555
C11 C10 1_555 1_555
C12 C8 1_555 1_555
H6 C12 1_555 1_555
Br1 C5 1_555 1_555
Br2 C11 1_555 1_555
Cd1A N1 1_555 1_555
Cd1B O4 1_555 1_555
Cd1C N2 1_555 1_555
O4B Cd1 1_555 1_555
N1A Cd1 1_555 1_555
N2C Cd1 1_555 1_555
C5 C6 1_555 1_555
C11 C12 1_555 1_555

#END
