
#######################################################################
#
#                 Cambridge Crystallographic Data Centre
#                                CCDC 
#
#######################################################################
#
# If this CIF has been generated from an entry in the Cambridge 
# Structural Database, then it will include bibliographic, chemical, 
# crystal, experimental, refinement or atomic coordinate data resulting 
# from the CCDC's data processing and validation procedures.
#
#######################################################################

data_HAZPOP
_symmetry_cell_setting           monoclinic
_symmetry_space_group_name_H-M   'P 21/c'
_symmetry_Int_Tables_number      14
_space_group_name_Hall           '-P 2ybc'
loop_
_symmetry_equiv_pos_site_id
_symmetry_equiv_pos_as_xyz
1 x,y,z
2 -x,1/2+y,1/2-z
3 -x,-y,-z
4 x,1/2-y,1/2+z
_cell_length_a                   11.690(2)
_cell_length_b                   24.154(4)
_cell_length_c                   11.3138(19)
_cell_angle_alpha                90
_cell_angle_beta                 95.491(3)
_cell_angle_gamma                90
_cell_volume                     3179.91
loop_
_atom_site_label
_atom_site_type_symbol
_atom_site_fract_x
_atom_site_fract_y
_atom_site_fract_z
Cd1 Cd 0.14047(4) -0.345670(18) 0.36176(4)
Cd2 Cd 0.36552(4) -0.382690(18) 0.60461(4)
Br1 Br -0.37068(8) -0.30656(4) 0.34971(11)
Br2 Br 0.15661(11) -0.00071(3) 0.45242(8)
Br3 Br 0.12147(7) -0.65977(3) 0.30978(9)
Br4 Br 0.46331(11) -0.06832(4) 0.62982(8)
O1 O -0.1137(4) -0.54338(18) 0.3583(5)
O2 O -0.3045(4) -0.53075(18) 0.3422(4)
O3 O 0.0740(4) -0.26440(17) 0.4119(4)
O4 O 0.1116(4) -0.21149(18) 0.2597(4)
O5 O 0.3787(4) -0.42800(18) 0.4297(4)
O6 O 0.1907(4) -0.43643(17) 0.3737(4)
O7 O 0.4049(4) -0.29369(17) 0.5729(4)
O8 O 0.3162(4) -0.30242(18) 0.3901(4)
O9 O 0.1691(4) -0.35867(17) 0.5766(4)
H1 H 0.1500 -0.3908 0.5983
H2 H 0.1547 -0.3318 0.6215
N1 N -0.0510(5) -0.3764(2) 0.3590(5)
N2 N 0.1316(5) -0.1399(2) 0.6533(5)
N3 N 0.4421(5) -0.5905(2) 0.3616(5)
N4 N 0.3842(5) -0.1419(2) 0.3068(5)
C1 C -0.2019(6) -0.5141(3) 0.3501(6)
C2 C -0.1856(6) -0.4520(2) 0.3514(6)
C3 C -0.2750(6) -0.4154(3) 0.3489(6)
H3 H -0.3505 -0.4280 0.3456
C4 C -0.2510(6) -0.3597(3) 0.3515(7)
C5 C -0.1386(6) -0.3410(3) 0.3564(6)
H4 H -0.1240 -0.3031 0.3579
C6 C -0.0745(6) -0.4309(3) 0.3568(6)
H5 H -0.0135 -0.4557 0.3589
C7 C 0.0983(5) -0.2190(3) 0.3649(6)
C8 C 0.1097(6) -0.1703(2) 0.4493(6)
C9 C 0.1168(6) -0.1803(3) 0.5723(6)
H6 H 0.1109 -0.2166 0.5986
C10 C 0.1405(7) -0.0875(3) 0.6141(6)
H7 H 0.1502 -0.0588 0.6688
C11 C 0.1356(7) -0.0757(3) 0.4942(6)
C12 C 0.1218(6) -0.1165(2) 0.4109(6)
H8 H 0.1205 -0.1084 0.3304
C13 C 0.2916(6) -0.4552(2) 0.3916(5)
C14 C 0.3082(6) -0.5157(3) 0.3661(5)
C15 C 0.4196(5) -0.5367(2) 0.3739(6)
H9 H 0.4809 -0.5122 0.3883
C16 C 0.3544(6) -0.6254(3) 0.3416(6)
H10 H 0.3692 -0.6629 0.3331
C17 C 0.2420(6) -0.6073(3) 0.3333(6)
C18 C 0.2180(6) -0.5522(3) 0.3453(6)
H11 H 0.1425 -0.5397 0.3396
C19 C 0.3677(6) -0.2755(3) 0.4720(6)
C20 C 0.3887(5) -0.2151(2) 0.4503(6)
C21 C 0.3728(6) -0.1955(3) 0.3341(6)
H12 H 0.3535 -0.2206 0.2731
C22 C 0.4117(6) -0.1056(3) 0.3944(6)
H13 H 0.4189 -0.0683 0.3764
C23 C 0.4296(7) -0.1228(3) 0.5115(6)
C24 C 0.4182(6) -0.1773(3) 0.5415(6)
H14 H 0.4299 -0.1888 0.6202
Cd1C Cd 0.14047(4) -0.154330(18) 0.86176(4)
Cd2B Cd -0.36552(4) -0.617310(18) 0.39539(4)
Cd2B_2 Cd 0.63448(4) -0.617310(18) 0.39539(4)
Cd2C Cd 0.36552(4) -0.117310(18) 0.10461(4)
O2B O 0.3045(4) -0.46925(18) 0.6578(4)
N2C N 0.1316(5) -0.3601(2) 0.1533(5)
N3B N 0.5579(5) -0.4095(2) 0.6384(5)
N4C N 0.3842(5) -0.3581(2) 0.8068(5)
O10 O 0.773(3) -0.3187(11) 0.027(3)
O11? O 0.789(4) -0.3602(10) 0.027(3)
loop_
_geom_bond_atom_site_label_1
_geom_bond_atom_site_label_2
_geom_bond_site_symmetry_1
_geom_bond_site_symmetry_2
Cd1 O3 1_555 1_555
Cd2 O5 1_555 1_555
Br1 C4 1_555 1_555
Br2 C11 1_555 1_555
Br3 C17 1_555 1_555
Br4 C23 1_555 1_555
O1 C1 1_555 1_555
O2 C1 1_555 1_555
O3 C7 1_555 1_555
O4 C7 1_555 1_555
O5 C13 1_555 1_555
O6 Cd1 1_555 1_555
O7 Cd2 1_555 1_555
O8 Cd1 1_555 1_555
O9 Cd1 1_555 1_555
H1 O9 1_555 1_555
H2 O9 1_555 1_555
N1 Cd1 1_555 1_555
N2 C9 1_555 1_555
N3 C15 1_555 1_555
N4 C21 1_555 1_555
C1 C2 1_555 1_555
C2 C3 1_555 1_555
C3 H3 1_555 1_555
C4 C3 1_555 1_555
C5 N1 1_555 1_555
H4 C5 1_555 1_555
C6 N1 1_555 1_555
H5 C6 1_555 1_555
C7 C8 1_555 1_555
C8 C9 1_555 1_555
C9 H6 1_555 1_555
C10 N2 1_555 1_555
H7 C10 1_555 1_555
C11 C10 1_555 1_555
C12 C8 1_555 1_555
H8 C12 1_555 1_555
C13 O6 1_555 1_555
C14 C13 1_555 1_555
C15 C14 1_555 1_555
H9 C15 1_555 1_555
C16 N3 1_555 1_555
H10 C16 1_555 1_555
C17 C16 1_555 1_555
C18 C14 1_555 1_555
H11 C18 1_555 1_555
C19 O7 1_555 1_555
C20 C19 1_555 1_555
C21 C20 1_555 1_555
H12 C21 1_555 1_555
C22 N4 1_555 1_555
H13 C22 1_555 1_555
C23 C22 1_555 1_555
C24 C20 1_555 1_555
H14 C24 1_555 1_555
Cd1C N2 1_555 1_555
Cd2B O2 1_555 1_555
Cd2B_2 N3 1_555 1_555
Cd2C N4 1_555 1_555
O2B Cd2 1_555 1_555
N2C Cd1 1_555 1_555
N3B Cd2 1_555 1_555
N4C Cd2 1_555 1_555
Cd2 O9 1_555 1_555
O8 C19 1_555 1_555
C2 C6 1_555 1_555
C4 C5 1_555 1_555
C11 C12 1_555 1_555
C17 C18 1_555 1_555
C23 C24 1_555 1_555

#END
