
#######################################################################
#
#                 Cambridge Crystallographic Data Centre
#                                CCDC 
#
#######################################################################
#
# If this CIF has been generated from an entry in the Cambridge 
# Structural Database, then it will include bibliographic, chemical, 
# crystal, experimental, refinement or atomic coordinate data resulting 
# from the CCDC's data processing and validation procedures.
#
#######################################################################

data_HAZPAB
_symmetry_cell_setting           monoclinic
_symmetry_space_group_name_H-M   'P 21/c'
_symmetry_Int_Tables_number      14
_space_group_name_Hall           '-P 2ybc'
loop_
_symmetry_equiv_pos_site_id
_symmetry_equiv_pos_as_xyz
1 x,y,z
2 -x,1/2+y,1/2-z
3 -x,-y,-z
4 x,1/2-y,1/2+z
_cell_length_a                   11.6156(8)
_cell_length_b                   24.4811(18)
_cell_length_c                   11.3044(8)
_cell_angle_alpha                90
_cell_angle_beta                 94.2480(10)
_cell_angle_gamma                90
_cell_volume                     3205.72
loop_
_atom_site_label
_atom_site_type_symbol
_atom_site_fract_x
_atom_site_fract_y
_atom_site_fract_z
Cd1 Cd 0.36588(4) 0.38176(2) 0.60491(4)
Cd2 Cd 0.13942(4) 0.34532(2) 0.36620(4)
Br1 Br 0.12015(7) 0.65308(4) 0.29739(9)
Br2 Br 0.45960(11) 0.07096(4) 0.62834(8)
Br3 Br 0.37659(8) 0.68548(4) 0.65389(11)
Br4 Br 0.15901(10) 0.00543(3) 0.45625(8)
O1 O 0.1955(4) 0.43443(18) 0.3758(4)
O2 O 0.3843(4) 0.42722(19) 0.4312(4)
O3 O 0.4056(4) 0.2935(2) 0.5711(4)
O4 O 0.3154(4) 0.3021(2) 0.3910(5)
O5 O 0.1079(4) 0.45451(19) 0.6405(5)
O6 O 0.2997(4) 0.46623(19) 0.6588(4)
O7 O 0.1053(4) 0.2123(2) 0.2622(4)
O8 O 0.0676(5) 0.26505(19) 0.4147(5)
O9 O 0.1670(4) 0.35784(18) 0.5801(4)
H1 H 0.1495 0.3316 0.6246
H2 H 0.1451 0.3895 0.5995
N1 N 0.4434(5) 0.5878(2) 0.3585(5)
N2 N 0.3840(5) 0.1435(2) 0.3065(5)
N3 N 0.0507(5) 0.6204(2) 0.6330(5)
N4 N 0.1296(5) 0.1428(2) 0.6573(5)
C1 C 0.4215(6) 0.5352(3) 0.3731(6)
H3 H 0.4834 0.5118 0.3908
C2 C 0.3544(6) 0.6215(3) 0.3354(7)
H4 H 0.3683 0.6585 0.3255
C3 C 0.2424(6) 0.6026(3) 0.3257(6)
C4 C 0.2200(6) 0.5475(3) 0.3408(6)
H5 H 0.1447 0.5343 0.3355
C5 C 0.3118(6) 0.5133(3) 0.3636(5)
C6 C 0.2961(6) 0.4534(3) 0.3908(6)
C7 C 0.3727(6) 0.1965(3) 0.3343(6)
H6 H 0.3538 0.2213 0.2736
C8 C 0.4107(7) 0.1078(3) 0.3935(6)
H7 H 0.4190 0.0711 0.3749
C9 C 0.4263(7) 0.1243(3) 0.5111(6)
C10 C 0.4155(7) 0.1787(3) 0.5400(6)
H8 H 0.4265 0.1903 0.6184
C11 C 0.3879(6) 0.2159(3) 0.4497(6)
C12 C 0.3680(6) 0.2759(3) 0.4722(7)
C13 C 0.2750(6) 0.5796(3) 0.6522(6)
H9 H 0.3503 0.5664 0.6581
C14 C 0.2525(6) 0.6347(3) 0.6477(7)
C15 C 0.1406(6) 0.6539(3) 0.6382(7)
H10 H 0.1278 0.6914 0.6355
C16 C 0.0718(6) 0.5664(3) 0.6377(6)
H11 H 0.0091 0.5427 0.6340
C17 C 0.1814(6) 0.5443(3) 0.6477(6)
C18 C 0.1965(6) 0.4827(3) 0.6500(6)
C19 C 0.1135(6) 0.1828(3) 0.5762(6)
H12 H 0.1058 0.2186 0.6023
C20 C 0.1387(7) 0.0912(3) 0.6180(6)
H13 H 0.1468 0.0629 0.6730
C21 C 0.1363(7) 0.0789(3) 0.4986(6)
C22 C 0.1211(6) 0.1194(3) 0.4153(6)
H14 H 0.1195 0.1114 0.3347
C23 C 0.1082(6) 0.1727(3) 0.4544(6)
C24 C 0.0925(6) 0.2205(3) 0.3678(6)
Cd1B Cd 0.63412(4) 0.61824(2) 0.39509(4)
Cd1C Cd 0.36588(4) 0.11824(2) 0.10491(4)
Cd2B Cd -0.13942(4) 0.65468(2) 0.63380(4)
Cd2C Cd 0.13942(4) 0.15468(2) 0.86620(4)
N1B N 0.5566(5) 0.4122(2) 0.6415(5)
N2C N 0.3840(5) 0.3565(2) 0.8065(5)
N3B N -0.0507(5) 0.3796(2) 0.3670(5)
N4C N 0.1296(5) 0.3572(2) 0.1573(5)
C25 C 0.788(2) 0.3243(9) 0.0436(16)
N5 N 0.796(3) 0.2773(8) 0.054(3)
C26 C 0.763(3) 0.3803(9) 0.019(3)
H15 H 0.7109 0.3830 -0.0504
H16 H 0.8332 0.3995 0.0066
H17 H 0.7280 0.3962 0.0855
loop_
_geom_bond_atom_site_label_1
_geom_bond_atom_site_label_2
_geom_bond_site_symmetry_1
_geom_bond_site_symmetry_2
Cd1 O2 1_555 1_555
Cd2 O1 1_555 1_555
Br1 C3 1_555 1_555
Br2 C9 1_555 1_555
Br3 C14 1_555 1_555
Br4 C21 1_555 1_555
O1 C6 1_555 1_555
O2 C6 1_555 1_555
O3 Cd1 1_555 1_555
O4 Cd2 1_555 1_555
O5 C18 1_555 1_555
O6 Cd1 1_555 1_555
O7 C24 1_555 1_555
O8 Cd2 1_555 1_555
O9 Cd1 1_555 1_555
H1 O9 1_555 1_555
H2 O9 1_555 1_555
N1 C1 1_555 1_555
N2 C7 1_555 1_555
N3 C15 1_555 1_555
N4 C19 1_555 1_555
C1 H3 1_555 1_555
C2 N1 1_555 1_555
H4 C2 1_555 1_555
C3 C2 1_555 1_555
C4 C3 1_555 1_555
H5 C4 1_555 1_555
C5 C1 1_555 1_555
C6 C5 1_555 1_555
C7 H6 1_555 1_555
C8 N2 1_555 1_555
H7 C8 1_555 1_555
C9 C8 1_555 1_555
C10 C9 1_555 1_555
H8 C10 1_555 1_555
C11 C7 1_555 1_555
C12 O3 1_555 1_555
C13 H9 1_555 1_555
C14 C13 1_555 1_555
C15 C14 1_555 1_555
H10 C15 1_555 1_555
C16 N3 1_555 1_555
H11 C16 1_555 1_555
C17 C13 1_555 1_555
C18 O6 1_555 1_555
C19 H12 1_555 1_555
C20 N4 1_555 1_555
H13 C20 1_555 1_555
C21 C20 1_555 1_555
C22 C21 1_555 1_555
H14 C22 1_555 1_555
C23 C19 1_555 1_555
C24 O8 1_555 1_555
C25 N5 1_555 1_555
C26 C25 1_555 1_555
H15 C26 1_555 1_555
H16 C26 1_555 1_555
H17 C26 1_555 1_555
Cd1B N1 1_555 1_555
Cd1C N2 1_555 1_555
Cd2B N3 1_555 1_555
Cd2C N4 1_555 1_555
N1B Cd1 1_555 1_555
N2C Cd1 1_555 1_555
N3B Cd2 1_555 1_555
N4C Cd2 1_555 1_555
Cd2 O9 1_555 1_555
O4 C12 1_555 1_555
C4 C5 1_555 1_555
C10 C11 1_555 1_555
C11 C12 1_555 1_555
C16 C17 1_555 1_555
C17 C18 1_555 1_555
C22 C23 1_555 1_555
C23 C24 1_555 1_555

#END
