
#######################################################################
#
#                 Cambridge Crystallographic Data Centre
#                                CCDC 
#
#######################################################################
#
# If this CIF has been generated from an entry in the Cambridge 
# Structural Database, then it will include bibliographic, chemical, 
# crystal, experimental, refinement or atomic coordinate data resulting 
# from the CCDC's data processing and validation procedures.
#
#######################################################################

data_HAZSOQ
_symmetry_cell_setting           triclinic
_symmetry_space_group_name_H-M   'P -1'
_symmetry_Int_Tables_number      2
_space_group_name_Hall           '-P 1'
loop_
_symmetry_equiv_pos_site_id
_symmetry_equiv_pos_as_xyz
1 x,y,z
2 -x,-y,-z
_cell_length_a                   9.507(3)
_cell_length_b                   11.641(2)
_cell_length_c                   12.732(4)
_cell_angle_alpha                73.418(9)
_cell_angle_beta                 80.316(16)
_cell_angle_gamma                66.294(7)
_cell_volume                     1234.21
loop_
_atom_site_label
_atom_site_type_symbol
_atom_site_fract_x
_atom_site_fract_y
_atom_site_fract_z
Hg1 Hg 0.13451(4) 0.05094(3) 0.31298(3)
Br1 Br 0.13267(10) -0.16007(8) 0.31197(7)
Br2 Br 0.25612(10) 0.18707(9) 0.34938(8)
N1 N -0.8417(8) 0.5111(6) 0.3628(6)
H1 H -0.885(9) 0.505(8) 0.412(7)
N2 N -0.8204(7) 0.3800(6) 0.5958(5)
N3 N -0.1237(7) 0.1630(6) 0.3798(5)
N4 N -0.9235(7) 0.1597(6) 1.1182(5)
C1 C -0.8841(9) 0.5795(7) 0.2588(6)
C2 C -0.7427(9) 0.5611(8) 0.1926(7)
H2 H -0.746(8) 0.602(7) 0.121(7)
C3 C -0.6230(9) 0.4812(7) 0.2574(6)
H3 H -0.507(8) 0.448(6) 0.231(6)
C4 C -0.6854(9) 0.4488(7) 0.3658(6)
C5 C -0.6028(8) 0.3649(7) 0.4572(6)
C6 C -0.6681(8) 0.3352(7) 0.5643(6)
C7 C -0.5771(10) 0.2549(8) 0.6591(7)
H4 H -0.474(8) 0.218(6) 0.647(5)
C8 C -0.6769(9) 0.2521(8) 0.7458(8)
H5 H -0.661(10) 0.213(9) 0.808(8)
C9 C -0.8296(8) 0.3285(7) 0.7072(6)
C10 C -1.0325(9) 0.6523(7) 0.2258(6)
C11 C -0.4355(8) 0.2952(7) 0.4358(6)
C12 C -0.3767(9) 0.1647(7) 0.4385(6)
H6 H -0.435(8) 0.119(7) 0.452(6)
C13 C -0.2237(9) 0.1029(8) 0.4082(6)
H7 H -0.188(9) 0.021(8) 0.401(7)
C14 C -0.1759(10) 0.2879(8) 0.3827(6)
H8 H -0.092(9) 0.317(7) 0.375(6)
C15 C -0.3303(10) 0.3555(8) 0.4104(7)
H9 H -0.357(9) 0.429(7) 0.408(7)
C16 C -1.0454(8) 0.7188(7) 0.1058(6)
C17 C -1.0943(10) 0.8516(8) 0.0675(7)
H10 H -1.127(10) 0.904(8) 0.115(7)
C18 C -0.8916(9) 0.0890(8) 1.0439(6)
H11 H -0.846(8) -0.022(7) 1.079(6)
C19 C -0.9752(11) 0.2894(8) 1.0826(7)
H12 H -1.008(13) 0.337(10) 1.148(10)
C20 C -1.0067(11) 0.6484(8) 0.0268(7)
H13 H -0.954(10) 0.555(9) 0.052(7)
C9A C -1.1704(8) 0.6715(7) 0.2928(6)
N2A N -1.1796(7) 0.6200(6) 0.4042(5)
C6A C -1.3319(8) 0.6648(7) 0.4357(6)
C5A C -1.3972(8) 0.6351(7) 0.5428(6)
C4A C -1.3146(9) 0.5512(7) 0.6342(6)
N1A N -1.1583(8) 0.4889(6) 0.6372(6)
H1A H -1.115(9) 0.495(8) 0.588(7)
C1A C -1.1159(9) 0.4205(7) 0.7412(6)
C2A C -1.2573(9) 0.4389(8) 0.8074(7)
H2A H -1.254(8) 0.398(7) 0.879(7)
C3A C -1.3770(9) 0.5188(7) 0.7426(6)
H3A H -1.493(8) 0.552(6) 0.769(6)
C10A C -0.9675(9) 0.3477(7) 0.7742(6)
C16A C -0.9546(8) 0.2812(7) 0.8942(6)
C17A C -0.9057(10) 0.1484(8) 0.9325(7)
H10A H -0.873(10) 0.096(8) 0.885(7)
N4_2 N 0.0765(7) 0.1597(6) 0.1182(5)
Hg1_2 Hg -0.86549(4) 0.05094(3) 1.31298(3)
N4A N -2.0765(7) 0.8403(6) 0.8818(5)
Hg1A Hg -2.13451(4) 0.94906(3) 0.68702(3)
Br1A Br -2.13267(10) 1.16007(8) 0.68803(7)
Br2A Br -2.25612(10) 0.81293(9) 0.65062(8)
N3A N -1.8763(7) 0.8370(6) 0.6202(5)
C13A C -1.7763(9) 0.8971(8) 0.5918(6)
C12A C -1.6233(9) 0.8353(7) 0.5615(6)
C11A C -1.5645(8) 0.7048(7) 0.5642(6)
C15A C -1.6697(10) 0.6445(8) 0.5896(7)
C14A C -1.8241(10) 0.7121(8) 0.6173(6)
H8A H -1.908(9) 0.683(7) 0.625(6)
H9A H -1.643(9) 0.571(7) 0.592(7)
H6A H -1.565(8) 0.881(7) 0.548(6)
H7A H -1.812(9) 0.979(8) 0.599(7)
C20A C -0.9933(11) 0.3516(8) 0.9732(7)
H13A H -1.046(10) 0.445(9) 0.948(7)
C7A C -1.4229(10) 0.7451(8) 0.3409(7)
H4A H -1.526(8) 0.782(6) 0.353(5)
C8A C -1.3231(9) 0.7479(8) 0.2542(8)
H5A H -1.339(10) 0.787(9) 0.192(8)
C19A C -1.0248(11) 0.7106(8) -0.0826(7)
C18A C -1.1084(9) 0.9110(8) -0.0439(6)
N4A_2 N -1.0765(7) 0.8403(6) -0.1182(5)
Hg1A_2 Hg -1.13451(4) 0.94906(3) -0.31298(3)
H11A H -1.154(8) 1.022(7) -0.079(6)
H12A H -0.992(13) 0.663(10) -0.148(10)
C21 C 0.5099(13) 0.7562(11) -0.0919(11)
H14 H 0.561(11) 0.738(9) -0.142(8)
Cl1 Cl 0.5101(4) 0.8990(3) -0.0718(3)
Cl2 Cl 0.5908(3) 0.6257(3) 0.0172(2)
Cl3 Cl 0.3224(3) 0.7719(3) -0.1110(2)
loop_
_geom_bond_atom_site_label_1
_geom_bond_atom_site_label_2
_geom_bond_site_symmetry_1
_geom_bond_site_symmetry_2
Hg1 Br1 1_555 1_555
Br2 Hg1 1_555 1_555
N1 H1 1_555 1_555
N2 C6 1_555 1_555
N3 Hg1 1_555 1_555
N4 C18 1_555 1_555
C1 N1 1_555 1_555
C2 C1 1_555 1_555
H2 C2 1_555 1_555
C3 C2 1_555 1_555
H3 C3 1_555 1_555
C4 N1 1_555 1_555
C5 C4 1_555 1_555
C6 C5 1_555 1_555
C7 C6 1_555 1_555
H4 C7 1_555 1_555
C8 C7 1_555 1_555
H5 C8 1_555 1_555
C9 N2 1_555 1_555
C10 C1 1_555 1_555
C11 C5 1_555 1_555
C12 C11 1_555 1_555
H6 C12 1_555 1_555
C13 N3 1_555 1_555
H7 C13 1_555 1_555
C14 N3 1_555 1_555
H8 C14 1_555 1_555
C15 C11 1_555 1_555
H9 C15 1_555 1_555
C16 C10 1_555 1_555
C17 C16 1_555 1_555
H10 C17 1_555 1_555
C18 H11 1_555 1_555
C19 N4 1_555 1_555
H12 C19 1_555 1_555
C20 C16 1_555 1_555
H13 C20 1_555 1_555
C21 H14 1_555 1_555
Cl1 C21 1_555 1_555
Cl2 C21 1_555 1_555
Cl3 C21 1_555 1_555
C9A C10 1_555 1_555
N2A C9A 1_555 1_555
C6A N2A 1_555 1_555
C5A C6A 1_555 1_555
C4A C5A 1_555 1_555
N1A C4A 1_555 1_555
H1A N1A 1_555 1_555
C1A N1A 1_555 1_555
C2A C1A 1_555 1_555
H2A C2A 1_555 1_555
C3A C4A 1_555 1_555
H3A C3A 1_555 1_555
C10A C9 1_555 1_555
C16A C10A 1_555 1_555
C17A C18 1_555 1_555
H10A C17A 1_555 1_555
N4_2 Hg1 1_555 1_555
Hg1_2 N4 1_555 1_555
N4A Hg1A 1_555 1_555
Hg1A Br1A 1_555 1_555
Br2A Hg1A 1_555 1_555
N3A Hg1A 1_555 1_555
C13A N3A 1_555 1_555
C12A C13A 1_555 1_555
C11A C5A 1_555 1_555
C15A C11A 1_555 1_555
C14A N3A 1_555 1_555
H8A C14A 1_555 1_555
H9A C15A 1_555 1_555
H6A C12A 1_555 1_555
H7A C13A 1_555 1_555
C20A C19 1_555 1_555
H13A C20A 1_555 1_555
C7A C6A 1_555 1_555
H4A C7A 1_555 1_555
C8A C9A 1_555 1_555
H5A C8A 1_555 1_555
C19A C20 1_555 1_555
C18A C17 1_555 1_555
N4A_2 C19A 1_555 1_555
Hg1A_2 N4A_2 1_555 1_555
H11A C18A 1_555 1_555
H12A C19A 1_555 1_555
C3 C4 1_555 1_555
C8 C9 1_555 1_555
C12 C13 1_555 1_555
C14 C15 1_555 1_555
C1A C10A 1_555 1_555
C2A C3A 1_555 1_555
C16A C17A 1_555 1_555
C16A C20A 1_555 1_555
C12A C11A 1_555 1_555
C15A C14A 1_555 1_555
C7A C8A 1_555 1_555
C18A N4A_2 1_555 1_555

#END
