
#######################################################################
#
#                 Cambridge Crystallographic Data Centre
#                                CCDC 
#
#######################################################################
#
# If this CIF has been generated from an entry in the Cambridge 
# Structural Database, then it will include bibliographic, chemical, 
# crystal, experimental, refinement or atomic coordinate data resulting 
# from the CCDC's data processing and validation procedures.
#
#######################################################################

data_HAZWAH
_symmetry_cell_setting           orthorhombic
_symmetry_space_group_name_H-M   'P n a 21'
_symmetry_Int_Tables_number      33
_space_group_name_Hall           'P 2c -2n'
loop_
_symmetry_equiv_pos_site_id
_symmetry_equiv_pos_as_xyz
1 x,y,z
2 -x,-y,1/2+z
3 1/2+x,1/2-y,z
4 1/2-x,1/2+y,1/2+z
_cell_length_a                   13.7508(3)
_cell_length_b                   8.0150(2)
_cell_length_c                   19.3724(6)
_cell_angle_alpha                90
_cell_angle_beta                 90
_cell_angle_gamma                90
_cell_volume                     2135.08
loop_
_atom_site_label
_atom_site_type_symbol
_atom_site_fract_x
_atom_site_fract_y
_atom_site_fract_z
Cu1 Cu 0.28140(3) 0.24708(8) 0.09998(4)
O1 O 0.2760(2) 0.4531(6) 0.1829(2)
H1 H 0.2467 0.5490 0.1708
H2 H 0.2747 0.4472 0.2294
O2 O 0.2861(3) 0.0382(6) 0.0171(2)
H3 H 0.3011 0.0434 -0.0281
H4 H 0.2332 -0.0278 0.0209
N1 N 0.2758(3) 0.4264(6) 0.0280(2)
N2 N 0.1304(3) 0.3159(6) -0.0183(2)
H9 H 0.1111 0.2704 -0.0573
N3 N 0.1339(3) 0.2398(5) 0.0994(3)
N4 N 0.1289(3) 0.1526(6) 0.2160(2)
H10 H 0.1046 0.1859 0.2557
N5 N 0.2804(3) 0.0624(6) 0.1707(2)
N6 N 0.2766(3) 0.6670(7) -0.0768(2)
N7 N -0.0681(3) 0.2431(5) 0.1006(3)
N8 N 0.2891(3) -0.1775(7) 0.2748(3)
C1 C 0.3435(3) 0.5525(7) 0.0254(3)
H11 H 0.3911 0.5604 0.0608
C2 C 0.3438(4) 0.6670(8) -0.0270(3)
H12 H 0.3935 0.7492 -0.0281
C3 C 0.2081(4) 0.5502(9) -0.0731(3)
H13 H 0.1582 0.5484 -0.1070
C4 C 0.2069(3) 0.4292(7) -0.0205(3)
C5 C 0.0830(4) 0.2707(6) 0.0417(3)
C6 C -0.0179(4) 0.2677(7) 0.0413(3)
H14 H -0.0520 0.2830 -0.0009
C7 C -0.0196(4) 0.2140(8) 0.1577(3)
H15 H -0.0537 0.1984 0.1999
C8 C 0.0826(4) 0.2060(7) 0.1570(3)
C9 C 0.2105(3) 0.0508(7) 0.2183(3)
C10 C 0.2165(3) -0.0695(7) 0.2708(3)
H16 H 0.1666 -0.0734 0.3048
C11 C 0.3566(4) -0.1680(7) 0.2252(3)
H17 H 0.4090 -0.2453 0.2257
C12 C 0.3532(4) -0.0518(7) 0.1739(3)
H18 H 0.4027 -0.0506 0.1397
Cu1B Cu -0.21860(3) 0.25292(8) 0.09998(4)
N7B N 0.4319(3) 0.2569(5) 0.1006(3)
Cl1 Cl 0.43563(9) 0.10068(17) -0.14569(8)
O3 O 0.4718(3) -0.0396(6) -0.1061(3)
O4 O 0.4161(3) 0.0553(7) -0.2151(2)
O5 O 0.3469(3) 0.1589(6) -0.1130(2)
O6 O 0.5084(3) 0.2299(5) -0.1430(3)
Cl2 Cl 0.58954(9) 0.73558(16) 0.08659(8)
O7 O 0.5424(3) 0.8862(6) 0.0667(3)
O8 O 0.6832(3) 0.7670(5) 0.1156(3)
O9 O 0.6025(3) 0.6312(6) 0.0262(2)
O10 O 0.5301(3) 0.6473(5) 0.1349(3)
O11 O 0.6934(3) 0.5575(6) -0.1719(2)
H5 H 0.6477 0.6114 -0.1470
H6 H 0.6962 0.4568 -0.1629
O12 O 0.4931(3) 0.6390(6) -0.1718(2)
H7 H 0.4959 0.7510 -0.1758
H8 H 0.4885 0.6051 -0.1275
loop_
_geom_bond_atom_site_label_1
_geom_bond_atom_site_label_2
_geom_bond_site_symmetry_1
_geom_bond_site_symmetry_2
Cu1 O1 1_555 1_555
Cl1 O3 1_555 1_555
Cl2 O7 1_555 1_555
O1 H1 1_555 1_555
H2 O1 1_555 1_555
O2 Cu1 1_555 1_555
H3 O2 1_555 1_555
H4 O2 1_555 1_555
O4 Cl1 1_555 1_555
O5 Cl1 1_555 1_555
O6 Cl1 1_555 1_555
O8 Cl2 1_555 1_555
O9 Cl2 1_555 1_555
O10 Cl2 1_555 1_555
O11 H5 1_555 1_555
H6 O11 1_555 1_555
O12 H7 1_555 1_555
H8 O12 1_555 1_555
N1 Cu1 1_555 1_555
N2 H9 1_555 1_555
N3 Cu1 1_555 1_555
N4 H10 1_555 1_555
N5 Cu1 1_555 1_555
N6 C2 1_555 1_555
N7 C6 1_555 1_555
N8 C10 1_555 1_555
C1 N1 1_555 1_555
H11 C1 1_555 1_555
C2 C1 1_555 1_555
H12 C2 1_555 1_555
C3 N6 1_555 1_555
H13 C3 1_555 1_555
C4 N1 1_555 1_555
C5 N2 1_555 1_555
C6 C5 1_555 1_555
H14 C6 1_555 1_555
C7 N7 1_555 1_555
H15 C7 1_555 1_555
C8 N3 1_555 1_555
C9 N4 1_555 1_555
C10 C9 1_555 1_555
H16 C10 1_555 1_555
C11 N8 1_555 1_555
H17 C11 1_555 1_555
C12 N5 1_555 1_555
H18 C12 1_555 1_555
Cu1B N7 1_555 1_555
N7B Cu1 1_555 1_555
N2 C4 1_555 1_555
N3 C5 1_555 1_555
N4 C8 1_555 1_555
N5 C9 1_555 1_555
C3 C4 1_555 1_555
C7 C8 1_555 1_555
C11 C12 1_555 1_555

#END
