
#######################################################################
#
#                 Cambridge Crystallographic Data Centre
#                                CCDC 
#
#######################################################################
#
# If this CIF has been generated from an entry in the Cambridge 
# Structural Database, then it will include bibliographic, chemical, 
# crystal, experimental, refinement or atomic coordinate data resulting 
# from the CCDC's data processing and validation procedures.
#
#######################################################################

data_HAZWEL
_symmetry_cell_setting           monoclinic
_symmetry_space_group_name_H-M   'P 21/c'
_symmetry_Int_Tables_number      14
_space_group_name_Hall           '-P 2ybc'
loop_
_symmetry_equiv_pos_site_id
_symmetry_equiv_pos_as_xyz
1 x,y,z
2 -x,1/2+y,1/2-z
3 -x,-y,-z
4 x,1/2-y,1/2+z
_cell_length_a                   14.5271(2)
_cell_length_b                   14.3046(2)
_cell_length_c                   23.1894(3)
_cell_angle_alpha                90
_cell_angle_beta                 107.2420(4)
_cell_angle_gamma                90
_cell_volume                     4602.31
loop_
_atom_site_label
_atom_site_type_symbol
_atom_site_fract_x
_atom_site_fract_y
_atom_site_fract_z
Cu1 Cu -1.74306(5) 0.48225(6) 0.25572(4)
Cu2 Cu -1.24353(6) 0.48411(6) 0.25456(4)
O1 O -1.7851(4) 0.4820(3) 0.1647(3)
H1 H -1.7887 0.4348 0.1565
H2 H -1.8622 0.4961 0.1479
O2 O -1.2849(4) 0.4829(4) 0.1640(3)
H3 H -1.3146 0.4510 0.1441
H4 H -1.2690 0.5324 0.1420
N1 N -1.6038(4) 0.4717(4) 0.2578(3)
N2 N -1.5559(4) 0.5656(4) 0.3447(3)
H5 H -1.5270 0.6196 0.3556
N3 N -1.7002(4) 0.4893(4) 0.3459(3)
N4 N -1.8417(4) 0.4125(4) 0.3495(3)
H6 H -1.8561 0.3591 0.3636
N5 N -1.8801(4) 0.4939(4) 0.2577(3)
N6 N -1.4162(4) 0.4788(4) 0.2501(3)
N7 N -2.0745(4) 0.4862(4) 0.2515(4)
N8 N -1.7621(4) 0.8452(4) 0.2424(3)
N9 N -1.7221(5) 0.8433(4) 0.1513(3)
H7 H -1.6761 0.8233 0.1368
N10 N -1.8006(4) 0.9867(4) 0.1550(3)
N11 N -1.8794(5) 1.1297(5) 0.1566(4)
H8 H -1.9389 1.1510 0.1444
N12 N -1.7501(4) 1.1226(4) 0.2461(3)
N13 N -1.7354(4) 0.6523(4) 0.2506(3)
N14 N -1.7601(4) 1.3170(4) 0.2553(3)
C1 C -1.5766(5) 0.4217(5) 0.2159(3)
H9 H -1.6229 0.3838 0.1882
C2 C -1.4843(5) 0.4245(5) 0.2123(4)
H10 H -1.4677 0.3877 0.1827
C3 C -1.4423(5) 0.5247(5) 0.2922(3)
H11 H -1.3959 0.5626 0.3198
C4 C -1.5361(5) 0.5199(4) 0.2977(3)
C5 C -1.6173(5) 0.5348(5) 0.3767(4)
C6 C -1.5911(6) 0.5507(6) 0.4379(4)
H12 H -1.5374 0.5891 0.4572
C7 C -1.6462(6) 0.5083(6) 0.4707(4)
H13 H -1.6297 0.5165 0.5132
C8 C -1.7240(6) 0.4551(6) 0.4413(4)
H14 H -1.7577 0.4204 0.4636
C9 C -1.7533(5) 0.4520(5) 0.3792(4)
C10 C -1.9096(5) 0.4500(5) 0.2992(4)
C11 C -2.0073(5) 0.4449(5) 0.2949(4)
H15 H -2.0262 0.4103 0.3245
C12 C -2.0439(6) 0.5340(6) 0.2104(5)
H16 H -2.0895 0.5660 0.1786
C13 C -1.9489(6) 0.5371(5) 0.2137(4)
H17 H -1.9302 0.5712 0.1838
C14 C -1.7834(7) 0.7949(5) 0.2859(4)
H18 H -1.8071 0.8260 0.3148
C15 C -1.7715(7) 0.6998(5) 0.2893(4)
H19 H -1.7892 0.6663 0.3198
C16 C -1.7156(5) 0.7009(5) 0.2077(4)
H20 H -1.6890 0.6697 0.1802
C17 C -1.7326(5) 0.7987(5) 0.2013(4)
C18 C -1.7792(6) 0.9184(6) 0.1212(4)
C19 C -1.8093(7) 0.9169(8) 0.0594(4)
H21 H -1.7893 0.8689 0.0374
C20 C -1.8708(8) 0.9891(10) 0.0298(5)
H22 H -1.8955 0.9892 -0.0130
C21 C -1.8949(7) 1.0587(8) 0.0623(5)
H23 H -1.9369 1.1077 0.0430
C22 C -1.8570(6) 1.0562(6) 0.1238(4)
C23 C -1.8185(5) 1.1719(5) 0.2057(4)
C24 C -1.8242(5) 1.2705(5) 0.2141(5)
H24 H -1.8773 1.3037 0.1884
C25 C -1.6885(6) 1.2664(5) 0.2927(4)
H25 H -1.6394 1.2978 0.3228
C26 C -1.6845(5) 1.1714(5) 0.2887(4)
H26 H -1.6338 1.1387 0.3168
Cu1_2 Cu -1.74306(5) 1.48225(6) 0.25572(4)
Cu2A Cu -1.75647(6) 0.98411(6) 0.24544(4)
Cu2_2 Cu -2.24353(6) 0.48411(6) 0.25456(4)
N7_2 N -1.0745(4) 0.4862(4) 0.2515(4)
N8A N -1.2379(4) 0.3452(4) 0.2576(3)
N10A N -1.1994(4) 0.4867(4) 0.3450(3)
N12A N -1.2499(4) 0.6226(4) 0.2539(3)
N14_2 N -1.7601(4) 0.3170(4) 0.2553(3)
Cl1 Cl -0.01550(14) -0.26030(13) 0.09498(10)
O3 O -0.0465(5) -0.1699(4) 0.0721(3)
O4 O 0.0806(5) -0.2723(5) 0.1081(5)
O5 O -0.0641(8) -0.3327(7) 0.0592(6)
O6 O -0.0404(10) -0.2679(6) 0.1503(5)
Cl2 Cl -0.33830(16) 0.77152(14) -0.08895(12)
O7 O -0.3226(8) 0.7790(6) -0.1479(4)
O8 O -0.2484(7) 0.7599(6) -0.0441(6)
O9 O -0.3933(9) 0.6903(8) -0.0889(4)
O10 O -0.3789(7) 0.8535(6) -0.0757(3)
Cl3 Cl -0.1094(2) -0.7867(2) 0.09581(14)
O11 O -0.1991(7) -0.7304(9) 0.0763(4)
O12 O -0.0560(6) -0.7363(9) 0.1484(4)
O13 O -0.0523(9) -0.7862(7) 0.0578(5)
O14 O -0.1289(9) -0.8790(7) 0.1052(5)
Cl4 Cl -0.5370(3) 0.7713(4) 0.0707(2)
O15 O -0.5508(15) 0.7179(16) 0.1195(9)
O16 O -0.6109(13) 0.7684(12) 0.0161(8)
O17 O -0.4584(19) 0.7312(18) 0.0623(11)
O18 O -0.5204(10) 0.8661(10) 0.0965(6)
O19 O -0.3150(8) 0.0524(9) 0.4017(5)
H27 H -0.3297 0.0189 0.4274
C27 C -0.2248(8) 0.1022(8) 0.4306(7)
H28 H -0.2078 0.0922 0.4749
H29 H -0.2339 0.1689 0.4223
H30 H -0.1736 0.0778 0.4159
O20 O 0.1002(11) -0.6283(10) 0.0798(5)
H31 H 0.0943 -0.5696 0.0868
H32 H 0.1441 -0.6249 0.0621
O21 O -0.2627(9) 0.6279(10) 0.0863(5)
H33 H -0.3111 0.6525 0.0570
H34 H -0.2383 0.5807 0.0779
O22 O -0.6014(10) -0.1405(12) 0.4097(6)
H35 H -0.5843 -0.1689 0.4485
H36 H -0.6141 -0.2053 0.3892
Cl5? Cl -0.1053(6) -0.7134(7) 0.0850(3)
O23? O -0.090(5) -0.6377(14) 0.050(3)
Cl6? Cl -0.5398(3) 0.7652(4) 0.1040(4)
O24? O -0.5308(11) 0.7812(11) 0.1682(7)
O25? O -0.5104(12) 0.6726(12) 0.1047(7)
O26? O -0.4821(12) 0.8289(12) 0.0837(7)
O27? O -0.6412(8) 0.7706(8) 0.0665(5)
O28? O -0.2724(15) 0.0415(14) 0.4651(9)
H37? H -0.2593 -0.0147 0.4605
H38? H -0.1771 0.1408 0.4596
H39? H -0.2733 0.1421 0.4037
H40? H -0.1934 0.0634 0.4077
loop_
_geom_bond_atom_site_label_1
_geom_bond_atom_site_label_2
_geom_bond_site_symmetry_1
_geom_bond_site_symmetry_2
Cu1 O1 1_555 1_555
Cu2 O2 1_555 1_555
O1 H1 1_555 1_555
H2 O1 1_555 1_555
O2 H3 1_555 1_555
H4 O2 1_555 1_555
N1 Cu1 1_555 1_555
N2 H5 1_555 1_555
N3 Cu1 1_555 1_555
N4 H6 1_555 1_555
N5 Cu1 1_555 1_555
N6 Cu2 1_555 1_555
N7 C11 1_555 1_555
N8 C14 1_555 1_555
N9 H7 1_555 1_555
N10 C18 1_555 1_555
N11 H8 1_555 1_555
N12 C23 1_555 1_555
N13 Cu1 1_555 1_555
N14 C24 1_555 1_555
C1 N1 1_555 1_555
H9 C1 1_555 1_555
C2 N6 1_555 1_555
H10 C2 1_555 1_555
C3 N6 1_555 1_555
H11 C3 1_555 1_555
C4 N1 1_555 1_555
C5 N2 1_555 1_555
C6 C5 1_555 1_555
H12 C6 1_555 1_555
C7 C6 1_555 1_555
H13 C7 1_555 1_555
C8 C7 1_555 1_555
H14 C8 1_555 1_555
C9 N3 1_555 1_555
C10 N4 1_555 1_555
C11 C10 1_555 1_555
H15 C11 1_555 1_555
C12 N7 1_555 1_555
H16 C12 1_555 1_555
C13 N5 1_555 1_555
H17 C13 1_555 1_555
C14 H18 1_555 1_555
C15 N13 1_555 1_555
H19 C15 1_555 1_555
C16 N13 1_555 1_555
H20 C16 1_555 1_555
C17 N8 1_555 1_555
C18 N9 1_555 1_555
C19 C18 1_555 1_555
H21 C19 1_555 1_555
C20 C19 1_555 1_555
H22 C20 1_555 1_555
C21 C20 1_555 1_555
H23 C21 1_555 1_555
C22 N10 1_555 1_555
C23 N11 1_555 1_555
C24 C23 1_555 1_555
H24 C24 1_555 1_555
C25 N14 1_555 1_555
H25 C25 1_555 1_555
C26 N12 1_555 1_555
H26 C26 1_555 1_555
Cl1 O3 1_555 1_555
O4 Cl1 1_555 1_555
O5 Cl1 1_555 1_555
O6 Cl1 1_555 1_555
Cl2 O7 1_555 1_555
O8 Cl2 1_555 1_555
O9 Cl2 1_555 1_555
O10 Cl2 1_555 1_555
Cl3 O11 1_555 1_555
O12 Cl3 1_555 1_555
O13 Cl3 1_555 1_555
O14 Cl3 1_555 1_555
Cl4 O15 1_555 1_555
O16 Cl4 1_555 1_555
O17 Cl4 1_555 1_555
O18 Cl4 1_555 1_555
O19 H27 1_555 1_555
C27 O19 1_555 1_555
H28 C27 1_555 1_555
H29 C27 1_555 1_555
H30 C27 1_555 1_555
O20 H31 1_555 1_555
H32 O20 1_555 1_555
O21 H33 1_555 1_555
H34 O21 1_555 1_555
O22 H35 1_555 1_555
H36 O22 1_555 1_555
Cu1_2 N14 1_555 1_555
Cu2A N8 1_555 1_555
Cu2_2 N7 1_555 1_555
N7_2 Cu2 1_555 1_555
N8A Cu2 1_555 1_555
N10A Cu2 1_555 1_555
N12A Cu2 1_555 1_555
N14_2 Cu1 1_555 1_555
N2 C4 1_555 1_555
N3 C5 1_555 1_555
N4 C9 1_555 1_555
N5 C10 1_555 1_555
N9 C17 1_555 1_555
N10 Cu2A 1_555 1_555
N11 C22 1_555 1_555
N12 Cu2A 1_555 1_555
C1 C2 1_555 1_555
C3 C4 1_555 1_555
C8 C9 1_555 1_555
C12 C13 1_555 1_555
C14 C15 1_555 1_555
C16 C17 1_555 1_555
C21 C22 1_555 1_555
C25 C26 1_555 1_555

#END
