
#######################################################################
#
#                 Cambridge Crystallographic Data Centre
#                                CCDC 
#
#######################################################################
#
# If this CIF has been generated from an entry in the Cambridge 
# Structural Database, then it will include bibliographic, chemical, 
# crystal, experimental, refinement or atomic coordinate data resulting 
# from the CCDC's data processing and validation procedures.
#
#######################################################################

data_HAZWAG01
_symmetry_cell_setting           monoclinic
_symmetry_space_group_name_H-M   'C 2/c'
_symmetry_Int_Tables_number      15
_space_group_name_Hall           '-C 2yn'
loop_
_symmetry_equiv_pos_site_id
_symmetry_equiv_pos_as_xyz
1 x,y,z
2 -x,y,1/2-z
3 1/2+x,1/2+y,z
4 1/2-x,1/2+y,1/2-z
5 -x,-y,-z
6 x,-y,1/2+z
7 1/2-x,1/2-y,-z
8 1/2+x,1/2-y,1/2+z
_cell_length_a                   20.8162(14)
_cell_length_b                   15.7305(12)
_cell_length_c                   7.7103(5)
_cell_angle_alpha                90
_cell_angle_beta                 110.499(3)
_cell_angle_gamma                90
_cell_volume                     2364.86
loop_
_atom_site_label
_atom_site_type_symbol
_atom_site_fract_x
_atom_site_fract_y
_atom_site_fract_z
Mn1 Mn 0.33412(2) 0.25309(2) 0.01775(6)
Na1 Na 0.41515(6) 0.13829(7) -0.24608(16)
O1 O 0.41969(10) 0.27870(13) 0.2686(3)
O2 O 0.48737(11) 0.37739(14) 0.4511(3)
O3 O 0.52828(12) 0.14215(15) -0.0210(3)
O4 O 0.40307(10) 0.28136(12) -0.1461(3)
N1 N 0.35657(15) 0.12157(16) -0.0082(4)
N2 N 0.37902(14) 0.06741(16) 0.1005(4)
N3 N 0.26708(13) 0.23374(17) 0.1932(3)
N4 N 0.29013(12) 0.21087(17) 0.3500(3)
N5 N 0.33485(11) 0.39810(14) 0.0626(3)
N6 N 0.36256(14) 0.56939(15) 0.1358(4)
N7 N 0.31279(16) 0.1887(3) 0.5009(4)
N8 N 0.4007(2) 0.0141(2) 0.2074(5)
C1 C 0.43687(14) 0.35451(17) 0.3169(4)
C2 C 0.39103(14) 0.42343(16) 0.2009(4)
C3 C 0.40472(15) 0.50963(18) 0.2352(4)
H1 H 0.4445 0.5259 0.3304
C4 C 0.30635(16) 0.54338(19) 0.0006(4)
H2 H 0.2757 0.5836 -0.0709
C5 C 0.29242(14) 0.45756(18) -0.0363(4)
H3 H 0.2527 0.4414 -0.1319
H4 H 0.4413 0.3074 -0.0874
H5 H 0.3889 0.3227 -0.2414
H6 H 0.5440 0.0925 0.0309
H7 H 0.5503 0.1827 0.0297
Mn1F Mn 0.16588(2) 0.24691(2) -0.01775(6)
Na1A Na 0.58485(6) 0.13829(7) -0.25392(16)
Na1_2 Na 0.41515(6) 0.13829(7) 0.75392(16)
Na1E Na 0.41515(6) -0.13829(7) 0.25392(16)
O3A O 0.47172(12) 0.14215(15) -0.4790(3)
N3F N 0.23292(13) 0.26626(17) -0.1932(3)
N7_2 N 0.31279(16) 0.1887(3) -0.4991(4)
N8E N 0.4007(2) -0.0141(2) -0.2926(5)
H6A H 0.4560 0.0925 -0.5309
H7A H 0.4497 0.1827 -0.5297
loop_
_geom_bond_atom_site_label_1
_geom_bond_atom_site_label_2
_geom_bond_site_symmetry_1
_geom_bond_site_symmetry_2
Mn1 O1 1_555 1_555
Na1 O3 1_555 1_555
O1 C1 1_555 1_555
O2 C1 1_555 1_555
O3 H6 1_555 1_555
O4 Mn1 1_555 1_555
N1 Mn1 1_555 1_555
N2 N1 1_555 1_555
N3 Mn1 1_555 1_555
N4 N3 1_555 1_555
N5 Mn1 1_555 1_555
N6 C3 1_555 1_555
N7 N4 1_555 1_555
N8 N2 1_555 1_555
C1 C2 1_555 1_555
C2 N5 1_555 1_555
C3 C2 1_555 1_555
H1 C3 1_555 1_555
C4 N6 1_555 1_555
H2 C4 1_555 1_555
C5 N5 1_555 1_555
H3 C5 1_555 1_555
H4 O4 1_555 1_555
H5 O4 1_555 1_555
H7 O3 1_555 1_555
Mn1F N3 1_555 1_555
Na1A O3 1_555 1_555
Na1_2 N7 1_555 1_555
Na1E N8 1_555 1_555
O3A Na1 1_555 1_555
N3F Mn1 1_555 1_555
N7_2 Na1 1_555 1_555
N8E Na1 1_555 1_555
H6A O3A 1_555 1_555
H7A O3A 1_555 1_555
Na1 O4 1_555 1_555
Na1 N1 1_555 1_555
C4 C5 1_555 1_555
Mn1F N3F 1_555 1_555
Na1A O3A 1_555 1_555

#END
