
#######################################################################
#
#                 Cambridge Crystallographic Data Centre
#                                CCDC 
#
#######################################################################
#
# If this CIF has been generated from an entry in the Cambridge 
# Structural Database, then it will include bibliographic, chemical, 
# crystal, experimental, refinement or atomic coordinate data resulting 
# from the CCDC's data processing and validation procedures.
#
#######################################################################

data_HAZWUB
_symmetry_cell_setting           orthorhombic
_symmetry_space_group_name_H-M   'P n a 21'
_symmetry_Int_Tables_number      33
_space_group_name_Hall           'P 2c -2n'
loop_
_symmetry_equiv_pos_site_id
_symmetry_equiv_pos_as_xyz
1 x,y,z
2 -x,-y,1/2+z
3 1/2+x,1/2-y,z
4 1/2-x,1/2+y,1/2+z
_cell_length_a                   13.6630(2)
_cell_length_b                   8.2483(1)
_cell_length_c                   19.8750(3)
_cell_angle_alpha                90
_cell_angle_beta                 90
_cell_angle_gamma                90
_cell_volume                     2239.84
loop_
_atom_site_label
_atom_site_type_symbol
_atom_site_fract_x
_atom_site_fract_y
_atom_site_fract_z
Cu1 Cu -0.26511(3) -0.25008(5) -0.40146(4)
O1 O -0.2681(2) -0.0478(4) -0.48462(18)
H1 H -0.2320 0.0374 -0.4709
H2 H -0.2357 -0.0947 -0.5189
O2 O -0.2577(2) -0.4607(4) -0.31355(16)
H3 H -0.2337 -0.5559 -0.3291
H4 H -0.2413 -0.4554 -0.2697
N1 N -0.2618(3) -0.4301(5) -0.46822(19)
N2 N -0.1141(2) -0.3333(4) -0.51464(18)
H5 H -0.0912 -0.2974 -0.5532
N3 N -0.1182(2) -0.2467(4) -0.4025(2)
N4 N -0.1145(2) -0.1602(4) -0.28789(18)
H6 H -0.0900 -0.1952 -0.2496
N5 N -0.2658(2) -0.0708(5) -0.33307(19)
N6 N 0.08433(19) -0.2434(4) -0.4017(2)
C1 C -0.3345(3) -0.5446(5) -0.4693(2)
H7 H -0.3801 -0.5459 -0.4333
C2 C -0.3451(3) -0.6569(5) -0.5194(2)
H8 H -0.3968 -0.7339 -0.5183
C3 C -0.2781(4) -0.6551(5) -0.5718(3)
H9 H -0.2846 -0.7294 -0.6081
C4 C -0.2017(3) -0.5450(5) -0.5712(2)
H10 H -0.1548 -0.5430 -0.6064
C5 C -0.1957(3) -0.4366(4) -0.5172(2)
C6 C -0.0670(3) -0.2833(5) -0.4572(2)
C7 C 0.0356(4) -0.2769(5) -0.4577(2)
H11 H 0.0704 -0.2965 -0.4983
C8 C 0.0347(3) -0.2104(6) -0.3458(2)
H12 H 0.0690 -0.1892 -0.3051
C9 C -0.0673(3) -0.2068(5) -0.3463(2)
C10 C -0.1974(3) -0.0626(4) -0.2845(2)
C11 C -0.2058(3) 0.0446(5) -0.2306(2)
H13 H -0.1576 0.0469 -0.1962
C12 C -0.2858(4) 0.1478(6) -0.2281(2)
H14 H -0.2947 0.2189 -0.1910
C13 C -0.3521(3) 0.1457(5) -0.2805(2)
H15 H -0.4058 0.2189 -0.2810
C14 C -0.3392(3) 0.0362(4) -0.3317(2)
H16 H -0.3846 0.0365 -0.3679
Cu1B Cu 0.23489(3) -0.24992(5) -0.40146(4)
N6B N -0.41567(19) -0.2566(4) -0.4017(2)
Cl1 Cl -0.08939(9) -0.56616(12) -0.14763(6)
O3 O -0.0391(3) -0.4522(5) -0.10492(19)
O4 O -0.0902(5) -0.5111(7) -0.2144(3)
O5 O -0.1818(9) -0.5950(16) -0.1206(7)
O6 O -0.0248(5) -0.6999(8) -0.1412(4)
Cl2 Cl -0.58179(7) -0.73116(11) -0.40976(7)
O10 O -0.5343(3) -0.8793(4) -0.4279(2)
O11 O -0.6792(2) -0.7614(3) -0.38579(19)
O12 O -0.5881(3) -0.6264(5) -0.46842(19)
O13 O -0.5266(2) -0.6483(4) -0.35991(19)
O14 O 0.0121(3) -0.1609(6) -0.17628(19)
H17 H 0.0048 -0.2433 -0.1520
C15 C 0.0741(5) -0.0522(7) -0.1445(4)
H18 H 0.0659 0.0556 -0.1645
H19 H 0.1420 -0.0878 -0.1501
H20 H 0.0581 -0.0475 -0.0965
O7? O -0.1606(11) -0.4533(14) -0.1824(7)
O8? O -0.161(2) -0.674(2) -0.1111(14)
O9? O -0.0543(11) -0.6735(17) -0.1999(9)
loop_
_geom_bond_atom_site_label_1
_geom_bond_atom_site_label_2
_geom_bond_site_symmetry_1
_geom_bond_site_symmetry_2
Cu1 O1 1_555 1_555
O1 H1 1_555 1_555
H2 O1 1_555 1_555
O2 Cu1 1_555 1_555
H3 O2 1_555 1_555
H4 O2 1_555 1_555
N1 Cu1 1_555 1_555
N2 H5 1_555 1_555
N3 Cu1 1_555 1_555
N4 H6 1_555 1_555
N5 Cu1 1_555 1_555
N6 C7 1_555 1_555
C1 N1 1_555 1_555
H7 C1 1_555 1_555
C2 C1 1_555 1_555
H8 C2 1_555 1_555
C3 C2 1_555 1_555
H9 C3 1_555 1_555
C4 C3 1_555 1_555
H10 C4 1_555 1_555
C5 N1 1_555 1_555
C6 N2 1_555 1_555
C7 C6 1_555 1_555
H11 C7 1_555 1_555
C8 N6 1_555 1_555
H12 C8 1_555 1_555
C9 N3 1_555 1_555
C10 N4 1_555 1_555
C11 C10 1_555 1_555
H13 C11 1_555 1_555
C12 C11 1_555 1_555
H14 C12 1_555 1_555
C13 C12 1_555 1_555
H15 C13 1_555 1_555
C14 N5 1_555 1_555
H16 C14 1_555 1_555
Cl1 O3 1_555 1_555
O4 Cl1 1_555 1_555
O5 Cl1 1_555 1_555
O6 Cl1 1_555 1_555
Cl2 O10 1_555 1_555
O11 Cl2 1_555 1_555
O12 Cl2 1_555 1_555
O13 Cl2 1_555 1_555
O14 H17 1_555 1_555
C15 O14 1_555 1_555
H18 C15 1_555 1_555
H19 C15 1_555 1_555
H20 C15 1_555 1_555
Cu1B N6 1_555 1_555
N6B Cu1 1_555 1_555
N2 C5 1_555 1_555
N3 C6 1_555 1_555
N4 C9 1_555 1_555
N5 C10 1_555 1_555
C4 C5 1_555 1_555
C8 C9 1_555 1_555
C13 C14 1_555 1_555

#END
