
#######################################################################
#
#                 Cambridge Crystallographic Data Centre
#                                CCDC 
#
#######################################################################
#
# If this CIF has been generated from an entry in the Cambridge 
# Structural Database, then it will include bibliographic, chemical, 
# crystal, experimental, refinement or atomic coordinate data resulting 
# from the CCDC's data processing and validation procedures.
#
#######################################################################

data_HAZXAH
_symmetry_cell_setting           monoclinic
_symmetry_space_group_name_H-M   'P 21/c'
_symmetry_Int_Tables_number      14
_space_group_name_Hall           '-P 2ybc'
loop_
_symmetry_equiv_pos_site_id
_symmetry_equiv_pos_as_xyz
1 x,y,z
2 -x,1/2+y,1/2-z
3 -x,-y,-z
4 x,1/2-y,1/2+z
_cell_length_a                   16.252(7)
_cell_length_b                   9.599(6)
_cell_length_c                   17.466(9)
_cell_angle_alpha                90
_cell_angle_beta                 91.46(2)
_cell_angle_gamma                90
_cell_volume                     2723.86
loop_
_atom_site_label
_atom_site_type_symbol
_atom_site_fract_x
_atom_site_fract_y
_atom_site_fract_z
Nd1 Nd 0.2491(1) 0.2148(1) 0.0764(1)
N1 N 0.4911(2) 0.3965(4) 0.1690(2)
C1 C 0.4182(3) 0.3331(5) 0.1859(2)
O1 O 0.3778(2) 0.2775(4) 0.1320(2)
C2 C 0.3951(3) 0.3369(6) 0.2628(3)
C3 C 0.4413(3) 0.4051(6) 0.3163(3)
C4 C 0.5130(3) 0.4720(6) 0.2966(3)
C5 C 0.5371(3) 0.4655(6) 0.2237(3)
C6 C 0.5203(3) 0.3892(6) 0.0902(3)
C7 C 0.4879(3) 0.5081(6) 0.0413(2)
N2 N 0.2122(3) 0.5248(4) 0.2692(2)
C8 C 0.2308(3) 0.5076(5) 0.1938(3)
O2 O 0.2097(2) 0.3943(4) 0.1608(2)
C9 C 0.2731(3) 0.6179(5) 0.1583(3)
C10 C 0.2941(4) 0.7327(7) 0.1966(4)
C11 C 0.2728(5) 0.7494(7) 0.2738(4)
C12 C 0.2333(4) 0.6424(7) 0.3072(3)
C13 C 0.1684(3) 0.4136(6) 0.3085(3)
C14 C 0.0762(3) 0.4141(8) 0.2912(3)
N3 N -0.0103(2) 0.2783(4) 0.4761(2)
C15 C 0.0483(3) 0.2102(5) 0.5201(2)
O3 O 0.1234(2) 0.2364(4) 0.5083(2)
C16 C 0.0181(3) 0.1199(6) 0.5751(3)
C17 C -0.0631(4) 0.0969(7) 0.5824(3)
C18 C -0.1194(3) 0.1632(7) 0.5343(4)
C19 C -0.0922(3) 0.2522(6) 0.4824(3)
C20 C 0.0173(3) 0.3824(6) 0.4191(3)
C21 C 0.0317(4) 0.3134(7) 0.3444(3)
N4 N 0.2993(3) -0.0632(5) 0.0158(2)
O4 O 0.3489(2) 0.0137(4) 0.0534(2)
O5 O 0.2276(2) -0.0165(4) 0.0064(2)
O6 O 0.3191(3) -0.1745(5) -0.0108(3)
N5 N 0.2937(2) 0.3688(5) -0.0633(2)
O7 O 0.2994(3) 0.2375(4) -0.0584(2)
O8 O 0.2780(2) 0.4326(4) -0.0027(2)
O9 O 0.3031(3) 0.4295(5) -0.1227(2)
N6 N 0.1725(3) 0.0582(5) 0.2024(2)
O10 O 0.1322(2) 0.1026(5) 0.1445(2)
O11 O 0.2494(2) 0.0768(4) 0.2002(2)
O12 O 0.1389(3) 0.0057(6) 0.2549(3)
H1 H 0.3463 0.2883 0.2774
H2 H 0.4233 0.4089 0.3682
H3 H 0.5453 0.5215 0.3345
H4 H 0.5873 0.5099 0.2093
H5 H 0.5022 0.3031 0.0674
H6 H 0.5794 0.3904 0.0908
H7 H 0.5100 0.5939 0.0612
H8 H 0.4290 0.5118 0.0440
H9 H 0.2881 0.6076 0.1058
H10 H 0.3228 0.8063 0.1713
H11 H 0.2859 0.8326 0.3021
H12 H 0.2192 0.6498 0.3601
H13 H 0.1787 0.4208 0.3627
H14 H 0.1895 0.3256 0.2917
H15 H 0.0649 0.3917 0.2384
H16 H 0.0562 0.5064 0.3007
H17 H 0.0567 0.0730 0.6087
H18 H -0.0821 0.0333 0.6205
H19 H -0.1773 0.1459 0.5385
H20 H -0.1310 0.3001 0.4495
H21 H -0.0243 0.4526 0.4120
H22 H 0.0670 0.4268 0.4374
H23 H 0.0657 0.2329 0.3527
H24 H -0.0196 0.2840 0.3211
C7B C 0.5121(3) 0.4919(6) -0.0413(2)
C6B C 0.4797(3) 0.6108(6) -0.0902(3)
H7B H 0.4900 0.4061 -0.0612
H8B H 0.5710 0.4882 -0.0440
N1B N 0.5089(2) 0.6035(4) -0.1690(2)
H5B H 0.4978 0.6969 -0.0674
H6B H 0.4206 0.6096 -0.0908
C1B C 0.5818(3) 0.6669(5) -0.1859(2)
C5B C 0.4629(3) 0.5345(6) -0.2237(3)
O3C O 0.1234(2) 0.2636(4) 0.0083(2)
O1B O 0.6222(2) 0.7225(4) -0.1320(2)
C2B C 0.6049(3) 0.6631(6) -0.2628(3)
C4B C 0.4870(3) 0.5280(6) -0.2966(3)
H4B H 0.4127 0.4901 -0.2093
Nd1C Nd 0.2491(1) 0.2852(1) 0.5764(1)
Nd1B Nd 0.7509(1) 0.7852(1) -0.0764(1)
C3B C 0.5587(3) 0.5949(6) -0.3163(3)
H1B H 0.6537 0.7117 -0.2774
H3B H 0.4547 0.4785 -0.3345
O2B O 0.7903(2) 0.6057(4) -0.1608(2)
O3A O 0.8766(2) 0.7364(4) -0.0083(2)
O4B O 0.6511(2) 0.9863(4) -0.0534(2)
O5B O 0.7724(2) 1.0165(4) -0.0064(2)
O7B O 0.7006(3) 0.7625(4) 0.0584(2)
O8B O 0.7220(2) 0.5674(4) 0.0027(2)
O10B O 0.8678(2) 0.8974(5) -0.1445(2)
O11B O 0.7506(2) 0.9232(4) -0.2002(2)
H2B H 0.5767 0.5911 -0.3682
C8B C 0.7692(3) 0.4924(5) -0.1938(3)
N4B N 0.7007(3) 1.0632(5) -0.0158(2)
N5B N 0.7063(2) 0.6312(5) 0.0633(2)
N6B N 0.8275(3) 0.9418(5) -0.2024(2)
N2B N 0.7878(3) 0.4752(4) -0.2692(2)
C9B C 0.7269(3) 0.3821(5) -0.1583(3)
O6B O 0.6809(3) 1.1745(5) 0.0108(3)
O9B O 0.6969(3) 0.5705(5) 0.1227(2)
O12B O 0.8611(3) 0.9943(6) -0.2549(3)
C12B C 0.7667(4) 0.3576(7) -0.3072(3)
C13B C 0.8316(3) 0.5864(6) -0.3085(3)
C10B C 0.7059(4) 0.2673(7) -0.1966(4)
H9B H 0.7119 0.3924 -0.1058
C11B C 0.7272(5) 0.2506(7) -0.2738(4)
H12B H 0.7808 0.3502 -0.3601
C14B C 0.9238(3) 0.5859(8) -0.2912(3)
H13B H 0.8213 0.5792 -0.3627
H14B H 0.8105 0.6744 -0.2917
H10B H 0.6772 0.1937 -0.1713
H11B H 0.7141 0.1674 -0.3021
C21B C 0.9683(4) 0.6866(7) -0.3444(3)
H15B H 0.9351 0.6083 -0.2384
H16B H 0.9438 0.4936 -0.3007
C20B C 0.9827(3) 0.6176(6) -0.4191(3)
H23B H 0.9343 0.7671 -0.3527
H24B H 1.0196 0.7160 -0.3211
N3B N 1.0103(2) 0.7217(4) -0.4761(2)
H21B H 1.0243 0.5474 -0.4120
H22B H 0.9330 0.5732 -0.4374
C15B C 0.9517(3) 0.7898(5) -0.5201(2)
C19B C 1.0922(3) 0.7478(6) -0.4824(3)
O3B O 0.8766(2) 0.7636(4) -0.5083(2)
C16B C 0.9819(3) 0.8801(6) -0.5751(3)
C18B C 1.1194(3) 0.8368(7) -0.5343(4)
H20B H 1.1310 0.6999 -0.4495
Nd1A Nd 0.7509(1) 0.7148(1) -0.5764(1)
C17B C 1.0631(4) 0.9031(7) -0.5824(3)
H17B H 0.9433 0.9270 -0.6087
H19B H 1.1773 0.8541 -0.5385
H18B H 1.0821 0.9667 -0.6205
loop_
_geom_bond_atom_site_label_1
_geom_bond_atom_site_label_2
_geom_bond_site_symmetry_1
_geom_bond_site_symmetry_2
Nd1 O1 1_555 1_555
N1 C1 1_555 1_555
C1 O1 1_555 1_555
C2 C1 1_555 1_555
C3 C2 1_555 1_555
C4 C3 1_555 1_555
C5 N1 1_555 1_555
C6 N1 1_555 1_555
C7 C6 1_555 1_555
N2 C8 1_555 1_555
C8 O2 1_555 1_555
O2 Nd1 1_555 1_555
C9 C8 1_555 1_555
C10 C9 1_555 1_555
C11 C10 1_555 1_555
C12 N2 1_555 1_555
C13 N2 1_555 1_555
C14 C13 1_555 1_555
N3 C15 1_555 1_555
C15 O3 1_555 1_555
O3 Nd1C 1_555 1_555
C16 C15 1_555 1_555
C17 C16 1_555 1_555
C18 C17 1_555 1_555
C19 N3 1_555 1_555
C20 N3 1_555 1_555
C21 C14 1_555 1_555
N4 O4 1_555 1_555
O4 Nd1 1_555 1_555
O5 Nd1 1_555 1_555
O6 N4 1_555 1_555
N5 O7 1_555 1_555
O7 Nd1 1_555 1_555
O8 Nd1 1_555 1_555
O9 N5 1_555 1_555
N6 O10 1_555 1_555
O10 Nd1 1_555 1_555
O11 Nd1 1_555 1_555
O12 N6 1_555 1_555
H1 C2 1_555 1_555
H2 C3 1_555 1_555
H3 C4 1_555 1_555
H4 C5 1_555 1_555
H5 C6 1_555 1_555
H6 C6 1_555 1_555
H7 C7 1_555 1_555
H8 C7 1_555 1_555
H9 C9 1_555 1_555
H10 C10 1_555 1_555
H11 C11 1_555 1_555
H12 C12 1_555 1_555
H13 C13 1_555 1_555
H14 C13 1_555 1_555
H15 C14 1_555 1_555
H16 C14 1_555 1_555
H17 C16 1_555 1_555
H18 C17 1_555 1_555
H19 C18 1_555 1_555
H20 C19 1_555 1_555
H21 C20 1_555 1_555
H22 C20 1_555 1_555
H23 C21 1_555 1_555
H24 C21 1_555 1_555
C7B C7 1_555 1_555
C6B C7B 1_555 1_555
H7B C7B 1_555 1_555
H8B C7B 1_555 1_555
N1B C6B 1_555 1_555
H5B C6B 1_555 1_555
H6B C6B 1_555 1_555
C1B N1B 1_555 1_555
C5B N1B 1_555 1_555
O3C Nd1 1_555 1_555
O1B C1B 1_555 1_555
C2B C1B 1_555 1_555
C4B C5B 1_555 1_555
H4B C5B 1_555 1_555
Nd1B O1B 1_555 1_555
C3B C2B 1_555 1_555
H1B C2B 1_555 1_555
H3B C4B 1_555 1_555
O2B Nd1B 1_555 1_555
O3A Nd1B 1_555 1_555
O4B Nd1B 1_555 1_555
O5B Nd1B 1_555 1_555
O7B Nd1B 1_555 1_555
O8B Nd1B 1_555 1_555
O10B Nd1B 1_555 1_555
O11B Nd1B 1_555 1_555
H2B C3B 1_555 1_555
C8B O2B 1_555 1_555
N4B O4B 1_555 1_555
N5B O7B 1_555 1_555
N6B O10B 1_555 1_555
N2B C8B 1_555 1_555
C9B C8B 1_555 1_555
O6B N4B 1_555 1_555
O9B N5B 1_555 1_555
O12B N6B 1_555 1_555
C12B N2B 1_555 1_555
C13B N2B 1_555 1_555
C10B C9B 1_555 1_555
H9B C9B 1_555 1_555
C11B C12B 1_555 1_555
H12B C12B 1_555 1_555
C14B C13B 1_555 1_555
H13B C13B 1_555 1_555
H14B C13B 1_555 1_555
H10B C10B 1_555 1_555
H11B C11B 1_555 1_555
C21B C14B 1_555 1_555
H15B C14B 1_555 1_555
H16B C14B 1_555 1_555
C20B C21B 1_555 1_555
H23B C21B 1_555 1_555
H24B C21B 1_555 1_555
N3B C20B 1_555 1_555
H21B C20B 1_555 1_555
H22B C20B 1_555 1_555
C15B N3B 1_555 1_555
C19B N3B 1_555 1_555
O3B C15B 1_555 1_555
C16B C15B 1_555 1_555
C18B C19B 1_555 1_555
H20B C19B 1_555 1_555
Nd1A O3B 1_555 1_555
C17B C16B 1_555 1_555
H17B C16B 1_555 1_555
H19B C18B 1_555 1_555
H18B C17B 1_555 1_555
C4 C5 1_555 1_555
C11 C12 1_555 1_555
C18 C19 1_555 1_555
C20 C21 1_555 1_555
N4 O5 1_555 1_555
N5 O8 1_555 1_555
N6 O11 1_555 1_555
C4B C3B 1_555 1_555
O5B N4B 1_555 1_555
O8B N5B 1_555 1_555
O11B N6B 1_555 1_555
C10B C11B 1_555 1_555
C18B C17B 1_555 1_555

#END
