
#######################################################################
#
#                 Cambridge Crystallographic Data Centre
#                                CCDC 
#
#######################################################################
#
# If this CIF has been generated from an entry in the Cambridge 
# Structural Database, then it will include bibliographic, chemical, 
# crystal, experimental, refinement or atomic coordinate data resulting 
# from the CCDC's data processing and validation procedures.
#
#######################################################################

data_HAZXAI
_symmetry_cell_setting           monoclinic
_symmetry_space_group_name_H-M   'P 21/n'
_symmetry_Int_Tables_number      14
_space_group_name_Hall           '-P 2yn'
loop_
_symmetry_equiv_pos_site_id
_symmetry_equiv_pos_as_xyz
1 x,y,z
2 1/2-x,1/2+y,1/2-z
3 -x,-y,-z
4 1/2+x,1/2-y,1/2+z
_cell_length_a                   8.2348(1)
_cell_length_b                   27.2322(4)
_cell_length_c                   20.5470(3)
_cell_angle_alpha                90
_cell_angle_beta                 94.5252(5)
_cell_angle_gamma                90
_cell_volume                     4593.34
loop_
_atom_site_label
_atom_site_type_symbol
_atom_site_fract_x
_atom_site_fract_y
_atom_site_fract_z
Cu1 Cu -0.23802(7) 0.48860(2) -0.25783(3)
Cu2 Cu -0.25073(7) 0.23830(2) -0.26040(3)
O1 O -0.4558(4) 0.49209(12) -0.33600(16)
H1 H -0.4405 0.4912 -0.3834
H2 H -0.5370 0.5187 -0.3320
O2 O -0.0595(4) 0.23506(12) -0.33877(18)
H3 H 0.0229 0.2618 -0.3339
H4 H -0.0731 0.2338 -0.3876
N1 N -0.4370(5) -0.00728(13) -0.1808(2)
N2 N -0.3383(5) 0.06868(14) -0.13972(19)
H5 H -0.3010 0.0828 -0.1030
N3 N -0.2624(4) 0.06175(15) -0.24831(18)
N4 N -0.1864(5) 0.06053(14) -0.35749(19)
H6 H -0.2138 0.0745 -0.3954
N5 N -0.0974(5) -0.01398(14) -0.30826(19)
N6 N -0.5174(5) 0.02682(15) -0.0813(2)
N7 N -0.2651(5) 0.16378(15) -0.25503(19)
N8 N -0.0404(5) 0.00814(15) -0.4163(2)
N9 N -0.0670(5) 0.23657(14) -0.1907(2)
N10 N -0.1403(5) 0.31313(14) -0.1487(2)
H7 H -0.1602 0.3284 -0.1124
N11 N -0.2391(4) 0.31178(15) -0.26026(18)
N12 N -0.3413(5) 0.31514(14) -0.37095(19)
H8 H -0.3083 0.3266 -0.4077
N13 N -0.4407(5) 0.24160(14) -0.3276(2)
N14 N 0.0067(5) 0.26085(15) -0.0816(2)
N15 N -0.2285(5) 0.41378(15) -0.25921(19)
N16 N -0.5481(5) 0.27514(16) -0.4291(2)
C1 C -0.5529(6) -0.04270(18) -0.1774(3)
H9 H -0.5661 -0.0667 -0.2110
C2 C -0.6502(6) -0.04444(19) -0.1269(3)
H10 H -0.7331 -0.0686 -0.1254
C3 C -0.6242(7) -0.00974(18) -0.0777(3)
H11 H -0.6843 -0.0121 -0.0402
C4 C -0.4333(6) 0.02736(17) -0.1344(2)
C5 C -0.2965(6) 0.08989(17) -0.1965(2)
C6 C -0.2943(6) 0.14081(17) -0.1998(2)
H12 H -0.3139 0.1596 -0.1622
C7 C -0.2333(6) 0.13624(17) -0.3066(3)
H13 H -0.2129 0.1520 -0.3464
C8 C -0.2295(6) 0.08589(18) -0.3035(2)
C9 C -0.1065(6) 0.01647(17) -0.3601(2)
C10 C 0.0543(6) -0.03134(19) -0.4185(3)
H14 H 0.0984 -0.0394 -0.4585
C11 C 0.0909(6) -0.06124(19) -0.3646(3)
H15 H 0.1690 -0.0869 -0.3651
C12 C 0.0091(6) -0.05188(17) -0.3109(2)
H16 H 0.0272 -0.0726 -0.2739
C13 C 0.0332(6) 0.19784(17) -0.1831(3)
H17 H 0.0438 0.1763 -0.2190
C14 C 0.1211(6) 0.18851(19) -0.1247(3)
H18 H 0.1945 0.1616 -0.1195
C15 C 0.0971(7) 0.22008(19) -0.0743(3)
H19 H 0.1470 0.2126 -0.0322
C16 C -0.0641(6) 0.26855(18) -0.1413(2)
C17 C -0.1897(6) 0.33701(17) -0.2057(2)
C18 C -0.1864(6) 0.38829(17) -0.2051(2)
H20 H -0.1538 0.4052 -0.1657
C19 C -0.2742(6) 0.38929(17) -0.3145(2)
H21 H -0.3004 0.4069 -0.3538
C20 C -0.2832(6) 0.33827(17) -0.3142(2)
C21 C -0.4472(6) 0.27533(17) -0.3756(2)
C22 C -0.6623(7) 0.24000(19) -0.4328(3)
H22 H -0.7359 0.2383 -0.4707
C23 C -0.6770(6) 0.20603(18) -0.3835(3)
H23 H -0.7631 0.1827 -0.3853
C24 C -0.5611(6) 0.20771(18) -0.3318(3)
H24 H -0.5654 0.1842 -0.2978
O20 O -0.4534(4) 0.24495(13) -0.17988(18)
H29 H -0.5408 0.2538 -0.2004
C26 C -0.4635(8) 0.2527(2) -0.1119(3)
H30 H -0.5694 0.2411 -0.0994
H31 H -0.4520 0.2878 -0.1021
H32 H -0.3763 0.2344 -0.0874
O22 O -0.0180(4) 0.48981(13) -0.16495(18)
H37 H 0.0669 0.4982 -0.1820
C28 C 0.0073(8) 0.4941(3) -0.0959(3)
H38 H 0.0919 0.4710 -0.0795
H39 H -0.0944 0.4867 -0.0761
H40 H 0.0417 0.5277 -0.0844
Cu1A Cu -0.26198(7) -0.01140(2) -0.24217(3)
N1A N -0.0630(5) 0.49272(13) -0.3192(2)
N3A N -0.2376(4) 0.56175(15) -0.25169(18)
N5A N -0.4026(5) 0.48602(14) -0.19174(19)
Cl1 Cl 0.27185(16) 0.58309(5) -0.23639(7)
O3 O 0.2518(6) 0.53403(19) -0.2136(4)
O4 O 0.3916(7) 0.5798(2) -0.2845(3)
O5 O 0.1299(6) 0.60476(19) -0.2626(3)
O6 O 0.3532(7) 0.6131(2) -0.1888(3)
Cl2 Cl -0.19497(19) 0.16440(5) -0.48668(7)
O7 O -0.0857(6) 0.12948(17) -0.4554(2)
O8 O -0.3486(5) 0.1617(2) -0.4574(2)
O9 O -0.1315(8) 0.21305(17) -0.4742(2)
O10 O -0.2164(6) 0.15687(16) -0.55494(19)
Cl3 Cl -0.76599(15) 0.32974(5) -0.26662(7)
O11 O -0.7493(5) 0.28068(16) -0.2399(3)
O12 O -0.8349(5) 0.36176(15) -0.2217(2)
O13 O -0.6124(5) 0.34823(16) -0.2818(2)
O14 O -0.8751(6) 0.32680(18) -0.3241(2)
Cl4 Cl 0.08206(16) 0.07809(5) 0.00786(6)
O15 O 0.1815(5) 0.12153(14) 0.01735(19)
O16 O -0.0679(5) 0.08739(17) 0.0371(2)
O17 O 0.1620(5) 0.03734(14) 0.04110(19)
O18 O 0.0553(6) 0.06818(15) -0.06019(18)
O19 O -0.3116(5) 0.14144(15) -0.04094(19)
H25 H -0.2228 0.1412 -0.0178
C25 C -0.4419(9) 0.1457(3) -0.0001(3)
H26 H -0.4053 0.1642 0.0393
H27 H -0.4774 0.1129 0.0122
H28 H -0.5329 0.1630 -0.0236
O21 O -0.1016(5) 0.37794(16) -0.0449(2)
H33 H -0.0206 0.3714 -0.0190
C27 C -0.2382(10) 0.3880(3) -0.0084(4)
H34 H -0.3040 0.4142 -0.0299
H35 H -0.1999 0.3985 0.0358
H36 H -0.3046 0.3583 -0.0060
loop_
_geom_bond_atom_site_label_1
_geom_bond_atom_site_label_2
_geom_bond_site_symmetry_1
_geom_bond_site_symmetry_2
Cu1 O1 1_555 1_555
Cu2 O2 1_555 1_555
O1 H1 1_555 1_555
H2 O1 1_555 1_555
O2 H3 1_555 1_555
H4 O2 1_555 1_555
N1 C1 1_555 1_555
N2 H5 1_555 1_555
N3 C5 1_555 1_555
N4 H6 1_555 1_555
N5 C9 1_555 1_555
N6 C3 1_555 1_555
N7 Cu2 1_555 1_555
N8 C9 1_555 1_555
N9 Cu2 1_555 1_555
N10 H7 1_555 1_555
N11 Cu2 1_555 1_555
N12 H8 1_555 1_555
N13 Cu2 1_555 1_555
N14 C15 1_555 1_555
N15 Cu1 1_555 1_555
N16 C21 1_555 1_555
C1 H9 1_555 1_555
C2 C1 1_555 1_555
H10 C2 1_555 1_555
C3 C2 1_555 1_555
H11 C3 1_555 1_555
C4 N1 1_555 1_555
C5 N2 1_555 1_555
C6 N7 1_555 1_555
H12 C6 1_555 1_555
C7 N7 1_555 1_555
H13 C7 1_555 1_555
C8 N3 1_555 1_555
C9 N4 1_555 1_555
C10 N8 1_555 1_555
H14 C10 1_555 1_555
C11 C10 1_555 1_555
H15 C11 1_555 1_555
C12 N5 1_555 1_555
H16 C12 1_555 1_555
C13 N9 1_555 1_555
H17 C13 1_555 1_555
C14 C13 1_555 1_555
H18 C14 1_555 1_555
C15 C14 1_555 1_555
H19 C15 1_555 1_555
C16 N9 1_555 1_555
C17 N10 1_555 1_555
C18 N15 1_555 1_555
H20 C18 1_555 1_555
C19 N15 1_555 1_555
H21 C19 1_555 1_555
C20 N11 1_555 1_555
C21 N12 1_555 1_555
C22 N16 1_555 1_555
H22 C22 1_555 1_555
C23 C22 1_555 1_555
H23 C23 1_555 1_555
C24 N13 1_555 1_555
H24 C24 1_555 1_555
Cl1 O3 1_555 1_555
O4 Cl1 1_555 1_555
O5 Cl1 1_555 1_555
O6 Cl1 1_555 1_555
Cl2 O7 1_555 1_555
O8 Cl2 1_555 1_555
O9 Cl2 1_555 1_555
O10 Cl2 1_555 1_555
Cl3 O11 1_555 1_555
O12 Cl3 1_555 1_555
O13 Cl3 1_555 1_555
O14 Cl3 1_555 1_555
Cl4 O15 1_555 1_555
O16 Cl4 1_555 1_555
O17 Cl4 1_555 1_555
O18 Cl4 1_555 1_555
O19 H25 1_555 1_555
C25 O19 1_555 1_555
H26 C25 1_555 1_555
H27 C25 1_555 1_555
H28 C25 1_555 1_555
O20 Cu2 1_555 1_555
H29 O20 1_555 1_555
C26 O20 1_555 1_555
H30 C26 1_555 1_555
H31 C26 1_555 1_555
H32 C26 1_555 1_555
O21 H33 1_555 1_555
C27 O21 1_555 1_555
H34 C27 1_555 1_555
H35 C27 1_555 1_555
H36 C27 1_555 1_555
O22 Cu1 1_555 1_555
H37 O22 1_555 1_555
C28 O22 1_555 1_555
H38 C28 1_555 1_555
H39 C28 1_555 1_555
H40 C28 1_555 1_555
Cu1A N1 1_555 1_555
N1A Cu1 1_555 1_555
N3A Cu1 1_555 1_555
N5A Cu1 1_555 1_555
N2 C4 1_555 1_555
N3 Cu1A 1_555 1_555
N4 C8 1_555 1_555
N5 Cu1A 1_555 1_555
N6 C4 1_555 1_555
N10 C16 1_555 1_555
N11 C17 1_555 1_555
N12 C20 1_555 1_555
N13 C21 1_555 1_555
N14 C16 1_555 1_555
C5 C6 1_555 1_555
C7 C8 1_555 1_555
C11 C12 1_555 1_555
C17 C18 1_555 1_555
C19 C20 1_555 1_555
C23 C24 1_555 1_555

#END
