
#######################################################################
#
#                 Cambridge Crystallographic Data Centre
#                                CCDC 
#
#######################################################################
#
# If this CIF has been generated from an entry in the Cambridge 
# Structural Database, then it will include bibliographic, chemical, 
# crystal, experimental, refinement or atomic coordinate data resulting 
# from the CCDC's data processing and validation procedures.
#
#######################################################################

data_HAZZEP
_symmetry_cell_setting           monoclinic
_symmetry_space_group_name_H-M   'P 21/c'
_symmetry_Int_Tables_number      14
_space_group_name_Hall           '-P 2ybc'
loop_
_symmetry_equiv_pos_site_id
_symmetry_equiv_pos_as_xyz
1 x,y,z
2 -x,1/2+y,1/2-z
3 -x,-y,-z
4 x,1/2-y,1/2+z
_cell_length_a                   12.730(3)
_cell_length_b                   8.8693(18)
_cell_length_c                   17.555(4)
_cell_angle_alpha                90
_cell_angle_beta                 101.37(3)
_cell_angle_gamma                90
_cell_volume                     1943.17
loop_
_atom_site_label
_atom_site_type_symbol
_atom_site_fract_x
_atom_site_fract_y
_atom_site_fract_z
Zn1 Zn 0.737316(18) 0.63365(3) 1.037695(13)
O1 O 0.58536(12) 0.6894(2) 1.01114(10)
O2 O 0.45174(13) 0.8300(2) 0.95074(11)
O3 O 0.87799(13) 0.72343(19) 1.07116(10)
O4 O 0.97084(15) 0.9352(2) 1.09317(12)
O5 O 0.68129(16) 0.4964(3) 0.64666(12)
H1 H 0.6300 0.4561 0.6160
O6 O 0.55565(15) 0.5402(3) 0.71410(13)
N1 N 0.73597(15) 0.8471(2) 0.94776(11)
N2 N 0.74553(15) 0.4540(2) 0.96544(10)
N3 N 0.73457(15) -0.0243(2) 0.64191(11)
C1 C 0.54820(16) 0.7992(2) 0.96701(12)
C2 C 0.62475(16) 0.9001(2) 0.93437(13)
H2 H 0.5983 0.9104 0.8777
H3 H 0.6236 1.0016 0.9576
C3 C 0.89508(18) 0.8633(2) 1.05821(13)
C4 C 0.81420(18) 0.9461(2) 0.99728(13)
H4 H 0.7748 1.0190 1.0239
H5 H 0.8534 1.0043 0.9637
C5 C 0.77040(16) 0.7784(2) 0.88372(11)
C6 C 0.69719(16) 0.7043(2) 0.82580(12)
H6 H 0.6234 0.7033 0.8286
C7 C 0.73023(19) 0.6323(2) 0.76432(14)
C8 C 0.64665(19) 0.5529(3) 0.70621(14)
C9 C 0.8374(2) 0.6312(3) 0.75923(15)
H7 H 0.8605 0.5830 0.7171
C10 C 0.90982(18) 0.7021(3) 0.81717(15)
H8 H 0.9836 0.7008 0.8146
C11 C 0.87875(17) 0.7748(3) 0.87862(14)
H9 H 0.9308 0.8223 0.9174
C12 C 0.83527(18) 0.4190(3) 0.94101(14)
H10 H 0.9005 0.4644 0.9662
C13 C 0.83774(18) 0.3199(3) 0.88089(14)
H11 H 0.9035 0.2980 0.8654
C14 C 0.65492(19) 0.3840(2) 0.93199(14)
H12 H 0.5912 0.4038 0.9507
C15 C 0.65087(18) 0.2836(3) 0.87094(13)
H13 H 0.5850 0.2367 0.8483
C16 C 0.74262(17) 0.2518(2) 0.84296(12)
C17 C 0.73991(18) 0.1543(2) 0.77403(14)
C18 C 0.83092(18) 0.0815(3) 0.76075(14)
H14 H 0.8969 0.0915 0.7967
C19 C 0.82498(19) -0.0059(3) 0.69471(14)
H15 H 0.8881 -0.0552 0.6865
C20 C 0.64662(19) 0.0445(3) 0.65491(15)
H16 H 0.5817 0.0318 0.6181
C21 C 0.6455(2) 0.1337(3) 0.71949(16)
H17 H 0.5809 0.1804 0.7265
Zn1C Zn 0.737316(18) -0.13365(3) 0.537695(13)
N3C N 0.73457(15) 0.5243(2) 1.14191(11)
loop_
_geom_bond_atom_site_label_1
_geom_bond_atom_site_label_2
_geom_bond_site_symmetry_1
_geom_bond_site_symmetry_2
Zn1 O1 1_555 1_555
O1 C1 1_555 1_555
O2 C1 1_555 1_555
O3 Zn1 1_555 1_555
O4 C3 1_555 1_555
O5 H1 1_555 1_555
O6 C8 1_555 1_555
N1 Zn1 1_555 1_555
N2 Zn1 1_555 1_555
N3 C19 1_555 1_555
C1 C2 1_555 1_555
C2 N1 1_555 1_555
H2 C2 1_555 1_555
H3 C2 1_555 1_555
C3 O3 1_555 1_555
C4 N1 1_555 1_555
H4 C4 1_555 1_555
H5 C4 1_555 1_555
C5 N1 1_555 1_555
C6 C5 1_555 1_555
H6 C6 1_555 1_555
C7 C6 1_555 1_555
C8 O5 1_555 1_555
C9 C7 1_555 1_555
H7 C9 1_555 1_555
C10 C9 1_555 1_555
H8 C10 1_555 1_555
C11 C5 1_555 1_555
H9 C11 1_555 1_555
C12 N2 1_555 1_555
H10 C12 1_555 1_555
C13 C12 1_555 1_555
H11 C13 1_555 1_555
C14 N2 1_555 1_555
H12 C14 1_555 1_555
C15 C14 1_555 1_555
H13 C15 1_555 1_555
C16 C13 1_555 1_555
C17 C16 1_555 1_555
C18 C17 1_555 1_555
H14 C18 1_555 1_555
C19 C18 1_555 1_555
H15 C19 1_555 1_555
C20 N3 1_555 1_555
H16 C20 1_555 1_555
C21 C17 1_555 1_555
H17 C21 1_555 1_555
Zn1C N3 1_555 1_555
N3C Zn1 1_555 1_555
C3 C4 1_555 1_555
C7 C8 1_555 1_555
C10 C11 1_555 1_555
C15 C16 1_555 1_555
C20 C21 1_555 1_555

#END
