
#######################################################################
#
#                 Cambridge Crystallographic Data Centre
#                                CCDC 
#
#######################################################################
#
# If this CIF has been generated from an entry in the Cambridge 
# Structural Database, then it will include bibliographic, chemical, 
# crystal, experimental, refinement or atomic coordinate data resulting 
# from the CCDC's data processing and validation procedures.
#
#######################################################################

data_HAZZAK
_symmetry_cell_setting           monoclinic
_symmetry_space_group_name_H-M   'P 21/c'
_symmetry_Int_Tables_number      14
_space_group_name_Hall           '-P 2ybc'
loop_
_symmetry_equiv_pos_site_id
_symmetry_equiv_pos_as_xyz
1 x,y,z
2 -x,1/2+y,1/2-z
3 -x,-y,-z
4 x,1/2-y,1/2+z
_cell_length_a                   10.798(10)
_cell_length_b                   7.324(7)
_cell_length_c                   16.919(16)
_cell_angle_alpha                90
_cell_angle_beta                 107.748(13)
_cell_angle_gamma                90
_cell_volume                     1274.35
loop_
_atom_site_label
_atom_site_type_symbol
_atom_site_fract_x
_atom_site_fract_y
_atom_site_fract_z
Ag1 Ag 0.04019(3) -0.19497(6) 0.160690(19)
O1 O -0.1921(3) -0.3225(5) 0.1402(2)
O2 O -0.2211(3) -0.5515(5) 0.21298(18)
O3 O -0.0315(2) -0.4340(4) 0.23703(14)
N1 N 0.1369(3) -0.1536(4) 0.06521(17)
N2 N -0.1506(3) -0.4359(5) 0.19576(19)
C1 C 0.2559(3) -0.0789(5) 0.0892(2)
H1 H 0.2924 -0.0487 0.1448
C2 C 0.3261(4) -0.0449(6) 0.0360(3)
H2 H 0.4084 0.0072 0.0548
C3 C 0.2723(4) -0.0895(7) -0.0454(3)
H3 H 0.3174 -0.0666 -0.0833
C4 C 0.1517(4) -0.1680(6) -0.0713(3)
H4 H 0.1151 -0.1999 -0.1267
C5 C 0.0841(3) -0.2002(4) -0.0153(2)
C6 C -0.0450(3) -0.2826(4) -0.0384(2)
H5 H -0.0836 -0.2956 0.0035
C7 C -0.1127(4) -0.3410(5) -0.1136(2)
H6 H -0.0733 -0.3271 -0.1551
C8 C -0.2411(3) -0.4239(5) -0.1386(2)
C9 C -0.2854(4) -0.5017(6) -0.2164(2)
H7 H -0.2337 -0.4968 -0.2513
C10 C -0.4047(4) -0.5865(6) -0.2433(3)
H8 H -0.4324 -0.6392 -0.2957
C11 C -0.4822(4) -0.5932(6) -0.1932(3)
H9 H -0.5626 -0.6510 -0.2114
C12 C -0.4413(4) -0.5142(6) -0.1156(3)
H10 H -0.4952 -0.5163 -0.0819
C13 C -0.3210(4) -0.4320(5) -0.0877(3)
H11 H -0.2930 -0.3819 -0.0347
Ag1A Ag -0.04019(3) -0.69497(6) 0.339310(19)
O2A O 0.2211(3) -0.0515(5) 0.28702(18)
O3A O 0.0315(2) 0.0660(4) 0.26297(14)
loop_
_geom_bond_atom_site_label_1
_geom_bond_atom_site_label_2
_geom_bond_site_symmetry_1
_geom_bond_site_symmetry_2
Ag1 O1 1_555 1_555
O1 N2 1_555 1_555
O2 N2 1_555 1_555
O3 Ag1 1_555 1_555
N1 Ag1 1_555 1_555
N2 O3 1_555 1_555
C1 N1 1_555 1_555
H1 C1 1_555 1_555
C2 C1 1_555 1_555
H2 C2 1_555 1_555
C3 C2 1_555 1_555
H3 C3 1_555 1_555
C4 C3 1_555 1_555
H4 C4 1_555 1_555
C5 N1 1_555 1_555
C6 C5 1_555 1_555
H5 C6 1_555 1_555
C7 C6 1_555 1_555
H6 C7 1_555 1_555
C8 C7 1_555 1_555
C9 C8 1_555 1_555
H7 C9 1_555 1_555
C10 C9 1_555 1_555
H8 C10 1_555 1_555
C11 C10 1_555 1_555
H9 C11 1_555 1_555
C12 C11 1_555 1_555
H10 C12 1_555 1_555
C13 C8 1_555 1_555
H11 C13 1_555 1_555
Ag1A O2 1_555 1_555
O2A Ag1 1_555 1_555
O3A Ag1 1_555 1_555
O3 Ag1A 1_555 1_555
C4 C5 1_555 1_555
C12 C13 1_555 1_555

#END
