
#######################################################################
#
#                 Cambridge Crystallographic Data Centre
#                                CCDC 
#
#######################################################################
#
# If this CIF has been generated from an entry in the Cambridge 
# Structural Database, then it will include bibliographic, chemical, 
# crystal, experimental, refinement or atomic coordinate data resulting 
# from the CCDC's data processing and validation procedures.
#
#######################################################################

data_HEBBUN
_symmetry_cell_setting           monoclinic
_symmetry_space_group_name_H-M   'P 21/m'
_symmetry_Int_Tables_number      11
_space_group_name_Hall           '-P 2yb'
loop_
_symmetry_equiv_pos_site_id
_symmetry_equiv_pos_as_xyz
1 x,y,z
2 -x,1/2+y,-z
3 -x,-y,-z
4 x,1/2-y,z
_cell_length_a                   7.9517(4)
_cell_length_b                   16.7989(9)
_cell_length_c                   9.1267(5)
_cell_angle_alpha                90
_cell_angle_beta                 91.6780(10)
_cell_angle_gamma                90
_cell_volume                     1218.62
loop_
_atom_site_label
_atom_site_type_symbol
_atom_site_fract_x
_atom_site_fract_y
_atom_site_fract_z
Co1 Co 0.25224(3) -0.086851(17) 0.87703(3)
O1 O 0.25182(19) -0.18379(9) 0.73578(16)
O2 O 0.23435(19) -0.18318(9) 1.02912(16)
O3 O 0.21754(18) 0.00251(9) 1.03359(16)
O4 O 0.01406(19) 0.07692(9) 1.12832(17)
O5 O 0.50911(19) -0.09655(10) 0.91587(18)
H1 H 0.5504 -0.1431 0.9112
H2 H 0.5935 -0.0655 0.9208
N1 N 0.2799(2) -0.00698(11) 0.7016(2)
N2 N 0.4226(3) 0.2500 0.5955(3)
H3 H 0.3616 0.2500 0.5109
C1 C 0.4141(3) 0.10495(14) 0.5892(3)
C2 C 0.3797(3) 0.05755(14) 0.7095(2)
H4 H 0.4282 0.0712 0.8000
C3 C 0.2087(3) -0.02512(14) 0.5707(2)
H5 H 0.1376 -0.0690 0.5640
C4 C 0.2363(3) 0.01834(15) 0.4461(3)
H6 H 0.1848 0.0040 0.3571
C5 C 0.3416(3) 0.08353(15) 0.4552(3)
H7 H 0.3639 0.1130 0.3717
C6 C 0.5249(3) 0.17709(14) 0.6047(3)
H8 H 0.6063 0.1773 0.5276
H9 H 0.5859 0.1754 0.6982
C7 C 0.2494(4) -0.2500 0.7992(3)
C8 C 0.2388(4) -0.2500 0.9686(3)
C9 C 0.0659(3) 0.02317(13) 1.0473(2)
Co1C Co 0.25224(3) -0.413149(17) 0.87703(3)
Co1B Co -0.25224(3) 0.086851(17) 1.12297(3)
Co1C_2 Co 0.25224(3) 0.586851(17) 0.87703(3)
O1C O 0.25182(19) -0.31621(9) 0.73578(16)
O2C O 0.23435(19) -0.31682(9) 1.02912(16)
O3B O -0.21754(18) -0.00251(9) 0.96641(16)
O3C O 0.21754(18) -0.50251(9) 1.03359(16)
O4B O -0.01406(19) -0.07692(9) 0.87168(17)
O4A O -0.01406(19) -0.42308(9) 0.87168(17)
O5C O 0.50911(19) -0.40345(10) 0.91587(18)
H1C H 0.5504 -0.3569 0.9112
H2C H 0.5935 -0.4345 0.9208
N1C N 0.2799(2) 0.50698(11) 0.7016(2)
N1C_2 N 0.2799(2) -0.49302(11) 0.7016(2)
C1C C 0.4141(3) 0.39505(14) 0.5892(3)
C2C C 0.3797(3) 0.44245(14) 0.7095(2)
H4C H 0.4282 0.4288 0.8000
C3C C 0.2087(3) 0.52512(14) 0.5707(2)
H5C H 0.1376 0.5690 0.5640
C4C C 0.2363(3) 0.48166(15) 0.4461(3)
H6C H 0.1848 0.4960 0.3571
C5C C 0.3416(3) 0.41647(15) 0.4552(3)
H7C H 0.3639 0.3870 0.3717
C6C C 0.5249(3) 0.32291(14) 0.6047(3)
H8C H 0.6063 0.3227 0.5276
H9C H 0.5859 0.3246 0.6982
C9B C -0.0659(3) -0.02317(13) 0.9527(2)
O6 O 0.2154(3) 0.2500 0.8242(3)
H10 H 0.1474 0.2123 0.8035
H10C H 0.1474 0.2877 0.8035
O7 O 0.9512(4) 0.2500 0.5179(3)
H11 H 0.9475 0.2027 0.4833
H11C H 0.9475 0.2973 0.4833
O8 O 0.3764(3) 0.2500 0.0807(3)
H12 H 0.2984 0.2500 0.1424
H13 H 0.3261 0.2500 -0.0028
O10 O 0.0267(2) 0.63605(13) 0.2583(2)
H14 H 0.0829 0.6697 0.3093
H15 H 0.0684 0.6379 0.1736
O9? O 0.1563(4) 0.2834(2) 0.2887(4)
loop_
_geom_bond_atom_site_label_1
_geom_bond_atom_site_label_2
_geom_bond_site_symmetry_1
_geom_bond_site_symmetry_2
Co1 O1 1_555 1_555
O1 C7 1_555 1_555
O2 Co1 1_555 1_555
O3 Co1 1_555 1_555
O4 C9 1_555 1_555
O5 Co1 1_555 1_555
H1 O5 1_555 1_555
H2 O5 1_555 1_555
N1 Co1 1_555 1_555
N2 H3 1_555 1_555
C1 C2 1_555 1_555
C2 N1 1_555 1_555
H4 C2 1_555 1_555
C3 N1 1_555 1_555
H5 C3 1_555 1_555
C4 C3 1_555 1_555
H6 C4 1_555 1_555
C5 C1 1_555 1_555
H7 C5 1_555 1_555
C6 N2 1_555 1_555
H8 C6 1_555 1_555
H9 C6 1_555 1_555
C7 C8 1_555 1_555
C8 O2 1_555 1_555
C9 O3 1_555 1_555
O6 H10 1_555 1_555
O7 H11 1_555 1_555
O8 H12 1_555 1_555
H13 O8 1_555 1_555
O10 H14 1_555 1_555
H15 O10 1_555 1_555
Co1C O1C 1_555 1_555
Co1B O4 1_555 1_555
Co1C_2 N1C 1_555 1_555
O1C C7 1_555 1_555
O2C C8 1_555 1_555
O3B Co1B 1_555 1_555
O3C Co1C 1_555 1_555
O4B Co1 1_555 1_555
O4A Co1C 1_555 1_555
O5C Co1C 1_555 1_555
H1C O5C 1_555 1_555
H2C O5C 1_555 1_555
N1C C2C 1_555 1_555
N1C_2 Co1C 1_555 1_555
C1C C2C 1_555 1_555
C2C H4C 1_555 1_555
C3C N1C 1_555 1_555
H5C C3C 1_555 1_555
C4C C3C 1_555 1_555
H6C C4C 1_555 1_555
C5C C1C 1_555 1_555
H7C C5C 1_555 1_555
C6C N2 1_555 1_555
H8C C6C 1_555 1_555
H9C C6C 1_555 1_555
C9B C9 1_555 1_555
H10C O6 1_555 1_555
H11C O7 1_555 1_555
C1 C6 1_555 1_555
C4 C5 1_555 1_555
Co1C O2C 1_555 1_555
O3B C9B 1_555 1_555
O4B C9B 1_555 1_555
C1C C6C 1_555 1_555
C4C C5C 1_555 1_555

#END
