
#######################################################################
#
#                 Cambridge Crystallographic Data Centre
#                                CCDC 
#
#######################################################################
#
# If this CIF has been generated from an entry in the Cambridge 
# Structural Database, then it will include bibliographic, chemical, 
# crystal, experimental, refinement or atomic coordinate data resulting 
# from the CCDC's data processing and validation procedures.
#
#######################################################################

data_HEBBIB
_symmetry_cell_setting           triclinic
_symmetry_space_group_name_H-M   'P -1'
_symmetry_Int_Tables_number      2
_space_group_name_Hall           '-P 1'
loop_
_symmetry_equiv_pos_site_id
_symmetry_equiv_pos_as_xyz
1 x,y,z
2 -x,-y,-z
_cell_length_a                   7.5183(11)
_cell_length_b                   8.5521(13)
_cell_length_c                   9.5333(15)
_cell_angle_alpha                110.088(2)
_cell_angle_beta                 100.081(2)
_cell_angle_gamma                94.882(2)
_cell_volume                     559.754
loop_
_atom_site_label
_atom_site_type_symbol
_atom_site_fract_x
_atom_site_fract_y
_atom_site_fract_z
Mn1 Mn 0.38501(3) 0.63821(3) 1.13025(3)
Mn2 Mn 0.0000 -0.5000 0.5000
O1 O 0.40205(17) 0.37398(14) 1.02343(15)
O2 O 0.16132(19) 0.22854(16) 1.05756(15)
O3 O 0.73091(19) -0.08484(16) 0.54732(16)
O4 O 0.74867(18) 0.18405(15) 0.70063(15)
O5 O 0.21466(17) -0.37514(14) 0.70473(13)
N1 N 0.47622(19) 0.11067(17) 0.81995(16)
C1 C 0.3366(2) 0.0811(2) 0.88292(19)
C2 C 0.2424(2) -0.0788(2) 0.8477(2)
H1 H 0.1448 -0.0942 0.8921
C3 C 0.2977(2) -0.2183(2) 0.74272(19)
C4 C 0.4456(2) -0.1846(2) 0.67991(19)
H2 H 0.4878 -0.2729 0.6121
C5 C 0.5285(2) -0.0203(2) 0.71890(19)
C6 C 0.2929(2) 0.2383(2) 0.99713(19)
C7 C 0.6826(2) 0.0282(2) 0.64995(19)
O6 O 0.14334(18) 0.59230(18) 0.95826(15)
H3 H 0.1708 0.6029 0.8821
O7 O 0.54582(18) 0.60792(15) 1.33442(14)
H4 H 0.5974 0.7005 1.3963
O8 O 0.20739(19) -0.56151(18) 0.36067(16)
H5 H 0.1605 -0.6360 0.2779
O9 O 0.0052(2) -0.72760(16) 0.55344(17)
H6 H 0.0594 -0.7924 0.4970
H7 H 0.056(3) 0.642(3) 0.981(3)
H8 H 0.621(3) 0.540(2) 1.316(3)
H9 H 0.302(2) -0.505(2) 0.364(2)
H10 H -0.062(3) -0.765(3) 0.595(3)
Mn1A Mn -0.38501(3) -1.63821(3) -0.13025(3)
Mn1_2 Mn -0.61499(3) -1.36179(3) 0.13025(3)
Mn1A_2 Mn 0.61499(3) 0.36179(3) 0.86975(3)
O1A O -0.40205(17) -1.37398(14) -0.02343(15)
O1_2 O -0.59795(17) -1.62602(14) 0.02343(15)
O1A_2 O 0.59795(17) 0.62602(14) 0.97657(15)
O2A O -0.16132(19) -1.22854(16) -0.05756(15)
O3A O -0.73091(19) -0.91516(16) 0.45268(16)
O4A O -0.74867(18) -1.18405(15) 0.29937(15)
O4_2 O -0.25133(18) -1.81595(15) -0.29937(15)
O4A_2 O 0.25133(18) 0.81595(15) 1.29937(15)
O5A O -0.21466(17) -0.62486(14) 0.29527(13)
N1A N -0.47622(19) -1.11067(17) 0.18005(16)
N1_2 N -0.52378(19) -1.88933(17) -0.18005(16)
N1A_2 N 0.52378(19) 0.88933(17) 1.18005(16)
C1A C -0.3366(2) -1.0811(2) 0.11708(19)
C2A C -0.2424(2) -0.9212(2) 0.1523(2)
H1A H -0.1448 -0.9058 0.1079
C3A C -0.2977(2) -0.7817(2) 0.25728(19)
C4A C -0.4456(2) -0.8154(2) 0.32009(19)
H2A H -0.4878 -0.7271 0.3879
C5A C -0.5285(2) -0.9797(2) 0.28110(19)
C6A C -0.2929(2) -1.2383(2) 0.00287(19)
C7A C -0.6826(2) -1.0282(2) 0.35005(19)
O6A O -0.14334(18) -1.59230(18) 0.04174(15)
H3A H -0.1708 -1.6029 0.1179
O7A O -0.54582(18) -1.60792(15) -0.33442(14)
H4A H -0.5974 -1.7005 -0.3963
O8A O -0.20739(19) -0.43849(18) 0.63933(16)
H5A H -0.1605 -0.3640 0.7221
O9A O -0.0052(2) -0.27240(16) 0.44656(17)
H6A H -0.0594 -0.2076 0.5030
H7A H -0.056(3) -1.642(3) 0.019(3)
H8A H -0.621(3) -1.540(2) -0.316(3)
H9A H -0.302(2) -0.495(2) 0.636(2)
H10A H 0.062(3) -0.235(3) 0.405(3)
loop_
_geom_bond_atom_site_label_1
_geom_bond_atom_site_label_2
_geom_bond_site_symmetry_1
_geom_bond_site_symmetry_2
Mn1 O1 1_555 1_555
Mn2 O5 1_555 1_555
O1 C6 1_555 1_555
O2 C6 1_555 1_555
O3 C7 1_555 1_555
O4 C7 1_555 1_555
O5 C3 1_555 1_555
N1 C1 1_555 1_555
C1 C2 1_555 1_555
C2 H1 1_555 1_555
C3 C2 1_555 1_555
C4 C3 1_555 1_555
H2 C4 1_555 1_555
C5 N1 1_555 1_555
C6 C1 1_555 1_555
C7 C5 1_555 1_555
O6 Mn1 1_555 1_555
H3 O6 1_555 1_555
O7 Mn1 1_555 1_555
H4 O7 1_555 1_555
O8 Mn2 1_555 1_555
H5 O8 1_555 1_555
O9 Mn2 1_555 1_555
H6 O9 1_555 1_555
H7 O6 1_555 1_555
H8 O7 1_555 1_555
H9 O8 1_555 1_555
H10 O9 1_555 1_555
Mn1A O1A 1_555 1_555
Mn1_2 O1A 1_555 1_555
Mn1A_2 O1 1_555 1_555
O1A C6A 1_555 1_555
O1_2 Mn1A 1_555 1_555
O1A_2 Mn1 1_555 1_555
O2A C6A 1_555 1_555
O3A C7A 1_555 1_555
O4A Mn1_2 1_555 1_555
O4_2 Mn1A 1_555 1_555
O4A_2 Mn1 1_555 1_555
O5A Mn2 1_555 1_555
N1A Mn1_2 1_555 1_555
N1_2 Mn1A 1_555 1_555
N1A_2 Mn1 1_555 1_555
C1A N1A 1_555 1_555
C2A C1A 1_555 1_555
H1A C2A 1_555 1_555
C3A O5A 1_555 1_555
C4A C3A 1_555 1_555
H2A C4A 1_555 1_555
C5A N1A 1_555 1_555
C6A C1A 1_555 1_555
C7A O4A 1_555 1_555
O6A Mn1A 1_555 1_555
H3A O6A 1_555 1_555
O7A Mn1A 1_555 1_555
H4A O7A 1_555 1_555
O8A Mn2 1_555 1_555
H5A O8A 1_555 1_555
O9A Mn2 1_555 1_555
H6A O9A 1_555 1_555
H7A O6A 1_555 1_555
H8A O7A 1_555 1_555
H9A O8A 1_555 1_555
H10A O9A 1_555 1_555
O4 Mn1A_2 1_555 1_555
N1 Mn1A_2 1_555 1_555
C4 C5 1_555 1_555
Mn1_2 O1_2 1_555 1_555
Mn1A_2 O1A_2 1_555 1_555
C2A C3A 1_555 1_555
C4A C5A 1_555 1_555
C5A C7A 1_555 1_555

#END
