
#######################################################################
#
#                 Cambridge Crystallographic Data Centre
#                                CCDC 
#
#######################################################################
#
# If this CIF has been generated from an entry in the Cambridge 
# Structural Database, then it will include bibliographic, chemical, 
# crystal, experimental, refinement or atomic coordinate data resulting 
# from the CCDC's data processing and validation procedures.
#
#######################################################################

data_HEBCIC
_symmetry_cell_setting           monoclinic
_symmetry_space_group_name_H-M   'P 21/c'
_symmetry_Int_Tables_number      14
_space_group_name_Hall           '-P 2ybc'
loop_
_symmetry_equiv_pos_site_id
_symmetry_equiv_pos_as_xyz
1 x,y,z
2 -x,1/2+y,1/2-z
3 -x,-y,-z
4 x,1/2-y,1/2+z
_cell_length_a                   12.9651(2)
_cell_length_b                   23.2702(4)
_cell_length_c                   6.70330(10)
_cell_angle_alpha                90
_cell_angle_beta                 93.3790(10)
_cell_angle_gamma                90
_cell_volume                     2018.87
loop_
_atom_site_label
_atom_site_type_symbol
_atom_site_fract_x
_atom_site_fract_y
_atom_site_fract_z
Co1 Co 0.05865(2) 0.706233(14) 0.21081(5)
C1 C 0.4692(2) 0.63221(12) 0.8742(4)
C2 C 0.6524(2) 0.65036(12) 0.9467(4)
C3 C 0.5660(2) 0.69083(11) 0.6490(4)
C4 C 0.38522(19) 0.66562(12) 0.5620(4)
H1 H 0.3509 0.6286 0.5623
H2 H 0.4072 0.6724 0.4283
C5 C 0.3092(2) 0.71187(12) 0.6137(4)
H3 H 0.3427 0.7491 0.6074
H4 H 0.2898 0.7061 0.7498
C6 C 0.21280(19) 0.71197(11) 0.4751(4)
C7 C 0.5545(2) 0.60212(12) 1.1957(4)
H5 H 0.4829 0.5983 1.2276
H6 H 0.5879 0.6281 1.2926
C8 C 0.6060(3) 0.54403(14) 1.2149(5)
H7 H 0.6709 0.5449 1.1497
H8 H 0.5620 0.5153 1.1485
C9 C 0.6262(3) 0.52784(13) 1.4318(5)
C10 C 0.7514(2) 0.70729(12) 0.7197(4)
H9 H 0.7950 0.7124 0.8411
H10 H 0.7370 0.7450 0.6630
C11 C 0.80889(19) 0.67168(11) 0.5721(4)
H11 H 0.8165 0.6327 0.6224
H12 H 0.7683 0.6701 0.4459
C12 C 0.91488(19) 0.69580(11) 0.5364(4)
C13 C 0.1015(2) 0.62575(12) -0.1294(4)
H13 H 0.1604 0.6484 -0.1334
C14 C 0.0872(2) 0.58312(12) -0.2683(4)
H14 H 0.1353 0.5776 -0.3641
C15 C 0.0007(2) 0.54803(11) -0.2660(4)
C16 C -0.0658(2) 0.55813(13) -0.1144(4)
H15 H -0.1238 0.5350 -0.1035
C17 C -0.0461(2) 0.60226(12) 0.0198(4)
H16 H -0.0918 0.6081 0.1198
C18 C -0.0229(2) 0.50315(13) -0.4149(4)
H17 H -0.0744 0.4769 -0.3879
N1 N 0.47674(16) 0.66389(9) 0.7028(3)
N2 N 0.55858(16) 0.62750(10) 0.9944(3)
N3 N 0.65325(16) 0.67993(9) 0.7698(3)
N4 N 0.03539(16) 0.63689(9) 0.0126(3)
O1 O 0.38810(16) 0.61082(10) 0.9167(3)
O2 O 0.72838(15) 0.64507(10) 1.0591(3)
O3 O 0.56672(16) 0.72100(9) 0.5016(3)
O4 O 0.20053(14) 0.67414(8) 0.3426(3)
O5 O 0.14709(13) 0.75159(8) 0.4868(3)
O6 O 0.5910(2) 0.55259(11) 1.5684(3)
O7 O 0.6865(2) 0.48281(11) 1.4541(3)
O8 O 0.94276(14) 0.73928(8) 0.6363(3)
O9 O 0.96587(14) 0.67031(8) 0.4100(3)
Co1B Co -0.05865(2) 0.293767(14) -1.21081(5)
Co1C Co 0.05865(2) 0.793767(14) 0.71081(5)
Co1C_2 Co 1.05865(2) 0.793767(14) 0.71081(5)
Co1_2 Co 1.05865(2) 0.706233(14) 0.21081(5)
Co1C_3 Co 0.05865(2) 0.793767(14) -0.28919(5)
Co1C_4 Co 1.05865(2) 0.793767(14) -0.28919(5)
C1C C 0.4692(2) 0.86779(12) 0.3742(4)
C2C C 0.6524(2) 0.84964(12) 0.4467(4)
C3C C 0.5660(2) 0.80917(11) 0.1490(4)
C4C C 0.38522(19) 0.83438(12) 0.0620(4)
H1C H 0.3509 0.8714 0.0623
H2C H 0.4072 0.8276 -0.0717
C5C C 0.3092(2) 0.78813(12) 0.1137(4)
H3C H 0.3427 0.7509 0.1074
H4C H 0.2898 0.7939 0.2498
C6C C 0.21280(19) 0.78803(11) -0.0249(4)
C7C C 0.5545(2) 0.89788(12) 0.6957(4)
H5C H 0.4829 0.9017 0.7276
H6C H 0.5879 0.8719 0.7926
C8C C 0.6060(3) 0.95597(14) 0.7149(5)
H7C H 0.6709 0.9551 0.6497
H8C H 0.5620 0.9847 0.6485
C9C C 0.6262(3) 0.97216(13) 0.9318(5)
C10C C 0.7514(2) 0.79271(12) 0.2197(4)
H9C H 0.7950 0.7876 0.3411
H10C H 0.7370 0.7550 0.1630
C11C C 0.80889(19) 0.82832(11) 0.0721(4)
H11C H 0.8165 0.8673 0.1224
H12C H 0.7683 0.8299 -0.0541
C12C C 0.91488(19) 0.80420(11) 0.0364(4)
C13B C -0.1015(2) 0.37425(12) -0.8706(4)
H13B H -0.1604 0.3516 -0.8666
C14B C -0.0872(2) 0.41688(12) -0.7317(4)
H14B H -0.1353 0.4224 -0.6359
C15B C -0.0007(2) 0.45197(11) -0.7340(4)
C16B C 0.0658(2) 0.44187(13) -0.8856(4)
H15B H 0.1238 0.4650 -0.8965
C17B C 0.0461(2) 0.39774(12) -1.0198(4)
H16B H 0.0918 0.3919 -1.1198
C18B C 0.0229(2) 0.49685(13) -0.5851(4)
H17B H 0.0744 0.5231 -0.6121
N1C N 0.47674(16) 0.83611(9) 0.2028(3)
N2C N 0.55858(16) 0.87250(10) 0.4944(3)
N3C N 0.65325(16) 0.82007(9) 0.2698(3)
N4B N -0.03539(16) 0.36311(9) -1.0126(3)
O1C O 0.38810(16) 0.88918(10) 0.4167(3)
O2C O 0.72838(15) 0.85493(10) 0.5591(3)
O3C O 0.56672(16) 0.77900(9) 0.0016(3)
O4C O 0.20053(14) 0.82586(8) -0.1574(3)
O4B O -0.20053(14) 0.32586(8) -1.3426(3)
O5C O 0.14709(13) 0.74841(8) -0.0132(3)
O5B O -0.14709(13) 0.24841(8) -1.4868(3)
O5A O -0.14709(13) 0.25159(8) -0.9868(3)
O6C O 0.5910(2) 0.94741(11) 1.0684(3)
O7C O 0.6865(2) 1.01719(11) 0.9541(3)
O8C O 0.94276(14) 0.76072(8) 0.1363(3)
O8C_2 O -0.05724(14) 0.76072(8) 0.1363(3)
O8A O 0.05724(14) 0.23928(8) -1.1363(3)
O9C O 0.96587(14) 0.82969(8) -0.0900(3)
O9_2 O -0.03413(14) 0.67031(8) 0.4100(3)
O9B O 0.03413(14) 0.32969(8) -1.4100(3)
O10 O 0.25990(18) 0.56448(9) 0.2023(3)
H18 H 0.3109 0.5621 0.2876
H19 H 0.2495 0.5382 0.1153
loop_
_geom_bond_atom_site_label_1
_geom_bond_atom_site_label_2
_geom_bond_site_symmetry_1
_geom_bond_site_symmetry_2
Co1 N4 1_555 1_555
C1 N1 1_555 1_555
C2 N2 1_555 1_555
C3 N1 1_555 1_555
C4 H1 1_555 1_555
H2 C4 1_555 1_555
C5 C4 1_555 1_555
H3 C5 1_555 1_555
H4 C5 1_555 1_555
C6 C5 1_555 1_555
C7 H5 1_555 1_555
H6 C7 1_555 1_555
C8 C7 1_555 1_555
H7 C8 1_555 1_555
H8 C8 1_555 1_555
C9 C8 1_555 1_555
C10 H9 1_555 1_555
H10 C10 1_555 1_555
C11 C10 1_555 1_555
H11 C11 1_555 1_555
H12 C11 1_555 1_555
C12 C11 1_555 1_555
C13 H13 1_555 1_555
C14 C13 1_555 1_555
H14 C14 1_555 1_555
C15 C14 1_555 1_555
C16 C15 1_555 1_555
H15 C16 1_555 1_555
C17 C16 1_555 1_555
H16 C17 1_555 1_555
C18 C15 1_555 1_555
H17 C18 1_555 1_555
N1 C4 1_555 1_555
N2 C1 1_555 1_555
N3 C2 1_555 1_555
N4 C13 1_555 1_555
O1 C1 1_555 1_555
O2 C2 1_555 1_555
O3 C3 1_555 1_555
O4 Co1 1_555 1_555
O5 Co1 1_555 1_555
O6 C9 1_555 1_555
O7 C9 1_555 1_555
O8 C12 1_555 1_555
O9 C12 1_555 1_555
O10 H18 1_555 1_555
H19 O10 1_555 1_555
Co1B N4B 1_555 1_555
Co1C O5 1_555 1_555
Co1C_2 O8 1_555 1_555
Co1_2 O9 1_555 1_555
Co1C_3 O4C 1_555 1_555
Co1C_4 O9C 1_555 1_555
C1C N1C 1_555 1_555
C2C N2C 1_555 1_555
C3C N1C 1_555 1_555
C4C H1C 1_555 1_555
H2C C4C 1_555 1_555
C5C C4C 1_555 1_555
H3C C5C 1_555 1_555
H4C C5C 1_555 1_555
C6C C5C 1_555 1_555
C7C H5C 1_555 1_555
H6C C7C 1_555 1_555
C8C C7C 1_555 1_555
H7C C8C 1_555 1_555
H8C C8C 1_555 1_555
C9C C8C 1_555 1_555
C10C H9C 1_555 1_555
H10C C10C 1_555 1_555
C11C C10C 1_555 1_555
H11C C11C 1_555 1_555
H12C C11C 1_555 1_555
C12C C11C 1_555 1_555
C13B H13B 1_555 1_555
C14B C13B 1_555 1_555
H14B C14B 1_555 1_555
C15B C14B 1_555 1_555
C16B C15B 1_555 1_555
H15B C16B 1_555 1_555
C17B C16B 1_555 1_555
H16B C17B 1_555 1_555
C18B C18 1_555 1_555
H17B C18B 1_555 1_555
N1C C4C 1_555 1_555
N2C C1C 1_555 1_555
N3C C2C 1_555 1_555
N4B C13B 1_555 1_555
O1C C1C 1_555 1_555
O2C C2C 1_555 1_555
O3C C3C 1_555 1_555
O4C C6C 1_555 1_555
O4B Co1B 1_555 1_555
O5C Co1 1_555 1_555
O5B Co1B 1_555 1_555
O5A Co1B 1_555 1_555
O6C C9C 1_555 1_555
O7C C9C 1_555 1_555
O8C Co1_2 1_555 1_555
O8C_2 Co1 1_555 1_555
O8A Co1B 1_555 1_555
O9C C12C 1_555 1_555
O9_2 Co1 1_555 1_555
O9B Co1B 1_555 1_555
C3 N3 1_555 1_555
C6 O4 1_555 1_555
C6 O5 1_555 1_555
C7 N2 1_555 1_555
C10 N3 1_555 1_555
C17 N4 1_555 1_555
Co1C_3 O5C 1_555 1_555
C3C N3C 1_555 1_555
C6C O5C 1_555 1_555
C7C N2C 1_555 1_555
C10C N3C 1_555 1_555
C12C O8C 1_555 1_555
C15B C18B 1_555 1_555
C17B N4B 1_555 1_555

#END
