
#######################################################################
#
#                 Cambridge Crystallographic Data Centre
#                                CCDC 
#
#######################################################################
#
# If this CIF has been generated from an entry in the Cambridge 
# Structural Database, then it will include bibliographic, chemical, 
# crystal, experimental, refinement or atomic coordinate data resulting 
# from the CCDC's data processing and validation procedures.
#
#######################################################################

data_HEBCAU
_symmetry_cell_setting           monoclinic
_symmetry_space_group_name_H-M   'P 21/m'
_symmetry_Int_Tables_number      11
_space_group_name_Hall           '-P 2yb'
loop_
_symmetry_equiv_pos_site_id
_symmetry_equiv_pos_as_xyz
1 x,y,z
2 -x,1/2+y,-z
3 -x,-y,-z
4 x,1/2-y,z
_cell_length_a                   8.0082(5)
_cell_length_b                   16.7297(10)
_cell_length_c                   9.2229(5)
_cell_angle_alpha                90
_cell_angle_beta                 91.6240(10)
_cell_angle_gamma                90
_cell_volume                     1235.14
loop_
_atom_site_label
_atom_site_type_symbol
_atom_site_fract_x
_atom_site_fract_y
_atom_site_fract_z
Zn1 Zn 0.25036(3) -0.085585(13) 0.37471(2)
O1 O 0.24956(19) -0.18371(8) 0.23558(15)
O2 O 0.23290(19) -0.18308(8) 0.52523(15)
O3 O 0.21588(17) 0.00058(8) 0.53294(15)
O4 O 0.01702(18) 0.07439(8) 0.63128(16)
O5 O 0.50870(19) -0.09446(9) 0.41705(19)
H1 H 0.5789 -0.0566 0.4109
H2 H 0.5663 -0.1371 0.4135
N1 N 0.2812(2) -0.00795(10) 0.19891(18)
N2 N 0.4212(3) 0.2500 0.0997(3)
H5 H 0.3634 0.2500 0.0146
C1 C 0.4128(3) 0.10480(13) 0.0902(2)
C2 C 0.3795(3) 0.05677(12) 0.2070(2)
H6 H 0.4280 0.0700 0.2967
C3 C 0.2097(3) -0.02567(13) 0.0697(2)
H7 H 0.1393 -0.0698 0.0627
C4 C 0.2362(3) 0.01842(15) -0.0520(3)
H8 H 0.1845 0.0046 -0.1400
C5 C 0.3406(3) 0.08363(14) -0.0424(3)
H9 H 0.3627 0.1134 -0.1249
C6 C 0.5231(3) 0.17719(13) 0.1060(3)
H10 H 0.6028 0.1780 0.0288
H11 H 0.5848 0.1749 0.1979
C7 C 0.2470(3) -0.2500 0.2979(3)
C8 C 0.2370(3) -0.2500 0.4654(3)
C9 C 0.0664(2) 0.02226(11) 0.5482(2)
Zn1C Zn 0.25036(3) -0.414415(13) 0.37471(2)
Zn1B Zn -0.25036(3) 0.085585(13) 0.62529(2)
Zn1C_2 Zn 0.25036(3) 0.585585(13) 0.37471(2)
O1C O 0.24956(19) -0.31629(8) 0.23558(15)
O2C O 0.23290(19) -0.31692(8) 0.52523(15)
O3B O -0.21588(17) -0.00058(8) 0.46706(15)
O3C O 0.21588(17) -0.50058(8) 0.53294(15)
O4B O -0.01702(18) -0.07439(8) 0.36872(16)
O4A O -0.01702(18) -0.42561(8) 0.36872(16)
O5C O 0.50870(19) -0.40554(9) 0.41705(19)
H1C H 0.5789 -0.4434 0.4109
H2C H 0.5663 -0.3629 0.4135
N1C N 0.2812(2) 0.50795(10) 0.19891(18)
N1C_2 N 0.2812(2) -0.49205(10) 0.19891(18)
C1C C 0.4128(3) 0.39520(13) 0.0902(2)
C2C C 0.3795(3) 0.44323(12) 0.2070(2)
H6C H 0.4280 0.4300 0.2967
C3C C 0.2097(3) 0.52567(13) 0.0697(2)
H7C H 0.1393 0.5698 0.0627
C4C C 0.2362(3) 0.48158(15) -0.0520(3)
H8C H 0.1845 0.4954 -0.1400
C5C C 0.3406(3) 0.41637(14) -0.0424(3)
H9C H 0.3627 0.3866 -0.1249
C6C C 0.5231(3) 0.32281(13) 0.1060(3)
H10C H 0.6028 0.3220 0.0288
H11C H 0.5848 0.3251 0.1979
C9B C -0.0664(2) -0.02226(11) 0.4518(2)
O6 O 0.9724(3) 0.36462(13) 0.2458(2)
H3 H 0.9002 0.3497 0.3060
H4 H 0.9846 0.3249 0.1896
O8 O 0.0499(4) 0.7500 0.9794(3)
O9 O 0.2169(3) 0.2500 0.3277(3)
H13 H 0.1480 0.2127 0.3075
H13C H 0.1480 0.2873 0.3075
O10 O 0.3795(3) 0.2500 0.5822(3)
H14 H 0.2984 0.2500 0.6398
H15 H 0.3344 0.2500 0.4977
O7? O 0.1545(5) 0.2830(2) 0.7855(5)
H12? H -0.0066 0.7615 1.0577
loop_
_geom_bond_atom_site_label_1
_geom_bond_atom_site_label_2
_geom_bond_site_symmetry_1
_geom_bond_site_symmetry_2
Zn1 O1 1_555 1_555
O1 C7 1_555 1_555
O2 Zn1 1_555 1_555
O3 Zn1 1_555 1_555
O4 C9 1_555 1_555
O5 Zn1 1_555 1_555
H1 O5 1_555 1_555
H2 O5 1_555 1_555
O6 H3 1_555 1_555
H4 O6 1_555 1_555
N1 Zn1 1_555 1_555
N2 H5 1_555 1_555
C1 C2 1_555 1_555
C2 N1 1_555 1_555
H6 C2 1_555 1_555
C3 N1 1_555 1_555
H7 C3 1_555 1_555
C4 C3 1_555 1_555
H8 C4 1_555 1_555
C5 C1 1_555 1_555
H9 C5 1_555 1_555
C6 N2 1_555 1_555
H10 C6 1_555 1_555
H11 C6 1_555 1_555
C7 C8 1_555 1_555
C8 O2 1_555 1_555
C9 O3 1_555 1_555
O9 H13 1_555 1_555
O10 H14 1_555 1_555
H15 O10 1_555 1_555
Zn1C O1C 1_555 1_555
Zn1B O4 1_555 1_555
Zn1C_2 N1C 1_555 1_555
O1C C7 1_555 1_555
O2C C8 1_555 1_555
O3B Zn1B 1_555 1_555
O3C Zn1C 1_555 1_555
O4B Zn1 1_555 1_555
O4A Zn1C 1_555 1_555
O5C Zn1C 1_555 1_555
H1C O5C 1_555 1_555
H2C O5C 1_555 1_555
N1C C2C 1_555 1_555
N1C_2 Zn1C 1_555 1_555
C1C C2C 1_555 1_555
C2C H6C 1_555 1_555
C3C N1C 1_555 1_555
H7C C3C 1_555 1_555
C4C C3C 1_555 1_555
H8C C4C 1_555 1_555
C5C C1C 1_555 1_555
H9C C5C 1_555 1_555
C6C N2 1_555 1_555
H10C C6C 1_555 1_555
H11C C6C 1_555 1_555
C9B C9 1_555 1_555
H13C O9 1_555 1_555
C1 C6 1_555 1_555
C4 C5 1_555 1_555
Zn1C O2C 1_555 1_555
O3B C9B 1_555 1_555
O4B C9B 1_555 1_555
C1C C6C 1_555 1_555
C4C C5C 1_555 1_555

#END
