
#######################################################################
#
#                 Cambridge Crystallographic Data Centre
#                                CCDC 
#
#######################################################################
#
# If this CIF has been generated from an entry in the Cambridge 
# Structural Database, then it will include bibliographic, chemical, 
# crystal, experimental, refinement or atomic coordinate data resulting 
# from the CCDC's data processing and validation procedures.
#
#######################################################################

data_HEBDAV
_symmetry_cell_setting           monoclinic
_symmetry_space_group_name_H-M   'P 21/n'
_symmetry_Int_Tables_number      14
_space_group_name_Hall           '-P 2yn'
loop_
_symmetry_equiv_pos_site_id
_symmetry_equiv_pos_as_xyz
1 x,y,z
2 1/2-x,1/2+y,1/2-z
3 -x,-y,-z
4 1/2+x,1/2-y,1/2+z
_cell_length_a                   5.8923(2)
_cell_length_b                   11.6203(7)
_cell_length_c                   11.5941(5)
_cell_angle_alpha                90
_cell_angle_beta                 99.551(4)
_cell_angle_gamma                90
_cell_volume                     782.847
loop_
_atom_site_label
_atom_site_type_symbol
_atom_site_fract_x
_atom_site_fract_y
_atom_site_fract_z
Ag1 Ag 0.14346(6) 0.18444(4) 0.33706(3)
C1 C -0.0728(8) 0.2079(4) 0.0654(4)
C2 C 0.0393(7) 0.1333(4) -0.0977(4)
C3 C 0.2510(7) 0.0990(4) 0.0798(4)
C4 C -0.2508(8) 0.0804(4) 0.4428(4)
C5 C -0.4597(8) 0.0100(4) 0.4503(4)
H1 H -0.5386 -0.0219 0.3817
N1 N 0.1077(6) 0.1599(3) 0.1354(3)
N2 N -0.1083(6) 0.2027(3) -0.0526(3)
N3 N 0.2178(6) 0.0802(3) -0.0359(3)
N4 N -0.2221(7) 0.2660(4) 0.1158(3)
H2 H -0.2022 0.2720 0.1908
H3 H -0.3393 0.2978 0.0738
N5 N 0.0055(7) 0.1187(4) -0.2140(3)
H4 H 0.0980 0.0762 -0.2454
H5 H -0.1087 0.1518 -0.2572
N6 N 0.4354(7) 0.0510(4) 0.1427(3)
H6 H 0.5269 0.0102 0.1090
H7 H 0.4633 0.0608 0.2172
O1 O -0.1999(6) 0.0923(3) 0.3415(3)
O2 O -0.1431(6) 0.1239(3) 0.5329(3)
Ag1B Ag -1.14346(6) -0.18444(4) 0.66294(3)
Ag1A Ag -0.64346(6) -0.31556(4) 1.16294(3)
Ag1C Ag -0.35654(6) 0.31556(4) -0.16294(3)
C1B C -0.9272(8) -0.2079(4) 0.9346(4)
C2B C -1.0393(7) -0.1333(4) 1.0977(4)
C3B C -1.2510(7) -0.0990(4) 0.9202(4)
C4B C -0.7492(8) -0.0804(4) 0.5572(4)
C5B C -0.5403(8) -0.0100(4) 0.5497(4)
H1B H -0.4614 0.0219 0.6183
N1B N -1.1077(6) -0.1599(3) 0.8646(3)
N2B N -0.8917(6) -0.2027(3) 1.0526(3)
N2A N -1.3917(6) -0.2973(3) 0.5526(3)
N2C N 0.3917(6) 0.2973(3) 0.4474(3)
N3B N -1.2178(6) -0.0802(3) 1.0359(3)
N4B N -0.7779(7) -0.2660(4) 0.8842(3)
H2B H -0.7978 -0.2720 0.8092
H3B H -0.6607 -0.2978 0.9262
N5B N -1.0055(7) -0.1187(4) 1.2140(3)
H4B H -1.0980 -0.0762 1.2454
H5B H -0.8913 -0.1518 1.2572
N6B N -1.4354(7) -0.0510(4) 0.8573(3)
H6B H -1.5269 -0.0102 0.8910
H7B H -1.4633 -0.0608 0.7828
O1B O -0.8001(6) -0.0923(3) 0.6585(3)
O2B O -0.8569(6) -0.1239(3) 0.4671(3)
loop_
_geom_bond_atom_site_label_1
_geom_bond_atom_site_label_2
_geom_bond_site_symmetry_1
_geom_bond_site_symmetry_2
Ag1 N1 1_555 1_555
C1 N1 1_555 1_555
C2 N2 1_555 1_555
C3 N1 1_555 1_555
C4 C5 1_555 1_555
C5 H1 1_555 1_555
N2 C1 1_555 1_555
N3 C2 1_555 1_555
N4 C1 1_555 1_555
H2 N4 1_555 1_555
H3 N4 1_555 1_555
N5 C2 1_555 1_555
H4 N5 1_555 1_555
H5 N5 1_555 1_555
N6 C3 1_555 1_555
H6 N6 1_555 1_555
H7 N6 1_555 1_555
O1 Ag1 1_555 1_555
O2 C4 1_555 1_555
Ag1B N1B 1_555 1_555
Ag1A N2B 1_555 1_555
Ag1C N2 1_555 1_555
C1B N1B 1_555 1_555
C2B N2B 1_555 1_555
C3B N1B 1_555 1_555
C4B C5B 1_555 1_555
C5B C5 1_555 1_555
H1B C5B 1_555 1_555
N2B C1B 1_555 1_555
N2A Ag1B 1_555 1_555
N2C Ag1 1_555 1_555
N3B C2B 1_555 1_555
N4B C1B 1_555 1_555
H2B N4B 1_555 1_555
H3B N4B 1_555 1_555
N5B C2B 1_555 1_555
H4B N5B 1_555 1_555
H5B N5B 1_555 1_555
N6B C3B 1_555 1_555
H6B N6B 1_555 1_555
H7B N6B 1_555 1_555
O1B Ag1B 1_555 1_555
O2B C4B 1_555 1_555
C3 N3 1_555 1_555
C4 O1 1_555 1_555
C3B N3B 1_555 1_555
C4B O1B 1_555 1_555

#END
