
#######################################################################
#
#                 Cambridge Crystallographic Data Centre
#                                CCDC 
#
#######################################################################
#
# If this CIF has been generated from an entry in the Cambridge 
# Structural Database, then it will include bibliographic, chemical, 
# crystal, experimental, refinement or atomic coordinate data resulting 
# from the CCDC's data processing and validation procedures.
#
#######################################################################

data_HEBHAZ
_symmetry_cell_setting           monoclinic
_symmetry_space_group_name_H-M   'P 21/c'
_symmetry_Int_Tables_number      14
_space_group_name_Hall           '-P 2ybc'
loop_
_symmetry_equiv_pos_site_id
_symmetry_equiv_pos_as_xyz
1 x,y,z
2 -x,1/2+y,1/2-z
3 -x,-y,-z
4 x,1/2-y,1/2+z
_cell_length_a                   7.5262(7)
_cell_length_b                   23.884(2)
_cell_length_c                   14.489(2)
_cell_angle_alpha                90
_cell_angle_beta                 105.395(10)
_cell_angle_gamma                90
_cell_volume                     2511.03
loop_
_atom_site_label
_atom_site_type_symbol
_atom_site_fract_x
_atom_site_fract_y
_atom_site_fract_z
Co1 Co 0.76420(10) 0.49781(4) 0.49404(6)
F1 F 0.6845(5) 0.20761(19) 0.0631(4)
F2 F 0.7282(5) 0.22187(19) 0.2131(4)
F3 F 0.8180(5) 0.2830(2) 0.1276(4)
F4 F 0.5163(6) 0.2887(2) -0.0517(3)
F5 F 0.5632(6) 0.35997(19) 0.0399(3)
F6 F 0.2876(7) 0.32845(18) -0.0144(3)
O1 O 0.5516(5) 0.44220(17) 0.4748(3)
O2 O -0.0308(5) 0.05619(16) -0.0007(3)
O3 O -0.1089(5) 0.08000(19) 0.1301(3)
O4 O 0.2543(5) 0.45094(17) 0.4004(3)
N1 N 0.6743(6) 0.5218(2) 0.3518(4)
N2 N 0.2620(6) 0.5902(2) 0.2089(4)
C1 C -0.0231(7) 0.0892(2) 0.0703(5)
C2 C 0.3477(8) 0.2274(2) 0.0950(5)
C3 C 0.7541(8) 0.5047(3) 0.2838(5)
H1 H 0.8645 0.4850 0.3022
C4 C 0.5166(7) 0.5501(3) 0.3229(5)
H2 H 0.4626 0.5632 0.3696
C5 C 0.4768(8) 0.3151(2) 0.1917(5)
C6 C 0.3035(7) 0.3350(2) 0.1912(5)
H3 H 0.2004 0.3230 0.1443
C7 C 0.0760(7) 0.5471(3) 0.0549(5)
C8 C 0.2841(8) 0.3723(2) 0.2600(5)
H4 H 0.1673 0.3859 0.2579
C9 C 0.4329(8) 0.3904(2) 0.3324(4)
C10 C 0.1447(7) 0.1602(2) -0.0008(5)
H5 H 0.0925 0.1445 -0.0606
C11 C 0.0732(8) 0.4957(4) 0.0971(5)
H6 H 0.1219 0.4920 0.1628
C12 C 0.4110(9) 0.4309(2) 0.4073(5)
C13 C 0.1856(7) 0.1611(3) 0.1675(5)
H7 H 0.1592 0.1464 0.2218
C14 C 0.6041(8) 0.3697(3) 0.3340(5)
H8 H 0.7058 0.3803 0.3829
C15 C 0.4260(8) 0.5616(3) 0.2265(5)
C16 C 0.3086(8) 0.2056(2) 0.1760(5)
H9 H 0.3644 0.2205 0.2359
C17 C 0.4921(8) 0.2758(3) 0.1094(5)
C18 C 0.1028(7) 0.1390(3) 0.0782(5)
C19 C 0.2656(8) 0.2054(3) 0.0075(5)
H10 H 0.2900 0.2206 -0.0469
C20 C 0.0015(8) 0.5507(3) -0.0429(5)
H11 H 0.0013 0.5850 -0.0731
C21 C 0.6795(9) 0.5152(3) 0.1893(5)
H12 H 0.7399 0.5031 0.1446
C22 C 0.5152(8) 0.5436(3) 0.1592(5)
H13 H 0.4642 0.5506 0.0944
C23 C 0.1513(8) 0.5992(3) 0.1123(5)
H14 H 0.2250 0.6196 0.0779
H15 H 0.0481 0.6229 0.1148
C24 C 0.6823(10) 0.2465(3) 0.1284(8)
C25 C 0.4620(12) 0.3131(3) 0.0203(6)
C26 C 0.6269(8) 0.3334(3) 0.2642(5)
H16 H 0.7445 0.3209 0.2654
Co1C Co 1.76420(10) 0.00219(4) 0.99404(6)
Co1C_2 Co -0.23580(10) 0.00219(4) -0.00596(6)
Co1B Co 0.23580(10) 0.50219(4) 0.50596(6)
Co1B_2 Co -0.76420(10) 0.50219(4) -0.49404(6)
Co1A Co 1.23580(10) -0.00219(4) 1.00596(6)
F1C F 1.6845(5) 0.29239(19) 0.5631(4)
F2C F 1.7282(5) 0.27813(19) 0.7131(4)
F3C F 1.8180(5) 0.2170(2) 0.6276(4)
F4C F 1.5163(6) 0.2113(2) 0.4483(3)
F5C F 1.5632(6) 0.14003(19) 0.5399(3)
F6C F 1.2876(7) 0.17155(18) 0.4856(3)
O1C O 1.5516(5) 0.05780(17) 0.9748(3)
O2C O 0.9692(5) 0.44381(16) 0.4993(3)
O2_2 O 1.9692(5) 0.05619(16) 0.9993(3)
O3C O 0.8911(5) 0.42000(19) 0.6301(3)
O4C O 1.2543(5) 0.04906(17) 0.9004(3)
O4B O 0.7457(5) 0.54906(17) 0.5996(3)
O4A O 1.7457(5) -0.04906(17) 1.0996(3)
N1B N -0.6743(6) 0.4782(2) -0.3518(4)
N1C N 1.6743(6) -0.0218(2) 0.8518(4)
N2B N -0.2620(6) 0.4098(2) -0.2089(4)
C1C C 0.9769(7) 0.4108(2) 0.5703(5)
C2C C 1.3477(8) 0.2726(2) 0.5950(5)
C3B C -0.7541(8) 0.4953(3) -0.2838(5)
H1B H -0.8645 0.5150 -0.3022
C4B C -0.5166(7) 0.4499(3) -0.3229(5)
H2B H -0.4626 0.4368 -0.3696
C5C C 1.4768(8) 0.1849(2) 0.6917(5)
C6C C 1.3035(7) 0.1650(2) 0.6912(5)
H3C H 1.2004 0.1770 0.6443
C7B C -0.0760(7) 0.4529(3) -0.0549(5)
C8C C 1.2841(8) 0.1277(2) 0.7600(5)
H4C H 1.1673 0.1141 0.7579
C9C C 1.4329(8) 0.1096(2) 0.8324(4)
C10C C 1.1447(7) 0.3398(2) 0.4992(5)
H5C H 1.0925 0.3555 0.4394
C11B C -0.0732(8) 0.5043(4) -0.0971(5)
H6B H -0.1219 0.5080 -0.1628
C12C C 1.4110(9) 0.0691(2) 0.9073(5)
C13C C 1.1856(7) 0.3389(3) 0.6675(5)
H7C H 1.1592 0.3536 0.7218
C14C C 1.6041(8) 0.1303(3) 0.8340(5)
H8C H 1.7058 0.1197 0.8829
C15B C -0.4260(8) 0.4384(3) -0.2265(5)
C16C C 1.3086(8) 0.2944(2) 0.6760(5)
H9C H 1.3644 0.2795 0.7359
C17C C 1.4921(8) 0.2242(3) 0.6094(5)
C18C C 1.1028(7) 0.3610(3) 0.5782(5)
C19C C 1.2656(8) 0.2946(3) 0.5075(5)
H10C H 1.2900 0.2794 0.4531
C20B C -0.0015(8) 0.4493(3) 0.0429(5)
H11B H -0.0013 0.4150 0.0731
C21B C -0.6795(9) 0.4848(3) -0.1893(5)
H12B H -0.7399 0.4969 -0.1446
C22B C -0.5152(8) 0.4564(3) -0.1592(5)
H13B H -0.4642 0.4494 -0.0944
C23B C -0.1513(8) 0.4008(3) -0.1123(5)
H14B H -0.2250 0.3804 -0.0779
H15B H -0.0481 0.3771 -0.1148
C24C C 1.6823(10) 0.2535(3) 0.6284(8)
C25C C 1.4620(12) 0.1869(3) 0.5203(6)
C26C C 1.6269(8) 0.1666(3) 0.7642(5)
H16C H 1.7445 0.1791 0.7654
loop_
_geom_bond_atom_site_label_1
_geom_bond_atom_site_label_2
_geom_bond_site_symmetry_1
_geom_bond_site_symmetry_2
Co1 O1 1_555 1_555
F1 C24 1_555 1_555
F2 C24 1_555 1_555
F3 C24 1_555 1_555
F4 C25 1_555 1_555
F5 C25 1_555 1_555
F6 C25 1_555 1_555
O1 C12 1_555 1_555
O2 C1 1_555 1_555
O3 C1 1_555 1_555
O4 C12 1_555 1_555
N1 Co1 1_555 1_555
N2 C15 1_555 1_555
C1 C18 1_555 1_555
C2 C16 1_555 1_555
C3 N1 1_555 1_555
H1 C3 1_555 1_555
C4 N1 1_555 1_555
H2 C4 1_555 1_555
C5 C6 1_555 1_555
C6 H3 1_555 1_555
C7 C11 1_555 1_555
C8 C6 1_555 1_555
H4 C8 1_555 1_555
C9 C8 1_555 1_555
C10 H5 1_555 1_555
C11 H6 1_555 1_555
C12 C9 1_555 1_555
C13 H7 1_555 1_555
C14 C9 1_555 1_555
H8 C14 1_555 1_555
C15 C4 1_555 1_555
C16 C13 1_555 1_555
H9 C16 1_555 1_555
C17 C2 1_555 1_555
C18 C10 1_555 1_555
C19 C2 1_555 1_555
H10 C19 1_555 1_555
C20 C7 1_555 1_555
H11 C20 1_555 1_555
C21 C3 1_555 1_555
H12 C21 1_555 1_555
C22 C15 1_555 1_555
H13 C22 1_555 1_555
C23 N2 1_555 1_555
H14 C23 1_555 1_555
H15 C23 1_555 1_555
C24 C17 1_555 1_555
C25 C17 1_555 1_555
C26 C5 1_555 1_555
H16 C26 1_555 1_555
Co1C O1C 1_555 1_555
Co1C_2 O2 1_555 1_555
Co1B O4 1_555 1_555
Co1B_2 N1B 1_555 1_555
Co1A O4C 1_555 1_555
F1C C24C 1_555 1_555
F2C C24C 1_555 1_555
F3C C24C 1_555 1_555
F4C C25C 1_555 1_555
F5C C25C 1_555 1_555
F6C C25C 1_555 1_555
O1C C12C 1_555 1_555
O2C Co1 1_555 1_555
O2_2 Co1C 1_555 1_555
O3C C1C 1_555 1_555
O4C C12C 1_555 1_555
O4B Co1 1_555 1_555
O4A Co1C 1_555 1_555
N1B C3B 1_555 1_555
N1C Co1C 1_555 1_555
N2B C15B 1_555 1_555
C1C O2C 1_555 1_555
C2C C16C 1_555 1_555
C3B H1B 1_555 1_555
C4B N1B 1_555 1_555
H2B C4B 1_555 1_555
C5C C6C 1_555 1_555
C6C H3C 1_555 1_555
C7B C11B 1_555 1_555
C8C C6C 1_555 1_555
H4C C8C 1_555 1_555
C9C C8C 1_555 1_555
C10C H5C 1_555 1_555
C11B C20 1_555 1_555
H6B C11B 1_555 1_555
C12C C9C 1_555 1_555
C13C H7C 1_555 1_555
C14C C9C 1_555 1_555
H8C C14C 1_555 1_555
C15B C4B 1_555 1_555
C16C C13C 1_555 1_555
H9C C16C 1_555 1_555
C17C C2C 1_555 1_555
C18C C1C 1_555 1_555
C19C C2C 1_555 1_555
H10C C19C 1_555 1_555
C20B C11 1_555 1_555
H11B C20B 1_555 1_555
C21B C3B 1_555 1_555
H12B C21B 1_555 1_555
C22B C15B 1_555 1_555
H13B C22B 1_555 1_555
C23B N2B 1_555 1_555
H14B C23B 1_555 1_555
H15B C23B 1_555 1_555
C24C C17C 1_555 1_555
C25C C17C 1_555 1_555
C26C C5C 1_555 1_555
H16C C26C 1_555 1_555
C5 C17 1_555 1_555
C7 C23 1_555 1_555
C10 C19 1_555 1_555
C13 C18 1_555 1_555
C14 C26 1_555 1_555
C21 C22 1_555 1_555
C5C C17C 1_555 1_555
C7B C20B 1_555 1_555
C7B C23B 1_555 1_555
C10C C18C 1_555 1_555
C10C C19C 1_555 1_555
C13C C18C 1_555 1_555
C14C C26C 1_555 1_555
C21B C22B 1_555 1_555

#END
