
#######################################################################
#
#                 Cambridge Crystallographic Data Centre
#                                CCDC 
#
#######################################################################
#
# If this CIF has been generated from an entry in the Cambridge 
# Structural Database, then it will include bibliographic, chemical, 
# crystal, experimental, refinement or atomic coordinate data resulting 
# from the CCDC's data processing and validation procedures.
#
#######################################################################

data_HEBHON
_symmetry_cell_setting           monoclinic
_symmetry_space_group_name_H-M   'P 21/c'
_symmetry_Int_Tables_number      14
_space_group_name_Hall           '-P 2ybc'
loop_
_symmetry_equiv_pos_site_id
_symmetry_equiv_pos_as_xyz
1 x,y,z
2 -x,1/2+y,1/2-z
3 -x,-y,-z
4 x,1/2-y,1/2+z
_cell_length_a                   10.783(2)
_cell_length_b                   9.897(2)
_cell_length_c                   15.585(3)
_cell_angle_alpha                90
_cell_angle_beta                 95.36(3)
_cell_angle_gamma                90
_cell_volume                     1655.95
loop_
_atom_site_label
_atom_site_type_symbol
_atom_site_fract_x
_atom_site_fract_y
_atom_site_fract_z
Co1 Co 0.12881(2) 1.01106(2) 1.030358(14)
O1 O 0.20547(12) 1.12856(13) 0.94195(8)
O2 O -0.13084(11) 1.34831(12) 0.55105(7)
O3 O 0.07021(11) 1.33411(12) 0.60042(8)
O4 O 0.00386(12) 1.10647(13) 0.90530(8)
N1 N 0.28196(13) 0.95157(15) 1.11285(9)
C1 C 0.27566(18) 0.98278(18) 1.19676(12)
H1 H 0.2030 1.0226 1.2125
N2 N 0.39162(14) 0.86436(15) 1.00483(10)
C2 C 0.38696(16) 0.89266(17) 1.08946(11)
C3 C 0.10995(17) 1.14570(17) 0.88959(11)
C4 C 0.12610(16) 1.09162(18) 0.73766(11)
C5 C 0.47763(18) 0.8975(2) 1.23581(12)
H2 H 0.5433 0.8792 1.2772
C6 C 0.13930(18) 0.87509(19) 0.62445(12)
H3 H 0.1439 0.8040 0.5859
C7 C 0.04244(18) 0.96721(19) 0.61373(12)
H4 H -0.0190 0.9555 0.5683
C8 C 0.37026(18) 0.9590(2) 1.25976(12)
H5 H 0.3629 0.9833 1.3167
C9 C 0.12602(17) 1.20578(18) 0.80236(11)
H6 H 0.2039 1.2552 0.8043
H7 H 0.0584 1.2679 0.7858
C10 C 0.49603(16) 0.64076(19) 0.98769(11)
C11 C 0.49294(16) 0.79215(18) 0.97092(12)
H8 H 0.5709 0.8308 0.9957
H9 H 0.4881 0.8068 0.9092
C12 C 0.22083(18) 0.99620(18) 0.74935(12)
H10 H 0.2801 1.0043 0.7964
C13 C 0.48703(17) 0.86360(19) 1.15130(12)
H11 H 0.5586 0.8220 1.1351
C14 C 0.60602(17) 0.56925(19) 0.98285(11)
H12 H 0.6780 0.6150 0.9715
C15 C 0.39047(16) 0.56957(19) 1.00520(11)
H13 H 0.3161 0.6158 1.0090
C16 C 0.03435(16) 1.07662(18) 0.66887(11)
C17 C 0.22909(18) 0.88997(19) 0.69306(12)
H14 H 0.2946 0.8288 0.7012
C18 C -0.04104(16) 1.29481(18) 0.59640(11)
C19 C -0.07184(16) 1.17424(19) 0.65074(12)
H15 H -0.0973 1.2068 0.7051
H16 H -0.1420 1.1264 0.6213
H17 H 0.328(2) 0.867(2) 0.9761(14)
Co1A Co -0.12881(2) 0.51106(2) 0.469642(14)
Co1A_2 Co -0.12881(2) 1.51106(2) 0.469642(14)
Co1C Co 0.12881(2) 1.48894(2) 0.530358(14)
Co1B Co -0.12881(2) 0.98894(2) 0.969642(14)
Co1B_2 Co 0.87119(2) -0.01106(2) 0.969642(14)
Co1C_2 Co 0.12881(2) 0.48894(2) 0.530358(14)
O1A O -0.20547(12) 0.62856(13) 0.55805(8)
O2A O 0.13084(11) 0.84831(12) 0.94895(7)
O2_2 O -0.13084(11) 0.34831(12) 0.55105(7)
O3A O -0.07021(11) 0.83411(12) 0.89958(8)
O3C O 0.07021(11) 1.16589(12) 1.10042(8)
O3B O -0.07021(11) 0.66589(12) 0.39958(8)
O4A O -0.00386(12) 0.60647(13) 0.59470(8)
O4B O -0.00386(12) 0.89353(13) 1.09470(8)
O4C O 0.00386(12) 0.39353(13) 0.40530(8)
N1B N 0.71804(13) 0.04843(15) 0.88715(9)
N1A N -0.28196(13) 0.45157(15) 0.38715(9)
C1B C 0.72434(18) 0.01722(18) 0.80324(12)
H1B H 0.7970 -0.0226 0.7875
N2B N 0.60838(14) 0.13564(15) 0.99517(10)
C2B C 0.61304(16) 0.10734(17) 0.91054(11)
C3A C -0.10995(17) 0.64570(17) 0.61041(11)
C4A C -0.12610(16) 0.59162(18) 0.76234(11)
C5B C 0.52237(18) 0.1025(2) 0.76419(12)
H2B H 0.4567 0.1208 0.7228
C6A C -0.13930(18) 0.37509(19) 0.87555(12)
H3A H -0.1439 0.3040 0.9141
C7A C -0.04244(18) 0.46721(19) 0.88627(12)
H4A H 0.0190 0.4555 0.9317
C8B C 0.62974(18) 0.0410(2) 0.74024(12)
H5B H 0.6371 0.0167 0.6833
C9A C -0.12602(17) 0.70578(18) 0.69764(11)
H6A H -0.2039 0.7552 0.6957
H7A H -0.0584 0.7679 0.7142
C10B C 0.50397(16) 0.35924(19) 1.01231(11)
C11B C 0.50706(16) 0.20785(18) 1.02908(12)
H8B H 0.4291 0.1692 1.0043
H9B H 0.5119 0.1932 1.0908
C12A C -0.22083(18) 0.49620(18) 0.75065(12)
H10A H -0.2801 0.5043 0.7036
C13B C 0.51297(17) 0.13640(19) 0.84870(12)
H11B H 0.4414 0.1780 0.8649
C14B C 0.39398(17) 0.43075(19) 1.01715(11)
H12B H 0.3220 0.3850 1.0285
C15B C 0.60953(16) 0.43043(19) 0.99480(11)
H13B H 0.6839 0.3842 0.9910
C16A C -0.03435(16) 0.57662(18) 0.83113(11)
C17A C -0.22909(18) 0.38997(19) 0.80694(12)
H14A H -0.2946 0.3288 0.7988
C18A C 0.04104(16) 0.79481(18) 0.90360(11)
C19A C 0.07184(16) 0.67424(19) 0.84926(12)
H15A H 0.0973 0.7068 0.7949
H16A H 0.1420 0.6264 0.8787
H17B H 0.672(2) 0.133(2) 1.0239(14)
loop_
_geom_bond_atom_site_label_1
_geom_bond_atom_site_label_2
_geom_bond_site_symmetry_1
_geom_bond_site_symmetry_2
Co1 O1 1_555 1_555
O1 C3 1_555 1_555
O2 C18 1_555 1_555
O3 C18 1_555 1_555
O4 C3 1_555 1_555
N1 Co1 1_555 1_555
C1 N1 1_555 1_555
H1 C1 1_555 1_555
N2 C2 1_555 1_555
C2 N1 1_555 1_555
C3 C9 1_555 1_555
C4 C9 1_555 1_555
C5 H2 1_555 1_555
C6 H3 1_555 1_555
C7 C6 1_555 1_555
H4 C7 1_555 1_555
C8 C1 1_555 1_555
H5 C8 1_555 1_555
C9 H6 1_555 1_555
H7 C9 1_555 1_555
C10 C11 1_555 1_555
C11 N2 1_555 1_555
H8 C11 1_555 1_555
H9 C11 1_555 1_555
C12 C4 1_555 1_555
H10 C12 1_555 1_555
C13 C2 1_555 1_555
H11 C13 1_555 1_555
C14 C10 1_555 1_555
H12 C14 1_555 1_555
C15 C10 1_555 1_555
H13 C15 1_555 1_555
C16 C4 1_555 1_555
C17 C6 1_555 1_555
H14 C17 1_555 1_555
C18 C19 1_555 1_555
C19 C16 1_555 1_555
H15 C19 1_555 1_555
H16 C19 1_555 1_555
H17 N2 1_555 1_555
Co1A O1A 1_555 1_555
Co1A_2 O2 1_555 1_555
Co1C O3 1_555 1_555
Co1B O4 1_555 1_555
Co1B_2 N1B 1_555 1_555
Co1C_2 O4A 1_555 1_555
O1A C3A 1_555 1_555
O2A Co1 1_555 1_555
O2_2 Co1A 1_555 1_555
O3A Co1B 1_555 1_555
O3C Co1 1_555 1_555
O3B Co1A 1_555 1_555
O4A C3A 1_555 1_555
O4B Co1 1_555 1_555
O4C Co1A 1_555 1_555
N1B C1B 1_555 1_555
N1A Co1A 1_555 1_555
C1B H1B 1_555 1_555
N2B C2B 1_555 1_555
C2B N1B 1_555 1_555
C3A C9A 1_555 1_555
C4A C9A 1_555 1_555
C5B H2B 1_555 1_555
C6A H3A 1_555 1_555
C7A C6A 1_555 1_555
H4A C7A 1_555 1_555
C8B C1B 1_555 1_555
H5B C8B 1_555 1_555
C9A H6A 1_555 1_555
H7A C9A 1_555 1_555
C10B C11B 1_555 1_555
C11B N2B 1_555 1_555
H8B C11B 1_555 1_555
H9B C11B 1_555 1_555
C12A C4A 1_555 1_555
H10A C12A 1_555 1_555
C13B C2B 1_555 1_555
H11B C13B 1_555 1_555
C14B C15 1_555 1_555
H12B C14B 1_555 1_555
C15B C14 1_555 1_555
H13B C15B 1_555 1_555
C16A C4A 1_555 1_555
C17A C6A 1_555 1_555
H14A C17A 1_555 1_555
C18A O2A 1_555 1_555
C19A C16A 1_555 1_555
H15A C19A 1_555 1_555
H16A C19A 1_555 1_555
H17B N2B 1_555 1_555
C5 C8 1_555 1_555
C5 C13 1_555 1_555
C7 C16 1_555 1_555
C12 C17 1_555 1_555
O3A C18A 1_555 1_555
C5B C8B 1_555 1_555
C5B C13B 1_555 1_555
C7A C16A 1_555 1_555
C10B C14B 1_555 1_555
C10B C15B 1_555 1_555
C12A C17A 1_555 1_555
C18A C19A 1_555 1_555

#END
