
#######################################################################
#
#                 Cambridge Crystallographic Data Centre
#                                CCDC 
#
#######################################################################
#
# If this CIF has been generated from an entry in the Cambridge 
# Structural Database, then it will include bibliographic, chemical, 
# crystal, experimental, refinement or atomic coordinate data resulting 
# from the CCDC's data processing and validation procedures.
#
#######################################################################

data_HEBHUT
_symmetry_cell_setting           triclinic
_symmetry_space_group_name_H-M   'P -1'
_symmetry_Int_Tables_number      2
_space_group_name_Hall           '-P 1'
loop_
_symmetry_equiv_pos_site_id
_symmetry_equiv_pos_as_xyz
1 x,y,z
2 -x,-y,-z
_cell_length_a                   10.7107(8)
_cell_length_b                   11.0699(8)
_cell_length_c                   13.0452(10)
_cell_angle_alpha                101.8660(10)
_cell_angle_beta                 104.0020(10)
_cell_angle_gamma                110.6980(10)
_cell_volume                     1329.72
loop_
_atom_site_label
_atom_site_type_symbol
_atom_site_fract_x
_atom_site_fract_y
_atom_site_fract_z
Co1 Co 0.31923(3) 1.04133(3) 0.33831(2)
O1 O 0.21308(18) 0.81999(17) 0.26187(15)
O2 O 0.27355(19) 0.89960(19) 0.44077(15)
O3 O 0.5192(2) 1.0310(3) 0.3589(2)
O4 O 0.50949(17) 0.78805(17) 0.39923(14)
O5 O 0.56581(18) 0.76152(17) 0.56564(14)
N1 N 0.12408(18) 1.05983(17) 0.32397(14)
N2 N -0.2147(2) 0.8860(2) 0.35786(19)
N3 N -0.69165(19) 0.05770(18) 0.17843(14)
N4 N -0.4550(3) 0.1892(2) 0.02956(19)
C1 C 0.4983(2) 0.7184(2) 0.46227(19)
C2 C 0.2231(2) 0.8002(3) 0.3540(2)
C3 C 0.0145(2) 0.9670(2) 0.33696(18)
H1 H 0.0196 0.8865 0.3431
C4 C -0.1143(3) 1.1027(2) 0.32789(19)
H2 H -0.1937 1.1184 0.3296
C5 C -0.1071(2) 0.9838(2) 0.34177(17)
C6 C -0.5755(2) 0.1248(2) 0.15731(18)
H3 H -0.4898 0.1721 0.2166
C7 C -0.2255(2) 0.6521(2) 0.32739(19)
C8 C -0.8150(3) -0.0089(3) 0.09436(19)
H4 H -0.8962 -0.0575 0.1083
C9 C -0.5758(3) 0.1280(2) 0.05097(18)
C10 C 0.2964(2) 0.5186(2) 0.29745(19)
C11 C -0.2865(3) 0.3953(2) 0.1884(2)
C12 C -0.1910(3) 0.7879(2) 0.40774(19)
H5 H -0.2477 0.7724 0.4556
H6 H -0.0919 0.8271 0.4548
C13 C 0.1832(2) 0.5543(2) 0.2727(2)
C14 C 0.1146(3) 1.1733(2) 0.31155(19)
H7 H 0.1903 1.2389 0.3025
C15 C -0.3163(3) 0.2576(3) 0.1128(2)
H8 H -0.2462 0.2694 0.0761
H9 H -0.3052 0.2002 0.1581
C16 C 0.0992(4) 0.4099(3) 0.0835(3)
H10 H 0.0319 0.3726 0.0120
C17 C -0.7069(3) 0.0613(3) -0.03416(19)
H11 H -0.7138 0.0638 -0.1061
C18 C 0.4012(3) 0.5674(2) 0.4134(2)
H12 H 0.4601 0.5180 0.4136
H13 H 0.3486 0.5430 0.4626
C19 C 0.0852(3) 0.4975(3) 0.1656(3)
H14 H 0.0081 0.5195 0.1492
C20 C -0.0030(3) 1.1967(3) 0.3117(2)
H15 H -0.0073 1.2758 0.3009
C21 C -0.8258(3) -0.0077(3) -0.0125(2)
H16 H -0.9135 -0.0536 -0.0696
C22 C -0.2039(3) 0.5545(3) 0.3704(2)
H17 H -0.1677 0.5747 0.4473
C23 C -0.2779(3) 0.6192(3) 0.2134(2)
H18 H -0.2932 0.6833 0.1822
C24 C 0.1675(3) 0.6564(3) 0.3590(2)
H19 H 0.2170 0.6579 0.4324
H20 H 0.0676 0.6257 0.3501
C25 C -0.2348(3) 0.4281(3) 0.3019(2)
H21 H -0.2204 0.3637 0.3331
C26 C 0.2122(4) 0.3770(3) 0.1064(2)
H22 H 0.2228 0.3183 0.0505
C27 C 0.3103(3) 0.4314(3) 0.2127(2)
H23 H 0.3873 0.4092 0.2279
C28 C -0.3080(3) 0.4923(3) 0.1447(2)
H24 H -0.3434 0.4720 0.0677
H25 H -0.467(3) 0.189(3) -0.030(2)
H26 H -0.273(3) 0.905(3) 0.368(2)
H27 H 0.569(4) 1.061(4) 0.425(3)
H28 H 0.504(4) 0.963(4) 0.338(3)
Co1A Co 0.68077(3) 0.95867(3) 0.66169(2)
Co1_2 Co -0.68077(3) 0.04133(3) 0.33831(2)
O5A O 0.43419(18) 1.23848(17) 0.43436(14)
N3_2 N 0.30835(19) 1.05770(18) 0.17843(14)
O6 O 0.4088(5) 0.7611(4) 0.1657(3)
H29 H 0.439(5) 0.736(5) 0.199(4)
H30 H 0.324(6) 0.749(6) 0.154(4)
loop_
_geom_bond_atom_site_label_1
_geom_bond_atom_site_label_2
_geom_bond_site_symmetry_1
_geom_bond_site_symmetry_2
Co1 O1 1_555 1_555
O1 C2 1_555 1_555
O2 Co1 1_555 1_555
O3 Co1 1_555 1_555
O4 C1 1_555 1_555
O5 C1 1_555 1_555
N1 Co1 1_555 1_555
N2 C5 1_555 1_555
N3 C6 1_555 1_555
N4 C9 1_555 1_555
C1 C18 1_555 1_555
C2 O2 1_555 1_555
C3 N1 1_555 1_555
H1 C3 1_555 1_555
C4 H2 1_555 1_555
C5 C3 1_555 1_555
C6 H3 1_555 1_555
C7 C12 1_555 1_555
C8 N3 1_555 1_555
H4 C8 1_555 1_555
C9 C6 1_555 1_555
C10 C13 1_555 1_555
C11 C15 1_555 1_555
C12 N2 1_555 1_555
H5 C12 1_555 1_555
H6 C12 1_555 1_555
C13 C19 1_555 1_555
C14 N1 1_555 1_555
H7 C14 1_555 1_555
C15 N4 1_555 1_555
H8 C15 1_555 1_555
H9 C15 1_555 1_555
C16 H10 1_555 1_555
C17 C9 1_555 1_555
H11 C17 1_555 1_555
C18 C10 1_555 1_555
H12 C18 1_555 1_555
H13 C18 1_555 1_555
C19 C16 1_555 1_555
H14 C19 1_555 1_555
C20 C4 1_555 1_555
H15 C20 1_555 1_555
C21 C8 1_555 1_555
H16 C21 1_555 1_555
C22 C7 1_555 1_555
H17 C22 1_555 1_555
C23 C7 1_555 1_555
H18 C23 1_555 1_555
C24 C2 1_555 1_555
H19 C24 1_555 1_555
H20 C24 1_555 1_555
C25 C11 1_555 1_555
H21 C25 1_555 1_555
C26 C16 1_555 1_555
H22 C26 1_555 1_555
C27 C10 1_555 1_555
H23 C27 1_555 1_555
C28 C11 1_555 1_555
H24 C28 1_555 1_555
O6 H29 1_555 1_555
H25 N4 1_555 1_555
H26 N2 1_555 1_555
H27 O3 1_555 1_555
H28 O3 1_555 1_555
H30 O6 1_555 1_555
Co1A O5 1_555 1_555
Co1_2 N3 1_555 1_555
O5A Co1 1_555 1_555
N3_2 Co1 1_555 1_555
C4 C5 1_555 1_555
C13 C24 1_555 1_555
C14 C20 1_555 1_555
C17 C21 1_555 1_555
C22 C25 1_555 1_555
C23 C28 1_555 1_555
C26 C27 1_555 1_555

#END
