
#######################################################################
#
#                 Cambridge Crystallographic Data Centre
#                                CCDC 
#
#######################################################################
#
# If this CIF has been generated from an entry in the Cambridge 
# Structural Database, then it will include bibliographic, chemical, 
# crystal, experimental, refinement or atomic coordinate data resulting 
# from the CCDC's data processing and validation procedures.
#
#######################################################################

data_HEBJUV
_symmetry_cell_setting           orthorhombic
_symmetry_space_group_name_H-M   'P 21 21 21'
_symmetry_Int_Tables_number      19
_space_group_name_Hall           'P 2ac 2ab'
loop_
_symmetry_equiv_pos_site_id
_symmetry_equiv_pos_as_xyz
1 x,y,z
2 1/2-x,-y,1/2+z
3 1/2+x,1/2-y,-z
4 -x,1/2+y,1/2-z
_cell_length_a                   7.123(3)
_cell_length_b                   13.896(5)
_cell_length_c                   15.893(6)
_cell_angle_alpha                90
_cell_angle_beta                 90
_cell_angle_gamma                90
_cell_volume                     1573.11
loop_
_atom_site_label
_atom_site_type_symbol
_atom_site_fract_x
_atom_site_fract_y
_atom_site_fract_z
Cd1 Cd 0.65386(5) 0.26693(3) 0.10986(2)
Cl1 Cl 0.3959(2) 0.24977(12) 0.21341(11)
O1 O 0.8987(5) 0.2267(3) 0.0199(3)
O2 O 1.0629(7) 0.1066(4) -0.0320(3)
N1 N 1.1694(7) -0.1256(3) 0.3135(3)
N2 N 0.7719(6) 0.1154(3) 0.1492(3)
H1 H 0.6760 0.0799 0.1708
C1 C 0.9889(8) -0.1063(4) 0.3274(4)
H2 H 0.9188 -0.1488 0.3600
C2 C 0.9029(8) -0.0260(5) 0.2953(3)
H3 H 0.7760 -0.0157 0.3056
C3 C 1.0018(8) 0.0392(4) 0.2482(4)
C4 C 1.1870(9) 0.0158(5) 0.2314(6)
H4 H 1.2588 0.0562 0.1976
C5 C 1.2639(10) -0.0641(6) 0.2633(6)
H5 H 1.3883 -0.0779 0.2503
C6 C 0.9135(9) 0.1304(4) 0.2155(4)
H6 H 0.8555 0.1640 0.2618
H7 H 1.0118 0.1722 0.1931
C7 C 0.8428(8) 0.0671(4) 0.0744(3)
H8 H 0.9325 0.0172 0.0912
C8 C 0.9422(8) 0.1407(4) 0.0174(4)
C9 C 0.6810(9) 0.0206(4) 0.0257(3)
H9 H 0.5816 0.0677 0.0191
H10 H 0.7253 0.0036 -0.0300
C10 C 0.5991(13) -0.0692(6) 0.0672(5)
H11 H 0.5699 -0.0522 0.1256
C11 C 0.4107(17) -0.0943(9) 0.0238(7)
H12 H 0.4376 -0.1361 -0.0250
H13 H 0.3524 -0.0370 0.0014
H14 H 0.3499 -0.1426 0.0474
C12 C 0.740(2) -0.1479(6) 0.0700(6)
H15 H 0.7695 -0.1680 0.0137
H16 H 0.6897 -0.2014 0.1009
H17 H 0.8520 -0.1253 0.0972
Cd1B Cd 1.15386(5) 0.23307(3) -0.10986(2)
Cd1C Cd 1.34614(5) -0.23307(3) 0.39014(2)
O2B O 0.5629(7) 0.3934(4) 0.0320(3)
N1C N 0.8306(7) 0.3744(3) 0.1865(3)
O3 O 0.5319(12) 0.0943(10) 0.3578(7)
loop_
_geom_bond_atom_site_label_1
_geom_bond_atom_site_label_2
_geom_bond_site_symmetry_1
_geom_bond_site_symmetry_2
Cd1 Cl1 1_555 1_555
O1 Cd1 1_555 1_555
O2 C8 1_555 1_555
N1 C1 1_555 1_555
N2 Cd1 1_555 1_555
H1 N2 1_555 1_555
C1 H2 1_555 1_555
C2 C1 1_555 1_555
H3 C2 1_555 1_555
C3 C2 1_555 1_555
C4 C3 1_555 1_555
H4 C4 1_555 1_555
C5 N1 1_555 1_555
H5 C5 1_555 1_555
C6 N2 1_555 1_555
H6 C6 1_555 1_555
H7 C6 1_555 1_555
C7 N2 1_555 1_555
H8 C7 1_555 1_555
C8 O1 1_555 1_555
C9 C7 1_555 1_555
H9 C9 1_555 1_555
H10 C9 1_555 1_555
C10 C9 1_555 1_555
H11 C10 1_555 1_555
C11 C10 1_555 1_555
H12 C11 1_555 1_555
H13 C11 1_555 1_555
H14 C11 1_555 1_555
C12 C10 1_555 1_555
H15 C12 1_555 1_555
H16 C12 1_555 1_555
H17 C12 1_555 1_555
Cd1B O2 1_555 1_555
Cd1C N1 1_555 1_555
O2B Cd1 1_555 1_555
N1C Cd1 1_555 1_555
C3 C6 1_555 1_555
C4 C5 1_555 1_555
C7 C8 1_555 1_555

#END
