
#######################################################################
#
#                 Cambridge Crystallographic Data Centre
#                                CCDC 
#
#######################################################################
#
# If this CIF has been generated from an entry in the Cambridge 
# Structural Database, then it will include bibliographic, chemical, 
# crystal, experimental, refinement or atomic coordinate data resulting 
# from the CCDC's data processing and validation procedures.
#
#######################################################################

data_HEBKOP
_symmetry_cell_setting           monoclinic
_symmetry_space_group_name_H-M   'P 21/n'
_symmetry_Int_Tables_number      14
_space_group_name_Hall           '-P 2yn'
loop_
_symmetry_equiv_pos_site_id
_symmetry_equiv_pos_as_xyz
1 x,y,z
2 1/2-x,1/2+y,1/2-z
3 -x,-y,-z
4 1/2+x,1/2-y,1/2+z
_cell_length_a                   10.532(6)
_cell_length_b                   5.665(4)
_cell_length_c                   11.752(7)
_cell_angle_alpha                90
_cell_angle_beta                 90.669(7)
_cell_angle_gamma                90
_cell_volume                     701.121
loop_
_atom_site_label
_atom_site_type_symbol
_atom_site_fract_x
_atom_site_fract_y
_atom_site_fract_z
Co1 Co 1.0000 0.5000 0.5000
O1 O 0.8732(2) 0.5325(3) 0.23816(18)
O2 O 0.96044(16) 0.2762(3) 0.35949(14)
O3 O 1.07416(17) 0.2019(3) 0.58442(16)
H1 H 1.1050 0.2729 0.6422
H2 H 1.0501 0.0606 0.5955
N1 N 1.3116(2) 0.0568(4) 0.06337(18)
C1 C 1.1286(3) -0.0852(5) 0.1612(2)
H3 H 1.0923 -0.2044 0.2044
C2 C 1.2521(2) -0.1060(5) 0.1254(2)
H4 H 1.2969 -0.2414 0.1456
C3 C 1.2440(3) 0.2490(5) 0.0368(3)
H5 H 1.2827 0.3659 -0.0062
C4 C 1.1200(3) 0.2838(5) 0.0693(2)
H6 H 1.0779 0.4218 0.0487
C5 C 1.0583(2) 0.1142(5) 0.1325(2)
C6 C 0.9226(2) 0.1490(5) 0.1692(2)
H7 H 0.8712 0.1984 0.1045
H8 H 0.8888 0.0010 0.1972
C7 C 0.9166(2) 0.3355(5) 0.2624(2)
Co1C Co 1.5000 0.0000 0.0000
Co1C_2 Co 0.5000 1.0000 1.0000
O1B O 1.1268(2) 0.4675(3) 0.76184(18)
O2B O 1.03956(16) 0.7238(3) 0.64051(14)
O3B O 0.92584(17) 0.7981(3) 0.41558(16)
H1B H 0.8950 0.7271 0.3578
H2B H 0.9499 0.9394 0.4045
N1B N 0.6884(2) 0.9432(4) 0.93663(18)
N1C N 0.8116(2) 0.4432(4) 0.56337(18)
N1A N 1.1884(2) 0.5568(4) 0.43663(18)
C1B C 0.8714(3) 1.0852(5) 0.8388(2)
H3B H 0.9077 1.2044 0.7956
C2B C 0.7479(2) 1.1060(5) 0.8746(2)
H4B H 0.7031 1.2414 0.8544
C3B C 0.7560(3) 0.7510(5) 0.9632(3)
H5B H 0.7173 0.6341 1.0062
C4B C 0.8800(3) 0.7162(5) 0.9307(2)
H6B H 0.9221 0.5782 0.9513
C5B C 0.9417(2) 0.8858(5) 0.8675(2)
C6B C 1.0774(2) 0.8510(5) 0.8308(2)
H7B H 1.1288 0.8016 0.8955
H8B H 1.1112 0.9990 0.8028
C7B C 1.0834(2) 0.6645(5) 0.7376(2)
loop_
_geom_bond_atom_site_label_1
_geom_bond_atom_site_label_2
_geom_bond_site_symmetry_1
_geom_bond_site_symmetry_2
Co1 O2 1_555 1_555
O1 C7 1_555 1_555
O2 C7 1_555 1_555
O3 Co1 1_555 1_555
H1 O3 1_555 1_555
H2 O3 1_555 1_555
N1 C2 1_555 1_555
C1 H3 1_555 1_555
C2 C1 1_555 1_555
H4 C2 1_555 1_555
C3 N1 1_555 1_555
H5 C3 1_555 1_555
C4 C3 1_555 1_555
H6 C4 1_555 1_555
C5 C1 1_555 1_555
C6 C5 1_555 1_555
H7 C6 1_555 1_555
H8 C6 1_555 1_555
C7 C6 1_555 1_555
Co1C N1 1_555 1_555
Co1C_2 N1B 1_555 1_555
O1B C7B 1_555 1_555
O2B Co1 1_555 1_555
O3B Co1 1_555 1_555
H1B O3B 1_555 1_555
H2B O3B 1_555 1_555
N1B C2B 1_555 1_555
N1C Co1 1_555 1_555
N1A Co1 1_555 1_555
C1B H3B 1_555 1_555
C2B C1B 1_555 1_555
H4B C2B 1_555 1_555
C3B N1B 1_555 1_555
H5B C3B 1_555 1_555
C4B C3B 1_555 1_555
H6B C4B 1_555 1_555
C5B C1B 1_555 1_555
C6B C5B 1_555 1_555
H7B C6B 1_555 1_555
H8B C6B 1_555 1_555
C7B O2B 1_555 1_555
C4 C5 1_555 1_555
C4B C5B 1_555 1_555
C6B C7B 1_555 1_555

#END
