
#######################################################################
#
#                 Cambridge Crystallographic Data Centre
#                                CCDC 
#
#######################################################################
#
# If this CIF has been generated from an entry in the Cambridge 
# Structural Database, then it will include bibliographic, chemical, 
# crystal, experimental, refinement or atomic coordinate data resulting 
# from the CCDC's data processing and validation procedures.
#
#######################################################################

data_HEBKIJ
_symmetry_cell_setting           monoclinic
_symmetry_space_group_name_H-M   'P 21/n'
_symmetry_Int_Tables_number      14
_space_group_name_Hall           '-P 2yn'
loop_
_symmetry_equiv_pos_site_id
_symmetry_equiv_pos_as_xyz
1 x,y,z
2 1/2-x,1/2+y,1/2-z
3 -x,-y,-z
4 1/2+x,1/2-y,1/2+z
_cell_length_a                   10.0813(16)
_cell_length_b                   5.9868(9)
_cell_length_c                   11.6978(18)
_cell_angle_alpha                90
_cell_angle_beta                 91.770(2)
_cell_angle_gamma                90
_cell_volume                     705.681
loop_
_atom_site_label
_atom_site_type_symbol
_atom_site_fract_x
_atom_site_fract_y
_atom_site_fract_z
Cu1 Cu 0.5000 0.5000 0.5000
O1 O 0.3900(2) 0.5564(3) 0.23628(14)
O2 O 0.46167(14) 0.3040(2) 0.36365(11)
O3 O 0.58031(16) 0.1634(3) 0.58583(12)
H1 H 0.5659 0.0247 0.5949
H2 H 0.5962 0.2378 0.6466
N1 N 0.81476(17) 0.0565(3) 0.05742(14)
C1 C 0.6219(2) -0.0650(4) 0.15352(18)
H3 H 0.5797 -0.1781 0.1930
C2 C 0.7484(2) -0.0981(4) 0.11488(18)
H4 H 0.7894 -0.2348 0.1295
C3 C 0.7528(2) 0.2511(4) 0.03855(19)
H5 H 0.7966 0.3613 -0.0017
C4 C 0.6282(2) 0.2962(4) 0.07553(19)
H6 H 0.5904 0.4356 0.0615
C5 C 0.55808(19) 0.1361(4) 0.13357(15)
C6 C 0.4193(2) 0.1834(4) 0.17275(17)
H7 H 0.3638 0.2308 0.1080
H8 H 0.3814 0.0481 0.2037
C7 C 0.42217(19) 0.3658(4) 0.26414(17)
Cu1C Cu 1.0000 0.0000 0.0000
Cu1C_2 Cu 0.0000 1.0000 1.0000
O1B O 0.6100(2) 0.4436(3) 0.76372(14)
O2B O 0.53833(14) 0.6960(2) 0.63635(11)
O3B O 0.41969(16) 0.8366(3) 0.41417(12)
H1B H 0.4341 0.9753 0.4051
H2B H 0.4038 0.7622 0.3534
N1B N 0.18524(17) 0.9435(3) 0.94258(14)
N1C N 0.31476(17) 0.4435(3) 0.55742(14)
N1A N 0.68524(17) 0.5565(3) 0.44258(14)
C1B C 0.3781(2) 1.0650(4) 0.84648(18)
H3B H 0.4203 1.1781 0.8070
C2B C 0.2516(2) 1.0981(4) 0.88512(18)
H4B H 0.2106 1.2348 0.8705
C3B C 0.2472(2) 0.7489(4) 0.96145(19)
H5B H 0.2034 0.6387 1.0017
C4B C 0.3718(2) 0.7038(4) 0.92447(19)
H6B H 0.4096 0.5644 0.9385
C5B C 0.44192(19) 0.8639(4) 0.86643(15)
C6B C 0.5807(2) 0.8166(4) 0.82725(17)
H7B H 0.6362 0.7692 0.8920
H8B H 0.6186 0.9519 0.7963
C7B C 0.57783(19) 0.6342(4) 0.73586(17)
loop_
_geom_bond_atom_site_label_1
_geom_bond_atom_site_label_2
_geom_bond_site_symmetry_1
_geom_bond_site_symmetry_2
Cu1 O2 1_555 1_555
O1 C7 1_555 1_555
O2 C7 1_555 1_555
O3 Cu1 1_555 1_555
H1 O3 1_555 1_555
H2 O3 1_555 1_555
N1 C2 1_555 1_555
C1 H3 1_555 1_555
C2 C1 1_555 1_555
H4 C2 1_555 1_555
C3 N1 1_555 1_555
H5 C3 1_555 1_555
C4 C3 1_555 1_555
H6 C4 1_555 1_555
C5 C1 1_555 1_555
C6 C5 1_555 1_555
H7 C6 1_555 1_555
H8 C6 1_555 1_555
C7 C6 1_555 1_555
Cu1C N1 1_555 1_555
Cu1C_2 N1B 1_555 1_555
O1B C7B 1_555 1_555
O2B Cu1 1_555 1_555
O3B Cu1 1_555 1_555
H1B O3B 1_555 1_555
H2B O3B 1_555 1_555
N1B C2B 1_555 1_555
N1C Cu1 1_555 1_555
N1A Cu1 1_555 1_555
C1B H3B 1_555 1_555
C2B C1B 1_555 1_555
H4B C2B 1_555 1_555
C3B N1B 1_555 1_555
H5B C3B 1_555 1_555
C4B C3B 1_555 1_555
H6B C4B 1_555 1_555
C5B C1B 1_555 1_555
C6B C5B 1_555 1_555
H7B C6B 1_555 1_555
H8B C6B 1_555 1_555
C7B O2B 1_555 1_555
C4 C5 1_555 1_555
C4B C5B 1_555 1_555
C6B C7B 1_555 1_555

#END
