
#######################################################################
#
#                 Cambridge Crystallographic Data Centre
#                                CCDC 
#
#######################################################################
#
# If this CIF has been generated from an entry in the Cambridge 
# Structural Database, then it will include bibliographic, chemical, 
# crystal, experimental, refinement or atomic coordinate data resulting 
# from the CCDC's data processing and validation procedures.
#
#######################################################################

data_HEBLAD
_symmetry_cell_setting           triclinic
_symmetry_space_group_name_H-M   'P -1'
_symmetry_Int_Tables_number      2
_space_group_name_Hall           '-P 1'
loop_
_symmetry_equiv_pos_site_id
_symmetry_equiv_pos_as_xyz
1 x,y,z
2 -x,-y,-z
_cell_length_a                   5.1044(3)
_cell_length_b                   5.5593(3)
_cell_length_c                   8.4574(5)
_cell_angle_alpha                89.989(3)
_cell_angle_beta                 85.615(3)
_cell_angle_gamma                71.995(3)
_cell_volume                     227.504
loop_
_atom_site_label
_atom_site_type_symbol
_atom_site_fract_x
_atom_site_fract_y
_atom_site_fract_z
U1 U 0.5000 0.5000 1.0000
O1 O 0.4855(5) 0.7644(5) 1.1194(3)
O2 O 0.1043(5) 0.7257(5) 0.8906(3)
O3 O -0.2439(5) 0.6273(5) 0.7971(3)
C1 C -0.0262(5) 0.8691(5) 0.6364(3)
C2 C -0.0578(5) 0.7326(5) 0.7840(3)
C3 C -0.1607(6) 0.8379(6) 0.5046(3)
H1 H -0.2684 0.7300 0.5083
C4 C 0.1336(6) 1.0317(6) 0.6324(3)
H2 H 0.2218 1.0529 0.7211
U1_2 U -0.5000 0.5000 1.0000
U1_3 U -0.5000 1.5000 0.0000
U1_4 U 0.5000 1.5000 0.0000
O1A O 0.5145(5) 0.2356(5) 0.8806(3)
O2A O -0.1043(5) 1.2743(5) 0.1094(3)
O2A_2 O 0.8957(5) 0.2743(5) 1.1094(3)
O3A O 0.2439(5) 1.3727(5) 0.2029(3)
O3_2 O 0.7561(5) 0.6273(5) 0.7971(3)
O3A_2 O 0.2439(5) 0.3727(5) 1.2029(3)
C1A C 0.0262(5) 1.1309(5) 0.3636(3)
C2A C 0.0578(5) 1.2674(5) 0.2160(3)
C3A C 0.1607(6) 1.1621(6) 0.4954(3)
H1A H 0.2684 1.2700 0.4917
C4A C -0.1336(6) 0.9683(6) 0.3676(3)
H2A H -0.2218 0.9471 0.2789
loop_
_geom_bond_atom_site_label_1
_geom_bond_atom_site_label_2
_geom_bond_site_symmetry_1
_geom_bond_site_symmetry_2
U1 O1 1_555 1_555
O2 U1 1_555 1_555
O3 C2 1_555 1_555
C1 C2 1_555 1_555
C2 O2 1_555 1_555
C3 C1 1_555 1_555
H1 C3 1_555 1_555
C4 C1 1_555 1_555
H2 C4 1_555 1_555
U1_2 O3 1_555 1_555
U1_3 O2A 1_555 1_555
U1_4 O3A 1_555 1_555
O1A U1 1_555 1_555
O2A C2A 1_555 1_555
O2A_2 U1 1_555 1_555
O3A C2A 1_555 1_555
O3_2 U1 1_555 1_555
O3A_2 U1 1_555 1_555
C1A C2A 1_555 1_555
C3A C4 1_555 1_555
H1A C3A 1_555 1_555
C4A C3 1_555 1_555
H2A C4A 1_555 1_555
C1A C3A 1_555 1_555
C1A C4A 1_555 1_555

#END
