
#######################################################################
#
#                 Cambridge Crystallographic Data Centre
#                                CCDC 
#
#######################################################################
#
# If this CIF has been generated from an entry in the Cambridge 
# Structural Database, then it will include bibliographic, chemical, 
# crystal, experimental, refinement or atomic coordinate data resulting 
# from the CCDC's data processing and validation procedures.
#
#######################################################################

data_HEBLAC
_symmetry_cell_setting           monoclinic
_symmetry_space_group_name_H-M   'P 21/c'
_symmetry_Int_Tables_number      14
_space_group_name_Hall           '-P 2ybc'
loop_
_symmetry_equiv_pos_site_id
_symmetry_equiv_pos_as_xyz
1 x,y,z
2 -x,1/2+y,1/2-z
3 -x,-y,-z
4 x,1/2-y,1/2+z
_cell_length_a                   5.3992(8)
_cell_length_b                   16.576(3)
_cell_length_c                   7.8082(12)
_cell_angle_alpha                90
_cell_angle_beta                 95.739(2)
_cell_angle_gamma                90
_cell_volume                     695.309
loop_
_atom_site_label
_atom_site_type_symbol
_atom_site_fract_x
_atom_site_fract_y
_atom_site_fract_z
Ag1 Ag 0.26627(4) 0.517450(13) -0.11243(3)
O1 O 0.1907(4) 0.49591(12) 0.1886(3)
O2 O 0.5333(3) 0.56260(11) 0.2841(2)
N1 N 0.2330(4) 0.84511(13) 0.4029(3)
C1 C 0.4052(5) 0.71663(15) 0.4889(4)
H1 H 0.5380 0.6876 0.5432
C2 C 0.4171(5) 0.79936(16) 0.4788(4)
H2 H 0.5606 0.8249 0.5274
C3 C 0.0295(5) 0.80657(16) 0.3353(4)
H3 H -0.1014 0.8371 0.2829
C4 C 0.0026(5) 0.72388(15) 0.3391(4)
H4 H -0.1429 0.6999 0.2893
C5 C 0.1932(5) 0.67680(15) 0.4173(3)
C6 C 0.1710(5) 0.58682(15) 0.4250(3)
H5 H -0.0035 0.5720 0.4091
H6 H 0.2385 0.5682 0.5379
C7 C 0.3086(5) 0.54485(14) 0.2875(3)
Ag1B Ag 0.73373(4) 0.482550(13) 0.11243(3)
Ag1B_2 Ag -0.26627(4) 0.482550(13) 0.11243(3)
Ag1C Ag 0.26627(4) 0.982550(13) 0.38757(3)
O1B O -0.1907(4) 0.50409(12) -0.1886(3)
O2B O 0.4667(3) 0.43740(11) -0.2841(2)
N1C N 0.2330(4) 0.65489(13) -0.0971(3)
loop_
_geom_bond_atom_site_label_1
_geom_bond_atom_site_label_2
_geom_bond_site_symmetry_1
_geom_bond_site_symmetry_2
Ag1 O1 1_555 1_555
O1 C7 1_555 1_555
O2 C7 1_555 1_555
N1 C2 1_555 1_555
C1 H1 1_555 1_555
C2 C1 1_555 1_555
H2 C2 1_555 1_555
C3 N1 1_555 1_555
H3 C3 1_555 1_555
C4 C3 1_555 1_555
H4 C4 1_555 1_555
C5 C1 1_555 1_555
C6 C5 1_555 1_555
H5 C6 1_555 1_555
H6 C6 1_555 1_555
C7 C6 1_555 1_555
Ag1B O2 1_555 1_555
Ag1B_2 O1 1_555 1_555
Ag1C N1 1_555 1_555
O1B Ag1 1_555 1_555
O2B Ag1 1_555 1_555
N1C Ag1 1_555 1_555
C4 C5 1_555 1_555
Ag1B_2 O1B 1_555 1_555

#END
