
#######################################################################
#
#                 Cambridge Crystallographic Data Centre
#                                CCDC 
#
#######################################################################
#
# If this CIF has been generated from an entry in the Cambridge 
# Structural Database, then it will include bibliographic, chemical, 
# crystal, experimental, refinement or atomic coordinate data resulting 
# from the CCDC's data processing and validation procedures.
#
#######################################################################

data_HEBLIL
_symmetry_cell_setting           triclinic
_symmetry_space_group_name_H-M   'P -1'
_symmetry_Int_Tables_number      2
_space_group_name_Hall           '-P 1'
loop_
_symmetry_equiv_pos_site_id
_symmetry_equiv_pos_as_xyz
1 x,y,z
2 -x,-y,-z
_cell_length_a                   5.1366(10)
_cell_length_b                   5.6106(11)
_cell_length_c                   12.944(2)
_cell_angle_alpha                95.950(10)
_cell_angle_beta                 90.627(10)
_cell_angle_gamma                107.037(11)
_cell_volume                     354.412
loop_
_atom_site_label
_atom_site_type_symbol
_atom_site_fract_x
_atom_site_fract_y
_atom_site_fract_z
U1 U 0.5000 0.5000 0.5000
O1 O 0.4955(7) 0.7374(6) 0.4227(3)
O2 O 0.7069(7) 0.3211(6) 0.3665(3)
O3 O 1.0827(7) 0.2647(6) 0.4301(3)
C1 C 0.8966(9) 0.2223(8) 0.3596(3)
C2 C 0.9030(9) 0.0489(8) 0.2661(3)
C3 C 0.9167(10) -0.2845(8) 0.0941(4)
C4 C 0.7454(10) 0.0371(9) 0.1777(4)
C5 C 1.0738(10) -0.2746(9) 0.1827(4)
C6 C 1.0673(10) -0.1102(9) 0.2683(4)
C7 C 0.7521(11) -0.1280(10) 0.0916(4)
N1 N 0.9104(9) -0.4457(8) 0.0011(3)
H1 H 1.184(10) -0.373(9) 0.182(4)
H2 H 1.171(9) -0.102(8) 0.326(4)
H3 H 0.638(11) -0.139(10) 0.029(5)
H4 H 0.651(9) 0.147(8) 0.177(4)
U1_2 U 1.5000 0.5000 0.5000
U1_3 U 1.5000 -1.5000 -0.5000
U1_4 U 0.5000 -1.5000 -0.5000
O1A O 0.5045(7) 0.2626(6) 0.5773(3)
O2A O 1.2931(7) -1.3211(6) -0.3665(3)
O2A_2 O 0.2931(7) 0.6789(6) 0.6335(3)
O3A O 0.9173(7) -1.2647(6) -0.4301(3)
O3_2 O 0.0827(7) 0.2647(6) 0.4301(3)
O3A_2 O 0.9173(7) 0.7353(6) 0.5699(3)
C1A C 1.1034(9) -1.2223(8) -0.3596(3)
C2A C 1.0970(9) -1.0489(8) -0.2661(3)
C3A C 1.0833(10) -0.7155(8) -0.0941(4)
C4A C 1.2546(10) -1.0371(9) -0.1777(4)
C5A C 0.9262(10) -0.7254(9) -0.1827(4)
C6A C 0.9327(10) -0.8898(9) -0.2683(4)
C7A C 1.2479(11) -0.8720(10) -0.0916(4)
N1A N 1.0896(9) -0.5543(8) -0.0011(3)
H1A H 0.816(10) -0.627(9) -0.182(4)
H2A H 0.829(9) -0.898(8) -0.326(4)
H3A H 1.362(11) -0.861(10) -0.029(5)
H4A H 1.349(9) -1.147(8) -0.177(4)
loop_
_geom_bond_atom_site_label_1
_geom_bond_atom_site_label_2
_geom_bond_site_symmetry_1
_geom_bond_site_symmetry_2
U1 O1 1_555 1_555
O2 U1 1_555 1_555
O3 C1 1_555 1_555
C1 O2 1_555 1_555
C2 C1 1_555 1_555
C3 C5 1_555 1_555
C4 C2 1_555 1_555
C5 C6 1_555 1_555
C6 C2 1_555 1_555
C7 C3 1_555 1_555
N1 C3 1_555 1_555
H1 C5 1_555 1_555
H2 C6 1_555 1_555
H3 C7 1_555 1_555
H4 C4 1_555 1_555
U1_2 O3 1_555 1_555
U1_3 O2A 1_555 1_555
U1_4 O3A 1_555 1_555
O1A U1 1_555 1_555
O2A C1A 1_555 1_555
O2A_2 U1 1_555 1_555
O3A C1A 1_555 1_555
O3_2 U1 1_555 1_555
O3A_2 U1 1_555 1_555
C1A C2A 1_555 1_555
C2A C4A 1_555 1_555
C3A C5A 1_555 1_555
C4A C7A 1_555 1_555
C5A C6A 1_555 1_555
C6A C2A 1_555 1_555
C7A C3A 1_555 1_555
N1A N1 1_555 1_555
H1A C5A 1_555 1_555
H2A C6A 1_555 1_555
H3A C7A 1_555 1_555
H4A C4A 1_555 1_555
C4 C7 1_555 1_555
C3A N1A 1_555 1_555

#END
