
#######################################################################
#
#                 Cambridge Crystallographic Data Centre
#                                CCDC 
#
#######################################################################
#
# If this CIF has been generated from an entry in the Cambridge 
# Structural Database, then it will include bibliographic, chemical, 
# crystal, experimental, refinement or atomic coordinate data resulting 
# from the CCDC's data processing and validation procedures.
#
#######################################################################

data_HEBMAE
_symmetry_cell_setting           triclinic
_symmetry_space_group_name_H-M   'P -1'
_symmetry_Int_Tables_number      2
_space_group_name_Hall           '-P 1'
loop_
_symmetry_equiv_pos_site_id
_symmetry_equiv_pos_as_xyz
1 x,y,z
2 -x,-y,-z
_cell_length_a                   9.909(4)
_cell_length_b                   11.996(2)
_cell_length_c                   12.106(2)
_cell_angle_alpha                119.497(2)
_cell_angle_beta                 97.858(3)
_cell_angle_gamma                103.503(3)
_cell_volume                     1162.77
loop_
_atom_site_label
_atom_site_type_symbol
_atom_site_fract_x
_atom_site_fract_y
_atom_site_fract_z
Co1 Co 0.40361(7) 0.05943(6) 0.38920(6)
O1 O 0.5264(4) -0.0565(4) 0.3035(4)
O2 O 0.5508(4) -0.1588(3) 0.4121(3)
O3 O 0.5902(7) -0.6215(6) 0.1301(7)
H1 H 0.6155 -0.6783 0.1379
O4 O 0.7582(9) -0.6320(7) 0.0236(7)
O5 O 0.6819(4) -0.0358(4) -0.2034(4)
O6 O 0.7730(4) -0.1411(4) -0.3625(4)
N1 N 0.5713(5) 0.2372(4) 0.4271(4)
N2 N 1.2316(4) 0.8920(4) 0.3643(4)
C1 C 0.5647(5) -0.1420(5) 0.3199(5)
C2 C 0.6301(5) -0.2293(5) 0.2216(5)
C3 C 0.6984(6) -0.1877(5) 0.1479(5)
H4 H 0.6996 -0.1057 0.1572
C4 C 0.7645(6) -0.2663(5) 0.0614(5)
C5 C 0.7592(6) -0.3896(6) 0.0467(5)
H5 H 0.8048 -0.4425 -0.0098
C6 C 0.6880(6) -0.4347(5) 0.1144(5)
C7 C 0.6270(6) -0.3538(5) 0.2040(5)
H6 H 0.5834 -0.3826 0.2533
C8 C 0.6817(8) -0.5676(8) 0.0862(7)
C9 C 0.8389(6) -0.2234(5) -0.0177(5)
C10 C 0.9757(6) -0.2299(6) -0.0240(6)
H7 H 1.0225 -0.2577 0.0247
C11 C 1.0441(6) -0.1960(6) -0.1010(6)
H8 H 1.1364 -0.2001 -0.1032
C12 C 0.9751(6) -0.1561(6) -0.1745(5)
H9 H 1.0190 -0.1370 -0.2293
C13 C 0.8401(6) -0.1442(5) -0.1671(5)
C14 C 0.7732(6) -0.1764(5) -0.0879(5)
H10 H 0.6837 -0.1667 -0.0815
C15 C 0.7610(6) -0.1035(5) -0.2490(5)
C16 C 0.6571(7) 0.2220(5) 0.3497(6)
H11 H 0.6532 0.1339 0.2892
C17 C 0.7512(7) 0.3285(6) 0.3535(7)
H12 H 0.8082 0.3107 0.2961
C18 C 0.7631(5) 0.4629(5) 0.4421(5)
C19 C 0.6781(7) 0.4780(5) 0.5264(6)
H13 H 0.6822 0.5649 0.5903
C20 C 0.5869(7) 0.3649(5) 0.5164(6)
H14 H 0.5331 0.3793 0.5762
C21 C 0.8556(5) 0.5794(5) 0.4473(5)
H15 H 0.8534 0.6651 0.5073
C22 C 0.9440(6) 0.5722(5) 0.3718(5)
H16 H 0.9464 0.4858 0.3144
C23 C 1.0360(6) 0.6826(5) 0.3688(5)
C24 C 1.1192(6) 0.6571(5) 0.2810(5)
H17 H 1.1111 0.5675 0.2211
C25 C 1.2119(6) 0.7605(5) 0.2810(5)
H18 H 1.2644 0.7383 0.2198
C26 C 1.1475(5) 0.9178(5) 0.4462(5)
H19 H 1.1553 1.0082 0.5023
C27 C 1.0519(6) 0.8203(5) 0.4524(5)
H20 H 0.9976 0.8450 0.5118
Co1A Co 0.59639(7) -0.05943(6) 0.61080(6)
Co1A_2 Co 0.59639(7) -0.05943(6) -0.38920(6)
Co1_2 Co 1.40361(7) 1.05943(6) 0.38920(6)
O2A O 0.4492(4) 0.1588(3) 0.5879(3)
O5A O 0.3181(4) 0.0358(4) 0.2034(4)
O6A O 0.2270(4) 0.1411(4) 0.3625(4)
N2_2 N 0.2316(4) -0.1080(4) 0.3643(4)
O7 O 0.5714(8) 0.1079(6) 0.9994(7)
H2 H 0.5868 0.0433 0.9359
H3 H 0.6471 0.1774 1.0379
loop_
_geom_bond_atom_site_label_1
_geom_bond_atom_site_label_2
_geom_bond_site_symmetry_1
_geom_bond_site_symmetry_2
Co1 O1 1_555 1_555
O1 C1 1_555 1_555
O2 C1 1_555 1_555
O3 H1 1_555 1_555
O4 C8 1_555 1_555
O5 C15 1_555 1_555
O6 C15 1_555 1_555
O7 H2 1_555 1_555
H3 O7 1_555 1_555
N1 Co1 1_555 1_555
N2 C25 1_555 1_555
C1 C2 1_555 1_555
C2 C3 1_555 1_555
C3 H4 1_555 1_555
C4 C3 1_555 1_555
C5 C4 1_555 1_555
H5 C5 1_555 1_555
C6 C5 1_555 1_555
C7 C2 1_555 1_555
H6 C7 1_555 1_555
C8 O3 1_555 1_555
C9 C4 1_555 1_555
C10 C9 1_555 1_555
H7 C10 1_555 1_555
C11 C10 1_555 1_555
H8 C11 1_555 1_555
C12 C11 1_555 1_555
H9 C12 1_555 1_555
C13 C12 1_555 1_555
C14 C9 1_555 1_555
H10 C14 1_555 1_555
C15 C13 1_555 1_555
C16 N1 1_555 1_555
H11 C16 1_555 1_555
C17 C16 1_555 1_555
H12 C17 1_555 1_555
C18 C17 1_555 1_555
C19 C18 1_555 1_555
H13 C19 1_555 1_555
C20 N1 1_555 1_555
H14 C20 1_555 1_555
C21 C18 1_555 1_555
H15 C21 1_555 1_555
C22 C21 1_555 1_555
H16 C22 1_555 1_555
C23 C22 1_555 1_555
C24 C23 1_555 1_555
H17 C24 1_555 1_555
C25 C24 1_555 1_555
H18 C25 1_555 1_555
C26 N2 1_555 1_555
H19 C26 1_555 1_555
C27 C23 1_555 1_555
H20 C27 1_555 1_555
Co1A O2 1_555 1_555
Co1A_2 O5 1_555 1_555
Co1_2 N2 1_555 1_555
O2A Co1 1_555 1_555
O5A Co1 1_555 1_555
O6A Co1 1_555 1_555
N2_2 Co1 1_555 1_555
O6 Co1A_2 1_555 1_555
C6 C7 1_555 1_555
C6 C8 1_555 1_555
C13 C14 1_555 1_555
C19 C20 1_555 1_555
C26 C27 1_555 1_555

#END
