
#######################################################################
#
#                 Cambridge Crystallographic Data Centre
#                                CCDC 
#
#######################################################################
#
# If this CIF has been generated from an entry in the Cambridge 
# Structural Database, then it will include bibliographic, chemical, 
# crystal, experimental, refinement or atomic coordinate data resulting 
# from the CCDC's data processing and validation procedures.
#
#######################################################################

data_HEBMEI
_symmetry_cell_setting           monoclinic
_symmetry_space_group_name_H-M   'C c'
_symmetry_Int_Tables_number      9
_space_group_name_Hall           'C -2yc'
loop_
_symmetry_equiv_pos_site_id
_symmetry_equiv_pos_as_xyz
1 x,y,z
2 x,-y,1/2+z
3 1/2+x,1/2+y,z
4 1/2+x,1/2-y,1/2+z
_cell_length_a                   19.623(9)
_cell_length_b                   12.731(6)
_cell_length_c                   11.297(5)
_cell_angle_alpha                90
_cell_angle_beta                 116.725(5)
_cell_angle_gamma                90
_cell_volume                     2520.74
loop_
_atom_site_label
_atom_site_type_symbol
_atom_site_fract_x
_atom_site_fract_y
_atom_site_fract_z
Ni1 Ni 1.09170(13) 0.13658(5) 0.9955(2)
O1 O 1.0866(5) 0.1762(7) 0.8105(8)
O2 O 1.1644(5) 0.2580(7) 0.9863(8)
O3 O 1.0173(4) 0.2567(6) -0.0005(7)
O4 O 1.0979(4) 0.1711(7) 0.1838(8)
O5 O 0.9092(6) 0.6007(8) 0.0363(10)
O6 O 0.9253(6) 0.6542(8) 0.2307(9)
H1 H 0.9643 0.6615 0.3004
N1 N 1.0052(6) 0.0250(8) 0.9309(11)
N2 N 0.6753(6) -0.5316(8) 0.5579(9)
C1 C 1.1286(7) 0.2445(11) 0.8603(11)
C2 C 1.1468(6) 0.3323(9) 0.7820(11)
C3 C 1.1092(7) 0.3255(10) 0.6407(12)
H4 H 1.0853 0.2636 0.5988
C4 C 1.1091(7) 0.4126(9) 0.5668(14)
C5 C 1.1571(6) 0.5006(10) 0.6313(11)
H5 H 1.1605 0.5578 0.5831
C6 C 1.1987(7) 0.4973(11) 0.7695(12)
H6 H 1.2341 0.5498 0.8134
C7 C 1.1881(7) 0.4185(9) 0.8402(11)
H7 H 1.2100 0.4241 0.9320
C8 C 1.0673(7) 0.4079(11) 0.4207(12)
C9 C 1.0750(7) 0.3283(9) 0.3427(11)
H8 H 1.1075 0.2724 0.3845
C10 C 1.0369(8) 0.3289(11) 0.2076(14)
C11 C 0.9870(7) 0.4152(10) 0.1393(13)
H9 H 0.9567 0.4145 0.0481
C12 C 0.9866(6) 0.5019(7) 0.2196(12)
C13 C 1.0262(7) 0.4956(8) 0.3548(13)
H10 H 1.0254 0.5532 0.4047
C14 C 1.0469(6) 0.2512(8) 0.1251(12)
C15 C 0.9381(5) 0.5889(7) 0.1541(8)
C16 C 1.0004(8) -0.0455(11) 1.0130(14)
H11 H 1.0343 -0.0459 1.1028
C17 C 0.9404(10) -0.1212(12) 0.9564(18)
H12 H 0.9383 -0.1741 1.0114
C18 C 0.8879(8) -0.1213(11) 0.8325(16)
C19 C 0.8955(9) -0.0509(13) 0.7468(15)
H13 H 0.8669 -0.0552 0.6553
C20 C 0.9512(7) 0.0298(10) 0.8101(13)
H14 H 0.9485 0.0898 0.7612
C21 C 0.8251(7) -0.2059(12) 0.7731(15)
H15 H 0.8135 -0.2334 0.8420
H16 H 0.7791 -0.1744 0.7054
C22 C 0.8504(7) -0.2952(10) 0.7128(14)
H17 H 0.8613 -0.2679 0.6429
H18 H 0.8969 -0.3259 0.7802
C23 C 0.7262(9) -0.5305(13) 0.6882(15)
H19 H 0.7198 -0.5750 0.7477
C24 C 0.7876(8) -0.4627(11) 0.7319(15)
H20 H 0.8285 -0.4750 0.8144
C25 C 0.7916(8) -0.3762(9) 0.6584(14)
C26 C 0.7366(7) -0.3763(11) 0.5237(15)
H21 H 0.7385 -0.3283 0.4633
C27 C 0.6832(8) -0.4469(11) 0.4886(14)
H22 H 0.6441 -0.4392 0.4031
Ni1_2 Ni 1.09170(13) 0.13658(5) -0.0045(2)
Ni1C Ni 0.59170(13) -0.63658(5) 0.4955(2)
O3_2 O 1.0173(4) 0.2567(6) 0.9995(7)
O4_2 O 1.0979(4) 0.1711(7) 1.1838(8)
N2C N 1.1753(6) 0.0316(8) 1.0579(9)
O7 O 0.8215(6) 0.7851(10) 0.1190(12)
H2 H 0.7737 0.7746 0.0767
H3 H 0.8450 0.7381 0.0982
loop_
_geom_bond_atom_site_label_1
_geom_bond_atom_site_label_2
_geom_bond_site_symmetry_1
_geom_bond_site_symmetry_2
Ni1 O1 1_555 1_555
O1 C1 1_555 1_555
O2 Ni1 1_555 1_555
O3 C14 1_555 1_555
O4 C14 1_555 1_555
O5 C15 1_555 1_555
O6 H1 1_555 1_555
O7 H2 1_555 1_555
H3 O7 1_555 1_555
N1 Ni1 1_555 1_555
N2 C23 1_555 1_555
C1 O2 1_555 1_555
C2 C1 1_555 1_555
C3 C2 1_555 1_555
H4 C3 1_555 1_555
C4 C3 1_555 1_555
C5 C4 1_555 1_555
H5 C5 1_555 1_555
C6 C5 1_555 1_555
H6 C6 1_555 1_555
C7 C2 1_555 1_555
H7 C7 1_555 1_555
C8 C4 1_555 1_555
C9 C8 1_555 1_555
H8 C9 1_555 1_555
C10 C9 1_555 1_555
C11 C10 1_555 1_555
H9 C11 1_555 1_555
C12 C11 1_555 1_555
C13 C8 1_555 1_555
H10 C13 1_555 1_555
C14 C10 1_555 1_555
C15 O6 1_555 1_555
C16 N1 1_555 1_555
H11 C16 1_555 1_555
C17 C16 1_555 1_555
H12 C17 1_555 1_555
C18 C17 1_555 1_555
C19 C18 1_555 1_555
H13 C19 1_555 1_555
C20 N1 1_555 1_555
H14 C20 1_555 1_555
C21 C18 1_555 1_555
H15 C21 1_555 1_555
H16 C21 1_555 1_555
C22 C21 1_555 1_555
H17 C22 1_555 1_555
H18 C22 1_555 1_555
C23 H19 1_555 1_555
C24 C23 1_555 1_555
H20 C24 1_555 1_555
C25 C22 1_555 1_555
C26 C25 1_555 1_555
H21 C26 1_555 1_555
C27 N2 1_555 1_555
H22 C27 1_555 1_555
Ni1_2 O3 1_555 1_555
Ni1C N2 1_555 1_555
O3_2 Ni1 1_555 1_555
O4_2 Ni1 1_555 1_555
N2C Ni1 1_555 1_555
O4 Ni1_2 1_555 1_555
C6 C7 1_555 1_555
C12 C13 1_555 1_555
C12 C15 1_555 1_555
C19 C20 1_555 1_555
C24 C25 1_555 1_555
C26 C27 1_555 1_555

#END
