
#######################################################################
#
#                 Cambridge Crystallographic Data Centre
#                                CCDC 
#
#######################################################################
#
# If this CIF has been generated from an entry in the Cambridge 
# Structural Database, then it will include bibliographic, chemical, 
# crystal, experimental, refinement or atomic coordinate data resulting 
# from the CCDC's data processing and validation procedures.
#
#######################################################################

data_HEBNAF
_symmetry_cell_setting           monoclinic
_symmetry_space_group_name_H-M   'C c'
_symmetry_Int_Tables_number      9
_space_group_name_Hall           'C -2yc'
loop_
_symmetry_equiv_pos_site_id
_symmetry_equiv_pos_as_xyz
1 x,y,z
2 x,-y,1/2+z
3 1/2+x,1/2+y,z
4 1/2+x,1/2-y,1/2+z
_cell_length_a                   12.4567(16)
_cell_length_b                   20.188(3)
_cell_length_c                   8.1381(10)
_cell_angle_alpha                90
_cell_angle_beta                 115.5500(10)
_cell_angle_gamma                90
_cell_volume                     1846.4
loop_
_atom_site_label
_atom_site_type_symbol
_atom_site_fract_x
_atom_site_fract_y
_atom_site_fract_z
Zn1 Zn 0.41219(3) 0.384128(11) 0.30638(4)
O1 O 0.5670(2) 0.42106(11) 0.3796(4)
O2 O 0.5326(2) 0.52764(13) 0.3268(5)
O3 O 0.85623(18) 0.14845(10) 1.5587(3)
O4 O 0.7461(2) 0.21922(15) 1.6250(3)
N1 N 1.1028(2) 0.51830(11) 0.7197(3)
N2 N 1.1776(2) 0.47214(14) 0.8352(5)
N3 N 1.27921(19) 0.55782(11) 0.8014(3)
N4 N 0.5486(2) 0.26764(11) 0.7703(3)
N5 N 0.4997(3) 0.21749(11) 0.6490(3)
N6 N 0.4598(2) 0.31587(10) 0.5075(3)
C1 C 0.7333(3) 0.49032(15) 0.4734(5)
C2 C 0.8099(3) 0.43810(16) 0.5235(8)
H1 H 0.7791 0.3953 0.5012
C3 C 0.9304(4) 0.44644(19) 0.6053(9)
H2 H 0.9806 0.4098 0.6387
C4 C 0.9763(2) 0.50842(14) 0.6376(4)
C5 C 0.9034(4) 0.5602(2) 0.5955(9)
H3 H 0.9351 0.6027 0.6197
C6 C 0.7814(3) 0.55190(17) 0.5164(8)
H4 H 0.7319 0.5887 0.4923
C7 C 0.5996(3) 0.48064(14) 0.3845(4)
C8 C 1.2825(3) 0.49788(18) 0.8790(5)
H5 H 1.3529 0.4771 0.9561
C9 C 1.1659(2) 0.56798(14) 0.7011(4)
H6 H 1.1342 0.6048 0.6273
C10 C 0.7267(3) 0.21698(14) 1.3205(4)
C11 C 0.6573(3) 0.27380(14) 1.2694(4)
H7 H 0.6485 0.2995 1.3577
C12 C 0.6009(3) 0.29254(16) 1.0886(4)
H8 H 0.5559 0.3312 1.0547
C13 C 0.6126(2) 0.25327(13) 0.9602(4)
C14 C 0.6862(3) 0.19779(17) 1.0096(5)
H9 H 0.6972 0.1730 0.9217
C15 C 0.7423(3) 0.18027(14) 1.1899(4)
H10 H 0.7914 0.1432 1.2243
C16 C 0.7800(3) 0.19404(15) 1.5168(4)
C17 C 0.4479(3) 0.24840(13) 0.4943(4)
H11 H 0.4065 0.2266 0.3842
C18 C 0.5240(2) 0.32592(12) 0.6834(4)
H12 H 0.5484 0.3671 0.7384
Zn1A Zn 1.41219(3) 0.615872(11) 0.80638(4)
Zn1C Zn 0.91219(3) 0.115872(11) 1.80638(4)
O3C O 0.35623(18) 0.35155(10) 0.0587(3)
N3A N 0.27921(19) 0.44218(11) 0.3014(3)
loop_
_geom_bond_atom_site_label_1
_geom_bond_atom_site_label_2
_geom_bond_site_symmetry_1
_geom_bond_site_symmetry_2
Zn1 O1 1_555 1_555
O1 C7 1_555 1_555
O2 C7 1_555 1_555
O3 C16 1_555 1_555
O4 C16 1_555 1_555
N1 N2 1_555 1_555
N2 C8 1_555 1_555
N3 C8 1_555 1_555
N4 N5 1_555 1_555
N5 C17 1_555 1_555
N6 Zn1 1_555 1_555
C1 C2 1_555 1_555
C2 H1 1_555 1_555
C3 C2 1_555 1_555
H2 C3 1_555 1_555
C4 N1 1_555 1_555
C5 C4 1_555 1_555
H3 C5 1_555 1_555
C6 C1 1_555 1_555
H4 C6 1_555 1_555
C7 C1 1_555 1_555
C8 H5 1_555 1_555
C9 N1 1_555 1_555
H6 C9 1_555 1_555
C10 C11 1_555 1_555
C11 H7 1_555 1_555
C12 C11 1_555 1_555
H8 C12 1_555 1_555
C13 N4 1_555 1_555
C14 C13 1_555 1_555
H9 C14 1_555 1_555
C15 C10 1_555 1_555
H10 C15 1_555 1_555
C16 C10 1_555 1_555
C17 N6 1_555 1_555
H11 C17 1_555 1_555
C18 N4 1_555 1_555
H12 C18 1_555 1_555
Zn1A N3 1_555 1_555
Zn1C O3 1_555 1_555
O3C Zn1 1_555 1_555
N3A Zn1 1_555 1_555
N3 C9 1_555 1_555
N6 C18 1_555 1_555
C3 C4 1_555 1_555
C5 C6 1_555 1_555
C12 C13 1_555 1_555
C14 C15 1_555 1_555

#END
