
#######################################################################
#
#                 Cambridge Crystallographic Data Centre
#                                CCDC 
#
#######################################################################
#
# If this CIF has been generated from an entry in the Cambridge 
# Structural Database, then it will include bibliographic, chemical, 
# crystal, experimental, refinement or atomic coordinate data resulting 
# from the CCDC's data processing and validation procedures.
#
#######################################################################

data_HEBNIM
_symmetry_cell_setting           triclinic
_symmetry_space_group_name_H-M   'P 1'
_symmetry_Int_Tables_number      1
_space_group_name_Hall           'P 1'
loop_
_symmetry_equiv_pos_site_id
_symmetry_equiv_pos_as_xyz
1 x,y,z
_cell_length_a                   7.3050(3)
_cell_length_b                   11.0525(4)
_cell_length_c                   11.3905(5)
_cell_angle_alpha                75.3660(10)
_cell_angle_beta                 81.8210(10)
_cell_angle_gamma                85.8790(10)
_cell_volume                     880.147
loop_
_atom_site_label
_atom_site_type_symbol
_atom_site_fract_x
_atom_site_fract_y
_atom_site_fract_z
Ag1 Ag 1.01291(2) 0.797976(15) 0.442710(14)
Cl1 Cl 0.92546(8) 1.02107(5) 0.40119(5)
N1 N 1.1120(3) 0.52023(17) 0.44780(16)
C1 C 1.1243(3) 0.6393(2) 0.38062(19)
Ag2 Ag 1.360221(18) 0.790271(14) 0.561067(13)
Cl2 Cl 0.76422(8) 0.72151(5) 0.65563(5)
N2 N 1.2097(3) 0.62260(17) 0.27169(17)
C2 C 1.1867(3) 0.4391(2) 0.3803(2)
Ag3 Ag 0.66478(2) 0.938550(16) 0.615710(16)
Cl3 Cl 0.54030(8) 1.13088(5) 0.65546(6)
N3 N 1.2497(3) 0.49782(18) 0.26961(18)
C3 C 1.1779(4) 0.3069(2) 0.4537(2)
H1 H 1.3032 0.2698 0.4664
H2 H 1.1145 0.2550 0.4138
N4 N 1.5125(3) 0.95830(18) 0.31704(17)
C4 C 1.0638(4) 0.3196(2) 0.5766(2)
H3 H 0.9394 0.2859 0.5849
H4 H 1.1270 0.2722 0.6464
N5 N 1.6163(2) 0.77812(18) 0.31003(16)
C5 C 1.0468(4) 0.4597(2) 0.5754(2)
H5 H 0.9170 0.4858 0.5985
H6 H 1.1256 0.4791 0.6316
N6 N 1.6932(3) 0.85599(19) 0.20030(18)
C6 C 1.2663(3) 0.7172(2) 0.1627(2)
N7 N 1.0943(2) 0.87101(18) 0.76046(17)
C7 C 1.2045(3) 0.8394(2) 0.1520(2)
H7 H 1.1216 0.8618 0.2159
N8 N 1.1368(3) 0.67740(18) 0.82382(17)
C8 C 1.2643(4) 0.9302(3) 0.0467(2)
H8 H 1.2237 1.0151 0.0394
N9 N 1.0067(3) 0.71155(19) 0.91324(17)
C9 C 1.3830(3) 0.8971(3) -0.0478(2)
H9 H 1.4230 0.9589 -0.1198
C10 C 1.4420(4) 0.7738(3) -0.0361(2)
H10 H 1.5223 0.7509 -0.1009
C11 C 1.3858(3) 0.6826(2) 0.0690(2)
H11 H 1.4282 0.5980 0.0769
C12 C 1.5060(3) 0.8388(2) 0.3835(2)
C13 C 1.6261(3) 0.9651(2) 0.2097(2)
C14 C 1.6417(4) 1.0984(2) 0.1379(2)
H12 H 1.6263 1.1075 0.0512
H13 H 1.7621 1.1318 0.1423
C15 C 1.4787(4) 1.1639(2) 0.2044(2)
H14 H 1.5132 1.2480 0.2073
H15 H 1.3682 1.1731 0.1611
C16 C 1.4385(3) 1.0797(2) 0.3348(2)
H16 H 1.5035 1.1076 0.3934
H17 H 1.3042 1.0776 0.3637
C17 C 1.6543(3) 0.6456(2) 0.3287(2)
C18 C 1.5914(3) 0.5644(2) 0.4390(2)
H18 H 1.5252 0.5960 0.5037
C19 C 1.6261(3) 0.4361(2) 0.4542(2)
H19 H 1.5815 0.3800 0.5293
C20 C 1.7250(3) 0.3895(2) 0.3610(3)
H20 H 1.7487 0.3020 0.3718
C21 C 1.7888(3) 0.4719(2) 0.2521(2)
H21 H 1.8574 0.4403 0.1882
C22 C 1.7547(3) 0.5995(2) 0.2344(2)
H22 H 1.7990 0.6552 0.1590
C23 C 1.1900(3) 0.7737(2) 0.7276(2)
C24 C 0.9862(3) 0.8315(2) 0.86962(19)
C25 C 0.8760(3) 0.9374(2) 0.9068(2)
H23 H 0.8886 0.9382 0.9920
H24 H 0.7434 0.9337 0.8990
C26 C 0.9648(3) 1.0523(2) 0.8142(2)
H25 H 0.8677 1.1151 0.7843
H26 H 1.0485 1.0916 0.8538
C27 C 1.0750(3) 1.0061(2) 0.7065(2)
H27 H 1.0055 1.0239 0.6351
H28 H 1.1971 1.0447 0.6814
C28 C 1.1953(3) 0.5493(2) 0.8412(2)
C29 C 1.0692(4) 0.4582(2) 0.9010(2)
H29 H 0.9467 0.4810 0.9305
C30 C 1.1264(5) 0.3331(3) 0.9166(3)
H30 H 1.0423 0.2699 0.9583
C31 C 1.3038(5) 0.2992(3) 0.8725(3)
H31 H 1.3406 0.2134 0.8827
C32 C 1.4265(4) 0.3907(2) 0.8139(2)
H32 H 1.5481 0.3675 0.7831
C33 C 1.3755(3) 0.5164(2) 0.7990(2)
H33 H 1.4621 0.5790 0.7605
Ag2_2 Ag 0.360221(18) 0.790271(14) 0.561067(13)
Ag3_2 Ag 1.66478(2) 0.938550(16) 0.615710(16)
loop_
_geom_bond_atom_site_label_1
_geom_bond_atom_site_label_2
_geom_bond_site_symmetry_1
_geom_bond_site_symmetry_2
Ag1 Cl1 1_555 1_555
Cl1 Ag3 1_555 1_555
N1 C1 1_555 1_555
C1 Ag1 1_555 1_555
Ag2 Ag1 1_555 1_555
Cl2 Ag1 1_555 1_555
N2 C1 1_555 1_555
C2 N1 1_555 1_555
Ag3 Cl2 1_555 1_555
Cl3 Ag3 1_555 1_555
N3 N2 1_555 1_555
C3 C2 1_555 1_555
H1 C3 1_555 1_555
H2 C3 1_555 1_555
N4 C12 1_555 1_555
C4 C3 1_555 1_555
H3 C4 1_555 1_555
H4 C4 1_555 1_555
N5 N6 1_555 1_555
C5 N1 1_555 1_555
H5 C5 1_555 1_555
H6 C5 1_555 1_555
N6 C13 1_555 1_555
C6 N2 1_555 1_555
N7 C23 1_555 1_555
C7 C6 1_555 1_555
H7 C7 1_555 1_555
N8 N9 1_555 1_555
C8 C7 1_555 1_555
H8 C8 1_555 1_555
N9 C24 1_555 1_555
C9 C8 1_555 1_555
H9 C9 1_555 1_555
C10 C9 1_555 1_555
H10 C10 1_555 1_555
C11 C6 1_555 1_555
H11 C11 1_555 1_555
C12 Ag2 1_555 1_555
C13 N4 1_555 1_555
C14 C13 1_555 1_555
H12 C14 1_555 1_555
H13 C14 1_555 1_555
C15 C14 1_555 1_555
H14 C15 1_555 1_555
H15 C15 1_555 1_555
C16 N4 1_555 1_555
H16 C16 1_555 1_555
H17 C16 1_555 1_555
C17 N5 1_555 1_555
C18 C17 1_555 1_555
H18 C18 1_555 1_555
C19 C18 1_555 1_555
H19 C19 1_555 1_555
C20 C19 1_555 1_555
H20 C20 1_555 1_555
C21 C20 1_555 1_555
H21 C21 1_555 1_555
C22 C17 1_555 1_555
H22 C22 1_555 1_555
C23 Ag2 1_555 1_555
C24 N7 1_555 1_555
C25 C24 1_555 1_555
H23 C25 1_555 1_555
H24 C25 1_555 1_555
C26 C25 1_555 1_555
H25 C26 1_555 1_555
H26 C26 1_555 1_555
C27 N7 1_555 1_555
H27 C27 1_555 1_555
H28 C27 1_555 1_555
C28 N8 1_555 1_555
C29 C28 1_555 1_555
H29 C29 1_555 1_555
C30 C29 1_555 1_555
H30 C30 1_555 1_555
C31 C30 1_555 1_555
H31 C31 1_555 1_555
C32 C31 1_555 1_555
H32 C32 1_555 1_555
C33 C28 1_555 1_555
H33 C33 1_555 1_555
Ag2_2 Ag3 1_555 1_555
Ag3_2 Ag2 1_555 1_555
C2 N3 1_555 1_555
C4 C5 1_555 1_555
N5 C12 1_555 1_555
N8 C23 1_555 1_555
C10 C11 1_555 1_555
C15 C16 1_555 1_555
C21 C22 1_555 1_555
C26 C27 1_555 1_555
C32 C33 1_555 1_555

#END
