
#######################################################################
#
#                 Cambridge Crystallographic Data Centre
#                                CCDC 
#
#######################################################################
#
# If this CIF has been generated from an entry in the Cambridge 
# Structural Database, then it will include bibliographic, chemical, 
# crystal, experimental, refinement or atomic coordinate data resulting 
# from the CCDC's data processing and validation procedures.
#
#######################################################################

data_HEBQAI
_symmetry_cell_setting           triclinic
_symmetry_space_group_name_H-M   'P 1'
_symmetry_Int_Tables_number      1
_space_group_name_Hall           'P 1'
loop_
_symmetry_equiv_pos_site_id
_symmetry_equiv_pos_as_xyz
1 x,y,z
_cell_length_a                   8.0737(6)
_cell_length_b                   9.4441(6)
_cell_length_c                   15.4214(12)
_cell_angle_alpha                88.011(6)
_cell_angle_beta                 89.276(5)
_cell_angle_gamma                75.105(5)
_cell_volume                     1135.66
loop_
_atom_site_label
_atom_site_type_symbol
_atom_site_fract_x
_atom_site_fract_y
_atom_site_fract_z
Cd1 Cd 0.64030(5) 0.06915(4) 0.56207(3)
O1 O 0.3553(10) 0.0638(8) 0.6097(4)
O2 O 0.6831(14) -0.1140(10) 0.6637(8)
O3 O 0.8354(7) -0.7859(5) 0.5774(4)
O4 O 0.6166(8) -0.7469(7) 0.6661(5)
O10 O 0.9052(10) -0.1852(7) 0.5808(5)
N1 N 0.4661(8) 0.2453(7) 0.4676(4)
N2 N 0.6843(8) -0.0023(7) 0.4168(5)
N5 N 0.2446(8) 0.0090(7) 0.7389(5)
C1 C 0.8450(9) -0.3545(7) 0.6890(5)
C2 C 0.7246(12) -0.4457(9) 0.6569(6)
C3 C 0.8178(9) -0.6037(8) 0.6858(5)
H1 H 0.7947 -0.6140 0.7479
C4 C 1.0220(9) -0.4553(8) 0.6704(6)
H2 H 1.1042 -0.4415 0.7125
H3 H 1.0607 -0.4329 0.6130
C5 C 1.0066(10) -0.6165(8) 0.6762(7)
H4 H 1.0514 -0.6678 0.6241
H5 H 1.0689 -0.6689 0.7260
C6 C 0.8268(12) -0.3316(9) 0.7865(5)
H6 H 0.7152 -0.2698 0.7989
H7 H 0.9129 -0.2860 0.8054
H8 H 0.8407 -0.4246 0.8165
C7 C 0.7055(11) -0.4335(8) 0.5580(5)
H9 H 0.8167 -0.4625 0.5314
H10 H 0.6509 -0.3340 0.5407
H11 H 0.6369 -0.4965 0.5399
C8 C 0.5411(13) -0.3994(12) 0.6953(8)
H12 H 0.5469 -0.4058 0.7575
H13 H 0.4754 -0.4635 0.6755
H14 H 0.4872 -0.3004 0.6767
C9 C 0.8086(14) -0.2070(10) 0.6401(7)
C10 C 0.7519(10) -0.7231(8) 0.6396(5)
C11 C 0.4752(11) 0.2237(9) 0.3818(6)
C12 C 0.3699(10) 0.3237(9) 0.3237(6)
H15 H 0.3760 0.3072 0.2645
C13 C 0.2561(10) 0.4480(9) 0.3557(6)
H16 H 0.1870 0.5166 0.3180
C14 C 0.2475(10) 0.4676(8) 0.4428(6)
H17 H 0.1720 0.5489 0.4664
C15 C 0.3547(10) 0.3627(9) 0.4948(6)
H18 H 0.3477 0.3762 0.5544
C16 C 0.6017(10) 0.0887(9) 0.3531(6)
C17 C 0.6277(11) 0.0586(10) 0.2660(6)
H19 H 0.5661 0.1219 0.2234
C18 C 0.7503(10) -0.0709(8) 0.2436(5)
H20 H 0.7730 -0.0930 0.1857
C19 C 0.8343(11) -0.1622(9) 0.3073(6)
H21 H 0.9140 -0.2492 0.2943
C20 C 0.7986(11) -0.1231(10) 0.3925(6)
H22 H 0.8587 -0.1856 0.4359
C44 C 0.2520(17) 0.0216(16) 0.8326(7)
H52 H 0.3338 0.0755 0.8460
H53 H 0.2861 -0.0745 0.8596
H54 H 0.1410 0.0721 0.8538
C45 C 0.3585(13) 0.0617(10) 0.6910(10)
H55 H 0.4405 0.0969 0.7188
C46 C 0.1347(12) -0.0629(12) 0.7044(9)
H56 H 0.1475 -0.0638 0.6425
H57 H 0.0189 -0.0134 0.7192
H58 H 0.1608 -0.1618 0.7276
Cd1_2 Cd 0.64030(5) -0.93085(4) 0.56207(3)
O3_2 O 0.8354(7) 0.2141(5) 0.5774(4)
O4_2 O 0.6166(8) 0.2531(7) 0.6661(5)
Cd2 Cd 1.15917(5) 0.09457(4) 1.13147(3)
O5 O 0.8913(6) 0.0781(6) 1.0759(4)
O6 O 1.4565(8) -0.1847(6) 1.1213(4)
O7 O 1.2376(10) -0.0789(8) 1.0394(6)
O8 O 1.1272(8) -0.7068(7) 1.0266(5)
O9 O 1.3525(6) -0.7609(5) 1.1119(3)
N3 N 1.1937(7) 0.0072(7) 1.2763(4)
N4 N 0.9782(7) 0.2610(6) 1.2239(4)
N6 N 0.7670(7) 0.0575(7) 0.9473(4)
C21 C 1.1020(10) 0.0897(9) 1.3393(6)
C22 C 1.1206(11) 0.0491(10) 1.4272(6)
H23 H 1.0584 0.1091 1.4693
C23 C 1.2346(10) -0.0833(9) 1.4498(6)
H24 H 1.2478 -0.1150 1.5076
C24 C 1.3291(11) -0.1684(9) 1.3857(6)
H25 H 1.4078 -0.2567 1.3998
C25 C 1.3034(11) -0.1186(9) 1.3007(7)
H26 H 1.3664 -0.1761 1.2579
C26 C 0.9786(11) 0.2281(9) 1.3095(6)
C27 C 0.8706(10) 0.3217(9) 1.3651(6)
H27 H 0.8724 0.2992 1.4244
C28 C 0.7602(9) 0.4485(9) 1.3322(6)
H28 H 0.6874 0.5121 1.3692
C29 C 0.7587(10) 0.4800(9) 1.2444(6)
H29 H 0.6846 0.5640 1.2205
C30 C 0.8694(9) 0.3840(9) 1.1939(6)
H30 H 0.8695 0.4053 1.1346
C31 C 1.3391(9) -0.5687(7) 1.0030(5)
C32 C 1.2543(12) -0.4123(9) 1.0378(6)
C33 C 1.3779(9) -0.3209(7) 1.0059(5)
H31 H 1.3508 -0.2894 0.9454
C34 C 1.5570(9) -0.4252(8) 1.0093(6)
H32 H 1.6219 -0.4020 1.0569
H33 H 1.6184 -0.4177 0.9556
C35 C 1.5309(9) -0.5833(8) 1.0230(6)
H34 H 1.5575 -0.6190 1.0823
H35 H 1.6042 -0.6507 0.9840
C36 C 1.3093(12) -0.5753(9) 0.9057(5)
H36 H 1.1897 -0.5647 0.8953
H37 H 1.3745 -0.6679 0.8850
H38 H 1.3451 -0.4974 0.8756
C37 C 1.0719(12) -0.3437(11) 1.0006(8)
H39 H 1.0270 -0.2482 1.0237
H40 H 0.9979 -0.4053 1.0167
H41 H 1.0783 -0.3353 0.9385
C38 C 1.2338(11) -0.4169(8) 1.1354(5)
H42 H 1.1811 -0.3201 1.1547
H43 H 1.3443 -0.4523 1.1619
H44 H 1.1629 -0.4811 1.1515
C39 C 1.2692(9) -0.6887(7) 1.0501(5)
C40 C 0.7505(11) 0.1001(10) 0.8561(5)
H45 H 0.8323 0.1548 0.8408
H46 H 0.6368 0.1598 0.8449
H47 H 0.7716 0.0140 0.8220
C41 C 0.6518(9) -0.0245(8) 0.9849(5)
H48 H 0.6774 -0.0451 1.0453
H49 H 0.6668 -0.1149 0.9555
H50 H 0.5354 0.0326 0.9786
C42 C 0.8765(10) 0.1020(8) 0.9973(6)
H51 H 0.9467 0.1549 0.9706
C43 C 1.3549(13) -0.1816(10) 1.0614(6)
Cd2_2 Cd 1.15917(5) -0.90543(4) 1.13147(3)
O8_2 O 1.1272(8) 0.2932(7) 1.0266(5)
O9_2 O 1.3525(6) 0.2391(5) 1.1119(3)
loop_
_geom_bond_atom_site_label_1
_geom_bond_atom_site_label_2
_geom_bond_site_symmetry_1
_geom_bond_site_symmetry_2
Cd1 O1 1_555 1_555
Cd2 O5 1_555 1_555
O1 C45 1_555 1_555
O2 Cd1 1_555 1_555
O3 C10 1_555 1_555
O4 C10 1_555 1_555
O5 C42 1_555 1_555
O6 C43 1_555 1_555
O7 Cd2 1_555 1_555
O8 C39 1_555 1_555
O9 C39 1_555 1_555
O10 C9 1_555 1_555
N1 Cd1 1_555 1_555
N2 Cd1 1_555 1_555
N3 Cd2 1_555 1_555
N4 Cd2 1_555 1_555
N5 C44 1_555 1_555
N6 C40 1_555 1_555
C1 C2 1_555 1_555
C2 C3 1_555 1_555
C3 H1 1_555 1_555
C4 C1 1_555 1_555
H2 C4 1_555 1_555
H3 C4 1_555 1_555
C5 C3 1_555 1_555
H4 C5 1_555 1_555
H5 C5 1_555 1_555
C6 C1 1_555 1_555
H6 C6 1_555 1_555
H7 C6 1_555 1_555
H8 C6 1_555 1_555
C7 C2 1_555 1_555
H9 C7 1_555 1_555
H10 C7 1_555 1_555
H11 C7 1_555 1_555
C8 C2 1_555 1_555
H12 C8 1_555 1_555
H13 C8 1_555 1_555
H14 C8 1_555 1_555
C9 O2 1_555 1_555
C10 C3 1_555 1_555
C11 N1 1_555 1_555
C12 C11 1_555 1_555
H15 C12 1_555 1_555
C13 C12 1_555 1_555
H16 C13 1_555 1_555
C14 C13 1_555 1_555
H17 C14 1_555 1_555
C15 N1 1_555 1_555
H18 C15 1_555 1_555
C16 N2 1_555 1_555
C17 C16 1_555 1_555
H19 C17 1_555 1_555
C18 C17 1_555 1_555
H20 C18 1_555 1_555
C19 C18 1_555 1_555
H21 C19 1_555 1_555
C20 N2 1_555 1_555
H22 C20 1_555 1_555
C21 N3 1_555 1_555
C22 C21 1_555 1_555
H23 C22 1_555 1_555
C23 C22 1_555 1_555
H24 C23 1_555 1_555
C24 C23 1_555 1_555
H25 C24 1_555 1_555
C25 N3 1_555 1_555
H26 C25 1_555 1_555
C26 N4 1_555 1_555
C27 C26 1_555 1_555
H27 C27 1_555 1_555
C28 C27 1_555 1_555
H28 C28 1_555 1_555
C29 C28 1_555 1_555
H29 C29 1_555 1_555
C30 N4 1_555 1_555
H30 C30 1_555 1_555
C31 C32 1_555 1_555
C32 C33 1_555 1_555
C33 H31 1_555 1_555
C34 C33 1_555 1_555
H32 C34 1_555 1_555
H33 C34 1_555 1_555
C35 C31 1_555 1_555
H34 C35 1_555 1_555
H35 C35 1_555 1_555
C36 C31 1_555 1_555
H36 C36 1_555 1_555
H37 C36 1_555 1_555
H38 C36 1_555 1_555
C37 C32 1_555 1_555
H39 C37 1_555 1_555
H40 C37 1_555 1_555
H41 C37 1_555 1_555
C38 C32 1_555 1_555
H42 C38 1_555 1_555
H43 C38 1_555 1_555
H44 C38 1_555 1_555
C39 C31 1_555 1_555
C40 H45 1_555 1_555
H46 C40 1_555 1_555
H47 C40 1_555 1_555
C41 N6 1_555 1_555
H48 C41 1_555 1_555
H49 C41 1_555 1_555
H50 C41 1_555 1_555
C42 N6 1_555 1_555
H51 C42 1_555 1_555
C43 O7 1_555 1_555
C44 H52 1_555 1_555
H53 C44 1_555 1_555
H54 C44 1_555 1_555
C45 N5 1_555 1_555
H55 C45 1_555 1_555
C46 N5 1_555 1_555
H56 C46 1_555 1_555
H57 C46 1_555 1_555
H58 C46 1_555 1_555
Cd1_2 O3 1_555 1_555
Cd2_2 O8 1_555 1_555
O3_2 Cd1 1_555 1_555
O4_2 Cd1 1_555 1_555
O8_2 Cd2 1_555 1_555
O9_2 Cd2 1_555 1_555
O4 Cd1_2 1_555 1_555
O9 Cd2_2 1_555 1_555
C1 C9 1_555 1_555
C4 C5 1_555 1_555
C11 C16 1_555 1_555
C14 C15 1_555 1_555
C19 C20 1_555 1_555
C21 C26 1_555 1_555
C24 C25 1_555 1_555
C29 C30 1_555 1_555
C33 C43 1_555 1_555
C34 C35 1_555 1_555

#END
