
#######################################################################
#
#                 Cambridge Crystallographic Data Centre
#                                CCDC 
#
#######################################################################
#
# If this CIF has been generated from an entry in the Cambridge 
# Structural Database, then it will include bibliographic, chemical, 
# crystal, experimental, refinement or atomic coordinate data resulting 
# from the CCDC's data processing and validation procedures.
#
#######################################################################

data_HEBRUD
_symmetry_cell_setting           triclinic
_symmetry_space_group_name_H-M   'P -1'
_symmetry_Int_Tables_number      2
_space_group_name_Hall           '-P 1'
loop_
_symmetry_equiv_pos_site_id
_symmetry_equiv_pos_as_xyz
1 x,y,z
2 -x,-y,-z
_cell_length_a                   9.3712(7)
_cell_length_b                   10.5487(8)
_cell_length_c                   11.0387(9)
_cell_angle_alpha                96.5090(10)
_cell_angle_beta                 104.8080(10)
_cell_angle_gamma                109.3190(10)
_cell_volume                     971.867
loop_
_atom_site_label
_atom_site_type_symbol
_atom_site_fract_x
_atom_site_fract_y
_atom_site_fract_z
Mn1 Mn 1.0000 1.0000 1.0000
C1 C 0.8554(2) 1.14895(19) 1.17057(18)
C2 C 0.9682(2) 1.14733(18) 1.29447(18)
C3 C 1.0890(2) 1.08873(18) 1.30322(18)
C4 C 1.1799(2) 1.09615(19) 1.43392(18)
C5 C 1.2982(2) 1.0408(2) 1.46319(19)
H1 H 1.3195 0.9985 1.3951
C6 C 1.3483(2) 1.10962(19) 1.67661(17)
C7 C 1.1570(2) 1.15998(18) 1.54228(18)
C8 C 0.9548(2) 1.20842(19) 1.40453(18)
H2 H 0.8790 1.2485 1.3957
C9 C 1.0187(3) 1.2879(2) 1.6378(2)
H3 H 1.0337 1.2405 1.7076
H4 H 0.9103 1.2848 1.6150
C10 C 1.1324(4) 1.4356(3) 1.6826(3)
H5 H 1.1140 1.4784 1.7555
H6 H 1.1160 1.4835 1.6146
H7 H 1.2399 1.4392 1.7063
C11 C 1.4313(2) 1.2022(2) 1.90815(18)
H8 H 1.4399 1.1600 1.9820
H9 H 1.3332 1.2192 1.8893
C12 C 1.5721(2) 1.3368(2) 1.9378(2)
H10 H 1.5562 1.3843 1.8683
H11 H 1.5798 1.3952 2.0156
C13 C 1.7155(2) 1.2085(2) 1.8461(2)
H12 H 1.8121 1.1890 1.8664
H13 H 1.7066 1.2452 1.7690
C14 C 1.5724(2) 1.0776(2) 1.82388(19)
H14 H 1.5641 1.0111 1.7516
H15 H 1.5843 1.0380 1.8992
C15 C 1.2446(2) 1.3731(2) 1.1754(2)
C16 C 1.2241(3) 1.4690(2) 1.2586(2)
H16 H 1.1433 1.5013 1.2295
C17 C 1.3221(3) 1.5174(2) 1.3844(2)
H17 H 1.3051 1.5814 1.4384
C18 C 1.4464(3) 1.4729(2) 1.4331(2)
C19 C 1.4633(3) 1.3751(2) 1.3477(2)
H18 H 1.5439 1.3423 1.3761
C20 C 1.3641(3) 1.3252(2) 1.2221(2)
H19 H 1.3780 1.2587 1.1685
C21 C 1.1416(2) 1.3248(2) 1.0365(2)
N1 N 1.7231(2) 1.31162(17) 1.95477(16)
H20 H 1.7462 1.2819 2.0279
H21 H 1.8027 1.3917 1.9630
N2 N 1.42883(19) 1.11004(17) 1.79792(15)
N3 N 1.3808(2) 1.04448(19) 1.57954(16)
H22 H 1.4514 1.0080 1.5938
N4 N 1.24120(19) 1.16870(17) 1.66195(15)
H23 H 1.2272 1.2105 1.7268
N5 N 1.04224(19) 1.21588(17) 1.52567(15)
O1 O 0.77643(19) 1.22370(16) 1.17677(14)
O2 O 0.84433(16) 1.07651(15) 1.06765(12)
O3 O 1.11990(17) 1.03603(14) 1.21003(13)
O4 O 1.11979(18) 1.20624(14) 0.97962(14)
O5 O 1.08689(19) 1.40646(15) 0.98656(16)
Mn1_2 Mn 2.0000 2.0000 2.0000
C1A C 1.1446(2) 0.85105(19) 0.82943(18)
C2A C 1.0318(2) 0.85267(18) 0.70553(18)
C3A C 0.9110(2) 0.91127(18) 0.69678(18)
C4A C 0.8201(2) 0.90385(19) 0.56608(18)
C5A C 0.7018(2) 0.9592(2) 0.53681(19)
H1A H 0.6805 1.0015 0.6049
C6A C 0.6517(2) 0.89038(19) 0.32339(17)
C7A C 0.8430(2) 0.84002(18) 0.45772(18)
C8A C 1.0452(2) 0.79158(19) 0.59547(18)
H2A H 1.1210 0.7515 0.6043
C9A C 0.9813(3) 0.7121(2) 0.3622(2)
H3A H 0.9663 0.7595 0.2924
H4A H 1.0897 0.7152 0.3850
C10A C 0.8676(4) 0.5644(3) 0.3174(3)
H5A H 0.8860 0.5216 0.2445
H6A H 0.8840 0.5165 0.3854
H7A H 0.7601 0.5608 0.2937
C11A C 0.5687(2) 0.7978(2) 0.09185(18)
H8A H 0.5601 0.8400 0.0180
H9A H 0.6668 0.7808 0.1107
C12A C 0.4279(2) 0.6632(2) 0.0622(2)
H10A H 0.4438 0.6157 0.1317
H11A H 0.4202 0.6048 -0.0156
C13A C 0.2845(2) 0.7915(2) 0.1539(2)
H12A H 0.1879 0.8110 0.1336
H13A H 0.2934 0.7548 0.2310
C14A C 0.4276(2) 0.9224(2) 0.17612(19)
H14A H 0.4359 0.9889 0.2484
H15A H 0.4157 0.9620 0.1008
C15A C 1.7554(2) 1.6269(2) 1.8246(2)
C16A C 1.7759(3) 1.5310(2) 1.7414(2)
H16A H 1.8567 1.4987 1.7705
C17A C 1.6779(3) 1.4826(2) 1.6156(2)
H17A H 1.6949 1.4186 1.5616
C18A C 1.5536(3) 1.5271(2) 1.5669(2)
C19A C 1.5367(3) 1.6249(2) 1.6523(2)
H18A H 1.4561 1.6577 1.6239
C20A C 1.6359(3) 1.6748(2) 1.7779(2)
H19A H 1.6220 1.7413 1.8315
C21A C 1.8584(2) 1.6752(2) 1.9635(2)
N1A N 0.2769(2) 0.68838(17) 0.04523(16)
H20A H 0.2538 0.7181 -0.0279
H21A H 0.1973 0.6083 0.0370
N2A N 0.57117(19) 0.88996(17) 0.20208(15)
N3A N 0.6192(2) 0.95552(19) 0.42046(16)
H22A H 0.5486 0.9920 0.4062
N4A N 0.75880(19) 0.83130(17) 0.33805(15)
H23A H 0.7728 0.7895 0.2732
N5A N 0.95776(19) 0.78412(17) 0.47433(15)
O1A O 1.22357(19) 0.77630(16) 0.82323(14)
O2A O 1.15567(16) 0.92349(15) 0.93235(12)
O3A O 0.88010(17) 0.96397(14) 0.78997(13)
O4A O 1.88021(18) 1.79376(14) 2.02038(14)
O4A_2 O 0.88021(18) 0.79376(14) 1.02038(14)
O5A O 1.91311(19) 1.59354(15) 2.01344(16)
loop_
_geom_bond_atom_site_label_1
_geom_bond_atom_site_label_2
_geom_bond_site_symmetry_1
_geom_bond_site_symmetry_2
Mn1 O2 1_555 1_555
C1 C2 1_555 1_555
C2 C3 1_555 1_555
C3 C4 1_555 1_555
C4 C5 1_555 1_555
C5 H1 1_555 1_555
C6 N2 1_555 1_555
C7 C4 1_555 1_555
C8 C2 1_555 1_555
H2 C8 1_555 1_555
C9 H3 1_555 1_555
H4 C9 1_555 1_555
C10 C9 1_555 1_555
H5 C10 1_555 1_555
H6 C10 1_555 1_555
H7 C10 1_555 1_555
C11 H8 1_555 1_555
H9 C11 1_555 1_555
C12 C11 1_555 1_555
H10 C12 1_555 1_555
H11 C12 1_555 1_555
C13 H12 1_555 1_555
H13 C13 1_555 1_555
C14 C13 1_555 1_555
H14 C14 1_555 1_555
H15 C14 1_555 1_555
C15 C16 1_555 1_555
C16 H16 1_555 1_555
C17 C16 1_555 1_555
H17 C17 1_555 1_555
C18 C17 1_555 1_555
C19 C18 1_555 1_555
H18 C19 1_555 1_555
C20 C15 1_555 1_555
H19 C20 1_555 1_555
C21 C15 1_555 1_555
N1 C12 1_555 1_555
H20 N1 1_555 1_555
H21 N1 1_555 1_555
N2 C11 1_555 1_555
N3 C5 1_555 1_555
H22 N3 1_555 1_555
N4 C6 1_555 1_555
H23 N4 1_555 1_555
N5 C7 1_555 1_555
O1 C1 1_555 1_555
O2 C1 1_555 1_555
O3 Mn1 1_555 1_555
O4 Mn1 1_555 1_555
O5 C21 1_555 1_555
Mn1_2 O4A 1_555 1_555
C1A C2A 1_555 1_555
C2A C3A 1_555 1_555
C3A C4A 1_555 1_555
C4A C5A 1_555 1_555
C5A H1A 1_555 1_555
C6A N2A 1_555 1_555
C7A C4A 1_555 1_555
C8A C2A 1_555 1_555
H2A C8A 1_555 1_555
C9A H3A 1_555 1_555
H4A C9A 1_555 1_555
C10A C9A 1_555 1_555
H5A C10A 1_555 1_555
H6A C10A 1_555 1_555
H7A C10A 1_555 1_555
C11A H8A 1_555 1_555
H9A C11A 1_555 1_555
C12A C11A 1_555 1_555
H10A C12A 1_555 1_555
H11A C12A 1_555 1_555
C13A H12A 1_555 1_555
H13A C13A 1_555 1_555
C14A C13A 1_555 1_555
H14A C14A 1_555 1_555
H15A C14A 1_555 1_555
C15A C16A 1_555 1_555
C16A H16A 1_555 1_555
C17A C16A 1_555 1_555
H17A C17A 1_555 1_555
C18A C18 1_555 1_555
C19A C18A 1_555 1_555
H18A C19A 1_555 1_555
C20A C15A 1_555 1_555
H19A C20A 1_555 1_555
C21A C15A 1_555 1_555
N1A C12A 1_555 1_555
H20A N1A 1_555 1_555
H21A N1A 1_555 1_555
N2A C11A 1_555 1_555
N3A C5A 1_555 1_555
H22A N3A 1_555 1_555
N4A C6A 1_555 1_555
H23A N4A 1_555 1_555
N5A C7A 1_555 1_555
O1A C1A 1_555 1_555
O2A Mn1 1_555 1_555
O3A Mn1 1_555 1_555
O4A C21A 1_555 1_555
O4A_2 Mn1 1_555 1_555
O5A C21A 1_555 1_555
C3 O3 1_555 1_555
C6 N3 1_555 1_555
C7 N4 1_555 1_555
C8 N5 1_555 1_555
C9 N5 1_555 1_555
C13 N1 1_555 1_555
C14 N2 1_555 1_555
C19 C20 1_555 1_555
C21 O4 1_555 1_555
C1A O2A 1_555 1_555
C3A O3A 1_555 1_555
C6A N3A 1_555 1_555
C7A N4A 1_555 1_555
C8A N5A 1_555 1_555
C9A N5A 1_555 1_555
C13A N1A 1_555 1_555
C14A N2A 1_555 1_555
C17A C18A 1_555 1_555
C19A C20A 1_555 1_555

#END
