
#######################################################################
#
#                 Cambridge Crystallographic Data Centre
#                                CCDC 
#
#######################################################################
#
# If this CIF has been generated from an entry in the Cambridge 
# Structural Database, then it will include bibliographic, chemical, 
# crystal, experimental, refinement or atomic coordinate data resulting 
# from the CCDC's data processing and validation procedures.
#
#######################################################################

data_HEBREN
_symmetry_cell_setting           monoclinic
_symmetry_space_group_name_H-M   'C 2/c'
_symmetry_Int_Tables_number      15
_space_group_name_Hall           '-C 2yn'
loop_
_symmetry_equiv_pos_site_id
_symmetry_equiv_pos_as_xyz
1 x,y,z
2 -x,y,1/2-z
3 1/2+x,1/2+y,z
4 1/2-x,1/2+y,1/2-z
5 -x,-y,-z
6 x,-y,1/2+z
7 1/2-x,1/2-y,-z
8 1/2+x,1/2-y,1/2+z
_cell_length_a                   24.457(4)
_cell_length_b                   14.491(2)
_cell_length_c                   17.832(3)
_cell_angle_alpha                90
_cell_angle_beta                 96.656(2)
_cell_angle_gamma                90
_cell_volume                     6277.18
loop_
_atom_site_label
_atom_site_type_symbol
_atom_site_fract_x
_atom_site_fract_y
_atom_site_fract_z
Co1 Co 0.191160(16) 0.17116(3) 0.23879(2)
C1 C 0.13341(12) 0.1326(2) 0.0860(2)
C2 C 0.16227(12) 0.21424(19) 0.05622(16)
C3 C 0.20511(11) 0.26712(19) 0.09779(16)
C4 C 0.22584(11) 0.34372(18) 0.05694(15)
C5 C 0.26712(12) 0.4035(2) 0.08910(16)
H1 H 0.2831 0.3909 0.1379
C6 C 0.25953(12) 0.4919(2) -0.01665(17)
C7 C 0.20509(11) 0.36550(19) -0.01728(16)
C8 C 0.14585(12) 0.2382(2) -0.01740(17)
H2 H 0.1184 0.2023 -0.0436
C9 C 0.14675(15) 0.3236(2) -0.1375(2)
H3 H 0.1771 0.3461 -0.1629
H4 H 0.1345 0.2654 -0.1605
C10 C 0.1018(2) 0.3901(4) -0.1466(3)
H5 H 0.0902 0.3994 -0.1994
H6 H 0.1140 0.4477 -0.1239
H7 H 0.0714 0.3670 -0.1225
C11 C 0.31379(16) 0.6354(2) -0.0157(2)
H8 H 0.3282 0.6141 0.0343
H9 H 0.2956 0.6942 -0.0104
C12 C 0.36009(15) 0.6473(3) -0.0632(2)
H10 H 0.3848 0.6951 -0.0415
H11 H 0.3808 0.5902 -0.0635
C13 C 0.29799(16) 0.6040(2) -0.1762(2)
H12 H 0.2829 0.6247 -0.2260
H13 H 0.3161 0.5452 -0.1816
C14 C 0.25286(16) 0.5922(2) -0.12807(19)
H14 H 0.2319 0.6490 -0.1280
H15 H 0.2282 0.5437 -0.1489
C15 C 0.32440(11) 0.04916(19) 0.35305(16)
C16 C 0.34996(12) 0.0743(2) 0.42347(17)
H16 H 0.3377 0.1263 0.4472
C17 C 0.39313(13) 0.0241(2) 0.45902(17)
H17 H 0.4103 0.0422 0.5060
C18 C 0.41051(11) -0.0537(2) 0.42369(16)
C19 C 0.38605(11) -0.08043(19) 0.35368(16)
H18 H 0.3985 -0.1324 0.3302
C20 C 0.34277(11) -0.02917(19) 0.31872(16)
H19 H 0.3257 -0.0473 0.2717
C21 C 0.57229(11) -0.2335(2) 0.35543(16)
C22 C 0.54386(13) -0.2821(2) 0.40510(19)
H20 H 0.5523 -0.3438 0.4150
C23 C 0.50258(13) -0.2394(2) 0.44060(19)
H21 H 0.4839 -0.2717 0.4749
C24 C 0.49003(11) -0.1485(2) 0.42380(17)
C25 C 0.51695(12) -0.1000(2) 0.37334(17)
H22 H 0.5074 -0.0392 0.3616
C26 C 0.55875(13) -0.1428(2) 0.33984(18)
H23 H 0.5778 -0.1097 0.3065
C27 C 0.27634(12) 0.10228(19) 0.31552(17)
C28 C 0.61749(12) -0.2779(2) 0.31829(17)
N1 N 0.33882(12) 0.67269(18) -0.14180(16)
H24 H 0.3671 0.6762 -0.1698
H25 H 0.3228 0.7286 -0.1419
N2 N 0.27449(12) 0.56862(18) -0.05110(15)
N3 N 0.28487(11) 0.47629(17) 0.05491(14)
N4 N 0.22189(10) 0.43774(16) -0.05484(13)
N5 N 0.16570(11) 0.30903(17) -0.05544(14)
O1 O 0.10267(11) 0.08632(17) 0.04055(14)
O2 O 0.14068(9) 0.11444(14) 0.15582(13)
O3 O 0.22636(8) 0.25174(13) 0.16490(11)
O4 O 0.26716(9) 0.18319(13) 0.33676(13)
O5 O 0.24510(8) 0.06548(13) 0.26348(12)
O6 O 0.45135(8) -0.10599(16) 0.46406(12)
O7 O 0.62729(10) -0.36199(17) 0.32549(14)
O8 O 0.64607(9) -0.22795(15) 0.28018(12)
Co1B Co 0.691160(16) -0.32884(3) 0.23879(2)
O7B O 0.12729(10) 0.13801(17) 0.32549(14)
O8B O 0.14607(9) 0.27205(15) 0.28018(12)
O9 O 0.0854(3) -0.0252(6) 0.3873(5)
O10 O 0.0806(3) -0.1514(6) 0.2341(5)
O14 O 0.0000 0.0000 0.0000
O16 O 0.0332(8) -0.0055(14) 0.1408(14)
O17 O -0.0235(17) -0.142(3) 0.116(2)
O11? O 0.0397(3) 0.0298(6) 0.2001(5)
O12? O 0.0093(7) -0.0370(13) 0.0549(11)
O13? O -0.0284(7) -0.1891(12) 0.1558(11)
O15? O 0.0594(8) -0.1975(18) 0.1888(12)
O18? O 0.1036(5) -0.0553(8) 0.3424(8)
loop_
_geom_bond_atom_site_label_1
_geom_bond_atom_site_label_2
_geom_bond_site_symmetry_1
_geom_bond_site_symmetry_2
Co1 O2 1_555 1_555
C1 C2 1_555 1_555
C2 C3 1_555 1_555
C3 C4 1_555 1_555
C4 C5 1_555 1_555
C5 H1 1_555 1_555
C6 N2 1_555 1_555
C7 C4 1_555 1_555
C8 C2 1_555 1_555
H2 C8 1_555 1_555
C9 H3 1_555 1_555
H4 C9 1_555 1_555
C10 C9 1_555 1_555
H5 C10 1_555 1_555
H6 C10 1_555 1_555
H7 C10 1_555 1_555
C11 H8 1_555 1_555
H9 C11 1_555 1_555
C12 C11 1_555 1_555
H10 C12 1_555 1_555
H11 C12 1_555 1_555
C13 H12 1_555 1_555
H13 C13 1_555 1_555
C14 C13 1_555 1_555
H14 C14 1_555 1_555
H15 C14 1_555 1_555
C15 C16 1_555 1_555
C16 H16 1_555 1_555
C17 C16 1_555 1_555
H17 C17 1_555 1_555
C18 C17 1_555 1_555
C19 C18 1_555 1_555
H18 C19 1_555 1_555
C20 C15 1_555 1_555
H19 C20 1_555 1_555
C21 C22 1_555 1_555
C22 H20 1_555 1_555
C23 C22 1_555 1_555
H21 C23 1_555 1_555
C24 C23 1_555 1_555
C25 C24 1_555 1_555
H22 C25 1_555 1_555
C26 C21 1_555 1_555
H23 C26 1_555 1_555
C27 C15 1_555 1_555
C28 C21 1_555 1_555
N1 C12 1_555 1_555
H24 N1 1_555 1_555
H25 N1 1_555 1_555
N2 C11 1_555 1_555
N3 C5 1_555 1_555
N4 C6 1_555 1_555
N5 C7 1_555 1_555
O1 C1 1_555 1_555
O2 C1 1_555 1_555
O3 Co1 1_555 1_555
O4 Co1 1_555 1_555
O5 Co1 1_555 1_555
O6 C18 1_555 1_555
O7 C28 1_555 1_555
O8 C28 1_555 1_555
Co1B O7 1_555 1_555
O7B Co1 1_555 1_555
O8B Co1 1_555 1_555
C3 O3 1_555 1_555
C6 N3 1_555 1_555
C7 N4 1_555 1_555
C8 N5 1_555 1_555
C9 N5 1_555 1_555
C13 N1 1_555 1_555
C14 N2 1_555 1_555
C19 C20 1_555 1_555
C24 O6 1_555 1_555
C25 C26 1_555 1_555
C27 O4 1_555 1_555
C27 O5 1_555 1_555
O8 Co1B 1_555 1_555

#END
