
#######################################################################
#
#                 Cambridge Crystallographic Data Centre
#                                CCDC 
#
#######################################################################
#
# If this CIF has been generated from an entry in the Cambridge 
# Structural Database, then it will include bibliographic, chemical, 
# crystal, experimental, refinement or atomic coordinate data resulting 
# from the CCDC's data processing and validation procedures.
#
#######################################################################

data_HEBRAJ
_symmetry_cell_setting           monoclinic
_symmetry_space_group_name_H-M   'C 2/c'
_symmetry_Int_Tables_number      15
_space_group_name_Hall           '-C 2yn'
loop_
_symmetry_equiv_pos_site_id
_symmetry_equiv_pos_as_xyz
1 x,y,z
2 -x,y,1/2-z
3 1/2+x,1/2+y,z
4 1/2-x,1/2+y,1/2-z
5 -x,-y,-z
6 x,-y,1/2+z
7 1/2-x,1/2-y,-z
8 1/2+x,1/2-y,1/2+z
_cell_length_a                   25.0599(6)
_cell_length_b                   14.4289(3)
_cell_length_c                   17.8007(4)
_cell_angle_alpha                90
_cell_angle_beta                 95.6920(10)
_cell_angle_gamma                90
_cell_volume                     6404.76
loop_
_atom_site_label
_atom_site_type_symbol
_atom_site_fract_x
_atom_site_fract_y
_atom_site_fract_z
Mn1 Mn 0.191819(15) 0.33143(3) 0.24643(2)
C1 C 0.13583(11) 0.36782(18) 0.08682(16)
C2 C 0.16368(10) 0.28541(16) 0.05636(14)
C3 C 0.20538(9) 0.23224(16) 0.09803(14)
C4 C 0.22591(10) 0.15574(16) 0.05717(14)
C5 C 0.26608(10) 0.09588(17) 0.08859(13)
H1 H 0.2817 0.1089 0.1370
C6 C 0.25905(10) 0.00739(17) -0.01650(14)
C7 C 0.20593(10) 0.13323(17) -0.01727(14)
C8 C 0.14779(12) 0.26105(19) -0.01682(16)
H2 H 0.1210 0.2967 -0.0427
C9 C 0.15028(15) 0.1752(2) -0.1370(2)
H3 H 0.1385 0.2336 -0.1599
H4 H 0.1805 0.1531 -0.1621
C10 C 0.1071(2) 0.1086(4) -0.1470(3)
H5 H 0.0967 0.1001 -0.2000
H6 H 0.0770 0.1309 -0.1229
H7 H 0.1189 0.0505 -0.1250
C11 C 0.31174(15) -0.1375(2) -0.01538(17)
H8 H 0.2938 -0.1962 -0.0095
H9 H 0.3256 -0.1156 0.0343
C12 C 0.35708(14) -0.1506(2) -0.0633(2)
H10 H 0.3775 -0.0936 -0.0642
H11 H 0.3808 -0.1988 -0.0417
C13 C 0.29738(15) -0.1075(2) -0.17620(17)
H12 H 0.2831 -0.1287 -0.2259
H13 H 0.3153 -0.0487 -0.1820
C14 C 0.25249(14) -0.0948(2) -0.12770(17)
H14 H 0.2289 -0.0458 -0.1483
H15 H 0.2318 -0.1515 -0.1271
C15 C 0.32555(9) 0.45424(15) 0.35492(13)
C16 C 0.34904(11) 0.42640(18) 0.42535(15)
H16 H 0.3361 0.3745 0.4486
C17 C 0.39158(11) 0.4757(2) 0.46095(15)
H17 H 0.4074 0.4571 0.5080
C18 C 0.41044(10) 0.55259(19) 0.42604(14)
C19 C 0.38789(10) 0.58145(17) 0.35534(15)
H18 H 0.4014 0.6327 0.3318
C20 C 0.34509(9) 0.53229(16) 0.32106(13)
H19 H 0.3290 0.5517 0.2744
C21 C 0.48967(10) 0.6445(2) 0.42635(15)
C22 C 0.50295(12) 0.7350(2) 0.44375(18)
H20 H 0.4848 0.7679 0.4782
C23 C 0.54401(12) 0.7761(2) 0.40893(19)
H21 H 0.5529 0.8377 0.4192
C24 C 0.57191(10) 0.72653(19) 0.35910(15)
C25 C 0.55702(11) 0.63521(19) 0.34275(16)
H22 H 0.5753 0.6015 0.3089
C26 C 0.51590(11) 0.5941(2) 0.37570(17)
H23 H 0.5059 0.5333 0.3640
C27 C 0.27771(10) 0.40456(15) 0.31793(14)
C28 C 0.61773(10) 0.76830(19) 0.32265(15)
N1 N 0.33667(11) -0.17653(15) -0.14160(15)
H24 H 0.3644 -0.1808 -0.1699
H25 H 0.3209 -0.2325 -0.1412
N2 N 0.27402(11) -0.07077(17) -0.05062(13)
N3 N 0.28318(9) 0.02306(15) 0.05467(12)
N4 N 0.22270(9) 0.06065(15) -0.05424(12)
N5 N 0.16751(10) 0.18989(16) -0.05476(13)
O1 O 0.14423(9) 0.38792(14) 0.15556(12)
O2 O 0.10550(11) 0.41389(16) 0.04148(14)
O3 O 0.22490(7) 0.24779(12) 0.16493(10)
O4 O 0.26761(8) 0.32286(11) 0.33898(12)
O5 O 0.24846(8) 0.44439(13) 0.26681(10)
O6 O 0.45056(8) 0.60333(17) 0.46629(11)
O7 O 0.62758(9) 0.85377(14) 0.32982(13)
O8 O 0.64537(8) 0.71717(14) 0.28502(12)
Mn1B Mn 0.691819(15) 0.83143(3) 0.24643(2)
O7B O 0.12758(9) 0.35377(14) 0.32982(13)
O8B O 0.14537(8) 0.21717(14) 0.28502(12)
O9 O 0.4105(2) -0.0247(4) -0.3832(4)
O10 O 0.4195(2) -0.1515(5) -0.2296(5)
O11 O 0.4528(6) 0.0227(10) -0.1995(9)
O12? O 0.4597(15) -0.246(3) -0.154(2)
O13? O 0.4701(8) -0.1929(13) -0.3483(12)
O14? O 0.4650(11) -0.127(2) -0.4089(15)
loop_
_geom_bond_atom_site_label_1
_geom_bond_atom_site_label_2
_geom_bond_site_symmetry_1
_geom_bond_site_symmetry_2
Mn1 O1 1_555 1_555
C1 C2 1_555 1_555
C2 C3 1_555 1_555
C3 C4 1_555 1_555
C4 C5 1_555 1_555
C5 H1 1_555 1_555
C6 N2 1_555 1_555
C7 C4 1_555 1_555
C8 C2 1_555 1_555
H2 C8 1_555 1_555
C9 H3 1_555 1_555
H4 C9 1_555 1_555
C10 C9 1_555 1_555
H5 C10 1_555 1_555
H6 C10 1_555 1_555
H7 C10 1_555 1_555
C11 H8 1_555 1_555
H9 C11 1_555 1_555
C12 C11 1_555 1_555
H10 C12 1_555 1_555
H11 C12 1_555 1_555
C13 H12 1_555 1_555
H13 C13 1_555 1_555
C14 C13 1_555 1_555
H14 C14 1_555 1_555
H15 C14 1_555 1_555
C15 C16 1_555 1_555
C16 H16 1_555 1_555
C17 C16 1_555 1_555
H17 C17 1_555 1_555
C18 C17 1_555 1_555
C19 C18 1_555 1_555
H18 C19 1_555 1_555
C20 C15 1_555 1_555
H19 C20 1_555 1_555
C21 C22 1_555 1_555
C22 H20 1_555 1_555
C23 C22 1_555 1_555
H21 C23 1_555 1_555
C24 C23 1_555 1_555
C25 C24 1_555 1_555
H22 C25 1_555 1_555
C26 C21 1_555 1_555
H23 C26 1_555 1_555
C27 C15 1_555 1_555
C28 C24 1_555 1_555
N1 C12 1_555 1_555
H24 N1 1_555 1_555
H25 N1 1_555 1_555
N2 C11 1_555 1_555
N3 C5 1_555 1_555
N4 C6 1_555 1_555
N5 C7 1_555 1_555
O1 C1 1_555 1_555
O2 C1 1_555 1_555
O3 Mn1 1_555 1_555
O4 Mn1 1_555 1_555
O5 Mn1 1_555 1_555
O6 C18 1_555 1_555
O7 C28 1_555 1_555
O8 C28 1_555 1_555
Mn1B O7 1_555 1_555
O7B Mn1 1_555 1_555
O8B Mn1 1_555 1_555
C3 O3 1_555 1_555
C6 N3 1_555 1_555
C7 N4 1_555 1_555
C8 N5 1_555 1_555
C9 N5 1_555 1_555
C13 N1 1_555 1_555
C14 N2 1_555 1_555
C19 C20 1_555 1_555
C21 O6 1_555 1_555
C25 C26 1_555 1_555
C27 O4 1_555 1_555
C27 O5 1_555 1_555
O8 Mn1B 1_555 1_555

#END
