
#######################################################################
#
#                 Cambridge Crystallographic Data Centre
#                                CCDC 
#
#######################################################################
#
# If this CIF has been generated from an entry in the Cambridge 
# Structural Database, then it will include bibliographic, chemical, 
# crystal, experimental, refinement or atomic coordinate data resulting 
# from the CCDC's data processing and validation procedures.
#
#######################################################################

data_HEBROX
_symmetry_cell_setting           triclinic
_symmetry_space_group_name_H-M   'P -1'
_symmetry_Int_Tables_number      2
_space_group_name_Hall           '-P 1'
loop_
_symmetry_equiv_pos_site_id
_symmetry_equiv_pos_as_xyz
1 x,y,z
2 -x,-y,-z
_cell_length_a                   10.1896(2)
_cell_length_b                   12.6090(2)
_cell_length_c                   13.7955(2)
_cell_angle_alpha                62.9260(10)
_cell_angle_beta                 74.2830(10)
_cell_angle_gamma                85.5830(10)
_cell_volume                     1517
loop_
_atom_site_label
_atom_site_type_symbol
_atom_site_fract_x
_atom_site_fract_y
_atom_site_fract_z
Mn1 Mn -0.06988(3) 0.18561(2) -0.10073(2)
C1 C 0.12063(18) 0.41952(17) -0.23473(15)
C2 C 0.12526(18) 0.42192(16) -0.34603(15)
C3 C 0.04160(18) 0.34513(16) -0.35883(15)
C4 C 0.06904(18) 0.35612(15) -0.47260(14)
C5 C -0.00141(19) 0.27918(16) -0.49164(15)
H1 H -0.0700 0.2258 -0.4332
C6 C 0.03026(19) 0.28233(17) -0.59503(16)
C7 C 0.13153(19) 0.36258(17) -0.68838(15)
C8 C 0.19721(19) 0.44168(17) -0.67124(15)
H2 H 0.2611 0.4986 -0.7314
C9 C 0.16853(18) 0.43714(15) -0.56320(15)
C10 C 0.21560(18) 0.50330(16) -0.44022(15)
H3 H 0.2643 0.5559 -0.4309
C11 C 0.3323(2) 0.60782(17) -0.64082(16)
H4 H 0.2892 0.6708 -0.6947
C12 C 0.4704(2) 0.5757(2) -0.6908(2)
H5 H 0.4941 0.4933 -0.6553
H6 H 0.5071 0.6170 -0.7721
C13 C 0.4574(2) 0.6457(2) -0.6271(2)
H7 H 0.4739 0.6061 -0.5529
H8 H 0.4868 0.7296 -0.6696
C14 C 0.0591(2) 0.3671(2) -0.84618(18)
H9 H 0.0497 0.4510 -0.8926
H10 H -0.0274 0.3338 -0.7904
C15 C 0.0962(2) 0.3032(2) -0.91905(19)
H11 H 0.1001 0.2185 -0.8718
H12 H 0.0266 0.3137 -0.9583
C16 C 0.3374(2) 0.3506(2) -0.94911(18)
H13 H 0.4197 0.3920 -1.0073
H14 H 0.3585 0.2689 -0.9058
C17 C 0.2954(2) 0.4097(2) -0.87172(18)
H15 H 0.3650 0.4011 -0.8330
H16 H 0.2854 0.4941 -0.9157
C18 C 0.19172(18) 0.03491(16) -0.26735(15)
C19 C 0.1890(2) -0.04046(18) -0.31571(16)
H17 H 0.1431 -0.1150 -0.2719
C20 C 0.2539(2) -0.00529(18) -0.42813(17)
H18 H 0.2502 -0.0559 -0.4598
C21 C 0.3247(2) 0.10479(17) -0.49439(16)
C22 C 0.33100(19) 0.17946(17) -0.44501(16)
H19 H 0.3805 0.2524 -0.4879
C23 C 0.26435(19) 0.14515(16) -0.33350(16)
H20 H 0.2676 0.1958 -0.3018
C24 C 0.4006(2) 0.14647(19) -0.61538(17)
C25 C 0.3763(2) 0.08574(17) -0.67953(16)
C26 C 0.2467(2) 0.05010(19) -0.67245(17)
H21 H 0.1707 0.0599 -0.6224
C27 C 0.2306(2) 0.00016(18) -0.73957(16)
H22 H 0.1434 -0.0199 -0.7372
C28 C 0.34383(19) -0.02032(17) -0.81061(15)
C29 C 0.4730(2) 0.01409(19) -0.81706(17)
H23 H 0.5492 -0.0002 -0.8638
C30 C 0.4892(2) 0.06943(19) -0.75458(17)
H24 H 0.5758 0.0961 -0.7625
C31 C 0.12699(18) -0.00328(17) -0.14388(15)
C32 C 0.3234(2) -0.08170(17) -0.87798(15)
N1 N 0.23085(19) 0.35101(17) -1.00282(14)
H25 H 0.2559 0.3066 -1.0400
H26 H 0.2229 0.4261 -1.0537
N2 N 0.16621(17) 0.35338(15) -0.78967(13)
N3 N 0.24010(15) 0.51371(14) -0.54528(12)
O1 O 0.04636(15) 0.34052(13) -0.14524(11)
O2 O -0.27025(19) 0.28750(16) -0.06088(16)
O3 O 0.19211(16) 0.49651(14) -0.23665(13)
O5 O -0.04990(13) 0.27040(12) -0.28115(10)
O7 O 0.10243(13) 0.07775(12) -0.11351(11)
O8 O 0.10764(16) -0.11280(13) -0.08040(11)
O9 O 0.4859(2) 0.23039(17) -0.66129(14)
O10 O 0.21146(15) -0.06764(13) -0.90229(12)
O11 O 0.41595(15) -0.14299(15) -0.90248(14)
F1 F -0.03343(14) 0.20149(12) -0.60851(10)
H31 H -0.328(3) 0.239(3) -0.056(3)
H32 H -0.275(4) 0.282(3) 0.0029(15)
Mn1A Mn 0.06988(3) -0.18561(2) -0.89927(2)
Mn1_2 Mn -0.06988(3) 0.18561(2) -1.10073(2)
Mn1A_2 Mn 0.06988(3) -0.18561(2) 0.10073(2)
C1A C -0.12063(18) -0.41952(17) -0.76527(15)
C2A C -0.12526(18) -0.42192(16) -0.65397(15)
C3A C -0.04160(18) -0.34513(16) -0.64117(15)
C4A C -0.06904(18) -0.35612(15) -0.52740(14)
C5A C 0.00141(19) -0.27918(16) -0.50836(15)
H1A H 0.0700 -0.2258 -0.5668
C6A C -0.03026(19) -0.28233(17) -0.40497(16)
C7A C -0.13153(19) -0.36258(17) -0.31162(15)
C8A C -0.19721(19) -0.44168(17) -0.32876(15)
H2A H -0.2611 -0.4986 -0.2686
C9A C -0.16853(18) -0.43714(15) -0.43680(15)
C10A C -0.21560(18) -0.50330(16) -0.55978(15)
H3A H -0.2643 -0.5559 -0.5691
C11A C -0.3323(2) -0.60782(17) -0.35918(16)
H4A H -0.2892 -0.6708 -0.3053
C12A C -0.4704(2) -0.5757(2) -0.3092(2)
H5A H -0.4941 -0.4933 -0.3447
H6A H -0.5071 -0.6170 -0.2279
C13A C -0.4574(2) -0.6457(2) -0.3729(2)
H7A H -0.4739 -0.6061 -0.4471
H8A H -0.4868 -0.7296 -0.3304
C14A C -0.0591(2) -0.3671(2) -0.15382(18)
H9A H -0.0497 -0.4510 -0.1074
H10A H 0.0274 -0.3338 -0.2096
C15A C -0.0962(2) -0.3032(2) -0.08095(19)
H11A H -0.1001 -0.2185 -0.1282
H12A H -0.0266 -0.3137 -0.0417
C16A C -0.3374(2) -0.3506(2) -0.05089(18)
H13A H -0.4197 -0.3920 0.0073
H14A H -0.3585 -0.2689 -0.0942
C17A C -0.2954(2) -0.4097(2) -0.12828(18)
H15A H -0.3650 -0.4011 -0.1670
H16A H -0.2854 -0.4941 -0.0843
C18A C -0.19172(18) -0.03491(16) -0.73265(15)
C19A C -0.1890(2) 0.04046(18) -0.68429(16)
H17A H -0.1431 0.1150 -0.7281
C20A C -0.2539(2) 0.00529(18) -0.57187(17)
H18A H -0.2502 0.0559 -0.5402
C21A C -0.3247(2) -0.10479(17) -0.50561(16)
C22A C -0.33100(19) -0.17946(17) -0.55499(16)
H19A H -0.3805 -0.2524 -0.5121
C23A C -0.26435(19) -0.14515(16) -0.66650(16)
H20A H -0.2676 -0.1958 -0.6982
C24A C -0.4006(2) -0.14647(19) -0.38462(17)
C25A C -0.3763(2) -0.08574(17) -0.32047(16)
C26A C -0.2467(2) -0.05010(19) -0.32755(17)
H21A H -0.1707 -0.0599 -0.3776
C27A C -0.2306(2) -0.00016(18) -0.26043(16)
H22A H -0.1434 0.0199 -0.2628
C28A C -0.34383(19) 0.02032(17) -0.18939(15)
C29A C -0.4730(2) -0.01409(19) -0.18294(17)
H23A H -0.5492 0.0002 -0.1362
C30A C -0.4892(2) -0.06943(19) -0.24542(17)
H24A H -0.5758 -0.0961 -0.2375
C31A C -0.12699(18) 0.00328(17) -0.85612(15)
C32A C -0.3234(2) 0.08170(17) -0.12202(15)
N1A N -0.23085(19) -0.35101(17) 0.00282(14)
H25A H -0.2559 -0.3066 0.0400
H26A H -0.2229 -0.4261 0.0537
N2A N -0.16621(17) -0.35338(15) -0.21033(13)
N3A N -0.24010(15) -0.51371(14) -0.45472(12)
O1A O -0.04636(15) -0.34052(13) -0.85476(11)
O2A O 0.27025(19) -0.28750(16) -0.93912(16)
O3A O -0.19211(16) -0.49651(14) -0.76335(13)
O5A O 0.04990(13) -0.27040(12) -0.71885(10)
O7A O -0.10243(13) -0.07775(12) -0.88649(11)
O8A O -0.10764(16) 0.11280(13) -0.91960(11)
O8_2 O 0.10764(16) -0.11280(13) -1.08040(11)
O8A_2 O -0.10764(16) 0.11280(13) 0.08040(11)
O9A O -0.4859(2) -0.23039(17) -0.33871(14)
O10A O -0.21146(15) 0.06764(13) -0.09771(12)
O11A O -0.41595(15) 0.14299(15) -0.09752(14)
F1A F 0.03343(14) -0.20149(12) -0.39149(10)
H31A H 0.328(3) -0.239(3) -0.944(3)
H32A H 0.275(4) -0.282(3) -1.0029(15)
O4 O 0.31592(17) 0.19647(15) -1.08937(17)
H27 H 0.3904(12) 0.1626(18) -1.085(2)
H28 H 0.2513(14) 0.1447(15) -1.0598(19)
O6 O 0.2946(3) 0.6271(3) -0.1520(2)
H29 H 0.278(4) 0.672(3) -0.120(3)
H30 H 0.364(3) 0.658(3) -0.207(3)
loop_
_geom_bond_atom_site_label_1
_geom_bond_atom_site_label_2
_geom_bond_site_symmetry_1
_geom_bond_site_symmetry_2
Mn1 O1 1_555 1_555
C1 C2 1_555 1_555
C2 C3 1_555 1_555
C3 C4 1_555 1_555
C4 C5 1_555 1_555
C5 H1 1_555 1_555
C6 C5 1_555 1_555
C7 C6 1_555 1_555
C8 C7 1_555 1_555
H2 C8 1_555 1_555
C9 C4 1_555 1_555
C10 C2 1_555 1_555
H3 C10 1_555 1_555
C11 H4 1_555 1_555
C12 C11 1_555 1_555
H5 C12 1_555 1_555
H6 C12 1_555 1_555
C13 C11 1_555 1_555
H7 C13 1_555 1_555
H8 C13 1_555 1_555
C14 H9 1_555 1_555
H10 C14 1_555 1_555
C15 C14 1_555 1_555
H11 C15 1_555 1_555
H12 C15 1_555 1_555
C16 H13 1_555 1_555
H14 C16 1_555 1_555
C17 C16 1_555 1_555
H15 C17 1_555 1_555
H16 C17 1_555 1_555
C18 C19 1_555 1_555
C19 H17 1_555 1_555
C20 C19 1_555 1_555
H18 C20 1_555 1_555
C21 C20 1_555 1_555
C22 C21 1_555 1_555
H19 C22 1_555 1_555
C23 C18 1_555 1_555
H20 C23 1_555 1_555
C24 C21 1_555 1_555
C25 C24 1_555 1_555
C26 C25 1_555 1_555
H21 C26 1_555 1_555
C27 C26 1_555 1_555
H22 C27 1_555 1_555
C28 C27 1_555 1_555
C29 C28 1_555 1_555
H23 C29 1_555 1_555
C30 C25 1_555 1_555
H24 C30 1_555 1_555
C31 C18 1_555 1_555
C32 C28 1_555 1_555
N1 C15 1_555 1_555
H25 N1 1_555 1_555
H26 N1 1_555 1_555
N2 C7 1_555 1_555
N3 C9 1_555 1_555
O1 C1 1_555 1_555
O2 Mn1 1_555 1_555
O3 C1 1_555 1_555
O4 H27 1_555 1_555
H28 O4 1_555 1_555
O5 Mn1 1_555 1_555
O6 H29 1_555 1_555
H30 O6 1_555 1_555
O7 Mn1 1_555 1_555
O8 C31 1_555 1_555
O9 C24 1_555 1_555
O10 C32 1_555 1_555
O11 C32 1_555 1_555
F1 C6 1_555 1_555
H31 O2 1_555 1_555
H32 O2 1_555 1_555
Mn1A O10 1_555 1_555
Mn1_2 O8A 1_555 1_555
Mn1A_2 O8 1_555 1_555
C1A C2A 1_555 1_555
C2A C3A 1_555 1_555
C3A C4A 1_555 1_555
C4A C5A 1_555 1_555
C5A H1A 1_555 1_555
C6A C5A 1_555 1_555
C7A C6A 1_555 1_555
C8A C7A 1_555 1_555
H2A C8A 1_555 1_555
C9A C4A 1_555 1_555
C10A C2A 1_555 1_555
H3A C10A 1_555 1_555
C11A H4A 1_555 1_555
C12A C11A 1_555 1_555
H5A C12A 1_555 1_555
H6A C12A 1_555 1_555
C13A C11A 1_555 1_555
H7A C13A 1_555 1_555
H8A C13A 1_555 1_555
C14A H9A 1_555 1_555
H10A C14A 1_555 1_555
C15A C14A 1_555 1_555
H11A C15A 1_555 1_555
H12A C15A 1_555 1_555
C16A H13A 1_555 1_555
H14A C16A 1_555 1_555
C17A C16A 1_555 1_555
H15A C17A 1_555 1_555
H16A C17A 1_555 1_555
C18A C19A 1_555 1_555
C19A H17A 1_555 1_555
C20A C19A 1_555 1_555
H18A C20A 1_555 1_555
C21A C20A 1_555 1_555
C22A C21A 1_555 1_555
H19A C22A 1_555 1_555
C23A C18A 1_555 1_555
H20A C23A 1_555 1_555
C24A C21A 1_555 1_555
C25A C24A 1_555 1_555
C26A C25A 1_555 1_555
H21A C26A 1_555 1_555
C27A C26A 1_555 1_555
H22A C27A 1_555 1_555
C28A C27A 1_555 1_555
C29A C28A 1_555 1_555
H23A C29A 1_555 1_555
C30A C25A 1_555 1_555
H24A C30A 1_555 1_555
C31A C18A 1_555 1_555
C32A C28A 1_555 1_555
N1A C15A 1_555 1_555
H25A N1A 1_555 1_555
H26A N1A 1_555 1_555
N2A C7A 1_555 1_555
N3A C9A 1_555 1_555
O1A Mn1A 1_555 1_555
O2A Mn1A 1_555 1_555
O3A C1A 1_555 1_555
O5A Mn1A 1_555 1_555
O7A Mn1A 1_555 1_555
O8A C31A 1_555 1_555
O8_2 Mn1A 1_555 1_555
O8A_2 Mn1 1_555 1_555
O9A C24A 1_555 1_555
O10A Mn1 1_555 1_555
O11A C32A 1_555 1_555
F1A C6A 1_555 1_555
H31A O2A 1_555 1_555
H32A O2A 1_555 1_555
C3 O5 1_555 1_555
C8 C9 1_555 1_555
C10 N3 1_555 1_555
C11 N3 1_555 1_555
C12 C13 1_555 1_555
C14 N2 1_555 1_555
C16 N1 1_555 1_555
C17 N2 1_555 1_555
C22 C23 1_555 1_555
C29 C30 1_555 1_555
C31 O7 1_555 1_555
C1A O1A 1_555 1_555
C3A O5A 1_555 1_555
C8A C9A 1_555 1_555
C10A N3A 1_555 1_555
C11A N3A 1_555 1_555
C12A C13A 1_555 1_555
C14A N2A 1_555 1_555
C16A N1A 1_555 1_555
C17A N2A 1_555 1_555
C22A C23A 1_555 1_555
C29A C30A 1_555 1_555
C31A O7A 1_555 1_555
C32A O10A 1_555 1_555

#END
