
#######################################################################
#
#                 Cambridge Crystallographic Data Centre
#                                CCDC 
#
#######################################################################
#
# If this CIF has been generated from an entry in the Cambridge 
# Structural Database, then it will include bibliographic, chemical, 
# crystal, experimental, refinement or atomic coordinate data resulting 
# from the CCDC's data processing and validation procedures.
#
#######################################################################

data_HEBRIR
_symmetry_cell_setting           monoclinic
_symmetry_space_group_name_H-M   'C 2/c'
_symmetry_Int_Tables_number      15
_space_group_name_Hall           '-C 2yn'
loop_
_symmetry_equiv_pos_site_id
_symmetry_equiv_pos_as_xyz
1 x,y,z
2 -x,y,1/2-z
3 1/2+x,1/2+y,z
4 1/2-x,1/2+y,1/2-z
5 -x,-y,-z
6 x,-y,1/2+z
7 1/2-x,1/2-y,-z
8 1/2+x,1/2-y,1/2+z
_cell_length_a                   23.787(3)
_cell_length_b                   12.7912(18)
_cell_length_c                   21.198(3)
_cell_angle_alpha                90
_cell_angle_beta                 94.805(2)
_cell_angle_gamma                90
_cell_volume                     6427.13
loop_
_atom_site_label
_atom_site_type_symbol
_atom_site_fract_x
_atom_site_fract_y
_atom_site_fract_z
Zn1 Zn 0.24841(2) 0.36984(4) 0.18834(3)
S1 S 0.49181(6) 0.69414(12) 0.43177(6)
C1 C 0.1948(2) 0.3896(3) 0.0595(2)
C2 C 0.19801(18) 0.2752(3) 0.0538(2)
C3 C 0.1641(2) 0.2303(4) 0.0063(2)
H1 H 0.1423 0.2749 -0.0204
C4 C 0.19126(19) 0.0580(3) 0.0333(2)
C5 C 0.2136(2) -0.1076(4) 0.0628(2)
C6 C 0.2587(2) 0.0222(4) 0.1184(2)
H2 H 0.2851 0.0449 0.1503
C7 C 0.22841(18) 0.0979(3) 0.08181(19)
C8 C 0.23259(18) 0.2080(3) 0.0958(2)
C9 C 0.1174(3) 0.0847(5) -0.0546(3)
H3 H 0.1333 0.0243 -0.0742
H4 H 0.0848 0.0612 -0.0338
C10 C 0.0967(5) 0.1587(8) -0.1042(4)
H5 H 0.0695 0.1246 -0.1332
H6 H 0.1278 0.1824 -0.1266
H7 H 0.0795 0.2174 -0.0853
C11 C 0.1629(2) -0.2554(4) 0.0088(3)
H8 H 0.1801 -0.3077 -0.0165
H9 H 0.1482 -0.2002 -0.0193
C12 C 0.1155(2) -0.3037(4) 0.0406(3)
H10 H 0.0897 -0.3377 0.0091
H11 H 0.0949 -0.2495 0.0607
C13 C 0.1799(3) -0.3366(4) 0.1349(3)
H12 H 0.1946 -0.3912 0.1634
H13 H 0.1630 -0.2834 0.1598
C14 C 0.2277(2) -0.2890(4) 0.1019(3)
H14 H 0.2541 -0.2552 0.1328
H15 H 0.2477 -0.3434 0.0811
C15 C 0.3739(2) 0.4951(4) 0.3039(2)
C16 C 0.4185(2) 0.4492(4) 0.3393(2)
H16 H 0.4248 0.3778 0.3358
C17 C 0.4540(2) 0.5085(4) 0.3801(3)
H17 H 0.4834 0.4769 0.4047
C18 C 0.4453(2) 0.6158(4) 0.3838(2)
C19 C 0.4002(2) 0.6624(4) 0.3488(2)
H18 H 0.3940 0.7339 0.3520
C20 C 0.3646(2) 0.6018(4) 0.3090(2)
H19 H 0.3343 0.6326 0.2855
C21 C 0.3344(2) 0.4313(4) 0.2601(2)
C22 C 0.5382(2) 0.7472(4) 0.3794(2)
C23 C 0.5841(2) 0.6913(4) 0.3649(2)
H20 H 0.5900 0.6245 0.3816
C24 C 0.6222(2) 0.7332(4) 0.3254(2)
H21 H 0.6533 0.6943 0.3153
C25 C 0.6137(2) 0.8325(4) 0.3013(2)
C26 C 0.5669(3) 0.8866(4) 0.3158(3)
H22 H 0.5610 0.9535 0.2994
C27 C 0.5283(2) 0.8455(5) 0.3539(3)
H23 H 0.4963 0.8831 0.3622
C28 C 0.6550(2) 0.8783(5) 0.2588(3)
N1 N 0.1365(2) -0.3811(3) 0.0885(2)
H24 H 0.1074 -0.4046 0.1090
H25 H 0.1512 -0.4359 0.0689
N2 N 0.20533(18) -0.2124(3) 0.05514(18)
N3 N 0.25208(16) -0.0783(3) 0.11006(18)
N4 N 0.18386(17) -0.0439(3) 0.02259(17)
N5 N 0.15943(19) 0.1273(3) -0.00527(18)
O1 O 0.26531(13) 0.2387(2) 0.14217(15)
O2 O 0.21836(15) 0.4353(2) 0.10828(16)
O3 O 0.16805(16) 0.4421(3) 0.01720(16)
O4 O 0.33953(19) 0.3357(3) 0.25739(18)
O5 O 0.29670(16) 0.4807(3) 0.22666(17)
O6 O 0.65160(18) 0.9709(3) 0.2439(2)
O7 O 0.69308(16) 0.8166(3) 0.24269(17)
O8 O 0.45938(16) 0.7789(3) 0.45532(18)
O9 O 0.52430(16) 0.6282(3) 0.47562(17)
Zn1B Zn 0.74841(2) 0.86984(4) 0.18834(3)
O7B O 0.19308(16) 0.3166(3) 0.24269(17)
O10 O 0.6031(3) 1.1515(5) 0.2787(4)
O11 O 0.0792(7) 0.4061(14) -0.0878(8)
C29? C 0.1339(6) 0.0801(12) -0.1162(5)
H26? H 0.1036 0.0521 -0.1439
H27? H 0.1665 0.0360 -0.1170
H28? H 0.1429 0.1492 -0.1300
H29? H 0.1073 0.0147 -0.0421
H30? H 0.0835 0.1272 -0.0551
O12? O 0.0359(4) -0.4104(10) 0.1411(5)
O13? O 0.0539(7) 0.4633(14) -0.0341(8)
loop_
_geom_bond_atom_site_label_1
_geom_bond_atom_site_label_2
_geom_bond_site_symmetry_1
_geom_bond_site_symmetry_2
Zn1 O1 1_555 1_555
S1 C18 1_555 1_555
C1 C2 1_555 1_555
C2 C3 1_555 1_555
C3 H1 1_555 1_555
C4 C7 1_555 1_555
C5 N2 1_555 1_555
C6 H2 1_555 1_555
C7 C6 1_555 1_555
C8 C2 1_555 1_555
C9 H3 1_555 1_555
H4 C9 1_555 1_555
C10 C9 1_555 1_555
H5 C10 1_555 1_555
H6 C10 1_555 1_555
H7 C10 1_555 1_555
C11 H8 1_555 1_555
H9 C11 1_555 1_555
C12 C11 1_555 1_555
H10 C12 1_555 1_555
H11 C12 1_555 1_555
C13 H12 1_555 1_555
H13 C13 1_555 1_555
C14 C13 1_555 1_555
H14 C14 1_555 1_555
H15 C14 1_555 1_555
C15 C16 1_555 1_555
C16 H16 1_555 1_555
C17 C16 1_555 1_555
H17 C17 1_555 1_555
C18 C17 1_555 1_555
C19 C18 1_555 1_555
H18 C19 1_555 1_555
C20 C15 1_555 1_555
H19 C20 1_555 1_555
C21 C15 1_555 1_555
C22 S1 1_555 1_555
C23 C22 1_555 1_555
H20 C23 1_555 1_555
C24 C23 1_555 1_555
H21 C24 1_555 1_555
C25 C24 1_555 1_555
C26 C25 1_555 1_555
H22 C26 1_555 1_555
C27 C22 1_555 1_555
H23 C27 1_555 1_555
C28 C25 1_555 1_555
N1 C12 1_555 1_555
H24 N1 1_555 1_555
H25 N1 1_555 1_555
N2 C11 1_555 1_555
N3 C5 1_555 1_555
N4 C4 1_555 1_555
N5 C3 1_555 1_555
O1 C8 1_555 1_555
O2 Zn1 1_555 1_555
O3 C1 1_555 1_555
O4 Zn1 1_555 1_555
O5 Zn1 1_555 1_555
O6 C28 1_555 1_555
O7 C28 1_555 1_555
O8 S1 1_555 1_555
O9 S1 1_555 1_555
Zn1B O7 1_555 1_555
O7B Zn1 1_555 1_555
C1 O2 1_555 1_555
C4 N5 1_555 1_555
C5 N4 1_555 1_555
C6 N3 1_555 1_555
C7 C8 1_555 1_555
C9 N5 1_555 1_555
C13 N1 1_555 1_555
C14 N2 1_555 1_555
C19 C20 1_555 1_555
C21 O4 1_555 1_555
C21 O5 1_555 1_555
C26 C27 1_555 1_555

#END
