
#######################################################################
#
#                 Cambridge Crystallographic Data Centre
#                                CCDC 
#
#######################################################################
#
# If this CIF has been generated from an entry in the Cambridge 
# Structural Database, then it will include bibliographic, chemical, 
# crystal, experimental, refinement or atomic coordinate data resulting 
# from the CCDC's data processing and validation procedures.
#
#######################################################################

data_HEBSAK
_symmetry_cell_setting           triclinic
_symmetry_space_group_name_H-M   'P -1'
_symmetry_Int_Tables_number      2
_space_group_name_Hall           '-P 1'
loop_
_symmetry_equiv_pos_site_id
_symmetry_equiv_pos_as_xyz
1 x,y,z
2 -x,-y,-z
_cell_length_a                   9.7046(2)
_cell_length_b                   11.2609(3)
_cell_length_c                   11.7126(3)
_cell_angle_alpha                100.154(2)
_cell_angle_beta                 110.090(2)
_cell_angle_gamma                98.451(2)
_cell_volume                     1153.07
loop_
_atom_site_label
_atom_site_type_symbol
_atom_site_fract_x
_atom_site_fract_y
_atom_site_fract_z
Mn1 Mn 0.0000 0.0000 0.0000
C1 C -0.1938(3) 0.1809(2) 0.0463(2)
C2 C -0.0617(3) 0.2886(2) 0.0809(2)
C3 C 0.0790(3) 0.2817(2) 0.0707(2)
C4 C 0.1935(3) 0.3982(2) 0.1185(2)
C5 C 0.1620(3) 0.5104(2) 0.1629(2)
C6 C -0.0828(3) 0.4023(2) 0.1259(2)
H1 H -0.1758 0.4048 0.1313
C7 C 0.3378(3) 0.3946(2) 0.1192(2)
H2 H 0.3591 0.3197 0.0906
C8 C 0.4456(3) 0.5000(2) 0.1616(3)
C9 C 0.4216(3) 0.6180(2) 0.2036(2)
C10 C 0.2783(3) 0.6182(2) 0.2013(2)
C11 C -0.0271(3) 0.6212(3) 0.2165(3)
H3 H -0.1360 0.6079 0.1816
H4 H 0.0144 0.6930 0.1937
C12 C 0.0275(5) 0.6454(3) 0.3570(3)
H5 H -0.0023 0.7174 0.3894
H6 H 0.1353 0.6590 0.3916
H7 H -0.0155 0.5752 0.3796
C13 C 0.5816(4) 0.7529(3) 0.1409(3)
H8 H 0.5029 0.7851 0.0874
H9 H 0.5898 0.6780 0.0906
C14 C 0.7250(4) 0.8447(3) 0.1881(3)
H10 H 0.7439 0.8685 0.1183
H11 H 0.8064 0.8084 0.2314
C15 C 0.6931(3) 0.9185(3) 0.3841(3)
H12 H 0.7715 0.8773 0.4258
C16 C 0.5428(4) 0.8304(3) 0.3337(3)
H13 H 0.5226 0.8041 0.4020
H14 H 0.4649 0.8717 0.2942
C17 C 0.6983(4) 1.0361(3) 0.4773(3)
H15 H 0.6817 1.0137 0.5477
H16 H 0.6213 1.0762 0.4365
H17 H 0.7951 1.0915 0.5058
C18 C 0.1966(3) 0.2331(2) 0.3577(2)
C19 C 0.1837(3) 0.3389(3) 0.4303(3)
H18 H 0.0939 0.3400 0.4423
C20 C 0.2998(3) 0.4423(3) 0.4853(3)
H19 H 0.2868 0.5121 0.5327
C21 C 0.4376(3) 0.4440(2) 0.4709(2)
C22 C 0.4507(3) 0.3363(3) 0.3978(2)
H20 H 0.5409 0.3341 0.3871
C23 C 0.3322(3) 0.2333(3) 0.3414(2)
H21 H 0.3433 0.1637 0.2923
C24 C 0.0680(3) 0.1212(3) 0.3012(2)
N1 N 0.7211(3) 0.9561(2) 0.2754(2)
H22 H 0.6474 0.9914 0.2351
H23 H 0.8093 1.0118 0.3035
N2 N 0.5400(2) 0.7228(2) 0.2426(2)
N3 N 0.0184(2) 0.5114(2) 0.1633(2)
O2 O -0.1915(2) 0.07616(18) -0.0122(2)
O4 O -0.2991(2) 0.2024(2) 0.0777(2)
O5 O 0.11388(19) 0.18530(16) 0.02626(18)
O6 O 0.0592(2) 0.0415(2) 0.20907(18)
O7 O -0.0244(2) 0.1169(2) 0.3549(2)
F1 F 0.58562(17) 0.49436(15) 0.16585(19)
F2 F 0.24691(19) 0.72916(15) 0.2353(2)
Mn1_2 Mn 1.0000 1.0000 1.0000
C1A C 0.1938(3) -0.1809(2) -0.0463(2)
C2A C 0.0617(3) -0.2886(2) -0.0809(2)
C3A C -0.0790(3) -0.2817(2) -0.0707(2)
C4A C -0.1935(3) -0.3982(2) -0.1185(2)
C5A C -0.1620(3) -0.5104(2) -0.1629(2)
C6A C 0.0828(3) -0.4023(2) -0.1259(2)
H1A H 0.1758 -0.4048 -0.1313
C7A C -0.3378(3) -0.3946(2) -0.1192(2)
H2A H -0.3591 -0.3197 -0.0906
C8A C -0.4456(3) -0.5000(2) -0.1616(3)
C9A C -0.4216(3) -0.6180(2) -0.2036(2)
C10A C -0.2783(3) -0.6182(2) -0.2013(2)
C11A C 0.0271(3) -0.6212(3) -0.2165(3)
H3A H 0.1360 -0.6079 -0.1816
H4A H -0.0144 -0.6930 -0.1937
C12A C -0.0275(5) -0.6454(3) -0.3570(3)
H5A H 0.0023 -0.7174 -0.3894
H6A H -0.1353 -0.6590 -0.3916
H7A H 0.0155 -0.5752 -0.3796
C13A C -0.5816(4) -0.7529(3) -0.1409(3)
H8A H -0.5029 -0.7851 -0.0874
H9A H -0.5898 -0.6780 -0.0906
C14A C -0.7250(4) -0.8447(3) -0.1881(3)
H10A H -0.7439 -0.8685 -0.1183
H11A H -0.8064 -0.8084 -0.2314
C15A C -0.6931(3) -0.9185(3) -0.3841(3)
H12A H -0.7715 -0.8773 -0.4258
C16A C -0.5428(4) -0.8304(3) -0.3337(3)
H13A H -0.5226 -0.8041 -0.4020
H14A H -0.4649 -0.8717 -0.2942
C17A C -0.6983(4) -1.0361(3) -0.4773(3)
H15A H -0.6817 -1.0137 -0.5477
H16A H -0.6213 -1.0762 -0.4365
H17A H -0.7951 -1.0915 -0.5058
C18A C 0.8034(3) 0.7669(2) 0.6423(2)
C19A C 0.8163(3) 0.6611(3) 0.5697(3)
H18A H 0.9061 0.6600 0.5577
C20A C 0.7002(3) 0.5577(3) 0.5147(3)
H19A H 0.7132 0.4879 0.4673
C21A C 0.5624(3) 0.5560(2) 0.5291(2)
C22A C 0.5493(3) 0.6637(3) 0.6022(2)
H20A H 0.4591 0.6659 0.6129
C23A C 0.6678(3) 0.7667(3) 0.6586(2)
H21A H 0.6567 0.8363 0.7077
C24A C 0.9320(3) 0.8788(3) 0.6988(2)
N1A N -0.7211(3) -0.9561(2) -0.2754(2)
H22A H -0.6474 -0.9914 -0.2351
H23A H -0.8093 -1.0118 -0.3035
N2A N -0.5400(2) -0.7228(2) -0.2426(2)
N3A N -0.0184(2) -0.5114(2) -0.1633(2)
O2A O 0.1915(2) -0.07616(18) 0.0122(2)
O4A O 0.2991(2) -0.2024(2) -0.0777(2)
O5A O -0.11388(19) -0.18530(16) -0.02626(18)
O6A O 0.9408(2) 0.9585(2) 0.79093(18)
O6A_2 O -0.0592(2) -0.0415(2) -0.20907(18)
O7A O 1.0244(2) 0.8831(2) 0.6451(2)
F1A F -0.58562(17) -0.49436(15) -0.16585(19)
F2A F -0.24691(19) -0.72916(15) -0.2353(2)
O1 O 0.2181(3) 0.6943(3) 0.6590(3)
H26 H 0.284(4) 0.723(4) 0.731(2)
H27 H 0.150(4) 0.734(4) 0.649(4)
O3 O 0.5085(3) 0.9322(3) 0.8538(2)
H24 H 0.493(5) 0.877(3) 0.889(4)
H25 H 0.596(2) 0.974(4) 0.891(4)
loop_
_geom_bond_atom_site_label_1
_geom_bond_atom_site_label_2
_geom_bond_site_symmetry_1
_geom_bond_site_symmetry_2
Mn1 O2 1_555 1_555
C1 C2 1_555 1_555
C2 C3 1_555 1_555
C3 C4 1_555 1_555
C4 C5 1_555 1_555
C5 C10 1_555 1_555
C6 C2 1_555 1_555
H1 C6 1_555 1_555
C7 C4 1_555 1_555
H2 C7 1_555 1_555
C8 C7 1_555 1_555
C9 C8 1_555 1_555
C10 C9 1_555 1_555
C11 H3 1_555 1_555
H4 C11 1_555 1_555
C12 C11 1_555 1_555
H5 C12 1_555 1_555
H6 C12 1_555 1_555
H7 C12 1_555 1_555
C13 H8 1_555 1_555
H9 C13 1_555 1_555
C14 C13 1_555 1_555
H10 C14 1_555 1_555
H11 C14 1_555 1_555
C15 H12 1_555 1_555
C16 C15 1_555 1_555
H13 C16 1_555 1_555
H14 C16 1_555 1_555
C17 C15 1_555 1_555
H15 C17 1_555 1_555
H16 C17 1_555 1_555
H17 C17 1_555 1_555
C18 C19 1_555 1_555
C19 H18 1_555 1_555
C20 C19 1_555 1_555
H19 C20 1_555 1_555
C21 C20 1_555 1_555
C22 C21 1_555 1_555
H20 C22 1_555 1_555
C23 C18 1_555 1_555
H21 C23 1_555 1_555
C24 C18 1_555 1_555
N1 C14 1_555 1_555
H22 N1 1_555 1_555
H23 N1 1_555 1_555
N2 C9 1_555 1_555
N3 C5 1_555 1_555
O1 H26 1_555 1_555
O2 C1 1_555 1_555
O3 H24 1_555 1_555
O4 C1 1_555 1_555
O5 Mn1 1_555 1_555
O6 Mn1 1_555 1_555
O7 C24 1_555 1_555
F1 C8 1_555 1_555
F2 C10 1_555 1_555
H25 O3 1_555 1_555
H27 O1 1_555 1_555
Mn1_2 O6A 1_555 1_555
C1A C2A 1_555 1_555
C2A C3A 1_555 1_555
C3A C4A 1_555 1_555
C4A C5A 1_555 1_555
C5A C10A 1_555 1_555
C6A C2A 1_555 1_555
H1A C6A 1_555 1_555
C7A C4A 1_555 1_555
H2A C7A 1_555 1_555
C8A C7A 1_555 1_555
C9A C8A 1_555 1_555
C10A C9A 1_555 1_555
C11A H3A 1_555 1_555
H4A C11A 1_555 1_555
C12A C11A 1_555 1_555
H5A C12A 1_555 1_555
H6A C12A 1_555 1_555
H7A C12A 1_555 1_555
C13A H8A 1_555 1_555
H9A C13A 1_555 1_555
C14A C13A 1_555 1_555
H10A C14A 1_555 1_555
H11A C14A 1_555 1_555
C15A H12A 1_555 1_555
C16A C15A 1_555 1_555
H13A C16A 1_555 1_555
H14A C16A 1_555 1_555
C17A C15A 1_555 1_555
H15A C17A 1_555 1_555
H16A C17A 1_555 1_555
H17A C17A 1_555 1_555
C18A C19A 1_555 1_555
C19A H18A 1_555 1_555
C20A C19A 1_555 1_555
H19A C20A 1_555 1_555
C21A C21 1_555 1_555
C22A C21A 1_555 1_555
H20A C22A 1_555 1_555
C23A C18A 1_555 1_555
H21A C23A 1_555 1_555
C24A C18A 1_555 1_555
N1A C14A 1_555 1_555
H22A N1A 1_555 1_555
H23A N1A 1_555 1_555
N2A C9A 1_555 1_555
N3A C5A 1_555 1_555
O2A Mn1 1_555 1_555
O4A C1A 1_555 1_555
O5A Mn1 1_555 1_555
O6A C24A 1_555 1_555
O6A_2 Mn1 1_555 1_555
O7A C24A 1_555 1_555
F1A C8A 1_555 1_555
F2A C10A 1_555 1_555
C3 O5 1_555 1_555
C6 N3 1_555 1_555
C11 N3 1_555 1_555
C13 N2 1_555 1_555
C15 N1 1_555 1_555
C16 N2 1_555 1_555
C22 C23 1_555 1_555
C24 O6 1_555 1_555
C1A O2A 1_555 1_555
C3A O5A 1_555 1_555
C6A N3A 1_555 1_555
C11A N3A 1_555 1_555
C13A N2A 1_555 1_555
C15A N1A 1_555 1_555
C16A N2A 1_555 1_555
C20A C21A 1_555 1_555
C22A C23A 1_555 1_555

#END
