
#######################################################################
#
#                 Cambridge Crystallographic Data Centre
#                                CCDC 
#
#######################################################################
#
# If this CIF has been generated from an entry in the Cambridge 
# Structural Database, then it will include bibliographic, chemical, 
# crystal, experimental, refinement or atomic coordinate data resulting 
# from the CCDC's data processing and validation procedures.
#
#######################################################################

data_HEBTIS
_symmetry_cell_setting           monoclinic
_symmetry_space_group_name_H-M   'C 2/c'
_symmetry_Int_Tables_number      15
_space_group_name_Hall           '-C 2yn'
loop_
_symmetry_equiv_pos_site_id
_symmetry_equiv_pos_as_xyz
1 x,y,z
2 1/2+x,1/2+y,z
3 -x,y,1/2-z
4 1/2-x,1/2+y,1/2-z
5 -x,-y,-z
6 1/2-x,1/2-y,-z
7 x,-y,1/2+z
8 1/2+x,1/2-y,1/2+z
_cell_length_a                   25.681(10)
_cell_length_b                   9.401(4)
_cell_length_c                   14.275(6)
_cell_angle_alpha                90
_cell_angle_beta                 112.461(6)
_cell_angle_gamma                90
_cell_volume                     3184.93
loop_
_atom_site_label
_atom_site_type_symbol
_atom_site_fract_x
_atom_site_fract_y
_atom_site_fract_z
Au1 Au 1.034884(16) 0.52763(5) 0.15855(3)
Zn1 Zn 1.0000 0.02922(15) 0.2500
O1 O 0.7950(3) -0.0921(10) 0.2070(5)
O2 O 0.7120(3) 0.1344(9) -0.1012(5)
N1 N 1.0327(3) 0.1957(11) 0.1789(7)
N2 N 1.0308(3) -0.1431(10) 0.1790(6)
N3 N 0.9238(3) 0.0326(8) 0.1205(6)
N4 N 0.7583(3) -0.0411(8) 0.1267(6)
N5 N 0.7181(3) 0.0614(9) -0.0217(6)
C1 C 1.0349(4) 0.3172(15) 0.1657(8)
C2 C 1.0335(4) -0.2595(10) 0.1645(8)
C3 C 0.9256(4) 0.0362(10) 0.0287(8)
H1 H 0.9607 0.0382 0.0239
C4 C 0.8777(4) 0.0372(12) -0.0607(8)
H2 H 0.8806 0.0377 -0.1237
C5 C 0.8259(4) 0.0373(11) -0.0525(7)
H3 H 0.7930 0.0394 -0.1105
C6 C 0.8229(4) 0.0345(9) 0.0409(7)
C7 C 0.8732(4) 0.0322(10) 0.1280(7)
H4 H 0.8714 0.0304 0.1918
C8 C 0.7686(4) 0.0201(10) 0.0500(7)
C9 C 0.6972(4) -0.0303(10) 0.1117(7)
C10 C 0.6797(4) -0.1688(12) 0.1485(8)
H5 H 0.6893 -0.2484 0.1161
H6 H 0.6398 -0.1680 0.1318
H7 H 0.6991 -0.1767 0.2206
C11 C 0.6931(4) 0.0985(13) 0.1738(8)
H8 H 0.7173 0.0847 0.2436
H9 H 0.6549 0.1093 0.1685
H10 H 0.7045 0.1825 0.1484
C12 C 0.6707(4) -0.0074(10) -0.0039(7)
C13 C 0.6569(5) -0.1436(13) -0.0669(9)
H11 H 0.6489 -0.1208 -0.1366
H12 H 0.6246 -0.1885 -0.0614
H13 H 0.6886 -0.2071 -0.0423
C14 C 0.6193(4) 0.0923(14) -0.0394(8)
H14 H 0.6286 0.1787 -0.0007
H15 H 0.5883 0.0465 -0.0297
H16 H 0.6090 0.1138 -0.1099
Au1B Au 0.965116(16) 0.52763(5) 0.34145(3)
Au1_2 Au 1.034884(16) -0.47237(5) 0.15855(3)
Au1B_2 Au 0.965116(16) -0.47237(5) 0.34145(3)
O1B O 1.2050(3) -0.0921(10) 0.2930(5)
O2B O 1.2880(3) 0.1344(9) 0.6012(5)
N1B N 0.9673(3) 0.1957(11) 0.3211(7)
N2B N 0.9692(3) -0.1431(10) 0.3210(6)
N3B N 1.0762(3) 0.0326(8) 0.3795(6)
N4B N 1.2417(3) -0.0411(8) 0.3733(6)
N5B N 1.2819(3) 0.0614(9) 0.5217(6)
C1B C 0.9651(4) 0.3172(15) 0.3343(8)
C2B C 0.9665(4) -0.2595(10) 0.3355(8)
C2_2 C 1.0335(4) 0.7405(10) 0.1645(8)
C2B_2 C 0.9665(4) 0.7405(10) 0.3355(8)
C3B C 1.0744(4) 0.0362(10) 0.4713(8)
H1B H 1.0393 0.0382 0.4761
C4B C 1.1223(4) 0.0372(12) 0.5607(8)
H2B H 1.1194 0.0377 0.6237
C5B C 1.1741(4) 0.0373(11) 0.5525(7)
H3B H 1.2070 0.0394 0.6105
C6B C 1.1771(4) 0.0345(9) 0.4591(7)
C7B C 1.1268(4) 0.0322(10) 0.3720(7)
H4B H 1.1286 0.0304 0.3082
C8B C 1.2314(4) 0.0201(10) 0.4500(7)
C9B C 1.3028(4) -0.0303(10) 0.3883(7)
C10B C 1.3203(4) -0.1688(12) 0.3515(8)
H5B H 1.3107 -0.2484 0.3839
H6B H 1.3602 -0.1680 0.3682
H7B H 1.3009 -0.1767 0.2794
C11B C 1.3069(4) 0.0985(13) 0.3262(8)
H8B H 1.2827 0.0847 0.2564
H9B H 1.3451 0.1093 0.3315
H10B H 1.2955 0.1825 0.3516
C12B C 1.3293(4) -0.0074(10) 0.5039(7)
C13B C 1.3431(5) -0.1436(13) 0.5669(9)
H11B H 1.3511 -0.1208 0.6366
H12B H 1.3754 -0.1885 0.5614
H13B H 1.3114 -0.2071 0.5423
C14B C 1.3807(4) 0.0923(14) 0.5394(8)
H14B H 1.3714 0.1787 0.5007
H15B H 1.4117 0.0465 0.5297
H16B H 1.3910 0.1138 0.6099
loop_
_geom_bond_atom_site_label_1
_geom_bond_atom_site_label_2
_geom_bond_site_symmetry_1
_geom_bond_site_symmetry_2
Au1 C1 1_555 1_555
Zn1 N1 1_555 1_555
O1 N4 1_555 1_555
O2 N5 1_555 1_555
N1 C1 1_555 1_555
N2 Zn1 1_555 1_555
N3 Zn1 1_555 1_555
N4 C8 1_555 1_555
N5 C8 1_555 1_555
C2 N2 1_555 1_555
C3 N3 1_555 1_555
H1 C3 1_555 1_555
C4 C3 1_555 1_555
H2 C4 1_555 1_555
C5 C4 1_555 1_555
H3 C5 1_555 1_555
C6 C5 1_555 1_555
C7 N3 1_555 1_555
H4 C7 1_555 1_555
C8 C6 1_555 1_555
C9 N4 1_555 1_555
C10 C9 1_555 1_555
H5 C10 1_555 1_555
H6 C10 1_555 1_555
H7 C10 1_555 1_555
C11 C9 1_555 1_555
H8 C11 1_555 1_555
H9 C11 1_555 1_555
H10 C11 1_555 1_555
C12 N5 1_555 1_555
C13 C12 1_555 1_555
H11 C13 1_555 1_555
H12 C13 1_555 1_555
H13 C13 1_555 1_555
C14 C12 1_555 1_555
H14 C14 1_555 1_555
H15 C14 1_555 1_555
H16 C14 1_555 1_555
Au1B C1B 1_555 1_555
Au1_2 C2 1_555 1_555
Au1B_2 C2B 1_555 1_555
O1B N4B 1_555 1_555
O2B N5B 1_555 1_555
N1B Zn1 1_555 1_555
N2B Zn1 1_555 1_555
N3B Zn1 1_555 1_555
N4B C8B 1_555 1_555
N5B C8B 1_555 1_555
C1B N1B 1_555 1_555
C2B N2B 1_555 1_555
C2_2 Au1 1_555 1_555
C2B_2 Au1B 1_555 1_555
C3B N3B 1_555 1_555
H1B C3B 1_555 1_555
C4B C3B 1_555 1_555
H2B C4B 1_555 1_555
C5B C4B 1_555 1_555
H3B C5B 1_555 1_555
C6B C5B 1_555 1_555
C7B N3B 1_555 1_555
H4B C7B 1_555 1_555
C8B C6B 1_555 1_555
C9B N4B 1_555 1_555
C10B C9B 1_555 1_555
H5B C10B 1_555 1_555
H6B C10B 1_555 1_555
H7B C10B 1_555 1_555
C11B C9B 1_555 1_555
H8B C11B 1_555 1_555
H9B C11B 1_555 1_555
H10B C11B 1_555 1_555
C12B N5B 1_555 1_555
C13B C12B 1_555 1_555
H11B C13B 1_555 1_555
H12B C13B 1_555 1_555
H13B C13B 1_555 1_555
C14B C12B 1_555 1_555
H14B C14B 1_555 1_555
H15B C14B 1_555 1_555
H16B C14B 1_555 1_555
C6 C7 1_555 1_555
C9 C12 1_555 1_555
C6B C7B 1_555 1_555
C9B C12B 1_555 1_555

#END
