
#######################################################################
#
#                 Cambridge Crystallographic Data Centre
#                                CCDC 
#
#######################################################################
#
# If this CIF has been generated from an entry in the Cambridge 
# Structural Database, then it will include bibliographic, chemical, 
# crystal, experimental, refinement or atomic coordinate data resulting 
# from the CCDC's data processing and validation procedures.
#
#######################################################################

data_HEBTEO
_symmetry_cell_setting           monoclinic
_symmetry_space_group_name_H-M   'C 2/c'
_symmetry_Int_Tables_number      15
_space_group_name_Hall           '-C 2yn'
loop_
_symmetry_equiv_pos_site_id
_symmetry_equiv_pos_as_xyz
1 x,y,z
2 1/2+x,1/2+y,z
3 -x,y,1/2-z
4 1/2-x,1/2+y,1/2-z
5 -x,-y,-z
6 1/2-x,1/2-y,-z
7 x,-y,1/2+z
8 1/2+x,1/2-y,1/2+z
_cell_length_a                   25.883(10)
_cell_length_b                   9.437(4)
_cell_length_c                   14.162(6)
_cell_angle_alpha                90
_cell_angle_beta                 111.772(6)
_cell_angle_gamma                90
_cell_volume                     3212.43
loop_
_atom_site_label
_atom_site_type_symbol
_atom_site_fract_x
_atom_site_fract_y
_atom_site_fract_z
Au1 Au 1.033527(11) 0.51799(3) 0.15404(2)
Mn1 Mn 1.0000 0.01942(13) 0.2500
O1 O 0.79234(19) -0.0990(6) 0.2002(4)
O2 O 0.7107(2) 0.1386(6) -0.1044(4)
N1 N 1.0322(2) 0.1899(6) 0.1735(5)
N2 N 1.0299(2) -0.1554(7) 0.1742(5)
N3 N 0.9202(2) 0.0260(5) 0.1141(4)
N4 N 0.7562(2) -0.0433(6) 0.1211(4)
N5 N 0.7175(2) 0.0641(6) -0.0256(4)
C1 C 1.0331(3) 0.3085(7) 0.1613(6)
C2 C 1.0324(3) -0.2725(7) 0.1603(6)
C3 C 0.9217(3) 0.0281(7) 0.0194(6)
H1 H 0.9563 0.0262 0.0132
C4 C 0.8759(3) 0.0330(7) -0.0662(6)
H2 H 0.8793 0.0346 -0.1293
C5 C 0.8242(3) 0.0355(7) -0.0603(5)
H3 H 0.7922 0.0405 -0.1188
C6 C 0.8209(3) 0.0303(6) 0.0360(5)
C7 C 0.8692(2) 0.0259(6) 0.1203(5)
H4 H 0.8669 0.0228 0.1843
C8 C 0.7655(3) 0.0211(7) 0.0440(5)
C9 C 0.6956(2) -0.0304(7) 0.1073(5)
C10 C 0.6768(3) -0.1642(8) 0.1432(6)
H5 H 0.6840 -0.2442 0.1081
H6 H 0.6376 -0.1585 0.1295
H7 H 0.6967 -0.1751 0.2150
C11 C 0.6924(3) 0.0963(8) 0.1715(6)
H8 H 0.7167 0.0813 0.2408
H9 H 0.6548 0.1071 0.1681
H10 H 0.7035 0.1805 0.1459
C12 C 0.6687(3) -0.0016(6) -0.0081(5)
C13 C 0.6553(3) -0.1374(8) -0.0723(6)
H11 H 0.6461 -0.1136 -0.1426
H12 H 0.6244 -0.1848 -0.0644
H13 H 0.6872 -0.1989 -0.0502
C14 C 0.6194(3) 0.0975(9) -0.0413(6)
H14 H 0.6305 0.1879 -0.0091
H15 H 0.5904 0.0586 -0.0220
H16 H 0.6058 0.1090 -0.1137
Au1B Au 0.966473(11) 0.51799(3) 0.34596(2)
Au1_2 Au 1.033527(11) -0.48201(3) 0.15404(2)
Au1B_2 Au 0.966473(11) -0.48201(3) 0.34596(2)
O1B O 1.20766(19) -0.0990(6) 0.2998(4)
O2B O 1.2893(2) 0.1386(6) 0.6044(4)
N1B N 0.9678(2) 0.1899(6) 0.3265(5)
N2B N 0.9701(2) -0.1554(7) 0.3258(5)
N3B N 1.0798(2) 0.0260(5) 0.3859(4)
N4B N 1.2438(2) -0.0433(6) 0.3789(4)
N5B N 1.2825(2) 0.0641(6) 0.5256(4)
C1B C 0.9669(3) 0.3085(7) 0.3387(6)
C2B C 0.9676(3) -0.2725(7) 0.3397(6)
C2_2 C 1.0324(3) 0.7275(7) 0.1603(6)
C2B_2 C 0.9676(3) 0.7275(7) 0.3397(6)
C3B C 1.0783(3) 0.0281(7) 0.4806(6)
H1B H 1.0437 0.0262 0.4868
C4B C 1.1241(3) 0.0330(7) 0.5662(6)
H2B H 1.1207 0.0346 0.6293
C5B C 1.1758(3) 0.0355(7) 0.5603(5)
H3B H 1.2078 0.0405 0.6188
C6B C 1.1791(3) 0.0303(6) 0.4640(5)
C7B C 1.1308(2) 0.0259(6) 0.3797(5)
H4B H 1.1331 0.0228 0.3157
C8B C 1.2345(3) 0.0211(7) 0.4560(5)
C9B C 1.3044(2) -0.0304(7) 0.3927(5)
C10B C 1.3232(3) -0.1642(8) 0.3568(6)
H5B H 1.3160 -0.2442 0.3919
H6B H 1.3624 -0.1585 0.3705
H7B H 1.3033 -0.1751 0.2850
C11B C 1.3076(3) 0.0963(8) 0.3285(6)
H8B H 1.2833 0.0813 0.2592
H9B H 1.3452 0.1071 0.3319
H10B H 1.2965 0.1805 0.3541
C12B C 1.3313(3) -0.0016(6) 0.5081(5)
C13B C 1.3447(3) -0.1374(8) 0.5723(6)
H11B H 1.3539 -0.1136 0.6426
H12B H 1.3756 -0.1848 0.5644
H13B H 1.3128 -0.1989 0.5502
C14B C 1.3806(3) 0.0975(9) 0.5413(6)
H14B H 1.3695 0.1879 0.5091
H15B H 1.4096 0.0586 0.5220
H16B H 1.3942 0.1090 0.6137
loop_
_geom_bond_atom_site_label_1
_geom_bond_atom_site_label_2
_geom_bond_site_symmetry_1
_geom_bond_site_symmetry_2
Au1 C1 1_555 1_555
Mn1 N1 1_555 1_555
O1 N4 1_555 1_555
O2 N5 1_555 1_555
N1 C1 1_555 1_555
N2 Mn1 1_555 1_555
N3 Mn1 1_555 1_555
N4 C8 1_555 1_555
N5 C8 1_555 1_555
C2 N2 1_555 1_555
C3 N3 1_555 1_555
H1 C3 1_555 1_555
C4 C3 1_555 1_555
H2 C4 1_555 1_555
C5 C4 1_555 1_555
H3 C5 1_555 1_555
C6 C5 1_555 1_555
C7 N3 1_555 1_555
H4 C7 1_555 1_555
C8 C6 1_555 1_555
C9 N4 1_555 1_555
C10 C9 1_555 1_555
H5 C10 1_555 1_555
H6 C10 1_555 1_555
H7 C10 1_555 1_555
C11 C9 1_555 1_555
H8 C11 1_555 1_555
H9 C11 1_555 1_555
H10 C11 1_555 1_555
C12 N5 1_555 1_555
C13 C12 1_555 1_555
H11 C13 1_555 1_555
H12 C13 1_555 1_555
H13 C13 1_555 1_555
C14 C12 1_555 1_555
H14 C14 1_555 1_555
H15 C14 1_555 1_555
H16 C14 1_555 1_555
Au1B C1B 1_555 1_555
Au1_2 C2 1_555 1_555
Au1B_2 C2B 1_555 1_555
O1B N4B 1_555 1_555
O2B N5B 1_555 1_555
N1B Mn1 1_555 1_555
N2B Mn1 1_555 1_555
N3B Mn1 1_555 1_555
N4B C8B 1_555 1_555
N5B C8B 1_555 1_555
C1B N1B 1_555 1_555
C2B N2B 1_555 1_555
C2_2 Au1 1_555 1_555
C2B_2 Au1B 1_555 1_555
C3B N3B 1_555 1_555
H1B C3B 1_555 1_555
C4B C3B 1_555 1_555
H2B C4B 1_555 1_555
C5B C4B 1_555 1_555
H3B C5B 1_555 1_555
C6B C5B 1_555 1_555
C7B N3B 1_555 1_555
H4B C7B 1_555 1_555
C8B C6B 1_555 1_555
C9B N4B 1_555 1_555
C10B C9B 1_555 1_555
H5B C10B 1_555 1_555
H6B C10B 1_555 1_555
H7B C10B 1_555 1_555
C11B C9B 1_555 1_555
H8B C11B 1_555 1_555
H9B C11B 1_555 1_555
H10B C11B 1_555 1_555
C12B N5B 1_555 1_555
C13B C12B 1_555 1_555
H11B C13B 1_555 1_555
H12B C13B 1_555 1_555
H13B C13B 1_555 1_555
C14B C12B 1_555 1_555
H14B C14B 1_555 1_555
H15B C14B 1_555 1_555
H16B C14B 1_555 1_555
C6 C7 1_555 1_555
C9 C12 1_555 1_555
C6B C7B 1_555 1_555
C9B C12B 1_555 1_555

#END
