
#######################################################################
#
#                 Cambridge Crystallographic Data Centre
#                                CCDC 
#
#######################################################################
#
# If this CIF has been generated from an entry in the Cambridge 
# Structural Database, then it will include bibliographic, chemical, 
# crystal, experimental, refinement or atomic coordinate data resulting 
# from the CCDC's data processing and validation procedures.
#
#######################################################################

data_HEBVAM
_symmetry_cell_setting           monoclinic
_symmetry_space_group_name_H-M   'P 2/c'
_symmetry_Int_Tables_number      13
_space_group_name_Hall           '-P 2yc'
loop_
_symmetry_equiv_pos_site_id
_symmetry_equiv_pos_as_xyz
1 x,y,z
2 -x,y,1/2-z
3 -x,-y,-z
4 x,-y,1/2+z
_cell_length_a                   14.626(3)
_cell_length_b                   7.4429(15)
_cell_length_c                   13.317(3)
_cell_angle_alpha                90
_cell_angle_beta                 97.79(3)
_cell_angle_gamma                90
_cell_volume                     1436.31
loop_
_atom_site_label
_atom_site_type_symbol
_atom_site_fract_x
_atom_site_fract_y
_atom_site_fract_z
Cu1 Cu 1.0000 0.96706(7) 0.2500
N1 N 0.87181(15) 0.9555(3) 0.16606(17)
N2 N 0.54422(15) 0.7732(4) 0.02813(18)
H1 H 0.5557 0.7619 0.0929
C1 C 0.45558(19) 0.7167(4) -0.0162(2)
C2 C 1.0631(2) 0.3099(5) 0.1282(2)
C3 C 0.86257(19) 0.9506(5) 0.0648(2)
H2 H 0.9142 0.9718 0.0327
C4 C 0.70110(18) 0.8850(4) 0.0515(2)
O1 O 0.60832(15) 0.8669(4) -0.10896(16)
N3 N 1.0444(3) 0.7560(5) 0.1485(4)
N4 N 1.0444(2) 0.1691(4) 0.1527(2)
C5 C 0.61299(18) 0.8423(4) -0.0175(2)
C6 C 0.79561(19) 0.9313(5) 0.2102(2)
H3 H 0.8005 0.9381 0.2804
C7 C 1.0623(3) 0.6163(6) 0.1267(3)
C8 C 0.71000(19) 0.8965(5) 0.1556(2)
H4 H 0.6587 0.8809 0.1890
C9 C 0.2766(2) 0.5998(4) -0.0926(3)
N5 N 1.0910(3) 0.4628(6) 0.0970(3)
C10 C 0.7793(2) 0.9154(5) 0.0061(2)
H5 H 0.7758 0.9120 -0.0641
C11 C 0.1792(2) 0.5445(5) -0.1334(3)
H6 H 0.1399 0.6483 -0.1386
H7 H 0.1574 0.4587 -0.0883
H8 H 0.1785 0.4914 -0.1992
C12 C 0.3926(2) 0.6737(5) 0.0481(2)
H9 H 0.4095 0.6834 0.1177
C13 C 0.3412(2) 0.6378(5) -0.1564(3)
H10 H 0.3245 0.6257 -0.2260
C14 C 0.3040(2) 0.6160(5) 0.0105(3)
H11 H 0.2627 0.5879 0.0555
C15 C 0.4305(2) 0.6939(5) -0.1200(2)
H12 H 0.4729 0.7158 -0.1646
Cu1_2 Cu 1.0000 -0.03294(7) 0.2500
N1A N 1.12819(15) 0.9555(3) 0.33394(17)
N2A N 1.45578(15) 0.7732(4) 0.47187(18)
H1A H 1.4443 0.7619 0.4071
C1A C 1.54442(19) 0.7167(4) 0.5162(2)
C2A C 0.9369(2) 0.3099(5) 0.3718(2)
C3A C 1.13743(19) 0.9506(5) 0.4352(2)
H2A H 1.0858 0.9718 0.4673
C4A C 1.29890(18) 0.8850(4) 0.4485(2)
O1A O 1.39168(15) 0.8669(4) 0.60896(16)
N3A N 0.9556(3) 0.7560(5) 0.3515(4)
N4A N 0.9556(2) 0.1691(4) 0.3473(2)
N4_2 N 1.0444(2) 1.1691(4) 0.1527(2)
N4A_2 N 0.9556(2) 1.1691(4) 0.3473(2)
C5A C 1.38701(18) 0.8423(4) 0.5175(2)
C6A C 1.20439(19) 0.9313(5) 0.2898(2)
H3A H 1.1995 0.9381 0.2196
C7A C 0.9377(3) 0.6163(6) 0.3733(3)
C8A C 1.29000(19) 0.8965(5) 0.3444(2)
H4A H 1.3413 0.8809 0.3110
C9A C 1.7234(2) 0.5998(4) 0.5926(3)
N5A N 0.9090(3) 0.4628(6) 0.4030(3)
C10A C 1.2207(2) 0.9154(5) 0.4939(2)
H5A H 1.2242 0.9120 0.5641
C11A C 1.8208(2) 0.5445(5) 0.6334(3)
H6A H 1.8601 0.6483 0.6386
H7A H 1.8426 0.4587 0.5883
H8A H 1.8215 0.4914 0.6992
C12A C 1.6074(2) 0.6737(5) 0.4519(2)
H9A H 1.5905 0.6834 0.3823
C13A C 1.6588(2) 0.6378(5) 0.6564(3)
H10A H 1.6755 0.6257 0.7260
C14A C 1.6960(2) 0.6160(5) 0.4895(3)
H11A H 1.7373 0.5879 0.4445
C15A C 1.5695(2) 0.6939(5) 0.6200(2)
H12A H 1.5271 0.7158 0.6646
O2 O 0.5000 0.0959(6) 0.7500
H13 H 0.525(4) 0.010(6) 0.792(4)
H13A H 0.475(4) 0.010(6) 0.708(4)
loop_
_geom_bond_atom_site_label_1
_geom_bond_atom_site_label_2
_geom_bond_site_symmetry_1
_geom_bond_site_symmetry_2
Cu1 N1 1_555 1_555
N1 C3 1_555 1_555
N2 H1 1_555 1_555
C1 N2 1_555 1_555
C2 N4 1_555 1_555
C3 H2 1_555 1_555
C4 C5 1_555 1_555
O1 C5 1_555 1_555
N3 Cu1 1_555 1_555
N4 Cu1_2 1_555 1_555
C5 N2 1_555 1_555
C6 N1 1_555 1_555
H3 C6 1_555 1_555
C7 N3 1_555 1_555
C8 C4 1_555 1_555
H4 C8 1_555 1_555
C9 C11 1_555 1_555
N5 C2 1_555 1_555
C10 C3 1_555 1_555
H5 C10 1_555 1_555
C11 H6 1_555 1_555
H7 C11 1_555 1_555
H8 C11 1_555 1_555
C12 C1 1_555 1_555
H9 C12 1_555 1_555
C13 C9 1_555 1_555
H10 C13 1_555 1_555
C14 C9 1_555 1_555
H11 C14 1_555 1_555
C15 C1 1_555 1_555
H12 C15 1_555 1_555
O2 H13 1_555 1_555
Cu1_2 N4A 1_555 1_555
N1A Cu1 1_555 1_555
N2A H1A 1_555 1_555
C1A N2A 1_555 1_555
C2A N4A 1_555 1_555
C3A N1A 1_555 1_555
H2A C3A 1_555 1_555
C4A C5A 1_555 1_555
O1A C5A 1_555 1_555
N3A Cu1 1_555 1_555
N4_2 Cu1 1_555 1_555
N4A_2 Cu1 1_555 1_555
C5A N2A 1_555 1_555
C6A N1A 1_555 1_555
H3A C6A 1_555 1_555
C7A N3A 1_555 1_555
C8A C4A 1_555 1_555
H4A C8A 1_555 1_555
C9A C11A 1_555 1_555
N5A C2A 1_555 1_555
C10A C3A 1_555 1_555
H5A C10A 1_555 1_555
C11A H6A 1_555 1_555
H7A C11A 1_555 1_555
H8A C11A 1_555 1_555
C12A C1A 1_555 1_555
H9A C12A 1_555 1_555
C13A C9A 1_555 1_555
H10A C13A 1_555 1_555
C14A C9A 1_555 1_555
H11A C14A 1_555 1_555
C15A C1A 1_555 1_555
H12A C15A 1_555 1_555
H13A O2 1_555 1_555
C4 C10 1_555 1_555
C6 C8 1_555 1_555
C7 N5 1_555 1_555
C12 C14 1_555 1_555
C13 C15 1_555 1_555
C4A C10A 1_555 1_555
C6A C8A 1_555 1_555
C7A N5A 1_555 1_555
C12A C14A 1_555 1_555
C13A C15A 1_555 1_555

#END
