
#######################################################################
#
#                 Cambridge Crystallographic Data Centre
#                                CCDC 
#
#######################################################################
#
# If this CIF has been generated from an entry in the Cambridge 
# Structural Database, then it will include bibliographic, chemical, 
# crystal, experimental, refinement or atomic coordinate data resulting 
# from the CCDC's data processing and validation procedures.
#
#######################################################################

data_HEBWUI
_symmetry_cell_setting           monoclinic
_symmetry_space_group_name_H-M   'P 21/c'
_symmetry_Int_Tables_number      14
_space_group_name_Hall           '-P 2ybc'
loop_
_symmetry_equiv_pos_site_id
_symmetry_equiv_pos_as_xyz
1 x,y,z
2 -x,1/2+y,1/2-z
3 -x,-y,-z
4 x,1/2-y,1/2+z
_cell_length_a                   13.259(3)
_cell_length_b                   22.324(5)
_cell_length_c                   10.270(2)
_cell_angle_alpha                90
_cell_angle_beta                 104.43(3)
_cell_angle_gamma                90
_cell_volume                     2943.96
loop_
_atom_site_label
_atom_site_type_symbol
_atom_site_fract_x
_atom_site_fract_y
_atom_site_fract_z
Zn1 Zn 0.36076(3) 0.285256(18) 0.39359(4)
O1 O 0.36871(17) 0.26155(10) 0.5870(2)
N1 N 0.5225(2) 0.27815(12) 0.3771(3)
O2 O 0.3984(2) 0.37176(11) 0.3908(3)
N2 N 0.2112(2) 0.32287(12) 0.4230(3)
C1 C 0.1328(3) 0.35330(15) 0.3414(3)
C2 C 0.5329(3) 0.17065(15) 0.3605(4)
C3 C 0.1156(3) 0.34072(15) 0.1938(3)
C4 C 0.5599(3) 0.33380(16) 0.3694(4)
C5 C 0.5789(3) 0.23113(15) 0.3525(3)
C6 C 0.0664(3) 0.39005(16) 0.3957(3)
N3 N 0.0747(3) 0.39095(15) 0.5291(3)
N4 N 0.7112(3) 0.29706(15) 0.3113(4)
C7 C -0.0146(3) 0.43027(17) 0.3141(4)
O3 O 0.5278(3) 0.43652(13) 0.3956(4)
C8 C 0.6746(3) 0.24110(18) 0.3187(4)
C9 C 0.1916(3) 0.35356(17) 0.1252(3)
H1 H 0.2522 0.3735 0.1689
C10 C 0.1766(3) 0.33661(18) -0.0079(4)
H2 H 0.2268 0.3459 -0.0537
C11 C 0.7414(3) 0.19337(18) 0.2839(4)
C12 C 0.6538(3) 0.34206(19) 0.3381(5)
H3 H 0.6784 0.3809 0.3356
C13 C 0.0259(3) 0.31111(19) 0.1281(4)
H4 H -0.0255 0.3027 0.1727
C14 C 0.7890(3) 0.20393(19) 0.1778(4)
H5 H 0.7770 0.2398 0.1305
C15 C 0.4913(3) 0.38579(17) 0.3872(4)
C16 C -0.0732(3) 0.50176(18) 0.1367(4)
H6 H -0.0604 0.5236 0.0654
C17 C 0.0019(3) 0.46240(17) 0.2070(4)
H7 H 0.0640 0.4577 0.1814
C18 C 0.5186(3) 0.13024(17) 0.2533(4)
H8 H 0.5383 0.1410 0.1756
C19 C 0.0884(4) 0.3063(2) -0.0728(4)
H9 H 0.0797 0.2942 -0.1616
C20 C 0.4456(4) 0.0587(2) 0.3768(6)
H10 H 0.4163 0.0212 0.3823
C21 C 0.7633(3) 0.13995(19) 0.3555(4)
H11 H 0.7341 0.1324 0.4273
C22 C -0.1649(3) 0.5088(2) 0.1705(5)
H12 H -0.2170 0.5327 0.1181
C23 C 0.4756(4) 0.0746(2) 0.2621(5)
H13 H 0.4668 0.0478 0.1907
C24 C 0.4587(3) 0.0978(2) 0.4827(5)
H14 H 0.4390 0.0865 0.5599
C25 C -0.1805(4) 0.4803(2) 0.2833(6)
H15 H -0.2409 0.4874 0.3113
C26 C 0.8532(4) 0.1614(2) 0.1434(5)
H16 H 0.8836 0.1688 0.0726
C27 C 0.8727(4) 0.1084(2) 0.2122(5)
H17 H 0.9152 0.0797 0.1873
C28 C -0.1054(4) 0.4409(2) 0.3548(5)
H18 H -0.1162 0.4216 0.4304
C29 C 0.0129(4) 0.29393(19) -0.0060(4)
H19 H -0.0474 0.2739 -0.0505
C30 C 0.8290(4) 0.0978(2) 0.3193(5)
H20 H 0.8436 0.0622 0.3675
C31 C 0.2196(3) 0.32459(15) 0.5567(3)
C32 C 0.3020(3) 0.28472(15) 0.6407(3)
C33 C 0.1497(3) 0.35760(18) 0.6068(4)
H21 H 0.1551 0.3566 0.6988
O4 O 0.29532(18) 0.27595(10) 0.7598(2)
C34 C 0.5016(3) 0.15450(18) 0.4753(4)
H22 H 0.5091 0.1812 0.5465
Zn1C Zn 0.36076(3) 0.214744(18) 0.89359(4)
O4C O 0.29532(18) 0.22405(10) 0.2598(2)
O5 O 0.2897(4) 0.4814(2) 0.4264(6)
loop_
_geom_bond_atom_site_label_1
_geom_bond_atom_site_label_2
_geom_bond_site_symmetry_1
_geom_bond_site_symmetry_2
Zn1 O1 1_555 1_555
O1 C32 1_555 1_555
N1 Zn1 1_555 1_555
O2 Zn1 1_555 1_555
N2 Zn1 1_555 1_555
C1 N2 1_555 1_555
C2 C5 1_555 1_555
C3 C1 1_555 1_555
C4 N1 1_555 1_555
C5 N1 1_555 1_555
C6 C1 1_555 1_555
N3 C6 1_555 1_555
N4 C8 1_555 1_555
C7 C6 1_555 1_555
O3 C15 1_555 1_555
C8 C5 1_555 1_555
C9 C3 1_555 1_555
H1 C9 1_555 1_555
C10 C9 1_555 1_555
H2 C10 1_555 1_555
C11 C8 1_555 1_555
C12 C4 1_555 1_555
H3 C12 1_555 1_555
C13 C3 1_555 1_555
H4 C13 1_555 1_555
C14 C11 1_555 1_555
H5 C14 1_555 1_555
C15 O2 1_555 1_555
C16 H6 1_555 1_555
C17 C7 1_555 1_555
H7 C17 1_555 1_555
C18 C2 1_555 1_555
H8 C18 1_555 1_555
C19 C10 1_555 1_555
H9 C19 1_555 1_555
C20 H10 1_555 1_555
C21 C11 1_555 1_555
H11 C21 1_555 1_555
C22 C16 1_555 1_555
H12 C22 1_555 1_555
C23 C18 1_555 1_555
H13 C23 1_555 1_555
C24 C20 1_555 1_555
H14 C24 1_555 1_555
C25 C22 1_555 1_555
H15 C25 1_555 1_555
C26 C14 1_555 1_555
H16 C26 1_555 1_555
C27 C26 1_555 1_555
H17 C27 1_555 1_555
C28 C7 1_555 1_555
H18 C28 1_555 1_555
C29 C13 1_555 1_555
H19 C29 1_555 1_555
C30 C21 1_555 1_555
H20 C30 1_555 1_555
C31 N2 1_555 1_555
C32 C31 1_555 1_555
C33 N3 1_555 1_555
H21 C33 1_555 1_555
O4 C32 1_555 1_555
C34 C2 1_555 1_555
H22 C34 1_555 1_555
Zn1C O4 1_555 1_555
O4C Zn1 1_555 1_555
C4 C15 1_555 1_555
N4 C12 1_555 1_555
C16 C17 1_555 1_555
C19 C29 1_555 1_555
C20 C23 1_555 1_555
C24 C34 1_555 1_555
C25 C28 1_555 1_555
C27 C30 1_555 1_555
C31 C33 1_555 1_555

#END
