
#######################################################################
#
#                 Cambridge Crystallographic Data Centre
#                                CCDC 
#
#######################################################################
#
# If this CIF has been generated from an entry in the Cambridge 
# Structural Database, then it will include bibliographic, chemical, 
# crystal, experimental, refinement or atomic coordinate data resulting 
# from the CCDC's data processing and validation procedures.
#
#######################################################################

data_HEBWIW
_symmetry_cell_setting           monoclinic
_symmetry_space_group_name_H-M   'P 21/c'
_symmetry_Int_Tables_number      14
_space_group_name_Hall           '-P 2ybc'
loop_
_symmetry_equiv_pos_site_id
_symmetry_equiv_pos_as_xyz
1 x,y,z
2 -x,1/2+y,1/2-z
3 -x,-y,-z
4 x,1/2-y,1/2+z
_cell_length_a                   14.757(3)
_cell_length_b                   9.768(2)
_cell_length_c                   13.094(3)
_cell_angle_alpha                90
_cell_angle_beta                 109.15(3)
_cell_angle_gamma                90
_cell_volume                     1783.01
loop_
_atom_site_label
_atom_site_type_symbol
_atom_site_fract_x
_atom_site_fract_y
_atom_site_fract_z
O1 O 0.59174(12) 0.86396(19) 0.90750(14)
C1 C 0.55334(17) 0.8253(3) 0.9763(2)
Zn1 Zn 0.51157(2) 0.54727(3) 1.27209(2)
O2 O 0.43480(13) 0.63862(18) 1.13477(14)
C2 C 0.39571(17) 0.8309(3) 1.01998(19)
C3 C 0.30707(18) 0.9428(3) 0.8235(2)
N1 N 0.40203(15) 0.9147(2) 0.85215(16)
O3 O 0.61938(18) 0.5511(2) 1.1983(2)
O4 O 0.59466(13) 0.7677(2) 1.06300(15)
C4 C 0.25647(18) 0.9892(3) 0.7112(2)
N2 N 0.30265(15) 0.8644(2) 0.99611(17)
C5 C 0.44676(17) 0.8580(2) 0.9500(2)
C6 C 0.15723(19) 0.9642(3) 0.8788(2)
C7 C 0.25883(18) 0.9227(3) 0.8998(2)
C8 C 0.1252(2) 0.9583(3) 0.5444(2)
H1 H 0.0715 0.9094 0.5035
C9 C 0.44025(17) 0.7667(3) 1.1308(2)
C10 C 0.1545(2) 1.0717(4) 0.5015(3)
H2 H 0.1201 1.1003 0.4318
C11 C 0.17587(19) 0.9170(3) 0.6486(2)
H3 H 0.1559 0.8401 0.6772
C12 C 0.2857(2) 1.1024(3) 0.6663(2)
H4 H 0.3397 1.1513 0.7067
C13 C -0.0326(3) 1.0361(6) 0.8416(4)
H5 H -0.0966 1.0597 0.8280
C14 C 0.1232(2) 1.0913(4) 0.8363(3)
H6 H 0.1642 1.1530 0.8196
C15 C 0.0956(2) 0.8745(4) 0.9044(3)
H7 H 0.1180 0.7899 0.9347
C16 C 0.2351(2) 1.1432(4) 0.5618(3)
H8 H 0.2554 1.2190 0.5321
C17 C 0.0283(3) 1.1271(5) 0.8184(3)
H9 H 0.0061 1.2130 0.7907
C18 C -0.0002(3) 0.9104(5) 0.8848(4)
H10 H -0.0419 0.8492 0.9009
C19 C 0.7014(4) 0.4850(7) 1.2186(7)
H11 H 0.7321 0.5129 1.1677
H12 H 0.6894 0.3883 1.2121
H13 H 0.7423 0.5059 1.2906
O5 O 0.47652(12) 0.84270(19) 1.21194(14)
O1C O 0.59174(12) 0.63604(19) 1.40750(14)
Zn1A Zn 0.48843(2) 1.04727(3) 1.22791(2)
Zn1C Zn 0.51157(2) 0.95273(3) 0.77209(2)
N1C N 0.40203(15) 0.5853(2) 1.35215(16)
O5A O 0.52348(12) 0.34270(19) 1.28806(14)
loop_
_geom_bond_atom_site_label_1
_geom_bond_atom_site_label_2
_geom_bond_site_symmetry_1
_geom_bond_site_symmetry_2
O1 C1 1_555 1_555
C1 O4 1_555 1_555
Zn1 O2 1_555 1_555
O2 C9 1_555 1_555
C2 N2 1_555 1_555
C3 N1 1_555 1_555
N1 C5 1_555 1_555
O3 Zn1 1_555 1_555
C4 C3 1_555 1_555
N2 C7 1_555 1_555
C5 C1 1_555 1_555
C6 C7 1_555 1_555
C7 C3 1_555 1_555
C8 H1 1_555 1_555
C9 C2 1_555 1_555
C10 C8 1_555 1_555
H2 C10 1_555 1_555
C11 C4 1_555 1_555
H3 C11 1_555 1_555
C12 C4 1_555 1_555
H4 C12 1_555 1_555
C13 H5 1_555 1_555
C14 C6 1_555 1_555
H6 C14 1_555 1_555
C15 C6 1_555 1_555
H7 C15 1_555 1_555
C16 C10 1_555 1_555
H8 C16 1_555 1_555
C17 C13 1_555 1_555
H9 C17 1_555 1_555
C18 C13 1_555 1_555
H10 C18 1_555 1_555
C19 O3 1_555 1_555
H11 C19 1_555 1_555
H12 C19 1_555 1_555
H13 C19 1_555 1_555
O5 C9 1_555 1_555
O1C Zn1 1_555 1_555
Zn1A O5 1_555 1_555
Zn1C O1 1_555 1_555
N1C Zn1 1_555 1_555
O5A Zn1 1_555 1_555
C2 C5 1_555 1_555
N1 Zn1C 1_555 1_555
C8 C11 1_555 1_555
C12 C16 1_555 1_555
C14 C17 1_555 1_555
C15 C18 1_555 1_555

#END
