
#######################################################################
#
#                 Cambridge Crystallographic Data Centre
#                                CCDC 
#
#######################################################################
#
# If this CIF has been generated from an entry in the Cambridge 
# Structural Database, then it will include bibliographic, chemical, 
# crystal, experimental, refinement or atomic coordinate data resulting 
# from the CCDC's data processing and validation procedures.
#
#######################################################################

data_HEBWOC
_symmetry_cell_setting           monoclinic
_symmetry_space_group_name_H-M   'P 21/c'
_symmetry_Int_Tables_number      14
_space_group_name_Hall           '-P 2ybc'
loop_
_symmetry_equiv_pos_site_id
_symmetry_equiv_pos_as_xyz
1 x,y,z
2 -x,1/2+y,1/2-z
3 -x,-y,-z
4 x,1/2-y,1/2+z
_cell_length_a                   18.838(11)
_cell_length_b                   8.107(5)
_cell_length_c                   12.944(8)
_cell_angle_alpha                90
_cell_angle_beta                 93.320(10)
_cell_angle_gamma                90
_cell_volume                     1973.49
loop_
_atom_site_label
_atom_site_type_symbol
_atom_site_fract_x
_atom_site_fract_y
_atom_site_fract_z
Zn1 Zn 0.58478(6) 0.42837(14) 0.50533(9)
O1 O 0.5194(4) 0.6086(10) 0.5741(6)
N1 N 0.6619(6) 0.5737(13) 0.6103(8)
O2 O 0.6397(5) 0.2339(11) 0.4428(7)
C1 C 0.7713(7) 0.4178(16) 0.5734(10)
C2 C 0.7882(8) 0.433(2) 0.4684(12)
H1 H 0.7739 0.5256 0.4301
C3 C 0.7355(6) 0.5587(16) 0.6256(9)
O4 O 0.5159(4) 0.8218(12) 0.6912(7)
C4 C 0.5479(6) 0.7099(15) 0.6427(9)
C5 C 0.6290(5) 0.6948(15) 0.6628(8)
C6 C 0.7854(11) 0.270(2) 0.6220(18)
H2 H 0.7688 0.2535 0.6874
C7 C 0.6375(6) 0.9436(15) 0.8003(10)
C8 C 0.6675(6) 0.7983(16) 0.7333(10)
N2 N 0.7408(6) 0.7872(14) 0.7483(9)
C9 C 0.7746(6) 0.6707(15) 0.6962(10)
C10 C 0.8554(7) 0.6720(18) 0.7138(12)
C11 C 0.9028(8) 0.658(2) 0.6335(13)
H3 H 0.8848 0.6417 0.5659
C12 C 0.8850(8) 0.701(2) 0.8154(12)
H4 H 0.8552 0.7178 0.8693
C13 C 0.9585(9) 0.705(3) 0.8348(15)
H5 H 0.9770 0.7134 0.9028
C14 C 1.0041(10) 0.698(3) 0.7569(19)
H6 H 1.0527 0.7120 0.7709
C15 C 0.9767(9) 0.669(3) 0.6544(17)
H7 H 1.0074 0.6571 0.6012
C16 C 0.8409(18) 0.163(4) 0.476(3)
H8 H 0.8627 0.0770 0.4420
C17 C 0.8263(11) 0.308(4) 0.4236(19)
H9 H 0.8421 0.3223 0.3574
C18 C 0.8236(14) 0.144(3) 0.578(3)
H10 H 0.8370 0.0502 0.6152
O5 O 0.5575(5) 0.2660(13) 0.6269(7)
O6 O 0.6156(5) 0.9008(11) 0.8871(7)
O7 O 0.6438(6) 1.0875(11) 0.7626(7)
Zn1B Zn 0.41522(6) 0.57163(14) 0.49467(9)
Zn1C Zn 0.58478(6) 1.07163(14) 1.00533(9)
O1B O 0.4806(4) 0.3914(10) 0.4259(6)
O6C O 0.6156(5) 0.5992(11) 0.3871(7)
O3 O 0.5795(7) 0.5667(13) -0.0585(12)
loop_
_geom_bond_atom_site_label_1
_geom_bond_atom_site_label_2
_geom_bond_site_symmetry_1
_geom_bond_site_symmetry_2
Zn1 O1 1_555 1_555
O1 C4 1_555 1_555
N1 Zn1 1_555 1_555
O2 Zn1 1_555 1_555
C1 C2 1_555 1_555
C2 H1 1_555 1_555
C3 N1 1_555 1_555
O4 C4 1_555 1_555
C4 C5 1_555 1_555
C5 N1 1_555 1_555
C6 C1 1_555 1_555
H2 C6 1_555 1_555
C7 C8 1_555 1_555
C8 C5 1_555 1_555
N2 C8 1_555 1_555
C9 C3 1_555 1_555
C10 C9 1_555 1_555
C11 C10 1_555 1_555
H3 C11 1_555 1_555
C12 C10 1_555 1_555
H4 C12 1_555 1_555
C13 C12 1_555 1_555
H5 C13 1_555 1_555
C14 C13 1_555 1_555
H6 C14 1_555 1_555
C15 C11 1_555 1_555
H7 C15 1_555 1_555
C16 H8 1_555 1_555
C17 C2 1_555 1_555
H9 C17 1_555 1_555
C18 C6 1_555 1_555
H10 C18 1_555 1_555
O5 Zn1 1_555 1_555
O6 C7 1_555 1_555
O7 C7 1_555 1_555
Zn1B O1 1_555 1_555
Zn1C O6 1_555 1_555
O1B Zn1 1_555 1_555
O6C Zn1 1_555 1_555
C1 C3 1_555 1_555
N2 C9 1_555 1_555
C14 C15 1_555 1_555
C16 C17 1_555 1_555
C16 C18 1_555 1_555
Zn1B O1B 1_555 1_555

#END
