
#######################################################################
#
#                 Cambridge Crystallographic Data Centre
#                                CCDC 
#
#######################################################################
#
# If this CIF has been generated from an entry in the Cambridge 
# Structural Database, then it will include bibliographic, chemical, 
# crystal, experimental, refinement or atomic coordinate data resulting 
# from the CCDC's data processing and validation procedures.
#
#######################################################################

data_HEBWAO
_symmetry_cell_setting           triclinic
_symmetry_space_group_name_H-M   'P -1'
_symmetry_Int_Tables_number      2
_space_group_name_Hall           '-P 1'
loop_
_symmetry_equiv_pos_site_id
_symmetry_equiv_pos_as_xyz
1 x,y,z
2 -x,-y,-z
_cell_length_a                   10.435(2)
_cell_length_b                   13.088(3)
_cell_length_c                   13.649(3)
_cell_angle_alpha                85.41(3)
_cell_angle_beta                 68.41(3)
_cell_angle_gamma                71.26(3)
_cell_volume                     1639.87
loop_
_atom_site_label
_atom_site_type_symbol
_atom_site_fract_x
_atom_site_fract_y
_atom_site_fract_z
Ce1 Ce 0.294586(16) 0.522391(13) 0.121155(11)
O1 O 0.3262(2) 0.67826(16) 0.01748(14)
O3 O 0.5286(2) 0.64740(17) -0.12647(15)
O4 O 0.3303(2) 1.01719(18) -0.41777(16)
O5 O 0.5386(2) 0.89702(19) -0.41542(17)
O6 O 0.04849(19) 0.66521(16) 0.21197(14)
O7 O 0.0708(2) 0.58916(16) 0.06536(14)
O8 O -0.4013(2) 0.54555(16) 0.06054(14)
O9 O -0.5965(2) 0.61388(17) 0.20235(14)
O10 O -0.3316(3) -0.0928(2) 0.88404(18)
N1 N 0.1235(3) 0.3992(2) 0.19879(17)
N2 N 0.2248(2) 0.46838(19) 0.33018(17)
N3 N -0.0961(3) 0.1870(2) 0.48955(17)
N4 N -0.0120(3) 0.2413(2) 0.59758(19)
H5 H -0.007(3) 0.257(3) 0.652(2)
C1 C 0.0687(3) 0.3693(3) 0.1362(2)
H6 H 0.0893 0.3950 0.0685
C2 C -0.0174(4) 0.3020(3) 0.1659(2)
H7 H -0.0542 0.2843 0.1193
C3 C -0.0471(4) 0.2622(3) 0.2647(2)
H8 H -0.1039 0.2166 0.2860
C4 C 0.0088(3) 0.2908(2) 0.3336(2)
C5 C -0.0175(3) 0.2554(2) 0.4389(2)
C6 C 0.0351(3) 0.2898(2) 0.5034(2)
C7 C 0.1192(3) 0.3619(2) 0.4722(2)
C8 C 0.1723(3) 0.4006(2) 0.5374(2)
H9 H 0.1551 0.3787 0.6064
C9 C 0.2502(3) 0.4711(3) 0.4978(2)
H10 H 0.2872 0.4972 0.5394
C10 C 0.2731(3) 0.5032(3) 0.3949(2)
H11 H 0.3251 0.5517 0.3696
C11 C 0.1486(3) 0.3978(2) 0.3678(2)
C12 C 0.0937(3) 0.3612(2) 0.2981(2)
C13 C -0.0898(3) 0.1803(2) 0.5852(2)
C14 C -0.1537(3) 0.1125(2) 0.6667(2)
C15 C -0.1959(3) 0.0317(2) 0.6379(2)
H12 H -0.1831 0.0223 0.5677
C16 C -0.2560(3) -0.0343(3) 0.7120(2)
H13 H -0.2835 -0.0878 0.6918
C17 C -0.2754(3) -0.0205(3) 0.8169(2)
C18 C -0.2387(3) 0.0607(3) 0.8476(2)
H14 H -0.2548 0.0713 0.9183
C19 C -0.1774(3) 0.1266(2) 0.7726(2)
H15 H -0.1519 0.1808 0.7935
C20 C -0.3290(4) -0.0962(3) 0.9874(3)
H16 H -0.3705 -0.1498 1.0256
H17 H -0.3842 -0.0268 1.0231
H18 H -0.2305 -0.1143 0.9835
C21 C 0.3979(3) 0.7000(2) -0.0738(2)
C22 C 0.3223(3) 0.7932(2) -0.1239(2)
C23 C 0.1756(3) 0.8479(2) -0.0732(2)
H19 H 0.1265 0.8289 -0.0060
C24 C 0.1016(3) 0.9302(2) -0.1210(2)
H20 H 0.0032 0.9660 -0.0865
C25 C 0.1743(3) 0.9591(2) -0.2201(2)
H21 H 0.1244 1.0133 -0.2533
C26 C 0.3222(3) 0.9072(2) -0.2709(2)
C27 C 0.3953(3) 0.8244(2) -0.2229(2)
H22 H 0.4940 0.7893 -0.2571
C28 C 0.4006(3) 0.9431(3) -0.3756(2)
C29 C -0.0065(3) 0.6443(2) 0.1495(2)
C30 C -0.1682(3) 0.6846(2) 0.1810(2)
C31 C -0.2373(3) 0.6285(2) 0.14587(19)
H23 H -0.1826 0.5687 0.0995
C32 C -0.3877(3) 0.6620(2) 0.1801(2)
C33 C -0.4687(3) 0.7520(3) 0.2484(2)
H24 H -0.5696 0.7739 0.2722
C34 C -0.4002(3) 0.8091(3) 0.2812(3)
H25 H -0.4546 0.8707 0.3252
C35 C -0.2501(3) 0.7745(3) 0.2484(2)
H26 H -0.2041 0.8120 0.2719
C36 C -0.4674(3) 0.6034(2) 0.1453(2)
Ce1A Ce -0.294586(16) 0.477609(13) -0.121155(11)
Ce1_2 Ce -0.705414(16) 0.522391(13) 0.121155(11)
Ce1A_2 Ce 0.705414(16) 0.477609(13) -0.121155(11)
O1A O -0.3262(2) 0.32174(16) -0.01748(14)
O3A O -0.5286(2) 0.35260(17) 0.12647(15)
O3_2 O -0.4714(2) 0.64740(17) -0.12647(15)
O3A_2 O 0.4714(2) 0.35260(17) 0.12647(15)
O4A O -0.3303(2) -0.01719(18) 0.41777(16)
O5A O -0.5386(2) 0.10298(19) 0.41542(17)
O6A O -0.04849(19) 0.33479(16) -0.21197(14)
O7A O -0.0708(2) 0.41084(16) -0.06536(14)
O8A O 0.4013(2) 0.45445(16) -0.06054(14)
O9A O 0.5965(2) 0.38612(17) -0.20235(14)
O9_2 O 0.4035(2) 0.61388(17) 0.20235(14)
O9A_2 O -0.4035(2) 0.38612(17) -0.20235(14)
O10A O 0.3316(3) 1.0928(2) -0.88404(18)
N1A N -0.1235(3) 0.6008(2) -0.19879(17)
N2A N -0.2248(2) 0.53162(19) -0.33018(17)
N3A N 0.0961(3) 0.8130(2) -0.48955(17)
N4A N 0.0120(3) 0.7587(2) -0.59758(19)
H5A H 0.007(3) 0.743(3) -0.652(2)
C1A C -0.0687(3) 0.6307(3) -0.1362(2)
H6A H -0.0893 0.6050 -0.0685
C2A C 0.0174(4) 0.6980(3) -0.1659(2)
H7A H 0.0542 0.7157 -0.1193
C3A C 0.0471(4) 0.7378(3) -0.2647(2)
H8A H 0.1039 0.7834 -0.2860
C4A C -0.0088(3) 0.7092(2) -0.3336(2)
C5A C 0.0175(3) 0.7446(2) -0.4389(2)
C6A C -0.0351(3) 0.7102(2) -0.5034(2)
C7A C -0.1192(3) 0.6381(2) -0.4722(2)
C8A C -0.1723(3) 0.5994(2) -0.5374(2)
H9A H -0.1551 0.6213 -0.6064
C9A C -0.2502(3) 0.5289(3) -0.4978(2)
H10A H -0.2872 0.5028 -0.5394
C10A C -0.2731(3) 0.4968(3) -0.3949(2)
H11A H -0.3251 0.4483 -0.3696
C11A C -0.1486(3) 0.6022(2) -0.3678(2)
C12A C -0.0937(3) 0.6388(2) -0.2981(2)
C13A C 0.0898(3) 0.8197(2) -0.5852(2)
C14A C 0.1537(3) 0.8875(2) -0.6667(2)
C15A C 0.1959(3) 0.9683(2) -0.6379(2)
H12A H 0.1831 0.9777 -0.5677
C16A C 0.2560(3) 1.0343(3) -0.7120(2)
H13A H 0.2835 1.0878 -0.6918
C17A C 0.2754(3) 1.0205(3) -0.8169(2)
C18A C 0.2387(3) 0.9393(3) -0.8476(2)
H14A H 0.2548 0.9287 -0.9183
C19A C 0.1774(3) 0.8734(2) -0.7726(2)
H15A H 0.1519 0.8192 -0.7935
C20A C 0.3290(4) 1.0962(3) -0.9874(3)
H16A H 0.3705 1.1498 -1.0256
H17A H 0.3842 1.0268 -1.0231
H18A H 0.2305 1.1143 -0.9835
C21A C -0.3979(3) 0.3000(2) 0.0738(2)
C22A C -0.3223(3) 0.2068(2) 0.1239(2)
C23A C -0.1756(3) 0.1521(2) 0.0732(2)
H19A H -0.1265 0.1711 0.0060
C24A C -0.1016(3) 0.0698(2) 0.1210(2)
H20A H -0.0032 0.0340 0.0865
C25A C -0.1743(3) 0.0409(2) 0.2201(2)
H21A H -0.1244 -0.0133 0.2533
C26A C -0.3222(3) 0.0928(2) 0.2709(2)
C27A C -0.3953(3) 0.1756(2) 0.2229(2)
H22A H -0.4940 0.2107 0.2571
C28A C -0.4006(3) 0.0569(3) 0.3756(2)
C29A C 0.0065(3) 0.3557(2) -0.1495(2)
C30A C 0.1682(3) 0.3154(2) -0.1810(2)
C31A C 0.2373(3) 0.3715(2) -0.14587(19)
H23A H 0.1826 0.4313 -0.0995
C32A C 0.3877(3) 0.3380(2) -0.1801(2)
C33A C 0.4687(3) 0.2480(3) -0.2484(2)
H24A H 0.5696 0.2261 -0.2722
C34A C 0.4002(3) 0.1909(3) -0.2812(3)
H25A H 0.4546 0.1293 -0.3252
C35A C 0.2501(3) 0.2255(3) -0.2484(2)
H26A H 0.2041 0.1880 -0.2719
C36A C 0.4674(3) 0.3966(2) -0.1453(2)
O2 O 0.3760(7) 0.7397(8) 0.5318(5)
H1 H 0.4177 0.6709 0.4836
H2 H 0.2791 0.7795 0.5284
O11 O 0.3827(15) 0.5710(14) 0.6722(14)
H3 H 0.4098 0.5360 0.6342
H4 H 0.4038 0.6416 0.6146
loop_
_geom_bond_atom_site_label_1
_geom_bond_atom_site_label_2
_geom_bond_site_symmetry_1
_geom_bond_site_symmetry_2
Ce1 O1 1_555 1_555
O1 C21 1_555 1_555
O2 H1 1_555 1_555
H2 O2 1_555 1_555
O3 C21 1_555 1_555
O4 C28 1_555 1_555
O5 C28 1_555 1_555
O6 Ce1 1_555 1_555
O7 Ce1 1_555 1_555
O8 C36 1_555 1_555
O9 C36 1_555 1_555
O10 C17 1_555 1_555
O11 H3 1_555 1_555
H4 O11 1_555 1_555
N1 Ce1 1_555 1_555
N2 Ce1 1_555 1_555
N3 C5 1_555 1_555
N4 H5 1_555 1_555
C1 N1 1_555 1_555
H6 C1 1_555 1_555
C2 C1 1_555 1_555
H7 C2 1_555 1_555
C3 C2 1_555 1_555
H8 C3 1_555 1_555
C4 C3 1_555 1_555
C5 C4 1_555 1_555
C6 N4 1_555 1_555
C7 C6 1_555 1_555
C8 C7 1_555 1_555
H9 C8 1_555 1_555
C9 C8 1_555 1_555
H10 C9 1_555 1_555
C10 N2 1_555 1_555
H11 C10 1_555 1_555
C11 N2 1_555 1_555
C12 N1 1_555 1_555
C13 N3 1_555 1_555
C14 C13 1_555 1_555
C15 C14 1_555 1_555
H12 C15 1_555 1_555
C16 C15 1_555 1_555
H13 C16 1_555 1_555
C17 C16 1_555 1_555
C18 C17 1_555 1_555
H14 C18 1_555 1_555
C19 C14 1_555 1_555
H15 C19 1_555 1_555
C20 O10 1_555 1_555
H16 C20 1_555 1_555
H17 C20 1_555 1_555
H18 C20 1_555 1_555
C21 C22 1_555 1_555
C22 C23 1_555 1_555
C23 H19 1_555 1_555
C24 C23 1_555 1_555
H20 C24 1_555 1_555
C25 C24 1_555 1_555
H21 C25 1_555 1_555
C26 C25 1_555 1_555
C27 C22 1_555 1_555
H22 C27 1_555 1_555
C28 C26 1_555 1_555
C29 O6 1_555 1_555
C30 C29 1_555 1_555
C31 C30 1_555 1_555
H23 C31 1_555 1_555
C32 C31 1_555 1_555
C33 C32 1_555 1_555
H24 C33 1_555 1_555
C34 C33 1_555 1_555
H25 C34 1_555 1_555
C35 C30 1_555 1_555
H26 C35 1_555 1_555
C36 C32 1_555 1_555
Ce1A O8 1_555 1_555
Ce1_2 O9 1_555 1_555
Ce1A_2 O3 1_555 1_555
O1A Ce1A 1_555 1_555
O3A Ce1_2 1_555 1_555
O3_2 Ce1A 1_555 1_555
O3A_2 Ce1 1_555 1_555
O4A C28A 1_555 1_555
O5A C28A 1_555 1_555
O6A Ce1A 1_555 1_555
O7A Ce1A 1_555 1_555
O8A Ce1 1_555 1_555
O9A Ce1A_2 1_555 1_555
O9_2 Ce1 1_555 1_555
O9A_2 Ce1A 1_555 1_555
O10A C17A 1_555 1_555
N1A Ce1A 1_555 1_555
N2A Ce1A 1_555 1_555
N3A C5A 1_555 1_555
N4A H5A 1_555 1_555
C1A N1A 1_555 1_555
H6A C1A 1_555 1_555
C2A C1A 1_555 1_555
H7A C2A 1_555 1_555
C3A C2A 1_555 1_555
H8A C3A 1_555 1_555
C4A C3A 1_555 1_555
C5A C4A 1_555 1_555
C6A N4A 1_555 1_555
C7A C6A 1_555 1_555
C8A C7A 1_555 1_555
H9A C8A 1_555 1_555
C9A C8A 1_555 1_555
H10A C9A 1_555 1_555
C10A N2A 1_555 1_555
H11A C10A 1_555 1_555
C11A N2A 1_555 1_555
C12A N1A 1_555 1_555
C13A N3A 1_555 1_555
C14A C13A 1_555 1_555
C15A C14A 1_555 1_555
H12A C15A 1_555 1_555
C16A C15A 1_555 1_555
H13A C16A 1_555 1_555
C17A C16A 1_555 1_555
C18A C17A 1_555 1_555
H14A C18A 1_555 1_555
C19A C14A 1_555 1_555
H15A C19A 1_555 1_555
C20A O10A 1_555 1_555
H16A C20A 1_555 1_555
H17A C20A 1_555 1_555
H18A C20A 1_555 1_555
C21A O1A 1_555 1_555
C22A C21A 1_555 1_555
C23A C22A 1_555 1_555
H19A C23A 1_555 1_555
C24A C23A 1_555 1_555
H20A C24A 1_555 1_555
C25A C24A 1_555 1_555
H21A C25A 1_555 1_555
C26A C25A 1_555 1_555
C27A C22A 1_555 1_555
H22A C27A 1_555 1_555
C28A C26A 1_555 1_555
C29A O6A 1_555 1_555
C30A C29A 1_555 1_555
C31A C30A 1_555 1_555
H23A C31A 1_555 1_555
C32A C31A 1_555 1_555
C33A C32A 1_555 1_555
H24A C33A 1_555 1_555
C34A C33A 1_555 1_555
H25A C34A 1_555 1_555
C35A C30A 1_555 1_555
H26A C35A 1_555 1_555
C36A O8A 1_555 1_555
O7 C29 1_555 1_555
N4 C13 1_555 1_555
C4 C12 1_555 1_555
C5 C6 1_555 1_555
C7 C11 1_555 1_555
C9 C10 1_555 1_555
C11 C12 1_555 1_555
C18 C19 1_555 1_555
C26 C27 1_555 1_555
C34 C35 1_555 1_555
O3A C21A 1_555 1_555
O7A C29A 1_555 1_555
O9A C36A 1_555 1_555
N4A C13A 1_555 1_555
C4A C12A 1_555 1_555
C5A C6A 1_555 1_555
C7A C11A 1_555 1_555
C9A C10A 1_555 1_555
C11A C12A 1_555 1_555
C18A C19A 1_555 1_555
C26A C27A 1_555 1_555
C32A C36A 1_555 1_555
C34A C35A 1_555 1_555

#END
