
#######################################################################
#
#                 Cambridge Crystallographic Data Centre
#                                CCDC 
#
#######################################################################
#
# If this CIF has been generated from an entry in the Cambridge 
# Structural Database, then it will include bibliographic, chemical, 
# crystal, experimental, refinement or atomic coordinate data resulting 
# from the CCDC's data processing and validation procedures.
#
#######################################################################

data_HEBWAM
_symmetry_cell_setting           orthorhombic
_symmetry_space_group_name_H-M   'P 21 21 21'
_symmetry_Int_Tables_number      19
_space_group_name_Hall           'P 2ac 2ab'
loop_
_symmetry_equiv_pos_site_id
_symmetry_equiv_pos_as_xyz
1 x,y,z
2 1/2+x,1/2-y,-z
3 -x,1/2+y,1/2-z
4 1/2-x,-y,1/2+z
_cell_length_a                   8.011(6)
_cell_length_b                   12.205(10)
_cell_length_c                   22.336(13)
_cell_angle_alpha                90
_cell_angle_beta                 90
_cell_angle_gamma                90
_cell_volume                     2183.89
loop_
_atom_site_label
_atom_site_type_symbol
_atom_site_fract_x
_atom_site_fract_y
_atom_site_fract_z
Cu1 Cu 0.51246(4) 0.38561(2) 0.24454(1)
O1 O 0.8477(3) 0.4015(2) 0.43907(9)
O2 O 0.6257(3) 0.47211(15) 0.30405(8)
O3 O 0.5867(2) 0.25732(14) 0.28870(8)
O4 O 0.3841(4) 0.2048(2) 0.38575(11)
O5 O 0.5725(3) 0.4654(2) 0.43481(9)
C1 C 0.7273(4) 0.4582(2) 0.40484(13)
C2 C 0.7153(4) 0.4039(2) 0.34398(12)
C3 C 0.6229(4) 0.2947(2) 0.34746(12)
C4 C 0.4604(4) 0.3108(2) 0.38176(12)
C5 C 0.4920(4) 0.3607(2) 0.44342(12)
C6 C 0.3328(6) 0.3833(4) 0.4771(2)
C7 C 0.8921(6) 0.4581(4) 0.4932(2)
O6 O 0.2479(3) 0.3642(2) 0.03896(9)
O7 O 0.4078(3) 0.29889(15) 0.18405(8)
O8 O 0.4268(2) 0.51415(14) 0.20302(9)
O9 O 0.0918(3) 0.5830(2) 0.19750(10)
O10 O 0.0825(3) 0.3137(2) 0.12049(10)
C8 C 0.2434(4) 0.3124(2) 0.09429(13)
C9 C 0.3729(4) 0.3669(2) 0.13452(12)
C10 C 0.3168(4) 0.4785(2) 0.15736(12)
C11 C 0.1388(4) 0.4720(2) 0.18109(13)
C12 C 0.0237(4) 0.4225(2) 0.13404(14)
C13 C -0.1566(5) 0.4092(5) 0.1553(3)
C14 C 0.1496(8) 0.3106(4) -0.0059(2)
O11 O 0.2344(3) 0.1345(2) 0.25131(12)
O13 O 0.6116(3) 0.1296(2) 0.17145(11)
Li1 Li 0.4254(6) 0.1378(4) 0.3072(2)
Li2 Li 0.7035(6) 0.1337(4) 0.2537(3)
H1 H 0.7642(36) 0.5323(24) 0.4019(13)
H2 H 0.8202(39) 0.3883(25) 0.3286(12)
H3 H 0.6845(35) 0.2493(23) 0.3684(11)
H4 H 0.3816(31) 0.3574(22) 0.3613(10)
H5 H 0.5646(36) 0.3155(23) 0.4657(12)
H6 H 0.2794(55) 0.3245(35) 0.4871(18)
H7 H 0.3420(53) 0.4109(37) 0.5072(19)
H8 H 0.2622(53) 0.4208(34) 0.4529(18)
H9 H 0.9681(56) 0.4075(36) 0.5139(19)
H10 H 0.9322(52) 0.5161(32) 0.4809(17)
H11 H 0.7876(57) 0.4560(33) 0.5192(20)
H12 H 0.3038(41) 0.2131(25) 0.3888(14)
H13 H 0.2736(32) 0.2352(22) 0.0915(11)
H14 H 0.4746(39) 0.3768(23) 0.1107(13)
H15 H 0.3194(31) 0.5253(20) 0.1249(11)
H16 H 0.1373(35) 0.4285(23) 0.2127(13)
H17 H 0.0260(37) 0.4625(21) 0.0972(12)
H18 H -0.2057(59) 0.3604(40) 0.1219(20)
H19 H -0.1450(46) 0.3723(31) 0.1890(16)
H20 H -0.2015(48) 0.4811(33) 0.1592(16)
H21 H 0.1913(69) 0.2371(57) -0.0091(24)
H22 H 0.1857(67) 0.3369(40) -0.0436(23)
H23 H 0.0310(73) 0.3042(42) 0.0032(23)
H24 H -0.0108(60) 0.5919(38) 0.2180(20)
H25 H 0.2614(43) 0.0798(30) 0.2277(15)
H26 H 0.2621(54) 0.1786(34) 0.2331(18)
H29 H 0.5640(37) 0.0801(25) 0.1713(13)
H30 H 0.5609(44) 0.1818(29) 0.1684(15)
Li1B Li 0.5746(6) 0.6378(4) 0.1928(2)
Li2B Li 0.2965(6) 0.6337(4) 0.2463(3)
O8B O 0.5732(2) 0.01415(14) 0.29698(9)
O9B O 0.9082(3) 0.0830(2) 0.30250(10)
H24B H 1.0108(60) 0.0919(38) 0.2820(20)
O12 O 0.0495(4) 0.2220(3) 0.3969(2)
H27 H 0.0149(83) 0.2756(49) 0.3962(26)
H28 H 0.0044(74) 0.2003(41) 0.3707(21)
O14 O -0.0628(6) 0.1078(5) 0.1632(3)
loop_
_geom_bond_atom_site_label_1
_geom_bond_atom_site_label_2
_geom_bond_site_symmetry_1
_geom_bond_site_symmetry_2
Cu1 O2 1_555 1_555
O1 C1 1_555 1_555
O2 C2 1_555 1_555
O3 Cu1 1_555 1_555
O4 C4 1_555 1_555
O5 C1 1_555 1_555
C1 C2 1_555 1_555
C2 C3 1_555 1_555
C3 O3 1_555 1_555
C4 C3 1_555 1_555
C5 O5 1_555 1_555
C6 C5 1_555 1_555
C7 O1 1_555 1_555
O6 C8 1_555 1_555
O7 Cu1 1_555 1_555
O8 Cu1 1_555 1_555
O9 C11 1_555 1_555
O10 C8 1_555 1_555
C8 C9 1_555 1_555
C9 O7 1_555 1_555
C10 O8 1_555 1_555
C11 C10 1_555 1_555
C12 O10 1_555 1_555
C13 C12 1_555 1_555
C14 O6 1_555 1_555
O11 Li1 1_555 1_555
O12 H27 1_555 1_555
O13 Li2 1_555 1_555
Li1 O3 1_555 1_555
Li2 O3 1_555 1_555
H1 C1 1_555 1_555
H2 C2 1_555 1_555
H3 C3 1_555 1_555
H4 C4 1_555 1_555
H5 C5 1_555 1_555
H6 C6 1_555 1_555
H7 C6 1_555 1_555
H8 C6 1_555 1_555
H9 C7 1_555 1_555
H10 C7 1_555 1_555
H11 C7 1_555 1_555
H12 O4 1_555 1_555
H13 C8 1_555 1_555
H14 C9 1_555 1_555
H15 C10 1_555 1_555
H16 C11 1_555 1_555
H17 C12 1_555 1_555
H18 C13 1_555 1_555
H19 C13 1_555 1_555
H20 C13 1_555 1_555
H21 C14 1_555 1_555
H22 C14 1_555 1_555
H23 C14 1_555 1_555
H24 O9 1_555 1_555
H25 O11 1_555 1_555
H26 O11 1_555 1_555
H28 O12 1_555 1_555
H29 O13 1_555 1_555
H30 O13 1_555 1_555
Li1B O8 1_555 1_555
Li2B O8 1_555 1_555
O8B Li1 1_555 1_555
O9B Li2 1_555 1_555
H24B O9B 1_555 1_555
O4 Li1 1_555 1_555
C4 C5 1_555 1_555
O9 Li2B 1_555 1_555
C9 C10 1_555 1_555
C11 C12 1_555 1_555
Li1 Li2 1_555 1_555
Li2 O8B 1_555 1_555
Li1B Li2B 1_555 1_555

#END
