
#######################################################################
#
#                 Cambridge Crystallographic Data Centre
#                                CCDC 
#
#######################################################################
#
# If this CIF has been generated from an entry in the Cambridge 
# Structural Database, then it will include bibliographic, chemical, 
# crystal, experimental, refinement or atomic coordinate data resulting 
# from the CCDC's data processing and validation procedures.
#
#######################################################################

data_HEBXAP
_symmetry_cell_setting           monoclinic
_symmetry_space_group_name_H-M   'P c'
_symmetry_Int_Tables_number      7
_space_group_name_Hall           'P -2yc'
loop_
_symmetry_equiv_pos_site_id
_symmetry_equiv_pos_as_xyz
1 x,y,z
2 x,-y,1/2+z
_cell_length_a                   18.944(4)
_cell_length_b                   10.063(2)
_cell_length_c                   18.238(4)
_cell_angle_alpha                90
_cell_angle_beta                 117.11(3)
_cell_angle_gamma                90
_cell_volume                     3094.79
loop_
_atom_site_label
_atom_site_type_symbol
_atom_site_fract_x
_atom_site_fract_y
_atom_site_fract_z
Cd1 Cd 0.24458(4) 0.68578(9) 1.00913(4)
Cd2 Cd 0.15291(4) 0.67588(9) 0.68316(4)
O1 O 0.2358(7) 0.9073(11) 1.2060(6)
O2 O 0.2098(5) 0.8284(8) 1.0819(5)
O3 O 0.2334(5) 0.5594(8) 0.8995(4)
O4 O 0.2530(4) 0.5523(8) 0.7886(5)
O5 O 0.1809(5) 0.8261(7) 0.7881(5)
O6 O 0.1710(5) 0.8550(7) 0.9049(5)
O7 O 0.1790(5) 0.4665(9) 1.1036(5)
O8 O 0.1364(5) 0.5510(8) 0.9765(5)
O9 O 0.2234(6) 0.8366(9) 0.6498(6)
N1 N 0.3368(7) 0.6575(10) 1.1501(7)
N2 N 0.4419(8) 0.6720(12) 1.3186(8)
N3 N 0.3550(6) 0.7432(10) 0.9705(6)
N4 N 0.4554(7) 0.7769(13) 0.8977(7)
N5 N 0.0560(6) 0.6518(10) 0.7333(6)
N6 N -0.0511(8) 0.6789(11) 0.7956(7)
N7 N 0.0519(6) 0.2944(9) 1.0452(6)
N8 N -0.0480(9) 0.2823(13) 0.8764(8)
C1 C 0.2481(8) 0.8319(13) 1.1591(8)
C2 C 0.3206(7) 0.7435(13) 1.1973(7)
C3 C 0.4034(7) 0.5795(10) 1.1813(6)
C4 C 0.4157(7) 0.5009(11) 1.1204(7)
C5 C 0.3589(8) 0.4029(15) 1.0770(9)
H1 H 0.3170 0.3844 1.0887
C6 C 0.3686(9) 0.3323(13) 1.0132(9)
H2 H 0.3323 0.2672 0.9823
C7 C 0.4337(10) 0.3627(15) 0.9980(8)
H3 H 0.4388 0.3203 0.9553
C8 C 0.4867(10) 0.4501(16) 1.0435(8)
H4 H 0.5302 0.4672 1.0342
C9 C 0.4789(8) 0.5149(14) 1.1033(8)
H5 H 0.5190 0.5737 1.1355
C10 C 0.5390(8) 0.3863(14) 1.2860(8)
H6 H 0.4961 0.3433 1.2441
C11 C 0.6176(9) 0.3169(15) 1.3332(9)
H7 H 0.6247 0.2295 1.3213
C12 C 0.6796(9) 0.388(2) 1.3952(11)
H8 H 0.7289 0.3474 1.4239
C13 C 0.6693(10) 0.513(2) 1.4143(10)
H9 H 0.7115 0.5564 1.4568
C14 C 0.5954(8) 0.5828(14) 1.3714(8)
H10 H 0.5901 0.6691 1.3866
C15 C 0.5330(8) 0.5213(14) 1.3082(7)
C16 C 0.4570(8) 0.5924(13) 1.2665(7)
C17 C 0.3738(10) 0.7450(15) 1.2819(8)
H11 H 0.3616 0.8000 1.3155
C18 C 0.2701(8) 0.5912(12) 0.8600(7)
C19 C 0.3430(8) 0.6814(12) 0.9019(9)
C20 C 0.4183(7) 0.8278(13) 1.0051(6)
C21 C 0.4368(7) 0.8943(10) 1.0876(7)
C22 C 0.3800(8) 0.9780(13) 1.0912(9)
H12 H 0.3314 0.9911 1.0452
C23 C 0.3978(10) 1.0422(16) 1.1660(10)
H13 H 0.3616 1.1016 1.1689
C24 C 0.4685(10) 1.0180(15) 1.2352(9)
H14 H 0.4798 1.0602 1.2847
C25 C 0.5227(9) 0.9295(14) 1.2301(9)
H15 H 0.5694 0.9087 1.2768
C26 C 0.5067(9) 0.8732(15) 1.1555(9)
H16 H 0.5446 0.8193 1.1515
C27 C 0.4698(8) 0.8457(13) 0.9674(8)
C28 C 0.5398(8) 0.9384(15) 0.9974(8)
C29 C 0.5392(8) 1.0627(16) 1.0287(10)
H17 H 0.4953 1.0908 1.0346
C30 C 0.6056(11) 1.1473(15) 1.0518(11)
H18 H 0.6074 1.2281 1.0774
C31 C 0.6686(9) 1.1095(17) 1.0360(10)
H19 H 0.7104 1.1676 1.0470
C32 C 0.6678(9) 0.9873(17) 1.0046(10)
H20 H 0.7111 0.9610 0.9972
C33 C 0.6055(8) 0.9008(16) 0.9833(8)
H21 H 0.6060 0.8187 0.9601
C34 C 0.3889(10) 0.6956(14) 0.8643(10)
H22 H 0.3761 0.6506 0.8153
C35 C 0.1480(7) 0.8135(12) 0.8349(7)
C36 C 0.0694(7) 0.7285(13) 0.7973(8)
C37 C -0.0137(7) 0.5846(11) 0.6995(6)
C38 C -0.0242(8) 0.4970(11) 0.6275(7)
C39 C 0.0314(9) 0.4053(14) 0.6335(9)
H23 H 0.0767 0.3939 0.6834
C40 C 0.0203(10) 0.3274(14) 0.5641(10)
H24 H 0.0565 0.2602 0.5710
C41 C -0.0398(10) 0.3468(14) 0.4896(10)
H25 H -0.0436 0.2998 0.4440
C42 C -0.0968(8) 0.4402(16) 0.4826(8)
H26 H -0.1402 0.4528 0.4314
C43 C -0.0916(7) 0.5157(12) 0.5488(7)
H27 H -0.1309 0.5768 0.5422
C44 C -0.0676(7) 0.5956(12) 0.7316(7)
C45 C -0.1472(7) 0.5228(13) 0.6975(7)
C46 C -0.1539(9) 0.3914(13) 0.6697(8)
H28 H -0.1107 0.3462 0.6708
C47 C -0.2283(9) 0.3309(14) 0.6404(8)
H29 H -0.2328 0.2438 0.6218
C48 C -0.2957(11) 0.3901(18) 0.6368(10)
H30 H -0.3448 0.3480 0.6137
C49 C -0.2850(10) 0.514(2) 0.6694(10)
H31 H -0.3272 0.5552 0.6732
C50 C -0.2116(8) 0.5858(15) 0.6982(8)
H32 H -0.2075 0.6727 0.7170
C51 C 0.0145(10) 0.7478(14) 0.8267(8)
H33 H 0.0242 0.8094 0.8682
C52 C 0.1301(8) 0.4683(14) 1.0283(8)
C53 C 0.0640(7) 0.3714(12) 0.9928(7)
C54 C -0.0085(7) 0.2066(11) 1.0121(7)
C55 C -0.0203(9) 0.1158(13) 1.0746(8)
C56 C -0.0955(10) 0.1212(16) 1.0772(10)
H34 H -0.1378 0.1717 1.0400
C57 C -0.1005(9) 0.0439(15) 1.1407(10)
H35 H -0.1460 0.0506 1.1477
C58 C -0.0384(10) -0.0431(16) 1.1937(9)
H36 H -0.0441 -0.0963 1.2324
C59 C 0.0301(10) -0.0447(14) 1.1849(8)
H37 H 0.0712 -0.1004 1.2189
C60 C 0.0408(8) 0.0336(13) 1.1271(7)
H38 H 0.0884 0.0305 1.1240
C61 C -0.1280(8) -0.0234(15) 0.9002(8)
H39 H -0.0829 -0.0584 0.9437
C62 C -0.1919(9) -0.1089(15) 0.8542(10)
H40 H -0.1896 -0.1979 0.8688
C63 C -0.2576(9) -0.0605(17) 0.7878(10)
H41 H -0.2995 -0.1155 0.7547
C64 C -0.2584(8) 0.070(2) 0.7731(10)
H42 H -0.3034 0.1056 0.7298
C65 C -0.1954(8) 0.1564(13) 0.8189(8)
H43 H -0.1989 0.2458 0.8048
C66 C -0.1300(7) 0.1097(12) 0.8831(7)
C67 C -0.0613(7) 0.2012(11) 0.9248(7)
C68 C 0.0137(8) 0.3655(13) 0.9078(8)
H44 H 0.0235 0.4207 0.8726
Cd2A Cd 0.15291(4) 0.32412(9) 1.18316(4)
O7A O 0.1790(5) 0.5335(9) 0.6036(5)
N7A N 0.0519(6) 0.7056(9) 0.5452(6)
O10 O 0.2654(6) 0.9210(9) 0.3682(5)
O11 O 0.1596(6) 0.7060(10) 0.3607(6)
O12 O 0.1567(8) 0.8915(12) 0.4820(7)
loop_
_geom_bond_atom_site_label_1
_geom_bond_atom_site_label_2
_geom_bond_site_symmetry_1
_geom_bond_site_symmetry_2
Cd1 O2 1_555 1_555
Cd2 O4 1_555 1_555
O1 C1 1_555 1_555
O2 C1 1_555 1_555
O3 Cd1 1_555 1_555
O4 C18 1_555 1_555
O5 Cd2 1_555 1_555
O6 Cd1 1_555 1_555
O7 C52 1_555 1_555
O8 Cd1 1_555 1_555
O9 Cd2 1_555 1_555
N1 Cd1 1_555 1_555
N2 C16 1_555 1_555
N3 Cd1 1_555 1_555
N4 C27 1_555 1_555
N5 Cd2 1_555 1_555
N6 C44 1_555 1_555
N7 C53 1_555 1_555
N8 C67 1_555 1_555
C1 C2 1_555 1_555
C2 N1 1_555 1_555
C3 N1 1_555 1_555
C4 C3 1_555 1_555
C5 C4 1_555 1_555
H1 C5 1_555 1_555
C6 C5 1_555 1_555
H2 C6 1_555 1_555
C7 C6 1_555 1_555
H3 C7 1_555 1_555
C8 C7 1_555 1_555
H4 C8 1_555 1_555
C9 C4 1_555 1_555
H5 C9 1_555 1_555
C10 H6 1_555 1_555
C11 C10 1_555 1_555
H7 C11 1_555 1_555
C12 C11 1_555 1_555
H8 C12 1_555 1_555
C13 C12 1_555 1_555
H9 C13 1_555 1_555
C14 C13 1_555 1_555
H10 C14 1_555 1_555
C15 C10 1_555 1_555
C16 C3 1_555 1_555
C17 N2 1_555 1_555
H11 C17 1_555 1_555
C18 O3 1_555 1_555
C19 N3 1_555 1_555
C20 N3 1_555 1_555
C21 C20 1_555 1_555
C22 C21 1_555 1_555
H12 C22 1_555 1_555
C23 C22 1_555 1_555
H13 C23 1_555 1_555
C24 C23 1_555 1_555
H14 C24 1_555 1_555
C25 C24 1_555 1_555
H15 C25 1_555 1_555
C26 C21 1_555 1_555
H16 C26 1_555 1_555
C27 C20 1_555 1_555
C28 C27 1_555 1_555
C29 C28 1_555 1_555
H17 C29 1_555 1_555
C30 C29 1_555 1_555
H18 C30 1_555 1_555
C31 C30 1_555 1_555
H19 C31 1_555 1_555
C32 C31 1_555 1_555
H20 C32 1_555 1_555
C33 C28 1_555 1_555
H21 C33 1_555 1_555
C34 N4 1_555 1_555
H22 C34 1_555 1_555
C35 O5 1_555 1_555
C36 N5 1_555 1_555
C37 N5 1_555 1_555
C38 C37 1_555 1_555
C39 C38 1_555 1_555
H23 C39 1_555 1_555
C40 C39 1_555 1_555
H24 C40 1_555 1_555
C41 C40 1_555 1_555
H25 C41 1_555 1_555
C42 C41 1_555 1_555
H26 C42 1_555 1_555
C43 C38 1_555 1_555
H27 C43 1_555 1_555
C44 C37 1_555 1_555
C45 C44 1_555 1_555
C46 C45 1_555 1_555
H28 C46 1_555 1_555
C47 C46 1_555 1_555
H29 C47 1_555 1_555
C48 C47 1_555 1_555
H30 C48 1_555 1_555
C49 C48 1_555 1_555
H31 C49 1_555 1_555
C50 C45 1_555 1_555
H32 C50 1_555 1_555
C51 N6 1_555 1_555
H33 C51 1_555 1_555
C52 O8 1_555 1_555
C53 C52 1_555 1_555
C54 N7 1_555 1_555
C55 C54 1_555 1_555
C56 C55 1_555 1_555
H34 C56 1_555 1_555
C57 C56 1_555 1_555
H35 C57 1_555 1_555
C58 C57 1_555 1_555
H36 C58 1_555 1_555
C59 C58 1_555 1_555
H37 C59 1_555 1_555
C60 C55 1_555 1_555
H38 C60 1_555 1_555
C61 H39 1_555 1_555
C62 C61 1_555 1_555
H40 C62 1_555 1_555
C63 C62 1_555 1_555
H41 C63 1_555 1_555
C64 C63 1_555 1_555
H42 C64 1_555 1_555
C65 C64 1_555 1_555
H43 C65 1_555 1_555
C66 C61 1_555 1_555
C67 C54 1_555 1_555
C68 N8 1_555 1_555
H44 C68 1_555 1_555
Cd2A O7 1_555 1_555
O7A Cd2 1_555 1_555
N7A Cd2 1_555 1_555
O6 C35 1_555 1_555
N7 Cd2A 1_555 1_555
C2 C17 1_555 1_555
C8 C9 1_555 1_555
C14 C15 1_555 1_555
C15 C16 1_555 1_555
C18 C19 1_555 1_555
C19 C34 1_555 1_555
C25 C26 1_555 1_555
C32 C33 1_555 1_555
C35 C36 1_555 1_555
C36 C51 1_555 1_555
C42 C43 1_555 1_555
C49 C50 1_555 1_555
C53 C68 1_555 1_555
C59 C60 1_555 1_555
C65 C66 1_555 1_555
C66 C67 1_555 1_555

#END
