
#######################################################################
#
#                 Cambridge Crystallographic Data Centre
#                                CCDC 
#
#######################################################################
#
# If this CIF has been generated from an entry in the Cambridge 
# Structural Database, then it will include bibliographic, chemical, 
# crystal, experimental, refinement or atomic coordinate data resulting 
# from the CCDC's data processing and validation procedures.
#
#######################################################################

data_HEBXET
_symmetry_cell_setting           monoclinic
_symmetry_space_group_name_H-M   'P 21/c'
_symmetry_Int_Tables_number      14
_space_group_name_Hall           '-P 2ybc'
loop_
_symmetry_equiv_pos_site_id
_symmetry_equiv_pos_as_xyz
1 x,y,z
2 -x,1/2+y,1/2-z
3 -x,-y,-z
4 x,1/2-y,1/2+z
_cell_length_a                   15.108(3)
_cell_length_b                   10.621(2)
_cell_length_c                   14.848(3)
_cell_angle_alpha                90
_cell_angle_beta                 103.07(3)
_cell_angle_gamma                90
_cell_volume                     2320.82
loop_
_atom_site_label
_atom_site_type_symbol
_atom_site_fract_x
_atom_site_fract_y
_atom_site_fract_z
O1 O 0.67665(14) 0.1857(2) 0.65599(13)
C1 C 0.69336(18) 0.2050(3) 0.74179(19)
Zn1 Zn 0.59340(2) 0.23293(3) 1.04664(2)
O2 O 0.66020(16) 0.2880(2) 0.78225(15)
O3 O 0.67643(14) 0.1284(2) 0.99468(13)
N1 N 0.80446(16) -0.0267(2) 0.92601(15)
N2 N 0.83819(15) 0.0980(2) 0.77100(15)
C2 C 0.66218(19) 0.0806(3) 0.91480(19)
C3 C 0.90077(19) 0.0197(3) 0.82206(18)
C4 C 1.03182(19) -0.1522(3) 0.92236(19)
C5 C 0.9484(2) -0.1374(3) 0.94727(19)
C6 C 0.74667(18) 0.0568(3) 0.87906(19)
C7 C 1.05328(19) -0.0776(3) 0.8467(2)
O4 O 0.58807(14) 0.0493(2) 0.86587(16)
N3 N 0.46575(16) 0.2536(2) 0.95676(17)
C8 C 0.76185(18) 0.1165(3) 0.79912(18)
C9 C 0.98826(19) 0.0065(3) 0.79729(19)
C10 C 0.88231(18) -0.0464(2) 0.89742(18)
O5 O 0.5486(2) 0.1166(3) 1.13650(19)
N4 N 0.60866(17) 0.4014(2) 0.97252(16)
C11 C 1.1374(2) -0.0860(3) 0.8217(2)
H1 H 1.1811 -0.1418 0.8530
C12 C 0.4574(2) 0.3492(3) 0.8953(2)
C13 C 1.0943(2) -0.2396(3) 0.9726(2)
H2 H 1.1504 -0.2504 0.9576
C14 C 0.9290(2) -0.2085(3) 1.0203(2)
H3 H 0.8738 -0.1974 1.0371
C15 C 1.0917(2) 0.0705(3) 0.7042(2)
H4 H 1.1048 0.1201 0.6572
C16 C 1.0086(2) 0.0802(3) 0.7268(2)
H5 H 0.9656 0.1365 0.6948
C17 C 1.1560(2) -0.0133(3) 0.7516(2)
H6 H 1.2120 -0.0204 0.7360
C18 C 0.9906(3) -0.2941(3) 1.0669(2)
H7 H 0.9769 -0.3421 1.1144
C19 C 0.3958(2) 0.1761(3) 0.9525(2)
H8 H 0.4023 0.1096 0.9942
C20 C 0.5410(3) 0.5370(3) 0.8480(2)
H9 H 0.4908 0.5589 0.8018
C21 C 1.0739(2) -0.3084(3) 1.0426(2)
H10 H 1.1160 -0.3657 1.0746
C22 C 0.5377(2) 0.4328(3) 0.9041(2)
C23 C 0.6843(2) 0.4705(3) 0.9848(2)
H11 H 0.7338 0.4481 1.0316
C24 C 0.3778(2) 0.3668(3) 0.8286(2)
H12 H 0.3730 0.4319 0.7859
C25 C 0.3141(2) 0.1895(4) 0.8895(3)
H13 H 0.2661 0.1348 0.8896
C26 C 0.3056(3) 0.2860(4) 0.8265(3)
H14 H 0.2515 0.2969 0.7827
C27 C 0.6919(3) 0.5737(3) 0.9309(3)
H15 H 0.7453 0.6202 0.9410
C28 C 0.6182(3) 0.6062(3) 0.8617(3)
H16 H 0.6214 0.6756 0.8244
H17 H 0.575(2) 0.130(3) 1.188(3)
H18 H 0.514(3) 0.063(4) 1.136(3)
O1C O 0.67665(14) 0.3143(2) 1.15599(13)
Zn1C Zn 0.59340(2) 0.26707(3) 0.54664(2)
loop_
_geom_bond_atom_site_label_1
_geom_bond_atom_site_label_2
_geom_bond_site_symmetry_1
_geom_bond_site_symmetry_2
O1 C1 1_555 1_555
C1 O2 1_555 1_555
Zn1 O3 1_555 1_555
O3 C2 1_555 1_555
N1 C6 1_555 1_555
N2 C3 1_555 1_555
C2 C6 1_555 1_555
C3 C9 1_555 1_555
C4 C5 1_555 1_555
C5 C10 1_555 1_555
C6 C8 1_555 1_555
C7 C4 1_555 1_555
O4 C2 1_555 1_555
N3 Zn1 1_555 1_555
C8 C1 1_555 1_555
C9 C7 1_555 1_555
C10 N1 1_555 1_555
O5 Zn1 1_555 1_555
N4 Zn1 1_555 1_555
C11 C7 1_555 1_555
H1 C11 1_555 1_555
C12 N3 1_555 1_555
C13 C4 1_555 1_555
H2 C13 1_555 1_555
C14 C5 1_555 1_555
H3 C14 1_555 1_555
C15 H4 1_555 1_555
C16 C9 1_555 1_555
H5 C16 1_555 1_555
C17 C11 1_555 1_555
H6 C17 1_555 1_555
C18 C14 1_555 1_555
H7 C18 1_555 1_555
C19 N3 1_555 1_555
H8 C19 1_555 1_555
C20 H9 1_555 1_555
C21 C13 1_555 1_555
H10 C21 1_555 1_555
C22 N4 1_555 1_555
C23 N4 1_555 1_555
H11 C23 1_555 1_555
C24 C12 1_555 1_555
H12 C24 1_555 1_555
C25 C19 1_555 1_555
H13 C25 1_555 1_555
C26 C24 1_555 1_555
H14 C26 1_555 1_555
C27 C23 1_555 1_555
H15 C27 1_555 1_555
C28 C20 1_555 1_555
H16 C28 1_555 1_555
H17 O5 1_555 1_555
H18 O5 1_555 1_555
O1C Zn1 1_555 1_555
Zn1C O1 1_555 1_555
N2 C8 1_555 1_555
C3 C10 1_555 1_555
C12 C22 1_555 1_555
C15 C16 1_555 1_555
C15 C17 1_555 1_555
C18 C21 1_555 1_555
C20 C22 1_555 1_555
C25 C26 1_555 1_555
C27 C28 1_555 1_555

#END
