
#######################################################################
#
#                 Cambridge Crystallographic Data Centre
#                                CCDC 
#
#######################################################################
#
# If this CIF has been generated from an entry in the Cambridge 
# Structural Database, then it will include bibliographic, chemical, 
# crystal, experimental, refinement or atomic coordinate data resulting 
# from the CCDC's data processing and validation procedures.
#
#######################################################################

data_HEBXIX
_symmetry_cell_setting           triclinic
_symmetry_space_group_name_H-M   'P -1'
_symmetry_Int_Tables_number      2
_space_group_name_Hall           '-P 1'
loop_
_symmetry_equiv_pos_site_id
_symmetry_equiv_pos_as_xyz
1 x,y,z
2 -x,-y,-z
_cell_length_a                   10.359(2)
_cell_length_b                   14.682(3)
_cell_length_c                   16.322(3)
_cell_angle_alpha                81.90(3)
_cell_angle_beta                 89.80(3)
_cell_angle_gamma                74.29(3)
_cell_volume                     2364.29
loop_
_atom_site_label
_atom_site_type_symbol
_atom_site_fract_x
_atom_site_fract_y
_atom_site_fract_z
C1 C 0.9909(18) 0.3294(13) 0.3728(10)
H1 H 1.0471 0.3638 0.3474
C2 C 0.930(3) 0.2421(18) 0.4982(13)
H2 H 0.8655 0.2319 0.4612
H3 H 0.8850 0.2737 0.5421
H4 H 0.9900 0.1816 0.5212
C3 C 1.107(3) 0.319(3) 0.5049(14)
H5 H 1.1555 0.3571 0.4724
H6 H 1.1676 0.2589 0.5282
H7 H 1.0639 0.3518 0.5486
C4 C 0.2358(12) 0.1191(9) 0.1770(8)
C5 C -0.2661(12) 0.5981(9) 0.2191(7)
C6 C 0.3285(13) 0.1697(10) 0.2000(8)
C7 C 0.6007(13) 0.3280(9) 0.2462(8)
C8 C 0.5038(11) 0.2712(9) 0.2273(7)
C9 C 0.2847(15) 0.0312(10) 0.1387(9)
C10 C 0.4256(16) -0.0020(10) 0.1237(8)
C11 C 0.5192(13) 0.0479(9) 0.1444(7)
C12 C 0.6535(14) 0.0100(11) 0.1318(9)
H8 H 0.7132 0.0433 0.1453
C13 C -0.4582(14) 1.0012(10) 0.3718(9)
C14 C -0.5702(13) 0.9619(9) 0.3613(9)
C15 C -0.4770(17) 1.0879(12) 0.4039(8)
H9 H -0.5604 1.1189 0.4221
C16 C -0.3288(19) 0.9515(11) 0.3486(9)
C17 C 0.6882(14) 0.5187(12) 0.4473(9)
H10 H 0.7018 0.4696 0.4125
H11 H 0.7032 0.4899 0.5042
H12 H 0.7499 0.5564 0.4334
C18 C 1.2032(15) 0.4787(13) 0.0529(8)
H13 H 1.1790 0.5282 0.0874
H14 H 1.1965 0.5071 -0.0041
H15 H 1.2937 0.4410 0.0668
C19 C 0.4763(14) 0.5646(10) 0.3770(7)
H16 H 0.5122 0.5155 0.3462
C20 C -0.2824(12) 0.6931(9) 0.2498(8)
C21 C -0.1718(13) 0.7256(9) 0.2709(8)
C22 C -0.3080(13) 0.8594(11) 0.3162(9)
C23 C -0.4219(12) 0.8215(8) 0.3005(7)
C24 C -0.5538(12) 0.8771(9) 0.3231(8)
C25 C -0.7021(16) 1.0072(12) 0.3827(11)
H17 H -0.7192 1.0628 0.4070
C26 C -0.215(2) 0.9898(14) 0.3531(13)
H18 H -0.1305 0.9586 0.3366
C27 C 0.5005(18) 0.6625(12) 0.4812(10)
H19 H 0.4086 0.6949 0.4654
H20 H 0.5547 0.7061 0.4692
H21 H 0.5075 0.6391 0.5394
C28 C 0.4661(13) 0.1382(10) 0.1825(8)
C29 C 0.7047(19) -0.0749(15) 0.1003(11)
H22 H 0.7954 -0.0980 0.0904
C30 C 0.3088(13) 0.4046(12) 0.2806(9)
C31 C -0.241(2) 1.0793(14) 0.3846(13)
H23 H -0.1703 1.1066 0.3895
C32 C -0.367(3) 1.1263(14) 0.4077(15)
H24 H -0.3801 1.1850 0.4264
C33 C -0.8071(17) 0.9676(13) 0.3671(13)
H25 H -0.8919 0.9973 0.3841
C34 C -0.7942(15) 0.8897(11) 0.3292(11)
H26 H -0.8678 0.8673 0.3195
C35 C -0.6648(14) 0.8434(12) 0.3047(10)
H27 H -0.6525 0.7910 0.2766
C36 C 0.618(2) -0.1198(15) 0.0854(14)
H28 H 0.6508 -0.1783 0.0664
C37 C 0.485(2) -0.0904(12) 0.0946(11)
H29 H 0.4309 -0.1281 0.0819
C38 C 0.1870(19) -0.0123(16) 0.1172(12)
H30 H 0.2128 -0.0668 0.0915
C39 C 0.1009(16) 0.1535(11) 0.1965(10)
H31 H 0.0723 0.2082 0.2217
C40 C 0.0102(19) 0.1032(15) 0.1770(16)
H32 H -0.0785 0.1218 0.1926
C41 C 1.0229(14) 0.4310(11) 0.1259(8)
H33 H 1.0200 0.4793 0.1577
C42 C 1.1305(17) 0.3355(13) 0.0202(9)
H34 H 1.0644 0.3019 0.0355
H35 H 1.2186 0.2930 0.0329
H36 H 1.1211 0.3584 -0.0382
C43 C 0.0546(19) 0.0237(17) 0.1333(16)
H37 H -0.0081 -0.0046 0.1151
C44 C 0.3570(14) 0.6653(13) 0.1257(9)
H38 H 0.4387 0.6257 0.1484
C45 C 0.224(2) 0.7510(15) 0.0051(12)
H39 H 0.1583 0.7678 0.0461
H40 H 0.1934 0.7139 -0.0308
H41 H 0.2353 0.8081 -0.0269
C46 C 0.466(2) 0.6636(19) -0.0037(11)
H42 H 0.5398 0.6290 0.0337
H43 H 0.4876 0.7174 -0.0353
H44 H 0.4487 0.6222 -0.0404
N1 N 0.2811(11) 0.2575(8) 0.2332(6)
N2 N 1.0069(15) 0.3012(13) 0.4531(9)
N3 N 0.5495(9) 0.1918(7) 0.1955(6)
N4 N -0.4047(9) 0.7408(7) 0.2678(6)
N5 N -0.1854(10) 0.8084(8) 0.3011(7)
N6 N 0.5479(11) 0.5812(9) 0.4344(6)
N7 N 0.3455(14) 0.6975(10) 0.0439(7)
N8 N 1.1112(10) 0.4169(8) 0.0664(6)
O1 O 0.9051(10) 0.3125(7) 0.3294(6)
O2 O 0.2579(11) 0.4036(8) 0.3475(7)
O3 O 0.3196(9) 0.4752(7) 0.2333(6)
O4 O 0.5942(9) 0.3640(7) 0.3116(6)
O5 O 0.6869(9) 0.3342(7) 0.1924(5)
C47 C 0.3684(12) 0.3070(9) 0.2458(7)
O6 O -0.0087(9) 0.6355(8) 0.1869(6)
O7 O 0.0589(10) 0.6632(8) 0.3072(6)
O8 O -0.3159(11) 0.5955(9) 0.1523(7)
O9 O -0.2034(9) 0.5221(7) 0.2674(5)
O10 O 0.3515(9) 0.6178(7) 0.3623(5)
O11 O 0.2612(10) 0.6873(8) 0.1714(6)
O12 O 0.9456(9) 0.3814(7) 0.1394(5)
Zn1 Zn 0.23400(14) 0.60082(11) 0.27149(9)
Zn2 Zn 0.81243(15) 0.39831(12) 0.22895(9)
C48 C -0.0241(14) 0.6581(15) 0.2533(8)
O9_2 O 0.7966(9) 0.5221(7) 0.2674(5)
Zn2_2 Zn -0.18757(15) 0.39831(12) 0.22895(9)
loop_
_geom_bond_atom_site_label_1
_geom_bond_atom_site_label_2
_geom_bond_site_symmetry_1
_geom_bond_site_symmetry_2
C1 H1 1_555 1_555
C2 H2 1_555 1_555
H3 C2 1_555 1_555
H4 C2 1_555 1_555
C3 H5 1_555 1_555
H6 C3 1_555 1_555
H7 C3 1_555 1_555
C4 C6 1_555 1_555
C5 C20 1_555 1_555
C6 C28 1_555 1_555
C7 C8 1_555 1_555
C8 N3 1_555 1_555
C9 C4 1_555 1_555
C10 C9 1_555 1_555
C11 C10 1_555 1_555
C12 C11 1_555 1_555
H8 C12 1_555 1_555
C13 C14 1_555 1_555
C14 C24 1_555 1_555
C15 C13 1_555 1_555
H9 C15 1_555 1_555
C16 C13 1_555 1_555
C17 H10 1_555 1_555
H11 C17 1_555 1_555
H12 C17 1_555 1_555
C18 H13 1_555 1_555
H14 C18 1_555 1_555
H15 C18 1_555 1_555
C19 H16 1_555 1_555
C20 C21 1_555 1_555
C21 N5 1_555 1_555
C22 C16 1_555 1_555
C23 C22 1_555 1_555
C24 C23 1_555 1_555
C25 C14 1_555 1_555
H17 C25 1_555 1_555
C26 C16 1_555 1_555
H18 C26 1_555 1_555
C27 H19 1_555 1_555
H20 C27 1_555 1_555
H21 C27 1_555 1_555
C28 C11 1_555 1_555
C29 C12 1_555 1_555
H22 C29 1_555 1_555
C30 O2 1_555 1_555
C31 C26 1_555 1_555
H23 C31 1_555 1_555
C32 C15 1_555 1_555
H24 C32 1_555 1_555
C33 C25 1_555 1_555
H25 C33 1_555 1_555
C34 C33 1_555 1_555
H26 C34 1_555 1_555
C35 C24 1_555 1_555
H27 C35 1_555 1_555
C36 C29 1_555 1_555
H28 C36 1_555 1_555
C37 C10 1_555 1_555
H29 C37 1_555 1_555
C38 C9 1_555 1_555
H30 C38 1_555 1_555
C39 C4 1_555 1_555
H31 C39 1_555 1_555
C40 C39 1_555 1_555
H32 C40 1_555 1_555
C41 H33 1_555 1_555
C42 H34 1_555 1_555
H35 C42 1_555 1_555
H36 C42 1_555 1_555
C43 C38 1_555 1_555
H37 C43 1_555 1_555
C44 H38 1_555 1_555
C45 H39 1_555 1_555
H40 C45 1_555 1_555
H41 C45 1_555 1_555
C46 H42 1_555 1_555
H43 C46 1_555 1_555
H44 C46 1_555 1_555
N1 C6 1_555 1_555
N2 C1 1_555 1_555
N3 C28 1_555 1_555
N4 C20 1_555 1_555
N5 C22 1_555 1_555
N6 C17 1_555 1_555
N7 C44 1_555 1_555
N8 C18 1_555 1_555
O1 C1 1_555 1_555
O3 C30 1_555 1_555
O4 C7 1_555 1_555
O5 C7 1_555 1_555
C47 C8 1_555 1_555
O6 C48 1_555 1_555
O7 Zn1 1_555 1_555
O8 C5 1_555 1_555
O9 C5 1_555 1_555
O10 C19 1_555 1_555
O11 C44 1_555 1_555
O12 C41 1_555 1_555
Zn1 O3 1_555 1_555
Zn2 O1 1_555 1_555
C48 C21 1_555 1_555
O9_2 Zn2 1_555 1_555
Zn2_2 O9 1_555 1_555
C2 N2 1_555 1_555
C3 N2 1_555 1_555
C19 N6 1_555 1_555
C23 N4 1_555 1_555
C27 N6 1_555 1_555
C30 C47 1_555 1_555
C31 C32 1_555 1_555
C34 C35 1_555 1_555
C36 C37 1_555 1_555
C40 C43 1_555 1_555
C41 N8 1_555 1_555
C42 N8 1_555 1_555
C45 N7 1_555 1_555
C46 N7 1_555 1_555
N1 C47 1_555 1_555
O5 Zn2 1_555 1_555
O7 C48 1_555 1_555
O10 Zn1 1_555 1_555
O11 Zn1 1_555 1_555
O12 Zn2 1_555 1_555

#END
