
#######################################################################
#
#                 Cambridge Crystallographic Data Centre
#                                CCDC 
#
#######################################################################
#
# If this CIF has been generated from an entry in the Cambridge 
# Structural Database, then it will include bibliographic, chemical, 
# crystal, experimental, refinement or atomic coordinate data resulting 
# from the CCDC's data processing and validation procedures.
#
#######################################################################

data_HEBXUJ
_symmetry_cell_setting           monoclinic
_symmetry_space_group_name_H-M   'C 2/c'
_symmetry_Int_Tables_number      15
_space_group_name_Hall           '-C 2yn'
loop_
_symmetry_equiv_pos_site_id
_symmetry_equiv_pos_as_xyz
1 x,y,z
2 -x,y,1/2-z
3 1/2+x,1/2+y,z
4 1/2-x,1/2+y,1/2-z
5 -x,-y,-z
6 x,-y,1/2+z
7 1/2-x,1/2-y,-z
8 1/2+x,1/2-y,1/2+z
_cell_length_a                   17.0712(7)
_cell_length_b                   14.0689(6)
_cell_length_c                   7.9864(4)
_cell_angle_alpha                90
_cell_angle_beta                 94.215(2)
_cell_angle_gamma                90
_cell_volume                     1912.93
loop_
_atom_site_label
_atom_site_type_symbol
_atom_site_fract_x
_atom_site_fract_y
_atom_site_fract_z
Co1 Co 0.0000 1.0000 0.0000
N1 N 0.0000 1.0595(2) 0.2500
N2 N 0.0000 1.1449(3) 0.2500
N3 N 0.0000 1.2268(3) 0.2500
O1 O 0.09941(12) 0.92215(15) 0.0886(3)
C1 C 0.16717(18) 0.9040(2) 0.0367(4)
C2 C 0.22870(17) 0.8683(2) 0.1501(4)
H1 H 0.2194 0.8592 0.2648
C3 C 0.30040(17) 0.8472(2) 0.0965(4)
H2 H 0.3402 0.8233 0.1746
C4 C 0.25959(18) 0.8941(2) -0.1775(4)
H3 H 0.2712 0.9030 -0.2910
C5 C 0.18686(18) 0.9165(2) -0.1320(4)
H4 H 0.1487 0.9408 -0.2134
C6 C 0.39746(17) 0.8439(2) -0.1135(4)
H5 H 0.3972 0.8383 -0.2370
H6 H 0.4182 0.7838 -0.0632
C7 C 0.44992(17) 0.9253(2) -0.0538(4)
C8 C 0.42427(18) 1.0193(2) -0.0631(4)
H7 H 0.3721 1.0329 -0.1062
C9 C 0.47374(18) 1.0931(2) -0.0106(4)
H8 H 0.4554 1.1568 -0.0185
N4 N 0.31635(14) 0.85930(17) -0.0657(3)
O2 O -0.06704(13) 0.88745(16) 0.0890(3)
Co1_2 Co 1.0000 1.0000 0.0000
Co1A Co 0.0000 1.0000 0.5000
N1D N 0.0000 0.9405(2) -0.2500
O1D O 0.90059(12) 1.07785(15) -0.0886(3)
O1D_2 O -0.09941(12) 1.07785(15) -0.0886(3)
C1D C 0.83283(18) 1.0960(2) -0.0367(4)
C2D C 0.77130(17) 1.1317(2) -0.1501(4)
H1D H 0.7806 1.1408 -0.2648
C3D C 0.69960(17) 1.1528(2) -0.0965(4)
H2D H 0.6598 1.1767 -0.1746
C4D C 0.74041(18) 1.1059(2) 0.1775(4)
H3D H 0.7288 1.0970 0.2910
C5D C 0.81314(18) 1.0835(2) 0.1320(4)
H4D H 0.8513 1.0592 0.2134
C6D C 0.60254(17) 1.1561(2) 0.1135(4)
H5D H 0.6028 1.1617 0.2370
H6D H 0.5818 1.2162 0.0632
C7D C 0.55008(17) 1.0747(2) 0.0538(4)
C8D C 0.57573(18) 0.9807(2) 0.0631(4)
H7D H 0.6279 0.9671 0.1062
C9D C 0.52626(18) 0.9069(2) 0.0106(4)
H8D H 0.5446 0.8432 0.0185
N4D N 0.68365(14) 1.14070(17) 0.0657(3)
O2D O 0.06704(13) 1.11255(16) -0.0890(3)
N5 N -0.18148(16) 0.7441(2) -0.0094(3)
N6 N -0.2500 0.7500 0.0000
N5F N -0.31852(16) 0.7559(2) 0.0094(3)
loop_
_geom_bond_atom_site_label_1
_geom_bond_atom_site_label_2
_geom_bond_site_symmetry_1
_geom_bond_site_symmetry_2
Co1 N1 1_555 1_555
N1 N2 1_555 1_555
N2 N3 1_555 1_555
O1 Co1 1_555 1_555
C1 O1 1_555 1_555
C2 C1 1_555 1_555
H1 C2 1_555 1_555
C3 C2 1_555 1_555
H2 C3 1_555 1_555
C4 H3 1_555 1_555
C5 C1 1_555 1_555
H4 C5 1_555 1_555
C6 H5 1_555 1_555
H6 C6 1_555 1_555
C7 C6 1_555 1_555
C8 C7 1_555 1_555
H7 C8 1_555 1_555
C9 C8 1_555 1_555
H8 C9 1_555 1_555
N4 C3 1_555 1_555
O2 Co1 1_555 1_555
N5 N6 1_555 1_555
N6 N5F 1_555 1_555
Co1_2 O1D 1_555 1_555
Co1A N1 1_555 1_555
N1D Co1 1_555 1_555
O1D C1D 1_555 1_555
O1D_2 Co1 1_555 1_555
C1D C2D 1_555 1_555
C2D H1D 1_555 1_555
C3D C2D 1_555 1_555
H2D C3D 1_555 1_555
C4D H3D 1_555 1_555
C5D C1D 1_555 1_555
H4D C5D 1_555 1_555
C6D H5D 1_555 1_555
H6D C6D 1_555 1_555
C7D C9 1_555 1_555
C8D C7D 1_555 1_555
H7D C8D 1_555 1_555
C9D C7 1_555 1_555
H8D C9D 1_555 1_555
N4D C3D 1_555 1_555
O2D Co1 1_555 1_555
C4 C5 1_555 1_555
C4 N4 1_555 1_555
C6 N4 1_555 1_555
C4D C5D 1_555 1_555
C4D N4D 1_555 1_555
C6D C7D 1_555 1_555
C6D N4D 1_555 1_555
C8D C9D 1_555 1_555

#END
