
#######################################################################
#
#                 Cambridge Crystallographic Data Centre
#                                CCDC 
#
#######################################################################
#
# If this CIF has been generated from an entry in the Cambridge 
# Structural Database, then it will include bibliographic, chemical, 
# crystal, experimental, refinement or atomic coordinate data resulting 
# from the CCDC's data processing and validation procedures.
#
#######################################################################

data_HECKEG
_symmetry_cell_setting           triclinic
_symmetry_space_group_name_H-M   'P -1'
_symmetry_Int_Tables_number      2
_space_group_name_Hall           '-P 1'
loop_
_symmetry_equiv_pos_site_id
_symmetry_equiv_pos_as_xyz
1 x,y,z
2 -x,-y,-z
_cell_length_a                   10.571(5)
_cell_length_b                   10.590(5)
_cell_length_c                   12.708(7)
_cell_angle_alpha                87.460(16)
_cell_angle_beta                 81.895(17)
_cell_angle_gamma                62.326(14)
_cell_volume                     1246.93
loop_
_atom_site_label
_atom_site_type_symbol
_atom_site_fract_x
_atom_site_fract_y
_atom_site_fract_z
Cl1 Cl 0.65883(7) 0.81314(7) 0.79448(6)
O5 O 0.6661(3) 0.8751(3) 0.8874(2)
O6 O 0.7882(2) 0.6860(2) 0.7687(2)
O7 O 0.6433(2) 0.9128(3) 0.7135(2)
O8 O 0.5404(2) 0.7820(3) 0.8147(2)
Cd1 Cd 0.0000 1.0000 0.0000
O1 O 0.67590(15) 0.61754(18) 0.16886(13)
O2 O 0.37716(15) 0.75505(16) 0.50499(12)
O3 O 0.88792(15) 0.42032(17) 0.47178(13)
O4 O -0.13457(17) 0.88081(18) 0.04666(13)
H1 H -0.1589 0.8728 0.1161
H2 H -0.1350 0.8239 0.0048
N1 N 0.22127(18) 0.7975(2) 0.02786(15)
N2 N 0.03917(18) 0.9299(2) 0.82099(15)
N3 N 1.1761(2) 0.1689(2) 0.74276(17)
C1 C 0.6535(2) 0.6116(2) 0.27750(18)
C2 C 0.5204(2) 0.6899(2) 0.34009(18)
H4 H 0.4376 0.7522 0.3084
C3 C 0.5122(2) 0.6747(2) 0.44884(18)
C4 C 0.6308(2) 0.5858(2) 0.49786(18)
H5 H 0.6235 0.5771 0.5729
C5 C 0.7623(2) 0.5092(2) 0.43233(19)
C6 C 0.7741(2) 0.5200(2) 0.32342(18)
H6 H 0.8636 0.4655 0.2804
C7 C 0.5702(2) 0.7321(3) 0.11763(19)
H7 H 0.6168 0.7486 0.0490
H8 H 0.5310 0.8198 0.1623
C8 C 0.3358(2) 0.8104(2) 0.04878(18)
H9 H 0.3410 0.8957 0.0295
C9 C 0.4468(2) 0.7053(2) 0.09720(18)
C10 C 0.4392(2) 0.5812(3) 0.1231(2)
H10 H 0.5130 0.5073 0.1569
C11 C 0.3237(3) 0.5647(3) 0.0998(2)
H11 H 0.3174 0.4793 0.1165
C12 C 0.2181(2) 0.6745(3) 0.0519(2)
H12 H 0.1394 0.6626 0.0351
C13 C 0.3636(2) 0.7401(2) 0.61726(18)
H13 H 0.4236 0.7742 0.6480
H14 H 0.3974 0.6384 0.6348
C14 C 0.1746(2) 0.8608(2) 0.77085(18)
H15 H 0.2519 0.8341 0.8113
C15 C 0.2073(2) 0.8266(2) 0.66335(18)
C16 C 0.0951(2) 0.8694(2) 0.60433(19)
H16 H 0.1137 0.8503 0.5299
C17 C -0.0449(2) 0.9405(3) 0.6548(2)
H17 H -0.1239 0.9704 0.6157
C18 C -0.0681(2) 0.9672(3) 0.76193(19)
H18 H -0.1647 1.0144 0.7962
C19 C 0.8834(2) 0.4033(3) 0.58334(19)
H19 H 0.8120 0.3696 0.6103
H20 H 0.8543 0.4958 0.6191
C20 C 1.0509(2) 0.2609(3) 0.7108(2)
H21 H 0.9696 0.3052 0.7639
C21 C 1.0307(2) 0.2962(2) 0.6067(2)
C22 C 1.1488(2) 0.2312(2) 0.5289(2)
H22 H 1.1403 0.2518 0.4559
C23 C 1.2796(2) 0.1353(2) 0.5608(2)
H23 H 1.3625 0.0884 0.5095
C24 C 1.2885(3) 0.1086(3) 0.6667(2)
H24 H 1.3794 0.0439 0.6870
Cd1_2 Cd 0.0000 1.0000 1.0000
Cd1_3 Cd 0.0000 1.0000 -1.0000
O1A O -0.67590(15) 1.38246(18) -0.16886(13)
O2A O -0.37716(15) 1.24495(16) -0.50499(12)
O3A O -0.88792(15) 1.57968(17) -0.47178(13)
O4A O 0.13457(17) 1.11919(18) -0.04666(13)
H1A H 0.1589 1.1272 -0.1161
H2A H 0.1350 1.1761 -0.0048
N1A N -0.22127(18) 1.2025(2) -0.02786(15)
N2A N -0.03917(18) 1.0701(2) -0.82099(15)
N2_2 N 0.03917(18) 0.9299(2) -0.17901(15)
N2A_2 N -0.03917(18) 1.0701(2) 0.17901(15)
N3A N -1.1761(2) 1.8311(2) -0.74276(17)
C1A C -0.6535(2) 1.3884(2) -0.27750(18)
C2A C -0.5204(2) 1.3101(2) -0.34009(18)
H4A H -0.4376 1.2478 -0.3084
C3A C -0.5122(2) 1.3253(2) -0.44884(18)
C4A C -0.6308(2) 1.4142(2) -0.49786(18)
H5A H -0.6235 1.4229 -0.5729
C5A C -0.7623(2) 1.4908(2) -0.43233(19)
C6A C -0.7741(2) 1.4800(2) -0.32342(18)
H6A H -0.8636 1.5345 -0.2804
C7A C -0.5702(2) 1.2679(3) -0.11763(19)
H7A H -0.6168 1.2514 -0.0490
H8A H -0.5310 1.1802 -0.1623
C8A C -0.3358(2) 1.1896(2) -0.04878(18)
H9A H -0.3410 1.1043 -0.0295
C9A C -0.4468(2) 1.2947(2) -0.09720(18)
C10A C -0.4392(2) 1.4188(3) -0.1231(2)
H10A H -0.5130 1.4927 -0.1569
C11A C -0.3237(3) 1.4353(3) -0.0998(2)
H11A H -0.3174 1.5207 -0.1165
C12A C -0.2181(2) 1.3255(3) -0.0519(2)
H12A H -0.1394 1.3374 -0.0351
C13A C -0.3636(2) 1.2599(2) -0.61726(18)
H13A H -0.4236 1.2258 -0.6480
H14A H -0.3974 1.3616 -0.6348
C14A C -0.1746(2) 1.1392(2) -0.77085(18)
H15A H -0.2519 1.1659 -0.8113
C15A C -0.2073(2) 1.1734(2) -0.66335(18)
C16A C -0.0951(2) 1.1306(2) -0.60433(19)
H16A H -0.1137 1.1497 -0.5299
C17A C 0.0449(2) 1.0595(3) -0.6548(2)
H17A H 0.1239 1.0296 -0.6157
C18A C 0.0681(2) 1.0328(3) -0.76193(19)
H18A H 0.1647 0.9856 -0.7962
C19A C -0.8834(2) 1.5967(3) -0.58334(19)
H19A H -0.8120 1.6304 -0.6103
H20A H -0.8543 1.5042 -0.6191
C20A C -1.0509(2) 1.7391(3) -0.7108(2)
H21A H -0.9696 1.6948 -0.7639
C21A C -1.0307(2) 1.7038(2) -0.6067(2)
C22A C -1.1488(2) 1.7688(2) -0.5289(2)
H22A H -1.1403 1.7482 -0.4559
C23A C -1.2796(2) 1.8647(2) -0.5608(2)
H23A H -1.3625 1.9116 -0.5095
C24A C -1.2885(3) 1.8914(3) -0.6667(2)
H24A H -1.3794 1.9561 -0.6870
O9? O 0.0374(4) 0.3545(4) 0.0680(4)
H3? H 0.1261 0.3117 0.0724
C25? C 0.0000 0.5000 0.0000
H25? H -0.0842 0.5804 0.0379
H26? H -0.0210 0.4870 -0.0703
H27? H 0.0828 0.5195 -0.0083
loop_
_geom_bond_atom_site_label_1
_geom_bond_atom_site_label_2
_geom_bond_site_symmetry_1
_geom_bond_site_symmetry_2
Cd1 O4 1_555 1_555
Cl1 O5 1_555 1_555
O1 C1 1_555 1_555
O2 C3 1_555 1_555
O3 C5 1_555 1_555
O4 H1 1_555 1_555
H2 O4 1_555 1_555
O6 Cl1 1_555 1_555
O7 Cl1 1_555 1_555
O8 Cl1 1_555 1_555
N1 Cd1 1_555 1_555
N2 C14 1_555 1_555
N3 C20 1_555 1_555
C1 C2 1_555 1_555
C2 H4 1_555 1_555
C3 C2 1_555 1_555
C4 C3 1_555 1_555
H5 C4 1_555 1_555
C5 C4 1_555 1_555
C6 C1 1_555 1_555
H6 C6 1_555 1_555
C7 O1 1_555 1_555
H7 C7 1_555 1_555
H8 C7 1_555 1_555
C8 N1 1_555 1_555
H9 C8 1_555 1_555
C9 C7 1_555 1_555
C10 C9 1_555 1_555
H10 C10 1_555 1_555
C11 C10 1_555 1_555
H11 C11 1_555 1_555
C12 N1 1_555 1_555
H12 C12 1_555 1_555
C13 O2 1_555 1_555
H13 C13 1_555 1_555
H14 C13 1_555 1_555
C14 H15 1_555 1_555
C15 C13 1_555 1_555
C16 C15 1_555 1_555
H16 C16 1_555 1_555
C17 C16 1_555 1_555
H17 C17 1_555 1_555
C18 N2 1_555 1_555
H18 C18 1_555 1_555
C19 O3 1_555 1_555
H19 C19 1_555 1_555
H20 C19 1_555 1_555
C20 H21 1_555 1_555
C21 C19 1_555 1_555
C22 C21 1_555 1_555
H22 C22 1_555 1_555
C23 C22 1_555 1_555
H23 C23 1_555 1_555
C24 N3 1_555 1_555
H24 C24 1_555 1_555
Cd1_2 N2 1_555 1_555
Cd1_3 N2A 1_555 1_555
O1A C1A 1_555 1_555
O2A C3A 1_555 1_555
O3A C5A 1_555 1_555
O4A Cd1 1_555 1_555
H1A O4A 1_555 1_555
H2A O4A 1_555 1_555
N1A Cd1 1_555 1_555
N2A C14A 1_555 1_555
N2_2 Cd1 1_555 1_555
N2A_2 Cd1 1_555 1_555
N3A C20A 1_555 1_555
C1A C2A 1_555 1_555
C2A H4A 1_555 1_555
C3A C2A 1_555 1_555
C4A C3A 1_555 1_555
H5A C4A 1_555 1_555
C5A C4A 1_555 1_555
C6A C1A 1_555 1_555
H6A C6A 1_555 1_555
C7A O1A 1_555 1_555
H7A C7A 1_555 1_555
H8A C7A 1_555 1_555
C8A N1A 1_555 1_555
H9A C8A 1_555 1_555
C9A C7A 1_555 1_555
C10A C9A 1_555 1_555
H10A C10A 1_555 1_555
C11A C10A 1_555 1_555
H11A C11A 1_555 1_555
C12A N1A 1_555 1_555
H12A C12A 1_555 1_555
C13A O2A 1_555 1_555
H13A C13A 1_555 1_555
H14A C13A 1_555 1_555
C14A H15A 1_555 1_555
C15A C13A 1_555 1_555
C16A C15A 1_555 1_555
H16A C16A 1_555 1_555
C17A C16A 1_555 1_555
H17A C17A 1_555 1_555
C18A N2A 1_555 1_555
H18A C18A 1_555 1_555
C19A O3A 1_555 1_555
H19A C19A 1_555 1_555
H20A C19A 1_555 1_555
C20A H21A 1_555 1_555
C21A C19A 1_555 1_555
C22A C21A 1_555 1_555
H22A C22A 1_555 1_555
C23A C22A 1_555 1_555
H23A C23A 1_555 1_555
C24A N3A 1_555 1_555
H24A C24A 1_555 1_555
C5 C6 1_555 1_555
C8 C9 1_555 1_555
C11 C12 1_555 1_555
C14 C15 1_555 1_555
C17 C18 1_555 1_555
C20 C21 1_555 1_555
C23 C24 1_555 1_555
C5A C6A 1_555 1_555
C8A C9A 1_555 1_555
C11A C12A 1_555 1_555
C14A C15A 1_555 1_555
C17A C18A 1_555 1_555
C20A C21A 1_555 1_555
C23A C24A 1_555 1_555

#END
