
#######################################################################
#
#                 Cambridge Crystallographic Data Centre
#                                CCDC 
#
#######################################################################
#
# If this CIF has been generated from an entry in the Cambridge 
# Structural Database, then it will include bibliographic, chemical, 
# crystal, experimental, refinement or atomic coordinate data resulting 
# from the CCDC's data processing and validation procedures.
#
#######################################################################

data_HECKEH
_symmetry_cell_setting           orthorhombic
_symmetry_space_group_name_H-M   'P n a 21'
_symmetry_Int_Tables_number      33
_space_group_name_Hall           'P 2c -2n'
loop_
_symmetry_equiv_pos_site_id
_symmetry_equiv_pos_as_xyz
1 x,y,z
2 -x,-y,1/2+z
3 1/2+x,1/2-y,z
4 1/2-x,1/2+y,1/2+z
_cell_length_a                   24.171(3)
_cell_length_b                   7.0709(8)
_cell_length_c                   6.0918(7)
_cell_angle_alpha                90
_cell_angle_beta                 90
_cell_angle_gamma                90
_cell_volume                     1041.15
loop_
_atom_site_label
_atom_site_type_symbol
_atom_site_fract_x
_atom_site_fract_y
_atom_site_fract_z
Cu1 Cu 0.51440(3) 0.34825(9) 0.1742(5)
Br1 Br 0.47357(3) 0.66374(7) 0.1756(3)
Br2 Br 0.42540(2) 0.19250(8) 0.1765(4)
N1 N 0.5600(2) 0.1094(7) 0.170(3)
H1 H 0.5587 0.0531 0.3024
H2 H 0.5463 0.0285 0.0698
N2 N 0.5886(2) 0.4770(8) 0.168(3)
H3 H 0.5958 0.5191 0.0313
H4 H 0.5885 0.5769 0.2593
C1 C 0.6180(3) 0.1567(10) 0.1147(19)
H5 H 0.6208 0.1795 -0.0436
C2 C 0.6326(3) 0.3383(10) 0.2373(16)
H6 H 0.6322 0.3188 0.3966
C3 C 0.6891(3) 0.3989(13) 0.159(4)
H7 H 0.6853 0.4552 0.0143
H8 H 0.7030 0.4961 0.2569
C4 C 0.7309(4) 0.2441(19) 0.146(5)
H9 H 0.7421 0.2310 -0.0061
H10 H 0.7632 0.2833 0.2285
C5 C 0.7143(4) 0.0601(17) 0.225(5)
H11 H 0.7394 -0.0327 0.1629
H12 H 0.7195 0.0581 0.3827
C6 C 0.6589(3) -0.0007(10) 0.180(3)
H13 H 0.6447 -0.0641 0.3093
H14 H 0.6601 -0.0931 0.0623
Cu1A Cu 0.48560(3) 0.65175(9) 0.6742(5)
Cu1A_2 Cu 0.48560(3) 0.65175(9) -0.3258(5)
Br1A Br 0.52643(3) 0.33626(7) -0.3244(3)
Br1A_2 Br 0.52643(3) 0.33626(7) 0.6756(3)
loop_
_geom_bond_atom_site_label_1
_geom_bond_atom_site_label_2
_geom_bond_site_symmetry_1
_geom_bond_site_symmetry_2
Cu1 Br1 1_555 1_555
Br1 Cu1A 1_555 1_555
Br2 Cu1 1_555 1_555
N1 Cu1 1_555 1_555
H1 N1 1_555 1_555
H2 N1 1_555 1_555
N2 Cu1 1_555 1_555
H3 N2 1_555 1_555
H4 N2 1_555 1_555
C1 N1 1_555 1_555
H5 C1 1_555 1_555
C2 N2 1_555 1_555
H6 C2 1_555 1_555
C3 C2 1_555 1_555
H7 C3 1_555 1_555
H8 C3 1_555 1_555
C4 C3 1_555 1_555
H9 C4 1_555 1_555
H10 C4 1_555 1_555
C5 C4 1_555 1_555
H11 C5 1_555 1_555
H12 C5 1_555 1_555
C6 C1 1_555 1_555
H13 C6 1_555 1_555
H14 C6 1_555 1_555
Cu1A Br1A_2 1_555 1_555
Cu1A_2 Br1 1_555 1_555
Br1A Cu1 1_555 1_555
Br1A_2 Cu1 1_555 1_555
C1 C2 1_555 1_555
C5 C6 1_555 1_555
Cu1A_2 Br1A 1_555 1_555

#END
