
#######################################################################
#
#                 Cambridge Crystallographic Data Centre
#                                CCDC 
#
#######################################################################
#
# If this CIF has been generated from an entry in the Cambridge 
# Structural Database, then it will include bibliographic, chemical, 
# crystal, experimental, refinement or atomic coordinate data resulting 
# from the CCDC's data processing and validation procedures.
#
#######################################################################

data_HECLUW
_symmetry_cell_setting           monoclinic
_symmetry_space_group_name_H-M   'P 21/c'
_symmetry_Int_Tables_number      14
_space_group_name_Hall           '-P 2ybc'
loop_
_symmetry_equiv_pos_site_id
_symmetry_equiv_pos_as_xyz
1 x,y,z
2 x,1/2-y,1/2+z
3 -x,-y,-z
4 -x,1/2+y,1/2-z
_cell_length_a                   11.2454(8)
_cell_length_b                   10.2320(7)
_cell_length_c                   26.850(2)
_cell_angle_alpha                90.00
_cell_angle_beta                 98.138(2)
_cell_angle_gamma                90.00
_cell_volume                     3058.33
loop_
_atom_site_label
_atom_site_type_symbol
_atom_site_fract_x
_atom_site_fract_y
_atom_site_fract_z
Mn1 Mn 0.2226(4) -0.4023(4) 0.16433(14)
O1 O 0.3190(15) -0.3453(18) 0.1150(6)
O2 O 0.3334(14) -0.3459(16) 0.2190(6)
N1 N 0.1005(19) -0.4746(20) 0.1124(7)
N2 N 0.1112(18) -0.4648(19) 0.2089(7)
N3 N 0.3087(19) -0.6091(21) 0.1684(7)
C1 C 0.3061(26) -0.3889(28) 0.0683(10)
C2 C 0.3940(27) -0.3504(31) 0.0381(10)
H1 H 0.4531(27) -0.2926(31) 0.0524(10)
C3 C 0.3994(28) -0.3897(30) -0.0089(11)
H2 H 0.4571(28) -0.3565(30) -0.0271(11)
C4 C 0.3127(28) -0.4856(30) -0.0307(11)
H3 H 0.3171(28) -0.5202(30) -0.0624(11)
C5 C 0.2249(29) -0.5242(29) -0.0040(10)
H4 H 0.1663(29) -0.5813(29) -0.0192(10)
C6 C 0.2184(27) -0.4829(28) 0.0445(10)
C7 C 0.1155(25) -0.5048(24) 0.0675(9)
H5 H 0.0513(25) -0.5458(24) 0.0479(9)
C8 C -0.0160(24) -0.5059(26) 0.1328(9)
H6 H -0.0646(24) -0.4277(26) 0.1332(9)
H7 H -0.0616(24) -0.5707(26) 0.1118(9)
C9 C 0.0153(23) -0.5555(24) 0.1831(9)
H8 H 0.0458(23) -0.6441(24) 0.1824(9)
H9 H -0.0543(23) -0.5557(24) 0.2007(9)
C10 C 0.1137(23) -0.4305(23) 0.2566(9)
H10 H 0.0519(23) -0.4605(23) 0.2732(9)
C11 C 0.1998(21) -0.3549(23) 0.2829(8)
C12 C 0.1858(24) -0.3190(23) 0.3327(8)
H11 H 0.1173(24) -0.3463(23) 0.3455(8)
C13 C 0.2695(24) -0.2450(24) 0.3630(10)
H12 H 0.2598(24) -0.2250(24) 0.3960(10)
C14 C 0.3703(22) -0.2012(24) 0.3421(8)
H13 H 0.4249(22) -0.1450(24) 0.3605(8)
C15 C 0.3892(25) -0.2400(24) 0.2952(9)
H14 H 0.4611(25) -0.2175(24) 0.2841(9)
C16 C 0.3048(24) -0.3120(23) 0.2633(9)
C17 C 0.2869(21) -0.7145(26) 0.1655(9)
Mn2 Mn 0.2210(4) -0.9024(4) 0.16484(14)
O3 O 0.0872(15) -0.8529(18) 0.1189(6)
O4 O 0.1503(14) -0.8538(17) 0.2214(6)
N4 N 0.3099(19) -0.9479(19) 0.1110(7)
N5 N 0.3621(18) -0.9573(19) 0.2088(7)
N6 N 0.1382(19) -1.2008(21) 0.1614(7)
C18 C 0.0717(24) -0.8530(27) 0.0684(9)
C19 C -0.0355(25) -0.8122(25) 0.0426(9)
H15 H -0.0968(25) -0.7857(25) 0.0602(9)
C20 C -0.0540(28) -0.8100(27) -0.0098(10)
H16 H -0.1309(28) -0.7942(27) -0.0266(10)
C21 C 0.0351(28) -0.8297(27) -0.0364(10)
H17 H 0.0209(28) -0.8180(27) -0.0711(10)
C22 C 0.1513(28) -0.8682(27) -0.0136(10)
H18 H 0.2141(28) -0.8833(27) -0.0320(10)
C23 C 0.1654(27) -0.8830(28) 0.0441(10)
C24 C 0.2821(27) -0.9289(26) 0.0624(10)
H19 H 0.3376(27) -0.9451(26) 0.0406(10)
C25 C 0.4379(23) -0.9937(27) 0.1307(9)
H20 H 0.4935(23) -0.9212(27) 0.1307(9)
H21 H 0.4620(23) -1.0617(27) 0.1090(9)
C26 C 0.4416(24) -1.0448(26) 0.1825(9)
H22 H 0.5232(24) -1.0433(26) 0.2000(9)
H23 H 0.4124(24) -1.1340(26) 0.1817(9)
C27 C 0.3953(23) -0.9340(23) 0.2553(9)
H24 H 0.4657(23) -0.9714(23) 0.2715(9)
C28 C 0.3260(22) -0.8516(24) 0.2829(8)
C29 C 0.3790(25) -0.8135(23) 0.3337(9)
H25 H 0.4558(25) -0.8400(23) 0.3475(9)
C30 C 0.3067(25) -0.7333(25) 0.3611(9)
H26 H 0.3406(25) -0.7029(25) 0.3926(9)
C31 C 0.1906(24) -0.6986(24) 0.3439(9)
H27 H 0.1458(24) -0.6481(24) 0.3633(9)
C32 C 0.1444(25) -0.7398(25) 0.2983(9)
H28 H 0.0642(25) -0.7196(25) 0.2877(9)
C33 C 0.2050(23) -0.8116(24) 0.2642(9)
C34 C 0.1537(24) -1.0934(27) 0.1651(9)
N6_2 N 0.1382(19) -0.2008(21) 0.1614(7)
Mn1_2 Mn 0.2226(4) -1.4023(4) 0.16433(14)
loop_
_geom_bond_atom_site_label_1
_geom_bond_atom_site_label_2
_geom_bond_site_symmetry_1
_geom_bond_site_symmetry_2
Mn1 O1 1_555 1_555
O1 C1 1_555 1_555
O2 Mn1 1_555 1_555
N1 Mn1 1_555 1_555
N2 Mn1 1_555 1_555
N3 Mn1 1_555 1_555
C1 C2 1_555 1_555
C2 H1 1_555 1_555
C3 C2 1_555 1_555
H2 C3 1_555 1_555
C4 C3 1_555 1_555
H3 C4 1_555 1_555
C5 C4 1_555 1_555
H4 C5 1_555 1_555
C6 C1 1_555 1_555
C7 N1 1_555 1_555
H5 C7 1_555 1_555
C8 N1 1_555 1_555
H6 C8 1_555 1_555
H7 C8 1_555 1_555
C9 N2 1_555 1_555
H8 C9 1_555 1_555
H9 C9 1_555 1_555
C10 N2 1_555 1_555
H10 C10 1_555 1_555
C11 C10 1_555 1_555
C12 C11 1_555 1_555
H11 C12 1_555 1_555
C13 C12 1_555 1_555
H12 C13 1_555 1_555
C14 C13 1_555 1_555
H13 C14 1_555 1_555
C15 C14 1_555 1_555
H14 C15 1_555 1_555
C16 O2 1_555 1_555
C17 N3 1_555 1_555
Mn2 C17 1_555 1_555
O3 Mn2 1_555 1_555
O4 Mn2 1_555 1_555
N4 Mn2 1_555 1_555
N5 Mn2 1_555 1_555
N6 C34 1_555 1_555
C18 O3 1_555 1_555
C19 C18 1_555 1_555
H15 C19 1_555 1_555
C20 C19 1_555 1_555
H16 C20 1_555 1_555
C21 C20 1_555 1_555
H17 C21 1_555 1_555
C22 C21 1_555 1_555
H18 C22 1_555 1_555
C23 C18 1_555 1_555
C24 N4 1_555 1_555
H19 C24 1_555 1_555
C25 N4 1_555 1_555
H20 C25 1_555 1_555
H21 C25 1_555 1_555
C26 N5 1_555 1_555
H22 C26 1_555 1_555
H23 C26 1_555 1_555
C27 N5 1_555 1_555
H24 C27 1_555 1_555
C28 C27 1_555 1_555
C29 C28 1_555 1_555
H25 C29 1_555 1_555
C30 C29 1_555 1_555
H26 C30 1_555 1_555
C31 C30 1_555 1_555
H27 C31 1_555 1_555
C32 C31 1_555 1_555
H28 C32 1_555 1_555
C33 O4 1_555 1_555
C34 Mn2 1_555 1_555
N6_2 Mn1 1_555 1_555
Mn1_2 N6 1_555 1_555
C5 C6 1_555 1_555
C6 C7 1_555 1_555
C8 C9 1_555 1_555
C11 C16 1_555 1_555
C15 C16 1_555 1_555
C22 C23 1_555 1_555
C23 C24 1_555 1_555
C25 C26 1_555 1_555
C28 C33 1_555 1_555
C32 C33 1_555 1_555

#END
