
#######################################################################
#
#                 Cambridge Crystallographic Data Centre
#                                CCDC 
#
#######################################################################
#
# If this CIF has been generated from an entry in the Cambridge 
# Structural Database, then it will include bibliographic, chemical, 
# crystal, experimental, refinement or atomic coordinate data resulting 
# from the CCDC's data processing and validation procedures.
#
#######################################################################

data_HECLEH
_symmetry_cell_setting           triclinic
_symmetry_space_group_name_H-M   'P -1'
_symmetry_Int_Tables_number      2
_space_group_name_Hall           '-P 1'
loop_
_symmetry_equiv_pos_site_id
_symmetry_equiv_pos_as_xyz
1 x,y,z
2 -x,-y,-z
_cell_length_a                   9.569(4)
_cell_length_b                   12.562(6)
_cell_length_c                   12.666(6)
_cell_angle_alpha                97.321(7)
_cell_angle_beta                 110.295(7)
_cell_angle_gamma                106.110(7)
_cell_volume                     1328.99
loop_
_atom_site_label
_atom_site_type_symbol
_atom_site_fract_x
_atom_site_fract_y
_atom_site_fract_z
Co1 Co 0.19961(7) 0.22220(5) 0.28317(5)
Co2 Co 0.53116(7) 0.28588(5) 0.26641(5)
Co3 Co 0.42992(7) 0.51283(5) 0.29284(5)
O1 O 0.4124(3) 0.3678(2) 0.3407(3)
H1 H 0.4487 0.3764 0.4133
N1 N -0.0206(4) 0.0813(3) 0.2274(3)
O2 O -0.2534(4) -0.1971(3) 0.5511(3)
O3 O -0.4371(4) -0.3582(3) 0.4335(3)
C1 C -0.0697(5) 0.0342(4) 0.3031(4)
H2 H -0.0113 0.0687 0.3819
C2 C -0.2009(5) -0.0620(4) 0.2716(4)
C3 C -0.2916(6) -0.1099(4) 0.1545(4)
H3 H -0.3815 -0.1751 0.1292
C4 C -0.2460(6) -0.0586(4) 0.0758(4)
H4 H -0.3073 -0.0874 -0.0035
C5 C -0.1108(6) 0.0344(4) 0.1150(4)
H5 H -0.0800 0.0665 0.0609
C6 C -0.2321(5) -0.1114(4) 0.3637(4)
H6 H -0.1758 -0.0656 0.4392
C7 C -0.3314(5) -0.2137(4) 0.3509(4)
H7 H -0.3976 -0.2591 0.2764
C8 C -0.3402(5) -0.2581(4) 0.4520(4)
N2 N 0.3090(4) -0.2713(3) 0.5746(3)
O4 O 0.4373(5) 0.0018(3) 0.1997(4)
O5 O 0.3509(4) 0.1359(3) 0.2557(3)
C9 C 0.3558(6) -0.2103(4) 0.5073(4)
H8 H 0.4638 -0.1838 0.5235
C10 C 0.2552(6) -0.1832(4) 0.4144(4)
C11 C 0.0951(6) -0.2237(4) 0.3918(4)
H9 H 0.0226 -0.2070 0.3314
C12 C 0.0445(6) -0.2886(5) 0.4592(5)
H10 H -0.0629 -0.3164 0.4448
C13 C 0.1521(6) -0.3120(5) 0.5474(4)
H11 H 0.1155 -0.3582 0.5908
C14 C 0.3226(6) -0.1133(4) 0.3488(4)
H12 H 0.4126 -0.1222 0.3421
C15 C 0.2710(6) -0.0402(4) 0.2988(5)
H13 H 0.1751 -0.0349 0.2968
C16 C 0.3572(6) 0.0347(4) 0.2452(4)
O6 O -0.2126(4) 0.4883(3) -0.2382(3)
O7 O -0.2888(4) 0.3570(3) -0.1518(3)
O8 O 0.3018(4) 0.5694(3) -0.2692(3)
O9 O 0.4448(4) 0.4615(3) -0.2013(3)
O10 O 0.3781(3) 0.2972(3) 0.1103(3)
O11 O 0.1405(4) 0.2429(3) 0.1186(3)
C17 C -0.0231(5) 0.4101(4) -0.1370(4)
C18 C 0.0796(5) 0.4611(4) -0.1849(4)
H14 H 0.0491 0.5035 -0.2381
C19 C 0.2269(5) 0.4498(4) -0.1547(4)
C20 C 0.2734(5) 0.3907(4) -0.0724(4)
H15 H 0.3730 0.3834 -0.0512
C21 C 0.1739(5) 0.3419(4) -0.0206(4)
C22 C 0.0248(5) 0.3504(4) -0.0551(4)
H16 H -0.0442 0.3155 -0.0230
C23 C -0.1867(5) 0.4170(4) -0.1763(4)
C24 C 0.3315(5) 0.4980(4) -0.2128(4)
C25 C 0.2357(5) 0.2892(4) 0.0763(4)
O12 O 0.0661(4) 0.3289(3) 0.3024(3)
H17 H -0.0276 0.2889 0.2540
H18 H 0.1050 0.3846 0.2773
O13 O 0.6376(4) 0.1938(3) 0.1859(3)
H19 H 0.5914 0.1242 0.1824
H20 H 0.6305 0.1939 0.1172
Co1A Co -0.19961(7) -0.22220(5) 0.71683(5)
Co2A Co 0.46884(7) -0.28588(5) 0.73359(5)
Co2A_2 Co 0.46884(7) 0.71412(5) -0.26641(5)
Co3_2 Co -0.57008(7) -0.48717(5) 0.29284(5)
Co3A Co -0.42992(7) 0.48717(5) -0.29284(5)
Co3A_2 Co 0.57008(7) 0.48717(5) -0.29284(5)
O2A O 0.2534(4) 0.1971(3) 0.4489(3)
O3_2 O 0.5629(4) 0.6418(3) 0.4335(3)
N2A N 0.6910(4) 0.2713(3) 0.4254(3)
O6A O 0.2126(4) 0.5117(3) 0.2382(3)
O8A O 0.6982(4) 0.4306(3) 0.2692(3)
O9A O 0.5552(4) 0.5385(3) 0.2013(3)
O14 O 0.3188(5) 0.7958(3) 0.0147(3)
H21 H 0.3158 0.7442 0.0521
H22 H 0.3570 0.8596 0.0646
loop_
_geom_bond_atom_site_label_1
_geom_bond_atom_site_label_2
_geom_bond_site_symmetry_1
_geom_bond_site_symmetry_2
Co1 O1 1_555 1_555
Co2 O1 1_555 1_555
Co3 O1 1_555 1_555
O1 H1 1_555 1_555
N1 Co1 1_555 1_555
O2 C8 1_555 1_555
O3 C8 1_555 1_555
C1 N1 1_555 1_555
H2 C1 1_555 1_555
C2 C1 1_555 1_555
C3 C2 1_555 1_555
H3 C3 1_555 1_555
C4 C3 1_555 1_555
H4 C4 1_555 1_555
C5 N1 1_555 1_555
H5 C5 1_555 1_555
C6 C2 1_555 1_555
H6 C6 1_555 1_555
C7 C6 1_555 1_555
H7 C7 1_555 1_555
C8 C7 1_555 1_555
N2 C9 1_555 1_555
O4 C16 1_555 1_555
O5 Co1 1_555 1_555
C9 H8 1_555 1_555
C10 C9 1_555 1_555
C11 C10 1_555 1_555
H9 C11 1_555 1_555
C12 C11 1_555 1_555
H10 C12 1_555 1_555
C13 N2 1_555 1_555
H11 C13 1_555 1_555
C14 C10 1_555 1_555
H12 C14 1_555 1_555
C15 C14 1_555 1_555
H13 C15 1_555 1_555
C16 O5 1_555 1_555
O6 C23 1_555 1_555
O7 C23 1_555 1_555
O8 C24 1_555 1_555
O9 C24 1_555 1_555
O10 Co2 1_555 1_555
O11 Co1 1_555 1_555
C17 C18 1_555 1_555
C18 H14 1_555 1_555
C19 C18 1_555 1_555
C20 C19 1_555 1_555
H15 C20 1_555 1_555
C21 C20 1_555 1_555
C22 C17 1_555 1_555
H16 C22 1_555 1_555
C23 C17 1_555 1_555
C24 C19 1_555 1_555
C25 O10 1_555 1_555
O12 Co1 1_555 1_555
H17 O12 1_555 1_555
H18 O12 1_555 1_555
O13 Co2 1_555 1_555
H19 O13 1_555 1_555
H20 O13 1_555 1_555
O14 H21 1_555 1_555
H22 O14 1_555 1_555
Co1A O2 1_555 1_555
Co2A N2 1_555 1_555
Co2A_2 O8 1_555 1_555
Co3_2 O3 1_555 1_555
Co3A O6 1_555 1_555
Co3A_2 O9 1_555 1_555
O2A Co1 1_555 1_555
O3_2 Co3 1_555 1_555
N2A Co2 1_555 1_555
O6A Co3 1_555 1_555
O8A Co2 1_555 1_555
O9A Co3 1_555 1_555
Co2 O5 1_555 1_555
C4 C5 1_555 1_555
C12 C13 1_555 1_555
C15 C16 1_555 1_555
O11 C25 1_555 1_555
C21 C22 1_555 1_555
C21 C25 1_555 1_555

#END
