
#######################################################################
#
#                 Cambridge Crystallographic Data Centre
#                                CCDC 
#
#######################################################################
#
# If this CIF has been generated from an entry in the Cambridge 
# Structural Database, then it will include bibliographic, chemical, 
# crystal, experimental, refinement or atomic coordinate data resulting 
# from the CCDC's data processing and validation procedures.
#
#######################################################################

data_HECPIP
_symmetry_cell_setting           monoclinic
_symmetry_space_group_name_H-M   'P 21/c'
_symmetry_Int_Tables_number      14
_space_group_name_Hall           '-P 2ybc'
loop_
_symmetry_equiv_pos_site_id
_symmetry_equiv_pos_as_xyz
1 x,y,z
2 -x,1/2+y,1/2-z
3 -x,-y,-z
4 x,1/2-y,1/2+z
_cell_length_a                   7.7002(5)
_cell_length_b                   7.8855(5)
_cell_length_c                   24.6440(16)
_cell_angle_alpha                90
_cell_angle_beta                 95.929(2)
_cell_angle_gamma                90
_cell_volume                     1488.38
loop_
_atom_site_label
_atom_site_type_symbol
_atom_site_fract_x
_atom_site_fract_y
_atom_site_fract_z
Cu1 Cu 0.00602(6) 0.81734(5) 0.368635(17)
Cl1 Cl -0.27911(13) 0.87175(16) 0.34883(5)
N1 N 0.0539(4) 1.0182(4) 0.41912(12)
N2 N 0.2931(4) 0.8467(4) 0.45158(12)
N3 N 0.2187(4) 0.7482(4) 0.41404(11)
N4 N 0.0280(4) 0.5753(4) 0.34220(12)
N5 N -0.1169(4) 0.4118(4) 0.20463(12)
C1 C -0.0373(5) 1.1605(5) 0.42230(18)
H1 H -0.1351 1.1778 0.3975
C2 C 0.0075(6) 1.2828(5) 0.4609(2)
H2 H -0.0581 1.3816 0.4619
C3 C 0.1506(6) 1.2572(5) 0.49809(18)
H3 H 0.1810 1.3373 0.5251
C4 C 0.2482(5) 1.1132(5) 0.49513(16)
H4 H 0.3466 1.0945 0.5196
C5 C 0.1965(5) 0.9952(4) 0.45459(14)
C6 C 0.2851(5) 0.5944(4) 0.40273(14)
C7 C 0.4398(5) 0.5250(5) 0.42926(15)
H5 H 0.5051 0.5856 0.4566
C8 C 0.4922(5) 0.3700(5) 0.41478(18)
H6 H 0.5936 0.3227 0.4323
C9 C 0.3928(5) 0.2793(5) 0.37282(17)
H7 H 0.4309 0.1727 0.3631
C10 C 0.2436(5) 0.3428(5) 0.34635(16)
H8 H 0.1831 0.2808 0.3184
C11 C 0.1787(5) 0.5041(4) 0.36107(14)
C12 C -0.0781(5) 0.5059(5) 0.29759(14)
C13 C -0.2536(5) 0.4767(6) 0.30195(16)
H9 H -0.3009 0.4985 0.3345
C14 C -0.3569(5) 0.4149(6) 0.25734(18)
H10 H -0.4751 0.3951 0.2594
C15 C -0.2844(5) 0.3828(5) 0.20998(16)
H11 H -0.3551 0.3391 0.1804
C16 C -0.0169(5) 0.4736(5) 0.24766(15)
H12 H 0.0998 0.4961 0.2439
Cu1A Cu -0.00602(6) 0.31734(5) 0.131365(17)
N5A N 0.1169(4) 0.9118(4) 0.29537(12)
loop_
_geom_bond_atom_site_label_1
_geom_bond_atom_site_label_2
_geom_bond_site_symmetry_1
_geom_bond_site_symmetry_2
Cu1 Cl1 1_555 1_555
N1 Cu1 1_555 1_555
N2 N3 1_555 1_555
N3 Cu1 1_555 1_555
N4 Cu1 1_555 1_555
N5 C15 1_555 1_555
C1 N1 1_555 1_555
H1 C1 1_555 1_555
C2 C1 1_555 1_555
H2 C2 1_555 1_555
C3 C2 1_555 1_555
H3 C3 1_555 1_555
C4 C3 1_555 1_555
H4 C4 1_555 1_555
C5 N1 1_555 1_555
C6 N3 1_555 1_555
C7 C6 1_555 1_555
H5 C7 1_555 1_555
C8 C7 1_555 1_555
H6 C8 1_555 1_555
C9 C8 1_555 1_555
H7 C9 1_555 1_555
C10 C9 1_555 1_555
H8 C10 1_555 1_555
C11 N4 1_555 1_555
C12 N4 1_555 1_555
C13 C12 1_555 1_555
H9 C13 1_555 1_555
C14 C13 1_555 1_555
H10 C14 1_555 1_555
C15 C14 1_555 1_555
H11 C15 1_555 1_555
C16 N5 1_555 1_555
H12 C16 1_555 1_555
Cu1A N5 1_555 1_555
N5A Cu1 1_555 1_555
N2 C5 1_555 1_555
C4 C5 1_555 1_555
C6 C11 1_555 1_555
C10 C11 1_555 1_555
C12 C16 1_555 1_555

#END
