
#######################################################################
#
#                 Cambridge Crystallographic Data Centre
#                                CCDC 
#
#######################################################################
#
# If this CIF has been generated from an entry in the Cambridge 
# Structural Database, then it will include bibliographic, chemical, 
# crystal, experimental, refinement or atomic coordinate data resulting 
# from the CCDC's data processing and validation procedures.
#
#######################################################################

data_HECPOU
_symmetry_cell_setting           monoclinic
_symmetry_space_group_name_H-M   'P 21/c'
_symmetry_Int_Tables_number      14
_space_group_name_Hall           '-P 2ybc'
loop_
_symmetry_equiv_pos_site_id
_symmetry_equiv_pos_as_xyz
1 x,y,z
2 -x,1/2+y,1/2-z
3 -x,-y,-z
4 x,1/2-y,1/2+z
_cell_length_a                   8.880(1)
_cell_length_b                   12.9975(8)
_cell_length_c                   28.721(2)
_cell_angle_alpha                90
_cell_angle_beta                 92.970(7)
_cell_angle_gamma                90
_cell_volume                     3310.46
loop_
_atom_site_label
_atom_site_type_symbol
_atom_site_fract_x
_atom_site_fract_y
_atom_site_fract_z
Cu1 Cu 0.26290(6) 0.27770(5) -0.29425(2)
Cu2 Cu 0.02994(6) 0.27560(5) -0.41818(2)
C1 C 0.1644(5) 0.2480(3) -0.6314(1)
C2 C 0.1402(5) 0.3296(4) -0.6619(1)
C3 C 0.1674(5) 0.3176(3) -0.7083(1)
C4 C 0.2454(6) 0.1509(4) -0.6960(1)
C5 C 0.2192(6) 0.1576(4) -0.6491(1)
C6 C 0.4403(4) 0.1922(3) -0.3617(1)
C7 C 0.3391(5) 0.1868(4) -0.4283(1)
C8 C -0.1472(4) 0.3643(3) -0.3512(1)
C9 C -0.0433(5) 0.3721(4) -0.2848(1)
C10 C 0.5419(4) 0.1855(3) -0.3196(1)
C11 C 0.6842(5) 0.1456(3) -0.3185(2)
C12 C 0.7704(5) 0.1470(4) -0.2769(2)
C13 C 0.7085(5) 0.1883(4) -0.2381(2)
C14 C 0.5648(5) 0.2252(4) -0.2419(1)
C15 C -0.2458(5) 0.3726(3) -0.3931(1)
C16 C -0.3871(5) 0.4164(4) -0.3946(2)
C17 C -0.4707(6) 0.4174(4) -0.4365(2)
C18 C -0.4118(6) 0.3753(4) -0.4753(2)
C19 C -0.2674(5) 0.3346(4) -0.4713(2)
N2 N 0.1832(6) 0.5484(4) -0.4008(2)
N3 N 0.2198(4) 0.2296(3) -0.7255(1)
N4 N 0.2399(3) 0.2325(3) -0.4024(1)
N5 N 0.3068(3) 0.2352(3) -0.35840(9)
N6 N 0.4655(4) 0.1590(3) -0.4048(1)
N7 N 0.0517(3) 0.3175(3) -0.3104(1)
N8 N -0.0179(4) 0.3144(2) -0.3536(1)
N9 N -0.1676(4) 0.4028(3) -0.3088(1)
N10 N 0.4796(3) 0.2246(3) -0.2816(1)
N11 N -0.1853(4) 0.3328(3) -0.4312(1)
O1 O 0.3229(4) 0.4398(3) -0.2949(1)
O2 O -0.0560(4) 0.1128(3) -0.4135(1)
O10 O 0.102(3) 0.480(2) -0.399(1)
O11 O 0.242(4) 0.589(1) -0.3680(6)
O12 O 0.226(2) 0.575(1) -0.4403(5)
C20 C 0.1318(5) 0.2568(3) -0.5813(1)
C21 C 0.1596(5) 0.3457(3) -0.5558(1)
C22 C 0.1279(5) 0.3494(4) -0.5092(1)
C23 C 0.0376(5) 0.1844(4) -0.5120(1)
C24 C 0.0667(6) 0.1752(4) -0.5585(1)
N12 N 0.0677(4) 0.2693(3) -0.4872(1)
H1 H 0.099(5) 0.392(3) -0.653(1)
H2 H 0.161(5) 0.371(3) -0.731(1)
H3 H 0.282(5) 0.085(3) -0.712(1)
H4 H 0.251(5) 0.103(3) -0.627(1)
H5 H 0.323(4) 0.168(3) -0.460(1)
H6 H -0.011(5) 0.390(3) -0.249(1)
H7 H 0.404(5) 0.459(4) -0.291(2)
H8 H 0.284(5) 0.474(3) -0.319(2)
H9 H 0.719(5) 0.121(3) -0.343(1)
H10 H 0.863(5) 0.125(3) -0.274(1)
H11 H 0.769(5) 0.198(3) -0.209(1)
H12 H 0.527(5) 0.255(3) -0.217(2)
H13 H 0.005(5) 0.077(3) -0.391(1)
H14 H -0.119(6) 0.088(4) -0.419(2)
H15 H -0.431(5) 0.439(3) -0.369(1)
H16 H -0.570(5) 0.440(3) -0.442(1)
H17 H -0.461(5) 0.374(3) -0.504(1)
H18 H -0.232(5) 0.303(3) -0.497(1)
H24 H 0.206(5) 0.405(3) -0.567(1)
H25 H 0.152(5) 0.407(3) -0.491(1)
H26 H 0.000(5) 0.122(3) -0.493(1)
H27 H 0.031(5) 0.110(3) -0.576(1)
N3C N 0.2198(4) 0.2704(3) -0.2255(1)
Cu1C Cu 0.26290(6) 0.22230(5) -0.79425(2)
N1 N 0.1844(6) -0.0124(5) -0.3338(2)
O7 O 0.1192(6) 0.0449(4) -0.3090(2)
O8 O 0.1393(6) -0.0311(4) -0.3733(2)
O9 O 0.3133(7) -0.0470(5) -0.3246(2)
O3 O 0.5930(4) 0.5010(3) -0.2662(1)
H19 H 0.627(5) 0.492(3) -0.236(2)
H20 H 0.682(5) 0.472(3) -0.279(1)
O4 O -0.3233(4) 0.0451(4) -0.4518(2)
H21 H -0.385(5) 0.067(4) -0.444(2)
H22 H -0.383(5) -0.019(3) -0.461(1)
O5 O -0.4799(5) -0.1366(4) -0.4680(1)
H23 H -0.497(5) -0.166(4) -0.442(2)
O6 O 0.4014(7) -0.2128(4) -0.3864(2)
O13? O 0.122(3) 0.485(2) 0.5773(5)
O14? O 0.260(2) 0.609(1) 0.5844(9)
O15? O 0.155(2) 0.559(1) 0.6414(4)
loop_
_geom_bond_atom_site_label_1
_geom_bond_atom_site_label_2
_geom_bond_site_symmetry_1
_geom_bond_site_symmetry_2
Cu1 N5 1_555 1_555
Cu2 N4 1_555 1_555
C1 C2 1_555 1_555
C2 C3 1_555 1_555
C3 N3 1_555 1_555
C4 C5 1_555 1_555
C5 C1 1_555 1_555
C6 C10 1_555 1_555
C7 N4 1_555 1_555
C8 C15 1_555 1_555
C9 N7 1_555 1_555
C10 C11 1_555 1_555
C11 C12 1_555 1_555
C12 C13 1_555 1_555
C13 C14 1_555 1_555
C14 N10 1_555 1_555
C15 C16 1_555 1_555
C16 C17 1_555 1_555
C17 C18 1_555 1_555
C18 C19 1_555 1_555
C19 N11 1_555 1_555
N1 O7 1_555 1_555
N2 O10 1_555 1_555
N3 C4 1_555 1_555
N4 N5 1_555 1_555
N5 C6 1_555 1_555
N6 C6 1_555 1_555
N7 Cu1 1_555 1_555
N8 Cu2 1_555 1_555
N9 C8 1_555 1_555
N10 Cu1 1_555 1_555
N11 Cu2 1_555 1_555
O1 Cu1 1_555 1_555
O2 Cu2 1_555 1_555
O3 H19 1_555 1_555
O4 H21 1_555 1_555
O5 H23 1_555 1_555
O8 N1 1_555 1_555
O9 N1 1_555 1_555
O10 Cu2 1_555 1_555
O11 N2 1_555 1_555
O12 N2 1_555 1_555
C20 C1 1_555 1_555
C21 C20 1_555 1_555
C22 C21 1_555 1_555
C23 C24 1_555 1_555
C24 C20 1_555 1_555
N12 Cu2 1_555 1_555
H1 C2 1_555 1_555
H2 C3 1_555 1_555
H3 C4 1_555 1_555
H4 C5 1_555 1_555
H5 C7 1_555 1_555
H6 C9 1_555 1_555
H7 O1 1_555 1_555
H8 O1 1_555 1_555
H9 C11 1_555 1_555
H10 C12 1_555 1_555
H11 C13 1_555 1_555
H12 C14 1_555 1_555
H13 O2 1_555 1_555
H14 O2 1_555 1_555
H15 C16 1_555 1_555
H16 C17 1_555 1_555
H17 C18 1_555 1_555
H18 C19 1_555 1_555
H20 O3 1_555 1_555
H22 O4 1_555 1_555
H24 C21 1_555 1_555
H25 C22 1_555 1_555
H26 C23 1_555 1_555
H27 C24 1_555 1_555
N3C Cu1 1_555 1_555
Cu1C N3 1_555 1_555
C7 N6 1_555 1_555
C8 N8 1_555 1_555
C9 N9 1_555 1_555
C10 N10 1_555 1_555
C15 N11 1_555 1_555
N7 N8 1_555 1_555
C22 N12 1_555 1_555
C23 N12 1_555 1_555

#END
