
#######################################################################
#
#                 Cambridge Crystallographic Data Centre
#                                CCDC 
#
#######################################################################
#
# If this CIF has been generated from an entry in the Cambridge 
# Structural Database, then it will include bibliographic, chemical, 
# crystal, experimental, refinement or atomic coordinate data resulting 
# from the CCDC's data processing and validation procedures.
#
#######################################################################

data_HECQUB
_symmetry_cell_setting           orthorhombic
_symmetry_space_group_name_H-M   'F d d d'
_symmetry_Int_Tables_number      70
_space_group_name_Hall           '-F 2uv 2vw'
loop_
_symmetry_equiv_pos_site_id
_symmetry_equiv_pos_as_xyz
1 x,y,z
2 x,1/2+y,1/2+z
3 x,1/4-y,1/4-z
4 1/2+x,y,1/2+z
5 1/4-x,y,1/4-z
6 1/2+x,1/2+y,z
7 1/4-x,1/4-y,z
8 1/4+x,1/4+y,-z
9 1/4+x,-y,1/4+z
10 -x,1/4+y,1/4+z
11 1/4+x,3/4+y,1/2-z
12 1/4+x,1/2-y,3/4+z
13 3/4+x,1/4+y,1/2-z
14 1/2-x,1/4+y,3/4+z
15 3/4+x,1/2-y,1/4+z
16 1/2-x,3/4+y,1/4+z
17 -x,-y,-z
18 -x,1/2-y,1/2-z
19 -x,3/4+y,3/4+z
20 1/2-x,-y,1/2-z
21 3/4+x,-y,3/4+z
22 1/2-x,1/2-y,-z
23 3/4+x,3/4+y,-z
24 3/4-x,3/4-y,z
25 3/4-x,y,3/4-z
26 x,3/4-y,3/4-z
27 3/4-x,1/4-y,1/2+z
28 3/4-x,1/2+y,1/4-z
29 1/4-x,3/4-y,1/2+z
30 1/2+x,3/4-y,1/4-z
31 1/4-x,1/2+y,3/4-z
32 1/2+x,1/4-y,3/4-z
_cell_length_a                   16.638(5)
_cell_length_b                   20.198(3)
_cell_length_c                   26.273(3)
_cell_angle_alpha                90
_cell_angle_beta                 90
_cell_angle_gamma                90
_cell_volume                     8829.16
loop_
_atom_site_label
_atom_site_type_symbol
_atom_site_fract_x
_atom_site_fract_y
_atom_site_fract_z
Zn1 Zn 0.6250 -0.3750 0.1250
N1 N 0.2151(4) 0.0496(3) 0.1242(2)
C1 C 0.2439(4) 0.0138(3) 0.1613(2)
H1 H 0.2305(4) 0.0198(3) 0.1953(2)
N2 N 0.2950(5) -0.0325(4) 0.1445(2)
C2 C 0.3004(9) -0.0239(7) 0.0921(3)
H2 H 0.3322(9) -0.0479(7) 0.0696(3)
C3 C 0.2503(9) 0.0259(7) 0.0807(3)
H3 H 0.2408(9) 0.0421(7) 0.0481(3)
N3 N 0.3750 -0.1250 0.1438(3)
C4 C 0.3362(5) -0.0807(3) 0.1724(2)
N4 N 0.3330(3) -0.0765(2) 0.2220(2)
C5 C 0.3750 -0.1250 0.2477(3)
O1 O 0.3750 -0.1250 0.2945(2)
C4W C 0.4138(5) -0.1693(3) 0.1724(2)
N2W N 0.4550(5) -0.2175(4) 0.1445(2)
C1W C 0.5061(4) -0.2638(3) 0.1613(2)
N1W N 0.5349(4) -0.2996(3) 0.1242(2)
C3W C 0.4997(9) -0.2759(7) 0.0807(3)
C2W C 0.4496(9) -0.2261(7) 0.0921(3)
H2W H 0.4178(9) -0.2021(7) 0.0696(3)
H3W H 0.5092(9) -0.2921(7) 0.0481(3)
H1W H 0.5195(4) -0.2698(3) 0.1953(2)
N4W N 0.4170(3) -0.1735(2) 0.2220(2)
Zn1E Zn 0.1250 0.1250 0.1250
Zn1I Zn 0.3750 -0.1250 0.3750
N1AA N 0.5349(4) -0.4504(3) 0.1258(2)
N1CA N 0.7151(4) -0.2996(3) 0.1258(2)
N1E N 0.7151(4) -0.4504(3) 0.1242(2)
N1Q N 0.7849(4) -0.5496(3) 0.3758(2)
C1Q C 0.7561(4) -0.5138(3) 0.3387(2)
H1Q H 0.7695(4) -0.5198(3) 0.3047(2)
N2Q N 0.7050(5) -0.4675(4) 0.3555(2)
C2Q C 0.6996(9) -0.4761(7) 0.4079(3)
H2Q H 0.6678(9) -0.4521(7) 0.4304(3)
C3Q C 0.7497(9) -0.5259(7) 0.4193(3)
H3Q H 0.7592(9) -0.5421(7) 0.4519(3)
N3Q N 0.6250 -0.3750 0.3562(3)
C4Q C 0.6638(5) -0.4193(3) 0.3276(2)
N4Q N 0.6670(3) -0.4235(2) 0.2780(2)
C5Q C 0.6250 -0.3750 0.2523(3)
O1Q O 0.6250 -0.3750 0.2055(2)
C4J C 0.5862(5) -0.3307(3) 0.3276(2)
N2J N 0.5450(5) -0.2825(4) 0.3555(2)
C1J C 0.4939(4) -0.2362(3) 0.3387(2)
N1J N 0.4651(4) -0.2004(3) 0.3758(2)
C3J C 0.5003(9) -0.2241(7) 0.4193(3)
C2J C 0.5504(9) -0.2739(7) 0.4079(3)
H2J H 0.5822(9) -0.2979(7) 0.4304(3)
H3J H 0.4908(9) -0.2079(7) 0.4519(3)
H1J H 0.4805(4) -0.2302(3) 0.3047(2)
N4J N 0.5830(3) -0.3265(2) 0.2780(2)
O1K O 0.6250 -0.3750 0.0445(2)
Zn1H Zn 0.8750 -0.6250 0.3750
loop_
_geom_bond_atom_site_label_1
_geom_bond_atom_site_label_2
_geom_bond_site_symmetry_1
_geom_bond_site_symmetry_2
Zn1 N1W 1_555 1_555
N1 C1 1_555 1_555
C1 H1 1_555 1_555
N2 C1 1_555 1_555
C2 N2 1_555 1_555
H2 C2 1_555 1_555
C3 N1 1_555 1_555
H3 C3 1_555 1_555
N3 C4 1_555 1_555
C4 N2 1_555 1_555
N4 C4 1_555 1_555
C5 N4 1_555 1_555
O1 C5 1_555 1_555
C4W N3 1_555 1_555
N2W C4W 1_555 1_555
C1W N2W 1_555 1_555
N1W C1W 1_555 1_555
C3W N1W 1_555 1_555
C2W N2W 1_555 1_555
H2W C2W 1_555 1_555
H3W C3W 1_555 1_555
H1W C1W 1_555 1_555
N4W C5 1_555 1_555
Zn1E N1 1_555 1_555
Zn1I O1 1_555 1_555
N1AA Zn1 1_555 1_555
N1CA Zn1 1_555 1_555
N1E Zn1 1_555 1_555
N1Q C1Q 1_555 1_555
C1Q H1Q 1_555 1_555
N2Q C1Q 1_555 1_555
C2Q N2Q 1_555 1_555
H2Q C2Q 1_555 1_555
C3Q N1Q 1_555 1_555
H3Q C3Q 1_555 1_555
N3Q C4Q 1_555 1_555
C4Q N2Q 1_555 1_555
N4Q C4Q 1_555 1_555
C5Q N4Q 1_555 1_555
O1Q Zn1 1_555 1_555
C4J N3Q 1_555 1_555
N2J C4J 1_555 1_555
C1J N2J 1_555 1_555
N1J Zn1I 1_555 1_555
C3J N1J 1_555 1_555
C2J N2J 1_555 1_555
H2J C2J 1_555 1_555
H3J C3J 1_555 1_555
H1J C1J 1_555 1_555
N4J C5Q 1_555 1_555
O1K Zn1 1_555 1_555
Zn1H N1Q 1_555 1_555
C2 C3 1_555 1_555
C4W N4W 1_555 1_555
C3W C2W 1_555 1_555
C2Q C3Q 1_555 1_555
C5Q O1Q 1_555 1_555
C4J N4J 1_555 1_555
C1J N1J 1_555 1_555
C3J C2J 1_555 1_555

#END
