
#######################################################################
#
#                 Cambridge Crystallographic Data Centre
#                                CCDC 
#
#######################################################################
#
# If this CIF has been generated from an entry in the Cambridge 
# Structural Database, then it will include bibliographic, chemical, 
# crystal, experimental, refinement or atomic coordinate data resulting 
# from the CCDC's data processing and validation procedures.
#
#######################################################################

data_HECQAH
_symmetry_cell_setting           monoclinic
_symmetry_space_group_name_H-M   'P 21/n'
_symmetry_Int_Tables_number      14
_space_group_name_Hall           '-P 2yn'
loop_
_symmetry_equiv_pos_site_id
_symmetry_equiv_pos_as_xyz
1 x,y,z
2 1/2-x,1/2+y,1/2-z
3 -x,-y,-z
4 1/2+x,1/2-y,1/2+z
_cell_length_a                   11.4341(9)
_cell_length_b                   9.8146(8)
_cell_length_c                   22.5760(14)
_cell_angle_alpha                90.00
_cell_angle_beta                 102.675(6)
_cell_angle_gamma                90.00
_cell_volume                     2471.76
loop_
_atom_site_label
_atom_site_type_symbol
_atom_site_fract_x
_atom_site_fract_y
_atom_site_fract_z
Ni1 Ni 1.0000 0.0000 1.0000
N1 N 0.8805(2) -0.0396(3) 0.91659(13)
N2 N 0.8931(3) 0.0095(3) 0.86238(14)
C1 C 0.7811(3) -0.1136(4) 0.9039(2)
H1 H 0.7495 -0.1600 0.9327
C2 C 0.7305(4) -0.1130(5) 0.8426(2)
H2 H 0.6607 -0.1569 0.8230
C3 C 0.8036(4) -0.0352(5) 0.8169(2)
C4 C 0.7946(6) 0.0107(7) 0.7523(2)
H3 H 0.8631 0.0656 0.7502
H4 H 0.7229 0.0633 0.7391
H5 H 0.7923 -0.0676 0.7266
N3 N 0.9348(2) 0.1997(3) 1.00390(13)
N4 N 0.9273(2) 0.2903(3) 0.95795(14)
C5 C 0.8843(3) 0.2620(4) 1.0444(2)
H6 H 0.8763 0.2240 1.0810
C6 C 0.8449(3) 0.3918(4) 1.0245(2)
H7 H 0.8066 0.4546 1.0446
C7 C 0.8738(3) 0.4080(4) 0.9698(2)
C8 C 0.8538(4) 0.5212(5) 0.9254(3)
H8 H 0.8867 0.4973 0.8911
H9 H 0.8924 0.6020 0.9441
H10 H 0.7693 0.5376 0.9121
N5 N 1.1231(2) 0.0784(3) 0.95223(14)
N6 N 1.2215(2) 0.0415(3) 0.95347(12)
N7 N 1.3177(2) 0.0057(3) 0.95267(15)
Ni2 Ni 1.5000 0.0000 1.0000
N8 N 1.5430(2) 0.0973(3) 0.92489(13)
N9 N 1.4758(3) 0.0971(3) 0.86754(14)
C9 C 1.6359(3) 0.1763(4) 0.9220(2)
H11 H 1.6980 0.1963 0.9550
C10 C 1.6289(4) 0.2250(4) 0.8643(2)
H12 H 1.6839 0.2811 0.8513
C11 C 1.5251(4) 0.1741(4) 0.8300(2)
C12 C 1.4672(5) 0.1877(7) 0.7641(2)
H13 H 1.3934 0.1374 0.7555
H14 H 1.5200 0.1524 0.7401
H15 H 1.4511 0.2821 0.7545
N10 N 1.5109(3) -0.1931(3) 0.96337(14)
N11 N 1.4370(3) -0.2367(3) 0.9108(2)
C13 C 1.5793(3) -0.2996(4) 0.9842(2)
H16 H 1.6382 -0.2996 1.0199
C14 C 1.5516(4) -0.4095(4) 0.9461(2)
H17 H 1.5878 -0.4949 0.9509
C15 C 1.4612(4) -0.3692(4) 0.9001(2)
C16 C 1.3902(6) -0.4423(6) 0.8458(3)
H18 H 1.3324 -0.3811 0.8226
H19 H 1.3495 -0.5184 0.8589
H20 H 1.4431 -0.4743 0.8212
N1B N 1.1195(2) 0.0396(3) 1.08341(13)
N2B N 1.1069(3) -0.0095(3) 1.13762(14)
C3B C 1.1964(4) 0.0352(5) 1.1831(2)
C2B C 1.2695(4) 0.1130(5) 1.1574(2)
C1B C 1.2189(3) 0.1136(4) 1.0961(2)
H1B H 1.2505 0.1600 1.0673
H2B H 1.3393 0.1569 1.1770
C4B C 1.2054(6) -0.0107(7) 1.2477(2)
H3B H 1.1369 -0.0656 1.2498
H4B H 1.2771 -0.0633 1.2609
H5B H 1.2077 0.0676 1.2734
N3B N 1.0652(2) -0.1997(3) 0.99610(13)
N4B N 1.0727(2) -0.2903(3) 1.04205(14)
C7B C 1.1262(3) -0.4080(4) 1.0302(2)
C6B C 1.1551(3) -0.3918(4) 0.9755(2)
C5B C 1.1157(3) -0.2620(4) 0.9556(2)
H6B H 1.1237 -0.2240 0.9190
H7B H 1.1934 -0.4546 0.9554
C8B C 1.1462(4) -0.5212(5) 1.0746(3)
H8B H 1.1133 -0.4973 1.1089
H9B H 1.1076 -0.6020 1.0559
H10B H 1.2307 -0.5376 1.0879
N7B N 1.6823(2) -0.0057(3) 1.04733(15)
N6B N 1.7785(2) -0.0415(3) 1.04653(12)
N5B N 1.8769(2) -0.0784(3) 1.04777(14)
Ni1B Ni 2.0000 0.0000 1.0000
N8B N 1.4570(2) -0.0973(3) 1.07511(13)
N9B N 1.5242(3) -0.0971(3) 1.13246(14)
C11B C 1.4749(4) -0.1741(4) 1.1700(2)
C10B C 1.3711(4) -0.2250(4) 1.1357(2)
C9B C 1.3641(3) -0.1763(4) 1.0780(2)
H11B H 1.3020 -0.1963 1.0450
H12B H 1.3161 -0.2811 1.1487
C12B C 1.5328(5) -0.1877(7) 1.2359(2)
H13B H 1.6066 -0.1374 1.2445
H14B H 1.4800 -0.1524 1.2599
H15B H 1.5489 -0.2821 1.2455
N10B N 1.4891(3) 0.1931(3) 1.03663(14)
N11B N 1.5630(3) 0.2367(3) 1.0892(2)
C15B C 1.5388(4) 0.3692(4) 1.0999(2)
C14B C 1.4484(4) 0.4095(4) 1.0539(2)
C13B C 1.4207(3) 0.2996(4) 1.0158(2)
H16B H 1.3618 0.2996 0.9801
H17B H 1.4122 0.4949 1.0491
C16B C 1.6098(6) 0.4423(6) 1.1542(3)
H18B H 1.6676 0.3811 1.1774
H19B H 1.6505 0.5184 1.1411
H20B H 1.5569 0.4743 1.1788
N5B_2 N 0.8769(2) -0.0784(3) 1.04777(14)
Cl1 Cl 1.09748(12) 0.27390(14) 0.81456(7)
O1 O 1.0870(4) 0.1282(4) 0.8072(2)
O2 O 1.0071(5) 0.3121(5) 0.8428(2)
O3 O 1.0830(7) 0.3397(6) 0.7598(3)
O4 O 1.2074(6) 0.2979(9) 0.8493(5)
O5 O 1.2659(3) -0.0811(4) 0.81727(14)
loop_
_geom_bond_atom_site_label_1
_geom_bond_atom_site_label_2
_geom_bond_site_symmetry_1
_geom_bond_site_symmetry_2
Ni1 N1 1_555 1_555
N1 N2 1_555 1_555
N2 C3 1_555 1_555
C1 N1 1_555 1_555
H1 C1 1_555 1_555
C2 C1 1_555 1_555
H2 C2 1_555 1_555
C3 C2 1_555 1_555
C4 C3 1_555 1_555
H3 C4 1_555 1_555
H4 C4 1_555 1_555
H5 C4 1_555 1_555
N3 Ni1 1_555 1_555
N4 N3 1_555 1_555
C5 N3 1_555 1_555
H6 C5 1_555 1_555
C6 C5 1_555 1_555
H7 C6 1_555 1_555
C7 N4 1_555 1_555
C8 C7 1_555 1_555
H8 C8 1_555 1_555
H9 C8 1_555 1_555
H10 C8 1_555 1_555
N5 Ni1 1_555 1_555
N6 N5 1_555 1_555
N7 N6 1_555 1_555
Ni2 N7 1_555 1_555
N8 Ni2 1_555 1_555
N9 N8 1_555 1_555
C9 N8 1_555 1_555
H11 C9 1_555 1_555
C10 C9 1_555 1_555
H12 C10 1_555 1_555
C11 N9 1_555 1_555
C12 C11 1_555 1_555
H13 C12 1_555 1_555
H14 C12 1_555 1_555
H15 C12 1_555 1_555
N10 Ni2 1_555 1_555
N11 N10 1_555 1_555
C13 N10 1_555 1_555
H16 C13 1_555 1_555
C14 C13 1_555 1_555
H17 C14 1_555 1_555
C15 N11 1_555 1_555
C16 C15 1_555 1_555
H18 C16 1_555 1_555
H19 C16 1_555 1_555
H20 C16 1_555 1_555
Cl1 O1 1_555 1_555
O2 Cl1 1_555 1_555
O3 Cl1 1_555 1_555
O4 Cl1 1_555 1_555
N1B Ni1 1_555 1_555
N2B N1B 1_555 1_555
C3B N2B 1_555 1_555
C2B C3B 1_555 1_555
C1B N1B 1_555 1_555
H1B C1B 1_555 1_555
H2B C2B 1_555 1_555
C4B C3B 1_555 1_555
H3B C4B 1_555 1_555
H4B C4B 1_555 1_555
H5B C4B 1_555 1_555
N3B Ni1 1_555 1_555
N4B N3B 1_555 1_555
C7B N4B 1_555 1_555
C6B C7B 1_555 1_555
C5B N3B 1_555 1_555
H6B C5B 1_555 1_555
H7B C6B 1_555 1_555
C8B C7B 1_555 1_555
H8B C8B 1_555 1_555
H9B C8B 1_555 1_555
H10B C8B 1_555 1_555
N7B Ni2 1_555 1_555
N6B N7B 1_555 1_555
N5B N6B 1_555 1_555
Ni1B N5B 1_555 1_555
N8B Ni2 1_555 1_555
N9B N8B 1_555 1_555
C11B N9B 1_555 1_555
C10B C11B 1_555 1_555
C9B N8B 1_555 1_555
H11B C9B 1_555 1_555
H12B C10B 1_555 1_555
C12B C11B 1_555 1_555
H13B C12B 1_555 1_555
H14B C12B 1_555 1_555
H15B C12B 1_555 1_555
N10B Ni2 1_555 1_555
N11B N10B 1_555 1_555
C15B N11B 1_555 1_555
C14B C15B 1_555 1_555
C13B N10B 1_555 1_555
H16B C13B 1_555 1_555
H17B C14B 1_555 1_555
C16B C15B 1_555 1_555
H18B C16B 1_555 1_555
H19B C16B 1_555 1_555
H20B C16B 1_555 1_555
N5B_2 Ni1 1_555 1_555
C6 C7 1_555 1_555
C10 C11 1_555 1_555
C14 C15 1_555 1_555
C2B C1B 1_555 1_555
C6B C5B 1_555 1_555
C10B C9B 1_555 1_555
C14B C13B 1_555 1_555

#END
