
#######################################################################
#
#                 Cambridge Crystallographic Data Centre
#                                CCDC 
#
#######################################################################
#
# If this CIF has been generated from an entry in the Cambridge 
# Structural Database, then it will include bibliographic, chemical, 
# crystal, experimental, refinement or atomic coordinate data resulting 
# from the CCDC's data processing and validation procedures.
#
#######################################################################

data_HECRUE
_symmetry_cell_setting           triclinic
_symmetry_space_group_name_H-M   'P -1'
_symmetry_Int_Tables_number      2
_space_group_name_Hall           '-P 1'
loop_
_symmetry_equiv_pos_site_id
_symmetry_equiv_pos_as_xyz
1 x,y,z
2 -x,-y,-z
_cell_length_a                   8.9180(5)
_cell_length_b                   11.9412(7)
_cell_length_c                   14.8834(9)
_cell_angle_alpha                73.404(4)
_cell_angle_beta                 74.656(3)
_cell_angle_gamma                68.615(4)
_cell_volume                     1391.3
loop_
_atom_site_label
_atom_site_type_symbol
_atom_site_fract_x
_atom_site_fract_y
_atom_site_fract_z
Cu1 Cu 0.0000 -0.5000 0.5000
O1 O 0.1853(3) -0.6460(2) 0.48589(19)
C1 C 0.3991(6) -0.8012(6) 0.4203(5)
F1 F 0.5079(7) -0.7973(6) 0.4601(5)
F2 F 0.3411(9) -0.9011(6) 0.4878(8)
F3 F 0.4637(17) -0.8302(11) 0.3340(9)
C2 C 0.2509(5) -0.6813(4) 0.4083(3)
C3 C 0.2039(5) -0.6288(4) 0.3202(3)
H1 H 0.2702 -0.6608 0.2661
C4 C 0.0622(5) -0.5307(4) 0.3094(3)
C5 C 0.0149(6) -0.4837(6) 0.2102(4)
F4 F -0.0380(17) -0.5683(12) 0.1923(11)
F5 F 0.1437(4) -0.4849(3) 0.14157(19)
F6 F -0.0790(16) -0.3850(12) 0.1956(9)
O2 O -0.0412(3) -0.4775(3) 0.37315(19)
Cu2 Cu 0.0000 0.0000 0.0000
O3 O -0.1708(3) 0.1465(2) 0.0346(2)
C6 C -0.3058(6) 0.3407(4) 0.0675(3)
F7 F -0.4125(11) 0.2905(7) 0.1415(7)
F8 F -0.2822(3) 0.4426(2) 0.07241(19)
F9 F -0.3783(11) 0.3814(9) -0.0108(7)
C7 C -0.1465(5) 0.2371(4) 0.0471(3)
C8 C 0.0000(6) 0.2536(4) 0.0464(3)
H2 H -0.0021 0.3283 0.0581
C9 C 0.1510(6) 0.1629(5) 0.0291(3)
C10 C 0.3140(10) 0.1801(7) 0.0313(6)
F10 F 0.2786(10) 0.3165(8) 0.0218(6)
F11 F 0.2855(15) 0.1734(15) 0.1462(8)
F12 F 0.4256(10) 0.1469(9) 0.0175(15)
O4 O 0.1803(4) 0.0631(3) 0.0086(2)
O5 O 0.1772(4) -0.3760(3) 0.4208(2)
C11 C 0.2332(6) -0.3200(5) 0.3417(4)
C12 C 0.4199(6) -0.3480(6) 0.3140(4)
C13 C 0.4925(14) -0.3239(16) 0.1986(8)
H3 H 0.5035 -0.3948 0.1739
H4 H 0.6000 -0.3125 0.1871
H5 H 0.4173 -0.2499 0.1660
C14 C 0.5112(18) -0.4930(12) 0.341(2)
H6 H 0.4814 -0.5230 0.4098
H7 H 0.6299 -0.5088 0.3239
H8 H 0.4781 -0.5357 0.3062
C15 C 0.4747(14) -0.2869(15) 0.3510(14)
H9 H 0.4341 -0.2993 0.4199
H10 H 0.4365 -0.1991 0.3220
H11 H 0.5947 -0.3164 0.3389
C16 C 0.1226(5) -0.2336(4) 0.2789(4)
C17 C 0.1461(6) -0.1693(4) 0.1828(4)
H12 H 0.2507 -0.1763 0.1435
N1 N 0.0078(5) -0.0990(3) 0.1538(3)
N2 N -0.1119(4) -0.1143(3) 0.2324(3)
C18 C -0.2807(6) -0.0460(4) 0.2253(4)
H13 H -0.2866 0.0067 0.1615
H14 H -0.3279 0.0051 0.2732
H15 H -0.3422 -0.1034 0.2363
C19 C -0.0468(6) -0.1936(4) 0.3063(4)
H16 H -0.1063 -0.2185 0.3674
O1A O -0.1853(3) -0.3540(2) 0.51411(19)
C1A C -0.3991(6) -0.1988(6) 0.5797(5)
F1A F -0.5079(7) -0.2027(6) 0.5399(5)
F2A F -0.3411(9) -0.0989(6) 0.5122(8)
F3A F -0.4637(17) -0.1698(11) 0.6660(9)
C2A C -0.2509(5) -0.3187(4) 0.5917(3)
C3A C -0.2039(5) -0.3712(4) 0.6798(3)
H1A H -0.2702 -0.3392 0.7339
C4A C -0.0622(5) -0.4693(4) 0.6906(3)
C5A C -0.0149(6) -0.5163(6) 0.7898(4)
F4A F 0.0380(17) -0.4317(12) 0.8077(11)
F5A F -0.1437(4) -0.5151(3) 0.85843(19)
F6A F 0.0790(16) -0.6150(12) 0.8044(9)
O2A O 0.0412(3) -0.5225(3) 0.62685(19)
Cu2_2 Cu 0.0000 -1.0000 1.0000
O3A O 0.1708(3) -0.1465(2) -0.0346(2)
C6A C 0.3058(6) -0.3407(4) -0.0675(3)
F7A F 0.4125(11) -0.2905(7) -0.1415(7)
F8A F 0.2822(3) -0.4426(2) -0.07241(19)
F9A F 0.3783(11) -0.3814(9) 0.0108(7)
C7A C 0.1465(5) -0.2371(4) -0.0471(3)
C8A C 0.0000(6) -0.2536(4) -0.0464(3)
H2A H 0.0021 -0.3283 -0.0581
C9A C -0.1510(6) -0.1629(5) -0.0291(3)
C10A C -0.3140(10) -0.1801(7) -0.0313(6)
F10A F -0.2786(10) -0.3165(8) -0.0218(6)
F11A F -0.2855(15) -0.1734(15) -0.1462(8)
F12A F -0.4256(10) -0.1469(9) -0.0175(15)
O4A O -0.1803(4) -0.0631(3) -0.0086(2)
O5A O -0.1772(4) -0.6240(3) 0.5792(2)
C11A C -0.2332(6) -0.6800(5) 0.6583(4)
C12A C -0.4199(6) -0.6520(6) 0.6860(4)
C13A C -0.4925(14) -0.6761(16) 0.8014(8)
H3A H -0.5035 -0.6052 0.8261
H4A H -0.6000 -0.6875 0.8129
H5A H -0.4173 -0.7501 0.8340
C14A C -0.5112(18) -0.5070(12) 0.659(2)
H6A H -0.4814 -0.4770 0.5902
H7A H -0.6299 -0.4912 0.6761
H8A H -0.4781 -0.4643 0.6938
C15A C -0.4747(14) -0.7131(15) 0.6490(14)
H9A H -0.4341 -0.7007 0.5801
H10A H -0.4365 -0.8009 0.6780
H11A H -0.5947 -0.6836 0.6611
C16A C -0.1226(5) -0.7664(4) 0.7211(4)
C17A C -0.1461(6) -0.8307(4) 0.8172(4)
H12A H -0.2507 -0.8237 0.8565
N1A N -0.0078(5) -0.9010(3) 0.8462(3)
N1A_2 N -0.0078(5) 0.0990(3) -0.1538(3)
N2A N 0.1119(4) -0.8857(3) 0.7676(3)
C18A C 0.2807(6) -0.9540(4) 0.7747(4)
H13A H 0.2866 -1.0067 0.8385
H14A H 0.3279 -1.0051 0.7268
H15A H 0.3422 -0.8966 0.7637
C19A C 0.0468(6) -0.8064(4) 0.6937(4)
H16A H 0.1063 -0.7815 0.6326
H18 H -0.0257 -0.8948 0.2682
H21 H -0.0356 -0.7461 0.3333
C23 C 0.0000 -1.0000 0.5000
H24 H -0.0115 -1.0542 0.4673
C24 C -0.1132(15) -0.9302(13) 0.4371(9)
H26 H -0.2153 -0.9477 0.4557
C25 C -0.058(3) -0.8352(19) 0.3611(15)
H29 H -0.1244 -0.8400 0.3217
C26 C 0.0853(15) -0.8976(12) 0.2953(8)
H30 H 0.1565 -0.9194 0.2378
H31 H 0.1485 -0.8938 0.3369
H18A H 0.0257 -1.1052 0.7318
H21A H 0.0356 -1.2539 0.6667
H24A H 0.0115 -0.9458 0.5327
C24A C 0.1132(15) -1.0698(13) 0.5629(9)
H26A H 0.2153 -1.0523 0.5443
C25A C 0.058(3) -1.1648(19) 0.6389(15)
H29A H 0.1244 -1.1600 0.6783
C26A C -0.0853(15) -1.1024(12) 0.7047(8)
H30A H -0.1565 -1.0806 0.7622
H31A H -0.1485 -1.1062 0.6631
C20? C -0.1191(15) -0.8634(12) 0.3143(9)
H17? H -0.2029 -0.8013 0.2820
H19? H -0.1602 -0.9292 0.3528
C21? C -0.0738(12) -0.8131(8) 0.3722(7)
H20? H -0.1686 -0.7801 0.4169
C22? C 0.0529(18) -0.8995(13) 0.4293(9)
H22? H 0.0874 -0.8560 0.4610
H23? H 0.1457 -0.9360 0.3850
H25? H -0.1060 -0.9637 0.5350
H27? H 0.1333 -1.1565 0.5719
H28? H -0.0187 -1.0851 0.6214
H32? H -0.0052 -1.1812 0.7201
C27? C 0.4424(13) -0.2104(12) 0.2904(8)
C28? C 0.4774(10) -0.4078(9) 0.2381(6)
C29? C 0.4957(14) -0.4239(15) 0.4034(7)
F13? F -0.2924(12) -0.2719(10) -0.0572(7)
F14? F -0.4215(7) -0.1615(7) 0.0586(3)
F15? F -0.3893(9) -0.0826(7) -0.0914(4)
F16? F -0.4040(12) -0.1453(7) 0.5076(5)
F17? F -0.4495(12) -0.1411(10) 0.6461(8)
F18? F -0.5357(8) -0.2640(7) 0.6081(6)
F19? F -0.0754(11) -0.5388(10) 0.1984(9)
F20? F -0.0943(11) -0.3568(10) 0.2001(8)
F21? F -0.3802(13) 0.3194(8) 0.1573(7)
F22? F -0.4084(11) 0.3629(9) 0.0103(8)
H33? H 0.4093 -0.1793 0.3493
H34? H 0.3737 -0.1539 0.2442
H35? H 0.5573 -0.2164 0.2639
H36? H 0.4751 -0.4928 0.2610
H37? H 0.5900 -0.4078 0.2100
H38? H 0.4076 -0.3648 0.1898
H39? H 0.4126 -0.4102 0.4608
H40? H 0.5876 -0.3981 0.4045
H41? H 0.5348 -0.5115 0.4018
loop_
_geom_bond_atom_site_label_1
_geom_bond_atom_site_label_2
_geom_bond_site_symmetry_1
_geom_bond_site_symmetry_2
Cu1 O1 1_555 1_555
O1 C2 1_555 1_555
C1 F1 1_555 1_555
F2 C1 1_555 1_555
F3 C1 1_555 1_555
C2 C1 1_555 1_555
C3 C2 1_555 1_555
H1 C3 1_555 1_555
C4 C3 1_555 1_555
C5 C4 1_555 1_555
F4 C5 1_555 1_555
F5 C5 1_555 1_555
F6 C5 1_555 1_555
O2 Cu1 1_555 1_555
Cu2 O3 1_555 1_555
O3 C7 1_555 1_555
C6 F7 1_555 1_555
F8 C6 1_555 1_555
F9 C6 1_555 1_555
C7 C6 1_555 1_555
C8 C7 1_555 1_555
H2 C8 1_555 1_555
C9 C8 1_555 1_555
C10 C9 1_555 1_555
F10 C10 1_555 1_555
F11 C10 1_555 1_555
F12 C10 1_555 1_555
O4 Cu2 1_555 1_555
O5 Cu1 1_555 1_555
C11 O5 1_555 1_555
C12 C11 1_555 1_555
C13 C12 1_555 1_555
H3 C13 1_555 1_555
H4 C13 1_555 1_555
H5 C13 1_555 1_555
C14 C12 1_555 1_555
H6 C14 1_555 1_555
H7 C14 1_555 1_555
H8 C14 1_555 1_555
C15 C12 1_555 1_555
H9 C15 1_555 1_555
H10 C15 1_555 1_555
H11 C15 1_555 1_555
C16 C11 1_555 1_555
C17 C16 1_555 1_555
H12 C17 1_555 1_555
N1 Cu2 1_555 1_555
N2 N1 1_555 1_555
C18 N2 1_555 1_555
H13 C18 1_555 1_555
H14 C18 1_555 1_555
H15 C18 1_555 1_555
C19 C16 1_555 1_555
H16 C19 1_555 1_555
H18 C26 1_555 1_555
H21 C25 1_555 1_555
C23 H24 1_555 1_555
C24 C23 1_555 1_555
H26 C24 1_555 1_555
C25 C24 1_555 1_555
H29 C25 1_555 1_555
C26 C25 1_555 1_555
H30 C26 1_555 1_555
H31 C26 1_555 1_555
O1A Cu1 1_555 1_555
C1A F1A 1_555 1_555
F2A C1A 1_555 1_555
F3A C1A 1_555 1_555
C2A O1A 1_555 1_555
C3A C2A 1_555 1_555
H1A C3A 1_555 1_555
C4A C3A 1_555 1_555
C5A C4A 1_555 1_555
F4A C5A 1_555 1_555
F5A C5A 1_555 1_555
F6A C5A 1_555 1_555
O2A Cu1 1_555 1_555
Cu2_2 N1A 1_555 1_555
O3A Cu2 1_555 1_555
C6A F7A 1_555 1_555
F8A C6A 1_555 1_555
F9A C6A 1_555 1_555
C7A O3A 1_555 1_555
C8A C7A 1_555 1_555
H2A C8A 1_555 1_555
C9A C8A 1_555 1_555
C10A C9A 1_555 1_555
F10A C10A 1_555 1_555
F11A C10A 1_555 1_555
F12A C10A 1_555 1_555
O4A Cu2 1_555 1_555
O5A Cu1 1_555 1_555
C11A O5A 1_555 1_555
C12A C11A 1_555 1_555
C13A C12A 1_555 1_555
H3A C13A 1_555 1_555
H4A C13A 1_555 1_555
H5A C13A 1_555 1_555
C14A C12A 1_555 1_555
H6A C14A 1_555 1_555
H7A C14A 1_555 1_555
H8A C14A 1_555 1_555
C15A C12A 1_555 1_555
H9A C15A 1_555 1_555
H10A C15A 1_555 1_555
H11A C15A 1_555 1_555
C16A C11A 1_555 1_555
C17A C16A 1_555 1_555
H12A C17A 1_555 1_555
N1A C17A 1_555 1_555
N1A_2 Cu2 1_555 1_555
N2A N1A 1_555 1_555
C18A N2A 1_555 1_555
H13A C18A 1_555 1_555
H14A C18A 1_555 1_555
H15A C18A 1_555 1_555
C19A C16A 1_555 1_555
H16A C19A 1_555 1_555
H18A C26A 1_555 1_555
H21A C25A 1_555 1_555
H24A C23 1_555 1_555
C24A C23 1_555 1_555
H26A C24A 1_555 1_555
C25A C24A 1_555 1_555
H29A C25A 1_555 1_555
C26A C25A 1_555 1_555
H30A C26A 1_555 1_555
H31A C26A 1_555 1_555
C4 O2 1_555 1_555
C9 O4 1_555 1_555
C17 N1 1_555 1_555
N2 C19 1_555 1_555
C1A C2A 1_555 1_555
C4A O2A 1_555 1_555
C6A C7A 1_555 1_555
C9A O4A 1_555 1_555
N2A C19A 1_555 1_555

#END
