
#######################################################################
#
#                 Cambridge Crystallographic Data Centre
#                                CCDC 
#
#######################################################################
#
# If this CIF has been generated from an entry in the Cambridge 
# Structural Database, then it will include bibliographic, chemical, 
# crystal, experimental, refinement or atomic coordinate data resulting 
# from the CCDC's data processing and validation procedures.
#
#######################################################################

data_HECXOD
_symmetry_cell_setting           monoclinic
_symmetry_space_group_name_H-M   'P 21/c'
_symmetry_Int_Tables_number      14
_space_group_name_Hall           '-P 2ybc'
loop_
_symmetry_equiv_pos_site_id
_symmetry_equiv_pos_as_xyz
1 x,y,z
2 -x,1/2+y,1/2-z
3 -x,-y,-z
4 x,1/2-y,1/2+z
_cell_length_a                   7.513(4)
_cell_length_b                   17.438(7)
_cell_length_c                   8.404(4)
_cell_angle_alpha                90
_cell_angle_beta                 94.53(4)
_cell_angle_gamma                90
_cell_volume                     1097.58
loop_
_atom_site_label
_atom_site_type_symbol
_atom_site_fract_x
_atom_site_fract_y
_atom_site_fract_z
Mn1 Mn 0.5000 0.5000 0.5000
Mn2 Mn 1.0000 0.5000 0.0000
O1 O 0.7247(3) 0.57133(14) 0.5818(3)
H1 H 0.8198(34) 0.5536(21) 0.6206(53)
H2 H 0.7432(52) 0.6156(12) 0.5540(53)
N1 N 0.6842(4) 0.4363(2) 0.3446(4)
N2 N 0.8148(4) 0.4629(2) 0.2997(3)
N3 N 0.9489(4) 0.4887(2) 0.2550(4)
N4 N 0.5700(4) 0.4211(2) 0.6984(4)
N5 N 0.6526(4) 0.4386(2) 0.8178(4)
N6 N 0.7326(4) 0.4532(2) 0.9410(4)
N7 N 0.8921(4) 0.6231(2) -0.0184(3)
C1 C 0.9953(4) 0.6788(2) -0.0721(4)
H3 H 1.1020 0.6654 -0.1137
C2 C 0.9481(4) 0.7556(2) -0.0675(4)
N8 N 0.7935(4) 0.7768(2) -0.0102(4)
C3 C 0.6854(5) 0.7215(2) 0.0393(4)
C4 C 0.7371(5) 0.6447(2) 0.0354(4)
H4 H 0.6614 0.6074 0.0714
C5 C 1.0671(5) 0.8175(2) -0.1230(5)
H5 H 1.1448 0.7964 -0.1970
H6 H 1.1372 0.8385 -0.0329
H7 H 0.9954 0.8573 -0.1745
C6 C 0.5112(5) 0.7455(2) 0.0999(6)
H8 H 0.4823 0.7116 0.1842
H9 H 0.4187 0.7431 0.0144
H10 H 0.5212 0.7970 0.1398
Mn2_2 Mn 1.0000 0.5000 1.0000
Mn2_3 Mn 0.0000 0.5000 1.0000
Mn2_4 Mn 0.0000 0.5000 0.0000
O1B O 0.2753(3) 0.42867(14) 0.4182(3)
H1B H 0.1802(34) 0.4464(21) 0.3794(53)
H2B H 0.2568(52) 0.3844(12) 0.4460(53)
N1B N 0.3158(4) 0.5637(2) 0.6554(4)
N2B N 0.1852(4) 0.5371(2) 0.7003(3)
N3B N 0.0511(4) 0.5113(2) 0.7450(4)
N3B_2 N 1.0511(4) 0.5113(2) -0.2550(4)
N4B N 0.4300(4) 0.5789(2) 0.3016(4)
N5B N 0.3474(4) 0.5614(2) 0.1822(4)
N6B N 0.2674(4) 0.5468(2) 0.0590(4)
N6_2 N 0.7326(4) 0.4532(2) -0.0590(4)
N6B_2 N 1.2674(4) 0.5468(2) 0.0590(4)
N7B N 1.1079(4) 0.3769(2) 0.0184(3)
C1B C 1.0047(4) 0.3212(2) 0.0721(4)
H3B H 0.8980 0.3346 0.1137
C2B C 1.0519(4) 0.2444(2) 0.0675(4)
N8B N 1.2065(4) 0.2232(2) 0.0102(4)
C3B C 1.3146(5) 0.2785(2) -0.0393(4)
C4B C 1.2629(5) 0.3553(2) -0.0354(4)
H4B H 1.3386 0.3926 -0.0714
C5B C 0.9329(5) 0.1825(2) 0.1230(5)
H5B H 0.8552 0.2036 0.1970
H6B H 0.8628 0.1615 0.0329
H7B H 1.0046 0.1427 0.1745
C6B C 1.4888(5) 0.2545(2) -0.0999(6)
H8B H 1.5177 0.2884 -0.1842
H9B H 1.5813 0.2569 -0.0144
H10B H 1.4788 0.2030 -0.1398
loop_
_geom_bond_atom_site_label_1
_geom_bond_atom_site_label_2
_geom_bond_site_symmetry_1
_geom_bond_site_symmetry_2
Mn1 O1 1_555 1_555
Mn2 N3 1_555 1_555
O1 H1 1_555 1_555
H2 O1 1_555 1_555
N1 Mn1 1_555 1_555
N2 N1 1_555 1_555
N3 N2 1_555 1_555
N4 Mn1 1_555 1_555
N5 N4 1_555 1_555
N6 N5 1_555 1_555
N7 Mn2 1_555 1_555
C1 N7 1_555 1_555
H3 C1 1_555 1_555
C2 C1 1_555 1_555
N8 C2 1_555 1_555
C3 N8 1_555 1_555
C4 N7 1_555 1_555
H4 C4 1_555 1_555
C5 C2 1_555 1_555
H5 C5 1_555 1_555
H6 C5 1_555 1_555
H7 C5 1_555 1_555
C6 C3 1_555 1_555
H8 C6 1_555 1_555
H9 C6 1_555 1_555
H10 C6 1_555 1_555
Mn2_2 N6 1_555 1_555
Mn2_3 N3B 1_555 1_555
Mn2_4 N6B 1_555 1_555
O1B Mn1 1_555 1_555
H1B O1B 1_555 1_555
H2B O1B 1_555 1_555
N1B Mn1 1_555 1_555
N2B N1B 1_555 1_555
N3B N2B 1_555 1_555
N3B_2 Mn2 1_555 1_555
N4B Mn1 1_555 1_555
N5B N4B 1_555 1_555
N6B N5B 1_555 1_555
N6_2 Mn2 1_555 1_555
N6B_2 Mn2 1_555 1_555
N7B Mn2 1_555 1_555
C1B N7B 1_555 1_555
H3B C1B 1_555 1_555
C2B C1B 1_555 1_555
N8B C2B 1_555 1_555
C3B N8B 1_555 1_555
C4B N7B 1_555 1_555
H4B C4B 1_555 1_555
C5B C2B 1_555 1_555
H5B C5B 1_555 1_555
H6B C5B 1_555 1_555
H7B C5B 1_555 1_555
C6B C3B 1_555 1_555
H8B C6B 1_555 1_555
H9B C6B 1_555 1_555
H10B C6B 1_555 1_555
C3 C4 1_555 1_555
C3B C4B 1_555 1_555

#END
