
#######################################################################
#
#                 Cambridge Crystallographic Data Centre
#                                CCDC 
#
#######################################################################
#
# If this CIF has been generated from an entry in the Cambridge 
# Structural Database, then it will include bibliographic, chemical, 
# crystal, experimental, refinement or atomic coordinate data resulting 
# from the CCDC's data processing and validation procedures.
#
#######################################################################

data_HECXET
_symmetry_cell_setting           triclinic
_symmetry_space_group_name_H-M   'P -1'
_symmetry_Int_Tables_number      2
_space_group_name_Hall           '-P 1'
loop_
_symmetry_equiv_pos_site_id
_symmetry_equiv_pos_as_xyz
1 x,y,z
2 -x,-y,-z
_cell_length_a                   7.386(2)
_cell_length_b                   8.434(2)
_cell_length_c                   9.442(3)
_cell_angle_alpha                71.82(2)
_cell_angle_beta                 72.08(2)
_cell_angle_gamma                88.54(2)
_cell_volume                     530.084
loop_
_atom_site_label
_atom_site_type_symbol
_atom_site_fract_x
_atom_site_fract_y
_atom_site_fract_z
Mn1 Mn 0.0000 0.5000 0.5000
Mn2 Mn 0.5000 0.0000 0.5000
N1 N 0.2215(2) 0.3922(2) 0.6043(2)
N2 N 0.2821(2) 0.2599(2) 0.63362(14)
N3 N 0.3424(2) 0.1280(2) 0.6685(2)
N4 N -0.0030(2) 0.2896(2) 0.4084(2)
N5 N -0.1469(2) 0.25229(15) 0.39084(15)
N6 N -0.2861(2) 0.2189(2) 0.3698(2)
N7 N 0.2442(2) 0.6448(2) 0.27817(15)
C1 C 0.4158(2) 0.5869(2) 0.2319(2)
H1 H 0.4499 0.4960 0.3019
C2 C 0.5447(2) 0.6593(2) 0.0816(2)
N8 N 0.4973(2) 0.7874(2) -0.0233(2)
C3 C 0.3281(2) 0.8479(2) 0.0245(2)
H2 H 0.2929 0.9381 -0.0455
C4 C 0.2043(2) 0.7794(2) 0.1754(2)
H3 H 0.0906 0.8280 0.2062
C5 C 0.7394(2) 0.5988(2) 0.0312(2)
H4 H 0.7477 0.5509 -0.0514
H5 H 0.7586 0.5114 0.1194
C6 C 0.8958(2) 0.7398(2) -0.0283(2)
H6 H 1.0183 0.6956 -0.0544
H7 H 0.8854 0.7898 0.0521
H8 H 0.8823 0.8228 -0.1200
O1 O 0.3257(2) 0.1039(2) 0.35074(13)
H9 H 0.3758(35) 0.1407(31) 0.2509(20)
H10 H 0.2240(27) 0.1465(30) 0.3753(31)
Mn2_2 Mn -0.5000 0.0000 0.5000
Mn2_3 Mn -0.5000 1.0000 0.5000
Mn2_4 Mn 0.5000 1.0000 0.5000
N1A N -0.2215(2) 0.6078(2) 0.3957(2)
N2A N -0.2821(2) 0.7401(2) 0.36638(14)
N3A N -0.3424(2) 0.8720(2) 0.3315(2)
N3A_2 N 0.6576(2) -0.1280(2) 0.3315(2)
N4A N 0.0030(2) 0.7104(2) 0.5916(2)
N5A N 0.1469(2) 0.74771(15) 0.60916(15)
N6A N 0.2861(2) 0.7811(2) 0.6302(2)
N6_2 N 0.7139(2) 0.2189(2) 0.3698(2)
N6A_2 N 0.2861(2) -0.2189(2) 0.6302(2)
N7A N -0.2442(2) 0.3552(2) 0.72183(15)
C1A C -0.4158(2) 0.4131(2) 0.7681(2)
H1A H -0.4499 0.5040 0.6981
C2A C -0.5447(2) 0.3407(2) 0.9184(2)
N8A N -0.4973(2) 0.2126(2) 1.0233(2)
C3A C -0.3281(2) 0.1521(2) 0.9755(2)
H2A H -0.2929 0.0619 1.0455
C4A C -0.2043(2) 0.2206(2) 0.8246(2)
H3A H -0.0906 0.1720 0.7938
C5A C -0.7394(2) 0.4012(2) 0.9688(2)
H4A H -0.7477 0.4491 1.0514
H5A H -0.7586 0.4886 0.8806
C6A C -0.8958(2) 0.2602(2) 1.0283(2)
H6A H -1.0183 0.3044 1.0544
H7A H -0.8854 0.2102 0.9479
H8A H -0.8823 0.1772 1.1200
O1A O 0.6743(2) -0.1039(2) 0.64926(13)
H9A H 0.6242(35) -0.1407(31) 0.7491(20)
H10A H 0.7760(27) -0.1465(30) 0.6247(31)
loop_
_geom_bond_atom_site_label_1
_geom_bond_atom_site_label_2
_geom_bond_site_symmetry_1
_geom_bond_site_symmetry_2
Mn1 N1 1_555 1_555
Mn2 N3 1_555 1_555
N1 N2 1_555 1_555
N2 N3 1_555 1_555
N4 Mn1 1_555 1_555
N5 N4 1_555 1_555
N6 N5 1_555 1_555
N7 Mn1 1_555 1_555
C1 N7 1_555 1_555
H1 C1 1_555 1_555
C2 C1 1_555 1_555
N8 C2 1_555 1_555
C3 N8 1_555 1_555
H2 C3 1_555 1_555
C4 N7 1_555 1_555
H3 C4 1_555 1_555
C5 C2 1_555 1_555
H4 C5 1_555 1_555
H5 C5 1_555 1_555
C6 C5 1_555 1_555
H6 C6 1_555 1_555
H7 C6 1_555 1_555
H8 C6 1_555 1_555
O1 Mn2 1_555 1_555
H9 O1 1_555 1_555
H10 O1 1_555 1_555
Mn2_2 N6 1_555 1_555
Mn2_3 N3A 1_555 1_555
Mn2_4 N6A 1_555 1_555
N1A Mn1 1_555 1_555
N2A N1A 1_555 1_555
N3A N2A 1_555 1_555
N3A_2 Mn2 1_555 1_555
N4A Mn1 1_555 1_555
N5A N4A 1_555 1_555
N6A N5A 1_555 1_555
N6_2 Mn2 1_555 1_555
N6A_2 Mn2 1_555 1_555
N7A Mn1 1_555 1_555
C1A N7A 1_555 1_555
H1A C1A 1_555 1_555
C2A C1A 1_555 1_555
N8A C2A 1_555 1_555
C3A N8A 1_555 1_555
H2A C3A 1_555 1_555
C4A N7A 1_555 1_555
H3A C4A 1_555 1_555
C5A C2A 1_555 1_555
H4A C5A 1_555 1_555
H5A C5A 1_555 1_555
C6A C5A 1_555 1_555
H6A C6A 1_555 1_555
H7A C6A 1_555 1_555
H8A C6A 1_555 1_555
O1A Mn2 1_555 1_555
H9A O1A 1_555 1_555
H10A O1A 1_555 1_555
C3 C4 1_555 1_555
C3A C4A 1_555 1_555

#END
