
#######################################################################
#
#                 Cambridge Crystallographic Data Centre
#                                CCDC 
#
#######################################################################
#
# If this CIF has been generated from an entry in the Cambridge 
# Structural Database, then it will include bibliographic, chemical, 
# crystal, experimental, refinement or atomic coordinate data resulting 
# from the CCDC's data processing and validation procedures.
#
#######################################################################

data_HECXIX
_symmetry_cell_setting           orthorhombic
_symmetry_space_group_name_H-M   'P b c a'
_symmetry_Int_Tables_number      61
_space_group_name_Hall           '-P 2ac 2ab'
loop_
_symmetry_equiv_pos_site_id
_symmetry_equiv_pos_as_xyz
1 x,y,z
2 1/2-x,-y,1/2+z
3 1/2+x,1/2-y,-z
4 -x,1/2+y,1/2-z
5 -x,-y,-z
6 1/2+x,y,1/2-z
7 1/2-x,1/2+y,z
8 x,1/2-y,1/2+z
_cell_length_a                   8.521(2)
_cell_length_b                   13.787(3)
_cell_length_c                   26.237(5)
_cell_angle_alpha                90
_cell_angle_beta                 90
_cell_angle_gamma                90
_cell_volume                     3082.3
loop_
_atom_site_label
_atom_site_type_symbol
_atom_site_fract_x
_atom_site_fract_y
_atom_site_fract_z
Mn1 Mn 0.38688(13) 0.10490(8) 0.49873(4)
N1 N 0.6276(7) 0.0487(4) 0.4795(2)
N2 N 0.7192(7) 0.0874(4) 0.4498(2)
N3 N 0.8010(8) 0.1232(5) 0.4215(3)
N4 N 0.1417(7) 0.1313(4) 0.5213(2)
N5 N 0.0430(7) 0.1934(4) 0.5265(2)
N6 N -0.0525(7) 0.2524(4) 0.5333(2)
N7 N 0.2943(7) 0.0626(4) 0.4195(2)
C1 C 0.3876(9) 0.0632(5) 0.3789(3)
H1 H 0.4914 0.0828 0.3825
C2 C 0.3333(9) 0.0351(5) 0.3314(3)
N8 N 0.1816(7) 0.0083(4) 0.3236(2)
C3 C 0.0890(10) 0.0077(6) 0.3647(3)
H2 H -0.0161 -0.0088 0.3607
C4 C 0.1445(9) 0.0309(5) 0.4134(3)
H3 H 0.0789 0.0246 0.4416
I1 I 0.48827(6) 0.02761(3) 0.26955(2)
N9 N 0.4619(7) 0.1565(4) 0.5783(2)
C5 C 0.3635(9) 0.1671(5) 0.6168(3)
H4 H 0.2594 0.1485 0.6126
C6 C 0.4108(9) 0.2052(5) 0.6634(3)
N10 N 0.5620(7) 0.2294(4) 0.6730(2)
C7 C 0.6584(9) 0.2182(5) 0.6346(3)
H5 H 0.7632 0.2346 0.6394
C8 C 0.6141(9) 0.1834(5) 0.5876(3)
H6 H 0.6884 0.1782 0.5617
I2 I 0.24501(6) 0.22138(4) 0.72216(2)
Mn1D Mn 0.61312(13) -0.10490(8) 0.50127(4)
Mn1B Mn -0.11312(13) 0.39510(8) 0.50127(4)
N1D N 0.3724(7) -0.0487(4) 0.5205(2)
N6B N 0.4475(7) 0.2476(4) 0.4667(2)
loop_
_geom_bond_atom_site_label_1
_geom_bond_atom_site_label_2
_geom_bond_site_symmetry_1
_geom_bond_site_symmetry_2
Mn1 N1 1_555 1_555
N1 N2 1_555 1_555
N2 N3 1_555 1_555
N4 Mn1 1_555 1_555
N5 N4 1_555 1_555
N6 N5 1_555 1_555
N7 Mn1 1_555 1_555
C1 N7 1_555 1_555
H1 C1 1_555 1_555
C2 C1 1_555 1_555
N8 C2 1_555 1_555
C3 N8 1_555 1_555
H2 C3 1_555 1_555
C4 N7 1_555 1_555
H3 C4 1_555 1_555
I1 C2 1_555 1_555
N9 Mn1 1_555 1_555
C5 N9 1_555 1_555
H4 C5 1_555 1_555
C6 C5 1_555 1_555
N10 C6 1_555 1_555
C7 N10 1_555 1_555
H5 C7 1_555 1_555
C8 N9 1_555 1_555
H6 C8 1_555 1_555
I2 C6 1_555 1_555
Mn1D N1 1_555 1_555
Mn1B N6 1_555 1_555
N1D Mn1 1_555 1_555
N6B Mn1 1_555 1_555
C3 C4 1_555 1_555
C7 C8 1_555 1_555
Mn1D N1D 1_555 1_555

#END
