
#######################################################################
#
#                 Cambridge Crystallographic Data Centre
#                                CCDC 
#
#######################################################################
#
# If this CIF has been generated from an entry in the Cambridge 
# Structural Database, then it will include bibliographic, chemical, 
# crystal, experimental, refinement or atomic coordinate data resulting 
# from the CCDC's data processing and validation procedures.
#
#######################################################################

data_HECYIX
_symmetry_cell_setting           triclinic
_symmetry_space_group_name_H-M   'P -1'
_symmetry_Int_Tables_number      2
_space_group_name_Hall           '-P 1'
loop_
_symmetry_equiv_pos_site_id
_symmetry_equiv_pos_as_xyz
1 x,y,z
2 -x,-y,-z
_cell_length_a                   9.757(2)
_cell_length_b                   11.593(3)
_cell_length_c                   8.124(2)
_cell_angle_alpha                110.23(2)
_cell_angle_beta                 101.20(2)
_cell_angle_gamma                74.98(2)
_cell_volume                     827.216
loop_
_atom_site_label
_atom_site_type_symbol
_atom_site_fract_x
_atom_site_fract_y
_atom_site_fract_z
Cu1 Cu 0.65215(8) 0.12149(6) 0.45611(8)
Cu2 Cu 0.14757(6) 0.28372(6) -0.02548(9)
S1 S 0.8948(1) 0.2229(1) 0.7005(2)
S2 S 0.4036(1) 0.1686(1) 0.1821(2)
O1 O 0.4615(3) 0.1396(3) 0.5853(4)
O2 O 0.5751(4) 0.1412(4) 0.8435(5)
O3 O 0.3946(4) 0.0518(3) 0.7468(4)
O4 O -0.0441(4) 0.4186(3) 0.0833(4)
O5 O 0.0787(5) 0.5055(4) 0.3257(5)
O6 O -0.1139(4) 0.6167(3) 0.2309(5)
N1 N 0.4786(4) 0.1106(3) 0.7258(5)
N2 N 0.3279(4) 0.2886(3) 0.1156(5)
N3 N 0.5423(4) 0.2199(3) 0.3021(5)
N4 N 0.8236(4) 0.1005(3) 0.6112(5)
N5 N 1.0327(4) 0.1640(3) 0.8160(5)
N6 N -0.0248(4) 0.5129(4) 0.2146(5)
C1 C 0.9076(4) 0.0054(4) 0.6687(6)
C2 C 0.8833(5) -0.1167(4) 0.6250(6)
C3 C 0.9798(5) -0.1979(5) 0.7011(7)
C4 C 1.1001(5) -0.1612(4) 0.8185(6)
C5 C 1.1286(5) -0.0439(4) 0.8614(6)
C6 C 1.0285(4) 0.0425(4) 0.7872(5)
C7 C 0.4117(5) 0.3746(4) 0.1813(5)
C8 C 0.5363(4) 0.3346(4) 0.2883(5)
C9 C 0.6380(5) 0.4122(4) 0.3679(6)
C10 C 0.6104(6) 0.5250(5) 0.3375(6)
C11 C 0.4850(6) 0.5638(4) 0.2305(7)
C12 C 0.3849(5) 0.4926(4) 0.1530(6)
H1 H 0.9629 -0.2873 0.6709
H2 H 0.8022 -0.1366 0.5434
H3 H 0.6804 0.5847 0.3746
H4 H 1.2229 -0.0166 0.9426
H5 H 1.1672 -0.2259 0.8704
H6 H 0.4932 0.6490 0.2380
H7 H 0.2926 0.5150 0.0702
H8 H 0.7236 0.3794 0.4210
O3A O 0.6054(4) -0.0518(3) 0.2532(4)
O6A O 0.1139(4) 0.3833(3) -0.2309(5)
N5_2 N 0.0327(4) 0.1640(3) -0.1840(5)
Cu1A Cu 0.34785(8) -0.12149(6) 0.54389(8)
Cu2A Cu -0.14757(6) 0.71628(6) 0.02548(9)
Cu2_2 Cu 1.14757(6) 0.28372(6) 0.97452(9)
loop_
_geom_bond_atom_site_label_1
_geom_bond_atom_site_label_2
_geom_bond_site_symmetry_1
_geom_bond_site_symmetry_2
Cu1 O1 1_555 1_555
Cu2 O4 1_555 1_555
S1 N4 1_555 1_555
S2 N2 1_555 1_555
O1 N1 1_555 1_555
O2 N1 1_555 1_555
O3 N1 1_555 1_555
O4 N6 1_555 1_555
O5 N6 1_555 1_555
O6 N6 1_555 1_555
N2 Cu2 1_555 1_555
N3 Cu1 1_555 1_555
N4 Cu1 1_555 1_555
N5 S1 1_555 1_555
C1 N4 1_555 1_555
C2 C1 1_555 1_555
C3 C2 1_555 1_555
C4 C3 1_555 1_555
C5 C4 1_555 1_555
C6 N5 1_555 1_555
C7 N2 1_555 1_555
C8 N3 1_555 1_555
C9 C8 1_555 1_555
C10 C9 1_555 1_555
C11 C10 1_555 1_555
C12 C7 1_555 1_555
H1 C3 1_555 1_555
H2 C2 1_555 1_555
H3 C10 1_555 1_555
H4 C5 1_555 1_555
H5 C4 1_555 1_555
H6 C11 1_555 1_555
H7 C12 1_555 1_555
H8 C9 1_555 1_555
O3A Cu1 1_555 1_555
O6A Cu2 1_555 1_555
N5_2 Cu2 1_555 1_555
Cu1A O3 1_555 1_555
Cu2A O6 1_555 1_555
Cu2_2 N5 1_555 1_555
S2 N3 1_555 1_555
C1 C6 1_555 1_555
C5 C6 1_555 1_555
C7 C8 1_555 1_555
C11 C12 1_555 1_555

#END
