
#######################################################################
#
#                 Cambridge Crystallographic Data Centre
#                                CCDC 
#
#######################################################################
#
# If this CIF has been generated from an entry in the Cambridge 
# Structural Database, then it will include bibliographic, chemical, 
# crystal, experimental, refinement or atomic coordinate data resulting 
# from the CCDC's data processing and validation procedures.
#
#######################################################################

data_HECYET
_symmetry_cell_setting           monoclinic
_symmetry_space_group_name_H-M   'P 21/a'
_symmetry_Int_Tables_number      14
_space_group_name_Hall           '-P 2yab'
loop_
_symmetry_equiv_pos_site_id
_symmetry_equiv_pos_as_xyz
1 x,y,z
2 1/2-x,1/2+y,-z
3 -x,-y,-z
4 1/2+x,1/2-y,z
_cell_length_a                   16.576(2)
_cell_length_b                   10.711(2)
_cell_length_c                   11.001(1)
_cell_angle_alpha                90
_cell_angle_beta                 101.29(1)
_cell_angle_gamma                90
_cell_volume                     1915.38
loop_
_atom_site_label
_atom_site_type_symbol
_atom_site_fract_x
_atom_site_fract_y
_atom_site_fract_z
Cu1 Cu -0.23443(6) 0.01745(8) 0.16254(7)
Cu2 Cu -0.26246(5) 0.25681(7) 0.33821(7)
S1 S -0.2731(1) -0.1153(2) -0.0922(1)
S2 S -0.2649(1) -0.1040(2) 0.4113(1)
P1 P -0.4139(1) 0.1240(2) 0.1462(1)
P2 P -0.0790(1) 0.1405(2) 0.3646(2)
F1 F -0.4109(3) 0.2479(4) 0.0717(4)
F2 F -0.0700(3) 0.0260(5) 0.4447(5)
O1 O -0.3314(2) 0.1135(4) 0.2276(4)
O2 O -0.4297(3) 0.0236(5) 0.0474(5)
O3 O -0.4843(3) 0.1386(5) 0.2110(5)
O4 O -0.1604(3) 0.1582(4) 0.2826(4)
O5 O -0.0781(4) 0.2527(5) 0.4644(5)
O6 O -0.0064(3) 0.1683(7) 0.3161(7)
N1 N -0.2231(3) -0.0047(6) -0.0085(4)
N2 N -0.2366(3) -0.0975(5) -0.2163(4)
N3 N -0.2192(3) -0.2192(5) 0.4935(4)
N4 N -0.2297(3) -0.1264(5) 0.2860(4)
C1 C -0.1832(4) -0.0005(5) -0.1975(5)
C2 C -0.1388(4) 0.0494(7) -0.2837(6)
C3 C -0.08915 0.1468(8) -0.2463(7)
C4 C -0.0801(5) 0.1994(8) -0.1266(7)
C5 C -0.1208(5) 0.1529(7) -0.0407(6)
C6 C -0.1750(4) 0.0530(8) -0.0767(5)
C7 C -0.1803(4) -0.2269(5) 0.3037(5)
C8 C -0.1380(4) -0.2815(6) 0.2170(6)
C9 C -0.0920(4) -0.3844(7) 0.2519(6)
C10 C -0.0842(4) -0.4351(6) 0.3739(6)
C11 C -0.1230(4) -0.3852(6) 0.4593(6)
C12 C -0.1734(3) -0.2803(5) 0.4253(5)
H1 H -0.138(4) 0.007(6) -0.359(6)
H2 H -0.059(5) 0.168(8) -0.292(7)
H3 H -0.044(5) 0.268(7) -0.100(7)
H4 H -0.109(4) 0.181(7) 0.040(7)
H5 H -0.142(4) -0.246(6) 0.145(6)
H6 H -0.065(4) -0.423(7) 0.200(6)
H7 H -0.059(4) -0.505(6) 0.401(6)
H8 H -0.112(4) -0.419(6) 0.526(6)
N2A N -0.2634(3) 0.4025(5) 0.2163(4)
Cu2A Cu -0.23754(5) -0.24319(7) -0.33821(7)
N3A N -0.2808(3) 0.2808(5) 0.5065(4)
Cu2A_2 Cu -0.23754(5) -0.24319(7) 0.66179(7)
loop_
_geom_bond_atom_site_label_1
_geom_bond_atom_site_label_2
_geom_bond_site_symmetry_1
_geom_bond_site_symmetry_2
Cu1 O1 1_555 1_555
Cu2 O1 1_555 1_555
S1 N1 1_555 1_555
S2 N3 1_555 1_555
P1 F1 1_555 1_555
P2 F2 1_555 1_555
O1 P1 1_555 1_555
O2 P1 1_555 1_555
O3 P1 1_555 1_555
O4 Cu1 1_555 1_555
O5 P2 1_555 1_555
O6 P2 1_555 1_555
N1 Cu1 1_555 1_555
N2 S1 1_555 1_555
N3 C12 1_555 1_555
N4 Cu1 1_555 1_555
C1 N2 1_555 1_555
C2 C1 1_555 1_555
C3 C2 1_555 1_555
C4 C3 1_555 1_555
C5 C4 1_555 1_555
C6 N1 1_555 1_555
C7 N4 1_555 1_555
C8 C7 1_555 1_555
C9 C8 1_555 1_555
C10 C9 1_555 1_555
C11 C10 1_555 1_555
C12 C7 1_555 1_555
H1 C2 1_555 1_555
H2 C3 1_555 1_555
H3 C4 1_555 1_555
H4 C5 1_555 1_555
H5 C8 1_555 1_555
H6 C9 1_555 1_555
H7 C10 1_555 1_555
H8 C11 1_555 1_555
N2A Cu2 1_555 1_555
Cu2A N2 1_555 1_555
N3A Cu2 1_555 1_555
Cu2A_2 N3 1_555 1_555
Cu2 O4 1_555 1_555
S2 N4 1_555 1_555
P2 O4 1_555 1_555
C1 C6 1_555 1_555
C5 C6 1_555 1_555
C11 C12 1_555 1_555

#END
