
#######################################################################
#
#                 Cambridge Crystallographic Data Centre
#                                CCDC 
#
#######################################################################
#
# If this CIF has been generated from an entry in the Cambridge 
# Structural Database, then it will include bibliographic, chemical, 
# crystal, experimental, refinement or atomic coordinate data resulting 
# from the CCDC's data processing and validation procedures.
#
#######################################################################

data_HECYAP
_symmetry_cell_setting           monoclinic
_symmetry_space_group_name_H-M   'P 21/a'
_symmetry_Int_Tables_number      14
_space_group_name_Hall           '-P 2yab'
loop_
_symmetry_equiv_pos_site_id
_symmetry_equiv_pos_as_xyz
1 x,y,z
2 1/2-x,1/2+y,-z
3 -x,-y,-z
4 1/2+x,1/2-y,z
_cell_length_a                   17.817(2)
_cell_length_b                   11.220(2)
_cell_length_c                   18.186(3)
_cell_angle_alpha                90
_cell_angle_beta                 110.36(1)
_cell_angle_gamma                90
_cell_volume                     3408.38
loop_
_atom_site_label
_atom_site_type_symbol
_atom_site_fract_x
_atom_site_fract_y
_atom_site_fract_z
Cu1 Cu 0.09577(4) 0.04395(7) 0.32192(5)
Cu2 Cu -0.26130(4) -0.03892(7) 0.29241(5)
Cl1 Cl 0.2699(1) 0.0333(2) 0.4852(1)
S1 S 0.1564(1) -0.2228(1) 0.3253(1)
S2 S -0.0889(1) 0.0472(1) 0.2956(1)
S3 S 0.1837(1) 0.2904(1) 0.3350(1)
O5 O 0.1912(3) 0.0764(5) 0.4388(3)
O6 O 0.2827(6) 0.054(1) 0.5671(4)
O7 O 0.2836(8) -0.085(1) 0.4725(7)
O8 O 0.3223(7) 0.108(1) 0.464(1)
N1 N -0.1415(3) -0.0319(4) 0.3345(3)
N2 N -0.0001(3) 0.0036(4) 0.3512(3)
N3 N 0.1086(3) 0.2071(4) 0.2853(3)
N4 N 0.1614(3) 0.4073(4) 0.2798(3)
N5 N 0.1457(3) -0.0934(4) 0.2841(3)
N6 N 0.1953(3) -0.2941(4) 0.2693(3)
C1 C -0.0896(3) -0.0950(5) 0.3940(3)
C2 C -0.0080(3) -0.0747(5) 0.4031(3)
C3 C 0.0543(4) -0.1336(6) 0.4633(4)
C4 C 0.0318(4) -0.2083(6) 0.5109(4)
C5 C -0.0499(4) -0.2287(6) 0.5015(4)
C6 C -0.1108(4) -0.1747(6) 0.4445(4)
C7 C 0.0627(3) 0.2702(5) 0.2235(4)
C8 C 0.0927(3) 0.3862(5) 0.2203(4)
C9 C 0.0523(4) 0.4656(6) 0.1594(4)
C10 C -0.0164(4) 0.4266(7) 0.1052(4)
C11 C -0.0477(4) 0.3106(7) 0.1083(4)
C12 C -0.0092(4) 0.2335(8) 0.1652(4)
C13 C 0.1999(3) -0.2176(5) 0.2148(4)
C14 C 0.2294(4) -0.2420(6) 0.1537(4)
C15 C 0.2306(5) -0.1508(8) 0.1049(4)
C16 C 0.2054(5) -0.0345(7) 0.1146(5)
C17 C 0.1750(4) -0.0068(6) 0.1723(4)
C18 C 0.1728(3) -0.1007(5) 0.2234(4)
H1 H 0.1141 -0.111 0.4675
H2 H -0.1751 -0.1968 0.4359
H3 H -0.0697 -0.2892 0.5355
H4 H 0.0741 -0.2526 0.5527
H5 H 0.0731 0.5448 0.1565
H6 H -0.0459 0.4805 0.0634
H7 H -0.0977 0.2861 0.0678
H8 H -0.0304 0.1541 0.1671
H9 H 0.2481 -0.3219 0.1471
H10 H 0.2490 -0.1677 0.0613
H11 H 0.2104 0.0283 0.0799
H12 H 0.1567 0.0733 0.1787
N4C N -0.3386(3) 0.0927(4) 0.2798(3)
N6C N -0.3047(3) -0.2059(4) 0.2693(3)
Cu2C Cu 0.23870(4) 0.53892(7) 0.29241(5)
Cu2C_2 Cu 0.23870(4) -0.46108(7) 0.29241(5)
Cl2 Cl -0.2655(1) 0.1215(2) 0.1097(1)
O1 O -0.2452(3) 0.0329(5) 0.1686(3)
O2 O -0.1991(4) 0.1496(7) 0.0899(4)
O3 O -0.3217(4) 0.0739(8) 0.0441(4)
O4 O -0.2988(6) 0.2183(6) 0.1347(6)
O9 O 0.4934(5) 0.2575(6) 0.8553(5)
C19 C 0.4985(7) 0.272(1) 0.9363(6)
C20 C 0.5487(7) 0.378(1) 0.9606(8)
C21 C 0.6043(8) 0.368(1) 0.917(1)
C22 C 0.5567(7) 0.321(2) 0.8432(7)
O10 O 0.4693(5) 0.1187(6) 0.3341(4)
C23 C 0.5079(6) 0.014(1) 0.3740(6)
C24 C 0.4710(7) -0.085(1) 0.3272(8)
C25 C 0.3860(7) -0.043(1) 0.2862(9)
C26 C 0.3889(8) 0.090(1) 0.2885(8)
O11? O 0.304(1) 0.097(2) 0.545(1)
O12? O 0.320(2) 0.030(3) 0.444(2)
O13? O 0.256(2) -0.086(3) 0.497(2)
loop_
_geom_bond_atom_site_label_1
_geom_bond_atom_site_label_2
_geom_bond_site_symmetry_1
_geom_bond_site_symmetry_2
Cu1 O5 1_555 1_555
Cu2 N1 1_555 1_555
Cl1 O5 1_555 1_555
Cl2 O1 1_555 1_555
S1 N5 1_555 1_555
S2 N1 1_555 1_555
S3 N3 1_555 1_555
O2 Cl2 1_555 1_555
O3 Cl2 1_555 1_555
O4 Cl2 1_555 1_555
O6 Cl1 1_555 1_555
O7 Cl1 1_555 1_555
O8 Cl1 1_555 1_555
O9 C19 1_555 1_555
O10 C23 1_555 1_555
N1 C1 1_555 1_555
N2 Cu1 1_555 1_555
N3 Cu1 1_555 1_555
N4 S3 1_555 1_555
N5 Cu1 1_555 1_555
N6 S1 1_555 1_555
C1 C2 1_555 1_555
C2 N2 1_555 1_555
C3 C2 1_555 1_555
C4 C3 1_555 1_555
C5 C4 1_555 1_555
C6 C1 1_555 1_555
C7 N3 1_555 1_555
C8 N4 1_555 1_555
C9 C8 1_555 1_555
C10 C9 1_555 1_555
C11 C10 1_555 1_555
C12 C7 1_555 1_555
C13 N6 1_555 1_555
C14 C13 1_555 1_555
C15 C14 1_555 1_555
C16 C15 1_555 1_555
C17 C16 1_555 1_555
C18 N5 1_555 1_555
C19 C20 1_555 1_555
C20 C21 1_555 1_555
C21 C22 1_555 1_555
C22 O9 1_555 1_555
C23 C24 1_555 1_555
C24 C25 1_555 1_555
C25 C26 1_555 1_555
C26 O10 1_555 1_555
H1 C3 1_555 1_555
H2 C6 1_555 1_555
H3 C5 1_555 1_555
H4 C4 1_555 1_555
H5 C9 1_555 1_555
H6 C10 1_555 1_555
H7 C11 1_555 1_555
H8 C12 1_555 1_555
H9 C14 1_555 1_555
H10 C15 1_555 1_555
H11 C16 1_555 1_555
H12 C17 1_555 1_555
N4C Cu2 1_555 1_555
N6C Cu2 1_555 1_555
Cu2C N4 1_555 1_555
Cu2C_2 N6 1_555 1_555
S2 N2 1_555 1_555
C5 C6 1_555 1_555
C7 C8 1_555 1_555
C11 C12 1_555 1_555
C13 C18 1_555 1_555
C17 C18 1_555 1_555

#END
