
#######################################################################
#
#                 Cambridge Crystallographic Data Centre
#                                CCDC 
#
#######################################################################
#
# If this CIF has been generated from an entry in the Cambridge 
# Structural Database, then it will include bibliographic, chemical, 
# crystal, experimental, refinement or atomic coordinate data resulting 
# from the CCDC's data processing and validation procedures.
#
#######################################################################

data_HECYOF
_symmetry_cell_setting           triclinic
_symmetry_space_group_name_H-M   'P -1'
_symmetry_Int_Tables_number      2
_space_group_name_Hall           '-P 1'
loop_
_symmetry_equiv_pos_site_id
_symmetry_equiv_pos_as_xyz
1 x,y,z
2 -x,-y,-z
_cell_length_a                   7.220(7)
_cell_length_b                   12.829(12)
_cell_length_c                   13.163(13)
_cell_angle_alpha                110.01(2)
_cell_angle_beta                 101.593(19)
_cell_angle_gamma                92.468(19)
_cell_volume                     1113.94
loop_
_atom_site_label
_atom_site_type_symbol
_atom_site_fract_x
_atom_site_fract_y
_atom_site_fract_z
Zn1 Zn 0.69394(9) 0.03332(5) 0.58147(6)
S1 S 0.8512(3) 0.38480(13) 0.13092(15)
O1 O 0.7359(6) 0.1091(4) 0.4710(4)
O2 O 0.4459(6) 0.0698(4) 0.3590(4)
O3 O 0.7758(6) 0.8889(3) 0.4838(4)
O4 O 0.4864(6) 0.8496(4) 0.3679(4)
O5 O 1.0532(7) 0.3874(4) 0.1420(5)
O6 O 0.7251(8) 0.3457(4) 0.0216(4)
N1 N 0.9114(7) 0.1012(4) 0.7147(4)
N2 N 1.1973(7) 0.1380(4) 0.8242(4)
C1 C 1.0862(8) 0.0733(5) 0.7237(5)
H1 H 1.1272 0.0176 0.6692
C2 C 0.9134(9) 0.1855(5) 0.8132(6)
H2 H 0.8088 0.2216 0.8308
C3 C 1.0888(9) 0.2087(5) 0.8807(6)
H3 H 1.1273 0.2625 0.9517
C4 C 1.4023(8) 0.1337(6) 0.8616(6)
H4 H 1.4642 0.2092 0.9033
H5 H 1.4553 0.1041 0.7967
C5 C 0.7824(10) 0.3056(5) 0.2054(6)
C6 C 0.9196(9) 0.2769(5) 0.2788(6)
H6 H 1.0479 0.2989 0.2873
C7 C 0.6136(8) 0.1151(5) 0.3912(6)
C8 C 0.5381(9) 0.2115(6) 0.2527(6)
H7 H 0.4096 0.1895 0.2438
C9 C 0.8664(9) 0.2160(5) 0.3393(6)
H8 H 0.9586 0.1976 0.3886
C10 C 0.6737(9) 0.1821(5) 0.3262(5)
C11 C 0.5906(10) 0.2720(6) 0.1935(6)
H9 H 0.4978 0.2910 0.1450
C12 C 0.5717(9) 0.6472(5) 0.2398(6)
H10 H 0.4497 0.6663 0.2225
C13 C 0.7069(9) 0.7204(5) 0.3284(5)
C14 C 1.4482(8) 0.0635(5) 0.9329(5)
C15 C 0.6511(10) 0.8295(5) 0.3987(6)
C16 C 1.3130(9) 0.0119(6) 0.9671(6)
H11 H 1.1851 0.0192 0.9448
C17 C 0.8912(8) 0.6940(5) 0.3525(5)
H12 H 0.9830 0.7452 0.4101
C18 C 1.6351(9) 0.0504(6) 0.9661(6)
H13 H 1.7284 0.0836 0.9436
C19 C 0.7993(9) 0.5198(5) 0.2039(5)
C20 C 0.6178(10) 0.5459(5) 0.1770(6)
H14 H 0.5276 0.4960 0.1173
C21 C 0.9384(9) 0.5923(5) 0.2912(6)
H15 H 1.0603 0.5728 0.3080
Zn1A Zn 0.30606(9) -0.03332(5) 0.41853(6)
Zn1_2 Zn 0.69394(9) -0.96668(5) 0.58147(6)
Zn1_3 Zn 0.69394(9) 1.03332(5) 0.58147(6)
Zn1A_2 Zn 0.30606(9) -1.03332(5) 0.41853(6)
Zn1A_3 Zn 0.30606(9) 0.96668(5) 0.41853(6)
Zn1A_4 Zn 2.30606(9) -0.03332(5) 1.41853(6)
S1A S 0.1488(3) -0.38480(13) 0.86908(15)
O1A O 0.2641(6) -0.1091(4) 0.5290(4)
O2A O 0.5541(6) -0.0698(4) 0.6410(4)
O3A O 0.2242(6) -0.8889(3) 0.5162(4)
O3_2 O 0.7758(6) -0.1111(3) 0.4838(4)
O3A_2 O 0.2242(6) 0.1111(3) 0.5162(4)
O4A O 0.5136(6) -0.8496(4) 0.6321(4)
O4_2 O 0.4864(6) -0.1504(4) 0.3679(4)
O4A_2 O 0.5136(6) 0.1504(4) 0.6321(4)
O5A O -0.0532(7) -0.3874(4) 0.8580(5)
O6A O 0.2749(8) -0.3457(4) 0.9784(4)
N1A N 2.0886(7) -0.1012(4) 1.2853(4)
N1A_2 N 0.0886(7) -0.1012(4) 0.2853(4)
N2A N 1.8027(7) -0.1380(4) 1.1758(4)
C1A C 1.9138(8) -0.0733(5) 1.2763(5)
H1A H 1.8728 -0.0176 1.3308
C2A C 2.0866(9) -0.1855(5) 1.1868(6)
H2A H 2.1912 -0.2216 1.1692
C3A C 1.9112(9) -0.2087(5) 1.1193(6)
H3A H 1.8727 -0.2625 1.0483
C4A C 1.5977(8) -0.1337(6) 1.1384(6)
H4A H 1.5358 -0.2092 1.0967
H5A H 1.5447 -0.1041 1.2033
C5A C 0.2176(10) -0.3056(5) 0.7946(6)
C6A C 0.0804(9) -0.2769(5) 0.7212(6)
H6A H -0.0479 -0.2989 0.7127
C7A C 0.3864(8) -0.1151(5) 0.6088(6)
C8A C 0.4619(9) -0.2115(6) 0.7473(6)
H7A H 0.5904 -0.1895 0.7562
C9A C 0.1336(9) -0.2160(5) 0.6607(6)
H8A H 0.0414 -0.1976 0.6114
C10A C 0.3263(9) -0.1821(5) 0.6738(5)
C11A C 0.4094(10) -0.2720(6) 0.8065(6)
H9A H 0.5022 -0.2910 0.8550
C12A C 0.4283(9) -0.6472(5) 0.7602(6)
H10A H 0.5503 -0.6663 0.7775
C13A C 0.2931(9) -0.7204(5) 0.6716(5)
C14A C 1.5518(8) -0.0635(5) 1.0671(5)
C15A C 0.3489(10) -0.8295(5) 0.6013(6)
C16A C 1.6870(9) -0.0119(6) 1.0329(6)
H11A H 1.8149 -0.0192 1.0552
C17A C 0.1088(8) -0.6940(5) 0.6475(5)
H12A H 0.0170 -0.7452 0.5899
C18A C 1.3649(9) -0.0504(6) 1.0339(6)
H13A H 1.2716 -0.0836 1.0564
C19A C 0.2007(9) -0.5198(5) 0.7961(5)
C20A C 0.3822(10) -0.5459(5) 0.8230(6)
H14A H 0.4724 -0.4960 0.8827
C21A C 0.0616(9) -0.5923(5) 0.7088(6)
H15A H -0.0603 -0.5728 0.6920
loop_
_geom_bond_atom_site_label_1
_geom_bond_atom_site_label_2
_geom_bond_site_symmetry_1
_geom_bond_site_symmetry_2
Zn1 O1 1_555 1_555
S1 O5 1_555 1_555
O1 C7 1_555 1_555
O2 C7 1_555 1_555
O3 C15 1_555 1_555
O4 C15 1_555 1_555
O6 S1 1_555 1_555
N1 Zn1 1_555 1_555
N2 C1 1_555 1_555
C1 N1 1_555 1_555
H1 C1 1_555 1_555
C2 N1 1_555 1_555
H2 C2 1_555 1_555
C3 N2 1_555 1_555
H3 C3 1_555 1_555
C4 N2 1_555 1_555
H4 C4 1_555 1_555
H5 C4 1_555 1_555
C5 S1 1_555 1_555
C6 C5 1_555 1_555
H6 C6 1_555 1_555
C7 C10 1_555 1_555
C8 H7 1_555 1_555
C9 C6 1_555 1_555
H8 C9 1_555 1_555
C10 C8 1_555 1_555
C11 C5 1_555 1_555
H9 C11 1_555 1_555
C12 H10 1_555 1_555
C13 C12 1_555 1_555
C14 C4 1_555 1_555
C15 C13 1_555 1_555
C16 C14 1_555 1_555
H11 C16 1_555 1_555
C17 C13 1_555 1_555
H12 C17 1_555 1_555
C18 C14 1_555 1_555
H13 C18 1_555 1_555
C19 S1 1_555 1_555
C20 C12 1_555 1_555
H14 C20 1_555 1_555
C21 C17 1_555 1_555
H15 C21 1_555 1_555
Zn1A O2 1_555 1_555
Zn1_2 O4A 1_555 1_555
Zn1_3 O3 1_555 1_555
Zn1A_2 O3A 1_555 1_555
Zn1A_3 O4 1_555 1_555
Zn1A_4 N1A 1_555 1_555
S1A O5A 1_555 1_555
O1A Zn1A 1_555 1_555
O2A Zn1 1_555 1_555
O3A C15A 1_555 1_555
O3_2 Zn1 1_555 1_555
O3A_2 Zn1A 1_555 1_555
O4A C15A 1_555 1_555
O4_2 Zn1A 1_555 1_555
O4A_2 Zn1 1_555 1_555
O6A S1A 1_555 1_555
N1A C1A 1_555 1_555
N1A_2 Zn1A 1_555 1_555
N2A C1A 1_555 1_555
C1A H1A 1_555 1_555
C2A N1A 1_555 1_555
H2A C2A 1_555 1_555
C3A N2A 1_555 1_555
H3A C3A 1_555 1_555
C4A N2A 1_555 1_555
H4A C4A 1_555 1_555
H5A C4A 1_555 1_555
C5A S1A 1_555 1_555
C6A C5A 1_555 1_555
H6A C6A 1_555 1_555
C7A O1A 1_555 1_555
C8A H7A 1_555 1_555
C9A C6A 1_555 1_555
H8A C9A 1_555 1_555
C10A C7A 1_555 1_555
C11A C5A 1_555 1_555
H9A C11A 1_555 1_555
C12A H10A 1_555 1_555
C13A C12A 1_555 1_555
C14A C4A 1_555 1_555
C15A C13A 1_555 1_555
C16A C18 1_555 1_555
H11A C16A 1_555 1_555
C17A C13A 1_555 1_555
H12A C17A 1_555 1_555
C18A C16 1_555 1_555
H13A C18A 1_555 1_555
C19A S1A 1_555 1_555
C20A C12A 1_555 1_555
H14A C20A 1_555 1_555
C21A C17A 1_555 1_555
H15A C21A 1_555 1_555
C2 C3 1_555 1_555
C8 C11 1_555 1_555
C9 C10 1_555 1_555
C19 C20 1_555 1_555
C19 C21 1_555 1_555
O2A C7A 1_555 1_555
C2A C3A 1_555 1_555
C8A C10A 1_555 1_555
C8A C11A 1_555 1_555
C9A C10A 1_555 1_555
C14A C16A 1_555 1_555
C14A C18A 1_555 1_555
C19A C20A 1_555 1_555
C19A C21A 1_555 1_555

#END
