
#######################################################################
#
#                 Cambridge Crystallographic Data Centre
#                                CCDC 
#
#######################################################################
#
# If this CIF has been generated from an entry in the Cambridge 
# Structural Database, then it will include bibliographic, chemical, 
# crystal, experimental, refinement or atomic coordinate data resulting 
# from the CCDC's data processing and validation procedures.
#
#######################################################################

data_HECYAR
_symmetry_cell_setting           orthorhombic
_symmetry_space_group_name_H-M   'F 2 2 2'
_symmetry_Int_Tables_number      22
_space_group_name_Hall           'F 2 2'
loop_
_symmetry_equiv_pos_site_id
_symmetry_equiv_pos_as_xyz
1 x,y,z
2 -x,-y,z
3 -x,y,-z
4 x,-y,-z
5 x,1/2+y,1/2+z
6 -x,1/2-y,1/2+z
7 -x,1/2+y,1/2-z
8 x,1/2-y,1/2-z
9 1/2+x,y,1/2+z
10 1/2-x,-y,1/2+z
11 1/2-x,y,1/2-z
12 1/2+x,-y,1/2-z
13 1/2+x,1/2+y,z
14 1/2-x,1/2-y,z
15 1/2-x,1/2+y,-z
16 1/2+x,1/2-y,-z
_cell_length_a                   12.0936(12)
_cell_length_b                   22.276(2)
_cell_length_c                   23.385(2)
_cell_angle_alpha                90
_cell_angle_beta                 90
_cell_angle_gamma                90
_cell_volume                     6299.85
loop_
_atom_site_label
_atom_site_type_symbol
_atom_site_fract_x
_atom_site_fract_y
_atom_site_fract_z
Ni1 Ni 0.2500 0.021744(17) 0.2500
S1 S 0.0000 0.25769(4) 0.0000
O1 O 0.10821(16) 0.04857(8) 0.20185(8)
O2 O 0.27313(15) 0.08851(8) 0.18849(8)
O3 O -0.0926(2) 0.28999(9) 0.02320(9)
N1 N 0.19006(18) -0.04149(10) 0.30340(9)
N2 N 0.08611(18) -0.11520(9) 0.33572(9)
C1 C 0.1717(2) 0.08549(11) 0.17697(11)
C2 C 0.1258(2) 0.12817(11) 0.13295(11)
C3 C 0.0180(3) 0.14810(12) 0.13594(12)
H1 H -0.0283 0.1341 0.1647
C4 C -0.0215(3) 0.18910(12) 0.09598(11)
H2 H -0.0937 0.2033 0.0980
C5 C 0.0492(2) 0.20826(11) 0.05316(11)
C6 C 0.1578(3) 0.18743(13) 0.04858(12)
H3 H 0.2032 0.1999 0.0188
C7 C 0.1959(2) 0.14778(13) 0.08962(12)
H4 H 0.2685 0.1342 0.0882
C8 C 0.0964(2) -0.07158(11) 0.29659(11)
H5 H 0.0444 -0.0635 0.2683
C9 C 0.2410(3) -0.06719(12) 0.34945(12)
H6 H 0.3082 -0.0547 0.3648
C10 C 0.1796(2) -0.11341(14) 0.36950(14)
H7 H 0.1968 -0.1387 0.3998
C11 C -0.0045(2) -0.15846(11) 0.33913(12)
H8 H -0.0742 -0.1371 0.3370
H9 H -0.0015 -0.1786 0.3759
C12 C -0.0005(2) -0.20485(10) 0.29219(12)
C13 C -0.0988(2) -0.22752(12) 0.27076(12)
H10 H -0.1657 -0.2126 0.2842
C14 C 0.0971(2) -0.22796(12) 0.27088(12)
H11 H 0.1641 -0.2137 0.2848
Ni1G Ni 0.2500 -0.521744(17) 0.2500
Ni1B Ni -0.2500 0.021744(17) -0.2500
O1B O -0.10821(16) 0.04857(8) -0.20185(8)
O1J O 0.39179(16) 0.04857(8) 0.29815(8)
O2B O -0.27313(15) 0.08851(8) -0.18849(8)
O2J O 0.22687(15) 0.08851(8) 0.31151(8)
O3B O 0.0926(2) 0.28999(9) -0.02320(9)
N1G N 0.19006(18) -0.45851(10) 0.19660(9)
N1J N 0.30994(18) -0.04149(10) 0.19660(9)
N2G N 0.08611(18) -0.38480(9) 0.16428(9)
C1B C -0.1717(2) 0.08549(11) -0.17697(11)
C1J C 0.3283(2) 0.08549(11) 0.32303(11)
C2B C -0.1258(2) 0.12817(11) -0.13295(11)
C3B C -0.0180(3) 0.14810(12) -0.13594(12)
H1B H 0.0283 0.1341 -0.1647
C4B C 0.0215(3) 0.18910(12) -0.09598(11)
H2B H 0.0937 0.2033 -0.0980
C5B C -0.0492(2) 0.20826(11) -0.05316(11)
C6B C -0.1578(3) 0.18743(13) -0.04858(12)
H3B H -0.2032 0.1999 -0.0188
C7B C -0.1959(2) 0.14778(13) -0.08962(12)
H4B H -0.2685 0.1342 -0.0882
C8G C 0.0964(2) -0.42842(11) 0.20341(11)
H5G H 0.0444 -0.4365 0.2317
C9G C 0.2410(3) -0.43281(12) 0.15055(12)
H6G H 0.3082 -0.4453 0.1352
C10G C 0.1796(2) -0.38659(14) 0.13050(14)
H7G H 0.1968 -0.3613 0.1002
C11G C -0.0045(2) -0.34154(11) 0.16087(12)
H8G H -0.0742 -0.3629 0.1630
H9G H -0.0015 -0.3214 0.1241
C12G C -0.0005(2) -0.29515(10) 0.20781(12)
C13G C -0.0988(2) -0.27248(12) 0.22924(12)
H10G H -0.1657 -0.2874 0.2158
C14G C 0.0971(2) -0.27204(12) 0.22912(12)
H11G H 0.1641 -0.2863 0.2152
loop_
_geom_bond_atom_site_label_1
_geom_bond_atom_site_label_2
_geom_bond_site_symmetry_1
_geom_bond_site_symmetry_2
Ni1 O1 1_555 1_555
S1 O3 1_555 1_555
O1 C1 1_555 1_555
O2 Ni1 1_555 1_555
N1 Ni1 1_555 1_555
N2 C8 1_555 1_555
C1 O2 1_555 1_555
C2 C1 1_555 1_555
C3 C2 1_555 1_555
H1 C3 1_555 1_555
C4 C3 1_555 1_555
H2 C4 1_555 1_555
C5 S1 1_555 1_555
C6 C5 1_555 1_555
H3 C6 1_555 1_555
C7 C2 1_555 1_555
H4 C7 1_555 1_555
C8 N1 1_555 1_555
H5 C8 1_555 1_555
C9 N1 1_555 1_555
H6 C9 1_555 1_555
C10 N2 1_555 1_555
H7 C10 1_555 1_555
C11 N2 1_555 1_555
H8 C11 1_555 1_555
H9 C11 1_555 1_555
C12 C11 1_555 1_555
C13 C12 1_555 1_555
H10 C13 1_555 1_555
C14 C12 1_555 1_555
H11 C14 1_555 1_555
Ni1G N1G 1_555 1_555
Ni1B O1B 1_555 1_555
O1B C1B 1_555 1_555
O1J Ni1 1_555 1_555
O2B Ni1B 1_555 1_555
O2J Ni1 1_555 1_555
O3B S1 1_555 1_555
N1G C8G 1_555 1_555
N1J Ni1 1_555 1_555
N2G C8G 1_555 1_555
C1B O2B 1_555 1_555
C1J O1J 1_555 1_555
C2B C1B 1_555 1_555
C3B C2B 1_555 1_555
H1B C3B 1_555 1_555
C4B C3B 1_555 1_555
H2B C4B 1_555 1_555
C5B S1 1_555 1_555
C6B C5B 1_555 1_555
H3B C6B 1_555 1_555
C7B C2B 1_555 1_555
H4B C7B 1_555 1_555
C8G H5G 1_555 1_555
C9G N1G 1_555 1_555
H6G C9G 1_555 1_555
C10G N2G 1_555 1_555
H7G C10G 1_555 1_555
C11G N2G 1_555 1_555
H8G C11G 1_555 1_555
H9G C11G 1_555 1_555
C12G C11G 1_555 1_555
C13G C13 1_555 1_555
H10G C13G 1_555 1_555
C14G C14 1_555 1_555
H11G C14G 1_555 1_555
C4 C5 1_555 1_555
C6 C7 1_555 1_555
C9 C10 1_555 1_555
O2J C1J 1_555 1_555
C4B C5B 1_555 1_555
C6B C7B 1_555 1_555
C9G C10G 1_555 1_555
C12G C13G 1_555 1_555
C12G C14G 1_555 1_555

#END
