
#######################################################################
#
#                 Cambridge Crystallographic Data Centre
#                                CCDC 
#
#######################################################################
#
# If this CIF has been generated from an entry in the Cambridge 
# Structural Database, then it will include bibliographic, chemical, 
# crystal, experimental, refinement or atomic coordinate data resulting 
# from the CCDC's data processing and validation procedures.
#
#######################################################################

data_HECYIZ
_symmetry_cell_setting           triclinic
_symmetry_space_group_name_H-M   'P -1'
_symmetry_Int_Tables_number      2
_space_group_name_Hall           '-P 1'
loop_
_symmetry_equiv_pos_site_id
_symmetry_equiv_pos_as_xyz
1 x,y,z
2 -x,-y,-z
_cell_length_a                   7.097(2)
_cell_length_b                   12.877(5)
_cell_length_c                   13.116(5)
_cell_angle_alpha                109.740(6)
_cell_angle_beta                 102.105(6)
_cell_angle_gamma                92.279(6)
_cell_volume                     1095.13
loop_
_atom_site_label
_atom_site_type_symbol
_atom_site_fract_x
_atom_site_fract_y
_atom_site_fract_z
Co1 Co 0.31215(8) -0.02828(4) 0.42555(5)
S1 S 0.85884(16) 0.38283(8) 0.12965(9)
O1 O 0.4396(4) 0.0682(2) 0.3555(2)
O2 O 0.7343(4) 0.1089(2) 0.4707(2)
O3 O 0.7306(5) 0.3443(3) 0.0201(3)
O4 O 1.0648(5) 0.3838(2) 0.1409(3)
O5 O 0.4949(4) 0.8515(3) 0.3694(3)
O6 O 0.7877(4) 0.8880(2) 0.4853(2)
N1 N 0.0949(5) -0.1020(3) 0.2873(3)
N2 N -0.1984(5) -0.1392(3) 0.1777(3)
C1 C 0.6093(6) 0.1151(3) 0.3894(3)
C2 C 0.6726(6) 0.1826(3) 0.3255(3)
C3 C 0.5345(7) 0.2110(3) 0.2510(4)
H1 H 0.4036 0.1890 0.2415
C4 C 0.5900(6) 0.2720(3) 0.1902(4)
H2 H 0.4973 0.2915 0.1404
C5 C 0.7874(6) 0.3036(3) 0.2056(3)
C6 C 0.9272(7) 0.2747(4) 0.2790(4)
H3 H 1.0582 0.2956 0.2876
C7 C 0.8702(6) 0.2141(3) 0.3397(3)
H4 H 0.9628 0.1946 0.3894
C8 C 0.8071(6) 0.5175(3) 0.2030(3)
C9 C 0.6221(7) 0.5453(4) 0.1756(4)
H5 H 0.5295 0.4968 0.1151
C10 C 0.5766(6) 0.6467(4) 0.2399(4)
H6 H 0.4520 0.6660 0.2229
C11 C 0.7149(6) 0.7195(3) 0.3291(3)
C12 C 0.9035(6) 0.6921(3) 0.3531(3)
H7 H 0.9981 0.7422 0.4111
C13 C 0.9491(6) 0.5908(4) 0.2907(3)
H8 H 1.0739 0.5716 0.3071
C14 C 0.6620(7) 0.8282(3) 0.4003(4)
C15 C -0.0857(6) -0.0744(4) 0.2770(4)
H9 H -0.1275 -0.0185 0.3307
C16 C 0.0935(6) -0.1884(3) 0.1887(4)
H10 H 0.2000 -0.2247 0.1720
C17 C -0.0854(6) -0.2113(3) 0.1211(3)
H11 H -0.1251 -0.2653 0.0502
C18 C -0.4042(6) -0.1337(4) 0.1392(4)
H12 H -0.4589 -0.1044 0.2036
H13 H -0.4682 -0.2085 0.0968
C19 C -0.4478(6) -0.0629(3) 0.0678(3)
C20 C -0.3069(6) -0.0128(4) 0.0351(4)
H14 H -0.1770 -0.0209 0.0584
C21 C -0.6415(6) -0.0496(4) 0.0324(4)
H15 H -0.7372 -0.0828 0.0540
Co1A Co 0.68785(8) 0.02828(4) 0.57445(5)
Co1_2 Co 0.31215(8) 0.97172(4) 0.42555(5)
Co1A_2 Co 0.68785(8) 1.02828(4) 0.57445(5)
Co1A_3 Co -1.31215(8) 0.02828(4) -0.42555(5)
Co1A_4 Co 0.68785(8) -0.97172(4) 0.57445(5)
Co1_3 Co 0.31215(8) -1.02828(4) 0.42555(5)
S1A S 0.14116(16) -0.38283(8) 0.87035(9)
O1A O 0.5604(4) -0.0682(2) 0.6445(2)
O2A O 0.2657(4) -0.1089(2) 0.5293(2)
O3A O 0.2694(5) -0.3443(3) 0.9799(3)
O4A O -0.0648(5) -0.3838(2) 0.8591(3)
O5A O 0.5051(4) -0.8515(3) 0.6306(3)
O5_2 O 0.4949(4) -0.1485(3) 0.3694(3)
O5A_2 O 0.5051(4) 0.1485(3) 0.6306(3)
O6A O 0.2123(4) -0.8880(2) 0.5147(2)
O6A_2 O 0.2123(4) 0.1120(2) 0.5147(2)
O6_2 O 0.7877(4) -0.1120(2) 0.4853(2)
N1A N -1.0949(5) 0.1020(3) -0.2873(3)
N1A_2 N 0.9051(5) 0.1020(3) 0.7127(3)
N2A N -0.8016(5) 0.1392(3) -0.1777(3)
C1A C 0.3907(6) -0.1151(3) 0.6106(3)
C2A C 0.3274(6) -0.1826(3) 0.6745(3)
C3A C 0.4655(7) -0.2110(3) 0.7490(4)
H1A H 0.5964 -0.1890 0.7585
C4A C 0.4100(6) -0.2720(3) 0.8098(4)
H2A H 0.5027 -0.2915 0.8596
C5A C 0.2126(6) -0.3036(3) 0.7944(3)
C6A C 0.0728(7) -0.2747(4) 0.7210(4)
H3A H -0.0582 -0.2956 0.7124
C7A C 0.1298(6) -0.2141(3) 0.6603(3)
H4A H 0.0372 -0.1946 0.6106
C8A C 0.1929(6) -0.5175(3) 0.7970(3)
C9A C 0.3779(7) -0.5453(4) 0.8244(4)
H5A H 0.4705 -0.4968 0.8849
C10A C 0.4234(6) -0.6467(4) 0.7601(4)
H6A H 0.5480 -0.6660 0.7771
C11A C 0.2851(6) -0.7195(3) 0.6709(3)
C12A C 0.0965(6) -0.6921(3) 0.6469(3)
H7A H 0.0019 -0.7422 0.5889
C13A C 0.0509(6) -0.5908(4) 0.7093(3)
H8A H -0.0739 -0.5716 0.6929
C14A C 0.3380(7) -0.8282(3) 0.5997(4)
C15A C -0.9143(6) 0.0744(4) -0.2770(4)
H9A H -0.8725 0.0185 -0.3307
C16A C -1.0935(6) 0.1884(3) -0.1887(4)
H10A H -1.2000 0.2247 -0.1720
C17A C -0.9146(6) 0.2113(3) -0.1211(3)
H11A H -0.8749 0.2653 -0.0502
C18A C -0.5958(6) 0.1337(4) -0.1392(4)
H12A H -0.5411 0.1044 -0.2036
H13A H -0.5318 0.2085 -0.0968
C19A C -0.5522(6) 0.0629(3) -0.0678(3)
C20A C -0.6931(6) 0.0128(4) -0.0351(4)
H14A H -0.8230 0.0209 -0.0584
C21A C -0.3585(6) 0.0496(4) -0.0324(4)
H15A H -0.2628 0.0828 -0.0540
loop_
_geom_bond_atom_site_label_1
_geom_bond_atom_site_label_2
_geom_bond_site_symmetry_1
_geom_bond_site_symmetry_2
Co1 O1 1_555 1_555
S1 O3 1_555 1_555
O1 C1 1_555 1_555
O2 C1 1_555 1_555
O4 S1 1_555 1_555
O5 C14 1_555 1_555
O6 C14 1_555 1_555
N1 Co1 1_555 1_555
N2 C15 1_555 1_555
C1 C2 1_555 1_555
C2 C3 1_555 1_555
C3 H1 1_555 1_555
C4 C3 1_555 1_555
H2 C4 1_555 1_555
C5 S1 1_555 1_555
C6 C5 1_555 1_555
H3 C6 1_555 1_555
C7 C2 1_555 1_555
H4 C7 1_555 1_555
C8 S1 1_555 1_555
C9 C8 1_555 1_555
H5 C9 1_555 1_555
C10 C9 1_555 1_555
H6 C10 1_555 1_555
C11 C10 1_555 1_555
C12 C11 1_555 1_555
H7 C12 1_555 1_555
C13 C8 1_555 1_555
H8 C13 1_555 1_555
C14 C11 1_555 1_555
C15 N1 1_555 1_555
H9 C15 1_555 1_555
C16 N1 1_555 1_555
H10 C16 1_555 1_555
C17 N2 1_555 1_555
H11 C17 1_555 1_555
C18 N2 1_555 1_555
H12 C18 1_555 1_555
H13 C18 1_555 1_555
C19 C18 1_555 1_555
C20 C19 1_555 1_555
H14 C20 1_555 1_555
C21 C19 1_555 1_555
H15 C21 1_555 1_555
Co1A O2 1_555 1_555
Co1_2 O5 1_555 1_555
Co1A_2 O6 1_555 1_555
Co1A_3 N1A 1_555 1_555
Co1A_4 O5A 1_555 1_555
Co1_3 O6A 1_555 1_555
S1A O3A 1_555 1_555
O1A Co1A 1_555 1_555
O2A Co1 1_555 1_555
O4A S1A 1_555 1_555
O5A C14A 1_555 1_555
O5_2 Co1 1_555 1_555
O5A_2 Co1A 1_555 1_555
O6A C14A 1_555 1_555
O6A_2 Co1 1_555 1_555
O6_2 Co1A 1_555 1_555
N1A C15A 1_555 1_555
N1A_2 Co1A 1_555 1_555
N2A C15A 1_555 1_555
C1A O1A 1_555 1_555
C2A C1A 1_555 1_555
C3A C2A 1_555 1_555
H1A C3A 1_555 1_555
C4A C3A 1_555 1_555
H2A C4A 1_555 1_555
C5A S1A 1_555 1_555
C6A C5A 1_555 1_555
H3A C6A 1_555 1_555
C7A C2A 1_555 1_555
H4A C7A 1_555 1_555
C8A S1A 1_555 1_555
C9A C8A 1_555 1_555
H5A C9A 1_555 1_555
C10A C9A 1_555 1_555
H6A C10A 1_555 1_555
C11A C10A 1_555 1_555
C12A C11A 1_555 1_555
H7A C12A 1_555 1_555
C13A C8A 1_555 1_555
H8A C13A 1_555 1_555
C14A C11A 1_555 1_555
C15A H9A 1_555 1_555
C16A N1A 1_555 1_555
H10A C16A 1_555 1_555
C17A N2A 1_555 1_555
H11A C17A 1_555 1_555
C18A N2A 1_555 1_555
H12A C18A 1_555 1_555
H13A C18A 1_555 1_555
C19A C18A 1_555 1_555
C20A C21 1_555 1_555
H14A C20A 1_555 1_555
C21A C20 1_555 1_555
H15A C21A 1_555 1_555
C4 C5 1_555 1_555
C6 C7 1_555 1_555
C12 C13 1_555 1_555
C16 C17 1_555 1_555
O2A C1A 1_555 1_555
C4A C5A 1_555 1_555
C6A C7A 1_555 1_555
C12A C13A 1_555 1_555
C16A C17A 1_555 1_555
C19A C20A 1_555 1_555
C19A C21A 1_555 1_555

#END
