
#######################################################################
#
#                 Cambridge Crystallographic Data Centre
#                                CCDC 
#
#######################################################################
#
# If this CIF has been generated from an entry in the Cambridge 
# Structural Database, then it will include bibliographic, chemical, 
# crystal, experimental, refinement or atomic coordinate data resulting 
# from the CCDC's data processing and validation procedures.
#
#######################################################################

data_HEDBUP
_symmetry_cell_setting           orthorhombic
_symmetry_space_group_name_H-M   'P n a 21'
_symmetry_Int_Tables_number      33
_space_group_name_Hall           'P 2c -2n'
loop_
_symmetry_equiv_pos_site_id
_symmetry_equiv_pos_as_xyz
1 x,y,z
2 -x,-y,1/2+z
3 1/2+x,1/2-y,z
4 1/2-x,1/2+y,1/2+z
_cell_length_a                   15.8367(8)
_cell_length_b                   8.3203(6)
_cell_length_c                   21.5047(3)
_cell_angle_alpha                90
_cell_angle_beta                 90
_cell_angle_gamma                90
_cell_volume                     2833.59
loop_
_atom_site_label
_atom_site_type_symbol
_atom_site_fract_x
_atom_site_fract_y
_atom_site_fract_z
U1 U 0.355813(13) 1.02296(3) 0.023922
U2 U -0.366250(13) 1.01593(3) 0.028120(17)
Nd1 Nd -0.15650(2) 0.85452(4) 0.27228(3)
C1 C -0.1869(4) 0.9822(6) 0.0219(4)
C2 C -0.0928(4) 0.9785(7) 0.0194(3)
O1 O -0.2280(3) 1.0425(6) -0.0238(3)
O2 O -0.2261(3) 0.9224(6) 0.0666(2)
C3 C 0.0840(4) 0.9855(6) 0.0207(4)
C4 C 0.1782(4) 0.9884(6) 0.0188(3)
O3 O 0.2166(4) 1.0605(7) -0.0242(3)
C5 C 0.0875(4) 0.8099(8) 0.1171(3)
O4 O 0.1044(3) 0.6654(6) 0.1110(2)
O5 O 0.0996(3) 0.8885(6) 0.1659(3)
C6 C -0.0926(4) 0.8013(8) 0.1163(3)
O6 O -0.1176(3) 0.6582(6) 0.1064(3)
O7 O -0.0937(3) 0.8670(6) 0.1680(3)
O8 O 0.3790(3) 0.8630(7) -0.0281(3)
O9 O -0.3451(3) 1.1774(6) 0.0793(2)
O10 O 0.0925(3) 1.1160(6) -0.1250(3)
O11 O -0.2205(4) 0.6424(7) 0.3430(3)
O12 O -0.2383(4) 0.6565(8) 0.2047(3)
O13 O 0.1073(3) 1.3154(6) -0.0583(3)
O14 O 0.4949(3) 1.0764(7) 0.0473(2)
O15 O -0.1164(3) 1.3107(6) -0.0622(3)
O16 O 0.3347(3) 1.1838(6) 0.0752(2)
O17 O -0.3895(3) 0.8552(6) -0.0244(3)
O18 O -0.1084(3) 1.0999(7) -0.1258(3)
C7 C -0.0954(4) 1.1659(8) -0.0752(3)
O19 O -0.0745(4) 0.6012(8) 0.2716(4)
O20 O -0.0013(3) 0.9328(8) 0.2708(4)
O21 O -0.2448(6) 1.0151(10) 0.1956(5)
O22 O 0.2185(3) 0.9167(7) 0.0609(3)
C8 C 0.0403(4) 0.8997(8) 0.0649(3)
C9 C 0.0381(4) 1.0761(8) -0.0240(3)
C10 C -0.0478(4) 0.8926(7) 0.0653(3)
C11 C -0.0494(4) 1.0716(8) -0.0253(3)
C12 C 0.0841(4) 1.1757(8) -0.0729(3)
O25 O -0.1433(7) 1.1448(15) 0.2889(6)
O27 O -0.2988(7) 0.9362(14) 0.3147(5)
U1B U -0.144187(13) 0.47704(3) 0.023922
U1B_2 U -0.144187(13) 1.47704(3) 0.023922
U2B U 0.133750(13) 0.48407(3) 0.028120(17)
U2B_2 U 0.133750(13) 1.48407(3) 0.028120(17)
U2_2 U 0.633750(13) 1.01593(3) 0.028120(17)
Nd1A Nd 0.15650(2) 1.14548(4) -0.22772(3)
O4B O -0.3956(3) 0.8346(6) 0.1110(2)
O6B O 0.3824(3) 0.8418(6) 0.1064(3)
O10A O -0.0925(3) 0.8840(6) 0.3750(3)
O13B O -0.3927(3) 1.1846(6) -0.0583(3)
O14_2 O -0.5051(3) 1.0764(7) 0.0473(2)
O15B O 0.3836(3) 1.1893(6) -0.0622(3)
O23 O 0.5700(6) 0.0105(10) 0.2211(4)
O24 O 0.5016(5) 0.2811(11) 0.1582(4)
O26 O 0.4571(7) 0.1650(12) 0.3527(5)
O28 O 0.3757(8) 0.7196(18) 0.8461(7)
O29 O 0.2248(9) 0.1802(17) 0.2387(6)
loop_
_geom_bond_atom_site_label_1
_geom_bond_atom_site_label_2
_geom_bond_site_symmetry_1
_geom_bond_site_symmetry_2
U1 O3 1_555 1_555
U2 O1 1_555 1_555
Nd1 O7 1_555 1_555
C1 C2 1_555 1_555
C2 C10 1_555 1_555
O1 C1 1_555 1_555
O2 U2 1_555 1_555
C3 C4 1_555 1_555
C4 O3 1_555 1_555
C5 O4 1_555 1_555
O4 U2B 1_555 1_555
O5 C5 1_555 1_555
C6 O6 1_555 1_555
O6 U1B 1_555 1_555
O7 C6 1_555 1_555
O8 U1 1_555 1_555
O9 U2 1_555 1_555
O10 C12 1_555 1_555
O11 Nd1 1_555 1_555
O12 Nd1 1_555 1_555
O13 C12 1_555 1_555
O14 U1 1_555 1_555
O15 C7 1_555 1_555
O16 U1 1_555 1_555
O17 U2 1_555 1_555
O18 C7 1_555 1_555
C7 C11 1_555 1_555
O19 Nd1 1_555 1_555
O20 Nd1 1_555 1_555
O21 Nd1 1_555 1_555
O22 U1 1_555 1_555
C8 C3 1_555 1_555
C9 C3 1_555 1_555
C10 C6 1_555 1_555
C11 C2 1_555 1_555
C12 C9 1_555 1_555
O25 Nd1 1_555 1_555
O27 Nd1 1_555 1_555
U1B_2 O15 1_555 1_555
U2B_2 O13 1_555 1_555
U2_2 O14 1_555 1_555
Nd1A O10 1_555 1_555
O4B U2 1_555 1_555
O6B U1 1_555 1_555
O10A Nd1 1_555 1_555
O13B U2 1_555 1_555
O14_2 U2 1_555 1_555
O15B U1 1_555 1_555
C1 O2 1_555 1_555
C4 O22 1_555 1_555
C5 C8 1_555 1_555
C8 C10 1_555 1_555
C9 C11 1_555 1_555

#END
