
#######################################################################
#
#                 Cambridge Crystallographic Data Centre
#                                CCDC 
#
#######################################################################
#
# If this CIF has been generated from an entry in the Cambridge 
# Structural Database, then it will include bibliographic, chemical, 
# crystal, experimental, refinement or atomic coordinate data resulting 
# from the CCDC's data processing and validation procedures.
#
#######################################################################

data_HEDBOJ
_symmetry_cell_setting           orthorhombic
_symmetry_space_group_name_H-M   'P n a 21'
_symmetry_Int_Tables_number      33
_space_group_name_Hall           'P 2c -2n'
loop_
_symmetry_equiv_pos_site_id
_symmetry_equiv_pos_as_xyz
1 x,y,z
2 -x,-y,1/2+z
3 1/2+x,1/2-y,z
4 1/2-x,1/2+y,1/2+z
_cell_length_a                   15.8523(8)
_cell_length_b                   8.3188(5)
_cell_length_c                   21.5884(12)
_cell_angle_alpha                90
_cell_angle_beta                 90
_cell_angle_gamma                90
_cell_volume                     2846.91
loop_
_atom_site_label
_atom_site_type_symbol
_atom_site_fract_x
_atom_site_fract_y
_atom_site_fract_z
U1 U 0.356026(12) 1.02225(3) 0.023799
U2 U -0.365910(12) 1.01533(3) 0.028170(19)
Ce1 Ce -0.15677(3) 0.85482(5) 0.27247(4)
C1 C -0.1874(4) 0.9821(7) 0.0218(6)
C2 C -0.0923(4) 0.9800(7) 0.0183(4)
O1 O -0.2273(3) 1.0450(7) -0.0229(3)
O2 O -0.2253(3) 0.9230(7) 0.0665(3)
C3 C 0.0836(4) 0.9854(8) 0.0210(6)
C4 C 0.1785(4) 0.9898(7) 0.0183(5)
O3 O 0.2165(3) 1.0592(7) -0.0241(3)
C5 C 0.0870(4) 0.8110(9) 0.1161(4)
O4 O 0.1055(3) 0.6660(6) 0.1095(3)
O5 O 0.0991(3) 0.8884(7) 0.1658(3)
C6 C -0.0910(4) 0.8004(10) 0.1152(4)
O6 O -0.1170(4) 0.6577(7) 0.1061(3)
O7 O -0.0931(4) 0.8678(7) 0.1667(3)
O8 O 0.3797(3) 0.8626(8) -0.0284(3)
O9 O -0.3449(3) 1.1761(7) 0.0792(3)
O10 O 0.0920(3) 1.1178(7) -0.1254(3)
O11 O -0.2214(4) 0.6405(8) 0.3446(4)
O12 O -0.2391(4) 0.6563(8) 0.2042(3)
O13 O 0.1080(3) 1.3169(6) -0.0581(3)
O14 O 0.4951(3) 1.0777(6) 0.0473(3)
O15 O -0.1160(3) 1.3093(7) -0.0625(3)
O16 O 0.3356(3) 1.1859(6) 0.0748(3)
O17 O -0.3879(3) 0.8554(7) -0.0230(3)
O18 O -0.1082(3) 1.1014(7) -0.1248(3)
C7 C -0.0953(4) 1.1652(9) -0.0753(4)
O19 O -0.0741(4) 0.5988(8) 0.2720(5)
O20 O 0.0012(4) 0.9341(8) 0.2712(4)
O21 O -0.2431(6) 1.0207(11) 0.1956(5)
O22 O 0.2186(3) 0.9194(7) 0.0614(3)
C8 C 0.0403(4) 0.8990(8) 0.0648(4)
C9 C 0.0393(4) 1.0766(8) -0.0244(3)
C10 C -0.0469(4) 0.8932(8) 0.0642(3)
C11 C -0.0496(4) 1.0705(8) -0.0245(4)
C12 C 0.0843(4) 1.1756(9) -0.0726(4)
O25 O -0.1457(6) 1.1479(14) 0.2949(5)
O27 O -0.3028(7) 0.9355(13) 0.3155(5)
U1B U -0.143974(12) 0.47775(3) 0.023799
U1B_2 U -0.143974(12) 1.47775(3) 0.023799
U2B U 0.134090(12) 0.48467(3) 0.028170(19)
U2B_2 U 0.134090(12) 1.48467(3) 0.028170(19)
U2_2 U 0.634090(12) 1.01533(3) 0.028170(19)
Ce1A Ce 0.15677(3) 1.14518(5) -0.22753(4)
O4B O -0.3945(3) 0.8340(6) 0.1095(3)
O6B O 0.3830(4) 0.8423(7) 0.1061(3)
O10A O -0.0920(3) 0.8822(7) 0.3746(3)
O13B O -0.3920(3) 1.1831(6) -0.0581(3)
O14_2 O -0.5049(3) 1.0777(6) 0.0473(3)
O15B O 0.3840(3) 1.1907(7) -0.0625(3)
O23 O 0.5682(6) 0.0106(10) 0.2203(5)
O24 O 0.5010(5) 0.2793(10) 0.1577(4)
O26 O 0.4581(7) 0.1668(14) 0.3544(6)
O28 O 0.3714(8) 0.7192(16) 0.8432(7)
O29 O 0.2230(8) 0.1744(16) 0.2358(6)
loop_
_geom_bond_atom_site_label_1
_geom_bond_atom_site_label_2
_geom_bond_site_symmetry_1
_geom_bond_site_symmetry_2
U1 O3 1_555 1_555
U2 O1 1_555 1_555
Ce1 O7 1_555 1_555
C1 C2 1_555 1_555
C2 C10 1_555 1_555
O1 C1 1_555 1_555
O2 U2 1_555 1_555
C3 C4 1_555 1_555
C4 O3 1_555 1_555
C5 O4 1_555 1_555
O4 U2B 1_555 1_555
O5 C5 1_555 1_555
C6 O6 1_555 1_555
O6 U1B 1_555 1_555
O7 C6 1_555 1_555
O8 U1 1_555 1_555
O9 U2 1_555 1_555
O10 C12 1_555 1_555
O11 Ce1 1_555 1_555
O12 Ce1 1_555 1_555
O13 C12 1_555 1_555
O14 U1 1_555 1_555
O15 C7 1_555 1_555
O16 U1 1_555 1_555
O17 U2 1_555 1_555
O18 C7 1_555 1_555
C7 C11 1_555 1_555
O19 Ce1 1_555 1_555
O20 Ce1 1_555 1_555
O21 Ce1 1_555 1_555
O22 U1 1_555 1_555
C8 C3 1_555 1_555
C9 C3 1_555 1_555
C10 C6 1_555 1_555
C11 C2 1_555 1_555
C12 C9 1_555 1_555
O25 Ce1 1_555 1_555
O27 Ce1 1_555 1_555
U1B_2 O15 1_555 1_555
U2B_2 O13 1_555 1_555
U2_2 O14 1_555 1_555
Ce1A O10 1_555 1_555
O4B U2 1_555 1_555
O6B U1 1_555 1_555
O10A Ce1 1_555 1_555
O13B U2 1_555 1_555
O14_2 U2 1_555 1_555
O15B U1 1_555 1_555
C1 O2 1_555 1_555
C4 O22 1_555 1_555
C5 C8 1_555 1_555
C8 C10 1_555 1_555
C9 C11 1_555 1_555

#END
