
#######################################################################
#
#                 Cambridge Crystallographic Data Centre
#                                CCDC 
#
#######################################################################
#
# If this CIF has been generated from an entry in the Cambridge 
# Structural Database, then it will include bibliographic, chemical, 
# crystal, experimental, refinement or atomic coordinate data resulting 
# from the CCDC's data processing and validation procedures.
#
#######################################################################

data_HEDCEA
_symmetry_cell_setting           orthorhombic
_symmetry_space_group_name_H-M   'P c c a'
_symmetry_Int_Tables_number      54
_space_group_name_Hall           '-P 2a 2ac'
loop_
_symmetry_equiv_pos_site_id
_symmetry_equiv_pos_as_xyz
1 x,y,z
2 1/2-x,-y,z
3 1/2+x,-y,1/2-z
4 -x,y,1/2-z
5 -x,-y,-z
6 1/2+x,y,-z
7 1/2-x,y,1/2+z
8 x,-y,1/2+z
_cell_length_a                   16.7758(6)
_cell_length_b                   11.0644(3)
_cell_length_c                   22.4317(8)
_cell_angle_alpha                90
_cell_angle_beta                 90
_cell_angle_gamma                90
_cell_volume                     4163.64
loop_
_atom_site_label
_atom_site_type_symbol
_atom_site_fract_x
_atom_site_fract_y
_atom_site_fract_z
C20 C 0.0000 0.6050(9) 0.2500
C21 C 0.0000 0.8165(14) 0.2500
C22 C 0.087(2) 0.743(2) 0.1783(15)
O6 O 0.0000 0.930(2) 0.2500
N2 N 0.0278(12) 0.7129(15) 0.2258(9)
C22C C -0.087(2) 0.743(2) 0.3217(15)
N2C N -0.0278(12) 0.7129(15) 0.2742(9)
Zn1 Zn -1.05903(4) 0.90626(5) 0.49124(3)
O1 O -0.4955(3) 0.8500(4) 0.0678(2)
O2 O -0.9652(2) 0.8330(4) 0.4467(2)
O3 O -0.5864(3) 0.9939(4) 0.08106(18)
O4 O -0.8736(2) 0.9748(3) 0.46142(19)
O5 O -0.6847(3) 0.6337(4) 0.2861(2)
N1 N -1.1307(3) 0.7598(4) 0.4801(2)
C1 C -1.2519(4) 0.6638(5) 0.4531(3)
H1 H -1.3027 0.6703 0.4367
C2 C -0.5918(4) 0.6540(5) 0.2095(3)
H2 H -0.5700 0.5805 0.2213
C3 C -0.7077(4) 0.7807(5) 0.3631(3)
H3 H -0.6541 0.8022 0.3624
C4 C -0.6886(4) 0.8101(5) 0.2218(3)
H4 H -0.7322 0.8418 0.2421
C5 C -0.8124(4) 0.6527(5) 0.3293(3)
H5 H -0.8298 0.5885 0.3058
C6 C -0.5551(3) 0.8953(5) 0.0939(3)
C7 C -0.6558(4) 0.7004(5) 0.2390(3)
C8 C -0.6555(4) 0.8711(5) 0.1745(3)
H6 H -0.6775 0.9445 0.1626
C9 C -1.1485(4) 0.5492(6) 0.4957(4)
H7 H -1.1272 0.4763 0.5088
C10 C -1.1052(4) 0.6537(6) 0.4988(4)
H8 H -1.0543 0.6497 0.5152
C11 C -0.8645(4) 0.7115(5) 0.3680(3)
H9 H -0.9173 0.6862 0.3705
C12 C -0.8970(4) 0.8761(5) 0.4403(3)
C13 C -0.7352(4) 0.6913(5) 0.3265(3)
C14 C -0.5903(3) 0.8255(5) 0.1441(3)
C15 C -0.8390(3) 0.8063(4) 0.4025(2)
C16 C -0.5593(4) 0.7157(5) 0.1623(3)
H10 H -0.5158 0.6832 0.1423
C17 C -1.2251(4) 0.5547(5) 0.4725(3)
C18 C -1.2036(4) 0.7657(5) 0.4576(3)
H11 H -1.2229 0.8398 0.4445
C19 C -0.7593(3) 0.8386(5) 0.4008(3)
H12 H -0.7407 0.8999 0.4255
Zn1A Zn -1.44097(4) 0.09374(5) 0.49124(3)
Zn1B Zn -0.55903(4) 1.09374(5) 0.00876(3)
Zn1C Zn -1.94097(4) -0.09374(5) 0.00876(3)
Zn1D Zn -0.94097(4) 1.09374(5) 0.50876(3)
Zn1E Zn -1.55903(4) -0.09374(5) 0.50876(3)
Zn1F Zn -0.44097(4) 0.90626(5) -0.00876(3)
Zn1G Zn -2.05903(4) 0.09374(5) -0.00876(3)
O1A O -2.0045(3) 0.1500(4) 0.0678(2)
O1F O -1.0045(3) 0.8500(4) 0.5678(2)
O1G O -1.4955(3) 0.1500(4) 0.5678(2)
O2A O -1.5348(2) 0.1670(4) 0.4467(2)
O3A O -1.9136(3) 0.0061(4) 0.08106(18)
O3B O -1.0864(3) 1.0061(4) 0.41894(18)
O3C O -1.4136(3) -0.0061(4) 0.41894(18)
O4A O -1.6264(2) 0.0252(3) 0.46142(19)
O4D O -1.1264(2) 1.0252(3) 0.53858(19)
O4E O -1.3736(2) -0.0252(3) 0.53858(19)
O5A O -1.8153(3) 0.3663(4) 0.2861(2)
N1A N -1.3693(3) 0.2402(4) 0.4801(2)
C1A C -1.2481(4) 0.3362(5) 0.4531(3)
H1A H -1.1973 0.3297 0.4367
C2A C -1.9082(4) 0.3460(5) 0.2095(3)
H2A H -1.9300 0.4195 0.2213
C3A C -1.7923(4) 0.2193(5) 0.3631(3)
H3A H -1.8459 0.1978 0.3624
C4A C -1.8114(4) 0.1899(5) 0.2218(3)
H4A H -1.7678 0.1582 0.2421
C5A C -1.6876(4) 0.3473(5) 0.3293(3)
H5A H -1.6702 0.4115 0.3058
C6A C -1.9449(3) 0.1047(5) 0.0939(3)
C7A C -1.8442(4) 0.2996(5) 0.2390(3)
C8A C -1.8445(4) 0.1289(5) 0.1745(3)
H6A H -1.8225 0.0555 0.1626
C9A C -1.3515(4) 0.4508(6) 0.4957(4)
H7A H -1.3728 0.5237 0.5088
C10A C -1.3948(4) 0.3463(6) 0.4988(4)
H8A H -1.4457 0.3503 0.5152
C11A C -1.6355(4) 0.2885(5) 0.3680(3)
H9A H -1.5827 0.3138 0.3705
C12A C -1.6030(4) 0.1239(5) 0.4403(3)
C13A C -1.7648(4) 0.3087(5) 0.3265(3)
C14A C -1.9097(3) 0.1745(5) 0.1441(3)
C15A C -1.6610(3) 0.1937(4) 0.4025(2)
C16A C -1.9407(4) 0.2843(5) 0.1623(3)
H10A H -1.9842 0.3168 0.1423
C17A C -1.2749(4) 0.4453(5) 0.4725(3)
C18A C -1.2964(4) 0.2343(5) 0.4576(3)
H11A H -1.2771 0.1602 0.4445
C19A C -1.7407(3) 0.1614(5) 0.4008(3)
H12A H -1.7593 0.1001 0.4255
loop_
_geom_bond_atom_site_label_1
_geom_bond_atom_site_label_2
_geom_bond_site_symmetry_1
_geom_bond_site_symmetry_2
Zn1 O2 1_555 1_555
O1 C6 1_555 1_555
O2 C12 1_555 1_555
O3 C6 1_555 1_555
O4 C12 1_555 1_555
O5 C7 1_555 1_555
N1 Zn1 1_555 1_555
C1 H1 1_555 1_555
C2 H2 1_555 1_555
C3 H3 1_555 1_555
C4 H4 1_555 1_555
C5 H5 1_555 1_555
C6 C14 1_555 1_555
C7 C2 1_555 1_555
C8 C4 1_555 1_555
H6 C8 1_555 1_555
C9 H7 1_555 1_555
C10 N1 1_555 1_555
H8 C10 1_555 1_555
C11 C5 1_555 1_555
H9 C11 1_555 1_555
C12 C15 1_555 1_555
C13 O5 1_555 1_555
C14 C8 1_555 1_555
C15 C11 1_555 1_555
C16 C2 1_555 1_555
H10 C16 1_555 1_555
C17 C1 1_555 1_555
C18 N1 1_555 1_555
H11 C18 1_555 1_555
C19 C3 1_555 1_555
H12 C19 1_555 1_555
C20 N2 1_555 1_555
C21 O6 1_555 1_555
C22 N2 1_555 1_555
N2 C21 1_555 1_555
Zn1A O1G 1_555 1_555
Zn1B O3 1_555 1_555
Zn1C O3A 1_555 1_555
Zn1D O4 1_555 1_555
Zn1E O4A 1_555 1_555
Zn1F O1 1_555 1_555
Zn1G O1A 1_555 1_555
O1A C6A 1_555 1_555
O1F Zn1 1_555 1_555
O2A Zn1A 1_555 1_555
O3A C6A 1_555 1_555
O3B Zn1 1_555 1_555
O3C Zn1A 1_555 1_555
O4A C12A 1_555 1_555
O4D Zn1 1_555 1_555
O4E Zn1A 1_555 1_555
O5A C7A 1_555 1_555
N1A Zn1A 1_555 1_555
C1A H1A 1_555 1_555
C2A H2A 1_555 1_555
C3A H3A 1_555 1_555
C4A H4A 1_555 1_555
C5A H5A 1_555 1_555
C6A C14A 1_555 1_555
C7A C2A 1_555 1_555
C8A C4A 1_555 1_555
H6A C8A 1_555 1_555
C9A H7A 1_555 1_555
C10A N1A 1_555 1_555
H8A C10A 1_555 1_555
C11A C5A 1_555 1_555
H9A C11A 1_555 1_555
C12A O2A 1_555 1_555
C13A O5A 1_555 1_555
C14A C8A 1_555 1_555
C15A C11A 1_555 1_555
C16A C2A 1_555 1_555
H10A C16A 1_555 1_555
C17A C17 1_555 1_555
C18A N1A 1_555 1_555
H11A C18A 1_555 1_555
C19A C3A 1_555 1_555
H12A C19A 1_555 1_555
C22C N2C 1_555 1_555
N2C C20 1_555 1_555
C1 C18 1_555 1_555
C3 C13 1_555 1_555
C4 C7 1_555 1_555
C5 C13 1_555 1_555
C9 C10 1_555 1_555
C9 C17 1_555 1_555
C14 C16 1_555 1_555
C15 C19 1_555 1_555
C21 N2C 1_555 1_555
N2 N2C 1_555 1_555
C1A C17A 1_555 1_555
C1A C18A 1_555 1_555
C3A C13A 1_555 1_555
C4A C7A 1_555 1_555
C5A C13A 1_555 1_555
C9A C10A 1_555 1_555
C9A C17A 1_555 1_555
C12A C15A 1_555 1_555
C14A C16A 1_555 1_555
C15A C19A 1_555 1_555

#END
