
#######################################################################
#
#                 Cambridge Crystallographic Data Centre
#                                CCDC 
#
#######################################################################
#
# If this CIF has been generated from an entry in the Cambridge 
# Structural Database, then it will include bibliographic, chemical, 
# crystal, experimental, refinement or atomic coordinate data resulting 
# from the CCDC's data processing and validation procedures.
#
#######################################################################

data_HEDHOP
_symmetry_cell_setting           orthorhombic
_symmetry_space_group_name_H-M   'P 21 21 21'
_symmetry_Int_Tables_number      19
_space_group_name_Hall           'P 2ac 2ab'
loop_
_symmetry_equiv_pos_site_id
_symmetry_equiv_pos_as_xyz
1 x,y,z
2 1/2-x,-y,1/2+z
3 1/2+x,1/2-y,-z
4 -x,1/2+y,1/2-z
_cell_length_a                   6.9396(7)
_cell_length_b                   7.3769(7)
_cell_length_c                   21.345(2)
_cell_angle_alpha                90
_cell_angle_beta                 90
_cell_angle_gamma                90
_cell_volume                     1092.71
loop_
_atom_site_label
_atom_site_type_symbol
_atom_site_fract_x
_atom_site_fract_y
_atom_site_fract_z
Cd1 Cd 0.67706(3) 0.49828(3) -0.145987(9)
Cd2 Cd 1.15311(3) 0.73711(3) -0.201919(10)
Cl1 Cl 1.00049(10) 0.38504(9) -0.19802(4)
Cl2 Cl 0.84337(11) 0.81307(8) -0.14502(3)
Cl3 Cl 0.34953(11) 0.61555(9) -0.10935(3)
N1 N 0.5744(3) 0.1937(3) -0.16993(11)
N2 N 0.5824(3) 0.1591(3) -0.23156(12)
N3 N 0.4431(3) 0.0487(3) -0.24751(12)
N4 N 0.3414(3) 0.0059(3) -0.19603(10)
N5 N 0.2584(3) 0.0369(3) 0.04118(11)
C1 C 0.4256(4) 0.0950(4) -0.14927(15)
C2 C 0.4440(4) 0.0291(4) 0.02405(14)
H1 H 0.5366 0.0104 0.0549
C3 C 0.5034(4) 0.0474(4) -0.03683(14)
H2 H 0.6336 0.04 -0.0468
C4 C 0.3676(4) 0.0770(3) -0.08342(13)
C5 C 0.1749(5) 0.0810(4) -0.06645(13)
H3 H 0.0794 0.0983 -0.0964
C6 C 0.1276(4) 0.0587(4) -0.00435(14)
H4 H -0.0021 0.0587 0.0066
Cd1B Cd 0.17706(3) 0.00172(3) 0.145987(9)
Cd1C Cd 0.32294(3) -0.00172(3) -0.354013(9)
Cd2_2 Cd 0.15311(3) -0.26289(3) -0.201919(10)
Cd2_3 Cd 0.15311(3) 0.73711(3) -0.201919(10)
Cd2C Cd 0.84689(3) 0.23711(3) -0.298081(10)
Cl1C Cl 0.99951(10) 0.88504(9) -0.30198(4)
Cl3_2 Cl 1.34953(11) 0.61555(9) -0.10935(3)
N2C N 1.4176(3) 0.6591(3) -0.26844(12)
N3C N 0.5569(3) 0.5487(3) -0.25249(12)
N4_2 N 1.3414(3) 1.0059(3) -0.19603(10)
N5B N 0.7584(3) 0.4631(3) -0.04118(11)
loop_
_geom_bond_atom_site_label_1
_geom_bond_atom_site_label_2
_geom_bond_site_symmetry_1
_geom_bond_site_symmetry_2
Cd1 Cl1 1_555 1_555
Cd2 Cl1 1_555 1_555
Cl1 Cd2C 1_555 1_555
Cl2 Cd1 1_555 1_555
Cl3 Cd1 1_555 1_555
N1 Cd1 1_555 1_555
N2 N1 1_555 1_555
N3 N2 1_555 1_555
N4 N3 1_555 1_555
N5 C2 1_555 1_555
C1 N1 1_555 1_555
C2 H1 1_555 1_555
C3 C2 1_555 1_555
H2 C3 1_555 1_555
C4 C1 1_555 1_555
C5 C4 1_555 1_555
H3 C5 1_555 1_555
C6 N5 1_555 1_555
H4 C6 1_555 1_555
Cd1B N5 1_555 1_555
Cd1C N3 1_555 1_555
Cd2_2 N4 1_555 1_555
Cd2_3 Cl3 1_555 1_555
Cd2C N2 1_555 1_555
Cl1C Cd2 1_555 1_555
Cl3_2 Cd2 1_555 1_555
N2C Cd2 1_555 1_555
N3C Cd1 1_555 1_555
N4_2 Cd2 1_555 1_555
N5B Cd1 1_555 1_555
Cd2 Cl2 1_555 1_555
N4 C1 1_555 1_555
C3 C4 1_555 1_555
C5 C6 1_555 1_555

#END
