
#######################################################################
#
#                 Cambridge Crystallographic Data Centre
#                                CCDC 
#
#######################################################################
#
# If this CIF has been generated from an entry in the Cambridge 
# Structural Database, then it will include bibliographic, chemical, 
# crystal, experimental, refinement or atomic coordinate data resulting 
# from the CCDC's data processing and validation procedures.
#
#######################################################################

data_HEDJIL
_symmetry_cell_setting           monoclinic
_symmetry_space_group_name_H-M   'P 21'
_symmetry_Int_Tables_number      4
_space_group_name_Hall           'P 2yb'
loop_
_symmetry_equiv_pos_site_id
_symmetry_equiv_pos_as_xyz
1 x,y,z
2 -x,1/2+y,-z
_cell_length_a                   12.1944(8)
_cell_length_b                   20.2254(13)
_cell_length_c                   17.5747(11)
_cell_angle_alpha                90
_cell_angle_beta                 96.7570(10)
_cell_angle_gamma                90
_cell_volume                     4304.46
loop_
_atom_site_label
_atom_site_type_symbol
_atom_site_fract_x
_atom_site_fract_y
_atom_site_fract_z
Ag2 Ag 0.54235(17) -0.00702(12) -0.11545(16)
N5 N 0.4303(17) -0.0046(11) -0.0292(13)
N6 N 0.0969(15) -0.0214(13) -0.0823(14)
N7 N -0.0132(17) -0.0131(14) -0.1148(15)
N8 N 0.6614(17) -0.0179(11) -0.1939(13)
C15 C 0.3240(16) -0.0018(10) -0.0502(13)
H15 H 0.2984 -0.0091 -0.1015
C16 C 0.463(2) 0.0069(14) 0.046(2)
H16 H 0.5387 0.0085 0.0611
C17 C 0.397(2) 0.0159(16) 0.0977(18)
H17 H 0.4243 0.0187 0.1493
C18 C 0.281(3) 0.0215(16) 0.0742(15)
H18 H 0.2327 0.0318 0.1094
C19 C 0.2451(18) 0.0117(12) 0.0014(15)
C20 C 0.133(3) 0.0142(15) -0.0296(19)
C21 C 0.064(3) 0.0656(17) 0.005(2)
H19 H 0.0517 0.1022 -0.0297
H20 H 0.1029 0.0807 0.0525
H21 H -0.0050 0.0466 0.0139
C22 C 0.050(2) -0.0555(17) -0.2313(18)
H22 H 0.1209 -0.0504 -0.2015
H23 H 0.0494 -0.0313 -0.2783
H24 H 0.0370 -0.1014 -0.2425
C23 C -0.0402(19) -0.0288(13) -0.1859(14)
C24 C -0.1511(18) -0.0276(11) -0.2138(17)
C25 C -0.185(2) -0.0360(14) -0.290(2)
H25 H -0.1324 -0.0464 -0.3225
C26 C -0.294(2) -0.0297(16) -0.3218(18)
H26 H -0.3162 -0.0298 -0.3742
C27 C 0.636(2) -0.0236(18) -0.2688(19)
H27 H 0.5609 -0.0233 -0.2868
C28 C 0.7676(17) -0.0187(12) -0.1687(16)
H28 H 0.7879 -0.0127 -0.1165
C24_2 C 0.8489(18) -0.0276(11) -0.2138(17)
C26_2 C 0.706(2) -0.0297(16) -0.3218(18)
C27_2 C -0.364(2) -0.0236(18) -0.2688(19)
C28_2 C -0.2324(17) -0.0187(12) -0.1687(16)
Ag3 Ag 0.88607(17) 0.14802(13) -0.16242(14)
N9 N 0.7749(16) 0.1538(11) -0.0744(14)
N10 N 0.4502(17) 0.1251(11) -0.1381(14)
N11 N 0.3352(15) 0.1218(10) -0.1668(13)
N12 N 1.0036(15) 0.1341(10) -0.2425(12)
C29 C 0.670(2) 0.1514(12) -0.0922(16)
H29 H 0.6445 0.1467 -0.1439
C30 C 0.812(2) 0.1660(16) -0.003(2)
H30 H 0.8870 0.1728 0.0107
C31 C 0.742(2) 0.1688(15) 0.0521(17)
H31 H 0.7704 0.1735 0.1034
C32 C 0.619(3) 0.1641(16) 0.029(2)
H32 H 0.5683 0.1676 0.0642
C33 C 0.591(2) 0.1550(12) -0.0427(17)
C34 C 0.4717(18) 0.1493(12) -0.0740(17)
C35 C 0.386(2) 0.1766(13) -0.0268(17)
H33 H 0.3216 0.1491 -0.0334
H34 H 0.3670 0.2207 -0.0434
H35 H 0.4158 0.1772 0.0263
C36 C 0.399(2) 0.1364(16) -0.2922(15)
H36 H 0.4465 0.1726 -0.2750
H37 H 0.3635 0.1457 -0.3428
H38 H 0.4417 0.0967 -0.2932
C37 C 0.312(2) 0.1276(11) -0.2382(17)
C38 C 0.1911(19) 0.1231(12) -0.2694(15)
C39 C 0.156(2) 0.1106(11) -0.3416(15)
H39 H 0.2068 0.1045 -0.3762
C40 C 0.0426(19) 0.1063(12) -0.3678(15)
H40 H 0.0166 0.0963 -0.4184
C41 C 0.974(2) 0.1176(11) -0.3138(17)
H41 H 0.8989 0.1133 -0.3290
C42 C 1.119(2) 0.1340(12) -0.2184(16)
H42 H 1.1453 0.1414 -0.1672
C38_2 C 1.1911(19) 0.1231(12) -0.2694(15)
C40_2 C 1.0426(19) 0.1063(12) -0.3678(15)
C41_2 C -0.026(2) 0.1176(11) -0.3138(17)
C42_2 C 0.119(2) 0.1340(12) -0.2184(16)
O1 O 0.497(3) 0.206(3) 0.361(2)
O2 O 0.359(3) -0.0511(18) -0.236(2)
O3 O 0.293(2) -0.3499(13) 0.2774(16)
O4 O 0.315(6) -0.081(3) 0.495(4)
O5 O -0.569(5) -0.120(3) -0.364(3)
O6 O 0.367(4) -0.226(3) 0.269(3)
O7 O 0.452(7) 0.107(4) 0.441(5)
O8 O 0.187(4) -0.162(2) -0.097(3)
O9 O 0.267(9) -0.162(5) 0.066(6)
P1 P -0.1204(4) -0.0592(2) 0.3061(3)
W1 W 0.15450(8) -0.05211(5) 0.26234(6)
W2 W 0.07566(8) 0.04945(5) 0.40384(6)
W3 W -0.01817(8) 0.08090(5) 0.21467(6)
W4 W 0.05394(10) -0.19445(5) 0.36163(7)
W5 W -0.21585(9) -0.19872(5) 0.40196(7)
W6 W -0.02935(9) -0.09189(5) 0.50088(6)
W7 W -0.04460(10) -0.16603(6) 0.16043(7)
W8 W -0.31412(9) -0.16655(5) 0.20206(6)
W9 W -0.21302(9) -0.03236(5) 0.10940(6)
W10 W -0.39952(8) -0.05904(5) 0.35089(7)
W11 W -0.21070(9) 0.04779(5) 0.44715(6)
W12 W -0.30468(9) 0.07489(5) 0.25673(6)
O10 O 0.2794(13) -0.0586(9) 0.2396(10)
O11 O 0.1614(15) 0.0965(10) 0.4613(11)
O12 O 0.0078(15) 0.1474(8) 0.1616(12)
O13 O 0.1441(16) -0.2575(9) 0.3787(11)
O14 O -0.2751(19) -0.2642(9) 0.4419(12)
O15 O 0.0200(16) -0.0947(9) 0.5935(12)
O16 O 0.0074(15) -0.2189(8) 0.1012(10)
O17 O -0.4113(14) -0.2176(10) 0.1631(12)
O18 O -0.2556(14) -0.0113(8) 0.0222(10)
O19 O -0.5245(17) -0.0666(11) 0.3717(11)
O20 O -0.2354(16) 0.0971(9) 0.5211(11)
O21 O -0.3848(15) 0.1394(9) 0.2192(12)
O22 O 0.0688(16) -0.1008(10) 0.1873(10)
O23 O 0.1087(11) 0.0260(9) 0.2065(9)
O24 O 0.1369(15) -0.1220(9) 0.3291(10)
O25 O 0.1797(14) 0.0030(10) 0.3513(9)
O26 O -0.0697(16) 0.0706(9) 0.4237(11)
O27 O 0.0612(15) -0.0250(9) 0.4635(10)
O28 O 0.0445(13) 0.0997(9) 0.3146(9)
O29 O -0.0981(13) 0.0245(10) 0.1396(11)
O30 O -0.1607(15) 0.0991(8) 0.2432(9)
O31 O -0.0819(15) -0.2347(10) 0.3828(12)
O32 O -0.0056(16) -0.2007(10) 0.2557(12)
O33 O 0.0644(14) -0.1545(9) 0.4596(9)
O34 O -0.2571(15) -0.2066(9) 0.2987(12)
O35 O -0.1420(13) -0.1585(9) 0.4889(9)
O36 O -0.3205(13) -0.1310(8) 0.4025(10)
O37 O -0.1392(16) -0.0260(9) 0.4999(11)
O38 O -0.1894(14) -0.2002(10) 0.1610(11)
O39 O -0.3200(15) -0.1009(8) 0.1250(10)
O40 O -0.3915(13) -0.1083(8) 0.2582(10)
O41 O -0.1141(16) -0.0989(10) 0.0914(11)
O42 O -0.2990(13) 0.0196(8) 0.1712(11)
O43 O -0.4180(14) 0.0209(8) 0.2887(10)
O44 O -0.3444(15) -0.0015(9) 0.4342(9)
O45 O -0.2748(14) 0.0963(8) 0.3627(9)
O46 O -0.0266(15) -0.0162(7) 0.2986(10)
O47 O -0.0935(12) -0.1106(7) 0.3658(10)
O48 O -0.1550(12) -0.0910(7) 0.2302(9)
O49 O -0.2168(14) -0.0176(8) 0.3300(10)
Ag1 Ag 0.3353(2) -0.21853(14) -0.23073(17)
N1 N 0.192(2) -0.2345(12) -0.3083(16)
N2 N -0.1153(16) -0.2072(12) -0.2388(15)
N3 N -0.213(3) -0.1967(14) -0.2138(16)
N4 N 0.473(2) -0.1955(12) -0.1502(14)
C1 C 0.093(3) -0.2328(15) -0.282(2)
H1 H 0.0883 -0.2248 -0.2299
C2 C 0.197(2) -0.2530(13) -0.374(2)
H2 H 0.2658 -0.2541 -0.3913
C3 C 0.103(3) -0.2733(12) -0.4260(18)
H3 H 0.1131 -0.2916 -0.4732
C4 C 0.007(2) -0.2657(11) -0.4062(15)
H4 H -0.0561 -0.2750 -0.4399
C5 C -0.002(2) -0.2429(11) -0.3314(18)
C6 C -0.116(2) -0.2308(15) -0.3032(19)
C7 C -0.208(3) -0.2514(18) -0.3548(19)
H5 H -0.2748 -0.2450 -0.3316
H6 H -0.2005 -0.2974 -0.3667
H7 H -0.2115 -0.2259 -0.4011
C8 C -0.123(3) -0.1998(19) -0.0887(19)
H8 H -0.0683 -0.2277 -0.1073
H9 H -0.1446 -0.2181 -0.0423
H10 H -0.0931 -0.1564 -0.0787
C9 C -0.220(2) -0.1957(15) -0.1464(17)
C10 C -0.327(2) -0.1865(11) -0.1211(17)
C11 C -0.357(3) -0.1657(15) -0.0469(19)
H11 H -0.2998 -0.1596 -0.0074
C12 C -0.463(4) -0.1542(15) -0.031(2)
H12 H -0.4789 -0.1338 0.0139
C13 C 0.459(3) -0.1741(18) -0.084(2)
H13 H 0.3865 -0.1724 -0.0720
C14 C 0.573(2) -0.2019(16) -0.1703(17)
H14 H 0.5804 -0.2172 -0.2194
C10_2 C 0.673(2) -0.1865(11) -0.1211(17)
C12_2 C 0.537(4) -0.1542(15) -0.031(2)
C13_2 C -0.541(3) -0.1741(18) -0.084(2)
C14_2 C -0.427(2) -0.2019(16) -0.1703(17)
O50? O 0.361(4) -0.275(3) 0.331(3)
loop_
_geom_bond_atom_site_label_1
_geom_bond_atom_site_label_2
_geom_bond_site_symmetry_1
_geom_bond_site_symmetry_2
Ag1 N1 1_555 1_555
N1 C1 1_555 1_555
N2 N3 1_555 1_555
N3 C9 1_555 1_555
N4 Ag1 1_555 1_555
C1 H1 1_555 1_555
C2 N1 1_555 1_555
H2 C2 1_555 1_555
C3 C2 1_555 1_555
H3 C3 1_555 1_555
C4 C3 1_555 1_555
H4 C4 1_555 1_555
C5 C1 1_555 1_555
C6 N2 1_555 1_555
C7 C6 1_555 1_555
H5 C7 1_555 1_555
H6 C7 1_555 1_555
H7 C7 1_555 1_555
C8 H8 1_555 1_555
H9 C8 1_555 1_555
H10 C8 1_555 1_555
C9 C8 1_555 1_555
C10 C9 1_555 1_555
C11 C10 1_555 1_555
H11 C11 1_555 1_555
C12 C11 1_555 1_555
H12 C12 1_555 1_555
C13 N4 1_555 1_555
H13 C13 1_555 1_555
C14 N4 1_555 1_555
H14 C14 1_555 1_555
Ag2 N5 1_555 1_555
N5 C15 1_555 1_555
N6 N7 1_555 1_555
N7 C23 1_555 1_555
N8 Ag2 1_555 1_555
C15 H15 1_555 1_555
C16 N5 1_555 1_555
H16 C16 1_555 1_555
C17 C16 1_555 1_555
H17 C17 1_555 1_555
C18 C17 1_555 1_555
H18 C18 1_555 1_555
C19 C15 1_555 1_555
C20 N6 1_555 1_555
C21 C20 1_555 1_555
H19 C21 1_555 1_555
H20 C21 1_555 1_555
H21 C21 1_555 1_555
C22 H22 1_555 1_555
H23 C22 1_555 1_555
H24 C22 1_555 1_555
C23 C22 1_555 1_555
C24 C23 1_555 1_555
C25 C24 1_555 1_555
H25 C25 1_555 1_555
C26 C25 1_555 1_555
H26 C26 1_555 1_555
C27 N8 1_555 1_555
H27 C27 1_555 1_555
C28 N8 1_555 1_555
H28 C28 1_555 1_555
Ag3 N9 1_555 1_555
N9 C29 1_555 1_555
N10 N11 1_555 1_555
N11 C37 1_555 1_555
N12 Ag3 1_555 1_555
C29 H29 1_555 1_555
C30 N9 1_555 1_555
H30 C30 1_555 1_555
C31 C30 1_555 1_555
H31 C31 1_555 1_555
C32 C31 1_555 1_555
H32 C32 1_555 1_555
C33 C29 1_555 1_555
C34 N10 1_555 1_555
C35 C34 1_555 1_555
H33 C35 1_555 1_555
H34 C35 1_555 1_555
H35 C35 1_555 1_555
C36 H36 1_555 1_555
H37 C36 1_555 1_555
H38 C36 1_555 1_555
C37 C36 1_555 1_555
C38 C37 1_555 1_555
C39 C38 1_555 1_555
H39 C39 1_555 1_555
C40 C39 1_555 1_555
H40 C40 1_555 1_555
C41 N12 1_555 1_555
H41 C41 1_555 1_555
C42 N12 1_555 1_555
H42 C42 1_555 1_555
P1 O46 1_555 1_555
W1 O10 1_555 1_555
W2 O11 1_555 1_555
W3 O12 1_555 1_555
W4 O13 1_555 1_555
W5 O14 1_555 1_555
W6 O15 1_555 1_555
W7 O16 1_555 1_555
W8 O17 1_555 1_555
W9 O18 1_555 1_555
W10 O19 1_555 1_555
W11 O20 1_555 1_555
W12 O21 1_555 1_555
O22 W1 1_555 1_555
O23 W1 1_555 1_555
O24 W1 1_555 1_555
O25 W1 1_555 1_555
O26 W2 1_555 1_555
O27 W2 1_555 1_555
O28 W2 1_555 1_555
O29 W3 1_555 1_555
O30 W3 1_555 1_555
O31 W4 1_555 1_555
O32 W4 1_555 1_555
O33 W4 1_555 1_555
O34 W5 1_555 1_555
O35 W5 1_555 1_555
O36 W5 1_555 1_555
O37 W6 1_555 1_555
O38 W7 1_555 1_555
O39 W8 1_555 1_555
O40 W8 1_555 1_555
O41 W7 1_555 1_555
O42 W9 1_555 1_555
O43 W10 1_555 1_555
O44 W10 1_555 1_555
O45 W11 1_555 1_555
O46 W1 1_555 1_555
O47 P1 1_555 1_555
O48 P1 1_555 1_555
O49 P1 1_555 1_555
C10_2 C14 1_555 1_555
C12_2 C13 1_555 1_555
C13_2 C12 1_555 1_555
C14_2 C10 1_555 1_555
C24_2 C28 1_555 1_555
C26_2 C27 1_555 1_555
C27_2 C26 1_555 1_555
C28_2 C24 1_555 1_555
C38_2 C42 1_555 1_555
C40_2 C41 1_555 1_555
C41_2 C40 1_555 1_555
C42_2 C38 1_555 1_555
C4 C5 1_555 1_555
C5 C6 1_555 1_555
C18 C19 1_555 1_555
C19 C20 1_555 1_555
C32 C33 1_555 1_555
C33 C34 1_555 1_555
W2 O25 1_555 1_555
W2 O46 1_555 1_555
W3 O23 1_555 1_555
W3 O28 1_555 1_555
W3 O46 1_555 1_555
W4 O24 1_555 1_555
W4 O47 1_555 1_555
W5 O31 1_555 1_555
W5 O47 1_555 1_555
W6 O27 1_555 1_555
W6 O33 1_555 1_555
W6 O35 1_555 1_555
W6 O47 1_555 1_555
W7 O22 1_555 1_555
W7 O32 1_555 1_555
W7 O48 1_555 1_555
W8 O34 1_555 1_555
W8 O38 1_555 1_555
W8 O48 1_555 1_555
W9 O29 1_555 1_555
W9 O39 1_555 1_555
W9 O41 1_555 1_555
W9 O48 1_555 1_555
W10 O36 1_555 1_555
W10 O40 1_555 1_555
W10 O49 1_555 1_555
W11 O26 1_555 1_555
W11 O37 1_555 1_555
W11 O44 1_555 1_555
W11 O49 1_555 1_555
W12 O30 1_555 1_555
W12 O42 1_555 1_555
W12 O43 1_555 1_555
W12 O45 1_555 1_555
W12 O49 1_555 1_555

#END
