
#######################################################################
#
#                 Cambridge Crystallographic Data Centre
#                                CCDC 
#
#######################################################################
#
# If this CIF has been generated from an entry in the Cambridge 
# Structural Database, then it will include bibliographic, chemical, 
# crystal, experimental, refinement or atomic coordinate data resulting 
# from the CCDC's data processing and validation procedures.
#
#######################################################################

data_HEDJAD
_symmetry_cell_setting           triclinic
_symmetry_space_group_name_H-M   'P -1'
_symmetry_Int_Tables_number      2
_space_group_name_Hall           '-P 1'
loop_
_symmetry_equiv_pos_site_id
_symmetry_equiv_pos_as_xyz
1 x,y,z
2 -x,-y,-z
_cell_length_a                   8.1645(8)
_cell_length_b                   8.2253(8)
_cell_length_c                   12.3145(12)
_cell_angle_alpha                83.306(2)
_cell_angle_beta                 80.590(2)
_cell_angle_gamma                63.071(2)
_cell_volume                     726.543
loop_
_atom_site_label
_atom_site_type_symbol
_atom_site_fract_x
_atom_site_fract_y
_atom_site_fract_z
Ag1 Ag 0.69680(3) -0.20469(4) 0.24348(2)
S1 S 0.86084(10) 0.00128(10) 0.20310(6)
S2 S 0.95549(14) -0.52642(13) 0.26472(11)
N1 N 0.4312(4) 0.2420(4) -0.0953(2)
N2 N 0.5568(3) 0.1177(4) 0.6190(2)
N3 N 1.2376(5) -0.4792(5) 0.3370(4)
C1 C 0.5919(5) 0.2529(5) -0.1086(3)
H1 H 0.6494 0.2599 -0.1824
C2 C 0.6797(5) 0.2546(5) -0.0226(3)
H2 H 0.7953 0.2621 -0.0367
C3 C 0.5988(4) 0.2454(4) 0.0844(2)
C4 C 0.4325(4) 0.2366(5) 0.0987(3)
H3 H 0.3714 0.2309 0.1716
C5 C 0.3534(5) 0.2361(5) 0.0081(3)
H4 H 0.2364 0.2313 0.0201
C6 C 0.6933(4) 0.2389(4) 0.1810(3)
H5 H 0.6044 0.2799 0.2454
H6 H 0.7550 0.3159 0.1656
C7 C 0.9538(4) 0.0061(4) 0.3272(2)
H7 H 1.0583 -0.1094 0.3381
H8 H 0.9973 0.0982 0.3161
C8 C 0.8170(4) 0.0438(4) 0.4293(2)
C9 C 0.7192(4) 0.2184(4) 0.4682(2)
H9 H 0.7404 0.3174 0.4305
C10 C 0.5910(4) 0.2494(4) 0.5614(3)
H10 H 0.5231 0.3717 0.5860
C11 C 0.6551(4) -0.0522(4) 0.5828(2)
H11 H 0.6340 -0.1492 0.6237
C12 C 0.7844(4) -0.0947(4) 0.4903(2)
H12 H 0.8513 -0.2184 0.4681
C13 C 1.1186(5) -0.4948(4) 0.3082(3)
Ag1A Ag 0.30320(3) 0.20469(4) -0.24348(2)
Ag1_2 Ag 0.69680(3) -0.20469(4) -0.75652(2)
Ag1A_2 Ag 0.30320(3) 0.20469(4) 0.75652(2)
S1A S 0.13916(10) -0.00128(10) -0.20310(6)
S2A S 0.04451(14) 0.52642(13) -0.26472(11)
N1A N 0.5688(4) -0.2420(4) 0.0953(2)
N2A N 0.4432(3) -0.1177(4) -0.6190(2)
N2_2 N 0.5568(3) 0.1177(4) -0.3810(2)
N2A_2 N 0.4432(3) -0.1177(4) 0.3810(2)
N3A N -0.2376(5) 0.4792(5) -0.3370(4)
C1A C 0.4081(5) -0.2529(5) 0.1086(3)
H1A H 0.3506 -0.2599 0.1824
C2A C 0.3203(5) -0.2546(5) 0.0226(3)
H2A H 0.2047 -0.2621 0.0367
C3A C 0.4012(4) -0.2454(4) -0.0844(2)
C4A C 0.5675(4) -0.2366(5) -0.0987(3)
H3A H 0.6286 -0.2309 -0.1716
C5A C 0.6466(5) -0.2361(5) -0.0081(3)
H4A H 0.7636 -0.2313 -0.0201
C6A C 0.3067(4) -0.2389(4) -0.1810(3)
H5A H 0.3956 -0.2799 -0.2454
H6A H 0.2450 -0.3159 -0.1656
C7A C 0.0462(4) -0.0061(4) -0.3272(2)
H7A H -0.0583 0.1094 -0.3381
H8A H 0.0027 -0.0982 -0.3161
C8A C 0.1830(4) -0.0438(4) -0.4293(2)
C9A C 0.2808(4) -0.2184(4) -0.4682(2)
H9A H 0.2596 -0.3174 -0.4305
C10A C 0.4090(4) -0.2494(4) -0.5614(3)
H10A H 0.4769 -0.3717 -0.5860
C11A C 0.3449(4) 0.0522(4) -0.5828(2)
H11A H 0.3660 0.1492 -0.6237
C12A C 0.2156(4) 0.0947(4) -0.4903(2)
H12A H 0.1487 0.2184 -0.4681
C13A C -0.1186(5) 0.4948(4) -0.3082(3)
loop_
_geom_bond_atom_site_label_1
_geom_bond_atom_site_label_2
_geom_bond_site_symmetry_1
_geom_bond_site_symmetry_2
Ag1 S1 1_555 1_555
S1 C6 1_555 1_555
S2 Ag1 1_555 1_555
N1 C1 1_555 1_555
N2 C10 1_555 1_555
N3 C13 1_555 1_555
C1 H1 1_555 1_555
C2 C1 1_555 1_555
H2 C2 1_555 1_555
C3 C2 1_555 1_555
C4 C3 1_555 1_555
H3 C4 1_555 1_555
C5 N1 1_555 1_555
H4 C5 1_555 1_555
C6 C3 1_555 1_555
H5 C6 1_555 1_555
H6 C6 1_555 1_555
C7 S1 1_555 1_555
H7 C7 1_555 1_555
H8 C7 1_555 1_555
C8 C7 1_555 1_555
C9 C8 1_555 1_555
H9 C9 1_555 1_555
C10 C9 1_555 1_555
H10 C10 1_555 1_555
C11 N2 1_555 1_555
H11 C11 1_555 1_555
C12 C8 1_555 1_555
H12 C12 1_555 1_555
C13 S2 1_555 1_555
Ag1A N1 1_555 1_555
Ag1_2 N2A 1_555 1_555
Ag1A_2 N2 1_555 1_555
S1A Ag1A 1_555 1_555
S2A Ag1A 1_555 1_555
N1A Ag1 1_555 1_555
N2A C10A 1_555 1_555
N2_2 Ag1A 1_555 1_555
N2A_2 Ag1 1_555 1_555
N3A C13A 1_555 1_555
C1A N1A 1_555 1_555
H1A C1A 1_555 1_555
C2A C1A 1_555 1_555
H2A C2A 1_555 1_555
C3A C2A 1_555 1_555
C4A C3A 1_555 1_555
H3A C4A 1_555 1_555
C5A N1A 1_555 1_555
H4A C5A 1_555 1_555
C6A S1A 1_555 1_555
H5A C6A 1_555 1_555
H6A C6A 1_555 1_555
C7A S1A 1_555 1_555
H7A C7A 1_555 1_555
H8A C7A 1_555 1_555
C8A C7A 1_555 1_555
C9A C8A 1_555 1_555
H9A C9A 1_555 1_555
C10A C9A 1_555 1_555
H10A C10A 1_555 1_555
C11A N2A 1_555 1_555
H11A C11A 1_555 1_555
C12A C8A 1_555 1_555
H12A C12A 1_555 1_555
C13A S2A 1_555 1_555
C4 C5 1_555 1_555
C11 C12 1_555 1_555
C3A C6A 1_555 1_555
C4A C5A 1_555 1_555
C11A C12A 1_555 1_555

#END
