
#######################################################################
#
#                 Cambridge Crystallographic Data Centre
#                                CCDC 
#
#######################################################################
#
# If this CIF has been generated from an entry in the Cambridge 
# Structural Database, then it will include bibliographic, chemical, 
# crystal, experimental, refinement or atomic coordinate data resulting 
# from the CCDC's data processing and validation procedures.
#
#######################################################################

data_HEDJUX
_symmetry_cell_setting           triclinic
_symmetry_space_group_name_H-M   'P -1'
_symmetry_Int_Tables_number      2
_space_group_name_Hall           '-P 1'
loop_
_symmetry_equiv_pos_site_id
_symmetry_equiv_pos_as_xyz
1 x,y,z
2 -x,-y,-z
_cell_length_a                   14.2253(7)
_cell_length_b                   15.6220(8)
_cell_length_c                   17.6383(9)
_cell_angle_alpha                90.988(4)
_cell_angle_beta                 95.278(3)
_cell_angle_gamma                92.213(3)
_cell_volume                     3899.34
loop_
_atom_site_label
_atom_site_type_symbol
_atom_site_fract_x
_atom_site_fract_y
_atom_site_fract_z
P1 P -0.4096(2) -0.2018(2) -0.26442(18)
W1 W -0.57710(4) -0.03929(4) -0.29757(4)
W2 W -0.52402(4) -0.10620(4) -0.11517(4)
W3 W -0.65449(4) -0.23825(4) -0.24492(4)
W4 W -0.16573(4) -0.15239(4) -0.28198(4)
W5 W -0.24724(4) -0.36717(4) -0.22432(4)
W6 W -0.35063(4) -0.27413(4) -0.07668(4)
W7 W -0.54099(4) -0.33727(4) -0.40323(4)
W8 W -0.30678(4) -0.29617(4) -0.42101(4)
W9 W -0.46556(4) -0.13858(4) -0.45645(4)
W10 W -0.48156(4) -0.40699(4) -0.20619(4)
W11 W -0.26982(4) -0.05998(4) -0.13483(4)
W12 W -0.32417(4) 0.00493(4) -0.31761(4)
O1 O -0.6424(7) 0.0447(6) -0.3260(6)
O2 O -0.5587(7) -0.0656(7) -0.0346(6)
O3 O -0.7685(6) -0.2763(7) -0.2407(6)
O4 O -0.0511(6) -0.1509(8) -0.3002(7)
O5 O -0.1595(7) -0.4367(7) -0.2174(7)
O6 O -0.3300(7) -0.2898(7) 0.0181(6)
O7 O -0.6120(8) -0.4128(7) -0.4504(6)
O8 O -0.2343(7) -0.3416(8) -0.4807(5)
O9 O -0.4914(8) -0.0878(7) -0.5386(6)
O10 O -0.5364(6) -0.5015(6) -0.1908(6)
O11 O -0.2188(8) -0.0007(8) -0.0621(7)
O12 O -0.3053(7) 0.1047(6) -0.3545(6)
O13 O -0.6714(6) -0.1296(7) -0.2871(6)
O14 O -0.5495(6) -0.0939(6) -0.3901(5)
O15 O -0.4504(6) 0.0088(6) -0.2936(6)
O16 O -0.6301(6) -0.1791(6) -0.1485(6)
O17 O -0.4593(6) -0.2048(7) -0.0821(5)
O18 O -0.4006(7) -0.0546(6) -0.1229(6)
O19 O -0.5828(5) -0.3306(7) -0.2040(5)
O20 O -0.6215(6) -0.2819(7) -0.3372(5)
O21 O -0.2056(6) -0.0473(6) -0.3228(6)
O22 O -0.1612(6) -0.0952(7) -0.1846(6)
O23 O -0.1828(6) -0.2578(7) -0.2332(6)
O24 O -0.3584(6) -0.4442(6) -0.2180(5)
O25 O -0.2835(6) -0.3601(6) -0.3316(5)
O26 O -0.2572(6) -0.3391(7) -0.1194(6)
O27 O -0.2813(6) -0.1725(7) -0.0914(6)
O28 O -0.4352(6) -0.3711(7) -0.1053(6)
O29 O -0.5460(7) -0.2406(7) -0.4661(6)
O30 O -0.4217(7) -0.3629(7) -0.4387(6)
O31 O -0.5017(6) -0.3983(6) -0.3133(5)
O32 O -0.3658(6) -0.2114(7) -0.4805(5)
O33 O -0.2241(7) -0.2104(7) -0.3710(5)
O34 O -0.3724(6) -0.0618(7) -0.4048(5)
O35 O -0.2863(7) 0.0237(6) -0.2122(6)
O36 O -0.5725(6) -0.0268(7) -0.1889(6)
O37 O -0.4986(5) -0.1633(5) -0.2410(5)
O38 O -0.3860(6) -0.2759(6) -0.2157(5)
O39 O -0.4224(6) -0.2307(6) -0.3460(5)
O40 O -0.3307(6) -0.1347(6) -0.2552(5)
Ag1 Ag -0.62884(7) -0.64664(9) -0.15480(8)
N1 N -0.4929(8) -0.7072(8) -0.1436(8)
N2 N -0.1664(8) -0.6923(9) -0.1692(7)
N3 N -0.0932(8) -0.6323(8) -0.1867(9)
N4 N 0.2370(8) -0.5835(9) -0.1702(8)
C1 C -0.4172(8) -0.6701(9) -0.1630(7)
H1 H -0.4191 -0.6135 -0.1786
C2 C -0.4929(11) -0.7907(12) -0.1236(10)
H2 H -0.5479 -0.8157 -0.1075
C3 C -0.4141(10) -0.8406(10) -0.1260(12)
H3 H -0.4178 -0.8993 -0.1181
C4 C -0.3267(10) -0.7977(10) -0.1410(9)
H4 H -0.2700 -0.8257 -0.1372
C5 C -0.3312(9) -0.7122(10) -0.1615(9)
C6 C -0.2461(9) -0.6589(11) -0.1796(9)
H5 H -0.2519 -0.6036 -0.1977
C7 C -0.0131(9) -0.6542(11) -0.1622(10)
H6 H -0.0051 -0.7055 -0.1369
C8 C 0.0699(8) -0.5963(10) -0.1742(8)
C9 C 0.0602(9) -0.5152(10) -0.1982(10)
H7 H 0.0007 -0.4936 -0.2102
C10 C 0.1406(11) -0.4655(11) -0.2045(9)
H8 H 0.1361 -0.4080 -0.2167
C11 C 0.2320(11) -0.5023(13) -0.1923(9)
H9 H 0.2866 -0.4700 -0.1997
C12 C 0.1613(10) -0.6318(11) -0.1614(9)
H10 H 0.1669 -0.6885 -0.1470
N4_2 N -0.7630(8) -0.5835(9) -0.1702(8)
Ag1_2 Ag 0.37116(7) -0.64664(9) -0.15480(8)
Ag2 Ag -0.28226(9) -0.42160(14) -0.61746(10)
Ag3 Ag -0.7633(3) -0.2490(3) -0.5652(3)
N5 N -0.4179(9) -0.3609(9) -0.6377(8)
N6 N -0.7492(8) -0.3880(10) -0.6197(9)
N7 N -0.8185(8) -0.4491(10) -0.6081(7)
N8 N -1.1496(9) -0.4825(12) -0.6088(8)
C13 C -0.4965(10) -0.3997(10) -0.6253(9)
H11 H -0.4936 -0.4562 -0.6100
C14 C -0.4217(12) -0.2783(12) -0.6600(10)
H12 H -0.3671 -0.2503 -0.6737
C15 C -0.5058(14) -0.2339(12) -0.6629(10)
H13 H -0.5052 -0.1753 -0.6716
C16 C -0.5896(12) -0.2782(10) -0.6529(10)
H14 H -0.6468 -0.2513 -0.6593
C17 C -0.5866(10) -0.3640(10) -0.6329(8)
C18 C -0.6709(10) -0.4199(10) -0.6214(8)
H15 H -0.6650 -0.4785 -0.6156
C19 C -0.9015(11) -0.4202(14) -0.6168(11)
H16 H -0.9097 -0.3625 -0.6266
C20 C -0.9850(11) -0.4793(5) -0.6112(10)
C21 C -0.9786(7) -0.5669(6) -0.5990(10)
H17 H -0.9204 -0.5923 -0.5955
C22 C -1.0618(9) -0.6159(12) -0.5923(13)
H18 H -1.0598 -0.6745 -0.5844
C23 C -1.1532(15) -0.5727(19) -0.5981(15)
H19 H -1.2101 -0.6031 -0.5949
C24 C -1.0727(10) -0.4445(12) -0.6119(9)
H20 H -1.0738 -0.3852 -0.6152
O41 O -0.780(2) -0.169(2) -0.472(2)
H21 H -0.7838 -0.1979 -0.4270
C25 C -0.785(4) -0.085(4) -0.466(4)
H22 H -0.7387 -0.0578 -0.4951
H23 H -0.8469 -0.0688 -0.4856
H24 H -0.7733 -0.0675 -0.4138
N8_2 N -0.1496(9) -0.4825(12) -0.6088(8)
Ag2_2 Ag -1.28226(9) -0.42160(14) -0.61746(10)
Ag4 Ag -0.5000 -0.5000 0.0000
N9 N -0.6301(7) -0.4372(9) -0.0079(7)
N10 N -0.9630(7) -0.4698(8) -0.0079(7)
C26 C -0.7107(9) -0.4826(9) 0.0096(9)
H25 H -0.7066 -0.5381 0.0276
C27 C -0.6382(9) -0.3543(9) -0.0313(8)
H26 H -0.5845 -0.3237 -0.0437
C28 C -0.7236(9) -0.3148(11) -0.0370(8)
H27 H -0.7270 -0.2577 -0.0506
C29 C -0.8032(11) -0.3612(11) -0.0221(8)
H28 H -0.8616 -0.3359 -0.0271
C30 C -0.7973(9) -0.4447(9) 0.0002(8)
C31 C -0.8828(10) -0.4974(11) 0.0125(10)
H29 H -0.8774 -0.5505 0.0352
N9A N -0.3699(7) -0.5628(9) 0.0079(7)
N10A N -1.0370(7) -0.5302(8) 0.0079(7)
C31A C -1.1172(10) -0.5026(11) -0.0125(10)
H29A H -1.1226 -0.4495 -0.0352
C30A C -1.2027(9) -0.5553(9) -0.0002(8)
C26A C -1.2893(9) -0.5174(9) -0.0096(9)
C29A C -1.1968(11) -0.6388(11) 0.0221(8)
N9A_2 N -1.3699(7) -0.5628(9) 0.0079(7)
H25A H -1.2934 -0.4619 -0.0276
C28A C -1.2764(9) -0.6852(11) 0.0370(8)
H28A H -1.1384 -0.6641 0.0271
Ag4_2 Ag -1.5000 -0.5000 0.0000
C27A C -1.3618(9) -0.6457(9) 0.0313(8)
H27A H -1.2730 -0.7423 0.0506
H26A H -1.4155 -0.6763 0.0437
N11 N -0.0167(7) 0.2057(6) 0.0635(5)
C32 C 0.0604(8) 0.2570(11) 0.0384(6)
H30 H 0.0881 0.3027 0.0680
C33 C -0.044(3) 0.1263(9) 0.0225(15)
H31 H 0.0119 0.0951 0.0154
H32 H -0.0755 0.1385 -0.0262
H33 H -0.0851 0.0925 0.0512
C34 C -0.0488(16) 0.211(3) 0.1387(7)
H34 H -0.0310 0.2668 0.1610
H35 H -0.0205 0.1679 0.1700
H36 H -0.1163 0.2033 0.1351
O42 O 0.0887(15) 0.2380(17) -0.0243(8)
N12 N -0.1396(7) -0.1528(5) 0.4668(7)
C35 C -0.1742(15) -0.0698(8) 0.4862(17)
H37 H -0.2332 -0.0775 0.5081
H38 H -0.1834 -0.0365 0.4411
H39 H -0.1290 -0.0404 0.5223
C36 C -0.0536(10) -0.1955(16) 0.492(2)
H40 H -0.0695 -0.2515 0.5095
H41 H -0.0189 -0.1625 0.5321
H42 H -0.0156 -0.2008 0.4497
C37 C -0.173(2) -0.2096(7) 0.4035(7)
H43 H -0.2291 -0.1831 0.3886
O43 O -0.1801(17) -0.2689(9) 0.3549(9)
O44 O -0.2708(19) -0.2020(19) 0.2090(16)
O45 O -0.246(3) -0.094(3) 0.109(3)
O46 O -0.906(3) -0.184(3) -0.649(2)
O47 O -0.055(4) 0.115(4) 0.741(3)
O48? O -0.238(4) -0.128(4) 0.202(3)
O49? O -0.212(3) -0.070(3) 0.165(2)
loop_
_geom_bond_atom_site_label_1
_geom_bond_atom_site_label_2
_geom_bond_site_symmetry_1
_geom_bond_site_symmetry_2
P1 O37 1_555 1_555
W1 O1 1_555 1_555
W2 O2 1_555 1_555
W3 O3 1_555 1_555
W4 O4 1_555 1_555
W5 O5 1_555 1_555
W6 O6 1_555 1_555
W7 O7 1_555 1_555
W8 O8 1_555 1_555
W9 O9 1_555 1_555
W10 O10 1_555 1_555
W11 O11 1_555 1_555
W12 O12 1_555 1_555
O13 W1 1_555 1_555
O14 W1 1_555 1_555
O15 W1 1_555 1_555
O16 W2 1_555 1_555
O17 W2 1_555 1_555
O18 W2 1_555 1_555
O19 W3 1_555 1_555
O20 W3 1_555 1_555
O21 W4 1_555 1_555
O22 W4 1_555 1_555
O23 W4 1_555 1_555
O24 W5 1_555 1_555
O25 W5 1_555 1_555
O26 W5 1_555 1_555
O27 W6 1_555 1_555
O28 W6 1_555 1_555
O29 W7 1_555 1_555
O30 W7 1_555 1_555
O31 W7 1_555 1_555
O32 W8 1_555 1_555
O33 W4 1_555 1_555
O34 W9 1_555 1_555
O35 W11 1_555 1_555
O36 W1 1_555 1_555
O37 W1 1_555 1_555
O38 P1 1_555 1_555
O39 P1 1_555 1_555
O40 P1 1_555 1_555
Ag1 N1 1_555 1_555
N1 C1 1_555 1_555
N2 N3 1_555 1_555
N3 C7 1_555 1_555
N4 C11 1_555 1_555
C1 H1 1_555 1_555
C2 N1 1_555 1_555
H2 C2 1_555 1_555
C3 C2 1_555 1_555
H3 C3 1_555 1_555
C4 C3 1_555 1_555
H4 C4 1_555 1_555
C5 C1 1_555 1_555
C6 N2 1_555 1_555
H5 C6 1_555 1_555
C7 H6 1_555 1_555
C8 C7 1_555 1_555
C9 C8 1_555 1_555
H7 C9 1_555 1_555
C10 C9 1_555 1_555
H8 C10 1_555 1_555
C11 C10 1_555 1_555
H9 C11 1_555 1_555
C12 N4 1_555 1_555
H10 C12 1_555 1_555
Ag2 N5 1_555 1_555
Ag3 N6 1_555 1_555
N5 C13 1_555 1_555
N6 N7 1_555 1_555
N7 C19 1_555 1_555
N8 C23 1_555 1_555
C13 H11 1_555 1_555
C14 N5 1_555 1_555
H12 C14 1_555 1_555
C15 C14 1_555 1_555
H13 C15 1_555 1_555
C16 C15 1_555 1_555
H14 C16 1_555 1_555
C17 C13 1_555 1_555
C18 N6 1_555 1_555
H15 C18 1_555 1_555
C19 H16 1_555 1_555
C20 C19 1_555 1_555
C21 C20 1_555 1_555
H17 C21 1_555 1_555
C22 C21 1_555 1_555
H18 C22 1_555 1_555
C23 C22 1_555 1_555
H19 C23 1_555 1_555
C24 N8 1_555 1_555
H20 C24 1_555 1_555
O41 Ag3 1_555 1_555
H21 O41 1_555 1_555
C25 O41 1_555 1_555
H22 C25 1_555 1_555
H23 C25 1_555 1_555
H24 C25 1_555 1_555
Ag4 N9 1_555 1_555
N9 C26 1_555 1_555
N10 C31 1_555 1_555
C26 H25 1_555 1_555
C27 N9 1_555 1_555
H26 C27 1_555 1_555
C28 C27 1_555 1_555
H27 C28 1_555 1_555
C29 C28 1_555 1_555
H28 C29 1_555 1_555
C30 C26 1_555 1_555
C31 C30 1_555 1_555
H29 C31 1_555 1_555
N11 C32 1_555 1_555
C32 H30 1_555 1_555
C33 N11 1_555 1_555
H31 C33 1_555 1_555
H32 C33 1_555 1_555
H33 C33 1_555 1_555
C34 N11 1_555 1_555
H34 C34 1_555 1_555
H35 C34 1_555 1_555
H36 C34 1_555 1_555
O42 C32 1_555 1_555
N12 C35 1_555 1_555
C35 H37 1_555 1_555
H38 C35 1_555 1_555
H39 C35 1_555 1_555
C36 N12 1_555 1_555
H40 C36 1_555 1_555
H41 C36 1_555 1_555
H42 C36 1_555 1_555
C37 N12 1_555 1_555
H43 C37 1_555 1_555
O43 C37 1_555 1_555
N4_2 Ag1 1_555 1_555
Ag1_2 N4 1_555 1_555
N8_2 Ag2 1_555 1_555
Ag2_2 N8 1_555 1_555
N9A Ag4 1_555 1_555
N10A N10 1_555 1_555
C31A N10A 1_555 1_555
H29A C31A 1_555 1_555
C30A C31A 1_555 1_555
C26A C30A 1_555 1_555
C29A C30A 1_555 1_555
N9A_2 C26A 1_555 1_555
H25A C26A 1_555 1_555
C28A C29A 1_555 1_555
H28A C29A 1_555 1_555
Ag4_2 N9A_2 1_555 1_555
C27A N9A_2 1_555 1_555
H27A C28A 1_555 1_555
H26A C27A 1_555 1_555
W2 O36 1_555 1_555
W2 O37 1_555 1_555
W3 O13 1_555 1_555
W3 O16 1_555 1_555
W3 O37 1_555 1_555
W4 O40 1_555 1_555
W5 O23 1_555 1_555
W5 O38 1_555 1_555
W6 O17 1_555 1_555
W6 O26 1_555 1_555
W6 O38 1_555 1_555
W7 O20 1_555 1_555
W7 O39 1_555 1_555
W8 O25 1_555 1_555
W8 O30 1_555 1_555
W8 O33 1_555 1_555
W8 O39 1_555 1_555
W9 O14 1_555 1_555
W9 O29 1_555 1_555
W9 O32 1_555 1_555
W9 O39 1_555 1_555
W10 O19 1_555 1_555
W10 O24 1_555 1_555
W10 O28 1_555 1_555
W10 O31 1_555 1_555
W10 O38 1_555 1_555
W11 O18 1_555 1_555
W11 O22 1_555 1_555
W11 O27 1_555 1_555
W11 O40 1_555 1_555
W12 O15 1_555 1_555
W12 O21 1_555 1_555
W12 O34 1_555 1_555
W12 O35 1_555 1_555
W12 O40 1_555 1_555
C4 C5 1_555 1_555
C5 C6 1_555 1_555
C8 C12 1_555 1_555
C16 C17 1_555 1_555
C17 C18 1_555 1_555
C20 C24 1_555 1_555
C29 C30 1_555 1_555
C28A C27A 1_555 1_555

#END
