
#######################################################################
#
#                 Cambridge Crystallographic Data Centre
#                                CCDC 
#
#######################################################################
#
# If this CIF has been generated from an entry in the Cambridge 
# Structural Database, then it will include bibliographic, chemical, 
# crystal, experimental, refinement or atomic coordinate data resulting 
# from the CCDC's data processing and validation procedures.
#
#######################################################################

data_HEDJEH
_symmetry_cell_setting           monoclinic
_symmetry_space_group_name_H-M   'P 21'
_symmetry_Int_Tables_number      4
_space_group_name_Hall           'P 2yb'
loop_
_symmetry_equiv_pos_site_id
_symmetry_equiv_pos_as_xyz
1 x,y,z
2 -x,1/2+y,-z
_cell_length_a                   12.259(2)
_cell_length_b                   20.215(4)
_cell_length_c                   17.619(4)
_cell_angle_alpha                90
_cell_angle_beta                 97.105(4)
_cell_angle_gamma                90
_cell_volume                     4332.74
loop_
_atom_site_label
_atom_site_type_symbol
_atom_site_fract_x
_atom_site_fract_y
_atom_site_fract_z
P1 P -0.3724(3) -0.35764(17) 0.19450(17)
Mo1 Mo -0.45484(11) -0.32526(6) -0.00287(6)
Mo2 Mo -0.28108(10) -0.21584(6) 0.10143(7)
Mo3 Mo -0.55373(10) -0.22615(6) 0.13320(7)
Mo4 Mo -0.17512(10) -0.25461(6) 0.30028(7)
Mo5 Mo -0.44510(11) -0.24598(6) 0.33535(7)
Mo6 Mo -0.29101(9) -0.38372(6) 0.39176(6)
Mo7 Mo -0.28461(9) -0.47088(6) 0.05645(7)
Mo8 Mo -0.18373(9) -0.48927(6) 0.24673(7)
Mo9 Mo -0.09780(9) -0.35899(6) 0.14405(7)
Mo10 Mo -0.64549(9) -0.36627(6) 0.24097(7)
Mo11 Mo -0.57563(9) -0.46319(6) 0.09417(7)
Mo12 Mo -0.47584(9) -0.50147(5) 0.27905(7)
O1 O -0.5043(7) -0.3185(5) -0.0942(4)
O2 O -0.2197(9) -0.1559(6) 0.0630(6)
O3 O -0.6446(7) -0.1643(5) 0.1176(6)
O4 O -0.0747(7) -0.2043(4) 0.3325(4)
O5 O -0.5053(8) -0.1917(5) 0.3930(5)
O6 O -0.2447(6) -0.4053(4) 0.4803(4)
O7 O -0.2657(7) -0.5187(4) -0.0170(4)
O8 O -0.1121(7) -0.5543(4) 0.2798(5)
O9 O 0.0309(6) -0.3448(5) 0.1262(5)
O10 O -0.7739(6) -0.3565(5) 0.2648(5)
O11 O -0.6556(7) -0.5142(5) 0.0314(5)
O12 O -0.5070(7) -0.5652(4) 0.3301(5)
O13 O -0.3511(7) -0.2553(6) 0.0093(6)
O14 O -0.3504(7) -0.3948(5) 0.0021(4)
O15 O -0.1436(6) -0.4182(5) 0.0667(4)
O16 O -0.1728(6) -0.3156(4) 0.3827(4)
O17 O -0.4185(7) -0.1778(4) 0.1113(5)
O18 O -0.2353(6) -0.2079(4) 0.2052(5)
O19 O -0.1761(6) -0.2867(4) 0.0966(5)
O20 O -0.4267(6) -0.4905(4) 0.0780(4)
O21 O -0.3008(6) -0.2107(4) 0.3407(5)
O22 O -0.5548(6) -0.3921(4) 0.0334(4)
O23 O -0.5484(6) -0.5191(4) 0.1821(4)
O24 O -0.6055(6) -0.4416(4) 0.2932(4)
O25 O -0.5585(6) -0.2611(5) 0.0409(5)
O26 O -0.5611(7) -0.3150(4) 0.3137(5)
O27 O -0.1067(6) -0.3117(4) 0.2386(4)
O28 O -0.4853(7) -0.2119(4) 0.2438(4)
O29 O -0.2019(6) -0.4366(4) 0.3329(5)
O30 O -0.2187(7) -0.5155(4) 0.1390(5)
O31 O -0.3812(7) -0.3159(4) 0.4099(5)
O32 O -0.6772(6) -0.4183(5) 0.1472(5)
O33 O -0.6349(7) -0.2947(4) 0.1688(4)
O34 O -0.3346(6) -0.5186(4) 0.2566(5)
O35 O -0.3967(6) -0.4415(4) 0.3598(4)
O36 O -0.0745(8) -0.4358(4) 0.2127(6)
O37 O -0.4000(6) -0.3059(4) 0.1360(5)
O38 O -0.3339(6) -0.3255(4) 0.2710(4)
O39 O -0.2756(6) -0.4005(4) 0.1688(4)
O40 O -0.4727(6) -0.4015(4) 0.1989(4)
Ag1 Ag 0.61594(8) -0.56509(6) 0.66176(7)
N1 N 0.4981(7) -0.5521(4) 0.7424(5)
C1 C 0.3867(8) -0.5547(6) 0.7165(8)
H1 H 0.3631 -0.5665 0.6661
N2 N 0.1700(7) -0.5395(5) 0.6654(6)
C2 C 0.5317(9) -0.5372(6) 0.8170(6)
H2 H 0.6060 -0.5387 0.8358
N3 N 0.0501(7) -0.5389(5) 0.6390(5)
C3 C 0.4606(9) -0.5212(6) 0.8608(6)
H3 H 0.4864 -0.5050 0.9090
N4 N -0.2797(7) -0.5718(5) 0.5704(5)
C4 C 0.3447(9) -0.5264(6) 0.8412(9)
H4 H 0.2953 -0.5212 0.8768
C5 C 0.3118(10) -0.5399(6) 0.7651(7)
C6 C 0.2045(11) -0.5408(6) 0.7381(7)
C7 C 0.1085(11) -0.5460(7) 0.7909(7)
H5 H 0.0400 -0.5543 0.7597
H6 H 0.1037 -0.5052 0.8183
H7 H 0.1240 -0.5816 0.8267
C8 C 0.1118(8) -0.5931(6) 0.5226(6)
H8 H 0.1848 -0.5885 0.5489
H9 H 0.1061 -0.5689 0.4754
H10 H 0.0966 -0.6390 0.5120
C9 C 0.0310(8) -0.5665(7) 0.5714(7)
C10 C -0.0936(8) -0.5755(5) 0.5449(5)
C11 C -0.1268(10) -0.5838(7) 0.4686(7)
H11 H -0.0774 -0.5869 0.4327
C12 C -0.2362(8) -0.5871(6) 0.4493(7)
H12 H -0.2642 -0.5925 0.3982
C13 C -0.3084(10) -0.5827(6) 0.5040(7)
H13 H -0.3830 -0.5886 0.4882
C14 C -0.1622(9) -0.5676(7) 0.5930(8)
H14 H -0.1362 -0.5588 0.6439
O41 O 0.7845(8) -0.5525(4) 0.7653(4)
N5 N 0.8605(10) -0.6573(3) 0.8291(3)
C15 C 0.8278(11) -0.5899(3) 0.8181(5)
H15 H 0.8428 -0.5664 0.8636
C16 C 0.9045(14) -0.6781(6) 0.9021(4)
H16 H 0.9228 -0.7242 0.9007
H17 H 0.8514 -0.6714 0.9371
H18 H 0.9696 -0.6530 0.9187
C17 C 0.8633(16) -0.6966(5) 0.7641(4)
H19 H 0.8815 -0.7413 0.7794
H20 H 0.9177 -0.6798 0.7344
H21 H 0.7925 -0.6959 0.7339
N4_2 N 0.7203(7) -0.5718(5) 0.5704(5)
Ag1_2 Ag -0.38406(8) -0.56509(6) 0.66176(7)
Ag2 Ag 0.95885(8) -0.41010(6) -0.38565(7)
N6 N 0.8396(7) -0.4017(6) -0.3061(6)
N7 N 0.5128(8) -0.4153(6) -0.3831(6)
N8 N 0.4042(8) -0.4055(7) -0.4155(7)
N9 N 0.0682(6) -0.4102(5) -0.4725(6)
C18 C 0.7342(9) -0.3978(6) -0.3342(8)
H22 H 0.7149 -0.4029 -0.3866
C19 C 0.8724(10) -0.3979(7) -0.2287(7)
H23 H 0.9466 -0.4009 -0.2101
C20 C 0.7945(13) -0.3895(9) -0.1783(8)
H24 H 0.8148 -0.3863 -0.1258
C21 C 0.6799(10) -0.3860(6) -0.2116(7)
H25 H 0.6253 -0.3837 -0.1794
C22 C 0.6509(11) -0.3861(6) -0.2880(8)
C23 C 0.5349(8) -0.3875(5) -0.3165(6)
C24 C 0.4505(10) -0.3596(7) -0.2678(7)
H26 H 0.3828 -0.3837 -0.2784
H27 H 0.4377 -0.3138 -0.2800
H28 H 0.4780 -0.3639 -0.2146
C25 C 0.4348(13) -0.4823(10) -0.5042(9)
H29 H 0.4870 -0.5022 -0.4657
H30 H 0.4730 -0.4624 -0.5427
H31 H 0.3856 -0.5157 -0.5272
C26 C 0.3749(8) -0.4341(6) -0.4707(6)
C27 C 0.2536(8) -0.4259(5) -0.5039(6)
C28 C 0.2111(10) -0.4311(6) -0.5776(7)
H32 H 0.2609 -0.4364 -0.6129
C29 C 0.1027(9) -0.4293(7) -0.6061(6)
H33 H 0.0748 -0.4337 -0.6574
C30 C 0.0398(12) -0.4200(9) -0.5458(9)
H34 H -0.0357 -0.4209 -0.5604
C31 C 0.1736(9) -0.4158(6) -0.4476(6)
H35 H 0.1979 -0.4135 -0.3955
N9_2 N 1.0682(6) -0.4102(5) -0.4725(6)
Ag2_2 Ag -0.04115(8) -0.41010(6) -0.38565(7)
Ag3 Ag 0.15879(12) -0.19701(8) 0.73422(9)
N10 N 0.0097(11) -0.2212(7) 0.6583(7)
N11 N -0.2875(11) -0.2206(7) 0.7156(7)
N12 N -0.3926(11) -0.2053(6) 0.7304(7)
N13 N -0.6939(10) -0.1742(5) 0.8102(5)
C32 C -0.0850(12) -0.2105(7) 0.6758(7)
H36 H -0.0958 -0.1918 0.7225
C33 C 0.0351(10) -0.2435(7) 0.5967(8)
H37 H 0.1089 -0.2498 0.5914
C34 C -0.0514(9) -0.2603(7) 0.5303(9)
H38 H -0.0342 -0.2749 0.4831
C35 C -0.1558(15) -0.2522(8) 0.5462(10)
H39 H -0.2140 -0.2618 0.5088
C36 C -0.1783(15) -0.2291(8) 0.6188(10)
C37 C -0.2832(13) -0.2165(8) 0.6427(8)
C38 C -0.3971(15) -0.2124(10) 0.5887(9)
H40 H -0.4563 -0.2095 0.6194
H41 H -0.4063 -0.2513 0.5572
H42 H -0.3975 -0.1739 0.5567
C39 C -0.2883(15) -0.1642(9) 0.8591(8)
H43 H -0.2217 -0.1655 0.8356
H44 H -0.2815 -0.1933 0.9026
H45 H -0.3012 -0.1199 0.8754
C40 C -0.3886(12) -0.1876(7) 0.7990(10)
C41 C -0.5004(14) -0.1717(6) 0.8329(9)
C42 C -0.4986(16) -0.1533(8) 0.9058(10)
H46 H -0.4359 -0.1455 0.9400
C43 C -0.6084(13) -0.1477(6) 0.9222(10)
H47 H -0.6149 -0.1325 0.9713
C44 C -0.7073(13) -0.1608(7) 0.8786(8)
H48 H -0.7751 -0.1600 0.8971
C45 C -0.5933(11) -0.1850(7) 0.7845(8)
H49 H -0.5891 -0.2009 0.7354
N13_2 N 0.3061(10) -0.1742(5) 0.8102(5)
Ag3_2 Ag -0.84121(12) -0.19701(8) 0.73422(9)
O42 O 0.0237(9) -0.1515(3) 0.8435(6)
N14 N -0.0717(7) -0.0443(3) 0.8770(3)
C46 C -0.0083(8) -0.1035(3) 0.8817(5)
H50 H 0.0211 -0.1092 0.9325
C47 C -0.0701(15) -0.0037(5) 0.9419(4)
H51 H -0.1346 0.0237 0.9368
H52 H -0.0057 0.0237 0.9464
H53 H -0.0690 -0.0308 0.9867
C48 C -0.1325(10) -0.0271(6) 0.8065(4)
H54 H -0.1183 0.0182 0.7949
H55 H -0.2095 -0.0329 0.8098
H56 H -0.1110 -0.0551 0.7669
O43 O 0.1390(17) -0.3626(11) -0.2569(11)
O44 O 0.306(2) -0.2583(12) 0.5894(13)
O45? O 0.1951(19) -0.3326(12) 0.0053(12)
O46? O 0.0755(19) -0.3035(12) -0.1307(13)
O47? O 0.138(4) -0.249(2) 0.396(3)
O48? O 0.231(3) -0.2460(17) 0.4322(19)
O49? O 0.170(4) -0.365(3) -0.109(3)
O50? O 0.095(4) -0.385(2) -0.044(3)
loop_
_geom_bond_atom_site_label_1
_geom_bond_atom_site_label_2
_geom_bond_site_symmetry_1
_geom_bond_site_symmetry_2
P1 O37 1_555 1_555
Mo1 O1 1_555 1_555
Mo2 O2 1_555 1_555
Mo3 O3 1_555 1_555
Mo4 O4 1_555 1_555
Mo5 O5 1_555 1_555
Mo6 O6 1_555 1_555
Mo7 O7 1_555 1_555
Mo8 O8 1_555 1_555
Mo9 O9 1_555 1_555
Mo10 O10 1_555 1_555
Mo11 O11 1_555 1_555
Mo12 O12 1_555 1_555
O13 Mo1 1_555 1_555
O14 Mo1 1_555 1_555
O15 Mo7 1_555 1_555
O16 Mo4 1_555 1_555
O17 Mo2 1_555 1_555
O18 Mo2 1_555 1_555
O19 Mo2 1_555 1_555
O20 Mo7 1_555 1_555
O21 Mo4 1_555 1_555
O22 Mo1 1_555 1_555
O23 Mo11 1_555 1_555
O24 Mo10 1_555 1_555
O25 Mo1 1_555 1_555
O26 Mo5 1_555 1_555
O27 Mo4 1_555 1_555
O28 Mo3 1_555 1_555
O29 Mo6 1_555 1_555
O30 Mo7 1_555 1_555
O31 Mo5 1_555 1_555
O32 Mo10 1_555 1_555
O33 Mo3 1_555 1_555
O34 Mo8 1_555 1_555
O35 Mo6 1_555 1_555
O36 Mo8 1_555 1_555
O37 Mo1 1_555 1_555
O38 P1 1_555 1_555
O39 P1 1_555 1_555
O40 P1 1_555 1_555
Ag1 N1 1_555 1_555
N1 C1 1_555 1_555
C1 H1 1_555 1_555
N2 N3 1_555 1_555
C2 N1 1_555 1_555
H2 C2 1_555 1_555
N3 C9 1_555 1_555
C3 C2 1_555 1_555
H3 C3 1_555 1_555
N4 C13 1_555 1_555
C4 C3 1_555 1_555
H4 C4 1_555 1_555
C5 C1 1_555 1_555
C6 N2 1_555 1_555
C7 C6 1_555 1_555
H5 C7 1_555 1_555
H6 C7 1_555 1_555
H7 C7 1_555 1_555
C8 H8 1_555 1_555
H9 C8 1_555 1_555
H10 C8 1_555 1_555
C9 C8 1_555 1_555
C10 C9 1_555 1_555
C11 C10 1_555 1_555
H11 C11 1_555 1_555
C12 C11 1_555 1_555
H12 C12 1_555 1_555
C13 C12 1_555 1_555
H13 C13 1_555 1_555
C14 N4 1_555 1_555
H14 C14 1_555 1_555
O41 Ag1 1_555 1_555
N5 C15 1_555 1_555
C15 O41 1_555 1_555
H15 C15 1_555 1_555
C16 N5 1_555 1_555
H16 C16 1_555 1_555
H17 C16 1_555 1_555
H18 C16 1_555 1_555
C17 N5 1_555 1_555
H19 C17 1_555 1_555
H20 C17 1_555 1_555
H21 C17 1_555 1_555
Ag2 N6 1_555 1_555
N6 C18 1_555 1_555
N7 N8 1_555 1_555
N8 C26 1_555 1_555
N9 C30 1_555 1_555
C18 H22 1_555 1_555
C19 N6 1_555 1_555
H23 C19 1_555 1_555
C20 C19 1_555 1_555
H24 C20 1_555 1_555
C21 C20 1_555 1_555
H25 C21 1_555 1_555
C22 C18 1_555 1_555
C23 N7 1_555 1_555
C24 C23 1_555 1_555
H26 C24 1_555 1_555
H27 C24 1_555 1_555
H28 C24 1_555 1_555
C25 H29 1_555 1_555
H30 C25 1_555 1_555
H31 C25 1_555 1_555
C26 C25 1_555 1_555
C27 C26 1_555 1_555
C28 C27 1_555 1_555
H32 C28 1_555 1_555
C29 C28 1_555 1_555
H33 C29 1_555 1_555
C30 C29 1_555 1_555
H34 C30 1_555 1_555
C31 N9 1_555 1_555
H35 C31 1_555 1_555
Ag3 N10 1_555 1_555
N10 C32 1_555 1_555
N11 N12 1_555 1_555
N12 C40 1_555 1_555
N13 C44 1_555 1_555
C32 H36 1_555 1_555
C33 N10 1_555 1_555
H37 C33 1_555 1_555
C34 C33 1_555 1_555
H38 C34 1_555 1_555
C35 C34 1_555 1_555
H39 C35 1_555 1_555
C36 C32 1_555 1_555
C37 N11 1_555 1_555
C38 C37 1_555 1_555
H40 C38 1_555 1_555
H41 C38 1_555 1_555
H42 C38 1_555 1_555
C39 H43 1_555 1_555
H44 C39 1_555 1_555
H45 C39 1_555 1_555
C40 C39 1_555 1_555
C41 C40 1_555 1_555
C42 C41 1_555 1_555
H46 C42 1_555 1_555
C43 C42 1_555 1_555
H47 C43 1_555 1_555
C44 C43 1_555 1_555
H48 C44 1_555 1_555
C45 N13 1_555 1_555
H49 C45 1_555 1_555
O42 C46 1_555 1_555
N14 C46 1_555 1_555
C46 H50 1_555 1_555
C47 N14 1_555 1_555
H51 C47 1_555 1_555
H52 C47 1_555 1_555
H53 C47 1_555 1_555
C48 N14 1_555 1_555
H54 C48 1_555 1_555
H55 C48 1_555 1_555
H56 C48 1_555 1_555
N4_2 Ag1 1_555 1_555
Ag1_2 N4 1_555 1_555
N9_2 Ag2 1_555 1_555
Ag2_2 N9 1_555 1_555
N13_2 Ag3 1_555 1_555
Ag3_2 N13 1_555 1_555
Mo2 O13 1_555 1_555
Mo2 O37 1_555 1_555
Mo3 O17 1_555 1_555
Mo3 O25 1_555 1_555
Mo3 O37 1_555 1_555
Mo4 O18 1_555 1_555
Mo4 O38 1_555 1_555
Mo5 O21 1_555 1_555
Mo5 O28 1_555 1_555
Mo5 O38 1_555 1_555
Mo6 O16 1_555 1_555
Mo6 O31 1_555 1_555
Mo6 O38 1_555 1_555
Mo7 O14 1_555 1_555
Mo7 O39 1_555 1_555
Mo8 O29 1_555 1_555
Mo8 O30 1_555 1_555
Mo8 O39 1_555 1_555
Mo9 O15 1_555 1_555
Mo9 O19 1_555 1_555
Mo9 O27 1_555 1_555
Mo9 O36 1_555 1_555
Mo9 O39 1_555 1_555
Mo10 O26 1_555 1_555
Mo10 O33 1_555 1_555
Mo10 O40 1_555 1_555
Mo11 O20 1_555 1_555
Mo11 O22 1_555 1_555
Mo11 O32 1_555 1_555
Mo11 O40 1_555 1_555
Mo12 O23 1_555 1_555
Mo12 O24 1_555 1_555
Mo12 O34 1_555 1_555
Mo12 O35 1_555 1_555
Mo12 O40 1_555 1_555
C4 C5 1_555 1_555
C5 C6 1_555 1_555
C10 C14 1_555 1_555
C21 C22 1_555 1_555
C22 C23 1_555 1_555
C27 C31 1_555 1_555
C35 C36 1_555 1_555
C36 C37 1_555 1_555
C41 C45 1_555 1_555

#END
