
#######################################################################
#
#                 Cambridge Crystallographic Data Centre
#                                CCDC 
#
#######################################################################
#
# If this CIF has been generated from an entry in the Cambridge 
# Structural Database, then it will include bibliographic, chemical, 
# crystal, experimental, refinement or atomic coordinate data resulting 
# from the CCDC's data processing and validation procedures.
#
#######################################################################

data_HEDKEI
_symmetry_cell_setting           triclinic
_symmetry_space_group_name_H-M   'P -1'
_symmetry_Int_Tables_number      2
_space_group_name_Hall           '-P 1'
loop_
_symmetry_equiv_pos_site_id
_symmetry_equiv_pos_as_xyz
1 x,y,z
2 -x,-y,-z
_cell_length_a                   12.1046(2)
_cell_length_b                   12.9993(2)
_cell_length_c                   14.1836(2)
_cell_angle_alpha                105.0890(10)
_cell_angle_beta                 90.2270(10)
_cell_angle_gamma                102.7890(10)
_cell_volume                     2096.9
loop_
_atom_site_label
_atom_site_type_symbol
_atom_site_fract_x
_atom_site_fract_y
_atom_site_fract_z
Ag2 Ag 0.5000 0.0000 0.5000
N5 N 0.3578(5) -0.1415(5) 0.4819(6)
N6 N 0.0418(5) -0.4510(5) 0.5159(5)
C13 C 0.2163(6) -0.2540(6) 0.5503(6)
H11 H 0.1792 -0.2665 0.6050
C14 C 0.3016(7) -0.1631(6) 0.5588(7)
H12 H 0.3217 -0.1140 0.6201
C15 C 0.3273(7) -0.2123(7) 0.3964(7)
H13 H 0.3662 -0.1989 0.3428
C16 C 0.2424(7) -0.3039(7) 0.3814(7)
H14 H 0.2228 -0.3502 0.3187
C17 C 0.1858(6) -0.3273(6) 0.4592(6)
C18 C 0.0946(6) -0.4284(6) 0.4434(6)
H15 H 0.0758 -0.4752 0.3809
Ag2_2 Ag -0.5000 -1.0000 0.5000
N5A N -0.3578(5) -0.8585(5) 0.5181(6)
N5A_2 N 0.6422(5) 0.1415(5) 0.5181(6)
N6A N -0.0418(5) -0.5490(5) 0.4841(5)
C13A C -0.2163(6) -0.7460(6) 0.4497(6)
H11A H -0.1792 -0.7335 0.3950
C14A C -0.3016(7) -0.8369(6) 0.4412(7)
H12A H -0.3217 -0.8860 0.3799
C15A C -0.3273(7) -0.7877(7) 0.6036(7)
H13A H -0.3662 -0.8011 0.6572
C16A C -0.2424(7) -0.6961(7) 0.6186(7)
H14A H -0.2228 -0.6498 0.6813
C17A C -0.1858(6) -0.6727(6) 0.5408(6)
C18A C -0.0946(6) -0.5716(6) 0.5566(6)
H15A H -0.0758 -0.5248 0.6191
N7 N -0.5188(13) -0.9559(11) 0.7042(10)
C19 C -0.4998(11) -0.9119(13) 0.7839(13)
C20 C -0.4744(11) -0.8521(12) 0.8864(11)
H16 H -0.4269 -0.8861 0.9167
H17 H -0.5439 -0.8528 0.9190
H18 H -0.4357 -0.7778 0.8912
N8 N -0.4905(12) -0.4833(12) 0.8342(12)
O1 O -0.4697(13) -0.6441(15) 0.7609(12)
C21 C -0.5067(19) -0.5955(13) 0.8010(17)
H19 H -0.5711 -0.6318 0.8247
C22 C -0.4140(18) -0.423(2) 0.7873(16)
H20 H -0.3865 -0.4713 0.7341
H21 H -0.3515 -0.3794 0.8325
H22 H -0.4502 -0.3759 0.7624
C23 C -0.5373(19) -0.4024(17) 0.8925(18)
H23 H -0.4964 -0.3319 0.8875
H24 H -0.5325 -0.4051 0.9593
H25 H -0.6155 -0.4141 0.8709
P1 P -1.0000 -1.0000 0.0000
Mo1 Mo -0.87802(6) -1.15548(6) 0.12511(5)
Mo2 Mo -1.17446(6) -1.22986(5) 0.05863(5)
Mo3 Mo -1.06010(6) -0.98824(6) 0.24633(4)
Mo4 Mo -0.80179(7) -1.15258(7) -0.11631(5)
Mo5 Mo -0.90184(6) -0.75219(5) 0.18624(5)
Mo6 Mo -0.70844(6) -0.91420(6) 0.08171(5)
O2 O -0.8204(5) -1.2231(5) 0.1880(5)
O3 O -1.2520(6) -1.3384(5) 0.0852(5)
O4 O -1.0882(5) -0.9819(5) 0.3623(4)
O5 O -0.7144(6) -1.2273(6) -0.1705(5)
O6 O -0.8522(6) -0.6410(5) 0.2742(4)
O7 O -0.5725(5) -0.8745(6) 0.1166(5)
O8 O -0.7714(6) -0.8188(6) 0.1721(4)
O9 O -0.9496(5) -1.2510(6) -0.1630(6)
O10 O -0.7057(7) -1.0304(5) -0.0373(4)
O11 O -0.9550(5) -0.8560(6) 0.2620(6)
O12 O -1.1722(5) -0.9206(6) 0.2074(6)
O13 O -1.1609(5) -1.1230(5) 0.1771(5)
O14 O -1.2808(6) -1.1731(6) 0.0084(4)
O15 O -1.1409(6) -1.2893(6) -0.0737(4)
O16 O -1.0235(5) -1.2418(5) 0.0908(5)
O17 O -0.9446(5) -1.0631(5) 0.2304(4)
O18 O -0.7586(7) -1.0263(5) 0.1418(4)
O19 O -0.8326(7) -1.2034(6) 0.0005(4)
O20 O -0.9037(7) -0.9010(7) 0.0351(6)
O21 O -1.0220(7) -1.0653(7) 0.0736(6)
O22 O -1.1097(7) -0.9612(7) -0.0178(6)
O23 O -0.9752(7) -1.0723(7) -0.0969(6)
Mo1A Mo -1.12198(6) -0.84452(6) -0.12511(5)
Mo2A Mo -0.82554(6) -0.77014(5) -0.05863(5)
Mo3A Mo -0.93990(6) -1.01176(6) -0.24633(4)
Mo4A Mo -1.19821(7) -0.84742(7) 0.11631(5)
Mo5A Mo -1.09816(6) -1.24781(5) -0.18624(5)
Mo6A Mo -1.29156(6) -1.08580(6) -0.08171(5)
O2A O -1.1796(5) -0.7769(5) -0.1880(5)
O3A O -0.7480(6) -0.6616(5) -0.0852(5)
O4A O -0.9118(5) -1.0181(5) -0.3623(4)
O5A O -1.2856(6) -0.7727(6) 0.1705(5)
O6A O -1.1478(6) -1.3590(5) -0.2742(4)
O7A O -1.4275(5) -1.1255(6) -0.1166(5)
O8A O -1.2286(6) -1.1812(6) -0.1721(4)
O9A O -1.0504(5) -0.7490(6) 0.1630(6)
O10A O -1.2943(7) -0.9696(5) 0.0373(4)
O11A O -1.0450(5) -1.1440(6) -0.2620(6)
O12A O -0.8278(5) -1.0794(6) -0.2074(6)
O13A O -0.8391(5) -0.8770(5) -0.1771(5)
O14A O -0.7192(6) -0.8269(6) -0.0084(4)
O15A O -0.8591(6) -0.7107(6) 0.0737(4)
O16A O -0.9765(5) -0.7582(5) -0.0908(5)
O17A O -1.0554(5) -0.9369(5) -0.2304(4)
O18A O -1.2414(7) -0.9737(5) -0.1418(4)
O19A O -1.1674(7) -0.7966(6) -0.0005(4)
O20A O -1.0963(7) -1.0990(7) -0.0351(6)
O21A O -0.9780(7) -0.9347(7) -0.0736(6)
O22A O -0.8903(7) -1.0388(7) 0.0178(6)
O23A O -1.0248(7) -0.9277(7) 0.0969(6)
Ag1 Ag 0.09752(5) -0.07570(5) 0.43488(4)
N1 N 0.2370(5) 0.0652(5) 0.4531(4)
N2 N 0.5578(5) 0.3725(5) 0.4186(5)
N3 N 0.6442(5) 0.4704(5) 0.4486(5)
N4 N 0.9633(5) 0.7792(5) 0.4149(4)
C1 C 0.3657(6) 0.1899(6) 0.3842(5)
H1 H 0.3907 0.2111 0.3287
C2 C 0.2757(6) 0.1014(6) 0.3767(6)
H2 H 0.2399 0.0650 0.3151
C3 C 0.2886(6) 0.1205(6) 0.5412(6)
H3 H 0.2640 0.0966 0.5956
C4 C 0.3768(6) 0.2114(6) 0.5542(5)
H4 H 0.4083 0.2491 0.6169
C5 C 0.4185(5) 0.2468(6) 0.4757(5)
C6 C 0.5111(6) 0.3443(6) 0.4908(6)
H5 H 0.5362 0.3862 0.5541
C7 C 0.6992(6) 0.4906(6) 0.3777(6)
H6 H 0.6818 0.4423 0.3157
C8 C 0.7907(6) 0.5899(6) 0.3921(5)
C9 C 0.8329(5) 0.6562(5) 0.4834(5)
H7 H 0.8033 0.6387 0.5391
C10 C 0.9174(6) 0.7471(6) 0.4923(5)
H8 H 0.9452 0.7894 0.5549
C11 C 0.9232(7) 0.7151(7) 0.3274(6)
H9 H 0.9532 0.7344 0.2725
C12 C 0.8388(7) 0.6207(7) 0.3139(6)
H10 H 0.8144 0.5777 0.2508
Ag1_2 Ag 1.09752(5) 0.92430(5) 0.43488(4)
N4_2 N -0.0367(5) -0.2208(5) 0.4149(4)
N9? N -0.013(2) -0.5092(18) 0.0827(19)
C24? C 0.060(2) -0.4813(18) 0.036(2)
C25? C 0.166(3) -0.4478(19) -0.007(3)
H26? H 0.1522 -0.4620 -0.0768
H27? H 0.2189 -0.4883 0.0056
H28? H 0.1968 -0.3710 0.0205
loop_
_geom_bond_atom_site_label_1
_geom_bond_atom_site_label_2
_geom_bond_site_symmetry_1
_geom_bond_site_symmetry_2
Ag1 N1 1_555 1_555
N1 C2 1_555 1_555
N2 N3 1_555 1_555
N3 C7 1_555 1_555
N4 C10 1_555 1_555
C1 H1 1_555 1_555
C2 C1 1_555 1_555
H2 C2 1_555 1_555
C3 N1 1_555 1_555
H3 C3 1_555 1_555
C4 C3 1_555 1_555
H4 C4 1_555 1_555
C5 C1 1_555 1_555
C6 N2 1_555 1_555
H5 C6 1_555 1_555
C7 H6 1_555 1_555
C8 C7 1_555 1_555
C9 C8 1_555 1_555
H7 C9 1_555 1_555
C10 C9 1_555 1_555
H8 C10 1_555 1_555
C11 N4 1_555 1_555
H9 C11 1_555 1_555
C12 C8 1_555 1_555
H10 C12 1_555 1_555
Ag2 N5 1_555 1_555
N5 C14 1_555 1_555
N6 C18 1_555 1_555
C13 H11 1_555 1_555
C14 C13 1_555 1_555
H12 C14 1_555 1_555
C15 N5 1_555 1_555
H13 C15 1_555 1_555
C16 C15 1_555 1_555
H14 C16 1_555 1_555
C17 C13 1_555 1_555
C18 C17 1_555 1_555
H15 C18 1_555 1_555
N7 C19 1_555 1_555
C19 C20 1_555 1_555
C20 H16 1_555 1_555
H17 C20 1_555 1_555
H18 C20 1_555 1_555
N8 C21 1_555 1_555
O1 C21 1_555 1_555
C21 H19 1_555 1_555
C22 N8 1_555 1_555
H20 C22 1_555 1_555
H21 C22 1_555 1_555
H22 C22 1_555 1_555
C23 N8 1_555 1_555
H23 C23 1_555 1_555
H24 C23 1_555 1_555
H25 C23 1_555 1_555
P1 O20 1_555 1_555
Mo1 O2 1_555 1_555
Mo2 O3 1_555 1_555
Mo3 O4 1_555 1_555
Mo4 O5 1_555 1_555
Mo5 O6 1_555 1_555
Mo6 O7 1_555 1_555
O8 Mo5 1_555 1_555
O9 Mo4 1_555 1_555
O10 Mo4 1_555 1_555
O11 Mo3 1_555 1_555
O12 Mo3 1_555 1_555
O13 Mo2 1_555 1_555
O14 Mo2 1_555 1_555
O15 Mo2 1_555 1_555
O16 Mo1 1_555 1_555
O17 Mo1 1_555 1_555
O18 Mo1 1_555 1_555
O19 Mo1 1_555 1_555
O20 Mo5 1_555 1_555
O21 P1 1_555 1_555
O22 P1 1_555 1_555
O23 P1 1_555 1_555
Ag1_2 N4 1_555 1_555
N4_2 Ag1 1_555 1_555
Ag2_2 N5A 1_555 1_555
N5A C14A 1_555 1_555
N5A_2 Ag2 1_555 1_555
N6A N6 1_555 1_555
C13A H11A 1_555 1_555
C14A C13A 1_555 1_555
H12A C14A 1_555 1_555
C15A N5A 1_555 1_555
H13A C15A 1_555 1_555
C16A C15A 1_555 1_555
H14A C16A 1_555 1_555
C17A C13A 1_555 1_555
C18A N6A 1_555 1_555
H15A C18A 1_555 1_555
Mo1A O22 1_555 1_555
Mo2A O20 1_555 1_555
Mo3A O23 1_555 1_555
Mo4A O12 1_555 1_555
Mo5A O9 1_555 1_555
Mo6A O14 1_555 1_555
O2A Mo1A 1_555 1_555
O3A Mo2A 1_555 1_555
O4A Mo3A 1_555 1_555
O5A Mo4A 1_555 1_555
O6A Mo5A 1_555 1_555
O7A Mo6A 1_555 1_555
O8A Mo5A 1_555 1_555
O9A Mo5 1_555 1_555
O10A Mo4A 1_555 1_555
O11A Mo3A 1_555 1_555
O12A Mo4 1_555 1_555
O13A Mo2A 1_555 1_555
O14A Mo6 1_555 1_555
O15A Mo5 1_555 1_555
O16A Mo1A 1_555 1_555
O17A Mo1A 1_555 1_555
O18A Mo1A 1_555 1_555
O19A Mo1A 1_555 1_555
O20A P1 1_555 1_555
O21A P1 1_555 1_555
O22A P1 1_555 1_555
O23A P1 1_555 1_555
C4 C5 1_555 1_555
C5 C6 1_555 1_555
C11 C12 1_555 1_555
C16 C17 1_555 1_555
Mo1 O21 1_555 1_555
Mo1 O22A 1_555 1_555
Mo2 O16 1_555 1_555
Mo2 O21 1_555 1_555
Mo2 O20A 1_555 1_555
Mo3 O13 1_555 1_555
Mo3 O17 1_555 1_555
Mo3 O21 1_555 1_555
Mo3 O23A 1_555 1_555
Mo4 O19 1_555 1_555
Mo4 O22A 1_555 1_555
Mo5 O11 1_555 1_555
Mo5 O23A 1_555 1_555
Mo6 O8 1_555 1_555
Mo6 O10 1_555 1_555
Mo6 O18 1_555 1_555
Mo6 O20 1_555 1_555
Mo6 O22A 1_555 1_555
O15 Mo5A 1_555 1_555
O20 O21A 1_555 1_555
O20 O22A 1_555 1_555
O20 O23A 1_555 1_555
O21 O20A 1_555 1_555
O21 O22A 1_555 1_555
O21 O23A 1_555 1_555
O22 Mo4A 1_555 1_555
O22 Mo6A 1_555 1_555
O22 O20A 1_555 1_555
O22 O21A 1_555 1_555
O22 O23A 1_555 1_555
O23 Mo5A 1_555 1_555
O23 O20A 1_555 1_555
O23 O21A 1_555 1_555
O23 O22A 1_555 1_555
C16A C17A 1_555 1_555
C17A C18A 1_555 1_555
Mo1A O21A 1_555 1_555
Mo2A O14A 1_555 1_555
Mo2A O15A 1_555 1_555
Mo2A O16A 1_555 1_555
Mo2A O21A 1_555 1_555
Mo3A O12A 1_555 1_555
Mo3A O13A 1_555 1_555
Mo3A O17A 1_555 1_555
Mo3A O21A 1_555 1_555
Mo4A O9A 1_555 1_555
Mo4A O19A 1_555 1_555
Mo5A O11A 1_555 1_555
Mo5A O20A 1_555 1_555
Mo6A O8A 1_555 1_555
Mo6A O10A 1_555 1_555
Mo6A O18A 1_555 1_555
Mo6A O20A 1_555 1_555

#END
