
#######################################################################
#
#                 Cambridge Crystallographic Data Centre
#                                CCDC 
#
#######################################################################
#
# If this CIF has been generated from an entry in the Cambridge 
# Structural Database, then it will include bibliographic, chemical, 
# crystal, experimental, refinement or atomic coordinate data resulting 
# from the CCDC's data processing and validation procedures.
#
#######################################################################

data_HEDKAE
_symmetry_cell_setting           triclinic
_symmetry_space_group_name_H-M   'P -1'
_symmetry_Int_Tables_number      2
_space_group_name_Hall           '-P 1'
loop_
_symmetry_equiv_pos_site_id
_symmetry_equiv_pos_as_xyz
1 x,y,z
2 -x,-y,-z
_cell_length_a                   12.1185(12)
_cell_length_b                   13.7109(13)
_cell_length_c                   14.0587(14)
_cell_angle_alpha                73.451(2)
_cell_angle_beta                 82.619(2)
_cell_angle_gamma                73.220(2)
_cell_volume                     2141.1
loop_
_atom_site_label
_atom_site_type_symbol
_atom_site_fract_x
_atom_site_fract_y
_atom_site_fract_z
O1 O 0.463(4) 0.067(3) 0.432(3)
P1 P 0.5000 0.5000 0.5000
Mo1 Mo 0.42231(7) 0.43444(6) 0.29765(6)
O2 O 0.3854(7) 0.4130(6) 0.1971(5)
Mo2 Mo 0.26926(7) 0.67892(7) 0.35280(6)
O3 O 0.1604(7) 0.7604(6) 0.2873(5)
Mo3 Mo 0.23185(7) 0.43624(7) 0.51231(7)
O4 O 0.1155(6) 0.3979(6) 0.5198(7)
Mo4 Mo 0.66945(7) 0.53135(6) 0.27271(6)
O5 O 0.7518(6) 0.5429(6) 0.1698(5)
Mo5 Mo 0.47720(8) 0.24486(6) 0.63572(6)
O6 O 0.4675(8) 0.1274(5) 0.7041(5)
Mo6 Mo 0.67390(7) 0.27290(6) 0.42572(6)
O7 O 0.7495(6) 0.1658(5) 0.3901(5)
O8 O 0.5449(7) 0.5043(5) 0.2344(7)
O9 O 0.3112(7) 0.3984(5) 0.3913(6)
O10 O 0.5379(6) 0.3153(6) 0.3452(7)
O11 O 0.3305(8) 0.5826(5) 0.2801(5)
O12 O 0.1956(8) 0.5745(6) 0.4397(6)
O13 O 0.3836(8) 0.7472(7) 0.3142(5)
O14 O 0.2443(7) 0.7270(7) 0.4743(5)
O15 O 0.2289(8) 0.4642(6) 0.6337(6)
O16 O 0.3436(8) 0.2971(6) 0.5732(6)
O17 O 0.5947(8) 0.6680(5) 0.2706(5)
O18 O 0.7224(6) 0.3779(6) 0.3328(7)
O19 O 0.5656(7) 0.2173(8) 0.5266(5)
O20 O 0.3995(9) 0.5063(8) 0.4415(7)
O21 O 0.5686(9) 0.3802(8) 0.5401(7)
O22 O 0.4572(9) 0.5422(7) 0.5916(7)
O23 O 0.5819(10) 0.5590(8) 0.4360(8)
Ag2 Ag 0.25923(7) 0.37276(6) 0.07295(7)
N3 N 0.1257(7) 0.5080(6) 0.0903(7)
N4 N -0.1844(7) 0.8389(7) 0.0604(7)
N5 N -0.2712(7) 0.9283(7) 0.0782(7)
N6 N -0.5974(7) 1.2470(5) 0.0484(6)
C8 C -0.0155(7) 0.6662(7) 0.0282(8)
H8 H -0.0545 0.7140 -0.0261
C9 C 0.0677(8) 0.5799(7) 0.0147(8)
H9 H 0.0850 0.5705 -0.0490
C10 C 0.0975(8) 0.5231(7) 0.1800(8)
H10 H 0.1359 0.4720 0.2330
C11 C 0.0155(8) 0.6088(8) 0.2011(8)
H11 H 0.0004 0.6155 0.2658
C12 C -0.0436(7) 0.6845(7) 0.1229(7)
C13 C -0.1321(8) 0.7795(7) 0.1392(8)
C14 C -0.1519(11) 0.8001(9) 0.2375(8)
H12 H -0.2004 0.8703 0.2323
H13 H -0.0794 0.7933 0.2628
H14 H -0.1890 0.7501 0.2818
C15 C -0.2843(9) 0.9838(8) -0.1046(8)
H15 H -0.2199 0.9234 -0.1043
H16 H -0.2637 1.0463 -0.1440
H17 H -0.3487 0.9760 -0.1323
C16 C -0.3164(8) 0.9927(7) -0.0011(7)
C17 C -0.4134(7) 1.0821(7) 0.0167(6)
C18 C -0.4422(8) 1.1010(7) 0.1087(7)
H18 H -0.4004 1.0559 0.1626
C19 C -0.5310(8) 1.1847(8) 0.1234(7)
H19 H -0.5451 1.1983 0.1856
C20 C -0.5735(9) 1.2287(8) -0.0381(7)
H20 H -0.6206 1.2719 -0.0894
C21 C -0.4822(9) 1.1488(8) -0.0594(7)
H21 H -0.4676 1.1403 -0.1235
C22 C 0.1052(17) 0.2486(8) 0.2974(7)
N7 N 0.112(2) 0.1642(6) 0.3828(6)
O24 O 0.1617(18) 0.2346(19) 0.2230(9)
C23 C 0.062(3) 0.1846(14) 0.4740(9)
C24 C 0.152(4) 0.0593(7) 0.3760(16)
Mo1A Mo 0.57769(7) 0.56556(6) 0.70235(6)
O2A O 0.6146(7) 0.5870(6) 0.8029(5)
Mo2A Mo 0.73074(7) 0.32108(7) 0.64720(6)
O3A O 0.8396(7) 0.2396(6) 0.7127(5)
Mo3A Mo 0.76815(7) 0.56376(7) 0.48769(7)
O4A O 0.8845(6) 0.6021(6) 0.4802(7)
Mo4A Mo 0.33055(7) 0.46865(6) 0.72729(6)
O5A O 0.2482(6) 0.4571(6) 0.8302(5)
Mo5A Mo 0.52280(8) 0.75514(6) 0.36428(6)
O6A O 0.5325(8) 0.8726(5) 0.2959(5)
Mo6A Mo 0.32610(7) 0.72710(6) 0.57428(6)
O7A O 0.2505(6) 0.8342(5) 0.6099(5)
O8A O 0.4551(7) 0.4957(5) 0.7656(7)
O9A O 0.6888(7) 0.6016(5) 0.6087(6)
O10A O 0.4621(6) 0.6847(6) 0.6548(7)
O11A O 0.6695(8) 0.4174(5) 0.7199(5)
O12A O 0.8044(8) 0.4255(6) 0.5603(6)
O13A O 0.6164(8) 0.2528(7) 0.6858(5)
O14A O 0.7557(7) 0.2730(7) 0.5257(5)
O15A O 0.7711(8) 0.5358(6) 0.3663(6)
O16A O 0.6564(8) 0.7029(6) 0.4268(6)
O17A O 0.4053(8) 0.3320(5) 0.7294(5)
O18A O 0.2776(6) 0.6221(6) 0.6672(7)
O19A O 0.4344(7) 0.7827(8) 0.4734(5)
O20A O 0.6005(9) 0.4937(8) 0.5585(7)
O21A O 0.4314(9) 0.6198(8) 0.4599(7)
O22A O 0.5428(9) 0.4578(7) 0.4084(7)
O23A O 0.4181(10) 0.4410(8) 0.5640(8)
Ag2A Ag 0.74077(7) 0.62724(6) 0.92705(7)
Ag2_2 Ag -0.74077(7) 1.37276(6) 0.07295(7)
Ag2_3 Ag 1.25923(7) -0.62724(6) 0.07295(7)
N3_2 N 1.1257(7) -0.4920(6) 0.0903(7)
N3A N 0.8743(7) 0.4920(6) 0.9097(7)
N4_2 N 0.8156(7) -0.1611(7) 0.0604(7)
N5_2 N 0.7288(7) -0.0717(7) 0.0782(7)
N6_2 N 0.4026(7) 0.2470(5) 0.0484(6)
N6A N 0.5974(7) 0.7530(5) 0.9516(6)
C8_2 C 0.9845(7) -0.3338(7) 0.0282(8)
H8_2 H 0.9455 -0.2860 -0.0261
C9_2 C 1.0677(8) -0.4201(7) 0.0147(8)
H9_2 H 1.0850 -0.4295 -0.0490
C10_2 C 1.0975(8) -0.4769(7) 0.1800(8)
H10_2 H 1.1359 -0.5280 0.2330
C11_2 C 1.0155(8) -0.3912(8) 0.2011(8)
H11_2 H 1.0004 -0.3845 0.2658
C12_2 C 0.9564(7) -0.3155(7) 0.1229(7)
C13_2 C 0.8679(8) -0.2205(7) 0.1392(8)
C14_2 C 0.8481(11) -0.1999(9) 0.2375(8)
H12_2 H 0.7996 -0.1297 0.2323
H13_2 H 0.9206 -0.2067 0.2628
H14_2 H 0.8110 -0.2499 0.2818
C15_2 C 0.7157(9) -0.0162(8) -0.1046(8)
H15_2 H 0.7801 -0.0766 -0.1043
H16_2 H 0.7363 0.0463 -0.1440
H17_2 H 0.6513 -0.0240 -0.1323
C16_2 C 0.6836(8) -0.0073(7) -0.0011(7)
C17_2 C 0.5866(7) 0.0821(7) 0.0167(6)
C18_2 C 0.5578(8) 0.1010(7) 0.1087(7)
H18_2 H 0.5996 0.0559 0.1626
C19_2 C 0.4690(8) 0.1847(8) 0.1234(7)
H19_2 H 0.4549 0.1983 0.1856
C20_2 C 0.4265(9) 0.2287(8) -0.0381(7)
H20_2 H 0.3794 0.2719 -0.0894
C21_2 C 0.5178(9) 0.1488(8) -0.0594(7)
H21_2 H 0.5324 0.1403 -0.1235
C22A C 0.8948(17) 0.7514(8) 0.7026(7)
N7A N 0.888(2) 0.8358(6) 0.6172(6)
O24A O 0.8383(18) 0.7654(19) 0.7770(9)
C23A C 0.938(3) 0.8154(14) 0.5260(9)
C24A C 0.848(4) 0.9407(7) 0.6240(16)
Ag1 Ag -0.5000 1.5000 1.0000
N1 N -0.3594(7) 1.3630(6) 1.0241(6)
N2 N -0.0451(8) 1.0457(6) 0.9919(6)
C1 C -0.2237(9) 1.2251(8) 1.1290(7)
H1 H -0.1958 1.1951 1.1923
C2 C -0.3137(8) 1.3157(8) 1.1127(7)
H2 H -0.3438 1.3452 1.1656
C3 C -0.3108(10) 1.3157(8) 0.9514(7)
H3 H -0.3421 1.3447 0.8893
C4 C -0.2189(9) 1.2282(7) 0.9621(7)
H4 H -0.1864 1.2026 0.9074
C5 C -0.1746(8) 1.1780(7) 1.0545(7)
C6 C -0.0771(7) 1.0797(7) 1.0687(7)
C7 C -0.0332(10) 1.0326(10) 1.1676(8)
H5 H 0.0153 0.9627 1.1713
H6 H 0.0108 1.0749 1.1811
H7 H -0.0966 1.0292 1.2158
Ag1_2 Ag 0.5000 0.5000 1.0000
N1A N 0.3594(7) 0.6370(6) 0.9759(6)
N1A_2 N -0.6406(7) 1.6370(6) 0.9759(6)
N2A N 0.0451(8) 0.9543(6) 1.0081(6)
C1A C 0.2237(9) 0.7749(8) 0.8710(7)
H1A H 0.1958 0.8049 0.8077
C2A C 0.3137(8) 0.6843(8) 0.8873(7)
H2A H 0.3438 0.6548 0.8344
C3A C 0.3108(10) 0.6843(8) 1.0486(7)
H3A H 0.3421 0.6553 1.1107
C4A C 0.2189(9) 0.7718(7) 1.0379(7)
H4A H 0.1864 0.7974 1.0926
C5A C 0.1746(8) 0.8220(7) 0.9455(7)
C6A C 0.0771(7) 0.9203(7) 0.9313(7)
C7A C 0.0332(10) 0.9674(10) 0.8324(8)
H5A H -0.0153 1.0373 0.8287
H6A H -0.0108 0.9251 0.8189
H7A H 0.0966 0.9708 0.7842
O25? O 0.566(3) -0.022(3) 0.485(3)
C25? C 0.1876(6) 0.213(2) 0.3420(7)
C26? C 0.0381(14) 0.1428(14) 0.4486(13)
C27? C -0.0083(9) 0.272(2) 0.2894(11)
N8? N 0.0705(7) 0.2145(16) 0.3639(10)
O26? O 0.2153(15) 0.244(2) 0.2550(9)
loop_
_geom_bond_atom_site_label_1
_geom_bond_atom_site_label_2
_geom_bond_site_symmetry_1
_geom_bond_site_symmetry_2
Ag1 N1 1_555 1_555
N1 C2 1_555 1_555
N2 C6 1_555 1_555
C1 H1 1_555 1_555
C2 C1 1_555 1_555
H2 C2 1_555 1_555
C3 N1 1_555 1_555
H3 C3 1_555 1_555
C4 C3 1_555 1_555
H4 C4 1_555 1_555
C5 C1 1_555 1_555
C6 C5 1_555 1_555
C7 C6 1_555 1_555
H5 C7 1_555 1_555
H6 C7 1_555 1_555
H7 C7 1_555 1_555
P1 O20 1_555 1_555
Mo1 O2 1_555 1_555
O2 Ag2 1_555 1_555
Mo2 O3 1_555 1_555
Mo3 O4 1_555 1_555
Mo4 O5 1_555 1_555
Mo5 O6 1_555 1_555
Mo6 O7 1_555 1_555
O8 Mo1 1_555 1_555
O9 Mo1 1_555 1_555
O10 Mo1 1_555 1_555
O11 Mo1 1_555 1_555
O12 Mo2 1_555 1_555
O13 Mo2 1_555 1_555
O14 Mo2 1_555 1_555
O15 Mo3 1_555 1_555
O16 Mo3 1_555 1_555
O17 Mo4 1_555 1_555
O18 Mo4 1_555 1_555
O19 Mo5 1_555 1_555
O20 Mo1 1_555 1_555
O21 P1 1_555 1_555
O22 P1 1_555 1_555
O23 P1 1_555 1_555
Ag2 N3 1_555 1_555
N3 C9 1_555 1_555
N4 N5 1_555 1_555
N5 C16 1_555 1_555
N6 C19 1_555 1_555
C8 H8 1_555 1_555
C9 C8 1_555 1_555
H9 C9 1_555 1_555
C10 N3 1_555 1_555
H10 C10 1_555 1_555
C11 C10 1_555 1_555
H11 C11 1_555 1_555
C12 C8 1_555 1_555
C13 N4 1_555 1_555
C14 C13 1_555 1_555
H12 C14 1_555 1_555
H13 C14 1_555 1_555
H14 C14 1_555 1_555
C15 H15 1_555 1_555
H16 C15 1_555 1_555
H17 C15 1_555 1_555
C16 C15 1_555 1_555
C17 C16 1_555 1_555
C18 C17 1_555 1_555
H18 C18 1_555 1_555
C19 C18 1_555 1_555
H19 C19 1_555 1_555
C20 N6 1_555 1_555
H20 C20 1_555 1_555
C21 C17 1_555 1_555
H21 C21 1_555 1_555
C22 N7 1_555 1_555
N7 C23 1_555 1_555
O24 Ag2 1_555 1_555
C24 N7 1_555 1_555
Ag1_2 N1A 1_555 1_555
N1A C2A 1_555 1_555
N1A_2 Ag1 1_555 1_555
N2A N2 1_555 1_555
C1A H1A 1_555 1_555
C2A C1A 1_555 1_555
H2A C2A 1_555 1_555
C3A N1A 1_555 1_555
H3A C3A 1_555 1_555
C4A C3A 1_555 1_555
H4A C4A 1_555 1_555
C5A C1A 1_555 1_555
C6A N2A 1_555 1_555
C7A C6A 1_555 1_555
H5A C7A 1_555 1_555
H6A C7A 1_555 1_555
H7A C7A 1_555 1_555
Mo1A O22 1_555 1_555
O2A Mo1A 1_555 1_555
Mo2A O21 1_555 1_555
O3A Mo2A 1_555 1_555
Mo3A O23 1_555 1_555
O4A Mo3A 1_555 1_555
Mo4A O15 1_555 1_555
O5A Mo4A 1_555 1_555
Mo5A O13 1_555 1_555
O6A Mo5A 1_555 1_555
Mo6A O14 1_555 1_555
O7A Mo6A 1_555 1_555
O8A Mo1A 1_555 1_555
O9A Mo1A 1_555 1_555
O10A Mo1A 1_555 1_555
O11A Mo1A 1_555 1_555
O12A Mo2A 1_555 1_555
O13A Mo5 1_555 1_555
O14A Mo6 1_555 1_555
O15A Mo4 1_555 1_555
O16A Mo3A 1_555 1_555
O17A Mo5 1_555 1_555
O18A Mo4A 1_555 1_555
O19A Mo5A 1_555 1_555
O20A P1 1_555 1_555
O21A P1 1_555 1_555
O22A P1 1_555 1_555
O23A P1 1_555 1_555
Ag2A O2A 1_555 1_555
Ag2_2 N6 1_555 1_555
Ag2_3 N3_2 1_555 1_555
N3_2 C9_2 1_555 1_555
N3A Ag2A 1_555 1_555
N4_2 N5_2 1_555 1_555
N5_2 C16_2 1_555 1_555
N6_2 Ag2 1_555 1_555
N6A Ag2A 1_555 1_555
C8_2 H8_2 1_555 1_555
C9_2 C8_2 1_555 1_555
H9_2 C9_2 1_555 1_555
C10_2 N3_2 1_555 1_555
H10_2 C10_2 1_555 1_555
C11_2 C10_2 1_555 1_555
H11_2 C11_2 1_555 1_555
C12_2 C8_2 1_555 1_555
C13_2 N4_2 1_555 1_555
C14_2 C13_2 1_555 1_555
H12_2 C14_2 1_555 1_555
H13_2 C14_2 1_555 1_555
H14_2 C14_2 1_555 1_555
C15_2 H15_2 1_555 1_555
H16_2 C15_2 1_555 1_555
H17_2 C15_2 1_555 1_555
C16_2 C15_2 1_555 1_555
C17_2 C16_2 1_555 1_555
C18_2 C17_2 1_555 1_555
H18_2 C18_2 1_555 1_555
C19_2 N6_2 1_555 1_555
H19_2 C19_2 1_555 1_555
C20_2 N6_2 1_555 1_555
H20_2 C20_2 1_555 1_555
C21_2 C17_2 1_555 1_555
H21_2 C21_2 1_555 1_555
C22A N7A 1_555 1_555
N7A C23A 1_555 1_555
O24A Ag2A 1_555 1_555
C24A N7A 1_555 1_555
C4 C5 1_555 1_555
Mo1 O22A 1_555 1_555
Mo2 O11 1_555 1_555
Mo2 O20 1_555 1_555
Mo2 O21A 1_555 1_555
Mo3 O9 1_555 1_555
Mo3 O12 1_555 1_555
Mo3 O20 1_555 1_555
Mo3 O23A 1_555 1_555
Mo4 O8 1_555 1_555
Mo4 O23 1_555 1_555
Mo4 O22A 1_555 1_555
Mo5 O16 1_555 1_555
Mo5 O21 1_555 1_555
Mo5 O23A 1_555 1_555
Mo6 O10 1_555 1_555
Mo6 O18 1_555 1_555
Mo6 O19 1_555 1_555
Mo6 O21 1_555 1_555
O17 Mo5A 1_555 1_555
O20 O21A 1_555 1_555
O20 O22A 1_555 1_555
O20 O23A 1_555 1_555
O21 O20A 1_555 1_555
O21 O22A 1_555 1_555
O21 O23A 1_555 1_555
O22 Mo4A 1_555 1_555
O22 O20A 1_555 1_555
O22 O21A 1_555 1_555
O22 O23A 1_555 1_555
O23 Mo5A 1_555 1_555
O23 O20A 1_555 1_555
O23 O21A 1_555 1_555
O23 O22A 1_555 1_555
C11 C12 1_555 1_555
C12 C13 1_555 1_555
C20 C21 1_555 1_555
C22 O24 1_555 1_555
C4A C5A 1_555 1_555
C5A C6A 1_555 1_555
Mo1A O20A 1_555 1_555
Mo2A O11A 1_555 1_555
Mo2A O13A 1_555 1_555
Mo2A O14A 1_555 1_555
Mo2A O20A 1_555 1_555
Mo3A O9A 1_555 1_555
Mo3A O12A 1_555 1_555
Mo3A O15A 1_555 1_555
Mo3A O20A 1_555 1_555
Mo4A O8A 1_555 1_555
Mo4A O17A 1_555 1_555
Mo4A O23A 1_555 1_555
Mo5A O16A 1_555 1_555
Mo5A O21A 1_555 1_555
Mo6A O10A 1_555 1_555
Mo6A O18A 1_555 1_555
Mo6A O19A 1_555 1_555
Mo6A O21A 1_555 1_555
C11_2 C12_2 1_555 1_555
C12_2 C13_2 1_555 1_555
C18_2 C19_2 1_555 1_555
C20_2 C21_2 1_555 1_555
C22A O24A 1_555 1_555

#END
