
#######################################################################
#
#                 Cambridge Crystallographic Data Centre
#                                CCDC 
#
#######################################################################
#
# If this CIF has been generated from an entry in the Cambridge 
# Structural Database, then it will include bibliographic, chemical, 
# crystal, experimental, refinement or atomic coordinate data resulting 
# from the CCDC's data processing and validation procedures.
#
#######################################################################

data_HEDLIM
_symmetry_cell_setting           orthorhombic
_symmetry_space_group_name_H-M   'P c c n'
_symmetry_Int_Tables_number      56
_space_group_name_Hall           '-P 2ab 2ac'
loop_
_symmetry_equiv_pos_site_id
_symmetry_equiv_pos_as_xyz
1 x,y,z
2 1/2-x,1/2-y,z
3 1/2+x,-y,1/2-z
4 -x,1/2+y,1/2-z
5 -x,-y,-z
6 1/2+x,1/2+y,-z
7 1/2-x,y,1/2+z
8 x,1/2-y,1/2+z
_cell_length_a                   14.1752(12)
_cell_length_b                   19.5352(16)
_cell_length_c                   22.7792(19)
_cell_angle_alpha                90
_cell_angle_beta                 90
_cell_angle_gamma                90
_cell_volume                     6307.91
loop_
_atom_site_label
_atom_site_type_symbol
_atom_site_fract_x
_atom_site_fract_y
_atom_site_fract_z
Co1 Co 0.2500 0.2500 0.69260(4)
Co2 Co 0.2500 0.7500 0.70858(4)
O1 O 0.1697(2) 0.33905(17) 0.69140(14)
O2 O 0.2766(2) 0.42226(19) 0.6927(2)
O3 O 0.0273(3) 0.68829(18) 0.72418(19)
O4 O 0.1768(2) 0.65952(17) 0.70705(14)
O5 O 0.1233(3) 0.1915(2) 0.69224(18)
O6 O 0.3800(3) 0.6936(3) 0.7130(2)
N1 N -0.1412(3) 0.4590(3) 0.7306(2)
N2 N 0.2500 0.2500 0.5980(2)
N3 N 0.2500 0.2500 0.2875(2)
N4 N 0.2500 0.7500 0.6140(2)
N5 N 0.2500 0.7500 0.3029(2)
C1 C 0.1925(3) 0.4010(3) 0.6947(2)
C2 C 0.1152(3) 0.4530(2) 0.7022(2)
C3 C 0.1372(4) 0.5224(3) 0.7014(2)
H1 H 0.1989 0.5365 0.6945
C4 C 0.0662(3) 0.5709(2) 0.7111(2)
C5 C -0.0254(3) 0.5485(3) 0.7202(2)
H2 H -0.0728 0.5808 0.7255
C6 C -0.0486(4) 0.4800(3) 0.7216(2)
C7 C 0.0233(3) 0.4318(3) 0.7121(2)
H3 H 0.0091 0.3853 0.7124
C8 C 0.0904(4) 0.6451(2) 0.7141(2)
C9 C 0.2221(3) 0.1957(3) 0.5674(2)
H4 H 0.2029 0.1569 0.5879
C10 C 0.2202(3) 0.1937(3) 0.5073(2)
H5 H 0.1990 0.1547 0.4881
C11 C 0.2500 0.2500 0.4752(3)
C12 C 0.2500 0.2500 0.4106(3)
C13 C 0.1821(4) 0.2142(3) 0.3783(2)
H6 H 0.1354 0.1894 0.3975
C14 C 0.1848(4) 0.2160(3) 0.3185(2)
H7 H 0.1385 0.1922 0.2980
C15 C 0.2451(4) 0.6923(3) 0.5834(2)
H8 H 0.2419 0.6512 0.6039
C16 C 0.2446(4) 0.6898(3) 0.5234(2)
H9 H 0.2405 0.6479 0.5042
C17 C 0.2500 0.7500 0.4912(3)
C18 C 0.2500 0.7500 0.4266(3)
C19 C 0.2544(5) 0.8100(3) 0.3945(2)
H10 H 0.2581 0.8519 0.4138
C20 C 0.2535(5) 0.8079(3) 0.3339(2)
H11 H 0.2554 0.8492 0.3136
H27 H -0.180(3) 0.491(2) 0.746(2)
H28 H -0.148(4) 0.4142(8) 0.737(2)
H29 H 0.139(4) 0.150(3) 0.691(2)
H30 H 0.081(5) 0.187(4) 0.711(3)
H31 H 0.393(4) 0.670(3) 0.691(2)
H32 H 0.415(8) 0.709(5) 0.709(4)
Co1F Co 0.2500 0.2500 0.19260(4)
Co2F Co 0.2500 0.7500 0.20858(4)
Co2_2 Co 0.2500 -0.2500 0.70858(4)
O1A O 0.3303(2) 0.16095(17) 0.69140(14)
O2A O 0.2234(2) 0.07774(19) 0.6927(2)
O3A O 0.4727(3) -0.18829(18) 0.72418(19)
O4A O 0.3232(2) -0.15952(17) 0.70705(14)
O4A_2 O 0.3232(2) 0.84048(17) 0.70705(14)
O5A O 0.3767(3) 0.3085(2) 0.69224(18)
O6A O 0.1200(3) 0.8064(3) 0.7130(2)
N1A N 0.6412(3) 0.0410(3) 0.7306(2)
N3F N 0.2500 0.2500 0.7875(2)
N5F N 0.2500 0.7500 0.8029(2)
C1A C 0.3075(3) 0.0990(3) 0.6947(2)
C2A C 0.3848(3) 0.0470(2) 0.7022(2)
C3A C 0.3628(4) -0.0224(3) 0.7014(2)
H1A H 0.3011 -0.0365 0.6945
C4A C 0.4338(3) -0.0709(2) 0.7111(2)
C5A C 0.5254(3) -0.0485(3) 0.7202(2)
H2A H 0.5728 -0.0808 0.7255
C6A C 0.5486(4) 0.0200(3) 0.7216(2)
C7A C 0.4767(3) 0.0682(3) 0.7121(2)
H3A H 0.4909 0.1147 0.7124
C8A C 0.4096(4) -0.1451(2) 0.7141(2)
C9A C 0.2779(3) 0.3043(3) 0.5674(2)
H4A H 0.2971 0.3431 0.5879
C10A C 0.2798(3) 0.3063(3) 0.5073(2)
H5A H 0.3010 0.3453 0.4881
C13A C 0.3179(4) 0.2858(3) 0.3783(2)
H6A H 0.3646 0.3106 0.3975
C14A C 0.3152(4) 0.2840(3) 0.3185(2)
H7A H 0.3615 0.3078 0.2980
C15A C 0.2549(4) 0.8077(3) 0.5834(2)
H8A H 0.2581 0.8488 0.6039
C16A C 0.2554(4) 0.8102(3) 0.5234(2)
H9A H 0.2595 0.8521 0.5042
C19A C 0.2456(5) 0.6900(3) 0.3945(2)
H10A H 0.2419 0.6481 0.4138
C20A C 0.2465(5) 0.6921(3) 0.3339(2)
H11A H 0.2446 0.6508 0.3136
H27A H 0.680(3) 0.009(2) 0.746(2)
H28A H 0.648(4) 0.0858(8) 0.737(2)
H29A H 0.361(4) 0.350(3) 0.691(2)
H30A H 0.419(5) 0.313(4) 0.711(3)
H31A H 0.107(4) 0.830(3) 0.691(2)
H32A H 0.085(8) 0.791(5) 0.709(4)
O7 O 0.0316(5) 0.8890(4) 0.6322(3)
N8 N -0.0110(8) 0.9974(7) 0.6119(5)
C31 C 0.0426(16) 0.9475(11) 0.6274(9)
H20 H 0.1035 0.9614 0.6369
C32 C -0.0325(11) 1.0694(7) 0.6205(7)
H21 H -0.0767 1.0841 0.5912
H22 H 0.0244 1.0958 0.6172
H23 H -0.0594 1.0759 0.6588
C33 C -0.1392(15) 0.9803(10) 0.6266(12)
H24 H -0.1758 1.0194 0.6151
H25 H -0.1481 0.9717 0.6677
H26 H -0.1591 0.9411 0.6045
N6 N 0.1732(6) 0.5356(4) 0.4715(4)
N7 N -0.0283(4) 0.2074(4) 0.5242(4)
C21 C 0.1580(9) 0.5109(5) 0.5251(5)
H12 H 0.1803 0.5361 0.5568
C22 C 0.1117(8) 0.4507(5) 0.5367(4)
H13 H 0.1008 0.4382 0.5755
C23 C 0.0808(5) 0.4084(4) 0.4923(3)
C24 C 0.0988(8) 0.4324(5) 0.4363(4)
H14 H 0.0789 0.4077 0.4037
C25 C 0.1476(8) 0.4947(5) 0.4290(4)
H15 H 0.1627 0.5077 0.3908
C26 C 0.0369(5) 0.3408(4) 0.5032(3)
C27 C 0.0294(5) 0.3153(4) 0.5593(4)
H16 H 0.0468 0.3414 0.5917
C28 C -0.0036(5) 0.2515(5) 0.5658(4)
H17 H -0.0101 0.2363 0.6042
C29 C -0.0227(5) 0.2349(5) 0.4709(4)
H18 H -0.0416 0.2079 0.4394
C30 C 0.0087(5) 0.3000(4) 0.4584(3)
H19 H 0.0104 0.3158 0.4199
loop_
_geom_bond_atom_site_label_1
_geom_bond_atom_site_label_2
_geom_bond_site_symmetry_1
_geom_bond_site_symmetry_2
Co1 O1 1_555 1_555
Co2 O4 1_555 1_555
O1 C1 1_555 1_555
O2 C1 1_555 1_555
O3 C8 1_555 1_555
O4 C8 1_555 1_555
O5 Co1 1_555 1_555
O6 Co2 1_555 1_555
O7 C31 1_555 1_555
N1 C6 1_555 1_555
N2 Co1 1_555 1_555
N3 C14 1_555 1_555
N4 Co2 1_555 1_555
N5 C20 1_555 1_555
N6 C21 1_555 1_555
N7 C28 1_555 1_555
N8 C31 1_555 1_555
C1 C2 1_555 1_555
C2 C3 1_555 1_555
C3 H1 1_555 1_555
C4 C3 1_555 1_555
C5 C4 1_555 1_555
H2 C5 1_555 1_555
C6 C5 1_555 1_555
C7 C2 1_555 1_555
H3 C7 1_555 1_555
C8 C4 1_555 1_555
C9 N2 1_555 1_555
H4 C9 1_555 1_555
C10 C9 1_555 1_555
H5 C10 1_555 1_555
C11 C10 1_555 1_555
C12 C11 1_555 1_555
C13 C12 1_555 1_555
H6 C13 1_555 1_555
C14 C13 1_555 1_555
H7 C14 1_555 1_555
C15 N4 1_555 1_555
H8 C15 1_555 1_555
C16 C15 1_555 1_555
H9 C16 1_555 1_555
C17 C16 1_555 1_555
C18 C17 1_555 1_555
C19 C18 1_555 1_555
H10 C19 1_555 1_555
C20 C19 1_555 1_555
H11 C20 1_555 1_555
C21 H12 1_555 1_555
C22 C21 1_555 1_555
H13 C22 1_555 1_555
C23 C22 1_555 1_555
C24 C23 1_555 1_555
H14 C24 1_555 1_555
C25 N6 1_555 1_555
H15 C25 1_555 1_555
C26 C23 1_555 1_555
C27 C26 1_555 1_555
H16 C27 1_555 1_555
C28 C27 1_555 1_555
H17 C28 1_555 1_555
C29 N7 1_555 1_555
H18 C29 1_555 1_555
C30 C26 1_555 1_555
H19 C30 1_555 1_555
C31 H20 1_555 1_555
C32 N8 1_555 1_555
H21 C32 1_555 1_555
H22 C32 1_555 1_555
H23 C32 1_555 1_555
C33 N8 1_555 1_555
H24 C33 1_555 1_555
H25 C33 1_555 1_555
H26 C33 1_555 1_555
H27 N1 1_555 1_555
H28 N1 1_555 1_555
H29 O5 1_555 1_555
H30 O5 1_555 1_555
H31 O6 1_555 1_555
H32 O6 1_555 1_555
Co1F N3 1_555 1_555
Co2F N5 1_555 1_555
Co2_2 O4A 1_555 1_555
O1A Co1 1_555 1_555
O2A C1A 1_555 1_555
O3A C8A 1_555 1_555
O4A C8A 1_555 1_555
O4A_2 Co2 1_555 1_555
O5A Co1 1_555 1_555
O6A Co2 1_555 1_555
N1A C6A 1_555 1_555
N3F Co1 1_555 1_555
N5F Co2 1_555 1_555
C1A O1A 1_555 1_555
C2A C1A 1_555 1_555
C3A C2A 1_555 1_555
H1A C3A 1_555 1_555
C4A C3A 1_555 1_555
C5A C4A 1_555 1_555
H2A C5A 1_555 1_555
C6A C5A 1_555 1_555
C7A C2A 1_555 1_555
H3A C7A 1_555 1_555
C8A C4A 1_555 1_555
C9A N2 1_555 1_555
H4A C9A 1_555 1_555
C10A C11 1_555 1_555
H5A C10A 1_555 1_555
C13A C12 1_555 1_555
H6A C13A 1_555 1_555
C14A N3 1_555 1_555
H7A C14A 1_555 1_555
C15A N4 1_555 1_555
H8A C15A 1_555 1_555
C16A C17 1_555 1_555
H9A C16A 1_555 1_555
C19A C18 1_555 1_555
H10A C19A 1_555 1_555
C20A N5 1_555 1_555
H11A C20A 1_555 1_555
H27A N1A 1_555 1_555
H28A N1A 1_555 1_555
H29A O5A 1_555 1_555
H30A O5A 1_555 1_555
H31A O6A 1_555 1_555
H32A O6A 1_555 1_555
C6 C7 1_555 1_555
C24 C25 1_555 1_555
C29 C30 1_555 1_555
C6A C7A 1_555 1_555
C9A C10A 1_555 1_555
C13A C14A 1_555 1_555
C15A C16A 1_555 1_555
C19A C20A 1_555 1_555

#END
