
#######################################################################
#
#                 Cambridge Crystallographic Data Centre
#                                CCDC 
#
#######################################################################
#
# If this CIF has been generated from an entry in the Cambridge 
# Structural Database, then it will include bibliographic, chemical, 
# crystal, experimental, refinement or atomic coordinate data resulting 
# from the CCDC's data processing and validation procedures.
#
#######################################################################

data_HEDLUY
_symmetry_cell_setting           monoclinic
_symmetry_space_group_name_H-M   'P 21/c'
_symmetry_Int_Tables_number      14
_space_group_name_Hall           '-P 2ybc'
loop_
_symmetry_equiv_pos_site_id
_symmetry_equiv_pos_as_xyz
1 x,y,z
2 -x,1/2+y,1/2-z
3 -x,-y,-z
4 x,1/2-y,1/2+z
_cell_length_a                   11.440(2)
_cell_length_b                   18.767(4)
_cell_length_c                   8.7789(18)
_cell_angle_alpha                90
_cell_angle_beta                 106.31(3)
_cell_angle_gamma                90
_cell_volume                     1808.93
loop_
_atom_site_label
_atom_site_type_symbol
_atom_site_fract_x
_atom_site_fract_y
_atom_site_fract_z
Cd1 Cd 0.158761(13) 0.690402(8) 0.762950(17)
S1 S 0.17711(5) 0.55525(3) 0.60450(6)
O1 O 0.13894(14) 0.71229(8) 0.49243(17)
O2 O 0.11713(16) 0.68775(8) 0.24179(17)
O3 O 0.71248(13) 0.55775(9) 0.7183(2)
O4 O 0.95702(14) 0.66660(9) 0.6896(2)
O5 O 0.95089(15) 0.56368(10) 0.8114(2)
O6 O 0.20507(18) 0.62789(10) 1.0028(2)
H1 H 0.170(3) 0.6433(17) 1.066(3)
H2 H 0.191(3) 0.5856(6) 0.993(4)
N1 N 0.36084(17) 0.71036(10) 0.8210(2)
N2 N 0.55849(19) 0.69951(12) 0.9121(3)
H9 H 0.6285 0.6838 0.9659
C1 C 0.12414(17) 0.66870(11) 0.3811(2)
C2 C 0.1102(2) 0.58944(11) 0.4071(3)
H10 H 0.1455 0.5637 0.3349
H11 H 0.0239 0.5785 0.3772
C3 C 0.33530(18) 0.55396(11) 0.6209(2)
C4 C 0.4096(2) 0.51015(13) 0.7361(3)
H12 H 0.3746 0.4793 0.7936
C5 C 0.5346(2) 0.51200(13) 0.7658(3)
H13 H 0.5835 0.4828 0.8436
C6 C 0.58725(18) 0.55776(11) 0.6790(3)
C7 C 0.5135(2) 0.59939(12) 0.5611(3)
H14 H 0.5481 0.6286 0.5000
C8 C 0.38854(19) 0.59790(12) 0.5334(3)
H15 H 0.3398 0.6268 0.4549
C9 C 0.76684(19) 0.61253(12) 0.6490(3)
H16 H 0.7327 0.6583 0.6645
H17 H 0.7499 0.6043 0.5357
C10 C 0.90287(19) 0.61304(12) 0.7250(3)
C11 C 0.4508(2) 0.67389(14) 0.9158(3)
H18 H 0.4403 0.6353 0.9771
C12 C 0.4160(2) 0.76127(13) 0.7525(3)
H19 H 0.3755 0.7950 0.6789
C13 C 0.5381(2) 0.75478(14) 0.8086(3)
H20 H 0.5965 0.7826 0.7816
Cd1C Cd 0.158761(13) 0.809598(8) 0.262950(17)
Cd1_2 Cd 1.158761(13) 0.690402(8) 0.762950(17)
O2C O 0.11713(16) 0.81225(8) 0.74179(17)
O4_2 O -0.04298(14) 0.66660(9) 0.6896(2)
O7 O 0.7437(3) 0.63531(17) 1.1443(4)
H3 H 0.786(4) 0.609(2) 1.105(6)
H4 H 0.790(4) 0.667(2) 1.189(6)
O8 O 0.8495(2) 0.72948(17) 1.3845(3)
H5 H 0.861(5) 0.749(2) 1.471(3)
H6 H 0.895(4) 0.755(2) 1.351(6)
O9 O 0.8476(2) 0.51568(13) 1.0497(3)
H7 H 0.9175(17) 0.505(2) 1.105(4)
H8 H 0.870(3) 0.534(2) 0.976(3)
loop_
_geom_bond_atom_site_label_1
_geom_bond_atom_site_label_2
_geom_bond_site_symmetry_1
_geom_bond_site_symmetry_2
Cd1 S1 1_555 1_555
S1 C2 1_555 1_555
O1 Cd1 1_555 1_555
O2 C1 1_555 1_555
O3 C6 1_555 1_555
O4 C10 1_555 1_555
O5 C10 1_555 1_555
O6 Cd1 1_555 1_555
H1 O6 1_555 1_555
H2 O6 1_555 1_555
O7 H3 1_555 1_555
H4 O7 1_555 1_555
O8 H5 1_555 1_555
H6 O8 1_555 1_555
O9 H7 1_555 1_555
H8 O9 1_555 1_555
N1 Cd1 1_555 1_555
N2 H9 1_555 1_555
C1 O1 1_555 1_555
C2 C1 1_555 1_555
H10 C2 1_555 1_555
H11 C2 1_555 1_555
C3 S1 1_555 1_555
C4 C3 1_555 1_555
H12 C4 1_555 1_555
C5 C4 1_555 1_555
H13 C5 1_555 1_555
C6 C5 1_555 1_555
C7 C6 1_555 1_555
H14 C7 1_555 1_555
C8 C3 1_555 1_555
H15 C8 1_555 1_555
C9 O3 1_555 1_555
H16 C9 1_555 1_555
H17 C9 1_555 1_555
C10 C9 1_555 1_555
C11 N1 1_555 1_555
H18 C11 1_555 1_555
C12 N1 1_555 1_555
H19 C12 1_555 1_555
C13 N2 1_555 1_555
H20 C13 1_555 1_555
Cd1C O2 1_555 1_555
Cd1_2 O4 1_555 1_555
O2C Cd1 1_555 1_555
O4_2 Cd1 1_555 1_555
N2 C11 1_555 1_555
C7 C8 1_555 1_555
C12 C13 1_555 1_555

#END
