
#######################################################################
#
#                 Cambridge Crystallographic Data Centre
#                                CCDC 
#
#######################################################################
#
# If this CIF has been generated from an entry in the Cambridge 
# Structural Database, then it will include bibliographic, chemical, 
# crystal, experimental, refinement or atomic coordinate data resulting 
# from the CCDC's data processing and validation procedures.
#
#######################################################################

data_HEDMUA
_symmetry_cell_setting           orthorhombic
_symmetry_space_group_name_H-M   'P 21 21 21'
_symmetry_Int_Tables_number      19
_space_group_name_Hall           'P 2ac 2ab'
loop_
_symmetry_equiv_pos_site_id
_symmetry_equiv_pos_as_xyz
1 x,y,z
2 1/2-x,-y,1/2+z
3 -x,1/2+y,1/2-z
4 1/2+x,1/2-y,-z
_cell_length_a                   7.3326(15)
_cell_length_b                   13.460(3)
_cell_length_c                   14.190(3)
_cell_angle_alpha                90
_cell_angle_beta                 90
_cell_angle_gamma                90
_cell_volume                     1400.51
loop_
_atom_site_label
_atom_site_type_symbol
_atom_site_fract_x
_atom_site_fract_y
_atom_site_fract_z
Co1 Co 0.19261(6) 0.21174(3) 0.69042(3)
C1 C 0.2118(5) 0.1109(2) 0.8761(2)
C2 C 0.2284(5) 0.0355(2) 0.9416(2)
H1 H 0.2262 0.0502 1.0056
C3 C 0.2485(4) -0.0618(2) 0.9118(2)
C4 C 0.2483(5) -0.0808(2) 0.8157(2)
H2 H 0.2589 -0.1455 0.7932
C5 C 0.2323(5) -0.0020(2) 0.7540(2)
H3 H 0.2325 -0.0150 0.6897
C6 C 0.1946(5) 0.2186(2) 0.9004(2)
C7 C 0.2027(5) 0.2535(2) 0.9924(2)
H4 H 0.2149 0.2090 1.0422
C8 C 0.1927(6) 0.3540(2) 1.0099(2)
C9 C 0.1725(5) 0.4185(2) 0.9341(2)
H5 H 0.1639 0.4867 0.9436
C10 C 0.1653(5) 0.3788(3) 0.8437(2)
H6 H 0.1538 0.4221 0.7929
C11 C 0.2064(5) 0.3915(2) 1.1116(2)
C12 C 0.2707(4) -0.1449(2) 0.9823(2)
N1 N 0.2165(4) 0.09168(19) 0.78263(18)
N2 N 0.1742(4) 0.2809(2) 0.82629(18)
O1 O 0.3001(4) -0.23131(15) 0.95043(15)
O2 O 0.2608(3) -0.12247(16) 1.06777(16)
O3 O 0.2107(4) 0.32418(17) 1.17339(15)
O4 O 0.2134(5) 0.48192(18) 1.12523(18)
O5 O 0.4683(3) 0.2329(2) 0.69574(19)
O6 O 0.1481(3) 0.33545(17) 0.60602(16)
O7 O -0.0782(3) 0.16876(17) 0.67419(17)
Co1A Co 0.30739(6) -0.21174(3) 1.19042(3)
O2A O 0.2392(3) 0.12247(16) 0.56777(16)
loop_
_geom_bond_atom_site_label_1
_geom_bond_atom_site_label_2
_geom_bond_site_symmetry_1
_geom_bond_site_symmetry_2
Co1 N1 1_555 1_555
C1 C2 1_555 1_555
C2 H1 1_555 1_555
C3 C2 1_555 1_555
C4 C3 1_555 1_555
H2 C4 1_555 1_555
C5 C4 1_555 1_555
H3 C5 1_555 1_555
C6 C1 1_555 1_555
C7 C6 1_555 1_555
H4 C7 1_555 1_555
C8 C7 1_555 1_555
C9 C8 1_555 1_555
H5 C9 1_555 1_555
C10 C9 1_555 1_555
H6 C10 1_555 1_555
C11 C8 1_555 1_555
C12 C3 1_555 1_555
N1 C1 1_555 1_555
N2 Co1 1_555 1_555
O1 C12 1_555 1_555
O2 C12 1_555 1_555
O3 C11 1_555 1_555
O4 C11 1_555 1_555
O5 Co1 1_555 1_555
O6 Co1 1_555 1_555
O7 Co1 1_555 1_555
Co1A O2 1_555 1_555
O2A Co1 1_555 1_555
C5 N1 1_555 1_555
C6 N2 1_555 1_555
C10 N2 1_555 1_555

#END
