
#######################################################################
#
#                 Cambridge Crystallographic Data Centre
#                                CCDC 
#
#######################################################################
#
# If this CIF has been generated from an entry in the Cambridge 
# Structural Database, then it will include bibliographic, chemical, 
# crystal, experimental, refinement or atomic coordinate data resulting 
# from the CCDC's data processing and validation procedures.
#
#######################################################################

data_HEDNOV
_symmetry_cell_setting           triclinic
_symmetry_space_group_name_H-M   'P -1'
_symmetry_Int_Tables_number      2
_space_group_name_Hall           '-P 1'
loop_
_symmetry_equiv_pos_site_id
_symmetry_equiv_pos_as_xyz
1 x,y,z
2 -x,-y,-z
_cell_length_a                   9.1722(7)
_cell_length_b                   10.6883(8)
_cell_length_c                   12.6395(10)
_cell_angle_alpha                84.691(2)
_cell_angle_beta                 84.866(2)
_cell_angle_gamma                63.115(2)
_cell_volume                     1098.86
loop_
_atom_site_label
_atom_site_type_symbol
_atom_site_fract_x
_atom_site_fract_y
_atom_site_fract_z
Sm1 Sm 0.27738(2) 0.45190(2) 0.514796(15)
Co1 Co 0.5000 0.0000 0.0000
O1 O 0.2466(4) 0.3298(4) -0.1653(2)
C1 C 0.2455(5) 0.6436(5) 0.0125(3)
O2 O 0.2158(3) 0.3979(3) 0.3379(2)
O3 O 0.2983(4) 0.1900(3) -0.0184(2)
O4 O 0.3373(4) 0.5346(3) 0.3328(2)
N1 N 0.2525(4) 0.7685(4) -0.0340(3)
O5 O 0.7683(4) -0.2518(3) 0.4306(3)
O6 O 1.0309(3) -0.3603(3) 0.4597(2)
O7 O 0.5111(3) 0.2558(3) 0.4455(3)
C2 C 0.2379(5) 0.5477(5) -0.0502(3)
H1 H 0.2301 0.5654 -0.1234
N2 N 1.3973(4) -0.0099(4) 0.1638(3)
C3 C 0.2424(5) 0.4245(5) -0.0014(3)
C4 C 0.2469(5) 0.4027(5) 0.1087(3)
H2 H 0.2436 0.3225 0.1417
C5 C 0.2615(5) 0.3075(5) -0.0672(3)
N3 N 1.2154(4) 0.0098(4) 0.2873(3)
C6 C 0.9182(5) -0.1215(4) 0.3948(3)
N4 N 0.3775(4) 0.7909(4) -0.0085(3)
C7 C 0.9357(5) 0.1333(4) 0.3576(3)
H3 H 0.9436 0.2173 0.3470
O8 O 0.4547(4) 0.3461(4) 0.6658(2)
C8 C 1.0675(5) 0.0076(4) 0.3341(3)
C9 C 0.7901(5) 0.1314(4) 0.3975(3)
C10 C 0.2579(5) 0.6209(5) 0.1205(3)
H4 H 0.2673 0.6855 0.1605
N5 N 1.2675(5) -0.0296(5) 0.1886(3)
C11 C 0.7808(5) 0.0048(4) 0.4107(3)
H5 H 0.6807 0.0048 0.4306
C12 C 1.0648(5) -0.1202(4) 0.3557(3)
H6 H 1.1586 -0.2038 0.3444
C13 C 0.2711(5) 0.4749(4) 0.2870(3)
C14 C 1.3075(7) 0.0625(7) 0.3241(4)
H7 H 1.2932 0.1030 0.3886
N6 N 0.3512(4) 0.9146(4) -0.0497(3)
O9 O 0.1045(3) 0.5299(3) 0.6796(2)
O10 O 0.6602(4) 0.3688(3) 0.4468(2)
C15 C 0.9061(5) -0.2552(4) 0.4297(3)
C16 C 0.6440(5) 0.2617(4) 0.4313(3)
C17 C 0.2106(6) 0.9728(5) -0.1006(4)
H8 H 0.1651 1.0614 -0.1357
C18 C 0.2562(5) 0.5000(5) 0.1692(3)
C19 C 0.1464(6) 0.8786(6) -0.0915(4)
H9 H 0.0507 0.8889 -0.1191
C20 C 1.4262(6) 0.0436(7) 0.2462(4)
H10 H 1.5136 0.0645 0.2497
H11 H 0.416(5) 0.319(6) 0.7217(18)
H12 H 0.511(6) 0.386(5) 0.682(3)
H13 H 0.0031(19) 0.553(6) 0.677(2)
H14 H 0.140(4) 0.483(5) 0.7371(18)
Sm1A Sm 0.72262(2) -0.45190(2) -0.514796(15)
Sm1_2 Sm 0.27738(2) -0.54810(2) -0.485204(15)
Sm1_3 Sm 0.27738(2) 0.45190(2) -0.485204(15)
Sm1_4 Sm 1.27738(2) -0.54810(2) 0.514796(15)
Sm1A_2 Sm -0.27738(2) 0.54810(2) -0.514796(15)
Sm1A_3 Sm 0.72262(2) -0.45190(2) 0.485204(15)
Sm1A_4 Sm 0.72262(2) 0.54810(2) 0.485204(15)
Co1_2 Co -0.5000 0.0000 0.0000
Co1_3 Co 0.5000 -1.0000 0.0000
Co1_4 Co 0.5000 1.0000 0.0000
Co1_5 Co 1.5000 0.0000 0.0000
O1A O 0.7534(4) -0.3298(4) 0.1653(2)
C1A C 0.7545(5) -0.6436(5) -0.0125(3)
O2A O 0.7842(3) -0.3979(3) -0.3379(2)
O3A O 0.7017(4) -0.1900(3) 0.0184(2)
O4A O 0.6627(4) -0.5346(3) -0.3328(2)
N1A N 0.7475(4) -0.7685(4) 0.0340(3)
O5A O 0.2317(4) 0.2518(3) -0.4306(3)
O5_2 O 0.7683(4) -0.2518(3) -0.5694(3)
O5A_2 O 0.2317(4) 0.2518(3) 0.5694(3)
O6A O -0.0309(3) 0.3603(3) -0.4597(2)
O6_2 O 0.0309(3) 0.6397(3) 0.4597(2)
O6A_2 O 0.9691(3) -0.6397(3) -0.4597(2)
O7A O 0.4889(3) -0.2558(3) -0.4455(3)
C2A C 0.7621(5) -0.5477(5) 0.0502(3)
H1A H 0.7699 -0.5654 0.1234
N2A N -0.3973(4) 0.0099(4) -0.1638(3)
N2_2 N 0.3973(4) -0.0099(4) 0.1638(3)
N2A_2 N 0.6027(4) 0.0099(4) -0.1638(3)
C3A C 0.7576(5) -0.4245(5) 0.0014(3)
C4A C 0.7531(5) -0.4027(5) -0.1087(3)
H2A H 0.7564 -0.3225 -0.1417
C5A C 0.7385(5) -0.3075(5) 0.0672(3)
N3A N -0.2154(4) -0.0098(4) -0.2873(3)
C6A C 0.0818(5) 0.1215(4) -0.3948(3)
N4A N 0.6225(4) -0.7909(4) 0.0085(3)
C7A C 0.0643(5) -0.1333(4) -0.3576(3)
H3A H 0.0564 -0.2173 -0.3470
O8A O 0.5453(4) -0.3461(4) -0.6658(2)
C8A C -0.0675(5) -0.0076(4) -0.3341(3)
C9A C 0.2099(5) -0.1314(4) -0.3975(3)
C10A C 0.7421(5) -0.6209(5) -0.1205(3)
H4A H 0.7327 -0.6855 -0.1605
N5A N -0.2675(5) 0.0296(5) -0.1886(3)
C11A C 0.2192(5) -0.0048(4) -0.4107(3)
H5A H 0.3193 -0.0048 -0.4306
C12A C -0.0648(5) 0.1202(4) -0.3557(3)
H6A H -0.1586 0.2038 -0.3444
C13A C 0.7289(5) -0.4749(4) -0.2870(3)
C14A C -0.3075(7) -0.0625(7) -0.3241(4)
H7A H -0.2932 -0.1030 -0.3886
N6A N 0.6488(4) -0.9146(4) 0.0497(3)
N6_2 N 0.3512(4) -0.0854(4) -0.0497(3)
N6A_2 N 0.6488(4) 0.0854(4) 0.0497(3)
O9A O 0.8955(3) -0.5299(3) -0.6796(2)
O10A O 0.3398(4) -0.3688(3) -0.4468(2)
O10_2 O 0.6602(4) -0.6312(3) -0.5532(2)
O10A_2 O 0.3398(4) 0.6312(3) 0.5532(2)
C15A C 0.0939(5) 0.2552(4) -0.4297(3)
C16A C 0.3560(5) -0.2617(4) -0.4313(3)
C17A C 0.7894(6) -0.9728(5) 0.1006(4)
H8A H 0.8349 -1.0614 0.1357
C18A C 0.7438(5) -0.5000(5) -0.1692(3)
C19A C 0.8536(6) -0.8786(6) 0.0915(4)
H9A H 0.9493 -0.8889 0.1191
C20A C -0.4262(6) -0.0436(7) -0.2462(4)
H10A H -0.5136 -0.0645 -0.2497
H11A H 0.584(5) -0.319(6) -0.7217(18)
H12A H 0.489(6) -0.386(5) -0.682(3)
H13A H 0.9969(19) -0.553(6) -0.677(2)
H14A H 0.860(4) -0.483(5) -0.7371(18)
loop_
_geom_bond_atom_site_label_1
_geom_bond_atom_site_label_2
_geom_bond_site_symmetry_1
_geom_bond_site_symmetry_2
Sm1 O2 1_555 1_555
Co1 O3 1_555 1_555
O1 C5 1_555 1_555
C1 N1 1_555 1_555
O2 C13 1_555 1_555
O3 C5 1_555 1_555
O4 Sm1 1_555 1_555
N1 N4 1_555 1_555
O5 C15 1_555 1_555
O6 C15 1_555 1_555
O7 Sm1 1_555 1_555
C2 C1 1_555 1_555
H1 C2 1_555 1_555
N2 N5 1_555 1_555
C3 C2 1_555 1_555
C4 C3 1_555 1_555
H2 C4 1_555 1_555
C5 C3 1_555 1_555
N3 C8 1_555 1_555
C6 C11 1_555 1_555
N4 N6 1_555 1_555
C7 H3 1_555 1_555
O8 Sm1 1_555 1_555
C8 C7 1_555 1_555
C9 C7 1_555 1_555
C10 C1 1_555 1_555
H4 C10 1_555 1_555
N5 N3 1_555 1_555
C11 C9 1_555 1_555
H5 C11 1_555 1_555
C12 C6 1_555 1_555
H6 C12 1_555 1_555
C13 O4 1_555 1_555
C14 N3 1_555 1_555
H7 C14 1_555 1_555
N6 C17 1_555 1_555
O9 Sm1 1_555 1_555
O10 C16 1_555 1_555
C15 C6 1_555 1_555
C16 O7 1_555 1_555
C17 H8 1_555 1_555
C18 C4 1_555 1_555
C19 N1 1_555 1_555
H9 C19 1_555 1_555
C20 N2 1_555 1_555
H10 C20 1_555 1_555
H11 O8 1_555 1_555
H12 O8 1_555 1_555
H13 O9 1_555 1_555
H14 O9 1_555 1_555
Sm1A O2A 1_555 1_555
Sm1_2 O10A 1_555 1_555
Sm1_3 O5A 1_555 1_555
Sm1_4 O6 1_555 1_555
Sm1A_2 O6A 1_555 1_555
Sm1A_3 O5 1_555 1_555
Sm1A_4 O10 1_555 1_555
Co1_2 N2A 1_555 1_555
Co1_3 N6A 1_555 1_555
Co1_4 N6 1_555 1_555
Co1_5 N2 1_555 1_555
O1A C5A 1_555 1_555
C1A N1A 1_555 1_555
O2A C13A 1_555 1_555
O3A Co1 1_555 1_555
O4A Sm1A 1_555 1_555
N1A N4A 1_555 1_555
O5A C15A 1_555 1_555
O5_2 Sm1A 1_555 1_555
O5A_2 Sm1 1_555 1_555
O6A C15A 1_555 1_555
O6_2 Sm1 1_555 1_555
O6A_2 Sm1A 1_555 1_555
O7A Sm1A 1_555 1_555
C2A C1A 1_555 1_555
H1A C2A 1_555 1_555
N2A N5A 1_555 1_555
N2_2 Co1 1_555 1_555
N2A_2 Co1 1_555 1_555
C3A C2A 1_555 1_555
C4A C3A 1_555 1_555
H2A C4A 1_555 1_555
C5A O3A 1_555 1_555
N3A C8A 1_555 1_555
C6A C11A 1_555 1_555
N4A N6A 1_555 1_555
C7A H3A 1_555 1_555
O8A Sm1A 1_555 1_555
C8A C7A 1_555 1_555
C9A C7A 1_555 1_555
C10A C1A 1_555 1_555
H4A C10A 1_555 1_555
N5A N3A 1_555 1_555
C11A C9A 1_555 1_555
H5A C11A 1_555 1_555
C12A C6A 1_555 1_555
H6A C12A 1_555 1_555
C13A O4A 1_555 1_555
C14A N3A 1_555 1_555
H7A C14A 1_555 1_555
N6A C17A 1_555 1_555
N6_2 Co1 1_555 1_555
N6A_2 Co1 1_555 1_555
O9A Sm1A 1_555 1_555
O10A C16A 1_555 1_555
O10_2 Sm1A 1_555 1_555
O10A_2 Sm1 1_555 1_555
C15A C6A 1_555 1_555
C16A O7A 1_555 1_555
C17A H8A 1_555 1_555
C18A C4A 1_555 1_555
C19A N1A 1_555 1_555
H9A C19A 1_555 1_555
C20A N2A 1_555 1_555
H10A C20A 1_555 1_555
H11A O8A 1_555 1_555
H12A O8A 1_555 1_555
H13A O9A 1_555 1_555
H14A O9A 1_555 1_555
C8 C12 1_555 1_555
C9 C16 1_555 1_555
C10 C18 1_555 1_555
C13 C18 1_555 1_555
C14 C20 1_555 1_555
C17 C19 1_555 1_555
C3A C5A 1_555 1_555
C8A C12A 1_555 1_555
C9A C16A 1_555 1_555
C10A C18A 1_555 1_555
C13A C18A 1_555 1_555
C14A C20A 1_555 1_555
C17A C19A 1_555 1_555

#END
