
#######################################################################
#
#                 Cambridge Crystallographic Data Centre
#                                CCDC 
#
#######################################################################
#
# If this CIF has been generated from an entry in the Cambridge 
# Structural Database, then it will include bibliographic, chemical, 
# crystal, experimental, refinement or atomic coordinate data resulting 
# from the CCDC's data processing and validation procedures.
#
#######################################################################

data_HEDNIP
_symmetry_cell_setting           triclinic
_symmetry_space_group_name_H-M   'P -1'
_symmetry_Int_Tables_number      2
_space_group_name_Hall           '-P 1'
loop_
_symmetry_equiv_pos_site_id
_symmetry_equiv_pos_as_xyz
1 x,y,z
2 -x,-y,-z
_cell_length_a                   9.1438(10)
_cell_length_b                   10.6529(12)
_cell_length_c                   12.6229(14)
_cell_angle_alpha                84.768(3)
_cell_angle_beta                 84.951(3)
_cell_angle_gamma                63.115(2)
_cell_volume                     1090.59
loop_
_atom_site_label
_atom_site_type_symbol
_atom_site_fract_x
_atom_site_fract_y
_atom_site_fract_z
Pr1 Pr 0.77730(4) 0.45183(3) 0.51488(2)
Co1 Co 1.0000 0.0000 0.0000
N1 N 0.2850(6) -0.0105(5) 0.7129(4)
O1 O 0.7154(5) 0.3980(4) 0.3376(4)
O2 O 0.7466(7) 0.3301(5) -0.1650(4)
N2 N 0.1027(7) 0.0104(6) 0.8354(5)
O3 O 0.8378(5) 0.5337(5) 0.3331(4)
C1 C 0.7451(8) 0.6445(7) 0.0120(6)
N3 N 0.7523(7) 0.7681(6) -0.0331(5)
N4 N 0.2326(7) 0.0305(7) 0.8117(5)
C2 C 0.7622(8) 0.3077(7) -0.0675(5)
O4 O 0.7322(5) 0.2523(4) 0.5688(4)
C3 C 0.7194(7) -0.0045(6) 0.5889(5)
H1 H 0.8195 -0.0042 0.5681
O5 O 0.7987(6) 0.1887(5) -0.0177(4)
C4 C 0.7569(8) 0.5003(7) 0.1686(5)
O6 O 0.9884(5) -0.2550(5) 0.5537(4)
C5 C 0.7582(8) 0.6206(7) 0.1211(5)
H2 H 0.7677 0.6851 0.1615
C6 C 0.7410(8) 0.4247(7) -0.0015(5)
N5 N 0.8508(7) 0.9155(6) -0.0508(5)
C7 C 0.7467(8) 0.4023(7) 0.1085(5)
H3 H 0.7438 0.3218 0.1417
O7 O 0.6048(5) 0.5284(5) 0.6799(4)
C8 C 0.4317(7) -0.0071(6) 0.6656(5)
C9 C 0.5639(7) -0.1343(6) 0.6433(5)
H4 H 0.5561 -0.2186 0.6550
O8 O 0.4695(5) 0.3607(4) 0.5397(4)
C10 C 0.7099(7) -0.1321(6) 0.6024(5)
N6 N 0.8770(7) 0.7894(6) -0.0082(5)
O9 O 0.8385(6) -0.3693(4) 0.5540(4)
C11 C 0.4360(7) 0.1210(6) 0.6435(5)
H5 H 0.3421 0.2054 0.6537
O10 O 0.9545(6) 0.3460(5) 0.6670(4)
C12 C 0.5824(7) 0.1211(6) 0.6059(5)
C13 C 0.0742(9) -0.0422(10) 0.7527(6)
H6 H -0.0144 -0.0618 0.7486
C14 C 0.7376(8) 0.5493(7) -0.0510(6)
H7 H 0.7305 0.5669 -0.1244
C15 C 0.5952(7) 0.2557(6) 0.5699(5)
C16 C 0.7705(7) 0.4735(6) 0.2872(5)
C17 C 0.1940(10) -0.0632(10) 0.6750(6)
H8 H 0.2091 -0.1046 0.6106
C18 C 0.8553(7) -0.2616(6) 0.5677(5)
C19 C 0.6454(10) 0.8786(8) -0.0914(6)
H9 H 0.5498 0.8886 -0.1195
C20 C 0.7094(9) 0.9720(7) -0.0998(6)
H10 H 0.6624 1.0613 -0.1343
H11 H 0.504(3) 0.547(8) 0.679(3)
H12 H 0.643(4) 0.483(7) 0.738(2)
Pr1A Pr 0.22270(4) -0.45183(3) 0.48512(2)
Pr1_2 Pr -0.22270(4) 0.45183(3) 0.51488(2)
Pr1_3 Pr 0.77730(4) -0.54817(3) 0.51488(2)
Pr1A_2 Pr 0.22270(4) 0.54817(3) 0.48512(2)
Pr1A_3 Pr 1.22270(4) -0.45183(3) 0.48512(2)
Co1_2 Co 0.0000 -1.0000 1.0000
Co1_3 Co 0.0000 0.0000 1.0000
Co1_4 Co 1.0000 1.0000 0.0000
N1A N 0.7150(6) 0.0105(5) 0.2871(4)
O1A O 0.2846(5) -0.3980(4) 0.6624(4)
O2A O 0.2534(7) -0.3301(5) 1.1650(4)
N2A N 0.8973(7) -0.0104(6) 0.1646(5)
N2_2 N 1.1027(7) 0.0104(6) -0.1646(5)
O3A O 0.1622(5) -0.5337(5) 0.6669(4)
C1A C 0.2549(8) -0.6445(7) 0.9880(6)
N3A N 0.2477(7) -0.7681(6) 1.0331(5)
N4A N 0.7674(7) -0.0305(7) 0.1883(5)
C2A C 0.2378(8) -0.3077(7) 1.0675(5)
O4A O 0.2678(5) -0.2523(4) 0.4312(4)
C3A C 0.2806(7) 0.0045(6) 0.4111(5)
H1A H 0.1805 0.0042 0.4319
O5A O 0.2013(6) -0.1887(5) 1.0177(4)
O5A_2 O 1.2013(6) -0.1887(5) 0.0177(4)
C4A C 0.2431(8) -0.5003(7) 0.8314(5)
O6A O 0.0116(5) 0.2550(5) 0.4463(4)
O6_2 O -0.0116(5) -0.2550(5) 0.5537(4)
O6A_2 O 1.0116(5) 0.2550(5) 0.4463(4)
C5A C 0.2418(8) -0.6206(7) 0.8789(5)
H2A H 0.2323 -0.6851 0.8385
C6A C 0.2590(8) -0.4247(7) 1.0015(5)
N5A N 0.1492(7) -0.9155(6) 1.0508(5)
N5_2 N 0.8508(7) -0.0845(6) -0.0508(5)
N5A_2 N 1.1492(7) 0.0845(6) 0.0508(5)
C7A C 0.2533(8) -0.4023(7) 0.8915(5)
H3A H 0.2562 -0.3218 0.8583
O7A O 0.3952(5) -0.5284(5) 0.3201(4)
C8A C 0.5683(7) 0.0071(6) 0.3344(5)
C9A C 0.4361(7) 0.1343(6) 0.3567(5)
H4A H 0.4439 0.2186 0.3450
O8A O 0.5305(5) -0.3607(4) 0.4603(4)
O8_2 O 0.4695(5) -0.6393(4) 0.5397(4)
O8A_2 O 0.5305(5) 0.6393(4) 0.4603(4)
C10A C 0.2901(7) 0.1321(6) 0.3976(5)
N6A N 0.1230(7) -0.7894(6) 1.0082(5)
O9A O 0.1615(6) 0.3693(4) 0.4460(4)
O9_2 O 0.8385(6) 0.6307(4) 0.5540(4)
O9A_2 O 0.1615(6) -0.6307(4) 0.4460(4)
C11A C 0.5640(7) -0.1210(6) 0.3565(5)
H5A H 0.6579 -0.2054 0.3463
O10A O 0.0455(6) -0.3460(5) 0.3330(4)
C12A C 0.4176(7) -0.1211(6) 0.3941(5)
C13A C 0.9258(9) 0.0422(10) 0.2473(6)
H6A H 1.0144 0.0618 0.2514
C14A C 0.2624(8) -0.5493(7) 1.0510(6)
H7A H 0.2695 -0.5669 1.1244
C15A C 0.4048(7) -0.2557(6) 0.4301(5)
C16A C 0.2295(7) -0.4735(6) 0.7128(5)
C17A C 0.8060(10) 0.0632(10) 0.3250(6)
H8A H 0.7909 0.1046 0.3894
C18A C 0.1447(7) 0.2616(6) 0.4323(5)
C19A C 0.3546(10) -0.8786(8) 1.0914(6)
H9A H 0.4502 -0.8886 1.1195
C20A C 0.2906(9) -0.9720(7) 1.0998(6)
H10A H 0.3376 -1.0613 1.1343
H11A H 0.496(3) -0.547(8) 0.321(3)
H12A H 0.357(4) -0.483(7) 0.262(2)
loop_
_geom_bond_atom_site_label_1
_geom_bond_atom_site_label_2
_geom_bond_site_symmetry_1
_geom_bond_site_symmetry_2
Pr1 O1 1_555 1_555
Co1 O5 1_555 1_555
N1 N4 1_555 1_555
O1 C16 1_555 1_555
O2 C2 1_555 1_555
N2 N4 1_555 1_555
O3 Pr1 1_555 1_555
C1 N3 1_555 1_555
N3 N6 1_555 1_555
C2 O5 1_555 1_555
O4 Pr1 1_555 1_555
C3 H1 1_555 1_555
C4 C5 1_555 1_555
O6 C18 1_555 1_555
C5 C1 1_555 1_555
H2 C5 1_555 1_555
C6 C2 1_555 1_555
N5 N6 1_555 1_555
C7 C4 1_555 1_555
H3 C7 1_555 1_555
O7 Pr1 1_555 1_555
C8 N1 1_555 1_555
C9 C8 1_555 1_555
H4 C9 1_555 1_555
O8 C15 1_555 1_555
C10 C3 1_555 1_555
O9 C18 1_555 1_555
C11 C8 1_555 1_555
H5 C11 1_555 1_555
O10 Pr1 1_555 1_555
C12 C3 1_555 1_555
C13 N2 1_555 1_555
H6 C13 1_555 1_555
C14 C1 1_555 1_555
H7 C14 1_555 1_555
C15 O4 1_555 1_555
C16 O3 1_555 1_555
C17 N1 1_555 1_555
H8 C17 1_555 1_555
C18 C10 1_555 1_555
C19 N3 1_555 1_555
H9 C19 1_555 1_555
C20 N5 1_555 1_555
H10 C20 1_555 1_555
H11 O7 1_555 1_555
H12 O7 1_555 1_555
Pr1A O1A 1_555 1_555
Pr1_2 O6A 1_555 1_555
Pr1_3 O9 1_555 1_555
Pr1A_2 O8 1_555 1_555
Pr1A_3 O6 1_555 1_555
Co1_2 N5A 1_555 1_555
Co1_3 N2 1_555 1_555
Co1_4 N5 1_555 1_555
N1A N4A 1_555 1_555
O1A C16A 1_555 1_555
O2A C2A 1_555 1_555
N2A Co1 1_555 1_555
N2_2 Co1 1_555 1_555
O3A Pr1A 1_555 1_555
C1A N3A 1_555 1_555
N3A N6A 1_555 1_555
N4A N2A 1_555 1_555
C2A O5A 1_555 1_555
O4A Pr1A 1_555 1_555
C3A H1A 1_555 1_555
O5A Co1_3 1_555 1_555
O5A_2 Co1 1_555 1_555
C4A C5A 1_555 1_555
O6A C18A 1_555 1_555
O6_2 Pr1A 1_555 1_555
O6A_2 Pr1 1_555 1_555
C5A C1A 1_555 1_555
H2A C5A 1_555 1_555
C6A C2A 1_555 1_555
N5A N6A 1_555 1_555
N5_2 Co1 1_555 1_555
N5A_2 Co1 1_555 1_555
C7A C4A 1_555 1_555
H3A C7A 1_555 1_555
O7A Pr1A 1_555 1_555
C8A N1A 1_555 1_555
C9A C8A 1_555 1_555
H4A C9A 1_555 1_555
O8A Pr1_3 1_555 1_555
O8_2 Pr1A 1_555 1_555
O8A_2 Pr1 1_555 1_555
C10A C3A 1_555 1_555
O9A Pr1A_2 1_555 1_555
O9_2 Pr1 1_555 1_555
O9A_2 Pr1A 1_555 1_555
C11A C8A 1_555 1_555
H5A C11A 1_555 1_555
O10A Pr1A 1_555 1_555
C12A C3A 1_555 1_555
C13A N2A 1_555 1_555
H6A C13A 1_555 1_555
C14A C1A 1_555 1_555
H7A C14A 1_555 1_555
C15A O4A 1_555 1_555
C16A O3A 1_555 1_555
C17A N1A 1_555 1_555
H8A C17A 1_555 1_555
C18A C10A 1_555 1_555
C19A N3A 1_555 1_555
H9A C19A 1_555 1_555
C20A N5A 1_555 1_555
H10A C20A 1_555 1_555
H11A O7A 1_555 1_555
H12A O7A 1_555 1_555
C4 C16 1_555 1_555
C6 C7 1_555 1_555
C6 C14 1_555 1_555
C9 C10 1_555 1_555
C11 C12 1_555 1_555
C12 C15 1_555 1_555
C13 C17 1_555 1_555
C19 C20 1_555 1_555
C4A C16A 1_555 1_555
C6A C7A 1_555 1_555
C6A C14A 1_555 1_555
C9A C10A 1_555 1_555
O8A C15A 1_555 1_555
O9A C18A 1_555 1_555
C11A C12A 1_555 1_555
C12A C15A 1_555 1_555
C13A C17A 1_555 1_555
C19A C20A 1_555 1_555

#END
