
#######################################################################
#
#                 Cambridge Crystallographic Data Centre
#                                CCDC 
#
#######################################################################
#
# If this CIF has been generated from an entry in the Cambridge 
# Structural Database, then it will include bibliographic, chemical, 
# crystal, experimental, refinement or atomic coordinate data resulting 
# from the CCDC's data processing and validation procedures.
#
#######################################################################

data_HEDNUB
_symmetry_cell_setting           triclinic
_symmetry_space_group_name_H-M   'P -1'
_symmetry_Int_Tables_number      2
_space_group_name_Hall           '-P 1'
loop_
_symmetry_equiv_pos_site_id
_symmetry_equiv_pos_as_xyz
1 x,y,z
2 -x,-y,-z
_cell_length_a                   9.1880(9)
_cell_length_b                   10.6721(10)
_cell_length_c                   12.6208(12)
_cell_angle_alpha                84.041(2)
_cell_angle_beta                 84.911(2)
_cell_angle_gamma                62.580(2)
_cell_volume                     1091.4
loop_
_atom_site_label
_atom_site_type_symbol
_atom_site_fract_x
_atom_site_fract_y
_atom_site_fract_z
Tb1 Tb 0.27520(4) 0.45145(3) 0.51601(2)
Co1 Co 0.5000 0.0000 0.0000
O1 O 0.2962(6) 0.1913(5) -0.0150(4)
N1 N 0.2165(6) 1.0058(6) 0.2879(4)
O2 O 0.1018(5) 0.5295(5) 0.6759(4)
N2 N 0.3987(7) 0.9861(6) 0.1640(4)
O3 O -0.4856(5) 1.2613(5) 0.4535(4)
C1 C 0.2405(9) 0.4253(8) 0.0023(6)
C2 C 0.2426(9) 0.6482(8) 0.0116(6)
C3 C 0.2598(9) 0.3086(8) -0.0639(5)
C4 C -0.0965(8) 0.7438(7) 0.4299(5)
O4 O -0.3315(6) 1.3699(5) 0.4475(4)
O5 O 0.2186(5) 0.3963(5) 0.3412(3)
C5 C -0.0640(8) 1.1326(7) 0.3585(5)
H1 H -0.0551 1.2164 0.3473
O6 O 0.3382(6) 0.5324(5) 0.3368(4)
N3 N 0.2694(8) 0.9658(8) 0.1883(5)
O7 O 0.2435(7) 0.3330(6) -0.1634(4)
C6 C -0.2218(7) 1.0087(7) 0.4106(5)
H2 H -0.3229 1.0106 0.4297
N4 N 0.3782(7) 0.7912(6) -0.0086(5)
O8 O 0.0305(5) 0.6379(5) 0.4585(4)
O9 O 0.4501(6) 0.3489(6) 0.6662(4)
C7 C 0.2586(9) 0.6208(8) 0.1236(5)
H3 H 0.2706 0.6833 0.1639
O10 O -0.2341(6) 0.7482(5) 0.4313(4)
C8 C 0.2464(8) 0.4045(7) 0.1111(5)
H4 H 0.2440 0.3239 0.1452
C9 C 0.2345(8) 0.5511(7) -0.0488(5)
H5 H 0.2251 0.5685 -0.1223
C10 C 0.0634(8) 0.8785(7) 0.3540(5)
H6 H 0.1558 0.7937 0.3412
N5 N 0.2524(7) 0.7704(6) -0.0332(4)
C11 C 0.2559(9) 0.5014(8) 0.1708(5)
C12 C -0.0845(7) 0.8802(7) 0.3938(5)
N6 N 0.3516(7) 0.9155(6) -0.0516(5)
C13 C -0.2091(7) 1.1332(7) 0.3992(5)
C14 C -0.3528(8) 1.2651(7) 0.4356(5)
C15 C 0.0684(7) 1.0040(7) 0.3347(5)
C16 C 0.2731(7) 0.4726(7) 0.2906(5)
C17 C 0.3087(11) 1.0560(11) 0.3262(6)
H7 H 0.2966 1.0920 0.3922
C18 C 0.4266(10) 1.0424(10) 0.2453(6)
H8 H 0.5104 1.0679 0.2473
C19 C 0.2080(9) 0.9776(8) -0.1030(6)
H9 H 0.1623 1.0672 -0.1385
C20 C 0.1439(10) 0.8852(10) -0.0932(6)
H10 H 0.0476 0.8969 -0.1209
H11 H 0.001(3) 0.553(9) 0.669(4)
H12 H 0.136(5) 0.476(7) 0.732(3)
H13 H 0.415(8) 0.321(9) 0.723(2)
H14 H 0.507(9) 0.388(7) 0.682(4)
Tb1A Tb -0.27520(4) 0.54855(3) 0.48399(2)
Tb1_2 Tb -0.72480(4) 1.45145(3) 0.51601(2)
Tb1_3 Tb 0.27520(4) -0.54855(3) 0.51601(2)
Tb1A_2 Tb -0.27520(4) 1.54855(3) 0.48399(2)
Tb1A_3 Tb 0.72480(4) -0.45145(3) 0.48399(2)
Co1_2 Co -0.5000 0.0000 1.0000
Co1_3 Co -0.5000 1.0000 1.0000
Co1_4 Co 0.5000 1.0000 0.0000
O1A O -0.2962(6) 0.8087(5) 1.0150(4)
O1A_2 O 0.7038(6) -0.1913(5) 0.0150(4)
N1A N -0.2165(6) -0.0058(6) 0.7121(4)
O2A O -0.1018(5) 0.4705(5) 0.3241(4)
N2A N -0.3987(7) 0.0139(6) 0.8360(4)
N2_2 N 0.3987(7) -0.0139(6) 0.1640(4)
N2A_2 N 0.6013(7) 0.0139(6) -0.1640(4)
O3A O 0.4856(5) -0.2613(5) 0.5465(4)
O3_2 O 0.5144(5) 0.2613(5) 0.4535(4)
O3A_2 O -0.5144(5) 0.7387(5) 0.5465(4)
C1A C -0.2405(9) 0.5747(8) 0.9977(6)
C2A C -0.2426(9) 0.3518(8) 0.9884(6)
C3A C -0.2598(9) 0.6914(8) 1.0639(5)
C4A C 0.0965(8) 0.2562(7) 0.5701(5)
O4A O 0.3315(6) -0.3699(5) 0.5525(4)
O4_2 O -0.3315(6) 0.3699(5) 0.4475(4)
O4A_2 O 0.3315(6) 0.6301(5) 0.5525(4)
O5A O -0.2186(5) 0.6037(5) 0.6588(3)
C5A C 0.0640(8) -0.1326(7) 0.6415(5)
H1A H 0.0551 -0.2164 0.6527
O6A O -0.3382(6) 0.4676(5) 0.6632(4)
N3A N -0.2694(8) 0.0342(8) 0.8117(5)
O7A O -0.2435(7) 0.6670(6) 1.1634(4)
C6A C 0.2218(7) -0.0087(7) 0.5894(5)
H2A H 0.3229 -0.0106 0.5703
N4A N -0.3782(7) 0.2088(6) 1.0086(5)
O8A O -0.0305(5) 0.3621(5) 0.5415(4)
O9A O -0.4501(6) 0.6511(6) 0.3338(4)
C7A C -0.2586(9) 0.3792(8) 0.8764(5)
H3A H -0.2706 0.3167 0.8361
O10A O 0.2341(6) 0.2518(5) 0.5687(4)
C8A C -0.2464(8) 0.5955(7) 0.8889(5)
H4A H -0.2440 0.6761 0.8548
C9A C -0.2345(8) 0.4489(7) 1.0488(5)
H5A H -0.2251 0.4315 1.1223
C10A C -0.0634(8) 0.1215(7) 0.6460(5)
H6A H -0.1558 0.2063 0.6588
N5A N -0.2524(7) 0.2296(6) 1.0332(4)
C11A C -0.2559(9) 0.4986(8) 0.8292(5)
C12A C 0.0845(7) 0.1198(7) 0.6062(5)
N6A N -0.3516(7) 0.0845(6) 1.0516(5)
N6_2 N 0.3516(7) -0.0845(6) -0.0516(5)
N6A_2 N 0.6484(7) 0.0845(6) 0.0516(5)
C13A C 0.2091(7) -0.1332(7) 0.6008(5)
C14A C 0.3528(8) -0.2651(7) 0.5644(5)
C15A C -0.0684(7) -0.0040(7) 0.6653(5)
C16A C -0.2731(7) 0.5274(7) 0.7094(5)
C17A C -0.3087(11) -0.0560(11) 0.6738(6)
H7A H -0.2966 -0.0920 0.6078
C18A C -0.4266(10) -0.0424(10) 0.7547(6)
H8A H -0.5104 -0.0679 0.7527
C19A C -0.2080(9) 0.0224(8) 1.1030(6)
H9A H -0.1623 -0.0672 1.1385
C20A C -0.1439(10) 0.1148(10) 1.0932(6)
H10A H -0.0476 0.1031 1.1209
H11A H -0.001(3) 0.447(9) 0.331(4)
H12A H -0.136(5) 0.524(7) 0.268(3)
H13A H -0.415(8) 0.679(9) 0.277(2)
H14A H -0.507(9) 0.612(7) 0.318(4)
loop_
_geom_bond_atom_site_label_1
_geom_bond_atom_site_label_2
_geom_bond_site_symmetry_1
_geom_bond_site_symmetry_2
Tb1 O2 1_555 1_555
Co1 O1 1_555 1_555
O1 C3 1_555 1_555
N1 N3 1_555 1_555
O2 H11 1_555 1_555
N2 N3 1_555 1_555
O3 C14 1_555 1_555
C1 C3 1_555 1_555
C2 C7 1_555 1_555
C3 O7 1_555 1_555
C4 O8 1_555 1_555
O4 C14 1_555 1_555
O5 Tb1 1_555 1_555
C5 H1 1_555 1_555
O6 Tb1 1_555 1_555
C6 H2 1_555 1_555
N4 N5 1_555 1_555
O8 Tb1 1_555 1_555
O9 Tb1 1_555 1_555
C7 H3 1_555 1_555
O10 C4 1_555 1_555
C8 C1 1_555 1_555
H4 C8 1_555 1_555
C9 C1 1_555 1_555
H5 C9 1_555 1_555
C10 H6 1_555 1_555
N5 C2 1_555 1_555
C11 C7 1_555 1_555
C12 C4 1_555 1_555
N6 N4 1_555 1_555
C13 C5 1_555 1_555
C14 C13 1_555 1_555
C15 N1 1_555 1_555
C16 O5 1_555 1_555
C17 N1 1_555 1_555
H7 C17 1_555 1_555
C18 N2 1_555 1_555
H8 C18 1_555 1_555
C19 N6 1_555 1_555
H9 C19 1_555 1_555
C20 N5 1_555 1_555
H10 C20 1_555 1_555
H12 O2 1_555 1_555
H13 O9 1_555 1_555
H14 O9 1_555 1_555
Tb1A O10 1_555 1_555
Tb1_2 O3 1_555 1_555
Tb1_3 O4A 1_555 1_555
Tb1A_2 O4 1_555 1_555
Tb1A_3 O3A 1_555 1_555
Co1_2 N2A 1_555 1_555
Co1_3 O1A 1_555 1_555
Co1_4 N2 1_555 1_555
O1A C3A 1_555 1_555
O1A_2 Co1 1_555 1_555
N1A N3A 1_555 1_555
O2A Tb1A 1_555 1_555
N2A N3A 1_555 1_555
N2_2 Co1 1_555 1_555
N2A_2 Co1 1_555 1_555
O3A C14A 1_555 1_555
O3_2 Tb1 1_555 1_555
O3A_2 Tb1A 1_555 1_555
C1A C3A 1_555 1_555
C2A C7A 1_555 1_555
C3A O7A 1_555 1_555
C4A O8A 1_555 1_555
O4A C14A 1_555 1_555
O4_2 Tb1A 1_555 1_555
O4A_2 Tb1 1_555 1_555
O5A Tb1A 1_555 1_555
C5A H1A 1_555 1_555
O6A Tb1A 1_555 1_555
C6A H2A 1_555 1_555
N4A N5A 1_555 1_555
O8A Tb1A 1_555 1_555
O9A Tb1A 1_555 1_555
C7A H3A 1_555 1_555
O10A Tb1 1_555 1_555
C8A C1A 1_555 1_555
H4A C8A 1_555 1_555
C9A C1A 1_555 1_555
H5A C9A 1_555 1_555
C10A H6A 1_555 1_555
N5A C2A 1_555 1_555
C11A C7A 1_555 1_555
C12A C4A 1_555 1_555
N6A Co1_2 1_555 1_555
N6_2 Co1 1_555 1_555
N6A_2 Co1 1_555 1_555
C13A C5A 1_555 1_555
C14A C13A 1_555 1_555
C15A N1A 1_555 1_555
C16A O5A 1_555 1_555
C17A N1A 1_555 1_555
H7A C17A 1_555 1_555
C18A N2A 1_555 1_555
H8A C18A 1_555 1_555
C19A N6A 1_555 1_555
H9A C19A 1_555 1_555
C20A N5A 1_555 1_555
H10A C20A 1_555 1_555
H11A O2A 1_555 1_555
H12A O2A 1_555 1_555
H13A O9A 1_555 1_555
H14A O9A 1_555 1_555
C2 C9 1_555 1_555
C5 C15 1_555 1_555
O6 C16 1_555 1_555
C6 C12 1_555 1_555
C6 C13 1_555 1_555
C8 C11 1_555 1_555
C10 C12 1_555 1_555
C10 C15 1_555 1_555
C11 C16 1_555 1_555
N6 Co1_4 1_555 1_555
C17 C18 1_555 1_555
C19 C20 1_555 1_555
C2A C9A 1_555 1_555
C4A O10A 1_555 1_555
C5A C15A 1_555 1_555
O6A C16A 1_555 1_555
C6A C12A 1_555 1_555
C6A C13A 1_555 1_555
N4A N6A 1_555 1_555
C8A C11A 1_555 1_555
C10A C12A 1_555 1_555
C10A C15A 1_555 1_555
C11A C16A 1_555 1_555
C17A C18A 1_555 1_555
C19A C20A 1_555 1_555

#END
