
#######################################################################
#
#                 Cambridge Crystallographic Data Centre
#                                CCDC 
#
#######################################################################
#
# If this CIF has been generated from an entry in the Cambridge 
# Structural Database, then it will include bibliographic, chemical, 
# crystal, experimental, refinement or atomic coordinate data resulting 
# from the CCDC's data processing and validation procedures.
#
#######################################################################

data_HEDPOX
_symmetry_cell_setting           triclinic
_symmetry_space_group_name_H-M   'P -1'
_symmetry_Int_Tables_number      2
_space_group_name_Hall           '-P 1'
loop_
_symmetry_equiv_pos_site_id
_symmetry_equiv_pos_as_xyz
1 x,y,z
2 -x,-y,-z
_cell_length_a                   9.1359(7)
_cell_length_b                   10.7085(8)
_cell_length_c                   12.7553(9)
_cell_angle_alpha                86.260(2)
_cell_angle_beta                 84.661(3)
_cell_angle_gamma                64.421(2)
_cell_volume                     1120.25
loop_
_atom_site_label
_atom_site_type_symbol
_atom_site_fract_x
_atom_site_fract_y
_atom_site_fract_z
Ce1 Ce 0.21147(2) 0.048282(17) -0.011660(14)
Co1 Co 1.0000 0.5000 -0.5000
O1 O 0.1634(3) -0.0370(3) 0.1752(2)
O2 O 0.2435(4) 0.1796(3) 0.6702(2)
O3 O 0.2990(3) 0.0909(3) 0.16842(19)
C1 C 0.2552(4) 0.0798(3) 0.5063(3)
C2 C 0.2561(4) 0.0972(4) 0.3971(3)
H1 H 0.2604 0.1762 0.3651
N1 N 0.1241(4) -0.2891(3) 0.5090(3)
O4 O 0.0316(3) 0.1690(3) -0.1646(2)
O5 O 0.3844(3) -0.0279(3) -0.1870(2)
O6 O 0.0012(3) 0.7384(3) -0.0735(2)
C3 C 0.4231(4) 0.3800(3) -0.1022(3)
O7 O 0.1936(3) 0.3138(2) 0.5258(2)
N2 N 0.7082(3) 0.5241(3) -0.2146(2)
N3 N 0.2478(4) -0.2646(3) 0.5347(2)
C4 C 0.2840(4) 0.6299(3) -0.1061(3)
C5 C 0.2304(4) 0.1997(3) 0.5734(3)
O8 O 0.5420(3) 0.1503(3) -0.0328(2)
C6 C 0.2590(5) -0.0425(4) 0.5534(3)
H2 H 0.2630 -0.0572 0.6260
O9 O 0.1308(3) 0.8661(2) -0.0538(2)
C7 C 0.2876(5) -0.4652(4) 0.5994(3)
H3 H 0.3307 -0.5510 0.6344
O10 O 0.2834(3) 0.2415(3) -0.0647(2)
C8 C 0.4258(4) 0.6387(3) -0.1458(3)
H4 H 0.4286 0.7242 -0.1583
N4 N 0.7600(4) 0.4810(3) -0.3134(2)
C9 C 0.2495(5) -0.1227(4) 0.3828(3)
H5 H 0.2438 -0.1895 0.3423
C10 C 0.8020(5) 0.5767(5) -0.1773(3)
H6 H 0.7898 0.6154 -0.1121
N5 N 0.1491(4) -0.4113(3) 0.5487(2)
C11 C 0.5636(4) 0.5162(3) -0.1666(3)
C12 C 0.2569(5) -0.1416(4) 0.4900(3)
N6 N 0.8893(4) 0.5033(3) -0.3381(2)
C13 C 0.3531(5) -0.3715(4) 0.5902(3)
H7 H 0.4487 -0.3798 0.6163
C14 C 0.2508(4) -0.0031(4) 0.3357(3)
C15 C 0.1287(4) 0.7539(3) -0.0770(3)
C16 C 0.5669(4) 0.3871(3) -0.1415(3)
H8 H 0.6630 0.3069 -0.1507
C17 C 0.2823(4) 0.5011(3) -0.0895(3)
H9 H 0.1844 0.4962 -0.0693
C18 C 0.2375(4) 0.0189(4) 0.2194(3)
C19 C 0.4174(4) 0.2457(3) -0.0658(3)
C20 C 0.9187(5) 0.5607(5) -0.2562(3)
H10 H 1.0044 0.5853 -0.2541
H11 H -0.011(5) 0.125(3) -0.194(3)
H12 H -0.034(4) 0.2532(16) -0.160(3)
H13 H 0.4859(16) -0.051(5) -0.185(2)
H14 H 0.351(4) 0.026(4) -0.2402(19)
Ce1A Ce -0.21147(2) 0.951718(17) 0.011660(14)
Ce1_2 Ce -0.78853(2) 1.048282(17) -0.011660(14)
Ce1_3 Ce 0.21147(2) 1.048282(17) -0.011660(14)
Ce1A_2 Ce -0.21147(2) -0.048282(17) 0.011660(14)
Ce1A_3 Ce 0.78853(2) -0.048282(17) 0.011660(14)
Co1_2 Co -1.0000 0.5000 0.5000
Co1_3 Co 0.0000 -0.5000 0.5000
Co1_4 Co 0.0000 0.5000 -0.5000
Co1_5 Co 0.0000 0.5000 0.5000
Co1_6 Co 0.0000 1.5000 -0.5000
O1A O -0.1634(3) 1.0370(3) -0.1752(2)
O2A O -0.2435(4) 0.8204(3) -0.6702(2)
O3A O -0.2990(3) 0.9091(3) -0.16842(19)
C1A C -0.2552(4) 0.9202(3) -0.5063(3)
C2A C -0.2561(4) 0.9028(4) -0.3971(3)
H1A H -0.2604 0.8238 -0.3651
N1A N -0.1241(4) 1.2891(3) -0.5090(3)
O4A O -0.0316(3) 0.8310(3) 0.1646(2)
O5A O -0.3844(3) 1.0279(3) 0.1870(2)
O6A O -0.0012(3) 0.2616(3) 0.0735(2)
C3A C -0.4231(4) 0.6200(3) 0.1022(3)
O7A O -0.1936(3) 0.6862(2) -0.5258(2)
O7_2 O 1.1936(3) 0.3138(2) -0.4742(2)
O7A_2 O 0.8064(3) 0.6862(2) -0.5258(2)
N2A N -0.7082(3) 0.4759(3) 0.2146(2)
N3A N -0.2478(4) 1.2646(3) -0.5347(2)
C4A C -0.2840(4) 0.3701(3) 0.1061(3)
C5A C -0.2304(4) 0.8003(3) -0.5734(3)
O8A O -0.5420(3) 0.8497(3) 0.0328(2)
O8_2 O -0.4580(3) 1.1503(3) -0.0328(2)
O8A_2 O 0.4580(3) -0.1503(3) 0.0328(2)
C6A C -0.2590(5) 1.0425(4) -0.5534(3)
H2A H -0.2630 1.0572 -0.6260
O9A O -0.1308(3) 0.1339(2) 0.0538(2)
O9_2 O 0.1308(3) -0.1339(2) -0.0538(2)
O9A_2 O -0.1308(3) 1.1339(2) 0.0538(2)
C7A C -0.2876(5) 1.4652(4) -0.5994(3)
H3A H -0.3307 1.5510 -0.6344
O10A O -0.2834(3) 0.7585(3) 0.0647(2)
C8A C -0.4258(4) 0.3613(3) 0.1458(3)
H4A H -0.4286 0.2758 0.1583
N4A N -0.7600(4) 0.5190(3) 0.3134(2)
C9A C -0.2495(5) 1.1227(4) -0.3828(3)
H5A H -0.2438 1.1895 -0.3423
C10A C -0.8020(5) 0.4233(5) 0.1773(3)
H6A H -0.7898 0.3846 0.1121
N5A N -0.1491(4) 1.4113(3) -0.5487(2)
N5_2 N 1.1491(4) 0.5887(3) -0.4513(2)
N5A_2 N 0.8509(4) 0.4113(3) -0.5487(2)
C11A C -0.5636(4) 0.4838(3) 0.1666(3)
C12A C -0.2569(5) 1.1416(4) -0.4900(3)
N6A N -0.8893(4) 0.4967(3) 0.3381(2)
N6A_2 N 1.1107(4) 0.4967(3) -0.6619(2)
C13A C -0.3531(5) 1.3715(4) -0.5902(3)
H7A H -0.4487 1.3798 -0.6163
C14A C -0.2508(4) 1.0031(4) -0.3357(3)
C15A C -0.1287(4) 0.2461(3) 0.0770(3)
C16A C -0.5669(4) 0.6129(3) 0.1415(3)
H8A H -0.6630 0.6931 0.1507
C17A C -0.2823(4) 0.4989(3) 0.0895(3)
H9A H -0.1844 0.5038 0.0693
C18A C -0.2375(4) 0.9811(4) -0.2194(3)
C19A C -0.4174(4) 0.7543(3) 0.0658(3)
C20A C -0.9187(5) 0.4393(5) 0.2562(3)
H10A H -1.0044 0.4147 0.2541
H11A H 0.011(5) 0.875(3) 0.194(3)
H12A H 0.034(4) 0.7468(16) 0.160(3)
H13A H -0.4859(16) 1.051(5) 0.185(2)
H14A H -0.351(4) 0.974(4) 0.2402(19)
loop_
_geom_bond_atom_site_label_1
_geom_bond_atom_site_label_2
_geom_bond_site_symmetry_1
_geom_bond_site_symmetry_2
Ce1 O1 1_555 1_555
Co1 N6 1_555 1_555
O1 C18 1_555 1_555
O2 C5 1_555 1_555
O3 Ce1 1_555 1_555
C1 C2 1_555 1_555
C2 H1 1_555 1_555
N1 N3 1_555 1_555
O4 Ce1 1_555 1_555
O5 Ce1 1_555 1_555
O6 C15 1_555 1_555
C3 C16 1_555 1_555
O7 C5 1_555 1_555
N2 N4 1_555 1_555
N3 C12 1_555 1_555
C4 C8 1_555 1_555
C5 C1 1_555 1_555
O8 C19 1_555 1_555
C6 C1 1_555 1_555
H2 C6 1_555 1_555
O9 C15 1_555 1_555
C7 H3 1_555 1_555
O10 Ce1 1_555 1_555
C8 H4 1_555 1_555
N4 N6 1_555 1_555
C9 H5 1_555 1_555
C10 N2 1_555 1_555
H6 C10 1_555 1_555
N5 N1 1_555 1_555
C11 N2 1_555 1_555
C12 C6 1_555 1_555
N6 C20 1_555 1_555
C13 N3 1_555 1_555
H7 C13 1_555 1_555
C14 C2 1_555 1_555
C15 C4 1_555 1_555
C16 C11 1_555 1_555
H8 C16 1_555 1_555
C17 C3 1_555 1_555
H9 C17 1_555 1_555
C18 O3 1_555 1_555
C19 C3 1_555 1_555
C20 C10 1_555 1_555
H10 C20 1_555 1_555
H11 O4 1_555 1_555
H12 O4 1_555 1_555
H13 O5 1_555 1_555
H14 O5 1_555 1_555
Ce1A O6 1_555 1_555
Ce1_2 O8A 1_555 1_555
Ce1_3 O9 1_555 1_555
Ce1A_2 O9A 1_555 1_555
Ce1A_3 O8 1_555 1_555
Co1_2 N6A 1_555 1_555
Co1_3 N5 1_555 1_555
Co1_4 O7A 1_555 1_555
Co1_5 O7 1_555 1_555
Co1_6 N5A 1_555 1_555
O1A Ce1A 1_555 1_555
O2A C5A 1_555 1_555
O3A Ce1A 1_555 1_555
C1A C2A 1_555 1_555
C2A H1A 1_555 1_555
N1A N3A 1_555 1_555
O4A Ce1A 1_555 1_555
O5A Ce1A 1_555 1_555
O6A Ce1 1_555 1_555
C3A C16A 1_555 1_555
O7A C5A 1_555 1_555
O7_2 Co1 1_555 1_555
O7A_2 Co1 1_555 1_555
N2A N4A 1_555 1_555
N3A C12A 1_555 1_555
C4A C8A 1_555 1_555
C5A C1A 1_555 1_555
O8A C19A 1_555 1_555
O8_2 Ce1A 1_555 1_555
O8A_2 Ce1 1_555 1_555
C6A C1A 1_555 1_555
H2A C6A 1_555 1_555
O9A Ce1 1_555 1_555
O9_2 Ce1 1_555 1_555
O9A_2 Ce1A 1_555 1_555
C7A H3A 1_555 1_555
O10A Ce1A 1_555 1_555
C8A H4A 1_555 1_555
N4A N6A 1_555 1_555
C9A H5A 1_555 1_555
C10A N2A 1_555 1_555
H6A C10A 1_555 1_555
N5A N1A 1_555 1_555
N5_2 Co1 1_555 1_555
N5A_2 Co1 1_555 1_555
C11A N2A 1_555 1_555
C12A C6A 1_555 1_555
N6A C20A 1_555 1_555
N6A_2 Co1 1_555 1_555
C13A N3A 1_555 1_555
H7A C13A 1_555 1_555
C14A C2A 1_555 1_555
C15A O6A 1_555 1_555
C16A C11A 1_555 1_555
H8A C16A 1_555 1_555
C17A C3A 1_555 1_555
H9A C17A 1_555 1_555
C18A O1A 1_555 1_555
C19A C3A 1_555 1_555
C20A C10A 1_555 1_555
H10A C20A 1_555 1_555
H11A O4A 1_555 1_555
H12A O4A 1_555 1_555
H13A O5A 1_555 1_555
H14A O5A 1_555 1_555
C4 C17 1_555 1_555
O9 Ce1A 1_555 1_555
C7 N5 1_555 1_555
C7 C13 1_555 1_555
O10 C19 1_555 1_555
C8 C11 1_555 1_555
C9 C12 1_555 1_555
C9 C14 1_555 1_555
C14 C18 1_555 1_555
Ce1_3 O9A_2 1_555 1_555
Ce1A_2 O9_2 1_555 1_555
O3A C18A 1_555 1_555
C4A C15A 1_555 1_555
C4A C17A 1_555 1_555
O9A C15A 1_555 1_555
C7A N5A 1_555 1_555
C7A C13A 1_555 1_555
O10A C19A 1_555 1_555
C8A C11A 1_555 1_555
C9A C12A 1_555 1_555
C9A C14A 1_555 1_555
C14A C18A 1_555 1_555

#END
