
#######################################################################
#
#                 Cambridge Crystallographic Data Centre
#                                CCDC 
#
#######################################################################
#
# If this CIF has been generated from an entry in the Cambridge 
# Structural Database, then it will include bibliographic, chemical, 
# crystal, experimental, refinement or atomic coordinate data resulting 
# from the CCDC's data processing and validation procedures.
#
#######################################################################

data_HEDPIR
_symmetry_cell_setting           triclinic
_symmetry_space_group_name_H-M   'P -1'
_symmetry_Int_Tables_number      2
_space_group_name_Hall           '-P 1'
loop_
_symmetry_equiv_pos_site_id
_symmetry_equiv_pos_as_xyz
1 x,y,z
2 -x,-y,-z
_cell_length_a                   9.237(3)
_cell_length_b                   10.667(3)
_cell_length_c                   12.665(4)
_cell_angle_alpha                83.704(6)
_cell_angle_beta                 84.801(6)
_cell_angle_gamma                62.206(5)
_cell_volume                     1096.16
loop_
_atom_site_label
_atom_site_type_symbol
_atom_site_fract_x
_atom_site_fract_y
_atom_site_fract_z
Dy1 Dy 0.77513(3) -0.04831(3) 1.01607(2)
Co1 Co 1.0000 -0.5000 0.5000
O1 O 0.2658(5) 0.2480(5) 0.9312(4)
O2 O 0.5311(5) 0.1361(5) 0.9586(3)
O3 O 0.7972(6) -0.3095(5) 0.4867(3)
C1 C 0.7604(8) -0.1907(7) 0.4361(5)
O4 O 0.0134(5) 0.7626(5) 0.9520(4)
O5 O 0.8369(5) 0.0359(5) 0.8367(3)
C2 C 0.7358(8) 0.0519(7) 0.4520(5)
H1 H 0.7278 0.0706 0.3787
N1 N 0.7137(6) 0.5087(5) 0.7880(4)
N2 N 0.9008(7) 0.4821(6) 0.6663(4)
C3 C 0.4044(8) 0.2438(7) 0.9293(4)
N3 N 0.7527(7) 0.2724(6) 0.4651(4)
N4 N 0.8791(7) 0.2915(6) 0.4896(4)
O6 O 0.7436(7) -0.1670(5) 0.3376(3)
C4 C 0.5612(7) 0.3785(7) 0.8551(4)
H2 H 0.6541 0.2933 0.8431
C5 C 0.7071(9) 0.4803(8) 0.3980(6)
H3 H 0.6607 0.5707 0.3630
C6 C 0.7454(8) -0.0951(7) 0.6120(5)
H4 H 0.7410 -0.1750 0.6464
O7 O 0.7192(5) -0.1035(5) 0.8428(3)
C7 C 0.7436(9) 0.1470(8) 0.5120(5)
C8 C 0.7396(8) -0.0731(7) 0.5004(5)
O8 O 0.9501(6) -0.1507(5) 1.1664(4)
C9 C 0.9259(9) 0.5406(9) 0.7476(5)
H5 H 1.0120 0.5621 0.7510
N5 N 0.7712(7) 0.4621(7) 0.6901(4)
O9 O 0.6037(5) 0.0276(5) 1.1749(3)
C10 C 0.7579(9) 0.1236(8) 0.6221(5)
H6 H 0.7672 0.1883 0.6610
C11 C 0.7727(7) -0.0253(7) 0.7908(5)
O10 O 0.1696(5) 0.8714(5) 0.9472(3)
C12 C 0.2905(7) 0.6332(6) 0.8985(4)
C13 C 0.1469(7) 0.7669(6) 0.9349(4)
C14 C 0.4340(7) 0.6345(6) 0.8589(4)
H7 H 0.4422 0.7188 0.8491
C15 C 0.5664(7) 0.5057(7) 0.8338(4)
C16 C 0.6428(9) 0.3878(8) 0.4085(5)
H8 H 0.5453 0.4009 0.3827
C17 C 0.2785(7) 0.5066(6) 0.9113(4)
H9 H 0.1781 0.5084 0.9310
C18 C 0.7578(8) 0.0020(7) 0.6714(5)
C19 C 0.4151(7) 0.3788(7) 0.8948(4)
C20 C 0.8053(9) 0.5626(9) 0.8233(5)
H10 H 0.7888 0.6058 0.8863
N6 N 0.8512(7) 0.4176(6) 0.4478(4)
H11 H 0.901(4) -0.154(6) 1.226(2)
H12 H 1.033(5) -0.230(4) 1.158(3)
H13 H 0.5003(16) 0.060(7) 1.177(2)
H14 H 0.639(3) -0.005(7) 1.2366(13)
Dy1A Dy 0.22487(3) 0.04831(3) 0.98393(2)
Dy1_2 Dy -0.22487(3) 0.95169(3) 1.01607(2)
Dy1_3 Dy 0.77513(3) -1.04831(3) 1.01607(2)
Dy1A_2 Dy 0.22487(3) 1.04831(3) 0.98393(2)
Dy1A_3 Dy 1.22487(3) -0.95169(3) 0.98393(2)
Co1_2 Co 0.0000 -0.5000 1.5000
Co1_3 Co 0.0000 0.5000 1.5000
Co1_4 Co 1.0000 0.5000 0.5000
O1A O 0.7342(5) -0.2480(5) 1.0688(4)
O2A O 0.4689(5) -0.1361(5) 1.0414(3)
O3A O 0.2028(6) 0.3095(5) 1.5133(3)
O3A_2 O 1.2028(6) -0.6905(5) 0.5133(3)
C1A C 0.2396(8) 0.1907(7) 1.5639(5)
O4A O 0.9866(5) -0.7626(5) 1.0480(4)
O4_2 O 1.0134(5) -0.2374(5) 0.9520(4)
O4A_2 O -0.0134(5) 0.2374(5) 1.0480(4)
O5A O 0.1631(5) -0.0359(5) 1.1633(3)
C2A C 0.2642(8) -0.0519(7) 1.5480(5)
H1A H 0.2722 -0.0706 1.6213
N1A N 0.2863(6) -0.5087(5) 1.2120(4)
N2A N 0.0992(7) -0.4821(6) 1.3337(4)
N2_2 N 0.9008(7) -0.5179(6) 0.6663(4)
N2A_2 N 1.0992(7) -0.4821(6) 0.3337(4)
C3A C 0.5956(8) -0.2438(7) 1.0707(4)
N3A N 0.2473(7) -0.2724(6) 1.5349(4)
N4A N 0.1209(7) -0.2915(6) 1.5104(4)
O6A O 0.2564(7) 0.1670(5) 1.6624(3)
C4A C 0.4388(7) -0.3785(7) 1.1449(4)
H2A H 0.3459 -0.2933 1.1569
C5A C 0.2929(9) -0.4803(8) 1.6020(6)
H3A H 0.3393 -0.5707 1.6370
C6A C 0.2546(8) 0.0951(7) 1.3880(5)
H4A H 0.2590 0.1750 1.3536
O7A O 0.2808(5) 0.1035(5) 1.1572(3)
C7A C 0.2564(9) -0.1470(8) 1.4880(5)
C8A C 0.2604(8) 0.0731(7) 1.4996(5)
O8A O 0.0499(6) 0.1507(5) 0.8336(4)
C9A C 0.0741(9) -0.5406(9) 1.2524(5)
H5A H -0.0120 -0.5621 1.2490
N5A N 0.2288(7) -0.4621(7) 1.3099(4)
O9A O 0.3963(5) -0.0276(5) 0.8251(3)
C10A C 0.2421(9) -0.1236(8) 1.3779(5)
H6A H 0.2328 -0.1883 1.3390
C11A C 0.2273(7) 0.0253(7) 1.2092(5)
O10A O 0.8304(5) -0.8714(5) 1.0528(3)
O10_2 O 0.1696(5) -0.1286(5) 0.9472(3)
O10A_2 O 0.8304(5) 0.1286(5) 1.0528(3)
C12A C 0.7095(7) -0.6332(6) 1.1015(4)
C13A C 0.8531(7) -0.7669(6) 1.0651(4)
C14A C 0.5660(7) -0.6345(6) 1.1411(4)
H7A H 0.5578 -0.7188 1.1509
C15A C 0.4336(7) -0.5057(7) 1.1662(4)
C16A C 0.3572(9) -0.3878(8) 1.5915(5)
H8A H 0.4547 -0.4009 1.6173
C17A C 0.7215(7) -0.5066(6) 1.0887(4)
H9A H 0.8219 -0.5084 1.0690
C18A C 0.2422(8) -0.0020(7) 1.3286(5)
C19A C 0.5849(7) -0.3788(7) 1.1052(4)
C20A C 0.1947(9) -0.5626(9) 1.1767(5)
H10A H 0.2112 -0.6058 1.1137
N6A N 0.1488(7) -0.4176(6) 1.5522(4)
N6_2 N 0.8512(7) -0.5824(6) 0.4478(4)
N6A_2 N 1.1488(7) -0.4176(6) 0.5522(4)
H11A H 0.099(4) 0.154(6) 0.774(2)
H12A H -0.033(5) 0.230(4) 0.842(3)
H13A H 0.4997(16) -0.060(7) 0.823(2)
H14A H 0.361(3) 0.005(7) 0.7634(13)
loop_
_geom_bond_atom_site_label_1
_geom_bond_atom_site_label_2
_geom_bond_site_symmetry_1
_geom_bond_site_symmetry_2
Dy1 O2 1_555 1_555
Co1 O3 1_555 1_555
O1 C3 1_555 1_555
O2 C3 1_555 1_555
O3 C1 1_555 1_555
C1 O6 1_555 1_555
O4 C13 1_555 1_555
O5 Dy1 1_555 1_555
C2 H1 1_555 1_555
N1 N5 1_555 1_555
N2 C9 1_555 1_555
C3 C19 1_555 1_555
N3 N4 1_555 1_555
N4 N6 1_555 1_555
C4 H2 1_555 1_555
C5 H3 1_555 1_555
C6 H4 1_555 1_555
O7 Dy1 1_555 1_555
C7 C2 1_555 1_555
C8 C1 1_555 1_555
O8 Dy1 1_555 1_555
C9 H5 1_555 1_555
N5 N2 1_555 1_555
O9 Dy1 1_555 1_555
C10 C7 1_555 1_555
H6 C10 1_555 1_555
C11 O5 1_555 1_555
O10 C13 1_555 1_555
C12 C13 1_555 1_555
C14 C12 1_555 1_555
H7 C14 1_555 1_555
C15 N1 1_555 1_555
C16 N3 1_555 1_555
H8 C16 1_555 1_555
C17 C12 1_555 1_555
H9 C17 1_555 1_555
C18 C6 1_555 1_555
C19 C4 1_555 1_555
C20 N1 1_555 1_555
H10 C20 1_555 1_555
N6 C5 1_555 1_555
H11 O8 1_555 1_555
H12 O8 1_555 1_555
H13 O9 1_555 1_555
H14 O9 1_555 1_555
Dy1A O1 1_555 1_555
Dy1_2 O4 1_555 1_555
Dy1_3 O10A 1_555 1_555
Dy1A_2 O10 1_555 1_555
Dy1A_3 O4A 1_555 1_555
Co1_2 N2A 1_555 1_555
Co1_3 O3A 1_555 1_555
Co1_4 N2 1_555 1_555
O1A Dy1 1_555 1_555
O2A Dy1A 1_555 1_555
O3A C1A 1_555 1_555
O3A_2 Co1 1_555 1_555
C1A O6A 1_555 1_555
O4A C13A 1_555 1_555
O4_2 Dy1 1_555 1_555
O4A_2 Dy1A 1_555 1_555
O5A Dy1A 1_555 1_555
C2A H1A 1_555 1_555
N1A N5A 1_555 1_555
N2A C9A 1_555 1_555
N2_2 Co1 1_555 1_555
N2A_2 Co1 1_555 1_555
C3A O1A 1_555 1_555
N3A N4A 1_555 1_555
N4A N6A 1_555 1_555
C4A H2A 1_555 1_555
C5A H3A 1_555 1_555
C6A H4A 1_555 1_555
O7A Dy1A 1_555 1_555
C7A C2A 1_555 1_555
C8A C1A 1_555 1_555
O8A Dy1A 1_555 1_555
C9A H5A 1_555 1_555
N5A N2A 1_555 1_555
O9A Dy1A 1_555 1_555
C10A C7A 1_555 1_555
H6A C10A 1_555 1_555
C11A O5A 1_555 1_555
O10A C13A 1_555 1_555
O10_2 Dy1A 1_555 1_555
O10A_2 Dy1 1_555 1_555
C12A C13A 1_555 1_555
C14A C12A 1_555 1_555
H7A C14A 1_555 1_555
C15A N1A 1_555 1_555
C16A N3A 1_555 1_555
H8A C16A 1_555 1_555
C17A C12A 1_555 1_555
H9A C17A 1_555 1_555
C18A C6A 1_555 1_555
C19A C3A 1_555 1_555
C20A N1A 1_555 1_555
H10A C20A 1_555 1_555
N6A Co1_2 1_555 1_555
N6_2 Co1 1_555 1_555
N6A_2 Co1 1_555 1_555
H11A O8A 1_555 1_555
H12A O8A 1_555 1_555
H13A O9A 1_555 1_555
H14A O9A 1_555 1_555
C2 C8 1_555 1_555
N3 C7 1_555 1_555
C4 C15 1_555 1_555
C5 C16 1_555 1_555
C6 C8 1_555 1_555
O7 C11 1_555 1_555
C9 C20 1_555 1_555
C10 C18 1_555 1_555
C11 C18 1_555 1_555
C14 C15 1_555 1_555
C17 C19 1_555 1_555
N6 Co1_4 1_555 1_555
O2A C3A 1_555 1_555
C2A C8A 1_555 1_555
N3A C7A 1_555 1_555
C4A C15A 1_555 1_555
C4A C19A 1_555 1_555
C5A C16A 1_555 1_555
C5A N6A 1_555 1_555
C6A C8A 1_555 1_555
O7A C11A 1_555 1_555
C9A C20A 1_555 1_555
C10A C18A 1_555 1_555
C11A C18A 1_555 1_555
C14A C15A 1_555 1_555
C17A C19A 1_555 1_555

#END
