
#######################################################################
#
#                 Cambridge Crystallographic Data Centre
#                                CCDC 
#
#######################################################################
#
# If this CIF has been generated from an entry in the Cambridge 
# Structural Database, then it will include bibliographic, chemical, 
# crystal, experimental, refinement or atomic coordinate data resulting 
# from the CCDC's data processing and validation procedures.
#
#######################################################################

data_HEDPUD
_symmetry_cell_setting           triclinic
_symmetry_space_group_name_H-M   'P -1'
_symmetry_Int_Tables_number      2
_space_group_name_Hall           '-P 1'
loop_
_symmetry_equiv_pos_site_id
_symmetry_equiv_pos_as_xyz
1 x,y,z
2 -x,-y,-z
_cell_length_a                   9.1705(8)
_cell_length_b                   10.7258(10)
_cell_length_c                   12.7688(12)
_cell_angle_alpha                86.261(3)
_cell_angle_beta                 84.515(3)
_cell_angle_gamma                64.288(3)
_cell_volume                     1126.02
loop_
_atom_site_label
_atom_site_type_symbol
_atom_site_fract_x
_atom_site_fract_y
_atom_site_fract_z
La1 La 0.21184(3) 0.54818(2) 0.488208(19)
Co1 Co 0.0000 0.0000 1.0000
O1 O 0.1632(4) 0.4635(4) 0.6752(3)
O2 O 0.1316(4) 0.3660(3) 0.4462(3)
C1 C 0.2568(6) 0.3590(5) 0.9897(4)
O3 O 0.0317(4) 0.6687(4) 0.3359(3)
H1 H 0.0902 0.6807 0.2782
H2 H -0.0194 0.6193 0.3160
O4 O 0.2988(4) 0.5912(3) 0.6683(2)
O5 O 0.2447(5) 0.6785(4) 1.1699(3)
O6 O 0.3858(4) 0.4726(3) 0.3134(2)
H3 H 0.3714 0.4062 0.2868
H4 H 0.3586 0.5420 0.2681
O7 O 0.0010(4) 0.2392(3) 0.4269(3)
C2 C 0.4228(5) -0.1201(4) 0.3977(3)
O8 O 0.1941(4) 0.8141(3) 1.0263(3)
O9 O 0.2828(4) -0.2582(3) 0.4352(3)
N1 N 0.2477(5) 0.2356(4) 1.0344(3)
N2 N 0.8896(5) 0.0035(4) 0.1618(3)
O10 O 0.5426(4) -0.3498(3) 0.4676(3)
C3 C 0.2587(6) 0.4574(5) 1.0532(4)
H5 H 0.2628 0.4425 1.1257
C4 C 0.2313(6) 0.6990(5) 1.0729(4)
C5 C 0.5634(5) 0.0158(5) 0.3339(3)
N3 N 0.7086(5) 0.0235(4) 0.2850(3)
C6 C 0.2845(5) 0.1294(4) 0.3941(3)
C7 C 0.8019(7) 0.0758(6) 0.3225(4)
H6 H 0.7892 0.1142 0.3879
C8 C 0.2823(5) 0.0016(4) 0.4108(3)
H7 H 0.1846 -0.0028 0.4312
C9 C 0.3517(7) 0.1285(5) 1.0897(4)
H8 H 0.4471 0.1198 1.1156
C10 C 0.2481(6) 0.3777(5) 0.8830(4)
H9 H 0.2412 0.3114 0.8429
C11 C 0.2498(6) 0.4976(5) 0.8355(4)
N4 N 0.1488(5) 0.0886(4) 1.0486(3)
C12 C 0.2549(6) 0.5971(5) 0.8973(4)
H10 H 0.2586 0.6763 0.8654
N5 N 0.7590(5) -0.0183(4) 0.1868(3)
C13 C 0.1286(6) 0.2538(4) 0.4230(3)
C14 C 0.2544(6) 0.5803(5) 1.0059(4)
C15 C 0.5664(5) -0.1131(5) 0.3583(3)
H11 H 0.6622 -0.1934 0.3486
C16 C 0.4170(6) -0.2540(4) 0.4340(3)
C17 C 0.2869(7) 0.0358(5) 1.0993(4)
H12 H 0.3302 -0.0496 1.1346
C18 C 0.4259(5) 0.1375(4) 0.3548(3)
H13 H 0.4287 0.2229 0.3425
C19 C 0.2375(6) 0.5185(5) 0.7197(4)
N6 N 0.1249(5) 0.2107(4) 1.0085(3)
C20 C 0.9195(7) 0.0601(6) 0.2434(4)
H14 H 1.0050 0.0842 0.2456
La1A La -0.21184(3) -0.54818(2) 1.511792(19)
La1_2 La -0.78816(3) 0.54818(2) 1.488208(19)
La1_3 La 0.21184(3) -0.45182(2) 0.488208(19)
La1_4 La 0.21184(3) -0.45182(2) 1.488208(19)
La1A_2 La -0.21184(3) 0.45182(2) 0.511792(19)
La1A_3 La -0.21184(3) 0.45182(2) 1.511792(19)
La1A_4 La 0.78816(3) -0.54818(2) 0.511792(19)
Co1_2 Co -1.0000 0.0000 2.0000
Co1_3 Co 0.0000 -1.0000 1.0000
Co1_4 Co 0.0000 1.0000 1.0000
Co1_5 Co 1.0000 0.0000 0.0000
O1A O -0.1632(4) -0.4635(4) 1.3248(3)
O2A O -0.1316(4) -0.3660(3) 1.5538(3)
O2_2 O 0.1316(4) -0.6340(3) 1.4462(3)
O2A_2 O -0.1316(4) 0.6340(3) 0.5538(3)
C1A C -0.2568(6) -0.3590(5) 1.0103(4)
O3A O -0.0317(4) -0.6687(4) 1.6641(3)
H1A H -0.0902 -0.6807 1.7218
H2A H 0.0194 -0.6193 1.6840
O4A O -0.2988(4) -0.5912(3) 1.3317(2)
O5A O -0.2447(5) -0.6785(4) 0.8301(3)
O6A O -0.3858(4) -0.4726(3) 1.6866(2)
H3A H -0.3714 -0.4062 1.7132
H4A H -0.3586 -0.5420 1.7319
O7A O -0.0010(4) -0.2392(3) 1.5731(3)
O7_2 O 0.0010(4) -0.7608(3) 1.4269(3)
O7A_2 O -0.0010(4) 0.7608(3) 0.5731(3)
C2A C -0.4228(5) 0.1201(4) 1.6023(3)
O8A O -0.1941(4) -0.8141(3) 0.9737(3)
O8_2 O 0.1941(4) -0.1859(3) 1.0263(3)
O8A_2 O -0.1941(4) 0.1859(3) 0.9737(3)
O9A O -0.2828(4) 0.2582(3) 1.5648(3)
O9_2 O 0.2828(4) 0.7418(3) 0.4352(3)
O9A_2 O -0.2828(4) -0.7418(3) 1.5648(3)
N1A N -0.2477(5) -0.2356(4) 0.9656(3)
N2A N -0.8896(5) -0.0035(4) 1.8382(3)
N2_2 N -0.1104(5) 0.0035(4) 1.1618(3)
N2A_2 N 0.1104(5) -0.0035(4) 0.8382(3)
O10A O -0.5426(4) 0.3498(3) 1.5324(3)
O10_2 O -0.4574(4) -0.3498(3) 1.4676(3)
O10A_2 O 0.4574(4) 0.3498(3) 0.5324(3)
C3A C -0.2587(6) -0.4574(5) 0.9468(4)
H5A H -0.2628 -0.4425 0.8743
C4A C -0.2313(6) -0.6990(5) 0.9271(4)
C5A C -0.5634(5) -0.0158(5) 1.6661(3)
N3A N -0.7086(5) -0.0235(4) 1.7150(3)
C6A C -0.2845(5) -0.1294(4) 1.6059(3)
C7A C -0.8019(7) -0.0758(6) 1.6775(4)
H6A H -0.7892 -0.1142 1.6121
C8A C -0.2823(5) -0.0016(4) 1.5892(3)
H7A H -0.1846 0.0028 1.5688
C9A C -0.3517(7) -0.1285(5) 0.9103(4)
H8A H -0.4471 -0.1198 0.8844
C10A C -0.2481(6) -0.3777(5) 1.1170(4)
H9A H -0.2412 -0.3114 1.1571
C11A C -0.2498(6) -0.4976(5) 1.1645(4)
N4A N -0.1488(5) -0.0886(4) 0.9514(3)
C12A C -0.2549(6) -0.5971(5) 1.1027(4)
H10A H -0.2586 -0.6763 1.1346
N5A N -0.7590(5) 0.0183(4) 1.8132(3)
C13A C -0.1286(6) -0.2538(4) 1.5770(3)
C14A C -0.2544(6) -0.5803(5) 0.9941(4)
C15A C -0.5664(5) 0.1131(5) 1.6417(3)
H11A H -0.6622 0.1934 1.6514
C16A C -0.4170(6) 0.2540(4) 1.5660(3)
C17A C -0.2869(7) -0.0358(5) 0.9007(4)
H12A H -0.3302 0.0496 0.8654
C18A C -0.4259(5) -0.1375(4) 1.6452(3)
H13A H -0.4287 -0.2229 1.6575
C19A C -0.2375(6) -0.5185(5) 1.2803(4)
N6A N -0.1249(5) -0.2107(4) 0.9915(3)
C20A C -0.9195(7) -0.0601(6) 1.7566(4)
H14A H -1.0050 -0.0842 1.7544
loop_
_geom_bond_atom_site_label_1
_geom_bond_atom_site_label_2
_geom_bond_site_symmetry_1
_geom_bond_site_symmetry_2
La1 O1 1_555 1_555
Co1 N4 1_555 1_555
O1 C19 1_555 1_555
O2 La1 1_555 1_555
C1 N1 1_555 1_555
O3 La1 1_555 1_555
H1 O3 1_555 1_555
H2 O3 1_555 1_555
O4 La1 1_555 1_555
O5 C4 1_555 1_555
O6 La1 1_555 1_555
H3 O6 1_555 1_555
H4 O6 1_555 1_555
O7 C13 1_555 1_555
C2 C8 1_555 1_555
O8 C4 1_555 1_555
O9 C16 1_555 1_555
N1 C9 1_555 1_555
N2 N5 1_555 1_555
O10 C16 1_555 1_555
C3 C1 1_555 1_555
H5 C3 1_555 1_555
C4 C14 1_555 1_555
C5 N3 1_555 1_555
N3 C7 1_555 1_555
C6 C8 1_555 1_555
C7 H6 1_555 1_555
C8 H7 1_555 1_555
C9 H8 1_555 1_555
C10 C1 1_555 1_555
H9 C10 1_555 1_555
C11 C10 1_555 1_555
N4 C17 1_555 1_555
C12 C11 1_555 1_555
H10 C12 1_555 1_555
N5 N3 1_555 1_555
C13 O2 1_555 1_555
C14 C3 1_555 1_555
C15 C2 1_555 1_555
H11 C15 1_555 1_555
C16 C2 1_555 1_555
C17 C9 1_555 1_555
H12 C17 1_555 1_555
C18 C5 1_555 1_555
H13 C18 1_555 1_555
C19 O4 1_555 1_555
N6 N1 1_555 1_555
C20 N2 1_555 1_555
H14 C20 1_555 1_555
La1A O1A 1_555 1_555
La1_2 O10A 1_555 1_555
La1_3 O9 1_555 1_555
La1_4 O2A 1_555 1_555
La1A_2 O2 1_555 1_555
La1A_3 O9A 1_555 1_555
La1A_4 O10 1_555 1_555
Co1_2 N2A 1_555 1_555
Co1_3 O8A 1_555 1_555
Co1_4 O8 1_555 1_555
Co1_5 N2 1_555 1_555
O1A C19A 1_555 1_555
O2A La1A 1_555 1_555
O2_2 La1A 1_555 1_555
O2A_2 La1 1_555 1_555
C1A N1A 1_555 1_555
O3A La1A 1_555 1_555
H1A O3A 1_555 1_555
H2A O3A 1_555 1_555
O4A La1A 1_555 1_555
O5A C4A 1_555 1_555
O6A La1A 1_555 1_555
H3A O6A 1_555 1_555
H4A O6A 1_555 1_555
O7A La1_4 1_555 1_555
O7_2 La1A 1_555 1_555
O7A_2 La1 1_555 1_555
C2A C8A 1_555 1_555
O8A C4A 1_555 1_555
O8_2 Co1 1_555 1_555
O8A_2 Co1 1_555 1_555
O9A C16A 1_555 1_555
O9_2 La1 1_555 1_555
O9A_2 La1A 1_555 1_555
N1A C9A 1_555 1_555
N2A N5A 1_555 1_555
N2_2 Co1 1_555 1_555
N2A_2 Co1 1_555 1_555
O10A C16A 1_555 1_555
O10_2 La1A 1_555 1_555
O10A_2 La1 1_555 1_555
C3A C1A 1_555 1_555
H5A C3A 1_555 1_555
C4A C14A 1_555 1_555
C5A N3A 1_555 1_555
N3A C7A 1_555 1_555
C6A C8A 1_555 1_555
C7A H6A 1_555 1_555
C8A H7A 1_555 1_555
C9A H8A 1_555 1_555
C10A C1A 1_555 1_555
H9A C10A 1_555 1_555
C11A C10A 1_555 1_555
N4A Co1 1_555 1_555
C12A C11A 1_555 1_555
H10A C12A 1_555 1_555
N5A N3A 1_555 1_555
C13A O2A 1_555 1_555
C14A C3A 1_555 1_555
C15A C2A 1_555 1_555
H11A C15A 1_555 1_555
C16A C2A 1_555 1_555
C17A C9A 1_555 1_555
H12A C17A 1_555 1_555
C18A C5A 1_555 1_555
H13A C18A 1_555 1_555
C19A O4A 1_555 1_555
N6A N1A 1_555 1_555
C20A N2A 1_555 1_555
H14A C20A 1_555 1_555
O7 La1A_2 1_555 1_555
C5 C15 1_555 1_555
C6 C13 1_555 1_555
C6 C18 1_555 1_555
C7 C20 1_555 1_555
C11 C19 1_555 1_555
N4 N6 1_555 1_555
C12 C14 1_555 1_555
La1_4 O2_2 1_555 1_555
La1A_2 O2A_2 1_555 1_555
O7A C13A 1_555 1_555
C5A C15A 1_555 1_555
C6A C13A 1_555 1_555
C6A C18A 1_555 1_555
C7A C20A 1_555 1_555
C11A C19A 1_555 1_555
N4A C17A 1_555 1_555
N4A N6A 1_555 1_555
C12A C14A 1_555 1_555

#END
