
#######################################################################
#
#                 Cambridge Crystallographic Data Centre
#                                CCDC 
#
#######################################################################
#
# If this CIF has been generated from an entry in the Cambridge 
# Structural Database, then it will include bibliographic, chemical, 
# crystal, experimental, refinement or atomic coordinate data resulting 
# from the CCDC's data processing and validation procedures.
#
#######################################################################

data_HEDQEO
_symmetry_cell_setting           monoclinic
_symmetry_space_group_name_H-M   'C 2/c'
_symmetry_Int_Tables_number      15
_space_group_name_Hall           '-C 2yn'
loop_
_symmetry_equiv_pos_site_id
_symmetry_equiv_pos_as_xyz
1 x,y,z
2 -x,y,1/2-z
3 1/2+x,1/2+y,z
4 1/2-x,1/2+y,1/2-z
5 -x,-y,-z
6 x,-y,1/2+z
7 1/2-x,1/2-y,-z
8 1/2+x,1/2-y,1/2+z
_cell_length_a                   6.72570(10)
_cell_length_b                   20.8422(4)
_cell_length_c                   20.1942(4)
_cell_angle_alpha                90
_cell_angle_beta                 99.5070(10)
_cell_angle_gamma                90
_cell_volume                     2791.91
loop_
_atom_site_label
_atom_site_type_symbol
_atom_site_fract_x
_atom_site_fract_y
_atom_site_fract_z
Ca1 Ca 1.11289(6) 1.128151(14) -0.007552(16)
Ca2 Ca 1.0000 0.875142(19) 0.2500
O1 O 0.95288(19) 1.28268(5) 0.12264(6)
O2 O 1.0061(2) 1.19043(6) 0.07377(7)
O3 O 0.9926(2) 0.98527(5) 0.30377(6)
O4 O 0.9427(2) 0.76780(5) 0.19615(6)
O5 O 0.7880(2) 0.56223(6) 0.07632(6)
O6 O 0.91914(18) 0.47177(5) 0.12180(6)
C1 C 1.0000 1.22084(9) 0.2500
H1 H 1.0000 1.2695(12) 0.2500
C2 C 0.9840(2) 1.18754(6) 0.18933(8)
C3 C 0.9827(3) 1.12076(6) 0.18998(9)
H2 H 0.974(3) 1.1006(10) 0.1494(13)
C4 C 1.0000 1.08697(9) 0.2500
C5 C 0.9798(2) 1.22251(7) 0.12378(8)
C6 C 1.0000 1.01510(9) 0.2500
C7 C 1.0000 0.66606(9) 0.2500
C8 C 0.9473(2) 0.63260(7) 0.19039(8)
H3 H 0.905(3) 0.6517(9) 0.1516(10)
C9 C 0.9461(2) 0.56579(6) 0.18979(7)
C10 C 1.0000 0.53249(9) 0.2500
H4 H 1.0000 0.4845(13) 0.2500
C11 C 1.0000 0.73798(9) 0.2500
C12 C 0.8784(2) 0.53146(7) 0.12481(8)
O7 O 0.8053(2) 1.07128(6) -0.00336(8)
H5 H 0.809(5) 1.0398(15) 0.0248(17)
H6 H 0.733(6) 1.0586(14) -0.0427(17)
O8 O 1.2005(2) 1.03757(7) -0.07484(7)
H7 H 1.124(5) 1.0271(12) -0.1112(15)
H8 H 1.305(7) 1.0318(18) -0.0820(19)
O9 O 1.4600(2) 1.15928(6) -0.01123(7)
H9 H 1.499(4) 1.1802(13) -0.0464(13)
H10 H 1.557(5) 1.1367(12) 0.0016(13)
O10 O 1.0679(3) 1.22605(6) -0.06372(8)
H11 H 1.055(4) 1.2331(11) -0.1058(15)
H12 H 1.032(5) 1.2552(14) -0.0466(14)
O11 O 1.1453(2) 0.87274(6) 0.14172(9)
H13 H 1.210(5) 0.9010(14) 0.1414(14)
H14 H 1.220(5) 0.8398(13) 0.1384(13)
O12 O 0.6658(2) 0.87908(7) 0.19549(9)
H15 H 0.597(4) 0.9052(14) 0.1756(13)
H16 H 0.617(4) 0.8485(12) 0.1752(13)
Ca1A Ca 0.88711(6) 1.128151(14) 0.507552(16)
Ca1B Ca 0.61289(6) 0.628151(14) -0.007552(16)
Ca1C Ca 1.38711(6) 0.628151(14) 0.507552(16)
O1A O 1.04712(19) 1.28268(5) 0.37736(6)
O2A O 0.9939(2) 1.19043(6) 0.42623(7)
O3A O 1.0074(2) 0.98527(5) 0.19623(6)
O4A O 1.0573(2) 0.76780(5) 0.30385(6)
O5A O 1.2120(2) 0.56223(6) 0.42368(6)
O5B O 1.2880(2) 1.06223(6) 0.07632(6)
O5C O 0.7120(2) 1.06223(6) 0.42368(6)
O6A O 1.08086(18) 0.47177(5) 0.37820(6)
C2A C 1.0160(2) 1.18754(6) 0.31067(8)
C3A C 1.0173(3) 1.12076(6) 0.31002(9)
H2A H 1.026(3) 1.1006(10) 0.3506(13)
C5A C 1.0202(2) 1.22251(7) 0.37622(8)
C8A C 1.0527(2) 0.63260(7) 0.30961(8)
H3A H 1.095(3) 0.6517(9) 0.3484(10)
C9A C 1.0539(2) 0.56579(6) 0.31021(7)
C12A C 1.1216(2) 0.53146(7) 0.37519(8)
O7A O 1.1947(2) 1.07128(6) 0.50336(8)
H5A H 1.191(5) 1.0398(15) 0.4752(17)
H6A H 1.267(6) 1.0586(14) 0.5427(17)
O8A O 0.7995(2) 1.03757(7) 0.57484(7)
H7A H 0.876(5) 1.0271(12) 0.6112(15)
H8A H 0.695(7) 1.0318(18) 0.5820(19)
O9A O 0.5400(2) 1.15928(6) 0.51123(7)
H9A H 0.501(4) 1.1802(13) 0.5464(13)
H10A H 0.443(5) 1.1367(12) 0.4984(13)
O10A O 0.9321(3) 1.22605(6) 0.56372(8)
H11A H 0.945(4) 1.2331(11) 0.6058(15)
H12A H 0.968(5) 1.2552(14) 0.5466(14)
O11A O 0.8547(2) 0.87274(6) 0.35828(9)
H13A H 0.790(5) 0.9010(14) 0.3586(14)
H14A H 0.780(5) 0.8398(13) 0.3616(13)
O12A O 1.3342(2) 0.87908(7) 0.30451(9)
H15A H 1.403(4) 0.9052(14) 0.3244(13)
H16A H 1.383(4) 0.8485(12) 0.3248(13)
loop_
_geom_bond_atom_site_label_1
_geom_bond_atom_site_label_2
_geom_bond_site_symmetry_1
_geom_bond_site_symmetry_2
Ca1 O2 1_555 1_555
Ca2 O3 1_555 1_555
O1 C5 1_555 1_555
O2 C5 1_555 1_555
O3 C6 1_555 1_555
O4 Ca2 1_555 1_555
O5 C12 1_555 1_555
O6 C12 1_555 1_555
C1 H1 1_555 1_555
C2 C1 1_555 1_555
C3 C2 1_555 1_555
H2 C3 1_555 1_555
C4 C3 1_555 1_555
C5 C2 1_555 1_555
C6 C4 1_555 1_555
C7 C8 1_555 1_555
C8 H3 1_555 1_555
C9 C8 1_555 1_555
C10 C9 1_555 1_555
H4 C10 1_555 1_555
C11 O4 1_555 1_555
C12 C9 1_555 1_555
O7 Ca1 1_555 1_555
H5 O7 1_555 1_555
H6 O7 1_555 1_555
O8 Ca1 1_555 1_555
H7 O8 1_555 1_555
H8 O8 1_555 1_555
O9 Ca1 1_555 1_555
H9 O9 1_555 1_555
H10 O9 1_555 1_555
O10 Ca1 1_555 1_555
H11 O10 1_555 1_555
H12 O10 1_555 1_555
O11 Ca2 1_555 1_555
H13 O11 1_555 1_555
H14 O11 1_555 1_555
O12 Ca2 1_555 1_555
H15 O12 1_555 1_555
H16 O12 1_555 1_555
Ca1A O2A 1_555 1_555
Ca1B O5 1_555 1_555
Ca1C O5A 1_555 1_555
O1A C5A 1_555 1_555
O2A C5A 1_555 1_555
O3A Ca2 1_555 1_555
O4A Ca2 1_555 1_555
O5A C12A 1_555 1_555
O5B Ca1 1_555 1_555
O5C Ca1A 1_555 1_555
O6A C12A 1_555 1_555
C2A C1 1_555 1_555
C3A C4 1_555 1_555
H2A C3A 1_555 1_555
C5A C2A 1_555 1_555
C8A C7 1_555 1_555
H3A C8A 1_555 1_555
C9A C10 1_555 1_555
C12A C9A 1_555 1_555
O7A Ca1A 1_555 1_555
H5A O7A 1_555 1_555
H6A O7A 1_555 1_555
O8A Ca1A 1_555 1_555
H7A O8A 1_555 1_555
H8A O8A 1_555 1_555
O9A Ca1A 1_555 1_555
H9A O9A 1_555 1_555
H10A O9A 1_555 1_555
O10A Ca1A 1_555 1_555
H11A O10A 1_555 1_555
H12A O10A 1_555 1_555
O11A Ca2 1_555 1_555
H13A O11A 1_555 1_555
H14A O11A 1_555 1_555
O12A Ca2 1_555 1_555
H15A O12A 1_555 1_555
H16A O12A 1_555 1_555
C6 O3A 1_555 1_555
C7 C11 1_555 1_555
C11 O4A 1_555 1_555
C2A C3A 1_555 1_555
C8A C9A 1_555 1_555

#END
