
#######################################################################
#
#                 Cambridge Crystallographic Data Centre
#                                CCDC 
#
#######################################################################
#
# If this CIF has been generated from an entry in the Cambridge 
# Structural Database, then it will include bibliographic, chemical, 
# crystal, experimental, refinement or atomic coordinate data resulting 
# from the CCDC's data processing and validation procedures.
#
#######################################################################

data_HEDQIS
_symmetry_cell_setting           orthorhombic
_symmetry_space_group_name_H-M   'P 21 21 21'
_symmetry_Int_Tables_number      19
_space_group_name_Hall           'P 2ac 2ab'
loop_
_symmetry_equiv_pos_site_id
_symmetry_equiv_pos_as_xyz
1 x,y,z
2 1/2+x,1/2-y,-z
3 -x,1/2+y,1/2-z
4 1/2-x,-y,1/2+z
_cell_length_a                   8.9512(2)
_cell_length_b                   12.9606(4)
_cell_length_c                   14.4060(3)
_cell_angle_alpha                90
_cell_angle_beta                 90
_cell_angle_gamma                90
_cell_volume                     1671.28
loop_
_atom_site_label
_atom_site_type_symbol
_atom_site_fract_x
_atom_site_fract_y
_atom_site_fract_z
Ca1 Ca 0.33734(4) -0.11505(3) -0.06429(2)
Ca2 Ca 0.16399(4) 0.05437(3) 0.13633(2)
O1 O 0.33910(14) -0.07498(10) 0.11155(8)
O2 O 0.55260(13) -0.10592(12) 0.04183(8)
O3 O 1.02775(13) -0.06378(12) 0.22017(9)
O4 O 1.01150(14) -0.00429(12) 0.36447(9)
O5 O 0.54389(15) -0.03613(18) 0.53278(9)
O6 O 0.32816(14) -0.02900(11) 0.46065(8)
O7 O 0.25417(13) 0.12711(12) 0.27849(9)
O8 O 0.43672(15) 0.18171(12) 0.36918(9)
N1 N 0.41111(16) 0.15833(14) 0.12423(11)
N2 N 0.71187(17) 0.21104(15) 0.13425(14)
C1 C 0.55878(18) -0.07475(15) 0.20460(12)
C2 C 0.71410(18) -0.06848(15) 0.20636(12)
H1 H 0.7681 -0.0760 0.1516
C3 C 0.78872(17) -0.05114(16) 0.28933(12)
C4 C 0.70671(17) -0.04048(15) 0.37084(12)
H2 H 0.7562 -0.0276 0.4264
C5 C 0.55213(17) -0.04880(15) 0.37043(11)
C6 C 0.47784(18) -0.06610(15) 0.28712(11)
H3 H 0.3743 -0.0719 0.2863
C7 C 0.47986(18) -0.08670(14) 0.11358(11)
C8 C 0.95470(18) -0.03900(15) 0.29264(12)
C9 C 0.46955(19) -0.03695(17) 0.45996(11)
C10 C 0.4944(2) 0.16972(18) 0.04822(14)
H4 H 0.4513 0.1595 -0.0098
C11 C 0.6436(2) 0.19645(19) 0.05404(15)
H5 H 0.6980 0.2044 -0.0005
C12 C 0.6285(2) 0.20096(18) 0.21028(14)
H6 H 0.6721 0.2115 0.2681
C13 C 0.47850(19) 0.17518(15) 0.20558(12)
C14 C 0.3843(2) 0.16122(16) 0.29163(13)
O9 O 0.28115(16) -0.27624(13) 0.02131(11)
H7 H 0.227(3) -0.3249(16) -0.0126(16)
H8 H 0.369(2) -0.309(2) 0.0407(19)
O10 O 0.51398(16) -0.24596(13) -0.13245(11)
H9 H 0.6092(15) -0.248(2) -0.1043(15)
H10 H 0.502(3) -0.3148(10) -0.1508(17)
O11 O 0.02202(18) 0.20543(15) 0.16333(12)
H11 H 0.040(4) 0.222(3) 0.2255(11)
H12 H -0.0788(13) 0.214(2) 0.1480(17)
Ca1C Ca 0.16266(4) 0.11505(3) 0.43571(2)
Ca1C_2 Ca 1.16266(4) 0.11505(3) 0.43571(2)
Ca2_2 Ca 1.16399(4) 0.05437(3) 0.13633(2)
Ca2C Ca 0.33601(4) -0.05437(3) 0.63633(2)
O3_2 O 0.02775(13) -0.06378(12) 0.22017(9)
O4C O 0.48850(14) 0.00429(12) -0.13553(9)
O5C O -0.04389(15) 0.03613(18) 0.03278(9)
O6C O 0.17184(14) 0.02900(11) -0.03935(8)
O7C O 0.24583(13) -0.12711(12) -0.22151(9)
O8C O 0.06328(15) -0.18171(12) -0.13082(9)
C9C C 0.03045(19) 0.03695(17) -0.04004(11)
loop_
_geom_bond_atom_site_label_1
_geom_bond_atom_site_label_2
_geom_bond_site_symmetry_1
_geom_bond_site_symmetry_2
Ca1 O1 1_555 1_555
Ca2 O1 1_555 1_555
O1 C7 1_555 1_555
O2 Ca1 1_555 1_555
O3 C8 1_555 1_555
O4 C8 1_555 1_555
O5 C9 1_555 1_555
O6 C9 1_555 1_555
O7 Ca2 1_555 1_555
O8 C14 1_555 1_555
N1 Ca2 1_555 1_555
N2 C11 1_555 1_555
C1 C2 1_555 1_555
C2 H1 1_555 1_555
C3 C2 1_555 1_555
C4 C3 1_555 1_555
H2 C4 1_555 1_555
C5 C4 1_555 1_555
C6 C1 1_555 1_555
H3 C6 1_555 1_555
C7 O2 1_555 1_555
C8 C3 1_555 1_555
C9 C5 1_555 1_555
C10 N1 1_555 1_555
H4 C10 1_555 1_555
C11 C10 1_555 1_555
H5 C11 1_555 1_555
C12 N2 1_555 1_555
H6 C12 1_555 1_555
C13 N1 1_555 1_555
C14 O7 1_555 1_555
O9 Ca1 1_555 1_555
H7 O9 1_555 1_555
H8 O9 1_555 1_555
O10 Ca1 1_555 1_555
H9 O10 1_555 1_555
H10 O10 1_555 1_555
O11 Ca2 1_555 1_555
H11 O11 1_555 1_555
H12 O11 1_555 1_555
Ca1C O6 1_555 1_555
Ca1C_2 O4 1_555 1_555
Ca2_2 O3 1_555 1_555
Ca2C O5 1_555 1_555
O3_2 Ca2 1_555 1_555
O4C Ca1 1_555 1_555
O5C Ca2 1_555 1_555
O6C Ca1 1_555 1_555
O7C Ca1 1_555 1_555
O8C Ca1 1_555 1_555
C9C O5C 1_555 1_555
Ca2 O6C 1_555 1_555
O6 Ca2C 1_555 1_555
O7 Ca1C 1_555 1_555
O8 Ca1C 1_555 1_555
C1 C7 1_555 1_555
C5 C6 1_555 1_555
C12 C13 1_555 1_555
C13 C14 1_555 1_555
O6C C9C 1_555 1_555

#END
