
#######################################################################
#
#                 Cambridge Crystallographic Data Centre
#                                CCDC 
#
#######################################################################
#
# If this CIF has been generated from an entry in the Cambridge 
# Structural Database, then it will include bibliographic, chemical, 
# crystal, experimental, refinement or atomic coordinate data resulting 
# from the CCDC's data processing and validation procedures.
#
#######################################################################

data_HEDSAL
_symmetry_cell_setting           monoclinic
_symmetry_space_group_name_H-M   'P 21'
_symmetry_Int_Tables_number      4
_space_group_name_Hall           'P 2yb'
loop_
_symmetry_equiv_pos_site_id
_symmetry_equiv_pos_as_xyz
1 x,y,z
2 -x,1/2+y,-z
_cell_length_a                   12.8475(10)
_cell_length_b                   11.2028(9)
_cell_length_c                   12.8378(10)
_cell_angle_alpha                90
_cell_angle_beta                 96.010(2)
_cell_angle_gamma                90
_cell_volume                     1837.56
loop_
_atom_site_label
_atom_site_type_symbol
_atom_site_fract_x
_atom_site_fract_y
_atom_site_fract_z
Au1 Au 0.475011(18) -0.37285(2) 0.474615(18)
Ag1 Ag 0.50023(12) -0.12276(8) 0.49987(12)
N1 N 0.5834(6) -0.3347(6) 0.2754(5)
N2 N 0.6830(5) -0.2854(6) 0.4118(5)
N3 N 0.6583(5) -0.1896(6) 0.5710(5)
N4 N 0.2754(5) -0.4107(6) 0.5823(6)
N5 N 0.4121(5) -0.4594(6) 0.6830(5)
N6 N 0.5713(5) -0.5556(6) 0.6583(5)
N7 N 0.3801(10) -0.1225(12) 0.6179(10)
C1 C 0.5818(7) -0.3229(7) 0.3792(6)
C2 C 0.6797(8) -0.3032(8) 0.2442(8)
H1 H 0.6979 -0.3027 0.1744
C3 C 0.7415(8) -0.2740(7) 0.3286(7)
H2 H 0.8126 -0.2499 0.3315
C4 C 0.7195(6) -0.2596(6) 0.5192(7)
C5 C 0.8163(7) -0.3032(10) 0.5604(9)
H3 H 0.8576 -0.3532 0.5213
C6 C 0.8493(9) -0.2681(10) 0.6641(10)
H4 H 0.9153 -0.2942 0.6963
C7 C 0.7892(10) -0.1987(11) 0.7180(10)
H5 H 0.8132 -0.1725 0.7867
C8 C 0.6881(10) -0.1649(11) 0.6700(10)
H6 H 0.6415 -0.1238 0.7102
C9 C 0.4926(8) -0.3758(16) 0.2045(6)
H7 H 0.4330 -0.3895 0.2448
H8 H 0.5104 -0.4503 0.1705
H9 H 0.4740 -0.3147 0.1511
C10 C 0.3793(6) -0.4225(7) 0.5822(6)
C11 C 0.2435(8) -0.4412(8) 0.6782(9)
H10 H 0.1736 -0.4408 0.6960
C12 C 0.3286(7) -0.4711(7) 0.7416(8)
H11 H 0.3311 -0.4956 0.8127
C13 C 0.5189(6) -0.4855(6) 0.7197(5)
C14 C 0.5601(8) -0.4407(9) 0.8162(8)
H12 H 0.5215 -0.3892 0.8568
C15 C 0.6631(10) -0.4770(10) 0.8497(9)
H13 H 0.6943 -0.4529 0.9168
C16 C 0.7197(11) -0.5466(12) 0.7874(11)
H14 H 0.7893 -0.5703 0.8106
C17 C 0.6731(12) -0.5807(11) 0.6911(11)
H15 H 0.7134 -0.6234 0.6455
C18 C 0.2053(6) -0.3706(16) 0.4922(8)
H16 H 0.2455 -0.3577 0.4324
H17 H 0.1717 -0.2957 0.5095
H18 H 0.1516 -0.4314 0.4741
C19 C 0.3231(8) -0.1231(8) 0.6766(8)
C20 C 0.2487(7) -0.1219(7) 0.7510(7)
C21 C 0.2805(8) -0.1461(8) 0.8553(8)
H19 H 0.3517 -0.1631 0.8781
C22 C 0.2058(16) -0.1447(15) 0.9251(9)
H20 H 0.2270 -0.1609 0.9968
C23 C 0.101(2) -0.121(2) 0.895(2)
H21 H 0.0506 -0.1207 0.9440
C24 C 0.0737(10) -0.0966(15) 0.7916(16)
H22 H 0.0027 -0.0776 0.7698
C25 C 0.1434(8) -0.0986(8) 0.7173(8)
H23 H 0.1208 -0.0847 0.6455
Ag1A Ag 0.49977(12) -0.62276(8) 0.50013(12)
N6A N 0.4287(5) -0.0556(6) 0.3417(5)
C26 C -0.8216(7) -0.3712(19) -0.8225(7)
C27 C -0.9059(6) -0.3723(15) -0.9068(6)
C28 C -0.9975(9) -0.3070(11) -0.8942(10)
H24 H -1.0042 -0.2650 -0.8310
C29 C -1.0755(10) -0.3050(13) -0.9734(16)
H25 H -1.1371 -0.2598 -0.9674
C30 C -1.0642(12) -0.370(3) -1.0641(13)
H26 H -1.1197 -0.3696 -1.1192
C31 C -0.9721(14) -0.4384(13) -1.0772(9)
H27 H -0.9658 -0.4832 -1.1391
C32 C -0.8944(10) -0.4360(10) -0.9974(9)
H28 H -0.8314 -0.4785 -1.0035
N8 N -0.7549(8) -0.373(2) -0.7560(8)
B2 B 0.6139(8) -0.1382(10) -0.0184(12)
F5 F 0.6375(11) -0.0218(12) -0.0129(12)
F6 F 0.5558(11) -0.1519(15) -0.1284(9)
F7 F 0.6892(11) -0.2164(14) -0.0125(11)
F8 F 0.5363(8) -0.1574(13) 0.0469(10)
B4 B 1.0247(9) -0.1051(11) 0.3911(10)
F13 F 1.0140(12) -0.2214(12) 0.3598(12)
F14 F 1.0119(11) -0.0258(14) 0.3120(11)
F15 F 1.1274(8) -0.0915(14) 0.4451(11)
F16 F 0.9526(10) -0.0882(13) 0.4640(8)
B1? B 1.0296(11) -0.0918(13) 0.3740(13)
F1? F 1.0916(13) -0.1270(17) 0.2989(13)
F2? F 1.0005(10) 0.0253(11) 0.3531(11)
F3? F 1.0937(15) -0.089(2) 0.4680(15)
F4? F 0.9514(16) -0.1665(17) 0.3759(18)
B3? B 0.6219(12) -0.1545(13) -0.0331(12)
F9? F 0.6470(10) -0.2698(11) 0.0000(9)
F10? F 0.6987(12) -0.1187(16) -0.0927(12)
F11? F 0.5299(14) -0.160(2) -0.0963(14)
F12? F 0.6188(17) -0.0782(17) 0.0453(15)
loop_
_geom_bond_atom_site_label_1
_geom_bond_atom_site_label_2
_geom_bond_site_symmetry_1
_geom_bond_site_symmetry_2
Au1 C1 1_555 1_555
Ag1 N3 1_555 1_555
N1 C1 1_555 1_555
N2 C1 1_555 1_555
N3 C4 1_555 1_555
N4 C10 1_555 1_555
N5 C10 1_555 1_555
N6 C13 1_555 1_555
N7 Ag1 1_555 1_555
C2 N1 1_555 1_555
H1 C2 1_555 1_555
C3 N2 1_555 1_555
H2 C3 1_555 1_555
C4 N2 1_555 1_555
C5 C4 1_555 1_555
H3 C5 1_555 1_555
C6 C5 1_555 1_555
H4 C6 1_555 1_555
C7 C6 1_555 1_555
H5 C7 1_555 1_555
C8 N3 1_555 1_555
H6 C8 1_555 1_555
C9 N1 1_555 1_555
H7 C9 1_555 1_555
H8 C9 1_555 1_555
H9 C9 1_555 1_555
C10 Au1 1_555 1_555
C11 N4 1_555 1_555
H10 C11 1_555 1_555
C12 N5 1_555 1_555
H11 C12 1_555 1_555
C13 N5 1_555 1_555
C14 C13 1_555 1_555
H12 C14 1_555 1_555
C15 C14 1_555 1_555
H13 C15 1_555 1_555
C16 C15 1_555 1_555
H14 C16 1_555 1_555
C17 N6 1_555 1_555
H15 C17 1_555 1_555
C18 N4 1_555 1_555
H16 C18 1_555 1_555
H17 C18 1_555 1_555
H18 C18 1_555 1_555
C19 N7 1_555 1_555
C20 C19 1_555 1_555
C21 C20 1_555 1_555
H19 C21 1_555 1_555
C22 C21 1_555 1_555
H20 C22 1_555 1_555
C23 C22 1_555 1_555
H21 C23 1_555 1_555
C24 C23 1_555 1_555
H22 C24 1_555 1_555
C25 C20 1_555 1_555
H23 C25 1_555 1_555
C26 C27 1_555 1_555
C27 C28 1_555 1_555
C28 H24 1_555 1_555
C29 C28 1_555 1_555
H25 C29 1_555 1_555
C30 C29 1_555 1_555
H26 C30 1_555 1_555
C31 C30 1_555 1_555
H27 C31 1_555 1_555
C32 C27 1_555 1_555
H28 C32 1_555 1_555
N8 C26 1_555 1_555
B2 F5 1_555 1_555
F6 B2 1_555 1_555
F7 B2 1_555 1_555
F8 B2 1_555 1_555
B4 F13 1_555 1_555
F14 B4 1_555 1_555
F15 B4 1_555 1_555
F16 B4 1_555 1_555
Ag1A N6 1_555 1_555
N6A Ag1 1_555 1_555
C2 C3 1_555 1_555
C7 C8 1_555 1_555
C11 C12 1_555 1_555
C16 C17 1_555 1_555
C24 C25 1_555 1_555
C31 C32 1_555 1_555

#END
