
#######################################################################
#
#                 Cambridge Crystallographic Data Centre
#                                CCDC 
#
#######################################################################
#
# If this CIF has been generated from an entry in the Cambridge 
# Structural Database, then it will include bibliographic, chemical, 
# crystal, experimental, refinement or atomic coordinate data resulting 
# from the CCDC's data processing and validation procedures.
#
#######################################################################

data_HEDSOA
_symmetry_cell_setting           monoclinic
_symmetry_space_group_name_H-M   'C 2/c'
_symmetry_Int_Tables_number      15
_space_group_name_Hall           '-C 2yn'
loop_
_symmetry_equiv_pos_site_id
_symmetry_equiv_pos_as_xyz
1 x,y,z
2 -x,y,1/2-z
3 1/2+x,1/2+y,z
4 1/2-x,1/2+y,1/2-z
5 -x,-y,-z
6 x,-y,1/2+z
7 1/2-x,1/2-y,-z
8 1/2+x,1/2-y,1/2+z
_cell_length_a                   16.867(3)
_cell_length_b                   17.127(3)
_cell_length_c                   11.970(2)
_cell_angle_alpha                90
_cell_angle_beta                 93.268(3)
_cell_angle_gamma                90
_cell_volume                     3452.28
loop_
_atom_site_label
_atom_site_type_symbol
_atom_site_fract_x
_atom_site_fract_y
_atom_site_fract_z
Cd1 Cd 0.0000 0.315045(10) 0.7500
O1 O -0.05835(10) 0.21868(9) 0.86105(16)
O2 O -0.06855(9) 0.33946(9) 0.91762(13)
N1 N 0.0000 0.45822(14) 0.7500
N2 N 0.37366(10) 1.16330(11) 1.15707(16)
N3 N 0.0000 0.95444(14) 0.7500
C1 C -0.01495(17) 0.49931(13) 0.8411(2)
H1 H -0.0258 0.4722 0.9058
C2 C -0.01526(17) 0.57990(13) 0.8448(2)
H2 H -0.0257 0.6058 0.9106
C3 C 0.0000 0.62162(16) 0.7500
C4 C 0.0000 0.70810(17) 0.7500
C5 C 0.06557(13) 0.74982(13) 0.7179(2)
H3 H 0.1101 0.7231 0.6959
C6 C 0.06565(14) 0.83070(13) 0.7182(2)
H4 H 0.1101 0.8578 0.6968
C7 C 0.0000 0.87104(16) 0.7500
C8 C 0.32364(13) 1.11170(13) 1.2003(2)
H5 H 0.3332 1.0965 1.2744
C9 C 0.35665(14) 1.18528(12) 1.0518(2)
H6 H 0.3892 1.2222 1.0206
C10 C 0.29314(14) 1.15624(14) 0.9863(2)
H7 H 0.2843 1.1737 0.9131
C11 C 0.24230(12) 1.10104(12) 1.02914(18)
C12 C 0.25909(13) 1.08024(13) 1.14083(19)
H8 H 0.2264 1.0449 1.1752
C13 C 0.17615(12) 1.06581(12) 0.95972(18)
C14 C 0.14599(13) 1.10099(12) 0.86076(19)
H9 H 0.1656 1.1495 0.8408
C15 C 0.08793(12) 1.06588(12) 0.79174(18)
H10 H 0.0697 1.0902 0.7258
C16 C 0.05667(12) 0.99359(11) 0.82137(18)
C17 C 0.08377(13) 0.95924(12) 0.9220(2)
H11 H 0.0619 0.9122 0.9441
C18 C 0.14279(13) 0.99440(13) 0.9891(2)
H12 H 0.1608 0.9701 1.0553
C19 C -0.09071(13) 0.27005(12) 0.91714(18)
C20 C -0.16380(13) 0.24758(12) 0.98050(19)
H13 H -0.1468 0.2095 1.0380
C21 C -0.22596(13) 0.20782(13) 0.9007(2)
H14 H -0.2416 0.2435 0.8405
H15 H -0.2025 0.1621 0.8678
C22 C -0.29930(14) 0.18329(12) 0.9607(2)
H16 H -0.2847 0.1433 1.0155
H17 H -0.3382 0.1611 0.9069
Cd1F Cd -0.5000 0.184955(10) 1.2500
Cd1F_2 Cd -0.5000 1.184955(10) 0.2500
Cd1F_3 Cd 0.5000 1.184955(10) 1.2500
O1F O -0.44165(10) 0.28132(9) 1.13895(16)
O1A O 0.05835(10) 0.21868(9) 0.63895(16)
O2F O -0.43145(9) 0.16054(9) 1.08238(13)
O2A O 0.06855(9) 0.33946(9) 0.58238(13)
N2A N -0.37366(10) 1.16330(11) 0.34293(16)
N2F N 0.12634(10) 0.33670(11) 0.84293(16)
N2G N -0.12634(10) 0.33670(11) 0.65707(16)
C1A C 0.01495(17) 0.49931(13) 0.6589(2)
H1A H 0.0258 0.4722 0.5942
C2A C 0.01526(17) 0.57990(13) 0.6552(2)
H2A H 0.0257 0.6058 0.5894
C5A C -0.06557(13) 0.74982(13) 0.7821(2)
H3A H -0.1101 0.7231 0.8041
C6A C -0.06565(14) 0.83070(13) 0.7818(2)
H4A H -0.1101 0.8578 0.8032
C8A C -0.32364(13) 1.11170(13) 0.2997(2)
H5A H -0.3332 1.0965 0.2256
C9A C -0.35665(14) 1.18528(12) 0.4482(2)
H6A H -0.3892 1.2222 0.4794
C10A C -0.29314(14) 1.15624(14) 0.5137(2)
H7A H -0.2843 1.1737 0.5869
C11A C -0.24230(12) 1.10104(12) 0.47086(18)
C12A C -0.25909(13) 1.08024(13) 0.35917(19)
H8A H -0.2264 1.0449 0.3248
C13A C -0.17615(12) 1.06581(12) 0.54028(18)
C14A C -0.14599(13) 1.10099(12) 0.63924(19)
H9A H -0.1656 1.1495 0.6592
C15A C -0.08793(12) 1.06588(12) 0.70826(18)
H10A H -0.0697 1.0902 0.7742
C16A C -0.05667(12) 0.99359(11) 0.67863(18)
C17A C -0.08377(13) 0.95924(12) 0.5780(2)
H11A H -0.0619 0.9122 0.5559
C18A C -0.14279(13) 0.99440(13) 0.5109(2)
H12A H -0.1608 0.9701 0.4447
C19F C -0.40929(13) 0.22995(12) 1.08286(18)
C19A C 0.09071(13) 0.27005(12) 0.58286(18)
C20F C -0.33620(13) 0.25242(12) 1.01950(19)
H13F H -0.3532 0.2905 0.9620
C21F C -0.27404(13) 0.29218(13) 1.0993(2)
H14F H -0.2584 0.2565 1.1595
H15F H -0.2975 0.3379 1.1322
C22F C -0.20070(14) 0.31671(12) 1.0393(2)
H16F H -0.2153 0.3567 0.9845
H17F H -0.1618 0.3389 1.0931
loop_
_geom_bond_atom_site_label_1
_geom_bond_atom_site_label_2
_geom_bond_site_symmetry_1
_geom_bond_site_symmetry_2
Cd1 O1 1_555 1_555
O1 C19 1_555 1_555
O2 Cd1 1_555 1_555
N1 Cd1 1_555 1_555
N2 C8 1_555 1_555
N3 C7 1_555 1_555
C1 N1 1_555 1_555
H1 C1 1_555 1_555
C2 C1 1_555 1_555
H2 C2 1_555 1_555
C3 C2 1_555 1_555
C4 C3 1_555 1_555
C5 C4 1_555 1_555
H3 C5 1_555 1_555
C6 C5 1_555 1_555
H4 C6 1_555 1_555
C7 C6 1_555 1_555
C8 H5 1_555 1_555
C9 N2 1_555 1_555
H6 C9 1_555 1_555
C10 C9 1_555 1_555
H7 C10 1_555 1_555
C11 C10 1_555 1_555
C12 C8 1_555 1_555
H8 C12 1_555 1_555
C13 C11 1_555 1_555
C14 C13 1_555 1_555
H9 C14 1_555 1_555
C15 C14 1_555 1_555
H10 C15 1_555 1_555
C16 N3 1_555 1_555
C17 C16 1_555 1_555
H11 C17 1_555 1_555
C18 C13 1_555 1_555
H12 C18 1_555 1_555
C19 O2 1_555 1_555
C20 C19 1_555 1_555
H13 C20 1_555 1_555
C21 C20 1_555 1_555
H14 C21 1_555 1_555
H15 C21 1_555 1_555
C22 C21 1_555 1_555
H16 C22 1_555 1_555
H17 C22 1_555 1_555
Cd1F O1F 1_555 1_555
Cd1F_2 N2A 1_555 1_555
Cd1F_3 N2 1_555 1_555
O1F C19F 1_555 1_555
O1A Cd1 1_555 1_555
O2F Cd1F 1_555 1_555
O2A Cd1 1_555 1_555
N2A C8A 1_555 1_555
N2F Cd1 1_555 1_555
N2G Cd1 1_555 1_555
C1A N1 1_555 1_555
H1A C1A 1_555 1_555
C2A C3 1_555 1_555
H2A C2A 1_555 1_555
C5A C4 1_555 1_555
H3A C5A 1_555 1_555
C6A C7 1_555 1_555
H4A C6A 1_555 1_555
C8A H5A 1_555 1_555
C9A N2A 1_555 1_555
H6A C9A 1_555 1_555
C10A C9A 1_555 1_555
H7A C10A 1_555 1_555
C11A C10A 1_555 1_555
C12A C8A 1_555 1_555
H8A C12A 1_555 1_555
C13A C11A 1_555 1_555
C14A C13A 1_555 1_555
H9A C14A 1_555 1_555
C15A C14A 1_555 1_555
H10A C15A 1_555 1_555
C16A N3 1_555 1_555
C17A C16A 1_555 1_555
H11A C17A 1_555 1_555
C18A C13A 1_555 1_555
H12A C18A 1_555 1_555
C19F O2F 1_555 1_555
C19A O1A 1_555 1_555
C20F C22 1_555 1_555
H13F C20F 1_555 1_555
C21F C20F 1_555 1_555
H14F C21F 1_555 1_555
H15F C21F 1_555 1_555
C22F C20 1_555 1_555
H16F C22F 1_555 1_555
H17F C22F 1_555 1_555
C11 C12 1_555 1_555
C15 C16 1_555 1_555
C17 C18 1_555 1_555
O2A C19A 1_555 1_555
C1A C2A 1_555 1_555
C5A C6A 1_555 1_555
C11A C12A 1_555 1_555
C15A C16A 1_555 1_555
C17A C18A 1_555 1_555
C19F C20F 1_555 1_555
C21F C22F 1_555 1_555

#END
