
#######################################################################
#
#                 Cambridge Crystallographic Data Centre
#                                CCDC 
#
#######################################################################
#
# If this CIF has been generated from an entry in the Cambridge 
# Structural Database, then it will include bibliographic, chemical, 
# crystal, experimental, refinement or atomic coordinate data resulting 
# from the CCDC's data processing and validation procedures.
#
#######################################################################

data_HEDSIT
_symmetry_cell_setting           monoclinic
_symmetry_space_group_name_H-M   'P 21/n'
_symmetry_Int_Tables_number      14
_space_group_name_Hall           '-P 2yn'
loop_
_symmetry_equiv_pos_site_id
_symmetry_equiv_pos_as_xyz
1 x,y,z
2 1/2-x,1/2+y,1/2-z
3 -x,-y,-z
4 1/2+x,1/2-y,1/2+z
_cell_length_a                   12.5732(6)
_cell_length_b                   19.4854(9)
_cell_length_c                   18.4598(9)
_cell_angle_alpha                90
_cell_angle_beta                 97.2840(10)
_cell_angle_gamma                90
_cell_volume                     4486.04
loop_
_atom_site_label
_atom_site_type_symbol
_atom_site_fract_x
_atom_site_fract_y
_atom_site_fract_z
Ag1 Ag 1.044739(16) 0.785366(10) 0.211792(11)
Ag2 Ag 0.756623(15) 0.706664(10) -0.009694(11)
Au1 Au 0.850668(8) 0.776486(5) 0.118009(6)
Au2 Au 1.166880(7) 0.743440(5) 0.351360(5)
N1 N 1.30906(17) 0.84510(11) 0.28403(13)
N2 N 1.16484(17) 0.89422(11) 0.30771(12)
N3 N 0.98393(18) 0.86510(12) 0.28646(13)
N4 N 0.7365(2) 0.69489(14) 0.22633(16)
N5 N 0.8829(2) 0.64539(13) 0.20684(15)
N6 N 1.05128(18) 0.67419(11) 0.17236(13)
N7 N 0.8608(2) 0.91553(12) 0.04431(15)
N8 N 0.93599(19) 0.83793(12) -0.01420(13)
N9 N 0.93197(18) 0.71764(12) -0.03177(13)
N10 N 1.15804(18) 0.59276(11) 0.38981(13)
N11 N 1.08511(19) 0.65243(11) 0.46730(13)
N12 N 1.08567(19) 0.76634(12) 0.51208(14)
N13 N 1.16386(19) 0.87657(12) 0.10399(13)
N14 N 0.76379(19) 0.55344(12) 0.01951(14)
O1 O 1.17317(18) 0.81520(10) 0.12743(13)
O2 O 1.22397(18) 0.89722(11) 0.05930(13)
O3 O 1.09534(18) 0.91473(11) 0.12533(13)
O4 O 0.76972(19) 0.57936(12) -0.04257(13)
O5 O 0.74650(18) 0.59216(11) 0.07115(13)
O6 O 0.7748(2) 0.49085(11) 0.02870(14)
C1 C 1.2142(2) 0.83172(13) 0.30756(14)
C2 C 1.3200(2) 0.91440(14) 0.27041(16)
H1 H 1.3799 0.9361 0.2535
C3 C 1.2294(2) 0.94543(14) 0.28571(16)
H2 H 1.2133 0.9930 0.2820
C4 C 1.3876(2) 0.79304(15) 0.26999(17)
H3 H 1.3705 0.7496 0.2927
H4 H 1.4594 0.8081 0.2907
H5 H 1.3855 0.7865 0.2172
C5 C 1.0582(2) 0.90521(13) 0.32307(15)
C6 C 1.0359(2) 0.95680(14) 0.37049(17)
H6 H 1.0915 0.9839 0.3957
C7 C 0.9297(2) 0.96744(16) 0.37977(18)
H7 H 0.9109 1.0023 0.4119
C8 C 0.8510(2) 0.92692(16) 0.34194(18)
H8 H 0.7775 0.9339 0.3471
C9 C 0.8810(2) 0.87624(16) 0.29661(17)
H9 H 0.8269 0.8479 0.2714
C10 C 0.8212(2) 0.70262(14) 0.18894(16)
C11 C 0.8350(3) 0.60328(18) 0.2545(2)
H10 H 0.8615 0.5607 0.2742
C12 C 0.7437(3) 0.63484(19) 0.2671(2)
H11 H 0.6939 0.6190 0.2979
C13 C 0.6486(3) 0.74430(18) 0.2241(2)
H12 H 0.6544 0.7696 0.2703
H13 H 0.5799 0.7199 0.2167
H14 H 0.6525 0.7766 0.1838
C14 C 0.9755(2) 0.62642(13) 0.17419(16)
C15 C 0.9821(2) 0.56047(14) 0.14659(18)
H15 H 0.9268 0.5278 0.1498
C16 C 1.0724(2) 0.54405(14) 0.11427(18)
H16 H 1.0794 0.4997 0.0940
C17 C 1.1524(2) 0.59255(14) 0.11159(16)
H17 H 1.2150 0.5821 0.0899
C18 C 1.1386(2) 0.65665(14) 0.14138(16)
H18 H 1.1936 0.6899 0.1399
C19 C 0.8841(2) 0.84777(14) 0.04547(16)
C20 C 0.9455(3) 0.89991(16) -0.05112(19)
H19 H 0.9791 0.9068 -0.0938
C21 C 0.8976(3) 0.94757(16) -0.0143(2)
H20 H 0.8904 0.9949 -0.0263
C22 C 0.8178(3) 0.95182(17) 0.1040(2)
H21 H 0.7733 0.9204 0.1286
H22 H 0.7742 0.9908 0.0841
H23 H 0.8772 0.9685 0.1391
C23 C 0.9876(2) 0.77625(15) -0.03246(15)
C24 C 1.0920(2) 0.77951(18) -0.04924(18)
H24 H 1.1288 0.8221 -0.0489
C25 C 1.1411(2) 0.71926(19) -0.06652(18)
H25 H 1.2122 0.7199 -0.0789
C26 C 1.0856(2) 0.65801(18) -0.06551(18)
H26 H 1.1178 0.6160 -0.0771
C27 C 0.9823(2) 0.65934(16) -0.04725(17)
H27 H 0.9449 0.6171 -0.0455
C28 C 1.1321(2) 0.65761(13) 0.40524(15)
C29 C 1.1276(2) 0.54713(14) 0.44059(17)
H28 H 1.1376 0.4988 0.4409
C30 C 1.0813(2) 0.58389(14) 0.48930(17)
H29 H 1.0518 0.5668 0.5306
C31 C 1.2075(2) 0.57215(15) 0.32571(16)
H30 H 1.2442 0.6116 0.3072
H31 H 1.2595 0.5354 0.3392
H32 H 1.1520 0.5556 0.2877
C32 C 1.0338(2) 0.70672(14) 0.50199(16)
C33 C 0.9333(3) 0.69427(16) 0.52296(19)
H33 H 0.8987 0.6513 0.5135
C34 C 0.8847(3) 0.74629(17) 0.5581(2)
H34 H 0.8170 0.7391 0.5745
C35 C 0.9365(3) 0.80889(17) 0.56880(19)
H35 H 0.9048 0.8456 0.5923
C36 C 1.0353(2) 0.81671(16) 0.5446(2)
H36 H 1.0699 0.8600 0.5512
Ag2C Ag 1.256623(15) 0.793336(10) 0.490306(11)
N12C N 0.58567(19) 0.73366(12) 0.01208(14)
N15 N 0.54849(19) 0.40562(12) 0.74002(14)
O7 O 0.5148(2) 0.46256(12) 0.71775(15)
O8 O 0.62211(19) 0.40116(13) 0.79202(13)
O9 O 0.5092(2) 0.35284(12) 0.70833(16)
N16 N 0.0701(2) 0.57509(13) 0.70122(16)
O10 O 0.0902(5) 0.6156(2) 0.6546(2)
O11 O 0.0954(2) 0.58709(14) 0.76694(15)
O12 O 0.0166(2) 0.52370(14) 0.68131(18)
loop_
_geom_bond_atom_site_label_1
_geom_bond_atom_site_label_2
_geom_bond_site_symmetry_1
_geom_bond_site_symmetry_2
Ag1 N3 1_555 1_555
Ag2 N9 1_555 1_555
Au1 C10 1_555 1_555
Au2 C1 1_555 1_555
N1 C1 1_555 1_555
N2 C1 1_555 1_555
N3 C5 1_555 1_555
N4 C10 1_555 1_555
N5 C10 1_555 1_555
N6 Ag1 1_555 1_555
N7 C19 1_555 1_555
N8 C19 1_555 1_555
N9 C23 1_555 1_555
N10 C28 1_555 1_555
N11 C28 1_555 1_555
N12 C32 1_555 1_555
N13 O1 1_555 1_555
N14 O4 1_555 1_555
N15 O7 1_555 1_555
N16 O10 1_555 1_555
O1 Ag1 1_555 1_555
O2 N13 1_555 1_555
O3 N13 1_555 1_555
O4 Ag2 1_555 1_555
O5 N14 1_555 1_555
O6 N14 1_555 1_555
O8 N15 1_555 1_555
O9 N15 1_555 1_555
O11 N16 1_555 1_555
O12 N16 1_555 1_555
C2 N1 1_555 1_555
H1 C2 1_555 1_555
C3 N2 1_555 1_555
H2 C3 1_555 1_555
C4 N1 1_555 1_555
H3 C4 1_555 1_555
H4 C4 1_555 1_555
H5 C4 1_555 1_555
C5 N2 1_555 1_555
C6 C5 1_555 1_555
H6 C6 1_555 1_555
C7 C6 1_555 1_555
H7 C7 1_555 1_555
C8 C7 1_555 1_555
H8 C8 1_555 1_555
C9 N3 1_555 1_555
H9 C9 1_555 1_555
C11 N5 1_555 1_555
H10 C11 1_555 1_555
C12 N4 1_555 1_555
H11 C12 1_555 1_555
C13 N4 1_555 1_555
H12 C13 1_555 1_555
H13 C13 1_555 1_555
H14 C13 1_555 1_555
C14 N5 1_555 1_555
C15 C14 1_555 1_555
H15 C15 1_555 1_555
C16 C15 1_555 1_555
H16 C16 1_555 1_555
C17 C16 1_555 1_555
H17 C17 1_555 1_555
C18 N6 1_555 1_555
H18 C18 1_555 1_555
C19 Au1 1_555 1_555
C20 N8 1_555 1_555
H19 C20 1_555 1_555
C21 N7 1_555 1_555
H20 C21 1_555 1_555
C22 N7 1_555 1_555
H21 C22 1_555 1_555
H22 C22 1_555 1_555
H23 C22 1_555 1_555
C23 N8 1_555 1_555
C24 C23 1_555 1_555
H24 C24 1_555 1_555
C25 C24 1_555 1_555
H25 C25 1_555 1_555
C26 C25 1_555 1_555
H26 C26 1_555 1_555
C27 N9 1_555 1_555
H27 C27 1_555 1_555
C28 Au2 1_555 1_555
C29 N10 1_555 1_555
H28 C29 1_555 1_555
C30 N11 1_555 1_555
H29 C30 1_555 1_555
C31 N10 1_555 1_555
H30 C31 1_555 1_555
H31 C31 1_555 1_555
H32 C31 1_555 1_555
C32 N11 1_555 1_555
C33 C32 1_555 1_555
H33 C33 1_555 1_555
C34 C33 1_555 1_555
H34 C34 1_555 1_555
C35 C34 1_555 1_555
H35 C35 1_555 1_555
C36 N12 1_555 1_555
H36 C36 1_555 1_555
Ag2C N12 1_555 1_555
N12C Ag2 1_555 1_555
N6 C14 1_555 1_555
C2 C3 1_555 1_555
C8 C9 1_555 1_555
C11 C12 1_555 1_555
C17 C18 1_555 1_555
C20 C21 1_555 1_555
C26 C27 1_555 1_555
C29 C30 1_555 1_555
C35 C36 1_555 1_555

#END
