
#######################################################################
#
#                 Cambridge Crystallographic Data Centre
#                                CCDC 
#
#######################################################################
#
# If this CIF has been generated from an entry in the Cambridge 
# Structural Database, then it will include bibliographic, chemical, 
# crystal, experimental, refinement or atomic coordinate data resulting 
# from the CCDC's data processing and validation procedures.
#
#######################################################################

data_HEDTUH
_symmetry_cell_setting           monoclinic
_symmetry_space_group_name_H-M   'C c'
_symmetry_Int_Tables_number      9
_space_group_name_Hall           'C -2yc'
loop_
_symmetry_equiv_pos_site_id
_symmetry_equiv_pos_as_xyz
1 x,y,z
2 x,-y,1/2+z
3 1/2+x,1/2+y,z
4 1/2+x,1/2-y,1/2+z
_cell_length_a                   16.413(4)
_cell_length_b                   16.914(4)
_cell_length_c                   7.4606(16)
_cell_angle_alpha                90
_cell_angle_beta                 95.163(8)
_cell_angle_gamma                90
_cell_volume                     2062.73
loop_
_atom_site_label
_atom_site_type_symbol
_atom_site_fract_x
_atom_site_fract_y
_atom_site_fract_z
Co1 Co 0.21567(4) 0.30950(3) 0.06797(6)
O1 O 0.18358(17) 0.18469(18) 0.1077(4)
O2 O 0.09994(17) 0.26374(17) -0.0514(4)
O3 O -0.17161(17) 0.15639(18) -0.3063(4)
O4 O -0.1797(2) 0.0271(2) -0.3582(5)
O5 O 0.0319(2) -0.14659(19) -0.0816(5)
O6 O 0.1398(2) -0.0976(2) 0.0551(6)
O7 O 0.18689(19) 0.41940(18) -0.0417(4)
H1 H 0.236(3) 0.450(3) 0.005(6)
H2 H 0.179(4) 0.418(4) -0.152(9)
N1 N 0.0757(2) 0.3601(2) 0.5065(4)
N2 N 0.1465(2) 0.3936(2) 0.5799(5)
N3 N 0.1640(2) 0.3382(2) 0.3111(4)
N4 N -0.1803(2) 0.7101(2) 0.6119(5)
N5 N -0.1127(2) 0.7489(3) 0.6858(6)
N6 N -0.21992(19) 0.7703(2) 0.8476(5)
N7 N 0.0732(2) -0.0910(2) -0.0292(5)
C1 C -0.0448(3) 0.4432(3) 0.5532(5)
C2 C -0.1286(3) 0.4437(3) 0.5098(6)
H3 H -0.1572 0.3962 0.5020
C3 C -0.1701(3) 0.5139(3) 0.4782(6)
H4 H -0.2265 0.5128 0.4502
C4 C -0.1304(3) 0.5852(3) 0.4869(5)
C5 C -0.0464(3) 0.5847(3) 0.5289(6)
H5 H -0.0180 0.6323 0.5340
C6 C -0.0043(3) 0.5156(3) 0.5632(6)
H6 H 0.0519 0.5171 0.5934
C7 C 0.0003(3) 0.3670(3) 0.5948(6)
H7 H 0.0132 0.3630 0.7239
H8 H -0.0354 0.3231 0.5575
C8 C -0.1761(3) 0.6615(3) 0.4516(5)
H9 H -0.1497 0.6917 0.3626
H10 H -0.2313 0.6496 0.4012
C9 C 0.1979(3) 0.3788(3) 0.4580(5)
H11 H 0.2524 0.3946 0.4708
C10 C 0.0877(3) 0.3273(3) 0.3490(5)
H12 H 0.0479 0.3006 0.2758
C11 C -0.1401(3) 0.7838(3) 0.8249(6)
H13 H -0.1071 0.8157 0.9028
C12 C -0.2418(3) 0.7237(3) 0.7094(6)
H14 H -0.2941 0.7030 0.6842
C13 C 0.0634(2) 0.1277(2) -0.0430(5)
C14 C -0.0132(2) 0.1394(2) -0.1347(5)
H15 H -0.0319 0.1906 -0.1583
C15 C -0.0622(2) 0.0754(2) -0.1916(5)
C16 C -0.0337(2) -0.0002(2) -0.1599(5)
H16 H -0.0649 -0.0436 -0.2001
C17 C 0.0425(2) -0.0103(2) -0.0667(5)
C18 C 0.0916(2) 0.0520(2) -0.0076(5)
H17 H 0.1424 0.0434 0.0547
C19 C 0.1187(2) 0.1958(2) 0.0085(5)
C20 C -0.1446(3) 0.0873(3) -0.2956(6)
Co1B Co -0.28433(4) 0.80950(3) 1.06797(6)
Co1C Co -0.28433(4) 0.19050(3) -0.43203(6)
O3C O 0.32839(17) 0.34361(18) 0.1937(4)
N6B N 0.28008(19) 0.2703(2) -0.1524(5)
loop_
_geom_bond_atom_site_label_1
_geom_bond_atom_site_label_2
_geom_bond_site_symmetry_1
_geom_bond_site_symmetry_2
Co1 O1 1_555 1_555
O1 C19 1_555 1_555
O2 Co1 1_555 1_555
O3 C20 1_555 1_555
O4 C20 1_555 1_555
O5 N7 1_555 1_555
O6 N7 1_555 1_555
O7 Co1 1_555 1_555
H1 O7 1_555 1_555
H2 O7 1_555 1_555
N1 N2 1_555 1_555
N2 C9 1_555 1_555
N3 Co1 1_555 1_555
N4 N5 1_555 1_555
N5 C11 1_555 1_555
N6 C11 1_555 1_555
N7 C17 1_555 1_555
C1 C2 1_555 1_555
C2 H3 1_555 1_555
C3 C2 1_555 1_555
H4 C3 1_555 1_555
C4 C3 1_555 1_555
C5 C4 1_555 1_555
H5 C5 1_555 1_555
C6 C1 1_555 1_555
H6 C6 1_555 1_555
C7 N1 1_555 1_555
H7 C7 1_555 1_555
H8 C7 1_555 1_555
C8 N4 1_555 1_555
H9 C8 1_555 1_555
H10 C8 1_555 1_555
C9 N3 1_555 1_555
H11 C9 1_555 1_555
C10 N1 1_555 1_555
H12 C10 1_555 1_555
C11 H13 1_555 1_555
C12 N4 1_555 1_555
H14 C12 1_555 1_555
C13 C14 1_555 1_555
C14 H15 1_555 1_555
C15 C14 1_555 1_555
C16 C15 1_555 1_555
H16 C16 1_555 1_555
C17 C16 1_555 1_555
C18 C13 1_555 1_555
H17 C18 1_555 1_555
C19 O2 1_555 1_555
C20 C15 1_555 1_555
Co1B N6 1_555 1_555
Co1C O3 1_555 1_555
O3C Co1 1_555 1_555
N6B Co1 1_555 1_555
N3 C10 1_555 1_555
N6 C12 1_555 1_555
C1 C7 1_555 1_555
C4 C8 1_555 1_555
C5 C6 1_555 1_555
C13 C19 1_555 1_555
C17 C18 1_555 1_555

#END
