
#######################################################################
#
#                 Cambridge Crystallographic Data Centre
#                                CCDC 
#
#######################################################################
#
# If this CIF has been generated from an entry in the Cambridge 
# Structural Database, then it will include bibliographic, chemical, 
# crystal, experimental, refinement or atomic coordinate data resulting 
# from the CCDC's data processing and validation procedures.
#
#######################################################################

data_HEDTOB
_symmetry_cell_setting           monoclinic
_symmetry_space_group_name_H-M   'P 21/c'
_symmetry_Int_Tables_number      14
_space_group_name_Hall           '-P 2ybc'
loop_
_symmetry_equiv_pos_site_id
_symmetry_equiv_pos_as_xyz
1 x,y,z
2 -x,1/2+y,1/2-z
3 -x,-y,-z
4 x,1/2-y,1/2+z
_cell_length_a                   10.1925(13)
_cell_length_b                   28.769(4)
_cell_length_c                   7.7372(10)
_cell_angle_alpha                90
_cell_angle_beta                 102.751(3)
_cell_angle_gamma                90
_cell_volume                     2212.81
loop_
_atom_site_label
_atom_site_type_symbol
_atom_site_fract_x
_atom_site_fract_y
_atom_site_fract_z
Co1 Co 0.03401(3) 0.096226(12) 0.45852(5)
O1 O 0.19787(18) 0.06616(7) 0.4027(3)
O2 O 0.3315(2) 0.12829(9) 0.4393(5)
O3 O 0.81939(18) 0.10331(7) 0.4706(3)
O4 O 0.88535(17) 0.04261(7) 0.3421(3)
O5 O 0.5464(2) -0.07608(8) 0.0862(3)
O6 O 0.3441(2) -0.06976(9) 0.1207(4)
O7 O 0.0738(2) 0.05072(8) 0.6922(3)
N1 N 0.2522(2) 0.18867(8) 0.8270(3)
N2 N 0.1830(2) 0.22209(9) 0.7200(3)
N3 N 0.1067(2) 0.15099(8) 0.6299(3)
N4 N 0.8939(2) 0.16711(8) 0.9726(3)
N5 N 1.0104(3) 0.19114(11) 1.0227(4)
N6 N 0.9907(2) 0.13789(8) 1.2277(3)
N7 N 0.4585(2) -0.05526(8) 0.1394(3)
C1 C 0.4782(3) 0.22273(10) 0.9303(4)
C2 C 0.5766(3) 0.19373(10) 0.8893(4)
H1 H 0.5653 0.1617 0.8917
C3 C 0.6905(3) 0.21167(10) 0.8453(4)
C4 C 0.7068(3) 0.25949(11) 0.8415(4)
H2 H 0.7831 0.2720 0.8120
C5 C 0.6096(3) 0.28873(11) 0.8814(4)
H3 H 0.6210 0.3208 0.8787
C6 C 0.4952(3) 0.27045(11) 0.9253(4)
H4 H 0.4301 0.2902 0.9514
C7 C 0.3573(3) 0.20159(11) 0.9822(4)
H5 H 0.3850 0.1742 1.0539
H6 H 0.3206 0.2237 1.0537
C8 C 0.7970(3) 0.17932(12) 0.8083(4)
H7 H 0.7549 0.1512 0.7525
H8 H 0.8440 0.1941 0.7269
C9 C 0.0964(3) 0.19761(10) 0.6044(4)
H9 H 0.0334 0.2111 0.5128
C10 C 0.2060(3) 0.14717(10) 0.7720(4)
H10 H 0.2385 0.1192 0.8253
C11 C 1.0647(3) 0.17173(12) 1.1756(4)
H11 H 1.1482 0.1807 1.2428
C12 C 0.8837(3) 0.13637(10) 1.0945(4)
H12 H 0.8113 0.1163 1.0882
C13 C 0.4171(2) 0.05779(10) 0.3549(4)
C14 C 0.5493(3) 0.07367(9) 0.3917(4)
H13 H 0.5694 0.1022 0.4475
C15 C 0.6521(2) 0.04770(9) 0.3466(3)
C16 C 0.6220(2) 0.00531(9) 0.2602(4)
H14 H 0.6886 -0.0122 0.2260
C17 C 0.4906(3) -0.00992(9) 0.2269(4)
C18 C 0.3874(3) 0.01511(10) 0.2726(4)
H15 H 0.3001 0.0036 0.2486
C19 C 0.3074(3) 0.08728(11) 0.4044(4)
C20 C 0.7938(2) 0.06561(9) 0.3900(4)
C21 C -0.0008(5) 0.05006(16) 0.8266(6)
H16 H 0.0361 0.0270 0.9137
H17 H -0.0930 0.0426 0.7752
H18 H 0.0039 0.0801 0.8820
H19 H 0.084(4) 0.0256(14) 0.664(5)
Co1_2 Co 1.03401(3) 0.096226(12) 0.45852(5)
Co1_3 Co 1.03401(3) 0.096226(12) 1.45852(5)
O3_2 O -0.18061(18) 0.10331(7) 0.4706(3)
O4_2 O -0.11465(17) 0.04261(7) 0.3421(3)
N6_2 N -0.0093(2) 0.13789(8) 0.2277(3)
loop_
_geom_bond_atom_site_label_1
_geom_bond_atom_site_label_2
_geom_bond_site_symmetry_1
_geom_bond_site_symmetry_2
Co1 O1 1_555 1_555
O1 C19 1_555 1_555
O2 C19 1_555 1_555
O3 C20 1_555 1_555
O4 C20 1_555 1_555
O5 N7 1_555 1_555
O6 N7 1_555 1_555
O7 Co1 1_555 1_555
N1 N2 1_555 1_555
N2 C9 1_555 1_555
N3 Co1 1_555 1_555
N4 N5 1_555 1_555
N5 C11 1_555 1_555
N6 C11 1_555 1_555
N7 C17 1_555 1_555
C1 C2 1_555 1_555
C2 H1 1_555 1_555
C3 C2 1_555 1_555
C4 C3 1_555 1_555
H2 C4 1_555 1_555
C5 C4 1_555 1_555
H3 C5 1_555 1_555
C6 C1 1_555 1_555
H4 C6 1_555 1_555
C7 N1 1_555 1_555
H5 C7 1_555 1_555
H6 C7 1_555 1_555
C8 N4 1_555 1_555
H7 C8 1_555 1_555
H8 C8 1_555 1_555
C9 N3 1_555 1_555
H9 C9 1_555 1_555
C10 N1 1_555 1_555
H10 C10 1_555 1_555
C11 H11 1_555 1_555
C12 N4 1_555 1_555
H12 C12 1_555 1_555
C13 C14 1_555 1_555
C14 H13 1_555 1_555
C15 C14 1_555 1_555
C16 C15 1_555 1_555
H14 C16 1_555 1_555
C17 C16 1_555 1_555
C18 C13 1_555 1_555
H15 C18 1_555 1_555
C19 C13 1_555 1_555
C20 C15 1_555 1_555
C21 O7 1_555 1_555
H16 C21 1_555 1_555
H17 C21 1_555 1_555
H18 C21 1_555 1_555
H19 O7 1_555 1_555
Co1_2 O3 1_555 1_555
Co1_3 N6 1_555 1_555
O3_2 Co1 1_555 1_555
O4_2 Co1 1_555 1_555
N6_2 Co1 1_555 1_555
O4 Co1_2 1_555 1_555
N3 C10 1_555 1_555
N6 C12 1_555 1_555
C1 C7 1_555 1_555
C3 C8 1_555 1_555
C5 C6 1_555 1_555
C17 C18 1_555 1_555

#END
