
#######################################################################
#
#                 Cambridge Crystallographic Data Centre
#                                CCDC 
#
#######################################################################
#
# If this CIF has been generated from an entry in the Cambridge 
# Structural Database, then it will include bibliographic, chemical, 
# crystal, experimental, refinement or atomic coordinate data resulting 
# from the CCDC's data processing and validation procedures.
#
#######################################################################

data_HEDYUM
_symmetry_cell_setting           triclinic
_symmetry_space_group_name_H-M   'P -1'
_symmetry_Int_Tables_number      2
_space_group_name_Hall           '-P 1'
loop_
_symmetry_equiv_pos_site_id
_symmetry_equiv_pos_as_xyz
1 x,y,z
2 -x,-y,-z
_cell_length_a                   9.9941(5)
_cell_length_b                   18.1040(9)
_cell_length_c                   23.2479(11)
_cell_angle_alpha                68.200(5)
_cell_angle_beta                 79.457(4)
_cell_angle_gamma                78.836(4)
_cell_volume                     3803.01
loop_
_atom_site_label
_atom_site_type_symbol
_atom_site_fract_x
_atom_site_fract_y
_atom_site_fract_z
Zn1 Zn 0.08616(5) 0.47228(3) 0.86107(2)
Zn2 Zn 0.91370(5) -0.22647(3) 1.33808(2)
Zn3 Zn 1.01538(5) -0.12693(3) 1.39480(2)
C1 C -0.7892(4) 1.0486(3) 0.6638(2)
C2 C -0.6562(4) 0.9957(3) 0.6822(2)
C3 C -0.6116(5) 0.9247(3) 0.6713(2)
H1 H -0.6673 0.9064 0.6530
C4 C -0.4861(4) 0.8799(3) 0.6869(2)
H2 H -0.4573 0.8326 0.6785
C5 C -0.4042(4) 0.9061(3) 0.7152(2)
C6 C -0.4470(5) 0.9758(3) 0.7264(3)
H3 H -0.3913 0.9940 0.7448
C7 C -0.5731(5) 1.0204(3) 0.7105(3)
H4 H -0.6016 1.0676 0.7191
C8 C -0.2046(5) 0.8836(3) 0.7645(3)
H5 H -0.2583 0.8819 0.8041
H6 H -0.1859 0.9383 0.7417
C9 C -0.0714(5) 0.8279(3) 0.7757(3)
C10 C 0.0112(5) 0.8032(3) 0.7308(3)
H7 H -0.0193 0.8160 0.6923
C11 C 0.1395(5) 0.7594(3) 0.7415(2)
H8 H 0.1932 0.7427 0.7102
C12 C 0.1897(5) 0.7397(3) 0.7978(2)
C13 C 0.1067(5) 0.7639(3) 0.8431(3)
H9 H 0.1380 0.7516 0.8813
C14 C -0.0234(5) 0.8064(3) 0.8331(2)
H10 H -0.0791 0.8206 0.8651
C15 C 0.3307(4) 0.6972(3) 0.8070(2)
C16 C 0.3769(4) 0.6263(3) 0.79523(19)
C17 C 0.5143(4) 0.5933(3) 0.7976(2)
H11 H 0.5453 0.5470 0.7878
C18 C 0.6052(5) 0.6279(4) 0.8141(3)
H12 H 0.6967 0.6049 0.8161
C19 C 0.5593(6) 0.6963(4) 0.8275(3)
H13 H 0.6199 0.7195 0.8394
C20 C 0.4241(5) 0.7319(3) 0.8238(3)
H14 H 0.3952 0.7791 0.8324
C21 C 0.2800(5) 0.5773(3) 0.7862(2)
C22 C -0.4857(5) 0.5135(4) 1.0228(2)
H15 H -0.5524 0.4964 1.0594
H16 H -0.4999 0.5718 1.0067
C23 C -0.3437(4) 0.4862(3) 1.0435(2)
H17 H -0.3375 0.5080 1.0751
H18 H -0.3300 0.4281 1.0622
C24 C -0.1403(5) 0.4641(3) 0.9689(2)
H19 H -0.1325 0.4083 0.9841
C25 C -0.1046(5) 0.5840(3) 0.9144(2)
H20 H -0.0666 0.6276 0.8845
C26 C -0.2139(5) 0.5886(3) 0.9570(2)
H21 H -0.2650 0.6352 0.9617
C27 C -0.8539(4) 0.2290(3) 0.7834(2)
H22 H -0.9112 0.1909 0.8072
C28 C -0.7809(4) 0.2641(3) 0.8063(2)
H23 H -0.7785 0.2547 0.8483
C29 C -0.7443(5) 0.3097(3) 0.7063(2)
H24 H -0.7101 0.3388 0.6658
C30 C -0.6155(4) 0.3678(3) 0.7578(2)
H25 H -0.6479 0.3875 0.7921
H26 H -0.6144 0.4137 0.7193
C31 C -0.4715(4) 0.3241(3) 0.7648(2)
H27 H -0.4380 0.3058 0.7298
H28 H -0.4730 0.2771 0.8027
C32 C -0.3739(4) 0.3771(2) 0.7677(2)
H29 H -0.3722 0.4242 0.7300
H30 H -0.4064 0.3950 0.8030
C33 C -0.2304(4) 0.3315(3) 0.7743(3)
H31 H -0.2316 0.2862 0.8133
H32 H -0.2006 0.3108 0.7404
C34 C -0.0936(4) 0.3894(3) 0.8231(2)
H33 H -0.1243 0.3608 0.8643
C35 C 0.0135(5) 0.4676(3) 0.7431(2)
H34 H 0.0718 0.5045 0.7177
C36 C -0.0641(5) 0.4321(4) 0.7225(3)
H35 H -0.0696 0.4398 0.6811
C37 C 0.2080(6) 0.3247(3) 0.9365(2)
C38 C 0.3290(5) 0.2678(3) 0.9650(2)
C39 C 0.3153(6) 0.1945(3) 1.0109(2)
H36 H 0.2289 0.1778 1.0236
C40 C 0.4271(6) 0.1446(3) 1.0387(2)
H37 H 0.4160 0.0951 1.0697
C41 C 0.5545(6) 0.1694(3) 1.0199(3)
C42 C 0.5710(5) 0.2423(3) 0.9732(3)
H38 H 0.6577 0.2583 0.9596
C43 C 0.4587(5) 0.2909(3) 0.9469(2)
H39 H 0.4700 0.3406 0.9162
C44 C 0.6652(6) 0.0495(3) 1.0909(3)
H40 H 0.6301 0.0147 1.0756
H41 H 0.6039 0.0546 1.1271
C45 C 0.8081(7) 0.0145(4) 1.1081(3)
C46 C 0.8919(8) -0.0334(4) 1.0786(3)
H42 H 0.8591 -0.0456 1.0487
C47 C 1.0256(7) -0.0643(3) 1.0929(2)
H43 H 1.0823 -0.0960 1.0721
C48 C 1.0737(6) -0.0471(3) 1.1387(2)
C49 C 0.9867(6) 0.0001(3) 1.1684(3)
H44 H 1.0176 0.0114 1.1992
C50 C 0.8548(6) 0.0312(3) 1.1536(3)
H45 H 0.7979 0.0632 1.1742
C51 C 1.2174(5) -0.0770(3) 1.1530(2)
C52 C 1.3249(7) -0.0737(3) 1.1054(3)
H46 H 1.3055 -0.0562 1.0644
C53 C 1.4587(7) -0.0957(4) 1.1172(3)
H47 H 1.5284 -0.0960 1.0847
C54 C 1.4904(6) -0.1170(3) 1.1762(3)
H48 H 1.5817 -0.1281 1.1836
C55 C 1.3864(5) -0.1222(3) 1.2250(3)
H49 H 1.4082 -0.1388 1.2655
C56 C 1.2490(4) -0.1028(3) 1.2142(2)
C57 C 1.1412(4) -0.1223(3) 1.2699(2)
C58 C 1.4504(4) -0.0250(3) 1.4967(2)
H50 H 1.4863 -0.0428 1.4616
H51 H 1.4430 -0.0722 1.5340
C59 C 1.3088(4) 0.0230(3) 1.4866(2)
H52 H 1.2760 0.0446 1.5198
H53 H 1.3146 0.0677 1.4473
C60 C 1.1865(4) -0.0394(3) 1.4357(2)
H54 H 1.2259 -0.0142 1.3952
C61 C 1.0677(4) -0.1142(3) 1.5141(2)
H55 H 1.0088 -0.1512 1.5383
C62 C 1.1366(4) -0.0743(3) 1.5362(2)
H56 H 1.1329 -0.0784 1.5776
C63 C 0.7852(4) -0.2334(3) 1.4605(2)
C64 C 0.6846(4) -0.2596(2) 1.51728(19)
C65 C 0.7289(4) -0.3062(3) 1.5752(2)
C66 C 0.6325(5) -0.3248(3) 1.6274(2)
H57 H 0.6612 -0.3554 1.6662
C67 C 0.4934(5) -0.2986(3) 1.6230(3)
H58 H 0.4299 -0.3108 1.6587
C68 C 0.4503(5) -0.2547(3) 1.5658(3)
H59 H 0.3572 -0.2380 1.5624
C69 C 0.5451(4) -0.2352(3) 1.5134(2)
H60 H 0.5151 -0.2053 1.4747
C70 C 0.8768(4) -0.3401(3) 1.58008(19)
C71 C 0.9413(4) -0.3892(3) 1.5474(2)
H61 H 0.8917 -0.4013 1.5226
C72 C 1.0789(4) -0.4214(3) 1.5505(2)
H62 H 1.1203 -0.4546 1.5280
C73 C 1.1546(4) -0.4040(2) 1.58713(19)
C74 C 1.0902(5) -0.3550(3) 1.6198(2)
H63 H 1.1402 -0.3424 1.6441
C75 C 0.9516(4) -0.3235(3) 1.6175(2)
H64 H 0.9096 -0.2915 1.6409
C76 C 1.3045(4) -0.4348(3) 1.5895(2)
H65 H 1.3586 -0.3956 1.5586
H66 H 1.3286 -0.4437 1.6304
C77 C 1.4635(4) -0.5477(3) 1.57980(19)
C78 C 1.4838(4) -0.6204(3) 1.56984(19)
H67 H 1.4124 -0.6365 1.5588
C79 C 1.6084(4) -0.6685(3) 1.57619(19)
H68 H 1.6195 -0.7176 1.5705
C80 C 1.7188(4) -0.6448(3) 1.59101(18)
C81 C 1.6986(4) -0.5707(3) 1.59745(18)
H69 H 1.7720 -0.5531 1.6057
C82 C 1.5729(4) -0.5209(3) 1.59217(19)
H70 H 1.5624 -0.4712 1.5968
C83 C 1.8501(4) -0.7015(3) 1.60217(19)
O1 O -0.8185(3) 1.10904(19) 0.67968(14)
O2 O -0.8614(3) 1.02975(17) 0.63359(14)
O4 O -0.2806(3) 0.85938(18) 0.72908(16)
O5 O 0.1731(3) 0.56852(18) 0.82630(15)
O6 O 0.3085(4) 0.5497(2) 0.74483(16)
O7 O 0.2352(3) 0.3915(2) 0.89730(15)
O8 O 0.0909(4) 0.3059(2) 0.95292(19)
O9 O 0.6730(4) 0.1261(2) 1.04371(18)
O10 O 1.0697(3) -0.17370(16) 1.27301(13)
O11 O 1.1337(3) -0.08873(17) 1.30980(13)
O12 O 0.8651(3) -0.18697(16) 1.45956(12)
O13 O 0.7797(3) -0.25710(18) 1.41648(13)
O14 O 1.3335(3) -0.50822(18) 1.57738(14)
O15 O 1.9401(3) -0.68205(16) 1.62427(13)
O16 O 1.8603(3) -0.76435(18) 1.59107(14)
N1 N -0.2348(4) 0.5115(3) 0.99176(17)
N2 N -0.0586(3) 0.5061(2) 0.92179(17)
N3 N -0.7112(3) 0.3157(2) 0.75691(16)
N4 N -0.8315(3) 0.2575(2) 0.72015(16)
N5 N -0.1321(3) 0.3833(2) 0.77335(19)
N6 N -0.0052(3) 0.4421(2) 0.80588(17)
N7 N 1.0986(3) -0.0913(2) 1.45084(16)
N8 N 1.2119(3) -0.0275(2) 1.48567(17)
Zn1A Zn -1.08616(5) 0.52772(3) 1.13893(2)
Zn2A Zn -1.91370(5) 1.22647(3) 0.66192(2)
Zn2_2 Zn -3.08630(5) 1.77353(3) 0.33808(2)
Zn2_3 Zn -0.08630(5) -0.22647(3) 1.33808(2)
Zn2_4 Zn -0.08630(5) 0.77353(3) 1.33808(2)
Zn2A_2 Zn -0.91370(5) 0.22647(3) 0.66192(2)
Zn2A_3 Zn -0.91370(5) 1.22647(3) 0.66192(2)
Zn2A_4 Zn 2.08630(5) -0.77353(3) 1.66192(2)
Zn3A Zn -2.01538(5) 1.12693(3) 0.60520(2)
Zn3_2 Zn -2.98462(5) 1.87307(3) 0.39480(2)
Zn3_3 Zn 0.01538(5) -0.12693(3) 1.39480(2)
Zn3A_2 Zn -1.01538(5) 1.12693(3) 0.60520(2)
Zn3A_3 Zn 1.98462(5) -0.87307(3) 1.60520(2)
Zn3A_4 Zn 1.98462(5) 0.12693(3) 1.60520(2)
C1A C -0.2108(4) -0.0486(3) 1.3362(2)
C2A C -0.3438(4) 0.0043(3) 1.3178(2)
C3A C -0.3884(5) 0.0753(3) 1.3287(2)
H1A H -0.3327 0.0936 1.3470
C4A C -0.5139(4) 0.1201(3) 1.3131(2)
H2A H -0.5427 0.1674 1.3215
C5A C -0.5958(4) 0.0939(3) 1.2848(2)
C6A C -0.5530(5) 0.0242(3) 1.2736(3)
H3A H -0.6087 0.0060 1.2552
C7A C -0.4269(5) -0.0204(3) 1.2895(3)
H4A H -0.3984 -0.0676 1.2809
C8A C -0.7954(5) 0.1164(3) 1.2355(3)
H5A H -0.7417 0.1181 1.1959
H6A H -0.8141 0.0617 1.2583
C9A C -0.9286(5) 0.1721(3) 1.2243(3)
C10A C -1.0112(5) 0.1968(3) 1.2692(3)
H7A H -0.9807 0.1840 1.3077
C11A C -1.1395(5) 0.2406(3) 1.2585(2)
H8A H -1.1932 0.2573 1.2898
C12A C -1.1897(5) 0.2603(3) 1.2022(2)
C13A C -1.1067(5) 0.2361(3) 1.1569(3)
H9A H -1.1380 0.2484 1.1187
C14A C -0.9766(5) 0.1936(3) 1.1669(2)
H10A H -0.9209 0.1794 1.1349
C15A C -1.3307(4) 0.3028(3) 1.1930(2)
C16A C -1.3769(4) 0.3737(3) 1.20477(19)
C17A C -1.5143(4) 0.4067(3) 1.2024(2)
H11A H -1.5453 0.4530 1.2122
C18A C -1.6052(5) 0.3721(4) 1.1859(3)
H12A H -1.6967 0.3951 1.1839
C19A C -1.5593(6) 0.3037(4) 1.1725(3)
H13A H -1.6199 0.2805 1.1606
C20A C -1.4241(5) 0.2681(3) 1.1762(3)
H14A H -1.3952 0.2209 1.1676
C21A C -1.2800(5) 0.4227(3) 1.2138(2)
C22A C -0.5143(5) 0.4865(4) 0.9772(2)
H15A H -0.4476 0.5036 0.9406
H16A H -0.5001 0.4282 0.9933
C23A C -0.6563(4) 0.5138(3) 0.9565(2)
H17A H -0.6625 0.4920 0.9249
H18A H -0.6700 0.5719 0.9378
C24A C -0.8597(5) 0.5359(3) 1.0311(2)
H19A H -0.8675 0.5917 1.0159
C25A C -0.8954(5) 0.4160(3) 1.0856(2)
H20A H -0.9334 0.3724 1.1155
C26A C -0.7861(5) 0.4114(3) 1.0430(2)
H21A H -0.7350 0.3648 1.0383
C27A C -0.1461(4) 0.7710(3) 1.2166(2)
H22A H -0.0888 0.8091 1.1928
C28A C -0.2191(4) 0.7359(3) 1.1937(2)
H23A H -0.2215 0.7453 1.1517
C29A C -0.2557(5) 0.6903(3) 1.2937(2)
H24A H -0.2899 0.6612 1.3342
C30A C -0.3845(4) 0.6322(3) 1.2422(2)
H25A H -0.3521 0.6125 1.2079
H26A H -0.3856 0.5863 1.2807
C31A C -0.5285(4) 0.6759(3) 1.2352(2)
H27A H -0.5620 0.6942 1.2702
H28A H -0.5270 0.7229 1.1973
C32A C -0.6261(4) 0.6229(2) 1.2323(2)
H29A H -0.6278 0.5758 1.2700
H30A H -0.5936 0.6050 1.1970
C33A C -0.7696(4) 0.6685(3) 1.2257(3)
H31A H -0.7684 0.7138 1.1867
H32A H -0.7994 0.6892 1.2596
C34A C -0.9064(4) 0.6106(3) 1.1769(2)
H33A H -0.8757 0.6392 1.1357
C35A C -1.0135(5) 0.5324(3) 1.2569(2)
H34A H -1.0718 0.4955 1.2823
C36A C -0.9359(5) 0.5679(4) 1.2775(3)
H35A H -0.9304 0.5602 1.3189
C37A C -1.2080(6) 0.6753(3) 1.0635(2)
C38A C -1.3290(5) 0.7322(3) 1.0350(2)
C39A C -1.3153(6) 0.8055(3) 0.9891(2)
H36A H -1.2289 0.8222 0.9764
C40A C -1.4271(6) 0.8554(3) 0.9613(2)
H37A H -1.4160 0.9049 0.9303
C41A C -1.5545(6) 0.8306(3) 0.9801(3)
C42A C -1.5710(5) 0.7577(3) 1.0268(3)
H38A H -1.6577 0.7417 1.0404
C43A C -1.4587(5) 0.7091(3) 1.0531(2)
H39A H -1.4700 0.6594 1.0838
C44A C -1.6652(6) 0.9505(3) 0.9091(3)
H40A H -1.6301 0.9853 0.9244
H41A H -1.6039 0.9454 0.8729
C45A C -1.8081(7) 0.9855(4) 0.8919(3)
C46A C -1.8919(8) 1.0334(4) 0.9214(3)
H42A H -1.8591 1.0456 0.9513
C47A C -2.0256(7) 1.0643(3) 0.9071(2)
H43A H -2.0823 1.0960 0.9279
C48A C -2.0737(6) 1.0471(3) 0.8613(2)
C49A C -1.9867(6) 0.9999(3) 0.8316(3)
H44A H -2.0176 0.9886 0.8008
C50A C -1.8548(6) 0.9688(3) 0.8464(3)
H45A H -1.7979 0.9368 0.8258
C51A C -2.2174(5) 1.0770(3) 0.8470(2)
C52A C -2.3249(7) 1.0737(3) 0.8946(3)
H46A H -2.3055 1.0562 0.9356
C53A C -2.4587(7) 1.0957(4) 0.8828(3)
H47A H -2.5284 1.0960 0.9153
C54A C -2.4904(6) 1.1170(3) 0.8238(3)
H48A H -2.5817 1.1281 0.8164
C55A C -2.3864(5) 1.1222(3) 0.7750(3)
H49A H -2.4082 1.1388 0.7345
C56A C -2.2490(4) 1.1028(3) 0.7858(2)
C57A C -2.1412(4) 1.1223(3) 0.7301(2)
C58A C 1.5496(4) 0.0250(3) 1.5033(2)
H50A H 1.5137 0.0428 1.5384
H51A H 1.5570 0.0722 1.4660
C59A C 1.6912(4) -0.0230(3) 1.5134(2)
H52A H 1.7240 -0.0446 1.4802
H53A H 1.6854 -0.0677 1.5527
C60A C 1.8135(4) 0.0394(3) 1.5643(2)
H54A H 1.7741 0.0142 1.6048
C61A C 1.9323(4) 0.1142(3) 1.4859(2)
H55A H 1.9912 0.1512 1.4617
C62A C 1.8634(4) 0.0743(3) 1.4638(2)
H56A H 1.8671 0.0784 1.4224
C63A C -1.7852(4) 1.2334(3) 0.5395(2)
C64A C -1.6846(4) 1.2596(2) 0.48272(19)
C65A C -1.7289(4) 1.3062(3) 0.4248(2)
C66A C -1.6325(5) 1.3248(3) 0.3726(2)
H57A H -1.6612 1.3554 0.3338
C67A C -1.4934(5) 1.2986(3) 0.3770(3)
H58A H -1.4299 1.3108 0.3413
C68A C -1.4503(5) 1.2547(3) 0.4342(3)
H59A H -1.3572 1.2380 0.4376
C69A C -1.5451(4) 1.2352(3) 0.4866(2)
H60A H -1.5151 1.2053 0.5253
C70A C -1.8768(4) 1.3401(3) 0.41992(19)
C71A C -1.9413(4) 1.3892(3) 0.4526(2)
H61A H -1.8917 1.4013 0.4774
C72A C -2.0789(4) 1.4214(3) 0.4495(2)
H62A H -2.1203 1.4546 0.4720
C73A C -2.1546(4) 1.4040(2) 0.41287(19)
C74A C -2.0902(5) 1.3550(3) 0.3802(2)
H63A H -2.1402 1.3424 0.3559
C75A C -1.9516(4) 1.3235(3) 0.3825(2)
H64A H -1.9096 1.2915 0.3591
C76A C -2.3045(4) 1.4348(3) 0.4105(2)
H65A H -2.3586 1.3956 0.4414
H66A H -2.3286 1.4437 0.3696
C77A C -2.4635(4) 1.5477(3) 0.42020(19)
C78A C -2.4838(4) 1.6204(3) 0.43016(19)
H67A H -2.4124 1.6365 0.4412
C79A C -2.6084(4) 1.6685(3) 0.42381(19)
H68A H -2.6195 1.7176 0.4295
C80A C -2.7188(4) 1.6448(3) 0.40899(18)
C81A C -2.6986(4) 1.5707(3) 0.40255(18)
H69A H -2.7720 1.5531 0.3943
C82A C -2.5729(4) 1.5209(3) 0.40783(19)
H70A H -2.5624 1.4712 0.4032
C83A C -2.8501(4) 1.7015(3) 0.39783(19)
O1A O -0.1815(3) -0.10904(19) 1.32032(14)
O1_2 O -1.8185(3) 1.10904(19) 0.67968(14)
O1A_2 O 0.8185(3) -0.10904(19) 1.32032(14)
O2A O -0.1386(3) -0.02975(17) 1.36641(14)
O2_2 O -1.8614(3) 1.02975(17) 0.63359(14)
O2A_2 O 0.8614(3) -0.02975(17) 1.36641(14)
O4A O -0.7194(3) 0.14062(18) 1.27092(16)
O5A O -1.1731(3) 0.43148(18) 1.17370(15)
O6A O -1.3085(4) 0.4503(2) 1.25517(16)
O7A O -1.2352(3) 0.6085(2) 1.10270(15)
O8A O -1.0909(4) 0.6941(2) 1.04708(19)
O9A O -1.6730(4) 0.8739(2) 0.95629(18)
O10A O -2.0697(3) 1.17370(16) 0.72699(13)
O11A O -2.1337(3) 1.08873(17) 0.69020(13)
O12A O -1.8651(3) 1.18697(16) 0.54044(12)
O13A O -1.7797(3) 1.25710(18) 0.58352(13)
O14A O -2.3335(3) 1.50822(18) 0.42262(14)
O15A O -2.9401(3) 1.68205(16) 0.37573(13)
O15_2 O -2.0599(3) 1.31795(16) 0.62427(13)
O15A_2 O 1.0599(3) -0.31795(16) 1.37573(13)
O16A O -2.8603(3) 1.76435(18) 0.40893(14)
O16_2 O -2.1397(3) 1.23565(18) 0.59107(14)
O16A_2 O 1.1397(3) -0.23565(18) 1.40893(14)
N1A N -0.7652(4) 0.4885(3) 1.00824(17)
N2A N -0.9414(3) 0.4939(2) 1.07821(17)
N3A N -0.2888(3) 0.6843(2) 1.24309(16)
N4A N -0.1685(3) 0.7425(2) 1.27985(16)
N4_2 N -1.8315(3) 1.2575(2) 0.72015(16)
N4A_2 N 0.8315(3) -0.2575(2) 1.27985(16)
N5A N -0.8679(3) 0.6167(2) 1.22665(19)
N6A N -0.9948(3) 0.5579(2) 1.19412(17)
N7A N 1.9014(3) 0.0913(2) 1.54916(16)
N7A_2 N -2.0986(3) 1.0913(2) 0.54916(16)
N8A N 1.7881(3) 0.0275(2) 1.51433(17)
O3 O 0.8832(8) 0.2334(5) 0.9871(5)
loop_
_geom_bond_atom_site_label_1
_geom_bond_atom_site_label_2
_geom_bond_site_symmetry_1
_geom_bond_site_symmetry_2
Zn1 O5 1_555 1_555
Zn2 O10 1_555 1_555
Zn3 O11 1_555 1_555
C1 C2 1_555 1_555
C2 C3 1_555 1_555
C3 H1 1_555 1_555
C4 C3 1_555 1_555
H2 C4 1_555 1_555
C5 C4 1_555 1_555
C6 C5 1_555 1_555
H3 C6 1_555 1_555
C7 C2 1_555 1_555
H4 C7 1_555 1_555
C8 H5 1_555 1_555
H6 C8 1_555 1_555
C9 C8 1_555 1_555
C10 C9 1_555 1_555
H7 C10 1_555 1_555
C11 C10 1_555 1_555
H8 C11 1_555 1_555
C12 C11 1_555 1_555
C13 C12 1_555 1_555
H9 C13 1_555 1_555
C14 C9 1_555 1_555
H10 C14 1_555 1_555
C15 C12 1_555 1_555
C16 C15 1_555 1_555
C17 C16 1_555 1_555
H11 C17 1_555 1_555
C18 C17 1_555 1_555
H12 C18 1_555 1_555
C19 C18 1_555 1_555
H13 C19 1_555 1_555
C20 C15 1_555 1_555
H14 C20 1_555 1_555
C21 C16 1_555 1_555
C22 H15 1_555 1_555
H16 C22 1_555 1_555
C23 C22 1_555 1_555
H17 C23 1_555 1_555
H18 C23 1_555 1_555
C24 H19 1_555 1_555
C25 H20 1_555 1_555
C26 C25 1_555 1_555
H21 C26 1_555 1_555
C27 H22 1_555 1_555
C28 C27 1_555 1_555
H23 C28 1_555 1_555
C29 H24 1_555 1_555
C30 H25 1_555 1_555
H26 C30 1_555 1_555
C31 C30 1_555 1_555
H27 C31 1_555 1_555
H28 C31 1_555 1_555
C32 C31 1_555 1_555
H29 C32 1_555 1_555
H30 C32 1_555 1_555
C33 C32 1_555 1_555
H31 C33 1_555 1_555
H32 C33 1_555 1_555
C34 H33 1_555 1_555
C35 H34 1_555 1_555
C36 C35 1_555 1_555
H35 C36 1_555 1_555
C37 C38 1_555 1_555
C38 C39 1_555 1_555
C39 H36 1_555 1_555
C40 C39 1_555 1_555
H37 C40 1_555 1_555
C41 C40 1_555 1_555
C42 C41 1_555 1_555
H38 C42 1_555 1_555
C43 C38 1_555 1_555
H39 C43 1_555 1_555
C44 H40 1_555 1_555
H41 C44 1_555 1_555
C45 C44 1_555 1_555
C46 C45 1_555 1_555
H42 C46 1_555 1_555
C47 C46 1_555 1_555
H43 C47 1_555 1_555
C48 C47 1_555 1_555
C49 C48 1_555 1_555
H44 C49 1_555 1_555
C50 C45 1_555 1_555
H45 C50 1_555 1_555
C51 C48 1_555 1_555
C52 C51 1_555 1_555
H46 C52 1_555 1_555
C53 C52 1_555 1_555
H47 C53 1_555 1_555
C54 C53 1_555 1_555
H48 C54 1_555 1_555
C55 C54 1_555 1_555
H49 C55 1_555 1_555
C56 C51 1_555 1_555
C57 C56 1_555 1_555
C58 H50 1_555 1_555
H51 C58 1_555 1_555
C59 C58 1_555 1_555
H52 C59 1_555 1_555
H53 C59 1_555 1_555
C60 H54 1_555 1_555
C61 H55 1_555 1_555
C62 C61 1_555 1_555
H56 C62 1_555 1_555
C63 C64 1_555 1_555
C64 C65 1_555 1_555
C65 C66 1_555 1_555
C66 H57 1_555 1_555
C67 C66 1_555 1_555
H58 C67 1_555 1_555
C68 C67 1_555 1_555
H59 C68 1_555 1_555
C69 C64 1_555 1_555
H60 C69 1_555 1_555
C70 C65 1_555 1_555
C71 C70 1_555 1_555
H61 C71 1_555 1_555
C72 C71 1_555 1_555
H62 C72 1_555 1_555
C73 C72 1_555 1_555
C74 C73 1_555 1_555
H63 C74 1_555 1_555
C75 C70 1_555 1_555
H64 C75 1_555 1_555
C76 C73 1_555 1_555
H65 C76 1_555 1_555
H66 C76 1_555 1_555
C77 C78 1_555 1_555
C78 H67 1_555 1_555
C79 C78 1_555 1_555
H68 C79 1_555 1_555
C80 C79 1_555 1_555
C81 C80 1_555 1_555
H69 C81 1_555 1_555
C82 C77 1_555 1_555
H70 C82 1_555 1_555
C83 C80 1_555 1_555
O1 C1 1_555 1_555
O2 C1 1_555 1_555
O4 C5 1_555 1_555
O5 C21 1_555 1_555
O6 C21 1_555 1_555
O7 Zn1 1_555 1_555
O8 C37 1_555 1_555
O9 C41 1_555 1_555
O10 C57 1_555 1_555
O11 C57 1_555 1_555
O12 Zn3 1_555 1_555
O13 Zn2 1_555 1_555
O14 C76 1_555 1_555
O15 C83 1_555 1_555
O16 C83 1_555 1_555
N1 C23 1_555 1_555
N2 Zn1 1_555 1_555
N3 C28 1_555 1_555
N4 C27 1_555 1_555
N5 C33 1_555 1_555
N6 Zn1 1_555 1_555
N7 Zn3 1_555 1_555
N8 C59 1_555 1_555
Zn1A O5A 1_555 1_555
Zn2A O1_2 1_555 1_555
Zn2_2 O15A 1_555 1_555
Zn2_3 O1A 1_555 1_555
Zn2_4 N4A 1_555 1_555
Zn2A_2 N4 1_555 1_555
Zn2A_3 O1 1_555 1_555
Zn2A_4 O15 1_555 1_555
Zn3A O2_2 1_555 1_555
Zn3_2 O16A 1_555 1_555
Zn3_3 O2A 1_555 1_555
Zn3A_2 O2 1_555 1_555
Zn3A_3 O16 1_555 1_555
Zn3A_4 N7A 1_555 1_555
C1A C2A 1_555 1_555
C2A C3A 1_555 1_555
C3A H1A 1_555 1_555
C4A C3A 1_555 1_555
H2A C4A 1_555 1_555
C5A C4A 1_555 1_555
C6A C5A 1_555 1_555
H3A C6A 1_555 1_555
C7A C2A 1_555 1_555
H4A C7A 1_555 1_555
C8A H5A 1_555 1_555
H6A C8A 1_555 1_555
C9A C8A 1_555 1_555
C10A C9A 1_555 1_555
H7A C10A 1_555 1_555
C11A C10A 1_555 1_555
H8A C11A 1_555 1_555
C12A C11A 1_555 1_555
C13A C12A 1_555 1_555
H9A C13A 1_555 1_555
C14A C9A 1_555 1_555
H10A C14A 1_555 1_555
C15A C12A 1_555 1_555
C16A C15A 1_555 1_555
C17A C16A 1_555 1_555
H11A C17A 1_555 1_555
C18A C17A 1_555 1_555
H12A C18A 1_555 1_555
C19A C18A 1_555 1_555
H13A C19A 1_555 1_555
C20A C15A 1_555 1_555
H14A C20A 1_555 1_555
C21A C16A 1_555 1_555
C22A C22 1_555 1_555
H15A C22A 1_555 1_555
H16A C22A 1_555 1_555
C23A C22A 1_555 1_555
H17A C23A 1_555 1_555
H18A C23A 1_555 1_555
C24A H19A 1_555 1_555
C25A H20A 1_555 1_555
C26A C25A 1_555 1_555
H21A C26A 1_555 1_555
C27A H22A 1_555 1_555
C28A C27A 1_555 1_555
H23A C28A 1_555 1_555
C29A H24A 1_555 1_555
C30A H25A 1_555 1_555
H26A C30A 1_555 1_555
C31A C30A 1_555 1_555
H27A C31A 1_555 1_555
H28A C31A 1_555 1_555
C32A C31A 1_555 1_555
H29A C32A 1_555 1_555
H30A C32A 1_555 1_555
C33A C32A 1_555 1_555
H31A C33A 1_555 1_555
H32A C33A 1_555 1_555
C34A H33A 1_555 1_555
C35A H34A 1_555 1_555
C36A C35A 1_555 1_555
H35A C36A 1_555 1_555
C37A C38A 1_555 1_555
C38A C39A 1_555 1_555
C39A H36A 1_555 1_555
C40A C39A 1_555 1_555
H37A C40A 1_555 1_555
C41A C40A 1_555 1_555
C42A C41A 1_555 1_555
H38A C42A 1_555 1_555
C43A C38A 1_555 1_555
H39A C43A 1_555 1_555
C44A H40A 1_555 1_555
H41A C44A 1_555 1_555
C45A C44A 1_555 1_555
C46A C45A 1_555 1_555
H42A C46A 1_555 1_555
C47A C46A 1_555 1_555
H43A C47A 1_555 1_555
C48A C47A 1_555 1_555
C49A C48A 1_555 1_555
H44A C49A 1_555 1_555
C50A C45A 1_555 1_555
H45A C50A 1_555 1_555
C51A C48A 1_555 1_555
C52A C51A 1_555 1_555
H46A C52A 1_555 1_555
C53A C52A 1_555 1_555
H47A C53A 1_555 1_555
C54A C53A 1_555 1_555
H48A C54A 1_555 1_555
C55A C54A 1_555 1_555
H49A C55A 1_555 1_555
C56A C51A 1_555 1_555
C57A C56A 1_555 1_555
C58A C58 1_555 1_555
H50A C58A 1_555 1_555
H51A C58A 1_555 1_555
C59A C58A 1_555 1_555
H52A C59A 1_555 1_555
H53A C59A 1_555 1_555
C60A H54A 1_555 1_555
C61A H55A 1_555 1_555
C62A C61A 1_555 1_555
H56A C62A 1_555 1_555
C63A C64A 1_555 1_555
C64A C65A 1_555 1_555
C65A C66A 1_555 1_555
C66A H57A 1_555 1_555
C67A C66A 1_555 1_555
H58A C67A 1_555 1_555
C68A C67A 1_555 1_555
H59A C68A 1_555 1_555
C69A C64A 1_555 1_555
H60A C69A 1_555 1_555
C70A C65A 1_555 1_555
C71A C70A 1_555 1_555
H61A C71A 1_555 1_555
C72A C71A 1_555 1_555
H62A C72A 1_555 1_555
C73A C72A 1_555 1_555
C74A C73A 1_555 1_555
H63A C74A 1_555 1_555
C75A C70A 1_555 1_555
H64A C75A 1_555 1_555
C76A C73A 1_555 1_555
H65A C76A 1_555 1_555
H66A C76A 1_555 1_555
C77A C78A 1_555 1_555
C78A H67A 1_555 1_555
C79A C78A 1_555 1_555
H68A C79A 1_555 1_555
C80A C79A 1_555 1_555
C81A C80A 1_555 1_555
H69A C81A 1_555 1_555
C82A C77A 1_555 1_555
H70A C82A 1_555 1_555
C83A C80A 1_555 1_555
O1A C1A 1_555 1_555
O1A_2 Zn2 1_555 1_555
O2A C1A 1_555 1_555
O2A_2 Zn3 1_555 1_555
O4A C5A 1_555 1_555
O5A C21A 1_555 1_555
O6A C21A 1_555 1_555
O7A Zn1A 1_555 1_555
O8A C37A 1_555 1_555
O9A C41A 1_555 1_555
O10A Zn2A 1_555 1_555
O11A Zn3A 1_555 1_555
O12A Zn3A 1_555 1_555
O13A Zn2A 1_555 1_555
O14A C76A 1_555 1_555
O15A C83A 1_555 1_555
O15_2 Zn2A 1_555 1_555
O15A_2 Zn2 1_555 1_555
O16A C83A 1_555 1_555
O16_2 Zn3A 1_555 1_555
O16A_2 Zn3 1_555 1_555
N1A C23A 1_555 1_555
N2A Zn1A 1_555 1_555
N3A C28A 1_555 1_555
N4A C27A 1_555 1_555
N4_2 Zn2A 1_555 1_555
N4A_2 Zn2 1_555 1_555
N5A C33A 1_555 1_555
N6A Zn1A 1_555 1_555
N7A C60A 1_555 1_555
N7A_2 Zn3A 1_555 1_555
N8A C59A 1_555 1_555
C6 C7 1_555 1_555
C8 O4 1_555 1_555
C13 C14 1_555 1_555
C19 C20 1_555 1_555
C24 N1 1_555 1_555
C24 N2 1_555 1_555
C25 N2 1_555 1_555
C26 N1 1_555 1_555
C29 N3 1_555 1_555
C29 N4 1_555 1_555
C30 N3 1_555 1_555
C34 N5 1_555 1_555
C34 N6 1_555 1_555
C35 N6 1_555 1_555
C36 N5 1_555 1_555
C37 O7 1_555 1_555
C42 C43 1_555 1_555
C44 O9 1_555 1_555
C49 C50 1_555 1_555
C55 C56 1_555 1_555
C60 N7 1_555 1_555
C60 N8 1_555 1_555
C61 N7 1_555 1_555
C62 N8 1_555 1_555
C63 O12 1_555 1_555
C63 O13 1_555 1_555
C68 C69 1_555 1_555
C74 C75 1_555 1_555
C77 O14 1_555 1_555
C81 C82 1_555 1_555
C6A C7A 1_555 1_555
C8A O4A 1_555 1_555
C13A C14A 1_555 1_555
C19A C20A 1_555 1_555
C24A N1A 1_555 1_555
C24A N2A 1_555 1_555
C25A N2A 1_555 1_555
C26A N1A 1_555 1_555
C29A N3A 1_555 1_555
C29A N4A 1_555 1_555
C30A N3A 1_555 1_555
C34A N5A 1_555 1_555
C34A N6A 1_555 1_555
C35A N6A 1_555 1_555
C36A N5A 1_555 1_555
C37A O7A 1_555 1_555
C42A C43A 1_555 1_555
C44A O9A 1_555 1_555
C49A C50A 1_555 1_555
C55A C56A 1_555 1_555
C57A O10A 1_555 1_555
C57A O11A 1_555 1_555
C60A N8A 1_555 1_555
C61A N7A 1_555 1_555
C62A N8A 1_555 1_555
C63A O12A 1_555 1_555
C63A O13A 1_555 1_555
C68A C69A 1_555 1_555
C74A C75A 1_555 1_555
C77A O14A 1_555 1_555
C81A C82A 1_555 1_555

#END
