
#######################################################################
#
#                 Cambridge Crystallographic Data Centre
#                                CCDC 
#
#######################################################################
#
# If this CIF has been generated from an entry in the Cambridge 
# Structural Database, then it will include bibliographic, chemical, 
# crystal, experimental, refinement or atomic coordinate data resulting 
# from the CCDC's data processing and validation procedures.
#
#######################################################################

data_HEDZAT
_symmetry_cell_setting           triclinic
_symmetry_space_group_name_H-M   'P -1'
_symmetry_Int_Tables_number      2
_space_group_name_Hall           '-P 1'
loop_
_symmetry_equiv_pos_site_id
_symmetry_equiv_pos_as_xyz
1 x,y,z
2 -x,-y,-z
_cell_length_a                   9.1606(8)
_cell_length_b                   9.5015(6)
_cell_length_c                   14.7655(8)
_cell_angle_alpha                81.070(5)
_cell_angle_beta                 74.801(6)
_cell_angle_gamma                67.517(7)
_cell_volume                     1143.78
loop_
_atom_site_label
_atom_site_type_symbol
_atom_site_fract_x
_atom_site_fract_y
_atom_site_fract_z
Cd1 Cd 0.74114(4) 0.56825(3) 1.39300(2)
C1 C 0.9922(6) -0.6305(4) 0.7062(3)
C2 C 0.8515(5) -0.6736(4) 0.7636(3)
C3 C 0.8136(6) -0.7762(5) 0.7248(3)
H1 H 0.8671 -0.8043 0.6638
C4 C 0.6997(6) -0.8374(5) 0.7736(3)
H2 H 0.6773 -0.9067 0.7464
C5 C 0.6191(6) -0.7944(5) 0.8636(3)
H3 H 0.5444 -0.8374 0.8986
C6 C 0.6497(6) -0.6877(5) 0.9012(3)
H4 H 0.5903 -0.6558 0.9606
C7 C 0.7665(5) -0.6254(4) 0.8537(3)
C8 C 0.7917(5) -0.5111(4) 0.9003(3)
C9 C 0.8234(5) -0.3858(4) 0.8503(3)
H5 H 0.8340 -0.3745 0.7855
C10 C 0.8395(5) -0.2779(4) 0.8957(3)
H6 H 0.8586 -0.1938 0.8608
C11 C 0.8279(5) -0.2917(4) 0.9917(3)
C12 C 0.7965(5) -0.4162(4) 1.0415(3)
H7 H 0.7881 -0.4284 1.1062
C13 C 0.7774(5) -0.5228(4) 0.9969(3)
H8 H 0.7544 -0.6047 1.0323
C14 C 0.8622(6) -0.1845(4) 1.0399(3)
H9 H 0.9016 -0.2361 1.0956
H10 H 0.9453 -0.1508 0.9982
C15 C 0.7225(6) 0.0427(4) 1.1230(3)
C16 C 0.8548(6) 0.0219(4) 1.1578(3)
H11 H 0.9506 -0.0604 1.1409
C17 C 0.8443(6) 0.1247(4) 1.2185(3)
H12 H 0.9339 0.1100 1.2423
C18 C 0.7037(5) 0.2488(4) 1.2446(3)
C19 C 0.5730(6) 0.2695(4) 1.2074(3)
H13 H 0.4783 0.3533 1.2232
C20 C 0.5801(6) 0.1680(4) 1.1472(3)
H14 H 0.4908 0.1831 1.1230
C21 C 0.7003(6) 0.3575(4) 1.3080(3)
C22 C 0.5461(6) 0.9270(5) 1.3578(3)
H15 H 0.6298 0.9339 1.3077
C23 C 0.4086(6) 1.0434(5) 1.3884(3)
H16 H 0.3802 1.1440 1.3637
C24 C 0.4051(6) 0.8377(5) 1.4734(3)
H17 H 0.3708 0.7712 1.5193
C25 C 0.1601(6) 1.0752(5) 1.5187(3)
H18 H 0.1528 1.1801 1.5171
H19 H 0.1522 1.0345 1.5835
C26 C 0.0185(6) 1.0730(4) 1.4844(3)
H20 H 0.0421 1.0847 1.4163
H21 H -0.0771 1.1595 1.5078
N1 N 0.5439(5) 0.7969(3) 1.4118(2)
N2 N 0.3186(5) 0.9865(4) 1.4623(2)
O1 O 0.9917(4) -0.5769(3) 0.62260(19)
O2 O 1.1111(4) -0.6579(3) 0.74142(19)
O3 O 0.7155(4) -0.0543(3) 1.0662(2)
O4 O 0.5712(4) 0.4664(3) 1.3375(2)
O5 O 0.8278(4) 0.3388(3) 1.3329(2)
O6 O 0.7260(5) 0.5105(5) 1.5483(2)
H22 H 0.814(4) 0.485(5) 1.571(3)
H23 H 0.639(4) 0.517(5) 1.593(3)
Cd1A Cd -0.74114(4) 1.43175(3) 1.60700(2)
Cd1_2 Cd -1.25886(4) 2.56825(3) 2.39300(2)
Cd1A_2 Cd 1.25886(4) -0.56825(3) 0.60700(2)
C1A C -0.9922(6) 2.6305(4) 2.2938(3)
C1_2 C -1.0078(6) 1.3695(4) 1.7062(3)
C1A_2 C 1.0078(6) 0.6305(4) 1.2938(3)
C2A C -0.8515(5) 2.6736(4) 2.2364(3)
C3A C -0.8136(6) 2.7762(5) 2.2752(3)
H1A H -0.8671 2.8043 2.3362
C4A C -0.6997(6) 2.8374(5) 2.2264(3)
H2A H -0.6773 2.9067 2.2536
C5A C -0.6191(6) 2.7944(5) 2.1364(3)
H3A H -0.5444 2.8374 2.1014
C6A C -0.6497(6) 2.6877(5) 2.0988(3)
H4A H -0.5903 2.6558 2.0394
C7A C -0.7665(5) 2.6254(4) 2.1463(3)
C8A C -0.7917(5) 2.5111(4) 2.0997(3)
C9A C -0.8234(5) 2.3858(4) 2.1497(3)
H5A H -0.8340 2.3745 2.2145
C10A C -0.8395(5) 2.2779(4) 2.1043(3)
H6A H -0.8586 2.1938 2.1392
C11A C -0.8279(5) 2.2917(4) 2.0083(3)
C12A C -0.7965(5) 2.4162(4) 1.9585(3)
H7A H -0.7881 2.4284 1.8938
C13A C -0.7774(5) 2.5228(4) 2.0031(3)
H8A H -0.7544 2.6047 1.9677
C14A C -0.8622(6) 2.1845(4) 1.9601(3)
H9A H -0.9016 2.2361 1.9044
H10A H -0.9453 2.1508 2.0018
C15A C -0.7225(6) 1.9573(4) 1.8770(3)
C16A C -0.8548(6) 1.9781(4) 1.8422(3)
H11A H -0.9506 2.0604 1.8591
C17A C -0.8443(6) 1.8753(4) 1.7815(3)
H12A H -0.9339 1.8900 1.7577
C18A C -0.7037(5) 1.7512(4) 1.7554(3)
C19A C -0.5730(6) 1.7305(4) 1.7926(3)
H13A H -0.4783 1.6467 1.7768
C20A C -0.5801(6) 1.8320(4) 1.8528(3)
H14A H -0.4908 1.8169 1.8770
C21A C -0.7003(6) 1.6425(4) 1.6920(3)
C22A C -0.5461(6) 1.0730(5) 1.6422(3)
H15A H -0.6298 1.0661 1.6923
C23A C -0.4086(6) 0.9566(5) 1.6116(3)
H16A H -0.3802 0.8560 1.6363
C24A C -0.4051(6) 1.1623(5) 1.5266(3)
H17A H -0.3708 1.2288 1.4807
C25A C -0.1601(6) 0.9248(5) 1.4813(3)
H18A H -0.1528 0.8199 1.4829
H19A H -0.1522 0.9655 1.4165
C26A C -0.0185(6) 0.9270(4) 1.5156(3)
H20A H -0.0421 0.9153 1.5837
H21A H 0.0771 0.8405 1.4922
N1A N -0.5439(5) 1.2031(3) 1.5882(2)
N2A N -0.3186(5) 1.0135(4) 1.5377(2)
O1A O -0.9917(4) 2.5769(3) 2.37740(19)
O1_2 O -1.0083(4) 1.4231(3) 1.62260(19)
O1A_2 O 1.0083(4) 0.5769(3) 1.37740(19)
O2A O -1.1111(4) 2.6579(3) 2.25858(19)
O2_2 O -0.8889(4) 1.3421(3) 1.74142(19)
O2A_2 O 0.8889(4) 0.6579(3) 1.25858(19)
O3A O -0.7155(4) 2.0543(3) 1.9338(2)
O4A O -0.5712(4) 1.5336(3) 1.6625(2)
O5A O -0.8278(4) 1.6612(3) 1.6671(2)
O6A O -0.7260(5) 1.4895(5) 1.4517(2)
H22A H -0.814(4) 1.515(5) 1.429(3)
H23A H -0.639(4) 1.483(5) 1.407(3)
loop_
_geom_bond_atom_site_label_1
_geom_bond_atom_site_label_2
_geom_bond_site_symmetry_1
_geom_bond_site_symmetry_2
Cd1 N1 1_555 1_555
C1 C2 1_555 1_555
C2 C3 1_555 1_555
C3 H1 1_555 1_555
C4 C3 1_555 1_555
H2 C4 1_555 1_555
C5 C4 1_555 1_555
H3 C5 1_555 1_555
C6 C5 1_555 1_555
H4 C6 1_555 1_555
C7 C2 1_555 1_555
C8 C7 1_555 1_555
C9 C8 1_555 1_555
H5 C9 1_555 1_555
C10 C9 1_555 1_555
H6 C10 1_555 1_555
C11 C10 1_555 1_555
C12 C11 1_555 1_555
H7 C12 1_555 1_555
C13 C8 1_555 1_555
H8 C13 1_555 1_555
C14 C11 1_555 1_555
H9 C14 1_555 1_555
H10 C14 1_555 1_555
C15 C16 1_555 1_555
C16 H11 1_555 1_555
C17 C16 1_555 1_555
H12 C17 1_555 1_555
C18 C17 1_555 1_555
C19 C18 1_555 1_555
H13 C19 1_555 1_555
C20 C15 1_555 1_555
H14 C20 1_555 1_555
C21 C18 1_555 1_555
C22 H15 1_555 1_555
C23 C22 1_555 1_555
H16 C23 1_555 1_555
C24 H17 1_555 1_555
C25 H18 1_555 1_555
H19 C25 1_555 1_555
C26 C25 1_555 1_555
H20 C26 1_555 1_555
H21 C26 1_555 1_555
N1 C22 1_555 1_555
N2 C23 1_555 1_555
O1 C1 1_555 1_555
O2 C1 1_555 1_555
O3 C14 1_555 1_555
O4 Cd1 1_555 1_555
O5 Cd1 1_555 1_555
O6 Cd1 1_555 1_555
H22 O6 1_555 1_555
H23 O6 1_555 1_555
Cd1A N1A 1_555 1_555
Cd1_2 O1A 1_555 1_555
Cd1A_2 O1 1_555 1_555
C1A C2A 1_555 1_555
C1_2 O1_2 1_555 1_555
C1A_2 O1A_2 1_555 1_555
C2A C3A 1_555 1_555
C3A H1A 1_555 1_555
C4A C3A 1_555 1_555
H2A C4A 1_555 1_555
C5A C4A 1_555 1_555
H3A C5A 1_555 1_555
C6A C5A 1_555 1_555
H4A C6A 1_555 1_555
C7A C2A 1_555 1_555
C8A C7A 1_555 1_555
C9A C8A 1_555 1_555
H5A C9A 1_555 1_555
C10A C9A 1_555 1_555
H6A C10A 1_555 1_555
C11A C10A 1_555 1_555
C12A C11A 1_555 1_555
H7A C12A 1_555 1_555
C13A C8A 1_555 1_555
H8A C13A 1_555 1_555
C14A C11A 1_555 1_555
H9A C14A 1_555 1_555
H10A C14A 1_555 1_555
C15A C16A 1_555 1_555
C16A H11A 1_555 1_555
C17A C16A 1_555 1_555
H12A C17A 1_555 1_555
C18A C17A 1_555 1_555
C19A C18A 1_555 1_555
H13A C19A 1_555 1_555
C20A C15A 1_555 1_555
H14A C20A 1_555 1_555
C21A C18A 1_555 1_555
C22A H15A 1_555 1_555
C23A C22A 1_555 1_555
H16A C23A 1_555 1_555
C24A H17A 1_555 1_555
C25A H18A 1_555 1_555
H19A C25A 1_555 1_555
C26A C26 1_555 1_555
H20A C26A 1_555 1_555
H21A C26A 1_555 1_555
N1A C22A 1_555 1_555
N2A C23A 1_555 1_555
O1A C1A 1_555 1_555
O1_2 Cd1A 1_555 1_555
O1A_2 Cd1 1_555 1_555
O2A Cd1_2 1_555 1_555
O2_2 Cd1A 1_555 1_555
O2A_2 Cd1 1_555 1_555
O3A C14A 1_555 1_555
O4A Cd1A 1_555 1_555
O5A Cd1A 1_555 1_555
O6A Cd1A 1_555 1_555
H22A O6A 1_555 1_555
H23A O6A 1_555 1_555
C6 C7 1_555 1_555
C12 C13 1_555 1_555
C15 O3 1_555 1_555
C19 C20 1_555 1_555
C21 O4 1_555 1_555
C21 O5 1_555 1_555
C24 N1 1_555 1_555
C24 N2 1_555 1_555
C25 N2 1_555 1_555
O2 Cd1A_2 1_555 1_555
C1A O2A 1_555 1_555
C1_2 O2_2 1_555 1_555
C1A_2 O2A_2 1_555 1_555
C6A C7A 1_555 1_555
C12A C13A 1_555 1_555
C15A O3A 1_555 1_555
C19A C20A 1_555 1_555
C21A O4A 1_555 1_555
C21A O5A 1_555 1_555
C24A N1A 1_555 1_555
C24A N2A 1_555 1_555
C25A C26A 1_555 1_555
C25A N2A 1_555 1_555

#END
