
#######################################################################
#
#                 Cambridge Crystallographic Data Centre
#                                CCDC 
#
#######################################################################
#
# If this CIF has been generated from an entry in the Cambridge 
# Structural Database, then it will include bibliographic, chemical, 
# crystal, experimental, refinement or atomic coordinate data resulting 
# from the CCDC's data processing and validation procedures.
#
#######################################################################

data_HEDZUN
_symmetry_cell_setting           monoclinic
_symmetry_space_group_name_H-M   'P 21/c'
_symmetry_Int_Tables_number      14
_space_group_name_Hall           '-P 2ybc'
loop_
_symmetry_equiv_pos_site_id
_symmetry_equiv_pos_as_xyz
1 x,y,z
2 -x,1/2+y,1/2-z
3 -x,-y,-z
4 x,1/2-y,1/2+z
_cell_length_a                   7.188(4)
_cell_length_b                   22.2960(12)
_cell_length_c                   17.6930(13)
_cell_angle_alpha                90
_cell_angle_beta                 99.137(6)
_cell_angle_gamma                90
_cell_volume                     2799.57
loop_
_atom_site_label
_atom_site_type_symbol
_atom_site_fract_x
_atom_site_fract_y
_atom_site_fract_z
Ni1 Ni -0.47777(6) 0.168546(19) 0.91729(3)
C1 C 0.2879(5) -0.23867(15) 0.58332(19)
C2 C 0.1553(4) -0.18897(14) 0.59269(18)
C3 C 0.2118(5) -0.12986(15) 0.60106(19)
H1 H 0.3381 -0.1203 0.6022
C4 C 0.0839(5) -0.08447(15) 0.6078(2)
H2 H 0.1235 -0.0447 0.6125
C5 C -0.1038(5) -0.09895(15) 0.60739(19)
C6 C -0.1613(4) -0.15784(15) 0.59984(19)
H3 H -0.2871 -0.1675 0.6000
C7 C -0.0346(4) -0.20196(14) 0.59219(18)
H4 H -0.0755 -0.2415 0.5865
C8 C -0.2167(5) 0.00220(15) 0.6076(2)
H5 H -0.1920 0.0107 0.5564
H6 H -0.1093 0.0156 0.6440
C9 C -0.3923(5) 0.03441(15) 0.6217(2)
C10 C -0.4823(5) 0.07436(16) 0.5695(2)
H7 H -0.4409 0.0791 0.5226
C11 C -0.6342(5) 0.10783(16) 0.5853(2)
H8 H -0.6903 0.1356 0.5496
C12 C -0.7033(4) 0.10075(14) 0.65302(19)
C13 C -0.6169(5) 0.05839(15) 0.7041(2)
H9 H -0.6634 0.0517 0.7495
C14 C -0.4637(5) 0.02600(15) 0.6893(2)
H10 H -0.4074 -0.0018 0.7249
C15 C -0.8691(4) 0.13560(14) 0.6695(2)
C16 C -1.0146(5) 0.14772(15) 0.6096(2)
H11 H -1.0023 0.1360 0.5602
C17 C -1.1767(5) 0.17672(16) 0.6219(2)
H12 H -1.2688 0.1866 0.5807
C18 C -1.2018(5) 0.19105(16) 0.6952(2)
H13 H -1.3152 0.2075 0.7041
C19 C -1.0586(4) 0.18095(14) 0.7552(2)
H14 H -1.0749 0.1913 0.8046
C20 C -0.8892(4) 0.15530(14) 0.74274(19)
C21 C -0.7293(5) 0.15725(14) 0.8077(2)
C22 C -0.1843(5) 0.07736(15) 0.9008(2)
H15 H -0.1006 0.1080 0.8942
C23 C -0.3004(5) -0.01189(16) 0.9110(2)
H16 H -0.3146 -0.0533 0.9130
C24 C -0.4306(5) 0.03002(15) 0.9195(2)
H17 H -0.5523 0.0219 0.9284
C25 C 0.0386(5) -0.00588(17) 0.8868(2)
H18 H 0.1003 -0.0240 0.9340
H19 H 0.1180 0.0266 0.8739
C26 C 0.0192(5) -0.05165(17) 0.8246(2)
H20 H -0.0650 -0.0370 0.7801
H21 H 0.1411 -0.0595 0.8097
C27 C -0.1228(6) -0.14540(17) 0.7925(2)
H22 H -0.0225 -0.1564 0.7644
H23 H -0.2232 -0.1268 0.7572
C28 C -0.1954(6) -0.19999(17) 0.8273(2)
H24 H -0.2439 -0.2279 0.7870
H25 H -0.0921 -0.2194 0.8603
C29 C -0.3245(5) -0.18309(15) 0.9479(2)
H26 H -0.2114 -0.1901 0.9803
C30 C -0.6099(5) -0.16190(18) 0.9070(2)
H27 H -0.7357 -0.1514 0.9054
C31 C -0.5264(6) -0.17205(19) 0.8449(2)
H28 H -0.5826 -0.1699 0.7939
O1 O 0.2215(3) -0.29130(10) 0.57221(13)
O2 O 0.4612(3) -0.22943(10) 0.58690(15)
O3 O -0.2452(3) -0.05956(10) 0.61626(15)
O4 O -0.5698(3) 0.17479(10) 0.79682(13)
O5 O -0.7569(3) 0.14368(10) 0.87503(13)
O6 O -0.0539(3) -0.10481(11) 0.85207(15)
N1 N -0.3581(4) 0.08588(12) 0.91340(16)
N2 N -0.1436(4) 0.01873(13) 0.89880(17)
N3 N -0.3443(5) -0.18593(13) 0.87199(18)
N4 N -0.4838(4) -0.16921(12) 0.97198(16)
Ni1B Ni -0.52223(6) -0.168546(19) 1.08271(3)
Ni1A Ni 0.47777(6) -0.331454(19) 0.58271(3)
Ni1C Ni -1.47777(6) 0.331454(19) 1.41729(3)
C1B C -1.2879(5) 0.23867(15) 1.41668(19)
C1A C -0.2879(5) 0.26133(15) 0.91668(19)
C1C C -0.7121(5) -0.26133(15) 1.08332(19)
C2B C -1.1553(4) 0.18897(14) 1.40731(18)
C3B C -1.2118(5) 0.12986(15) 1.39894(19)
H1B H -1.3381 0.1203 1.3978
C4B C -1.0839(5) 0.08447(15) 1.3922(2)
H2B H -1.1235 0.0447 1.3875
C5B C -0.8962(5) 0.09895(15) 1.39261(19)
C6B C -0.8387(4) 0.15784(15) 1.40016(19)
H3B H -0.7129 0.1675 1.4000
C7B C -0.9654(4) 0.20196(14) 1.40781(18)
H4B H -0.9245 0.2415 1.4135
C8B C -0.7833(5) -0.00220(15) 1.3924(2)
H5B H -0.8080 -0.0107 1.4436
H6B H -0.8907 -0.0156 1.3560
C9B C -0.6077(5) -0.03441(15) 1.3783(2)
C10B C -0.5177(5) -0.07436(16) 1.4305(2)
H7B H -0.5591 -0.0791 1.4774
C11B C -0.3658(5) -0.10783(16) 1.4147(2)
H8B H -0.3097 -0.1356 1.4504
C12B C -0.2967(4) -0.10075(14) 1.34698(19)
C13B C -0.3831(5) -0.05839(15) 1.2959(2)
H9B H -0.3366 -0.0517 1.2505
C14B C -0.5363(5) -0.02600(15) 1.3107(2)
H10B H -0.5926 0.0018 1.2751
C15B C -0.1309(4) -0.13560(14) 1.3305(2)
C16B C 0.0146(5) -0.14772(15) 1.3904(2)
H11B H 0.0023 -0.1360 1.4398
C17B C 0.1767(5) -0.17672(16) 1.3781(2)
H12B H 0.2688 -0.1866 1.4193
C18B C 0.2018(5) -0.19105(16) 1.3048(2)
H13B H 0.3152 -0.2075 1.2959
C19B C 0.0586(4) -0.18095(14) 1.2448(2)
H14B H 0.0749 -0.1913 1.1954
C20B C -0.1108(4) -0.15530(14) 1.25726(19)
C21B C -0.2707(5) -0.15725(14) 1.1923(2)
C22B C -0.8157(5) -0.07736(15) 1.0992(2)
H15B H -0.8994 -0.1080 1.1058
C23B C -0.6996(5) 0.01189(16) 1.0890(2)
H16B H -0.6854 0.0533 1.0870
C24B C -0.5694(5) -0.03002(15) 1.0805(2)
H17B H -0.4477 -0.0219 1.0716
C25B C -1.0386(5) 0.00588(17) 1.1132(2)
H18B H -1.1003 0.0240 1.0660
H19B H -1.1180 -0.0266 1.1261
C26B C -1.0192(5) 0.05165(17) 1.1754(2)
H20B H -0.9350 0.0370 1.2199
H21B H -1.1411 0.0595 1.1903
C27B C -0.8772(6) 0.14540(17) 1.2075(2)
H22B H -0.9775 0.1564 1.2356
H23B H -0.7768 0.1268 1.2428
C28B C -0.8046(6) 0.19999(17) 1.1727(2)
H24B H -0.7561 0.2279 1.2130
H25B H -0.9079 0.2194 1.1397
C29B C -0.6755(5) 0.18309(15) 1.0521(2)
H26B H -0.7886 0.1901 1.0197
C30B C -0.3901(5) 0.16190(18) 1.0930(2)
H27B H -0.2643 0.1514 1.0946
C31B C -0.4736(6) 0.17205(19) 1.1551(2)
H28B H -0.4174 0.1699 1.2061
O1B O -1.2215(3) 0.29130(10) 1.42779(13)
O1A O -0.2215(3) 0.20870(10) 0.92779(13)
O1C O -0.7785(3) -0.20870(10) 1.07221(13)
O2B O -1.4612(3) 0.22943(10) 1.41310(15)
O2A O -0.4612(3) 0.27057(10) 0.91310(15)
O2C O -0.5388(3) -0.27057(10) 1.08690(15)
O3B O -0.7548(3) 0.05956(10) 1.38374(15)
O4B O -0.4302(3) -0.17479(10) 1.20318(13)
O5B O -0.2431(3) -0.14368(10) 1.12497(13)
O6B O -0.9461(3) 0.10481(11) 1.14793(15)
N1B N -0.6419(4) -0.08588(12) 1.08660(16)
N2B N -0.8564(4) -0.01873(13) 1.10120(17)
N3B N -0.6557(5) 0.18593(13) 1.12801(18)
N4B N -0.5162(4) 0.16921(12) 1.02802(16)
loop_
_geom_bond_atom_site_label_1
_geom_bond_atom_site_label_2
_geom_bond_site_symmetry_1
_geom_bond_site_symmetry_2
Ni1 O4 1_555 1_555
C1 C2 1_555 1_555
C2 C3 1_555 1_555
C3 H1 1_555 1_555
C4 C3 1_555 1_555
H2 C4 1_555 1_555
C5 C4 1_555 1_555
C6 C5 1_555 1_555
H3 C6 1_555 1_555
C7 C2 1_555 1_555
H4 C7 1_555 1_555
C8 H5 1_555 1_555
H6 C8 1_555 1_555
C9 C8 1_555 1_555
C10 C9 1_555 1_555
H7 C10 1_555 1_555
C11 C10 1_555 1_555
H8 C11 1_555 1_555
C12 C11 1_555 1_555
C13 C12 1_555 1_555
H9 C13 1_555 1_555
C14 C9 1_555 1_555
H10 C14 1_555 1_555
C15 C12 1_555 1_555
C16 C15 1_555 1_555
H11 C16 1_555 1_555
C17 C16 1_555 1_555
H12 C17 1_555 1_555
C18 C17 1_555 1_555
H13 C18 1_555 1_555
C19 C18 1_555 1_555
H14 C19 1_555 1_555
C20 C15 1_555 1_555
C21 C20 1_555 1_555
C22 H15 1_555 1_555
C23 H16 1_555 1_555
C24 C23 1_555 1_555
H17 C24 1_555 1_555
C25 H18 1_555 1_555
H19 C25 1_555 1_555
C26 C25 1_555 1_555
H20 C26 1_555 1_555
H21 C26 1_555 1_555
C27 H22 1_555 1_555
H23 C27 1_555 1_555
C28 C27 1_555 1_555
H24 C28 1_555 1_555
H25 C28 1_555 1_555
C29 H26 1_555 1_555
C30 H27 1_555 1_555
C31 C30 1_555 1_555
H28 C31 1_555 1_555
O1 C1 1_555 1_555
O2 C1 1_555 1_555
O3 C5 1_555 1_555
O4 C21 1_555 1_555
O5 Ni1 1_555 1_555
O6 C26 1_555 1_555
N1 Ni1 1_555 1_555
N2 C22 1_555 1_555
N3 C28 1_555 1_555
N4 C29 1_555 1_555
Ni1B N4 1_555 1_555
Ni1A O1 1_555 1_555
Ni1C O1B 1_555 1_555
C1B C2B 1_555 1_555
C1A O1A 1_555 1_555
C1C O1C 1_555 1_555
C2B C3B 1_555 1_555
C3B H1B 1_555 1_555
C4B C3B 1_555 1_555
H2B C4B 1_555 1_555
C5B C4B 1_555 1_555
C6B C5B 1_555 1_555
H3B C6B 1_555 1_555
C7B C2B 1_555 1_555
H4B C7B 1_555 1_555
C8B H5B 1_555 1_555
H6B C8B 1_555 1_555
C9B C8B 1_555 1_555
C10B C9B 1_555 1_555
H7B C10B 1_555 1_555
C11B C10B 1_555 1_555
H8B C11B 1_555 1_555
C12B C11B 1_555 1_555
C13B C12B 1_555 1_555
H9B C13B 1_555 1_555
C14B C9B 1_555 1_555
H10B C14B 1_555 1_555
C15B C12B 1_555 1_555
C16B C15B 1_555 1_555
H11B C16B 1_555 1_555
C17B C16B 1_555 1_555
H12B C17B 1_555 1_555
C18B C17B 1_555 1_555
H13B C18B 1_555 1_555
C19B C18B 1_555 1_555
H14B C19B 1_555 1_555
C20B C15B 1_555 1_555
C21B C20B 1_555 1_555
C22B H15B 1_555 1_555
C23B H16B 1_555 1_555
C24B C23B 1_555 1_555
H17B C24B 1_555 1_555
C25B H18B 1_555 1_555
H19B C25B 1_555 1_555
C26B C25B 1_555 1_555
H20B C26B 1_555 1_555
H21B C26B 1_555 1_555
C27B H22B 1_555 1_555
H23B C27B 1_555 1_555
C28B C27B 1_555 1_555
H24B C28B 1_555 1_555
H25B C28B 1_555 1_555
C29B H26B 1_555 1_555
C30B H27B 1_555 1_555
C31B C30B 1_555 1_555
H28B C31B 1_555 1_555
O1B C1B 1_555 1_555
O1A Ni1 1_555 1_555
O1C Ni1B 1_555 1_555
O2B Ni1C 1_555 1_555
O2A Ni1 1_555 1_555
O2C Ni1B 1_555 1_555
O3B C5B 1_555 1_555
O4B Ni1B 1_555 1_555
O5B Ni1B 1_555 1_555
O6B C26B 1_555 1_555
N1B Ni1B 1_555 1_555
N2B C22B 1_555 1_555
N3B C28B 1_555 1_555
N4B Ni1 1_555 1_555
C6 C7 1_555 1_555
C8 O3 1_555 1_555
C13 C14 1_555 1_555
C19 C20 1_555 1_555
C21 O5 1_555 1_555
C22 N1 1_555 1_555
C23 N2 1_555 1_555
C24 N1 1_555 1_555
C25 N2 1_555 1_555
C27 O6 1_555 1_555
C29 N3 1_555 1_555
C30 N4 1_555 1_555
C31 N3 1_555 1_555
O2 Ni1A 1_555 1_555
C1B O2B 1_555 1_555
C1A O2A 1_555 1_555
C1C O2C 1_555 1_555
C6B C7B 1_555 1_555
C8B O3B 1_555 1_555
C13B C14B 1_555 1_555
C19B C20B 1_555 1_555
C21B O4B 1_555 1_555
C21B O5B 1_555 1_555
C22B N1B 1_555 1_555
C23B N2B 1_555 1_555
C24B N1B 1_555 1_555
C25B N2B 1_555 1_555
C27B O6B 1_555 1_555
C29B N3B 1_555 1_555
C29B N4B 1_555 1_555
C30B N4B 1_555 1_555
C31B N3B 1_555 1_555

#END
