
#######################################################################
#
#                 Cambridge Crystallographic Data Centre
#                                CCDC 
#
#######################################################################
#
# If this CIF has been generated from an entry in the Cambridge 
# Structural Database, then it will include bibliographic, chemical, 
# crystal, experimental, refinement or atomic coordinate data resulting 
# from the CCDC's data processing and validation procedures.
#
#######################################################################

data_HEDZEX
_symmetry_cell_setting           monoclinic
_symmetry_space_group_name_H-M   'P 21/c'
_symmetry_Int_Tables_number      14
_space_group_name_Hall           '-P 2ybc'
loop_
_symmetry_equiv_pos_site_id
_symmetry_equiv_pos_as_xyz
1 x,y,z
2 -x,1/2+y,1/2-z
3 -x,-y,-z
4 x,1/2-y,1/2+z
_cell_length_a                   7.8510(3)
_cell_length_b                   21.5990(7)
_cell_length_c                   17.1440(7)
_cell_angle_alpha                90
_cell_angle_beta                 101.739(4)
_cell_angle_gamma                90
_cell_volume                     2846.37
loop_
_atom_site_label
_atom_site_type_symbol
_atom_site_fract_x
_atom_site_fract_y
_atom_site_fract_z
Zn1 Zn -0.04693(5) 0.167785(16) 0.09616(2)
C1 C -0.7888(4) -0.22518(16) 0.3888(2)
C2 C -0.6442(4) -0.18116(13) 0.38559(18)
C3 C -0.6720(4) -0.11785(14) 0.3806(2)
H1 H -0.7839 -0.1027 0.3780
C4 C -0.5383(4) -0.07674(14) 0.37936(19)
H2 H -0.5598 -0.0344 0.3767
C5 C -0.3711(4) -0.09911(14) 0.38214(19)
C6 C -0.3403(4) -0.16242(14) 0.38780(19)
H3 H -0.2286 -0.1777 0.3902
C7 C -0.4750(4) -0.20230(14) 0.38983(18)
H4 H -0.4528 -0.2446 0.3942
C8 C -0.2449(4) 0.00188(15) 0.3852(2)
H5 H -0.2679 0.0124 0.4371
H6 H -0.3404 0.0172 0.3448
C9 C -0.0773(4) 0.03090(14) 0.3749(2)
C10 C -0.0092(4) 0.01875(15) 0.3083(2)
H7 H -0.0638 -0.0101 0.2713
C11 C 0.1382(4) 0.04852(14) 0.2957(2)
H8 H 0.1827 0.0388 0.2510
C12 C 0.2212(4) 0.09279(13) 0.34895(18)
C13 C 0.1529(4) 0.10429(15) 0.41584(19)
H9 H 0.2062 0.1336 0.4526
C14 C 0.0072(4) 0.07333(16) 0.4295(2)
H10 H -0.0338 0.0812 0.4758
C15 C 0.3823(4) 0.12494(13) 0.33820(19)
C16 C 0.4115(4) 0.14336(13) 0.26341(19)
C17 C 0.5718(4) 0.16910(15) 0.2585(2)
H11 H 0.5937 0.1796 0.2089
C18 C 0.6981(4) 0.17938(16) 0.3255(2)
H12 H 0.8045 0.1963 0.3209
C19 C 0.6669(4) 0.16462(17) 0.3992(2)
H13 H 0.7493 0.1736 0.4450
C20 C 0.5127(4) 0.13643(15) 0.4046(2)
H14 H 0.4949 0.1246 0.4545
C21 C 0.2741(4) 0.14167(14) 0.1886(2)
C22 C -0.1164(6) 0.1690(2) -0.0833(2)
H15 H -0.2314 0.1568 -0.0870
C23 C -0.0423(7) 0.1813(2) -0.1452(3)
H16 H -0.0939 0.1780 -0.1989
C24 C 0.1434(6) 0.19429(17) -0.0359(2)
H17 H 0.2476 0.2022 -0.0005
C25 C 0.2601(9) 0.2188(2) -0.1566(3)
H18 H 0.2108 0.2482 -0.1979
H19 H 0.3510 0.2400 -0.1194
C26 C 0.3375(8) 0.1683(2) -0.1929(3)
H20 H 0.2494 0.1484 -0.2330
H21 H 0.4273 0.1842 -0.2188
C27 C 0.4734(6) 0.0733(2) -0.1694(3)
H22 H 0.5803 0.0840 -0.1862
H23 H 0.3888 0.0602 -0.2158
C28 C 0.5057(5) 0.0231(2) -0.1106(3)
H24 H 0.5655 0.0398 -0.0598
H25 H 0.5813 -0.0074 -0.1275
C29 C 0.1969(5) 0.01909(17) -0.0836(2)
H26 H 0.1789 0.0610 -0.0759
N1 N 0.1569(3) -0.08214(11) -0.09374(16)
C30 C 0.3142(5) -0.06818(16) -0.1058(2)
H27 H 0.3936 -0.0971 -0.1170
O1 O -0.9367(3) -0.20620(12) 0.3864(2)
O2 O -0.7497(3) -0.28237(10) 0.39662(14)
O3 O -0.2304(3) -0.06347(9) 0.37839(14)
O4 O 0.1363(3) 0.17166(10) 0.19069(13)
O5 O 0.3012(3) 0.11377(12) 0.12960(15)
O6 O 0.4105(4) 0.12455(13) -0.13446(18)
N2 N 0.0019(4) 0.17691(12) -0.01391(16)
N3 N 0.1230(6) 0.19960(14) -0.1143(2)
N4 N 0.3439(4) -0.00759(13) -0.09985(18)
C31 C 0.0842(4) -0.02695(15) -0.0810(2)
H28 H -0.0277 -0.0219 -0.0718
Zn1B Zn 0.04693(5) -0.167785(16) -0.09616(2)
Zn1A Zn -0.95307(5) -0.332215(16) 0.40384(2)
Zn1C Zn 0.95307(5) 0.332215(16) -0.40384(2)
C1B C 0.7888(4) 0.22518(16) -0.3888(2)
C2B C 0.6442(4) 0.18116(13) -0.38559(18)
C3B C 0.6720(4) 0.11785(14) -0.3806(2)
H1B H 0.7839 0.1027 -0.3780
C4B C 0.5383(4) 0.07674(14) -0.37936(19)
H2B H 0.5598 0.0344 -0.3767
C5B C 0.3711(4) 0.09911(14) -0.38214(19)
C6B C 0.3403(4) 0.16242(14) -0.38780(19)
H3B H 0.2286 0.1777 -0.3902
C7B C 0.4750(4) 0.20230(14) -0.38983(18)
H4B H 0.4528 0.2446 -0.3942
C8B C 0.2449(4) -0.00188(15) -0.3852(2)
H5B H 0.2679 -0.0124 -0.4371
H6B H 0.3404 -0.0172 -0.3448
C9B C 0.0773(4) -0.03090(14) -0.3749(2)
C10B C 0.0092(4) -0.01875(15) -0.3083(2)
H7B H 0.0638 0.0101 -0.2713
C11B C -0.1382(4) -0.04852(14) -0.2957(2)
H8B H -0.1827 -0.0388 -0.2510
C12B C -0.2212(4) -0.09279(13) -0.34895(18)
C13B C -0.1529(4) -0.10429(15) -0.41584(19)
H9B H -0.2062 -0.1336 -0.4526
C14B C -0.0072(4) -0.07333(16) -0.4295(2)
H10B H 0.0338 -0.0812 -0.4758
C15B C -0.3823(4) -0.12494(13) -0.33820(19)
C16B C -0.4115(4) -0.14336(13) -0.26341(19)
C17B C -0.5718(4) -0.16910(15) -0.2585(2)
H11B H -0.5937 -0.1796 -0.2089
C18B C -0.6981(4) -0.17938(16) -0.3255(2)
H12B H -0.8045 -0.1963 -0.3209
C19B C -0.6669(4) -0.16462(17) -0.3992(2)
H13B H -0.7493 -0.1736 -0.4450
C20B C -0.5127(4) -0.13643(15) -0.4046(2)
H14B H -0.4949 -0.1246 -0.4545
C21B C -0.2741(4) -0.14167(14) -0.1886(2)
C22B C 0.1164(6) -0.1690(2) 0.0833(2)
H15B H 0.2314 -0.1568 0.0870
C23B C 0.0423(7) -0.1813(2) 0.1452(3)
H16B H 0.0939 -0.1780 0.1989
C24B C -0.1434(6) -0.19429(17) 0.0359(2)
H17B H -0.2476 -0.2022 0.0005
C25B C -0.2601(9) -0.2188(2) 0.1566(3)
H18B H -0.2108 -0.2482 0.1979
H19B H -0.3510 -0.2400 0.1194
C26B C -0.3375(8) -0.1683(2) 0.1929(3)
H20B H -0.2494 -0.1484 0.2330
H21B H -0.4273 -0.1842 0.2188
C27B C -0.4734(6) -0.0733(2) 0.1694(3)
H22B H -0.5803 -0.0840 0.1862
H23B H -0.3888 -0.0602 0.2158
C28B C -0.5057(5) -0.0231(2) 0.1106(3)
H24B H -0.5655 -0.0398 0.0598
H25B H -0.5813 0.0074 0.1275
C29B C -0.1969(5) -0.01909(17) 0.0836(2)
H26B H -0.1789 -0.0610 0.0759
N1B N -0.1569(3) 0.08214(11) 0.09374(16)
C30B C -0.3142(5) 0.06818(16) 0.1058(2)
H27B H -0.3936 0.0971 0.1170
O1B O 0.9367(3) 0.20620(12) -0.3864(2)
O2B O 0.7497(3) 0.28237(10) -0.39662(14)
O2A O -0.2503(3) 0.21763(10) 0.10338(14)
O2C O 0.2503(3) -0.21763(10) -0.10338(14)
O3B O 0.2304(3) 0.06347(9) -0.37839(14)
O4B O -0.1363(3) -0.17166(10) -0.19069(13)
O5B O -0.3012(3) -0.11377(12) -0.12960(15)
O6B O -0.4105(4) -0.12455(13) 0.13446(18)
N2B N -0.0019(4) -0.17691(12) 0.01391(16)
N3B N -0.1230(6) -0.19960(14) 0.1143(2)
N4B N -0.3439(4) 0.00759(13) 0.09985(18)
C31B C -0.0842(4) 0.02695(15) 0.0810(2)
H28B H 0.0277 0.0219 0.0718
loop_
_geom_bond_atom_site_label_1
_geom_bond_atom_site_label_2
_geom_bond_site_symmetry_1
_geom_bond_site_symmetry_2
Zn1 O4 1_555 1_555
C1 C2 1_555 1_555
C2 C3 1_555 1_555
C3 H1 1_555 1_555
C4 C3 1_555 1_555
H2 C4 1_555 1_555
C5 C4 1_555 1_555
C6 C5 1_555 1_555
H3 C6 1_555 1_555
C7 C2 1_555 1_555
H4 C7 1_555 1_555
C8 H5 1_555 1_555
H6 C8 1_555 1_555
C9 C8 1_555 1_555
C10 C9 1_555 1_555
H7 C10 1_555 1_555
C11 C10 1_555 1_555
H8 C11 1_555 1_555
C12 C11 1_555 1_555
C13 C12 1_555 1_555
H9 C13 1_555 1_555
C14 C9 1_555 1_555
H10 C14 1_555 1_555
C15 C12 1_555 1_555
C16 C15 1_555 1_555
C17 C16 1_555 1_555
H11 C17 1_555 1_555
C18 C17 1_555 1_555
H12 C18 1_555 1_555
C19 C18 1_555 1_555
H13 C19 1_555 1_555
C20 C15 1_555 1_555
H14 C20 1_555 1_555
C21 C16 1_555 1_555
C22 H15 1_555 1_555
C23 C22 1_555 1_555
H16 C23 1_555 1_555
C24 H17 1_555 1_555
C25 H18 1_555 1_555
H19 C25 1_555 1_555
C26 C25 1_555 1_555
H20 C26 1_555 1_555
H21 C26 1_555 1_555
C27 H22 1_555 1_555
H23 C27 1_555 1_555
C28 C27 1_555 1_555
H24 C28 1_555 1_555
H25 C28 1_555 1_555
C29 H26 1_555 1_555
N1 C30 1_555 1_555
C30 H27 1_555 1_555
O1 C1 1_555 1_555
O2 C1 1_555 1_555
O3 C5 1_555 1_555
O4 C21 1_555 1_555
O5 C21 1_555 1_555
O6 C26 1_555 1_555
N2 Zn1 1_555 1_555
N3 C23 1_555 1_555
N4 C28 1_555 1_555
C31 C29 1_555 1_555
H28 C31 1_555 1_555
Zn1B N1 1_555 1_555
Zn1A O2 1_555 1_555
Zn1C O2B 1_555 1_555
C1B C2B 1_555 1_555
C2B C3B 1_555 1_555
C3B H1B 1_555 1_555
C4B C3B 1_555 1_555
H2B C4B 1_555 1_555
C5B C4B 1_555 1_555
C6B C5B 1_555 1_555
H3B C6B 1_555 1_555
C7B C2B 1_555 1_555
H4B C7B 1_555 1_555
C8B H5B 1_555 1_555
H6B C8B 1_555 1_555
C9B C8B 1_555 1_555
C10B C9B 1_555 1_555
H7B C10B 1_555 1_555
C11B C10B 1_555 1_555
H8B C11B 1_555 1_555
C12B C11B 1_555 1_555
C13B C12B 1_555 1_555
H9B C13B 1_555 1_555
C14B C9B 1_555 1_555
H10B C14B 1_555 1_555
C15B C12B 1_555 1_555
C16B C15B 1_555 1_555
C17B C16B 1_555 1_555
H11B C17B 1_555 1_555
C18B C17B 1_555 1_555
H12B C18B 1_555 1_555
C19B C18B 1_555 1_555
H13B C19B 1_555 1_555
C20B C15B 1_555 1_555
H14B C20B 1_555 1_555
C21B C16B 1_555 1_555
C22B H15B 1_555 1_555
C23B C22B 1_555 1_555
H16B C23B 1_555 1_555
C24B H17B 1_555 1_555
C25B H18B 1_555 1_555
H19B C25B 1_555 1_555
C26B C25B 1_555 1_555
H20B C26B 1_555 1_555
H21B C26B 1_555 1_555
C27B H22B 1_555 1_555
H23B C27B 1_555 1_555
C28B C27B 1_555 1_555
H24B C28B 1_555 1_555
H25B C28B 1_555 1_555
C29B H26B 1_555 1_555
N1B Zn1 1_555 1_555
C30B N1B 1_555 1_555
H27B C30B 1_555 1_555
O1B C1B 1_555 1_555
O2B C1B 1_555 1_555
O2A Zn1 1_555 1_555
O2C Zn1B 1_555 1_555
O3B C5B 1_555 1_555
O4B Zn1B 1_555 1_555
O5B C21B 1_555 1_555
O6B C26B 1_555 1_555
N2B Zn1B 1_555 1_555
N3B C23B 1_555 1_555
N4B C28B 1_555 1_555
C31B C29B 1_555 1_555
H28B C31B 1_555 1_555
C6 C7 1_555 1_555
C8 O3 1_555 1_555
C13 C14 1_555 1_555
C19 C20 1_555 1_555
C22 N2 1_555 1_555
C24 N2 1_555 1_555
C24 N3 1_555 1_555
C25 N3 1_555 1_555
C27 O6 1_555 1_555
C29 N4 1_555 1_555
N1 C31 1_555 1_555
C30 N4 1_555 1_555
C6B C7B 1_555 1_555
C8B O3B 1_555 1_555
C13B C14B 1_555 1_555
C19B C20B 1_555 1_555
C21B O4B 1_555 1_555
C22B N2B 1_555 1_555
C24B N2B 1_555 1_555
C24B N3B 1_555 1_555
C25B N3B 1_555 1_555
C27B O6B 1_555 1_555
C29B N4B 1_555 1_555
N1B C31B 1_555 1_555
C30B N4B 1_555 1_555

#END
