
#######################################################################
#
#                 Cambridge Crystallographic Data Centre
#                                CCDC 
#
#######################################################################
#
# If this CIF has been generated from an entry in the Cambridge 
# Structural Database, then it will include bibliographic, chemical, 
# crystal, experimental, refinement or atomic coordinate data resulting 
# from the CCDC's data processing and validation procedures.
#
#######################################################################

data_HEDZIB
_symmetry_cell_setting           monoclinic
_symmetry_space_group_name_H-M   'P 21/c'
_symmetry_Int_Tables_number      14
_space_group_name_Hall           '-P 2ybc'
loop_
_symmetry_equiv_pos_site_id
_symmetry_equiv_pos_as_xyz
1 x,y,z
2 -x,1/2+y,1/2-z
3 -x,-y,-z
4 x,1/2-y,1/2+z
_cell_length_a                   7.4874(3)
_cell_length_b                   22.1248(8)
_cell_length_c                   17.3659(7)
_cell_angle_alpha                90
_cell_angle_beta                 99.744(4)
_cell_angle_gamma                90
_cell_volume                     2835.29
loop_
_atom_site_label
_atom_site_type_symbol
_atom_site_fract_x
_atom_site_fract_y
_atom_site_fract_z
Co1 Co 0.96002(7) 0.16775(2) 0.08574(3)
C1 C -0.2502(6) 0.64995(18) 0.3122(2)
C2 C -0.3999(5) 0.64962(16) 0.2429(2)
C3 C -0.5638(6) 0.67479(18) 0.2533(2)
H1 H -0.5822 0.6850 0.3034
C4 C -0.6998(6) 0.6848(2) 0.1905(3)
H2 H -0.8093 0.7017 0.1981
C5 C -0.6722(6) 0.6697(2) 0.1166(3)
H3 H -0.7609 0.6783 0.0737
C6 C -0.5143(6) 0.6419(2) 0.1059(2)
H4 H -0.4998 0.6304 0.0558
C7 C -0.3747(5) 0.63051(16) 0.1685(2)
C8 C -0.2113(5) 0.59735(17) 0.1547(2)
C9 C -0.1416(6) 0.6060(2) 0.0858(2)
H5 H -0.1958 0.6343 0.0496
C10 C 0.0051(6) 0.5738(2) 0.0703(3)
H6 H 0.0457 0.5796 0.0231
C11 C 0.0935(6) 0.53285(19) 0.1240(3)
C12 C 0.0240(6) 0.5235(2) 0.1921(3)
H7 H 0.0796 0.4956 0.2286
C13 C -0.1254(6) 0.55466(19) 0.2067(2)
H8 H -0.1700 0.5470 0.2526
C14 C 0.2625(6) 0.50205(19) 0.1106(3)
H9 H 0.2855 0.5110 0.0585
H10 H 0.3648 0.5163 0.1481
C15 C 0.3803(5) 0.40109(18) 0.1115(2)
C16 C 0.3331(5) 0.34057(17) 0.1049(2)
H11 H 0.2138 0.3288 0.1049
C17 C 0.4623(5) 0.29817(18) 0.0986(2)
H12 H 0.4296 0.2576 0.0944
C18 C 0.6422(5) 0.31439(17) 0.0985(2)
C19 C 0.6874(5) 0.37527(18) 0.1055(2)
H13 H 0.8070 0.3870 0.1063
C20 C 0.5578(6) 0.41864(19) 0.1113(2)
H14 H 0.5894 0.4593 0.1150
C21 C 0.7800(5) 0.26730(19) 0.0897(2)
C22 C 0.6798(6) 0.07353(19) 0.0996(3)
H15 H 0.5980 0.1039 0.1065
C23 C 0.7966(6) -0.0156(2) 0.0889(3)
H16 H 0.8126 -0.0572 0.0866
C24 C 0.9199(6) 0.02718(19) 0.0818(3)
H17 H 1.0376 0.0198 0.0737
C25 C 0.4666(7) -0.0119(3) 0.1096(4)
H18 H 0.3888 0.0202 0.1230
H19 H 0.4092 -0.0293 0.0603
C26 C 0.4841(8) -0.0584(2) 0.1702(3)
H20 H 0.5676 -0.0452 0.2160
H21 H 0.3673 -0.0661 0.1854
C27 C 0.6132(9) -0.1534(2) 0.1980(3)
H22 H 0.5154 -0.1649 0.2252
H23 H 0.7085 -0.1352 0.2356
C28 C 0.6842(8) -0.2078(2) 0.1633(3)
H24 H 0.7267 -0.2365 0.2045
H25 H 0.5865 -0.2267 0.1276
C29 C 0.8190(7) -0.1864(2) 0.0440(3)
H26 H 0.7108 -0.1897 0.0090
C30 C 1.0957(8) -0.1703(2) 0.0928(3)
H27 H 1.2183 -0.1612 0.0974
C31 C 1.0083(8) -0.1818(2) 0.1526(3)
H28 H 1.0581 -0.1818 0.2054
O1 O -0.2714(4) 0.62424(16) 0.37435(17)
O2 O -0.1081(4) 0.67844(13) 0.30675(17)
O3 O 0.2403(4) 0.43882(13) 0.11916(18)
O4 O 0.7282(4) 0.21233(12) 0.08359(17)
O5 O 0.9386(4) 0.28099(15) 0.0876(2)
O6 O 0.5500(5) -0.11191(14) 0.1393(2)
N1 N 0.8465(5) 0.08321(15) 0.08826(19)
N2 N 0.6427(5) 0.01410(16) 0.1001(2)
N3 N 0.8331(6) -0.1936(2) 0.1209(2)
N4 N 0.9757(6) -0.17420(19) 0.0236(2)
Co1B Co 1.03998(7) -0.16775(2) -0.08574(3)
Co1A Co 0.03998(7) 0.66775(2) 0.41426(3)
Co1C Co 1.96002(7) -0.66775(2) -0.41426(3)
C1B C 2.2502(6) -0.64995(18) -0.3122(2)
C2B C 2.3999(5) -0.64962(16) -0.2429(2)
C3B C 2.5638(6) -0.67479(18) -0.2533(2)
H1B H 2.5822 -0.6850 -0.3034
C4B C 2.6998(6) -0.6848(2) -0.1905(3)
H2B H 2.8093 -0.7017 -0.1981
C5B C 2.6722(6) -0.6697(2) -0.1166(3)
H3B H 2.7609 -0.6783 -0.0737
C6B C 2.5143(6) -0.6419(2) -0.1059(2)
H4B H 2.4998 -0.6304 -0.0558
C7B C 2.3747(5) -0.63051(16) -0.1685(2)
C8B C 2.2113(5) -0.59735(17) -0.1547(2)
C9B C 2.1416(6) -0.6060(2) -0.0858(2)
H5B H 2.1958 -0.6343 -0.0496
C10B C 1.9949(6) -0.5738(2) -0.0703(3)
H6B H 1.9543 -0.5796 -0.0231
C11B C 1.9065(6) -0.53285(19) -0.1240(3)
C12B C 1.9760(6) -0.5235(2) -0.1921(3)
H7B H 1.9204 -0.4956 -0.2286
C13B C 2.1254(6) -0.55466(19) -0.2067(2)
H8B H 2.1700 -0.5470 -0.2526
C14B C 1.7375(6) -0.50205(19) -0.1106(3)
H9B H 1.7145 -0.5110 -0.0585
H10B H 1.6352 -0.5163 -0.1481
C15B C 1.6197(5) -0.40109(18) -0.1115(2)
C16B C 1.6669(5) -0.34057(17) -0.1049(2)
H11B H 1.7862 -0.3288 -0.1049
C17B C 1.5377(5) -0.29817(18) -0.0986(2)
H12B H 1.5704 -0.2576 -0.0944
C18B C 1.3578(5) -0.31439(17) -0.0985(2)
C19B C 1.3126(5) -0.37527(18) -0.1055(2)
H13B H 1.1930 -0.3870 -0.1063
C20B C 1.4422(6) -0.41864(19) -0.1113(2)
H14B H 1.4106 -0.4593 -0.1150
C21B C 1.2200(5) -0.26730(19) -0.0897(2)
C22B C 1.3202(6) -0.07353(19) -0.0996(3)
H15B H 1.4020 -0.1039 -0.1065
C23B C 1.2034(6) 0.0156(2) -0.0889(3)
H16B H 1.1874 0.0572 -0.0866
C24B C 1.0801(6) -0.02718(19) -0.0818(3)
H17B H 0.9624 -0.0198 -0.0737
C25B C 1.5334(7) 0.0119(3) -0.1096(4)
H18B H 1.6112 -0.0202 -0.1230
H19B H 1.5908 0.0293 -0.0603
C26B C 1.5159(8) 0.0584(2) -0.1702(3)
H20B H 1.4324 0.0452 -0.2160
H21B H 1.6327 0.0661 -0.1854
C27B C 1.3868(9) 0.1534(2) -0.1980(3)
H22B H 1.4846 0.1649 -0.2252
H23B H 1.2915 0.1352 -0.2356
C28B C 1.3158(8) 0.2078(2) -0.1633(3)
H24B H 1.2733 0.2365 -0.2045
H25B H 1.4135 0.2267 -0.1276
C29B C 1.1810(7) 0.1864(2) -0.0440(3)
H26B H 1.2892 0.1897 -0.0090
C30B C 0.9043(8) 0.1703(2) -0.0928(3)
H27B H 0.7817 0.1612 -0.0974
C31B C 0.9917(8) 0.1818(2) -0.1526(3)
H28B H 0.9419 0.1818 -0.2054
O1B O 2.2714(4) -0.62424(16) -0.37435(17)
O2B O 2.1081(4) -0.67844(13) -0.30675(17)
O2A O 1.1081(4) 0.17844(13) 0.19325(17)
O2C O 0.8919(4) -0.17844(13) -0.19325(17)
O3B O 1.7597(4) -0.43882(13) -0.11916(18)
O4B O 1.2718(4) -0.21233(12) -0.08359(17)
O5B O 1.0614(4) -0.28099(15) -0.0876(2)
O6B O 1.4500(5) 0.11191(14) -0.1393(2)
N1B N 1.1535(5) -0.08321(15) -0.08826(19)
N2B N 1.3573(5) -0.01410(16) -0.1001(2)
N3B N 1.1669(6) 0.1936(2) -0.1209(2)
N4B N 1.0243(6) 0.17420(19) -0.0236(2)
loop_
_geom_bond_atom_site_label_1
_geom_bond_atom_site_label_2
_geom_bond_site_symmetry_1
_geom_bond_site_symmetry_2
Co1 O4 1_555 1_555
C1 C2 1_555 1_555
C2 C3 1_555 1_555
C3 H1 1_555 1_555
C4 C3 1_555 1_555
H2 C4 1_555 1_555
C5 C4 1_555 1_555
H3 C5 1_555 1_555
C6 C5 1_555 1_555
H4 C6 1_555 1_555
C7 C2 1_555 1_555
C8 C7 1_555 1_555
C9 C8 1_555 1_555
H5 C9 1_555 1_555
C10 C9 1_555 1_555
H6 C10 1_555 1_555
C11 C10 1_555 1_555
C12 C11 1_555 1_555
H7 C12 1_555 1_555
C13 C8 1_555 1_555
H8 C13 1_555 1_555
C14 C11 1_555 1_555
H9 C14 1_555 1_555
H10 C14 1_555 1_555
C15 C16 1_555 1_555
C16 H11 1_555 1_555
C17 C16 1_555 1_555
H12 C17 1_555 1_555
C18 C17 1_555 1_555
C19 C18 1_555 1_555
H13 C19 1_555 1_555
C20 C15 1_555 1_555
H14 C20 1_555 1_555
C21 C18 1_555 1_555
C22 H15 1_555 1_555
C23 H16 1_555 1_555
C24 C23 1_555 1_555
H17 C24 1_555 1_555
C25 H18 1_555 1_555
H19 C25 1_555 1_555
C26 C25 1_555 1_555
H20 C26 1_555 1_555
H21 C26 1_555 1_555
C27 H22 1_555 1_555
H23 C27 1_555 1_555
C28 C27 1_555 1_555
H24 C28 1_555 1_555
H25 C28 1_555 1_555
C29 H26 1_555 1_555
C30 H27 1_555 1_555
C31 C30 1_555 1_555
H28 C31 1_555 1_555
O1 C1 1_555 1_555
O2 C1 1_555 1_555
O3 C14 1_555 1_555
O4 C21 1_555 1_555
O5 C21 1_555 1_555
O6 C26 1_555 1_555
N1 Co1 1_555 1_555
N2 C22 1_555 1_555
N3 C28 1_555 1_555
N4 C29 1_555 1_555
Co1B N4 1_555 1_555
Co1A O2 1_555 1_555
Co1C O2B 1_555 1_555
C1B C2B 1_555 1_555
C2B C3B 1_555 1_555
C3B H1B 1_555 1_555
C4B C3B 1_555 1_555
H2B C4B 1_555 1_555
C5B C4B 1_555 1_555
H3B C5B 1_555 1_555
C6B C5B 1_555 1_555
H4B C6B 1_555 1_555
C7B C2B 1_555 1_555
C8B C7B 1_555 1_555
C9B C8B 1_555 1_555
H5B C9B 1_555 1_555
C10B C9B 1_555 1_555
H6B C10B 1_555 1_555
C11B C10B 1_555 1_555
C12B C11B 1_555 1_555
H7B C12B 1_555 1_555
C13B C8B 1_555 1_555
H8B C13B 1_555 1_555
C14B C11B 1_555 1_555
H9B C14B 1_555 1_555
H10B C14B 1_555 1_555
C15B C16B 1_555 1_555
C16B H11B 1_555 1_555
C17B C16B 1_555 1_555
H12B C17B 1_555 1_555
C18B C17B 1_555 1_555
C19B C18B 1_555 1_555
H13B C19B 1_555 1_555
C20B C15B 1_555 1_555
H14B C20B 1_555 1_555
C21B C18B 1_555 1_555
C22B H15B 1_555 1_555
C23B H16B 1_555 1_555
C24B C23B 1_555 1_555
H17B C24B 1_555 1_555
C25B H18B 1_555 1_555
H19B C25B 1_555 1_555
C26B C25B 1_555 1_555
H20B C26B 1_555 1_555
H21B C26B 1_555 1_555
C27B H22B 1_555 1_555
H23B C27B 1_555 1_555
C28B C27B 1_555 1_555
H24B C28B 1_555 1_555
H25B C28B 1_555 1_555
C29B H26B 1_555 1_555
C30B H27B 1_555 1_555
C31B C30B 1_555 1_555
H28B C31B 1_555 1_555
O1B C1B 1_555 1_555
O2B C1B 1_555 1_555
O2A Co1 1_555 1_555
O2C Co1B 1_555 1_555
O3B C14B 1_555 1_555
O4B Co1B 1_555 1_555
O5B C21B 1_555 1_555
O6B C26B 1_555 1_555
N1B Co1B 1_555 1_555
N2B C22B 1_555 1_555
N3B C28B 1_555 1_555
N4B Co1 1_555 1_555
C6 C7 1_555 1_555
C12 C13 1_555 1_555
C15 O3 1_555 1_555
C19 C20 1_555 1_555
C22 N1 1_555 1_555
C23 N2 1_555 1_555
C24 N1 1_555 1_555
C25 N2 1_555 1_555
C27 O6 1_555 1_555
C29 N3 1_555 1_555
C30 N4 1_555 1_555
C31 N3 1_555 1_555
C6B C7B 1_555 1_555
C12B C13B 1_555 1_555
C15B O3B 1_555 1_555
C19B C20B 1_555 1_555
C21B O4B 1_555 1_555
C22B N1B 1_555 1_555
C23B N2B 1_555 1_555
C24B N1B 1_555 1_555
C25B N2B 1_555 1_555
C27B O6B 1_555 1_555
C29B N3B 1_555 1_555
C29B N4B 1_555 1_555
C30B N4B 1_555 1_555
C31B N3B 1_555 1_555

#END
