
#######################################################################
#
#                 Cambridge Crystallographic Data Centre
#                                CCDC 
#
#######################################################################
#
# If this CIF has been generated from an entry in the Cambridge 
# Structural Database, then it will include bibliographic, chemical, 
# crystal, experimental, refinement or atomic coordinate data resulting 
# from the CCDC's data processing and validation procedures.
#
#######################################################################

data_HEFBEB01
_symmetry_cell_setting           triclinic
_symmetry_space_group_name_H-M   'P -1'
_symmetry_Int_Tables_number      2
_space_group_name_Hall           '-P 1'
loop_
_symmetry_equiv_pos_site_id
_symmetry_equiv_pos_as_xyz
1 x,y,z
2 -x,-y,-z
_cell_length_a                   8.8280(4)
_cell_length_b                   12.2700(7)
_cell_length_c                   13.2880(7)
_cell_angle_alpha                68.387(5)
_cell_angle_beta                 83.300(4)
_cell_angle_gamma                84.279(4)
_cell_volume                     1326.51
loop_
_atom_site_label
_atom_site_type_symbol
_atom_site_fract_x
_atom_site_fract_y
_atom_site_fract_z
Co1 Co 0.52631(4) 0.13670(3) -0.00156(3)
C1 C -0.7514(3) 0.0759(3) 0.9004(2)
C2 C -0.8051(3) 0.2032(3) 0.8595(2)
C3 C -0.9211(3) 0.2357(3) 0.9250(2)
H1 H -0.9605 0.1788 0.9884
C4 C -0.9788(3) 0.3500(3) 0.8982(3)
H2 H -1.0543 0.3705 0.9441
C5 C -0.9240(3) 0.4344(3) 0.8025(3)
H3 H -0.9605 0.5124 0.7845
C6 C -0.8146(3) 0.4020(3) 0.7337(2)
H4 H -0.7811 0.4588 0.6682
C7 C -0.7528(3) 0.2870(3) 0.7593(2)
C8 C -0.6389(3) 0.2575(3) 0.6791(2)
C9 C -0.5411(3) 0.3407(3) 0.6105(2)
H5 H -0.5449 0.4143 0.6161
C10 C -0.4384(3) 0.3158(3) 0.5343(2)
H6 H -0.3742 0.3733 0.4893
C11 C -0.4283(3) 0.2081(3) 0.5229(2)
C12 C -0.5242(3) 0.1248(3) 0.5909(2)
H7 H -0.5182 0.0508 0.5861
C13 C -0.6294(3) 0.1494(3) 0.6664(2)
H8 H -0.6953 0.0925 0.7097
C14 C -0.3135(3) 0.1833(3) 0.4406(2)
H9 H -0.3328 0.1098 0.4341
H10 H -0.3215 0.2454 0.3701
C15 C -0.0418(3) 0.1640(3) 0.4069(2)
C16 C -0.0483(3) 0.1611(3) 0.3044(2)
H11 H -0.1420 0.1655 0.2771
C17 C 0.0864(3) 0.1516(3) 0.2429(2)
H12 H 0.0818 0.1498 0.1740
C18 C 0.2272(3) 0.1446(3) 0.2806(2)
C19 C 0.2300(3) 0.1462(3) 0.3843(2)
H13 H 0.3236 0.1406 0.4121
C20 C 0.0986(3) 0.1557(3) 0.4463(2)
H14 H 0.1036 0.1566 0.5156
C21 C 0.3738(3) 0.1391(2) 0.2136(2)
C22 C 0.3688(4) 0.3891(3) -0.0385(3)
H15 H 0.3003 0.3530 0.0206
C23 C 0.3602(4) 0.5113(4) -0.0846(4)
H16 H 0.2881 0.5551 -0.0560
C24 C 0.4577(5) 0.5656(3) -0.1714(4)
H17 H 0.4527 0.6471 -0.2028
C25 C 0.5661(4) 0.4989(3) -0.2139(3)
C26 C 0.6718(5) 0.5479(4) -0.3061(3)
H18 H 0.6702 0.6289 -0.3417
C27 C 0.7732(5) 0.4792(4) -0.3423(3)
H19 H 0.8398 0.5139 -0.4031
C28 C 0.7826(4) 0.3539(3) -0.2904(2)
C29 C 0.8857(4) 0.2778(4) -0.3239(2)
H20 H 0.9550 0.3078 -0.3843
C30 C 0.8855(3) 0.1601(3) -0.2688(2)
H21 H 0.9542 0.1091 -0.2910
C31 C 0.7808(3) 0.1168(3) -0.1786(2)
H22 H 0.7819 0.0361 -0.1410
C32 C 0.6792(3) 0.3034(3) -0.1988(2)
C33 C 0.5689(3) 0.3761(3) -0.1611(2)
N1 N 0.4697(3) 0.3219(2) -0.07470(19)
N2 N 0.6796(2) 0.1856(2) -0.14378(17)
O1 O -0.8411(2) 0.00503(18) 0.89963(15)
O2 O -0.61902(18) 0.04654(16) 0.93798(13)
O3 O -0.1657(2) 0.1763(2) 0.47441(15)
O4 O 0.4947(2) 0.15205(18) 0.24670(14)
O5 O 0.36495(19) 0.12503(18) 0.12408(14)
O6 O 0.6906(3) 0.1976(2) 0.07288(18)
H23 H 0.642(4) 0.184(4) 0.132(3)
H24 H 0.757(4) 0.135(3) 0.082(2)
Co1A Co -0.52631(4) -0.13670(3) 1.00156(3)
Co1_2 Co -0.47369(4) 0.13670(3) 0.99844(3)
Co1A_2 Co 0.47369(4) -0.13670(3) 0.00156(3)
C1A C 0.7514(3) -0.0759(3) 0.0996(2)
C2A C 0.8051(3) -0.2032(3) 0.1405(2)
C3A C 0.9211(3) -0.2357(3) 0.0750(2)
H1A H 0.9605 -0.1788 0.0116
C4A C 0.9788(3) -0.3500(3) 0.1018(3)
H2A H 1.0543 -0.3705 0.0559
C5A C 0.9240(3) -0.4344(3) 0.1975(3)
H3A H 0.9605 -0.5124 0.2155
C6A C 0.8146(3) -0.4020(3) 0.2663(2)
H4A H 0.7811 -0.4588 0.3318
C7A C 0.7528(3) -0.2870(3) 0.2407(2)
C8A C 0.6389(3) -0.2575(3) 0.3209(2)
C9A C 0.5411(3) -0.3407(3) 0.3895(2)
H5A H 0.5449 -0.4143 0.3839
C10A C 0.4384(3) -0.3158(3) 0.4657(2)
H6A H 0.3742 -0.3733 0.5107
C11A C 0.4283(3) -0.2081(3) 0.4771(2)
C12A C 0.5242(3) -0.1248(3) 0.4091(2)
H7A H 0.5182 -0.0508 0.4139
C13A C 0.6294(3) -0.1494(3) 0.3336(2)
H8A H 0.6953 -0.0925 0.2903
C14A C 0.3135(3) -0.1833(3) 0.5594(2)
H9A H 0.3328 -0.1098 0.5659
H10A H 0.3215 -0.2454 0.6299
C15A C 0.0418(3) -0.1640(3) 0.5931(2)
C16A C 0.0483(3) -0.1611(3) 0.6956(2)
H11A H 0.1420 -0.1655 0.7229
C17A C -0.0864(3) -0.1516(3) 0.7571(2)
H12A H -0.0818 -0.1498 0.8260
C18A C -0.2272(3) -0.1446(3) 0.7194(2)
C19A C -0.2300(3) -0.1462(3) 0.6157(2)
H13A H -0.3236 -0.1406 0.5879
C20A C -0.0986(3) -0.1557(3) 0.5537(2)
H14A H -0.1036 -0.1566 0.4844
C21A C -0.3738(3) -0.1391(2) 0.7864(2)
C22A C -0.3688(4) -0.3891(3) 1.0385(3)
H15A H -0.3003 -0.3530 0.9794
C23A C -0.3602(4) -0.5113(4) 1.0846(4)
H16A H -0.2881 -0.5551 1.0560
C24A C -0.4577(5) -0.5656(3) 1.1714(4)
H17A H -0.4527 -0.6471 1.2028
C25A C -0.5661(4) -0.4989(3) 1.2139(3)
C26A C -0.6718(5) -0.5479(4) 1.3061(3)
H18A H -0.6702 -0.6289 1.3417
C27A C -0.7732(5) -0.4792(4) 1.3423(3)
H19A H -0.8398 -0.5139 1.4031
C28A C -0.7826(4) -0.3539(3) 1.2904(2)
C29A C -0.8857(4) -0.2778(4) 1.3239(2)
H20A H -0.9550 -0.3078 1.3843
C30A C -0.8855(3) -0.1601(3) 1.2688(2)
H21A H -0.9542 -0.1091 1.2910
C31A C -0.7808(3) -0.1168(3) 1.1786(2)
H22A H -0.7819 -0.0361 1.1410
C32A C -0.6792(3) -0.3034(3) 1.1988(2)
C33A C -0.5689(3) -0.3761(3) 1.1611(2)
N1A N -0.4697(3) -0.3219(2) 1.07470(19)
N2A N -0.6796(2) -0.1856(2) 1.14378(17)
O1A O 0.8411(2) -0.00503(18) 0.10037(15)
O2A O 0.61902(18) -0.04654(16) 0.06202(13)
O2_2 O 0.38098(18) 0.04654(16) -0.06202(13)
O2A_2 O -0.38098(18) -0.04654(16) 1.06202(13)
O3A O 0.1657(2) -0.1763(2) 0.52559(15)
O4A O -0.4947(2) -0.15205(18) 0.75330(14)
O5A O -0.36495(19) -0.12503(18) 0.87592(14)
O6A O -0.6906(3) -0.1976(2) 0.92712(18)
H23A H -0.642(4) -0.184(4) 0.868(3)
H24A H -0.757(4) -0.135(3) 0.918(2)
loop_
_geom_bond_atom_site_label_1
_geom_bond_atom_site_label_2
_geom_bond_site_symmetry_1
_geom_bond_site_symmetry_2
Co1 N1 1_555 1_555
C1 C2 1_555 1_555
C2 C3 1_555 1_555
C3 H1 1_555 1_555
C4 C3 1_555 1_555
H2 C4 1_555 1_555
C5 C4 1_555 1_555
H3 C5 1_555 1_555
C6 C5 1_555 1_555
H4 C6 1_555 1_555
C7 C2 1_555 1_555
C8 C7 1_555 1_555
C9 C8 1_555 1_555
H5 C9 1_555 1_555
C10 C9 1_555 1_555
H6 C10 1_555 1_555
C11 C10 1_555 1_555
C12 C11 1_555 1_555
H7 C12 1_555 1_555
C13 C8 1_555 1_555
H8 C13 1_555 1_555
C14 C11 1_555 1_555
H9 C14 1_555 1_555
H10 C14 1_555 1_555
C15 C16 1_555 1_555
C16 H11 1_555 1_555
C17 C16 1_555 1_555
H12 C17 1_555 1_555
C18 C17 1_555 1_555
C19 C18 1_555 1_555
H13 C19 1_555 1_555
C20 C15 1_555 1_555
H14 C20 1_555 1_555
C21 C18 1_555 1_555
C22 H15 1_555 1_555
C23 C22 1_555 1_555
H16 C23 1_555 1_555
C24 C23 1_555 1_555
H17 C24 1_555 1_555
C25 C24 1_555 1_555
C26 C25 1_555 1_555
H18 C26 1_555 1_555
C27 C26 1_555 1_555
H19 C27 1_555 1_555
C28 C27 1_555 1_555
C29 C28 1_555 1_555
H20 C29 1_555 1_555
C30 C29 1_555 1_555
H21 C30 1_555 1_555
C31 C30 1_555 1_555
H22 C31 1_555 1_555
C32 C28 1_555 1_555
C33 C25 1_555 1_555
N1 C22 1_555 1_555
N2 Co1 1_555 1_555
O1 C1 1_555 1_555
O2 C1 1_555 1_555
O3 C14 1_555 1_555
O4 C21 1_555 1_555
O5 Co1 1_555 1_555
O6 Co1 1_555 1_555
H23 O6 1_555 1_555
H24 O6 1_555 1_555
Co1A O2 1_555 1_555
Co1_2 O2 1_555 1_555
Co1A_2 O2A 1_555 1_555
C1A C2A 1_555 1_555
C2A C3A 1_555 1_555
C3A H1A 1_555 1_555
C4A C3A 1_555 1_555
H2A C4A 1_555 1_555
C5A C4A 1_555 1_555
H3A C5A 1_555 1_555
C6A C5A 1_555 1_555
H4A C6A 1_555 1_555
C7A C2A 1_555 1_555
C8A C7A 1_555 1_555
C9A C8A 1_555 1_555
H5A C9A 1_555 1_555
C10A C9A 1_555 1_555
H6A C10A 1_555 1_555
C11A C10A 1_555 1_555
C12A C11A 1_555 1_555
H7A C12A 1_555 1_555
C13A C8A 1_555 1_555
H8A C13A 1_555 1_555
C14A C11A 1_555 1_555
H9A C14A 1_555 1_555
H10A C14A 1_555 1_555
C15A C16A 1_555 1_555
C16A H11A 1_555 1_555
C17A C16A 1_555 1_555
H12A C17A 1_555 1_555
C18A C17A 1_555 1_555
C19A C18A 1_555 1_555
H13A C19A 1_555 1_555
C20A C15A 1_555 1_555
H14A C20A 1_555 1_555
C21A C18A 1_555 1_555
C22A H15A 1_555 1_555
C23A C22A 1_555 1_555
H16A C23A 1_555 1_555
C24A C23A 1_555 1_555
H17A C24A 1_555 1_555
C25A C24A 1_555 1_555
C26A C25A 1_555 1_555
H18A C26A 1_555 1_555
C27A C26A 1_555 1_555
H19A C27A 1_555 1_555
C28A C27A 1_555 1_555
C29A C28A 1_555 1_555
H20A C29A 1_555 1_555
C30A C29A 1_555 1_555
H21A C30A 1_555 1_555
C31A C30A 1_555 1_555
H22A C31A 1_555 1_555
C32A C28A 1_555 1_555
C33A C25A 1_555 1_555
N1A Co1A 1_555 1_555
N2A Co1A 1_555 1_555
O1A C1A 1_555 1_555
O2A Co1 1_555 1_555
O2_2 Co1 1_555 1_555
O2A_2 Co1A 1_555 1_555
O3A C14A 1_555 1_555
O4A C21A 1_555 1_555
O5A Co1A 1_555 1_555
O6A Co1A 1_555 1_555
H23A O6A 1_555 1_555
H24A O6A 1_555 1_555
C6 C7 1_555 1_555
C12 C13 1_555 1_555
C15 O3 1_555 1_555
C19 C20 1_555 1_555
C21 O5 1_555 1_555
C31 N2 1_555 1_555
C32 C33 1_555 1_555
C32 N2 1_555 1_555
C33 N1 1_555 1_555
Co1_2 O2A_2 1_555 1_555
Co1A_2 O2_2 1_555 1_555
C1A O2A 1_555 1_555
C6A C7A 1_555 1_555
C12A C13A 1_555 1_555
C15A O3A 1_555 1_555
C19A C20A 1_555 1_555
C21A O5A 1_555 1_555
C22A N1A 1_555 1_555
C31A N2A 1_555 1_555
C32A C33A 1_555 1_555
C32A N2A 1_555 1_555
C33A N1A 1_555 1_555

#END
