
#######################################################################
#
#                 Cambridge Crystallographic Data Centre
#                                CCDC 
#
#######################################################################
#
# If this CIF has been generated from an entry in the Cambridge 
# Structural Database, then it will include bibliographic, chemical, 
# crystal, experimental, refinement or atomic coordinate data resulting 
# from the CCDC's data processing and validation procedures.
#
#######################################################################

data_HEFBOL
_symmetry_cell_setting           triclinic
_symmetry_space_group_name_H-M   'P -1'
_symmetry_Int_Tables_number      2
_space_group_name_Hall           '-P 1'
loop_
_symmetry_equiv_pos_site_id
_symmetry_equiv_pos_as_xyz
1 x,y,z
2 -x,-y,-z
_cell_length_a                   8.6330(3)
_cell_length_b                   12.4730(5)
_cell_length_c                   13.8090(7)
_cell_angle_alpha                66.781(4)
_cell_angle_beta                 83.009(4)
_cell_angle_gamma                83.085(3)
_cell_volume                     1352.07
loop_
_atom_site_label
_atom_site_type_symbol
_atom_site_fract_x
_atom_site_fract_y
_atom_site_fract_z
Cd1 Cd 0.47040(2) 0.357110(18) 0.499544(15)
C1 C 1.3576(4) 0.6428(3) -0.2866(2)
C2 C 1.2108(3) 0.6478(3) -0.2172(2)
C3 C 1.2206(3) 0.6378(3) -0.1150(2)
H1 H 1.3185 0.6253 -0.0890
C4 C 1.0891(4) 0.6460(3) -0.0510(2)
H2 H 1.0986 0.6390 0.0176
C5 C 0.9431(3) 0.6645(3) -0.0880(2)
C6 C 0.9303(4) 0.6726(3) -0.1896(2)
H3 H 0.8323 0.6831 -0.2150
C7 C 1.0645(4) 0.6650(3) -0.2530(2)
H4 H 1.0555 0.6717 -0.3216
C8 C 0.6665(3) 0.6929(4) -0.0521(2)
H5 H 0.6389 0.6243 -0.0608
H6 H 0.6611 0.7587 -0.1195
C9 C 0.5552(3) 0.7176(3) 0.0295(2)
C10 C 0.4515(3) 0.6376(3) 0.0949(2)
H7 H 0.4513 0.5660 0.0888
C11 C 0.3484(3) 0.6631(3) 0.1690(2)
H8 H 0.2775 0.6090 0.2102
C12 C 0.3476(3) 0.7666(3) 0.1839(2)
C13 C 0.4532(3) 0.8467(3) 0.1182(2)
H9 H 0.4557 0.9176 0.1252
C14 C 0.5540(3) 0.8213(3) 0.0427(2)
H10 H 0.6229 0.8760 -0.0003
C15 C 0.2381(3) 0.7963(3) 0.2630(2)
C16 C 0.1847(3) 0.7114(3) 0.3613(2)
C17 C 0.0745(3) 0.7454(3) 0.4279(2)
H11 H 0.0359 0.6889 0.4907
C18 C 0.0212(4) 0.8606(3) 0.4031(3)
H12 H -0.0511 0.8815 0.4495
C19 C 0.0748(4) 0.9450(3) 0.3095(3)
H13 H 0.0405 1.0234 0.2928
C20 C 0.1797(3) 0.9122(3) 0.2407(2)
H14 H 0.2130 0.9696 0.1767
C21 C 0.2363(3) 0.5833(3) 0.3990(2)
C22 C 0.6019(4) 0.0809(3) 0.5609(3)
H15 H 0.6726 0.1109 0.5022
C23 C 0.6021(5) -0.0395(3) 0.6135(4)
H16 H 0.6716 -0.0890 0.5902
C24 C 0.5000(5) -0.0842(3) 0.6991(4)
H17 H 0.4983 -0.1649 0.7340
C25 C 0.3976(4) -0.0104(3) 0.7352(3)
C26 C 0.2906(5) -0.0510(4) 0.8273(3)
H18 H 0.2864 -0.1310 0.8656
C27 C 0.1971(5) 0.0237(4) 0.8591(3)
H19 H 0.1309 -0.0055 0.9204
C28 C 0.1951(4) 0.1476(3) 0.8020(2)
C29 C 0.1008(4) 0.2290(4) 0.8325(3)
H20 H 0.0315 0.2037 0.8927
C30 C 0.1089(4) 0.3445(3) 0.7758(2)
H21 H 0.0475 0.3990 0.7972
C31 C 0.2103(3) 0.3807(3) 0.6851(2)
H22 H 0.2135 0.4605 0.6454
C32 C 0.2980(3) 0.1908(3) 0.7100(2)
C33 C 0.4017(4) 0.1107(3) 0.6768(2)
N1 N 0.5052(3) 0.1549(2) 0.5909(2)
N2 N 0.3029(3) 0.3068(2) 0.65228(17)
O1 O 1.3398(2) 0.6436(2) -0.37662(16)
O2 O 1.4857(2) 0.6392(2) -0.25191(16)
O3 O 0.8198(2) 0.6735(2) -0.01905(15)
O4 O 0.3719(2) 0.55144(16) 0.43481(14)
O5 O 0.1455(2) 0.51625(19) 0.39653(17)
O6 O 0.2877(3) 0.3080(2) 0.4083(2)
H23 H 0.350(5) 0.329(3) 0.351(3)
H24 H 0.228(5) 0.367(4) 0.405(3)
Cd1A Cd 0.52960(2) 0.642890(18) 0.500456(15)
Cd1_2 Cd -0.52960(2) 0.357110(18) 1.499544(15)
Cd1A_2 Cd 1.52960(2) 0.642890(18) -0.499544(15)
C1A C -0.3576(4) 0.3572(3) 1.2866(2)
C2A C -0.2108(3) 0.3522(3) 1.2172(2)
C3A C -0.2206(3) 0.3622(3) 1.1150(2)
H1A H -0.3185 0.3747 1.0890
C4A C -0.0891(4) 0.3540(3) 1.0510(2)
H2A H -0.0986 0.3610 0.9824
C5A C 0.0569(3) 0.3355(3) 1.0880(2)
C6A C 0.0697(4) 0.3274(3) 1.1896(2)
H3A H 0.1677 0.3169 1.2150
C7A C -0.0645(4) 0.3350(3) 1.2530(2)
H4A H -0.0555 0.3283 1.3216
C8A C 0.3335(3) 0.3071(4) 1.0521(2)
H5A H 0.3611 0.3757 1.0608
H6A H 0.3389 0.2413 1.1195
C9A C 0.4448(3) 0.2824(3) 0.9705(2)
C10A C 0.5485(3) 0.3624(3) 0.9051(2)
H7A H 0.5487 0.4340 0.9112
C11A C 0.6516(3) 0.3369(3) 0.8310(2)
H8A H 0.7225 0.3910 0.7898
C12A C 0.6524(3) 0.2334(3) 0.8161(2)
C13A C 0.5468(3) 0.1533(3) 0.8818(2)
H9A H 0.5443 0.0824 0.8748
C14A C 0.4460(3) 0.1787(3) 0.9573(2)
H10A H 0.3771 0.1240 1.0003
C15A C 0.7619(3) 0.2037(3) 0.7370(2)
C16A C 0.8153(3) 0.2886(3) 0.6387(2)
C17A C 0.9255(3) 0.2546(3) 0.5721(2)
H11A H 0.9641 0.3111 0.5093
C18A C 0.9788(4) 0.1394(3) 0.5969(3)
H12A H 1.0511 0.1185 0.5505
C19A C 0.9252(4) 0.0550(3) 0.6905(3)
H13A H 0.9595 -0.0234 0.7072
C20A C 0.8203(3) 0.0878(3) 0.7593(2)
H14A H 0.7870 0.0304 0.8233
C21A C 0.7637(3) 0.4167(3) 0.6010(2)
C22A C 0.3981(4) 0.9191(3) 0.4391(3)
H15A H 0.3274 0.8891 0.4978
C23A C 0.3979(5) 1.0395(3) 0.3865(4)
H16A H 0.3284 1.0890 0.4098
C24A C 0.5000(5) 1.0842(3) 0.3009(4)
H17A H 0.5017 1.1649 0.2660
C25A C 0.6024(4) 1.0104(3) 0.2648(3)
C26A C 0.7094(5) 1.0510(4) 0.1727(3)
H18A H 0.7136 1.1310 0.1344
C27A C 0.8029(5) 0.9763(4) 0.1409(3)
H19A H 0.8691 1.0055 0.0796
C28A C 0.8049(4) 0.8524(3) 0.1980(2)
C29A C 0.8992(4) 0.7710(4) 0.1675(3)
H20A H 0.9685 0.7963 0.1073
C30A C 0.8911(4) 0.6555(3) 0.2242(2)
H21A H 0.9525 0.6010 0.2028
C31A C 0.7897(3) 0.6193(3) 0.3149(2)
H22A H 0.7865 0.5395 0.3546
C32A C 0.7020(3) 0.8092(3) 0.2900(2)
C33A C 0.5983(4) 0.8893(3) 0.3232(2)
N1A N 0.4948(3) 0.8451(2) 0.4091(2)
N2A N 0.6971(3) 0.6932(2) 0.34772(17)
O1A O -0.3398(2) 0.3564(2) 1.37662(16)
O1_2 O 0.3398(2) 0.6436(2) 0.62338(16)
O1A_2 O 0.6602(2) 0.3564(2) 0.37662(16)
O2A O -0.4857(2) 0.3608(2) 1.25191(16)
O3A O 0.1802(2) 0.3265(2) 1.01905(15)
O4A O 0.6281(2) 0.44856(16) 0.56519(14)
O5A O 0.8545(2) 0.48375(19) 0.60347(17)
O6A O 0.7123(3) 0.6920(2) 0.5917(2)
H23A H 0.650(5) 0.671(3) 0.649(3)
H24A H 0.772(5) 0.633(4) 0.595(3)
loop_
_geom_bond_atom_site_label_1
_geom_bond_atom_site_label_2
_geom_bond_site_symmetry_1
_geom_bond_site_symmetry_2
Cd1 N1 1_555 1_555
C1 C2 1_555 1_555
C2 C3 1_555 1_555
C3 H1 1_555 1_555
C4 C3 1_555 1_555
H2 C4 1_555 1_555
C5 C4 1_555 1_555
C6 C5 1_555 1_555
H3 C6 1_555 1_555
C7 C2 1_555 1_555
H4 C7 1_555 1_555
C8 H5 1_555 1_555
H6 C8 1_555 1_555
C9 C8 1_555 1_555
C10 C9 1_555 1_555
H7 C10 1_555 1_555
C11 C10 1_555 1_555
H8 C11 1_555 1_555
C12 C11 1_555 1_555
C13 C12 1_555 1_555
H9 C13 1_555 1_555
C14 C9 1_555 1_555
H10 C14 1_555 1_555
C15 C12 1_555 1_555
C16 C15 1_555 1_555
C17 C16 1_555 1_555
H11 C17 1_555 1_555
C18 C17 1_555 1_555
H12 C18 1_555 1_555
C19 C18 1_555 1_555
H13 C19 1_555 1_555
C20 C15 1_555 1_555
H14 C20 1_555 1_555
C21 C16 1_555 1_555
C22 H15 1_555 1_555
C23 C22 1_555 1_555
H16 C23 1_555 1_555
C24 C23 1_555 1_555
H17 C24 1_555 1_555
C25 C24 1_555 1_555
C26 C25 1_555 1_555
H18 C26 1_555 1_555
C27 C26 1_555 1_555
H19 C27 1_555 1_555
C28 C27 1_555 1_555
C29 C28 1_555 1_555
H20 C29 1_555 1_555
C30 C29 1_555 1_555
H21 C30 1_555 1_555
C31 C30 1_555 1_555
H22 C31 1_555 1_555
C32 C28 1_555 1_555
C33 C25 1_555 1_555
N1 C22 1_555 1_555
N2 Cd1 1_555 1_555
O1 C1 1_555 1_555
O2 C1 1_555 1_555
O3 C5 1_555 1_555
O4 Cd1 1_555 1_555
O5 C21 1_555 1_555
O6 Cd1 1_555 1_555
H23 O6 1_555 1_555
H24 O6 1_555 1_555
Cd1A O4 1_555 1_555
Cd1_2 O1A 1_555 1_555
Cd1A_2 O1 1_555 1_555
C1A C2A 1_555 1_555
C2A C3A 1_555 1_555
C3A H1A 1_555 1_555
C4A C3A 1_555 1_555
H2A C4A 1_555 1_555
C5A C4A 1_555 1_555
C6A C5A 1_555 1_555
H3A C6A 1_555 1_555
C7A C2A 1_555 1_555
H4A C7A 1_555 1_555
C8A H5A 1_555 1_555
H6A C8A 1_555 1_555
C9A C8A 1_555 1_555
C10A C9A 1_555 1_555
H7A C10A 1_555 1_555
C11A C10A 1_555 1_555
H8A C11A 1_555 1_555
C12A C11A 1_555 1_555
C13A C12A 1_555 1_555
H9A C13A 1_555 1_555
C14A C9A 1_555 1_555
H10A C14A 1_555 1_555
C15A C12A 1_555 1_555
C16A C15A 1_555 1_555
C17A C16A 1_555 1_555
H11A C17A 1_555 1_555
C18A C17A 1_555 1_555
H12A C18A 1_555 1_555
C19A C18A 1_555 1_555
H13A C19A 1_555 1_555
C20A C15A 1_555 1_555
H14A C20A 1_555 1_555
C21A C16A 1_555 1_555
C22A H15A 1_555 1_555
C23A C22A 1_555 1_555
H16A C23A 1_555 1_555
C24A C23A 1_555 1_555
H17A C24A 1_555 1_555
C25A C24A 1_555 1_555
C26A C25A 1_555 1_555
H18A C26A 1_555 1_555
C27A C26A 1_555 1_555
H19A C27A 1_555 1_555
C28A C27A 1_555 1_555
C29A C28A 1_555 1_555
H20A C29A 1_555 1_555
C30A C29A 1_555 1_555
H21A C30A 1_555 1_555
C31A C30A 1_555 1_555
H22A C31A 1_555 1_555
C32A C28A 1_555 1_555
C33A C25A 1_555 1_555
N1A Cd1A 1_555 1_555
N2A Cd1A 1_555 1_555
O1A C1A 1_555 1_555
O1_2 Cd1A 1_555 1_555
O1A_2 Cd1 1_555 1_555
O2A C1A 1_555 1_555
O3A C5A 1_555 1_555
O4A Cd1 1_555 1_555
O5A C21A 1_555 1_555
O6A Cd1A 1_555 1_555
H23A O6A 1_555 1_555
H24A O6A 1_555 1_555
C6 C7 1_555 1_555
C8 O3 1_555 1_555
C13 C14 1_555 1_555
C19 C20 1_555 1_555
C21 O4 1_555 1_555
C31 N2 1_555 1_555
C32 C33 1_555 1_555
C32 N2 1_555 1_555
C33 N1 1_555 1_555
Cd1A O4A 1_555 1_555
C6A C7A 1_555 1_555
C8A O3A 1_555 1_555
C13A C14A 1_555 1_555
C19A C20A 1_555 1_555
C21A O4A 1_555 1_555
C22A N1A 1_555 1_555
C31A N2A 1_555 1_555
C32A C33A 1_555 1_555
C32A N2A 1_555 1_555
C33A N1A 1_555 1_555

#END
