
#######################################################################
#
#                 Cambridge Crystallographic Data Centre
#                                CCDC 
#
#######################################################################
#
# If this CIF has been generated from an entry in the Cambridge 
# Structural Database, then it will include bibliographic, chemical, 
# crystal, experimental, refinement or atomic coordinate data resulting 
# from the CCDC's data processing and validation procedures.
#
#######################################################################

data_HEFCIF
_symmetry_cell_setting           triclinic
_symmetry_space_group_name_H-M   'P -1'
_symmetry_Int_Tables_number      2
_space_group_name_Hall           '-P 1'
loop_
_symmetry_equiv_pos_site_id
_symmetry_equiv_pos_as_xyz
1 x,y,z
2 -x,-y,-z
_cell_length_a                   7.3355(3)
_cell_length_b                   8.1008(5)
_cell_length_c                   9.3443(10)
_cell_angle_alpha                66.649(2)
_cell_angle_beta                 68.451(2)
_cell_angle_gamma                76.274(5)
_cell_volume                     471.416
loop_
_atom_site_label
_atom_site_type_symbol
_atom_site_fract_x
_atom_site_fract_y
_atom_site_fract_z
Cu1 Cu 1.0000 1.0000 0.0000
N1 N 0.8348(12) 0.7970(18) 0.0255(8)
N2 N 0.5679(9) 0.6500(8) 0.0493(8)
N3 N 0.2451(10) 0.8001(17) 0.0300(9)
N4 N 0.8922(7) 0.9524(7) 0.2462(6)
N5 N 0.8820(12) 0.7887(8) 0.3504(7)
N6 N 0.8051(12) 0.7986(8) 0.5020(7)
C1 C 0.7053(10) 0.7343(12) 0.0361(8)
C2 C 0.3987(10) 0.7373(11) 0.0377(8)
C3 C 0.8214(10) 1.0716(9) 0.3297(7)
C4 C 0.7637(9) 0.9717(8) 0.4973(7)
C5 C 0.6838(10) 1.0480(10) 0.6190(8)
H1 H 0.6445 0.9768 0.7319
C6 C 0.665(2) 1.2304(12) 0.5667(10)
H2 H 0.6108 1.2899 0.6451
C7 C 0.725(3) 1.3351(14) 0.3984(13)
H3 H 0.7116 1.4631 0.3669
C8 C 0.803(2) 1.2572(11) 0.2795(10)
H4 H 0.8419 1.3287 0.1667
C9 C 0.773(3) 0.6352(13) 0.6469(12)
H5 H 0.8364 0.5289 0.6148
H6 H 0.6307 0.6259 0.6983
H7 H 0.8288 0.6410 0.7249
Cu1_2 Cu 0.0000 1.0000 0.0000
Cu1_3 Cu 2.0000 1.0000 0.0000
N1A N 1.1652(12) 1.2030(18) -0.0255(8)
N2A N 1.4321(9) 1.3500(8) -0.0493(8)
N3A N 1.7549(10) 1.1999(17) -0.0300(9)
N3_2 N 1.2451(10) 0.8001(17) 0.0300(9)
N3A_2 N 0.7549(10) 1.1999(17) -0.0300(9)
N4A N 1.1078(7) 1.0476(7) -0.2462(6)
N5A N 1.1180(12) 1.2113(8) -0.3504(7)
N6A N 1.1949(12) 1.2014(8) -0.5020(7)
C1A C 1.2947(10) 1.2657(12) -0.0361(8)
C2A C 1.6013(10) 1.2627(11) -0.0377(8)
C3A C 1.1786(10) 0.9284(9) -0.3297(7)
C4A C 1.2363(9) 1.0283(8) -0.4973(7)
C5A C 1.3162(10) 0.9520(10) -0.6190(8)
H1A H 1.3555 1.0232 -0.7319
C6A C 1.335(2) 0.7696(12) -0.5667(10)
H2A H 1.3892 0.7101 -0.6451
C7A C 1.275(3) 0.6649(14) -0.3984(13)
H3A H 1.2884 0.5369 -0.3669
C8A C 1.197(2) 0.7428(11) -0.2795(10)
H4A H 1.1581 0.6713 -0.1667
C9A C 1.227(3) 1.3648(13) -0.6469(12)
H5A H 1.1636 1.4711 -0.6148
H6A H 1.3693 1.3741 -0.6983
H7A H 1.1712 1.3590 -0.7249
loop_
_geom_bond_atom_site_label_1
_geom_bond_atom_site_label_2
_geom_bond_site_symmetry_1
_geom_bond_site_symmetry_2
Cu1 N1 1_555 1_555
N1 C1 1_555 1_555
N2 C1 1_555 1_555
N3 C2 1_555 1_555
N4 Cu1 1_555 1_555
N5 N4 1_555 1_555
N6 N5 1_555 1_555
C2 N2 1_555 1_555
C3 N4 1_555 1_555
C4 N6 1_555 1_555
C5 C4 1_555 1_555
H1 C5 1_555 1_555
C6 C5 1_555 1_555
H2 C6 1_555 1_555
C7 C6 1_555 1_555
H3 C7 1_555 1_555
C8 C3 1_555 1_555
H4 C8 1_555 1_555
C9 N6 1_555 1_555
H5 C9 1_555 1_555
H6 C9 1_555 1_555
H7 C9 1_555 1_555
Cu1_2 N3 1_555 1_555
Cu1_3 N3A 1_555 1_555
N1A Cu1 1_555 1_555
N2A C1A 1_555 1_555
N3A C2A 1_555 1_555
N3_2 Cu1 1_555 1_555
N3A_2 Cu1 1_555 1_555
N4A Cu1 1_555 1_555
N5A N4A 1_555 1_555
N6A N5A 1_555 1_555
C1A N1A 1_555 1_555
C2A N2A 1_555 1_555
C3A N4A 1_555 1_555
C4A N6A 1_555 1_555
C5A C4A 1_555 1_555
H1A C5A 1_555 1_555
C6A C5A 1_555 1_555
H2A C6A 1_555 1_555
C7A C6A 1_555 1_555
H3A C7A 1_555 1_555
C8A C3A 1_555 1_555
H4A C8A 1_555 1_555
C9A N6A 1_555 1_555
H5A C9A 1_555 1_555
H6A C9A 1_555 1_555
H7A C9A 1_555 1_555
C3 C4 1_555 1_555
C7 C8 1_555 1_555
C3A C4A 1_555 1_555
C7A C8A 1_555 1_555

#END
