
#######################################################################
#
#                 Cambridge Crystallographic Data Centre
#                                CCDC 
#
#######################################################################
#
# If this CIF has been generated from an entry in the Cambridge 
# Structural Database, then it will include bibliographic, chemical, 
# crystal, experimental, refinement or atomic coordinate data resulting 
# from the CCDC's data processing and validation procedures.
#
#######################################################################

data_HEFCUR
_symmetry_cell_setting           monoclinic
_symmetry_space_group_name_H-M   'C 2/c'
_symmetry_Int_Tables_number      15
_space_group_name_Hall           '-C 2yn'
loop_
_symmetry_equiv_pos_site_id
_symmetry_equiv_pos_as_xyz
1 x,y,z
2 1/2+x,1/2+y,z
3 -x,y,1/2-z
4 1/2-x,1/2+y,1/2-z
5 -x,-y,-z
6 1/2-x,1/2-y,-z
7 x,-y,1/2+z
8 1/2+x,1/2-y,1/2+z
_cell_length_a                   16.350(3)
_cell_length_b                   8.1462(16)
_cell_length_c                   14.453(3)
_cell_angle_alpha                90
_cell_angle_beta                 90.03(3)
_cell_angle_gamma                90
_cell_volume                     1925
loop_
_atom_site_label
_atom_site_type_symbol
_atom_site_fract_x
_atom_site_fract_y
_atom_site_fract_z
Cu1 Cu 0.2500 0.2500 0.5000
N1 N 0.2560(3) 0.4221(7) 0.4049(4)
N2 N 0.2681(4) 0.5773(8) 0.2612(4)
N3 N 0.1799(3) 0.5614(8) 0.1228(4)
N4 N 0.1448(3) 0.1685(6) 0.4437(4)
N5 N 0.0942(3) 0.2773(7) 0.4093(3)
N6 N 0.0288(3) 0.1958(6) 0.3753(4)
C1 C 0.2583(4) 0.4900(9) 0.3343(5)
C2 C 0.2188(4) 0.5624(9) 0.1900(5)
C3 C 0.1125(4) 0.0147(8) 0.4329(4)
C4 C 0.1421(4) -0.1415(9) 0.4562(5)
H1 H 0.1943 -0.1555 0.4840
C5 C 0.0928(4) -0.2725(9) 0.4373(4)
H2 H 0.1113 -0.3799 0.4521
C6 C 0.0144(4) -0.2520(9) 0.3960(4)
H3 H -0.0189 -0.3459 0.3860
C7 C -0.0139(4) -0.1028(8) 0.3705(5)
H4 H -0.0656 -0.0900 0.3413
C8 C 0.0365(4) 0.0313(8) 0.3892(4)
C9 C -0.0354(4) 0.2899(8) 0.3290(4)
H5 H -0.0622 0.3634 0.3743
H6 H -0.0773 0.2138 0.3043
C10 C 0.0000 0.3920(12) 0.2500
H7 H 0.0436 0.4637 0.2750
H8 H -0.0436 0.4637 0.2250
Cu1G Cu -0.2500 0.2500 0.0000
N1E N 0.2440(3) 0.0779(7) 0.5951(4)
N2E N 0.2319(4) -0.0773(8) 0.7388(4)
N3E N 0.3201(3) -0.0614(8) 0.8772(4)
N4B N -0.1448(3) 0.1685(6) 0.0563(4)
N4E N 0.3552(3) 0.3315(6) 0.5563(4)
N5B N -0.0942(3) 0.2773(7) 0.0907(3)
N6B N -0.0288(3) 0.1958(6) 0.1247(4)
C1E C 0.2417(4) 0.0100(9) 0.6657(5)
C2E C 0.2812(4) -0.0624(9) 0.8100(5)
C3B C -0.1125(4) 0.0147(8) 0.0671(4)
C4B C -0.1421(4) -0.1415(9) 0.0438(5)
H1B H -0.1943 -0.1555 0.0160
C5B C -0.0928(4) -0.2725(9) 0.0627(4)
H2B H -0.1113 -0.3799 0.0479
C6B C -0.0144(4) -0.2520(9) 0.1040(4)
H3B H 0.0189 -0.3459 0.1140
C7B C 0.0139(4) -0.1028(8) 0.1295(5)
H4B H 0.0656 -0.0900 0.1587
C8B C -0.0365(4) 0.0313(8) 0.1108(4)
C9B C 0.0354(4) 0.2899(8) 0.1710(4)
H5B H 0.0622 0.3634 0.1257
H6B H 0.0773 0.2138 0.1957
loop_
_geom_bond_atom_site_label_1
_geom_bond_atom_site_label_2
_geom_bond_site_symmetry_1
_geom_bond_site_symmetry_2
Cu1 N1 1_555 1_555
N1 C1 1_555 1_555
N2 C1 1_555 1_555
N3 C2 1_555 1_555
N4 Cu1 1_555 1_555
N5 N4 1_555 1_555
N6 N5 1_555 1_555
C2 N2 1_555 1_555
C3 N4 1_555 1_555
C4 C3 1_555 1_555
H1 C4 1_555 1_555
C5 C4 1_555 1_555
H2 C5 1_555 1_555
C6 C5 1_555 1_555
H3 C6 1_555 1_555
C7 C6 1_555 1_555
H4 C7 1_555 1_555
C8 N6 1_555 1_555
C9 N6 1_555 1_555
H5 C9 1_555 1_555
H6 C9 1_555 1_555
C10 C9 1_555 1_555
H7 C10 1_555 1_555
H8 C10 1_555 1_555
Cu1G N4B 1_555 1_555
N1E Cu1 1_555 1_555
N2E C1E 1_555 1_555
N3E C2E 1_555 1_555
N4B N5B 1_555 1_555
N4E Cu1 1_555 1_555
N5B N6B 1_555 1_555
N6B C8B 1_555 1_555
C1E N1E 1_555 1_555
C2E N2E 1_555 1_555
C3B N4B 1_555 1_555
C4B C3B 1_555 1_555
H1B C4B 1_555 1_555
C5B C4B 1_555 1_555
H2B C5B 1_555 1_555
C6B C5B 1_555 1_555
H3B C6B 1_555 1_555
C7B C6B 1_555 1_555
H4B C7B 1_555 1_555
C8B C3B 1_555 1_555
C9B C10 1_555 1_555
H5B C9B 1_555 1_555
H6B C9B 1_555 1_555
C3 C8 1_555 1_555
C7 C8 1_555 1_555
N6B C9B 1_555 1_555
C7B C8B 1_555 1_555

#END
