
#######################################################################
#
#                 Cambridge Crystallographic Data Centre
#                                CCDC 
#
#######################################################################
#
# If this CIF has been generated from an entry in the Cambridge 
# Structural Database, then it will include bibliographic, chemical, 
# crystal, experimental, refinement or atomic coordinate data resulting 
# from the CCDC's data processing and validation procedures.
#
#######################################################################

data_HEFDUT
_symmetry_cell_setting           triclinic
_symmetry_space_group_name_H-M   'P -1'
_symmetry_Int_Tables_number      2
_space_group_name_Hall           '-P 1'
loop_
_symmetry_equiv_pos_site_id
_symmetry_equiv_pos_as_xyz
1 x,y,z
2 -x,-y,-z
_cell_length_a                   18.3226(9)
_cell_length_b                   19.9426(8)
_cell_length_c                   21.8982(9)
_cell_angle_alpha                67.945(2)
_cell_angle_beta                 88.290(3)
_cell_angle_gamma                85.086(3)
_cell_volume                     7388.8
loop_
_atom_site_label
_atom_site_type_symbol
_atom_site_fract_x
_atom_site_fract_y
_atom_site_fract_z
Cd1 Cd 0.94165(2) 0.33369(2) 0.45136(2)
Cd2 Cd 1.03707(2) 0.17781(2) 0.53219(2)
Cd3 Cd 1.45758(2) 0.17139(2) 0.045400(19)
Cd4 Cd 1.28050(3) 0.14578(3) 0.12578(3)
Cd5 Cd 1.45573(2) 0.67036(2) 0.043240(19)
Cl1 Cl 1.26702(16) 0.10952(17) 0.24524(11)
C1 C 1.0991(4) 0.2969(4) 0.4024(3)
C2 C 1.1577(4) 0.3166(4) 0.3510(3)
C3 C 1.1516(5) 0.3845(4) 0.3001(4)
H1 H 1.1119 0.4179 0.2995
C4 C 1.2029(5) 0.4034(4) 0.2506(3)
H2 H 1.1989 0.4500 0.2174
C5 C 1.2609(4) 0.3537(4) 0.2492(3)
C6 C 1.2684(5) 0.2860(4) 0.3014(4)
H3 H 1.3077 0.2521 0.3023
C7 C 1.2175(4) 0.2697(4) 0.3516(4)
H4 H 1.2239 0.2251 0.3874
C8 C 1.3135(4) 0.3723(4) 0.1941(3)
C9 C 1.3375(4) 0.3223(4) 0.1666(3)
H5 H 1.3211 0.2754 0.1842
C10 C 1.3855(4) 0.3399(3) 0.1132(3)
C11 C 1.4120(4) 0.4088(3) 0.0886(3)
H6 H 1.4461 0.4206 0.0540
C12 C 1.3880(4) 0.4595(4) 0.1152(3)
C13 C 1.3387(4) 0.4426(4) 0.1677(4)
H7 H 1.3224 0.4776 0.1853
C14 C 1.4133(4) 0.5350(4) 0.0878(3)
C15 C 0.9128(4) 0.2267(4) 0.4013(3)
C16 C 0.8898(3) 0.1697(4) 0.3774(3)
C17 C 0.9152(3) 0.0976(4) 0.4092(3)
H8 H 0.9496 0.0847 0.4436
C18 C 0.8903(4) 0.0450(3) 0.3908(3)
C19 C 0.8396(4) 0.0640(4) 0.3392(3)
H9 H 0.8224 0.0278 0.3268
C20 C 0.8145(4) 0.1363(4) 0.3062(3)
C21 C 0.8405(4) 0.1884(4) 0.3260(3)
H10 H 0.8241 0.2375 0.3040
C22 C 0.7614(4) 0.1566(4) 0.2508(3)
C23 C 0.7686(5) 0.2169(4) 0.1946(4)
H11 H 0.8074 0.2462 0.1906
C24 C 0.7179(4) 0.2346(4) 0.1431(4)
H12 H 0.7225 0.2762 0.1047
C25 C 0.6611(4) 0.1911(4) 0.1486(4)
C26 C 0.6552(4) 0.1305(4) 0.2047(4)
H13 H 0.6174 0.1003 0.2083
C27 C 0.7041(4) 0.1137(4) 0.2556(4)
H14 H 0.6986 0.0726 0.2942
C28 C 0.6073(4) 0.2113(4) 0.0930(3)
C29 C 0.9081(4) 0.4805(4) 0.4054(3)
C30 C 0.8918(4) 0.5624(4) 0.3750(3)
C31 C 0.9150(3) 0.6048(4) 0.4057(3)
H15 H 0.9379 0.5834 0.4472
C32 C 0.9047(4) 0.6798(4) 0.3755(3)
C33 C 0.9306(4) 0.7252(4) 0.4096(3)
C34 C 0.8727(4) 0.7111(4) 0.3133(3)
H16 H 0.8686 0.7618 0.2918
C35 C 0.8469(4) 0.6688(4) 0.2829(3)
C36 C 0.8579(4) 0.5937(4) 0.3138(3)
H17 H 0.8422 0.5639 0.2930
C37 C 0.8091(4) 0.7032(4) 0.2177(4)
C38 C 0.8358(6) 0.7613(6) 0.1675(5)
H18 H 0.8783 0.7810 0.1741
C39 C 0.7997(6) 0.7907(5) 0.1070(4)
H19 H 0.8186 0.8300 0.0728
C40 C 0.7366(4) 0.7634(4) 0.0962(3)
C41 C 0.7117(5) 0.7052(6) 0.1472(4)
H20 H 0.6698 0.6844 0.1411
C42 C 0.7472(5) 0.6769(5) 0.2071(4)
H21 H 0.7278 0.6382 0.2415
C43 C 0.6983(4) 0.7947(5) 0.0311(4)
C44 C 0.8773(4) 0.2287(4) 0.5794(4)
C45 C 0.8216(4) 0.2048(4) 0.6339(4)
C46 C 0.7561(4) 0.2452(4) 0.6326(4)
H22 H 0.7440 0.2878 0.5959
C47 C 0.7089(4) 0.2233(4) 0.6848(3)
H23 H 0.6652 0.2519 0.6843
C48 C 0.7249(4) 0.1588(4) 0.7389(4)
C49 C 0.7885(5) 0.1180(5) 0.7380(4)
H24 H 0.7996 0.0737 0.7733
C50 C 0.8366(5) 0.1411(5) 0.6859(5)
H25 H 0.8802 0.1125 0.6863
C51 C 0.6741(4) 0.1356(4) 0.7963(3)
C52 C 0.6475(4) 0.1833(4) 0.8253(3)
H26 H 0.6617 0.2311 0.8084
C53 C 0.5998(4) 0.1623(3) 0.8795(3)
C54 C 0.5778(4) 0.0915(3) 0.9027(3)
H27 H 0.5443 0.0766 0.9377
C55 C 0.6053(4) 0.0437(3) 0.8742(3)
C56 C 0.6539(4) 0.0644(4) 0.8218(3)
H28 H 0.6730 0.0308 0.8036
C57 C 0.5808(4) -0.0329(4) 0.8990(3)
C58 C 0.5738(4) 0.2132(4) 0.9113(3)
C59 C 1.4073(4) 0.2848(4) 0.0841(3)
C60 C 0.9186(4) -0.0336(4) 0.4228(3)
O1 O 1.1097(3) 0.2341(3) 0.4489(3)
O2 O 1.0459(3) 0.3421(3) 0.3961(2)
O3 O 1.3767(4) 0.5828(3) 0.1030(4)
O4 O 1.4671(3) 0.5482(3) 0.0530(2)
O5 O 1.4505(3) 0.3016(3) 0.0358(2)
O6 O 1.3834(3) 0.2241(3) 0.1084(2)
O7 O 0.8770(3) 0.4411(3) 0.3816(3)
O8 O 0.9501(3) 0.4547(3) 0.4517(3)
O9 O 0.9671(3) 0.6960(3) 0.4611(3)
O10 O 0.9123(4) 0.7931(3) 0.3866(3)
O11 O 0.7295(4) 0.8302(5) -0.0180(3)
O12 O 0.6304(3) 0.7796(4) 0.0337(3)
O13 O 0.8863(4) 0.2894(3) 0.3783(3)
O14 O 0.9583(5) 0.2059(4) 0.4460(3)
O15 O 0.9822(3) -0.0491(3) 0.4438(3)
O16 O 0.8758(3) -0.0817(3) 0.4293(3)
O17 O 0.6087(3) 0.2732(3) 0.0487(2)
O18 O 0.5637(3) 0.1631(3) 0.0950(3)
O19 O 0.8669(3) 0.2924(3) 0.5365(2)
O20 O 0.9287(4) 0.1827(3) 0.5820(3)
O21 O 0.6115(3) -0.0768(2) 0.8753(2)
O22 O 0.5328(3) -0.0498(3) 0.9420(2)
O23 O 0.5193(3) 0.1985(3) 0.9485(3)
O24 O 0.6068(3) 0.2686(3) 0.8999(3)
O25 O 1.1949(4) 0.0644(5) 0.1269(4)
O26 O 1.1960(5) 0.2467(5) 0.1045(5)
O27 O 1.5572(3) 0.6478(3) 0.1069(3)
Cd1A Cd 1.05835(2) 0.66631(2) 0.54864(2)
Cd2A Cd 0.96293(2) 0.82219(2) 0.46781(2)
Cd2A_2 Cd 0.96293(2) -0.17781(2) 0.46781(2)
Cd3A Cd 0.54242(2) 0.82861(2) -0.045400(19)
Cd3_2 Cd 0.45758(2) 0.17139(2) 0.045400(19)
Cd3A_2 Cd 0.54242(2) -0.17139(2) 0.954600(19)
Cd3_3 Cd 0.45758(2) 0.17139(2) 1.045400(19)
Cd4A Cd 0.71950(3) 0.85422(3) -0.12578(3)
Cd4A_2 Cd 0.71950(3) -0.14578(3) 0.87422(3)
Cd5A Cd 1.54427(2) 0.32964(2) -0.043240(19)
Cd5A_2 Cd 0.54427(2) 0.32964(2) -0.043240(19)
Cd5A_3 Cd 0.54427(2) 0.32964(2) 0.956760(19)
O5A O 1.5495(3) 0.6984(3) -0.0358(2)
O9A O 1.0329(3) 0.3040(3) 0.5389(3)
O10A O 1.0877(4) 0.2069(3) 0.6134(3)
O11A O 1.2705(4) 0.1698(5) 0.0180(3)
O12A O 1.3696(3) 0.2204(4) -0.0337(3)
O15A O 1.0178(3) 0.0491(3) 0.5562(3)
O16A O 1.1242(3) 0.0817(3) 0.5707(3)
O17A O 1.3913(3) 0.7268(3) -0.0487(2)
O18_2 O 1.5637(3) 0.1631(3) 0.0950(3)
O21A O 1.3885(3) 0.0768(2) 0.1247(2)
O22A O 1.4672(3) 0.0498(3) 0.0580(2)
O23_2 O 1.5193(3) 0.1985(3) -0.0515(3)
O24A O 1.3932(3) 0.7314(3) 0.1001(3)
Cd6 Cd 0.52394(3) 0.28813(3) 0.51964(2)
Cl2 Cl 0.59097(12) 0.36938(11) 0.55676(11)
C61 C 0.8852(6) -0.0848(6) 0.5990(6)
H29 H 0.9310 -0.0646 0.5808
H30 H 0.8761 -0.1228 0.5833
H31 H 0.8884 -0.1049 0.6467
C62 C 0.7558(5) -0.0445(5) 0.5779(5)
H32 H 0.7474 -0.0936 0.5888
C63 C 0.6978(5) 0.0049(5) 0.5629(5)
H33 H 0.6503 -0.0090 0.5618
C64 C 0.7097(4) 0.0779(4) 0.5488(3)
C65 C 0.7815(4) 0.0963(5) 0.5459(4)
H34 H 0.7915 0.1452 0.5327
C66 C 0.8382(4) 0.0419(5) 0.5627(4)
H35 H 0.8866 0.0540 0.5633
C67 C 0.6467(4) 0.1355(4) 0.5366(3)
C68 C 0.6376(4) 0.1860(4) 0.4718(4)
C69 C 0.6797(4) 0.1851(4) 0.4159(4)
H36 H 0.7201 0.1526 0.4164
C70 C 0.6502(5) 0.2399(5) 0.3620(4)
H37 H 0.6657 0.2515 0.3182
C71 C 0.5916(4) 0.2764(4) 0.3844(4)
C72 C 0.5438(4) 0.3358(4) 0.3444(3)
C73 C 0.5611(5) 0.3665(5) 0.2739(4)
C74 C 0.5612(6) 0.3254(5) 0.2340(5)
H38 H 0.5492 0.2769 0.2522
C75 C 0.5784(6) 0.3554(6) 0.1701(4)
H39 H 0.5763 0.3276 0.1438
C76 C 0.6203(6) 0.4531(7) 0.0722(4)
H40 H 0.6225 0.5052 0.0581
H41 H 0.5847 0.4430 0.0455
H42 H 0.6681 0.4309 0.0671
C77 C 0.5935(6) 0.4661(5) 0.1778(4)
H43 H 0.6025 0.5153 0.1572
C78 C 0.5760(5) 0.4390(5) 0.2434(4)
H44 H 0.5740 0.4692 0.2677
C79 C 0.4813(4) 0.3687(4) 0.3658(3)
C80 C 0.4279(5) 0.4200(5) 0.3224(4)
H45 H 0.4314 0.4420 0.2763
C81 C 0.3730(4) 0.4307(5) 0.3589(4)
H46 H 0.3300 0.4611 0.3436
C82 C 0.3915(4) 0.3865(4) 0.4280(4)
C83 C 0.3462(4) 0.3798(4) 0.4818(4)
C84 C 0.2777(4) 0.4290(4) 0.4669(3)
C85 C 0.2760(5) 0.5006(5) 0.4616(6)
H47 H 0.3176 0.5181 0.4726
C86 C 0.2147(5) 0.5449(5) 0.4407(6)
H48 H 0.2156 0.5938 0.4356
C87 C 0.0892(5) 0.5748(5) 0.3995(4)
C88 C 0.1522(4) 0.4519(5) 0.4364(4)
H49 H 0.1082 0.4353 0.4287
C89 C 0.2117(5) 0.4039(5) 0.4566(4)
H50 H 0.2088 0.3547 0.4635
C90 C 0.3571(4) 0.3310(4) 0.5480(4)
C91 C 0.3055(5) 0.3217(5) 0.6011(4)
H51 H 0.2603 0.3486 0.5991
C92 C 0.3345(4) 0.2672(5) 0.6540(4)
H52 H 0.3138 0.2497 0.6963
C93 C 0.4031(4) 0.2400(4) 0.6343(3)
C94 C 0.4488(4) 0.1785(4) 0.6721(3)
C95 C 0.4262(4) 0.1418(4) 0.7419(3)
C96 C 0.4233(5) 0.1758(5) 0.7878(4)
H53 H 0.4343 0.2245 0.7744
C97 C 0.4050(4) 0.1389(5) 0.8510(4)
H54 H 0.4036 0.1622 0.8813
C98 C 0.3680(6) 0.0311(6) 0.9420(4)
H55 H 0.3733 -0.0210 0.9534
H56 H 0.3175 0.0460 0.9486
H57 H 0.3998 0.0439 0.9699
C99 C 0.3905(5) 0.0340(5) 0.8305(4)
H58 H 0.3793 -0.0147 0.8459
C100 C 0.4090(4) 0.0686(4) 0.7647(4)
H59 H 0.4100 0.0437 0.7357
C101 C 0.5110(4) 0.1478(4) 0.6532(3)
C102 C 0.5555(4) 0.0828(4) 0.6930(3)
H60 H 0.5467 0.0537 0.7372
C103 C 0.6108(4) 0.0714(4) 0.6561(4)
H61 H 0.6483 0.0337 0.6699
C104 C 0.6023(4) 0.1279(4) 0.5909(3)
N1 N 0.4152(3) 0.2802(3) 0.5697(3)
N2 N 0.4578(3) 0.3506(3) 0.4284(3)
N3 N 0.5855(3) 0.2430(3) 0.4520(3)
N4 N 0.5421(3) 0.1728(3) 0.5913(3)
N5 N 0.1534(4) 0.5234(4) 0.4269(3)
N6 N 0.5982(4) 0.4231(5) 0.1421(3)
N7 N 0.8250(4) -0.0273(4) 0.5780(3)
N8 N 0.3884(4) 0.0684(4) 0.8719(3)
loop_
_geom_bond_atom_site_label_1
_geom_bond_atom_site_label_2
_geom_bond_site_symmetry_1
_geom_bond_site_symmetry_2
Cd1 O2 1_555 1_555
Cd2 O1 1_555 1_555
Cd3 O5 1_555 1_555
Cd4 Cl1 1_555 1_555
Cd5 O3 1_555 1_555
C1 C2 1_555 1_555
C2 C3 1_555 1_555
C3 H1 1_555 1_555
C4 C3 1_555 1_555
H2 C4 1_555 1_555
C5 C4 1_555 1_555
C6 C5 1_555 1_555
H3 C6 1_555 1_555
C7 C2 1_555 1_555
H4 C7 1_555 1_555
C8 C5 1_555 1_555
C9 C8 1_555 1_555
H5 C9 1_555 1_555
C10 C9 1_555 1_555
C11 C10 1_555 1_555
H6 C11 1_555 1_555
C12 C11 1_555 1_555
C13 C8 1_555 1_555
H7 C13 1_555 1_555
C14 C12 1_555 1_555
C15 C16 1_555 1_555
C16 C17 1_555 1_555
C17 H8 1_555 1_555
C18 C17 1_555 1_555
C19 C18 1_555 1_555
H9 C19 1_555 1_555
C20 C19 1_555 1_555
C21 C16 1_555 1_555
H10 C21 1_555 1_555
C22 C20 1_555 1_555
C23 C22 1_555 1_555
H11 C23 1_555 1_555
C24 C23 1_555 1_555
H12 C24 1_555 1_555
C25 C24 1_555 1_555
C26 C25 1_555 1_555
H13 C26 1_555 1_555
C27 C22 1_555 1_555
H14 C27 1_555 1_555
C28 C25 1_555 1_555
C29 C30 1_555 1_555
C30 C31 1_555 1_555
C31 H15 1_555 1_555
C32 C31 1_555 1_555
C33 C32 1_555 1_555
C34 C32 1_555 1_555
H16 C34 1_555 1_555
C35 C34 1_555 1_555
C36 C30 1_555 1_555
H17 C36 1_555 1_555
C37 C35 1_555 1_555
C38 C37 1_555 1_555
H18 C38 1_555 1_555
C39 C38 1_555 1_555
H19 C39 1_555 1_555
C40 C39 1_555 1_555
C41 C40 1_555 1_555
H20 C41 1_555 1_555
C42 C37 1_555 1_555
H21 C42 1_555 1_555
C43 C40 1_555 1_555
C44 C45 1_555 1_555
C45 C46 1_555 1_555
C46 H22 1_555 1_555
C47 C46 1_555 1_555
H23 C47 1_555 1_555
C48 C47 1_555 1_555
C49 C48 1_555 1_555
H24 C49 1_555 1_555
C50 C45 1_555 1_555
H25 C50 1_555 1_555
C51 C48 1_555 1_555
C52 C51 1_555 1_555
H26 C52 1_555 1_555
C53 C52 1_555 1_555
C54 C53 1_555 1_555
H27 C54 1_555 1_555
C55 C54 1_555 1_555
C56 C51 1_555 1_555
H28 C56 1_555 1_555
C57 C55 1_555 1_555
C58 C53 1_555 1_555
C59 C10 1_555 1_555
C60 C18 1_555 1_555
O1 C1 1_555 1_555
O2 C1 1_555 1_555
O3 C14 1_555 1_555
O4 Cd5 1_555 1_555
O5 C59 1_555 1_555
O6 Cd3 1_555 1_555
O7 Cd1 1_555 1_555
O8 Cd1 1_555 1_555
O9 C33 1_555 1_555
O10 C33 1_555 1_555
O11 C43 1_555 1_555
O12 C43 1_555 1_555
O13 Cd1 1_555 1_555
O14 Cd1 1_555 1_555
O15 C60 1_555 1_555
O16 C60 1_555 1_555
O17 C28 1_555 1_555
O18 C28 1_555 1_555
O19 Cd1 1_555 1_555
O20 Cd2 1_555 1_555
O21 C57 1_555 1_555
O22 C57 1_555 1_555
O23 C58 1_555 1_555
O24 C58 1_555 1_555
O25 Cd4 1_555 1_555
O26 Cd4 1_555 1_555
O27 Cd5 1_555 1_555
Cd6 Cl2 1_555 1_555
C61 H29 1_555 1_555
H30 C61 1_555 1_555
H31 C61 1_555 1_555
C62 H32 1_555 1_555
C63 C62 1_555 1_555
H33 C63 1_555 1_555
C64 C63 1_555 1_555
C65 C64 1_555 1_555
H34 C65 1_555 1_555
C66 C65 1_555 1_555
H35 C66 1_555 1_555
C67 C64 1_555 1_555
C68 C67 1_555 1_555
C69 C68 1_555 1_555
H36 C69 1_555 1_555
C70 C69 1_555 1_555
H37 C70 1_555 1_555
C71 C70 1_555 1_555
C72 C71 1_555 1_555
C73 C72 1_555 1_555
C74 C73 1_555 1_555
H38 C74 1_555 1_555
C75 C74 1_555 1_555
H39 C75 1_555 1_555
C76 H40 1_555 1_555
H41 C76 1_555 1_555
H42 C76 1_555 1_555
C77 H43 1_555 1_555
C78 C73 1_555 1_555
H44 C78 1_555 1_555
C79 C72 1_555 1_555
C80 C79 1_555 1_555
H45 C80 1_555 1_555
C81 C80 1_555 1_555
H46 C81 1_555 1_555
C82 C81 1_555 1_555
C83 C82 1_555 1_555
C84 C83 1_555 1_555
C85 C84 1_555 1_555
H47 C85 1_555 1_555
C86 C85 1_555 1_555
H48 C86 1_555 1_555
C87 N5 1_555 1_555
C88 H49 1_555 1_555
C89 C84 1_555 1_555
H50 C89 1_555 1_555
C90 C83 1_555 1_555
C91 C90 1_555 1_555
H51 C91 1_555 1_555
C92 C91 1_555 1_555
H52 C92 1_555 1_555
C93 C92 1_555 1_555
C94 C93 1_555 1_555
C95 C94 1_555 1_555
C96 C95 1_555 1_555
H53 C96 1_555 1_555
C97 C96 1_555 1_555
H54 C97 1_555 1_555
C98 H55 1_555 1_555
H56 C98 1_555 1_555
H57 C98 1_555 1_555
C99 H58 1_555 1_555
C100 C95 1_555 1_555
H59 C100 1_555 1_555
C101 C94 1_555 1_555
C102 C101 1_555 1_555
H60 C102 1_555 1_555
C103 C102 1_555 1_555
H61 C103 1_555 1_555
C104 C67 1_555 1_555
N1 Cd6 1_555 1_555
N2 Cd6 1_555 1_555
N3 Cd6 1_555 1_555
N4 Cd6 1_555 1_555
N5 C86 1_555 1_555
N6 C75 1_555 1_555
N7 C61 1_555 1_555
N8 C97 1_555 1_555
Cd1A O9 1_555 1_555
Cd2A O9 1_555 1_555
Cd2A_2 O15 1_555 1_555
Cd3A O12 1_555 1_555
Cd3_2 O18 1_555 1_555
Cd3A_2 O21 1_555 1_555
Cd3_3 O23 1_555 1_555
Cd4A O11 1_555 1_555
Cd4A_2 O21 1_555 1_555
Cd5A O5 1_555 1_555
Cd5A_2 O17 1_555 1_555
Cd5A_3 O24 1_555 1_555
O5A Cd5 1_555 1_555
O9A Cd1 1_555 1_555
O10A Cd2 1_555 1_555
O11A Cd4 1_555 1_555
O12A Cd3 1_555 1_555
O15A Cd2 1_555 1_555
O16A Cd2 1_555 1_555
O17A Cd5 1_555 1_555
O18_2 Cd3 1_555 1_555
O21A Cd3 1_555 1_555
O22A Cd3 1_555 1_555
O23_2 Cd3 1_555 1_555
O24A Cd5 1_555 1_555
Cd2 O14 1_555 1_555
Cd2 O9A 1_555 1_555
Cd4 O6 1_555 1_555
Cd4 O21A 1_555 1_555
C6 C7 1_555 1_555
C12 C13 1_555 1_555
C14 O4 1_555 1_555
C15 O13 1_555 1_555
C15 O14 1_555 1_555
C20 C21 1_555 1_555
C26 C27 1_555 1_555
C29 O7 1_555 1_555
C29 O8 1_555 1_555
C35 C36 1_555 1_555
C41 C42 1_555 1_555
C44 O19 1_555 1_555
C44 O20 1_555 1_555
C49 C50 1_555 1_555
C55 C56 1_555 1_555
C59 O6 1_555 1_555
O10 Cd2A 1_555 1_555
O16 Cd2A_2 1_555 1_555
O22 Cd3A_2 1_555 1_555
C62 N7 1_555 1_555
C66 N7 1_555 1_555
C68 N3 1_555 1_555
C71 N3 1_555 1_555
C76 N6 1_555 1_555
C77 C78 1_555 1_555
C77 N6 1_555 1_555
C79 N2 1_555 1_555
C82 N2 1_555 1_555
C88 C89 1_555 1_555
C88 N5 1_555 1_555
C90 N1 1_555 1_555
C93 N1 1_555 1_555
C98 N8 1_555 1_555
C99 C100 1_555 1_555
C99 N8 1_555 1_555
C101 N4 1_555 1_555
C103 C104 1_555 1_555
C104 N4 1_555 1_555

#END
