
#######################################################################
#
#                 Cambridge Crystallographic Data Centre
#                                CCDC 
#
#######################################################################
#
# If this CIF has been generated from an entry in the Cambridge 
# Structural Database, then it will include bibliographic, chemical, 
# crystal, experimental, refinement or atomic coordinate data resulting 
# from the CCDC's data processing and validation procedures.
#
#######################################################################

data_HEFDEC
_symmetry_cell_setting           triclinic
_symmetry_space_group_name_H-M   'P -1'
_symmetry_Int_Tables_number      2
_space_group_name_Hall           '-P 1'
loop_
_symmetry_equiv_pos_site_id
_symmetry_equiv_pos_as_xyz
1 x,y,z
2 -x,-y,-z
_cell_length_a                   9.2311(2)
_cell_length_b                   9.6677(2)
_cell_length_c                   12.2370(5)
_cell_angle_alpha                91.8360(10)
_cell_angle_beta                 93.6320(10)
_cell_angle_gamma                116.6560(10)
_cell_volume                     971.802
loop_
_atom_site_label
_atom_site_type_symbol
_atom_site_fract_x
_atom_site_fract_y
_atom_site_fract_z
Co1 Co 0.5000 0.5000 0.0000
Co2 Co 0.5000 0.0000 0.5000
N1 N 0.4103(8) 0.2573(8) 0.0267(6)
N2 N 0.4993(9) 0.1039(8) 0.1437(6)
N3 N 0.4555(9) 0.0402(8) 0.3357(6)
N4 N 0.4209(9) 0.5210(8) 0.1529(6)
N5 N 0.3969(11) 0.5287(9) 0.3530(6)
N6 N 0.4699(9) 0.7795(8) 0.4503(6)
N7 N 0.7304(8) 0.5452(8) 0.0808(5)
N8 N 0.7297(8) 0.4885(8) 0.1794(5)
N9 N 0.8851(8) 0.5346(8) 0.2179(5)
N10 N 0.9837(8) 0.7751(8) 0.4948(6)
N11 N 1.1301(8) 0.8066(8) 0.4600(6)
N12 N 1.2421(8) 0.9067(8) 0.5299(5)
C1 C 0.4480(10) 0.1874(9) 0.0865(7)
C2 C 0.4715(10) 0.0765(9) 0.2454(7)
C3 C 0.4110(10) 0.5278(9) 0.2459(7)
C4 C 0.4375(9) 0.6649(9) 0.4018(6)
C5 C 0.8887(10) 0.6265(9) 0.0568(7)
C6 C 0.9530(11) 0.7056(10) -0.0365(7)
H1 H 0.8858 0.7117 -0.0964
C7 C 1.1199(11) 0.7737(10) -0.0354(8)
H2 H 1.1686 0.8268 -0.0974
C8 C 1.2230(11) 0.7684(10) 0.0541(8)
H3 H 1.3375 0.8170 0.0500
C9 C 1.1600(10) 0.6941(10) 0.1464(7)
H4 H 1.2279 0.6924 0.2075
C10 C 0.9900(10) 0.6209(9) 0.1453(6)
C11 C 0.9211(10) 0.4882(10) 0.3242(7)
H5 H 1.0373 0.5534 0.3491
H6 H 0.9022 0.3790 0.3166
C12 C 0.8162(11) 0.5041(10) 0.4103(7)
H7 H 0.8446 0.4702 0.4805
H8 H 0.7007 0.4331 0.3871
C13 C 0.8334(10) 0.6689(10) 0.4307(7)
H9 H 0.8285 0.7119 0.3589
H10 H 0.7399 0.6626 0.4694
C14 C 0.9998(10) 0.8588(9) 0.5908(7)
C15 C 0.8883(11) 0.8718(10) 0.6585(7)
H11 H 0.7740 0.8160 0.6409
C16 C 0.9539(11) 0.9695(10) 0.7513(7)
H12 H 0.8832 0.9833 0.7988
C17 C 1.1242(11) 1.0505(10) 0.7781(7)
H13 H 1.1640 1.1145 0.8444
C18 C 1.2348(10) 1.0397(9) 0.7114(7)
H14 H 1.3489 1.0950 0.7297
C19 C 1.1683(10) 0.9422(9) 0.6148(7)
Co2_2 Co 0.5000 1.0000 0.5000
Co2_3 Co 1.5000 1.0000 0.5000
Co2_4 Co 0.5000 1.0000 -0.5000
Co2_5 Co 0.5000 0.0000 -0.5000
Co2_6 Co -0.5000 0.0000 -0.5000
N1A N 0.5897(8) 0.7427(8) -0.0267(6)
N2A N 0.5007(9) 0.8961(8) -0.1437(6)
N3A N 0.5445(9) 0.9598(8) -0.3357(6)
N3A_2 N 0.5445(9) -0.0402(8) 0.6643(6)
N4A N 0.5791(9) 0.4790(8) -0.1529(6)
N5A N 0.6031(11) 0.4713(9) -0.3530(6)
N6A N 0.5301(9) 0.2205(8) -0.4503(6)
N6_2 N 0.4699(9) -0.2205(8) 0.4503(6)
N6A_2 N 0.5301(9) 0.2205(8) 0.5497(6)
N7A N 0.2696(8) 0.4548(8) -0.0808(5)
N8A N 0.2703(8) 0.5115(8) -0.1794(5)
N9A N 0.1149(8) 0.4654(8) -0.2179(5)
N10A N 0.0163(8) 0.2249(8) -0.4948(6)
N11A N -0.1301(8) 0.1934(8) -0.4600(6)
N12A N -0.2421(8) 0.0933(8) -0.5299(5)
N12_2 N 0.2421(8) -0.0933(8) 0.5299(5)
N12A_2 N 0.7579(8) 0.0933(8) 0.4701(5)
C1A C 0.5520(10) 0.8126(9) -0.0865(7)
C2A C 0.5285(10) 0.9235(9) -0.2454(7)
C3A C 0.5890(10) 0.4722(9) -0.2459(7)
C4A C 0.5625(9) 0.3351(9) -0.4018(6)
C5A C 0.1113(10) 0.3735(9) -0.0568(7)
C6A C 0.0470(11) 0.2944(10) 0.0365(7)
H1A H 0.1142 0.2883 0.0964
C7A C -0.1199(11) 0.2263(10) 0.0354(8)
H2A H -0.1686 0.1732 0.0974
C8A C -0.2230(11) 0.2316(10) -0.0541(8)
H3A H -0.3375 0.1830 -0.0500
C9A C -0.1600(10) 0.3059(10) -0.1464(7)
H4A H -0.2279 0.3076 -0.2075
C10A C 0.0100(10) 0.3791(9) -0.1453(6)
C11A C 0.0789(10) 0.5118(10) -0.3242(7)
H5A H -0.0373 0.4466 -0.3491
H6A H 0.0978 0.6210 -0.3166
C12A C 0.1838(11) 0.4959(10) -0.4103(7)
H7A H 0.1554 0.5298 -0.4805
H8A H 0.2993 0.5669 -0.3871
C13A C 0.1666(10) 0.3311(10) -0.4307(7)
H9A H 0.1715 0.2881 -0.3589
H10A H 0.2601 0.3374 -0.4694
C14A C 0.0002(10) 0.1412(9) -0.5908(7)
C15A C 0.1117(11) 0.1282(10) -0.6585(7)
H11A H 0.2260 0.1840 -0.6409
C16A C 0.0461(11) 0.0305(10) -0.7513(7)
H12A H 0.1168 0.0167 -0.7988
C17A C -0.1242(11) -0.0505(10) -0.7781(7)
H13A H -0.1640 -0.1145 -0.8444
C18A C -0.2348(10) -0.0397(9) -0.7114(7)
H14A H -0.3489 -0.0950 -0.7297
C19A C -0.1683(10) 0.0578(9) -0.6148(7)
loop_
_geom_bond_atom_site_label_1
_geom_bond_atom_site_label_2
_geom_bond_site_symmetry_1
_geom_bond_site_symmetry_2
Co1 N1 1_555 1_555
Co2 N3 1_555 1_555
N1 C1 1_555 1_555
N2 C1 1_555 1_555
N3 C2 1_555 1_555
N4 Co1 1_555 1_555
N5 C3 1_555 1_555
N6 C4 1_555 1_555
N7 Co1 1_555 1_555
N8 N7 1_555 1_555
N9 N8 1_555 1_555
N10 N11 1_555 1_555
N11 N12 1_555 1_555
N12 C19 1_555 1_555
C2 N2 1_555 1_555
C3 N4 1_555 1_555
C4 N5 1_555 1_555
C5 N7 1_555 1_555
C6 C5 1_555 1_555
H1 C6 1_555 1_555
C7 C6 1_555 1_555
H2 C7 1_555 1_555
C8 C7 1_555 1_555
H3 C8 1_555 1_555
C9 C8 1_555 1_555
H4 C9 1_555 1_555
C10 N9 1_555 1_555
C11 N9 1_555 1_555
H5 C11 1_555 1_555
H6 C11 1_555 1_555
C12 C11 1_555 1_555
H7 C12 1_555 1_555
H8 C12 1_555 1_555
C13 N10 1_555 1_555
H9 C13 1_555 1_555
H10 C13 1_555 1_555
C14 N10 1_555 1_555
C15 C14 1_555 1_555
H11 C15 1_555 1_555
C16 C15 1_555 1_555
H12 C16 1_555 1_555
C17 C16 1_555 1_555
H13 C17 1_555 1_555
C18 C17 1_555 1_555
H14 C18 1_555 1_555
C19 C14 1_555 1_555
Co2_2 N6 1_555 1_555
Co2_3 N12 1_555 1_555
Co2_4 N3A 1_555 1_555
Co2_5 N6A 1_555 1_555
Co2_6 N12A 1_555 1_555
N1A Co1 1_555 1_555
N2A C1A 1_555 1_555
N3A C2A 1_555 1_555
N3A_2 Co2 1_555 1_555
N4A Co1 1_555 1_555
N5A C3A 1_555 1_555
N6A C4A 1_555 1_555
N6_2 Co2 1_555 1_555
N6A_2 Co2 1_555 1_555
N7A Co1 1_555 1_555
N8A N7A 1_555 1_555
N9A N8A 1_555 1_555
N10A N11A 1_555 1_555
N11A N12A 1_555 1_555
N12A C19A 1_555 1_555
N12_2 Co2 1_555 1_555
N12A_2 Co2 1_555 1_555
C1A N1A 1_555 1_555
C2A N2A 1_555 1_555
C3A N4A 1_555 1_555
C4A N5A 1_555 1_555
C5A N7A 1_555 1_555
C6A C5A 1_555 1_555
H1A C6A 1_555 1_555
C7A C6A 1_555 1_555
H2A C7A 1_555 1_555
C8A C7A 1_555 1_555
H3A C8A 1_555 1_555
C9A C8A 1_555 1_555
H4A C9A 1_555 1_555
C10A N9A 1_555 1_555
C11A N9A 1_555 1_555
H5A C11A 1_555 1_555
H6A C11A 1_555 1_555
C12A C11A 1_555 1_555
H7A C12A 1_555 1_555
H8A C12A 1_555 1_555
C13A N10A 1_555 1_555
H9A C13A 1_555 1_555
H10A C13A 1_555 1_555
C14A N10A 1_555 1_555
C15A C14A 1_555 1_555
H11A C15A 1_555 1_555
C16A C15A 1_555 1_555
H12A C16A 1_555 1_555
C17A C16A 1_555 1_555
H13A C17A 1_555 1_555
C18A C17A 1_555 1_555
H14A C18A 1_555 1_555
C19A C14A 1_555 1_555
C5 C10 1_555 1_555
C9 C10 1_555 1_555
C12 C13 1_555 1_555
C18 C19 1_555 1_555
C5A C10A 1_555 1_555
C9A C10A 1_555 1_555
C12A C13A 1_555 1_555
C18A C19A 1_555 1_555

#END
