
#######################################################################
#
#                 Cambridge Crystallographic Data Centre
#                                CCDC 
#
#######################################################################
#
# If this CIF has been generated from an entry in the Cambridge 
# Structural Database, then it will include bibliographic, chemical, 
# crystal, experimental, refinement or atomic coordinate data resulting 
# from the CCDC's data processing and validation procedures.
#
#######################################################################

data_HEFDED
_symmetry_cell_setting           rhombohedral
_symmetry_space_group_name_H-M   'R -3'
_symmetry_Int_Tables_number      148
_space_group_name_Hall           '-R 3'
loop_
_symmetry_equiv_pos_site_id
_symmetry_equiv_pos_as_xyz
1 x,y,z
2 -y,x-y,z
3 -x+y,-x,z
4 1/3+x,2/3+y,2/3+z
5 1/3-y,2/3+x-y,2/3+z
6 1/3-x+y,2/3-x,2/3+z
7 2/3+x,1/3+y,1/3+z
8 2/3-y,1/3+x-y,1/3+z
9 2/3-x+y,1/3-x,1/3+z
10 -x,-y,-z
11 y,-x+y,-z
12 x-y,x,-z
13 2/3-x,1/3-y,1/3-z
14 2/3+y,1/3-x+y,1/3-z
15 2/3+x-y,1/3+x,1/3-z
16 1/3-x,2/3-y,2/3-z
17 1/3+y,2/3-x+y,2/3-z
18 1/3+x-y,2/3+x,2/3-z
_cell_length_a                   32.089(3)
_cell_length_b                   32.089(3)
_cell_length_c                   53.420(11)
_cell_angle_alpha                90
_cell_angle_beta                 90
_cell_angle_gamma                120
_cell_volume                     47637.3
loop_
_atom_site_label
_atom_site_type_symbol
_atom_site_fract_x
_atom_site_fract_y
_atom_site_fract_z
Mo1 Mo 0.86604(3) 0.17136(3) 0.054087(14)
Mo2 Mo 0.53000(3) -0.03405(3) 0.112444(17)
Mn1 Mn 0.88543(7) 0.34676(6) 0.05488(3)
Mn2 Mn 0.78118(5) 0.00006(5) 0.01155(2)
Mn3 Mn 0.71566(5) 0.10227(5) 0.11076(3)
Mn4 Mn 0.56483(5) -0.12885(5) 0.17985(3)
O1 O 0.8719(3) 0.4087(3) 0.0637(3)
H1 H 0.8944 0.4339 0.0583
N1 N 0.7896(3) 0.0609(3) 0.03524(14)
N2 N 0.7843(3) 0.1627(3) 0.09444(17)
N3 N 0.8039(7) 0.1788(4) 0.0068(3)
N4 N 0.8928(4) 0.2830(3) 0.04774(17)
N5 N 0.9694(4) 0.2405(3) 0.08380(18)
N6 N 0.9396(3) 0.1663(3) 0.01263(15)
N7 N 0.8847(3) 0.0972(3) 0.09011(17)
N8 N 0.6458(3) 0.0396(3) 0.12280(15)
N9 N 0.5855(4) -0.0847(4) 0.0838(2)
N10 N 0.5181(3) -0.1137(3) 0.15563(17)
N11 N 0.4485(3) -0.1222(3) 0.07689(19)
N12 N 0.4231(3) -0.0546(3) 0.12922(16)
N13 N 0.5415(4) 0.0387(6) 0.1592(3)
N14 N 0.5440(4) 0.0478(4) 0.0712(3)
N15 N 0.8052(5) 0.2895(5) 0.0642(3)
N16 N 0.8845(5) 0.3364(5) 0.0980(2)
N17 N 0.9636(4) 0.3893(4) 0.0680(2)
N18 N 0.9338(5) 0.3919(4) 0.0233(2)
N19 N 0.8422(5) 0.3359(5) 0.0190(3)
N20 N 0.7631(4) 0.0285(4) -0.02444(17)
N21 N 0.8558(3) 0.0552(3) -0.00451(18)
N22 N 0.8397(3) -0.0030(3) 0.03583(17)
N23 N 0.7471(3) -0.0531(3) 0.04302(15)
N24 N 0.7003(3) -0.0302(3) 0.01159(17)
N25 N 0.6954(4) 0.1559(4) 0.1268(2)
N26 N 0.7448(3) 0.1214(4) 0.14964(17)
N27 N 0.7540(3) 0.0604(4) 0.1210(2)
N28 N 0.7135(3) 0.0600(4) 0.07581(17)
N29 N 0.6653(4) 0.1112(4) 0.0821(3)
N30 N 0.5366(3) -0.2054(3) 0.16430(18)
N31 N 0.6112(3) -0.1171(4) 0.14446(18)
N32 N 0.6253(3) -0.0500(3) 0.17986(15)
N33 N 0.5549(3) -0.0883(3) 0.21163(14)
N34 N 0.5006(3) -0.1805(3) 0.20403(17)
C1 C 0.8160(3) 0.0992(3) 0.04232(15)
C2 C 0.8145(3) 0.1676(3) 0.08092(17)
C3 C 0.8263(6) 0.1764(4) 0.0231(3)
C4 C 0.8847(4) 0.2441(3) 0.04965(18)
C5 C 0.9321(4) 0.2162(4) 0.0748(2)
C6 C 0.9136(3) 0.1694(3) 0.02685(17)
C7 C 0.8775(3) 0.1228(3) 0.07779(18)
C8 C 0.6054(4) 0.0124(3) 0.11976(18)
C9 C 0.5674(3) -0.0653(4) 0.0930(2)
C10 C 0.5216(3) -0.0858(4) 0.1410(2)
C11 C 0.4767(4) -0.0915(4) 0.0887(2)
C12 C 0.4597(3) -0.0461(3) 0.12282(19)
C13 C 0.5374(4) 0.0107(6) 0.1417(3)
C14 C 0.5390(4) 0.0169(4) 0.0850(3)
C15 C 0.7986(7) 0.2892(7) 0.0896(4)
H2 H 0.7693 0.2598 0.0939
H3 H 0.7940 0.3160 0.0938
C16 C 0.8388(7) 0.2923(6) 0.1054(4)
H4 H 0.8418 0.2640 0.1030
H5 H 0.8322 0.2941 0.1230
C17 C 0.9298(7) 0.3397(9) 0.1037(3)
H6 H 0.9326 0.3384 0.1217
H7 H 0.9299 0.3118 0.0966
C18 C 0.9697(6) 0.3810(7) 0.0948(3)
H8 H 0.9981 0.3779 0.0966
H9 H 0.9745 0.4084 0.1046
C19 C 0.9973(5) 0.4171(5) 0.0537(3)
C20 C 1.0476(5) 0.4467(8) 0.0615(4)
H10 H 1.0587 0.4798 0.0575
H11 H 1.0670 0.4362 0.0528
H12 H 1.0502 0.4434 0.0792
C21 C 0.9815(6) 0.4194(5) 0.0282(3)
C22 C 1.0109(8) 0.4469(6) 0.0087(5)
H13 H 1.0436 0.4671 0.0115
C23 C 0.9908(10) 0.4444(7) -0.0160(4)
H14 H 1.0110 0.4621 -0.0291
C24 C 0.9421(9) 0.4161(7) -0.0201(4)
H15 H 0.9280 0.4141 -0.0356
C25 C 0.9160(7) 0.3907(6) 0.0006(4)
C26 C 0.8629(9) 0.3569(7) -0.0006(4)
C27 C 0.8327(9) 0.3482(10) -0.0241(4)
H16 H 0.8289 0.3202 -0.0326
H17 H 0.8486 0.3756 -0.0350
H18 H 0.8017 0.3434 -0.0196
C28 C 0.7891(8) 0.2998(8) 0.0216(5)
H19 H 0.7703 0.3098 0.0117
H20 H 0.7824 0.2684 0.0157
C29 C 0.7764(7) 0.2971(11) 0.0480(5)
H21 H 0.7775 0.3269 0.0526
H22 H 0.7435 0.2713 0.0501
C30 C 0.6812(4) -0.0122(4) -0.0076(2)
H23 H 0.6568 -0.0064 -0.0005
H24 H 0.6663 -0.0361 -0.0208
C31 C 0.7214(5) 0.0339(5) -0.0185(2)
H25 H 0.7102 0.0421 -0.0336
H26 H 0.7307 0.0599 -0.0066
C32 C 0.8059(6) 0.0699(5) -0.0332(3)
H27 H 0.8119 0.0978 -0.0234
H28 H 0.8018 0.0761 -0.0505
C33 C 0.8491(6) 0.0615(5) -0.0309(3)
H29 H 0.8429 0.0330 -0.0402
H30 H 0.8779 0.0888 -0.0376
C34 C 0.8891(4) 0.0389(5) -0.0002(3)
H31 H 0.9211 0.0632 -0.0054
H32 H 0.8798 0.0098 -0.0097
C35 C 0.8885(4) 0.0290(5) 0.0277(2)
H33 H 0.9082 0.0145 0.0310
H34 H 0.9019 0.0590 0.0369
C36 C 0.8283(5) -0.0268(5) 0.0554(2)
C37 C 0.8617(7) -0.0290(7) 0.0749(3)
H35 H 0.8608 -0.0592 0.0736
H36 H 0.8514 -0.0258 0.0913
H37 H 0.8939 -0.0032 0.0721
C38 C 0.7753(4) -0.0574(4) 0.06022(17)
C39 C 0.7543(7) -0.0890(5) 0.0801(2)
H38 H 0.7732 -0.0923 0.0922
C40 C 0.7031(7) -0.1161(5) 0.0815(3)
H39 H 0.6882 -0.1374 0.0947
C41 C 0.6769(5) -0.1111(5) 0.0641(3)
H40 H 0.6435 -0.1294 0.0647
C42 C 0.6996(4) -0.0778(4) 0.0444(2)
C43 C 0.6736(4) -0.0667(4) 0.0252(2)
C44 C 0.6198(4) -0.0964(5) 0.0231(3)
H41 H 0.6112 -0.1065 0.0060
H42 H 0.6057 -0.0775 0.0282
H43 H 0.6083 -0.1242 0.0336
C45 C 0.6736(6) 0.0958(8) 0.0571(3)
H44 H 0.6477 0.0905 0.0458
H45 H 0.7036 0.1209 0.0501
C46 C 0.6755(7) 0.0513(7) 0.0597(3)
H46 H 0.6454 0.0260 0.0666
H47 H 0.6805 0.0410 0.0435
C47 C 0.7133(6) 0.0169(5) 0.0836(3)
H48 H 0.7173 0.0010 0.0691
H49 H 0.6826 -0.0050 0.0913
C48 C 0.7544(5) 0.0293(5) 0.1024(3)
H50 H 0.7502 0.0001 0.1101
H51 H 0.7851 0.0448 0.0937
C49 C 0.7765(4) 0.0702(6) 0.1423(3)
C50 C 0.8079(6) 0.0504(9) 0.1513(4)
H52 H 0.8018 0.0230 0.1413
H53 H 0.8007 0.0409 0.1685
H54 H 0.8411 0.0748 0.1498
C51 C 0.7707(4) 0.1042(5) 0.1588(2)
C52 C 0.7910(4) 0.1186(6) 0.1841(3)
H55 H 0.8112 0.1085 0.1909
C53 C 0.7787(5) 0.1473(7) 0.1966(3)
H56 H 0.7896 0.1554 0.2130
C54 C 0.7512(5) 0.1654(7) 0.1870(3)
H57 H 0.7450 0.1865 0.1961
C55 C 0.7334(4) 0.1505(5) 0.1634(2)
C56 C 0.7024(5) 0.1640(6) 0.1495(3)
C57 C 0.6821(10) 0.1902(12) 0.1665(6)
H58 H 0.6949 0.2227 0.1609
H59 H 0.6915 0.1902 0.1836
H60 H 0.6476 0.1735 0.1654
C58 C 0.6650(6) 0.1669(6) 0.1107(4)
H61 H 0.6315 0.1466 0.1154
H62 H 0.6734 0.2002 0.1132
C59 C 0.6711(6) 0.1592(7) 0.0849(4)
H63 H 0.7029 0.1834 0.0793
H64 H 0.6474 0.1618 0.0748
C60 C 0.4917(3) -0.1654(4) 0.2245(2)
C61 C 0.4554(5) -0.1959(5) 0.2437(2)
H65 H 0.4400 -0.2290 0.2387
H66 H 0.4317 -0.1861 0.2453
H67 H 0.4711 -0.1921 0.2595
C62 C 0.5207(3) -0.1128(4) 0.22916(18)
C63 C 0.5155(4) -0.0891(5) 0.2497(2)
H68 H 0.4924 -0.1058 0.2619
C64 C 0.5448(5) -0.0412(5) 0.2512(2)
H69 H 0.5415 -0.0247 0.2647
C65 C 0.5791(4) -0.0161(4) 0.2339(2)
H70 H 0.5988 0.0171 0.2354
C66 C 0.5842(3) -0.0408(3) 0.21368(19)
C67 C 0.6217(3) -0.0193(3) 0.19380(19)
C68 C 0.6501(4) 0.0349(4) 0.1913(3)
H71 H 0.6696 0.0485 0.2060
H72 H 0.6283 0.0471 0.1897
H73 H 0.6703 0.0436 0.1768
C69 C 0.6617(3) -0.0361(4) 0.16019(19)
H74 H 0.6933 -0.0146 0.1670
H75 H 0.6555 -0.0191 0.1470
C70 C 0.6601(4) -0.0796(5) 0.1499(2)
H76 H 0.6791 -0.0712 0.1347
H77 H 0.6742 -0.0916 0.1619
C71 C 0.6031(5) -0.1637(5) 0.1351(3)
H78 H 0.6226 -0.1736 0.1445
H79 H 0.6125 -0.1607 0.1176
C72 C 0.5508(5) -0.2008(5) 0.1377(3)
H80 H 0.5315 -0.1914 0.1279
H81 H 0.5453 -0.2316 0.1315
C73 C 0.4857(4) -0.2332(4) 0.1693(3)
H82 H 0.4736 -0.2665 0.1645
H83 H 0.4689 -0.2208 0.1595
C74 C 0.4764(4) -0.2307(4) 0.1969(2)
H84 H 0.4421 -0.2454 0.1999
H85 H 0.4886 -0.2478 0.2066
Mo1J Mo 1.17136(3) 0.30532(4) -0.054087(14)
Mo1K Mo 0.69468(4) -0.13396(3) -0.054087(14)
Mo2J Mo 0.96595(3) 0.43595(4) -0.112444(17)
Mo2K Mo 0.56405(4) -0.47000(3) -0.112444(17)
Mo2M Mo 0.63262(3) -0.23072(4) 0.220889(17)
Mo2N Mo 0.23072(4) -0.13667(3) 0.220889(17)
Mn1J Mn 1.34676(6) 0.46133(9) -0.05488(3)
Mn1K Mn 0.53867(9) -0.11457(7) -0.05488(3)
Mn2J Mn 1.00006(5) 0.21888(7) -0.01155(2)
Mn2K Mn 0.78112(7) -0.21882(5) -0.01155(2)
Mn2B Mn 1.21888(7) 0.21882(5) 0.01155(2)
Mn3J Mn 1.10227(5) 0.38661(7) -0.11076(3)
Mn3K Mn 0.61339(7) -0.28434(5) -0.11076(3)
Mn4N Mn 0.36035(7) -0.10184(5) 0.15348(3)
Mn4J Mn 0.87115(5) 0.30632(7) -0.17985(3)
Mn4C Mn 0.89816(5) 0.53782(5) -0.15348(3)
O1J O 1.4087(3) 0.5368(4) -0.0637(3)
O1K O 0.4632(4) -0.1281(3) -0.0637(3)
H1J H 1.4339 0.5395 -0.0583
H1K H 0.4605 -0.1056 -0.0583
N1J N 1.0609(3) 0.2713(4) -0.03524(14)
N1K N 0.7287(4) -0.2104(3) -0.03524(14)
N2J N 1.1627(3) 0.3784(4) -0.09444(17)
N2K N 0.6216(4) -0.2157(3) -0.09444(17)
N3J N 1.1788(4) 0.3749(8) -0.0068(3)
N3K N 0.6251(8) -0.1961(7) -0.0068(3)
N4J N 1.2830(3) 0.3902(5) -0.04774(17)
N4K N 0.6098(5) -0.1072(4) -0.04774(17)
N5J N 1.2405(3) 0.2711(5) -0.08380(18)
N5K N 0.7289(5) -0.0306(4) -0.08380(18)
N6K N 0.7733(4) -0.0604(3) -0.01263(15)
N6J N 1.1663(3) 0.2267(4) -0.01263(15)
N6A N 0.8337(3) -0.2267(4) 0.01263(15)
N7J N 1.0972(3) 0.2125(4) -0.09011(17)
N7K N 0.7875(4) -0.1153(3) -0.09011(17)
N8J N 1.0396(3) 0.3938(4) -0.12280(15)
N8K N 0.6062(4) -0.3542(3) -0.12280(15)
N9J N 0.9153(4) 0.3298(6) -0.0838(2)
N9K N 0.6702(6) -0.4145(4) -0.0838(2)
N10N N 0.2985(4) -0.1486(3) 0.17770(17)
N10J N 0.8863(3) 0.3682(4) -0.15563(17)
N11J N 0.8778(3) 0.4293(4) -0.07689(19)
N11K N 0.5707(4) -0.5515(3) -0.07689(19)
N12M N 0.6121(3) -0.1444(4) 0.20411(16)
N12J N 0.9454(3) 0.5223(4) -0.12922(16)
N12E N 0.8556(4) 0.2436(3) -0.20411(16)
N13J N 1.0387(6) 0.4972(7) -0.1592(3)
N13K N 0.5028(7) -0.4585(4) -0.1592(3)
N14J N 1.0478(4) 0.5038(6) -0.0712(3)
N14K N 0.4962(6) -0.4560(4) -0.0712(3)
N15J N 1.2895(5) 0.4843(7) -0.0642(3)
N15K N 0.5157(7) -0.1948(5) -0.0642(3)
N16J N 1.3364(5) 0.4519(7) -0.0980(2)
N16K N 0.5481(7) -0.1155(5) -0.0980(2)
N17J N 1.3893(4) 0.4257(6) -0.0680(2)
N17K N 0.5743(6) -0.0364(4) -0.0680(2)
N18J N 1.3919(4) 0.4581(6) -0.0233(2)
N18K N 0.5419(6) -0.0662(5) -0.0233(2)
N19J N 1.3359(5) 0.4937(7) -0.0190(3)
N19K N 0.5063(7) -0.1578(5) -0.0190(3)
N20J N 1.0285(4) 0.2654(6) 0.02444(17)
N20K N 0.7346(6) -0.2369(4) 0.02444(17)
N21J N 1.0552(3) 0.1994(4) 0.00451(18)
N21K N 0.8006(4) -0.1442(3) 0.00451(18)
N22J N 0.9970(3) 0.1573(4) -0.03583(17)
N22K N 0.8427(4) -0.1603(3) -0.03583(17)
N23J N 0.9469(3) 0.1998(4) -0.04302(15)
N23K N 0.8002(4) -0.2529(3) -0.04302(15)
N24J N 0.9698(3) 0.2695(4) -0.01159(17)
N24K N 0.7305(4) -0.2997(3) -0.01159(17)
N25J N 1.1559(4) 0.4605(6) -0.1268(2)
N25K N 0.5395(6) -0.3046(4) -0.1268(2)
N26J N 1.1214(4) 0.3766(5) -0.14964(17)
N26K N 0.6234(5) -0.2552(3) -0.14964(17)
N27J N 1.0604(4) 0.3064(5) -0.1210(2)
N27K N 0.6936(5) -0.2460(3) -0.1210(2)
N28J N 1.0600(4) 0.3465(5) -0.07581(17)
N28K N 0.6535(5) -0.2865(3) -0.07581(17)
N29J N 1.1112(4) 0.4459(6) -0.0821(3)
N29K N 0.5541(6) -0.3347(4) -0.0821(3)
N30N N 0.4087(4) -0.1301(3) 0.16903(18)
N30J N 0.7946(3) 0.2580(4) -0.16430(18)
N31N N 0.3950(5) -0.0555(3) 0.18887(18)
N31J N 0.8829(4) 0.2717(5) -0.14446(18)
N32N N 0.3420(4) -0.0414(3) 0.15347(15)
N32J N 0.9500(3) 0.3247(4) -0.17986(15)
N33N N 0.3099(4) -0.1118(3) 0.12170(14)
N33J N 0.9117(3) 0.3568(4) -0.21163(14)
N34N N 0.3478(4) -0.1661(3) 0.12930(17)
N34J N 0.8195(3) 0.3189(4) -0.20403(17)
C1J C 1.0992(3) 0.2832(4) -0.04232(15)
C1K C 0.7168(4) -0.1840(3) -0.04232(15)
C2J C 1.1676(3) 0.3531(4) -0.08092(17)
C2K C 0.6469(4) -0.1855(3) -0.08092(17)
C3J C 1.1764(4) 0.3501(7) -0.0231(3)
C3K C 0.6499(7) -0.1737(6) -0.0231(3)
C4J C 1.2441(3) 0.3594(5) -0.04965(18)
C4K C 0.6406(5) -0.1153(4) -0.04965(18)
C5J C 1.2162(4) 0.2841(6) -0.0748(2)
C5K C 0.7159(6) -0.0679(4) -0.0748(2)
C6K C 0.7442(4) -0.0864(3) -0.02685(17)
C6J C 1.1694(3) 0.2558(4) -0.02685(17)
C7J C 1.1228(3) 0.2453(4) -0.07779(18)
C7K C 0.7547(4) -0.1225(3) -0.07779(18)
C8J C 1.0124(3) 0.4070(5) -0.11976(18)
C8K C 0.5930(5) -0.3946(4) -0.11976(18)
C9J C 0.9347(4) 0.3673(5) -0.0930(2)
C9K C 0.6327(5) -0.4326(3) -0.0930(2)
C10N C 0.2741(5) -0.1451(3) 0.1923(2)
C10J C 0.9142(4) 0.3926(5) -0.1410(2)
C10K C 0.6074(5) -0.4784(3) -0.1410(2)
C11J C 0.9085(4) 0.4318(6) -0.0887(2)
C11K C 0.5682(6) -0.5233(4) -0.0887(2)
C12M C 0.6206(3) -0.1725(4) 0.21051(19)
C12J C 0.9539(3) 0.4942(4) -0.12282(19)
C12K C 0.5058(4) -0.5403(3) -0.12282(19)
C13J C 1.0107(6) 0.4733(7) -0.1417(3)
C13K C 0.5267(7) -0.4626(4) -0.1417(3)
C14J C 1.0169(4) 0.4779(6) -0.0850(3)
C14K C 0.5221(6) -0.4610(4) -0.0850(3)
C15J C 1.2892(7) 0.4906(10) -0.0896(4)
C15K C 0.5094(10) -0.2014(7) -0.0896(4)
H2J H 1.2598 0.4905 -0.0939
H2K H 0.5095 -0.2307 -0.0939
H3J H 1.3160 0.5220 -0.0938
H3K H 0.4780 -0.2060 -0.0938
C16J C 1.2923(6) 0.4535(9) -0.1054(4)
C16K C 0.5465(9) -0.1612(7) -0.1054(4)
H4J H 1.2640 0.4222 -0.1030
H4K H 0.5778 -0.1582 -0.1030
H5J H 1.2941 0.4619 -0.1230
H5K H 0.5381 -0.1678 -0.1230
C17J C 1.3397(9) 0.4099(11) -0.1037(3)
C17K C 0.5901(11) -0.0702(7) -0.1037(3)
H6J H 1.3384 0.4058 -0.1217
H6K H 0.5942 -0.0674 -0.1217
H7J H 1.3118 0.3819 -0.0966
H7K H 0.6181 -0.0701 -0.0966
C18J C 1.3810(7) 0.4113(9) -0.0948(3)
C18K C 0.5887(9) -0.0303(6) -0.0948(3)
H8J H 1.3779 0.3798 -0.0966
H8K H 0.6202 -0.0019 -0.0966
H9J H 1.4084 0.4339 -0.1046
H9K H 0.5661 -0.0255 -0.1046
C19J C 1.4171(5) 0.4198(7) -0.0537(3)
C19K C 0.5802(7) -0.0027(5) -0.0537(3)
C20J C 1.4467(8) 0.3991(9) -0.0615(4)
C20K C 0.6009(9) 0.0476(5) -0.0615(4)
H10J H 1.4798 0.4211 -0.0575
H10K H 0.5789 0.0587 -0.0575
H11J H 1.4362 0.3692 -0.0528
H11K H 0.6308 0.0670 -0.0528
H12J H 1.4434 0.3932 -0.0792
H12K H 0.6068 0.0502 -0.0792
C21J C 1.4194(5) 0.4379(8) -0.0282(3)
C21K C 0.5621(8) -0.0185(6) -0.0282(3)
C22J C 1.4469(6) 0.4360(10) -0.0087(5)
C22K C 0.5640(10) 0.0109(8) -0.0087(5)
H13J H 1.4671 0.4235 -0.0115
H13K H 0.5765 0.0436 -0.0115
C23J C 1.4444(7) 0.4536(12) 0.0160(4)
C23K C 0.5464(12) -0.0092(10) 0.0160(4)
H14J H 1.4621 0.4511 0.0291
H14K H 0.5489 0.0110 0.0291
C24J C 1.4161(7) 0.4740(11) 0.0201(4)
C24K C 0.5260(11) -0.0579(9) 0.0201(4)
H15J H 1.4141 0.4861 0.0356
H15K H 0.5139 -0.0720 0.0356
C25J C 1.3907(6) 0.4747(9) -0.0006(4)
C25K C 0.5253(9) -0.0840(7) -0.0006(4)
C26J C 1.3569(7) 0.4940(11) 0.0006(4)
C26K C 0.5060(11) -0.1371(9) 0.0006(4)
C27J C 1.3482(10) 0.5155(13) 0.0241(4)
C27K C 0.4845(13) -0.1673(9) 0.0241(4)
H16J H 1.3202 0.4913 0.0326
H16K H 0.5087 -0.1711 0.0326
H17J H 1.3756 0.5270 0.0350
H17K H 0.4730 -0.1514 0.0350
H18J H 1.3434 0.5417 0.0196
H18K H 0.4583 -0.1983 0.0196
C28J C 1.2998(8) 0.5107(11) -0.0216(5)
C28K C 0.4893(11) -0.2109(8) -0.0216(5)
H19J H 1.3098 0.5395 -0.0117
H19K H 0.4605 -0.2297 -0.0117
H20J H 1.2684 0.4860 -0.0157
H20K H 0.5140 -0.2176 -0.0157
C29J C 1.2971(11) 0.5207(13) -0.0480(5)
C29K C 0.4793(13) -0.2236(7) -0.0480(5)
H21J H 1.3269 0.5494 -0.0526
H21K H 0.4506 -0.2225 -0.0526
H22J H 1.2713 0.5278 -0.0501
H22K H 0.4722 -0.2565 -0.0501
C30J C 0.9878(4) 0.3066(6) 0.0076(2)
C30K C 0.6934(6) -0.3188(4) 0.0076(2)
H23J H 0.9936 0.3368 0.0005
H23K H 0.6632 -0.3432 0.0005
H24J H 0.9639 0.2976 0.0208
H24K H 0.7024 -0.3337 0.0208
C31J C 1.0339(5) 0.3125(7) 0.0185(2)
C31K C 0.6875(7) -0.2786(5) 0.0185(2)
H25J H 1.0421 0.3319 0.0336
H25K H 0.6681 -0.2898 0.0336
H26J H 1.0599 0.3292 0.0066
H26K H 0.6708 -0.2693 0.0066
C32J C 1.0699(5) 0.2640(8) 0.0332(3)
C32K C 0.7360(8) -0.1941(6) 0.0332(3)
H27J H 1.0978 0.2859 0.0234
H27K H 0.7141 -0.1881 0.0234
H28J H 1.0761 0.2743 0.0505
H28K H 0.7257 -0.1982 0.0505
C33J C 1.0615(5) 0.2124(8) 0.0309(3)
C33K C 0.7876(8) -0.1509(6) 0.0309(3)
H29J H 1.0330 0.1901 0.0402
H29K H 0.8099 -0.1571 0.0402
H30J H 1.0888 0.2109 0.0376
H30K H 0.7891 -0.1221 0.0376
C34J C 1.0389(5) 0.1498(6) 0.0002(3)
C34K C 0.8502(6) -0.1109(4) 0.0002(3)
H31J H 1.0632 0.1421 0.0054
H31K H 0.8579 -0.0789 0.0054
H32J H 1.0098 0.1300 0.0097
H32K H 0.8700 -0.1202 0.0097
C35J C 1.0290(5) 0.1405(6) -0.0277(2)
C35K C 0.8595(6) -0.1115(4) -0.0277(2)
H33J H 1.0145 0.1063 -0.0310
H33K H 0.8937 -0.0918 -0.0310
H34J H 1.0590 0.1571 -0.0369
H34K H 0.8429 -0.0981 -0.0369
C36J C 0.9732(5) 0.1449(7) -0.0554(2)
C36K C 0.8551(7) -0.1717(5) -0.0554(2)
C37J C 0.9710(7) 0.1093(10) -0.0749(3)
C37K C 0.8907(10) -0.1383(7) -0.0749(3)
H35J H 0.9408 0.0800 -0.0736
H35K H 0.9200 -0.1392 -0.0736
H36J H 0.9742 0.1228 -0.0913
H36K H 0.8772 -0.1486 -0.0913
H37J H 0.9968 0.1029 -0.0721
H37K H 0.8971 -0.1061 -0.0721
C38J C 0.9426(4) 0.1673(6) -0.06022(17)
C38K C 0.8327(6) -0.2247(4) -0.06022(17)
C39J C 0.9110(5) 0.1567(9) -0.0801(2)
C39K C 0.8433(9) -0.2457(7) -0.0801(2)
H38J H 0.9077 0.1345 -0.0922
H38K H 0.8655 -0.2268 -0.0922
C40J C 0.8839(5) 0.1808(9) -0.0815(3)
C40K C 0.8192(9) -0.2969(7) -0.0815(3)
H39J H 0.8626 0.1744 -0.0947
H39K H 0.8256 -0.3118 -0.0947
C41J C 0.8889(5) 0.2120(7) -0.0641(3)
C41K C 0.7880(7) -0.3231(5) -0.0641(3)
H40J H 0.8706 0.2271 -0.0647
H40K H 0.7729 -0.3565 -0.0647
C42J C 0.9222(4) 0.2226(6) -0.0444(2)
C42K C 0.7774(6) -0.3004(4) -0.0444(2)
C43J C 0.9333(4) 0.2597(6) -0.0252(2)
C43K C 0.7403(6) -0.3264(4) -0.0252(2)
C44J C 0.9036(5) 0.2838(6) -0.0231(3)
C44K C 0.7162(6) -0.3802(4) -0.0231(3)
H41J H 0.8935 0.2823 -0.0060
H41K H 0.7177 -0.3888 -0.0060
H42J H 0.9225 0.3168 -0.0282
H42K H 0.6832 -0.3943 -0.0282
H43J H 0.8758 0.2675 -0.0336
H43K H 0.7325 -0.3917 -0.0336
C45J C 1.0958(8) 0.4222(10) -0.0571(3)
C45K C 0.5778(10) -0.3264(6) -0.0571(3)
H44J H 1.0905 0.4428 -0.0458
H44K H 0.5572 -0.3523 -0.0458
H45J H 1.1209 0.4173 -0.0501
H45K H 0.5827 -0.2964 -0.0501
C46J C 1.0513(7) 0.3758(10) -0.0597(3)
C46K C 0.6242(10) -0.3245(7) -0.0597(3)
H46J H 1.0260 0.3806 -0.0666
H46K H 0.6194 -0.3546 -0.0666
H47J H 1.0410 0.3605 -0.0435
H47K H 0.6395 -0.3195 -0.0435
C47J C 1.0169(5) 0.3036(8) -0.0836(3)
C47K C 0.6964(8) -0.2867(6) -0.0836(3)
H48J H 1.0010 0.2837 -0.0691
H48K H 0.7163 -0.2827 -0.0691
H49J H 0.9950 0.3124 -0.0913
H49K H 0.6876 -0.3174 -0.0913
C48J C 1.0293(5) 0.2749(7) -0.1024(3)
C48K C 0.7251(7) -0.2456(5) -0.1024(3)
H50J H 1.0001 0.2499 -0.1101
H50K H 0.7501 -0.2498 -0.1101
H51J H 1.0448 0.2597 -0.0937
H51K H 0.7403 -0.2149 -0.0937
C49J C 1.0702(6) 0.2937(7) -0.1423(3)
C49K C 0.7063(7) -0.2235(4) -0.1423(3)
C50J C 1.0504(9) 0.2425(11) -0.1513(4)
C50K C 0.7575(11) -0.1921(6) -0.1513(4)
H52J H 1.0230 0.2212 -0.1413
H52K H 0.7788 -0.1982 -0.1413
H53J H 1.0409 0.2402 -0.1685
H53K H 0.7598 -0.1993 -0.1685
H54J H 1.0748 0.2337 -0.1498
H54K H 0.7663 -0.1589 -0.1498
C51J C 1.1042(5) 0.3335(6) -0.1588(2)
C51K C 0.6665(6) -0.2293(4) -0.1588(2)
C52J C 1.1186(6) 0.3276(7) -0.1841(3)
C52K C 0.6724(7) -0.2090(4) -0.1841(3)
H55J H 1.1085 0.2973 -0.1909
H55K H 0.7027 -0.1888 -0.1909
C53J C 1.1473(7) 0.3686(9) -0.1966(3)
C53K C 0.6314(9) -0.2213(5) -0.1966(3)
H56J H 1.1554 0.3658 -0.2130
H56K H 0.6342 -0.2104 -0.2130
C54J C 1.1654(7) 0.4142(9) -0.1870(3)
C54K C 0.5858(9) -0.2488(5) -0.1870(3)
H57J H 1.1865 0.4415 -0.1961
H57K H 0.5585 -0.2550 -0.1961
C55J C 1.1505(5) 0.4171(6) -0.1634(2)
C55K C 0.5829(6) -0.2666(4) -0.1634(2)
C56J C 1.1640(6) 0.4616(8) -0.1495(3)
C56K C 0.5384(8) -0.2976(5) -0.1495(3)
C57J C 1.1902(12) 0.5081(16) -0.1665(6)
C57K C 0.4919(16) -0.3179(10) -0.1665(6)
H58J H 1.2227 0.5278 -0.1609
H58K H 0.4722 -0.3051 -0.1609
H59J H 1.1902 0.4987 -0.1836
H59K H 0.5013 -0.3085 -0.1836
H60J H 1.1735 0.5259 -0.1654
H60K H 0.4741 -0.3524 -0.1654
C58J C 1.1669(6) 0.5019(8) -0.1107(4)
C58K C 0.4981(8) -0.3350(6) -0.1107(4)
H61J H 1.1466 0.5151 -0.1154
H61K H 0.4849 -0.3685 -0.1154
H62J H 1.2002 0.5268 -0.1132
H62K H 0.4732 -0.3266 -0.1132
C59J C 1.1592(7) 0.4881(9) -0.0849(4)
C59K C 0.5119(9) -0.3289(6) -0.0849(4)
H63J H 1.1834 0.4805 -0.0793
H63K H 0.5195 -0.2971 -0.0793
H64J H 1.1618 0.5144 -0.0748
H64K H 0.4856 -0.3526 -0.0748
C60N C 0.3238(5) -0.1750(3) 0.1088(2)
C60J C 0.8346(4) 0.3429(5) -0.2245(2)
C61N C 0.3180(7) -0.2113(5) 0.0896(2)
C61J C 0.8041(5) 0.3487(7) -0.2437(2)
H65N H 0.3357 -0.2267 0.0946
H65J H 0.7710 0.3310 -0.2387
H66N H 0.2845 -0.2350 0.0880
H66J H 0.8139 0.3822 -0.2453
H67N H 0.3299 -0.1956 0.0738
H67J H 0.8079 0.3368 -0.2595
C62N C 0.3002(5) -0.1460(3) 0.10417(18)
C62J C 0.8872(4) 0.3665(5) -0.22916(18)
C63N C 0.2713(6) -0.1512(4) 0.0836(2)
C63J C 0.9109(5) 0.3954(6) -0.2497(2)
H68N H 0.2649 -0.1743 0.0714
H68J H 0.8942 0.4018 -0.2619
C64N C 0.2527(7) -0.1219(5) 0.0821(2)
C64J C 0.9588(5) 0.4140(7) -0.2512(2)
H69N H 0.2329 -0.1252 0.0686
H69J H 0.9753 0.4338 -0.2647
C65N C 0.2619(6) -0.0876(4) 0.0994(2)
C65J C 0.9839(4) 0.4048(6) -0.2339(2)
H70N H 0.2484 -0.0679 0.0979
H70J H 1.0171 0.4183 -0.2354
C66N C 0.2917(4) -0.0825(3) 0.11965(19)
C66J C 0.9592(3) 0.3750(4) -0.21368(19)
C67N C 0.3077(4) -0.0450(3) 0.13953(19)
C67J C 0.9807(3) 0.3590(4) -0.19380(19)
C68N C 0.2819(6) -0.0166(4) 0.1420(3)
C68J C 1.0349(4) 0.3848(6) -0.1913(3)
H71N H 0.2878 0.0029 0.1273
H71J H 1.0485 0.3789 -0.2060
H72N H 0.2479 -0.0384 0.1436
H72J H 1.0471 0.4188 -0.1897
H73N H 0.2934 0.0036 0.1565
H73J H 1.0436 0.3733 -0.1768
C69N C 0.3645(5) -0.0050(3) 0.17314(19)
C69J C 0.9639(4) 0.3022(5) -0.16019(19)
H74N H 0.3746 0.0266 0.1663
H74J H 0.9854 0.2921 -0.1670
H75N H 0.3413 -0.0112 0.1863
H75J H 0.9809 0.3254 -0.1470
C70N C 0.4064(6) -0.0066(4) 0.1834(2)
C70J C 0.9204(5) 0.2603(6) -0.1499(2)
H76N H 0.4170 0.0124 0.1986
H76J H 0.9288 0.2497 -0.1347
H77N H 0.4325 0.0075 0.1714
H77J H 0.9084 0.2342 -0.1619
C71N C 0.4335(7) -0.0636(5) 0.1982(3)
C71J C 0.8363(5) 0.2332(7) -0.1351(3)
H78N H 0.4629 -0.0441 0.1888
H78J H 0.8264 0.2038 -0.1445
H79N H 0.4399 -0.0542 0.2157
H79J H 0.8393 0.2268 -0.1176
C72N C 0.4183(7) -0.1159(5) 0.1956(3)
C72J C 0.7992(5) 0.2484(7) -0.1377(3)
H80N H 0.3896 -0.1352 0.2054
H80J H 0.8086 0.2771 -0.1279
H81N H 0.4436 -0.1214 0.2018
H81J H 0.7684 0.2231 -0.1315
C73N C 0.3856(6) -0.1810(4) 0.1640(3)
C73J C 0.7668(4) 0.2811(6) -0.1693(3)
H82N H 0.4068 -0.1931 0.1688
H82J H 0.7335 0.2599 -0.1645
H83N H 0.3564 -0.1978 0.1738
H83J H 0.7792 0.3103 -0.1595
C74N C 0.3738(6) -0.1903(4) 0.1364(2)
C74J C 0.7693(4) 0.2929(6) -0.1969(2)
H84N H 0.3542 -0.2246 0.1334
H84J H 0.7546 0.3125 -0.1999
H85N H 0.4031 -0.1781 0.1267
H85J H 0.7522 0.2636 -0.2066
O2 O 0.9054(3) 0.0460(3) 0.12797(14)
O3 O 0.5429(3) 0.8147(3) 0.07483(17)
H86 H 0.5229 0.8347 0.0728
O4 O 0.7714(3) 0.8719(4) 0.13433(15)
O5 O 0.8640(3) 0.9499(3) 0.14345(17)
O6 O 0.9862(3) 0.1220(4) 0.07672(17)
O7 O 0.9217(3) 0.9230(3) 0.1161(2)
O8 O 0.5567(4) 0.7730(3) 0.03192(16)
O9 O 0.0000 0.0000 0.0947(4)
O10 O 0.4470(4) 0.7869(3) 0.0844(2)
O11 O 0.7848(4) 0.8235(4) 0.0961(2)
O12 O 0.7709(7) 0.9029(6) 0.2100(2)
O13 O 0.4604(7) 0.6121(5) 0.0333(3)
O14 O 0.8667(8) 0.9564(5) 0.1955(3)
O15 O 0.4640(8) 0.6954(5) 0.0222(3)
O16 O 0.9446(8) 0.9479(8) 0.0472(5)
O17 O 0.3940(8) 0.7155(7) 0.1208(5)
O18 O 0.8808(11) 0.4721(11) 0.0174(5)
loop_
_geom_bond_atom_site_label_1
_geom_bond_atom_site_label_2
_geom_bond_site_symmetry_1
_geom_bond_site_symmetry_2
Mo1 C1 1_555 1_555
Mo2 C8 1_555 1_555
Mn1 O1 1_555 1_555
Mn2 N1 1_555 1_555
Mn3 N2 1_555 1_555
Mn4 N10 1_555 1_555
O1 H1 1_555 1_555
N1 C1 1_555 1_555
N2 C2 1_555 1_555
N3 C3 1_555 1_555
N4 Mn1 1_555 1_555
N5 C5 1_555 1_555
N6 C6 1_555 1_555
N7 C7 1_555 1_555
N8 Mn3 1_555 1_555
N9 C9 1_555 1_555
N10 C10 1_555 1_555
N11 C11 1_555 1_555
N12 C12 1_555 1_555
N13 C13 1_555 1_555
N14 C14 1_555 1_555
N15 Mn1 1_555 1_555
N16 Mn1 1_555 1_555
N17 Mn1 1_555 1_555
N18 Mn1 1_555 1_555
N19 Mn1 1_555 1_555
N20 Mn2 1_555 1_555
N21 Mn2 1_555 1_555
N22 Mn2 1_555 1_555
N23 Mn2 1_555 1_555
N24 Mn2 1_555 1_555
N25 Mn3 1_555 1_555
N26 Mn3 1_555 1_555
N27 Mn3 1_555 1_555
N28 Mn3 1_555 1_555
N29 Mn3 1_555 1_555
N30 Mn4 1_555 1_555
N31 Mn4 1_555 1_555
N32 Mn4 1_555 1_555
N33 Mn4 1_555 1_555
N34 Mn4 1_555 1_555
C2 Mo1 1_555 1_555
C3 Mo1 1_555 1_555
C4 Mo1 1_555 1_555
C5 Mo1 1_555 1_555
C6 Mo1 1_555 1_555
C7 Mo1 1_555 1_555
C8 N8 1_555 1_555
C9 Mo2 1_555 1_555
C10 Mo2 1_555 1_555
C11 Mo2 1_555 1_555
C12 Mo2 1_555 1_555
C13 Mo2 1_555 1_555
C14 Mo2 1_555 1_555
C15 N15 1_555 1_555
H2 C15 1_555 1_555
H3 C15 1_555 1_555
C16 N16 1_555 1_555
H4 C16 1_555 1_555
H5 C16 1_555 1_555
C17 N16 1_555 1_555
H6 C17 1_555 1_555
H7 C17 1_555 1_555
C18 N17 1_555 1_555
H8 C18 1_555 1_555
H9 C18 1_555 1_555
C19 N17 1_555 1_555
C20 C19 1_555 1_555
H10 C20 1_555 1_555
H11 C20 1_555 1_555
H12 C20 1_555 1_555
C21 N18 1_555 1_555
C22 C21 1_555 1_555
H13 C22 1_555 1_555
C23 C22 1_555 1_555
H14 C23 1_555 1_555
C24 C23 1_555 1_555
H15 C24 1_555 1_555
C25 N18 1_555 1_555
C26 N19 1_555 1_555
C27 C26 1_555 1_555
H16 C27 1_555 1_555
H17 C27 1_555 1_555
H18 C27 1_555 1_555
C28 N19 1_555 1_555
H19 C28 1_555 1_555
H20 C28 1_555 1_555
C29 N15 1_555 1_555
H21 C29 1_555 1_555
H22 C29 1_555 1_555
C30 N24 1_555 1_555
H23 C30 1_555 1_555
H24 C30 1_555 1_555
C31 N20 1_555 1_555
H25 C31 1_555 1_555
H26 C31 1_555 1_555
C32 N20 1_555 1_555
H27 C32 1_555 1_555
H28 C32 1_555 1_555
C33 N21 1_555 1_555
H29 C33 1_555 1_555
H30 C33 1_555 1_555
C34 N21 1_555 1_555
H31 C34 1_555 1_555
H32 C34 1_555 1_555
C35 N22 1_555 1_555
H33 C35 1_555 1_555
H34 C35 1_555 1_555
C36 N22 1_555 1_555
C37 C36 1_555 1_555
H35 C37 1_555 1_555
H36 C37 1_555 1_555
H37 C37 1_555 1_555
C38 N23 1_555 1_555
C39 C38 1_555 1_555
H38 C39 1_555 1_555
C40 C39 1_555 1_555
H39 C40 1_555 1_555
C41 C40 1_555 1_555
H40 C41 1_555 1_555
C42 N23 1_555 1_555
C43 N24 1_555 1_555
C44 C43 1_555 1_555
H41 C44 1_555 1_555
H42 C44 1_555 1_555
H43 C44 1_555 1_555
C45 N29 1_555 1_555
H44 C45 1_555 1_555
H45 C45 1_555 1_555
C46 N28 1_555 1_555
H46 C46 1_555 1_555
H47 C46 1_555 1_555
C47 N28 1_555 1_555
H48 C47 1_555 1_555
H49 C47 1_555 1_555
C48 N27 1_555 1_555
H50 C48 1_555 1_555
H51 C48 1_555 1_555
C49 N27 1_555 1_555
C50 C49 1_555 1_555
H52 C50 1_555 1_555
H53 C50 1_555 1_555
H54 C50 1_555 1_555
C51 N26 1_555 1_555
C52 C51 1_555 1_555
H55 C52 1_555 1_555
C53 C52 1_555 1_555
H56 C53 1_555 1_555
C54 C53 1_555 1_555
H57 C54 1_555 1_555
C55 N26 1_555 1_555
C56 N25 1_555 1_555
C57 C56 1_555 1_555
H58 C57 1_555 1_555
H59 C57 1_555 1_555
H60 C57 1_555 1_555
C58 N25 1_555 1_555
H61 C58 1_555 1_555
H62 C58 1_555 1_555
C59 N29 1_555 1_555
H63 C59 1_555 1_555
H64 C59 1_555 1_555
C60 N34 1_555 1_555
C61 C60 1_555 1_555
H65 C61 1_555 1_555
H66 C61 1_555 1_555
H67 C61 1_555 1_555
C62 N33 1_555 1_555
C63 C62 1_555 1_555
H68 C63 1_555 1_555
C64 C63 1_555 1_555
H69 C64 1_555 1_555
C65 C64 1_555 1_555
H70 C65 1_555 1_555
C66 N33 1_555 1_555
C67 N32 1_555 1_555
C68 C67 1_555 1_555
H71 C68 1_555 1_555
H72 C68 1_555 1_555
H73 C68 1_555 1_555
C69 N32 1_555 1_555
H74 C69 1_555 1_555
H75 C69 1_555 1_555
C70 N31 1_555 1_555
H76 C70 1_555 1_555
H77 C70 1_555 1_555
C71 N31 1_555 1_555
H78 C71 1_555 1_555
H79 C71 1_555 1_555
C72 N30 1_555 1_555
H80 C72 1_555 1_555
H81 C72 1_555 1_555
C73 N30 1_555 1_555
H82 C73 1_555 1_555
H83 C73 1_555 1_555
C74 N34 1_555 1_555
H84 C74 1_555 1_555
H85 C74 1_555 1_555
O3 H86 1_555 1_555
Mo1J C1J 1_555 1_555
Mo1K C1K 1_555 1_555
Mo2J C8J 1_555 1_555
Mo2K C8K 1_555 1_555
Mo2M C12M 1_555 1_555
Mo2N C10N 1_555 1_555
Mn1J O1J 1_555 1_555
Mn1K O1K 1_555 1_555
Mn2J N6 1_555 1_555
Mn2K N1K 1_555 1_555
Mn2B N6J 1_555 1_555
Mn3J N2J 1_555 1_555
Mn3K N2K 1_555 1_555
Mn4N N12 1_555 1_555
Mn4J N10J 1_555 1_555
Mn4C N12J 1_555 1_555
O1J H1J 1_555 1_555
O1K H1K 1_555 1_555
N1J Mn2J 1_555 1_555
N1K C1K 1_555 1_555
N2J C2J 1_555 1_555
N2K C2K 1_555 1_555
N3J C3J 1_555 1_555
N3K C3K 1_555 1_555
N4J Mn1J 1_555 1_555
N4K Mn1K 1_555 1_555
N5J C5J 1_555 1_555
N5K C5K 1_555 1_555
N6K Mn2 1_555 1_555
N6J C6J 1_555 1_555
N6A Mn2K 1_555 1_555
N7J C7J 1_555 1_555
N7K C7K 1_555 1_555
N8J Mn3J 1_555 1_555
N8K Mn3K 1_555 1_555
N9J C9J 1_555 1_555
N9K C9K 1_555 1_555
N10N Mn4N 1_555 1_555
N10J C10J 1_555 1_555
N11J C11J 1_555 1_555
N11K C11K 1_555 1_555
N12M Mn4 1_555 1_555
N12J C12J 1_555 1_555
N12E Mn4J 1_555 1_555
N13J C13J 1_555 1_555
N13K C13K 1_555 1_555
N14J C14J 1_555 1_555
N14K C14K 1_555 1_555
N15J Mn1J 1_555 1_555
N15K Mn1K 1_555 1_555
N16J Mn1J 1_555 1_555
N16K Mn1K 1_555 1_555
N17J Mn1J 1_555 1_555
N17K Mn1K 1_555 1_555
N18J Mn1J 1_555 1_555
N18K Mn1K 1_555 1_555
N19J Mn1J 1_555 1_555
N19K Mn1K 1_555 1_555
N20J Mn2J 1_555 1_555
N20K Mn2K 1_555 1_555
N21J Mn2J 1_555 1_555
N21K Mn2K 1_555 1_555
N22J Mn2J 1_555 1_555
N22K Mn2K 1_555 1_555
N23J Mn2J 1_555 1_555
N23K Mn2K 1_555 1_555
N24J Mn2J 1_555 1_555
N24K Mn2K 1_555 1_555
N25J Mn3J 1_555 1_555
N25K Mn3K 1_555 1_555
N26J Mn3J 1_555 1_555
N26K Mn3K 1_555 1_555
N27J Mn3J 1_555 1_555
N27K Mn3K 1_555 1_555
N28J Mn3J 1_555 1_555
N28K Mn3K 1_555 1_555
N29J Mn3J 1_555 1_555
N29K Mn3K 1_555 1_555
N30N Mn4N 1_555 1_555
N30J Mn4J 1_555 1_555
N31N Mn4N 1_555 1_555
N31J Mn4J 1_555 1_555
N32N Mn4N 1_555 1_555
N32J Mn4J 1_555 1_555
N33N Mn4N 1_555 1_555
N33J Mn4J 1_555 1_555
N34N Mn4N 1_555 1_555
N34J Mn4J 1_555 1_555
C1J N1J 1_555 1_555
C2J Mo1J 1_555 1_555
C2K Mo1K 1_555 1_555
C3J Mo1J 1_555 1_555
C3K Mo1K 1_555 1_555
C4J Mo1J 1_555 1_555
C4K Mo1K 1_555 1_555
C5J Mo1J 1_555 1_555
C5K Mo1K 1_555 1_555
C6K Mo1K 1_555 1_555
C6J Mo1J 1_555 1_555
C7J Mo1J 1_555 1_555
C7K Mo1K 1_555 1_555
C8J N8J 1_555 1_555
C8K N8K 1_555 1_555
C9J Mo2J 1_555 1_555
C9K Mo2K 1_555 1_555
C10N N10N 1_555 1_555
C10J Mo2J 1_555 1_555
C10K Mo2K 1_555 1_555
C11J Mo2J 1_555 1_555
C11K Mo2K 1_555 1_555
C12M N12M 1_555 1_555
C12J Mo2J 1_555 1_555
C12K Mo2K 1_555 1_555
C13J Mo2J 1_555 1_555
C13K Mo2K 1_555 1_555
C14J Mo2J 1_555 1_555
C14K Mo2K 1_555 1_555
C15J N15J 1_555 1_555
C15K N15K 1_555 1_555
H2J C15J 1_555 1_555
H2K C15K 1_555 1_555
H3J C15J 1_555 1_555
H3K C15K 1_555 1_555
C16J N16J 1_555 1_555
C16K N16K 1_555 1_555
H4J C16J 1_555 1_555
H4K C16K 1_555 1_555
H5J C16J 1_555 1_555
H5K C16K 1_555 1_555
C17J N16J 1_555 1_555
C17K N16K 1_555 1_555
H6J C17J 1_555 1_555
H6K C17K 1_555 1_555
H7J C17J 1_555 1_555
H7K C17K 1_555 1_555
C18J N17J 1_555 1_555
C18K N17K 1_555 1_555
H8J C18J 1_555 1_555
H8K C18K 1_555 1_555
H9J C18J 1_555 1_555
H9K C18K 1_555 1_555
C19J N17J 1_555 1_555
C19K N17K 1_555 1_555
C20J C19J 1_555 1_555
C20K C19K 1_555 1_555
H10J C20J 1_555 1_555
H10K C20K 1_555 1_555
H11J C20J 1_555 1_555
H11K C20K 1_555 1_555
H12J C20J 1_555 1_555
H12K C20K 1_555 1_555
C21J N18J 1_555 1_555
C21K N18K 1_555 1_555
C22J C21J 1_555 1_555
C22K C21K 1_555 1_555
H13J C22J 1_555 1_555
H13K C22K 1_555 1_555
C23J C22J 1_555 1_555
C23K C22K 1_555 1_555
H14J C23J 1_555 1_555
H14K C23K 1_555 1_555
C24J C23J 1_555 1_555
C24K C23K 1_555 1_555
H15J C24J 1_555 1_555
H15K C24K 1_555 1_555
C25J N18J 1_555 1_555
C25K N18K 1_555 1_555
C26J N19J 1_555 1_555
C26K N19K 1_555 1_555
C27J C26J 1_555 1_555
C27K C26K 1_555 1_555
H16J C27J 1_555 1_555
H16K C27K 1_555 1_555
H17J C27J 1_555 1_555
H17K C27K 1_555 1_555
H18J C27J 1_555 1_555
H18K C27K 1_555 1_555
C28J N19J 1_555 1_555
C28K N19K 1_555 1_555
H19J C28J 1_555 1_555
H19K C28K 1_555 1_555
H20J C28J 1_555 1_555
H20K C28K 1_555 1_555
C29J N15J 1_555 1_555
C29K N15K 1_555 1_555
H21J C29J 1_555 1_555
H21K C29K 1_555 1_555
H22J C29J 1_555 1_555
H22K C29K 1_555 1_555
C30J N24J 1_555 1_555
C30K N24K 1_555 1_555
H23J C30J 1_555 1_555
H23K C30K 1_555 1_555
H24J C30J 1_555 1_555
H24K C30K 1_555 1_555
C31J N20J 1_555 1_555
C31K N20K 1_555 1_555
H25J C31J 1_555 1_555
H25K C31K 1_555 1_555
H26J C31J 1_555 1_555
H26K C31K 1_555 1_555
C32J N20J 1_555 1_555
C32K N20K 1_555 1_555
H27J C32J 1_555 1_555
H27K C32K 1_555 1_555
H28J C32J 1_555 1_555
H28K C32K 1_555 1_555
C33J N21J 1_555 1_555
C33K N21K 1_555 1_555
H29J C33J 1_555 1_555
H29K C33K 1_555 1_555
H30J C33J 1_555 1_555
H30K C33K 1_555 1_555
C34J N21J 1_555 1_555
C34K N21K 1_555 1_555
H31J C34J 1_555 1_555
H31K C34K 1_555 1_555
H32J C34J 1_555 1_555
H32K C34K 1_555 1_555
C35J N22J 1_555 1_555
C35K N22K 1_555 1_555
H33J C35J 1_555 1_555
H33K C35K 1_555 1_555
H34J C35J 1_555 1_555
H34K C35K 1_555 1_555
C36J N22J 1_555 1_555
C36K N22K 1_555 1_555
C37J C36J 1_555 1_555
C37K C36K 1_555 1_555
H35J C37J 1_555 1_555
H35K C37K 1_555 1_555
H36J C37J 1_555 1_555
H36K C37K 1_555 1_555
H37J C37J 1_555 1_555
H37K C37K 1_555 1_555
C38J N23J 1_555 1_555
C38K N23K 1_555 1_555
C39J C38J 1_555 1_555
C39K C38K 1_555 1_555
H38J C39J 1_555 1_555
H38K C39K 1_555 1_555
C40J C39J 1_555 1_555
C40K C39K 1_555 1_555
H39J C40J 1_555 1_555
H39K C40K 1_555 1_555
C41J C40J 1_555 1_555
C41K C40K 1_555 1_555
H40J C41J 1_555 1_555
H40K C41K 1_555 1_555
C42J N23J 1_555 1_555
C42K N23K 1_555 1_555
C43J N24J 1_555 1_555
C43K N24K 1_555 1_555
C44J C43J 1_555 1_555
C44K C43K 1_555 1_555
H41J C44J 1_555 1_555
H41K C44K 1_555 1_555
H42J C44J 1_555 1_555
H42K C44K 1_555 1_555
H43J C44J 1_555 1_555
H43K C44K 1_555 1_555
C45J N29J 1_555 1_555
C45K N29K 1_555 1_555
H44J C45J 1_555 1_555
H44K C45K 1_555 1_555
H45J C45J 1_555 1_555
H45K C45K 1_555 1_555
C46J N28J 1_555 1_555
C46K N28K 1_555 1_555
H46J C46J 1_555 1_555
H46K C46K 1_555 1_555
H47J C46J 1_555 1_555
H47K C46K 1_555 1_555
C47J N28J 1_555 1_555
C47K N28K 1_555 1_555
H48J C47J 1_555 1_555
H48K C47K 1_555 1_555
H49J C47J 1_555 1_555
H49K C47K 1_555 1_555
C48J N27J 1_555 1_555
C48K N27K 1_555 1_555
H50J C48J 1_555 1_555
H50K C48K 1_555 1_555
H51J C48J 1_555 1_555
H51K C48K 1_555 1_555
C49J N27J 1_555 1_555
C49K N27K 1_555 1_555
C50J C49J 1_555 1_555
C50K C49K 1_555 1_555
H52J C50J 1_555 1_555
H52K C50K 1_555 1_555
H53J C50J 1_555 1_555
H53K C50K 1_555 1_555
H54J C50J 1_555 1_555
H54K C50K 1_555 1_555
C51J N26J 1_555 1_555
C51K N26K 1_555 1_555
C52J C51J 1_555 1_555
C52K C51K 1_555 1_555
H55J C52J 1_555 1_555
H55K C52K 1_555 1_555
C53J C52J 1_555 1_555
C53K C52K 1_555 1_555
H56J C53J 1_555 1_555
H56K C53K 1_555 1_555
C54J C53J 1_555 1_555
C54K C53K 1_555 1_555
H57J C54J 1_555 1_555
H57K C54K 1_555 1_555
C55J N26J 1_555 1_555
C55K N26K 1_555 1_555
C56J N25J 1_555 1_555
C56K N25K 1_555 1_555
C57J C56J 1_555 1_555
C57K C56K 1_555 1_555
H58J C57J 1_555 1_555
H58K C57K 1_555 1_555
H59J C57J 1_555 1_555
H59K C57K 1_555 1_555
H60J C57J 1_555 1_555
H60K C57K 1_555 1_555
C58J N25J 1_555 1_555
C58K N25K 1_555 1_555
H61J C58J 1_555 1_555
H61K C58K 1_555 1_555
H62J C58J 1_555 1_555
H62K C58K 1_555 1_555
C59J N29J 1_555 1_555
C59K N29K 1_555 1_555
H63J C59J 1_555 1_555
H63K C59K 1_555 1_555
H64J C59J 1_555 1_555
H64K C59K 1_555 1_555
C60N N34N 1_555 1_555
C60J N34J 1_555 1_555
C61N C60N 1_555 1_555
C61J C60J 1_555 1_555
H65N C61N 1_555 1_555
H65J C61J 1_555 1_555
H66N C61N 1_555 1_555
H66J C61J 1_555 1_555
H67N C61N 1_555 1_555
H67J C61J 1_555 1_555
C62N N33N 1_555 1_555
C62J N33J 1_555 1_555
C63N C62N 1_555 1_555
C63J C62J 1_555 1_555
H68N C63N 1_555 1_555
H68J C63J 1_555 1_555
C64N C63N 1_555 1_555
C64J C63J 1_555 1_555
H69N C64N 1_555 1_555
H69J C64J 1_555 1_555
C65N C64N 1_555 1_555
C65J C64J 1_555 1_555
H70N C65N 1_555 1_555
H70J C65J 1_555 1_555
C66N N33N 1_555 1_555
C66J N33J 1_555 1_555
C67N N32N 1_555 1_555
C67J N32J 1_555 1_555
C68N C67N 1_555 1_555
C68J C67J 1_555 1_555
H71N C68N 1_555 1_555
H71J C68J 1_555 1_555
H72N C68N 1_555 1_555
H72J C68J 1_555 1_555
H73N C68N 1_555 1_555
H73J C68J 1_555 1_555
C69N N32N 1_555 1_555
C69J N32J 1_555 1_555
H74N C69N 1_555 1_555
H74J C69J 1_555 1_555
H75N C69N 1_555 1_555
H75J C69J 1_555 1_555
C70N N31N 1_555 1_555
C70J N31J 1_555 1_555
H76N C70N 1_555 1_555
H76J C70J 1_555 1_555
H77N C70N 1_555 1_555
H77J C70J 1_555 1_555
C71N N31N 1_555 1_555
C71J N31J 1_555 1_555
H78N C71N 1_555 1_555
H78J C71J 1_555 1_555
H79N C71N 1_555 1_555
H79J C71J 1_555 1_555
C72N N30N 1_555 1_555
C72J N30J 1_555 1_555
H80N C72N 1_555 1_555
H80J C72J 1_555 1_555
H81N C72N 1_555 1_555
H81J C72J 1_555 1_555
C73N N30N 1_555 1_555
C73J N30J 1_555 1_555
H82N C73N 1_555 1_555
H82J C73J 1_555 1_555
H83N C73N 1_555 1_555
H83J C73J 1_555 1_555
C74N N34N 1_555 1_555
C74J N34J 1_555 1_555
H84N C74N 1_555 1_555
H84J C74J 1_555 1_555
H85N C74N 1_555 1_555
H85J C74J 1_555 1_555
N4 C4 1_555 1_555
C15 C16 1_555 1_555
C17 C18 1_555 1_555
C19 C21 1_555 1_555
C24 C25 1_555 1_555
C25 C26 1_555 1_555
C28 C29 1_555 1_555
C30 C31 1_555 1_555
C32 C33 1_555 1_555
C34 C35 1_555 1_555
C36 C38 1_555 1_555
C41 C42 1_555 1_555
C42 C43 1_555 1_555
C45 C46 1_555 1_555
C47 C48 1_555 1_555
C49 C51 1_555 1_555
C54 C55 1_555 1_555
C55 C56 1_555 1_555
C58 C59 1_555 1_555
C60 C62 1_555 1_555
C65 C66 1_555 1_555
C66 C67 1_555 1_555
C69 C70 1_555 1_555
C71 C72 1_555 1_555
C73 C74 1_555 1_555
N4J C4J 1_555 1_555
N4K C4K 1_555 1_555
N6K C6K 1_555 1_555
C15J C16J 1_555 1_555
C15K C16K 1_555 1_555
C17J C18J 1_555 1_555
C17K C18K 1_555 1_555
C19J C21J 1_555 1_555
C19K C21K 1_555 1_555
C24J C25J 1_555 1_555
C24K C25K 1_555 1_555
C25J C26J 1_555 1_555
C25K C26K 1_555 1_555
C28J C29J 1_555 1_555
C28K C29K 1_555 1_555
C30J C31J 1_555 1_555
C30K C31K 1_555 1_555
C32J C33J 1_555 1_555
C32K C33K 1_555 1_555
C34J C35J 1_555 1_555
C34K C35K 1_555 1_555
C36J C38J 1_555 1_555
C36K C38K 1_555 1_555
C41J C42J 1_555 1_555
C41K C42K 1_555 1_555
C42J C43J 1_555 1_555
C42K C43K 1_555 1_555
C45J C46J 1_555 1_555
C45K C46K 1_555 1_555
C47J C48J 1_555 1_555
C47K C48K 1_555 1_555
C49J C51J 1_555 1_555
C49K C51K 1_555 1_555
C54J C55J 1_555 1_555
C54K C55K 1_555 1_555
C55J C56J 1_555 1_555
C55K C56K 1_555 1_555
C58J C59J 1_555 1_555
C58K C59K 1_555 1_555
C60N C62N 1_555 1_555
C60J C62J 1_555 1_555
C65N C66N 1_555 1_555
C65J C66J 1_555 1_555
C66N C67N 1_555 1_555
C66J C67J 1_555 1_555
C69N C70N 1_555 1_555
C69J C70J 1_555 1_555
C71N C72N 1_555 1_555
C71J C72J 1_555 1_555
C73N C74N 1_555 1_555
C73J C74J 1_555 1_555

#END
