
#######################################################################
#
#                 Cambridge Crystallographic Data Centre
#                                CCDC 
#
#######################################################################
#
# If this CIF has been generated from an entry in the Cambridge 
# Structural Database, then it will include bibliographic, chemical, 
# crystal, experimental, refinement or atomic coordinate data resulting 
# from the CCDC's data processing and validation procedures.
#
#######################################################################

data_HEFLIN
_symmetry_cell_setting           triclinic
_symmetry_space_group_name_H-M   'P -1'
_symmetry_Int_Tables_number      2
_space_group_name_Hall           '-P 1'
loop_
_symmetry_equiv_pos_site_id
_symmetry_equiv_pos_as_xyz
1 x,y,z
2 -x,-y,-z
_cell_length_a                   11.408(6)
_cell_length_b                   12.990(6)
_cell_length_c                   9.469(3)
_cell_angle_alpha                104.84(3)
_cell_angle_beta                 92.84(3)
_cell_angle_gamma                65.31(3)
_cell_volume                     1229.77
loop_
_atom_site_label
_atom_site_type_symbol
_atom_site_fract_x
_atom_site_fract_y
_atom_site_fract_z
Sm1 Sm 0.0227(1) 0.0123(1) 0.2453(1)
O1 O 0.0001(8) -0.1180(6) 0.3529(8)
O2 O -0.013(1) -0.1722(9) 0.5510(7)
O3 O 0.120(4) -0.389(2) -0.111(2)
O4 O 0.176(2) -0.581(1) -0.154(3)
O5 O -0.1512(7) 0.1965(5) 0.2054(6)
O6 O -0.2058(5) 0.1188(5) 0.3585(6)
O7 O -0.660(2) 0.640(1) 0.211(2)
O8 O -0.463(2) 0.578(1) 0.138(1)
O9 O -0.0954(6) -0.0479(6) 0.0479(7)
O10 O -0.1696(9) -0.0768(9) -0.1709(8)
O11 O -0.307(2) -0.111(3) 0.447(1)
O12 O -0.466(2) -0.154(2) 0.405(2)
O13 O 0.1803(7) -0.1696(6) 0.0841(6)
O14 O 0.2230(7) -0.0708(9) 0.3744(7)
N1 N 0.150(1) -0.481(2) -0.078(2)
N2 N -0.541(2) 0.575(1) 0.202(1)
N3 N -0.386(2) -0.127(2) 0.367(1)
C1 C -0.005(1) -0.1886(9) 0.4197(9)
C2 C 0.053(1) -0.320(1) 0.327(2)
C3 C 0.079(2) -0.337(1) 0.166(2)
C4 C 0.120(2) -0.451(2) 0.076(2)
C5 C 0.135(1) -0.555(1) 0.144(2)
C6 C 0.111(3) -0.532(2) 0.295(4)
C7 C 0.030(3) -0.390(2) 0.407(4)
C8 C -0.2330(9) 0.1960(7) 0.2901(8)
C9 C -0.365(1) 0.2985(9) 0.3158(9)
C10 C -0.393(1) 0.3861(9) 0.249(1)
C11 C -0.513(2) 0.475(1) 0.274(1)
C12 C -0.612(2) 0.470(2) 0.353(2)
C13 C -0.583(2) 0.379(2) 0.414(2)
C14 C -0.458(1) 0.291(1) 0.397(1)
C15 C -0.174(1) -0.072(1) -0.040(1)
C16 C -0.274(1) -0.102(1) 0.018(1)
C17 C -0.287(1) -0.091(2) 0.168(1)
C18 C -0.378(1) -0.124(2) 0.211(1)
C19 C -0.459(1) -0.160(2) 0.116(2)
C20 C -0.445(1) -0.166(1) -0.031(2)
C21 C -0.353(1) -0.137(1) -0.081(1)
O2A O 0.013(1) 0.1722(9) 0.4490(7)
O10A O 0.1696(9) 0.0768(9) 0.1709(8)
Sm1A Sm -0.0227(1) -0.0123(1) 0.7547(1)
Sm1A_2 Sm -0.0227(1) -0.0123(1) -0.2453(1)
loop_
_geom_bond_atom_site_label_1
_geom_bond_atom_site_label_2
_geom_bond_site_symmetry_1
_geom_bond_site_symmetry_2
Sm1 O1 1_555 1_555
O1 C1 1_555 1_555
O2 C1 1_555 1_555
O3 N1 1_555 1_555
O4 N1 1_555 1_555
O5 Sm1 1_555 1_555
O6 Sm1 1_555 1_555
O7 N2 1_555 1_555
O8 N2 1_555 1_555
O9 Sm1 1_555 1_555
O10 C15 1_555 1_555
O11 N3 1_555 1_555
O12 N3 1_555 1_555
O13 Sm1 1_555 1_555
O14 Sm1 1_555 1_555
N1 C4 1_555 1_555
N2 C11 1_555 1_555
N3 C18 1_555 1_555
C1 C2 1_555 1_555
C2 C3 1_555 1_555
C3 C4 1_555 1_555
C4 C5 1_555 1_555
C5 C6 1_555 1_555
C6 C7 1_555 1_555
C7 C2 1_555 1_555
C8 O5 1_555 1_555
C9 C8 1_555 1_555
C10 C9 1_555 1_555
C11 C10 1_555 1_555
C12 C11 1_555 1_555
C13 C12 1_555 1_555
C14 C9 1_555 1_555
C15 O9 1_555 1_555
C16 C15 1_555 1_555
C17 C16 1_555 1_555
C18 C17 1_555 1_555
C19 C18 1_555 1_555
C20 C19 1_555 1_555
C21 C16 1_555 1_555
O2A Sm1 1_555 1_555
O10A Sm1 1_555 1_555
Sm1A O2 1_555 1_555
Sm1A_2 O10 1_555 1_555
O6 C8 1_555 1_555
C13 C14 1_555 1_555
C20 C21 1_555 1_555

#END
