
#######################################################################
#
#                 Cambridge Crystallographic Data Centre
#                                CCDC 
#
#######################################################################
#
# If this CIF has been generated from an entry in the Cambridge 
# Structural Database, then it will include bibliographic, chemical, 
# crystal, experimental, refinement or atomic coordinate data resulting 
# from the CCDC's data processing and validation procedures.
#
#######################################################################

data_HEFNOX
_symmetry_cell_setting           orthorhombic
_symmetry_space_group_name_H-M   'P 21 21 21'
_symmetry_Int_Tables_number      19
_space_group_name_Hall           'P 2ac 2ab'
loop_
_symmetry_equiv_pos_site_id
_symmetry_equiv_pos_as_xyz
1 x,y,z
2 1/2-x,-y,1/2+z
3 1/2+x,1/2-y,-z
4 -x,1/2+y,1/2-z
_cell_length_a                   13.112(8)
_cell_length_b                   13.942(2)
_cell_length_c                   19.096(8)
_cell_angle_alpha                90
_cell_angle_beta                 90
_cell_angle_gamma                90
_cell_volume                     3490.89
loop_
_atom_site_label
_atom_site_type_symbol
_atom_site_fract_x
_atom_site_fract_y
_atom_site_fract_z
Cu1 Cu 0.36962(5) 0.09883(5) 0.53566(3)
O1 O 0.4270(3) 0.0921(3) 0.44100(18)
C1 C 0.3717(4) 0.0854(4) 0.3865(3)
N1 N 0.6210(3) -0.2573(3) 0.9667(2)
O2 O 0.3667(3) -0.0400(2) 0.54208(18)
H1 H 0.3548 -0.0967 0.5563
H2 H 0.3985 -0.0441 0.5034
Cu2 Cu 0.65186(5) -0.33327(4) 0.52294(3)
O3 O 0.2777(3) 0.0720(3) 0.38724(19)
C2 C 0.4238(4) 0.0974(4) 0.3175(3)
N2 N 0.6622(3) -0.1917(3) 0.5118(2)
O4 O 0.6446(3) -0.4743(3) 0.5352(2)
H3 H 0.666(5) -0.502(5) 0.496(4)
H4 H 0.678(5) -0.497(5) 0.555(4)
N3 N 0.5947(3) 0.0157(3) 0.6712(2)
H5 H 0.6273 -0.0357 0.6821
O5 O 0.4010(3) 0.1484(3) 0.07120(18)
C3 C 0.3663(4) 0.1035(4) 0.2565(2)
H6 H 0.2957 0.0986 0.2589
O6 O 0.4781(3) -0.3156(3) 0.5531(2)
H7 H 0.4291 -0.2828 0.5365
H8 H 0.4560 -0.3451 0.5890
N4 N 0.4844(3) 0.0015(3) 0.8318(2)
H11 H 0.4605 0.0255 0.8698
O8 O 0.2559(3) 0.1257(3) 0.13064(18)
C4 C 0.4126(4) 0.1168(4) 0.1924(3)
O10 O 0.7322(3) 0.1127(3) 0.18649(19)
C5 C 0.3505(4) 0.1306(3) 0.1265(3)
O12 O 0.7374(3) 0.1337(3) 0.30227(19)
C6 C 0.5183(4) 0.1195(4) 0.1888(3)
H14 H 0.5499 0.1251 0.1455
O13 O 0.3022(3) 0.1078(3) 0.62816(17)
C7 C 0.5773(4) 0.1140(4) 0.2488(3)
O14 O 0.1561(3) 0.0984(3) 0.56931(17)
C8 C 0.6892(4) 0.1185(4) 0.2422(3)
O15 O 0.1410(3) 0.1729(3) 0.93966(16)
C9 C 0.5301(4) 0.1035(4) 0.3129(3)
H15 H 0.5692 0.1004 0.3535
O16 O 0.2901(3) 0.1699(3) 0.88360(17)
C10 C 0.2061(4) 0.1110(4) 0.6242(3)
O17 O -0.1651(3) 0.1623(3) 0.68053(17)
C11 C 0.1475(4) 0.1288(3) 0.6908(2)
O18 O -0.1828(3) 0.1604(3) 0.79617(18)
C12 C 0.1944(4) 0.1425(4) 0.7549(3)
H16 H 0.2653 0.1428 0.7570
O19 O 0.5264(3) 0.1045(3) 0.58514(18)
C13 C 0.1397(4) 0.1557(3) 0.8157(2)
O20 O 0.5620(3) -0.1237(3) 0.78012(19)
C14 C 0.1923(4) 0.1673(4) 0.8849(3)
C15 C 0.0341(4) 0.1554(4) 0.8126(3)
H17 H -0.0036 0.1621 0.8535
C16 C -0.0159(4) 0.1452(4) 0.7488(3)
C17 C -0.1293(4) 0.1560(3) 0.7454(2)
C18 C 0.0412(4) 0.1317(4) 0.6880(3)
H18 H 0.0082 0.1245 0.6452
C19 C 0.5762(4) 0.0328(4) 0.6036(3)
C20 C 0.5628(4) 0.0794(4) 0.7272(3)
H19 H 0.5533 0.1430 0.7077
H20 H 0.6179 0.0835 0.7610
C21 C 0.4674(4) 0.0520(4) 0.7654(3)
H21 H 0.4283 0.1097 0.7747
H22 H 0.4266 0.0114 0.7351
C22 C 0.5358(4) -0.0804(4) 0.8344(3)
C23 C 0.5659(4) -0.1177(4) 0.9036(3)
C24 C 0.5876(4) -0.2150(4) 0.9078(3)
H23 H 0.5787 -0.2526 0.8681
C25 C 0.6344(4) -0.2023(3) 1.0230(3)
H24 H 0.6575 -0.2308 1.0641
C26 C 0.6155(4) -0.1047(4) 1.0234(3)
H25 H 0.6263 -0.0687 1.0637
C27 C 0.5804(4) -0.0618(4) 0.9631(3)
H26 H 0.5667 0.0036 0.9621
C28 C 0.6199(4) -0.0339(4) 0.5512(2)
C29 C 0.6262(4) -0.1319(4) 0.5611(3)
H27 H 0.6046 -0.1574 0.6035
C30 C 0.6974(4) -0.1539(4) 0.4515(3)
H28 H 0.7242 -0.1946 0.4175
C31 C 0.6948(4) -0.0555(4) 0.4386(3)
H29 H 0.7204 -0.0308 0.3969
C32 C 0.6541(4) 0.0042(4) 0.4881(3)
H30 H 0.6493 0.0697 0.4796
Cu1C Cu 0.63038(5) -0.40117(5) 0.96434(3)
N1C N 0.3790(3) 0.2427(3) 0.5333(2)
Cu2C Cu 0.34814(5) 0.16673(4) -0.02294(3)
Cu2C_2 Cu 0.34814(5) 0.16673(4) 0.97706(3)
O5C O 0.5990(3) -0.3516(3) 0.42880(18)
O16C O 0.7099(3) -0.3301(3) 0.61640(17)
O7 O -0.3318(3) 0.2651(3) 0.6511(2)
H9 H -0.2738 0.2566 0.6322
H10 H -0.3749 0.2316 0.6286
O9 O 0.4302(3) -0.2185(3) 0.67388(19)
H12 H 0.3746 -0.2102 0.6959
H13 H 0.4785 -0.1994 0.7001
O11 O 0.1282(4) 0.2609(3) 0.4929(2)
loop_
_geom_bond_atom_site_label_1
_geom_bond_atom_site_label_2
_geom_bond_site_symmetry_1
_geom_bond_site_symmetry_2
Cu1 O1 1_555 1_555
O1 C1 1_555 1_555
C1 O3 1_555 1_555
N1 C24 1_555 1_555
O2 Cu1 1_555 1_555
H1 O2 1_555 1_555
H2 O2 1_555 1_555
Cu2 N2 1_555 1_555
C2 C1 1_555 1_555
N2 C29 1_555 1_555
O4 Cu2 1_555 1_555
H3 O4 1_555 1_555
H4 O4 1_555 1_555
N3 H5 1_555 1_555
O5 C5 1_555 1_555
C3 C2 1_555 1_555
H6 C3 1_555 1_555
O6 Cu2 1_555 1_555
H7 O6 1_555 1_555
H8 O6 1_555 1_555
O7 H9 1_555 1_555
H10 O7 1_555 1_555
N4 H11 1_555 1_555
O8 C5 1_555 1_555
C4 C3 1_555 1_555
O9 H12 1_555 1_555
H13 O9 1_555 1_555
O10 C8 1_555 1_555
C5 C4 1_555 1_555
O12 C8 1_555 1_555
C6 C4 1_555 1_555
H14 C6 1_555 1_555
O13 Cu1 1_555 1_555
C7 C6 1_555 1_555
O14 C10 1_555 1_555
C8 C7 1_555 1_555
O15 C14 1_555 1_555
C9 C2 1_555 1_555
H15 C9 1_555 1_555
O16 C14 1_555 1_555
C10 O13 1_555 1_555
O17 C17 1_555 1_555
C11 C10 1_555 1_555
O18 C17 1_555 1_555
C12 C11 1_555 1_555
H16 C12 1_555 1_555
O19 Cu1 1_555 1_555
C13 C12 1_555 1_555
O20 C22 1_555 1_555
C14 C13 1_555 1_555
C15 C13 1_555 1_555
H17 C15 1_555 1_555
C16 C15 1_555 1_555
C17 C16 1_555 1_555
C18 C11 1_555 1_555
H18 C18 1_555 1_555
C19 N3 1_555 1_555
C20 N3 1_555 1_555
H19 C20 1_555 1_555
H20 C20 1_555 1_555
C21 N4 1_555 1_555
H21 C21 1_555 1_555
H22 C21 1_555 1_555
C22 N4 1_555 1_555
C23 C22 1_555 1_555
C24 C23 1_555 1_555
H23 C24 1_555 1_555
C25 N1 1_555 1_555
H24 C25 1_555 1_555
C26 C25 1_555 1_555
H25 C26 1_555 1_555
C27 C23 1_555 1_555
H26 C27 1_555 1_555
C28 C19 1_555 1_555
C29 C28 1_555 1_555
H27 C29 1_555 1_555
C30 N2 1_555 1_555
H28 C30 1_555 1_555
C31 C30 1_555 1_555
H29 C31 1_555 1_555
C32 C28 1_555 1_555
H30 C32 1_555 1_555
Cu1C N1 1_555 1_555
N1C Cu1 1_555 1_555
Cu2C O5 1_555 1_555
Cu2C_2 O16 1_555 1_555
O5C Cu2 1_555 1_555
O16C Cu2 1_555 1_555
C7 C9 1_555 1_555
O19 C19 1_555 1_555
C16 C18 1_555 1_555
C20 C21 1_555 1_555
C26 C27 1_555 1_555
C31 C32 1_555 1_555

#END
