
#######################################################################
#
#                 Cambridge Crystallographic Data Centre
#                                CCDC 
#
#######################################################################
#
# If this CIF has been generated from an entry in the Cambridge 
# Structural Database, then it will include bibliographic, chemical, 
# crystal, experimental, refinement or atomic coordinate data resulting 
# from the CCDC's data processing and validation procedures.
#
#######################################################################

data_HEFNUD
_symmetry_cell_setting           monoclinic
_symmetry_space_group_name_H-M   'C c'
_symmetry_Int_Tables_number      9
_space_group_name_Hall           'C -2yc'
loop_
_symmetry_equiv_pos_site_id
_symmetry_equiv_pos_as_xyz
1 x,y,z
2 x,-y,1/2+z
3 1/2+x,1/2+y,z
4 1/2+x,1/2-y,1/2+z
_cell_length_a                   16.463(8)
_cell_length_b                   16.314(9)
_cell_length_c                   8.839(5)
_cell_angle_alpha                90
_cell_angle_beta                 92.834(5)
_cell_angle_gamma                90
_cell_volume                     2371.05
loop_
_atom_site_label
_atom_site_type_symbol
_atom_site_fract_x
_atom_site_fract_y
_atom_site_fract_z
C1 C -0.02004(16) 0.13175(18) 1.1742(3)
C2 C 0.05781(16) 0.09642(17) 1.2435(3)
C3 C 0.11171(15) 0.14724(15) 1.3239(3)
H1 H 0.0999 0.2027 1.3328
C4 C 0.18287(17) 0.11637(16) 1.3912(3)
C5 C 0.24182(16) 0.17340(17) 1.4758(3)
C6 C 0.2007(2) 0.03397(18) 1.3738(4)
H2 H 0.2483 0.0123 1.4185
C7 C 0.1480(2) -0.0158(2) 1.2905(5)
H3 H 0.1609 -0.0707 1.2770
C8 C 0.0767(2) 0.0145(2) 1.2272(5)
H4 H 0.0409 -0.0200 1.1732
C9 C -0.03628(18) 0.32097(18) 0.8182(4)
H5 H -0.0286 0.3710 0.8673
C10 C -0.00640(19) 0.31141(18) 0.6755(4)
C11 C 0.03142(19) 0.38434(17) 0.6039(3)
C12 C 0.1360(2) 0.43965(19) 0.4491(3)
H6 H 0.0947 0.4776 0.4098
H7 H 0.1648 0.4185 0.3643
C13 C 0.1940(2) 0.4836(2) 0.5555(4)
H8 H 0.1665 0.4974 0.6466
H9 H 0.2387 0.4471 0.5842
C14 C 0.19792(19) 0.6329(2) 0.5218(4)
C15 C 0.24533(17) 0.70539(17) 0.4701(3)
C16 C 0.2465(2) 0.77491(19) 0.5618(4)
H10 H 0.2173 0.7756 0.6491
C17 C 0.2906(2) 0.8419(2) 0.5235(4)
H11 H 0.2928 0.8879 0.5857
C18 C -0.0204(2) 0.23772(18) 0.5998(4)
H12 H -0.0010 0.2291 0.5040
C19 C -0.06388(19) 0.17750(17) 0.6703(3)
H13 H -0.0749 0.1278 0.6221
C20 C -0.09036(18) 0.19197(17) 0.8115(4)
H14 H -0.1203 0.1513 0.8569
C21 C 0.28937(17) 0.70816(17) 0.3410(3)
H15 H 0.2898 0.6621 0.2791
C22 C 0.3319(2) 0.84058(19) 0.3915(4)
H16 H 0.3608 0.8868 0.3642
N1 N -0.07554(17) 0.26173(17) 0.8884(3)
N2 N 0.09734(16) 0.37216(14) 0.5262(3)
H17 H 0.1176 0.3237 0.5214
N3 N 0.22725(17) 0.55901(16) 0.4915(3)
H18 H 0.2670 0.5552 0.4324
N4 N 0.33143(16) 0.77430(13) 0.3015(3)
O1 O -0.02563(12) 0.20937(12) 1.1829(2)
O2 O -0.02368(13) 0.38163(14) 1.1739(3)
H19 H 0.0235 0.3710 1.1413
H20 H -0.0404 0.4276 1.1364
O3 O -0.07323(13) 0.08572(14) 1.1187(2)
O4 O 0.22361(13) 0.24668(13) 1.4906(3)
O5 O 0.30893(13) 0.14113(13) 1.5236(2)
O6 O -0.00002(17) 0.45223(13) 0.6178(3)
O7 O 0.13688(15) 0.64394(17) 0.5934(3)
Cu1 Cu -0.11271(2) 0.278923(16) 1.10177(3)
N4B N -0.16857(16) 0.27430(13) 1.3015(3)
O5C O -0.19107(13) 0.35887(13) 1.0236(2)
Cu1B Cu 0.38729(2) 0.778923(16) 0.10177(3)
Cu1C Cu 0.38729(2) 0.221077(16) 1.60177(3)
O8 O 0.3728(2) 0.5122(2) 0.3808(4)
H21 H 0.4073 0.4819 0.4285
H22 H 0.4023 0.5272 0.3096
loop_
_geom_bond_atom_site_label_1
_geom_bond_atom_site_label_2
_geom_bond_site_symmetry_1
_geom_bond_site_symmetry_2
C1 C2 1_555 1_555
C2 C3 1_555 1_555
C3 H1 1_555 1_555
C4 C3 1_555 1_555
C5 C4 1_555 1_555
C6 C4 1_555 1_555
H2 C6 1_555 1_555
C7 C6 1_555 1_555
H3 C7 1_555 1_555
C8 C2 1_555 1_555
H4 C8 1_555 1_555
C9 H5 1_555 1_555
C10 C9 1_555 1_555
C11 C10 1_555 1_555
C12 H6 1_555 1_555
H7 C12 1_555 1_555
C13 C12 1_555 1_555
H8 C13 1_555 1_555
H9 C13 1_555 1_555
C14 C15 1_555 1_555
C15 C16 1_555 1_555
C16 H10 1_555 1_555
C17 C16 1_555 1_555
H11 C17 1_555 1_555
C18 C10 1_555 1_555
H12 C18 1_555 1_555
C19 C18 1_555 1_555
H13 C19 1_555 1_555
C20 C19 1_555 1_555
H14 C20 1_555 1_555
C21 C15 1_555 1_555
H15 C21 1_555 1_555
C22 C17 1_555 1_555
H16 C22 1_555 1_555
N1 C9 1_555 1_555
N2 C11 1_555 1_555
H17 N2 1_555 1_555
N3 C13 1_555 1_555
H18 N3 1_555 1_555
N4 C21 1_555 1_555
O1 C1 1_555 1_555
O2 H19 1_555 1_555
H20 O2 1_555 1_555
O3 C1 1_555 1_555
O4 C5 1_555 1_555
O5 C5 1_555 1_555
O6 C11 1_555 1_555
O7 C14 1_555 1_555
Cu1 N1 1_555 1_555
O8 H21 1_555 1_555
H22 O8 1_555 1_555
N4B Cu1 1_555 1_555
O5C Cu1 1_555 1_555
Cu1B N4 1_555 1_555
Cu1C O5 1_555 1_555
C7 C8 1_555 1_555
C12 N2 1_555 1_555
C14 N3 1_555 1_555
C20 N1 1_555 1_555
C22 N4 1_555 1_555
O1 Cu1 1_555 1_555
O2 Cu1 1_555 1_555

#END
