
#######################################################################
#
#                 Cambridge Crystallographic Data Centre
#                                CCDC 
#
#######################################################################
#
# If this CIF has been generated from an entry in the Cambridge 
# Structural Database, then it will include bibliographic, chemical, 
# crystal, experimental, refinement or atomic coordinate data resulting 
# from the CCDC's data processing and validation procedures.
#
#######################################################################

data_HEFSIU
_symmetry_cell_setting           monoclinic
_symmetry_space_group_name_H-M   'P c'
_symmetry_Int_Tables_number      7
_space_group_name_Hall           'P -2yc'
loop_
_symmetry_equiv_pos_site_id
_symmetry_equiv_pos_as_xyz
1 x,y,z
2 x,-y,1/2+z
_cell_length_a                   8.293(3)
_cell_length_b                   16.580(2)
_cell_length_c                   13.465(2)
_cell_angle_alpha                90
_cell_angle_beta                 90.29(2)
_cell_angle_gamma                90
_cell_volume                     1851.39
loop_
_atom_site_label
_atom_site_type_symbol
_atom_site_fract_x
_atom_site_fract_y
_atom_site_fract_z
S1 S 0.5577 0.3877(4) 0.7453
S2 S 0.030(1) 0.3695(4) 0.4845(6)
S3 S 0.488(1) 0.6309(4) 0.7792(6)
S4 S -0.0370(6) 0.6090(4) 0.5140(4)
Na1 Na 0.261(2) 0.5025(8) 0.630(1)
Na2 Na 0.856(1) 0.5557(6) 0.7493(9)
Na3 Na 0.660(1) 0.4420(6) 0.5162(8)
Na4 Na 0.267(2) 0.4947(3) 0.879(1)
O1 O 0.439(2) 0.401(1) 0.824(1)
O2 O 0.465(2) 0.3944(8) 0.653(1)
O3 O 0.711(2) 0.434(1) 0.762(1)
O4 O 0.726(2) 0.040(1) 0.763(1)
O5 O 1.075(2) 0.209(1) 0.729(1)
O6 O 1.013(2) 0.087(1) 0.730(1)
O7 O 0.173(2) 0.416(1) 0.496(1)
O8 O -0.083(2) 0.380(1) 0.566(1)
O9 O -0.048(2) 0.3765(9) 0.386(1)
O10 O 0.223(2) 0.026(1) 0.498(1)
O11 O 0.566(2) 0.211(1) 0.526(1)
O12 O 0.527(2) 0.082(1) 0.510(1)
O13 O 0.619(2) 0.623(1) 0.708(1)
O14 O 0.347(2) 0.581(1) 0.752(1)
O15 O 0.536(2) 0.615(1) 0.880(1)
O16 O 0.292(2) 0.972(1) 0.735(1)
O17 O -0.053(2) 0.794(1) 0.746(1)
O18 O 0.010(2) 0.923(1) 0.725(1)
O19 O 0.067(2) 0.599(1) 0.430(1)
O20 O 0.023(2) 0.5904(9) 0.614(1)
O21 O -0.179(2) 0.566(1) 0.515(1)
O22 O -0.202(2) 0.954(1) 0.514(1)
O23 O -0.564(2) 0.779(1) 0.510(1)
O24 O -0.506(2) 0.908(1) 0.499(1)
O25 O 0.449(2) 0.555(1) 0.523(1)
O26 O 0.047(2) 0.440(1) 0.737(1)
N1 N 0.995(2) 0.164(1) 0.744(1)
N2 N 0.472(2) 0.155(1) 0.523(1)
N3 N 0.042(3) 0.852(2) 0.752(2)
N4 N -0.446(2) 0.840(1) 0.516(1)
C1 C 0.612(2) 0.2864(6) 0.749(1)
C2 C 0.773(2) 0.2635(8) 0.744(1)
C3 C 0.815(1) 0.1823(9) 0.751(1)
C4 C 0.696(2) 0.1240(6) 0.765(1)
C5 C 0.534(1) 0.1469(7) 0.770(1)
C6 C 0.492(1) 0.2281(8) 0.763(1)
C7 C 0.094(2) 0.2668(6) 0.491(1)
C8 C 0.257(2) 0.2486(8) 0.502(1)
C9 C 0.308(1) 0.1683(9) 0.504(1)
C10 C 0.195(2) 0.1063(7) 0.494(1)
C11 C 0.032(2) 0.1246(7) 0.483(1)
C12 C -0.019(1) 0.2048(8) 0.481(1)
C13 C 0.423(2) 0.7298(7) 0.763(1)
C14 C 0.541(2) 0.7897(9) 0.763(1)
C15 C 0.497(2) 0.8705(8) 0.753(1)
C16 C 0.335(2) 0.8914(7) 0.743(1)
C17 C 0.217(1) 0.832(1) 0.743(1)
C18 C 0.261(2) 0.7507(9) 0.754(1)
C19 C -0.089(2) 0.7134(7) 0.505(1)
C20 C 0.033(1) 0.771(1) 0.504(1)
C21 C -0.005(2) 0.8530(8) 0.509(1)
C22 C -0.166(2) 0.8770(7) 0.515(1)
C23 C -0.288(1) 0.819(1) 0.516(1)
C24 C -0.250(2) 0.7375(9) 0.511(1)
H1 H 0.8554 0.3031 0.7365
H2 H 0.4565 0.1055 0.7778
H3 H 0.3839 0.2419 0.7663
H4 H 0.3352 0.2921 0.5100
H5 H -0.0401 0.0825 0.4735
H6 H -0.1266 0.2171 0.4689
H7 H 0.6576 0.7742 0.7659
H8 H 0.5841 0.9102 0.7508
H9 H 0.1853 0.7097 0.7550
H10 H 0.1455 0.7533 0.4963
H11 H 0.0814 0.8908 0.5049
H12 H -0.3301 0.6969 0.5142
H13 H 0.1511 0.9824 0.7717
H14 H 0.0317 0.3996 0.6737
O9A O 0.952(2) 0.6235(9) 0.886(1)
O20_2 O 1.023(2) 0.5904(9) 0.614(1)
O26_2 O 1.047(2) 0.440(1) 0.737(1)
O8_2 O 0.917(2) 0.380(1) 0.566(1)
O15A O 0.536(2) 0.385(1) 0.380(1)
O21_2 O 0.821(2) 0.566(1) 0.515(1)
O7A O 0.173(2) 0.584(1) 0.996(1)
O19A O 0.067(2) 0.401(1) 0.930(1)
O25A O 0.449(2) 0.445(1) 1.023(1)
Na4A Na 0.267(2) 0.5053(3) 0.379(1)
Na3_2 Na -0.340(1) 0.4420(6) 0.5162(8)
Na2A Na -0.144(1) 0.4443(6) 0.2493(9)
Na3A Na 0.660(1) 0.5580(6) 1.0162(8)
Na2_2 Na -0.144(1) 0.5557(6) 0.7493(9)
H14_2 H 1.0317 0.3996 0.6737
loop_
_geom_bond_atom_site_label_1
_geom_bond_atom_site_label_2
_geom_bond_site_symmetry_1
_geom_bond_site_symmetry_2
S1 O1 1_555 1_555
S2 O7 1_555 1_555
S3 O13 1_555 1_555
S4 O19 1_555 1_555
Na1 O2 1_555 1_555
Na2 O3 1_555 1_555
Na3 O2 1_555 1_555
Na4 O1 1_555 1_555
O2 S1 1_555 1_555
O3 S1 1_555 1_555
O4 C4 1_555 1_555
O5 N1 1_555 1_555
O6 N1 1_555 1_555
O7 Na1 1_555 1_555
O8 S2 1_555 1_555
O9 S2 1_555 1_555
O10 C10 1_555 1_555
O11 N2 1_555 1_555
O12 N2 1_555 1_555
O13 Na2 1_555 1_555
O14 S3 1_555 1_555
O15 S3 1_555 1_555
O16 C16 1_555 1_555
O17 N3 1_555 1_555
O18 N3 1_555 1_555
O19 Na4A 1_555 1_555
O20 S4 1_555 1_555
O21 S4 1_555 1_555
O22 C22 1_555 1_555
O23 N4 1_555 1_555
O24 N4 1_555 1_555
O25 Na1 1_555 1_555
O26 Na1 1_555 1_555
N1 C3 1_555 1_555
N2 C9 1_555 1_555
N3 C17 1_555 1_555
N4 C23 1_555 1_555
C1 S1 1_555 1_555
C2 C1 1_555 1_555
C3 C2 1_555 1_555
C4 C3 1_555 1_555
C5 C4 1_555 1_555
C6 C1 1_555 1_555
C7 S2 1_555 1_555
C8 C7 1_555 1_555
C9 C8 1_555 1_555
C10 C9 1_555 1_555
C11 C10 1_555 1_555
C12 C7 1_555 1_555
C13 S3 1_555 1_555
C14 C13 1_555 1_555
C15 C14 1_555 1_555
C16 C15 1_555 1_555
C17 C16 1_555 1_555
C18 C13 1_555 1_555
C19 S4 1_555 1_555
C20 C19 1_555 1_555
C21 C20 1_555 1_555
C22 C21 1_555 1_555
C23 C22 1_555 1_555
C24 C19 1_555 1_555
H1 C2 1_555 1_555
H2 C5 1_555 1_555
H3 C6 1_555 1_555
H4 C8 1_555 1_555
H5 C11 1_555 1_555
H6 C12 1_555 1_555
H7 C14 1_555 1_555
H8 C15 1_555 1_555
H9 C18 1_555 1_555
H10 C20 1_555 1_555
H11 C21 1_555 1_555
H12 C24 1_555 1_555
H13 O16 1_555 1_555
H14 O26 1_555 1_555
O9A Na2 1_555 1_555
O20_2 Na2 1_555 1_555
O26_2 Na2 1_555 1_555
O8_2 Na3 1_555 1_555
O15A Na3 1_555 1_555
O21_2 Na3 1_555 1_555
O7A Na4 1_555 1_555
O19A Na4 1_555 1_555
O25A Na4 1_555 1_555
Na4A O7 1_555 1_555
Na3_2 O8 1_555 1_555
Na2A O9 1_555 1_555
Na3A O15 1_555 1_555
Na2_2 O20 1_555 1_555
H14_2 O26_2 1_555 1_555
Na1 O14 1_555 1_555
Na1 O20 1_555 1_555
Na3 O25 1_555 1_555
Na4 O14 1_555 1_555
O21 Na3_2 1_555 1_555
O25 Na4A 1_555 1_555
O26 Na2_2 1_555 1_555
C5 C6 1_555 1_555
C11 C12 1_555 1_555
C17 C18 1_555 1_555
C23 C24 1_555 1_555
O25A Na3A 1_555 1_555

#END
