
#######################################################################
#
#                 Cambridge Crystallographic Data Centre
#                                CCDC 
#
#######################################################################
#
# If this CIF has been generated from an entry in the Cambridge 
# Structural Database, then it will include bibliographic, chemical, 
# crystal, experimental, refinement or atomic coordinate data resulting 
# from the CCDC's data processing and validation procedures.
#
#######################################################################

data_HEFSIU01
_symmetry_cell_setting           monoclinic
_symmetry_space_group_name_H-M   'P 2/c'
_symmetry_Int_Tables_number      13
_space_group_name_Hall           '-P 2yc'
loop_
_symmetry_equiv_pos_site_id
_symmetry_equiv_pos_as_xyz
1 x,y,z
2 x,-y,1/2+z
3 -x,-y,-z
4 -x,y,1/2-z
_cell_length_a                   8.293
_cell_length_b                   16.580
_cell_length_c                   13.465
_cell_angle_alpha                90
_cell_angle_beta                 90.29
_cell_angle_gamma                90
_cell_volume                     1851.39
loop_
_atom_site_label
_atom_site_type_symbol
_atom_site_fract_x
_atom_site_fract_y
_atom_site_fract_z
S1 S 0.2974 0.3894 0.1157
S2 S -0.2290 0.3693 -0.1473
Na1 Na 0.0000 0.5000 0.0000
Na2 Na 0.4020 0.4431 -0.1166
Na3 Na 0.0000 0.4947 0.2500
O1 O 0.1860 0.4010 0.1970
O2 O 0.2210 0.4020 0.0195
O3 O 0.4450 0.4340 0.1235
O4 O 0.4640 0.0430 0.1245
O5 O 0.8195 0.2150 0.1095
O6 O 0.7595 0.0895 0.1155
O7 O -0.0870 0.4175 -0.1280
O8 O -0.3510 0.3785 -0.0710
O9 O -0.2920 0.3807 -0.2470
O10 O -0.0345 0.0270 -0.1185
O11 O 0.3095 0.2085 -0.1100
O12 O 0.2585 0.0795 -0.1075
O13 O 0.2010 0.5575 -0.1070
N1 N 0.720 0.162 0.114
N2 N 0.215 0.152 -0.114
C1 C 0.350 0.286 0.122
C2 C 0.512 0.263 0.116
C3 C 0.552 0.182 0.118
C4 C 0.431 0.124 0.125
C5 C 0.270 0.147 0.130
C6 C 0.230 0.229 0.130
C7 C -0.164 0.268 -0.136
C8 C -0.002 0.249 -0.126
C9 C 0.046 0.168 -0.120
C10 C -0.070 0.107 -0.124
C11 C -0.232 0.127 -0.135
C12 C -0.280 0.208 -0.141
S1B S -0.2974 0.6106 -0.1157
O1B O -0.1860 0.5990 -0.1970
O2B O -0.2210 0.5980 -0.0195
O3B O -0.4450 0.5660 -0.1235
O4B O -0.4640 0.9570 -0.1245
O5B O -0.8195 0.7850 -0.1095
O6B O -0.7595 0.9105 -0.1155
N1B N -0.720 0.838 -0.114
C1B C -0.350 0.714 -0.122
C2B C -0.512 0.737 -0.116
C3B C -0.552 0.818 -0.118
C4B C -0.431 0.876 -0.125
C5B C -0.270 0.853 -0.130
C6B C -0.230 0.771 -0.130
S2B S 0.2290 0.6307 0.1473
O7B O 0.0870 0.5825 0.1280
O8B O 0.3510 0.6215 0.0710
O9B O 0.2920 0.6193 0.2470
O10B O 0.0345 0.9730 0.1185
O11B O -0.3095 0.7915 0.1100
O12B O -0.2585 0.9205 0.1075
N2B N -0.215 0.848 0.114
C7B C 0.164 0.732 0.136
C8B C 0.002 0.751 0.126
C9B C -0.046 0.832 0.120
C10B C 0.070 0.893 0.124
C11B C 0.232 0.873 0.135
C12B C 0.280 0.792 0.141
O13B O -0.2010 0.4425 0.1070
Na2B Na -0.4020 0.5569 0.1166
O3B_2 O 0.5550 0.5660 -0.1235
O8_2 O 0.6490 0.3785 -0.0710
O9C O 0.2920 0.3807 -0.2530
O1C O -0.1860 0.4010 0.3030
O7A O -0.0870 0.5825 0.3720
Na2B_2 Na 0.5980 0.5569 0.1166
Na3A Na 0.0000 0.5053 -0.2500
Na2_2 Na -0.5980 0.4431 -0.1166
Na2C Na -0.4020 0.4431 -0.3834
Na2A Na 0.4020 0.5569 0.3834
O3_2 O -0.5550 0.4340 0.1235
O8B_2 O -0.6490 0.6215 0.0710
O9A O -0.2920 0.6193 0.2530
loop_
_geom_bond_atom_site_label_1
_geom_bond_atom_site_label_2
_geom_bond_site_symmetry_1
_geom_bond_site_symmetry_2
S1 O1 1_555 1_555
S2 O7 1_555 1_555
Na1 O2 1_555 1_555
Na2 O2 1_555 1_555
Na3 O1 1_555 1_555
O2 S1 1_555 1_555
O3 S1 1_555 1_555
O4 C4 1_555 1_555
O5 N1 1_555 1_555
O6 N1 1_555 1_555
O7 Na1 1_555 1_555
O8 S2 1_555 1_555
O9 S2 1_555 1_555
O10 C10 1_555 1_555
O11 N2 1_555 1_555
O12 N2 1_555 1_555
O13 Na1 1_555 1_555
N1 C3 1_555 1_555
N2 C9 1_555 1_555
C1 S1 1_555 1_555
C2 C1 1_555 1_555
C3 C2 1_555 1_555
C4 C3 1_555 1_555
C5 C4 1_555 1_555
C6 C1 1_555 1_555
C7 S2 1_555 1_555
C8 C7 1_555 1_555
C9 C8 1_555 1_555
C10 C9 1_555 1_555
C11 C10 1_555 1_555
C12 C7 1_555 1_555
S1B O1B 1_555 1_555
O1B Na3A 1_555 1_555
O2B Na1 1_555 1_555
O3B S1B 1_555 1_555
O4B C4B 1_555 1_555
O5B N1B 1_555 1_555
O6B N1B 1_555 1_555
N1B C3B 1_555 1_555
C1B S1B 1_555 1_555
C2B C1B 1_555 1_555
C3B C2B 1_555 1_555
C4B C3B 1_555 1_555
C5B C4B 1_555 1_555
C6B C1B 1_555 1_555
S2B O7B 1_555 1_555
O7B Na1 1_555 1_555
O8B S2B 1_555 1_555
O9B S2B 1_555 1_555
O10B C10B 1_555 1_555
O11B N2B 1_555 1_555
O12B N2B 1_555 1_555
N2B C9B 1_555 1_555
C7B S2B 1_555 1_555
C8B C7B 1_555 1_555
C9B C8B 1_555 1_555
C10B C9B 1_555 1_555
C11B C10B 1_555 1_555
C12B C7B 1_555 1_555
O13B Na1 1_555 1_555
Na2B O2B 1_555 1_555
O3B_2 Na2 1_555 1_555
O8_2 Na2 1_555 1_555
O9C Na2 1_555 1_555
O1C Na3 1_555 1_555
O7A Na3 1_555 1_555
Na2B_2 O3 1_555 1_555
Na3A O7 1_555 1_555
Na2_2 O8 1_555 1_555
Na2C O9 1_555 1_555
Na2A O9B 1_555 1_555
O3_2 Na2B 1_555 1_555
O8B_2 Na2B 1_555 1_555
O9A Na2B 1_555 1_555
Na2 O13 1_555 1_555
Na3 O7B 1_555 1_555
C5 C6 1_555 1_555
C11 C12 1_555 1_555
S1B O2B 1_555 1_555
O3B Na2_2 1_555 1_555
C5B C6B 1_555 1_555
O8B Na2B_2 1_555 1_555
C11B C12B 1_555 1_555
O13B Na2B 1_555 1_555

#END
