
#######################################################################
#
#                 Cambridge Crystallographic Data Centre
#                                CCDC 
#
#######################################################################
#
# If this CIF has been generated from an entry in the Cambridge 
# Structural Database, then it will include bibliographic, chemical, 
# crystal, experimental, refinement or atomic coordinate data resulting 
# from the CCDC's data processing and validation procedures.
#
#######################################################################

data_HEFTIW
_symmetry_cell_setting           orthorhombic
_symmetry_space_group_name_H-M   'P n n a'
_symmetry_Int_Tables_number      52
_space_group_name_Hall           '-P 2a 2bc'
loop_
_symmetry_equiv_pos_site_id
_symmetry_equiv_pos_as_xyz
1 x,y,z
2 1/2-x,-y,z
3 1/2-x,1/2+y,1/2-z
4 x,1/2-y,1/2-z
5 -x,-y,-z
6 1/2+x,y,-z
7 1/2+x,1/2-y,1/2+z
8 -x,1/2+y,1/2+z
_cell_length_a                   14.4859(9)
_cell_length_b                   12.5078(7)
_cell_length_c                   8.3069(5)
_cell_angle_alpha                90
_cell_angle_beta                 90
_cell_angle_gamma                90
_cell_volume                     1505.1
loop_
_atom_site_label
_atom_site_type_symbol
_atom_site_fract_x
_atom_site_fract_y
_atom_site_fract_z
Ni1 Ni 0.524147(18) 0.7500 0.2500
Na1 Na 0.22904(4) 0.85856(5) 0.10687(8)
O1 O 0.41759(8) 0.82432(8) 0.11125(13)
N1 N 0.54016(8) 0.90144(9) 0.30602(15)
O2 O 0.70149(8) 0.84653(9) 0.61005(13)
C1 C 0.41529(10) 0.92499(11) 0.12580(17)
C2 C 0.60581(9) 0.92872(11) 0.41039(17)
O3 O 0.62445(8) 0.74259(8) 0.43918(15)
C3 C 0.49218(10) 0.97468(12) 0.22476(17)
C4 C 0.62736(10) 1.03495(12) 0.43721(18)
C5 C 0.64812(9) 0.83288(11) 0.49443(18)
C6 C 0.51087(12) 1.08259(13) 0.24248(17)
C7 C 0.57969(11) 1.11240(12) 0.3497(2)
O4 O 0.35353(7) 0.98409(9) 0.07279(14)
H1 H 0.4781(12) 1.1344(15) 0.182(2)
H2 H 0.5957(13) 1.1850(15) 0.364(2)
H3 H 0.6691(12) 1.0512(14) 0.515(2)
Na1C Na 0.22904(4) 0.64144(5) 0.39313(8)
Na1E Na 0.72904(4) 0.85856(5) 0.89313(8)
Na1F Na 0.72904(4) 0.64144(5) 0.60687(8)
Na1A Na 0.27096(4) 1.14144(5) 0.10687(8)
Na1E_2 Na 0.72904(4) 0.85856(5) -0.10687(8)
Na1F_2 Na 0.72904(4) 0.64144(5) -0.39313(8)
Na1B Na 0.27096(4) 0.35856(5) 0.39313(8)
O1C O 0.41759(8) 0.67568(8) 0.38875(13)
N1C N 0.54016(8) 0.59856(9) 0.19398(15)
O2C O 0.70149(8) 0.65347(9) -0.11005(13)
O2E O 0.20149(8) 0.84653(9) 0.38995(13)
O2F O 0.20149(8) 0.65347(9) 0.11005(13)
C1C C 0.41529(10) 0.57501(11) 0.37420(17)
C2C C 0.60581(9) 0.57128(11) 0.08961(17)
O3C O 0.62445(8) 0.75741(8) 0.06082(15)
O3F O 0.12445(8) 0.75741(8) -0.06082(15)
O3E O 0.12445(8) 0.74259(8) 0.56082(15)
C3C C 0.49218(10) 0.52532(12) 0.27524(17)
C4C C 0.62736(10) 0.46505(12) 0.06279(18)
C5C C 0.64812(9) 0.66712(11) 0.00557(18)
C6C C 0.51087(12) 0.41741(13) 0.25752(17)
C7C C 0.57969(11) 0.38760(12) 0.1503(2)
O4C O 0.35353(7) 0.51591(9) 0.42721(14)
O4A O 0.14647(7) 1.01591(9) 0.07279(14)
O4B O 0.14647(7) 0.48409(9) 0.42721(14)
H1C H 0.4781(12) 0.3656(15) 0.318(2)
H2C H 0.5957(13) 0.3150(15) 0.136(2)
H3C H 0.6691(12) 0.4488(14) -0.015(2)
loop_
_geom_bond_atom_site_label_1
_geom_bond_atom_site_label_2
_geom_bond_site_symmetry_1
_geom_bond_site_symmetry_2
Ni1 O1 1_555 1_555
Na1 O1 1_555 1_555
O1 C1 1_555 1_555
N1 Ni1 1_555 1_555
O2 C5 1_555 1_555
C1 C3 1_555 1_555
C2 N1 1_555 1_555
O3 Ni1 1_555 1_555
C3 N1 1_555 1_555
C4 C2 1_555 1_555
C5 C2 1_555 1_555
C6 C3 1_555 1_555
C7 C4 1_555 1_555
O4 Na1 1_555 1_555
H1 C6 1_555 1_555
H2 C7 1_555 1_555
H3 C4 1_555 1_555
Na1C O1C 1_555 1_555
Na1E O2 1_555 1_555
Na1F O2 1_555 1_555
Na1A O4 1_555 1_555
Na1E_2 O2C 1_555 1_555
Na1F_2 O2C 1_555 1_555
Na1B O4C 1_555 1_555
O1C Ni1 1_555 1_555
N1C Ni1 1_555 1_555
O2C C5C 1_555 1_555
O2E Na1 1_555 1_555
O2F Na1 1_555 1_555
C1C O1C 1_555 1_555
C2C N1C 1_555 1_555
O3C Ni1 1_555 1_555
O3F Na1 1_555 1_555
O3E Na1C 1_555 1_555
C3C N1C 1_555 1_555
C4C C2C 1_555 1_555
C5C C2C 1_555 1_555
C6C C3C 1_555 1_555
C7C C4C 1_555 1_555
O4C Na1C 1_555 1_555
O4A Na1 1_555 1_555
O4B Na1C 1_555 1_555
H1C C6C 1_555 1_555
H2C C7C 1_555 1_555
H3C C4C 1_555 1_555
C1 O4 1_555 1_555
O3 C5 1_555 1_555
O3 Na1F 1_555 1_555
C6 C7 1_555 1_555
Na1C O2E 1_555 1_555
Na1C O2F 1_555 1_555
Na1A O4A 1_555 1_555
Na1E_2 O3C 1_555 1_555
Na1B O4B 1_555 1_555
C1C C3C 1_555 1_555
C1C O4C 1_555 1_555
O3C C5C 1_555 1_555
C6C C7C 1_555 1_555

#END
