
#######################################################################
#
#                 Cambridge Crystallographic Data Centre
#                                CCDC 
#
#######################################################################
#
# If this CIF has been generated from an entry in the Cambridge 
# Structural Database, then it will include bibliographic, chemical, 
# crystal, experimental, refinement or atomic coordinate data resulting 
# from the CCDC's data processing and validation procedures.
#
#######################################################################

data_HEFWUL
_symmetry_cell_setting           triclinic
_symmetry_space_group_name_H-M   'P -1'
_symmetry_Int_Tables_number      2
_space_group_name_Hall           '-P 1'
loop_
_symmetry_equiv_pos_site_id
_symmetry_equiv_pos_as_xyz
1 x,y,z
2 -x,-y,-z
_cell_length_a                   6.3906(9)
_cell_length_b                   13.613(2)
_cell_length_c                   15.466(3)
_cell_angle_alpha                63.894(3)
_cell_angle_beta                 81.922(4)
_cell_angle_gamma                80.455(3)
_cell_volume                     1188.01
loop_
_atom_site_label
_atom_site_type_symbol
_atom_site_fract_x
_atom_site_fract_y
_atom_site_fract_z
Cu1 Cu 1.0000 0.5000 0.0000
O1 O 0.8449(5) 0.5883(3) 0.0641(2)
O2 O 1.0703(5) 0.5976(3) 0.1580(2)
N1 N 0.7909(6) 0.3868(3) 0.0707(3)
N2 N 0.2262(7) 0.3897(4) 0.1482(3)
N3 N 0.1805(9) 1.0372(5) 0.1629(5)
C1 C 0.5913(7) 0.4173(4) 0.0951(3)
H1 H 0.5561 0.4895 0.0877
C2 C 0.4325(8) 0.3484(4) 0.1310(3)
C3 C 0.4885(8) 0.2411(4) 0.1439(4)
H2 H 0.3868 0.1920 0.1664
C4 C 0.6966(8) 0.2072(4) 0.1231(4)
H3 H 0.7381 0.1341 0.1342
C5 C 0.8413(8) 0.2810(4) 0.0861(3)
H4 H 0.9807 0.2573 0.0710
C6 C 0.9015(8) 0.6259(4) 0.1192(3)
C7 C 0.7412(8) 0.7130(4) 0.1323(3)
C8 C 0.7876(9) 0.7730(4) 0.1772(4)
H5 H 0.9190 0.7569 0.2027
C9 C 0.6438(10) 0.8570(5) 0.1855(4)
H6 H 0.6803 0.8975 0.2153
C10 C 0.4502(10) 0.8803(5) 0.1504(4)
C11 C 0.3944(9) 0.8192(5) 0.1067(5)
H7 H 0.2605 0.8336 0.0837
C12 C 0.5419(9) 0.7367(4) 0.0979(4)
H8 H 0.5061 0.6962 0.0681
C13 C 0.2973(11) 0.9673(5) 0.1583(5)
H17 H 0.205(9) 0.456(2) 0.149(4)
H18 H 0.138(8) 0.339(4) 0.183(3)
Cu1_2 Cu 0.0000 0.5000 0.0000
Cu1_3 Cu 2.0000 0.5000 0.0000
O1A O 1.1551(5) 0.4117(3) -0.0641(2)
O2A O 0.9297(5) 0.4024(3) -0.1580(2)
N1A N 1.2091(6) 0.6132(3) -0.0707(3)
N2A N 1.7738(7) 0.6103(4) -0.1482(3)
N2_2 N 1.2262(7) 0.3897(4) 0.1482(3)
N2A_2 N 0.7738(7) 0.6103(4) -0.1482(3)
N3A N 1.8195(9) -0.0372(5) -0.1629(5)
C1A C 1.4087(7) 0.5827(4) -0.0951(3)
H1A H 1.4439 0.5105 -0.0877
C2A C 1.5675(8) 0.6516(4) -0.1310(3)
C3A C 1.5115(8) 0.7589(4) -0.1439(4)
H2A H 1.6132 0.8080 -0.1664
C4A C 1.3034(8) 0.7928(4) -0.1231(4)
H3A H 1.2619 0.8659 -0.1342
C5A C 1.1587(8) 0.7190(4) -0.0861(3)
H4A H 1.0193 0.7427 -0.0710
C6A C 1.0985(8) 0.3741(4) -0.1192(3)
C7A C 1.2588(8) 0.2870(4) -0.1323(3)
C8A C 1.2124(9) 0.2270(4) -0.1772(4)
H5A H 1.0810 0.2431 -0.2027
C9A C 1.3562(10) 0.1430(5) -0.1855(4)
H6A H 1.3197 0.1025 -0.2153
C10A C 1.5498(10) 0.1197(5) -0.1504(4)
C11A C 1.6056(9) 0.1808(5) -0.1067(5)
H7A H 1.7395 0.1664 -0.0837
C12A C 1.4581(9) 0.2633(4) -0.0979(4)
H8A H 1.4939 0.3038 -0.0681
C13A C 1.7027(11) 0.0327(5) -0.1583(5)
H17A H 1.795(9) 0.544(2) -0.149(4)
H17_2 H 1.205(9) 0.456(2) 0.149(4)
H17A_2 H 0.795(9) 0.544(2) -0.149(4)
H18A H 1.862(8) 0.661(4) -0.183(3)
H18_2 H 1.138(8) 0.339(4) 0.183(3)
H18A_2 H 0.862(8) 0.661(4) -0.183(3)
Cu2 Cu 1.0000 0.5000 0.5000
O3 O 0.8420(5) 0.6445(3) 0.4728(2)
O4 O 1.0792(6) 0.7606(3) 0.3809(3)
N4 N 0.8073(6) 0.4805(3) 0.4135(3)
N5 N 0.2657(6) 0.5773(4) 0.3400(3)
N6 N 0.1252(9) 1.1718(4) 0.3588(4)
C14 C 0.6158(7) 0.5384(4) 0.3964(3)
H9 H 0.5798 0.5937 0.4175
C15 C 0.4658(7) 0.5211(4) 0.3485(3)
C16 C 0.5280(8) 0.4418(4) 0.3135(4)
H10 H 0.4348 0.4268 0.2810
C17 C 0.7306(8) 0.3854(4) 0.3277(3)
H11 H 0.7755 0.3334 0.3031
C18 C 0.8654(8) 0.4060(4) 0.3780(3)
H12 H 1.0006 0.3670 0.3876
C19 C 0.9046(9) 0.7393(4) 0.4229(4)
C20 C 0.7325(8) 0.8335(4) 0.4158(3)
C21 C 0.7837(8) 0.9408(4) 0.3729(4)
H13 H 0.9236 0.9545 0.3507
C22 C 0.6272(9) 1.0269(4) 0.3631(4)
H14 H 0.6625 1.0986 0.3360
C23 C 0.4204(8) 1.0077(4) 0.3930(4)
C24 C 0.3656(8) 0.9016(4) 0.4375(4)
H15 H 0.2253 0.8884 0.4591
C25 C 0.5256(8) 0.8154(4) 0.4490(4)
H16 H 0.4915 0.7435 0.4800
C26 C 0.2536(10) 1.0996(5) 0.3767(4)
H19 H 0.187(8) 0.585(5) 0.294(3)
H20 H 0.232(9) 0.635(3) 0.354(4)
Cu2_2 Cu 0.0000 0.5000 0.5000
Cu2_3 Cu 2.0000 0.5000 0.5000
O3A O 1.1580(5) 0.3555(3) 0.5272(2)
O4A O 0.9208(6) 0.2394(3) 0.6191(3)
N4A N 1.1927(6) 0.5195(3) 0.5865(3)
N5A N 1.7343(6) 0.4227(4) 0.6600(3)
N5_2 N 1.2657(6) 0.5773(4) 0.3400(3)
N5A_2 N 0.7343(6) 0.4227(4) 0.6600(3)
N6A N 1.8748(9) -0.1718(4) 0.6412(4)
C14A C 1.3842(7) 0.4616(4) 0.6036(3)
H9A H 1.4202 0.4063 0.5825
C15A C 1.5342(7) 0.4789(4) 0.6515(3)
C16A C 1.4720(8) 0.5582(4) 0.6865(4)
H10A H 1.5652 0.5732 0.7190
C17A C 1.2694(8) 0.6146(4) 0.6723(3)
H11A H 1.2245 0.6666 0.6969
C18A C 1.1346(8) 0.5940(4) 0.6220(3)
H12A H 0.9994 0.6330 0.6124
C19A C 1.0954(9) 0.2607(4) 0.5771(4)
C20A C 1.2675(8) 0.1665(4) 0.5842(3)
C21A C 1.2163(8) 0.0592(4) 0.6271(4)
H13A H 1.0764 0.0455 0.6493
C22A C 1.3728(9) -0.0269(4) 0.6369(4)
H14A H 1.3375 -0.0986 0.6640
C23A C 1.5796(8) -0.0077(4) 0.6070(4)
C24A C 1.6344(8) 0.0984(4) 0.5625(4)
H15A H 1.7747 0.1116 0.5409
C25A C 1.4744(8) 0.1846(4) 0.5510(4)
H16A H 1.5085 0.2565 0.5200
C26A C 1.7464(10) -0.0996(5) 0.6233(4)
H19A H 1.813(8) 0.415(5) 0.706(3)
H19_2 H 1.187(8) 0.585(5) 0.294(3)
H19A_2 H 0.813(8) 0.415(5) 0.706(3)
H20A H 1.768(9) 0.365(3) 0.646(4)
H20_2 H 1.232(9) 0.635(3) 0.354(4)
H20A_2 H 0.768(9) 0.365(3) 0.646(4)
loop_
_geom_bond_atom_site_label_1
_geom_bond_atom_site_label_2
_geom_bond_site_symmetry_1
_geom_bond_site_symmetry_2
Cu1 O1 1_555 1_555
Cu2 O3 1_555 1_555
O1 C6 1_555 1_555
O2 C6 1_555 1_555
O3 C19 1_555 1_555
O4 C19 1_555 1_555
N1 Cu1 1_555 1_555
N2 C2 1_555 1_555
N3 C13 1_555 1_555
N4 Cu2 1_555 1_555
N5 C15 1_555 1_555
N6 C26 1_555 1_555
C1 N1 1_555 1_555
H1 C1 1_555 1_555
C2 C1 1_555 1_555
C3 C2 1_555 1_555
H2 C3 1_555 1_555
C4 C3 1_555 1_555
H3 C4 1_555 1_555
C5 N1 1_555 1_555
H4 C5 1_555 1_555
C6 C7 1_555 1_555
C7 C8 1_555 1_555
C8 H5 1_555 1_555
C9 C8 1_555 1_555
H6 C9 1_555 1_555
C10 C9 1_555 1_555
C11 C10 1_555 1_555
H7 C11 1_555 1_555
C12 C7 1_555 1_555
H8 C12 1_555 1_555
C13 C10 1_555 1_555
C14 N4 1_555 1_555
H9 C14 1_555 1_555
C15 C14 1_555 1_555
C16 C15 1_555 1_555
H10 C16 1_555 1_555
C17 C16 1_555 1_555
H11 C17 1_555 1_555
C18 N4 1_555 1_555
H12 C18 1_555 1_555
C19 C20 1_555 1_555
C20 C21 1_555 1_555
C21 H13 1_555 1_555
C22 C21 1_555 1_555
H14 C22 1_555 1_555
C23 C22 1_555 1_555
C24 C23 1_555 1_555
H15 C24 1_555 1_555
C25 C20 1_555 1_555
H16 C25 1_555 1_555
C26 C23 1_555 1_555
H17 N2 1_555 1_555
H18 N2 1_555 1_555
H19 N5 1_555 1_555
H20 N5 1_555 1_555
Cu1_2 N2 1_555 1_555
Cu1_3 N2A 1_555 1_555
Cu2_2 N5 1_555 1_555
Cu2_3 N5A 1_555 1_555
O1A Cu1 1_555 1_555
O2A C6A 1_555 1_555
O3A Cu2 1_555 1_555
O4A C19A 1_555 1_555
N1A Cu1 1_555 1_555
N2A C2A 1_555 1_555
N2_2 Cu1 1_555 1_555
N2A_2 Cu1 1_555 1_555
N3A C13A 1_555 1_555
N4A Cu2 1_555 1_555
N5A C15A 1_555 1_555
N5_2 Cu2 1_555 1_555
N5A_2 Cu2 1_555 1_555
N6A C26A 1_555 1_555
C1A N1A 1_555 1_555
H1A C1A 1_555 1_555
C2A C1A 1_555 1_555
C3A C2A 1_555 1_555
H2A C3A 1_555 1_555
C4A C3A 1_555 1_555
H3A C4A 1_555 1_555
C5A N1A 1_555 1_555
H4A C5A 1_555 1_555
C6A O1A 1_555 1_555
C7A C6A 1_555 1_555
C8A C7A 1_555 1_555
H5A C8A 1_555 1_555
C9A C8A 1_555 1_555
H6A C9A 1_555 1_555
C10A C9A 1_555 1_555
C11A C10A 1_555 1_555
H7A C11A 1_555 1_555
C12A C7A 1_555 1_555
H8A C12A 1_555 1_555
C13A C10A 1_555 1_555
C14A N4A 1_555 1_555
H9A C14A 1_555 1_555
C15A C14A 1_555 1_555
C16A C15A 1_555 1_555
H10A C16A 1_555 1_555
C17A C16A 1_555 1_555
H11A C17A 1_555 1_555
C18A N4A 1_555 1_555
H12A C18A 1_555 1_555
C19A O3A 1_555 1_555
C20A C19A 1_555 1_555
C21A C20A 1_555 1_555
H13A C21A 1_555 1_555
C22A C21A 1_555 1_555
H14A C22A 1_555 1_555
C23A C22A 1_555 1_555
C24A C23A 1_555 1_555
H15A C24A 1_555 1_555
C25A C20A 1_555 1_555
H16A C25A 1_555 1_555
C26A C23A 1_555 1_555
H17A N2A 1_555 1_555
H17_2 N2_2 1_555 1_555
H17A_2 N2A_2 1_555 1_555
H18A N2A 1_555 1_555
H18_2 N2_2 1_555 1_555
H18A_2 N2A_2 1_555 1_555
H19A N5A 1_555 1_555
H19_2 N5_2 1_555 1_555
H19A_2 N5A_2 1_555 1_555
H20A N5A 1_555 1_555
H20_2 N5_2 1_555 1_555
H20A_2 N5A_2 1_555 1_555
C4 C5 1_555 1_555
C11 C12 1_555 1_555
C17 C18 1_555 1_555
C24 C25 1_555 1_555
C4A C5A 1_555 1_555
C11A C12A 1_555 1_555
C17A C18A 1_555 1_555
C24A C25A 1_555 1_555

#END
