
#######################################################################
#
#                 Cambridge Crystallographic Data Centre
#                                CCDC 
#
#######################################################################
#
# If this CIF has been generated from an entry in the Cambridge 
# Structural Database, then it will include bibliographic, chemical, 
# crystal, experimental, refinement or atomic coordinate data resulting 
# from the CCDC's data processing and validation procedures.
#
#######################################################################

data_HEFWEV
_symmetry_cell_setting           triclinic
_symmetry_space_group_name_H-M   'P -1'
_symmetry_Int_Tables_number      2
_space_group_name_Hall           '-P 1'
loop_
_symmetry_equiv_pos_site_id
_symmetry_equiv_pos_as_xyz
1 x,y,z
2 -x,-y,-z
_cell_length_a                   6.153(2)
_cell_length_b                   8.455(3)
_cell_length_c                   13.769(4)
_cell_angle_alpha                69.441(11)
_cell_angle_beta                 79.673(13)
_cell_angle_gamma                87.265(14)
_cell_volume                     659.737
loop_
_atom_site_label
_atom_site_type_symbol
_atom_site_fract_x
_atom_site_fract_y
_atom_site_fract_z
K1 K -0.20943(6) -0.35876(5) -0.09249(3)
O1 O -0.45904(19) 0.03835(14) -0.24719(8)
O2 O -0.55791(19) -0.22953(14) -0.21387(8)
O3 O -0.99396(18) -0.14597(14) -0.29777(9)
O5 O 0.1771(2) -0.52350(17) -0.11663(10)
H1 H 0.201(4) -0.615(4) -0.131(2)
H2 H 0.274(4) -0.451(3) -0.160(2)
C1 C -0.5114(2) -0.08000(18) -0.27434(10)
C2 C -0.3440(2) 0.06656(17) -0.46368(10)
H3 H -0.2370 0.1133 -0.4391
O6 O -0.2190(2) 0.0123(2) -0.09086(10)
H4 H -0.287(5) 0.023(4) -0.144(3)
H5 H -0.104(5) 0.054(4) -0.113(2)
C3 C -0.6707(2) -0.10359(16) -0.42838(10)
C4 C -0.8697(2) -0.20430(17) -0.35595(10)
C5 C -0.9101(2) -0.37297(17) -0.36100(11)
O7 O -0.3471(3) -0.69872(18) -0.00678(11)
C6 C -1.1242(2) -0.44311(19) -0.32867(12)
H6 H -1.2448 -0.3790 -0.3098
C7 C -0.7332(3) -0.46689(19) -0.39006(12)
H7 H -0.5888 -0.4181 -0.4141
C8 C -1.1594(3) -0.6065(2) -0.32425(14)
H8 H -1.3046 -0.6539 -0.3034
C9 C -0.9815(3) -0.7012(2) -0.35041(13)
H9 H -1.0058 -0.8141 -0.3455
C10 C -0.7691(3) -0.6318(2) -0.38364(13)
H10 H -0.6489 -0.6967 -0.4019
C11 C -0.5123(2) -0.03769(16) -0.39079(10)
H11 H -0.338(5) -0.748(4) 0.057(3)
H12 H -0.297(6) -0.772(5) -0.034(3)
K1A K -0.79057(6) 0.35876(5) -0.90751(3)
K1A_2 K 0.20943(6) -0.64124(5) 0.09249(3)
K1_2 K -1.20943(6) -0.35876(5) -0.09249(3)
K1A_3 K -0.79057(6) -0.64124(5) 0.09249(3)
K1A_4 K 0.20943(6) 0.35876(5) -0.90751(3)
K1_3 K -1.20943(6) 0.64124(5) -1.09249(3)
O1A O -0.54096(19) -0.03835(14) -0.75281(8)
O2A O -0.44209(19) 0.22953(14) -0.78613(8)
O3A O -0.00604(18) 0.14597(14) -0.70223(9)
O3_2 O 0.00604(18) -0.14597(14) -0.29777(9)
O3A_2 O -1.00604(18) 0.14597(14) -0.70223(9)
O5A O -0.1771(2) -0.47650(17) 0.11663(10)
O5_2 O -0.8229(2) 0.47650(17) -1.11663(10)
O5A_2 O -1.1771(2) 0.52350(17) -0.88337(10)
H1A H -0.201(4) -0.385(4) 0.131(2)
H1_2 H -0.799(4) 0.385(4) -1.131(2)
H1A_2 H -1.201(4) 0.615(4) -0.869(2)
H2A H -0.274(4) -0.549(3) 0.160(2)
H2_2 H -0.726(4) 0.549(3) -1.160(2)
H2A_2 H -1.274(4) 0.451(3) -0.840(2)
C1A C -0.4886(2) 0.08000(18) -0.72566(10)
C2A C -0.6560(2) -0.06656(17) -0.53632(10)
H3A H -0.7630 -0.1133 -0.5609
O6A O -0.7810(2) -0.0123(2) -0.90914(10)
H4A H -0.713(5) -0.023(4) -0.856(3)
H5A H -0.896(5) -0.054(4) -0.887(2)
C3A C -0.3293(2) 0.10359(16) -0.57162(10)
C4A C -0.1303(2) 0.20430(17) -0.64405(10)
C5A C -0.0899(2) 0.37297(17) -0.63900(11)
O7A O -0.6529(3) -0.30128(18) 0.00678(11)
O7_2 O -0.3471(3) 0.30128(18) -1.00678(11)
O7A_2 O -0.6529(3) 0.69872(18) -0.99322(11)
C6A C 0.1242(2) 0.44311(19) -0.67133(12)
H6A H 0.2448 0.3790 -0.6902
C7A C -0.2668(3) 0.46689(19) -0.60994(12)
H7A H -0.4112 0.4181 -0.5859
C8A C 0.1594(3) 0.6065(2) -0.67575(14)
H8A H 0.3046 0.6539 -0.6966
C9A C -0.0185(3) 0.7012(2) -0.64959(13)
H9A H 0.0058 0.8141 -0.6545
C10A C -0.2309(3) 0.6318(2) -0.61636(13)
H10A H -0.3511 0.6967 -0.5981
C11A C -0.4877(2) 0.03769(16) -0.60921(10)
H11A H -0.662(5) -0.252(4) -0.057(3)
H11_2 H -0.338(5) 0.252(4) -0.943(3)
H11A_2 H -0.662(5) 0.748(4) -1.057(3)
H12A H -0.703(6) -0.228(5) 0.034(3)
H12_2 H -0.297(6) 0.228(5) -1.034(3)
H12A_2 H -0.703(6) 0.772(5) -0.966(3)
O4 O 0.2059(2) 0.14606(16) -0.12166(10)
H13 H 0.234(5) 0.102(4) -0.059(3)
H14 H 0.306(5) 0.122(3) -0.160(2)
loop_
_geom_bond_atom_site_label_1
_geom_bond_atom_site_label_2
_geom_bond_site_symmetry_1
_geom_bond_site_symmetry_2
K1 O2 1_555 1_555
O1 C1 1_555 1_555
O2 C1 1_555 1_555
O3 C4 1_555 1_555
O4 H13 1_555 1_555
O5 K1 1_555 1_555
H1 O5 1_555 1_555
H2 O5 1_555 1_555
C1 C11 1_555 1_555
C2 H3 1_555 1_555
O6 K1 1_555 1_555
H4 O6 1_555 1_555
H5 O6 1_555 1_555
C3 C4 1_555 1_555
C4 C5 1_555 1_555
C5 C6 1_555 1_555
O7 K1 1_555 1_555
C6 H6 1_555 1_555
C7 C5 1_555 1_555
H7 C7 1_555 1_555
C8 C6 1_555 1_555
H8 C8 1_555 1_555
C9 C8 1_555 1_555
H9 C9 1_555 1_555
C10 C7 1_555 1_555
H10 C10 1_555 1_555
C11 C2 1_555 1_555
H11 O7 1_555 1_555
H12 O7 1_555 1_555
H14 O4 1_555 1_555
K1A O2A 1_555 1_555
K1A_2 O5 1_555 1_555
K1_2 O3 1_555 1_555
K1A_3 O7 1_555 1_555
K1A_4 O3A 1_555 1_555
K1_3 O5_2 1_555 1_555
O1A C1A 1_555 1_555
O2A C1A 1_555 1_555
O3A C4A 1_555 1_555
O3_2 K1 1_555 1_555
O3A_2 K1A 1_555 1_555
O5A K1 1_555 1_555
O5_2 K1A 1_555 1_555
O5A_2 K1A 1_555 1_555
H1A O5A 1_555 1_555
H1_2 O5_2 1_555 1_555
H1A_2 O5A_2 1_555 1_555
H2A O5A 1_555 1_555
H2_2 O5_2 1_555 1_555
H2A_2 O5A_2 1_555 1_555
C1A C11A 1_555 1_555
C2A C3 1_555 1_555
H3A C2A 1_555 1_555
O6A K1A 1_555 1_555
H4A O6A 1_555 1_555
H5A O6A 1_555 1_555
C3A C2 1_555 1_555
C4A C3A 1_555 1_555
C5A C4A 1_555 1_555
O7A K1 1_555 1_555
O7_2 K1A 1_555 1_555
O7A_2 K1A 1_555 1_555
C6A C5A 1_555 1_555
H6A C6A 1_555 1_555
C7A C5A 1_555 1_555
H7A C7A 1_555 1_555
C8A C6A 1_555 1_555
H8A C8A 1_555 1_555
C9A C8A 1_555 1_555
H9A C9A 1_555 1_555
C10A C7A 1_555 1_555
H10A C10A 1_555 1_555
C11A C2A 1_555 1_555
H11A O7A 1_555 1_555
H11_2 O7_2 1_555 1_555
H11A_2 O7A_2 1_555 1_555
H12A O7A 1_555 1_555
H12_2 O7_2 1_555 1_555
H12A_2 O7A_2 1_555 1_555
C3 C11 1_555 1_555
C9 C10 1_555 1_555
K1A_2 O5A 1_555 1_555
K1A_3 O7A 1_555 1_555
K1_3 O5A_2 1_555 1_555
C3A C11A 1_555 1_555
C9A C10A 1_555 1_555

#END
