
#######################################################################
#
#                 Cambridge Crystallographic Data Centre
#                                CCDC 
#
#######################################################################
#
# If this CIF has been generated from an entry in the Cambridge 
# Structural Database, then it will include bibliographic, chemical, 
# crystal, experimental, refinement or atomic coordinate data resulting 
# from the CCDC's data processing and validation procedures.
#
#######################################################################

data_HEFXIZ
_symmetry_cell_setting           monoclinic
_symmetry_space_group_name_H-M   'P 21'
_symmetry_Int_Tables_number      4
_space_group_name_Hall           'P 2yb'
loop_
_symmetry_equiv_pos_site_id
_symmetry_equiv_pos_as_xyz
1 x,y,z
2 -x,1/2+y,-z
_cell_length_a                   7.290(1)
_cell_length_b                   4.923(1)
_cell_length_c                   10.431(1)
_cell_angle_alpha                90
_cell_angle_beta                 101.73(1)
_cell_angle_gamma                90
_cell_volume                     366.537
loop_
_atom_site_label
_atom_site_type_symbol
_atom_site_fract_x
_atom_site_fract_y
_atom_site_fract_z
Li1 Li 0.3707(5) 0.4943(9) 0.4963(3)
N1 N 0.2872(3) 0.9789(7) 0.2125(2)
C1 C 0.1270(3) 0.8142(7) 0.1576(2)
C2 C 0.0642(3) 0.6094(6) 0.2492(2)
O1 O 0.1723(2) 0.52379 0.3470(1)
N2 N -0.1107(2) 0.5206(6) 0.2123(2)
C3 C -0.1977(3) 0.3441(6) 0.2947(2)
C4 C -0.3196(3) 0.4969(6) 0.3727(2)
O2 O -0.3207(2) 0.7488(5) 0.3704(1)
O3 O -0.4137(2) 0.3521(5) 0.4349(1)
H1 H 0.264(3) 1.083(7) 0.279(3)
H2 H 0.391(3) 0.888(7) 0.251(2)
H3 H -0.197(3) 0.607(7) 0.137(2)
H4 H 0.15410 0.73350 0.08650
H5 H 0.01730 0.90360 0.10610
H6 H -0.10710 0.23750 0.34590
H7 H -0.27070 0.20900 0.23750
O2A O 0.3207(2) 0.2488(5) 0.6296(1)
O3_2 O 0.5863(2) 0.3521(5) 0.4349(1)
O3A O 0.4137(2) 0.8521(5) 0.5651(1)
Li1A Li -0.3707(5) 0.9943(9) 0.5037(3)
Li1_2 Li -0.6293(5) 0.4943(9) 0.4963(3)
Li1A_2 Li -0.3707(5) -0.0057(9) 0.5037(3)
O4 O 0.3982(2) 0.2075(6) 0.0004(1)
H8 H 0.37790 0.16120 0.08140
H9 H 0.44560 0.35400 0.02070
loop_
_geom_bond_atom_site_label_1
_geom_bond_atom_site_label_2
_geom_bond_site_symmetry_1
_geom_bond_site_symmetry_2
Li1 O1 1_555 1_555
N1 C1 1_555 1_555
C1 C2 1_555 1_555
C2 O1 1_555 1_555
N2 C2 1_555 1_555
C3 N2 1_555 1_555
C4 C3 1_555 1_555
O2 C4 1_555 1_555
O3 C4 1_555 1_555
O4 H8 1_555 1_555
H1 N1 1_555 1_555
H2 N1 1_555 1_555
H3 N2 1_555 1_555
H4 C1 1_555 1_555
H5 C1 1_555 1_555
H6 C3 1_555 1_555
H7 C3 1_555 1_555
H9 O4 1_555 1_555
O2A Li1 1_555 1_555
O3_2 Li1 1_555 1_555
O3A Li1 1_555 1_555
Li1A O2 1_555 1_555
Li1_2 O3 1_555 1_555
Li1A_2 O3 1_555 1_555

#END
