
#######################################################################
#
#                 Cambridge Crystallographic Data Centre
#                                CCDC 
#
#######################################################################
#
# If this CIF has been generated from an entry in the Cambridge 
# Structural Database, then it will include bibliographic, chemical, 
# crystal, experimental, refinement or atomic coordinate data resulting 
# from the CCDC's data processing and validation procedures.
#
#######################################################################

data_HEFZEY
_symmetry_cell_setting           triclinic
_symmetry_space_group_name_H-M   'P -1'
_symmetry_Int_Tables_number      2
_space_group_name_Hall           '-P 1'
loop_
_symmetry_equiv_pos_site_id
_symmetry_equiv_pos_as_xyz
1 x,y,z
2 -x,-y,-z
_cell_length_a                   10.708(3)
_cell_length_b                   11.172(3)
_cell_length_c                   12.448(3)
_cell_angle_alpha                107.126(4)
_cell_angle_beta                 101.059(4)
_cell_angle_gamma                115.803(3)
_cell_volume                     1189.32
loop_
_atom_site_label
_atom_site_type_symbol
_atom_site_fract_x
_atom_site_fract_y
_atom_site_fract_z
Ni1 Ni 0.5000 0.5000 1.0000
Ni2 Ni 0.26388(4) 0.42348(4) 0.72300(3)
N1 N 0.1354(3) 0.5204(3) 0.7334(2)
N2 N 0.0885(3) 0.2830(3) 0.5572(2)
O1 O 0.4903(2) 0.3409(2) 0.85126(19)
O2 O 0.3798(2) 0.3326(2) 0.67459(19)
O3 O 1.2841(2) 0.3732(2) 0.97944(19)
O4 O 1.1469(2) 0.2806(2) 0.7831(2)
O5 O 0.4366(2) 0.5854(2) 0.88518(18)
O6 O 0.4473(2) 0.6300(2) 0.7267(2)
C1 C 0.6585(3) 0.2249(4) 0.7380(3)
C2 C 0.7634(4) 0.3260(4) 0.8531(3)
H3 H 0.7567 0.4053 0.8958
C3 C 0.8782(3) 0.3099(4) 0.9051(3)
H4 H 0.9474 0.3789 0.9826
C4 C 0.8928(3) 0.1943(4) 0.8450(3)
C5 C 0.7887(4) 0.0938(4) 0.7308(3)
H5 H 0.7957 0.0146 0.6883
C6 C 0.6738(4) 0.1090(4) 0.6784(3)
H6 H 0.6048 0.0395 0.6010
C7 C 0.4650(3) 0.3118(3) 0.7418(3)
C8 C 0.5361(4) 0.2406(5) 0.6732(3)
H7 H 0.4560 0.1427 0.6141
H8 H 0.5755 0.2956 0.6279
C9 C 1.1657(3) 0.2905(3) 0.8883(3)
C10 C 1.0257(3) 0.1877(4) 0.9033(3)
H9 H 1.0036 0.0877 0.8666
H10 H 1.0442 0.2152 0.9888
C11 C 0.5667(3) 0.9196(3) 0.9634(3)
C12 C 0.5504(4) 1.0050(3) 0.9066(3)
H11 H 0.5845 1.0091 0.8436
C13 C 0.5156(3) 0.9161(3) 1.0575(3)
H12 H 0.5259 0.8599 1.0969
C14 C 0.5005(3) 0.6704(3) 0.8378(3)
C15 C 0.6301(4) 0.8256(4) 0.9188(3)
H13 H 0.6900 0.8634 0.8740
H14 H 0.6932 0.8267 0.9869
C16 C 0.1648(4) 0.6443(4) 0.8179(3)
H15 H 0.2527 0.6975 0.8856
C17 C 0.0699(4) 0.6986(4) 0.8098(3)
H16 H 0.0961 0.7872 0.8703
C18 C -0.0607(4) 0.6216(4) 0.7132(3)
H17 H -0.1254 0.6562 0.7077
C19 C -0.0970(4) 0.4901(4) 0.6223(3)
C20 C 0.0062(3) 0.4446(3) 0.6356(3)
C21 C -0.0216(3) 0.3136(3) 0.5427(3)
C22 C -0.1574(4) 0.2247(4) 0.4439(3)
C23 C -0.1807(4) 0.0941(4) 0.3606(3)
H18 H -0.2700 0.0303 0.2939
C24 C -0.0727(4) 0.0602(4) 0.3772(3)
H19 H -0.0887 -0.0278 0.3236
C25 C 0.0622(4) 0.1596(4) 0.4758(3)
H20 H 0.1370 0.1377 0.4844
C26 C -0.2317(4) 0.4003(4) 0.5159(3)
H21 H -0.2995 0.4306 0.5046
C27 C -0.2613(4) 0.2733(4) 0.4327(4)
H22 H -0.3512 0.2156 0.3664
Ni1_2 Ni 1.5000 0.5000 1.0000
Ni1_3 Ni 0.5000 1.5000 1.0000
Ni1_4 Ni -0.5000 0.5000 1.0000
Ni2A Ni 0.73612(4) 0.57652(4) 1.27700(3)
Ni2_2 Ni 1.26388(4) 0.42348(4) 0.72300(3)
Ni2A_2 Ni 0.73612(4) 1.57652(4) 1.27700(3)
Ni2A_3 Ni -0.26388(4) 0.57652(4) 1.27700(3)
N1A N 0.8646(3) 0.4796(3) 1.2666(2)
N2A N 0.9115(3) 0.7170(3) 1.4428(2)
O1A O 0.5097(2) 0.6591(2) 1.14874(19)
O2A O 0.6202(2) 0.6674(2) 1.32541(19)
O3A O -0.2841(2) 0.6268(2) 1.02056(19)
O3_2 O 0.2841(2) 0.3732(2) 0.97944(19)
O3A_2 O 0.7159(2) 0.6268(2) 1.02056(19)
O4A O -0.1469(2) 0.7194(2) 1.2169(2)
O4_2 O 0.1469(2) 0.2806(2) 0.7831(2)
O4A_2 O 0.8531(2) 0.7194(2) 1.2169(2)
O5A O 0.5634(2) 1.4146(2) 1.11482(18)
O5A_2 O 0.5634(2) 0.4146(2) 1.11482(18)
O6A O 0.5527(2) 1.3700(2) 1.2733(2)
O6A_2 O 0.5527(2) 0.3700(2) 1.2733(2)
C1A C 0.3415(3) 0.7751(4) 1.2620(3)
C2A C 0.2366(4) 0.6740(4) 1.1469(3)
H3A H 0.2433 0.5947 1.1042
C3A C 0.1218(3) 0.6901(4) 1.0949(3)
H4A H 0.0526 0.6211 1.0174
C4A C 0.1072(3) 0.8057(4) 1.1550(3)
C5A C 0.2113(4) 0.9062(4) 1.2692(3)
H5A H 0.2043 0.9854 1.3117
C6A C 0.3262(4) 0.8910(4) 1.3216(3)
H6A H 0.3952 0.9605 1.3990
C7A C 0.5350(3) 0.6882(3) 1.2582(3)
C8A C 0.4639(4) 0.7594(5) 1.3268(3)
H7A H 0.5440 0.8573 1.3859
H8A H 0.4245 0.7044 1.3721
C9A C -0.1657(3) 0.7095(3) 1.1117(3)
C10A C -0.0257(3) 0.8123(4) 1.0967(3)
H9A H -0.0036 0.9123 1.1334
H10A H -0.0442 0.7848 1.0112
C11A C 0.4333(3) 1.0804(3) 1.0366(3)
C12A C 0.4496(4) 0.9950(3) 1.0934(3)
H11A H 0.4155 0.9909 1.1564
C13A C 0.4844(3) 1.0839(3) 0.9425(3)
H12A H 0.4741 1.1401 0.9031
C14A C 0.4995(3) 1.3296(3) 1.1622(3)
C15A C 0.3699(4) 1.1744(4) 1.0812(3)
H13A H 0.3100 1.1366 1.1260
H14A H 0.3068 1.1733 1.0131
C16A C 0.8352(4) 0.3557(4) 1.1821(3)
H15A H 0.7473 0.3025 1.1144
C17A C 0.9301(4) 0.3014(4) 1.1902(3)
H16A H 0.9039 0.2128 1.1297
C18A C 1.0607(4) 0.3784(4) 1.2868(3)
H17A H 1.1254 0.3438 1.2923
C19A C 1.0970(4) 0.5099(4) 1.3777(3)
C20A C 0.9938(3) 0.5554(3) 1.3644(3)
C21A C 1.0216(3) 0.6864(3) 1.4573(3)
C22A C 1.1574(4) 0.7753(4) 1.5561(3)
C23A C 1.1807(4) 0.9059(4) 1.6394(3)
H18A H 1.2700 0.9697 1.7061
C24A C 1.0727(4) 0.9398(4) 1.6228(3)
H19A H 1.0887 1.0278 1.6764
C25A C 0.9378(4) 0.8404(4) 1.5242(3)
H20A H 0.8630 0.8623 1.5156
C26A C 1.2317(4) 0.5997(4) 1.4841(3)
H21A H 1.2995 0.5694 1.4954
C27A C 1.2613(4) 0.7267(4) 1.5673(4)
H22A H 1.3512 0.7844 1.6336
O7 O 0.3489(4) 0.3213(6) 0.4110(4)
H1 H 0.421(5) 0.398(4) 0.417(6)
H2 H 0.391(6) 0.309(7) 0.468(4)
loop_
_geom_bond_atom_site_label_1
_geom_bond_atom_site_label_2
_geom_bond_site_symmetry_1
_geom_bond_site_symmetry_2
Ni1 O1 1_555 1_555
Ni2 N1 1_555 1_555
N1 C16 1_555 1_555
N2 Ni2 1_555 1_555
O1 C7 1_555 1_555
O2 Ni2 1_555 1_555
O3 C9 1_555 1_555
O4 C9 1_555 1_555
O5 Ni1 1_555 1_555
O6 Ni2 1_555 1_555
O7 H1 1_555 1_555
H2 O7 1_555 1_555
C1 C2 1_555 1_555
C2 H3 1_555 1_555
C3 C2 1_555 1_555
H4 C3 1_555 1_555
C4 C3 1_555 1_555
C5 C4 1_555 1_555
H5 C5 1_555 1_555
C6 C1 1_555 1_555
H6 C6 1_555 1_555
C7 O2 1_555 1_555
C8 C1 1_555 1_555
H7 C8 1_555 1_555
H8 C8 1_555 1_555
C9 C10 1_555 1_555
C10 C4 1_555 1_555
H9 C10 1_555 1_555
H10 C10 1_555 1_555
C11 C12 1_555 1_555
C12 H11 1_555 1_555
C13 C11 1_555 1_555
H12 C13 1_555 1_555
C14 O5 1_555 1_555
C15 C11 1_555 1_555
H13 C15 1_555 1_555
H14 C15 1_555 1_555
C16 H15 1_555 1_555
C17 C16 1_555 1_555
H16 C17 1_555 1_555
C18 C17 1_555 1_555
H17 C18 1_555 1_555
C19 C18 1_555 1_555
C20 N1 1_555 1_555
C21 N2 1_555 1_555
C22 C21 1_555 1_555
C23 C22 1_555 1_555
H18 C23 1_555 1_555
C24 C23 1_555 1_555
H19 C24 1_555 1_555
C25 N2 1_555 1_555
H20 C25 1_555 1_555
C26 C19 1_555 1_555
H21 C26 1_555 1_555
C27 C22 1_555 1_555
H22 C27 1_555 1_555
Ni1_2 O3 1_555 1_555
Ni1_3 O5A 1_555 1_555
Ni1_4 O3A 1_555 1_555
Ni2A N1A 1_555 1_555
Ni2_2 O4 1_555 1_555
Ni2A_2 O5A 1_555 1_555
Ni2A_3 O4A 1_555 1_555
N1A C16A 1_555 1_555
N2A Ni2A 1_555 1_555
O1A Ni1 1_555 1_555
O2A Ni2A 1_555 1_555
O3A C9A 1_555 1_555
O3_2 Ni1 1_555 1_555
O3A_2 Ni1 1_555 1_555
O4A C9A 1_555 1_555
O4_2 Ni2 1_555 1_555
O4A_2 Ni2A 1_555 1_555
O5A C14A 1_555 1_555
O5A_2 Ni1 1_555 1_555
O6A Ni2A_2 1_555 1_555
O6A_2 Ni2A 1_555 1_555
C1A C2A 1_555 1_555
C2A H3A 1_555 1_555
C3A C2A 1_555 1_555
H4A C3A 1_555 1_555
C4A C3A 1_555 1_555
C5A C4A 1_555 1_555
H5A C5A 1_555 1_555
C6A C1A 1_555 1_555
H6A C6A 1_555 1_555
C7A O1A 1_555 1_555
C8A C1A 1_555 1_555
H7A C8A 1_555 1_555
H8A C8A 1_555 1_555
C9A C10A 1_555 1_555
C10A C4A 1_555 1_555
H9A C10A 1_555 1_555
H10A C10A 1_555 1_555
C11A C12A 1_555 1_555
C12A C13 1_555 1_555
H11A C12A 1_555 1_555
C13A C12 1_555 1_555
H12A C13A 1_555 1_555
C14A O6A 1_555 1_555
C15A C11A 1_555 1_555
H13A C15A 1_555 1_555
H14A C15A 1_555 1_555
C16A H15A 1_555 1_555
C17A C16A 1_555 1_555
H16A C17A 1_555 1_555
C18A C17A 1_555 1_555
H17A C18A 1_555 1_555
C19A C18A 1_555 1_555
C20A N1A 1_555 1_555
C21A N2A 1_555 1_555
C22A C21A 1_555 1_555
C23A C22A 1_555 1_555
H18A C23A 1_555 1_555
C24A C23A 1_555 1_555
H19A C24A 1_555 1_555
C25A N2A 1_555 1_555
H20A C25A 1_555 1_555
C26A C19A 1_555 1_555
H21A C26A 1_555 1_555
C27A C22A 1_555 1_555
H22A C27A 1_555 1_555
Ni2 O5 1_555 1_555
O6 C14 1_555 1_555
C5 C6 1_555 1_555
C7 C8 1_555 1_555
C14 C15 1_555 1_555
C19 C20 1_555 1_555
C20 C21 1_555 1_555
C24 C25 1_555 1_555
C26 C27 1_555 1_555
Ni2A O5A_2 1_555 1_555
O2A C7A 1_555 1_555
C5A C6A 1_555 1_555
C7A C8A 1_555 1_555
C11A C13A 1_555 1_555
C14A C15A 1_555 1_555
C19A C20A 1_555 1_555
C20A C21A 1_555 1_555
C24A C25A 1_555 1_555
C26A C27A 1_555 1_555

#END
