
#######################################################################
#
#                 Cambridge Crystallographic Data Centre
#                                CCDC 
#
#######################################################################
#
# If this CIF has been generated from an entry in the Cambridge 
# Structural Database, then it will include bibliographic, chemical, 
# crystal, experimental, refinement or atomic coordinate data resulting 
# from the CCDC's data processing and validation procedures.
#
#######################################################################

data_HEFZUO
_symmetry_cell_setting           triclinic
_symmetry_space_group_name_H-M   'P -1'
_symmetry_Int_Tables_number      2
_space_group_name_Hall           '-P 1'
loop_
_symmetry_equiv_pos_site_id
_symmetry_equiv_pos_as_xyz
1 x,y,z
2 -x,-y,-z
_cell_length_a                   6.3525(8)
_cell_length_b                   9.0459(11)
_cell_length_c                   10.3907(12)
_cell_angle_alpha                84.282(2)
_cell_angle_beta                 72.332(2)
_cell_angle_gamma                89.558(2)
_cell_volume                     565.937
loop_
_atom_site_label
_atom_site_type_symbol
_atom_site_fract_x
_atom_site_fract_y
_atom_site_fract_z
Zn1 Zn 0.5000 0.5000 0.5000
C1 C -0.1060(3) 0.1952(2) 0.8561(2)
C2 C -0.1242(3) 0.2353(2) 0.7280(2)
H1 H -0.2467 0.2042 0.7056
C3 C 0.0393(3) 0.3210(2) 0.6346(2)
H2 H 0.0235 0.3474 0.5492
N1 N 0.2212(3) 0.36882(18) 0.65938(17)
C4 C 0.2371(4) 0.3299(3) 0.7834(2)
H3 H 0.3619 0.3616 0.8030
C5 C 0.0812(4) 0.2465(3) 0.8826(2)
H4 H 0.0996 0.2239 0.9677
C6 C -0.2679(4) 0.1010(2) 0.9614(2)
H5 H -0.2476 0.0824 1.0464
N2 N -0.4348(3) 0.0437(2) 0.94153(17)
C7 C 0.2218(5) 0.9280(3) 0.6075(3)
H6 H 0.2524 0.9743 0.5163
H7 H 0.2607 0.9956 0.6626
H8 H 0.0673 0.9021 0.6438
C8 C 0.3558(4) 0.7890(2) 0.6072(2)
C9 C 0.4947(4) 0.7751(2) 0.6895(2)
H9 H 0.5043 0.8559 0.7364
C10 C 0.6197(3) 0.6526(2) 0.7082(2)
C11 C 0.7438(5) 0.6523(3) 0.8102(3)
H10 H 0.6896 0.5717 0.8800
H11 H 0.7228 0.7447 0.8500
H12 H 0.8983 0.6402 0.7660
O1 O 0.6379(2) 0.53697(15) 0.64704(14)
O2 O 0.3299(2) 0.69470(15) 0.53251(15)
Zn1_2 Zn -1.5000 -0.5000 1.5000
C1A C -0.8940(3) -0.1952(2) 1.1439(2)
C2A C -0.8758(3) -0.2353(2) 1.2720(2)
H1A H -0.7533 -0.2042 1.2944
C3A C -1.0393(3) -0.3210(2) 1.3654(2)
H2A H -1.0235 -0.3474 1.4508
N1A N -1.2212(3) -0.36882(18) 1.34062(17)
N1A_2 N 0.7788(3) 0.63118(18) 0.34062(17)
C4A C -1.2371(4) -0.3299(3) 1.2166(2)
H3A H -1.3619 -0.3616 1.1970
C5A C -1.0812(4) -0.2465(3) 1.1174(2)
H4A H -1.0996 -0.2239 1.0323
C6A C -0.7321(4) -0.1010(2) 1.0386(2)
H5A H -0.7524 -0.0824 0.9536
N2A N -0.5652(3) -0.0437(2) 1.05847(17)
C7A C 0.7782(5) 0.0720(3) 0.3925(3)
H6A H 0.7476 0.0257 0.4837
H7A H 0.7393 0.0044 0.3374
H8A H 0.9327 0.0979 0.3562
C8A C 0.6442(4) 0.2110(2) 0.3928(2)
C9A C 0.5053(4) 0.2249(2) 0.3105(2)
H9A H 0.4957 0.1441 0.2636
C10A C 0.3803(3) 0.3474(2) 0.2918(2)
C11A C 0.2562(5) 0.3477(3) 0.1898(3)
H10A H 0.3104 0.4283 0.1200
H11A H 0.2772 0.2553 0.1500
H12A H 0.1017 0.3598 0.2340
O1A O 0.3621(2) 0.46303(15) 0.35296(14)
O2A O 0.6701(2) 0.30530(15) 0.46749(15)
loop_
_geom_bond_atom_site_label_1
_geom_bond_atom_site_label_2
_geom_bond_site_symmetry_1
_geom_bond_site_symmetry_2
Zn1 N1 1_555 1_555
C1 C2 1_555 1_555
C2 H1 1_555 1_555
C3 C2 1_555 1_555
H2 C3 1_555 1_555
N1 C3 1_555 1_555
C4 N1 1_555 1_555
H3 C4 1_555 1_555
C5 C1 1_555 1_555
H4 C5 1_555 1_555
C6 C1 1_555 1_555
H5 C6 1_555 1_555
N2 C6 1_555 1_555
C7 H6 1_555 1_555
H7 C7 1_555 1_555
H8 C7 1_555 1_555
C8 C7 1_555 1_555
C9 C8 1_555 1_555
H9 C9 1_555 1_555
C10 C9 1_555 1_555
C11 C10 1_555 1_555
H10 C11 1_555 1_555
H11 C11 1_555 1_555
H12 C11 1_555 1_555
O1 Zn1 1_555 1_555
O2 Zn1 1_555 1_555
Zn1_2 N1A 1_555 1_555
C1A C2A 1_555 1_555
C2A H1A 1_555 1_555
C3A C2A 1_555 1_555
H2A C3A 1_555 1_555
N1A C3A 1_555 1_555
N1A_2 Zn1 1_555 1_555
C4A N1A 1_555 1_555
H3A C4A 1_555 1_555
C5A C1A 1_555 1_555
H4A C5A 1_555 1_555
C6A C1A 1_555 1_555
H5A C6A 1_555 1_555
N2A N2 1_555 1_555
C7A H6A 1_555 1_555
H7A C7A 1_555 1_555
H8A C7A 1_555 1_555
C8A C7A 1_555 1_555
C9A C8A 1_555 1_555
H9A C9A 1_555 1_555
C10A C9A 1_555 1_555
C11A C10A 1_555 1_555
H10A C11A 1_555 1_555
H11A C11A 1_555 1_555
H12A C11A 1_555 1_555
O1A Zn1 1_555 1_555
O2A Zn1 1_555 1_555
C4 C5 1_555 1_555
C8 O2 1_555 1_555
C10 O1 1_555 1_555
C4A C5A 1_555 1_555
C6A N2A 1_555 1_555
C8A O2A 1_555 1_555
C10A O1A 1_555 1_555

#END
