
#######################################################################
#
#                 Cambridge Crystallographic Data Centre
#                                CCDC 
#
#######################################################################
#
# If this CIF has been generated from an entry in the Cambridge 
# Structural Database, then it will include bibliographic, chemical, 
# crystal, experimental, refinement or atomic coordinate data resulting 
# from the CCDC's data processing and validation procedures.
#
#######################################################################

data_HEGBUR
_symmetry_cell_setting           monoclinic
_symmetry_space_group_name_H-M   'P 21/c'
_symmetry_Int_Tables_number      14
_space_group_name_Hall           '-P 2ybc'
loop_
_symmetry_equiv_pos_site_id
_symmetry_equiv_pos_as_xyz
1 x,y,z
2 -x,1/2+y,1/2-z
3 -x,-y,-z
4 x,1/2-y,1/2+z
_cell_length_a                   7.3240(6)
_cell_length_b                   13.7493(12)
_cell_length_c                   15.9016(13)
_cell_angle_alpha                90
_cell_angle_beta                 90.720(2)
_cell_angle_gamma                90
_cell_volume                     1601.16
loop_
_atom_site_label
_atom_site_type_symbol
_atom_site_fract_x
_atom_site_fract_y
_atom_site_fract_z
Cd1 Cd 0.137861(18) 0.756844(9) 0.297044(8)
O1 O 0.0708(3) 0.88942(17) 0.19183(12)
O2 O 0.3435(2) 0.87139(13) 0.23819(11)
O3 O 0.2765(3) 0.99735(14) 0.16287(14)
O4 O 0.0278(2) 0.65929(13) 0.19025(11)
O5 O -0.2048(2) 0.71757(12) 0.25436(11)
O6 O -0.2428(3) 0.62394(18) 0.14619(13)
O7 O 0.4107(2) 0.67710(12) 0.28910(12)
N1 N 0.0709(2) 0.87605(11) 0.39335(10)
N2 N 0.2110(2) 0.86991(12) 0.45185(10)
N3 N 0.0837(2) 0.63115(11) 0.40074(10)
N4 N 0.2105(2) 0.55803(12) 0.38978(10)
N5 N 0.2307(3) 0.92121(14) 0.19618(12)
N6 N -0.1435(2) 0.66600(14) 0.19607(11)
C1 C -0.0626(2) 0.93988(12) 0.39941(11)
C2 C -0.0686(2) 1.00334(12) 0.47017(10)
C3 C 0.2108(2) 0.92782(13) 0.51757(11)
C4 C 0.3637(3) 0.92096(16) 0.58086(12)
H1 H 0.3367 0.8704 0.6204
H2 H 0.4746 0.9040 0.5529
C5 C 0.3890(3) 1.01718(17) 0.62811(13)
H3 H 0.4786 1.0085 0.6721
H4 H 0.4344 1.0653 0.5899
C6 C -0.2109(3) 0.94614(14) 0.33376(12)
H5 H -0.2302 0.8831 0.3092
H6 H -0.1735 0.9897 0.2901
C7 C -0.0482(3) 0.62243(13) 0.45605(11)
C8 C 0.1992(3) 0.47678(14) 0.43262(12)
C9 C -0.0614(3) 0.53678(13) 0.50607(11)
C10 C 0.3340(3) 0.39718(16) 0.41759(14)
H7 H 0.4475 0.4250 0.3999
H8 H 0.2898 0.3553 0.3735
C11 C 0.3645(3) 0.33756(17) 0.49740(15)
H9 H 0.4226 0.3778 0.5392
H10 H 0.4447 0.2842 0.4856
C12 C -0.1865(3) 0.70184(15) 0.46770(14)
H11 H -0.2097 0.7328 0.4145
H12 H -0.1380 0.7499 0.5056
H13 H 0.5163 0.6875 0.2714
H14 H 0.4027 0.6197 0.3143
Cd1B Cd -0.137861(18) 1.243156(9) 0.702956(8)
Cd1B_2 Cd -0.137861(18) 0.243156(9) 0.702956(8)
O1B O -0.0708(3) 1.11058(17) 0.80817(12)
O2B O -0.3435(2) 1.12861(13) 0.76181(11)
O3B O -0.2765(3) 1.00265(14) 0.83713(14)
O4B O -0.0278(2) 1.34071(13) 0.80975(11)
O5B O 0.2048(2) 1.28243(12) 0.74564(11)
O6B O 0.2428(3) 1.37606(18) 0.85381(13)
O7B O -0.4107(2) 1.32290(12) 0.71090(12)
N1B N -0.0709(2) 1.12395(11) 0.60665(10)
N2B N -0.2110(2) 1.13009(12) 0.54815(10)
N3B N -0.0837(2) 0.36885(11) 0.59926(10)
N3B_2 N -0.0837(2) 1.36885(11) 0.59926(10)
N4B N -0.2105(2) 0.44197(12) 0.61022(10)
N5B N -0.2307(3) 1.07879(14) 0.80382(12)
N6B N 0.1435(2) 1.33400(14) 0.80393(11)
C1B C 0.0626(2) 1.06012(12) 0.60059(11)
C2B C 0.0686(2) 0.99666(12) 0.52983(10)
C3B C -0.2108(2) 1.07218(13) 0.48243(11)
C4B C -0.3637(3) 1.07904(16) 0.41914(12)
H1B H -0.3367 1.1296 0.3796
H2B H -0.4746 1.0960 0.4471
C5B C -0.3890(3) 0.98282(17) 0.37189(13)
H3B H -0.4786 0.9915 0.3279
H4B H -0.4344 0.9347 0.4101
C6B C 0.2109(3) 1.05386(14) 0.66624(12)
H5B H 0.2302 1.1169 0.6908
H6B H 0.1735 1.0103 0.7099
C7B C 0.0482(3) 0.37757(13) 0.54395(11)
C8B C -0.1992(3) 0.52322(14) 0.56738(12)
C9B C 0.0614(3) 0.46322(13) 0.49393(11)
C10B C -0.3340(3) 0.60282(16) 0.58241(14)
H7B H -0.4475 0.5750 0.6001
H8B H -0.2898 0.6447 0.6265
C11B C -0.3645(3) 0.66244(17) 0.50260(15)
H9B H -0.4226 0.6222 0.4608
H10B H -0.4447 0.7158 0.5144
C12B C 0.1865(3) 0.29816(15) 0.53230(14)
H11B H 0.2097 0.2672 0.5855
H12B H 0.1380 0.2501 0.4944
H13B H -0.5163 1.3125 0.7286
H14B H -0.4027 1.3803 0.6857
loop_
_geom_bond_atom_site_label_1
_geom_bond_atom_site_label_2
_geom_bond_site_symmetry_1
_geom_bond_site_symmetry_2
Cd1 O1 1_555 1_555
O1 N5 1_555 1_555
O2 Cd1 1_555 1_555
O3 N5 1_555 1_555
O4 Cd1 1_555 1_555
O5 Cd1 1_555 1_555
O6 N6 1_555 1_555
O7 Cd1 1_555 1_555
N1 Cd1 1_555 1_555
N2 N1 1_555 1_555
N3 Cd1 1_555 1_555
N4 N3 1_555 1_555
N5 O2 1_555 1_555
N6 O4 1_555 1_555
C1 N1 1_555 1_555
C2 C1 1_555 1_555
C3 N2 1_555 1_555
C4 C3 1_555 1_555
H1 C4 1_555 1_555
H2 C4 1_555 1_555
C5 C4 1_555 1_555
H3 C5 1_555 1_555
H4 C5 1_555 1_555
C6 C1 1_555 1_555
H5 C6 1_555 1_555
H6 C6 1_555 1_555
C7 N3 1_555 1_555
C8 N4 1_555 1_555
C9 C7 1_555 1_555
C10 C8 1_555 1_555
H7 C10 1_555 1_555
H8 C10 1_555 1_555
C11 C10 1_555 1_555
H9 C11 1_555 1_555
H10 C11 1_555 1_555
C12 C7 1_555 1_555
H11 C12 1_555 1_555
H12 C12 1_555 1_555
H13 O7 1_555 1_555
H14 O7 1_555 1_555
Cd1B O1B 1_555 1_555
Cd1B_2 N3B 1_555 1_555
O1B N5B 1_555 1_555
O2B Cd1B 1_555 1_555
O3B N5B 1_555 1_555
O4B Cd1B 1_555 1_555
O5B Cd1B 1_555 1_555
O6B N6B 1_555 1_555
O7B Cd1B 1_555 1_555
N1B Cd1B 1_555 1_555
N2B N1B 1_555 1_555
N3B N4B 1_555 1_555
N3B_2 Cd1B 1_555 1_555
N4B C8B 1_555 1_555
N5B O2B 1_555 1_555
N6B O4B 1_555 1_555
C1B N1B 1_555 1_555
C2B C2 1_555 1_555
C3B C2 1_555 1_555
C4B C3B 1_555 1_555
H1B C4B 1_555 1_555
H2B C4B 1_555 1_555
C5B C6 1_555 1_555
H3B C5B 1_555 1_555
H4B C5B 1_555 1_555
C6B C5 1_555 1_555
H5B C6B 1_555 1_555
H6B C6B 1_555 1_555
C7B N3B 1_555 1_555
C8B C9 1_555 1_555
C9B C8 1_555 1_555
C10B C8B 1_555 1_555
H7B C10B 1_555 1_555
H8B C10B 1_555 1_555
C11B C12 1_555 1_555
H9B C11B 1_555 1_555
H10B C11B 1_555 1_555
C12B C11 1_555 1_555
H11B C12B 1_555 1_555
H12B C12B 1_555 1_555
H13B O7B 1_555 1_555
H14B O7B 1_555 1_555
O5 N6 1_555 1_555
C3 C2B 1_555 1_555
C9 C9B 1_555 1_555
O5B N6B 1_555 1_555
N2B C3B 1_555 1_555
C1B C2B 1_555 1_555
C1B C6B 1_555 1_555
C4B C5B 1_555 1_555
C7B C9B 1_555 1_555
C7B C12B 1_555 1_555
C10B C11B 1_555 1_555

#END
