
#######################################################################
#
#                 Cambridge Crystallographic Data Centre
#                                CCDC 
#
#######################################################################
#
# If this CIF has been generated from an entry in the Cambridge 
# Structural Database, then it will include bibliographic, chemical, 
# crystal, experimental, refinement or atomic coordinate data resulting 
# from the CCDC's data processing and validation procedures.
#
#######################################################################

data_HEGBAX
_symmetry_cell_setting           triclinic
_symmetry_space_group_name_H-M   'P -1'
_symmetry_Int_Tables_number      2
_space_group_name_Hall           '-P 1'
loop_
_symmetry_equiv_pos_site_id
_symmetry_equiv_pos_as_xyz
1 x,y,z
2 -x,-y,-z
_cell_length_a                   6.8637(11)
_cell_length_b                   8.6257(14)
_cell_length_c                   9.9497(16)
_cell_angle_alpha                80.536(3)
_cell_angle_beta                 73.444(3)
_cell_angle_gamma                77.310(3)
_cell_volume                     547.574
loop_
_atom_site_label
_atom_site_type_symbol
_atom_site_fract_x
_atom_site_fract_y
_atom_site_fract_z
Zn1 Zn 0.5000 0.5000 0.5000
C1 C 1.1023(5) 0.4043(4) 0.1656(3)
C2 C 0.9477(5) 0.4470(4) 0.2834(3)
H1 H 0.9710 0.5151 0.3383
N1 N 0.7661(4) 0.3971(3) 0.3243(3)
C3 C 0.7409(5) 0.2940(4) 0.2471(4)
H2 H 0.6169 0.2563 0.2737
C4 C 0.8884(5) 0.2404(4) 0.1305(4)
H3 H 0.8651 0.1660 0.0817
C5 C 1.0703(5) 0.2975(4) 0.0866(4)
H4 H 1.1699 0.2656 0.0060
C6 C 1.2880(5) 0.4750(4) 0.1268(3)
H5 H 1.3105 0.5334 0.1898
N2 N 1.4192(4) 0.4582(3) 0.0087(3)
C7 C 0.3745(6) 0.8894(5) 0.1823(4)
H6 H 0.4270 0.8348 0.0991
H7 H 0.4138 0.9926 0.1627
H8 H 0.2265 0.9022 0.2108
C8 C 0.4627(5) 0.7930(4) 0.2992(3)
C9 C 0.6128(5) 0.8480(4) 0.3381(4)
H9 H 0.6565 0.9393 0.2853
C10 C 0.7044(5) 0.7812(4) 0.4475(4)
C11 C 0.8543(6) 0.8638(5) 0.4792(5)
H10 H 0.8156 0.8759 0.5781
H11 H 0.8523 0.9672 0.4258
H12 H 0.9909 0.8012 0.4542
O1 O 0.6730(3) 0.6523(3) 0.5243(2)
O2 O 0.3908(3) 0.6683(3) 0.3550(2)
Zn1_2 Zn 2.5000 0.5000 -0.5000
C1A C 1.8977(5) 0.5957(4) -0.1656(3)
C2A C 2.0523(5) 0.5530(4) -0.2834(3)
H1A H 2.0290 0.4849 -0.3383
N1A N 2.2339(4) 0.6029(3) -0.3243(3)
N1A_2 N 0.2339(4) 0.6029(3) 0.6757(3)
C3A C 2.2591(5) 0.7060(4) -0.2471(4)
H2A H 2.3831 0.7437 -0.2737
C4A C 2.1116(5) 0.7596(4) -0.1305(4)
H3A H 2.1349 0.8340 -0.0817
C5A C 1.9297(5) 0.7025(4) -0.0866(4)
H4A H 1.8301 0.7344 -0.0060
C6A C 1.7120(5) 0.5250(4) -0.1268(3)
H5A H 1.6895 0.4666 -0.1898
N2A N 1.5808(4) 0.5418(3) -0.0087(3)
C7A C 0.6255(6) 0.1106(5) 0.8177(4)
H6A H 0.5730 0.1652 0.9009
H7A H 0.5862 0.0074 0.8373
H8A H 0.7735 0.0978 0.7892
C8A C 0.5373(5) 0.2070(4) 0.7008(3)
C9A C 0.3872(5) 0.1520(4) 0.6619(4)
H9A H 0.3435 0.0607 0.7147
C10A C 0.2956(5) 0.2188(4) 0.5525(4)
C11A C 0.1457(6) 0.1362(5) 0.5208(5)
H10A H 0.1844 0.1241 0.4219
H11A H 0.1477 0.0328 0.5742
H12A H 0.0091 0.1988 0.5458
O1A O 0.3270(3) 0.3477(3) 0.4757(2)
O2A O 0.6092(3) 0.3317(3) 0.6450(2)
loop_
_geom_bond_atom_site_label_1
_geom_bond_atom_site_label_2
_geom_bond_site_symmetry_1
_geom_bond_site_symmetry_2
Zn1 N1 1_555 1_555
C1 C2 1_555 1_555
C2 H1 1_555 1_555
N1 C2 1_555 1_555
C3 N1 1_555 1_555
H2 C3 1_555 1_555
C4 C3 1_555 1_555
H3 C4 1_555 1_555
C5 C1 1_555 1_555
H4 C5 1_555 1_555
C6 C1 1_555 1_555
H5 C6 1_555 1_555
N2 C6 1_555 1_555
C7 H6 1_555 1_555
H7 C7 1_555 1_555
H8 C7 1_555 1_555
C8 C7 1_555 1_555
C9 C8 1_555 1_555
H9 C9 1_555 1_555
C10 C9 1_555 1_555
C11 C10 1_555 1_555
H10 C11 1_555 1_555
H11 C11 1_555 1_555
H12 C11 1_555 1_555
O1 Zn1 1_555 1_555
O2 Zn1 1_555 1_555
Zn1_2 N1A 1_555 1_555
C1A C2A 1_555 1_555
C2A H1A 1_555 1_555
N1A C2A 1_555 1_555
N1A_2 Zn1 1_555 1_555
C3A N1A 1_555 1_555
H2A C3A 1_555 1_555
C4A C3A 1_555 1_555
H3A C4A 1_555 1_555
C5A C1A 1_555 1_555
H4A C5A 1_555 1_555
C6A C1A 1_555 1_555
H5A C6A 1_555 1_555
N2A N2 1_555 1_555
C7A H6A 1_555 1_555
H7A C7A 1_555 1_555
H8A C7A 1_555 1_555
C8A C7A 1_555 1_555
C9A C8A 1_555 1_555
H9A C9A 1_555 1_555
C10A C9A 1_555 1_555
C11A C10A 1_555 1_555
H10A C11A 1_555 1_555
H11A C11A 1_555 1_555
H12A C11A 1_555 1_555
O1A Zn1 1_555 1_555
O2A Zn1 1_555 1_555
C4 C5 1_555 1_555
C8 O2 1_555 1_555
C10 O1 1_555 1_555
C4A C5A 1_555 1_555
C6A N2A 1_555 1_555
C8A O2A 1_555 1_555
C10A O1A 1_555 1_555

#END
