
#######################################################################
#
#                 Cambridge Crystallographic Data Centre
#                                CCDC 
#
#######################################################################
#
# If this CIF has been generated from an entry in the Cambridge 
# Structural Database, then it will include bibliographic, chemical, 
# crystal, experimental, refinement or atomic coordinate data resulting 
# from the CCDC's data processing and validation procedures.
#
#######################################################################

data_HEGTIY
_symmetry_cell_setting           monoclinic
_symmetry_space_group_name_H-M   'C 2'
_symmetry_Int_Tables_number      5
_space_group_name_Hall           'C 2y'
loop_
_symmetry_equiv_pos_site_id
_symmetry_equiv_pos_as_xyz
1 x,y,z
2 -x,y,-z
3 1/2+x,1/2+y,z
4 1/2-x,1/2+y,-z
_cell_length_a                   11.6540(15)
_cell_length_b                   21.826(3)
_cell_length_c                   7.3928(10)
_cell_angle_alpha                90
_cell_angle_beta                 105.638(3)
_cell_angle_gamma                90
_cell_volume                     1810.83
loop_
_atom_site_label
_atom_site_type_symbol
_atom_site_fract_x
_atom_site_fract_y
_atom_site_fract_z
Cu1 Cu 0.5000 0.869172(8) -1.0000
N1 N 0.5950(4) 0.93594(17) -1.0874(6)
N2 N 0.7305(5) 1.0862(2) -1.4888(7)
N3 N 0.7847(5) 1.1328(2) -1.5622(8)
N4 N 0.9052(4) 1.30491(19) -1.9067(6)
C1 C 0.6486(5) 0.9844(2) -1.3410(7)
H1 H 0.6502 0.9833 -1.4660
C2 C 0.6025(4) 0.9362(2) -1.2661(6)
H2 H 0.5752 0.9022 -1.3413
C3 C 0.6402(5) 0.9835(2) -0.9797(6)
H3 H 0.6377 0.9834 -0.8550
C4 C 0.6906(5) 1.0331(2) -1.0443(7)
H4 H 0.7227 1.0651 -0.9634
C5 C 0.6931(6) 1.0350(2) -1.2312(8)
C6 C 0.7404(5) 1.0888(3) -1.3123(9)
C7 C 0.7923(8) 1.1418(3) -1.1903(9)
H5 H 0.8191 1.1722 -1.2637
H6 H 0.8585 1.1281 -1.0905
H7 H 0.7328 1.1593 -1.1380
C8 C 0.5890(8) 1.1697(4) -1.7184(13)
H8 H 0.5630 1.1367 -1.6533
H9 H 0.5567 1.1644 -1.8513
H10 H 0.5618 1.2079 -1.6806
C9 C 0.7172(6) 1.1699(3) -1.6733(8)
C10 C 0.7806(5) 1.2174(3) -1.7602(8)
C11 C 0.9037(5) 1.2137(2) -1.7284(7)
H11 H 0.9464 1.1818 -1.6577
C12 C 0.9605(4) 1.25773(19) -1.8030(6)
H12 H 1.0428 1.2548 -1.7804
C13 C 0.7859(4) 1.3070(2) -1.9396(6)
H13 H 0.7450 1.3385 -2.0145
C14 C 0.7211(4) 1.2651(3) -1.8684(7)
H14 H 0.6388 1.2689 -1.8929
N5 N 0.7322(5) 0.8502(2) -0.6060(7)
O1 O 0.6351(3) 0.8754(2) -0.6829(5)
O2 O 0.8060(8) 0.8742(7) -0.4699(15)
O3 O 0.755(2) 0.7994(11) -0.607(4)
Cu1B Cu 1.0000 1.369172(8) -2.0000
Cu1B_2 Cu 0.0000 1.369172(8) 0.0000
N1A N 0.4050(4) 0.93594(17) -0.9126(6)
N2A N 0.2695(5) 1.0862(2) -0.5112(7)
N3A N 0.2153(5) 1.1328(2) -0.4378(8)
N4A N 0.0948(4) 1.30491(19) -0.0933(6)
N4B N 0.4052(4) 0.80491(19) -0.9067(6)
N4C N 0.5948(4) 0.80491(19) -1.0933(6)
C1A C 0.3514(5) 0.9844(2) -0.6590(7)
H1A H 0.3498 0.9833 -0.5340
C2A C 0.3975(4) 0.9362(2) -0.7339(6)
H2A H 0.4248 0.9022 -0.6587
C3A C 0.3598(5) 0.9835(2) -1.0203(6)
H3A H 0.3623 0.9834 -1.1450
C4A C 0.3094(5) 1.0331(2) -0.9557(7)
H4A H 0.2773 1.0651 -1.0366
C5A C 0.3069(6) 1.0350(2) -0.7688(8)
C6A C 0.2596(5) 1.0888(3) -0.6877(9)
C7A C 0.2077(8) 1.1418(3) -0.8097(9)
H5A H 0.1809 1.1722 -0.7363
H6A H 0.1415 1.1281 -0.9095
H7A H 0.2672 1.1593 -0.8620
C8A C 0.4110(8) 1.1697(4) -0.2816(13)
H8A H 0.4370 1.1367 -0.3467
H9A H 0.4433 1.1644 -0.1487
H10A H 0.4382 1.2079 -0.3194
C9A C 0.2828(6) 1.1699(3) -0.3267(8)
C10A C 0.2194(5) 1.2174(3) -0.2398(8)
C11A C 0.0963(5) 1.2137(2) -0.2716(7)
H11A H 0.0536 1.1818 -0.3423
C12A C 0.0395(4) 1.25773(19) -0.1970(6)
H12A H -0.0428 1.2548 -0.2196
C13A C 0.2141(4) 1.3070(2) -0.0604(6)
H13A H 0.2550 1.3385 0.0145
C14A C 0.2789(4) 1.2651(3) -0.1316(7)
H14A H 0.3612 1.2689 -0.1071
N5A N 0.2678(5) 0.8502(2) -1.3940(7)
O1A O 0.3649(3) 0.8754(2) -1.3171(5)
O2A O 0.1940(8) 0.8742(7) -1.5301(15)
O3A O 0.245(2) 0.7994(11) -1.393(4)
O5 O 0.005(3) 1.0339(15) 0.856(4)
O6 O 0.0146(13) 0.8036(7) 0.725(2)
O4? O 0.003(3) 0.9953(16) 0.582(4)
O7? O -0.3119(12) 0.3877(8) -0.375(4)
O8? O -0.2457(12) 0.2927(9) -0.375(3)
loop_
_geom_bond_atom_site_label_1
_geom_bond_atom_site_label_2
_geom_bond_site_symmetry_1
_geom_bond_site_symmetry_2
Cu1 N1 1_555 1_555
N1 C2 1_555 1_555
N2 N3 1_555 1_555
N3 C9 1_555 1_555
N4 C12 1_555 1_555
C1 H1 1_555 1_555
C2 C1 1_555 1_555
H2 C2 1_555 1_555
C3 N1 1_555 1_555
H3 C3 1_555 1_555
C4 C3 1_555 1_555
H4 C4 1_555 1_555
C5 C1 1_555 1_555
C6 N2 1_555 1_555
C7 C6 1_555 1_555
H5 C7 1_555 1_555
H6 C7 1_555 1_555
H7 C7 1_555 1_555
C8 H8 1_555 1_555
H9 C8 1_555 1_555
H10 C8 1_555 1_555
C9 C8 1_555 1_555
C10 C9 1_555 1_555
C11 C10 1_555 1_555
H11 C11 1_555 1_555
C12 C11 1_555 1_555
H12 C12 1_555 1_555
C13 N4 1_555 1_555
H13 C13 1_555 1_555
C14 C10 1_555 1_555
H14 C14 1_555 1_555
N5 O1 1_555 1_555
O1 Cu1 1_555 1_555
O2 N5 1_555 1_555
O3 N5 1_555 1_555
Cu1B N4 1_555 1_555
Cu1B_2 N4A 1_555 1_555
N1A Cu1 1_555 1_555
N2A N3A 1_555 1_555
N3A C9A 1_555 1_555
N4A C12A 1_555 1_555
N4B Cu1 1_555 1_555
N4C Cu1 1_555 1_555
C1A H1A 1_555 1_555
C2A N1A 1_555 1_555
H2A C2A 1_555 1_555
C3A N1A 1_555 1_555
H3A C3A 1_555 1_555
C4A C3A 1_555 1_555
H4A C4A 1_555 1_555
C5A C1A 1_555 1_555
C6A N2A 1_555 1_555
C7A C6A 1_555 1_555
H5A C7A 1_555 1_555
H6A C7A 1_555 1_555
H7A C7A 1_555 1_555
C8A H8A 1_555 1_555
H9A C8A 1_555 1_555
H10A C8A 1_555 1_555
C9A C8A 1_555 1_555
C10A C9A 1_555 1_555
C11A C10A 1_555 1_555
H11A C11A 1_555 1_555
C12A C11A 1_555 1_555
H12A C12A 1_555 1_555
C13A N4A 1_555 1_555
H13A C13A 1_555 1_555
C14A C10A 1_555 1_555
H14A C14A 1_555 1_555
N5A O1A 1_555 1_555
O1A Cu1 1_555 1_555
O2A N5A 1_555 1_555
O3A N5A 1_555 1_555
C4 C5 1_555 1_555
C5 C6 1_555 1_555
C13 C14 1_555 1_555
C1A C2A 1_555 1_555
C4A C5A 1_555 1_555
C5A C6A 1_555 1_555
C13A C14A 1_555 1_555

#END
