
#######################################################################
#
#                 Cambridge Crystallographic Data Centre
#                                CCDC 
#
#######################################################################
#
# If this CIF has been generated from an entry in the Cambridge 
# Structural Database, then it will include bibliographic, chemical, 
# crystal, experimental, refinement or atomic coordinate data resulting 
# from the CCDC's data processing and validation procedures.
#
#######################################################################

data_HEGVUM
_symmetry_cell_setting           triclinic
_symmetry_space_group_name_H-M   'P -1'
_symmetry_Int_Tables_number      2
_space_group_name_Hall           '-P 1'
loop_
_symmetry_equiv_pos_site_id
_symmetry_equiv_pos_as_xyz
1 x,y,z
2 -x,-y,-z
_cell_length_a                   8.179(3)
_cell_length_b                   9.857(4)
_cell_length_c                   10.665(4)
_cell_angle_alpha                104.997(6)
_cell_angle_beta                 94.096(5)
_cell_angle_gamma                102.236(6)
_cell_volume                     804.369
loop_
_atom_site_label
_atom_site_type_symbol
_atom_site_fract_x
_atom_site_fract_y
_atom_site_fract_z
Zn1 Zn 0.86958(4) 0.71173(4) 0.64906(3)
Zn2 Zn 0.5000 0.5000 1.0000
K1 K 1.09015(9) 0.20030(8) -0.02209(7)
O1 O 0.9489(3) 0.6867(2) 0.45675(19)
O2 O 0.9262(3) 0.5236(2) 0.26382(19)
O3 O 0.9224(2) 0.2149(2) 0.22984(19)
O4 O 0.6632(3) 0.1917(3) 0.1377(2)
O5 O 0.3477(3) 0.1086(2) 0.5674(2)
O6 O 0.5645(3) 0.1596(2) 0.7216(2)
O7 O 0.5121(2) 0.4562(2) 0.79899(18)
O8 O 0.7167(3) 0.6390(2) 0.78448(19)
O9 O 0.7992(3) 0.8912(2) 0.6557(2)
O10 O 0.7543(2) 0.5162(2) 1.03390(19)
H1 H 0.7881 0.4434 0.9676
H2 H 0.7849 0.5044 1.1193
O11 O 0.5531(3) 0.7307(2) 1.0387(2)
H3 H 0.5288 0.7765 1.1251
H4 H 0.4897 0.7590 0.9735
O12 O 1.0683(3) 0.1118(3) -0.3030(2)
O13 O 0.8596(3) 0.3225(3) -0.1393(2)
O14 O 0.7798(3) 0.0007(3) -0.0627(2)
H5 H 0.6995 0.0371 -0.0086
H6 H 0.7305 -0.0345 -0.1540
N1 N 0.7446(3) 0.5068(3) 0.5475(2)
C1 C 0.8945(3) 0.5630(3) 0.3781(3)
C2 C 0.7838(3) 0.4523(3) 0.4283(3)
C3 C 0.7263(3) 0.3065(3) 0.3642(3)
C4 C 0.7737(4) 0.2350(3) 0.2323(3)
C5 C 0.6281(3) 0.2206(3) 0.4282(3)
H7 H 0.5863 0.1225 0.3866
C6 C 0.5903(3) 0.2780(3) 0.5535(3)
C7 C 0.4933(4) 0.1757(3) 0.6216(3)
C8 C 0.6513(3) 0.4258(3) 0.6099(3)
C9 C 0.6241(3) 0.5142(3) 0.7434(3)
H8 H 0.888(3) 0.960(3) 0.680(3)
H9 H 0.744(4) 0.886(4) 0.583(2)
H10 H 1.038(4) 0.174(3) -0.337(4)
H11 H 1.155(3) 0.085(4) -0.332(3)
H12 H 0.774(3) 0.260(3) -0.185(3)
H13 H 0.925(4) 0.371(4) -0.179(3)
Zn1A Zn 0.13042(4) 0.28827(4) 1.35094(3)
Zn1A_2 Zn 1.13042(4) 0.28827(4) 0.35094(3)
Zn1_2 Zn -0.13042(4) 0.71173(4) 1.64906(3)
K1A K -0.09015(9) 0.79970(8) 2.02209(7)
K1A_2 K 0.90985(9) 0.79970(8) 1.02209(7)
K1A_3 K 0.90985(9) -0.20030(8) 0.02209(7)
K1_2 K 0.09015(9) 0.20030(8) 0.97791(7)
O1A O 0.0511(3) 0.3133(2) 1.54325(19)
O2A O 0.0738(3) 0.4764(2) 1.73618(19)
O3A O 0.0776(2) 0.7851(2) 1.77016(19)
O3A_2 O 1.0776(2) 0.7851(2) 0.77016(19)
O3_2 O -0.0776(2) 0.2149(2) 1.22984(19)
O4A O 0.3368(3) 0.8083(3) 1.8623(2)
O5A O 0.6523(3) 0.8914(2) 1.4326(2)
O6A O 0.4355(3) 0.8404(2) 1.2784(2)
O7A O 0.4879(2) 0.5438(2) 1.20101(18)
O8A O 0.2833(3) 0.3610(2) 1.21552(19)
O8A_2 O 1.2833(3) 0.3610(2) 0.21552(19)
O8_2 O -0.2833(3) 0.6390(2) 1.78448(19)
O9A O 0.2008(3) 0.1088(2) 1.3443(2)
O10A O 0.2457(2) 0.4838(2) 0.96610(19)
O10A_2 O 1.2457(2) 0.4838(2) -0.03390(19)
O10_2 O -0.2457(2) 0.5162(2) 2.03390(19)
H1A H 0.2119 0.5566 1.0324
H1A_2 H 1.2119 0.5566 0.0324
H1_2 H -0.2119 0.4434 1.9676
H2A H 0.2151 0.4956 0.8807
H2A_2 H 1.2151 0.4956 -0.1193
H2_2 H -0.2151 0.5044 2.1193
O11A O 0.4469(3) 0.2693(2) 0.9613(2)
O11A_2 O 1.4469(3) 0.2693(2) -0.0387(2)
O11_2 O -0.4469(3) 0.7307(2) 2.0387(2)
H3A H 0.4712 0.2235 0.8749
H3A_2 H 1.4712 0.2235 -0.1251
H3_2 H -0.4712 0.7765 2.1251
H4A H 0.5103 0.2410 1.0265
H4A_2 H 1.5103 0.2410 0.0265
H4_2 H -0.5103 0.7590 1.9735
O12A O -0.0683(3) 0.8882(3) 2.3030(2)
O13A O 0.1404(3) 0.6775(3) 2.1393(2)
O14A O 1.2202(3) -0.0007(3) 0.0627(2)
O14A_2 O 0.2202(3) 0.9993(3) 2.0627(2)
O14_2 O -0.2202(3) 1.0007(3) 1.9373(2)
H5A H 1.3005 -0.0371 0.0086
H5A_2 H 0.3005 0.9629 2.0086
H5_2 H -0.3005 1.0371 1.9914
H6A H 1.2695 0.0345 0.1540
H6A_2 H 0.2695 1.0345 2.1540
H6_2 H -0.2695 0.9655 1.8460
N1A N 0.2554(3) 0.4932(3) 1.4525(2)
C1A C 0.1055(3) 0.4370(3) 1.6219(3)
C2A C 0.2162(3) 0.5477(3) 1.5717(3)
C3A C 0.2737(3) 0.6935(3) 1.6358(3)
C4A C 0.2263(4) 0.7650(3) 1.7677(3)
C5A C 0.3719(3) 0.7794(3) 1.5718(3)
H7A H 0.4137 0.8775 1.6134
C6A C 0.4097(3) 0.7220(3) 1.4465(3)
C7A C 0.5067(4) 0.8243(3) 1.3784(3)
C8A C 0.3487(3) 0.5742(3) 1.3901(3)
C9A C 0.3759(3) 0.4858(3) 1.2566(3)
H8A H 0.112(3) 0.040(3) 1.320(3)
H9A H 0.256(4) 0.114(4) 1.417(2)
H10A H -0.038(4) 0.826(3) 2.337(4)
H11A H -0.155(3) 0.915(4) 2.332(3)
H12A H 0.226(3) 0.740(3) 2.185(3)
H13A H 0.075(4) 0.629(4) 2.179(3)
loop_
_geom_bond_atom_site_label_1
_geom_bond_atom_site_label_2
_geom_bond_site_symmetry_1
_geom_bond_site_symmetry_2
Zn1 O1 1_555 1_555
Zn2 O7 1_555 1_555
K1 O3 1_555 1_555
O1 C1 1_555 1_555
O2 C1 1_555 1_555
O3 C4 1_555 1_555
O4 C4 1_555 1_555
O5 C7 1_555 1_555
O6 C7 1_555 1_555
O7 C9 1_555 1_555
O8 Zn1 1_555 1_555
O9 Zn1 1_555 1_555
O10 Zn2 1_555 1_555
H1 O10 1_555 1_555
H2 O10 1_555 1_555
O11 Zn2 1_555 1_555
H3 O11 1_555 1_555
H4 O11 1_555 1_555
O12 K1 1_555 1_555
O13 K1 1_555 1_555
O14 K1 1_555 1_555
H5 O14 1_555 1_555
H6 O14 1_555 1_555
N1 Zn1 1_555 1_555
C1 C2 1_555 1_555
C2 N1 1_555 1_555
C3 C2 1_555 1_555
C4 C3 1_555 1_555
C5 C3 1_555 1_555
H7 C5 1_555 1_555
C6 C5 1_555 1_555
C7 C6 1_555 1_555
C8 N1 1_555 1_555
C9 O8 1_555 1_555
H8 O9 1_555 1_555
H9 O9 1_555 1_555
H10 O12 1_555 1_555
H11 O12 1_555 1_555
H12 O13 1_555 1_555
H13 O13 1_555 1_555
Zn1A O1A 1_555 1_555
Zn1A_2 O3 1_555 1_555
Zn1_2 O3A 1_555 1_555
K1A O3A 1_555 1_555
K1A_2 O8 1_555 1_555
K1A_3 O14 1_555 1_555
K1_2 O3_2 1_555 1_555
O1A C1A 1_555 1_555
O2A C1A 1_555 1_555
O3A C4A 1_555 1_555
O3A_2 Zn1 1_555 1_555
O3_2 Zn1A 1_555 1_555
O4A C4A 1_555 1_555
O5A C7A 1_555 1_555
O6A C7A 1_555 1_555
O7A Zn2 1_555 1_555
O8A Zn1A 1_555 1_555
O8A_2 K1 1_555 1_555
O8_2 Zn1_2 1_555 1_555
O9A Zn1A 1_555 1_555
O10A Zn2 1_555 1_555
O10A_2 K1 1_555 1_555
O10_2 K1A 1_555 1_555
H1A O10A 1_555 1_555
H1A_2 O10A_2 1_555 1_555
H1_2 O10_2 1_555 1_555
H2A O10A 1_555 1_555
H2A_2 O10A_2 1_555 1_555
H2_2 O10_2 1_555 1_555
O11A Zn2 1_555 1_555
O11A_2 K1 1_555 1_555
O11_2 K1A 1_555 1_555
H3A O11A 1_555 1_555
H3A_2 O11A_2 1_555 1_555
H3_2 O11_2 1_555 1_555
H4A O11A 1_555 1_555
H4A_2 O11A_2 1_555 1_555
H4_2 O11_2 1_555 1_555
O12A K1A 1_555 1_555
O13A K1A 1_555 1_555
O14A K1 1_555 1_555
O14A_2 K1A 1_555 1_555
O14_2 K1A 1_555 1_555
H5A O14A 1_555 1_555
H5A_2 O14A_2 1_555 1_555
H5_2 O14_2 1_555 1_555
H6A O14A 1_555 1_555
H6A_2 O14A_2 1_555 1_555
H6_2 O14_2 1_555 1_555
N1A Zn1A 1_555 1_555
C1A C2A 1_555 1_555
C2A N1A 1_555 1_555
C3A C2A 1_555 1_555
C4A C3A 1_555 1_555
C5A C3A 1_555 1_555
H7A C5A 1_555 1_555
C6A C5A 1_555 1_555
C7A C6A 1_555 1_555
C8A N1A 1_555 1_555
C9A O7A 1_555 1_555
H8A O9A 1_555 1_555
H9A O9A 1_555 1_555
H10A O12A 1_555 1_555
H11A O12A 1_555 1_555
H12A O13A 1_555 1_555
H13A O13A 1_555 1_555
O10 K1A_2 1_555 1_555
O11 K1A_2 1_555 1_555
C6 C8 1_555 1_555
C8 C9 1_555 1_555
Zn1A_2 O8A_2 1_555 1_555
K1A O8_2 1_555 1_555
K1A_2 O3A_2 1_555 1_555
K1A_3 O14A 1_555 1_555
K1_2 O8A 1_555 1_555
K1_2 O10A 1_555 1_555
K1_2 O11A 1_555 1_555
O8A C9A 1_555 1_555
C6A C8A 1_555 1_555
C8A C9A 1_555 1_555

#END
