
#######################################################################
#
#                 Cambridge Crystallographic Data Centre
#                                CCDC 
#
#######################################################################
#
# If this CIF has been generated from an entry in the Cambridge 
# Structural Database, then it will include bibliographic, chemical, 
# crystal, experimental, refinement or atomic coordinate data resulting 
# from the CCDC's data processing and validation procedures.
#
#######################################################################

data_HEGWEX
_symmetry_cell_setting           monoclinic
_symmetry_space_group_name_H-M   'P 21/m'
_symmetry_Int_Tables_number      11
_space_group_name_Hall           '-P 2yb'
loop_
_symmetry_equiv_pos_site_id
_symmetry_equiv_pos_as_xyz
1 x,y,z
2 -x,1/2+y,-z
3 -x,-y,-z
4 x,1/2-y,z
_cell_length_a                   8.7819(18)
_cell_length_b                   20.254(4)
_cell_length_c                   8.7825(18)
_cell_angle_alpha                90
_cell_angle_beta                 101.82(3)
_cell_angle_gamma                90
_cell_volume                     1529.01
loop_
_atom_site_label
_atom_site_type_symbol
_atom_site_fract_x
_atom_site_fract_y
_atom_site_fract_z
O16 O 0.0792(11) 0.2500 0.6747(10)
H9 H 0.1323 0.2151 0.6706
H9C H 0.1323 0.2849 0.6706
Zn1 Zn 0.30203(9) 0.04258(4) 0.27994(9)
Mn1 Mn 0.19548(16) -0.2500 -0.24605(16)
K1 K 0.6248(3) -0.2500 -0.2597(3)
K2 K 0.4428(3) -0.2500 0.1494(2)
O1 O 0.4559(5) -0.0409(3) 0.2874(5)
O2 O 0.5537(5) -0.1112(3) 0.1342(5)
O3 O 0.5242(5) -0.1126(3) -0.2522(5)
O4 O 0.3715(5) -0.1796(3) -0.1475(5)
O5 O -0.1398(5) 0.0277(3) -0.3496(5)
O6 O 0.0432(5) 0.0919(3) -0.4160(5)
O7 O -0.0179(5) 0.1321(3) -0.0800(5)
O8 O 0.1271(5) 0.1095(3) 0.1529(5)
O9 O 0.3168(5) 0.0850(3) 0.4903(5)
H1 H 0.2610 0.1184 0.4998
H2 H 0.3787 0.0695 0.5693
O10 O 0.1128(7) -0.2500 -0.0264(7)
H3 H 0.0555 -0.2105 -0.0104
O11 O 0.2798(10) -0.2500 -0.4623(8)
H4 H 0.2533 -0.2895 -0.5245
O12 O 0.0319(6) -0.3258(3) -0.3370(5)
H5 H 0.0616 -0.3595 -0.3810
H6 H -0.0627 -0.3223 -0.3293
O13 O 0.6444(12) -0.2737(6) -0.5581(11)
O14 O 0.2750(5) -0.3398(3) 0.3150(5)
H7 H 0.3166 -0.3528 0.4060
H8 H 0.1844 -0.3530 0.2723
O15 O 0.7179(11) -0.2757(5) 0.0445(11)
N1 N 0.2619(6) 0.0088(3) 0.0528(6)
C1 C 0.4633(8) -0.0678(4) 0.1547(7)
C2 C 0.3464(8) -0.0411(4) 0.0171(8)
C3 C 0.3244(8) -0.0652(4) -0.1326(7)
C4 C 0.2109(8) -0.0342(4) -0.2489(8)
H10 H 0.1968 -0.0481 -0.3517
C5 C 0.1209(8) 0.0170(4) -0.2091(7)
C6 C 0.1528(7) 0.0393(3) -0.0554(7)
C7 C 0.0797(7) 0.0983(4) 0.0091(8)
C8 C 0.4147(8) -0.1234(4) -0.1804(7)
C9 C -0.0024(8) 0.0478(4) -0.3329(7)
Zn1C Zn 0.30203(9) -0.54258(4) 0.27994(9)
Zn1B Zn 0.69797(9) -0.04258(4) -0.27994(9)
Zn1B_2 Zn -0.30203(9) -0.04258(4) -0.27994(9)
Zn1A Zn 0.69797(9) -0.45742(4) -0.27994(9)
Zn1A_2 Zn -0.30203(9) -0.45742(4) -0.27994(9)
K2_2 K 0.4428(3) -0.2500 -0.8506(2)
O1C O 0.4559(5) -0.4591(3) 0.2874(5)
O2C O 0.5537(5) -0.3888(3) 0.1342(5)
O3C O 0.5242(5) -0.3874(3) -0.2522(5)
O3B O 0.4758(5) 0.1126(3) 0.2522(5)
O3A O 0.4758(5) -0.6126(3) 0.2522(5)
O4C O 0.3715(5) -0.3204(3) -0.1475(5)
O5C O -0.1398(5) -0.5277(3) -0.3496(5)
O5B O 0.1398(5) -0.0277(3) 0.3496(5)
O5A O 0.1398(5) -0.4723(3) 0.3496(5)
O6C O 0.0432(5) -0.5919(3) -0.4160(5)
O7C O -0.0179(5) -0.6321(3) -0.0800(5)
O8C O 0.1271(5) -0.6095(3) 0.1529(5)
O9C O 0.3168(5) -0.5850(3) 0.4903(5)
H1C H 0.2610 -0.6184 0.4998
H2C H 0.3787 -0.5695 0.5693
H3C H 0.0555 -0.2895 -0.0104
H4C H 0.2533 -0.2105 -0.5245
O12C O 0.0319(6) -0.1742(3) -0.3370(5)
H5C H 0.0616 -0.1405 -0.3810
H6C H -0.0627 -0.1777 -0.3293
O13C O 0.6444(12) -0.2263(6) -0.5581(11)
O13_2 O 0.6444(12) -0.2737(6) 0.4419(11)
O13C_2 O 0.6444(12) -0.2263(6) 0.4419(11)
O14C O 0.2750(5) -0.1602(3) 0.3150(5)
H7C H 0.3166 -0.1472 0.4060
H8C H 0.1844 -0.1470 0.2723
O15C O 0.7179(11) -0.2243(5) 0.0445(11)
N1C N 0.2619(6) -0.5088(3) 0.0528(6)
C1C C 0.4633(8) -0.4322(4) 0.1547(7)
C2C C 0.3464(8) -0.4589(4) 0.0171(8)
C3C C 0.3244(8) -0.4348(4) -0.1326(7)
C4C C 0.2109(8) -0.4658(4) -0.2489(8)
H10C H 0.1968 -0.4519 -0.3517
C5C C 0.1209(8) -0.5170(4) -0.2091(7)
C6C C 0.1528(7) -0.5393(3) -0.0554(7)
C7C C 0.0797(7) -0.5983(4) 0.0091(8)
C8C C 0.4147(8) -0.3766(4) -0.1804(7)
C9C C -0.0024(8) -0.5478(4) -0.3329(7)
loop_
_geom_bond_atom_site_label_1
_geom_bond_atom_site_label_2
_geom_bond_site_symmetry_1
_geom_bond_site_symmetry_2
Zn1 O1 1_555 1_555
Mn1 O4 1_555 1_555
K1 O3 1_555 1_555
K2 O2 1_555 1_555
O1 C1 1_555 1_555
O2 C1 1_555 1_555
O3 C8 1_555 1_555
O4 K1 1_555 1_555
O5 C9 1_555 1_555
O6 C9 1_555 1_555
O7 C7 1_555 1_555
O8 Zn1 1_555 1_555
O9 Zn1 1_555 1_555
H1 O9 1_555 1_555
H2 O9 1_555 1_555
O10 Mn1 1_555 1_555
H3 O10 1_555 1_555
O11 Mn1 1_555 1_555
H4 O11 1_555 1_555
O12 Mn1 1_555 1_555
H5 O12 1_555 1_555
H6 O12 1_555 1_555
O13 K1 1_555 1_555
O14 K2 1_555 1_555
H7 O14 1_555 1_555
H8 O14 1_555 1_555
O15 K1 1_555 1_555
O16 H9 1_555 1_555
N1 Zn1 1_555 1_555
C1 C2 1_555 1_555
C2 N1 1_555 1_555
C3 C2 1_555 1_555
C4 C3 1_555 1_555
H10 C4 1_555 1_555
C5 C4 1_555 1_555
C6 N1 1_555 1_555
C7 O8 1_555 1_555
C8 O4 1_555 1_555
C9 C5 1_555 1_555
Zn1C O1C 1_555 1_555
Zn1B O3 1_555 1_555
Zn1B_2 O5 1_555 1_555
Zn1A O3C 1_555 1_555
Zn1A_2 O5C 1_555 1_555
K2_2 O13 1_555 1_555
O1C C1C 1_555 1_555
O2C K2 1_555 1_555
O3C K1 1_555 1_555
O3B Zn1 1_555 1_555
O3A Zn1C 1_555 1_555
O4C Mn1 1_555 1_555
O5C C9C 1_555 1_555
O5B Zn1 1_555 1_555
O5A Zn1C 1_555 1_555
O6C C9C 1_555 1_555
O7C C7C 1_555 1_555
O8C Zn1C 1_555 1_555
O9C Zn1C 1_555 1_555
H1C O9C 1_555 1_555
H2C O9C 1_555 1_555
H3C O10 1_555 1_555
H4C O11 1_555 1_555
O12C Mn1 1_555 1_555
H5C O12C 1_555 1_555
H6C O12C 1_555 1_555
O13C K1 1_555 1_555
O13_2 K2 1_555 1_555
O13C_2 K2 1_555 1_555
O14C K2 1_555 1_555
H7C O14C 1_555 1_555
H8C O14C 1_555 1_555
O15C K1 1_555 1_555
H9C O16 1_555 1_555
N1C Zn1C 1_555 1_555
C1C O2C 1_555 1_555
C2C N1C 1_555 1_555
C3C C2C 1_555 1_555
C4C C3C 1_555 1_555
H10C C4C 1_555 1_555
C5C C4C 1_555 1_555
C6C N1C 1_555 1_555
C7C O8C 1_555 1_555
C8C O3C 1_555 1_555
C9C C5C 1_555 1_555
K1 O11 1_555 1_555
K1 O4C 1_555 1_555
K2 O4 1_555 1_555
K2 O10 1_555 1_555
K2 O15 1_555 1_555
K2 O4C 1_555 1_555
K2 O15C 1_555 1_555
O13 O13C 1_555 1_555
O15 O15C 1_555 1_555
C3 C8 1_555 1_555
C5 C6 1_555 1_555
C6 C7 1_555 1_555
K2_2 O13C 1_555 1_555
O4C C8C 1_555 1_555
O13_2 O13C_2 1_555 1_555
C1C C2C 1_555 1_555
C3C C8C 1_555 1_555
C5C C6C 1_555 1_555
C6C C7C 1_555 1_555

#END
