
#######################################################################
#
#                 Cambridge Crystallographic Data Centre
#                                CCDC 
#
#######################################################################
#
# If this CIF has been generated from an entry in the Cambridge 
# Structural Database, then it will include bibliographic, chemical, 
# crystal, experimental, refinement or atomic coordinate data resulting 
# from the CCDC's data processing and validation procedures.
#
#######################################################################

data_HEGWUN
_symmetry_cell_setting           triclinic
_symmetry_space_group_name_H-M   'P -1'
_symmetry_Int_Tables_number      2
_space_group_name_Hall           '-P 1'
loop_
_symmetry_equiv_pos_site_id
_symmetry_equiv_pos_as_xyz
1 x,y,z
2 -x,-y,-z
_cell_length_a                   7.4113(10)
_cell_length_b                   9.2079(12)
_cell_length_c                   11.5385(15)
_cell_angle_alpha                73.910(2)
_cell_angle_beta                 72.0980(10)
_cell_angle_gamma                75.4480(10)
_cell_volume                     707.966
loop_
_atom_site_label
_atom_site_type_symbol
_atom_site_fract_x
_atom_site_fract_y
_atom_site_fract_z
Yb1 Yb 0.89255(2) 0.457640(17) 0.276435(13)
O1 O 0.8715(4) 0.7232(3) 0.2414(3)
O2 O 0.8331(4) 0.6404(3) 0.0924(3)
O3 O 0.5343(4) 1.4083(3) 0.1401(3)
O4 O 0.8174(4) 1.3036(3) 0.1829(3)
O5 O 1.1736(4) 0.4102(3) 0.1297(2)
H1 H 1.2895(11) 0.385(4) 0.1353(14)
H2 H 1.178(2) 0.393(3) 0.0604(11)
O6 O 0.9393(6) 0.2098(4) 0.3934(3)
H3 H 0.994(3) 0.183(3) 0.4531(16)
H4 H 0.935(4) 0.125(2) 0.380(3)
O7 O 1.1435(4) 0.4659(4) 0.3570(3)
O8 O 1.2243(4) 0.5059(3) 0.5161(3)
O9 O 0.5588(4) 0.5221(4) 0.3203(3)
H5 H 0.523(3) 0.487(2) 0.2733(15)
H6 H 0.461(3) 0.545(3) 0.3775(18)
N1 N 0.6655(6) 1.1291(4) -0.2294(3)
H9 H 0.6304 1.2223 -0.2665
H10 H 0.6835 1.0550 -0.2659
C1 C 0.8368(6) 0.7504(5) 0.1345(4)
C2 C 0.7885(5) 0.9115(4) 0.0680(4)
C3 C 0.7705(6) 1.0328(5) 0.1254(4)
H11 H 0.7999 1.0118 0.2018
C4 C 0.7539(6) 0.9465(5) -0.0491(4)
H12 H 0.7714 0.8675 -0.0894
C5 C 0.6936(6) 1.0975(5) -0.1077(4)
C6 C 0.6651(6) 1.2155(5) -0.0481(4)
H13 H 0.6172 1.3158 -0.0841
C7 C 0.7096(5) 1.1819(5) 0.0690(4)
C8 C 0.6826(5) 1.3086(4) 0.1347(4)
C9 C 1.1062(5) 0.4918(5) 0.4623(4)
Yb1_2 Yb 0.89255(2) -0.542360(17) 0.276435(13)
Yb1_3 Yb 0.89255(2) 1.457640(17) 0.276435(13)
Yb1A Yb 1.10745(2) 0.542360(17) 0.723565(13)
O1_2 O 0.8715(4) -0.2768(3) 0.2414(3)
O2_2 O 0.8331(4) -0.3596(3) 0.0924(3)
O3_2 O 0.5343(4) 0.4083(3) 0.1401(3)
O4_2 O 0.8174(4) 0.3036(3) 0.1829(3)
O4_3 O 0.8174(4) -0.6964(3) 0.1829(3)
O5_2 O 1.1736(4) -0.5898(3) 0.1297(2)
H1_2 H 1.2895(11) -0.615(4) 0.1353(14)
H2_2 H 1.178(2) -0.607(3) 0.0604(11)
O6_2 O 0.9393(6) -0.7902(4) 0.3934(3)
H3_2 H 0.994(3) -0.817(3) 0.4531(16)
H4_2 H 0.935(4) -0.875(2) 0.380(3)
O7A O 0.8565(4) 0.5341(4) 0.6430(3)
O7_2 O 1.1435(4) -0.5341(4) 0.3570(3)
O8A O 0.7757(4) 0.4941(3) 0.4839(3)
O8A_2 O 0.7757(4) -0.5059(3) 0.4839(3)
O9_2 O 0.5588(4) -0.4779(4) 0.3203(3)
H5_2 H 0.523(3) -0.513(2) 0.2733(15)
H6_2 H 0.461(3) -0.455(3) 0.3775(18)
N1_2 N 0.6655(6) 0.1291(4) -0.2294(3)
H9_2 H 0.6304 0.2223 -0.2665
H10_2 H 0.6835 0.0550 -0.2659
C1_2 C 0.8368(6) -0.2496(5) 0.1345(4)
C2_2 C 0.7885(5) -0.0885(4) 0.0680(4)
C3_2 C 0.7705(6) 0.0328(5) 0.1254(4)
H11_2 H 0.7999 0.0118 0.2018
C4_2 C 0.7539(6) -0.0535(5) -0.0491(4)
H12_2 H 0.7714 -0.1325 -0.0894
C5_2 C 0.6936(6) 0.0975(5) -0.1077(4)
C6_2 C 0.6651(6) 0.2155(5) -0.0481(4)
H13_2 H 0.6172 0.3158 -0.0841
C7_2 C 0.7096(5) 0.1819(5) 0.0690(4)
C8_2 C 0.6826(5) 0.3086(4) 0.1347(4)
C9A C 0.8938(5) 0.5082(5) 0.5377(4)
O10 O 0.0332(5) 0.1141(4) 0.6134(3)
H7 H 0.074(4) 0.161(2) 0.6505(19)
H8 H 0.131(4) 0.084(3) 0.558(2)
loop_
_geom_bond_atom_site_label_1
_geom_bond_atom_site_label_2
_geom_bond_site_symmetry_1
_geom_bond_site_symmetry_2
Yb1 O1 1_555 1_555
O1 C1 1_555 1_555
O2 Yb1 1_555 1_555
O3 C8 1_555 1_555
O4 C8 1_555 1_555
O5 Yb1 1_555 1_555
H1 O5 1_555 1_555
H2 O5 1_555 1_555
O6 Yb1 1_555 1_555
H3 O6 1_555 1_555
H4 O6 1_555 1_555
O7 Yb1 1_555 1_555
O8 C9 1_555 1_555
O9 Yb1 1_555 1_555
H5 O9 1_555 1_555
H6 O9 1_555 1_555
O10 H7 1_555 1_555
H8 O10 1_555 1_555
N1 H9 1_555 1_555
H10 N1 1_555 1_555
C1 O2 1_555 1_555
C2 C1 1_555 1_555
C3 C2 1_555 1_555
H11 C3 1_555 1_555
C4 C2 1_555 1_555
H12 C4 1_555 1_555
C5 N1 1_555 1_555
C6 C5 1_555 1_555
H13 C6 1_555 1_555
C7 C3 1_555 1_555
C8 C7 1_555 1_555
C9 O7 1_555 1_555
Yb1_2 O1_2 1_555 1_555
Yb1_3 O4 1_555 1_555
Yb1A O8 1_555 1_555
O1_2 C1_2 1_555 1_555
O2_2 Yb1_2 1_555 1_555
O3_2 C8_2 1_555 1_555
O4_2 Yb1 1_555 1_555
O4_3 Yb1_2 1_555 1_555
O5_2 Yb1_2 1_555 1_555
H1_2 O5_2 1_555 1_555
H2_2 O5_2 1_555 1_555
O6_2 Yb1_2 1_555 1_555
H3_2 O6_2 1_555 1_555
H4_2 O6_2 1_555 1_555
O7A Yb1A 1_555 1_555
O7_2 Yb1_2 1_555 1_555
O8A Yb1 1_555 1_555
O8A_2 Yb1_2 1_555 1_555
O9_2 Yb1_2 1_555 1_555
H5_2 O9_2 1_555 1_555
H6_2 O9_2 1_555 1_555
N1_2 H9_2 1_555 1_555
H10_2 N1_2 1_555 1_555
C1_2 O2_2 1_555 1_555
C2_2 C1_2 1_555 1_555
C3_2 C2_2 1_555 1_555
H11_2 C3_2 1_555 1_555
C4_2 C2_2 1_555 1_555
H12_2 C4_2 1_555 1_555
C5_2 N1_2 1_555 1_555
C6_2 C5_2 1_555 1_555
H13_2 C6_2 1_555 1_555
C7_2 C3_2 1_555 1_555
C8_2 O4_2 1_555 1_555
C9A C9 1_555 1_555
C4 C5 1_555 1_555
C6 C7 1_555 1_555
O7A C9A 1_555 1_555
O8A C9A 1_555 1_555
C4_2 C5_2 1_555 1_555
C6_2 C7_2 1_555 1_555
C7_2 C8_2 1_555 1_555

#END
