
#######################################################################
#
#                 Cambridge Crystallographic Data Centre
#                                CCDC 
#
#######################################################################
#
# If this CIF has been generated from an entry in the Cambridge 
# Structural Database, then it will include bibliographic, chemical, 
# crystal, experimental, refinement or atomic coordinate data resulting 
# from the CCDC's data processing and validation procedures.
#
#######################################################################

data_HEGXEY
_symmetry_cell_setting           orthorhombic
_symmetry_space_group_name_H-M   'P n n a'
_symmetry_Int_Tables_number      52
_space_group_name_Hall           '-P 2a 2bc'
loop_
_symmetry_equiv_pos_site_id
_symmetry_equiv_pos_as_xyz
1 x,y,z
2 1/2-x,-y,z
3 1/2-x,1/2+y,1/2-z
4 x,1/2-y,1/2-z
5 -x,-y,-z
6 1/2+x,y,-z
7 1/2+x,1/2-y,1/2+z
8 -x,1/2+y,1/2+z
_cell_length_a                   15.275(2)
_cell_length_b                   14.163(2)
_cell_length_c                   10.9756(15)
_cell_angle_alpha                90
_cell_angle_beta                 90
_cell_angle_gamma                90
_cell_volume                     2374.46
loop_
_atom_site_label
_atom_site_type_symbol
_atom_site_fract_x
_atom_site_fract_y
_atom_site_fract_z
Er1 Er 0.42560(2) 0.11015(2) -0.07778(3)
O1 O 0.4166(4) 0.1176(4) -0.2783(5)
O2 O 0.4032(4) 0.2336(4) -0.4128(4)
O3 O 0.3800(5) 0.1294(4) -0.8706(5)
O4 O 0.4633(4) 0.0053(4) -0.8901(4)
O5 O 0.5522(4) 0.1754(4) -0.0120(8)
H1 H 0.586(6) 0.144(6) 0.035(9)
H2 H 0.574(6) 0.231(3) -0.013(11)
O6 O 0.2697(4) 0.1210(4) -0.0909(5)
O7 O 0.1434(4) 0.0407(4) -0.0973(5)
N1 N 0.3328(4) -0.1760(4) -0.5170(6)
H3 H 0.3275 -0.2172 -0.5741
H4 H 0.3222 -0.1915 -0.4427
C1 C 0.4046(5) 0.1481(5) -0.3841(7)
C2 C 0.3933(5) 0.0754(5) -0.4841(7)
C3 C 0.3707(5) -0.0161(5) -0.4537(6)
H5 H 0.3632 -0.0329 -0.3725
C4 C 0.4054(5) 0.1022(5) -0.6045(7)
H6 H 0.4169 0.1648 -0.6247
C5 C 0.3590(5) -0.0831(5) -0.5453(7)
C6 C 0.3761(5) -0.0584(5) -0.6647(6)
H7 H 0.3716 -0.1036 -0.7258
C7 C 0.3998(5) 0.0332(5) -0.6940(6)
C8 C 0.4159(5) 0.0566(5) -0.8243(7)
C9 C 0.2239(6) 0.0466(5) -0.0944(7)
Er1C Er 0.42560(2) 0.38985(2) -0.42222(3)
Er1_2 Er 0.42560(2) 0.11015(2) -1.07778(3)
Er1D Er 0.57440(2) -0.11015(2) -0.92222(3)
Er1A Er 0.07440(2) -0.11015(2) -0.07778(3)
Er1C_2 Er 0.42560(2) 0.38985(2) 0.57778(3)
Er1G Er 0.57440(2) 0.61015(2) 0.42222(3)
O1C O 0.4166(4) 0.3824(4) -0.2217(5)
O2C O 0.4032(4) 0.2664(4) -0.0872(4)
O3C O 0.3800(5) 0.3706(4) 0.3706(5)
O3_2 O 0.3800(5) 0.1294(4) 0.1294(5)
O3C_2 O 0.3800(5) 0.3706(4) -0.6294(5)
O4C O 0.4633(4) 0.4947(4) 0.3901(4)
O4_2 O 0.4633(4) 0.0053(4) 0.1099(4)
O4D O 0.5367(4) -0.0053(4) -0.1099(4)
O4C_2 O 0.4633(4) 0.4947(4) -0.6099(4)
O4G O 0.5367(4) 0.5053(4) -0.3901(4)
O5C O 0.5522(4) 0.3246(4) -0.4880(8)
H1C H 0.586(6) 0.356(6) -0.535(9)
H2C H 0.574(6) 0.269(3) -0.487(11)
O6A O 0.2303(4) -0.1210(4) -0.0909(5)
O6C O 0.2697(4) 0.3790(4) -0.4091(5)
O7A O 0.3566(4) -0.0407(4) -0.0973(5)
O7B O 0.3566(4) 0.5407(4) -0.4027(5)
N1C N 0.3328(4) 0.6760(4) 0.0170(6)
H3C H 0.3275 0.7172 0.0741
H4C H 0.3222 0.6915 -0.0573
C1C C 0.4046(5) 0.3519(5) -0.1159(7)
C2C C 0.3933(5) 0.4246(5) -0.0159(7)
C3C C 0.3707(5) 0.5161(5) -0.0463(6)
H5C H 0.3632 0.5329 -0.1275
C4C C 0.4054(5) 0.3978(5) 0.1045(7)
H6C H 0.4169 0.3352 0.1247
C5C C 0.3590(5) 0.5831(5) 0.0453(7)
C6C C 0.3761(5) 0.5584(5) 0.1647(6)
H7C H 0.3716 0.6036 0.2258
C7C C 0.3998(5) 0.4668(5) 0.1940(6)
C8C C 0.4159(5) 0.4434(5) 0.3243(7)
C9A C 0.2761(6) -0.0466(5) -0.0944(7)
O8 O 0.2583(6) 0.2500 0.2500
H8 H 0.243(6) 0.288(5) 0.196(7)
H8C H 0.243(6) 0.212(5) 0.304(7)
O9 O 0.3008(16) 0.7500 0.7500
H9 H 0.298(14) 0.787(14) 0.812(14)
H9C H 0.298(14) 0.713(14) 0.688(14)
loop_
_geom_bond_atom_site_label_1
_geom_bond_atom_site_label_2
_geom_bond_site_symmetry_1
_geom_bond_site_symmetry_2
Er1 O1 1_555 1_555
O1 C1 1_555 1_555
O2 C1 1_555 1_555
O3 C8 1_555 1_555
O4 C8 1_555 1_555
O5 Er1 1_555 1_555
H1 O5 1_555 1_555
H2 O5 1_555 1_555
O6 Er1 1_555 1_555
O7 C9 1_555 1_555
N1 H3 1_555 1_555
H4 N1 1_555 1_555
C1 C2 1_555 1_555
C2 C3 1_555 1_555
C3 H5 1_555 1_555
C4 C2 1_555 1_555
H6 C4 1_555 1_555
C5 N1 1_555 1_555
C6 C5 1_555 1_555
H7 C6 1_555 1_555
C7 C4 1_555 1_555
C8 C7 1_555 1_555
C9 O6 1_555 1_555
O8 H8 1_555 1_555
O9 H9 1_555 1_555
Er1C O2 1_555 1_555
Er1_2 O3 1_555 1_555
Er1D O4 1_555 1_555
Er1A O7 1_555 1_555
Er1C_2 O3C 1_555 1_555
Er1G O4C 1_555 1_555
O1C Er1C 1_555 1_555
O2C Er1 1_555 1_555
O3C C8C 1_555 1_555
O3_2 Er1 1_555 1_555
O3C_2 Er1C 1_555 1_555
O4C Er1C_2 1_555 1_555
O4_2 Er1 1_555 1_555
O4D Er1 1_555 1_555
O4C_2 Er1C 1_555 1_555
O4G Er1C 1_555 1_555
O5C Er1C 1_555 1_555
H1C O5C 1_555 1_555
H2C O5C 1_555 1_555
O6A Er1A 1_555 1_555
O6C Er1C 1_555 1_555
O7A Er1 1_555 1_555
O7B Er1C 1_555 1_555
N1C H3C 1_555 1_555
H4C N1C 1_555 1_555
C1C O1C 1_555 1_555
C2C C1C 1_555 1_555
C3C C2C 1_555 1_555
H5C C3C 1_555 1_555
C4C C2C 1_555 1_555
H6C C4C 1_555 1_555
C5C N1C 1_555 1_555
C6C C5C 1_555 1_555
H7C C6C 1_555 1_555
C7C C4C 1_555 1_555
C8C O4C 1_555 1_555
C9A C9 1_555 1_555
H8C O8 1_555 1_555
H9C O9 1_555 1_555
O4 Er1_2 1_555 1_555
C3 C5 1_555 1_555
C6 C7 1_555 1_555
O2C C1C 1_555 1_555
O6A C9A 1_555 1_555
O7A C9A 1_555 1_555
C3C C5C 1_555 1_555
C6C C7C 1_555 1_555
C7C C8C 1_555 1_555

#END
