
#######################################################################
#
#                 Cambridge Crystallographic Data Centre
#                                CCDC 
#
#######################################################################
#
# If this CIF has been generated from an entry in the Cambridge 
# Structural Database, then it will include bibliographic, chemical, 
# crystal, experimental, refinement or atomic coordinate data resulting 
# from the CCDC's data processing and validation procedures.
#
#######################################################################

data_HEGXOI
_symmetry_cell_setting           monoclinic
_symmetry_space_group_name_H-M   'C 2/c'
_symmetry_Int_Tables_number      15
_space_group_name_Hall           '-C 2yn'
loop_
_symmetry_equiv_pos_site_id
_symmetry_equiv_pos_as_xyz
1 x,y,z
2 -x,y,1/2-z
3 1/2+x,1/2+y,z
4 1/2-x,1/2+y,1/2-z
5 -x,-y,-z
6 x,-y,1/2+z
7 1/2-x,1/2-y,-z
8 1/2+x,1/2-y,1/2+z
_cell_length_a                   17.9309(4)
_cell_length_b                   21.3103(6)
_cell_length_c                   17.3708(4)
_cell_angle_alpha                90
_cell_angle_beta                 96.444(2)
_cell_angle_gamma                90
_cell_volume                     6595.67
loop_
_atom_site_label
_atom_site_type_symbol
_atom_site_fract_x
_atom_site_fract_y
_atom_site_fract_z
O3 O 0.0123(3) 0.4144(6) 0.9307(6)
O4 O 0.5000 0.0661(6) 0.2500
O5 O 0.9887(7) 0.5290(10) 0.9588(11)
Zn1 Zn 0.17731(3) 0.26996(3) 0.08273(3)
Zn2 Zn 0.10443(3) 0.17562(3) 0.26736(3)
C1 C 0.1049(3) 0.3729(3) 0.2548(3)
H1 H 0.0667 0.3483 0.2302
N1 N 0.1561(2) 0.09535(19) 0.3257(2)
N2 N -0.1751(2) 0.24159(19) 0.1562(2)
N3 N 0.0451(2) 0.2198(2) 0.1667(2)
N4 N 0.2081(2) 0.33534(19) 0.1768(2)
C2 C -0.2495(3) 0.2623(2) 0.1390(3)
N5 N 0.2238(2) 0.1862(2) 0.1448(2)
O1 O 0.1457(2) 0.3538(2) 0.0078(3)
H2 H 0.1081 0.3702 0.0216
N6 N -0.1807(2) 0.3078(2) 0.0556(2)
C3 C -0.1374(3) 0.2706(2) 0.1052(3)
N7 N 0.3440(2) 0.2807(2) 0.0201(2)
N8 N 0.2621(2) 0.0392(2) 0.3463(2)
N9 N 0.0660(2) 0.2579(2) 0.1113(2)
N10 N -0.0290(2) 0.2210(2) 0.1652(2)
C4 C -0.0566(3) 0.2605(2) 0.1093(3)
C5 C 0.1780(3) 0.3696(2) 0.2338(3)
C6 C -0.2531(3) 0.3028(2) 0.0753(3)
C7 C -0.3192(3) 0.3304(3) 0.0440(3)
H3 H -0.3207 0.3578 0.0022
C8 C 0.2231(3) 0.0831(2) 0.3025(3)
N11 N 0.1966(2) 0.1602(2) 0.2054(2)
O2 O 0.0000 0.1133(3) 0.2500
N12 N 0.2892(2) 0.1587(2) 0.1339(3)
C9 C 0.2448(3) 0.1156(2) 0.2348(3)
C10 C -0.3135(3) 0.2494(3) 0.1744(3)
H4 H -0.3116 0.2239 0.2180
N13 N 0.2983(2) 0.3953(2) 0.2379(2)
C11 C -0.3804(3) 0.2761(3) 0.1424(3)
H5 H -0.4243 0.2677 0.1644
C12 C 0.2169(3) 0.0201(2) 0.4024(3)
C13 C 0.2793(3) 0.3534(3) 0.1809(3)
C14 C 0.3273(3) 0.3300(3) 0.1252(3)
C15 C 0.3029(3) 0.1147(3) 0.1890(3)
H6 H 0.3444 0.0882 0.1953
N14 N 0.2927(2) 0.2954(2) 0.0665(2)
C16 C 0.1506(3) 0.0558(2) 0.3887(3)
C17 C 0.2347(3) 0.4074(2) 0.2726(3)
C18 C 0.2284(3) -0.0247(3) 0.4610(3)
H7 H 0.2725 -0.0480 0.4696
C19 C 0.0931(3) 0.0472(3) 0.4356(3)
H8 H 0.0489 0.0702 0.4276
C20 C -0.3833(3) 0.3153(3) 0.0777(3)
H9 H -0.4293 0.3317 0.0569
C21 C 0.1041(3) 0.0033(3) 0.4942(3)
H10 H 0.0670 -0.0027 0.5268
C22 C 0.1696(3) -0.0322(3) 0.5056(3)
H11 H 0.1740 -0.0621 0.5448
C23 C -0.1574(3) 0.3478(3) -0.0056(3)
H12 H -0.1045 0.3428 -0.0081
H13 H -0.1681 0.3908 0.0053
H14 H -0.1843 0.3359 -0.0544
C24 C 0.1479(4) 0.4502(3) 0.3507(3)
H15 H 0.1364 0.4773 0.3897
C25 C 0.0036(3) 0.2830(2) 0.0747(3)
H16 H 0.0011 0.3107 0.0332
C26 C 0.2217(4) 0.4477(3) 0.3327(3)
H17 H 0.2598 0.4715 0.3591
C27 C 0.3408(3) 0.0222(3) 0.3454(3)
H18 H 0.3596 0.0406 0.3010
H19 H 0.3453 -0.0227 0.3431
H20 H 0.3693 0.0374 0.3918
N15 N 0.4109(2) 0.3048(3) 0.0466(3)
C28 C 0.4010(3) 0.3354(3) 0.1124(4)
H21 H 0.4381 0.3566 0.1439
C29 C 0.3712(3) 0.4262(3) 0.2559(4)
H22 H 0.4063 0.4093 0.2235
H23 H 0.3894 0.4192 0.3093
H24 H 0.3657 0.4705 0.2466
C30 C 0.0913(3) 0.4141(3) 0.3133(3)
H25 H 0.0430 0.4173 0.3276
O6 O 0.0000 0.0087(3) 0.2500
O7 O 0.0648(6) 0.0603(5) 0.1743(6)
N16 N 0.0180(5) 0.0593(6) 0.2260(6)
H26 H 0.162(4) 0.351(3) -0.030(4)
N16A N -0.0180(5) 0.0593(6) 0.2740(6)
O7A O -0.0648(6) 0.0603(5) 0.3257(6)
C1F C 0.3951(3) 0.1271(3) -0.2548(3)
H1F H 0.4333 0.1517 -0.2302
N4F N 0.2919(2) 0.16466(19) -0.1768(2)
N7F N 0.1560(2) 0.2193(2) -0.0201(2)
C5F C 0.3220(3) 0.1304(2) -0.2338(3)
N13F N 0.2017(2) 0.1047(2) -0.2379(2)
C13F C 0.2207(3) 0.1466(3) -0.1809(3)
C14F C 0.1727(3) 0.1700(3) -0.1252(3)
N14F N 0.2073(2) 0.2046(2) -0.0665(2)
C17F C 0.2653(3) 0.0926(2) -0.2726(3)
C24F C 0.3521(4) 0.0498(3) -0.3507(3)
H15F H 0.3636 0.0227 -0.3897
C26F C 0.2783(4) 0.0523(3) -0.3327(3)
H17F H 0.2402 0.0285 -0.3591
N15F N 0.0891(2) 0.1952(3) -0.0466(3)
C28F C 0.0990(3) 0.1646(3) -0.1124(4)
H21F H 0.0619 0.1434 -0.1439
C29F C 0.1288(3) 0.0738(3) -0.2559(4)
H22F H 0.0937 0.0907 -0.2235
H23F H 0.1106 0.0808 -0.3093
H24F H 0.1343 0.0295 -0.2466
C30F C 0.4087(3) 0.0859(3) -0.3133(3)
H25F H 0.4570 0.0827 -0.3276
Zn1F Zn 0.32269(3) 0.23004(3) -0.08273(3)
Zn2A Zn -0.10443(3) 0.17562(3) 0.23264(3)
N2A N 0.1751(2) 0.24159(19) 0.3438(2)
N3A N -0.0451(2) 0.2198(2) 0.3333(2)
C2A C 0.2495(3) 0.2623(2) 0.3610(3)
N6A N 0.1807(2) 0.3078(2) 0.4444(2)
C3A C 0.1374(3) 0.2706(2) 0.3948(3)
N9A N -0.0660(2) 0.2579(2) 0.3887(2)
N10A N 0.0290(2) 0.2210(2) 0.3348(2)
C4A C 0.0566(3) 0.2605(2) 0.3907(3)
C6A C 0.2531(3) 0.3028(2) 0.4247(3)
C7A C 0.3192(3) 0.3304(3) 0.4560(3)
H3A H 0.3207 0.3578 0.4978
C10A C 0.3135(3) 0.2494(3) 0.3256(3)
H4A H 0.3116 0.2239 0.2820
C11A C 0.3804(3) 0.2761(3) 0.3576(3)
H5A H 0.4243 0.2677 0.3356
C20A C 0.3833(3) 0.3153(3) 0.4223(3)
H9A H 0.4293 0.3317 0.4431
C23A C 0.1574(3) 0.3478(3) 0.5056(3)
H12A H 0.1045 0.3428 0.5081
H13A H 0.1681 0.3908 0.4947
H14A H 0.1843 0.3359 0.5544
C25A C -0.0036(3) 0.2830(2) 0.4253(3)
H16A H -0.0011 0.3107 0.4668
N1F N 0.3439(2) 0.40465(19) -0.3257(2)
N5F N 0.2762(2) 0.3138(2) -0.1448(2)
N8F N 0.2379(2) 0.4608(2) -0.3463(2)
C8F C 0.2769(3) 0.4169(2) -0.3025(3)
N11F N 0.3034(2) 0.3398(2) -0.2054(2)
N12F N 0.2108(2) 0.3413(2) -0.1339(3)
C9F C 0.2552(3) 0.3844(2) -0.2348(3)
C12F C 0.2831(3) 0.4799(2) -0.4024(3)
C15F C 0.1971(3) 0.3853(3) -0.1890(3)
H6F H 0.1556 0.4118 -0.1953
C16F C 0.3494(3) 0.4442(2) -0.3887(3)
C18F C 0.2716(3) 0.5247(3) -0.4610(3)
H7F H 0.2275 0.5480 -0.4696
C19F C 0.4069(3) 0.4528(3) -0.4356(3)
H8F H 0.4511 0.4298 -0.4276
C21F C 0.3959(3) 0.4967(3) -0.4942(3)
H10F H 0.4330 0.5027 -0.5268
C22F C 0.3304(3) 0.5322(3) -0.5056(3)
H11F H 0.3260 0.5621 -0.5448
C27F C 0.1592(3) 0.4778(3) -0.3454(3)
H18F H 0.1404 0.4594 -0.3010
H19F H 0.1547 0.5227 -0.3431
H20F H 0.1307 0.4626 -0.3918
O1F O 0.3543(2) 0.1462(2) -0.0078(3)
H2F H 0.3919 0.1298 -0.0216
H26F H 0.338(4) 0.149(3) 0.030(4)
N9F N 0.4340(2) 0.2421(2) -0.1113(2)
N1A N -0.1561(2) 0.09535(19) 0.1743(2)
N11A N -0.1966(2) 0.1602(2) 0.2946(2)
Zn1A Zn -0.17731(3) 0.26996(3) 0.41727(3)
Zn2F Zn 0.39557(3) 0.32438(3) -0.26736(3)
loop_
_geom_bond_atom_site_label_1
_geom_bond_atom_site_label_2
_geom_bond_site_symmetry_1
_geom_bond_site_symmetry_2
Zn1 N4 1_555 1_555
Zn2 N1 1_555 1_555
C1 H1 1_555 1_555
N1 C8 1_555 1_555
N2 C2 1_555 1_555
N3 Zn2 1_555 1_555
N4 C5 1_555 1_555
C2 C6 1_555 1_555
N5 Zn1 1_555 1_555
O1 Zn1 1_555 1_555
H2 O1 1_555 1_555
N6 C3 1_555 1_555
C3 N2 1_555 1_555
N7 N14 1_555 1_555
N8 C8 1_555 1_555
N9 Zn1 1_555 1_555
N10 N3 1_555 1_555
C4 C3 1_555 1_555
C5 C1 1_555 1_555
C6 N6 1_555 1_555
C7 C6 1_555 1_555
H3 C7 1_555 1_555
C8 C9 1_555 1_555
N11 Zn2 1_555 1_555
O2 Zn2 1_555 1_555
N12 N5 1_555 1_555
C9 N11 1_555 1_555
C10 C2 1_555 1_555
H4 C10 1_555 1_555
N13 C13 1_555 1_555
C11 C10 1_555 1_555
H5 C11 1_555 1_555
C12 N8 1_555 1_555
C13 N4 1_555 1_555
C14 C13 1_555 1_555
C15 N12 1_555 1_555
H6 C15 1_555 1_555
N14 Zn1 1_555 1_555
C16 N1 1_555 1_555
C17 C5 1_555 1_555
C18 C12 1_555 1_555
H7 C18 1_555 1_555
C19 C16 1_555 1_555
H8 C19 1_555 1_555
C20 C7 1_555 1_555
H9 C20 1_555 1_555
C21 C19 1_555 1_555
H10 C21 1_555 1_555
C22 C18 1_555 1_555
H11 C22 1_555 1_555
C23 N6 1_555 1_555
H12 C23 1_555 1_555
H13 C23 1_555 1_555
H14 C23 1_555 1_555
C24 H15 1_555 1_555
C25 N9 1_555 1_555
H16 C25 1_555 1_555
C26 C17 1_555 1_555
H17 C26 1_555 1_555
C27 N8 1_555 1_555
H18 C27 1_555 1_555
H19 C27 1_555 1_555
H20 C27 1_555 1_555
N15 N7 1_555 1_555
C28 C14 1_555 1_555
H21 C28 1_555 1_555
C29 N13 1_555 1_555
H22 C29 1_555 1_555
H23 C29 1_555 1_555
H24 C29 1_555 1_555
C30 C1 1_555 1_555
H25 C30 1_555 1_555
O6 N16 1_555 1_555
O7 N16 1_555 1_555
N16 O2 1_555 1_555
H26 O1 1_555 1_555
N16A O2 1_555 1_555
O7A N16A 1_555 1_555
C1F H1F 1_555 1_555
N4F C5F 1_555 1_555
N7F Zn1 1_555 1_555
C5F C1F 1_555 1_555
N13F C13F 1_555 1_555
C13F N4F 1_555 1_555
C14F C13F 1_555 1_555
N14F N7F 1_555 1_555
C17F C5F 1_555 1_555
C24F H15F 1_555 1_555
C26F C17F 1_555 1_555
H17F C26F 1_555 1_555
N15F N7F 1_555 1_555
C28F C14F 1_555 1_555
H21F C28F 1_555 1_555
C29F N13F 1_555 1_555
H22F C29F 1_555 1_555
H23F C29F 1_555 1_555
H24F C29F 1_555 1_555
C30F C1F 1_555 1_555
H25F C30F 1_555 1_555
Zn1F N7 1_555 1_555
Zn2A N2 1_555 1_555
N2A Zn2 1_555 1_555
N3A Zn2A 1_555 1_555
C2A N2A 1_555 1_555
N6A C3A 1_555 1_555
C3A N2A 1_555 1_555
N9A N3A 1_555 1_555
N10A Zn2 1_555 1_555
C4A C3A 1_555 1_555
C6A C2A 1_555 1_555
C7A C6A 1_555 1_555
H3A C7A 1_555 1_555
C10A C2A 1_555 1_555
H4A C10A 1_555 1_555
C11A C10A 1_555 1_555
H5A C11A 1_555 1_555
C20A C7A 1_555 1_555
H9A C20A 1_555 1_555
C23A N6A 1_555 1_555
H12A C23A 1_555 1_555
H13A C23A 1_555 1_555
H14A C23A 1_555 1_555
C25A N9A 1_555 1_555
H16A C25A 1_555 1_555
N1F C8F 1_555 1_555
N5F Zn1F 1_555 1_555
N8F C8F 1_555 1_555
C8F C9F 1_555 1_555
N11F N5F 1_555 1_555
N12F N5F 1_555 1_555
C9F N11F 1_555 1_555
C12F N8F 1_555 1_555
C15F N12F 1_555 1_555
H6F C15F 1_555 1_555
C16F N1F 1_555 1_555
C18F C12F 1_555 1_555
H7F C18F 1_555 1_555
C19F C16F 1_555 1_555
H8F C19F 1_555 1_555
C21F C19F 1_555 1_555
H10F C21F 1_555 1_555
C22F C18F 1_555 1_555
H11F C22F 1_555 1_555
C27F N8F 1_555 1_555
H18F C27F 1_555 1_555
H19F C27F 1_555 1_555
H20F C27F 1_555 1_555
O1F Zn1F 1_555 1_555
H2F O1F 1_555 1_555
H26F O1F 1_555 1_555
N9F Zn1F 1_555 1_555
N1A Zn2A 1_555 1_555
N11A Zn2A 1_555 1_555
Zn1A N9A 1_555 1_555
Zn2F N1F 1_555 1_555
N3 N9 1_555 1_555
N5 N11 1_555 1_555
N10 C4 1_555 1_555
N10 Zn2A 1_555 1_555
C4 C25 1_555 1_555
O2 Zn2A 1_555 1_555
C9 C15 1_555 1_555
N13 C17 1_555 1_555
C11 C20 1_555 1_555
C12 C16 1_555 1_555
C14 N14 1_555 1_555
C21 C22 1_555 1_555
C24 C26 1_555 1_555
C24 C30 1_555 1_555
N15 C28 1_555 1_555
O6 N16A 1_555 1_555
N16 N16A 1_555 1_555
N4F Zn1F 1_555 1_555
N13F C17F 1_555 1_555
C14F N14F 1_555 1_555
N14F Zn1F 1_555 1_555
C24F C26F 1_555 1_555
C24F C30F 1_555 1_555
N15F C28F 1_555 1_555
N3A N10A 1_555 1_555
N6A C6A 1_555 1_555
N10A C4A 1_555 1_555
C4A C25A 1_555 1_555
C11A C20A 1_555 1_555
N11F Zn2F 1_555 1_555
C9F C15F 1_555 1_555
C12F C16F 1_555 1_555
C21F C22F 1_555 1_555

#END
