
#######################################################################
#
#                 Cambridge Crystallographic Data Centre
#                                CCDC 
#
#######################################################################
#
# If this CIF has been generated from an entry in the Cambridge 
# Structural Database, then it will include bibliographic, chemical, 
# crystal, experimental, refinement or atomic coordinate data resulting 
# from the CCDC's data processing and validation procedures.
#
#######################################################################

data_HEGZUQ
_symmetry_cell_setting           triclinic
_symmetry_space_group_name_H-M   'P -1'
_symmetry_Int_Tables_number      2
_space_group_name_Hall           '-P 1'
loop_
_symmetry_equiv_pos_site_id
_symmetry_equiv_pos_as_xyz
1 x,y,z
2 -x,-y,-z
_cell_length_a                   7.4837(5)
_cell_length_b                   9.4278(7)
_cell_length_c                   9.6933(7)
_cell_angle_alpha                117.447(8)
_cell_angle_beta                 93.143(6)
_cell_angle_gamma                99.492(6)
_cell_volume                     591.891
loop_
_atom_site_label
_atom_site_type_symbol
_atom_site_fract_x
_atom_site_fract_y
_atom_site_fract_z
Nd1 Nd 0.12082(4) 0.33977(4) 0.31767(3)
C1 C 0.4877(6) 0.2735(7) -0.0928(6)
N1 N 0.3250(5) 0.2767(5) 0.1002(5)
N2 N 0.5826(6) 0.2272(6) 0.0000(5)
H1 H 0.6873 0.2002 -0.0109
C2 C 0.3273(6) 0.3024(7) -0.0317(6)
C3 C 0.4811(7) 0.2321(7) 0.1092(7)
H2 H 0.5174 0.2060 0.1865
C4 C 0.5341(7) 0.2969(7) -0.2189(7)
H3 H 0.6454 0.2803 -0.2551
C5 C 0.2008(6) 0.3554(7) -0.0996(7)
H4 H 0.0933 0.3779 -0.0585
O1 O 0.1360(4) 0.4910(4) -0.3886(4)
O2 O -0.0377(4) 0.4655(5) -0.2249(4)
C6 C 0.4592(7) 0.3491(6) -0.4352(6)
C7 C 0.1039(7) 0.4452(6) -0.2852(6)
C8 C 0.4081(6) 0.3458(6) -0.2886(6)
O3 O 0.6210(4) 0.4190(4) -0.4304(4)
O4 O -0.0768(4) 0.1807(5) 0.0574(4)
O5 O 0.3458(4) 0.2673(4) -0.5595(4)
O6 O -0.1112(5) -0.0378(4) -0.1796(4)
C9 C 0.2403(6) 0.3737(6) -0.2306(6)
C10 C -0.0514(6) 0.0418(7) -0.0357(7)
O7 O -0.1600(5) 0.2006(5) 0.3776(5)
H5 H -0.1625 0.1381 0.4201
H6 H -0.2320 0.2649 0.4231
Nd1_2 Nd 0.12082(4) 0.33977(4) 1.31767(3)
Nd1_3 Nd 0.12082(4) 0.33977(4) -0.68233(3)
Nd1A Nd -0.12082(4) 0.66023(4) -0.31767(3)
Nd1A_2 Nd 0.87918(4) 0.66023(4) -0.31767(3)
Nd1A_3 Nd -0.12082(4) -0.33977(4) -0.31767(3)
Nd1A_4 Nd -0.12082(4) 0.66023(4) 0.68233(3)
Nd1A_5 Nd 0.87918(4) 0.66023(4) 0.68233(3)
C1_2 C 0.4877(6) 0.2735(7) 0.9072(6)
N1_2 N 0.3250(5) 0.2767(5) 1.1002(5)
N2_2 N 0.5826(6) 0.2272(6) 1.0000(5)
H1_2 H 0.6873 0.2002 0.9891
C2_2 C 0.3273(6) 0.3024(7) 0.9683(6)
C3_2 C 0.4811(7) 0.2321(7) 1.1092(7)
H2_2 H 0.5174 0.2060 1.1865
C4_2 C 0.5341(7) 0.2969(7) 0.7811(7)
H3_2 H 0.6454 0.2803 0.7449
C5_2 C 0.2008(6) 0.3554(7) 0.9004(7)
H4_2 H 0.0933 0.3779 0.9415
O1_2 O 0.1360(4) 0.4910(4) 0.6114(4)
O1A O -0.1360(4) 0.5090(4) 0.3886(4)
O1_3 O 0.1360(4) 0.4910(4) 1.6114(4)
O1A_2 O -0.1360(4) 0.5090(4) 1.3886(4)
O2_2 O -0.0377(4) 0.4655(5) 0.7751(4)
O2A O 0.0377(4) 0.5345(5) 0.2249(4)
O2A_2 O 0.0377(4) 0.5345(5) 1.2249(4)
C6_2 C 0.4592(7) 0.3491(6) 0.5648(6)
C7_2 C 0.1039(7) 0.4452(6) 0.7148(6)
C8_2 C 0.4081(6) 0.3458(6) 0.7114(6)
O3_2 O 0.6210(4) 0.4190(4) 0.5696(4)
O3A O 0.3790(4) 0.5810(4) 0.4304(4)
O3A_2 O 0.3790(4) 0.5810(4) 1.4304(4)
O4A O 0.0768(4) -0.1807(5) -0.0574(4)
O4_2 O -0.0768(4) 0.1807(5) 1.0574(4)
O5_2 O 0.3458(4) 0.2673(4) 0.4405(4)
O5_3 O 0.3458(4) 0.2673(4) 1.4405(4)
O6A O 0.1112(5) 0.0378(4) 0.1796(4)
O6A_2 O 0.1112(5) 0.0378(4) 1.1796(4)
C9_2 C 0.2403(6) 0.3737(6) 0.7694(6)
C10A C 0.0514(6) -0.0418(7) 0.0357(7)
O7_2 O -0.1600(5) 0.2006(5) 1.3776(5)
H5_2 H -0.1625 0.1381 1.4201
H6_2 H -0.2320 0.2649 1.4231
O8 O 0.1775(7) 0.9555(6) 0.4416(6)
H7 H 0.1338 0.9174 0.3444
H8 H 0.2309 1.0557 0.4734
loop_
_geom_bond_atom_site_label_1
_geom_bond_atom_site_label_2
_geom_bond_site_symmetry_1
_geom_bond_site_symmetry_2
Nd1 N1 1_555 1_555
C1 N2 1_555 1_555
N1 C2 1_555 1_555
N2 H1 1_555 1_555
C2 C1 1_555 1_555
C3 N1 1_555 1_555
H2 C3 1_555 1_555
C4 C1 1_555 1_555
H3 C4 1_555 1_555
C5 C2 1_555 1_555
H4 C5 1_555 1_555
O1 C7 1_555 1_555
O2 C7 1_555 1_555
C6 C8 1_555 1_555
C7 C9 1_555 1_555
C8 C4 1_555 1_555
O3 C6 1_555 1_555
O4 Nd1 1_555 1_555
O5 C6 1_555 1_555
O6 C10 1_555 1_555
C9 C5 1_555 1_555
C10 O4 1_555 1_555
O7 Nd1 1_555 1_555
H5 O7 1_555 1_555
H6 O7 1_555 1_555
O8 H7 1_555 1_555
H8 O8 1_555 1_555
Nd1_2 N1_2 1_555 1_555
Nd1_3 O1 1_555 1_555
Nd1A O1 1_555 1_555
Nd1A_2 O3 1_555 1_555
Nd1A_3 O6 1_555 1_555
Nd1A_4 O1_2 1_555 1_555
Nd1A_5 O3_2 1_555 1_555
C1_2 N2_2 1_555 1_555
N1_2 C2_2 1_555 1_555
N2_2 H1_2 1_555 1_555
C2_2 C1_2 1_555 1_555
C3_2 N1_2 1_555 1_555
H2_2 C3_2 1_555 1_555
C4_2 C1_2 1_555 1_555
H3_2 C4_2 1_555 1_555
C5_2 C2_2 1_555 1_555
H4_2 C5_2 1_555 1_555
O1_2 Nd1 1_555 1_555
O1A Nd1 1_555 1_555
O1_3 Nd1_2 1_555 1_555
O1A_2 Nd1_2 1_555 1_555
O2_2 Nd1A_4 1_555 1_555
O2A Nd1 1_555 1_555
O2A_2 Nd1_2 1_555 1_555
C6_2 C8_2 1_555 1_555
C7_2 O1_2 1_555 1_555
C8_2 C4_2 1_555 1_555
O3_2 C6_2 1_555 1_555
O3A Nd1 1_555 1_555
O3A_2 Nd1_2 1_555 1_555
O4A Nd1A_3 1_555 1_555
O4_2 Nd1_2 1_555 1_555
O5_2 Nd1 1_555 1_555
O5_3 Nd1_2 1_555 1_555
O6A Nd1 1_555 1_555
O6A_2 Nd1_2 1_555 1_555
C9_2 C5_2 1_555 1_555
C10A C10 1_555 1_555
O7_2 Nd1_2 1_555 1_555
H5_2 O7_2 1_555 1_555
H6_2 O7_2 1_555 1_555
N2 C3 1_555 1_555
O2 Nd1A 1_555 1_555
C8 C9 1_555 1_555
O5 Nd1_3 1_555 1_555
Nd1A_4 O1A 1_555 1_555
N2_2 C3_2 1_555 1_555
O2_2 C7_2 1_555 1_555
C6_2 O5_2 1_555 1_555
C7_2 C9_2 1_555 1_555
C8_2 C9_2 1_555 1_555
O4A C10A 1_555 1_555
O6A C10A 1_555 1_555

#END
