
#######################################################################
#
#                 Cambridge Crystallographic Data Centre
#                                CCDC 
#
#######################################################################
#
# If this CIF has been generated from an entry in the Cambridge 
# Structural Database, then it will include bibliographic, chemical, 
# crystal, experimental, refinement or atomic coordinate data resulting 
# from the CCDC's data processing and validation procedures.
#
#######################################################################

data_HEHBED01
_symmetry_cell_setting           triclinic
_symmetry_space_group_name_H-M   'P -1'
_symmetry_Int_Tables_number      2
_space_group_name_Hall           '-P 1'
loop_
_symmetry_equiv_pos_site_id
_symmetry_equiv_pos_as_xyz
1 x,y,z
2 -x,-y,-z
_cell_length_a                   7.455(4)
_cell_length_b                   9.419(5)
_cell_length_c                   9.653(5)
_cell_angle_alpha                117.833(6)
_cell_angle_beta                 93.074(7)
_cell_angle_gamma                99.235(7)
_cell_volume                     585.184
loop_
_atom_site_label
_atom_site_type_symbol
_atom_site_fract_x
_atom_site_fract_y
_atom_site_fract_z
C1 C 0.5215(12) 0.7677(10) -0.1122(9)
H1 H 0.4863 0.7936 -0.1901
C2 C 0.6727(12) 0.6966(10) 0.0321(9)
C3 C 0.5116(11) 0.7265(10) 0.0924(9)
C4 C 0.5909(11) 0.6532(10) 0.2877(9)
C5 C 0.5384(11) 0.6496(10) 0.4341(9)
C6 C 0.7612(11) 0.6242(10) 0.2296(9)
C7 C 0.8981(11) 0.5557(10) 0.2875(9)
C8 C 0.8012(11) 0.6460(10) 0.1000(9)
H2 H 0.9109 0.6272 0.0600
N1 N 0.6765(10) 0.7230(9) -0.1004(8)
N2 N 0.4172(10) 0.7725(9) 0.0000(9)
H3 H 0.3119 0.7993 0.0110
O1 O 1.0402(8) 0.5320(8) 0.2254(7)
O2 O 0.8634(8) 0.5079(7) 0.3900(6)
O3 O 0.6530(8) 0.7318(7) 0.5626(6)
O4 O 0.3780(8) 0.5800(7) 0.4310(7)
O5 O 0.0758(8) -0.1822(7) -0.0594(7)
O6 O 0.1136(6) 0.0381(5) 0.1792(5)
O7 O -0.1541(6) 0.2005(5) 0.3784(5)
H4 H -0.2365 0.2572 0.4015
H5 H -0.1055 0.2140 0.3067
Sm1 Sm 0.12204(5) 0.34004(5) 0.31744(4)
C9 C 0.4663(11) 0.7032(10) 0.2197(10)
H6 H 0.3553 0.7211 0.2573
C10 C 0.0541(11) -0.0418(10) 0.0353(10)
O6A O -0.1136(6) -0.0381(5) -0.1792(5)
C10A C -0.0541(11) 0.0418(10) -0.0353(10)
O5A O -0.0758(8) 0.1822(7) 0.0594(7)
C1A C -0.5215(12) -0.7677(10) 0.1122(9)
H1A H -0.4863 -0.7936 0.1901
C2A C -0.6727(12) -0.6966(10) -0.0321(9)
C3A C -0.5116(11) -0.7265(10) -0.0924(9)
C4A C -0.5909(11) -0.6532(10) -0.2877(9)
C5A C -0.5384(11) -0.6496(10) -0.4341(9)
C6A C -0.7612(11) -0.6242(10) -0.2296(9)
C7A C -0.8981(11) -0.5557(10) -0.2875(9)
C8A C -0.8012(11) -0.6460(10) -0.1000(9)
H2A H -0.9109 -0.6272 -0.0600
N1A N -0.6765(10) -0.7230(9) 0.1004(8)
N2A N -0.4172(10) -0.7725(9) 0.0000(9)
H3A H -0.3119 -0.7993 -0.0110
O1A O -1.0402(8) -0.5320(8) -0.2254(7)
O2A O -0.8634(8) -0.5079(7) -0.3900(6)
O3A O -0.6530(8) -0.7318(7) -0.5626(6)
O4A O -0.3780(8) -0.5800(7) -0.4310(7)
O7A O 0.1541(6) -0.2005(5) -0.3784(5)
H4A H 0.2365 -0.2572 -0.4015
H5A H 0.1055 -0.2140 -0.3067
Sm1A Sm -0.12204(5) -0.34004(5) -0.31744(4)
C9A C -0.4663(11) -0.7032(10) -0.2197(10)
H6A H -0.3553 -0.7211 -0.2573
N1_2 N -0.3235(10) -0.2770(9) -0.1004(8)
N1A_2 N 0.3235(10) 0.2770(9) 0.1004(8)
O1_2 O 0.0402(8) 0.5320(8) 0.2254(7)
O1A_2 O -0.0402(8) -0.5320(8) -0.2254(7)
O2_2 O -0.1366(8) -0.4921(7) -0.6100(6)
O2_3 O -0.1366(8) 0.5079(7) 0.3900(6)
O2A_2 O 0.1366(8) -0.5079(7) -0.3900(6)
O2A_3 O 0.1366(8) 0.4921(7) 0.6100(6)
O3_2 O -0.3470(8) -0.2682(7) -0.4374(6)
O3A_2 O 0.3470(8) 0.2682(7) 0.4374(6)
Sm1_2 Sm -0.87796(5) -0.65996(5) -0.68256(4)
Sm1_3 Sm -0.87796(5) -0.65996(5) 0.31744(4)
Sm1_4 Sm 1.12204(5) 0.34004(5) 0.31744(4)
Sm1A_2 Sm -1.12204(5) -0.34004(5) -0.31744(4)
Sm1A_3 Sm 0.87796(5) 0.65996(5) -0.31744(4)
Sm1A_4 Sm 0.87796(5) 0.65996(5) 0.68256(4)
O8 O 0.8221(6) 0.0448(5) 0.5608(5)
H7 H 0.7339(6) -0.0350(5) 0.5026(5)
H8 H 0.8666(6) 0.0804(5) 0.5014(5)
loop_
_geom_bond_atom_site_label_1
_geom_bond_atom_site_label_2
_geom_bond_site_symmetry_1
_geom_bond_site_symmetry_2
C1 H1 1_555 1_555
C2 C3 1_555 1_555
C3 N2 1_555 1_555
C4 C5 1_555 1_555
C5 O3 1_555 1_555
C6 C4 1_555 1_555
C7 C6 1_555 1_555
C8 C2 1_555 1_555
H2 C8 1_555 1_555
N1 C1 1_555 1_555
N2 C1 1_555 1_555
H3 N2 1_555 1_555
O1 C7 1_555 1_555
O2 C7 1_555 1_555
O3 Sm1A_4 1_555 1_555
O4 C5 1_555 1_555
O5 C10 1_555 1_555
O6 Sm1 1_555 1_555
O7 H4 1_555 1_555
H5 O7 1_555 1_555
Sm1 O4 1_555 1_555
C9 C3 1_555 1_555
H6 C9 1_555 1_555
C10 O6 1_555 1_555
O8 H7 1_555 1_555
H8 O8 1_555 1_555
O6A C10A 1_555 1_555
C10A C10 1_555 1_555
O5A Sm1 1_555 1_555
C1A H1A 1_555 1_555
C2A C3A 1_555 1_555
C3A N2A 1_555 1_555
C4A C5A 1_555 1_555
C5A O3A 1_555 1_555
C6A C4A 1_555 1_555
C7A C6A 1_555 1_555
C8A C2A 1_555 1_555
H2A C8A 1_555 1_555
N1A C1A 1_555 1_555
N2A C1A 1_555 1_555
H3A N2A 1_555 1_555
O1A C7A 1_555 1_555
O2A C7A 1_555 1_555
O3A Sm1_2 1_555 1_555
O4A C5A 1_555 1_555
O7A H4A 1_555 1_555
H5A O7A 1_555 1_555
Sm1A O5 1_555 1_555
C9A C3A 1_555 1_555
H6A C9A 1_555 1_555
N1_2 Sm1A 1_555 1_555
N1A_2 Sm1 1_555 1_555
O1_2 Sm1 1_555 1_555
O1A_2 Sm1A 1_555 1_555
O2_2 Sm1A 1_555 1_555
O2_3 Sm1 1_555 1_555
O2A_2 Sm1A 1_555 1_555
O2A_3 Sm1 1_555 1_555
O3_2 Sm1A 1_555 1_555
O3A_2 Sm1 1_555 1_555
Sm1_2 O2A 1_555 1_555
Sm1_3 N1A 1_555 1_555
Sm1_4 O1 1_555 1_555
Sm1A_2 O1A 1_555 1_555
Sm1A_3 N1 1_555 1_555
Sm1A_4 O2 1_555 1_555
C2 N1 1_555 1_555
C4 C9 1_555 1_555
C6 C8 1_555 1_555
O2 Sm1_4 1_555 1_555
O7 Sm1 1_555 1_555
O6A Sm1A 1_555 1_555
C10A O5A 1_555 1_555
C2A N1A 1_555 1_555
C4A C9A 1_555 1_555
C6A C8A 1_555 1_555
O2A Sm1A_2 1_555 1_555
O4A Sm1A 1_555 1_555
O7A Sm1A 1_555 1_555

#END
