
#######################################################################
#
#                 Cambridge Crystallographic Data Centre
#                                CCDC 
#
#######################################################################
#
# If this CIF has been generated from an entry in the Cambridge 
# Structural Database, then it will include bibliographic, chemical, 
# crystal, experimental, refinement or atomic coordinate data resulting 
# from the CCDC's data processing and validation procedures.
#
#######################################################################

data_HEHBIH
_symmetry_cell_setting           triclinic
_symmetry_space_group_name_H-M   'P -1'
_symmetry_Int_Tables_number      2
_space_group_name_Hall           '-P 1'
loop_
_symmetry_equiv_pos_site_id
_symmetry_equiv_pos_as_xyz
1 x,y,z
2 -x,-y,-z
_cell_length_a                   7.1757(7)
_cell_length_b                   7.5632(7)
_cell_length_c                   9.5720(9)
_cell_angle_alpha                92.3110(10)
_cell_angle_beta                 100.2990(10)
_cell_angle_gamma                98.9010(10)
_cell_volume                     503.723
loop_
_atom_site_label
_atom_site_type_symbol
_atom_site_fract_x
_atom_site_fract_y
_atom_site_fract_z
C1 C -0.0165(7) -0.0022(7) 0.0777(5)
O1 O 0.0986(5) -0.0724(5) 0.1645(4)
Eu1 Eu 0.35850(3) -0.19239(3) 0.08634(2)
C2 C 0.1867(7) -0.5848(7) 0.2182(5)
H1 H 0.1591 -0.6292 0.1235
C3 C 0.2167(7) -0.5776(7) 0.4513(5)
C4 C 0.2701(7) -0.4069(7) 0.4063(5)
C5 C 0.3370(7) -0.2636(7) 0.5066(5)
H2 H 0.3727 -0.1492 0.4779
C6 C 0.3506(7) -0.2919(7) 0.6514(5)
C7 C 0.2985(7) -0.4679(7) 0.6942(5)
C8 C 0.2322(7) -0.6118(7) 0.5932(5)
H3 H 0.1993 -0.7274 0.6205
C9 C 0.4406(7) -0.1308(7) 0.7498(5)
C10 C 0.3059(6) -0.5191(6) 0.8455(5)
N1 N 0.2527(6) -0.4150(6) 0.2585(4)
N2 N 0.1627(7) -0.6889(6) 0.3275(4)
H4 H 0.1220 -0.8025 0.3213
O2 O 0.4611(5) 0.0200(5) 0.6995(4)
O3 O 0.5079(5) -0.1430(4) -0.1174(3)
O4 O 0.2262(5) -0.4345(5) -0.0719(3)
O5 O 0.3804(5) -0.6537(5) 0.8798(4)
O6 O -0.1539(5) 0.0673(5) 0.1047(4)
C1A C 0.0165(7) 0.0022(7) -0.0777(5)
O1A O -0.0986(5) 0.0724(5) -0.1645(4)
O1_2 O 0.0986(5) -0.0724(5) -0.8355(4)
Eu1A Eu -0.35850(3) 0.19239(3) -0.08634(2)
Eu1A_2 Eu 0.64150(3) 0.19239(3) -0.08634(2)
Eu1A_3 Eu 0.64150(3) 0.19239(3) 0.91366(2)
Eu1_2 Eu 0.35850(3) -0.19239(3) 1.08634(2)
Eu1A_4 Eu 0.64150(3) -0.80761(3) 0.91366(2)
Eu1A_5 Eu 0.64150(3) -0.80761(3) -0.08634(2)
Eu1_3 Eu 0.35850(3) -0.19239(3) -0.91366(2)
C2_2 C 0.1867(7) -0.5848(7) -0.7818(5)
H1_2 H 0.1591 -0.6292 -0.8765
C3_2 C 0.2167(7) -0.5776(7) -0.5487(5)
C4_2 C 0.2701(7) -0.4069(7) -0.5937(5)
C5_2 C 0.3370(7) -0.2636(7) -0.4934(5)
H2_2 H 0.3727 -0.1492 -0.5221
C6_2 C 0.3506(7) -0.2919(7) -0.3486(5)
C7_2 C 0.2985(7) -0.4679(7) -0.3058(5)
C8_2 C 0.2322(7) -0.6118(7) -0.4068(5)
H3_2 H 0.1993 -0.7274 -0.3795
C9_2 C 0.4406(7) -0.1308(7) -0.2502(5)
C10_2 C 0.3059(6) -0.5191(6) -0.1545(5)
N1_2 N 0.2527(6) -0.4150(6) -0.7415(4)
N2_2 N 0.1627(7) -0.6889(6) -0.6725(4)
H4_2 H 0.1220 -0.8025 -0.6787
O2A O 0.5389(5) -0.0200(5) 0.3005(4)
O2_2 O 0.4611(5) 0.0200(5) -0.3005(4)
O2A_2 O 0.5389(5) -0.0200(5) -0.6995(4)
O3A O 0.4921(5) 0.1430(4) 0.1174(3)
O3_2 O 0.5079(5) -0.1430(4) 0.8826(3)
O3_3 O 0.5079(5) -0.1430(4) -1.1174(3)
O3A_2 O 0.4921(5) 0.1430(4) -0.8826(3)
O4_2 O 0.2262(5) -0.4345(5) 0.9281(3)
O4_3 O 0.2262(5) -0.4345(5) -1.0719(3)
O5A O 0.6196(5) -0.3463(5) 0.1202(4)
O5_2 O 0.3804(5) -0.6537(5) -0.1202(4)
O5A_2 O 0.6196(5) -0.3463(5) -0.8798(4)
O6A O 0.1539(5) -0.0673(5) -0.1047(4)
O6A_2 O 0.1539(5) -0.0673(5) -1.1047(4)
loop_
_geom_bond_atom_site_label_1
_geom_bond_atom_site_label_2
_geom_bond_site_symmetry_1
_geom_bond_site_symmetry_2
C1 O1 1_555 1_555
O1 Eu1 1_555 1_555
Eu1 N1 1_555 1_555
C2 H1 1_555 1_555
C3 C4 1_555 1_555
C4 C5 1_555 1_555
C5 H2 1_555 1_555
C6 C5 1_555 1_555
C7 C6 1_555 1_555
C8 C3 1_555 1_555
H3 C8 1_555 1_555
C9 C6 1_555 1_555
C10 C7 1_555 1_555
N1 C2 1_555 1_555
N2 C2 1_555 1_555
H4 N2 1_555 1_555
O2 C9 1_555 1_555
O3 Eu1 1_555 1_555
O4 Eu1 1_555 1_555
O5 C10 1_555 1_555
O6 C1 1_555 1_555
C1A C1 1_555 1_555
O1A C1A 1_555 1_555
O1_2 Eu1_3 1_555 1_555
Eu1A O6 1_555 1_555
Eu1A_2 O3 1_555 1_555
Eu1A_3 O2 1_555 1_555
Eu1_2 O3_2 1_555 1_555
Eu1A_4 O5 1_555 1_555
Eu1A_5 O5_2 1_555 1_555
Eu1_3 N1_2 1_555 1_555
C2_2 H1_2 1_555 1_555
C3_2 C4_2 1_555 1_555
C4_2 C5_2 1_555 1_555
C5_2 H2_2 1_555 1_555
C6_2 C5_2 1_555 1_555
C7_2 C6_2 1_555 1_555
C8_2 C3_2 1_555 1_555
H3_2 C8_2 1_555 1_555
C9_2 O3 1_555 1_555
C10_2 O4 1_555 1_555
N1_2 C2_2 1_555 1_555
N2_2 C2_2 1_555 1_555
H4_2 N2_2 1_555 1_555
O2A Eu1 1_555 1_555
O2_2 Eu1A_2 1_555 1_555
O2A_2 Eu1_3 1_555 1_555
O3A Eu1 1_555 1_555
O3_2 C9 1_555 1_555
O3_3 Eu1_3 1_555 1_555
O3A_2 Eu1_3 1_555 1_555
O4_2 C10 1_555 1_555
O4_3 Eu1_3 1_555 1_555
O5A Eu1 1_555 1_555
O5_2 C10_2 1_555 1_555
O5A_2 Eu1_3 1_555 1_555
O6A Eu1 1_555 1_555
O6A_2 Eu1_3 1_555 1_555
C3 N2 1_555 1_555
C4 N1 1_555 1_555
C7 C8 1_555 1_555
C1A O6A 1_555 1_555
O1A Eu1A 1_555 1_555
Eu1A_2 O3A 1_555 1_555
Eu1A_3 O3_2 1_555 1_555
Eu1_2 O4_2 1_555 1_555
C3_2 N2_2 1_555 1_555
C4_2 N1_2 1_555 1_555
C6_2 C9_2 1_555 1_555
C7_2 C8_2 1_555 1_555
C7_2 C10_2 1_555 1_555
C9_2 O2_2 1_555 1_555

#END
