
#######################################################################
#
#                 Cambridge Crystallographic Data Centre
#                                CCDC 
#
#######################################################################
#
# If this CIF has been generated from an entry in the Cambridge 
# Structural Database, then it will include bibliographic, chemical, 
# crystal, experimental, refinement or atomic coordinate data resulting 
# from the CCDC's data processing and validation procedures.
#
#######################################################################

data_HEHBAZ02
_symmetry_cell_setting           triclinic
_symmetry_space_group_name_H-M   'P -1'
_symmetry_Int_Tables_number      2
_space_group_name_Hall           '-P 1'
loop_
_symmetry_equiv_pos_site_id
_symmetry_equiv_pos_as_xyz
1 x,y,z
2 -x,-y,-z
_cell_length_a                   7.501(7)
_cell_length_b                   9.435(9)
_cell_length_c                   9.706(9)
_cell_angle_alpha                117.238(10)
_cell_angle_beta                 93.257(11)
_cell_angle_gamma                99.498(11)
_cell_volume                     595.471
loop_
_atom_site_label
_atom_site_type_symbol
_atom_site_fract_x
_atom_site_fract_y
_atom_site_fract_z
Pr1 Pr 0.12095(4) 0.83999(4) 0.31803(3)
O1 O 0.3800(5) 1.0821(5) 0.4303(5)
O2 O 0.6531(5) 1.2346(5) 0.5586(4)
O3 O 0.8621(5) 1.0093(5) 0.3880(4)
O4 O 1.0377(5) 1.0354(5) 0.2252(5)
O5 O -0.0773(5) 0.6792(5) 0.0565(4)
O6 O -0.1089(6) 0.4647(5) -0.1789(4)
O7 O -0.1624(6) 0.6983(5) 0.3773(5)
H1 H -0.1492 0.7256 0.4744
H2 H -0.2558 0.7276 0.3539
N1 N 0.6733(6) 1.2233(6) -0.0992(5)
N2 N 0.4172(6) 1.2719(6) -0.0004(6)
H3 H 0.3127 1.2987 0.0099
C1 C 0.5192(8) 1.2670(7) -0.1111(7)
H4 H 0.4834 1.2924 -0.1890
C2 C 0.6721(8) 1.1984(7) 0.0318(6)
C3 C 0.7975(7) 1.1467(7) 0.0994(6)
H5 H 0.9051 1.1254 0.0587
C4 C 0.7590(7) 1.1272(7) 0.2296(6)
C5 C 0.5922(7) 1.1551(6) 0.2876(6)
C6 C 0.4671(8) 1.2034(7) 0.2183(7)
H6 H 0.3566 1.2198 0.2552
C7 C 0.5093(8) 1.2268(7) 0.0925(7)
C8 C 0.8946(7) 1.0566(7) 0.2855(6)
C9 C 0.5402(7) 1.1520(7) 0.4340(6)
C10 C -0.0545(7) 0.5407(7) -0.0360(7)
O5A O 0.0773(5) 0.3208(5) -0.0565(4)
O6A O 0.1089(6) 0.5353(5) 0.1789(4)
C10A C 0.0545(7) 0.4593(7) 0.0360(7)
Pr1A Pr -0.12095(4) 0.16001(4) -0.31803(3)
O1A O -0.3800(5) -0.0821(5) -0.4303(5)
O2A O -0.6531(5) -0.2346(5) -0.5586(4)
O3A O -0.8621(5) -0.0093(5) -0.3880(4)
O4A O -1.0377(5) -0.0354(5) -0.2252(5)
O7A O 0.1624(6) 0.3017(5) -0.3773(5)
H1A H 0.1492 0.2744 -0.4744
H2A H 0.2558 0.2724 -0.3539
N1A N -0.6733(6) -0.2233(6) 0.0992(5)
N2A N -0.4172(6) -0.2719(6) 0.0004(6)
H3A H -0.3127 -0.2987 -0.0099
C1A C -0.5192(8) -0.2670(7) 0.1111(7)
H4A H -0.4834 -0.2924 0.1890
C2A C -0.6721(8) -0.1984(7) -0.0318(6)
C3A C -0.7975(7) -0.1467(7) -0.0994(6)
H5A H -0.9051 -0.1254 -0.0587
C4A C -0.7590(7) -0.1272(7) -0.2296(6)
C5A C -0.5922(7) -0.1551(6) -0.2876(6)
C6A C -0.4671(8) -0.2034(7) -0.2183(7)
H6A H -0.3566 -0.2198 -0.2552
C7A C -0.5093(8) -0.2268(7) -0.0925(7)
C8A C -0.8946(7) -0.0566(7) -0.2855(6)
C9A C -0.5402(7) -0.1520(7) -0.4340(6)
Pr1_2 Pr -0.87905(4) -0.16001(4) -0.68197(3)
Pr1_3 Pr -0.87905(4) -0.16001(4) 0.31803(3)
Pr1_4 Pr 1.12095(4) 0.83999(4) 0.31803(3)
Pr1A_2 Pr -1.12095(4) 0.16001(4) -0.31803(3)
Pr1A_3 Pr 0.87905(4) 1.16001(4) -0.31803(3)
Pr1A_4 Pr 0.87905(4) 1.16001(4) 0.68197(3)
O2_2 O -0.3469(5) 0.2346(5) -0.4414(4)
O2A_2 O 0.3469(5) 0.7654(5) 0.4414(4)
O3_2 O -0.1379(5) 0.0093(5) -0.6120(4)
O3_3 O -0.1379(5) 1.0093(5) 0.3880(4)
O3A_2 O 0.1379(5) -0.0093(5) -0.3880(4)
O3A_3 O 0.1379(5) 0.9907(5) 0.6120(4)
O4_2 O 0.0377(5) 1.0354(5) 0.2252(5)
O4A_2 O -0.0377(5) -0.0354(5) -0.2252(5)
N1_2 N -0.3267(6) 0.2233(6) -0.0992(5)
N1A_2 N 0.3267(6) 0.7767(6) 0.0992(5)
O8 O -0.1765(8) 0.5438(7) 0.5592(7)
H7 H -0.0965 0.5261 0.6115
H8 H -0.2442 0.5995 0.6203
loop_
_geom_bond_atom_site_label_1
_geom_bond_atom_site_label_2
_geom_bond_site_symmetry_1
_geom_bond_site_symmetry_2
Pr1 O1 1_555 1_555
O1 C9 1_555 1_555
O2 C9 1_555 1_555
O3 C8 1_555 1_555
O4 C8 1_555 1_555
O5 Pr1 1_555 1_555
O6 C10 1_555 1_555
O7 Pr1 1_555 1_555
H1 O7 1_555 1_555
H2 O7 1_555 1_555
N1 C1 1_555 1_555
N2 H3 1_555 1_555
C1 N2 1_555 1_555
H4 C1 1_555 1_555
C2 N1 1_555 1_555
C3 C2 1_555 1_555
H5 C3 1_555 1_555
C4 C3 1_555 1_555
C5 C4 1_555 1_555
C6 C5 1_555 1_555
H6 C6 1_555 1_555
C7 N2 1_555 1_555
C8 C4 1_555 1_555
C9 C5 1_555 1_555
C10 O5 1_555 1_555
O8 H7 1_555 1_555
H8 O8 1_555 1_555
O5A C10A 1_555 1_555
O6A Pr1 1_555 1_555
C10A C10 1_555 1_555
Pr1A O6 1_555 1_555
O1A Pr1A 1_555 1_555
O2A C9A 1_555 1_555
O3A C8A 1_555 1_555
O4A C8A 1_555 1_555
O7A Pr1A 1_555 1_555
H1A O7A 1_555 1_555
H2A O7A 1_555 1_555
N1A C1A 1_555 1_555
N2A H3A 1_555 1_555
C1A N2A 1_555 1_555
H4A C1A 1_555 1_555
C2A N1A 1_555 1_555
C3A C2A 1_555 1_555
H5A C3A 1_555 1_555
C4A C3A 1_555 1_555
C5A C4A 1_555 1_555
C6A C5A 1_555 1_555
H6A C6A 1_555 1_555
C7A N2A 1_555 1_555
C8A C4A 1_555 1_555
C9A O1A 1_555 1_555
Pr1_2 O2A 1_555 1_555
Pr1_3 N1A 1_555 1_555
Pr1_4 O3 1_555 1_555
Pr1A_2 O3A 1_555 1_555
Pr1A_3 N1 1_555 1_555
Pr1A_4 O2 1_555 1_555
O2_2 Pr1A 1_555 1_555
O2A_2 Pr1 1_555 1_555
O3_2 Pr1A 1_555 1_555
O3_3 Pr1 1_555 1_555
O3A_2 Pr1A 1_555 1_555
O3A_3 Pr1 1_555 1_555
O4_2 Pr1 1_555 1_555
O4A_2 Pr1A 1_555 1_555
N1_2 Pr1A 1_555 1_555
N1A_2 Pr1 1_555 1_555
O3 Pr1A_4 1_555 1_555
O4 Pr1_4 1_555 1_555
C2 C7 1_555 1_555
C6 C7 1_555 1_555
O5A Pr1A 1_555 1_555
O6A C10A 1_555 1_555
O3A Pr1_2 1_555 1_555
O4A Pr1A_2 1_555 1_555
C2A C7A 1_555 1_555
C5A C9A 1_555 1_555
C6A C7A 1_555 1_555

#END
