
#######################################################################
#
#                 Cambridge Crystallographic Data Centre
#                                CCDC 
#
#######################################################################
#
# If this CIF has been generated from an entry in the Cambridge 
# Structural Database, then it will include bibliographic, chemical, 
# crystal, experimental, refinement or atomic coordinate data resulting 
# from the CCDC's data processing and validation procedures.
#
#######################################################################

data_HEHBON
_symmetry_cell_setting           triclinic
_symmetry_space_group_name_H-M   'P -1'
_symmetry_Int_Tables_number      2
_space_group_name_Hall           '-P 1'
loop_
_symmetry_equiv_pos_site_id
_symmetry_equiv_pos_as_xyz
1 x,y,z
2 -x,-y,-z
_cell_length_a                   7.289(8)
_cell_length_b                   7.669(8)
_cell_length_c                   9.692(11)
_cell_angle_alpha                92.293(15)
_cell_angle_beta                 100.836(15)
_cell_angle_gamma                98.617(16)
_cell_volume                     524.811
loop_
_atom_site_label
_atom_site_type_symbol
_atom_site_fract_x
_atom_site_fract_y
_atom_site_fract_z
O1 O -0.101(2) 0.070(2) -0.1648(18)
Gd1 Gd -0.35901(13) 0.19172(11) -0.08584(10)
C1 C -0.178(4) 0.591(3) -0.214(2)
H1 H -0.1430 0.6348 -0.1200
C2 C -0.217(3) 0.576(3) -0.451(2)
C3 C -0.270(3) 0.404(3) -0.406(2)
C4 C -0.340(3) 0.261(3) -0.508(2)
H2 H -0.3774 0.1483 -0.4805
C5 C -0.350(3) 0.291(3) -0.650(2)
C6 C -0.297(3) 0.467(2) -0.697(2)
C7 C -0.230(3) 0.609(3) -0.591(2)
H3 H -0.1944 0.7227 -0.6166
C8 C -0.306(3) 0.519(2) -0.841(2)
C9 C -0.439(3) 0.130(2) -0.751(2)
C10 C 0.019(3) 0.004(3) -0.076(2)
N1 N -0.253(2) 0.415(2) -0.2595(18)
N2 N -0.165(3) 0.688(2) -0.326(2)
H4 H -0.1305 0.8003 -0.3225
O2 O -0.382(2) 0.6570(19) -0.8823(18)
O3 O -0.2257(19) 0.4356(19) 0.0702(15)
O4 O -0.5055(19) 0.1397(18) 0.1192(14)
O5 O -0.459(2) -0.0226(18) 0.3004(17)
O6 O -0.152(2) 0.0685(19) 0.1053(17)
O1A O 0.101(2) -0.070(2) 0.1648(18)
O1_2 O -0.101(2) 0.070(2) 0.8352(18)
Gd1A Gd -0.64099(13) 0.80828(11) -0.91416(10)
Gd1A_2 Gd -0.64099(13) -0.19172(11) 0.08584(10)
Gd1A_3 Gd -0.64099(13) 0.80828(11) 0.08584(10)
Gd1A_4 Gd 0.35901(13) -0.19172(11) 0.08584(10)
Gd1_2 Gd -0.35901(13) 0.19172(11) -1.08584(10)
Gd1A_5 Gd -0.64099(13) -0.19172(11) -0.91416(10)
Gd1_3 Gd -0.35901(13) 0.19172(11) 0.91416(10)
C1_2 C -0.178(4) 0.591(3) 0.786(2)
H1_2 H -0.1430 0.6348 0.8800
C2_2 C -0.217(3) 0.576(3) 0.549(2)
C3_2 C -0.270(3) 0.404(3) 0.594(2)
C4_2 C -0.340(3) 0.261(3) 0.492(2)
H2_2 H -0.3774 0.1483 0.5195
C5_2 C -0.350(3) 0.291(3) 0.350(2)
C6_2 C -0.297(3) 0.467(2) 0.303(2)
C7_2 C -0.230(3) 0.609(3) 0.409(2)
H3_2 H -0.1944 0.7227 0.3834
C8_2 C -0.306(3) 0.519(2) 0.159(2)
C9_2 C -0.439(3) 0.130(2) 0.249(2)
C10A C -0.019(3) -0.004(3) 0.076(2)
N1_2 N -0.253(2) 0.415(2) 0.7405(18)
N2_2 N -0.165(3) 0.688(2) 0.674(2)
H4_2 H -0.1305 0.8003 0.6775
O2A O -0.618(2) 0.3430(19) -0.1177(18)
O2_2 O -0.382(2) 0.6570(19) 0.1177(18)
O2A_2 O -0.618(2) 0.3430(19) 0.8823(18)
O3_2 O -0.2257(19) 0.4356(19) -0.9298(15)
O3_3 O -0.2257(19) 0.4356(19) 1.0702(15)
O4A O -0.4945(19) -0.1397(18) -0.1192(14)
O4_2 O -0.5055(19) 0.1397(18) -0.8808(14)
O4_3 O -0.5055(19) 0.1397(18) 1.1192(14)
O4A_2 O -0.4945(19) -0.1397(18) 0.8808(14)
O5A O -0.541(2) 0.0226(18) -0.3004(17)
O5_2 O -0.459(2) -0.0226(18) -0.6996(17)
O5A_2 O -0.541(2) 0.0226(18) 0.6996(17)
O6A O 0.152(2) -0.0685(19) -0.1053(17)
O6_2 O -0.152(2) 0.0685(19) 1.1053(17)
loop_
_geom_bond_atom_site_label_1
_geom_bond_atom_site_label_2
_geom_bond_site_symmetry_1
_geom_bond_site_symmetry_2
O1 Gd1 1_555 1_555
Gd1 N1 1_555 1_555
C1 H1 1_555 1_555
C2 C3 1_555 1_555
C3 C4 1_555 1_555
C4 H2 1_555 1_555
C5 C4 1_555 1_555
C6 C5 1_555 1_555
C7 C2 1_555 1_555
H3 C7 1_555 1_555
C8 C6 1_555 1_555
C9 C5 1_555 1_555
C10 O1 1_555 1_555
N1 C1 1_555 1_555
N2 C1 1_555 1_555
H4 N2 1_555 1_555
O2 C8 1_555 1_555
O3 Gd1 1_555 1_555
O4 Gd1 1_555 1_555
O5 Gd1A_2 1_555 1_555
O6 Gd1 1_555 1_555
O1A Gd1A_4 1_555 1_555
O1_2 Gd1_3 1_555 1_555
Gd1A O2 1_555 1_555
Gd1A_2 O4 1_555 1_555
Gd1A_3 O2_2 1_555 1_555
Gd1A_4 O6A 1_555 1_555
Gd1_2 O3_2 1_555 1_555
Gd1A_5 O4_2 1_555 1_555
Gd1_3 N1_2 1_555 1_555
C1_2 H1_2 1_555 1_555
C2_2 C3_2 1_555 1_555
C3_2 C4_2 1_555 1_555
C4_2 H2_2 1_555 1_555
C5_2 C4_2 1_555 1_555
C6_2 C5_2 1_555 1_555
C7_2 C2_2 1_555 1_555
H3_2 C7_2 1_555 1_555
C8_2 O3 1_555 1_555
C9_2 O4 1_555 1_555
C10A C10 1_555 1_555
N1_2 C1_2 1_555 1_555
N2_2 C1_2 1_555 1_555
H4_2 N2_2 1_555 1_555
O2A Gd1 1_555 1_555
O2_2 C8_2 1_555 1_555
O2A_2 Gd1_3 1_555 1_555
O3_2 C8 1_555 1_555
O3_3 Gd1_3 1_555 1_555
O4A Gd1 1_555 1_555
O4_2 C9 1_555 1_555
O4_3 Gd1_3 1_555 1_555
O4A_2 Gd1_3 1_555 1_555
O5A Gd1 1_555 1_555
O5_2 C9 1_555 1_555
O5A_2 Gd1_3 1_555 1_555
O6A C10 1_555 1_555
O6_2 Gd1_3 1_555 1_555
C2 N2 1_555 1_555
C3 N1 1_555 1_555
C6 C7 1_555 1_555
O5 C9_2 1_555 1_555
O6 C10A 1_555 1_555
O1A C10A 1_555 1_555
Gd1A_2 O4A 1_555 1_555
Gd1_2 O4_2 1_555 1_555
Gd1A_5 O5_2 1_555 1_555
C2_2 N2_2 1_555 1_555
C3_2 N1_2 1_555 1_555
C5_2 C9_2 1_555 1_555
C6_2 C7_2 1_555 1_555
C6_2 C8_2 1_555 1_555

#END
