
#######################################################################
#
#                 Cambridge Crystallographic Data Centre
#                                CCDC 
#
#######################################################################
#
# If this CIF has been generated from an entry in the Cambridge 
# Structural Database, then it will include bibliographic, chemical, 
# crystal, experimental, refinement or atomic coordinate data resulting 
# from the CCDC's data processing and validation procedures.
#
#######################################################################

data_HEHBED
_symmetry_cell_setting           triclinic
_symmetry_space_group_name_H-M   'P -1'
_symmetry_Int_Tables_number      2
_space_group_name_Hall           '-P 1'
loop_
_symmetry_equiv_pos_site_id
_symmetry_equiv_pos_as_xyz
1 x,y,z
2 -x,-y,-z
_cell_length_a                   7.4648(3)
_cell_length_b                   9.4113(4)
_cell_length_c                   9.6456(4)
_cell_angle_alpha                117.818(4)
_cell_angle_beta                 93.105(3)
_cell_angle_gamma                99.297(3)
_cell_volume                     584.901
loop_
_atom_site_label
_atom_site_type_symbol
_atom_site_fract_x
_atom_site_fract_y
_atom_site_fract_z
O1 O -0.3864(3) 0.0389(3) 0.1803(3)
Sm1 Sm -0.37818(2) 0.33993(2) 0.317520(18)
C1 C -0.4456(4) -0.0411(4) 0.0360(4)
C2 C -0.0384(5) 0.3515(4) -0.4358(4)
C3 C -0.0918(4) 0.3470(4) -0.2887(4)
C4 C 0.0339(5) 0.2971(5) -0.2196(4)
H1 H 0.1452 0.2800 -0.2567
C5 C -0.0113(4) 0.2735(5) -0.0932(4)
C6 C -0.1751(4) 0.3030(4) -0.0318(4)
C7 C -0.3012(5) 0.3542(4) -0.1002(4)
H2 H -0.4101 0.3745 -0.0598
C8 C -0.2616(4) 0.3746(4) -0.2303(4)
C9 C -0.3969(4) 0.4463(4) -0.2866(4)
C10 C -0.0209(5) 0.2333(5) 0.1124(4)
H3 H 0.0144 0.2085 0.1912
N1 N -0.1761(4) 0.2771(4) 0.0996(3)
N2 N 0.0823(4) 0.2277(4) 0.0008(3)
H4 H 0.1873 0.2005 -0.0099
O2 O -0.5766(3) 0.1827(3) 0.0589(3)
O3 O 0.1227(3) 0.4193(3) -0.4308(3)
O4 O -0.1526(3) 0.2688(3) 0.4381(3)
O5 O -0.3634(3) 0.4925(3) 0.6106(3)
O6 O -0.5407(3) 0.4674(3) 0.7749(3)
O7 O -0.6536(3) 0.2017(3) 0.3780(3)
H5 H -0.7428 0.2518 0.4056
H6 H -0.6596 0.1393 0.4209
O1A O -0.6136(3) -0.0389(3) -0.1803(3)
O1_2 O -0.3864(3) 0.0389(3) 1.1803(3)
Sm1A Sm 0.37818(2) 0.66007(2) -0.317520(18)
Sm1A_2 Sm -0.62182(2) 0.66007(2) 0.682480(18)
Sm1A_3 Sm -0.62182(2) -0.33993(2) -0.317520(18)
Sm1A_4 Sm 0.37818(2) 0.66007(2) 0.682480(18)
Sm1A_5 Sm -0.62182(2) 0.66007(2) -0.317520(18)
Sm1_2 Sm -0.37818(2) 0.33993(2) 1.317520(18)
Sm1_3 Sm -0.37818(2) 0.33993(2) -0.682480(18)
C1A C -0.5544(4) 0.0411(4) -0.0360(4)
C2_2 C -0.0384(5) 0.3515(4) 0.5642(4)
C3_2 C -0.0918(4) 0.3470(4) 0.7113(4)
C4_2 C 0.0339(5) 0.2971(5) 0.7804(4)
H1_2 H 0.1452 0.2800 0.7433
C5_2 C -0.0113(4) 0.2735(5) 0.9068(4)
C6_2 C -0.1751(4) 0.3030(4) 0.9682(4)
C7_2 C -0.3012(5) 0.3542(4) 0.8998(4)
H2_2 H -0.4101 0.3745 0.9402
C8_2 C -0.2616(4) 0.3746(4) 0.7697(4)
C9_2 C -0.3969(4) 0.4463(4) 0.7134(4)
C10_2 C -0.0209(5) 0.2333(5) 1.1124(4)
H3_2 H 0.0144 0.2085 1.1912
N1_2 N -0.1761(4) 0.2771(4) 1.0996(3)
N2_2 N 0.0823(4) 0.2277(4) 1.0008(3)
H4_2 H 0.1873 0.2005 0.9901
O2A O -0.4234(3) -0.1827(3) -0.0589(3)
O2_2 O -0.5766(3) 0.1827(3) 1.0589(3)
O3A O -0.1227(3) 0.5807(3) 0.4308(3)
O3_2 O 0.1227(3) 0.4193(3) 0.5692(3)
O3A_2 O -0.1227(3) 0.5807(3) 1.4308(3)
O4_2 O -0.1526(3) 0.2688(3) -0.5619(3)
O4_3 O -0.1526(3) 0.2688(3) 1.4381(3)
O5A O -0.6366(3) 0.5075(3) 0.3894(3)
O5_2 O -0.3634(3) 0.4925(3) -0.3894(3)
O5_3 O -0.3634(3) 0.4925(3) 1.6106(3)
O5A_2 O -0.6366(3) 0.5075(3) 1.3894(3)
O6A O -0.4593(3) 0.5326(3) 0.2251(3)
O6_2 O -0.5407(3) 0.4674(3) -0.2251(3)
O6A_2 O -0.4593(3) 0.5326(3) 1.2251(3)
O7_2 O -0.6536(3) 0.2017(3) 1.3780(3)
H5_2 H -0.7428 0.2518 1.4056
H6_2 H -0.6596 0.1393 1.4209
O8 O -0.6768(5) -0.9563(5) -0.4423(4)
H7 H -0.6340 -0.9395 -0.3501
H8 H -0.7700 -1.0369 -0.4764
loop_
_geom_bond_atom_site_label_1
_geom_bond_atom_site_label_2
_geom_bond_site_symmetry_1
_geom_bond_site_symmetry_2
O1 Sm1 1_555 1_555
Sm1 N1 1_555 1_555
C1 O1 1_555 1_555
C2 C3 1_555 1_555
C3 C4 1_555 1_555
C4 H1 1_555 1_555
C5 C4 1_555 1_555
C6 C5 1_555 1_555
C7 C6 1_555 1_555
H2 C7 1_555 1_555
C8 C3 1_555 1_555
C9 C8 1_555 1_555
C10 H3 1_555 1_555
N1 C6 1_555 1_555
N2 C5 1_555 1_555
H4 N2 1_555 1_555
O2 Sm1 1_555 1_555
O3 C2 1_555 1_555
O4 Sm1 1_555 1_555
O5 Sm1 1_555 1_555
O6 Sm1A_2 1_555 1_555
O7 Sm1 1_555 1_555
H5 O7 1_555 1_555
H6 O7 1_555 1_555
O8 H7 1_555 1_555
H8 O8 1_555 1_555
O1A Sm1A_3 1_555 1_555
O1_2 Sm1_2 1_555 1_555
Sm1A O3 1_555 1_555
Sm1A_2 O5 1_555 1_555
Sm1A_3 O2A 1_555 1_555
Sm1A_4 O3_2 1_555 1_555
Sm1A_5 O5_2 1_555 1_555
Sm1_2 N1_2 1_555 1_555
Sm1_3 O4_2 1_555 1_555
C1A C1 1_555 1_555
C2_2 O4 1_555 1_555
C3_2 C2_2 1_555 1_555
C4_2 C3_2 1_555 1_555
H1_2 C4_2 1_555 1_555
C5_2 C4_2 1_555 1_555
C6_2 C5_2 1_555 1_555
C7_2 C6_2 1_555 1_555
H2_2 C7_2 1_555 1_555
C8_2 C3_2 1_555 1_555
C9_2 O5 1_555 1_555
C10_2 H3_2 1_555 1_555
N1_2 C6_2 1_555 1_555
N2_2 C5_2 1_555 1_555
H4_2 N2_2 1_555 1_555
O2A C1 1_555 1_555
O2_2 Sm1_2 1_555 1_555
O3A Sm1 1_555 1_555
O3_2 C2_2 1_555 1_555
O3A_2 Sm1_2 1_555 1_555
O4_2 C2 1_555 1_555
O4_3 Sm1_2 1_555 1_555
O5A Sm1 1_555 1_555
O5_2 C9 1_555 1_555
O5_3 Sm1_2 1_555 1_555
O5A_2 Sm1_2 1_555 1_555
O6A Sm1 1_555 1_555
O6_2 C9 1_555 1_555
O6A_2 Sm1_2 1_555 1_555
O7_2 Sm1_2 1_555 1_555
H5_2 O7_2 1_555 1_555
H6_2 O7_2 1_555 1_555
C7 C8 1_555 1_555
C10 N1 1_555 1_555
C10 N2 1_555 1_555
O2 C1A 1_555 1_555
O6 C9_2 1_555 1_555
O1A C1A 1_555 1_555
Sm1A_2 O5A 1_555 1_555
Sm1A_5 O6_2 1_555 1_555
Sm1_3 O5_2 1_555 1_555
C7_2 C8_2 1_555 1_555
C8_2 C9_2 1_555 1_555
C10_2 N1_2 1_555 1_555
C10_2 N2_2 1_555 1_555

#END
