
#######################################################################
#
#                 Cambridge Crystallographic Data Centre
#                                CCDC 
#
#######################################################################
#
# If this CIF has been generated from an entry in the Cambridge 
# Structural Database, then it will include bibliographic, chemical, 
# crystal, experimental, refinement or atomic coordinate data resulting 
# from the CCDC's data processing and validation procedures.
#
#######################################################################

data_HEHBAZ
_symmetry_cell_setting           triclinic
_symmetry_space_group_name_H-M   'P -1'
_symmetry_Int_Tables_number      2
_space_group_name_Hall           '-P 1'
loop_
_symmetry_equiv_pos_site_id
_symmetry_equiv_pos_as_xyz
1 x,y,z
2 -x,-y,-z
_cell_length_a                   7.4977(6)
_cell_length_b                   9.4460(8)
_cell_length_c                   9.7287(8)
_cell_angle_alpha                117.2760(10)
_cell_angle_beta                 93.2040(10)
_cell_angle_gamma                99.5560(10)
_cell_volume                     597.023
loop_
_atom_site_label
_atom_site_type_symbol
_atom_site_fract_x
_atom_site_fract_y
_atom_site_fract_z
Pr1 Pr -0.12102(3) -0.33967(3) -0.31778(3)
C1 C -0.4816(8) -0.2328(7) -0.1118(7)
H1 H -0.5172 -0.2078 -0.1897
C2 C -0.4905(8) -0.2737(7) -0.9070(6)
C3 C -0.3302(8) -0.3031(6) -0.9686(6)
C4 C -0.2008(7) -0.3533(7) -0.9007(6)
H2 H -0.0921 -0.3723 -0.9404
C5 C -0.2410(7) -0.3740(7) -0.7704(6)
C6 C -0.4079(7) -0.3450(6) -0.7116(6)
C7 C -0.5349(8) -0.2965(7) -0.7809(7)
H3 H -0.6456 -0.2798 -0.7443
C8 C -0.1046(7) -0.4443(6) -0.7157(6)
C9 C -0.4609(7) -0.3486(7) -0.5660(6)
C10 C -0.0526(7) 0.0411(7) -0.0367(6)
N1 N -0.3263(7) -0.2774(6) -0.0991(5)
N2 N -0.5836(7) -0.2273(6) 0.0001(6)
H4 H -0.6878 -0.1999 0.0111
O1 O 0.0372(6) -0.4658(5) 0.2239(5)
O2 O -0.1385(5) -0.4905(5) -0.6115(4)
O3 O -0.3459(5) -0.2649(5) -0.4410(4)
O4 O -0.6202(5) -0.4192(5) -0.5705(5)
O5 O -0.1094(6) -0.0361(5) -0.1791(4)
O6 O -0.0767(5) 0.1802(5) 0.0567(5)
O7 O 0.1634(7) -0.2005(6) -0.3790(6)
H5 H 0.2312 -0.2672 -0.4278
H6 H 0.1744 -0.1313 -0.4141
Pr1A Pr 0.12102(3) -0.66033(3) -0.68222(3)
Pr1A_2 Pr 0.12102(3) -0.66033(3) 0.31778(3)
Pr1A_3 Pr 0.12102(3) 0.33967(3) 0.31778(3)
Pr1_2 Pr -0.12102(3) -0.33967(3) 0.68222(3)
Pr1A_4 Pr -0.87898(3) -0.66033(3) -0.68222(3)
Pr1_3 Pr -0.12102(3) -0.33967(3) -1.31778(3)
Pr1A_5 Pr -0.87898(3) -0.66033(3) 0.31778(3)
C1_2 C -0.4816(8) -0.2328(7) -1.1118(7)
H1_2 H -0.5172 -0.2078 -1.1897
C2_2 C -0.4905(8) -0.2737(7) 0.0930(6)
C3_2 C -0.3302(8) -0.3031(6) 0.0314(6)
C4_2 C -0.2008(7) -0.3533(7) 0.0993(6)
H2_2 H -0.0921 -0.3723 0.0596
C5_2 C -0.2410(7) -0.3740(7) 0.2296(6)
C6_2 C -0.4079(7) -0.3450(6) 0.2884(6)
C7_2 C -0.5349(8) -0.2965(7) 0.2191(7)
H3_2 H -0.6456 -0.2798 0.2557
C8_2 C -0.1046(7) -0.4443(6) 0.2843(6)
C9_2 C -0.4609(7) -0.3486(7) 0.4340(6)
C10A C 0.0526(7) -0.0411(7) 0.0367(6)
N1_2 N -0.3263(7) -0.2774(6) -1.0991(5)
N2_2 N -0.5836(7) -0.2273(6) -0.9999(6)
H4_2 H -0.6878 -0.1999 -0.9889
O1_2 O 0.0372(6) -0.4658(5) -0.7761(5)
O1A O -0.0372(6) -0.5342(5) -0.2239(5)
O1A_2 O -0.0372(6) -0.5342(5) -1.2239(5)
O2A O 0.1385(5) -0.5095(5) -0.3885(4)
O2_2 O -0.1385(5) -0.4905(5) 0.3885(4)
O2A_2 O 0.1385(5) -0.5095(5) -1.3885(4)
O2_3 O -0.1385(5) -0.4905(5) -1.6115(4)
O3_2 O -0.3459(5) -0.2649(5) 0.5590(4)
O3_3 O -0.3459(5) -0.2649(5) -1.4410(4)
O4A O -0.3798(5) -0.5808(5) -0.4295(5)
O4A_2 O -0.3798(5) -0.5808(5) -1.4295(5)
O4_2 O -0.6202(5) -0.4192(5) 0.4295(5)
O5A O 0.1094(6) 0.0361(5) 0.1791(4)
O5_2 O -0.1094(6) -0.0361(5) -1.1791(4)
O6A O 0.0767(5) -0.1802(5) -0.0567(5)
O6A_2 O 0.0767(5) -0.1802(5) -1.0567(5)
O7_2 O 0.1634(7) -0.2005(6) -1.3790(6)
H5_2 H 0.2312 -0.2672 -1.4278
H6_2 H 0.1744 -0.1313 -1.4141
O8 O 0.1766(11) -0.0449(8) 0.4413(8)
H7 H 0.1195 -0.0867 0.3469
H8 H 0.2584 0.0353 0.4547
loop_
_geom_bond_atom_site_label_1
_geom_bond_atom_site_label_2
_geom_bond_site_symmetry_1
_geom_bond_site_symmetry_2
Pr1 N1 1_555 1_555
C1 H1 1_555 1_555
C2 C3 1_555 1_555
C3 C4 1_555 1_555
C4 H2 1_555 1_555
C5 C4 1_555 1_555
C6 C5 1_555 1_555
C7 C2 1_555 1_555
H3 C7 1_555 1_555
C8 C5 1_555 1_555
C9 C6 1_555 1_555
C10 O5 1_555 1_555
N1 C1 1_555 1_555
N2 C1 1_555 1_555
H4 N2 1_555 1_555
O1 Pr1A_2 1_555 1_555
O2 Pr1 1_555 1_555
O3 Pr1 1_555 1_555
O4 C9 1_555 1_555
O5 Pr1 1_555 1_555
O6 C10 1_555 1_555
O7 Pr1 1_555 1_555
H5 O7 1_555 1_555
H6 O7 1_555 1_555
O8 H7 1_555 1_555
H8 O8 1_555 1_555
Pr1A O2 1_555 1_555
Pr1A_2 O2_2 1_555 1_555
Pr1A_3 O6 1_555 1_555
Pr1_2 O2_2 1_555 1_555
Pr1A_4 O4 1_555 1_555
Pr1_3 N1_2 1_555 1_555
Pr1A_5 O4_2 1_555 1_555
C1_2 H1_2 1_555 1_555
C2_2 N2 1_555 1_555
C3_2 N1 1_555 1_555
C4_2 C3_2 1_555 1_555
H2_2 C4_2 1_555 1_555
C5_2 C4_2 1_555 1_555
C6_2 C5_2 1_555 1_555
C7_2 C2_2 1_555 1_555
H3_2 C7_2 1_555 1_555
C8_2 O1 1_555 1_555
C9_2 C6_2 1_555 1_555
C10A C10 1_555 1_555
N1_2 C3 1_555 1_555
N2_2 C2 1_555 1_555
H4_2 N2_2 1_555 1_555
O1_2 C8 1_555 1_555
O1A Pr1 1_555 1_555
O1A_2 Pr1_3 1_555 1_555
O2A Pr1 1_555 1_555
O2_2 C8_2 1_555 1_555
O2A_2 Pr1_3 1_555 1_555
O2_3 Pr1_3 1_555 1_555
O3_2 Pr1_2 1_555 1_555
O3_3 Pr1_3 1_555 1_555
O4A Pr1 1_555 1_555
O4A_2 Pr1_3 1_555 1_555
O4_2 C9_2 1_555 1_555
O5A Pr1A_3 1_555 1_555
O5_2 Pr1_3 1_555 1_555
O6A Pr1 1_555 1_555
O6A_2 Pr1_3 1_555 1_555
O7_2 Pr1_3 1_555 1_555
H5_2 O7_2 1_555 1_555
H6_2 O7_2 1_555 1_555
C6 C7 1_555 1_555
C8 O2 1_555 1_555
C9 O3 1_555 1_555
Pr1A O1_2 1_555 1_555
Pr1A O2A 1_555 1_555
C1_2 N1_2 1_555 1_555
C1_2 N2_2 1_555 1_555
C2_2 C3_2 1_555 1_555
C5_2 C8_2 1_555 1_555
C6_2 C7_2 1_555 1_555
C9_2 O3_2 1_555 1_555
C10A O5A 1_555 1_555
C10A O6A 1_555 1_555

#END
