
#######################################################################
#
#                 Cambridge Crystallographic Data Centre
#                                CCDC 
#
#######################################################################
#
# If this CIF has been generated from an entry in the Cambridge 
# Structural Database, then it will include bibliographic, chemical, 
# crystal, experimental, refinement or atomic coordinate data resulting 
# from the CCDC's data processing and validation procedures.
#
#######################################################################

data_HEHBAZ01
_symmetry_cell_setting           triclinic
_symmetry_space_group_name_H-M   'P -1'
_symmetry_Int_Tables_number      2
_space_group_name_Hall           '-P 1'
loop_
_symmetry_equiv_pos_site_id
_symmetry_equiv_pos_as_xyz
1 x,y,z
2 -x,-y,-z
_cell_length_a                   7.505(4)
_cell_length_b                   9.458(5)
_cell_length_c                   9.717(5)
_cell_angle_alpha                117.327(6)
_cell_angle_beta                 93.201(6)
_cell_angle_gamma                99.552(6)
_cell_volume                     597.365
loop_
_atom_site_label
_atom_site_type_symbol
_atom_site_fract_x
_atom_site_fract_y
_atom_site_fract_z
Pr1 Pr 0.62070(5) 0.83973(5) 0.81775(4)
O1 O 0.3621(6) 1.0096(6) 0.8881(5)
O2 O 0.5375(7) 1.0346(7) 0.7243(6)
O3 O -0.1191(6) 1.0816(6) 0.9299(6)
O4 O 0.6090(7) 0.5367(6) 0.6793(5)
O5 O 0.1529(5) 1.2349(5) 1.0593(4)
O6 O 0.3380(5) 0.7008(5) 0.8797(4)
H1 H 0.2735 0.7683 0.9300
H2 H 0.3352 0.6393 0.9220
N1 N -0.0834(8) 1.2731(8) 0.4998(7)
N2 N 0.1745(8) 1.2228(8) 0.3999(7)
C1 C 0.2590(9) 1.1259(8) 0.7292(8)
C2 C 0.0916(9) 1.1539(9) 0.7883(8)
C3 C -0.0342(9) 1.2036(9) 0.7188(8)
C4 C 0.2972(10) 1.1459(10) 0.5998(9)
C5 C 0.0393(9) 1.1509(8) 0.9332(8)
C6 C 0.3941(9) 1.0557(8) 0.7854(7)
C7 C 0.1712(9) 1.1976(9) 0.5314(8)
C8 C 0.0098(9) 1.2265(9) 0.5932(8)
C9 C 0.0194(10) 1.2663(10) 0.3881(9)
C10 C 0.5554(7) 0.4616(6) 0.5378(6)
H3 H -0.009(10) 1.279(9) 0.310(9)
H4 H -0.171(11) 1.230(9) 0.765(9)
H5 H 0.397(12) 1.129(10) 0.572(10)
O7 O 0.5778(6) 0.3199(6) 0.4436(6)
H6 H -0.200(13) 1.280(11) 0.490(11)
O4A O 0.3910(7) 0.4633(6) 0.3207(5)
C10A C 0.4446(7) 0.5384(6) 0.4622(6)
O7A O 0.4222(6) 0.6801(6) 0.5564(6)
Pr1A Pr 0.37930(5) 0.16027(5) 0.18225(4)
O1A O 0.6379(6) -0.0096(6) 0.1119(5)
O2A O 0.4625(7) -0.0346(7) 0.2757(6)
O3A O 1.1191(6) -0.0816(6) 0.0701(6)
O5A O 0.8471(5) -0.2349(5) -0.0593(4)
O6A O 0.6620(5) 0.2992(5) 0.1203(4)
H1A H 0.7265 0.2317 0.0700
H2A H 0.6648 0.3607 0.0780
N1A N 1.0834(8) -0.2731(8) 0.5002(7)
N2A N 0.8255(8) -0.2228(8) 0.6001(7)
C1A C 0.7410(9) -0.1259(8) 0.2708(8)
C2A C 0.9084(9) -0.1539(9) 0.2117(8)
C3A C 1.0342(9) -0.2036(9) 0.2812(8)
C4A C 0.7028(10) -0.1459(10) 0.4002(9)
C5A C 0.9607(9) -0.1509(8) 0.0668(8)
C6A C 0.6059(9) -0.0557(8) 0.2146(7)
C7A C 0.8288(9) -0.1976(9) 0.4686(8)
C8A C 0.9902(9) -0.2265(9) 0.4068(8)
C9A C 0.9806(10) -0.2663(10) 0.6119(9)
H3A H 1.009(10) -0.279(9) 0.690(9)
H4A H 1.171(11) -0.230(9) 0.235(9)
H5A H 0.603(12) -0.129(10) 0.428(10)
H6A H 1.200(13) -0.280(11) 0.510(11)
Pr1_2 Pr -0.37930(5) 0.83973(5) 0.81775(4)
Pr1_3 Pr 0.62070(5) -0.16027(5) -0.18225(4)
Pr1_4 Pr 0.62070(5) -0.16027(5) 0.81775(4)
Pr1A_2 Pr 0.37930(5) 1.16027(5) 0.18225(4)
Pr1A_3 Pr 0.37930(5) 1.16027(5) 1.18225(4)
Pr1A_4 Pr 1.37930(5) 0.16027(5) 0.18225(4)
O1_2 O 0.3621(6) 0.0096(6) -0.1119(5)
O1A_2 O 0.6379(6) 0.9904(6) 1.1119(5)
O3_2 O 0.8809(6) 1.0816(6) 0.9299(6)
O3A_2 O 0.1191(6) -0.0816(6) 0.0701(6)
O5_2 O 0.1529(5) 0.2349(5) 0.0593(4)
O5A_2 O 0.8471(5) 0.7651(5) 0.9407(4)
N2_2 N 0.1745(8) 0.2228(8) 0.3999(7)
N2A_2 N 0.8255(8) 0.7772(8) 0.6001(7)
O8 O 0.3215(7) 0.5448(6) 0.0595(6)
H7 H 0.2352 0.4675 0.0101
H8 H 0.4029 0.5193 0.0970
loop_
_geom_bond_atom_site_label_1
_geom_bond_atom_site_label_2
_geom_bond_site_symmetry_1
_geom_bond_site_symmetry_2
Pr1 O1 1_555 1_555
O1 C6 1_555 1_555
O2 Pr1 1_555 1_555
O3 C5 1_555 1_555
O4 Pr1 1_555 1_555
O5 C5 1_555 1_555
O6 Pr1 1_555 1_555
H1 O6 1_555 1_555
H2 O6 1_555 1_555
N1 C8 1_555 1_555
N2 C7 1_555 1_555
C1 C2 1_555 1_555
C2 C3 1_555 1_555
C3 C8 1_555 1_555
C4 C1 1_555 1_555
C5 C2 1_555 1_555
C6 O2 1_555 1_555
C7 C4 1_555 1_555
C8 C7 1_555 1_555
C9 N1 1_555 1_555
C10 O4 1_555 1_555
H3 C9 1_555 1_555
H4 C3 1_555 1_555
H5 C4 1_555 1_555
O7 C10 1_555 1_555
H6 N1 1_555 1_555
O8 H7 1_555 1_555
H8 O8 1_555 1_555
O4A C10A 1_555 1_555
C10A C10 1_555 1_555
O7A Pr1 1_555 1_555
Pr1A O7 1_555 1_555
O1A Pr1A 1_555 1_555
O2A Pr1A 1_555 1_555
O3A C5A 1_555 1_555
O5A C5A 1_555 1_555
O6A Pr1A 1_555 1_555
H1A O6A 1_555 1_555
H2A O6A 1_555 1_555
N1A C8A 1_555 1_555
N2A C7A 1_555 1_555
C1A C2A 1_555 1_555
C2A C3A 1_555 1_555
C3A C8A 1_555 1_555
C4A C1A 1_555 1_555
C5A C2A 1_555 1_555
C6A O1A 1_555 1_555
C7A C4A 1_555 1_555
C8A C7A 1_555 1_555
C9A N1A 1_555 1_555
H3A C9A 1_555 1_555
H4A C3A 1_555 1_555
H5A C4A 1_555 1_555
H6A N1A 1_555 1_555
Pr1_2 O3 1_555 1_555
Pr1_3 O1A 1_555 1_555
Pr1_4 N2A 1_555 1_555
Pr1A_2 N2 1_555 1_555
Pr1A_3 O1 1_555 1_555
Pr1A_4 O3A 1_555 1_555
O1_2 Pr1A 1_555 1_555
O1A_2 Pr1 1_555 1_555
O3_2 Pr1 1_555 1_555
O3A_2 Pr1A 1_555 1_555
O5_2 Pr1A 1_555 1_555
O5A_2 Pr1 1_555 1_555
N2_2 Pr1A 1_555 1_555
N2A_2 Pr1 1_555 1_555
O5 Pr1A_3 1_555 1_555
N2 C9 1_555 1_555
C1 C6 1_555 1_555
O4A Pr1A 1_555 1_555
C10A O7A 1_555 1_555
O2A C6A 1_555 1_555
O5A Pr1_3 1_555 1_555
N2A C9A 1_555 1_555
C1A C6A 1_555 1_555
Pr1_3 O1_2 1_555 1_555
Pr1A_3 O1A_2 1_555 1_555

#END
