
#######################################################################
#
#                 Cambridge Crystallographic Data Centre
#                                CCDC 
#
#######################################################################
#
# If this CIF has been generated from an entry in the Cambridge 
# Structural Database, then it will include bibliographic, chemical, 
# crystal, experimental, refinement or atomic coordinate data resulting 
# from the CCDC's data processing and validation procedures.
#
#######################################################################

data_HEHGEI
_symmetry_cell_setting           orthorhombic
_symmetry_space_group_name_H-M   'P n n a'
_symmetry_Int_Tables_number      52
_space_group_name_Hall           '-P 2a 2bc'
loop_
_symmetry_equiv_pos_site_id
_symmetry_equiv_pos_as_xyz
1 x,y,z
2 1/2-x,-y,z
3 1/2-x,1/2+y,1/2-z
4 x,1/2-y,1/2-z
5 -x,-y,-z
6 1/2+x,y,-z
7 1/2+x,1/2-y,1/2+z
8 -x,1/2+y,1/2+z
_cell_length_a                   15.2398(15)
_cell_length_b                   14.1399(13)
_cell_length_c                   10.9549(10)
_cell_angle_alpha                90
_cell_angle_beta                 90
_cell_angle_gamma                90
_cell_volume                     2360.66
loop_
_atom_site_label
_atom_site_type_symbol
_atom_site_fract_x
_atom_site_fract_y
_atom_site_fract_z
Tm1 Tm 0.57479(2) 0.11030(2) -0.57794(3)
O1 O 0.5368(3) 0.0043(4) -0.3898(5)
O2 O 0.6206(5) 0.1288(4) -0.3714(5)
C1 C 0.5846(5) 0.0561(5) -0.3254(6)
C2 C 0.6014(5) 0.0328(5) -0.1948(6)
C3 C 0.6420(5) -0.0836(5) -0.0434(7)
C4 C 0.6236(5) -0.0595(5) -0.1654(7)
H1 H 0.6262 -0.1054 -0.2261
N1 N 0.6671(4) -0.1773(4) -0.0158(6)
H2 H 0.6207 -0.2152 -0.0225
H3 H 0.7086 -0.1959 -0.0676
C5 C 0.5951(5) 0.1015(5) -0.1043(7)
H4 H 0.5828 0.1640 -0.1245
C6 C 0.6074(5) 0.0752(5) 0.0170(6)
C7 C 0.6296(5) -0.0166(5) 0.0466(7)
H5 H 0.6362 -0.0335 0.1281
O4 O 0.7306(4) 0.1210(4) -0.5911(6)
O5 O 0.6429(3) -0.0401(4) -0.5991(5)
O6 O 0.4501(4) 0.1752(4) -0.5093(8)
C8 C 0.7745(5) 0.0466(5) -0.5954(7)
O7 O 0.5831(4) 0.1175(4) 0.2223(5)
O8 O 0.5972(4) 0.2334(4) 0.0879(5)
C9 C 0.5947(4) 0.1473(4) 0.1161(6)
H8 H 0.4152 0.1406 -0.4687
H9 H 0.4270 0.2286 -0.4976
Tm1D Tm 0.42521(2) -0.11030(2) -0.42206(3)
Tm1A Tm 0.92521(2) -0.11030(2) -0.57794(3)
Tm1_2 Tm 0.57479(2) 0.11030(2) 0.42206(3)
Tm1C Tm 0.57479(2) 0.38970(2) 0.07794(3)
Tm1D_2 Tm 0.42521(2) -0.11030(2) -1.42206(3)
Tm1G Tm 0.42521(2) -0.38970(2) -1.07794(3)
O1D O 0.4632(3) -0.0043(4) -0.6102(5)
O1A O 0.9632(3) -0.0043(4) -0.3898(5)
O1E O 1.0368(3) 0.0043(4) -0.6102(5)
O2D O 0.3794(5) -0.1288(4) -0.6286(5)
O2A O 0.8794(5) -0.1288(4) -0.3714(5)
C1D C 0.4154(5) -0.0561(5) -0.6746(6)
C2D C 0.3986(5) -0.0328(5) -0.8052(6)
C3D C 0.3580(5) 0.0836(5) -0.9566(7)
C4D C 0.3764(5) 0.0595(5) -0.8346(7)
H1D H 0.3738 0.1054 -0.7739
N1D N 0.3329(4) 0.1773(4) -0.9842(6)
H2D H 0.3793 0.2152 -0.9775
H3D H 0.2914 0.1959 -0.9324
C5D C 0.4049(5) -0.1015(5) -0.8957(7)
H4D H 0.4172 -0.1640 -0.8755
C6D C 0.3926(5) -0.0752(5) -1.0170(6)
C7D C 0.3704(5) 0.0166(5) -1.0466(7)
H5D H 0.3638 0.0335 -1.1281
O4A O 0.7694(4) -0.1210(4) -0.5911(6)
O5A O 0.8571(3) 0.0401(4) -0.5991(5)
O6A O 1.0499(4) -0.1752(4) -0.5093(8)
C8A C 0.7255(5) -0.0466(5) -0.5954(7)
O7_2 O 0.5831(4) 0.1175(4) -0.7777(5)
O7A O 0.9169(4) -0.1175(4) -0.7777(5)
O7D O 0.4169(4) -0.1175(4) -1.2223(5)
O8C O 0.5972(4) 0.2666(4) -0.5879(5)
O8B O 0.9028(4) -0.2666(4) -0.5879(5)
O8D O 0.4028(4) -0.2334(4) -1.0879(5)
C9D C 0.4053(4) -0.1473(4) -1.1161(6)
H8A H 1.0848 -0.1406 -0.4687
H9A H 1.0730 -0.2286 -0.4976
O3 O -0.2435(5) 0.7500 -0.2500
H6? H -0.206(12) 0.791(14) -0.271(17)
H7? H -0.216(12) 0.711(14) -0.205(17)
H10? H -0.1877 0.1798 0.0602
loop_
_geom_bond_atom_site_label_1
_geom_bond_atom_site_label_2
_geom_bond_site_symmetry_1
_geom_bond_site_symmetry_2
Tm1 O1 1_555 1_555
O1 C1 1_555 1_555
O2 Tm1 1_555 1_555
C1 O2 1_555 1_555
C2 C1 1_555 1_555
C3 C4 1_555 1_555
C4 C2 1_555 1_555
H1 C4 1_555 1_555
N1 C3 1_555 1_555
H2 N1 1_555 1_555
H3 N1 1_555 1_555
C5 C2 1_555 1_555
H4 C5 1_555 1_555
C6 C5 1_555 1_555
C7 C3 1_555 1_555
H5 C7 1_555 1_555
O4 Tm1 1_555 1_555
O5 Tm1 1_555 1_555
O6 Tm1 1_555 1_555
C8 O4 1_555 1_555
O7 C9 1_555 1_555
O8 C9 1_555 1_555
C9 C6 1_555 1_555
H8 O6 1_555 1_555
H9 O6 1_555 1_555
Tm1D O1 1_555 1_555
Tm1A O1A 1_555 1_555
Tm1_2 O7 1_555 1_555
Tm1C O8 1_555 1_555
Tm1D_2 O7D 1_555 1_555
Tm1G O8D 1_555 1_555
O1D Tm1 1_555 1_555
O1E Tm1A 1_555 1_555
O2D Tm1D 1_555 1_555
O2A Tm1A 1_555 1_555
C1D O1D 1_555 1_555
C2D C1D 1_555 1_555
C3D C4D 1_555 1_555
C4D C2D 1_555 1_555
H1D C4D 1_555 1_555
N1D C3D 1_555 1_555
H2D N1D 1_555 1_555
H3D N1D 1_555 1_555
C5D C2D 1_555 1_555
H4D C5D 1_555 1_555
C6D C5D 1_555 1_555
C7D C3D 1_555 1_555
H5D C7D 1_555 1_555
O4A Tm1A 1_555 1_555
O5A C8 1_555 1_555
O6A Tm1A 1_555 1_555
C8A O5 1_555 1_555
O7_2 Tm1 1_555 1_555
O7A Tm1A 1_555 1_555
O7D C9D 1_555 1_555
O8C Tm1 1_555 1_555
O8B Tm1A 1_555 1_555
O8D C9D 1_555 1_555
C9D C6D 1_555 1_555
H8A O6A 1_555 1_555
H9A O6A 1_555 1_555
C6 C7 1_555 1_555
C8 C8A 1_555 1_555
Tm1D O1D 1_555 1_555
Tm1A O5A 1_555 1_555
O2D C1D 1_555 1_555
C6D C7D 1_555 1_555
O4A C8A 1_555 1_555

#END
