
#######################################################################
#
#                 Cambridge Crystallographic Data Centre
#                                CCDC 
#
#######################################################################
#
# If this CIF has been generated from an entry in the Cambridge 
# Structural Database, then it will include bibliographic, chemical, 
# crystal, experimental, refinement or atomic coordinate data resulting 
# from the CCDC's data processing and validation procedures.
#
#######################################################################

data_HEHGOS
_symmetry_cell_setting           monoclinic
_symmetry_space_group_name_H-M   'C 2/c'
_symmetry_Int_Tables_number      15
_space_group_name_Hall           '-C 2yn'
loop_
_symmetry_equiv_pos_site_id
_symmetry_equiv_pos_as_xyz
1 x,y,z
2 -x,y,1/2-z
3 1/2+x,1/2+y,z
4 1/2-x,1/2+y,1/2-z
5 -x,-y,-z
6 x,-y,1/2+z
7 1/2-x,1/2-y,-z
8 1/2+x,1/2-y,1/2+z
_cell_length_a                   20.028(4)
_cell_length_b                   9.4862(17)
_cell_length_c                   13.641(2)
_cell_angle_alpha                90
_cell_angle_beta                 118.179(2)
_cell_angle_gamma                90
_cell_volume                     2284.48
loop_
_atom_site_label
_atom_site_type_symbol
_atom_site_fract_x
_atom_site_fract_y
_atom_site_fract_z
Gd1 Gd 0.13266(2) 0.43731(4) 0.18531(3)
O1 O 0.0153(3) 0.3125(6) 0.1444(5)
O2 O 0.1106(3) 0.1716(6) 0.1781(5)
O3 O 0.2083(3) 0.6202(6) 0.3235(5)
C1 C 0.2350(4) 0.7217(8) 0.2942(7)
C2 C -0.0108(5) 0.0668(8) 0.1235(6)
C3 C 0.0429(4) 0.1899(9) 0.1519(6)
C4 C 0.0139(5) -0.0707(8) 0.1269(7)
C5 C -0.0381(4) -0.1825(8) 0.0951(6)
C6 C -0.1359(4) -0.0179(8) 0.0652(6)
C7 C -0.0869(5) 0.0934(8) 0.0909(6)
N1 N -0.2160(4) 0.0110(8) 0.0318(6)
H1 H -0.2447 -0.0167 -0.0381
H2 H -0.2223 0.1030 0.0372
H3 H -0.2295 -0.0359 0.0762
C8 C -0.1132(5) -0.1542(9) 0.0657(7)
O4 O 0.1889(3) 0.6165(6) 0.1162(5)
C9 C 0.2270(4) 0.7161(8) 0.1763(6)
O5 O 0.2599(3) 0.8102(7) 0.1512(5)
C10 C -0.0160(4) -0.3301(8) 0.0833(6)
O6 O -0.0693(3) -0.4067(6) 0.0113(5)
O7 O 0.0509(3) -0.3677(6) 0.1425(5)
H4 H -0.107(5) 0.179(9) 0.082(7)
H5 H 0.067(5) -0.091(8) 0.155(7)
H6 H -0.144(6) -0.211(11) 0.050(8)
O8 O 0.2689(3) 0.8273(6) 0.3533(5)
O9 O 0.1063(3) 0.4375(6) 0.3437(5)
H7 H 0.1268 0.4448 0.4140
H8 H 0.0662 0.3944 0.3325
Gd1C Gd 0.36734(2) 0.93731(4) 0.31469(3)
Gd1D Gd -0.13266(2) -0.43731(4) -0.18531(3)
Gd1_2 Gd 0.13266(2) -0.56269(4) 0.18531(3)
O5C O 0.2401(3) 0.3102(7) 0.3488(5)
O6D O 0.0693(3) 0.4067(6) -0.0113(5)
O7_2 O 0.0509(3) 0.6323(6) 0.1425(5)
O8C O 0.2311(3) 0.3273(6) 0.1467(5)
loop_
_geom_bond_atom_site_label_1
_geom_bond_atom_site_label_2
_geom_bond_site_symmetry_1
_geom_bond_site_symmetry_2
Gd1 O1 1_555 1_555
O1 C3 1_555 1_555
O2 Gd1 1_555 1_555
O3 Gd1 1_555 1_555
C1 O3 1_555 1_555
C2 C3 1_555 1_555
C3 O2 1_555 1_555
C4 C2 1_555 1_555
C5 C4 1_555 1_555
C6 C7 1_555 1_555
C7 C2 1_555 1_555
N1 C6 1_555 1_555
H1 N1 1_555 1_555
H2 N1 1_555 1_555
H3 N1 1_555 1_555
C8 C5 1_555 1_555
O4 Gd1 1_555 1_555
C9 C1 1_555 1_555
O5 C9 1_555 1_555
C10 C5 1_555 1_555
O6 C10 1_555 1_555
O7 C10 1_555 1_555
H4 C7 1_555 1_555
H5 C4 1_555 1_555
H6 C8 1_555 1_555
O8 C1 1_555 1_555
O9 Gd1 1_555 1_555
H7 O9 1_555 1_555
H8 O9 1_555 1_555
Gd1C O5 1_555 1_555
Gd1D O6 1_555 1_555
Gd1_2 O7 1_555 1_555
O5C Gd1 1_555 1_555
O6D Gd1 1_555 1_555
O7_2 Gd1 1_555 1_555
O8C Gd1 1_555 1_555
C6 C8 1_555 1_555
O4 C9 1_555 1_555
O8 Gd1C 1_555 1_555

#END
