
#######################################################################
#
#                 Cambridge Crystallographic Data Centre
#                                CCDC 
#
#######################################################################
#
# If this CIF has been generated from an entry in the Cambridge 
# Structural Database, then it will include bibliographic, chemical, 
# crystal, experimental, refinement or atomic coordinate data resulting 
# from the CCDC's data processing and validation procedures.
#
#######################################################################

data_HEHGAE
_symmetry_cell_setting           monoclinic
_symmetry_space_group_name_H-M   'C 2/c'
_symmetry_Int_Tables_number      15
_space_group_name_Hall           '-C 2yn'
loop_
_symmetry_equiv_pos_site_id
_symmetry_equiv_pos_as_xyz
1 x,y,z
2 -x,y,1/2-z
3 1/2+x,1/2+y,z
4 1/2-x,1/2+y,1/2-z
5 -x,-y,-z
6 x,-y,1/2+z
7 1/2-x,1/2-y,-z
8 1/2+x,1/2-y,1/2+z
_cell_length_a                   20.131(2)
_cell_length_b                   9.6911(10)
_cell_length_c                   13.7382(15)
_cell_angle_alpha                90
_cell_angle_beta                 117.6020(10)
_cell_angle_gamma                90
_cell_volume                     2375.17
loop_
_atom_site_label
_atom_site_type_symbol
_atom_site_fract_x
_atom_site_fract_y
_atom_site_fract_z
Ce1 Ce 0.131117(9) 0.437914(16) 0.183207(14)
O1 O 0.01291(12) 0.3065(2) 0.1422(2)
O2 O 0.10816(13) 0.1684(2) 0.1783(2)
O3 O 0.20770(12) 0.6232(2) 0.32417(19)
C1 C 0.23458(16) 0.7236(3) 0.2958(3)
C2 C -0.01278(18) 0.0665(3) 0.1222(3)
C3 C 0.04003(18) 0.1865(3) 0.1500(3)
C4 C 0.01202(18) -0.0682(3) 0.1267(3)
C5 C -0.03943(17) -0.1772(3) 0.0946(3)
C6 C -0.13758(16) -0.0165(3) 0.0622(3)
C7 C -0.08858(18) 0.0935(3) 0.0881(3)
N1 N -0.21704(14) 0.0109(3) 0.0268(2)
H1 H -0.2449 -0.0378 -0.0335
H2 H -0.2263 0.1004 0.0124
H3 H -0.2283 -0.0134 0.0799
C8 C -0.11430(17) -0.1503(3) 0.0641(3)
O4 O 0.19257(13) 0.6189(2) 0.11950(19)
C9 C 0.22800(16) 0.7186(3) 0.1795(3)
O5 O 0.25984(12) 0.8126(2) 0.15415(19)
C10 C -0.01694(17) -0.3226(3) 0.0852(3)
O6 O -0.06859(12) -0.4010(2) 0.01731(19)
O7 O 0.04941(12) -0.3584(2) 0.1425(2)
H4 H -0.1066(16) 0.187(3) 0.082(3)
H5 H 0.0664(18) -0.082(3) 0.152(3)
H6 H -0.1509(19) -0.228(3) 0.043(3)
O8 O 0.26709(12) 0.8263(2) 0.35397(19)
H7 H 0.1097 0.4918 0.3968
H8 H 0.0661 0.3922 0.3410
O9 O 0.10421(13) 0.4361(2) 0.3457(2)
Ce1C Ce 0.368883(9) 0.937914(16) 0.316793(14)
Ce1D Ce -0.131117(9) -0.437914(16) -0.183207(14)
Ce1_2 Ce 0.131117(9) -0.562086(16) 0.183207(14)
O5C O 0.24016(12) 0.3126(2) 0.34585(19)
O6D O 0.06859(12) 0.4010(2) -0.01731(19)
O7_2 O 0.04941(12) 0.6416(2) 0.1425(2)
O8C O 0.23291(12) 0.3263(2) 0.14603(19)
loop_
_geom_bond_atom_site_label_1
_geom_bond_atom_site_label_2
_geom_bond_site_symmetry_1
_geom_bond_site_symmetry_2
Ce1 O1 1_555 1_555
O1 C3 1_555 1_555
O2 Ce1 1_555 1_555
O3 Ce1 1_555 1_555
C1 O3 1_555 1_555
C2 C3 1_555 1_555
C3 O2 1_555 1_555
C4 C2 1_555 1_555
C5 C4 1_555 1_555
C6 C7 1_555 1_555
C7 C2 1_555 1_555
N1 C6 1_555 1_555
H1 N1 1_555 1_555
H2 N1 1_555 1_555
H3 N1 1_555 1_555
C8 C5 1_555 1_555
O4 Ce1 1_555 1_555
C9 C1 1_555 1_555
O5 C9 1_555 1_555
C10 C5 1_555 1_555
O6 C10 1_555 1_555
O7 C10 1_555 1_555
H4 C7 1_555 1_555
H5 C4 1_555 1_555
H6 C8 1_555 1_555
O8 C1 1_555 1_555
H7 O9 1_555 1_555
H8 O9 1_555 1_555
O9 Ce1 1_555 1_555
Ce1C O5 1_555 1_555
Ce1D O6 1_555 1_555
Ce1_2 O7 1_555 1_555
O5C Ce1 1_555 1_555
O6D Ce1 1_555 1_555
O7_2 Ce1 1_555 1_555
O8C Ce1 1_555 1_555
C6 C8 1_555 1_555
O4 C9 1_555 1_555
O8 Ce1C 1_555 1_555

#END
