
#######################################################################
#
#                 Cambridge Crystallographic Data Centre
#                                CCDC 
#
#######################################################################
#
# If this CIF has been generated from an entry in the Cambridge 
# Structural Database, then it will include bibliographic, chemical, 
# crystal, experimental, refinement or atomic coordinate data resulting 
# from the CCDC's data processing and validation procedures.
#
#######################################################################

data_HEHGIM
_symmetry_cell_setting           monoclinic
_symmetry_space_group_name_H-M   'C 2/c'
_symmetry_Int_Tables_number      15
_space_group_name_Hall           '-C 2yn'
loop_
_symmetry_equiv_pos_site_id
_symmetry_equiv_pos_as_xyz
1 x,y,z
2 -x,y,1/2-z
3 1/2+x,1/2+y,z
4 1/2-x,1/2+y,1/2-z
5 -x,-y,-z
6 x,-y,1/2+z
7 1/2-x,1/2-y,-z
8 1/2+x,1/2-y,1/2+z
_cell_length_a                   20.033(2)
_cell_length_b                   9.5239(11)
_cell_length_c                   13.6374(15)
_cell_angle_alpha                90
_cell_angle_beta                 117.9940(10)
_cell_angle_gamma                90
_cell_volume                     2297.48
loop_
_atom_site_label
_atom_site_type_symbol
_atom_site_fract_x
_atom_site_fract_y
_atom_site_fract_z
Sm1 Sm 0.132275(9) 0.437160(18) 0.184858(14)
O1 O 0.01501(14) 0.3106(3) 0.1443(2)
O2 O 0.11018(15) 0.1706(3) 0.1781(2)
O3 O 0.20802(14) 0.6209(3) 0.3236(2)
C1 C 0.23513(19) 0.7222(4) 0.2948(3)
C2 C -0.0112(2) 0.0666(4) 0.1233(3)
C3 C 0.0417(2) 0.1889(4) 0.1508(3)
C4 C 0.0131(2) -0.0707(4) 0.1267(3)
C5 C -0.03824(19) -0.1811(4) 0.0952(3)
C6 C -0.13616(19) -0.0172(4) 0.0652(3)
C7 C -0.0869(2) 0.0943(4) 0.0905(3)
N1 N -0.21581(16) 0.0112(3) 0.0312(3)
H1 H -0.2442 -0.0217 -0.0371
H2 H -0.2228 0.1034 0.0319
H3 H -0.2289 -0.0307 0.0780
C8 C -0.11370(19) -0.1531(4) 0.0655(3)
O4 O 0.18945(14) 0.6171(3) 0.1166(2)
C9 C 0.22699(18) 0.7170(4) 0.1773(3)
O5 O 0.25981(14) 0.8110(3) 0.1523(2)
C10 C -0.01681(19) -0.3286(4) 0.0835(3)
O6 O -0.06889(14) -0.4056(3) 0.0125(2)
O7 O 0.05022(14) -0.3657(3) 0.1427(2)
O8 O 0.26840(14) 0.8273(3) 0.3530(2)
O9 O 0.10590(16) 0.4364(3) 0.3448(2)
H4 H 0.0686 0.3912 0.3424
H5 H 0.1157 0.4875 0.4010
H6 H -0.1477 -0.2286 0.0507
H7 H -0.1029 0.1864 0.0827
H8 H 0.0666 -0.0836 0.1495
Sm1C Sm 0.367725(9) 0.937160(18) 0.315142(14)
Sm1D Sm -0.132275(9) -0.437160(18) -0.184858(14)
Sm1_2 Sm 0.132275(9) -0.562840(18) 0.184858(14)
O5C O 0.24019(14) 0.3110(3) 0.3477(2)
O6D O 0.06889(14) 0.4056(3) -0.0125(2)
O7_2 O 0.05022(14) 0.6343(3) 0.1427(2)
O8C O 0.23160(14) 0.3273(3) 0.1470(2)
loop_
_geom_bond_atom_site_label_1
_geom_bond_atom_site_label_2
_geom_bond_site_symmetry_1
_geom_bond_site_symmetry_2
Sm1 O1 1_555 1_555
O1 C3 1_555 1_555
O2 Sm1 1_555 1_555
O3 Sm1 1_555 1_555
C1 O3 1_555 1_555
C2 C3 1_555 1_555
C3 O2 1_555 1_555
C4 C2 1_555 1_555
C5 C4 1_555 1_555
C6 C7 1_555 1_555
C7 C2 1_555 1_555
N1 C6 1_555 1_555
H1 N1 1_555 1_555
H2 N1 1_555 1_555
H3 N1 1_555 1_555
C8 C5 1_555 1_555
O4 Sm1 1_555 1_555
C9 C1 1_555 1_555
O5 C9 1_555 1_555
C10 C5 1_555 1_555
O6 C10 1_555 1_555
O7 C10 1_555 1_555
O8 C1 1_555 1_555
O9 Sm1 1_555 1_555
H4 O9 1_555 1_555
H5 O9 1_555 1_555
H6 C8 1_555 1_555
H7 C7 1_555 1_555
H8 C4 1_555 1_555
Sm1C O5 1_555 1_555
Sm1D O6 1_555 1_555
Sm1_2 O7 1_555 1_555
O5C Sm1 1_555 1_555
O6D Sm1 1_555 1_555
O7_2 Sm1 1_555 1_555
O8C Sm1 1_555 1_555
C6 C8 1_555 1_555
O4 C9 1_555 1_555
O8 Sm1C 1_555 1_555

#END
