
#######################################################################
#
#                 Cambridge Crystallographic Data Centre
#                                CCDC 
#
#######################################################################
#
# If this CIF has been generated from an entry in the Cambridge 
# Structural Database, then it will include bibliographic, chemical, 
# crystal, experimental, refinement or atomic coordinate data resulting 
# from the CCDC's data processing and validation procedures.
#
#######################################################################

data_HEHHEH
_symmetry_cell_setting           monoclinic
_symmetry_space_group_name_H-M   'C 2/c'
_symmetry_Int_Tables_number      15
_space_group_name_Hall           '-C 2yn'
loop_
_symmetry_equiv_pos_site_id
_symmetry_equiv_pos_as_xyz
1 x,y,z
2 1/2+x,1/2+y,z
3 -x,y,1/2-z
4 1/2-x,1/2+y,1/2-z
5 -x,-y,-z
6 1/2-x,1/2-y,-z
7 x,-y,1/2+z
8 1/2+x,1/2-y,1/2+z
_cell_length_a                   24.555(8)
_cell_length_b                   7.239(2)
_cell_length_c                   8.348(3)
_cell_angle_alpha                90
_cell_angle_beta                 106.16(4)
_cell_angle_gamma                90
_cell_volume                     1425.26
loop_
_atom_site_label
_atom_site_type_symbol
_atom_site_fract_x
_atom_site_fract_y
_atom_site_fract_z
Cd1 Cd -0.2500 0.2500 0.0000
N1 N -0.3377(10) 0.070(3) -0.098(3)
C1 C -0.3836(12) 0.123(4) -0.211(3)
H1 H -0.3895(12) 0.268(4) -0.238(3)
C2 C -0.4244(13) 0.004(5) -0.297(4)
H2 H -0.4615(13) 0.055(5) -0.389(4)
C3 C -0.4178(12) -0.183(5) -0.266(4)
C4 C -0.3718(11) -0.239(6) -0.147(3)
H3 H -0.3661(11) -0.384(6) -0.115(3)
C5 C -0.3320(13) -0.112(5) -0.066(4)
H4 H -0.2947(13) -0.161(5) 0.027(4)
C6 C -0.4546(14) -0.314(5) -0.367(4)
C7 C -0.4842(13) -0.436(5) -0.453(4)
C8 C -0.2240(11) 0.066(4) 0.224(3)
N2 N -0.2133(11) -0.025(3) 0.341(3)
N1E N -0.1623(10) 0.430(3) 0.098(3)
C8E C -0.2760(11) 0.434(4) -0.224(3)
N2C N -0.2867(11) 0.475(3) 0.159(3)
C7D C -0.5158(13) -0.564(5) -0.547(4)
N2F N -0.2133(11) 0.025(3) -0.159(3)
N2E N -0.2867(11) 0.525(3) -0.341(3)
C6D C -0.5454(14) -0.686(5) -0.633(4)
Cd1C Cd -0.2500 -0.2500 0.5000
Cd1C_2 Cd -0.2500 0.7500 -0.5000
C3D C -0.5822(12) -0.817(5) -0.734(4)
C2D C -0.5756(13) -1.004(5) -0.703(4)
C4D C -0.6282(11) -0.761(6) -0.853(3)
C1D C -0.6164(12) -1.123(4) -0.789(3)
H2D H -0.5385(13) -1.055(5) -0.611(4)
H3D H -0.6339(11) -0.616(6) -0.885(3)
C5D C -0.6680(13) -0.888(5) -0.934(4)
N1D N -0.6623(10) -1.070(3) -0.902(3)
H1D H -0.6105(12) -1.268(4) -0.762(3)
H4D H -0.7053(13) -0.839(5) -1.027(4)
Cd1A Cd -0.7500 -1.2500 -1.0000
loop_
_geom_bond_atom_site_label_1
_geom_bond_atom_site_label_2
_geom_bond_site_symmetry_1
_geom_bond_site_symmetry_2
Cd1 N1 1_555 1_555
N1 C1 1_555 1_555
C1 H1 1_555 1_555
C2 C1 1_555 1_555
H2 C2 1_555 1_555
C3 C2 1_555 1_555
C4 C3 1_555 1_555
H3 C4 1_555 1_555
C5 N1 1_555 1_555
H4 C5 1_555 1_555
C6 C3 1_555 1_555
C7 C6 1_555 1_555
C8 Cd1 1_555 1_555
N2 C8 1_555 1_555
N1E Cd1 1_555 1_555
C8E Cd1 1_555 1_555
N2C Cd1 1_555 1_555
C7D C7 1_555 1_555
N2F Cd1 1_555 1_555
N2E C8E 1_555 1_555
C6D C7D 1_555 1_555
Cd1C N2 1_555 1_555
Cd1C_2 N2E 1_555 1_555
C3D C6D 1_555 1_555
C2D C3D 1_555 1_555
C4D C3D 1_555 1_555
C1D C2D 1_555 1_555
H2D C2D 1_555 1_555
H3D C4D 1_555 1_555
C5D C4D 1_555 1_555
N1D C1D 1_555 1_555
H1D C1D 1_555 1_555
H4D C5D 1_555 1_555
Cd1A N1D 1_555 1_555
C4 C5 1_555 1_555
C5D N1D 1_555 1_555

#END
