
#######################################################################
#
#                 Cambridge Crystallographic Data Centre
#                                CCDC 
#
#######################################################################
#
# If this CIF has been generated from an entry in the Cambridge 
# Structural Database, then it will include bibliographic, chemical, 
# crystal, experimental, refinement or atomic coordinate data resulting 
# from the CCDC's data processing and validation procedures.
#
#######################################################################

data_HEHHIN
_symmetry_cell_setting           monoclinic
_symmetry_space_group_name_H-M   'P 21'
_symmetry_Int_Tables_number      4
_space_group_name_Hall           'P 2yb'
loop_
_symmetry_equiv_pos_site_id
_symmetry_equiv_pos_as_xyz
1 x,y,z
2 -x,1/2+y,-z
_cell_length_a                   9.5372(2)
_cell_length_b                   13.4522(3)
_cell_length_c                   17.3294(3)
_cell_angle_alpha                90
_cell_angle_beta                 97.569(2)
_cell_angle_gamma                90
_cell_volume                     2203.93
loop_
_atom_site_label
_atom_site_type_symbol
_atom_site_fract_x
_atom_site_fract_y
_atom_site_fract_z
Yb1 Yb 0.94552(3) 1.04410(2) 0.787375(19)
Yb2 Yb 0.46031(3) 0.95527(2) 0.755684(18)
Ag1 Ag 0.29360(9) 0.60563(7) 0.71785(4)
Ag2 Ag 1.28229(12) 0.88799(9) 1.25730(5)
S1 S 0.6197(2) 0.71697(16) 0.77557(14)
S2 S 1.3449(3) 1.31825(18) 0.70603(15)
O1 O 0.6914(6) 0.9375(4) 0.8156(3)
O2 O 0.9055(6) 0.9145(4) 0.8746(3)
O3 O 0.5118(7) 0.7898(5) 0.7460(4)
O4 O 0.5710(7) 0.6175(5) 0.7600(4)
O5 O 0.7524(7) 0.7385(5) 0.7490(4)
O6 O 1.3081(6) 1.0794(4) 0.7250(3)
O7 O 1.0771(5) 1.0750(5) 0.6872(3)
O8 O 1.3724(8) 1.4199(5) 0.6878(4)
O9 O 1.4773(8) 1.2690(6) 0.7367(5)
O10 O 1.2386(9) 1.3061(6) 0.7551(5)
O11 O 0.7695(6) 1.0933(5) 0.6986(3)
O12 O 0.5712(6) 1.0115(5) 0.6600(3)
O13 O 0.8358(6) 1.1132(5) 0.8856(3)
O14 O 0.9397(7) 1.2546(5) 0.9285(4)
O15 O 1.3507(6) 0.9252(5) 0.8579(3)
O16 O 1.1533(6) 1.0125(5) 0.8575(3)
O17 O 0.0992(7) 0.8117(5) 0.6361(4)
O18 O 0.3010(6) 0.8918(5) 0.6639(3)
O19 O 0.9182(7) 0.9019(5) 0.7136(4)
H1 H 0.8681 0.8528 0.7244
H2 H 0.9772 0.8728 0.6885
O20 O 1.0075(7) 1.2087(5) 0.7939(4)
H3 H 1.0814 1.2397 0.7815
H4 H 0.9848 1.2241 0.8394
O21 O 0.5352(6) 1.1005(4) 0.8251(3)
H5 H 0.5171 1.1525 0.7977
H6 H 0.6226 1.1041 0.8428
C1 C 0.7787(9) 0.8925(6) 0.8645(5)
C2 C 0.7267(8) 0.8103(6) 0.9118(4)
C3 C 0.6451(9) 0.7329(5) 0.8778(5)
C4 C 0.5892(10) 0.6648(7) 0.9246(5)
H7 H 0.5370 0.6115 0.9019
C5 C 0.6094(10) 0.6742(7) 1.0045(5)
H8 H 0.5651 0.6305 1.0351
C6 C 0.6953(10) 0.7482(6) 1.0386(5)
H9 H 0.7126 0.7534 1.0925
C7 C 0.7556(9) 0.8148(7) 0.9924(4)
H10 H 0.8165 0.8635 1.0154
C8 C 1.2004(8) 1.1031(6) 0.6808(5)
C9 C 1.2204(8) 1.1666(6) 0.6107(5)
C10 C 1.2812(9) 1.2608(7) 0.6164(6)
C11 C 1.2932(10) 1.3134(8) 0.5484(6)
H11 H 1.3286 1.3778 0.5518
C12 C 1.2539(11) 1.2719(10) 0.4767(6)
H12 H 1.2670 1.3070 0.4320
C13 C 1.1950(10) 1.1785(9) 0.4707(6)
H13 H 1.1678 1.1502 0.4221
C14 C 1.1767(9) 1.1275(7) 0.5377(5)
H14 H 1.1340 1.0652 0.5337
C15 C 0.6742(8) 1.0621(6) 0.6477(5)
C16 C 0.6867(9) 1.0842(7) 0.5640(5)
C17 C 0.5678(10) 1.1090(8) 0.5135(5)
H15 H 0.4807 1.1167 0.5313
C18 C 0.5812(11) 1.1221(8) 0.4364(5)
H16 H 0.5008 1.1395 0.4027
N1 N 0.7016(8) 1.1116(6) 0.4068(4)
C19 C 0.8147(11) 1.0894(10) 0.4568(6)
H17 H 0.9007 1.0834 0.4374
C20 C 0.8141(10) 1.0749(10) 0.5350(6)
H18 H 0.8968 1.0593 0.5674
C21 C 0.8752(8) 1.1785(7) 0.9377(5)
C22 C 0.8374(9) 1.1574(6) 1.0182(5)
C23 C 0.8834(10) 1.2207(7) 1.0787(6)
H19 H 0.9387 1.2757 1.0706
C24 C 0.8458(11) 1.2009(8) 1.1522(6)
H20 H 0.8720 1.2467 1.1917
N2 N 0.7751(10) 1.1211(6) 1.1691(5)
C25 C 0.7352(11) 1.0576(8) 1.1089(6)
H21 H 0.6873 1.0000 1.1195
C26 C 0.7610(10) 1.0731(7) 1.0340(6)
H22 H 0.7285 1.0286 0.9947
C27 C 1.2542(8) 0.9632(7) 0.8904(4)
C28 C 1.2615(8) 0.9468(7) 0.9771(4)
C29 C 1.3719(10) 0.8933(7) 1.0166(5)
H23 H 1.4421 0.8667 0.9903
C30 C 1.3762(10) 0.8800(8) 1.0965(5)
H24 H 1.4505 0.8438 1.1231
N3 N 1.2777(8) 0.9172(6) 1.1363(4)
C31 C 1.1730(10) 0.9694(8) 1.0970(5)
H25 H 1.1056 0.9970 1.1248
C32 C 1.1586(9) 0.9849(7) 1.0180(5)
H26 H 1.0819 1.0200 0.9927
C33 C 0.2073(9) 0.8518(7) 0.6190(5)
C34 C 0.2239(9) 0.8574(6) 0.5324(5)
C35 C 0.1173(11) 0.8291(9) 0.4761(5)
H27 H 0.0328 0.8053 0.4903
C36 C 0.1334(13) 0.8354(11) 0.4000(6)
H28 H 0.0594 0.8148 0.3632
N4 N 0.2508(9) 0.8698(7) 0.3754(4)
C37 C 0.3552(11) 0.8955(10) 0.4305(6)
H29 H 0.4400 0.9171 0.4152
C38 C 0.3448(10) 0.8919(8) 0.5087(5)
H30 H 0.4196 0.9129 0.5450
Yb2_2 Yb 1.46031(3) 0.95527(2) 0.755684(18)
Ag1_2 Ag 1.29360(9) 1.60563(7) 0.71785(4)
Ag1A Ag 0.70640(9) 1.10563(7) 0.28215(4)
Ag1A_2 Ag 0.70640(9) 1.10563(7) 1.28215(4)
Ag2_2 Ag 0.28229(12) 0.88799(9) 0.25730(5)
O6_2 O 0.3081(6) 1.0794(4) 0.7250(3)
O8_2 O 0.3724(8) 0.4199(5) 0.6878(4)
O15_2 O 0.3507(6) 0.9252(5) 0.8579(3)
N1A N 0.2984(8) 0.6116(6) 0.5932(4)
N2A N 0.2249(10) 0.6211(6) 0.8309(5)
N4_2 N 1.2508(9) 0.8698(7) 1.3754(4)
O22 O 0.967(3) 0.625(2) 0.6933(15)
O23 O 1.032(3) 0.450(3) 0.7650(17)
O24? O 0.920(3) 0.553(3) 0.7163(19)
loop_
_geom_bond_atom_site_label_1
_geom_bond_atom_site_label_2
_geom_bond_site_symmetry_1
_geom_bond_site_symmetry_2
Yb1 O2 1_555 1_555
Yb2 O1 1_555 1_555
Ag1 O4 1_555 1_555
Ag2 N3 1_555 1_555
S1 O3 1_555 1_555
S2 O8 1_555 1_555
O1 C1 1_555 1_555
O2 C1 1_555 1_555
O3 Yb2 1_555 1_555
O4 S1 1_555 1_555
O5 S1 1_555 1_555
O6 C8 1_555 1_555
O7 Yb1 1_555 1_555
O8 Ag1_2 1_555 1_555
O9 S2 1_555 1_555
O10 S2 1_555 1_555
O11 Yb1 1_555 1_555
O12 Yb2 1_555 1_555
O13 Yb1 1_555 1_555
O14 C21 1_555 1_555
O15 C27 1_555 1_555
O16 Yb1 1_555 1_555
O17 C33 1_555 1_555
O18 Yb2 1_555 1_555
O19 Yb1 1_555 1_555
H1 O19 1_555 1_555
H2 O19 1_555 1_555
O20 Yb1 1_555 1_555
H3 O20 1_555 1_555
H4 O20 1_555 1_555
O21 Yb2 1_555 1_555
H5 O21 1_555 1_555
H6 O21 1_555 1_555
C1 C2 1_555 1_555
C2 C3 1_555 1_555
C3 S1 1_555 1_555
C4 C3 1_555 1_555
H7 C4 1_555 1_555
C5 C4 1_555 1_555
H8 C5 1_555 1_555
C6 C5 1_555 1_555
H9 C6 1_555 1_555
C7 C2 1_555 1_555
H10 C7 1_555 1_555
C8 O7 1_555 1_555
C9 C8 1_555 1_555
C10 S2 1_555 1_555
C11 C10 1_555 1_555
H11 C11 1_555 1_555
C12 C11 1_555 1_555
H12 C12 1_555 1_555
C13 C12 1_555 1_555
H13 C13 1_555 1_555
C14 C9 1_555 1_555
H14 C14 1_555 1_555
C15 O11 1_555 1_555
C16 C15 1_555 1_555
C17 C16 1_555 1_555
H15 C17 1_555 1_555
C18 C17 1_555 1_555
H16 C18 1_555 1_555
N1 C18 1_555 1_555
C19 N1 1_555 1_555
H17 C19 1_555 1_555
C20 C16 1_555 1_555
H18 C20 1_555 1_555
C21 O13 1_555 1_555
C22 C21 1_555 1_555
C23 C22 1_555 1_555
H19 C23 1_555 1_555
C24 C23 1_555 1_555
H20 C24 1_555 1_555
N2 C24 1_555 1_555
C25 N2 1_555 1_555
H21 C25 1_555 1_555
C26 C22 1_555 1_555
H22 C26 1_555 1_555
C27 O16 1_555 1_555
C28 C27 1_555 1_555
C29 C28 1_555 1_555
H23 C29 1_555 1_555
C30 C29 1_555 1_555
H24 C30 1_555 1_555
N3 C30 1_555 1_555
C31 N3 1_555 1_555
H25 C31 1_555 1_555
C32 C28 1_555 1_555
H26 C32 1_555 1_555
C33 O18 1_555 1_555
C34 C33 1_555 1_555
C35 C34 1_555 1_555
H27 C35 1_555 1_555
C36 C35 1_555 1_555
H28 C36 1_555 1_555
N4 C36 1_555 1_555
C37 N4 1_555 1_555
H29 C37 1_555 1_555
C38 C34 1_555 1_555
H30 C38 1_555 1_555
Yb2_2 O6 1_555 1_555
Ag1A N1 1_555 1_555
Ag1A_2 N2 1_555 1_555
Ag2_2 N4 1_555 1_555
O6_2 Yb2 1_555 1_555
O8_2 Ag1 1_555 1_555
O15_2 Yb2 1_555 1_555
N1A Ag1 1_555 1_555
N2A Ag1 1_555 1_555
N4_2 Ag2 1_555 1_555
O12 C15 1_555 1_555
O15 Yb2_2 1_555 1_555
C6 C7 1_555 1_555
C9 C10 1_555 1_555
C13 C14 1_555 1_555
C19 C20 1_555 1_555
C25 C26 1_555 1_555
C31 C32 1_555 1_555
C37 C38 1_555 1_555

#END
