
#######################################################################
#
#                 Cambridge Crystallographic Data Centre
#                                CCDC 
#
#######################################################################
#
# If this CIF has been generated from an entry in the Cambridge 
# Structural Database, then it will include bibliographic, chemical, 
# crystal, experimental, refinement or atomic coordinate data resulting 
# from the CCDC's data processing and validation procedures.
#
#######################################################################

data_HEHHOT
_symmetry_cell_setting           monoclinic
_symmetry_space_group_name_H-M   'P 21/c'
_symmetry_Int_Tables_number      14
_space_group_name_Hall           '-P 2ybc'
loop_
_symmetry_equiv_pos_site_id
_symmetry_equiv_pos_as_xyz
1 x,y,z
2 -x,1/2+y,1/2-z
3 -x,-y,-z
4 x,1/2-y,1/2+z
_cell_length_a                   11.869(5)
_cell_length_b                   28.971(10)
_cell_length_c                   7.572(3)
_cell_angle_alpha                90
_cell_angle_beta                 108.529(5)
_cell_angle_gamma                90
_cell_volume                     2468.72
loop_
_atom_site_label
_atom_site_type_symbol
_atom_site_fract_x
_atom_site_fract_y
_atom_site_fract_z
Pb1 Pb 0.463851(19) 0.751123(6) 0.06044(3)
Cl1 Cl 0.45506(13) 0.67601(4) -0.18790(16)
Cl3 Cl 0.29550(12) 0.79252(5) -0.27018(19)
Cl4 Cl 0.63845(11) 0.79467(5) -0.08614(18)
Pb1C Pb 0.463851(19) 0.748877(6) -0.43956(3)
Cl1C Cl 0.45506(13) 0.82399(4) 0.31210(16)
Cl3C Cl 0.29550(12) 0.70748(5) 0.22982(19)
Cl4C Cl 0.63845(11) 0.70533(5) 0.41386(18)
Cu1 Cu 0.77899(4) 0.560191(19) 0.33374(7)
Cl2 Cl 0.88861(9) 0.52668(4) 0.15813(16)
N1 N 0.8974(3) 0.58789(13) 0.5827(5)
N2 N 0.7512(3) 0.49785(12) 0.4260(5)
N3 N 0.8073(3) 0.62190(13) 0.2384(5)
N4 N 0.5958(3) 0.56129(12) 0.2450(4)
C1 C 0.6835(4) 0.40893(15) 0.4980(6)
H1 H 0.6624 0.3795 0.5251
C2 C 0.4717(4) 0.43128(15) 0.3330(6)
H2 H 0.4439 0.4027 0.3573
C3 C 0.6324(3) 0.48509(14) 0.3674(5)
C4 C 0.5955(3) 0.44076(15) 0.3989(5)
C5 C 0.7989(4) 0.42224(16) 0.5525(6)
H3 H 0.8574 0.4015 0.6170
C6 C 0.5215(4) 0.59310(16) 0.1627(6)
H4 H 0.5508 0.6224 0.1515
C7 C 0.3971(4) 0.58539(17) 0.0882(6)
H5 H 0.3466 0.6091 0.0285
C8 C 0.3535(4) 0.54377(17) 0.1049(6)
H6 H 0.2725 0.5382 0.0539
C9 C 1.0403(3) 0.65012(16) 0.6719(6)
C10 C 0.9381(4) 0.57182(17) 0.7558(6)
H7 H 0.9045 0.5449 0.7840
C11 C 0.5509(3) 0.51898(14) 0.2658(5)
C12 C 0.3932(4) 0.46344(16) 0.2349(6)
H8 H 0.3130 0.4559 0.1894
C13 C 0.4301(3) 0.50837(15) 0.1995(5)
C14 C 0.9464(3) 0.62779(15) 0.5420(6)
C15 C 1.0282(4) 0.59298(19) 0.8974(6)
H9 H 1.0535 0.5808 1.0172
C16 C 0.7613(4) 0.63867(17) 0.0702(7)
H10 H 0.6990 0.6224 -0.0120
C17 C 0.8319(4) 0.46690(16) 0.5134(6)
H11 H 0.9119 0.4748 0.5497
C18 C 1.0788(4) 0.63258(18) 0.8547(7)
H12 H 1.1384 0.6477 0.9468
C19 C 0.8995(4) 0.64538(15) 0.3593(6)
C20 C 0.7986(5) 0.67912(18) 0.0043(8)
H13 H 0.7609 0.6901 -0.1153
C21 C 0.9462(4) 0.68607(16) 0.3076(7)
C22 C 0.8940(5) 0.70186(18) 0.1261(8)
H14 H 0.9240 0.7281 0.0863
C23 C 1.0439(4) 0.70657(18) 0.4369(8)
H15 H 1.0781 0.7324 0.4015
C24 C 1.0897(4) 0.69065(17) 0.6080(8)
H16 H 1.1549 0.7055 0.6899
loop_
_geom_bond_atom_site_label_1
_geom_bond_atom_site_label_2
_geom_bond_site_symmetry_1
_geom_bond_site_symmetry_2
Pb1 Cl1 1_555 1_555
Cu1 Cl2 1_555 1_555
Cl1 Pb1C 1_555 1_555
Cl3 Pb1 1_555 1_555
Cl4 Pb1 1_555 1_555
N1 Cu1 1_555 1_555
N2 Cu1 1_555 1_555
N3 Cu1 1_555 1_555
N4 Cu1 1_555 1_555
C1 H1 1_555 1_555
C2 H2 1_555 1_555
C3 N2 1_555 1_555
C4 C1 1_555 1_555
C5 C1 1_555 1_555
H3 C5 1_555 1_555
C6 N4 1_555 1_555
H4 C6 1_555 1_555
C7 C6 1_555 1_555
H5 C7 1_555 1_555
C8 C7 1_555 1_555
H6 C8 1_555 1_555
C9 C14 1_555 1_555
C10 N1 1_555 1_555
H7 C10 1_555 1_555
C11 N4 1_555 1_555
C12 C2 1_555 1_555
H8 C12 1_555 1_555
C13 C8 1_555 1_555
C14 N1 1_555 1_555
C15 C10 1_555 1_555
H9 C15 1_555 1_555
C16 N3 1_555 1_555
H10 C16 1_555 1_555
C17 N2 1_555 1_555
H11 C17 1_555 1_555
C18 C9 1_555 1_555
H12 C18 1_555 1_555
C19 N3 1_555 1_555
C20 C16 1_555 1_555
H13 C20 1_555 1_555
C21 C19 1_555 1_555
C22 C20 1_555 1_555
H14 C22 1_555 1_555
C23 C21 1_555 1_555
H15 C23 1_555 1_555
C24 C9 1_555 1_555
H16 C24 1_555 1_555
Pb1C Cl3 1_555 1_555
Cl1C Pb1 1_555 1_555
Cl3C Pb1 1_555 1_555
Cl4C Pb1 1_555 1_555
Cl4 Pb1C 1_555 1_555
C2 C4 1_555 1_555
C3 C4 1_555 1_555
C3 C11 1_555 1_555
C5 C17 1_555 1_555
C11 C13 1_555 1_555
C12 C13 1_555 1_555
C14 C19 1_555 1_555
C15 C18 1_555 1_555
C21 C22 1_555 1_555
C23 C24 1_555 1_555

#END
