
#######################################################################
#
#                 Cambridge Crystallographic Data Centre
#                                CCDC 
#
#######################################################################
#
# If this CIF has been generated from an entry in the Cambridge 
# Structural Database, then it will include bibliographic, chemical, 
# crystal, experimental, refinement or atomic coordinate data resulting 
# from the CCDC's data processing and validation procedures.
#
#######################################################################

data_HEHJAH
_symmetry_cell_setting           monoclinic
_symmetry_space_group_name_H-M   'P 21/c'
_symmetry_Int_Tables_number      14
_space_group_name_Hall           '-P 2ybc'
loop_
_symmetry_equiv_pos_site_id
_symmetry_equiv_pos_as_xyz
1 x,y,z
2 -x,1/2+y,1/2-z
3 -x,-y,-z
4 x,1/2-y,1/2+z
_cell_length_a                   18.717(2)
_cell_length_b                   19.673(3)
_cell_length_c                   7.8746(8)
_cell_angle_alpha                90
_cell_angle_beta                 93.080(9)
_cell_angle_gamma                90
_cell_volume                     2895.39
loop_
_atom_site_label
_atom_site_type_symbol
_atom_site_fract_x
_atom_site_fract_y
_atom_site_fract_z
Pb1 Pb 0.154960(10) -0.748620(9) 0.29255(2)
I1 I 0.150260(17) -0.620050(17) 0.55952(4)
I2 I 0.036130(17) -0.811580(17) 0.52559(4)
I3 I 0.282220(18) -0.808040(19) 0.55790(4)
Pb1C Pb 0.154960(10) -0.751380(9) 0.79255(2)
I1C I 0.150260(17) -0.879950(17) 0.05952(4)
I2C I 0.036130(17) -0.688420(17) 0.02559(4)
I3C I 0.282220(18) -0.691960(19) 0.05790(4)
I4 I 0.35734(2) -0.368740(19) 0.01513(4)
Cu1 Cu 0.32469(3) -0.40373(3) 0.32325(7)
N1 N 0.4129(2) -0.36109(19) 0.4339(5)
N2 N 0.3572(2) -0.4830(2) 0.4930(5)
N3 N 0.2345(2) -0.4485(2) 0.2347(5)
N4 N 0.2516(2) -0.35470(19) 0.4798(5)
C1 C 0.4406(3) -0.3006(3) 0.4019(6)
H1 H 0.4175 -0.2733 0.3197
C2 C 0.5031(3) -0.2761(3) 0.4862(7)
H2 H 0.5203 -0.2331 0.4613
C3 C 0.5382(3) -0.3152(3) 0.6040(7)
H3 H 0.5804 -0.2998 0.6585
C4 C 0.5109(2) -0.3794(3) 0.6440(6)
C5 C 0.4479(2) -0.4002(2) 0.5557(5)
C6 C 0.4171(2) -0.4652(2) 0.5871(5)
C7 C 0.4502(3) -0.5075(3) 0.7108(6)
C8 C 0.5157(3) -0.4851(3) 0.7967(6)
H4 H 0.5390 -0.5136 0.8759
C9 C 0.5442(3) -0.4243(3) 0.7657(6)
H5 H 0.5863 -0.4112 0.8245
C10 C 0.2271(3) -0.4948(3) 0.1127(7)
H6 H 0.2674 -0.5088 0.0581
C11 C 0.1610(3) -0.5232(3) 0.0633(8)
H7 H 0.1578 -0.5555 -0.0230
C12 C 0.1017(3) -0.5040(3) 0.1407(8)
H8 H 0.0577 -0.5231 0.1079
C13 C 0.1065(3) -0.4553(3) 0.2709(7)
C14 C 0.1753(2) -0.4290(2) 0.3146(6)
C15 C 0.0479(3) -0.4319(3) 0.3627(8)
H9 H 0.0025 -0.4498 0.3372
C16 C 0.0561(3) -0.3850(3) 0.4847(9)
H10 H 0.0163 -0.3704 0.5404
C17 C 0.1246(3) -0.3567(3) 0.5314(7)
C18 C 0.1844(2) -0.3792(2) 0.4457(6)
C19 C 0.4160(3) -0.5698(3) 0.7377(7)
H11 H 0.4356 -0.5998 0.8190
C20 C 0.3553(3) -0.5871(3) 0.6477(8)
H12 H 0.3324 -0.6280 0.6686
C21 C 0.3274(3) -0.5424(3) 0.5222(7)
H13 H 0.2865 -0.5551 0.4574
C22 C 0.2604(3) -0.3088(2) 0.6003(6)
H14 H 0.3063 -0.2921 0.6255
C23 C 0.2044(3) -0.2837(3) 0.6924(8)
H15 H 0.2132 -0.2509 0.7761
C24 C 0.1369(3) -0.3076(3) 0.6588(8)
H16 H 0.0992 -0.2915 0.7198
loop_
_geom_bond_atom_site_label_1
_geom_bond_atom_site_label_2
_geom_bond_site_symmetry_1
_geom_bond_site_symmetry_2
Pb1 I1 1_555 1_555
I1 Pb1C 1_555 1_555
I2 Pb1 1_555 1_555
I3 Pb1 1_555 1_555
I4 Cu1 1_555 1_555
Cu1 N1 1_555 1_555
N1 C1 1_555 1_555
N2 Cu1 1_555 1_555
N3 Cu1 1_555 1_555
N4 Cu1 1_555 1_555
C1 H1 1_555 1_555
C2 C1 1_555 1_555
H2 C2 1_555 1_555
C3 C2 1_555 1_555
H3 C3 1_555 1_555
C4 C3 1_555 1_555
C5 N1 1_555 1_555
C6 N2 1_555 1_555
C7 C6 1_555 1_555
C8 C7 1_555 1_555
H4 C8 1_555 1_555
C9 C4 1_555 1_555
H5 C9 1_555 1_555
C10 N3 1_555 1_555
H6 C10 1_555 1_555
C11 C10 1_555 1_555
H7 C11 1_555 1_555
C12 C11 1_555 1_555
H8 C12 1_555 1_555
C13 C12 1_555 1_555
C14 N3 1_555 1_555
C15 C13 1_555 1_555
H9 C15 1_555 1_555
C16 C15 1_555 1_555
H10 C16 1_555 1_555
C17 C16 1_555 1_555
C18 N4 1_555 1_555
C19 C7 1_555 1_555
H11 C19 1_555 1_555
C20 C19 1_555 1_555
H12 C20 1_555 1_555
C21 N2 1_555 1_555
H13 C21 1_555 1_555
C22 N4 1_555 1_555
H14 C22 1_555 1_555
C23 C22 1_555 1_555
H15 C23 1_555 1_555
C24 C17 1_555 1_555
H16 C24 1_555 1_555
Pb1C I2 1_555 1_555
I1C Pb1 1_555 1_555
I2C Pb1 1_555 1_555
I3C Pb1 1_555 1_555
I3 Pb1C 1_555 1_555
C4 C5 1_555 1_555
C5 C6 1_555 1_555
C8 C9 1_555 1_555
C13 C14 1_555 1_555
C14 C18 1_555 1_555
C17 C18 1_555 1_555
C20 C21 1_555 1_555
C23 C24 1_555 1_555

#END
