
#######################################################################
#
#                 Cambridge Crystallographic Data Centre
#                                CCDC 
#
#######################################################################
#
# If this CIF has been generated from an entry in the Cambridge 
# Structural Database, then it will include bibliographic, chemical, 
# crystal, experimental, refinement or atomic coordinate data resulting 
# from the CCDC's data processing and validation procedures.
#
#######################################################################

data_HEHMOW
_symmetry_cell_setting           monoclinic
_symmetry_space_group_name_H-M   'P 21/a'
_symmetry_Int_Tables_number      14
_space_group_name_Hall           '-P 2yab'
loop_
_symmetry_equiv_pos_site_id
_symmetry_equiv_pos_as_xyz
1 x,y,z
2 1/2-x,1/2+y,-z
3 -x,-y,-z
4 1/2+x,1/2-y,z
_cell_length_a                   11.445(1)
_cell_length_b                   12.121(1)
_cell_length_c                   12.966(1)
_cell_angle_alpha                90
_cell_angle_beta                 107.83(1)
_cell_angle_gamma                90
_cell_volume                     1712.31
loop_
_atom_site_label
_atom_site_type_symbol
_atom_site_fract_x
_atom_site_fract_y
_atom_site_fract_z
Ag1 Ag 0.73017(3) 0.24603(3) 0.17363(3)
S1 S 0.58473(9) 0.36712(9) 0.02494(8)
S2 S 0.52104(9) 0.12934(9) -0.03579(9)
S3 S 0.93255(8) 0.26152(9) 0.13690(8)
S4 S 0.7634(1) -0.0287(1) 0.22329(9)
S5 S 0.70716(9) 0.1689(1) 0.34442(8)
S6 S 0.9752(1) 0.1015(1) 0.37396(9)
S7 S 0.77361(9) 0.55240(9) 0.23819(8)
F1 F 0.7866(3) 0.7083(3) 0.3813(3)
F2 F 0.8707(4) 0.5556(3) 0.4481(3)
F3 F 0.9609(3) 0.6618(4) 0.3617(3)
O1 O 0.7666(3) 0.6349(3) 0.1568(3)
O2 O 0.8537(3) 0.4611(3) 0.2372(3)
O3 O 0.6567(3) 0.5236(3) 0.2517(3)
C1 C 0.5333(4) 0.2669(4) -0.0830(3)
C2 C 0.8940(4) 0.3474(4) 0.0176(3)
C3 C 0.4540(4) 0.3674(4) 0.0769(3)
C4 C 0.6710(4) 0.0277(4) 0.3018(4)
C5 C 0.8618(4) 0.1492(4) 0.4353(4)
C6 C 0.9106(4) -0.0314(4) 0.3267(4)
C7 C 0.8520(5) 0.6230(5) 0.3638(4)
H1 H 0.5912 0.2660 -0.1241
H2 H 0.4532 0.2893 -0.1297
H3 H 0.8662 0.4184 0.0357
H4 H 0.8280 0.3123 -0.0382
H5 H 0.3805 0.3833 0.0174
H6 H 0.4664 0.4248 0.1313
H7 H 0.6832 -0.0175 0.3659
H8 H 0.5855 0.0243 0.2579
H9 H 0.8576 0.0954 0.4895
H10 H 0.8898 0.2193 0.4700
H11 H 0.9678 -0.0700 0.2976
H12 H 0.9013 -0.0718 0.3882
C3C C 0.9540(4) 0.1326(4) 0.0769(3)
C2C C 0.3940(4) 0.1526(4) 0.0176(3)
S2C S 1.02104(9) 0.37066(9) -0.03579(9)
S3C S 0.43255(8) 0.23848(9) 0.13690(8)
S1C S 1.08473(9) 0.13288(9) 0.02494(8)
H5C H 0.8805 0.1167 0.0174
H6C H 0.9664 0.0752 0.1313
H3C H 0.3662 0.0816 0.0357
H4C H 0.3280 0.1877 -0.0382
C1C C 1.0333(4) 0.2331(4) -0.0830(3)
Ag1C Ag 0.23017(3) 0.25397(3) 0.17363(3)
Ag1C_2 Ag 1.23017(3) 0.25397(3) 0.17363(3)
H1C H 1.0912 0.2340 -0.1241
H2C H 0.9532 0.2107 -0.1297
S1C_2 S 0.08473(9) 0.13288(9) 0.02494(8)
S5C S 0.20716(9) 0.3311(1) 0.34442(8)
O2C O 0.3537(3) 0.0389(3) 0.2372(3)
C4C C 0.1710(4) 0.4723(4) 0.3018(4)
C5C C 0.3618(4) 0.3508(4) 0.4353(4)
S7C S 0.27361(9) -0.05240(9) 0.23819(8)
S4C S 0.2634(1) 0.5287(1) 0.22329(9)
H7C H 0.1832 0.5175 0.3659
H8C H 0.0855 0.4757 0.2579
S6C S 0.4752(1) 0.3985(1) 0.37396(9)
H9C H 0.3576 0.4046 0.4895
H10C H 0.3898 0.2807 0.4700
O1C O 0.2666(3) -0.1349(3) 0.1568(3)
O3C O 0.1567(3) -0.0236(3) 0.2517(3)
C7C C 0.3520(5) -0.1230(5) 0.3638(4)
C6C C 0.4106(4) 0.5314(4) 0.3267(4)
F1C F 0.2866(3) -0.2083(3) 0.3813(3)
F2C F 0.3707(4) -0.0556(3) 0.4481(3)
F3C F 0.4609(3) -0.1618(4) 0.3617(3)
H11C H 0.4678 0.5700 0.2976
H12C H 0.4013 0.5718 0.3882
loop_
_geom_bond_atom_site_label_1
_geom_bond_atom_site_label_2
_geom_bond_site_symmetry_1
_geom_bond_site_symmetry_2
Ag1 S1 1_555 1_555
S1 C1 1_555 1_555
S2 C1 1_555 1_555
S3 Ag1 1_555 1_555
S4 C4 1_555 1_555
S5 Ag1 1_555 1_555
S6 C5 1_555 1_555
S7 O1 1_555 1_555
F1 C7 1_555 1_555
F2 C7 1_555 1_555
F3 C7 1_555 1_555
O2 Ag1 1_555 1_555
O3 S7 1_555 1_555
C1 H1 1_555 1_555
C2 S3 1_555 1_555
C3 S1 1_555 1_555
C4 S5 1_555 1_555
C5 S5 1_555 1_555
C6 S4 1_555 1_555
C7 S7 1_555 1_555
H2 C1 1_555 1_555
H3 C2 1_555 1_555
H4 C2 1_555 1_555
H5 C3 1_555 1_555
H6 C3 1_555 1_555
H7 C4 1_555 1_555
H8 C4 1_555 1_555
H9 C5 1_555 1_555
H10 C5 1_555 1_555
H11 C6 1_555 1_555
H12 C6 1_555 1_555
C3C S3 1_555 1_555
C2C S2 1_555 1_555
S2C C2 1_555 1_555
S3C C3 1_555 1_555
S1C C3C 1_555 1_555
H5C C3C 1_555 1_555
H6C C3C 1_555 1_555
H3C C2C 1_555 1_555
H4C C2C 1_555 1_555
C1C S2C 1_555 1_555
Ag1C S3C 1_555 1_555
Ag1C_2 S1C 1_555 1_555
H1C C1C 1_555 1_555
H2C C1C 1_555 1_555
S1C_2 Ag1C 1_555 1_555
S5C Ag1C 1_555 1_555
O2C Ag1C 1_555 1_555
C4C S5C 1_555 1_555
C5C S5C 1_555 1_555
S7C O2C 1_555 1_555
S4C C4C 1_555 1_555
H7C C4C 1_555 1_555
H8C C4C 1_555 1_555
S6C C5C 1_555 1_555
H9C C5C 1_555 1_555
H10C C5C 1_555 1_555
O1C S7C 1_555 1_555
O3C S7C 1_555 1_555
C7C S7C 1_555 1_555
C6C S4C 1_555 1_555
F1C C7C 1_555 1_555
F2C C7C 1_555 1_555
F3C C7C 1_555 1_555
H11C C6C 1_555 1_555
H12C C6C 1_555 1_555
S6 C6 1_555 1_555
S7 O2 1_555 1_555
C2C S3C 1_555 1_555
S1C C1C 1_555 1_555
S6C C6C 1_555 1_555

#END
