
#######################################################################
#
#                 Cambridge Crystallographic Data Centre
#                                CCDC 
#
#######################################################################
#
# If this CIF has been generated from an entry in the Cambridge 
# Structural Database, then it will include bibliographic, chemical, 
# crystal, experimental, refinement or atomic coordinate data resulting 
# from the CCDC's data processing and validation procedures.
#
#######################################################################

data_HEHMUC
_symmetry_cell_setting           monoclinic
_symmetry_space_group_name_H-M   'P 21/n'
_symmetry_Int_Tables_number      14
_space_group_name_Hall           '-P 2yn'
loop_
_symmetry_equiv_pos_site_id
_symmetry_equiv_pos_as_xyz
1 x,y,z
2 1/2-x,1/2+y,1/2-z
3 -x,-y,-z
4 1/2+x,1/2-y,1/2+z
_cell_length_a                   9.1343(3)
_cell_length_b                   7.7603(4)
_cell_length_c                   14.0965(4)
_cell_angle_alpha                90
_cell_angle_beta                 92.867(3)
_cell_angle_gamma                90
_cell_volume                     997.978
loop_
_atom_site_label
_atom_site_type_symbol
_atom_site_fract_x
_atom_site_fract_y
_atom_site_fract_z
Ag1 Ag 0.17119(2) 0.14234(3) -0.00700(1)
S1 S 0.34504(7) -0.08610(9) -0.05842(5)
S2 S 0.18691(6) 0.45935(8) -0.00279(5)
F1 F -0.1292(3) 0.0770(3) 0.28382(19)
F2 F 0.0432(2) -0.0720(3) 0.34324(13)
F3 F -0.0997(3) -0.1767(3) 0.23570(14)
O1 O 0.0458(2) -0.0164(3) 0.10534(12)
O2 O 0.1584(3) 0.1465(3) 0.21632(17)
C1 C 0.4954(3) 0.0231(4) -0.11161(18)
C2 C 0.4344(3) -0.1629(3) 0.0506(2)
C3 C 0.0877(3) 0.5258(3) 0.09913(19)
C4 C 0.0683(3) 0.5410(3) -0.09794(18)
C5 C 0.0705(3) 0.0384(3) 0.18751(18)
C6 C -0.0269(3) -0.0377(4) 0.26228(18)
H1 H 0.5705(3) -0.0631(4) -0.12435(18)
H2 H 0.4580(3) 0.0740(4) -0.17167(18)
H3 H 0.3612(3) -0.2224(3) 0.0872(2)
H4 H 0.5112(3) -0.2446(3) 0.0344(2)
H5 H 0.1370(3) 0.4744(3) 0.15568(19)
H6 H 0.0941(3) 0.6517(3) 0.10327(19)
H7 H 0.0540(3) 0.6651(3) -0.08927(18)
H8 H 0.1133(3) 0.5203(3) -0.15855(18)
C2B C 0.5656(3) 0.1629(3) -0.0506(2)
S1B S 0.65496(7) 0.08610(9) 0.05842(5)
Ag1B Ag 0.82881(2) -0.14234(3) 0.00700(1)
C1B C 0.5046(3) -0.0231(4) 0.11161(18)
H1B H 0.4295(3) 0.0631(4) 0.12435(18)
H2B H 0.5420(3) -0.0740(4) 0.17167(18)
H3B H 0.6388(3) 0.2224(3) -0.0872(2)
H4B H 0.4888(3) 0.2446(3) -0.0344(2)
O1B O -0.0458(2) 0.0164(3) -0.10534(12)
Ag1B_2 Ag -0.17119(2) -0.14234(3) 0.00700(1)
C4B C -0.0683(3) 0.4590(3) 0.09794(18)
C3B C -0.0877(3) 0.4742(3) -0.09913(19)
S1B_2 S -0.34504(7) 0.08610(9) 0.05842(5)
S2B S -0.18691(6) -0.45935(8) 0.00279(5)
C5B C -0.0705(3) -0.0384(3) -0.18751(18)
O2B O -0.1584(3) -0.1465(3) -0.21632(17)
C6B C 0.0269(3) 0.0377(4) -0.26228(18)
F1B F 0.1292(3) -0.0770(3) -0.28382(19)
F2B F -0.0432(2) 0.0720(3) -0.34324(13)
F3B F 0.0997(3) 0.1767(3) -0.23570(14)
S2B_2 S -0.18691(6) 0.54065(8) 0.00279(5)
H7B H -0.0540(3) 0.3349(3) 0.08927(18)
H8B H -0.1133(3) 0.4797(3) 0.15855(18)
H5B H -0.1370(3) 0.5256(3) -0.15568(19)
H6B H -0.0941(3) 0.3483(3) -0.10327(19)
Ag1B_3 Ag -0.17119(2) 0.85766(3) 0.00700(1)
loop_
_geom_bond_atom_site_label_1
_geom_bond_atom_site_label_2
_geom_bond_site_symmetry_1
_geom_bond_site_symmetry_2
Ag1 S1 1_555 1_555
S1 C1 1_555 1_555
S2 Ag1 1_555 1_555
F1 C6 1_555 1_555
F2 C6 1_555 1_555
F3 C6 1_555 1_555
O1 Ag1 1_555 1_555
O2 C5 1_555 1_555
C1 H1 1_555 1_555
C2 S1 1_555 1_555
C3 S2 1_555 1_555
C4 S2 1_555 1_555
C5 O1 1_555 1_555
C6 C5 1_555 1_555
H2 C1 1_555 1_555
H3 C2 1_555 1_555
H4 C2 1_555 1_555
H5 C3 1_555 1_555
H6 C3 1_555 1_555
H7 C4 1_555 1_555
H8 C4 1_555 1_555
C2B C1 1_555 1_555
S1B C2B 1_555 1_555
Ag1B S1B 1_555 1_555
C1B C2 1_555 1_555
H1B C1B 1_555 1_555
H2B C1B 1_555 1_555
H3B C2B 1_555 1_555
H4B C2B 1_555 1_555
O1B Ag1 1_555 1_555
Ag1B_2 O1 1_555 1_555
C4B C3 1_555 1_555
C3B C4 1_555 1_555
S1B_2 Ag1B_2 1_555 1_555
S2B Ag1B_2 1_555 1_555
C5B O1B 1_555 1_555
O2B C5B 1_555 1_555
C6B C5B 1_555 1_555
F1B C6B 1_555 1_555
F2B C6B 1_555 1_555
F3B C6B 1_555 1_555
S2B_2 C4B 1_555 1_555
H7B C4B 1_555 1_555
H8B C4B 1_555 1_555
H5B C3B 1_555 1_555
H6B C3B 1_555 1_555
Ag1B_3 S2B_2 1_555 1_555
S1B C1B 1_555 1_555
O1B Ag1B_2 1_555 1_555
C3B S2B_2 1_555 1_555

#END
