
#######################################################################
#
#                 Cambridge Crystallographic Data Centre
#                                CCDC 
#
#######################################################################
#
# If this CIF has been generated from an entry in the Cambridge 
# Structural Database, then it will include bibliographic, chemical, 
# crystal, experimental, refinement or atomic coordinate data resulting 
# from the CCDC's data processing and validation procedures.
#
#######################################################################

data_HEHPEP
_symmetry_cell_setting           monoclinic
_symmetry_space_group_name_H-M   'I 2/a'
_symmetry_Int_Tables_number      15
_space_group_name_Hall           '-I 2ya'
loop_
_symmetry_equiv_pos_site_id
_symmetry_equiv_pos_as_xyz
1 x,y,z
2 1/2+x,1/2+y,1/2+z
3 1/2-x,y,-z
4 -x,1/2+y,1/2-z
5 -x,-y,-z
6 1/2-x,1/2-y,1/2-z
7 1/2+x,-y,z
8 x,1/2-y,1/2+z
_cell_length_a                   15.853(2)
_cell_length_b                   10.785(1)
_cell_length_c                   11.629(1)
_cell_angle_alpha                90
_cell_angle_beta                 111.321(1)
_cell_angle_gamma                90
_cell_volume                     1852.18
loop_
_atom_site_label
_atom_site_type_symbol
_atom_site_fract_x
_atom_site_fract_y
_atom_site_fract_z
Cu1 Cu 0.2500 0.2500 0.2500
O1 O 0.2644(1) 0.0721(2) 0.2190(2)
O2 O 0.1700(2) 0.1368(2) 0.0375(2)
N1 N 0.3552(2) 0.2828(2) 0.1947(2)
C1 C 0.4424(2) 0.2387(4) 0.2862(3)
C2 C 0.5178(3) 0.2447(5) 0.2351(5)
C3 C 0.5285(3) 0.3745(4) 0.1930(5)
C4 C 0.4393(3) 0.4199(4) 0.1009(4)
C5 C 0.3657(2) 0.4105(3) 0.1546(3)
C6 C 0.2206(2) 0.0573(2) 0.1039(3)
C7 C 0.2354(2) -0.0640(2) 0.0498(2)
C8 C 0.2201(2) -0.1764(3) 0.0976(3)
C9 C 0.2344(2) -0.2871(3) 0.0482(3)
H1 H 0.344(2) 0.238(3) 0.136(3)
H2 H 0.458(2) 0.291(3) 0.358(3)
H3 H 0.436(2) 0.155(4) 0.311(3)
H4 H 0.573(3) 0.220(4) 0.302(4)
H5 H 0.506(3) 0.188(4) 0.170(4)
H6 H 0.570(2) 0.379(3) 0.155(3)
H7 H 0.545(3) 0.426(4) 0.262(4)
H8 H 0.421(2) 0.371(3) 0.031(3)
H9 H 0.445(2) 0.504(4) 0.080(3)
H10 H 0.382(2) 0.460(3) 0.226(3)
H11 H 0.311(2) 0.433(3) 0.101(3)
H12 H 0.203(2) -0.178(3) 0.163(3)
H13 H 0.225(2) -0.357(3) 0.082(3)
O1E O 0.2356(1) 0.4279(2) 0.2810(2)
O2E O 0.3300(2) 0.3632(2) 0.4625(2)
N1E N 0.1448(2) 0.2172(2) 0.3053(2)
C7B C 0.2646(2) -0.0640(2) -0.0498(2)
C9B C 0.2656(2) -0.2871(3) -0.0482(3)
C1E C 0.0576(2) 0.2613(4) 0.2138(3)
C5E C 0.1343(2) 0.0895(3) 0.3454(3)
H1E H 0.156(2) 0.262(3) 0.364(3)
C6B C 0.2794(2) 0.0573(2) -0.1039(3)
C8B C 0.2799(2) -0.1764(3) -0.0976(3)
H13B H 0.275(2) -0.357(3) -0.082(3)
C2E C -0.0178(3) 0.2553(5) 0.2649(5)
H2E H 0.042(2) 0.209(3) 0.142(3)
H3E H 0.064(2) 0.345(4) 0.189(3)
C4E C 0.0607(3) 0.0801(4) 0.3991(4)
H10E H 0.118(2) 0.040(3) 0.274(3)
H11E H 0.189(2) 0.067(3) 0.399(3)
O1B O 0.2356(1) 0.0721(2) -0.2190(2)
O2B O 0.3300(2) 0.1368(2) -0.0375(2)
H12B H 0.297(2) -0.178(3) -0.163(3)
C3E C -0.0285(3) 0.1255(4) 0.3070(5)
H4E H -0.073(3) 0.280(4) 0.198(4)
H5E H -0.006(3) 0.312(4) 0.330(4)
H8E H 0.079(2) 0.129(3) 0.469(3)
H9E H 0.055(2) -0.004(4) 0.420(3)
Cu1B Cu 0.2500 0.2500 -0.2500
H6E H -0.070(2) 0.121(3) 0.345(3)
H7E H -0.045(3) 0.074(4) 0.238(4)
loop_
_geom_bond_atom_site_label_1
_geom_bond_atom_site_label_2
_geom_bond_site_symmetry_1
_geom_bond_site_symmetry_2
Cu1 O1 1_555 1_555
O1 C6 1_555 1_555
O2 Cu1 1_555 1_555
N1 Cu1 1_555 1_555
C1 N1 1_555 1_555
C2 C1 1_555 1_555
C3 C2 1_555 1_555
C4 C3 1_555 1_555
C5 N1 1_555 1_555
C6 O2 1_555 1_555
C7 C6 1_555 1_555
C8 C7 1_555 1_555
C9 C8 1_555 1_555
H1 N1 1_555 1_555
H2 C1 1_555 1_555
H3 C1 1_555 1_555
H4 C2 1_555 1_555
H5 C2 1_555 1_555
H6 C3 1_555 1_555
H7 C3 1_555 1_555
H8 C4 1_555 1_555
H9 C4 1_555 1_555
H10 C5 1_555 1_555
H11 C5 1_555 1_555
H12 C8 1_555 1_555
H13 C9 1_555 1_555
O1E Cu1 1_555 1_555
O2E Cu1 1_555 1_555
N1E Cu1 1_555 1_555
C7B C7 1_555 1_555
C9B C9 1_555 1_555
C1E N1E 1_555 1_555
C5E N1E 1_555 1_555
H1E N1E 1_555 1_555
C6B C7B 1_555 1_555
C8B C7B 1_555 1_555
H13B C9B 1_555 1_555
C2E C1E 1_555 1_555
H2E C1E 1_555 1_555
H3E C1E 1_555 1_555
C4E C5E 1_555 1_555
H10E C5E 1_555 1_555
H11E C5E 1_555 1_555
O1B C6B 1_555 1_555
O2B C6B 1_555 1_555
H12B C8B 1_555 1_555
C3E C2E 1_555 1_555
H4E C2E 1_555 1_555
H5E C2E 1_555 1_555
H8E C4E 1_555 1_555
H9E C4E 1_555 1_555
Cu1B O1B 1_555 1_555
H6E C3E 1_555 1_555
H7E C3E 1_555 1_555
C4 C5 1_555 1_555
C9B C8B 1_555 1_555
C4E C3E 1_555 1_555
O2B Cu1B 1_555 1_555

#END
