
#######################################################################
#
#                 Cambridge Crystallographic Data Centre
#                                CCDC 
#
#######################################################################
#
# If this CIF has been generated from an entry in the Cambridge 
# Structural Database, then it will include bibliographic, chemical, 
# crystal, experimental, refinement or atomic coordinate data resulting 
# from the CCDC's data processing and validation procedures.
#
#######################################################################

data_HEHSES
_symmetry_cell_setting           tetragonal
_symmetry_space_group_name_H-M   'I 41/a'
_symmetry_Int_Tables_number      88
_space_group_name_Hall           '-I 4ad'
loop_
_symmetry_equiv_pos_site_id
_symmetry_equiv_pos_as_xyz
1 x,y,z
2 1/2+x,1/2+y,1/2+z
3 3/4-y,1/4+x,1/4+z
4 1/4-y,3/4+x,3/4+z
5 1/2-x,-y,1/2+z
6 -x,1/2-y,z
7 3/4+y,3/4-x,3/4+z
8 1/4+y,1/4-x,1/4+z
9 -x,-y,-z
10 1/2-x,1/2-y,1/2-z
11 1/4+y,3/4-x,3/4-z
12 3/4+y,1/4-x,1/4-z
13 1/2+x,y,1/2-z
14 x,1/2+y,-z
15 1/4-y,1/4+x,1/4-z
16 3/4-y,3/4+x,3/4-z
_cell_length_a                   13.934(1)
_cell_length_b                   13.934(1)
_cell_length_c                   13.578(1)
_cell_angle_alpha                90
_cell_angle_beta                 90
_cell_angle_gamma                90
_cell_volume                     2636.26
loop_
_atom_site_label
_atom_site_type_symbol
_atom_site_fract_x
_atom_site_fract_y
_atom_site_fract_z
Mn1 Mn 0.50000 0.25000 0.11585(2)
O1 O 0.58660(11) 0.17248(10) 0.22588(11)
N1 N 0.49581(6) 0.08933(6) 0.04030(7)
O3 O 0.61404(7) 0.22897(7) 0.00230(10)
O4 O 0.71105(7) 0.13871(7) -0.08512(9)
O5 O 0.37492(8) 0.14407(7) 0.17284(10)
O6 O 0.28535(9) 0.01482(9) 0.16427(12)
C1 C 0.63510(8) 0.15186(8) -0.03643(10)
C2 C 0.56603(7) 0.06789(7) -0.02222(8)
C3 C 0.57045(7) -0.02457(7) -0.06412(8)
C4 C 0.35854(10) 0.06469(9) 0.13922(10)
H1 H 0.2849(27) -0.0386(31) 0.1235(22)
H2 H 0.5469(21) 0.1297(24) 0.255(3)
H3 H 0.6205(22) 0.2078(22) 0.2655(24)
O1E O 0.41340(11) 0.32752(10) 0.22588(11)
H2E H 0.4531(21) 0.3703(24) 0.255(3)
H3E H 0.3795(22) 0.2922(22) 0.2655(24)
C3H C 0.42955(7) 0.02457(7) 0.06412(8)
C2H C 0.43397(7) -0.06789(7) 0.02222(8)
N1H N 0.50419(6) -0.08933(6) -0.04030(7)
C4H C 0.64146(10) -0.06469(9) -0.13922(10)
O5H O 0.62508(8) -0.14407(7) -0.17284(10)
Mn1H Mn 0.50000 -0.25000 -0.11585(2)
O3H O 0.38596(7) -0.22897(7) -0.00230(10)
C1H C 0.36490(8) -0.15186(8) 0.03643(10)
O4H O 0.28895(7) -0.13871(7) 0.08512(9)
O6H O 0.71465(9) -0.01482(9) -0.16427(12)
H1H H 0.7151(27) 0.0386(31) -0.1235(22)
O3E O 0.38596(7) 0.27103(7) 0.00230(10)
O5E O 0.62508(8) 0.35593(7) 0.17284(10)
O2 O 0.69801(12) 0.28166(13) 0.36327(11)
H4 H 0.7212(22) 0.3340(22) 0.3366(24)
H5 H 0.756(3) 0.260(3) 0.362(3)
loop_
_geom_bond_atom_site_label_1
_geom_bond_atom_site_label_2
_geom_bond_site_symmetry_1
_geom_bond_site_symmetry_2
Mn1 O1 1_555 1_555
O1 H2 1_555 1_555
O2 H4 1_555 1_555
N1 C2 1_555 1_555
O3 Mn1 1_555 1_555
O4 C1 1_555 1_555
O5 Mn1 1_555 1_555
O6 C4 1_555 1_555
C1 O3 1_555 1_555
C2 C1 1_555 1_555
C3 C2 1_555 1_555
C4 O5 1_555 1_555
H1 O6 1_555 1_555
H3 O1 1_555 1_555
H5 O2 1_555 1_555
O1E Mn1 1_555 1_555
H2E O1E 1_555 1_555
H3E O1E 1_555 1_555
C3H N1 1_555 1_555
C2H C3H 1_555 1_555
N1H C3 1_555 1_555
C4H C3 1_555 1_555
O5H C4H 1_555 1_555
Mn1H O5H 1_555 1_555
O3H Mn1H 1_555 1_555
C1H C2H 1_555 1_555
O4H C1H 1_555 1_555
O6H C4H 1_555 1_555
H1H O6H 1_555 1_555
O3E Mn1 1_555 1_555
O5E Mn1 1_555 1_555
C4 C3H 1_555 1_555
C2H N1H 1_555 1_555
O3H C1H 1_555 1_555

#END
