
#######################################################################
#
#                 Cambridge Crystallographic Data Centre
#                                CCDC 
#
#######################################################################
#
# If this CIF has been generated from an entry in the Cambridge 
# Structural Database, then it will include bibliographic, chemical, 
# crystal, experimental, refinement or atomic coordinate data resulting 
# from the CCDC's data processing and validation procedures.
#
#######################################################################

data_HEHTET
_symmetry_cell_setting           monoclinic
_symmetry_space_group_name_H-M   'P 21/c'
_symmetry_Int_Tables_number      14
_space_group_name_Hall           '-P 2ybc'
loop_
_symmetry_equiv_pos_site_id
_symmetry_equiv_pos_as_xyz
1 x,y,z
2 -x,1/2+y,1/2-z
3 -x,-y,-z
4 x,1/2-y,1/2+z
_cell_length_a                   8.654(2)
_cell_length_b                   22.64(2)
_cell_length_c                   8.8048(8)
_cell_angle_alpha                90
_cell_angle_beta                 103.76(1)
_cell_angle_gamma                90
_cell_volume                     1675.58
loop_
_atom_site_label
_atom_site_type_symbol
_atom_site_fract_x
_atom_site_fract_y
_atom_site_fract_z
Cu1 Cu 0.18997(8) 0.02339(3) 0.09886(8)
O1 O 0.4186(5) 0.2037(2) -0.35624
O2 O 0.2533(4) 0.0936(1) 0.0034(4)
O3 O 0.5594(4) 0.0105(1) -0.3182(4)
O4 O 0.0715(4) -0.0384(1) 0.1674(4)
O5 O 0.0563(5) -0.1246(2) 0.2754(4)
N1 N 0.4718(5) 0.1055(2) -0.3532(5)
N2 N 0.3358(5) 0.1480(2) -0.1775(5)
N3 N 0.3508(4) -0.0129(2) -0.1397(4)
N4 N 0.2697(4) -0.0294(2) -0.0407(4)
N5 N 0.1319(5) 0.0760(2) 0.2566(5)
N6 N 0.0533(6) 0.1035(2) 0.4646(5)
C1 C 0.5522(7) 0.1129(3) -0.4823(7)
C2 C 0.4089(6) 0.1557(2) -0.3006(6)
C3 C 0.2743(8) 0.2014(2) -0.1166(8)
C4 C 0.3165(6) 0.0948(2) -0.1108(6)
C5 C 0.3747(6) 0.0435(2) -0.1743(6)
C6 C 0.4758(6) 0.0503(2) -0.2849(6)
C7 C 0.2602(6) -0.0932(2) -0.0356(6)
C8 C 0.1873(6) -0.1224(2) 0.0695(5)
C9 C 0.1908(7) -0.1840(2) 0.0717(6)
C10 C 0.2557(7) -0.2165(2) -0.0283(7)
C11 C 0.3251(7) -0.1879(2) -0.1326(6)
C12 C 0.3270(6) -0.1272(2) -0.1367(6)
C13 C 0.1010(6) -0.0932(2) 0.1794(6)
C14 C 0.0854(7) 0.0584(2) 0.3807(7)
C15 C 0.0832(7) 0.1534(2) 0.3932(6)
C16 C 0.1310(7) 0.1362(2) 0.2648(6)
H1 H 0.641(7) 0.139(2) -0.449(6)
H2 H 0.586(7) 0.074(3) -0.499(7)
H3 H 0.493(6) 0.139(2) -0.541(6)
H4 H 0.287(7) 0.228(2) -0.181(7)
H5 H 0.337(8) 0.221(3) -0.019(8)
H6 H 0.186(7) 0.196(2) -0.105(6)
H7 H 0.143(5) -0.202(2) 0.140(5)
H8 H 0.253(4) -0.256(2) -0.024(4)
H9 H 0.362(5) -0.214(2) -0.212(6)
H10 H 0.370(5) -0.113(2) -0.201(5)
H11 H 0.101(6) 0.022(2) 0.412(6)
H12 H 0.034(6) 0.102(2) 0.543(5)
H13 H 0.067(5) 0.194(2) 0.430(5)
H14 H 0.160(6) 0.159(2) 0.194(6)
O3B O 0.4406(4) -0.0105(1) 0.3182(4)
Cu1B Cu 0.81003(8) -0.02339(3) -0.09886(8)
loop_
_geom_bond_atom_site_label_1
_geom_bond_atom_site_label_2
_geom_bond_site_symmetry_1
_geom_bond_site_symmetry_2
Cu1 O2 1_555 1_555
O1 C2 1_555 1_555
O2 C4 1_555 1_555
O3 C6 1_555 1_555
O4 Cu1 1_555 1_555
O5 C13 1_555 1_555
N1 C1 1_555 1_555
N2 C2 1_555 1_555
N3 N4 1_555 1_555
N4 Cu1 1_555 1_555
N5 Cu1 1_555 1_555
N6 C14 1_555 1_555
C1 H1 1_555 1_555
C2 N1 1_555 1_555
C3 N2 1_555 1_555
C4 N2 1_555 1_555
C5 N3 1_555 1_555
C6 N1 1_555 1_555
C7 N4 1_555 1_555
C8 C7 1_555 1_555
C9 C8 1_555 1_555
C10 C9 1_555 1_555
C11 C10 1_555 1_555
C12 C7 1_555 1_555
C13 O4 1_555 1_555
C14 N5 1_555 1_555
C15 N6 1_555 1_555
C16 N5 1_555 1_555
H2 C1 1_555 1_555
H3 C1 1_555 1_555
H4 C3 1_555 1_555
H5 C3 1_555 1_555
H6 C3 1_555 1_555
H7 C9 1_555 1_555
H8 C10 1_555 1_555
H9 C11 1_555 1_555
H10 C12 1_555 1_555
H11 C14 1_555 1_555
H12 N6 1_555 1_555
H13 C15 1_555 1_555
H14 C16 1_555 1_555
O3B Cu1 1_555 1_555
Cu1B O3 1_555 1_555
C4 C5 1_555 1_555
C5 C6 1_555 1_555
C8 C13 1_555 1_555
C11 C12 1_555 1_555
C15 C16 1_555 1_555

#END
