
#######################################################################
#
#                 Cambridge Crystallographic Data Centre
#                                CCDC 
#
#######################################################################
#
# If this CIF has been generated from an entry in the Cambridge 
# Structural Database, then it will include bibliographic, chemical, 
# crystal, experimental, refinement or atomic coordinate data resulting 
# from the CCDC's data processing and validation procedures.
#
#######################################################################

data_HEKKUD
_symmetry_cell_setting           orthorhombic
_symmetry_space_group_name_H-M   'P b c a'
_symmetry_Int_Tables_number      61
_space_group_name_Hall           '-P 2ac 2ab'
loop_
_symmetry_equiv_pos_site_id
_symmetry_equiv_pos_as_xyz
1 x,y,z
2 1/2-x,-y,1/2+z
3 1/2+x,1/2-y,-z
4 -x,1/2+y,1/2-z
5 -x,-y,-z
6 1/2+x,y,1/2-z
7 1/2-x,1/2+y,z
8 x,1/2-y,1/2+z
_cell_length_a                   6.603(1)
_cell_length_b                   11.933(2)
_cell_length_c                   16.743(3)
_cell_angle_alpha                90
_cell_angle_beta                 90
_cell_angle_gamma                90
_cell_volume                     1319.24
loop_
_atom_site_label
_atom_site_type_symbol
_atom_site_fract_x
_atom_site_fract_y
_atom_site_fract_z
Ag1 Ag 0.00063(6) 0.24848(2) 0.24795(2)
N1 N 0.0854(4) 0.0987(2) 0.3065(2)
C1 C 0.0775(6) -0.0015(2) 0.2664(2)
O1 O 0.0613(5) -0.0029(2) 0.1922(2)
N2 N -0.0851(4) 0.3998(2) 0.1913(2)
C2 C -0.1308(6) 0.4032(3) 0.1138(2)
C3 C -0.1639(6) 0.5017(3) 0.0734(2)
C4 C 0.1288(6) 0.0981(3) 0.3843(2)
H1 H -0.141 0.334 0.085
H2 H -0.209 0.503 0.019
H3 H 0.136 0.168 0.412
N2C N 0.0851(4) -0.1002(2) 0.3087(2)
C1C C -0.0775(6) 0.4985(2) 0.2336(2)
C4C C -0.1288(6) 0.5981(3) 0.1157(2)
C3C C 0.1639(6) 0.0017(3) 0.4266(2)
Ag1C Ag -0.00063(6) -0.25152(2) 0.25205(2)
C2C C 0.1308(6) -0.0968(3) 0.3862(2)
N1C N -0.0854(4) 0.5987(2) 0.1935(2)
O1C O -0.0613(5) 0.4971(2) 0.3078(2)
H3C H -0.136 0.668 0.088
H2C H 0.209 0.003 0.481
N1C_2 N -0.0854(4) -0.4013(2) 0.1935(2)
H1C H 0.141 -0.166 0.415
Ag1C_2 Ag -0.00063(6) 0.74848(2) 0.25205(2)
O2 O 0.1211(5) 0.1656(2) 0.0767(2)
H4 H 0.058(7) 0.157(4) 0.034(2)
H5 H 0.091(8) 0.116(3) 0.110(2)
O3 O 0.0990(5) -0.1615(3) 0.0671(2)
H6 H 0.193(5) -0.210(3) 0.076(3)
H7 H 0.088(8) -0.124(4) 0.110(2)
loop_
_geom_bond_atom_site_label_1
_geom_bond_atom_site_label_2
_geom_bond_site_symmetry_1
_geom_bond_site_symmetry_2
Ag1 N1 1_555 1_555
N1 C1 1_555 1_555
C1 O1 1_555 1_555
N2 Ag1 1_555 1_555
C2 N2 1_555 1_555
C3 C2 1_555 1_555
C4 N1 1_555 1_555
O2 H4 1_555 1_555
O3 H6 1_555 1_555
H1 C2 1_555 1_555
H2 C3 1_555 1_555
H3 C4 1_555 1_555
H5 O2 1_555 1_555
H7 O3 1_555 1_555
N2C C1 1_555 1_555
C1C N2 1_555 1_555
C4C C3 1_555 1_555
C3C C4 1_555 1_555
Ag1C N2C 1_555 1_555
C2C N2C 1_555 1_555
N1C C1C 1_555 1_555
O1C C1C 1_555 1_555
H3C C4C 1_555 1_555
H2C C3C 1_555 1_555
N1C_2 Ag1C 1_555 1_555
H1C C2C 1_555 1_555
Ag1C_2 N1C 1_555 1_555
C4C N1C 1_555 1_555
C3C C2C 1_555 1_555

#END
