
#######################################################################
#
#                 Cambridge Crystallographic Data Centre
#                                CCDC 
#
#######################################################################
#
# If this CIF has been generated from an entry in the Cambridge 
# Structural Database, then it will include bibliographic, chemical, 
# crystal, experimental, refinement or atomic coordinate data resulting 
# from the CCDC's data processing and validation procedures.
#
#######################################################################

data_HEKMAL
_symmetry_cell_setting           monoclinic
_symmetry_space_group_name_H-M   'P 21/c'
_symmetry_Int_Tables_number      14
_space_group_name_Hall           '-P 2ybc'
loop_
_symmetry_equiv_pos_site_id
_symmetry_equiv_pos_as_xyz
1 x,y,z
2 -x,1/2+y,1/2-z
3 -x,-y,-z
4 x,1/2-y,1/2+z
_cell_length_a                   9.741(4)
_cell_length_b                   10.287(5)
_cell_length_c                   16.790(9)
_cell_angle_alpha                90
_cell_angle_beta                 92.05(4)
_cell_angle_gamma                90
_cell_volume                     1681.38
loop_
_atom_site_label
_atom_site_type_symbol
_atom_site_fract_x
_atom_site_fract_y
_atom_site_fract_z
Pb1 Pb 0.01089(3) 0.05910(4) 0.24372(2)
Br1 Br -0.07470(10) -0.19848(9) 0.17684(5)
C1 C -0.1936(8) 0.1269(10) 0.1994(6)
C2 C -0.2959(9) 0.1390(10) 0.2624(6)
C3 C -0.3559(9) 0.0297(10) 0.2976(6)
C4 C -0.4507(9) 0.0445(11) 0.3552(7)
C5 C -0.4902(10) 0.1649(11) 0.3807(6)
C6 C -0.4314(10) 0.2736(12) 0.3472(7)
C7 C -0.3341(10) 0.2617(11) 0.2895(6)
C8 C 0.1815(9) 0.0776(10) 0.1609(5)
C9 C 0.2979(10) 0.1451(11) 0.1812(6)
C10 C 0.4022(10) 0.1625(11) 0.1272(7)
C11 C 0.3848(12) 0.1115(12) 0.0507(7)
C12 C 0.2679(12) 0.0450(12) 0.0296(6)
C13 C 0.1666(10) 0.0262(10) 0.0844(6)
C14 C 0.0631(9) -0.0384(9) 0.3575(5)
C15 C -0.0311(9) -0.1137(10) 0.3969(5)
C16 C 0.0095(10) -0.1733(9) 0.4677(6)
C17 C 0.1407(10) -0.1622(10) 0.4977(6)
C18 C 0.2327(10) -0.0877(11) 0.4566(6)
C19 C 0.1955(9) -0.0240(10) 0.3873(6)
H1 H -0.1833(8) 0.2108(10) 0.1740(6)
H2 H -0.2286(8) 0.0665(10) 0.1592(6)
H3 H -0.3309(9) -0.0533(10) 0.2816(6)
H4 H -0.4892(9) -0.0291(11) 0.3776(7)
H5 H -0.5551(10) 0.1735(11) 0.4196(6)
H6 H -0.4576(10) 0.3559(12) 0.3637(7)
H7 H -0.2940(10) 0.3358(11) 0.2687(6)
H8 H 0.3082(10) 0.1804(11) 0.2321(6)
H9 H 0.4819(10) 0.2074(11) 0.1420(7)
H10 H 0.4529(12) 0.1228(12) 0.0140(7)
H11 H 0.2561(12) 0.0122(12) -0.0218(6)
H12 H 0.0883(10) -0.0211(10) 0.0699(6)
H13 H -0.1202(9) -0.1240(10) 0.3761(5)
H14 H -0.0539(10) -0.2217(9) 0.4954(6)
H15 H 0.1678(10) -0.2039(10) 0.5448(6)
H16 H 0.3227(10) -0.0804(11) 0.4766(6)
H17 H 0.2583(9) 0.0274(10) 0.3612(6)
Br1A Br 0.07470(10) 0.30152(9) 0.32316(5)
Pb1A Pb -0.01089(3) -0.44090(4) 0.25628(2)
loop_
_geom_bond_atom_site_label_1
_geom_bond_atom_site_label_2
_geom_bond_site_symmetry_1
_geom_bond_site_symmetry_2
Pb1 Br1 1_555 1_555
Br1 Pb1A 1_555 1_555
C1 Pb1 1_555 1_555
C2 C1 1_555 1_555
C3 C2 1_555 1_555
C4 C3 1_555 1_555
C5 C4 1_555 1_555
C6 C5 1_555 1_555
C7 C2 1_555 1_555
C8 Pb1 1_555 1_555
C9 C8 1_555 1_555
C10 C9 1_555 1_555
C11 C10 1_555 1_555
C12 C11 1_555 1_555
C13 C8 1_555 1_555
C14 Pb1 1_555 1_555
C15 C14 1_555 1_555
C16 C15 1_555 1_555
C17 C16 1_555 1_555
C18 C17 1_555 1_555
C19 C14 1_555 1_555
H1 C1 1_555 1_555
H2 C1 1_555 1_555
H3 C3 1_555 1_555
H4 C4 1_555 1_555
H5 C5 1_555 1_555
H6 C6 1_555 1_555
H7 C7 1_555 1_555
H8 C9 1_555 1_555
H9 C10 1_555 1_555
H10 C11 1_555 1_555
H11 C12 1_555 1_555
H12 C13 1_555 1_555
H13 C15 1_555 1_555
H14 C16 1_555 1_555
H15 C17 1_555 1_555
H16 C18 1_555 1_555
H17 C19 1_555 1_555
Br1A Pb1 1_555 1_555
C6 C7 1_555 1_555
C12 C13 1_555 1_555
C18 C19 1_555 1_555

#END
