
#######################################################################
#
#                 Cambridge Crystallographic Data Centre
#                                CCDC 
#
#######################################################################
#
# If this CIF has been generated from an entry in the Cambridge 
# Structural Database, then it will include bibliographic, chemical, 
# crystal, experimental, refinement or atomic coordinate data resulting 
# from the CCDC's data processing and validation procedures.
#
#######################################################################

data_HEKSAT
_symmetry_cell_setting           triclinic
_symmetry_space_group_name_H-M   'P -1'
_symmetry_Int_Tables_number      2
_space_group_name_Hall           '-P 1'
loop_
_symmetry_equiv_pos_site_id
_symmetry_equiv_pos_as_xyz
1 x,y,z
2 -x,-y,-z
_cell_length_a                   10.3104(5)
_cell_length_b                   10.6393(5)
_cell_length_c                   12.5964(7)
_cell_angle_alpha                88.1310(10)
_cell_angle_beta                 74.9140(10)
_cell_angle_gamma                86.0470(10)
_cell_volume                     1330.82
loop_
_atom_site_label
_atom_site_type_symbol
_atom_site_fract_x
_atom_site_fract_y
_atom_site_fract_z
N1 N 0.7096(7) 0.6974(6) 0.1263(5)
C27 C 0.7254(5) 0.7236(5) 0.2071(5)
C28 C 0.7488(5) 0.7553(5) 0.3096(4)
H22 H 0.8161 0.6967 0.3263
H23 H 0.6667 0.7515 0.3667
H24 H 0.7794 0.8390 0.3047
C1 C 0.1608(3) 0.7208(2) 0.3818(2)
C2 C 0.2262(3) 0.8412(2) 0.3873(2)
C3 C 0.3599(3) 0.8442(2) 0.3861(2)
H1 H 0.4127 0.7691 0.3813
C4 C 0.4174(3) 0.9568(2) 0.3919(2)
H2 H 0.5071 0.9562 0.3937
C5 C 0.3417(2) 1.0707(2) 0.3950(2)
C6 C 0.2066(2) 1.0668(2) 0.3980(2)
H3 H 0.1537 1.1418 0.4016
C7 C 0.1497(3) 0.9549(2) 0.3957(2)
H4 H 0.0583 0.9549 0.3997
C8 C 0.5219(2) 1.22734(19) 0.37390(19)
C9 C 0.6361(2) 1.1563(2) 0.3202(2)
H5 H 0.6279 1.0766 0.2954
C10 C 0.7614(2) 1.2019(2) 0.3029(2)
H6 H 0.8366 1.1512 0.2680
C11 C 0.7793(2) 1.3210(2) 0.33580(19)
C12 C 0.6641(2) 1.3939(2) 0.3843(2)
H7 H 0.6721 1.4755 0.4049
C13 C 0.5383(2) 1.3494(2) 0.4030(2)
H8 H 0.4630 1.4012 0.4355
C14 C 0.9152(2) 1.3694(2) 0.3174(2)
C15 C 0.1361(3) 0.5532(2) 0.0523(2)
H9 H 0.1630 0.4714 0.0284
C16 C 0.1125(3) 0.6503(2) -0.0125(2)
H10 H 0.1192 0.6485 -0.0875
C17 C 0.0791(3) 0.7115(2) 0.1562(2)
H11 H 0.0579 0.7622 0.2178
C18 C 0.0377(3) 0.8791(2) 0.0259(2)
C19 C 0.0653(3) 0.9786(2) 0.0820(2)
H12 H 0.1098 0.9642 0.1371
C20 C -0.0262(3) 0.8993(2) -0.0556(2)
H13 H -0.0436 0.8316 -0.0935
C21 C 0.4314(3) 0.4259(2) 0.1573(2)
H14 H 0.4594 0.5048 0.1677
C22 C 0.5082(3) 0.3354(2) 0.0942(2)
H15 H 0.5971 0.3400 0.0533
C23 C 0.3089(2) 0.2698(2) 0.1687(2)
H16 H 0.2366 0.2186 0.1873
C24 C 0.4665(2) 0.1149(2) 0.0498(2)
C25 C 0.5481(3) 0.1081(2) -0.0551(2)
H17 H 0.5806 0.1810 -0.0923
C26 C 0.4179(3) 0.0073(2) 0.1053(2)
H18 H 0.3624 0.0123 0.1764
Co1 Co 0.13594(3) 0.48558(3) 0.29910(3)
H19 H 0.100(3) 0.356(2) 0.477(2)
H20 H 0.161(3) 0.453(3) 0.495(3)
H21 H 0.3297(17) 1.2455(16) 0.415(2)
N2 N 0.30550(19) 0.38503(16) 0.20433(16)
N3 N 0.4300(2) 0.23525(17) 0.10185(17)
N4 N 0.1152(2) 0.59105(17) 0.15770(16)
N5 N 0.0765(2) 0.75275(17) 0.05469(17)
N6 N 0.3915(2) 1.18843(17) 0.39899(19)
O1 O 0.0356(2) 0.72286(19) 0.40843(17)
O2 O 0.2362(2) 0.62463(16) 0.34623(17)
O3 O 1.01643(17) 1.31125(16) 0.26062(16)
O4 O 0.92626(17) 1.47341(15) 0.35996(14)
O5 O 0.15950(18) 0.39178(17) 0.45026(14)
C1_2 C -0.8392(3) -0.2792(2) 0.3818(2)
C2_2 C -0.7738(3) -0.1588(2) 0.3873(2)
C3_2 C -0.6401(3) -0.1558(2) 0.3861(2)
H1_2 H -0.5873 -0.2309 0.3813
C4_2 C -0.5826(3) -0.0432(2) 0.3919(2)
H2_2 H -0.4929 -0.0438 0.3937
C5_2 C -0.6583(2) 0.0707(2) 0.3950(2)
C6_2 C -0.7934(2) 0.0668(2) 0.3980(2)
H3_2 H -0.8463 0.1418 0.4016
C7_2 C -0.8503(3) -0.0451(2) 0.3957(2)
H4_2 H -0.9417 -0.0451 0.3997
C8_2 C -0.4781(2) 0.22734(19) 0.37390(19)
C9_2 C -0.3639(2) 0.1563(2) 0.3202(2)
H5_2 H -0.3721 0.0766 0.2954
C10_2 C -0.2386(2) 0.2019(2) 0.3029(2)
H6_2 H -0.1634 0.1512 0.2680
C11_2 C -0.2207(2) 0.3210(2) 0.33580(19)
C12_2 C -0.3359(2) 0.3939(2) 0.3843(2)
H7_2 H -0.3279 0.4755 0.4049
C13_2 C -0.4617(2) 0.3494(2) 0.4030(2)
H8_2 H -0.5370 0.4012 0.4355
C14_2 C -0.0848(2) 0.3694(2) 0.3174(2)
C15A C -0.1361(3) 1.4468(2) -0.0523(2)
H9A H -0.1630 1.5286 -0.0284
C16A C -0.1125(3) 1.3497(2) 0.0125(2)
H10A H -0.1192 1.3515 0.0875
C17A C -0.0791(3) 1.2885(2) -0.1562(2)
H11A H -0.0579 1.2378 -0.2178
C18A C -0.0377(3) 1.1209(2) -0.0259(2)
C19A C -0.0653(3) 1.0214(2) -0.0820(2)
H12A H -0.1098 1.0358 -0.1371
C20A C 0.0262(3) 1.1007(2) 0.0556(2)
H13A H 0.0436 1.1684 0.0935
C21A C 0.5686(3) -0.4259(2) -0.1573(2)
H14A H 0.5406 -0.5048 -0.1677
C22A C 0.4918(3) -0.3354(2) -0.0942(2)
H15A H 0.4029 -0.3400 -0.0533
C23A C 0.6911(2) -0.2698(2) -0.1687(2)
H16A H 0.7634 -0.2186 -0.1873
C24A C 0.5335(2) -0.1149(2) -0.0498(2)
C25A C 0.4519(3) -0.1081(2) 0.0551(2)
H17A H 0.4194 -0.1810 0.0923
C26A C 0.5821(3) -0.0073(2) -0.1053(2)
H18A H 0.6376 -0.0123 -0.1764
Co1A Co 0.86406(3) -0.48558(3) -0.29910(3)
Co1_2 Co 1.13594(3) 1.48558(3) 0.29910(3)
Co1A_2 Co -0.13594(3) 1.51442(3) -0.29910(3)
Co1_3 Co -0.86406(3) -0.51442(3) 0.29910(3)
H19A H 0.900(3) -0.356(2) -0.477(2)
H20A H 0.839(3) -0.453(3) -0.495(3)
H21_2 H -0.6703(17) 0.2455(16) 0.415(2)
N2A N 0.69450(19) -0.38503(16) -0.20433(16)
N3A N 0.5700(2) -0.23525(17) -0.10185(17)
N4A N -0.1152(2) 1.40895(17) -0.15770(16)
N4A_2 N 0.8848(2) -0.59105(17) -0.15770(16)
N5A N -0.0765(2) 1.24725(17) -0.05469(17)
N6_2 N -0.6085(2) 0.18843(17) 0.39899(19)
O1_2 O -0.9644(2) -0.27714(19) 0.40843(17)
O2_2 O -0.7638(2) -0.37537(16) 0.34623(17)
O2A O 0.7638(2) -0.62463(16) -0.34623(17)
O3_2 O 0.01643(17) 0.31125(16) 0.26062(16)
O4_2 O -0.07374(17) 0.47341(15) 0.35996(14)
O4A O 1.07374(17) -0.47341(15) -0.35996(14)
O5A O 0.84050(18) -0.39178(17) -0.45026(14)
loop_
_geom_bond_atom_site_label_1
_geom_bond_atom_site_label_2
_geom_bond_site_symmetry_1
_geom_bond_site_symmetry_2
N1 C27 1_555 1_555
C1 C2 1_555 1_555
C2 C3 1_555 1_555
C3 H1 1_555 1_555
C4 C3 1_555 1_555
H2 C4 1_555 1_555
C5 C4 1_555 1_555
C6 C5 1_555 1_555
H3 C6 1_555 1_555
C7 C2 1_555 1_555
H4 C7 1_555 1_555
C8 C9 1_555 1_555
C9 H5 1_555 1_555
C10 C9 1_555 1_555
H6 C10 1_555 1_555
C11 C10 1_555 1_555
C12 C11 1_555 1_555
H7 C12 1_555 1_555
C13 C8 1_555 1_555
H8 C13 1_555 1_555
C14 C11 1_555 1_555
C15 H9 1_555 1_555
C16 C15 1_555 1_555
H10 C16 1_555 1_555
C17 H11 1_555 1_555
C18 C19 1_555 1_555
C19 H12 1_555 1_555
C20 C18 1_555 1_555
H13 C20 1_555 1_555
C21 H14 1_555 1_555
C22 C21 1_555 1_555
H15 C22 1_555 1_555
C23 H16 1_555 1_555
C24 C25 1_555 1_555
C25 H17 1_555 1_555
C26 C24 1_555 1_555
H18 C26 1_555 1_555
Co1 N2 1_555 1_555
H19 O5 1_555 1_555
H20 O5 1_555 1_555
H21 N6 1_555 1_555
N2 C21 1_555 1_555
N3 C22 1_555 1_555
N4 C15 1_555 1_555
N5 C16 1_555 1_555
N6 C5 1_555 1_555
O1 C1 1_555 1_555
O2 C1 1_555 1_555
O3 C14 1_555 1_555
O4 C14 1_555 1_555
O5 Co1 1_555 1_555
C27 C28 1_555 1_555
C28 H22 1_555 1_555
H23 C28 1_555 1_555
H24 C28 1_555 1_555
C1_2 C2_2 1_555 1_555
C2_2 C3_2 1_555 1_555
C3_2 H1_2 1_555 1_555
C4_2 C3_2 1_555 1_555
H2_2 C4_2 1_555 1_555
C5_2 C4_2 1_555 1_555
C6_2 C5_2 1_555 1_555
H3_2 C6_2 1_555 1_555
C7_2 C2_2 1_555 1_555
H4_2 C7_2 1_555 1_555
C8_2 C9_2 1_555 1_555
C9_2 H5_2 1_555 1_555
C10_2 C9_2 1_555 1_555
H6_2 C10_2 1_555 1_555
C11_2 C10_2 1_555 1_555
C12_2 C11_2 1_555 1_555
H7_2 C12_2 1_555 1_555
C13_2 C8_2 1_555 1_555
H8_2 C13_2 1_555 1_555
C14_2 C11_2 1_555 1_555
C15A H9A 1_555 1_555
C16A C15A 1_555 1_555
H10A C16A 1_555 1_555
C17A H11A 1_555 1_555
C18A C19A 1_555 1_555
C19A C20 1_555 1_555
H12A C19A 1_555 1_555
C20A C19 1_555 1_555
H13A C20A 1_555 1_555
C21A H14A 1_555 1_555
C22A C21A 1_555 1_555
H15A C22A 1_555 1_555
C23A H16A 1_555 1_555
C24A C25A 1_555 1_555
C25A C26 1_555 1_555
H17A C25A 1_555 1_555
C26A C25 1_555 1_555
H18A C26A 1_555 1_555
Co1A N2A 1_555 1_555
Co1_2 O4 1_555 1_555
Co1A_2 N4A 1_555 1_555
Co1_3 O2_2 1_555 1_555
H19A O5A 1_555 1_555
H20A O5A 1_555 1_555
H21_2 N6_2 1_555 1_555
N2A C21A 1_555 1_555
N3A C22A 1_555 1_555
N4A C15A 1_555 1_555
N4A_2 Co1A 1_555 1_555
N5A C16A 1_555 1_555
N6_2 C5_2 1_555 1_555
O1_2 C1_2 1_555 1_555
O2_2 C1_2 1_555 1_555
O2A Co1A 1_555 1_555
O3_2 C14_2 1_555 1_555
O4_2 Co1 1_555 1_555
O4A Co1A 1_555 1_555
O5A Co1A 1_555 1_555
C6 C7 1_555 1_555
C8 N6 1_555 1_555
C12 C13 1_555 1_555
C17 N4 1_555 1_555
C17 N5 1_555 1_555
C18 N5 1_555 1_555
C23 N2 1_555 1_555
C23 N3 1_555 1_555
C24 N3 1_555 1_555
Co1 N4 1_555 1_555
Co1 O2 1_555 1_555
C6_2 C7_2 1_555 1_555
C8_2 N6_2 1_555 1_555
C12_2 C13_2 1_555 1_555
C14_2 O4_2 1_555 1_555
C17A N4A 1_555 1_555
C17A N5A 1_555 1_555
C18A C20A 1_555 1_555
C18A N5A 1_555 1_555
C23A N2A 1_555 1_555
C23A N3A 1_555 1_555
C24A C26A 1_555 1_555
C24A N3A 1_555 1_555

#END
