
#######################################################################
#
#                 Cambridge Crystallographic Data Centre
#                                CCDC 
#
#######################################################################
#
# If this CIF has been generated from an entry in the Cambridge 
# Structural Database, then it will include bibliographic, chemical, 
# crystal, experimental, refinement or atomic coordinate data resulting 
# from the CCDC's data processing and validation procedures.
#
#######################################################################

data_HEKSUN
_symmetry_cell_setting           triclinic
_symmetry_space_group_name_H-M   'P -1'
_symmetry_Int_Tables_number      2
_space_group_name_Hall           '-P 1'
loop_
_symmetry_equiv_pos_site_id
_symmetry_equiv_pos_as_xyz
1 x,y,z
2 -x,-y,-z
_cell_length_a                   9.8322(17)
_cell_length_b                   10.2287(17)
_cell_length_c                   15.171(3)
_cell_angle_alpha                72.934(2)
_cell_angle_beta                 84.297(3)
_cell_angle_gamma                63.824(2)
_cell_volume                     1308.18
loop_
_atom_site_label
_atom_site_type_symbol
_atom_site_fract_x
_atom_site_fract_y
_atom_site_fract_z
C1 C 0.2922(9) 0.3909(10) 0.4829(5)
C2 C 0.3116(9) 0.4261(10) 0.5664(6)
C3 C 0.4534(11) 0.4027(11) 0.5925(6)
H1 H 0.5365 0.3607 0.5579
C4 C 0.4739(10) 0.4409(11) 0.6693(6)
H2 H 0.5695 0.4276 0.6842
C5 C 0.3537(10) 0.4981(10) 0.7233(6)
C6 C 0.2100(10) 0.5182(10) 0.6997(6)
H3 H 0.1281 0.5545 0.7364
C7 C 0.1910(10) 0.4836(10) 0.6210(5)
H4 H 0.0950 0.4994 0.6048
C8 C 0.3112(10) 0.5387(10) 0.8804(6)
C9 C 0.2336(10) 0.4515(10) 0.9187(6)
H5 H 0.2090 0.4046 0.8829
C10 C 0.1927(10) 0.4340(11) 1.0093(6)
H6 H 0.1399 0.3759 1.0336
C11 C 0.2285(9) 0.5011(10) 1.0654(6)
C12 C 0.2976(11) 0.5955(11) 1.0244(6)
H7 H 0.3192 0.6456 1.0593
C13 C 0.3342(12) 0.6160(11) 0.9347(6)
H8 H 0.3759 0.6839 0.9085
C14 C 0.2136(9) 0.4591(10) 1.1664(6)
C15 C 0.5626(13) -0.0238(14) 0.3316(7)
H9 H 0.5781 -0.0657 0.3951
C16 C 0.4699(12) 0.1161(12) 0.2027(6)
H10 H 0.4022 0.1935 0.1564
C17 C 0.6563(13) -0.0839(14) 0.2683(7)
H11 H 0.7446 -0.1741 0.2803
C18 C 0.6649(9) 0.0027(9) 0.0979(5)
C19 C 0.5804(10) 0.1011(10) 0.0182(6)
H12 H 0.4788 0.1660 0.0213
C20 C 0.6482(10) 0.1023(10) -0.0662(6)
H13 H 0.5907 0.1693 -0.1193
C21 C 0.7981(10) 0.0076(9) -0.0743(6)
C22 C 0.8782(11) -0.0940(11) 0.0062(6)
H14 H 0.9783 -0.1625 0.0029
C23 C 0.8126(11) -0.0965(11) 0.0923(6)
H15 H 0.8690 -0.1651 0.1455
C24 C 0.8723(10) 0.0165(9) -0.1640(6)
C25 C 0.8475(11) 0.1542(10) -0.2248(6)
H16 H 0.7798 0.2422 -0.2099
C26 C 0.9205(11) 0.1667(10) -0.3083(6)
H17 H 0.9037 0.2615 -0.3479
C27 C 1.0171(10) 0.0377(9) -0.3309(6)
C28 C 1.0440(14) -0.0972(11) -0.2723(7)
H18 H 1.1109 -0.1850 -0.2877
C29 C 0.9728(14) -0.1086(11) -0.1878(7)
H19 H 0.9950 -0.2039 -0.1472
C30 C 1.0885(10) 0.1730(10) -0.4789(6)
H20 H 1.0347 0.2704 -0.4724
C31 C 1.2316(13) -0.0124(11) -0.5338(7)
H21 H 1.2939 -0.0675 -0.5729
C32 C 1.1868(14) -0.0721(11) -0.4499(8)
H22 H 1.2149 -0.1745 -0.4209
N1 N 0.4467(9) 0.1021(9) 0.2909(5)
N2 N 0.5995(8) 0.0089(8) 0.1861(5)
N3 N 1.0928(9) 0.0467(8) -0.4161(5)
N4 N 1.1701(9) 0.1415(9) -0.5509(5)
N5 N 0.3786(9) 0.5434(9) 0.7948(5)
H23 H 0.4446 0.5795 0.7854
O1 O 0.4041(7) 0.2908(7) 0.4548(4)
O2 O 0.1645(7) 0.4580(7) 0.4412(4)
O3 O 0.1319(7) 0.3898(8) 1.2017(4)
O4 O 0.2965(8) 0.4765(7) 1.2157(4)
Zn1 Zn 0.25789(7) 0.29257(7) 0.34460(4)
N4_2 N 0.1701(9) 0.1415(9) 0.4491(5)
O3_2 O 0.1319(7) 0.3898(8) 0.2017(4)
O4_2 O 0.2965(8) 0.4765(7) 0.2157(4)
Zn1_2 Zn 1.25789(7) 0.29257(7) -0.65540(4)
Zn1_3 Zn 0.25789(7) 0.29257(7) 1.34460(4)
loop_
_geom_bond_atom_site_label_1
_geom_bond_atom_site_label_2
_geom_bond_site_symmetry_1
_geom_bond_site_symmetry_2
C1 C2 1_555 1_555
C2 C3 1_555 1_555
C3 H1 1_555 1_555
C4 C3 1_555 1_555
H2 C4 1_555 1_555
C5 C4 1_555 1_555
C6 C5 1_555 1_555
H3 C6 1_555 1_555
C7 C2 1_555 1_555
H4 C7 1_555 1_555
C8 C9 1_555 1_555
C9 H5 1_555 1_555
C10 C9 1_555 1_555
H6 C10 1_555 1_555
C11 C10 1_555 1_555
C12 C11 1_555 1_555
H7 C12 1_555 1_555
C13 C8 1_555 1_555
H8 C13 1_555 1_555
C14 C11 1_555 1_555
C15 H9 1_555 1_555
C16 H10 1_555 1_555
C17 C15 1_555 1_555
H11 C17 1_555 1_555
C18 C19 1_555 1_555
C19 H12 1_555 1_555
C20 C19 1_555 1_555
H13 C20 1_555 1_555
C21 C20 1_555 1_555
C22 C21 1_555 1_555
H14 C22 1_555 1_555
C23 C18 1_555 1_555
H15 C23 1_555 1_555
C24 C21 1_555 1_555
C25 C24 1_555 1_555
H16 C25 1_555 1_555
C26 C25 1_555 1_555
H17 C26 1_555 1_555
C27 C26 1_555 1_555
C28 C27 1_555 1_555
H18 C28 1_555 1_555
C29 C24 1_555 1_555
H19 C29 1_555 1_555
C30 H20 1_555 1_555
C31 H21 1_555 1_555
C32 C31 1_555 1_555
H22 C32 1_555 1_555
N1 C15 1_555 1_555
N2 C16 1_555 1_555
N3 C27 1_555 1_555
N4 C30 1_555 1_555
N5 C5 1_555 1_555
H23 N5 1_555 1_555
O1 C1 1_555 1_555
O2 C1 1_555 1_555
O3 C14 1_555 1_555
O4 C14 1_555 1_555
Zn1 N1 1_555 1_555
N4_2 Zn1 1_555 1_555
O3_2 Zn1 1_555 1_555
O4_2 Zn1 1_555 1_555
Zn1_2 N4 1_555 1_555
Zn1_3 O3 1_555 1_555
C6 C7 1_555 1_555
C8 N5 1_555 1_555
C12 C13 1_555 1_555
C16 N1 1_555 1_555
C17 N2 1_555 1_555
C18 N2 1_555 1_555
C22 C23 1_555 1_555
C28 C29 1_555 1_555
C30 N3 1_555 1_555
C31 N4 1_555 1_555
C32 N3 1_555 1_555
O1 Zn1 1_555 1_555
O2 Zn1 1_555 1_555
O4 Zn1_3 1_555 1_555

#END
