
#######################################################################
#
#                 Cambridge Crystallographic Data Centre
#                                CCDC 
#
#######################################################################
#
# If this CIF has been generated from an entry in the Cambridge 
# Structural Database, then it will include bibliographic, chemical, 
# crystal, experimental, refinement or atomic coordinate data resulting 
# from the CCDC's data processing and validation procedures.
#
#######################################################################

data_HEKSIB
_symmetry_cell_setting           monoclinic
_symmetry_space_group_name_H-M   'P 21/c'
_symmetry_Int_Tables_number      14
_space_group_name_Hall           '-P 2ybc'
loop_
_symmetry_equiv_pos_site_id
_symmetry_equiv_pos_as_xyz
1 x,y,z
2 -x,1/2+y,1/2-z
3 -x,-y,-z
4 x,1/2-y,1/2+z
_cell_length_a                   9.9190(8)
_cell_length_b                   31.530(2)
_cell_length_c                   9.9180(8)
_cell_angle_alpha                90
_cell_angle_beta                 118.97
_cell_angle_gamma                90
_cell_volume                     2713.7
loop_
_atom_site_label
_atom_site_type_symbol
_atom_site_fract_x
_atom_site_fract_y
_atom_site_fract_z
C1 C 1.1024(5) 0.55862(12) 1.0294(5)
H1 H 1.0662 0.5336 1.0501
N1 N 1.2013(3) 0.56060(9) 0.9724(4)
C2 C 1.2215(4) 0.60148(11) 0.9613(5)
H2 H 1.2843 0.6125 0.9244
C3 C 1.0634(5) 0.59770(12) 1.0524(5)
H3 H 0.9967 0.6046 1.0900
N2 N 1.1418(3) 0.62517(9) 1.0092(4)
C4 C 1.2330(5) 0.69358(12) 0.9745(5)
H4 H 1.2936 0.6798 0.9401
C5 C 1.1445(4) 0.67063(11) 1.0184(5)
C6 C 1.0590(5) 0.69153(11) 1.0689(5)
H5 H 0.9983 0.6762 1.0997
Co1 Co 1.31258(6) 0.513300(14) 0.91443(6)
O1 O 1.3530(3) 0.55612(8) 0.7832(3)
O2 O 1.5307(3) 0.53046(6) 1.1262(3)
O3 O 1.2789(3) 0.46633(8) 1.0431(4)
N3 N 1.0435(3) 0.93594(9) 0.9032(4)
N4 N 0.8859(3) 0.98811(9) 0.7698(3)
O4 O 1.4836(3) 0.87081(7) 1.3593(3)
O5 O 1.5046(3) 0.49876(7) 1.3140(3)
O6 O 1.7298(3) 0.88239(7) 1.5252(3)
C7 C 1.6159(5) 0.85915(11) 1.4554(5)
N5 N 1.6584(5) 0.68290(10) 1.5999(4)
C8 C 1.5583(4) 0.57162(10) 1.3413(4)
C9 C 1.6330(4) 0.81228(10) 1.4909(5)
C10 C 1.5290(4) 0.53108(11) 1.2539(4)
C11 C 1.1337(4) 0.80655(11) 1.0178(4)
C12 C 1.1443(4) 0.75958(11) 1.0291(4)
C13 C 1.6223(4) 0.64704(11) 1.5085(5)
C14 C 1.5697(4) 0.60961(10) 1.2775(4)
H6 H 1.5571 0.6100 1.1783
C15 C 1.5444(4) 0.74066(11) 1.4141(4)
H7 H 1.4787 0.7218 1.3390
C16 C 1.5351(4) 0.78357(11) 1.3821(5)
H8 H 1.4617 0.7933 1.2856
C17 C 1.7401(4) 0.79718(10) 1.6325(4)
H9 H 1.8081 0.8160 1.7061
C18 C 1.6510(4) 0.72593(10) 1.5574(4)
C19 C 1.5996(4) 0.64679(10) 1.3600(4)
H10 H 1.6046 0.6722 1.3147
C20 C 0.8958(4) 0.94839(11) 0.8148(4)
H11 H 0.8111 0.9310 0.7887
C21 C 1.0229(4) 0.82850(11) 1.0378(4)
H12 H 0.9635 0.8139 1.0717
C22 C 1.0851(4) 0.89306(11) 0.9571(4)
C23 C 1.5810(4) 0.57152(11) 1.4891(4)
H13 H 1.5751 0.5461 1.5335
C24 C 0.9991(4) 0.87145(11) 1.0084(4)
H14 H 0.9251 0.8856 1.0234
C25 C 1.2028(4) 0.87329(11) 0.9463(4)
H15 H 1.2656 0.8884 0.9179
C26 C 1.6129(4) 0.60883(10) 1.5736(4)
H16 H 1.6279 0.6083 1.6737
C27 C 1.7492(4) 0.75426(10) 1.6681(4)
H17 H 1.8207 0.7447 1.7655
C28 C 1.0362(4) 1.00154(10) 0.8331(4)
H18 H 1.0668 1.0287 0.8226
C29 C 1.2260(4) 0.83060(11) 0.9784(5)
H19 H 1.3073 0.8174 0.9734
C30 C 1.2324(5) 0.73740(12) 0.9812(5)
H20 H 1.2945 0.7525 0.9519
C31 C 1.1323(4) 0.96972(11) 0.9122(4)
H21 H 1.2394 0.9707 0.9635
C32 C 1.0600(5) 0.73516(12) 1.0756(5)
H22 H 1.0013 0.7486 1.1130
H23 H 1.410(4) 0.5789(9) 0.816(5)
H24 H 1.281(5) 0.4395(7) 1.021(6)
H25 H 1.352(4) 0.4706(12) 1.136(3)
H26 H 1.404(5) 0.5425(14) 0.747(5)
H27 H 1.711(4) 0.6794(10) 1.689(4)
Co1B Co 1.68742(6) 0.486700(14) 1.08557(6)
Co1A Co 0.68742(6) 1.013300(14) 0.58557(6)
O2B O 1.4693(3) 0.46954(6) 0.8738(3)
N4A N 1.1141(3) 0.48811(9) 0.7302(3)
loop_
_geom_bond_atom_site_label_1
_geom_bond_atom_site_label_2
_geom_bond_site_symmetry_1
_geom_bond_site_symmetry_2
C1 H1 1_555 1_555
N1 C1 1_555 1_555
C2 N1 1_555 1_555
H2 C2 1_555 1_555
C3 C1 1_555 1_555
H3 C3 1_555 1_555
N2 C2 1_555 1_555
C4 H4 1_555 1_555
C5 N2 1_555 1_555
C6 C5 1_555 1_555
H5 C6 1_555 1_555
Co1 N1 1_555 1_555
O1 Co1 1_555 1_555
O2 Co1 1_555 1_555
O3 Co1 1_555 1_555
N3 C20 1_555 1_555
N4 C20 1_555 1_555
O4 C7 1_555 1_555
O5 C10 1_555 1_555
O6 C7 1_555 1_555
C7 C9 1_555 1_555
N5 C13 1_555 1_555
C8 C10 1_555 1_555
C9 C16 1_555 1_555
C10 O2 1_555 1_555
C11 C12 1_555 1_555
C12 C30 1_555 1_555
C13 C19 1_555 1_555
C14 C8 1_555 1_555
H6 C14 1_555 1_555
C15 H7 1_555 1_555
C16 C15 1_555 1_555
H8 C16 1_555 1_555
C17 C9 1_555 1_555
H9 C17 1_555 1_555
C18 N5 1_555 1_555
C19 C14 1_555 1_555
H10 C19 1_555 1_555
C20 H11 1_555 1_555
C21 C11 1_555 1_555
H12 C21 1_555 1_555
C22 N3 1_555 1_555
C23 C8 1_555 1_555
H13 C23 1_555 1_555
C24 C21 1_555 1_555
H14 C24 1_555 1_555
C25 C22 1_555 1_555
H15 C25 1_555 1_555
C26 C13 1_555 1_555
H16 C26 1_555 1_555
C27 C17 1_555 1_555
H17 C27 1_555 1_555
C28 N4 1_555 1_555
H18 C28 1_555 1_555
C29 C11 1_555 1_555
H19 C29 1_555 1_555
C30 C4 1_555 1_555
H20 C30 1_555 1_555
C31 N3 1_555 1_555
H21 C31 1_555 1_555
C32 C6 1_555 1_555
H22 C32 1_555 1_555
H23 O1 1_555 1_555
H24 O3 1_555 1_555
H25 O3 1_555 1_555
H26 O1 1_555 1_555
H27 N5 1_555 1_555
Co1B O2 1_555 1_555
Co1A N4 1_555 1_555
O2B Co1 1_555 1_555
N4A Co1 1_555 1_555
C3 N2 1_555 1_555
C4 C5 1_555 1_555
C12 C32 1_555 1_555
C15 C18 1_555 1_555
C18 C27 1_555 1_555
C22 C24 1_555 1_555
C23 C26 1_555 1_555
C25 C29 1_555 1_555
C28 C31 1_555 1_555
Co1B O2B 1_555 1_555

#END
