
#######################################################################
#
#                 Cambridge Crystallographic Data Centre
#                                CCDC 
#
#######################################################################
#
# If this CIF has been generated from an entry in the Cambridge 
# Structural Database, then it will include bibliographic, chemical, 
# crystal, experimental, refinement or atomic coordinate data resulting 
# from the CCDC's data processing and validation procedures.
#
#######################################################################

data_HEKTAU
_symmetry_cell_setting           monoclinic
_symmetry_space_group_name_H-M   'C 2/c'
_symmetry_Int_Tables_number      15
_space_group_name_Hall           '-C 2yn'
loop_
_symmetry_equiv_pos_site_id
_symmetry_equiv_pos_as_xyz
1 x,y,z
2 -x,y,1/2-z
3 1/2+x,1/2+y,z
4 1/2-x,1/2+y,1/2-z
5 -x,-y,-z
6 x,-y,1/2+z
7 1/2-x,1/2-y,-z
8 1/2+x,1/2-y,1/2+z
_cell_length_a                   28.978(6)
_cell_length_b                   11.392(2)
_cell_length_c                   21.953(4)
_cell_angle_alpha                90
_cell_angle_beta                 130.38(3)
_cell_angle_gamma                90
_cell_volume                     5520.56
loop_
_atom_site_label
_atom_site_type_symbol
_atom_site_fract_x
_atom_site_fract_y
_atom_site_fract_z
C1 C 0.1539(4) 0.1352(7) -0.4844(4)
C2 C 0.1268(3) 0.2137(6) -0.4592(4)
C3 C 0.1625(4) 0.2985(7) -0.4022(5)
H1 H 0.2038 0.3059 -0.3787
C4 C 0.1382(4) 0.3742(7) -0.3787(5)
H2 H 0.1638 0.4307 -0.3380
C5 C 0.0781(3) 0.3680(6) -0.4135(4)
C6 C 0.0418(4) 0.2826(7) -0.4727(5)
H3 H 0.0000 0.2763 -0.4987
C7 C 0.0680(4) 0.2068(7) -0.4931(5)
H4 H 0.0434 0.1481 -0.5324
C8 C 0.0514(3) 0.4516(7) -0.3905(4)
C9 C 0.0832(3) 0.5450(6) -0.3395(4)
H5 H 0.1236 0.5597 -0.3181
C10 C 0.0562(3) 0.6179(6) -0.3195(4)
C11 C 0.0888(3) 0.7188(6) -0.2636(4)
C12 C 0.1510(3) 0.7265(7) -0.2058(4)
H6 H 0.1760 0.6686 -0.2029
C13 C 0.1771(4) 0.8190(7) -0.1518(5)
H7 H 0.2200 0.8233 -0.1131
C14 C 0.0843(4) 0.8986(7) -0.2098(5)
H8 H 0.0608 0.9603 -0.2128
C15 C 0.0545(4) 0.8088(7) -0.2657(4)
H9 H 0.0115 0.8079 -0.3048
C16 C -0.0069(3) 0.4355(6) -0.4192(4)
H10 H -0.0299 0.3706 -0.4532
C17 C -0.0325(3) 0.5117(6) -0.3994(4)
C18 C -0.0963(3) 0.5018(6) -0.4330(4)
C19 C -0.1233(4) 0.5879(7) -0.4217(5)
H11 H -0.1004 0.6544 -0.3897
C20 C -0.1836(4) 0.5787(7) -0.4567(5)
H12 H -0.2011 0.6408 -0.4487
C21 C -0.1918(4) 0.4025(6) -0.5111(4)
H13 H -0.2156 0.3363 -0.5423
C22 C -0.1322(3) 0.4057(7) -0.4793(5)
H14 H -0.1159 0.3433 -0.4889
C23 C -0.3735(4) 0.2759(7) -0.6503(4)
C24 C -0.4090(4) 0.1810(8) -0.7118(5)
H15 H -0.4436 0.1587 -0.7159
H16 H -0.3830 0.1125 -0.6960
H17 H -0.4237 0.2099 -0.7638
Cd1 Cd -0.31511(3) 0.46552(5) -0.54435(3)
N2 N -0.0012(3) 0.6014(5) -0.3494(3)
N3 N 0.1448(3) 0.9020(5) -0.1517(4)
N4 N -0.2179(3) 0.4882(5) -0.5003(4)
O3 O 0.2041(3) 0.1538(5) -0.4635(3)
O4 O 0.1201(3) 0.0482(5) -0.5298(3)
O5 O -0.3176(3) 0.2853(5) -0.6122(3)
O6 O -0.4005(3) 0.3446(5) -0.6375(3)
O7 O -0.2670(2) 0.3721(4) -0.4232(3)
H29 H -0.2832 0.3510 -0.4053
H30 H -0.2337 0.3405 -0.3966
Cd1G Cd 0.18489(3) 1.03448(5) -0.04435(3)
Cd1B Cd 0.18489(3) -0.03448(5) -0.54435(3)
N3G N -0.3552(3) 0.5980(5) -0.6517(4)
O3B O -0.2959(3) 0.6538(5) -0.4635(3)
O4B O -0.3799(3) 0.5482(5) -0.5298(3)
C25 C -0.3665(14) 0.4052(15) -0.3785(9)
H18 H -0.4046 0.4329 -0.4290
H19 H -0.3748 0.3386 -0.3585
H20 H -0.3390 0.3805 -0.3875
C26 C -0.3776(15) 0.554(3) -0.307(2)
H21 H -0.3539 0.6076 -0.2612
H22 H -0.3954 0.4924 -0.2969
H23 H -0.4100 0.5981 -0.3551
N1 N -0.3383(8) 0.5013(13) -0.3190(9)
C27 C -0.2822(8) 0.5367(12) -0.2840(8)
O1 O -0.2592(8) 0.4765(16) -0.3076(10)
C28 C -0.2567(17) 0.6351(16) -0.2245(11)
H24 H -0.2124 0.6341 -0.1892
H25 H -0.2691 0.6251 -0.1925
H26 H -0.2720 0.7103 -0.2529
O2 O -0.4715(4) 0.3719(7) -0.5934(5)
H27 H -0.4554 0.3399 -0.6088
H28 H -0.4588 0.4394 -0.5808
C29? C -0.2604(17) 0.644(2) -0.2214(12)
C30? C -0.3647(16) 0.584(4) -0.289(2)
C31? C -0.3050(10) 0.4832(16) -0.3175(10)
C32? C -0.2436(10) 0.496(2) -0.2942(15)
H31? H -0.2307 0.6434 -0.2292
H32? H -0.2408 0.6194 -0.1667
H33? H -0.2763 0.7242 -0.2301
H34? H -0.3796 0.6638 -0.3093
H35? H -0.3551 0.5749 -0.2376
H36? H -0.3959 0.5271 -0.3274
H37? H -0.2129 0.4598 -0.2418
H38? H -0.2344 0.5795 -0.2916
H39? H -0.2438 0.4572 -0.3342
N5? N -0.3104(9) 0.5640(14) -0.2786(10)
O8? O -0.3479(14) 0.411(2) -0.3675(12)
loop_
_geom_bond_atom_site_label_1
_geom_bond_atom_site_label_2
_geom_bond_site_symmetry_1
_geom_bond_site_symmetry_2
C1 C2 1_555 1_555
C2 C3 1_555 1_555
C3 H1 1_555 1_555
C4 C3 1_555 1_555
H2 C4 1_555 1_555
C5 C4 1_555 1_555
C6 C5 1_555 1_555
H3 C6 1_555 1_555
C7 C2 1_555 1_555
H4 C7 1_555 1_555
C8 C5 1_555 1_555
C9 C8 1_555 1_555
H5 C9 1_555 1_555
C10 C9 1_555 1_555
C11 C10 1_555 1_555
C12 C11 1_555 1_555
H6 C12 1_555 1_555
C13 C12 1_555 1_555
H7 C13 1_555 1_555
C14 H8 1_555 1_555
C15 C11 1_555 1_555
H9 C15 1_555 1_555
C16 C8 1_555 1_555
H10 C16 1_555 1_555
C17 C16 1_555 1_555
C18 C17 1_555 1_555
C19 C18 1_555 1_555
H11 C19 1_555 1_555
C20 C19 1_555 1_555
H12 C20 1_555 1_555
C21 H13 1_555 1_555
C22 C18 1_555 1_555
H14 C22 1_555 1_555
C23 C24 1_555 1_555
C24 H15 1_555 1_555
H16 C24 1_555 1_555
H17 C24 1_555 1_555
Cd1 N4 1_555 1_555
C25 H18 1_555 1_555
H19 C25 1_555 1_555
H20 C25 1_555 1_555
C26 H21 1_555 1_555
H22 C26 1_555 1_555
H23 C26 1_555 1_555
N1 C25 1_555 1_555
C27 N1 1_555 1_555
O1 C27 1_555 1_555
C28 C27 1_555 1_555
H24 C28 1_555 1_555
H25 C28 1_555 1_555
H26 C28 1_555 1_555
O2 H27 1_555 1_555
H28 O2 1_555 1_555
N2 C10 1_555 1_555
N3 C13 1_555 1_555
N4 C20 1_555 1_555
O3 C1 1_555 1_555
O4 C1 1_555 1_555
O5 C23 1_555 1_555
O6 C23 1_555 1_555
O7 Cd1 1_555 1_555
H29 O7 1_555 1_555
H30 O7 1_555 1_555
Cd1G N3 1_555 1_555
Cd1B O3 1_555 1_555
N3G Cd1 1_555 1_555
O3B Cd1 1_555 1_555
O4B Cd1 1_555 1_555
C6 C7 1_555 1_555
C14 C15 1_555 1_555
C14 N3 1_555 1_555
C17 N2 1_555 1_555
C21 C22 1_555 1_555
C21 N4 1_555 1_555
Cd1 O5 1_555 1_555
Cd1 O6 1_555 1_555
C26 N1 1_555 1_555
O4 Cd1B 1_555 1_555

#END
