
#######################################################################
#
#                 Cambridge Crystallographic Data Centre
#                                CCDC 
#
#######################################################################
#
# If this CIF has been generated from an entry in the Cambridge 
# Structural Database, then it will include bibliographic, chemical, 
# crystal, experimental, refinement or atomic coordinate data resulting 
# from the CCDC's data processing and validation procedures.
#
#######################################################################

data_HEKTUO
_symmetry_cell_setting           monoclinic
_symmetry_space_group_name_H-M   'C 2/c'
_symmetry_Int_Tables_number      15
_space_group_name_Hall           '-C 2yn'
loop_
_symmetry_equiv_pos_site_id
_symmetry_equiv_pos_as_xyz
1 x,y,z
2 -x,y,1/2-z
3 1/2+x,1/2+y,z
4 1/2-x,1/2+y,1/2-z
5 -x,-y,-z
6 x,-y,1/2+z
7 1/2-x,1/2-y,-z
8 1/2+x,1/2-y,1/2+z
_cell_length_a                   19.9999(17)
_cell_length_b                   10.0714(6)
_cell_length_c                   18.9420(17)
_cell_angle_alpha                90
_cell_angle_beta                 101.196(6)
_cell_angle_gamma                90
_cell_volume                     3742.82
loop_
_atom_site_label
_atom_site_type_symbol
_atom_site_fract_x
_atom_site_fract_y
_atom_site_fract_z
Cd1 Cd 0.09487(2) 0.55110(4) 0.02588(2)
O1 O 0.3067(3) 0.8898(6) 0.0851(3)
C1 C 0.3251(3) 0.5999(9) 0.1925(4)
H1 H 0.3262 0.6619 0.1563
N1 N 0.3579(4) 1.0456(6) 0.1609(3)
Cd2 Cd 0.2500 0.7500 0.0000
O2 O 0.2081(2) 0.6103(6) 0.0795(3)
C2 C 0.2562(4) 1.1067(9) 0.0734(5)
H2 H 0.2241 1.0651 0.0356
H3 H 0.2785 1.1783 0.0538
H4 H 0.2327 1.1406 0.1092
O3 O 0.1497(2) 0.4993(6) 0.1429(3)
C3 C 0.4104(5) 0.9489(9) 0.1940(4)
H5 H 0.4029 0.8659 0.1688
H6 H 0.4077 0.9359 0.2435
H7 H 0.4548 0.9823 0.1910
O4 O 0.6020(2) 0.1595(4) 0.4913(3)
C4 C 0.5930(3) 0.6631(6) 0.4637(3)
O5 O 0.5038(2) 0.0824(4) 0.4332(3)
C5 C 0.3833(3) 0.5791(8) 0.2448(4)
H8 H 0.4230 0.6258 0.2426
O6 O 0.6531(2) 0.6372(4) 0.4921(3)
C6 C 0.4652(3) 0.3374(6) 0.3769(3)
H9 H 0.4373 0.2664 0.3589
O7 O 0.5653(2) 0.7755(4) 0.4584(2)
C7 C 0.5261(3) 0.3143(5) 0.4257(3)
C8 C 0.3222(3) 0.4223(7) 0.3028(3)
H10 H 0.3201 0.3639 0.3404
C9 C 0.3828(3) 0.4903(6) 0.2997(3)
C10 C 0.4881(3) 0.5725(6) 0.3833(3)
H11 H 0.4757 0.6592 0.3699
C11 C 0.5487(3) 0.5482(5) 0.4318(3)
C12 C 0.4461(3) 0.4675(6) 0.3549(3)
C13 C 0.2656(3) 0.4435(6) 0.2493(3)
H12 H 0.2257 0.3973 0.2511
C14 C 0.2661(3) 0.5307(6) 0.1932(3)
C15 C 0.2050(3) 0.5489(6) 0.1352(3)
C16 C 0.5677(3) 0.4209(6) 0.4518(3)
H13 H 0.6088 0.4057 0.4832
C17 C 0.5448(3) 0.1757(6) 0.4516(3)
C18 C 0.3089(4) 1.0055(8) 0.1075(4)
C19 C 0.3637(6) 1.1749(9) 0.1938(6)
H14 H 0.3277 1.2309 0.1694
H15 H 0.4070 1.2132 0.1905
H16 H 0.3603 1.1668 0.2435
Cd1F Cd 0.40513(2) 0.94890(4) -0.02588(2)
Cd1G Cd 0.59487(2) -0.05110(4) 0.52588(2)
Cd1C Cd 0.40513(2) 0.05110(4) 0.47412(2)
Cd1G_2 Cd 0.59487(2) 0.94890(4) 0.52588(2)
Cd1A Cd -0.09487(2) 1.55110(4) -0.52588(2)
Cd1E Cd 0.09487(2) 1.44890(4) -0.47412(2)
Cd1A_2 Cd -0.09487(2) 0.55110(4) -0.52588(2)
O1F O 0.1933(3) 0.6102(6) -0.0851(3)
C1F C 0.1749(3) 0.9001(9) -0.1925(4)
H1F H 0.1738 0.8381 -0.1563
N1F N 0.1421(4) 0.4544(6) -0.1609(3)
Cd2A Cd 0.7500 0.7500 0.5000
Cd2A_2 Cd -0.2500 0.7500 -0.5000
O2F O 0.2919(2) 0.8897(6) -0.0795(3)
C2F C 0.2438(4) 0.3933(9) -0.0734(5)
H2F H 0.2759 0.4349 -0.0356
H3F H 0.2215 0.3217 -0.0538
H4F H 0.2673 0.3594 -0.1092
O3F O 0.3503(2) 1.0007(6) -0.1429(3)
C3F C 0.0896(5) 0.5511(9) -0.1940(4)
H5F H 0.0971 0.6341 -0.1688
H6F H 0.0923 0.5641 -0.2435
H7F H 0.0452 0.5177 -0.1910
O4F O -0.1020(2) 1.3405(4) -0.4913(3)
O4G O 0.1020(2) 0.3405(4) -0.0087(3)
O4A O 0.3980(2) 1.1595(4) 0.0087(3)
C4F C -0.0930(3) 0.8369(6) -0.4637(3)
O5F O -0.0038(2) 1.4176(4) -0.4332(3)
O5C O -0.0038(2) 0.5824(4) 0.0668(3)
O5G O 0.0038(2) 0.4176(4) -0.0668(3)
O5E O 0.5038(2) 0.9176(4) -0.0668(3)
O5A O 0.4962(2) 1.0824(4) 0.0668(3)
C5F C 0.1167(3) 0.9209(8) -0.2448(4)
H8F H 0.0770 0.8742 -0.2426
O6F O -0.1531(2) 0.8628(4) -0.4921(3)
O6A O 0.3469(2) 0.6372(4) 0.0079(3)
O6G O 0.1531(2) 0.8628(4) -0.0079(3)
C6F C 0.0348(3) 1.1626(6) -0.3769(3)
H9F H 0.0627 1.2336 -0.3589
O7F O -0.0653(2) 0.7245(4) -0.4584(2)
O7G O 0.0653(2) 0.7245(4) -0.0416(2)
O7A O 0.4347(2) 0.7755(4) 0.0416(2)
C7F C -0.0261(3) 1.1857(5) -0.4257(3)
C8F C 0.1778(3) 1.0777(7) -0.3028(3)
H10F H 0.1799 1.1361 -0.3404
C9F C 0.1172(3) 1.0097(6) -0.2997(3)
C10F C 0.0119(3) 0.9275(6) -0.3833(3)
H11F H 0.0243 0.8408 -0.3699
C11F C -0.0487(3) 0.9518(5) -0.4318(3)
C12F C 0.0539(3) 1.0325(6) -0.3549(3)
C13F C 0.2344(3) 1.0565(6) -0.2493(3)
H12F H 0.2743 1.1027 -0.2511
C14F C 0.2339(3) 0.9693(6) -0.1932(3)
C15F C 0.2950(3) 0.9511(6) -0.1352(3)
C16F C -0.0677(3) 1.0791(6) -0.4518(3)
H13F H -0.1088 1.0943 -0.4832
C17F C -0.0448(3) 1.3243(6) -0.4516(3)
C18F C 0.1911(4) 0.4945(8) -0.1075(4)
C19F C 0.1363(6) 0.3251(9) -0.1938(6)
H14F H 0.1723 0.2691 -0.1694
H15F H 0.0930 0.2868 -0.1905
H16F H 0.1397 0.3332 -0.2435
loop_
_geom_bond_atom_site_label_1
_geom_bond_atom_site_label_2
_geom_bond_site_symmetry_1
_geom_bond_site_symmetry_2
Cd1 O2 1_555 1_555
O1 Cd2 1_555 1_555
C1 H1 1_555 1_555
N1 C3 1_555 1_555
Cd2 O2 1_555 1_555
O2 C15 1_555 1_555
C2 H2 1_555 1_555
H3 C2 1_555 1_555
H4 C2 1_555 1_555
O3 Cd1 1_555 1_555
C3 H5 1_555 1_555
H6 C3 1_555 1_555
H7 C3 1_555 1_555
O4 C17 1_555 1_555
C4 O6 1_555 1_555
O5 C17 1_555 1_555
C5 C1 1_555 1_555
H8 C5 1_555 1_555
O6 Cd2A 1_555 1_555
C6 H9 1_555 1_555
O7 C4 1_555 1_555
C7 C6 1_555 1_555
C8 H10 1_555 1_555
C9 C5 1_555 1_555
C10 H11 1_555 1_555
C11 C4 1_555 1_555
C12 C6 1_555 1_555
C13 C8 1_555 1_555
H12 C13 1_555 1_555
C14 C1 1_555 1_555
C15 O3 1_555 1_555
C16 C7 1_555 1_555
H13 C16 1_555 1_555
C17 C7 1_555 1_555
C18 O1 1_555 1_555
C19 N1 1_555 1_555
H14 C19 1_555 1_555
H15 C19 1_555 1_555
H16 C19 1_555 1_555
Cd1F O2F 1_555 1_555
Cd1G O4 1_555 1_555
Cd1C O5 1_555 1_555
Cd1G_2 O7 1_555 1_555
Cd1A O4F 1_555 1_555
Cd1E O5F 1_555 1_555
Cd1A_2 O7F 1_555 1_555
O1F Cd2 1_555 1_555
C1F H1F 1_555 1_555
N1F C3F 1_555 1_555
Cd2A_2 O6F 1_555 1_555
O2F Cd2 1_555 1_555
C2F H2F 1_555 1_555
H3F C2F 1_555 1_555
H4F C2F 1_555 1_555
O3F Cd1F 1_555 1_555
C3F H5F 1_555 1_555
H6F C3F 1_555 1_555
H7F C3F 1_555 1_555
O4F C17F 1_555 1_555
O4G Cd1 1_555 1_555
O4A Cd1F 1_555 1_555
C4F O6F 1_555 1_555
O5F Cd1A 1_555 1_555
O5C Cd1 1_555 1_555
O5G Cd1 1_555 1_555
O5E Cd1F 1_555 1_555
O5A Cd1F 1_555 1_555
C5F C1F 1_555 1_555
H8F C5F 1_555 1_555
O6A Cd2 1_555 1_555
O6G Cd2 1_555 1_555
C6F H9F 1_555 1_555
O7F C4F 1_555 1_555
O7G Cd1 1_555 1_555
O7A Cd1F 1_555 1_555
C7F C6F 1_555 1_555
C8F H10F 1_555 1_555
C9F C5F 1_555 1_555
C10F H11F 1_555 1_555
C11F C4F 1_555 1_555
C12F C6F 1_555 1_555
C13F C8F 1_555 1_555
H12F C13F 1_555 1_555
C14F C1F 1_555 1_555
C15F O2F 1_555 1_555
C16F C7F 1_555 1_555
H13F C16F 1_555 1_555
C17F O5F 1_555 1_555
C18F O1F 1_555 1_555
C19F N1F 1_555 1_555
H14F C19F 1_555 1_555
H15F C19F 1_555 1_555
H16F C19F 1_555 1_555
N1 C18 1_555 1_555
C2 C18 1_555 1_555
O5 Cd1G 1_555 1_555
C8 C9 1_555 1_555
C9 C12 1_555 1_555
C10 C11 1_555 1_555
C10 C12 1_555 1_555
C11 C16 1_555 1_555
C13 C14 1_555 1_555
C14 C15 1_555 1_555
N1F C18F 1_555 1_555
C2F C18F 1_555 1_555
O3F C15F 1_555 1_555
C7F C17F 1_555 1_555
C8F C9F 1_555 1_555
C9F C12F 1_555 1_555
C10F C11F 1_555 1_555
C10F C12F 1_555 1_555
C11F C16F 1_555 1_555
C13F C14F 1_555 1_555
C14F C15F 1_555 1_555

#END
