
#######################################################################
#
#                 Cambridge Crystallographic Data Centre
#                                CCDC 
#
#######################################################################
#
# If this CIF has been generated from an entry in the Cambridge 
# Structural Database, then it will include bibliographic, chemical, 
# crystal, experimental, refinement or atomic coordinate data resulting 
# from the CCDC's data processing and validation procedures.
#
#######################################################################

data_HEKVAW
_symmetry_cell_setting           monoclinic
_symmetry_space_group_name_H-M   'P 21/c'
_symmetry_Int_Tables_number      14
_space_group_name_Hall           '-P 2ybc'
loop_
_symmetry_equiv_pos_site_id
_symmetry_equiv_pos_as_xyz
1 x,y,z
2 -x,1/2+y,1/2-z
3 -x,-y,-z
4 x,1/2-y,1/2+z
_cell_length_a                   13.5962(13)
_cell_length_b                   18.848(2)
_cell_length_c                   7.7355(8)
_cell_angle_alpha                90
_cell_angle_beta                 96.832(9)
_cell_angle_gamma                90
_cell_volume                     1968.23
loop_
_atom_site_label
_atom_site_type_symbol
_atom_site_fract_x
_atom_site_fract_y
_atom_site_fract_z
Cd1 Cd 0.65033(3) 0.04423(2) 0.78328(6)
O1 O 0.7817(4) 0.1117(3) 0.6907(8)
O2 O 0.8209(5) 0.0589(3) 0.9399(9)
O3 O 1.4641(4) 0.4058(3) 0.7413(7)
O4 O 1.3054(4) 0.4304(2) 0.7406(8)
O5 O 1.5773(4) 0.1541(3) 0.8026(9)
O6 O 1.4643(4) 0.0707(2) 0.7558(7)
O7 O 0.6072(4) 0.0353(3) 0.4772(7)
O8 O 0.6173(4) 0.0339(3) 1.0770(7)
C1 C 1.4088(5) 0.1896(3) 0.7963(10)
C2 C 1.4885(5) 0.1359(4) 0.7837(10)
C3 C 1.1337(5) 0.1897(3) 0.8329(9)
C4 C 1.0243(5) 0.1033(4) 0.9374(9)
H1 H 1.0149 0.0654 1.0105
C5 C 0.9446(5) 0.1317(4) 0.8310(9)
C6 C 0.8428(5) 0.0976(4) 0.8216(10)
C7 C 1.4282(5) 0.2615(3) 0.7749(9)
H2 H 1.4916 0.2763 0.7578
C8 C 0.9596(5) 0.1909(4) 0.7317(10)
H3 H 0.9059 0.2119 0.6652
C9 C 1.3127(5) 0.1679(3) 0.8132(9)
H4 H 1.2990 0.1198 0.8211
C10 C 1.1189(5) 0.1320(4) 0.9342(9)
H5 H 1.1726 0.1116 1.0019
C11 C 1.2583(5) 0.2879(4) 0.8012(9)
H6 H 1.2081 0.3213 0.8044
C12 C 1.2366(5) 0.2169(4) 0.8187(9)
C13 C 1.3530(5) 0.3109(3) 0.7790(9)
C14 C 1.3777(5) 0.3878(3) 0.7540(8)
C15 C 1.0537(5) 0.2195(4) 0.7298(10)
H7 H 1.0631 0.2585 0.6598
Cd1A Cd 1.34967(3) 0.54423(2) 0.71672(6)
Cd1_2 Cd 1.65033(3) 0.04423(2) 0.78328(6)
O4A O 0.6946(4) -0.0696(2) 0.7594(8)
O5_2 O 0.5773(4) 0.1541(3) 0.8026(9)
N1 N 0.7872(5) 0.0860(4) 0.3282(9)
C16 C 0.8553(8) -0.0299(5) 0.4443(13)
H8 H 0.9149 -0.0577 0.4613
H9 H 0.8054 -0.0554 0.3711
H10 H 0.8324 -0.0208 0.5549
C17 C 0.7139(9) 0.2025(6) 0.254(2)
H11 H 0.7299 0.2500 0.2228
H12 H 0.6841 0.2034 0.3608
H13 H 0.6683 0.1821 0.1635
C18 C 0.8068(7) 0.1585(5) 0.2793(13)
H14 H 0.8371 0.1583 0.1720
H15 H 0.8533 0.1799 0.3691
C19 C 0.8764(7) 0.0396(6) 0.3589(16)
H16 H 0.9280 0.0646 0.4322
H17 H 0.9008 0.0300 0.2484
loop_
_geom_bond_atom_site_label_1
_geom_bond_atom_site_label_2
_geom_bond_site_symmetry_1
_geom_bond_site_symmetry_2
Cd1 O1 1_555 1_555
O1 C6 1_555 1_555
O2 Cd1 1_555 1_555
O3 C14 1_555 1_555
O4 C14 1_555 1_555
O5 C2 1_555 1_555
O6 C2 1_555 1_555
O7 Cd1 1_555 1_555
O8 Cd1 1_555 1_555
N1 C18 1_555 1_555
C1 C2 1_555 1_555
C3 C10 1_555 1_555
C4 H1 1_555 1_555
C5 C4 1_555 1_555
C6 O2 1_555 1_555
C7 C1 1_555 1_555
H2 C7 1_555 1_555
C8 C5 1_555 1_555
H3 C8 1_555 1_555
C9 C1 1_555 1_555
H4 C9 1_555 1_555
C10 C4 1_555 1_555
H5 C10 1_555 1_555
C11 H6 1_555 1_555
C12 C3 1_555 1_555
C13 C7 1_555 1_555
C14 C13 1_555 1_555
C15 C3 1_555 1_555
H7 C15 1_555 1_555
C16 H8 1_555 1_555
H9 C16 1_555 1_555
H10 C16 1_555 1_555
C17 H11 1_555 1_555
H12 C17 1_555 1_555
H13 C17 1_555 1_555
C18 C17 1_555 1_555
H14 C18 1_555 1_555
H15 C18 1_555 1_555
C19 N1 1_555 1_555
H16 C19 1_555 1_555
H17 C19 1_555 1_555
Cd1A O4 1_555 1_555
Cd1_2 O5 1_555 1_555
O4A Cd1 1_555 1_555
O5_2 Cd1 1_555 1_555
C5 C6 1_555 1_555
C8 C15 1_555 1_555
C9 C12 1_555 1_555
C11 C12 1_555 1_555
C11 C13 1_555 1_555
C16 C19 1_555 1_555

#END
