
#######################################################################
#
#                 Cambridge Crystallographic Data Centre
#                                CCDC 
#
#######################################################################
#
# If this CIF has been generated from an entry in the Cambridge 
# Structural Database, then it will include bibliographic, chemical, 
# crystal, experimental, refinement or atomic coordinate data resulting 
# from the CCDC's data processing and validation procedures.
#
#######################################################################

data_HEKVUQ
_symmetry_cell_setting           monoclinic
_symmetry_space_group_name_H-M   'P 21'
_symmetry_Int_Tables_number      4
_space_group_name_Hall           'P 2yb'
loop_
_symmetry_equiv_pos_site_id
_symmetry_equiv_pos_as_xyz
1 x,y,z
2 -x,1/2+y,-z
_cell_length_a                   6.5115(13)
_cell_length_b                   19.407(3)
_cell_length_c                   9.7353(17)
_cell_angle_alpha                90
_cell_angle_beta                 97.436(11)
_cell_angle_gamma                90
_cell_volume                     1219.89
loop_
_atom_site_label
_atom_site_type_symbol
_atom_site_fract_x
_atom_site_fract_y
_atom_site_fract_z
Cu1 Cu 1.50745(16) 1.10498(5) 0.15592(11)
S1 S 1.0598(4) 1.17983(14) -0.0496(3)
N1 N 1.4395(13) 1.0045(4) 0.1096(9)
C1 C 1.2820(14) 0.9708(5) 0.1536(11)
H1 H 1.2078 0.9924 0.2168
C2 C 1.2245(16) 0.9053(5) 0.1090(11)
C3 C 1.3365(16) 0.8727(5) 0.0160(12)
H2 H 1.3024 0.8284 -0.0152
C4 C 1.5008(16) 0.9079(6) -0.0296(12)
H3 H 1.5813 0.8863 -0.0891
C5 C 1.5441(16) 0.9728(6) 0.0119(12)
H4 H 1.6465 0.9970 -0.0259
N2 N 1.0621(13) 0.8668(4) 0.1565(9)
H5 H 1.0433 0.8260 0.1225
C6 C 0.9341(17) 0.8856(5) 0.2473(11)
O1 O 0.9353(11) 0.9428(4) 0.2998(8)
N3 N 0.8034(13) 0.8334(4) 0.2733(9)
H6 H 0.8175 0.7953 0.2301
C7 C 0.6454(15) 0.8340(5) 0.3637(10)
C8 C 0.635(2) 0.8827(6) 0.4656(13)
H7 H 0.7352 0.9169 0.4809
C9 C 0.478(3) 0.8804(7) 0.5426(15)
H8 H 0.4673 0.9148 0.6078
C10 C 0.330(2) 0.8276(7) 0.5273(14)
H9 H 0.2245 0.8258 0.5829
C11 C 0.3468(17) 0.7791(5) 0.4285(10)
C12 C 0.5005(15) 0.7823(5) 0.3478(10)
H10 H 0.5082 0.7488 0.2803
N4 N 0.2056(13) 0.7233(4) 0.4020(9)
H11 H 0.2094 0.7009 0.3261
C13 C 0.0630(15) 0.7013(5) 0.4860(11)
O2 O 0.0587(12) 0.7217(4) 0.6041(7)
N5 N -0.0636(13) 0.6530(5) 0.4263(9)
H12 H -0.0353 0.6387 0.3473
C14 C -0.2361(15) 0.6218(4) 0.4731(10)
C15 C -0.2744(14) 0.6262(4) 0.6075(9)
H13 H -0.1825 0.6500 0.6717
N6 N -0.4474(11) 0.5959(5) 0.6491(8)
C16 C -0.5789(18) 0.5633(5) 0.5543(13)
H14 H -0.6963 0.5430 0.5819
C17 C -0.5478(18) 0.5585(5) 0.4166(11)
H15 H -0.6432 0.5360 0.3526
C18 C -0.3768(16) 0.5870(5) 0.3778(10)
H16 H -0.3518 0.5834 0.2861
O3 O 1.5836(11) 1.2056(4) 0.1953(8)
O4 O 1.8483(10) 1.0759(3) 0.2014(8)
O5 O 1.5418(10) 1.1232(3) -0.0406(7)
O6 O 0.9609(16) 1.2407(5) 0.0019(11)
O7 O 1.1442(10) 1.1372(4) 0.0671(7)
O8 O 0.9064(14) 1.1440(6) -0.1406(8)
O9 O 1.2246(11) 1.2028(4) -0.1279(8)
Cu1A Cu -0.50745(16) 0.60498(5) 0.84408(11)
N6A N 1.4474(11) 1.0959(5) 0.3509(8)
O10 O 0.234(2) 0.2897(5) 0.2235(13)
loop_
_geom_bond_atom_site_label_1
_geom_bond_atom_site_label_2
_geom_bond_site_symmetry_1
_geom_bond_site_symmetry_2
Cu1 N1 1_555 1_555
S1 O6 1_555 1_555
N1 C1 1_555 1_555
C1 H1 1_555 1_555
C2 C1 1_555 1_555
C3 C2 1_555 1_555
H2 C3 1_555 1_555
C4 C3 1_555 1_555
H3 C4 1_555 1_555
C5 N1 1_555 1_555
H4 C5 1_555 1_555
N2 C2 1_555 1_555
H5 N2 1_555 1_555
C6 N2 1_555 1_555
O1 C6 1_555 1_555
N3 C6 1_555 1_555
H6 N3 1_555 1_555
C7 N3 1_555 1_555
C8 C7 1_555 1_555
H7 C8 1_555 1_555
C9 C8 1_555 1_555
H8 C9 1_555 1_555
C10 C9 1_555 1_555
H9 C10 1_555 1_555
C11 C10 1_555 1_555
C12 C7 1_555 1_555
H10 C12 1_555 1_555
N4 C11 1_555 1_555
H11 N4 1_555 1_555
C13 N4 1_555 1_555
O2 C13 1_555 1_555
N5 C13 1_555 1_555
H12 N5 1_555 1_555
C14 N5 1_555 1_555
C15 C14 1_555 1_555
H13 C15 1_555 1_555
N6 C15 1_555 1_555
C16 N6 1_555 1_555
H14 C16 1_555 1_555
C17 C16 1_555 1_555
H15 C17 1_555 1_555
C18 C14 1_555 1_555
H16 C18 1_555 1_555
O3 Cu1 1_555 1_555
O4 Cu1 1_555 1_555
O5 Cu1 1_555 1_555
O7 Cu1 1_555 1_555
O8 S1 1_555 1_555
O9 S1 1_555 1_555
Cu1A N6 1_555 1_555
N6A Cu1 1_555 1_555
S1 O7 1_555 1_555
C4 C5 1_555 1_555
C11 C12 1_555 1_555
C17 C18 1_555 1_555

#END
