
#######################################################################
#
#                 Cambridge Crystallographic Data Centre
#                                CCDC 
#
#######################################################################
#
# If this CIF has been generated from an entry in the Cambridge 
# Structural Database, then it will include bibliographic, chemical, 
# crystal, experimental, refinement or atomic coordinate data resulting 
# from the CCDC's data processing and validation procedures.
#
#######################################################################

data_HEKWAX
_symmetry_cell_setting           monoclinic
_symmetry_space_group_name_H-M   'C 2/c'
_symmetry_Int_Tables_number      15
_space_group_name_Hall           '-C 2yn'
loop_
_symmetry_equiv_pos_site_id
_symmetry_equiv_pos_as_xyz
1 x,y,z
2 -x,y,1/2-z
3 1/2+x,1/2+y,z
4 1/2-x,1/2+y,1/2-z
5 -x,-y,-z
6 x,-y,1/2+z
7 1/2-x,1/2-y,-z
8 1/2+x,1/2-y,1/2+z
_cell_length_a                   23.341(2)
_cell_length_b                   10.2257(9)
_cell_length_c                   19.3694(18)
_cell_angle_alpha                90
_cell_angle_beta                 118.396(2)
_cell_angle_gamma                90
_cell_volume                     4066.81
loop_
_atom_site_label
_atom_site_type_symbol
_atom_site_fract_x
_atom_site_fract_y
_atom_site_fract_z
Cu1 Cu 0.5000 -0.34561(6) 0.2500
N1 N 0.51280(15) -0.3445(3) 0.15398(18)
C1 C 0.5543(2) -0.4273(4) 0.1479(2)
H1 H 0.5753 -0.4897 0.1868
C2 C 0.5666(2) -0.4226(5) 0.0853(3)
H2 H 0.5964 -0.4799 0.0826
C3 C 0.5346(2) -0.3323(4) 0.0268(2)
H3 H 0.5426 -0.3284 -0.0158
C4 C 0.49068(18) -0.2478(4) 0.0315(2)
C5 C 0.48111(18) -0.2562(4) 0.0971(2)
H4 H 0.4520 -0.1992 0.1015
N2 N 0.45821(17) -0.1601(3) -0.03026(19)
H5 H 0.4717 -0.1562 -0.0646
C6 C 0.40734(19) -0.0796(4) -0.0425(2)
O1 O 0.38688(14) -0.0692(3) 0.00563(16)
N3 N 0.38037(17) -0.0160(3) -0.11217(19)
H6 H 0.3992 -0.0222 -0.1409
C7 C 0.32284(19) 0.0600(4) -0.1403(2)
C8 C 0.2728(2) 0.0361(4) -0.2148(2)
H7 H 0.2771 -0.0284 -0.2459
C9 C 0.2164(2) 0.1086(4) -0.2426(2)
H8 H 0.1828 0.0924 -0.2929
C10 C 0.2086(2) 0.2047(4) -0.1978(2)
H9 H 0.1700 0.2522 -0.2171
C11 C 0.25972(19) 0.2292(4) -0.1227(2)
C12 C 0.3165(2) 0.1570(4) -0.0941(2)
H10 H 0.3503 0.1731 -0.0440
N4 N 0.24925(16) 0.3273(3) -0.0787(2)
H11 H 0.2093 0.3461 -0.0926
C13 C 0.2951(2) 0.3954(4) -0.0168(2)
O2 O 0.35322(15) 0.3780(4) 0.0115(2)
N5 N 0.26921(16) 0.4876(3) 0.0114(2)
H12 H 0.2274 0.4920 -0.0114
C14 C 0.30242(18) 0.5754(4) 0.0729(2)
C15 C 0.2669(2) 0.6716(4) 0.0858(3)
H13 H 0.2221 0.6773 0.0539
C16 C 0.2984(2) 0.7581(4) 0.1459(3)
H14 H 0.2749 0.8228 0.1553
C17 C 0.36483(19) 0.7496(4) 0.1928(2)
H15 H 0.3857 0.8086 0.2338
N6 N 0.39978(15) 0.6587(3) 0.18039(18)
C18 C 0.36981(18) 0.5724(4) 0.1223(2)
H16 H 0.3945 0.5084 0.1145
O3 O 0.5000 -0.1109(5) 0.2500
O4 O 0.5000 -0.5777(5) 0.2500
H17 H 0.519(3) -0.068(5) 0.237(3)
H18 H 0.499(2) -0.629(5) 0.283(3)
Cu1_2 Cu 0.5000 0.65439(6) 0.2500
N1A N 0.48720(15) -0.3445(3) 0.34602(18)
C1A C 0.4457(2) -0.4273(4) 0.3521(2)
H1A H 0.4247 -0.4897 0.3132
C2A C 0.4334(2) -0.4226(5) 0.4147(3)
H2A H 0.4036 -0.4799 0.4174
C3A C 0.4654(2) -0.3323(4) 0.4732(2)
H3A H 0.4574 -0.3284 0.5158
C4A C 0.50932(18) -0.2478(4) 0.4685(2)
C5A C 0.51889(18) -0.2562(4) 0.4029(2)
H4A H 0.5480 -0.1992 0.3985
N2A N 0.54179(17) -0.1601(3) 0.53026(19)
H5A H 0.5283 -0.1562 0.5646
C6A C 0.59266(19) -0.0796(4) 0.5425(2)
O1A O 0.61312(14) -0.0692(3) 0.49437(16)
N3A N 0.61963(17) -0.0160(3) 0.61217(19)
H6A H 0.6008 -0.0222 0.6409
C7A C 0.67716(19) 0.0600(4) 0.6403(2)
C8A C 0.7272(2) 0.0361(4) 0.7148(2)
H7A H 0.7229 -0.0284 0.7459
C9A C 0.7836(2) 0.1086(4) 0.7426(2)
H8A H 0.8172 0.0924 0.7929
C10A C 0.7914(2) 0.2047(4) 0.6978(2)
H9A H 0.8300 0.2522 0.7171
C11A C 0.74028(19) 0.2292(4) 0.6227(2)
C12A C 0.6835(2) 0.1570(4) 0.5941(2)
H10A H 0.6497 0.1731 0.5440
N4A N 0.75075(16) 0.3273(3) 0.5787(2)
H11A H 0.7907 0.3461 0.5926
C13A C 0.7049(2) 0.3954(4) 0.5168(2)
O2A O 0.64678(15) 0.3780(4) 0.4885(2)
N5A N 0.73079(16) 0.4876(3) 0.4886(2)
H12A H 0.7726 0.4920 0.5114
C14A C 0.69758(18) 0.5754(4) 0.4271(2)
C15A C 0.7331(2) 0.6716(4) 0.4142(3)
H13A H 0.7779 0.6773 0.4461
C16A C 0.7016(2) 0.7581(4) 0.3541(3)
H14A H 0.7251 0.8228 0.3447
C17A C 0.63517(19) 0.7496(4) 0.3072(2)
H15A H 0.6143 0.8086 0.2662
N6A N 0.60022(15) 0.6587(3) 0.31961(18)
N6_2 N 0.39978(15) -0.3413(3) 0.18039(18)
N6A_2 N 0.60022(15) -0.3413(3) 0.31961(18)
C18A C 0.63019(18) 0.5724(4) 0.3777(2)
H16A H 0.6055 0.5084 0.3855
H17A H 0.481(3) -0.068(5) 0.263(3)
H18A H 0.501(2) -0.629(5) 0.217(3)
F1 F 0.07972(13) 0.5456(3) 0.22601(16)
O5 O 0.37914(18) 0.0803(4) 0.1231(2)
H19 H 0.389(2) 0.012(3) 0.104(3)
H20 H 0.393(3) 0.069(7) 0.1736(11)
O6 O 0.99571(17) 0.7235(3) 0.14790(19)
loop_
_geom_bond_atom_site_label_1
_geom_bond_atom_site_label_2
_geom_bond_site_symmetry_1
_geom_bond_site_symmetry_2
Cu1 N1 1_555 1_555
N1 C1 1_555 1_555
C1 H1 1_555 1_555
C2 C1 1_555 1_555
H2 C2 1_555 1_555
C3 C2 1_555 1_555
H3 C3 1_555 1_555
C4 C3 1_555 1_555
C5 N1 1_555 1_555
H4 C5 1_555 1_555
N2 C4 1_555 1_555
H5 N2 1_555 1_555
C6 N2 1_555 1_555
O1 C6 1_555 1_555
N3 C6 1_555 1_555
H6 N3 1_555 1_555
C7 N3 1_555 1_555
C8 C7 1_555 1_555
H7 C8 1_555 1_555
C9 C8 1_555 1_555
H8 C9 1_555 1_555
C10 C9 1_555 1_555
H9 C10 1_555 1_555
C11 C10 1_555 1_555
C12 C7 1_555 1_555
H10 C12 1_555 1_555
N4 C11 1_555 1_555
H11 N4 1_555 1_555
C13 N4 1_555 1_555
O2 C13 1_555 1_555
N5 C13 1_555 1_555
H12 N5 1_555 1_555
C14 N5 1_555 1_555
C15 C14 1_555 1_555
H13 C15 1_555 1_555
C16 C15 1_555 1_555
H14 C16 1_555 1_555
C17 C16 1_555 1_555
H15 C17 1_555 1_555
N6 C17 1_555 1_555
C18 C14 1_555 1_555
H16 C18 1_555 1_555
O3 Cu1 1_555 1_555
O4 Cu1 1_555 1_555
O5 H19 1_555 1_555
H17 O3 1_555 1_555
H18 O4 1_555 1_555
H20 O5 1_555 1_555
Cu1_2 N6 1_555 1_555
N1A Cu1 1_555 1_555
C1A N1A 1_555 1_555
H1A C1A 1_555 1_555
C2A C1A 1_555 1_555
H2A C2A 1_555 1_555
C3A C2A 1_555 1_555
H3A C3A 1_555 1_555
C4A C3A 1_555 1_555
C5A N1A 1_555 1_555
H4A C5A 1_555 1_555
N2A C4A 1_555 1_555
H5A N2A 1_555 1_555
C6A N2A 1_555 1_555
O1A C6A 1_555 1_555
N3A C6A 1_555 1_555
H6A N3A 1_555 1_555
C7A N3A 1_555 1_555
C8A C7A 1_555 1_555
H7A C8A 1_555 1_555
C9A C8A 1_555 1_555
H8A C9A 1_555 1_555
C10A C9A 1_555 1_555
H9A C10A 1_555 1_555
C11A C10A 1_555 1_555
C12A C7A 1_555 1_555
H10A C12A 1_555 1_555
N4A C11A 1_555 1_555
H11A N4A 1_555 1_555
C13A N4A 1_555 1_555
O2A C13A 1_555 1_555
N5A C13A 1_555 1_555
H12A N5A 1_555 1_555
C14A N5A 1_555 1_555
C15A C14A 1_555 1_555
H13A C15A 1_555 1_555
C16A C15A 1_555 1_555
H14A C16A 1_555 1_555
C17A C16A 1_555 1_555
H15A C17A 1_555 1_555
N6A Cu1_2 1_555 1_555
N6_2 Cu1 1_555 1_555
N6A_2 Cu1 1_555 1_555
C18A C14A 1_555 1_555
H16A C18A 1_555 1_555
H17A O3 1_555 1_555
H18A O4 1_555 1_555
C4 C5 1_555 1_555
C11 C12 1_555 1_555
N6 C18 1_555 1_555
C4A C5A 1_555 1_555
C11A C12A 1_555 1_555
C17A N6A 1_555 1_555
N6A C18A 1_555 1_555

#END
