
#######################################################################
#
#                 Cambridge Crystallographic Data Centre
#                                CCDC 
#
#######################################################################
#
# If this CIF has been generated from an entry in the Cambridge 
# Structural Database, then it will include bibliographic, chemical, 
# crystal, experimental, refinement or atomic coordinate data resulting 
# from the CCDC's data processing and validation procedures.
#
#######################################################################

data_HELCOS
_symmetry_cell_setting           monoclinic
_symmetry_space_group_name_H-M   'P 2/c'
_symmetry_Int_Tables_number      13
_space_group_name_Hall           '-P 2yc'
loop_
_symmetry_equiv_pos_site_id
_symmetry_equiv_pos_as_xyz
1 x,y,z
2 -x,y,1/2-z
3 -x,-y,-z
4 x,-y,1/2+z
_cell_length_a                   11.875(2)
_cell_length_b                   5.0074(10)
_cell_length_c                   30.424(8)
_cell_angle_alpha                90
_cell_angle_beta                 111.91(3)
_cell_angle_gamma                90
_cell_volume                     1678.43
loop_
_atom_site_label
_atom_site_type_symbol
_atom_site_fract_x
_atom_site_fract_y
_atom_site_fract_z
Zn1 Zn 0.39568(5) 0.80040(13) 0.90552(2)
O1 O 0.3633(4) 0.9120(8) 0.83792(14)
O2 O 0.4335(4) 0.5485(10) 0.81439(14)
O3 O 0.3564(4) 0.5466(9) 0.5734(2)
O4 O 0.4357(3) 0.9313(8) 0.56413(15)
O5 O -0.3663(3) 0.4109(7) 0.59798(13)
O6 O -0.2673(3) 0.0507(7) 0.59090(15)
O7 O 0.1357(4) 0.3368(10) 0.69176(16)
O8 O 0.3264(3) 1.0225(8) 0.64984(13)
O9 O -0.0210(4) 0.6716(9) 0.54285(14)
N1 N 0.2347(4) 0.6783(9) 0.67199(16)
N2 N 0.1532(4) 0.8534(9) 0.59543(15)
N3 N 0.0535(4) 0.5002(9) 0.61702(15)
C1 C 0.3733(6) 0.7520(13) 0.8065(2)
C2 C 0.3012(7) 0.8338(13) 0.7550(2)
H1 H 0.2152 0.8181 0.7486
H2 H 0.3181 1.0196 0.7508
C3 C 0.3316(5) 0.6659(13) 0.7198(2)
H3 H 0.4072 0.7279 0.7181
H4 H 0.3428 0.4819 0.7306
C4 C 0.1413(5) 0.4945(12) 0.66266(19)
C5 C 0.2440(4) 0.8624(11) 0.64003(19)
C6 C 0.1635(5) 1.0252(11) 0.55781(19)
H5 H 0.2130 1.1796 0.5720
H6 H 0.0835 1.0884 0.5378
C7 C 0.2204(5) 0.8742(13) 0.52731(19)
H7 H 0.1684 0.7259 0.5116
H8 H 0.2262 0.9930 0.5030
C8 C 0.3450(5) 0.7700(12) 0.55663(19)
C9 C 0.0561(5) 0.6733(11) 0.58209(19)
C10 C -0.0509(5) 0.3160(10) 0.6053(2)
H9 H -0.0333 0.1785 0.6294
H10 H -0.0645 0.2299 0.5752
C11 C -0.1646(5) 0.4674(12) 0.6023(3)
H11 H -0.1457 0.5736 0.6308
H12 H -0.1861 0.5899 0.5757
C12 C -0.2726(5) 0.2970(10) 0.59670(19)
Zn1A Zn 0.60432(5) 0.80040(13) 0.59448(2)
Zn1A_2 Zn -0.39568(5) 0.80040(13) 0.59448(2)
Zn1A_3 Zn -0.39568(5) -0.19960(13) 0.59448(2)
O4A O 0.5643(3) 0.9313(8) 0.93587(15)
O5A O 0.3663(3) 0.4109(7) 0.90202(13)
O6A O 0.2673(3) 1.0507(7) 0.90910(15)
Na1 Na 0.5227(2) 1.2525(4) 0.87042(8)
O10 O 0.4204(5) 0.7172(10) 0.98850(18)
O11 O 0.1429(10) 0.288(2) 0.7909(4)
O12 O 0.0262(15) 0.818(3) 0.7977(7)
loop_
_geom_bond_atom_site_label_1
_geom_bond_atom_site_label_2
_geom_bond_site_symmetry_1
_geom_bond_site_symmetry_2
Zn1 O1 1_555 1_555
O1 C1 1_555 1_555
O2 C1 1_555 1_555
O3 C8 1_555 1_555
O4 C8 1_555 1_555
O5 C12 1_555 1_555
O6 C12 1_555 1_555
O7 C4 1_555 1_555
O8 C5 1_555 1_555
O9 C9 1_555 1_555
N1 C3 1_555 1_555
N2 C5 1_555 1_555
N3 C4 1_555 1_555
C1 C2 1_555 1_555
C2 H1 1_555 1_555
H2 C2 1_555 1_555
C3 C2 1_555 1_555
H3 C3 1_555 1_555
H4 C3 1_555 1_555
C4 N1 1_555 1_555
C5 N1 1_555 1_555
C6 N2 1_555 1_555
H5 C6 1_555 1_555
H6 C6 1_555 1_555
C7 C6 1_555 1_555
H7 C7 1_555 1_555
H8 C7 1_555 1_555
C8 C7 1_555 1_555
C9 N2 1_555 1_555
C10 N3 1_555 1_555
H9 C10 1_555 1_555
H10 C10 1_555 1_555
C11 C10 1_555 1_555
H11 C11 1_555 1_555
H12 C11 1_555 1_555
C12 C11 1_555 1_555
Zn1A O4 1_555 1_555
Zn1A_2 O5 1_555 1_555
Zn1A_3 O6 1_555 1_555
O4A Zn1 1_555 1_555
O5A Zn1 1_555 1_555
O6A Zn1 1_555 1_555
N3 C9 1_555 1_555

#END
