
#######################################################################
#
#                 Cambridge Crystallographic Data Centre
#                                CCDC 
#
#######################################################################
#
# If this CIF has been generated from an entry in the Cambridge 
# Structural Database, then it will include bibliographic, chemical, 
# crystal, experimental, refinement or atomic coordinate data resulting 
# from the CCDC's data processing and validation procedures.
#
#######################################################################

data_HELCEI
_symmetry_cell_setting           monoclinic
_symmetry_space_group_name_H-M   'P 21/c'
_symmetry_Int_Tables_number      14
_space_group_name_Hall           '-P 2ybc'
loop_
_symmetry_equiv_pos_site_id
_symmetry_equiv_pos_as_xyz
1 x,y,z
2 -x,1/2+y,1/2-z
3 -x,-y,-z
4 x,1/2-y,1/2+z
_cell_length_a                   11.1267(6)
_cell_length_b                   12.8597(7)
_cell_length_c                   21.0138(14)
_cell_angle_alpha                90
_cell_angle_beta                 119.836(4)
_cell_angle_gamma                90
_cell_volume                     2608.24
loop_
_atom_site_label
_atom_site_type_symbol
_atom_site_fract_x
_atom_site_fract_y
_atom_site_fract_z
Zn1 Zn 0.0000 0.5000 0.5000
Zn2 Zn 0.10534(6) 0.55149(5) 0.37082(4)
O1 O 0.2206(4) 0.4209(4) 0.4013(3)
O2 O 0.1420(4) 0.4432(3) 0.4745(2)
O3 O 0.1689(3) 0.4924(3) 0.6147(2)
O4 O 0.0848(3) 0.4879(3) 0.69082(19)
O5 O 0.8586(4) 0.1784(3) 1.0755(2)
O6 O 0.9338(4) 0.1526(3) 0.9961(2)
O7 O 0.8188(4) 0.5469(3) 1.0643(3)
O8 O 0.4487(4) 0.7046(3) 0.8748(2)
O9 O 0.4781(4) 0.3544(3) 0.8857(2)
O10 O 0.1319(4) 0.6103(3) 0.2911(2)
N1 N 0.6485(4) 0.4476(3) 0.9773(2)
N2 N 0.4571(4) 0.5300(3) 0.8796(2)
N3 N 0.6336(5) 0.6280(3) 0.9711(3)
N4 N 0.2378(5) 0.6668(4) 0.2309(3)
C1 C 0.2051(6) 0.3925(4) 0.4523(4)
C2 C 0.5098(6) 0.6265(4) 0.9057(3)
C3 C 0.3197(5) 0.5217(4) 0.8136(3)
H1 H 0.2662 0.5832 0.8101
H2 H 0.2719 0.4620 0.8187
C4 C 0.3248(4) 0.5107(4) 0.7436(3)
H3 H 0.3823 0.4514 0.7478
H4 H 0.3674 0.5723 0.7366
C5 C 0.1820(5) 0.4961(4) 0.6771(3)
C6 C 0.5256(5) 0.4381(4) 0.9121(3)
C7 C 0.7215(5) 0.3519(4) 1.0154(3)
H5 H 0.6536 0.2994 1.0088
H6 H 0.7766 0.3662 1.0675
C8 C 0.8142(5) 0.3095(4) 0.9889(3)
H7 H 0.8895 0.3580 1.0014
H8 H 0.7620 0.3032 0.9359
C9 C 0.7090(6) 0.5412(4) 1.0078(3)
C10 C 0.8743(5) 0.2039(4) 1.0221(3)
C11 C 0.2375(6) 0.6202(4) 0.2864(3)
H9 H 0.3204 0.5935 0.3238
C12 C 0.3641(6) 0.6714(5) 0.2262(4)
H10 H 0.4418 0.6518 0.2726
H11 H 0.3772 0.7410 0.2143
H12 H 0.3564 0.6245 0.1888
C13 C 0.1133(6) 0.7147(5) 0.1730(4)
H13 H 0.0448 0.7193 0.1880
H14 H 0.0779 0.6733 0.1293
H15 H 0.1346 0.7832 0.1633
C18 C 0.7465(7) 0.7688(7) 0.9914(4)
H27 H 0.6917 0.7796 0.9388
H28 H 0.8232 0.7217 1.0039
C19 C 0.6757(8) 0.7481(8) 1.0225(4)
H29 H 0.5973 0.7939 1.0089
H30 H 0.7302 0.7393 1.0753
Zn1A Zn 1.0000 0.0000 1.0000
Zn1A_2 Zn -1.0000 1.0000 0.0000
Zn2B Zn -0.10534(6) 0.44851(5) 0.62918(4)
Zn2A Zn 0.89466(6) 0.05149(5) 1.12918(4)
Zn2C Zn -0.89466(6) 0.94851(5) -0.12918(4)
O1B O -0.2206(4) 0.5791(4) 0.5987(3)
O2B O -0.1420(4) 0.5568(3) 0.5255(2)
O3B O -0.1689(3) 0.5076(3) 0.3853(2)
O4B O -0.0848(3) 0.5121(3) 0.30918(19)
O5B O -0.8586(4) 0.8216(3) -0.0755(2)
O5A O 0.1414(4) 0.6784(3) 0.4245(2)
O5C O -0.1414(4) 0.3216(3) 0.5755(2)
O6B O -0.9338(4) 0.8474(3) 0.0039(2)
O6A O 0.0662(4) 0.6526(3) 0.5039(2)
O6C O -0.0662(4) 0.3474(3) 0.4961(2)
O7B O -0.8188(4) 0.4531(3) -0.0643(3)
O8B O -0.4487(4) 0.2954(3) 0.1252(2)
O9B O -0.4781(4) 0.6456(3) 0.1143(2)
O10B O -0.1319(4) 0.3897(3) 0.7089(2)
N1B N -0.6485(4) 0.5524(3) 0.0227(2)
N2B N -0.4571(4) 0.4700(3) 0.1204(2)
N3B N -0.6336(5) 0.3720(3) 0.0289(3)
N4B N -0.2378(5) 0.3332(4) 0.7691(3)
C1B C -0.2051(6) 0.6075(4) 0.5477(4)
C2B C -0.5098(6) 0.3735(4) 0.0943(3)
C3B C -0.3197(5) 0.4783(4) 0.1864(3)
H1B H -0.2662 0.4168 0.1899
H2B H -0.2719 0.5380 0.1813
C4B C -0.3248(4) 0.4893(4) 0.2564(3)
H3B H -0.3823 0.5486 0.2522
H4B H -0.3674 0.4277 0.2634
C5B C -0.1820(5) 0.5039(4) 0.3229(3)
C6B C -0.5256(5) 0.5619(4) 0.0879(3)
C7B C -0.7215(5) 0.6481(4) -0.0154(3)
H5B H -0.6536 0.7006 -0.0088
H6B H -0.7766 0.6338 -0.0675
C8B C -0.8142(5) 0.6905(4) 0.0111(3)
H7B H -0.8895 0.6420 -0.0014
H8B H -0.7620 0.6968 0.0641
C9B C -0.7090(6) 0.4588(4) -0.0078(3)
C10B C -0.8743(5) 0.7961(4) -0.0221(3)
C11B C -0.2375(6) 0.3798(4) 0.7136(3)
H9B H -0.3204 0.4065 0.6762
C12B C -0.3641(6) 0.3286(5) 0.7738(4)
H10B H -0.4418 0.3482 0.7274
H11B H -0.3772 0.2590 0.7857
H12B H -0.3564 0.3755 0.8112
C13B C -0.1133(6) 0.2853(5) 0.8270(4)
H13B H -0.0448 0.2807 0.8120
H14B H -0.0779 0.3267 0.8707
H15B H -0.1346 0.2168 0.8367
C18B C -0.7465(7) 0.2312(7) 0.0086(4)
H27B H -0.6917 0.2204 0.0612
H28B H -0.8232 0.2783 -0.0039
C19B C -0.6757(8) 0.2519(8) -0.0225(4)
H29B H -0.5973 0.2061 -0.0089
H30B H -0.7302 0.2607 -0.0753
O11 O 0.7618(8) 0.5503(5) 0.8800(4)
N5 N 0.8292(6) 0.6380(4) 0.8107(4)
C14 C 0.9262(8) 0.6466(6) 0.7847(4)
H16 H 0.9923 0.5910 0.8047
H17 H 0.9735 0.7121 0.7999
H18 H 0.8775 0.6425 0.7321
C15 C 0.7202(10) 0.7107(8) 0.7875(6)
H19 H 0.7487 0.7669 0.8221
H20 H 0.6405 0.6772 0.7846
H21 H 0.6972 0.7373 0.7401
C16 C 0.8413(9) 0.5648(6) 0.8579(5)
H22 H 0.9178 0.5210 0.8754
O12 O 0.4363(5) 0.4941(5) 0.6184(3)
H23 H 0.3593 0.4968 0.6145
C17 C 0.4583(8) 0.5805(6) 0.5908(6)
H24 H 0.3983 0.6346 0.5902
H25 H 0.4394 0.5675 0.5417
H26 H 0.5530 0.6018 0.6206
loop_
_geom_bond_atom_site_label_1
_geom_bond_atom_site_label_2
_geom_bond_site_symmetry_1
_geom_bond_site_symmetry_2
Zn1 O2 1_555 1_555
Zn2 O1 1_555 1_555
O1 C1 1_555 1_555
O2 C1 1_555 1_555
O3 Zn1 1_555 1_555
O4 C5 1_555 1_555
O5 C10 1_555 1_555
O6 C10 1_555 1_555
O7 C9 1_555 1_555
O8 C2 1_555 1_555
O9 C6 1_555 1_555
O10 Zn2 1_555 1_555
N1 C6 1_555 1_555
N2 C2 1_555 1_555
N3 C2 1_555 1_555
N4 C11 1_555 1_555
C3 N2 1_555 1_555
H1 C3 1_555 1_555
H2 C3 1_555 1_555
C4 C3 1_555 1_555
H3 C4 1_555 1_555
H4 C4 1_555 1_555
C5 O3 1_555 1_555
C6 N2 1_555 1_555
C7 N1 1_555 1_555
H5 C7 1_555 1_555
H6 C7 1_555 1_555
C8 C7 1_555 1_555
H7 C8 1_555 1_555
H8 C8 1_555 1_555
C9 N1 1_555 1_555
C10 C8 1_555 1_555
C11 O10 1_555 1_555
H9 C11 1_555 1_555
C12 N4 1_555 1_555
H10 C12 1_555 1_555
H11 C12 1_555 1_555
H12 C12 1_555 1_555
C13 N4 1_555 1_555
H13 C13 1_555 1_555
H14 C13 1_555 1_555
H15 C13 1_555 1_555
O11 C16 1_555 1_555
N5 C14 1_555 1_555
C14 H16 1_555 1_555
H17 C14 1_555 1_555
H18 C14 1_555 1_555
C15 N5 1_555 1_555
H19 C15 1_555 1_555
H20 C15 1_555 1_555
H21 C15 1_555 1_555
C16 N5 1_555 1_555
H22 C16 1_555 1_555
O12 H23 1_555 1_555
C17 O12 1_555 1_555
H24 C17 1_555 1_555
H25 C17 1_555 1_555
H26 C17 1_555 1_555
C18 H27 1_555 1_555
H28 C18 1_555 1_555
C19 N3 1_555 1_555
H29 C19 1_555 1_555
H30 C19 1_555 1_555
Zn1A O6 1_555 1_555
Zn1A_2 O6B 1_555 1_555
Zn2B O4 1_555 1_555
Zn2A O5 1_555 1_555
Zn2C O5B 1_555 1_555
O1B Zn2B 1_555 1_555
O2B Zn1 1_555 1_555
O3B Zn1 1_555 1_555
O4B Zn2 1_555 1_555
O5B C10B 1_555 1_555
O5A Zn2 1_555 1_555
O5C Zn2B 1_555 1_555
O6B C10B 1_555 1_555
O6A Zn1 1_555 1_555
O6C Zn1 1_555 1_555
O7B C9B 1_555 1_555
O8B C2B 1_555 1_555
O9B C6B 1_555 1_555
O10B Zn2B 1_555 1_555
N1B C6B 1_555 1_555
N2B C2B 1_555 1_555
N3B C2B 1_555 1_555
N4B C11B 1_555 1_555
C1B O1B 1_555 1_555
C3B N2B 1_555 1_555
H1B C3B 1_555 1_555
H2B C3B 1_555 1_555
C4B C3B 1_555 1_555
H3B C4B 1_555 1_555
H4B C4B 1_555 1_555
C5B O3B 1_555 1_555
C6B N2B 1_555 1_555
C7B N1B 1_555 1_555
H5B C7B 1_555 1_555
H6B C7B 1_555 1_555
C8B C7B 1_555 1_555
H7B C8B 1_555 1_555
H8B C8B 1_555 1_555
C9B N1B 1_555 1_555
C10B C8B 1_555 1_555
C11B O10B 1_555 1_555
H9B C11B 1_555 1_555
C12B N4B 1_555 1_555
H10B C12B 1_555 1_555
H11B C12B 1_555 1_555
H12B C12B 1_555 1_555
C13B N4B 1_555 1_555
H13B C13B 1_555 1_555
H14B C13B 1_555 1_555
H15B C13B 1_555 1_555
C18B H27B 1_555 1_555
H28B C18B 1_555 1_555
C19B N3B 1_555 1_555
H29B C19B 1_555 1_555
H30B C19B 1_555 1_555
N3 C9 1_555 1_555
C4 C5 1_555 1_555
C18 C19 1_555 1_555
O2B C1B 1_555 1_555
O4B C5B 1_555 1_555
N3B C9B 1_555 1_555
C4B C5B 1_555 1_555
C18B C19B 1_555 1_555

#END
