
#######################################################################
#
#                 Cambridge Crystallographic Data Centre
#                                CCDC 
#
#######################################################################
#
# If this CIF has been generated from an entry in the Cambridge 
# Structural Database, then it will include bibliographic, chemical, 
# crystal, experimental, refinement or atomic coordinate data resulting 
# from the CCDC's data processing and validation procedures.
#
#######################################################################

data_HELDAF
_symmetry_cell_setting           monoclinic
_symmetry_space_group_name_H-M   'P 21/c'
_symmetry_Int_Tables_number      14
_space_group_name_Hall           '-P 2ybc'
loop_
_symmetry_equiv_pos_site_id
_symmetry_equiv_pos_as_xyz
1 x,y,z
2 -x,1/2+y,1/2-z
3 -x,-y,-z
4 x,1/2-y,1/2+z
_cell_length_a                   25.826(5)
_cell_length_b                   7.7641(16)
_cell_length_c                   36.021(11)
_cell_angle_alpha                90
_cell_angle_beta                 132.767(18)
_cell_angle_gamma                90
_cell_volume                     5302.39
loop_
_atom_site_label
_atom_site_type_symbol
_atom_site_fract_x
_atom_site_fract_y
_atom_site_fract_z
Zn1 Zn 0.35289(5) 0.72635(14) 0.84587(4)
Zn2 Zn 0.26216(5) 0.35219(13) 0.77647(4)
Zn3 Zn 0.88089(6) 0.68731(15) 1.02207(4)
O1 O 0.7471(4) 0.3469(12) 0.8932(3)
O2 O 0.5195(4) 0.5027(13) 0.7634(3)
O3 O 0.5821(4) 0.2219(12) 0.8991(3)
O4 O 0.8567(4) 0.4417(10) 1.0236(3)
O5 O 0.7619(5) 0.6042(12) 0.9775(4)
O6 O 0.0633(4) 1.1631(10) 0.6728(3)
O7 O -0.1460(4) 1.1634(9) 0.6305(3)
O8 O 0.0270(4) 0.8037(10) 0.7522(3)
O9 O 0.2482(3) 0.7635(8) 0.7996(2)
O10 O 0.2116(3) 0.5725(8) 0.7392(2)
O11 O 0.1965(3) 0.2120(9) 0.7103(2)
H1 H 0.1585 0.1970 0.7022
O12 O 0.3189(4) 0.1353(9) 0.8223(3)
H2 H 0.3084 0.1141 0.8388
O13 O 0.3661(3) 0.4869(9) 0.8330(3)
O14 O 0.3391(3) 0.3594(10) 0.7685(2)
O15 O -0.2527(4) 0.6376(9) 0.6452(3)
O16 O -0.2064(4) 0.8513(9) 0.7014(3)
O17 O 0.6345(5) 0.3363(12) 0.6989(3)
O18 O 0.7355(5) 0.4322(10) 0.7738(3)
O19 O -0.1152(4) 1.5980(10) 0.5530(3)
O20 O -0.0497(5) 1.7805(10) 0.6167(3)
N1 N -0.0402(4) 1.1754(9) 0.6529(3)
N2 N -0.0595(4) 0.9843(10) 0.6925(3)
N3 N 0.0503(4) 0.9869(9) 0.7165(3)
N4 N 0.3592(4) 0.6651(10) 0.9075(3)
N5 N 0.4533(4) 0.8229(10) 0.9097(3)
N6 N 0.5487(4) 0.3618(11) 0.8311(3)
N7 N 0.6342(4) 0.4316(11) 0.8286(3)
N8 N 0.6672(4) 0.2857(11) 0.8989(3)
N9 N 0.8454(5) 0.7802(11) 0.9537(3)
N10 N 0.9750(5) 0.6707(10) 1.0379(3)
C1 C 0.7816(6) 0.8308(16) 0.9118(4)
H3 H 0.7439 0.8193 0.9098
C2 C 0.7693(7) 0.9006(16) 0.8708(4)
H4 H 0.7238 0.9318 0.8417
C3 C 0.8227(7) 0.9229(16) 0.8729(4)
H5 H 0.8145 0.9742 0.8460
C4 C 0.8913(6) 0.8687(13) 0.9159(4)
C5 C 0.9006(6) 0.7953(12) 0.9559(4)
C6 C 0.9533(9) 0.8813(16) 0.9218(6)
H6 H 0.9485 0.9280 0.8959
C7 C 1.0156(8) 0.8273(15) 0.9635(6)
H7 H 1.0538 0.8394 0.9661
C8 C 1.0275(6) 0.7520(13) 1.0045(4)
C9 C 0.9686(5) 0.7366(12) 1.0011(4)
C10 C 1.0902(6) 0.6939(16) 1.0475(5)
H8 H 1.1296 0.7008 1.0514
C11 C 1.0968(6) 0.6252(14) 1.0855(5)
H9 H 1.1401 0.5841 1.1148
C12 C 1.0377(6) 0.6177(15) 1.0795(4)
H10 H 1.0426 0.5738 1.1057
C13 C 0.7927(6) 0.4649(15) 0.9988(4)
C14 C 0.7499(6) 0.3094(18) 0.9933(4)
H11 H 0.7804 0.2390 1.0236
H12 H 0.7117 0.3515 0.9901
C15 C 0.7193(6) 0.1977(15) 0.9467(4)
H13 H 0.7576 0.1604 0.9494
H14 H 0.6979 0.0955 0.9470
C16 C 0.6873(5) 0.3518(13) 0.8755(4)
C17 C 0.5655(6) 0.4373(16) 0.8054(4)
C18 C 0.5980(6) 0.2845(13) 0.8781(4)
C19 C 0.4739(6) 0.3477(15) 0.8065(4)
H15 H 0.4642 0.2304 0.8095
H16 H 0.4434 0.3743 0.7708
C20 C 0.4576(5) 0.4690(13) 0.8302(4)
H17 H 0.4617 0.5872 0.8238
H18 H 0.4912 0.4514 0.8665
C21 C 0.3827(5) 0.4360(12) 0.8079(4)
C22 C -0.2086(5) 0.7567(12) 0.6720(3)
C23 C -0.1552(5) 0.7889(13) 0.6682(4)
H19 H -0.1795 0.8172 0.6335
H20 H -0.1285 0.6841 0.6770
C24 C 0.2005(5) 0.6964(12) 0.7562(3)
C25 C 0.1298(6) 0.7757(13) 0.7243(4)
H21 H 0.1168 0.8164 0.6934
H22 H 0.0964 0.6868 0.7148
C26 C 0.1222(4) 0.9198(12) 0.7468(3)
H23 H 0.1394 0.8825 0.7792
H24 H 0.1523 1.0133 0.7532
C27 C 0.0269(5) 1.1126(12) 0.6804(3)
C28 C -0.0858(4) 1.1125(11) 0.6569(3)
C29 C 0.0061(5) 0.9137(11) 0.7214(3)
C30 C 0.3105(5) 0.5921(12) 0.9050(4)
H25 H 0.2653 0.5761 0.8736
C31 C 0.3256(6) 0.5386(16) 0.9485(4)
H26 H 0.2909 0.4834 0.9454
C32 C 0.3892(7) 0.5656(15) 0.9946(5)
H27 H 0.3986 0.5304 1.0234
C33 C 0.4416(6) 0.6478(13) 0.9989(4)
C34 C 0.4230(5) 0.6959(11) 0.9525(3)
C35 C 0.4734(5) 0.7809(12) 0.9544(3)
C36 C 0.4977(6) 0.9097(13) 0.9101(4)
H28 H 0.4824 0.9430 0.8792
C37 C 0.5649(7) 0.9537(16) 0.9533(5)
H29 H 0.5947 1.0120 0.9516
C38 C 0.5870(5) 0.9091(15) 0.9992(4)
H30 H 0.6322 0.9378 1.0291
C39 C 0.5412(6) 0.8206(13) 1.0008(5)
C40 C 0.5583(6) 0.7692(13) 1.0471(4)
H31 H 0.6027 0.7944 1.0783
C41 C 0.5122(7) 0.6880(15) 1.0455(4)
H32 H 0.5258 0.6549 1.0758
C42 C 0.6739(6) 0.3729(13) 0.7444(4)
C43 C 0.6539(5) 0.4894(14) 0.8005(4)
H33 H 0.7023 0.5298 0.8240
H34 H 0.6236 0.5839 0.7782
C44 C 0.6459(7) 0.3391(15) 0.7696(5)
H35 H 0.6703 0.2399 0.7916
H36 H 0.5962 0.3098 0.7436
C45 C -0.0650(5) 1.3132(11) 0.6157(3)
H37 H -0.1150 1.2984 0.5869
H38 H -0.0409 1.3022 0.6038
C46 C -0.1042(5) 0.9338(13) 0.7025(4)
H39 H -0.1309 1.0332 0.6977
H40 H -0.0743 0.8974 0.7374
C47 C -0.0731(6) 1.6320(12) 0.6004(4)
C48 C -0.0523(6) 1.4903(13) 0.6371(4)
H41 H -0.0026 1.5023 0.6672
H42 H -0.0788 1.5035 0.6470
Zn1A Zn 0.64711(5) 0.22635(14) 0.65413(4)
Zn2A Zn -0.26216(5) 0.85219(13) 0.72353(4)
Zn3C Zn -0.11911(6) 1.81269(15) 0.52207(4)
O16A O 0.2064(4) 0.3513(9) 0.7986(3)
O17A O 0.3655(5) 0.8363(12) 0.8011(3)
O19C O 0.8848(4) 0.9020(10) 1.0530(3)
O21 O 0.2738(7) 0.165(2) 0.9825(6)
O22 O 0.6102(6) 0.574(2) 0.3394(5)
O23 O 0.6223(6) 0.8025(17) 0.4099(5)
O24 O 0.2411(5) 0.9432(12) 0.9126(3)
loop_
_geom_bond_atom_site_label_1
_geom_bond_atom_site_label_2
_geom_bond_site_symmetry_1
_geom_bond_site_symmetry_2
Zn1 O9 1_555 1_555
Zn2 O10 1_555 1_555
Zn3 O4 1_555 1_555
O1 C16 1_555 1_555
O2 C17 1_555 1_555
O3 C18 1_555 1_555
O4 C13 1_555 1_555
O5 C13 1_555 1_555
O6 C27 1_555 1_555
O7 C28 1_555 1_555
O8 C29 1_555 1_555
O9 C24 1_555 1_555
O10 C24 1_555 1_555
O11 Zn2 1_555 1_555
H1 O11 1_555 1_555
O12 Zn2 1_555 1_555
H2 O12 1_555 1_555
O13 Zn1 1_555 1_555
O14 Zn2 1_555 1_555
O15 C22 1_555 1_555
O16 C22 1_555 1_555
O17 C42 1_555 1_555
O18 C42 1_555 1_555
O19 C47 1_555 1_555
O20 C47 1_555 1_555
N1 C27 1_555 1_555
N2 C28 1_555 1_555
N3 C26 1_555 1_555
N4 Zn1 1_555 1_555
N5 Zn1 1_555 1_555
N6 C17 1_555 1_555
N7 C16 1_555 1_555
N8 C15 1_555 1_555
N9 Zn3 1_555 1_555
N10 Zn3 1_555 1_555
C1 N9 1_555 1_555
H3 C1 1_555 1_555
C2 C1 1_555 1_555
H4 C2 1_555 1_555
C3 C2 1_555 1_555
H5 C3 1_555 1_555
C4 C3 1_555 1_555
C5 N9 1_555 1_555
C6 C4 1_555 1_555
H6 C6 1_555 1_555
C7 C6 1_555 1_555
H7 C7 1_555 1_555
C8 C7 1_555 1_555
C9 N10 1_555 1_555
C10 C8 1_555 1_555
H8 C10 1_555 1_555
C11 C10 1_555 1_555
H9 C11 1_555 1_555
C12 N10 1_555 1_555
H10 C12 1_555 1_555
C13 C14 1_555 1_555
C14 H11 1_555 1_555
H12 C14 1_555 1_555
C15 C14 1_555 1_555
H13 C15 1_555 1_555
H14 C15 1_555 1_555
C16 N8 1_555 1_555
C17 N7 1_555 1_555
C18 N6 1_555 1_555
C19 N6 1_555 1_555
H15 C19 1_555 1_555
H16 C19 1_555 1_555
C20 C19 1_555 1_555
H17 C20 1_555 1_555
H18 C20 1_555 1_555
C21 O13 1_555 1_555
C22 C23 1_555 1_555
C23 H19 1_555 1_555
H20 C23 1_555 1_555
C24 C25 1_555 1_555
C25 H21 1_555 1_555
H22 C25 1_555 1_555
C26 C25 1_555 1_555
H23 C26 1_555 1_555
H24 C26 1_555 1_555
C27 N3 1_555 1_555
C28 N1 1_555 1_555
C29 N2 1_555 1_555
C30 N4 1_555 1_555
H25 C30 1_555 1_555
C31 C30 1_555 1_555
H26 C31 1_555 1_555
C32 C31 1_555 1_555
H27 C32 1_555 1_555
C33 C32 1_555 1_555
C34 N4 1_555 1_555
C35 N5 1_555 1_555
C36 N5 1_555 1_555
H28 C36 1_555 1_555
C37 C36 1_555 1_555
H29 C37 1_555 1_555
C38 C37 1_555 1_555
H30 C38 1_555 1_555
C39 C35 1_555 1_555
C40 C39 1_555 1_555
H31 C40 1_555 1_555
C41 C33 1_555 1_555
H32 C41 1_555 1_555
C42 C44 1_555 1_555
C43 N7 1_555 1_555
H33 C43 1_555 1_555
H34 C43 1_555 1_555
C44 C43 1_555 1_555
H35 C44 1_555 1_555
H36 C44 1_555 1_555
C45 N1 1_555 1_555
H37 C45 1_555 1_555
H38 C45 1_555 1_555
C46 N2 1_555 1_555
H39 C46 1_555 1_555
H40 C46 1_555 1_555
C47 C48 1_555 1_555
C48 C45 1_555 1_555
H41 C48 1_555 1_555
H42 C48 1_555 1_555
Zn1A O17 1_555 1_555
Zn2A O16 1_555 1_555
Zn3C O19 1_555 1_555
O16A Zn2 1_555 1_555
O17A Zn1 1_555 1_555
O19C Zn3 1_555 1_555
Zn2 O13 1_555 1_555
O14 C21 1_555 1_555
N3 C29 1_555 1_555
N8 C18 1_555 1_555
C4 C5 1_555 1_555
C5 C9 1_555 1_555
C8 C9 1_555 1_555
C11 C12 1_555 1_555
C20 C21 1_555 1_555
C23 C46 1_555 1_555
C33 C34 1_555 1_555
C34 C35 1_555 1_555
C38 C39 1_555 1_555
C40 C41 1_555 1_555

#END
