
#######################################################################
#
#                 Cambridge Crystallographic Data Centre
#                                CCDC 
#
#######################################################################
#
# If this CIF has been generated from an entry in the Cambridge 
# Structural Database, then it will include bibliographic, chemical, 
# crystal, experimental, refinement or atomic coordinate data resulting 
# from the CCDC's data processing and validation procedures.
#
#######################################################################

data_HELFOV
_symmetry_cell_setting           monoclinic
_symmetry_space_group_name_H-M   'C 2/c'
_symmetry_Int_Tables_number      15
_space_group_name_Hall           '-C 2yn'
loop_
_symmetry_equiv_pos_site_id
_symmetry_equiv_pos_as_xyz
1 x,y,z
2 -x,y,1/2-z
3 1/2+x,1/2+y,z
4 1/2-x,1/2+y,1/2-z
5 -x,-y,-z
6 x,-y,1/2+z
7 1/2-x,1/2-y,-z
8 1/2+x,1/2-y,1/2+z
_cell_length_a                   28.038(6)
_cell_length_b                   7.0080(14)
_cell_length_c                   16.563(3)
_cell_angle_alpha                90
_cell_angle_beta                 125.20(3)
_cell_angle_gamma                90
_cell_volume                     2659.37
loop_
_atom_site_label
_atom_site_type_symbol
_atom_site_fract_x
_atom_site_fract_y
_atom_site_fract_z
Nd1 Nd 0.790106(11) 0.88632(4) 0.137957(19)
C1 C 0.8507(2) 0.7728(8) 0.0495(4)
O1 O 0.81944(18) 1.1549(6) 0.0795(3)
C2 C 1.0367(2) 0.7341(10) -0.0230(4)
H1 H 1.0079 0.7184 -0.0901
C3 C 0.7812(2) 1.2602(7) 0.0139(4)
O2 O 0.7885(2) 1.3892(6) -0.0302(4)
O3 O 0.79572(16) 0.7809(7) -0.0058(3)
O4 O 0.87769(18) 0.7901(8) 0.1408(3)
Cl1 Cl 0.79128(8) 0.6113(3) 0.13888(14)
C4 C 1.0218(2) 0.7552(8) 0.0420(4)
C5 C 1.0944(2) 0.7363(11) 0.0115(4)
H2 H 1.1052 0.7209 -0.0316
C6 C 1.1356(2) 0.7615(9) 0.1104(4)
H3 H 1.1748 0.7551 0.1342
C7 C 1.0661(2) 0.7889(11) 0.1406(4)
H4 H 1.0562 0.8078 0.1848
N1 N 0.91589(18) 0.7550(7) -0.0859(3)
H5 H 0.9179 0.7546 -0.1358
C8 C 0.8838(2) 0.7565(7) 0.0067(4)
N2 N 0.94314(18) 0.7554(6) 0.0674(3)
C9 C 0.9611(2) 0.7541(7) 0.0095(4)
N3 N 1.1221(2) 0.7952(9) 0.1745(4)
C10 C 0.8096(2) 0.7657(8) -0.1867(4)
C11 C 0.8665(2) 0.7567(7) -0.0895(4)
O5 O 0.80996(19) 0.8461(7) -0.2540(3)
O6 O 0.76557(18) 0.6979(9) -0.1980(3)
Nd1F Nd 0.709894(11) 1.61368(4) -0.137957(19)
Nd1F_2 Nd 0.709894(11) 0.61368(4) -0.137957(19)
Nd1A Nd 1.209894(11) 0.88632(4) 0.362043(19)
Nd1E Nd 0.790106(11) 1.11368(4) -0.362043(19)
Nd1G Nd 0.290106(11) 0.61368(4) -0.362043(19)
Nd1C Nd 0.709894(11) 0.38632(4) 0.362043(19)
C1F C 0.6493(2) 0.7272(8) -0.0495(4)
O1F O 0.68056(18) 1.3451(6) -0.0795(3)
C2F C 0.4633(2) 0.7659(10) 0.0230(4)
H1F H 0.4921 0.7816 0.0901
C3F C 0.7188(2) 1.2398(7) -0.0139(4)
O2F O 0.7115(2) 1.1108(6) 0.0302(4)
O3F O 0.70428(16) 0.7191(7) 0.0058(3)
O3F_2 O 0.70428(16) 1.7191(7) 0.0058(3)
O3_2 O 0.79572(16) 1.7809(7) -0.0058(3)
O4F O 0.62231(18) 0.7099(8) -0.1408(3)
O4F_2 O 0.62231(18) 1.7099(8) -0.1408(3)
Cl1F Cl 0.70872(8) 1.8887(3) -0.13888(14)
C4F C 0.4782(2) 0.7448(8) -0.0420(4)
C5F C 0.4056(2) 0.7637(11) -0.0115(4)
H2F H 0.3948 0.7791 0.0316
C6F C 0.3644(2) 0.7385(9) -0.1104(4)
H3F H 0.3252 0.7449 -0.1342
C7F C 0.4339(2) 0.7111(11) -0.1406(4)
H4F H 0.4438 0.6922 -0.1848
N1F N 0.58411(18) 0.7450(7) 0.0859(3)
H5F H 0.5821 0.7454 0.1358
C8F C 0.6162(2) 0.7435(7) -0.0067(4)
N2F N 0.55686(18) 0.7446(6) -0.0674(3)
C9F C 0.5389(2) 0.7459(7) -0.0095(4)
N3F N 0.3779(2) 0.7048(9) -0.1745(4)
N3A N 0.8779(2) 0.7952(9) 0.3255(4)
N3G N 0.6221(2) 1.7048(9) -0.3255(4)
C10F C 0.6904(2) 0.7343(8) 0.1867(4)
C11F C 0.6335(2) 0.7433(7) 0.0895(4)
O5F O 0.69004(19) 0.6539(7) 0.2540(3)
O5E O 0.80996(19) 1.1539(7) 0.2460(3)
O5C O 0.69004(19) 1.3461(7) -0.2460(3)
O6F O 0.73443(18) 0.8021(9) 0.1980(3)
O6_2 O 0.76557(18) 1.6979(9) -0.1980(3)
O7 O 0.9118(3) 0.3453(11) 0.2444(4)
O8 O 0.0000 0.5417(14) 0.2500
O9 O 0.0000 0.015(3) 0.2500
Cl2? Cl 0.8061(3) 0.5293(10) 0.1676(5)
loop_
_geom_bond_atom_site_label_1
_geom_bond_atom_site_label_2
_geom_bond_site_symmetry_1
_geom_bond_site_symmetry_2
Nd1 O1 1_555 1_555
C1 O3 1_555 1_555
O1 C3 1_555 1_555
C2 H1 1_555 1_555
C3 O2 1_555 1_555
O2 Nd1F 1_555 1_555
O3 Nd1 1_555 1_555
O4 Nd1 1_555 1_555
Cl1 Nd1 1_555 1_555
C4 C2 1_555 1_555
C5 C2 1_555 1_555
H2 C5 1_555 1_555
C6 C5 1_555 1_555
H3 C6 1_555 1_555
C7 C4 1_555 1_555
H4 C7 1_555 1_555
N1 H5 1_555 1_555
C8 C1 1_555 1_555
N2 C8 1_555 1_555
C9 C4 1_555 1_555
N3 C6 1_555 1_555
C10 C11 1_555 1_555
C11 N1 1_555 1_555
O5 C10 1_555 1_555
O6 C10 1_555 1_555
Nd1F O1F 1_555 1_555
Nd1F_2 O3 1_555 1_555
Nd1A N3 1_555 1_555
Nd1E O5 1_555 1_555
Nd1G N3F 1_555 1_555
Nd1C O5F 1_555 1_555
C1F O3F 1_555 1_555
O1F C3F 1_555 1_555
C2F H1F 1_555 1_555
C3F C3 1_555 1_555
O2F Nd1 1_555 1_555
O3F Nd1 1_555 1_555
O3F_2 Nd1F 1_555 1_555
O3_2 Nd1F 1_555 1_555
O4F Nd1F_2 1_555 1_555
O4F_2 Nd1F 1_555 1_555
Cl1F Nd1F 1_555 1_555
C4F C2F 1_555 1_555
C5F C2F 1_555 1_555
H2F C5F 1_555 1_555
C6F C5F 1_555 1_555
H3F C6F 1_555 1_555
C7F C4F 1_555 1_555
H4F C7F 1_555 1_555
N1F H5F 1_555 1_555
C8F C1F 1_555 1_555
N2F C8F 1_555 1_555
C9F C4F 1_555 1_555
N3F C6F 1_555 1_555
N3A Nd1 1_555 1_555
N3G Nd1F 1_555 1_555
C10F C11F 1_555 1_555
C11F N1F 1_555 1_555
O5F C10F 1_555 1_555
O5E Nd1 1_555 1_555
O5C Nd1F 1_555 1_555
O6F Nd1 1_555 1_555
O6_2 Nd1F 1_555 1_555
C1 O4 1_555 1_555
C7 N3 1_555 1_555
N1 C9 1_555 1_555
C8 C11 1_555 1_555
N2 C9 1_555 1_555
O6 Nd1F_2 1_555 1_555
Nd1F_2 O3F 1_555 1_555
C1F O4F 1_555 1_555
C3F O2F 1_555 1_555
C7F N3F 1_555 1_555
N1F C9F 1_555 1_555
C8F C11F 1_555 1_555
N2F C9F 1_555 1_555
C10F O6F 1_555 1_555

#END
