
#######################################################################
#
#                 Cambridge Crystallographic Data Centre
#                                CCDC 
#
#######################################################################
#
# If this CIF has been generated from an entry in the Cambridge 
# Structural Database, then it will include bibliographic, chemical, 
# crystal, experimental, refinement or atomic coordinate data resulting 
# from the CCDC's data processing and validation procedures.
#
#######################################################################

data_HELFIP
_symmetry_cell_setting           monoclinic
_symmetry_space_group_name_H-M   'C 2/c'
_symmetry_Int_Tables_number      15
_space_group_name_Hall           '-C 2yn'
loop_
_symmetry_equiv_pos_site_id
_symmetry_equiv_pos_as_xyz
1 x,y,z
2 -x,y,1/2-z
3 1/2+x,1/2+y,z
4 1/2-x,1/2+y,1/2-z
5 -x,-y,-z
6 x,-y,1/2+z
7 1/2-x,1/2-y,-z
8 1/2+x,1/2-y,1/2+z
_cell_length_a                   28.302(6)
_cell_length_b                   7.0921(14)
_cell_length_c                   16.752(3)
_cell_angle_alpha                90
_cell_angle_beta                 125.03(3)
_cell_angle_gamma                90
_cell_volume                     2753.37
loop_
_atom_site_label
_atom_site_type_symbol
_atom_site_fract_x
_atom_site_fract_y
_atom_site_fract_z
C1 C -0.18976(17) 0.7332(6) -0.6857(3)
C2 C -0.28135(18) 0.2611(6) -0.5136(3)
Pr1 Pr -0.209840(9) 0.61397(3) -0.361740(16)
O1 O -0.28807(17) 0.3878(5) -0.4695(3)
O2 O -0.20393(13) 0.7191(5) -0.5056(2)
O3 O -0.12217(14) 0.7109(6) -0.3596(2)
C3 C -0.14899(18) 0.7269(6) -0.4506(3)
Cl1 Cl -0.20921(11) 0.8854(4) -0.36153(18)
O4 O -0.18937(16) 0.6543(5) -0.7531(3)
O5 O -0.31916(15) 0.1549(5) -0.5787(3)
O6 O -0.23355(15) 0.8031(7) -0.6976(2)
N1 N 0.12198(17) 0.7070(7) -0.3258(3)
C4 C -0.11612(17) 0.7442(6) -0.4934(3)
N2 N -0.05663(15) 0.7440(5) -0.4328(3)
C5 C 0.02211(18) 0.7451(6) -0.4578(3)
C6 C 0.0661(2) 0.7129(8) -0.3599(3)
H1 H 0.0562 0.6947 -0.3164
C7 C 0.13580(19) 0.7382(7) -0.3893(3)
H2 H 0.1746 0.7410 -0.3658
C8 C 0.0951(2) 0.7662(8) -0.4879(4)
H3 H 0.1061 0.7834 -0.5301
C9 C 0.0370(2) 0.7680(8) -0.5226(3)
H4 H 0.0086 0.7844 -0.5887
N3 N -0.08356(15) 0.7439(5) -0.5856(3)
H5 H -0.0815 0.7433 -0.6348
C10 C -0.03836(18) 0.7462(6) -0.4901(3)
C11 C -0.13300(17) 0.7427(6) -0.5888(3)
C1F C -0.31024(17) 0.7668(6) -0.3143(3)
C2F C -0.21865(18) 0.2389(6) -0.4864(3)
Pr1F Pr -0.290160(9) -0.11397(3) -0.638260(16)
Pr1F_2 Pr -0.290160(9) 0.88603(3) -0.638260(16)
Pr1E Pr -0.209840(9) 0.38603(3) -0.861740(16)
Pr1A Pr 0.209840(9) 0.61397(3) -0.138260(16)
Pr1C Pr -0.290160(9) 1.11397(3) -0.138260(16)
Pr1G Pr -0.709840(9) 0.88603(3) -0.861740(16)
O1F O -0.21193(17) 0.1122(5) -0.5305(3)
O2F O -0.29607(13) 0.7809(5) -0.4944(2)
O2F_2 O -0.29607(13) -0.2191(5) -0.4944(2)
O2_2 O -0.20393(13) -0.2809(5) -0.5056(2)
O3F O -0.37783(14) 0.7891(6) -0.6404(2)
O3F_2 O -0.37783(14) -0.2109(6) -0.6404(2)
C3F C -0.35101(18) 0.7731(6) -0.5494(3)
Cl1F Cl -0.29079(11) -0.3854(4) -0.63847(18)
O4F O -0.31063(16) 0.8457(5) -0.2469(3)
O4E O -0.18937(16) 0.3457(5) -0.2531(3)
O4C O -0.31063(16) 0.1543(5) -0.7469(3)
O5F O -0.18084(15) 0.3451(5) -0.4213(3)
O6F O -0.26645(15) 0.6969(7) -0.3024(2)
O6_2 O -0.23355(15) -0.1969(7) -0.6976(2)
N1F N -0.62198(17) 0.7930(7) -0.6742(3)
N1A N -0.12198(17) 0.7070(7) -0.1742(3)
N1G N -0.37802(17) -0.2070(7) -0.8258(3)
C4F C -0.38388(17) 0.7558(6) -0.5066(3)
N2F N -0.44337(15) 0.7560(5) -0.5672(3)
C5F C -0.52211(18) 0.7549(6) -0.5422(3)
C6F C -0.5661(2) 0.7871(8) -0.6401(3)
H1F H -0.5562 0.8053 -0.6836
C7F C -0.63580(19) 0.7618(7) -0.6107(3)
H2F H -0.6746 0.7590 -0.6342
C8F C -0.5951(2) 0.7338(8) -0.5121(4)
H3F H -0.6061 0.7166 -0.4699
C9F C -0.5370(2) 0.7320(8) -0.4774(3)
H4F H -0.5086 0.7156 -0.4113
N3F N -0.41644(15) 0.7561(5) -0.4144(3)
H5F H -0.4185 0.7567 -0.3652
C10F C -0.46164(18) 0.7538(6) -0.5099(3)
C11F C -0.36700(17) 0.7573(6) -0.4112(3)
O7 O 0.0883(2) 0.8447(8) 0.2556(3)
O8 O 0.0000 0.0446(10) 0.2500
O9 O 0.0000 0.523(2) 0.2500
Cl2? Cl -0.1953(2) 0.0317(7) 0.1658(3)
loop_
_geom_bond_atom_site_label_1
_geom_bond_atom_site_label_2
_geom_bond_site_symmetry_1
_geom_bond_site_symmetry_2
C1 O4 1_555 1_555
C2 O1 1_555 1_555
Pr1 O1 1_555 1_555
O2 Pr1 1_555 1_555
O3 Pr1 1_555 1_555
C3 O2 1_555 1_555
Cl1 Pr1 1_555 1_555
O4 Pr1E 1_555 1_555
O5 C2 1_555 1_555
O6 C1 1_555 1_555
N1 C6 1_555 1_555
C4 C3 1_555 1_555
N2 C4 1_555 1_555
C5 C6 1_555 1_555
C6 H1 1_555 1_555
C7 N1 1_555 1_555
H2 C7 1_555 1_555
C8 C7 1_555 1_555
H3 C8 1_555 1_555
C9 C5 1_555 1_555
H4 C9 1_555 1_555
N3 H5 1_555 1_555
C10 N2 1_555 1_555
C11 C1 1_555 1_555
C1F O4F 1_555 1_555
C2F C2 1_555 1_555
Pr1F O5 1_555 1_555
Pr1F_2 O2 1_555 1_555
Pr1A N1 1_555 1_555
Pr1C O4F 1_555 1_555
Pr1G N1F 1_555 1_555
O1F C2F 1_555 1_555
O2F Pr1 1_555 1_555
O2F_2 Pr1F 1_555 1_555
O2_2 Pr1F 1_555 1_555
O3F Pr1F_2 1_555 1_555
O3F_2 Pr1F 1_555 1_555
C3F O2F 1_555 1_555
Cl1F Pr1F 1_555 1_555
O4E Pr1 1_555 1_555
O4C Pr1F 1_555 1_555
O5F Pr1 1_555 1_555
O6F Pr1 1_555 1_555
O6_2 Pr1F 1_555 1_555
N1F C6F 1_555 1_555
N1A Pr1 1_555 1_555
N1G Pr1F 1_555 1_555
C4F C3F 1_555 1_555
N2F C4F 1_555 1_555
C5F C6F 1_555 1_555
C6F H1F 1_555 1_555
C7F N1F 1_555 1_555
H2F C7F 1_555 1_555
C8F C7F 1_555 1_555
H3F C8F 1_555 1_555
C9F C5F 1_555 1_555
H4F C9F 1_555 1_555
N3F H5F 1_555 1_555
C10F N2F 1_555 1_555
C11F C1F 1_555 1_555
O3 C3 1_555 1_555
O6 Pr1F_2 1_555 1_555
C4 C11 1_555 1_555
C5 C10 1_555 1_555
C8 C9 1_555 1_555
N3 C10 1_555 1_555
N3 C11 1_555 1_555
C1F O6F 1_555 1_555
C2F O5F 1_555 1_555
Pr1F O1F 1_555 1_555
Pr1F_2 O2F 1_555 1_555
O3F C3F 1_555 1_555
C4F C11F 1_555 1_555
C5F C10F 1_555 1_555
C8F C9F 1_555 1_555
N3F C10F 1_555 1_555
N3F C11F 1_555 1_555

#END
