
#######################################################################
#
#                 Cambridge Crystallographic Data Centre
#                                CCDC 
#
#######################################################################
#
# If this CIF has been generated from an entry in the Cambridge 
# Structural Database, then it will include bibliographic, chemical, 
# crystal, experimental, refinement or atomic coordinate data resulting 
# from the CCDC's data processing and validation procedures.
#
#######################################################################

data_HELFUB
_symmetry_cell_setting           monoclinic
_symmetry_space_group_name_H-M   'C 2/c'
_symmetry_Int_Tables_number      15
_space_group_name_Hall           '-C 2yn'
loop_
_symmetry_equiv_pos_site_id
_symmetry_equiv_pos_as_xyz
1 x,y,z
2 -x,y,1/2-z
3 1/2+x,1/2+y,z
4 1/2-x,1/2+y,1/2-z
5 -x,-y,-z
6 x,-y,1/2+z
7 1/2-x,1/2-y,-z
8 1/2+x,1/2-y,1/2+z
_cell_length_a                   28.229(6)
_cell_length_b                   7.0072(14)
_cell_length_c                   16.661(3)
_cell_angle_alpha                90
_cell_angle_beta                 125.17(3)
_cell_angle_gamma                90
_cell_volume                     2694.02
loop_
_atom_site_label
_atom_site_type_symbol
_atom_site_fract_x
_atom_site_fract_y
_atom_site_fract_z
C1 C 0.7812(3) 1.2603(10) 0.0141(5)
Cl1 Cl 0.70913(9) 1.8875(4) -0.13799(17)
C2 C 0.6912(3) 1.2676(12) -0.3125(5)
O1 O 0.6908(3) 1.3460(10) -0.2451(4)
Sm1 Sm 0.710090(15) 1.61374(6) -0.13750(3)
O2 O 0.7885(3) 1.3909(9) -0.0299(5)
O3 O 0.7050(2) 1.2808(9) -0.4940(4)
N1 N 0.5845(2) 1.2558(9) -0.4140(4)
H1 H 0.5823 1.2564 -0.3647
O4 O 0.6230(2) 1.2904(11) -0.6410(4)
C3 C 0.4783(3) 1.2551(10) -0.5424(5)
C4 C 0.6164(3) 1.2569(10) -0.5075(5)
O5 O 0.7353(2) 1.2008(13) -0.3021(4)
C5 C 0.6499(3) 1.2732(11) -0.5495(5)
N2 N 0.5570(3) 1.2559(8) -0.5680(4)
C6 C 0.6342(3) 1.2561(10) -0.4100(5)
C7 C 0.5394(3) 1.2545(10) -0.5099(5)
C8 C 0.4634(3) 1.2349(14) -0.4768(6)
H2 H 0.4920 1.2200 -0.4101
C9 C 0.4339(3) 1.2896(15) -0.6407(6)
H3 H 0.4438 1.3093 -0.6845
O6 O 0.8195(3) 1.1554(9) 0.0804(5)
N3 N 0.3778(3) 1.2958(12) -0.6752(5)
C10 C 0.4055(3) 1.2371(13) -0.5118(6)
H4 H 0.3945 1.2222 -0.4692
C11 C 0.3642(3) 1.2619(13) -0.6114(6)
H5 H 0.3253 1.2548 -0.6352
C1F C 0.7188(3) 1.2397(10) -0.0141(5)
Cl1E Cl 0.70913(9) 1.1125(4) 0.36201(17)
C2E C 0.6912(3) 1.7324(12) 0.1875(5)
O1E O 0.6908(3) 1.6540(10) 0.2549(4)
Sm1E Sm 0.710090(15) 1.38626(6) 0.36250(3)
Sm1E_2 Sm 0.710090(15) 1.38626(6) -0.63750(3)
Sm1C Sm 0.789910(15) 1.11374(6) -0.36250(3)
Sm1F Sm 0.789910(15) 0.88626(6) 0.13750(3)
Sm1D Sm 0.289910(15) 1.38626(6) -0.86250(3)
Sm1F_2 Sm 0.789910(15) 1.88626(6) 0.13750(3)
Sm1A Sm 0.289910(15) 1.61374(6) -0.36250(3)
O2F O 0.7115(3) 1.1091(9) 0.0299(5)
O2E O 0.7885(3) 1.6091(9) 0.4701(5)
O3E O 0.7050(2) 1.7192(9) 0.0060(4)
O3C O 0.7950(2) 1.7808(9) -0.0060(4)
O3_2 O 0.7050(2) 1.2808(9) 0.5060(4)
O3F O 0.7950(2) 1.2192(9) 0.4940(4)
N1E N 0.5845(2) 1.7442(9) 0.0860(4)
H1E H 0.5823 1.7436 0.1353
O4E O 0.6230(2) 1.7096(11) -0.1410(4)
O4_2 O 0.6230(2) 1.2904(11) 0.3590(4)
C3E C 0.4783(3) 1.7449(10) -0.0424(5)
C4E C 0.6164(3) 1.7431(10) -0.0075(5)
O5E O 0.7353(2) 1.7992(13) 0.1979(4)
O5C O 0.7647(2) 1.7008(13) -0.1979(4)
O5F O 0.7647(2) 1.2992(13) 0.3021(4)
C5E C 0.6499(3) 1.7268(11) -0.0495(5)
N2E N 0.5570(3) 1.7441(8) -0.0680(4)
C6E C 0.6342(3) 1.7439(10) 0.0900(5)
C7E C 0.5394(3) 1.7455(10) -0.0099(5)
C8E C 0.4634(3) 1.7651(14) 0.0232(6)
H2E H 0.4920 1.7800 0.0899
C9E C 0.4339(3) 1.7104(15) -0.1407(6)
H3E H 0.4438 1.6907 -0.1845
O6F O 0.6805(3) 1.3446(9) -0.0804(5)
O6C O 0.6805(3) 1.6554(9) 0.4196(5)
N3E N 0.3778(3) 1.7042(12) -0.1752(5)
N3D N 0.6222(3) 1.7042(12) -0.3248(5)
N3A N 0.6222(3) 1.2958(12) 0.1752(5)
C10E C 0.4055(3) 1.7629(13) -0.0118(6)
H4E H 0.3945 1.7778 0.0308
C11E C 0.3642(3) 1.7381(13) -0.1114(6)
H5E H 0.3253 1.7452 -0.1352
O7 O 0.0882(3) 0.3449(13) 0.2557(5)
O8 O 0.0000 0.5389(15) 0.2500
O9 O 0.0000 0.021(3) 0.2500
Cl2? Cl 0.8048(4) 0.5329(13) 0.1645(6)
loop_
_geom_bond_atom_site_label_1
_geom_bond_atom_site_label_2
_geom_bond_site_symmetry_1
_geom_bond_site_symmetry_2
C1 O2 1_555 1_555
Cl1 Sm1 1_555 1_555
C2 O1 1_555 1_555
O1 Sm1 1_555 1_555
Sm1 O2 1_555 1_555
O3 C5 1_555 1_555
N1 H1 1_555 1_555
O4 C5 1_555 1_555
C3 C7 1_555 1_555
C4 C5 1_555 1_555
O5 C2 1_555 1_555
N2 C4 1_555 1_555
C6 C2 1_555 1_555
C7 N1 1_555 1_555
C8 C3 1_555 1_555
H2 C8 1_555 1_555
C9 C3 1_555 1_555
H3 C9 1_555 1_555
O6 C1 1_555 1_555
N3 C9 1_555 1_555
C10 C8 1_555 1_555
H4 C10 1_555 1_555
C11 N3 1_555 1_555
H5 C11 1_555 1_555
C1F C1 1_555 1_555
Cl1E Sm1E 1_555 1_555
C2E O1E 1_555 1_555
O1E Sm1E 1_555 1_555
Sm1E O2E 1_555 1_555
Sm1E_2 O3 1_555 1_555
Sm1C O3 1_555 1_555
Sm1F O6 1_555 1_555
Sm1D N3 1_555 1_555
Sm1F_2 O3E 1_555 1_555
Sm1A N3E 1_555 1_555
O2F C1F 1_555 1_555
O3E Sm1 1_555 1_555
O3C Sm1 1_555 1_555
O3_2 Sm1E 1_555 1_555
O3F Sm1E 1_555 1_555
N1E H1E 1_555 1_555
O4E Sm1 1_555 1_555
O4_2 Sm1E 1_555 1_555
C3E C7E 1_555 1_555
C4E C5E 1_555 1_555
O5E C2E 1_555 1_555
O5C Sm1 1_555 1_555
O5F Sm1E 1_555 1_555
C5E O3E 1_555 1_555
N2E C4E 1_555 1_555
C6E C2E 1_555 1_555
C7E N1E 1_555 1_555
C8E C3E 1_555 1_555
H2E C8E 1_555 1_555
C9E C3E 1_555 1_555
H3E C9E 1_555 1_555
O6F Sm1 1_555 1_555
O6C Sm1E 1_555 1_555
N3E C9E 1_555 1_555
N3D Sm1 1_555 1_555
N3A Sm1E 1_555 1_555
C10E C8E 1_555 1_555
H4E C10E 1_555 1_555
C11E N3E 1_555 1_555
H5E C11E 1_555 1_555
N1 C6 1_555 1_555
O4 Sm1E_2 1_555 1_555
C4 C6 1_555 1_555
O5 Sm1C 1_555 1_555
N2 C7 1_555 1_555
C10 C11 1_555 1_555
C1F O6F 1_555 1_555
Sm1F O2F 1_555 1_555
Sm1F_2 O3C 1_555 1_555
Sm1F_2 O5E 1_555 1_555
N1E C6E 1_555 1_555
O4E C5E 1_555 1_555
C4E C6E 1_555 1_555
N2E C7E 1_555 1_555
C10E C11E 1_555 1_555

#END
