
#######################################################################
#
#                 Cambridge Crystallographic Data Centre
#                                CCDC 
#
#######################################################################
#
# If this CIF has been generated from an entry in the Cambridge 
# Structural Database, then it will include bibliographic, chemical, 
# crystal, experimental, refinement or atomic coordinate data resulting 
# from the CCDC's data processing and validation procedures.
#
#######################################################################

data_HEMMER
_symmetry_cell_setting           orthorhombic
_symmetry_space_group_name_H-M   'P b c n'
_symmetry_Int_Tables_number      60
_space_group_name_Hall           '-P 2n 2ab'
loop_
_symmetry_equiv_pos_site_id
_symmetry_equiv_pos_as_xyz
1 x,y,z
2 1/2-x,1/2+y,z
3 x,-y,1/2+z
4 1/2-x,1/2-y,1/2+z
5 -x,-y,-z
6 1/2+x,1/2-y,-z
7 -x,y,1/2-z
8 1/2+x,1/2+y,1/2-z
_cell_length_a                   31.212(3)
_cell_length_b                   11.248(2)
_cell_length_c                   9.051(2)
_cell_angle_alpha                90
_cell_angle_beta                 90
_cell_angle_gamma                90
_cell_volume                     3177.56
loop_
_atom_site_label
_atom_site_type_symbol
_atom_site_fract_x
_atom_site_fract_y
_atom_site_fract_z
Mn1 Mn 0.00000 0.05902(18) 0.25000
S1 S -0.14796(7) 0.19544(25) 0.37760(27)
O1 O -0.14321(18) 0.27296(54) 0.25090(80)
O2 O -0.13576(21) 0.24176(64) 0.51893(75)
O3 O -0.04184(17) 0.07030(57) 0.44248(57)
O4 O -0.05824(16) -0.05657(56) 0.62138(60)
O5 O 0.00000 -0.13476(90) 0.25000
O6 O 0.00000 0.25425(78) 0.25000
N1 N -0.12305(19) 0.07530(65) 0.33625(69)
C1 C -0.20244(27) 0.15213(77) 0.39202(98)
C2 C -0.22818(31) 0.21080(87) 0.4925(11)
C3 C -0.27119(33) 0.18106(92) 0.4950(12)
C4 C -0.28896(31) 0.09446(87) 0.4090(11)
C5 C -0.26256(32) 0.03633(91) 0.3078(11)
C6 C -0.21781(32) 0.06471(89) 0.2997(11)
C7 C -0.33557(32) 0.0591(10) 0.4177(15)
C8 C -0.11314(27) -0.01208(80) 0.45158(91)
C9 C -0.11900(36) -0.1343(10) 0.3921(13)
C10 C -0.06676(24) 0.00297(89) 0.5075(11)
H5 H -0.101(1) 0.066(1) 0.233(1)
H6 H -0.215(1) 0.277(1) 0.566(1)
H7 H -0.292(1) 0.229(1) 0.569(1)
H8 H -0.276(1) -0.030(1) 0.235(1)
H9 H -0.197(1) 0.019(1) 0.224(1)
H10 H -0.135(1) 0.002(1) 0.543(1)
H11 H -0.101(1) -0.159(1) 0.349(1)
H12 H -0.147(1) -0.162(1) 0.322(1)
H13 H -0.130(1) -0.199(1) 0.456(1)
S1F S 0.14796(7) 0.19544(25) 0.12240(27)
O1F O 0.14321(18) 0.27296(54) 0.24910(80)
O2F O 0.13576(21) 0.24176(64) -0.01893(75)
O3F O 0.04184(17) 0.07030(57) 0.05752(57)
O4F O 0.05824(16) -0.05657(56) -0.12138(60)
N1F N 0.12305(19) 0.07530(65) 0.16375(69)
C1F C 0.20244(27) 0.15213(77) 0.10798(98)
C2F C 0.22818(31) 0.21080(87) 0.0075(11)
C3F C 0.27119(33) 0.18106(92) 0.0050(12)
C4F C 0.28896(31) 0.09446(87) 0.0910(11)
C5F C 0.26256(32) 0.03633(91) 0.1922(11)
C6F C 0.21781(32) 0.06471(89) 0.2003(11)
C7F C 0.33557(32) 0.0591(10) 0.0823(15)
C8F C 0.11314(27) -0.01208(80) 0.04842(91)
C9F C 0.11900(36) -0.1343(10) 0.1079(13)
C10F C 0.06676(24) 0.00297(89) -0.0075(11)
H5F H 0.101(1) 0.066(1) 0.267(1)
H6F H 0.215(1) 0.277(1) -0.066(1)
H7F H 0.292(1) 0.229(1) -0.069(1)
H8F H 0.276(1) -0.030(1) 0.265(1)
H9F H 0.197(1) 0.019(1) 0.276(1)
H10F H 0.135(1) 0.002(1) -0.043(1)
H11F H 0.101(1) -0.159(1) 0.151(1)
H12F H 0.147(1) -0.162(1) 0.178(1)
H13F H 0.130(1) -0.199(1) 0.044(1)
O4B O -0.05824(16) 0.05657(56) 0.12138(60)
O4D O 0.05824(16) 0.05657(56) 0.37862(60)
Mn1B Mn 0.00000 -0.05902(18) 0.75000
Mn1B_2 Mn 0.00000 -0.05902(18) -0.25000
O7 O 0.56737(39) -0.1042(12) 0.1803(22)
H1 H 0.56510 -0.08190 0.28780
H2 H 0.58120 -0.17470 0.16860
O8 O 0.54700(83) 0.1772(24) 0.0748(30)
C11 C 0.5741(13) 0.1018(34) 0.1485(45)
O9 O 0.4782(13) 0.1649(34) 0.0791(43)
H3 H 0.46140 0.09060 0.08590
H4 H 0.50330 0.21460 0.07310
loop_
_geom_bond_atom_site_label_1
_geom_bond_atom_site_label_2
_geom_bond_site_symmetry_1
_geom_bond_site_symmetry_2
Mn1 O3 1_555 1_555
S1 O1 1_555 1_555
O2 S1 1_555 1_555
O3 C10 1_555 1_555
O4 C10 1_555 1_555
O5 Mn1 1_555 1_555
O6 Mn1 1_555 1_555
O7 H1 1_555 1_555
H2 O7 1_555 1_555
O8 C11 1_555 1_555
O9 H3 1_555 1_555
H4 O9 1_555 1_555
N1 S1 1_555 1_555
C1 S1 1_555 1_555
C2 C1 1_555 1_555
C3 C2 1_555 1_555
C4 C3 1_555 1_555
C5 C4 1_555 1_555
C6 C1 1_555 1_555
C7 C4 1_555 1_555
C8 N1 1_555 1_555
C9 C8 1_555 1_555
C10 C8 1_555 1_555
H5 N1 1_555 1_555
H6 C2 1_555 1_555
H7 C3 1_555 1_555
H8 C5 1_555 1_555
H9 C6 1_555 1_555
H10 C8 1_555 1_555
H11 C9 1_555 1_555
H12 C9 1_555 1_555
H13 C9 1_555 1_555
S1F O1F 1_555 1_555
O2F S1F 1_555 1_555
O3F Mn1 1_555 1_555
O4F C10F 1_555 1_555
N1F S1F 1_555 1_555
C1F S1F 1_555 1_555
C2F C1F 1_555 1_555
C3F C2F 1_555 1_555
C4F C3F 1_555 1_555
C5F C4F 1_555 1_555
C6F C1F 1_555 1_555
C7F C4F 1_555 1_555
C8F N1F 1_555 1_555
C9F C8F 1_555 1_555
C10F O3F 1_555 1_555
H5F N1F 1_555 1_555
H6F C2F 1_555 1_555
H7F C3F 1_555 1_555
H8F C5F 1_555 1_555
H9F C6F 1_555 1_555
H10F C8F 1_555 1_555
H11F C9F 1_555 1_555
H12F C9F 1_555 1_555
H13F C9F 1_555 1_555
O4B Mn1 1_555 1_555
O4D Mn1 1_555 1_555
Mn1B O4 1_555 1_555
Mn1B_2 O4F 1_555 1_555
C5 C6 1_555 1_555
C5F C6F 1_555 1_555
C8F C10F 1_555 1_555

#END
