
#######################################################################
#
#                 Cambridge Crystallographic Data Centre
#                                CCDC 
#
#######################################################################
#
# If this CIF has been generated from an entry in the Cambridge 
# Structural Database, then it will include bibliographic, chemical, 
# crystal, experimental, refinement or atomic coordinate data resulting 
# from the CCDC's data processing and validation procedures.
#
#######################################################################

data_HENNEU
_symmetry_cell_setting           monoclinic
_symmetry_space_group_name_H-M   'C 2/c'
_symmetry_Int_Tables_number      15
_space_group_name_Hall           '-C 2yn'
loop_
_symmetry_equiv_pos_site_id
_symmetry_equiv_pos_as_xyz
1 x,y,z
2 1/2+x,1/2+y,z
3 -x,y,1/2-z
4 1/2-x,1/2+y,1/2-z
5 -x,-y,-z
6 1/2-x,1/2-y,-z
7 x,-y,1/2+z
8 1/2+x,1/2-y,1/2+z
_cell_length_a                   17.389(1)
_cell_length_b                   8.850(1)
_cell_length_c                   15.623(1)
_cell_angle_alpha                90
_cell_angle_beta                 90.76(1)
_cell_angle_gamma                90
_cell_volume                     2404.05
loop_
_atom_site_label
_atom_site_type_symbol
_atom_site_fract_x
_atom_site_fract_y
_atom_site_fract_z
Mo1 Mo 0.5000 0.22452(2) 0.2500
C1 C 0.62146(11) -0.0119(2) 0.26447(12)
O1 O 0.56383(8) 0.03458(15) 0.31123(8)
C2 C 0.62744(11) 0.0546(2) 0.18236(12)
O2 O 0.57567(8) 0.16368(17) 0.16351(8)
C3 C 0.68277(12) 0.0073(3) 0.12592(14)
H1 H 0.6847 0.0496 0.0701
C4 C 0.73590(15) -0.1025(4) 0.15091(17)
H2 H 0.7740 -0.1350 0.1119
C5 C 0.73362(16) -0.1636(4) 0.23102(18)
H3 H 0.7710 -0.2366 0.2477
C6 C 0.67633(13) -0.1197(3) 0.28960(14)
C7 C 0.67696(17) -0.1865(4) 0.37396(16)
H4 H 0.7169 -0.2569 0.3858
O3 O 0.63202(11) -0.1625(2) 0.43166(10)
O4 O 0.45061(10) 0.34447(18) 0.18370(10)
O5 O 0.54067(9) 0.13155(17) 0.51578(9)
C8 C 0.57231(13) 0.2562(2) 0.50785(14)
H5 H 0.5953 0.2774 0.4543
N1 N 0.57688(11) 0.3615(2) 0.56685(12)
C9 C 0.5454(2) 0.3396(3) 0.65173(15)
H6 H 0.4953 0.3899 0.6550
H7 H 0.5805 0.3828 0.6947
H8 H 0.5390 0.2313 0.6626
C10 C 0.6141(2) 0.5054(4) 0.5504(2)
H9 H 0.6603 0.5144 0.5867
H10 H 0.5786 0.5880 0.5634
H11 H 0.6286 0.5108 0.4901
Li1 Li 0.5429(2) -0.0253(4) 0.4269(2)
C1B C 0.37854(11) -0.0119(2) 0.23553(12)
O1B O 0.43617(8) 0.03458(15) 0.18877(8)
C2B C 0.37256(11) 0.0546(2) 0.31764(12)
O2B O 0.42433(8) 0.16368(17) 0.33649(8)
C3B C 0.31723(12) 0.0073(3) 0.37408(14)
H1B H 0.3153 0.0496 0.4299
C4B C 0.26410(15) -0.1025(4) 0.34909(17)
H2B H 0.2260 -0.1350 0.3881
C5B C 0.26638(16) -0.1636(4) 0.26898(18)
H3B H 0.2290 -0.2366 0.2523
C6B C 0.32367(13) -0.1197(3) 0.21040(14)
C7B C 0.32304(17) -0.1865(4) 0.12604(16)
H4B H 0.2831 -0.2569 0.1142
O3B O 0.36798(11) -0.1625(2) 0.06834(10)
O4B O 0.54939(10) 0.34447(18) 0.31630(10)
O5D O 0.45933(9) -0.13155(17) 0.48422(9)
O5F O 0.54067(9) -0.13155(17) 0.01578(9)
O5B O 0.45933(9) 0.13155(17) -0.01578(9)
C8D C 0.42769(13) -0.2562(2) 0.49215(14)
H5D H 0.4047 -0.2774 0.5457
N1D N 0.42312(11) -0.3615(2) 0.43315(12)
C9D C 0.4546(2) -0.3396(3) 0.34827(15)
H6D H 0.5047 -0.3899 0.3450
H7D H 0.4195 -0.3828 0.3053
H8D H 0.4610 -0.2313 0.3374
C10D C 0.3859(2) -0.5054(4) 0.4496(2)
H9D H 0.3397 -0.5144 0.4133
H10D H 0.4214 -0.5880 0.4366
H11D H 0.3714 -0.5108 0.5099
Li1B Li 0.4571(2) -0.0253(4) 0.0731(2)
Li1D Li 0.4571(2) 0.0253(4) 0.5731(2)
loop_
_geom_bond_atom_site_label_1
_geom_bond_atom_site_label_2
_geom_bond_site_symmetry_1
_geom_bond_site_symmetry_2
Mo1 O1 1_555 1_555
C1 O1 1_555 1_555
O1 Li1 1_555 1_555
C2 C1 1_555 1_555
O2 Mo1 1_555 1_555
C3 C2 1_555 1_555
H1 C3 1_555 1_555
C4 C3 1_555 1_555
H2 C4 1_555 1_555
C5 C4 1_555 1_555
H3 C5 1_555 1_555
C6 C1 1_555 1_555
C7 C6 1_555 1_555
H4 C7 1_555 1_555
O3 C7 1_555 1_555
O4 Mo1 1_555 1_555
O5 C8 1_555 1_555
C8 H5 1_555 1_555
N1 C8 1_555 1_555
C9 N1 1_555 1_555
H6 C9 1_555 1_555
H7 C9 1_555 1_555
H8 C9 1_555 1_555
C10 N1 1_555 1_555
H9 C10 1_555 1_555
H10 C10 1_555 1_555
H11 C10 1_555 1_555
Li1 O3 1_555 1_555
C1B O1B 1_555 1_555
O1B Mo1 1_555 1_555
C2B C1B 1_555 1_555
O2B Mo1 1_555 1_555
C3B C2B 1_555 1_555
H1B C3B 1_555 1_555
C4B C3B 1_555 1_555
H2B C4B 1_555 1_555
C5B C4B 1_555 1_555
H3B C5B 1_555 1_555
C6B C1B 1_555 1_555
C7B C6B 1_555 1_555
H4B C7B 1_555 1_555
O3B C7B 1_555 1_555
O4B Mo1 1_555 1_555
O5D Li1 1_555 1_555
O5F Li1B 1_555 1_555
O5B Li1B 1_555 1_555
C8D O5D 1_555 1_555
H5D C8D 1_555 1_555
N1D C8D 1_555 1_555
C9D N1D 1_555 1_555
H6D C9D 1_555 1_555
H7D C9D 1_555 1_555
H8D C9D 1_555 1_555
C10D N1D 1_555 1_555
H9D C10D 1_555 1_555
H10D C10D 1_555 1_555
H11D C10D 1_555 1_555
Li1B O1B 1_555 1_555
Li1D O5 1_555 1_555
C2 O2 1_555 1_555
C5 C6 1_555 1_555
O5 Li1 1_555 1_555
C2B O2B 1_555 1_555
C5B C6B 1_555 1_555
O3B Li1B 1_555 1_555
O5D Li1D 1_555 1_555

#END
