
#######################################################################
#
#                 Cambridge Crystallographic Data Centre
#                                CCDC 
#
#######################################################################
#
# If this CIF has been generated from an entry in the Cambridge 
# Structural Database, then it will include bibliographic, chemical, 
# crystal, experimental, refinement or atomic coordinate data resulting 
# from the CCDC's data processing and validation procedures.
#
#######################################################################

data_HENWUS
_symmetry_cell_setting           orthorhombic
_symmetry_space_group_name_H-M   'P b c m'
_symmetry_Int_Tables_number      57
_space_group_name_Hall           '-P 2c 2b'
loop_
_symmetry_equiv_pos_site_id
_symmetry_equiv_pos_as_xyz
1 x,y,z
2 -x,1/2+y,z
3 x,1/2-y,1/2+z
4 -x,-y,1/2+z
5 -x,-y,-z
6 x,1/2-y,-z
7 -x,1/2+y,1/2-z
8 x,y,1/2-z
_cell_length_a                   11.011(3)
_cell_length_b                   10.925(3)
_cell_length_c                   6.250(2)
_cell_angle_alpha                90
_cell_angle_beta                 90
_cell_angle_gamma                90
_cell_volume                     751.845
loop_
_atom_site_label
_atom_site_type_symbol
_atom_site_fract_x
_atom_site_fract_y
_atom_site_fract_z
Cu1 Cu 0.06361(9) 0.2513(1) 0.250
Cu2 Cu 0.3693(1) 0.25000 0.000
Br1 Br 0.23638(7) 0.37976(7) 0.250
Br2 Br 0.48340(8) 0.12446(8) 0.250
C1 C -0.0761(7) 0.4750(7) 0.250
C2 C -0.2022(9) 0.3091(7) 0.250
N1 N -0.0619(7) 0.5774(6) 0.250
N2 N -0.0886(6) 0.3537(6) 0.250
N3 N -0.3024(7) 0.3792(9) 0.250
N4 N -0.2149(8) 0.1886(7) 0.250
H1 H -0.311(8) 0.446(8) 0.250
H2 H -0.37(1) 0.346(9) 0.250
H3 H -0.27(1) 0.159(9) 0.250
H4 H -0.15(1) 0.143(8) 0.250
Cu2B Cu 0.3693(1) 0.25000 0.500
Br1B Br 0.23638(7) 0.12024(7) -0.250
Br2B Br 0.48340(8) 0.37554(8) -0.250
N1A N 0.0619(7) 0.0774(6) 0.250
Cu1A Cu -0.06361(9) 0.7513(1) 0.250
loop_
_geom_bond_atom_site_label_1
_geom_bond_atom_site_label_2
_geom_bond_site_symmetry_1
_geom_bond_site_symmetry_2
Cu1 Br1 1_555 1_555
Cu2 Br1 1_555 1_555
Br1 Cu2B 1_555 1_555
Br2 Cu2 1_555 1_555
C1 N1 1_555 1_555
C2 N2 1_555 1_555
N1 Cu1A 1_555 1_555
N2 Cu1 1_555 1_555
N3 C2 1_555 1_555
N4 C2 1_555 1_555
H1 N3 1_555 1_555
H2 N3 1_555 1_555
H3 N4 1_555 1_555
H4 N4 1_555 1_555
Cu2B Br2 1_555 1_555
Br1B Cu2 1_555 1_555
Br2B Cu2 1_555 1_555
N1A Cu1 1_555 1_555
C1 N2 1_555 1_555

#END
