
#######################################################################
#
#                 Cambridge Crystallographic Data Centre
#                                CCDC 
#
#######################################################################
#
# If this CIF has been generated from an entry in the Cambridge 
# Structural Database, then it will include bibliographic, chemical, 
# crystal, experimental, refinement or atomic coordinate data resulting 
# from the CCDC's data processing and validation procedures.
#
#######################################################################

data_HENXED
_symmetry_cell_setting           monoclinic
_symmetry_space_group_name_H-M   'P 21/c'
_symmetry_Int_Tables_number      14
_space_group_name_Hall           '-P 2ybc'
loop_
_symmetry_equiv_pos_site_id
_symmetry_equiv_pos_as_xyz
1 x,y,z
2 -x,1/2+y,1/2-z
3 -x,-y,-z
4 x,1/2-y,1/2+z
_cell_length_a                   9.456(5)
_cell_length_b                   10.978(5)
_cell_length_c                   7.539(5)
_cell_angle_alpha                90
_cell_angle_beta                 120.7(5)
_cell_angle_gamma                90
_cell_volume                     672.927
loop_
_atom_site_label
_atom_site_type_symbol
_atom_site_fract_x
_atom_site_fract_y
_atom_site_fract_z
Cu1 Cu 0.4086(6) 0.3150(3) 0.1782(5)
Br1 Br 0.2432(5) 0.1804(3) 0.2600(5)
C1 C 0.401(3) -0.089(2) 0.752(3)
C2 C 0.250(3) -0.254(2) 0.751(4)
N1 N 0.416(2) 0.013(2) 0.734(3)
N2 N 0.609(3) 0.290(2) 0.735(3)
N3 N 0.131(3) -0.183(2) 0.724(4)
N4 N 0.245(3) -0.371(2) 0.759(3)
H1 H 0.134(9) -0.093(9) 0.705(9)
H2 H 0.029(9) -0.22(1) 0.713(9)
H3 H 0.146(9) -0.413(9) 0.751(9)
H4 H 0.337(9) -0.42(1) 0.774(8)
Cu1C Cu 0.4086(6) 0.1850(3) 0.6782(5)
Br1C Br 0.2432(5) 0.3196(3) 0.7600(5)
N2A N 0.391(3) -0.210(2) 0.765(3)
Cu1B Cu 0.5914(6) -0.3150(3) 0.8218(5)
O1 O 0.087(3) 0.431(2) 0.294(3)
loop_
_geom_bond_atom_site_label_1
_geom_bond_atom_site_label_2
_geom_bond_site_symmetry_1
_geom_bond_site_symmetry_2
Cu1 Br1 1_555 1_555
Br1 Cu1C 1_555 1_555
C1 N1 1_555 1_555
C2 N3 1_555 1_555
N1 Cu1C 1_555 1_555
N2 Cu1C 1_555 1_555
N3 H1 1_555 1_555
N4 C2 1_555 1_555
H2 N3 1_555 1_555
H3 N4 1_555 1_555
H4 N4 1_555 1_555
Cu1C Br1C 1_555 1_555
N2A C1 1_555 1_555
Cu1B N2A 1_555 1_555
C2 N2A 1_555 1_555

#END
