
#######################################################################
#
#                 Cambridge Crystallographic Data Centre
#                                CCDC 
#
#######################################################################
#
# If this CIF has been generated from an entry in the Cambridge 
# Structural Database, then it will include bibliographic, chemical, 
# crystal, experimental, refinement or atomic coordinate data resulting 
# from the CCDC's data processing and validation procedures.
#
#######################################################################

data_HEPNIA
_symmetry_cell_setting           tetragonal
_symmetry_space_group_name_H-M   'P 41'
_symmetry_Int_Tables_number      76
_space_group_name_Hall           'P 4w'
loop_
_symmetry_equiv_pos_site_id
_symmetry_equiv_pos_as_xyz
1 x,y,z
2 -x,-y,1/2+z
3 -y,x,1/4+z
4 y,-x,3/4+z
_cell_length_a                   9.151(2)
_cell_length_b                   9.151(2)
_cell_length_c                   13.023(5)
_cell_angle_alpha                90
_cell_angle_beta                 90
_cell_angle_gamma                90
_cell_volume                     1090.56
loop_
_atom_site_label
_atom_site_type_symbol
_atom_site_fract_x
_atom_site_fract_y
_atom_site_fract_z
Li1 Li 0.2825(8) 0.6052(8) 0.0631(6)
N1 N 0.4512(4) 0.6823(4) 0.1454(3)
N2 N 0.6457(4) 0.7324(4) 0.2388(3)
N3 N 0.9048(4) 0.7391(4) 0.2135(3)
N4 N 1.0989(4) 0.6907(4) 0.1202(3)
C1 C 0.5778(5) 0.6307(5) 0.1826(4)
H1 H 0.6134 0.5370 0.1709
C2 C 0.4423(5) 0.8227(5) 0.1828(5)
H2 H 0.3650 0.8862 0.1702
C3 C 0.5597(5) 0.8559(6) 0.2400(5)
H3 H 0.5789 0.9437 0.2733
C4 C 0.7871(5) 0.7198(7) 0.2869(4)
H4 H 0.7957 0.6243 0.3186
H5 H 0.7956 0.7929 0.3405
C5 C 1.0106(5) 0.6418(5) 0.1895(4)
H6 H 1.0189 0.5500 0.2196
C6 C 0.9318(5) 0.8606(6) 0.1558(4)
H7 H 0.8794 0.9477 0.1559
C7 C 1.0507(5) 0.8279(5) 0.0986(4)
H8 H 1.0936 0.8905 0.0511
Cl1 Cl 0.25756(12) 0.27101(11) 0.08636(12)
O1 O 0.2703(5) 0.3954(4) 0.0201(3)
O2 O 0.3388(9) 0.1614(6) 0.0460(7)
O3 O 0.1203(6) 0.2223(6) 0.0877(8)
O4 O 0.3165(14) 0.3097(9) 0.1745(5)
Li1_2 Li 1.2825(8) 0.6052(8) 0.0631(6)
Li1B Li 0.3948(8) 0.2825(8) 0.3131(6)
N4_2 N 0.0989(4) 0.6907(4) 0.1202(3)
O4C O 0.3097(9) 0.6835(14) -0.0755(5)
loop_
_geom_bond_atom_site_label_1
_geom_bond_atom_site_label_2
_geom_bond_site_symmetry_1
_geom_bond_site_symmetry_2
Li1 N1 1_555 1_555
N1 C1 1_555 1_555
N2 C1 1_555 1_555
N3 C4 1_555 1_555
N4 C5 1_555 1_555
C1 H1 1_555 1_555
C2 N1 1_555 1_555
H2 C2 1_555 1_555
C3 N2 1_555 1_555
H3 C3 1_555 1_555
C4 N2 1_555 1_555
H4 C4 1_555 1_555
H5 C4 1_555 1_555
C5 N3 1_555 1_555
H6 C5 1_555 1_555
C6 N3 1_555 1_555
H7 C6 1_555 1_555
C7 N4 1_555 1_555
H8 C7 1_555 1_555
Cl1 O1 1_555 1_555
O1 Li1 1_555 1_555
O2 Cl1 1_555 1_555
O3 Cl1 1_555 1_555
O4 Cl1 1_555 1_555
Li1_2 N4 1_555 1_555
Li1B O4 1_555 1_555
N4_2 Li1 1_555 1_555
O4C Li1 1_555 1_555
C2 C3 1_555 1_555
C6 C7 1_555 1_555

#END
