
#######################################################################
#
#                 Cambridge Crystallographic Data Centre
#                                CCDC 
#
#######################################################################
#
# If this CIF has been generated from an entry in the Cambridge 
# Structural Database, then it will include bibliographic, chemical, 
# crystal, experimental, refinement or atomic coordinate data resulting 
# from the CCDC's data processing and validation procedures.
#
#######################################################################

data_HEPNOG
_symmetry_cell_setting           orthorhombic
_symmetry_space_group_name_H-M   'A b m 2'
_symmetry_Int_Tables_number      39
_space_group_name_Hall           'A 2 -2b'
loop_
_symmetry_equiv_pos_site_id
_symmetry_equiv_pos_as_xyz
1 x,y,z
2 -x,-y,z
3 x,1/2-y,z
4 -x,1/2+y,z
5 x,1/2+y,1/2+z
6 -x,1/2-y,1/2+z
7 x,-y,1/2+z
8 -x,y,1/2+z
_cell_length_a                   12.332(6)
_cell_length_b                   22.877(11)
_cell_length_c                   14.770(7)
_cell_angle_alpha                90
_cell_angle_beta                 90
_cell_angle_gamma                90
_cell_volume                     4166.9
loop_
_atom_site_label
_atom_site_type_symbol
_atom_site_fract_x
_atom_site_fract_y
_atom_site_fract_z
Li1 Li 0.5000 0.5000 0.6735(6)
N1 N 0.5464(2) 0.43179(17) 0.7526(2)
N2 N 0.6604(2) 0.39401(15) 0.8521(2)
N3 N 0.7252(2) 0.43355(13) 0.9890(2)
N4 N 0.6308(3) 0.47820(15) 1.0945(2)
C1 C 0.8586(3) 0.39878(16) 0.8771(3)
C2 C 0.8701(3) 0.42156(18) 0.7903(3)
H1 H 0.8082 0.4323 0.7584
C3 C 0.9680(3) 0.4286(2) 0.7508(3)
H2 H 0.9720 0.4446 0.6930
C4 C 1.0626(3) 0.41217(18) 0.7949(3)
C5 C 1.0540(3) 0.38758(16) 0.8826(3)
C6 C 0.9507(3) 0.38128(16) 0.9248(3)
C7 C 0.9474(3) 0.35580(18) 1.0126(3)
H3 H 0.8808 0.3511 1.0411
C8 C 1.0374(3) 0.33841(19) 1.0554(3)
H4 H 1.0316 0.3223 1.1130
C9 C 1.1424(3) 0.34393(18) 1.0149(3)
C10 C 1.1495(3) 0.36908(17) 0.9293(3)
C11 C 1.1677(4) 0.4173(2) 0.7554(3)
H5 H 1.1742 0.4337 0.6980
C12 C 1.2558(4) 0.3996(2) 0.7974(4)
H6 H 1.3226 0.4040 0.7690
C13 C 1.2520(3) 0.3741(2) 0.8853(4)
C14 C 1.3425(4) 0.3529(2) 0.9321(5)
H7 H 1.4102 0.3557 0.9048
C15 C 1.3358(4) 0.3287(2) 1.0146(5)
H8 H 1.3979 0.3143 1.0425
C16 C 1.2371(4) 0.3251(2) 1.0583(4)
H9 H 1.2335 0.3101 1.1167
C17 C 0.7476(3) 0.39005(17) 0.9188(3)
H10 H 0.7452 0.3511 0.9465
C18 C 0.6436(3) 0.43050(18) 1.0485(3)
H11 H 0.6005 0.3975 1.0560
C19 C 0.7698(3) 0.48802(17) 1.0004(3)
H12 H 0.8287 0.5035 0.9692
C20 C 0.7121(3) 0.51431(18) 1.0646(3)
H13 H 0.7251 0.5518 1.0863
C21 C 0.6108(3) 0.44263(18) 0.8214(3)
H14 H 0.6211 0.4796 0.8461
C22 C 0.6255(4) 0.34930(19) 0.7993(3)
H15 H 0.6459 0.3103 0.8036
C23 C 0.5548(3) 0.3730(2) 0.7390(3)
H16 H 0.5175 0.3521 0.6949
Li1F Li 0.5000 0.5000 1.1735(6)
N1A N 0.4536(2) 0.56821(17) 0.7526(2)
N2A N 0.3396(2) 0.60599(15) 0.8521(2)
N3A N 0.2748(2) 0.56645(13) 0.9890(2)
N4A N 0.3692(3) 0.52180(15) 1.0945(2)
N4F N 0.6308(3) 0.52180(15) 0.5945(2)
N4G N 0.3692(3) 0.47820(15) 0.5945(2)
C1A C 0.1414(3) 0.60122(16) 0.8771(3)
C2A C 0.1299(3) 0.57844(18) 0.7903(3)
H1A H 0.1918 0.5677 0.7584
C3A C 0.0320(3) 0.5714(2) 0.7508(3)
H2A H 0.0280 0.5554 0.6930
C4A C -0.0626(3) 0.58783(18) 0.7949(3)
C5A C -0.0540(3) 0.61242(16) 0.8826(3)
C6A C 0.0493(3) 0.61872(16) 0.9248(3)
C7A C 0.0526(3) 0.64420(18) 1.0126(3)
H3A H 0.1192 0.6489 1.0411
C8A C -0.0374(3) 0.66159(19) 1.0554(3)
H4A H -0.0316 0.6777 1.1130
C9A C -0.1424(3) 0.65607(18) 1.0149(3)
C10A C -0.1495(3) 0.63092(17) 0.9293(3)
C11A C -0.1677(4) 0.5827(2) 0.7554(3)
H5A H -0.1742 0.5663 0.6980
C12A C -0.2558(4) 0.6004(2) 0.7974(4)
H6A H -0.3226 0.5960 0.7690
C13A C -0.2520(3) 0.6259(2) 0.8853(4)
C14A C -0.3425(4) 0.6471(2) 0.9321(5)
H7A H -0.4102 0.6443 0.9048
C15A C -0.3358(4) 0.6713(2) 1.0146(5)
H8A H -0.3979 0.6857 1.0425
C16A C -0.2371(4) 0.6749(2) 1.0583(4)
H9A H -0.2335 0.6899 1.1167
C17A C 0.2524(3) 0.60995(17) 0.9188(3)
H10A H 0.2548 0.6489 0.9465
C18A C 0.3564(3) 0.56950(18) 1.0485(3)
H11A H 0.3995 0.6025 1.0560
C19A C 0.2302(3) 0.51198(17) 1.0004(3)
H12A H 0.1713 0.4965 0.9692
C20A C 0.2879(3) 0.48569(18) 1.0646(3)
H13A H 0.2749 0.4482 1.0863
C21A C 0.3892(3) 0.55737(18) 0.8214(3)
H14A H 0.3789 0.5204 0.8461
C22A C 0.3745(4) 0.65070(19) 0.7993(3)
H15A H 0.3541 0.6897 0.8036
C23A C 0.4452(3) 0.6270(2) 0.7390(3)
H16A H 0.4825 0.6479 0.6949
Cl1 Cl 0.65097(16) 0.2500 0.07525(16)
O1 O 0.6838(12) 0.2001(3) 0.1052(9)
O2 O 0.663(2) 0.2500 -0.0170(8)
O3 O 0.5594(7) 0.2500 0.1172(13)
O1B O 0.6838(12) 0.2999(3) 0.1052(9)
N5 N 0.8765(10) 0.2500 0.7837(8)
C24 C 1.0812(11) 0.2500 0.7786(7)
C25 C 0.9647(14) 0.2500 0.7821(7)
H17? H 1.1069 0.2107 0.7707
H18? H 1.1096 0.2657 0.8341
H19? H 1.1051 0.2736 0.7287
loop_
_geom_bond_atom_site_label_1
_geom_bond_atom_site_label_2
_geom_bond_site_symmetry_1
_geom_bond_site_symmetry_2
Li1 N1 1_555 1_555
N1 C21 1_555 1_555
N2 C17 1_555 1_555
N3 C17 1_555 1_555
N4 C18 1_555 1_555
C1 C2 1_555 1_555
C2 H1 1_555 1_555
C3 C2 1_555 1_555
H2 C3 1_555 1_555
C4 C3 1_555 1_555
C5 C4 1_555 1_555
C6 C1 1_555 1_555
C7 C6 1_555 1_555
H3 C7 1_555 1_555
C8 C7 1_555 1_555
H4 C8 1_555 1_555
C9 C8 1_555 1_555
C10 C5 1_555 1_555
C11 C4 1_555 1_555
H5 C11 1_555 1_555
C12 C11 1_555 1_555
H6 C12 1_555 1_555
C13 C10 1_555 1_555
C14 C13 1_555 1_555
H7 C14 1_555 1_555
C15 C14 1_555 1_555
H8 C15 1_555 1_555
C16 C9 1_555 1_555
H9 C16 1_555 1_555
C17 C1 1_555 1_555
H10 C17 1_555 1_555
C18 N3 1_555 1_555
H11 C18 1_555 1_555
C19 N3 1_555 1_555
H12 C19 1_555 1_555
C20 N4 1_555 1_555
H13 C20 1_555 1_555
C21 N2 1_555 1_555
H14 C21 1_555 1_555
C22 N2 1_555 1_555
H15 C22 1_555 1_555
C23 N1 1_555 1_555
H16 C23 1_555 1_555
Cl1 O1 1_555 1_555
O2 Cl1 1_555 1_555
O3 Cl1 1_555 1_555
N5 C25 1_555 1_555
C24 C25 1_555 1_555
Li1F N4 1_555 1_555
N1A Li1 1_555 1_555
N2A C17A 1_555 1_555
N3A C17A 1_555 1_555
N4A Li1F 1_555 1_555
N4F Li1 1_555 1_555
N4G Li1 1_555 1_555
C1A C2A 1_555 1_555
C2A H1A 1_555 1_555
C3A C2A 1_555 1_555
H2A C3A 1_555 1_555
C4A C3A 1_555 1_555
C5A C4A 1_555 1_555
C6A C1A 1_555 1_555
C7A C6A 1_555 1_555
H3A C7A 1_555 1_555
C8A C7A 1_555 1_555
H4A C8A 1_555 1_555
C9A C8A 1_555 1_555
C10A C5A 1_555 1_555
C11A C4A 1_555 1_555
H5A C11A 1_555 1_555
C12A C11A 1_555 1_555
H6A C12A 1_555 1_555
C13A C10A 1_555 1_555
C14A C13A 1_555 1_555
H7A C14A 1_555 1_555
C15A C14A 1_555 1_555
H8A C15A 1_555 1_555
C16A C9A 1_555 1_555
H9A C16A 1_555 1_555
C17A C1A 1_555 1_555
H10A C17A 1_555 1_555
C18A N3A 1_555 1_555
H11A C18A 1_555 1_555
C19A N3A 1_555 1_555
H12A C19A 1_555 1_555
C20A N4A 1_555 1_555
H13A C20A 1_555 1_555
C21A N1A 1_555 1_555
H14A C21A 1_555 1_555
C22A N2A 1_555 1_555
H15A C22A 1_555 1_555
C23A N1A 1_555 1_555
H16A C23A 1_555 1_555
O1B Cl1 1_555 1_555
C5 C6 1_555 1_555
C9 C10 1_555 1_555
C12 C13 1_555 1_555
C15 C16 1_555 1_555
C19 C20 1_555 1_555
C22 C23 1_555 1_555
N2A C21A 1_555 1_555
N4A C18A 1_555 1_555
C5A C6A 1_555 1_555
C9A C10A 1_555 1_555
C12A C13A 1_555 1_555
C15A C16A 1_555 1_555
C19A C20A 1_555 1_555
C22A C23A 1_555 1_555

#END
