
#######################################################################
#
#                 Cambridge Crystallographic Data Centre
#                                CCDC 
#
#######################################################################
#
# If this CIF has been generated from an entry in the Cambridge 
# Structural Database, then it will include bibliographic, chemical, 
# crystal, experimental, refinement or atomic coordinate data resulting 
# from the CCDC's data processing and validation procedures.
#
#######################################################################

data_HEPRIE
_symmetry_cell_setting           monoclinic
_symmetry_space_group_name_H-M   'P 21/n'
_symmetry_Int_Tables_number      14
_space_group_name_Hall           '-P 2yn'
loop_
_symmetry_equiv_pos_site_id
_symmetry_equiv_pos_as_xyz
1 x,y,z
2 1/2-x,1/2+y,1/2-z
3 -x,-y,-z
4 1/2+x,1/2-y,1/2+z
_cell_length_a                   15.1163(7)
_cell_length_b                   8.3221(2)
_cell_length_c                   15.2789(6)
_cell_angle_alpha                90
_cell_angle_beta                 113.4450(17)
_cell_angle_gamma                90
_cell_volume                     1763.39
loop_
_atom_site_label
_atom_site_type_symbol
_atom_site_fract_x
_atom_site_fract_y
_atom_site_fract_z
Ni1 Ni 0.5000 0.5000 1.0000
Ni2 Ni 0.5000 0.5000 0.5000
O1 O 0.55876(11) 0.66280(18) 0.93122(11)
O2 O 0.50077(12) 0.5772(2) 0.77953(12)
O3 O 0.59082(11) 0.67125(18) 0.60440(11)
O4 O 0.67012(13) 0.50323(18) 0.72367(12)
N1 N 0.39348(14) 0.6655(2) 0.98930(14)
H1 H 0.3631 0.6302 1.0281
N2 N 0.59960(13) 0.5924(2) 1.12702(13)
H2 H 0.5836 0.5512 1.1754
N3 N 0.60896(14) 0.3320(2) 0.53803(14)
H3 H 0.6581 0.3691 0.5935
N4 N 0.55478(14) 0.5818(2) 0.40372(14)
H4 H 0.5168 0.5381 0.3446
C1 C 0.42817(17) 0.8307(3) 1.01882(17)
H5 H 0.3728 0.9001 1.0128
H6 H 0.4571 0.8737 0.9758
C2 C 0.50280(18) 0.8361(3) 1.12145(17)
H7 H 0.4773 0.7754 1.1621
H8 H 0.5109 0.9492 1.1433
C3 C 0.60201(18) 0.7683(3) 1.13715(17)
H9 H 0.6242 0.8168 1.0903
H10 H 0.6487 0.7979 1.2018
C4 C 0.32296(17) 0.6553(3) 0.88935(17)
H11 H 0.3476 0.7134 0.8472
H12 H 0.2613 0.7054 0.8830
C5 C 0.69311(18) 0.5201(3) 1.13934(19)
H13 H 0.7391 0.5293 1.2067
H14 H 0.7205 0.5772 1.0990
C6 C 0.55370(16) 0.6650(3) 0.84632(17)
C7 C 0.61672(17) 0.7867(3) 0.82705(16)
H15 H 0.6332 0.8799 0.8661
C8 C 0.65140(16) 0.7753(3) 0.76018(16)
H16 H 0.6897 0.8622 0.7548
C9 C 0.63589(16) 0.6381(3) 0.69225(16)
C10 C 0.64642(18) 0.3352(3) 0.46283(18)
H17 H 0.6034 0.2729 0.4069
H18 H 0.7114 0.2860 0.4866
C11 C 0.65165(19) 0.5084(3) 0.43427(19)
H19 H 0.6983 0.5687 0.4890
H20 H 0.6737 0.5124 0.3814
C12 C 0.5840(2) 0.1684(3) 0.55864(19)
H21 H 0.6423 0.0998 0.5791
H22 H 0.5353 0.1216 0.4996
C13 C 0.55505(19) 0.7581(3) 0.39133(18)
H23 H 0.5792 0.7829 0.3414
H24 H 0.5999 0.8073 0.4517
C14 C 0.5444(2) 0.1680(3) 0.63641(18)
H25 H 0.5902 0.2267 0.6925
H26 H 0.5419 0.0554 0.6563
Ni2_2 Ni 0.5000 0.5000 1.5000
O1B O 0.44124(11) 0.33720(18) 1.06878(11)
O2B O 0.49923(12) 0.4228(2) 1.22047(12)
O3B O 0.40918(11) 0.32875(18) 1.39560(11)
O3B_2 O 0.40918(11) 0.32875(18) 0.39560(11)
O4B O 0.32988(13) 0.49677(18) 1.27633(12)
N1B N 0.60652(14) 0.3345(2) 1.01070(14)
H1B H 0.6369 0.3698 0.9719
N2B N 0.40040(13) 0.4076(2) 0.87298(13)
H2B H 0.4164 0.4488 0.8246
N3B N 0.39104(14) 0.6680(2) 0.46197(14)
H3B H 0.3419 0.6309 0.4065
N4B N 0.44522(14) 0.4182(2) 0.59628(14)
H4B H 0.4832 0.4619 0.6554
C1B C 0.57183(17) 0.1693(3) 0.98118(17)
H5B H 0.6272 0.0999 0.9872
H6B H 0.5429 0.1263 1.0242
C2B C 0.49720(18) 0.1639(3) 0.87855(17)
H7B H 0.5227 0.2246 0.8379
H8B H 0.4891 0.0508 0.8567
C3B C 0.39799(18) 0.2317(3) 0.86285(17)
H9B H 0.3758 0.1832 0.9097
H10B H 0.3513 0.2021 0.7982
C4B C 0.67704(17) 0.3447(3) 1.11065(17)
H11B H 0.6524 0.2866 1.1528
H12B H 0.7387 0.2946 1.1170
C5B C 0.30689(18) 0.4799(3) 0.86066(19)
H13B H 0.2609 0.4707 0.7933
H14B H 0.2795 0.4228 0.9010
C6B C 0.44630(16) 0.3350(3) 1.15368(17)
C7B C 0.38328(17) 0.2133(3) 1.17295(16)
H15B H 0.3668 0.1201 1.1339
C8B C 0.34860(16) 0.2247(3) 1.23982(16)
H16B H 0.3103 0.1378 1.2452
C9B C 0.36411(16) 0.3619(3) 1.30775(16)
C10B C 0.35358(18) 0.6648(3) 0.53717(18)
H17B H 0.3966 0.7271 0.5931
H18B H 0.2886 0.7140 0.5134
C11B C 0.34835(19) 0.4916(3) 0.56573(19)
H19B H 0.3017 0.4313 0.5110
H20B H 0.3263 0.4876 0.6186
C12B C 0.4160(2) 0.8316(3) 0.44136(19)
H21B H 0.3577 0.9002 0.4209
H22B H 0.4647 0.8784 0.5004
C13B C 0.44495(19) 0.2419(3) 0.60867(18)
H23B H 0.4208 0.2171 0.6586
H24B H 0.4001 0.1927 0.5483
C14B C 0.4556(2) 0.8320(3) 0.36359(18)
H25B H 0.4098 0.7733 0.3075
H26B H 0.4581 0.9446 0.3437
O5 O 0.77494(16) 0.8489(3) 0.60388(15)
H27 H 0.791(2) 0.910(4) 0.655(3)
H28 H 0.726(2) 0.802(4) 0.600(2)
loop_
_geom_bond_atom_site_label_1
_geom_bond_atom_site_label_2
_geom_bond_site_symmetry_1
_geom_bond_site_symmetry_2
Ni1 O1 1_555 1_555
Ni2 O3 1_555 1_555
O1 C6 1_555 1_555
O2 C6 1_555 1_555
O3 C9 1_555 1_555
O4 C9 1_555 1_555
N1 Ni1 1_555 1_555
H1 N1 1_555 1_555
N2 Ni1 1_555 1_555
H2 N2 1_555 1_555
N3 Ni2 1_555 1_555
H3 N3 1_555 1_555
N4 Ni2 1_555 1_555
H4 N4 1_555 1_555
C1 N1 1_555 1_555
H5 C1 1_555 1_555
H6 C1 1_555 1_555
C2 C1 1_555 1_555
H7 C2 1_555 1_555
H8 C2 1_555 1_555
C3 N2 1_555 1_555
H9 C3 1_555 1_555
H10 C3 1_555 1_555
C4 N1 1_555 1_555
H11 C4 1_555 1_555
H12 C4 1_555 1_555
C5 N2 1_555 1_555
H13 C5 1_555 1_555
H14 C5 1_555 1_555
C6 C7 1_555 1_555
C7 H15 1_555 1_555
C8 C7 1_555 1_555
H16 C8 1_555 1_555
C9 C8 1_555 1_555
C10 N3 1_555 1_555
H17 C10 1_555 1_555
H18 C10 1_555 1_555
C11 N4 1_555 1_555
H19 C11 1_555 1_555
H20 C11 1_555 1_555
C12 N3 1_555 1_555
H21 C12 1_555 1_555
H22 C12 1_555 1_555
C13 N4 1_555 1_555
H23 C13 1_555 1_555
H24 C13 1_555 1_555
C14 C12 1_555 1_555
H25 C14 1_555 1_555
H26 C14 1_555 1_555
O5 H27 1_555 1_555
H28 O5 1_555 1_555
Ni2_2 O3B 1_555 1_555
O1B Ni1 1_555 1_555
O2B C6B 1_555 1_555
O3B C9B 1_555 1_555
O3B_2 Ni2 1_555 1_555
O4B C9B 1_555 1_555
N1B Ni1 1_555 1_555
H1B N1B 1_555 1_555
N2B Ni1 1_555 1_555
H2B N2B 1_555 1_555
N3B Ni2 1_555 1_555
H3B N3B 1_555 1_555
N4B Ni2 1_555 1_555
H4B N4B 1_555 1_555
C1B N1B 1_555 1_555
H5B C1B 1_555 1_555
H6B C1B 1_555 1_555
C2B C1B 1_555 1_555
H7B C2B 1_555 1_555
H8B C2B 1_555 1_555
C3B N2B 1_555 1_555
H9B C3B 1_555 1_555
H10B C3B 1_555 1_555
C4B C5 1_555 1_555
H11B C4B 1_555 1_555
H12B C4B 1_555 1_555
C5B C4 1_555 1_555
H13B C5B 1_555 1_555
H14B C5B 1_555 1_555
C6B O1B 1_555 1_555
C7B C6B 1_555 1_555
H15B C7B 1_555 1_555
C8B C7B 1_555 1_555
H16B C8B 1_555 1_555
C9B C8B 1_555 1_555
C10B N3B 1_555 1_555
H17B C10B 1_555 1_555
H18B C10B 1_555 1_555
C11B N4B 1_555 1_555
H19B C11B 1_555 1_555
H20B C11B 1_555 1_555
C12B N3B 1_555 1_555
H21B C12B 1_555 1_555
H22B C12B 1_555 1_555
C13B C14 1_555 1_555
H23B C13B 1_555 1_555
H24B C13B 1_555 1_555
C14B C13 1_555 1_555
H25B C14B 1_555 1_555
H26B C14B 1_555 1_555
C2 C3 1_555 1_555
C10 C11 1_555 1_555
N1B C4B 1_555 1_555
N2B C5B 1_555 1_555
N4B C13B 1_555 1_555
C2B C3B 1_555 1_555
C10B C11B 1_555 1_555
C12B C14B 1_555 1_555

#END
