
#######################################################################
#
#                 Cambridge Crystallographic Data Centre
#                                CCDC 
#
#######################################################################
#
# If this CIF has been generated from an entry in the Cambridge 
# Structural Database, then it will include bibliographic, chemical, 
# crystal, experimental, refinement or atomic coordinate data resulting 
# from the CCDC's data processing and validation procedures.
#
#######################################################################

data_HEPROK
_symmetry_cell_setting           monoclinic
_symmetry_space_group_name_H-M   'P 21/c'
_symmetry_Int_Tables_number      14
_space_group_name_Hall           '-P 2ybc'
loop_
_symmetry_equiv_pos_site_id
_symmetry_equiv_pos_as_xyz
1 x,y,z
2 -x,1/2+y,1/2-z
3 -x,-y,-z
4 x,1/2-y,1/2+z
_cell_length_a                   11.3084(3)
_cell_length_b                   13.1859(6)
_cell_length_c                   11.2559(4)
_cell_angle_alpha                90
_cell_angle_beta                 114.257(2)
_cell_angle_gamma                90
_cell_volume                     1530.2
loop_
_atom_site_label
_atom_site_type_symbol
_atom_site_fract_x
_atom_site_fract_y
_atom_site_fract_z
Ni1 Ni 0.5000 0.5000 0.5000
O1 O 0.69485(13) 0.47861(11) 0.52706(14)
O2 O 0.71292(14) 0.32975(11) 0.44339(16)
O3 O 0.88613(15) 0.22438(12) 0.43496(19)
O4 O 1.09353(17) 0.23948(14) 0.4832(3)
N1 N 0.46276(15) 0.56764(12) 0.32259(15)
H1 H 0.5342 0.5563 0.3034
N2 N 0.55246(15) 0.64392(12) 0.57712(15)
H2 H 0.4816 0.6692 0.5896
C1 C 0.4558(2) 0.67775(15) 0.3435(2)
H3 H 0.3705 0.6948 0.3436
H4 H 0.4651 0.7159 0.2721
C2 C 0.56401(19) 0.70729(15) 0.47360(19)
H5 H 0.6495 0.6962 0.4710
H6 H 0.5566 0.7800 0.4916
C3 C 0.3468(2) 0.52937(17) 0.2119(2)
H7 H 0.3387 0.5645 0.1312
H8 H 0.2685 0.5452 0.2271
C4 C 0.66451(19) 0.65184(16) 0.70467(19)
H9 H 0.6749 0.7232 0.7345
H10 H 0.7444 0.6314 0.6951
C5 C 0.3535(2) 0.41537(17) 0.1936(2)
H11 H 0.2861 0.3971 0.1069
H12 H 0.4388 0.3995 0.1930
C6 C 0.90434(18) 0.55631(15) 0.50899(19)
H13 H 0.8367 0.5958 0.5148
C7 C 0.88577(17) 0.45225(15) 0.49491(18)
C8 C 0.98510(18) 0.39273(15) 0.48475(19)
C9 C 0.75512(18) 0.41666(15) 0.48847(19)
C10 C 0.9919(2) 0.27853(17) 0.4686(3)
H21 H 0.818(4) 0.263(3) 0.435(3)
Ni1_2 Ni 1.5000 0.5000 0.5000
O1B O 1.30515(13) 0.52139(11) 0.47294(14)
O1B_2 O 0.30515(13) 0.52139(11) 0.47294(14)
O2B O 1.28708(14) 0.67025(11) 0.55661(16)
O3B O 1.11387(15) 0.77562(12) 0.56504(19)
O4B O 0.90647(17) 0.76052(14) 0.5168(3)
N1B N 0.53724(15) 0.43236(12) 0.67741(15)
H1B H 0.4658 0.4437 0.6966
N2B N 0.44754(15) 0.35608(12) 0.42288(15)
H2B H 0.5184 0.3308 0.4104
C1B C 0.5442(2) 0.32225(15) 0.6565(2)
H3B H 0.6295 0.3052 0.6564
H4B H 0.5349 0.2841 0.7279
C2B C 0.43599(19) 0.29271(15) 0.52640(19)
H5B H 0.3505 0.3038 0.5290
H6B H 0.4434 0.2200 0.5084
C3B C 0.6532(2) 0.47063(17) 0.7881(2)
H7B H 0.6613 0.4355 0.8688
H8B H 0.7315 0.4548 0.7729
C4B C 0.33549(19) 0.34816(16) 0.29533(19)
H9B H 0.3251 0.2768 0.2655
H10B H 0.2556 0.3686 0.3049
C5B C 0.6465(2) 0.58463(17) 0.8064(2)
H11B H 0.7139 0.6029 0.8931
H12B H 0.5612 0.6005 0.8070
C6B C 1.09566(18) 0.44369(15) 0.49101(19)
H13B H 1.1633 0.4042 0.4852
C7B C 1.11423(17) 0.54775(15) 0.50509(18)
C8B C 1.01490(18) 0.60727(15) 0.51525(19)
C9B C 1.24488(18) 0.58334(15) 0.51153(19)
C10B C 1.0081(2) 0.72147(17) 0.5314(3)
H21B H 1.182(4) 0.737(3) 0.565(3)
O5 O 0.65427(18) 0.57019(15) 0.19993(18)
N3 N 0.8058(2) 0.48739(14) 0.1536(2)
C11 C 0.7532(2) 0.5692(2) 0.1794(2)
H14 H 0.7950 0.6323 0.1824
C12 C 0.7470(3) 0.3883(2) 0.1485(3)
H15 H 0.6826 0.3930 0.1856
H16 H 0.8143 0.3394 0.1986
H17 H 0.7046 0.3657 0.0576
C13 C 0.9241(3) 0.49118(19) 0.1320(3)
H18 H 0.9506 0.5620 0.1322
H19 H 0.9083 0.4602 0.0476
H20 H 0.9930 0.4539 0.2015
loop_
_geom_bond_atom_site_label_1
_geom_bond_atom_site_label_2
_geom_bond_site_symmetry_1
_geom_bond_site_symmetry_2
Ni1 O1 1_555 1_555
O1 C9 1_555 1_555
O2 C9 1_555 1_555
O3 C10 1_555 1_555
O4 C10 1_555 1_555
N1 Ni1 1_555 1_555
H1 N1 1_555 1_555
N2 Ni1 1_555 1_555
H2 N2 1_555 1_555
C1 N1 1_555 1_555
H3 C1 1_555 1_555
H4 C1 1_555 1_555
C2 N2 1_555 1_555
H5 C2 1_555 1_555
H6 C2 1_555 1_555
C3 N1 1_555 1_555
H7 C3 1_555 1_555
H8 C3 1_555 1_555
C4 N2 1_555 1_555
H9 C4 1_555 1_555
H10 C4 1_555 1_555
C5 C3 1_555 1_555
H11 C5 1_555 1_555
H12 C5 1_555 1_555
C6 H13 1_555 1_555
C7 C6 1_555 1_555
C8 C7 1_555 1_555
C9 C7 1_555 1_555
C10 C8 1_555 1_555
O5 C11 1_555 1_555
N3 C11 1_555 1_555
C11 H14 1_555 1_555
C12 N3 1_555 1_555
H15 C12 1_555 1_555
H16 C12 1_555 1_555
H17 C12 1_555 1_555
C13 N3 1_555 1_555
H18 C13 1_555 1_555
H19 C13 1_555 1_555
H20 C13 1_555 1_555
H21 O3 1_555 1_555
Ni1_2 O1B 1_555 1_555
O1B C9B 1_555 1_555
O1B_2 Ni1 1_555 1_555
O2B C9B 1_555 1_555
O3B C10B 1_555 1_555
O4B C10B 1_555 1_555
N1B Ni1 1_555 1_555
H1B N1B 1_555 1_555
N2B Ni1 1_555 1_555
H2B N2B 1_555 1_555
C1B N1B 1_555 1_555
H3B C1B 1_555 1_555
H4B C1B 1_555 1_555
C2B N2B 1_555 1_555
H5B C2B 1_555 1_555
H6B C2B 1_555 1_555
C3B N1B 1_555 1_555
H7B C3B 1_555 1_555
H8B C3B 1_555 1_555
C4B C5 1_555 1_555
H9B C4B 1_555 1_555
H10B C4B 1_555 1_555
C5B C4 1_555 1_555
H11B C5B 1_555 1_555
H12B C5B 1_555 1_555
C6B C8 1_555 1_555
H13B C6B 1_555 1_555
C7B C6B 1_555 1_555
C8B C6 1_555 1_555
C9B C7B 1_555 1_555
C10B C8B 1_555 1_555
H21B O3B 1_555 1_555
C1 C2 1_555 1_555
N2B C4B 1_555 1_555
C1B C2B 1_555 1_555
C3B C5B 1_555 1_555
C7B C8B 1_555 1_555

#END
