
#######################################################################
#
#                 Cambridge Crystallographic Data Centre
#                                CCDC 
#
#######################################################################
#
# If this CIF has been generated from an entry in the Cambridge 
# Structural Database, then it will include bibliographic, chemical, 
# crystal, experimental, refinement or atomic coordinate data resulting 
# from the CCDC's data processing and validation procedures.
#
#######################################################################

data_HEQKAP
_symmetry_cell_setting           tetragonal
_symmetry_space_group_name_H-M   'P -4 b 2'
_symmetry_Int_Tables_number      117
_space_group_name_Hall           'P -4 -2ab'
loop_
_symmetry_equiv_pos_site_id
_symmetry_equiv_pos_as_xyz
1 x,y,z
2 y,-x,-z
3 1/2-x,1/2+y,z
4 -x,-y,z
5 1/2+y,1/2+x,-z
6 -y,x,-z
7 1/2+x,1/2-y,z
8 1/2-y,1/2-x,-z
_cell_length_a                   18.767(2)
_cell_length_b                   18.767(2)
_cell_length_c                   4.798(2)
_cell_angle_alpha                90
_cell_angle_beta                 90
_cell_angle_gamma                90
_cell_volume                     1689.86
loop_
_atom_site_label
_atom_site_type_symbol
_atom_site_fract_x
_atom_site_fract_y
_atom_site_fract_z
Au1 Au -0.4392(1) 0.0608(1) 1.5000
Au2 Au -0.5732(1) 0.0732(1) 1.0000
S1 S -0.6411(1) 0.0212(1) 0.6612(3)
O1 O -0.7505(3) 0.0889(3) 1.0414(16)
O2 O -0.8226(3) -0.0044(3) 1.0979(10)
O3 O -0.8234(4) -0.1306(4) 0.8742(15)
O4 O -0.7762(5) -0.1591(5) 1.2870(20)
C1 C -0.7626(3) 0.0216(3) 1.0151(25)
C2 C -0.7153(3) -0.0222(3) 0.8331(12)
C3 C -0.7030(5) -0.0934(5) 0.9622(31)
C4 C -0.7726(5) -0.1251(6) 1.0521(29)
S1G S -0.5212(1) 0.1411(1) 1.3388(3)
Au1C Au -0.5608(1) -0.0608(1) 0.5000
S1C S -0.3589(1) -0.0212(1) 1.6612(3)
C2G C -0.4778(3) 0.2153(3) 1.1669(12)
C1G C -0.5216(3) 0.2626(3) 0.9849(25)
O1G O -0.5889(3) 0.2505(3) 0.9586(16)
O2G O -0.4956(3) 0.3226(3) 0.9021(10)
C3G C -0.4066(5) 0.2030(5) 1.0378(31)
C4G C -0.3749(6) 0.2726(5) 0.9479(29)
O3G O -0.3694(4) 0.3234(4) 1.1258(15)
O4G O -0.3409(5) 0.2762(5) 0.7130(20)
Cs1 Cs -0.3008(1) 0.1993(1) -1.5000
Na1 Na -0.0815(1) 0.0800(1) -1.4315(3)
loop_
_geom_bond_atom_site_label_1
_geom_bond_atom_site_label_2
_geom_bond_site_symmetry_1
_geom_bond_site_symmetry_2
Au1 S1G 1_555 1_555
Au2 S1 1_555 1_555
S1 C2 1_555 1_555
O1 C1 1_555 1_555
O2 C1 1_555 1_555
O3 C4 1_555 1_555
O4 C4 1_555 1_555
C1 C2 1_555 1_555
C2 C3 1_555 1_555
C3 C4 1_555 1_555
S1G Au2 1_555 1_555
Au1C S1 1_555 1_555
S1C Au1 1_555 1_555
C2G S1G 1_555 1_555
C1G C2G 1_555 1_555
O1G C1G 1_555 1_555
O2G C1G 1_555 1_555
C3G C2G 1_555 1_555
C4G C3G 1_555 1_555
O3G C4G 1_555 1_555
O4G C4G 1_555 1_555

#END
