
#######################################################################
#
#                 Cambridge Crystallographic Data Centre
#                                CCDC 
#
#######################################################################
#
# If this CIF has been generated from an entry in the Cambridge 
# Structural Database, then it will include bibliographic, chemical, 
# crystal, experimental, refinement or atomic coordinate data resulting 
# from the CCDC's data processing and validation procedures.
#
#######################################################################

data_HEQKEU
_symmetry_cell_setting           monoclinic
_symmetry_space_group_name_H-M   'P 21/c'
_symmetry_Int_Tables_number      14
_space_group_name_Hall           '-P 2ybc'
loop_
_symmetry_equiv_pos_site_id
_symmetry_equiv_pos_as_xyz
1 x,y,z
2 -x,1/2+y,1/2-z
3 -x,-y,-z
4 x,1/2-y,1/2+z
_cell_length_a                   9.0390(3)
_cell_length_b                   16.4229(4)
_cell_length_c                   8.3294(3)
_cell_angle_alpha                90
_cell_angle_beta                 101.539(2)
_cell_angle_gamma                90
_cell_volume                     1211.48
loop_
_atom_site_label
_atom_site_type_symbol
_atom_site_fract_x
_atom_site_fract_y
_atom_site_fract_z
Cu1 Cu 0.87677(4) 0.04021(2) 0.56051(5)
O1 O 1.0814(3) 0.06388(15) 0.5353(3)
N1 N 0.8546(4) 0.1611(2) 0.5683(4)
H1 H 0.797(5) 0.179(3) 0.476(6)
H2 H 0.820(5) 0.180(3) 0.641(6)
C1 C 1.0887(5) 0.1437(2) 0.4722(5)
H3 H 1.0419 0.1452 0.3542
H4 H 1.1951 0.1616 0.4858
C2 C 1.0030(2) 0.19895(12) 0.5688(2)
H5 H 1.0600 0.2051 0.6826
H6 H 0.9893 0.2535 0.5175
N2 N 0.6544(2) 0.01545(12) 0.5306(2)
C3 C 0.5863(2) -0.02780(12) 0.4002(2)
H7 H 0.6451 -0.0483 0.3266
C4 C 0.5665(4) 0.0434(2) 0.6301(5)
H8 H 0.6105 0.0746 0.7236
N3 N 0.9481(3) 0.0111(2) 0.8323(4)
C5 C 0.8731(5) -0.0337(3) 0.9214(5)
H9 H 0.7818 -0.0594 0.8695
C6 C 1.0757(5) 0.0443(2) 0.9109(5)
H10 H 1.1338 0.0762 0.8512
Cu1B Cu 1.12323(4) -0.04021(2) 0.43949(5)
Cu1B_2 Cu 0.12323(4) -0.04021(2) 0.43949(5)
Cu1B_3 Cu 1.12323(4) -0.04021(2) 1.43949(5)
O1B O 0.9186(3) -0.06388(15) 0.4647(3)
N1B N 1.1454(4) -0.1611(2) 0.4317(4)
H1B H 1.203(5) -0.179(3) 0.524(6)
H2B H 1.180(5) -0.180(3) 0.359(6)
C1B C 0.9113(5) -0.1437(2) 0.5278(5)
H3B H 0.9581 -0.1452 0.6458
H4B H 0.8049 -0.1616 0.5142
C2B C 0.9970(2) -0.19895(12) 0.4312(2)
H5B H 0.9400 -0.2051 0.3174
H6B H 1.0107 -0.2535 0.4825
N2B N 0.3456(2) -0.01545(12) 0.4694(2)
N2B_2 N 1.3456(2) -0.01545(12) 0.4694(2)
C3B C 0.4137(2) 0.02780(12) 0.5998(2)
H7B H 0.3549 0.0483 0.6734
C4B C 0.4335(4) -0.0434(2) 0.3699(5)
H8B H 0.3895 -0.0746 0.2764
N3B N 1.0519(3) -0.0111(2) 1.1677(4)
N3B_2 N 1.0519(3) -0.0111(2) 0.1677(4)
C5B C 1.1269(5) 0.0337(3) 1.0786(5)
H9B H 1.2182 0.0594 1.1305
C6B C 0.9243(5) -0.0443(2) 1.0891(5)
H10B H 0.8662 -0.0762 1.1488
S1 S 0.67038(13) 0.14113(6) 0.07548(13)
O2 O 0.7491(4) 0.1826(3) 0.2191(4)
O3 O 0.6331(6) 0.0582(2) 0.0926(7)
O4 O 0.7269(4) 0.1598(2) -0.0689(4)
C7 C 0.4880(6) 0.1905(3) 0.0409(6)
F1 F 0.3980(4) 0.1637(2) -0.0982(5)
F2 F 0.4995(4) 0.27076(18) 0.0259(5)
F3 F 0.4138(4) 0.1763(2) 0.1609(5)
loop_
_geom_bond_atom_site_label_1
_geom_bond_atom_site_label_2
_geom_bond_site_symmetry_1
_geom_bond_site_symmetry_2
Cu1 O1 1_555 1_555
O1 C1 1_555 1_555
N1 Cu1 1_555 1_555
H1 N1 1_555 1_555
H2 N1 1_555 1_555
C1 H3 1_555 1_555
H4 C1 1_555 1_555
C2 N1 1_555 1_555
H5 C2 1_555 1_555
H6 C2 1_555 1_555
N2 Cu1 1_555 1_555
C3 N2 1_555 1_555
H7 C3 1_555 1_555
C4 N2 1_555 1_555
H8 C4 1_555 1_555
N3 Cu1 1_555 1_555
C5 N3 1_555 1_555
H9 C5 1_555 1_555
C6 N3 1_555 1_555
H10 C6 1_555 1_555
S1 O2 1_555 1_555
O3 S1 1_555 1_555
O4 S1 1_555 1_555
C7 S1 1_555 1_555
F1 C7 1_555 1_555
F2 C7 1_555 1_555
F3 C7 1_555 1_555
Cu1B O1 1_555 1_555
Cu1B_2 N2B 1_555 1_555
Cu1B_3 N3B 1_555 1_555
O1B Cu1 1_555 1_555
N1B Cu1B 1_555 1_555
H1B N1B 1_555 1_555
H2B N1B 1_555 1_555
C1B O1B 1_555 1_555
H3B C1B 1_555 1_555
H4B C1B 1_555 1_555
C2B N1B 1_555 1_555
H5B C2B 1_555 1_555
H6B C2B 1_555 1_555
N2B C3B 1_555 1_555
N2B_2 Cu1B 1_555 1_555
C3B C4 1_555 1_555
H7B C3B 1_555 1_555
C4B C3 1_555 1_555
H8B C4B 1_555 1_555
N3B C5B 1_555 1_555
N3B_2 Cu1B 1_555 1_555
C5B C6 1_555 1_555
H9B C5B 1_555 1_555
C6B C5 1_555 1_555
H10B C6B 1_555 1_555
C1 C2 1_555 1_555
Cu1B O1B 1_555 1_555
C1B C2B 1_555 1_555
N2B C4B 1_555 1_555
N3B C6B 1_555 1_555

#END
