
#######################################################################
#
#                 Cambridge Crystallographic Data Centre
#                                CCDC 
#
#######################################################################
#
# If this CIF has been generated from an entry in the Cambridge 
# Structural Database, then it will include bibliographic, chemical, 
# crystal, experimental, refinement or atomic coordinate data resulting 
# from the CCDC's data processing and validation procedures.
#
#######################################################################

data_HEQLEV
_symmetry_cell_setting           triclinic
_symmetry_space_group_name_H-M   'P -1'
_symmetry_Int_Tables_number      2
_space_group_name_Hall           '-P 1'
loop_
_symmetry_equiv_pos_site_id
_symmetry_equiv_pos_as_xyz
1 x,y,z
2 -x,-y,-z
_cell_length_a                   5.1528(4)
_cell_length_b                   6.5380(6)
_cell_length_c                   13.3661(12)
_cell_angle_alpha                99.2600(10)
_cell_angle_beta                 97.9000(10)
_cell_angle_gamma                102.2290(10)
_cell_volume                     427.415
loop_
_atom_site_label
_atom_site_type_symbol
_atom_site_fract_x
_atom_site_fract_y
_atom_site_fract_z
Co1 Co -0.27617(10) -1.11423(8) -0.04561(4)
O1 O -0.3184(6) -0.8349(4) 0.0628(2)
O2 O 0.1102(6) -0.6727(5) 0.1289(3)
O3 O -0.2078(7) -0.2409(5) 0.0767(3)
O4 O 0.2172(7) -0.0741(5) 0.1472(3)
C1 C -0.2245(8) -0.5362(6) 0.2047(3)
H1 H -0.4012 -0.5181 0.1752
C2 C -0.2541(10) -0.6410(7) 0.2988(3)
H2 H -0.0825 -0.6673 0.3262
H3 H -0.3851 -0.7773 0.2779
C3 C -0.3448(11) -0.4992(8) 0.3824(4)
H4 H -0.5252 -0.4858 0.3575
H5 H -0.3512 -0.5650 0.4424
C4 C -0.1532(13) -0.2779(8) 0.4130(4)
H6 H -0.2229 -0.1881 0.4625
H7 H 0.0217 -0.2896 0.4458
C5 C -0.1201(11) -0.1743(7) 0.3194(4)
H8 H -0.2911 -0.1481 0.2912
H9 H 0.0106 -0.0379 0.3407
C6 C -0.0259(9) -0.3168(6) 0.2357(3)
H10 H 0.1521 -0.3351 0.2634
C7 C -0.1336(8) -0.6893(6) 0.1254(3)
C8 C -0.0014(9) -0.2041(6) 0.1457(3)
Co1A Co 0.27617(10) -0.88577(8) 0.04561(4)
Co1A_2 Co -0.72383(10) -0.88577(8) 0.04561(4)
Co1_2 Co -0.27617(10) -0.11423(8) -0.04561(4)
Co1A_3 Co 0.27617(10) 0.11423(8) 0.04561(4)
O1A O -0.6816(6) -1.1651(4) -0.0628(2)
O2A O -0.1102(6) -1.3273(5) -0.1289(3)
O3_2 O -0.2078(7) -1.2409(5) 0.0767(3)
O4A O -0.2172(7) -0.9259(5) -0.1472(3)
loop_
_geom_bond_atom_site_label_1
_geom_bond_atom_site_label_2
_geom_bond_site_symmetry_1
_geom_bond_site_symmetry_2
Co1 O1 1_555 1_555
O1 C7 1_555 1_555
O2 C7 1_555 1_555
O3 C8 1_555 1_555
O4 C8 1_555 1_555
C1 H1 1_555 1_555
C2 C1 1_555 1_555
H2 C2 1_555 1_555
H3 C2 1_555 1_555
C3 C2 1_555 1_555
H4 C3 1_555 1_555
H5 C3 1_555 1_555
C4 C3 1_555 1_555
H6 C4 1_555 1_555
H7 C4 1_555 1_555
C5 C4 1_555 1_555
H8 C5 1_555 1_555
H9 C5 1_555 1_555
C6 C1 1_555 1_555
H10 C6 1_555 1_555
C7 C1 1_555 1_555
C8 C6 1_555 1_555
Co1A O2 1_555 1_555
Co1A_2 O1 1_555 1_555
Co1_2 O3 1_555 1_555
Co1A_3 O4 1_555 1_555
O1A Co1 1_555 1_555
O2A Co1 1_555 1_555
O3_2 Co1 1_555 1_555
O4A Co1 1_555 1_555
C5 C6 1_555 1_555
Co1A_2 O1A 1_555 1_555

#END
