
#######################################################################
#
#                 Cambridge Crystallographic Data Centre
#                                CCDC 
#
#######################################################################
#
# If this CIF has been generated from an entry in the Cambridge 
# Structural Database, then it will include bibliographic, chemical, 
# crystal, experimental, refinement or atomic coordinate data resulting 
# from the CCDC's data processing and validation procedures.
#
#######################################################################

data_HEQPID
_symmetry_cell_setting           monoclinic
_symmetry_space_group_name_H-M   'P 21/n'
_symmetry_Int_Tables_number      14
_space_group_name_Hall           '-P 2yn'
loop_
_symmetry_equiv_pos_site_id
_symmetry_equiv_pos_as_xyz
1 x,y,z
2 1/2-x,1/2+y,1/2-z
3 -x,-y,-z
4 1/2+x,1/2-y,1/2+z
_cell_length_a                   13.2426(8)
_cell_length_b                   13.3936(8)
_cell_length_c                   14.6684(9)
_cell_angle_alpha                90
_cell_angle_beta                 100.6640(10)
_cell_angle_gamma                90
_cell_volume                     2556.74
loop_
_atom_site_label
_atom_site_type_symbol
_atom_site_fract_x
_atom_site_fract_y
_atom_site_fract_z
Cu1 Cu 0.238758(19) 0.02224(2) 0.222711(19)
F1 F 0.33216(11) -0.04874(11) 0.87433(9)
F2 F 0.21957(10) -0.34703(10) 0.71875(10)
F3 F 0.45567(10) -0.01391(10) 0.75312(10)
F4 F 0.34881(11) -0.31672(11) 0.60143(10)
F5 F 0.35233(10) 0.38782(10) -0.10379(10)
F6 F 0.66168(10) 0.41427(10) 0.11174(10)
O1 O 0.19102(13) -0.11802(14) 0.13453(14)
O2 O 0.21926(15) -0.26823(13) 0.09596(13)
O3 O 0.34296(13) -0.16180(13) 0.11741(13)
N1 N 0.30716(13) -0.03739(13) 0.34296(12)
N2 N 0.08941(13) 0.06420(14) 0.20686(13)
N3 N 0.31872(13) 0.11015(13) 0.15039(13)
N4 N 0.25035(14) -0.18224(13) 0.11578(12)
C1 C 0.29281(17) 0.00036(16) 0.42431(17)
H1 H 0.2445 0.0530 0.4236
C2 C 0.37546(17) -0.11201(18) 0.34729(16)
H2 H 0.3872 -0.1405 0.2908
C3 C 0.34468(17) -0.03340(17) 0.50899(16)
H3 H 0.3316 -0.0042 0.5646
C4 C 0.42943(17) -0.14948(18) 0.42965(16)
H4 H 0.4763 -0.2030 0.4289
C5 C 0.41562(15) -0.10960(17) 0.51304(15)
C6 C 0.47605(16) -0.1467(2) 0.60469(16)
H5 H 0.5118 -0.2094 0.5942
H6 H 0.5288 -0.0966 0.6299
C7 C 0.40767(15) -0.16526(17) 0.67435(15)
C8 C 0.39938(15) -0.09872(17) 0.74435(15)
C9 C 0.34535(16) -0.24898(17) 0.66898(14)
C10 C 0.33491(16) -0.11554(16) 0.80631(15)
C11 C 0.27962(16) -0.26473(16) 0.72991(15)
C12 C 0.27310(15) -0.19926(17) 0.80110(14)
C13 C 0.20217(16) -0.2156(2) 0.86932(16)
H7 H 0.2365 -0.1926 0.9315
H8 H 0.1882 -0.2879 0.8734
C14 C 0.10124(15) -0.16030(17) 0.84135(15)
C15 C 0.07855(17) -0.0768(2) 0.88817(17)
H9 H 0.1277 -0.0503 0.9377
C16 C 0.02743(16) -0.19320(17) 0.76790(15)
H10 H 0.0407 -0.2495 0.7326
C17 C 0.01682(18) 0.03144(19) 0.13744(18)
H11 H 0.0313 -0.0258 0.1039
C18 C 0.06548(16) 0.14396(17) 0.25385(15)
H12 H 0.1149 0.1677 0.3046
C19 C 0.34459(16) 0.20488(16) 0.17515(16)
H13 H 0.3202 0.2324 0.2267
C20 C 0.35400(18) 0.07449(17) 0.07685(16)
H14 H 0.3368 0.0080 0.0575
C21 C 0.40462(17) 0.26420(16) 0.12973(15)
H15 H 0.4202 0.3308 0.1499
C22 C 0.41428(17) 0.12977(16) 0.02775(16)
H16 H 0.4366 0.1013 -0.0244
C23 C 0.44204(15) 0.22628(15) 0.05454(14)
C24 C 0.51574(17) 0.28151(16) 0.00507(17)
H17 H 0.5867 0.2633 0.0346
H18 H 0.5049 0.2578 -0.0599
C25 C 0.50711(15) 0.39369(15) 0.00411(14)
C26 C 0.42673(15) 0.44301(16) -0.05173(15)
C27 C 0.58025(15) 0.45494(16) 0.05580(15)
Cu1B Cu -0.238758(19) -0.02224(2) 0.777289(19)
Cu1B_2 Cu 0.761242(19) 0.97776(2) -0.222711(19)
F1B F -0.33216(11) 0.04874(11) 0.12567(9)
F2B F -0.21957(10) 0.34703(10) 0.28125(10)
F3B F -0.45567(10) 0.01391(10) 0.24688(10)
F4B F -0.34881(11) 0.31672(11) 0.39857(10)
F5B F 0.64767(10) 0.61218(10) 0.10379(10)
F6B F 0.33832(10) 0.58573(10) -0.11174(10)
O1B O -0.19102(13) 0.11802(14) 0.86547(14)
O2B O -0.21926(15) 0.26823(13) 0.90404(13)
O3B O -0.34296(13) 0.16180(13) 0.88259(13)
N1B N -0.30716(13) 0.03739(13) 0.65704(12)
N2B N -0.08941(13) -0.06420(14) 0.79314(13)
N3B N 0.68128(13) 0.88985(13) -0.15039(13)
N3B_2 N -0.31872(13) -0.11015(13) 0.84961(13)
N4B N -0.25035(14) 0.18224(13) 0.88422(12)
C1B C -0.29281(17) -0.00036(16) 0.57569(17)
H1B H -0.2445 -0.0530 0.5764
C2B C -0.37546(17) 0.11201(18) 0.65271(16)
H2B H -0.3872 0.1405 0.7092
C3B C -0.34468(17) 0.03340(17) 0.49101(16)
H3B H -0.3316 0.0042 0.4354
C4B C -0.42943(17) 0.14948(18) 0.57035(16)
H4B H -0.4763 0.2030 0.5711
C5B C -0.41562(15) 0.10960(17) 0.48696(15)
C6B C -0.47605(16) 0.1467(2) 0.39531(16)
H5B H -0.5118 0.2094 0.4058
H6B H -0.5288 0.0966 0.3701
C7B C -0.40767(15) 0.16526(17) 0.32565(15)
C8B C -0.39938(15) 0.09872(17) 0.25565(15)
C9B C -0.34535(16) 0.24898(17) 0.33102(14)
C10B C -0.33491(16) 0.11554(16) 0.19369(15)
C11B C -0.27962(16) 0.26473(16) 0.27009(15)
C12B C -0.27310(15) 0.19926(17) 0.19890(14)
C13B C -0.20217(16) 0.2156(2) 0.13068(16)
H7B H -0.2365 0.1926 0.0685
H8B H -0.1882 0.2879 0.1266
C14B C -0.10124(15) 0.16030(17) 0.15865(15)
C15B C -0.07855(17) 0.0768(2) 0.11183(17)
H9B H -0.1277 0.0503 0.0623
C16B C -0.02743(16) 0.19320(17) 0.23210(15)
H10B H -0.0407 0.2495 0.2674
C17B C -0.01682(18) -0.03144(19) 0.86256(18)
H11B H -0.0313 0.0258 0.8961
C18B C -0.06548(16) -0.14396(17) 0.74615(15)
H12B H -0.1149 -0.1677 0.6954
C19B C 0.65541(16) 0.79512(16) -0.17515(16)
H13B H 0.6798 0.7676 -0.2267
C20B C 0.64600(18) 0.92551(17) -0.07685(16)
H14B H 0.6632 0.9920 -0.0575
C21B C 0.59538(17) 0.73580(16) -0.12973(15)
H15B H 0.5798 0.6692 -0.1499
C22B C 0.58572(17) 0.87023(16) -0.02775(16)
H16B H 0.5634 0.8987 0.0244
C23B C 0.55796(15) 0.77372(15) -0.05454(14)
C24B C 0.48426(17) 0.71849(16) -0.00507(17)
H17B H 0.4133 0.7367 -0.0346
H18B H 0.4951 0.7422 0.0599
C25B C 0.49289(15) 0.60631(15) -0.00411(14)
C26B C 0.57327(15) 0.55699(16) 0.05173(15)
C27B C 0.41975(15) 0.54506(16) -0.05580(15)
loop_
_geom_bond_atom_site_label_1
_geom_bond_atom_site_label_2
_geom_bond_site_symmetry_1
_geom_bond_site_symmetry_2
Cu1 O1 1_555 1_555
F1 C10 1_555 1_555
F2 C11 1_555 1_555
F3 C8 1_555 1_555
F4 C9 1_555 1_555
F5 C26 1_555 1_555
F6 C27 1_555 1_555
O1 N4 1_555 1_555
O2 N4 1_555 1_555
O3 N4 1_555 1_555
N1 Cu1 1_555 1_555
N2 Cu1 1_555 1_555
N3 Cu1 1_555 1_555
C1 N1 1_555 1_555
H1 C1 1_555 1_555
C2 N1 1_555 1_555
H2 C2 1_555 1_555
C3 C1 1_555 1_555
H3 C3 1_555 1_555
C4 C2 1_555 1_555
H4 C4 1_555 1_555
C5 C3 1_555 1_555
C6 C5 1_555 1_555
H5 C6 1_555 1_555
H6 C6 1_555 1_555
C7 C6 1_555 1_555
C8 C7 1_555 1_555
C9 C7 1_555 1_555
C10 C8 1_555 1_555
C11 C9 1_555 1_555
C12 C10 1_555 1_555
C13 C12 1_555 1_555
H7 C13 1_555 1_555
H8 C13 1_555 1_555
C14 C13 1_555 1_555
C15 C14 1_555 1_555
H9 C15 1_555 1_555
C16 C14 1_555 1_555
H10 C16 1_555 1_555
C17 N2 1_555 1_555
H11 C17 1_555 1_555
C18 N2 1_555 1_555
H12 C18 1_555 1_555
C19 N3 1_555 1_555
H13 C19 1_555 1_555
C20 N3 1_555 1_555
H14 C20 1_555 1_555
C21 C19 1_555 1_555
H15 C21 1_555 1_555
C22 C20 1_555 1_555
H16 C22 1_555 1_555
C23 C21 1_555 1_555
C24 C23 1_555 1_555
H17 C24 1_555 1_555
H18 C24 1_555 1_555
C25 C24 1_555 1_555
C26 C25 1_555 1_555
C27 C25 1_555 1_555
Cu1B O1B 1_555 1_555
Cu1B_2 N3B 1_555 1_555
F1B C10B 1_555 1_555
F2B C11B 1_555 1_555
F3B C8B 1_555 1_555
F4B C9B 1_555 1_555
F5B C26B 1_555 1_555
F6B C27B 1_555 1_555
O1B N4B 1_555 1_555
O2B N4B 1_555 1_555
O3B N4B 1_555 1_555
N1B Cu1B 1_555 1_555
N2B Cu1B 1_555 1_555
N3B C19B 1_555 1_555
N3B_2 Cu1B 1_555 1_555
C1B N1B 1_555 1_555
H1B C1B 1_555 1_555
C2B N1B 1_555 1_555
H2B C2B 1_555 1_555
C3B C1B 1_555 1_555
H3B C3B 1_555 1_555
C4B C2B 1_555 1_555
H4B C4B 1_555 1_555
C5B C3B 1_555 1_555
C6B C5B 1_555 1_555
H5B C6B 1_555 1_555
H6B C6B 1_555 1_555
C7B C6B 1_555 1_555
C8B C7B 1_555 1_555
C9B C7B 1_555 1_555
C10B C8B 1_555 1_555
C11B C9B 1_555 1_555
C12B C10B 1_555 1_555
C13B C12B 1_555 1_555
H7B C13B 1_555 1_555
H8B C13B 1_555 1_555
C14B C13B 1_555 1_555
C15B C17 1_555 1_555
H9B C15B 1_555 1_555
C16B C18 1_555 1_555
H10B C16B 1_555 1_555
C17B C15 1_555 1_555
H11B C17B 1_555 1_555
C18B C16 1_555 1_555
H12B C18B 1_555 1_555
C19B H13B 1_555 1_555
C20B N3B 1_555 1_555
H14B C20B 1_555 1_555
C21B C19B 1_555 1_555
H15B C21B 1_555 1_555
C22B C20B 1_555 1_555
H16B C22B 1_555 1_555
C23B C21B 1_555 1_555
C24B C23B 1_555 1_555
H17B C24B 1_555 1_555
H18B C24B 1_555 1_555
C25B C24B 1_555 1_555
C26B C27 1_555 1_555
C27B C26 1_555 1_555
C4 C5 1_555 1_555
C11 C12 1_555 1_555
C22 C23 1_555 1_555
N2B C17B 1_555 1_555
N2B C18B 1_555 1_555
C4B C5B 1_555 1_555
C11B C12B 1_555 1_555
C14B C15B 1_555 1_555
C14B C16B 1_555 1_555
C22B C23B 1_555 1_555
C25B C26B 1_555 1_555
C25B C27B 1_555 1_555

#END
