
#######################################################################
#
#                 Cambridge Crystallographic Data Centre
#                                CCDC 
#
#######################################################################
#
# If this CIF has been generated from an entry in the Cambridge 
# Structural Database, then it will include bibliographic, chemical, 
# crystal, experimental, refinement or atomic coordinate data resulting 
# from the CCDC's data processing and validation procedures.
#
#######################################################################

data_HEQRAX
_symmetry_cell_setting           monoclinic
_symmetry_space_group_name_H-M   'P 21/n'
_symmetry_Int_Tables_number      14
_space_group_name_Hall           '-P 2yn'
loop_
_symmetry_equiv_pos_site_id
_symmetry_equiv_pos_as_xyz
1 x,y,z
2 1/2-x,1/2+y,1/2-z
3 -x,-y,-z
4 1/2+x,1/2-y,1/2+z
_cell_length_a                   22.0477(2)
_cell_length_b                   61.0454(7)
_cell_length_c                   22.2861(3)
_cell_angle_alpha                90
_cell_angle_beta                 94.0110(10)
_cell_angle_gamma                90
_cell_volume                     29921.6
loop_
_atom_site_label
_atom_site_type_symbol
_atom_site_fract_x
_atom_site_fract_y
_atom_site_fract_z
S50 S 0.9452(2) 0.18942(10) 0.7742(3)
S54 S 0.9379(3) 0.17086(12) 0.6979(4)
C8 C 0.9394(10) 0.1669(6) 0.8308(14)
C9 C 0.9509(12) 0.1789(10) 0.893(2)
C10 C 0.920(3) 0.1310(13) 0.875(3)
C11 C 0.927(2) 0.1470(7) 0.828(5)
C12 C 0.8607(9) 0.1725(5) 0.6623(15)
C13 C 0.8206(9) 0.1870(3) 0.6813(11)
C14 C 0.7604(10) 0.1855(3) 0.6569(8)
C15 C 0.7756(14) 0.1544(3) 0.5984(14)
C16 C 0.8442(17) 0.1587(5) 0.6202(12)
C266 C 0.9245(16) 0.1426(7) 0.9402(18)
C267 C 0.9422(17) 0.1673(7) 0.9436(18)
C270 C 0.7372(11) 0.1671(4) 0.6172(11)
S51 S 0.24360(16) 0.93578(6) 0.31022(18)
S52 S 0.21997(19) 0.90396(6) 0.31736(16)
C1 C 0.2238(9) 0.8924(3) 0.2454(7)
C211 C 0.1879(5) 0.9710(2) 0.2594(6)
C212 C 0.1789(5) 0.94903(19) 0.2769(5)
C213 C 0.1213(5) 0.9392(2) 0.2717(6)
C215 C 0.0805(6) 0.9736(2) 0.2268(6)
C216 C 0.1401(5) 0.9829(2) 0.2333(6)
C222 C 0.0726(6) 0.9519(3) 0.2459(7)
C230 C 0.2416(8) 0.8998(6) 0.1415(6)
C244 C 0.2325(12) 0.8743(5) 0.1359(10)
C245 C 0.2235(8) 0.8687(3) 0.2450(9)
C253 C 0.2283(10) 0.8600(5) 0.1842(18)
C255 C 0.2322(8) 0.9060(4) 0.1950(7)
S53 S 0.6366(2) 0.19902(9) 0.3112(3)
C217 C 0.6738(8) 0.2236(2) 0.2865(7)
C218 C 0.7619(7) 0.2456(3) 0.2818(8)
C219 C 0.6412(9) 0.2391(3) 0.2504(6)
C220 C 0.7356(7) 0.2261(3) 0.3027(7)
C221 C 0.7370(9) 0.2640(4) 0.2358(9)
C223 C 0.6710(10) 0.2574(3) 0.2314(6)
Cd1 Cd 0.180294(17) 0.163768(6) 0.254588(18)
Cd2 Cd 0.256285(17) 0.112100(6) 0.178362(18)
Cd3 Cd 0.409332(18) 0.121722(7) 0.290229(19)
Cd4 Cd 0.243520(17) 0.112823(6) 0.358925(17)
Cd5 Cd 0.318239(18) 0.059802(6) 0.276562(18)
Cd6 Cd 0.093977(17) 0.106048(6) 0.247053(18)
Cd7 Cd 0.021429(18) 0.155402(6) 0.336018(19)
Cd8 Cd 0.349325(19) 0.172271(7) 0.191682(19)
Cd9 Cd 0.154732(18) 0.051821(6) 0.337044(19)
Cd10 Cd 0.166026(18) 0.165651(6) 0.440108(18)
Cd11 Cd 0.191099(19) 0.162200(7) 0.073285(19)
Cd12 Cd 0.334430(18) 0.171033(6) 0.366374(18)
Cd13 Cd 0.174741(19) 0.052201(7) 0.16735(2)
Cd14 Cd 0.401052(19) 0.117074(7) 0.46661(2)
Cd15 Cd 0.087955(19) 0.107424(7) 0.435008(19)
Cd16 Cd 0.028361(19) 0.158415(7) 0.13914(2)
Cd17 Cd 0.098749(19) 0.107011(7) 0.06588(2)
Cd18 Cd 0.344721(19) 0.058718(7) 0.106978(19)
Cd19 Cd 0.272452(19) 0.221899(7) 0.27921(2)
Cd20 Cd 0.41724(2) 0.122591(7) 0.108735(19)
Cd21 Cd 0.370027(19) 0.082988(6) 0.604162(19)
Cd22 Cd 0.09448(2) 0.214532(7) 0.32264(2)
Cd23 Cd 0.25820(2) 0.107728(8) -0.00122(2)
Cd24 Cd 0.237010(19) 0.121195(7) 0.545560(19)
Cd25 Cd 0.292161(19) 0.061095(6) 0.456621(19)
Cd26 Cd 0.14898(2) 0.265194(7) 0.23661(2)
Cd27 Cd 0.12816(2) 0.213661(6) 0.13869(2)
Cd28 Cd -0.16008(2) 0.060039(8) 0.21831(3)
Cd29 Cd -0.00598(2) 0.061063(8) 0.15194(2)
Cd30 Cd -0.02613(2) 0.068666(8) 0.33755(2)
Cd31 Cd 0.41288(2) 0.083969(8) -0.03222(2)
Cd32 Cd -0.08582(2) 0.117834(8) 0.21130(2)
S1 S 0.07619(6) 0.14680(2) 0.24229(6)
S2 S 0.30938(6) 0.10112(2) 0.27689(6)
S3 S 0.22976(6) 0.15365(2) 0.35555(6)
S4 S 0.15491(6) 0.09324(2) 0.16201(6)
S5 S 0.24738(6) 0.15297(2) 0.17326(6)
S6 S 0.14302(6) 0.09338(2) 0.34616(6)
S7 S 0.32201(6) 0.09904(2) 0.09551(6)
S8 S 0.40476(7) 0.16222(2) 0.28816(7)
S9 S 0.16992(6) 0.20515(2) 0.24591(6)
S10 S -0.00993(6) 0.08764(2) 0.23871(7)
S11 S 0.08769(7) 0.14708(2) 0.05449(7)
S12 S 0.06609(6) 0.14709(2) 0.43850(7)
S13 S 0.22419(6) 0.03792(2) 0.26261(7)
S14 S 0.26010(8) 0.26374(2) 0.26754(8)
S15 S -0.00655(7) 0.19587(2) 0.31791(8)
S16 S 0.39567(6) 0.04506(2) 0.20398(6)
S17 S 0.29284(6) 0.10255(2) 0.46168(6)
S18 S 0.47014(7) 0.10800(2) 0.38628(7)
S19 S 0.32542(7) 0.21267(2) 0.37882(7)
S20 S 0.45348(7) 0.10734(2) 0.57038(7)
S21 S 0.02185(7) 0.19997(3) 0.14959(9)
S22 S 0.22497(7) 0.16212(2) 0.54309(7)
S23 S 0.19814(7) 0.20342(2) 0.06010(7)
S24 S 0.40298(7) 0.04679(3) 0.01482(7)
S25 S 0.35018(7) 0.04707(2) 0.55177(7)
S26 S 0.29012(7) 0.10682(2) 0.64500(7)
S27 S 0.31851(7) 0.21256(2) 0.18105(8)
S28 S 0.23748(7) 0.04614(3) 0.07546(7)
S29 S 0.35875(6) 0.15550(2) 0.47277(6)
S30 S 0.00606(7) 0.07821(3) 0.44329(8)
S31 S 0.45978(7) 0.10284(2) 0.20321(7)
S32 S 0.04652(7) 0.03747(3) 0.31347(8)
S33 S 0.17007(7) 0.20645(2) 0.41156(7)
S34 S 0.19083(7) 0.04295(2) 0.44576(7)
S35 S 0.10947(7) 0.25512(2) 0.13234(7)
S36 S 0.40797(8) 0.16316(3) 0.09903(8)
S37 S 0.37445(6) 0.06025(2) 0.38147(7)
S38 S -0.07993(7) 0.14326(3) 0.12378(8)
S39 S 0.27577(7) 0.14818(3) 0.01036(8)
S40 S 0.15079(7) 0.09425(2) 0.53013(7)
S41 S 0.15682(7) 0.08986(3) -0.01845(7)
S42 S -0.19049(8) 0.09910(3) 0.20158(10)
S43 S -0.07362(7) 0.13118(3) 0.31992(8)
S44 S -0.13245(8) 0.05141(3) 0.32668(10)
S45 S 0.32236(8) 0.09986(3) -0.09063(7)
S46 S 0.08321(10) 0.25608(3) 0.32144(9)
S47 S -0.10950(8) 0.04156(4) 0.13505(12)
S48 S -0.00913(8) 0.09265(4) 0.07716(9)
S49 S 0.07350(9) 0.03276(3) 0.14543(14)
C2 C 0.6258(5) 0.1119(6) 0.2809(7)
C3 C 0.6576(5) 0.1192(3) 0.2471(11)
C4 C 0.6316(7) 0.1204(6) 0.1960(12)
C5 C 0.5711(5) 0.1172(6) 0.1824(9)
C6 C 0.5377(3) 0.10969(12) 0.2181(3)
C7 C 0.5649(5) 0.1071(6) 0.2670(5)
C17 C 0.0930(3) 0.09829(12) 0.5815(3)
N1 N 0.4141(2) 0.06363(8) 0.6849(2)
C18 C -0.1325(3) 0.14806(12) 0.3435(4)
N2 N -0.2549(3) 0.04420(9) 0.2115(3)
C19 C -0.3039(3) 0.05488(11) 0.2299(3)
C20 C 0.1600(3) 0.22387(10) 0.4741(3)
N3 N 0.1260(3) 0.30189(8) 0.2344(3)
C21 C -0.3608(3) 0.04503(11) 0.2301(3)
C22 C 0.4979(3) 0.07001(11) 0.5160(3)
C23 C 0.5105(3) 0.08755(11) 0.5549(3)
N4 N 0.4784(3) 0.08191(8) -0.1081(2)
C24 C 0.4061(3) 0.04518(10) 0.7787(3)
C25 C 0.4906(3) 0.02056(10) 0.8245(3)
C26 C 0.4448(3) 0.14289(11) -0.0484(3)
C27 C 0.3692(3) 0.00543(9) 0.2557(3)
C28 C 0.4594(3) 0.08948(10) -0.1619(3)
C29 C -0.3168(3) 0.01258(10) 0.1929(3)
C30 C 0.4938(3) 0.13085(11) -0.0229(3)
C31 C 0.4235(3) 0.03718(10) 0.3889(3)
C32 C 0.2127(3) 0.01498(9) 0.4484(3)
C33 C 0.3834(3) 0.05923(10) 0.7331(3)
C34 C 0.4006(3) 0.22197(11) 0.3712(3)
C35 C 0.3605(3) 0.14479(12) 0.6453(3)
C36 C 0.3741(2) 0.01675(9) 0.2011(3)
C37 C 0.4682(3) 0.05360(9) 0.6805(3)
C38 C 0.4968(3) 0.09201(10) -0.2087(3)
C39 C 0.3405(3) 0.12732(9) 0.6776(3)
C40 C 0.4100(4) 0.01894(10) 0.4227(3)
C41 C 0.4934(3) 0.03986(9) 0.7247(3)
C42 C 0.5302(3) 0.12704(10) 0.4072(3)
C43 C 0.0367(3) 0.01476(11) 0.3615(3)
C44 C 0.4820(3) 0.04380(11) 0.0352(3)
C45 C 0.4628(3) 0.03547(9) 0.7752(3)
C46 C 0.4073(3) 0.17488(10) 0.5107(3)
C47 C 0.4505(4) 0.21109(15) 0.3966(4)
C48 C 0.1718(3) 0.16860(12) 0.5971(3)
C49 C 0.2348(3) 0.01796(11) 0.0568(3)
C50 C 0.1906(3) 0.00212(11) 0.4942(3)
C51 C 0.2847(3) 0.07779(17) -0.1302(3)
C52 C 0.5144(4) 0.02904(13) 0.0016(3)
C53 C -0.1900(3) 0.06696(12) 0.3600(4)
C54 C 0.1207(4) 0.18125(13) 0.5828(3)
C55 C 0.2086(4) 0.00268(13) 0.0951(5)
S55 S 0.48471(7) 0.10883(3) 0.02790(7)
C56 C 0.0796(3) -0.00180(12) 0.3655(4)
C57 C -0.0584(3) 0.08857(12) 0.4772(3)
C58 C 0.1292(3) 0.10261(11) -0.0879(3)
C59 C 0.2496(3) 0.00552(11) 0.4057(4)
C60 C -0.0675(4) 0.11089(14) 0.4837(4)
C61 C -0.3682(3) 0.02365(9) 0.2119(3)
C62 C 0.6215(4) 0.11449(11) -0.2528(4)
C63 C 0.4788(3) 0.03855(14) 0.3614(3)
C64 C 0.2957(3) 0.03484(10) 0.5972(3)
C65 C 0.5198(4) 0.02125(16) 0.3662(4)
C66 C -0.2405(4) 0.05529(15) 0.3778(4)
C67 C 0.1967(4) 0.03284(14) 0.6373(3)
C68 C 0.6140(3) 0.07537(17) 0.5725(4)
C69 C 0.5445(4) 0.05480(13) 0.5064(3)
C70 C 0.6003(4) 0.09050(11) -0.2500(4)
C71 C 0.5062(4) 0.00287(14) 0.3995(4)
C72 C 0.3980(4) 0.14042(14) 0.7668(3)
C73 C 0.1642(3) 0.26468(10) 0.0832(3)
C74 C -0.4287(3) 0.01196(10) 0.2146(3)
C75 C 0.2388(3) 0.04398(11) 0.6031(3)
C76 C 0.5895(3) 0.15437(11) -0.2656(4)
C77 C 0.0097(4) 0.26260(11) 0.2865(4)
C78 C 0.2598(3) 0.27648(11) 0.3402(4)
C79 C 0.5059(4) 0.18793(14) 0.5480(4)
C80 C 0.2587(4) 0.01083(16) 0.0053(4)
C81 C -0.2615(3) 0.02338(10) 0.1935(3)
C82 C 0.3585(4) 0.12513(12) 0.7389(3)
C83 C -0.1229(4) 0.15933(14) 0.3970(5)
C84 C 0.4701(4) 0.17159(12) 0.5187(4)
C85 C -0.2223(3) 0.09963(14) 0.1255(4)
C86 C -0.2864(4) 0.0667(2) 0.4038(5)
C87 C 0.5683(4) 0.13061(11) -0.2635(4)
C88 C 0.4526(4) 0.00134(12) 0.4270(4)
C89 C -0.0980(4) 0.01440(15) 0.1610(6)
C90 C 0.2139(5) 0.01264(14) 0.6641(3)
C91 C 0.3648(3) 0.00574(10) 0.1467(3)
C92 C -0.0769(4) 0.00963(13) 0.2177(6)
C93 C 0.1617(4) 0.20779(11) -0.0129(3)
C94 C 0.6023(4) 0.05773(16) 0.5357(4)
C95 C -0.0252(5) -0.00657(17) 0.4259(6)
C96 C -0.0132(4) 0.25222(17) 0.2356(5)
C97 C 0.5745(3) 0.11980(15) 0.4502(4)
C98 C -0.0155(4) 0.01253(15) 0.3928(5)
C99 C 0.3493(3) -0.01647(11) 0.1466(4)
C100 C 0.1071(4) 0.23534(12) 0.4816(3)
C101 C 0.3998(4) 0.16039(12) 0.6743(3)
C102 C 0.4548(4) 0.15993(13) -0.0886(3)
C103 C 0.5579(3) 0.08712(10) -0.1996(3)
C104 C 0.2641(4) -0.01686(12) 0.4117(4)
C105 C -0.0753(4) 0.22543(14) 0.3733(5)
C106 C 0.5794(3) 0.07963(11) -0.1427(3)
C107 C 0.5786(5) 0.02804(19) 0.0143(5)
C108 C 0.0629(4) 0.07944(16) 0.5998(4)
C109 C 0.1414(5) 0.31486(12) 0.2806(4)
C110 C 0.6078(4) 0.0415(2) 0.0574(5)
C111 C 0.6219(4) 0.13353(19) 0.4690(5)
C112 C -0.1888(3) 0.14875(13) 0.3104(5)
C113 C 0.5383(3) 0.07697(11) -0.0981(3)
C114 C 0.5683(3) 0.09078(13) 0.5837(3)
C115 C -0.1463(5) 0.08086(18) 0.5324(5)
C116 C -0.0346(3) 0.20772(11) 0.3835(4)
C117 C 0.1422(4) 0.27537(15) 0.0307(4)
C118 C 0.3799(4) 0.19357(11) 0.5320(3)
C119 C 0.4468(3) 0.00230(10) 0.8405(3)
C120 C 0.2091(4) 0.22597(13) 0.5162(3)
C121 C 0.4794(4) 0.20706(14) 0.5682(4)
C122 C 0.4179(4) 0.15806(12) 0.7347(4)
C123 C -0.0675(4) -0.01215(18) 0.2399(8)
C124 C 0.2419(4) -0.02934(11) 0.4575(4)
C125 C 0.5527(4) 0.13591(15) -0.0356(5)
C126 C 0.3118(4) 0.01493(11) 0.6242(3)
C127 C 0.2058(4) -0.02010(12) 0.4981(4)
C128 C 0.1829(4) 0.2254(2) -0.0448(4)
C129 C 0.6266(4) 0.15399(16) 0.4464(6)
C130 C 0.0823(4) 0.18684(17) 0.6273(4)
C131 C 0.6249(5) 0.16354(13) -0.2181(4)
C132 C 0.4164(5) 0.20999(12) 0.5614(4)
C133 C -0.1863(4) 0.08952(13) 0.3672(5)
C134 C 0.3433(3) -0.02751(10) 0.2004(4)
C135 C 0.2302(4) 0.26763(13) 0.3865(4)
C136 C 0.0179(4) -0.02344(16) 0.4279(5)
C137 C -0.1585(5) 0.1032(2) 0.5358(6)
C138 C 0.3866(3) 0.22797(13) 0.1732(4)
C139 C 0.2262(3) 0.26109(14) 0.0949(4)
C140 C 0.2789(4) 0.05744(15) -0.1059(5)
C141 C 0.2661(4) 0.26877(18) 0.0535(5)
C142 C -0.0969(4) 0.07347(14) 0.5018(4)
C143 C -0.0214(5) 0.27905(14) 0.3162(7)
C144 C 0.3537(3) -0.01655(10) 0.2546(3)
C145 C -0.1617(4) 0.19241(15) 0.2131(5)
C146 C -0.0030(5) 0.1033(2) 0.6559(5)
C147 C 0.2324(4) 0.0637(3) -0.2225(4)
C148 C -0.1206(3) 0.17595(13) 0.1983(4)
C149 C 0.0280(4) 0.1210(2) 0.6374(4)
C150 C 0.2751(4) 0.16236(14) -0.0591(4)
C151 C 0.1506(5) 0.25123(15) 0.5734(4)
C152 C 0.0141(5) 0.0824(2) 0.6381(4)
C153 C 0.2604(4) 0.0823(2) -0.1892(4)
C154 C 0.5114(3) 0.05678(12) 0.0793(4)
C155 C 0.0855(5) 0.1200(2) -0.1981(4)
C156 C 0.1201(6) 0.21487(18) -0.1314(4)
C157 C 0.5133(5) 0.16531(17) -0.1008(5)
C158 C 0.5754(4) 0.05580(17) 0.0897(4)
C159 C -0.1691(4) 0.17264(17) 0.4185(5)
C160 C 0.5087(4) 0.21964(17) 0.3946(5)
C161 C -0.2254(4) 0.17297(17) 0.3860(6)
C162 C 0.0762(4) 0.11899(14) 0.5996(4)
C163 C 0.2982(6) 0.18381(17) -0.0553(7)
C164 C 0.0991(5) 0.09816(18) -0.1932(4)
C165 C -0.1292(3) 0.16502(15) 0.1453(4)
C166 C -0.1171(5) 0.11839(17) 0.5126(5)
C167 C 0.0963(5) 0.1810(2) 0.6863(5)
C168 C 0.5189(4) 0.23854(17) 0.3658(7)
C169 C -0.0402(4) 0.08395(18) 0.0060(4)
C170 C -0.2364(4) 0.16139(17) 0.3324(6)
C171 C 0.1028(5) 0.24923(14) 0.5295(4)
C172 C 0.0696(4) -0.02070(13) 0.3984(4)
C173 C 0.0909(5) 0.31018(13) 0.1899(5)
C174 C 0.2711(5) 0.00418(12) 0.6580(4)
C175 C -0.2109(5) 0.1973(2) 0.1772(5)
C176 C -0.0432(4) 0.21054(18) 0.4910(5)
C177 C 0.5725(5) 0.16779(13) -0.3123(5)
C178 C -0.0825(5) 0.22817(18) 0.4819(6)
C179 C 0.1216(4) 0.08938(15) -0.1381(4)
C180 C 0.2558(6) 0.29901(19) 0.4485(5)
C181 C 0.1616(5) 0.2293(2) -0.1035(5)
C182 C -0.2316(6) 0.10110(18) 0.3944(6)
C183 C -0.0193(3) 0.20038(14) 0.4414(4)
C184 C 0.3000(9) 0.1955(3) -0.1095(11)
C185 C 0.2235(5) -0.02538(18) 0.0199(7)
C186 C 0.2275(5) 0.0438(3) -0.1962(6)
C187 C -0.1014(5) 0.2760(2) 0.2346(8)
C188 C -0.0790(5) 0.28547(17) 0.2906(8)
C189 C 0.1171(5) 0.12474(15) -0.0924(4)
C190 C 0.0961(6) 0.1335(2) -0.1479(4)
C191 C 0.1831(5) 0.28256(19) -0.0099(5)
C192 C -0.0997(6) 0.23538(18) 0.4231(7)
C193 C 0.1842(5) 0.1615(2) 0.6569(4)
C194 C 0.5629(5) 0.15343(18) -0.0744(6)
C195 C 0.2457(6) 0.27955(19) 0.0017(5)
C196 C 0.1444(6) 0.1676(3) 0.7009(5)
C197 C -0.0215(4) 0.21085(17) 0.0847(5)
C198 C 0.4116(5) 0.24161(17) 0.3407(8)
C199 C 0.5347(5) 0.14760(15) 0.3855(7)
C200 C 0.2562(5) 0.1526(2) -0.1134(4)
C201 C 0.2810(8) 0.1855(4) -0.1648(10)
C202 C 0.4713(6) 0.2493(2) 0.3390(11)
C203 C 0.2027(5) -0.01928(16) 0.0757(7)
C204 C 0.2271(5) 0.27938(16) 0.4407(4)
C205 C 0.2046(5) 0.23963(16) 0.5667(4)
C206 C -0.0715(5) 0.2580(3) 0.2073(6)
C207 C -0.1777(6) 0.1707(3) 0.1058(6)
C208 C -0.2817(6) 0.0896(2) 0.4123(7)
C209 C 0.2516(5) -0.01071(19) -0.0133(5)
C210 C -0.0811(6) -0.02905(17) 0.1957(12)
C214 C 0.4899(5) 0.2520(3) 0.1508(6)
C224 C 0.4835(12) 0.2339(3) 0.1422(19)
C225 C -0.2794(8) 0.0966(6) 0.0199(9)
C226 C 0.4362(10) 0.2210(2) 0.1578(15)
C227 C 0.2892(6) 0.30728(16) 0.4030(6)
C228 C 0.4362(6) 0.2642(2) 0.1590(6)
C229 C -0.0400(7) 0.0769(6) -0.1004(6)
C231 C 0.2920(5) 0.29620(15) 0.3478(5)
C232 C -0.1166(7) 0.22730(19) 0.0421(7)
C233 C -0.1121(7) -0.0023(2) 0.1200(9)
C234 C -0.0911(8) 0.2302(4) -0.0113(10)
C235 C 0.2491(5) 0.0401(2) -0.1386(6)
C236 C 0.3841(6) 0.2520(2) 0.1725(6)
C237 C -0.2755(12) 0.1196(7) 0.0323(14)
C238 C -0.2550(12) 0.0879(4) 0.0986(10)
C239 C -0.2959(14) 0.0910(5) 0.0481(13)
C240 C -0.2349(7) 0.1226(3) 0.1012(8)
C241 C 0.0015(10) 0.2197(3) 0.0381(7)
C242 C -0.0136(6) 0.0856(5) -0.0436(6)
C243 C 0.2603(7) 0.1646(4) -0.1676(6)
C246 C 0.5841(5) 0.16064(17) 0.4047(9)
C247 C -0.0809(7) 0.2169(2) 0.0939(8)
C248 C 0.1224(7) 0.19417(18) -0.0412(6)
C249 C -0.2171(6) 0.1880(3) 0.1219(7)
C250 C -0.0958(13) 0.0769(6) -0.0018(7)
C251 C 0.1010(7) 0.1978(2) -0.1029(5)
C252 C -0.0951(9) 0.0717(4) -0.1050(7)
C254 C -0.1022(9) -0.0236(2) 0.1362(12)
C256 C -0.1216(17) 0.0701(6) -0.0558(10)
C257 C -0.0373(15) 0.2297(3) -0.0096(9)
C258 C 0.4837(5) 0.17193(18) 0.1101(5)
C259 C 0.5092(7) 0.1819(2) 0.0607(7)
C260 C 0.5708(11) 0.1887(4) 0.0670(10)
C261 C 0.0604(9) 0.0229(4) 0.0807(10)
C262 C 0.0602(14) -0.0022(6) 0.0815(15)
C263 C 0.0769(9) 0.0388(3) 0.0437(9)
C264 C 0.037(3) 0.0371(12) -0.017(3)
C265 C 0.0250(18) 0.0083(7) -0.0352(16)
C268 C 0.6028(13) 0.1835(5) 0.1128(15)
C269 C 0.589(2) 0.1801(8) 0.166(2)
C271 C 0.5227(13) 0.1646(5) 0.1564(13)
C272 C 0.0468(18) -0.0113(7) 0.011(2)
Cd26C Cd 0.64898(2) 0.234806(7) -0.26339(2)
Cd28B Cd 0.16008(2) -0.060039(8) 0.78169(3)
N2B N 0.2549(3) -0.04420(9) 0.7885(3)
C19B C 0.3039(3) -0.05488(11) 0.7701(3)
N3C N 0.6260(3) 0.19811(8) -0.2656(3)
C21B C 0.3608(3) -0.04503(11) 0.7699(3)
C29B C 0.3168(3) -0.01258(10) 0.8071(3)
C61B C 0.3682(3) -0.02365(9) 0.7881(3)
C74B C 0.4287(3) -0.01196(10) 0.7854(3)
C81B C 0.2615(3) -0.02338(10) 0.8065(3)
C109C C 0.6414(5) 0.18514(12) -0.2194(4)
C119B C -0.4468(3) -0.00230(10) 0.1595(3)
C131C C 0.1249(5) 0.33646(13) 0.2819(4)
C173C C 0.5909(5) 0.18982(13) -0.3101(5)
C177C C 0.0725(5) 0.33221(13) 0.1877(5)
C265B C -0.0250(18) -0.0083(7) 0.0352(16)
C272B C -0.0468(18) 0.0113(7) -0.011(2)
loop_
_geom_bond_atom_site_label_1
_geom_bond_atom_site_label_2
_geom_bond_site_symmetry_1
_geom_bond_site_symmetry_2
Cd1 S1 1_555 1_555
Cd2 S2 1_555 1_555
Cd3 S2 1_555 1_555
Cd4 S2 1_555 1_555
Cd5 S2 1_555 1_555
Cd6 S1 1_555 1_555
Cd7 S1 1_555 1_555
Cd8 S5 1_555 1_555
Cd9 S6 1_555 1_555
Cd10 S3 1_555 1_555
Cd11 S5 1_555 1_555
Cd12 S3 1_555 1_555
Cd13 S4 1_555 1_555
Cd14 S17 1_555 1_555
Cd15 S6 1_555 1_555
Cd16 S1 1_555 1_555
Cd17 S4 1_555 1_555
Cd18 S7 1_555 1_555
Cd19 S9 1_555 1_555
Cd20 S7 1_555 1_555
Cd21 S20 1_555 1_555
Cd22 S9 1_555 1_555
Cd23 S7 1_555 1_555
Cd24 S17 1_555 1_555
Cd25 S17 1_555 1_555
Cd26 S14 1_555 1_555
Cd27 S9 1_555 1_555
Cd28 S42 1_555 1_555
Cd29 S10 1_555 1_555
Cd30 S10 1_555 1_555
Cd31 S24 1_555 1_555
Cd32 S10 1_555 1_555
S3 Cd1 1_555 1_555
S4 Cd2 1_555 1_555
S5 Cd1 1_555 1_555
S6 Cd4 1_555 1_555
S7 Cd2 1_555 1_555
S8 Cd3 1_555 1_555
S9 Cd1 1_555 1_555
S10 Cd6 1_555 1_555
S11 Cd11 1_555 1_555
S12 Cd7 1_555 1_555
S13 Cd5 1_555 1_555
S14 Cd19 1_555 1_555
S15 Cd7 1_555 1_555
S16 Cd5 1_555 1_555
S17 Cd4 1_555 1_555
S18 Cd3 1_555 1_555
S19 Cd12 1_555 1_555
S20 Cd14 1_555 1_555
S21 Cd16 1_555 1_555
S22 Cd10 1_555 1_555
S23 Cd11 1_555 1_555
S24 Cd18 1_555 1_555
S25 Cd21 1_555 1_555
S26 Cd21 1_555 1_555
S27 Cd8 1_555 1_555
S28 Cd13 1_555 1_555
S29 Cd12 1_555 1_555
S30 Cd15 1_555 1_555
S31 Cd3 1_555 1_555
S32 Cd9 1_555 1_555
S33 Cd10 1_555 1_555
S34 Cd9 1_555 1_555
S35 Cd26 1_555 1_555
S36 Cd8 1_555 1_555
S37 Cd5 1_555 1_555
S38 Cd16 1_555 1_555
S39 Cd11 1_555 1_555
S40 Cd15 1_555 1_555
S41 Cd17 1_555 1_555
S42 Cd32 1_555 1_555
S43 Cd7 1_555 1_555
S44 Cd28 1_555 1_555
S45 Cd23 1_555 1_555
S46 Cd22 1_555 1_555
S47 Cd28 1_555 1_555
S48 Cd17 1_555 1_555
S49 Cd13 1_555 1_555
S50 S54 1_555 1_555
S51 S52 1_555 1_555
S52 C1 1_555 1_555
S53 C217 1_555 1_555
S54 C12 1_555 1_555
C1 C245 1_555 1_555
C2 C3 1_555 1_555
C3 C4 1_555 1_555
C4 C5 1_555 1_555
C5 C6 1_555 1_555
C6 S31 1_555 1_555
C7 C2 1_555 1_555
C8 S50 1_555 1_555
C9 C8 1_555 1_555
C10 C11 1_555 1_555
C11 C8 1_555 1_555
C12 C13 1_555 1_555
C13 C14 1_555 1_555
C14 C270 1_555 1_555
C15 C16 1_555 1_555
C16 C12 1_555 1_555
C17 S40 1_555 1_555
N1 Cd21 1_555 1_555
C18 S43 1_555 1_555
N2 Cd28 1_555 1_555
C19 N2 1_555 1_555
C20 S33 1_555 1_555
N3 Cd26 1_555 1_555
C21 C19 1_555 1_555
C22 C23 1_555 1_555
C23 S20 1_555 1_555
N4 Cd31 1_555 1_555
C24 C33 1_555 1_555
C25 C45 1_555 1_555
C26 C30 1_555 1_555
C27 C36 1_555 1_555
C28 N4 1_555 1_555
C29 C61 1_555 1_555
C30 S55 1_555 1_555
C31 S37 1_555 1_555
C32 S34 1_555 1_555
C33 N1 1_555 1_555
C34 S19 1_555 1_555
C35 C39 1_555 1_555
C36 S16 1_555 1_555
C37 N1 1_555 1_555
C38 C28 1_555 1_555
C39 S26 1_555 1_555
C40 C31 1_555 1_555
C41 C37 1_555 1_555
C42 S18 1_555 1_555
C43 S32 1_555 1_555
C44 S24 1_555 1_555
C45 C24 1_555 1_555
C46 S29 1_555 1_555
C47 C34 1_555 1_555
C48 S22 1_555 1_555
C49 S28 1_555 1_555
C50 C32 1_555 1_555
C51 S45 1_555 1_555
C52 C44 1_555 1_555
C53 S44 1_555 1_555
C54 C48 1_555 1_555
C55 C49 1_555 1_555
S55 Cd20 1_555 1_555
C56 C43 1_555 1_555
C57 S30 1_555 1_555
C58 S41 1_555 1_555
C59 C32 1_555 1_555
C60 C57 1_555 1_555
C61 C21 1_555 1_555
C62 C70 1_555 1_555
C63 C31 1_555 1_555
C64 S25 1_555 1_555
C65 C63 1_555 1_555
C66 C53 1_555 1_555
C67 C75 1_555 1_555
C68 C94 1_555 1_555
C69 C22 1_555 1_555
C70 C103 1_555 1_555
C71 C65 1_555 1_555
C72 C82 1_555 1_555
C73 S35 1_555 1_555
C74 C61 1_555 1_555
C75 C64 1_555 1_555
C76 C87 1_555 1_555
C77 S46 1_555 1_555
C78 S14 1_555 1_555
C79 C84 1_555 1_555
C80 C49 1_555 1_555
C81 N2 1_555 1_555
C82 C39 1_555 1_555
C83 C18 1_555 1_555
C84 C46 1_555 1_555
C85 S42 1_555 1_555
C86 C66 1_555 1_555
C87 C62 1_555 1_555
C88 C40 1_555 1_555
C89 S47 1_555 1_555
C90 C67 1_555 1_555
C91 C36 1_555 1_555
C92 C89 1_555 1_555
C93 S23 1_555 1_555
C94 C69 1_555 1_555
C95 C98 1_555 1_555
C96 C77 1_555 1_555
C97 C42 1_555 1_555
C98 C43 1_555 1_555
C99 C91 1_555 1_555
C100 C20 1_555 1_555
C101 C35 1_555 1_555
C102 C26 1_555 1_555
C103 C38 1_555 1_555
C104 C59 1_555 1_555
C105 C116 1_555 1_555
C106 C103 1_555 1_555
C107 C52 1_555 1_555
C108 C17 1_555 1_555
C109 N3 1_555 1_555
C110 C107 1_555 1_555
C111 C97 1_555 1_555
C112 C18 1_555 1_555
C113 N4 1_555 1_555
C114 C23 1_555 1_555
C115 C137 1_555 1_555
C116 S15 1_555 1_555
C117 C73 1_555 1_555
C118 C46 1_555 1_555
C119 C25 1_555 1_555
C120 C20 1_555 1_555
C121 C79 1_555 1_555
C122 C72 1_555 1_555
C123 C92 1_555 1_555
C124 C104 1_555 1_555
C125 C30 1_555 1_555
C126 C64 1_555 1_555
C127 C50 1_555 1_555
C128 C93 1_555 1_555
C129 C111 1_555 1_555
C130 C54 1_555 1_555
C131 C76 1_555 1_555
C132 C118 1_555 1_555
C133 C53 1_555 1_555
C134 C99 1_555 1_555
C135 C78 1_555 1_555
C136 C95 1_555 1_555
C137 C166 1_555 1_555
C138 S27 1_555 1_555
C139 C73 1_555 1_555
C140 C51 1_555 1_555
C141 C139 1_555 1_555
C142 C57 1_555 1_555
C143 C77 1_555 1_555
C144 C27 1_555 1_555
C145 C148 1_555 1_555
C146 C149 1_555 1_555
C147 C153 1_555 1_555
C148 C165 1_555 1_555
C149 C162 1_555 1_555
C150 S39 1_555 1_555
C151 C171 1_555 1_555
C152 C108 1_555 1_555
C153 C51 1_555 1_555
C154 C44 1_555 1_555
C155 C164 1_555 1_555
C156 C181 1_555 1_555
C157 C102 1_555 1_555
C158 C110 1_555 1_555
C159 C83 1_555 1_555
C160 C47 1_555 1_555
C161 C159 1_555 1_555
C162 C17 1_555 1_555
C163 C150 1_555 1_555
C164 C179 1_555 1_555
C165 S38 1_555 1_555
C166 C60 1_555 1_555
C167 C130 1_555 1_555
C168 C160 1_555 1_555
C169 S48 1_555 1_555
C170 C112 1_555 1_555
C171 C100 1_555 1_555
C172 C56 1_555 1_555
C173 N3 1_555 1_555
C174 C90 1_555 1_555
C175 C145 1_555 1_555
C176 C178 1_555 1_555
C177 C76 1_555 1_555
C178 C192 1_555 1_555
C179 C58 1_555 1_555
C180 C204 1_555 1_555
C181 C128 1_555 1_555
C182 C133 1_555 1_555
C183 C116 1_555 1_555
C184 C163 1_555 1_555
C185 C203 1_555 1_555
C186 C147 1_555 1_555
C187 C188 1_555 1_555
C188 C143 1_555 1_555
C189 C58 1_555 1_555
C190 C155 1_555 1_555
C191 C117 1_555 1_555
C192 C105 1_555 1_555
C193 C48 1_555 1_555
C194 C125 1_555 1_555
C195 C141 1_555 1_555
C196 C167 1_555 1_555
C197 S21 1_555 1_555
C198 C34 1_555 1_555
C199 C42 1_555 1_555
C200 C150 1_555 1_555
C201 C184 1_555 1_555
C202 C168 1_555 1_555
C203 C55 1_555 1_555
C204 C135 1_555 1_555
C205 C120 1_555 1_555
C206 C96 1_555 1_555
C207 C165 1_555 1_555
C208 C86 1_555 1_555
C209 C80 1_555 1_555
C210 C123 1_555 1_555
C211 C212 1_555 1_555
C212 S51 1_555 1_555
C213 C212 1_555 1_555
C214 C224 1_555 1_555
C215 C216 1_555 1_555
C216 C211 1_555 1_555
C217 C219 1_555 1_555
C218 C220 1_555 1_555
C219 C223 1_555 1_555
C220 C217 1_555 1_555
C221 C218 1_555 1_555
C222 C213 1_555 1_555
C223 C221 1_555 1_555
C224 C226 1_555 1_555
C225 C237 1_555 1_555
C226 C138 1_555 1_555
C227 C180 1_555 1_555
C228 C214 1_555 1_555
C229 C242 1_555 1_555
C230 C244 1_555 1_555
C231 C78 1_555 1_555
C232 C234 1_555 1_555
C233 C89 1_555 1_555
C234 C257 1_555 1_555
C235 C140 1_555 1_555
C236 C138 1_555 1_555
C237 C240 1_555 1_555
C238 C85 1_555 1_555
C239 C225 1_555 1_555
C240 C85 1_555 1_555
C241 C197 1_555 1_555
C242 C169 1_555 1_555
C243 C200 1_555 1_555
C244 C253 1_555 1_555
C245 C253 1_555 1_555
C246 C129 1_555 1_555
C247 C197 1_555 1_555
C248 C93 1_555 1_555
C249 C175 1_555 1_555
C250 C169 1_555 1_555
C251 C156 1_555 1_555
C252 C229 1_555 1_555
C254 C210 1_555 1_555
C255 C1 1_555 1_555
C256 C250 1_555 1_555
C257 C241 1_555 1_555
C258 S36 1_555 1_555
C259 C258 1_555 1_555
C260 C259 1_555 1_555
C261 S49 1_555 1_555
C262 C261 1_555 1_555
C263 C261 1_555 1_555
C264 C263 1_555 1_555
C265 C264 1_555 1_555
C266 C10 1_555 1_555
C267 C9 1_555 1_555
C268 C260 1_555 1_555
C269 C268 1_555 1_555
C270 C15 1_555 1_555
C271 C258 1_555 1_555
C272 C262 1_555 1_555
Cd26C N3C 1_555 1_555
Cd28B N2B 1_555 1_555
N2B C19B 1_555 1_555
C19B C21B 1_555 1_555
N3C C109C 1_555 1_555
C21B C61B 1_555 1_555
C29B C61B 1_555 1_555
C61B C74B 1_555 1_555
C74B C119 1_555 1_555
C81B N2B 1_555 1_555
C109C C131 1_555 1_555
C119B C74 1_555 1_555
C131C C109 1_555 1_555
C173C C177 1_555 1_555
C177C C173 1_555 1_555
C265B C272 1_555 1_555
C272B C265 1_555 1_555
Cd2 S5 1_555 1_555
Cd4 S3 1_555 1_555
Cd6 S4 1_555 1_555
Cd6 S6 1_555 1_555
Cd8 S8 1_555 1_555
Cd9 S13 1_555 1_555
Cd10 S12 1_555 1_555
Cd12 S8 1_555 1_555
Cd13 S13 1_555 1_555
Cd14 S18 1_555 1_555
Cd14 S29 1_555 1_555
Cd15 S12 1_555 1_555
Cd16 S11 1_555 1_555
Cd17 S11 1_555 1_555
Cd18 S16 1_555 1_555
Cd18 S28 1_555 1_555
Cd19 S19 1_555 1_555
Cd19 S27 1_555 1_555
Cd20 S31 1_555 1_555
Cd20 S36 1_555 1_555
Cd22 S15 1_555 1_555
Cd22 S33 1_555 1_555
Cd23 S39 1_555 1_555
Cd23 S41 1_555 1_555
Cd24 S22 1_555 1_555
Cd24 S26 1_555 1_555
Cd24 S40 1_555 1_555
Cd25 S25 1_555 1_555
Cd25 S34 1_555 1_555
Cd25 S37 1_555 1_555
Cd26 S46 1_555 1_555
Cd27 S21 1_555 1_555
Cd27 S23 1_555 1_555
Cd27 S35 1_555 1_555
Cd29 S47 1_555 1_555
Cd29 S48 1_555 1_555
Cd29 S49 1_555 1_555
Cd30 S30 1_555 1_555
Cd30 S32 1_555 1_555
Cd30 S44 1_555 1_555
Cd31 S45 1_555 1_555
Cd31 S55 1_555 1_555
Cd32 S38 1_555 1_555
Cd32 S43 1_555 1_555
C6 C7 1_555 1_555
C29 C81 1_555 1_555
C41 C45 1_555 1_555
C68 C114 1_555 1_555
C71 C88 1_555 1_555
C101 C122 1_555 1_555
C106 C113 1_555 1_555
C115 C142 1_555 1_555
C121 C132 1_555 1_555
C124 C127 1_555 1_555
C126 C174 1_555 1_555
C134 C144 1_555 1_555
C136 C172 1_555 1_555
C146 C152 1_555 1_555
C151 C205 1_555 1_555
C154 C158 1_555 1_555
C157 C194 1_555 1_555
C161 C170 1_555 1_555
C176 C183 1_555 1_555
C182 C208 1_555 1_555
C185 C209 1_555 1_555
C186 C235 1_555 1_555
C187 C206 1_555 1_555
C189 C190 1_555 1_555
C191 C195 1_555 1_555
C193 C196 1_555 1_555
C198 C202 1_555 1_555
C199 C246 1_555 1_555
C201 C243 1_555 1_555
C207 C249 1_555 1_555
C215 C222 1_555 1_555
C227 C231 1_555 1_555
C228 C236 1_555 1_555
C230 C255 1_555 1_555
C232 C247 1_555 1_555
C233 C254 1_555 1_555
C238 C239 1_555 1_555
C248 C251 1_555 1_555
C252 C256 1_555 1_555
C265 C272 1_555 1_555
C266 C267 1_555 1_555
C269 C271 1_555 1_555
N3C C173C 1_555 1_555
C29B C81B 1_555 1_555
C265B C272B 1_555 1_555

#END
