
#######################################################################
#
#                 Cambridge Crystallographic Data Centre
#                                CCDC 
#
#######################################################################
#
# If this CIF has been generated from an entry in the Cambridge 
# Structural Database, then it will include bibliographic, chemical, 
# crystal, experimental, refinement or atomic coordinate data resulting 
# from the CCDC's data processing and validation procedures.
#
#######################################################################

data_HEQREB
_symmetry_cell_setting           monoclinic
_symmetry_space_group_name_H-M   'P 21/c'
_symmetry_Int_Tables_number      14
_space_group_name_Hall           '-P 2ybc'
loop_
_symmetry_equiv_pos_site_id
_symmetry_equiv_pos_as_xyz
1 x,y,z
2 -x,1/2+y,1/2-z
3 -x,-y,-z
4 x,1/2-y,1/2+z
_cell_length_a                   22.6957(4)
_cell_length_b                   21.8142(4)
_cell_length_c                   57.6612(10)
_cell_angle_alpha                90
_cell_angle_beta                 93.2450(10)
_cell_angle_gamma                90
_cell_volume                     28501.6
loop_
_atom_site_label
_atom_site_type_symbol
_atom_site_fract_x
_atom_site_fract_y
_atom_site_fract_z
Cd1 Cd 0.35268(3) 0.26688(3) -0.116300(11)
Cd2 Cd 0.25274(3) 0.33158(3) -0.172170(11)
Cd3 Cd 0.17301(3) 0.25043(3) -0.120340(11)
Cd4 Cd 0.25069(3) 0.41453(3) -0.109790(11)
Cd5 Cd 0.43237(3) 0.35332(3) -0.169100(12)
Cd6 Cd 0.27235(3) 0.09846(3) -0.129350(12)
Cd7 Cd 0.34478(3) 0.35357(3) -0.052210(11)
Cd8 Cd 0.35932(3) 0.17837(3) -0.179160(12)
Cd9 Cd 0.27321(3) 0.18483(3) -0.063570(11)
Cd10 Cd 0.43532(3) 0.43176(3) -0.108650(12)
Cd11 Cd 0.45371(3) 0.21249(3) -0.059920(12)
Cd12 Cd 0.17429(3) 0.32360(3) -0.056050(12)
Cd13 Cd 0.33483(3) 0.50135(3) -0.158780(12)
Cd14 Cd 0.06984(3) 0.31468(3) -0.173990(12)
Cd15 Cd 0.14213(3) 0.47580(3) -0.167060(12)
Cd16 Cd 0.18483(3) 0.16278(3) -0.185700(12)
Cd17 Cd 0.07124(3) 0.40641(3) -0.114440(13)
Cd18 Cd 0.14691(3) 0.38460(4) -0.229150(12)
Cd19 Cd 0.32926(3) 0.42859(3) -0.222550(12)
Cd20 Cd 0.44653(3) 0.10753(3) -0.119330(12)
Cd21 Cd 0.28140(3) 0.24906(3) -0.234470(12)
Cd22 Cd 0.53461(3) 0.27782(3) -0.120370(12)
Cd23 Cd 0.10496(3) 0.15555(3) -0.067070(13)
Cd24 Cd 0.59229(3) 0.13688(3) -0.081720(12)
Cd25 Cd 0.20758(3) 0.59017(4) -0.118660(13)
Cd26 Cd 0.08575(3) 0.09548(4) -0.135900(13)
Cd27 Cd 0.15705(3) 0.50171(4) -0.060320(13)
Cd28 Cd -0.04717(3) 0.09781(4) -0.093010(13)
Cd29 Cd 0.25095(4) 0.38279(4) -0.280500(13)
Cd30 Cd -0.00827(3) 0.25133(4) -0.118560(13)
Cd31 Cd 0.21548(3) 0.66104(4) -0.053080(13)
Cd32 Cd 0.34010(3) 0.54341(3) -0.068530(13)
S1 S 0.26790(10) 0.19869(11) -0.10702(4)
S2 S 0.34957(10) 0.28167(11) -0.15959(4)
S3 S 0.34838(10) 0.36872(11) -0.09586(4)
S4 S 0.24397(10) 0.43521(11) -0.15312(4)
S5 S 0.16406(10) 0.35035(11) -0.09900(4)
S6 S 0.16800(10) 0.26214(11) -0.16372(4)
S7 S 0.45081(10) 0.21663(11) -0.10398(4)
S8 S 0.26897(11) 0.27946(11) -0.04020(4)
S9 S 0.08410(10) 0.18802(11) -0.10909(4)
S10 S 0.43425(11) 0.45567(11) -0.15058(4)
S11 S 0.27614(11) 0.10893(11) -0.17189(4)
S12 S 0.36170(11) 0.03770(12) -0.11185(4)
S13 S 0.25011(11) 0.34904(11) -0.21588(4)
S14 S 0.24124(10) 0.51427(11) -0.08758(4)
S15 S 0.14561(11) 0.49094(12) -0.21101(4)
S16 S 0.18657(12) 0.18880(12) -0.22896(4)
S17 S 0.63077(11) 0.22506(12) -0.10488(4)
S18 S 0.45921(11) 0.14213(12) -0.16087(4)
S19 S 0.32218(12) 0.52919(12) -0.20206(4)
S20 S 0.52515(11) 0.36881(12) -0.09332(4)
S21 S 0.44925(11) 0.31382(12) -0.04003(4)
S22 S 0.19849(11) 0.10197(11) -0.05291(4)
S23 S 0.54532(11) 0.15518(12) -0.04383(4)
S24 S 0.19034(12) 0.68783(13) -0.09462(5)
S25 S 0.08375(12) 0.25825(12) -0.04912(5)
S26 S 0.52871(11) 0.29199(12) -0.16370(4)
S27 S -0.01242(11) 0.34917(13) -0.09599(5)
S28 S 0.01178(12) 0.09784(13) -0.05472(5)
S29 S 0.32899(11) 0.46235(11) -0.03629(4)
S30 S 0.54637(11) 0.05447(12) -0.10691(4)
S31 S -0.00959(12) 0.23904(13) -0.16241(5)
S32 S 0.12466(12) 0.58156(12) -0.14907(4)
S33 S 0.16349(12) 0.41844(12) -0.03062(4)
S34 S 0.05379(11) 0.41683(12) -0.15703(4)
S35 S 0.37416(11) 0.13040(11) -0.06165(4)
S36 S 0.44107(12) 0.52642(12) -0.08210(4)
S37 S 0.37522(12) 0.19383(12) -0.22242(4)
S38 S 0.40798(11) 0.34874(12) -0.21325(4)
S39 S 0.09211(12) 0.09857(13) -0.17923(5)
S40 S 0.27303(12) 0.26973(13) -0.27861(4)
S41 S 0.32809(12) 0.45755(13) -0.26551(4)
S42 S 0.17717(11) 0.05367(13) -0.11309(4)
S43 S -0.10123(11) 0.19128(13) -0.10790(5)
S44 S 0.08702(11) 0.51276(12) -0.09585(5)
S45 S 0.14686(13) 0.59278(13) -0.03237(5)
S46 S 0.32496(12) 0.64623(12) -0.04771(4)
S47 S -0.00497(11) 0.03375(13) -0.12467(5)
S48 S 0.31319(13) 0.59493(13) -0.13289(5)
S49 S 0.14636(12) 0.40745(15) -0.27287(4)
S50 S 0.07790(13) 0.30302(14) -0.21764(5)
N1 N 0.6816(3) 0.1067(4) -0.06340(13)
N2 N 0.8056(4) 0.2449(4) 0.03647(15)
C1 C 0.7262(4) 0.1469(5) -0.06207(16)
C2 C 0.8412(5) 0.0667(5) -0.02183(17)
N3 N -0.2676(4) -0.1098(4) -0.18030(15)
C3 C 0.7782(4) 0.1360(5) -0.04830(17)
C4 C 0.7843(4) 0.0819(5) -0.03591(16)
N4 N -0.1237(4) 0.0291(5) -0.08746(15)
C5 C 0.1981(4) 0.1094(4) -0.02214(15)
C6 C 0.3592(4) 0.1220(5) -0.23567(17)
C7 C 0.5303(4) -0.0033(5) -0.08556(17)
C8 C 0.3762(4) 0.0780(4) -0.03828(15)
C9 C 0.3789(5) -0.0230(5) -0.1316(2)
C10 C 0.6582(4) 0.1766(5) -0.12695(16)
C11 C 0.1436(5) 0.6327(4) -0.17170(17)
C12 C 0.4957(5) 0.0097(5) -0.06698(18)
C13 C 0.1469(5) 0.0954(5) -0.01048(17)
C14 C 0.5992(4) 0.2102(4) -0.03401(16)
C15 C -0.0638(4) 0.0392(5) -0.14751(18)
C16 C 0.5867(4) 0.3441(5) -0.16884(17)
C17 C 0.2501(5) 0.1255(4) -0.00962(17)
C18 C 0.7387(5) 0.0411(5) -0.03712(17)
C19 C 0.4885(5) 0.4124(5) -0.23895(18)
C20 C 0.4096(5) 0.0884(5) -0.01764(16)
C21 C 0.5843(5) 0.4205(5) -0.09609(19)
C22 C 0.4763(5) 0.3575(5) -0.22718(16)
C23 C 0.8230(4) 0.1307(5) 0.01535(17)
C24 C -0.2105(6) -0.0584(7) -0.09008(18)
C25 C 0.8332(5) 0.2414(5) 0.01660(18)
C26 C -0.3093(5) -0.0720(5) -0.1732(2)
C27 C -0.1113(5) -0.0012(6) -0.14543(19)
C28 C 0.8432(5) 0.1854(5) 0.00574(19)
C29 C 0.6398(4) 0.1910(5) -0.01616(17)
C30 C 0.1966(5) 0.6255(5) -0.18293(17)
C31 C 0.4866(4) 0.0810(5) -0.17764(17)
C32 C 0.6870(4) 0.0543(5) -0.05141(16)
C33 C 0.4504(5) 0.2867(5) -0.01072(17)
C34 C 0.4230(5) -0.0650(5) -0.1236(2)
C35 C 0.3424(5) 0.0244(5) -0.04115(17)
C36 C 0.3449(5) 0.2712(5) -0.29026(17)
C37 C 0.6863(5) 0.2318(6) -0.00902(18)
C38 C 0.1126(5) 0.7032(5) -0.09723(19)
C39 C 0.8324(5) 0.0672(5) 0.00493(18)
C40 C 0.0293(4) 0.0183(5) -0.05271(18)
C41 C 0.0144(5) -0.0806(5) -0.0341(2)
C42 C 0.0891(5) 0.4085(5) -0.02246(19)
C43 C 0.6205(5) 0.1483(5) -0.14400(18)
C44 C -0.2249(5) 0.0028(7) -0.09608(19)
C45 C 0.0746(5) -0.0738(5) -0.06709(19)
C46 C 0.7186(5) 0.1662(5) -0.12642(19)
C47 C -0.1779(5) 0.0472(6) -0.09443(18)
C48 C -0.1298(5) 0.2315(7) -0.1704(2)
C49 C 0.5765(5) 0.3991(5) -0.18074(18)
C50 C -0.2599(6) -0.1086(8) -0.0903(2)
C51 C 0.0847(5) 0.2458(5) -0.01813(18)
C52 C 0.4843(5) -0.0386(5) -0.05167(18)
C53 C 0.7422(5) 0.1273(6) -0.1425(2)
C54 C 0.6040(5) 0.2681(5) -0.04451(17)
C55 C 0.0032(5) -0.0161(5) -0.0354(2)
C56 C -0.1567(5) 0.0383(6) -0.18142(19)
C57 C 0.2000(5) 0.1147(5) 0.02641(19)
C58 C 0.1479(5) 0.0980(5) 0.01363(18)
C59 C 0.1899(5) 0.1179(6) -0.24430(19)
C60 C 0.5077(5) -0.0961(5) -0.0543(2)
C61 C 0.1104(5) 0.3471(7) -0.28824(19)
C62 C 0.2520(5) 0.1285(5) 0.01506(18)
C63 C 0.7878(5) 0.1931(5) 0.04647(18)
C64 C -0.0618(5) 0.0773(5) -0.1658(2)
C65 C 0.5027(5) 0.0939(6) -0.20058(19)
C66 C -0.0800(5) 0.2679(5) -0.17447(19)
C67 C 0.2905(5) 0.5309(5) -0.26755(17)
C68 C 0.6450(5) 0.1089(6) -0.15994(19)
C69 C 0.3937(5) 0.2979(6) -0.2789(2)
C70 C -0.2925(5) -0.1021(6) -0.1338(2)
C71 C 0.5147(4) 0.3080(5) -0.22640(19)
C72 C 0.6931(5) 0.2885(6) -0.0193(2)
C73 C 0.4957(5) 0.0224(5) -0.16848(19)
C74 C 0.2398(5) 0.5414(5) -0.25610(18)
C75 C 0.3457(5) 0.7127(5) -0.06307(18)
C76 C 0.5521(5) -0.0615(5) -0.0892(2)
C77 C -0.1085(5) 0.0766(6) -0.1832(2)
C78 C 0.0314(5) 0.2317(5) -0.0090(2)
C79 C 0.2141(5) 0.6016(6) -0.2576(2)
C80 C 0.1044(6) 0.6765(6) -0.1788(2)
C81 C 0.1806(5) -0.0269(5) -0.1148(2)
C82 C 0.4109(5) 0.0437(6) 0.0000(2)
C83 C 0.0807(5) 0.3974(5) 0.00108(19)
C84 C 0.7049(5) 0.0961(5) -0.15916(18)
C85 C 0.0278(6) 0.2283(6) 0.0155(2)
C86 C 0.5420(6) 0.4163(6) -0.2492(2)
C87 C -0.1115(6) -0.0279(6) -0.0820(2)
C88 C -0.1583(5) 0.0016(6) -0.1626(2)
C89 C 0.1080(5) 0.0178(6) -0.18250(19)
C90 C -0.1127(5) 0.2754(5) -0.0449(2)
C91 C 0.5368(5) -0.0118(6) -0.2045(2)
C92 C 0.3782(6) -0.0094(6) -0.0026(2)
C93 C 0.5219(5) -0.0239(6) -0.1815(2)
C94 C -0.1533(6) -0.0750(7) -0.0840(2)
C95 C -0.3092(6) -0.1000(8) -0.1078(2)
C96 C 0.1356(5) 0.2547(5) -0.00358(18)
C97 C 0.4018(6) 0.2580(5) -0.00167(18)
C98 C -0.1251(4) 0.2346(5) -0.08402(18)
C99 C 0.4688(5) 0.5914(6) -0.0963(2)
C100 C 0.0788(5) 0.5243(5) -0.22152(18)
C101 C -0.1778(5) 0.2668(5) -0.0871(2)
C102 C 0.0492(5) -0.1083(6) -0.0501(2)
C103 C 0.5684(5) 0.3135(6) -0.2369(2)
C104 C 0.2102(5) 0.6659(6) -0.2009(2)
C105 C 0.4116(6) -0.1191(6) -0.1598(3)
C106 C 0.1909(5) 0.0627(6) -0.2331(2)
C107 C -0.0776(5) 0.3845(6) -0.1079(2)
C108 C 0.7947(5) 0.1344(5) 0.03630(19)
C109 C 0.3517(5) -0.0287(5) -0.1535(2)
C110 C 0.1351(6) -0.0605(5) -0.1258(2)
C111 C -0.2469(7) -0.1433(7) -0.1409(2)
C112 C 0.4383(5) -0.1130(6) -0.1384(3)
C113 C 0.1167(7) 0.7155(7) -0.1975(2)
C114 C -0.0924(5) 0.2394(5) -0.06277(18)
C115 C 0.0657(5) -0.0103(5) -0.06812(19)
C116 C 0.1335(7) 0.2505(6) 0.0204(2)
C117 C 0.0158(5) 0.5425(5) -0.0917(2)
C118 C 0.3167(6) 0.5759(5) -0.28107(18)
C119 C 0.4440(5) 0.5466(5) -0.2046(2)
C120 C 0.3878(5) 0.5655(5) -0.21204(18)
C121 C 0.3438(5) -0.0193(5) -0.0232(2)
C122 C 0.3803(5) 0.6141(5) -0.22731(19)
C123 C 0.1468(6) 0.5388(5) 0.0103(2)
C124 C 0.2435(5) 0.5697(5) -0.0012(2)
C125 C -0.0064(5) 0.5493(6) -0.0700(2)
C126 C 0.0416(5) 0.4077(5) -0.0382(2)
C127 C 0.6806(6) 0.4210(7) -0.1783(2)
C128 C 0.3512(5) 0.1208(6) -0.26043(19)
C129 C 0.3434(6) 0.0114(6) -0.2345(2)
C130 C 0.3390(6) 0.0642(6) -0.2712(2)
C131 C 0.0077(5) 0.3202(7) -0.2313(2)
C132 C 0.3347(6) 0.0106(6) -0.2585(2)
C133 C 0.1837(5) 0.5657(5) -0.0055(2)
C134 C 0.3211(6) 0.6620(6) -0.1507(2)
C135 C -0.2364(6) -0.1438(6) -0.1655(2)
C136 C 0.2894(6) 0.6336(6) -0.2830(2)
C137 C -0.0224(6) 0.3822(6) -0.0079(2)
C138 C 0.4858(6) 0.6250(6) -0.2280(2)
C139 C 0.5263(5) 0.0457(7) -0.2139(2)
C140 C -0.3229(5) -0.0666(7) -0.15005(19)
C141 C 0.3557(5) 0.0677(5) -0.22290(19)
C142 C 0.2690(6) 0.5497(6) 0.0210(2)
C143 C 0.5825(5) 0.3678(7) -0.2488(2)
C144 C 0.6513(5) 0.3075(5) -0.0370(2)
C145 C 0.5423(6) -0.1088(6) -0.0732(3)
C146 C 0.0613(7) -0.0214(6) -0.1888(2)
C147 C 0.1761(7) -0.0678(6) -0.1810(2)
C148 C 0.6231(6) 0.4383(6) -0.1856(2)
C149 C 0.4938(5) 0.5769(6) -0.2131(2)
C150 C 0.5025(6) 0.2961(7) 0.0034(2)
C151 C 0.3595(5) 0.7657(6) -0.0498(2)
C152 C 0.1731(7) 0.5197(7) 0.0319(2)
C153 C 0.2837(7) 0.7123(6) -0.1479(2)
C154 C 0.6448(5) 0.3269(6) -0.1613(2)
C155 C -0.1997(6) 0.3023(6) -0.0693(2)
C156 C 0.1642(6) -0.0042(5) -0.1784(2)
C157 C 0.4533(7) 0.2506(7) 0.0359(3)
C158 C -0.0825(5) 0.3220(6) -0.1869(2)
C159 C 0.0899(6) 0.7197(6) -0.1189(3)
C160 C 0.4297(7) 0.6437(6) -0.2353(2)
C161 C -0.1663(5) 0.3071(6) -0.0477(3)
C162 C 0.4494(6) 0.2989(7) -0.2887(2)
C163 C 0.0784(6) 0.2378(6) 0.0300(2)
C164 C 0.3793(5) 0.4742(6) -0.01230(17)
C165 C 0.2388(6) 0.6465(6) -0.2713(2)
C166 C 0.0721(6) 0.5369(6) -0.2456(2)
C167 C 0.6915(6) 0.3664(7) -0.1661(2)
C168 C -0.1853(6) 0.2513(7) -0.1800(2)
C169 C 0.2325(6) 0.5257(6) 0.0378(2)
C170 C 0.4024(6) 0.5316(7) -0.0079(2)
C171 C 0.3677(6) -0.0778(6) -0.1676(2)
C172 C 0.4055(8) 0.2396(6) 0.0222(2)
C173 C -0.0627(6) 0.5749(7) -0.0680(3)
C174 C 0.1873(6) 0.1209(7) -0.2687(2)
C175 C -0.0090(6) 0.3798(8) -0.2369(3)
C176 C 0.3504(6) 0.2428(7) -0.3113(2)
C177 C 0.0251(6) 0.3846(6) 0.0084(2)
C178 C 0.3691(10) 0.7150(8) -0.1815(3)
C179 C -0.0151(6) 0.3951(6) -0.0311(2)
C180 C 0.4544(7) 0.2714(8) -0.3097(2)
C181 C 0.3756(6) 0.8202(7) -0.0613(4)
C182 C 0.3643(8) 0.6627(7) -0.1671(3)
C183 C 0.0863(6) 0.3623(9) -0.3109(2)
C184 C 0.1296(8) -0.1076(7) -0.1870(3)
C185 C 0.0741(8) -0.0847(7) -0.1918(3)
C186 C 0.1052(6) 0.2882(7) -0.2793(2)
C187 C 0.0782(6) 0.6988(7) -0.0780(3)
C188 C -0.0668(7) 0.3898(9) -0.2497(3)
C189 C 0.0353(7) 0.5406(7) -0.2064(3)
C190 C 0.1728(7) 0.7119(6) -0.2076(2)
C191 C -0.1391(6) 0.3395(8) -0.1968(2)
C192 C 0.2877(8) 0.7645(7) -0.1625(3)
C193 C -0.0169(7) 0.5589(9) -0.1122(3)
C194 C -0.0271(7) 0.2678(9) -0.2357(3)
C195 C 0.4423(7) 0.5417(8) 0.0119(2)
C196 C 0.1855(7) 0.0066(7) -0.2453(3)
C197 C 0.0747(7) 0.2405(9) -0.2923(3)
C198 C 0.3310(9) 0.7639(8) -0.1789(3)
C199 C -0.1883(6) 0.3059(8) -0.1942(2)
C200 C -0.0055(7) 0.7379(9) -0.1023(3)
C201 C 0.1825(7) 0.0657(9) -0.2817(3)
C202 C 0.2325(7) -0.0537(7) -0.1032(3)
C203 C 0.0290(8) 0.7360(9) -0.1213(3)
C204 C -0.0276(7) 0.5789(9) -0.2396(3)
C205 C 0.1822(7) 0.0094(9) -0.2693(4)
C206 C -0.0836(8) 0.2760(10) -0.2461(3)
C207 C 0.0179(8) 0.5650(8) -0.2546(3)
C208 C -0.1083(7) 0.4213(8) -0.0927(3)
C209 C 0.3937(8) 0.4247(7) 0.0015(2)
C210 C -0.0197(8) 0.5669(10) -0.2158(3)
C211 C 0.6754(7) 0.5049(8) -0.0985(3)
C212 C 0.1393(7) -0.1263(6) -0.1263(3)
C213 C 0.3506(7) 0.7141(8) -0.0866(2)
C214 C 0.1892(9) -0.1542(8) -0.1157(4)
C215 C 0.0179(7) 0.7140(8) -0.0802(3)
C216 C 0.2357(8) -0.1189(8) -0.1047(4)
C217 C 0.4056(7) 0.2425(9) -0.3214(3)
C218 C 0.6411(7) 0.5042(9) -0.0800(3)
C219 C -0.1634(8) 0.4468(10) -0.1022(4)
C220 C 0.5184(11) 0.6934(9) -0.1174(5)
C221 C -0.0733(7) 0.5862(10) -0.1108(4)
C222 C -0.0975(8) 0.5934(9) -0.0884(4)
C223 C 0.3662(9) 0.7687(11) -0.0973(3)
C224 C -0.1807(9) 0.4420(12) -0.1253(5)
C225 C 0.4965(13) 0.6480(12) -0.1306(3)
C226 C 0.5975(8) 0.4611(9) -0.0788(3)
C227 C -0.1475(9) 0.4093(13) -0.1397(4)
C228 C -0.0966(8) 0.3787(10) -0.1310(4)
C229 C 0.4759(15) 0.5937(12) -0.1197(3)
C230 C 0.4817(15) 0.6400(9) -0.0853(5)
C231 C 0.515(2) 0.6889(12) -0.0958(6)
C232 C 0.5012(7) 0.2756(7) 0.0272(2)
C233 C 0.3802(9) 0.8191(10) -0.0844(4)
C234 C -0.1005(9) 0.3374(9) -0.2539(3)
C235 C 0.6136(11) 0.4240(14) -0.1143(4)
C236 C 0.0584(9) 0.3138(12) -0.3243(3)
C237 C 0.0537(8) 0.2551(10) -0.3150(3)
C238 C 0.4562(9) 0.4935(11) 0.0267(3)
C239 C 0.4357(9) 0.4378(9) 0.0227(3)
C240 C 0.6547(13) 0.4724(15) -0.1170(5)
Cd29A Cd -0.25095(4) -0.11721(4) -0.219500(13)
Cd31B Cd 0.78452(3) 0.33896(4) 0.053080(13)
N2B N 0.1944(4) 0.7551(4) -0.03647(15)
N3A N 0.2676(4) 0.3902(4) -0.31970(15)
loop_
_geom_bond_atom_site_label_1
_geom_bond_atom_site_label_2
_geom_bond_site_symmetry_1
_geom_bond_site_symmetry_2
Cd1 S1 1_555 1_555
Cd2 S2 1_555 1_555
Cd3 S1 1_555 1_555
Cd4 S3 1_555 1_555
Cd5 S2 1_555 1_555
Cd6 S1 1_555 1_555
Cd7 S3 1_555 1_555
Cd8 S2 1_555 1_555
Cd9 S1 1_555 1_555
Cd10 S3 1_555 1_555
Cd11 S7 1_555 1_555
Cd12 S5 1_555 1_555
Cd13 S4 1_555 1_555
Cd14 S6 1_555 1_555
Cd15 S4 1_555 1_555
Cd16 S6 1_555 1_555
Cd17 S5 1_555 1_555
Cd18 S13 1_555 1_555
Cd19 S13 1_555 1_555
Cd20 S7 1_555 1_555
Cd21 S13 1_555 1_555
Cd22 S7 1_555 1_555
Cd23 S9 1_555 1_555
Cd24 S17 1_555 1_555
Cd25 S14 1_555 1_555
Cd26 S9 1_555 1_555
Cd27 S14 1_555 1_555
Cd28 S28 1_555 1_555
Cd29 S40 1_555 1_555
Cd30 S9 1_555 1_555
Cd31 S24 1_555 1_555
Cd32 S14 1_555 1_555
S2 Cd1 1_555 1_555
S3 Cd1 1_555 1_555
S4 Cd2 1_555 1_555
S5 Cd3 1_555 1_555
S6 Cd2 1_555 1_555
S7 Cd1 1_555 1_555
S8 Cd7 1_555 1_555
S9 Cd3 1_555 1_555
S10 Cd5 1_555 1_555
S11 Cd6 1_555 1_555
S12 Cd6 1_555 1_555
S13 Cd2 1_555 1_555
S14 Cd4 1_555 1_555
S15 Cd15 1_555 1_555
S16 Cd16 1_555 1_555
S17 Cd22 1_555 1_555
S18 Cd8 1_555 1_555
S19 Cd13 1_555 1_555
S20 Cd10 1_555 1_555
S21 Cd7 1_555 1_555
S22 Cd9 1_555 1_555
S23 Cd11 1_555 1_555
S24 Cd25 1_555 1_555
S25 Cd12 1_555 1_555
S26 Cd5 1_555 1_555
S27 Cd17 1_555 1_555
S28 Cd23 1_555 1_555
S29 Cd7 1_555 1_555
S30 Cd20 1_555 1_555
S31 Cd14 1_555 1_555
S32 Cd15 1_555 1_555
S33 Cd12 1_555 1_555
S34 Cd14 1_555 1_555
S35 Cd9 1_555 1_555
S36 Cd10 1_555 1_555
S37 Cd8 1_555 1_555
S38 Cd5 1_555 1_555
S39 Cd16 1_555 1_555
S40 Cd21 1_555 1_555
S41 Cd19 1_555 1_555
S42 Cd6 1_555 1_555
S43 Cd28 1_555 1_555
S44 Cd17 1_555 1_555
S45 Cd27 1_555 1_555
S46 Cd31 1_555 1_555
S47 Cd26 1_555 1_555
S48 Cd13 1_555 1_555
S49 Cd18 1_555 1_555
S50 Cd14 1_555 1_555
N1 Cd24 1_555 1_555
N2 C25 1_555 1_555
C1 N1 1_555 1_555
C2 C4 1_555 1_555
N3 C26 1_555 1_555
C3 C1 1_555 1_555
C4 C3 1_555 1_555
N4 Cd28 1_555 1_555
C5 S22 1_555 1_555
C6 S37 1_555 1_555
C7 S30 1_555 1_555
C8 S35 1_555 1_555
C9 S12 1_555 1_555
C10 S17 1_555 1_555
C11 S32 1_555 1_555
C12 C7 1_555 1_555
C13 C5 1_555 1_555
C14 S23 1_555 1_555
C15 S47 1_555 1_555
C16 S26 1_555 1_555
C17 C5 1_555 1_555
C18 C4 1_555 1_555
C19 C22 1_555 1_555
C20 C8 1_555 1_555
C21 S20 1_555 1_555
C22 S38 1_555 1_555
C23 C28 1_555 1_555
C24 C44 1_555 1_555
C25 C28 1_555 1_555
C26 C140 1_555 1_555
C27 C15 1_555 1_555
C29 C14 1_555 1_555
C30 C11 1_555 1_555
C31 S18 1_555 1_555
C32 N1 1_555 1_555
C33 S21 1_555 1_555
C34 C9 1_555 1_555
C35 C8 1_555 1_555
C36 S40 1_555 1_555
C37 C29 1_555 1_555
C38 S24 1_555 1_555
C39 C2 1_555 1_555
C40 S28 1_555 1_555
C41 C55 1_555 1_555
C42 S33 1_555 1_555
C43 C10 1_555 1_555
C44 C47 1_555 1_555
C45 C102 1_555 1_555
C46 C10 1_555 1_555
C47 N4 1_555 1_555
C48 C66 1_555 1_555
C49 C16 1_555 1_555
C50 C24 1_555 1_555
C51 S25 1_555 1_555
C52 C12 1_555 1_555
C53 C46 1_555 1_555
C54 C14 1_555 1_555
C55 C40 1_555 1_555
C56 C77 1_555 1_555
C57 C58 1_555 1_555
C58 C13 1_555 1_555
C59 S16 1_555 1_555
C60 C52 1_555 1_555
C61 S49 1_555 1_555
C62 C17 1_555 1_555
C63 N2 1_555 1_555
C64 C15 1_555 1_555
C65 C31 1_555 1_555
C66 S31 1_555 1_555
C67 S41 1_555 1_555
C68 C43 1_555 1_555
C69 C36 1_555 1_555
C70 C95 1_555 1_555
C71 C22 1_555 1_555
C72 C37 1_555 1_555
C73 C31 1_555 1_555
C74 C67 1_555 1_555
C75 S46 1_555 1_555
C76 C7 1_555 1_555
C77 C64 1_555 1_555
C78 C51 1_555 1_555
C79 C74 1_555 1_555
C80 C11 1_555 1_555
C81 S42 1_555 1_555
C82 C20 1_555 1_555
C83 C42 1_555 1_555
C84 C53 1_555 1_555
C85 C78 1_555 1_555
C86 C19 1_555 1_555
C87 N4 1_555 1_555
C88 C27 1_555 1_555
C89 S39 1_555 1_555
C90 C114 1_555 1_555
C91 C93 1_555 1_555
C92 C82 1_555 1_555
C93 C73 1_555 1_555
C94 C24 1_555 1_555
C95 C50 1_555 1_555
C96 C51 1_555 1_555
C97 C33 1_555 1_555
C98 S43 1_555 1_555
C99 S36 1_555 1_555
C100 S15 1_555 1_555
C101 C98 1_555 1_555
C102 C41 1_555 1_555
C103 C71 1_555 1_555
C104 C30 1_555 1_555
C105 C112 1_555 1_555
C106 C59 1_555 1_555
C107 S27 1_555 1_555
C108 C23 1_555 1_555
C109 C9 1_555 1_555
C110 C81 1_555 1_555
C111 C70 1_555 1_555
C112 C34 1_555 1_555
C113 C80 1_555 1_555
C114 C98 1_555 1_555
C115 C40 1_555 1_555
C116 C96 1_555 1_555
C117 S44 1_555 1_555
C118 C67 1_555 1_555
C119 C120 1_555 1_555
C120 S19 1_555 1_555
C121 C35 1_555 1_555
C122 C120 1_555 1_555
C123 C133 1_555 1_555
C124 C133 1_555 1_555
C125 C117 1_555 1_555
C126 C42 1_555 1_555
C127 C148 1_555 1_555
C128 C6 1_555 1_555
C129 C132 1_555 1_555
C130 C128 1_555 1_555
C131 S50 1_555 1_555
C132 C130 1_555 1_555
C133 S45 1_555 1_555
C134 S48 1_555 1_555
C135 N3 1_555 1_555
C136 C118 1_555 1_555
C137 C177 1_555 1_555
C138 C149 1_555 1_555
C139 C65 1_555 1_555
C140 C70 1_555 1_555
C141 C6 1_555 1_555
C142 C124 1_555 1_555
C143 C86 1_555 1_555
C144 C54 1_555 1_555
C145 C60 1_555 1_555
C146 C89 1_555 1_555
C147 C156 1_555 1_555
C148 C49 1_555 1_555
C149 C119 1_555 1_555
C150 C33 1_555 1_555
C151 C75 1_555 1_555
C152 C123 1_555 1_555
C153 C134 1_555 1_555
C154 C16 1_555 1_555
C155 C101 1_555 1_555
C156 C89 1_555 1_555
C157 C172 1_555 1_555
C158 C66 1_555 1_555
C159 C38 1_555 1_555
C160 C122 1_555 1_555
C161 C90 1_555 1_555
C162 C69 1_555 1_555
C163 C85 1_555 1_555
C164 S29 1_555 1_555
C165 C79 1_555 1_555
C166 C100 1_555 1_555
C167 C127 1_555 1_555
C168 C48 1_555 1_555
C169 C142 1_555 1_555
C170 C164 1_555 1_555
C171 C105 1_555 1_555
C172 C97 1_555 1_555
C173 C125 1_555 1_555
C174 C59 1_555 1_555
C175 C131 1_555 1_555
C176 C36 1_555 1_555
C177 C83 1_555 1_555
C178 C182 1_555 1_555
C179 C126 1_555 1_555
C180 C162 1_555 1_555
C181 C151 1_555 1_555
C182 C134 1_555 1_555
C183 C61 1_555 1_555
C184 C147 1_555 1_555
C185 C146 1_555 1_555
C186 C61 1_555 1_555
C187 C38 1_555 1_555
C188 C175 1_555 1_555
C189 C100 1_555 1_555
C190 C104 1_555 1_555
C191 C158 1_555 1_555
C192 C153 1_555 1_555
C193 C117 1_555 1_555
C194 C131 1_555 1_555
C195 C170 1_555 1_555
C196 C106 1_555 1_555
C197 C186 1_555 1_555
C198 C178 1_555 1_555
C199 C168 1_555 1_555
C200 C203 1_555 1_555
C201 C174 1_555 1_555
C202 C81 1_555 1_555
C203 C159 1_555 1_555
C204 C207 1_555 1_555
C205 C196 1_555 1_555
C206 C194 1_555 1_555
C207 C166 1_555 1_555
C208 C107 1_555 1_555
C209 C164 1_555 1_555
C210 C189 1_555 1_555
C211 C218 1_555 1_555
C212 C110 1_555 1_555
C213 C75 1_555 1_555
C214 C212 1_555 1_555
C215 C187 1_555 1_555
C216 C202 1_555 1_555
C217 C176 1_555 1_555
C218 C226 1_555 1_555
C219 C208 1_555 1_555
C220 C225 1_555 1_555
C221 C193 1_555 1_555
C222 C173 1_555 1_555
C223 C213 1_555 1_555
C224 C219 1_555 1_555
C225 C229 1_555 1_555
C226 C21 1_555 1_555
C227 C224 1_555 1_555
C228 C107 1_555 1_555
C229 C99 1_555 1_555
C230 C99 1_555 1_555
C231 C220 1_555 1_555
C232 C150 1_555 1_555
C233 C181 1_555 1_555
C234 C188 1_555 1_555
C235 C21 1_555 1_555
C236 C183 1_555 1_555
C237 C197 1_555 1_555
C238 C195 1_555 1_555
C239 C209 1_555 1_555
C240 C211 1_555 1_555
Cd29A N3 1_555 1_555
Cd31B N2 1_555 1_555
N2B Cd31 1_555 1_555
N3A Cd29 1_555 1_555
Cd3 S6 1_555 1_555
Cd4 S4 1_555 1_555
Cd4 S5 1_555 1_555
Cd8 S11 1_555 1_555
Cd9 S8 1_555 1_555
Cd10 S10 1_555 1_555
Cd11 S21 1_555 1_555
Cd11 S35 1_555 1_555
Cd12 S8 1_555 1_555
Cd13 S10 1_555 1_555
Cd15 S34 1_555 1_555
Cd16 S11 1_555 1_555
Cd17 S34 1_555 1_555
Cd18 S15 1_555 1_555
Cd18 S50 1_555 1_555
Cd19 S19 1_555 1_555
Cd19 S38 1_555 1_555
Cd20 S12 1_555 1_555
Cd20 S18 1_555 1_555
Cd21 S16 1_555 1_555
Cd21 S37 1_555 1_555
Cd22 S20 1_555 1_555
Cd22 S26 1_555 1_555
Cd23 S22 1_555 1_555
Cd23 S25 1_555 1_555
Cd24 S23 1_555 1_555
Cd24 S30 1_555 1_555
Cd25 S32 1_555 1_555
Cd25 S48 1_555 1_555
Cd26 S39 1_555 1_555
Cd26 S42 1_555 1_555
Cd27 S33 1_555 1_555
Cd27 S44 1_555 1_555
Cd28 S47 1_555 1_555
Cd29 S41 1_555 1_555
Cd29 S49 1_555 1_555
Cd30 S27 1_555 1_555
Cd30 S31 1_555 1_555
Cd30 S43 1_555 1_555
Cd31 S45 1_555 1_555
Cd32 S29 1_555 1_555
Cd32 S36 1_555 1_555
Cd32 S46 1_555 1_555
C18 C32 1_555 1_555
C23 C39 1_555 1_555
C45 C115 1_555 1_555
C56 C88 1_555 1_555
C57 C62 1_555 1_555
C63 C108 1_555 1_555
C68 C84 1_555 1_555
C72 C144 1_555 1_555
C76 C145 1_555 1_555
C87 C94 1_555 1_555
C91 C139 1_555 1_555
C92 C121 1_555 1_555
C103 C143 1_555 1_555
C109 C171 1_555 1_555
C111 C135 1_555 1_555
C113 C190 1_555 1_555
C116 C163 1_555 1_555
C129 C141 1_555 1_555
C136 C165 1_555 1_555
C137 C179 1_555 1_555
C138 C160 1_555 1_555
C152 C169 1_555 1_555
C154 C167 1_555 1_555
C155 C161 1_555 1_555
C157 C232 1_555 1_555
C180 C217 1_555 1_555
C184 C185 1_555 1_555
C191 C199 1_555 1_555
C192 C198 1_555 1_555
C200 C215 1_555 1_555
C201 C205 1_555 1_555
C204 C210 1_555 1_555
C206 C234 1_555 1_555
C214 C216 1_555 1_555
C221 C222 1_555 1_555
C223 C233 1_555 1_555
C227 C228 1_555 1_555
C230 C231 1_555 1_555
C235 C240 1_555 1_555
C236 C237 1_555 1_555
C238 C239 1_555 1_555

#END
