
#######################################################################
#
#                 Cambridge Crystallographic Data Centre
#                                CCDC 
#
#######################################################################
#
# If this CIF has been generated from an entry in the Cambridge 
# Structural Database, then it will include bibliographic, chemical, 
# crystal, experimental, refinement or atomic coordinate data resulting 
# from the CCDC's data processing and validation procedures.
#
#######################################################################

data_HERDOX
_symmetry_cell_setting           monoclinic
_symmetry_space_group_name_H-M   'C 2/c'
_symmetry_Int_Tables_number      15
_space_group_name_Hall           '-C 2yn'
loop_
_symmetry_equiv_pos_site_id
_symmetry_equiv_pos_as_xyz
1 x,y,z
2 1/2+x,1/2+y,z
3 -x,y,1/2-z
4 1/2-x,1/2+y,1/2-z
5 -x,-y,-z
6 1/2-x,1/2-y,-z
7 x,-y,1/2+z
8 1/2+x,1/2-y,1/2+z
_cell_length_a                   12.288(1)
_cell_length_b                   14.759(2)
_cell_length_c                   6.149(1)
_cell_angle_alpha                90
_cell_angle_beta                 94.24(1)
_cell_angle_gamma                90
_cell_volume                     1112.12
loop_
_atom_site_label
_atom_site_type_symbol
_atom_site_fract_x
_atom_site_fract_y
_atom_site_fract_z
Pb1 Pb 0.0000 0.1136(1) 0.2500
O1 O 0.1129(6) -0.0350(5) 0.1143(14)
O2 O -0.1201(7) 0.2379(5) 0.0786(13)
C1 C -0.1310(8) 0.2727(7) -0.1069(18)
C2 C -0.1213(8) 0.2428(7) -0.3318(17)
O3 O -0.1045(6) 0.1666(5) -0.4212(13)
C3 C -0.1382(8) 0.3356(8) -0.4030(18)
N1 N -0.1346(10) 0.3759(6) -0.5978(20)
C4 C -0.1558(9) 0.3636(8) -0.1893(20)
O4 O -0.1839(8) 0.4372(6) -0.1036(15)
O1D O -0.1129(6) 0.0350(5) -0.1143(14)
O1B O -0.1129(6) -0.0350(5) 0.3857(14)
O1F O 0.1129(6) 0.0350(5) 0.6143(14)
O2B O 0.1201(7) 0.2379(5) 0.4214(13)
O3B O 0.1045(6) 0.1666(5) -0.0788(13)
Pb1D Pb 0.0000 -0.1136(1) -0.2500
O3_2 O -0.1045(6) 0.1666(5) 0.5788(13)
C1B C 0.1310(8) 0.2727(7) 0.6069(18)
C2B C 0.1213(8) 0.2428(7) 0.8318(17)
C4B C 0.1558(9) 0.3636(8) 0.6893(20)
C3B C 0.1382(8) 0.3356(8) 0.9030(18)
O4B O 0.1839(8) 0.4372(6) 0.6036(15)
Pb1_2 Pb 0.0000 0.1136(1) -0.7500
O3B_2 O 0.1045(6) 0.1666(5) 0.9212(13)
N1B N 0.1346(10) 0.3759(6) 1.0978(20)
Pb1_3 Pb 0.0000 0.1136(1) 1.2500
loop_
_geom_bond_atom_site_label_1
_geom_bond_atom_site_label_2
_geom_bond_site_symmetry_1
_geom_bond_site_symmetry_2
Pb1 O1 1_555 1_555
O1 Pb1D 1_555 1_555
O2 Pb1 1_555 1_555
C1 O2 1_555 1_555
C2 C1 1_555 1_555
O3 C2 1_555 1_555
C3 C2 1_555 1_555
N1 C3 1_555 1_555
C4 C1 1_555 1_555
O4 C4 1_555 1_555
O1D Pb1 1_555 1_555
O1B Pb1 1_555 1_555
O1F Pb1 1_555 1_555
O2B Pb1 1_555 1_555
O3B Pb1 1_555 1_555
Pb1D O1D 1_555 1_555
O3_2 Pb1 1_555 1_555
C1B O2B 1_555 1_555
C2B C1B 1_555 1_555
C4B C1B 1_555 1_555
C3B C2B 1_555 1_555
O4B C4B 1_555 1_555
Pb1_2 O3 1_555 1_555
O3B_2 C2B 1_555 1_555
N1B C3B 1_555 1_555
Pb1_3 O3B_2 1_555 1_555
C3 C4 1_555 1_555
C4B C3B 1_555 1_555

#END
