
#######################################################################
#
#                 Cambridge Crystallographic Data Centre
#                                CCDC 
#
#######################################################################
#
# If this CIF has been generated from an entry in the Cambridge 
# Structural Database, then it will include bibliographic, chemical, 
# crystal, experimental, refinement or atomic coordinate data resulting 
# from the CCDC's data processing and validation procedures.
#
#######################################################################

data_HERDOY
_symmetry_cell_setting           monoclinic
_symmetry_space_group_name_H-M   'P 21/c'
_symmetry_Int_Tables_number      14
_space_group_name_Hall           '-P 2ybc'
loop_
_symmetry_equiv_pos_site_id
_symmetry_equiv_pos_as_xyz
1 x,y,z
2 -x,1/2+y,1/2-z
3 -x,-y,-z
4 x,1/2-y,1/2+z
_cell_length_a                   9.276(4)
_cell_length_b                   19.754(8)
_cell_length_c                   7.368(3)
_cell_angle_alpha                90
_cell_angle_beta                 93.172(9)
_cell_angle_gamma                90
_cell_volume                     1348.03
loop_
_atom_site_label
_atom_site_type_symbol
_atom_site_fract_x
_atom_site_fract_y
_atom_site_fract_z
Fe1 Fe 0.02303(11) 0.36141(5) 0.33234(15)
Cl1 Cl 0.1386(2) 0.27236(10) 0.2316(3)
Cl2 Cl 0.0109(2) 0.39587(10) 0.6177(3)
Cl3 Cl -0.0963(2) 0.42595(11) 0.1297(3)
N1 N 0.2175(6) 0.4206(3) 0.3119(8)
N2 N 0.4549(6) 0.4427(3) 0.3324(9)
N3 N 0.3781(6) 0.4978(3) 0.2668(8)
N4 N 0.3664(6) 0.6119(3) 0.1895(8)
N5 N 0.3399(6) 0.7258(3) 0.1171(8)
N6 N 0.4012(6) 0.7867(3) 0.0777(9)
N7 N 0.1688(6) 0.7989(3) 0.1366(8)
C1 C 0.3544(8) 0.3986(4) 0.3566(11)
H1 H 0.3740 0.3553 0.4010
C2 C 0.2367(8) 0.4836(4) 0.2561(10)
H2 H 0.1638 0.5132 0.2161
C3 C 0.4493(8) 0.5571(4) 0.2083(10)
C4 C 0.5952(8) 0.5554(4) 0.1766(10)
H3 H 0.6499 0.5163 0.1956
C5 C 0.6548(8) 0.6142(4) 0.1158(10)
H4 H 0.7521 0.6151 0.0915
C6 C 0.5733(7) 0.6717(4) 0.0903(10)
H5 H 0.6123 0.7118 0.0488
C7 C 0.4297(7) 0.6664(3) 0.1300(9)
C8 C 0.2946(8) 0.8289(4) 0.0911(10)
H6 H 0.3033 0.8752 0.0716
C9 C 0.2024(8) 0.7349(4) 0.1534(10)
H7 H 0.1397 0.7009 0.1859
Fe1A Fe -0.02303(11) 0.86141(5) 0.16766(15)
N7A N -0.1688(6) 0.2989(3) 0.3634(8)
loop_
_geom_bond_atom_site_label_1
_geom_bond_atom_site_label_2
_geom_bond_site_symmetry_1
_geom_bond_site_symmetry_2
Fe1 Cl1 1_555 1_555
Cl2 Fe1 1_555 1_555
Cl3 Fe1 1_555 1_555
N1 Fe1 1_555 1_555
N2 N3 1_555 1_555
N3 C2 1_555 1_555
N4 C3 1_555 1_555
N5 N6 1_555 1_555
N6 C8 1_555 1_555
N7 C8 1_555 1_555
C1 N1 1_555 1_555
H1 C1 1_555 1_555
C2 N1 1_555 1_555
H2 C2 1_555 1_555
C3 N3 1_555 1_555
C4 C3 1_555 1_555
H3 C4 1_555 1_555
C5 C4 1_555 1_555
H4 C5 1_555 1_555
C6 C5 1_555 1_555
H5 C6 1_555 1_555
C7 N4 1_555 1_555
C8 H6 1_555 1_555
C9 N5 1_555 1_555
H7 C9 1_555 1_555
Fe1A N7 1_555 1_555
N7A Fe1 1_555 1_555
N2 C1 1_555 1_555
N5 C7 1_555 1_555
N7 C9 1_555 1_555
C6 C7 1_555 1_555

#END
