
#######################################################################
#
#                 Cambridge Crystallographic Data Centre
#                                CCDC 
#
#######################################################################
#
# If this CIF has been generated from an entry in the Cambridge 
# Structural Database, then it will include bibliographic, chemical, 
# crystal, experimental, refinement or atomic coordinate data resulting 
# from the CCDC's data processing and validation procedures.
#
#######################################################################

data_HERNUO
_symmetry_cell_setting           triclinic
_symmetry_space_group_name_H-M   'P -1'
_symmetry_Int_Tables_number      2
_space_group_name_Hall           '-P 1'
loop_
_symmetry_equiv_pos_site_id
_symmetry_equiv_pos_as_xyz
1 x,y,z
2 -x,-y,-z
_cell_length_a                   8.952(13)
_cell_length_b                   9.096(10)
_cell_length_c                   10.114(12)
_cell_angle_alpha                81.39(3)
_cell_angle_beta                 86.47(4)
_cell_angle_gamma                88.22(4)
_cell_volume                     812.531
loop_
_atom_site_label
_atom_site_type_symbol
_atom_site_fract_x
_atom_site_fract_y
_atom_site_fract_z
Br1 Br -0.32803(16) 0.40258(18) 0.36261(14)
Cu1 Cu 0.5000 0.0000 0.0000
Cl1 Cl 0.5421(5) 0.3031(4) -0.1327(4)
N1 N 0.3219(11) 0.2059(13) 0.3193(11)
N2 N 0.4207(10) 0.0732(12) 0.1722(10)
N3 N 0.0839(12) 0.0895(13) 0.8481(10)
N4 N 0.2968(11) 0.0033(14) 0.9274(10)
C1 C 0.1201(13) 0.3189(12) 0.4516(12)
C2 C 0.1089(12) 0.2661(11) 0.5874(12)
H1 H 0.1961 0.2420 0.6359
C3 C -0.0332(14) 0.2493(12) 0.6512(12)
C4 C -0.1602(13) 0.2936(13) 0.5832(12)
H2 H -0.2542 0.2896 0.6324
C5 C -0.1573(13) 0.3401(14) 0.4561(14)
C6 C -0.0121(14) 0.3544(12) 0.3792(11)
H3 H -0.0063 0.3859 0.2851
C7 C 0.2664(10) 0.3444(10) 0.3774(9)
H4 H 0.3403 0.3710 0.4383
H5 H 0.2569 0.4287 0.3039
C8 C 0.3585(11) 0.2057(13) 0.1895(12)
H6 H 0.3431 0.2865 0.1202
C9 C 0.4179(13) -0.0046(13) 0.2998(16)
H7 H 0.4552 -0.1038 0.3199
C10 C 0.3571(14) 0.0734(16) 0.3934(12)
H8 H 0.3425 0.0435 0.4873
C11 C -0.0360(11) 0.1883(12) 0.8005(12)
H9 H -0.0384 0.2741 0.8504
H10 H -0.1311 0.1355 0.8245
C12 C 0.2030(16) 0.1073(15) 0.9096(11)
H11 H 0.2188 0.1987 0.9409
C13 C 0.2338(16) -0.1128(15) 0.8704(12)
H12 H 0.2768 -0.2082 0.8628
C14 C 0.1043(17) -0.0600(14) 0.8310(11)
H13 H 0.0327 -0.1158 0.7953
Br1A Br 1.32803(16) -0.40258(18) -0.36261(14)
Cu1_2 Cu 0.5000 0.0000 1.0000
Cu1_3 Cu 0.5000 0.0000 -1.0000
Cl1A Cl 0.4579(5) -0.3031(4) 0.1327(4)
N1A N 0.6781(11) -0.2059(13) -0.3193(11)
N2A N 0.5793(10) -0.0732(12) -0.1722(10)
N3A N 0.9161(12) -0.0895(13) -0.8481(10)
N4A N 0.7032(11) -0.0033(14) -0.9274(10)
N4_2 N 0.2968(11) 0.0033(14) -0.0726(10)
N4A_2 N 0.7032(11) -0.0033(14) 0.0726(10)
C1A C 0.8799(13) -0.3189(12) -0.4516(12)
C2A C 0.8911(12) -0.2661(11) -0.5874(12)
H1A H 0.8039 -0.2420 -0.6359
C3A C 1.0332(14) -0.2493(12) -0.6512(12)
C4A C 1.1602(13) -0.2936(13) -0.5832(12)
H2A H 1.2542 -0.2896 -0.6324
C5A C 1.1573(13) -0.3401(14) -0.4561(14)
C6A C 1.0121(14) -0.3544(12) -0.3792(11)
H3A H 1.0063 -0.3859 -0.2851
C7A C 0.7336(10) -0.3444(10) -0.3774(9)
H4A H 0.6597 -0.3710 -0.4383
H5A H 0.7431 -0.4287 -0.3039
C8A C 0.6415(11) -0.2057(13) -0.1895(12)
H6A H 0.6569 -0.2865 -0.1202
C9A C 0.5821(13) 0.0046(13) -0.2998(16)
H7A H 0.5448 0.1038 -0.3199
C10A C 0.6429(14) -0.0734(16) -0.3934(12)
H8A H 0.6575 -0.0435 -0.4873
C11A C 1.0360(11) -0.1883(12) -0.8005(12)
H9A H 1.0384 -0.2741 -0.8504
H10A H 1.1311 -0.1355 -0.8245
C12A C 0.7970(16) -0.1073(15) -0.9096(11)
H11A H 0.7812 -0.1987 -0.9409
C13A C 0.7662(16) 0.1128(15) -0.8704(12)
H12A H 0.7232 0.2082 -0.8628
C14A C 0.8957(17) 0.0600(14) -0.8310(11)
H13A H 0.9673 0.1158 -0.7953
O1 O 0.3033(16) 0.5173(14) 0.9805(13)
Cl2? Cl 0.0584(10) 0.4910(14) 0.0166(12)
loop_
_geom_bond_atom_site_label_1
_geom_bond_atom_site_label_2
_geom_bond_site_symmetry_1
_geom_bond_site_symmetry_2
Br1 C5 1_555 1_555
Cu1 Cl1 1_555 1_555
N1 C7 1_555 1_555
N2 Cu1 1_555 1_555
N3 C11 1_555 1_555
N4 C12 1_555 1_555
C1 C2 1_555 1_555
C2 H1 1_555 1_555
C3 C2 1_555 1_555
C4 C3 1_555 1_555
H2 C4 1_555 1_555
C5 C4 1_555 1_555
C6 C1 1_555 1_555
H3 C6 1_555 1_555
C7 C1 1_555 1_555
H4 C7 1_555 1_555
H5 C7 1_555 1_555
C8 N1 1_555 1_555
H6 C8 1_555 1_555
C9 N2 1_555 1_555
H7 C9 1_555 1_555
C10 N1 1_555 1_555
H8 C10 1_555 1_555
C11 C3 1_555 1_555
H9 C11 1_555 1_555
H10 C11 1_555 1_555
C12 N3 1_555 1_555
H11 C12 1_555 1_555
C13 N4 1_555 1_555
H12 C13 1_555 1_555
C14 N3 1_555 1_555
H13 C14 1_555 1_555
Br1A C5A 1_555 1_555
Cu1_2 N4 1_555 1_555
Cu1_3 N4A 1_555 1_555
Cl1A Cu1 1_555 1_555
N1A C7A 1_555 1_555
N2A Cu1 1_555 1_555
N3A C11A 1_555 1_555
N4A C12A 1_555 1_555
N4_2 Cu1 1_555 1_555
N4A_2 Cu1 1_555 1_555
C1A C2A 1_555 1_555
C2A H1A 1_555 1_555
C3A C2A 1_555 1_555
C4A C3A 1_555 1_555
H2A C4A 1_555 1_555
C5A C4A 1_555 1_555
C6A C1A 1_555 1_555
H3A C6A 1_555 1_555
C7A C1A 1_555 1_555
H4A C7A 1_555 1_555
H5A C7A 1_555 1_555
C8A N1A 1_555 1_555
H6A C8A 1_555 1_555
C9A N2A 1_555 1_555
H7A C9A 1_555 1_555
C10A N1A 1_555 1_555
H8A C10A 1_555 1_555
C11A C3A 1_555 1_555
H9A C11A 1_555 1_555
H10A C11A 1_555 1_555
C12A N3A 1_555 1_555
H11A C12A 1_555 1_555
C13A N4A 1_555 1_555
H12A C13A 1_555 1_555
C14A N3A 1_555 1_555
H13A C14A 1_555 1_555
N2 C8 1_555 1_555
C5 C6 1_555 1_555
C9 C10 1_555 1_555
C13 C14 1_555 1_555
N2A C8A 1_555 1_555
C5A C6A 1_555 1_555
C9A C10A 1_555 1_555
C13A C14A 1_555 1_555

#END
