
#######################################################################
#
#                 Cambridge Crystallographic Data Centre
#                                CCDC 
#
#######################################################################
#
# If this CIF has been generated from an entry in the Cambridge 
# Structural Database, then it will include bibliographic, chemical, 
# crystal, experimental, refinement or atomic coordinate data resulting 
# from the CCDC's data processing and validation procedures.
#
#######################################################################

data_HERNUN
_symmetry_cell_setting           monoclinic
_symmetry_space_group_name_H-M   'P 21/c'
_symmetry_Int_Tables_number      14
_space_group_name_Hall           '-P 2ybc'
loop_
_symmetry_equiv_pos_site_id
_symmetry_equiv_pos_as_xyz
1 x,y,z
2 -x,1/2+y,1/2-z
3 -x,-y,-z
4 x,1/2-y,1/2+z
_cell_length_a                   8.891(4)
_cell_length_b                   11.464(3)
_cell_length_c                   17.656(4)
_cell_angle_alpha                90
_cell_angle_beta                 133.73(2)
_cell_angle_gamma                90
_cell_volume                     1300.41
loop_
_atom_site_label
_atom_site_type_symbol
_atom_site_fract_x
_atom_site_fract_y
_atom_site_fract_z
Cd1 Cd 0.0000 0.0000 0.0000
Ag1 Ag -0.17138(5) 0.32096(3) 0.15784(2)
N1 N -0.0808(6) 0.1744(3) 0.0376(3)
C1 C -0.1126(6) 0.2336(4) 0.0767(3)
N2 N 0.0451(6) -0.0833(3) 0.1323(3)
C2 C 0.0895(6) -0.1170(4) 0.2059(3)
C3 C 0.7926(6) 0.0833(4) 0.2878(3)
C4 C 0.7003(7) 0.0268(5) 0.1942(4)
C5 C 0.4878(7) 0.0104(5) 0.1182(4)
N3 N 0.3600(5) 0.0476(3) 0.1290(3)
C6 C 0.4467(7) 0.1029(4) 0.2177(3)
C7 C 0.6583(7) 0.1229(4) 0.2977(3)
C8 C 1.0202(6) 0.1023(3) 0.3714(3)
C9 C 1.1386(6) 0.1110(4) 0.3471(3)
C10 C 1.3500(6) 0.1345(4) 0.4259(3)
N4 N 1.4494(5) 0.1475(4) 0.5265(3)
C11 C 1.3360(7) 0.1353(4) 0.5509(3)
C12 C 1.1234(6) 0.1152(4) 0.4764(3)
H1 H 0.79561 -0.00425 0.18121
H2 H 0.42046 -0.03430 0.04693
H3 H 0.34626 0.13375 0.22749
H4 H 0.71944 0.16896 0.36753
H5 H 1.06657 0.09944 0.26726
H6 H 1.43852 0.14284 0.40500
H7 H 1.41459 0.14148 0.63214
H8 H 1.03819 0.10968 0.49935
N1B N 0.0808(6) -0.1744(3) -0.0376(3)
C1B C 0.1126(6) -0.2336(4) -0.0767(3)
N2B N -0.0451(6) 0.0833(3) -0.1323(3)
C2B C -0.0895(6) 0.1170(4) -0.2059(3)
C3B C -0.7926(6) -0.0833(4) -0.2878(3)
C4B C -0.7003(7) -0.0268(5) -0.1942(4)
C5B C -0.4878(7) -0.0104(5) -0.1182(4)
N3B N -0.3600(5) -0.0476(3) -0.1290(3)
C6B C -0.4467(7) -0.1029(4) -0.2177(3)
C7B C -0.6583(7) -0.1229(4) -0.2977(3)
C8B C -1.0202(6) -0.1023(3) -0.3714(3)
C9B C -1.1386(6) -0.1110(4) -0.3471(3)
C10B C -1.3500(6) -0.1345(4) -0.4259(3)
N4B N -1.4494(5) -0.1475(4) -0.5265(3)
C11B C -1.3360(7) -0.1353(4) -0.5509(3)
C12B C -1.1234(6) -0.1152(4) -0.4764(3)
H1B H -0.79561 0.00425 -0.18121
H2B H -0.42046 0.03430 -0.04693
H3B H -0.34626 -0.13375 -0.22749
H4B H -0.71944 -0.16896 -0.36753
H5B H -1.06657 -0.09944 -0.26726
H6B H -1.43852 -0.14284 -0.40500
H7B H -1.41459 -0.14148 -0.63214
H8B H -1.03819 -0.10968 -0.49935
Ag1B Ag 0.17138(5) -0.32096(3) -0.15784(2)
C2A C -0.0895(6) 0.3830(4) 0.2941(3)
N4C N -0.5506(5) 0.3525(4) 0.0265(3)
Ag1A Ag 0.17138(5) -0.17904(3) 0.34216(2)
Ag1C Ag 1.82862(5) 0.17904(3) 0.65784(2)
Ag1C_2 Ag -0.17138(5) 0.17904(3) -0.34216(2)
Ag1A_2 Ag -1.82862(5) -0.17904(3) -0.65784(2)
C2C C 0.0895(6) -0.3830(4) -0.2941(3)
N4A N 0.5506(5) -0.3525(4) -0.0265(3)
loop_
_geom_bond_atom_site_label_1
_geom_bond_atom_site_label_2
_geom_bond_site_symmetry_1
_geom_bond_site_symmetry_2
Cd1 N1 1_555 1_555
Ag1 C1 1_555 1_555
N1 C1 1_555 1_555
N2 Cd1 1_555 1_555
C2 N2 1_555 1_555
C3 C4 1_555 1_555
C4 C5 1_555 1_555
C5 N3 1_555 1_555
N3 Cd1 1_555 1_555
C6 N3 1_555 1_555
C7 C3 1_555 1_555
C8 C3 1_555 1_555
C9 C8 1_555 1_555
C10 C9 1_555 1_555
N4 C10 1_555 1_555
C11 N4 1_555 1_555
C12 C8 1_555 1_555
H1 C4 1_555 1_555
H2 C5 1_555 1_555
H3 C6 1_555 1_555
H4 C7 1_555 1_555
H5 C9 1_555 1_555
H6 C10 1_555 1_555
H7 C11 1_555 1_555
H8 C12 1_555 1_555
N1B Cd1 1_555 1_555
C1B N1B 1_555 1_555
N2B Cd1 1_555 1_555
C2B N2B 1_555 1_555
C3B C4B 1_555 1_555
C4B C5B 1_555 1_555
C5B N3B 1_555 1_555
N3B Cd1 1_555 1_555
C6B N3B 1_555 1_555
C7B C3B 1_555 1_555
C8B C3B 1_555 1_555
C9B C8B 1_555 1_555
C10B C9B 1_555 1_555
N4B C10B 1_555 1_555
C11B N4B 1_555 1_555
C12B C8B 1_555 1_555
H1B C4B 1_555 1_555
H2B C5B 1_555 1_555
H3B C6B 1_555 1_555
H4B C7B 1_555 1_555
H5B C9B 1_555 1_555
H6B C10B 1_555 1_555
H7B C11B 1_555 1_555
H8B C12B 1_555 1_555
Ag1B C1B 1_555 1_555
C2A Ag1 1_555 1_555
N4C Ag1 1_555 1_555
Ag1A C2 1_555 1_555
Ag1C N4 1_555 1_555
Ag1C_2 C2B 1_555 1_555
Ag1A_2 N4B 1_555 1_555
C2C Ag1B 1_555 1_555
N4A Ag1B 1_555 1_555
C6 C7 1_555 1_555
C11 C12 1_555 1_555
C6B C7B 1_555 1_555
C11B C12B 1_555 1_555

#END
