
#######################################################################
#
#                 Cambridge Crystallographic Data Centre
#                                CCDC 
#
#######################################################################
#
# If this CIF has been generated from an entry in the Cambridge 
# Structural Database, then it will include bibliographic, chemical, 
# crystal, experimental, refinement or atomic coordinate data resulting 
# from the CCDC's data processing and validation procedures.
#
#######################################################################

data_HERNOI
_symmetry_cell_setting           triclinic
_symmetry_space_group_name_H-M   'P -1'
_symmetry_Int_Tables_number      2
_space_group_name_Hall           '-P 1'
loop_
_symmetry_equiv_pos_site_id
_symmetry_equiv_pos_as_xyz
1 x,y,z
2 -x,-y,-z
_cell_length_a                   8.421(5)
_cell_length_b                   11.493(6)
_cell_length_c                   13.234(7)
_cell_angle_alpha                78.107(14)
_cell_angle_beta                 72.502(19)
_cell_angle_gamma                78.524(18)
_cell_volume                     1182.38
loop_
_atom_site_label
_atom_site_type_symbol
_atom_site_fract_x
_atom_site_fract_y
_atom_site_fract_z
Br1 Br 0.83996(7) -0.16067(5) 0.54943(4)
Cu1 Cu 1.0000 0.5000 0.0000
O3 O 0.7135(4) 0.5455(2) -0.02595(19)
N1 N 0.7232(5) 0.3303(3) 0.2919(3)
N2 N 0.8940(5) 0.4226(3) 0.1504(3)
N3 N 0.8315(5) -0.1853(3) 0.1307(3)
N4 N 0.9704(5) -0.3450(3) 0.0579(2)
C1 C 0.6407(5) 0.1288(4) 0.3558(3)
C2 C 0.6424(5) 0.0767(4) 0.2699(3)
H1 H 0.6044 0.1256 0.2120
C3 C 0.6981(5) -0.0446(4) 0.2658(3)
C4 C 0.7601(5) -0.1162(4) 0.3490(3)
H2 H 0.8022 -0.1990 0.3466
C5 C 0.7591(6) -0.0650(4) 0.4336(3)
C6 C 0.7031(5) 0.0557(4) 0.4397(3)
H3 H 0.7066 0.0889 0.4990
C7 C 0.5865(5) 0.2628(3) 0.3553(3)
H4 H 0.4887 0.2893 0.3250
H5 H 0.5510 0.2797 0.4298
C8 C 0.7548(6) 0.3719(3) 0.1878(3)
H6 H 0.6855 0.3660 0.1446
C9 C 0.9547(6) 0.4107(4) 0.2389(3)
H7 H 1.0539 0.4381 0.2389
C10 C 0.8502(6) 0.3538(4) 0.3253(3)
H8 H 0.8628 0.3339 0.3961
C11 C 0.6880(6) -0.0969(4) 0.1746(3)
H9 H 0.5852 -0.1357 0.1980
H10 H 0.6741 -0.0301 0.1158
C12 C 0.8219(6) -0.2907(4) 0.1076(3)
H11 H 0.7200 -0.3233 0.1249
C13 C 1.0805(6) -0.2694(4) 0.0518(3)
H12 H 1.1988 -0.2848 0.0218
C14 C 0.9982(6) -0.1704(4) 0.0938(3)
H13 H 1.0457 -0.1035 0.0974
Br1A Br 1.16004(7) 1.16067(5) -0.54943(4)
Cu1_2 Cu 1.0000 -0.5000 0.0000
Cu1_3 Cu 1.0000 1.5000 0.0000
O3A O 1.2865(4) 0.4545(2) 0.02595(19)
N1A N 1.2768(5) 0.6697(3) -0.2919(3)
N2A N 1.1060(5) 0.5774(3) -0.1504(3)
N3A N 1.1685(5) 1.1853(3) -0.1307(3)
N4A N 1.0296(5) 1.3450(3) -0.0579(2)
N4_2 N 0.9704(5) 0.6550(3) 0.0579(2)
N4A_2 N 1.0296(5) 0.3450(3) -0.0579(2)
C1A C 1.3593(5) 0.8712(4) -0.3558(3)
C2A C 1.3576(5) 0.9233(4) -0.2699(3)
H1A H 1.3956 0.8744 -0.2120
C3A C 1.3019(5) 1.0446(4) -0.2658(3)
C4A C 1.2399(5) 1.1162(4) -0.3490(3)
H2A H 1.1978 1.1990 -0.3466
C5A C 1.2409(6) 1.0650(4) -0.4336(3)
C6A C 1.2969(5) 0.9443(4) -0.4397(3)
H3A H 1.2934 0.9111 -0.4990
C7A C 1.4135(5) 0.7372(3) -0.3553(3)
H4A H 1.5113 0.7107 -0.3250
H5A H 1.4490 0.7203 -0.4298
C8A C 1.2452(6) 0.6281(3) -0.1878(3)
H6A H 1.3145 0.6340 -0.1446
C9A C 1.0453(6) 0.5893(4) -0.2389(3)
H7A H 0.9461 0.5619 -0.2389
C10A C 1.1498(6) 0.6462(4) -0.3253(3)
H8A H 1.1372 0.6661 -0.3961
C11A C 1.3120(6) 1.0969(4) -0.1746(3)
H9A H 1.4148 1.1357 -0.1980
H10A H 1.3259 1.0301 -0.1158
C12A C 1.1781(6) 1.2907(4) -0.1076(3)
H11A H 1.2800 1.3233 -0.1249
C13A C 0.9195(6) 1.2694(4) -0.0518(3)
H12A H 0.8012 1.2848 -0.0218
C14A C 1.0018(6) 1.1704(4) -0.0938(3)
H13A H 0.9543 1.1035 -0.0974
Cl1 Cl 0.24030(19) 0.77209(13) 0.31139(11)
Cl2 Cl 0.1828(2) 0.53493(16) 0.42443(10)
Cl3 Cl 0.50828(19) 0.60367(12) 0.37038(9)
O2 O 0.3435(4) 0.4693(3) 0.2195(2)
O4 O 0.4623(4) 0.6341(3) 0.1403(2)
C15 C 0.3785(6) 0.5683(4) 0.2179(3)
C16 C 0.3236(6) 0.6164(4) 0.3265(3)
O1 O 0.4340(4) 0.8537(3) 0.0113(2)
O5 O 0.2849(6) 0.0492(3) 0.1021(3)
C17 C 0.1551(7) 0.1046(5) 0.1734(4)
H14 H 0.1310 0.0511 0.2424
H15 H 0.0551 0.1238 0.1464
H16 H 0.1854 0.1789 0.1829
loop_
_geom_bond_atom_site_label_1
_geom_bond_atom_site_label_2
_geom_bond_site_symmetry_1
_geom_bond_site_symmetry_2
Br1 C5 1_555 1_555
Cu1 O3 1_555 1_555
Cl1 C16 1_555 1_555
Cl2 C16 1_555 1_555
Cl3 C16 1_555 1_555
O2 C15 1_555 1_555
O4 C15 1_555 1_555
O5 C17 1_555 1_555
N1 C7 1_555 1_555
N2 Cu1 1_555 1_555
N3 C11 1_555 1_555
N4 C12 1_555 1_555
C1 C2 1_555 1_555
C2 H1 1_555 1_555
C3 C2 1_555 1_555
C4 C3 1_555 1_555
H2 C4 1_555 1_555
C5 C4 1_555 1_555
C6 C1 1_555 1_555
H3 C6 1_555 1_555
C7 C1 1_555 1_555
H4 C7 1_555 1_555
H5 C7 1_555 1_555
C8 N1 1_555 1_555
H6 C8 1_555 1_555
C9 N2 1_555 1_555
H7 C9 1_555 1_555
C10 N1 1_555 1_555
H8 C10 1_555 1_555
C11 C3 1_555 1_555
H9 C11 1_555 1_555
H10 C11 1_555 1_555
C12 N3 1_555 1_555
H11 C12 1_555 1_555
C13 N4 1_555 1_555
H12 C13 1_555 1_555
C14 N3 1_555 1_555
H13 C14 1_555 1_555
C15 C16 1_555 1_555
C17 H14 1_555 1_555
H15 C17 1_555 1_555
H16 C17 1_555 1_555
Br1A C5A 1_555 1_555
Cu1_2 N4 1_555 1_555
Cu1_3 N4A 1_555 1_555
O3A Cu1 1_555 1_555
N1A C7A 1_555 1_555
N2A Cu1 1_555 1_555
N3A C11A 1_555 1_555
N4A C12A 1_555 1_555
N4_2 Cu1 1_555 1_555
N4A_2 Cu1 1_555 1_555
C1A C2A 1_555 1_555
C2A H1A 1_555 1_555
C3A C2A 1_555 1_555
C4A C3A 1_555 1_555
H2A C4A 1_555 1_555
C5A C4A 1_555 1_555
C6A C1A 1_555 1_555
H3A C6A 1_555 1_555
C7A C1A 1_555 1_555
H4A C7A 1_555 1_555
H5A C7A 1_555 1_555
C8A N1A 1_555 1_555
H6A C8A 1_555 1_555
C9A N2A 1_555 1_555
H7A C9A 1_555 1_555
C10A N1A 1_555 1_555
H8A C10A 1_555 1_555
C11A C3A 1_555 1_555
H9A C11A 1_555 1_555
H10A C11A 1_555 1_555
C12A N3A 1_555 1_555
H11A C12A 1_555 1_555
C13A N4A 1_555 1_555
H12A C13A 1_555 1_555
C14A N3A 1_555 1_555
H13A C14A 1_555 1_555
N2 C8 1_555 1_555
C5 C6 1_555 1_555
C9 C10 1_555 1_555
C13 C14 1_555 1_555
N2A C8A 1_555 1_555
C5A C6A 1_555 1_555
C9A C10A 1_555 1_555
C13A C14A 1_555 1_555

#END
