
#######################################################################
#
#                 Cambridge Crystallographic Data Centre
#                                CCDC 
#
#######################################################################
#
# If this CIF has been generated from an entry in the Cambridge 
# Structural Database, then it will include bibliographic, chemical, 
# crystal, experimental, refinement or atomic coordinate data resulting 
# from the CCDC's data processing and validation procedures.
#
#######################################################################

data_HERPOK
_symmetry_cell_setting           monoclinic
_symmetry_space_group_name_H-M   'P 21/c'
_symmetry_Int_Tables_number      14
_space_group_name_Hall           '-P 2ybc'
loop_
_symmetry_equiv_pos_site_id
_symmetry_equiv_pos_as_xyz
1 x,y,z
2 -x,1/2+y,1/2-z
3 -x,-y,-z
4 x,1/2-y,1/2+z
_cell_length_a                   9.785(4)
_cell_length_b                   8.912(3)
_cell_length_c                   23.822(9)
_cell_angle_alpha                90
_cell_angle_beta                 91.540(6)
_cell_angle_gamma                90
_cell_volume                     2076.62
loop_
_atom_site_label
_atom_site_type_symbol
_atom_site_fract_x
_atom_site_fract_y
_atom_site_fract_z
Br1 Br 0.05189(4) -0.46017(5) 0.77018(2)
Cu1 Cu 0.37816(3) 0.25176(4) 0.94929(2)
O1 O 0.5605(2) 0.1521(2) 0.96120(10)
O2 O 0.6766(2) -0.0246(2) 1.00817(10)
O3 O 0.4096(2) 0.3446(2) 1.02525(9)
O4 O 0.5226(2) 0.5215(3) 1.07260(9)
N1 N 0.3672(3) 0.1812(3) 0.86984(11)
N2 N 0.4026(3) 0.0546(3) 0.79240(11)
N3 N -0.1887(3) -0.1625(3) 0.55490(11)
N4 N 0.0327(3) -0.1410(3) 0.56822(11)
C1 C 0.4357(3) 0.0696(4) 0.8471(1)
C2 C 0.2885(4) 0.2423(3) 0.8272(1)
C3 C 0.3089(4) 0.1641(4) 0.7789(1)
C4 C 0.4568(4) -0.0579(4) 0.7541(2)
C5 C 0.3436(3) -0.1477(4) 0.7255(1)
C6 C 0.2675(4) -0.2479(4) 0.7559(2)
C7 C 0.1605(4) -0.3228(4) 0.7295(2)
C8 C 0.1285(3) -0.3029(4) 0.6732(1)
C9 C 0.2059(3) -0.2034(4) 0.64230(13)
C10 C 0.3127(3) -0.1254(4) 0.6686(1)
C11 C 0.1756(3) -0.1813(5) 0.5796(1)
C12 C -0.0721(3) -0.2360(4) 0.5590(1)
C13 C -0.1564(4) -0.0134(4) 0.5614(1)
C14 C -0.0202(4) 0.0009(4) 0.5695(1)
C15 C 0.5690(3) 0.0364(3) 0.99155(13)
C16 C 0.4819(3) 0.4625(3) 1.02821(13)
H1 H 0.5007(3) 0.0063(4) 0.8674(1)
H2 H 0.2279(4) 0.3276(3) 0.8309(1)
H3 H 0.2657(4) 0.1825(4) 0.7424(1)
H4 H 0.5092(4) -0.0073(4) 0.7257(2)
H5 H 0.5160(4) -0.1259(4) 0.7752(2)
H6 H 0.2896(4) -0.2664(4) 0.7952(2)
H7 H 0.0523(3) -0.3560(4) 0.6555(1)
H8 H 0.3664(3) -0.0552(4) 0.6472(1)
H9 H 0.1948(3) -0.2745(5) 0.5603(1)
H10 H 0.2341(3) -0.1026(5) 0.5656(1)
H11 H -0.0632(3) -0.3440(4) 0.5554(1)
H12 H -0.2215(4) 0.0687(4) 0.5601(1)
H13 H 0.0307(4) 0.0931(4) 0.5756(1)
Br1A Br -0.05189(4) 0.03983(5) 0.72982(2)
Cu1B Cu 0.62184(3) -0.25176(4) 1.05071(2)
Cu1B_2 Cu 0.62184(3) 0.74824(4) 1.05071(2)
Cu1A Cu -0.37816(3) -0.24824(4) 0.55071(2)
Cu1A_2 Cu -0.37816(3) 0.75176(4) 0.55071(2)
O1B O 0.4395(2) -0.1521(2) 1.03880(10)
O2B O 0.3234(2) 0.0246(2) 0.99183(10)
O3B O 0.5904(2) 0.6554(2) 0.97475(9)
O3B_2 O 0.5904(2) -0.3446(2) 0.97475(9)
O4B O 0.4774(2) 0.4785(3) 0.92740(9)
O4_2 O 0.5226(2) -0.4785(3) 1.07260(9)
N1A N -0.3672(3) 0.6812(3) 0.63016(11)
N1B N 0.6328(3) -0.1812(3) 1.13016(11)
N2A N -0.4026(3) 0.5546(3) 0.70760(11)
N3A N 0.1887(3) 0.3375(3) 0.94510(11)
N3C N 0.8113(3) -0.3375(3) 1.05490(11)
N4A N -0.0327(3) 0.3590(3) 0.93178(11)
C1A C -0.4357(3) 0.5696(4) 0.6529(1)
C2A C -0.2885(4) 0.7423(3) 0.6728(1)
C3A C -0.3089(4) 0.6641(4) 0.7211(1)
C4A C -0.4568(4) 0.4421(4) 0.7459(2)
C5A C -0.3436(3) 0.3523(4) 0.7745(1)
C6A C -0.2675(4) 0.2521(4) 0.7441(2)
C7A C -0.1605(4) 0.1772(4) 0.7705(2)
C8A C -0.1285(3) 0.1971(4) 0.8268(1)
C9A C -0.2059(3) 0.2966(4) 0.85770(13)
C10A C -0.3127(3) 0.3746(4) 0.8314(1)
C11A C -0.1756(3) 0.3187(5) 0.9204(1)
C12A C 0.0721(3) 0.2640(4) 0.9410(1)
C13A C 0.1564(4) 0.4866(4) 0.9386(1)
C14A C 0.0202(4) 0.5009(4) 0.9305(1)
C15B C 0.4310(3) -0.0364(3) 1.00845(13)
C16B C 0.5181(3) 0.5375(3) 0.97179(13)
H1A H -0.5007(3) 0.5063(4) 0.6326(1)
H2A H -0.2279(4) 0.8276(3) 0.6691(1)
H3A H -0.2657(4) 0.6825(4) 0.7576(1)
H4A H -0.5092(4) 0.4927(4) 0.7743(2)
H5A H -0.5160(4) 0.3741(4) 0.7248(2)
H6A H -0.2896(4) 0.2336(4) 0.7048(2)
H7A H -0.0523(3) 0.1440(4) 0.8445(1)
H8A H -0.3664(3) 0.4448(4) 0.8528(1)
H9A H -0.1948(3) 0.2255(5) 0.9397(1)
H10A H -0.2341(3) 0.3974(5) 0.9344(1)
H11A H 0.0632(3) 0.1560(4) 0.9446(1)
H12A H 0.2215(4) 0.5687(4) 0.9399(1)
H13A H -0.0307(4) 0.5931(4) 0.9244(1)
O5 O 0.1038(3) -0.1215(4) 0.9448(1)
C17 C 0.1482(5) -0.1387(6) 0.8889(2)
H14 H 0.2395(5) -0.1812(6) 0.8899(2)
H15 H 0.0866(5) -0.2052(6) 0.8682(2)
H16 H 0.1499(5) -0.0416(6) 0.8705(2)
O6 O 0.3714(3) 0.2708(4) 0.6347(1)
O7? O 0.2414(8) 0.3237(9) 0.6279(3)
O8? O 0.1485(12) 0.414(1) 0.5781(5)
loop_
_geom_bond_atom_site_label_1
_geom_bond_atom_site_label_2
_geom_bond_site_symmetry_1
_geom_bond_site_symmetry_2
Br1 C7 1_555 1_555
Cu1 O1 1_555 1_555
O1 C15 1_555 1_555
O2 C15 1_555 1_555
O3 Cu1 1_555 1_555
O4 C16 1_555 1_555
O5 C17 1_555 1_555
N1 Cu1 1_555 1_555
N2 C1 1_555 1_555
N3 C12 1_555 1_555
N4 C11 1_555 1_555
C1 N1 1_555 1_555
C2 N1 1_555 1_555
C3 N2 1_555 1_555
C4 N2 1_555 1_555
C5 C4 1_555 1_555
C6 C5 1_555 1_555
C7 C6 1_555 1_555
C8 C7 1_555 1_555
C9 C8 1_555 1_555
C10 C5 1_555 1_555
C11 C9 1_555 1_555
C12 N4 1_555 1_555
C13 N3 1_555 1_555
C14 N4 1_555 1_555
C15 C15B 1_555 1_555
C16 O3 1_555 1_555
C17 H14 1_555 1_555
H1 C1 1_555 1_555
H2 C2 1_555 1_555
H3 C3 1_555 1_555
H4 C4 1_555 1_555
H5 C4 1_555 1_555
H6 C6 1_555 1_555
H7 C8 1_555 1_555
H8 C10 1_555 1_555
H9 C11 1_555 1_555
H10 C11 1_555 1_555
H11 C12 1_555 1_555
H12 C13 1_555 1_555
H13 C14 1_555 1_555
H15 C17 1_555 1_555
H16 C17 1_555 1_555
Br1A C7A 1_555 1_555
Cu1B O2 1_555 1_555
Cu1B_2 O4 1_555 1_555
Cu1A N3 1_555 1_555
Cu1A_2 N1A 1_555 1_555
O1B Cu1B 1_555 1_555
O2B Cu1 1_555 1_555
O3B Cu1B_2 1_555 1_555
O3B_2 Cu1B 1_555 1_555
O4B Cu1 1_555 1_555
O4_2 Cu1B 1_555 1_555
N1A C1A 1_555 1_555
N1B Cu1B 1_555 1_555
N2A C1A 1_555 1_555
N3A Cu1 1_555 1_555
N3C Cu1B 1_555 1_555
N4A C11A 1_555 1_555
C1A H1A 1_555 1_555
C2A N1A 1_555 1_555
C3A N2A 1_555 1_555
C4A N2A 1_555 1_555
C5A C4A 1_555 1_555
C6A C5A 1_555 1_555
C7A C6A 1_555 1_555
C8A C7A 1_555 1_555
C9A C8A 1_555 1_555
C10A C5A 1_555 1_555
C11A C9A 1_555 1_555
C12A N3A 1_555 1_555
C13A N3A 1_555 1_555
C14A N4A 1_555 1_555
C15B O1B 1_555 1_555
C16B C16 1_555 1_555
H2A C2A 1_555 1_555
H3A C3A 1_555 1_555
H4A C4A 1_555 1_555
H5A C4A 1_555 1_555
H6A C6A 1_555 1_555
H7A C8A 1_555 1_555
H8A C10A 1_555 1_555
H9A C11A 1_555 1_555
H10A C11A 1_555 1_555
H11A C12A 1_555 1_555
H12A C13A 1_555 1_555
H13A C14A 1_555 1_555
C2 C3 1_555 1_555
C9 C10 1_555 1_555
C13 C14 1_555 1_555
O2B C15B 1_555 1_555
O3B C16B 1_555 1_555
O4B C16B 1_555 1_555
N4A C12A 1_555 1_555
C2A C3A 1_555 1_555
C9A C10A 1_555 1_555
C13A C14A 1_555 1_555

#END
