
#######################################################################
#
#                 Cambridge Crystallographic Data Centre
#                                CCDC 
#
#######################################################################
#
# If this CIF has been generated from an entry in the Cambridge 
# Structural Database, then it will include bibliographic, chemical, 
# crystal, experimental, refinement or atomic coordinate data resulting 
# from the CCDC's data processing and validation procedures.
#
#######################################################################

data_HERPEA
_symmetry_cell_setting           triclinic
_symmetry_space_group_name_H-M   'P -1'
_symmetry_Int_Tables_number      2
_space_group_name_Hall           '-P 1'
loop_
_symmetry_equiv_pos_site_id
_symmetry_equiv_pos_as_xyz
1 x,y,z
2 -x,-y,-z
_cell_length_a                   7.141(3)
_cell_length_b                   10.934(4)
_cell_length_c                   11.979(5)
_cell_angle_alpha                102.289(7)
_cell_angle_beta                 97.310(4)
_cell_angle_gamma                93.600(5)
_cell_volume                     902.551
loop_
_atom_site_label
_atom_site_type_symbol
_atom_site_fract_x
_atom_site_fract_y
_atom_site_fract_z
Br1 Br 0.17793(4) 0.07861(3) 0.40806(2)
Cu1 Cu 0.21951(4) -0.36484(2) 0.83008(2)
S1 S -0.26557(8) -0.38966(5) 0.88493(5)
O1 O 0.2750(2) -0.5418(1) 0.8322(1)
O2 O 0.2010(2) -0.3304(2) 0.99679(13)
O3 O -0.1655(2) -0.3416(2) 1.0061(1)
O4 O -0.1263(2) -0.3896(2) 0.8050(1)
O5 O -0.4183(3) -0.3120(2) 0.8621(2)
O6 O -0.3496(2) -0.5203(2) 0.8755(2)
N1 N 0.2157(3) -0.1794(2) 0.8379(2)
N2 N 0.3271(3) 0.0161(2) 0.8555(2)
N3 N 0.8207(3) 0.3870(2) 0.5180(2)
N4 N 0.7825(3) 0.4059(2) 0.3387(2)
C1 C 0.3658(4) -0.1041(2) 0.8343(2)
C2 C 0.0741(4) -0.1033(2) 0.8620(2)
C3 C 0.1414(4) 0.0184(3) 0.8734(3)
C4 C 0.4608(4) 0.1247(2) 0.8581(2)
C5 C 0.4802(4) 0.1461(2) 0.7381(2)
C6 C 0.6435(4) 0.2151(2) 0.7262(2)
C7 C 0.6652(4) 0.2475(2) 0.6224(2)
C8 C 0.5239(4) 0.2064(2) 0.5279(2)
C9 C 0.3654(4) 0.1354(2) 0.5408(2)
C10 C 0.3388(4) 0.1048(2) 0.6442(2)
C11 C 0.8448(4) 0.3255(3) 0.6153(2)
C12 C 0.8417(4) 0.3352(2) 0.4094(2)
C13 C 0.7208(4) 0.5095(2) 0.4066(2)
C14 C 0.7431(4) 0.4982(2) 0.5173(2)
H1 H 0.4878(4) -0.1323(2) 0.8185(2)
H2 H -0.0540(4) -0.1319(2) 0.8696(2)
H3 H 0.0725(4) 0.0922(3) 0.8906(3)
H4 H 0.4166(4) 0.1991(2) 0.9030(2)
H5 H 0.5844(4) 0.1110(2) 0.8949(2)
H6 H 0.7437(4) 0.2415(2) 0.7914(2)
H7 H 0.5371(4) 0.2273(2) 0.4544(2)
H8 H 0.2243(4) 0.0561(2) 0.6510(2)
H9 H 0.9463(4) 0.2709(3) 0.6056(2)
H10 H 0.8782(4) 0.3890(3) 0.6864(2)
H11 H 0.8938(4) 0.2555(2) 0.3857(2)
H12 H 0.6691(4) 0.5793(2) 0.3788(2)
H13 H 0.7115(4) 0.5573(2) 0.5834(2)
H14 H 0.2397(2) -0.5759(1) 0.8866(1)
H15 H 0.2470(2) -0.3842(2) 1.03579(13)
Cu1_2 Cu -0.78049(4) -0.36484(2) 0.83008(2)
Cu1A Cu 0.78049(4) 0.36484(2) 0.16992(2)
O5_2 O 0.5817(3) -0.3120(2) 0.8621(2)
N4A N 0.2175(3) -0.4059(2) 0.6613(2)
loop_
_geom_bond_atom_site_label_1
_geom_bond_atom_site_label_2
_geom_bond_site_symmetry_1
_geom_bond_site_symmetry_2
Br1 C9 1_555 1_555
Cu1 O1 1_555 1_555
S1 O3 1_555 1_555
O1 H14 1_555 1_555
O2 Cu1 1_555 1_555
O4 Cu1 1_555 1_555
O5 S1 1_555 1_555
O6 S1 1_555 1_555
N1 Cu1 1_555 1_555
N2 C1 1_555 1_555
N3 C11 1_555 1_555
N4 C12 1_555 1_555
C1 N1 1_555 1_555
C2 N1 1_555 1_555
C3 N2 1_555 1_555
C4 N2 1_555 1_555
C5 C4 1_555 1_555
C6 C5 1_555 1_555
C7 C6 1_555 1_555
C8 C7 1_555 1_555
C9 C8 1_555 1_555
C10 C5 1_555 1_555
C11 C7 1_555 1_555
C12 N3 1_555 1_555
C13 N4 1_555 1_555
C14 N3 1_555 1_555
H1 C1 1_555 1_555
H2 C2 1_555 1_555
H3 C3 1_555 1_555
H4 C4 1_555 1_555
H5 C4 1_555 1_555
H6 C6 1_555 1_555
H7 C8 1_555 1_555
H8 C10 1_555 1_555
H9 C11 1_555 1_555
H10 C11 1_555 1_555
H11 C12 1_555 1_555
H12 C13 1_555 1_555
H13 C14 1_555 1_555
H15 O2 1_555 1_555
Cu1_2 O5 1_555 1_555
Cu1A N4 1_555 1_555
O5_2 Cu1 1_555 1_555
N4A Cu1 1_555 1_555
S1 O4 1_555 1_555
C2 C3 1_555 1_555
C9 C10 1_555 1_555
C13 C14 1_555 1_555

#END
