
#######################################################################
#
#                 Cambridge Crystallographic Data Centre
#                                CCDC 
#
#######################################################################
#
# If this CIF has been generated from an entry in the Cambridge 
# Structural Database, then it will include bibliographic, chemical, 
# crystal, experimental, refinement or atomic coordinate data resulting 
# from the CCDC's data processing and validation procedures.
#
#######################################################################

data_HERPUQ
_symmetry_cell_setting           monoclinic
_symmetry_space_group_name_H-M   'P 21'
_symmetry_Int_Tables_number      4
_space_group_name_Hall           'P 2yb'
loop_
_symmetry_equiv_pos_site_id
_symmetry_equiv_pos_as_xyz
1 x,y,z
2 -x,1/2+y,-z
_cell_length_a                   9.240(5)
_cell_length_b                   9.061(5)
_cell_length_c                   11.600(6)
_cell_angle_alpha                90
_cell_angle_beta                 91.023(6)
_cell_angle_gamma                90
_cell_volume                     971.039
loop_
_atom_site_label
_atom_site_type_symbol
_atom_site_fract_x
_atom_site_fract_y
_atom_site_fract_z
Br1 Br 0.05077(11) -0.5499(3) -1.07302(11)
Cu1 Cu -0.31343(6) -0.4008(2) -0.56281(5)
O1 O -0.4565(5) -0.5554(5) -0.5336(4)
O2 O -0.5845(6) -0.6773(6) -0.4057(4)
O3 O -0.2841(4) -0.3673(5) -0.3956(3)
O4 O -0.3662(6) -0.3485(8) -0.2181(4)
N1 N -0.1168(5) -0.3159(6) -0.5874(4)
N2 N 0.1151(6) -0.3114(9) -0.6266(5)
N3 N 0.3329(5) 0.0541(6) -1.2694(4)
N4 N 0.4002(5) -0.0443(6) -1.1036(4)
C1 C -0.0004(5) -0.3985(10) -0.6054(5)
C2 C -0.0741(8) -0.1700(9) -0.5980(6)
C3 C 0.0702(8) -0.1691(11) -0.6233(6)
C4 C 0.2556(6) -0.3673(11) -0.6652(5)
C5 C 0.2657(6) -0.3554(9) -0.7942(5)
C6 C 0.1725(6) -0.4430(9) -0.8629(7)
C7 C 0.1786(7) -0.4309(8) -0.9798(6)
C8 C 0.2724(7) -0.3321(8) -1.0344(5)
C9 C 0.3650(6) -0.2480(8) -0.9655(5)
C10 C 0.3588(6) -0.2563(8) -0.8456(5)
C11 C 0.4721(6) -0.1465(8) -1.0210(5)
C12 C 0.4152(6) -0.0481(7) -1.2187(5)
C13 C 0.2632(7) 0.1272(7) -1.1811(5)
C14 C 0.3047(7) 0.0665(8) -1.0778(5)
C15 C -0.5268(6) -0.5653(7) -0.4405(5)
C16 C -0.5341(7) -0.4244(7) -0.3660(5)
C17 C -0.3851(7) -0.3781(7) -0.3216(5)
H1 H 0.0010(5) -0.5055(10) -0.6040(5)
H2 H -0.1358(8) -0.0843(9) -0.5889(6)
H3 H 0.1290(8) -0.0823(11) -0.6365(6)
H4 H 0.2674(6) -0.4693(11) -0.6417(5)
H5 H 0.3317(6) -0.3079(11) -0.6301(5)
H6 H 0.1062(6) -0.5117(9) -0.8275(7)
H7 H 0.2749(7) -0.3255(8) -1.1178(5)
H8 H 0.4213(6) -0.1948(8) -0.7977(5)
H9 H 0.5207(6) -0.0892(8) -0.9612(5)
H10 H 0.5427(6) -0.2051(8) -1.0616(5)
H11 H 0.4771(6) -0.1165(7) -1.2592(5)
H12 H 0.1948(7) 0.2076(7) -1.1910(5)
H13 H 0.2731(7) 0.0959(8) -1.0019(5)
H14 H -0.5949(7) -0.4440(7) -0.3004(5)
H15 H -0.5760(7) -0.3451(7) -0.4118(5)
Cu1A Cu -0.68657(6) -0.9008(2) -0.43719(5)
Cu1A_2 Cu 0.31343(6) 0.0992(2) -1.43719(5)
O2A O -0.4155(6) -0.1773(6) -0.5943(4)
N3A N -0.3329(5) -0.4459(6) -0.7306(4)
O5 O 0.0436(13) -0.7204(13) -0.6904(10)
C18 C -0.040(3) -0.777(4) -0.698(2)
loop_
_geom_bond_atom_site_label_1
_geom_bond_atom_site_label_2
_geom_bond_site_symmetry_1
_geom_bond_site_symmetry_2
Br1 C7 1_555 1_555
Cu1 O1 1_555 1_555
O1 C15 1_555 1_555
O2 C15 1_555 1_555
O3 Cu1 1_555 1_555
O4 C17 1_555 1_555
O5 C18 1_555 1_555
N1 Cu1 1_555 1_555
N2 C1 1_555 1_555
N3 C12 1_555 1_555
N4 C11 1_555 1_555
C1 N1 1_555 1_555
C2 N1 1_555 1_555
C3 N2 1_555 1_555
C4 N2 1_555 1_555
C5 C4 1_555 1_555
C6 C5 1_555 1_555
C7 C6 1_555 1_555
C8 C7 1_555 1_555
C9 C8 1_555 1_555
C10 C5 1_555 1_555
C11 C9 1_555 1_555
C12 N4 1_555 1_555
C13 N3 1_555 1_555
C14 N4 1_555 1_555
C15 C16 1_555 1_555
C16 C17 1_555 1_555
C17 O3 1_555 1_555
H1 C1 1_555 1_555
H2 C2 1_555 1_555
H3 C3 1_555 1_555
H4 C4 1_555 1_555
H5 C4 1_555 1_555
H6 C6 1_555 1_555
H7 C8 1_555 1_555
H8 C10 1_555 1_555
H9 C11 1_555 1_555
H10 C11 1_555 1_555
H11 C12 1_555 1_555
H12 C13 1_555 1_555
H13 C14 1_555 1_555
H14 C16 1_555 1_555
H15 C16 1_555 1_555
Cu1A O2 1_555 1_555
Cu1A_2 N3 1_555 1_555
O2A Cu1 1_555 1_555
N3A Cu1 1_555 1_555
C2 C3 1_555 1_555
C9 C10 1_555 1_555
C13 C14 1_555 1_555

#END
