
#######################################################################
#
#                 Cambridge Crystallographic Data Centre
#                                CCDC 
#
#######################################################################
#
# If this CIF has been generated from an entry in the Cambridge 
# Structural Database, then it will include bibliographic, chemical, 
# crystal, experimental, refinement or atomic coordinate data resulting 
# from the CCDC's data processing and validation procedures.
#
#######################################################################

data_HERROL
_symmetry_cell_setting           rhombohedral
_symmetry_space_group_name_H-M   'R -3 c'
_symmetry_Int_Tables_number      167
_space_group_name_Hall           '-R 3 2"c'
loop_
_symmetry_equiv_pos_site_id
_symmetry_equiv_pos_as_xyz
1 x,y,z
2 1/3+x,2/3+y,2/3+z
3 2/3+x,1/3+y,1/3+z
4 -y,x-y,z
5 -x+y,-x,z
6 1/3-y,2/3+x-y,2/3+z
7 1/3-x+y,2/3-x,2/3+z
8 2/3-y,1/3+x-y,1/3+z
9 2/3-x+y,1/3-x,1/3+z
10 y,x,1/2-z
11 2/3+y,1/3+x,5/6-z
12 1/3+y,2/3+x,1/6-z
13 x-y,-y,1/2-z
14 -x,-x+y,1/2-z
15 2/3+x-y,1/3-y,5/6-z
16 2/3-x,1/3-x+y,5/6-z
17 1/3+x-y,2/3-y,1/6-z
18 1/3-x,2/3-x+y,1/6-z
19 -x,-y,-z
20 2/3-x,1/3-y,1/3-z
21 1/3-x,2/3-y,2/3-z
22 y,-x+y,-z
23 x-y,x,-z
24 2/3+y,1/3-x+y,1/3-z
25 2/3+x-y,1/3+x,1/3-z
26 1/3+y,2/3-x+y,2/3-z
27 1/3+x-y,2/3+x,2/3-z
28 -y,-x,1/2+z
29 1/3-y,2/3-x,1/6+z
30 2/3-y,1/3-x,5/6+z
31 -x+y,y,1/2+z
32 x,x-y,1/2+z
33 1/3-x+y,2/3+y,1/6+z
34 1/3+x,2/3+x-y,1/6+z
35 2/3-x+y,1/3+y,5/6+z
36 2/3+x,1/3+x-y,5/6+z
_cell_length_a                   13.930(3)
_cell_length_b                   13.930(3)
_cell_length_c                   47.894(13)
_cell_angle_alpha                90
_cell_angle_beta                 90
_cell_angle_gamma                120
_cell_volume                     8048.48
loop_
_atom_site_label
_atom_site_type_symbol
_atom_site_fract_x
_atom_site_fract_y
_atom_site_fract_z
Ni1 Ni 0.0000 0.0000 0.0000
O1 O 0.1416(2) 0.0553(2) -0.0245(1)
C1 C 0.2173(3) 0.1510(3) -0.0308(1)
C2 C 0.2024(4) 0.2426(3) -0.0373(1)
C3 C 0.2894(4) 0.3439(4) -0.0436(1)
C4 C 0.3959(4) 0.3600(4) -0.0440(1)
C5 C 0.4110(4) 0.2734(4) -0.0386(1)
N1 N 0.3245(3) 0.1710(3) -0.0325(1)
C6 C 0.3459(3) 0.0791(4) -0.0304(1)
C7 C 0.3379(3) 0.0225(3) -0.0582(1)
C8 C 0.3374(3) -0.0762(4) -0.0584(1)
C9 C 0.3333 -0.1284(5) -0.0833
C10 C 0.3333 0.0705(4) -0.0833
H1 H 0.1312 0.2325 -0.0371
H2 H 0.2776 0.4022 -0.0478
H3 H 0.4562 0.4294 -0.0479
H4 H 0.4823 0.2840 -0.0388
H5 H 0.2934 0.0247 -0.0174
H6 H 0.4195 0.1065 -0.0228
H7 H 0.3405 -0.1080 -0.0416
H8 H 0.3333 -0.1950 -0.0833
H9 H 0.3333 0.1371 -0.0833
O1V O 0.0863(3) 0.1416(2) 0.0245(1)
O1C O -0.0553(2) 0.0863(3) -0.0245(1)
O1D O -0.0863(3) -0.1416(2) -0.0245(1)
O1R O -0.1416(2) -0.0553(2) 0.0245(1)
O1U O 0.0553(2) -0.0863(3) 0.0245(1)
C1V C 0.0663(4) 0.2173(3) 0.0308(1)
C1C C -0.1510(3) 0.0663(4) -0.0308(1)
C1D C -0.0663(4) -0.2173(3) -0.0308(1)
C1R C -0.2173(3) -0.1510(3) 0.0308(1)
C1U C 0.1510(3) -0.0663(4) 0.0308(1)
N1V N 0.1535(4) 0.3245(3) 0.0325(1)
C2V C -0.0402(5) 0.2024(4) 0.0373(1)
N1C N -0.1710(3) 0.1535(4) -0.0325(1)
C2C C -0.2426(3) -0.0402(5) -0.0373(1)
N1D N -0.1535(4) -0.3245(3) -0.0325(1)
C2D C 0.0402(5) -0.2024(4) -0.0373(1)
N1R N -0.3245(3) -0.1710(3) 0.0325(1)
C2R C -0.2024(4) -0.2426(3) 0.0373(1)
N1U N 0.1710(3) -0.1535(4) 0.0325(1)
C2U C 0.2426(3) 0.0402(5) 0.0373(1)
C6V C 0.2668(5) 0.3459(3) 0.0304(1)
C5V C 0.1376(6) 0.4110(4) 0.0386(1)
C3V C -0.0545(6) 0.2894(4) 0.0436(1)
H1V H -0.1013 0.1312 0.0371
C6C C -0.0791(4) 0.2668(5) -0.0304(1)
C5C C -0.2734(4) 0.1376(6) -0.0386(1)
C3C C -0.3439(4) -0.0545(6) -0.0436(1)
H1C H -0.2325 -0.1013 -0.0371
C6D C -0.2668(5) -0.3459(3) -0.0304(1)
C5D C -0.1376(6) -0.4110(4) -0.0386(1)
C3D C 0.0545(6) -0.2894(4) -0.0436(1)
H1D H 0.1013 -0.1312 -0.0371
C6R C -0.3459(3) -0.0791(4) 0.0304(1)
C5R C -0.4110(4) -0.2734(4) 0.0386(1)
C3R C -0.2894(4) -0.3439(4) 0.0436(1)
H1R H -0.1312 -0.2325 0.0371
C6U C 0.0791(4) -0.2668(5) 0.0304(1)
C5U C 0.2734(4) -0.1376(6) 0.0386(1)
C3U C 0.3439(4) 0.0545(6) 0.0436(1)
H1U H 0.2325 0.1013 0.0371
C7V C 0.3154(4) 0.3379(3) 0.0582(1)
H6V H 0.3130 0.4195 0.0228
H5V H 0.2687 0.2934 0.0174
C4V C 0.0359(6) 0.3959(4) 0.0440(1)
H4V H 0.1983 0.4823 0.0388
H2V H -0.1246 0.2776 0.0478
C7C C -0.0225(3) 0.3154(4) -0.0582(1)
H6C H -0.1065 0.3130 -0.0228
H5C H -0.0247 0.2687 -0.0174
C4C C -0.3600(4) 0.0359(6) -0.0440(1)
H4C H -0.2840 0.1983 -0.0388
H2C H -0.4022 -0.1246 -0.0478
C7D C -0.3154(4) -0.3379(3) -0.0582(1)
H6D H -0.3130 -0.4195 -0.0228
H5D H -0.2687 -0.2934 -0.0174
C4D C -0.0359(6) -0.3959(4) -0.0440(1)
H4D H -0.1983 -0.4823 -0.0388
H2D H 0.1246 -0.2776 -0.0478
C7R C -0.3379(3) -0.0225(3) 0.0582(1)
H6R H -0.4195 -0.1065 0.0228
H5R H -0.2934 -0.0247 0.0174
C4R C -0.3959(4) -0.3600(4) 0.0440(1)
H4R H -0.4823 -0.2840 0.0388
H2R H -0.2776 -0.4022 0.0478
C7U C 0.0225(3) -0.3154(4) 0.0582(1)
H6U H 0.1065 -0.3130 0.0228
H5U H 0.0247 -0.2687 0.0174
C4U C 0.3600(4) -0.0359(6) 0.0440(1)
H4U H 0.2840 -0.1983 0.0388
H2U H 0.4022 0.1246 0.0478
C10BA C 0.2628(4) 0.3334 0.0834
C8V C 0.4136(5) 0.3374(3) 0.0584(1)
H3V H 0.0268 0.4562 0.0479
C10C C -0.0705(4) 0.2628(4) -0.0833
C8C C 0.0762(4) 0.4136(5) -0.0584(1)
H3C H -0.4294 0.0268 -0.0479
C10D C -0.2628(4) -0.3333 -0.0833
C8D C -0.4136(5) -0.3374(3) -0.0584(1)
H3D H -0.0268 -0.4562 -0.0479
C10GA C -0.3334 -0.0705(4) 0.0834
C8R C -0.3374(3) 0.0762(4) 0.0584(1)
H3R H -0.4562 -0.4294 0.0479
C10FA C 0.0705(4) -0.2628(4) 0.0834
C8U C -0.0762(4) -0.4136(5) 0.0584(1)
H3U H 0.4294 -0.0268 0.0479
C7O C 0.3288(3) 0.0179(4) -0.1085(1)
C7BA C 0.3108(3) 0.3288(3) 0.1085(1)
H9BA H 0.1962 0.3334 0.0834
C9BA C 0.4617(5) 0.3334 0.0834
H7V H 0.4485 0.3405 0.0416
C7N C -0.0179(4) 0.3108(3) -0.1085(1)
H9C H -0.1371 0.1962 -0.0833
C9C C 0.1284(5) 0.4617(5) -0.0833
H7C H 0.1080 0.4485 -0.0416
C7J C -0.3108(3) -0.3288(3) -0.1085(1)
H9D H -0.1962 -0.3333 -0.0833
C9D C -0.4617(5) -0.3333 -0.0833
H7D H -0.4485 -0.3405 -0.0416
C7GA C -0.3288(3) -0.0179(4) 0.1085(1)
H9GA H -0.3334 -0.1371 0.0834
C9GA C -0.3334 0.1284(5) 0.0834
H7R H -0.3405 0.1080 0.0416
C7FA C 0.0179(4) -0.3108(3) 0.1085(1)
H9FA H 0.1371 -0.1962 0.0834
C9FA C -0.1284(5) -0.4617(5) 0.0834
H7U H -0.1080 -0.4485 0.0416
C6O C 0.3208(3) 0.0665(5) -0.1363(1)
C8O C 0.3293(3) -0.0803(5) -0.1083(1)
C6BA C 0.2542(4) 0.3208(3) 0.1363(1)
C8BA C 0.4095(4) 0.3293(3) 0.1083(1)
H8BA H 0.5283 0.3334 0.0834
C6N C -0.0665(5) 0.2542(4) -0.1363(1)
C8N C 0.0803(5) 0.4095(4) -0.1083(1)
H8C H 0.1950 0.5283 -0.0833
C6J C -0.2542(4) -0.3208(3) -0.1363(1)
C8J C -0.4095(4) -0.3293(3) -0.1083(1)
H8D H -0.5283 -0.3333 -0.0833
C6GA C -0.3208(3) -0.0665(5) 0.1363(1)
C8GA C -0.3293(3) 0.0803(5) 0.1083(1)
H8GA H -0.3334 0.1950 0.0834
C6FA C 0.0665(5) -0.2542(4) 0.1363(1)
C8FA C -0.0803(5) -0.4095(4) 0.1083(1)
H8FA H -0.1950 -0.5283 0.0834
N1O N 0.3422(3) 0.1798(4) -0.1342(1)
H6O H 0.2472 0.0203 -0.1439
H5O H 0.3733 0.0646 -0.1493
H7O H 0.3262 -0.1152 -0.1251
N1BA N 0.1623(3) 0.3422(3) 0.1342(1)
H6BA H 0.2268 0.2472 0.1439
H5BA H 0.3086 0.3733 0.1493
H7BA H 0.4413 0.3262 0.1251
N1N N -0.1798(4) 0.1623(3) -0.1342(1)
H6N H -0.0203 0.2268 -0.1439
H5N H -0.0646 0.3086 -0.1493
H7N H 0.1152 0.4413 -0.1251
N1J N -0.1623(3) -0.3422(3) -0.1342(1)
H6J H -0.2268 -0.2472 -0.1439
H5J H -0.3086 -0.3733 -0.1493
H7J H -0.4413 -0.3262 -0.1251
N1GA N -0.3422(3) -0.1798(4) 0.1342(1)
H6GA H -0.2472 -0.0203 0.1439
H5GA H -0.3733 -0.0646 0.1493
H7GA H -0.3262 0.1152 0.1251
N1FA N 0.1798(4) -0.1623(3) 0.1342(1)
H6FA H 0.0203 -0.2268 0.1439
H5FA H 0.0646 -0.3086 0.1493
H7FA H -0.1152 -0.4413 0.1251
C1O C 0.4494(3) 0.2670(4) -0.1359(1)
C5O C 0.2557(4) 0.1957(6) -0.1281(1)
C1BA C 0.1823(3) 0.4494(3) 0.1359(1)
C5BA C 0.0599(4) 0.2557(4) 0.1281(1)
C1N C -0.2670(4) 0.1823(3) -0.1359(1)
C5N C -0.1957(6) 0.0599(4) -0.1281(1)
C1J C -0.1823(3) -0.4494(3) -0.1359(1)
C5J C -0.0599(4) -0.2557(4) -0.1281(1)
C1GA C -0.4494(3) -0.2670(4) 0.1359(1)
C5GA C -0.2557(4) -0.1957(6) 0.1281(1)
C1FA C 0.2670(4) -0.1823(3) 0.1359(1)
C5FA C 0.1957(6) -0.0599(4) 0.1281(1)
O1O O 0.5251(2) 0.2470(3) -0.1422(1)
C2O C 0.4643(4) 0.3735(5) -0.1294(1)
C4O C 0.2708(4) 0.2974(6) -0.1227(1)
H4O H 0.1844 0.1350 -0.1279
C2BA C 0.0907(3) 0.4643(4) 0.1294(1)
O1BA O 0.2780(2) 0.5251(2) 0.1422(1)
C4BA C -0.0267(4) 0.2708(4) 0.1227(1)
H4BA H 0.0493 0.1844 0.1279
C2N C -0.3735(5) 0.0907(3) -0.1294(1)
O1N O -0.2470(3) 0.2780(2) -0.1422(1)
C4N C -0.2974(6) -0.0267(4) -0.1227(1)
H4N H -0.1350 0.0493 -0.1279
C2J C -0.0907(3) -0.4643(4) -0.1294(1)
O1J O -0.2780(2) -0.5251(2) -0.1422(1)
C4J C 0.0267(4) -0.2708(4) -0.1227(1)
H4J H -0.0493 -0.1844 -0.1279
C2GA C -0.4643(4) -0.3735(5) 0.1294(1)
O1GA O -0.5251(2) -0.2470(3) 0.1422(1)
C4GA C -0.2708(4) -0.2974(6) 0.1227(1)
H4GA H -0.1844 -0.1350 0.1279
C2FA C 0.3735(5) -0.0907(3) 0.1294(1)
O1FA O 0.2470(3) -0.2780(2) 0.1422(1)
C4FA C 0.2974(6) 0.0267(4) 0.1227(1)
H4FA H 0.1350 -0.0493 0.1279
Ni1CA Ni 0.6667 0.3333 -0.1667
C3O C 0.3773(4) 0.3878(6) -0.1231(1)
H1O H 0.5355 0.4346 -0.1296
H3O H 0.2105 0.3065 -0.1188
C3BA C -0.0106(4) 0.3773(4) 0.1231(1)
H1BA H 0.1008 0.5355 0.1296
Ni1BA Ni 0.3333 0.6667 0.1667
H3BA H -0.0961 0.2105 0.1188
C3N C -0.3878(6) -0.0106(4) -0.1231(1)
H1N H -0.4346 0.1008 -0.1296
Ni1CA_2 Ni -0.3333 0.3333 -0.1667
H3N H -0.3065 -0.0961 -0.1188
C3J C 0.0106(4) -0.3773(4) -0.1231(1)
H1J H -0.1008 -0.5355 -0.1296
Ni1CA_3 Ni -0.3333 -0.6667 -0.1667
H3J H 0.0961 -0.2105 -0.1188
C3GA C -0.3773(4) -0.3878(6) 0.1231(1)
H1GA H -0.5355 -0.4346 0.1296
Ni1BA_2 Ni -0.6667 -0.3333 0.1667
H3GA H -0.2105 -0.3065 0.1188
C3FA C 0.3878(6) 0.0106(4) 0.1231(1)
H1FA H 0.4346 -0.1008 0.1296
Ni1BA_3 Ni 0.3333 -0.3333 0.1667
H3FA H 0.3065 0.0961 0.1188
O1N_2 O 0.7530(3) 0.2780(2) -0.1422(1)
O1CA O 0.6114(2) 0.1917(2) -0.1912(1)
O1HA O 0.5804(3) 0.3886(2) -0.1912(1)
O1IA O 0.8083(2) 0.4196(3) -0.1912(1)
O1J_2 O 0.7220(2) 0.4749(2) -0.1422(1)
H2O H 0.3891 0.4579 -0.1189
H2BA H -0.0689 0.3891 0.1189
H2N H -0.4579 -0.0689 -0.1189
H2J H 0.0689 -0.3891 -0.1189
H2GA H -0.3891 -0.4579 0.1189
H2FA H 0.4579 0.0689 0.1189
Cl1 Cl 0.3333 -0.3333 -0.0142(1)
O2 O 0.3333 -0.3333 -0.0432(2)
O3 O 0.2261(4) -0.3619(4) -0.0056(1)
O3D O 0.4120(6) -0.2261(4) -0.0056(1)
O3C O 0.3619(4) -0.4120(6) -0.0056(1)
O4 O 0.3559(13) 0.6029(13) 0.0801(3)
O5? O -0.0310(19) -0.0283(23) -0.0884(3)
loop_
_geom_bond_atom_site_label_1
_geom_bond_atom_site_label_2
_geom_bond_site_symmetry_1
_geom_bond_site_symmetry_2
Ni1 O1 1_555 1_555
O1 C1 1_555 1_555
C1 C2 1_555 1_555
C2 C3 1_555 1_555
C3 C4 1_555 1_555
C4 C5 1_555 1_555
C5 N1 1_555 1_555
N1 C1 1_555 1_555
C6 N1 1_555 1_555
C7 C6 1_555 1_555
C8 C7 1_555 1_555
C9 C8 1_555 1_555
C10 C7 1_555 1_555
H1 C2 1_555 1_555
H2 C3 1_555 1_555
H3 C4 1_555 1_555
H4 C5 1_555 1_555
H5 C6 1_555 1_555
H6 C6 1_555 1_555
H7 C8 1_555 1_555
H8 C9 1_555 1_555
H9 C10 1_555 1_555
Cl1 O2 1_555 1_555
O3 Cl1 1_555 1_555
O1V Ni1 1_555 1_555
O1C Ni1 1_555 1_555
O1D Ni1 1_555 1_555
O1R Ni1 1_555 1_555
O1U Ni1 1_555 1_555
C1V O1V 1_555 1_555
C1C O1C 1_555 1_555
C1D O1D 1_555 1_555
C1R O1R 1_555 1_555
C1U O1U 1_555 1_555
N1V C1V 1_555 1_555
C2V C1V 1_555 1_555
N1C C1C 1_555 1_555
C2C C1C 1_555 1_555
N1D C1D 1_555 1_555
C2D C1D 1_555 1_555
N1R C1R 1_555 1_555
C2R C1R 1_555 1_555
N1U C1U 1_555 1_555
C2U C1U 1_555 1_555
C6V N1V 1_555 1_555
C5V N1V 1_555 1_555
C3V C2V 1_555 1_555
H1V C2V 1_555 1_555
C6C N1C 1_555 1_555
C5C N1C 1_555 1_555
C3C C2C 1_555 1_555
H1C C2C 1_555 1_555
C6D N1D 1_555 1_555
C5D N1D 1_555 1_555
C3D C2D 1_555 1_555
H1D C2D 1_555 1_555
C6R N1R 1_555 1_555
C5R N1R 1_555 1_555
C3R C2R 1_555 1_555
H1R C2R 1_555 1_555
C6U N1U 1_555 1_555
C5U N1U 1_555 1_555
C3U C2U 1_555 1_555
H1U C2U 1_555 1_555
C7V C6V 1_555 1_555
H6V C6V 1_555 1_555
H5V C6V 1_555 1_555
C4V C5V 1_555 1_555
H4V C5V 1_555 1_555
H2V C3V 1_555 1_555
C7C C6C 1_555 1_555
H6C C6C 1_555 1_555
H5C C6C 1_555 1_555
C4C C5C 1_555 1_555
H4C C5C 1_555 1_555
H2C C3C 1_555 1_555
C7D C6D 1_555 1_555
H6D C6D 1_555 1_555
H5D C6D 1_555 1_555
C4D C5D 1_555 1_555
H4D C5D 1_555 1_555
H2D C3D 1_555 1_555
C7R C6R 1_555 1_555
H6R C6R 1_555 1_555
H5R C6R 1_555 1_555
C4R C5R 1_555 1_555
H4R C5R 1_555 1_555
H2R C3R 1_555 1_555
C7U C6U 1_555 1_555
H6U C6U 1_555 1_555
H5U C6U 1_555 1_555
C4U C5U 1_555 1_555
H4U C5U 1_555 1_555
H2U C3U 1_555 1_555
C10BA C7V 1_555 1_555
C8V C7V 1_555 1_555
H3V C4V 1_555 1_555
C10C C7C 1_555 1_555
C8C C7C 1_555 1_555
H3C C4C 1_555 1_555
C10D C7D 1_555 1_555
C8D C7D 1_555 1_555
H3D C4D 1_555 1_555
C10GA C7R 1_555 1_555
C8R C7R 1_555 1_555
H3R C4R 1_555 1_555
C10FA C7U 1_555 1_555
C8U C7U 1_555 1_555
H3U C4U 1_555 1_555
C7O C10 1_555 1_555
C7BA C10BA 1_555 1_555
H9BA C10BA 1_555 1_555
C9BA C8V 1_555 1_555
H7V C8V 1_555 1_555
C7N C10C 1_555 1_555
H9C C10C 1_555 1_555
C9C C8C 1_555 1_555
H7C C8C 1_555 1_555
C7J C10D 1_555 1_555
H9D C10D 1_555 1_555
C9D C8D 1_555 1_555
H7D C8D 1_555 1_555
C7GA C10GA 1_555 1_555
H9GA C10GA 1_555 1_555
C9GA C8R 1_555 1_555
H7R C8R 1_555 1_555
C7FA C10FA 1_555 1_555
H9FA C10FA 1_555 1_555
C9FA C8U 1_555 1_555
H7U C8U 1_555 1_555
C6O C7O 1_555 1_555
C8O C9 1_555 1_555
C6BA C7BA 1_555 1_555
C8BA C7BA 1_555 1_555
H8BA C9BA 1_555 1_555
C6N C7N 1_555 1_555
C8N C7N 1_555 1_555
H8C C9C 1_555 1_555
C6J C7J 1_555 1_555
C8J C7J 1_555 1_555
H8D C9D 1_555 1_555
C6GA C7GA 1_555 1_555
C8GA C7GA 1_555 1_555
H8GA C9GA 1_555 1_555
C6FA C7FA 1_555 1_555
C8FA C7FA 1_555 1_555
H8FA C9FA 1_555 1_555
N1O C6O 1_555 1_555
H6O C6O 1_555 1_555
H5O C6O 1_555 1_555
H7O C8O 1_555 1_555
N1BA C6BA 1_555 1_555
H6BA C6BA 1_555 1_555
H5BA C6BA 1_555 1_555
H7BA C8BA 1_555 1_555
N1N C6N 1_555 1_555
H6N C6N 1_555 1_555
H5N C6N 1_555 1_555
H7N C8N 1_555 1_555
N1J C6J 1_555 1_555
H6J C6J 1_555 1_555
H5J C6J 1_555 1_555
H7J C8J 1_555 1_555
N1GA C6GA 1_555 1_555
H6GA C6GA 1_555 1_555
H5GA C6GA 1_555 1_555
H7GA C8GA 1_555 1_555
N1FA C6FA 1_555 1_555
H6FA C6FA 1_555 1_555
H5FA C6FA 1_555 1_555
H7FA C8FA 1_555 1_555
C1O N1O 1_555 1_555
C5O N1O 1_555 1_555
C1BA N1BA 1_555 1_555
C5BA N1BA 1_555 1_555
C1N N1N 1_555 1_555
C5N N1N 1_555 1_555
C1J N1J 1_555 1_555
C5J N1J 1_555 1_555
C1GA N1GA 1_555 1_555
C5GA N1GA 1_555 1_555
C1FA N1FA 1_555 1_555
C5FA N1FA 1_555 1_555
O1O C1O 1_555 1_555
C2O C1O 1_555 1_555
C4O C5O 1_555 1_555
H4O C5O 1_555 1_555
C2BA C1BA 1_555 1_555
O1BA C1BA 1_555 1_555
C4BA C5BA 1_555 1_555
H4BA C5BA 1_555 1_555
C2N C1N 1_555 1_555
O1N C1N 1_555 1_555
C4N C5N 1_555 1_555
H4N C5N 1_555 1_555
C2J C1J 1_555 1_555
O1J C1J 1_555 1_555
C4J C5J 1_555 1_555
H4J C5J 1_555 1_555
C2GA C1GA 1_555 1_555
O1GA C1GA 1_555 1_555
C4GA C5GA 1_555 1_555
H4GA C5GA 1_555 1_555
C2FA C1FA 1_555 1_555
O1FA C1FA 1_555 1_555
C4FA C5FA 1_555 1_555
H4FA C5FA 1_555 1_555
Ni1CA O1O 1_555 1_555
C3O C2O 1_555 1_555
H1O C2O 1_555 1_555
H3O C4O 1_555 1_555
C3BA C2BA 1_555 1_555
H1BA C2BA 1_555 1_555
Ni1BA O1BA 1_555 1_555
H3BA C4BA 1_555 1_555
C3N C2N 1_555 1_555
H1N C2N 1_555 1_555
Ni1CA_2 O1N 1_555 1_555
H3N C4N 1_555 1_555
C3J C2J 1_555 1_555
H1J C2J 1_555 1_555
Ni1CA_3 O1J 1_555 1_555
H3J C4J 1_555 1_555
C3GA C2GA 1_555 1_555
H1GA C2GA 1_555 1_555
Ni1BA_2 O1GA 1_555 1_555
H3GA C4GA 1_555 1_555
C3FA C2FA 1_555 1_555
H1FA C2FA 1_555 1_555
Ni1BA_3 O1FA 1_555 1_555
H3FA C4FA 1_555 1_555
O1N_2 Ni1CA 1_555 1_555
O1CA Ni1CA 1_555 1_555
O1HA Ni1CA 1_555 1_555
O1IA Ni1CA 1_555 1_555
O1J_2 Ni1CA 1_555 1_555
H2O C3O 1_555 1_555
H2BA C3BA 1_555 1_555
H2N C3N 1_555 1_555
H2J C3J 1_555 1_555
H2GA C3GA 1_555 1_555
H2FA C3FA 1_555 1_555
O3D Cl1 1_555 1_555
O3C Cl1 1_555 1_555
C3V C4V 1_555 1_555
C3C C4C 1_555 1_555
C3D C4D 1_555 1_555
C3R C4R 1_555 1_555
C3U C4U 1_555 1_555
C7O C8O 1_555 1_555
C9BA C8BA 1_555 1_555
C9C C8N 1_555 1_555
C9D C8J 1_555 1_555
C9GA C8GA 1_555 1_555
C9FA C8FA 1_555 1_555
C4O C3O 1_555 1_555
C4BA C3BA 1_555 1_555
C4N C3N 1_555 1_555
C4J C3J 1_555 1_555
C4GA C3GA 1_555 1_555
C4FA C3FA 1_555 1_555

#END
