
#######################################################################
#
#                 Cambridge Crystallographic Data Centre
#                                CCDC 
#
#######################################################################
#
# If this CIF has been generated from an entry in the Cambridge 
# Structural Database, then it will include bibliographic, chemical, 
# crystal, experimental, refinement or atomic coordinate data resulting 
# from the CCDC's data processing and validation procedures.
#
#######################################################################

data_HERSED
_symmetry_cell_setting           monoclinic
_symmetry_space_group_name_H-M   'P 21/c'
_symmetry_Int_Tables_number      14
_space_group_name_Hall           '-P 2ybc'
loop_
_symmetry_equiv_pos_site_id
_symmetry_equiv_pos_as_xyz
1 x,y,z
2 -x,1/2+y,1/2-z
3 -x,-y,-z
4 x,1/2-y,1/2+z
_cell_length_a                   11.3751(18)
_cell_length_b                   16.015(3)
_cell_length_c                   16.499(3)
_cell_angle_alpha                90
_cell_angle_beta                 103.399(3)
_cell_angle_gamma                90
_cell_volume                     2923.85
loop_
_atom_site_label
_atom_site_type_symbol
_atom_site_fract_x
_atom_site_fract_y
_atom_site_fract_z
K1 K 0.60281(7) 0.47686(6) 0.77582(5)
N1 N 0.8311(3) 0.56431(19) 0.79843(17)
N2 N 0.7765(3) 0.40892(19) 0.90894(17)
N3 N 0.7667(3) 0.42111(19) 0.66586(17)
N4 N 0.9162(3) 0.5104(2) 0.78335(17)
N5 N 0.8889(3) 0.40528(19) 0.89365(17)
N6 N 0.8036(3) 0.37812(19) 0.73908(17)
N7 N 0.6082(3) 0.8452(2) 0.7462(2)
N8 N 0.5023(3) 0.4222(2) 1.1158(2)
N9 N 0.5454(4) 0.4465(3) 0.3637(2)
B1 B 0.9096(4) 0.4172(3) 0.8055(2)
H1 H 0.9854 0.3899 0.8021
C1 C 1.0730(4) 0.4996(3) 0.6979(3)
H2 H 1.0832 0.4442 0.7208
H3 H 1.1485 0.5290 0.7126
H4 H 1.0467 0.4964 0.6383
C2 C 0.9802(3) 0.5452(3) 0.7323(2)
C3 C 0.9387(4) 0.6245(3) 0.7156(2)
H5 H 0.9665 0.6641 0.6833
C4 C 0.8454(3) 0.6342(3) 0.7572(2)
C5 C 0.7658(3) 0.7068(2) 0.7564(2)
C6 C 0.7605(4) 0.7706(3) 0.6983(3)
H6 H 0.8103 0.7688 0.6610
C7 C 0.6821(4) 0.8359(3) 0.6959(3)
H7 H 0.6809 0.8769 0.6558
C8 C 0.6150(4) 0.7843(3) 0.8031(3)
H8 H 0.5653 0.7887 0.8404
C9 C 0.6904(4) 0.7155(3) 0.8104(3)
H9 H 0.6901 0.6755 0.8513
C10 C 1.1070(3) 0.3901(3) 0.9703(2)
H10 H 1.1209 0.3942 0.9152
H11 H 1.1370 0.3375 0.9945
H12 H 1.1483 0.4347 1.0042
C11 C 0.9741(3) 0.3960(2) 0.9658(2)
C12 C 0.9159(3) 0.3933(2) 1.0292(2)
H13 H 0.9508 0.3873 1.0857
C13 C 0.7932(3) 0.4012(2) 0.9919(2)
C14 C 0.6923(3) 0.4054(2) 1.0325(2)
C15 C 0.5723(3) 0.3903(2) 0.9922(2)
H14 H 0.5527 0.3747 0.9364
C16 C 0.4835(4) 0.3986(3) 1.0353(2)
H15 H 0.4045 0.3871 1.0070
C17 C 0.6180(4) 0.4350(3) 1.1536(2)
H16 H 0.6355 0.4500 1.2096
C18 C 0.7126(3) 0.4277(2) 1.1158(2)
H17 H 0.7909 0.4377 1.1462
C19 C 0.7764(4) 0.2393(3) 0.8030(2)
H18 H 0.8182 0.1918 0.7879
H19 H 0.7010 0.2216 0.8140
H20 H 0.8251 0.2650 0.8519
C20 C 0.7530(3) 0.3005(2) 0.7333(2)
C21 C 0.6795(4) 0.2936(3) 0.6546(2)
H21 H 0.6323 0.2480 0.6322
C22 C 0.6909(3) 0.3695(2) 0.6152(2)
C23 C 0.6383(3) 0.3970(2) 0.5296(2)
C24 C 0.6703(4) 0.4720(3) 0.4997(2)
H22 H 0.7240 0.5077 0.5344
C25 C 0.6222(5) 0.4936(3) 0.4181(3)
H23 H 0.6449 0.5447 0.3995
C26 C 0.5144(5) 0.3749(3) 0.3935(3)
H24 H 0.4604 0.3407 0.3572
C27 C 0.5565(4) 0.3472(3) 0.4743(3)
H25 H 0.5308 0.2965 0.4914
K1A K 0.39719(7) 0.97686(6) 0.72418(5)
K1B K 0.39719(7) 0.52314(6) 1.22418(5)
K1B_2 K 0.39719(7) 0.52314(6) 0.22418(5)
N7A N 0.3918(3) 0.3452(2) 0.7538(2)
N8B N 0.4977(3) 0.5778(2) 0.8842(2)
N9B N 0.4546(4) 0.5535(3) 0.6363(2)
N10 N 1.1501(8) 0.1609(6) 1.0091(5)
C28 C 0.9485(8) 0.1756(6) 1.0499(7)
H26 H 0.8908 0.1345 1.0236
H27 H 0.9178 0.2304 1.0333
H28 H 0.9621 0.1704 1.1094
C29 C 1.0565(9) 0.1636(6) 1.0261(6)
loop_
_geom_bond_atom_site_label_1
_geom_bond_atom_site_label_2
_geom_bond_site_symmetry_1
_geom_bond_site_symmetry_2
K1 N1 1_555 1_555
N1 N4 1_555 1_555
N2 K1 1_555 1_555
N3 K1 1_555 1_555
N4 B1 1_555 1_555
N5 N2 1_555 1_555
N6 K1 1_555 1_555
N7 C7 1_555 1_555
N8 C16 1_555 1_555
N9 C25 1_555 1_555
N10 C29 1_555 1_555
B1 N5 1_555 1_555
H1 B1 1_555 1_555
C1 H2 1_555 1_555
H3 C1 1_555 1_555
H4 C1 1_555 1_555
C2 N4 1_555 1_555
C3 C2 1_555 1_555
H5 C3 1_555 1_555
C4 N1 1_555 1_555
C5 C4 1_555 1_555
C6 C5 1_555 1_555
H6 C6 1_555 1_555
C7 C6 1_555 1_555
H7 C7 1_555 1_555
C8 N7 1_555 1_555
H8 C8 1_555 1_555
C9 C5 1_555 1_555
H9 C9 1_555 1_555
C10 H10 1_555 1_555
H11 C10 1_555 1_555
H12 C10 1_555 1_555
C11 N5 1_555 1_555
C12 C11 1_555 1_555
H13 C12 1_555 1_555
C13 N2 1_555 1_555
C14 C13 1_555 1_555
C15 C14 1_555 1_555
H14 C15 1_555 1_555
C16 C15 1_555 1_555
H15 C16 1_555 1_555
C17 N8 1_555 1_555
H16 C17 1_555 1_555
C18 C14 1_555 1_555
H17 C18 1_555 1_555
C19 H18 1_555 1_555
H19 C19 1_555 1_555
H20 C19 1_555 1_555
C20 N6 1_555 1_555
C21 C20 1_555 1_555
H21 C21 1_555 1_555
C22 N3 1_555 1_555
C23 C22 1_555 1_555
C24 C23 1_555 1_555
H22 C24 1_555 1_555
C25 C24 1_555 1_555
H23 C25 1_555 1_555
C26 N9 1_555 1_555
H24 C26 1_555 1_555
C27 C23 1_555 1_555
H25 C27 1_555 1_555
C28 H26 1_555 1_555
H27 C28 1_555 1_555
H28 C28 1_555 1_555
C29 C28 1_555 1_555
K1A N7 1_555 1_555
K1B N8 1_555 1_555
K1B_2 N9 1_555 1_555
N7A K1 1_555 1_555
N8B K1 1_555 1_555
N9B K1 1_555 1_555
N3 N6 1_555 1_555
N6 B1 1_555 1_555
C1 C2 1_555 1_555
C3 C4 1_555 1_555
C8 C9 1_555 1_555
C10 C11 1_555 1_555
C12 C13 1_555 1_555
C17 C18 1_555 1_555
C19 C20 1_555 1_555
C21 C22 1_555 1_555
C26 C27 1_555 1_555

#END
