
#######################################################################
#
#                 Cambridge Crystallographic Data Centre
#                                CCDC 
#
#######################################################################
#
# If this CIF has been generated from an entry in the Cambridge 
# Structural Database, then it will include bibliographic, chemical, 
# crystal, experimental, refinement or atomic coordinate data resulting 
# from the CCDC's data processing and validation procedures.
#
#######################################################################

data_HERYIN
_symmetry_cell_setting           triclinic
_symmetry_space_group_name_H-M   'P -1'
_symmetry_Int_Tables_number      2
_space_group_name_Hall           '-P 1'
loop_
_symmetry_equiv_pos_site_id
_symmetry_equiv_pos_as_xyz
1 x,y,z
2 -x,-y,-z
_cell_length_a                   5.81922(5)
_cell_length_b                   6.75684(6)
_cell_length_c                   10.16579(10)
_cell_angle_alpha                72.3184(8)
_cell_angle_beta                 86.0893(7)
_cell_angle_gamma                107.7370(6)
_cell_volume                     356.993
loop_
_atom_site_label
_atom_site_type_symbol
_atom_site_fract_x
_atom_site_fract_y
_atom_site_fract_z
Ca1 Ca 0.66431(27) 0.31806(27) 0.95013(16)
O1 O 0.8055(9) 0.1304(8) 1.1606(5)
O2 O 0.9197(8) 0.4846(8) 1.1514(4)
O3 O 1.2949(8) -0.0154(7) 1.1143(5)
O4 O 1.3421(8) 0.3061(7) 1.1392(5)
C1 C 1.0089(15) 0.0501(12) 1.4192(5)
C2 C 0.8995(13) 0.2059(11) 1.3704(8)
C3 C 0.8045(12) 0.2926(10) 1.4498(8)
C4 C 0.7609(12) 0.1961(12) 1.5956(7)
C5 C 1.1672(13) -0.0244(12) 1.3397(8)
C6 C 0.8791(13) 0.2749(12) 1.2125(8)
C7 C 1.2759(16) 0.1047(11) 1.1839(8)
O5 O 0.37803 0.29716 0.79585
H1 H 0.69454 0.40096 1.42138
H2 H 0.64083 0.26496 1.63809
H3 H 0.30011 0.41745 0.75085
H4 H 0.24375 0.1398 0.82342
Ca1A Ca 1.33569(27) -0.31806(27) 2.04987(16)
Ca1A_2 Ca 1.33569(27) 0.68194(27) 1.04987(16)
Ca1_2 Ca 1.66431(27) 0.31806(27) 0.95013(16)
Ca1A_3 Ca 1.33569(27) -0.31806(27) 1.04987(16)
Ca1_3 Ca 0.66431(27) -0.68194(27) 1.95013(16)
Ca1_4 Ca 0.66431(27) 0.31806(27) 1.95013(16)
Ca1A_4 Ca 0.33569(27) -0.31806(27) 2.04987(16)
O1A O 1.1945(9) -0.1304(8) 1.8394(5)
O2A O 1.0803(8) -0.4846(8) 1.8486(4)
O2A_2 O 1.0803(8) 0.5154(8) 0.8486(4)
O2_2 O 0.9197(8) -0.5154(8) 2.1514(4)
O3A O 0.7051(8) 0.0154(7) 1.8857(5)
O3_2 O 0.2949(8) -0.0154(7) 1.1143(5)
O3A_2 O 0.7051(8) 0.0154(7) 0.8857(5)
O3_3 O 1.2949(8) -0.0154(7) 2.1143(5)
O3A_3 O 1.7051(8) 0.0154(7) 1.8857(5)
O4A O 0.6579(8) -0.3061(7) 1.8608(5)
O4_2 O 0.3421(8) 0.3061(7) 1.1392(5)
O4A_2 O 0.6579(8) 0.6939(7) 0.8608(5)
O4_3 O 1.3421(8) -0.6939(7) 2.1392(5)
O4A_3 O 1.6579(8) -0.3061(7) 1.8608(5)
C1A C 0.9911(15) -0.0501(12) 1.5808(5)
C2A C 1.1005(13) -0.2059(11) 1.6296(8)
C3A C 1.1955(12) -0.2926(10) 1.5502(8)
C4A C 1.2391(12) -0.1961(12) 1.4044(7)
C5A C 0.8328(13) 0.0244(12) 1.6603(8)
C6A C 1.1209(13) -0.2749(12) 1.7875(8)
C7A C 0.7241(16) -0.1047(11) 1.8161(8)
O5A O 1.62197 -0.29716 2.20415
H1A H 1.30546 -0.40096 1.57862
H2A H 1.35917 -0.26496 1.36191
H3A H 1.69989 -0.41745 2.24915
H4A H 1.75625 -0.1398 2.17658
loop_
_geom_bond_atom_site_label_1
_geom_bond_atom_site_label_2
_geom_bond_site_symmetry_1
_geom_bond_site_symmetry_2
Ca1 O1 1_555 1_555
O1 C6 1_555 1_555
O2 C6 1_555 1_555
O3 C7 1_555 1_555
O4 C7 1_555 1_555
C1 C2 1_555 1_555
C2 C3 1_555 1_555
C3 C4 1_555 1_555
C4 H2 1_555 1_555
C5 C1 1_555 1_555
C6 C2 1_555 1_555
C7 C5 1_555 1_555
O5 Ca1 1_555 1_555
H1 C3 1_555 1_555
H3 O5 1_555 1_555
H4 O5 1_555 1_555
Ca1A O1A 1_555 1_555
Ca1A_2 O2 1_555 1_555
Ca1_2 O3 1_555 1_555
Ca1A_3 O3 1_555 1_555
Ca1_3 O2A 1_555 1_555
Ca1_4 O3A 1_555 1_555
Ca1A_4 O3A 1_555 1_555
O1A C6A 1_555 1_555
O2A C6A 1_555 1_555
O2A_2 Ca1 1_555 1_555
O2_2 Ca1A 1_555 1_555
O3A C7A 1_555 1_555
O3_2 Ca1 1_555 1_555
O3A_2 Ca1 1_555 1_555
O3_3 Ca1A 1_555 1_555
O3A_3 Ca1A 1_555 1_555
O4A Ca1_3 1_555 1_555
O4_2 Ca1 1_555 1_555
O4A_2 Ca1 1_555 1_555
O4_3 Ca1A 1_555 1_555
O4A_3 Ca1A 1_555 1_555
C1A C1 1_555 1_555
C2A C1A 1_555 1_555
C3A C2A 1_555 1_555
C4A C5 1_555 1_555
C5A C4 1_555 1_555
C6A C2A 1_555 1_555
C7A O4A 1_555 1_555
O5A Ca1A 1_555 1_555
H1A C3A 1_555 1_555
H2A C4A 1_555 1_555
H3A O5A 1_555 1_555
H4A O5A 1_555 1_555
O4 Ca1A_2 1_555 1_555
O4 Ca1_2 1_555 1_555
Ca1A_4 O4A 1_555 1_555
C1A C5A 1_555 1_555
C3A C4A 1_555 1_555
C5A C7A 1_555 1_555

#END
