
#######################################################################
#
#                 Cambridge Crystallographic Data Centre
#                                CCDC 
#
#######################################################################
#
# If this CIF has been generated from an entry in the Cambridge 
# Structural Database, then it will include bibliographic, chemical, 
# crystal, experimental, refinement or atomic coordinate data resulting 
# from the CCDC's data processing and validation procedures.
#
#######################################################################

data_HERYOT
_symmetry_cell_setting           orthorhombic
_symmetry_space_group_name_H-M   'P b a m'
_symmetry_Int_Tables_number      55
_space_group_name_Hall           '-P 2 2ab'
loop_
_symmetry_equiv_pos_site_id
_symmetry_equiv_pos_as_xyz
1 x,y,z
2 1/2+x,1/2-y,-z
3 1/2-x,1/2+y,-z
4 -x,-y,z
5 -x,-y,-z
6 1/2-x,1/2+y,z
7 1/2+x,1/2-y,z
8 x,y,-z
_cell_length_a                   9.773044(23)
_cell_length_b                   7.060516(17)
_cell_length_c                   9.879739(22)
_cell_angle_alpha                90
_cell_angle_beta                 90
_cell_angle_gamma                90
_cell_volume                     681.729
loop_
_atom_site_label
_atom_site_type_symbol
_atom_site_fract_x
_atom_site_fract_y
_atom_site_fract_z
Zn1 Zn 0.23957(9) 0.10239(12) 0.50000
O1 O 0.34757(26) 0.01714(32) 0.66597(25)
O2 O 0.39933(23) -0.29362(33) 0.64207(23)
C1 C 0.37733(29) -0.2960(5) 0.92653(29)
C2 C 0.43220(34) -0.1474(6) 0.85741(33)
C3 C 0.50000 0.00000 0.9298(4)
C4 C 0.39609(35) -0.1290(7) 0.7073(4)
O3 O 0.37981 0.33148 0.50000
H1 H 0.31831 -0.41832 0.8951
H2 H 0.44125 0.31648 0.41348
H3 H 0.44125 0.31648 0.58652
Zn1C Zn 0.76043(9) -0.10239(12) 0.50000
Zn1B Zn 0.26043(9) -0.39761(12) 0.50000
Zn1B_2 Zn 0.26043(9) 0.60239(12) 0.50000
Zn1A Zn 0.73957(9) 0.39761(12) 0.50000
Zn1C_2 Zn 0.76043(9) -0.10239(12) 1.50000
Zn1A_2 Zn 0.73957(9) 0.39761(12) 1.50000
Zn1_2 Zn 0.23957(9) 0.10239(12) 1.50000
Zn1B_3 Zn 0.26043(9) -0.39761(12) 1.50000
O1C O 0.65243(26) -0.01714(32) 0.66597(25)
O1D O 0.65243(26) -0.01714(32) 1.33403(25)
O1G O 0.34757(26) 0.01714(32) 1.33403(25)
O1G_2 O 0.34757(26) 0.01714(32) 0.33403(25)
O1D_2 O 0.65243(26) -0.01714(32) 0.33403(25)
O2C O 0.60067(23) 0.29362(33) 0.64207(23)
O2D O 0.60067(23) 0.29362(33) 1.35793(23)
O2G O 0.39933(23) -0.29362(33) 1.35793(23)
O2E O 0.10067(23) 0.20638(33) 0.64207(23)
O2B O 0.10067(23) 0.20638(33) 0.35793(23)
O2F O 0.89933(23) -0.20638(33) 0.64207(23)
O2A O 0.89933(23) -0.20638(33) 0.35793(23)
C1G C 0.37733(29) -0.2960(5) 1.07347(29)
C1D C 0.62267(29) 0.2960(5) 1.07347(29)
C1C C 0.62267(29) 0.2960(5) 0.92653(29)
C2G C 0.43220(34) -0.1474(6) 1.14259(33)
C2D C 0.56780(34) 0.1474(6) 1.14259(33)
C2C C 0.56780(34) 0.1474(6) 0.85741(33)
C3D C 0.50000 0.00000 1.0702(4)
C4C C 0.60391(35) 0.1290(7) 0.7073(4)
C4D C 0.60391(35) 0.1290(7) 1.2927(4)
C4G C 0.39609(35) -0.1290(7) 1.2927(4)
O3B O 0.12019 -0.16852 0.50000
O3A O 0.87981 0.16852 0.50000
O3C O 0.62019 -0.33148 0.50000
H1C H 0.68169 0.41832 0.8951
H1D H 0.68169 0.41832 1.1049
H1G H 0.31831 -0.41832 1.1049
H2B H 0.05875 -0.18352 0.58652
H2F H 0.94125 0.18352 0.41348
H2A H 0.94125 0.18352 0.58652
H2D H 0.55875 -0.31648 0.58652
H2C H 0.55875 -0.31648 0.41348
H3B H 0.05875 -0.18352 0.41348
loop_
_geom_bond_atom_site_label_1
_geom_bond_atom_site_label_2
_geom_bond_site_symmetry_1
_geom_bond_site_symmetry_2
Zn1 O1 1_555 1_555
O1 C4 1_555 1_555
O2 C4 1_555 1_555
C1 C2 1_555 1_555
C2 C3 1_555 1_555
C3 C2C 1_555 1_555
C4 C2 1_555 1_555
O3 Zn1 1_555 1_555
H1 C1 1_555 1_555
H2 O3 1_555 1_555
H3 O3 1_555 1_555
Zn1C O1C 1_555 1_555
Zn1B O2 1_555 1_555
Zn1B_2 O3 1_555 1_555
Zn1A O2C 1_555 1_555
Zn1C_2 O1D 1_555 1_555
Zn1A_2 O2D 1_555 1_555
Zn1_2 O1G 1_555 1_555
Zn1B_3 O2G 1_555 1_555
O1C C4C 1_555 1_555
O1D C4D 1_555 1_555
O1G C4G 1_555 1_555
O1G_2 Zn1 1_555 1_555
O1D_2 Zn1C 1_555 1_555
O2C C4C 1_555 1_555
O2D C4D 1_555 1_555
O2G C4G 1_555 1_555
O2E Zn1 1_555 1_555
O2B Zn1 1_555 1_555
O2F Zn1C 1_555 1_555
O2A Zn1C 1_555 1_555
C1G C1 1_555 1_555
C1D C1C 1_555 1_555
C1C C2C 1_555 1_555
C2G C1G 1_555 1_555
C2D C1D 1_555 1_555
C2C C4C 1_555 1_555
C3D C3 1_555 1_555
C4D C2D 1_555 1_555
C4G C2G 1_555 1_555
O3B Zn1 1_555 1_555
O3A Zn1C 1_555 1_555
O3C Zn1C 1_555 1_555
H1C C1C 1_555 1_555
H1D C1D 1_555 1_555
H1G C1G 1_555 1_555
H2B O3B 1_555 1_555
H2F O3A 1_555 1_555
H2A O3A 1_555 1_555
H2D O3C 1_555 1_555
H2C O3C 1_555 1_555
H3B O3B 1_555 1_555
Zn1B O3B 1_555 1_555
Zn1A O3A 1_555 1_555
C2G C3D 1_555 1_555
C2D C3D 1_555 1_555

#END
