
#######################################################################
#
#                 Cambridge Crystallographic Data Centre
#                                CCDC 
#
#######################################################################
#
# If this CIF has been generated from an entry in the Cambridge 
# Structural Database, then it will include bibliographic, chemical, 
# crystal, experimental, refinement or atomic coordinate data resulting 
# from the CCDC's data processing and validation procedures.
#
#######################################################################

data_HERZUZ
_symmetry_cell_setting           orthorhombic
_symmetry_space_group_name_H-M   'P b c a'
_symmetry_Int_Tables_number      61
_space_group_name_Hall           '-P 2ac 2ab'
loop_
_symmetry_equiv_pos_site_id
_symmetry_equiv_pos_as_xyz
1 x,y,z
2 1/2-x,-y,1/2+z
3 1/2+x,1/2-y,-z
4 -x,1/2+y,1/2-z
5 -x,-y,-z
6 1/2+x,y,1/2-z
7 1/2-x,1/2+y,z
8 x,1/2-y,1/2+z
_cell_length_a                   6.684(4)
_cell_length_b                   19.8286(12)
_cell_length_c                   6.0847(4)
_cell_angle_alpha                90
_cell_angle_beta                 90
_cell_angle_gamma                90
_cell_volume                     806.432
loop_
_atom_site_label
_atom_site_type_symbol
_atom_site_fract_x
_atom_site_fract_y
_atom_site_fract_z
Cu1 Cu 0.18674(20) 0.49429(13) 0.23820(70)
N1 N 0.1781(12) 0.57841(10) 0.37320(80)
N2 N 0.2563(14) 0.41610(7) 0.08750(80)
C1 C 0.2699(11) 0.34922(8) 0.1485(11)
C2 C 0.3421(11) 0.31328(6) -0.0289(14)
C3 C 0.1227(10) 0.64182(12) 0.3021(12)
N2A N 0.2437(14) 0.58390(7) 0.58750(80)
N1A N 0.3219(12) 0.42159(10) -0.12680(80)
C3A C 0.3773(10) 0.35818(12) -0.1979(12)
C2A C 0.1579(11) 0.68672(6) 0.4711(14)
Cu1A Cu 0.31326(20) 0.50571(13) 0.73820(70)
C1A C 0.2301(11) 0.65078(8) 0.6485(11)
Cu1A_2 Cu 0.31326(20) 0.50571(13) -0.26180(70)
N1A_2 N 0.3219(12) 0.42159(10) 0.87320(80)
loop_
_geom_bond_atom_site_label_1
_geom_bond_atom_site_label_2
_geom_bond_site_symmetry_1
_geom_bond_site_symmetry_2
Cu1 N1 1_555 1_555
N1 C3 1_555 1_555
N2 Cu1 1_555 1_555
C1 N2 1_555 1_555
C2 C1 1_555 1_555
C3 C2A 1_555 1_555
N2A N1 1_555 1_555
N1A N2 1_555 1_555
C3A C2 1_555 1_555
C2A C1A 1_555 1_555
Cu1A N2A 1_555 1_555
C1A N2A 1_555 1_555
Cu1A_2 N1A 1_555 1_555
N1A_2 Cu1A 1_555 1_555
N1A C3A 1_555 1_555

#END
