
#######################################################################
#
#                 Cambridge Crystallographic Data Centre
#                                CCDC 
#
#######################################################################
#
# If this CIF has been generated from an entry in the Cambridge 
# Structural Database, then it will include bibliographic, chemical, 
# crystal, experimental, refinement or atomic coordinate data resulting 
# from the CCDC's data processing and validation procedures.
#
#######################################################################

data_HESBUC
_symmetry_cell_setting           orthorhombic
_symmetry_space_group_name_H-M   'P b c n'
_symmetry_Int_Tables_number      60
_space_group_name_Hall           '-P 2n 2ab'
loop_
_symmetry_equiv_pos_site_id
_symmetry_equiv_pos_as_xyz
1 x,y,z
2 1/2-x,1/2+y,z
3 x,-y,1/2+z
4 1/2-x,1/2-y,1/2+z
5 -x,-y,-z
6 1/2+x,1/2-y,-z
7 -x,y,1/2-z
8 1/2+x,1/2+y,1/2-z
_cell_length_a                   13.149(14)
_cell_length_b                   10.5702(10)
_cell_length_c                   8.7921(9)
_cell_angle_alpha                90
_cell_angle_beta                 90
_cell_angle_gamma                90
_cell_volume                     1221.99
loop_
_atom_site_label
_atom_site_type_symbol
_atom_site_fract_x
_atom_site_fract_y
_atom_site_fract_z
Ag1 Ag 0.50000 0.11730(40) 0.25000
Ag2 Ag 0.59254(31) -0.16150(31) 0.11100
N1 N 0.6194(18) 0.1122(27) 0.0680(19)
N2 N 0.6648(20) 0.0070(17) 0.0044(25)
C1 C 0.6676(20) 0.2180(17) 0.0108(27)
C2 C 0.7351(18) 0.1787(23) -0.0997(30)
C3 C 0.7337(17) 0.0483(23) -0.1033(27)
N3 N 0.5324(10) -0.3374(20) 0.1882(12)
C4 C 0.5486(17) -0.4615(20) 0.1460(18)
C5 C 0.50000 -0.5383(20) 0.25000
N3F N 0.4676(10) -0.3374(20) 0.3118(12)
C4F C 0.4514(17) -0.4615(20) 0.3540(18)
N1F N 0.3806(18) 0.1122(27) 0.4320(19)
N2F N 0.3352(20) 0.0070(17) 0.4956(25)
C1F C 0.3324(20) 0.2180(17) 0.4892(27)
C2F C 0.2649(18) 0.1787(23) 0.5997(30)
C3F C 0.2663(17) 0.0483(23) 0.6033(27)
Ag2F Ag 0.40746(31) -0.16150(31) 0.38900
Ag2B Ag 0.59254(31) 0.16150(31) 0.61100
Ag2D Ag 0.40746(31) 0.16150(31) -0.11100
Ag1B Ag 0.50000 -0.11730(40) -0.25000
Ag1B_2 Ag 0.50000 -0.11730(40) 0.75000
loop_
_geom_bond_atom_site_label_1
_geom_bond_atom_site_label_2
_geom_bond_site_symmetry_1
_geom_bond_site_symmetry_2
Ag1 Ag2 1_555 1_555
Ag2 N2 1_555 1_555
N1 Ag1 1_555 1_555
N2 N1 1_555 1_555
C1 N1 1_555 1_555
C2 C1 1_555 1_555
C3 N2 1_555 1_555
N3 Ag2 1_555 1_555
C4 N3 1_555 1_555
C5 C4 1_555 1_555
N3F N3 1_555 1_555
C4F C5 1_555 1_555
N1F Ag1 1_555 1_555
N2F N1F 1_555 1_555
C1F N1F 1_555 1_555
C2F C1F 1_555 1_555
C3F N2F 1_555 1_555
Ag2F Ag1 1_555 1_555
Ag2B Ag1 1_555 1_555
Ag2D Ag1 1_555 1_555
Ag1B Ag2 1_555 1_555
Ag1B_2 Ag2F 1_555 1_555
Ag2 Ag2F 1_555 1_555
C2 C3 1_555 1_555
N3F C4F 1_555 1_555
N3F Ag2F 1_555 1_555
N2F Ag2F 1_555 1_555
C2F C3F 1_555 1_555
Ag2B Ag1B_2 1_555 1_555
Ag2D Ag1B 1_555 1_555

#END
