
#######################################################################
#
#                 Cambridge Crystallographic Data Centre
#                                CCDC 
#
#######################################################################
#
# If this CIF has been generated from an entry in the Cambridge 
# Structural Database, then it will include bibliographic, chemical, 
# crystal, experimental, refinement or atomic coordinate data resulting 
# from the CCDC's data processing and validation procedures.
#
#######################################################################

data_HESBAI
_symmetry_cell_setting           orthorhombic
_symmetry_space_group_name_H-M   'P b c a'
_symmetry_Int_Tables_number      61
_space_group_name_Hall           '-P 2ac 2ab'
loop_
_symmetry_equiv_pos_site_id
_symmetry_equiv_pos_as_xyz
1 x,y,z
2 1/2-x,1/2+y,z
3 x,1/2-y,1/2+z
4 1/2-x,-y,1/2+z
5 -x,-y,-z
6 1/2+x,1/2-y,-z
7 -x,1/2+y,1/2-z
8 1/2+x,y,1/2-z
_cell_length_a                   6.5295(4)
_cell_length_b                   20.0586(15)
_cell_length_c                   6.4675(4)
_cell_angle_alpha                90
_cell_angle_beta                 90
_cell_angle_gamma                90
_cell_volume                     847.065
loop_
_atom_site_label
_atom_site_type_symbol
_atom_site_fract_x
_atom_site_fract_y
_atom_site_fract_z
Ag1 Ag 0.16997(24) -0.50457(12) 0.23190(50)
N1 N 0.1602(21) -0.41984(17) 0.38570(90)
N2 N 0.2456(23) -0.41482(11) 0.5803(10)
C1 C 0.2380(17) -0.34877(10) 0.6396(11)
C2 C 0.1437(21) -0.31323(13) 0.4836(16)
C3 C 0.0957(18) -0.35715(16) 0.3267(12)
N2C N 0.2544(23) -0.58518(11) 0.0803(10)
Ag1C Ag 0.33003(24) -0.49543(12) 0.73190(50)
loop_
_geom_bond_atom_site_label_1
_geom_bond_atom_site_label_2
_geom_bond_site_symmetry_1
_geom_bond_site_symmetry_2
Ag1 N1 1_555 1_555
N1 N2 1_555 1_555
N2 C1 1_555 1_555
C1 C2 1_555 1_555
C2 C3 1_555 1_555
C3 N1 1_555 1_555
N2C Ag1 1_555 1_555
Ag1C N2 1_555 1_555

#END
