
#######################################################################
#
#                 Cambridge Crystallographic Data Centre
#                                CCDC 
#
#######################################################################
#
# If this CIF has been generated from an entry in the Cambridge 
# Structural Database, then it will include bibliographic, chemical, 
# crystal, experimental, refinement or atomic coordinate data resulting 
# from the CCDC's data processing and validation procedures.
#
#######################################################################

data_HESBEM
_symmetry_cell_setting           orthorhombic
_symmetry_space_group_name_H-M   'P b c a'
_symmetry_Int_Tables_number      61
_space_group_name_Hall           '-P 2ac 2ab'
loop_
_symmetry_equiv_pos_site_id
_symmetry_equiv_pos_as_xyz
1 x,y,z
2 1/2-x,1/2+y,z
3 x,1/2-y,1/2+z
4 1/2-x,-y,1/2+z
5 -x,-y,-z
6 1/2+x,1/2-y,-z
7 -x,1/2+y,1/2-z
8 1/2+x,y,1/2-z
_cell_length_a                   6.5765(4)
_cell_length_b                   20.0606(12)
_cell_length_c                   6.2743(4)
_cell_angle_alpha                90
_cell_angle_beta                 90
_cell_angle_gamma                90
_cell_volume                     827.759
loop_
_atom_site_label
_atom_site_type_symbol
_atom_site_fract_x
_atom_site_fract_y
_atom_site_fract_z
Ag1 Ag 0.17563(22) 0.49636(17) 0.23530(60)
N1 N 0.1647(16) 0.57892(14) 0.38650(90)
N2 N 0.2494(17) 0.58316(10) 0.58720(90)
C1 C 0.2385(12) 0.64877(12) 0.6523(12)
C2 C 0.1578(16) 0.68563(8) 0.4870(16)
C3 C 0.1160(11) 0.64263(16) 0.3211(12)
N2C N 0.2506(17) 0.41684(10) 0.08720(90)
Ag1C Ag 0.32437(22) 0.50364(17) 0.73530(60)
loop_
_geom_bond_atom_site_label_1
_geom_bond_atom_site_label_2
_geom_bond_site_symmetry_1
_geom_bond_site_symmetry_2
Ag1 N1 1_555 1_555
N1 N2 1_555 1_555
N2 C1 1_555 1_555
C1 C2 1_555 1_555
C2 C3 1_555 1_555
C3 N1 1_555 1_555
N2C Ag1 1_555 1_555
Ag1C N2 1_555 1_555

#END
