
#######################################################################
#
#                 Cambridge Crystallographic Data Centre
#                                CCDC 
#
#######################################################################
#
# If this CIF has been generated from an entry in the Cambridge 
# Structural Database, then it will include bibliographic, chemical, 
# crystal, experimental, refinement or atomic coordinate data resulting 
# from the CCDC's data processing and validation procedures.
#
#######################################################################

data_HESBAI01
_symmetry_cell_setting           orthorhombic
_symmetry_space_group_name_H-M   'P b c a'
_symmetry_Int_Tables_number      61
_space_group_name_Hall           '-P 2ac 2ab'
loop_
_symmetry_equiv_pos_site_id
_symmetry_equiv_pos_as_xyz
1 x,y,z
2 1/2-x,-y,1/2+z
3 -x,1/2+y,1/2-z
4 1/2+x,1/2-y,-z
5 -x,-y,-z
6 1/2+x,y,1/2-z
7 x,1/2-y,1/2+z
8 1/2-x,1/2+y,z
_cell_length_a                   6.4084(13)
_cell_length_b                   6.4989(13)
_cell_length_c                   19.948(4)
_cell_angle_alpha                90
_cell_angle_beta                 90
_cell_angle_gamma                90
_cell_volume                     830.785
loop_
_atom_site_label
_atom_site_type_symbol
_atom_site_fract_x
_atom_site_fract_y
_atom_site_fract_z
Ag1 Ag 0.23552(5) 0.32951(6) 1.004623(15)
N1 N 0.3965(5) 0.3598(6) 0.91516(17)
N2 N 0.5800(5) 0.2552(6) 0.90915(17)
C1 C 0.3418(7) 0.4213(7) 0.8548(2)
H1 H 0.2217 0.4958 0.8450
C2 C 0.4861(7) 0.3606(7) 0.8087(2)
H2 H 0.4851 0.3836 0.7627
C3 C 0.6325(7) 0.2581(7) 0.8457(2)
H3 H 0.7528 0.1986 0.8282
Ag1C Ag 0.73552(5) 0.17049(6) 0.995377(15)
N2C N 0.0800(5) 0.2448(6) 1.09085(17)
loop_
_geom_bond_atom_site_label_1
_geom_bond_atom_site_label_2
_geom_bond_site_symmetry_1
_geom_bond_site_symmetry_2
Ag1 N1 1_555 1_555
N1 N2 1_555 1_555
N2 C3 1_555 1_555
C1 N1 1_555 1_555
H1 C1 1_555 1_555
C2 C1 1_555 1_555
H2 C2 1_555 1_555
C3 C2 1_555 1_555
H3 C3 1_555 1_555
Ag1C N2 1_555 1_555
N2C Ag1 1_555 1_555

#END
