
#######################################################################
#
#                 Cambridge Crystallographic Data Centre
#                                CCDC 
#
#######################################################################
#
# If this CIF has been generated from an entry in the Cambridge 
# Structural Database, then it will include bibliographic, chemical, 
# crystal, experimental, refinement or atomic coordinate data resulting 
# from the CCDC's data processing and validation procedures.
#
#######################################################################

data_HESBOW
_symmetry_cell_setting           orthorhombic
_symmetry_space_group_name_H-M   'P b c n'
_symmetry_Int_Tables_number      60
_space_group_name_Hall           '-P 2n 2ab'
loop_
_symmetry_equiv_pos_site_id
_symmetry_equiv_pos_as_xyz
1 x,y,z
2 1/2-x,1/2+y,z
3 x,-y,1/2+z
4 1/2-x,1/2-y,1/2+z
5 -x,-y,-z
6 1/2+x,1/2-y,-z
7 -x,y,1/2-z
8 1/2+x,1/2+y,1/2-z
_cell_length_a                   9.9332(15)
_cell_length_b                   13.3481(16)
_cell_length_c                   5.9538(8)
_cell_angle_alpha                90
_cell_angle_beta                 90
_cell_angle_gamma                90
_cell_volume                     789.41
loop_
_atom_site_label
_atom_site_type_symbol
_atom_site_fract_x
_atom_site_fract_y
_atom_site_fract_z
Cu1 Cu 0.00000 0.35063(30) -0.25000
Cu2 Cu 0.00000 0.42669(30) 0.25000
N1 N 0.16345(24) 0.3578(13) -0.0984(10)
N2 N 0.16451(10) 0.3995(11) 0.11380(90)
C1 C 0.29696(8) 0.4107(11) 0.1791(10)
C2 C 0.37766(15) 0.3737(14) 0.0096(13)
C3 C 0.29517(26) 0.3416(12) -0.1624(10)
N1F N -0.16345(24) 0.3578(13) -0.4016(10)
N2F N -0.16451(10) 0.3995(11) -0.61380(90)
C1F C -0.29696(8) 0.4107(11) -0.6791(10)
C2F C -0.37766(15) 0.3737(14) -0.5096(13)
C3F C -0.29517(26) 0.3416(12) -0.3376(10)
Cu2_2 Cu 0.00000 0.42669(30) -0.75000
Cu2B Cu 0.00000 0.57331(30) -0.25000
Cu1_2 Cu 0.00000 0.35063(30) 0.75000
Cu1B Cu 0.00000 0.64937(30) 0.25000
N2F_2 N -0.16451(10) 0.3995(11) 0.38620(90)
loop_
_geom_bond_atom_site_label_1
_geom_bond_atom_site_label_2
_geom_bond_site_symmetry_1
_geom_bond_site_symmetry_2
Cu1 Cu2 1_555 1_555
Cu2 N2 1_555 1_555
N1 Cu1 1_555 1_555
N2 N1 1_555 1_555
C1 N2 1_555 1_555
C2 C1 1_555 1_555
C3 N1 1_555 1_555
N1F Cu1 1_555 1_555
N2F N1F 1_555 1_555
C1F N2F 1_555 1_555
C2F C1F 1_555 1_555
C3F N1F 1_555 1_555
Cu2_2 Cu1 1_555 1_555
Cu2B Cu1 1_555 1_555
Cu1_2 Cu2 1_555 1_555
Cu1B Cu2 1_555 1_555
N2F_2 Cu2 1_555 1_555
C2 C3 1_555 1_555
N2F Cu2_2 1_555 1_555
C2F C3F 1_555 1_555
Cu2B Cu1B 1_555 1_555

#END
