
#######################################################################
#
#                 Cambridge Crystallographic Data Centre
#                                CCDC 
#
#######################################################################
#
# If this CIF has been generated from an entry in the Cambridge 
# Structural Database, then it will include bibliographic, chemical, 
# crystal, experimental, refinement or atomic coordinate data resulting 
# from the CCDC's data processing and validation procedures.
#
#######################################################################

data_HESJUK
_symmetry_cell_setting           monoclinic
_symmetry_space_group_name_H-M   'C 2/c'
_symmetry_Int_Tables_number      15
_space_group_name_Hall           '-C 2yn'
loop_
_symmetry_equiv_pos_site_id
_symmetry_equiv_pos_as_xyz
1 x,y,z
2 -x,y,1/2-z
3 1/2+x,1/2+y,z
4 1/2-x,1/2+y,1/2-z
5 -x,-y,-z
6 x,-y,1/2+z
7 1/2-x,1/2-y,-z
8 1/2+x,1/2-y,1/2+z
_cell_length_a                   15.056(6)
_cell_length_b                   6.917(2)
_cell_length_c                   18.235(9)
_cell_angle_alpha                90
_cell_angle_beta                 104.06(4)
_cell_angle_gamma                90
_cell_volume                     1842.14
loop_
_atom_site_label
_atom_site_type_symbol
_atom_site_fract_x
_atom_site_fract_y
_atom_site_fract_z
Cu1 Cu 0.2500 1.2500 0.0000
O1 O 0.2686(2) 0.9917(4) 0.0442(2)
O2 O 0.1691(2) 1.1204(4) -0.0846(2)
O3 O 0.0928(2) 0.6250(5) -0.1372(2)
C1 C 0.2463(4) 0.8516(6) -0.0153(2)
H1 H 0.2931(4) 0.8630(6) -0.0426(2)
C2 C 0.1592(4) 0.9192(6) -0.0688(3)
H2 H 0.1127(4) 0.9128(6) -0.0410(3)
C3 C 0.1204(4) 0.8205(7) -0.1419(3)
H3 H 0.0684(4) 0.8930(7) -0.1689(3)
H4 H 0.1653(4) 0.8239(7) -0.1713(3)
H5 H 0.1237(30) 0.5818(82) -0.1123(24)
C1F C 0.2537(4) 0.6484(6) 0.0153(2)
O1F O 0.2314(2) 0.5083(4) -0.0442(2)
Cu1F Cu 0.2500 0.2500 0.0000
O2F O 0.3309(2) 0.3796(4) 0.0846(2)
C2F C 0.3408(4) 0.5808(6) 0.0688(3)
H1F H 0.2069(4) 0.6370(6) 0.0426(2)
H2F H 0.3873(4) 0.5872(6) 0.0410(3)
C3F C 0.3796(4) 0.6795(7) 0.1419(3)
O3F O 0.4072(2) 0.8750(5) 0.1372(2)
H5F H 0.3763(30) 0.9182(82) 0.1123(24)
H3F H 0.4316(4) 0.6070(7) 0.1689(3)
H4F H 0.3347(4) 0.6761(7) 0.1713(3)
O1F_2 O 0.2314(2) 1.5083(4) -0.0442(2)
O2F_2 O 0.3309(2) 1.3796(4) 0.0846(2)
O4 O 0.0083(3) 0.2689(5) -0.0848(2)
H6 H 0.0469(48) 0.2312(85) -0.0909(34)
H7 H -0.0265(27) 0.2140(75) -0.0958(32)
O5 O -0.0835(3) 0.6735(6) -0.0687(3)
H8 H -0.0535(43) 0.6793(87) -0.0285(35)
H9 H -0.1016(45) 0.7621(89) -0.0902(35)
O6 O -0.1134(3) 0.4991(6) -0.2259(2)
H10 H -0.1391(36) 0.4244(57) -0.2331(33)
H11 H -0.1010(43) 0.5321(88) -0.2584(34)
O7 O 0.1430(3) 0.9712(6) 0.1321(2)
H12 H 0.1634(39) 0.9464(79) 0.1791(35)
H13 H 0.1658(39) 0.9644(93) 0.1070(27)
O8 O 0.2864(3) 0.3249(6) 0.2190(2)
H14 H 0.2960(43) 0.3384(89) 0.1870(18)
H15 H 0.2434(11) 0.3206(95) 0.2166(34)
Li1 Li -0.0246(6) 0.5165(12) -0.1299(5)
loop_
_geom_bond_atom_site_label_1
_geom_bond_atom_site_label_2
_geom_bond_site_symmetry_1
_geom_bond_site_symmetry_2
Cu1 O1 1_555 1_555
O1 C1 1_555 1_555
O2 Cu1 1_555 1_555
O3 C3 1_555 1_555
O4 H6 1_555 1_555
O5 H8 1_555 1_555
O6 H10 1_555 1_555
O7 H12 1_555 1_555
O8 H14 1_555 1_555
C1 H1 1_555 1_555
C2 O2 1_555 1_555
H2 C2 1_555 1_555
C3 C2 1_555 1_555
H3 C3 1_555 1_555
H4 C3 1_555 1_555
H5 O3 1_555 1_555
H7 O4 1_555 1_555
H9 O5 1_555 1_555
H11 O6 1_555 1_555
H13 O7 1_555 1_555
H15 O8 1_555 1_555
C1F C1 1_555 1_555
O1F C1F 1_555 1_555
Cu1F O1F 1_555 1_555
O2F Cu1F 1_555 1_555
C2F C1F 1_555 1_555
H1F C1F 1_555 1_555
H2F C2F 1_555 1_555
C3F C2F 1_555 1_555
O3F C3F 1_555 1_555
H5F O3F 1_555 1_555
H3F C3F 1_555 1_555
H4F C3F 1_555 1_555
O1F_2 Cu1 1_555 1_555
O2F_2 Cu1 1_555 1_555
C1 C2 1_555 1_555
O2F C2F 1_555 1_555

#END
