
#######################################################################
#
#                 Cambridge Crystallographic Data Centre
#                                CCDC 
#
#######################################################################
#
# If this CIF has been generated from an entry in the Cambridge 
# Structural Database, then it will include bibliographic, chemical, 
# crystal, experimental, refinement or atomic coordinate data resulting 
# from the CCDC's data processing and validation procedures.
#
#######################################################################

data_HESKIZ
_symmetry_cell_setting           triclinic
_symmetry_space_group_name_H-M   'P -1'
_symmetry_Int_Tables_number      2
_space_group_name_Hall           '-P 1'
loop_
_symmetry_equiv_pos_site_id
_symmetry_equiv_pos_as_xyz
1 x,y,z
2 -x,-y,-z
_cell_length_a                   7.6720(9)
_cell_length_b                   7.780(2)
_cell_length_c                   5.1082(7)
_cell_angle_alpha                99.89(2)
_cell_angle_beta                 98.41(1)
_cell_angle_gamma                100.25(2)
_cell_volume                     290.616
loop_
_atom_site_label
_atom_site_type_symbol
_atom_site_fract_x
_atom_site_fract_y
_atom_site_fract_z
C1 C 1.4534(3) -0.1331(4) 0.7509(5)
Cu1 Cu 1.0000 0.0000 1.0000
Cl1 Cl 1.40014(9) -0.2887(1) 0.4511(1)
O1 O 1.1513(2) -0.1223(3) 0.7716(4)
O2 O 1.2354(3) 0.1088(3) 1.2302(4)
O3 O 1.0291(4) 0.2299(4) 0.7761(5)
C2 C 1.3177(3) -0.0724(4) 0.8659(5)
C3 C 1.3661(3) 0.0649(4) 1.1321(5)
C4 C 1.1601(7) 0.3847(6) 0.810(1)
H1 H 1.2738 0.3558 0.7934
H2 H 1.1277 0.4513 0.6784
H3 H 1.1703 0.4568 0.9865
H4 H 0.9503 0.2124 0.5820
O3A O 0.9709(4) -0.2299(4) 1.2239(5)
O2A O 0.7646(3) -0.1088(3) 0.7698(4)
O1A O 0.8487(2) 0.1223(3) 1.2284(4)
C4A C 0.8399(7) -0.3847(6) 1.190(1)
H4A H 1.0497 -0.2124 1.4180
C1A C 1.5466(3) 0.1331(4) 1.2491(5)
H3A H 0.8297 -0.4568 1.0135
H1A H 0.7262 -0.3558 1.2066
H2A H 0.8723 -0.4513 1.3216
C2A C 1.6823(3) 0.0724(4) 1.1341(5)
Cl1A Cl 1.59986(9) 0.2887(1) 1.5489(1)
C3A C 1.6339(3) -0.0649(4) 0.8679(5)
O1A_2 O 1.8487(2) 0.1223(3) 1.2284(4)
O2A_2 O 1.7646(3) -0.1088(3) 0.7698(4)
Cu1_2 Cu 2.0000 0.0000 1.0000
loop_
_geom_bond_atom_site_label_1
_geom_bond_atom_site_label_2
_geom_bond_site_symmetry_1
_geom_bond_site_symmetry_2
C1 Cl1 1_555 1_555
Cu1 O1 1_555 1_555
O1 C2 1_555 1_555
O2 Cu1 1_555 1_555
O3 Cu1 1_555 1_555
C2 C1 1_555 1_555
C3 O2 1_555 1_555
C4 O3 1_555 1_555
H1 C4 1_555 1_555
H2 C4 1_555 1_555
H3 C4 1_555 1_555
H4 O3 1_555 1_555
O3A Cu1 1_555 1_555
O2A Cu1 1_555 1_555
O1A Cu1 1_555 1_555
C4A O3A 1_555 1_555
H4A O3A 1_555 1_555
C1A C3 1_555 1_555
H3A C4A 1_555 1_555
H1A C4A 1_555 1_555
H2A C4A 1_555 1_555
C2A C1A 1_555 1_555
Cl1A C1A 1_555 1_555
C3A C1 1_555 1_555
O1A_2 C2A 1_555 1_555
O2A_2 C3A 1_555 1_555
Cu1_2 O1A_2 1_555 1_555
C2 C3 1_555 1_555
C2A C3A 1_555 1_555
O2A_2 Cu1_2 1_555 1_555

#END
