
#######################################################################
#
#                 Cambridge Crystallographic Data Centre
#                                CCDC 
#
#######################################################################
#
# If this CIF has been generated from an entry in the Cambridge 
# Structural Database, then it will include bibliographic, chemical, 
# crystal, experimental, refinement or atomic coordinate data resulting 
# from the CCDC's data processing and validation procedures.
#
#######################################################################

data_HESSEE
_symmetry_cell_setting           monoclinic
_symmetry_space_group_name_H-M   'P 21/n'
_symmetry_Int_Tables_number      14
_space_group_name_Hall           '-P 2yn'
loop_
_symmetry_equiv_pos_site_id
_symmetry_equiv_pos_as_xyz
1 x,y,z
2 1/2-x,1/2+y,1/2-z
3 -x,-y,-z
4 1/2+x,1/2-y,1/2+z
_cell_length_a                   13.764(3)
_cell_length_b                   8.2793(17)
_cell_length_c                   14.218(3)
_cell_angle_alpha                90
_cell_angle_beta                 97.24(3)
_cell_angle_gamma                90
_cell_volume                     1607.31
loop_
_atom_site_label
_atom_site_type_symbol
_atom_site_fract_x
_atom_site_fract_y
_atom_site_fract_z
Mn1 Mn 0.263824(14) 0.19217(3) 0.478011(13)
O1 O 0.34457(9) 0.24466(19) 0.36181(8)
H1 H 0.4041(8) 0.254(3) 0.3828(14)
H2 H 0.3295(15) 0.302(2) 0.3130(11)
O2 O 0.30580(8) -0.06403(13) 0.47381(8)
H3 H 0.3609(9) -0.110(2) 0.4904(12)
H4 H 0.2856(13) -0.090(2) 0.4167(8)
O3 O 0.14362(8) 0.13848(14) 0.36912(7)
O4 O 0.19570(9) -0.07524(15) 0.29402(8)
O5 O -0.10838(8) 0.22562(15) 0.06850(7)
O6 O 0.01697(8) 0.27150(17) -0.01381(8)
N1 N 0.19095(8) 0.15287(15) 0.60976(8)
N2 N 0.18131(8) 0.42439(14) 0.50162(8)
C1 C 0.19612(11) 0.02023(19) 0.66274(11)
H5 H 0.2270 -0.0702 0.6415
C2 C 0.15724(12) 0.0101(2) 0.74907(12)
H6 H 0.1624 -0.0851 0.7841
C3 C 0.11171(13) 0.1418(2) 0.78090(11)
H7 H 0.0866 0.1376 0.8386
C4 C 0.10281(12) 0.2839(2) 0.72633(11)
C5 C 0.05317(14) 0.4258(2) 0.75328(13)
H8 H 0.0274 0.4275 0.8107
C6 C 0.04345(14) 0.5561(2) 0.69670(14)
H9 H 0.0092 0.6454 0.7148
C7 C 0.08452(11) 0.56086(18) 0.60907(12)
C8 C 0.07432(13) 0.69356(19) 0.54716(15)
H10 H 0.0386 0.7836 0.5616
C9 C 0.11688(13) 0.6898(2) 0.46592(15)
H11 H 0.1102 0.7767 0.4241
C10 C 0.17098(12) 0.5535(2) 0.44592(12)
H12 H 0.2011 0.5535 0.3909
C11 C 0.13742(10) 0.42660(17) 0.58191(10)
C12 C 0.14421(10) 0.28380(17) 0.64053(10)
C13 C 0.14989(10) 0.05387(18) 0.29721(10)
C14 C 0.09524(10) 0.11420(19) 0.20821(10)
C15 C 0.04650(10) 0.16367(19) 0.13887(10)
C16 C -0.01960(10) 0.22563(18) 0.05726(9)
Mn1C Mn -0.236176(14) 0.30783(3) -0.021989(13)
O5C O 0.39162(8) 0.27438(15) 0.56850(7)
loop_
_geom_bond_atom_site_label_1
_geom_bond_atom_site_label_2
_geom_bond_site_symmetry_1
_geom_bond_site_symmetry_2
Mn1 O1 1_555 1_555
O1 H1 1_555 1_555
H2 O1 1_555 1_555
O2 Mn1 1_555 1_555
H3 O2 1_555 1_555
H4 O2 1_555 1_555
O3 Mn1 1_555 1_555
O4 C13 1_555 1_555
O5 C16 1_555 1_555
O6 C16 1_555 1_555
N1 Mn1 1_555 1_555
N2 Mn1 1_555 1_555
C1 N1 1_555 1_555
H5 C1 1_555 1_555
C2 C1 1_555 1_555
H6 C2 1_555 1_555
C3 C2 1_555 1_555
H7 C3 1_555 1_555
C4 C3 1_555 1_555
C5 C4 1_555 1_555
H8 C5 1_555 1_555
C6 C5 1_555 1_555
H9 C6 1_555 1_555
C7 C6 1_555 1_555
C8 C7 1_555 1_555
H10 C8 1_555 1_555
C9 C8 1_555 1_555
H11 C9 1_555 1_555
C10 N2 1_555 1_555
H12 C10 1_555 1_555
C11 N2 1_555 1_555
C12 N1 1_555 1_555
C13 O3 1_555 1_555
C14 C13 1_555 1_555
C15 C14 1_555 1_555
C16 C15 1_555 1_555
Mn1C O5 1_555 1_555
O5C Mn1 1_555 1_555
C4 C12 1_555 1_555
C7 C11 1_555 1_555
C9 C10 1_555 1_555
C11 C12 1_555 1_555

#END
