
#######################################################################
#
#                 Cambridge Crystallographic Data Centre
#                                CCDC 
#
#######################################################################
#
# If this CIF has been generated from an entry in the Cambridge 
# Structural Database, then it will include bibliographic, chemical, 
# crystal, experimental, refinement or atomic coordinate data resulting 
# from the CCDC's data processing and validation procedures.
#
#######################################################################

data_HETBOY
_symmetry_cell_setting           orthorhombic
_symmetry_space_group_name_H-M   'P b c a'
_symmetry_Int_Tables_number      61
_space_group_name_Hall           '-P 2ac 2ab'
loop_
_symmetry_equiv_pos_site_id
_symmetry_equiv_pos_as_xyz
1 x,y,z
2 1/2-x,-y,1/2+z
3 -x,1/2+y,1/2-z
4 1/2+x,1/2-y,-z
5 -x,-y,-z
6 1/2+x,y,1/2-z
7 x,1/2-y,1/2+z
8 1/2-x,1/2+y,z
_cell_length_a                   11.722(2)
_cell_length_b                   16.609(3)
_cell_length_c                   19.650(4)
_cell_angle_alpha                90
_cell_angle_beta                 90
_cell_angle_gamma                90
_cell_volume                     3825.67
loop_
_atom_site_label
_atom_site_type_symbol
_atom_site_fract_x
_atom_site_fract_y
_atom_site_fract_z
Co1 Co 0.96345(3) 0.11356(2) 0.629631(15)
C1 C 0.8131(2) -0.03204(18) 0.60353(17)
H1 H 0.8814 -0.0604 0.6054
C2 C 0.7143(2) -0.07488(19) 0.59623(18)
H2 H 0.7164 -0.1307 0.5933
C3 C 0.6106(2) -0.03449(18) 0.59325(14)
C4 C 0.6156(2) 0.04796(19) 0.59787(17)
H3 H 0.5485 0.0778 0.5958
C5 C 0.7179(2) 0.08695(19) 0.60555(18)
H4 H 0.7180 0.1428 0.6091
C6 C 0.4998(3) -0.0780(2) 0.58727(17)
H5 H 0.5062 -0.1186 0.5520
H6 H 0.4411 -0.0402 0.5735
C7 C 0.4645(2) -0.1178(2) 0.6529(2)
H7 H 0.4637 -0.0778 0.6889
H8 H 0.5204 -0.1584 0.6649
C8 C 0.3467(3) -0.1573(2) 0.6484(2)
H9 H 0.3438 -0.1917 0.6086
H10 H 0.3347 -0.1908 0.6882
C9 C 0.2531(2) -0.09566(19) 0.64412(17)
C10 C 0.2113(3) -0.0584(2) 0.70132(17)
H11 H 0.2391 -0.0730 0.7439
C11 C 0.1295(3) 0.0000(2) 0.69638(16)
H12 H 0.1028 0.0239 0.7361
C12 C 0.1260(2) -0.01208(19) 0.58127(14)
H13 H 0.0969 0.0035 0.5393
C13 C 0.2080(2) -0.0713(2) 0.58287(16)
H14 H 0.2330 -0.0947 0.5426
C14 C 0.9398(3) 0.20947(17) 0.52547(14)
C15 C 0.9424(2) 0.24527(16) 0.45547(13)
C16 C 0.8539(2) 0.29341(19) 0.43353(16)
H15 H 0.7944 0.3057 0.4631
C17 C 0.8530(3) 0.3236(2) 0.36792(16)
H16 H 0.7933 0.3565 0.3538
C18 C 0.9395(3) 0.30542(19) 0.32358(15)
C19 C 0.9414(5) 0.3419(3) 0.2538(2)
C20 C 1.0280(3) 0.2572(2) 0.34495(16)
H17 H 1.0865 0.2440 0.3149
C21 C 1.0303(3) 0.22830(18) 0.41109(15)
H18 H 1.0915 0.1972 0.4257
N1 N 0.81714(18) 0.04785(13) 0.60819(11)
N2 N 0.0862(2) 0.02407(14) 0.63695(10)
O1 O 1.0145(2) 0.15624(14) 0.53947(11)
O2 O 0.8655(2) 0.22929(14) 0.56645(11)
O3 O 1.0027(4) 0.31666(18) 0.20974(14)
O4 O 0.8874(4) 0.4033(4) 0.2421(2)
Co1_2 Co -0.03655(3) 0.11356(2) 0.629631(15)
Co1F Co 0.96345(3) 0.38644(2) 0.129631(15)
N2_2 N 1.0862(2) 0.02407(14) 0.63695(10)
O3F O 1.0027(4) 0.18334(18) 0.70974(14)
O4F O 0.8874(4) 0.0967(4) 0.7421(2)
loop_
_geom_bond_atom_site_label_1
_geom_bond_atom_site_label_2
_geom_bond_site_symmetry_1
_geom_bond_site_symmetry_2
Co1 N1 1_555 1_555
C1 H1 1_555 1_555
C2 C1 1_555 1_555
H2 C2 1_555 1_555
C3 C2 1_555 1_555
C4 C3 1_555 1_555
H3 C4 1_555 1_555
C5 C4 1_555 1_555
H4 C5 1_555 1_555
C6 C3 1_555 1_555
H5 C6 1_555 1_555
H6 C6 1_555 1_555
C7 C6 1_555 1_555
H7 C7 1_555 1_555
H8 C7 1_555 1_555
C8 C7 1_555 1_555
H9 C8 1_555 1_555
H10 C8 1_555 1_555
C9 C8 1_555 1_555
C10 C9 1_555 1_555
H11 C10 1_555 1_555
C11 C10 1_555 1_555
H12 C11 1_555 1_555
C12 H13 1_555 1_555
C13 C9 1_555 1_555
H14 C13 1_555 1_555
C14 C15 1_555 1_555
C15 C16 1_555 1_555
C16 H15 1_555 1_555
C17 C16 1_555 1_555
H16 C17 1_555 1_555
C18 C17 1_555 1_555
C19 C18 1_555 1_555
C20 C18 1_555 1_555
H17 C20 1_555 1_555
C21 C15 1_555 1_555
H18 C21 1_555 1_555
N1 C1 1_555 1_555
N2 C11 1_555 1_555
O1 Co1 1_555 1_555
O2 C14 1_555 1_555
O3 C19 1_555 1_555
O4 C19 1_555 1_555
Co1_2 N2 1_555 1_555
Co1F O3 1_555 1_555
N2_2 Co1 1_555 1_555
O3F Co1 1_555 1_555
O4F Co1 1_555 1_555
C5 N1 1_555 1_555
C12 C13 1_555 1_555
C12 N2 1_555 1_555
C14 O1 1_555 1_555
C20 C21 1_555 1_555
O4 Co1F 1_555 1_555

#END
