
#######################################################################
#
#                 Cambridge Crystallographic Data Centre
#                                CCDC 
#
#######################################################################
#
# If this CIF has been generated from an entry in the Cambridge 
# Structural Database, then it will include bibliographic, chemical, 
# crystal, experimental, refinement or atomic coordinate data resulting 
# from the CCDC's data processing and validation procedures.
#
#######################################################################

data_HETBOY01
_symmetry_cell_setting           orthorhombic
_symmetry_space_group_name_H-M   'P b c a'
_symmetry_Int_Tables_number      61
_space_group_name_Hall           '-P 2ac 2ab'
loop_
_symmetry_equiv_pos_site_id
_symmetry_equiv_pos_as_xyz
1 x,y,z
2 1/2-x,-y,1/2+z
3 -x,1/2+y,1/2-z
4 1/2+x,1/2-y,-z
5 -x,-y,-z
6 1/2+x,y,1/2-z
7 x,1/2-y,1/2+z
8 1/2-x,1/2+y,z
_cell_length_a                   11.73(3)
_cell_length_b                   16.68(3)
_cell_length_c                   19.55(7)
_cell_angle_alpha                90
_cell_angle_beta                 90
_cell_angle_gamma                90
_cell_volume                     3825.08
loop_
_atom_site_label
_atom_site_type_symbol
_atom_site_fract_x
_atom_site_fract_y
_atom_site_fract_z
O1 O 0.4893(4) 0.30795(18) 0.79359(15)
O2 O 0.6136(3) 0.3960(3) 0.76405(19)
N1 N 1.4201(3) 0.02649(18) 0.36077(14)
C1 C 1.3754(4) 0.0039(3) 0.3010(2)
H1 H 1.4016 0.0283 0.2612
C2 C 1.3799(3) -0.0109(2) 0.41608(19)
H2 H 1.4096 0.0032 0.4585
C3 C 1.2972(3) -0.0689(2) 0.4138(2)
H3 H 1.2719 -0.0924 0.4541
C4 C 1.2920(4) -0.0538(3) 0.2958(2)
H4 H 1.2626 -0.0668 0.2530
C5 C 1.2517(3) -0.0924(2) 0.3525(2)
Co1 Co 0.54286(4) 0.11594(3) 0.37082(2)
C6 C 0.4692(3) 0.2265(2) 0.58984(18)
H5 H 0.4087 0.1950 0.5749
N2 N 0.6876(2) 0.04925(16) 0.39527(15)
O3 O 0.4853(2) 0.15497(17) 0.46186(13)
O4 O 0.6338(3) 0.22787(15) 0.43381(13)
C7 C 0.6451(4) 0.3222(2) 0.6347(2)
H6 H 0.7040 0.3552 0.6496
C8 C 0.4695(3) 0.2551(2) 0.65602(18)
H7 H 0.4101 0.2420 0.6855
C9 C 1.0392(3) -0.1138(2) 0.3454(3)
H8 H 1.0392 -0.0718 0.3110
H9 H 0.9834 -0.1537 0.3318
C10 C 0.7895(3) -0.0734(2) 0.4068(2)
H10 H 0.7868 -0.1289 0.4104
C11 C 0.5591(3) 0.2077(2) 0.47572(18)
C12 C 0.5568(3) 0.3027(2) 0.67841(18)
C13 C 0.5570(3) 0.2438(2) 0.54566(17)
C14 C 0.8895(3) 0.0484(2) 0.4046(2)
H11 H 0.9567 0.0779 0.4061
C15 C 0.8937(3) -0.0341(2) 0.40894(18)
C16 C 0.7873(3) 0.0870(2) 0.3981(2)
H12 H 0.7876 0.1426 0.3956
C17 C 0.6454(3) 0.2923(2) 0.56808(19)
H13 H 0.7051 0.3049 0.5386
C18 C 0.5536(4) 0.3363(3) 0.7505(2)
C19 C 1.0042(3) -0.0785(2) 0.4130(2)
H14 H 0.9973 -0.1212 0.4465
H15 H 1.0633 -0.0421 0.4287
C20 C 0.6913(3) -0.0309(2) 0.3995(2)
H16 H 0.6229 -0.0590 0.3974
C21 C 1.1574(3) -0.1530(2) 0.3474(3)
H17 H 1.1614 -0.1889 0.3864
H18 H 1.1680 -0.1848 0.3063
O1F O 0.4893(4) 0.19205(18) 0.29359(15)
O2F O 0.6136(3) 0.1040(3) 0.26405(19)
N1_2 N 0.4201(3) 0.02649(18) 0.36077(14)
Co1F Co 0.54286(4) 0.38406(3) 0.87082(2)
Co1_2 Co 1.54286(4) 0.11594(3) 0.37082(2)
loop_
_geom_bond_atom_site_label_1
_geom_bond_atom_site_label_2
_geom_bond_site_symmetry_1
_geom_bond_site_symmetry_2
O1 C18 1_555 1_555
O2 C18 1_555 1_555
N1 C1 1_555 1_555
C1 H1 1_555 1_555
C2 N1 1_555 1_555
H2 C2 1_555 1_555
C3 C2 1_555 1_555
H3 C3 1_555 1_555
C4 C1 1_555 1_555
H4 C4 1_555 1_555
C5 C3 1_555 1_555
Co1 N2 1_555 1_555
C6 H5 1_555 1_555
N2 C16 1_555 1_555
O3 Co1 1_555 1_555
O4 C11 1_555 1_555
C7 H6 1_555 1_555
C8 C6 1_555 1_555
H7 C8 1_555 1_555
C9 H8 1_555 1_555
H9 C9 1_555 1_555
C10 H10 1_555 1_555
C11 O3 1_555 1_555
C12 C7 1_555 1_555
C13 C6 1_555 1_555
C14 H11 1_555 1_555
C15 C10 1_555 1_555
C16 C14 1_555 1_555
H12 C16 1_555 1_555
C17 C7 1_555 1_555
H13 C17 1_555 1_555
C18 C12 1_555 1_555
C19 C9 1_555 1_555
H14 C19 1_555 1_555
H15 C19 1_555 1_555
C20 N2 1_555 1_555
H16 C20 1_555 1_555
C21 C5 1_555 1_555
H17 C21 1_555 1_555
H18 C21 1_555 1_555
O1F Co1 1_555 1_555
O2F Co1 1_555 1_555
N1_2 Co1 1_555 1_555
Co1F O1 1_555 1_555
Co1_2 N1 1_555 1_555
O2 Co1F 1_555 1_555
C4 C5 1_555 1_555
C8 C12 1_555 1_555
C9 C21 1_555 1_555
C10 C20 1_555 1_555
C11 C13 1_555 1_555
C13 C17 1_555 1_555
C14 C15 1_555 1_555
C15 C19 1_555 1_555

#END
