
#######################################################################
#
#                 Cambridge Crystallographic Data Centre
#                                CCDC 
#
#######################################################################
#
# If this CIF has been generated from an entry in the Cambridge 
# Structural Database, then it will include bibliographic, chemical, 
# crystal, experimental, refinement or atomic coordinate data resulting 
# from the CCDC's data processing and validation procedures.
#
#######################################################################

data_HETCAL
_symmetry_cell_setting           monoclinic
_symmetry_space_group_name_H-M   'C 2/c'
_symmetry_Int_Tables_number      15
_space_group_name_Hall           '-C 2yn'
loop_
_symmetry_equiv_pos_site_id
_symmetry_equiv_pos_as_xyz
1 x,y,z
2 1/2+x,1/2+y,z
3 -x,y,1/2-z
4 1/2-x,1/2+y,1/2-z
5 -x,-y,-z
6 1/2-x,1/2-y,-z
7 x,-y,1/2+z
8 1/2+x,1/2-y,1/2+z
_cell_length_a                   31.257(20)
_cell_length_b                   13.957(9)
_cell_length_c                   31.33(3)
_cell_angle_alpha                90
_cell_angle_beta                 115.118(7)
_cell_angle_gamma                90
_cell_volume                     12375.3
loop_
_atom_site_label
_atom_site_type_symbol
_atom_site_fract_x
_atom_site_fract_y
_atom_site_fract_z
O17 O 0.4649(8) 0.3774(18) 0.2318(9)
Nd1 Nd 0.351302(9) 0.36588(2) 0.079488(10)
Nd2 Nd 0.352639(10) 0.12617(2) 0.003375(10)
Nd3 Nd 0.448320(10) 0.62712(2) 0.138248(12)
Nd4 Nd 0.463620(10) -0.14166(2) 0.052990(10)
Ag1 Ag 0.263720(16) 0.61435(4) -0.198100(16)
O1 O 0.43427(12) 0.4338(3) 0.11152(13)
O2 O 0.43973(13) -0.1686(3) 0.11625(13)
O3 O 0.53026(13) -0.1148(3) 0.03140(14)
O4 O 0.36950(12) 0.6415(3) 0.08616(14)
O5 O 0.38156(12) 0.3094(2) 0.02067(12)
C1 C 0.38961(19) -0.0452(4) -0.05375(19)
C2 C 0.36367(18) -0.1180(4) -0.09174(18)
O6 O 0.36736(13) 0.0282(3) -0.05340(13)
C3 C 0.33119(19) 0.5987(4) 0.06190(19)
C4 C 0.42929(19) -0.0657(4) 0.1720(2)
C5 C 0.2494(2) 0.3089(4) 0.1004(2)
O7 O 0.46659(14) 0.7185(3) 0.01026(14)
O8 O 0.43440(17) -0.2343(3) 0.17684(15)
C6 C 0.4781(2) 0.4243(4) 0.1368(2)
N1 N 0.68216(17) 0.8634(4) 0.25646(19)
O9 O 0.32777(13) 0.5174(3) 0.04374(13)
C7 C 0.39580(18) 0.3065(4) -0.01181(19)
C8 C 0.4342(2) -0.1628(4) 0.1537(2)
N2 N 0.25761(18) 0.5176(3) -0.14139(17)
N3 N 0.30490(19) 0.4611(4) 0.26484(19)
O10 O 0.28855(13) 0.3195(3) 0.09919(13)
C9 C 0.38231(19) -0.2070(4) -0.0923(2)
H1 H 0.4129 -0.2220 -0.0709
N4 N 0.31104(17) -0.2564(4) -0.15708(16)
C10 C 0.2497(2) 0.2599(4) 0.1439(2)
C11 C 0.3182(2) -0.1003(4) -0.1255(2)
H2 H 0.3043 -0.0409 -0.1266
O11 O 0.43539(13) 0.1008(3) 0.04972(14)
O12 O 0.39314(13) 0.2310(3) -0.03452(13)
O13 O 0.21052(13) 0.3380(3) 0.07071(14)
O14 O 0.50309(14) 0.4936(3) 0.15891(16)
C12 C 0.41604(16) 0.3936(4) -0.02337(18)
C13 C 0.45474(18) 0.6440(4) 0.0252(2)
C14 C 0.42474(18) 0.3956(4) -0.06316(19)
H3 H 0.4189 0.3415 -0.0821
C15 C 0.45121(18) 0.5588(4) -0.04696(19)
H4 H 0.4627 0.6141 -0.0550
C16 C 0.42518(16) 0.4751(4) 0.00453(18)
H5 H 0.4193 0.4747 0.0312
C17 C 0.44325(17) 0.5581(4) -0.00716(19)
C18 C 0.4407(2) -0.0580(4) 0.2198(2)
H6 H 0.4502 -0.1119 0.2390
O15 O 0.45280(13) 0.6397(3) 0.06419(14)
C19 C 0.44234(18) 0.4789(4) -0.0751(2)
H7 H 0.4480 0.4800 -0.1020
C20 C 0.3752(2) 0.5101(4) 0.2578(2)
H8 H 0.4067 0.5288 0.2726
C21 C 0.2167(2) 0.4973(4) -0.1399(2)
H9 H 0.1889 0.5141 -0.1656
C22 C 0.3551(2) -0.2735(4) -0.1250(2)
H10 H 0.3680 -0.3337 -0.1247
C23 C 0.3053(2) 0.4825(5) 0.1900(2)
H11 H 0.2885 0.4814 0.1574
C24 C 0.2080(2) 0.2415(5) 0.1470(2)
H12 H 0.1792 0.2576 0.1223
C25 C 0.6595(2) 0.9013(5) 0.2136(2)
H13 H 0.6737 0.9518 0.2052
C26 C 0.3504(2) 0.4866(4) 0.2839(2)
H14 H 0.3664 0.4886 0.3166
C27 C 0.6594(2) 0.7948(5) 0.2679(2)
H15 H 0.6740 0.7687 0.2980
C28 C 0.2912(2) 0.2329(5) 0.1810(2)
H16 H 0.3202 0.2426 0.1799
C29 C 0.2969(2) 0.4927(4) -0.1034(2)
H17 H 0.3260 0.5073 -0.1033
C30 C 0.2830(2) 0.4615(5) 0.2183(2)
H18 H 0.2509 0.4468 0.2040
C31 C 0.2936(2) -0.1706(5) -0.1576(2)
H19 H 0.2634 -0.1567 -0.1804
C32 C 0.4380(3) 0.0292(5) 0.2385(2)
H20 H 0.4458 0.0344 0.2705
N5 N 0.2490(3) 0.1729(5) 0.2239(2)
C33 C 0.2094(3) 0.1984(5) 0.1875(3)
H21 H 0.1809 0.1866 0.1892
C34 C 0.2890(3) 0.1909(5) 0.2200(3)
H22 H 0.3173 0.1743 0.2452
O16 O 0.4979(4) 0.6124(8) 0.2336(3)
C35 C 0.28678(18) 0.6509(4) 0.05646(19)
C36 C 0.24249(17) 0.6130(4) 0.02897(18)
H23 H 0.2404 0.5532 0.0152
C37 C 0.2897(2) 0.7379(4) 0.0786(2)
H24 H 0.3191 0.7636 0.0981
C38 C 0.2487(2) 0.7865(5) 0.0715(2)
H25 H 0.2506 0.8452 0.0863
C39 C 0.2050(2) 0.7494(4) 0.0428(2)
H26 H 0.1776 0.7834 0.0378
C40 C 0.20195(18) 0.6612(4) 0.02159(19)
C41 C 0.15422(19) 0.6202(5) -0.00894(19)
O18 O 0.11900(12) 0.6733(3) -0.01681(14)
O19 O 0.15117(13) 0.5358(3) -0.02436(14)
C42 C 0.50181(19) 0.3291(4) 0.1404(2)
C43 C 0.48008(17) 0.2548(4) 0.10960(18)
H27 H 0.4501 0.2642 0.0856
C44 C 0.5466(2) 0.3139(5) 0.1758(2)
H28 H 0.5618 0.3629 0.1969
C45 C 0.50164(18) 0.1678(4) 0.11361(19)
C46 C 0.5688(2) 0.2280(4) 0.1799(2)
H29 H 0.5991 0.2191 0.2035
C47 C 0.5462(2) 0.1533(4) 0.1490(2)
H30 H 0.5610 0.0942 0.1523
C48 C 0.47588(19) 0.0854(4) 0.0816(2)
O20 O 0.49596(14) 0.0067(3) 0.08920(15)
C49 C 0.41443(18) 0.0140(4) 0.1433(2)
H31 H 0.4069 0.0085 0.1113
C50 C 0.41068(19) 0.1022(4) 0.1618(2)
C51 C 0.39237(18) 0.1893(4) 0.1316(2)
C52 C 0.4235(2) 0.1101(5) 0.2100(2)
H32 H 0.4224 0.1694 0.2231
O21 O 0.39525(13) 0.2686(3) 0.15086(13)
O22 O 0.37300(12) 0.1825(3) 0.08667(13)
O23 O 0.43121(12) -0.0643(3) -0.02487(12)
C53 C 0.3525(2) 0.5053(4) 0.2099(2)
C54 C 0.2133(2) 0.4523(4) -0.1020(2)
H33 H 0.1839 0.4403 -0.1022
C55 C 0.25374(18) 0.4259(4) -0.06446(19)
C56 C 0.2966(2) 0.4469(4) -0.0648(2)
H34 H 0.3248 0.4305 -0.0394
C57 C 0.6159(2) 0.8698(5) 0.1811(2)
H35 H 0.6019 0.8978 0.1514
C58 C 0.59355(19) 0.7969(4) 0.1930(2)
C59 C 0.61530(19) 0.7597(4) 0.2378(2)
H36 H 0.6008 0.7120 0.2477
C60 C 0.3772(2) 0.5173(4) 0.1779(2)
O24 O 0.41341(17) 0.5681(3) 0.19118(15)
O25 O 0.35850(15) 0.4742(3) 0.13946(15)
C61 C 0.25195(19) 0.3747(4) -0.02263(19)
O26 O 0.21416(13) 0.3776(3) -0.01924(13)
O27 O 0.28899(13) 0.3334(3) 0.00486(13)
C62 C 0.5464(2) 0.7598(4) 0.1572(2)
O28 O 0.53175(13) 0.7937(3) 0.11643(14)
O29 O 0.52639(13) 0.6977(3) 0.17066(15)
Nd1E Nd 0.148698(9) 0.13412(2) -0.079488(10)
Nd1_2 Nd 0.351302(9) 1.36588(2) 0.079488(10)
Nd1_3 Nd 0.351302(9) -0.63412(2) 0.079488(10)
Nd1F Nd 0.351302(9) 0.63412(2) -0.420512(10)
Nd2E Nd 0.147361(10) 0.37383(2) -0.003375(10)
Nd2_2 Nd 0.352639(10) 1.12617(2) 0.003375(10)
Nd2_3 Nd 0.352639(10) -0.87383(2) 0.003375(10)
Nd3_2 Nd 0.448320(10) -0.37288(2) 0.138248(12)
Nd3B Nd 0.551680(10) 0.62712(2) 0.361752(12)
Nd3E Nd 0.051680(10) -0.12712(2) -0.138248(12)
Nd3F Nd 0.448320(10) 0.37288(2) -0.361752(12)
Nd4_2 Nd 0.463620(10) 0.85834(2) 0.052990(10)
Nd4E Nd 0.036380(10) 0.64166(2) -0.052990(10)
Ag1F Ag 0.263720(16) 0.38565(4) 0.301900(16)
Ag1G Ag 0.763720(16) 0.88565(4) 0.301900(16)
Ag1_2 Ag 0.263720(16) -0.38565(4) -0.198100(16)
Ag1E Ag 0.236280(16) -0.11435(4) 0.198100(16)
Ag1G_2 Ag 0.763720(16) -0.11435(4) 0.301900(16)
O1E O 0.06573(12) 0.0662(3) -0.11152(13)
O1_2 O 0.43427(12) -0.5662(3) 0.11152(13)
O2_2 O 0.43973(13) 0.8314(3) 0.11625(13)
O3_2 O 0.53026(13) 0.8852(3) 0.03140(14)
O4E O 0.13050(12) -0.1415(3) -0.08616(14)
O4_2 O 0.36950(12) -0.3585(3) 0.08616(14)
O5_2 O 0.38156(12) -0.6906(2) 0.02067(12)
O5E O 0.11844(12) 0.1906(2) -0.02067(12)
C1_2 C 0.38961(19) 0.9548(4) -0.05375(19)
C2_2 C 0.36367(18) 0.8820(4) -0.09174(18)
O6_2 O 0.36736(13) 1.0282(3) -0.05340(13)
O6E O 0.13264(13) 0.4718(3) 0.05340(13)
C3E C 0.16881(19) -0.0987(4) -0.06190(19)
C4_2 C 0.42929(19) 0.9343(4) 0.1720(2)
C5E C 0.2506(2) 0.1911(4) -0.1004(2)
O7_2 O 0.46659(14) -0.2815(3) 0.01026(14)
O8_2 O 0.43440(17) 0.7657(3) 0.17684(15)
C6E C 0.0219(2) 0.0757(4) -0.1368(2)
N1_2 N 0.68216(17) -0.1366(4) 0.25646(19)
N1G N 0.18216(17) 0.6366(4) -0.24354(19)
N1A N 0.18216(17) 0.3634(4) 0.25646(19)
O9E O 0.17223(13) -0.0174(3) -0.04374(13)
C7_2 C 0.39580(18) -0.6935(4) -0.01181(19)
C8_2 C 0.4342(2) 0.8372(4) 0.1537(2)
N2E N 0.24239(18) -0.0176(3) 0.14139(17)
N2F N 0.25761(18) 0.4824(3) 0.35861(17)
N3F N 0.30490(19) 0.5389(4) -0.23516(19)
O10E O 0.21145(13) 0.1805(3) -0.09919(13)
C9_2 C 0.38231(19) 0.7930(4) -0.0923(2)
H1_2 H 0.4129 0.7780 -0.0709
N4_2 N 0.31104(17) 0.7436(4) -0.15708(16)
N4F N 0.31104(17) 0.2564(4) 0.34292(16)
C10E C 0.2503(2) 0.2401(4) -0.1439(2)
C11_2 C 0.3182(2) 0.8997(4) -0.1255(2)
H2_2 H 0.3043 0.9591 -0.1266
O11E O 0.06461(13) 0.3992(3) -0.04972(14)
O12_2 O 0.39314(13) -0.7690(3) -0.03452(13)
O12E O 0.10686(13) 0.2690(3) 0.03452(13)
O13E O 0.28948(13) 0.1620(3) -0.07071(14)
O14E O -0.00309(14) 0.0064(3) -0.15891(16)
O14_2 O 0.50309(14) -0.5064(3) 0.15891(16)
C12_2 C 0.41604(16) -0.6064(4) -0.02337(18)
C13_2 C 0.45474(18) -0.3560(4) 0.0252(2)
C14_2 C 0.42474(18) -0.6044(4) -0.06316(19)
H3_2 H 0.4189 -0.6585 -0.0821
C15_2 C 0.45121(18) -0.4412(4) -0.04696(19)
H4_2 H 0.4627 -0.3859 -0.0550
C16_2 C 0.42518(16) -0.5249(4) 0.00453(18)
H5_2 H 0.4193 -0.5253 0.0312
C17_2 C 0.44325(17) -0.4419(4) -0.00716(19)
C18_2 C 0.4407(2) 0.9420(4) 0.2198(2)
H6_2 H 0.4502 0.8881 0.2390
O15_2 O 0.45280(13) -0.3603(3) 0.06419(14)
C19_2 C 0.44234(18) -0.5211(4) -0.0751(2)
H7_2 H 0.4480 -0.5200 -0.1020
C20F C 0.3752(2) 0.4899(4) -0.2422(2)
H8F H 0.4067 0.4712 -0.2274
C21E C 0.2833(2) 0.0027(4) 0.1399(2)
H9E H 0.3111 -0.0141 0.1656
C22_2 C 0.3551(2) 0.7265(4) -0.1250(2)
H10_2 H 0.3680 0.6663 -0.1247
C23F C 0.3053(2) 0.5175(5) -0.3100(2)
H11F H 0.2885 0.5186 -0.3426
C24E C 0.2920(2) 0.2585(5) -0.1470(2)
H12E H 0.3208 0.2424 -0.1223
C25_2 C 0.6595(2) -0.0987(5) 0.2136(2)
H13_2 H 0.6737 -0.0482 0.2052
C26F C 0.3504(2) 0.5134(4) -0.2161(2)
H14F H 0.3664 0.5114 -0.1834
C27_2 C 0.6594(2) -0.2052(5) 0.2679(2)
H15_2 H 0.6740 -0.2313 0.2980
C28E C 0.2088(2) 0.2671(5) -0.1810(2)
H16E H 0.1798 0.2574 -0.1799
C29E C 0.2031(2) 0.0073(4) 0.1034(2)
H17E H 0.1740 -0.0073 0.1033
C30F C 0.2830(2) 0.5385(5) -0.2817(2)
H18F H 0.2509 0.5532 -0.2960
C31_2 C 0.2936(2) 0.8294(5) -0.1576(2)
H19_2 H 0.2634 0.8433 -0.1804
C32_2 C 0.4380(3) 1.0292(5) 0.2385(2)
H20_2 H 0.4458 1.0344 0.2705
N5E N 0.2510(3) 0.3271(5) -0.2239(2)
C33E C 0.2906(3) 0.3016(5) -0.1875(3)
H21E H 0.3191 0.3134 -0.1892
C34E C 0.2110(3) 0.3091(5) -0.2200(3)
H22E H 0.1827 0.3257 -0.2452
O16B O 0.5021(4) 0.6124(8) 0.2664(3)
O16_2 O 0.4979(4) -0.3876(8) 0.2336(3)
C35E C 0.21322(18) -0.1509(4) -0.05646(19)
C36E C 0.25751(17) -0.1130(4) -0.02897(18)
H23E H 0.2596 -0.0532 -0.0152
C37E C 0.2103(2) -0.2379(4) -0.0786(2)
H24E H 0.1809 -0.2636 -0.0981
C38E C 0.2513(2) -0.2865(5) -0.0715(2)
H25E H 0.2494 -0.3452 -0.0863
C39E C 0.2950(2) -0.2494(4) -0.0428(2)
H26E H 0.3224 -0.2834 -0.0378
C40E C 0.29805(18) -0.1612(4) -0.02159(19)
C41E C 0.34578(19) -0.1202(5) 0.00894(19)
O18E O 0.38100(12) -0.1733(3) 0.01681(14)
O18E_2 O 0.38100(12) 0.8267(3) 0.01681(14)
O19E O 0.34883(13) -0.0358(3) 0.02436(14)
C42E C -0.00181(19) 0.1709(4) -0.1404(2)
C43E C 0.01992(17) 0.2452(4) -0.10960(18)
H27E H 0.0499 0.2358 -0.0856
C44E C -0.0466(2) 0.1861(5) -0.1758(2)
H28E H -0.0618 0.1371 -0.1969
C45E C -0.00164(18) 0.3322(4) -0.11361(19)
C46E C -0.0688(2) 0.2720(4) -0.1799(2)
H29E H -0.0991 0.2809 -0.2035
C47E C -0.0462(2) 0.3467(4) -0.1490(2)
H30E H -0.0610 0.4058 -0.1523
C48E C 0.02412(19) 0.4146(4) -0.0816(2)
O20E O 0.00404(14) 0.4933(3) -0.08920(15)
O20_2 O 0.49596(14) 1.0067(3) 0.08920(15)
C49_2 C 0.41443(18) 1.0140(4) 0.1433(2)
H31_2 H 0.4069 1.0085 0.1113
C50_2 C 0.41068(19) 1.1022(4) 0.1618(2)
C51_2 C 0.39237(18) 1.1893(4) 0.1316(2)
C52_2 C 0.4235(2) 1.1101(5) 0.2100(2)
H32_2 H 0.4224 1.1694 0.2231
O21_2 O 0.39525(13) 1.2686(3) 0.15086(13)
O21E O 0.10475(13) 0.2314(3) -0.15086(13)
O22_2 O 0.37300(12) 1.1825(3) 0.08667(13)
O22E O 0.12700(12) 0.3175(3) -0.08667(13)
O23_2 O 0.43121(12) 0.9357(3) -0.02487(12)
C53F C 0.3525(2) 0.4947(4) -0.2901(2)
C54E C 0.2867(2) 0.0477(4) 0.1020(2)
H33E H 0.3161 0.0597 0.1022
C55E C 0.24626(18) 0.0741(4) 0.06446(19)
C56E C 0.2034(2) 0.0531(4) 0.0648(2)
H34E H 0.1752 0.0695 0.0394
C57_2 C 0.6159(2) -0.1302(5) 0.1811(2)
H35_2 H 0.6019 -0.1022 0.1514
C58_2 C 0.59355(19) -0.2031(4) 0.1930(2)
C59_2 C 0.61530(19) -0.2403(4) 0.2378(2)
H36_2 H 0.6008 -0.2880 0.2477
C60F C 0.3772(2) 0.4827(4) -0.3221(2)
O24F O 0.41341(17) 0.4319(3) -0.30882(15)
O24_2 O 0.41341(17) -0.4319(3) 0.19118(15)
O25F O 0.35850(15) 0.5258(3) -0.36054(15)
O25E O 0.14150(15) 0.0258(3) -0.13946(15)
C61E C 0.24805(19) 0.1253(4) 0.02263(19)
O26E O 0.28584(13) 0.1224(3) 0.01924(13)
O27E O 0.21101(13) 0.1666(3) -0.00486(13)
C62_2 C 0.5464(2) -0.2402(4) 0.1572(2)
O28_2 O 0.53175(13) -0.2063(3) 0.11643(14)
O29_2 O 0.52639(13) -0.3023(3) 0.17066(15)
loop_
_geom_bond_atom_site_label_1
_geom_bond_atom_site_label_2
_geom_bond_site_symmetry_1
_geom_bond_site_symmetry_2
Nd1 O1 1_555 1_555
Nd2 O5 1_555 1_555
Nd3 O1 1_555 1_555
Nd4 O2 1_555 1_555
Ag1 N2 1_555 1_555
O1 C6 1_555 1_555
O2 C8 1_555 1_555
O3 Nd4 1_555 1_555
O4 Nd3 1_555 1_555
O5 Nd1 1_555 1_555
C1 C2 1_555 1_555
C2 C9 1_555 1_555
O6 Nd2 1_555 1_555
C3 O4 1_555 1_555
C4 C8 1_555 1_555
C5 O10 1_555 1_555
O7 C13 1_555 1_555
O8 C8 1_555 1_555
C6 O14 1_555 1_555
N1 C25 1_555 1_555
O9 Nd1 1_555 1_555
C7 O5 1_555 1_555
N2 C21 1_555 1_555
N3 C26 1_555 1_555
O10 Nd1 1_555 1_555
C9 H1 1_555 1_555
N4 C22 1_555 1_555
C10 C5 1_555 1_555
C11 C2 1_555 1_555
H2 C11 1_555 1_555
O11 Nd2 1_555 1_555
O12 Nd2 1_555 1_555
O13 C5 1_555 1_555
O14 Nd3 1_555 1_555
C12 C7 1_555 1_555
C13 C17 1_555 1_555
C14 C12 1_555 1_555
H3 C14 1_555 1_555
C15 H4 1_555 1_555
C16 C12 1_555 1_555
H5 C16 1_555 1_555
C17 C15 1_555 1_555
C18 C4 1_555 1_555
H6 C18 1_555 1_555
O15 Nd3 1_555 1_555
C19 C14 1_555 1_555
H7 C19 1_555 1_555
C20 H8 1_555 1_555
C21 H9 1_555 1_555
C22 C9 1_555 1_555
H10 C22 1_555 1_555
C23 H11 1_555 1_555
C24 C10 1_555 1_555
H12 C24 1_555 1_555
C25 H13 1_555 1_555
C26 C20 1_555 1_555
H14 C26 1_555 1_555
C27 N1 1_555 1_555
H15 C27 1_555 1_555
C28 C10 1_555 1_555
H16 C28 1_555 1_555
C29 N2 1_555 1_555
H17 C29 1_555 1_555
C30 N3 1_555 1_555
H18 C30 1_555 1_555
C31 N4 1_555 1_555
H19 C31 1_555 1_555
C32 C18 1_555 1_555
H20 C32 1_555 1_555
N5 C33 1_555 1_555
C33 C24 1_555 1_555
H21 C33 1_555 1_555
C34 C28 1_555 1_555
H22 C34 1_555 1_555
O16 Nd3 1_555 1_555
C35 C3 1_555 1_555
C36 C35 1_555 1_555
H23 C36 1_555 1_555
C37 C35 1_555 1_555
H24 C37 1_555 1_555
C38 C37 1_555 1_555
H25 C38 1_555 1_555
C39 C38 1_555 1_555
H26 C39 1_555 1_555
C40 C36 1_555 1_555
C41 C40 1_555 1_555
O18 C41 1_555 1_555
O19 C41 1_555 1_555
C42 C6 1_555 1_555
C43 C42 1_555 1_555
H27 C43 1_555 1_555
C44 C42 1_555 1_555
H28 C44 1_555 1_555
C45 C43 1_555 1_555
C46 C44 1_555 1_555
H29 C46 1_555 1_555
C47 C45 1_555 1_555
H30 C47 1_555 1_555
C48 O11 1_555 1_555
O20 Nd4 1_555 1_555
C49 C4 1_555 1_555
H31 C49 1_555 1_555
C50 C49 1_555 1_555
C51 C50 1_555 1_555
C52 C32 1_555 1_555
H32 C52 1_555 1_555
O21 Nd1 1_555 1_555
O22 Nd1 1_555 1_555
O23 Nd4 1_555 1_555
C53 C20 1_555 1_555
C54 C21 1_555 1_555
H33 C54 1_555 1_555
C55 C54 1_555 1_555
C56 C29 1_555 1_555
H34 C56 1_555 1_555
C57 C25 1_555 1_555
H35 C57 1_555 1_555
C58 C57 1_555 1_555
C59 C27 1_555 1_555
H36 C59 1_555 1_555
C60 C53 1_555 1_555
O24 Nd3 1_555 1_555
O25 Nd1 1_555 1_555
C61 C55 1_555 1_555
O26 C61 1_555 1_555
O27 Nd1 1_555 1_555
C62 C58 1_555 1_555
O28 C62 1_555 1_555
O29 Nd3 1_555 1_555
Nd1E O1E 1_555 1_555
Nd1_2 O21_2 1_555 1_555
Nd1_3 O1_2 1_555 1_555
Nd1F O25F 1_555 1_555
Nd2E O13 1_555 1_555
Nd2_2 O6_2 1_555 1_555
Nd2_3 O5_2 1_555 1_555
Nd3_2 O8 1_555 1_555
Nd3B O16B 1_555 1_555
Nd3E O1E 1_555 1_555
Nd3F O24F 1_555 1_555
Nd4_2 O7 1_555 1_555
Nd4E O18 1_555 1_555
Ag1F N3 1_555 1_555
Ag1G N1 1_555 1_555
Ag1_2 N4 1_555 1_555
Ag1E N2E 1_555 1_555
Ag1G_2 N1_2 1_555 1_555
O1E C6E 1_555 1_555
O1_2 Nd3_2 1_555 1_555
O2_2 Nd4_2 1_555 1_555
O3_2 Nd4_2 1_555 1_555
O4E Nd3E 1_555 1_555
O4_2 Nd3_2 1_555 1_555
O5_2 Nd1_3 1_555 1_555
O5E Nd1E 1_555 1_555
C1_2 C2_2 1_555 1_555
C2_2 C9_2 1_555 1_555
O6_2 C1_2 1_555 1_555
O6E Nd2E 1_555 1_555
C3E O4E 1_555 1_555
C4_2 C8_2 1_555 1_555
C5E O10E 1_555 1_555
O7_2 Nd4 1_555 1_555
O8_2 Nd3 1_555 1_555
C6E O14E 1_555 1_555
N1_2 C25_2 1_555 1_555
N1G Ag1 1_555 1_555
N1A Ag1F 1_555 1_555
O9E Nd1E 1_555 1_555
C7_2 O5_2 1_555 1_555
C8_2 O2_2 1_555 1_555
N2E C21E 1_555 1_555
N2F Ag1F 1_555 1_555
N3F Ag1 1_555 1_555
O10E Nd1E 1_555 1_555
C9_2 H1_2 1_555 1_555
N4_2 Ag1 1_555 1_555
N4F Ag1F 1_555 1_555
C10E C5E 1_555 1_555
C11_2 C2_2 1_555 1_555
H2_2 C11_2 1_555 1_555
O11E Nd2E 1_555 1_555
O12_2 Nd2_3 1_555 1_555
O12E Nd2E 1_555 1_555
O13E Nd2 1_555 1_555
O14E Nd3E 1_555 1_555
O14_2 Nd3_2 1_555 1_555
C12_2 C7_2 1_555 1_555
C13_2 O7_2 1_555 1_555
C14_2 C12_2 1_555 1_555
H3_2 C14_2 1_555 1_555
C15_2 H4_2 1_555 1_555
C16_2 C12_2 1_555 1_555
H5_2 C16_2 1_555 1_555
C17_2 C13_2 1_555 1_555
C18_2 C4_2 1_555 1_555
H6_2 C18_2 1_555 1_555
O15_2 Nd3_2 1_555 1_555
C19_2 C14_2 1_555 1_555
H7_2 C19_2 1_555 1_555
C20F H8F 1_555 1_555
C21E H9E 1_555 1_555
C22_2 C9_2 1_555 1_555
H10_2 C22_2 1_555 1_555
C23F H11F 1_555 1_555
C24E C10E 1_555 1_555
H12E C24E 1_555 1_555
C25_2 H13_2 1_555 1_555
C26F N3F 1_555 1_555
H14F C26F 1_555 1_555
C27_2 N1_2 1_555 1_555
H15_2 C27_2 1_555 1_555
C28E C10E 1_555 1_555
H16E C28E 1_555 1_555
C29E N2E 1_555 1_555
H17E C29E 1_555 1_555
C30F N3F 1_555 1_555
H18F C30F 1_555 1_555
C31_2 N4_2 1_555 1_555
H19_2 C31_2 1_555 1_555
C32_2 C18_2 1_555 1_555
H20_2 C32_2 1_555 1_555
N5E C33E 1_555 1_555
C33E C24E 1_555 1_555
H21E C33E 1_555 1_555
C34E C28E 1_555 1_555
H22E C34E 1_555 1_555
O16B O16 1_555 1_555
O16_2 Nd3_2 1_555 1_555
C35E C3E 1_555 1_555
C36E C35E 1_555 1_555
H23E C36E 1_555 1_555
C37E C35E 1_555 1_555
H24E C37E 1_555 1_555
C38E C37E 1_555 1_555
H25E C38E 1_555 1_555
C39E C38E 1_555 1_555
H26E C39E 1_555 1_555
C40E C36E 1_555 1_555
C41E C40E 1_555 1_555
O18E Nd4 1_555 1_555
O18E_2 Nd4_2 1_555 1_555
O19E Nd2 1_555 1_555
C42E C6E 1_555 1_555
C43E C42E 1_555 1_555
H27E C43E 1_555 1_555
C44E C42E 1_555 1_555
H28E C44E 1_555 1_555
C45E C43E 1_555 1_555
C46E C44E 1_555 1_555
H29E C46E 1_555 1_555
C47E C45E 1_555 1_555
H30E C47E 1_555 1_555
C48E O11E 1_555 1_555
O20E Nd4E 1_555 1_555
O20_2 Nd4_2 1_555 1_555
C49_2 C4_2 1_555 1_555
H31_2 C49_2 1_555 1_555
C50_2 C49_2 1_555 1_555
C51_2 C50_2 1_555 1_555
C52_2 C32_2 1_555 1_555
H32_2 C52_2 1_555 1_555
O21_2 C51_2 1_555 1_555
O21E Nd1E 1_555 1_555
O22_2 Nd1_2 1_555 1_555
O22E Nd1E 1_555 1_555
O23_2 Nd4_2 1_555 1_555
C53F C20F 1_555 1_555
C54E C21E 1_555 1_555
H33E C54E 1_555 1_555
C55E C54E 1_555 1_555
C56E C29E 1_555 1_555
H34E C56E 1_555 1_555
C57_2 C25_2 1_555 1_555
H35_2 C57_2 1_555 1_555
C58_2 C57_2 1_555 1_555
C59_2 C27_2 1_555 1_555
H36_2 C59_2 1_555 1_555
C60F C53F 1_555 1_555
O24F C60F 1_555 1_555
O24_2 Nd3_2 1_555 1_555
O25F C60F 1_555 1_555
O25E Nd1E 1_555 1_555
C61E C55E 1_555 1_555
O26E Nd2 1_555 1_555
O27E Nd1E 1_555 1_555
C62_2 C58_2 1_555 1_555
O28_2 Nd4 1_555 1_555
O29_2 Nd3_2 1_555 1_555
Nd2 O22 1_555 1_555
C1 O6 1_555 1_555
C1 O23 1_555 1_555
C3 O9 1_555 1_555
C7 O12 1_555 1_555
C11 C31 1_555 1_555
C13 O15 1_555 1_555
C15 C19 1_555 1_555
C16 C17 1_555 1_555
C23 C30 1_555 1_555
C23 C53 1_555 1_555
N5 C34 1_555 1_555
C39 C40 1_555 1_555
O19 Nd2E 1_555 1_555
C45 C48 1_555 1_555
C46 C47 1_555 1_555
C48 O20 1_555 1_555
C50 C52 1_555 1_555
C51 O21 1_555 1_555
C51 O22 1_555 1_555
C55 C56 1_555 1_555
C58 C59 1_555 1_555
C60 O24 1_555 1_555
C60 O25 1_555 1_555
C61 O27 1_555 1_555
O26 Nd2E 1_555 1_555
C62 O29 1_555 1_555
O28 Nd4_2 1_555 1_555
Nd2E O5E 1_555 1_555
Nd2E O22E 1_555 1_555
Nd2_2 O22_2 1_555 1_555
C1_2 O23_2 1_555 1_555
C3E O9E 1_555 1_555
C5E O13E 1_555 1_555
O8_2 C8_2 1_555 1_555
C7_2 O12_2 1_555 1_555
N4_2 C22_2 1_555 1_555
C11_2 C31_2 1_555 1_555
C13_2 O15_2 1_555 1_555
C15_2 C17_2 1_555 1_555
C15_2 C19_2 1_555 1_555
C16_2 C17_2 1_555 1_555
C20F C26F 1_555 1_555
C23F C30F 1_555 1_555
C23F C53F 1_555 1_555
N5E C34E 1_555 1_555
C39E C40E 1_555 1_555
C41E O18E 1_555 1_555
C41E O19E 1_555 1_555
C45E C48E 1_555 1_555
C46E C47E 1_555 1_555
C48E O20E 1_555 1_555
C50_2 C52_2 1_555 1_555
C51_2 O22_2 1_555 1_555
C55E C56E 1_555 1_555
C58_2 C59_2 1_555 1_555
C61E O26E 1_555 1_555
C61E O27E 1_555 1_555
C62_2 O28_2 1_555 1_555
C62_2 O29_2 1_555 1_555

#END
