
#######################################################################
#
#                 Cambridge Crystallographic Data Centre
#                                CCDC 
#
#######################################################################
#
# If this CIF has been generated from an entry in the Cambridge 
# Structural Database, then it will include bibliographic, chemical, 
# crystal, experimental, refinement or atomic coordinate data resulting 
# from the CCDC's data processing and validation procedures.
#
#######################################################################

data_HETJAS
_symmetry_cell_setting           triclinic
_symmetry_space_group_name_H-M   'P -1'
_symmetry_Int_Tables_number      2
_space_group_name_Hall           '-P 1'
loop_
_symmetry_equiv_pos_site_id
_symmetry_equiv_pos_as_xyz
1 x,y,z
2 -x,-y,-z
_cell_length_a                   7.312(5)
_cell_length_b                   9.047(6)
_cell_length_c                   9.063(7)
_cell_angle_alpha                98.484(12)
_cell_angle_beta                 92.916(11)
_cell_angle_gamma                98.600(11)
_cell_volume                     584.672
loop_
_atom_site_label
_atom_site_type_symbol
_atom_site_fract_x
_atom_site_fract_y
_atom_site_fract_z
Pb1 Pb 0.87508(6) -0.00119(5) 0.68777(5)
O1 O 0.8881(12) 0.0984(9) 0.4674(9)
O2 O 0.8836(12) 0.2934(10) 0.7146(9)
O3 O 0.6810(16) 0.7681(11) 0.5112(12)
O4 O 0.5394(13) 0.0581(11) 0.6642(12)
H1 H 0.5276 0.1513 0.6537
H2 H 0.4313 0.0075 0.6846
C1 C 0.8323(16) 0.2336(13) 0.4527(13)
C2 C 0.7742(18) 0.2659(16) 0.3155(13)
H3 H 0.7722 0.1945 0.2301
C3 C 0.7192(17) 0.4034(14) 0.3041(13)
H4 H 0.6791 0.4242 0.2114
C4 C 0.7236(16) 0.5112(14) 0.4318(14)
C5 C 0.6719(19) 0.6583(15) 0.4150(17)
H5 H 0.6271 0.6688 0.3198
C6 C 0.7759(16) 0.4776(14) 0.5725(13)
H6 H 0.7749 0.5480 0.6582
C7 C 0.8281(16) 0.3411(14) 0.5829(13)
C8 C 0.846(2) 0.3824(19) 0.8514(14)
H7 H 0.9020 0.4858 0.8542
H8 H 0.8957 0.3436 0.9351
H9 H 0.7141 0.3772 0.8561
Pb1A Pb 1.12492(6) 0.00119(5) 0.31223(5)
Pb1_2 Pb 0.87508(6) 0.99881(5) 0.68777(5)
O1A O 1.1119(12) -0.0984(9) 0.5326(9)
O3_2 O 0.6810(16) -0.2319(11) 0.5112(12)
Cl1 Cl 0.7337(5) 0.8105(4) 0.0054(4)
O5 O 0.633(2) 0.896(2) -0.0712(19)
O6 O 0.899(2) 0.7946(17) -0.0693(17)
O7 O 0.635(2) 0.6639(17) 0.0100(17)
O8 O 0.7813(19) 0.8829(16) 0.1559(13)
loop_
_geom_bond_atom_site_label_1
_geom_bond_atom_site_label_2
_geom_bond_site_symmetry_1
_geom_bond_site_symmetry_2
Pb1 O1 1_555 1_555
O1 C1 1_555 1_555
O2 Pb1 1_555 1_555
O3 C5 1_555 1_555
O4 Pb1 1_555 1_555
H1 O4 1_555 1_555
H2 O4 1_555 1_555
C1 C2 1_555 1_555
C2 H3 1_555 1_555
C3 C2 1_555 1_555
H4 C3 1_555 1_555
C4 C3 1_555 1_555
C5 C4 1_555 1_555
H5 C5 1_555 1_555
C6 C4 1_555 1_555
H6 C6 1_555 1_555
C7 O2 1_555 1_555
C8 O2 1_555 1_555
H7 C8 1_555 1_555
H8 C8 1_555 1_555
H9 C8 1_555 1_555
Cl1 O5 1_555 1_555
O6 Cl1 1_555 1_555
O7 Cl1 1_555 1_555
O8 Cl1 1_555 1_555
Pb1A O1 1_555 1_555
Pb1_2 O3 1_555 1_555
O1A Pb1 1_555 1_555
O3_2 Pb1 1_555 1_555
C1 C7 1_555 1_555
C6 C7 1_555 1_555
Pb1A O1A 1_555 1_555

#END
