
#######################################################################
#
#                 Cambridge Crystallographic Data Centre
#                                CCDC 
#
#######################################################################
#
# If this CIF has been generated from an entry in the Cambridge 
# Structural Database, then it will include bibliographic, chemical, 
# crystal, experimental, refinement or atomic coordinate data resulting 
# from the CCDC's data processing and validation procedures.
#
#######################################################################

data_HETREE
_symmetry_cell_setting           triclinic
_symmetry_space_group_name_H-M   'P -1'
_symmetry_Int_Tables_number      2
_space_group_name_Hall           '-P 1'
loop_
_symmetry_equiv_pos_site_id
_symmetry_equiv_pos_as_xyz
1 x,y,z
2 -x,-y,-z
_cell_length_a                   6.5003(5)
_cell_length_b                   7.1818(4)
_cell_length_c                   7.3180(5)
_cell_angle_alpha                59.255(4)
_cell_angle_beta                 89.914(5)
_cell_angle_gamma                63.913(4)
_cell_volume                     252.429
loop_
_atom_site_label
_atom_site_type_symbol
_atom_site_fract_x
_atom_site_fract_y
_atom_site_fract_z
Cu1 Cu 1.0000 0.0000 1.0000
O1 O 1.0482(4) -0.3582(4) 1.1790(4)
C1 C 0.8796(7) -0.4371(7) 1.2183(7)
N1 N 1.2639(5) -0.1165(5) 1.2651(4)
C2 C 1.3544(4) -0.1743(5) 1.4342(4)
N2 N 1.4748(4) -0.2525(5) 1.6264(4)
C3 C 1.3546(4) -0.1743(5) 1.7401(4)
N3 N 1.2626(5) -0.1153(5) 1.8514(4)
H1 H 0.9642 -0.6272 1.3133
H2 H 0.7763 -0.3733 1.2984
H3 H 0.7757 -0.3723 1.0747
H4 H 1.1895 -0.4904 1.2429
Cu1_2 Cu 1.0000 0.0000 2.0000
O1A O 0.9518(4) 0.3582(4) 0.8210(4)
C1A C 1.1204(7) 0.4371(7) 0.7817(7)
N1A N 0.7361(5) 0.1165(5) 0.7349(4)
N1A_2 N 0.7361(5) 0.1165(5) 1.7349(4)
C2A C 0.6456(4) 0.1743(5) 1.5658(4)
N2A N 0.5252(4) 0.2525(5) 1.3736(4)
C3A C 0.6454(4) 0.1743(5) 1.2599(4)
N3_2 N 1.2626(5) -0.1153(5) 0.8514(4)
N3A N 0.7374(5) 0.1153(5) 1.1486(4)
H1A H 1.0358 0.6272 0.6867
H2A H 1.2237 0.3733 0.7016
H3A H 1.2243 0.3723 0.9253
H4A H 0.8105 0.4904 0.7571
loop_
_geom_bond_atom_site_label_1
_geom_bond_atom_site_label_2
_geom_bond_site_symmetry_1
_geom_bond_site_symmetry_2
Cu1 O1 1_555 1_555
O1 C1 1_555 1_555
C1 H1 1_555 1_555
N1 Cu1 1_555 1_555
C2 N1 1_555 1_555
N2 C2 1_555 1_555
C3 N2 1_555 1_555
N3 C3 1_555 1_555
H2 C1 1_555 1_555
H3 C1 1_555 1_555
H4 O1 1_555 1_555
Cu1_2 N3 1_555 1_555
O1A Cu1 1_555 1_555
C1A O1A 1_555 1_555
N1A Cu1 1_555 1_555
N1A_2 Cu1_2 1_555 1_555
C2A N1A_2 1_555 1_555
N2A C2A 1_555 1_555
C3A N2A 1_555 1_555
N3_2 Cu1 1_555 1_555
N3A Cu1 1_555 1_555
H1A C1A 1_555 1_555
H2A C1A 1_555 1_555
H3A C1A 1_555 1_555
H4A O1A 1_555 1_555
C3A N3A 1_555 1_555

#END
