
#######################################################################
#
#                 Cambridge Crystallographic Data Centre
#                                CCDC 
#
#######################################################################
#
# If this CIF has been generated from an entry in the Cambridge 
# Structural Database, then it will include bibliographic, chemical, 
# crystal, experimental, refinement or atomic coordinate data resulting 
# from the CCDC's data processing and validation procedures.
#
#######################################################################

data_HETXCU
_symmetry_cell_setting           monoclinic
_symmetry_space_group_name_H-M   'C 2/c'
_symmetry_Int_Tables_number      15
_space_group_name_Hall           '-C 2yn'
loop_
_symmetry_equiv_pos_site_id
_symmetry_equiv_pos_as_xyz
1 x,y,z
2 1/2+x,1/2+y,z
3 -x,y,1/2-z
4 1/2-x,1/2+y,1/2-z
5 -x,-y,-z
6 1/2-x,1/2-y,-z
7 x,-y,1/2+z
8 1/2+x,1/2-y,1/2+z
_cell_length_a                   21.47(5)
_cell_length_b                   7.49(1)
_cell_length_c                   9.75(2)
_cell_angle_alpha                90
_cell_angle_beta                 111.93(10)
_cell_angle_gamma                90
_cell_volume                     1454.45
loop_
_atom_site_label
_atom_site_type_symbol
_atom_site_fract_x
_atom_site_fract_y
_atom_site_fract_z
Cu1 Cu 0.34530 0.61752 0.26404
S1 S 0.26414 0.47400 0.07770
S2 S 0.50000 0.44330 0.25000
N1 N 0.31770 0.83500 0.15010
C1 C 0.23350 0.66140 -0.02580
C2 C 0.35420 0.99750 0.21860
H1 H 0.35530 1.07270 0.14420
H2 H 0.33010 1.06980 0.26090
C3 C 0.41820 0.93980 0.34410
H3 H 0.43120 1.02740 0.41130
H4 H 0.45850 0.88860 0.30910
O1 O 0.43910 0.55410 0.18760
O2 O 0.50720 0.32990 0.13240
O3 O 0.37540 0.40710 0.39230
H5 H 0.39220 0.42600 0.47990
O4 O 0.40110 0.79070 0.41700
H6 H 0.43270 0.75950 0.47170
C1E C 0.26650 0.83860 0.02580
N1E N 0.18230 0.66500 -0.15010
O1B O 0.56090 0.55410 0.31240
O2B O 0.49280 0.32990 0.36760
S1E S 0.23586 1.02600 -0.07770
Cu1E Cu 0.15470 0.88248 -0.26404
C2E C 0.14580 0.50250 -0.21860
Cu1B Cu 0.65470 0.61752 0.23596
O1E O 0.06090 0.94590 -0.18760
O3E O 0.12460 1.09290 -0.39230
O4E O 0.09890 0.70930 -0.41700
H1E H 0.14470 0.42730 -0.14420
H2E H 0.16990 0.43020 -0.26090
C3E C 0.08180 0.56020 -0.34410
H5E H 0.10780 1.07400 -0.47990
H6E H 0.06730 0.74050 -0.47170
H3E H 0.06880 0.47260 -0.41130
H4E H 0.04150 0.61140 -0.30910
loop_
_geom_bond_atom_site_label_1
_geom_bond_atom_site_label_2
_geom_bond_site_symmetry_1
_geom_bond_site_symmetry_2
Cu1 S1 1_555 1_555
S1 C1 1_555 1_555
S2 O1 1_555 1_555
N1 Cu1 1_555 1_555
C1 C1E 1_555 1_555
C2 N1 1_555 1_555
H1 C2 1_555 1_555
H2 C2 1_555 1_555
C3 C2 1_555 1_555
H3 C3 1_555 1_555
H4 C3 1_555 1_555
O1 Cu1 1_555 1_555
O2 S2 1_555 1_555
O3 Cu1 1_555 1_555
H5 O3 1_555 1_555
O4 Cu1 1_555 1_555
H6 O4 1_555 1_555
C1E N1 1_555 1_555
N1E C1 1_555 1_555
O1B S2 1_555 1_555
O2B S2 1_555 1_555
S1E C1E 1_555 1_555
Cu1E N1E 1_555 1_555
C2E N1E 1_555 1_555
Cu1B O1B 1_555 1_555
O1E Cu1E 1_555 1_555
O3E Cu1E 1_555 1_555
O4E Cu1E 1_555 1_555
H1E C2E 1_555 1_555
H2E C2E 1_555 1_555
C3E C2E 1_555 1_555
H5E O3E 1_555 1_555
H6E O4E 1_555 1_555
H3E C3E 1_555 1_555
H4E C3E 1_555 1_555
C3 O4 1_555 1_555
S1E Cu1E 1_555 1_555
O4E C3E 1_555 1_555

#END
