
#######################################################################
#
#                 Cambridge Crystallographic Data Centre
#                                CCDC 
#
#######################################################################
#
# If this CIF has been generated from an entry in the Cambridge 
# Structural Database, then it will include bibliographic, chemical, 
# crystal, experimental, refinement or atomic coordinate data resulting 
# from the CCDC's data processing and validation procedures.
#
#######################################################################

data_HETZUC
_symmetry_cell_setting           tetragonal
_symmetry_space_group_name_H-M   'P -4 n 2'
_symmetry_Int_Tables_number      118
_space_group_name_Hall           'P -4 -2n'
loop_
_symmetry_equiv_pos_site_id
_symmetry_equiv_pos_as_xyz
1 x,y,z
2 -x,-y,z
3 y,-x,-z
4 -y,x,-z
5 1/2+x,1/2-y,1/2+z
6 1/2-x,1/2+y,1/2+z
7 1/2+y,1/2+x,1/2-z
8 1/2-y,1/2-x,1/2-z
_cell_length_a                   17.038(2)
_cell_length_b                   17.038(2)
_cell_length_c                   14.754(3)
_cell_angle_alpha                90
_cell_angle_beta                 90
_cell_angle_gamma                90
_cell_volume                     4282.99
loop_
_atom_site_label
_atom_site_type_symbol
_atom_site_fract_x
_atom_site_fract_y
_atom_site_fract_z
Cl1 Cl 0.5000 -0.5000 0.0000
O12 O 0.4539(16) -0.4306(17) 0.4815(18)
O13 O 0.1950(11) -0.6950(11) 0.2500
Co1 Co 0.25500(9) -0.24500(9) 0.2500
C1 C 0.0888(8) -0.2610(9) 0.1820(13)
H1 H 0.0804 -0.2434 0.2409
C2 C 0.0240(8) -0.2652(8) 0.1233(12)
H2 H -0.0261 -0.2525 0.1436
C3 C 0.0362(8) -0.2879(7) 0.0366(13)
C4 C 0.1135(7) -0.3091(8) 0.0081(11)
H3 H 0.1237 -0.3276 -0.0500
C5 C 0.1749(7) -0.3002(8) 0.0749(12)
H4 H 0.2266 -0.3088 0.0572
C6 C -0.1636(6) -0.3053(6) -0.0706(11)
H5 H -0.2143 -0.3187 -0.0529
C7 C -0.1079(8) -0.3068(8) -0.0082(14)
H6 H -0.1214 -0.3174 0.0517
C8 C -0.0286(7) -0.2929(8) -0.0300(11)
C9 C -0.0147(7) -0.2755(7) -0.1242(12)
H7 H 0.0360 -0.2675 -0.1454
C10 C -0.0791(7) -0.2708(7) -0.1836(12)
H8 H -0.0699 -0.2567 -0.2435
V1 V 0.06433(17) 0.07100(16) 0.27056(15)
V2 V 0.18396(11) 0.05237(11) 0.4128(2)
V3 V -0.03138(11) -0.18784(11) 0.4145(2)
V4 V 0.12199(10) -0.11045(10) 0.37313(11)
N1 N 0.1611(5) -0.2808(5) 0.1586(9)
N2 N -0.1518(6) -0.2855(6) -0.1584(9)
O1 O 0.1195(4) 0.1356(4) 0.3790(5)
O2 O -0.0400(4) -0.2763(5) 0.3803(7)
O3 O 0.1287(4) -0.0084(5) 0.3184(7)
O4 O 0.0222(5) -0.1271(5) 0.3220(8)
O5 O 0.2696(4) 0.0739(5) 0.3760(8)
O6 O 0.1860(5) -0.0585(4) 0.4616(7)
O7 O 0.1000(6) 0.1161(6) 0.1829(6)
O8 O 0.0757(5) -0.1758(5) 0.4619(8)
O9 O 0.1820(4) -0.1678(4) 0.3181(5)
O10 O 0.0000 0.0000 0.2124(8)
Co1C Co 0.24500(9) 0.25500(9) -0.2500
Co1B Co -0.24500(9) -0.25500(9) -0.2500
Co1C_2 Co 0.24500(9) -0.74500(9) 0.7500
Co1B_2 Co 0.75500(9) -0.25500(9) 0.7500
Co1A Co -0.25500(9) 0.24500(9) 0.2500
Co1B_3 Co -0.24500(9) -0.25500(9) 0.7500
Co1C_3 Co 0.24500(9) 0.25500(9) 0.7500
C1F C 0.2390(9) -0.4112(8) 0.3180(13)
C1C C 0.2610(9) 0.0888(8) -0.1820(13)
C1D C 0.5888(8) -0.2390(9) 0.6820(13)
H1F H 0.2566 -0.4196 0.2591
H1C H 0.2434 0.0804 -0.2409
H1D H 0.5804 -0.2566 0.7409
C2F C 0.2348(8) -0.4760(8) 0.3767(12)
C2C C 0.2652(8) 0.0240(8) -0.1233(12)
C2D C 0.5240(8) -0.2348(8) 0.6233(12)
H2F H 0.2475 -0.5261 0.3564
H2C H 0.2525 -0.0261 -0.1436
H2D H 0.4739 -0.2475 0.6436
C3F C 0.2121(7) -0.4638(8) 0.4634(13)
C3C C 0.2879(7) 0.0362(8) -0.0366(13)
C3D C 0.5362(8) -0.2121(7) 0.5366(13)
C4F C 0.1909(8) -0.3865(7) 0.4919(11)
C4C C 0.3091(8) 0.1135(7) -0.0081(11)
C4D C 0.6135(7) -0.1909(8) 0.5081(11)
H3F H 0.1724 -0.3763 0.5500
H3C H 0.3276 0.1237 0.0500
H3D H 0.6237 -0.1724 0.4500
C5F C 0.1998(8) -0.3251(7) 0.4251(12)
C5C C 0.3002(8) 0.1749(7) -0.0749(12)
C5D C 0.6749(7) -0.1998(8) 0.5749(12)
H4F H 0.1912 -0.2734 0.4428
H4C H 0.3088 0.2266 -0.0572
H4D H 0.7266 -0.1912 0.5572
C6F C 0.1947(6) -0.6636(6) 0.5706(11)
C6C C 0.3053(6) -0.1636(6) 0.0706(11)
C6D C 0.3364(6) -0.1947(6) 0.4294(11)
H5F H 0.1813 -0.7143 0.5529
H5C H 0.3187 -0.2143 0.0529
H5D H 0.2857 -0.1813 0.4471
C7F C 0.1932(8) -0.6079(8) 0.5082(14)
C7C C 0.3068(8) -0.1079(8) 0.0082(14)
C7D C 0.3921(8) -0.1932(8) 0.4918(14)
H6F H 0.1826 -0.6214 0.4483
H6C H 0.3174 -0.1214 -0.0517
H6D H 0.3786 -0.1826 0.5517
C8F C 0.2071(8) -0.5286(7) 0.5300(11)
C8C C 0.2929(8) -0.0286(7) 0.0300(11)
C8D C 0.4714(7) -0.2071(8) 0.4700(11)
C9F C 0.2245(7) -0.5147(7) 0.6242(12)
C9C C 0.2755(7) -0.0147(7) 0.1242(12)
C9D C 0.4853(7) -0.2245(7) 0.3758(12)
H7F H 0.2325 -0.4640 0.6454
H7C H 0.2675 0.0360 0.1454
H7D H 0.5360 -0.2325 0.3546
C10F C 0.2292(7) -0.5791(7) 0.6836(12)
C10C C 0.2708(7) -0.0791(7) 0.1836(12)
C10D C 0.4209(7) -0.2292(7) 0.3164(12)
H8F H 0.2433 -0.5699 0.7435
H8C H 0.2567 -0.0699 0.2435
H8D H 0.4301 -0.2433 0.2565
V1A V -0.06433(17) -0.07100(16) 0.27056(15)
V1B V 0.07100(16) -0.06433(17) 0.72944(15)
V1C V -0.07100(16) 0.06433(17) 0.72944(15)
V2B V 0.05237(11) -0.18396(11) 0.5872(2)
V2A V -0.18396(11) -0.05237(11) 0.4128(2)
V2C V -0.05237(11) 0.18396(11) 0.5872(2)
V3C V 0.18784(11) -0.03138(11) 0.5855(2)
V3A V 0.03138(11) 0.18784(11) 0.4145(2)
V3B V -0.18784(11) 0.03138(11) 0.5855(2)
V4B V -0.11045(10) -0.12199(10) 0.62687(11)
V4C V 0.11045(10) 0.12199(10) 0.62687(11)
V4A V -0.12199(10) 0.11045(10) 0.37313(11)
N1F N 0.2192(5) -0.3389(5) 0.3414(9)
N1C N 0.2808(5) 0.1611(5) -0.1586(9)
N1D N 0.6611(5) -0.2192(5) 0.6586(9)
N1E N 0.3389(5) 0.2192(5) -0.3414(9)
N2F N 0.2145(6) -0.6518(6) 0.6584(9)
N2C N 0.2855(6) -0.1518(6) 0.1584(9)
N2D N 0.3482(6) -0.2145(6) 0.3416(9)
N2A N 0.1518(6) 0.2855(6) -0.1584(9)
N2F_2 N 0.2145(6) 0.3482(6) -0.3416(9)
O1A O -0.1195(4) -0.1356(4) 0.3790(5)
O1B O 0.1356(4) -0.1195(4) 0.6210(5)
O1C O -0.1356(4) 0.1195(4) 0.6210(5)
O2C O 0.2763(5) -0.0400(4) 0.6197(7)
O2A O 0.0400(4) 0.2763(5) 0.3803(7)
O2B O -0.2763(5) 0.0400(4) 0.6197(7)
O3A O -0.1287(4) 0.0084(5) 0.3184(7)
O3B O -0.0084(5) -0.1287(4) 0.6816(7)
O3C O 0.0084(5) 0.1287(4) 0.6816(7)
O4A O -0.0222(5) 0.1271(5) 0.3220(8)
O4C O 0.1271(5) 0.0222(5) 0.6780(8)
O4B O -0.1271(5) -0.0222(5) 0.6780(8)
O5B O 0.0739(5) -0.2696(4) 0.6240(8)
O5A O -0.2696(4) -0.0739(5) 0.3760(8)
O5C O -0.0739(5) 0.2696(4) 0.6240(8)
O6B O -0.0585(4) -0.1860(5) 0.5384(7)
O6C O 0.0585(4) 0.1860(5) 0.5384(7)
O6A O -0.1860(5) 0.0585(4) 0.4616(7)
O7A O -0.1000(6) -0.1161(6) 0.1829(6)
O7B O 0.1161(6) -0.1000(6) 0.8171(6)
O7C O -0.1161(6) 0.1000(6) 0.8171(6)
O8C O 0.1758(5) 0.0757(5) 0.5381(8)
O8A O -0.0757(5) 0.1758(5) 0.4619(8)
O8B O -0.1758(5) -0.0757(5) 0.5381(8)
O9F O 0.3322(4) -0.3180(4) 0.1819(5)
O9E O 0.3180(4) 0.3322(4) -0.1819(5)
O9C O 0.1678(4) 0.1820(4) -0.3181(5)
O9A O -0.1820(4) 0.1678(4) 0.3181(5)
O9B O -0.1678(4) -0.1820(4) 0.6819(5)
O9C_2 O 0.1678(4) 0.1820(4) 0.6819(5)
O10B O 0.0000 0.0000 0.7876(8)
C11? C 0.0476(12) -0.5442(13) 0.2048(16)
C12? C 0.0000 -0.5000 0.1494(17)
C13? C -0.0664(8) -0.4973(10) -0.0206(12)
C14? C -0.0617(12) -0.5018(11) -0.1480(18)
C15? C 0.0000 -0.5000 0.0466(17)
C16? C 0.0000 -0.5000 -0.311(3)
C17? C -0.0666(11) -0.4979(11) -0.0843(19)
N3? N 0.0000 -0.5000 -0.168(5)
N4? N 0.0000 -0.5000 -0.007(3)
N5? N 0.0000 -0.5000 0.1494(17)
O11? O 0.5000 -0.5000 0.2075(14)
O14? O 0.5000 -0.5000 0.5000
loop_
_geom_bond_atom_site_label_1
_geom_bond_atom_site_label_2
_geom_bond_site_symmetry_1
_geom_bond_site_symmetry_2
Co1 N1 1_555 1_555
C1 H1 1_555 1_555
C2 C1 1_555 1_555
H2 C2 1_555 1_555
C3 C2 1_555 1_555
C4 C3 1_555 1_555
H3 C4 1_555 1_555
C5 C4 1_555 1_555
H4 C5 1_555 1_555
C6 H5 1_555 1_555
C7 C6 1_555 1_555
H6 C7 1_555 1_555
C8 C3 1_555 1_555
C9 C8 1_555 1_555
H7 C9 1_555 1_555
C10 C9 1_555 1_555
H8 C10 1_555 1_555
V1 V2 1_555 1_555
V2 V4 1_555 1_555
V3 V4 1_555 1_555
V4 O3 1_555 1_555
N1 C1 1_555 1_555
N2 C6 1_555 1_555
O1 V1 1_555 1_555
O2 V3 1_555 1_555
O3 V1 1_555 1_555
O4 V3 1_555 1_555
O5 V2 1_555 1_555
O6 V2 1_555 1_555
O7 V1 1_555 1_555
O8 V3 1_555 1_555
O9 Co1 1_555 1_555
O10 V1 1_555 1_555
Co1C N1C 1_555 1_555
Co1B N2 1_555 1_555
Co1C_2 N2F 1_555 1_555
Co1B_2 N1D 1_555 1_555
Co1A O9A 1_555 1_555
Co1B_3 O9B 1_555 1_555
Co1C_3 O9C_2 1_555 1_555
C1F H1F 1_555 1_555
C1C H1C 1_555 1_555
C1D H1D 1_555 1_555
C2F C1F 1_555 1_555
C2C C1C 1_555 1_555
C2D C1D 1_555 1_555
H2F C2F 1_555 1_555
H2C C2C 1_555 1_555
H2D C2D 1_555 1_555
C3F C2F 1_555 1_555
C3C C2C 1_555 1_555
C3D C2D 1_555 1_555
C4F C3F 1_555 1_555
C4C C3C 1_555 1_555
C4D C3D 1_555 1_555
H3F C4F 1_555 1_555
H3C C4C 1_555 1_555
H3D C4D 1_555 1_555
C5F C4F 1_555 1_555
C5C C4C 1_555 1_555
C5D C4D 1_555 1_555
H4F C5F 1_555 1_555
H4C C5C 1_555 1_555
H4D C5D 1_555 1_555
C6F H5F 1_555 1_555
C6C H5C 1_555 1_555
C6D H5D 1_555 1_555
C7F C6F 1_555 1_555
C7C C6C 1_555 1_555
C7D C6D 1_555 1_555
H6F C7F 1_555 1_555
H6C C7C 1_555 1_555
H6D C7D 1_555 1_555
C8F C3F 1_555 1_555
C8C C3C 1_555 1_555
C8D C3D 1_555 1_555
C9F C8F 1_555 1_555
C9C C8C 1_555 1_555
C9D C8D 1_555 1_555
H7F C9F 1_555 1_555
H7C C9C 1_555 1_555
H7D C9D 1_555 1_555
C10F C9F 1_555 1_555
C10C C9C 1_555 1_555
C10D C9D 1_555 1_555
H8F C10F 1_555 1_555
H8C C10C 1_555 1_555
H8D C10D 1_555 1_555
V1A V3 1_555 1_555
V1B V2B 1_555 1_555
V1C V2C 1_555 1_555
V2B V3 1_555 1_555
V2A V1A 1_555 1_555
V2C V3A 1_555 1_555
V3C V2 1_555 1_555
V3A V1 1_555 1_555
V3B V1C 1_555 1_555
V4B V2B 1_555 1_555
V4C V2C 1_555 1_555
V4A V2A 1_555 1_555
N1F Co1 1_555 1_555
N1C C1C 1_555 1_555
N1D C1D 1_555 1_555
N1E Co1C 1_555 1_555
N2F C6F 1_555 1_555
N2C Co1 1_555 1_555
N2D Co1 1_555 1_555
N2A Co1C 1_555 1_555
N2F_2 Co1C 1_555 1_555
O1A V3 1_555 1_555
O1B V1B 1_555 1_555
O1C V1C 1_555 1_555
O2C V3C 1_555 1_555
O2A V3A 1_555 1_555
O2B V3B 1_555 1_555
O3A V1A 1_555 1_555
O3B V1B 1_555 1_555
O3C V1C 1_555 1_555
O4A V1 1_555 1_555
O4C V1B 1_555 1_555
O4B V1C 1_555 1_555
O5B V2B 1_555 1_555
O5A V2A 1_555 1_555
O5C V2C 1_555 1_555
O6B V3 1_555 1_555
O6C V2C 1_555 1_555
O6A V2A 1_555 1_555
O7A V1A 1_555 1_555
O7B V1B 1_555 1_555
O7C V1C 1_555 1_555
O8C V2 1_555 1_555
O8A V2C 1_555 1_555
O8B V2A 1_555 1_555
O9F Co1 1_555 1_555
O9E Co1C 1_555 1_555
O9C Co1C 1_555 1_555
O9A V4A 1_555 1_555
O9B V4B 1_555 1_555
O9C_2 V4C 1_555 1_555
O10B V1B 1_555 1_555
C5 N1 1_555 1_555
C7 C8 1_555 1_555
C10 N2 1_555 1_555
V2 O1 1_555 1_555
V2 O3 1_555 1_555
V4 O4 1_555 1_555
V4 O6 1_555 1_555
V4 O8 1_555 1_555
V4 O9 1_555 1_555
O1 V3A 1_555 1_555
O4 V1A 1_555 1_555
O6 V3C 1_555 1_555
O8 V2B 1_555 1_555
O10 V1A 1_555 1_555
C1F N1F 1_555 1_555
C5F N1F 1_555 1_555
C5C N1C 1_555 1_555
C5D N1D 1_555 1_555
C6C N2C 1_555 1_555
C6D N2D 1_555 1_555
C7F C8F 1_555 1_555
C7C C8C 1_555 1_555
C7D C8D 1_555 1_555
C10F N2F 1_555 1_555
C10C N2C 1_555 1_555
C10D N2D 1_555 1_555
V1A O1A 1_555 1_555
V1B V3C 1_555 1_555
V1C O10B 1_555 1_555
V2B O1B 1_555 1_555
V2B O3B 1_555 1_555
V2B O6B 1_555 1_555
V2A V3B 1_555 1_555
V2A O1A 1_555 1_555
V2A O3A 1_555 1_555
V2C O1C 1_555 1_555
V2C O3C 1_555 1_555
V3C V4C 1_555 1_555
V3C O1B 1_555 1_555
V3C O4C 1_555 1_555
V3C O8C 1_555 1_555
V3A V4A 1_555 1_555
V3A O4A 1_555 1_555
V3A O6C 1_555 1_555
V3A O8A 1_555 1_555
V3B V4B 1_555 1_555
V3B O1C 1_555 1_555
V3B O4B 1_555 1_555
V3B O6A 1_555 1_555
V3B O8B 1_555 1_555
V4B O3B 1_555 1_555
V4B O4B 1_555 1_555
V4B O6B 1_555 1_555
V4B O8B 1_555 1_555
V4C O3C 1_555 1_555
V4C O4C 1_555 1_555
V4C O6C 1_555 1_555
V4C O8C 1_555 1_555
V4A O3A 1_555 1_555
V4A O4A 1_555 1_555
V4A O6A 1_555 1_555
V4A O8A 1_555 1_555

#END
