
#######################################################################
#
#                 Cambridge Crystallographic Data Centre
#                                CCDC 
#
#######################################################################
#
# If this CIF has been generated from an entry in the Cambridge 
# Structural Database, then it will include bibliographic, chemical, 
# crystal, experimental, refinement or atomic coordinate data resulting 
# from the CCDC's data processing and validation procedures.
#
#######################################################################

data_HEVCIU
_symmetry_cell_setting           monoclinic
_symmetry_space_group_name_H-M   'C 2/c'
_symmetry_Int_Tables_number      15
_space_group_name_Hall           '-C 2yn'
loop_
_symmetry_equiv_pos_site_id
_symmetry_equiv_pos_as_xyz
1 x,y,z
2 1/2+x,1/2+y,z
3 -x,y,1/2-z
4 1/2-x,1/2+y,1/2-z
5 -x,-y,-z
6 1/2-x,1/2-y,-z
7 x,-y,1/2+z
8 1/2+x,1/2-y,1/2+z
_cell_length_a                   8.084(1)
_cell_length_b                   15.557(1)
_cell_length_c                   10.518(2)
_cell_angle_alpha                90
_cell_angle_beta                 95.10(1)
_cell_angle_gamma                90
_cell_volume                     1317.54
loop_
_atom_site_label
_atom_site_type_symbol
_atom_site_fract_x
_atom_site_fract_y
_atom_site_fract_z
Cu1 Cu 1.0000 0.09919(3) 0.7500
S1 S 1.2718(1) 0.09246(7) 0.5442(1)
N1 N 0.8721(4) 0.0161(2) 0.6436(3)
N2 N 0.8490(3) 0.1970(2) 0.6971(2)
C1 C 1.1890(4) 0.0284(2) 0.4346(3)
C2 C 0.6915(4) 0.1901(2) 0.6449(3)
C3 C 0.5945(4) 0.2614(2) 0.6145(3)
C4 C 0.6610(4) 0.3420(2) 0.6373(3)
C5 C 0.8227(4) 0.3495(2) 0.6911(3)
C6 C 0.9125(4) 0.2759(2) 0.7201(3)
H1 H 0.653(4) 0.130(2) 0.632(3)
H2 H 0.489(4) 0.251(2) 0.577(3)
H3 H 0.609(5) 0.392(2) 0.621(3)
H4 H 0.860(4) 0.405(2) 0.705(3)
N1D N 1.1279(4) -0.0161(2) 0.3564(3)
Cu1D Cu 1.0000 -0.09919(3) 0.2500
S1D S 0.7282(1) -0.09246(7) 0.4558(1)
C1D C 0.8110(4) -0.0284(2) 0.5654(3)
S1B S 0.7282(1) 0.09246(7) 0.9558(1)
N1B N 1.1279(4) 0.0161(2) 0.8564(3)
C6B C 1.0875(4) 0.2759(2) 0.7799(3)
N2B N 1.1510(3) 0.1970(2) 0.8029(2)
C2B C 1.3085(4) 0.1901(2) 0.8551(3)
C3B C 1.4055(4) 0.2614(2) 0.8855(3)
C4B C 1.3390(4) 0.3420(2) 0.8627(3)
C5B C 1.1773(4) 0.3495(2) 0.8089(3)
H4B H 1.140(4) 0.405(2) 0.795(3)
H3B H 1.391(5) 0.392(2) 0.879(3)
H2B H 1.511(4) 0.251(2) 0.923(3)
H1B H 1.347(4) 0.130(2) 0.868(3)
loop_
_geom_bond_atom_site_label_1
_geom_bond_atom_site_label_2
_geom_bond_site_symmetry_1
_geom_bond_site_symmetry_2
Cu1 S1 1_555 1_555
S1 C1 1_555 1_555
N1 Cu1 1_555 1_555
N2 Cu1 1_555 1_555
C1 N1D 1_555 1_555
C2 N2 1_555 1_555
C3 C2 1_555 1_555
C4 C3 1_555 1_555
C5 C4 1_555 1_555
C6 N2 1_555 1_555
H1 C2 1_555 1_555
H2 C3 1_555 1_555
H3 C4 1_555 1_555
H4 C5 1_555 1_555
N1D Cu1D 1_555 1_555
Cu1D S1D 1_555 1_555
S1D C1D 1_555 1_555
C1D N1 1_555 1_555
S1B Cu1 1_555 1_555
N1B Cu1 1_555 1_555
C6B C6 1_555 1_555
N2B Cu1 1_555 1_555
C2B N2B 1_555 1_555
C3B C2B 1_555 1_555
C4B C3B 1_555 1_555
C5B C6B 1_555 1_555
H4B C5B 1_555 1_555
H3B C4B 1_555 1_555
H2B C3B 1_555 1_555
H1B C2B 1_555 1_555
C5 C6 1_555 1_555
C6B N2B 1_555 1_555
C4B C5B 1_555 1_555

#END
