
#######################################################################
#
#                 Cambridge Crystallographic Data Centre
#                                CCDC 
#
#######################################################################
#
# If this CIF has been generated from an entry in the Cambridge 
# Structural Database, then it will include bibliographic, chemical, 
# crystal, experimental, refinement or atomic coordinate data resulting 
# from the CCDC's data processing and validation procedures.
#
#######################################################################

data_HEVCAN01
_symmetry_cell_setting           monoclinic
_symmetry_space_group_name_H-M   'P 2/c'
_symmetry_Int_Tables_number      13
_space_group_name_Hall           '-P 2yc'
loop_
_symmetry_equiv_pos_site_id
_symmetry_equiv_pos_as_xyz
1 x,y,z
2 -x,y,1/2-z
3 -x,-y,-z
4 x,-y,1/2+z
_cell_length_a                   13.307(2)
_cell_length_b                   5.0336(5)
_cell_length_c                   12.1142(18)
_cell_angle_alpha                90
_cell_angle_beta                 116.218(5)
_cell_angle_gamma                90
_cell_volume                     727.954
loop_
_atom_site_label
_atom_site_type_symbol
_atom_site_fract_x
_atom_site_fract_y
_atom_site_fract_z
Zn1 Zn 0.5000 0.06544(8) 0.2500
S1 S 1.0000 1.11920(17) 0.7500
O1 O 0.95911(16) 1.2624(4) 0.82475(17)
O2 O 0.43397(19) -0.2093(4) 0.31598(18)
H1 H 0.4431 -0.1668 0.3851
H2 H 0.4124 -0.3601 0.2709
O3 O 0.57593(17) 0.2490(4) 0.46605(18)
O4 O 0.62737(16) 0.3210(4) 0.32013(16)
C1 C 0.8918(2) 0.9027(5) 0.6537(2)
C2 C 0.8021(2) 0.8548(6) 0.6798(2)
H3 H 0.7975 0.9384 0.7458
C3 C 0.7191(2) 0.6793(6) 0.6053(2)
H4 H 0.6583 0.6447 0.6216
C4 C 0.7264(2) 0.5561(5) 0.5072(2)
C5 C 0.8155(2) 0.6106(6) 0.4804(2)
H5 H 0.8191 0.5317 0.4128
C6 C 0.8991(2) 0.7828(6) 0.5548(2)
H6 H 0.9597 0.8178 0.5384
C7 C 0.6383(2) 0.3636(5) 0.4294(2)
Zn1_2 Zn 1.5000 0.06544(8) 1.2500
O1A O 1.04089(16) 1.2624(4) 0.67525(17)
O2A O 0.56603(19) -0.2093(4) 0.18402(18)
H1A H 0.5569 -0.1668 0.1149
H2A H 0.5876 -0.3601 0.2291
O3A O 1.42407(17) 0.2490(4) 1.03395(18)
O4A O 1.37263(16) 0.3210(4) 1.17987(16)
O4A_2 O 0.37263(16) 0.3210(4) 0.17987(16)
C1A C 1.1082(2) 0.9027(5) 0.8463(2)
C2A C 1.1979(2) 0.8548(6) 0.8202(2)
H3A H 1.2025 0.9384 0.7542
C3A C 1.2809(2) 0.6793(6) 0.8947(2)
H4A H 1.3417 0.6447 0.8784
C4A C 1.2736(2) 0.5561(5) 0.9928(2)
C5A C 1.1845(2) 0.6106(6) 1.0196(2)
H5A H 1.1809 0.5317 1.0872
C6A C 1.1009(2) 0.7828(6) 0.9452(2)
H6A H 1.0403 0.8178 0.9616
C7A C 1.3617(2) 0.3636(5) 1.0706(2)
loop_
_geom_bond_atom_site_label_1
_geom_bond_atom_site_label_2
_geom_bond_site_symmetry_1
_geom_bond_site_symmetry_2
Zn1 O2 1_555 1_555
S1 O1 1_555 1_555
O2 H1 1_555 1_555
H2 O2 1_555 1_555
O3 C7 1_555 1_555
O4 Zn1 1_555 1_555
C1 S1 1_555 1_555
C2 C1 1_555 1_555
H3 C2 1_555 1_555
C3 C2 1_555 1_555
H4 C3 1_555 1_555
C4 C3 1_555 1_555
C5 C4 1_555 1_555
H5 C5 1_555 1_555
C6 C1 1_555 1_555
H6 C6 1_555 1_555
C7 O4 1_555 1_555
Zn1_2 O4A 1_555 1_555
O1A S1 1_555 1_555
O2A Zn1 1_555 1_555
H1A O2A 1_555 1_555
H2A O2A 1_555 1_555
O3A C7A 1_555 1_555
O4A C7A 1_555 1_555
O4A_2 Zn1 1_555 1_555
C1A S1 1_555 1_555
C2A C1A 1_555 1_555
H3A C2A 1_555 1_555
C3A C2A 1_555 1_555
H4A C3A 1_555 1_555
C4A C3A 1_555 1_555
C5A C4A 1_555 1_555
H5A C5A 1_555 1_555
C6A C1A 1_555 1_555
H6A C6A 1_555 1_555
C7A C4A 1_555 1_555
C4 C7 1_555 1_555
C5 C6 1_555 1_555
C5A C6A 1_555 1_555

#END
