
#######################################################################
#
#                 Cambridge Crystallographic Data Centre
#                                CCDC 
#
#######################################################################
#
# If this CIF has been generated from an entry in the Cambridge 
# Structural Database, then it will include bibliographic, chemical, 
# crystal, experimental, refinement or atomic coordinate data resulting 
# from the CCDC's data processing and validation procedures.
#
#######################################################################

data_HEVCER
_symmetry_cell_setting           monoclinic
_symmetry_space_group_name_H-M   'P 21/n'
_symmetry_Int_Tables_number      14
_space_group_name_Hall           '-P 2yn'
loop_
_symmetry_equiv_pos_site_id
_symmetry_equiv_pos_as_xyz
1 x,y,z
2 1/2-x,1/2+y,1/2-z
3 -x,-y,-z
4 1/2+x,1/2-y,1/2+z
_cell_length_a                   6.7630(9)
_cell_length_b                   16.478(2)
_cell_length_c                   24.194(3)
_cell_angle_alpha                90
_cell_angle_beta                 90.674(2)
_cell_angle_gamma                90
_cell_volume                     2696.01
loop_
_atom_site_label
_atom_site_type_symbol
_atom_site_fract_x
_atom_site_fract_y
_atom_site_fract_z
Zn1 Zn 0.26830(6) 0.87123(2) 0.106177(17)
S1 S -0.26929(14) 0.89288(5) 0.43115(4)
O1 O 0.1586(4) 0.87796(16) 0.18401(10)
O2 O 0.4152(4) 0.8368(2) 0.23474(11)
O3 O -0.4448(4) 0.84460(14) 0.42387(10)
O4 O -0.1444(4) 0.87837(15) 0.47854(10)
O5 O -0.6853(4) 1.25736(15) 0.40533(11)
O6 O -0.3750(4) 1.29958(15) 0.41772(11)
O7 O 0.5521(3) 0.86007(16) 0.13328(10)
H1 H 0.6406 0.8325 0.1169
H2 H 0.5340 0.8476 0.1671
N1 N 0.2882(4) 0.89003(17) 0.01867(12)
N2 N 0.2313(4) 0.99788(18) 0.09747(13)
C1 C 0.2413(6) 0.8584(2) 0.22921(15)
C2 C 0.1114(5) 0.8636(2) 0.27928(14)
C3 C -0.0870(6) 0.8825(2) 0.27408(15)
H3 H -0.1421 0.8899 0.2390
C4 C -0.2046(6) 0.8906(2) 0.31967(15)
H4 H -0.3383 0.9027 0.3156
C5 C -0.1212(5) 0.8807(2) 0.37174(14)
C6 C 0.0762(5) 0.8617(2) 0.37794(14)
H5 H 0.1317 0.8552 0.4130
C7 C 0.1907(5) 0.8525(2) 0.33144(14)
H6 H 0.3233 0.8385 0.3354
C8 C -0.3380(5) 0.9962(2) 0.42918(14)
C9 C -0.5271(5) 1.0168(2) 0.41342(16)
H7 H -0.6191 0.9765 0.4052
C10 C -0.5800(6) 1.0970(2) 0.40976(16)
H8 H -0.7086 1.1109 0.3996
C11 C -0.4438(5) 1.1575(2) 0.42107(14)
C12 C -0.2551(6) 1.1362(2) 0.43789(16)
H9 H -0.1633 1.1765 0.4463
C13 C -0.2016(6) 1.0555(2) 0.44229(15)
H10 H -0.0748 1.0413 0.4540
C14 C -0.5035(6) 1.2455(2) 0.41440(14)
C15 C 0.3115(6) 0.8314(2) -0.01898(17)
H11 H 0.3301 0.7783 -0.0070
C16 C 0.3089(6) 0.8470(3) -0.07498(18)
H12 H 0.3233 0.8051 -0.1003
C17 C 0.2846(6) 0.9255(3) -0.09257(17)
H13 H 0.2849 0.9376 -0.1301
C18 C 0.2597(5) 0.9864(3) -0.05418(16)
H14 H 0.2423 1.0399 -0.0655
C19 C 0.2611(5) 0.9669(2) 0.00128(14)
C20 C 0.2339(5) 1.0275(2) 0.04567(15)
C21 C 0.2074(5) 1.1096(2) 0.03572(18)
H15 H 0.2057 1.1293 -0.0003
C22 C 0.1835(6) 1.1617(3) 0.0793(2)
H16 H 0.1654 1.2169 0.0731
C23 C 0.1866(7) 1.1319(3) 0.1317(2)
H17 H 0.1730 1.1664 0.1618
C24 C 0.2101(6) 1.0502(3) 0.13937(17)
H18 H 0.2115 1.0300 0.1753
Zn1A Zn -0.76830(6) 1.37123(2) 0.393823(17)
O5A O 0.1853(4) 0.75736(15) 0.09467(11)
O8 O 0.6449(8) 0.7023(3) 0.28131(17)
H19 H 0.5466 0.7298 0.2744
C25 C 0.8873(14) 0.6148(6) 0.2427(4)
H20 H 0.9842 0.6492 0.2601
H21 H 0.9385 0.5943 0.2086
H22 H 0.8573 0.5702 0.2668
C26 C 0.7077(13) 0.6613(5) 0.2315(3)
H23 H 0.7463 0.7044 0.2059
C27 C 0.5317(13) 0.6208(5) 0.2053(3)
H24 H 0.4879 0.5773 0.2285
H25 H 0.5676 0.5995 0.1698
H26 H 0.4269 0.6596 0.2006
loop_
_geom_bond_atom_site_label_1
_geom_bond_atom_site_label_2
_geom_bond_site_symmetry_1
_geom_bond_site_symmetry_2
Zn1 O1 1_555 1_555
S1 O3 1_555 1_555
O1 C1 1_555 1_555
O2 C1 1_555 1_555
O4 S1 1_555 1_555
O5 C14 1_555 1_555
O6 C14 1_555 1_555
O7 Zn1 1_555 1_555
H1 O7 1_555 1_555
H2 O7 1_555 1_555
N1 Zn1 1_555 1_555
N2 Zn1 1_555 1_555
C1 C2 1_555 1_555
C2 C3 1_555 1_555
C3 H3 1_555 1_555
C4 C3 1_555 1_555
H4 C4 1_555 1_555
C5 S1 1_555 1_555
C6 C5 1_555 1_555
H5 C6 1_555 1_555
C7 C2 1_555 1_555
H6 C7 1_555 1_555
C8 S1 1_555 1_555
C9 C8 1_555 1_555
H7 C9 1_555 1_555
C10 C9 1_555 1_555
H8 C10 1_555 1_555
C11 C10 1_555 1_555
C12 C11 1_555 1_555
H9 C12 1_555 1_555
C13 C8 1_555 1_555
H10 C13 1_555 1_555
C14 C11 1_555 1_555
C15 N1 1_555 1_555
H11 C15 1_555 1_555
C16 C15 1_555 1_555
H12 C16 1_555 1_555
C17 C16 1_555 1_555
H13 C17 1_555 1_555
C18 C17 1_555 1_555
H14 C18 1_555 1_555
C19 N1 1_555 1_555
C20 N2 1_555 1_555
C21 C20 1_555 1_555
H15 C21 1_555 1_555
C22 C21 1_555 1_555
H16 C22 1_555 1_555
C23 C22 1_555 1_555
H17 C23 1_555 1_555
C24 N2 1_555 1_555
H18 C24 1_555 1_555
O8 H19 1_555 1_555
C25 H20 1_555 1_555
H21 C25 1_555 1_555
H22 C25 1_555 1_555
C26 O8 1_555 1_555
H23 C26 1_555 1_555
C27 C26 1_555 1_555
H24 C27 1_555 1_555
H25 C27 1_555 1_555
H26 C27 1_555 1_555
Zn1A O5 1_555 1_555
O5A Zn1 1_555 1_555
C4 C5 1_555 1_555
C6 C7 1_555 1_555
C12 C13 1_555 1_555
C18 C19 1_555 1_555
C19 C20 1_555 1_555
C23 C24 1_555 1_555
C25 C26 1_555 1_555

#END
