
#######################################################################
#
#                 Cambridge Crystallographic Data Centre
#                                CCDC 
#
#######################################################################
#
# If this CIF has been generated from an entry in the Cambridge 
# Structural Database, then it will include bibliographic, chemical, 
# crystal, experimental, refinement or atomic coordinate data resulting 
# from the CCDC's data processing and validation procedures.
#
#######################################################################

data_HEVCIU01
_symmetry_cell_setting           monoclinic
_symmetry_space_group_name_H-M   'C 2/c'
_symmetry_Int_Tables_number      15
_space_group_name_Hall           '-C 2yn'
loop_
_symmetry_equiv_pos_site_id
_symmetry_equiv_pos_as_xyz
1 x,y,z
2 1/2+x,1/2+y,z
3 -x,y,1/2-z
4 1/2-x,1/2+y,1/2-z
5 -x,-y,-z
6 1/2-x,1/2-y,-z
7 x,-y,1/2+z
8 1/2+x,1/2-y,1/2+z
_cell_length_a                   8.125(4)
_cell_length_b                   15.557(6)
_cell_length_c                   10.536(3)
_cell_angle_alpha                90
_cell_angle_beta                 95.32(3)
_cell_angle_gamma                90
_cell_volume                     1326.02
loop_
_atom_site_label
_atom_site_type_symbol
_atom_site_fract_x
_atom_site_fract_y
_atom_site_fract_z
Cu1 Cu 0.0000 0.09972(8) 0.2500
S1 S 0.2723(2) 0.09178(13) 0.04465(15)
N1 N 0.1558(6) 0.1962(3) 0.3001(4)
N2 N 0.1271(7) -0.0152(3) -0.1443(4)
C1 C 0.0867(8) 0.2762(4) 0.2829(5)
C2 C 0.1763(7) 0.3483(3) 0.3108(5)
H1 H 0.1296(7) 0.4020(3) 0.2924(5)
C3 C 0.3303(10) 0.3428(5) 0.3644(7)
H2 H 0.3897(10) 0.3921(5) 0.3889(7)
C4 C 0.3997(12) 0.2637(5) 0.3829(6)
H3 H 0.5107(12) 0.2588(5) 0.4128(6)
C5 C 0.3083(9) 0.1924(4) 0.3580(5)
H4 H 0.3529(9) 0.1391(4) 0.3820(5)
C6 C 0.1960(8) 0.0247(3) -0.0635(4)
N2F N 0.1271(7) 0.0152(3) 0.3557(4)
Cu1F Cu 0.0000 -0.09972(8) -0.2500
S1D S -0.2723(2) -0.09178(13) -0.04465(15)
C6D C -0.1960(8) -0.0247(3) 0.0635(4)
N2D N -0.1271(7) 0.0152(3) 0.1443(4)
S1B S -0.2723(2) 0.09178(13) 0.45535(15)
C1B C -0.0867(8) 0.2762(4) 0.2171(5)
N1B N -0.1558(6) 0.1962(3) 0.1999(4)
C5B C -0.3083(9) 0.1924(4) 0.1420(5)
C4B C -0.3997(12) 0.2637(5) 0.1171(6)
C3B C -0.3303(10) 0.3428(5) 0.1356(7)
C2B C -0.1763(7) 0.3483(3) 0.1892(5)
H1B H -0.1296(7) 0.4020(3) 0.2076(5)
H2B H -0.3897(10) 0.3921(5) 0.1111(7)
H3B H -0.5107(12) 0.2588(5) 0.0872(6)
H4B H -0.3529(9) 0.1391(4) 0.1180(5)
loop_
_geom_bond_atom_site_label_1
_geom_bond_atom_site_label_2
_geom_bond_site_symmetry_1
_geom_bond_site_symmetry_2
Cu1 S1 1_555 1_555
S1 C6 1_555 1_555
N1 Cu1 1_555 1_555
N2 C6 1_555 1_555
C1 N1 1_555 1_555
C2 C1 1_555 1_555
H1 C2 1_555 1_555
C3 C2 1_555 1_555
H2 C3 1_555 1_555
C4 C3 1_555 1_555
H3 C4 1_555 1_555
C5 N1 1_555 1_555
H4 C5 1_555 1_555
N2F Cu1 1_555 1_555
Cu1F N2 1_555 1_555
S1D Cu1F 1_555 1_555
C6D S1D 1_555 1_555
N2D Cu1 1_555 1_555
S1B Cu1 1_555 1_555
C1B C1 1_555 1_555
N1B Cu1 1_555 1_555
C5B N1B 1_555 1_555
C4B C5B 1_555 1_555
C3B C4B 1_555 1_555
C2B C1B 1_555 1_555
H1B C2B 1_555 1_555
H2B C3B 1_555 1_555
H3B C4B 1_555 1_555
H4B C5B 1_555 1_555
C4 C5 1_555 1_555
C6D N2D 1_555 1_555
C1B N1B 1_555 1_555
C3B C2B 1_555 1_555

#END
