
#######################################################################
#
#                 Cambridge Crystallographic Data Centre
#                                CCDC 
#
#######################################################################
#
# If this CIF has been generated from an entry in the Cambridge 
# Structural Database, then it will include bibliographic, chemical, 
# crystal, experimental, refinement or atomic coordinate data resulting 
# from the CCDC's data processing and validation procedures.
#
#######################################################################

data_HEVGOF
_symmetry_cell_setting           triclinic
_symmetry_space_group_name_H-M   'P -1'
_symmetry_Int_Tables_number      2
_space_group_name_Hall           '-P 1'
loop_
_symmetry_equiv_pos_site_id
_symmetry_equiv_pos_as_xyz
1 x,y,z
2 -x,-y,-z
_cell_length_a                   8.0720(7)
_cell_length_b                   9.760(1)
_cell_length_c                   11.260(1)
_cell_angle_alpha                107.235(5)
_cell_angle_beta                 104.600(6)
_cell_angle_gamma                101.293(3)
_cell_volume                     783.999
loop_
_atom_site_label
_atom_site_type_symbol
_atom_site_fract_x
_atom_site_fract_y
_atom_site_fract_z
Co1 Co 0.0000 0.0000 1.0000
O1 O -0.6372(3) -0.4753(3) 0.7420(3)
O2 O 0.2434(3) -0.0472(2) 1.0481(2)
N1 N -0.1149(3) -0.2205(3) 0.8415(2)
N2 N -0.9262(3) -0.9097(3) 0.8568(2)
N3 N -0.6101(3) -0.6719(3) 0.5933(3)
C1 C -0.2815(4) -0.3093(3) 0.8102(3)
C2 C -0.3528(4) -0.4502(3) 0.7106(3)
C3 C -0.2441(4) -0.5042(4) 0.6418(3)
C4 C -0.0722(4) -0.4143(4) 0.6729(3)
C5 C -0.0143(4) -0.2730(3) 0.7709(3)
C6 C -0.7577(4) -0.8736(4) 0.8561(3)
C7 C -0.7085(4) -0.8234(4) 0.7639(3)
C8 C -0.8370(4) -0.8078(3) 0.6660(3)
C9 C -1.0123(4) -0.8454(4) 0.6653(3)
C10 C -1.0502(4) -0.8961(4) 0.7607(3)
C11 C -0.5442(4) -0.5320(3) 0.6836(3)
C12 C -0.7970(4) -0.7542(4) 0.5599(3)
H1 H -0.3546 -0.2737 0.8590
H2 H -0.2870 -0.6012 0.5747
H3 H 0.0051 -0.4489 0.6278
H4 H 0.1020 -0.2104 0.7888
H5 H -0.6667 -0.8830 0.9229
H6 H -0.5868 -0.7997 0.7679
H7 H -1.1055 -0.8363 0.5998
H8 H -1.1713 -0.9228 0.7575
H9 H -0.5354 -0.7169 0.5515
H10 H -0.8684 -0.6904 0.5446
H11 H -0.8285 -0.8393 0.4816
Co1_2 Co -1.0000 -1.0000 1.0000
Co1_3 Co 1.0000 1.0000 1.0000
O1A O 0.6372(3) 0.4753(3) 1.2580(3)
O2A O -0.2434(3) 0.0472(2) 0.9519(2)
N1A N 0.1149(3) 0.2205(3) 1.1585(2)
N2A N 0.9262(3) 0.9097(3) 1.1432(2)
N2_2 N 0.0738(3) 0.0903(3) 0.8568(2)
N2A_2 N -0.0738(3) -0.0903(3) 1.1432(2)
N3A N 0.6101(3) 0.6719(3) 1.4067(3)
C1A C 0.2815(4) 0.3093(3) 1.1898(3)
C2A C 0.3528(4) 0.4502(3) 1.2894(3)
C3A C 0.2441(4) 0.5042(4) 1.3582(3)
C4A C 0.0722(4) 0.4143(4) 1.3271(3)
C5A C 0.0143(4) 0.2730(3) 1.2291(3)
C6A C 0.7577(4) 0.8736(4) 1.1439(3)
C7A C 0.7085(4) 0.8234(4) 1.2361(3)
C8A C 0.8370(4) 0.8078(3) 1.3340(3)
C9A C 1.0123(4) 0.8454(4) 1.3347(3)
C10A C 1.0502(4) 0.8961(4) 1.2393(3)
C11A C 0.5442(4) 0.5320(3) 1.3164(3)
C12A C 0.7970(4) 0.7542(4) 1.4401(3)
H1A H 0.3546 0.2737 1.1410
H2A H 0.2870 0.6012 1.4253
H3A H -0.0051 0.4489 1.3722
H4A H -0.1020 0.2104 1.2112
H5A H 0.6667 0.8830 1.0771
H6A H 0.5868 0.7997 1.2321
H7A H 1.1055 0.8363 1.4002
H8A H 1.1713 0.9228 1.2425
H9A H 0.5354 0.7169 1.4485
H10A H 0.8684 0.6904 1.4554
H11A H 0.8285 0.8393 1.5184
O3 O 0.4800(4) 0.1513(3) 0.3731(3)
O4 O 0.7636(3) 0.2205(3) 0.4051(3)
O5 O 0.5748(3) 0.1218(3) 0.2065(2)
N4 N 0.6077(3) 0.1645(3) 0.3291(3)
O6 O 0.3244(4) 0.6929(3) 0.9687(3)
C13 C 0.257(1) 0.5701(7) 0.9997(7)
H12 H 0.1394 0.5668 1.0024
H13 H 0.2528 0.4804 0.9345
H14 H 0.3319 0.5794 1.0833
loop_
_geom_bond_atom_site_label_1
_geom_bond_atom_site_label_2
_geom_bond_site_symmetry_1
_geom_bond_site_symmetry_2
Co1 O2 1_555 1_555
O1 C11 1_555 1_555
O3 N4 1_555 1_555
O4 N4 1_555 1_555
O5 N4 1_555 1_555
O6 C13 1_555 1_555
N1 Co1 1_555 1_555
N2 C6 1_555 1_555
N3 C11 1_555 1_555
C1 N1 1_555 1_555
C2 C1 1_555 1_555
C3 C2 1_555 1_555
C4 C3 1_555 1_555
C5 N1 1_555 1_555
C6 C7 1_555 1_555
C7 C8 1_555 1_555
C8 C9 1_555 1_555
C9 C10 1_555 1_555
C10 N2 1_555 1_555
C11 C2 1_555 1_555
C12 N3 1_555 1_555
C13 H12 1_555 1_555
H1 C1 1_555 1_555
H2 C3 1_555 1_555
H3 C4 1_555 1_555
H4 C5 1_555 1_555
H5 C6 1_555 1_555
H6 C7 1_555 1_555
H7 C9 1_555 1_555
H8 C10 1_555 1_555
H9 N3 1_555 1_555
H10 C12 1_555 1_555
H11 C12 1_555 1_555
H13 C13 1_555 1_555
H14 C13 1_555 1_555
Co1_2 N2 1_555 1_555
Co1_3 N2A 1_555 1_555
O1A C11A 1_555 1_555
O2A Co1 1_555 1_555
N1A Co1 1_555 1_555
N2A C6A 1_555 1_555
N2_2 Co1 1_555 1_555
N2A_2 Co1 1_555 1_555
N3A C11A 1_555 1_555
C1A N1A 1_555 1_555
C2A C1A 1_555 1_555
C3A C2A 1_555 1_555
C4A C3A 1_555 1_555
C5A N1A 1_555 1_555
C6A C7A 1_555 1_555
C7A C8A 1_555 1_555
C8A C9A 1_555 1_555
C9A C10A 1_555 1_555
C10A N2A 1_555 1_555
C11A C2A 1_555 1_555
C12A N3A 1_555 1_555
H1A C1A 1_555 1_555
H2A C3A 1_555 1_555
H3A C4A 1_555 1_555
H4A C5A 1_555 1_555
H5A C6A 1_555 1_555
H6A C7A 1_555 1_555
H7A C9A 1_555 1_555
H8A C10A 1_555 1_555
H9A N3A 1_555 1_555
H10A C12A 1_555 1_555
H11A C12A 1_555 1_555
C4 C5 1_555 1_555
C8 C12 1_555 1_555
C4A C5A 1_555 1_555
C8A C12A 1_555 1_555

#END
