
#######################################################################
#
#                 Cambridge Crystallographic Data Centre
#                                CCDC 
#
#######################################################################
#
# If this CIF has been generated from an entry in the Cambridge 
# Structural Database, then it will include bibliographic, chemical, 
# crystal, experimental, refinement or atomic coordinate data resulting 
# from the CCDC's data processing and validation procedures.
#
#######################################################################

data_HEVGEV
_symmetry_cell_setting           triclinic
_symmetry_space_group_name_H-M   'P -1'
_symmetry_Int_Tables_number      2
_space_group_name_Hall           '-P 1'
loop_
_symmetry_equiv_pos_site_id
_symmetry_equiv_pos_as_xyz
1 x,y,z
2 -x,-y,-z
_cell_length_a                   7.899(7)
_cell_length_b                   8.782(7)
_cell_length_c                   8.980(8)
_cell_angle_alpha                84.70(2)
_cell_angle_beta                 81.32(2)
_cell_angle_gamma                82.50(2)
_cell_volume                     608.85
loop_
_atom_site_label
_atom_site_type_symbol
_atom_site_fract_x
_atom_site_fract_y
_atom_site_fract_z
Co1 Co 0.5000 0.0000 0.5000
Cl1 Cl 0.28272(9) -0.05780(8) 0.35282(8)
O1 O 0.1448(5) 0.4311(3) 0.1563(3)
N1 N 0.3720(3) 0.2381(3) 0.5163(3)
N2 N 0.3372(3) 0.9285(3) -0.2852(3)
N3 N 0.1008(3) 0.6722(3) 0.2312(3)
C1 C 0.3006(4) 0.3097(3) 0.3985(3)
C2 C 0.2302(4) 0.4636(3) 0.3917(3)
C3 C 0.2291(4) 0.5466(3) 0.5157(3)
C4 C 0.2998(4) 0.4729(4) 0.6395(3)
C5 C 0.3700(4) 0.3211(4) 0.6352(3)
C6 C 0.1697(4) 0.9169(4) -0.2841(3)
C7 C 0.0650(4) 0.8560(4) -0.1617(3)
C8 C 0.1330(4) 0.8027(3) -0.0301(3)
C9 C 0.3044(4) 0.8184(4) -0.0288(3)
C10 C 0.4002(4) 0.8835(5) -0.1547(4)
C11 C 0.1565(4) 0.5211(3) 0.2482(3)
C12 C 0.0179(4) 0.7348(3) 0.1013(3)
H1 H 0.2977 0.2519 0.3147
H2 H 0.1811 0.6515 0.5161
H3 H 0.2998 0.5268 0.7265
H4 H 0.4193 0.2728 0.7202
H5 H 0.1199 0.9526 -0.3727
H6 H -0.0532 0.8506 -0.1676
H7 H 0.3567 0.7844 0.0589
H8 H 0.5163 0.8971 -0.1489
H9 H 0.1159 0.7386 0.3047
H10 H -0.0316 0.6540 0.0666
H11 H -0.0708 0.8134 0.1339
Co1_2 Co 0.5000 1.0000 -0.5000
Co1_3 Co 0.5000 -1.0000 1.5000
Cl1A Cl 0.71728(9) 0.05780(8) 0.64718(8)
O1A O 0.8552(5) -0.4311(3) 0.8437(3)
N1A N 0.6280(3) -0.2381(3) 0.4837(3)
N2A N 0.6628(3) -0.9285(3) 1.2852(3)
N2_2 N 0.3372(3) -0.0715(3) 0.7148(3)
N2A_2 N 0.6628(3) 0.0715(3) 0.2852(3)
N3A N 0.8992(3) -0.6722(3) 0.7688(3)
C1A C 0.6994(4) -0.3097(3) 0.6015(3)
C2A C 0.7698(4) -0.4636(3) 0.6083(3)
C3A C 0.7709(4) -0.5466(3) 0.4843(3)
C4A C 0.7002(4) -0.4729(4) 0.3605(3)
C5A C 0.6300(4) -0.3211(4) 0.3648(3)
C6A C 0.8303(4) -0.9169(4) 1.2841(3)
C7A C 0.9350(4) -0.8560(4) 1.1617(3)
C8A C 0.8670(4) -0.8027(3) 1.0301(3)
C9A C 0.6956(4) -0.8184(4) 1.0288(3)
C10A C 0.5998(4) -0.8835(5) 1.1547(4)
C11A C 0.8435(4) -0.5211(3) 0.7518(3)
C12A C 0.9821(4) -0.7348(3) 0.8987(3)
H1A H 0.7023 -0.2519 0.6853
H2A H 0.8189 -0.6515 0.4839
H3A H 0.7002 -0.5268 0.2735
H4A H 0.5807 -0.2728 0.2798
H5A H 0.8801 -0.9526 1.3727
H6A H 1.0532 -0.8506 1.1676
H7A H 0.6433 -0.7844 0.9411
H8A H 0.4837 -0.8971 1.1489
H9A H 0.8841 -0.7386 0.6953
H10A H 1.0316 -0.6540 0.9334
H11A H 1.0708 -0.8134 0.8661
loop_
_geom_bond_atom_site_label_1
_geom_bond_atom_site_label_2
_geom_bond_site_symmetry_1
_geom_bond_site_symmetry_2
Co1 Cl1 1_555 1_555
O1 C11 1_555 1_555
N1 Co1 1_555 1_555
N2 C6 1_555 1_555
N3 C11 1_555 1_555
C1 N1 1_555 1_555
C2 C1 1_555 1_555
C3 C2 1_555 1_555
C4 C3 1_555 1_555
C5 N1 1_555 1_555
C6 C7 1_555 1_555
C7 C8 1_555 1_555
C8 C9 1_555 1_555
C9 C10 1_555 1_555
C10 N2 1_555 1_555
C11 C2 1_555 1_555
C12 N3 1_555 1_555
H1 C1 1_555 1_555
H2 C3 1_555 1_555
H3 C4 1_555 1_555
H4 C5 1_555 1_555
H5 C6 1_555 1_555
H6 C7 1_555 1_555
H7 C9 1_555 1_555
H8 C10 1_555 1_555
H9 N3 1_555 1_555
H10 C12 1_555 1_555
H11 C12 1_555 1_555
Co1_2 N2 1_555 1_555
Co1_3 N2A 1_555 1_555
Cl1A Co1 1_555 1_555
O1A C11A 1_555 1_555
N1A Co1 1_555 1_555
N2A C6A 1_555 1_555
N2_2 Co1 1_555 1_555
N2A_2 Co1 1_555 1_555
N3A C11A 1_555 1_555
C1A N1A 1_555 1_555
C2A C1A 1_555 1_555
C3A C2A 1_555 1_555
C4A C3A 1_555 1_555
C5A N1A 1_555 1_555
C6A C7A 1_555 1_555
C7A C8A 1_555 1_555
C8A C9A 1_555 1_555
C9A C10A 1_555 1_555
C10A N2A 1_555 1_555
C11A C2A 1_555 1_555
C12A N3A 1_555 1_555
H1A C1A 1_555 1_555
H2A C3A 1_555 1_555
H3A C4A 1_555 1_555
H4A C5A 1_555 1_555
H5A C6A 1_555 1_555
H6A C7A 1_555 1_555
H7A C9A 1_555 1_555
H8A C10A 1_555 1_555
H9A N3A 1_555 1_555
H10A C12A 1_555 1_555
H11A C12A 1_555 1_555
C4 C5 1_555 1_555
C8 C12 1_555 1_555
C4A C5A 1_555 1_555
C8A C12A 1_555 1_555

#END
