
#######################################################################
#
#                 Cambridge Crystallographic Data Centre
#                                CCDC 
#
#######################################################################
#
# If this CIF has been generated from an entry in the Cambridge 
# Structural Database, then it will include bibliographic, chemical, 
# crystal, experimental, refinement or atomic coordinate data resulting 
# from the CCDC's data processing and validation procedures.
#
#######################################################################

data_HEVQUV
_symmetry_cell_setting           monoclinic
_symmetry_space_group_name_H-M   'P 21/n'
_symmetry_Int_Tables_number      14
_space_group_name_Hall           '-P 2yn'
loop_
_symmetry_equiv_pos_site_id
_symmetry_equiv_pos_as_xyz
1 x,y,z
2 1/2-x,1/2+y,1/2-z
3 -x,-y,-z
4 1/2+x,1/2-y,1/2+z
_cell_length_a                   6.8342(11)
_cell_length_b                   14.349(2)
_cell_length_c                   10.5443(16)
_cell_angle_alpha                90
_cell_angle_beta                 98.534(2)
_cell_angle_gamma                90
_cell_volume                     1022.57
loop_
_atom_site_label
_atom_site_type_symbol
_atom_site_fract_x
_atom_site_fract_y
_atom_site_fract_z
Cd1 Cd 1.06489(3) 0.939188(11) 0.754406(15)
N1 N 0.7945(3) 0.80651(13) 0.91104(18)
N2 N 0.7699(3) 0.73128(13) 1.14506(17)
N3 N 1.1969(4) 0.93615(15) 0.9684(2)
N4 N 0.9093(4) 0.89900(16) 0.5521(2)
C1 C 0.9347(4) 0.74709(16) 0.9657(2)
H1 H 1.0398 0.7315 0.9230
C2 C 0.9235(4) 0.70962(16) 1.0835(2)
H2 H 1.0217 0.6692 1.1212
C3 C 0.6288(4) 0.78963(17) 1.0899(2)
H3 H 0.5219 0.8040 1.1315
C4 C 0.6415(4) 0.82777(17) 0.9732(2)
H4 H 0.5441 0.8688 0.9361
C5 C 1.1759(4) 0.92574(16) 1.0739(3)
C6 C 0.8066(4) 0.92858(17) 0.4650(3)
O1 O 0.8042(3) 0.84317(13) 0.79897(16)
O2 O 0.7593(3) 0.69566(11) 1.25879(14)
S1 S 0.65481(11) 0.96836(5) 0.34111(7)
S2 S 1.14766(11) 0.90816(5) 1.22452(6)
Cd1C Cd 0.56489(3) 0.560812(11) 1.254406(15)
Cd1B Cd 0.93511(3) 1.060812(11) 0.245594(15)
Cd1B_2 Cd 0.93511(3) 1.060812(11) 1.245594(15)
O2C O 1.2593(3) 0.80434(11) 0.75879(14)
S1B S 1.34519(11) 1.03164(5) 0.65889(7)
S2B S 0.85234(11) 1.09184(5) 0.77548(6)
loop_
_geom_bond_atom_site_label_1
_geom_bond_atom_site_label_2
_geom_bond_site_symmetry_1
_geom_bond_site_symmetry_2
Cd1 N3 1_555 1_555
N1 C1 1_555 1_555
N2 C2 1_555 1_555
N3 C5 1_555 1_555
N4 Cd1 1_555 1_555
C1 H1 1_555 1_555
C2 C1 1_555 1_555
H2 C2 1_555 1_555
C3 N2 1_555 1_555
H3 C3 1_555 1_555
C4 N1 1_555 1_555
H4 C4 1_555 1_555
C5 S2 1_555 1_555
C6 N4 1_555 1_555
O1 Cd1 1_555 1_555
O2 N2 1_555 1_555
S1 C6 1_555 1_555
S2 Cd1B_2 1_555 1_555
Cd1C O2 1_555 1_555
Cd1B S1 1_555 1_555
O2C Cd1 1_555 1_555
S1B Cd1 1_555 1_555
S2B Cd1 1_555 1_555
N1 O1 1_555 1_555
C3 C4 1_555 1_555

#END
