
#######################################################################
#
#                 Cambridge Crystallographic Data Centre
#                                CCDC 
#
#######################################################################
#
# If this CIF has been generated from an entry in the Cambridge 
# Structural Database, then it will include bibliographic, chemical, 
# crystal, experimental, refinement or atomic coordinate data resulting 
# from the CCDC's data processing and validation procedures.
#
#######################################################################

data_HEVRUW
_symmetry_cell_setting           monoclinic
_symmetry_space_group_name_H-M   'C 2/c'
_symmetry_Int_Tables_number      15
_space_group_name_Hall           '-C 2yn'
loop_
_symmetry_equiv_pos_site_id
_symmetry_equiv_pos_as_xyz
1 x,y,z
2 1/2+x,1/2+y,z
3 -x,y,1/2-z
4 1/2-x,1/2+y,1/2-z
5 -x,-y,-z
6 1/2-x,1/2-y,-z
7 x,-y,1/2+z
8 1/2+x,1/2-y,1/2+z
_cell_length_a                   35.14(3)
_cell_length_b                   10.289(9)
_cell_length_c                   19.797(17)
_cell_angle_alpha                90
_cell_angle_beta                 92.874(14)
_cell_angle_gamma                90
_cell_volume                     7148.71
loop_
_atom_site_label
_atom_site_type_symbol
_atom_site_fract_x
_atom_site_fract_y
_atom_site_fract_z
Sn1 Sn 0.5000 0.07035(15) 0.2500
Sn2 Sn 0.66636(2) 0.30583(9) 0.42795(4)
Sn3 Sn 0.74691(2) 0.40793(7) 0.51541(4)
N1 N 0.5649(3) -0.0021(12) 0.3141(6)
N2 N 0.6080(2) 0.1585(9) 0.3592(5)
O1 O 0.6640(2) 0.1004(9) 0.4125(4)
O2 O 0.71783(19) 0.2533(7) 0.4709(4)
O3 O 0.6946(2) 0.4871(7) 0.4716(5)
S1 S 0.54480(11) 0.2390(4) 0.2950(3)
C1 C 0.5760(3) 0.1215(16) 0.3255(7)
C2 C 0.6315(3) 0.0632(15) 0.3802(7)
C3 C 0.6223(4) -0.0663(15) 0.3711(7)
H1 H 0.6389 -0.1316 0.3865
C4 C 0.5880(4) -0.0954(14) 0.3384(8)
C5 C 0.5732(5) -0.2313(15) 0.3288(9)
H2 H 0.5845 -0.2866 0.3633
H3 H 0.5795 -0.2628 0.2851
H4 H 0.5460 -0.2314 0.3319
C6 C 0.5249(5) -0.012(2) 0.1693(9)
H5 H 0.5510 -0.0335 0.1833
H6 H 0.5119 -0.0934 0.1589
C7 C 0.5255(6) 0.065(3) 0.1061(12)
H7 H 0.5036 0.0385 0.0777
H8 H 0.5213 0.1551 0.1183
C8 C 0.5583(7) 0.063(3) 0.0640(13)
H9 H 0.5555 -0.0091 0.0324
H10 H 0.5811 0.0474 0.0926
C9 C 0.5633(10) 0.190(3) 0.0241(18)
H11 H 0.5833 0.2406 0.0456
H12 H 0.5400 0.2383 0.0229
H13 H 0.5698 0.1694 -0.0213
C10 C 0.6746(4) 0.3698(17) 0.3278(7)
H14 H 0.6979 0.4205 0.3273
H15 H 0.6775 0.2949 0.2987
C11 C 0.6412(5) 0.4522(19) 0.3005(8)
H16 H 0.6179 0.4024 0.3034
H17 H 0.6391 0.5283 0.3290
C12 C 0.6447(6) 0.495(2) 0.2300(8)
H18 H 0.6707 0.5224 0.2241
H19 H 0.6282 0.5694 0.2215
C13 C 0.6343(8) 0.391(3) 0.1790(10)
H20 H 0.6376 0.4235 0.1342
H21 H 0.6082 0.3656 0.1831
H22 H 0.6505 0.3166 0.1870
C14 C 0.6236(5) 0.318(2) 0.4975(10)
H23 H 0.6155 0.2304 0.5077
H24 H 0.6347 0.3548 0.5391
C15 C 0.5877(6) 0.398(2) 0.4764(11)
H25 H 0.5814 0.3882 0.4284
H26 H 0.5921 0.4900 0.4858
C16 C 0.5544(6) 0.345(3) 0.5194(15)
H27 H 0.5304 0.3509 0.4931
H28 H 0.5590 0.2544 0.5305
C17 C 0.5523(9) 0.423(4) 0.5829(14)
H29 H 0.5296 0.4006 0.6052
H30 H 0.5518 0.5140 0.5720
H31 H 0.5742 0.4047 0.6124
C18 C 0.7834(4) 0.5200(15) 0.4584(7)
H32 H 0.7691 0.5943 0.4406
H33 H 0.8037 0.5530 0.4886
C19 C 0.8009(5) 0.4531(16) 0.4010(8)
H34 H 0.7809 0.4244 0.3689
H35 H 0.8145 0.3767 0.4179
C20 C 0.8282(5) 0.5395(17) 0.3649(9)
H36 H 0.8142 0.6110 0.3438
H37 H 0.8466 0.5758 0.3979
C21 C 0.8490(6) 0.468(2) 0.3121(11)
H38 H 0.8579 0.3861 0.3299
H39 H 0.8704 0.5189 0.2992
H40 H 0.8321 0.4535 0.2732
C22 C 0.7329(5) 0.4275(14) 0.6185(7)
H41 H 0.7062 0.4525 0.6184
H42 H 0.7347 0.3416 0.6386
C23 C 0.7539(6) 0.5163(15) 0.6645(9)
H43 H 0.7424 0.5131 0.7080
H44 H 0.7798 0.4844 0.6711
C24 C 0.7555(6) 0.6513(15) 0.6433(9)
H45 H 0.7298 0.6805 0.6309
H46 H 0.7702 0.6567 0.6032
C25 C 0.7730(6) 0.7434(17) 0.6970(9)
H47 H 0.7530 0.7836 0.7210
H48 H 0.7875 0.8092 0.6756
H49 H 0.7893 0.6952 0.7282
C26 C 0.6795(4) 0.6130(13) 0.4764(8)
H50 H 0.6624 0.6161 0.5126
H51 H 0.6660 0.6351 0.4346
H52 H 0.6999 0.6738 0.4851
Sn2B Sn 0.33364(2) 0.30583(9) 0.07205(4)
Sn3B Sn 0.25309(2) 0.40793(7) -0.01541(4)
Sn3E Sn 0.75309(2) 0.09207(7) 0.48459(4)
Sn3G Sn 0.24691(2) 0.09207(7) 0.01541(4)
N1B N 0.4351(3) -0.0021(12) 0.1859(6)
N2B N 0.3920(2) 0.1585(9) 0.1408(5)
O1B O 0.3360(2) 0.1004(9) 0.0875(4)
O2B O 0.28217(19) 0.2533(7) 0.0291(4)
O2E O 0.78217(19) 0.2467(7) 0.5291(4)
O2G O 0.21783(19) 0.2467(7) -0.0291(4)
O3B O 0.3054(2) 0.4871(7) 0.0284(5)
S1B S 0.45520(11) 0.2390(4) 0.2050(3)
C1B C 0.4240(3) 0.1215(16) 0.1745(7)
C2B C 0.3685(3) 0.0632(15) 0.1198(7)
C3B C 0.3777(4) -0.0663(15) 0.1289(7)
H1B H 0.3611 -0.1316 0.1135
C4B C 0.4120(4) -0.0954(14) 0.1616(8)
C5B C 0.4268(5) -0.2313(15) 0.1712(9)
H2B H 0.4155 -0.2866 0.1367
H3B H 0.4205 -0.2628 0.2149
H4B H 0.4540 -0.2314 0.1681
C6B C 0.4751(5) -0.012(2) 0.3307(9)
H5B H 0.4490 -0.0335 0.3167
H6B H 0.4881 -0.0934 0.3411
C7B C 0.4745(6) 0.065(3) 0.3939(12)
H7B H 0.4964 0.0385 0.4223
H8B H 0.4787 0.1551 0.3817
C8B C 0.4417(7) 0.063(3) 0.4360(13)
H9B H 0.4445 -0.0091 0.4676
H10B H 0.4189 0.0474 0.4074
C9B C 0.4367(10) 0.190(3) 0.4759(18)
H11B H 0.4167 0.2406 0.4544
H12B H 0.4600 0.2383 0.4771
H13B H 0.4302 0.1694 0.5213
C10B C 0.3254(4) 0.3698(17) 0.1722(7)
H14B H 0.3021 0.4205 0.1727
H15B H 0.3225 0.2949 0.2013
C11B C 0.3588(5) 0.4522(19) 0.1995(8)
H16B H 0.3821 0.4024 0.1966
H17B H 0.3609 0.5283 0.1710
C12B C 0.3553(6) 0.495(2) 0.2700(8)
H18B H 0.3293 0.5224 0.2759
H19B H 0.3718 0.5694 0.2785
C13B C 0.3657(8) 0.391(3) 0.3210(10)
H20B H 0.3624 0.4235 0.3658
H21B H 0.3918 0.3656 0.3169
H22B H 0.3495 0.3166 0.3130
C14B C 0.3764(5) 0.318(2) 0.0025(10)
H23B H 0.3845 0.2304 -0.0077
H24B H 0.3653 0.3548 -0.0391
C15B C 0.4123(6) 0.398(2) 0.0236(11)
H25B H 0.4186 0.3882 0.0716
H26B H 0.4079 0.4900 0.0142
C16B C 0.4456(6) 0.345(3) -0.0194(15)
H27B H 0.4696 0.3509 0.0069
H28B H 0.4410 0.2544 -0.0305
C17B C 0.4477(9) 0.423(4) -0.0829(14)
H29B H 0.4704 0.4006 -0.1052
H30B H 0.4482 0.5140 -0.0720
H31B H 0.4258 0.4047 -0.1124
C18B C 0.2166(4) 0.5200(15) 0.0416(7)
H32B H 0.2309 0.5943 0.0594
H33B H 0.1963 0.5530 0.0114
C19B C 0.1991(5) 0.4531(16) 0.0990(8)
H34B H 0.2191 0.4244 0.1311
H35B H 0.1855 0.3767 0.0821
C20B C 0.1718(5) 0.5395(17) 0.1351(9)
H36B H 0.1858 0.6110 0.1562
H37B H 0.1534 0.5758 0.1021
C21B C 0.1510(6) 0.468(2) 0.1879(11)
H38B H 0.1421 0.3861 0.1701
H39B H 0.1296 0.5189 0.2008
H40B H 0.1679 0.4535 0.2268
C22B C 0.2671(5) 0.4275(14) -0.1185(7)
H41B H 0.2938 0.4525 -0.1184
H42B H 0.2653 0.3416 -0.1386
C23B C 0.2461(6) 0.5163(15) -0.1645(9)
H43B H 0.2576 0.5131 -0.2080
H44B H 0.2202 0.4844 -0.1711
C24B C 0.2445(6) 0.6513(15) -0.1433(9)
H45B H 0.2702 0.6805 -0.1309
H46B H 0.2298 0.6567 -0.1032
C25B C 0.2270(6) 0.7434(17) -0.1970(9)
H47B H 0.2470 0.7836 -0.2210
H48B H 0.2125 0.8092 -0.1756
H49B H 0.2107 0.6952 -0.2282
C26B C 0.3205(4) 0.6130(13) 0.0236(8)
H50B H 0.3376 0.6161 -0.0126
H51B H 0.3340 0.6351 0.0654
H52B H 0.3001 0.6738 0.0149
loop_
_geom_bond_atom_site_label_1
_geom_bond_atom_site_label_2
_geom_bond_site_symmetry_1
_geom_bond_site_symmetry_2
Sn1 N1 1_555 1_555
Sn2 O1 1_555 1_555
Sn3 O2 1_555 1_555
N1 C1 1_555 1_555
N2 C1 1_555 1_555
O1 C2 1_555 1_555
O2 Sn2 1_555 1_555
O3 Sn2 1_555 1_555
S1 Sn1 1_555 1_555
C1 S1 1_555 1_555
C2 N2 1_555 1_555
C3 C2 1_555 1_555
H1 C3 1_555 1_555
C4 N1 1_555 1_555
C5 C4 1_555 1_555
H2 C5 1_555 1_555
H3 C5 1_555 1_555
H4 C5 1_555 1_555
C6 Sn1 1_555 1_555
H5 C6 1_555 1_555
H6 C6 1_555 1_555
C7 C6 1_555 1_555
H7 C7 1_555 1_555
H8 C7 1_555 1_555
C8 C7 1_555 1_555
H9 C8 1_555 1_555
H10 C8 1_555 1_555
C9 C8 1_555 1_555
H11 C9 1_555 1_555
H12 C9 1_555 1_555
H13 C9 1_555 1_555
C10 Sn2 1_555 1_555
H14 C10 1_555 1_555
H15 C10 1_555 1_555
C11 C10 1_555 1_555
H16 C11 1_555 1_555
H17 C11 1_555 1_555
C12 C11 1_555 1_555
H18 C12 1_555 1_555
H19 C12 1_555 1_555
C13 C12 1_555 1_555
H20 C13 1_555 1_555
H21 C13 1_555 1_555
H22 C13 1_555 1_555
C14 Sn2 1_555 1_555
H23 C14 1_555 1_555
H24 C14 1_555 1_555
C15 C14 1_555 1_555
H25 C15 1_555 1_555
H26 C15 1_555 1_555
C16 C15 1_555 1_555
H27 C16 1_555 1_555
H28 C16 1_555 1_555
C17 C16 1_555 1_555
H29 C17 1_555 1_555
H30 C17 1_555 1_555
H31 C17 1_555 1_555
C18 Sn3 1_555 1_555
H32 C18 1_555 1_555
H33 C18 1_555 1_555
C19 C18 1_555 1_555
H34 C19 1_555 1_555
H35 C19 1_555 1_555
C20 C19 1_555 1_555
H36 C20 1_555 1_555
H37 C20 1_555 1_555
C21 C20 1_555 1_555
H38 C21 1_555 1_555
H39 C21 1_555 1_555
H40 C21 1_555 1_555
C22 Sn3 1_555 1_555
H41 C22 1_555 1_555
H42 C22 1_555 1_555
C23 C22 1_555 1_555
H43 C23 1_555 1_555
H44 C23 1_555 1_555
C24 C23 1_555 1_555
H45 C24 1_555 1_555
H46 C24 1_555 1_555
C25 C24 1_555 1_555
H47 C25 1_555 1_555
H48 C25 1_555 1_555
H49 C25 1_555 1_555
C26 O3 1_555 1_555
H50 C26 1_555 1_555
H51 C26 1_555 1_555
H52 C26 1_555 1_555
Sn2B O1B 1_555 1_555
Sn3B O2B 1_555 1_555
Sn3E O2 1_555 1_555
Sn3G O2B 1_555 1_555
N1B Sn1 1_555 1_555
N2B C1B 1_555 1_555
O1B C2B 1_555 1_555
O2B Sn2B 1_555 1_555
O2E Sn3 1_555 1_555
O2G Sn3B 1_555 1_555
O3B Sn2B 1_555 1_555
S1B Sn1 1_555 1_555
C1B N1B 1_555 1_555
C2B N2B 1_555 1_555
C3B C2B 1_555 1_555
H1B C3B 1_555 1_555
C4B N1B 1_555 1_555
C5B C4B 1_555 1_555
H2B C5B 1_555 1_555
H3B C5B 1_555 1_555
H4B C5B 1_555 1_555
C6B Sn1 1_555 1_555
H5B C6B 1_555 1_555
H6B C6B 1_555 1_555
C7B C6B 1_555 1_555
H7B C7B 1_555 1_555
H8B C7B 1_555 1_555
C8B C7B 1_555 1_555
H9B C8B 1_555 1_555
H10B C8B 1_555 1_555
C9B C8B 1_555 1_555
H11B C9B 1_555 1_555
H12B C9B 1_555 1_555
H13B C9B 1_555 1_555
C10B Sn2B 1_555 1_555
H14B C10B 1_555 1_555
H15B C10B 1_555 1_555
C11B C10B 1_555 1_555
H16B C11B 1_555 1_555
H17B C11B 1_555 1_555
C12B C11B 1_555 1_555
H18B C12B 1_555 1_555
H19B C12B 1_555 1_555
C13B C12B 1_555 1_555
H20B C13B 1_555 1_555
H21B C13B 1_555 1_555
H22B C13B 1_555 1_555
C14B Sn2B 1_555 1_555
H23B C14B 1_555 1_555
H24B C14B 1_555 1_555
C15B C14B 1_555 1_555
H25B C15B 1_555 1_555
H26B C15B 1_555 1_555
C16B C15B 1_555 1_555
H27B C16B 1_555 1_555
H28B C16B 1_555 1_555
C17B C16B 1_555 1_555
H29B C17B 1_555 1_555
H30B C17B 1_555 1_555
H31B C17B 1_555 1_555
C18B Sn3B 1_555 1_555
H32B C18B 1_555 1_555
H33B C18B 1_555 1_555
C19B C18B 1_555 1_555
H34B C19B 1_555 1_555
H35B C19B 1_555 1_555
C20B C19B 1_555 1_555
H36B C20B 1_555 1_555
H37B C20B 1_555 1_555
C21B C20B 1_555 1_555
H38B C21B 1_555 1_555
H39B C21B 1_555 1_555
H40B C21B 1_555 1_555
C22B Sn3B 1_555 1_555
H41B C22B 1_555 1_555
H42B C22B 1_555 1_555
C23B C22B 1_555 1_555
H43B C23B 1_555 1_555
H44B C23B 1_555 1_555
C24B C23B 1_555 1_555
H45B C24B 1_555 1_555
H46B C24B 1_555 1_555
C25B C24B 1_555 1_555
H47B C25B 1_555 1_555
H48B C25B 1_555 1_555
H49B C25B 1_555 1_555
C26B O3B 1_555 1_555
H50B C26B 1_555 1_555
H51B C26B 1_555 1_555
H52B C26B 1_555 1_555
Sn3 O3 1_555 1_555
C3 C4 1_555 1_555
Sn3B O3B 1_555 1_555
Sn3E O2E 1_555 1_555
Sn3G O2G 1_555 1_555
S1B C1B 1_555 1_555
C3B C4B 1_555 1_555

#END
