
#######################################################################
#
#                 Cambridge Crystallographic Data Centre
#                                CCDC 
#
#######################################################################
#
# If this CIF has been generated from an entry in the Cambridge 
# Structural Database, then it will include bibliographic, chemical, 
# crystal, experimental, refinement or atomic coordinate data resulting 
# from the CCDC's data processing and validation procedures.
#
#######################################################################

data_HEVRAC
_symmetry_cell_setting           monoclinic
_symmetry_space_group_name_H-M   'P 21/n'
_symmetry_Int_Tables_number      14
_space_group_name_Hall           '-P 2yn'
loop_
_symmetry_equiv_pos_site_id
_symmetry_equiv_pos_as_xyz
1 x,y,z
2 1/2-x,1/2+y,1/2-z
3 -x,-y,-z
4 1/2+x,1/2-y,1/2+z
_cell_length_a                   5.1877(5)
_cell_length_b                   12.4176(11)
_cell_length_c                   9.1107(8)
_cell_angle_alpha                90
_cell_angle_beta                 102.886(2)
_cell_angle_gamma                90
_cell_volume                     572.12
loop_
_atom_site_label
_atom_site_type_symbol
_atom_site_fract_x
_atom_site_fract_y
_atom_site_fract_z
Cd1 Cd 0.64134(7) 0.41810(3) 0.87345(4)
P1 P 0.4139(3) 0.06182(9) 0.74335(14)
Mg1 Mg 0.5000 0.5000 0.5000
O1 O 0.3730(7) 0.2629(3) 0.8570(4)
H1 H 0.2364 0.2686 0.8876
O2 O 0.6069(8) 0.3373(3) 0.6455(4)
O3 O 0.4506(7) 0.2078(3) 0.4825(4)
O4 O 0.2416(7) 0.0058(3) 0.6069(4)
O5 O 0.7074(7) 0.0505(3) 0.7540(4)
O6 O 0.3360(7) 0.0240(3) 0.8877(4)
C1 C 0.4702(10) 0.2545(4) 0.6077(5)
C2 C 0.3199(10) 0.2047(4) 0.7180(5)
H2 H 0.1300 0.2089 0.6733
Cd1B Cd 0.35866(7) 0.58190(3) 0.12655(4)
Cd1C Cd 0.14134(7) 0.08190(3) 0.37345(4)
Cd1A Cd -0.14134(7) -0.08190(3) 0.62655(4)
Cd1A_2 Cd 0.85866(7) -0.08190(3) 0.62655(4)
Cd1A_3 Cd 0.85866(7) 0.91810(3) 0.62655(4)
Cd1C_2 Cd 1.14134(7) 1.08190(3) 0.37345(4)
Cd1C_3 Cd 0.14134(7) 1.08190(3) 0.37345(4)
P1B P 0.5861(3) 0.93818(9) 0.25665(14)
Mg1C Mg 1.0000 0.0000 1.0000
Mg1C_2 Mg 0.0000 0.0000 1.0000
Mg1C_3 Mg 0.0000 1.0000 0.0000
Mg1C_4 Mg 1.0000 1.0000 0.0000
O1B O 0.6270(7) 0.7371(3) 0.1430(4)
H1B H 0.7636 0.7314 0.1124
O2B O 0.3931(8) 0.6627(3) 0.3545(4)
O3B O 0.5494(7) 0.7922(3) 0.5175(4)
O3C O 0.9506(7) 0.2922(3) 0.9825(4)
O3A O 0.0494(7) 0.7078(3) 0.0175(4)
O4B O 0.7584(7) 0.9942(3) 0.3931(4)
O4C O 0.7416(7) 0.4942(3) 1.1069(4)
O4A O 0.2584(7) 0.5058(3) 0.8931(4)
O4C_2 O 0.7416(7) 0.4942(3) 0.1069(4)
O4A_2 O 0.2584(7) 0.5058(3) -0.1069(4)
O5B O 0.2926(7) 0.9495(3) 0.2460(4)
O5A O 0.7926(7) 0.5505(3) 0.7460(4)
O5C O 0.2074(7) 0.4495(3) 0.2540(4)
O6B O 0.6640(7) 0.9760(3) 0.1123(4)
O6C O 0.8360(7) 0.4760(3) 0.3877(4)
O6A O 0.1640(7) 0.5240(3) 0.6123(4)
C1B C 0.5298(10) 0.7455(4) 0.3923(5)
C2B C 0.6801(10) 0.7953(4) 0.2820(5)
H2B H 0.8700 0.7911 0.3267
loop_
_geom_bond_atom_site_label_1
_geom_bond_atom_site_label_2
_geom_bond_site_symmetry_1
_geom_bond_site_symmetry_2
Cd1 O1 1_555 1_555
P1 O4 1_555 1_555
Mg1 O2 1_555 1_555
O1 H1 1_555 1_555
O2 Cd1 1_555 1_555
O3 C1 1_555 1_555
O4 Cd1C 1_555 1_555
O5 P1 1_555 1_555
O6 P1 1_555 1_555
C1 O2 1_555 1_555
C2 P1 1_555 1_555
H2 C2 1_555 1_555
Cd1B O1B 1_555 1_555
Cd1C O3 1_555 1_555
Cd1A O4 1_555 1_555
Cd1A_2 O5 1_555 1_555
Cd1A_3 O3B 1_555 1_555
Cd1C_2 O4B 1_555 1_555
Cd1C_3 O5B 1_555 1_555
P1B O4B 1_555 1_555
Mg1C O5 1_555 1_555
Mg1C_2 O6 1_555 1_555
Mg1C_3 O5B 1_555 1_555
Mg1C_4 O6B 1_555 1_555
O1B H1B 1_555 1_555
O2B Mg1 1_555 1_555
O3B C1B 1_555 1_555
O3C Cd1 1_555 1_555
O3A Cd1B 1_555 1_555
O4B Cd1A_3 1_555 1_555
O4C Cd1 1_555 1_555
O4A Cd1 1_555 1_555
O4C_2 Cd1B 1_555 1_555
O4A_2 Cd1B 1_555 1_555
O5B P1B 1_555 1_555
O5A Cd1 1_555 1_555
O5C Mg1 1_555 1_555
O6B P1B 1_555 1_555
O6C Mg1 1_555 1_555
O6A Mg1 1_555 1_555
C1B O2B 1_555 1_555
C2B P1B 1_555 1_555
H2B C2B 1_555 1_555
Mg1 O5A 1_555 1_555
O1 C2 1_555 1_555
C1 C2 1_555 1_555
Cd1B O2B 1_555 1_555
Cd1B O5C 1_555 1_555
O1B C2B 1_555 1_555
C1B C2B 1_555 1_555

#END
