
#######################################################################
#
#                 Cambridge Crystallographic Data Centre
#                                CCDC 
#
#######################################################################
#
# If this CIF has been generated from an entry in the Cambridge 
# Structural Database, then it will include bibliographic, chemical, 
# crystal, experimental, refinement or atomic coordinate data resulting 
# from the CCDC's data processing and validation procedures.
#
#######################################################################

data_HEVSAD
_symmetry_cell_setting           orthorhombic
_symmetry_space_group_name_H-M   'P 21 21 21'
_symmetry_Int_Tables_number      19
_space_group_name_Hall           'P 2ac 2ab'
loop_
_symmetry_equiv_pos_site_id
_symmetry_equiv_pos_as_xyz
1 x,y,z
2 1/2-x,-y,1/2+z
3 1/2+x,1/2-y,-z
4 -x,1/2+y,1/2-z
_cell_length_a                   10.800(2)
_cell_length_b                   10.524(3)
_cell_length_c                   21.412(6)
_cell_angle_alpha                90
_cell_angle_beta                 90
_cell_angle_gamma                90
_cell_volume                     2433.67
loop_
_atom_site_label
_atom_site_type_symbol
_atom_site_fract_x
_atom_site_fract_y
_atom_site_fract_z
Cu1 Cu 0.41319 0.30280 -0.08981
Cu2 Cu 0.08228 0.72939 -0.10412
O1 O 0.24959 0.38287 -0.09427
O2 O 0.12392 0.48601 -0.15946
O3 O 0.55642 0.19752 -0.10946
O4 O 0.66402 0.12532 -0.19096
O5 O 0.50611 0.51370 -0.06800
O6 O 0.55179 0.53659 0.06621
O7 O 0.41342 0.83157 0.11968
O8 O 0.28962 0.87525 0.20092
O9 O 0.75513 0.71188 0.11043
O10 O 0.87694 0.59561 0.17120
N1 N 0.43344 0.36279 -0.17787
N2 N 0.55781 0.67987 0.18500
N3 N 0.40030 0.23557 -0.00547
N4 N 0.44983 0.12859 0.07800
N5 N 0.09514 0.65696 -0.02152
N6 N 0.03807 0.61195 0.07353
C1 C 0.31029 0.40483 -0.20081
C2 C 0.22105 0.42811 -0.14771
C3 C 0.48389 0.25055 -0.21069
C4 C 0.57751 0.18472 -0.16826
C5 C 0.52576 0.46768 -0.17864
C6 C 0.49817 0.56740 -0.12930
C7 C 0.62503 0.53402 -0.03998
C8 C 0.62955 0.47311 0.02282
C9 C 0.55269 0.47550 0.12585
C10 C 0.49061 0.55955 0.17255
C11 C 0.47867 0.76731 0.22107
C12 C 0.38362 0.82916 0.17751
C13 C 0.68234 0.65736 0.21197
C14 C 0.77969 0.65209 0.16078
C15 C 0.47727 0.15059 0.01881
C16 C 0.35035 0.20229 0.09352
C17 C 0.32032 0.26888 0.04177
C18 C 0.00159 0.65529 0.01825
C19 C 0.16129 0.58352 0.06953
C20 C 0.19636 0.61212 0.01039
H1 H 0.27642 0.34032 -0.22829
H2 H 0.31989 0.48237 -0.22481
H3 H 0.52384 0.27679 -0.24916
H4 H 0.41737 0.19236 -0.22110
H5 H 0.52563 0.50745 -0.21951
H6 H 0.60769 0.43289 -0.17144
H7 H 0.55689 0.63671 -0.13303
H8 H 0.41573 0.60143 -0.13589
H9 H 0.64036 0.62445 -0.03596
H10 H 0.68905 0.49820 -0.06644
H11 H 0.60383 0.38511 0.01928
H12 H 0.71408 0.47429 0.03812
H13 H 0.63731 0.45896 0.13867
H14 H 0.50937 0.39494 0.12330
H15 H 0.40811 0.57975 0.15764
H16 H 0.48185 0.51327 0.21148
H17 H 0.52931 0.83245 0.24042
H18 H 0.43631 0.72091 0.25387
H19 H 0.68224 0.57785 0.23487
H20 H 0.70238 0.72506 0.24100
H21 H 0.54164 0.11178 -0.00284
H22 H 0.48794 0.07694 0.10248
H23 H 0.31103 0.20586 0.13213
H24 H 0.25620 0.32751 0.03860
H25 H -0.07868 0.68089 0.00882
H26 H -0.00776 0.60327 0.10610
H27 H 0.21121 0.55105 0.10113
H28 H 0.27572 0.60292 -0.00585
Cu2B Cu 0.58228 0.77061 0.10412
O6B O 0.05179 0.96341 -0.06621
O7B O -0.08658 0.66843 -0.11968
O9B O 0.25513 0.78812 -0.11043
N2B N 0.05781 0.82013 -0.18500
loop_
_geom_bond_atom_site_label_1
_geom_bond_atom_site_label_2
_geom_bond_site_symmetry_1
_geom_bond_site_symmetry_2
Cu1 O1 1_555 1_555
Cu2 O2 1_555 1_555
O1 C2 1_555 1_555
O2 C2 1_555 1_555
O3 Cu1 1_555 1_555
O4 C4 1_555 1_555
O5 Cu1 1_555 1_555
O6 C8 1_555 1_555
O7 C12 1_555 1_555
O8 C12 1_555 1_555
O9 C14 1_555 1_555
O10 C14 1_555 1_555
N1 Cu1 1_555 1_555
N2 C10 1_555 1_555
N3 Cu1 1_555 1_555
N4 C15 1_555 1_555
N5 Cu2 1_555 1_555
N6 C18 1_555 1_555
C1 N1 1_555 1_555
C2 C1 1_555 1_555
C3 N1 1_555 1_555
C4 O3 1_555 1_555
C5 N1 1_555 1_555
C6 O5 1_555 1_555
C7 O5 1_555 1_555
C8 C7 1_555 1_555
C9 O6 1_555 1_555
C10 C9 1_555 1_555
C11 N2 1_555 1_555
C12 C11 1_555 1_555
C13 N2 1_555 1_555
C14 C13 1_555 1_555
C15 N3 1_555 1_555
C16 N4 1_555 1_555
C17 N3 1_555 1_555
C18 N5 1_555 1_555
C19 N6 1_555 1_555
C20 N5 1_555 1_555
H1 C1 1_555 1_555
H2 C1 1_555 1_555
H3 C3 1_555 1_555
H4 C3 1_555 1_555
H5 C5 1_555 1_555
H6 C5 1_555 1_555
H7 C6 1_555 1_555
H8 C6 1_555 1_555
H9 C7 1_555 1_555
H10 C7 1_555 1_555
H11 C8 1_555 1_555
H12 C8 1_555 1_555
H13 C9 1_555 1_555
H14 C9 1_555 1_555
H15 C10 1_555 1_555
H16 C10 1_555 1_555
H17 C11 1_555 1_555
H18 C11 1_555 1_555
H19 C13 1_555 1_555
H20 C13 1_555 1_555
H21 C15 1_555 1_555
H22 N4 1_555 1_555
H23 C16 1_555 1_555
H24 C17 1_555 1_555
H25 C18 1_555 1_555
H26 N6 1_555 1_555
H27 C19 1_555 1_555
H28 C20 1_555 1_555
Cu2B O6 1_555 1_555
O6B Cu2 1_555 1_555
O7B Cu2 1_555 1_555
O9B Cu2 1_555 1_555
N2B Cu2 1_555 1_555
O7 Cu2B 1_555 1_555
O9 Cu2B 1_555 1_555
N2 Cu2B 1_555 1_555
C3 C4 1_555 1_555
C5 C6 1_555 1_555
C16 C17 1_555 1_555
C19 C20 1_555 1_555

#END
