
#######################################################################
#
#                 Cambridge Crystallographic Data Centre
#                                CCDC 
#
#######################################################################
#
# If this CIF has been generated from an entry in the Cambridge 
# Structural Database, then it will include bibliographic, chemical, 
# crystal, experimental, refinement or atomic coordinate data resulting 
# from the CCDC's data processing and validation procedures.
#
#######################################################################

data_HEVSOR
_symmetry_cell_setting           monoclinic
_symmetry_space_group_name_H-M   'C 2/c'
_symmetry_Int_Tables_number      15
_space_group_name_Hall           '-C 2yn'
loop_
_symmetry_equiv_pos_site_id
_symmetry_equiv_pos_as_xyz
1 x,y,z
2 1/2+x,1/2+y,z
3 -x,y,1/2-z
4 1/2-x,1/2+y,1/2-z
5 -x,-y,-z
6 1/2-x,1/2-y,-z
7 x,-y,1/2+z
8 1/2+x,1/2-y,1/2+z
_cell_length_a                   15.5345(10)
_cell_length_b                   25.0371(16)
_cell_length_c                   9.1120(6)
_cell_angle_alpha                90.00
_cell_angle_beta                 92.4330(10)
_cell_angle_gamma                90.00
_cell_volume                     3540.82
loop_
_atom_site_label
_atom_site_type_symbol
_atom_site_fract_x
_atom_site_fract_y
_atom_site_fract_z
Ag1 Ag 0.5000 0.710635(16) 0.7500
C1 C 0.6507(2) 0.69408(17) 0.9679(4)
H1 H 0.6124 0.7147 1.0194
C2 C 0.7241(3) 0.6768(2) 1.0398(4)
H2 H 0.7350 0.6848 1.1385
C3 C 0.7818(2) 0.64722(17) 0.9632(4)
H3 H 0.8322 0.6346 1.0100
C4 C 0.7647(2) 0.63648(14) 0.8178(3)
H4 H 0.8036 0.6172 0.7639
C5 C 0.68733(19) 0.65510(12) 0.7515(3)
C6 C 0.7081(2) 0.60249(12) 0.5302(3)
C7 C 0.6957(3) 0.55368(13) 0.5835(4)
H5 H 0.6618 0.5483 0.6638
C8 C 0.7338(4) 0.51262(17) 0.5177(6)
H6 H 0.7260 0.4783 0.5541
C9 C 0.7827(4) 0.5193(2) 0.4007(6)
H7 H 0.8079 0.4900 0.3563
C10 C 0.7947(3) 0.5695(2) 0.3487(5)
H8 H 0.8291 0.5747 0.2687
C11 C 0.62648(19) 0.68677(12) 0.5126(3)
C12 C 0.64652(19) 0.74065(12) 0.5389(3)
H9 H 0.6869 0.7494 0.6133
C13 C 0.6079(2) 0.78060(11) 0.4573(3)
H10 H 0.6210 0.8163 0.4761
C14 C 0.54854(18) 0.76641(11) 0.3454(3)
C15 C 0.53086(18) 0.71280(10) 0.3124(3)
C16 C 0.56951(18) 0.67229(11) 0.3981(3)
H11 H 0.5573 0.6366 0.3787
C17 C 0.5000 0.85588(15) 0.2500
C18 C 0.4950(2) 0.88372(12) 0.3808(3)
H12 H 0.4912 0.8654 0.4690
C19 C 0.4955(3) 0.93855(14) 0.3794(4)
H13 H 0.4929 0.9571 0.4675
C20 C 0.5000 0.96646(19) 0.2500
H14 H 0.5000 1.0036 0.2500
N1 N 0.63058(16) 0.68287(11) 0.8261(3)
N2 N 0.66799(17) 0.64623(10) 0.6012(3)
N3 N 0.7562(2) 0.61295(14) 0.4136(4)
N4 N 0.5000 0.79920(12) 0.2500
N5 N 0.5000 0.83351(19) 0.7500
O1 O 0.5554(2) 0.80727(14) 0.8210(3)
O2 O 0.5000 0.88208(18) 0.7500
Ag1_2 Ag 0.5000 0.710635(16) -0.2500
C1B C 0.3493(2) 0.69408(17) -0.4679(4)
H1B H 0.3876 0.7147 -0.5194
C2B C 0.2759(3) 0.6768(2) -0.5398(4)
H2B H 0.2650 0.6848 -0.6385
C3B C 0.2182(2) 0.64722(17) -0.4632(4)
H3B H 0.1678 0.6346 -0.5100
C4B C 0.2353(2) 0.63648(14) -0.3178(3)
H4B H 0.1964 0.6172 -0.2639
C5B C 0.31267(19) 0.65510(12) -0.2515(3)
C6B C 0.2919(2) 0.60249(12) -0.0302(3)
C7B C 0.3043(3) 0.55368(13) -0.0835(4)
H5B H 0.3382 0.5483 -0.1638
C8B C 0.2662(4) 0.51262(17) -0.0177(6)
H6B H 0.2740 0.4783 -0.0541
C9B C 0.2173(4) 0.5193(2) 0.0993(6)
H7B H 0.1921 0.4900 0.1437
C10B C 0.2053(3) 0.5695(2) 0.1513(5)
H8B H 0.1709 0.5747 0.2313
C11B C 0.37352(19) 0.68677(12) -0.0126(3)
C12B C 0.35348(19) 0.74065(12) -0.0389(3)
H9B H 0.3131 0.7494 -0.1133
C13B C 0.3921(2) 0.78060(11) 0.0427(3)
H10B H 0.3790 0.8163 0.0239
C14B C 0.45146(18) 0.76641(11) 0.1546(3)
C15B C 0.46914(18) 0.71280(10) 0.1876(3)
C16B C 0.43049(18) 0.67229(11) 0.1019(3)
H11B H 0.4427 0.6366 0.1213
C18B C 0.5050(2) 0.88372(12) 0.1192(3)
H12B H 0.5088 0.8654 0.0310
C19B C 0.5045(3) 0.93855(14) 0.1206(4)
H13B H 0.5071 0.9571 0.0325
N1B N 0.36942(16) 0.68287(11) -0.3261(3)
N1B_2 N 0.36942(16) 0.68287(11) 0.6739(3)
N2B N 0.33201(17) 0.64623(10) -0.1012(3)
N3B N 0.2438(2) 0.61295(14) 0.0864(4)
O1B O 0.4446(2) 0.80727(14) 0.6790(3)
C21 C 0.5000 0.5012(5) 0.2500
C22 C 0.5000 0.4438(5) 0.2500
H17 H 0.4649 0.4310 0.3268
N6 N 0.5000 0.5434(4) 0.2500
H17B H 0.5351 0.4310 0.1732
H15? H 0.5579 0.4310 0.2663
H16? H 0.4772 0.4310 0.1569
loop_
_geom_bond_atom_site_label_1
_geom_bond_atom_site_label_2
_geom_bond_site_symmetry_1
_geom_bond_site_symmetry_2
Ag1 N1 1_555 1_555
C1 H1 1_555 1_555
C2 C1 1_555 1_555
H2 C2 1_555 1_555
C3 C2 1_555 1_555
H3 C3 1_555 1_555
C4 C3 1_555 1_555
H4 C4 1_555 1_555
C5 C4 1_555 1_555
C6 C7 1_555 1_555
C7 H5 1_555 1_555
C8 C7 1_555 1_555
H6 C8 1_555 1_555
C9 C8 1_555 1_555
H7 C9 1_555 1_555
C10 C9 1_555 1_555
H8 C10 1_555 1_555
C11 C12 1_555 1_555
C12 H9 1_555 1_555
C13 C12 1_555 1_555
H10 C13 1_555 1_555
C14 C13 1_555 1_555
C15 C14 1_555 1_555
C16 C11 1_555 1_555
H11 C16 1_555 1_555
C17 C18 1_555 1_555
C18 H12 1_555 1_555
C19 C18 1_555 1_555
H13 C19 1_555 1_555
C20 C19 1_555 1_555
H14 C20 1_555 1_555
C21 C22 1_555 1_555
C22 H17 1_555 1_555
N1 C1 1_555 1_555
N2 C5 1_555 1_555
N3 C6 1_555 1_555
N4 C14 1_555 1_555
N5 O1 1_555 1_555
N6 C21 1_555 1_555
O1 Ag1 1_555 1_555
O2 N5 1_555 1_555
Ag1_2 N1B 1_555 1_555
C1B H1B 1_555 1_555
C2B C1B 1_555 1_555
H2B C2B 1_555 1_555
C3B C2B 1_555 1_555
H3B C3B 1_555 1_555
C4B C3B 1_555 1_555
H4B C4B 1_555 1_555
C5B C4B 1_555 1_555
C6B C7B 1_555 1_555
C7B H5B 1_555 1_555
C8B C7B 1_555 1_555
H6B C8B 1_555 1_555
C9B C8B 1_555 1_555
H7B C9B 1_555 1_555
C10B C9B 1_555 1_555
H8B C10B 1_555 1_555
C11B C12B 1_555 1_555
C12B H9B 1_555 1_555
C13B C12B 1_555 1_555
H10B C13B 1_555 1_555
C14B N4 1_555 1_555
C15B C15 1_555 1_555
C16B C11B 1_555 1_555
H11B C16B 1_555 1_555
C18B C17 1_555 1_555
H12B C18B 1_555 1_555
C19B C20 1_555 1_555
H13B C19B 1_555 1_555
H17B C22 1_555 1_555
N1B C1B 1_555 1_555
N1B_2 Ag1 1_555 1_555
N2B C5B 1_555 1_555
N3B C6B 1_555 1_555
O1B Ag1 1_555 1_555
C5 N1 1_555 1_555
C6 N2 1_555 1_555
C10 N3 1_555 1_555
C11 N2 1_555 1_555
C15 C16 1_555 1_555
C17 N4 1_555 1_555
N5 O1B 1_555 1_555
C5B N1B 1_555 1_555
C6B N2B 1_555 1_555
C10B N3B 1_555 1_555
C11B N2B 1_555 1_555
C13B C14B 1_555 1_555
C14B C15B 1_555 1_555
C15B C16B 1_555 1_555
C18B C19B 1_555 1_555

#END
