
#######################################################################
#
#                 Cambridge Crystallographic Data Centre
#                                CCDC 
#
#######################################################################
#
# If this CIF has been generated from an entry in the Cambridge 
# Structural Database, then it will include bibliographic, chemical, 
# crystal, experimental, refinement or atomic coordinate data resulting 
# from the CCDC's data processing and validation procedures.
#
#######################################################################

data_HEVVAG
_symmetry_cell_setting           monoclinic
_symmetry_space_group_name_H-M   'P 21/m'
_symmetry_Int_Tables_number      11
_space_group_name_Hall           '-P 2yb'
loop_
_symmetry_equiv_pos_site_id
_symmetry_equiv_pos_as_xyz
1 x,y,z
2 -x,1/2+y,-z
3 -x,-y,-z
4 x,1/2-y,z
_cell_length_a                   9.552(2)
_cell_length_b                   21.290(2)
_cell_length_c                   11.338(2)
_cell_angle_alpha                90
_cell_angle_beta                 90.3620(10)
_cell_angle_gamma                90
_cell_volume                     2305.67
loop_
_atom_site_label
_atom_site_type_symbol
_atom_site_fract_x
_atom_site_fract_y
_atom_site_fract_z
Ag1 Ag 0.50910(7) 0.60518(3) 0.13315(6)
S1 S 0.7155(2) 0.61752(11) 0.27056(19)
S2 S 1.2916(2) 0.61793(10) 0.25971(19)
S3 S 0.5078(3) 0.55495(12) -0.1452(2)
O1 O 0.6884(11) 0.7500 0.1569(8)
O2 O 1.0108(6) 0.6389(3) 0.3650(5)
O3 O 1.2198(9) 0.7500 0.1522(7)
O4 O 0.5056(9) 0.6073(3) -0.0678(6)
O5 O 0.6185(16) 0.5126(5) -0.1247(10)
O6 O 0.3844(16) 0.5196(7) -0.1547(11)
F1 F 0.458(3) 0.6292(8) -0.3167(11)
F2 F 0.5473(16) 0.5485(5) -0.3702(7)
F3 F 0.660(3) 0.6153(10) -0.2813(16)
C1 C 0.7221(8) 0.6942(4) 0.3363(7)
C2 C 0.8755(8) 0.6087(4) 0.1943(7)
C3 C 0.8711(9) 0.5882(4) 0.0771(7)
C4 C 0.9941(10) 0.5780(4) 0.0166(8)
C5 C 1.1232(9) 0.5896(4) 0.0739(7)
C6 C 1.1235(7) 0.6107(4) 0.1853(7)
C7 C 1.3037(8) 0.6937(4) 0.3259(7)
C8 C 1.3526(11) 0.6944(5) 0.4377(8)
C9 C 1.3814(15) 0.750000(7) 0.4953(12)
C10 C 0.7261(16) 0.750000(7) 0.5170(12)
C11 C 0.7261(10) 0.6945(5) 0.4561(9)
C12 C 0.7167(11) 0.7500 0.2721(10)
C13 C 1.0030(8) 0.6187(4) 0.2518(7)
C14 C 1.2752(11) 0.7500 0.2638(9)
C15 C 0.7953(19) 0.750000(10) 0.0743(12)
C16 C 0.7302(19) 0.750000(10) -0.0461(13)
C17 C 0.836(2) 0.750000(7) -0.1465(16)
C18 C 1.0177(12) 0.5922(6) 0.4531(8)
C19 C 1.0455(16) 0.6240(7) 0.5728(10)
C20 C 1.053(3) 0.5757(10) 0.6724(13)
C21 C 1.3107(19) 0.750000(10) 0.0566(12)
C22 C 1.222(2) 0.750000(10) -0.0517(12)
C23 C 1.307(2) 0.750000(7) -0.1664(15)
C24 C 0.539(3) 0.5851(9) -0.2853(17)
H1 H 0.9837 0.5617 -0.0666
H2 H 1.2118 0.5836 0.0357
H3 H 0.7767 0.5803 0.0321
H4 H 0.7230 0.7500 0.6049
H5 H 0.7304 0.6535 0.4995
H6 H 1.3709 0.6537 0.4808
H7 H 1.4226 0.7500 0.5803
H8 H 0.8553 0.7883 0.0884
H9 H 0.6697 0.7884 -0.0574
H10 H 0.7788 0.7500 -0.2257
H11 H 0.8972 0.7884 -0.1390
H12 H 0.9275 0.5680 0.4471
H13 H 1.0975 0.5630 0.4431
H14 H 0.9659 0.6538 0.5803
H15 H 1.1359 0.6480 0.5770
H16 H 1.0692 0.5986 0.7497
H17 H 0.9628 0.5517 0.6688
H18 H 1.1328 0.5459 0.6655
H19 H 1.3715 0.7883 0.0626
H20 H 1.1616 0.7883 -0.0543
H21 H 1.2352 0.7500 -0.2376
H22 H 1.3673 0.7884 -0.1676
Ag1C Ag 0.50910(7) 0.89482(3) 0.13315(6)
Ag1_2 Ag 1.50910(7) 0.60518(3) 0.13315(6)
Ag1B Ag 0.49090(7) 0.39482(3) -0.13315(6)
Ag1C_2 Ag 1.50910(7) 0.89482(3) 0.13315(6)
S1C S 0.7155(2) 0.88248(11) 0.27056(19)
S2C S 1.2916(2) 0.88207(10) 0.25971(19)
S2_2 S 0.2916(2) 0.61793(10) 0.25971(19)
S2C_2 S 0.2916(2) 0.88207(10) 0.25971(19)
S3B S 0.4922(3) 0.44505(12) 0.1452(2)
O2C O 1.0108(6) 0.8611(3) 0.3650(5)
O4B O 0.4944(9) 0.3927(3) 0.0678(6)
O4C O 0.5056(9) 0.8927(3) -0.0678(6)
O5B O 0.3815(16) 0.4874(5) 0.1247(10)
O5A O 0.3815(16) 1.0126(5) 0.1247(10)
O6B O 0.6156(16) 0.4804(7) 0.1547(11)
O6A O 0.6156(16) 1.0196(7) 0.1547(11)
F1B F 0.542(3) 0.3708(8) 0.3167(11)
F2B F 0.4527(16) 0.4515(5) 0.3702(7)
F3B F 0.340(3) 0.3847(10) 0.2813(16)
C1C C 0.7221(8) 0.8058(4) 0.3363(7)
C2C C 0.8755(8) 0.8913(4) 0.1943(7)
C3C C 0.8711(9) 0.9118(4) 0.0771(7)
C4C C 0.9941(10) 0.9220(4) 0.0166(8)
C5C C 1.1232(9) 0.9104(4) 0.0739(7)
C6C C 1.1235(7) 0.8893(4) 0.1853(7)
C7C C 1.3037(8) 0.8063(4) 0.3259(7)
C8C C 1.3526(11) 0.8056(5) 0.4377(8)
C11C C 0.7261(10) 0.8055(5) 0.4561(9)
C13C C 1.0030(8) 0.8813(4) 0.2518(7)
C18C C 1.0177(12) 0.9078(6) 0.4531(8)
C19C C 1.0455(16) 0.8760(7) 0.5728(10)
C20C C 1.053(3) 0.9243(10) 0.6724(13)
C24B C 0.461(3) 0.4149(9) 0.2853(17)
H1C H 0.9837 0.9383 -0.0666
H2C H 1.2118 0.9164 0.0357
H3C H 0.7767 0.9197 0.0321
H5C H 0.7304 0.8465 0.4995
H6C H 1.3709 0.8463 0.4808
H8C H 0.8553 0.7117 0.0884
H9C H 0.6697 0.7116 -0.0574
H11C H 0.8972 0.7116 -0.1390
H12C H 0.9275 0.9320 0.4471
H13C H 1.0975 0.9370 0.4431
H14C H 0.9659 0.8462 0.5803
H15C H 1.1359 0.8520 0.5770
H16C H 1.0692 0.9014 0.7497
H17C H 0.9628 0.9483 0.6688
H18C H 1.1328 0.9541 0.6655
H19C H 1.3715 0.7117 0.0626
H20C H 1.1616 0.7117 -0.0543
H22C H 1.3673 0.7116 -0.1676
loop_
_geom_bond_atom_site_label_1
_geom_bond_atom_site_label_2
_geom_bond_site_symmetry_1
_geom_bond_site_symmetry_2
Ag1 S1 1_555 1_555
S1 C1 1_555 1_555
S2 C6 1_555 1_555
S3 O4 1_555 1_555
O1 C12 1_555 1_555
O2 C13 1_555 1_555
O3 C14 1_555 1_555
O4 Ag1 1_555 1_555
O5 S3 1_555 1_555
O6 S3 1_555 1_555
F1 C24 1_555 1_555
F2 C24 1_555 1_555
F3 C24 1_555 1_555
C1 C11 1_555 1_555
C2 S1 1_555 1_555
C3 C2 1_555 1_555
C4 C3 1_555 1_555
C5 C4 1_555 1_555
C6 C5 1_555 1_555
C7 S2 1_555 1_555
C8 C7 1_555 1_555
C9 C8 1_555 1_555
C10 C11 1_555 1_555
C11 H5 1_555 1_555
C12 C1 1_555 1_555
C13 C2 1_555 1_555
C14 C7 1_555 1_555
C15 O1 1_555 1_555
C16 C15 1_555 1_555
C17 C16 1_555 1_555
C18 O2 1_555 1_555
C19 C18 1_555 1_555
C20 C19 1_555 1_555
C21 O3 1_555 1_555
C22 C21 1_555 1_555
C23 C22 1_555 1_555
C24 S3 1_555 1_555
H1 C4 1_555 1_555
H2 C5 1_555 1_555
H3 C3 1_555 1_555
H4 C10 1_555 1_555
H6 C8 1_555 1_555
H7 C9 1_555 1_555
H8 C15 1_555 1_555
H9 C16 1_555 1_555
H10 C17 1_555 1_555
H11 C17 1_555 1_555
H12 C18 1_555 1_555
H13 C18 1_555 1_555
H14 C19 1_555 1_555
H15 C19 1_555 1_555
H16 C20 1_555 1_555
H17 C20 1_555 1_555
H18 C20 1_555 1_555
H19 C21 1_555 1_555
H20 C22 1_555 1_555
H21 C23 1_555 1_555
H22 C23 1_555 1_555
Ag1C S1C 1_555 1_555
Ag1_2 S2 1_555 1_555
Ag1B O5 1_555 1_555
Ag1C_2 S2C 1_555 1_555
S1C C1C 1_555 1_555
S2C C6C 1_555 1_555
S2_2 Ag1 1_555 1_555
S2C_2 Ag1C 1_555 1_555
S3B O4B 1_555 1_555
O2C C13C 1_555 1_555
O4B Ag1B 1_555 1_555
O4C Ag1C 1_555 1_555
O5B Ag1 1_555 1_555
O5A Ag1C 1_555 1_555
O6B Ag1 1_555 1_555
O6A Ag1C 1_555 1_555
F1B C24B 1_555 1_555
F2B C24B 1_555 1_555
F3B C24B 1_555 1_555
C1C C12 1_555 1_555
C2C S1C 1_555 1_555
C3C C2C 1_555 1_555
C4C C3C 1_555 1_555
C5C C4C 1_555 1_555
C6C C5C 1_555 1_555
C7C C14 1_555 1_555
C8C C9 1_555 1_555
C11C C10 1_555 1_555
C13C C2C 1_555 1_555
C18C O2C 1_555 1_555
C19C C18C 1_555 1_555
C20C C19C 1_555 1_555
C24B S3B 1_555 1_555
H1C C4C 1_555 1_555
H2C C5C 1_555 1_555
H3C C3C 1_555 1_555
H5C C11C 1_555 1_555
H6C C8C 1_555 1_555
H8C C15 1_555 1_555
H9C C16 1_555 1_555
H11C C17 1_555 1_555
H12C C18C 1_555 1_555
H13C C18C 1_555 1_555
H14C C19C 1_555 1_555
H15C C19C 1_555 1_555
H16C C20C 1_555 1_555
H17C C20C 1_555 1_555
H18C C20C 1_555 1_555
H19C C21 1_555 1_555
H20C C22 1_555 1_555
H22C C23 1_555 1_555
O6 Ag1B 1_555 1_555
C6 C13 1_555 1_555
S2C C7C 1_555 1_555
S3B O5B 1_555 1_555
S3B O6B 1_555 1_555
C1C C11C 1_555 1_555
C6C C13C 1_555 1_555
C7C C8C 1_555 1_555

#END
