
#######################################################################
#
#                 Cambridge Crystallographic Data Centre
#                                CCDC 
#
#######################################################################
#
# If this CIF has been generated from an entry in the Cambridge 
# Structural Database, then it will include bibliographic, chemical, 
# crystal, experimental, refinement or atomic coordinate data resulting 
# from the CCDC's data processing and validation procedures.
#
#######################################################################

data_HEVWUB
_symmetry_cell_setting           triclinic
_symmetry_space_group_name_H-M   'P -1'
_symmetry_Int_Tables_number      2
_space_group_name_Hall           '-P 1'
loop_
_symmetry_equiv_pos_site_id
_symmetry_equiv_pos_as_xyz
1 x,y,z
2 -x,-y,-z
_cell_length_a                   9.8138(1)
_cell_length_b                   11.2658(1)
_cell_length_c                   15.1752(2)
_cell_angle_alpha                100.624(1)
_cell_angle_beta                 105.179(1)
_cell_angle_gamma                105.465(1)
_cell_volume                     1501.22
loop_
_atom_site_label
_atom_site_type_symbol
_atom_site_fract_x
_atom_site_fract_y
_atom_site_fract_z
Zn1 Zn 0.5000 0.5000 0.0000
Zn2 Zn 0.19075(3) 0.19530(2) 0.108844(17)
Na1 Na 0.32561(10) 0.02449(9) -0.01820(6)
Cl1 Cl 0.70015(6) 0.58009(5) 0.28334(4)
Cl2 Cl 0.49518(6) 0.38363(5) 0.33099(4)
Cl3 Cl 0.26800(6) 0.02160(5) 0.28570(4)
Cl4 Cl -0.00441(7) -0.18405(5) 0.25619(4)
P1 P 0.54657(6) 0.32248(5) 0.14727(4)
P2 P 0.37272(6) 0.50353(5) 0.18054(4)
P3 P 0.07100(6) -0.11545(5) 0.09015(4)
P4 P -0.02168(6) 0.06716(5) 0.22253(4)
O1 O 0.3021(2) 0.34899(18) -0.07548(13)
H1 H 0.2534 0.3193 -0.0411
H2 H 0.2395 0.3622 -0.1199
O2 O 0.55882(18) 0.12301(16) -0.03740(12)
H3 H 0.6023 0.1984 -0.0002
H4 H 0.5503 0.1195 -0.0951
O4 O 0.58263(17) 0.37750(14) 0.07082(11)
O5 O 0.40684(16) 0.20927(14) 0.12013(11)
O6 O 0.68017(17) 0.28213(15) 0.20108(12)
O7 O 0.42094(17) 0.56079(14) 0.10754(11)
O8 O 0.23650(17) 0.38678(14) 0.14884(11)
O9 O 0.15798(16) -0.00410(13) 0.06514(11)
O10 O -0.09001(16) -0.18354(13) 0.02907(11)
O11 O 0.15949(17) -0.21300(14) 0.09579(12)
O12 O 0.06164(18) 0.17018(15) 0.18702(12)
O13 O -0.18365(17) -0.00261(16) 0.17024(11)
N1 N 0.3603(2) 0.61353(17) 0.26125(13)
N2 N 0.0047(2) 0.12821(18) 0.33479(13)
C1 C 0.5287(2) 0.4476(2) 0.23596(15)
C2 C 0.0758(2) -0.0539(2) 0.21267(15)
C3 C 0.8321(3) 0.3410(3) 0.2017(2)
H7 H 0.8349 0.4106 0.1711
H8 H 0.8634 0.2766 0.1670
H9 H 0.9002 0.3754 0.2673
C4 C 0.2640(3) 0.5853(2) 0.31969(18)
H10 H 0.2222 0.4914 0.3082
H11 H 0.1796 0.6179 0.3011
C5 C 0.3518(3) 0.6468(3) 0.42477(19)
H12 H 0.4284 0.6066 0.4452
H13 H 0.2831 0.6321 0.4622
C6 C 0.4280(3) 0.7908(3) 0.44393(19)
H14 H 0.3510 0.8327 0.4306
H15 H 0.4903 0.8278 0.5116
C7 C 0.5261(3) 0.8165(2) 0.38161(19)
H16 H 0.5676 0.9099 0.3909
H17 H 0.6108 0.7843 0.4008
C8 C 0.4367(3) 0.7513(2) 0.27787(17)
H18 H 0.3612 0.7925 0.2565
H19 H 0.5045 0.7628 0.2397
C9 C 0.0898(3) -0.3502(2) 0.0610(2)
H20 H 0.0533 -0.3832 0.1089
H21 H 0.1631 -0.3891 0.0479
H22 H 0.0055 -0.3715 0.0025
C10 C -0.0828(3) 0.0596(2) 0.38632(17)
H23 H -0.0213 0.0204 0.4265
H24 H -0.1721 -0.0099 0.3403
C11 C -0.1313(3) 0.1504(3) 0.4477(2)
H25 H -0.1845 0.1042 0.4849
H26 H -0.2014 0.1825 0.4068
C12 C 0.0036(3) 0.2633(3) 0.5152(2)
H27 H 0.0678 0.2324 0.5611
H28 H -0.0311 0.3248 0.5514
C13 C 0.0943(3) 0.3305(2) 0.45993(18)
H29 H 0.0341 0.3706 0.4198
H30 H 0.1855 0.3990 0.5049
C14 C 0.1381(3) 0.2357(2) 0.39790(17)
H31 H 0.1907 0.2793 0.3593
H32 H 0.2074 0.2027 0.4385
Zn2A Zn 0.80925(3) 0.80470(2) -0.108844(17)
Zn2A_2 Zn -0.19075(3) -0.19530(2) -0.108844(17)
Na1A Na 0.67439(10) 0.97551(9) 0.01820(6)
Na1A_2 Na 0.67439(10) -0.02449(9) 0.01820(6)
Na1A_3 Na -0.32561(10) -0.02449(9) 0.01820(6)
Cl1A Cl 0.29985(6) 0.41991(5) -0.28334(4)
Cl2A Cl 0.50482(6) 0.61637(5) -0.33099(4)
Cl3A Cl -0.26800(6) -0.02160(5) -0.28570(4)
Cl4A Cl 0.00441(7) 0.18405(5) -0.25619(4)
P1A P 0.45343(6) 0.67752(5) -0.14727(4)
P2A P 0.62728(6) 0.49647(5) -0.18054(4)
P3A P -0.07100(6) 0.11545(5) -0.09015(4)
P4A P 0.02168(6) -0.06716(5) -0.22253(4)
O1A O 0.6979(2) 0.65101(18) 0.07548(13)
H1A H 0.7466 0.6807 0.0411
H2A H 0.7605 0.6378 0.1199
O2A O 0.44118(18) -0.12301(16) 0.03740(12)
O2_2 O 0.55882(18) 1.12301(16) -0.03740(12)
O2A_2 O 0.44118(18) 0.87699(16) 0.03740(12)
H3A H 0.3977 -0.1984 0.0002
H3_2 H 0.6023 1.1984 -0.0002
H3A_2 H 0.3977 0.8016 0.0002
H4A H 0.4497 -0.1195 0.0951
H4_2 H 0.5503 1.1195 -0.0951
H4A_2 H 0.4497 0.8805 0.0951
O4A O 0.41737(17) 0.62250(14) -0.07082(11)
O5A O 0.59316(16) 0.79073(14) -0.12013(11)
O6A O 0.31983(17) 0.71787(15) -0.20108(12)
O7A O 0.57906(17) 0.43921(14) -0.10754(11)
O8A O 0.76350(17) 0.61322(14) -0.14884(11)
O9A O -0.15798(16) 0.00410(13) -0.06514(11)
O9A_2 O 0.84202(16) 1.00410(13) -0.06514(11)
O10A O 0.09001(16) 0.18354(13) -0.02907(11)
O10_2 O 0.90999(16) 0.81646(13) 0.02907(11)
O11A O -0.15949(17) 0.21300(14) -0.09579(12)
O12A O -0.06164(18) -0.17018(15) -0.18702(12)
O12A_2 O 0.93836(18) 0.82982(15) -0.18702(12)
O13A O 0.18365(17) 0.00261(16) -0.17024(11)
O13_2 O 0.81635(17) 0.99739(16) 0.17024(11)
N1A N 0.6397(2) 0.38647(17) -0.26125(13)
N2A N -0.0047(2) -0.12821(18) -0.33479(13)
C1A C 0.4713(2) 0.5524(2) -0.23596(15)
C2A C -0.0758(2) 0.0539(2) -0.21267(15)
C3A C 0.1679(3) 0.6590(3) -0.2017(2)
H7A H 0.1651 0.5894 -0.1711
H8A H 0.1366 0.7234 -0.1670
H9A H 0.0998 0.6246 -0.2673
C4A C 0.7360(3) 0.4147(2) -0.31969(18)
H10A H 0.7778 0.5086 -0.3082
H11A H 0.8204 0.3821 -0.3011
C5A C 0.6482(3) 0.3532(3) -0.42477(19)
H12A H 0.5716 0.3934 -0.4452
H13A H 0.7169 0.3679 -0.4622
C6A C 0.5720(3) 0.2092(3) -0.44393(19)
H14A H 0.6490 0.1673 -0.4306
H15A H 0.5097 0.1722 -0.5116
C7A C 0.4739(3) 0.1835(2) -0.38161(19)
H16A H 0.4324 0.0901 -0.3909
H17A H 0.3892 0.2157 -0.4008
C8A C 0.5633(3) 0.2487(2) -0.27787(17)
H18A H 0.6388 0.2075 -0.2565
H19A H 0.4955 0.2372 -0.2397
C9A C -0.0898(3) 0.3502(2) -0.0610(2)
H20A H -0.0533 0.3832 -0.1089
H21A H -0.1631 0.3891 -0.0479
H22A H -0.0055 0.3715 -0.0025
C10A C 0.0828(3) -0.0596(2) -0.38632(17)
H23A H 0.0213 -0.0204 -0.4265
H24A H 0.1721 0.0099 -0.3403
C11A C 0.1313(3) -0.1504(3) -0.4477(2)
H25A H 0.1845 -0.1042 -0.4849
H26A H 0.2014 -0.1825 -0.4068
C12A C -0.0036(3) -0.2633(3) -0.5152(2)
H27A H -0.0678 -0.2324 -0.5611
H28A H 0.0311 -0.3248 -0.5514
C13A C -0.0943(3) -0.3305(2) -0.45993(18)
H29A H -0.0341 -0.3706 -0.4198
H30A H -0.1855 -0.3990 -0.5049
C14A C -0.1381(3) -0.2357(2) -0.39790(17)
H31A H -0.1907 -0.2793 -0.3593
H32A H -0.2074 -0.2027 -0.4385
O3 O 0.4328(2) -0.01442(17) -0.22364(14)
H5 H 0.3459 -0.0187 -0.2215
H6 H 0.4393 -0.0871 -0.2198
loop_
_geom_bond_atom_site_label_1
_geom_bond_atom_site_label_2
_geom_bond_site_symmetry_1
_geom_bond_site_symmetry_2
Zn1 O1 1_555 1_555
Zn2 O5 1_555 1_555
Na1 O2 1_555 1_555
Cl1 C1 1_555 1_555
Cl2 C1 1_555 1_555
Cl3 C2 1_555 1_555
Cl4 C2 1_555 1_555
P1 O4 1_555 1_555
P2 O7 1_555 1_555
P3 O9 1_555 1_555
P4 O12 1_555 1_555
O1 H1 1_555 1_555
H2 O1 1_555 1_555
O2 H3 1_555 1_555
H4 O2 1_555 1_555
O3 H5 1_555 1_555
H6 O3 1_555 1_555
O4 Zn1 1_555 1_555
O5 Na1 1_555 1_555
O6 P1 1_555 1_555
O7 Zn1 1_555 1_555
O8 Zn2 1_555 1_555
O9 Zn2 1_555 1_555
O10 P3 1_555 1_555
O11 P3 1_555 1_555
O12 Zn2 1_555 1_555
O13 P4 1_555 1_555
N1 P2 1_555 1_555
N2 P4 1_555 1_555
C1 P1 1_555 1_555
C2 P3 1_555 1_555
C3 O6 1_555 1_555
H7 C3 1_555 1_555
H8 C3 1_555 1_555
H9 C3 1_555 1_555
C4 N1 1_555 1_555
H10 C4 1_555 1_555
H11 C4 1_555 1_555
C5 C4 1_555 1_555
H12 C5 1_555 1_555
H13 C5 1_555 1_555
C6 C5 1_555 1_555
H14 C6 1_555 1_555
H15 C6 1_555 1_555
C7 C6 1_555 1_555
H16 C7 1_555 1_555
H17 C7 1_555 1_555
C8 N1 1_555 1_555
H18 C8 1_555 1_555
H19 C8 1_555 1_555
C9 O11 1_555 1_555
H20 C9 1_555 1_555
H21 C9 1_555 1_555
H22 C9 1_555 1_555
C10 N2 1_555 1_555
H23 C10 1_555 1_555
H24 C10 1_555 1_555
C11 C10 1_555 1_555
H25 C11 1_555 1_555
H26 C11 1_555 1_555
C12 C11 1_555 1_555
H27 C12 1_555 1_555
H28 C12 1_555 1_555
C13 C12 1_555 1_555
H29 C13 1_555 1_555
H30 C13 1_555 1_555
C14 N2 1_555 1_555
H31 C14 1_555 1_555
H32 C14 1_555 1_555
Zn2A O5A 1_555 1_555
Zn2A_2 O10 1_555 1_555
Na1A O2_2 1_555 1_555
Na1A_2 O2 1_555 1_555
Na1A_3 O13 1_555 1_555
Cl1A C1A 1_555 1_555
Cl2A C1A 1_555 1_555
Cl3A C2A 1_555 1_555
Cl4A C2A 1_555 1_555
P1A O4A 1_555 1_555
P2A O7A 1_555 1_555
P3A O9A 1_555 1_555
P4A O12A 1_555 1_555
O1A Zn1 1_555 1_555
H1A O1A 1_555 1_555
H2A O1A 1_555 1_555
O2A Na1 1_555 1_555
O2_2 H3_2 1_555 1_555
O2A_2 Na1A 1_555 1_555
H3A O2A 1_555 1_555
H3A_2 O2A_2 1_555 1_555
H4A O2A 1_555 1_555
H4_2 O2_2 1_555 1_555
H4A_2 O2A_2 1_555 1_555
O4A Zn1 1_555 1_555
O5A Na1A 1_555 1_555
O6A P1A 1_555 1_555
O7A Zn1 1_555 1_555
O8A Zn2A 1_555 1_555
O9A Zn2A_2 1_555 1_555
O9A_2 Zn2A 1_555 1_555
O10A Zn2 1_555 1_555
O10_2 Zn2A 1_555 1_555
O11A P3A 1_555 1_555
O12A Zn2A_2 1_555 1_555
O12A_2 Zn2A 1_555 1_555
O13A Na1 1_555 1_555
O13_2 Na1A 1_555 1_555
N1A P2A 1_555 1_555
N2A P4A 1_555 1_555
C1A P1A 1_555 1_555
C2A P3A 1_555 1_555
C3A O6A 1_555 1_555
H7A C3A 1_555 1_555
H8A C3A 1_555 1_555
H9A C3A 1_555 1_555
C4A N1A 1_555 1_555
H10A C4A 1_555 1_555
H11A C4A 1_555 1_555
C5A C4A 1_555 1_555
H12A C5A 1_555 1_555
H13A C5A 1_555 1_555
C6A C5A 1_555 1_555
H14A C6A 1_555 1_555
H15A C6A 1_555 1_555
C7A C6A 1_555 1_555
H16A C7A 1_555 1_555
H17A C7A 1_555 1_555
C8A N1A 1_555 1_555
H18A C8A 1_555 1_555
H19A C8A 1_555 1_555
C9A O11A 1_555 1_555
H20A C9A 1_555 1_555
H21A C9A 1_555 1_555
H22A C9A 1_555 1_555
C10A N2A 1_555 1_555
H23A C10A 1_555 1_555
H24A C10A 1_555 1_555
C11A C10A 1_555 1_555
H25A C11A 1_555 1_555
H26A C11A 1_555 1_555
C12A C11A 1_555 1_555
H27A C12A 1_555 1_555
H28A C12A 1_555 1_555
C13A C12A 1_555 1_555
H29A C13A 1_555 1_555
H30A C13A 1_555 1_555
C14A N2A 1_555 1_555
H31A C14A 1_555 1_555
H32A C14A 1_555 1_555
Na1 O9 1_555 1_555
P1 O5 1_555 1_555
P2 O8 1_555 1_555
P2 C1 1_555 1_555
P4 C2 1_555 1_555
C7 C8 1_555 1_555
C13 C14 1_555 1_555
Na1A O9A_2 1_555 1_555
Na1A_2 O2A 1_555 1_555
Na1A_3 O9A 1_555 1_555
P1A O5A 1_555 1_555
P2A O8A 1_555 1_555
P2A C1A 1_555 1_555
P3A O10A 1_555 1_555
P4A O13A 1_555 1_555
P4A C2A 1_555 1_555
C7A C8A 1_555 1_555
C13A C14A 1_555 1_555

#END
