
#######################################################################
#
#                 Cambridge Crystallographic Data Centre
#                                CCDC 
#
#######################################################################
#
# If this CIF has been generated from an entry in the Cambridge 
# Structural Database, then it will include bibliographic, chemical, 
# crystal, experimental, refinement or atomic coordinate data resulting 
# from the CCDC's data processing and validation procedures.
#
#######################################################################

data_HEVWOV
_symmetry_cell_setting           monoclinic
_symmetry_space_group_name_H-M   'C 2/c'
_symmetry_Int_Tables_number      15
_space_group_name_Hall           '-C 2yn'
loop_
_symmetry_equiv_pos_site_id
_symmetry_equiv_pos_as_xyz
1 x,y,z
2 1/2+x,1/2+y,z
3 -x,y,1/2-z
4 1/2-x,1/2+y,1/2-z
5 -x,-y,-z
6 1/2-x,1/2-y,-z
7 x,-y,1/2+z
8 1/2+x,1/2-y,1/2+z
_cell_length_a                   28.3302(3)
_cell_length_b                   7.50440(10)
_cell_length_c                   17.4238(3)
_cell_angle_alpha                90
_cell_angle_beta                 120.6603(5)
_cell_angle_gamma                90
_cell_volume                     3186.48
loop_
_atom_site_label
_atom_site_type_symbol
_atom_site_fract_x
_atom_site_fract_y
_atom_site_fract_z
Cl1 Cl 0.654536(16) 0.02976(5) 0.44725(3)
Cl2 Cl 0.665294(16) 0.33489(5) 0.55739(3)
P1 P 0.560073(16) 0.13202(5) 0.46568(3)
P2 P 0.596711(16) 0.36607(5) 0.35901(3)
Mg1 Mg 0.5000 0.05495(10) 0.2500
Mg2 Mg 0.5000 0.5000 0.5000
O1 O 0.55573(5) -0.15554(15) 0.26681(8)
H1 H 0.5611 -0.2296 0.3074
H2 H 0.5459 -0.2165 0.2199
O2 O 0.47298(5) 0.54260(15) 0.36021(7)
H3 H 0.4564 0.4540 0.3269
H4 H 0.4976 0.5736 0.3487
O3 O 0.56987(5) 0.63527(15) 0.52920(8)
H5 H 0.5700 0.7483 0.5326
H6 H 0.5856 0.6071 0.5004
O4 O 0.52498(5) 0.03004(15) 0.38215(7)
O5 O 0.53642(5) 0.28210(15) 0.49022(8)
O6 O 0.58673(5) -0.00725(15) 0.54549(7)
O7 O 0.55952(4) 0.25411(14) 0.27929(7)
O8 O 0.57383(5) 0.52961(14) 0.37846(7)
N1 N 0.65098(5) 0.42302(18) 0.35460(9)
C1 C 0.61868(6) 0.2161(2) 0.45744(10)
C2 C 0.60537(8) 0.0439(2) 0.63677(11)
H7 H 0.5980 0.1708 0.6389
H8 H 0.6449 0.0218 0.6739
H9 H 0.5858 -0.0264 0.6593
C3 C 0.67375(7) 0.3127(2) 0.31168(12)
H10 H 0.6477 0.2161 0.2771
H11 H 0.7086 0.2577 0.3577
C4 C 0.68415(8) 0.4280(3) 0.24967(13)
H12 H 0.6489 0.4756 0.2011
H13 H 0.7008 0.3545 0.2224
C5 C 0.72254(8) 0.5823(3) 0.30135(13)
H14 H 0.7593 0.5350 0.3447
H15 H 0.7263 0.6616 0.2594
C6 C 0.70045(8) 0.6884(3) 0.35069(13)
H16 H 0.7278 0.7790 0.3888
H17 H 0.6666 0.7515 0.3069
C7 C 0.68790(7) 0.5685(2) 0.40832(11)
H18 H 0.7225 0.5180 0.4574
H19 H 0.6705 0.6394 0.4351
Cl1B Cl 0.345464(16) 0.02976(5) 0.05275(3)
Cl2B Cl 0.334706(16) 0.33489(5) -0.05739(3)
P1B P 0.439927(16) 0.13202(5) 0.03432(3)
P2B P 0.403289(16) 0.36607(5) 0.14099(3)
Mg2F Mg 0.5000 0.5000 0.0000
O1B O 0.44427(5) -0.15554(15) 0.23319(8)
H1B H 0.4389 -0.2296 0.1926
H2B H 0.4541 -0.2165 0.2801
O2D O 0.52702(5) 0.45740(15) 0.63979(7)
H3D H 0.5436 0.5460 0.6731
H4D H 0.5024 0.4264 0.6513
O3D O 0.43013(5) 0.36473(15) 0.47080(8)
H5D H 0.4300 0.2517 0.4674
H6D H 0.4144 0.3929 0.4996
O4B O 0.47502(5) 0.03004(15) 0.11785(7)
O5B O 0.46358(5) 0.28210(15) 0.00978(8)
O5D O 0.46358(5) 0.71790(15) 0.50978(8)
O6B O 0.41327(5) -0.00725(15) -0.04549(7)
O7B O 0.44048(4) 0.25411(14) 0.22071(7)
O8B O 0.42617(5) 0.52961(14) 0.12154(7)
N1B N 0.34902(5) 0.42302(18) 0.14540(9)
C1B C 0.38132(6) 0.2161(2) 0.04256(10)
C2B C 0.39463(8) 0.0439(2) -0.13677(11)
H7B H 0.4020 0.1708 -0.1389
H8B H 0.3551 0.0218 -0.1739
H9B H 0.4142 -0.0264 -0.1593
C3B C 0.32625(7) 0.3127(2) 0.18832(12)
H10B H 0.3523 0.2161 0.2229
H11B H 0.2914 0.2577 0.1423
C4B C 0.31585(8) 0.4280(3) 0.25033(13)
H12B H 0.3511 0.4756 0.2989
H13B H 0.2992 0.3545 0.2776
C5B C 0.27746(8) 0.5823(3) 0.19865(13)
H14B H 0.2407 0.5350 0.1553
H15B H 0.2737 0.6616 0.2406
C6B C 0.29955(8) 0.6884(3) 0.14931(13)
H16B H 0.2722 0.7790 0.1112
H17B H 0.3334 0.7515 0.1931
C7B C 0.31210(7) 0.5685(2) 0.09168(11)
H18B H 0.2775 0.5180 0.0426
H19B H 0.3295 0.6394 0.0649
loop_
_geom_bond_atom_site_label_1
_geom_bond_atom_site_label_2
_geom_bond_site_symmetry_1
_geom_bond_site_symmetry_2
Cl1 C1 1_555 1_555
Cl2 C1 1_555 1_555
P1 O4 1_555 1_555
P2 O7 1_555 1_555
Mg1 O1 1_555 1_555
Mg2 O2 1_555 1_555
O1 H1 1_555 1_555
H2 O1 1_555 1_555
O2 H3 1_555 1_555
H4 O2 1_555 1_555
O3 Mg2 1_555 1_555
H5 O3 1_555 1_555
H6 O3 1_555 1_555
O4 Mg1 1_555 1_555
O5 P1 1_555 1_555
O6 P1 1_555 1_555
O7 Mg1 1_555 1_555
O8 P2 1_555 1_555
N1 P2 1_555 1_555
C1 P1 1_555 1_555
C2 O6 1_555 1_555
H7 C2 1_555 1_555
H8 C2 1_555 1_555
H9 C2 1_555 1_555
C3 N1 1_555 1_555
H10 C3 1_555 1_555
H11 C3 1_555 1_555
C4 C3 1_555 1_555
H12 C4 1_555 1_555
H13 C4 1_555 1_555
C5 C4 1_555 1_555
H14 C5 1_555 1_555
H15 C5 1_555 1_555
C6 C5 1_555 1_555
H16 C6 1_555 1_555
H17 C6 1_555 1_555
C7 N1 1_555 1_555
H18 C7 1_555 1_555
H19 C7 1_555 1_555
Cl1B C1B 1_555 1_555
Cl2B C1B 1_555 1_555
P1B O4B 1_555 1_555
P2B O7B 1_555 1_555
Mg2F O5B 1_555 1_555
O1B Mg1 1_555 1_555
H1B O1B 1_555 1_555
H2B O1B 1_555 1_555
O2D Mg2 1_555 1_555
H3D O2D 1_555 1_555
H4D O2D 1_555 1_555
O3D Mg2 1_555 1_555
H5D O3D 1_555 1_555
H6D O3D 1_555 1_555
O4B Mg1 1_555 1_555
O5B P1B 1_555 1_555
O5D Mg2 1_555 1_555
O6B P1B 1_555 1_555
O7B Mg1 1_555 1_555
O8B P2B 1_555 1_555
N1B P2B 1_555 1_555
C1B P1B 1_555 1_555
C2B O6B 1_555 1_555
H7B C2B 1_555 1_555
H8B C2B 1_555 1_555
H9B C2B 1_555 1_555
C3B N1B 1_555 1_555
H10B C3B 1_555 1_555
H11B C3B 1_555 1_555
C4B C3B 1_555 1_555
H12B C4B 1_555 1_555
H13B C4B 1_555 1_555
C5B C4B 1_555 1_555
H14B C5B 1_555 1_555
H15B C5B 1_555 1_555
C6B C5B 1_555 1_555
H16B C6B 1_555 1_555
H17B C6B 1_555 1_555
C7B N1B 1_555 1_555
H18B C7B 1_555 1_555
H19B C7B 1_555 1_555
P2 C1 1_555 1_555
Mg2 O5 1_555 1_555
C6 C7 1_555 1_555
P2B C1B 1_555 1_555
C6B C7B 1_555 1_555

#END
