
#######################################################################
#
#                 Cambridge Crystallographic Data Centre
#                                CCDC 
#
#######################################################################
#
# If this CIF has been generated from an entry in the Cambridge 
# Structural Database, then it will include bibliographic, chemical, 
# crystal, experimental, refinement or atomic coordinate data resulting 
# from the CCDC's data processing and validation procedures.
#
#######################################################################

data_HEVXAI
_symmetry_cell_setting           monoclinic
_symmetry_space_group_name_H-M   'P 21'
_symmetry_Int_Tables_number      4
_space_group_name_Hall           'P 2yb'
loop_
_symmetry_equiv_pos_site_id
_symmetry_equiv_pos_as_xyz
1 x,y,z
2 -x,1/2+y,-z
_cell_length_a                   9.1901(2)
_cell_length_b                   5.9097(1)
_cell_length_c                   16.0130(3)
_cell_angle_alpha                90
_cell_angle_beta                 103.107(1)
_cell_angle_gamma                90
_cell_volume                     847.021
loop_
_atom_site_label
_atom_site_type_symbol
_atom_site_fract_x
_atom_site_fract_y
_atom_site_fract_z
Cd1 Cd 0.165106(18) 0.15000(3) 0.378806(10)
Cl1 Cl -0.08540(7) 0.27970(10) 0.16863(4)
Cl2 Cl -0.19399(7) 0.74189(11) 0.15540(4)
P1 P -0.15370(7) 0.49460(11) 0.32000(4)
P2 P 0.12244(6) 0.64352(15) 0.24785(3)
O1 O 0.1038(2) -0.1484(3) 0.46160(12)
H1 H 0.0210 -0.2135 0.4407
H2 H 0.1055 -0.1168 0.5136
O2 O 0.4109(2) 0.0602(4) 0.42340(13)
H3 H 0.4315 -0.0797 0.4216
H4 H 0.4469 0.0983 0.4751
O3 O 0.2415(2) 0.3966(3) 0.49578(12)
H5 H 0.2360 0.3408 0.5439
H6 H 0.2002 0.5261 0.4915
O5 O -0.0645(2) 0.3082(3) 0.37142(12)
O6 O -0.1587(2) 0.7160(3) 0.36308(13)
O7 O -0.3214(2) 0.4159(3) 0.28581(13)
O8 O 0.2070(2) 0.4675(3) 0.30748(12)
O9 O 0.1205(2) 0.8816(3) 0.27808(12)
N1 N 0.1790(2) 0.6353(5) 0.15821(13)
C1 C -0.0774(3) 0.5436(4) 0.22431(16)
C2 C -0.3653(3) 0.1796(5) 0.2726(2)
H9 H -0.3928 0.1473 0.2109
H10 H -0.4510 0.1499 0.2979
H11 H -0.2815 0.0825 0.2999
C3 C 0.2472(3) 0.4330(5) 0.1296(2)
H12 H 0.1789 0.3681 0.0784
H13 H 0.2645 0.3173 0.1755
C4 C 0.3949(3) 0.4966(5) 0.10797(19)
H14 H 0.4654 0.5513 0.1603
H15 H 0.4392 0.3614 0.0870
C5 C 0.3715(3) 0.6800(6) 0.03981(18)
H16 H 0.3106 0.6196 -0.0146
H17 H 0.4693 0.7275 0.0296
C6 C 0.2931(4) 0.8831(5) 0.0680(2)
H18 H 0.2697 0.9942 0.0206
H19 H 0.3608 0.9570 0.1174
C7 C 0.1495(3) 0.8142(5) 0.09334(18)
H20 H 0.1060 0.9472 0.1164
H21 H 0.0762 0.7597 0.0421
Cd1_2 Cd 0.165106(18) 1.15000(3) 0.378806(10)
O9_2 O 0.1205(2) -0.1184(3) 0.27808(12)
O4 O 0.4879(2) 0.6237(4) 0.39441(12)
H7 H 0.5568 0.5688 0.3730
H8 H 0.4056 0.5670 0.3675
loop_
_geom_bond_atom_site_label_1
_geom_bond_atom_site_label_2
_geom_bond_site_symmetry_1
_geom_bond_site_symmetry_2
Cd1 O1 1_555 1_555
Cl1 C1 1_555 1_555
Cl2 C1 1_555 1_555
P1 O5 1_555 1_555
P2 O8 1_555 1_555
O1 H1 1_555 1_555
H2 O1 1_555 1_555
O2 Cd1 1_555 1_555
H3 O2 1_555 1_555
H4 O2 1_555 1_555
O3 Cd1 1_555 1_555
H5 O3 1_555 1_555
H6 O3 1_555 1_555
O4 H7 1_555 1_555
H8 O4 1_555 1_555
O5 Cd1 1_555 1_555
O6 P1 1_555 1_555
O7 P1 1_555 1_555
O8 Cd1 1_555 1_555
O9 P2 1_555 1_555
N1 P2 1_555 1_555
C1 P1 1_555 1_555
C2 O7 1_555 1_555
H9 C2 1_555 1_555
H10 C2 1_555 1_555
H11 C2 1_555 1_555
C3 N1 1_555 1_555
H12 C3 1_555 1_555
H13 C3 1_555 1_555
C4 C3 1_555 1_555
H14 C4 1_555 1_555
H15 C4 1_555 1_555
C5 C4 1_555 1_555
H16 C5 1_555 1_555
H17 C5 1_555 1_555
C6 C5 1_555 1_555
H18 C6 1_555 1_555
H19 C6 1_555 1_555
C7 N1 1_555 1_555
H20 C7 1_555 1_555
H21 C7 1_555 1_555
Cd1_2 O9 1_555 1_555
O9_2 Cd1 1_555 1_555
P2 C1 1_555 1_555
C6 C7 1_555 1_555

#END
