
#######################################################################
#
#                 Cambridge Crystallographic Data Centre
#                                CCDC 
#
#######################################################################
#
# If this CIF has been generated from an entry in the Cambridge 
# Structural Database, then it will include bibliographic, chemical, 
# crystal, experimental, refinement or atomic coordinate data resulting 
# from the CCDC's data processing and validation procedures.
#
#######################################################################

data_HEVYIR
_symmetry_cell_setting           monoclinic
_symmetry_space_group_name_H-M   'C 2/c'
_symmetry_Int_Tables_number      15
_space_group_name_Hall           '-C 2yn'
loop_
_symmetry_equiv_pos_site_id
_symmetry_equiv_pos_as_xyz
1 x,y,z
2 1/2+x,1/2+y,z
3 -x,y,1/2-z
4 1/2-x,1/2+y,1/2-z
5 -x,-y,-z
6 1/2-x,1/2-y,-z
7 x,-y,1/2+z
8 1/2+x,1/2-y,1/2+z
_cell_length_a                   14.079(3)
_cell_length_b                   8.884(1)
_cell_length_c                   23.287(4)
_cell_angle_alpha                90
_cell_angle_beta                 115.758(8)
_cell_angle_gamma                90
_cell_volume                     2623.28
loop_
_atom_site_label
_atom_site_type_symbol
_atom_site_fract_x
_atom_site_fract_y
_atom_site_fract_z
Cu1 Cu 0.0000 0.5000 0.0000
Cl1 Cl 0.15907(7) 0.6075(1) 0.04888(5)
S1 S -0.07962(7) 0.1863(1) 0.12525(4)
F1 F 0.0813(4) 0.9265(5) 0.2620(2)
F2 F -0.1162(3) 0.7589(3) 0.1458(1)
F3 F 0.0481(3) 0.7610(3) 0.1687(2)
N1 N 0.0678(2) 0.2990(3) 0.0264(1)
C1 C 0.0000 0.8379(7) 0.2500
C2 C -0.0194(4) 0.7328(5) 0.1938(2)
C3 C -0.0103(3) 0.5751(4) 0.2189(2)
C4 C -0.0912(3) 0.3261(4) 0.1727(2)
C5 C -0.0258(3) 0.4447(4) 0.1771(2)
C6 C 0.0328(3) 0.4225(4) 0.1405(2)
C7 C 0.0132(3) 0.2846(4) 0.1112(2)
C8 C -0.1678(3) 0.3072(5) 0.2010(2)
C9 C 0.0617(3) 0.2152(4) 0.0729(2)
C10 C 0.1019(3) 0.0702(4) 0.0848(2)
C11 C 0.1498(3) 0.0099(4) 0.0488(2)
C12 C 0.1575(3) 0.0979(4) 0.0019(2)
C13 C 0.1163(3) 0.2410(4) -0.0074(2)
H1 H 0.0796 0.4949 0.1368
H2 H -0.2192 0.3851 0.1860
H3 H -0.1312 0.3127 0.2462
H4 H -0.2018 0.2123 0.1890
H5 H 0.0969 0.0121 0.1176
H6 H 0.1767 -0.0899 0.0563
H7 H 0.1906 0.0600 -0.0231
H8 H 0.1220 0.3020 -0.0394
Cu1F Cu 0.0000 0.5000 0.5000
Cl1D Cl -0.15907(7) 0.3925(1) -0.04888(5)
S1B S 0.07962(7) 0.1863(1) 0.37475(4)
F1B F -0.0813(4) 0.9265(5) 0.2380(2)
F2B F 0.1162(3) 0.7589(3) 0.3542(1)
F3B F -0.0481(3) 0.7610(3) 0.3313(2)
N1B N -0.0678(2) 0.2990(3) 0.4736(1)
N1D N -0.0678(2) 0.7010(3) -0.0264(1)
C2B C 0.0194(4) 0.7328(5) 0.3062(2)
C3B C 0.0103(3) 0.5751(4) 0.2811(2)
C4B C 0.0912(3) 0.3261(4) 0.3273(2)
C5B C 0.0258(3) 0.4447(4) 0.3229(2)
C6B C -0.0328(3) 0.4225(4) 0.3595(2)
C7B C -0.0132(3) 0.2846(4) 0.3888(2)
C8B C 0.1678(3) 0.3072(5) 0.2990(2)
C9B C -0.0617(3) 0.2152(4) 0.4271(2)
C10B C -0.1019(3) 0.0702(4) 0.4152(2)
C11B C -0.1498(3) 0.0099(4) 0.4512(2)
C12B C -0.1575(3) 0.0979(4) 0.4981(2)
C13B C -0.1163(3) 0.2410(4) 0.5074(2)
H1B H -0.0796 0.4949 0.3632
H2B H 0.2192 0.3851 0.3140
H3B H 0.1312 0.3127 0.2538
H4B H 0.2018 0.2123 0.3110
H5B H -0.0969 0.0121 0.3824
H6B H -0.1767 -0.0899 0.4437
H7B H -0.1906 0.0600 0.5231
H8B H -0.1220 0.3020 0.5394
loop_
_geom_bond_atom_site_label_1
_geom_bond_atom_site_label_2
_geom_bond_site_symmetry_1
_geom_bond_site_symmetry_2
Cu1 Cl1 1_555 1_555
S1 C4 1_555 1_555
F1 C1 1_555 1_555
F2 C2 1_555 1_555
F3 C2 1_555 1_555
N1 Cu1 1_555 1_555
C1 C2 1_555 1_555
C2 C3 1_555 1_555
C3 C5 1_555 1_555
C4 C5 1_555 1_555
C5 C6 1_555 1_555
C6 C7 1_555 1_555
C7 S1 1_555 1_555
C8 C4 1_555 1_555
C9 N1 1_555 1_555
C10 C9 1_555 1_555
C11 C10 1_555 1_555
C12 C11 1_555 1_555
C13 N1 1_555 1_555
H1 C6 1_555 1_555
H2 C8 1_555 1_555
H3 C8 1_555 1_555
H4 C8 1_555 1_555
H5 C10 1_555 1_555
H6 C11 1_555 1_555
H7 C12 1_555 1_555
H8 C13 1_555 1_555
Cu1F N1B 1_555 1_555
Cl1D Cu1 1_555 1_555
S1B C4B 1_555 1_555
F1B C1 1_555 1_555
F2B C2B 1_555 1_555
F3B C2B 1_555 1_555
N1B C9B 1_555 1_555
N1D Cu1 1_555 1_555
C2B C1 1_555 1_555
C3B C3 1_555 1_555
C4B C5B 1_555 1_555
C5B C3B 1_555 1_555
C6B C5B 1_555 1_555
C7B S1B 1_555 1_555
C8B C4B 1_555 1_555
C9B C7B 1_555 1_555
C10B C9B 1_555 1_555
C11B C10B 1_555 1_555
C12B C11B 1_555 1_555
C13B N1B 1_555 1_555
H1B C6B 1_555 1_555
H2B C8B 1_555 1_555
H3B C8B 1_555 1_555
H4B C8B 1_555 1_555
H5B C10B 1_555 1_555
H6B C11B 1_555 1_555
H7B C12B 1_555 1_555
H8B C13B 1_555 1_555
C7 C9 1_555 1_555
C12 C13 1_555 1_555
C2B C3B 1_555 1_555
C6B C7B 1_555 1_555
C12B C13B 1_555 1_555

#END
