
#######################################################################
#
#                 Cambridge Crystallographic Data Centre
#                                CCDC 
#
#######################################################################
#
# If this CIF has been generated from an entry in the Cambridge 
# Structural Database, then it will include bibliographic, chemical, 
# crystal, experimental, refinement or atomic coordinate data resulting 
# from the CCDC's data processing and validation procedures.
#
#######################################################################

data_HEWCIV
_symmetry_cell_setting           monoclinic
_symmetry_space_group_name_H-M   'P 21/c'
_symmetry_Int_Tables_number      14
_space_group_name_Hall           '-P 2ybc'
loop_
_symmetry_equiv_pos_site_id
_symmetry_equiv_pos_as_xyz
1 x,y,z
2 -x,1/2+y,1/2-z
3 -x,-y,-z
4 x,1/2-y,1/2+z
_cell_length_a                   14.708(3)
_cell_length_b                   12.406(2)
_cell_length_c                   10.275(2)
_cell_angle_alpha                90
_cell_angle_beta                 93.66(2)
_cell_angle_gamma                90
_cell_volume                     1871.03
loop_
_atom_site_label
_atom_site_type_symbol
_atom_site_fract_x
_atom_site_fract_y
_atom_site_fract_z
N1 N 0.1270(6) 0.5310(7) 0.6711(9)
C13 C 0.2071(9) 0.4926(13) 0.6133(14)
C14 C 0.2937(14) 0.5207(19) 0.6857(21)
H11 H 0.0739 0.5098 0.6181
H12 H 0.1291 0.6082 0.6772
H13 H 0.1243 0.5008 0.7568
H14 H 0.2033 0.4155 0.6071
H15 H 0.2081 0.5230 0.5275
H16 H 0.3438 0.4923 0.6409
H17 H 0.2945 0.4902 0.7716
H18 H 0.2992 0.5976 0.6920
V1 V -0.0368(3) 0.2086(3) 0.1088(4)
P1 P -0.1464(1) 0.3242(2) -0.1318(2)
P2 P 0.0982(1) 0.2023(2) 0.3786(2)
O1 O -0.0148(4) 0.3897(5) 0.1252(5)
O2 O -0.0507(7) 0.0791(9) 0.0991(10)
O3 O -0.1400(3) 0.2562(5) -0.0079(5)
O4 O -0.0953(4) 0.4314(5) -0.1176(5)
O5 O -0.1183(4) 0.2404(5) 0.2515(5)
O6 O 0.0700(4) 0.2102(5) 0.2352(5)
O7 O 0.0985(3) 0.0853(5) 0.4242(5)
O8 O 0.0437(4) 0.2250(5) -0.0389(5)
C1 C -0.2661(6) 0.3511(8) -0.1637(9)
C2 C -0.3085(7) 0.3257(9) -0.2877(10)
C3 C -0.4023(8) 0.3395(12) -0.3075(15)
C4 C -0.4522(8) 0.3763(12) -0.2111(16)
C5 C -0.4121(8) 0.4023(13) -0.0896(15)
C6 C -0.3177(7) 0.3896(9) -0.0690(10)
C7 C 0.2136(5) 0.2506(7) 0.3919(8)
C8 C 0.2785(6) 0.2014(9) 0.4799(9)
C9 C 0.3661(7) 0.2424(10) 0.4932(11)
C10 C 0.3905(7) 0.3263(11) 0.4211(12)
C11 C 0.3274(7) 0.3782(9) 0.3320(11)
C12 C 0.2399(6) 0.3358(9) 0.3204(10)
H1 H -0.2733 0.2995 -0.3566
H2 H -0.4320 0.3228 -0.3910
H3 H -0.5168 0.3845 -0.2270
H4 H -0.4480 0.4284 -0.0214
H5 H -0.2886 0.4084 0.0142
H6 H 0.2621 0.1401 0.5303
H7 H 0.4100 0.2104 0.5548
H8 H 0.4522 0.3518 0.4299
H9 H 0.3443 0.4396 0.2822
H10 H 0.1960 0.3681 0.2591
O5C O -0.1183(4) 0.2596(5) -0.2485(5)
P1C P -0.1464(1) 0.1758(2) 0.3682(2)
O8C O 0.0437(4) 0.2750(5) 0.4611(5)
P2C P 0.0982(1) 0.2977(2) -0.1214(2)
V1C V -0.0368(3) 0.2914(3) -0.3912(4)
O3C O -0.1400(3) 0.2438(5) 0.4921(5)
O4C O -0.0953(4) 0.0686(5) 0.3824(5)
C1C C -0.2661(6) 0.1489(8) 0.3363(9)
V1C_2 V -0.0368(3) 0.2914(3) 0.6088(4)
O6C O 0.0700(4) 0.2898(5) -0.2648(5)
O7C O 0.0985(3) 0.4147(5) -0.0758(5)
C7C C 0.2136(5) 0.2494(7) -0.1081(8)
O1C O -0.0148(4) 0.1103(5) -0.3748(5)
O2C O -0.0507(7) 0.4209(9) -0.4009(10)
O3C_2 O -0.1400(3) 0.2438(5) -0.5079(5)
O8C_2 O 0.0437(4) 0.2750(5) -0.5389(5)
C2C C -0.3085(7) 0.1743(9) 0.2123(10)
C6C C -0.3177(7) 0.1104(9) 0.4310(10)
C8C C 0.2785(6) 0.2986(9) -0.0201(9)
C12C C 0.2399(6) 0.1642(9) -0.1796(10)
C3C C -0.4023(8) 0.1605(12) 0.1925(15)
H1C H -0.2733 0.2005 0.1434
C5C C -0.4121(8) 0.0977(13) 0.4104(15)
H5C H -0.2886 0.0916 0.5142
C9C C 0.3661(7) 0.2576(10) -0.0068(11)
H6C H 0.2621 0.3599 0.0303
C11C C 0.3274(7) 0.1218(9) -0.1680(11)
H10C H 0.1960 0.1319 -0.2409
C4C C -0.4522(8) 0.1237(12) 0.2889(16)
H2C H -0.4320 0.1772 0.1090
H4C H -0.4480 0.0716 0.4786
C10C C 0.3905(7) 0.1737(11) -0.0789(12)
H7C H 0.4100 0.2896 0.0548
H9C H 0.3443 0.0604 -0.2178
H3C H -0.5168 0.1155 0.2730
H8C H 0.4522 0.1482 -0.0701
V2? V 0.0303(3) 0.7414(3) -0.1174(4)
V3? V 0.0013(5) 0.5138(6) -0.0193(5)
loop_
_geom_bond_atom_site_label_1
_geom_bond_atom_site_label_2
_geom_bond_site_symmetry_1
_geom_bond_site_symmetry_2
V1 O1 1_555 1_555
P1 O3 1_555 1_555
P2 O6 1_555 1_555
O2 V1 1_555 1_555
O3 V1 1_555 1_555
O4 P1 1_555 1_555
O5 V1 1_555 1_555
O6 V1 1_555 1_555
O7 P2 1_555 1_555
O8 V1 1_555 1_555
C1 P1 1_555 1_555
C2 C1 1_555 1_555
C3 C2 1_555 1_555
C4 C3 1_555 1_555
C5 C4 1_555 1_555
C6 C1 1_555 1_555
C7 P2 1_555 1_555
C8 C7 1_555 1_555
C9 C8 1_555 1_555
C10 C9 1_555 1_555
C11 C10 1_555 1_555
C12 C7 1_555 1_555
N1 C13 1_555 1_555
C13 C14 1_555 1_555
C14 H16 1_555 1_555
H1 C2 1_555 1_555
H2 C3 1_555 1_555
H3 C4 1_555 1_555
H4 C5 1_555 1_555
H5 C6 1_555 1_555
H6 C8 1_555 1_555
H7 C9 1_555 1_555
H8 C10 1_555 1_555
H9 C11 1_555 1_555
H10 C12 1_555 1_555
H11 N1 1_555 1_555
H12 N1 1_555 1_555
H13 N1 1_555 1_555
H14 C13 1_555 1_555
H15 C13 1_555 1_555
H17 C14 1_555 1_555
H18 C14 1_555 1_555
O5C P1 1_555 1_555
P1C O5 1_555 1_555
O8C P2 1_555 1_555
P2C O8 1_555 1_555
V1C O5C 1_555 1_555
O3C P1C 1_555 1_555
O4C P1C 1_555 1_555
C1C P1C 1_555 1_555
V1C_2 O8C 1_555 1_555
O6C P2C 1_555 1_555
O7C P2C 1_555 1_555
C7C P2C 1_555 1_555
O1C V1C 1_555 1_555
O2C V1C 1_555 1_555
O3C_2 V1C 1_555 1_555
O8C_2 V1C 1_555 1_555
C2C C1C 1_555 1_555
C6C C1C 1_555 1_555
C8C C7C 1_555 1_555
C12C C7C 1_555 1_555
C3C C2C 1_555 1_555
H1C C2C 1_555 1_555
C5C C6C 1_555 1_555
H5C C6C 1_555 1_555
C9C C8C 1_555 1_555
H6C C8C 1_555 1_555
C11C C12C 1_555 1_555
H10C C12C 1_555 1_555
C4C C3C 1_555 1_555
H2C C3C 1_555 1_555
H4C C5C 1_555 1_555
C10C C9C 1_555 1_555
H7C C9C 1_555 1_555
H9C C11C 1_555 1_555
H3C C4C 1_555 1_555
H8C C10C 1_555 1_555
C5 C6 1_555 1_555
C11 C12 1_555 1_555
V1C O6C 1_555 1_555
O3C V1C_2 1_555 1_555
C5C C4C 1_555 1_555
C11C C10C 1_555 1_555

#END
