
#######################################################################
#
#                 Cambridge Crystallographic Data Centre
#                                CCDC 
#
#######################################################################
#
# If this CIF has been generated from an entry in the Cambridge 
# Structural Database, then it will include bibliographic, chemical, 
# crystal, experimental, refinement or atomic coordinate data resulting 
# from the CCDC's data processing and validation procedures.
#
#######################################################################

data_HEWFAR
_symmetry_cell_setting           triclinic
_symmetry_space_group_name_H-M   'P -1'
_symmetry_Int_Tables_number      2
_space_group_name_Hall           '-P 1'
loop_
_symmetry_equiv_pos_site_id
_symmetry_equiv_pos_as_xyz
1 x,y,z
2 -x,-y,-z
_cell_length_a                   6.49590(10)
_cell_length_b                   9.6737(2)
_cell_length_c                   10.4356(2)
_cell_angle_alpha                79.5780(10)
_cell_angle_beta                 89.7050(10)
_cell_angle_gamma                70.8820(10)
_cell_volume                     608.343
loop_
_atom_site_label
_atom_site_type_symbol
_atom_site_fract_x
_atom_site_fract_y
_atom_site_fract_z
Ho1 Ho 0.37706(2) 0.624385(15) 0.821901(13)
O1 O 0.7563(5) 0.5148(3) 0.8043(3)
H1 H 0.7939 0.579 0.7678
H2 H 0.8068 0.4602 0.8746
O2 O 0.4190(5) 0.7803(4) 0.6347(3)
H3 H 0.5007 0.8434 0.6278
H4 H 0.3832 0.7739 0.5576
O3 O 0.5372(5) 0.6127(3) 1.0458(3)
O4 O 0.5333(5) 0.7976(3) 0.8878(3)
O5 O 1.0803(5) 0.6472(3) 0.9636(3)
O6 O 1.0732(6) 0.8534(4) 0.8331(3)
C1 C 0.5896(7) 0.7290(5) 1.0030(4)
C2 C 0.7134(7) 0.7849(5) 1.0905(4)
H5 H 0.8164 0.6915 1.141
H6 H 0.6148 0.8471 1.1418
C3 C 0.8395(7) 0.8759(5) 1.0129(4)
H7 H 0.9154 0.9039 1.0796
H8 H 0.7533 0.9565 0.9461
C4 C 1.0041(6) 0.7886(4) 0.9310(4)
O7 O 0.0745(5) 0.6191(4) 0.6827(3)
O8 O 0.4033(5) 0.4739(4) 0.6596(3)
C5 C 0.2031(8) 0.5225(5) 0.6255(4)
C6 C 0.1207(7) 0.4646(5) 0.5191(4)
H9 H 0.1559 0.3619 0.5446
H10 H 0.232 0.4824 0.4376
Ho1A Ho 0.62294(2) 0.375615(15) 1.178099(13)
Ho1_2 Ho 1.37706(2) 0.624385(15) 0.821901(13)
Ho1A_2 Ho -0.37706(2) 0.375615(15) 0.178099(13)
Ho1A_3 Ho -0.37706(2) 0.375615(15) 1.178099(13)
O1A O 0.2437(5) 0.4852(3) 1.1957(3)
H1A H 0.2061 0.421 1.2322
H2A H 0.1932 0.5398 1.1254
O2A O 0.5810(5) 0.2197(4) 1.3653(3)
H3A H 0.4993 0.1566 1.3722
H4A H 0.6168 0.2261 1.4424
O3A O 0.4628(5) 0.3873(3) 0.9542(3)
O4A O 0.4667(5) 0.2024(3) 1.1122(3)
O5A O -0.0803(5) 0.3528(3) 1.0364(3)
O5_2 O 0.0803(5) 0.6472(3) 0.9636(3)
O5A_2 O 0.9197(5) 0.3528(3) 1.0364(3)
O6A O -0.0732(6) 0.1466(4) 1.1669(3)
O6_2 O 0.0732(6) 0.8534(4) 0.8331(3)
O6A_2 O 0.9268(6) 0.1466(4) 1.1669(3)
C1A C 0.4104(7) 0.2710(5) 0.9970(4)
C2A C 0.2866(7) 0.2151(5) 0.9095(4)
H5A H 0.1836 0.3085 0.859
H6A H 0.3852 0.1529 0.8582
C3A C 0.1605(7) 0.1241(5) 0.9871(4)
H7A H 0.0846 0.0961 0.9204
H8A H 0.2467 0.0435 1.0539
C4A C -0.0041(6) 0.2114(4) 1.0690(4)
O7A O -0.0745(5) 0.3809(4) 0.3173(3)
O7A_2 O 0.9255(5) 0.3809(4) 1.3173(3)
O8A O -0.4033(5) 0.5261(4) 0.3404(3)
O8A_2 O 0.5967(5) 0.5261(4) 1.3404(3)
C5A C -0.2031(8) 0.4775(5) 0.3745(4)
C6A C -0.1207(7) 0.5354(5) 0.4809(4)
H9A H -0.1559 0.6381 0.4554
H10A H -0.232 0.5176 0.5624
O9 O 0.7312(6) 0.9121(4) 0.6035(3)
H11 H 0.698 0.9453 0.5225
H12 H 0.6864 0.9854 0.6427
O10 O 0.8760(7) 0.8913(4) 0.3462(4)
H13 H 0.8664 0.9746 0.2985
H14 H 0.8406 0.8393 0.2983
O11 O 0.3143(6) 0.7912(4) 0.3853(3)
H15 H 0.368 0.7057 0.3651
H16 H 0.2092 0.7892 0.4337
loop_
_geom_bond_atom_site_label_1
_geom_bond_atom_site_label_2
_geom_bond_site_symmetry_1
_geom_bond_site_symmetry_2
Ho1 O1 1_555 1_555
O1 H1 1_555 1_555
H2 O1 1_555 1_555
O2 Ho1 1_555 1_555
H3 O2 1_555 1_555
H4 O2 1_555 1_555
O3 Ho1 1_555 1_555
O4 Ho1 1_555 1_555
O5 C4 1_555 1_555
O6 C4 1_555 1_555
C1 O3 1_555 1_555
C2 C1 1_555 1_555
H5 C2 1_555 1_555
H6 C2 1_555 1_555
C3 C2 1_555 1_555
H7 C3 1_555 1_555
H8 C3 1_555 1_555
C4 C3 1_555 1_555
O7 Ho1 1_555 1_555
O8 Ho1 1_555 1_555
C5 O7 1_555 1_555
C6 C5 1_555 1_555
H9 C6 1_555 1_555
H10 C6 1_555 1_555
O9 H11 1_555 1_555
H12 O9 1_555 1_555
O10 H13 1_555 1_555
H14 O10 1_555 1_555
O11 H15 1_555 1_555
H16 O11 1_555 1_555
Ho1A O3 1_555 1_555
Ho1_2 O5 1_555 1_555
Ho1A_2 O7A 1_555 1_555
Ho1A_3 O5A 1_555 1_555
O1A Ho1A 1_555 1_555
H1A O1A 1_555 1_555
H2A O1A 1_555 1_555
O2A Ho1A 1_555 1_555
H3A O2A 1_555 1_555
H4A O2A 1_555 1_555
O3A Ho1 1_555 1_555
O4A Ho1A 1_555 1_555
O5A C4A 1_555 1_555
O5_2 Ho1 1_555 1_555
O5A_2 Ho1A 1_555 1_555
O6A Ho1A_3 1_555 1_555
O6_2 Ho1 1_555 1_555
O6A_2 Ho1A 1_555 1_555
C1A O3A 1_555 1_555
C2A C1A 1_555 1_555
H5A C2A 1_555 1_555
H6A C2A 1_555 1_555
C3A C2A 1_555 1_555
H7A C3A 1_555 1_555
H8A C3A 1_555 1_555
C4A O6A 1_555 1_555
O7A C5A 1_555 1_555
O7A_2 Ho1A 1_555 1_555
O8A Ho1A_2 1_555 1_555
O8A_2 Ho1A 1_555 1_555
C5A O8A 1_555 1_555
C6A C6 1_555 1_555
H9A C6A 1_555 1_555
H10A C6A 1_555 1_555
O4 C1 1_555 1_555
O6 Ho1_2 1_555 1_555
O8 C5 1_555 1_555
Ho1A O3A 1_555 1_555
O4A C1A 1_555 1_555
C3A C4A 1_555 1_555
C5A C6A 1_555 1_555

#END
