
#######################################################################
#
#                 Cambridge Crystallographic Data Centre
#                                CCDC 
#
#######################################################################
#
# If this CIF has been generated from an entry in the Cambridge 
# Structural Database, then it will include bibliographic, chemical, 
# crystal, experimental, refinement or atomic coordinate data resulting 
# from the CCDC's data processing and validation procedures.
#
#######################################################################

data_HEWFUL
_symmetry_cell_setting           rhombohedral
_symmetry_space_group_name_H-M   'R -3'
_symmetry_Int_Tables_number      148
_space_group_name_Hall           '-R 3'
loop_
_symmetry_equiv_pos_site_id
_symmetry_equiv_pos_as_xyz
1 x,y,z
2 -y,x-y,z
3 -x+y,-x,z
4 2/3+x,1/3+y,1/3+z
5 2/3-y,1/3+x-y,1/3+z
6 2/3-x+y,1/3-x,1/3+z
7 1/3+x,2/3+y,2/3+z
8 1/3-y,2/3+x-y,2/3+z
9 1/3-x+y,2/3-x,2/3+z
10 -x,-y,-z
11 y,-x+y,-z
12 x-y,x,-z
13 1/3-x,2/3-y,2/3-z
14 1/3+y,2/3-x+y,2/3-z
15 1/3+x-y,2/3+x,2/3-z
16 2/3-x,1/3-y,1/3-z
17 2/3+y,1/3-x+y,1/3-z
18 2/3+x-y,1/3+x,1/3-z
_cell_length_a                   28.477(2)
_cell_length_b                   28.477(2)
_cell_length_c                   8.681(2)
_cell_angle_alpha                90
_cell_angle_beta                 90
_cell_angle_gamma                120.0
_cell_volume                     6096.62
loop_
_atom_site_label
_atom_site_type_symbol
_atom_site_fract_x
_atom_site_fract_y
_atom_site_fract_z
C1 C 0.6367(3) 0.1704(3) 0.5060(9)
H1 H 0.6667 0.1936 0.5728
H2 H 0.6235 0.1924 0.4582
C2 C 0.5767(3) 0.1503(4) 0.7284(11)
H3 H 0.5794 0.1842 0.6967
H4 H 0.601 0.1577 0.8149
C3 C 0.5188(4) 0.1106(4) 0.7774(10)
C4 C 0.6043(3) 0.1103(3) 0.2247(10)
H5 H 0.5952 0.137 0.189
H6 H 0.6155 0.0975 0.136
C5 C 0.5100(3) 0.0380(3) 0.1854(9)
H7 H 0.516 0.0148 0.1159
H8 H 0.5081 0.0655 0.1243
C6 C 0.4568(3) 0.0045(3) 0.2703(11)
N1 N 0.5931(2) 0.1272(2) 0.5979(7)
H9 H 0.6066 0.1071 0.6397
N2 N 0.5558(2) 0.0643(2) 0.2938(7)
H10 H 0.5653 0.039 0.3171
O1 O 0.6661(2) 0.0977(2) 0.4337(7)
O2 O 0.7072(2) 0.1874(2) 0.2788(7)
O4 O 0.4903(2) 0.0714(3) 0.6854(7)
O5 O 0.5024(3) 0.1187(3) 0.8991(8)
O6 O 0.4572(2) 0.0127(2) 0.4147(7)
O7 O 0.4161(2) -0.0274(3) 0.1949(8)
P1 P 0.65992(7) 0.14184(8) 0.3583(2)
Cu1 Cu 0.52420(3) 0.07583(4) 0.48796(11)
O2M O 0.5207(2) 0.1469(3) 0.3879(7)
Cu1N Cu 0.78170(5) 0.19087(3) 0.17871(11)
O3 O 0.6688(3) -0.0377(3) 0.6535(9)
H11 H 0.6387(19) -0.061(3) 0.693(9)
H12 H 0.696(2) -0.040(3) 0.682(10)
K1 K 0.68844(9) 0.06502(8) 0.6951(3)
loop_
_geom_bond_atom_site_label_1
_geom_bond_atom_site_label_2
_geom_bond_site_symmetry_1
_geom_bond_site_symmetry_2
C1 H1 1_555 1_555
H2 C1 1_555 1_555
C2 H3 1_555 1_555
H4 C2 1_555 1_555
C3 C2 1_555 1_555
C4 H5 1_555 1_555
H6 C4 1_555 1_555
C5 H7 1_555 1_555
H8 C5 1_555 1_555
C6 C5 1_555 1_555
N1 C1 1_555 1_555
H9 N1 1_555 1_555
N2 C4 1_555 1_555
H10 N2 1_555 1_555
O1 P1 1_555 1_555
O2 P1 1_555 1_555
O3 H11 1_555 1_555
O4 C3 1_555 1_555
O5 C3 1_555 1_555
O6 C6 1_555 1_555
O7 C6 1_555 1_555
P1 C1 1_555 1_555
Cu1 N1 1_555 1_555
H12 O3 1_555 1_555
O2M Cu1 1_555 1_555
Cu1N O2 1_555 1_555
C2 N1 1_555 1_555
C4 P1 1_555 1_555
C5 N2 1_555 1_555
N2 Cu1 1_555 1_555
O4 Cu1 1_555 1_555
O6 Cu1 1_555 1_555

#END
