
#######################################################################
#
#                 Cambridge Crystallographic Data Centre
#                                CCDC 
#
#######################################################################
#
# If this CIF has been generated from an entry in the Cambridge 
# Structural Database, then it will include bibliographic, chemical, 
# crystal, experimental, refinement or atomic coordinate data resulting 
# from the CCDC's data processing and validation procedures.
#
#######################################################################

data_HEWGUM
_symmetry_cell_setting           triclinic
_symmetry_space_group_name_H-M   'P -1'
_symmetry_Int_Tables_number      2
_space_group_name_Hall           '-P 1'
loop_
_symmetry_equiv_pos_site_id
_symmetry_equiv_pos_as_xyz
1 x,y,z
2 -x,-y,-z
_cell_length_a                   8.4183(4)
_cell_length_b                   11.3125(5)
_cell_length_c                   16.9550(8)
_cell_angle_alpha                78.2650(10)
_cell_angle_beta                 89.8490(10)
_cell_angle_gamma                88.0650(10)
_cell_volume                     1579.99
loop_
_atom_site_label
_atom_site_type_symbol
_atom_site_fract_x
_atom_site_fract_y
_atom_site_fract_z
Ag1 Ag 0.70457(3) 0.75260(3) 0.743321(19)
O1 O 1.1988(4) 0.5861(3) 0.9493(2)
O2 O 1.2085(4) 0.9080(3) 0.5511(2)
O3 O 0.1666(3) 0.9001(3) 0.88759(18)
O4 O 0.1769(3) 0.5890(3) 0.61115(17)
N1 N 0.9173(4) 0.6087(3) 0.7885(2)
N2 N 0.9018(4) 0.8938(3) 0.6994(2)
N3 N 0.5639(4) 0.8064(3) 0.8452(2)
N4 N 0.5638(4) 0.6916(3) 0.6455(2)
C1 C 0.9390(5) 0.5018(4) 0.7676(3)
H1 H 0.8750 0.4839 0.7257
C2 C 1.0500(6) 0.4167(4) 0.8041(3)
H2 H 1.0632 0.3423 0.7868
C3 C 1.1421(5) 0.4392(4) 0.8657(3)
H3 H 1.2175 0.3804 0.8926
C4 C 1.1220(5) 0.5500(4) 0.8877(3)
C5 C 1.0098(5) 0.6327(4) 0.8469(3)
H4 H 0.9982 0.7096 0.8610
C6 C 1.3500(5) 0.5386(4) 0.9733(3)
C7 C 1.3824(5) 0.5189(4) 1.0544(3)
H5 H 1.3022 0.5321 1.0914
C8 C 1.4662(5) 0.5206(4) 0.9187(3)
H6 H 1.4420 0.5354 0.8628
C9 C 0.9059(5) 1.0032(4) 0.7182(3)
H7 H 0.8316 1.0235 0.7560
C10 C 1.0141(5) 1.0868(4) 0.6845(3)
H8 H 1.0145 1.1631 0.6998
C11 C 1.1227(5) 1.0605(4) 0.6284(3)
H9 H 1.1975 1.1177 0.6041
C12 C 1.1178(4) 0.9475(4) 0.6092(3)
C13 C 1.0077(5) 0.8667(4) 0.6465(3)
H10 H 1.0074 0.7886 0.6339
C14 C 1.3550(4) 0.9582(4) 0.5275(3)
C15 C 1.4622(5) 0.9886(4) 0.5816(3)
H11 H 1.4361 0.9808 0.6369
C16 C 1.3916(5) 0.9692(4) 0.4473(3)
H12 H 1.3163 0.9477 0.4115
C17 C 0.6384(5) 0.8064(4) 0.9151(3)
H13 H 0.7484 0.7842 0.9195
C18 C 0.5630(5) 0.8370(4) 0.9809(3)
H14 H 0.6196 0.8358 1.0295
C19 C 0.4031(5) 0.8694(4) 0.9744(3)
H15 H 0.3475 0.8907 1.0185
C20 C 0.3260(4) 0.8703(4) 0.9030(2)
C21 C 0.4096(4) 0.8385(4) 0.8397(2)
H16 H 0.3553 0.8396 0.7905
C22 C 0.0848(4) 0.9493(4) 0.9460(3)
C23 C 0.0212(5) 0.8758(4) 1.0122(3)
H17 H 0.0356 0.7906 1.0199
C24 C 0.0630(5) 1.0739(4) 0.9327(3)
H18 H 0.1059 1.1238 0.8862
C25 C 0.6316(5) 0.6992(4) 0.5727(3)
H19 H 0.7374 0.7259 0.5655
C26 C 0.5543(5) 0.6699(4) 0.5084(3)
H20 H 0.6062 0.6765 0.4579
C27 C 0.4000(4) 0.6305(4) 0.5177(2)
H21 H 0.3443 0.6091 0.4743
C28 C 0.3295(4) 0.6234(4) 0.5924(2)
C29 C 0.4149(4) 0.6547(4) 0.6545(2)
H22 H 0.3654 0.6496 0.7054
C30 C 0.0906(4) 0.5446(4) 0.5535(2)
C31 C 0.0245(5) 0.6244(4) 0.4875(2)
H23 H 0.0416 0.7086 0.4795
C32 C 0.0681(4) 0.4222(4) 0.5669(2)
H24 H 0.1148 0.3698 0.6125
Ag1A Ag 2.29543(3) 0.24740(3) 1.256679(19)
Ag1A_2 Ag 2.29543(3) 1.24740(3) 0.256679(19)
Ag1A_3 Ag -0.70457(3) 1.24740(3) 1.256679(19)
Ag1A_4 Ag -0.70457(3) 0.24740(3) 0.256679(19)
O1A O 1.8012(4) 0.4139(3) 1.0507(2)
O2A O 1.7915(4) 1.0920(3) 0.4489(2)
O3A O -0.1666(3) 1.0999(3) 1.11241(18)
O4A O -0.1769(3) 0.4110(3) 0.38885(17)
N1A N 2.0827(4) 0.3913(3) 1.2115(2)
N2A N 2.0982(4) 0.1062(3) 1.3006(2)
N2A_2 N 2.0982(4) 1.1062(3) 0.3006(2)
N3A N 2.4361(4) 0.1936(3) 1.1548(2)
N3A_2 N -0.5639(4) 1.1936(3) 1.1548(2)
N4A N 2.4362(4) 0.3084(3) 1.3545(2)
N4A_2 N -0.5638(4) 0.3084(3) 0.3545(2)
C1A C 2.0610(5) 0.4982(4) 1.2324(3)
H1A H 2.1250 0.5161 1.2743
C2A C 1.9500(6) 0.5833(4) 1.1959(3)
H2A H 1.9368 0.6577 1.2132
C3A C 1.8579(5) 0.5608(4) 1.1343(3)
H3A H 1.7825 0.6196 1.1074
C4A C 1.8780(5) 0.4500(4) 1.1123(3)
C5A C 1.9902(5) 0.3673(4) 1.1531(3)
H4A H 2.0018 0.2904 1.1390
C6A C 1.6500(5) 0.4614(4) 1.0267(3)
C7A C 1.6176(5) 0.4811(4) 0.9456(3)
H5A H 1.6978 0.4679 0.9086
C8A C 1.5338(5) 0.4794(4) 1.0813(3)
H6A H 1.5580 0.4646 1.1372
C9A C 2.0941(5) 0.9968(4) 0.2818(3)
H7A H 2.1684 0.9765 0.2440
C10A C 1.9859(5) 0.9132(4) 0.3155(3)
H8A H 1.9855 0.8369 0.3002
C11A C 1.8773(5) 0.9395(4) 0.3716(3)
H9A H 1.8025 0.8823 0.3959
C12A C 1.8822(4) 1.0525(4) 0.3908(3)
C13A C 1.9923(5) 1.1333(4) 0.3535(3)
H10A H 1.9926 1.2114 0.3661
C14A C 1.6450(4) 1.0418(4) 0.4725(3)
C15A C 1.5378(5) 1.0114(4) 0.4184(3)
H11A H 1.5639 1.0192 0.3631
C16A C 1.6084(5) 1.0308(4) 0.5527(3)
H12A H 1.6837 1.0523 0.5885
C17A C -0.6384(5) 1.1936(4) 1.0849(3)
H13A H -0.7484 1.2158 1.0805
C18A C -0.5630(5) 1.1630(4) 1.0191(3)
H14A H -0.6196 1.1642 0.9705
C19A C -0.4031(5) 1.1306(4) 1.0256(3)
H15A H -0.3475 1.1093 0.9815
C20A C -0.3260(4) 1.1297(4) 1.0970(2)
C21A C -0.4096(4) 1.1615(4) 1.1603(2)
H16A H -0.3553 1.1604 1.2095
C22A C -0.0848(4) 1.0507(4) 1.0540(3)
C23A C -0.0212(5) 1.1242(4) 0.9878(3)
H17A H -0.0356 1.2094 0.9801
C24A C -0.0630(5) 0.9261(4) 1.0673(3)
H18A H -0.1059 0.8762 1.1138
C25A C -0.6316(5) 0.3008(4) 0.4273(3)
H19A H -0.7374 0.2741 0.4345
C26A C -0.5543(5) 0.3301(4) 0.4916(3)
H20A H -0.6062 0.3235 0.5421
C27A C -0.4000(4) 0.3695(4) 0.4823(2)
H21A H -0.3443 0.3909 0.5257
C28A C -0.3295(4) 0.3766(4) 0.4076(2)
C29A C -0.4149(4) 0.3453(4) 0.3455(2)
H22A H -0.3654 0.3504 0.2946
C30A C -0.0906(4) 0.4554(4) 0.4465(2)
C31A C -0.0245(5) 0.3756(4) 0.5125(2)
H23A H -0.0416 0.2914 0.5205
C32A C -0.0681(4) 0.5778(4) 0.4331(2)
H24A H -0.1148 0.6302 0.3875
S1 S 0.43152(12) 1.20174(10) 0.75250(6)
F1 F 0.5605(4) 1.4067(3) 0.7600(2)
F2 F 0.7008(4) 1.2494(4) 0.8137(2)
F3 F 0.6886(4) 1.3011(3) 0.6864(2)
O5 O 0.3567(4) 1.2062(3) 0.82842(19)
O6 O 0.3410(4) 1.2654(3) 0.68406(19)
O7 O 0.5051(5) 1.0878(3) 0.7446(2)
C33 C 0.6032(6) 1.2955(5) 0.7530(3)
loop_
_geom_bond_atom_site_label_1
_geom_bond_atom_site_label_2
_geom_bond_site_symmetry_1
_geom_bond_site_symmetry_2
Ag1 N1 1_555 1_555
S1 O5 1_555 1_555
F1 C33 1_555 1_555
F2 C33 1_555 1_555
F3 C33 1_555 1_555
O1 C4 1_555 1_555
O2 C12 1_555 1_555
O3 C20 1_555 1_555
O4 C28 1_555 1_555
O6 S1 1_555 1_555
O7 S1 1_555 1_555
N1 C1 1_555 1_555
N2 Ag1 1_555 1_555
N3 Ag1 1_555 1_555
N4 Ag1 1_555 1_555
C1 H1 1_555 1_555
C2 C1 1_555 1_555
H2 C2 1_555 1_555
C3 C2 1_555 1_555
H3 C3 1_555 1_555
C4 C3 1_555 1_555
C5 N1 1_555 1_555
H4 C5 1_555 1_555
C6 O1 1_555 1_555
C7 C6 1_555 1_555
H5 C7 1_555 1_555
C8 C6 1_555 1_555
H6 C8 1_555 1_555
C9 N2 1_555 1_555
H7 C9 1_555 1_555
C10 C9 1_555 1_555
H8 C10 1_555 1_555
C11 C10 1_555 1_555
H9 C11 1_555 1_555
C12 C11 1_555 1_555
C13 N2 1_555 1_555
H10 C13 1_555 1_555
C14 O2 1_555 1_555
C15 C14 1_555 1_555
H11 C15 1_555 1_555
C16 C14 1_555 1_555
H12 C16 1_555 1_555
C17 N3 1_555 1_555
H13 C17 1_555 1_555
C18 C17 1_555 1_555
H14 C18 1_555 1_555
C19 C18 1_555 1_555
H15 C19 1_555 1_555
C20 C19 1_555 1_555
C21 N3 1_555 1_555
H16 C21 1_555 1_555
C22 O3 1_555 1_555
C23 C22 1_555 1_555
H17 C23 1_555 1_555
C24 C22 1_555 1_555
H18 C24 1_555 1_555
C25 N4 1_555 1_555
H19 C25 1_555 1_555
C26 C25 1_555 1_555
H20 C26 1_555 1_555
C27 C26 1_555 1_555
H21 C27 1_555 1_555
C28 C27 1_555 1_555
C29 N4 1_555 1_555
H22 C29 1_555 1_555
C30 O4 1_555 1_555
C31 C30 1_555 1_555
H23 C31 1_555 1_555
C32 C30 1_555 1_555
H24 C32 1_555 1_555
C33 S1 1_555 1_555
Ag1A N1A 1_555 1_555
Ag1A_2 N2A_2 1_555 1_555
Ag1A_3 N3A_2 1_555 1_555
Ag1A_4 N4A_2 1_555 1_555
O1A C4A 1_555 1_555
O2A C12A 1_555 1_555
O3A C20A 1_555 1_555
O4A C28A 1_555 1_555
N1A C1A 1_555 1_555
N2A Ag1A 1_555 1_555
N2A_2 C9A 1_555 1_555
N3A Ag1A 1_555 1_555
N3A_2 C17A 1_555 1_555
N4A Ag1A 1_555 1_555
N4A_2 C25A 1_555 1_555
C1A H1A 1_555 1_555
C2A C1A 1_555 1_555
H2A C2A 1_555 1_555
C3A C2A 1_555 1_555
H3A C3A 1_555 1_555
C4A C3A 1_555 1_555
C5A N1A 1_555 1_555
H4A C5A 1_555 1_555
C6A O1A 1_555 1_555
C7A C8 1_555 1_555
H5A C7A 1_555 1_555
C8A C7 1_555 1_555
H6A C8A 1_555 1_555
C9A H7A 1_555 1_555
C10A C9A 1_555 1_555
H8A C10A 1_555 1_555
C11A C10A 1_555 1_555
H9A C11A 1_555 1_555
C12A C11A 1_555 1_555
C13A N2A_2 1_555 1_555
H10A C13A 1_555 1_555
C14A O2A 1_555 1_555
C15A C16 1_555 1_555
H11A C15A 1_555 1_555
C16A C15 1_555 1_555
H12A C16A 1_555 1_555
C17A H13A 1_555 1_555
C18A C17A 1_555 1_555
H14A C18A 1_555 1_555
C19A C18A 1_555 1_555
H15A C19A 1_555 1_555
C20A C19A 1_555 1_555
C21A N3A_2 1_555 1_555
H16A C21A 1_555 1_555
C22A O3A 1_555 1_555
C23A C24 1_555 1_555
H17A C23A 1_555 1_555
C24A C23 1_555 1_555
H18A C24A 1_555 1_555
C25A H19A 1_555 1_555
C26A C25A 1_555 1_555
H20A C26A 1_555 1_555
C27A C26A 1_555 1_555
H21A C27A 1_555 1_555
C28A C27A 1_555 1_555
C29A N4A_2 1_555 1_555
H22A C29A 1_555 1_555
C30A O4A 1_555 1_555
C31A C32 1_555 1_555
H23A C31A 1_555 1_555
C32A C31 1_555 1_555
H24A C32A 1_555 1_555
C4 C5 1_555 1_555
C12 C13 1_555 1_555
C20 C21 1_555 1_555
C28 C29 1_555 1_555
C4A C5A 1_555 1_555
C6A C7A 1_555 1_555
C6A C8A 1_555 1_555
C12A C13A 1_555 1_555
C14A C15A 1_555 1_555
C14A C16A 1_555 1_555
C20A C21A 1_555 1_555
C22A C23A 1_555 1_555
C22A C24A 1_555 1_555
C28A C29A 1_555 1_555
C30A C31A 1_555 1_555
C30A C32A 1_555 1_555

#END
