
#######################################################################
#
#                 Cambridge Crystallographic Data Centre
#                                CCDC 
#
#######################################################################
#
# If this CIF has been generated from an entry in the Cambridge 
# Structural Database, then it will include bibliographic, chemical, 
# crystal, experimental, refinement or atomic coordinate data resulting 
# from the CCDC's data processing and validation procedures.
#
#######################################################################

data_HEWNOM
_symmetry_cell_setting           orthorhombic
_symmetry_space_group_name_H-M   'P n a 21'
_symmetry_Int_Tables_number      33
_space_group_name_Hall           'P 2c -2n'
loop_
_symmetry_equiv_pos_site_id
_symmetry_equiv_pos_as_xyz
1 x,y,z
2 -x,-y,1/2+z
3 1/2-x,1/2+y,1/2+z
4 1/2+x,1/2-y,z
_cell_length_a                   10.327(3)
_cell_length_b                   18.094(6)
_cell_length_c                   18.451(5)
_cell_angle_alpha                90
_cell_angle_beta                 90
_cell_angle_gamma                90
_cell_volume                     3447.69
loop_
_atom_site_label
_atom_site_type_symbol
_atom_site_fract_x
_atom_site_fract_y
_atom_site_fract_z
Pt1 Pt 0.0544(1) 0.1409(1) 0.0000
Ag1 Ag 0.2679(2) 0.2398(1) -0.0159(1)
Cl1 Cl 0.3704(4) 0.3299(3) 0.0657(3)
Cl2 Cl 0.2299(5) 0.1129(3) -0.0729(3)
Cl3 Cl 0.0626(5) 0.3058(3) -0.0950(3)
Cl4 Cl -0.0703(6) 0.3297(3) -0.2428(3)
Cl5 Cl -0.2376(7) 0.2060(4) -0.3121(3)
Cl6 Cl -0.2858(6) 0.0592(3) -0.2281(3)
Cl7 Cl -0.1512(6) 0.0323(3) -0.0805(3)
P1 P 0.1549(5) 0.1031(3) 0.1061(3)
C1 C -0.0414(17) 0.1687(12) -0.0955(10)
C2 C -0.0311(18) 0.2337(10) -0.1321(10)
C3 C -0.0907(19) 0.2481(12) -0.2001(12)
C4 C -0.1650(21) 0.1937(11) -0.2287(10)
C5 C -0.1839(18) 0.1252(11) -0.1923(10)
C6 C -0.1245(20) 0.1150(10) -0.1253(11)
C7 C 0.1902(17) 0.1772(10) 0.1693(10)
C8 C 0.1270(25) 0.2419(11) 0.1678(12)
C9 C 0.1585(24) 0.2986(12) 0.2154(17)
C10 C 0.2489(26) 0.2869(16) 0.2688(16)
C11 C 0.3068(29) 0.2216(17) 0.2752(15)
C12 C 0.2798(28) 0.1656(13) 0.2257(17)
C13 C 0.0477(21) 0.0382(10) 0.1532(12)
C14 C -0.0033(22) -0.0181(12) 0.1131(15)
C15 C -0.0834(22) -0.0719(13) 0.1490(15)
C16 C -0.1078(26) -0.0571(18) 0.2254(18)
C17 C -0.0603(29) 0.0009(16) 0.2631(14)
C18 C 0.0160(20) 0.0494(10) 0.2261(12)
C19 C 0.3123(18) 0.0556(10) 0.0960(12)
C20 C 0.4182(16) 0.0993(11) 0.0828(14)
C21 C 0.5414(22) 0.0689(12) 0.0757(12)
C22 C 0.5519(24) -0.0042(15) 0.0776(13)
C23 C 0.4476(27) -0.0501(15) 0.0923(14)
C24 C 0.3281(24) -0.0203(11) 0.0972(13)
H1 H 0.0599 0.2496 0.1326
H2 H 0.1174 0.3460 0.2108
H3 H 0.2690 0.3265 0.3015
H4 H 0.3665 0.2133 0.3142
H5 H 0.3223 0.1186 0.2299
H6 H 0.0160 -0.0232 0.0625
H7 H -0.1199 -0.1140 0.1249
H8 H -0.1647 -0.0911 0.2494
H9 H -0.0825 0.0068 0.3133
H10 H 0.0505 0.0915 0.2511
H11 H 0.4074 0.1518 0.0783
H12 H 0.6162 0.0995 0.0683
H13 H 0.6357 -0.0259 0.0702
H14 H 0.4607 -0.1023 0.0984
H15 H 0.2538 -0.0516 0.1034
Cl1C Cl -0.1296(4) 0.1701(3) 0.0657(3)
Pt1C Pt 0.5544(1) 0.3591(1) 0.0000
C25 C -0.5391(36) -0.0271(21) -0.1099(22)
Cl8 Cl -0.5906(9) -0.0251(5) -0.1965(5)
Cl9 Cl -0.4408(14) -0.1023(8) -0.0904(8)
C26 C -0.1408(43) -0.1597(41) -0.0401(52)
Cl11 Cl -0.1702(44) -0.2374(26) 0.0160(30)
Cl12 Cl 0.0239(44) -0.1559(25) -0.0668(25)
Cl10? Cl -0.5498(47) -0.1251(26) -0.0812(27)
C27? C -0.0855(89) -0.1583(79) -0.0980(45)
Cl13? Cl -0.1733(39) -0.1971(28) -0.0122(30)
Cl14? Cl 0.0800(42) -0.1353(29) -0.0543(29)
loop_
_geom_bond_atom_site_label_1
_geom_bond_atom_site_label_2
_geom_bond_site_symmetry_1
_geom_bond_site_symmetry_2
Pt1 Ag1 1_555 1_555
Ag1 Cl1 1_555 1_555
Cl1 Pt1C 1_555 1_555
Cl2 Pt1 1_555 1_555
Cl3 C2 1_555 1_555
Cl4 C3 1_555 1_555
Cl5 C4 1_555 1_555
Cl6 C5 1_555 1_555
Cl7 C6 1_555 1_555
P1 Pt1 1_555 1_555
C1 Pt1 1_555 1_555
C2 C1 1_555 1_555
C3 C2 1_555 1_555
C4 C3 1_555 1_555
C5 C4 1_555 1_555
C6 C1 1_555 1_555
C7 P1 1_555 1_555
C8 C7 1_555 1_555
C9 C8 1_555 1_555
C10 C9 1_555 1_555
C11 C10 1_555 1_555
C12 C7 1_555 1_555
C13 P1 1_555 1_555
C14 C13 1_555 1_555
C15 C14 1_555 1_555
C16 C15 1_555 1_555
C17 C16 1_555 1_555
C18 C13 1_555 1_555
C19 P1 1_555 1_555
C20 C19 1_555 1_555
C21 C20 1_555 1_555
C22 C21 1_555 1_555
C23 C22 1_555 1_555
C24 C19 1_555 1_555
C25 Cl8 1_555 1_555
Cl9 C25 1_555 1_555
C26 Cl11 1_555 1_555
Cl12 C26 1_555 1_555
H1 C8 1_555 1_555
H2 C9 1_555 1_555
H3 C10 1_555 1_555
H4 C11 1_555 1_555
H5 C12 1_555 1_555
H6 C14 1_555 1_555
H7 C15 1_555 1_555
H8 C16 1_555 1_555
H9 C17 1_555 1_555
H10 C18 1_555 1_555
H11 C20 1_555 1_555
H12 C21 1_555 1_555
H13 C22 1_555 1_555
H14 C23 1_555 1_555
H15 C24 1_555 1_555
Cl1C Pt1 1_555 1_555
Ag1 Cl2 1_555 1_555
C5 C6 1_555 1_555
C11 C12 1_555 1_555
C17 C18 1_555 1_555
C23 C24 1_555 1_555

#END
