
#######################################################################
#
#                 Cambridge Crystallographic Data Centre
#                                CCDC 
#
#######################################################################
#
# If this CIF has been generated from an entry in the Cambridge 
# Structural Database, then it will include bibliographic, chemical, 
# crystal, experimental, refinement or atomic coordinate data resulting 
# from the CCDC's data processing and validation procedures.
#
#######################################################################

data_HEWPAB
_symmetry_cell_setting           monoclinic
_symmetry_space_group_name_H-M   'P 21/c'
_symmetry_Int_Tables_number      14
_space_group_name_Hall           '-P 2ybc'
loop_
_symmetry_equiv_pos_site_id
_symmetry_equiv_pos_as_xyz
1 x,y,z
2 -x,1/2+y,1/2-z
3 -x,-y,-z
4 x,1/2-y,1/2+z
_cell_length_a                   12.729(4)
_cell_length_b                   4.1724(7)
_cell_length_c                   12.498(4)
_cell_angle_alpha                90
_cell_angle_beta                 113.10(3)
_cell_angle_gamma                90
_cell_volume                     610.554
loop_
_atom_site_label
_atom_site_type_symbol
_atom_site_fract_x
_atom_site_fract_y
_atom_site_fract_z
Cs1 Cs 0.65809(3) 0.28904(8) 0.18665(3)
O1 O 0.7620(4) -0.2105(11) 0.0820(4)
O2 O 0.7060(3) -0.3080(10) -0.1078(4)
O3 O 0.4483(3) -0.2334(11) 0.0997(4)
C1 C 0.7794(4) -0.2193(12) -0.0092(4)
C2 C 0.8939(4) -0.1101(12) -0.0042(4)
C3 C 0.9687(4) 0.0488(13) 0.0931(4)
H1 H 0.9480 0.0848 0.1556
C4 C 0.9259(4) -0.1551(14) -0.0990(4)
H2 H 0.8761 -0.2566 -0.1660
H3 H 0.390(6) -0.393(17) 0.083(7)
H4 H 0.384(6) -0.09(2) 0.070(8)
Cs1B Cs 1.34191(3) -0.28904(8) -0.18665(3)
Cs1_2 Cs 0.65809(3) -0.71096(8) 0.18665(3)
Cs1C Cs 0.65809(3) -0.78904(8) -0.31335(3)
Cs1C_2 Cs 0.65809(3) 0.21096(8) -0.31335(3)
Cs1B_2 Cs 1.34191(3) 0.71096(8) -0.18665(3)
Cs1A Cs 1.34191(3) -0.21096(8) 0.31335(3)
Cs1A_2 Cs 1.34191(3) 0.78904(8) 0.31335(3)
Cs1_3 Cs 0.65809(3) 1.28904(8) 0.18665(3)
Cs1B_3 Cs 1.34191(3) -1.28904(8) -0.18665(3)
O1B O 1.2380(4) 0.2105(11) -0.0820(4)
O1_2 O 0.7620(4) 0.7895(11) 0.0820(4)
O1B_2 O 1.2380(4) -0.7895(11) -0.0820(4)
O2B O 1.2940(3) 0.3080(10) 0.1078(4)
O2C O 0.7060(3) -0.1920(10) 0.3922(4)
O2C_2 O 0.7060(3) 0.8080(10) 0.3922(4)
O2A O 1.2940(3) -0.8080(10) -0.3922(4)
O2A_2 O 1.2940(3) 0.1920(10) -0.3922(4)
O3_2 O 0.4483(3) 0.7666(11) 0.0997(4)
O3B O 1.5517(3) -0.7666(11) -0.0997(4)
O3B_2 O 1.5517(3) 0.2334(11) -0.0997(4)
C1B C 1.2206(4) 0.2193(12) 0.0092(4)
C2B C 1.1061(4) 0.1101(12) 0.0042(4)
C3B C 1.0313(4) -0.0488(13) -0.0931(4)
H1B H 1.0520 -0.0848 -0.1556
C4B C 1.0741(4) 0.1551(14) 0.0990(4)
H2B H 1.1239 0.2566 0.1660
H3_2 H 0.390(6) 0.607(17) 0.083(7)
H3B H 1.610(6) -0.607(17) -0.083(7)
H3B_2 H 1.610(6) 0.393(17) -0.083(7)
H4_2 H 0.384(6) 0.91(2) 0.070(8)
H4B H 1.616(6) -0.91(2) -0.070(8)
H4B_2 H 1.616(6) 0.09(2) -0.070(8)
loop_
_geom_bond_atom_site_label_1
_geom_bond_atom_site_label_2
_geom_bond_site_symmetry_1
_geom_bond_site_symmetry_2
Cs1 O1 1_555 1_555
O1 C1 1_555 1_555
O2 C1 1_555 1_555
O3 Cs1 1_555 1_555
C1 C2 1_555 1_555
C2 C3 1_555 1_555
C3 H1 1_555 1_555
C4 C2 1_555 1_555
H2 C4 1_555 1_555
H3 O3 1_555 1_555
H4 O3 1_555 1_555
Cs1B O1B 1_555 1_555
Cs1_2 O1 1_555 1_555
Cs1C O2 1_555 1_555
Cs1C_2 O2 1_555 1_555
Cs1B_2 O1B 1_555 1_555
Cs1A O2B 1_555 1_555
Cs1A_2 O2B 1_555 1_555
Cs1_3 O1_2 1_555 1_555
Cs1B_3 O1B_2 1_555 1_555
O1B C1B 1_555 1_555
O1_2 Cs1 1_555 1_555
O1B_2 Cs1B 1_555 1_555
O2B C1B 1_555 1_555
O2C Cs1 1_555 1_555
O2C_2 Cs1 1_555 1_555
O2A Cs1B 1_555 1_555
O2A_2 Cs1B 1_555 1_555
O3_2 Cs1 1_555 1_555
O3B Cs1B 1_555 1_555
O3B_2 Cs1B 1_555 1_555
C1B C2B 1_555 1_555
C2B C3B 1_555 1_555
C3B C4 1_555 1_555
H1B C3B 1_555 1_555
C4B C3 1_555 1_555
H2B C4B 1_555 1_555
H3_2 O3_2 1_555 1_555
H3B O3B 1_555 1_555
H3B_2 O3B_2 1_555 1_555
H4_2 O3_2 1_555 1_555
H4B O3B 1_555 1_555
H4B_2 O3B_2 1_555 1_555
O3 Cs1_2 1_555 1_555
Cs1_2 O2C 1_555 1_555
Cs1B_2 O2A_2 1_555 1_555
Cs1B_2 O3B_2 1_555 1_555
Cs1_3 O2C_2 1_555 1_555
Cs1_3 O3_2 1_555 1_555
Cs1B_3 O2A 1_555 1_555
Cs1B_3 O3B 1_555 1_555
C2B C4B 1_555 1_555

#END
