
#######################################################################
#
#                 Cambridge Crystallographic Data Centre
#                                CCDC 
#
#######################################################################
#
# If this CIF has been generated from an entry in the Cambridge 
# Structural Database, then it will include bibliographic, chemical, 
# crystal, experimental, refinement or atomic coordinate data resulting 
# from the CCDC's data processing and validation procedures.
#
#######################################################################

data_HEWRUW
_symmetry_cell_setting           triclinic
_symmetry_space_group_name_H-M   'P -1'
_symmetry_Int_Tables_number      2
_space_group_name_Hall           '-P 1'
loop_
_symmetry_equiv_pos_site_id
_symmetry_equiv_pos_as_xyz
1 x,y,z
2 -x,-y,-z
_cell_length_a                   8.786(1)
_cell_length_b                   9.334(1)
_cell_length_c                   3.9772(4)
_cell_angle_alpha                91.31(1)
_cell_angle_beta                 101.10(1)
_cell_angle_gamma                68.60(1)
_cell_volume                     297.595
loop_
_atom_site_label
_atom_site_type_symbol
_atom_site_fract_x
_atom_site_fract_y
_atom_site_fract_z
Br1 Br 0.70112(7) -0.10302(6) -1.2126(1)
Cu1 Cu 0.4504(1) 0.15650(8) -1.2110(2)
N1 N 0.5178(6) -0.3582(5) -1.903(1)
C1 C 0.6335(7) -0.4949(6) -1.762(1)
C2 C 0.7780(7) -0.4996(6) -1.511(2)
C3 C 0.8937(9) -0.6346(8) -1.365(2)
C4 C 0.8740(8) -0.7756(6) -1.458(2)
C5 C 0.7415(8) -0.7779(6) -1.695(2)
C6 C 0.6161(7) -0.6391(6) -1.856(1)
H1 H 0.2070 -0.5945 -2.5548
H2 H 0.0099 -0.3645 -2.8035
H3 H 0.0426 -0.1293 -2.6473
H4 H 0.2694 -0.1262 -2.2460
Br1A Br 0.29888(7) 0.10302(6) -0.7874(1)
Cu1A Cu 0.5496(1) -0.15650(8) -0.7890(2)
Cu1A_2 Cu 0.5496(1) -0.15650(8) -1.7890(2)
Br1_2 Br 0.70112(7) -0.10302(6) -2.2126(1)
Br1A_2 Br 0.29888(7) 0.10302(6) -1.7874(1)
N1A N 0.4822(6) -0.6418(5) -2.097(1)
Cu1_2 Cu 0.4504(1) -0.84350(8) -2.2110(2)
C1A C 0.3665(7) -0.5051(6) -2.238(1)
C2A C 0.2220(7) -0.5004(6) -2.489(2)
C3A C 0.1063(9) -0.3654(8) -2.635(2)
C4A C 0.1260(8) -0.2244(6) -2.542(2)
C5A C 0.2585(8) -0.2221(6) -2.305(2)
C6A C 0.3839(7) -0.3609(6) -2.144(1)
H4A H 0.7306 -0.8738 -1.7540
H3A H 0.9574 -0.8707 -1.3527
H2A H 0.9901 -0.6355 -1.1965
H1A H 0.7930 -0.4055 -1.4452
Cu1_3 Cu 0.4504(1) 0.15650(8) -2.2110(2)
N1A_2 N 0.4822(6) 0.3582(5) -1.097(1)
loop_
_geom_bond_atom_site_label_1
_geom_bond_atom_site_label_2
_geom_bond_site_symmetry_1
_geom_bond_site_symmetry_2
Br1 Cu1 1_555 1_555
Cu1 Br1A 1_555 1_555
N1 C1 1_555 1_555
C1 C2 1_555 1_555
C2 C3 1_555 1_555
C3 C4 1_555 1_555
C4 C5 1_555 1_555
C5 C6 1_555 1_555
C6 C1 1_555 1_555
H1 C2A 1_555 1_555
H2 C3A 1_555 1_555
H3 C4A 1_555 1_555
H4 C5A 1_555 1_555
Br1A Cu1A 1_555 1_555
Cu1A Br1 1_555 1_555
Cu1A_2 Br1 1_555 1_555
Br1_2 Cu1A_2 1_555 1_555
Br1A_2 Cu1 1_555 1_555
N1A C6 1_555 1_555
Cu1_2 N1A 1_555 1_555
C1A N1A 1_555 1_555
C2A C1A 1_555 1_555
C3A C2A 1_555 1_555
C4A C3A 1_555 1_555
C5A C4A 1_555 1_555
C6A N1 1_555 1_555
H4A C5 1_555 1_555
H3A C4 1_555 1_555
H2A C3 1_555 1_555
H1A C2 1_555 1_555
Cu1_3 Br1_2 1_555 1_555
N1A_2 Cu1 1_555 1_555
N1 Cu1A_2 1_555 1_555
Cu1A_2 Br1A_2 1_555 1_555
Br1A_2 Cu1_3 1_555 1_555
C1A C6A 1_555 1_555
C5A C6A 1_555 1_555

#END
