
#######################################################################
#
#                 Cambridge Crystallographic Data Centre
#                                CCDC 
#
#######################################################################
#
# If this CIF has been generated from an entry in the Cambridge 
# Structural Database, then it will include bibliographic, chemical, 
# crystal, experimental, refinement or atomic coordinate data resulting 
# from the CCDC's data processing and validation procedures.
#
#######################################################################

data_HEWRIK
_symmetry_cell_setting           monoclinic
_symmetry_space_group_name_H-M   'C 2/m'
_symmetry_Int_Tables_number      12
_space_group_name_Hall           '-C 2y'
loop_
_symmetry_equiv_pos_site_id
_symmetry_equiv_pos_as_xyz
1 x,y,z
2 -x,y,-z
3 1/2+x,1/2+y,z
4 1/2-x,1/2+y,-z
5 -x,-y,-z
6 x,-y,z
7 1/2-x,1/2-y,-z
8 1/2+x,1/2-y,z
_cell_length_a                   14.830(4)
_cell_length_b                   9.323(2)
_cell_length_c                   5.0012(6)
_cell_angle_alpha                90
_cell_angle_beta                 96.48(2)
_cell_angle_gamma                90
_cell_volume                     687.049
loop_
_atom_site_label
_atom_site_type_symbol
_atom_site_fract_x
_atom_site_fract_y
_atom_site_fract_z
I1 I 0.13217(2) 0.0000 0.32894(8)
Cu1 Cu 0.0000 0.13540(7) 0.5000
N1 N 0.0000 0.3488(4) 0.5000
C1 C 0.0541(2) 0.4234(3) 0.6844(6)
C2 C 0.1128(3) 0.3500(4) 0.8857(7)
C3 C 0.1670(3) 0.4233(4) 1.0716(7)
H1 H 0.1118 0.2387 0.8668
H2 H 0.2102 0.3688 1.2071
C1E C 0.0541(2) 0.5766(3) 0.6844(6)
N1E N 0.0000 0.6512(4) 0.5000
C1D C -0.0541(2) 0.5766(3) 0.3156(6)
C1A C -0.0541(2) 0.4234(3) 0.3156(6)
C2A C -0.1128(3) 0.3500(4) 0.1143(7)
C3A C -0.1670(3) 0.4233(4) -0.0716(7)
C3D C -0.1670(3) 0.5767(4) -0.0716(7)
C2D C -0.1128(3) 0.6500(4) 0.1143(7)
H1D H -0.1118 0.7613 0.1332
H2D H -0.2102 0.6312 -0.2071
H2A H -0.2102 0.3688 -0.2071
H1A H -0.1118 0.2387 0.1332
C2E C 0.1128(3) 0.6500(4) 0.8857(7)
C3E C 0.1670(3) 0.5767(4) 1.0716(7)
H2E H 0.2102 0.6312 1.2071
H1E H 0.1118 0.7613 0.8668
I1A I -0.13217(2) 0.0000 0.67106(8)
Cu1D Cu 0.0000 -0.13540(7) 0.5000
Cu1D_2 Cu 0.0000 0.86460(7) 0.5000
N1D N 0.0000 -0.3488(4) 0.5000
loop_
_geom_bond_atom_site_label_1
_geom_bond_atom_site_label_2
_geom_bond_site_symmetry_1
_geom_bond_site_symmetry_2
I1 Cu1 1_555 1_555
Cu1 N1 1_555 1_555
N1 C1 1_555 1_555
C1 C2 1_555 1_555
C2 C3 1_555 1_555
C3 H2 1_555 1_555
H1 C2 1_555 1_555
C1E C1 1_555 1_555
N1E C1E 1_555 1_555
C1D N1E 1_555 1_555
C1A N1 1_555 1_555
C2A C1A 1_555 1_555
C3A C2A 1_555 1_555
C3D C3A 1_555 1_555
C2D C1D 1_555 1_555
H1D C2D 1_555 1_555
H2D C3D 1_555 1_555
H2A C3A 1_555 1_555
H1A C2A 1_555 1_555
C2E C1E 1_555 1_555
C3E C3 1_555 1_555
H2E C3E 1_555 1_555
H1E C2E 1_555 1_555
I1A Cu1 1_555 1_555
Cu1D I1 1_555 1_555
Cu1D_2 N1E 1_555 1_555
N1D Cu1D 1_555 1_555
C1D C1A 1_555 1_555
C3D C2D 1_555 1_555
C2E C3E 1_555 1_555
I1A Cu1D 1_555 1_555

#END
