
#######################################################################
#
#                 Cambridge Crystallographic Data Centre
#                                CCDC 
#
#######################################################################
#
# If this CIF has been generated from an entry in the Cambridge 
# Structural Database, then it will include bibliographic, chemical, 
# crystal, experimental, refinement or atomic coordinate data resulting 
# from the CCDC's data processing and validation procedures.
#
#######################################################################

data_HEXGOI
_symmetry_cell_setting           monoclinic
_symmetry_space_group_name_H-M   'C 2/c'
_symmetry_Int_Tables_number      15
_space_group_name_Hall           '-C 2yn'
loop_
_symmetry_equiv_pos_site_id
_symmetry_equiv_pos_as_xyz
1 x,y,z
2 -x,y,1/2-z
3 1/2+x,1/2+y,z
4 1/2-x,1/2+y,1/2-z
5 -x,-y,-z
6 x,-y,1/2+z
7 1/2-x,1/2-y,-z
8 1/2+x,1/2-y,1/2+z
_cell_length_a                   23.3339(17)
_cell_length_b                   18.0256(18)
_cell_length_c                   15.2682(13)
_cell_angle_alpha                90
_cell_angle_beta                 120.777(2)
_cell_angle_gamma                90
_cell_volume                     5517.49
loop_
_atom_site_label
_atom_site_type_symbol
_atom_site_fract_x
_atom_site_fract_y
_atom_site_fract_z
Zn1 Zn 0.298309(14) 0.050092(15) 0.41458(2)
Zn2 Zn 0.0000 0.12355(2) -0.2500
C1 C 0.59197(13) 0.25598(14) 0.7917(2)
C2 C 0.57170(14) 0.31973(14) 0.7326(2)
H1 H 0.5709 0.3646 0.7619
C3 C 0.55270(14) 0.31757(14) 0.6306(2)
C4 C 0.55236(13) 0.24951(15) 0.5868(2)
H2 H 0.5396 0.2474 0.5183
C5 C 0.57073(13) 0.18549(14) 0.6441(2)
C6 C 0.59124(13) 0.18919(15) 0.7468(2)
H3 H 0.6047 0.1462 0.7859
C7 C 0.61737(15) 0.26112(16) 0.9044(2)
H4 H 0.5805 0.2709 0.9150
H5 H 0.6376 0.2144 0.9371
C8 C 0.71170(14) 0.33697(15) 0.9242(2)
H6 H 0.7202 0.3068 0.8827
C9 C 0.7163(2) 0.4242(2) 1.0178(3)
H7 H 0.7288 0.4678 1.0558
C10 C 0.6691(2) 0.3770(2) 1.0100(3)
H8 H 0.6433 0.3821 1.0400
C11 C 0.53215(17) 0.38522(15) 0.5627(2)
H9 H 0.5534 0.3836 0.5223
H10 H 0.4843 0.3840 0.5163
C12 C 0.50814(14) 0.49742(14) 0.63274(18)
H11 H 0.4627 0.4883 0.6035
C13 C 0.60505(15) 0.54600(16) 0.7195(2)
H12 H 0.6395 0.5779 0.7621
C14 C 0.61181(15) 0.48529(17) 0.6754(2)
H13 H 0.6511 0.4674 0.6815
C15 C 0.56509(14) 0.11283(15) 0.5918(2)
H14 H 0.5640 0.1216 0.5283
H15 H 0.6035 0.0821 0.6348
C16 C 0.44158(13) 0.09218(14) 0.4977(2)
H16 H 0.4309 0.1275 0.4472
C17 C 0.43415(14) 0.00707(17) 0.5900(2)
H17 H 0.4165 -0.0273 0.6152
C18 C 0.49959(15) 0.02046(17) 0.6288(2)
H18 H 0.5350 -0.0030 0.6845
C19 C 0.24428(12) 0.21334(13) 0.18444(18)
C20 C 0.24792(12) 0.29052(12) 0.17705(18)
H19 H 0.2741 0.3186 0.2353
C21 C 0.21226(12) 0.32515(13) 0.08241(18)
C22 C 0.17119(12) 0.28368(13) -0.00320(18)
H20 H 0.1474 0.3068 -0.0664
C23 C 0.16504(12) 0.20756(13) 0.00423(19)
C24 C 0.20328(12) 0.17344(14) 0.09757(18)
H21 H 0.2013 0.1221 0.1019
C25 C 0.28196(14) 0.17519(14) 0.28627(19)
C26 C 0.21424(12) 0.40771(14) 0.0714(2)
C27 C 0.11368(14) 0.16126(15) -0.08283(19)
N1 N 0.66682(11) 0.32094(12) 0.94992(16)
N2 N 0.74271(11) 0.39942(12) 0.96307(17)
N3 N 0.54992(13) 0.45470(11) 0.61986(17)
N4 N 0.53975(11) 0.55406(12) 0.69223(17)
N5 N 0.50385(10) 0.07462(12) 0.57123(17)
N6 N 0.39774(11) 0.05222(11) 0.50726(16)
O1 O 0.27048(10) 0.10563(9) 0.28600(13)
O2 O 0.31904(11) 0.21075(10) 0.36374(14)
O3 O 0.22756(10) 0.44825(9) 0.14789(14)
O4 O 0.20035(10) 0.43435(10) -0.01165(15)
O5 O 0.07134(10) 0.19551(11) -0.16185(15)
O6 O 0.11300(11) 0.09365(11) -0.07234(16)
Zn1A Zn -0.298309(14) 0.050092(15) -0.91458(2)
C1A C -0.59197(13) 0.25598(14) -1.2917(2)
C2A C -0.57170(14) 0.31973(14) -1.2326(2)
H1A H -0.5709 0.3646 -1.2619
C3A C -0.55270(14) 0.31757(14) -1.1306(2)
C4A C -0.55236(13) 0.24951(15) -1.0868(2)
H2A H -0.5396 0.2474 -1.0183
C5A C -0.57073(13) 0.18549(14) -1.1441(2)
C6A C -0.59124(13) 0.18919(15) -1.2468(2)
H3A H -0.6047 0.1462 -1.2859
C7A C -0.61737(15) 0.26112(16) -1.4044(2)
H4A H -0.5805 0.2709 -1.4150
H5A H -0.6376 0.2144 -1.4371
C8A C -0.71170(14) 0.33697(15) -1.4242(2)
H6A H -0.7202 0.3068 -1.3827
C9A C -0.7163(2) 0.4242(2) -1.5178(3)
H7A H -0.7288 0.4678 -1.5558
C10A C -0.6691(2) 0.3770(2) -1.5100(3)
H8A H -0.6433 0.3821 -1.5400
C11A C -0.53215(17) 0.38522(15) -1.0627(2)
H9A H -0.5534 0.3836 -1.0223
H10A H -0.4843 0.3840 -1.0163
C12A C -0.50814(14) 0.49742(14) -1.13274(18)
H11A H -0.4627 0.4883 -1.1035
C13A C -0.60505(15) 0.54600(16) -1.2195(2)
H12A H -0.6395 0.5779 -1.2621
C14A C -0.61181(15) 0.48529(17) -1.1754(2)
H13A H -0.6511 0.4674 -1.1815
C15A C -0.56509(14) 0.11283(15) -1.0918(2)
H14A H -0.5640 0.1216 -1.0283
H15A H -0.6035 0.0821 -1.1348
C16A C -0.44158(13) 0.09218(14) -0.9977(2)
H16A H -0.4309 0.1275 -0.9472
C17A C -0.43415(14) 0.00707(17) -1.0900(2)
H17A H -0.4165 -0.0273 -1.1152
C18A C -0.49959(15) 0.02046(17) -1.1288(2)
H18A H -0.5350 -0.0030 -1.1845
C19A C -0.24428(12) 0.21334(13) -0.68444(18)
C20A C -0.24792(12) 0.29052(12) -0.67705(18)
H19A H -0.2741 0.3186 -0.7353
C21A C -0.21226(12) 0.32515(13) -0.58241(18)
C22A C -0.17119(12) 0.28368(13) -0.49680(18)
H20A H -0.1474 0.3068 -0.4336
C23A C -0.16504(12) 0.20756(13) -0.50423(19)
C24A C -0.20328(12) 0.17344(14) -0.59757(18)
H21A H -0.2013 0.1221 -0.6019
C25A C -0.28196(14) 0.17519(14) -0.78627(19)
C26A C -0.21424(12) 0.40771(14) -0.5714(2)
C27A C -0.11368(14) 0.16126(15) -0.41717(19)
N1A N -0.66682(11) 0.32094(12) -1.44992(16)
N2A N -0.74271(11) 0.39942(12) -1.46307(17)
N3A N -0.54992(13) 0.45470(11) -1.11986(17)
N4A N -0.53975(11) 0.55406(12) -1.19223(17)
N5A N -0.50385(10) 0.07462(12) -1.07123(17)
N6A N -0.39774(11) 0.05222(11) -1.00726(16)
O1A O -0.27048(10) 0.10563(9) -0.78600(13)
O2A O -0.31904(11) 0.21075(10) -0.86374(14)
O3A O -0.22756(10) 0.44825(9) -0.64789(14)
O4A O -0.20035(10) 0.43435(10) -0.48835(15)
O5A O -0.07134(10) 0.19551(11) -0.33815(15)
O6A O -0.11300(11) 0.09365(11) -0.42766(16)
Zn1B Zn -0.201691(14) 0.550092(15) -0.58542(2)
Zn1C Zn 0.201691(14) 0.550092(15) 0.08542(2)
Zn1F Zn -0.798309(14) 0.449908(15) -1.41458(2)
Zn1G Zn 0.798309(14) 0.449908(15) 0.91458(2)
Zn2B Zn -0.5000 0.62355(2) -1.2500
Zn2B_2 Zn 0.5000 0.62355(2) 0.7500
N2F N -0.24271(11) 0.10058(12) -0.96307(17)
N2G N 0.24271(11) 0.10058(12) 0.46307(17)
N4B N 0.03975(11) 0.05406(12) -0.30777(17)
N4C N -0.03975(11) 0.05406(12) -0.19223(17)
O3B O -0.27244(10) -0.05175(9) -0.85211(14)
O3C O 0.27244(10) -0.05175(9) 0.35211(14)
O4B O -0.29965(10) -0.06565(10) -1.01165(15)
O4C O 0.29965(10) -0.06565(10) 0.51165(15)
O7 O 0.4199(2) 0.2863(3) 0.3720(4)
O8 O 0.64517(17) 0.9478(3) 0.7840(2)
O9 O 0.4716(4) 0.1663(3) 0.3116(4)
loop_
_geom_bond_atom_site_label_1
_geom_bond_atom_site_label_2
_geom_bond_site_symmetry_1
_geom_bond_site_symmetry_2
Zn1 N6 1_555 1_555
Zn2 O5 1_555 1_555
C1 C2 1_555 1_555
C2 H1 1_555 1_555
C3 C2 1_555 1_555
C4 C3 1_555 1_555
H2 C4 1_555 1_555
C5 C4 1_555 1_555
C6 C1 1_555 1_555
H3 C6 1_555 1_555
C7 C1 1_555 1_555
H4 C7 1_555 1_555
H5 C7 1_555 1_555
C8 H6 1_555 1_555
C9 H7 1_555 1_555
C10 C9 1_555 1_555
H8 C10 1_555 1_555
C11 C3 1_555 1_555
H9 C11 1_555 1_555
H10 C11 1_555 1_555
C12 H11 1_555 1_555
C13 H12 1_555 1_555
C14 C13 1_555 1_555
H13 C14 1_555 1_555
C15 C5 1_555 1_555
H14 C15 1_555 1_555
H15 C15 1_555 1_555
C16 H16 1_555 1_555
C17 H17 1_555 1_555
C18 C17 1_555 1_555
H18 C18 1_555 1_555
C19 C20 1_555 1_555
C20 H19 1_555 1_555
C21 C20 1_555 1_555
C22 C21 1_555 1_555
H20 C22 1_555 1_555
C23 C22 1_555 1_555
C24 C19 1_555 1_555
H21 C24 1_555 1_555
C25 C19 1_555 1_555
C26 C21 1_555 1_555
C27 C23 1_555 1_555
N1 C7 1_555 1_555
N2 C8 1_555 1_555
N3 C11 1_555 1_555
N4 C12 1_555 1_555
N5 C15 1_555 1_555
N6 C16 1_555 1_555
O1 Zn1 1_555 1_555
O2 C25 1_555 1_555
O3 C26 1_555 1_555
O4 C26 1_555 1_555
O5 C27 1_555 1_555
O6 C27 1_555 1_555
Zn1A N6A 1_555 1_555
C1A C2A 1_555 1_555
C2A H1A 1_555 1_555
C3A C2A 1_555 1_555
C4A C3A 1_555 1_555
H2A C4A 1_555 1_555
C5A C4A 1_555 1_555
C6A C1A 1_555 1_555
H3A C6A 1_555 1_555
C7A C1A 1_555 1_555
H4A C7A 1_555 1_555
H5A C7A 1_555 1_555
C8A H6A 1_555 1_555
C9A H7A 1_555 1_555
C10A C9A 1_555 1_555
H8A C10A 1_555 1_555
C11A C3A 1_555 1_555
H9A C11A 1_555 1_555
H10A C11A 1_555 1_555
C12A H11A 1_555 1_555
C13A H12A 1_555 1_555
C14A C13A 1_555 1_555
H13A C14A 1_555 1_555
C15A C5A 1_555 1_555
H14A C15A 1_555 1_555
H15A C15A 1_555 1_555
C16A H16A 1_555 1_555
C17A H17A 1_555 1_555
C18A C17A 1_555 1_555
H18A C18A 1_555 1_555
C19A C20A 1_555 1_555
C20A H19A 1_555 1_555
C21A C20A 1_555 1_555
C22A C21A 1_555 1_555
H20A C22A 1_555 1_555
C23A C22A 1_555 1_555
C24A C19A 1_555 1_555
H21A C24A 1_555 1_555
C25A C19A 1_555 1_555
C26A C21A 1_555 1_555
C27A C23A 1_555 1_555
N1A C7A 1_555 1_555
N2A C8A 1_555 1_555
N3A C11A 1_555 1_555
N4A C12A 1_555 1_555
N5A C15A 1_555 1_555
N6A C16A 1_555 1_555
O1A Zn1A 1_555 1_555
O2A C25A 1_555 1_555
O3A C26A 1_555 1_555
O4A C26A 1_555 1_555
O5A Zn2 1_555 1_555
O6A C27A 1_555 1_555
Zn1B O3A 1_555 1_555
Zn1C O3 1_555 1_555
Zn1F N2A 1_555 1_555
Zn1G N2 1_555 1_555
Zn2B N4A 1_555 1_555
Zn2B_2 N4 1_555 1_555
N2F Zn1A 1_555 1_555
N2G Zn1 1_555 1_555
N4B Zn2 1_555 1_555
N4C Zn2 1_555 1_555
O3B Zn1A 1_555 1_555
O3C Zn1 1_555 1_555
O4B Zn1A 1_555 1_555
O4C Zn1 1_555 1_555
C5 C6 1_555 1_555
C8 N1 1_555 1_555
C9 N2 1_555 1_555
C10 N1 1_555 1_555
C12 N3 1_555 1_555
C13 N4 1_555 1_555
C14 N3 1_555 1_555
C16 N5 1_555 1_555
C17 N6 1_555 1_555
C18 N5 1_555 1_555
C23 C24 1_555 1_555
C25 O1 1_555 1_555
O4 Zn1C 1_555 1_555
C5A C6A 1_555 1_555
C8A N1A 1_555 1_555
C9A N2A 1_555 1_555
C10A N1A 1_555 1_555
C12A N3A 1_555 1_555
C13A N4A 1_555 1_555
C14A N3A 1_555 1_555
C16A N5A 1_555 1_555
C17A N6A 1_555 1_555
C18A N5A 1_555 1_555
C23A C24A 1_555 1_555
C25A O1A 1_555 1_555
C27A O5A 1_555 1_555
O4A Zn1B 1_555 1_555

#END
