
#######################################################################
#
#                 Cambridge Crystallographic Data Centre
#                                CCDC 
#
#######################################################################
#
# If this CIF has been generated from an entry in the Cambridge 
# Structural Database, then it will include bibliographic, chemical, 
# crystal, experimental, refinement or atomic coordinate data resulting 
# from the CCDC's data processing and validation procedures.
#
#######################################################################

data_HEXHAV
_symmetry_cell_setting           monoclinic
_symmetry_space_group_name_H-M   'P 21/c'
_symmetry_Int_Tables_number      14
_space_group_name_Hall           '-P 2ybc'
loop_
_symmetry_equiv_pos_site_id
_symmetry_equiv_pos_as_xyz
1 x,y,z
2 -x,1/2+y,1/2-z
3 -x,-y,-z
4 x,1/2-y,1/2+z
_cell_length_a                   9.6071(15)
_cell_length_b                   15.995(3)
_cell_length_c                   23.486(5)
_cell_angle_alpha                90
_cell_angle_beta                 104.915(8)
_cell_angle_gamma                90
_cell_volume                     3487.4
loop_
_atom_site_label
_atom_site_type_symbol
_atom_site_fract_x
_atom_site_fract_y
_atom_site_fract_z
Cd1 Cd 0.411935(15) 0.533109(9) 0.222199(7)
Cd2 Cd 0.042559(19) 0.512117(10) 0.086629(7)
Cd3 Cd 0.588476(14) 0.502656(8) 0.453128(6)
O1 O 0.14195(16) 0.51613(10) 0.18907(7)
O2 O -0.08400(17) 0.47853(11) 0.15535(7)
O3 O -0.39501(15) 0.52230(10) 0.30860(7)
O4 O -0.28033(16) 0.46841(10) 0.39532(7)
O5 O 0.23315(16) 0.49695(10) 0.46471(7)
O6 O 0.36522(15) 0.51487(10) 0.39981(7)
O7 O 0.35873(19) 0.89963(12) 0.62643(8)
O8 O 0.5612(2) 0.96611(15) 0.66005(9)
O9 O 0.84528(17) 1.00879(9) 0.50409(7)
O10 O 0.80793(17) 0.91690(10) 0.43103(7)
O11 O 0.59493(17) 0.64371(9) 0.45975(7)
O12 O 0.47107(17) 0.63148(9) 0.52786(7)
N1 N 0.3069(2) 0.75275(12) 0.31310(9)
N2 N 0.36483(19) 0.65558(11) 0.25726(8)
N3 N -0.3028(2) 0.77355(11) 0.27038(9)
N4 N -0.38653(19) 0.90111(11) 0.25704(8)
N5 N 0.0130(2) 0.72530(12) 0.54653(9)
N6 N 0.0144(2) 0.85133(12) 0.58281(8)
C1 C 0.1420(2) 0.75156(15) 0.37781(10)
C2 C 0.0128(2) 0.74570(15) 0.33503(10)
H1 H 0.0060 0.7666 0.2966
C3 C -0.1075(2) 0.70944(14) 0.34788(11)
C4 C -0.0986(3) 0.68197(14) 0.40467(11)
H2 H -0.1818 0.6601 0.4142
C5 C 0.0301(3) 0.68608(14) 0.44763(10)
C6 C 0.1507(2) 0.71989(15) 0.43377(10)
H3 H 0.2401 0.7214 0.4629
C7 C 0.2726(3) 0.79182(16) 0.36422(11)
H4 H 0.2537 0.8521 0.3563
H5 H 0.3563 0.7865 0.3989
C8 C 0.3645(2) 0.67692(14) 0.31151(10)
H6 H 0.4007 0.6428 0.3452
C9 C 0.3025(3) 0.72116(16) 0.22237(12)
H7 H 0.2871 0.7238 0.1808
C10 C 0.2665(3) 0.78122(17) 0.25602(12)
H8 H 0.2218 0.8332 0.2429
C11 C -0.2453(3) 0.69588(15) 0.30042(14)
H9 H -0.2269 0.6558 0.2711
H10 H -0.3183 0.6708 0.3183
C12 C -0.3253(2) 0.84482(14) 0.29622(10)
H11 H -0.3002 0.8537 0.3376
C13 C -0.4047(3) 0.86321(15) 0.20279(10)
H12 H -0.4465 0.8885 0.1657
C14 C -0.3533(3) 0.78442(15) 0.21112(11)
H13 H -0.3525 0.7443 0.1814
C15 C 0.0380(3) 0.65538(15) 0.50907(11)
H14 H -0.0354 0.6114 0.5075
H15 H 0.1341 0.6306 0.5264
C16 C 0.0516(3) 0.80500(15) 0.54317(11)
H16 H 0.0999 0.8255 0.5155
C17 C -0.0535(3) 0.79860(16) 0.61312(11)
H17 H -0.0935 0.8146 0.6445
C18 C -0.0545(3) 0.72050(16) 0.59132(12)
H18 H -0.0941 0.6719 0.6043
C19 C 0.0038(2) 0.49740(12) 0.25899(9)
C20 C -0.1326(2) 0.49470(12) 0.26997(9)
H19 H -0.2169 0.4939 0.2382
C21 C -0.1434(2) 0.49317(11) 0.32809(9)
C22 C -0.0196(2) 0.49552(12) 0.37436(9)
H20 H -0.0275 0.4934 0.4138
C23 C 0.1150(2) 0.50096(12) 0.36351(9)
C24 C 0.1265(2) 0.50200(12) 0.30572(9)
H21 H 0.2187 0.5059 0.2981
C25 C 0.0210(2) 0.49701(12) 0.19729(9)
C26 C -0.2862(2) 0.49462(12) 0.34382(9)
C27 C 0.2484(2) 0.50459(12) 0.41362(9)
C28 C 0.5391(2) 0.88302(13) 0.57443(9)
C29 C 0.6322(2) 0.92908(13) 0.54991(9)
H22 H 0.6598 0.9840 0.5637
C30 C 0.6848(2) 0.89444(13) 0.50503(9)
C31 C 0.6510(2) 0.81250(12) 0.48722(9)
H23 H 0.6872 0.7890 0.4567
C32 C 0.5641(2) 0.76442(12) 0.51386(9)
C33 C 0.5052(2) 0.80105(13) 0.55620(9)
H24 H 0.4413 0.7698 0.5728
C34 C 0.4818(2) 0.91923(14) 0.62331(10)
C35 C 0.7848(2) 0.94344(13) 0.47839(9)
C36 C 0.5412(2) 0.67254(13) 0.49923(9)
Cd1_2 Cd -0.588065(15) 0.533109(9) 0.222199(7)
Cd1A Cd -0.411935(15) 1.033109(9) 0.277801(7)
Cd1C Cd 0.411935(15) 0.966891(9) 0.722199(7)
Cd2A Cd 0.957441(19) 1.012117(10) 0.413371(7)
Cd2C Cd 0.042559(19) 0.987883(10) 0.586629(7)
Cd2C_2 Cd 1.042559(19) 0.987883(10) 0.586629(7)
Cd3_2 Cd -0.411524(14) 0.502656(8) 0.453128(6)
Cd3B Cd 0.411524(14) 0.497344(8) 0.546872(6)
O3_2 O 0.60499(15) 0.52230(10) 0.30860(7)
O4_2 O 0.71967(16) 0.46841(10) 0.39532(7)
O5B O 0.76685(16) 0.50305(10) 0.53529(7)
O7C O 0.35873(19) 0.60037(12) 0.12643(8)
O8C O 0.5612(2) 0.53389(15) 0.16005(9)
O9A O 0.15472(17) 0.50879(9) -0.00409(7)
O9C O -0.15472(17) 0.49121(9) 0.00409(7)
O10A O 0.19207(17) 0.41690(10) 0.06897(7)
O12B O 0.52893(17) 0.36852(9) 0.47214(7)
N4A N 0.38653(19) 0.40111(11) 0.24296(8)
N6C N 0.0144(2) 0.64867(12) 0.08281(8)
loop_
_geom_bond_atom_site_label_1
_geom_bond_atom_site_label_2
_geom_bond_site_symmetry_1
_geom_bond_site_symmetry_2
Cd1 O1 1_555 1_555
Cd2 O1 1_555 1_555
Cd3 O6 1_555 1_555
O1 C25 1_555 1_555
O2 Cd2 1_555 1_555
O3 C26 1_555 1_555
O4 C26 1_555 1_555
O5 C27 1_555 1_555
O6 C27 1_555 1_555
O7 C34 1_555 1_555
O8 C34 1_555 1_555
O9 C35 1_555 1_555
O10 C35 1_555 1_555
O11 Cd3 1_555 1_555
O12 C36 1_555 1_555
N1 C7 1_555 1_555
N2 Cd1 1_555 1_555
N3 C11 1_555 1_555
N4 C12 1_555 1_555
N5 C15 1_555 1_555
N6 C16 1_555 1_555
C1 C2 1_555 1_555
C2 H1 1_555 1_555
C3 C2 1_555 1_555
C4 C3 1_555 1_555
H2 C4 1_555 1_555
C5 C4 1_555 1_555
C6 C1 1_555 1_555
H3 C6 1_555 1_555
C7 C1 1_555 1_555
H4 C7 1_555 1_555
H5 C7 1_555 1_555
C8 N1 1_555 1_555
H6 C8 1_555 1_555
C9 N2 1_555 1_555
H7 C9 1_555 1_555
C10 N1 1_555 1_555
H8 C10 1_555 1_555
C11 C3 1_555 1_555
H9 C11 1_555 1_555
H10 C11 1_555 1_555
C12 N3 1_555 1_555
H11 C12 1_555 1_555
C13 N4 1_555 1_555
H12 C13 1_555 1_555
C14 N3 1_555 1_555
H13 C14 1_555 1_555
C15 C5 1_555 1_555
H14 C15 1_555 1_555
H15 C15 1_555 1_555
C16 N5 1_555 1_555
H16 C16 1_555 1_555
C17 N6 1_555 1_555
H17 C17 1_555 1_555
C18 N5 1_555 1_555
H18 C18 1_555 1_555
C19 C20 1_555 1_555
C20 H19 1_555 1_555
C21 C20 1_555 1_555
C22 C21 1_555 1_555
H20 C22 1_555 1_555
C23 C22 1_555 1_555
C24 C19 1_555 1_555
H21 C24 1_555 1_555
C25 O2 1_555 1_555
C26 C21 1_555 1_555
C27 C23 1_555 1_555
C28 C29 1_555 1_555
C29 H22 1_555 1_555
C30 C29 1_555 1_555
C31 C30 1_555 1_555
H23 C31 1_555 1_555
C32 C31 1_555 1_555
C33 C28 1_555 1_555
H24 C33 1_555 1_555
C34 C28 1_555 1_555
C35 C30 1_555 1_555
C36 O11 1_555 1_555
Cd1_2 O3 1_555 1_555
Cd1A N4 1_555 1_555
Cd1C O7 1_555 1_555
Cd2A O9 1_555 1_555
Cd2C N6 1_555 1_555
Cd2C_2 O9 1_555 1_555
Cd3_2 O4 1_555 1_555
Cd3B O5 1_555 1_555
O3_2 Cd1 1_555 1_555
O4_2 Cd3 1_555 1_555
O5B Cd3 1_555 1_555
O7C Cd1 1_555 1_555
O8C Cd1 1_555 1_555
O9A Cd2 1_555 1_555
O9C Cd2 1_555 1_555
O10A Cd2 1_555 1_555
O12B Cd3 1_555 1_555
N4A Cd1 1_555 1_555
N6C Cd2 1_555 1_555
O8 Cd1C 1_555 1_555
O10 Cd2A 1_555 1_555
O12 Cd3B 1_555 1_555
N2 C8 1_555 1_555
C5 C6 1_555 1_555
C9 C10 1_555 1_555
C13 C14 1_555 1_555
C17 C18 1_555 1_555
C19 C25 1_555 1_555
C23 C24 1_555 1_555
C32 C33 1_555 1_555
C32 C36 1_555 1_555

#END
