
#######################################################################
#
#                 Cambridge Crystallographic Data Centre
#                                CCDC 
#
#######################################################################
#
# If this CIF has been generated from an entry in the Cambridge 
# Structural Database, then it will include bibliographic, chemical, 
# crystal, experimental, refinement or atomic coordinate data resulting 
# from the CCDC's data processing and validation procedures.
#
#######################################################################

data_HEXHEZ
_symmetry_cell_setting           monoclinic
_symmetry_space_group_name_H-M   'P 2/c'
_symmetry_Int_Tables_number      13
_space_group_name_Hall           '-P 2yc'
loop_
_symmetry_equiv_pos_site_id
_symmetry_equiv_pos_as_xyz
1 x,y,z
2 -x,y,1/2-z
3 -x,-y,-z
4 x,-y,1/2+z
_cell_length_a                   15.604(2)
_cell_length_b                   8.6650(10)
_cell_length_c                   17.690(2)
_cell_angle_alpha                90
_cell_angle_beta                 111.470(2)
_cell_angle_gamma                90
_cell_volume                     2225.87
loop_
_atom_site_label
_atom_site_type_symbol
_atom_site_fract_x
_atom_site_fract_y
_atom_site_fract_z
Cd1 Cd 0.0000 0.84835(6) -0.2500
Cd2 Cd 0.5000 0.52040(6) 0.2500
Cd3 Cd 0.5000 0.95655(7) 0.2500
C1 C 0.6185(3) 0.7886(6) 0.1120(3)
C2 C 0.7039(3) 0.8529(6) 0.1563(3)
H1 H 0.7297 0.8387 0.2123
C3 C 0.7504(3) 0.9382(6) 0.1171(3)
C4 C 0.7099(3) 0.9657(6) 0.0344(3)
H2 H 0.7405 1.0255 0.0086
C5 C 0.6239(3) 0.9044(6) -0.0102(3)
C6 C 0.5789(3) 0.8136(6) 0.0285(3)
H3 H 0.5222 0.7695 -0.0014
C7 C 0.5709(3) 0.6970(7) 0.1567(3)
C8 C 0.0243(3) 0.0739(6) -0.0006(3)
C9 C 0.1102(3) 0.1069(6) 0.0596(3)
H4 H 0.1385 0.0351 0.1001
C10 C 0.1527(3) 0.2457(6) 0.0584(3)
C11 C 0.1149(3) 0.3550(6) -0.0018(3)
H5 H 0.1447 0.4478 -0.0021
C12 C 0.0301(3) 0.3198(6) -0.0620(3)
C13 C -0.0148(3) 0.1836(6) -0.0606(3)
H6 H -0.0722 0.1648 -0.1006
C14 C 0.8414(3) 1.0105(6) 0.1653(3)
C15 C 0.5781(3) 0.9464(7) -0.0979(3)
C16 C 0.3059(3) 0.3747(6) 0.1248(3)
H7 H 0.3072 0.4277 0.0795
C17 C 0.3426(3) 0.2865(7) 0.2469(3)
H8 H 0.3749 0.2688 0.3019
C18 C 0.2609(3) 0.2239(7) 0.2026(3)
H9 H 0.2268 0.1556 0.2209
C19 C 0.0034(3) 0.5826(6) -0.1240(3)
H10 H 0.0468 0.6350 -0.0811
C20 C -0.1040(3) 0.5308(7) -0.2391(3)
H11 H -0.1488 0.5438 -0.2906
C21 C -0.0817(3) 0.3958(7) -0.1998(3)
H12 H -0.1071 0.2997 -0.2187
N1 N 0.2373(3) 0.2801(5) 0.1250(2)
N2 N 0.3708(3) 0.3816(5) 0.1976(2)
N3 N -0.0129(3) 0.4280(5) -0.1250(2)
N4 N -0.0507(3) 0.6478(5) -0.1921(2)
O1 O 0.5804(3) 0.7415(4) 0.2276(2)
O2 O 0.5242(3) 0.5813(5) 0.1259(2)
O3 O 0.8817(2) 0.9738(4) 0.2383(2)
O4 O 0.8753(2) 1.1078(5) 0.1312(2)
O5 O 0.6197(3) 1.0347(6) -0.1293(2)
O6 O 0.5007(3) 0.8963(6) -0.1393(2)
C8B C -0.0243(3) -0.0739(6) 0.0006(3)
C9B C -0.1102(3) -0.1069(6) -0.0596(3)
H4B H -0.1385 -0.0351 -0.1001
C10B C -0.1527(3) -0.2457(6) -0.0584(3)
C11B C -0.1149(3) -0.3550(6) 0.0018(3)
H5B H -0.1447 -0.4478 0.0021
C12B C -0.0301(3) -0.3198(6) 0.0620(3)
C13B C 0.0148(3) -0.1836(6) 0.0606(3)
H6B H 0.0722 -0.1648 0.1006
C16B C -0.3059(3) -0.3747(6) -0.1248(3)
H7B H -0.3072 -0.4277 -0.0795
C17B C -0.3426(3) -0.2865(7) -0.2469(3)
H8B H -0.3749 -0.2688 -0.3019
C18B C -0.2609(3) -0.2239(7) -0.2026(3)
H9B H -0.2268 -0.1556 -0.2209
C19B C -0.0034(3) -0.5826(6) 0.1240(3)
H10B H -0.0468 -0.6350 0.0811
C20B C 0.1040(3) -0.5308(7) 0.2391(3)
H11B H 0.1488 -0.5438 0.2906
C21B C 0.0817(3) -0.3958(7) 0.1998(3)
H12B H 0.1071 -0.2997 0.2187
N1B N -0.2373(3) -0.2801(5) -0.1250(2)
N2B N -0.3708(3) -0.3816(5) -0.1976(2)
N3B N 0.0129(3) -0.4280(5) 0.1250(2)
N4B N 0.0507(3) -0.6478(5) 0.1921(2)
C1C C -0.3815(3) 1.2114(6) -0.3880(3)
C2C C -0.2961(3) 1.1471(6) -0.3437(3)
H1C H -0.2703 1.1613 -0.2877
C3C C -0.2496(3) 1.0618(6) -0.3829(3)
C4C C -0.2901(3) 1.0343(6) -0.4656(3)
H2C H -0.2595 0.9745 -0.4914
C5C C -0.3761(3) 1.0956(6) -0.5102(3)
C6C C -0.4211(3) 1.1864(6) -0.4715(3)
H3C H -0.4778 1.2305 -0.5014
C7C C -0.4291(3) 1.3030(7) -0.3433(3)
C14C C -0.1586(3) 0.9895(6) -0.3347(3)
C15C C -0.4219(3) 1.0536(7) -0.5979(3)
O1C O -0.4196(3) 1.2585(4) -0.2724(2)
O2C O -0.4758(3) 1.4187(5) -0.3741(2)
O3C O -0.1183(2) 1.0262(4) -0.2617(2)
O4C O -0.1247(2) 0.8922(5) -0.3688(2)
O5C O -0.3803(3) 0.9653(6) -0.6293(2)
O6C O -0.4993(3) 1.1037(6) -0.6393(2)
Cd1B Cd 0.0000 -0.84835(6) 0.2500
Cd1B_2 Cd 1.0000 1.15165(6) 0.2500
Cd2B Cd -0.5000 -0.52040(6) -0.2500
Cd2B_2 Cd -0.5000 1.47960(6) -0.2500
Cd3_2 Cd -0.5000 0.95655(7) -0.7500
Cd3B Cd -0.5000 1.04345(7) -0.2500
Cd3B_2 Cd 0.5000 1.04345(7) -0.2500
N2A N 0.6292(3) 0.3816(5) 0.3024(2)
N4A N 0.0507(3) 0.6478(5) -0.3079(2)
O1A O 0.4196(3) 0.7415(4) 0.2724(2)
O2A O 0.4758(3) 0.5813(5) 0.3741(2)
O3B O 0.1183(2) 1.0262(4) -0.2383(2)
O4B O 0.1247(2) 0.8922(5) -0.1312(2)
O5B O 0.3803(3) 0.9653(6) 0.1293(2)
O5C_2 O 0.6197(3) 0.9653(6) 0.3707(2)
O6B O 0.4993(3) 1.1037(6) 0.1393(2)
O6C_2 O 0.5007(3) 1.1037(6) 0.3607(2)
O7 O 0.7721(4) 0.3540(7) 0.0379(4)
O9 O 0.7639(4) 0.7553(8) 0.3741(4)
O8? O 0.6261(12) 0.4185(18) 0.0306(8)
loop_
_geom_bond_atom_site_label_1
_geom_bond_atom_site_label_2
_geom_bond_site_symmetry_1
_geom_bond_site_symmetry_2
Cd1 N4 1_555 1_555
Cd2 N2 1_555 1_555
Cd3 O1 1_555 1_555
C1 C2 1_555 1_555
C2 H1 1_555 1_555
C3 C2 1_555 1_555
C4 C3 1_555 1_555
H2 C4 1_555 1_555
C5 C4 1_555 1_555
C6 C1 1_555 1_555
H3 C6 1_555 1_555
C7 C1 1_555 1_555
C8 C9 1_555 1_555
C9 H4 1_555 1_555
C10 C9 1_555 1_555
C11 C10 1_555 1_555
H5 C11 1_555 1_555
C12 C11 1_555 1_555
C13 C8 1_555 1_555
H6 C13 1_555 1_555
C14 C3 1_555 1_555
C15 C5 1_555 1_555
C16 H7 1_555 1_555
C17 H8 1_555 1_555
C18 C17 1_555 1_555
H9 C18 1_555 1_555
C19 H10 1_555 1_555
C20 H11 1_555 1_555
C21 C20 1_555 1_555
H12 C21 1_555 1_555
N1 C10 1_555 1_555
N2 C16 1_555 1_555
N3 C12 1_555 1_555
N4 C19 1_555 1_555
O1 Cd2 1_555 1_555
O2 Cd2 1_555 1_555
O3 C14 1_555 1_555
O4 C14 1_555 1_555
O5 C15 1_555 1_555
O6 C15 1_555 1_555
C8B C8 1_555 1_555
C9B C8B 1_555 1_555
H4B C9B 1_555 1_555
C10B C9B 1_555 1_555
C11B C10B 1_555 1_555
H5B C11B 1_555 1_555
C12B C11B 1_555 1_555
C13B C8B 1_555 1_555
H6B C13B 1_555 1_555
C16B H7B 1_555 1_555
C17B H8B 1_555 1_555
C18B C17B 1_555 1_555
H9B C18B 1_555 1_555
C19B H10B 1_555 1_555
C20B H11B 1_555 1_555
C21B C20B 1_555 1_555
H12B C21B 1_555 1_555
N1B C10B 1_555 1_555
N2B C16B 1_555 1_555
N3B C12B 1_555 1_555
N4B C19B 1_555 1_555
C1C C2C 1_555 1_555
C2C H1C 1_555 1_555
C3C C2C 1_555 1_555
C4C C3C 1_555 1_555
H2C C4C 1_555 1_555
C5C C4C 1_555 1_555
C6C C1C 1_555 1_555
H3C C6C 1_555 1_555
C7C C1C 1_555 1_555
C14C C3C 1_555 1_555
C15C C5C 1_555 1_555
O1C C7C 1_555 1_555
O2C C7C 1_555 1_555
O3C Cd1 1_555 1_555
O4C Cd1 1_555 1_555
O5C C15C 1_555 1_555
O6C C15C 1_555 1_555
Cd1B N4B 1_555 1_555
Cd1B_2 O3 1_555 1_555
Cd2B N2B 1_555 1_555
Cd2B_2 O1C 1_555 1_555
Cd3_2 O5C 1_555 1_555
Cd3B O1C 1_555 1_555
Cd3B_2 O5 1_555 1_555
N2A Cd2 1_555 1_555
N4A Cd1 1_555 1_555
O1A Cd2 1_555 1_555
O2A Cd2 1_555 1_555
O3B Cd1 1_555 1_555
O4B Cd1 1_555 1_555
O5B Cd3 1_555 1_555
O5C_2 Cd3 1_555 1_555
O6B Cd3 1_555 1_555
O6C_2 Cd3 1_555 1_555
Cd3 O1A 1_555 1_555
C5 C6 1_555 1_555
C7 O1 1_555 1_555
C7 O2 1_555 1_555
C12 C13 1_555 1_555
C16 N1 1_555 1_555
C17 N2 1_555 1_555
C18 N1 1_555 1_555
C19 N3 1_555 1_555
C20 N4 1_555 1_555
C21 N3 1_555 1_555
O4 Cd1B_2 1_555 1_555
O6 Cd3B_2 1_555 1_555
C12B C13B 1_555 1_555
C16B N1B 1_555 1_555
C17B N2B 1_555 1_555
C18B N1B 1_555 1_555
C19B N3B 1_555 1_555
C20B N4B 1_555 1_555
C21B N3B 1_555 1_555
C5C C6C 1_555 1_555
C14C O3C 1_555 1_555
C14C O4C 1_555 1_555
O2C Cd2B_2 1_555 1_555
O6C Cd3_2 1_555 1_555

#END
