
#######################################################################
#
#                 Cambridge Crystallographic Data Centre
#                                CCDC 
#
#######################################################################
#
# If this CIF has been generated from an entry in the Cambridge 
# Structural Database, then it will include bibliographic, chemical, 
# crystal, experimental, refinement or atomic coordinate data resulting 
# from the CCDC's data processing and validation procedures.
#
#######################################################################

data_HEXKIF
_symmetry_cell_setting           monoclinic
_symmetry_space_group_name_H-M   'P 21/c'
_symmetry_Int_Tables_number      14
_space_group_name_Hall           '-P 2ybc'
loop_
_symmetry_equiv_pos_site_id
_symmetry_equiv_pos_as_xyz
1 x,y,z
2 -x,1/2+y,1/2-z
3 -x,-y,-z
4 x,1/2-y,1/2+z
_cell_length_a                   13.267(2)
_cell_length_b                   19.111(4)
_cell_length_c                   14.501(3)
_cell_angle_alpha                90
_cell_angle_beta                 91.100(4)
_cell_angle_gamma                90
_cell_volume                     3675.99
loop_
_atom_site_label
_atom_site_type_symbol
_atom_site_fract_x
_atom_site_fract_y
_atom_site_fract_z
Co1 Co 0.75322(5) 0.06264(4) 0.75429(5)
C1 C 0.8967(4) -0.0269(3) 0.8802(4)
H1 H 0.8555 -0.0098 0.9262
C2 C 0.9730(5) -0.0719(3) 0.9059(5)
H2 H 0.9818 -0.0856 0.9671
C3 C 1.0360(4) -0.0961(3) 0.8390(5)
H3 H 1.0893 -0.1258 0.8541
C4 C 1.0187(4) -0.0758(3) 0.7504(4)
C5 C 0.9397(4) -0.0308(3) 0.7318(4)
H4 H 0.9289 -0.0166 0.6711
C6 C 1.0812(5) -0.0996(4) 0.6716(5)
C7 C 1.2258(5) -0.1593(4) 0.6256(4)
H5 H 1.1884 -0.1856 0.5791
H6 H 1.2552 -0.1186 0.5964
C8 C 0.9280(4) 0.1725(3) 0.7669(4)
H7 H 0.9119 0.1706 0.8290
C9 C 1.0093(4) 0.2133(3) 0.7423(5)
C10 C 1.0336(5) 0.2161(3) 0.6516(5)
H8 H 1.0883 0.2425 0.6328
C11 C 0.9772(5) 0.1800(3) 0.5893(5)
H9 H 0.9919 0.1819 0.5269
C12 C 0.8971(4) 0.1403(3) 0.6198(4)
H10 H 0.8592 0.1151 0.5766
C13 C 1.5633(4) 0.1537(3) 0.7781(4)
H11 H 1.5782 0.1430 0.8394
C14 C 1.4786(4) 0.1943(3) 0.7587(4)
C15 C 1.4558(4) 0.2088(3) 0.6683(4)
H12 H 1.3995 0.2355 0.6524
C16 C 1.5178(5) 0.1831(3) 0.6014(4)
H13 H 1.5041 0.1922 0.5394
C17 C 1.6000(4) 0.1440(3) 0.6276(4)
H14 H 1.6411 0.1269 0.5815
C18 C 1.4202(4) 0.2197(3) 0.8385(5)
C23 C 1.5775(4) -0.0458(3) 0.7424(4)
H23 H 1.5822 -0.0348 0.6802
C24 C 1.6296(4) -0.0302(3) 0.8896(4)
H24 H 1.6714 -0.0080 0.9327
C25 C 1.5609(5) -0.0783(3) 0.9211(5)
H25 H 1.5573 -0.0886 0.9836
C26 C 1.4987(4) -0.1103(3) 0.8591(5)
H26 H 1.4512 -0.1425 0.8787
C27 C 1.5064(4) -0.0947(3) 0.7676(5)
C28 C 1.4453(5) -0.1280(3) 0.6939(5)
C29 C 1.3021(5) -0.2014(3) 0.6660(5)
H27 H 1.3431 -0.2211 0.6178
H28 H 1.2713 -0.2398 0.6988
C30 C 0.7367(5) -0.0102(3) 0.5585(4)
C31 C 0.7539(4) 0.1410(3) 0.9488(4)
C32 C 1.0660(5) 0.2502(3) 0.8148(6)
C33 C 1.2844(4) 0.2888(3) 0.8845(5)
H29 H 1.3239 0.3184 0.9259
H30 H 1.2575 0.2502 0.9198
C34 C 1.2023(4) 0.3292(3) 0.8415(5)
H31 H 1.1598 0.3480 0.8892
H32 H 1.2304 0.3682 0.8079
N1 N 0.8717(3) 0.1362(2) 0.7081(3)
N2 N 0.8779(3) -0.0064(2) 0.7955(3)
N3 N 1.6396(3) -0.0137(2) 0.8016(3)
N4 N 1.6246(3) 0.1290(2) 0.7134(3)
N5 N 0.7482(3) 0.0170(2) 0.6273(3)
N6 N 0.7574(3) 0.1077(2) 0.8826(3)
O1 O 1.3661(3) -0.1622(2) 0.7294(3)
O2 O 1.3467(3) 0.26274(19) 0.8112(3)
O3 O 1.4369(3) 0.2034(2) 0.9167(3)
O4 O 1.0623(3) -0.0851(3) 0.5928(3)
O5 O 1.1586(3) -0.1374(2) 0.6996(3)
O6 O 1.4637(3) -0.1271(3) 0.6141(3)
O7 O 1.0480(3) 0.2483(3) 0.8945(4)
O8 O 1.1420(3) 0.2876(2) 0.7797(3)
S1 S 0.72221(18) -0.05065(11) 0.46217(13)
S2 S 0.74764(13) 0.18946(9) 1.03990(12)
Co1_2 Co 1.75322(5) 0.06264(4) 0.75429(5)
N3_2 N 0.6396(3) -0.0137(2) 0.8016(3)
N4_2 N 0.6246(3) 0.1290(2) 0.7134(3)
C19 C 0.2904(7) 0.0017(5) 0.8643(7)
H15 H 0.3531 0.0047 0.8996
H16 H 0.2759 -0.0473 0.8531
C20 C 0.1747(8) 0.0871(5) 0.8666(8)
H17 H 0.1900 0.1300 0.8996
H18 H 0.1020 0.0827 0.8610
C21 C 0.2183(7) 0.0896(5) 0.7750(7)
H19 H 0.2453 0.1357 0.7620
H20 H 0.1688 0.0775 0.7276
C22 C 0.3012(7) 0.0355(5) 0.7812(6)
H21 H 0.2950 0.0026 0.7306
H22 H 0.3667 0.0578 0.7787
O9 O 0.2138(5) 0.0308(5) 0.9144(4)
loop_
_geom_bond_atom_site_label_1
_geom_bond_atom_site_label_2
_geom_bond_site_symmetry_1
_geom_bond_site_symmetry_2
Co1 N1 1_555 1_555
C1 H1 1_555 1_555
C2 C1 1_555 1_555
H2 C2 1_555 1_555
C3 C2 1_555 1_555
H3 C3 1_555 1_555
C4 C3 1_555 1_555
C5 C4 1_555 1_555
H4 C5 1_555 1_555
C6 C4 1_555 1_555
C7 H5 1_555 1_555
H6 C7 1_555 1_555
C8 H7 1_555 1_555
C9 C8 1_555 1_555
C10 C9 1_555 1_555
H8 C10 1_555 1_555
C11 C10 1_555 1_555
H9 C11 1_555 1_555
C12 C11 1_555 1_555
H10 C12 1_555 1_555
C13 H11 1_555 1_555
C14 C13 1_555 1_555
C15 C14 1_555 1_555
H12 C15 1_555 1_555
C16 C15 1_555 1_555
H13 C16 1_555 1_555
C17 C16 1_555 1_555
H14 C17 1_555 1_555
C18 C14 1_555 1_555
C19 H15 1_555 1_555
H16 C19 1_555 1_555
C20 H17 1_555 1_555
H18 C20 1_555 1_555
C21 C20 1_555 1_555
H19 C21 1_555 1_555
H20 C21 1_555 1_555
C22 C19 1_555 1_555
H21 C22 1_555 1_555
H22 C22 1_555 1_555
C23 H23 1_555 1_555
C24 H24 1_555 1_555
C25 C24 1_555 1_555
H25 C25 1_555 1_555
C26 C25 1_555 1_555
H26 C26 1_555 1_555
C27 C23 1_555 1_555
C28 C27 1_555 1_555
C29 C7 1_555 1_555
H27 C29 1_555 1_555
H28 C29 1_555 1_555
C30 N5 1_555 1_555
C31 N6 1_555 1_555
C32 C9 1_555 1_555
C33 H29 1_555 1_555
H30 C33 1_555 1_555
C34 C33 1_555 1_555
H31 C34 1_555 1_555
H32 C34 1_555 1_555
N1 C8 1_555 1_555
N2 Co1 1_555 1_555
N3 C23 1_555 1_555
N4 C13 1_555 1_555
N5 Co1 1_555 1_555
N6 Co1 1_555 1_555
O1 C28 1_555 1_555
O2 C18 1_555 1_555
O3 C18 1_555 1_555
O4 C6 1_555 1_555
O5 C6 1_555 1_555
O6 C28 1_555 1_555
O7 C32 1_555 1_555
O8 C32 1_555 1_555
O9 C19 1_555 1_555
S1 C30 1_555 1_555
S2 C31 1_555 1_555
Co1_2 N3 1_555 1_555
N3_2 Co1 1_555 1_555
N4_2 Co1 1_555 1_555
C1 N2 1_555 1_555
C5 N2 1_555 1_555
C7 O5 1_555 1_555
C12 N1 1_555 1_555
C17 N4 1_555 1_555
C20 O9 1_555 1_555
C21 C22 1_555 1_555
C24 N3 1_555 1_555
C26 C27 1_555 1_555
C29 O1 1_555 1_555
C33 O2 1_555 1_555
C34 O8 1_555 1_555
N4 Co1_2 1_555 1_555

#END
