
#######################################################################
#
#                 Cambridge Crystallographic Data Centre
#                                CCDC 
#
#######################################################################
#
# If this CIF has been generated from an entry in the Cambridge 
# Structural Database, then it will include bibliographic, chemical, 
# crystal, experimental, refinement or atomic coordinate data resulting 
# from the CCDC's data processing and validation procedures.
#
#######################################################################

data_HEXLEC
_symmetry_cell_setting           monoclinic
_symmetry_space_group_name_H-M   'C 2/c'
_symmetry_Int_Tables_number      15
_space_group_name_Hall           '-C 2yn'
loop_
_symmetry_equiv_pos_site_id
_symmetry_equiv_pos_as_xyz
1 x,y,z
2 -x,y,1/2-z
3 1/2+x,1/2+y,z
4 1/2-x,1/2+y,1/2-z
5 -x,-y,-z
6 x,-y,1/2+z
7 1/2-x,1/2-y,-z
8 1/2+x,1/2-y,1/2+z
_cell_length_a                   24.6836(16)
_cell_length_b                   16.7300(10)
_cell_length_c                   18.9155(10)
_cell_angle_alpha                90.00
_cell_angle_beta                 116.116(2)
_cell_angle_gamma                90.00
_cell_volume                     7013.79
loop_
_atom_site_label
_atom_site_type_symbol
_atom_site_fract_x
_atom_site_fract_y
_atom_site_fract_z
Ni1 Ni 0.0000 0.5000 0.5000
Ni2 Ni 0.5000 0.5000 0.5000
C1 C 0.01392(14) 0.6516(2) 0.41062(19)
H1 H -0.0048 0.6852 0.4323
C2 C 0.03763(15) 0.6758(2) 0.36208(19)
H2 H 0.0382 0.7275 0.3444
C3 C 0.05012(14) 0.5477(2) 0.38264(19)
H3 H 0.0619 0.4953 0.3807
C4 C 0.09643(15) 0.6055(2) 0.29926(19)
H4 H 0.0767 0.6373 0.2518
H5 H 0.0984 0.5507 0.2837
C5 C 0.15962(15) 0.6367(2) 0.34714(19)
C6 C 0.17559(15) 0.7118(2) 0.33533(19)
H6 H 0.1478 0.7435 0.2954
C7 C 0.23297(15) 0.7415(2) 0.38229(19)
H7 H 0.2433 0.7926 0.3732
C8 C 0.27454(15) 0.6955(2) 0.4418(2)
C9 C 0.25853(15) 0.6191(2) 0.4526(2)
H8 H 0.2864 0.5869 0.4919
C10 C 0.20163(16) 0.5900(2) 0.4058(2)
H9 H 0.1914 0.5384 0.4138
C11 C 0.33656(14) 0.72808(19) 0.49496(19)
H10 H 0.3368 0.7855 0.4883
H11 H 0.3456 0.7174 0.5494
C12 C 0.39898(16) 0.7140(2) 0.4200(2)
H12 H 0.3853 0.7587 0.3877
C13 C 0.43867(16) 0.6588(2) 0.4191(2)
H13 H 0.4567 0.6590 0.3851
C14 C 0.41433(14) 0.6257(2) 0.50947(19)
H14 H 0.4123 0.5988 0.5513
C15 C -0.01750(16) 0.3678(2) 0.3773(2)
H15 H -0.0561 0.3857 0.3438
C16 C 0.01193(17) 0.3071(2) 0.3615(2)
H16 H -0.0022 0.2764 0.3158
C17 C 0.06801(16) 0.3570(2) 0.4754(2)
H17 H 0.1013 0.3662 0.5233
C18 C 0.11735(16) 0.2488(2) 0.4342(2)
H18 H 0.1022 0.1991 0.4059
H19 H 0.1413 0.2361 0.4893
C19 C 0.15663(17) 0.2901(2) 0.4026(2)
C20 C 0.20752(17) 0.3324(2) 0.4518(2)
H20 H 0.2181 0.3348 0.5054
C21 C 0.24296(16) 0.3712(2) 0.4225(2)
H21 H 0.2774 0.3986 0.4565
C22 C 0.22715(16) 0.3692(2) 0.3433(2)
C23 C 0.17624(16) 0.3282(2) 0.2942(2)
H22 H 0.1651 0.3269 0.2404
C24 C 0.14130(16) 0.2888(2) 0.3237(2)
H23 H 0.1070 0.2612 0.2896
C25 C 0.26302(15) 0.4125(2) 0.3079(2)
H24 H 0.2512 0.3926 0.2550
H25 H 0.2531 0.4689 0.3040
C26 C 0.36685(16) 0.4600(2) 0.3949(2)
H26 H 0.3556 0.5124 0.3982
C27 C 0.41889(17) 0.3548(2) 0.4099(2)
H27 H 0.4514 0.3198 0.4259
C28 C 0.36110(18) 0.3354(2) 0.3630(2)
H28 H 0.3465 0.2855 0.3414
C29 C -0.19629(13) 0.51873(18) 0.36795(17)
C30 C -0.19711(15) 0.5897(2) 0.32879(19)
C31 C -0.25078(16) 0.6308(2) 0.2884(2)
H29 H -0.2513 0.6774 0.2612
C32 C -0.30318(15) 0.6030(2) 0.2883(2)
H30 H -0.3390 0.6309 0.2610
C33 C -0.30304(14) 0.53361(19) 0.32860(18)
C34 C -0.25009(13) 0.49188(19) 0.36717(16)
H31 H -0.2501 0.4448 0.3933
C35 C -0.14027(15) 0.4680(2) 0.40480(19)
N1 N 0.01822(12) 0.39880(15) 0.44993(16)
N2 N 0.06605(13) 0.30001(16) 0.42545(18)
N3 N 0.32836(13) 0.40306(19) 0.35342(16)
N4 N 0.42270(12) 0.43358(16) 0.43060(16)
N5 N 0.02115(11) 0.57086(16) 0.42360(15)
N6 N 0.06064(11) 0.60863(18) 0.34423(15)
N7 N 0.38298(11) 0.69171(15) 0.47694(15)
N8 N 0.44835(11) 0.60273(16) 0.47594(15)
O1 O -0.09109(9) 0.50366(13) 0.41273(11)
O2 O -0.14416(10) 0.39852(15) 0.42114(16)
O3 O -0.14608(10) 0.62059(14) 0.32904(14)
H32 H -0.1177 0.5903 0.3528
O4 O -0.37476(11) 0.54077(16) 0.39472(15)
O5 O -0.41887(10) 0.52590(17) 0.25551(14)
O6 O -0.36642(11) 0.41591(15) 0.34039(17)
O7 O 0.51343(9) 0.51843(13) 0.39809(11)
H33 H 0.5449 0.5468 0.4107
H34 H 0.4831 0.5430 0.3638
S1 S -0.37099(4) 0.50037(6) 0.32942(5)
Ni2_2 Ni -0.5000 0.5000 0.5000
C1D C -0.01392(14) 0.3484(2) 0.58938(19)
H1D H 0.0048 0.3148 0.5677
C2D C -0.03763(15) 0.3242(2) 0.63792(19)
H2D H -0.0382 0.2725 0.6556
C3D C -0.05012(14) 0.4523(2) 0.61736(19)
H3D H -0.0619 0.5047 0.6193
C4D C -0.09643(15) 0.3945(2) 0.70074(19)
H4D H -0.0767 0.3627 0.7482
H5D H -0.0984 0.4493 0.7163
C5D C -0.15962(15) 0.3633(2) 0.65286(19)
C6D C -0.17559(15) 0.2882(2) 0.66467(19)
H6D H -0.1478 0.2565 0.7046
C7D C -0.23297(15) 0.2585(2) 0.61771(19)
H7D H -0.2433 0.2074 0.6268
C8D C -0.27454(15) 0.3045(2) 0.5582(2)
C9D C -0.25853(15) 0.3809(2) 0.5474(2)
H8D H -0.2864 0.4131 0.5081
C10D C -0.20163(16) 0.4100(2) 0.5942(2)
H9D H -0.1914 0.4616 0.5862
C11D C -0.33656(14) 0.27192(19) 0.50504(19)
H10D H -0.3368 0.2145 0.5117
H11D H -0.3456 0.2826 0.4506
C12D C -0.39898(16) 0.2860(2) 0.5800(2)
H12D H -0.3853 0.2413 0.6123
C13D C -0.43867(16) 0.3412(2) 0.5809(2)
H13D H -0.4567 0.3410 0.6149
C14D C -0.41433(14) 0.3743(2) 0.49053(19)
H14D H -0.4123 0.4012 0.4487
C15D C 0.01750(16) 0.6322(2) 0.6227(2)
H15D H 0.0561 0.6143 0.6562
C16D C -0.01193(17) 0.6929(2) 0.6385(2)
H16D H 0.0022 0.7236 0.6842
C17D C -0.06801(16) 0.6430(2) 0.5246(2)
H17D H -0.1013 0.6338 0.4767
C18D C -0.11735(16) 0.7512(2) 0.5658(2)
H18D H -0.1022 0.8009 0.5941
H19D H -0.1413 0.7639 0.5107
C19D C -0.15663(17) 0.7099(2) 0.5974(2)
C20D C -0.20752(17) 0.6676(2) 0.5482(2)
H20D H -0.2181 0.6652 0.4946
C21D C -0.24296(16) 0.6288(2) 0.5775(2)
H21D H -0.2774 0.6014 0.5435
C22D C -0.22715(16) 0.6308(2) 0.6567(2)
C23D C -0.17624(16) 0.6718(2) 0.7058(2)
H22D H -0.1651 0.6731 0.7596
C24D C -0.14130(16) 0.7112(2) 0.6763(2)
H23D H -0.1070 0.7388 0.7104
C25D C -0.26302(15) 0.5875(2) 0.6921(2)
H24D H -0.2512 0.6074 0.7450
H25D H -0.2531 0.5311 0.6960
C26D C -0.36685(16) 0.5400(2) 0.6051(2)
H26D H -0.3556 0.4876 0.6018
C27D C -0.41889(17) 0.6452(2) 0.5901(2)
H27D H -0.4514 0.6802 0.5741
C28D C -0.36110(18) 0.6646(2) 0.6370(2)
H28D H -0.3465 0.7145 0.6586
C29D C 0.19629(13) 0.48127(18) 0.63205(17)
C30D C 0.19711(15) 0.4103(2) 0.67121(19)
C31D C 0.25078(16) 0.3692(2) 0.7116(2)
H29D H 0.2513 0.3226 0.7388
C32D C 0.30318(15) 0.3970(2) 0.7117(2)
H30D H 0.3390 0.3691 0.7390
C33D C 0.30304(14) 0.46639(19) 0.67140(18)
C34D C 0.25009(13) 0.50812(19) 0.63283(16)
H31D H 0.2501 0.5552 0.6067
C35D C 0.14027(15) 0.5320(2) 0.59520(19)
N1D N -0.01822(12) 0.60120(15) 0.55007(16)
N2D N -0.06605(13) 0.69999(16) 0.57455(18)
N3D N -0.32836(13) 0.59694(19) 0.64658(16)
N4D N -0.42270(12) 0.56642(16) 0.56940(16)
N4D_2 N 0.57730(12) 0.56642(16) 0.56940(16)
N5D N -0.02115(11) 0.42914(16) 0.57640(15)
N6D N -0.06064(11) 0.39137(18) 0.65577(15)
N7D N -0.38298(11) 0.30829(15) 0.52306(15)
N8D N -0.44835(11) 0.39727(16) 0.52406(15)
N8D_2 N 0.55165(11) 0.39727(16) 0.52406(15)
O1D O 0.09109(9) 0.49634(13) 0.58727(11)
O2D O 0.14416(10) 0.60148(15) 0.57886(16)
O3D O 0.14608(10) 0.37941(14) 0.67096(14)
H32D H 0.1177 0.4097 0.6472
O4D O 0.37476(11) 0.45923(16) 0.60528(15)
O5D O 0.41887(10) 0.47410(17) 0.74449(14)
O6D O 0.36642(11) 0.58409(15) 0.65961(17)
O7D O 0.48657(9) 0.48157(13) 0.60191(11)
H33D H 0.4551 0.4532 0.5893
H34D H 0.5169 0.4570 0.6362
S1D S 0.37099(4) 0.49963(6) 0.67058(5)
O8 O 0.0000 0.8456(2) 0.2500
H36 H -0.0297 0.8660 0.2109
H36A H 0.0297 0.8660 0.2891
O9 O 0.0000 0.15126(18) 0.2500
H37 H 0.0000 0.1080 0.2735
H37A H 0.0000 0.1080 0.2265
H35? H 0.0321 0.8528 0.2447
H38? H 0.0313 0.1531 0.2421
loop_
_geom_bond_atom_site_label_1
_geom_bond_atom_site_label_2
_geom_bond_site_symmetry_1
_geom_bond_site_symmetry_2
Ni1 N1 1_555 1_555
Ni2 N4 1_555 1_555
C1 H1 1_555 1_555
C2 C1 1_555 1_555
H2 C2 1_555 1_555
C3 H3 1_555 1_555
C4 H4 1_555 1_555
H5 C4 1_555 1_555
C5 C4 1_555 1_555
C6 C5 1_555 1_555
H6 C6 1_555 1_555
C7 C6 1_555 1_555
H7 C7 1_555 1_555
C8 C7 1_555 1_555
C9 C8 1_555 1_555
H8 C9 1_555 1_555
C10 C5 1_555 1_555
H9 C10 1_555 1_555
C11 C8 1_555 1_555
H10 C11 1_555 1_555
H11 C11 1_555 1_555
C12 H12 1_555 1_555
C13 C12 1_555 1_555
H13 C13 1_555 1_555
C14 H14 1_555 1_555
C15 H15 1_555 1_555
C16 C15 1_555 1_555
H16 C16 1_555 1_555
C17 H17 1_555 1_555
C18 H18 1_555 1_555
H19 C18 1_555 1_555
C19 C18 1_555 1_555
C20 C19 1_555 1_555
H20 C20 1_555 1_555
C21 C20 1_555 1_555
H21 C21 1_555 1_555
C22 C21 1_555 1_555
C23 C22 1_555 1_555
H22 C23 1_555 1_555
C24 C19 1_555 1_555
H23 C24 1_555 1_555
C25 C22 1_555 1_555
H24 C25 1_555 1_555
H25 C25 1_555 1_555
C26 H26 1_555 1_555
C27 H27 1_555 1_555
C28 C27 1_555 1_555
H28 C28 1_555 1_555
C29 C30 1_555 1_555
C30 C31 1_555 1_555
C31 H29 1_555 1_555
C32 C31 1_555 1_555
H30 C32 1_555 1_555
C33 C32 1_555 1_555
C34 C29 1_555 1_555
H31 C34 1_555 1_555
C35 C29 1_555 1_555
N1 C15 1_555 1_555
N2 C16 1_555 1_555
N3 C25 1_555 1_555
N4 C26 1_555 1_555
N5 Ni1 1_555 1_555
N6 C2 1_555 1_555
N7 C11 1_555 1_555
N8 Ni2 1_555 1_555
O1 Ni1 1_555 1_555
O2 C35 1_555 1_555
O3 C30 1_555 1_555
H32 O3 1_555 1_555
O4 S1 1_555 1_555
O5 S1 1_555 1_555
O6 S1 1_555 1_555
O7 Ni2 1_555 1_555
H33 O7 1_555 1_555
H34 O7 1_555 1_555
O8 H36 1_555 1_555
O9 H37 1_555 1_555
S1 C33 1_555 1_555
Ni2_2 N4D 1_555 1_555
C1D H1D 1_555 1_555
C2D C1D 1_555 1_555
H2D C2D 1_555 1_555
C3D H3D 1_555 1_555
C4D H4D 1_555 1_555
H5D C4D 1_555 1_555
C5D C4D 1_555 1_555
C6D C5D 1_555 1_555
H6D C6D 1_555 1_555
C7D C6D 1_555 1_555
H7D C7D 1_555 1_555
C8D C7D 1_555 1_555
C9D C8D 1_555 1_555
H8D C9D 1_555 1_555
C10D C5D 1_555 1_555
H9D C10D 1_555 1_555
C11D C8D 1_555 1_555
H10D C11D 1_555 1_555
H11D C11D 1_555 1_555
C12D H12D 1_555 1_555
C13D C12D 1_555 1_555
H13D C13D 1_555 1_555
C14D H14D 1_555 1_555
C15D H15D 1_555 1_555
C16D C15D 1_555 1_555
H16D C16D 1_555 1_555
C17D H17D 1_555 1_555
C18D H18D 1_555 1_555
H19D C18D 1_555 1_555
C19D C18D 1_555 1_555
C20D C19D 1_555 1_555
H20D C20D 1_555 1_555
C21D C20D 1_555 1_555
H21D C21D 1_555 1_555
C22D C21D 1_555 1_555
C23D C22D 1_555 1_555
H22D C23D 1_555 1_555
C24D C19D 1_555 1_555
H23D C24D 1_555 1_555
C25D C22D 1_555 1_555
H24D C25D 1_555 1_555
H25D C25D 1_555 1_555
C26D H26D 1_555 1_555
C27D H27D 1_555 1_555
C28D C27D 1_555 1_555
H28D C28D 1_555 1_555
C29D C30D 1_555 1_555
C30D C31D 1_555 1_555
C31D H29D 1_555 1_555
C32D C31D 1_555 1_555
H30D C32D 1_555 1_555
C33D C32D 1_555 1_555
C34D C29D 1_555 1_555
H31D C34D 1_555 1_555
C35D C29D 1_555 1_555
N1D Ni1 1_555 1_555
N2D C16D 1_555 1_555
N3D C25D 1_555 1_555
N4D C26D 1_555 1_555
N4D_2 Ni2 1_555 1_555
N5D Ni1 1_555 1_555
N6D C2D 1_555 1_555
N7D C11D 1_555 1_555
N8D Ni2_2 1_555 1_555
N8D_2 Ni2 1_555 1_555
O1D Ni1 1_555 1_555
O2D C35D 1_555 1_555
O3D C30D 1_555 1_555
H32D O3D 1_555 1_555
O4D S1D 1_555 1_555
O5D S1D 1_555 1_555
O6D S1D 1_555 1_555
O7D Ni2 1_555 1_555
H33D O7D 1_555 1_555
H34D O7D 1_555 1_555
H36A O8 1_555 1_555
H37A O9 1_555 1_555
S1D C33D 1_555 1_555
C1 N5 1_555 1_555
C3 N5 1_555 1_555
C3 N6 1_555 1_555
C4 N6 1_555 1_555
C9 C10 1_555 1_555
C12 N7 1_555 1_555
C13 N8 1_555 1_555
C14 N7 1_555 1_555
C14 N8 1_555 1_555
C17 N1 1_555 1_555
C17 N2 1_555 1_555
C18 N2 1_555 1_555
C23 C24 1_555 1_555
C26 N3 1_555 1_555
C27 N4 1_555 1_555
C28 N3 1_555 1_555
C33 C34 1_555 1_555
C35 O1 1_555 1_555
C1D N5D 1_555 1_555
C3D N5D 1_555 1_555
C3D N6D 1_555 1_555
C4D N6D 1_555 1_555
C9D C10D 1_555 1_555
C12D N7D 1_555 1_555
C13D N8D 1_555 1_555
C14D N7D 1_555 1_555
C14D N8D 1_555 1_555
C15D N1D 1_555 1_555
C17D N1D 1_555 1_555
C17D N2D 1_555 1_555
C18D N2D 1_555 1_555
C23D C24D 1_555 1_555
C26D N3D 1_555 1_555
C27D N4D 1_555 1_555
C28D N3D 1_555 1_555
C33D C34D 1_555 1_555
C35D O1D 1_555 1_555

#END
