
#######################################################################
#
#                 Cambridge Crystallographic Data Centre
#                                CCDC 
#
#######################################################################
#
# If this CIF has been generated from an entry in the Cambridge 
# Structural Database, then it will include bibliographic, chemical, 
# crystal, experimental, refinement or atomic coordinate data resulting 
# from the CCDC's data processing and validation procedures.
#
#######################################################################

data_HEXLUS
_symmetry_cell_setting           triclinic
_symmetry_space_group_name_H-M   'P -1'
_symmetry_Int_Tables_number      2
_space_group_name_Hall           '-P 1'
loop_
_symmetry_equiv_pos_site_id
_symmetry_equiv_pos_as_xyz
1 x,y,z
2 -x,-y,-z
_cell_length_a                   9.1610(17)
_cell_length_b                   10.100(2)
_cell_length_c                   11.595(2)
_cell_angle_alpha                68.680(3)
_cell_angle_beta                 72.598(3)
_cell_angle_gamma                78.865(3)
_cell_volume                     949.369
loop_
_atom_site_label
_atom_site_type_symbol
_atom_site_fract_x
_atom_site_fract_y
_atom_site_fract_z
Ag1 Ag 0.5000 0.0000 0.0000
Ag2 Ag 0.5000 -0.5000 0.5000
C1 C 0.3148(7) 0.0428(6) -0.2018(6)
H1 H 0.3759 0.1106 -0.2661
C2 C 0.1957(7) -0.0091(6) -0.2147(6)
H2 H 0.1602 0.0161 -0.2878
C3 C 0.2224(6) -0.1083(5) -0.0197(5)
H3 H 0.2057 -0.1648 0.0659
C4 C 0.0158(6) -0.1964(5) -0.0659(6)
H4 H 0.0123 -0.2142 -0.1418
H5 H -0.0821 -0.1473 -0.0356
C5 C 0.0407(6) -0.3363(5) 0.0356(5)
C6 C -0.0561(7) -0.3665(6) 0.1534(7)
H6 H -0.1391 -0.3009 0.1699
C7 C -0.0342(6) -0.4965(6) 0.2534(5)
H7 H -0.1040 -0.5159 0.3331
C8 C 0.0899(5) -0.5928(5) 0.2319(5)
C9 C 0.1927(5) -0.5647(5) 0.1098(4)
C10 C 0.3206(6) -0.6630(5) 0.0815(5)
H8 H 0.3384 -0.7477 0.1454
C11 C 0.4170(6) -0.6352(5) -0.0374(5)
H9 H 0.4994 -0.7013 -0.0543
C12 C 0.3932(6) -0.5085(6) -0.1343(5)
H10 H 0.4605 -0.4903 -0.2151
C13 C 0.2739(6) -0.4122(5) -0.1121(5)
H11 H 0.2598 -0.3281 -0.1779
C14 C 0.1701(5) -0.4368(4) 0.0091(4)
C15 C 0.1158(6) -0.7263(6) 0.3423(5)
H12 H 0.0231 -0.7381 0.4115
H13 H 0.1358 -0.8090 0.3141
C16 C 0.4530(8) -0.7736(6) 0.4552(6)
H14 H 0.5425 -0.8225 0.4783
C17 C 0.3605(7) -0.8233(6) 0.4111(6)
H15 H 0.3744 -0.9111 0.3984
C18 C 0.2683(7) -0.6107(6) 0.4193(5)
H16 H 0.2051 -0.5257 0.4119
N1 N 0.1399(5) -0.1053(4) -0.0988(5)
N2 N 0.3299(5) -0.0204(4) -0.0799(4)
N3 N 0.3939(6) -0.6404(5) 0.4602(4)
N4 N 0.2438(5) -0.7197(4) 0.3894(4)
Ag2_2 Ag 0.5000 0.5000 -0.5000
C1A C 0.6852(7) -0.0428(6) 0.2018(6)
H1A H 0.6241 -0.1106 0.2661
C2A C 0.8043(7) 0.0091(6) 0.2147(6)
H2A H 0.8398 -0.0161 0.2878
C3A C 0.7776(6) 0.1083(5) 0.0197(5)
H3A H 0.7943 0.1648 -0.0659
C4A C 0.9842(6) 0.1964(5) 0.0659(6)
H4A H 0.9877 0.2142 0.1418
H5A H 1.0821 0.1473 0.0356
C5A C 0.9593(6) 0.3363(5) -0.0356(5)
C6A C 1.0561(7) 0.3665(6) -0.1534(7)
H6A H 1.1391 0.3009 -0.1699
C7A C 1.0342(6) 0.4965(6) -0.2534(5)
H7A H 1.1040 0.5159 -0.3331
C8A C 0.9101(5) 0.5928(5) -0.2319(5)
C9A C 0.8073(5) 0.5647(5) -0.1098(4)
C10A C 0.6794(6) 0.6630(5) -0.0815(5)
H8A H 0.6616 0.7477 -0.1454
C11A C 0.5830(6) 0.6352(5) 0.0374(5)
H9A H 0.5006 0.7013 0.0543
C12A C 0.6068(6) 0.5085(6) 0.1343(5)
H10A H 0.5395 0.4903 0.2151
C13A C 0.7261(6) 0.4122(5) 0.1121(5)
H11A H 0.7402 0.3281 0.1779
C14A C 0.8299(5) 0.4368(4) -0.0091(4)
C15A C 0.8842(6) 0.7263(6) -0.3423(5)
H12A H 0.9769 0.7381 -0.4115
H13A H 0.8642 0.8090 -0.3141
C16A C 0.5470(8) 0.7736(6) -0.4552(6)
H14A H 0.4575 0.8225 -0.4783
C17A C 0.6395(7) 0.8233(6) -0.4111(6)
H15A H 0.6256 0.9111 -0.3984
C18A C 0.7317(7) 0.6107(6) -0.4193(5)
H16A H 0.7949 0.5257 -0.4119
N1A N 0.8601(5) 0.1053(4) 0.0988(5)
N2A N 0.6701(5) 0.0204(4) 0.0799(4)
N3A N 0.6061(6) 0.6404(5) -0.4602(4)
N3A_2 N 0.6061(6) -0.3596(5) 0.5398(4)
N4A N 0.7562(5) 0.7197(4) -0.3894(4)
O1 O 0.3612(8) 0.7596(7) 0.2732(7)
O2 O 0.2233(12) 0.9638(6) 0.2569(8)
O3 O 0.1055(8) 0.7648(9) 0.3424(7)
O4 O 0.2367(7) 0.8106(12) 0.4525(6)
Cl1 Cl 0.22989(17) 0.82623(15) 0.33388(14)
loop_
_geom_bond_atom_site_label_1
_geom_bond_atom_site_label_2
_geom_bond_site_symmetry_1
_geom_bond_site_symmetry_2
Ag1 N2 1_555 1_555
Ag2 N3 1_555 1_555
C1 H1 1_555 1_555
C2 C1 1_555 1_555
H2 C2 1_555 1_555
C3 H3 1_555 1_555
C4 H4 1_555 1_555
H5 C4 1_555 1_555
C5 C4 1_555 1_555
C6 C5 1_555 1_555
H6 C6 1_555 1_555
C7 C6 1_555 1_555
H7 C7 1_555 1_555
C8 C7 1_555 1_555
C9 C8 1_555 1_555
C10 C9 1_555 1_555
H8 C10 1_555 1_555
C11 C10 1_555 1_555
H9 C11 1_555 1_555
C12 C11 1_555 1_555
H10 C12 1_555 1_555
C13 C12 1_555 1_555
H11 C13 1_555 1_555
C14 C5 1_555 1_555
C15 C8 1_555 1_555
H12 C15 1_555 1_555
H13 C15 1_555 1_555
C16 H14 1_555 1_555
C17 C16 1_555 1_555
H15 C17 1_555 1_555
C18 H16 1_555 1_555
N1 C2 1_555 1_555
N2 C1 1_555 1_555
N3 C16 1_555 1_555
N4 C15 1_555 1_555
O1 Cl1 1_555 1_555
O2 Cl1 1_555 1_555
O3 Cl1 1_555 1_555
O4 Cl1 1_555 1_555
Ag2_2 N3A 1_555 1_555
C1A H1A 1_555 1_555
C2A C1A 1_555 1_555
H2A C2A 1_555 1_555
C3A H3A 1_555 1_555
C4A H4A 1_555 1_555
H5A C4A 1_555 1_555
C5A C4A 1_555 1_555
C6A C5A 1_555 1_555
H6A C6A 1_555 1_555
C7A C6A 1_555 1_555
H7A C7A 1_555 1_555
C8A C7A 1_555 1_555
C9A C8A 1_555 1_555
C10A C9A 1_555 1_555
H8A C10A 1_555 1_555
C11A C10A 1_555 1_555
H9A C11A 1_555 1_555
C12A C11A 1_555 1_555
H10A C12A 1_555 1_555
C13A C12A 1_555 1_555
H11A C13A 1_555 1_555
C14A C5A 1_555 1_555
C15A C8A 1_555 1_555
H12A C15A 1_555 1_555
H13A C15A 1_555 1_555
C16A H14A 1_555 1_555
C17A C16A 1_555 1_555
H15A C17A 1_555 1_555
C18A H16A 1_555 1_555
N1A C2A 1_555 1_555
N2A Ag1 1_555 1_555
N3A C16A 1_555 1_555
N3A_2 Ag2 1_555 1_555
N4A C15A 1_555 1_555
C3 N1 1_555 1_555
C3 N2 1_555 1_555
C4 N1 1_555 1_555
C9 C14 1_555 1_555
C13 C14 1_555 1_555
C17 N4 1_555 1_555
C18 N3 1_555 1_555
C18 N4 1_555 1_555
C1A N2A 1_555 1_555
C3A N1A 1_555 1_555
C3A N2A 1_555 1_555
C4A N1A 1_555 1_555
C9A C14A 1_555 1_555
C13A C14A 1_555 1_555
C17A N4A 1_555 1_555
C18A N3A 1_555 1_555
C18A N4A 1_555 1_555

#END
