
#######################################################################
#
#                 Cambridge Crystallographic Data Centre
#                                CCDC 
#
#######################################################################
#
# If this CIF has been generated from an entry in the Cambridge 
# Structural Database, then it will include bibliographic, chemical, 
# crystal, experimental, refinement or atomic coordinate data resulting 
# from the CCDC's data processing and validation procedures.
#
#######################################################################

data_HEXMUT
_symmetry_cell_setting           orthorhombic
_symmetry_space_group_name_H-M   'P n a 21'
_symmetry_Int_Tables_number      33
_space_group_name_Hall           'P 2c -2n'
loop_
_symmetry_equiv_pos_site_id
_symmetry_equiv_pos_as_xyz
1 x,y,z
2 -x,-y,1/2+z
3 1/2+x,1/2-y,z
4 1/2-x,1/2+y,1/2+z
_cell_length_a                   16.0252(18)
_cell_length_b                   16.1862(18)
_cell_length_c                   13.4509(15)
_cell_angle_alpha                90
_cell_angle_beta                 90
_cell_angle_gamma                90
_cell_volume                     3488.99
loop_
_atom_site_label
_atom_site_type_symbol
_atom_site_fract_x
_atom_site_fract_y
_atom_site_fract_z
Co1 Co 0.48993(2) 0.25157(3) 0.92040(6)
S1 S 0.66784(5) 0.13588(6) 0.87937(8)
C1 C 0.6353(2) 0.0783(2) 1.4029(3)
H1 H 0.6390 0.0211 1.3994
C2 C 0.6675(2) 0.1270(3) 1.3242(3)
H2 H 0.6913 0.1010 1.2695
C3 C 0.6642(2) 0.2112(2) 1.3269(3)
C4 C 0.62328(19) 0.2510(2) 1.4097(4)
C5 C 0.6160(2) 0.3377(2) 1.4168(4)
H3 H 0.6385 0.3707 1.3669
C6 C 0.5768(3) 0.3741(3) 1.4952(3)
H4 H 0.5715 0.4313 1.4973
C7 C 0.5442(2) 0.3263(2) 1.5727(3)
H5 H 0.5180 0.3515 1.6264
C8 C 0.5513(2) 0.2428(2) 1.5688(3)
H6 H 0.5294 0.2114 1.6206
C9 C 0.5907(2) 0.2019(2) 1.4887(3)
C10 C 0.5991(2) 0.1142(2) 1.4831(3)
C11 C 0.5687(3) 0.0633(2) 1.5712(3)
H7 H 0.5967 0.0820 1.6310
H8 H 0.5093 0.0722 1.5800
C12 C 0.5310(2) -0.0787(2) 1.5165(3)
H9 H 0.4760 -0.0666 1.5000
C13 C 0.6592(3) -0.0645(3) 1.5701(3)
H10 H 0.7080 -0.0430 1.5972
C14 C 0.6469(2) -0.1424(2) 1.5342(3)
H11 H 0.6875 -0.1834 1.5318
C15 C 0.7053(2) 0.2595(3) 1.2445(3)
H12 H 0.7361 0.3051 1.2734
H13 H 0.7451 0.2239 1.2110
C16 C 0.6864(2) 0.6344(3) 1.0247(3)
H14 H 0.7116 0.6084 1.0785
C17 C 0.6488(2) 0.5864(2) 0.9520(3)
H15 H 0.6495 0.5292 0.9585
C18 C 0.6110(2) 0.6208(2) 0.8711(3)
C19 C 0.6079(2) 0.7093(2) 0.8640(3)
C20 C 0.5672(2) 0.7497(2) 0.7837(3)
H16 H 0.5417 0.7182 0.7346
C21 C 0.5646(2) 0.8339(2) 0.7773(3)
H17 H 0.5371 0.8591 0.7245
C22 C 0.6036(2) 0.8825(2) 0.8502(3)
H18 H 0.6022 0.9398 0.8454
C23 C 0.6434(2) 0.8458(2) 0.9281(3)
H19 H 0.6690 0.8787 0.9758
C24 C 0.64695(19) 0.7582(2) 0.9383(3)
C25 C 0.6874(2) 0.7186(2) 1.0197(3)
C26 C 0.7299(2) 0.7664(2) 1.1016(3)
H20 H 0.7706 0.7311 1.1338
H21 H 0.7595 0.8129 1.0727
C27 C 0.6328(2) 0.7481(2) 1.2428(3)
H22 H 0.6425 0.6917 1.2489
C28 C 0.5845(2) 0.8703(2) 1.2647(3)
H23 H 0.5536 0.9144 1.2895
C29 C 0.6410(3) 0.8752(2) 1.1899(3)
H24 H 0.6562 0.9224 1.1550
C30 C 0.5199(2) 0.4306(2) 0.8314(3)
H25 H 0.4650 0.4469 0.8423
C31 C 0.6515(2) 0.4352(2) 0.7932(3)
H26 H 0.7039 0.4539 0.7735
C32 C 0.6313(2) 0.3577(2) 0.8191(3)
H27 H 0.6679 0.3131 0.8201
C33 C 0.5732(2) 0.5713(2) 0.7883(3)
H28 H 0.5145 0.5853 0.7829
H29 H 0.5999 0.5869 0.7263
C34 C 0.5683(2) 0.3719(2) 1.0786(3)
H30 H 0.5426 0.4184 1.0519
C35 C 0.6237(2) 0.3730(2) 1.1542(3)
H31 H 0.6429 0.4192 1.1884
C36 C 0.6033(2) 0.2471(2) 1.1041(3)
H32 H 0.6072 0.1899 1.0994
N1 N 0.55552(18) 0.29229(18) 1.0469(2)
N2 N 0.64602(18) 0.2924(2) 1.1704(2)
N3 N 0.56691(18) -0.15146(18) 1.5023(2)
N4 N 0.58425(19) -0.02470(19) 1.5579(2)
N5 N 0.54771(17) 0.35446(18) 0.8440(2)
N6 N 0.58091(19) 0.48127(18) 0.8011(3)
N7 N 0.57976(17) 0.78972(18) 1.2984(2)
N8 N 0.67124(18) 0.7971(2) 1.1759(2)
O1 O 0.58404(14) 0.17059(15) 0.8750(2)
O2 O 0.38482(17) 0.33322(18) 0.9580(2)
O3 O 0.6927(2) 0.1085(3) 0.7792(3)
O5 O 0.66862(18) 0.06655(16) 0.9491(2)
O7 O 0.72723(15) 0.19754(15) 0.9134(3)
H34 H 0.3381(17) 0.326(3) 0.929(4)
H36 H 0.374(5) 0.354(4) 1.015(3)
Co1A Co 0.51007(2) -0.25157(3) 1.42040(6)
Co1A_2 Co 0.51007(2) 0.74843(3) 1.42040(6)
N3A N 0.43309(18) 0.15146(18) 1.0023(2)
N7A N 0.42024(17) 0.21028(18) 0.7984(2)
O4 O 0.7861(4) 0.0485(4) 1.0907(4)
H35 H 0.7347(11) 0.047(4) 1.075(5)
H37 H 0.807(4) 0.051(5) 1.033(2)
O6 O 0.8200(3) 0.0115(3) 0.8146(4)
H33 H 0.810(4) 0.0632(8) 0.807(10)
H38 H 0.7758(15) -0.014(2) 0.796(3)
loop_
_geom_bond_atom_site_label_1
_geom_bond_atom_site_label_2
_geom_bond_site_symmetry_1
_geom_bond_site_symmetry_2
Co1 N1 1_555 1_555
S1 O1 1_555 1_555
C1 H1 1_555 1_555
C2 C1 1_555 1_555
H2 C2 1_555 1_555
C3 C2 1_555 1_555
C4 C3 1_555 1_555
C5 C4 1_555 1_555
H3 C5 1_555 1_555
C6 C5 1_555 1_555
H4 C6 1_555 1_555
C7 C6 1_555 1_555
H5 C7 1_555 1_555
C8 C7 1_555 1_555
H6 C8 1_555 1_555
C9 C4 1_555 1_555
C10 C1 1_555 1_555
C11 C10 1_555 1_555
H7 C11 1_555 1_555
H8 C11 1_555 1_555
C12 H9 1_555 1_555
C13 H10 1_555 1_555
C14 C13 1_555 1_555
H11 C14 1_555 1_555
C15 C3 1_555 1_555
H12 C15 1_555 1_555
H13 C15 1_555 1_555
C16 H14 1_555 1_555
C17 C16 1_555 1_555
H15 C17 1_555 1_555
C18 C17 1_555 1_555
C19 C18 1_555 1_555
C20 C19 1_555 1_555
H16 C20 1_555 1_555
C21 C20 1_555 1_555
H17 C21 1_555 1_555
C22 C21 1_555 1_555
H18 C22 1_555 1_555
C23 C22 1_555 1_555
H19 C23 1_555 1_555
C24 C19 1_555 1_555
C25 C16 1_555 1_555
C26 C25 1_555 1_555
H20 C26 1_555 1_555
H21 C26 1_555 1_555
C27 H22 1_555 1_555
C28 H23 1_555 1_555
C29 C28 1_555 1_555
H24 C29 1_555 1_555
C30 H25 1_555 1_555
C31 H26 1_555 1_555
C32 C31 1_555 1_555
H27 C32 1_555 1_555
C33 C18 1_555 1_555
H28 C33 1_555 1_555
H29 C33 1_555 1_555
C34 H30 1_555 1_555
C35 C34 1_555 1_555
H31 C35 1_555 1_555
C36 H32 1_555 1_555
N1 C34 1_555 1_555
N2 C15 1_555 1_555
N3 C12 1_555 1_555
N4 C11 1_555 1_555
N5 Co1 1_555 1_555
N6 C30 1_555 1_555
N7 C27 1_555 1_555
N8 C26 1_555 1_555
O1 Co1 1_555 1_555
O2 Co1 1_555 1_555
O3 S1 1_555 1_555
O4 H35 1_555 1_555
O5 S1 1_555 1_555
O6 H33 1_555 1_555
O7 S1 1_555 1_555
H34 O2 1_555 1_555
H36 O2 1_555 1_555
H37 O4 1_555 1_555
H38 O6 1_555 1_555
Co1A N3 1_555 1_555
Co1A_2 N7 1_555 1_555
N3A Co1 1_555 1_555
N7A Co1 1_555 1_555
C8 C9 1_555 1_555
C9 C10 1_555 1_555
C12 N4 1_555 1_555
C13 N4 1_555 1_555
C14 N3 1_555 1_555
C23 C24 1_555 1_555
C24 C25 1_555 1_555
C27 N8 1_555 1_555
C28 N7 1_555 1_555
C29 N8 1_555 1_555
C30 N5 1_555 1_555
C31 N6 1_555 1_555
C32 N5 1_555 1_555
C33 N6 1_555 1_555
C35 N2 1_555 1_555
C36 N1 1_555 1_555
C36 N2 1_555 1_555

#END
