
#######################################################################
#
#                 Cambridge Crystallographic Data Centre
#                                CCDC 
#
#######################################################################
#
# If this CIF has been generated from an entry in the Cambridge 
# Structural Database, then it will include bibliographic, chemical, 
# crystal, experimental, refinement or atomic coordinate data resulting 
# from the CCDC's data processing and validation procedures.
#
#######################################################################

data_HEXMON
_symmetry_cell_setting           orthorhombic
_symmetry_space_group_name_H-M   'P b c n'
_symmetry_Int_Tables_number      60
_space_group_name_Hall           '-P 2n 2ab'
loop_
_symmetry_equiv_pos_site_id
_symmetry_equiv_pos_as_xyz
1 x,y,z
2 1/2-x,1/2-y,1/2+z
3 -x,y,1/2-z
4 1/2+x,1/2-y,-z
5 -x,-y,-z
6 1/2+x,1/2+y,1/2-z
7 x,-y,1/2+z
8 1/2-x,1/2+y,z
_cell_length_a                   14.0403(2)
_cell_length_b                   15.5071(2)
_cell_length_c                   16.1866(3)
_cell_angle_alpha                90
_cell_angle_beta                 90
_cell_angle_gamma                90
_cell_volume                     3524.22
loop_
_atom_site_label
_atom_site_type_symbol
_atom_site_fract_x
_atom_site_fract_y
_atom_site_fract_z
Co1 Co 0.0000 0.0000 0.5000
C1 C -0.1286(2) 0.18732(17) 0.33856(16)
H1 H -0.1494 0.2071 0.2874
C2 C -0.10086(19) 0.10673(16) 0.35710(15)
H2 H -0.0993 0.0608 0.3201
C3 C -0.08782(15) 0.18060(14) 0.46776(14)
H3 H -0.0758 0.1968 0.5221
C4 C -0.13407(16) 0.32747(15) 0.41971(15)
H4 H -0.1447 0.3396 0.4778
H5 H -0.1907 0.3449 0.3898
C5 C -0.05065(16) 0.38078(14) 0.38983(13)
C6 C -0.05792(16) 0.47324(15) 0.39646(12)
C7 C -0.13840(18) 0.51377(16) 0.43139(15)
H6 H -0.1880 0.4800 0.4515
C8 C -0.1452(2) 0.60160(17) 0.43629(17)
H7 H -0.1985 0.6271 0.4601
C9 C -0.0712(2) 0.65277(17) 0.40528(17)
H8 H -0.0764 0.7125 0.4079
C10 C 0.00771(17) 0.61677(16) 0.37147(16)
H9 H 0.0560 0.6522 0.3515
C11 C 0.01777(16) 0.52563(16) 0.36613(14)
C12 C 0.09870(16) 0.48537(15) 0.33091(13)
C13 C 0.10361(17) 0.39798(17) 0.32632(14)
H10 H 0.1570 0.3723 0.3030
C14 C 0.02858(17) 0.34518(16) 0.35658(15)
H11 H 0.0340 0.2855 0.3535
C15 C 0.18136(17) 0.53751(18) 0.29601(14)
H12 H 0.2132 0.5036 0.2539
H13 H 0.1564 0.5890 0.2698
C16 C 0.27344(17) 0.64373(16) 0.38504(16)
H14 H 0.2442 0.6947 0.3685
C17 C 0.31121(16) 0.50915(15) 0.39862(14)
H15 H 0.3108 0.4496 0.3919
C18 C 0.34626(17) 0.63579(16) 0.43963(16)
H16 H 0.3754 0.6813 0.4673
N1 N -0.07506(13) 0.10228(12) 0.43887(11)
N2 N -0.12039(14) 0.23445(12) 0.40917(11)
N3 N 0.25165(13) 0.56296(12) 0.35938(11)
N4 N 0.37038(13) 0.55057(12) 0.44783(11)
O1 O 0.01979(14) 0.08648(13) 0.60108(11)
H17 H 0.0717(14) 0.087(2) 0.6273(18)
H18 H -0.023(2) 0.090(2) 0.6375(19)
Co1G Co 0.5000 0.5000 0.5000
Co1G_2 Co -0.5000 -0.5000 0.5000
C1D C 0.1286(2) -0.18732(17) 0.66144(16)
H1D H 0.1494 -0.2071 0.7126
C2D C 0.10086(19) -0.10673(16) 0.64290(15)
H2D H 0.0993 -0.0608 0.6799
C3D C 0.08782(15) -0.18060(14) 0.53224(14)
H3D H 0.0758 -0.1968 0.4779
C4D C 0.13407(16) -0.32747(15) 0.58029(15)
H4D H 0.1447 -0.3396 0.5222
H5D H 0.1907 -0.3449 0.6102
C5D C 0.05065(16) -0.38078(14) 0.61017(13)
C6D C 0.05792(16) -0.47324(15) 0.60354(12)
C7D C 0.13840(18) -0.51377(16) 0.56861(15)
H6D H 0.1880 -0.4800 0.5485
C8D C 0.1452(2) -0.60160(17) 0.56371(17)
H7D H 0.1985 -0.6271 0.5399
C9D C 0.0712(2) -0.65277(17) 0.59472(17)
H8D H 0.0764 -0.7125 0.5921
C10D C -0.00771(17) -0.61677(16) 0.62853(16)
H9D H -0.0560 -0.6522 0.6485
C11D C -0.01777(16) -0.52563(16) 0.63387(14)
C12D C -0.09870(16) -0.48537(15) 0.66909(13)
C13D C -0.10361(17) -0.39798(17) 0.67368(14)
H10D H -0.1570 -0.3723 0.6970
C14D C -0.02858(17) -0.34518(16) 0.64342(15)
H11D H -0.0340 -0.2855 0.6465
C15D C -0.18136(17) -0.53751(18) 0.70399(14)
H12D H -0.2132 -0.5036 0.7461
H13D H -0.1564 -0.5890 0.7302
C16D C -0.27344(17) -0.64373(16) 0.61496(16)
H14D H -0.2442 -0.6947 0.6315
C17D C -0.31121(16) -0.50915(15) 0.60138(14)
H15D H -0.3108 -0.4496 0.6081
C18D C -0.34626(17) -0.63579(16) 0.56037(16)
H16D H -0.3754 -0.6813 0.5327
N1D N 0.07506(13) -0.10228(12) 0.56113(11)
N2D N 0.12039(14) -0.23445(12) 0.59083(11)
N3D N -0.25165(13) -0.56296(12) 0.64062(11)
N4D N -0.37038(13) -0.55057(12) 0.55217(11)
N4G N 0.12962(13) 0.05057(12) 0.44783(11)
N4C N -0.12962(13) -0.05057(12) 0.55217(11)
O1D O -0.01979(14) -0.08648(13) 0.39892(11)
H17D H -0.0717(14) -0.087(2) 0.3727(18)
H18D H 0.023(2) -0.090(2) 0.3625(19)
N5 N 0.14887(17) 0.16729(16) 0.75947(14)
O2 O 0.1836(4) 0.2284(5) 0.7193(3)
O3 O 0.1350(4) 0.1850(3) 0.8312(2)
O4 O 0.1511(6) 0.0984(3) 0.7289(4)
O5? O 0.1781(6) 0.1608(9) 0.6862(6)
O6? O 0.1652(14) 0.2004(12) 0.8280(9)
O7? O 0.0896(9) 0.0961(7) 0.7601(4)
loop_
_geom_bond_atom_site_label_1
_geom_bond_atom_site_label_2
_geom_bond_site_symmetry_1
_geom_bond_site_symmetry_2
Co1 N1 1_555 1_555
C1 H1 1_555 1_555
C2 C1 1_555 1_555
H2 C2 1_555 1_555
C3 H3 1_555 1_555
C4 H4 1_555 1_555
H5 C4 1_555 1_555
C5 C4 1_555 1_555
C6 C5 1_555 1_555
C7 C6 1_555 1_555
H6 C7 1_555 1_555
C8 C7 1_555 1_555
H7 C8 1_555 1_555
C9 C8 1_555 1_555
H8 C9 1_555 1_555
C10 C9 1_555 1_555
H9 C10 1_555 1_555
C11 C6 1_555 1_555
C12 C11 1_555 1_555
C13 C12 1_555 1_555
H10 C13 1_555 1_555
C14 C5 1_555 1_555
H11 C14 1_555 1_555
C15 C12 1_555 1_555
H12 C15 1_555 1_555
H13 C15 1_555 1_555
C16 H14 1_555 1_555
C17 H15 1_555 1_555
C18 C16 1_555 1_555
H16 C18 1_555 1_555
N1 C2 1_555 1_555
N2 C1 1_555 1_555
N3 C15 1_555 1_555
N4 C17 1_555 1_555
N5 O2 1_555 1_555
O1 Co1 1_555 1_555
H17 O1 1_555 1_555
H18 O1 1_555 1_555
O3 N5 1_555 1_555
O4 N5 1_555 1_555
Co1G N4 1_555 1_555
Co1G_2 N4D 1_555 1_555
C1D H1D 1_555 1_555
C2D C1D 1_555 1_555
H2D C2D 1_555 1_555
C3D H3D 1_555 1_555
C4D H4D 1_555 1_555
H5D C4D 1_555 1_555
C5D C4D 1_555 1_555
C6D C5D 1_555 1_555
C7D C6D 1_555 1_555
H6D C7D 1_555 1_555
C8D C7D 1_555 1_555
H7D C8D 1_555 1_555
C9D C8D 1_555 1_555
H8D C9D 1_555 1_555
C10D C9D 1_555 1_555
H9D C10D 1_555 1_555
C11D C6D 1_555 1_555
C12D C11D 1_555 1_555
C13D C12D 1_555 1_555
H10D C13D 1_555 1_555
C14D C5D 1_555 1_555
H11D C14D 1_555 1_555
C15D C12D 1_555 1_555
H12D C15D 1_555 1_555
H13D C15D 1_555 1_555
C16D H14D 1_555 1_555
C17D H15D 1_555 1_555
C18D C16D 1_555 1_555
H16D C18D 1_555 1_555
N1D Co1 1_555 1_555
N2D C1D 1_555 1_555
N3D C15D 1_555 1_555
N4D C17D 1_555 1_555
N4G Co1 1_555 1_555
N4C Co1 1_555 1_555
O1D Co1 1_555 1_555
H17D O1D 1_555 1_555
H18D O1D 1_555 1_555
C3 N1 1_555 1_555
C3 N2 1_555 1_555
C4 N2 1_555 1_555
C10 C11 1_555 1_555
C13 C14 1_555 1_555
C16 N3 1_555 1_555
C17 N3 1_555 1_555
C18 N4 1_555 1_555
C2D N1D 1_555 1_555
C3D N1D 1_555 1_555
C3D N2D 1_555 1_555
C4D N2D 1_555 1_555
C10D C11D 1_555 1_555
C13D C14D 1_555 1_555
C16D N3D 1_555 1_555
C17D N3D 1_555 1_555
C18D N4D 1_555 1_555

#END
