
#######################################################################
#
#                 Cambridge Crystallographic Data Centre
#                                CCDC 
#
#######################################################################
#
# If this CIF has been generated from an entry in the Cambridge 
# Structural Database, then it will include bibliographic, chemical, 
# crystal, experimental, refinement or atomic coordinate data resulting 
# from the CCDC's data processing and validation procedures.
#
#######################################################################

data_HEXMII
_symmetry_cell_setting           triclinic
_symmetry_space_group_name_H-M   'P -1'
_symmetry_Int_Tables_number      2
_space_group_name_Hall           '-P 1'
loop_
_symmetry_equiv_pos_site_id
_symmetry_equiv_pos_as_xyz
1 x,y,z
2 -x,-y,-z
_cell_length_a                   7.6841(3)
_cell_length_b                   7.8489(4)
_cell_length_c                   11.6620(7)
_cell_angle_alpha                85.920(3)
_cell_angle_beta                 82.190(3)
_cell_angle_gamma                70.240(3)
_cell_volume                     655.56
loop_
_atom_site_label
_atom_site_type_symbol
_atom_site_fract_x
_atom_site_fract_y
_atom_site_fract_z
Mg1 Mg 0.27962(14) 0.85574(14) 0.26560(10)
O1 O 0.3138(3) 1.1079(3) 0.2708(2)
C1 C 0.1888(5) 0.7747(5) 0.4380(3)
H1 H 0.1071 0.7028 0.4312
H2 H 0.2998 0.6937 0.4723
O2 O 0.5700(3) 0.7186(3) 0.24214(18)
C2 C 0.0839(4) 0.9280(4) 0.5231(3)
H3 H 0.0404 0.8744 0.5962
H4 H 0.1715 0.9872 0.5414
C3 C 0.2033(4) 0.8563(4) 0.0940(3)
H5 H 0.3067 0.8703 0.0378
H6 H 0.1956 0.7354 0.0826
C4 C 0.0225(4) 0.9984(4) 0.0616(3)
H7 H -0.0822 0.9802 0.1147
H8 H 0.0268 1.1193 0.0767
C5 C 0.3643(6) 1.1961(5) 0.1647(3)
H9 H 0.2553 1.2482 0.1213
H10 H 0.4644 1.1080 0.1152
C6 C 0.4295(7) 1.3410(6) 0.1975(3)
H11 H 0.3288 1.4598 0.1976
H12 H 0.5375 1.3485 0.1430
C7 C 0.4835(8) 1.2875(7) 0.3162(4)
H13 H 0.4640 1.3956 0.3616
H14 H 0.6158 1.2099 0.3129
C8 C 0.3564(5) 1.1840(5) 0.3686(3)
H15 H 0.4200 1.0870 0.4228
H16 H 0.2415 1.2660 0.4109
C9 C 0.6840(4) 0.6816(5) 0.1322(3)
H17 H 0.7034 0.7933 0.0969
H18 H 0.6246 0.6329 0.0783
C10 C 0.8666(6) 0.5433(6) 0.1579(4)
H19 H 0.8769 0.4222 0.1325
H20 H 0.9725 0.5771 0.1173
C11 C 0.8669(6) 0.5420(7) 0.2831(4)
H21 H 0.9764 0.5697 0.3015
H22 H 0.8727 0.4214 0.3172
C12 C 0.6918(5) 0.6823(6) 0.3307(3)
H23 H 0.6361 0.6369 0.4028
H24 H 0.7162 0.7934 0.3478
C1A C -0.1888(5) 1.2253(5) 0.5620(3)
H1A H -0.1071 1.2972 0.5688
H2A H -0.2998 1.3063 0.5277
C2A C -0.0839(4) 1.0720(4) 0.4769(3)
H3A H -0.0404 1.1256 0.4038
H4A H -0.1715 1.0128 0.4586
C3A C -0.2033(4) 1.1437(4) -0.0940(3)
H5A H -0.3067 1.1297 -0.0378
H6A H -0.1956 1.2646 -0.0826
C4A C -0.0225(4) 1.0016(4) -0.0616(3)
H7A H 0.0822 1.0198 -0.1147
H8A H -0.0268 0.8807 -0.0767
Mg1A Mg -0.27962(14) 1.14426(14) -0.26560(10)
O1A O -0.3138(3) 0.8921(3) -0.2708(2)
O2A O -0.5700(3) 1.2814(3) -0.24214(18)
C5A C -0.3643(6) 0.8039(5) -0.1647(3)
H9A H -0.2553 0.7518 -0.1213
H10A H -0.4644 0.8920 -0.1152
C6A C -0.4295(7) 0.6590(6) -0.1975(3)
H11A H -0.3288 0.5402 -0.1976
H12A H -0.5375 0.6515 -0.1430
C7A C -0.4835(8) 0.7125(7) -0.3162(4)
H13A H -0.4640 0.6044 -0.3616
H14A H -0.6158 0.7901 -0.3129
C8A C -0.3564(5) 0.8160(5) -0.3686(3)
H15A H -0.4200 0.9130 -0.4228
H16A H -0.2415 0.7340 -0.4109
C9A C -0.6840(4) 1.3184(5) -0.1322(3)
H17A H -0.7034 1.2067 -0.0969
H18A H -0.6246 1.3671 -0.0783
C10A C -0.8666(6) 1.4567(6) -0.1579(4)
H19A H -0.8769 1.5778 -0.1325
H20A H -0.9725 1.4229 -0.1173
C11A C -0.8669(6) 1.4580(7) -0.2831(4)
H21A H -0.9764 1.4303 -0.3015
H22A H -0.8727 1.5786 -0.3172
C12A C -0.6918(5) 1.3177(6) -0.3307(3)
H23A H -0.6361 1.3631 -0.4028
H24A H -0.7162 1.2066 -0.3478
Mg1A_2 Mg -0.27962(14) 1.14426(14) 0.73440(10)
C1A_2 C -0.1888(5) 1.2253(5) -0.4380(3)
loop_
_geom_bond_atom_site_label_1
_geom_bond_atom_site_label_2
_geom_bond_site_symmetry_1
_geom_bond_site_symmetry_2
Mg1 O1 1_555 1_555
O1 C5 1_555 1_555
C1 Mg1 1_555 1_555
H1 C1 1_555 1_555
H2 C1 1_555 1_555
O2 Mg1 1_555 1_555
C2 C1 1_555 1_555
H3 C2 1_555 1_555
H4 C2 1_555 1_555
C3 Mg1 1_555 1_555
H5 C3 1_555 1_555
H6 C3 1_555 1_555
C4 C3 1_555 1_555
H7 C4 1_555 1_555
H8 C4 1_555 1_555
C5 H9 1_555 1_555
H10 C5 1_555 1_555
C6 C5 1_555 1_555
H11 C6 1_555 1_555
H12 C6 1_555 1_555
C7 C6 1_555 1_555
H13 C7 1_555 1_555
H14 C7 1_555 1_555
C8 O1 1_555 1_555
H15 C8 1_555 1_555
H16 C8 1_555 1_555
C9 O2 1_555 1_555
H17 C9 1_555 1_555
H18 C9 1_555 1_555
C10 C9 1_555 1_555
H19 C10 1_555 1_555
H20 C10 1_555 1_555
C11 C10 1_555 1_555
H21 C11 1_555 1_555
H22 C11 1_555 1_555
C12 O2 1_555 1_555
H23 C12 1_555 1_555
H24 C12 1_555 1_555
C1A H1A 1_555 1_555
H2A C1A 1_555 1_555
C2A C2 1_555 1_555
H3A C2A 1_555 1_555
H4A C2A 1_555 1_555
C3A H5A 1_555 1_555
H6A C3A 1_555 1_555
C4A C4 1_555 1_555
H7A C4A 1_555 1_555
H8A C4A 1_555 1_555
Mg1A C3A 1_555 1_555
O1A Mg1A 1_555 1_555
O2A Mg1A 1_555 1_555
C5A O1A 1_555 1_555
H9A C5A 1_555 1_555
H10A C5A 1_555 1_555
C6A C5A 1_555 1_555
H11A C6A 1_555 1_555
H12A C6A 1_555 1_555
C7A C6A 1_555 1_555
H13A C7A 1_555 1_555
H14A C7A 1_555 1_555
C8A O1A 1_555 1_555
H15A C8A 1_555 1_555
H16A C8A 1_555 1_555
C9A O2A 1_555 1_555
H17A C9A 1_555 1_555
H18A C9A 1_555 1_555
C10A C9A 1_555 1_555
H19A C10A 1_555 1_555
H20A C10A 1_555 1_555
C11A C10A 1_555 1_555
H21A C11A 1_555 1_555
H22A C11A 1_555 1_555
C12A O2A 1_555 1_555
H23A C12A 1_555 1_555
H24A C12A 1_555 1_555
Mg1A_2 C1A 1_555 1_555
C1A_2 Mg1A 1_555 1_555
C7 C8 1_555 1_555
C11 C12 1_555 1_555
C1A C2A 1_555 1_555
C3A C4A 1_555 1_555
C7A C8A 1_555 1_555
C11A C12A 1_555 1_555

#END
