
#######################################################################
#
#                 Cambridge Crystallographic Data Centre
#                                CCDC 
#
#######################################################################
#
# If this CIF has been generated from an entry in the Cambridge 
# Structural Database, then it will include bibliographic, chemical, 
# crystal, experimental, refinement or atomic coordinate data resulting 
# from the CCDC's data processing and validation procedures.
#
#######################################################################

data_HEXMAZ
_symmetry_cell_setting           orthorhombic
_symmetry_space_group_name_H-M   'P b c n'
_symmetry_Int_Tables_number      60
_space_group_name_Hall           '-P 2n 2ab'
loop_
_symmetry_equiv_pos_site_id
_symmetry_equiv_pos_as_xyz
1 x,y,z
2 1/2-x,1/2-y,1/2+z
3 -x,y,1/2-z
4 1/2+x,1/2-y,-z
5 -x,-y,-z
6 1/2+x,1/2+y,1/2-z
7 x,-y,1/2+z
8 1/2-x,1/2+y,z
_cell_length_a                   14.1135(17)
_cell_length_b                   15.6079(18)
_cell_length_c                   16.4276(19)
_cell_angle_alpha                90
_cell_angle_beta                 90
_cell_angle_gamma                90
_cell_volume                     3618.71
loop_
_atom_site_label
_atom_site_type_symbol
_atom_site_fract_x
_atom_site_fract_y
_atom_site_fract_z
Cd1 Cd 0.0000 0.0000 0.5000
C1 C -0.1314(4) 0.1989(3) 0.3398(3)
H1 H -0.1513 0.2201 0.2897
C2 C -0.1061(3) 0.1170(3) 0.3570(3)
H2 H -0.1063 0.0720 0.3199
C3 C -0.0907(3) 0.1887(3) 0.4661(3)
H3 H -0.0777 0.2037 0.5197
C4 C -0.1352(3) 0.3358(2) 0.4221(3)
H4 H -0.1435 0.3467 0.4798
H5 H -0.1928 0.3536 0.3946
C5 C -0.0535(3) 0.3900(2) 0.3912(2)
C6 C -0.0603(3) 0.4813(2) 0.3975(2)
C7 C -0.1397(3) 0.5216(3) 0.4338(3)
H6 H -0.1882 0.4884 0.4556
C8 C -0.1456(4) 0.6089(3) 0.4370(3)
H7 H -0.1984 0.6347 0.4604
C9 C -0.0732(4) 0.6596(3) 0.4054(3)
H8 H -0.0781 0.7189 0.4081
C10 C 0.0042(3) 0.6236(3) 0.3710(3)
H9 H 0.0516 0.6588 0.3504
C11 C 0.0147(3) 0.5332(3) 0.3655(2)
C12 C 0.0944(3) 0.4930(2) 0.3288(2)
C13 C 0.0985(3) 0.4061(2) 0.3256(2)
H10 H 0.1511 0.3801 0.3021
C14 C 0.0252(3) 0.3544(3) 0.3568(3)
H11 H 0.0305 0.2951 0.3539
C15 C 0.1748(3) 0.5437(3) 0.2931(2)
H12 H 0.2057 0.5095 0.2515
H13 H 0.1496 0.5946 0.2671
C16 C 0.2697(3) 0.6502(3) 0.3784(3)
H14 H 0.2420 0.7012 0.3614
C17 C 0.3037(3) 0.5151(3) 0.3946(3)
H15 H 0.3018 0.4558 0.3892
C18 C 0.3411(3) 0.6415(3) 0.4319(3)
H16 H 0.3715 0.6867 0.4581
N1 N -0.0804(2) 0.1107(2) 0.4366(2)
N2 N -0.1220(2) 0.2435(2) 0.4097(2)
N3 N 0.2459(2) 0.5696(2) 0.35412(19)
N4 N 0.3630(2) 0.5562(2) 0.4424(2)
O1 O 0.0234(3) 0.0950(3) 0.6086(2)
H17 H -0.022(3) 0.113(3) 0.636(3)
H18 H 0.0824(19) 0.1047(15) 0.6305(15)
Cd1G Cd 0.5000 0.5000 0.5000
Cd1G_2 Cd -0.5000 -0.5000 0.5000
C1D C 0.1314(4) -0.1989(3) 0.6602(3)
H1D H 0.1513 -0.2201 0.7103
C2D C 0.1061(3) -0.1170(3) 0.6430(3)
H2D H 0.1063 -0.0720 0.6801
C3D C 0.0907(3) -0.1887(3) 0.5339(3)
H3D H 0.0777 -0.2037 0.4803
C4D C 0.1352(3) -0.3358(2) 0.5779(3)
H4D H 0.1435 -0.3467 0.5202
H5D H 0.1928 -0.3536 0.6054
C5D C 0.0535(3) -0.3900(2) 0.6088(2)
C6D C 0.0603(3) -0.4813(2) 0.6025(2)
C7D C 0.1397(3) -0.5216(3) 0.5662(3)
H6D H 0.1882 -0.4884 0.5444
C8D C 0.1456(4) -0.6089(3) 0.5630(3)
H7D H 0.1984 -0.6347 0.5396
C9D C 0.0732(4) -0.6596(3) 0.5946(3)
H8D H 0.0781 -0.7189 0.5919
C10D C -0.0042(3) -0.6236(3) 0.6290(3)
H9D H -0.0516 -0.6588 0.6496
C11D C -0.0147(3) -0.5332(3) 0.6345(2)
C12D C -0.0944(3) -0.4930(2) 0.6712(2)
C13D C -0.0985(3) -0.4061(2) 0.6744(2)
H10D H -0.1511 -0.3801 0.6979
C14D C -0.0252(3) -0.3544(3) 0.6432(3)
H11D H -0.0305 -0.2951 0.6461
C15D C -0.1748(3) -0.5437(3) 0.7069(2)
H12D H -0.2057 -0.5095 0.7485
H13D H -0.1496 -0.5946 0.7329
C16D C -0.2697(3) -0.6502(3) 0.6216(3)
H14D H -0.2420 -0.7012 0.6386
C17D C -0.3037(3) -0.5151(3) 0.6054(3)
H15D H -0.3018 -0.4558 0.6108
C18D C -0.3411(3) -0.6415(3) 0.5681(3)
H16D H -0.3715 -0.6867 0.5419
N1D N 0.0804(2) -0.1107(2) 0.5634(2)
N2D N 0.1220(2) -0.2435(2) 0.5903(2)
N3D N -0.2459(2) -0.5696(2) 0.64588(19)
N4D N -0.3630(2) -0.5562(2) 0.5576(2)
N4G N 0.1370(2) 0.0562(2) 0.4424(2)
N4C N -0.1370(2) -0.0562(2) 0.5576(2)
O1D O -0.0234(3) -0.0950(3) 0.3914(2)
H17D H 0.022(3) -0.113(3) 0.364(3)
H18D H -0.0824(19) -0.1047(15) 0.3695(15)
N5 N 0.1541(4) 0.1626(3) 0.7618(3)
O2 O 0.1901(5) 0.2036(7) 0.7170(5)
O3 O 0.1490(4) 0.1803(2) 0.8312(3)
O4 O 0.1419(7) 0.0927(4) 0.7377(5)
loop_
_geom_bond_atom_site_label_1
_geom_bond_atom_site_label_2
_geom_bond_site_symmetry_1
_geom_bond_site_symmetry_2
Cd1 N1 1_555 1_555
C1 H1 1_555 1_555
C2 C1 1_555 1_555
H2 C2 1_555 1_555
C3 H3 1_555 1_555
C4 H4 1_555 1_555
H5 C4 1_555 1_555
C5 C4 1_555 1_555
C6 C5 1_555 1_555
C7 C6 1_555 1_555
H6 C7 1_555 1_555
C8 C7 1_555 1_555
H7 C8 1_555 1_555
C9 C8 1_555 1_555
H8 C9 1_555 1_555
C10 C9 1_555 1_555
H9 C10 1_555 1_555
C11 C6 1_555 1_555
C12 C11 1_555 1_555
C13 C12 1_555 1_555
H10 C13 1_555 1_555
C14 C5 1_555 1_555
H11 C14 1_555 1_555
C15 C12 1_555 1_555
H12 C15 1_555 1_555
H13 C15 1_555 1_555
C16 H14 1_555 1_555
C17 H15 1_555 1_555
C18 C16 1_555 1_555
H16 C18 1_555 1_555
N1 C2 1_555 1_555
N2 C1 1_555 1_555
N3 C15 1_555 1_555
N4 C17 1_555 1_555
N5 O2 1_555 1_555
O1 Cd1 1_555 1_555
H17 O1 1_555 1_555
O3 N5 1_555 1_555
O4 N5 1_555 1_555
H18 O1 1_555 1_555
Cd1G N4 1_555 1_555
Cd1G_2 N4D 1_555 1_555
C1D H1D 1_555 1_555
C2D C1D 1_555 1_555
H2D C2D 1_555 1_555
C3D H3D 1_555 1_555
C4D H4D 1_555 1_555
H5D C4D 1_555 1_555
C5D C4D 1_555 1_555
C6D C5D 1_555 1_555
C7D C6D 1_555 1_555
H6D C7D 1_555 1_555
C8D C7D 1_555 1_555
H7D C8D 1_555 1_555
C9D C8D 1_555 1_555
H8D C9D 1_555 1_555
C10D C9D 1_555 1_555
H9D C10D 1_555 1_555
C11D C6D 1_555 1_555
C12D C11D 1_555 1_555
C13D C12D 1_555 1_555
H10D C13D 1_555 1_555
C14D C5D 1_555 1_555
H11D C14D 1_555 1_555
C15D C12D 1_555 1_555
H12D C15D 1_555 1_555
H13D C15D 1_555 1_555
C16D H14D 1_555 1_555
C17D H15D 1_555 1_555
C18D C16D 1_555 1_555
H16D C18D 1_555 1_555
N1D Cd1 1_555 1_555
N2D C1D 1_555 1_555
N3D C15D 1_555 1_555
N4D C17D 1_555 1_555
N4G Cd1 1_555 1_555
N4C Cd1 1_555 1_555
O1D Cd1 1_555 1_555
H17D O1D 1_555 1_555
H18D O1D 1_555 1_555
C3 N1 1_555 1_555
C3 N2 1_555 1_555
C4 N2 1_555 1_555
C10 C11 1_555 1_555
C13 C14 1_555 1_555
C16 N3 1_555 1_555
C17 N3 1_555 1_555
C18 N4 1_555 1_555
C2D N1D 1_555 1_555
C3D N1D 1_555 1_555
C3D N2D 1_555 1_555
C4D N2D 1_555 1_555
C10D C11D 1_555 1_555
C13D C14D 1_555 1_555
C16D N3D 1_555 1_555
C17D N3D 1_555 1_555
C18D N4D 1_555 1_555

#END
