
#######################################################################
#
#                 Cambridge Crystallographic Data Centre
#                                CCDC 
#
#######################################################################
#
# If this CIF has been generated from an entry in the Cambridge 
# Structural Database, then it will include bibliographic, chemical, 
# crystal, experimental, refinement or atomic coordinate data resulting 
# from the CCDC's data processing and validation procedures.
#
#######################################################################

data_HEXNEE
_symmetry_cell_setting           triclinic
_symmetry_space_group_name_H-M   'P -1'
_symmetry_Int_Tables_number      2
_space_group_name_Hall           '-P 1'
loop_
_symmetry_equiv_pos_site_id
_symmetry_equiv_pos_as_xyz
1 x,y,z
2 -x,-y,-z
_cell_length_a                   8.3073(13)
_cell_length_b                   11.3775(19)
_cell_length_c                   12.1610(19)
_cell_angle_alpha                102.724(2)
_cell_angle_beta                 106.377(2)
_cell_angle_gamma                94.634(3)
_cell_volume                     1063.08
loop_
_atom_site_label
_atom_site_type_symbol
_atom_site_fract_x
_atom_site_fract_y
_atom_site_fract_z
Zn1 Zn 0.28489(4) 1.33951(3) 1.25933(3)
N1 N 0.7270(3) 1.21442(19) 1.42536(18)
N2 N 0.4897(3) 1.28603(19) 1.36144(18)
N3 N 0.5650(3) 0.58767(19) 1.15469(19)
N4 N 0.3815(3) 0.46934(18) 1.19766(19)
C1 C 0.7063(3) 0.9551(2) 1.3608(2)
H1 H 0.6317 0.9886 1.3988
C2 C 0.6683(3) 0.8308(2) 1.2979(2)
H2 H 0.5703 0.7838 1.2963
C3 C 0.7733(3) 0.7788(2) 1.2396(2)
C4 C 0.9307(3) 0.8485(2) 1.2506(2)
C5 C 1.0501(3) 0.7976(3) 1.1978(2)
H3 H 1.0250 0.7170 1.1532
C6 C 1.2011(4) 0.8654(3) 1.2115(3)
H4 H 1.2771 0.8308 1.1756
C7 C 1.2421(3) 0.9859(3) 1.2790(3)
H5 H 1.3465 1.0305 1.2893
C8 C 1.1305(3) 1.0389(3) 1.3300(2)
H6 H 1.1594 1.1198 1.3741
C9 C 0.9711(3) 0.9730(2) 1.3170(2)
C10 C 0.8499(3) 1.0270(2) 1.3670(2)
C11 C 0.8829(3) 1.1625(2) 1.4247(3)
H7 H 0.9560 1.1770 1.5057
H8 H 0.9426 1.2041 1.3828
C12 C 0.6711(4) 1.2533(3) 1.5214(3)
H9 H 0.7232 1.2502 1.5989
C13 C 0.5257(4) 1.2966(3) 1.4807(2)
H10 H 0.4596 1.3290 1.5267
C14 C 0.6145(3) 1.2358(2) 1.3317(2)
H11 H 0.6230 1.2177 1.2553
C15 C 0.1785(3) 1.1399(2) 1.0716(2)
C16 C 0.0695(3) 1.0246(2) 0.9929(2)
H12 H 0.1022 0.9847 0.9292
C17 C -0.0123(3) 1.5143(2) 1.4493(2)
H13 H -0.0862 1.5699 1.4331
C18 C 0.0698(3) 1.4644(2) 1.3575(3)
C19 C 0.4062(4) 0.6053(2) 1.0943(2)
H14 H 0.3804 0.6571 1.0444
C20 C 0.2946(4) 0.5324(2) 1.1218(2)
H15 H 0.1770 0.5261 1.0937
C21 C 0.5439(3) 0.5053(2) 1.2146(2)
H16 H 0.6325 0.4768 1.2624
C22 C 0.7270(4) 0.6509(2) 1.1579(3)
H17 H 0.8177 0.6206 1.2071
H18 H 0.7359 0.6363 1.0792
O2 O 0.3253(3) 1.1625(2) 1.0706(2)
O3 O 0.1146(2) 1.21048(16) 1.13985(16)
O5 O 0.1772(2) 1.39315(18) 1.38354(18)
O6 O 0.0298(3) 1.4939(2) 1.2630(2)
Zn1_2 Zn 0.28489(4) 2.33951(3) 1.25933(3)
Zn1_3 Zn 0.28489(4) 0.33951(3) 1.25933(3)
Zn1A Zn -0.28489(4) 0.66049(3) 0.74067(3)
Zn1A_2 Zn -0.28489(4) 1.66049(3) 1.74067(3)
N1_2 N 0.7270(3) 2.21442(19) 1.42536(18)
N2_2 N 0.4897(3) 2.28603(19) 1.36144(18)
N3_2 N 0.5650(3) 1.58767(19) 1.15469(19)
N4_2 N 0.3815(3) 1.46934(18) 1.19766(19)
N4_3 N 0.3815(3) 2.46934(18) 1.19766(19)
C1_2 C 0.7063(3) 1.9551(2) 1.3608(2)
H1_2 H 0.6317 1.9886 1.3988
C2_2 C 0.6683(3) 1.8308(2) 1.2979(2)
H2_2 H 0.5703 1.7838 1.2963
C3_2 C 0.7733(3) 1.7788(2) 1.2396(2)
C4_2 C 0.9307(3) 1.8485(2) 1.2506(2)
C5_2 C 1.0501(3) 1.7976(3) 1.1978(2)
H3_2 H 1.0250 1.7170 1.1532
C6_2 C 1.2011(4) 1.8654(3) 1.2115(3)
H4_2 H 1.2771 1.8308 1.1756
C7_2 C 1.2421(3) 1.9859(3) 1.2790(3)
H5_2 H 1.3465 2.0305 1.2893
C8_2 C 1.1305(3) 2.0389(3) 1.3300(2)
H6_2 H 1.1594 2.1198 1.3741
C9_2 C 0.9711(3) 1.9730(2) 1.3170(2)
C10_2 C 0.8499(3) 2.0270(2) 1.3670(2)
C11_2 C 0.8829(3) 2.1625(2) 1.4247(3)
H7_2 H 0.9560 2.1770 1.5057
H8_2 H 0.9426 2.2041 1.3828
C12_2 C 0.6711(4) 2.2533(3) 1.5214(3)
H9_2 H 0.7232 2.2502 1.5989
C13_2 C 0.5257(4) 2.2966(3) 1.4807(2)
H10_2 H 0.4596 2.3290 1.5267
C14_2 C 0.6145(3) 2.2358(2) 1.3317(2)
H11_2 H 0.6230 2.2177 1.2553
C15A C -0.1785(3) 0.8601(2) 0.9284(2)
C16A C -0.0695(3) 0.9754(2) 1.0071(2)
H12A H -0.1022 1.0153 1.0708
C17A C 0.0123(3) 1.4857(2) 1.5507(2)
H13A H 0.0862 1.4301 1.5669
C18A C -0.0698(3) 1.5356(2) 1.6425(3)
C19_2 C 0.4062(4) 1.6053(2) 1.0943(2)
H14_2 H 0.3804 1.6571 1.0444
C20_2 C 0.2946(4) 1.5324(2) 1.1218(2)
H15_2 H 0.1770 1.5261 1.0937
C21_2 C 0.5439(3) 1.5053(2) 1.2146(2)
H16_2 H 0.6325 1.4768 1.2624
C22_2 C 0.7270(4) 1.6509(2) 1.1579(3)
H17_2 H 0.8177 1.6206 1.2071
H18_2 H 0.7359 1.6363 1.0792
O2A O -0.3253(3) 0.8375(2) 0.9294(2)
O3A O -0.1146(2) 0.78952(16) 0.86015(16)
O3_2 O 0.1146(2) 2.21048(16) 1.13985(16)
O5A O -0.1772(2) 1.60685(18) 1.61646(18)
O5_2 O 0.1772(2) 2.39315(18) 1.38354(18)
O6A O -0.0298(3) 1.5061(2) 1.7370(2)
O1 O -0.2309(4) 1.2572(3) 1.1147(3)
H19 H -0.147(5) 1.289(5) 1.098(5)
O4 O 0.5214(10) 1.0522(9) 0.9440(6)
loop_
_geom_bond_atom_site_label_1
_geom_bond_atom_site_label_2
_geom_bond_site_symmetry_1
_geom_bond_site_symmetry_2
Zn1 N2 1_555 1_555
N1 C11 1_555 1_555
N2 C13 1_555 1_555
N3 C19 1_555 1_555
N4 C20 1_555 1_555
C1 H1 1_555 1_555
C2 C1 1_555 1_555
H2 C2 1_555 1_555
C3 C2 1_555 1_555
C4 C3 1_555 1_555
C5 C4 1_555 1_555
H3 C5 1_555 1_555
C6 C5 1_555 1_555
H4 C6 1_555 1_555
C7 C6 1_555 1_555
H5 C7 1_555 1_555
C8 C7 1_555 1_555
H6 C8 1_555 1_555
C9 C4 1_555 1_555
C10 C1 1_555 1_555
C11 C10 1_555 1_555
H7 C11 1_555 1_555
H8 C11 1_555 1_555
C12 N1 1_555 1_555
H9 C12 1_555 1_555
C13 C12 1_555 1_555
H10 C13 1_555 1_555
C14 N1 1_555 1_555
H11 C14 1_555 1_555
C15 C16 1_555 1_555
C16 H12 1_555 1_555
C17 H13 1_555 1_555
C18 C17 1_555 1_555
C19 H14 1_555 1_555
C20 C19 1_555 1_555
H15 C20 1_555 1_555
C21 N3 1_555 1_555
H16 C21 1_555 1_555
C22 N3 1_555 1_555
H17 C22 1_555 1_555
H18 C22 1_555 1_555
O1 H19 1_555 1_555
O2 C15 1_555 1_555
O3 Zn1 1_555 1_555
O5 Zn1 1_555 1_555
O6 C18 1_555 1_555
Zn1_2 N2_2 1_555 1_555
Zn1_3 N4 1_555 1_555
Zn1A O3A 1_555 1_555
Zn1A_2 O5A 1_555 1_555
N1_2 C11_2 1_555 1_555
N2_2 C13_2 1_555 1_555
N3_2 C19_2 1_555 1_555
N4_2 Zn1 1_555 1_555
N4_3 Zn1_2 1_555 1_555
C1_2 H1_2 1_555 1_555
C2_2 C1_2 1_555 1_555
H2_2 C2_2 1_555 1_555
C3_2 C2_2 1_555 1_555
C4_2 C3_2 1_555 1_555
C5_2 C4_2 1_555 1_555
H3_2 C5_2 1_555 1_555
C6_2 C5_2 1_555 1_555
H4_2 C6_2 1_555 1_555
C7_2 C6_2 1_555 1_555
H5_2 C7_2 1_555 1_555
C8_2 C7_2 1_555 1_555
H6_2 C8_2 1_555 1_555
C9_2 C4_2 1_555 1_555
C10_2 C1_2 1_555 1_555
C11_2 C10_2 1_555 1_555
H7_2 C11_2 1_555 1_555
H8_2 C11_2 1_555 1_555
C12_2 N1_2 1_555 1_555
H9_2 C12_2 1_555 1_555
C13_2 C12_2 1_555 1_555
H10_2 C13_2 1_555 1_555
C14_2 N1_2 1_555 1_555
H11_2 C14_2 1_555 1_555
C15A C16A 1_555 1_555
C16A C16 1_555 1_555
H12A C16A 1_555 1_555
C17A C17 1_555 1_555
H13A C17A 1_555 1_555
C18A C17A 1_555 1_555
C19_2 H14_2 1_555 1_555
C20_2 N4_2 1_555 1_555
H15_2 C20_2 1_555 1_555
C21_2 N3_2 1_555 1_555
H16_2 C21_2 1_555 1_555
C22_2 N3_2 1_555 1_555
H17_2 C22_2 1_555 1_555
H18_2 C22_2 1_555 1_555
O2A C15A 1_555 1_555
O3A C15A 1_555 1_555
O3_2 Zn1_2 1_555 1_555
O5A C18A 1_555 1_555
O5_2 Zn1_2 1_555 1_555
O6A C18A 1_555 1_555
N2 C14 1_555 1_555
N4 C21 1_555 1_555
C3 C22 1_555 1_555
C8 C9 1_555 1_555
C9 C10 1_555 1_555
C15 O3 1_555 1_555
C18 O5 1_555 1_555
N2_2 C14_2 1_555 1_555
N4_2 C21_2 1_555 1_555
C3_2 C22_2 1_555 1_555
C8_2 C9_2 1_555 1_555
C9_2 C10_2 1_555 1_555
C19_2 C20_2 1_555 1_555

#END
