
#######################################################################
#
#                 Cambridge Crystallographic Data Centre
#                                CCDC 
#
#######################################################################
#
# If this CIF has been generated from an entry in the Cambridge 
# Structural Database, then it will include bibliographic, chemical, 
# crystal, experimental, refinement or atomic coordinate data resulting 
# from the CCDC's data processing and validation procedures.
#
#######################################################################

data_HEXNAA
_symmetry_cell_setting           orthorhombic
_symmetry_space_group_name_H-M   'P b c n'
_symmetry_Int_Tables_number      60
_space_group_name_Hall           '-P 2n 2ab'
loop_
_symmetry_equiv_pos_site_id
_symmetry_equiv_pos_as_xyz
1 x,y,z
2 1/2-x,1/2-y,1/2+z
3 -x,y,1/2-z
4 1/2+x,1/2-y,-z
5 -x,-y,-z
6 1/2+x,1/2+y,1/2-z
7 x,-y,1/2+z
8 1/2-x,1/2+y,z
_cell_length_a                   13.788(3)
_cell_length_b                   15.602(4)
_cell_length_c                   16.016(4)
_cell_angle_alpha                90
_cell_angle_beta                 90
_cell_angle_gamma                90
_cell_volume                     3445.37
loop_
_atom_site_label
_atom_site_type_symbol
_atom_site_fract_x
_atom_site_fract_y
_atom_site_fract_z
Mn1 Mn 0.0000 0.0000 0.5000
C1 C 0.5933(2) -0.3138(2) 0.5242(2)
H1 H 0.5786 -0.2998 0.4692
C2 C 0.6388(2) -0.3021(2) 0.6534(2)
H2 H 0.6612 -0.2807 0.7040
C3 C 0.6130(2) -0.3835(2) 0.6372(2)
H3 H 0.6139 -0.4280 0.6758
C4 C 0.1850(2) 0.0145(2) 0.6224(2)
H4 H 0.1813 -0.0442 0.6322
C5 C 0.2326(2) 0.1469(2) 0.6296(2)
H5 H 0.2657 0.1967 0.6437
C6 C 0.1573(2) 0.1395(2) 0.5754(2)
H6 H 0.1300 0.1846 0.5456
C7 C 0.6383(2) 0.0196(2) 0.55764(19)
H7 H 0.6867 -0.0134 0.5332
C8 C 0.6435(3) 0.1072(2) 0.5541(2)
H8 H 0.6946 0.1333 0.5259
C9 C 0.5732(3) 0.1572(2) 0.5922(2)
H9 H 0.5786 0.2166 0.5910
C10 C 0.4958(3) 0.1200(2) 0.6316(2)
H10 H 0.4490 0.1546 0.6563
C11 C 0.4855(2) 0.02973(19) 0.63543(18)
C12 C 0.4056(2) -0.0111(2) 0.67616(17)
C13 C 0.4025(2) -0.0979(2) 0.67754(19)
H11 H 0.3499 -0.1247 0.7029
C14 C 0.4755(2) -0.1487(2) 0.6422(2)
H12 H 0.4706 -0.2081 0.6448
C15 C 0.5537(2) -0.11239(19) 0.60412(18)
C16 C 0.5592(2) -0.02097(19) 0.59858(17)
C17 C 0.6364(2) -0.1653(2) 0.5689(2)
H13 H 0.6417 -0.1539 0.5095
H14 H 0.6964 -0.1469 0.5949
C18 C 0.3248(2) 0.0384(2) 0.71848(19)
H15 H 0.2952 0.0025 0.7609
H16 H 0.3520 0.0882 0.7461
C19 C 0.0882(3) 0.1173(2) 0.3407(2)
N1 N 0.24963(17) 0.06638(17) 0.65931(15)
N2 N 0.12755(17) 0.05558(17) 0.57111(16)
N3 N 0.62554(18) -0.25699(17) 0.58117(17)
N4 N 0.58524(18) -0.39139(17) 0.55559(18)
N5 N 0.0433(2) 0.08450(19) 0.3925(2)
S1 S 0.15086(8) 0.16590(7) 0.26815(7)
Mn1G Mn 0.5000 -0.5000 0.5000
Mn1G_2 Mn -0.5000 0.5000 0.5000
C1D C -0.5933(2) 0.3138(2) 0.4758(2)
H1D H -0.5786 0.2998 0.5308
C2D C -0.6388(2) 0.3021(2) 0.3466(2)
H2D H -0.6612 0.2807 0.2960
C3D C -0.6130(2) 0.3835(2) 0.3628(2)
H3D H -0.6139 0.4280 0.3242
C4D C -0.1850(2) -0.0145(2) 0.3776(2)
H4D H -0.1813 0.0442 0.3678
C5D C -0.2326(2) -0.1469(2) 0.3704(2)
H5D H -0.2657 -0.1967 0.3563
C6D C -0.1573(2) -0.1395(2) 0.4246(2)
H6D H -0.1300 -0.1846 0.4544
C7D C -0.6383(2) -0.0196(2) 0.44236(19)
H7D H -0.6867 0.0134 0.4668
C8D C -0.6435(3) -0.1072(2) 0.4459(2)
H8D H -0.6946 -0.1333 0.4741
C9D C -0.5732(3) -0.1572(2) 0.4078(2)
H9D H -0.5786 -0.2166 0.4090
C10D C -0.4958(3) -0.1200(2) 0.3684(2)
H10D H -0.4490 -0.1546 0.3437
C11D C -0.4855(2) -0.02973(19) 0.36457(18)
C12D C -0.4056(2) 0.0111(2) 0.32384(17)
C13D C -0.4025(2) 0.0979(2) 0.32246(19)
H11D H -0.3499 0.1247 0.2971
C14D C -0.4755(2) 0.1487(2) 0.3578(2)
H12D H -0.4706 0.2081 0.3552
C15D C -0.5537(2) 0.11239(19) 0.39588(18)
C16D C -0.5592(2) 0.02097(19) 0.40142(17)
C17D C -0.6364(2) 0.1653(2) 0.4311(2)
H13D H -0.6417 0.1539 0.4905
H14D H -0.6964 0.1469 0.4051
C18D C -0.3248(2) -0.0384(2) 0.28152(19)
H15D H -0.2952 -0.0025 0.2391
H16D H -0.3520 -0.0882 0.2539
C19D C -0.0882(3) -0.1173(2) 0.6593(2)
N1D N -0.24963(17) -0.06638(17) 0.34069(15)
N2D N -0.12755(17) -0.05558(17) 0.42889(16)
N3D N -0.62554(18) 0.25699(17) 0.41883(17)
N4D N -0.58524(18) 0.39139(17) 0.44441(18)
N4G N -0.08524(18) 0.10861(17) 0.55559(18)
N4C N 0.08524(18) -0.10861(17) 0.44441(18)
N5D N -0.0433(2) -0.08450(19) 0.6075(2)
S1D S -0.15086(8) -0.16590(7) 0.73185(7)
loop_
_geom_bond_atom_site_label_1
_geom_bond_atom_site_label_2
_geom_bond_site_symmetry_1
_geom_bond_site_symmetry_2
Mn1 N2 1_555 1_555
C1 H1 1_555 1_555
C2 H2 1_555 1_555
C3 C2 1_555 1_555
H3 C3 1_555 1_555
C4 H4 1_555 1_555
C5 H5 1_555 1_555
C6 C5 1_555 1_555
H6 C6 1_555 1_555
C7 H7 1_555 1_555
C8 C7 1_555 1_555
H8 C8 1_555 1_555
C9 C8 1_555 1_555
H9 C9 1_555 1_555
C10 C9 1_555 1_555
H10 C10 1_555 1_555
C11 C10 1_555 1_555
C12 C11 1_555 1_555
C13 C12 1_555 1_555
H11 C13 1_555 1_555
C14 C13 1_555 1_555
H12 C14 1_555 1_555
C15 C14 1_555 1_555
C16 C7 1_555 1_555
C17 C15 1_555 1_555
H13 C17 1_555 1_555
H14 C17 1_555 1_555
C18 C12 1_555 1_555
H15 C18 1_555 1_555
H16 C18 1_555 1_555
C19 N5 1_555 1_555
N1 C4 1_555 1_555
N2 C4 1_555 1_555
N3 C1 1_555 1_555
N4 C1 1_555 1_555
N5 Mn1 1_555 1_555
S1 C19 1_555 1_555
Mn1G N4 1_555 1_555
Mn1G_2 N4D 1_555 1_555
C1D H1D 1_555 1_555
C2D H2D 1_555 1_555
C3D C2D 1_555 1_555
H3D C3D 1_555 1_555
C4D H4D 1_555 1_555
C5D H5D 1_555 1_555
C6D C5D 1_555 1_555
H6D C6D 1_555 1_555
C7D H7D 1_555 1_555
C8D C7D 1_555 1_555
H8D C8D 1_555 1_555
C9D C8D 1_555 1_555
H9D C9D 1_555 1_555
C10D C9D 1_555 1_555
H10D C10D 1_555 1_555
C11D C10D 1_555 1_555
C12D C11D 1_555 1_555
C13D C12D 1_555 1_555
H11D C13D 1_555 1_555
C14D C13D 1_555 1_555
H12D C14D 1_555 1_555
C15D C14D 1_555 1_555
C16D C7D 1_555 1_555
C17D C15D 1_555 1_555
H13D C17D 1_555 1_555
H14D C17D 1_555 1_555
C18D C12D 1_555 1_555
H15D C18D 1_555 1_555
H16D C18D 1_555 1_555
C19D N5D 1_555 1_555
N1D C4D 1_555 1_555
N2D Mn1 1_555 1_555
N3D C1D 1_555 1_555
N4D C1D 1_555 1_555
N4G Mn1 1_555 1_555
N4C Mn1 1_555 1_555
N5D Mn1 1_555 1_555
S1D C19D 1_555 1_555
C2 N3 1_555 1_555
C3 N4 1_555 1_555
C5 N1 1_555 1_555
C6 N2 1_555 1_555
C11 C16 1_555 1_555
C15 C16 1_555 1_555
C17 N3 1_555 1_555
C18 N1 1_555 1_555
C2D N3D 1_555 1_555
C3D N4D 1_555 1_555
C4D N2D 1_555 1_555
C5D N1D 1_555 1_555
C6D N2D 1_555 1_555
C11D C16D 1_555 1_555
C15D C16D 1_555 1_555
C17D N3D 1_555 1_555
C18D N1D 1_555 1_555

#END
