
#######################################################################
#
#                 Cambridge Crystallographic Data Centre
#                                CCDC 
#
#######################################################################
#
# If this CIF has been generated from an entry in the Cambridge 
# Structural Database, then it will include bibliographic, chemical, 
# crystal, experimental, refinement or atomic coordinate data resulting 
# from the CCDC's data processing and validation procedures.
#
#######################################################################

data_HEXNUU
_symmetry_cell_setting           orthorhombic
_symmetry_space_group_name_H-M   'P b c a'
_symmetry_Int_Tables_number      61
_space_group_name_Hall           '-P 2ac 2ab'
loop_
_symmetry_equiv_pos_site_id
_symmetry_equiv_pos_as_xyz
1 x,y,z
2 1/2-x,-y,1/2+z
3 1/2+x,1/2-y,-z
4 -x,1/2+y,1/2-z
5 -x,-y,-z
6 1/2+x,y,1/2-z
7 1/2-x,1/2+y,z
8 x,1/2-y,1/2+z
_cell_length_a                   17.268(5)
_cell_length_b                   15.465(5)
_cell_length_c                   17.929(5)
_cell_angle_alpha                90
_cell_angle_beta                 90
_cell_angle_gamma                90
_cell_volume                     4787.93
loop_
_atom_site_label
_atom_site_type_symbol
_atom_site_fract_x
_atom_site_fract_y
_atom_site_fract_z
C1 C 0.7878(2) 0.0307(2) -0.1050(2)
H1 H 0.8088 -0.0236 -0.0957
C2 C 0.8106(2) 0.0733(2) -0.1687(2)
H2 H 0.8456 0.0477 -0.2015
C3 C 0.7804(2) 0.1561(2) -0.1836(2)
C4 C 0.7295(2) 0.1911(2) -0.1309(2)
H3 H 0.7091 0.2462 -0.1374
C5 C 0.7101(2) 0.1426(2) -0.0691(2)
H4 H 0.6761 0.1669 -0.0347
C6 C 0.6794(2) 0.3719(2) -0.3203(2)
H5 H 0.6304 0.3953 -0.3131
C7 C 0.7016(2) 0.3048(2) -0.2749(2)
H6 H 0.6683 0.2836 -0.2385
C8 C 0.7755(2) 0.2690(2) -0.28457(19)
C9 C 0.8230(2) 0.3060(2) -0.3391(2)
H7 H 0.8731 0.2856 -0.3460
C10 C 0.7953(2) 0.3723(3) -0.3823(2)
H8 H 0.8276 0.3952 -0.4189
C11 C 0.8188(2) -0.0819(2) 0.15194(18)
H9 H 0.7910 -0.0465 0.1842
C12 C 0.8862(2) -0.1180(2) 0.1774(2)
H10 H 0.9034 -0.1063 0.2255
C13 C 0.9294(2) -0.1729(2) 0.1305(2)
C14 C 0.8987(2) -0.1883(2) 0.0588(2)
H11 H 0.9240 -0.2251 0.0258
C15 C 0.8310(2) -0.1481(2) 0.0384(2)
H12 H 0.8121 -0.1585 -0.0093
C16 C 1.1166(3) -0.3046(3) 0.0098(3)
H13 H 1.1309 -0.2924 -0.0391
C17 C 1.0701(3) -0.2457(3) 0.0462(3)
H14 H 1.0548 -0.1949 0.0226
C18 C 1.0466(2) -0.2635(2) 0.1185(2)
C19 C 1.0756(2) -0.3374(3) 0.1521(2)
H15 H 1.0637 -0.3498 0.2015
C20 C 1.1224(2) -0.3927(2) 0.1113(2)
H16 H 1.1408 -0.4424 0.1344
N1 N 0.73707(18) 0.06273(18) -0.05518(16)
N2 N 0.80443(18) 0.1970(2) -0.24760(18)
H17 H 0.8444 0.1741 -0.2683
N3 N 0.72368(17) 0.4061(2) -0.37448(17)
N4 N 0.79029(17) -0.09463(19) 0.08254(17)
N5 N 0.99541(18) -0.2102(2) 0.15786(19)
H18 H 1.0065 -0.1999 0.2038
N6 N 1.14249(18) -0.37800(19) 0.04008(18)
O1 O 0.57038(17) 0.0693(2) 0.0335(2)
H19 H 0.540(2) 0.043(2) 0.061(2)
H20 H 0.550(4) 0.079(5) -0.009(4)
Cd1 Cd 0.682981(14) -0.015669(17) 0.044435(13)
S1 S 0.53810(8) -0.07839(15) 0.16818(11)
O2 O 0.5176(9) -0.1764(10) 0.1948(8)
O4 O 0.5261(2) -0.0213(3) 0.2330(2)
O5 O 0.4879(2) -0.0507(3) 0.1065(3)
O8 O 0.6113(16) -0.1049(12) 0.1322(14)
N3G N 0.72368(17) 0.0939(2) 0.12552(17)
N6B N 0.64249(18) -0.12200(19) -0.04008(18)
Cd1G Cd 0.682981(14) 0.515669(17) -0.455565(13)
Cd1B Cd 1.182981(14) -0.484331(17) -0.044435(13)
O10 O 0.4300(3) -0.2985(3) 0.1243(3)
O11 O 0.5007(6) 0.0473(7) 0.3750(6)
O3? O 0.6206(7) -0.0750(6) 0.1449(6)
S2? S 0.5239(2) -0.1234(4) 0.1377(3)
O6? O 0.4938(5) -0.1524(6) 0.0687(6)
O7? O 0.4860(7) -0.0433(8) 0.1596(7)
O9? O 0.5215(16) -0.1718(14) 0.1838(15)
O12? O 1.0260(6) -0.0364(6) -0.0402(5)
O13? O 0.5146(6) 0.0444(7) 0.2918(6)
O14? O 0.4483(9) -0.3670(11) 0.1490(9)
loop_
_geom_bond_atom_site_label_1
_geom_bond_atom_site_label_2
_geom_bond_site_symmetry_1
_geom_bond_site_symmetry_2
C1 H1 1_555 1_555
C2 C1 1_555 1_555
H2 C2 1_555 1_555
C3 C2 1_555 1_555
C4 C3 1_555 1_555
H3 C4 1_555 1_555
C5 C4 1_555 1_555
H4 C5 1_555 1_555
C6 H5 1_555 1_555
C7 C6 1_555 1_555
H6 C7 1_555 1_555
C8 C7 1_555 1_555
C9 C8 1_555 1_555
H7 C9 1_555 1_555
C10 C9 1_555 1_555
H8 C10 1_555 1_555
C11 H9 1_555 1_555
C12 C11 1_555 1_555
H10 C12 1_555 1_555
C13 C12 1_555 1_555
C14 C13 1_555 1_555
H11 C14 1_555 1_555
C15 C14 1_555 1_555
H12 C15 1_555 1_555
C16 H13 1_555 1_555
C17 C16 1_555 1_555
H14 C17 1_555 1_555
C18 C17 1_555 1_555
C19 C18 1_555 1_555
H15 C19 1_555 1_555
C20 C19 1_555 1_555
H16 C20 1_555 1_555
N1 C1 1_555 1_555
N2 C3 1_555 1_555
H17 N2 1_555 1_555
N3 C6 1_555 1_555
N4 C11 1_555 1_555
N5 C13 1_555 1_555
H18 N5 1_555 1_555
N6 C16 1_555 1_555
O1 H19 1_555 1_555
H20 O1 1_555 1_555
Cd1 N1 1_555 1_555
S1 O2 1_555 1_555
O4 S1 1_555 1_555
O5 S1 1_555 1_555
O8 Cd1 1_555 1_555
N3G Cd1 1_555 1_555
N6B Cd1 1_555 1_555
Cd1G N3 1_555 1_555
Cd1B N6 1_555 1_555
C5 N1 1_555 1_555
C8 N2 1_555 1_555
C10 N3 1_555 1_555
C15 N4 1_555 1_555
C18 N5 1_555 1_555
C20 N6 1_555 1_555
N4 Cd1 1_555 1_555
O1 Cd1 1_555 1_555
S1 O8 1_555 1_555

#END
