
#######################################################################
#
#                 Cambridge Crystallographic Data Centre
#                                CCDC 
#
#######################################################################
#
# If this CIF has been generated from an entry in the Cambridge 
# Structural Database, then it will include bibliographic, chemical, 
# crystal, experimental, refinement or atomic coordinate data resulting 
# from the CCDC's data processing and validation procedures.
#
#######################################################################

data_HEXQOS
_symmetry_cell_setting           orthorhombic
_symmetry_space_group_name_H-M   'P 21 21 21'
_symmetry_Int_Tables_number      19
_space_group_name_Hall           'P 2ac 2ab'
loop_
_symmetry_equiv_pos_site_id
_symmetry_equiv_pos_as_xyz
1 x,y,z
2 1/2-x,-y,1/2+z
3 1/2+x,1/2-y,-z
4 -x,1/2+y,1/2-z
_cell_length_a                   14.713(3)
_cell_length_b                   17.364(4)
_cell_length_c                   27.669(6)
_cell_angle_alpha                90
_cell_angle_beta                 90
_cell_angle_gamma                90
_cell_volume                     7068.78
loop_
_atom_site_label
_atom_site_type_symbol
_atom_site_fract_x
_atom_site_fract_y
_atom_site_fract_z
Au1 Au 0.046197(15) 0.244519(16) 0.496800(11)
C1 C 0.0498(4) 0.1465(4) 0.4540(3)
C2 C 0.0167(4) 0.1428(4) 0.4074(3)
F1 F -0.0068(3) 0.2075(2) 0.38343(17)
C3 C 0.0047(5) 0.0741(4) 0.3831(3)
F2 F -0.0297(3) 0.0713(2) 0.33806(17)
C4 C 0.0274(5) 0.0059(4) 0.4051(3)
F3 F 0.0159(3) -0.0617(2) 0.38234(18)
C5 C 0.0622(5) 0.0067(4) 0.4513(3)
F4 F 0.0844(3) -0.0596(2) 0.47441(18)
C6 C 0.0738(5) 0.0764(4) 0.4745(3)
F5 F 0.1049(3) 0.0748(2) 0.52103(17)
C7 C 0.0526(4) 0.3389(4) 0.5410(3)
C8 C 0.0197(5) 0.3409(4) 0.5879(3)
F6 F -0.0164(3) 0.2771(2) 0.60798(16)
C9 C 0.0172(5) 0.4074(5) 0.6165(3)
F7 F -0.0186(3) 0.4078(3) 0.66094(17)
C10 C 0.0544(6) 0.4736(4) 0.5977(3)
F8 F 0.0564(4) 0.5373(3) 0.62620(19)
C11 C 0.0890(5) 0.4747(4) 0.5517(3)
F9 F 0.1255(3) 0.5402(2) 0.53321(19)
C12 C 0.0872(5) 0.4103(4) 0.5248(3)
F10 F 0.1207(3) 0.4143(2) 0.47915(17)
Ag1 Ag 0.19914(3) 0.22905(3) 0.55048(2)
N1 N 0.1927(4) 0.1800(3) 0.6467(2)
O1 O 0.1791(3) 0.1316(3) 0.6135(2)
O2 O 0.2106(3) 0.2485(3) 0.63402(18)
O3 O 0.1880(4) 0.1626(3) 0.6901(2)
Ag2 Ag 0.20121(3) 0.25881(3) 0.44504(2)
N2 N 0.2009(4) 0.3116(3) 0.3495(2)
O4 O 0.2256(3) 0.2443(3) 0.36155(18)
O5 O 0.1748(3) 0.3553(3) 0.3828(2)
O6 O 0.1985(4) 0.3320(3) 0.3064(2)
Au2 Au 0.355281(14) 0.245068(14) 0.499087(10)
C13 C 0.3445(4) 0.1270(3) 0.5051(3)
C14 C 0.3521(5) 0.0862(4) 0.5477(3)
F11 F 0.3780(3) 0.1240(2) 0.58920(17)
C15 C 0.3345(5) 0.0088(4) 0.5516(3)
F12 F 0.3408(3) -0.0288(2) 0.59525(17)
C16 C 0.3104(5) -0.0314(4) 0.5114(3)
F13 F 0.2897(3) -0.1083(2) 0.51532(18)
C17 C 0.3011(5) 0.0047(4) 0.4671(3)
F14 F 0.2784(3) -0.0343(2) 0.42817(18)
C18 C 0.3189(4) 0.0834(4) 0.4658(3)
F15 F 0.3096(3) 0.1167(2) 0.42182(15)
C19 C 0.3466(4) 0.3624(4) 0.4939(3)
F16 F 0.3149(3) 0.3711(2) 0.57784(16)
C20 C 0.3268(4) 0.4063(4) 0.5336(3)
C21 C 0.3201(5) 0.4859(4) 0.5341(3)
F17 F 0.3040(3) 0.5251(2) 0.57566(18)
C22 C 0.3287(4) 0.5248(4) 0.4912(3)
F18 F 0.3191(3) 0.6023(2) 0.48925(19)
C23 C 0.3467(4) 0.4844(4) 0.4498(3)
F19 F 0.3529(3) 0.5229(2) 0.40753(17)
C24 C 0.3571(4) 0.4048(4) 0.4519(3)
F20 F 0.3757(3) 0.3683(2) 0.40925(15)
Au1B Au 0.546197(15) 0.255481(16) 0.503200(11)
Au2B Au -0.144719(14) 0.254932(14) 0.500913(10)
P1 P 0.39961(12) 0.68465(10) 0.30496(7)
C25 C 0.3337(4) 0.6221(4) 0.2659(3)
C26 C 0.2839(4) 0.5630(4) 0.2874(3)
H1 H 0.2853 0.5561 0.3214
C27 C 0.2323(5) 0.5145(4) 0.2588(3)
H2 H 0.1991 0.4735 0.2731
C28 C 0.2291(5) 0.5257(4) 0.2096(3)
H3 H 0.1948 0.4915 0.1900
C29 C 0.2759(5) 0.5869(4) 0.1883(3)
H4 H 0.2716 0.5955 0.1544
C30 C 0.3293(5) 0.6358(4) 0.2171(3)
H5 H 0.3618 0.6775 0.2031
C31 C 0.4652(4) 0.7541(4) 0.2711(2)
C32 C 0.5302(5) 0.7262(4) 0.2392(3)
H6 H 0.5370 0.6723 0.2346
C33 C 0.5846(5) 0.7768(4) 0.2145(3)
H7 H 0.6264 0.7579 0.1912
C34 C 0.5791(5) 0.8553(5) 0.2232(3)
H8 H 0.6182 0.8898 0.2065
C35 C 0.5165(5) 0.8837(4) 0.2563(3)
H9 H 0.5129 0.9374 0.2624
C36 C 0.4587(5) 0.8326(4) 0.2806(3)
H10 H 0.4155 0.8514 0.3032
C37 C 0.3212(4) 0.7340(4) 0.3431(3)
C38 C 0.2569(4) 0.7822(4) 0.3213(3)
H11 H 0.2564 0.7883 0.2872
C39 C 0.1939(5) 0.8209(4) 0.3495(3)
H12 H 0.1506 0.8538 0.3346
C40 C 0.1937(5) 0.8119(4) 0.3984(3)
H13 H 0.1503 0.8390 0.4173
C41 C 0.2558(5) 0.7640(4) 0.4210(3)
H14 H 0.2546 0.7579 0.4551
C42 C 0.3205(5) 0.7244(4) 0.3932(3)
H15 H 0.3634 0.6913 0.4084
C43 C 0.4789(4) 0.6282(4) 0.3388(3)
C44 C 0.4920(5) 0.5503(4) 0.3281(3)
H16 H 0.4570 0.5264 0.3035
C45 C 0.5570(5) 0.5075(4) 0.3537(3)
H17 H 0.5661 0.4545 0.3465
C46 C 0.6072(5) 0.5425(4) 0.3892(3)
H18 H 0.6503 0.5132 0.4069
C47 C 0.5955(5) 0.6214(4) 0.3996(3)
H19 H 0.6312 0.6456 0.4239
C48 C 0.5316(5) 0.6630(4) 0.3742(3)
H20 H 0.5236 0.7162 0.3809
P2 P 0.40454(12) 0.82538(10) 0.70018(7)
C49 C 0.3371(4) 0.8849(4) 0.7397(3)
C50 C 0.3412(5) 0.8779(4) 0.7889(3)
H21 H 0.3798 0.8403 0.8030
C51 C 0.2887(5) 0.9260(4) 0.8185(3)
H22 H 0.2923 0.9218 0.8527
C52 C 0.2320(5) 0.9793(4) 0.7976(3)
H23 H 0.1960 1.0117 0.8176
C53 C 0.2265(5) 0.9869(4) 0.7474(3)
H24 H 0.1875 1.0242 0.7334
C54 C 0.2791(5) 0.9386(4) 0.7181(3)
H25 H 0.2755 0.9424 0.6839
C55 C 0.4737(4) 0.7577(4) 0.7325(2)
C56 C 0.5444(5) 0.7853(4) 0.7613(3)
H26 H 0.5530 0.8392 0.7644
C57 C 0.6021(4) 0.7356(4) 0.7855(3)
H27 H 0.6481 0.7549 0.8063
C58 C 0.5912(5) 0.6554(5) 0.7786(3)
H28 H 0.6304 0.6204 0.7947
C59 C 0.5236(5) 0.6280(4) 0.7484(3)
H29 H 0.5179 0.5742 0.7431
C60 C 0.4631(5) 0.6791(4) 0.7256(3)
H30 H 0.4156 0.6600 0.7057
C61 C 0.4821(4) 0.8844(4) 0.6660(3)
C62 C 0.4836(5) 0.9635(4) 0.6704(3)
H31 H 0.4418 0.9880 0.6916
C63 C 0.5450(5) 1.0079(4) 0.6445(3)
H32 H 0.5443 1.0624 0.6472
C64 C 0.6066(5) 0.9724(4) 0.6149(3)
H33 H 0.6497 1.0023 0.5976
C65 C 0.6063(5) 0.8924(4) 0.6101(3)
H34 H 0.6483 0.8681 0.5890
C66 C 0.5454(5) 0.8488(4) 0.6360(3)
H35 H 0.5466 0.7942 0.6334
C67 C 0.3274(4) 0.7733(3) 0.6621(3)
C68 C 0.2584(4) 0.7317(4) 0.6854(3)
H36 H 0.2518 0.7338 0.7195
C69 C 0.1991(5) 0.6868(4) 0.6571(3)
H37 H 0.1522 0.6578 0.6722
C70 C 0.2089(5) 0.6846(4) 0.6074(3)
H38 H 0.1682 0.6547 0.5884
C71 C 0.2771(5) 0.7255(4) 0.5855(3)
H39 H 0.2841 0.7229 0.5514
C72 C 0.3361(5) 0.7707(4) 0.6125(3)
H40 H 0.3823 0.7997 0.5969
C73 C 1.0152(7) 0.6728(5) 0.4982(4)
H41 H 1.0807 0.6600 0.5000
H42 H 0.9881 0.6425 0.4716
Cl1 Cl 0.96148(16) 0.64679(14) 0.55404(10)
Cl2 Cl 1.0028(2) 0.76991(15) 0.48610(12)
loop_
_geom_bond_atom_site_label_1
_geom_bond_atom_site_label_2
_geom_bond_site_symmetry_1
_geom_bond_site_symmetry_2
Au1 C1 1_555 1_555
C1 C2 1_555 1_555
C2 F1 1_555 1_555
C3 C2 1_555 1_555
F2 C3 1_555 1_555
C4 C3 1_555 1_555
F3 C4 1_555 1_555
C5 C4 1_555 1_555
F4 C5 1_555 1_555
C6 C1 1_555 1_555
F5 C6 1_555 1_555
C7 Au1 1_555 1_555
C8 C7 1_555 1_555
F6 C8 1_555 1_555
C9 C8 1_555 1_555
F7 C9 1_555 1_555
C10 C9 1_555 1_555
F8 C10 1_555 1_555
C11 C10 1_555 1_555
F9 C11 1_555 1_555
C12 C7 1_555 1_555
F10 C12 1_555 1_555
Ag1 Au1 1_555 1_555
N1 O1 1_555 1_555
O1 Ag1 1_555 1_555
O2 Ag1 1_555 1_555
O3 N1 1_555 1_555
Ag2 Au1 1_555 1_555
N2 O4 1_555 1_555
O4 Ag2 1_555 1_555
O5 Ag2 1_555 1_555
O6 N2 1_555 1_555
Au2 Ag1 1_555 1_555
C13 Au2 1_555 1_555
C14 C13 1_555 1_555
F11 C14 1_555 1_555
C15 C14 1_555 1_555
F12 C15 1_555 1_555
C16 C15 1_555 1_555
F13 C16 1_555 1_555
C17 C16 1_555 1_555
F14 C17 1_555 1_555
C18 C13 1_555 1_555
F15 C18 1_555 1_555
C19 Au2 1_555 1_555
F16 C20 1_555 1_555
C20 C19 1_555 1_555
C21 C20 1_555 1_555
F17 C21 1_555 1_555
C22 C21 1_555 1_555
F18 C22 1_555 1_555
C23 C22 1_555 1_555
F19 C23 1_555 1_555
C24 C19 1_555 1_555
F20 C24 1_555 1_555
P1 C25 1_555 1_555
C25 C26 1_555 1_555
C26 H1 1_555 1_555
C27 C26 1_555 1_555
H2 C27 1_555 1_555
C28 C27 1_555 1_555
H3 C28 1_555 1_555
C29 C28 1_555 1_555
H4 C29 1_555 1_555
C30 C25 1_555 1_555
H5 C30 1_555 1_555
C31 P1 1_555 1_555
C32 C31 1_555 1_555
H6 C32 1_555 1_555
C33 C32 1_555 1_555
H7 C33 1_555 1_555
C34 C33 1_555 1_555
H8 C34 1_555 1_555
C35 C34 1_555 1_555
H9 C35 1_555 1_555
C36 C31 1_555 1_555
H10 C36 1_555 1_555
C37 P1 1_555 1_555
C38 C37 1_555 1_555
H11 C38 1_555 1_555
C39 C38 1_555 1_555
H12 C39 1_555 1_555
C40 C39 1_555 1_555
H13 C40 1_555 1_555
C41 C40 1_555 1_555
H14 C41 1_555 1_555
C42 C37 1_555 1_555
H15 C42 1_555 1_555
C43 P1 1_555 1_555
C44 C43 1_555 1_555
H16 C44 1_555 1_555
C45 C44 1_555 1_555
H17 C45 1_555 1_555
C46 C45 1_555 1_555
H18 C46 1_555 1_555
C47 C46 1_555 1_555
H19 C47 1_555 1_555
C48 C43 1_555 1_555
H20 C48 1_555 1_555
P2 C49 1_555 1_555
C49 C50 1_555 1_555
C50 H21 1_555 1_555
C51 C50 1_555 1_555
H22 C51 1_555 1_555
C52 C51 1_555 1_555
H23 C52 1_555 1_555
C53 C52 1_555 1_555
H24 C53 1_555 1_555
C54 C49 1_555 1_555
H25 C54 1_555 1_555
C55 P2 1_555 1_555
C56 C55 1_555 1_555
H26 C56 1_555 1_555
C57 C56 1_555 1_555
H27 C57 1_555 1_555
C58 C57 1_555 1_555
H28 C58 1_555 1_555
C59 C58 1_555 1_555
H29 C59 1_555 1_555
C60 C55 1_555 1_555
H30 C60 1_555 1_555
C61 P2 1_555 1_555
C62 C61 1_555 1_555
H31 C62 1_555 1_555
C63 C62 1_555 1_555
H32 C63 1_555 1_555
C64 C63 1_555 1_555
H33 C64 1_555 1_555
C65 C64 1_555 1_555
H34 C65 1_555 1_555
C66 C61 1_555 1_555
H35 C66 1_555 1_555
C67 P2 1_555 1_555
C68 C67 1_555 1_555
H36 C68 1_555 1_555
C69 C68 1_555 1_555
H37 C69 1_555 1_555
C70 C69 1_555 1_555
H38 C70 1_555 1_555
C71 C70 1_555 1_555
H39 C71 1_555 1_555
C72 C67 1_555 1_555
H40 C72 1_555 1_555
C73 H41 1_555 1_555
H42 C73 1_555 1_555
Cl1 C73 1_555 1_555
Cl2 C73 1_555 1_555
Au1B Au2 1_555 1_555
Au2B Au1 1_555 1_555
C5 C6 1_555 1_555
C11 C12 1_555 1_555
N1 O2 1_555 1_555
Ag2 Au2 1_555 1_555
N2 O5 1_555 1_555
C17 C18 1_555 1_555
C23 C24 1_555 1_555
C29 C30 1_555 1_555
C35 C36 1_555 1_555
C41 C42 1_555 1_555
C47 C48 1_555 1_555
C53 C54 1_555 1_555
C59 C60 1_555 1_555
C65 C66 1_555 1_555
C71 C72 1_555 1_555

#END
