
#######################################################################
#
#                 Cambridge Crystallographic Data Centre
#                                CCDC 
#
#######################################################################
#
# If this CIF has been generated from an entry in the Cambridge 
# Structural Database, then it will include bibliographic, chemical, 
# crystal, experimental, refinement or atomic coordinate data resulting 
# from the CCDC's data processing and validation procedures.
#
#######################################################################

data_HEXTEK
_symmetry_cell_setting           triclinic
_symmetry_space_group_name_H-M   'P -1'
_symmetry_Int_Tables_number      2
_space_group_name_Hall           '-P 1'
loop_
_symmetry_equiv_pos_site_id
_symmetry_equiv_pos_as_xyz
1 x,y,z
2 -x,-y,-z
_cell_length_a                   3.5647(8)
_cell_length_b                   10.192(2)
_cell_length_c                   10.679(2)
_cell_angle_alpha                109.196(4)
_cell_angle_beta                 98.770(4)
_cell_angle_gamma                95.216(4)
_cell_volume                     357.969
loop_
_atom_site_label
_atom_site_type_symbol
_atom_site_fract_x
_atom_site_fract_y
_atom_site_fract_z
N1 N 0.2550(6) 0.6387(2) 0.7036(2)
C1 C 0.3925(7) 0.7190(2) 0.6630(2)
C2 C 0.5615(7) 0.8186(2) 0.6135(2)
N2 N 0.7406(6) 0.9435(2) 0.7119(2)
O1 O 0.9085(5) 1.03800(18) 0.68141(18)
O2 O 0.7297(6) 0.96090(19) 0.83400(17)
C3 C 0.5674(7) 0.7936(2) 0.4761(2)
H1 H 0.697(8) 0.871(3) 0.461(3)
C4 C 0.4065(7) 0.6736(3) 0.3714(2)
H2 H 0.272(8) 0.598(3) 0.388(3)
O3 O 0.3064(5) 0.56725(17) 0.13302(17)
C5 C 0.4392(7) 0.6692(2) 0.2391(2)
H3 H 0.583(8) 0.757(3) 0.234(3)
Na1 Na 0.2437(3) 0.61108(10) 0.92366(9)
O4 O -0.1806(5) 0.77795(19) 0.98655(19)
H4 H -0.223(9) 0.820(3) 0.928(3)
H5 H -0.074(9) 0.844(3) 1.057(3)
O3_2 O 0.3064(5) 0.56725(17) 1.13302(17)
O3A O -0.3064(5) 0.43275(17) 0.86698(17)
O3A_2 O 0.6936(5) 0.43275(17) 0.86698(17)
Na1_2 Na 0.2437(3) 0.61108(10) -0.07634(9)
Na1A Na -0.2437(3) 0.38892(10) 0.07634(9)
Na1A_2 Na 0.7563(3) 0.38892(10) 0.07634(9)
Na1_3 Na -0.7563(3) 0.61108(10) 0.92366(9)
O4_2 O 0.8194(5) 0.77795(19) 0.98655(19)
H4_2 H 0.777(9) 0.820(3) 0.928(3)
H5_2 H 0.926(9) 0.844(3) 1.057(3)
loop_
_geom_bond_atom_site_label_1
_geom_bond_atom_site_label_2
_geom_bond_site_symmetry_1
_geom_bond_site_symmetry_2
N1 C1 1_555 1_555
C1 C2 1_555 1_555
C2 N2 1_555 1_555
N2 O1 1_555 1_555
O2 N2 1_555 1_555
C3 C2 1_555 1_555
H1 C3 1_555 1_555
C4 C3 1_555 1_555
H2 C4 1_555 1_555
O3 C5 1_555 1_555
C5 C4 1_555 1_555
H3 C5 1_555 1_555
Na1 N1 1_555 1_555
O4 Na1 1_555 1_555
H4 O4 1_555 1_555
H5 O4 1_555 1_555
O3_2 Na1 1_555 1_555
O3A Na1 1_555 1_555
O3A_2 Na1 1_555 1_555
Na1_2 O3 1_555 1_555
Na1A O3 1_555 1_555
Na1A_2 O3 1_555 1_555
Na1_3 O4 1_555 1_555
O4_2 Na1 1_555 1_555
H4_2 O4_2 1_555 1_555
H5_2 O4_2 1_555 1_555
O3A Na1_3 1_555 1_555

#END
