
#######################################################################
#
#                 Cambridge Crystallographic Data Centre
#                                CCDC 
#
#######################################################################
#
# If this CIF has been generated from an entry in the Cambridge 
# Structural Database, then it will include bibliographic, chemical, 
# crystal, experimental, refinement or atomic coordinate data resulting 
# from the CCDC's data processing and validation procedures.
#
#######################################################################

data_HEXVEM
_symmetry_cell_setting           cubic
_symmetry_space_group_name_H-M   'F m -3'
_symmetry_Int_Tables_number      202
_space_group_name_Hall           '-F 2 2 3'
loop_
_symmetry_equiv_pos_site_id
_symmetry_equiv_pos_as_xyz
1 x,y,z
2 z,x,y
3 y,z,x
4 x,1/2+y,1/2+z
5 z,1/2+x,1/2+y
6 y,1/2+z,1/2+x
7 1/2+x,y,1/2+z
8 1/2+z,x,1/2+y
9 1/2+y,z,1/2+x
10 1/2+x,1/2+y,z
11 1/2+z,1/2+x,y
12 1/2+y,1/2+z,x
13 -x,-y,z
14 -x,y,-z
15 x,-y,-z
16 z,-x,-y
17 -z,-x,y
18 -z,x,-y
19 -y,z,-x
20 y,-z,-x
21 -y,-z,x
22 -x,1/2-y,1/2+z
23 -x,1/2+y,1/2-z
24 x,1/2-y,1/2-z
25 z,1/2-x,1/2-y
26 -z,1/2-x,1/2+y
27 -z,1/2+x,1/2-y
28 -y,1/2+z,1/2-x
29 y,1/2-z,1/2-x
30 -y,1/2-z,1/2+x
31 1/2-x,-y,1/2+z
32 1/2-x,y,1/2-z
33 1/2+x,-y,1/2-z
34 1/2+z,-x,1/2-y
35 1/2-z,-x,1/2+y
36 1/2-z,x,1/2-y
37 1/2-y,z,1/2-x
38 1/2+y,-z,1/2-x
39 1/2-y,-z,1/2+x
40 1/2-x,1/2-y,z
41 1/2-x,1/2+y,-z
42 1/2+x,1/2-y,-z
43 1/2+z,1/2-x,-y
44 1/2-z,1/2-x,y
45 1/2-z,1/2+x,-y
46 1/2-y,1/2+z,-x
47 1/2+y,1/2-z,-x
48 1/2-y,1/2-z,x
49 -x,-y,-z
50 -z,-x,-y
51 -y,-z,-x
52 -x,1/2-y,1/2-z
53 -z,1/2-x,1/2-y
54 -y,1/2-z,1/2-x
55 1/2-x,-y,1/2-z
56 1/2-z,-x,1/2-y
57 1/2-y,-z,1/2-x
58 1/2-x,1/2-y,-z
59 1/2-z,1/2-x,-y
60 1/2-y,1/2-z,-x
61 x,y,-z
62 x,-y,z
63 -x,y,z
64 -z,x,y
65 z,x,-y
66 z,-x,y
67 y,-z,x
68 -y,z,x
69 y,z,-x
70 x,1/2+y,1/2-z
71 x,1/2-y,1/2+z
72 -x,1/2+y,1/2+z
73 -z,1/2+x,1/2+y
74 z,1/2+x,1/2-y
75 z,1/2-x,1/2+y
76 y,1/2-z,1/2+x
77 -y,1/2+z,1/2+x
78 y,1/2+z,1/2-x
79 1/2+x,y,1/2-z
80 1/2+x,-y,1/2+z
81 1/2-x,y,1/2+z
82 1/2-z,x,1/2+y
83 1/2+z,x,1/2-y
84 1/2+z,-x,1/2+y
85 1/2+y,-z,1/2+x
86 1/2-y,z,1/2+x
87 1/2+y,z,1/2-x
88 1/2+x,1/2+y,-z
89 1/2+x,1/2-y,z
90 1/2-x,1/2+y,z
91 1/2-z,1/2+x,y
92 1/2+z,1/2+x,-y
93 1/2+z,1/2-x,y
94 1/2+y,1/2-z,x
95 1/2-y,1/2+z,x
96 1/2+y,1/2+z,-x
_cell_length_a                   49.6188(8)
_cell_length_b                   49.6188(8)
_cell_length_c                   49.6188(8)
_cell_angle_alpha                90
_cell_angle_beta                 90
_cell_angle_gamma                90
_cell_volume                     122163
loop_
_atom_site_label
_atom_site_type_symbol
_atom_site_fract_x
_atom_site_fract_y
_atom_site_fract_z
Cu1 Cu 0.26322(3) 0.0000 0.22685(3)
O1 O 0.23492(14) 0.02611(16) 0.21542(13)
O2 O 0.28261(17) 0.0000 0.18776(16)
O3 O 0.21677(13) 0.02749(13) 0.25991(15)
N1 N 0.1829(2) 0.1416(2) 0.1673(4)
N2 N 0.1589(2) 0.1288(2) 0.2035(2)
H1 H 0.1448 0.1312 0.2137
C1 C 0.1605(5) 0.1484(6) 0.1843(3)
C2 C 0.1735(3) 0.1057(3) 0.2120(4)
C3 C 0.1912(4) 0.0937(4) 0.1951(3)
H2 H 0.1940 0.1013 0.1780
C4 C 0.2050(2) 0.0712(4) 0.2017(4)
H3 H 0.2164 0.0633 0.1888
C5 C 0.2031(3) 0.0591(3) 0.2271(3)
C6 C 0.1852(4) 0.0710(3) 0.2423(3)
H4 H 0.1822 0.0630 0.2592
C7 C 0.1702(3) 0.0938(4) 0.2366(3)
H5 H 0.1580 0.1009 0.2493
C8 C 0.2205(3) 0.0357(2) 0.2319(3)
Cu1B Cu 0.0000 0.22685(3) 0.26322(3)
Cu1A Cu 0.22685(3) 0.26322(3) 0.0000
Cu1BB Cu 0.23678(3) 0.0000 0.27315(3)
Cu1AB Cu 0.0000 0.27315(3) 0.23678(3)
Cu1FB Cu 0.27315(3) 0.23678(3) 0.0000
Cu1NB Cu 0.0000 -0.22685(3) 0.26322(3)
Cu1YB Cu 0.0000 -0.27315(3) 0.23678(3)
Cu1MB Cu 0.22685(3) -0.26322(3) 0.0000
Cu1LC Cu 0.27315(3) -0.23678(3) 0.0000
O1B O 0.02611(16) 0.21542(13) 0.23492(14)
O1A O 0.21542(13) 0.23492(14) 0.02611(16)
O1IB O 0.23492(14) -0.02611(16) 0.21542(13)
O1NB O 0.02611(16) -0.21542(13) 0.23492(14)
O1MB O 0.21542(13) -0.23492(14) 0.02611(16)
O1OB O -0.02611(16) 0.21542(13) 0.23492(14)
O1LB O 0.21542(13) 0.23492(14) -0.02611(16)
O2B O 0.0000 0.18776(16) 0.28261(17)
O2A O 0.18776(16) 0.28261(17) 0.0000
O3B O 0.02749(13) 0.25991(15) 0.21677(13)
O3A O 0.25991(15) 0.21677(13) 0.02749(13)
O3IB O 0.21677(13) -0.02749(13) 0.25991(15)
O3NB O 0.02749(13) -0.25991(15) 0.21677(13)
O3MB O 0.25991(15) -0.21677(13) 0.02749(13)
O3BB O 0.28323(13) -0.02749(13) 0.24009(15)
O3EA O 0.28323(13) 0.02749(13) 0.24009(15)
O3AB O -0.02749(13) 0.24009(15) 0.28323(13)
O3BA O 0.02749(13) 0.24009(15) 0.28323(13)
O3FB O 0.24009(15) 0.28323(13) -0.02749(13)
O3QA O 0.24009(15) 0.28323(13) 0.02749(13)
N1A N 0.1673(4) 0.1829(2) 0.1416(2)
N1B N 0.1416(2) 0.1673(4) 0.1829(2)
N1IB N 0.1829(2) -0.1416(2) 0.1673(4)
N1MB N 0.1673(4) -0.1829(2) 0.1416(2)
N1NB N 0.1416(2) -0.1673(4) 0.1829(2)
N2B N 0.1288(2) 0.2035(2) 0.1589(2)
N2A N 0.2035(2) 0.1589(2) 0.1288(2)
N2IB N 0.1589(2) -0.1288(2) 0.2035(2)
N2NB N 0.1288(2) -0.2035(2) 0.1589(2)
N2MB N 0.2035(2) -0.1589(2) 0.1288(2)
H1B H 0.1312 0.2137 0.1448
H1A H 0.2137 0.1448 0.1312
H1IB H 0.1448 -0.1312 0.2137
H1NB H 0.1312 -0.2137 0.1448
H1MB H 0.2137 -0.1448 0.1312
C1A C 0.1843(3) 0.1605(5) 0.1484(6)
C1B C 0.1484(6) 0.1843(3) 0.1605(5)
C1IB C 0.1605(5) -0.1484(6) 0.1843(3)
C1MB C 0.1843(3) -0.1605(5) 0.1484(6)
C1NB C 0.1484(6) -0.1843(3) 0.1605(5)
C2B C 0.1057(3) 0.2120(4) 0.1735(3)
C2A C 0.2120(4) 0.1735(3) 0.1057(3)
C2IB C 0.1735(3) -0.1057(3) 0.2120(4)
C2NB C 0.1057(3) -0.2120(4) 0.1735(3)
C2MB C 0.2120(4) -0.1735(3) 0.1057(3)
C3B C 0.0937(4) 0.1951(3) 0.1912(4)
C3A C 0.1951(3) 0.1912(4) 0.0937(4)
C3IB C 0.1912(4) -0.0937(4) 0.1951(3)
C3NB C 0.0937(4) -0.1951(3) 0.1912(4)
C3MB C 0.1951(3) -0.1912(4) 0.0937(4)
H2B H 0.1013 0.1780 0.1940
H2A H 0.1780 0.1940 0.1013
H2IB H 0.1940 -0.1013 0.1780
H2NB H 0.1013 -0.1780 0.1940
H2MB H 0.1780 -0.1940 0.1013
C4B C 0.0712(4) 0.2017(4) 0.2050(2)
C4A C 0.2017(4) 0.2050(2) 0.0712(4)
C4IB C 0.2050(2) -0.0712(4) 0.2017(4)
C4NB C 0.0712(4) -0.2017(4) 0.2050(2)
C4MB C 0.2017(4) -0.2050(2) 0.0712(4)
H3B H 0.0633 0.1888 0.2164
H3A H 0.1888 0.2164 0.0633
H3IB H 0.2164 -0.0633 0.1888
H3NB H 0.0633 -0.1888 0.2164
H3MB H 0.1888 -0.2164 0.0633
C5B C 0.0591(3) 0.2271(3) 0.2031(3)
C5A C 0.2271(3) 0.2031(3) 0.0591(3)
C5IB C 0.2031(3) -0.0591(3) 0.2271(3)
C5NB C 0.0591(3) -0.2271(3) 0.2031(3)
C5MB C 0.2271(3) -0.2031(3) 0.0591(3)
C6B C 0.0710(3) 0.2423(3) 0.1852(4)
C6A C 0.2423(3) 0.1852(4) 0.0710(3)
C6IB C 0.1852(4) -0.0710(3) 0.2423(3)
C6NB C 0.0710(3) -0.2423(3) 0.1852(4)
C6MB C 0.2423(3) -0.1852(4) 0.0710(3)
H4B H 0.0630 0.2592 0.1822
H4A H 0.2592 0.1822 0.0630
H4IB H 0.1822 -0.0630 0.2592
H4NB H 0.0630 -0.2592 0.1822
H4MB H 0.2592 -0.1822 0.0630
C7B C 0.0938(4) 0.2366(3) 0.1702(3)
C7A C 0.2366(3) 0.1702(3) 0.0938(4)
C7IB C 0.1702(3) -0.0938(4) 0.2366(3)
C7NB C 0.0938(4) -0.2366(3) 0.1702(3)
C7MB C 0.2366(3) -0.1702(3) 0.0938(4)
H5B H 0.1009 0.2493 0.1580
H5A H 0.2493 0.1580 0.1009
H5IB H 0.1580 -0.1009 0.2493
H5NB H 0.1009 -0.2493 0.1580
H5MB H 0.2493 -0.1580 0.1009
C8B C 0.0357(2) 0.2319(3) 0.2205(3)
C8A C 0.2319(3) 0.2205(3) 0.0357(2)
C8IB C 0.2205(3) -0.0357(2) 0.2319(3)
C8NB C 0.0357(2) -0.2319(3) 0.2205(3)
C8MB C 0.2319(3) -0.2205(3) 0.0357(2)
loop_
_geom_bond_atom_site_label_1
_geom_bond_atom_site_label_2
_geom_bond_site_symmetry_1
_geom_bond_site_symmetry_2
Cu1 O1 1_555 1_555
O1 C8 1_555 1_555
O2 Cu1 1_555 1_555
O3 C8 1_555 1_555
N1 C1 1_555 1_555
N2 H1 1_555 1_555
C1 N2 1_555 1_555
C2 N2 1_555 1_555
C3 C2 1_555 1_555
H2 C3 1_555 1_555
C4 C3 1_555 1_555
H3 C4 1_555 1_555
C5 C4 1_555 1_555
C6 C5 1_555 1_555
H4 C6 1_555 1_555
C7 C2 1_555 1_555
H5 C7 1_555 1_555
C8 C5 1_555 1_555
Cu1B Cu1AB 1_555 1_555
Cu1A Cu1FB 1_555 1_555
Cu1BB Cu1 1_555 1_555
Cu1AB O3B 1_555 1_555
Cu1FB O3A 1_555 1_555
Cu1NB Cu1YB 1_555 1_555
Cu1YB O3NB 1_555 1_555
Cu1MB Cu1LC 1_555 1_555
Cu1LC O3MB 1_555 1_555
O1B Cu1B 1_555 1_555
O1A Cu1A 1_555 1_555
O1IB Cu1 1_555 1_555
O1NB Cu1NB 1_555 1_555
O1MB Cu1MB 1_555 1_555
O1OB Cu1B 1_555 1_555
O1LB Cu1A 1_555 1_555
O2B Cu1B 1_555 1_555
O2A Cu1A 1_555 1_555
O3B C8B 1_555 1_555
O3A C8A 1_555 1_555
O3IB Cu1BB 1_555 1_555
O3NB C8NB 1_555 1_555
O3MB C8MB 1_555 1_555
O3BB Cu1 1_555 1_555
O3EA Cu1 1_555 1_555
O3AB Cu1B 1_555 1_555
O3BA Cu1B 1_555 1_555
O3FB Cu1A 1_555 1_555
O3QA Cu1A 1_555 1_555
N1A C1A 1_555 1_555
N1B C1 1_555 1_555
N1IB C1IB 1_555 1_555
N1MB C1MB 1_555 1_555
N1NB C1IB 1_555 1_555
N2B H1B 1_555 1_555
N2A H1A 1_555 1_555
N2IB H1IB 1_555 1_555
N2NB H1NB 1_555 1_555
N2MB H1MB 1_555 1_555
C1A N1 1_555 1_555
C1B N1A 1_555 1_555
C1IB N2IB 1_555 1_555
C1MB N1IB 1_555 1_555
C1NB N1MB 1_555 1_555
C2B N2B 1_555 1_555
C2A N2A 1_555 1_555
C2IB N2IB 1_555 1_555
C2NB N2NB 1_555 1_555
C2MB N2MB 1_555 1_555
C3B C2B 1_555 1_555
C3A C2A 1_555 1_555
C3IB C2IB 1_555 1_555
C3NB C2NB 1_555 1_555
C3MB C2MB 1_555 1_555
H2B C3B 1_555 1_555
H2A C3A 1_555 1_555
H2IB C3IB 1_555 1_555
H2NB C3NB 1_555 1_555
H2MB C3MB 1_555 1_555
C4B C3B 1_555 1_555
C4A C3A 1_555 1_555
C4IB C3IB 1_555 1_555
C4NB C3NB 1_555 1_555
C4MB C3MB 1_555 1_555
H3B C4B 1_555 1_555
H3A C4A 1_555 1_555
H3IB C4IB 1_555 1_555
H3NB C4NB 1_555 1_555
H3MB C4MB 1_555 1_555
C5B C4B 1_555 1_555
C5A C4A 1_555 1_555
C5IB C4IB 1_555 1_555
C5NB C4NB 1_555 1_555
C5MB C4MB 1_555 1_555
C6B C5B 1_555 1_555
C6A C5A 1_555 1_555
C6IB C5IB 1_555 1_555
C6NB C5NB 1_555 1_555
C6MB C5MB 1_555 1_555
H4B C6B 1_555 1_555
H4A C6A 1_555 1_555
H4IB C6IB 1_555 1_555
H4NB C6NB 1_555 1_555
H4MB C6MB 1_555 1_555
C7B C2B 1_555 1_555
C7A C2A 1_555 1_555
C7IB C2IB 1_555 1_555
C7NB C2NB 1_555 1_555
C7MB C2MB 1_555 1_555
H5B C7B 1_555 1_555
H5A C7A 1_555 1_555
H5IB C7IB 1_555 1_555
H5NB C7NB 1_555 1_555
H5MB C7MB 1_555 1_555
C8B O1B 1_555 1_555
C8A O1A 1_555 1_555
C8IB O1IB 1_555 1_555
C8NB O1NB 1_555 1_555
C8MB O1MB 1_555 1_555
O3 Cu1BB 1_555 1_555
C6 C7 1_555 1_555
O3IB C8IB 1_555 1_555
N1B C1B 1_555 1_555
N1NB C1NB 1_555 1_555
N2B C1B 1_555 1_555
N2A C1A 1_555 1_555
N2NB C1NB 1_555 1_555
N2MB C1MB 1_555 1_555
C5B C8B 1_555 1_555
C5A C8A 1_555 1_555
C5IB C8IB 1_555 1_555
C5NB C8NB 1_555 1_555
C5MB C8MB 1_555 1_555
C6B C7B 1_555 1_555
C6A C7A 1_555 1_555
C6IB C7IB 1_555 1_555
C6NB C7NB 1_555 1_555
C6MB C7MB 1_555 1_555

#END
