
#######################################################################
#
#                 Cambridge Crystallographic Data Centre
#                                CCDC 
#
#######################################################################
#
# If this CIF has been generated from an entry in the Cambridge 
# Structural Database, then it will include bibliographic, chemical, 
# crystal, experimental, refinement or atomic coordinate data resulting 
# from the CCDC's data processing and validation procedures.
#
#######################################################################

data_HEYDEV
_symmetry_cell_setting           monoclinic
_symmetry_space_group_name_H-M   'P 2/n'
_symmetry_Int_Tables_number      13
_space_group_name_Hall           '-P 2yac'
loop_
_symmetry_equiv_pos_site_id
_symmetry_equiv_pos_as_xyz
1 x,y,z
2 1/2-x,y,1/2-z
3 -x,-y,-z
4 1/2+x,-y,1/2+z
_cell_length_a                   14.6089(14)
_cell_length_b                   4.4707(4)
_cell_length_c                   15.1422(14)
_cell_angle_alpha                90.00
_cell_angle_beta                 106.779(2)
_cell_angle_gamma                90.00
_cell_volume                     946.863
loop_
_atom_site_label
_atom_site_type_symbol
_atom_site_fract_x
_atom_site_fract_y
_atom_site_fract_z
C1 C 0.7689(5) 0.992(2) 0.5668(5)
H1 H 0.8299 1.0370 0.6043
C2 C 0.7435(6) 1.085(2) 0.4761(5)
H2 H 0.7866 1.1938 0.4540
C3 C 0.6554(4) 1.0184(10) 0.4191(3)
C4 C 0.5963(5) 0.8543(17) 0.4562(5)
H3 H 0.5359 0.7995 0.4195
C5 C 0.6261(6) 0.7705(17) 0.5475(5)
H4 H 0.5850 0.6591 0.5713
C6 C 0.6199(4) 1.1216(12) 0.3196(4)
H5 H 0.5945 0.9500 0.2811
H6 H 0.5676 1.2610 0.3140
C7 C 0.7500 1.1066(15) 0.2500
Cl1 Cl 0.60683(13) 0.3594(5) 0.73515(13)
Hg1 Hg 0.7500 0.70558(10) 0.7500
N1 N 0.7111(4) 0.8425(12) 0.6024(3)
N2 N 0.6911(5) 1.2635(9) 0.2848(5)
O1 O 0.7500 0.8320(11) 0.2500
H7 H 0.697(3) 1.437(14) 0.283(4)
C1A C 0.7311(5) 0.992(2) -0.0668(5)
H1A H 0.6701 1.0370 -0.1043
C2A C 0.7565(6) 1.085(2) 0.0239(5)
H2A H 0.7134 1.1938 0.0460
C3A C 0.8446(4) 1.0184(10) 0.0809(3)
C4A C 0.9037(5) 0.8543(17) 0.0438(5)
H3A H 0.9641 0.7995 0.0805
C5A C 0.8739(6) 0.7705(17) -0.0475(5)
H4A H 0.9150 0.6591 -0.0713
C6A C 0.8801(4) 1.1216(12) 0.1804(4)
H5A H 0.9055 0.9500 0.2189
H6A H 0.9324 1.2610 0.1860
Cl1A Cl 0.89317(13) 0.3594(5) 0.76485(13)
Hg1_2 Hg 0.7500 0.70558(10) -0.2500
N1A N 0.7889(4) 0.8425(12) -0.1024(3)
N1A_2 N 0.7889(4) 0.8425(12) 0.8976(3)
N2A N 0.8089(5) 1.2635(9) 0.2152(5)
H7A H 0.803(3) 1.437(14) 0.217(4)
loop_
_geom_bond_atom_site_label_1
_geom_bond_atom_site_label_2
_geom_bond_site_symmetry_1
_geom_bond_site_symmetry_2
C1 H1 1_555 1_555
C2 C1 1_555 1_555
H2 C2 1_555 1_555
C3 C2 1_555 1_555
C4 C3 1_555 1_555
H3 C4 1_555 1_555
C5 C4 1_555 1_555
H4 C5 1_555 1_555
C6 C3 1_555 1_555
H5 C6 1_555 1_555
H6 C6 1_555 1_555
C7 N2 1_555 1_555
Cl1 Hg1 1_555 1_555
Hg1 N1 1_555 1_555
N1 C1 1_555 1_555
N2 C6 1_555 1_555
O1 C7 1_555 1_555
H7 N2 1_555 1_555
C1A H1A 1_555 1_555
C2A C1A 1_555 1_555
H2A C2A 1_555 1_555
C3A C2A 1_555 1_555
C4A C3A 1_555 1_555
H3A C4A 1_555 1_555
C5A C4A 1_555 1_555
H4A C5A 1_555 1_555
C6A C3A 1_555 1_555
H5A C6A 1_555 1_555
H6A C6A 1_555 1_555
Cl1A Hg1 1_555 1_555
Hg1_2 N1A 1_555 1_555
N1A C1A 1_555 1_555
N1A_2 Hg1 1_555 1_555
N2A C7 1_555 1_555
H7A N2A 1_555 1_555
C5 N1 1_555 1_555
C5A N1A 1_555 1_555
C6A N2A 1_555 1_555

#END
