
#######################################################################
#
#                 Cambridge Crystallographic Data Centre
#                                CCDC 
#
#######################################################################
#
# If this CIF has been generated from an entry in the Cambridge 
# Structural Database, then it will include bibliographic, chemical, 
# crystal, experimental, refinement or atomic coordinate data resulting 
# from the CCDC's data processing and validation procedures.
#
#######################################################################

data_HEYDAR
_symmetry_cell_setting           monoclinic
_symmetry_space_group_name_H-M   'P 21/c'
_symmetry_Int_Tables_number      14
_space_group_name_Hall           '-P 2ybc'
loop_
_symmetry_equiv_pos_site_id
_symmetry_equiv_pos_as_xyz
1 x,y,z
2 -x,1/2+y,1/2-z
3 -x,-y,-z
4 x,1/2-y,1/2+z
_cell_length_a                   10.929(3)
_cell_length_b                   11.975(3)
_cell_length_c                   19.959(5)
_cell_angle_alpha                90.00
_cell_angle_beta                 105.827(5)
_cell_angle_gamma                90.00
_cell_volume                     2513.1
loop_
_atom_site_label
_atom_site_type_symbol
_atom_site_fract_x
_atom_site_fract_y
_atom_site_fract_z
Cd1 Cd 0.24500(4) 0.53032(3) 0.199005(19)
O1 O 0.5733(4) 0.1245(4) -0.0123(2)
O2 O 0.4243(4) 1.0577(3) 0.4189(2)
O3 O 1.0867(4) 0.4703(4) 0.4400(2)
O4 O 0.0941(4) 0.6290(4) 0.1088(2)
O5 O 0.2863(4) 0.6825(4) 0.1186(2)
O6 O 0.1298(4) 0.7668(4) 0.0473(2)
O7 O 0.0572(4) 0.4337(4) 0.2085(3)
O8 O 0.2348(4) 0.3798(3) 0.2780(2)
O9 O 0.0638(5) 0.2887(5) 0.2758(3)
N1 N 0.2633(4) 0.4006(4) 0.1160(2)
N2 N 0.3644(4) 0.0860(4) -0.0307(2)
H1 H 0.3105 0.0339 -0.0304
N3 N 0.2299(4) 0.6644(4) 0.2788(2)
N4 N 0.3506(4) 0.9294(4) 0.4816(2)
H2 H 0.3682 0.8915 0.5196
N5 N 0.4669(4) 0.5368(4) 0.2503(2)
N6 N 0.8967(4) 0.5576(4) 0.4245(2)
H3 H 0.8446 0.5843 0.4458
N7 N 0.1688(5) 0.6942(5) 0.0906(2)
N8 N 0.1166(6) 0.3652(5) 0.2542(3)
C1 C 0.3736(5) 0.3462(5) 0.1204(3)
H4 H 0.4398 0.3552 0.1608
C2 C 0.3941(5) 0.2784(5) 0.0690(3)
H5 H 0.4717 0.2425 0.0748
C3 C 0.2960(5) 0.2646(4) 0.0081(3)
C4 C 0.1824(5) 0.3180(5) 0.0038(3)
H6 H 0.1143 0.3104 -0.0358
C5 C 0.1708(5) 0.3825(5) 0.0585(3)
H7 H 0.0924 0.4158 0.0550
C6 C 0.3159(6) 0.1976(5) -0.0520(3)
H8 H 0.2358 0.1914 -0.0878
H9 H 0.3755 0.2365 -0.0720
C7 C 0.4877(6) 0.0602(4) -0.0117(3)
C8 C 0.1976(6) 0.6409(5) 0.3364(3)
H10 H 0.1748 0.5677 0.3430
C9 C 0.1957(6) 0.7172(5) 0.3867(3)
H11 H 0.1728 0.6954 0.4264
C10 C 0.2276(5) 0.8266(5) 0.3788(3)
C11 C 0.2600(6) 0.8515(5) 0.3190(3)
H12 H 0.2820 0.9244 0.3110
C12 C 0.2604(6) 0.7700(5) 0.2706(3)
H13 H 0.2830 0.7895 0.2304
C13 C 0.2258(5) 0.9154(5) 0.4320(3)
H14 H 0.1993 0.9858 0.4084
H15 H 0.1644 0.8952 0.4570
C14 C 0.4382(5) 0.9985(4) 0.4702(3)
C15 C 0.5226(5) 0.4787(5) 0.3069(3)
H16 H 0.4732 0.4299 0.3247
C16 C 0.6513(5) 0.4872(5) 0.3409(3)
H17 H 0.6870 0.4434 0.3798
C17 C 0.7250(5) 0.5608(5) 0.3166(3)
C18 C 0.6689(5) 0.6218(5) 0.2575(3)
H18 H 0.7165 0.6712 0.2389
C19 C 0.5400(5) 0.6078(5) 0.2265(3)
H19 H 0.5024 0.6499 0.1871
C20 C 0.8676(5) 0.5722(6) 0.3507(3)
H20 H 0.9131 0.5168 0.3314
H21 H 0.8959 0.6455 0.3406
C21 C 0.9997(5) 0.5052(4) 0.4620(3)
Cd1B Cd 0.75500(4) -0.53032(3) -0.199005(19)
Cd1B_2 Cd 0.75500(4) 1.46968(3) 0.800995(19)
Cd1B_3 Cd 1.75500(4) 0.46968(3) 0.800995(19)
O1B O 0.4267(4) -0.1245(4) 0.0123(2)
O2B O 0.5757(4) 0.9423(3) 0.5811(2)
O3B O 0.9133(4) 0.5297(4) 0.5600(2)
O4B O 0.9059(4) -0.6290(4) -0.1088(2)
O5B O 0.7137(4) -0.6825(4) -0.1186(2)
O6B O 0.8702(4) -0.7668(4) -0.0473(2)
O7B O 0.9428(4) -0.4337(4) -0.2085(3)
O8B O 0.7652(4) -0.3798(3) -0.2780(2)
O9B O 0.9362(5) -0.2887(5) -0.2758(3)
N1B N 0.7367(4) -0.4006(4) -0.1160(2)
N2B N 0.6356(4) -0.0860(4) 0.0307(2)
H1B H 0.6895 -0.0339 0.0304
N3B N 0.7701(4) 1.3356(4) 0.7212(2)
N3B_2 N 0.7701(4) -0.6644(4) -0.2788(2)
N4B N 0.6494(4) 1.0706(4) 0.5184(2)
H2B H 0.6318 1.1085 0.4804
N5B N 1.5331(4) 0.4632(4) 0.7497(2)
N5B_2 N 0.5331(4) -0.5368(4) -0.2503(2)
N6B N 1.1033(4) 0.4424(4) 0.5755(2)
H3B H 1.1554 0.4157 0.5542
N7B N 0.8312(5) -0.6942(5) -0.0906(2)
N8B N 0.8834(6) -0.3652(5) -0.2542(3)
C1B C 0.6264(5) -0.3462(5) -0.1204(3)
H4B H 0.5602 -0.3552 -0.1608
C2B C 0.6059(5) -0.2784(5) -0.0690(3)
H5B H 0.5283 -0.2425 -0.0748
C3B C 0.7040(5) -0.2646(4) -0.0081(3)
C4B C 0.8176(5) -0.3180(5) -0.0038(3)
H6B H 0.8857 -0.3104 0.0358
C5B C 0.8292(5) -0.3825(5) -0.0585(3)
H7B H 0.9076 -0.4158 -0.0550
C6B C 0.6841(6) -0.1976(5) 0.0520(3)
H8B H 0.7642 -0.1914 0.0878
H9B H 0.6245 -0.2365 0.0720
C7B C 0.5123(6) -0.0602(4) 0.0117(3)
C8B C 0.8024(6) 1.3591(5) 0.6636(3)
H10B H 0.8252 1.4323 0.6570
C9B C 0.8043(6) 1.2828(5) 0.6133(3)
H11B H 0.8272 1.3046 0.5736
C10B C 0.7724(5) 1.1734(5) 0.6212(3)
C11B C 0.7400(6) 1.1485(5) 0.6810(3)
H12B H 0.7180 1.0756 0.6890
C12B C 0.7396(6) 1.2300(5) 0.7294(3)
H13B H 0.7170 1.2105 0.7696
C13B C 0.7742(5) 1.0846(5) 0.5680(3)
H14B H 0.8007 1.0142 0.5916
H15B H 0.8356 1.1048 0.5430
C14B C 0.5618(5) 1.0015(4) 0.5298(3)
C15B C 1.4774(5) 0.5213(5) 0.6931(3)
H16B H 1.5268 0.5701 0.6753
C16B C 1.3487(5) 0.5128(5) 0.6591(3)
H17B H 1.3130 0.5566 0.6202
C17B C 1.2750(5) 0.4392(5) 0.6834(3)
C18B C 1.3311(5) 0.3782(5) 0.7425(3)
H18B H 1.2835 0.3288 0.7611
C19B C 1.4600(5) 0.3922(5) 0.7735(3)
H19B H 1.4976 0.3501 0.8129
C20B C 1.1324(5) 0.4278(6) 0.6493(3)
H20B H 1.0869 0.4832 0.6686
H21B H 1.1041 0.3545 0.6594
C21B C 1.0003(5) 0.4948(4) 0.5380(3)
loop_
_geom_bond_atom_site_label_1
_geom_bond_atom_site_label_2
_geom_bond_site_symmetry_1
_geom_bond_site_symmetry_2
Cd1 O4 1_555 1_555
O1 C7 1_555 1_555
O2 C14 1_555 1_555
O3 C21 1_555 1_555
O4 N7 1_555 1_555
O5 Cd1 1_555 1_555
O6 N7 1_555 1_555
O7 Cd1 1_555 1_555
O8 Cd1 1_555 1_555
O9 N8 1_555 1_555
N1 Cd1 1_555 1_555
N2 H1 1_555 1_555
N3 Cd1 1_555 1_555
N4 H2 1_555 1_555
N5 Cd1 1_555 1_555
N6 H3 1_555 1_555
N7 O5 1_555 1_555
N8 O7 1_555 1_555
C1 N1 1_555 1_555
H4 C1 1_555 1_555
C2 C1 1_555 1_555
H5 C2 1_555 1_555
C3 C2 1_555 1_555
C4 C3 1_555 1_555
H6 C4 1_555 1_555
C5 N1 1_555 1_555
H7 C5 1_555 1_555
C6 N2 1_555 1_555
H8 C6 1_555 1_555
H9 C6 1_555 1_555
C7 N2 1_555 1_555
C8 N3 1_555 1_555
H10 C8 1_555 1_555
C9 C8 1_555 1_555
H11 C9 1_555 1_555
C10 C9 1_555 1_555
C11 C10 1_555 1_555
H12 C11 1_555 1_555
C12 N3 1_555 1_555
H13 C12 1_555 1_555
C13 N4 1_555 1_555
H14 C13 1_555 1_555
H15 C13 1_555 1_555
C14 N4 1_555 1_555
C15 N5 1_555 1_555
H16 C15 1_555 1_555
C16 C15 1_555 1_555
H17 C16 1_555 1_555
C17 C16 1_555 1_555
C18 C17 1_555 1_555
H18 C18 1_555 1_555
C19 N5 1_555 1_555
H19 C19 1_555 1_555
C20 N6 1_555 1_555
H20 C20 1_555 1_555
H21 C20 1_555 1_555
C21 N6 1_555 1_555
Cd1B O4B 1_555 1_555
Cd1B_2 N3B 1_555 1_555
Cd1B_3 N5B 1_555 1_555
O1B C7B 1_555 1_555
O2B C14B 1_555 1_555
O3B C21B 1_555 1_555
O4B N7B 1_555 1_555
O5B Cd1B 1_555 1_555
O6B N7B 1_555 1_555
O7B Cd1B 1_555 1_555
O8B Cd1B 1_555 1_555
O9B N8B 1_555 1_555
N1B Cd1B 1_555 1_555
N2B H1B 1_555 1_555
N3B C8B 1_555 1_555
N3B_2 Cd1B 1_555 1_555
N4B H2B 1_555 1_555
N5B C15B 1_555 1_555
N5B_2 Cd1B 1_555 1_555
N6B H3B 1_555 1_555
N7B O5B 1_555 1_555
N8B O7B 1_555 1_555
C1B N1B 1_555 1_555
H4B C1B 1_555 1_555
C2B C1B 1_555 1_555
H5B C2B 1_555 1_555
C3B C2B 1_555 1_555
C4B C3B 1_555 1_555
H6B C4B 1_555 1_555
C5B N1B 1_555 1_555
H7B C5B 1_555 1_555
C6B N2B 1_555 1_555
H8B C6B 1_555 1_555
H9B C6B 1_555 1_555
C7B C7 1_555 1_555
C8B H10B 1_555 1_555
C9B C8B 1_555 1_555
H11B C9B 1_555 1_555
C10B C9B 1_555 1_555
C11B C10B 1_555 1_555
H12B C11B 1_555 1_555
C12B N3B 1_555 1_555
H13B C12B 1_555 1_555
C13B N4B 1_555 1_555
H14B C13B 1_555 1_555
H15B C13B 1_555 1_555
C14B C14 1_555 1_555
C15B H16B 1_555 1_555
C16B C15B 1_555 1_555
H17B C16B 1_555 1_555
C17B C16B 1_555 1_555
C18B C17B 1_555 1_555
H18B C18B 1_555 1_555
C19B N5B 1_555 1_555
H19B C19B 1_555 1_555
C20B N6B 1_555 1_555
H20B C20B 1_555 1_555
H21B C20B 1_555 1_555
C21B C21 1_555 1_555
O8 N8 1_555 1_555
C3 C6 1_555 1_555
C4 C5 1_555 1_555
C10 C13 1_555 1_555
C11 C12 1_555 1_555
C17 C20 1_555 1_555
C18 C19 1_555 1_555
O8B N8B 1_555 1_555
N2B C7B 1_555 1_555
N4B C14B 1_555 1_555
N6B C21B 1_555 1_555
C3B C6B 1_555 1_555
C4B C5B 1_555 1_555
C10B C13B 1_555 1_555
C11B C12B 1_555 1_555
C17B C20B 1_555 1_555
C18B C19B 1_555 1_555

#END
