
#######################################################################
#
#                 Cambridge Crystallographic Data Centre
#                                CCDC 
#
#######################################################################
#
# If this CIF has been generated from an entry in the Cambridge 
# Structural Database, then it will include bibliographic, chemical, 
# crystal, experimental, refinement or atomic coordinate data resulting 
# from the CCDC's data processing and validation procedures.
#
#######################################################################

data_HEYMUU
_symmetry_cell_setting           monoclinic
_symmetry_space_group_name_H-M   'P 21'
_symmetry_Int_Tables_number      4
_space_group_name_Hall           'P 2yb'
loop_
_symmetry_equiv_pos_site_id
_symmetry_equiv_pos_as_xyz
1 x,y,z
2 -x,1/2+y,-z
_cell_length_a                   7.3093(3)
_cell_length_b                   9.9165(4)
_cell_length_c                   22.2795(10)
_cell_angle_alpha                90
_cell_angle_beta                 96.732(3)
_cell_angle_gamma                90
_cell_volume                     1603.74
loop_
_atom_site_label
_atom_site_type_symbol
_atom_site_fract_x
_atom_site_fract_y
_atom_site_fract_z
Cu1 Cu 0.52845(11) 0.45828(8) 0.53846(3)
Cu2 Cu 0.01598(11) 0.12037(8) 0.96262(3)
O1 O 0.0359(6) 0.3074(4) 0.99352(18)
O2 O -0.0304(8) 0.4370(5) 1.0685(2)
O3 O -0.2959(6) 0.1491(5) 0.92821(18)
C1 C -0.0060(6) 0.2108(5) 1.14671(18)
H1 H -0.0520 0.2963 1.1634
C2 C 0.2006(6) 0.2063(5) 1.15660(18)
H2 H 0.2417 0.1122 1.1596
H3 H 0.2444 0.2538 1.1941
H4 H 0.2506 0.2499 1.1226
O4 O 0.4981(6) 0.2704(4) 0.51025(17)
O5 O 0.4514(6) 0.1422(4) 0.42895(16)
O6 O 0.8329(7) 0.4190(5) 0.5705(2)
N1 N -0.0204(8) 0.0789(5) 1.0475(2)
H5 H -0.1136 0.0167 1.0480
H6 H 0.0856 0.0417 1.0670
N2 N 0.5461(7) 0.4955(5) 0.4516(2)
H7 H 0.4731 0.5683 0.4394
H8 H 0.6658 0.5171 0.4466
N3 N 0.0988(7) 0.1832(5) 0.8847(2)
N4 N 0.4404(7) 0.4009(5) 0.6172(2)
C3 C -0.0140(10) 0.3236(7) 1.0438(3)
C4 C -0.0671(11) 0.2011(7) 1.07971(18)
H9 H -0.2048 0.2025 1.0760
C5 C -0.062(2) 0.0912(10) 1.1824(6)
H10 H -0.0231 0.0078 1.1640
H11 H -0.1961 0.0908 1.1821
H12 H -0.0031 0.0975 1.2241
C6 C 0.0039(14) 0.1589(10) 0.8304(3)
H13 H -0.1060 0.1070 0.8279
C7 C 0.0643(14) 0.2086(13) 0.7778(3)
H14 H -0.0128 0.2008 0.7405
C8 C 0.2538(10) 0.2478(9) 0.8858(3)
H15 H 0.3205 0.2675 0.9240
C9 C 0.3271(9) 0.2897(9) 0.8341(3)
H16 H 0.4436 0.3333 0.8375
C10 C 0.2324(9) 0.2682(7) 0.7789(2)
C11 C 0.3025(9) 0.3160(6) 0.7220(3)
C12 C 0.4617(12) 0.3921(10) 0.7234(3)
H17 H 0.5246 0.4189 0.7612
C13 C 0.5305(12) 0.4297(10) 0.6709(3)
H18 H 0.6442 0.4770 0.6732
C14 C 0.2116(8) 0.2916(8) 0.6652(3)
H19 H 0.0972 0.2450 0.6612
C15 C 0.2844(9) 0.3337(8) 0.6149(3)
H20 H 0.2197 0.3138 0.5764
C16 C 0.4776(8) 0.2537(7) 0.4550(2)
C17 C 0.4862(9) 0.3751(6) 0.4127(2)
H21 H 0.3577 0.3931 0.3936
C18 C 0.6032(13) 0.3503(8) 0.3621(3)
H22 H 0.5464 0.2707 0.3395
C19 C 0.7984(16) 0.3083(18) 0.3841(7)
H23 H 0.8582 0.2742 0.3500
H24 H 0.7965 0.2372 0.4146
H25 H 0.8671 0.3862 0.4020
C20 C 0.590(3) 0.4645(15) 0.3171(8)
H26 H 0.7114 0.5072 0.3174
H27 H 0.5010 0.5312 0.3280
H28 H 0.5504 0.4292 0.2766
H29 H 0.9085 0.4746 0.5422
H30 H -0.3939 0.0971 0.9407
H31 H 0.8564 0.3408 0.5640
H32 H -0.3429 0.2234 0.9221
Cu1A Cu 0.47155(11) -0.04172(8) 0.46154(3)
Cu2A Cu -0.01598(11) 0.62037(8) 1.03738(3)
O2A O 0.0304(8) -0.0630(5) 0.9315(2)
O5A O 0.5486(6) 0.6422(4) 0.57105(16)
O7 O -0.5754(13) 0.4595(14) 0.9849(6)
O8 O -0.3808(11) 0.6051(10) 0.9900(4)
O9 O -0.3507(8) 0.4339(6) 0.9321(3)
N5 N -0.4377(9) 0.4963(8) 0.9682(4)
O10 O 0.8431(7) 0.1225(8) 0.5804(3)
O11 O 1.0676(8) 0.1246(10) 0.5255(4)
O12 O 0.8425(8) -0.0134(7) 0.5051(3)
N6 N 0.9182(8) 0.0758(6) 0.5362(3)
loop_
_geom_bond_atom_site_label_1
_geom_bond_atom_site_label_2
_geom_bond_site_symmetry_1
_geom_bond_site_symmetry_2
Cu1 O4 1_555 1_555
Cu2 O1 1_555 1_555
O1 C3 1_555 1_555
O2 C3 1_555 1_555
O3 Cu2 1_555 1_555
C1 H1 1_555 1_555
C2 C1 1_555 1_555
H2 C2 1_555 1_555
H3 C2 1_555 1_555
H4 C2 1_555 1_555
O4 C16 1_555 1_555
O5 C16 1_555 1_555
O6 Cu1 1_555 1_555
O7 N5 1_555 1_555
O8 N5 1_555 1_555
O9 N5 1_555 1_555
O10 N6 1_555 1_555
O11 N6 1_555 1_555
O12 N6 1_555 1_555
N1 Cu2 1_555 1_555
H5 N1 1_555 1_555
H6 N1 1_555 1_555
N2 Cu1 1_555 1_555
H7 N2 1_555 1_555
H8 N2 1_555 1_555
N3 Cu2 1_555 1_555
N4 Cu1 1_555 1_555
C3 C4 1_555 1_555
C4 C1 1_555 1_555
H9 C4 1_555 1_555
C5 C1 1_555 1_555
H10 C5 1_555 1_555
H11 C5 1_555 1_555
H12 C5 1_555 1_555
C6 N3 1_555 1_555
H13 C6 1_555 1_555
C7 C6 1_555 1_555
H14 C7 1_555 1_555
C8 N3 1_555 1_555
H15 C8 1_555 1_555
C9 C8 1_555 1_555
H16 C9 1_555 1_555
C10 C7 1_555 1_555
C11 C10 1_555 1_555
C12 C11 1_555 1_555
H17 C12 1_555 1_555
C13 N4 1_555 1_555
H18 C13 1_555 1_555
C14 C11 1_555 1_555
H19 C14 1_555 1_555
C15 N4 1_555 1_555
H20 C15 1_555 1_555
C16 C17 1_555 1_555
C17 N2 1_555 1_555
H21 C17 1_555 1_555
C18 C17 1_555 1_555
H22 C18 1_555 1_555
C19 C18 1_555 1_555
H23 C19 1_555 1_555
H24 C19 1_555 1_555
H25 C19 1_555 1_555
C20 C18 1_555 1_555
H26 C20 1_555 1_555
H27 C20 1_555 1_555
H28 C20 1_555 1_555
H29 O6 1_555 1_555
H30 O3 1_555 1_555
H31 O6 1_555 1_555
H32 O3 1_555 1_555
Cu1A O5 1_555 1_555
Cu2A O2 1_555 1_555
O2A Cu2 1_555 1_555
O5A Cu1 1_555 1_555
N1 C4 1_555 1_555
C9 C10 1_555 1_555
C12 C13 1_555 1_555
C14 C15 1_555 1_555

#END
