
#######################################################################
#
#                 Cambridge Crystallographic Data Centre
#                                CCDC 
#
#######################################################################
#
# If this CIF has been generated from an entry in the Cambridge 
# Structural Database, then it will include bibliographic, chemical, 
# crystal, experimental, refinement or atomic coordinate data resulting 
# from the CCDC's data processing and validation procedures.
#
#######################################################################

data_HEYTOU
_symmetry_cell_setting           cubic
_symmetry_space_group_name_H-M   'P 21 3'
_symmetry_Int_Tables_number      198
_space_group_name_Hall           'P 2ac 2ab 3'
loop_
_symmetry_equiv_pos_site_id
_symmetry_equiv_pos_as_xyz
1 x,y,z
2 1/2-x,-y,1/2+z
3 1/2+x,1/2-y,-z
4 z,x,y
5 -x,1/2+y,1/2-z
6 1/2-z,-x,1/2+y
7 1/2+z,1/2-x,-y
8 -z,1/2+x,1/2-y
9 y,z,x
10 1/2+y,1/2-z,-x
11 -y,1/2+z,1/2-x
12 1/2-y,-z,1/2+x
_cell_length_a                   15.507(3)
_cell_length_b                   15.507(3)
_cell_length_c                   15.507(3)
_cell_angle_alpha                90
_cell_angle_beta                 90
_cell_angle_gamma                90
_cell_volume                     3728.92
loop_
_atom_site_label
_atom_site_type_symbol
_atom_site_fract_x
_atom_site_fract_y
_atom_site_fract_z
Fe1 Fe 0.87623(2) 0.87623(2) 0.87623(2)
N1 N 0.8762(2) 0.7491(1) 0.8852(2)
C1 C 0.8765(2) 0.7177(2) 0.9668(2)
C2 C 0.8740(2) 0.6299(2) 0.9832(3)
C3 C 0.8711(3) 0.5728(2) 0.9141(3)
C4 C 0.8698(3) 0.6050(2) 0.8324(3)
C5 C 0.8731(2) 0.6928(2) 0.8198(2)
N2 N 0.8769(2) 0.8669(2) 1.0034(1)
C6 C 0.8776(2) 0.7842(2) 1.0348(2)
C7 C 0.8795(2) 0.7675(3) 1.1219(2)
C8 C 0.8825(3) 0.8356(3) 1.1797(2)
C9 C 0.8824(3) 0.9177(3) 1.1491(2)
C10 C 0.8783(3) 0.9306(3) 1.0610(2)
H1 H 0.8748(23) 0.6127(22) 1.0382(19)
H2 H 0.8586(21) 0.5177(19) 0.9129(18)
H3 H 0.8666(21) 0.5683(20) 0.7860(21)
H4 H 0.8682(20) 0.7193(18) 0.7645(20)
H5 H 0.8840(17) 0.7144(17) 1.1427(17)
H6 H 0.8817(22) 0.8167(19) 1.2396(22)
H7 H 0.8850(19) 0.9560(19) 1.1886(19)
H8 H 0.8782(20) 0.9797(17) 1.0436(18)
N1C N 0.8852(2) 0.8762(2) 0.7491(1)
C1C C 0.9668(2) 0.8765(2) 0.7177(2)
C2C C 0.9832(3) 0.8740(2) 0.6299(2)
C3C C 0.9141(3) 0.8711(3) 0.5728(2)
C4C C 0.8324(3) 0.8698(3) 0.6050(2)
C5C C 0.8198(2) 0.8731(2) 0.6928(2)
N2C N 1.0034(1) 0.8769(2) 0.8669(2)
C6C C 1.0348(2) 0.8776(2) 0.7842(2)
C7C C 1.1219(2) 0.8795(2) 0.7675(3)
C8C C 1.1797(2) 0.8825(3) 0.8356(3)
C9C C 1.1491(2) 0.8824(3) 0.9177(3)
C10C C 1.0610(2) 0.8783(3) 0.9306(3)
H1C H 1.0382(19) 0.8748(23) 0.6127(22)
H2C H 0.9129(18) 0.8586(21) 0.5177(19)
H3C H 0.7860(21) 0.8666(21) 0.5683(20)
H4C H 0.7645(20) 0.8682(20) 0.7193(18)
H5C H 1.1427(17) 0.8840(17) 0.7144(17)
H6C H 1.2396(22) 0.8817(22) 0.8167(19)
H7C H 1.1886(19) 0.8850(19) 0.9560(19)
H8C H 1.0436(18) 0.8782(20) 0.9797(17)
N1H N 0.7491(1) 0.8852(2) 0.8762(2)
C1H C 0.7177(2) 0.9668(2) 0.8765(2)
C2H C 0.6299(2) 0.9832(3) 0.8740(2)
C3H C 0.5728(2) 0.9141(3) 0.8711(3)
C4H C 0.6050(2) 0.8324(3) 0.8698(3)
C5H C 0.6928(2) 0.8198(2) 0.8731(2)
N2H N 0.8669(2) 1.0034(1) 0.8769(2)
C6H C 0.7842(2) 1.0348(2) 0.8776(2)
C7H C 0.7675(3) 1.1219(2) 0.8795(2)
C8H C 0.8356(3) 1.1797(2) 0.8825(3)
C9H C 0.9177(3) 1.1491(2) 0.8824(3)
C10H C 0.9306(3) 1.0610(2) 0.8783(3)
H1H H 0.6127(22) 1.0382(19) 0.8748(23)
H2H H 0.5177(19) 0.9129(18) 0.8586(21)
H3H H 0.5683(20) 0.7860(21) 0.8666(21)
H4H H 0.7193(18) 0.7645(20) 0.8682(20)
H5H H 0.7144(17) 1.1427(17) 0.8840(17)
H6H H 0.8167(19) 1.2396(22) 0.8817(22)
H7H H 0.9560(19) 1.1886(19) 0.8850(19)
H8H H 0.9797(17) 1.0436(18) 0.8782(20)
Fe2 Fe 0.85464(3) 0.35464(3) 1.14536(3)
Na1 Na 0.5958(1) 0.4042(1) 0.9042(1)
O1 O 0.7442(2) 0.3895(2) 0.9174(2)
O2 O 0.6206(2) 0.3929(2) 1.0511(2)
C11 C 0.7655(2) 0.3789(2) 0.9920(2)
C12 C 0.6961(2) 0.3769(2) 1.0667(2)
O3 O 0.8423(2) 0.3691(2) 1.0177(1)
O4 O 0.7267(1) 0.3575(2) 1.1401(1)
O1G O 1.0826(2) 0.2442(2) 1.1105(2)
O2G O 0.9489(2) 0.1206(2) 1.1071(2)
C11G C 1.0080(2) 0.2655(2) 1.1211(2)
C12G C 0.9333(2) 0.1961(2) 1.1231(2)
O3G O 0.9823(1) 0.3423(2) 1.1309(2)
O4G O 0.8599(1) 0.2267(1) 1.1425(2)
O1I O 0.8895(2) 0.5826(2) 1.2558(2)
O2I O 0.8929(2) 0.4489(2) 1.3794(2)
C11I C 0.8789(2) 0.5080(2) 1.2345(2)
C12I C 0.8769(2) 0.4333(2) 1.3039(2)
O3I O 0.8691(2) 0.4823(1) 1.1577(2)
O4I O 0.8575(2) 0.3599(1) 1.2733(1)
O1E O 0.5826(2) 0.2558(2) 0.8895(2)
O1J O 0.6105(2) 0.4174(2) 0.7558(2)
O2E O 0.4489(2) 0.3794(2) 0.8929(2)
O2J O 0.6071(2) 0.5511(2) 0.8794(2)
Na1B Na 1.0958(1) 0.0958(1) 1.0958(1)
Na1A Na 0.9042(1) 0.5958(1) 1.4042(1)
loop_
_geom_bond_atom_site_label_1
_geom_bond_atom_site_label_2
_geom_bond_site_symmetry_1
_geom_bond_site_symmetry_2
Fe1 N1 1_555 1_555
N1 C1 1_555 1_555
C1 C2 1_555 1_555
C2 C3 1_555 1_555
C3 C4 1_555 1_555
C4 C5 1_555 1_555
C5 N1 1_555 1_555
N2 Fe1 1_555 1_555
C6 C1 1_555 1_555
C7 C6 1_555 1_555
C8 C7 1_555 1_555
C9 C8 1_555 1_555
C10 N2 1_555 1_555
Fe2 O3 1_555 1_555
Na1 O1 1_555 1_555
O1 C11 1_555 1_555
O2 Na1 1_555 1_555
C11 C12 1_555 1_555
C12 O2 1_555 1_555
O3 C11 1_555 1_555
O4 Fe2 1_555 1_555
H1 C2 1_555 1_555
H2 C3 1_555 1_555
H3 C4 1_555 1_555
H4 C5 1_555 1_555
H5 C7 1_555 1_555
H6 C8 1_555 1_555
H7 C9 1_555 1_555
H8 C10 1_555 1_555
N1C Fe1 1_555 1_555
C1C N1C 1_555 1_555
C2C C1C 1_555 1_555
C3C C2C 1_555 1_555
C4C C3C 1_555 1_555
C5C N1C 1_555 1_555
N2C Fe1 1_555 1_555
C6C C1C 1_555 1_555
C7C C6C 1_555 1_555
C8C C7C 1_555 1_555
C9C C8C 1_555 1_555
C10C N2C 1_555 1_555
H1C C2C 1_555 1_555
H2C C3C 1_555 1_555
H3C C4C 1_555 1_555
H4C C5C 1_555 1_555
H5C C7C 1_555 1_555
H6C C8C 1_555 1_555
H7C C9C 1_555 1_555
H8C C10C 1_555 1_555
N1H Fe1 1_555 1_555
C1H N1H 1_555 1_555
C2H C1H 1_555 1_555
C3H C2H 1_555 1_555
C4H C3H 1_555 1_555
C5H N1H 1_555 1_555
N2H Fe1 1_555 1_555
C6H C1H 1_555 1_555
C7H C6H 1_555 1_555
C8H C7H 1_555 1_555
C9H C8H 1_555 1_555
C10H N2H 1_555 1_555
H1H C2H 1_555 1_555
H2H C3H 1_555 1_555
H3H C4H 1_555 1_555
H4H C5H 1_555 1_555
H5H C7H 1_555 1_555
H6H C8H 1_555 1_555
H7H C9H 1_555 1_555
H8H C10H 1_555 1_555
O1G C11G 1_555 1_555
O2G C12G 1_555 1_555
C11G C12G 1_555 1_555
C12G O4G 1_555 1_555
O3G Fe2 1_555 1_555
O4G Fe2 1_555 1_555
O1I C11I 1_555 1_555
O2I C12I 1_555 1_555
C11I C12I 1_555 1_555
C12I O4I 1_555 1_555
O3I Fe2 1_555 1_555
O4I Fe2 1_555 1_555
O1E Na1 1_555 1_555
O1J Na1 1_555 1_555
O2E Na1 1_555 1_555
O2J Na1 1_555 1_555
Na1B O1G 1_555 1_555
Na1A O1I 1_555 1_555
N2 C6 1_555 1_555
C9 C10 1_555 1_555
C12 O4 1_555 1_555
C4C C5C 1_555 1_555
N2C C6C 1_555 1_555
C9C C10C 1_555 1_555
C4H C5H 1_555 1_555
N2H C6H 1_555 1_555
C9H C10H 1_555 1_555
O2G Na1B 1_555 1_555
C11G O3G 1_555 1_555
O2I Na1A 1_555 1_555
C11I O3I 1_555 1_555

#END
