
#######################################################################
#
#                 Cambridge Crystallographic Data Centre
#                                CCDC 
#
#######################################################################
#
# If this CIF has been generated from an entry in the Cambridge 
# Structural Database, then it will include bibliographic, chemical, 
# crystal, experimental, refinement or atomic coordinate data resulting 
# from the CCDC's data processing and validation procedures.
#
#######################################################################

data_HEZKED
_symmetry_cell_setting           triclinic
_symmetry_space_group_name_H-M   'P -1'
_symmetry_Int_Tables_number      2
_space_group_name_Hall           '-P 1'
loop_
_symmetry_equiv_pos_site_id
_symmetry_equiv_pos_as_xyz
1 x,y,z
2 -x,-y,-z
_cell_length_a                   7.6916(15)
_cell_length_b                   8.5113(17)
_cell_length_c                   9.827(2)
_cell_angle_alpha                68.56(3)
_cell_angle_beta                 79.47(3)
_cell_angle_gamma                86.62(3)
_cell_volume                     588.706
loop_
_atom_site_label
_atom_site_type_symbol
_atom_site_fract_x
_atom_site_fract_y
_atom_site_fract_z
Zn1 Zn 0.47070(5) 0.34872(5) 1.38422(4)
O1 O 0.2979(4) 0.1145(3) 1.3653(3)
O2 O 0.4360(4) 0.3392(3) 1.1914(3)
O3 O 0.1651(3) -0.2399(3) 1.0868(3)
O4 O 0.3785(4) 0.2384(3) 0.5984(3)
O5 O 0.3559(3) 0.4659(3) 0.6614(3)
C1 C 0.3535(5) 0.2003(5) 1.2305(4)
C2 C 0.3552(5) 0.3090(5) 0.6922(4)
C3 C 0.3188(5) 0.1420(4) 1.1118(4)
C4 C 0.3524(4) 0.2511(4) 0.9626(4)
H1 H 0.3966 0.3621 0.9365
C5 C 0.3198(5) 0.1938(4) 0.8533(4)
C6 C 0.2595(5) 0.0294(4) 0.8900(4)
H2 H 0.2417 -0.0098 0.8146
C7 C 0.2259(5) -0.0769(4) 1.0392(4)
C8 C 0.2536(5) -0.0191(4) 1.1495(4)
H3 H 0.2276 -0.0909 1.2509
C9 C 0.1183(5) -0.2973(4) 0.9766(4)
H4 H 0.2255 -0.3040 0.9059
H5 H 0.0354 -0.2171 0.9203
C10 C 0.0321(5) -0.4698(4) 1.0557(4)
H6 H -0.0692 -0.4641 1.1320
H7 H 0.1183 -0.5512 1.1063
O6 O 0.2438(4) 0.5313(3) 1.3582(3)
H8 H 0.2285 0.6096 1.4092
H9 H 0.1863 0.5990 1.2774
O7 O 0.6854(4) 0.1824(3) 1.3997(3)
H10 H 0.8097 0.2079 1.3764
H11 H 0.6883 0.0849 1.4881
Zn1A Zn -0.47070(5) -1.34872(5) 0.61578(4)
Zn1_2 Zn 0.47070(5) 0.34872(5) 0.38422(4)
Zn1A_2 Zn 0.52930(5) 0.65128(5) 0.61578(4)
Zn1A_3 Zn -0.47070(5) -1.34872(5) 1.61578(4)
Zn1_3 Zn -0.52930(5) -1.65128(5) 1.38422(4)
O1A O -0.2979(4) -1.1145(3) 0.6347(3)
O2A O -0.4360(4) -1.3392(3) 0.8086(3)
O3A O -0.1651(3) -0.7601(3) 0.9132(3)
O4A O -0.3785(4) -1.2384(3) 1.4016(3)
O4_2 O 0.3785(4) 0.2384(3) 1.5984(3)
O4A_2 O -0.3785(4) -1.2384(3) 0.4016(3)
O5A O -0.3559(3) -1.4659(3) 1.3386(3)
O5A_2 O 0.6441(3) 0.5341(3) 1.3386(3)
O5_2 O -0.6441(3) -1.5341(3) 0.6614(3)
C1A C -0.3535(5) -1.2003(5) 0.7695(4)
C2A C -0.3552(5) -1.3090(5) 1.3078(4)
C3A C -0.3188(5) -1.1420(4) 0.8882(4)
C4A C -0.3524(4) -1.2511(4) 1.0374(4)
H1A H -0.3966 -1.3621 1.0635
C5A C -0.3198(5) -1.1938(4) 1.1467(4)
C6A C -0.2595(5) -1.0294(4) 1.1100(4)
H2A H -0.2417 -0.9902 1.1854
C7A C -0.2259(5) -0.9231(4) 0.9608(4)
C8A C -0.2536(5) -0.9809(4) 0.8505(4)
H3A H -0.2276 -0.9091 0.7491
C9A C -0.1183(5) -0.7027(4) 1.0234(4)
H4A H -0.2255 -0.6960 1.0941
H5A H -0.0354 -0.7829 1.0797
C10A C -0.0321(5) -0.5302(4) 0.9443(4)
H6A H 0.0692 -0.5359 0.8680
H7A H -0.1183 -0.4488 0.8937
O6A O -0.2438(4) -1.5313(3) 0.6418(3)
H8A H -0.2285 -1.6096 0.5908
H9A H -0.1863 -1.5990 0.7226
O7A O -0.6854(4) -1.1824(3) 0.6003(3)
H10A H -0.8097 -1.2079 0.6236
H11A H -0.6883 -1.0849 0.5119
O8 O 0.9794(4) 0.2764(4) 1.4749(3)
H12 H 1.0470 0.3787 1.4432
H13 H 1.0548 0.1825 1.4747
loop_
_geom_bond_atom_site_label_1
_geom_bond_atom_site_label_2
_geom_bond_site_symmetry_1
_geom_bond_site_symmetry_2
Zn1 O1 1_555 1_555
O1 C1 1_555 1_555
O2 Zn1 1_555 1_555
O3 C7 1_555 1_555
O4 C2 1_555 1_555
O5 C2 1_555 1_555
C1 O2 1_555 1_555
C2 C5 1_555 1_555
C3 C1 1_555 1_555
C4 C3 1_555 1_555
H1 C4 1_555 1_555
C5 C4 1_555 1_555
C6 C5 1_555 1_555
H2 C6 1_555 1_555
C7 C6 1_555 1_555
C8 C3 1_555 1_555
H3 C8 1_555 1_555
C9 O3 1_555 1_555
H4 C9 1_555 1_555
H5 C9 1_555 1_555
C10 C9 1_555 1_555
H6 C10 1_555 1_555
H7 C10 1_555 1_555
O6 Zn1 1_555 1_555
H8 O6 1_555 1_555
H9 O6 1_555 1_555
O7 Zn1 1_555 1_555
H10 O7 1_555 1_555
H11 O7 1_555 1_555
O8 H12 1_555 1_555
H13 O8 1_555 1_555
Zn1A O1A 1_555 1_555
Zn1_2 O4 1_555 1_555
Zn1A_2 O5 1_555 1_555
Zn1A_3 O4A 1_555 1_555
Zn1_3 O5A 1_555 1_555
O1A C1A 1_555 1_555
O2A Zn1A 1_555 1_555
O3A C7A 1_555 1_555
O4A C2A 1_555 1_555
O4_2 Zn1 1_555 1_555
O4A_2 Zn1A 1_555 1_555
O5A C2A 1_555 1_555
O5A_2 Zn1 1_555 1_555
O5_2 Zn1A 1_555 1_555
C1A O2A 1_555 1_555
C2A C5A 1_555 1_555
C3A C1A 1_555 1_555
C4A C3A 1_555 1_555
H1A C4A 1_555 1_555
C5A C4A 1_555 1_555
C6A C5A 1_555 1_555
H2A C6A 1_555 1_555
C7A C6A 1_555 1_555
C8A C3A 1_555 1_555
H3A C8A 1_555 1_555
C9A O3A 1_555 1_555
H4A C9A 1_555 1_555
H5A C9A 1_555 1_555
C10A C10 1_555 1_555
H6A C10A 1_555 1_555
H7A C10A 1_555 1_555
O6A Zn1A 1_555 1_555
H8A O6A 1_555 1_555
H9A O6A 1_555 1_555
O7A Zn1A 1_555 1_555
H10A O7A 1_555 1_555
H11A O7A 1_555 1_555
C7 C8 1_555 1_555
C7A C8A 1_555 1_555
C9A C10A 1_555 1_555

#END
