
#######################################################################
#
#                 Cambridge Crystallographic Data Centre
#                                CCDC 
#
#######################################################################
#
# If this CIF has been generated from an entry in the Cambridge 
# Structural Database, then it will include bibliographic, chemical, 
# crystal, experimental, refinement or atomic coordinate data resulting 
# from the CCDC's data processing and validation procedures.
#
#######################################################################

data_HEZKON
_symmetry_cell_setting           triclinic
_symmetry_space_group_name_H-M   'P -1'
_symmetry_Int_Tables_number      2
_space_group_name_Hall           '-P 1'
loop_
_symmetry_equiv_pos_site_id
_symmetry_equiv_pos_as_xyz
1 x,y,z
2 -x,-y,-z
_cell_length_a                   9.5471(7)
_cell_length_b                   7.8520(7)
_cell_length_c                   8.4756(6)
_cell_angle_alpha                91.891(4)
_cell_angle_beta                 107.086(3)
_cell_angle_gamma                100.815(4)
_cell_volume                     593.901
loop_
_atom_site_label
_atom_site_type_symbol
_atom_site_fract_x
_atom_site_fract_y
_atom_site_fract_z
Zn1 Zn 0.3952(6) 0.4919(7) 0.1632(7)
O1 O 0.2094(5) 0.43347(13) 0.2040(4)
O2 O 0.330(4) 0.34129(12) 0.4401(5)
O3 O -0.108(3) 0.1279(3) 0.6981(3)
O4 O -0.4649(3) 0.34968(11) 0.2130(5)
O5 O -0.3264(5) 0.4594(11) 0.0568(4)
O6 O 0.51439(2) 0.7154(3) 0.2859(3)
C1 C -0.08960(19) 0.21208(19) 0.5563(2)
C2 C 0.05027(19) 0.25044(19) 0.52562(19)
C3 C 0.06258(19) 0.33421(17) 0.3835(2)
C4 C -0.06596(19) 0.37852(19) 0.27355(17)
C5 C -0.20346(19) 0.3404(2) 0.3042(19)
C6 C -0.21519(18) 0.25764(17) 0.4445(2)
C7 C 0.0310(2) 0.1068(2) 0.8128(2)
C8 C -0.0023(3) -0.0264(2) 0.9254(2)
C9 C 0.2081(2) 0.3775(3) 0.3456(2)
C10 C -0.3362(2) 0.3872(3) 0.1886(2)
H1 H 0.14189(10) 0.21911(13) 0.60478(13)
H2 H -0.06047(11) 0.43719(15) 0.17228(12)
H3 H -0.31519(11) 0.23094(14) 0.46452(14)
H4 H 0.08433(11) 0.22037(13) 0.8800(12)
H5 H 0.0974(10) 0.0671(13) 0.7535(12)
H6 H -0.01280(12) -0.1537(13) 0.89423(12)
Zn1A Zn -0.3952(6) -0.4919(7) 1.8368(7)
Zn1_2 Zn -0.6048(6) 0.4919(7) 0.1632(7)
Zn1A_2 Zn -0.3952(6) 0.5081(7) -0.1632(7)
Zn1A_3 Zn 0.6048(6) -0.4919(7) 1.8368(7)
Zn1_3 Zn 0.3952(6) -0.5081(7) 2.1632(7)
O1A O -0.2094(5) -0.43347(13) 1.7960(4)
O2A O -0.330(4) -0.34129(12) 1.5599(5)
O3A O 0.108(3) -0.1279(3) 1.3019(3)
O4A O 0.4649(3) -0.34968(11) 1.7870(5)
O4_2 O 0.5351(3) 0.34968(11) 0.2130(5)
O4A_2 O -0.5351(3) -0.34968(11) 1.7870(5)
O5A O 0.3264(5) -0.4594(11) 1.9432(4)
O5A_2 O 0.3264(5) 0.5406(11) -0.0568(4)
O5_2 O -0.3264(5) -0.5406(11) 2.0568(4)
O6A O -0.51439(2) -0.7154(3) 1.7141(3)
C1A C 0.08960(19) -0.21208(19) 1.4437(2)
C2A C -0.05027(19) -0.25044(19) 1.47438(19)
C3A C -0.06258(19) -0.33421(17) 1.6165(2)
C4A C 0.06596(19) -0.37852(19) 1.72645(17)
C5A C 0.20346(19) -0.3404(2) 1.6958(19)
C6A C 0.21519(18) -0.25764(17) 1.5555(2)
C7A C -0.0310(2) -0.1068(2) 1.1872(2)
C8A C 0.0023(3) 0.0264(2) 1.0746(2)
C9A C -0.2081(2) -0.3775(3) 1.6544(2)
C10A C 0.3362(2) -0.3872(3) 1.8114(2)
H1A H -0.14189(10) -0.21911(13) 1.39522(13)
H2A H 0.06047(11) -0.43719(15) 1.82772(12)
H3A H 0.31519(11) -0.23094(14) 1.53548(14)
H4A H -0.08433(11) -0.22037(13) 1.1200(12)
H5A H -0.0974(10) -0.0671(13) 1.2465(12)
H6A H 0.01280(12) 0.1537(13) 1.10577(12)
O7 O 0.6038(2) -0.00711(3) 0.7238(2)
loop_
_geom_bond_atom_site_label_1
_geom_bond_atom_site_label_2
_geom_bond_site_symmetry_1
_geom_bond_site_symmetry_2
Zn1 O1 1_555 1_555
O1 C9 1_555 1_555
O2 C9 1_555 1_555
O3 C1 1_555 1_555
O4 C10 1_555 1_555
O5 C10 1_555 1_555
O6 Zn1 1_555 1_555
C1 C2 1_555 1_555
C2 C3 1_555 1_555
C3 C4 1_555 1_555
C4 C5 1_555 1_555
C5 C6 1_555 1_555
C6 C1 1_555 1_555
C7 O3 1_555 1_555
C8 C7 1_555 1_555
C9 C3 1_555 1_555
C10 C5 1_555 1_555
H1 C2 1_555 1_555
H2 C4 1_555 1_555
H3 C6 1_555 1_555
H4 C7 1_555 1_555
H5 C7 1_555 1_555
H6 C8 1_555 1_555
Zn1A O1A 1_555 1_555
Zn1_2 O4 1_555 1_555
Zn1A_2 O5 1_555 1_555
Zn1A_3 O4A 1_555 1_555
Zn1_3 O5A 1_555 1_555
O1A C9A 1_555 1_555
O2A C9A 1_555 1_555
O3A C1A 1_555 1_555
O4A C10A 1_555 1_555
O4_2 Zn1 1_555 1_555
O4A_2 Zn1A 1_555 1_555
O5A C10A 1_555 1_555
O5A_2 Zn1 1_555 1_555
O5_2 Zn1A 1_555 1_555
O6A Zn1A 1_555 1_555
C1A C2A 1_555 1_555
C2A C3A 1_555 1_555
C3A C4A 1_555 1_555
C4A C5A 1_555 1_555
C5A C6A 1_555 1_555
C6A C1A 1_555 1_555
C7A O3A 1_555 1_555
C8A C8 1_555 1_555
C9A C3A 1_555 1_555
C10A C5A 1_555 1_555
H1A C2A 1_555 1_555
H2A C4A 1_555 1_555
H3A C6A 1_555 1_555
H4A C7A 1_555 1_555
H5A C7A 1_555 1_555
H6A C8A 1_555 1_555
C7A C8A 1_555 1_555

#END
