
#######################################################################
#
#                 Cambridge Crystallographic Data Centre
#                                CCDC 
#
#######################################################################
#
# If this CIF has been generated from an entry in the Cambridge 
# Structural Database, then it will include bibliographic, chemical, 
# crystal, experimental, refinement or atomic coordinate data resulting 
# from the CCDC's data processing and validation procedures.
#
#######################################################################

data_HEZKIH
_symmetry_cell_setting           triclinic
_symmetry_space_group_name_H-M   'P -1'
_symmetry_Int_Tables_number      2
_space_group_name_Hall           '-P 1'
loop_
_symmetry_equiv_pos_site_id
_symmetry_equiv_pos_as_xyz
1 x,y,z
2 -x,-y,-z
_cell_length_a                   13.0757(6)
_cell_length_b                   14.1157(7)
_cell_length_c                   16.6631(8)
_cell_angle_alpha                66.6020(10)
_cell_angle_beta                 87.1380(10)
_cell_angle_gamma                89.7570(10)
_cell_volume                     2818.72
loop_
_atom_site_label
_atom_site_type_symbol
_atom_site_fract_x
_atom_site_fract_y
_atom_site_fract_z
Zn1 Zn 0.76478(3) 0.16630(3) 0.58207(3)
Zn2 Zn 1.09717(3) 0.53893(3) 0.71826(3)
Zn3 Zn 1.25292(3) 0.41008(3) 0.87105(3)
Zn4 Zn 0.59182(3) 0.04083(3) 0.74277(3)
O1 O 0.6989(2) 0.0576(2) 0.81709(19)
O2 O 0.7850(2) 0.1777(2) 0.70270(17)
O3 O 1.0320(2) 0.4001(2) 0.76741(19)
O4 O 1.1209(2) 0.3260(2) 0.88741(19)
O5 O 0.8923(3) 0.0348(2) 1.07988(19)
O6 O 0.6752(2) 0.02046(19) 1.64374(17)
O7 O 0.6768(3) -0.1229(2) 1.7630(2)
O8 O 1.0004(2) -0.3760(2) 1.62799(19)
O9 O 0.9568(2) -0.3706(2) 1.75562(19)
O10 O 0.7553(2) -0.1299(2) 1.41670(19)
O11 O 0.5352(2) 0.1791(2) 0.68908(17)
O12 O 0.6297(2) 0.2454(2) 0.56229(17)
O13 O 0.2016(2) 0.5170(3) 0.63714(19)
O14 O 0.2950(2) 0.4185(2) 0.74664(18)
O15 O 0.3818(2) 0.4939(2) 0.36764(18)
O16 O 0.2838(3) 0.6720(2) 0.05761(19)
O17 O 0.16681(19) 0.55145(19) -0.17813(17)
O18 O 0.1877(2) 0.6928(2) -0.29849(18)
O19 O 0.4835(2) 0.9565(2) -0.1684(2)
O20 O 0.4569(2) 0.9481(2) -0.2943(2)
C1 C 0.7684(3) 0.1257(3) 0.7830(3)
C2 C 1.0488(3) 0.3284(3) 0.8400(3)
C3 C 0.8378(3) 0.1436(3) 0.8458(2)
C4 C 0.9085(3) 0.2241(3) 0.8148(2)
H1 H 0.9128 0.2689 0.7545
C5 C 0.9738(3) 0.2389(3) 0.8728(3)
C6 C 0.9676(3) 0.1732(3) 0.9606(3)
H2 H 1.0131 0.1825 0.9997
C7 C 0.8944(3) 0.0932(3) 0.9917(3)
C8 C 0.8288(3) 0.0789(3) 0.9344(3)
H3 H 0.7781 0.0254 0.9554
C9 C 0.8205(3) -0.0494(3) 1.1155(3)
H4 H 0.8295 -0.0970 1.0853
H5 H 0.7495 -0.0238 1.1089
C10 C 0.8418(3) -0.1029(3) 1.2097(3)
H6 H 0.9111 -0.1187 1.2236
C11 C 0.6995(3) -0.0750(3) 1.6840(3)
C12 C 0.9451(3) -0.3414(3) 1.6757(3)
C13 C 0.7523(3) -0.1300(3) 1.6333(3)
C14 C 0.8178(3) -0.2096(3) 1.6770(3)
H7 H 0.8289 -0.2278 1.7371
C15 C 0.8672(3) -0.2625(3) 1.6314(3)
C16 C 0.8471(3) -0.2392(3) 1.5441(3)
H8 H 0.8791 -0.2766 1.5137
C17 C 0.7792(3) -0.1600(3) 1.5020(3)
C18 C 0.7336(3) -0.1045(3) 1.5463(3)
H9 H 0.6897 -0.0491 1.5169
C19 C 0.7999(3) -0.1861(3) 1.3686(3)
H10 H 0.7725 -0.2578 1.3925
H11 H 0.8753 -0.1884 1.3726
C20 C 0.7724(3) -0.1304(3) 1.2759(3)
H12 H 0.7028 -0.1141 1.2639
C21 C 0.5537(3) 0.2443(3) 0.6112(2)
C22 C 0.2742(3) 0.4557(3) 0.6681(3)
C23 C 0.4759(3) 0.3273(3) 0.5770(2)
C24 C 0.4133(3) 0.3518(3) 0.6362(2)
H13 H 0.4207 0.3170 0.6974
C25 C 0.3401(3) 0.4276(3) 0.6046(3)
C26 C 0.3262(3) 0.4764(3) 0.5148(3)
H14 H 0.2747 0.5267 0.4935
C27 C 0.3884(3) 0.4504(3) 0.4572(2)
C28 C 0.4648(3) 0.3776(3) 0.4880(2)
H15 H 0.5092 0.3626 0.4478
C29 C 0.2960(3) 0.5609(3) 0.3352(3)
H16 H 0.3023 0.6231 0.3483
H17 H 0.2310 0.5245 0.3632
C30 C 0.2977(3) 0.5908(3) 0.2383(3)
H18 H 0.3530 0.6322 0.2026
C31 C 0.2244(3) 0.5613(3) 0.2013(3)
H19 H 0.1715 0.5185 0.2395
C32 C 0.2157(3) 0.5877(3) 0.1065(3)
H20 H 0.2333 0.5272 0.0930
H21 H 0.1444 0.6070 0.0902
C33 C 0.2885(3) 0.7053(3) -0.0315(3)
C34 C 0.2378(3) 0.6579(3) -0.0774(3)
H22 H 0.1950 0.5989 -0.0469
C35 C 0.2500(3) 0.6973(3) -0.1684(3)
C36 C 0.3118(3) 0.7844(3) -0.2135(3)
H23 H 0.3189 0.8117 -0.2756
C37 C 0.3628(3) 0.8311(3) -0.1673(3)
C38 C 0.3498(3) 0.7922(3) -0.0766(3)
H24 H 0.3830 0.8255 -0.0452
C39 C 0.1995(3) 0.6462(3) -0.2188(3)
C40 C 0.4378(3) 0.9183(3) -0.2139(3)
O21 O 0.8992(2) 0.0809(2) 0.60037(19)
O22 O 1.3850(2) 0.4897(2) 0.8711(2)
O23 O 1.3302(3) 0.2703(3) 0.9227(2)
N1 N 1.0045(3) -0.0448(3) 0.6830(3)
N2 N 1.5170(3) 0.6018(3) 0.8136(3)
N3 N 1.4634(5) 0.1646(5) 0.9221(5)
C41 C 0.9271(3) 0.0189(3) 0.6722(3)
H25 H 0.8898 0.0169 0.7232
C42 C 1.0280(5) -0.1193(4) 0.7702(4)
H26 H 0.9803 -0.1109 0.8141
H27 H 1.0983 -0.1074 0.7824
H28 H 1.0212 -0.1895 0.7726
C43 C 1.0645(4) -0.0504(4) 0.6100(4)
H29 H 1.0481 -0.1150 0.6042
H30 H 1.1376 -0.0483 0.6201
H31 H 1.0487 0.0082 0.5562
C44 C 1.4401(4) 0.5431(4) 0.8096(4)
H32 H 1.4274 0.5430 0.7540
C45 C 1.5751(7) 0.6659(6) 0.7351(5)
H33 H 1.5628 0.6426 0.6883
H34 H 1.6482 0.6610 0.7463
H35 H 1.5538 0.7377 0.7173
C46 C 1.5409(6) 0.6117(6) 0.8944(5)
H36 H 1.4834 0.5843 0.9377
H37 H 1.5526 0.6846 0.8826
H38 H 1.6027 0.5728 0.9173
C47 C 1.4294(7) 0.2627(5) 0.8999(4)
H39 H 1.4726 0.3216 0.8703
C48 C 1.5483(17) 0.1578(13) 0.8882(11)
H40 H 1.5398 0.1605 0.8292
H41 H 1.5795 0.0922 0.9240
H42 H 1.5928 0.2152 0.8846
C49 C 1.4153(14) 0.0813(14) 1.0005(10)
H43 H 1.3862 0.0284 0.9836
H44 H 1.3608 0.1100 1.0261
H45 H 1.4671 0.0503 1.0435
O24 O 0.8495(2) 0.3035(2) 0.5215(2)
H46 H 0.9072 0.3002 0.4848
H47 H 0.8275 0.3534 0.4669
O25 O 0.7469(2) 0.1566(2) 0.46238(17)
H48 H 0.6774 0.1374 0.4589
H49 H 0.7604 0.2127 0.4067
O26 O 1.2224(3) 0.3884(3) 1.0034(2)
H50 H 1.1598 0.4166 1.0163
H51 H 1.2253 0.3179 1.0447
Zn1_2 Zn 0.76478(3) 0.16630(3) 1.58207(3)
Zn2_2 Zn 1.09717(3) -0.46107(3) 1.71826(3)
Zn2_3 Zn 0.09717(3) 0.53893(3) 0.71826(3)
Zn2_4 Zn 0.09717(3) 0.53893(3) -0.28174(3)
Zn3_2 Zn 0.25292(3) 0.41008(3) 0.87105(3)
Zn3_3 Zn 0.25292(3) 0.41008(3) -0.12895(3)
Zn4_2 Zn 0.59182(3) 0.04083(3) 1.74277(3)
Zn4_3 Zn 0.59182(3) 1.04083(3) -0.25723(3)
O6_2 O 0.6752(2) 0.02046(19) 0.64374(17)
O7_2 O 0.6768(3) -0.1229(2) 0.7630(2)
O8_2 O 1.0004(2) 0.6240(2) 0.62799(19)
O9_2 O 0.9568(2) 0.6294(2) 0.75562(19)
O13_2 O 1.2016(2) 0.5170(3) 0.63714(19)
O14_2 O 1.2950(2) 0.4185(2) 0.74664(18)
O17_2 O 1.16681(19) 0.55145(19) 0.82187(17)
O18_2 O 1.1877(2) 0.6928(2) 0.70151(18)
O19_2 O 0.4835(2) -0.0435(2) 0.8316(2)
O20_2 O 0.4569(2) -0.0519(2) 0.7057(2)
O27 O 0.4444(3) 0.9021(3) 0.5629(2)
H52 H 0.4558 0.8776 0.6242
H53 H 0.5037 0.9418 0.5313
O28 O 0.0377(6) 0.4432(9) 0.0569(6)
O30 O 0.7394(5) 0.8378(5) 0.9158(4)
O32 O 0.0482(14) 0.4179(12) 0.5532(11)
O29? O 0.0438(8) 0.3789(12) 0.0756(8)
O31? O 0.8147(7) 0.8104(7) 0.9085(6)
O33? O -0.0096(8) 0.3989(6) 0.5859(6)
loop_
_geom_bond_atom_site_label_1
_geom_bond_atom_site_label_2
_geom_bond_site_symmetry_1
_geom_bond_site_symmetry_2
Zn1 O2 1_555 1_555
Zn2 Zn3 1_555 1_555
Zn3 O4 1_555 1_555
Zn4 O1 1_555 1_555
O1 C1 1_555 1_555
O2 C1 1_555 1_555
O3 Zn2 1_555 1_555
O4 C2 1_555 1_555
O5 C7 1_555 1_555
O6 C11 1_555 1_555
O7 C11 1_555 1_555
O8 C12 1_555 1_555
O9 C12 1_555 1_555
O10 C17 1_555 1_555
O11 Zn4 1_555 1_555
O12 Zn1 1_555 1_555
O13 C22 1_555 1_555
O14 C22 1_555 1_555
O15 C27 1_555 1_555
O16 C32 1_555 1_555
O17 C39 1_555 1_555
O18 C39 1_555 1_555
O19 C40 1_555 1_555
O20 C40 1_555 1_555
C1 C3 1_555 1_555
C2 O3 1_555 1_555
C3 C4 1_555 1_555
C4 H1 1_555 1_555
C5 C2 1_555 1_555
C6 C5 1_555 1_555
H2 C6 1_555 1_555
C7 C6 1_555 1_555
C8 C3 1_555 1_555
H3 C8 1_555 1_555
C9 O5 1_555 1_555
H4 C9 1_555 1_555
H5 C9 1_555 1_555
C10 C9 1_555 1_555
H6 C10 1_555 1_555
C11 C13 1_555 1_555
C12 C15 1_555 1_555
C13 C14 1_555 1_555
C14 H7 1_555 1_555
C15 C14 1_555 1_555
C16 C15 1_555 1_555
H8 C16 1_555 1_555
C17 C16 1_555 1_555
C18 C13 1_555 1_555
H9 C18 1_555 1_555
C19 O10 1_555 1_555
H10 C19 1_555 1_555
H11 C19 1_555 1_555
C20 C10 1_555 1_555
H12 C20 1_555 1_555
C21 O11 1_555 1_555
C22 C25 1_555 1_555
C23 C21 1_555 1_555
C24 C23 1_555 1_555
H13 C24 1_555 1_555
C25 C24 1_555 1_555
C26 C25 1_555 1_555
H14 C26 1_555 1_555
C27 C26 1_555 1_555
C28 C23 1_555 1_555
H15 C28 1_555 1_555
C29 O15 1_555 1_555
H16 C29 1_555 1_555
H17 C29 1_555 1_555
C30 C29 1_555 1_555
H18 C30 1_555 1_555
C31 C30 1_555 1_555
H19 C31 1_555 1_555
C32 C31 1_555 1_555
H20 C32 1_555 1_555
H21 C32 1_555 1_555
C33 O16 1_555 1_555
C34 C33 1_555 1_555
H22 C34 1_555 1_555
C35 C34 1_555 1_555
C36 C35 1_555 1_555
H23 C36 1_555 1_555
C37 C36 1_555 1_555
C38 C33 1_555 1_555
H24 C38 1_555 1_555
C39 C35 1_555 1_555
C40 C37 1_555 1_555
O21 Zn1 1_555 1_555
O22 Zn3 1_555 1_555
O23 Zn3 1_555 1_555
N1 C41 1_555 1_555
N2 C44 1_555 1_555
N3 C47 1_555 1_555
C41 O21 1_555 1_555
H25 C41 1_555 1_555
C42 N1 1_555 1_555
H26 C42 1_555 1_555
H27 C42 1_555 1_555
H28 C42 1_555 1_555
C43 N1 1_555 1_555
H29 C43 1_555 1_555
H30 C43 1_555 1_555
H31 C43 1_555 1_555
C44 O22 1_555 1_555
H32 C44 1_555 1_555
C45 N2 1_555 1_555
H33 C45 1_555 1_555
H34 C45 1_555 1_555
H35 C45 1_555 1_555
C46 N2 1_555 1_555
H36 C46 1_555 1_555
H37 C46 1_555 1_555
H38 C46 1_555 1_555
C47 O23 1_555 1_555
H39 C47 1_555 1_555
C48 N3 1_555 1_555
H40 C48 1_555 1_555
H41 C48 1_555 1_555
H42 C48 1_555 1_555
C49 N3 1_555 1_555
H43 C49 1_555 1_555
H44 C49 1_555 1_555
H45 C49 1_555 1_555
O24 Zn1 1_555 1_555
H46 O24 1_555 1_555
H47 O24 1_555 1_555
O25 Zn1 1_555 1_555
H48 O25 1_555 1_555
H49 O25 1_555 1_555
O26 Zn3 1_555 1_555
H50 O26 1_555 1_555
H51 O26 1_555 1_555
O27 H52 1_555 1_555
H53 O27 1_555 1_555
Zn1_2 O6 1_555 1_555
Zn2_2 O8 1_555 1_555
Zn2_3 O13 1_555 1_555
Zn2_4 O17 1_555 1_555
Zn3_2 O14 1_555 1_555
Zn3_3 O17 1_555 1_555
Zn4_2 O6 1_555 1_555
Zn4_3 O19 1_555 1_555
O6_2 Zn1 1_555 1_555
O7_2 Zn4 1_555 1_555
O8_2 Zn2 1_555 1_555
O9_2 Zn2 1_555 1_555
O13_2 Zn2 1_555 1_555
O14_2 Zn3 1_555 1_555
O17_2 Zn2 1_555 1_555
O18_2 Zn2 1_555 1_555
O19_2 Zn4 1_555 1_555
O20_2 Zn4 1_555 1_555
Zn3 O17_2 1_555 1_555
Zn4 O6_2 1_555 1_555
O7 Zn4_2 1_555 1_555
O9 Zn2_2 1_555 1_555
O12 C21 1_555 1_555
O18 Zn2_4 1_555 1_555
O20 Zn4_3 1_555 1_555
C4 C5 1_555 1_555
C7 C8 1_555 1_555
C17 C18 1_555 1_555
C19 C20 1_555 1_555
C27 C28 1_555 1_555
C37 C38 1_555 1_555
Zn2_3 Zn3_2 1_555 1_555
Zn2_4 Zn3_3 1_555 1_555

#END
