
#######################################################################
#
#                 Cambridge Crystallographic Data Centre
#                                CCDC 
#
#######################################################################
#
# If this CIF has been generated from an entry in the Cambridge 
# Structural Database, then it will include bibliographic, chemical, 
# crystal, experimental, refinement or atomic coordinate data resulting 
# from the CCDC's data processing and validation procedures.
#
#######################################################################

data_HEZLAA
_symmetry_cell_setting           monoclinic
_symmetry_space_group_name_H-M   'P 21/c'
_symmetry_Int_Tables_number      14
_space_group_name_Hall           '-P 2ybc'
loop_
_symmetry_equiv_pos_site_id
_symmetry_equiv_pos_as_xyz
1 x,y,z
2 -x,1/2+y,1/2-z
3 -x,-y,-z
4 x,1/2-y,1/2+z
_cell_length_a                   13.237(3)
_cell_length_b                   13.908(3)
_cell_length_c                   23.358(5)
_cell_angle_alpha                90
_cell_angle_beta                 95.11(3)
_cell_angle_gamma                90
_cell_volume                     4283.12
loop_
_atom_site_label
_atom_site_type_symbol
_atom_site_fract_x
_atom_site_fract_y
_atom_site_fract_z
Ni1 Ni 0.5000 0.0000 0.5000
O1 O 0.8046(2) 0.4053(2) 0.60687(13)
N1 N 0.5574(2) 0.1419(2) 0.51316(12)
C1 C 0.6172(3) 0.1651(3) 0.55994(14)
H1 H 0.6315 0.1167 0.5882
O2 O 1.0162(3) 0.3208(3) 0.87445(15)
N2 N 0.7192(3) 0.2666(3) 0.62287(13)
H2 H 0.7082 0.2249 0.6500
C2 C 0.6604(3) 0.2560(3) 0.57048(14)
O3 O 0.5169(2) 0.01765(18) 0.41267(11)
N3 N 0.8479(4) 0.3151(4) 0.68537(18)
H3 H 0.8338 0.2623 0.7039
C3 C 0.6420(3) 0.3266(3) 0.52875(16)
H4 H 0.6710 0.3889 0.5335
N4 N 1.0202(4) 0.4212(4) 0.79868(18)
H5 H 1.0522 0.4685 0.7829
C4 C 0.5800(3) 0.3027(3) 0.48001(16)
H6 H 0.5656 0.3495 0.4508
N5 N 1.1499(3) 0.4251(3) 0.86964(15)
H7 H 1.1810 0.4615 0.8459
C5 C 0.5386(3) 0.2118(3) 0.47315(15)
H8 H 0.4957 0.1978 0.4394
N6 N 1.3498(2) 0.4390(2) 0.98587(13)
C6 C 0.7920(3) 0.3347(3) 0.63659(17)
C7 C 0.9308(6) 0.3747(6) 0.7102(2)
H9 H 0.9268 0.4391 0.6921
H10 H 0.9964 0.3454 0.7025
C8 C 0.9260(4) 0.3840(6) 0.7697(2)
H12 H 0.8696 0.4277 0.7770
H13 H 0.9113 0.3203 0.7861
C9 C 1.0585(4) 0.3842(4) 0.8491(2)
C10 C 1.2979(3) 0.4391(3) 0.93404(16)
H16 H 1.3324 0.4580 0.9019
C11 C 1.1962(3) 0.4130(3) 0.92464(17)
C12 C 1.1467(4) 0.3814(4) 0.9710(2)
H18 H 1.0773 0.3631 0.9664
C14 C 1.2012(4) 0.3772(4) 1.0241(2)
H19 H 1.1699 0.3537 1.0564
C15 C 1.3013(3) 0.4072(3) 1.03066(18)
H20 H 1.3369 0.4052 1.0678
Ni1C Ni 1.5000 0.5000 1.0000
Ni1C_2 Ni -0.5000 -0.5000 0.0000
O1B O 0.1954(2) -0.4053(2) 0.39313(13)
N1B N 0.4426(2) -0.1419(2) 0.48684(12)
C1B C 0.3828(3) -0.1651(3) 0.44006(14)
H1B H 0.3685 -0.1167 0.4118
O2B O -0.0162(3) -0.3208(3) 0.12555(15)
N2B N 0.2808(3) -0.2666(3) 0.37713(13)
H2B H 0.2918 -0.2249 0.3500
C2B C 0.3396(3) -0.2560(3) 0.42952(14)
O3B O 0.4831(2) -0.01765(18) 0.58733(11)
N3B N 0.1521(4) -0.3151(4) 0.31463(18)
H3B H 0.1662 -0.2623 0.2961
C3B C 0.3580(3) -0.3266(3) 0.47125(16)
H4B H 0.3290 -0.3889 0.4665
N4B N -0.0202(4) -0.4212(4) 0.20132(18)
H5B H -0.0522 -0.4685 0.2171
C4B C 0.4200(3) -0.3027(3) 0.51999(16)
H6B H 0.4344 -0.3495 0.5492
N5B N -0.1499(3) -0.4251(3) 0.13036(15)
H7B H -0.1810 -0.4615 0.1541
C5B C 0.4614(3) -0.2118(3) 0.52685(15)
H8B H 0.5043 -0.1978 0.5606
N6B N -0.3498(2) -0.4390(2) 0.01413(13)
N6C N 0.3498(2) 0.0610(2) 0.48587(13)
N6A N 0.6502(2) -0.0610(2) 0.51413(13)
C6B C 0.2080(3) -0.3347(3) 0.36341(17)
C7B C 0.0692(6) -0.3747(6) 0.2898(2)
H9B H 0.0732 -0.4391 0.3079
H10B H 0.0036 -0.3454 0.2975
C8B C 0.0740(4) -0.3840(6) 0.2303(2)
H12B H 0.1304 -0.4277 0.2230
H13B H 0.0887 -0.3203 0.2139
C9B C -0.0585(4) -0.3842(4) 0.1509(2)
C10B C -0.2979(3) -0.4391(3) 0.06596(16)
H16B H -0.3324 -0.4580 0.0981
C11B C -0.1962(3) -0.4130(3) 0.07536(17)
C12B C -0.1467(4) -0.3814(4) 0.0290(2)
H18B H -0.0773 -0.3631 0.0336
C14B C -0.2012(4) -0.3772(4) -0.0241(2)
H19B H -0.1699 -0.3537 -0.0564
C15B C -0.3013(3) -0.4072(3) -0.03066(18)
H20B H -0.3369 -0.4052 -0.0678
S1 S 0.22540(8) -0.08114(7) 0.25013(4)
O7 O 0.2919(3) -0.1585(2) 0.27423(13)
O8 O 0.2553(3) 0.0106(2) 0.27746(15)
O9 O 0.1186(2) -0.1038(3) 0.26127(14)
O10 O 0.2322(2) -0.0757(2) 0.18769(12)
Ni2 Ni 0.0000 0.0000 0.0000
O4 O -0.3109(2) 0.3982(2) -0.11275(12)
O5 O -0.5599(3) 0.2833(2) -0.34418(13)
O6 O -0.02560(19) 0.00577(17) 0.08600(10)
N7 N -0.0666(2) 0.1384(2) -0.01011(12)
N8 N -0.2334(2) 0.2521(2) -0.12096(13)
H11 H -0.2302 0.2022 -0.1438
N9 N -0.3330(3) 0.3124(3) -0.19610(15)
H14 H -0.3107 0.2625 -0.2144
N10 N -0.5878(3) 0.3752(3) -0.26607(15)
H15 H -0.6220 0.4236 -0.2532
N11 N -0.6834(3) 0.3987(3) -0.35073(14)
H17 H -0.7150 0.4412 -0.3308
N12 N -0.8552(2) 0.4301(2) -0.47939(12)
C16 C -0.1278(3) 0.1578(2) -0.05690(14)
H21 H -0.1400 0.1081 -0.0846
C17 C -0.1755(2) 0.2464(2) -0.06827(14)
C18 C -0.1600(3) 0.3190(3) -0.02719(15)
H22 H -0.1916 0.3800 -0.0325
C19 C -0.0963(3) 0.2983(3) 0.02187(15)
H23 H -0.0838 0.3462 0.0507
C20 C -0.0508(3) 0.2089(3) 0.02935(14)
H24 H -0.0073 0.1970 0.0632
C21 C -0.2949(3) 0.3262(3) -0.14164(15)
C22 C -0.4080(3) 0.3730(3) -0.22727(18)
H25 H -0.4090 0.4370 -0.2088
H26 H -0.3905 0.3819 -0.2673
C23 C -0.5118(3) 0.3264(3) -0.22747(17)
H27 H -0.5335 0.3275 -0.1880
H28 H -0.5070 0.2584 -0.2394
C24 C -0.6064(3) 0.3473(3) -0.32128(18)
C25 C -0.8137(3) 0.4264(3) -0.42521(15)
H29 H -0.8524 0.4497 -0.3958
C26 C -0.7164(3) 0.3901(3) -0.40923(16)
C27 C -0.6615(3) 0.3514(4) -0.45134(18)
H30 H -0.5959 0.3250 -0.4421
C28 C -0.7057(3) 0.3525(4) -0.50758(18)
H31 H -0.6705 0.3259 -0.5376
C29 C -0.8009(3) 0.3924(3) -0.51991(17)
H32 H -0.8293 0.3931 -0.5587
Ni2C Ni -1.0000 0.5000 -0.5000
Ni2C_2 Ni 1.0000 -0.5000 0.5000
O4B O 0.3109(2) -0.3982(2) 0.11275(12)
O5B O 0.5599(3) -0.2833(2) 0.34418(13)
O6B O 0.02560(19) -0.00577(17) -0.08600(10)
N7B N 0.0666(2) -0.1384(2) 0.01011(12)
N8B N 0.2334(2) -0.2521(2) 0.12096(13)
H11B H 0.2302 -0.2022 0.1438
N9B N 0.3330(3) -0.3124(3) 0.19610(15)
H14B H 0.3107 -0.2625 0.2144
N10B N 0.5878(3) -0.3752(3) 0.26607(15)
H15B H 0.6220 -0.4236 0.2532
N11B N 0.6834(3) -0.3987(3) 0.35073(14)
H17B H 0.7150 -0.4412 0.3308
N12B N 0.8552(2) -0.4301(2) 0.47939(12)
N12C N 0.1448(2) 0.0699(2) 0.02061(12)
N12A N -0.1448(2) -0.0699(2) -0.02061(12)
C16B C 0.1278(3) -0.1578(2) 0.05690(14)
H21B H 0.1400 -0.1081 0.0846
C17B C 0.1755(2) -0.2464(2) 0.06827(14)
C18B C 0.1600(3) -0.3190(3) 0.02719(15)
H22B H 0.1916 -0.3800 0.0325
C19B C 0.0963(3) -0.2983(3) -0.02187(15)
H23B H 0.0838 -0.3462 -0.0507
C20B C 0.0508(3) -0.2089(3) -0.02935(14)
H24B H 0.0073 -0.1970 -0.0632
C21B C 0.2949(3) -0.3262(3) 0.14164(15)
C22B C 0.4080(3) -0.3730(3) 0.22727(18)
H25B H 0.4090 -0.4370 0.2088
H26B H 0.3905 -0.3819 0.2673
C23B C 0.5118(3) -0.3264(3) 0.22747(17)
H27B H 0.5335 -0.3275 0.1880
H28B H 0.5070 -0.2584 0.2394
C24B C 0.6064(3) -0.3473(3) 0.32128(18)
C25B C 0.8137(3) -0.4264(3) 0.42521(15)
H29B H 0.8524 -0.4497 0.3958
C26B C 0.7164(3) -0.3901(3) 0.40923(16)
C27B C 0.6615(3) -0.3514(4) 0.45134(18)
H30B H 0.5959 -0.3250 0.4421
C28B C 0.7057(3) -0.3525(4) 0.50758(18)
H31B H 0.6705 -0.3259 0.5376
C29B C 0.8009(3) -0.3924(3) 0.51991(17)
H32B H 0.8293 -0.3931 0.5587
O11 O 0.4899(2) -0.1022(2) 0.32281(13)
O12 O -0.0177(2) -0.1348(2) 0.16548(13)
C13 C 0.4308(7) 0.4897(6) 0.3763(4)
O14 O 0.3938(6) 0.3219(5) 0.3616(3)
C30 C 0.4577(9) 0.4079(8) 0.3430(3)
O13 O 0.2122(6) 0.3575(8) 0.2948(4)
C31 C 0.165(2) 0.3404(19) 0.1939(7)
C32 C 0.2098(11) 0.2972(13) 0.2437(8)
loop_
_geom_bond_atom_site_label_1
_geom_bond_atom_site_label_2
_geom_bond_site_symmetry_1
_geom_bond_site_symmetry_2
Ni1 N1 1_555 1_555
S1 O7 1_555 1_555
O1 C6 1_555 1_555
N1 C1 1_555 1_555
C1 H1 1_555 1_555
Ni2 O6 1_555 1_555
O2 C9 1_555 1_555
N2 H2 1_555 1_555
C2 C1 1_555 1_555
O3 Ni1 1_555 1_555
N3 H3 1_555 1_555
C3 C2 1_555 1_555
H4 C3 1_555 1_555
O4 C21 1_555 1_555
N4 H5 1_555 1_555
C4 C3 1_555 1_555
H6 C4 1_555 1_555
O5 C24 1_555 1_555
N5 H7 1_555 1_555
C5 N1 1_555 1_555
H8 C5 1_555 1_555
N6 C10 1_555 1_555
C6 N2 1_555 1_555
N7 Ni2 1_555 1_555
C7 N3 1_555 1_555
H9 C7 1_555 1_555
H10 C7 1_555 1_555
O8 S1 1_555 1_555
N8 H11 1_555 1_555
C8 N4 1_555 1_555
H12 C8 1_555 1_555
H13 C8 1_555 1_555
O9 S1 1_555 1_555
N9 H14 1_555 1_555
C9 N4 1_555 1_555
O10 S1 1_555 1_555
N10 H15 1_555 1_555
C10 H16 1_555 1_555
N11 H17 1_555 1_555
C11 N5 1_555 1_555
N12 C25 1_555 1_555
C12 C11 1_555 1_555
H18 C12 1_555 1_555
C13 C30 1_555 1_555
C14 C12 1_555 1_555
H19 C14 1_555 1_555
O13 C32 1_555 1_555
C15 N6 1_555 1_555
H20 C15 1_555 1_555
C16 N7 1_555 1_555
H21 C16 1_555 1_555
C17 N8 1_555 1_555
C18 C17 1_555 1_555
H22 C18 1_555 1_555
C19 C18 1_555 1_555
H23 C19 1_555 1_555
C20 N7 1_555 1_555
H24 C20 1_555 1_555
C21 N8 1_555 1_555
C22 N9 1_555 1_555
H25 C22 1_555 1_555
H26 C22 1_555 1_555
C23 N10 1_555 1_555
H27 C23 1_555 1_555
H28 C23 1_555 1_555
C24 N10 1_555 1_555
C25 H29 1_555 1_555
C26 N11 1_555 1_555
C27 C26 1_555 1_555
H30 C27 1_555 1_555
C28 C27 1_555 1_555
H31 C28 1_555 1_555
C29 N12 1_555 1_555
H32 C29 1_555 1_555
O14 C30 1_555 1_555
C31 C32 1_555 1_555
Ni1C N6 1_555 1_555
Ni1C_2 N6B 1_555 1_555
O1B C6B 1_555 1_555
N1B Ni1 1_555 1_555
C1B N1B 1_555 1_555
H1B C1B 1_555 1_555
Ni2C N12 1_555 1_555
Ni2C_2 N12B 1_555 1_555
O2B C9B 1_555 1_555
N2B H2B 1_555 1_555
C2B C1B 1_555 1_555
O3B Ni1 1_555 1_555
N3B H3B 1_555 1_555
C3B C2B 1_555 1_555
H4B C3B 1_555 1_555
O4B C21B 1_555 1_555
N4B H5B 1_555 1_555
C4B C3B 1_555 1_555
H6B C4B 1_555 1_555
O5B C24B 1_555 1_555
N5B H7B 1_555 1_555
C5B N1B 1_555 1_555
H8B C5B 1_555 1_555
O6B Ni2 1_555 1_555
N6B C10B 1_555 1_555
N6C Ni1 1_555 1_555
N6A Ni1 1_555 1_555
C6B N2B 1_555 1_555
N7B Ni2 1_555 1_555
C7B N3B 1_555 1_555
H9B C7B 1_555 1_555
H10B C7B 1_555 1_555
N8B H11B 1_555 1_555
C8B N4B 1_555 1_555
H12B C8B 1_555 1_555
H13B C8B 1_555 1_555
N9B H14B 1_555 1_555
C9B N4B 1_555 1_555
N10B H15B 1_555 1_555
C10B H16B 1_555 1_555
N11B H17B 1_555 1_555
C11B N5B 1_555 1_555
N12B C25B 1_555 1_555
N12C Ni2 1_555 1_555
N12A Ni2 1_555 1_555
C12B C11B 1_555 1_555
H18B C12B 1_555 1_555
C14B C12B 1_555 1_555
H19B C14B 1_555 1_555
C15B N6B 1_555 1_555
H20B C15B 1_555 1_555
C16B N7B 1_555 1_555
H21B C16B 1_555 1_555
C17B N8B 1_555 1_555
C18B C17B 1_555 1_555
H22B C18B 1_555 1_555
C19B C18B 1_555 1_555
H23B C19B 1_555 1_555
C20B N7B 1_555 1_555
H24B C20B 1_555 1_555
C21B N8B 1_555 1_555
C22B N9B 1_555 1_555
H25B C22B 1_555 1_555
H26B C22B 1_555 1_555
C23B N10B 1_555 1_555
H27B C23B 1_555 1_555
H28B C23B 1_555 1_555
C24B N10B 1_555 1_555
C25B H29B 1_555 1_555
C26B N11B 1_555 1_555
C27B C26B 1_555 1_555
H30B C27B 1_555 1_555
C28B C27B 1_555 1_555
H31B C28B 1_555 1_555
C29B N12B 1_555 1_555
H32B C29B 1_555 1_555
N2 C2 1_555 1_555
N3 C6 1_555 1_555
C4 C5 1_555 1_555
N5 C9 1_555 1_555
C7 C8 1_555 1_555
N9 C21 1_555 1_555
C10 C11 1_555 1_555
N11 C24 1_555 1_555
C14 C15 1_555 1_555
C16 C17 1_555 1_555
C19 C20 1_555 1_555
C22 C23 1_555 1_555
C25 C26 1_555 1_555
C28 C29 1_555 1_555
N2B C2B 1_555 1_555
N3B C6B 1_555 1_555
C4B C5B 1_555 1_555
N5B C9B 1_555 1_555
C7B C8B 1_555 1_555
N9B C21B 1_555 1_555
C10B C11B 1_555 1_555
N11B C24B 1_555 1_555
C14B C15B 1_555 1_555
C16B C17B 1_555 1_555
C19B C20B 1_555 1_555
C22B C23B 1_555 1_555
C25B C26B 1_555 1_555
C28B C29B 1_555 1_555

#END
