
#######################################################################
#
#                 Cambridge Crystallographic Data Centre
#                                CCDC 
#
#######################################################################
#
# If this CIF has been generated from an entry in the Cambridge 
# Structural Database, then it will include bibliographic, chemical, 
# crystal, experimental, refinement or atomic coordinate data resulting 
# from the CCDC's data processing and validation procedures.
#
#######################################################################

data_HEZSEK
_symmetry_cell_setting           monoclinic
_symmetry_space_group_name_H-M   'P 21/c'
_symmetry_Int_Tables_number      14
_space_group_name_Hall           '-P 2ybc'
loop_
_symmetry_equiv_pos_site_id
_symmetry_equiv_pos_as_xyz
1 x,y,z
2 -x,1/2+y,1/2-z
3 -x,-y,-z
4 x,1/2-y,1/2+z
_cell_length_a                   8.818(1)
_cell_length_b                   10.200(2)
_cell_length_c                   19.737(2)
_cell_angle_alpha                90
_cell_angle_beta                 102.40(1)
_cell_angle_gamma                90
_cell_volume                     1733.81
loop_
_atom_site_label
_atom_site_type_symbol
_atom_site_fract_x
_atom_site_fract_y
_atom_site_fract_z
Ba1 Ba 0.34342(3) 0.18965(2) 0.03226(1)
Cu1 Cu 0.23623(5) -0.06618(4) 0.20377(2)
N1 N 0.08168(37) -0.23700(32) 0.24259(16)
N2 N 0.39048(38) -0.21814(29) 0.20616(16)
O1 O -0.11789(49) -0.29501(37) 0.38514(19)
O2 O -0.10883(39) -0.41470(30) 0.29099(17)
O3 O -0.07985(42) -0.25587(40) 0.05745(17)
O4 O 0.10611(36) -0.12907(31) 0.11527(14)
O5 O 0.56523(47) -0.06762(33) 0.07588(19)
O6 O 0.42090(37) 0.01453(29) 0.14399(16)
O7 O 0.55338(42) -0.09961(36) 0.37937(16)
O8 O 0.35264(36) -0.03024(28) 0.29929(15)
O9 O 0.16219(39) -0.04156(34) -0.00808(18)
O10 O 0.65610(45) 0.23235(45) 0.05363(24)
O11 O 0.36805(58) 0.42664(42) -0.04586(23)
C1 C 0.20394(52) -0.33707(38) 0.26253(23)
C2 C 0.30934(48) -0.34404(37) 0.21166(23)
C3 C -0.07871(46) -0.31430(40) 0.32881(21)
C4 C 0.01204(51) -0.20443(39) 0.30158(23)
C5 C -0.03196(50) -0.27035(50) 0.17933(22)
C6 C 0.00038(50) -0.21524(40) 0.11240(21)
C7 C 0.45528(52) -0.21720(39) 0.14289(21)
C8 C 0.48546(48) -0.07862(39) 0.11956(21)
C9 C 0.51688(47) -0.19601(40) 0.26847(21)
C10 C 0.46981(50) -0.10336(40) 0.32063(21)
H1 H 0.2626(54) -0.3202(48) 0.3117(11)
H2 H 0.1349(48) -0.4167(30) 0.2575(26)
H3 H 0.3847(46) -0.4194(33) 0.2253(25)
H4 H 0.2456(48) -0.3574(53) 0.1632(11)
H5 H 0.0986(42) -0.1755(47) 0.3413(18)
H6 H -0.0581(50) -0.1275(33) 0.3051(26)
H7 H -0.1414(25) -0.2395(50) 0.1772(26)
H8 H -0.0555(60) -0.3671(15) 0.1729(26)
H9 H 0.3703(42) -0.2604(48) 0.1076(19)
H10 H 0.5526(36) -0.2720(43) 0.1506(24)
H11 H 0.5741(54) -0.2761(31) 0.2904(24)
H12 H 0.6036(43) -0.1486(46) 0.2524(25)
O3B O 0.07985(42) 0.25587(40) -0.05745(17)
O5B O 0.43477(47) 0.06762(33) -0.07588(19)
O7A O 0.44662(42) 0.40039(36) 0.12063(16)
O1A O 0.11789(49) 0.20499(37) 0.11486(19)
O2A O 0.10883(39) 0.08530(30) 0.20901(17)
Ba1B Ba 0.65658(3) -0.18965(2) -0.03226(1)
Ba1B_2 Ba -0.34342(3) -0.18965(2) -0.03226(1)
Ba1A Ba 0.65658(3) -0.31035(2) 0.46774(1)
Ba1A_2 Ba -0.34342(3) -0.31035(2) 0.46774(1)
Cu1A Cu -0.23623(5) -0.56618(4) 0.29623(2)
O12 O 0.8934(18) 0.4064(11) 0.02961(84)
loop_
_geom_bond_atom_site_label_1
_geom_bond_atom_site_label_2
_geom_bond_site_symmetry_1
_geom_bond_site_symmetry_2
Ba1 O6 1_555 1_555
Cu1 N1 1_555 1_555
N1 C1 1_555 1_555
N2 Cu1 1_555 1_555
O1 C3 1_555 1_555
O2 C3 1_555 1_555
O3 C6 1_555 1_555
O4 Cu1 1_555 1_555
O5 C8 1_555 1_555
O6 Cu1 1_555 1_555
O7 C10 1_555 1_555
O8 Cu1 1_555 1_555
O9 Ba1 1_555 1_555
O10 Ba1 1_555 1_555
O11 Ba1 1_555 1_555
C1 C2 1_555 1_555
C2 N2 1_555 1_555
C3 C4 1_555 1_555
C4 N1 1_555 1_555
C5 N1 1_555 1_555
C6 O4 1_555 1_555
C7 N2 1_555 1_555
C8 O6 1_555 1_555
C9 N2 1_555 1_555
C10 O8 1_555 1_555
H1 C1 1_555 1_555
H2 C1 1_555 1_555
H3 C2 1_555 1_555
H4 C2 1_555 1_555
H5 C4 1_555 1_555
H6 C4 1_555 1_555
H7 C5 1_555 1_555
H8 C5 1_555 1_555
H9 C7 1_555 1_555
H10 C7 1_555 1_555
H11 C9 1_555 1_555
H12 C9 1_555 1_555
O3B Ba1 1_555 1_555
O5B Ba1 1_555 1_555
O7A Ba1 1_555 1_555
O1A Ba1 1_555 1_555
O2A Cu1 1_555 1_555
Ba1B O5 1_555 1_555
Ba1B_2 O3 1_555 1_555
Ba1A O7 1_555 1_555
Ba1A_2 O1 1_555 1_555
Cu1A O2 1_555 1_555
C5 C6 1_555 1_555
C7 C8 1_555 1_555
C9 C10 1_555 1_555

#END
