
#######################################################################
#
#                 Cambridge Crystallographic Data Centre
#                                CCDC 
#
#######################################################################
#
# If this CIF has been generated from an entry in the Cambridge 
# Structural Database, then it will include bibliographic, chemical, 
# crystal, experimental, refinement or atomic coordinate data resulting 
# from the CCDC's data processing and validation procedures.
#
#######################################################################

data_HEZSAG
_symmetry_cell_setting           monoclinic
_symmetry_space_group_name_H-M   'P 21/c'
_symmetry_Int_Tables_number      14
_space_group_name_Hall           '-P 2ybc'
loop_
_symmetry_equiv_pos_site_id
_symmetry_equiv_pos_as_xyz
1 x,y,z
2 -x,1/2+y,1/2-z
3 -x,-y,-z
4 x,1/2-y,1/2+z
_cell_length_a                   8.717(1)
_cell_length_b                   10.568(3)
_cell_length_c                   19.374(3)
_cell_angle_alpha                90
_cell_angle_beta                 100.39(1)
_cell_angle_gamma                90
_cell_volume                     1755.49
loop_
_atom_site_label
_atom_site_type_symbol
_atom_site_fract_x
_atom_site_fract_y
_atom_site_fract_z
Sr1 Sr -0.32856(6) -0.15100(5) -0.04967(2)
Cu1 Cu -0.23169(7) 0.12907(5) -0.19336(3)
N1 N -0.06423(49) 0.29765(39) -0.22488(21)
N2 N -0.36466(56) 0.28490(41) -0.17444(26)
O1 O 0.10122(47) 0.36956(35) -0.38150(20)
O2 O 0.12244(43) 0.47708(33) -0.28029(18)
O3 O 0.12205(54) 0.25481(41) -0.04385(21)
O4 O -0.08438(47) 0.15954(34) -0.10474(20)
O5 O -0.56798(69) 0.10518(50) -0.06182(29)
O6 O -0.40954(45) 0.04297(34) -0.13194(21)
O7 O -0.59815(55) 0.20221(47) -0.34227(27)
O8 O -0.37801(49) 0.12098(36) -0.28234(21)
O9 O -0.16405(42) 0.04637(36) 0.00931(19)
O10 O -0.62858(57) -0.17226(55) -0.08443(35)
O11 O -0.38596(97) -0.39104(64) -0.02252(38)
C1 C -0.16812(82) 0.40717(56) -0.22425(38)
C2 C -0.26404(79) 0.39996(51) -0.16748(36)
C3 C 0.07744(55) 0.38413(46) -0.32029(26)
C4 C -0.01553(60) 0.27999(48) -0.29218(27)
C5 C 0.06593(72) 0.29856(65) -0.16508(28)
C6 C 0.03163(59) 0.23292(45) -0.09945(27)
C7 C -0.42403(76) 0.26315(52) -0.10731(34)
C8 C -0.47366(63) 0.12610(52) -0.10095(28)
C9 C -0.49679(72) 0.29418(63) -0.23415(35)
C10 C -0.49110(65) 0.19935(56) -0.29127(33)
H1 H -0.2384(83) 0.4117(94) -0.2720(21)
H2 H -0.1471(98) 0.4918(39) -0.2452(41)
H3 H -0.3536(66) 0.4613(63) -0.1695(44)
H4 H -0.1715(66) 0.3955(86) -0.1277(31)
H5 H -0.1110(60) 0.2444(76) -0.3234(37)
H6 H 0.0443(90) 0.1978(45) -0.2900(44)
H7 H 0.1280(87) 0.2208(49) -0.1732(45)
H8 H 0.1404(80) 0.3649(58) -0.1412(40)
H9 H -0.4930(92) 0.3408(55) -0.1120(51)
H10 H -0.5143(72) 0.2964(86) -0.0866(44)
H11 H -0.530(10) 0.3855(27) -0.2403(46)
H12 H -0.506(10) 0.3211(92) -0.2847(16)
O3B O -0.12205(54) -0.25481(41) 0.04385(21)
Sr1A Sr 0.32856(6) 0.34900(5) -0.45033(2)
Sr1B Sr 0.32856(6) 0.15100(5) 0.04967(2)
Sr1B_2 Sr -0.67144(6) 0.15100(5) 0.04967(2)
Sr1A_2 Sr -0.67144(6) 0.34900(5) -0.45033(2)
Cu1A Cu 0.23169(7) 0.62907(5) -0.30664(3)
O1A O -0.10122(47) -0.13044(35) -0.11850(20)
O2A O -0.12244(43) -0.02292(33) -0.21971(18)
O5B O -0.43202(69) -0.10518(50) 0.06182(29)
O7A O -0.40185(55) -0.29779(47) -0.15773(27)
O6A O 0.40954(45) 0.54297(34) -0.36806(21)
O12 O 0.70090(95) 0.44811(68) 0.09129(34)
loop_
_geom_bond_atom_site_label_1
_geom_bond_atom_site_label_2
_geom_bond_site_symmetry_1
_geom_bond_site_symmetry_2
Sr1 O6 1_555 1_555
Cu1 N1 1_555 1_555
N1 C1 1_555 1_555
N2 Cu1 1_555 1_555
O1 C3 1_555 1_555
O2 C3 1_555 1_555
O3 C6 1_555 1_555
O4 Cu1 1_555 1_555
O5 C8 1_555 1_555
O6 Cu1 1_555 1_555
O7 C10 1_555 1_555
O8 Cu1 1_555 1_555
O9 Sr1 1_555 1_555
O10 Sr1 1_555 1_555
O11 Sr1 1_555 1_555
C1 C2 1_555 1_555
C2 N2 1_555 1_555
C3 C4 1_555 1_555
C4 N1 1_555 1_555
C5 N1 1_555 1_555
C6 O4 1_555 1_555
C7 N2 1_555 1_555
C8 O6 1_555 1_555
C9 N2 1_555 1_555
C10 O8 1_555 1_555
H1 C1 1_555 1_555
H2 C1 1_555 1_555
H3 C2 1_555 1_555
H4 C2 1_555 1_555
H5 C4 1_555 1_555
H6 C4 1_555 1_555
H7 C5 1_555 1_555
H8 C5 1_555 1_555
H9 C7 1_555 1_555
H10 C7 1_555 1_555
H11 C9 1_555 1_555
H12 C9 1_555 1_555
O3B Sr1 1_555 1_555
Sr1A O1 1_555 1_555
Sr1B O3 1_555 1_555
Sr1B_2 O5 1_555 1_555
Sr1A_2 O7 1_555 1_555
Cu1A O2 1_555 1_555
O1A Sr1 1_555 1_555
O2A Cu1 1_555 1_555
O5B Sr1 1_555 1_555
O7A Sr1 1_555 1_555
O6A Sr1A 1_555 1_555
C5 C6 1_555 1_555
C7 C8 1_555 1_555
C9 C10 1_555 1_555
Cu1A O6A 1_555 1_555

#END
