
#######################################################################
#
#                 Cambridge Crystallographic Data Centre
#                                CCDC 
#
#######################################################################
#
# If this CIF has been generated from an entry in the Cambridge 
# Structural Database, then it will include bibliographic, chemical, 
# crystal, experimental, refinement or atomic coordinate data resulting 
# from the CCDC's data processing and validation procedures.
#
#######################################################################

data_HGBDOX
_symmetry_cell_setting           tetragonal
_symmetry_space_group_name_H-M   'I 4/m'
_symmetry_Int_Tables_number      87
_space_group_name_Hall           '-I 4'
loop_
_symmetry_equiv_pos_site_id
_symmetry_equiv_pos_as_xyz
1 x,y,z
2 1/2+x,1/2+y,1/2+z
3 -y,x,z
4 1/2-y,1/2+x,1/2+z
5 -x,-y,z
6 1/2-x,1/2-y,1/2+z
7 y,-x,z
8 1/2+y,1/2-x,1/2+z
9 -x,-y,-z
10 1/2-x,1/2-y,1/2-z
11 y,-x,-z
12 1/2+y,1/2-x,1/2-z
13 x,y,-z
14 1/2+x,1/2+y,1/2-z
15 -y,x,-z
16 1/2-y,1/2+x,1/2-z
_cell_length_a                   7.454(3)
_cell_length_b                   7.454(3)
_cell_length_c                   12.439(7)
_cell_angle_alpha                90
_cell_angle_beta                 90
_cell_angle_gamma                90
_cell_volume                     691.137
loop_
_atom_site_label
_atom_site_type_symbol
_atom_site_fract_x
_atom_site_fract_y
_atom_site_fract_z
Br1 Br 0.00000 0.00000 0.19560
C1 C 0.09970 0.47190 0.09350
Hg1 Hg 0.00000 0.00000 0.00000
O1 O 0.12650 0.35830 0.00000
C1D C -0.09970 0.52810 0.09350
O1D O -0.12650 0.64170 0.00000
C1H C -0.09970 0.52810 -0.09350
C1L C 0.09970 0.47190 -0.09350
Br1H Br 0.00000 0.00000 -0.19560
C1B C -0.47190 0.09970 0.09350
O1B O -0.35830 0.12650 0.00000
C1F C -0.52810 -0.09970 0.09350
O1F O -0.64170 -0.12650 0.00000
C1J C -0.52810 -0.09970 -0.09350
C1N C -0.47190 0.09970 -0.09350
O1D_2 O -0.12650 -0.35830 0.00000
O1F_2 O 0.35830 -0.12650 0.00000
Hg1_2 Hg 0.00000 1.00000 0.00000
Hg1_3 Hg -1.00000 0.00000 0.00000
loop_
_geom_bond_atom_site_label_1
_geom_bond_atom_site_label_2
_geom_bond_site_symmetry_1
_geom_bond_site_symmetry_2
Br1 Hg1 1_555 1_555
C1 O1 1_555 1_555
Hg1 O1 1_555 1_555
O1 C1L 1_555 1_555
C1D C1 1_555 1_555
O1D C1D 1_555 1_555
C1H O1D 1_555 1_555
C1L C1H 1_555 1_555
Br1H Hg1 1_555 1_555
C1B O1B 1_555 1_555
O1B Hg1 1_555 1_555
C1F C1B 1_555 1_555
O1F C1F 1_555 1_555
C1J O1F 1_555 1_555
C1N O1B 1_555 1_555
O1D_2 Hg1 1_555 1_555
O1F_2 Hg1 1_555 1_555
Hg1_2 O1D 1_555 1_555
Hg1_3 O1F 1_555 1_555
C1J C1N 1_555 1_555

#END
