
#######################################################################
#
#                 Cambridge Crystallographic Data Centre
#                                CCDC 
#
#######################################################################
#
# If this CIF has been generated from an entry in the Cambridge 
# Structural Database, then it will include bibliographic, chemical, 
# crystal, experimental, refinement or atomic coordinate data resulting 
# from the CCDC's data processing and validation procedures.
#
#######################################################################

data_HGOPHT
_symmetry_cell_setting           monoclinic
_symmetry_space_group_name_H-M   'C 2/c'
_symmetry_Int_Tables_number      15
_space_group_name_Hall           '-C 2yn'
loop_
_symmetry_equiv_pos_site_id
_symmetry_equiv_pos_as_xyz
1 x,y,z
2 1/2+x,1/2+y,z
3 -x,y,1/2-z
4 1/2-x,1/2+y,1/2-z
5 -x,-y,-z
6 1/2-x,1/2-y,-z
7 x,-y,1/2+z
8 1/2+x,1/2-y,1/2+z
_cell_length_a                   26.33(2)
_cell_length_b                   6.254(2)
_cell_length_c                   12.90(1)
_cell_angle_alpha                90
_cell_angle_beta                 116.94(3)
_cell_angle_gamma                90
_cell_volume                     1893.7
loop_
_atom_site_label
_atom_site_type_symbol
_atom_site_fract_x
_atom_site_fract_y
_atom_site_fract_z
C1 C 0.12000 0.17800 0.49900
C2 C 0.14800 0.26300 0.61300
C3 C 0.19400 0.12100 0.71500
C4 C 0.21400 0.21400 0.82500
C5 C 0.19600 0.41300 0.84200
C6 C 0.15600 0.54300 0.74600
C7 C 0.13500 0.47200 0.64700
C8 C 0.09400 0.61000 0.54000
Hg1 Hg 0.08660 -0.07250 0.29890
Hg2 Hg 0.01540 -0.21960 0.10540
O1 O 0.14600 0.10000 0.45000
O2 O 0.07100 0.16000 0.45400
O3 O 0.04700 0.64500 0.54700
O4 O 0.10500 0.63300 0.46000
O3B O -0.04700 -0.35500 -0.04700
Hg2B Hg -0.01540 0.78040 0.39460
C8B C -0.09400 -0.39000 -0.04000
Hg1B Hg -0.08660 0.92750 0.20110
C7B C -0.13500 -0.52800 -0.14700
O4B O -0.10500 -0.36700 0.04000
O1B O -0.14600 1.10000 0.05000
C2B C -0.14800 -0.73700 -0.11300
C6B C -0.15600 -0.45700 -0.24600
C1B C -0.12000 -0.82200 0.00100
C3B C -0.19400 -0.87900 -0.21500
C5B C -0.19600 -0.58700 -0.34200
C4B C -0.21400 -0.78600 -0.32500
O1B_2 O -0.14600 -0.90000 0.05000
O2B O -0.07100 -0.84000 0.04600
Hg1B_2 Hg -0.08660 -1.07250 0.20110
loop_
_geom_bond_atom_site_label_1
_geom_bond_atom_site_label_2
_geom_bond_site_symmetry_1
_geom_bond_site_symmetry_2
C1 C2 1_555 1_555
C2 C3 1_555 1_555
C3 C4 1_555 1_555
C4 C5 1_555 1_555
C5 C6 1_555 1_555
C6 C7 1_555 1_555
C7 C2 1_555 1_555
C8 C7 1_555 1_555
Hg1 Hg2 1_555 1_555
Hg2 O3B 1_555 1_555
O1 C1 1_555 1_555
O2 C1 1_555 1_555
O3 C8 1_555 1_555
O4 C8 1_555 1_555
O3B C8B 1_555 1_555
Hg2B O3 1_555 1_555
C8B C7B 1_555 1_555
Hg1B Hg2B 1_555 1_555
C7B C2B 1_555 1_555
O4B C8B 1_555 1_555
O1B Hg1B 1_555 1_555
C2B C1B 1_555 1_555
C6B C7B 1_555 1_555
C1B O1B_2 1_555 1_555
C3B C2B 1_555 1_555
C5B C6B 1_555 1_555
C4B C3B 1_555 1_555
O1B_2 Hg1B_2 1_555 1_555
O2B C1B 1_555 1_555
Hg1 O1 1_555 1_555
C5B C4B 1_555 1_555

#END
