
#######################################################################
#
#                 Cambridge Crystallographic Data Centre
#                                CCDC 
#
#######################################################################
#
# If this CIF has been generated from an entry in the Cambridge 
# Structural Database, then it will include bibliographic, chemical, 
# crystal, experimental, refinement or atomic coordinate data resulting 
# from the CCDC's data processing and validation procedures.
#
#######################################################################

data_HIBDUR
_symmetry_cell_setting           tetragonal
_symmetry_space_group_name_H-M   'I 41/a m d'
_symmetry_Int_Tables_number      141
_space_group_name_Hall           '-I 4bd 2'
loop_
_symmetry_equiv_pos_site_id
_symmetry_equiv_pos_as_xyz
1 x,y,z
2 1/4-y,3/4+x,1/4+z
3 x,-y,-z
4 1/2-x,-y,1/2+z
5 1/4+y,3/4+x,1/4-z
6 1/4+y,1/4-x,3/4+z
7 1/2-x,y,1/2-z
8 1/4-y,1/4-x,3/4-z
9 1/2+x,1/2+y,1/2+z
10 3/4-y,1/4+x,3/4+z
11 1/2+x,1/2-y,1/2-z
12 -x,1/2-y,z
13 3/4+y,1/4+x,3/4-z
14 3/4+y,3/4-x,1/4+z
15 -x,1/2+y,-z
16 3/4-y,3/4-x,1/4-z
17 -x,-y,-z
18 3/4+y,1/4-x,3/4-z
19 -x,y,z
20 1/2+x,y,1/2-z
21 3/4-y,1/4-x,3/4+z
22 3/4-y,3/4+x,1/4-z
23 1/2+x,-y,1/2+z
24 3/4+y,3/4+x,1/4+z
25 1/2-x,1/2-y,1/2-z
26 1/4+y,3/4-x,1/4-z
27 1/2-x,1/2+y,1/2+z
28 x,1/2+y,-z
29 1/4-y,3/4-x,1/4+z
30 1/4-y,1/4+x,3/4-z
31 x,1/2-y,z
32 1/4+y,1/4+x,3/4+z
_cell_length_a                   7.763(3)
_cell_length_b                   7.763(3)
_cell_length_c                   19.56(1)
_cell_angle_alpha                90
_cell_angle_beta                 90
_cell_angle_gamma                90
_cell_volume                     1178.77
loop_
_atom_site_label
_atom_site_type_symbol
_atom_site_fract_x
_atom_site_fract_y
_atom_site_fract_z
I1 I 0.5000 0.2500 0.1250
Li1 Li 1.0000 0.7500 0.1250
N1 N 0.5000 0.7500 0.0562(3)
C1 C 0.6467(4) 0.7500 0.0943(2)
C2 C 0.5987(5) 0.7500 0.1686(2)
O1 O 0.7922(3) 0.7500 0.0689(1)
H1 H 0.5000 0.7500 0.0077
H2 H 0.6421 0.6501 0.1908
C2K C 0.4013(5) 0.7500 0.1686(2)
C1K C 0.3533(4) 0.7500 0.0943(2)
O1K O 0.2078(3) 0.7500 0.0689(1)
H2K H 0.3579 0.8499 0.1908
H2R H 0.3579 0.6501 0.1908
H2DA H 0.6421 0.8499 0.1908
N1D N 1.0000 0.2500 0.1938(3)
C1D C 1.0000 0.3967(4) 0.1557(2)
C2D C 1.0000 0.3487(5) 0.0814(2)
O1D O 1.0000 0.5422(3) 0.1811(1)
H1D H 1.0000 0.2500 0.2423
H2D H 0.9001 0.3921 0.0592
C2O C 1.0000 0.1513(5) 0.0814(2)
C1O C 1.0000 0.1033(4) 0.1557(2)
O1O O 1.0000 -0.0422(3) 0.1811(1)
H2O H 1.0999 0.1079 0.0592
H2Y H 0.9001 0.1079 0.0592
H2U H 1.0999 0.3921 0.0592
O1K_2 O 1.2078(3) 0.7500 0.0689(1)
O1O_2 O 1.0000 0.9578(3) 0.1811(1)
Li1_2 Li 0.0000 0.7500 0.1250
Li1_3 Li 1.0000 -0.2500 0.1250
loop_
_geom_bond_atom_site_label_1
_geom_bond_atom_site_label_2
_geom_bond_site_symmetry_1
_geom_bond_site_symmetry_2
Li1 O1 1_555 1_555
N1 C1 1_555 1_555
C1 C2 1_555 1_555
C2 H2 1_555 1_555
O1 C1 1_555 1_555
H1 N1 1_555 1_555
C2K C2 1_555 1_555
C1K N1 1_555 1_555
O1K C1K 1_555 1_555
H2K C2K 1_555 1_555
H2R C2K 1_555 1_555
H2DA C2 1_555 1_555
N1D C1D 1_555 1_555
C1D C2D 1_555 1_555
C2D H2D 1_555 1_555
O1D Li1 1_555 1_555
H1D N1D 1_555 1_555
C2O C2D 1_555 1_555
C1O N1D 1_555 1_555
O1O C1O 1_555 1_555
H2O C2O 1_555 1_555
H2Y C2O 1_555 1_555
H2U C2D 1_555 1_555
O1K_2 Li1 1_555 1_555
O1O_2 Li1 1_555 1_555
Li1_2 O1K 1_555 1_555
Li1_3 O1O 1_555 1_555
C2K C1K 1_555 1_555
C1D O1D 1_555 1_555
C2O C1O 1_555 1_555

#END
