
#######################################################################
#
#                 Cambridge Crystallographic Data Centre
#                                CCDC 
#
#######################################################################
#
# If this CIF has been generated from an entry in the Cambridge 
# Structural Database, then it will include bibliographic, chemical, 
# crystal, experimental, refinement or atomic coordinate data resulting 
# from the CCDC's data processing and validation procedures.
#
#######################################################################

data_HIBFAZ
_symmetry_cell_setting           tetragonal
_symmetry_space_group_name_H-M   'I 41/a m d'
_symmetry_Int_Tables_number      141
_space_group_name_Hall           '-I 4bd 2'
loop_
_symmetry_equiv_pos_site_id
_symmetry_equiv_pos_as_xyz
1 x,y,z
2 1/4-y,3/4+x,1/4+z
3 x,-y,-z
4 1/2-x,-y,1/2+z
5 1/4+y,3/4+x,1/4-z
6 1/4+y,1/4-x,3/4+z
7 1/2-x,y,1/2-z
8 1/4-y,1/4-x,3/4-z
9 1/2+x,1/2+y,1/2+z
10 3/4-y,1/4+x,3/4+z
11 1/2+x,1/2-y,1/2-z
12 -x,1/2-y,z
13 3/4+y,1/4+x,3/4-z
14 3/4+y,3/4-x,1/4+z
15 -x,1/2+y,-z
16 3/4-y,3/4-x,1/4-z
17 -x,-y,-z
18 3/4+y,1/4-x,3/4-z
19 -x,y,z
20 1/2+x,y,1/2-z
21 3/4-y,1/4-x,3/4+z
22 3/4-y,3/4+x,1/4-z
23 1/2+x,-y,1/2+z
24 3/4+y,3/4+x,1/4+z
25 1/2-x,1/2-y,1/2-z
26 1/4+y,3/4-x,1/4-z
27 1/2-x,1/2+y,1/2+z
28 x,1/2+y,-z
29 1/4-y,3/4-x,1/4+z
30 1/4-y,1/4+x,3/4-z
31 x,1/2-y,z
32 1/4+y,1/4+x,3/4+z
_cell_length_a                   8.029(3)
_cell_length_b                   8.029(3)
_cell_length_c                   20.550(5)
_cell_angle_alpha                90
_cell_angle_beta                 90
_cell_angle_gamma                90
_cell_volume                     1324.75
loop_
_atom_site_label
_atom_site_type_symbol
_atom_site_fract_x
_atom_site_fract_y
_atom_site_fract_z
P1 P 0.5000 0.7500 -0.1250
F1 F 0.6378(4) 0.8878 -0.1250
F2 F 0.6001(5) 0.8475(5) -0.1794(2)
F1G F 0.3622 0.6122(4) -0.1250
F2G F 0.4025(5) 0.6499(5) -0.0706(2)
F1Q F 0.6378 0.6122(4) -0.1250
F2Q F 0.5975(5) 0.6499(5) -0.0706(2)
F1R F 0.3622(4) 0.8878 -0.1250
F2R F 0.3999(5) 0.8475(5) -0.1794(2)
F2K F 0.3999(5) 0.6525(5) -0.1794(2)
F2DA F 0.6001(5) 0.6525(5) -0.1794(2)
F2L F 0.5975(5) 0.8501(5) -0.0706(2)
F2CA F 0.4025(5) 0.8501(5) -0.0706(2)
O1 O 0.7819(2) 0.7500 0.0816(1)
N1 N 0.5000 0.7500 0.0686(1)
C1 C 0.6430(3) 0.7500 0.1051(1)
C2 C 0.5952(4) 0.7500 0.1753(1)
Li1 Li 1.0000 0.7500 0.1250
H1 H 0.5000 0.7500 0.0227
H2 H 0.6370 0.6534 0.1971
C1K C 0.3570(3) 0.7500 0.1051(1)
O1K O 0.2181(2) 0.7500 0.0816(1)
C2K C 0.4048(4) 0.7500 0.1753(1)
H2DA H 0.6370 0.8466 0.1971
H2K H 0.3630 0.8466 0.1971
H2R H 0.3630 0.6534 0.1971
O1D O 1.0000 0.5319(2) 0.1684(1)
N1D N 1.0000 0.2500 0.1814(1)
C1D C 1.0000 0.3930(3) 0.1449(1)
C2D C 1.0000 0.3452(4) 0.0747(1)
H1D H 1.0000 0.2500 0.2273
H2D H 0.9034 0.3870 0.0529
C1O C 1.0000 0.1070(3) 0.1449(1)
O1O O 1.0000 -0.0319(2) 0.1684(1)
C2O C 1.0000 0.1548(4) 0.0747(1)
H2U H 1.0966 0.3870 0.0529
H2O H 1.0966 0.1130 0.0529
H2Y H 0.9034 0.1130 0.0529
O1K_2 O 1.2181(2) 0.7500 0.0816(1)
O1O_2 O 1.0000 0.9681(2) 0.1684(1)
Li1_2 Li 0.0000 0.7500 0.1250
Li1_3 Li 1.0000 -0.2500 0.1250
loop_
_geom_bond_atom_site_label_1
_geom_bond_atom_site_label_2
_geom_bond_site_symmetry_1
_geom_bond_site_symmetry_2
O1 C1 1_555 1_555
N1 C1 1_555 1_555
C1 C2 1_555 1_555
C2 H2 1_555 1_555
Li1 O1 1_555 1_555
H1 N1 1_555 1_555
P1 F1 1_555 1_555
F1 F2 1_555 1_555
F2 P1 1_555 1_555
C1K N1 1_555 1_555
O1K C1K 1_555 1_555
C2K C2 1_555 1_555
H2DA C2 1_555 1_555
H2K C2K 1_555 1_555
H2R C2K 1_555 1_555
F1G P1 1_555 1_555
F2G P1 1_555 1_555
F1Q P1 1_555 1_555
F2Q P1 1_555 1_555
F1R P1 1_555 1_555
F2R P1 1_555 1_555
F2K P1 1_555 1_555
F2DA P1 1_555 1_555
F2L P1 1_555 1_555
F2CA P1 1_555 1_555
O1D Li1 1_555 1_555
N1D C1D 1_555 1_555
C1D O1D 1_555 1_555
C2D C1D 1_555 1_555
H1D N1D 1_555 1_555
H2D C2D 1_555 1_555
C1O N1D 1_555 1_555
O1O C1O 1_555 1_555
C2O C2D 1_555 1_555
H2U C2D 1_555 1_555
H2O C2O 1_555 1_555
H2Y C2O 1_555 1_555
O1K_2 Li1 1_555 1_555
O1O_2 Li1 1_555 1_555
Li1_2 O1K 1_555 1_555
Li1_3 O1O 1_555 1_555
F1 F2L 1_555 1_555
F2 F2DA 1_555 1_555
F2 F2R 1_555 1_555
C1K C2K 1_555 1_555
F1G F2G 1_555 1_555
F1G F2K 1_555 1_555
F2G F2CA 1_555 1_555
F2G F2Q 1_555 1_555
F1Q F2Q 1_555 1_555
F1Q F2DA 1_555 1_555
F2Q F2L 1_555 1_555
F1R F2R 1_555 1_555
F1R F2CA 1_555 1_555
F2R F2K 1_555 1_555
F2K F2DA 1_555 1_555
F2L F2CA 1_555 1_555
C1O C2O 1_555 1_555

#END
