
#######################################################################
#
#                 Cambridge Crystallographic Data Centre
#                                CCDC 
#
#######################################################################
#
# If this CIF has been generated from an entry in the Cambridge 
# Structural Database, then it will include bibliographic, chemical, 
# crystal, experimental, refinement or atomic coordinate data resulting 
# from the CCDC's data processing and validation procedures.
#
#######################################################################

data_HIBSAO
_symmetry_cell_setting           monoclinic
_symmetry_space_group_name_H-M   'P 21/c'
_symmetry_Int_Tables_number      14
_space_group_name_Hall           '-P 2ybc'
loop_
_symmetry_equiv_pos_site_id
_symmetry_equiv_pos_as_xyz
1 x,y,z
2 -x,1/2+y,1/2-z
3 -x,-y,-z
4 x,1/2-y,1/2+z
_cell_length_a                   12.4649(7)
_cell_length_b                   17.5979(10)
_cell_length_c                   15.8811(9)
_cell_angle_alpha                90
_cell_angle_beta                 106.5430(10)
_cell_angle_gamma                90
_cell_volume                     3339.42
loop_
_atom_site_label
_atom_site_type_symbol
_atom_site_fract_x
_atom_site_fract_y
_atom_site_fract_z
Zn1 Zn 0.52396(2) 0.180248(14) 0.431067(15)
N1 N 0.34947(16) 0.12766(12) 0.49038(12)
O1 O 0.39015(15) 0.18907(10) 0.52691(11)
O2 O 0.26679(15) 0.09801(12) 0.50454(12)
O3 O 0.39733(14) 0.09715(10) 0.43841(10)
N2 N 0.66210(17) 0.30869(11) 0.44101(12)
O4 O 0.65186(14) 0.24571(9) 0.39923(10)
O5 O 0.60177(15) 0.31972(10) 0.49078(11)
O6 O 0.73051(17) 0.35616(11) 0.43085(12)
C1 C 0.70363(18) 0.09076(13) 0.55769(13)
H1 H 0.7051 0.0655 0.5052
C2 C 0.77421(18) 0.06504(13) 0.63680(14)
H2 H 0.8233 0.0234 0.6385
C3 C 0.77092(17) 0.10183(12) 0.71319(13)
C4 C 0.70135(18) 0.16411(12) 0.70886(13)
H3 H 0.6997 0.1909 0.7604
C5 C 0.63405(18) 0.18611(12) 0.62665(14)
H4 H 0.5863 0.2288 0.6230
C6 C 0.92076(18) 0.12043(13) 0.84851(14)
C7 C 0.81321(17) -0.00129(12) 0.81900(13)
C8 C 1.06849(18) 0.13379(12) 0.98977(14)
H5 H 1.0806 0.1842 0.9731
C9 C 0.98709(17) 0.08942(12) 0.93470(13)
C10 C 0.96724(16) 0.01478(12) 0.95927(12)
C11 C 0.88322(17) -0.03139(12) 0.90438(13)
C12 C 0.86621(18) -0.10456(12) 0.92914(14)
H6 H 0.8102 -0.1354 0.8914
C13 C 0.4033(2) 0.25668(16) 0.26868(16)
H7 H 0.4601 0.2299 0.2518
C14 C 0.3278(2) 0.29931(16) 0.20573(16)
H8 H 0.3326 0.3017 0.1471
C15 C 0.24596(19) 0.33807(13) 0.22998(14)
C16 C 0.2405(2) 0.33342(17) 0.31486(17)
H9 H 0.1840 0.3595 0.3328
C17 C 0.3200(2) 0.28955(17) 0.37371(16)
H10 H 0.3171 0.2867 0.4327
C18 C 0.08666(19) 0.34836(13) 0.10048(14)
C19 C 0.01348(18) 0.39775(12) 0.03216(14)
C20 C 0.03417(17) 0.47686(12) 0.03340(13)
C21 C 0.12195(17) 0.51102(12) 0.09909(13)
C22 C 0.19438(18) 0.46334(12) 0.16936(14)
C23 C 0.14184(18) 0.58818(13) 0.09852(14)
H11 H 0.2019 0.6101 0.1427
N3 N 0.63343(15) 0.14956(10) 0.55186(11)
N4 N 0.83622(14) 0.07339(10) 0.79745(11)
N5 N 0.40073(16) 0.25105(11) 0.35167(12)
N6 N 0.16904(16) 0.38534(11) 0.16625(12)
O7 O 0.93783(15) 0.18272(10) 0.82233(11)
O8 O 0.73868(13) -0.03791(9) 0.77032(10)
O9 O 0.07769(16) 0.27974(10) 0.10115(12)
O10 O 0.27313(13) 0.48804(10) 0.22635(10)
C24 C 0.52282(17) 0.05223(13) 0.29670(14)
C25 C 0.5117(2) -0.01565(13) 0.35026(15)
H12 H 0.5448 -0.0043 0.4127
H13 H 0.5508 -0.0589 0.3336
H14 H 0.4324 -0.0282 0.3396
C26 C 0.4668(2) -0.02611(16) 0.16277(17)
H15 H 0.5320 -0.0509 0.1519
H16 H 0.4111 -0.0154 0.1066
H17 H 0.4341 -0.0597 0.1981
C27 C 0.5211(2) 0.10844(16) 0.15742(17)
H18 H 0.4507 0.1356 0.1320
H19 H 0.5499 0.0892 0.1101
H20 H 0.5759 0.1432 0.1946
N7 N 0.50164(16) 0.04509(12) 0.21011(12)
O11 O 0.55334(14) 0.11531(9) 0.33280(10)
C28 C 0.07308(19) 0.63426(13) 0.03252(15)
H21 H 0.0862 0.6874 0.0325
C1B C 1.29637(18) -0.09076(13) 1.44231(13)
H1B H 1.2949 -0.0655 1.4948
C2B C 1.22579(18) -0.06504(13) 1.36320(14)
H2B H 1.1767 -0.0234 1.3615
C3B C 1.22908(17) -0.10183(12) 1.28681(13)
C4B C 1.29865(18) -0.16411(12) 1.29114(13)
H3B H 1.3003 -0.1909 1.2396
C5B C 1.36595(18) -0.18611(12) 1.37335(14)
H4B H 1.4137 -0.2288 1.3770
C6B C 1.07924(18) -0.12043(13) 1.15149(14)
C7B C 1.18679(17) 0.00129(12) 1.18100(13)
C8B C 0.93151(18) -0.13379(12) 1.01023(14)
H5B H 0.9194 -0.1842 1.0269
C9B C 1.01291(17) -0.08942(12) 1.06530(13)
C10B C 1.03276(16) -0.01478(12) 1.04073(12)
C11B C 1.11678(17) 0.03139(12) 1.09562(13)
C12B C 1.13379(18) 0.10456(12) 1.07086(14)
H6B H 1.1898 0.1354 1.1086
N3B N 1.36657(15) -0.14956(10) 1.44814(11)
N4B N 1.16378(14) -0.07339(10) 1.20255(11)
O7B O 1.06217(15) -0.18272(10) 1.17767(11)
O8B O 1.26132(13) 0.03791(9) 1.22968(10)
C13B C -0.4033(2) 0.74332(16) -0.26868(16)
H7B H -0.4601 0.7701 -0.2518
C14B C -0.3278(2) 0.70069(16) -0.20573(16)
H8B H -0.3326 0.6983 -0.1471
C15B C -0.24596(19) 0.66193(13) -0.22998(14)
C16B C -0.2405(2) 0.66658(17) -0.31486(17)
H9B H -0.1840 0.6405 -0.3328
C17B C -0.3200(2) 0.71045(17) -0.37371(16)
H10B H -0.3171 0.7133 -0.4327
C18B C -0.08666(19) 0.65164(13) -0.10048(14)
C19B C -0.01348(18) 0.60225(12) -0.03216(14)
C20B C -0.03417(17) 0.52314(12) -0.03340(13)
C21B C -0.12195(17) 0.48898(12) -0.09909(13)
C22B C -0.19438(18) 0.53666(12) -0.16936(14)
C23B C -0.14184(18) 0.41182(13) -0.09852(14)
H11B H -0.2019 0.3899 -0.1427
N5B N -0.40073(16) 0.74895(11) -0.35167(12)
N6B N -0.16904(16) 0.61466(11) -0.16625(12)
O9B O -0.07769(16) 0.72026(10) -0.10115(12)
O10B O -0.27313(13) 0.51196(10) -0.22635(10)
C28B C -0.07308(19) 0.36574(13) -0.03252(15)
H21B H -0.0862 0.3126 -0.0325
Zn1B Zn -0.52396(2) 0.819752(14) -0.431067(15)
N1B N -0.34947(16) 0.87234(12) -0.49038(12)
O1B O -0.39015(15) 0.81093(10) -0.52691(11)
O2B O -0.26679(15) 0.90199(12) -0.50454(12)
O3B O -0.39733(14) 0.90285(10) -0.43841(10)
N2B N -0.66210(17) 0.69131(11) -0.44101(12)
O4B O -0.65186(14) 0.75429(9) -0.39923(10)
O5B O -0.60177(15) 0.68028(10) -0.49078(11)
O6B O -0.73051(17) 0.64384(11) -0.43085(12)
C24B C -0.52282(17) 0.94777(13) -0.29670(14)
C25B C -0.5117(2) 1.01565(13) -0.35026(15)
H12B H -0.5448 1.0043 -0.4127
H13B H -0.5508 1.0589 -0.3336
H14B H -0.4324 1.0282 -0.3396
C26B C -0.4668(2) 1.02611(16) -0.16277(17)
H15B H -0.5320 1.0509 -0.1519
H16B H -0.4111 1.0154 -0.1066
H17B H -0.4341 1.0597 -0.1981
C27B C -0.5211(2) 0.89156(16) -0.15742(17)
H18B H -0.4507 0.8644 -0.1320
H19B H -0.5499 0.9108 -0.1101
H20B H -0.5759 0.8568 -0.1946
N7B N -0.50164(16) 0.95491(12) -0.21011(12)
O11B O -0.55334(14) 0.88469(9) -0.33280(10)
Zn1B_2 Zn 1.47604(2) -0.180248(14) 1.568933(15)
N3B_2 N -0.63343(15) 0.85044(10) -0.55186(11)
C29 C 0.0746(6) 0.9430(4) 0.7998(4)
C30 C 0.1897(3) 0.9601(2) 0.88441(19)
H22 H 0.1852 0.9310 0.9359
H23 H 0.1941 1.0144 0.8984
H24 H 0.2566 0.9447 0.8680
C31 C 0.1265(3) 0.81387(16) 0.8469(2)
H25 H 0.2081 0.8197 0.8661
H26 H 0.1065 0.7706 0.8066
H27 H 0.0992 0.8050 0.8981
C32 C -0.0478(3) 0.85693(19) 0.7197(2)
H28 H -0.1043 0.8394 0.7473
H29 H -0.0310 0.8161 0.6834
H30 H -0.0763 0.9013 0.6828
N8 N 0.0761(4) 0.88231(19) 0.8024(3)
O12 O 0.0243(2) 0.99722(15) 0.76023(17)
loop_
_geom_bond_atom_site_label_1
_geom_bond_atom_site_label_2
_geom_bond_site_symmetry_1
_geom_bond_site_symmetry_2
Zn1 O1 1_555 1_555
N1 O1 1_555 1_555
O2 N1 1_555 1_555
O3 Zn1 1_555 1_555
N2 O4 1_555 1_555
O4 Zn1 1_555 1_555
O5 N2 1_555 1_555
O6 N2 1_555 1_555
C1 H1 1_555 1_555
C2 C1 1_555 1_555
H2 C2 1_555 1_555
C3 C2 1_555 1_555
C4 C3 1_555 1_555
H3 C4 1_555 1_555
C5 C4 1_555 1_555
H4 C5 1_555 1_555
C6 C9 1_555 1_555
C7 C11 1_555 1_555
C8 H5 1_555 1_555
C9 C8 1_555 1_555
C10 C9 1_555 1_555
C11 C10 1_555 1_555
C12 C11 1_555 1_555
H6 C12 1_555 1_555
C13 H7 1_555 1_555
C14 C13 1_555 1_555
H8 C14 1_555 1_555
C15 C14 1_555 1_555
C16 C15 1_555 1_555
H9 C16 1_555 1_555
C17 C16 1_555 1_555
H10 C17 1_555 1_555
C18 C19 1_555 1_555
C19 C20 1_555 1_555
C20 C21 1_555 1_555
C21 C22 1_555 1_555
C22 N6 1_555 1_555
C23 C21 1_555 1_555
H11 C23 1_555 1_555
N3 Zn1 1_555 1_555
N4 C3 1_555 1_555
N5 Zn1 1_555 1_555
N6 C15 1_555 1_555
O7 C6 1_555 1_555
O8 C7 1_555 1_555
O9 C18 1_555 1_555
O10 C22 1_555 1_555
C24 C25 1_555 1_555
C25 H12 1_555 1_555
H13 C25 1_555 1_555
H14 C25 1_555 1_555
C26 H15 1_555 1_555
H16 C26 1_555 1_555
H17 C26 1_555 1_555
C27 H18 1_555 1_555
H19 C27 1_555 1_555
H20 C27 1_555 1_555
N7 C24 1_555 1_555
O11 Zn1 1_555 1_555
C28 C23 1_555 1_555
H21 C28 1_555 1_555
C29 C30 1_555 1_555
C30 H22 1_555 1_555
H23 C30 1_555 1_555
H24 C30 1_555 1_555
C31 H25 1_555 1_555
H26 C31 1_555 1_555
H27 C31 1_555 1_555
C32 H28 1_555 1_555
H29 C32 1_555 1_555
H30 C32 1_555 1_555
N8 C29 1_555 1_555
O12 C29 1_555 1_555
C1B H1B 1_555 1_555
C2B C1B 1_555 1_555
H2B C2B 1_555 1_555
C3B C2B 1_555 1_555
C4B C3B 1_555 1_555
H3B C4B 1_555 1_555
C5B C4B 1_555 1_555
H4B C5B 1_555 1_555
C6B C9B 1_555 1_555
C7B C11B 1_555 1_555
C8B C12 1_555 1_555
H5B C8B 1_555 1_555
C9B C8B 1_555 1_555
C10B C10 1_555 1_555
C11B C10B 1_555 1_555
C12B C8 1_555 1_555
H6B C12B 1_555 1_555
N3B C1B 1_555 1_555
N4B C3B 1_555 1_555
O7B C6B 1_555 1_555
O8B C7B 1_555 1_555
C13B H7B 1_555 1_555
C14B C13B 1_555 1_555
H8B C14B 1_555 1_555
C15B C14B 1_555 1_555
C16B C15B 1_555 1_555
H9B C16B 1_555 1_555
C17B C16B 1_555 1_555
H10B C17B 1_555 1_555
C18B C19B 1_555 1_555
C19B C28 1_555 1_555
C20B C20 1_555 1_555
C21B C20B 1_555 1_555
C22B C21B 1_555 1_555
C23B C21B 1_555 1_555
H11B C23B 1_555 1_555
N5B C13B 1_555 1_555
N6B C15B 1_555 1_555
O9B C18B 1_555 1_555
O10B C22B 1_555 1_555
C28B C19 1_555 1_555
H21B C28B 1_555 1_555
Zn1B N5B 1_555 1_555
N1B O1B 1_555 1_555
O1B Zn1B 1_555 1_555
O2B N1B 1_555 1_555
O3B Zn1B 1_555 1_555
N2B O4B 1_555 1_555
O4B Zn1B 1_555 1_555
O5B N2B 1_555 1_555
O6B N2B 1_555 1_555
C24B C25B 1_555 1_555
C25B H12B 1_555 1_555
H13B C25B 1_555 1_555
H14B C25B 1_555 1_555
C26B H15B 1_555 1_555
H16B C26B 1_555 1_555
H17B C26B 1_555 1_555
C27B H18B 1_555 1_555
H19B C27B 1_555 1_555
H20B C27B 1_555 1_555
N7B C24B 1_555 1_555
O11B Zn1B 1_555 1_555
Zn1B_2 N3B 1_555 1_555
N3B_2 Zn1B 1_555 1_555
N1 O3 1_555 1_555
C1 N3 1_555 1_555
C5 N3 1_555 1_555
C6 N4 1_555 1_555
C7 N4 1_555 1_555
C13 N5 1_555 1_555
C17 N5 1_555 1_555
C18 N6 1_555 1_555
C24 O11 1_555 1_555
C26 N7 1_555 1_555
C27 N7 1_555 1_555
C31 N8 1_555 1_555
C32 N8 1_555 1_555
C5B N3B 1_555 1_555
C6B N4B 1_555 1_555
C7B N4B 1_555 1_555
C9B C10B 1_555 1_555
C11B C12B 1_555 1_555
C17B N5B 1_555 1_555
C18B N6B 1_555 1_555
C19B C20B 1_555 1_555
C22B N6B 1_555 1_555
C23B C28B 1_555 1_555
N1B O3B 1_555 1_555
C24B O11B 1_555 1_555
C26B N7B 1_555 1_555
C27B N7B 1_555 1_555

#END
