
#######################################################################
#
#                 Cambridge Crystallographic Data Centre
#                                CCDC 
#
#######################################################################
#
# If this CIF has been generated from an entry in the Cambridge 
# Structural Database, then it will include bibliographic, chemical, 
# crystal, experimental, refinement or atomic coordinate data resulting 
# from the CCDC's data processing and validation procedures.
#
#######################################################################

data_HIBSUG01
_symmetry_cell_setting           orthorhombic
_symmetry_space_group_name_H-M   'P b c a'
_symmetry_Int_Tables_number      61
_space_group_name_Hall           '-P 2ac 2ab'
loop_
_symmetry_equiv_pos_site_id
_symmetry_equiv_pos_as_xyz
1 x,y,z
2 1/2-x,-y,1/2+z
3 1/2+x,1/2-y,-z
4 -x,1/2+y,1/2-z
5 -x,-y,-z
6 1/2+x,y,1/2-z
7 1/2-x,1/2+y,z
8 x,1/2-y,1/2+z
_cell_length_a                   11.4466(5)
_cell_length_b                   12.0993(6)
_cell_length_c                   17.4223(8)
_cell_angle_alpha                90
_cell_angle_beta                 90
_cell_angle_gamma                90
_cell_volume                     2412.92
loop_
_atom_site_label
_atom_site_type_symbol
_atom_site_fract_x
_atom_site_fract_y
_atom_site_fract_z
Cd1 Cd 0.1382(1) 0.1003(1) 0.1134(1)
N1 N 0.3385(2) 0.0870(2) 0.1028(1)
O1 O -0.0341(2) 0.0126(1) 0.1363(1)
C1 C 0.0042(2) -0.0735(2) 0.1693(1)
C2 C -0.1872(2) -0.1696(2) 0.1432(1)
C3 C 0.3982(2) 0.1520(2) 0.0544(1)
C4 C -0.0858(2) -0.1612(2) 0.1869(1)
N2 N -0.1522(2) -0.3086(2) 0.2679(1)
O2 O 0.1074(2) -0.0873(2) 0.1876(1)
C5 C 0.5782(2) 0.2148(2) -0.0150(1)
C6 C 0.5775(2) 0.0613(2) 0.0834(1)
C7 C -0.2673(2) -0.2516(2) 0.1605(1)
C8 C -0.0715(2) -0.2335(2) 0.2477(1)
C9 C 0.5167(2) -0.0046(2) 0.1343(1)
C10 C -0.2474(2) -0.3174(2) 0.2235(1)
C11 C 0.5173(2) 0.1412(2) 0.0418(1)
C12 C 0.3976(2) 0.0093(2) 0.1417(1)
O3 O 0.1588(2) -0.0226(2) 0.0073(1)
O4 O 0.6836(2) 0.2003(2) -0.0286(1)
O5 O 0.5178(2) 0.2893(2) -0.0461(1)
H1 H -0.2009 -0.1208 0.1029
H2 H 0.3579 0.2069 0.0279
H3 H 0.6576 0.0523 0.0769
H4 H -0.3333 -0.2620 0.1302
H5 H -0.0027 -0.2299 0.2759
H6 H 0.5556 -0.0577 0.1632
H7 H -0.3028 -0.3707 0.2359
H8 H 0.3568 -0.0369 0.1749
Cd1C Cd -0.1382(1) -0.3997(1) 0.3866(1)
Cd1B Cd 0.6382(1) 0.3997(1) -0.1134(1)
N2C N 0.1522(2) 0.1914(2) 0.2321(1)
O5B O 0.0178(2) 0.2107(2) 0.0461(1)
loop_
_geom_bond_atom_site_label_1
_geom_bond_atom_site_label_2
_geom_bond_site_symmetry_1
_geom_bond_site_symmetry_2
Cd1 N1 1_555 1_555
N1 C3 1_555 1_555
O1 Cd1 1_555 1_555
C1 O1 1_555 1_555
C2 C4 1_555 1_555
C3 C11 1_555 1_555
C4 C1 1_555 1_555
N2 C8 1_555 1_555
O2 Cd1 1_555 1_555
C5 C11 1_555 1_555
C6 C9 1_555 1_555
C7 C2 1_555 1_555
C8 C4 1_555 1_555
C9 C12 1_555 1_555
C10 N2 1_555 1_555
C11 C6 1_555 1_555
C12 N1 1_555 1_555
O3 Cd1 1_555 1_555
O4 C5 1_555 1_555
O5 C5 1_555 1_555
H1 C2 1_555 1_555
H2 C3 1_555 1_555
H3 C6 1_555 1_555
H4 C7 1_555 1_555
H5 C8 1_555 1_555
H6 C9 1_555 1_555
H7 C10 1_555 1_555
H8 C12 1_555 1_555
Cd1C N2 1_555 1_555
Cd1B O5 1_555 1_555
N2C Cd1 1_555 1_555
O5B Cd1 1_555 1_555
C1 O2 1_555 1_555
C7 C10 1_555 1_555

#END
