
#######################################################################
#
#                 Cambridge Crystallographic Data Centre
#                                CCDC 
#
#######################################################################
#
# If this CIF has been generated from an entry in the Cambridge 
# Structural Database, then it will include bibliographic, chemical, 
# crystal, experimental, refinement or atomic coordinate data resulting 
# from the CCDC's data processing and validation procedures.
#
#######################################################################

data_HIBSUG04
_symmetry_cell_setting           orthorhombic
_symmetry_space_group_name_H-M   'P b c a'
_symmetry_Int_Tables_number      61
_space_group_name_Hall           '-P 2ac 2ab'
loop_
_symmetry_equiv_pos_site_id
_symmetry_equiv_pos_as_xyz
1 x,y,z
2 1/2-x,-y,1/2+z
3 1/2+x,1/2-y,-z
4 -x,1/2+y,1/2-z
5 -x,-y,-z
6 1/2+x,y,1/2-z
7 1/2-x,1/2+y,z
8 x,1/2-y,1/2+z
_cell_length_a                   11.4525(5)
_cell_length_b                   12.0473(4)
_cell_length_c                   17.3571(7)
_cell_angle_alpha                90
_cell_angle_beta                 90
_cell_angle_gamma                90
_cell_volume                     2394.79
loop_
_atom_site_label
_atom_site_type_symbol
_atom_site_fract_x
_atom_site_fract_y
_atom_site_fract_z
Cd1 Cd 0.36051(2) 0.59923(2) 0.386650(15)
O1 O 0.5349(2) 0.5124(2) 0.36460(17)
O2 O 0.3923(3) 0.4116(2) 0.31331(19)
O3 O 0.4797(3) 0.7127(2) 0.45301(18)
O4 O 0.3126(2) 0.8010(2) 0.47203(17)
O5 O 0.3410(3) 0.4787(3) 0.49306(19)
H1 H 0.294(6) 0.417(5) 0.480(4)
H2 H 0.377(6) 0.464(6) 0.531(4)
N1 N 0.6533(3) 0.1891(3) 0.23271(19)
N2 N 0.6603(3) 0.9143(3) 0.60332(19)
C1 C 0.4961(4) 0.4258(3) 0.3316(2)
C2 C 0.5865(4) 0.3376(3) 0.3146(2)
C3 C 0.5724(3) 0.2646(3) 0.2533(2)
H3 H 0.5020 0.2681 0.2245
C4 C 0.7488(3) 0.1811(3) 0.2768(2)
H4 H 0.8058 0.1271 0.2636
C5 C 0.7690(3) 0.2475(3) 0.3407(2)
H5 H 0.8364 0.2368 0.3718
C6 C 0.6884(3) 0.3298(3) 0.3582(2)
H6 H 0.7026 0.3801 0.3992
C7 C 0.4189(3) 0.7869(3) 0.4852(2)
C8 C 0.4801(3) 0.8607(3) 0.5423(2)
C9 C 0.5999(3) 0.8497(3) 0.5544(2)
H7 H 0.6408 0.7938 0.5267
C10 C 0.6017(3) 0.9933(3) 0.6422(2)
H8 H 0.6440 1.0413 0.6755
C11 C 0.4820(4) 1.0074(3) 0.6354(2)
H9 H 0.4427 1.0619 0.6652
C12 C 0.4207(3) 0.9408(3) 0.5847(2)
H10 H 0.3388 0.9497 0.5788
Cd1C Cd 0.63949(2) 0.09923(2) 0.113350(15)
Cd1B Cd 0.86051(2) 0.90077(2) 0.613350(15)
N1C N 0.3467(3) 0.6891(3) 0.26729(19)
N2B N 0.1603(3) 0.5857(3) 0.39668(19)
loop_
_geom_bond_atom_site_label_1
_geom_bond_atom_site_label_2
_geom_bond_site_symmetry_1
_geom_bond_site_symmetry_2
Cd1 O1 1_555 1_555
O1 C1 1_555 1_555
O2 Cd1 1_555 1_555
O3 Cd1 1_555 1_555
O4 C7 1_555 1_555
O5 Cd1 1_555 1_555
H1 O5 1_555 1_555
H2 O5 1_555 1_555
N1 C3 1_555 1_555
N2 C9 1_555 1_555
C1 O2 1_555 1_555
C2 C1 1_555 1_555
C3 C2 1_555 1_555
H3 C3 1_555 1_555
C4 N1 1_555 1_555
H4 C4 1_555 1_555
C5 C4 1_555 1_555
H5 C5 1_555 1_555
C6 C2 1_555 1_555
H6 C6 1_555 1_555
C7 O3 1_555 1_555
C8 C7 1_555 1_555
C9 C8 1_555 1_555
H7 C9 1_555 1_555
C10 N2 1_555 1_555
H8 C10 1_555 1_555
C11 C10 1_555 1_555
H9 C11 1_555 1_555
C12 C8 1_555 1_555
H10 C12 1_555 1_555
Cd1C N1 1_555 1_555
Cd1B N2 1_555 1_555
N1C Cd1 1_555 1_555
N2B Cd1 1_555 1_555
C5 C6 1_555 1_555
C11 C12 1_555 1_555

#END
