
#######################################################################
#
#                 Cambridge Crystallographic Data Centre
#                                CCDC 
#
#######################################################################
#
# If this CIF has been generated from an entry in the Cambridge 
# Structural Database, then it will include bibliographic, chemical, 
# crystal, experimental, refinement or atomic coordinate data resulting 
# from the CCDC's data processing and validation procedures.
#
#######################################################################

data_HIBSUG05
_symmetry_cell_setting           orthorhombic
_symmetry_space_group_name_H-M   'P b c a'
_symmetry_Int_Tables_number      61
_space_group_name_Hall           '-P 2ac 2ab'
loop_
_symmetry_equiv_pos_site_id
_symmetry_equiv_pos_as_xyz
1 x,y,z
2 1/2-x,-y,1/2+z
3 1/2+x,1/2-y,-z
4 -x,1/2+y,1/2-z
5 -x,-y,-z
6 1/2+x,y,1/2-z
7 1/2-x,1/2+y,z
8 x,1/2-y,1/2+z
_cell_length_a                   11.449(5)
_cell_length_b                   12.083(5)
_cell_length_c                   17.428(5)
_cell_angle_alpha                90
_cell_angle_beta                 90
_cell_angle_gamma                90
_cell_volume                     2410.96
loop_
_atom_site_label
_atom_site_type_symbol
_atom_site_fract_x
_atom_site_fract_y
_atom_site_fract_z
Cd1 Cd 0.861717(19) 0.100264(18) 0.613328(12)
N1 N 0.8478(2) 0.1916(2) 0.73193(14)
N2 N 0.6617(2) 0.0868(2) 0.60260(14)
C1 C 0.4834(3) -0.0040(3) 0.63401(17)
H1 H 0.4445 -0.0566 0.6634
O1 O 1.1070(2) 0.4125(2) 0.81228(14)
O2 O 0.9665(2) 0.5123(2) 0.86368(13)
O3 O 0.4822(2) 0.2897(2) 0.45358(14)
O4 O 0.8410(2) -0.0235(2) 0.50706(13)
O5 O 0.3165(2) 0.2004(2) 0.47112(14)
C2 C 0.9142(3) 0.3389(3) 0.81317(17)
C3 C 1.0038(3) 0.4262(3) 0.83040(18)
C4 C 0.4828(3) 0.1414(3) 0.54181(17)
C5 C 0.6015(3) 0.1511(3) 0.55462(17)
H2 H 0.6419 0.2058 0.5281
C6 C 0.4228(3) 0.0612(3) 0.58280(18)
H3 H 0.3429 0.0515 0.5758
C7 C 0.7334(3) 0.2486(3) 0.83932(18)
H4 H 0.6676 0.2382 0.8697
C8 C 0.4216(3) 0.2148(3) 0.48503(18)
C9 C 0.7531(3) 0.1831(3) 0.77650(18)
H5 H 0.6976 0.1298 0.7642
C10 C 0.9286(3) 0.2665(3) 0.75243(17)
H6 H 0.9976 0.2698 0.7244
C11 C 0.6015(3) 0.0096(3) 0.64105(17)
H7 H 0.6419 -0.0370 0.6742
C12 C 0.8128(3) 0.3300(3) 0.85656(18)
H8 H 0.7989 0.3787 0.8968
Cd1C Cd 1.138283(19) 0.600264(18) 0.886672(12)
Cd1B Cd 0.361717(19) 0.399736(18) 0.386672(12)
O1C O 0.8930(2) -0.0875(2) 0.68772(14)
O2C O 1.0335(2) 0.0123(2) 0.63632(13)
O3B O 0.9822(2) 0.2103(2) 0.54642(14)
loop_
_geom_bond_atom_site_label_1
_geom_bond_atom_site_label_2
_geom_bond_site_symmetry_1
_geom_bond_site_symmetry_2
Cd1 N1 1_555 1_555
N1 C9 1_555 1_555
N2 Cd1 1_555 1_555
C1 H1 1_555 1_555
O1 C3 1_555 1_555
O2 C3 1_555 1_555
O3 C8 1_555 1_555
O4 Cd1 1_555 1_555
O5 C8 1_555 1_555
C2 C3 1_555 1_555
C4 C5 1_555 1_555
C5 N2 1_555 1_555
H2 C5 1_555 1_555
C6 C1 1_555 1_555
H3 C6 1_555 1_555
C7 H4 1_555 1_555
C8 C4 1_555 1_555
C9 C7 1_555 1_555
H5 C9 1_555 1_555
C10 N1 1_555 1_555
H6 C10 1_555 1_555
C11 N2 1_555 1_555
H7 C11 1_555 1_555
C12 C2 1_555 1_555
H8 C12 1_555 1_555
Cd1C O1 1_555 1_555
Cd1B O3 1_555 1_555
O1C Cd1 1_555 1_555
O2C Cd1 1_555 1_555
O3B Cd1 1_555 1_555
C1 C11 1_555 1_555
O2 Cd1C 1_555 1_555
C2 C10 1_555 1_555
C4 C6 1_555 1_555
C7 C12 1_555 1_555

#END
