
#######################################################################
#
#                 Cambridge Crystallographic Data Centre
#                                CCDC 
#
#######################################################################
#
# If this CIF has been generated from an entry in the Cambridge 
# Structural Database, then it will include bibliographic, chemical, 
# crystal, experimental, refinement or atomic coordinate data resulting 
# from the CCDC's data processing and validation procedures.
#
#######################################################################

data_HIBSUG
_symmetry_cell_setting           orthorhombic
_symmetry_space_group_name_H-M   'P b c a'
_symmetry_Int_Tables_number      61
_space_group_name_Hall           '-P 2ac 2ab'
loop_
_symmetry_equiv_pos_site_id
_symmetry_equiv_pos_as_xyz
1 x,y,z
2 1/2-x,-y,1/2+z
3 1/2+x,1/2-y,-z
4 -x,1/2+y,1/2-z
5 -x,-y,-z
6 1/2+x,y,1/2-z
7 1/2-x,1/2+y,z
8 x,1/2-y,1/2+z
_cell_length_a                   11.453(2)
_cell_length_b                   12.119(2)
_cell_length_c                   17.444(4)
_cell_angle_alpha                90
_cell_angle_beta                 90
_cell_angle_gamma                90
_cell_volume                     2421.21
loop_
_atom_site_label
_atom_site_type_symbol
_atom_site_fract_x
_atom_site_fract_y
_atom_site_fract_z
Cd1 Cd 0.36188(2) 0.60042(2) 0.38655(1)
O1 O 0.5341(2) 0.5126(2) 0.36372(13)
O2 O 0.3926(2) 0.4133(2) 0.31187(14)
N1 N 0.6522(2) 0.1916(2) 0.23220(13)
C1 C 0.4958(3) 0.4266(2) 0.3305(2)
C2 C 0.5857(2) 0.3391(2) 0.31315(15)
C3 C 0.5715(2) 0.2666(2) 0.2525(2)
H1 H 0.5026(2) 0.2700(2) 0.2244(2)
C4 C 0.7472(2) 0.1829(2) 0.2765(2)
H2 H 0.8027(2) 0.1298(2) 0.2641(2)
C5 C 0.7668(2) 0.2484(2) 0.3396(2)
H3 H 0.8326(2) 0.2380(2) 0.3700(2)
C6 C 0.6867(3) 0.3300(2) 0.3568(2)
H4 H 0.7003(3) 0.3784(2) 0.3972(2)
O3 O 0.4822(2) 0.7108(2) 0.45393(13)
O4 O 0.3163(2) 0.7998(2) 0.47115(13)
N2 N 0.6616(2) 0.9129(2) 0.60310(13)
C7 C 0.4217(2) 0.7849(2) 0.4850(2)
C8 C 0.4825(2) 0.8584(2) 0.54206(14)
C9 C 0.6016(2) 0.8478(2) 0.5546(2)
H5 H 0.6419(2) 0.7930(2) 0.5282(2)
C10 C 0.6018(3) 0.9906(2) 0.6415(2)
H6 H 0.6424(3) 1.0372(2) 0.6745(2)
C11 C 0.4838(3) 1.0040(2) 0.6342(2)
H7 H 0.4449(3) 1.0568(2) 0.6633(2)
C12 C 0.4228(2) 0.9383(2) 0.5833(2)
H8 H 0.3428(2) 0.9476(2) 0.5767(2)
O5 O 0.3413(2) 0.4781(2) 0.49228(15)
H9 H 0.3029(40) 0.4225(35) 0.4834(25)
H10 H 0.3875(38) 0.4666(38) 0.5205(26)
N1C N 0.3478(2) 0.6916(2) 0.26780(13)
N2B N 0.1616(2) 0.5871(2) 0.39690(13)
Cd1C Cd 0.63812(2) 0.10042(2) 0.11345(1)
Cd1B Cd 0.86188(2) 0.89958(2) 0.61345(1)
loop_
_geom_bond_atom_site_label_1
_geom_bond_atom_site_label_2
_geom_bond_site_symmetry_1
_geom_bond_site_symmetry_2
Cd1 O1 1_555 1_555
O1 C1 1_555 1_555
O2 Cd1 1_555 1_555
N1 C3 1_555 1_555
C1 O2 1_555 1_555
C2 C1 1_555 1_555
C3 C2 1_555 1_555
H1 C3 1_555 1_555
C4 N1 1_555 1_555
H2 C4 1_555 1_555
C5 C4 1_555 1_555
H3 C5 1_555 1_555
C6 C2 1_555 1_555
H4 C6 1_555 1_555
O3 Cd1 1_555 1_555
O4 Cd1 1_555 1_555
N2 C9 1_555 1_555
C7 O3 1_555 1_555
C8 C7 1_555 1_555
C9 C8 1_555 1_555
H5 C9 1_555 1_555
C10 N2 1_555 1_555
H6 C10 1_555 1_555
C11 C10 1_555 1_555
H7 C11 1_555 1_555
C12 C8 1_555 1_555
H8 C12 1_555 1_555
O5 Cd1 1_555 1_555
H9 O5 1_555 1_555
H10 O5 1_555 1_555
N1C Cd1 1_555 1_555
N2B Cd1 1_555 1_555
Cd1C N1 1_555 1_555
Cd1B N2 1_555 1_555
C5 C6 1_555 1_555
O4 C7 1_555 1_555
C11 C12 1_555 1_555

#END
