
#######################################################################
#
#                 Cambridge Crystallographic Data Centre
#                                CCDC 
#
#######################################################################
#
# If this CIF has been generated from an entry in the Cambridge 
# Structural Database, then it will include bibliographic, chemical, 
# crystal, experimental, refinement or atomic coordinate data resulting 
# from the CCDC's data processing and validation procedures.
#
#######################################################################

data_HIBSUG02
_symmetry_cell_setting           orthorhombic
_symmetry_space_group_name_H-M   'P b c a'
_symmetry_Int_Tables_number      61
_space_group_name_Hall           '-P 2ac 2ab'
loop_
_symmetry_equiv_pos_site_id
_symmetry_equiv_pos_as_xyz
1 x,y,z
2 1/2-x,-y,1/2+z
3 -x,1/2+y,1/2-z
4 1/2+x,1/2-y,-z
5 -x,-y,-z
6 1/2+x,y,1/2-z
7 x,1/2-y,1/2+z
8 1/2-x,1/2+y,z
_cell_length_a                   11.4494(19)
_cell_length_b                   12.0969(6)
_cell_length_c                   17.4073(8)
_cell_angle_alpha                90
_cell_angle_beta                 90
_cell_angle_gamma                90
_cell_volume                     2410.95
loop_
_atom_site_label
_atom_site_type_symbol
_atom_site_fract_x
_atom_site_fract_y
_atom_site_fract_z
Cd1 Cd 0.138297(12) 0.600363(12) 0.386611(8)
N1 N 0.33838(14) 0.58691(13) 0.39713(10)
N2 N 0.15211(15) 0.69134(14) 0.26795(10)
C1 C 0.39792(19) 0.50961(18) 0.35836(13)
C2 C 0.51674(19) 0.49587(19) 0.36569(13)
H1 H 0.5553(18) 0.4475(18) 0.3354(12)
C3 C 0.57677(19) 0.56144(18) 0.41714(13)
H2 H 0.6575(16) 0.5556(16) 0.4256(11)
C4 C 0.51742(17) 0.64125(16) 0.45797(12)
C5 C 0.39865(18) 0.65186(17) 0.44583(12)
H3 H 0.3535(16) 0.7068(16) 0.4718(11)
C6 C 0.57765(19) 0.71502(19) 0.51505(12)
C7 C 0.07215(18) 0.76652(18) 0.24748(13)
H4 H 0.0055(17) 0.7658(17) 0.2762(11)
C8 C 0.26709(19) 0.7487(2) 0.16030(13)
H5 H 0.3353(17) 0.7393(17) 0.1298(11)
C9 C 0.1872(2) 0.82980(19) 0.14339(13)
H6 H 0.1962(17) 0.8746(15) 0.1043(10)
C10 C 0.08574(18) 0.83897(16) 0.18684(12)
C11 C 0.24708(19) 0.68262(19) 0.22374(13)
H7 H 0.3020(17) 0.6241(16) 0.2380(12)
C12 C -0.0037(2) 0.92631(18) 0.16949(13)
O1 O 0.51799(13) 0.78965(13) 0.54599(9)
O2 O 0.03360(13) 1.01206(12) 0.13628(9)
O3 O -0.10730(13) 0.91275(13) 0.18821(10)
O4 O 0.15891(16) 0.47763(15) 0.49246(10)
O5 O 0.68382(13) 0.70067(13) 0.52875(9)
H8 H 0.3518(16) 0.4686(17) 0.3205(12)
H9 H 0.203(2) 0.4189(18) 0.4892(17)
H10 H 0.105(2) 0.455(3) 0.5217(16)
Cd1C Cd 0.638297(12) 0.899637(12) 0.613389(8)
Cd1B Cd -0.138297(12) 1.100363(12) 0.113389(8)
O1C O 0.01799(13) 0.71035(13) 0.45401(9)
O2B O -0.03360(13) 0.51206(12) 0.36372(9)
O3B O 0.10730(13) 0.41275(13) 0.31179(10)
loop_
_geom_bond_atom_site_label_1
_geom_bond_atom_site_label_2
_geom_bond_site_symmetry_1
_geom_bond_site_symmetry_2
Cd1 N1 1_555 1_555
N1 C1 1_555 1_555
N2 Cd1 1_555 1_555
C1 C2 1_555 1_555
C2 H1 1_555 1_555
C3 C2 1_555 1_555
H2 C3 1_555 1_555
C4 C3 1_555 1_555
C5 N1 1_555 1_555
H3 C5 1_555 1_555
C6 C4 1_555 1_555
C7 N2 1_555 1_555
H4 C7 1_555 1_555
C8 H5 1_555 1_555
C9 C8 1_555 1_555
H6 C9 1_555 1_555
C10 C7 1_555 1_555
C11 N2 1_555 1_555
H7 C11 1_555 1_555
C12 C10 1_555 1_555
O1 C6 1_555 1_555
O2 C12 1_555 1_555
O3 C12 1_555 1_555
O4 Cd1 1_555 1_555
O5 C6 1_555 1_555
H8 C1 1_555 1_555
H9 O4 1_555 1_555
H10 O4 1_555 1_555
Cd1C O1 1_555 1_555
Cd1B O2 1_555 1_555
O1C Cd1 1_555 1_555
O2B Cd1 1_555 1_555
O3B Cd1 1_555 1_555
C4 C5 1_555 1_555
C8 C11 1_555 1_555
C9 C10 1_555 1_555
O3 Cd1B 1_555 1_555

#END
