
#######################################################################
#
#                 Cambridge Crystallographic Data Centre
#                                CCDC 
#
#######################################################################
#
# If this CIF has been generated from an entry in the Cambridge 
# Structural Database, then it will include bibliographic, chemical, 
# crystal, experimental, refinement or atomic coordinate data resulting 
# from the CCDC's data processing and validation procedures.
#
#######################################################################

data_HIBSUG03
_symmetry_cell_setting           orthorhombic
_symmetry_space_group_name_H-M   'P b c a'
_symmetry_Int_Tables_number      61
_space_group_name_Hall           '-P 2ac 2ab'
loop_
_symmetry_equiv_pos_site_id
_symmetry_equiv_pos_as_xyz
1 x,y,z
2 1/2-x,-y,1/2+z
3 -x,1/2+y,1/2-z
4 1/2+x,1/2-y,-z
5 -x,-y,-z
6 1/2+x,y,1/2-z
7 x,1/2-y,1/2+z
8 1/2-x,1/2+y,z
_cell_length_a                   11.4771(8)
_cell_length_b                   12.0963(9)
_cell_length_c                   17.4692(12)
_cell_angle_alpha                90
_cell_angle_beta                 90
_cell_angle_gamma                90
_cell_volume                     2425.26
loop_
_atom_site_label
_atom_site_type_symbol
_atom_site_fract_x
_atom_site_fract_y
_atom_site_fract_z
Cd1 Cd 0.138527(13) 0.899800(12) 0.113173(9)
O1 O 0.15906(14) 1.02266(15) 0.00735(10)
O2 O -0.03321(15) 0.98787(13) 0.13632(10)
O3 O 0.10758(16) 1.08800(14) 0.18785(11)
O4 O 0.01751(15) 0.78995(14) 0.04604(10)
O5 O 0.18302(14) 0.70112(14) 0.02858(10)
N1 N -0.16145(16) 0.58686(14) -0.10285(11)
N2 N -0.15242(15) 1.30903(15) 0.26809(11)
C1 C -0.1020(2) 0.50916(18) -0.14162(13)
C2 C 0.0169(2) 0.49555(19) -0.13429(13)
C3 C 0.07723(19) 0.56170(19) -0.08338(13)
C4 C -0.10128(18) 0.65166(17) -0.05432(13)
C5 C -0.24776(19) 1.3173(2) 0.22375(13)
C6 C -0.26702(19) 1.2513(2) 0.16046(14)
C7 C -0.07161(19) 1.23367(17) 0.24759(13)
C8 C 0.0045(2) 1.07381(18) 0.16943(13)
C9 C -0.08574(19) 1.16140(16) 0.18683(12)
C10 C -0.1871(2) 1.16982(19) 0.14335(13)
C11 C 0.07754(19) 0.71534(18) 0.01498(12)
C12 C 0.01732(18) 0.64135(16) -0.04197(12)
H1 H 0.1964 1.0863 0.0159
H2 H 0.1111 1.0276 -0.0321
H3 H -0.1494 0.4595 -0.1744
H4 H 0.0609 0.4375 -0.1635
H5 H 0.1608 0.5563 -0.0792
H6 H -0.1422 0.7041 -0.0284
H7 H -0.2992 1.3713 0.2385
H8 H -0.3396 1.2566 0.1310
H9 H 0.0002 1.2338 0.2783
H10 H -0.1976 1.1215 0.1013
Cd1C Cd -0.361473(13) 0.600200(12) -0.113173(9)
Cd1B Cd -0.138527(13) 1.399800(12) 0.386827(9)
N1C N 0.33855(16) 0.91314(14) 0.10285(11)
N2B N 0.15242(15) 0.80903(15) 0.23191(11)
loop_
_geom_bond_atom_site_label_1
_geom_bond_atom_site_label_2
_geom_bond_site_symmetry_1
_geom_bond_site_symmetry_2
Cd1 O1 1_555 1_555
O1 H1 1_555 1_555
O2 Cd1 1_555 1_555
O3 Cd1 1_555 1_555
O4 Cd1 1_555 1_555
O5 C11 1_555 1_555
N1 C1 1_555 1_555
N2 C5 1_555 1_555
C1 C2 1_555 1_555
C2 C3 1_555 1_555
C3 C12 1_555 1_555
C4 N1 1_555 1_555
C5 C6 1_555 1_555
C6 C10 1_555 1_555
C7 N2 1_555 1_555
C8 O2 1_555 1_555
C9 C7 1_555 1_555
C10 C9 1_555 1_555
C11 O4 1_555 1_555
C12 C4 1_555 1_555
H2 O1 1_555 1_555
H3 C1 1_555 1_555
H4 C2 1_555 1_555
H5 C3 1_555 1_555
H6 C4 1_555 1_555
H7 C5 1_555 1_555
H8 C6 1_555 1_555
H9 C7 1_555 1_555
H10 C10 1_555 1_555
Cd1C N1 1_555 1_555
Cd1B N2 1_555 1_555
N1C Cd1 1_555 1_555
N2B Cd1 1_555 1_555
O3 C8 1_555 1_555
C8 C9 1_555 1_555
C11 C12 1_555 1_555

#END
