
#######################################################################
#
#                 Cambridge Crystallographic Data Centre
#                                CCDC 
#
#######################################################################
#
# If this CIF has been generated from an entry in the Cambridge 
# Structural Database, then it will include bibliographic, chemical, 
# crystal, experimental, refinement or atomic coordinate data resulting 
# from the CCDC's data processing and validation procedures.
#
#######################################################################

data_HIBSES
_symmetry_cell_setting           monoclinic
_symmetry_space_group_name_H-M   'C 2/c'
_symmetry_Int_Tables_number      15
_space_group_name_Hall           '-C 2yn'
loop_
_symmetry_equiv_pos_site_id
_symmetry_equiv_pos_as_xyz
1 x,y,z
2 -x,y,1/2-z
3 1/2+x,1/2+y,z
4 1/2-x,1/2+y,1/2-z
5 -x,-y,-z
6 x,-y,1/2+z
7 1/2-x,1/2-y,-z
8 1/2+x,1/2-y,1/2+z
_cell_length_a                   18.3527(11)
_cell_length_b                   26.9955(16)
_cell_length_c                   17.5813(11)
_cell_angle_alpha                90
_cell_angle_beta                 106.4820(10)
_cell_angle_gamma                90
_cell_volume                     8352.56
loop_
_atom_site_label
_atom_site_type_symbol
_atom_site_fract_x
_atom_site_fract_y
_atom_site_fract_z
N1 N 0.1832(4) 0.0157(2) 1.2180(3)
O1 O 0.09640(18) 0.00261(10) 1.1000(2)
Zn1 Zn 0.0000 0.0000 1.0000
C1 C 0.1341(3) 0.04982(19) 0.9566(3)
H1 H 0.1626 0.0254 0.9916
C2 C 0.1727(3) 0.0828(2) 0.9219(3)
H2 H 0.2264 0.0814 0.9326
C3 C 0.1304(3) 0.11778(17) 0.8711(3)
C4 C 0.0530(3) 0.11945(17) 0.8562(3)
H3 H 0.0236 0.1433 0.8208
C5 C 0.0192(3) 0.08556(16) 0.8942(3)
H4 H -0.0343 0.0868 0.8853
C6 C 0.1781(3) 0.13911(19) 0.7598(3)
C7 C 0.2198(3) 0.17405(16) 0.7233(3)
C8 C 0.2483(3) 0.21873(17) 0.7625(3)
C9 C 0.2383(3) 0.23033(18) 0.8369(3)
C10 C 0.1972(3) 0.19539(19) 0.8752(3)
C11 C 0.2669(4) 0.2733(2) 0.8745(3)
H5 H 0.2621 0.2801 0.9258
C12 C 0.3034(3) 0.3076(2) 0.8376(3)
H6 H 0.3220 0.3378 0.8635
C13 C 0.3122(3) 0.29754(17) 0.7643(3)
C14 C 0.2859(3) 0.25274(16) 0.7261(3)
C15 C 0.2961(3) 0.24096(17) 0.6518(3)
C16 C 0.2714(3) 0.19641(19) 0.6158(3)
H7 H 0.2808 0.1882 0.5668
C17 C 0.2323(4) 0.16301(19) 0.6512(3)
H8 H 0.2142 0.1326 0.6255
C18 C 0.3338(3) 0.27708(18) 0.6116(3)
C19 C 0.3472(3) 0.33517(18) 0.7241(3)
C20 C 0.3869(3) 0.35918(16) 0.6097(3)
C21 C 0.3411(3) 0.38851(17) 0.5525(3)
H9 H 0.2876 0.3842 0.5361
C22 C 0.4642(3) 0.36515(17) 0.6302(3)
H10 H 0.4970 0.3440 0.6680
C23 C 0.4930(3) 0.40309(17) 0.5939(3)
H11 H 0.5466 0.4073 0.6079
C24 C 0.3761(3) 0.42490(18) 0.5192(3)
H12 H 0.3446 0.4447 0.4782
N2 N 0.0596(2) 0.05060(13) 0.9436(2)
N3 N 0.1684(2) 0.15270(13) 0.8325(2)
N4 N 0.3533(2) 0.32256(13) 0.6488(2)
N5 N 0.4499(2) 0.43402(13) 0.5405(2)
O2 O 0.1516(2) 0.10044(13) 0.7291(2)
O3 O 0.1863(3) 0.20274(14) 0.9385(2)
O4 O 0.3693(2) 0.37511(13) 0.7534(2)
O5 O 0.3465(2) 0.26917(12) 0.5492(2)
C25 C 0.1178(4) 0.0060(2) 1.1737(5)
C26 C 0.0658(8) 0.0075(3) 1.2302(9)
H13 H 0.0125 0.0050 1.1988
H14 H 0.0738 0.0387 1.2598
H15 H 0.0785 -0.0204 1.2674
C27 C 0.2073(5) 0.0179(3) 1.3022(4)
H16 H 0.1635 0.0132 1.3228
H17 H 0.2304 0.0503 1.3192
H18 H 0.2448 -0.0083 1.3227
C28 C 0.2435(6) 0.0234(6) 1.1783(7)
H19 H 0.2307 0.0051 1.1281
H20 H 0.2920 0.0114 1.2128
H21 H 0.2476 0.0588 1.1678
N1D N -0.1832(4) -0.0157(2) 0.7820(3)
O1D O -0.09640(18) -0.00261(10) 0.9000(2)
C1D C -0.1341(3) -0.04982(19) 1.0434(3)
H1D H -0.1626 -0.0254 1.0084
C2D C -0.1727(3) -0.0828(2) 1.0781(3)
H2D H -0.2264 -0.0814 1.0674
C3D C -0.1304(3) -0.11778(17) 1.1289(3)
C4D C -0.0530(3) -0.11945(17) 1.1438(3)
H3D H -0.0236 -0.1433 1.1792
C5D C -0.0192(3) -0.08556(16) 1.1058(3)
H4D H 0.0343 -0.0868 1.1147
C6D C -0.1781(3) -0.13911(19) 1.2402(3)
C7D C -0.2198(3) -0.17405(16) 1.2767(3)
C8D C -0.2483(3) -0.21873(17) 1.2375(3)
C9D C -0.2383(3) -0.23033(18) 1.1631(3)
C10D C -0.1972(3) -0.19539(19) 1.1248(3)
C11D C -0.2669(4) -0.2733(2) 1.1255(3)
H5D H -0.2621 -0.2801 1.0742
C12D C -0.3034(3) -0.3076(2) 1.1624(3)
H6D H -0.3220 -0.3378 1.1365
C13D C -0.3122(3) -0.29754(17) 1.2357(3)
C14D C -0.2859(3) -0.25274(16) 1.2739(3)
C15D C -0.2961(3) -0.24096(17) 1.3482(3)
C16D C -0.2714(3) -0.19641(19) 1.3842(3)
H7D H -0.2808 -0.1882 1.4332
C17D C -0.2323(4) -0.16301(19) 1.3488(3)
H8D H -0.2142 -0.1326 1.3745
C18D C -0.3338(3) -0.27708(18) 1.3884(3)
C19D C -0.3472(3) -0.33517(18) 1.2759(3)
C20D C -0.3869(3) -0.35918(16) 1.3903(3)
C21D C -0.3411(3) -0.38851(17) 1.4475(3)
H9D H -0.2876 -0.3842 1.4639
C22D C -0.4642(3) -0.36515(17) 1.3698(3)
H10D H -0.4970 -0.3440 1.3320
C23D C -0.4930(3) -0.40309(17) 1.4061(3)
H11D H -0.5466 -0.4073 1.3921
C24D C -0.3761(3) -0.42490(18) 1.4808(3)
H12D H -0.3446 -0.4447 1.5218
N2D N -0.0596(2) -0.05060(13) 1.0564(2)
N3D N -0.1684(2) -0.15270(13) 1.1675(2)
N4D N -0.3533(2) -0.32256(13) 1.3512(2)
N5D N -0.4499(2) -0.43402(13) 1.4595(2)
O2D O -0.1516(2) -0.10044(13) 1.2709(2)
O3D O -0.1863(3) -0.20274(14) 1.0615(2)
O4D O -0.3693(2) -0.37511(13) 1.2466(2)
O5D O -0.3465(2) -0.26917(12) 1.4508(2)
C25D C -0.1178(4) -0.0060(2) 0.8263(5)
C26D C -0.0658(8) -0.0075(3) 0.7698(9)
H13D H -0.0125 -0.0050 0.8012
H14D H -0.0738 -0.0387 0.7402
H15D H -0.0785 0.0204 0.7326
C27D C -0.2073(5) -0.0179(3) 0.6978(4)
H16D H -0.1635 -0.0132 0.6772
H17D H -0.2304 -0.0503 0.6808
H18D H -0.2448 0.0083 0.6773
C28D C -0.2435(6) -0.0234(6) 0.8217(7)
H19D H -0.2307 -0.0051 0.8719
H20D H -0.2920 -0.0114 0.7872
H21D H -0.2476 -0.0588 0.8322
Zn1C Zn -0.5000 -0.5000 1.5000
Zn1C_2 Zn 0.5000 0.5000 0.5000
N5C N 0.0501(2) -0.06598(13) 0.9595(2)
N5G N -0.0501(2) 0.06598(13) 1.0405(2)
Cl1 Cl 0.15689(13) 0.45201(10) 0.4612(2)
O6 O 0.1430(8) 0.4229(5) 0.5236(8)
O7 O 0.1895(5) 0.4224(4) 0.4186(5)
O8 O 0.0918(4) 0.4711(3) 0.4150(7)
O9 O 0.2086(3) 0.4877(2) 0.4983(4)
loop_
_geom_bond_atom_site_label_1
_geom_bond_atom_site_label_2
_geom_bond_site_symmetry_1
_geom_bond_site_symmetry_2
N1 C25 1_555 1_555
O1 Zn1 1_555 1_555
Zn1 N2 1_555 1_555
C1 H1 1_555 1_555
C2 C1 1_555 1_555
H2 C2 1_555 1_555
C3 C2 1_555 1_555
C4 C3 1_555 1_555
H3 C4 1_555 1_555
C5 C4 1_555 1_555
H4 C5 1_555 1_555
C6 C7 1_555 1_555
C7 C8 1_555 1_555
C8 C9 1_555 1_555
C9 C10 1_555 1_555
C10 N3 1_555 1_555
C11 C9 1_555 1_555
H5 C11 1_555 1_555
C12 C11 1_555 1_555
H6 C12 1_555 1_555
C13 C12 1_555 1_555
C14 C8 1_555 1_555
C15 C14 1_555 1_555
C16 C15 1_555 1_555
H7 C16 1_555 1_555
C17 C7 1_555 1_555
H8 C17 1_555 1_555
C18 C15 1_555 1_555
C19 C13 1_555 1_555
C20 C21 1_555 1_555
C21 H9 1_555 1_555
C22 C20 1_555 1_555
H10 C22 1_555 1_555
C23 C22 1_555 1_555
H11 C23 1_555 1_555
C24 C21 1_555 1_555
H12 C24 1_555 1_555
N2 C1 1_555 1_555
N3 C3 1_555 1_555
N4 C18 1_555 1_555
N5 C23 1_555 1_555
O2 C6 1_555 1_555
O3 C10 1_555 1_555
O4 C19 1_555 1_555
O5 C18 1_555 1_555
C25 O1 1_555 1_555
C26 C25 1_555 1_555
H13 C26 1_555 1_555
H14 C26 1_555 1_555
H15 C26 1_555 1_555
C27 N1 1_555 1_555
H16 C27 1_555 1_555
H17 C27 1_555 1_555
H18 C27 1_555 1_555
C28 N1 1_555 1_555
H19 C28 1_555 1_555
H20 C28 1_555 1_555
H21 C28 1_555 1_555
Cl1 O6 1_555 1_555
O7 Cl1 1_555 1_555
O8 Cl1 1_555 1_555
O9 Cl1 1_555 1_555
N1D C25D 1_555 1_555
O1D Zn1 1_555 1_555
C1D H1D 1_555 1_555
C2D C1D 1_555 1_555
H2D C2D 1_555 1_555
C3D C2D 1_555 1_555
C4D C3D 1_555 1_555
H3D C4D 1_555 1_555
C5D C4D 1_555 1_555
H4D C5D 1_555 1_555
C6D C7D 1_555 1_555
C7D C8D 1_555 1_555
C8D C9D 1_555 1_555
C9D C10D 1_555 1_555
C10D N3D 1_555 1_555
C11D C9D 1_555 1_555
H5D C11D 1_555 1_555
C12D C11D 1_555 1_555
H6D C12D 1_555 1_555
C13D C12D 1_555 1_555
C14D C8D 1_555 1_555
C15D C14D 1_555 1_555
C16D C15D 1_555 1_555
H7D C16D 1_555 1_555
C17D C7D 1_555 1_555
H8D C17D 1_555 1_555
C18D C15D 1_555 1_555
C19D C13D 1_555 1_555
C20D C21D 1_555 1_555
C21D H9D 1_555 1_555
C22D C20D 1_555 1_555
H10D C22D 1_555 1_555
C23D C22D 1_555 1_555
H11D C23D 1_555 1_555
C24D C21D 1_555 1_555
H12D C24D 1_555 1_555
N2D Zn1 1_555 1_555
N3D C3D 1_555 1_555
N4D C18D 1_555 1_555
N5D C23D 1_555 1_555
O2D C6D 1_555 1_555
O3D C10D 1_555 1_555
O4D C19D 1_555 1_555
O5D C18D 1_555 1_555
C25D O1D 1_555 1_555
C26D C25D 1_555 1_555
H13D C26D 1_555 1_555
H14D C26D 1_555 1_555
H15D C26D 1_555 1_555
C27D N1D 1_555 1_555
H16D C27D 1_555 1_555
H17D C27D 1_555 1_555
H18D C27D 1_555 1_555
C28D N1D 1_555 1_555
H19D C28D 1_555 1_555
H20D C28D 1_555 1_555
H21D C28D 1_555 1_555
Zn1C N5D 1_555 1_555
Zn1C_2 N5 1_555 1_555
N5C Zn1 1_555 1_555
N5G Zn1 1_555 1_555
C5 N2 1_555 1_555
C6 N3 1_555 1_555
C13 C14 1_555 1_555
C16 C17 1_555 1_555
C19 N4 1_555 1_555
C20 N4 1_555 1_555
C24 N5 1_555 1_555
C1D N2D 1_555 1_555
C5D N2D 1_555 1_555
C6D N3D 1_555 1_555
C13D C14D 1_555 1_555
C16D C17D 1_555 1_555
C19D N4D 1_555 1_555
C20D N4D 1_555 1_555
C24D N5D 1_555 1_555

#END
