
#######################################################################
#
#                 Cambridge Crystallographic Data Centre
#                                CCDC 
#
#######################################################################
#
# If this CIF has been generated from an entry in the Cambridge 
# Structural Database, then it will include bibliographic, chemical, 
# crystal, experimental, refinement or atomic coordinate data resulting 
# from the CCDC's data processing and validation procedures.
#
#######################################################################

data_HIBTOB
_symmetry_cell_setting           monoclinic
_symmetry_space_group_name_H-M   'P 21'
_symmetry_Int_Tables_number      4
_space_group_name_Hall           'P 2yb'
loop_
_symmetry_equiv_pos_site_id
_symmetry_equiv_pos_as_xyz
1 x,y,z
2 -x,1/2+y,-z
_cell_length_a                   9.609(5)
_cell_length_b                   5.648(3)
_cell_length_c                   10.491(5)
_cell_angle_alpha                90
_cell_angle_beta                 91.63(4)
_cell_angle_gamma                90
_cell_volume                     569.133
loop_
_atom_site_label
_atom_site_type_symbol
_atom_site_fract_x
_atom_site_fract_y
_atom_site_fract_z
Zn1 Zn 0.9411(1) 0.0000 0.1929(1)
O1 O 0.9046(4) -0.2379(7) 0.3395(3)
O2 O 0.8329(5) -0.2522(10) 0.5383(3)
O3 O 1.0008(3) 0.2513(6) 0.0506(2)
O4 O 1.1840(3) 0.3411(6) -0.0641(2)
N1 N 0.8368(4) 0.2287(7) 0.3091(3)
N2 N 1.1544(3) -0.0080(9) 0.2226(2)
C1 C 0.8518(5) -0.1479(9) 0.4387(4)
C2 C 0.8094(5) 0.1101(10) 0.4325(4)
C3 C 0.6520(5) 0.1323(14) 0.4500(5)
C4 C 0.6050(5) 0.3295(13) 0.3635(5)
C5 C 0.7010(5) 0.3066(11) 0.2539(4)
C6 C 1.1276(4) 0.2517(7) 0.0320(3)
C7 C 1.2270(4) 0.1518(8) 0.1352(3)
C8 C 1.3508(4) 0.0170(16) 0.0847(4)
C9 C 1.3659(5) -0.1982(11) 0.1720(4)
C10 C 1.2160(4) -0.2459(9) 0.2079(4)
H1 H 0.8644 0.1852 0.4958
H2 H 0.6327 0.1698 0.5370
H3 H 0.6059 -0.0127 0.4265
H4 H 0.6157 0.4804 0.4047
H5 H 0.5096 0.3088 0.3359
H6 H 0.7107 0.4564 0.2119
H7 H 0.6656 0.1915 0.1940
H8 H 1.2611 0.2609 0.1712
H9 H 1.4360 0.0871 0.0758
H10 H 1.3296 -0.0357 0.0124
H11 H 1.4114 -0.1439 0.2529
H12 H 1.3975 -0.3412 0.1344
H13 H 1.1822 -0.3435 0.2810
H14 H 1.1515 -0.3287 0.1493
O4A O 0.8160(3) -0.1589(6) 0.0641(2)
Zn1A Zn 1.0589(1) 0.5000 -0.1929(1)
loop_
_geom_bond_atom_site_label_1
_geom_bond_atom_site_label_2
_geom_bond_site_symmetry_1
_geom_bond_site_symmetry_2
Zn1 O1 1_555 1_555
O1 C1 1_555 1_555
O2 C1 1_555 1_555
O3 Zn1 1_555 1_555
O4 C6 1_555 1_555
N1 Zn1 1_555 1_555
N2 Zn1 1_555 1_555
C1 C2 1_555 1_555
C2 N1 1_555 1_555
C3 C2 1_555 1_555
C4 C3 1_555 1_555
C5 N1 1_555 1_555
C6 O3 1_555 1_555
C7 N2 1_555 1_555
C8 C7 1_555 1_555
C9 C8 1_555 1_555
C10 N2 1_555 1_555
H1 C2 1_555 1_555
H2 C3 1_555 1_555
H3 C3 1_555 1_555
H4 C4 1_555 1_555
H5 C4 1_555 1_555
H6 C5 1_555 1_555
H7 C5 1_555 1_555
H8 C7 1_555 1_555
H9 C8 1_555 1_555
H10 C8 1_555 1_555
H11 C9 1_555 1_555
H12 C9 1_555 1_555
H13 C10 1_555 1_555
H14 C10 1_555 1_555
O4A Zn1 1_555 1_555
Zn1A O4 1_555 1_555
C4 C5 1_555 1_555
C6 C7 1_555 1_555
C9 C10 1_555 1_555

#END
