
#######################################################################
#
#                 Cambridge Crystallographic Data Centre
#                                CCDC 
#
#######################################################################
#
# If this CIF has been generated from an entry in the Cambridge 
# Structural Database, then it will include bibliographic, chemical, 
# crystal, experimental, refinement or atomic coordinate data resulting 
# from the CCDC's data processing and validation procedures.
#
#######################################################################

data_HICBOL
_symmetry_cell_setting           monoclinic
_symmetry_space_group_name_H-M   'C 2/c'
_symmetry_Int_Tables_number      15
_space_group_name_Hall           '-C 2yn'
loop_
_symmetry_equiv_pos_site_id
_symmetry_equiv_pos_as_xyz
1 x,y,z
2 1/2+x,1/2+y,z
3 -x,y,1/2-z
4 1/2-x,1/2+y,1/2-z
5 -x,-y,-z
6 1/2-x,1/2-y,-z
7 x,-y,1/2+z
8 1/2+x,1/2-y,1/2+z
_cell_length_a                   25.8906(9)
_cell_length_b                   8.3885(3)
_cell_length_c                   20.8558(7)
_cell_angle_alpha                90
_cell_angle_beta                 121.9000(10)
_cell_angle_gamma                90
_cell_volume                     3845.44
loop_
_atom_site_label
_atom_site_type_symbol
_atom_site_fract_x
_atom_site_fract_y
_atom_site_fract_z
Cl1 Cl 0.294032(15) 0.74747(4) 0.394636(19)
C1 C 0.37012(5) 0.42933(15) 0.66813(7)
C2 C 0.39620(6) 0.34104(16) 0.73400(7)
H1 H 0.4384 0.3554 0.7694
N1 N 0.36621(5) 0.23594(14) 0.75184(7)
C3 C 0.27416(5) 0.31485(15) 0.63735(7)
C4 C 0.30652(6) 0.22563(16) 0.70437(7)
H2 H 0.2844 0.1540 0.7163
C5 C 0.20827(5) 0.30016(15) 0.58828(7)
N2 N 0.17817(5) 0.35882(13) 0.52002(6)
C6 C 0.20973(5) 0.44463(15) 0.49474(7)
C7 C 0.17480(6) 0.50402(16) 0.42048(7)
H3 H 0.1326 0.4805 0.3908
C8 C 0.20083(6) 0.59528(16) 0.39046(7)
H4 H 0.1770 0.6345 0.3402
C9 C 0.26270(6) 0.62972(15) 0.43459(7)
C10 C 0.29862(6) 0.57521(15) 0.50773(7)
H5 H 0.3407 0.6012 0.5366
C11 C 0.27271(5) 0.48068(14) 0.53960(7)
C12 C 0.30663(5) 0.41247(14) 0.61519(7)
C13 C 0.41324(5) 0.54469(16) 0.66281(7)
O1 O 0.41597(4) 0.68126(12) 0.68777(6)
O2 O 0.44413(4) 0.49330(12) 0.63654(6)
N3 N 0.17704(5) 0.21412(13) 0.61454(6)
C14 C 0.17889(6) 0.27782(16) 0.68187(7)
H6 H 0.1528 0.3738 0.6681
H7 H 0.2211 0.3083 0.7209
C15 C 0.15618(6) 0.14996(18) 0.71233(8)
H8 H 0.1824 0.0544 0.7260
H9 H 0.1584 0.1894 0.7585
O3 O 0.09484(4) 0.10808(13) 0.65715(6)
C16 C 0.09175(6) 0.04667(18) 0.59133(8)
H10 H 0.0492 0.0175 0.5533
H11 H 0.1169 -0.0510 0.6048
C17 C 0.11421(6) 0.16807(18) 0.55742(7)
H12 H 0.1128 0.1216 0.5129
H13 H 0.0876 0.2633 0.5407
K1 K 0.509324(13) 0.78474(4) 0.664169(16)
O5 O 0.55400(5) 1.06688(15) 0.61224(7)
H16 H 0.5209(7) 1.103(3) 0.6029(13)
H17 H 0.5797(8) 1.122(3) 0.6487(11)
O6 O 0.43760(7) 0.8680(2) 0.51573(8)
H18 H 0.4471(13) 0.878(4) 0.4831(14)
H19 H 0.4001(8) 0.857(6) 0.4924(19)
O7 O 0.5000 1.02444(19) 0.7500
H20 H 0.4819(11) 1.082(3) 0.7115(11)
Cl1B Cl 0.705968(15) 0.74747(4) 1.105364(19)
C1B C 0.62988(5) 0.42933(15) 0.83187(7)
C2B C 0.60380(6) 0.34104(16) 0.76600(7)
H1B H 0.5616 0.3554 0.7306
N1B N 0.63379(5) 0.23594(14) 0.74816(7)
C3B C 0.72584(5) 0.31485(15) 0.86265(7)
C4B C 0.69348(6) 0.22563(16) 0.79563(7)
H2B H 0.7156 0.1540 0.7837
C5B C 0.79173(5) 0.30016(15) 0.91172(7)
N2B N 0.82183(5) 0.35882(13) 0.97998(6)
C6B C 0.79027(5) 0.44463(15) 1.00526(7)
C7B C 0.82520(6) 0.50402(16) 1.07952(7)
H3B H 0.8674 0.4805 1.1092
C8B C 0.79917(6) 0.59528(16) 1.10954(7)
H4B H 0.8230 0.6345 1.1598
C9B C 0.73730(6) 0.62972(15) 1.06541(7)
C10B C 0.70138(6) 0.57521(15) 0.99227(7)
H5B H 0.6593 0.6012 0.9634
C11B C 0.72729(5) 0.48068(14) 0.96040(7)
C12B C 0.69337(5) 0.41247(14) 0.88481(7)
C13B C 0.58676(5) 0.54469(16) 0.83719(7)
O1B O 0.58403(4) 0.68126(12) 0.81223(6)
O2B O 0.55587(4) 0.49330(12) 0.86346(6)
N3B N 0.82296(5) 0.21412(13) 0.88546(6)
C14B C 0.82111(6) 0.27782(16) 0.81813(7)
H6B H 0.8472 0.3738 0.8319
H7B H 0.7789 0.3083 0.7791
C15B C 0.84382(6) 0.14996(18) 0.78767(8)
H8B H 0.8176 0.0544 0.7740
H9B H 0.8416 0.1894 0.7415
O3B O 0.90516(4) 0.10808(13) 0.84285(6)
O3A O 0.59484(4) 0.60808(13) 0.65715(6)
O3C O 0.40516(4) 0.60808(13) 0.84285(6)
C16B C 0.90825(6) 0.04667(18) 0.90867(8)
H10B H 0.9508 0.0175 0.9467
H11B H 0.8831 -0.0510 0.8952
C17B C 0.88579(6) 0.16807(18) 0.94258(7)
H12B H 0.8872 0.1216 0.9871
H13B H 0.9124 0.2633 0.9593
K1B K 0.490676(13) 0.78474(4) 0.835831(16)
K1A K 0.009324(13) 0.28474(4) 0.664169(16)
K1C K 0.990676(13) 0.28474(4) 0.835831(16)
O5B O 0.44600(5) 1.06688(15) 0.88776(7)
H16B H 0.4791(7) 1.103(3) 0.8971(13)
H17B H 0.4203(8) 1.122(3) 0.8513(11)
O6B O 0.56240(7) 0.8680(2) 0.98427(8)
H18B H 0.5529(13) 0.878(4) 1.0169(14)
H19B H 0.5999(8) 0.857(6) 1.0076(19)
H20B H 0.5181(11) 1.082(3) 0.7885(11)
O4 O 0.45148(5) 0.18538(13) 0.61253(6)
H14 H 0.4505(10) 0.2822(18) 0.6216(12)
H15 H 0.4186(8) 0.172(3) 0.5716(10)
loop_
_geom_bond_atom_site_label_1
_geom_bond_atom_site_label_2
_geom_bond_site_symmetry_1
_geom_bond_site_symmetry_2
Cl1 C9 1_555 1_555
C1 C2 1_555 1_555
C2 H1 1_555 1_555
N1 C2 1_555 1_555
C3 C4 1_555 1_555
C4 N1 1_555 1_555
H2 C4 1_555 1_555
C5 C3 1_555 1_555
N2 C5 1_555 1_555
C6 N2 1_555 1_555
C7 C6 1_555 1_555
H3 C7 1_555 1_555
C8 C7 1_555 1_555
H4 C8 1_555 1_555
C9 C8 1_555 1_555
C10 C9 1_555 1_555
H5 C10 1_555 1_555
C11 C6 1_555 1_555
C12 C1 1_555 1_555
C13 C1 1_555 1_555
O1 C13 1_555 1_555
O2 C13 1_555 1_555
N3 C5 1_555 1_555
C14 N3 1_555 1_555
H6 C14 1_555 1_555
H7 C14 1_555 1_555
C15 C14 1_555 1_555
H8 C15 1_555 1_555
H9 C15 1_555 1_555
O3 C15 1_555 1_555
C16 O3 1_555 1_555
H10 C16 1_555 1_555
H11 C16 1_555 1_555
C17 N3 1_555 1_555
H12 C17 1_555 1_555
H13 C17 1_555 1_555
K1 O1 1_555 1_555
O4 H14 1_555 1_555
H15 O4 1_555 1_555
O5 K1 1_555 1_555
H16 O5 1_555 1_555
H17 O5 1_555 1_555
O6 K1 1_555 1_555
H18 O6 1_555 1_555
H19 O6 1_555 1_555
O7 K1 1_555 1_555
H20 O7 1_555 1_555
Cl1B C9B 1_555 1_555
C1B C2B 1_555 1_555
C2B H1B 1_555 1_555
N1B C2B 1_555 1_555
C3B C4B 1_555 1_555
C4B N1B 1_555 1_555
H2B C4B 1_555 1_555
C5B C3B 1_555 1_555
N2B C5B 1_555 1_555
C6B N2B 1_555 1_555
C7B C6B 1_555 1_555
H3B C7B 1_555 1_555
C8B C7B 1_555 1_555
H4B C8B 1_555 1_555
C9B C8B 1_555 1_555
C10B C9B 1_555 1_555
H5B C10B 1_555 1_555
C11B C6B 1_555 1_555
C12B C1B 1_555 1_555
C13B C1B 1_555 1_555
O1B K1 1_555 1_555
O2B C13B 1_555 1_555
N3B C5B 1_555 1_555
C14B N3B 1_555 1_555
H6B C14B 1_555 1_555
H7B C14B 1_555 1_555
C15B C14B 1_555 1_555
H8B C15B 1_555 1_555
H9B C15B 1_555 1_555
O3B C15B 1_555 1_555
O3A K1 1_555 1_555
O3C K1B 1_555 1_555
C16B O3B 1_555 1_555
H10B C16B 1_555 1_555
H11B C16B 1_555 1_555
C17B N3B 1_555 1_555
H12B C17B 1_555 1_555
H13B C17B 1_555 1_555
K1B O1 1_555 1_555
K1A O3 1_555 1_555
K1C O3B 1_555 1_555
O5B K1B 1_555 1_555
H16B O5B 1_555 1_555
H17B O5B 1_555 1_555
O6B K1B 1_555 1_555
H18B O6B 1_555 1_555
H19B O6B 1_555 1_555
H20B O7 1_555 1_555
C3 C12 1_555 1_555
C10 C11 1_555 1_555
C11 C12 1_555 1_555
O2 K1 1_555 1_555
C16 C17 1_555 1_555
O7 K1B 1_555 1_555
C3B C12B 1_555 1_555
C10B C11B 1_555 1_555
C11B C12B 1_555 1_555
C13B O1B 1_555 1_555
O1B K1B 1_555 1_555
O2B K1B 1_555 1_555
C16B C17B 1_555 1_555

#END
