
#######################################################################
#
#                 Cambridge Crystallographic Data Centre
#                                CCDC 
#
#######################################################################
#
# If this CIF has been generated from an entry in the Cambridge 
# Structural Database, then it will include bibliographic, chemical, 
# crystal, experimental, refinement or atomic coordinate data resulting 
# from the CCDC's data processing and validation procedures.
#
#######################################################################

data_HICFOP
_symmetry_cell_setting           triclinic
_symmetry_space_group_name_H-M   'P -1'
_symmetry_Int_Tables_number      2
_space_group_name_Hall           '-P 1'
loop_
_symmetry_equiv_pos_site_id
_symmetry_equiv_pos_as_xyz
1 x,y,z
2 -x,-y,-z
_cell_length_a                   8.99410(10)
_cell_length_b                   9.4963(3)
_cell_length_c                   11.29590(10)
_cell_angle_alpha                77.128(10)
_cell_angle_beta                 68.073(8)
_cell_angle_gamma                83.776(12)
_cell_volume                     872.167
loop_
_atom_site_label
_atom_site_type_symbol
_atom_site_fract_x
_atom_site_fract_y
_atom_site_fract_z
Ga1 Ga -0.10096(6) 0.72677(5) 0.10327(4)
Ga2 Ga 0.21921(5) 0.64599(5) -0.48024(4)
Se1 Se 0.06446(5) 0.61977(4) -0.15999(4)
Se2 Se -0.41248(5) 0.61922(4) 0.35127(4)
Se3 Se 0.02061(5) 0.62847(4) 0.34618(4)
F1 F 0.2919(3) 0.8283(3) -0.4998(3)
C7 C 0.0877(5) 0.9737(4) -0.0195(4)
O1 O -0.0925(4) 0.7150(3) -0.0717(3)
O2 O 0.0441(4) 0.6740(3) -0.3081(3)
O3 O -0.0209(4) 0.4539(3) -0.1136(3)
O4 O -0.6022(4) 0.6133(3) 0.3538(3)
O5 O -0.3649(4) 0.4393(3) 0.3825(3)
O6 O -0.3158(4) 0.6568(3) 0.1864(3)
O7 O -0.0735(4) 0.7587(3) 0.2635(3)
O8 O -0.1456(4) 0.5467(3) 0.4647(3)
O9 O 0.0712(4) 0.7331(3) 0.4282(3)
O10 O 0.1153(4) 0.8403(3) 0.0063(3)
O11 O 0.1908(4) 1.0697(3) -0.0753(3)
Ga1A Ga 0.10096(6) 0.27323(5) -0.10327(4)
Ga1A_2 Ga 0.10096(6) 1.27323(5) -0.10327(4)
Ga1_2 Ga 0.89904(6) 0.72677(5) -0.89673(4)
Ga2A Ga -0.21921(5) 0.35401(5) 0.48024(4)
Ga2_2 Ga -0.78079(5) 0.64599(5) 0.51976(4)
Ga2_3 Ga 0.21921(5) 0.64599(5) 0.51976(4)
Ga2A_2 Ga 0.78079(5) 0.35401(5) -0.51976(4)
Ga2A_3 Ga -0.21921(5) 0.35401(5) -0.51976(4)
Se1A Se -0.06446(5) 0.38023(4) 0.15999(4)
Se2_2 Se 0.58752(5) 0.61922(4) -0.64873(4)
Se3A Se -0.02061(5) 0.37153(4) -0.34618(4)
F1A F -0.2919(3) 0.1717(3) 0.4998(3)
C7A C -0.0877(5) 1.0263(4) 0.0195(4)
O1A O 0.0925(4) 0.2850(3) 0.0717(3)
O2A O -0.0441(4) 0.3260(3) 0.3081(3)
O3A O 0.0209(4) 0.5461(3) 0.1136(3)
O4_2 O 0.3978(4) 0.6133(3) -0.6462(3)
O4A O -0.3978(4) 0.3867(3) 0.6462(3)
O5_2 O 0.6351(4) 0.4393(3) -0.6175(3)
O5A O 0.3649(4) 0.5607(3) -0.3825(3)
O6_2 O 0.6842(4) 0.6568(3) -0.8136(3)
O6A O 0.3158(4) 0.3432(3) -0.1864(3)
O7A O 0.0735(4) 0.2413(3) -0.2635(3)
O8A O 0.1456(4) 0.4533(3) -0.4647(3)
O9A O -0.0712(4) 0.2669(3) -0.4282(3)
O9_2 O 0.0712(4) 0.7331(3) -0.5718(3)
O9A_2 O -0.0712(4) 0.2669(3) 0.5718(3)
O10A O -0.1153(4) 1.1597(3) -0.0063(3)
O10A_2 O -0.1153(4) 0.1597(3) -0.0063(3)
O11A O -0.1908(4) 0.9303(3) 0.0753(3)
O11_2 O 0.1908(4) 0.0697(3) -0.0753(3)
N1 N -0.7409(5) 1.2201(5) 0.2655(5)
H1 H -0.8446 1.2484 0.2773
N2 N -0.4584(5) 1.1429(5) 0.2351(5)
H2 H -0.3553 1.1137 0.2245
C1 C -0.6329(7) 1.3348(6) 0.1707(8)
H3 H -0.6668 1.4272 0.1970
H4 H -0.6377 1.3424 0.0851
C2 C -0.4613(7) 1.2964(6) 0.1659(6)
H5 H -0.3877 1.3074 0.0762
H6 H -0.4291 1.3597 0.2081
C3 C -0.7156(8) 1.2012(8) 0.3910(7)
H7 H -0.7972 1.1399 0.4591
H8 H -0.7239 1.2942 0.4154
C4 C -0.5528(7) 1.1337(7) 0.3762(6)
H9 H -0.4990 1.1842 0.4140
H10 H -0.5627 1.0335 0.4211
C5 C -0.7060(7) 1.0826(6) 0.2198(7)
H11 H -0.7377 1.0905 0.1453
H12 H -0.7666 1.0063 0.2883
C6 C -0.5284(7) 1.0461(6) 0.1819(6)
H13 H -0.5115 0.9456 0.2179
H14 H -0.4773 1.0616 0.0879
O12 O -0.3762(7) 0.2307(7) 0.8824(5)
O13 O -0.1885(5) 0.0397(4) 0.2949(4)
loop_
_geom_bond_atom_site_label_1
_geom_bond_atom_site_label_2
_geom_bond_site_symmetry_1
_geom_bond_site_symmetry_2
Ga1 O1 1_555 1_555
Ga2 F1 1_555 1_555
Se1 O1 1_555 1_555
Se2 O4 1_555 1_555
Se3 O7 1_555 1_555
N1 H1 1_555 1_555
N2 H2 1_555 1_555
C1 N1 1_555 1_555
H3 C1 1_555 1_555
H4 C1 1_555 1_555
C2 N2 1_555 1_555
H5 C2 1_555 1_555
H6 C2 1_555 1_555
C3 N1 1_555 1_555
H7 C3 1_555 1_555
H8 C3 1_555 1_555
C4 N2 1_555 1_555
H9 C4 1_555 1_555
H10 C4 1_555 1_555
C5 N1 1_555 1_555
H11 C5 1_555 1_555
H12 C5 1_555 1_555
C6 N2 1_555 1_555
H13 C6 1_555 1_555
H14 C6 1_555 1_555
C7 O10 1_555 1_555
O2 Ga2 1_555 1_555
O3 Se1 1_555 1_555
O4 Ga2_2 1_555 1_555
O5 Se2 1_555 1_555
O6 Ga1 1_555 1_555
O7 Ga1 1_555 1_555
O8 Se3 1_555 1_555
O9 Se3 1_555 1_555
O10 Ga1 1_555 1_555
O11 C7 1_555 1_555
Ga1A O3 1_555 1_555
Ga1A_2 O11 1_555 1_555
Ga1_2 O6_2 1_555 1_555
Ga2A O5 1_555 1_555
Ga2_3 O9 1_555 1_555
Ga2A_2 O5_2 1_555 1_555
Ga2A_3 O9A 1_555 1_555
Se1A O1A 1_555 1_555
Se2_2 O4_2 1_555 1_555
Se3A O7A 1_555 1_555
F1A Ga2A 1_555 1_555
C7A C7 1_555 1_555
O1A Ga1A 1_555 1_555
O2A Ga2A 1_555 1_555
O3A Ga1 1_555 1_555
O4_2 Ga2 1_555 1_555
O4A Ga2A 1_555 1_555
O5_2 Se2_2 1_555 1_555
O5A Ga2 1_555 1_555
O6_2 Se2_2 1_555 1_555
O6A Ga1A 1_555 1_555
O7A Ga1A 1_555 1_555
O8A Ga2 1_555 1_555
O9A Se3A 1_555 1_555
O9_2 Ga2 1_555 1_555
O9A_2 Ga2A 1_555 1_555
O10A Ga1A_2 1_555 1_555
O10A_2 Ga1A 1_555 1_555
O11A Ga1 1_555 1_555
O11_2 Ga1A 1_555 1_555
Se1 O2 1_555 1_555
Se2 O6 1_555 1_555
C1 C2 1_555 1_555
C3 C4 1_555 1_555
C5 C6 1_555 1_555
O8 Ga2A 1_555 1_555
Se1A O2A 1_555 1_555
Se1A O3A 1_555 1_555
Se3A O8A 1_555 1_555
C7A O10A 1_555 1_555
C7A O11A 1_555 1_555

#END
