
#######################################################################
#
#                 Cambridge Crystallographic Data Centre
#                                CCDC 
#
#######################################################################
#
# If this CIF has been generated from an entry in the Cambridge 
# Structural Database, then it will include bibliographic, chemical, 
# crystal, experimental, refinement or atomic coordinate data resulting 
# from the CCDC's data processing and validation procedures.
#
#######################################################################

data_HICGAC
_symmetry_cell_setting           monoclinic
_symmetry_space_group_name_H-M   'P 21/n'
_symmetry_Int_Tables_number      14
_space_group_name_Hall           '-P 2yn'
loop_
_symmetry_equiv_pos_site_id
_symmetry_equiv_pos_as_xyz
1 x,y,z
2 1/2-x,1/2+y,1/2-z
3 -x,-y,-z
4 1/2+x,1/2-y,1/2+z
_cell_length_a                   8.3749(16)
_cell_length_b                   12.118(2)
_cell_length_c                   10.648(3)
_cell_angle_alpha                90
_cell_angle_beta                 110.478(8)
_cell_angle_gamma                90
_cell_volume                     1012.35
loop_
_atom_site_label
_atom_site_type_symbol
_atom_site_fract_x
_atom_site_fract_y
_atom_site_fract_z
In1 In 0.21237(4) 0.83250(2) 0.88258(3)
Se1 Se 0.57265(6) 0.76011(4) 0.81890(5)
O1 O 0.3285(4) 0.6822(2) 0.9986(3)
O2 O 0.3973(4) 0.8892(2) 1.0818(3)
O3 O 0.0315(4) 0.8349(3) 0.9836(4)
O4 O 0.3902(4) 0.8295(3) 0.7813(3)
O5 O 0.6443(6) 0.7901(4) 0.6999(5)
O6 O 0.2115(4) 1.0134(3) 0.8705(3)
O7 O 0.7021(5) 0.7978(3) 0.9641(4)
O8 O 0.5355(5) 0.6295(3) 0.8204(4)
O9 O 0.5224(4) 0.6205(2) 1.1862(3)
O10 O 0.5835(4) 0.8268(2) 1.2763(3)
C1 C 0.4400(5) 0.6958(3) 1.1118(4)
C3 C 0.4773(5) 0.8152(3) 1.1607(4)
In1C In -0.28763(4) 0.66750(2) 0.38258(3)
In1C_2 In 0.71237(4) 0.66750(2) 1.38258(3)
Se1C Se 0.07265(6) 0.73989(4) 0.31890(5)
O1C O -0.1715(4) 0.8178(2) 0.4986(3)
O2C O -0.1027(4) 0.6108(2) 0.5818(3)
O3C O -0.4685(4) 0.6651(3) 0.4836(4)
O4C O -0.1098(4) 0.6705(3) 0.2813(3)
O5C O 0.1443(6) 0.7099(4) 0.1999(5)
O6C O -0.2885(4) 0.4866(3) 0.3705(3)
O7C O 0.2021(5) 0.7022(3) 0.4641(4)
O8C O 0.0355(5) 0.8705(3) 0.3204(4)
O9C O 0.0224(4) 0.8795(2) 0.6862(3)
O9_2 O -0.4776(4) 0.6205(2) 0.1862(3)
O10C O 0.0835(4) 0.6732(2) 0.7763(3)
O10_2 O -0.4165(4) 0.8268(2) 0.2763(3)
C1C C -0.0600(5) 0.8042(3) 0.6118(4)
C3C C -0.0227(5) 0.6848(3) 0.6607(4)
C2 C 0.0828(6) 0.4704(4) 1.0383(5)
H1 H 0.1399 0.5085 1.1222
H2 H 0.0579 0.3958 1.0590
N1 N 0.1965(5) 0.4665(3) 0.9590(4)
H3 H 0.2928 0.4320 1.0057
H4 H 0.2202 0.5349 0.9406
H5 H 0.1451 0.4303 0.8828
C2B C -0.0828(6) 0.5296(4) 0.9617(5)
H1B H -0.1399 0.4915 0.8778
H2B H -0.0579 0.6042 0.9410
N1B N -0.1965(5) 0.5335(3) 1.0410(4)
H3B H -0.2928 0.5680 0.9943
H4B H -0.2202 0.4651 1.0594
H5B H -0.1451 0.5697 1.1172
loop_
_geom_bond_atom_site_label_1
_geom_bond_atom_site_label_2
_geom_bond_site_symmetry_1
_geom_bond_site_symmetry_2
In1 O1 1_555 1_555
Se1 O4 1_555 1_555
O1 C1 1_555 1_555
O2 In1 1_555 1_555
O3 In1 1_555 1_555
O4 In1 1_555 1_555
O5 Se1 1_555 1_555
O6 In1 1_555 1_555
O7 Se1 1_555 1_555
O8 Se1 1_555 1_555
O9 C1 1_555 1_555
O10 C3 1_555 1_555
C1 C3 1_555 1_555
C2 H1 1_555 1_555
H2 C2 1_555 1_555
C3 O2 1_555 1_555
N1 C2 1_555 1_555
H3 N1 1_555 1_555
H4 N1 1_555 1_555
H5 N1 1_555 1_555
In1C O1C 1_555 1_555
In1C_2 O9 1_555 1_555
Se1C O4C 1_555 1_555
O1C C1C 1_555 1_555
O2C In1C 1_555 1_555
O3C In1C 1_555 1_555
O4C In1C 1_555 1_555
O5C Se1C 1_555 1_555
O6C In1C 1_555 1_555
O7C Se1C 1_555 1_555
O8C Se1C 1_555 1_555
O9C In1 1_555 1_555
O9_2 In1C 1_555 1_555
O10C In1 1_555 1_555
O10_2 In1C 1_555 1_555
C1C O9C 1_555 1_555
C2B C2 1_555 1_555
H1B C2B 1_555 1_555
H2B C2B 1_555 1_555
C3C O2C 1_555 1_555
N1B C2B 1_555 1_555
H3B N1B 1_555 1_555
H4B N1B 1_555 1_555
H5B N1B 1_555 1_555
O10 In1C_2 1_555 1_555
O10C C3C 1_555 1_555
C1C C3C 1_555 1_555

#END
