
#######################################################################
#
#                 Cambridge Crystallographic Data Centre
#                                CCDC 
#
#######################################################################
#
# If this CIF has been generated from an entry in the Cambridge 
# Structural Database, then it will include bibliographic, chemical, 
# crystal, experimental, refinement or atomic coordinate data resulting 
# from the CCDC's data processing and validation procedures.
#
#######################################################################

data_HICJIN
_symmetry_cell_setting           triclinic
_symmetry_space_group_name_H-M   'P -1'
_symmetry_Int_Tables_number      2
_space_group_name_Hall           '-P 1'
loop_
_symmetry_equiv_pos_site_id
_symmetry_equiv_pos_as_xyz
1 x,y,z
2 -x,-y,-z
_cell_length_a                   10.2300(8)
_cell_length_b                   10.8860(8)
_cell_length_c                   12.6570(10)
_cell_angle_alpha                109.7940(14)
_cell_angle_beta                 105.7900(14)
_cell_angle_gamma                95.4110(14)
_cell_volume                     1248.85
loop_
_atom_site_label
_atom_site_type_symbol
_atom_site_fract_x
_atom_site_fract_y
_atom_site_fract_z
Zn1 Zn 1.0000 -0.5000 0.5000
Zn2 Zn 0.52986(5) 0.24724(5) 0.67667(5)
C1 C 0.9834(5) -0.0828(4) 0.6422(4)
C2 C 1.1056(4) -0.0227(4) 0.6365(4)
H1 H 1.1721 -0.0724 0.6209
C3 C 1.1289(4) 0.1118(5) 0.6541(4)
C4 C 1.0256(5) 0.1832(5) 0.6722(5)
H2 H 1.0383 0.2718 0.6795
C5 C 0.9044(4) 0.1237(5) 0.6792(4)
C6 C 0.8851(5) -0.0088(5) 0.6665(4)
H3 H 0.8056 -0.0482 0.6745
C7 C 0.9616(5) -0.2279(5) 0.6274(5)
C8 C 1.2641(5) 0.1827(5) 0.6569(4)
C9 C 0.7929(5) 0.2042(5) 0.6941(5)
C10 C 0.4469(6) 0.1126(6) 0.1328(5)
C11 C 0.3633(7) 0.0041(6) 0.1336(6)
H4 H 0.3871 -0.0180 0.2001
C12 C 0.2472(8) -0.0709(7) 0.0396(6)
H5 H 0.1932 -0.1429 0.0422
C13 C 0.2127(8) -0.0378(7) -0.0575(6)
H6 H 0.1339 -0.0872 -0.1217
C14 C 0.2930(7) 0.0676(6) -0.0619(5)
H7 H 0.2688 0.0873 -0.1299
C15 C 0.4098(6) 0.1456(5) 0.0331(5)
C16 C 0.5685(6) 0.1874(6) 0.2397(5)
H8 H 0.6336 0.1296 0.2494
H9 H 0.6148 0.2622 0.2291
C17 C 0.4872(7) 0.2604(5) 0.0190(5)
H10 H 0.4776 0.2374 -0.0642
H11 H 0.5851 0.2759 0.0627
C18 C 0.5635(6) 0.2022(6) 0.4404(5)
H12 H 0.6226 0.1438 0.4491
C19 C 0.4268(6) 0.3356(6) 0.4720(5)
H13 H 0.3709 0.3871 0.5067
C20 C 0.4436(7) 0.3233(6) 0.3675(5)
H14 H 0.4041 0.3664 0.3184
C21 C 0.4981(6) 0.4890(5) 0.1639(5)
H15 H 0.5838 0.4953 0.2174
C22 C 0.3066(5) 0.5337(6) 0.0807(5)
H16 H 0.2340 0.5774 0.0662
C23 C 0.3140(6) 0.4122(6) 0.0081(5)
H17 H 0.2488 0.3583 -0.0648
N1 N 0.5048(4) 0.2605(4) 0.5187(4)
N2 N 0.5283(5) 0.2369(5) 0.3470(4)
N3 N 0.4239(4) 0.5822(4) 0.1794(4)
N4 N 0.4355(4) 0.3844(4) 0.0623(4)
O1 O 1.0207(4) -0.2991(3) 0.5619(4)
O2 O 0.8912(4) -0.2654(4) 0.6798(4)
O3 O 0.6782(4) 0.1437(3) 0.6905(3)
O4 O 0.8161(4) 0.3237(3) 0.7082(4)
O5 O 1.2735(3) 0.2923(3) 0.6489(3)
O6 O 1.3669(3) 0.1242(3) 0.6698(3)
O7 O 0.8469(5) -0.5144(4) 0.3319(4)
H18 H 0.808(7) -0.446(5) 0.345(5)
H19 H 0.874(7) -0.533(6) 0.270(4)
O8 O 0.8326(4) -0.5261(4) 0.5637(4)
H20 H 0.834(7) -0.582(4) 0.601(5)
H21 H 0.844(7) -0.444(3) 0.620(4)
Zn2A Zn 1.47014(5) -1.24724(5) 0.32333(5)
Zn2A_2 Zn 0.47014(5) 0.75276(5) 0.32333(5)
Zn2_2 Zn 1.52986(5) 0.24724(5) 0.67667(5)
Zn2A_3 Zn 0.47014(5) -1.24724(5) 0.32333(5)
C1A C 1.0166(5) -0.9172(4) 0.3578(4)
C2A C 0.8944(4) -0.9773(4) 0.3635(4)
H1A H 0.8279 -0.9276 0.3791
C3A C 0.8711(4) -1.1118(5) 0.3459(4)
C4A C 0.9744(5) -1.1832(5) 0.3278(5)
H2A H 0.9617 -1.2718 0.3205
C5A C 1.0956(4) -1.1237(5) 0.3208(4)
C6A C 1.1149(5) -0.9912(5) 0.3335(4)
H3A H 1.1944 -0.9518 0.3255
C7A C 1.0384(5) -0.7721(5) 0.3726(5)
C8A C 0.7359(5) -1.1827(5) 0.3431(4)
C9A C 1.2071(5) -1.2042(5) 0.3059(5)
C10A C 0.5531(6) 0.8874(6) 0.8672(5)
C11A C 0.6367(7) 0.9959(6) 0.8664(6)
H4A H 0.6129 1.0180 0.7999
C12A C 0.7528(8) 1.0709(7) 0.9604(6)
H5A H 0.8068 1.1429 0.9578
C13A C 0.7873(8) 1.0378(7) 1.0575(6)
H6A H 0.8661 1.0872 1.1217
C14A C 0.7070(7) 0.9324(6) 1.0619(5)
H7A H 0.7312 0.9127 1.1299
C15A C 0.5902(6) 0.8544(5) 0.9669(5)
C16A C 0.4315(6) 0.8126(6) 0.7603(5)
H8A H 0.3664 0.8704 0.7506
H9A H 0.3852 0.7378 0.7709
C17A C 0.5128(7) 0.7396(5) 0.9810(5)
H10A H 0.5224 0.7626 1.0642
H11A H 0.4149 0.7241 0.9373
C18A C 0.4365(6) 0.7978(6) 0.5596(5)
H12A H 0.3774 0.8562 0.5509
C19A C 0.5732(6) 0.6644(6) 0.5280(5)
H13A H 0.6291 0.6129 0.4933
C20A C 0.5564(7) 0.6767(6) 0.6325(5)
H14A H 0.5959 0.6336 0.6816
C21A C 0.5019(6) 0.5110(5) 0.8361(5)
H15A H 0.4162 0.5047 0.7826
C22A C 0.6934(5) 0.4663(6) 0.9193(5)
H16A H 0.7660 0.4226 0.9338
C23A C 0.6860(6) 0.5878(6) 0.9919(5)
H17A H 0.7512 0.6417 1.0648
N1A N 0.4952(4) 0.7395(4) 0.4813(4)
N1A_2 N 1.4952(4) -1.2605(4) 0.4813(4)
N2A N 0.4717(5) 0.7631(5) 0.6530(4)
N3A N 0.5761(4) 0.4178(4) 0.8206(4)
N3_2 N 1.4239(4) -1.4178(4) 0.1794(4)
N4A N 0.5645(4) 0.6156(4) 0.9377(4)
O1A O 0.9793(4) -0.7009(3) 0.4381(4)
O2A O 1.1088(4) -0.7346(4) 0.3202(4)
O3A O 1.3218(4) -1.1437(3) 0.3095(3)
O4A O 1.1839(4) -1.3237(3) 0.2918(4)
O5A O 0.7265(3) -1.2923(3) 0.3511(3)
O6A O 0.6331(3) -1.1242(3) 0.3302(3)
O6_2 O 0.3669(3) 0.1242(3) 0.6698(3)
O6A_2 O 1.6331(3) -1.1242(3) 0.3302(3)
O7A O 1.1531(5) -0.4856(4) 0.6681(4)
H18A H 1.192(7) -0.554(5) 0.655(5)
H19A H 1.126(7) -0.467(6) 0.730(4)
O8A O 1.1674(4) -0.4739(4) 0.4363(4)
H20A H 1.166(7) -0.418(4) 0.399(5)
H21A H 1.156(7) -0.556(3) 0.380(4)
O9 O 0.8972(11) -0.2425(11) 0.8973(10)
H22 H 0.823(10) -0.274(14) 0.834(8)
H23 H 0.886(15) -0.173(11) 0.952(9)
O10 O 1.0400(6) 0.5544(7) 0.8531(6)
H24 H 0.963(6) 0.489(6) 0.813(8)
H25 H 1.006(9) 0.632(5) 0.861(9)
loop_
_geom_bond_atom_site_label_1
_geom_bond_atom_site_label_2
_geom_bond_site_symmetry_1
_geom_bond_site_symmetry_2
Zn1 O1 1_555 1_555
Zn2 N1 1_555 1_555
C1 C2 1_555 1_555
C2 H1 1_555 1_555
C3 C2 1_555 1_555
C4 C3 1_555 1_555
H2 C4 1_555 1_555
C5 C4 1_555 1_555
C6 C1 1_555 1_555
H3 C6 1_555 1_555
C7 C1 1_555 1_555
C8 C3 1_555 1_555
C9 C5 1_555 1_555
C10 C11 1_555 1_555
C11 H4 1_555 1_555
C12 C11 1_555 1_555
H5 C12 1_555 1_555
C13 C12 1_555 1_555
H6 C13 1_555 1_555
C14 C13 1_555 1_555
H7 C14 1_555 1_555
C15 C10 1_555 1_555
C16 C10 1_555 1_555
H8 C16 1_555 1_555
H9 C16 1_555 1_555
C17 C15 1_555 1_555
H10 C17 1_555 1_555
H11 C17 1_555 1_555
C18 H12 1_555 1_555
C19 H13 1_555 1_555
C20 C19 1_555 1_555
H14 C20 1_555 1_555
C21 H15 1_555 1_555
C22 H16 1_555 1_555
C23 C22 1_555 1_555
H17 C23 1_555 1_555
N1 C18 1_555 1_555
N2 C16 1_555 1_555
N3 C21 1_555 1_555
N4 C17 1_555 1_555
O1 C7 1_555 1_555
O2 C7 1_555 1_555
O3 Zn2 1_555 1_555
O4 C9 1_555 1_555
O5 C8 1_555 1_555
O6 C8 1_555 1_555
O7 Zn1 1_555 1_555
H18 O7 1_555 1_555
H19 O7 1_555 1_555
O8 Zn1 1_555 1_555
H20 O8 1_555 1_555
H21 O8 1_555 1_555
O9 H22 1_555 1_555
H23 O9 1_555 1_555
O10 H24 1_555 1_555
H25 O10 1_555 1_555
Zn2A N1A_2 1_555 1_555
Zn2A_2 N3 1_555 1_555
Zn2_2 O6 1_555 1_555
Zn2A_3 O6A 1_555 1_555
C1A C2A 1_555 1_555
C2A H1A 1_555 1_555
C3A C2A 1_555 1_555
C4A C3A 1_555 1_555
H2A C4A 1_555 1_555
C5A C4A 1_555 1_555
C6A C1A 1_555 1_555
H3A C6A 1_555 1_555
C7A C1A 1_555 1_555
C8A C3A 1_555 1_555
C9A C5A 1_555 1_555
C10A C11A 1_555 1_555
C11A H4A 1_555 1_555
C12A C11A 1_555 1_555
H5A C12A 1_555 1_555
C13A C12A 1_555 1_555
H6A C13A 1_555 1_555
C14A C13A 1_555 1_555
H7A C14A 1_555 1_555
C15A C10A 1_555 1_555
C16A C10A 1_555 1_555
H8A C16A 1_555 1_555
H9A C16A 1_555 1_555
C17A C15A 1_555 1_555
H10A C17A 1_555 1_555
H11A C17A 1_555 1_555
C18A H12A 1_555 1_555
C19A H13A 1_555 1_555
C20A C19A 1_555 1_555
H14A C20A 1_555 1_555
C21A H15A 1_555 1_555
C22A H16A 1_555 1_555
C23A C22A 1_555 1_555
H17A C23A 1_555 1_555
N1A Zn2A_2 1_555 1_555
N2A C16A 1_555 1_555
N3A Zn2 1_555 1_555
N3_2 Zn2A 1_555 1_555
N4A C17A 1_555 1_555
O1A Zn1 1_555 1_555
O2A C7A 1_555 1_555
O3A Zn2A 1_555 1_555
O4A C9A 1_555 1_555
O5A C8A 1_555 1_555
O6A C8A 1_555 1_555
O6_2 Zn2 1_555 1_555
O6A_2 Zn2A 1_555 1_555
O7A Zn1 1_555 1_555
H18A O7A 1_555 1_555
H19A O7A 1_555 1_555
O8A Zn1 1_555 1_555
H20A O8A 1_555 1_555
H21A O8A 1_555 1_555
C5 C6 1_555 1_555
C9 O3 1_555 1_555
C14 C15 1_555 1_555
C18 N2 1_555 1_555
C19 N1 1_555 1_555
C20 N2 1_555 1_555
C21 N4 1_555 1_555
C22 N3 1_555 1_555
C23 N4 1_555 1_555
C5A C6A 1_555 1_555
C7A O1A 1_555 1_555
C9A O3A 1_555 1_555
C14A C15A 1_555 1_555
C18A N1A 1_555 1_555
C18A N2A 1_555 1_555
C19A N1A 1_555 1_555
C20A N2A 1_555 1_555
C21A N3A 1_555 1_555
C21A N4A 1_555 1_555
C22A N3A 1_555 1_555
C23A N4A 1_555 1_555

#END
