
#######################################################################
#
#                 Cambridge Crystallographic Data Centre
#                                CCDC 
#
#######################################################################
#
# If this CIF has been generated from an entry in the Cambridge 
# Structural Database, then it will include bibliographic, chemical, 
# crystal, experimental, refinement or atomic coordinate data resulting 
# from the CCDC's data processing and validation procedures.
#
#######################################################################

data_HICJUZ
_symmetry_cell_setting           triclinic
_symmetry_space_group_name_H-M   'P -1'
_symmetry_Int_Tables_number      2
_space_group_name_Hall           '-P 1'
loop_
_symmetry_equiv_pos_site_id
_symmetry_equiv_pos_as_xyz
1 x,y,z
2 -x,-y,-z
_cell_length_a                   9.3160(8)
_cell_length_b                   13.6700(12)
_cell_length_c                   16.3550(14)
_cell_angle_alpha                70.0220(13)
_cell_angle_beta                 74.5650(13)
_cell_angle_gamma                83.5730(15)
_cell_volume                     1886.36
loop_
_atom_site_label
_atom_site_type_symbol
_atom_site_fract_x
_atom_site_fract_y
_atom_site_fract_z
Zn1 Zn 1.00196(4) 0.38378(3) 0.23410(2)
Zn2 Zn 2.02713(4) -0.38845(3) 0.38115(2)
Zn3 Zn 0.37878(5) 0.13653(3) 0.85888(3)
C1 C 0.5039(4) 0.3001(3) 0.5795(2)
C2 C 0.3756(3) 0.3615(3) 0.5701(2)
H1 H 0.2976 0.3575 0.6202
C3 C 0.3635(3) 0.4284(3) 0.4865(2)
C4 C 0.4825(3) 0.4360(3) 0.4121(2)
H2 H 0.4753 0.4814 0.3561
C5 C 0.6114(3) 0.3767(3) 0.4210(2)
C6 C 0.6214(4) 0.3079(3) 0.5048(2)
H3 H 0.7072 0.2671 0.5107
C7 C 0.5122(4) 0.2255(3) 0.6699(2)
C8 C 0.7377(3) 0.3902(3) 0.3399(2)
C9 C 0.9560(4) 0.3342(3) -0.0348(2)
H4 H 0.9904 0.4007 -0.0489
C10 C 0.9316(4) 0.2662(3) 0.0528(2)
C11 C 0.8758(4) 0.1689(3) 0.0742(2)
H5 H 0.8603 0.1237 0.1329
C12 C 0.8422(4) 0.1373(3) 0.0088(2)
C13 C 0.8720(4) 0.2032(3) -0.0784(2)
H6 H 0.8543 0.1816 -0.1229
C14 C 0.9285(4) 0.3021(2) -0.1014(2)
C15 C 0.7719(5) 0.0337(3) 0.0351(3)
C16 C 0.9632(4) 0.2959(3) 0.1264(2)
C17 C 0.2256(4) 0.4934(3) 0.4756(2)
C18 C 0.9503(3) 0.3732(3) -0.1958(2)
C19 C 1.3164(4) 0.3764(3) 0.2598(3)
H7 H 1.3102 0.4451 0.2589
C20 C 1.2558(4) 0.2273(3) 0.2631(2)
H8 H 1.2014 0.1735 0.2643
C21 C 1.4390(4) 0.3134(3) 0.2641(3)
H9 H 1.5322 0.3310 0.2648
C22 C 1.4932(5) 0.1240(4) 0.2744(4)
H10 H 1.4307 0.0645 0.2923
H11 H 1.5590 0.1296 0.2161
C23 C 1.5816(9) 0.1074(5) 0.3389(6)
H12 H 1.5173 0.1081 0.3961
H13 H 1.6523 0.1628 0.3182
C24 C 1.6692(9) -0.0030(5) 0.3509(5)
H14 H 1.6029 -0.0585 0.3915
H15 H 1.7022 -0.0145 0.2934
C25 C 1.7942(8) -0.0043(5) 0.3856(5)
H16 H 1.7661 0.0227 0.4355
H17 H 1.8725 0.0382 0.3395
C26 C 1.8981(5) -0.1794(3) 0.3682(3)
H18 H 1.8934 -0.1665 0.3093
C27 C 1.8725(7) -0.1605(4) 0.4995(4)
H19 H 1.8479 -0.1335 0.5467
C28 C 1.9401(5) -0.2507(4) 0.4990(3)
H20 H 1.9717 -0.2984 0.5473
C29 C 0.3528(4) 0.3371(3) 0.8947(2)
H21 H 0.3559 0.3760 0.8352
C30 C 0.3487(5) 0.2099(3) 1.0160(2)
H22 H 0.3491 0.1427 1.0563
C31 C 0.3425(5) 0.2966(3) 1.0357(2)
H23 H 0.3366 0.3008 1.0921
C32 C 0.3357(4) 0.4901(3) 0.9495(3)
H24 H 0.2317 0.5108 0.9650
H25 H 0.3773 0.5302 0.8873
C33 C 0.4172(4) 0.5148(3) 1.0083(3)
H26 H 0.3696 0.4787 1.0705
H27 H 0.4064 0.5889 0.9993
N1 N 1.2031(3) 0.3231(2) 0.25703(18)
N2 N 1.3988(3) 0.2190(3) 0.2674(2)
N3 N 1.8464(5) -0.1153(3) 0.4161(3)
N4 N 1.9571(3) -0.2641(2) 0.41767(19)
N5 N 0.3543(3) 0.2349(2) 0.92623(19)
N6 N 0.3462(3) 0.3784(2) 0.95921(19)
O1 O 0.6269(3) 0.1710(3) 0.67827(18)
O2 O 0.3994(3) 0.2228(2) 0.73376(15)
O3 O 0.8585(3) 0.3394(2) 0.35145(15)
O4 O 0.7245(3) 0.4474(2) 0.26543(16)
O5 O 0.1242(2) 0.49502(18) 0.54359(14)
O6 O 0.2174(2) 0.5444(2) 0.39659(14)
O7 O 0.7271(4) 0.0104(2) -0.0206(2)
O8 O 0.7551(4) -0.0245(2) 0.11582(17)
O9 O 0.9585(3) 0.2291(2) 0.20058(16)
O10 O 0.9925(3) 0.39057(19) 0.11117(15)
O11 O 0.9692(3) 0.3292(2) -0.25500(15)
O12 O 0.9452(3) 0.46857(19) -0.21288(17)
O13 O 0.5792(3) 0.0659(3) 0.85237(19)
H28 H 0.646(2) 0.097(3) 0.804(2)
H29 H 0.628(5) 0.046(4) 0.899(2)
Zn1A Zn 0.99804(4) 0.61622(3) -0.23410(2)
Zn1A_2 Zn 0.99804(4) -0.38378(3) 0.76590(2)
Zn2A Zn -0.02713(4) 0.38845(3) 0.61885(2)
Zn2_2 Zn 0.02713(4) 0.61155(3) 0.38115(2)
Zn2A_2 Zn 0.97287(4) 0.38845(3) -0.38115(2)
Zn2_3 Zn 1.02713(4) 0.61155(3) 0.38115(2)
Zn2A_3 Zn 1.97287(4) -0.61155(3) 0.61885(2)
Zn2A_4 Zn -0.02713(4) 1.38845(3) -0.38115(2)
Zn3A Zn 0.62122(5) -0.13653(3) 0.14112(3)
Zn3A_2 Zn 0.62122(5) 0.86347(3) 1.14112(3)
Zn3_2 Zn 1.37878(5) 1.13653(3) -0.14112(3)
Zn3A_3 Zn 1.62122(5) -0.13653(3) 0.14112(3)
C1A C 1.4961(4) -0.3001(3) 0.4205(2)
C2A C 1.6244(3) -0.3615(3) 0.4299(2)
H1A H 1.7024 -0.3575 0.3798
C3A C 1.6365(3) -0.4284(3) 0.5135(2)
C4A C 1.5175(3) -0.4360(3) 0.5879(2)
H2A H 1.5247 -0.4814 0.6439
C5A C 1.3886(3) -0.3767(3) 0.5790(2)
C6A C 1.3786(4) -0.3079(3) 0.4952(2)
H3A H 1.2928 -0.2671 0.4893
C7A C 1.4878(4) -0.2255(3) 0.3301(2)
C8A C 1.2623(3) -0.3902(3) 0.6601(2)
C9A C 1.0440(4) 0.6658(3) 0.0348(2)
H4A H 1.0096 0.5993 0.0489
C10A C 1.0684(4) 0.7338(3) -0.0528(2)
C11A C 1.1242(4) 0.8311(3) -0.0742(2)
H5A H 1.1397 0.8763 -0.1329
C12A C 1.1578(4) 0.8627(3) -0.0088(2)
C13A C 1.1280(4) 0.7968(3) 0.0784(2)
H6A H 1.1457 0.8184 0.1229
C14A C 1.0715(4) 0.6979(2) 0.1014(2)
C15A C 1.2281(5) 0.9663(3) -0.0351(3)
C16A C 1.0368(4) 0.7041(3) -0.1264(2)
C17A C 1.7744(4) -0.4934(3) 0.5244(2)
C18A C 1.0497(3) 0.6268(3) 0.1958(2)
C19A C 0.6836(4) 0.6236(3) -0.2598(3)
H7A H 0.6898 0.5549 -0.2589
C20A C 0.7442(4) 0.7727(3) -0.2631(2)
H8A H 0.7986 0.8265 -0.2643
C21A C 0.5610(4) 0.6866(3) -0.2641(3)
H9A H 0.4678 0.6690 -0.2648
C22A C 0.5068(5) 0.8760(4) -0.2744(4)
H10A H 0.5693 0.9355 -0.2923
H11A H 0.4410 0.8704 -0.2161
C23A C 0.4184(9) 0.8926(5) -0.3389(6)
H12A H 0.4827 0.8919 -0.3961
H13A H 0.3477 0.8372 -0.3182
C24A C 0.3308(9) 1.0030(5) -0.3509(5)
H14A H 0.3971 1.0585 -0.3915
H15A H 0.2978 1.0145 -0.2934
C25A C 0.2058(8) 1.0043(5) -0.3856(5)
H16A H 0.2339 0.9773 -0.4355
H17A H 0.1275 0.9618 -0.3395
C26A C 0.1019(5) 1.1794(3) -0.3682(3)
H18A H 0.1066 1.1665 -0.3093
C27A C 0.1275(7) 1.1605(4) -0.4995(4)
H19A H 0.1521 1.1335 -0.5467
C28A C 0.0599(5) 1.2507(4) -0.4990(3)
H20A H 0.0283 1.2984 -0.5473
C29A C 0.6472(4) 0.6629(3) 1.1053(2)
H21A H 0.6441 0.6240 1.1648
C30A C 0.6513(5) 0.7901(3) 0.9840(2)
H22A H 0.6509 0.8573 0.9437
C31A C 0.6575(5) 0.7034(3) 0.9643(2)
H23A H 0.6634 0.6992 0.9079
C32A C 0.6643(4) 0.5099(3) 1.0505(3)
H24A H 0.7683 0.4892 1.0350
H25A H 0.6227 0.4698 1.1127
C33A C 0.5828(4) 0.4852(3) 0.9917(3)
H26A H 0.6304 0.5213 0.9295
H27A H 0.5936 0.4111 1.0007
N1A N 0.7969(3) 0.6769(2) -0.25703(18)
N2A N 0.6012(3) 0.7810(3) -0.2674(2)
N3A N 0.1536(5) 1.1153(3) -0.4161(3)
N4A N 0.0429(3) 1.2641(2) -0.41767(19)
N4A_2 N 0.0429(3) 0.2641(2) 0.58233(19)
N5A N 0.6457(3) 0.7651(2) 1.07377(19)
N5A_2 N 0.6457(3) -0.2349(2) 0.07377(19)
N6A N 0.6538(3) 0.6216(2) 1.04079(19)
O1A O 1.3731(3) -0.1710(3) 0.32173(18)
O2A O 1.6006(3) -0.2228(2) 0.26624(15)
O2A_2 O 0.6006(3) -0.2228(2) 0.26624(15)
O3A O 1.1415(3) -0.3394(2) 0.64855(15)
O3A_2 O 1.1415(3) 0.6606(2) -0.35145(15)
O4A O 1.2755(3) -0.4474(2) 0.73457(16)
O5A O 1.8758(2) -0.49502(18) 0.45641(14)
O6A O 1.7826(2) -0.5444(2) 0.60341(14)
O6_2 O 2.2174(2) -0.4556(2) 0.39659(14)
O6A_2 O -0.2174(2) 0.4556(2) 0.60341(14)
O7A O 1.2729(4) 0.9896(2) 0.0206(2)
O8A O 1.2449(4) 1.0245(2) -0.11582(17)
O8A_2 O 0.2449(4) 0.0245(2) 0.88418(17)
O9A O 1.0415(3) 0.7709(2) -0.20058(16)
O10A O 1.0075(3) 0.60943(19) -0.11117(15)
O11A O 1.0308(3) 0.6708(2) 0.25500(15)
O11A_2 O 2.0308(3) -0.3292(2) 0.25500(15)
O11_2 O -0.0308(3) 0.3292(2) 0.74500(15)
O12A O 1.0548(3) 0.53143(19) 0.21288(17)
O13A O 0.4208(3) -0.0659(3) 0.14763(19)
H28A H 0.354(2) -0.097(3) 0.196(2)
H29A H 0.372(5) -0.046(4) 0.101(2)
O14 O 0.8079(7) 0.0269(4) 0.6031(5)
H30 H 0.831(12) 0.050(7) 0.636(6)
H31 H 0.766(12) 0.052(8) 0.565(6)
O15 O 0.9047(8) -0.0284(5) 0.7922(4)
H32 H 0.901(14) -0.001(6) 0.833(5)
H33 H 0.927(13) -0.094(3) 0.809(6)
loop_
_geom_bond_atom_site_label_1
_geom_bond_atom_site_label_2
_geom_bond_site_symmetry_1
_geom_bond_site_symmetry_2
Zn1 N1 1_555 1_555
Zn2 N4 1_555 1_555
Zn3 N5 1_555 1_555
C1 C2 1_555 1_555
C2 H1 1_555 1_555
C3 C2 1_555 1_555
C4 C3 1_555 1_555
H2 C4 1_555 1_555
C5 C4 1_555 1_555
C6 C1 1_555 1_555
H3 C6 1_555 1_555
C7 C1 1_555 1_555
C8 C5 1_555 1_555
C9 H4 1_555 1_555
C10 C9 1_555 1_555
C11 C10 1_555 1_555
H5 C11 1_555 1_555
C12 C11 1_555 1_555
C13 C12 1_555 1_555
H6 C13 1_555 1_555
C14 C9 1_555 1_555
C15 C12 1_555 1_555
C16 C10 1_555 1_555
C17 C3 1_555 1_555
C18 C14 1_555 1_555
C19 H7 1_555 1_555
C20 H8 1_555 1_555
C21 C19 1_555 1_555
H9 C21 1_555 1_555
C22 H10 1_555 1_555
H11 C22 1_555 1_555
C23 C22 1_555 1_555
H12 C23 1_555 1_555
H13 C23 1_555 1_555
C24 C23 1_555 1_555
H14 C24 1_555 1_555
H15 C24 1_555 1_555
C25 C24 1_555 1_555
H16 C25 1_555 1_555
H17 C25 1_555 1_555
C26 H18 1_555 1_555
C27 H19 1_555 1_555
C28 C27 1_555 1_555
H20 C28 1_555 1_555
C29 H21 1_555 1_555
C30 H22 1_555 1_555
C31 C30 1_555 1_555
H23 C31 1_555 1_555
C32 H24 1_555 1_555
H25 C32 1_555 1_555
C33 C32 1_555 1_555
H26 C33 1_555 1_555
H27 C33 1_555 1_555
N1 C19 1_555 1_555
N2 C20 1_555 1_555
N3 C25 1_555 1_555
N4 C26 1_555 1_555
N5 C29 1_555 1_555
N6 C29 1_555 1_555
O1 C7 1_555 1_555
O2 Zn3 1_555 1_555
O3 Zn1 1_555 1_555
O4 C8 1_555 1_555
O5 C17 1_555 1_555
O6 C17 1_555 1_555
O7 C15 1_555 1_555
O8 C15 1_555 1_555
O9 Zn1 1_555 1_555
O10 Zn1 1_555 1_555
O11 C18 1_555 1_555
O12 C18 1_555 1_555
O13 Zn3 1_555 1_555
H28 O13 1_555 1_555
H29 O13 1_555 1_555
O14 H30 1_555 1_555
H31 O14 1_555 1_555
O15 H32 1_555 1_555
H33 O15 1_555 1_555
Zn1A O12 1_555 1_555
Zn1A_2 O3A 1_555 1_555
Zn2A O5 1_555 1_555
Zn2_2 O6 1_555 1_555
Zn2A_2 O11 1_555 1_555
Zn2_3 O11A 1_555 1_555
Zn2A_3 O6A 1_555 1_555
Zn2A_4 N4A 1_555 1_555
Zn3A O8 1_555 1_555
Zn3A_2 N5A 1_555 1_555
Zn3_2 O8A 1_555 1_555
Zn3A_3 O2A 1_555 1_555
C1A C2A 1_555 1_555
C2A H1A 1_555 1_555
C3A C2A 1_555 1_555
C4A C3A 1_555 1_555
H2A C4A 1_555 1_555
C5A C4A 1_555 1_555
C6A C1A 1_555 1_555
H3A C6A 1_555 1_555
C7A C1A 1_555 1_555
C8A C5A 1_555 1_555
C9A H4A 1_555 1_555
C10A C9A 1_555 1_555
C11A C10A 1_555 1_555
H5A C11A 1_555 1_555
C12A C11A 1_555 1_555
C13A C12A 1_555 1_555
H6A C13A 1_555 1_555
C14A C9A 1_555 1_555
C15A C12A 1_555 1_555
C16A C10A 1_555 1_555
C17A C3A 1_555 1_555
C18A C14A 1_555 1_555
C19A H7A 1_555 1_555
C20A H8A 1_555 1_555
C21A C19A 1_555 1_555
H9A C21A 1_555 1_555
C22A H10A 1_555 1_555
H11A C22A 1_555 1_555
C23A C22A 1_555 1_555
H12A C23A 1_555 1_555
H13A C23A 1_555 1_555
C24A C23A 1_555 1_555
H14A C24A 1_555 1_555
H15A C24A 1_555 1_555
C25A C24A 1_555 1_555
H16A C25A 1_555 1_555
H17A C25A 1_555 1_555
C26A H18A 1_555 1_555
C27A H19A 1_555 1_555
C28A C27A 1_555 1_555
H20A C28A 1_555 1_555
C29A H21A 1_555 1_555
C30A H22A 1_555 1_555
C31A C30A 1_555 1_555
H23A C31A 1_555 1_555
C32A H24A 1_555 1_555
H25A C32A 1_555 1_555
C33A C33 1_555 1_555
H26A C33A 1_555 1_555
H27A C33A 1_555 1_555
N1A Zn1A 1_555 1_555
N2A C20A 1_555 1_555
N3A C25A 1_555 1_555
N4A C26A 1_555 1_555
N4A_2 Zn2A 1_555 1_555
N5A C29A 1_555 1_555
N5A_2 Zn3A 1_555 1_555
N6A C29A 1_555 1_555
O1A C7A 1_555 1_555
O2A C7A 1_555 1_555
O2A_2 Zn3A 1_555 1_555
O3A C8A 1_555 1_555
O3A_2 Zn1A 1_555 1_555
O4A C8A 1_555 1_555
O5A Zn2 1_555 1_555
O6A C17A 1_555 1_555
O6_2 Zn2 1_555 1_555
O6A_2 Zn2A 1_555 1_555
O7A C15A 1_555 1_555
O8A C15A 1_555 1_555
O8A_2 Zn3 1_555 1_555
O9A Zn1A 1_555 1_555
O10A Zn1A 1_555 1_555
O11A C18A 1_555 1_555
O11A_2 Zn2 1_555 1_555
O11_2 Zn2A 1_555 1_555
O12A Zn1 1_555 1_555
O13A Zn3A 1_555 1_555
H28A O13A 1_555 1_555
H29A O13A 1_555 1_555
C5 C6 1_555 1_555
C7 O2 1_555 1_555
C8 O3 1_555 1_555
C13 C14 1_555 1_555
C16 O9 1_555 1_555
C16 O10 1_555 1_555
C20 N1 1_555 1_555
C21 N2 1_555 1_555
C22 N2 1_555 1_555
C26 N3 1_555 1_555
C27 N3 1_555 1_555
C28 N4 1_555 1_555
C30 N5 1_555 1_555
C31 N6 1_555 1_555
C32 N6 1_555 1_555
C5A C6A 1_555 1_555
C13A C14A 1_555 1_555
C16A O9A 1_555 1_555
C16A O10A 1_555 1_555
C17A O5A 1_555 1_555
C18A O12A 1_555 1_555
C19A N1A 1_555 1_555
C20A N1A 1_555 1_555
C21A N2A 1_555 1_555
C22A N2A 1_555 1_555
C26A N3A 1_555 1_555
C27A N3A 1_555 1_555
C28A N4A 1_555 1_555
C30A N5A 1_555 1_555
C31A N6A 1_555 1_555
C32A C33A 1_555 1_555
C32A N6A 1_555 1_555

#END
