
#######################################################################
#
#                 Cambridge Crystallographic Data Centre
#                                CCDC 
#
#######################################################################
#
# If this CIF has been generated from an entry in the Cambridge 
# Structural Database, then it will include bibliographic, chemical, 
# crystal, experimental, refinement or atomic coordinate data resulting 
# from the CCDC's data processing and validation procedures.
#
#######################################################################

data_HICKUA
_symmetry_cell_setting           monoclinic
_symmetry_space_group_name_H-M   'P 21/c'
_symmetry_Int_Tables_number      14
_space_group_name_Hall           '-P 2ybc'
loop_
_symmetry_equiv_pos_site_id
_symmetry_equiv_pos_as_xyz
1 x,y,z
2 -x,1/2+y,1/2-z
3 -x,-y,-z
4 x,1/2-y,1/2+z
_cell_length_a                   7.9441(3)
_cell_length_b                   8.6093(3)
_cell_length_c                   17.8251(7)
_cell_angle_alpha                90
_cell_angle_beta                 91.869(2)
_cell_angle_gamma                90
_cell_volume                     1218.47
loop_
_atom_site_label
_atom_site_type_symbol
_atom_site_fract_x
_atom_site_fract_y
_atom_site_fract_z
Fe1 Fe 0.08054(4) 0.25055(4) 0.089232(17)
Cl1 Cl 0.33933(9) 0.15900(8) 0.12616(4)
Cl2 Cl -0.00505(9) 0.34847(9) 0.19698(4)
O1 O 0.1191(2) 0.16054(19) -0.02215(8)
O2 O -0.1289(2) 0.35132(19) 0.03001(9)
O3 O -0.1880(2) 0.55240(18) -0.04566(8)
O4 O 0.0499(2) -0.04844(19) -0.09122(8)
C1 C 0.0492(3) 0.0327(3) -0.03286(12)
C2 C -0.0915(3) 0.4723(3) -0.00423(12)
Fe1B Fe -0.08054(4) -0.25055(4) -0.089232(17)
Fe1B_2 Fe -0.08054(4) 0.74945(4) -0.089232(17)
Cl1B Cl -0.33933(9) -0.15900(8) -0.12616(4)
Cl2B Cl 0.00505(9) -0.34847(9) -0.19698(4)
O1B O -0.1191(2) -0.16054(19) 0.02215(8)
O2B O 0.1289(2) 0.64868(19) -0.03001(9)
O2B_2 O 0.1289(2) -0.35132(19) -0.03001(9)
O3B O 0.1880(2) 0.44760(18) 0.04566(8)
O3_2 O -0.1880(2) -0.44760(18) -0.04566(8)
O4B O -0.0499(2) 0.04844(19) 0.09122(8)
C1B C -0.0492(3) -0.0327(3) 0.03286(12)
C2B C 0.0915(3) 0.5277(3) 0.00423(12)
N1 N -0.5174(3) 0.2138(2) 0.35545(11)
C3 C -0.6356(4) 0.3305(3) 0.32234(14)
H1 H -0.7385 0.3293 0.3491
H2 H -0.6590 0.3059 0.2705
H3 H -0.5856 0.4319 0.3260
C4 C -0.4813(4) 0.2516(3) 0.43548(13)
H4 H -0.5841 0.2487 0.4623
H5 H -0.4330 0.3536 0.4393
H6 H -0.4036 0.1770 0.4567
C5 C -0.3590(4) 0.2173(3) 0.31405(18)
H7 H -0.3109 0.3195 0.3171
H8 H -0.3823 0.1912 0.2624
H9 H -0.2811 0.1434 0.3358
C6 C -0.5935(5) 0.0572(3) 0.34913(19)
H10 H -0.6957 0.0545 0.3764
H11 H -0.5160 -0.0184 0.3696
H12 H -0.6182 0.0339 0.2973
loop_
_geom_bond_atom_site_label_1
_geom_bond_atom_site_label_2
_geom_bond_site_symmetry_1
_geom_bond_site_symmetry_2
Fe1 Cl1 1_555 1_555
Cl2 Fe1 1_555 1_555
O1 Fe1 1_555 1_555
O2 Fe1 1_555 1_555
O3 C2 1_555 1_555
O4 C1 1_555 1_555
C1 O1 1_555 1_555
C2 O2 1_555 1_555
N1 C3 1_555 1_555
C3 H1 1_555 1_555
H2 C3 1_555 1_555
H3 C3 1_555 1_555
C4 N1 1_555 1_555
H4 C4 1_555 1_555
H5 C4 1_555 1_555
H6 C4 1_555 1_555
C5 N1 1_555 1_555
H7 C5 1_555 1_555
H8 C5 1_555 1_555
H9 C5 1_555 1_555
C6 N1 1_555 1_555
H10 C6 1_555 1_555
H11 C6 1_555 1_555
H12 C6 1_555 1_555
Fe1B O4 1_555 1_555
Fe1B_2 O3 1_555 1_555
Cl1B Fe1B 1_555 1_555
Cl2B Fe1B 1_555 1_555
O1B Fe1B 1_555 1_555
O2B Fe1B_2 1_555 1_555
O2B_2 Fe1B 1_555 1_555
O3B Fe1 1_555 1_555
O3_2 Fe1B 1_555 1_555
O4B Fe1 1_555 1_555
C1B C1 1_555 1_555
C2B C2 1_555 1_555
O1B C1B 1_555 1_555
O2B C2B 1_555 1_555
O3B C2B 1_555 1_555
O4B C1B 1_555 1_555

#END
