
#######################################################################
#
#                 Cambridge Crystallographic Data Centre
#                                CCDC 
#
#######################################################################
#
# If this CIF has been generated from an entry in the Cambridge 
# Structural Database, then it will include bibliographic, chemical, 
# crystal, experimental, refinement or atomic coordinate data resulting 
# from the CCDC's data processing and validation procedures.
#
#######################################################################

data_HICKOU
_symmetry_cell_setting           triclinic
_symmetry_space_group_name_H-M   'P -1'
_symmetry_Int_Tables_number      2
_space_group_name_Hall           '-P 1'
loop_
_symmetry_equiv_pos_site_id
_symmetry_equiv_pos_as_xyz
1 x,y,z
2 -x,-y,-z
_cell_length_a                   10.9609(3)
_cell_length_b                   14.4602(4)
_cell_length_c                   14.5780(4)
_cell_angle_alpha                85.006(2)
_cell_angle_beta                 78.845(2)
_cell_angle_gamma                83.0191(12)
_cell_volume                     2245.31
loop_
_atom_site_label
_atom_site_type_symbol
_atom_site_fract_x
_atom_site_fract_y
_atom_site_fract_z
Fe1 Fe 0.09480(11) 0.98780(8) 0.16367(8)
Fe2 Fe 0.23571(10) 1.33711(8) 0.16307(8)
Fe3 Fe 0.41624(10) 1.33145(8) 0.48831(7)
Cl1 Cl 0.2610(2) 0.90109(19) 0.20822(18)
Cl2 Cl -0.0619(2) 0.9134(2) 0.2479(2)
Cl3 Cl 0.0660(2) 1.40973(19) 0.11110(19)
Cl4 Cl 0.3859(2) 1.41452(17) 0.07044(17)
Cl5 Cl 0.5791(2) 1.24085(18) 0.5490(2)
Cl6 Cl 0.2549(2) 1.25384(19) 0.57921(19)
O1 O 0.2121(5) 1.0832(4) 0.0781(3)
O2 O 0.0719(5) 1.0973(4) 0.2467(3)
O3 O 0.1221(5) 1.2403(4) 0.2498(3)
O4 O 0.2657(5) 1.2245(4) 0.0804(3)
O5 O 0.2131(5) 1.4097(3) 0.2785(4)
O6 O 0.3704(5) 1.2597(3) 0.2345(4)
O7 O 0.2843(5) 1.4118(3) 0.4120(4)
O8 O 0.4391(5) 1.2571(3) 0.3691(4)
O9 O 0.1121(5) 0.9223(3) 0.0424(4)
O10 O 0.0418(5) 0.9272(3) -0.0910(4)
O11 O 0.3934(5) 1.4347(4) 0.5786(4)
O12 O 0.4588(5) 1.5772(4) 0.5898(4)
C1 C 0.2107(7) 1.1575(6) 0.1146(5)
C2 C 0.1291(7) 1.1674(6) 0.2130(6)
C3 C 0.2832(7) 1.3794(5) 0.3369(6)
C4 C 0.3714(7) 1.2901(5) 0.3112(6)
C5 C 0.0448(7) 0.9568(5) -0.0141(6)
C6 C 0.4542(8) 1.5018(7) 0.5498(5)
Fe1A Fe -0.09480(11) 1.01220(8) -0.16367(8)
Fe2A Fe -0.23571(10) 0.66289(8) -0.16307(8)
Fe3A Fe -0.41624(10) 0.66855(8) -0.48831(7)
Fe3A_2 Fe 0.58376(10) 1.66855(8) 0.51169(7)
Cl1A Cl -0.2610(2) 1.09891(19) -0.20822(18)
Cl2A Cl 0.0619(2) 1.0866(2) -0.2479(2)
Cl3A Cl -0.0660(2) 0.59027(19) -0.11110(19)
Cl4A Cl -0.3859(2) 0.58548(17) -0.07044(17)
Cl5A Cl -0.5791(2) 0.75915(18) -0.5490(2)
Cl6A Cl -0.2549(2) 0.74616(19) -0.57921(19)
O1A O -0.2121(5) 0.9168(4) -0.0781(3)
O2A O -0.0719(5) 0.9027(4) -0.2467(3)
O3A O -0.1221(5) 0.7597(4) -0.2498(3)
O4A O -0.2657(5) 0.7755(4) -0.0804(3)
O5A O -0.2131(5) 0.5903(3) -0.2785(4)
O6A O -0.3704(5) 0.7403(3) -0.2345(4)
O7A O -0.2843(5) 0.5882(3) -0.4120(4)
O8A O -0.4391(5) 0.7429(3) -0.3691(4)
O9A O -0.1121(5) 1.0777(3) -0.0424(4)
O10A O -0.0418(5) 1.0728(3) 0.0910(4)
O11A O 0.6066(5) 1.5653(4) 0.4214(4)
O11A_2 O -0.3934(5) 0.5653(4) -0.5786(4)
O12A O 0.5412(5) 1.4228(4) 0.4102(4)
O12_2 O -0.5412(5) 0.5772(4) -0.4102(4)
C1A C -0.2107(7) 0.8425(6) -0.1146(5)
C2A C -0.1291(7) 0.8326(6) -0.2130(6)
C3A C -0.2832(7) 0.6206(5) -0.3369(6)
C4A C -0.3714(7) 0.7099(5) -0.3112(6)
C5A C -0.0448(7) 1.0432(5) 0.0141(6)
C6A C 0.5458(8) 1.4982(7) 0.4502(5)
C7 C -0.3693(11) 1.2028(8) 0.0417(8)
H1 H -0.3403 1.2029 -0.0255
H2 H -0.4405 1.2499 0.0532
C8 C -0.4120(10) 1.1086(8) 0.0768(9)
H3 H -0.4779 1.0969 0.0460
H4 H -0.4421 1.1080 0.1432
H5 H -0.3430 1.0611 0.0636
C9 C -0.3224(11) 1.2517(10) 0.1835(8)
H6 H -0.3822 1.2081 0.2106
H7 H -0.3666 1.3140 0.1835
C10 C -0.2242(13) 1.2466(14) 0.2413(10)
H8 H -0.2622 1.2602 0.3044
H9 H -0.1666 1.2914 0.2159
H10 H -0.1801 1.1851 0.2411
C11 C -0.227(2) 1.3205(13) 0.0441(13)
H11 H -0.3017 1.3638 0.0436
H12 H -0.1807 1.3431 0.0864
C12 C -0.155(2) 1.3263(16) -0.0450(13)
H13 H -0.1369 1.3896 -0.0616
H14 H -0.1993 1.3066 -0.0891
H15 H -0.0775 1.2866 -0.0460
N1 N -0.2678(8) 1.2291(6) 0.0857(7)
H46 H -0.2024 1.1835 0.0830
C13 C 0.0876(17) 1.7995(11) 0.4354(12)
H16 H 0.0482 1.8181 0.3816
H17 H 0.1761 1.8055 0.4152
C14 C 0.0386(18) 1.8673(10) 0.5053(12)
H18 H 0.0516 1.9290 0.4781
H19 H 0.0812 1.8541 0.5574
H20 H -0.0493 1.8634 0.5266
C15 C 0.0254(16) 1.6691(13) 0.5463(10)
H21 H -0.0521 1.6443 0.5436
H22 H 0.0058 1.7187 0.5891
C16 C 0.1113(13) 1.5937(11) 0.5836(11)
H23 H 0.0713 1.5698 0.6439
H24 H 0.1866 1.6185 0.5894
H25 H 0.1314 1.5443 0.5415
C17 C 0.116(2) 1.6377(13) 0.3867(10)
H26 H 0.2067 1.6267 0.3800
H27 H 0.0843 1.5801 0.4148
C18 C 0.0928(18) 1.6469(13) 0.3006(12)
H28 H 0.1313 1.5930 0.2676
H29 H 0.1260 1.7018 0.2684
H30 H 0.0041 1.6524 0.3031
N2 N 0.0756(17) 1.7065(9) 0.4570(8)
H47 H -0.0019 1.7146 0.4419
C19 C 0.412(2) 1.2313(12) 0.8451(16)
H31 H 0.5026 1.2223 0.8295
H32 H 0.3874 1.2426 0.9110
C20 C 0.3586(19) 1.1497(14) 0.8241(15)
H33 H 0.3898 1.0955 0.8590
H34 H 0.3818 1.1406 0.7583
H35 H 0.2691 1.1592 0.8412
C21 C 0.2286(17) 1.3289(17) 0.8397(16)
H36 H 0.1895 1.2716 0.8442
H37 H 0.2317 1.3438 0.9027
C22 C 0.156(2) 1.4003(16) 0.7992(18)
H38 H 0.0716 1.4041 0.8338
H39 H 0.1561 1.3878 0.7356
H40 H 0.1893 1.4585 0.8003
C23 C 0.4254(19) 1.3902(14) 0.8073(14)
H41 H 0.3863 1.4484 0.7828
H42 H 0.4112 1.3922 0.8749
C24 C 0.5567(17) 1.3863(17) 0.7731(13)
H43 H 0.5883 1.4390 0.7925
H44 H 0.5726 1.3875 0.7060
H45 H 0.5976 1.3297 0.7978
N3 N 0.3606(14) 1.3131(9) 0.7851(8)
H48 H 0.3681 1.3040 0.7232
loop_
_geom_bond_atom_site_label_1
_geom_bond_atom_site_label_2
_geom_bond_site_symmetry_1
_geom_bond_site_symmetry_2
Fe1 Cl1 1_555 1_555
Fe2 Cl3 1_555 1_555
Fe3 Cl5 1_555 1_555
Cl2 Fe1 1_555 1_555
Cl4 Fe2 1_555 1_555
Cl6 Fe3 1_555 1_555
O1 Fe1 1_555 1_555
O2 Fe1 1_555 1_555
O3 Fe2 1_555 1_555
O4 Fe2 1_555 1_555
O5 Fe2 1_555 1_555
O6 Fe2 1_555 1_555
O7 Fe3 1_555 1_555
O8 Fe3 1_555 1_555
O9 Fe1 1_555 1_555
O10 C5 1_555 1_555
O11 Fe3 1_555 1_555
O12 C6 1_555 1_555
C1 O1 1_555 1_555
C2 O2 1_555 1_555
C3 O5 1_555 1_555
C4 O6 1_555 1_555
C5 O9 1_555 1_555
C6 O11 1_555 1_555
C7 H1 1_555 1_555
H2 C7 1_555 1_555
C8 C7 1_555 1_555
H3 C8 1_555 1_555
H4 C8 1_555 1_555
H5 C8 1_555 1_555
C9 H6 1_555 1_555
H7 C9 1_555 1_555
C10 C9 1_555 1_555
H8 C10 1_555 1_555
H9 C10 1_555 1_555
H10 C10 1_555 1_555
C11 H11 1_555 1_555
H12 C11 1_555 1_555
C12 C11 1_555 1_555
H13 C12 1_555 1_555
H14 C12 1_555 1_555
H15 C12 1_555 1_555
C13 H16 1_555 1_555
H17 C13 1_555 1_555
C14 C13 1_555 1_555
H18 C14 1_555 1_555
H19 C14 1_555 1_555
H20 C14 1_555 1_555
C15 H21 1_555 1_555
H22 C15 1_555 1_555
C16 C15 1_555 1_555
H23 C16 1_555 1_555
H24 C16 1_555 1_555
H25 C16 1_555 1_555
C17 H26 1_555 1_555
H27 C17 1_555 1_555
C18 C17 1_555 1_555
H28 C18 1_555 1_555
H29 C18 1_555 1_555
H30 C18 1_555 1_555
C19 H31 1_555 1_555
H32 C19 1_555 1_555
C20 C19 1_555 1_555
H33 C20 1_555 1_555
H34 C20 1_555 1_555
H35 C20 1_555 1_555
C21 H36 1_555 1_555
H37 C21 1_555 1_555
C22 C21 1_555 1_555
H38 C22 1_555 1_555
H39 C22 1_555 1_555
H40 C22 1_555 1_555
C23 H41 1_555 1_555
H42 C23 1_555 1_555
C24 C23 1_555 1_555
H43 C24 1_555 1_555
H44 C24 1_555 1_555
H45 C24 1_555 1_555
N1 C7 1_555 1_555
H46 N1 1_555 1_555
N2 C13 1_555 1_555
H47 N2 1_555 1_555
N3 C19 1_555 1_555
H48 N3 1_555 1_555
Fe1A O10 1_555 1_555
Fe2A Cl3A 1_555 1_555
Fe3A Cl5A 1_555 1_555
Fe3A_2 O12 1_555 1_555
Cl1A Fe1A 1_555 1_555
Cl2A Fe1A 1_555 1_555
Cl4A Fe2A 1_555 1_555
Cl6A Fe3A 1_555 1_555
O1A Fe1A 1_555 1_555
O2A Fe1A 1_555 1_555
O3A Fe2A 1_555 1_555
O4A Fe2A 1_555 1_555
O5A Fe2A 1_555 1_555
O6A Fe2A 1_555 1_555
O7A Fe3A 1_555 1_555
O8A Fe3A 1_555 1_555
O9A Fe1A 1_555 1_555
O10A Fe1 1_555 1_555
O11A Fe3A_2 1_555 1_555
O11A_2 Fe3A 1_555 1_555
O12A Fe3 1_555 1_555
O12_2 Fe3A 1_555 1_555
C1A O1A 1_555 1_555
C2A O2A 1_555 1_555
C3A O5A 1_555 1_555
C4A O6A 1_555 1_555
C5A C5 1_555 1_555
C6A C6 1_555 1_555
O3 C2 1_555 1_555
O4 C1 1_555 1_555
O7 C3 1_555 1_555
O8 C4 1_555 1_555
C1 C2 1_555 1_555
C3 C4 1_555 1_555
C9 N1 1_555 1_555
C11 N1 1_555 1_555
C15 N2 1_555 1_555
C17 N2 1_555 1_555
C21 N3 1_555 1_555
C23 N3 1_555 1_555
O3A C2A 1_555 1_555
O4A C1A 1_555 1_555
O7A C3A 1_555 1_555
O8A C4A 1_555 1_555
O9A C5A 1_555 1_555
O10A C5A 1_555 1_555
O11A C6A 1_555 1_555
O12A C6A 1_555 1_555
C1A C2A 1_555 1_555
C3A C4A 1_555 1_555

#END
