
#######################################################################
#
#                 Cambridge Crystallographic Data Centre
#                                CCDC 
#
#######################################################################
#
# If this CIF has been generated from an entry in the Cambridge 
# Structural Database, then it will include bibliographic, chemical, 
# crystal, experimental, refinement or atomic coordinate data resulting 
# from the CCDC's data processing and validation procedures.
#
#######################################################################

data_HICKUA01
_symmetry_cell_setting           monoclinic
_symmetry_space_group_name_H-M   'P 21/c'
_symmetry_Int_Tables_number      14
_space_group_name_Hall           '-P 2ybc'
loop_
_symmetry_equiv_pos_site_id
_symmetry_equiv_pos_as_xyz
1 x,y,z
2 -x,1/2+y,1/2-z
3 -x,-y,-z
4 x,1/2-y,1/2+z
_cell_length_a                   7.8875(16)
_cell_length_b                   8.5335(17)
_cell_length_c                   17.496(4)
_cell_angle_alpha                90
_cell_angle_beta                 91.17(3)
_cell_angle_gamma                90
_cell_volume                     1177.37
loop_
_atom_site_label
_atom_site_type_symbol
_atom_site_fract_x
_atom_site_fract_y
_atom_site_fract_z
Fe1 Fe 0.41712(10) 0.24948(10) 0.40850(5)
Cl1 Cl 0.50191(19) 0.14850(19) 0.29814(9)
Cl2 Cl 0.15571(18) 0.34440(19) 0.37361(9)
O1 O 0.3799(5) 0.3379(5) 0.5228(2)
O2 O 0.6296(5) 0.1492(5) 0.4668(2)
O3 O 0.4523(5) 0.5462(5) 0.5941(2)
O4 O 0.6905(5) -0.0498(5) 0.5461(2)
C1 C 0.5910(7) 0.0286(7) 0.5032(4)
C3 C 0.4508(7) 0.4661(8) 0.5345(3)
Fe1B Fe 0.58288(10) 0.75052(10) 0.59150(5)
Fe1B_2 Fe 0.58288(10) -0.24948(10) 0.59150(5)
Cl1B Cl 0.49809(19) 0.85150(19) 0.70186(9)
Cl2B Cl 0.84429(18) 0.65560(19) 0.62639(9)
O1B O 0.6201(5) 0.6621(5) 0.4772(2)
O2B O 0.3704(5) -0.1492(5) 0.5332(2)
O2B_2 O 0.3704(5) 0.8508(5) 0.5332(2)
O3B O 0.5477(5) 0.4538(5) 0.4059(2)
O4B O 0.3095(5) 0.0498(5) 0.4539(2)
O4_2 O 0.6905(5) 0.9502(5) 0.5461(2)
C1B C 0.4090(7) -0.0286(7) 0.4968(4)
C3B C 0.5492(7) 0.5339(8) 0.4655(3)
N1 N 0.0128(6) 0.2149(6) 0.6458(3)
C2 C -0.0188(7) 0.2480(7) 0.5630(3)
H1 H -0.0634 0.3521 0.5571
H2 H -0.0989 0.1737 0.5424
H3 H 0.0858 0.2396 0.5361
C4 C 0.0848(8) 0.0524(8) 0.6537(4)
H4 H 0.1895 0.0461 0.6268
H5 H 0.0056 -0.0221 0.6326
H6 H 0.1054 0.0294 0.7068
C5 C -0.1494(7) 0.2218(7) 0.6879(4)
H7 H -0.1965 0.3252 0.6837
H8 H -0.1282 0.1972 0.7408
H9 H -0.2280 0.1472 0.6663
C6 C 0.1353(7) 0.3297(8) 0.6790(3)
H10 H 0.0898 0.4336 0.6738
H11 H 0.2404 0.3231 0.6525
H12 H 0.1548 0.3067 0.7321
loop_
_geom_bond_atom_site_label_1
_geom_bond_atom_site_label_2
_geom_bond_site_symmetry_1
_geom_bond_site_symmetry_2
Fe1 Cl1 1_555 1_555
Cl2 Fe1 1_555 1_555
O1 Fe1 1_555 1_555
O2 Fe1 1_555 1_555
O3 C3 1_555 1_555
N1 C2 1_555 1_555
O4 C1 1_555 1_555
C1 O2 1_555 1_555
C2 H1 1_555 1_555
H2 C2 1_555 1_555
H3 C2 1_555 1_555
C3 O1 1_555 1_555
C4 N1 1_555 1_555
H4 C4 1_555 1_555
H5 C4 1_555 1_555
H6 C4 1_555 1_555
C5 N1 1_555 1_555
H7 C5 1_555 1_555
H8 C5 1_555 1_555
H9 C5 1_555 1_555
C6 N1 1_555 1_555
H10 C6 1_555 1_555
H11 C6 1_555 1_555
H12 C6 1_555 1_555
Fe1B O3 1_555 1_555
Fe1B_2 O4 1_555 1_555
Cl1B Fe1B 1_555 1_555
Cl2B Fe1B 1_555 1_555
O1B Fe1B 1_555 1_555
O2B Fe1B_2 1_555 1_555
O2B_2 Fe1B 1_555 1_555
O3B Fe1 1_555 1_555
O4B Fe1 1_555 1_555
O4_2 Fe1B 1_555 1_555
C1B C1 1_555 1_555
C3B C3 1_555 1_555
O1B C3B 1_555 1_555
O2B C1B 1_555 1_555
O3B C3B 1_555 1_555
O4B C1B 1_555 1_555

#END
