
#######################################################################
#
#                 Cambridge Crystallographic Data Centre
#                                CCDC 
#
#######################################################################
#
# If this CIF has been generated from an entry in the Cambridge 
# Structural Database, then it will include bibliographic, chemical, 
# crystal, experimental, refinement or atomic coordinate data resulting 
# from the CCDC's data processing and validation procedures.
#
#######################################################################

data_HICKUB
_symmetry_cell_setting           monoclinic
_symmetry_space_group_name_H-M   'P 21/c'
_symmetry_Int_Tables_number      14
_space_group_name_Hall           '-P 2ybc'
loop_
_symmetry_equiv_pos_site_id
_symmetry_equiv_pos_as_xyz
1 x,y,z
2 -x,1/2+y,1/2-z
3 -x,-y,-z
4 x,1/2-y,1/2+z
_cell_length_a                   7.5016(11)
_cell_length_b                   23.386(3)
_cell_length_c                   15.590(2)
_cell_angle_alpha                90
_cell_angle_beta                 98.300(3)
_cell_angle_gamma                90
_cell_volume                     2706.34
loop_
_atom_site_label
_atom_site_type_symbol
_atom_site_fract_x
_atom_site_fract_y
_atom_site_fract_z
C1 C 0.6299(5) -0.04008(15) 0.1763(2)
H1 H 0.6122 -0.0496 0.1178
C2 C 0.6444(7) -0.08282(16) 0.2361(2)
H2 H 0.6345 -0.1207 0.2178
C3 C 0.6733(6) -0.07072(16) 0.3232(3)
H3 H 0.6846 -0.0998 0.3643
C4 C 0.6851(5) -0.01395(14) 0.3474(2)
C5 C 0.6682(5) 0.02703(14) 0.2826(2)
H4 H 0.6773 0.0653 0.2991
C6 C 0.7643(5) -0.02289(15) 0.5063(2)
C7 C 0.7913(5) 0.01304(14) 0.5870(2)
C8 C 0.8324(6) -0.01244(16) 0.6671(2)
H5 H 0.8423 -0.0520 0.6723
C9 C 0.8585(6) 0.02219(17) 0.7394(3)
H6 H 0.8858 0.0063 0.7944
C10 C 0.8436(6) 0.08078(16) 0.7293(2)
H7 H 0.8620 0.1050 0.7770
C11 C 0.8007(5) 0.10250(14) 0.6464(2)
C12 C 0.7851(5) 0.16609(15) 0.6326(2)
C13 C 0.7090(5) 0.23748(14) 0.5156(2)
C14 C 0.6976(5) 0.28588(14) 0.5649(2)
H8 H 0.7076 0.2821 0.6247
C15 C 0.6686(6) 0.29699(16) 0.3907(2)
H9 H 0.6589 0.3021 0.3311
C16 C 0.6583(5) 0.34278(15) 0.4442(2)
H10 H 0.6406 0.3789 0.4195
C17 C 0.3988(5) 0.16732(14) 0.2065(2)
C18 C 0.3043(4) 0.19203(14) 0.1232(2)
C19 C 0.2811(6) 0.25120(15) 0.1186(3)
H11 H 0.3147 0.2734 0.1678
C20 C 0.2089(6) 0.27714(19) 0.0418(3)
H12 H 0.1976 0.3167 0.0386
C21 C 0.1543(7) 0.2439(2) -0.0295(3)
H13 H 0.1077 0.2612 -0.0816
C22 C 0.1675(6) 0.18520(19) -0.0249(3)
H14 H 0.1246 0.1633 -0.0732
C23 C 0.2446(4) 0.15820(15) 0.0514(2)
C24 C 0.2490(5) 0.09421(15) 0.0524(2)
C25 C 0.6934(5) 0.24315(15) 0.4262(2)
H15 H 0.6995 0.2113 0.3910
N1 N 0.6401(4) 0.01526(11) 0.19866(17)
N2 N 0.7127(5) 0.00671(12) 0.43283(18)
H16 H 0.6944 0.0427 0.4390
N3 N 0.7735(4) 0.06971(12) 0.57615(17)
N4 N 0.7310(4) 0.18178(12) 0.55054(17)
H17 H 0.7063 0.1543 0.5141
N5 N 0.6726(4) 0.33815(11) 0.53015(17)
O1 O 0.5283(3) 0.13389(10) 0.20277(14)
O2 O 0.8984(3) 0.10429(10) 0.17781(16)
H18 H 0.9796 0.1032 0.1428
H19 H 0.9028 0.1381 0.2018
O3 O 0.3899(3) 0.06719(10) 0.04455(16)
O4 O 0.7505(3) 0.03807(10) 0.01841(16)
H20 H 0.8684 0.0366 0.0310
H21 H 0.7102 0.0027 0.0175
O5 O 0.1067(4) 0.06899(13) 0.0587(3)
O6 O 0.3494(4) 0.18245(12) 0.27558(15)
O7 O 0.7888(4) -0.07458(10) 0.50858(17)
O8 O 0.8211(4) 0.19872(11) 0.69372(16)
Co1 Co 0.64020(6) 0.088522(18) 0.11079(3)
N5C N 0.6726(4) 0.16185(11) 0.03015(17)
Co1C Co 0.64020(6) 0.411478(18) 0.61079(3)
O9 O 0.9882(4) 0.20041(12) 0.26923(19)
H22 H 1.1022 0.1970 0.2754
H23 H 0.9573 0.2313 0.2425
O10 O 0.5104(4) 0.11790(12) 0.41364(17)
H24 H 0.4224 0.1050 0.4366
H25 H 0.4707 0.1390 0.3707
loop_
_geom_bond_atom_site_label_1
_geom_bond_atom_site_label_2
_geom_bond_site_symmetry_1
_geom_bond_site_symmetry_2
C1 H1 1_555 1_555
C2 C1 1_555 1_555
H2 C2 1_555 1_555
C3 C2 1_555 1_555
H3 C3 1_555 1_555
C4 C3 1_555 1_555
C5 C4 1_555 1_555
H4 C5 1_555 1_555
C6 C7 1_555 1_555
C7 C8 1_555 1_555
C8 H5 1_555 1_555
C9 C8 1_555 1_555
H6 C9 1_555 1_555
C10 C9 1_555 1_555
H7 C10 1_555 1_555
C11 C10 1_555 1_555
C12 C11 1_555 1_555
C13 C14 1_555 1_555
C14 H8 1_555 1_555
C15 H9 1_555 1_555
C16 C15 1_555 1_555
H10 C16 1_555 1_555
C17 C18 1_555 1_555
C18 C19 1_555 1_555
C19 H11 1_555 1_555
C20 C19 1_555 1_555
H12 C20 1_555 1_555
C21 C20 1_555 1_555
H13 C21 1_555 1_555
C22 C21 1_555 1_555
H14 C22 1_555 1_555
C23 C18 1_555 1_555
C24 C23 1_555 1_555
C25 C13 1_555 1_555
H15 C25 1_555 1_555
N1 C1 1_555 1_555
N2 C4 1_555 1_555
H16 N2 1_555 1_555
N3 C7 1_555 1_555
N4 C12 1_555 1_555
H17 N4 1_555 1_555
N5 C14 1_555 1_555
O1 C17 1_555 1_555
O2 H18 1_555 1_555
H19 O2 1_555 1_555
O3 C24 1_555 1_555
O4 H20 1_555 1_555
H21 O4 1_555 1_555
O5 C24 1_555 1_555
O6 C17 1_555 1_555
O7 C6 1_555 1_555
O8 C12 1_555 1_555
Co1 N1 1_555 1_555
O9 H22 1_555 1_555
H23 O9 1_555 1_555
O10 H24 1_555 1_555
H25 O10 1_555 1_555
N5C Co1 1_555 1_555
Co1C N5 1_555 1_555
C5 N1 1_555 1_555
C6 N2 1_555 1_555
C11 N3 1_555 1_555
C13 N4 1_555 1_555
C15 C25 1_555 1_555
C16 N5 1_555 1_555
C22 C23 1_555 1_555
O1 Co1 1_555 1_555
O2 Co1 1_555 1_555
O3 Co1 1_555 1_555
O4 Co1 1_555 1_555

#END
