
#######################################################################
#
#                 Cambridge Crystallographic Data Centre
#                                CCDC 
#
#######################################################################
#
# If this CIF has been generated from an entry in the Cambridge 
# Structural Database, then it will include bibliographic, chemical, 
# crystal, experimental, refinement or atomic coordinate data resulting 
# from the CCDC's data processing and validation procedures.
#
#######################################################################

data_HICLAH
_symmetry_cell_setting           monoclinic
_symmetry_space_group_name_H-M   'P 21/c'
_symmetry_Int_Tables_number      14
_space_group_name_Hall           '-P 2ybc'
loop_
_symmetry_equiv_pos_site_id
_symmetry_equiv_pos_as_xyz
1 x,y,z
2 -x,1/2+y,1/2-z
3 -x,-y,-z
4 x,1/2-y,1/2+z
_cell_length_a                   8.8836(4)
_cell_length_b                   15.1939(8)
_cell_length_c                   17.9685(12)
_cell_angle_alpha                90
_cell_angle_beta                 91.556(2)
_cell_angle_gamma                90
_cell_volume                     2424.43
loop_
_atom_site_label
_atom_site_type_symbol
_atom_site_fract_x
_atom_site_fract_y
_atom_site_fract_z
Fe1 Fe 0.24497(9) 0.02455(6) 0.91276(5)
Cl1 Cl 0.15407(19) -0.03637(13) 0.80686(10)
Cl2 Cl 0.34419(19) 0.14890(13) 0.86534(11)
C4 C 0.0250(8) -0.0463(4) 1.0086(4)
C7 C 0.4716(8) 0.0309(4) 1.0298(4)
O1 O 0.1423(4) -0.0741(3) 0.9793(2)
O2 O 0.3416(4) 0.0622(3) 1.0185(2)
O3 O 0.5592(4) 0.0481(3) 1.0829(2)
O4 O -0.0574(4) -0.0899(3) 1.0533(3)
Fe1B Fe -0.24497(9) -0.02455(6) 1.08724(5)
Fe1B_2 Fe 0.75503(9) -0.02455(6) 1.08724(5)
Cl1B Cl -0.15407(19) 0.03637(13) 1.19314(10)
Cl2B Cl -0.34419(19) -0.14890(13) 1.13466(11)
C4B C -0.0250(8) 0.0463(4) 0.9914(4)
C7B C 0.5284(8) -0.0309(4) 0.9702(4)
O1B O -0.1423(4) 0.0741(3) 1.0207(2)
O2B O 0.6584(4) -0.0622(3) 0.9815(2)
O2B_2 O -0.3416(4) -0.0622(3) 0.9815(2)
O3B O 0.4408(4) -0.0481(3) 0.9171(2)
O3_2 O -0.4408(4) 0.0481(3) 1.0829(2)
O4B O 0.0574(4) 0.0899(3) 0.9467(3)
C1 C 0.0497(8) -0.2812(5) 0.7900(4)
H1 H 0.0342 -0.2220 0.7711
H2 H 0.1134 -0.2774 0.8346
C2 C -0.3068(8) -0.1641(5) 0.7647(5)
H3 H -0.2517 -0.1910 0.7247
H4 H -0.4028 -0.1940 0.7681
C3 C -0.0983(8) -0.3200(4) 0.8093(4)
H5 H -0.0808 -0.3782 0.8301
H6 H -0.1583 -0.3272 0.7638
C5 C -0.2181(7) -0.1738(4) 0.8373(4)
H7 H -0.1217 -0.1449 0.8320
H8 H -0.2715 -0.1426 0.8756
C6 C -0.1082(8) -0.2601(5) 0.9395(4)
H9 H -0.1695 -0.2245 0.9716
H10 H -0.0146 -0.2285 0.9327
C8 C -0.0712(8) -0.3453(5) 0.9800(5)
H11 H -0.1601 -0.3824 0.9807
H12 H 0.0066 -0.3767 0.9540
C9 C -0.4480(10) -0.2732(5) 0.9258(5)
H13 H -0.3930 -0.2562 0.9710
H14 H -0.4904 -0.2204 0.9034
C10 C -0.3389(8) -0.3156(4) 0.8718(4)
H15 H -0.3882 -0.3193 0.8231
H16 H -0.3177 -0.3752 0.8884
C11 C -0.3323(10) -0.0697(6) 0.7481(5)
H17 H -0.3741 -0.0418 0.7915
H18 H -0.2360 -0.0421 0.7391
C12 C -0.0179(9) -0.3264(6) 1.0584(5)
H19 H -0.0960 -0.2951 1.0844
H20 H 0.0705 -0.2890 1.0576
C13 C 0.2695(9) -0.3017(6) 0.7080(5)
H21 H 0.3093 -0.3419 0.6724
H22 H 0.3389 -0.2963 0.7497
H23 H 0.2549 -0.2451 0.6852
C14 C 0.1266(9) -0.3345(6) 0.7335(5)
H24 H 0.1429 -0.3930 0.7538
H25 H 0.0589 -0.3404 0.6905
C15 C 0.0204(10) -0.4113(6) 1.1000(5)
H26 H 0.0535 -0.3977 1.1499
H27 H 0.0992 -0.4417 1.0749
H28 H -0.0674 -0.4481 1.1011
C16 C -0.4313(11) -0.0542(6) 0.6851(6)
H29 H -0.4439 0.0081 0.6781
H30 H -0.5274 -0.0807 0.6937
H31 H -0.3889 -0.0794 0.6415
C17 C -0.5700(14) -0.3330(9) 0.9449(8)
H32 H -0.6476 -0.3241 0.9067
H33 H -0.5306 -0.3917 0.9369
C18 C -0.6255(19) -0.3366(19) 0.9935(9)
H34 H -0.6937 -0.3856 0.9917
H35 H -0.6810 -0.2832 1.0007
H36 H -0.5542 -0.3444 1.0341
N1 N -0.1891(6) -0.2665(4) 0.8643(3)
loop_
_geom_bond_atom_site_label_1
_geom_bond_atom_site_label_2
_geom_bond_site_symmetry_1
_geom_bond_site_symmetry_2
Fe1 Cl1 1_555 1_555
Cl2 Fe1 1_555 1_555
C1 H1 1_555 1_555
H2 C1 1_555 1_555
C2 H3 1_555 1_555
H4 C2 1_555 1_555
C3 C1 1_555 1_555
H5 C3 1_555 1_555
H6 C3 1_555 1_555
C4 O1 1_555 1_555
C5 C2 1_555 1_555
H7 C5 1_555 1_555
H8 C5 1_555 1_555
C6 H9 1_555 1_555
H10 C6 1_555 1_555
C7 O2 1_555 1_555
C8 C6 1_555 1_555
H11 C8 1_555 1_555
H12 C8 1_555 1_555
C9 H13 1_555 1_555
H14 C9 1_555 1_555
C10 C9 1_555 1_555
H15 C10 1_555 1_555
H16 C10 1_555 1_555
C11 C2 1_555 1_555
H17 C11 1_555 1_555
H18 C11 1_555 1_555
C12 C8 1_555 1_555
H19 C12 1_555 1_555
H20 C12 1_555 1_555
C13 H21 1_555 1_555
H22 C13 1_555 1_555
H23 C13 1_555 1_555
C14 C1 1_555 1_555
H24 C14 1_555 1_555
H25 C14 1_555 1_555
C15 C12 1_555 1_555
H26 C15 1_555 1_555
H27 C15 1_555 1_555
H28 C15 1_555 1_555
C16 C11 1_555 1_555
H29 C16 1_555 1_555
H30 C16 1_555 1_555
H31 C16 1_555 1_555
C17 C9 1_555 1_555
H32 C17 1_555 1_555
H33 C17 1_555 1_555
C18 C17 1_555 1_555
H34 C18 1_555 1_555
H35 C18 1_555 1_555
H36 C18 1_555 1_555
O1 Fe1 1_555 1_555
O2 Fe1 1_555 1_555
O3 C7 1_555 1_555
O4 C4 1_555 1_555
N1 C3 1_555 1_555
Fe1B O4 1_555 1_555
Fe1B_2 O3 1_555 1_555
Cl1B Fe1B 1_555 1_555
Cl2B Fe1B 1_555 1_555
C4B C4 1_555 1_555
C7B C7 1_555 1_555
O1B Fe1B 1_555 1_555
O2B Fe1B_2 1_555 1_555
O2B_2 Fe1B 1_555 1_555
O3B Fe1 1_555 1_555
O3_2 Fe1B 1_555 1_555
O4B Fe1 1_555 1_555
C5 N1 1_555 1_555
C6 N1 1_555 1_555
C10 N1 1_555 1_555
C13 C14 1_555 1_555
C4B O1B 1_555 1_555
C4B O4B 1_555 1_555
C7B O2B 1_555 1_555
C7B O3B 1_555 1_555

#END
