
#######################################################################
#
#                 Cambridge Crystallographic Data Centre
#                                CCDC 
#
#######################################################################
#
# If this CIF has been generated from an entry in the Cambridge 
# Structural Database, then it will include bibliographic, chemical, 
# crystal, experimental, refinement or atomic coordinate data resulting 
# from the CCDC's data processing and validation procedures.
#
#######################################################################

data_HICLEM
_symmetry_cell_setting           triclinic
_symmetry_space_group_name_H-M   'P -1'
_symmetry_Int_Tables_number      2
_space_group_name_Hall           '-P 1'
loop_
_symmetry_equiv_pos_site_id
_symmetry_equiv_pos_as_xyz
1 x,y,z
2 -x,-y,-z
_cell_length_a                   9.5048(2)
_cell_length_b                   13.6516(3)
_cell_length_c                   14.6225(4)
_cell_angle_alpha                76.8679(4)
_cell_angle_beta                 86.6949(4)
_cell_angle_gamma                82.0230(10)
_cell_volume                     1829.18
loop_
_atom_site_label
_atom_site_type_symbol
_atom_site_fract_x
_atom_site_fract_y
_atom_site_fract_z
Co1 Co 0.45131(2) 0.057338(14) 0.842727(12)
O1 O 0.81595(14) -0.00534(10) 0.40295(8)
N1 N 0.52123(14) 0.06865(9) 0.69922(9)
C1 C 0.63014(17) 0.00724(12) 0.67329(10)
H1 H 0.6796 -0.0411 0.7197
N2 N 0.78747(16) -0.05830(11) 0.56163(9)
H2 H 0.8216 -0.1029 0.6093
O2 O 1.31381(15) -0.36662(10) 0.66431(10)
C2 C 0.45054(17) 0.13894(12) 0.63210(11)
H3 H 0.3752 0.1828 0.6495
O3 O 0.33610(11) -0.01714(8) 1.11554(7)
N3 N 1.03974(14) -0.18209(10) 0.55845(9)
C3 C 0.48660(19) 0.14789(13) 0.53805(11)
H4 H 0.4352 0.1969 0.4931
O4 O 0.36675(11) 0.07276(8) 0.97095(7)
N4 N 1.22690(15) -0.21252(10) 0.69594(9)
H5 H 1.1591 -0.1634 0.6819
C4 C 0.59839(18) 0.08441(13) 0.51071(11)
H6 H 0.6234 0.0897 0.4475
O5 O -0.24437(11) -0.10654(8) 1.20201(7)
N5 N 1.41285(14) -0.09970(9) 0.84947(9)
C5 C 0.67328(17) 0.01202(12) 0.57988(10)
O6 O -0.05532(12) -0.21522(8) 1.18073(8)
N6 N 0.48640(14) 0.21881(10) 0.82886(9)
C6 C 0.84973(17) -0.06357(12) 0.47710(10)
O7 O 0.31850(18) 0.48698(11) 0.99968(11)
N7 N 0.26652(16) 0.45153(10) 0.86201(10)
H7 H 0.2031 0.4621 0.8200
C7 C 0.96810(17) -0.14869(12) 0.47906(10)
N8 N 0.03584(16) 0.59140(10) 0.84490(10)
O8 O -0.24038(17) 0.75462(11) 0.71522(11)
C8 C 1.0006(2) -0.18640(14) 0.39840(12)
H8 H 0.9491 -0.1602 0.3441
N9 N -0.13271(18) 0.59843(12) 0.70298(11)
H9 H -0.0711 0.5481 0.7268
C9 C 1.1116(2) -0.26391(15) 0.40151(13)
H10 H 1.1350 -0.2920 0.3495
N10 N -0.1848(2) 0.57703(16) 0.46289(13)
C10 C 1.18734(19) -0.29918(14) 0.48282(13)
H11 H 1.2626 -0.3512 0.4865
C11 C 1.14882(16) -0.25522(12) 0.55938(11)
C12 C 1.23721(17) -0.28570(12) 0.64607(11)
C13 C 1.31595(16) -0.20865(11) 0.76858(10)
C14 C 1.39125(19) -0.29352(12) 0.82382(12)
H12 H 1.3858 -0.3582 0.8148
C15 C 1.4748(2) -0.27897(13) 0.89278(13)
H13 H 1.5253 -0.3345 0.9318
C16 C 1.48319(19) -0.18256(12) 0.90373(12)
H14 H 1.5399 -0.1745 0.9506
C17 C 1.32936(17) -0.11365(11) 0.78418(10)
H15 H 1.2777 -0.0570 0.7474
C18 C 0.61614(18) 0.24746(13) 0.82285(13)
H16 H 0.6937 0.2019 0.8112
C19 C 0.6399(2) 0.34178(14) 0.83316(16)
H17 H 0.7318 0.3588 0.8288
C20 C 0.5259(2) 0.41097(14) 0.85004(15)
H18 H 0.5398 0.4741 0.8593
C21 C 0.39104(18) 0.38355(12) 0.85266(11)
C22 C 0.37645(17) 0.28734(12) 0.84249(11)
H19 H 0.2853 0.2691 0.8453
C23 C 0.2416(2) 0.50063(12) 0.93283(12)
C24 C 0.1128(2) 0.57946(13) 0.92084(12)
C25 C 0.0820(3) 0.63936(17) 0.98638(16)
H20 H 0.1355 0.6276 1.0400
C26 C -0.0299(3) 0.7167(2) 0.97012(18)
H21 H -0.0525 0.7582 1.0127
C27 C -0.1076(3) 0.73192(17) 0.89070(17)
H22 H -0.1818 0.7847 0.8776
C28 C -0.0726(2) 0.66672(13) 0.83052(13)
C29 C -0.1568(2) 0.67820(14) 0.74427(13)
C30 C -0.2043(2) 0.59380(14) 0.62218(13)
C31 C -0.3491(2) 0.59734(18) 0.62135(17)
H23 H -0.4052 0.6045 0.6743
C32 C -0.4092(3) 0.59006(19) 0.5401(2)
H24 H -0.5070 0.5912 0.5378
C33 C -0.3251(3) 0.58111(17) 0.46295(17)
H25 H -0.3676 0.5777 0.4082
C34 C -0.1265(2) 0.58321(18) 0.54190(15)
H26 H -0.0283 0.5802 0.5428
C35 C 0.29344(14) 0.02314(10) 1.03371(9)
C36 C 0.14243(14) 0.01336(10) 1.01223(9)
C37 C 0.06421(15) -0.04472(11) 1.08258(9)
H27 H 0.1081 -0.0752 1.1391
C38 C -0.07568(14) -0.05972(10) 1.07320(9)
C39 C -0.13295(15) -0.13269(10) 1.15751(9)
O3A O -0.33610(11) 0.01714(8) 0.88446(7)
O4A O -0.36675(11) -0.07276(8) 1.02905(7)
O5A O 0.24437(11) 0.10654(8) 0.79799(7)
O6A O 0.05532(12) 0.21522(8) 0.81927(8)
C35A C -0.29344(14) -0.02314(10) 0.96629(9)
C36A C -0.14243(14) -0.01336(10) 0.98777(9)
C37A C -0.06421(15) 0.04472(11) 0.91742(9)
H27A H -0.1081 0.0752 0.8609
C38A C 0.07568(14) 0.05972(10) 0.92680(9)
C39A C 0.13295(15) 0.13269(10) 0.84249(9)
Co1A Co -0.45131(2) -0.057338(14) 1.157273(12)
O1A O -0.81595(14) 0.00534(10) 1.59705(8)
N1A N -0.52123(14) -0.06865(9) 1.30078(9)
C1A C -0.63014(17) -0.00724(12) 1.32671(10)
H1A H -0.6796 0.0411 1.2803
N2A N -0.78747(16) 0.05830(11) 1.43837(9)
H2A H -0.8216 0.1029 1.3907
O2A O -1.31381(15) 0.36662(10) 1.33569(10)
C2A C -0.45054(17) -0.13894(12) 1.36790(11)
H3A H -0.3752 -0.1828 1.3505
N3A N -1.03974(14) 0.18209(10) 1.44155(9)
C3A C -0.48660(19) -0.14789(13) 1.46195(11)
H4A H -0.4352 -0.1969 1.5069
N4A N -1.22690(15) 0.21252(10) 1.30406(9)
H5A H -1.1591 0.1634 1.3181
C4A C -0.59839(18) -0.08441(13) 1.48929(11)
H6A H -0.6234 -0.0897 1.5525
N5A N -1.41285(14) 0.09970(9) 1.15053(9)
C5A C -0.67328(17) -0.01202(12) 1.42012(10)
N6A N -0.48640(14) -0.21881(10) 1.17114(9)
C6A C -0.84973(17) 0.06357(12) 1.52290(10)
O7A O -0.31850(18) -0.48698(11) 1.00032(11)
N7A N -0.26652(16) -0.45153(10) 1.13799(10)
H7A H -0.2031 -0.4621 1.1800
C7A C -0.96810(17) 0.14869(12) 1.52094(10)
N8A N -0.03584(16) -0.59140(10) 1.15510(10)
O8A O 0.24038(17) -0.75462(11) 1.28478(11)
C8A C -1.0006(2) 0.18640(14) 1.60160(12)
H8A H -0.9491 0.1602 1.6559
N9A N 0.13271(18) -0.59843(12) 1.29702(11)
H9A H 0.0711 -0.5481 1.2732
C9A C -1.1116(2) 0.26391(15) 1.59849(13)
H10A H -1.1350 0.2920 1.6505
N10A N 0.1848(2) -0.57703(16) 1.53711(13)
C10A C -1.18734(19) 0.29918(14) 1.51718(13)
H11A H -1.2626 0.3512 1.5135
C11A C -1.14882(16) 0.25522(12) 1.44062(11)
C12A C -1.23721(17) 0.28570(12) 1.35393(11)
C13A C -1.31595(16) 0.20865(11) 1.23142(10)
C14A C -1.39125(19) 0.29352(12) 1.17618(12)
H12A H -1.3858 0.3582 1.1852
C15A C -1.4748(2) 0.27897(13) 1.10722(13)
H13A H -1.5253 0.3345 1.0682
C16A C -1.48319(19) 0.18256(12) 1.09627(12)
H14A H -1.5399 0.1745 1.0494
C17A C -1.32936(17) 0.11365(11) 1.21582(10)
H15A H -1.2777 0.0570 1.2526
C18A C -0.61614(18) -0.24746(13) 1.17715(13)
H16A H -0.6937 -0.2019 1.1888
C19A C -0.6399(2) -0.34178(14) 1.16684(16)
H17A H -0.7318 -0.3588 1.1712
C20A C -0.5259(2) -0.41097(14) 1.14996(15)
H18A H -0.5398 -0.4741 1.1407
C21A C -0.39104(18) -0.38355(12) 1.14734(11)
C22A C -0.37645(17) -0.28734(12) 1.15751(11)
H19A H -0.2853 -0.2691 1.1547
C23A C -0.2416(2) -0.50063(12) 1.06717(12)
C24A C -0.1128(2) -0.57946(13) 1.07916(12)
C25A C -0.0820(3) -0.63936(17) 1.01362(16)
H20A H -0.1355 -0.6276 0.9600
C26A C 0.0299(3) -0.7167(2) 1.02988(18)
H21A H 0.0525 -0.7582 0.9873
C27A C 0.1076(3) -0.73192(17) 1.10930(17)
H22A H 0.1818 -0.7847 1.1224
C28A C 0.0726(2) -0.66672(13) 1.16948(13)
C29A C 0.1568(2) -0.67820(14) 1.25573(13)
C30A C 0.2043(2) -0.59380(14) 1.37782(13)
C31A C 0.3491(2) -0.59734(18) 1.37865(17)
H23A H 0.4052 -0.6045 1.3257
C32A C 0.4092(3) -0.59006(19) 1.4599(2)
H24A H 0.5070 -0.5912 1.4622
C33A C 0.3251(3) -0.58111(17) 1.53705(17)
H25A H 0.3676 -0.5777 1.5918
C34A C 0.1265(2) -0.58321(18) 1.45810(15)
H26A H 0.0283 -0.5802 1.4572
Co1_2 Co -0.54869(2) 0.057338(14) 0.842727(12)
Co1_3 Co 1.45131(2) 0.057338(14) 0.842727(12)
Co1A_2 Co -1.45131(2) -0.057338(14) 1.157273(12)
Co1A_3 Co 0.54869(2) -0.057338(14) 1.157273(12)
O3_2 O -0.66390(11) -0.01714(8) 1.11554(7)
O3A_2 O 0.66390(11) 0.01714(8) 0.88446(7)
N5_2 N 0.41285(14) -0.09970(9) 0.84947(9)
N5A_2 N -0.41285(14) 0.09970(9) 1.15053(9)
O9 O 0.06804(17) 0.41319(10) 0.72427(10)
H28 H 0.0516 0.3530 0.7485
H29 H 0.1047 0.4138 0.6697
loop_
_geom_bond_atom_site_label_1
_geom_bond_atom_site_label_2
_geom_bond_site_symmetry_1
_geom_bond_site_symmetry_2
Co1 N1 1_555 1_555
O1 C6 1_555 1_555
N1 C1 1_555 1_555
C1 H1 1_555 1_555
N2 H2 1_555 1_555
O2 C12 1_555 1_555
C2 N1 1_555 1_555
H3 C2 1_555 1_555
O3 C35 1_555 1_555
N3 C7 1_555 1_555
C3 C2 1_555 1_555
H4 C3 1_555 1_555
O4 Co1 1_555 1_555
N4 H5 1_555 1_555
C4 C3 1_555 1_555
H6 C4 1_555 1_555
O5 C39 1_555 1_555
N5 C16 1_555 1_555
C5 C1 1_555 1_555
O6 C39 1_555 1_555
N6 Co1 1_555 1_555
C6 N2 1_555 1_555
O7 C23 1_555 1_555
N7 H7 1_555 1_555
C7 C6 1_555 1_555
N8 C24 1_555 1_555
O8 C29 1_555 1_555
C8 C7 1_555 1_555
H8 C8 1_555 1_555
N9 H9 1_555 1_555
C9 C8 1_555 1_555
H10 C9 1_555 1_555
N10 C33 1_555 1_555
C10 C9 1_555 1_555
H11 C10 1_555 1_555
C11 N3 1_555 1_555
C12 N4 1_555 1_555
C13 N4 1_555 1_555
C14 C13 1_555 1_555
H12 C14 1_555 1_555
C15 C14 1_555 1_555
H13 C15 1_555 1_555
C16 C15 1_555 1_555
H14 C16 1_555 1_555
C17 N5 1_555 1_555
H15 C17 1_555 1_555
C18 N6 1_555 1_555
H16 C18 1_555 1_555
C19 C18 1_555 1_555
H17 C19 1_555 1_555
C20 C19 1_555 1_555
H18 C20 1_555 1_555
C21 N7 1_555 1_555
C22 N6 1_555 1_555
H19 C22 1_555 1_555
C23 N7 1_555 1_555
C24 C23 1_555 1_555
C25 C24 1_555 1_555
H20 C25 1_555 1_555
C26 C25 1_555 1_555
H21 C26 1_555 1_555
C27 C26 1_555 1_555
H22 C27 1_555 1_555
C28 N8 1_555 1_555
C29 N9 1_555 1_555
C30 N9 1_555 1_555
C31 C30 1_555 1_555
H23 C31 1_555 1_555
C32 C31 1_555 1_555
H24 C32 1_555 1_555
C33 C32 1_555 1_555
H25 C33 1_555 1_555
C34 N10 1_555 1_555
H26 C34 1_555 1_555
C35 O4 1_555 1_555
C36 C35 1_555 1_555
C37 C36 1_555 1_555
H27 C37 1_555 1_555
C38 C37 1_555 1_555
C39 C38 1_555 1_555
O9 H28 1_555 1_555
H29 O9 1_555 1_555
O3A C35A 1_555 1_555
O4A C35A 1_555 1_555
O5A Co1 1_555 1_555
O6A C39A 1_555 1_555
C35A C36A 1_555 1_555
C36A C38 1_555 1_555
C37A C36A 1_555 1_555
H27A C37A 1_555 1_555
C38A C36 1_555 1_555
C39A O5A 1_555 1_555
Co1A O5 1_555 1_555
O1A C6A 1_555 1_555
N1A Co1A 1_555 1_555
C1A N1A 1_555 1_555
H1A C1A 1_555 1_555
N2A H2A 1_555 1_555
O2A C12A 1_555 1_555
C2A N1A 1_555 1_555
H3A C2A 1_555 1_555
N3A C7A 1_555 1_555
C3A C2A 1_555 1_555
H4A C3A 1_555 1_555
N4A H5A 1_555 1_555
C4A C3A 1_555 1_555
H6A C4A 1_555 1_555
N5A C16A 1_555 1_555
C5A C1A 1_555 1_555
N6A Co1A 1_555 1_555
C6A N2A 1_555 1_555
O7A C23A 1_555 1_555
N7A H7A 1_555 1_555
C7A C6A 1_555 1_555
N8A C24A 1_555 1_555
O8A C29A 1_555 1_555
C8A C7A 1_555 1_555
H8A C8A 1_555 1_555
N9A H9A 1_555 1_555
C9A C8A 1_555 1_555
H10A C9A 1_555 1_555
N10A C33A 1_555 1_555
C10A C9A 1_555 1_555
H11A C10A 1_555 1_555
C11A N3A 1_555 1_555
C12A N4A 1_555 1_555
C13A N4A 1_555 1_555
C14A C13A 1_555 1_555
H12A C14A 1_555 1_555
C15A C14A 1_555 1_555
H13A C15A 1_555 1_555
C16A C15A 1_555 1_555
H14A C16A 1_555 1_555
C17A N5A 1_555 1_555
H15A C17A 1_555 1_555
C18A N6A 1_555 1_555
H16A C18A 1_555 1_555
C19A C18A 1_555 1_555
H17A C19A 1_555 1_555
C20A C19A 1_555 1_555
H18A C20A 1_555 1_555
C21A N7A 1_555 1_555
C22A N6A 1_555 1_555
H19A C22A 1_555 1_555
C23A N7A 1_555 1_555
C24A C23A 1_555 1_555
C25A C24A 1_555 1_555
H20A C25A 1_555 1_555
C26A C25A 1_555 1_555
H21A C26A 1_555 1_555
C27A C26A 1_555 1_555
H22A C27A 1_555 1_555
C28A N8A 1_555 1_555
C29A N9A 1_555 1_555
C30A N9A 1_555 1_555
C31A C30A 1_555 1_555
H23A C31A 1_555 1_555
C32A C31A 1_555 1_555
H24A C32A 1_555 1_555
C33A C32A 1_555 1_555
H25A C33A 1_555 1_555
C34A N10A 1_555 1_555
H26A C34A 1_555 1_555
Co1_2 O3A 1_555 1_555
Co1_3 N5 1_555 1_555
Co1A_2 N5A 1_555 1_555
Co1A_3 O3 1_555 1_555
O3_2 Co1A 1_555 1_555
O3A_2 Co1 1_555 1_555
N5_2 Co1 1_555 1_555
N5A_2 Co1A 1_555 1_555
N2 C5 1_555 1_555
C4 C5 1_555 1_555
C10 C11 1_555 1_555
C11 C12 1_555 1_555
C13 C17 1_555 1_555
C20 C21 1_555 1_555
C21 C22 1_555 1_555
C27 C28 1_555 1_555
C28 C29 1_555 1_555
C30 C34 1_555 1_555
O4A Co1A 1_555 1_555
C37A C38A 1_555 1_555
C38A C39A 1_555 1_555
N2A C5A 1_555 1_555
C4A C5A 1_555 1_555
C10A C11A 1_555 1_555
C11A C12A 1_555 1_555
C13A C17A 1_555 1_555
C20A C21A 1_555 1_555
C21A C22A 1_555 1_555
C27A C28A 1_555 1_555
C28A C29A 1_555 1_555
C30A C34A 1_555 1_555

#END
