
#######################################################################
#
#                 Cambridge Crystallographic Data Centre
#                                CCDC 
#
#######################################################################
#
# If this CIF has been generated from an entry in the Cambridge 
# Structural Database, then it will include bibliographic, chemical, 
# crystal, experimental, refinement or atomic coordinate data resulting 
# from the CCDC's data processing and validation procedures.
#
#######################################################################

data_HICLAI
_symmetry_cell_setting           triclinic
_symmetry_space_group_name_H-M   'P -1'
_symmetry_Int_Tables_number      2
_space_group_name_Hall           '-P 1'
loop_
_symmetry_equiv_pos_site_id
_symmetry_equiv_pos_as_xyz
1 x,y,z
2 -x,-y,-z
_cell_length_a                   9.5456(8)
_cell_length_b                   10.5262(8)
_cell_length_c                   14.5911(16)
_cell_angle_alpha                107.453(2)
_cell_angle_beta                 101.690(2)
_cell_angle_gamma                101.092(2)
_cell_volume                     1318.35
loop_
_atom_site_label
_atom_site_type_symbol
_atom_site_fract_x
_atom_site_fract_y
_atom_site_fract_z
Co1 Co 0.72336(3) 0.40875(3) 0.96019(2)
O1 O 0.8231(2) 0.2585(2) 0.93838(17)
N1 N 0.5500(2) 0.2998(2) 0.82419(15)
C1 C 0.4045(3) 0.2621(3) 0.8184(2)
H1 H 0.3755 0.2817 0.8771
O2 O 0.89719(18) 0.51496(18) 1.09440(13)
H2 H 0.9332 0.6021 1.1144
H3 H 0.9525 0.4841 1.1308
O3 O 0.9761(2) 0.20761(19) 0.84531(15)
N2 N 0.5433(2) 0.1959(3) 0.56217(16)
H4 H 0.6379 0.2275 0.5753
C2 C 0.2976(3) 0.1953(3) 0.7283(2)
H5 H 0.1984 0.1681 0.7271
O4 O 0.60369(18) 0.3582(2) 1.05061(13)
H6 H 0.5521 0.2788 1.0437
H7 H 0.6150 0.4119 1.1098
O5 O 0.67407(19) -0.39699(17) 0.96980(13)
N3 N 0.7074(2) 0.2061(2) 0.43442(15)
C3 C 0.3361(3) 0.1683(3) 0.6393(2)
H8 H 0.2645 0.1239 0.5780
O6 O 0.83064(18) -0.45360(17) 0.88500(14)
N4 N 1.0038(2) 0.3270(3) 0.51639(16)
H9 H 0.9411 0.3023 0.5469
C4 C 0.5887(3) 0.2724(3) 0.73920(18)
H10 H 0.6892 0.2959 0.7428
N5 N 1.3005(3) 0.5313(3) 0.74357(17)
C5 C 0.4864(3) 0.2101(3) 0.64498(19)
O7 O 0.3340(2) 0.0860(3) 0.43282(16)
C6 C 0.4680(3) 0.1391(3) 0.4650(2)
O8 O 1.0291(2) 0.3134(3) 0.36222(15)
C7 C 0.5623(3) 0.1443(3) 0.39445(19)
C8 C 0.4962(3) 0.0865(3) 0.2920(2)
H11 H 0.3945 0.0448 0.2667
C9 C 0.5844(4) 0.0924(4) 0.2287(2)
H12 H 0.5436 0.0527 0.1598
C10 C 0.7339(4) 0.1578(3) 0.2689(2)
H13 H 0.7954 0.1647 0.2277
C11 C 0.7909(3) 0.2128(3) 0.37153(19)
C12 C 0.9528(3) 0.2890(3) 0.41650(19)
C13 C 1.1483(3) 0.4028(3) 0.57628(19)
C14 C 1.2713(3) 0.4232(4) 0.5404(2)
H14 H 1.2621 0.3868 0.4723
C15 C 1.4075(3) 0.4984(4) 0.6073(2)
H15 H 1.4917 0.5136 0.5850
C16 C 1.4174(3) 0.5505(4) 0.7073(2)
H16 H 1.5098 0.6016 0.7518
C17 C 1.1690(3) 0.4586(3) 0.67925(19)
H17 H 1.0871 0.4443 0.7039
C18 C 0.8878(3) 0.1778(2) 0.89250(18)
C19 C 0.8551(2) 0.0352(2) 0.89940(17)
C20 C 0.9087(3) -0.0667(3) 0.84417(19)
H18 H 0.9648 -0.0475 0.8024
C21 C 0.8789(3) -0.1977(2) 0.8511(2)
H19 H 0.9156 -0.2656 0.8142
C22 C 0.7951(2) -0.2272(2) 0.91263(17)
C23 C 0.7653(2) -0.3667(2) 0.92258(17)
C24 C 0.7403(3) -0.1250(3) 0.96752(19)
H20 H 0.6836 -0.1443 1.0090
C25 C 0.7703(3) 0.0050(2) 0.96036(19)
H21 H 0.7330 0.0727 0.9969
Co1_2 Co 0.72336(3) -0.59125(3) 0.96019(2)
O5_2 O 0.67407(19) 0.60301(17) 0.96980(13)
O6_2 O 0.83064(18) 0.54640(17) 0.88500(14)
O9 O 0.8854(3) 0.1753(4) 0.6419(2)
H22 H 0.9549 0.1670 0.6845
H23 H 0.8174 0.0993 0.6178
O10 O 1.2094(4) 0.5354(4) 0.3359(3)
H24 H 1.1539 0.4680 0.3435
H25 H 1.2858 0.5117 0.3237
loop_
_geom_bond_atom_site_label_1
_geom_bond_atom_site_label_2
_geom_bond_site_symmetry_1
_geom_bond_site_symmetry_2
Co1 O1 1_555 1_555
O1 C18 1_555 1_555
N1 Co1 1_555 1_555
C1 N1 1_555 1_555
H1 C1 1_555 1_555
O2 Co1 1_555 1_555
H2 O2 1_555 1_555
H3 O2 1_555 1_555
O3 C18 1_555 1_555
N2 H4 1_555 1_555
C2 C1 1_555 1_555
H5 C2 1_555 1_555
O4 Co1 1_555 1_555
H6 O4 1_555 1_555
H7 O4 1_555 1_555
O5 C23 1_555 1_555
N3 C7 1_555 1_555
C3 C2 1_555 1_555
H8 C3 1_555 1_555
O6 C23 1_555 1_555
N4 H9 1_555 1_555
C4 N1 1_555 1_555
H10 C4 1_555 1_555
N5 C16 1_555 1_555
C5 N2 1_555 1_555
O7 C6 1_555 1_555
C6 N2 1_555 1_555
O8 C12 1_555 1_555
C7 C6 1_555 1_555
C8 C7 1_555 1_555
H11 C8 1_555 1_555
C9 C8 1_555 1_555
H12 C9 1_555 1_555
C10 C9 1_555 1_555
H13 C10 1_555 1_555
C11 N3 1_555 1_555
C12 N4 1_555 1_555
C13 N4 1_555 1_555
C14 C13 1_555 1_555
H14 C14 1_555 1_555
C15 C14 1_555 1_555
H15 C15 1_555 1_555
C16 C15 1_555 1_555
H16 C16 1_555 1_555
C17 N5 1_555 1_555
H17 C17 1_555 1_555
C18 C19 1_555 1_555
C19 C20 1_555 1_555
C20 H18 1_555 1_555
C21 C20 1_555 1_555
H19 C21 1_555 1_555
C22 C21 1_555 1_555
C23 C22 1_555 1_555
C24 C22 1_555 1_555
H20 C24 1_555 1_555
C25 C19 1_555 1_555
H21 C25 1_555 1_555
O9 H22 1_555 1_555
H23 O9 1_555 1_555
O10 H24 1_555 1_555
H25 O10 1_555 1_555
Co1_2 O5 1_555 1_555
O5_2 Co1 1_555 1_555
O6_2 Co1 1_555 1_555
C3 C5 1_555 1_555
O6 Co1_2 1_555 1_555
C4 C5 1_555 1_555
C10 C11 1_555 1_555
C11 C12 1_555 1_555
C13 C17 1_555 1_555
C24 C25 1_555 1_555

#END
