
#######################################################################
#
#                 Cambridge Crystallographic Data Centre
#                                CCDC 
#
#######################################################################
#
# If this CIF has been generated from an entry in the Cambridge 
# Structural Database, then it will include bibliographic, chemical, 
# crystal, experimental, refinement or atomic coordinate data resulting 
# from the CCDC's data processing and validation procedures.
#
#######################################################################

data_HICRUG
_symmetry_cell_setting           monoclinic
_symmetry_space_group_name_H-M   'C 2/c'
_symmetry_Int_Tables_number      15
_space_group_name_Hall           '-C 2yn'
loop_
_symmetry_equiv_pos_site_id
_symmetry_equiv_pos_as_xyz
1 x,y,z
2 -x,y,1/2-z
3 1/2+x,1/2+y,z
4 1/2-x,1/2+y,1/2-z
5 -x,-y,-z
6 x,-y,1/2+z
7 1/2-x,1/2-y,-z
8 1/2+x,1/2-y,1/2+z
_cell_length_a                   8.108(3)
_cell_length_b                   11.477(4)
_cell_length_c                   12.466(6)
_cell_angle_alpha                90
_cell_angle_beta                 94.15(3)
_cell_angle_gamma                90
_cell_volume                     1156.99
loop_
_atom_site_label
_atom_site_type_symbol
_atom_site_fract_x
_atom_site_fract_y
_atom_site_fract_z
Cu1 Cu 0.0000 0.0000 0.0000
O1 O -0.1941(6) 0.1140(5) -0.0725(4)
N1 N -0.8402(5) -0.0740(4) 0.4086(4)
N2 N -0.4516(7) -0.3711(4) 0.1119(5)
N3 N -0.4340(7) 0.1457(5) 0.0893(4)
C1 C -0.5000 -0.1014(6) 0.2500
C2 C -0.5000 0.0215(6) 0.2500
C3 C -0.5975(6) -0.1633(4) 0.3216(4)
C4 C -0.7306(6) -0.1117(4) 0.3685(4)
C5 C -0.4331(7) -0.2790(5) 0.1449(4)
C6 C -0.4610(7) 0.0882(5) 0.1603(4)
H1 H -0.136(7) 0.207(5) -0.088(5)
H2 H -0.297(7) 0.123(5) -0.033(5)
C6A C -0.5390(7) 0.0882(5) 0.3397(4)
N3A N -0.5660(7) 0.1457(5) 0.4107(4)
C3A C -0.4025(6) -0.1633(4) 0.1784(4)
C4A C -0.2694(6) -0.1117(4) 0.1315(4)
N1A N -0.1598(5) -0.0740(4) 0.0914(4)
Cu1A Cu -1.0000 0.0000 0.5000
O1D O 0.1941(6) -0.1140(5) 0.0725(4)
H1D H 0.136(7) -0.207(5) 0.088(5)
H2D H 0.297(7) -0.123(5) 0.033(5)
N1E N 0.1598(5) 0.0740(4) -0.0914(4)
N2B N 0.0484(7) 0.1289(4) 0.1119(5)
N2F N -0.0484(7) -0.1289(4) -0.1119(5)
Cu1B Cu -0.5000 -0.5000 0.0000
C5A C -0.5669(7) -0.2790(5) 0.3551(4)
N2A N -0.5484(7) -0.3711(4) 0.3881(5)
Cu1C Cu -0.5000 -0.5000 0.5000
loop_
_geom_bond_atom_site_label_1
_geom_bond_atom_site_label_2
_geom_bond_site_symmetry_1
_geom_bond_site_symmetry_2
Cu1 O1 1_555 1_555
O1 H1 1_555 1_555
N1 C4 1_555 1_555
N2 C5 1_555 1_555
N3 C6 1_555 1_555
C1 C2 1_555 1_555
C2 C6 1_555 1_555
C3 C1 1_555 1_555
C4 C3 1_555 1_555
C5 C3A 1_555 1_555
H2 O1 1_555 1_555
C6A C2 1_555 1_555
N3A C6A 1_555 1_555
C3A C1 1_555 1_555
C4A C3A 1_555 1_555
N1A Cu1 1_555 1_555
Cu1A N1 1_555 1_555
O1D Cu1 1_555 1_555
H1D O1D 1_555 1_555
H2D O1D 1_555 1_555
N1E Cu1 1_555 1_555
N2B Cu1 1_555 1_555
N2F Cu1 1_555 1_555
Cu1B N2 1_555 1_555
C5A C3 1_555 1_555
N2A C5A 1_555 1_555
Cu1C N2A 1_555 1_555
C4A N1A 1_555 1_555

#END
