
#######################################################################
#
#                 Cambridge Crystallographic Data Centre
#                                CCDC 
#
#######################################################################
#
# If this CIF has been generated from an entry in the Cambridge 
# Structural Database, then it will include bibliographic, chemical, 
# crystal, experimental, refinement or atomic coordinate data resulting 
# from the CCDC's data processing and validation procedures.
#
#######################################################################

data_HICTEU
_symmetry_cell_setting           triclinic
_symmetry_space_group_name_H-M   'P -1'
_symmetry_Int_Tables_number      2
_space_group_name_Hall           '-P 1'
loop_
_symmetry_equiv_pos_site_id
_symmetry_equiv_pos_as_xyz
1 x,y,z
2 -x,-y,-z
_cell_length_a                   9.6298(19)
_cell_length_b                   14.036(3)
_cell_length_c                   16.269(3)
_cell_angle_alpha                107.91(3)
_cell_angle_beta                 98.39(3)
_cell_angle_gamma                95.69(3)
_cell_volume                     2045.66
loop_
_atom_site_label
_atom_site_type_symbol
_atom_site_fract_x
_atom_site_fract_y
_atom_site_fract_z
Ni1 Ni 0.51560(6) 0.88801(4) 0.42970(3)
Ni2 Ni 0.55515(6) 0.66414(4) 0.29107(4)
N1 N 0.7034(4) 0.8897(3) 0.5085(3)
N2 N 0.8467(4) 0.8808(3) 0.6246(2)
N3 N 1.3248(4) 0.8830(3) 1.3511(2)
N4 N 1.1740(4) 0.8738(3) 1.2316(3)
N5 N 0.7447(4) 0.6611(3) 0.3718(2)
N6 N 0.8811(4) 0.6354(3) 0.4828(2)
N7 N 1.3626(4) 0.6502(3) 1.2068(3)
N8 N 1.2015(4) 0.6204(3) 1.0861(3)
N9 N 0.5041(4) 0.5076(3) 0.2754(3)
N10 N 0.4989(4) 0.3409(3) 0.2165(2)
N11 N 0.4292(4) 0.9524(3) 0.5445(3)
N12 N 0.3613(4) 0.9088(3) 0.5823(3)
N13 N 0.2964(6) 0.8678(4) 0.6181(4)
N14 N 0.6056(4) 0.8245(3) 0.3180(3)
N15 N 0.6431(4) 0.8626(3) 0.2661(3)
N16 N 0.6757(6) 0.8966(4) 0.2153(3)
N17 N 0.4591(4) 0.7267(3) 0.4036(3)
N18 N 0.4188(4) 0.6850(3) 0.4518(3)
N19 N 0.3850(6) 0.6448(4) 0.4987(3)
N20 N 0.6820(5) 0.6402(4) 0.1208(3)
O1 O 0.6488(6) 0.6215(4) 0.1825(3)
O2 O 0.8059(9) 0.6916(7) 0.1620(7)
O3 O 0.6565(5) 0.6274(4) 0.0428(3)
C1 C 0.7116(5) 0.8820(3) 0.5885(3)
H1 H 0.6342 0.8779 0.6161
C2 C 0.8405(5) 0.8931(4) 0.4934(3)
H2 H 0.8673 0.8981 0.4421
C3 C 0.9308(5) 0.8883(4) 0.5634(3)
H3 H 1.0286 0.8896 0.5694
C4 C 0.8935(5) 0.8762(3) 0.7110(3)
C5 C 0.7973(6) 0.8647(6) 0.7607(4)
H4 H 0.7009 0.8580 0.7383
C6 C 0.8416(6) 0.8630(5) 0.8458(4)
H5 H 0.7736 0.8554 0.8794
C7 C 0.9817(5) 0.8721(4) 0.8811(3)
C8 C 1.0742(6) 0.8831(7) 0.8289(4)
H6 H 1.1707 0.8894 0.8507
C9 C 1.0329(6) 0.8856(7) 0.7447(4)
H7 H 1.1009 0.8938 0.7112
C10 C 1.3116(5) 0.8865(3) 1.2701(3)
H8 H 1.3878 0.8965 1.2430
C11 C 1.1878(5) 0.8673(4) 1.3654(3)
H9 H 1.1637 0.8615 1.4172
C12 C 1.0942(5) 0.8618(4) 1.2935(3)
H10 H 0.9957 0.8520 1.2865
C13 C 1.1236(5) 0.8720(3) 1.1439(3)
C14 C 1.2177(6) 0.8689(5) 1.0873(4)
H11 H 1.3128 0.8662 1.1059
C15 C 1.1712(5) 0.8698(5) 1.0024(4)
H12 H 1.2361 0.8695 0.9652
C16 C 1.0295(5) 0.8711(3) 0.9727(3)
C17 C 0.9383(6) 0.8723(5) 1.0294(4)
H13 H 0.8426 0.8732 1.0105
C18 C 0.9828(6) 0.8723(5) 1.1138(4)
H14 H 0.9173 0.8726 1.1506
C19 C 0.7524(5) 0.6555(3) 0.4526(3)
H15 H 0.6789 0.6643 0.4842
C20 C 0.8758(5) 0.6436(4) 0.3504(3)
H16 H 0.9024 0.6429 0.2976
C21 C 0.9591(5) 0.6275(4) 0.4174(3)
H17 H 1.0518 0.6138 0.4191
C22 C 0.9228(5) 0.6229(3) 0.5669(3)
C23 C 0.8201(5) 0.5910(3) 0.6078(3)
H18 H 0.7255 0.5738 0.5796
C24 C 0.8593(5) 0.5846(3) 0.6915(3)
H19 H 0.7896 0.5645 0.7194
C25 C 1.0007(5) 0.6076(3) 0.7344(3)
C26 C 1.1009(5) 0.6380(4) 0.6911(3)
H20 H 1.1958 0.6536 0.7186
C27 C 1.0648(5) 0.6461(4) 0.6078(3)
H21 H 1.1343 0.6667 0.5801
C28 C 1.3409(5) 0.6386(4) 1.1224(3)
H22 H 1.4135 0.6426 1.0912
C29 C 1.2275(5) 0.6376(3) 1.2263(3)
H23 H 1.2087 0.6408 1.2815
C30 C 1.1274(5) 0.6197(3) 1.1534(3)
H24 H 1.0293 0.6093 1.1492
C31 C 1.1442(5) 0.6084(3) 0.9973(3)
C32 C 1.0065(5) 0.6266(3) 0.9731(3)
H25 H 0.9472 0.6405 1.0142
C33 C 0.9589(5) 0.6239(3) 0.8883(3)
H26 H 0.8673 0.6364 0.8730
C34 C 1.0443(5) 0.6027(3) 0.8243(3)
C35 C 1.1781(5) 0.5777(4) 0.8483(3)
H27 H 1.2350 0.5588 0.8063
C36 C 1.2271(5) 0.5807(3) 0.9337(3)
H28 H 1.3164 0.5640 0.9484
C37 C 0.4905(5) 0.4307(3) 0.2016(3)
H29 H 0.4768 0.4372 0.1459
C38 C 0.5220(5) 0.4648(4) 0.3421(3)
H30 H 0.5346 0.5006 0.4018
C39 C 0.5185(5) 0.3634(4) 0.3074(3)
H31 H 0.5273 0.3177 0.3382
C40 C 0.5012(5) 0.2444(3) 0.1539(3)
C41 C 0.5470(5) 0.1675(3) 0.1831(3)
H32 H 0.5799 0.1802 0.2427
C42 C 0.5435(5) 0.0712(4) 0.1229(3)
H33 H 0.5703 0.0193 0.1431
C43 C 0.5001(5) 0.0516(3) 0.0320(3)
C44 C 0.4551(5) 0.1303(3) 0.0051(3)
H34 H 0.4245 0.1190 -0.0545
C45 C 0.4546(5) 0.2255(3) 0.0651(3)
H35 H 0.4229 0.2765 0.0453
N9A N 0.4959(4) -0.5076(3) -0.2754(3)
N10A N 0.5011(4) -0.3409(3) -0.2165(2)
C37A C 0.5095(5) -0.4307(3) -0.2016(3)
H29A H 0.5232 -0.4372 -0.1459
C38A C 0.4780(5) -0.4648(4) -0.3421(3)
H30A H 0.4654 -0.5006 -0.4018
C39A C 0.4815(5) -0.3634(4) -0.3074(3)
H31A H 0.4727 -0.3177 -0.3382
C40A C 0.4988(5) -0.2444(3) -0.1539(3)
C41A C 0.4530(5) -0.1675(3) -0.1831(3)
H32A H 0.4201 -0.1802 -0.2427
C42A C 0.4565(5) -0.0712(4) -0.1229(3)
H33A H 0.4297 -0.0193 -0.1431
C43A C 0.4999(5) -0.0516(3) -0.0320(3)
C44A C 0.5449(5) -0.1303(3) -0.0051(3)
H34A H 0.5755 -0.1190 0.0545
C45A C 0.5454(5) -0.2255(3) -0.0651(3)
H35A H 0.5771 -0.2765 -0.0453
Ni1A Ni 0.48440(6) -0.88801(4) -0.42970(3)
Ni2A Ni 0.44485(6) -0.66414(4) -0.29107(4)
N1A N 0.2966(4) -0.8897(3) -0.5085(3)
N2A N 0.1533(4) -0.8808(3) -0.6246(2)
N3A N -0.3248(4) -0.8830(3) -1.3511(2)
N4A N -0.1740(4) -0.8738(3) -1.2316(3)
N5A N 0.2553(4) -0.6611(3) -0.3718(2)
N6A N 0.1189(4) -0.6354(3) -0.4828(2)
N7A N -0.3626(4) -0.6502(3) -1.2068(3)
N8A N -0.2015(4) -0.6204(3) -1.0861(3)
N11A N 0.5708(4) -0.9524(3) -0.5445(3)
N12A N 0.6387(4) -0.9088(3) -0.5823(3)
N13A N 0.7036(6) -0.8678(4) -0.6181(4)
N14A N 0.3944(4) -0.8245(3) -0.3180(3)
N15A N 0.3569(4) -0.8626(3) -0.2661(3)
N16A N 0.3243(6) -0.8966(4) -0.2153(3)
N17A N 0.5409(4) -0.7267(3) -0.4036(3)
N18A N 0.5812(4) -0.6850(3) -0.4518(3)
N19A N 0.6150(6) -0.6448(4) -0.4987(3)
N20A N 0.3180(5) -0.6402(4) -0.1208(3)
O1A O 0.3512(6) -0.6215(4) -0.1825(3)
O2A O 0.1941(9) -0.6916(7) -0.1620(7)
O3A O 0.3435(5) -0.6274(4) -0.0428(3)
C1A C 0.2884(5) -0.8820(3) -0.5885(3)
H1A H 0.3658 -0.8779 -0.6161
C2A C 0.1595(5) -0.8931(4) -0.4934(3)
H2A H 0.1327 -0.8981 -0.4421
C3A C 0.0692(5) -0.8883(4) -0.5634(3)
H3A H -0.0286 -0.8896 -0.5694
C4A C 0.1065(5) -0.8762(3) -0.7110(3)
C5A C 0.2027(6) -0.8647(6) -0.7607(4)
H4A H 0.2991 -0.8580 -0.7383
C6A C 0.1584(6) -0.8630(5) -0.8458(4)
H5A H 0.2264 -0.8554 -0.8794
C7A C 0.0183(5) -0.8721(4) -0.8811(3)
C8A C -0.0742(6) -0.8831(7) -0.8289(4)
H6A H -0.1707 -0.8894 -0.8507
C9A C -0.0329(6) -0.8856(7) -0.7447(4)
H7A H -0.1009 -0.8938 -0.7112
C10A C -0.3116(5) -0.8865(3) -1.2701(3)
H8A H -0.3878 -0.8965 -1.2430
C11A C -0.1878(5) -0.8673(4) -1.3654(3)
H9A H -0.1637 -0.8615 -1.4172
C12A C -0.0942(5) -0.8618(4) -1.2935(3)
H10A H 0.0043 -0.8520 -1.2865
C13A C -0.1236(5) -0.8720(3) -1.1439(3)
C14A C -0.2177(6) -0.8689(5) -1.0873(4)
H11A H -0.3128 -0.8662 -1.1059
C15A C -0.1712(5) -0.8698(5) -1.0024(4)
H12A H -0.2361 -0.8695 -0.9652
C16A C -0.0295(5) -0.8711(3) -0.9727(3)
C17A C 0.0617(6) -0.8723(5) -1.0294(4)
H13A H 0.1574 -0.8732 -1.0105
C18A C 0.0172(6) -0.8723(5) -1.1138(4)
H14A H 0.0827 -0.8726 -1.1506
C19A C 0.2476(5) -0.6555(3) -0.4526(3)
H15A H 0.3211 -0.6643 -0.4842
C20A C 0.1242(5) -0.6436(4) -0.3504(3)
H16A H 0.0976 -0.6429 -0.2976
C21A C 0.0409(5) -0.6275(4) -0.4174(3)
H17A H -0.0518 -0.6138 -0.4191
C22A C 0.0772(5) -0.6229(3) -0.5669(3)
C23A C 0.1799(5) -0.5910(3) -0.6078(3)
H18A H 0.2745 -0.5738 -0.5796
C24A C 0.1407(5) -0.5846(3) -0.6915(3)
H19A H 0.2104 -0.5645 -0.7194
C25A C -0.0007(5) -0.6076(3) -0.7344(3)
C26A C -0.1009(5) -0.6380(4) -0.6911(3)
H20A H -0.1958 -0.6536 -0.7186
C27A C -0.0648(5) -0.6461(4) -0.6078(3)
H21A H -0.1343 -0.6667 -0.5801
C28A C -0.3409(5) -0.6386(4) -1.1224(3)
H22A H -0.4135 -0.6426 -1.0912
C29A C -0.2275(5) -0.6376(3) -1.2263(3)
H23A H -0.2087 -0.6408 -1.2815
C30A C -0.1274(5) -0.6197(3) -1.1534(3)
H24A H -0.0293 -0.6093 -1.1492
C31A C -0.1442(5) -0.6084(3) -0.9973(3)
C32A C -0.0065(5) -0.6266(3) -0.9731(3)
H25A H 0.0528 -0.6405 -1.0142
C33A C 0.0411(5) -0.6239(3) -0.8883(3)
H26A H 0.1327 -0.6364 -0.8730
C34A C -0.0443(5) -0.6027(3) -0.8243(3)
C35A C -0.1781(5) -0.5777(4) -0.8483(3)
H27A H -0.2350 -0.5588 -0.8063
C36A C -0.2271(5) -0.5807(3) -0.9337(3)
H28A H -0.3164 -0.5640 -0.9484
Ni1_2 Ni 0.51560(6) -1.11199(4) -0.57030(3)
Ni1_3 Ni 1.51560(6) 0.88801(4) 1.42970(3)
Ni1A_2 Ni -0.51560(6) -0.88801(4) -1.42970(3)
Ni1A_3 Ni 0.48440(6) 1.11199(4) 0.57030(3)
Ni2_2 Ni 1.55515(6) 0.66414(4) 1.29107(4)
Ni2A_2 Ni -0.55515(6) -0.66414(4) -1.29107(4)
N3_2 N 0.3248(4) 0.8830(3) 0.3511(2)
N3A_2 N 0.6752(4) -0.8830(3) -0.3511(2)
N7_2 N 0.3626(4) 0.6502(3) 0.2068(3)
N7A_2 N 0.6374(4) -0.6502(3) -0.2068(3)
N11_2 N 0.4292(4) -1.0476(3) -0.4555(3)
N11A_2 N 0.5708(4) 1.0476(3) 0.4555(3)
loop_
_geom_bond_atom_site_label_1
_geom_bond_atom_site_label_2
_geom_bond_site_symmetry_1
_geom_bond_site_symmetry_2
Ni1 Ni2 1_555 1_555
Ni2 N5 1_555 1_555
N1 Ni1 1_555 1_555
N2 C1 1_555 1_555
N3 C10 1_555 1_555
N4 C10 1_555 1_555
N5 C19 1_555 1_555
N6 C19 1_555 1_555
N7 C28 1_555 1_555
N8 C28 1_555 1_555
N9 Ni2 1_555 1_555
N10 C37 1_555 1_555
N11 Ni1 1_555 1_555
N12 N11 1_555 1_555
N13 N12 1_555 1_555
N14 Ni1 1_555 1_555
N15 N14 1_555 1_555
N16 N15 1_555 1_555
N17 Ni1 1_555 1_555
N18 N17 1_555 1_555
N19 N18 1_555 1_555
N20 O1 1_555 1_555
O1 Ni2 1_555 1_555
O2 N20 1_555 1_555
O3 N20 1_555 1_555
C1 N1 1_555 1_555
H1 C1 1_555 1_555
C2 N1 1_555 1_555
H2 C2 1_555 1_555
C3 N2 1_555 1_555
H3 C3 1_555 1_555
C4 N2 1_555 1_555
C5 C4 1_555 1_555
H4 C5 1_555 1_555
C6 C5 1_555 1_555
H5 C6 1_555 1_555
C7 C6 1_555 1_555
C8 C7 1_555 1_555
H6 C8 1_555 1_555
C9 C4 1_555 1_555
H7 C9 1_555 1_555
C10 H8 1_555 1_555
C11 N3 1_555 1_555
H9 C11 1_555 1_555
C12 N4 1_555 1_555
H10 C12 1_555 1_555
C13 N4 1_555 1_555
C14 C13 1_555 1_555
H11 C14 1_555 1_555
C15 C14 1_555 1_555
H12 C15 1_555 1_555
C16 C7 1_555 1_555
C17 C16 1_555 1_555
H13 C17 1_555 1_555
C18 C13 1_555 1_555
H14 C18 1_555 1_555
C19 H15 1_555 1_555
C20 N5 1_555 1_555
H16 C20 1_555 1_555
C21 N6 1_555 1_555
H17 C21 1_555 1_555
C22 N6 1_555 1_555
C23 C22 1_555 1_555
H18 C23 1_555 1_555
C24 C23 1_555 1_555
H19 C24 1_555 1_555
C25 C24 1_555 1_555
C26 C25 1_555 1_555
H20 C26 1_555 1_555
C27 C22 1_555 1_555
H21 C27 1_555 1_555
C28 H22 1_555 1_555
C29 N7 1_555 1_555
H23 C29 1_555 1_555
C30 N8 1_555 1_555
H24 C30 1_555 1_555
C31 N8 1_555 1_555
C32 C31 1_555 1_555
H25 C32 1_555 1_555
C33 C32 1_555 1_555
H26 C33 1_555 1_555
C34 C25 1_555 1_555
C35 C34 1_555 1_555
H27 C35 1_555 1_555
C36 C31 1_555 1_555
H28 C36 1_555 1_555
C37 N9 1_555 1_555
H29 C37 1_555 1_555
C38 N9 1_555 1_555
H30 C38 1_555 1_555
C39 N10 1_555 1_555
H31 C39 1_555 1_555
C40 N10 1_555 1_555
C41 C40 1_555 1_555
H32 C41 1_555 1_555
C42 C41 1_555 1_555
H33 C42 1_555 1_555
C43 C42 1_555 1_555
C44 C43 1_555 1_555
H34 C44 1_555 1_555
C45 C40 1_555 1_555
H35 C45 1_555 1_555
N9A C37A 1_555 1_555
N10A C37A 1_555 1_555
C37A H29A 1_555 1_555
C38A N9A 1_555 1_555
H30A C38A 1_555 1_555
C39A N10A 1_555 1_555
H31A C39A 1_555 1_555
C40A N10A 1_555 1_555
C41A C40A 1_555 1_555
H32A C41A 1_555 1_555
C42A C41A 1_555 1_555
H33A C42A 1_555 1_555
C43A C43 1_555 1_555
C44A C43A 1_555 1_555
H34A C44A 1_555 1_555
C45A C40A 1_555 1_555
H35A C45A 1_555 1_555
Ni1A Ni2A 1_555 1_555
Ni2A N9A 1_555 1_555
N1A Ni1A 1_555 1_555
N2A C1A 1_555 1_555
N3A C10A 1_555 1_555
N4A C10A 1_555 1_555
N5A Ni2A 1_555 1_555
N6A C19A 1_555 1_555
N7A C28A 1_555 1_555
N8A C28A 1_555 1_555
N11A Ni1A 1_555 1_555
N12A N11A 1_555 1_555
N13A N12A 1_555 1_555
N14A Ni1A 1_555 1_555
N15A N14A 1_555 1_555
N16A N15A 1_555 1_555
N17A Ni1A 1_555 1_555
N18A N17A 1_555 1_555
N19A N18A 1_555 1_555
N20A O1A 1_555 1_555
O1A Ni2A 1_555 1_555
O2A N20A 1_555 1_555
O3A N20A 1_555 1_555
C1A N1A 1_555 1_555
H1A C1A 1_555 1_555
C2A N1A 1_555 1_555
H2A C2A 1_555 1_555
C3A N2A 1_555 1_555
H3A C3A 1_555 1_555
C4A N2A 1_555 1_555
C5A C4A 1_555 1_555
H4A C5A 1_555 1_555
C6A C5A 1_555 1_555
H5A C6A 1_555 1_555
C7A C6A 1_555 1_555
C8A C7A 1_555 1_555
H6A C8A 1_555 1_555
C9A C4A 1_555 1_555
H7A C9A 1_555 1_555
C10A H8A 1_555 1_555
C11A N3A 1_555 1_555
H9A C11A 1_555 1_555
C12A N4A 1_555 1_555
H10A C12A 1_555 1_555
C13A N4A 1_555 1_555
C14A C13A 1_555 1_555
H11A C14A 1_555 1_555
C15A C14A 1_555 1_555
H12A C15A 1_555 1_555
C16A C7A 1_555 1_555
C17A C16A 1_555 1_555
H13A C17A 1_555 1_555
C18A C13A 1_555 1_555
H14A C18A 1_555 1_555
C19A N5A 1_555 1_555
H15A C19A 1_555 1_555
C20A N5A 1_555 1_555
H16A C20A 1_555 1_555
C21A N6A 1_555 1_555
H17A C21A 1_555 1_555
C22A N6A 1_555 1_555
C23A C22A 1_555 1_555
H18A C23A 1_555 1_555
C24A C23A 1_555 1_555
H19A C24A 1_555 1_555
C25A C24A 1_555 1_555
C26A C25A 1_555 1_555
H20A C26A 1_555 1_555
C27A C22A 1_555 1_555
H21A C27A 1_555 1_555
C28A H22A 1_555 1_555
C29A N7A 1_555 1_555
H23A C29A 1_555 1_555
C30A N8A 1_555 1_555
H24A C30A 1_555 1_555
C31A N8A 1_555 1_555
C32A C31A 1_555 1_555
H25A C32A 1_555 1_555
C33A C32A 1_555 1_555
H26A C33A 1_555 1_555
C34A C25A 1_555 1_555
C35A C34A 1_555 1_555
H27A C35A 1_555 1_555
C36A C31A 1_555 1_555
H28A C36A 1_555 1_555
Ni1_2 Ni1A 1_555 1_555
Ni1_3 N3 1_555 1_555
Ni1A_2 N3A 1_555 1_555
Ni1A_3 Ni1 1_555 1_555
Ni2_2 N7 1_555 1_555
Ni2A_2 N7A 1_555 1_555
N3_2 Ni1 1_555 1_555
N3A_2 Ni1A 1_555 1_555
N7_2 Ni2 1_555 1_555
N7A_2 Ni2A 1_555 1_555
N11_2 Ni1A 1_555 1_555
N11A_2 Ni1 1_555 1_555
Ni2 N14 1_555 1_555
Ni2 N17 1_555 1_555
N11 Ni1A_3 1_555 1_555
C2 C3 1_555 1_555
C8 C9 1_555 1_555
C11 C12 1_555 1_555
C15 C16 1_555 1_555
C17 C18 1_555 1_555
C20 C21 1_555 1_555
C26 C27 1_555 1_555
C29 C30 1_555 1_555
C33 C34 1_555 1_555
C35 C36 1_555 1_555
C38 C39 1_555 1_555
C44 C45 1_555 1_555
C38A C39A 1_555 1_555
C42A C43A 1_555 1_555
C44A C45A 1_555 1_555
Ni2A N14A 1_555 1_555
Ni2A N17A 1_555 1_555
N11A Ni1_2 1_555 1_555
C2A C3A 1_555 1_555
C8A C9A 1_555 1_555
C11A C12A 1_555 1_555
C15A C16A 1_555 1_555
C17A C18A 1_555 1_555
C20A C21A 1_555 1_555
C26A C27A 1_555 1_555
C29A C30A 1_555 1_555
C33A C34A 1_555 1_555
C35A C36A 1_555 1_555
Ni1_2 N11_2 1_555 1_555
Ni1_3 Ni2_2 1_555 1_555
Ni1A_2 Ni2A_2 1_555 1_555
Ni1A_3 N11A_2 1_555 1_555

#END
