
#######################################################################
#
#                 Cambridge Crystallographic Data Centre
#                                CCDC 
#
#######################################################################
#
# If this CIF has been generated from an entry in the Cambridge 
# Structural Database, then it will include bibliographic, chemical, 
# crystal, experimental, refinement or atomic coordinate data resulting 
# from the CCDC's data processing and validation procedures.
#
#######################################################################

data_HICVUM
_symmetry_cell_setting           monoclinic
_symmetry_space_group_name_H-M   'C 2/c'
_symmetry_Int_Tables_number      15
_space_group_name_Hall           '-C 2yn'
loop_
_symmetry_equiv_pos_site_id
_symmetry_equiv_pos_as_xyz
1 x,y,z
2 -x,y,1/2-z
3 1/2+x,1/2+y,z
4 1/2-x,1/2+y,1/2-z
5 -x,-y,-z
6 x,-y,1/2+z
7 1/2-x,1/2-y,-z
8 1/2+x,1/2-y,1/2+z
_cell_length_a                   20.730(8)
_cell_length_b                   14.751(5)
_cell_length_c                   20.709(8)
_cell_angle_alpha                90
_cell_angle_beta                 97.174(4)
_cell_angle_gamma                90
_cell_volume                     6282.99
loop_
_atom_site_label
_atom_site_type_symbol
_atom_site_fract_x
_atom_site_fract_y
_atom_site_fract_z
Cd1 Cd 0.43240(2) 0.49859(3) 0.17921(2)
Cd2 Cd 0.45381(2) 0.00001(3) 0.10118(2)
C1 C 0.4730(3) 0.3116(4) 0.1293(3)
H1 H 0.4910 0.3541 0.1036
N1 N 0.4465(3) 0.3394(4) 0.1814(3)
C2 C 0.4264(3) 0.1851(4) 0.2032(3)
H2 H 0.4106 0.1424 0.2303
N2 N 0.4515(3) 0.1562(4) 0.1506(3)
C3 C 0.4230(3) 0.2745(5) 0.2189(3)
H3 H 0.4043 0.2914 0.2556
C4 C 0.4742(3) 0.2202(4) 0.1126(3)
N3 N 0.4992(3) 0.1052(3) 0.0352(3)
C5 C 0.4964(3) 0.1919(4) 0.0528(3)
N4 N 0.5135(3) 0.2513(4) 0.0083(3)
C6 C 0.2897(4) 0.5123(4) 0.3535(3)
H4 H 0.2691 0.5109 0.3110
O1 O 0.3621(3) 0.4985(4) 0.2525(3)
C7 C 0.3959(4) 0.5063(4) 0.3068(3)
C8 C 0.3582(3) 0.5115(4) 0.3653(4)
N5 N 0.5173(3) 0.1061(4) -0.0255(3)
C9 C 0.5459(3) 0.3128(5) -0.1181(4)
H5 H 0.5331 0.3551 -0.0888
C10 C 0.5452(3) 0.2223(5) -0.1020(3)
C11 C 0.5261(4) 0.1938(4) -0.0393(3)
O2 O 0.4556(3) 0.5089(3) 0.3141(3)
C12 C 0.1795(4) 0.5116(4) 0.3937(4)
C13 C 0.3522(3) 0.5150(4) 0.4808(3)
C14 C 0.3891(3) 0.5126(4) 0.4286(3)
H6 H 0.4342 0.5117 0.4364
C15 C 0.2841(3) 0.5164(5) 0.4684(3)
H7 H 0.2596 0.5183 0.5030
N6 N 0.5639(3) 0.3420(4) -0.1730(3)
C16 C 0.2530(3) 0.5152(4) 0.4049(4)
N7 N 0.5601(3) 0.1574(4) -0.1425(3)
C17 C 0.5792(4) 0.2766(5) -0.2144(4)
H8 H 0.5913 0.2935 -0.2544
C18 C 0.5773(4) 0.1860(5) -0.1992(4)
H9 H 0.5884 0.1435 -0.2291
O3 O 0.4441(2) 0.5062(3) 0.5633(2)
O4 O 0.1514(3) 0.5042(3) 0.3366(3)
O5 O 0.1496(3) 0.5162(4) 0.4428(3)
C19 C 0.3841(3) 0.5126(4) 0.5504(3)
O6 O 0.5479(3) -0.0136(3) 0.1719(3)
O7 O 0.3469(3) 0.5171(4) 0.5952(2)
Cd1A Cd 0.56760(2) 0.49859(3) 0.32079(2)
Cd1D Cd 0.56760(2) 0.50141(3) -0.17921(2)
Cd1E Cd 0.43240(2) 0.50141(3) 0.67921(2)
Cd2C Cd 0.04619(2) 0.50001(3) 0.39882(2)
Cd2D Cd 0.54619(2) -0.00001(3) -0.10118(2)
N5D N 0.4827(3) -0.1061(4) 0.0255(3)
O2A O 0.5444(3) 0.5089(3) 0.1859(3)
N6D N 0.4361(3) 0.6580(4) 0.1730(3)
N7D N 0.4399(3) -0.1574(4) 0.1425(3)
O3E O 0.4441(2) 0.4938(3) 0.0633(2)
O4C O 0.3486(3) 0.0042(3) 0.1634(3)
O5C O 0.3504(3) 0.0162(4) 0.0572(3)
O7E O 0.3469(3) 0.4829(4) 0.0952(2)
N8 N 0.2036(4) 0.3051(5) 0.6130(4)
O8 O 0.1207(3) 0.3597(4) 0.6617(3)
C20 C 0.1741(4) 0.3706(6) 0.6448(4)
C21 C 0.2120(6) 0.4586(9) 0.6601(7)
H10 H 0.1901 0.4949 0.6891
H11 H 0.2146 0.4914 0.6206
H12 H 0.2550 0.4445 0.6804
C22 C 0.1676(6) 0.2222(7) 0.5964(7)
H13 H 0.1373 0.2120 0.6271
H14 H 0.1973 0.1721 0.5975
H15 H 0.1444 0.2276 0.5535
C23 C 0.2682(5) 0.3147(7) 0.5885(6)
H16 H 0.2873 0.3719 0.6023
H17 H 0.2624 0.3120 0.5418
H18 H 0.2964 0.2664 0.6055
O9 O 0.6213(3) -0.1692(4) 0.1603(3)
N9 N 0.7206(5) -0.2114(7) 0.1419(9)
C24 C 0.6659(6) -0.1896(8) 0.1306(6)
C25 C 0.6479(6) -0.2017(12) 0.0505(6)
H19 H 0.6731 -0.1598 0.0286
H20 H 0.6025 -0.1900 0.0383
H21 H 0.6577 -0.2625 0.0383
C26 C 0.7427(7) -0.1969(13) 0.2186(6)
H22 H 0.7803 -0.1583 0.2247
H23 H 0.7531 -0.2545 0.2389
H24 H 0.7079 -0.1692 0.2381
C27 C 0.7734(4) -0.2296(8) 0.1040(5)
H25 H 0.7562 -0.2540 0.0624
H26 H 0.8027 -0.2727 0.1267
H27 H 0.7963 -0.1744 0.0979
loop_
_geom_bond_atom_site_label_1
_geom_bond_atom_site_label_2
_geom_bond_site_symmetry_1
_geom_bond_site_symmetry_2
Cd1 N1 1_555 1_555
Cd2 N2 1_555 1_555
C1 H1 1_555 1_555
N1 C1 1_555 1_555
C2 H2 1_555 1_555
N2 C2 1_555 1_555
C3 N1 1_555 1_555
H3 C3 1_555 1_555
C4 C1 1_555 1_555
N3 Cd2 1_555 1_555
C5 C4 1_555 1_555
N4 C5 1_555 1_555
C6 H4 1_555 1_555
O1 Cd1 1_555 1_555
C7 O1 1_555 1_555
C8 C6 1_555 1_555
N5 N3 1_555 1_555
C9 H5 1_555 1_555
C10 C9 1_555 1_555
C11 N4 1_555 1_555
O2 Cd1 1_555 1_555
C12 C16 1_555 1_555
C13 C14 1_555 1_555
C14 C8 1_555 1_555
H6 C14 1_555 1_555
C15 C13 1_555 1_555
H7 C15 1_555 1_555
N6 C9 1_555 1_555
C16 C6 1_555 1_555
N7 C10 1_555 1_555
C17 N6 1_555 1_555
H8 C17 1_555 1_555
C18 N7 1_555 1_555
H9 C18 1_555 1_555
O3 C19 1_555 1_555
O4 C12 1_555 1_555
O5 C12 1_555 1_555
C19 C13 1_555 1_555
O6 Cd2 1_555 1_555
O7 C19 1_555 1_555
N8 C20 1_555 1_555
O8 C20 1_555 1_555
C20 C21 1_555 1_555
C21 H10 1_555 1_555
H11 C21 1_555 1_555
H12 C21 1_555 1_555
C22 N8 1_555 1_555
H13 C22 1_555 1_555
H14 C22 1_555 1_555
H15 C22 1_555 1_555
C23 N8 1_555 1_555
H16 C23 1_555 1_555
H17 C23 1_555 1_555
H18 C23 1_555 1_555
O9 C24 1_555 1_555
N9 C24 1_555 1_555
C24 C25 1_555 1_555
C25 H19 1_555 1_555
H20 C25 1_555 1_555
H21 C25 1_555 1_555
C26 N9 1_555 1_555
H22 C26 1_555 1_555
H23 C26 1_555 1_555
H24 C26 1_555 1_555
C27 N9 1_555 1_555
H25 C27 1_555 1_555
H26 C27 1_555 1_555
H27 C27 1_555 1_555
Cd1A O2 1_555 1_555
Cd1D N6 1_555 1_555
Cd1E O3 1_555 1_555
Cd2C O4 1_555 1_555
Cd2D N5 1_555 1_555
N5D Cd2 1_555 1_555
O2A Cd1 1_555 1_555
N6D Cd1 1_555 1_555
N7D Cd2 1_555 1_555
O3E Cd1 1_555 1_555
O4C Cd2 1_555 1_555
O5C Cd2 1_555 1_555
O7E Cd1 1_555 1_555
C2 C3 1_555 1_555
N2 C4 1_555 1_555
N3 C5 1_555 1_555
C7 C8 1_555 1_555
C7 O2 1_555 1_555
N5 C11 1_555 1_555
C10 C11 1_555 1_555
C15 C16 1_555 1_555
N7 Cd2D 1_555 1_555
C17 C18 1_555 1_555
O5 Cd2C 1_555 1_555
O7 Cd1E 1_555 1_555
Cd1A O2A 1_555 1_555

#END
