
#######################################################################
#
#                 Cambridge Crystallographic Data Centre
#                                CCDC 
#
#######################################################################
#
# If this CIF has been generated from an entry in the Cambridge 
# Structural Database, then it will include bibliographic, chemical, 
# crystal, experimental, refinement or atomic coordinate data resulting 
# from the CCDC's data processing and validation procedures.
#
#######################################################################

data_HICZAU
_symmetry_cell_setting           monoclinic
_symmetry_space_group_name_H-M   'P 21/m'
_symmetry_Int_Tables_number      11
_space_group_name_Hall           '-P 2yb'
loop_
_symmetry_equiv_pos_site_id
_symmetry_equiv_pos_as_xyz
1 x,y,z
2 -x,1/2+y,-z
3 -x,-y,-z
4 x,1/2-y,z
_cell_length_a                   17.6(1)
_cell_length_b                   9.17(8)
_cell_length_c                   14.0(1)
_cell_angle_alpha                90
_cell_angle_beta                 108.5(1)
_cell_angle_gamma                90
_cell_volume                     2142.73
loop_
_atom_site_label
_atom_site_type_symbol
_atom_site_fract_x
_atom_site_fract_y
_atom_site_fract_z
Be1 Be 0.199 0.442 0.154
P1 P 0.070 0.250 0.032
P2 P 0.314 0.250 0.099
P3 P 0.215 0.250 0.330
P4 P 0.247 0.750 0.198
O1 O 0.117 0.384 0.076
O2 O 0.272 0.384 0.119
O3 O 0.209 0.384 0.266
O4 O 0.199 0.616 0.154
C1 C 0.048 0.250 -0.103
C2 C -0.023 0.250 0.060
C3 C 0.416 0.250 0.180
C4 C 0.313 0.250 -0.030
C5 C 0.135 0.250 0.384
C6 C 0.308 0.250 0.431
C7 C 0.268 0.750 0.333
C8 C 0.339 0.750 0.170
O1C O 0.117 0.116 0.076
O2C O 0.272 0.116 0.119
O3C O 0.209 0.116 0.266
O4C O 0.199 0.884 0.154
loop_
_geom_bond_atom_site_label_1
_geom_bond_atom_site_label_2
_geom_bond_site_symmetry_1
_geom_bond_site_symmetry_2
Be1 O1 1_555 1_555
P1 O1 1_555 1_555
P2 O2 1_555 1_555
P3 O3 1_555 1_555
P4 O4 1_555 1_555
O2 Be1 1_555 1_555
O3 Be1 1_555 1_555
O4 Be1 1_555 1_555
C1 P1 1_555 1_555
C2 P1 1_555 1_555
C3 P2 1_555 1_555
C4 P2 1_555 1_555
C5 P3 1_555 1_555
C6 P3 1_555 1_555
C7 P4 1_555 1_555
C8 P4 1_555 1_555
O1C P1 1_555 1_555
O2C P2 1_555 1_555
O3C P3 1_555 1_555
O4C P4 1_555 1_555

#END
