
#######################################################################
#
#                 Cambridge Crystallographic Data Centre
#                                CCDC 
#
#######################################################################
#
# If this CIF has been generated from an entry in the Cambridge 
# Structural Database, then it will include bibliographic, chemical, 
# crystal, experimental, refinement or atomic coordinate data resulting 
# from the CCDC's data processing and validation procedures.
#
#######################################################################

data_HIDBED
_symmetry_cell_setting           monoclinic
_symmetry_space_group_name_H-M   'P 21/n'
_symmetry_Int_Tables_number      14
_space_group_name_Hall           '-P 2yn'
loop_
_symmetry_equiv_pos_site_id
_symmetry_equiv_pos_as_xyz
1 x,y,z
2 1/2-x,1/2+y,1/2-z
3 -x,-y,-z
4 1/2+x,1/2-y,1/2+z
_cell_length_a                   6.9138(9)
_cell_length_b                   17.721(2)
_cell_length_c                   15.812(2)
_cell_angle_alpha                90
_cell_angle_beta                 100.216(2)
_cell_angle_gamma                90
_cell_volume                     1906.56
loop_
_atom_site_label
_atom_site_type_symbol
_atom_site_fract_x
_atom_site_fract_y
_atom_site_fract_z
Cd1 Cd 0.67036(2) 0.396642(9) 0.656613(10)
C1 C 1.1776(3) 0.29865(12) 0.72264(15)
C2 C 1.3011(3) 0.23961(14) 0.70823(17)
H1 H 1.3930 0.2467 0.6726
C3 C 1.2863(4) 0.17019(14) 0.74734(17)
H2 H 1.3701 0.1311 0.7384
C4 C 1.1476(4) 0.15853(13) 0.79975(16)
H3 H 1.1371 0.1116 0.8248
C5 C 1.0240(3) 0.21748(13) 0.81465(14)
C6 C 1.0418(3) 0.28754(12) 0.77702(15)
H4 H 0.9624 0.3273 0.7882
C7 C 1.1759(3) 0.37056(13) 0.67671(15)
C8 C 0.8676(4) 0.20589(12) 0.86537(15)
C9 C 0.7694(4) 0.25390(15) 0.90940(18)
H5 H 0.7903 0.3056 0.9157
C10 C 0.6442(4) 0.14135(14) 0.91915(17)
H6 H 0.5669 0.1019 0.9331
C11 C 0.7534(3) 0.16150(12) 0.56122(15)
C12 C 0.7575(4) 0.11529(13) 0.63218(15)
H7 H 0.7550 0.1364 0.6858
C13 C 0.7653(3) 0.03681(13) 0.62318(15)
C14 C 0.7595(4) 0.00594(13) 0.54184(16)
H8 H 0.7601 -0.0462 0.5357
C15 C 0.7527(4) 0.05123(13) 0.46938(15)
C16 C 0.7555(4) 0.12956(14) 0.48065(15)
H9 H 0.7589 0.1609 0.4337
C17 C 0.7493(3) 0.24597(12) 0.56984(14)
C18 C 0.7880(3) -0.01401(13) 0.70032(15)
C19 C 0.7436(4) 0.01729(16) 0.38136(16)
H10 H 0.7893 -0.0339 0.3869
H11 H 0.8253 0.0460 0.3500
H12 H 0.6104 0.0182 0.3511
N1 N 1.0134(3) 0.41384(12) 0.65698(14)
N2 N 1.0661(3) 0.47364(11) 0.61334(14)
N3 N 1.2513(3) 0.46659(11) 0.60679(14)
H13 H 1.3160 0.4982 0.5813
N4 N 1.3263(3) 0.40231(10) 0.64598(15)
N5 N 0.6337(3) 0.21254(13) 0.94294(15)
H14 H 0.5545 0.2300 0.9744
N6 N 0.7834(3) 0.13601(11) 0.87206(13)
O1 O 0.6827(2) 0.27264(9) 0.63286(11)
O2 O 0.8095(3) 0.28544(10) 0.51328(12)
O3 O 0.8114(3) 0.01440(9) 0.77482(11)
O4 O 0.7868(3) -0.08435(10) 0.69021(12)
O5 O 0.6273(3) 0.42338(11) 0.51081(12)
Cd1_2 Cd 1.67036(2) 0.396642(9) 0.656613(10)
Cd1A Cd 0.82964(2) -0.103358(9) 0.843387(10)
N4_2 N 0.3263(3) 0.40231(10) 0.64598(15)
O3A O 0.6886(3) 0.51440(9) 0.72518(11)
O4A O 0.7132(3) 0.41565(10) 0.80979(12)
loop_
_geom_bond_atom_site_label_1
_geom_bond_atom_site_label_2
_geom_bond_site_symmetry_1
_geom_bond_site_symmetry_2
Cd1 N1 1_555 1_555
C1 C2 1_555 1_555
C2 H1 1_555 1_555
C3 C2 1_555 1_555
H2 C3 1_555 1_555
C4 C3 1_555 1_555
H3 C4 1_555 1_555
C5 C4 1_555 1_555
C6 C1 1_555 1_555
H4 C6 1_555 1_555
C7 C1 1_555 1_555
C8 C5 1_555 1_555
C9 C8 1_555 1_555
H5 C9 1_555 1_555
C10 H6 1_555 1_555
C11 C12 1_555 1_555
C12 H7 1_555 1_555
C13 C12 1_555 1_555
C14 C13 1_555 1_555
H8 C14 1_555 1_555
C15 C14 1_555 1_555
C16 C11 1_555 1_555
H9 C16 1_555 1_555
C17 C11 1_555 1_555
C18 C13 1_555 1_555
C19 C15 1_555 1_555
H10 C19 1_555 1_555
H11 C19 1_555 1_555
H12 C19 1_555 1_555
N1 C7 1_555 1_555
N2 N1 1_555 1_555
N3 N2 1_555 1_555
H13 N3 1_555 1_555
N4 C7 1_555 1_555
N5 C9 1_555 1_555
H14 N5 1_555 1_555
N6 C8 1_555 1_555
O1 Cd1 1_555 1_555
O2 C17 1_555 1_555
O3 C18 1_555 1_555
O4 C18 1_555 1_555
O5 Cd1 1_555 1_555
Cd1_2 N4 1_555 1_555
Cd1A O3 1_555 1_555
N4_2 Cd1 1_555 1_555
O3A Cd1 1_555 1_555
O4A Cd1 1_555 1_555
C5 C6 1_555 1_555
C10 N5 1_555 1_555
C10 N6 1_555 1_555
C15 C16 1_555 1_555
C17 O1 1_555 1_555
N3 N4 1_555 1_555
O4 Cd1A 1_555 1_555

#END
