
#######################################################################
#
#                 Cambridge Crystallographic Data Centre
#                                CCDC 
#
#######################################################################
#
# If this CIF has been generated from an entry in the Cambridge 
# Structural Database, then it will include bibliographic, chemical, 
# crystal, experimental, refinement or atomic coordinate data resulting 
# from the CCDC's data processing and validation procedures.
#
#######################################################################

data_HIDBIH
_symmetry_cell_setting           monoclinic
_symmetry_space_group_name_H-M   'C 2/c'
_symmetry_Int_Tables_number      15
_space_group_name_Hall           '-C 2yn'
loop_
_symmetry_equiv_pos_site_id
_symmetry_equiv_pos_as_xyz
1 x,y,z
2 -x,y,1/2-z
3 1/2+x,1/2+y,z
4 1/2-x,1/2+y,1/2-z
5 -x,-y,-z
6 x,-y,1/2+z
7 1/2-x,1/2-y,-z
8 1/2+x,1/2-y,1/2+z
_cell_length_a                   23.6066(15)
_cell_length_b                   10.0599(6)
_cell_length_c                   17.7135(11)
_cell_angle_alpha                90
_cell_angle_beta                 124.8360(10)
_cell_angle_gamma                90
_cell_volume                     3452.74
loop_
_atom_site_label
_atom_site_type_symbol
_atom_site_fract_x
_atom_site_fract_y
_atom_site_fract_z
Cd1 Cd 0.364315(10) 0.40064(2) 0.373672(13)
C1 C 0.20208(14) 0.6268(3) 0.31425(19)
C2 C 0.19133(14) 0.7453(3) 0.34530(18)
H1 H 0.2002 0.8259 0.3283
C3 C 0.16744(15) 0.7445(3) 0.40163(19)
C4 C 0.15564(19) 0.6229(4) 0.4272(2)
H2 H 0.1403 0.6204 0.4653
C5 C 0.1664(2) 0.5046(3) 0.3965(3)
H3 H 0.1580 0.4240 0.4140
C6 C 0.18964(16) 0.5057(3) 0.3403(2)
H4 H 0.1969 0.4262 0.3201
C7 C 0.22583(15) 0.6287(3) 0.25318(19)
C8 C 0.15617(14) 0.8673(3) 0.43497(18)
C9 C 0.13683(18) 0.8872(3) 0.4939(2)
H5 H 0.1251 0.8202 0.5188
C10 C 0.15679(18) 1.0815(3) 0.4622(2)
H6 H 0.1616 1.1730 0.4606
C11 C 0.5000 0.8281(5) 0.2500
H7 H 0.5000 0.9205 0.2500
C12 C 0.47221(18) 0.7586(3) 0.2897(2)
H8 H 0.4539 0.8047 0.3166
C13 C 0.47188(15) 0.6217(3) 0.2892(2)
C14 C 0.5000 0.5519(4) 0.2500
H9 H 0.5000 0.4594 0.2500
C15 C 0.43980(14) 0.5469(3) 0.32939(19)
N1 N 0.26972(13) 0.5427(3) 0.25499(18)
N2 N 0.27484(16) 0.5805(3) 0.1863(2)
N3 N 0.23640(15) 0.6843(3) 0.14457(19)
N4 N 0.20467(13) 0.7181(3) 0.18633(17)
N5 N 0.16839(13) 0.9929(3) 0.41569(17)
H10 H 0.1812 1.0112 0.3801
N6 N 0.13740(13) 1.0208(3) 0.51080(16)
O1 O 0.43057(16) 0.6055(2) 0.3847(2)
O2 O 0.42023(13) 0.4298(3) 0.30396(18)
O3 O 0.45774(16) 0.2599(3) 0.4727(2)
C12A C 0.52779(18) 0.7586(3) 0.2103(2)
H8A H 0.5461 0.8047 0.1834
C13A C 0.52812(15) 0.6217(3) 0.2108(2)
C15A C 0.56020(14) 0.5469(3) 0.17061(19)
O1A O 0.56943(16) 0.6055(2) 0.1153(2)
O2A O 0.57977(13) 0.4298(3) 0.19604(18)
Cd1A Cd 0.635685(10) 0.40064(2) 0.126328(13)
C1A C 0.79792(14) 0.6268(3) 0.18575(19)
C2A C 0.80867(14) 0.7453(3) 0.15470(18)
H1A H 0.7998 0.8259 0.1717
C3A C 0.83256(15) 0.7445(3) 0.09837(19)
C4A C 0.84436(19) 0.6229(4) 0.0728(2)
H2A H 0.8597 0.6204 0.0347
C5A C 0.8336(2) 0.5046(3) 0.1035(3)
H3A H 0.8420 0.4240 0.0860
C6A C 0.81036(16) 0.5057(3) 0.1597(2)
H4A H 0.8031 0.4262 0.1799
C7A C 0.77417(15) 0.6287(3) 0.24682(19)
C8A C 0.84383(14) 0.8673(3) 0.06503(18)
C9A C 0.86317(18) 0.8872(3) 0.0061(2)
H5A H 0.8749 0.8202 -0.0188
C10A C 0.84321(18) 1.0815(3) 0.0378(2)
H6A H 0.8384 1.1730 0.0394
N1A N 0.73028(13) 0.5427(3) 0.24501(18)
N2A N 0.72516(16) 0.5805(3) 0.3137(2)
N3A N 0.76360(15) 0.6843(3) 0.35543(19)
N4A N 0.79533(13) 0.7181(3) 0.31367(17)
N5A N 0.83161(13) 0.9929(3) 0.08431(17)
H10A H 0.8188 1.0112 0.1199
N6A N 0.86260(13) 1.0208(3) -0.01080(16)
O3A O 0.54226(16) 0.2599(3) 0.0273(2)
Cd1B Cd 0.864315(10) 0.90064(2) 0.373672(13)
Cd1C Cd 0.135685(10) 0.90064(2) 0.126328(13)
Cd1F Cd 0.135685(10) 1.09936(2) 0.626328(13)
Cd1G Cd 0.864315(10) 1.09936(2) -0.126328(13)
N4B N 0.70467(13) 0.2181(3) 0.18633(17)
N4C N 0.29533(13) 0.2181(3) 0.31367(17)
N6F N 0.36260(13) 0.4792(3) 0.48920(16)
N6G N 0.63740(13) 0.4792(3) 0.01080(16)
O4 O 0.4837(2) 0.1662(6) 0.3195(4)
O5 O 0.1358(3) 0.3611(10) 0.1281(5)
O6 O 0.0462(6) 0.5066(10) 0.9767(6)
loop_
_geom_bond_atom_site_label_1
_geom_bond_atom_site_label_2
_geom_bond_site_symmetry_1
_geom_bond_site_symmetry_2
Cd1 N1 1_555 1_555
C1 C2 1_555 1_555
C2 H1 1_555 1_555
C3 C2 1_555 1_555
C4 C3 1_555 1_555
H2 C4 1_555 1_555
C5 C4 1_555 1_555
H3 C5 1_555 1_555
C6 C1 1_555 1_555
H4 C6 1_555 1_555
C7 C1 1_555 1_555
C8 C3 1_555 1_555
C9 C8 1_555 1_555
H5 C9 1_555 1_555
C10 H6 1_555 1_555
C11 H7 1_555 1_555
C12 C11 1_555 1_555
H8 C12 1_555 1_555
C13 C12 1_555 1_555
C14 C13 1_555 1_555
H9 C14 1_555 1_555
C15 C13 1_555 1_555
N1 C7 1_555 1_555
N2 N1 1_555 1_555
N3 N2 1_555 1_555
N4 C7 1_555 1_555
N5 C8 1_555 1_555
H10 N5 1_555 1_555
N6 C9 1_555 1_555
O1 Cd1 1_555 1_555
O2 Cd1 1_555 1_555
O3 Cd1 1_555 1_555
C12A C11 1_555 1_555
H8A C12A 1_555 1_555
C13A C14 1_555 1_555
C15A C13A 1_555 1_555
O1A C15A 1_555 1_555
O2A C15A 1_555 1_555
Cd1A O1A 1_555 1_555
C1A C2A 1_555 1_555
C2A H1A 1_555 1_555
C3A C2A 1_555 1_555
C4A C3A 1_555 1_555
H2A C4A 1_555 1_555
C5A C4A 1_555 1_555
H3A C5A 1_555 1_555
C6A C1A 1_555 1_555
H4A C6A 1_555 1_555
C7A C1A 1_555 1_555
C8A C3A 1_555 1_555
C9A C8A 1_555 1_555
H5A C9A 1_555 1_555
C10A H6A 1_555 1_555
N1A Cd1A 1_555 1_555
N2A N1A 1_555 1_555
N3A N2A 1_555 1_555
N4A C7A 1_555 1_555
N5A C8A 1_555 1_555
H10A N5A 1_555 1_555
N6A C9A 1_555 1_555
O3A Cd1A 1_555 1_555
Cd1B N4A 1_555 1_555
Cd1C N4 1_555 1_555
Cd1F N6 1_555 1_555
Cd1G N6A 1_555 1_555
N4B Cd1A 1_555 1_555
N4C Cd1 1_555 1_555
N6F Cd1 1_555 1_555
N6G Cd1A 1_555 1_555
C5 C6 1_555 1_555
C10 N5 1_555 1_555
C10 N6 1_555 1_555
C15 O1 1_555 1_555
C15 O2 1_555 1_555
N3 N4 1_555 1_555
C12A C13A 1_555 1_555
O2A Cd1A 1_555 1_555
C5A C6A 1_555 1_555
C7A N1A 1_555 1_555
C10A N5A 1_555 1_555
C10A N6A 1_555 1_555
N3A N4A 1_555 1_555

#END
