
#######################################################################
#
#                 Cambridge Crystallographic Data Centre
#                                CCDC 
#
#######################################################################
#
# If this CIF has been generated from an entry in the Cambridge 
# Structural Database, then it will include bibliographic, chemical, 
# crystal, experimental, refinement or atomic coordinate data resulting 
# from the CCDC's data processing and validation procedures.
#
#######################################################################

data_HIDBAZ
_symmetry_cell_setting           triclinic
_symmetry_space_group_name_H-M   'P -1'
_symmetry_Int_Tables_number      2
_space_group_name_Hall           '-P 1'
loop_
_symmetry_equiv_pos_site_id
_symmetry_equiv_pos_as_xyz
1 x,y,z
2 -x,-y,-z
_cell_length_a                   7.6227(4)
_cell_length_b                   10.5639(5)
_cell_length_c                   12.0613(6)
_cell_angle_alpha                68.2540(10)
_cell_angle_beta                 84.7600(10)
_cell_angle_gamma                76.6420(10)
_cell_volume                     877.699
loop_
_atom_site_label
_atom_site_type_symbol
_atom_site_fract_x
_atom_site_fract_y
_atom_site_fract_z
Cd1 Cd 0.42497(3) 1.02556(2) 0.348385(15)
C1 C 0.7278(4) 0.5281(3) 0.9732(3)
C2 C 0.8535(5) 0.4032(3) 0.9955(3)
H1 H 0.8949 0.3501 1.0726
C3 C 0.9166(5) 0.3583(4) 0.9021(3)
H2 H 1.0002 0.2745 0.9168
C4 C 0.8558(5) 0.4375(4) 0.7867(3)
H3 H 0.9003 0.4071 0.7244
C5 C 0.7291(5) 0.5616(3) 0.7639(3)
C6 C 0.6652(5) 0.6061(3) 0.8574(3)
H4 H 0.5795 0.6889 0.8428
C7 C 0.6655(5) 0.6453(3) 0.6415(3)
C8 C 0.6596(5) 0.5818(3) 1.0687(3)
C9 C 0.5474(5) 0.7038(4) 1.0638(3)
H5 H 0.4937 0.7740 0.9955
C10 C 0.6236(5) 0.5861(4) 1.2505(3)
H6 H 0.6316 0.5605 1.3327
C11 C 0.7976(4) 1.0026(3) 0.2168(3)
C12 C 0.9045(4) 1.0046(3) 0.1040(2)
C13 C 0.8180(4) 1.0012(3) 0.0083(2)
H7 H 0.6953 1.0020 0.0139
C14 C 0.9109(4) 0.9967(3) -0.0954(2)
C15 C 0.8051(4) 0.9876(3) -0.1911(2)
N1 N 0.6002(4) 0.7824(3) 0.5989(2)
N2 N 0.5639(4) 0.8120(3) 0.4833(2)
N3 N 0.6048(6) 0.6989(3) 0.4587(3)
N4 N 0.6706(6) 0.5914(3) 0.5565(3)
H8 H 0.7083 0.5056 0.5634
N5 N 0.5273(5) 0.7051(3) 1.1774(3)
H9 H 0.4634 0.7715 1.1979
N6 N 0.7060(4) 0.5099(3) 1.1879(2)
O1 O 0.6330(3) 1.0611(3) 0.2033(2)
O2 O 0.8805(4) 0.9405(4) 0.3125(2)
O3 O 0.8314(4) 0.8757(2) -0.2095(2)
O4 O 0.6844(4) 1.0909(3) -0.2444(2)
O5 O 0.2038(5) 0.9885(4) 0.4961(3)
C11A C 1.2024(4) 0.9974(3) -0.2168(3)
C12A C 1.0955(4) 0.9954(3) -0.1040(2)
C13A C 1.1820(4) 0.9988(3) -0.0083(2)
H7A H 1.3047 0.9980 -0.0139
C14A C 1.0891(4) 1.0033(3) 0.0954(2)
C15A C 1.1949(4) 1.0124(3) 0.1911(2)
O1A O 1.3670(3) 0.9389(3) -0.2033(2)
O2A O 1.1195(4) 1.0595(4) -0.3125(2)
O3A O 1.1686(4) 1.1243(2) 0.2095(2)
O4A O 1.3156(4) 0.9091(3) 0.2444(2)
Cd1A Cd 0.57503(3) 0.97444(2) -0.348385(15)
C1A C 0.2722(4) 1.4719(3) -0.9732(3)
C2A C 0.1465(5) 1.5968(3) -0.9955(3)
H1A H 0.1051 1.6499 -1.0726
C3A C 0.0834(5) 1.6417(4) -0.9021(3)
H2A H -0.0002 1.7255 -0.9168
C4A C 0.1442(5) 1.5625(4) -0.7867(3)
H3A H 0.0997 1.5929 -0.7244
C5A C 0.2709(5) 1.4384(3) -0.7639(3)
C6A C 0.3348(5) 1.3939(3) -0.8574(3)
H4A H 0.4205 1.3111 -0.8428
C7A C 0.3345(5) 1.3547(3) -0.6415(3)
C8A C 0.3404(5) 1.4182(3) -1.0687(3)
C9A C 0.4526(5) 1.2962(4) -1.0638(3)
H5A H 0.5063 1.2260 -0.9955
C10A C 0.3764(5) 1.4139(4) -1.2505(3)
H6A H 0.3684 1.4395 -1.3327
N1A N 0.3998(4) 1.2176(3) -0.5989(2)
N2A N 0.4361(4) 1.1880(3) -0.4833(2)
N3A N 0.3952(6) 1.3011(3) -0.4587(3)
N4A N 0.3294(6) 1.4086(3) -0.5565(3)
H8A H 0.2917 1.4944 -0.5634
N5A N 0.4727(5) 1.2949(3) -1.1774(3)
H9A H 0.5366 1.2285 -1.1979
N6A N 0.2940(4) 1.4901(3) -1.1879(2)
O5A O 0.7962(5) 1.0115(4) -0.4961(3)
Cd1_2 Cd 0.42497(3) 1.02556(2) -0.651615(15)
Cd1_3 Cd 1.42497(3) 1.02556(2) 0.348385(15)
Cd1A_2 Cd 0.57503(3) 0.97444(2) 0.651615(15)
Cd1A_3 Cd 1.57503(3) 0.97444(2) -0.348385(15)
N1_2 N 0.6002(4) 0.7824(3) -0.4011(2)
N1A_2 N 0.3998(4) 1.2176(3) 0.4011(2)
O1A_2 O 0.3670(3) 0.9389(3) -0.2033(2)
O3A_2 O 0.1686(4) 1.1243(2) 0.2095(2)
O4A_2 O 0.3156(4) 0.9091(3) 0.2444(2)
O6 O 0.9016(5) 0.2653(3) 0.3252(3)
O7 O 0.8905(8) 0.3166(5) 0.5280(4)
loop_
_geom_bond_atom_site_label_1
_geom_bond_atom_site_label_2
_geom_bond_site_symmetry_1
_geom_bond_site_symmetry_2
Cd1 N2 1_555 1_555
C1 C2 1_555 1_555
C2 H1 1_555 1_555
C3 C2 1_555 1_555
H2 C3 1_555 1_555
C4 C3 1_555 1_555
H3 C4 1_555 1_555
C5 C4 1_555 1_555
C6 C1 1_555 1_555
H4 C6 1_555 1_555
C7 C5 1_555 1_555
C8 C1 1_555 1_555
C9 C8 1_555 1_555
H5 C9 1_555 1_555
C10 H6 1_555 1_555
C11 C12 1_555 1_555
C12 C13 1_555 1_555
C13 H7 1_555 1_555
C14 C13 1_555 1_555
C15 C14 1_555 1_555
N1 C7 1_555 1_555
N2 N1 1_555 1_555
N3 N2 1_555 1_555
N4 C7 1_555 1_555
H8 N4 1_555 1_555
N5 C9 1_555 1_555
H9 N5 1_555 1_555
N6 C8 1_555 1_555
O1 Cd1 1_555 1_555
O2 C11 1_555 1_555
O3 C15 1_555 1_555
O4 C15 1_555 1_555
O5 Cd1 1_555 1_555
C11A C12A 1_555 1_555
C12A C14 1_555 1_555
C13A C12A 1_555 1_555
H7A C13A 1_555 1_555
C14A C12 1_555 1_555
C15A C14A 1_555 1_555
O1A C11A 1_555 1_555
O2A C11A 1_555 1_555
O3A C15A 1_555 1_555
O4A C15A 1_555 1_555
Cd1A O3 1_555 1_555
C1A C2A 1_555 1_555
C2A H1A 1_555 1_555
C3A C2A 1_555 1_555
H2A C3A 1_555 1_555
C4A C3A 1_555 1_555
H3A C4A 1_555 1_555
C5A C4A 1_555 1_555
C6A C1A 1_555 1_555
H4A C6A 1_555 1_555
C7A C5A 1_555 1_555
C8A C1A 1_555 1_555
C9A C8A 1_555 1_555
H5A C9A 1_555 1_555
C10A H6A 1_555 1_555
N1A C7A 1_555 1_555
N2A Cd1A 1_555 1_555
N3A N2A 1_555 1_555
N4A C7A 1_555 1_555
H8A N4A 1_555 1_555
N5A C9A 1_555 1_555
H9A N5A 1_555 1_555
N6A C8A 1_555 1_555
O5A Cd1A 1_555 1_555
Cd1_2 N1A 1_555 1_555
Cd1_3 O3A 1_555 1_555
Cd1A_2 N1 1_555 1_555
Cd1A_3 O1A 1_555 1_555
N1_2 Cd1A 1_555 1_555
N1A_2 Cd1 1_555 1_555
O1A_2 Cd1A 1_555 1_555
O3A_2 Cd1 1_555 1_555
O4A_2 Cd1 1_555 1_555
C5 C6 1_555 1_555
C10 N5 1_555 1_555
C10 N6 1_555 1_555
C11 O1 1_555 1_555
N3 N4 1_555 1_555
O4 Cd1A 1_555 1_555
C13A C14A 1_555 1_555
O4A Cd1_3 1_555 1_555
C5A C6A 1_555 1_555
C10A N5A 1_555 1_555
C10A N6A 1_555 1_555
N1A N2A 1_555 1_555
N3A N4A 1_555 1_555

#END
