
#######################################################################
#
#                 Cambridge Crystallographic Data Centre
#                                CCDC 
#
#######################################################################
#
# If this CIF has been generated from an entry in the Cambridge 
# Structural Database, then it will include bibliographic, chemical, 
# crystal, experimental, refinement or atomic coordinate data resulting 
# from the CCDC's data processing and validation procedures.
#
#######################################################################

data_HIDFOQ
_symmetry_cell_setting           monoclinic
_symmetry_space_group_name_H-M   'C c'
_symmetry_Int_Tables_number      9
_space_group_name_Hall           'C -2yc'
loop_
_symmetry_equiv_pos_site_id
_symmetry_equiv_pos_as_xyz
1 x,y,z
2 x,-y,1/2+z
3 1/2+x,1/2+y,z
4 1/2+x,1/2-y,1/2+z
_cell_length_a                   11.424(3)
_cell_length_b                   11.281(3)
_cell_length_c                   11.173(3)
_cell_angle_alpha                90
_cell_angle_beta                 93.466(4)
_cell_angle_gamma                90
_cell_volume                     1437.28
loop_
_atom_site_label
_atom_site_type_symbol
_atom_site_fract_x
_atom_site_fract_y
_atom_site_fract_z
Cu1 Cu 0.96658(4) 0.07010(4) 0.06372(4)
S1 S 1.07774(9) -0.11860(9) 0.16911(9)
C1 C 1.0513(4) -0.0850(3) 0.3085(4)
N1 N 1.0333(4) -0.0617(3) 0.4059(3)
O1 O 0.8122(3) 0.0037(2) 0.0144(2)
C2 C 0.7353(4) 0.0312(3) 0.0903(4)
C3 C 0.6127(4) -0.0108(3) 0.0668(3)
C4 C 0.5846(4) -0.0779(3) -0.0355(4)
H1 H 0.6431 -0.0948 -0.0900
C5 C 0.4711(4) -0.1204(4) -0.0579(4)
H2 H 0.4520 -0.1665 -0.1275
C6 C 0.3851(4) -0.0950(4) 0.0224(4)
H3 H 0.3075 -0.1237 0.0074
C7 C 0.4134(4) -0.0279(4) 0.1237(4)
H4 H 0.3552 -0.0112 0.1786
C8 C 0.5256(4) 0.0147(4) 0.1454(4)
H5 H 0.5440 0.0619 0.2144
N2 N 0.7582(3) 0.0955(3) 0.1893(3)
C9 C 0.8595(4) 0.2510(4) 0.3712(4)
H6 H 0.7805 0.2735 0.3406
H7 H 0.9016 0.3215 0.4018
H8 H 0.8542 0.1931 0.4360
N3 N 0.8752(3) 0.1262(3) 0.1917(3)
C10 C 0.9244(4) 0.1972(3) 0.2719(3)
C11 C 1.0485(4) 0.2200(3) 0.2543(3)
C12 C 1.1225(4) 0.2860(3) 0.3310(4)
H9 H 1.0949 0.3180 0.4027
C13 C 1.2376(4) 0.3051(3) 0.3022(4)
H10 H 1.2892 0.3509 0.3534
C14 C 1.2760(4) 0.2563(4) 0.1975(4)
H11 H 1.3542 0.2681 0.1757
C15 C 1.1977(4) 0.1898(3) 0.1254(4)
H12 H 1.2242 0.1550 0.0545
N4 N 1.0870(3) 0.1731(3) 0.1519(3)
Cu1A Cu 0.96658(4) -0.07010(4) 0.56372(4)
N1A N 1.0333(4) 0.0617(3) -0.0941(3)
loop_
_geom_bond_atom_site_label_1
_geom_bond_atom_site_label_2
_geom_bond_site_symmetry_1
_geom_bond_site_symmetry_2
Cu1 S1 1_555 1_555
S1 C1 1_555 1_555
C1 N1 1_555 1_555
N1 Cu1A 1_555 1_555
O1 Cu1 1_555 1_555
C2 O1 1_555 1_555
C3 C2 1_555 1_555
C4 C3 1_555 1_555
H1 C4 1_555 1_555
C5 C4 1_555 1_555
H2 C5 1_555 1_555
C6 C5 1_555 1_555
H3 C6 1_555 1_555
C7 C6 1_555 1_555
H4 C7 1_555 1_555
C8 C3 1_555 1_555
H5 C8 1_555 1_555
N2 C2 1_555 1_555
C9 H6 1_555 1_555
H7 C9 1_555 1_555
H8 C9 1_555 1_555
N3 Cu1 1_555 1_555
C10 C9 1_555 1_555
C11 C10 1_555 1_555
C12 C11 1_555 1_555
H9 C12 1_555 1_555
C13 C12 1_555 1_555
H10 C13 1_555 1_555
C14 C13 1_555 1_555
H11 C14 1_555 1_555
C15 C14 1_555 1_555
H12 C15 1_555 1_555
N4 Cu1 1_555 1_555
N1A Cu1 1_555 1_555
C7 C8 1_555 1_555
N2 N3 1_555 1_555
N3 C10 1_555 1_555
C11 N4 1_555 1_555
C15 N4 1_555 1_555

#END
