
#######################################################################
#
#                 Cambridge Crystallographic Data Centre
#                                CCDC 
#
#######################################################################
#
# If this CIF has been generated from an entry in the Cambridge 
# Structural Database, then it will include bibliographic, chemical, 
# crystal, experimental, refinement or atomic coordinate data resulting 
# from the CCDC's data processing and validation procedures.
#
#######################################################################

data_HIDTUK
_symmetry_cell_setting           orthorhombic
_symmetry_space_group_name_H-M   'P c c n'
_symmetry_Int_Tables_number      56
_space_group_name_Hall           '-P 2ab 2ac'
loop_
_symmetry_equiv_pos_site_id
_symmetry_equiv_pos_as_xyz
1 x,y,z
2 1/2-x,1/2-y,z
3 -x,1/2+y,1/2-z
4 1/2+x,-y,1/2-z
5 -x,-y,-z
6 1/2+x,1/2+y,-z
7 x,1/2-y,1/2+z
8 1/2-x,y,1/2+z
_cell_length_a                   12.014(7)
_cell_length_b                   18.533(8)
_cell_length_c                   7.411(3)
_cell_angle_alpha                90
_cell_angle_beta                 90
_cell_angle_gamma                90
_cell_volume                     1650.1
loop_
_atom_site_label
_atom_site_type_symbol
_atom_site_fract_x
_atom_site_fract_y
_atom_site_fract_z
Cu1 Cu 0.0000 0.5000 0.0000
O1 O -0.1229(2) 0.54296(15) 0.1421(3)
H1 H -0.126(4) 0.543(2) 0.251(3)
H2 H -0.184(2) 0.546(2) 0.095(6)
O2 O 0.1102(2) 0.44599(15) 0.2366(3)
O3 O -0.0023(3) 0.4179(3) 0.4510(7)
O4 O 0.1711(3) 0.43196(19) 0.5051(3)
N1 N 0.0885(2) 0.59087(14) 0.0366(4)
N2 N 0.0904(3) 0.43241(17) 0.3962(4)
C1 C 0.0439(3) 0.65525(19) 0.0012(5)
H3 H -0.0310 0.6574 -0.0299
C2 C 0.1038(3) 0.71886(17) 0.0087(5)
H4 H 0.0693 0.7626 -0.0173
C3 C 0.2153(3) 0.71715(15) 0.0551(5)
C4 C 0.2612(3) 0.64983(16) 0.0930(5)
H5 H 0.3359 0.6460 0.1241
C5 C 0.1958(3) 0.58901(17) 0.0842(5)
H6 H 0.2276 0.5447 0.1126
Cu1E Cu 0.5000 1.0000 0.0000
O1D O 0.1229(2) 0.45704(15) -0.1421(3)
H1D H 0.126(4) 0.457(2) -0.251(3)
H2D H 0.184(2) 0.454(2) -0.095(6)
O2D O -0.1102(2) 0.55401(15) -0.2366(3)
O3D O 0.0023(3) 0.5821(3) -0.4510(7)
O4D O -0.1711(3) 0.56804(19) -0.5051(3)
N1A N 0.4115(2) 0.90913(14) 0.0366(4)
N1D N -0.0885(2) 0.40913(14) -0.0366(4)
N2D N -0.0904(3) 0.56759(17) -0.3962(4)
C1A C 0.4561(3) 0.84475(19) 0.0012(5)
H3A H 0.5310 0.8426 -0.0299
C2A C 0.3962(3) 0.78114(17) 0.0087(5)
H4A H 0.4307 0.7374 -0.0173
C3A C 0.2847(3) 0.78285(15) 0.0551(5)
C4A C 0.2388(3) 0.85017(16) 0.0930(5)
H5A H 0.1641 0.8540 0.1241
C5A C 0.3042(3) 0.91099(17) 0.0842(5)
H6A H 0.2724 0.9553 0.1126
O6 O 0.7500 0.7500 0.155(5)
O5? O 0.7500 0.7500 0.352(6)
loop_
_geom_bond_atom_site_label_1
_geom_bond_atom_site_label_2
_geom_bond_site_symmetry_1
_geom_bond_site_symmetry_2
Cu1 O1 1_555 1_555
O1 H1 1_555 1_555
H2 O1 1_555 1_555
O2 Cu1 1_555 1_555
O3 N2 1_555 1_555
O4 N2 1_555 1_555
N1 Cu1 1_555 1_555
N2 O2 1_555 1_555
C1 N1 1_555 1_555
H3 C1 1_555 1_555
C2 C1 1_555 1_555
H4 C2 1_555 1_555
C3 C2 1_555 1_555
C4 C3 1_555 1_555
H5 C4 1_555 1_555
C5 N1 1_555 1_555
H6 C5 1_555 1_555
Cu1E N1A 1_555 1_555
O1D Cu1 1_555 1_555
H1D O1D 1_555 1_555
H2D O1D 1_555 1_555
O2D Cu1 1_555 1_555
O3D N2D 1_555 1_555
O4D N2D 1_555 1_555
N1A C1A 1_555 1_555
N1D Cu1 1_555 1_555
N2D O2D 1_555 1_555
C1A H3A 1_555 1_555
C2A C1A 1_555 1_555
H4A C2A 1_555 1_555
C3A C3 1_555 1_555
C4A C3A 1_555 1_555
H5A C4A 1_555 1_555
C5A N1A 1_555 1_555
H6A C5A 1_555 1_555
C4 C5 1_555 1_555
C2A C3A 1_555 1_555
C4A C5A 1_555 1_555

#END
