
#######################################################################
#
#                 Cambridge Crystallographic Data Centre
#                                CCDC 
#
#######################################################################
#
# If this CIF has been generated from an entry in the Cambridge 
# Structural Database, then it will include bibliographic, chemical, 
# crystal, experimental, refinement or atomic coordinate data resulting 
# from the CCDC's data processing and validation procedures.
#
#######################################################################

data_HIDWEX
_symmetry_cell_setting           orthorhombic
_symmetry_space_group_name_H-M   'P n m a'
_symmetry_Int_Tables_number      62
_space_group_name_Hall           '-P 2ac 2n'
loop_
_symmetry_equiv_pos_site_id
_symmetry_equiv_pos_as_xyz
1 x,y,z
2 1/2-x,-y,1/2+z
3 1/2+x,1/2-y,1/2-z
4 -x,1/2+y,-z
5 -x,-y,-z
6 1/2+x,y,1/2-z
7 1/2-x,1/2+y,1/2+z
8 x,1/2-y,z
_cell_length_a                   8.8679(6)
_cell_length_b                   22.2946(15)
_cell_length_c                   10.1532(7)
_cell_angle_alpha                90
_cell_angle_beta                 90
_cell_angle_gamma                90
_cell_volume                     2007.35
loop_
_atom_site_label
_atom_site_type_symbol
_atom_site_fract_x
_atom_site_fract_y
_atom_site_fract_z
Zn1 Zn 0.30338(3) 0.065115(9) 0.21615(2)
C1 C 0.2612(2) 0.00250(9) 0.47076(18)
H1 H 0.1957 0.0326 0.4980
C2 C 0.5689(3) -0.15267(11) 0.4031(2)
H2 H 0.6225 -0.1878 0.4191
C3 C 0.4177(2) -0.04756(9) 0.35169(19)
C4 C 0.4690(3) -0.13204(9) 0.4965(2)
H3 H 0.4523 -0.1531 0.5742
C5 C 0.5890(3) 0.2500 0.1586(3)
H4 H 0.6761 0.2500 0.2095
C6 C 0.5241(2) 0.19606(8) 0.12061(18)
C7 C 0.3967(2) 0.19630(8) 0.0416(2)
H5 H 0.3530 0.1602 0.0161
C8 C 0.3938(2) -0.07840(8) 0.47040(19)
C9 C 0.5907(2) 0.13817(8) 0.16714(18)
C10 C 0.5161(3) -0.06974(10) 0.2570(2)
H6 H 0.5304 -0.0499 0.1774
C11 C 0.3342(4) 0.2500 0.0003(3)
H7 H 0.2505 0.2500 -0.0549
C12 C 0.5915(3) -0.12202(12) 0.2849(2)
H8 H 0.6592 -0.1374 0.2236
O1 O 0.51519(16) 0.09027(6) 0.16570(15)
O2 O 0.72504(16) 0.13998(6) 0.20800(14)
N1 N 0.33144(19) 0.00422(7) 0.35423(16)
N2 N 0.29132(18) -0.04533(8) 0.54531(16)
Zn1G Zn 0.30338(3) 0.434885(9) 0.21615(2)
Zn1E Zn 0.80338(3) 0.065115(9) 0.28385(2)
Zn1A Zn 0.19662(3) -0.065115(9) 0.71615(2)
Zn1B Zn 0.80338(3) 0.434885(9) 0.28385(2)
Zn1A_2 Zn 0.19662(3) -0.065115(9) -0.28385(2)
C1A C 0.2388(2) -0.00250(9) -0.02924(18)
H1A H 0.3043 -0.0326 -0.0020
C2A C -0.0689(3) 0.15267(11) -0.0969(2)
H2A H -0.1225 0.1878 -0.0809
C3A C 0.0823(2) 0.04756(9) -0.14831(19)
C4A C 0.0310(3) 0.13204(9) -0.0035(2)
H3A H 0.0477 0.1531 0.0742
C6G C 0.5241(2) 0.30394(8) 0.12061(18)
C7G C 0.3967(2) 0.30370(8) 0.0416(2)
H5G H 0.3530 0.3398 0.0161
C8A C 0.1062(2) 0.07840(8) -0.02960(19)
C9G C 0.5907(2) 0.36183(8) 0.16714(18)
C10A C -0.0161(3) 0.06974(10) -0.2430(2)
H6A H -0.0304 0.0499 -0.3226
C12A C -0.0915(3) 0.12202(12) -0.2151(2)
H8A H -0.1592 0.1374 -0.2764
O1G O 0.51519(16) 0.40973(6) 0.16570(15)
O2G O 0.72504(16) 0.36002(6) 0.20800(14)
O2E O 0.22504(16) 0.13998(6) 0.29200(14)
O2B O 0.22504(16) 0.36002(6) 0.29200(14)
N1A N 0.16856(19) -0.00422(7) -0.14577(16)
N1G N 0.33144(19) 0.49578(7) 0.35423(16)
N2A N 0.20868(18) 0.04533(8) 0.04531(16)
N2F N 0.20868(18) 0.45467(8) 0.04531(16)
loop_
_geom_bond_atom_site_label_1
_geom_bond_atom_site_label_2
_geom_bond_site_symmetry_1
_geom_bond_site_symmetry_2
Zn1 O1 1_555 1_555
C1 H1 1_555 1_555
C2 H2 1_555 1_555
C3 C8 1_555 1_555
C4 C2 1_555 1_555
H3 C4 1_555 1_555
C5 H4 1_555 1_555
C6 C5 1_555 1_555
C7 C6 1_555 1_555
H5 C7 1_555 1_555
C8 C4 1_555 1_555
C9 C6 1_555 1_555
C10 C3 1_555 1_555
H6 C10 1_555 1_555
C11 C7 1_555 1_555
H7 C11 1_555 1_555
C12 C2 1_555 1_555
H8 C12 1_555 1_555
O1 C9 1_555 1_555
O2 C9 1_555 1_555
N1 Zn1 1_555 1_555
N2 C1 1_555 1_555
Zn1G O1G 1_555 1_555
Zn1E O2 1_555 1_555
Zn1A N2 1_555 1_555
Zn1B O2G 1_555 1_555
Zn1A_2 N1A 1_555 1_555
C1A H1A 1_555 1_555
C2A H2A 1_555 1_555
C3A C8A 1_555 1_555
C4A C2A 1_555 1_555
H3A C4A 1_555 1_555
C6G C5 1_555 1_555
C7G C11 1_555 1_555
H5G C7G 1_555 1_555
C8A C4A 1_555 1_555
C9G C6G 1_555 1_555
C10A C3A 1_555 1_555
H6A C10A 1_555 1_555
C12A C2A 1_555 1_555
H8A C12A 1_555 1_555
O1G C9G 1_555 1_555
O2G C9G 1_555 1_555
O2E Zn1 1_555 1_555
O2B Zn1G 1_555 1_555
N1A C1A 1_555 1_555
N1G Zn1G 1_555 1_555
N2A Zn1 1_555 1_555
N2F Zn1G 1_555 1_555
C1 N1 1_555 1_555
C3 N1 1_555 1_555
C8 N2 1_555 1_555
C10 C12 1_555 1_555
C1A N2A 1_555 1_555
C3A N1A 1_555 1_555
C6G C7G 1_555 1_555
C8A N2A 1_555 1_555
C10A C12A 1_555 1_555

#END
