
#######################################################################
#
#                 Cambridge Crystallographic Data Centre
#                                CCDC 
#
#######################################################################
#
# If this CIF has been generated from an entry in the Cambridge 
# Structural Database, then it will include bibliographic, chemical, 
# crystal, experimental, refinement or atomic coordinate data resulting 
# from the CCDC's data processing and validation procedures.
#
#######################################################################

data_HIDWUO
_symmetry_cell_setting           monoclinic
_symmetry_space_group_name_H-M   'P 21/n'
_symmetry_Int_Tables_number      14
_space_group_name_Hall           '-P 2yn'
loop_
_symmetry_equiv_pos_site_id
_symmetry_equiv_pos_as_xyz
1 x,y,z
2 1/2-x,1/2+y,1/2-z
3 -x,-y,-z
4 1/2+x,1/2-y,1/2+z
_cell_length_a                   12.008(2)
_cell_length_b                   13.0340(16)
_cell_length_c                   16.872(3)
_cell_angle_alpha                90
_cell_angle_beta                 108.570(7)
_cell_angle_gamma                90
_cell_volume                     2503.19
loop_
_atom_site_label
_atom_site_type_symbol
_atom_site_fract_x
_atom_site_fract_y
_atom_site_fract_z
Cu1 Cu 0.79156(4) 0.26518(4) 0.11127(3)
N1 N 0.7667(3) 0.2399(2) -0.0130(2)
N2 N 0.7500(3) 0.1162(2) 0.10275(18)
N3 N 0.7302(3) 0.0422(2) 0.15488(18)
N4 N 0.6866(3) -0.0206(2) 0.02690(18)
N5 N 0.6629(3) -0.2291(2) 0.2631(2)
N6 N 0.5466(3) -0.0707(3) -0.0987(2)
N7 N 0.6183(4) 0.3363(3) 0.0865(2)
N8 N 0.4493(5) 0.4430(5) 0.0816(4)
N9 N 0.3855(6) 0.4836(5) 0.2019(6)
O1 O 0.8771(3) 0.3938(2) 0.11159(18)
O2 O 1.0313(4) 0.2932(3) 0.1346(3)
C1 C 0.7777(5) 0.3100(3) -0.0679(3)
H1 H 0.7942 0.3775 -0.0500
C2 C 0.7653(5) 0.2863(4) -0.1500(3)
H2 H 0.7723 0.3368 -0.1870
C3 C 0.7425(6) 0.1868(4) -0.1758(3)
H3 H 0.7370 0.1685 -0.2302
C4 C 0.7277(5) 0.1131(4) -0.1205(3)
H4 H 0.7103 0.0455 -0.1377
C5 C 0.7391(3) 0.1418(3) -0.0404(2)
C6 C 0.7249(3) 0.0780(3) 0.0265(2)
C7 C 0.6909(3) -0.0392(3) 0.1078(2)
C8 C 0.6541(3) -0.1333(3) 0.1402(2)
C9 C 0.5769(4) -0.2054(3) 0.0908(2)
H5 H 0.5462 -0.1966 0.0332
C10 C 0.5469(4) -0.2901(4) 0.1288(3)
H6 H 0.4971 -0.3401 0.0970
C11 C 0.5916(4) -0.2998(3) 0.2147(2)
H7 H 0.5717 -0.3573 0.2399
C12 C 0.6929(3) -0.1476(3) 0.2260(2)
H8 H 0.7419 -0.0983 0.2593
C13 C 0.6528(3) -0.0885(3) -0.0453(2)
C14 C 0.7302(4) -0.1616(4) -0.0540(3)
H9 H 0.8036 -0.1701 -0.0140
C15 C 0.6941(5) -0.2216(4) -0.1246(4)
H10 H 0.7427 -0.2731 -0.1331
C16 C 0.5854(5) -0.2049(5) -0.1827(3)
H11 H 0.5603 -0.2438 -0.2314
C17 C 0.5148(4) -0.1297(4) -0.1673(3)
H12 H 0.4411 -0.1193 -0.2065
C18 C 0.5413(4) 0.3859(4) 0.0882(3)
C19 C 0.4210(6) 0.4623(4) 0.1476(6)
C20 C 0.9856(4) 0.3787(4) 0.1245(3)
C21 C 1.0613(6) 0.4740(6) 0.1291(5)
H13 H 1.1394 0.4610 0.1657
H14 H 1.0281 0.5306 0.1503
H15 H 1.0639 0.4904 0.0743
Cu1A Cu 0.70844(4) -0.23482(4) 0.38873(3)
N5A N 0.8371(3) 0.2709(2) 0.2369(2)
O3 O 0.7803(7) 0.5898(6) 0.0614(8)
H16 H 0.7626 0.5919 0.1070
H17 H 0.8269 0.5424 0.0576
O4 O 0.4222(18) 0.5827(7) 0.3534(10)
loop_
_geom_bond_atom_site_label_1
_geom_bond_atom_site_label_2
_geom_bond_site_symmetry_1
_geom_bond_site_symmetry_2
Cu1 N1 1_555 1_555
N1 C1 1_555 1_555
N2 Cu1 1_555 1_555
N3 N2 1_555 1_555
N4 C6 1_555 1_555
N5 C11 1_555 1_555
N6 C13 1_555 1_555
N7 Cu1 1_555 1_555
N8 C18 1_555 1_555
N9 C19 1_555 1_555
O1 Cu1 1_555 1_555
O2 Cu1 1_555 1_555
C1 H1 1_555 1_555
C2 C1 1_555 1_555
H2 C2 1_555 1_555
C3 C2 1_555 1_555
H3 C3 1_555 1_555
C4 C3 1_555 1_555
H4 C4 1_555 1_555
C5 N1 1_555 1_555
C6 N2 1_555 1_555
C7 N3 1_555 1_555
C8 C7 1_555 1_555
C9 C8 1_555 1_555
H5 C9 1_555 1_555
C10 C9 1_555 1_555
H6 C10 1_555 1_555
C11 C10 1_555 1_555
H7 C11 1_555 1_555
C12 N5 1_555 1_555
H8 C12 1_555 1_555
C13 N4 1_555 1_555
C14 C13 1_555 1_555
H9 C14 1_555 1_555
C15 C14 1_555 1_555
H10 C15 1_555 1_555
C16 C15 1_555 1_555
H11 C16 1_555 1_555
C17 N6 1_555 1_555
H12 C17 1_555 1_555
C18 N7 1_555 1_555
C19 N8 1_555 1_555
C20 O1 1_555 1_555
C21 C20 1_555 1_555
H13 C21 1_555 1_555
H14 C21 1_555 1_555
H15 C21 1_555 1_555
O3 H16 1_555 1_555
H17 O3 1_555 1_555
Cu1A N5 1_555 1_555
N5A Cu1 1_555 1_555
N4 C7 1_555 1_555
O2 C20 1_555 1_555
C4 C5 1_555 1_555
C5 C6 1_555 1_555
C8 C12 1_555 1_555
C16 C17 1_555 1_555

#END
