
#######################################################################
#
#                 Cambridge Crystallographic Data Centre
#                                CCDC 
#
#######################################################################
#
# If this CIF has been generated from an entry in the Cambridge 
# Structural Database, then it will include bibliographic, chemical, 
# crystal, experimental, refinement or atomic coordinate data resulting 
# from the CCDC's data processing and validation procedures.
#
#######################################################################

data_HIDZOK
_symmetry_cell_setting           monoclinic
_symmetry_space_group_name_H-M   'P 21/c'
_symmetry_Int_Tables_number      14
_space_group_name_Hall           '-P 2ybc'
loop_
_symmetry_equiv_pos_site_id
_symmetry_equiv_pos_as_xyz
1 x,y,z
2 -x,1/2+y,1/2-z
3 -x,-y,-z
4 x,1/2-y,1/2+z
_cell_length_a                   9.714(6)
_cell_length_b                   8.895(6)
_cell_length_c                   15.359(10)
_cell_angle_alpha                90
_cell_angle_beta                 91.688(7)
_cell_angle_gamma                90
_cell_volume                     1326.53
loop_
_atom_site_label
_atom_site_type_symbol
_atom_site_fract_x
_atom_site_fract_y
_atom_site_fract_z
Fe1 Fe 0.753633(19) 0.42019(2) 0.074891(14)
C1 C 1.02045(14) 0.41575(16) -0.00009(10)
O1 O 0.93429(10) 0.32524(12) 0.03015(7)
O2 O 0.63518(11) 0.40632(13) -0.04807(7)
O3 O 0.42913(10) 0.46944(13) -0.10435(7)
O4 O 1.13424(10) 0.38318(12) -0.02993(8)
C2 C 0.51957(13) 0.46417(16) -0.04397(9)
N1 N 0.68163(13) 0.19369(15) 0.10675(9)
N2 N 0.82529(14) 0.46773(17) 0.20942(9)
C3 C 0.9001(2) 0.3726(3) 0.25699(15)
H1 H 0.9206 0.2790 0.2336
C4 C 0.9494(3) 0.4068(3) 0.34071(17)
H2 H 1.0029 0.3375 0.3720
C5 C 0.9192(3) 0.5402(3) 0.37595(15)
H3 H 0.9518 0.5652 0.4316
C6 C 0.8405(3) 0.6372(3) 0.32908(17)
H4 H 0.8166 0.7297 0.3524
C7 C 0.7960(2) 0.5980(2) 0.24637(16)
H5 H 0.7424 0.6666 0.2147
C8 C 0.6973(2) 0.0829(2) 0.04999(13)
H6 H 0.7433 0.1032 -0.0009
C9 C 0.6488(3) -0.0606(2) 0.06281(15)
H7 H 0.6635 -0.1355 0.0219
C10 C 0.5790(2) -0.0912(2) 0.13650(15)
H8 H 0.5428 -0.1864 0.1458
C11 C 0.5632(3) 0.0200(3) 0.19593(15)
H9 H 0.5173 0.0017 0.2472
C12 C 0.6164(2) 0.1606(2) 0.17906(14)
H10 H 0.6060 0.2358 0.2204
Fe1B Fe 1.246367(19) 0.57981(2) -0.074891(14)
Fe1B_2 Fe 0.246367(19) 0.57981(2) -0.074891(14)
C1B C 0.97955(14) 0.58425(16) 0.00009(10)
O1B O 1.06571(10) 0.67476(12) -0.03015(7)
O2B O 0.36482(11) 0.59368(13) 0.04807(7)
O2B_2 O 1.36482(11) 0.59368(13) 0.04807(7)
O3B O 0.57087(10) 0.53056(13) 0.10435(7)
O3_2 O 1.42913(10) 0.46944(13) -0.10435(7)
O4B O 0.86576(10) 0.61682(12) 0.02993(8)
C2B C 0.48043(13) 0.53583(16) 0.04397(9)
N1B N 1.31837(13) 0.80631(15) -0.10675(9)
N2B N 1.17471(14) 0.53227(17) -0.20942(9)
C3B C 1.0999(2) 0.6274(3) -0.25699(15)
H1B H 1.0794 0.7210 -0.2336
C4B C 1.0506(3) 0.5932(3) -0.34071(17)
H2B H 0.9971 0.6625 -0.3720
C5B C 1.0808(3) 0.4598(3) -0.37595(15)
H3B H 1.0482 0.4348 -0.4316
C6B C 1.1595(3) 0.3628(3) -0.32908(17)
H4B H 1.1834 0.2703 -0.3524
C7B C 1.2040(2) 0.4020(2) -0.24637(16)
H5B H 1.2576 0.3334 -0.2147
C8B C 1.3027(2) 0.9171(2) -0.04999(13)
H6B H 1.2567 0.8968 0.0009
C9B C 1.3512(3) 1.0606(2) -0.06281(15)
H7B H 1.3365 1.1355 -0.0219
C10B C 1.4210(2) 1.0912(2) -0.13650(15)
H8B H 1.4572 1.1864 -0.1458
C11B C 1.4368(3) 0.9800(3) -0.19593(15)
H9B H 1.4827 0.9983 -0.2472
C12B C 1.3836(2) 0.8394(2) -0.17906(14)
H10B H 1.3940 0.7642 -0.2204
loop_
_geom_bond_atom_site_label_1
_geom_bond_atom_site_label_2
_geom_bond_site_symmetry_1
_geom_bond_site_symmetry_2
Fe1 O1 1_555 1_555
C1 O1 1_555 1_555
O2 Fe1 1_555 1_555
O3 C2 1_555 1_555
O4 C1 1_555 1_555
C2 O2 1_555 1_555
N1 Fe1 1_555 1_555
N2 Fe1 1_555 1_555
C3 N2 1_555 1_555
H1 C3 1_555 1_555
C4 C3 1_555 1_555
H2 C4 1_555 1_555
C5 C4 1_555 1_555
H3 C5 1_555 1_555
C6 C5 1_555 1_555
H4 C6 1_555 1_555
C7 N2 1_555 1_555
H5 C7 1_555 1_555
C8 N1 1_555 1_555
H6 C8 1_555 1_555
C9 C8 1_555 1_555
H7 C9 1_555 1_555
C10 C9 1_555 1_555
H8 C10 1_555 1_555
C11 C10 1_555 1_555
H9 C11 1_555 1_555
C12 N1 1_555 1_555
H10 C12 1_555 1_555
Fe1B O4 1_555 1_555
Fe1B_2 O3 1_555 1_555
C1B C1 1_555 1_555
O1B Fe1B 1_555 1_555
O2B Fe1B_2 1_555 1_555
O2B_2 Fe1B 1_555 1_555
O3B Fe1 1_555 1_555
O3_2 Fe1B 1_555 1_555
O4B Fe1 1_555 1_555
C2B C2 1_555 1_555
N1B Fe1B 1_555 1_555
N2B Fe1B 1_555 1_555
C3B N2B 1_555 1_555
H1B C3B 1_555 1_555
C4B C3B 1_555 1_555
H2B C4B 1_555 1_555
C5B C4B 1_555 1_555
H3B C5B 1_555 1_555
C6B C5B 1_555 1_555
H4B C6B 1_555 1_555
C7B N2B 1_555 1_555
H5B C7B 1_555 1_555
C8B N1B 1_555 1_555
H6B C8B 1_555 1_555
C9B C8B 1_555 1_555
H7B C9B 1_555 1_555
C10B C9B 1_555 1_555
H8B C10B 1_555 1_555
C11B C10B 1_555 1_555
H9B C11B 1_555 1_555
C12B N1B 1_555 1_555
H10B C12B 1_555 1_555
C6 C7 1_555 1_555
C11 C12 1_555 1_555
C1B O1B 1_555 1_555
C1B O4B 1_555 1_555
O2B C2B 1_555 1_555
O3B C2B 1_555 1_555
C6B C7B 1_555 1_555
C11B C12B 1_555 1_555

#END
