
#######################################################################
#
#                 Cambridge Crystallographic Data Centre
#                                CCDC 
#
#######################################################################
#
# If this CIF has been generated from an entry in the Cambridge 
# Structural Database, then it will include bibliographic, chemical, 
# crystal, experimental, refinement or atomic coordinate data resulting 
# from the CCDC's data processing and validation procedures.
#
#######################################################################

data_HIFFUZ
_symmetry_cell_setting           monoclinic
_symmetry_space_group_name_H-M   'P 21/c'
_symmetry_Int_Tables_number      14
_space_group_name_Hall           '-P 2ybc'
loop_
_symmetry_equiv_pos_site_id
_symmetry_equiv_pos_as_xyz
1 x,y,z
2 -x,1/2+y,1/2-z
3 -x,-y,-z
4 x,1/2-y,1/2+z
_cell_length_a                   13.682(3)
_cell_length_b                   17.344(3)
_cell_length_c                   20.525(4)
_cell_angle_alpha                90
_cell_angle_beta                 105.99(3)
_cell_angle_gamma                90
_cell_volume                     4682.15
loop_
_atom_site_label
_atom_site_type_symbol
_atom_site_fract_x
_atom_site_fract_y
_atom_site_fract_z
W1 W 0.216069(17) 0.844620(13) 0.171737(12)
S1 S 0.35181(12) 0.85122(9) 0.26073(8)
S2 S 0.28385(13) 0.85336(9) 0.08394(9)
S3 S 0.16295(12) 0.71586(9) 0.17147(8)
Cu1 Cu 0.32417(6) 0.72783(4) 0.23730(4)
Cu2 Cu 0.24683(6) 0.73300(4) 0.09494(4)
B1 B 0.0417(6) 0.9849(5) 0.1700(4)
H1 H -0.016(4) 1.034(3) 0.172(3)
N1 N 0.1159(4) 0.8704(3) 0.2422(2)
N2 N 0.0518(4) 0.9323(3) 0.2309(3)
N3 N 0.2267(4) 0.9748(3) 0.1754(3)
N4 N 0.1443(4) 1.0214(3) 0.1750(3)
N5 N 0.0611(4) 0.8715(3) 0.0969(3)
N6 N 0.0085(4) 0.9369(3) 0.1052(3)
N7 N 0.3686(4) 0.6633(3) 0.3200(3)
N8 N 0.2644(5) 0.6586(3) 0.0292(3)
N9 N 0.5708(4) 0.3208(3) -0.1871(3)
C1 C 0.1040(5) 0.8348(4) 0.2991(3)
C2 C 0.0360(5) 0.8753(4) 0.3233(3)
H2 H 0.0160 0.8639 0.3625
C3 C 0.0028(5) 0.9351(4) 0.2804(4)
C4 C 0.1584(5) 0.7635(4) 0.3299(3)
H3 H 0.1495 0.7561 0.3748
H4 H 0.2303 0.7685 0.3334
H5 H 0.1309 0.7194 0.3018
C5 C -0.0713(7) 0.9986(5) 0.2844(5)
H6 H -0.0395 1.0484 0.2833
H7 H -0.0906 0.9936 0.3263
H8 H -0.1314 0.9945 0.2462
C6 C 0.3052(5) 1.0235(4) 0.1791(3)
C7 C 0.2731(6) 1.0986(4) 0.1810(4)
H9 H 0.3130 1.1432 0.1831
C8 C 0.1731(6) 1.0965(4) 0.1795(4)
C9 C 0.4097(5) 0.9997(4) 0.1790(4)
H10 H 0.4446 0.9780 0.2228
H11 H 0.4469 1.0442 0.1701
H12 H 0.4057 0.9613 0.1440
C10 C 0.0990(7) 1.1604(4) 0.1797(5)
H13 H 0.0790 1.1585 0.2215
H14 H 0.0394 1.1542 0.1415
H15 H 0.1307 1.2097 0.1764
C11 C 0.0097(5) 0.8407(4) 0.0375(3)
C12 C -0.0730(5) 0.8868(5) 0.0075(4)
H16 H -0.1203 0.8787 -0.0348
C13 C -0.0728(5) 0.9460(4) 0.0508(4)
C14 C 0.0358(6) 0.7678(4) 0.0054(4)
H17 H 0.0978 0.7758 -0.0079
H18 H -0.0192 0.7552 -0.0343
H19 H 0.0456 0.7258 0.0377
C15 C -0.1432(5) 1.0137(4) 0.0429(4)
H20 H -0.1713 1.0162 0.0814
H21 H -0.1980 1.0079 0.0015
H22 H -0.1060 1.0607 0.0405
C16 C 0.4410(5) 0.6874(4) 0.3729(3)
H23 H 0.4728 0.7347 0.3696
C17 C 0.4728(6) 0.6463(4) 0.4333(4)
H24 H 0.5243 0.6658 0.4699
C18 C 0.4271(5) 0.5767(4) 0.4384(3)
C19 C 0.3552(5) 0.5497(4) 0.3828(4)
H25 H 0.3247 0.5014 0.3840
C20 C 0.3277(5) 0.5949(4) 0.3244(4)
H26 H 0.2780 0.5760 0.2865
C21 C 0.4595(5) 0.5289(4) 0.5026(4)
H27 H 0.4005 0.5015 0.5096
H28 H 0.4864 0.5628 0.5416
C22 C 0.2151(6) 0.5906(4) 0.0197(4)
H29 H 0.1715 0.5789 0.0466
C23 C 0.2255(6) 0.5369(4) -0.0281(4)
H30 H 0.1869 0.4913 -0.0343
C24 C 0.2915(5) 0.5499(4) -0.0661(3)
C25 C 0.3440(6) 0.6187(4) -0.0556(4)
H31 H 0.3884 0.6304 -0.0820
C26 C 0.3331(6) 0.6689(4) -0.0090(3)
H32 H 0.3738 0.7134 -0.0016
C27 C 0.3133(6) 0.4916(4) -0.1144(4)
H33 H 0.3446 0.5173 -0.1462
H34 H 0.2496 0.4680 -0.1406
C28 C 0.3850(6) 0.4290(4) -0.0755(4)
H35 H 0.4320 0.4522 -0.0354
H36 H 0.3449 0.3899 -0.0599
C29 C 0.4452(5) 0.3907(4) -0.1174(4)
C30 C 0.4381(5) 0.3143(4) -0.1327(4)
H37 H 0.3907 0.2836 -0.1191
C31 C 0.4995(5) 0.2816(4) -0.1679(4)
H38 H 0.4909 0.2290 -0.1790
C32 C 0.5782(5) 0.3969(4) -0.1712(4)
H39 H 0.6273 0.4265 -0.1841
C33 C 0.5175(5) 0.4328(4) -0.1369(4)
H40 H 0.5254 0.4857 -0.1269
N7B N 0.6314(4) 0.3367(3) 0.6800(3)
C16B C 0.5590(5) 0.3126(4) 0.6271(3)
H23B H 0.5272 0.2653 0.6304
C17B C 0.5272(6) 0.3537(4) 0.5667(4)
H24B H 0.4757 0.3342 0.5301
C18B C 0.5729(5) 0.4233(4) 0.5616(3)
C19B C 0.6448(5) 0.4503(4) 0.6172(4)
H25B H 0.6753 0.4986 0.6160
C20B C 0.6723(5) 0.4051(4) 0.6756(4)
H26B H 0.7220 0.4240 0.7135
C21B C 0.5405(5) 0.4711(4) 0.4974(4)
H27B H 0.5995 0.4985 0.4904
H28B H 0.5136 0.4372 0.4584
W1B W 0.783931(17) 0.155380(13) -0.171737(12)
S1B S 0.64819(12) 0.14878(9) -0.26073(8)
S2B S 0.71615(13) 0.14664(9) -0.08394(9)
S3B S 0.83705(12) 0.28414(9) -0.17147(8)
Cu1B Cu 0.67583(6) 0.27217(4) -0.23730(4)
Cu2B Cu 0.75317(6) 0.26700(4) -0.09494(4)
B1B B 0.9583(6) 0.0151(5) -0.1700(4)
H1B H 1.016(4) -0.034(3) -0.172(3)
N1B N 0.8841(4) 0.1296(3) -0.2422(2)
N2B N 0.9482(4) 0.0677(3) -0.2309(3)
N3B N 0.7733(4) 0.0252(3) -0.1754(3)
N4B N 0.8557(4) -0.0214(3) -0.1750(3)
N5B N 0.9389(4) 0.1285(3) -0.0969(3)
N6B N 0.9915(4) 0.0631(3) -0.1052(3)
N8B N 0.7356(5) 0.3414(3) -0.0292(3)
N9B N 0.4292(4) 0.6792(3) 0.1871(3)
C1B C 0.8960(5) 0.1652(4) -0.2991(3)
C2B C 0.9640(5) 0.1247(4) -0.3233(3)
H2B H 0.9840 0.1361 -0.3625
C3B C 0.9972(5) 0.0649(4) -0.2804(4)
C4B C 0.8416(5) 0.2365(4) -0.3299(3)
H3B H 0.8505 0.2439 -0.3748
H4B H 0.7697 0.2315 -0.3334
H5B H 0.8691 0.2806 -0.3018
C5B C 1.0713(7) 0.0014(5) -0.2844(5)
H6B H 1.0395 -0.0484 -0.2833
H7B H 1.0906 0.0064 -0.3263
H8B H 1.1314 0.0055 -0.2462
C6B C 0.6948(5) -0.0235(4) -0.1791(3)
C7B C 0.7269(6) -0.0986(4) -0.1810(4)
H9B H 0.6870 -0.1432 -0.1831
C8B C 0.8269(6) -0.0965(4) -0.1795(4)
C9B C 0.5903(5) 0.0003(4) -0.1790(4)
H10B H 0.5554 0.0220 -0.2228
H11B H 0.5531 -0.0442 -0.1701
H12B H 0.5943 0.0387 -0.1440
C10B C 0.9010(7) -0.1604(4) -0.1797(5)
H13B H 0.9210 -0.1585 -0.2215
H14B H 0.9606 -0.1542 -0.1415
H15B H 0.8693 -0.2097 -0.1764
C11B C 0.9903(5) 0.1593(4) -0.0375(3)
C12B C 1.0730(5) 0.1132(5) -0.0075(4)
H16B H 1.1203 0.1213 0.0348
C13B C 1.0728(5) 0.0540(4) -0.0508(4)
C14B C 0.9642(6) 0.2322(4) -0.0054(4)
H17B H 0.9022 0.2242 0.0079
H18B H 1.0192 0.2448 0.0343
H19B H 0.9544 0.2742 -0.0377
C15B C 1.1432(5) -0.0137(4) -0.0429(4)
H20B H 1.1713 -0.0162 -0.0814
H21B H 1.1980 -0.0079 -0.0015
H22B H 1.1060 -0.0607 -0.0405
C22B C 0.7849(6) 0.4094(4) -0.0197(4)
H29B H 0.8285 0.4211 -0.0466
C23B C 0.7745(6) 0.4631(4) 0.0281(4)
H30B H 0.8131 0.5087 0.0343
C24B C 0.7085(5) 0.4501(4) 0.0661(3)
C25B C 0.6560(6) 0.3813(4) 0.0556(4)
H31B H 0.6116 0.3696 0.0820
C26B C 0.6669(6) 0.3311(4) 0.0090(3)
H32B H 0.6262 0.2866 0.0016
C27B C 0.6867(6) 0.5084(4) 0.1144(4)
H33B H 0.6554 0.4827 0.1462
H34B H 0.7504 0.5320 0.1406
C28B C 0.6150(6) 0.5710(4) 0.0755(4)
H35B H 0.5680 0.5478 0.0354
H36B H 0.6551 0.6101 0.0599
C29B C 0.5548(5) 0.6093(4) 0.1174(4)
C30B C 0.5619(5) 0.6857(4) 0.1327(4)
H37B H 0.6093 0.7164 0.1191
C31B C 0.5005(5) 0.7184(4) 0.1679(4)
H38B H 0.5091 0.7710 0.1790
C32B C 0.4218(5) 0.6031(4) 0.1712(4)
H39B H 0.3727 0.5735 0.1841
C33B C 0.4825(5) 0.5672(4) 0.1369(4)
H40B H 0.4746 0.5143 0.1269
Cu1B_2 Cu 0.67583(6) 0.27217(4) 0.76270(4)
N7B_2 N 0.6314(4) 0.3367(3) -0.3200(3)
N10 N 0.7983(6) 0.7829(5) 0.1200(4)
C34 C 0.7341(7) 0.8128(5) 0.0642(5)
H41 H 0.7316 0.7894 0.0224
C35 C 0.8635(8) 0.7183(7) 0.1150(7)
H42 H 0.8529 0.7047 0.0677
H43 H 0.8470 0.6744 0.1393
H44 H 0.9340 0.7326 0.1345
C36 C 0.8056(13) 0.8171(8) 0.1833(6)
H45 H 0.7643 0.8634 0.1768
H46 H 0.8759 0.8303 0.2050
H47 H 0.7815 0.7811 0.2116
O1 O 0.6788(5) 0.8681(4) 0.0636(3)
P1 P 0.7090(2) 0.85341(15) 0.37990(17)
F1 F 0.7978(7) 0.8389(5) 0.3514(7)
F2 F 0.6149(9) 0.8717(7) 0.4049(7)
F3 F 0.7163(9) 0.9374(5) 0.3645(7)
F4 F 0.7708(11) 0.8678(7) 0.4544(6)
F5 F 0.7165(13) 0.7707(6) 0.4054(6)
F6 F 0.6411(8) 0.8263(10) 0.3176(6)
loop_
_geom_bond_atom_site_label_1
_geom_bond_atom_site_label_2
_geom_bond_site_symmetry_1
_geom_bond_site_symmetry_2
W1 S1 1_555 1_555
S1 Cu1 1_555 1_555
S2 W1 1_555 1_555
S3 W1 1_555 1_555
Cu1 S3 1_555 1_555
Cu2 S2 1_555 1_555
B1 H1 1_555 1_555
N1 W1 1_555 1_555
N2 B1 1_555 1_555
N3 W1 1_555 1_555
N4 B1 1_555 1_555
N5 W1 1_555 1_555
N6 B1 1_555 1_555
N7 Cu1 1_555 1_555
N8 Cu2 1_555 1_555
N9 C31 1_555 1_555
C1 N1 1_555 1_555
C2 C1 1_555 1_555
H2 C2 1_555 1_555
C3 N2 1_555 1_555
C4 C1 1_555 1_555
H3 C4 1_555 1_555
H4 C4 1_555 1_555
H5 C4 1_555 1_555
C5 C3 1_555 1_555
H6 C5 1_555 1_555
H7 C5 1_555 1_555
H8 C5 1_555 1_555
C6 N3 1_555 1_555
C7 C6 1_555 1_555
H9 C7 1_555 1_555
C8 N4 1_555 1_555
C9 C6 1_555 1_555
H10 C9 1_555 1_555
H11 C9 1_555 1_555
H12 C9 1_555 1_555
C10 C8 1_555 1_555
H13 C10 1_555 1_555
H14 C10 1_555 1_555
H15 C10 1_555 1_555
C11 N5 1_555 1_555
C12 C11 1_555 1_555
H16 C12 1_555 1_555
C13 N6 1_555 1_555
C14 C11 1_555 1_555
H17 C14 1_555 1_555
H18 C14 1_555 1_555
H19 C14 1_555 1_555
C15 C13 1_555 1_555
H20 C15 1_555 1_555
H21 C15 1_555 1_555
H22 C15 1_555 1_555
C16 N7 1_555 1_555
H23 C16 1_555 1_555
C17 C16 1_555 1_555
H24 C17 1_555 1_555
C18 C17 1_555 1_555
C19 C18 1_555 1_555
H25 C19 1_555 1_555
C20 N7 1_555 1_555
H26 C20 1_555 1_555
C21 C18 1_555 1_555
H27 C21 1_555 1_555
H28 C21 1_555 1_555
C22 N8 1_555 1_555
H29 C22 1_555 1_555
C23 C22 1_555 1_555
H30 C23 1_555 1_555
C24 C23 1_555 1_555
C25 C24 1_555 1_555
H31 C25 1_555 1_555
C26 N8 1_555 1_555
H32 C26 1_555 1_555
C27 C24 1_555 1_555
H33 C27 1_555 1_555
H34 C27 1_555 1_555
C28 C27 1_555 1_555
H35 C28 1_555 1_555
H36 C28 1_555 1_555
C29 C28 1_555 1_555
C30 C29 1_555 1_555
H37 C30 1_555 1_555
C31 C30 1_555 1_555
H38 C31 1_555 1_555
C32 N9 1_555 1_555
H39 C32 1_555 1_555
C33 C29 1_555 1_555
H40 C33 1_555 1_555
N10 C34 1_555 1_555
C34 H41 1_555 1_555
C35 N10 1_555 1_555
H42 C35 1_555 1_555
H43 C35 1_555 1_555
H44 C35 1_555 1_555
C36 N10 1_555 1_555
H45 C36 1_555 1_555
H46 C36 1_555 1_555
H47 C36 1_555 1_555
O1 C34 1_555 1_555
P1 F1 1_555 1_555
F2 P1 1_555 1_555
F3 P1 1_555 1_555
F4 P1 1_555 1_555
F5 P1 1_555 1_555
F6 P1 1_555 1_555
N7B C16B 1_555 1_555
C16B H23B 1_555 1_555
C17B C16B 1_555 1_555
H24B C17B 1_555 1_555
C18B C17B 1_555 1_555
C19B C18B 1_555 1_555
H25B C19B 1_555 1_555
C20B N7B 1_555 1_555
H26B C20B 1_555 1_555
C21B C21 1_555 1_555
H27B C21B 1_555 1_555
H28B C21B 1_555 1_555
W1B S1B 1_555 1_555
S1B Cu1B 1_555 1_555
S2B W1B 1_555 1_555
S3B W1B 1_555 1_555
Cu1B N9 1_555 1_555
Cu2B S2B 1_555 1_555
B1B H1B 1_555 1_555
N1B W1B 1_555 1_555
N2B B1B 1_555 1_555
N3B W1B 1_555 1_555
N4B B1B 1_555 1_555
N5B W1B 1_555 1_555
N6B B1B 1_555 1_555
N8B Cu2B 1_555 1_555
N9B Cu1 1_555 1_555
C1B N1B 1_555 1_555
C2B C1B 1_555 1_555
H2B C2B 1_555 1_555
C3B N2B 1_555 1_555
C4B C1B 1_555 1_555
H3B C4B 1_555 1_555
H4B C4B 1_555 1_555
H5B C4B 1_555 1_555
C5B C3B 1_555 1_555
H6B C5B 1_555 1_555
H7B C5B 1_555 1_555
H8B C5B 1_555 1_555
C6B N3B 1_555 1_555
C7B C6B 1_555 1_555
H9B C7B 1_555 1_555
C8B N4B 1_555 1_555
C9B C6B 1_555 1_555
H10B C9B 1_555 1_555
H11B C9B 1_555 1_555
H12B C9B 1_555 1_555
C10B C8B 1_555 1_555
H13B C10B 1_555 1_555
H14B C10B 1_555 1_555
H15B C10B 1_555 1_555
C11B N5B 1_555 1_555
C12B C11B 1_555 1_555
H16B C12B 1_555 1_555
C13B N6B 1_555 1_555
C14B C11B 1_555 1_555
H17B C14B 1_555 1_555
H18B C14B 1_555 1_555
H19B C14B 1_555 1_555
C15B C13B 1_555 1_555
H20B C15B 1_555 1_555
H21B C15B 1_555 1_555
H22B C15B 1_555 1_555
C22B N8B 1_555 1_555
H29B C22B 1_555 1_555
C23B C22B 1_555 1_555
H30B C23B 1_555 1_555
C24B C23B 1_555 1_555
C25B C24B 1_555 1_555
H31B C25B 1_555 1_555
C26B N8B 1_555 1_555
H32B C26B 1_555 1_555
C27B C24B 1_555 1_555
H33B C27B 1_555 1_555
H34B C27B 1_555 1_555
C28B C27B 1_555 1_555
H35B C28B 1_555 1_555
H36B C28B 1_555 1_555
C29B C28B 1_555 1_555
C30B C29B 1_555 1_555
H37B C30B 1_555 1_555
C31B N9B 1_555 1_555
H38B C31B 1_555 1_555
C32B N9B 1_555 1_555
H39B C32B 1_555 1_555
C33B C29B 1_555 1_555
H40B C33B 1_555 1_555
Cu1B_2 N7B 1_555 1_555
N7B_2 Cu1B 1_555 1_555
S3 Cu2 1_555 1_555
N1 N2 1_555 1_555
N3 N4 1_555 1_555
N5 N6 1_555 1_555
C2 C3 1_555 1_555
C7 C8 1_555 1_555
C12 C13 1_555 1_555
C19 C20 1_555 1_555
C25 C26 1_555 1_555
C32 C33 1_555 1_555
C18B C21B 1_555 1_555
C19B C20B 1_555 1_555
S3B Cu1B 1_555 1_555
S3B Cu2B 1_555 1_555
N1B N2B 1_555 1_555
N3B N4B 1_555 1_555
N5B N6B 1_555 1_555
C2B C3B 1_555 1_555
C7B C8B 1_555 1_555
C12B C13B 1_555 1_555
C25B C26B 1_555 1_555
C30B C31B 1_555 1_555
C32B C33B 1_555 1_555

#END
