
#######################################################################
#
#                 Cambridge Crystallographic Data Centre
#                                CCDC 
#
#######################################################################
#
# If this CIF has been generated from an entry in the Cambridge 
# Structural Database, then it will include bibliographic, chemical, 
# crystal, experimental, refinement or atomic coordinate data resulting 
# from the CCDC's data processing and validation procedures.
#
#######################################################################

data_HIFFIM
_symmetry_cell_setting           triclinic
_symmetry_space_group_name_H-M   'P -1'
_symmetry_Int_Tables_number      2
_space_group_name_Hall           '-P 1'
loop_
_symmetry_equiv_pos_site_id
_symmetry_equiv_pos_as_xyz
1 x,y,z
2 -x,-y,-z
_cell_length_a                   8.6447(7)
_cell_length_b                   11.0825(4)
_cell_length_c                   21.0332(9)
_cell_angle_alpha                75.974(8)
_cell_angle_beta                 88.987(9)
_cell_angle_gamma                84.435(6)
_cell_volume                     1945.76
loop_
_atom_site_label
_atom_site_type_symbol
_atom_site_fract_x
_atom_site_fract_y
_atom_site_fract_z
Ba1 Ba 0.26429(2) 0.439869(17) 0.524939(9)
Ba2 Ba -0.06200(2) 0.205893(17) 0.437049(9)
C1 C 0.0554(4) 0.4764(3) 0.36587(17)
C2 C 0.1448(5) 0.5861(4) 0.33462(18)
H1 H 0.0986 0.6590 0.3483
H2 H 0.2505 0.5687 0.3514
C3 C 0.0478(5) 0.7000(4) 0.22683(19)
C4 C 0.0668(5) 0.7313(4) 0.1536(2)
C5 C -0.0552(7) 0.7982(6) 0.1163(2)
H3 H -0.1457 0.8218 0.1366
C6 C -0.0450(8) 0.8311(7) 0.0484(3)
H4 H -0.1290 0.8759 0.0236
C7 C 0.0855(8) 0.7986(7) 0.0182(2)
H5 H 0.0909 0.8189 -0.0273
C8 C 0.2093(8) 0.7360(7) 0.0549(3)
H6 H 0.3003 0.7150 0.0341
C9 C 0.2021(6) 0.7028(6) 0.1228(2)
H7 H 0.2884 0.6615 0.1473
C10 C 0.5337(4) 0.3469(3) 0.39227(18)
C11 C 0.5066(5) 0.3074(4) 0.32942(18)
H8 H 0.5211 0.2169 0.3388
H9 H 0.3992 0.3327 0.3160
C12 C 0.5509(5) 0.4423(4) 0.2228(2)
C13 C 0.6502(6) 0.4726(4) 0.1633(2)
C14 C 0.8083(7) 0.4578(6) 0.1664(3)
H10 H 0.8596 0.4277 0.2064
C15 C 0.8917(8) 0.4887(7) 0.1082(3)
H11 H 0.9998 0.4801 0.1098
C16 C 0.8174(9) 0.5315(7) 0.0489(3)
H12 H 0.8751 0.5504 0.0106
C17 C 0.6611(9) 0.5462(9) 0.0458(3)
H13 H 0.6103 0.5761 0.0056
C18 C 0.5774(8) 0.5166(7) 0.1029(3)
H14 H 0.4694 0.5263 0.1008
C19 C 0.1174(4) 0.1161(3) 0.57677(17)
C20 C 0.1990(4) 0.0743(4) 0.64381(18)
H15 H 0.2831 0.0108 0.6418
H16 H 0.2443 0.1451 0.6529
C21 C 0.0700(5) -0.0933(4) 0.71590(17)
C22 C -0.0348(5) -0.1290(4) 0.77313(19)
C23 C -0.0538(6) -0.0601(5) 0.8205(2)
H17 H 0.0003 0.0098 0.8170
C24 C -0.1513(7) -0.0944(6) 0.8721(2)
H18 H -0.1649 -0.0474 0.9032
C25 C -0.2295(7) -0.1992(7) 0.8779(3)
H19 H -0.2945 -0.2237 0.9135
C26 C -0.2120(7) -0.2668(6) 0.8318(3)
H20 H -0.2665 -0.3366 0.8359
C27 C -0.1145(5) -0.2335(5) 0.7789(2)
H21 H -0.1028 -0.2805 0.7477
C28 C 0.3319(4) 0.7072(3) 0.43498(18)
C29 C 0.3550(6) 0.8380(4) 0.3956(2)
H22 H 0.2554 0.8879 0.3904
H23 H 0.4229 0.8754 0.4200
C30 C 0.4363(4) 0.9552(4) 0.29239(19)
C31 C 0.5012(5) 0.9639(4) 0.2252(2)
C32 C 0.4873(6) 0.8751(5) 0.1905(2)
H24 H 0.4459 0.8009 0.2105
C33 C 0.5344(8) 0.8957(7) 0.1260(3)
H25 H 0.5210 0.8370 0.1021
C34 C 0.6013(7) 1.0037(7) 0.0970(3)
H26 H 0.6325 1.0177 0.0535
C35 C 0.6216(7) 1.0892(6) 0.1316(3)
H27 H 0.6695 1.1606 0.1122
C36 C 0.5719(6) 1.0712(5) 0.1954(2)
H28 H 0.5854 1.1308 0.2188
N1 N 0.1504(4) 0.6165(3) 0.26337(15)
H29 H 0.2224 0.5792 0.2444
N2 N 0.6058(4) 0.3572(3) 0.27472(15)
H30 H 0.7028 0.3305 0.2763
N3 N 0.0975(4) 0.0251(3) 0.69721(15)
H31 H 0.0523 0.0763 0.7181
N4 N 0.4209(4) 0.8427(3) 0.33120(16)
H32 H 0.4490 0.7757 0.3186
O1 O -0.3355(3) 0.0756(3) 0.46652(15)
O2 O 0.2923(4) 0.3588(3) 0.66842(16)
O3 O 0.2582(3) 0.1289(3) 0.42006(15)
O4 O 0.0145(5) 0.4077(3) 0.33308(15)
O5 O 0.0290(3) 0.4618(2) 0.42733(12)
O6 O -0.0611(4) 0.7541(3) 0.25140(14)
O7 O 0.4332(3) 0.3191(3) 0.43606(14)
O8 O 0.6540(3) 0.3976(3) 0.39754(13)
O9 O 0.4169(5) 0.4917(5) 0.2204(2)
O10 O 0.1566(3) 0.2141(2) 0.53906(13)
O11 O 0.0224(3) 0.0489(2) 0.56277(12)
O12 O 0.1283(3) -0.1727(2) 0.68746(13)
O13 O 0.4321(3) 0.6192(2) 0.43194(13)
O14 O 0.2128(3) 0.6948(2) 0.46899(13)
O15 O 0.3952(4) 1.0520(3) 0.30970(14)
H33 H -0.315(7) 0.016(4) 0.5006(18)
H34 H -0.426(3) 0.103(4) 0.476(2)
H35 H 0.218(4) 0.333(5) 0.695(2)
H36 H 0.309(8) 0.433(3) 0.670(3)
H37 H 0.313(4) 0.186(3) 0.426(2)
H38 H 0.286(6) 0.115(5) 0.3831(14)
Ba1A Ba -0.26429(2) 0.560131(17) 0.475061(9)
Ba1A_2 Ba 0.73571(2) 0.560131(17) 0.475061(9)
Ba2_2 Ba 0.93800(2) 0.205893(17) 0.437049(9)
Ba2A Ba 0.06200(2) -0.205893(17) 0.562951(9)
Ba2A_2 Ba 0.06200(2) 0.794107(17) 0.562951(9)
O5A O -0.0290(3) 0.5382(2) 0.57267(12)
O8A O 0.3460(3) 0.6024(3) 0.60246(13)
O8_2 O -0.3460(3) 0.3976(3) 0.39754(13)
O11A O -0.0224(3) -0.0489(2) 0.43723(12)
O12A O -0.1283(3) 0.1727(2) 0.31254(13)
O13A O 0.5679(3) 0.3808(2) 0.56806(13)
O14A O -0.2128(3) 0.3052(2) 0.53101(13)
loop_
_geom_bond_atom_site_label_1
_geom_bond_atom_site_label_2
_geom_bond_site_symmetry_1
_geom_bond_site_symmetry_2
Ba1 O2 1_555 1_555
Ba2 O1 1_555 1_555
C1 C2 1_555 1_555
C2 H1 1_555 1_555
H2 C2 1_555 1_555
C3 C4 1_555 1_555
C4 C5 1_555 1_555
C5 H3 1_555 1_555
C6 C5 1_555 1_555
H4 C6 1_555 1_555
C7 C6 1_555 1_555
H5 C7 1_555 1_555
C8 C7 1_555 1_555
H6 C8 1_555 1_555
C9 C4 1_555 1_555
H7 C9 1_555 1_555
C10 C11 1_555 1_555
C11 H8 1_555 1_555
H9 C11 1_555 1_555
C12 C13 1_555 1_555
C13 C14 1_555 1_555
C14 H10 1_555 1_555
C15 C14 1_555 1_555
H11 C15 1_555 1_555
C16 C15 1_555 1_555
H12 C16 1_555 1_555
C17 C16 1_555 1_555
H13 C17 1_555 1_555
C18 C13 1_555 1_555
H14 C18 1_555 1_555
C19 C20 1_555 1_555
C20 H15 1_555 1_555
H16 C20 1_555 1_555
C21 C22 1_555 1_555
C22 C23 1_555 1_555
C23 H17 1_555 1_555
C24 C23 1_555 1_555
H18 C24 1_555 1_555
C25 C24 1_555 1_555
H19 C25 1_555 1_555
C26 C25 1_555 1_555
H20 C26 1_555 1_555
C27 C22 1_555 1_555
H21 C27 1_555 1_555
C28 C29 1_555 1_555
C29 H22 1_555 1_555
H23 C29 1_555 1_555
C30 C31 1_555 1_555
C31 C32 1_555 1_555
C32 H24 1_555 1_555
C33 C32 1_555 1_555
H25 C33 1_555 1_555
C34 C33 1_555 1_555
H26 C34 1_555 1_555
C35 C34 1_555 1_555
H27 C35 1_555 1_555
C36 C31 1_555 1_555
H28 C36 1_555 1_555
N1 C2 1_555 1_555
H29 N1 1_555 1_555
N2 C11 1_555 1_555
H30 N2 1_555 1_555
N3 C20 1_555 1_555
H31 N3 1_555 1_555
N4 C29 1_555 1_555
H32 N4 1_555 1_555
O1 H33 1_555 1_555
O2 H35 1_555 1_555
O3 Ba2 1_555 1_555
O4 Ba2 1_555 1_555
O5 Ba1 1_555 1_555
O6 C3 1_555 1_555
O7 Ba1 1_555 1_555
O8 C10 1_555 1_555
O9 C12 1_555 1_555
O10 Ba1 1_555 1_555
O11 Ba2 1_555 1_555
O12 C21 1_555 1_555
O13 Ba1 1_555 1_555
O14 Ba1 1_555 1_555
O15 C30 1_555 1_555
H34 O1 1_555 1_555
H36 O2 1_555 1_555
H37 O3 1_555 1_555
H38 O3 1_555 1_555
Ba1A O5 1_555 1_555
Ba1A_2 O8 1_555 1_555
Ba2_2 O8 1_555 1_555
Ba2A O11 1_555 1_555
Ba2A_2 O14 1_555 1_555
O5A Ba1 1_555 1_555
O8A Ba1 1_555 1_555
O8_2 Ba2 1_555 1_555
O11A Ba2 1_555 1_555
O12A Ba2 1_555 1_555
O13A Ba1 1_555 1_555
O14A Ba2 1_555 1_555
Ba2 O5 1_555 1_555
Ba2 O10 1_555 1_555
C1 O4 1_555 1_555
C1 O5 1_555 1_555
C3 N1 1_555 1_555
C8 C9 1_555 1_555
C10 O7 1_555 1_555
C12 N2 1_555 1_555
C17 C18 1_555 1_555
C19 O10 1_555 1_555
C19 O11 1_555 1_555
C21 N3 1_555 1_555
C26 C27 1_555 1_555
C28 O13 1_555 1_555
C28 O14 1_555 1_555
C30 N4 1_555 1_555
C35 C36 1_555 1_555
O12 Ba2A 1_555 1_555
O13 Ba1A_2 1_555 1_555
Ba1A O5A 1_555 1_555
Ba1A O8_2 1_555 1_555
Ba1A O14A 1_555 1_555
Ba1A_2 O13A 1_555 1_555
Ba2A O11A 1_555 1_555
Ba2A_2 O5A 1_555 1_555
Ba2A_2 O8A 1_555 1_555

#END
