
#######################################################################
#
#                 Cambridge Crystallographic Data Centre
#                                CCDC 
#
#######################################################################
#
# If this CIF has been generated from an entry in the Cambridge 
# Structural Database, then it will include bibliographic, chemical, 
# crystal, experimental, refinement or atomic coordinate data resulting 
# from the CCDC's data processing and validation procedures.
#
#######################################################################

data_HIFGUA
_symmetry_cell_setting           monoclinic
_symmetry_space_group_name_H-M   'C 2/m'
_symmetry_Int_Tables_number      12
_space_group_name_Hall           '-C 2y'
loop_
_symmetry_equiv_pos_site_id
_symmetry_equiv_pos_as_xyz
1 x,y,z
2 -x,y,-z
3 1/2+x,1/2+y,z
4 1/2-x,1/2+y,-z
5 -x,-y,-z
6 x,-y,z
7 1/2-x,1/2-y,-z
8 1/2+x,1/2-y,z
_cell_length_a                   10.547(5)
_cell_length_b                   19.841(5)
_cell_length_c                   14.599(5)
_cell_angle_alpha                90
_cell_angle_beta                 102.868(5)
_cell_angle_gamma                90
_cell_volume                     2978.31
loop_
_atom_site_label
_atom_site_type_symbol
_atom_site_fract_x
_atom_site_fract_y
_atom_site_fract_z
Zn1 Zn -0.63718(11) -0.5000 -0.05280(7)
O1 O -0.5679(6) -0.4299(3) -0.1303(4)
O2 O -0.3596(6) -0.4305(2) -0.0481(4)
N1 N -0.8258(7) -0.5000 -0.1153(5)
C1 C -0.4486(9) -0.4146(3) -0.1173(6)
C2 C -0.4101(8) -0.3765(4) -0.1963(6)
C3 C -0.2780(9) -0.3693(5) -0.1943(7)
H1 H -0.2158 -0.3856 -0.1436
C4 C -0.2406(9) -0.3378(5) -0.2687(8)
H2 H -0.1526 -0.3338 -0.2684
C5 C -0.3348(7) -0.3112(4) -0.3457(6)
C6 C -0.4612(8) -0.3139(5) -0.3411(8)
H3 H -0.5238 -0.2928 -0.3870
C7 C -0.4985(8) -0.3484(4) -0.2672(7)
H4 H -0.5864 -0.3521 -0.2673
C8 C -0.2909(7) -0.2779(4) -0.4233(6)
C9 C -0.2309(7) -0.3175(4) -0.4810(7)
H5 H -0.2186 -0.3632 -0.4679
C10 C -0.1889(7) -0.2905(4) -0.5574(6)
C11 C -0.1251(8) -0.3346(4) -0.6156(7)
H6 H -0.1162 -0.3792 -0.5895
H7 H -0.0407 -0.3169 -0.6165
H8 H -0.1771 -0.3363 -0.6785
C12 C -0.8505(19) -0.5000 -0.2103(10)
H9 H -0.7823 -0.5000 -0.2411
C13 C -0.9812(17) -0.5000 -0.2626(14)
H10 H -1.0064 -0.5000 -0.3279
C14 C -1.068(2) -0.5000 -0.2005(15)
H11 H -1.1568 -0.5000 -0.2278
C15 C -1.0328(16) -0.5000 -0.1021(14)
H12 H -1.0980 -0.5000 -0.0684
C16 C -0.9041(14) -0.5000 -0.0532(15)
H13 H -0.8760 -0.5000 0.0119
O1F O 0.0679(6) -0.0701(3) -0.8697(4)
C1F C -0.0514(9) -0.0854(3) -0.8827(6)
C2F C -0.0899(8) -0.1235(4) -0.8037(6)
C3F C -0.2220(9) -0.1307(5) -0.8057(7)
H1F H -0.2842 -0.1144 -0.8564
C4F C -0.2594(9) -0.1622(5) -0.7313(8)
H2F H -0.3474 -0.1662 -0.7316
C5F C -0.1652(7) -0.1888(4) -0.6543(6)
C6F C -0.0388(8) -0.1861(5) -0.6589(8)
H3F H 0.0238 -0.2072 -0.6130
C7F C -0.0015(8) -0.1516(4) -0.7328(7)
H4F H 0.0864 -0.1479 -0.7327
C8F C -0.2091(7) -0.2221(4) -0.5767(6)
C9F C -0.2691(7) -0.1825(4) -0.5190(7)
H5F H -0.2814 -0.1368 -0.5321
C10F C -0.3111(7) -0.2095(4) -0.4426(6)
C11F C -0.3749(8) -0.1654(4) -0.3844(7)
H6F H -0.3838 -0.1208 -0.4105
H7F H -0.4593 -0.1831 -0.3835
H8F H -0.3229 -0.1637 -0.3215
O2F O -0.1404(6) -0.0695(2) -0.9519(4)
Zn1A Zn -0.36282(11) -0.5000 0.05280(7)
Zn1B Zn -0.13718(11) 0.0000 -1.05280(7)
Zn1C Zn 0.13718(11) 0.0000 -0.94720(7)
O1E O -0.5679(6) -0.5701(3) -0.1303(4)
O2A O -0.6404(6) -0.4305(2) 0.0481(4)
O2D O -0.6404(6) -0.5695(2) 0.0481(4)
loop_
_geom_bond_atom_site_label_1
_geom_bond_atom_site_label_2
_geom_bond_site_symmetry_1
_geom_bond_site_symmetry_2
Zn1 O1 1_555 1_555
O1 C1 1_555 1_555
O2 C1 1_555 1_555
N1 Zn1 1_555 1_555
C1 C2 1_555 1_555
C2 C3 1_555 1_555
C3 H1 1_555 1_555
C4 C3 1_555 1_555
H2 C4 1_555 1_555
C5 C4 1_555 1_555
C6 C5 1_555 1_555
H3 C6 1_555 1_555
C7 C2 1_555 1_555
H4 C7 1_555 1_555
C8 C5 1_555 1_555
C9 C8 1_555 1_555
H5 C9 1_555 1_555
C10 C9 1_555 1_555
C11 C10 1_555 1_555
H6 C11 1_555 1_555
H7 C11 1_555 1_555
H8 C11 1_555 1_555
C12 N1 1_555 1_555
H9 C12 1_555 1_555
C13 C12 1_555 1_555
H10 C13 1_555 1_555
C14 C13 1_555 1_555
H11 C14 1_555 1_555
C15 C14 1_555 1_555
H12 C15 1_555 1_555
C16 N1 1_555 1_555
H13 C16 1_555 1_555
O1F C1F 1_555 1_555
C1F C2F 1_555 1_555
C2F C3F 1_555 1_555
C3F H1F 1_555 1_555
C4F C3F 1_555 1_555
H2F C4F 1_555 1_555
C5F C4F 1_555 1_555
C6F C5F 1_555 1_555
H3F C6F 1_555 1_555
C7F C2F 1_555 1_555
H4F C7F 1_555 1_555
C8F C10 1_555 1_555
C9F C8F 1_555 1_555
H5F C9F 1_555 1_555
C10F C8 1_555 1_555
C11F C10F 1_555 1_555
H6F C11F 1_555 1_555
H7F C11F 1_555 1_555
H8F C11F 1_555 1_555
O2F C1F 1_555 1_555
Zn1A O2 1_555 1_555
Zn1B O2F 1_555 1_555
Zn1C O1F 1_555 1_555
O1E Zn1 1_555 1_555
O2A Zn1 1_555 1_555
O2D Zn1 1_555 1_555
C6 C7 1_555 1_555
C15 C16 1_555 1_555
C5F C8F 1_555 1_555
C6F C7F 1_555 1_555
C9F C10F 1_555 1_555

#END
