
#######################################################################
#
#                 Cambridge Crystallographic Data Centre
#                                CCDC 
#
#######################################################################
#
# If this CIF has been generated from an entry in the Cambridge 
# Structural Database, then it will include bibliographic, chemical, 
# crystal, experimental, refinement or atomic coordinate data resulting 
# from the CCDC's data processing and validation procedures.
#
#######################################################################

data_HIFHIO
_symmetry_cell_setting           triclinic
_symmetry_space_group_name_H-M   'P -1'
_symmetry_Int_Tables_number      2
_space_group_name_Hall           '-P 1'
loop_
_symmetry_equiv_pos_site_id
_symmetry_equiv_pos_as_xyz
1 x,y,z
2 -x,-y,-z
_cell_length_a                   8.3033(8)
_cell_length_b                   13.7280(13)
_cell_length_c                   18.2520(18)
_cell_angle_alpha                68.282(2)
_cell_angle_beta                 84.708(2)
_cell_angle_gamma                82.050(2)
_cell_volume                     1912.34
loop_
_atom_site_label
_atom_site_type_symbol
_atom_site_fract_x
_atom_site_fract_y
_atom_site_fract_z
Cu1 Cu 0.83922(4) 0.08554(3) 0.29493(2)
Cu2 Cu 0.28400(4) 0.41343(3) 0.20550(2)
N1 N 0.7276(3) -0.0275(2) 0.37853(16)
O1 O 0.9427(2) 0.19475(16) 0.21014(12)
O2 O 0.4008(2) 0.30436(16) 0.29154(12)
N2 N 0.1583(3) 0.5264(2) 0.12058(16)
O5 O 1.1378(3) 0.30016(16) 0.18393(12)
N3 N 0.7573(3) 0.02119(19) 0.22637(15)
O7 O 0.6332(3) 0.19897(16) 0.31893(12)
N4 N 0.1393(3) 0.47808(19) 0.27281(15)
N5 N 1.0093(3) 0.0972(2) 0.36061(15)
H1 H 0.9654 0.1330 0.3915
H2 H 1.0506 0.0324 0.3919
N6 N 0.4900(3) 0.40416(19) 0.14215(15)
H3 H 0.4784 0.3692 0.1102
H4 H 0.5143 0.4694 0.1120
C1 C 0.7195(4) 0.4245(2) 0.21247(18)
H5 H 0.8154 0.3854 0.2406
H6 H 0.7561 0.4738 0.1621
C2 C 1.2822(4) 0.0763(2) 0.29444(17)
H7 H 1.3737 0.1153 0.2692
H8 H 1.3155 0.0258 0.3455
C3 C 1.2420(4) 0.0160(2) 0.24412(19)
C4 C 0.1718(4) 0.5405(2) 0.04402(19)
H9 H 0.2491 0.4964 0.0272
C5 C 0.7099(4) -0.0407(2) 0.45474(19)
H10 H 0.7574 0.0036 0.4725
C6 C 0.6254(4) 0.4871(2) 0.25958(19)
C7 C 1.1406(4) 0.1535(2) 0.30728(18)
H11 H 1.1817 0.1982 0.3309
C8 C 0.5487(4) 0.2765(2) 0.27482(18)
C9 C 1.0697(4) 0.2233(2) 0.22834(18)
C10 C 0.6234(4) 0.3473(2) 0.19715(18)
H12 H 0.6974 0.3034 0.1738
C11 C 0.6582(4) -0.0912(2) 0.35165(19)
C12 C 0.6281(4) 0.4500(3) 0.3410(2)
H13 H 0.6908 0.3869 0.3672
C13 C 0.6550(4) -0.0921(3) 0.1454(2)
H14 H 0.6192 -0.1294 0.1178
C14 C 1.2701(4) 0.0555(3) 0.1632(2)
H15 H 1.3136 0.1194 0.1395
C15 C -0.0442(4) 0.5954(3) 0.3508(2)
H16 H -0.1062 0.6351 0.3772
C16 C 0.5528(4) -0.1837(3) 0.4820(2)
H17 H 0.4947 -0.2365 0.5170
C17 C -0.0397(4) 0.6837(3) 0.0139(2)
H18 H -0.1054 0.7371 -0.0220
C18 C 0.5697(4) -0.1696(3) 0.4026(2)
H19 H 0.5219 -0.2125 0.3836
C19 C 0.0459(4) 0.5891(2) 0.14618(19)
C20 C -0.0553(4) 0.6684(3) 0.0932(2)
H20 H -0.1331 0.7109 0.1112
C21 C 0.6236(4) -0.1180(3) 0.5084(2)
H21 H 0.6132 -0.1256 0.5614
C22 C 0.0748(4) 0.6184(3) -0.0114(2)
H22 H 0.0867 0.6265 -0.0645
C23 C 0.0396(4) 0.5649(2) 0.2322(2)
C24 C 0.1482(4) 0.4507(3) 0.3498(2)
H23 H 0.2169 0.3910 0.3771
C25 C 0.6809(4) -0.0662(2) 0.2658(2)
C26 C 0.4442(5) 0.5982(3) 0.3461(2)
H24 H 0.3832 0.6347 0.3751
C27 C -0.0541(4) 0.6236(3) 0.2708(2)
H25 H -0.1239 0.6821 0.2427
C28 C 1.1398(4) -0.1330(3) 0.2313(2)
H26 H 1.0952 -0.1965 0.2546
C29 C 0.0582(4) 0.5079(3) 0.3916(2)
H27 H 0.0671 0.4876 0.4458
C30 C 0.7847(4) 0.0503(3) 0.1485(2)
H28 H 0.8394 0.1091 0.1220
C31 C 0.4404(4) 0.6364(3) 0.2653(2)
H29 H 0.3765 0.6992 0.2396
C32 C 0.6293(4) -0.1239(3) 0.2258(2)
H30 H 0.5776 -0.1838 0.2533
C33 C 1.1757(4) -0.0798(2) 0.2782(2)
H31 H 1.1557 -0.1081 0.3325
C34 C 0.5306(4) 0.5826(2) 0.2215(2)
H32 H 0.5283 0.6099 0.1667
C35 C 0.7345(4) -0.0042(3) 0.1058(2)
H33 H 0.7540 0.0182 0.0514
C36 C 1.1687(4) -0.0934(3) 0.1513(2)
H34 H 1.1446 -0.1297 0.1203
C37 C 1.2347(4) 0.0020(3) 0.1168(2)
H35 H 1.2551 0.0297 0.0624
C38 C 0.5402(5) 0.5045(3) 0.3840(2)
H36 H 0.5450 0.4785 0.4387
Cu2_2 Cu 1.28400(4) 0.41343(3) 0.20550(2)
O5_2 O 0.1378(3) 0.30016(16) 0.18393(12)
Cl1 Cl 0.48068(9) 0.73205(6) 0.00230(4)
O3 O 0.5932(3) 0.79258(17) 0.01670(13)
O6 O 0.3315(3) 0.73980(19) 0.04653(15)
O11 O 0.4529(3) 0.76916(17) -0.08073(13)
O12 O 0.5507(3) 0.62236(17) 0.02569(13)
Cl2 Cl 0.08934(9) 0.76515(6) 0.49657(4)
O4 O 0.2356(3) 0.70539(18) 0.48138(13)
O8 O 0.0442(3) 0.72632(17) 0.57958(13)
O9 O 0.1179(3) 0.87481(16) 0.47439(13)
O10 O -0.0386(3) 0.75842(19) 0.45195(15)
loop_
_geom_bond_atom_site_label_1
_geom_bond_atom_site_label_2
_geom_bond_site_symmetry_1
_geom_bond_site_symmetry_2
Cu1 N1 1_555 1_555
Cu2 O2 1_555 1_555
Cl1 O3 1_555 1_555
Cl2 O4 1_555 1_555
N1 C5 1_555 1_555
O1 Cu1 1_555 1_555
O2 C8 1_555 1_555
N2 Cu2 1_555 1_555
O5 C9 1_555 1_555
O6 Cl1 1_555 1_555
N3 Cu1 1_555 1_555
O7 Cu1 1_555 1_555
O8 Cl2 1_555 1_555
N4 Cu2 1_555 1_555
O9 Cl2 1_555 1_555
O10 Cl2 1_555 1_555
N5 Cu1 1_555 1_555
H1 N5 1_555 1_555
H2 N5 1_555 1_555
O11 Cl1 1_555 1_555
N6 Cu2 1_555 1_555
H3 N6 1_555 1_555
H4 N6 1_555 1_555
O12 Cl1 1_555 1_555
C1 H5 1_555 1_555
H6 C1 1_555 1_555
C2 H7 1_555 1_555
H8 C2 1_555 1_555
C3 C2 1_555 1_555
C4 N2 1_555 1_555
H9 C4 1_555 1_555
C5 H10 1_555 1_555
C6 C1 1_555 1_555
C7 N5 1_555 1_555
H11 C7 1_555 1_555
C8 O7 1_555 1_555
C9 O1 1_555 1_555
C10 N6 1_555 1_555
H12 C10 1_555 1_555
C11 N1 1_555 1_555
C12 C6 1_555 1_555
H13 C12 1_555 1_555
C13 H14 1_555 1_555
C14 C3 1_555 1_555
H15 C14 1_555 1_555
C15 H16 1_555 1_555
C16 H17 1_555 1_555
C17 H18 1_555 1_555
C18 C11 1_555 1_555
H19 C18 1_555 1_555
C19 N2 1_555 1_555
C20 C17 1_555 1_555
H20 C20 1_555 1_555
C21 C5 1_555 1_555
H21 C21 1_555 1_555
C22 C4 1_555 1_555
H22 C22 1_555 1_555
C23 N4 1_555 1_555
C24 N4 1_555 1_555
H23 C24 1_555 1_555
C25 N3 1_555 1_555
C26 H24 1_555 1_555
C27 C15 1_555 1_555
H25 C27 1_555 1_555
C28 H26 1_555 1_555
C29 C15 1_555 1_555
H27 C29 1_555 1_555
C30 N3 1_555 1_555
H28 C30 1_555 1_555
C31 C26 1_555 1_555
H29 C31 1_555 1_555
C32 C13 1_555 1_555
H30 C32 1_555 1_555
C33 C3 1_555 1_555
H31 C33 1_555 1_555
C34 C6 1_555 1_555
H32 C34 1_555 1_555
C35 C13 1_555 1_555
H33 C35 1_555 1_555
C36 C28 1_555 1_555
H34 C36 1_555 1_555
C37 C14 1_555 1_555
H35 C37 1_555 1_555
C38 C12 1_555 1_555
H36 C38 1_555 1_555
Cu2_2 O5 1_555 1_555
O5_2 Cu2 1_555 1_555
C1 C10 1_555 1_555
C2 C7 1_555 1_555
C7 C9 1_555 1_555
C8 C10 1_555 1_555
C11 C25 1_555 1_555
C16 C18 1_555 1_555
C16 C21 1_555 1_555
C17 C22 1_555 1_555
C19 C20 1_555 1_555
C19 C23 1_555 1_555
C23 C27 1_555 1_555
C24 C29 1_555 1_555
C25 C32 1_555 1_555
C26 C38 1_555 1_555
C28 C33 1_555 1_555
C30 C35 1_555 1_555
C31 C34 1_555 1_555
C36 C37 1_555 1_555

#END
