
#######################################################################
#
#                 Cambridge Crystallographic Data Centre
#                                CCDC 
#
#######################################################################
#
# If this CIF has been generated from an entry in the Cambridge 
# Structural Database, then it will include bibliographic, chemical, 
# crystal, experimental, refinement or atomic coordinate data resulting 
# from the CCDC's data processing and validation procedures.
#
#######################################################################

data_HIFHAH
_symmetry_cell_setting           orthorhombic
_symmetry_space_group_name_H-M   'P b c a'
_symmetry_Int_Tables_number      61
_space_group_name_Hall           '-P 2ac 2ab'
loop_
_symmetry_equiv_pos_site_id
_symmetry_equiv_pos_as_xyz
1 x,y,z
2 1/2-x,-y,1/2+z
3 1/2+x,1/2-y,-z
4 -x,1/2+y,1/2-z
5 -x,-y,-z
6 1/2+x,y,1/2-z
7 1/2-x,1/2+y,z
8 x,1/2-y,1/2+z
_cell_length_a                   13.887(5)
_cell_length_b                   9.302(4)
_cell_length_c                   32.649(5)
_cell_angle_alpha                90
_cell_angle_beta                 90
_cell_angle_gamma                90
_cell_volume                     4217.5
loop_
_atom_site_label
_atom_site_type_symbol
_atom_site_fract_x
_atom_site_fract_y
_atom_site_fract_z
Zn1 Zn 0.46751(2) 0.18640(4) 0.481253(10)
O1 O 0.54986(16) 0.2173(2) 0.43392(7)
O2 O 0.59153(16) 0.4075(2) 0.47078(6)
O3 O 0.90137(14) 1.0152(2) 0.04203(6)
O4 O 1.00532(17) 0.8309(2) 0.03937(6)
N1 N 0.36111(19) 0.3343(3) 0.48374(7)
C1 C 0.5905(2) 0.3399(3) 0.43807(9)
C2 C 0.6349(2) 0.4018(3) 0.40001(9)
C3 C 0.7136(2) 0.4918(4) 0.40207(9)
H1 H 0.7394 0.5153 0.4275
C4 C 0.7548(2) 0.5476(4) 0.36706(10)
H2 H 0.8087 0.6066 0.3691
C5 C 0.7163(2) 0.5161(3) 0.32856(9)
C6 C 0.6359(2) 0.4260(3) 0.32656(9)
H3 H 0.6087 0.4045 0.3013
C7 C 0.5964(2) 0.3683(3) 0.36181(9)
H4 H 0.5438 0.3067 0.3600
C8 C 0.7550(2) 0.5810(3) 0.29034(9)
C9 C 0.6906(2) 0.6504(3) 0.26408(9)
H5 H 0.6263 0.6555 0.2718
C10 C 0.7175(2) 0.7121(3) 0.22713(9)
C11 C 0.8150(2) 0.7065(3) 0.21595(9)
C12 C 0.8796(2) 0.6367(3) 0.24227(9)
H6 H 0.9442 0.6335 0.2348
C13 C 0.8528(2) 0.5719(3) 0.27891(9)
C14 C 0.6397(2) 0.7756(4) 0.20022(10)
H7 H 0.6682 0.8140 0.1758
H8 H 0.6072 0.8510 0.2148
H9 H 0.5942 0.7020 0.1930
C15 C 0.9259(2) 0.4923(4) 0.30395(10)
H10 H 0.8958 0.4547 0.3281
H11 H 0.9768 0.5567 0.3116
H12 H 0.9520 0.4146 0.2881
C16 C 0.8512(2) 0.7632(3) 0.17614(9)
C17 C 0.8261(2) 0.8997(3) 0.16175(9)
H13 H 0.7882 0.9595 0.1779
C18 C 0.8567(2) 0.9470(3) 0.12379(9)
H14 H 0.8384 1.0375 0.1145
C19 C 0.9146(2) 0.8605(3) 0.09929(9)
C20 C 0.9445(2) 0.7272(4) 0.11419(9)
H15 H 0.9859 0.6704 0.0988
C21 C 0.9121(2) 0.6797(3) 0.15210(9)
H16 H 0.9317 0.5901 0.1616
C22 C 0.9425(2) 0.9070(3) 0.05726(9)
C23 C 0.3401(3) 0.3982(4) 0.44283(10)
H17 H 0.3983 0.4365 0.4313
H18 H 0.2936 0.4739 0.4458
H19 H 0.3148 0.3253 0.4250
C24 C 0.2732(2) 0.2742(4) 0.50208(11)
H20 H 0.2882 0.2333 0.5283
H21 H 0.2476 0.2010 0.4845
H22 H 0.2263 0.3492 0.5054
Zn1A Zn 1.03249(2) 0.81360(4) -0.018747(10)
Zn1E Zn 0.96751(2) 1.18640(4) 0.018747(10)
O3E O 0.40137(14) 0.0152(2) 0.45797(6)
O4A O 0.49468(17) 0.1691(2) 0.53937(6)
loop_
_geom_bond_atom_site_label_1
_geom_bond_atom_site_label_2
_geom_bond_site_symmetry_1
_geom_bond_site_symmetry_2
Zn1 O1 1_555 1_555
O1 C1 1_555 1_555
O2 C1 1_555 1_555
O3 C22 1_555 1_555
O4 C22 1_555 1_555
N1 Zn1 1_555 1_555
C1 C2 1_555 1_555
C2 C3 1_555 1_555
C3 H1 1_555 1_555
C4 C3 1_555 1_555
H2 C4 1_555 1_555
C5 C4 1_555 1_555
C6 C5 1_555 1_555
H3 C6 1_555 1_555
C7 C2 1_555 1_555
H4 C7 1_555 1_555
C8 C5 1_555 1_555
C9 C8 1_555 1_555
H5 C9 1_555 1_555
C10 C9 1_555 1_555
C11 C10 1_555 1_555
C12 C11 1_555 1_555
H6 C12 1_555 1_555
C13 C8 1_555 1_555
C14 C10 1_555 1_555
H7 C14 1_555 1_555
H8 C14 1_555 1_555
H9 C14 1_555 1_555
C15 C13 1_555 1_555
H10 C15 1_555 1_555
H11 C15 1_555 1_555
H12 C15 1_555 1_555
C16 C11 1_555 1_555
C17 C16 1_555 1_555
H13 C17 1_555 1_555
C18 C17 1_555 1_555
H14 C18 1_555 1_555
C19 C18 1_555 1_555
C20 C19 1_555 1_555
H15 C20 1_555 1_555
C21 C16 1_555 1_555
H16 C21 1_555 1_555
C22 C19 1_555 1_555
C23 N1 1_555 1_555
H17 C23 1_555 1_555
H18 C23 1_555 1_555
H19 C23 1_555 1_555
C24 N1 1_555 1_555
H20 C24 1_555 1_555
H21 C24 1_555 1_555
H22 C24 1_555 1_555
Zn1A O4 1_555 1_555
Zn1E O3 1_555 1_555
O3E Zn1 1_555 1_555
O4A Zn1 1_555 1_555
C6 C7 1_555 1_555
C12 C13 1_555 1_555
C20 C21 1_555 1_555

#END
