
#######################################################################
#
#                 Cambridge Crystallographic Data Centre
#                                CCDC 
#
#######################################################################
#
# If this CIF has been generated from an entry in the Cambridge 
# Structural Database, then it will include bibliographic, chemical, 
# crystal, experimental, refinement or atomic coordinate data resulting 
# from the CCDC's data processing and validation procedures.
#
#######################################################################

data_HIFHEL
_symmetry_cell_setting           monoclinic
_symmetry_space_group_name_H-M   'C 2/c'
_symmetry_Int_Tables_number      15
_space_group_name_Hall           '-C 2yn'
loop_
_symmetry_equiv_pos_site_id
_symmetry_equiv_pos_as_xyz
1 x,y,z
2 -x,y,1/2-z
3 1/2+x,1/2+y,z
4 1/2-x,1/2+y,1/2-z
5 -x,-y,-z
6 x,-y,1/2+z
7 1/2-x,1/2-y,-z
8 1/2+x,1/2-y,1/2+z
_cell_length_a                   40.205(5)
_cell_length_b                   6.984(7)
_cell_length_c                   26.098(5)
_cell_angle_alpha                90
_cell_angle_beta                 118.408(5)
_cell_angle_gamma                90
_cell_volume                     6445.67
loop_
_atom_site_label
_atom_site_type_symbol
_atom_site_fract_x
_atom_site_fract_y
_atom_site_fract_z
Pb1 Pb -0.024367(5) 0.35314(3) 0.792144(8)
Pb2 Pb -0.041587(5) -0.05130(3) 0.678701(8)
O1 O 0.04529(9) 0.2910(5) 0.87367(15)
O2 O 0.03583(9) 0.5149(5) 0.80807(14)
O3 O -0.01753(9) 0.0330(5) 0.84175(15)
O4 O -0.03512(9) -0.2077(5) 0.77809(15)
O5 O -0.38691(9) -0.4621(5) 0.87830(16)
O6 O -0.41843(9) -0.3573(5) 0.78734(15)
O7 O 0.0000 0.1581(7) 0.7500
C1 C 0.05739(13) 0.4242(7) 0.8545(2)
C2 C 0.09813(13) 0.4831(7) 0.8862(2)
C3 C 0.11308(13) 0.5869(7) 0.8567(2)
H1 H 0.0977 0.6197 0.8179
C4 C 0.15085(13) 0.6427(7) 0.8844(2)
H2 H 0.1609 0.7068 0.8637
C5 C 0.17362(13) 0.6020(7) 0.9435(2)
C6 C 0.15868(14) 0.4941(8) 0.9728(2)
H3 H 0.1739 0.4628 1.0118
C7 C 0.12151(14) 0.4335(7) 0.9445(2)
H4 H 0.1120 0.3596 0.9642
C8 C 0.21300(13) 0.6778(7) 0.9737(2)
C9 C 0.23995(13) 0.6070(7) 0.9593(2)
H5 H 0.2330 0.5104 0.9316
C10 C 0.27695(13) 0.6755(7) 0.9849(2)
C11 C -0.04031(13) -0.1019(7) 0.8129(2)
C12 C -0.07394(13) -0.1346(7) 0.8218(2)
C13 C -0.08181(14) -0.0101(7) 0.8562(2)
H6 H -0.0655 0.0913 0.8749
C14 C -0.11360(14) -0.0352(8) 0.8630(2)
H7 H -0.1186 0.0502 0.8858
C15 C -0.13830(13) -0.1881(7) 0.8359(2)
C16 C -0.13013(13) -0.3109(7) 0.8017(2)
H8 H -0.1462 -0.4135 0.7833
C17 C -0.09848(13) -0.2844(7) 0.7943(2)
H9 H -0.0938 -0.3678 0.7707
C18 C -0.17337(13) -0.2128(7) 0.8413(2)
C19 C -0.19986(13) -0.0657(7) 0.8226(2)
H10 H -0.1939 0.0484 0.8105
C20 C -0.23473(13) -0.0805(7) 0.8213(2)
C21 C -0.24336(12) -0.2525(7) 0.83945(19)
C22 C -0.21613(13) -0.3983(7) 0.8611(2)
H11 H -0.2216 -0.5095 0.8752
C23 C -0.18119(13) -0.3836(7) 0.8623(2)
C24 C -0.26079(14) 0.0903(7) 0.8020(2)
H12 H -0.2836 0.0591 0.8033
H13 H -0.2668 0.1242 0.7629
H14 H -0.2486 0.1963 0.8275
C25 C -0.15293(14) -0.5443(8) 0.8869(2)
H15 H -0.1305 -0.5111 0.8845
H16 H -0.1637 -0.6590 0.8649
H17 H -0.1466 -0.5654 0.9268
C26 C -0.38723(14) -0.3925(7) 0.8341(2)
C27 C -0.35060(13) -0.3519(7) 0.8344(2)
C28 C -0.34924(13) -0.2867(7) 0.7851(2)
H18 H -0.3715 -0.2650 0.7507
C29 C -0.31460(13) -0.2541(7) 0.7873(2)
H19 H -0.3140 -0.2081 0.7542
C30 C -0.28063(13) -0.2884(7) 0.8374(2)
C31 C -0.28221(13) -0.3574(7) 0.8869(2)
H20 H -0.2600 -0.3834 0.9209
C32 C -0.31691(13) -0.3865(7) 0.8848(2)
H21 H -0.3176 -0.4303 0.9179
C33 C 0.30523(14) 0.5856(7) 0.9698(2)
H22 H 0.2930 0.4886 0.9407
H23 H 0.3253 0.5291 1.0040
H24 H 0.3154 0.6821 0.9549
O1F O 0.45471(9) 1.2090(5) 1.12633(15)
O2F O 0.46417(9) 0.9851(5) 1.19193(14)
C1F C 0.44261(13) 1.0758(7) 1.1455(2)
C2F C 0.40187(13) 1.0169(7) 1.1138(2)
C3F C 0.38692(13) 0.9131(7) 1.1433(2)
H1F H 0.4023 0.8803 1.1821
C4F C 0.34915(13) 0.8573(7) 1.1156(2)
H2F H 0.3391 0.7932 1.1363
C5F C 0.32638(13) 0.8980(7) 1.0565(2)
C6F C 0.34132(14) 1.0059(8) 1.0272(2)
H3F H 0.3261 1.0372 0.9882
C7F C 0.37849(14) 1.0665(7) 1.0555(2)
H4F H 0.3880 1.1404 1.0358
C8F C 0.28700(13) 0.8222(7) 1.0263(2)
C9F C 0.26005(13) 0.8930(7) 1.0407(2)
H5F H 0.2670 0.9896 1.0684
C10F C 0.22305(13) 0.8245(7) 1.0151(2)
C33F C 0.19477(14) 0.9144(7) 1.0302(2)
H22F H 0.2070 1.0114 1.0593
H23F H 0.1747 0.9709 0.9960
H24F H 0.1846 0.8179 1.0451
Pb1A Pb 0.024367(5) 0.35314(3) 0.707856(8)
Pb2A Pb 0.041587(5) -0.05130(3) 0.821299(8)
O3A O 0.01753(9) 0.0330(5) 0.65825(15)
O4A O 0.03512(9) -0.2077(5) 0.72191(15)
O5A O 0.38691(9) -0.4621(5) 0.62170(16)
O6A O 0.41843(9) -0.3573(5) 0.71266(15)
C11A C 0.04031(13) -0.1019(7) 0.6871(2)
C12A C 0.07394(13) -0.1346(7) 0.6782(2)
C13A C 0.08181(14) -0.0101(7) 0.6438(2)
H6A H 0.0655 0.0913 0.6251
C14A C 0.11360(14) -0.0352(8) 0.6370(2)
H7A H 0.1186 0.0502 0.6142
C15A C 0.13830(13) -0.1881(7) 0.6641(2)
C16A C 0.13013(13) -0.3109(7) 0.6983(2)
H8A H 0.1462 -0.4135 0.7167
C17A C 0.09848(13) -0.2844(7) 0.7057(2)
H9A H 0.0938 -0.3678 0.7293
C18A C 0.17337(13) -0.2128(7) 0.6587(2)
C19A C 0.19986(13) -0.0657(7) 0.6774(2)
H10A H 0.1939 0.0484 0.6895
C20A C 0.23473(13) -0.0805(7) 0.6787(2)
C21A C 0.24336(12) -0.2525(7) 0.66055(19)
C22A C 0.21613(13) -0.3983(7) 0.6389(2)
H11A H 0.2216 -0.5095 0.6248
C23A C 0.18119(13) -0.3836(7) 0.6377(2)
C24A C 0.26079(14) 0.0903(7) 0.6980(2)
H12A H 0.2836 0.0591 0.6967
H13A H 0.2668 0.1242 0.7371
H14A H 0.2486 0.1963 0.6725
C25A C 0.15293(14) -0.5443(8) 0.6131(2)
H15A H 0.1305 -0.5111 0.6155
H16A H 0.1637 -0.6590 0.6351
H17A H 0.1466 -0.5654 0.5732
C26A C 0.38723(14) -0.3925(7) 0.6659(2)
C27A C 0.35060(13) -0.3519(7) 0.6656(2)
C28A C 0.34924(13) -0.2867(7) 0.7149(2)
H18A H 0.3715 -0.2650 0.7493
C29A C 0.31460(13) -0.2541(7) 0.7127(2)
H19A H 0.3140 -0.2081 0.7458
C30A C 0.28063(13) -0.2884(7) 0.6626(2)
C31A C 0.28221(13) -0.3574(7) 0.6131(2)
H20A H 0.2600 -0.3834 0.5791
C32A C 0.31691(13) -0.3865(7) 0.6152(2)
H21A H 0.3176 -0.4303 0.5821
Pb1B Pb 0.475633(5) -0.14686(3) 0.792144(8)
Pb1C Pb -0.475633(5) -0.14686(3) 0.707856(8)
Pb1F Pb 0.524367(5) 1.14686(3) 1.207856(8)
Pb1G Pb 0.475633(5) 1.14686(3) 1.292144(8)
Pb2B Pb 0.458413(5) -0.55130(3) 0.678701(8)
Pb2C Pb -0.458413(5) -0.55130(3) 0.821299(8)
Pb2G Pb 0.458413(5) 1.55130(3) 1.178701(8)
O1A O -0.04529(9) 0.2910(5) 0.62633(15)
O2A O -0.03583(9) 0.5149(5) 0.69193(14)
O5B O 0.11309(9) 0.0379(5) 0.87830(16)
O5C O -0.11309(9) 0.0379(5) 0.62170(16)
O6B O 0.08157(9) 0.1427(5) 0.78734(15)
O6C O -0.08157(9) 0.1427(5) 0.71266(15)
O8 O 0.0822(7) -0.047(3) 0.9824(6)
C34 C 0.0652(6) -0.209(3) 0.9789(9)
H25 H 0.0569 -0.2031 1.0082
H26 H 0.0849 -0.3060 0.9923
C35 C 0.0323(6) -0.293(3) 0.9252(7)
H27 H 0.0375 -0.4245 0.9209
H28 H 0.0287 -0.2220 0.8915
H29 H 0.0098 -0.2856 0.9292
O9 O 0.0165(3) 0.091(2) 0.9655(4)
O10 O 0.0014(8) -0.527(2) 0.954(2)
loop_
_geom_bond_atom_site_label_1
_geom_bond_atom_site_label_2
_geom_bond_site_symmetry_1
_geom_bond_site_symmetry_2
Pb1 O1 1_555 1_555
Pb2 O4 1_555 1_555
O1 C1 1_555 1_555
O2 Pb1 1_555 1_555
O3 Pb1 1_555 1_555
O4 C11 1_555 1_555
O5 C26 1_555 1_555
O6 C26 1_555 1_555
O7 Pb1 1_555 1_555
C1 O2 1_555 1_555
C2 C1 1_555 1_555
C3 C2 1_555 1_555
H1 C3 1_555 1_555
C4 C3 1_555 1_555
H2 C4 1_555 1_555
C5 C4 1_555 1_555
C6 C5 1_555 1_555
H3 C6 1_555 1_555
C7 C2 1_555 1_555
H4 C7 1_555 1_555
C8 C5 1_555 1_555
C9 C8 1_555 1_555
H5 C9 1_555 1_555
C10 C9 1_555 1_555
C11 O3 1_555 1_555
C12 C11 1_555 1_555
C13 C12 1_555 1_555
H6 C13 1_555 1_555
C14 C13 1_555 1_555
H7 C14 1_555 1_555
C15 C14 1_555 1_555
C16 C15 1_555 1_555
H8 C16 1_555 1_555
C17 C12 1_555 1_555
H9 C17 1_555 1_555
C18 C15 1_555 1_555
C19 C18 1_555 1_555
H10 C19 1_555 1_555
C20 C19 1_555 1_555
C21 C20 1_555 1_555
C22 C21 1_555 1_555
H11 C22 1_555 1_555
C23 C18 1_555 1_555
C24 C20 1_555 1_555
H12 C24 1_555 1_555
H13 C24 1_555 1_555
H14 C24 1_555 1_555
C25 C23 1_555 1_555
H15 C25 1_555 1_555
H16 C25 1_555 1_555
H17 C25 1_555 1_555
C26 C27 1_555 1_555
C27 C28 1_555 1_555
C28 H18 1_555 1_555
C29 C28 1_555 1_555
H19 C29 1_555 1_555
C30 C21 1_555 1_555
C31 C30 1_555 1_555
H20 C31 1_555 1_555
C32 C27 1_555 1_555
H21 C32 1_555 1_555
C33 C10 1_555 1_555
H22 C33 1_555 1_555
H23 C33 1_555 1_555
H24 C33 1_555 1_555
O8 C34 1_555 1_555
C34 H25 1_555 1_555
H26 C34 1_555 1_555
C35 C34 1_555 1_555
H27 C35 1_555 1_555
H28 C35 1_555 1_555
H29 C35 1_555 1_555
O1F C1F 1_555 1_555
O2F C1F 1_555 1_555
C1F C2F 1_555 1_555
C2F C3F 1_555 1_555
C3F H1F 1_555 1_555
C4F C3F 1_555 1_555
H2F C4F 1_555 1_555
C5F C4F 1_555 1_555
C6F C5F 1_555 1_555
H3F C6F 1_555 1_555
C7F C2F 1_555 1_555
H4F C7F 1_555 1_555
C8F C10 1_555 1_555
C9F C8F 1_555 1_555
H5F C9F 1_555 1_555
C10F C8 1_555 1_555
C33F C10F 1_555 1_555
H22F C33F 1_555 1_555
H23F C33F 1_555 1_555
H24F C33F 1_555 1_555
Pb1A O2 1_555 1_555
Pb2A O1 1_555 1_555
O3A Pb2 1_555 1_555
O4A Pb2A 1_555 1_555
O5A C26A 1_555 1_555
O6A C26A 1_555 1_555
C11A O3A 1_555 1_555
C12A C11A 1_555 1_555
C13A C12A 1_555 1_555
H6A C13A 1_555 1_555
C14A C13A 1_555 1_555
H7A C14A 1_555 1_555
C15A C14A 1_555 1_555
C16A C15A 1_555 1_555
H8A C16A 1_555 1_555
C17A C12A 1_555 1_555
H9A C17A 1_555 1_555
C18A C15A 1_555 1_555
C19A C18A 1_555 1_555
H10A C19A 1_555 1_555
C20A C19A 1_555 1_555
C21A C20A 1_555 1_555
C22A C21A 1_555 1_555
H11A C22A 1_555 1_555
C23A C18A 1_555 1_555
C24A C20A 1_555 1_555
H12A C24A 1_555 1_555
H13A C24A 1_555 1_555
H14A C24A 1_555 1_555
C25A C23A 1_555 1_555
H15A C25A 1_555 1_555
H16A C25A 1_555 1_555
H17A C25A 1_555 1_555
C26A C27A 1_555 1_555
C27A C28A 1_555 1_555
C28A H18A 1_555 1_555
C29A C28A 1_555 1_555
H19A C29A 1_555 1_555
C30A C21A 1_555 1_555
C31A C30A 1_555 1_555
H20A C31A 1_555 1_555
C32A C27A 1_555 1_555
H21A C32A 1_555 1_555
Pb1B O6A 1_555 1_555
Pb1C O6 1_555 1_555
Pb1F O1F 1_555 1_555
Pb1G O2F 1_555 1_555
Pb2B O5A 1_555 1_555
Pb2C O5 1_555 1_555
Pb2G O1F 1_555 1_555
O1A Pb2 1_555 1_555
O2A Pb1 1_555 1_555
O5B Pb2A 1_555 1_555
O5C Pb2 1_555 1_555
O6B Pb1A 1_555 1_555
O6C Pb1 1_555 1_555
Pb2 O7 1_555 1_555
Pb2 O6C 1_555 1_555
O3 Pb2A 1_555 1_555
O6 Pb2C 1_555 1_555
O7 Pb1A 1_555 1_555
O7 Pb2A 1_555 1_555
C6 C7 1_555 1_555
C16 C17 1_555 1_555
C22 C23 1_555 1_555
C29 C30 1_555 1_555
C31 C32 1_555 1_555
O2F Pb1F 1_555 1_555
C5F C8F 1_555 1_555
C6F C7F 1_555 1_555
C9F C10F 1_555 1_555
Pb1A O3A 1_555 1_555
Pb1A O1A 1_555 1_555
Pb1A O2A 1_555 1_555
Pb2A O6B 1_555 1_555
O4A C11A 1_555 1_555
O6A Pb2B 1_555 1_555
C16A C17A 1_555 1_555
C22A C23A 1_555 1_555
C29A C30A 1_555 1_555
C31A C32A 1_555 1_555

#END
