
#######################################################################
#
#                 Cambridge Crystallographic Data Centre
#                                CCDC 
#
#######################################################################
#
# If this CIF has been generated from an entry in the Cambridge 
# Structural Database, then it will include bibliographic, chemical, 
# crystal, experimental, refinement or atomic coordinate data resulting 
# from the CCDC's data processing and validation procedures.
#
#######################################################################

data_HIFHIP
_symmetry_cell_setting           monoclinic
_symmetry_space_group_name_H-M   'C c'
_symmetry_Int_Tables_number      9
_space_group_name_Hall           'C -2yc'
loop_
_symmetry_equiv_pos_site_id
_symmetry_equiv_pos_as_xyz
1 x,y,z
2 x,-y,1/2+z
3 1/2+x,1/2+y,z
4 1/2+x,1/2-y,1/2+z
_cell_length_a                   35.402(5)
_cell_length_b                   15.813(6)
_cell_length_c                   11.424(5)
_cell_angle_alpha                90
_cell_angle_beta                 90.361(5)
_cell_angle_gamma                90
_cell_volume                     6395.16
loop_
_atom_site_label
_atom_site_type_symbol
_atom_site_fract_x
_atom_site_fract_y
_atom_site_fract_z
Pb1 Pb 0.917638(10) 0.08651(2) 0.97599(2)
Pb2 Pb 1.371748(11) -0.36958(2) 0.66913(2)
Pb3 Pb 1.395333(11) -0.34086(3) 0.30488(2)
O1 O 0.8668(2) -0.0174(4) 1.0000(6)
O2 O 0.8502(2) -0.0221(4) 0.8113(5)
O3 O 0.8585(2) 0.1588(4) 0.9018(5)
O4 O 0.86506(19) 0.1591(4) 1.0945(6)
O5 O 0.94895(19) -0.0368(4) 0.8450(6)
O6 O 0.9305(2) -0.0173(5) 0.6598(6)
O7 O 0.4455(4) -0.2317(8) 1.2996(11)
O8 O 0.4426(3) -0.2873(7) 1.1224(18)
O9 O 1.35096(19) -0.2984(4) 0.4838(5)
O10 O 1.3489(2) -0.2201(5) 0.3235(6)
O11 O 0.4365(2) 0.3427(4) 1.2581(5)
O12 O 0.42758(19) 0.3319(4) 1.0674(6)
O13 O 1.3710(3) -0.2169(5) 0.7090(7)
C1 C 0.8416(3) -0.0236(6) 0.9184(7)
C2 C 0.8014(3) -0.0370(5) 0.9528(7)
C3 C 0.7888(3) -0.0226(6) 1.0654(8)
H1 H 0.8055 -0.0031 1.1223
C4 C 0.7511(3) -0.0372(6) 1.0946(8)
H2 H 0.7430 -0.0286 1.1710
C5 C 0.7254(3) -0.0648(6) 1.0085(8)
C6 C 0.7384(3) -0.0806(6) 0.8974(8)
H3 H 0.7219 -0.1008 0.8401
C7 C 0.7765(3) -0.0663(6) 0.8705(8)
H4 H 0.7849 -0.0771 0.7951
C8 C 0.6856(3) -0.0830(6) 1.0397(8)
C9 C 0.6547(3) -0.0494(6) 0.9739(8)
C10 C 0.6187(3) -0.0733(6) 1.0056(8)
H5 H 0.5985 -0.0509 0.9638
C11 C 0.6112(3) -0.1285(6) 1.0954(8)
C12 C 0.6409(3) -0.1612(6) 1.1624(8)
C13 C 0.6772(3) -0.1370(6) 1.1333(8)
H6 H 0.6971 -0.1577 1.1783
C14 C 0.6360(3) -0.2226(7) 1.2601(8)
H7 H 0.6096 -0.2339 1.2706
H8 H 0.6463 -0.1992 1.3308
H9 H 0.6489 -0.2743 1.2417
C15 C 0.6604(3) 0.0132(7) 0.8743(9)
H10 H 0.6869 0.0232 0.8641
H11 H 0.6480 0.0655 0.8926
H12 H 0.6499 -0.0096 0.8033
C16 C 0.5716(3) -0.1540(6) 1.1186(9)
C17 C 0.5491(4) -0.1926(9) 1.0321(12)
H13 H 0.5585 -0.1981 0.9567
C18 C 0.5132(4) -0.2228(9) 1.0563(18)
H14 H 0.5003 -0.2513 0.9971
C19 C 0.4937(4) -0.2123(8) 1.1723(15)
C20 C 0.5183(3) -0.1695(9) 1.2485(13)
H15 H 0.5090 -0.1578 1.3228
C21 C 0.5546(3) -0.1427(8) 1.2263(10)
H16 H 0.5682 -0.1161 1.2858
C22 C 0.4598(3) -0.2481(8) 1.1952(18)
C23 C 0.8447(3) 0.1685(5) 1.0035(7)
C24 C 0.8041(3) 0.1888(6) 1.0141(8)
C25 C 0.7801(3) 0.1845(7) 0.9195(8)
H17 H 0.7898 0.1710 0.8463
C26 C 0.7416(3) 0.1997(7) 0.9306(8)
H18 H 0.7260 0.1973 0.8648
C27 C 0.7261(3) 0.2186(6) 1.0394(8)
C28 C 0.7506(3) 0.2226(6) 1.1371(8)
H19 H 0.7410 0.2345 1.2109
C29 C 0.7891(3) 0.2089(7) 1.1227(8)
H20 H 0.8051 0.2133 1.1872
C30 C 0.6855(3) 0.2352(7) 1.0556(8)
C31 C 0.6707(3) 0.3160(6) 1.0269(8)
C32 C 0.6318(3) 0.3292(6) 1.0453(8)
H21 H 0.6213 0.3816 1.0276
C33 C 0.6086(3) 0.2655(6) 1.0894(8)
C34 C 0.6229(3) 0.1861(7) 1.1159(8)
C35 C 0.6611(3) 0.1732(6) 1.0981(8)
H22 H 0.6711 0.1203 1.1154
C36 C 0.6953(3) 0.3846(7) 0.9792(10)
H23 H 0.7208 0.3643 0.9729
H24 H 0.6947 0.4324 1.0309
H25 H 0.6862 0.4011 0.9033
C37 C 0.5984(3) 0.1170(7) 1.1654(10)
H26 H 0.6133 0.0671 1.1779
H27 H 0.5782 0.1047 1.1114
H28 H 0.5880 0.1353 1.2386
C38 C 0.5671(3) 0.2834(6) 1.1075(8)
C39 C 0.5416(3) 0.2744(7) 1.0160(8)
H29 H 0.5503 0.2575 0.9430
C40 C 0.5037(3) 0.2900(6) 1.0303(8)
H30 H 0.4872 0.2848 0.9670
C41 C 0.4903(3) 0.3133(6) 1.1380(8)
C42 C 0.5159(3) 0.3243(6) 1.2315(8)
H31 H 0.5074 0.3424 1.3041
C43 C 0.5529(3) 0.3083(7) 1.2148(8)
H32 H 0.5695 0.3143 1.2777
C44 C 0.4475(3) 0.3316(6) 1.1536(8)
C45 C 0.9565(3) -0.0305(6) 0.7397(8)
C46 C 0.9961(3) -0.0417(5) 0.7013(8)
C47 C 1.0091(3) -0.0237(6) 0.5895(7)
H33 H 0.9922 -0.0027 0.5337
C48 C 1.0457(3) -0.0360(6) 0.5598(8)
H34 H 1.0534 -0.0241 0.4839
C49 C 1.0722(3) -0.0665(6) 0.6416(8)
C50 C 1.0591(3) -0.0854(6) 0.7538(8)
H35 H 1.0757 -0.1073 0.8094
C51 C 1.0230(3) -0.0722(6) 0.7823(8)
H36 H 1.0153 -0.0837 0.8584
C52 C 1.1124(3) -0.0829(6) 0.6090(7)
C53 C 1.1429(3) -0.0502(6) 0.6723(8)
C54 C 1.1790(3) -0.0725(6) 0.6405(8)
H37 H 1.1994 -0.0504 0.6826
C55 C 1.1864(3) -0.1284(6) 0.5449(8)
C56 C 1.1552(3) -0.1620(6) 0.4822(7)
C57 C 1.1196(3) -0.1376(6) 0.5154(7)
H38 H 1.0991 -0.1586 0.4732
C58 C 1.1372(3) 0.0106(6) 0.7713(8)
H39 H 1.1107 0.0192 0.7830
H40 H 1.1490 0.0636 0.7529
H41 H 1.1483 -0.0121 0.8415
C59 C 1.1603(3) -0.2239(6) 0.3834(8)
H42 H 1.1360 -0.2394 0.3522
H43 H 1.1730 -0.2735 0.4120
H44 H 1.1751 -0.1982 0.3230
C60 C 1.2259(3) -0.1515(6) 0.5176(8)
C61 C 1.2483(3) -0.1914(6) 0.5987(8)
H45 H 1.2394 -0.1995 0.6743
C62 C 1.2846(3) -0.2203(7) 0.5690(8)
H46 H 1.2992 -0.2494 0.6236
C63 C 1.2981(3) -0.2053(6) 0.4589(8)
C64 C 1.2773(3) -0.1596(7) 0.3791(9)
H47 H 1.2874 -0.1461 0.3065
C65 C 1.2411(3) -0.1338(7) 0.4074(9)
H48 H 1.2268 -0.1044 0.3525
C66 C 1.3358(3) -0.2426(6) 0.4208(8)
Pb1A Pb 0.917638(10) -0.08651(2) 0.47599(2)
Pb1B Pb 0.417638(10) -0.41349(2) 0.97599(2)
Pb1C Pb 0.417638(10) 0.41349(2) 1.47599(2)
Pb2A Pb 0.371748(11) 0.36958(2) 1.16913(2)
Pb2B Pb 0.871748(11) 0.13042(2) 0.66913(2)
Pb2C Pb 0.871748(11) -0.13042(2) 1.16913(2)
Pb3_2 Pb 0.395333(11) -0.34086(3) 1.30488(2)
Pb3B Pb 0.895333(11) 0.15914(3) 1.30488(2)
Pb3C Pb 0.895333(11) -0.15914(3) 0.80488(2)
O1C O 1.3668(2) -0.4826(4) 0.5000(6)
O2C O 1.3502(2) -0.4779(4) 0.3113(5)
O3B O 1.3585(2) -0.3412(4) 0.9018(5)
O4B O 1.36506(19) -0.3409(4) 0.0945(6)
O5C O 1.44895(19) -0.4632(4) 0.3450(6)
O6A O 0.9305(2) 0.0173(5) 1.1598(6)
O7_2 O 1.4455(4) -0.2317(8) 0.2996(11)
O8_2 O 1.4426(3) -0.2873(7) 0.1224(18)
O8B O 0.9426(3) 0.2127(7) 1.1224(18)
O11A O 1.4365(2) -0.3427(4) 0.7581(5)
O11C O 0.9365(2) 0.1573(4) 0.7581(5)
O12A O 1.42758(19) -0.3319(4) 0.5674(6)
loop_
_geom_bond_atom_site_label_1
_geom_bond_atom_site_label_2
_geom_bond_site_symmetry_1
_geom_bond_site_symmetry_2
Pb1 O1 1_555 1_555
Pb2 O9 1_555 1_555
Pb3 O9 1_555 1_555
O1 C1 1_555 1_555
O2 C1 1_555 1_555
O3 Pb1 1_555 1_555
O4 Pb1 1_555 1_555
O5 Pb1 1_555 1_555
O6 C45 1_555 1_555
O7 C22 1_555 1_555
O8 C22 1_555 1_555
O9 C66 1_555 1_555
O10 Pb3 1_555 1_555
O11 C44 1_555 1_555
O12 C44 1_555 1_555
O13 Pb2 1_555 1_555
C1 C2 1_555 1_555
C2 C3 1_555 1_555
C3 H1 1_555 1_555
C4 C3 1_555 1_555
H2 C4 1_555 1_555
C5 C4 1_555 1_555
C6 C5 1_555 1_555
H3 C6 1_555 1_555
C7 C2 1_555 1_555
H4 C7 1_555 1_555
C8 C5 1_555 1_555
C9 C8 1_555 1_555
C10 C9 1_555 1_555
H5 C10 1_555 1_555
C11 C10 1_555 1_555
C12 C11 1_555 1_555
C13 C8 1_555 1_555
H6 C13 1_555 1_555
C14 C12 1_555 1_555
H7 C14 1_555 1_555
H8 C14 1_555 1_555
H9 C14 1_555 1_555
C15 C9 1_555 1_555
H10 C15 1_555 1_555
H11 C15 1_555 1_555
H12 C15 1_555 1_555
C16 C11 1_555 1_555
C17 C16 1_555 1_555
H13 C17 1_555 1_555
C18 C17 1_555 1_555
H14 C18 1_555 1_555
C19 C18 1_555 1_555
C20 C19 1_555 1_555
H15 C20 1_555 1_555
C21 C16 1_555 1_555
H16 C21 1_555 1_555
C22 C19 1_555 1_555
C23 O3 1_555 1_555
C24 C23 1_555 1_555
C25 C24 1_555 1_555
H17 C25 1_555 1_555
C26 C25 1_555 1_555
H18 C26 1_555 1_555
C27 C26 1_555 1_555
C28 C27 1_555 1_555
H19 C28 1_555 1_555
C29 C24 1_555 1_555
H20 C29 1_555 1_555
C30 C27 1_555 1_555
C31 C30 1_555 1_555
C32 C31 1_555 1_555
H21 C32 1_555 1_555
C33 C32 1_555 1_555
C34 C33 1_555 1_555
C35 C30 1_555 1_555
H22 C35 1_555 1_555
C36 C31 1_555 1_555
H23 C36 1_555 1_555
H24 C36 1_555 1_555
H25 C36 1_555 1_555
C37 C34 1_555 1_555
H26 C37 1_555 1_555
H27 C37 1_555 1_555
H28 C37 1_555 1_555
C38 C33 1_555 1_555
C39 C38 1_555 1_555
H29 C39 1_555 1_555
C40 C39 1_555 1_555
H30 C40 1_555 1_555
C41 C40 1_555 1_555
C42 C41 1_555 1_555
H31 C42 1_555 1_555
C43 C38 1_555 1_555
H32 C43 1_555 1_555
C44 C41 1_555 1_555
C45 O5 1_555 1_555
C46 C45 1_555 1_555
C47 C46 1_555 1_555
H33 C47 1_555 1_555
C48 C47 1_555 1_555
H34 C48 1_555 1_555
C49 C48 1_555 1_555
C50 C49 1_555 1_555
H35 C50 1_555 1_555
C51 C46 1_555 1_555
H36 C51 1_555 1_555
C52 C49 1_555 1_555
C53 C52 1_555 1_555
C54 C53 1_555 1_555
H37 C54 1_555 1_555
C55 C54 1_555 1_555
C56 C55 1_555 1_555
C57 C52 1_555 1_555
H38 C57 1_555 1_555
C58 C53 1_555 1_555
H39 C58 1_555 1_555
H40 C58 1_555 1_555
H41 C58 1_555 1_555
C59 C56 1_555 1_555
H42 C59 1_555 1_555
H43 C59 1_555 1_555
H44 C59 1_555 1_555
C60 C55 1_555 1_555
C61 C60 1_555 1_555
H45 C61 1_555 1_555
C62 C61 1_555 1_555
H46 C62 1_555 1_555
C63 C62 1_555 1_555
C64 C63 1_555 1_555
H47 C64 1_555 1_555
C65 C60 1_555 1_555
H48 C65 1_555 1_555
C66 O10 1_555 1_555
Pb1A O6 1_555 1_555
Pb1B O8 1_555 1_555
Pb1C O11 1_555 1_555
Pb2A O11 1_555 1_555
Pb2B O3 1_555 1_555
Pb2C O1 1_555 1_555
Pb3_2 O7 1_555 1_555
Pb3B O4 1_555 1_555
Pb3C O2 1_555 1_555
O1C Pb2 1_555 1_555
O2C Pb3 1_555 1_555
O3B Pb2 1_555 1_555
O4B Pb3 1_555 1_555
O5C Pb3 1_555 1_555
O6A Pb1 1_555 1_555
O7_2 Pb3 1_555 1_555
O8_2 Pb3 1_555 1_555
O8B Pb1 1_555 1_555
O11A Pb2 1_555 1_555
O11C Pb1 1_555 1_555
O12A Pb2 1_555 1_555
O4 C23 1_555 1_555
O5 Pb3C 1_555 1_555
O8 Pb3_2 1_555 1_555
O12 Pb2A 1_555 1_555
C6 C7 1_555 1_555
C12 C13 1_555 1_555
C20 C21 1_555 1_555
C28 C29 1_555 1_555
C34 C35 1_555 1_555
C42 C43 1_555 1_555
C50 C51 1_555 1_555
C56 C57 1_555 1_555
C63 C66 1_555 1_555
C64 C65 1_555 1_555
Pb2B O11C 1_555 1_555
Pb3B O8B 1_555 1_555

#END
