
#######################################################################
#
#                 Cambridge Crystallographic Data Centre
#                                CCDC 
#
#######################################################################
#
# If this CIF has been generated from an entry in the Cambridge 
# Structural Database, then it will include bibliographic, chemical, 
# crystal, experimental, refinement or atomic coordinate data resulting 
# from the CCDC's data processing and validation procedures.
#
#######################################################################

data_HIFLAJ
_symmetry_cell_setting           monoclinic
_symmetry_space_group_name_H-M   'P 21/c'
_symmetry_Int_Tables_number      14
_space_group_name_Hall           '-P 2ybc'
loop_
_symmetry_equiv_pos_site_id
_symmetry_equiv_pos_as_xyz
1 x,y,z
2 -x,1/2+y,1/2-z
3 -x,-y,-z
4 x,1/2-y,1/2+z
_cell_length_a                   7.1080(10)
_cell_length_b                   29.295(6)
_cell_length_c                   6.5650(10)
_cell_angle_alpha                90
_cell_angle_beta                 91.88(3)
_cell_angle_gamma                90
_cell_volume                     1366.29
loop_
_atom_site_label
_atom_site_type_symbol
_atom_site_fract_x
_atom_site_fract_y
_atom_site_fract_z
Ca1 Ca 0.28029(12) 0.27747(4) -0.28155(11)
O1 O 0.3341(5) 0.20104(14) -0.1180(4)
O2 O 0.3722(5) 0.20323(13) -0.4462(4)
C1 C 0.3543(5) 0.1795(2) -0.2835(6)
C2 C 0.3533(6) 0.1300(2) -0.2912(6)
C3 C 0.3794(8) 0.1015(3) -0.4615(8)
H1 H 0.4037(8) 0.1110(3) -0.5932(8)
C4 C 0.3627(9) 0.0588(3) -0.3986(12)
H2 H 0.3767(9) 0.0330(3) -0.4792(12)
O3 O 0.3215(7) 0.0586(2) -0.1947(8)
C5 C 0.3179(9) 0.1024(3) -0.1353(9)
H3 H 0.2940(9) 0.1121(3) -0.0039(9)
O7 O 0.0249(5) 0.2477(2) -0.5246(5)
O8 O 0.0830(5) 0.34372(14) -0.2809(6)
O9 O 0.5913(6) 0.3087(2) -0.2846(5)
H7 H -0.0321(91) 0.2266(25) -0.4916(87)
H8 H -0.039(13) 0.2722(31) -0.581(12)
H9 H 0.0322(80) 0.3493(20) -0.1781(82)
H10 H 0.0216(86) 0.3488(22) -0.3776(90)
H11 H 0.6539(57) 0.3184(16) -0.1929(87)
H12 H 0.6651(58) 0.3140(16) -0.3733(93)
O1C O 0.3341(5) 0.29896(14) -0.6180(4)
O2C O 0.3722(5) 0.29677(13) 0.0538(4)
O7C O 0.0249(5) 0.2523(2) -0.0246(5)
Ca1C Ca 0.28029(12) 0.22253(4) 0.21845(11)
Ca1C_2 Ca 0.28029(12) 0.22253(4) -0.78155(11)
H7C H -0.0321(91) 0.2734(25) 0.0084(87)
H8C H -0.039(13) 0.2278(31) -0.081(12)
O4 O 0.8579(5) 0.33393(14) -0.9476(4)
O5 O 0.8362(5) 0.32665(14) -0.6125(4)
C6 C 0.8438(6) 0.3509(2) -0.7715(6)
C7 C 0.8384(7) 0.4005(2) -0.7484(7)
C8 C 0.7950(9) 0.4263(3) -0.5717(11)
H4 H 0.7649(9) 0.4145(3) -0.4453(11)
C9 C 0.8056(12) 0.4702(4) -0.6206(15)
H5 H 0.7806(12) 0.4943(4) -0.5333(15)
O6 O 0.8582(9) 0.4748(2) -0.8169(11)
C10 C 0.8751(10) 0.4323(3) -0.8920(11)
H6 H 0.9076(10) 0.4256(3) -1.0247(11)
loop_
_geom_bond_atom_site_label_1
_geom_bond_atom_site_label_2
_geom_bond_site_symmetry_1
_geom_bond_site_symmetry_2
Ca1 O1 1_555 1_555
O1 C1 1_555 1_555
O2 Ca1 1_555 1_555
C1 O2 1_555 1_555
C2 C1 1_555 1_555
C3 C2 1_555 1_555
H1 C3 1_555 1_555
C4 C3 1_555 1_555
H2 C4 1_555 1_555
O3 C4 1_555 1_555
C5 C2 1_555 1_555
H3 C5 1_555 1_555
O4 C6 1_555 1_555
O5 C6 1_555 1_555
C6 C7 1_555 1_555
C7 C8 1_555 1_555
C8 H4 1_555 1_555
C9 C8 1_555 1_555
H5 C9 1_555 1_555
O6 C9 1_555 1_555
C10 C7 1_555 1_555
H6 C10 1_555 1_555
O7 Ca1 1_555 1_555
O8 Ca1 1_555 1_555
O9 Ca1 1_555 1_555
H7 O7 1_555 1_555
H8 O7 1_555 1_555
H9 O8 1_555 1_555
H10 O8 1_555 1_555
H11 O9 1_555 1_555
H12 O9 1_555 1_555
O1C Ca1 1_555 1_555
O2C Ca1 1_555 1_555
O7C Ca1 1_555 1_555
Ca1C O1 1_555 1_555
Ca1C_2 O2 1_555 1_555
H7C O7C 1_555 1_555
H8C O7C 1_555 1_555
O3 C5 1_555 1_555
O6 C10 1_555 1_555
O7 Ca1C_2 1_555 1_555
O1C Ca1C_2 1_555 1_555
O2C Ca1C 1_555 1_555
O7C Ca1C 1_555 1_555

#END
