
#######################################################################
#
#                 Cambridge Crystallographic Data Centre
#                                CCDC 
#
#######################################################################
#
# If this CIF has been generated from an entry in the Cambridge 
# Structural Database, then it will include bibliographic, chemical, 
# crystal, experimental, refinement or atomic coordinate data resulting 
# from the CCDC's data processing and validation procedures.
#
#######################################################################

data_HIFMEP
_symmetry_cell_setting           orthorhombic
_symmetry_space_group_name_H-M   'P 21 21 21'
_symmetry_Int_Tables_number      19
_space_group_name_Hall           'P 2ac 2ab'
loop_
_symmetry_equiv_pos_site_id
_symmetry_equiv_pos_as_xyz
1 x,y,z
2 1/2-x,-y,1/2+z
3 -x,1/2+y,1/2-z
4 1/2+x,1/2-y,-z
_cell_length_a                   12.7929(12)
_cell_length_b                   13.4006(12)
_cell_length_c                   14.4847(14)
_cell_angle_alpha                90
_cell_angle_beta                 90
_cell_angle_gamma                90
_cell_volume                     2483.15
loop_
_atom_site_label
_atom_site_type_symbol
_atom_site_fract_x
_atom_site_fract_y
_atom_site_fract_z
P1 P 0.54674(5) 0.59794(5) 0.66257(4)
C1 C 0.4177(2) 0.62583(18) 0.70553(18)
C2 C 0.3308(2) 0.5742(2) 0.67337(18)
H1 H 0.3387 0.5240 0.6276
C3 C 0.2326(2) 0.5960(2) 0.70824(18)
H2 H 0.1730 0.5614 0.6858
C4 C 0.2215(2) 0.6679(2) 0.7755(2)
H3 H 0.1541 0.6831 0.7992
C5 C 0.3084(2) 0.7179(2) 0.8087(2)
H4 H 0.3004 0.7665 0.8559
C6 C 0.4065(2) 0.6978(2) 0.7738(2)
H5 H 0.4658 0.7329 0.7963
C7 C 0.6150(2) 0.71322(18) 0.64187(18)
C8 C 0.6701(2) 0.7571(2) 0.71444(18)
H6 H 0.6777 0.7228 0.7714
C9 C 0.7136(2) 0.8511(2) 0.7029(2)
H7 H 0.7513 0.8812 0.7521
C10 C 0.7024(2) 0.9008(2) 0.62045(19)
H8 H 0.7312 0.9656 0.6133
C11 C 0.6493(2) 0.8568(2) 0.5479(2)
H9 H 0.6431 0.8910 0.4907
C12 C 0.6051(2) 0.7633(2) 0.55822(19)
H10 H 0.5682 0.7335 0.5085
C13 C 0.6184(2) 0.5281(2) 0.74723(18)
C14 C 0.7242(2) 0.5086(2) 0.73136(19)
H11 H 0.7578 0.5356 0.6785
C15 C 0.7796(2) 0.4504(2) 0.7924(2)
H12 H 0.8510 0.4354 0.7810
C16 C 0.7304(3) 0.4138(3) 0.8707(2)
H13 H 0.7687 0.3742 0.9134
C17 C 0.6266(3) 0.4343(3) 0.8873(2)
H14 H 0.5940 0.4095 0.9416
C18 C 0.5696(2) 0.4910(2) 0.82533(19)
H15 H 0.4977 0.5043 0.8362
C19 C 0.5363(2) 0.52615(18) 0.55795(17)
C20 C 0.5928(2) 0.4376(2) 0.5492(2)
H16 H 0.6356 0.4151 0.5986
C21 C 0.5864(3) 0.3824(2) 0.4684(2)
H17 H 0.6239 0.3215 0.4628
C22 C 0.5257(2) 0.4161(2) 0.39650(19)
H18 H 0.5227 0.3791 0.3407
C23 C 0.4692(2) 0.50331(19) 0.40480(18)
H19 H 0.4268 0.5254 0.3549
C24 C 0.4737(2) 0.55907(19) 0.48554(17)
H20 H 0.4345 0.6190 0.4912
Cu1 Cu 0.50274(3) 0.09989(2) 0.39858(2)
N1 N 0.5245(2) 0.17433(17) 0.27500(16)
N2 N 0.5541(3) 0.27550(19) 0.13528(16)
N3 N 0.53432(19) 0.45741(18) 0.12412(16)
N4 N 0.4065(2) 0.1838(2) 0.4730(2)
N5 N 0.3303(2) 0.3264(3) 0.5561(2)
N6 N 0.1536(2) 0.3955(2) 0.54821(18)
C25 C 0.5369(2) 0.2252(2) 0.2121(2)
C26 C 0.5425(2) 0.3722(2) 0.13384(17)
C27 C 0.3659(2) 0.2495(3) 0.5103(2)
C28 C 0.2353(3) 0.3595(2) 0.54799(19)
Cu1B Cu 0.49726(3) 0.59989(2) 0.10142(2)
Cu1C Cu 0.00274(3) 0.40011(2) 0.60142(2)
N3B N 0.46568(19) -0.04259(18) 0.37588(16)
N6C N 0.6536(2) 0.1045(2) 0.45179(18)
loop_
_geom_bond_atom_site_label_1
_geom_bond_atom_site_label_2
_geom_bond_site_symmetry_1
_geom_bond_site_symmetry_2
P1 C1 1_555 1_555
C1 C2 1_555 1_555
C2 H1 1_555 1_555
C3 C2 1_555 1_555
H2 C3 1_555 1_555
C4 C3 1_555 1_555
H3 C4 1_555 1_555
C5 C4 1_555 1_555
H4 C5 1_555 1_555
C6 C1 1_555 1_555
H5 C6 1_555 1_555
C7 P1 1_555 1_555
C8 C7 1_555 1_555
H6 C8 1_555 1_555
C9 C8 1_555 1_555
H7 C9 1_555 1_555
C10 C9 1_555 1_555
H8 C10 1_555 1_555
C11 C10 1_555 1_555
H9 C11 1_555 1_555
C12 C7 1_555 1_555
H10 C12 1_555 1_555
C13 P1 1_555 1_555
C14 C13 1_555 1_555
H11 C14 1_555 1_555
C15 C14 1_555 1_555
H12 C15 1_555 1_555
C16 C15 1_555 1_555
H13 C16 1_555 1_555
C17 C16 1_555 1_555
H14 C17 1_555 1_555
C18 C13 1_555 1_555
H15 C18 1_555 1_555
C19 P1 1_555 1_555
C20 C19 1_555 1_555
H16 C20 1_555 1_555
C21 C20 1_555 1_555
H17 C21 1_555 1_555
C22 C21 1_555 1_555
H18 C22 1_555 1_555
C23 C22 1_555 1_555
H19 C23 1_555 1_555
C24 C19 1_555 1_555
H20 C24 1_555 1_555
Cu1 N1 1_555 1_555
N1 C25 1_555 1_555
N2 C25 1_555 1_555
N3 C26 1_555 1_555
N4 Cu1 1_555 1_555
N5 C27 1_555 1_555
N6 C28 1_555 1_555
C26 N2 1_555 1_555
C27 N4 1_555 1_555
C28 N5 1_555 1_555
Cu1B N3 1_555 1_555
Cu1C N6 1_555 1_555
N3B Cu1 1_555 1_555
N6C Cu1 1_555 1_555
C5 C6 1_555 1_555
C11 C12 1_555 1_555
C17 C18 1_555 1_555
C23 C24 1_555 1_555

#END
