
#######################################################################
#
#                 Cambridge Crystallographic Data Centre
#                                CCDC 
#
#######################################################################
#
# If this CIF has been generated from an entry in the Cambridge 
# Structural Database, then it will include bibliographic, chemical, 
# crystal, experimental, refinement or atomic coordinate data resulting 
# from the CCDC's data processing and validation procedures.
#
#######################################################################

data_HIFNUG
_symmetry_cell_setting           triclinic
_symmetry_space_group_name_H-M   'P -1'
_symmetry_Int_Tables_number      2
_space_group_name_Hall           '-P 1'
loop_
_symmetry_equiv_pos_site_id
_symmetry_equiv_pos_as_xyz
1 x,y,z
2 -x,-y,-z
_cell_length_a                   7.4829(9)
_cell_length_b                   8.4881(10)
_cell_length_c                   10.9267(10)
_cell_angle_alpha                67.172(9)
_cell_angle_beta                 88.971(8)
_cell_angle_gamma                67.092(8)
_cell_volume                     581.926
loop_
_atom_site_label
_atom_site_type_symbol
_atom_site_fract_x
_atom_site_fract_y
_atom_site_fract_z
Ag1 Ag 0.24328(5) 0.14112(4) 0.37790(3)
Ag2 Ag 0.59227(4) -0.32127(4) 0.43271(2)
S1 S 0.32180(12) -0.24191(11) 0.66688(8)
O1 O 0.3808(5) -0.0890(5) 0.5889(3)
O2 O 0.3857(5) -0.3841(5) 0.6118(3)
O3 O 0.1108(5) -0.1699(5) 0.6647(4)
O4 O 0.4216(5) -0.3253(5) 0.8057(3)
N1 N 0.2939(4) 0.0364(4) 0.2016(3)
N2 N 0.4177(4) -0.1429(4) 0.2298(3)
N3 N -0.0995(4) 0.5385(4) -0.3213(3)
N4 N -0.1510(4) 0.4752(4) -0.4047(3)
C1 C 0.1905(5) 0.1462(4) 0.0795(3)
H3 H 0.1014 0.2726 0.0622
C2 C 0.2035(5) 0.0883(4) -0.0265(3)
C3 C 0.3267(5) -0.0967(4) 0.0042(3)
H4 H 0.3410 -0.1476 -0.0618
C4 C 0.4299(5) -0.2075(4) 0.1352(3)
H5 H 0.5140 -0.3370 0.1581
C5 C 0.0196(5) 0.4157(5) -0.2055(3)
H6 H 0.0603 0.4630 -0.1495
C6 C 0.0885(5) 0.2205(4) -0.1616(3)
C7 C 0.0423(5) 0.1582(4) -0.2510(3)
H7 H 0.0911 0.0265 -0.2299
C8 C -0.0771(5) 0.2924(5) -0.3726(3)
H8 H -0.1074 0.2504 -0.4362
Ag1A Ag 0.75672(5) -0.14112(4) 0.62210(3)
Ag1A_2 Ag -0.24328(5) -0.14112(4) 0.62210(3)
Ag1A_3 Ag -0.24328(5) 0.85888(4) -0.37790(3)
Ag2A Ag 0.40773(4) -0.67873(4) 0.56729(2)
Ag2_2 Ag -0.40773(4) 0.67873(4) -0.56729(2)
O1A O 0.6192(5) 0.0890(5) 0.4111(3)
O2A O 0.6143(5) -0.6159(5) 0.3882(3)
O3A O -0.1108(5) 0.1699(5) 0.3353(4)
N3A N 0.0995(4) 0.4615(4) 0.3213(3)
N4_2 N 0.8490(4) -0.5248(4) 0.5953(3)
O5 O 0.2397(5) -0.4842(5) 1.0060(3)
H1 H 0.3002 -0.4375 0.9456
H2 H 0.3140 -0.5394 1.0814
loop_
_geom_bond_atom_site_label_1
_geom_bond_atom_site_label_2
_geom_bond_site_symmetry_1
_geom_bond_site_symmetry_2
Ag1 O1 1_555 1_555
Ag2 O2 1_555 1_555
S1 O1 1_555 1_555
O1 Ag1A 1_555 1_555
O2 S1 1_555 1_555
O3 S1 1_555 1_555
O4 S1 1_555 1_555
O5 H1 1_555 1_555
H2 O5 1_555 1_555
N1 Ag1 1_555 1_555
N2 Ag2 1_555 1_555
N3 N4 1_555 1_555
N4 C8 1_555 1_555
C1 N1 1_555 1_555
H3 C1 1_555 1_555
C2 C1 1_555 1_555
C3 C2 1_555 1_555
H4 C3 1_555 1_555
C4 N2 1_555 1_555
H5 C4 1_555 1_555
C5 N3 1_555 1_555
H6 C5 1_555 1_555
C6 C2 1_555 1_555
C7 C6 1_555 1_555
H7 C7 1_555 1_555
C8 C7 1_555 1_555
H8 C8 1_555 1_555
Ag1A O1A 1_555 1_555
Ag1A_2 O3 1_555 1_555
Ag1A_3 N3 1_555 1_555
Ag2A O2 1_555 1_555
Ag2_2 N4 1_555 1_555
O1A Ag1 1_555 1_555
O2A Ag2 1_555 1_555
O3A Ag1 1_555 1_555
N3A Ag1 1_555 1_555
N4_2 Ag2 1_555 1_555
N1 N2 1_555 1_555
C3 C4 1_555 1_555
C5 C6 1_555 1_555
Ag2A O2A 1_555 1_555

#END
