
#######################################################################
#
#                 Cambridge Crystallographic Data Centre
#                                CCDC 
#
#######################################################################
#
# If this CIF has been generated from an entry in the Cambridge 
# Structural Database, then it will include bibliographic, chemical, 
# crystal, experimental, refinement or atomic coordinate data resulting 
# from the CCDC's data processing and validation procedures.
#
#######################################################################

data_HIFNAM
_symmetry_cell_setting           orthorhombic
_symmetry_space_group_name_H-M   'P c c n'
_symmetry_Int_Tables_number      56
_space_group_name_Hall           '-P 2ab 2ac'
loop_
_symmetry_equiv_pos_site_id
_symmetry_equiv_pos_as_xyz
1 x,y,z
2 1/2-x,1/2-y,z
3 -x,1/2+y,1/2-z
4 1/2+x,-y,1/2-z
5 -x,-y,-z
6 1/2+x,1/2+y,-z
7 x,1/2-y,1/2+z
8 1/2-x,y,1/2+z
_cell_length_a                   11.0883(19)
_cell_length_b                   26.405(5)
_cell_length_c                   6.8010(12)
_cell_angle_alpha                90
_cell_angle_beta                 90
_cell_angle_gamma                90
_cell_volume                     1991.24
loop_
_atom_site_label
_atom_site_type_symbol
_atom_site_fract_x
_atom_site_fract_y
_atom_site_fract_z
Sr1 Sr 0.16049(3) 0.430282(14) 0.17910(6)
O1 O -0.0501(3) 0.45920(12) 0.1695(5)
O2 O -0.2109(3) 0.50677(10) 0.1039(4)
O3 O -0.6236(3) 0.41322(12) 0.0371(5)
O4 O -0.6338(2) 0.38796(11) 0.3461(4)
O5 O -0.5671(3) 0.29302(13) 0.1683(6)
O6 O -0.4305(4) 0.25904(14) 0.3488(7)
O7 O 0.1166(4) 0.33264(14) 0.2162(6)
H1 H 0.1215 0.3163 0.3275
H2 H 0.1372 0.3169 0.1121
N1 N -0.4689(4) 0.29380(14) 0.2489(6)
C1 C -0.1600(4) 0.46541(15) 0.1469(6)
C2 C -0.2415(4) 0.41996(14) 0.1716(6)
C3 C -0.1935(4) 0.37232(16) 0.2071(6)
H3 H -0.1104 0.3682 0.2142
C4 C -0.2679(4) 0.33113(17) 0.2320(7)
H4 H -0.2358 0.2991 0.2548
C5 C -0.3918(4) 0.33818(16) 0.2225(6)
C6 C -0.4433(4) 0.38525(15) 0.1873(6)
C7 C -0.3661(4) 0.42565(15) 0.1598(6)
H5 H -0.3982 0.4574 0.1328
C8 C -0.5774(4) 0.39555(15) 0.1898(6)
Sr1D Sr -0.16049(3) 0.569718(14) -0.17910(6)
Sr1C Sr -0.33951(3) 0.569718(14) 0.32090(6)
Sr1_2 Sr -0.83951(3) 0.430282(14) 0.17910(6)
Sr1G Sr -0.66049(3) 0.430282(14) -0.32090(6)
Sr1G_2 Sr -0.66049(3) 0.430282(14) 0.67910(6)
O2D O 0.2109(3) 0.49323(10) -0.1039(4)
O2C O 0.2891(3) 0.49323(10) 0.3961(4)
O3_2 O 0.3764(3) 0.41322(12) 0.0371(5)
O3G O 0.1236(3) 0.41322(12) 0.5371(5)
O4_2 O 0.3662(2) 0.38796(11) 0.3461(4)
O4G O 0.1338(2) 0.38796(11) -0.1539(4)
loop_
_geom_bond_atom_site_label_1
_geom_bond_atom_site_label_2
_geom_bond_site_symmetry_1
_geom_bond_site_symmetry_2
Sr1 O1 1_555 1_555
O1 C1 1_555 1_555
O2 C1 1_555 1_555
O3 C8 1_555 1_555
O4 C8 1_555 1_555
O5 N1 1_555 1_555
O6 N1 1_555 1_555
O7 Sr1 1_555 1_555
H1 O7 1_555 1_555
H2 O7 1_555 1_555
N1 C5 1_555 1_555
C1 C2 1_555 1_555
C2 C3 1_555 1_555
C3 H3 1_555 1_555
C4 C3 1_555 1_555
H4 C4 1_555 1_555
C5 C4 1_555 1_555
C6 C5 1_555 1_555
C7 C2 1_555 1_555
H5 C7 1_555 1_555
C8 C6 1_555 1_555
Sr1D O2 1_555 1_555
Sr1C O2 1_555 1_555
Sr1_2 O3 1_555 1_555
Sr1G O3 1_555 1_555
Sr1G_2 O4 1_555 1_555
O2D Sr1 1_555 1_555
O2C Sr1 1_555 1_555
O3_2 Sr1 1_555 1_555
O3G Sr1 1_555 1_555
O4_2 Sr1 1_555 1_555
O4G Sr1 1_555 1_555
O4 Sr1_2 1_555 1_555
C6 C7 1_555 1_555

#END
