
#######################################################################
#
#                 Cambridge Crystallographic Data Centre
#                                CCDC 
#
#######################################################################
#
# If this CIF has been generated from an entry in the Cambridge 
# Structural Database, then it will include bibliographic, chemical, 
# crystal, experimental, refinement or atomic coordinate data resulting 
# from the CCDC's data processing and validation procedures.
#
#######################################################################

data_HIFNIU
_symmetry_cell_setting           orthorhombic
_symmetry_space_group_name_H-M   'P c c n'
_symmetry_Int_Tables_number      56
_space_group_name_Hall           '-P 2ab 2ac'
loop_
_symmetry_equiv_pos_site_id
_symmetry_equiv_pos_as_xyz
1 x,y,z
2 1/2-x,1/2-y,z
3 1/2+x,-y,1/2-z
4 -x,1/2+y,1/2-z
5 -x,-y,-z
6 1/2+x,1/2+y,-z
7 1/2-x,y,1/2+z
8 x,1/2-y,1/2+z
_cell_length_a                   12.649(3)
_cell_length_b                   16.258(5)
_cell_length_c                   8.756(3)
_cell_angle_alpha                90
_cell_angle_beta                 90
_cell_angle_gamma                90
_cell_volume                     1800.65
loop_
_atom_site_label
_atom_site_type_symbol
_atom_site_fract_x
_atom_site_fract_y
_atom_site_fract_z
U1 U 0.2500 0.2500 0.34840(4)
O1 O 0.2298(5) 0.1790(3) 0.5953(5)
O2 O 0.1942(5) 0.1071(4) 0.3428(6)
O3 O 0.0999(5) -0.0259(4) 0.7240(7)
H1 H 0.0771 -0.0477 0.8018
O4 O 0.1148(4) 0.2778(4) 0.3522(6)
N1 N 0.1881(6) 0.1030(5) 0.5942(8)
H4 H 0.1709 0.0793 0.6784
C1 C 0.1737(6) 0.0654(5) 0.4631(9)
C2 C 0.1413(6) -0.0197(5) 0.4609(10)
C3 C 0.1064(7) -0.0660(5) 0.5882(10)
C4 C 0.0792(8) -0.1470(6) 0.5736(11)
H5 H 0.0563 -0.1761 0.6589
C5 C 0.0853(9) -0.1868(7) 0.4324(13)
H6 H 0.0659 -0.2418 0.4242
C6 C 0.1200(9) -0.1447(7) 0.3048(13)
H7 H 0.1246 -0.1711 0.2109
C7 C 0.1478(8) -0.0628(6) 0.3186(10)
H8 H 0.1714 -0.0348 0.2326
U1F U 0.2500 0.2500 0.84840(4)
U1F_2 U 0.2500 0.2500 -0.15160(4)
O1F O 0.2702(5) 0.1790(3) 0.0953(5)
O1G O 0.2298(5) 0.3210(3) 0.0953(5)
O1A O 0.2702(5) 0.3210(3) 0.5953(5)
O2F O 0.3058(5) 0.1071(4) -0.1572(6)
O2A O 0.3058(5) 0.3929(4) 0.3428(6)
O3F O 0.4001(5) -0.0259(4) 0.2240(7)
H1F H 0.4229 -0.0477 0.3018
O4A O 0.3852(4) 0.2222(4) 0.3522(6)
N1F N 0.3119(6) 0.1030(5) 0.0942(8)
H4F H 0.3291 0.0793 0.1784
C1F C 0.3263(6) 0.0654(5) -0.0369(9)
C2F C 0.3587(6) -0.0197(5) -0.0391(10)
C3F C 0.3936(7) -0.0660(5) 0.0882(10)
C4F C 0.4208(8) -0.1470(6) 0.0736(11)
H5F H 0.4437 -0.1761 0.1589
C5F C 0.4147(9) -0.1868(7) -0.0676(13)
H6F H 0.4341 -0.2418 -0.0758
C6F C 0.3800(9) -0.1447(7) -0.1952(13)
H7F H 0.3754 -0.1711 -0.2891
C7F C 0.3522(8) -0.0628(6) -0.1814(10)
H8F H 0.3286 -0.0348 -0.2674
O5 O 0.0340(7) 0.4054(6) 0.5740(9)
H2 H 0.0442 0.3734 0.5057
H3 H 0.0706 0.3822 0.6421
loop_
_geom_bond_atom_site_label_1
_geom_bond_atom_site_label_2
_geom_bond_site_symmetry_1
_geom_bond_site_symmetry_2
U1 O1 1_555 1_555
O1 N1 1_555 1_555
O2 U1 1_555 1_555
O3 H1 1_555 1_555
O4 U1 1_555 1_555
O5 H2 1_555 1_555
H3 O5 1_555 1_555
N1 H4 1_555 1_555
C1 O2 1_555 1_555
C2 C1 1_555 1_555
C3 O3 1_555 1_555
C4 C3 1_555 1_555
H5 C4 1_555 1_555
C5 C4 1_555 1_555
H6 C5 1_555 1_555
C6 C5 1_555 1_555
H7 C6 1_555 1_555
C7 C2 1_555 1_555
H8 C7 1_555 1_555
U1F O1 1_555 1_555
U1F_2 O1F 1_555 1_555
O1F U1 1_555 1_555
O1G U1 1_555 1_555
O1A U1 1_555 1_555
O2F U1F_2 1_555 1_555
O2A U1 1_555 1_555
O3F H1F 1_555 1_555
O4A U1 1_555 1_555
N1F O1F 1_555 1_555
H4F N1F 1_555 1_555
C1F O2F 1_555 1_555
C2F C1F 1_555 1_555
C3F O3F 1_555 1_555
C4F C3F 1_555 1_555
H5F C4F 1_555 1_555
C5F C4F 1_555 1_555
H6F C5F 1_555 1_555
C6F C5F 1_555 1_555
H7F C6F 1_555 1_555
C7F C2F 1_555 1_555
H8F C7F 1_555 1_555
N1 C1 1_555 1_555
C2 C3 1_555 1_555
C6 C7 1_555 1_555
U1F O1A 1_555 1_555
U1F_2 O1G 1_555 1_555
N1F C1F 1_555 1_555
C2F C3F 1_555 1_555
C6F C7F 1_555 1_555

#END
