
#######################################################################
#
#                 Cambridge Crystallographic Data Centre
#                                CCDC 
#
#######################################################################
#
# If this CIF has been generated from an entry in the Cambridge 
# Structural Database, then it will include bibliographic, chemical, 
# crystal, experimental, refinement or atomic coordinate data resulting 
# from the CCDC's data processing and validation procedures.
#
#######################################################################

data_HIFPAO
_symmetry_cell_setting           triclinic
_symmetry_space_group_name_H-M   'P -1'
_symmetry_Int_Tables_number      2
_space_group_name_Hall           '-P 1'
loop_
_symmetry_equiv_pos_site_id
_symmetry_equiv_pos_as_xyz
1 x,y,z
2 -x,-y,-z
_cell_length_a                   8.3733(2)
_cell_length_b                   8.7790(2)
_cell_length_c                   8.9006(3)
_cell_angle_alpha                85.927(1)
_cell_angle_beta                 74.334(2)
_cell_angle_gamma                68.816(1)
_cell_volume                     587.144
loop_
_atom_site_label
_atom_site_type_symbol
_atom_site_fract_x
_atom_site_fract_y
_atom_site_fract_z
Ag1 Ag 0.07035(3) 0.18878(2) 0.94153(2)
Ag2 Ag -0.28240(3) 0.54277(2) 1.13337(2)
S1 S -0.30795(8) 0.19361(7) 1.16179(7)
O1 O -0.3774(3) 0.3123(3) 1.2919(3)
O2 O -0.2782(4) 0.2831(4) 1.0180(4)
O3 O -0.4309(3) 0.1139(3) 1.1568(3)
O4 O -0.1358(3) 0.0738(2) 1.1732(3)
O5 O -0.5196(3) 0.8361(3) 1.1652(3)
H1 H -0.4839 0.9161 1.1582
H2 H -0.5500 0.8303 1.0827
N1 N 0.1473(3) 0.2654(3) 0.6831(2)
N2 N 0.2176(3) 0.3877(2) 0.6554(2)
N3 N 0.1374(3) 0.2687(2) 0.1496(2)
N4 N 0.2034(3) 0.3934(2) 0.1233(2)
C1 C 0.1206(4) 0.2018(3) 0.5682(3)
H5 H 0.0779 0.1125 0.5884
C2 C 0.1528(3) 0.2603(3) 0.4140(3)
C3 C 0.2201(3) 0.3845(3) 0.3869(2)
C4 C 0.2548(3) 0.4426(3) 0.5148(3)
H6 H 0.3074 0.5251 0.4975
C5 C 0.1145(3) 0.2040(3) 0.2870(3)
H7 H 0.0704 0.1156 0.3025
C6 C 0.2440(3) 0.4481(3) 0.2353(3)
H8 H 0.2916 0.5342 0.2140
Ag1A Ag -0.07035(3) -0.18878(2) 1.05847(2)
Ag1_2 Ag 0.07035(3) 0.18878(2) -0.05847(2)
Ag2A Ag 0.28240(3) 0.45723(2) 0.86663(2)
Ag2A_2 Ag 0.28240(3) 0.45723(2) -0.13337(2)
O4A O 0.1358(3) -0.0738(2) 0.8268(3)
N2A N -0.2176(3) 0.6123(2) 1.3446(2)
N3_2 N 0.1374(3) 0.2687(2) 1.1496(2)
N4A N -0.2034(3) 0.6066(2) 0.8767(2)
O6 O 0.2345(4) 0.8173(3) 0.4422(3)
H3 H 0.2755 0.7989 0.5218
H4 H 0.3197 0.8088 0.3615
loop_
_geom_bond_atom_site_label_1
_geom_bond_atom_site_label_2
_geom_bond_site_symmetry_1
_geom_bond_site_symmetry_2
Ag1 O2 1_555 1_555
Ag2 O1 1_555 1_555
S1 O1 1_555 1_555
O2 Ag2 1_555 1_555
O3 S1 1_555 1_555
O4 Ag1 1_555 1_555
O5 Ag2 1_555 1_555
H1 O5 1_555 1_555
H2 O5 1_555 1_555
O6 H3 1_555 1_555
H4 O6 1_555 1_555
N1 Ag1 1_555 1_555
N2 N1 1_555 1_555
N3 N4 1_555 1_555
N4 C6 1_555 1_555
C1 N1 1_555 1_555
H5 C1 1_555 1_555
C2 C1 1_555 1_555
C3 C2 1_555 1_555
C4 N2 1_555 1_555
H6 C4 1_555 1_555
C5 N3 1_555 1_555
H7 C5 1_555 1_555
C6 C3 1_555 1_555
H8 C6 1_555 1_555
Ag1A O4 1_555 1_555
Ag1_2 N3 1_555 1_555
Ag2A N2 1_555 1_555
Ag2A_2 N4 1_555 1_555
O4A Ag1 1_555 1_555
N2A Ag2 1_555 1_555
N3_2 Ag1 1_555 1_555
N4A Ag2 1_555 1_555
S1 O2 1_555 1_555
S1 O4 1_555 1_555
C2 C5 1_555 1_555
C3 C4 1_555 1_555
Ag1A O4A 1_555 1_555

#END
