
#######################################################################
#
#                 Cambridge Crystallographic Data Centre
#                                CCDC 
#
#######################################################################
#
# If this CIF has been generated from an entry in the Cambridge 
# Structural Database, then it will include bibliographic, chemical, 
# crystal, experimental, refinement or atomic coordinate data resulting 
# from the CCDC's data processing and validation procedures.
#
#######################################################################

data_HIFPOC
_symmetry_cell_setting           triclinic
_symmetry_space_group_name_H-M   'P -1'
_symmetry_Int_Tables_number      2
_space_group_name_Hall           '-P 1'
loop_
_symmetry_equiv_pos_site_id
_symmetry_equiv_pos_as_xyz
1 x,y,z
2 -x,-y,-z
_cell_length_a                   9.2104(18)
_cell_length_b                   9.4058(19)
_cell_length_c                   10.225(2)
_cell_angle_alpha                75.00(3)
_cell_angle_beta                 75.50(3)
_cell_angle_gamma                75.15(3)
_cell_volume                     810.815
loop_
_atom_site_label
_atom_site_type_symbol
_atom_site_fract_x
_atom_site_fract_y
_atom_site_fract_z
Cu1 Cu 0.99060(2) 0.28496(2) 0.760656(19)
O1 O 0.82828(14) 0.39380(14) 0.65881(13)
O2 O 0.87040(17) 0.23022(17) 0.52356(18)
O3 O 0.86216(15) 0.62072(16) 0.38431(15)
O4 O 0.6880(2) 0.81088(18) 0.4609(2)
O5 O 0.82726(14) 0.19069(13) 0.89632(13)
O6 O 0.89454(15) -0.02207(15) 0.81841(15)
O7 O 0.85090(14) -0.16153(13) 1.13541(13)
O8 O 0.76112(9) -0.35098(8) 1.10985(9)
O9 O 0.94149(9) 0.47204(8) 0.87716(9)
H1 H 1.0286 0.4582 0.8906
H2 H 0.9194 0.5575 0.8319
H7 H 0.558(2) 0.240(2) 0.577(2)
H8 H 0.533(3) 0.228(3) 0.849(3)
C1 C 0.64694(18) 0.42790(18) 0.52429(16)
C2 C 0.61244(18) 0.58413(18) 0.47858(16)
C3 C 0.53356(19) 0.34628(18) 0.54472(17)
C4 C 0.79612(19) 0.34382(18) 0.56803(18)
C5 C 0.7308(2) 0.6809(2) 0.44002(18)
C6 C 0.64671(18) 0.03331(17) 0.95351(16)
C7 C 0.62665(18) -0.10337(18) 1.04381(17)
C8 C 0.51940(19) 0.13567(18) 0.91228(17)
C9 C 0.80334(18) 0.06731(18) 0.88627(16)
C10 C 0.75727(18) -0.21590(18) 1.09961(17)
Cu1A Cu 0.00940(2) 0.71504(2) 0.239344(19)
Cu1A_2 Cu 1.00940(2) 0.71504(2) 0.239344(19)
Cu1A_3 Cu 1.00940(2) -0.28496(2) 1.239344(19)
Cu1_2 Cu -0.00940(2) 0.28496(2) 0.760656(19)
Cu1A_4 Cu 0.00940(2) -0.28496(2) 1.239344(19)
O1A O 0.17172(14) 0.60620(14) 0.34119(13)
O2A O 0.12960(17) 0.76978(17) 0.47644(18)
O3A O 0.13784(15) 0.37928(16) 0.61569(15)
O3A_2 O 1.13784(15) 0.37928(16) 0.61569(15)
O3_2 O -0.13784(15) 0.62072(16) 0.38431(15)
O4A O 0.3120(2) 0.18912(18) 0.5391(2)
O5A O 0.17274(14) -0.19069(13) 1.10368(13)
O5A_2 O 0.17274(14) 0.80931(13) 0.10368(13)
O6A O 0.10546(15) 0.02207(15) 1.18159(15)
O7A O 0.14910(14) 0.16153(13) 0.86459(13)
O7A_2 O 1.14910(14) 0.16153(13) 0.86459(13)
O7_2 O -0.14910(14) 0.83847(13) 0.13541(13)
O8A O 0.23888(9) 0.35098(8) 0.89015(9)
O9A O 0.05851(9) 0.52796(8) 0.12284(9)
H1A H -0.0286 0.5418 0.1094
H2A H 0.0806 0.4425 0.1681
H7A H 0.442(2) 0.760(2) 0.423(2)
H8A H 0.467(3) -0.228(3) 1.151(3)
C1A C 0.35306(18) 0.57210(18) 0.47571(16)
C2A C 0.38756(18) 0.41587(18) 0.52142(16)
C3A C 0.46644(19) 0.65372(18) 0.45528(17)
C4A C 0.20388(19) 0.65618(18) 0.43197(18)
C5A C 0.2692(2) 0.3191(2) 0.55998(18)
C6A C 0.35329(18) -0.03331(17) 1.04649(16)
C7A C 0.37335(18) 0.10337(18) 0.95619(17)
C8A C 0.48060(19) -0.13567(18) 1.08772(17)
C9A C 0.19666(18) -0.06731(18) 1.11373(16)
C10A C 0.24273(18) 0.21590(18) 0.90039(17)
O10 O 0.61525(9) 0.58506(8) 0.81357(9)
H3 H 0.6615 0.5221 0.7671
H4 H 0.6552 0.6587 0.7856
O11 O 0.84307(9) -0.24462(8) 0.71957(9)
H5 H 0.8398 -0.1712 0.7502
H6 H 0.8508 -0.2220 0.6355
N1 N 0.8196(2) 1.05301(19) 0.35928(19)
N2 N 0.6913(2) 1.3824(2) 0.08747(19)
H9 H 0.710(3) 1.340(3) 0.019(3)
H10 H 0.783(3) 0.977(3) 0.401(3)
H11 H 0.616(3) 1.172(3) 0.317(3)
H12 H 0.711(3) 1.098(3) 0.201(3)
H13 H 0.909(3) 1.030(3) 0.315(3)
H14 H 0.834(3) 1.100(3) 0.415(3)
H15 H 0.582(4) 1.399(3) 0.120(3)
H16 H 0.876(3) 1.268(3) 0.152(3)
H17 H 0.776(3) 1.354(3) 0.257(3)
H18 H 0.713(3) 1.468(3) 0.052(3)
C11 C 0.7189(2) 1.1511(2) 0.2652(2)
C12 C 0.7802(2) 1.2927(2) 0.1939(2)
loop_
_geom_bond_atom_site_label_1
_geom_bond_atom_site_label_2
_geom_bond_site_symmetry_1
_geom_bond_site_symmetry_2
Cu1 O1 1_555 1_555
O1 C4 1_555 1_555
O2 C4 1_555 1_555
O3 C5 1_555 1_555
O4 C5 1_555 1_555
O5 Cu1 1_555 1_555
O6 C9 1_555 1_555
O7 C10 1_555 1_555
O8 C10 1_555 1_555
O9 Cu1 1_555 1_555
H1 O9 1_555 1_555
H2 O9 1_555 1_555
O10 H3 1_555 1_555
H4 O10 1_555 1_555
O11 H5 1_555 1_555
H6 O11 1_555 1_555
N1 H10 1_555 1_555
N2 H9 1_555 1_555
H7 C3 1_555 1_555
H8 C8 1_555 1_555
H11 C11 1_555 1_555
H12 C11 1_555 1_555
H13 N1 1_555 1_555
H14 N1 1_555 1_555
H15 N2 1_555 1_555
H16 C12 1_555 1_555
H17 C12 1_555 1_555
H18 N2 1_555 1_555
C1 C2 1_555 1_555
C2 C5 1_555 1_555
C3 C1 1_555 1_555
C4 C1 1_555 1_555
C6 C7 1_555 1_555
C7 C10 1_555 1_555
C8 C6 1_555 1_555
C9 O5 1_555 1_555
C11 N1 1_555 1_555
C12 N2 1_555 1_555
Cu1A O1A 1_555 1_555
Cu1A_2 O3 1_555 1_555
Cu1A_3 O7 1_555 1_555
Cu1_2 O3A 1_555 1_555
Cu1A_4 O5A 1_555 1_555
O1A C4A 1_555 1_555
O2A C4A 1_555 1_555
O3A C5A 1_555 1_555
O3A_2 Cu1 1_555 1_555
O3_2 Cu1A 1_555 1_555
O4A C5A 1_555 1_555
O5A C9A 1_555 1_555
O5A_2 Cu1A 1_555 1_555
O6A C9A 1_555 1_555
O7A Cu1_2 1_555 1_555
O7A_2 Cu1 1_555 1_555
O7_2 Cu1A 1_555 1_555
O8A C10A 1_555 1_555
O9A Cu1A 1_555 1_555
H1A O9A 1_555 1_555
H2A O9A 1_555 1_555
H7A C3A 1_555 1_555
H8A C8A 1_555 1_555
C1A C2A 1_555 1_555
C2A C3 1_555 1_555
C3A C2 1_555 1_555
C4A C1A 1_555 1_555
C5A C2A 1_555 1_555
C6A C7A 1_555 1_555
C7A C8 1_555 1_555
C8A C7 1_555 1_555
C9A C6A 1_555 1_555
C10A O7A 1_555 1_555
C6 C9 1_555 1_555
C11 C12 1_555 1_555
C1A C3A 1_555 1_555
C6A C8A 1_555 1_555
C7A C10A 1_555 1_555

#END
