
#######################################################################
#
#                 Cambridge Crystallographic Data Centre
#                                CCDC 
#
#######################################################################
#
# If this CIF has been generated from an entry in the Cambridge 
# Structural Database, then it will include bibliographic, chemical, 
# crystal, experimental, refinement or atomic coordinate data resulting 
# from the CCDC's data processing and validation procedures.
#
#######################################################################

data_HIFPUI
_symmetry_cell_setting           monoclinic
_symmetry_space_group_name_H-M   'C 2/m'
_symmetry_Int_Tables_number      12
_space_group_name_Hall           '-C 2y'
loop_
_symmetry_equiv_pos_site_id
_symmetry_equiv_pos_as_xyz
1 x,y,z
2 1/2+x,1/2+y,z
3 -x,y,-z
4 1/2-x,1/2+y,-z
5 -x,-y,-z
6 1/2-x,1/2-y,-z
7 x,-y,z
8 1/2+x,1/2-y,z
_cell_length_a                   11.432(2)
_cell_length_b                   18.484(4)
_cell_length_c                   7.4981(15)
_cell_angle_alpha                90
_cell_angle_beta                 94.80(3)
_cell_angle_gamma                90
_cell_volume                     1578.86
loop_
_atom_site_label
_atom_site_type_symbol
_atom_site_fract_x
_atom_site_fract_y
_atom_site_fract_z
Cu1 Cu 0.5000 0.24370(2) 0.0000
O1 O 0.38012(15) 0.31920(9) -0.0158(3)
O2 O 0.43585(16) 0.35615(10) 0.2638(3)
O3 O 0.11508(17) 0.34645(11) -0.2347(3)
O4 O 0.11590(15) 0.33154(9) 0.0613(3)
C1 C 0.3188(2) 0.43453(13) 0.0677(4)
C2 C 0.3706(3) 0.5000 0.1202(5)
H1 H 0.4412 0.5000 0.1916
C3 C 0.2109(2) 0.43458(13) -0.0378(4)
C4 C 0.1581(3) 0.5000 -0.0900(5)
H2 H 0.0871 0.5000 -0.1602
C5 C 0.3825(2) 0.36478(13) 0.1125(4)
C6 C 0.1439(2) 0.36512(13) -0.0789(4)
Cu1G Cu 0.0000 0.25630(2) 0.0000
Cu1A Cu 0.0000 0.74370(2) 0.0000
Cu1F Cu 0.5000 0.75630(2) 0.0000
O1F O 0.38012(15) 0.68080(9) -0.0158(3)
O1B O 0.61988(15) 0.31920(9) 0.0158(3)
O2F O 0.43585(16) 0.64385(10) 0.2638(3)
O3F O 0.11508(17) 0.65355(11) -0.2347(3)
O4F O 0.11590(15) 0.66846(9) 0.0613(3)
O4G O 0.61590(15) 0.16846(9) 0.0613(3)
O4E O 0.38410(15) 0.16846(9) -0.0613(3)
C1F C 0.3188(2) 0.56547(13) 0.0677(4)
C3F C 0.2109(2) 0.56542(13) -0.0378(4)
C5F C 0.3825(2) 0.63522(13) 0.1125(4)
C6F C 0.1439(2) 0.63488(13) -0.0789(4)
N1 N 0.3215(2) 0.33719(13) 0.5812(3)
H3 H 0.3800 0.3461 0.6641
H4 H 0.2568 0.3595 0.6104
H5 H 0.3405 0.3534 0.4756
C7 C 0.3000(2) 0.25815(15) 0.5702(4)
H6 H 0.2805 0.2403 0.6856
H7 H 0.3706 0.2337 0.5394
N1E N 0.1785(2) 0.16281(13) 0.4188(3)
H3E H 0.1200 0.1539 0.3359
H4E H 0.2432 0.1405 0.3896
H5E H 0.1595 0.1466 0.5244
C7E C 0.2000(2) 0.24185(15) 0.4298(4)
H6E H 0.2195 0.2597 0.3144
H7E H 0.1294 0.2663 0.4606
O5 O 0.1146(3) 0.42380(15) 0.3957(4)
H8 H 0.079(3) 0.408(2) 0.307(3)
H9 H 0.0952(17) 0.3992(18) 0.479(3)
O6 O 0.3683(10) 0.5000 0.5648(15)
H10 H 0.3276 0.4640 0.5763
H10F H 0.3276 0.5360 0.5763
loop_
_geom_bond_atom_site_label_1
_geom_bond_atom_site_label_2
_geom_bond_site_symmetry_1
_geom_bond_site_symmetry_2
Cu1 O1 1_555 1_555
O1 C5 1_555 1_555
O2 C5 1_555 1_555
O3 C6 1_555 1_555
O4 C6 1_555 1_555
C1 C2 1_555 1_555
C2 H1 1_555 1_555
C3 C1 1_555 1_555
C4 C3 1_555 1_555
H2 C4 1_555 1_555
C5 C1 1_555 1_555
C6 C3 1_555 1_555
N1 H3 1_555 1_555
H4 N1 1_555 1_555
H5 N1 1_555 1_555
C7 N1 1_555 1_555
H6 C7 1_555 1_555
H7 C7 1_555 1_555
O5 H8 1_555 1_555
H9 O5 1_555 1_555
O6 H10 1_555 1_555
Cu1G O4 1_555 1_555
Cu1A O4F 1_555 1_555
Cu1F O1F 1_555 1_555
O1F C5F 1_555 1_555
O1B Cu1 1_555 1_555
O2F C5F 1_555 1_555
O3F C6F 1_555 1_555
O4F C6F 1_555 1_555
O4G Cu1 1_555 1_555
O4E Cu1 1_555 1_555
C1F C2 1_555 1_555
C3F C4 1_555 1_555
C5F C1F 1_555 1_555
C6F C3F 1_555 1_555
N1E H3E 1_555 1_555
H4E N1E 1_555 1_555
H5E N1E 1_555 1_555
C7E C7 1_555 1_555
H6E C7E 1_555 1_555
H7E C7E 1_555 1_555
H10F O6 1_555 1_555
C1F C3F 1_555 1_555
N1E C7E 1_555 1_555

#END
