
#######################################################################
#
#                 Cambridge Crystallographic Data Centre
#                                CCDC 
#
#######################################################################
#
# If this CIF has been generated from an entry in the Cambridge 
# Structural Database, then it will include bibliographic, chemical, 
# crystal, experimental, refinement or atomic coordinate data resulting 
# from the CCDC's data processing and validation procedures.
#
#######################################################################

data_HIFPUI01
_symmetry_cell_setting           monoclinic
_symmetry_space_group_name_H-M   'P 21/c'
_symmetry_Int_Tables_number      14
_space_group_name_Hall           '-P 2ybc'
loop_
_symmetry_equiv_pos_site_id
_symmetry_equiv_pos_as_xyz
1 x,y,z
2 -x,1/2+y,1/2-z
3 -x,-y,-z
4 x,1/2-y,1/2+z
_cell_length_a                   7.3937(5)
_cell_length_b                   18.4414(11)
_cell_length_c                   11.3607(7)
_cell_angle_alpha                90
_cell_angle_beta                 94.7830(10)
_cell_angle_gamma                90
_cell_volume                     1543.64
loop_
_atom_site_label
_atom_site_type_symbol
_atom_site_fract_x
_atom_site_fract_y
_atom_site_fract_z
Cu1 Cu 0.98260(3) 0.743122(11) 0.999045(17)
O1 O 1.00080(18) 0.81812(7) 1.12002(11)
O2 O 0.72149(18) 0.85964(7) 1.06384(11)
O3 O 0.95242(17) 1.16759(6) 1.38554(11)
O4 O 1.25174(18) 1.15069(7) 1.38605(12)
O5 O 1.03538(18) 1.18072(7) 1.12061(11)
O6 O 0.75133(18) 1.14655(7) 1.06256(11)
O7 O 0.92059(17) 0.83259(6) 1.38281(11)
O8 O 1.22206(18) 0.84199(7) 1.38507(12)
C1 C 0.8752(2) 0.86592(9) 1.11718(14)
C2 C 0.9277(2) 0.93511(9) 1.18051(14)
C3 C 0.8811(2) 1.00135(9) 1.12768(15)
H1 H 0.8076 1.0025 1.0550
C4 C 1.0934(2) 1.13317(9) 1.35678(15)
C5 C 1.0478(2) 1.06440(9) 1.28902(14)
C6 C 1.0952(2) 0.99801(9) 1.34200(15)
H2 H 1.1693 0.9968 1.4144
C7 C 0.9420(2) 1.06609(9) 1.18101(14)
C8 C 0.9025(2) 1.13636(9) 1.11720(14)
C9 C 1.0668(2) 0.86353(9) 1.35520(14)
C10 C 1.0338(2) 0.93355(9) 1.28862(14)
Cu1A Cu 1.01740(3) 1.243122(11) 1.500955(17)
Cu1B Cu 1.01740(3) 1.256878(11) 1.000955(17)
Cu1C Cu 0.98260(3) 0.756878(11) 1.499045(17)
O3A O 1.04758(17) 0.66759(6) 1.11446(11)
O5B O 0.96462(18) 0.81928(7) 0.87939(11)
O7C O 0.92059(17) 0.66741(6) 0.88281(11)
N1 N 1.5660(2) 0.65943(8) 1.32091(14)
H3 H 1.6629 0.6490 1.3729
H4 H 1.5774 0.6356 1.2518
H5 H 1.4621 0.6450 1.3518
N2 N 1.4052(2) 0.83478(9) 1.17836(14)
H6 H 1.3108 0.8450 1.1243
H7 H 1.5107 0.8500 1.1506
H8 H 1.3887 0.8580 1.2473
C11 C 1.5587(3) 0.73907(10) 1.29853(17)
H9 H 1.6781 0.7563 1.2764
H10 H 1.5303 0.7649 1.3711
C12 C 1.4139(3) 0.75515(10) 1.19949(17)
H11 H 1.4432 0.7299 1.1266
H12 H 1.2948 0.7374 1.2211
O9 O 0.6201(2) 0.42273(8) 0.89555(14)
H13 H 0.5629 0.4100 0.9540
H14 H 0.7244 0.4053 0.8861
O10 O 0.5892(2) 0.57443(9) 0.87753(16)
H15 H 0.5758 0.5287 0.8801
H16 H 0.6951 0.5922 0.8909
O11 O 1.4335(4) 0.99565(15) 1.1305(3)
H17 H 1.3268 1.0023 1.1510
H18 H 1.4755 1.0113 1.0679
loop_
_geom_bond_atom_site_label_1
_geom_bond_atom_site_label_2
_geom_bond_site_symmetry_1
_geom_bond_site_symmetry_2
Cu1 O1 1_555 1_555
O1 C1 1_555 1_555
O2 C1 1_555 1_555
O3 C4 1_555 1_555
O4 C4 1_555 1_555
O5 C8 1_555 1_555
O6 C8 1_555 1_555
O7 C9 1_555 1_555
O8 C9 1_555 1_555
C1 C2 1_555 1_555
C2 C3 1_555 1_555
C3 H1 1_555 1_555
C4 C5 1_555 1_555
C5 C6 1_555 1_555
C6 H2 1_555 1_555
C7 C3 1_555 1_555
C8 C7 1_555 1_555
C9 C10 1_555 1_555
C10 C2 1_555 1_555
N1 H3 1_555 1_555
H4 N1 1_555 1_555
H5 N1 1_555 1_555
N2 H6 1_555 1_555
H7 N2 1_555 1_555
H8 N2 1_555 1_555
C11 N1 1_555 1_555
H9 C11 1_555 1_555
H10 C11 1_555 1_555
C12 N2 1_555 1_555
H11 C12 1_555 1_555
H12 C12 1_555 1_555
O9 H13 1_555 1_555
H14 O9 1_555 1_555
O10 H15 1_555 1_555
H16 O10 1_555 1_555
O11 H17 1_555 1_555
H18 O11 1_555 1_555
Cu1A O3 1_555 1_555
Cu1B O5 1_555 1_555
Cu1C O7 1_555 1_555
O3A Cu1 1_555 1_555
O5B Cu1 1_555 1_555
O7C Cu1 1_555 1_555
C5 C7 1_555 1_555
C6 C10 1_555 1_555
C11 C12 1_555 1_555

#END
