
#######################################################################
#
#                 Cambridge Crystallographic Data Centre
#                                CCDC 
#
#######################################################################
#
# If this CIF has been generated from an entry in the Cambridge 
# Structural Database, then it will include bibliographic, chemical, 
# crystal, experimental, refinement or atomic coordinate data resulting 
# from the CCDC's data processing and validation procedures.
#
#######################################################################

data_HIFTOG03
_symmetry_cell_setting           cubic
_symmetry_space_group_name_H-M   'F m -3 m'
_symmetry_Int_Tables_number      225
_space_group_name_Hall           '-F 4 2 3'
loop_
_symmetry_equiv_pos_site_id
_symmetry_equiv_pos_as_xyz
1 x,y,z
2 -y,x,z
3 -x,-y,z
4 y,-x,z
5 x,-z,y
6 x,-y,-z
7 x,z,-y
8 z,y,-x
9 -x,y,-z
10 -z,y,x
11 z,x,y
12 y,z,x
13 -y,-z,x
14 z,-x,-y
15 -y,z,-x
16 -z,-x,y
17 -z,x,-y
18 y,-z,-x
19 y,x,-z
20 -y,-x,-z
21 -x,z,y
22 -x,-z,-y
23 z,-y,x
24 -z,-y,-x
25 x,1/2+y,1/2+z
26 -y,1/2+x,1/2+z
27 -x,1/2-y,1/2+z
28 y,1/2-x,1/2+z
29 x,1/2-z,1/2+y
30 x,1/2-y,1/2-z
31 x,1/2+z,1/2-y
32 z,1/2+y,1/2-x
33 -x,1/2+y,1/2-z
34 -z,1/2+y,1/2+x
35 z,1/2+x,1/2+y
36 y,1/2+z,1/2+x
37 -y,1/2-z,1/2+x
38 z,1/2-x,1/2-y
39 -y,1/2+z,1/2-x
40 -z,1/2-x,1/2+y
41 -z,1/2+x,1/2-y
42 y,1/2-z,1/2-x
43 y,1/2+x,1/2-z
44 -y,1/2-x,1/2-z
45 -x,1/2+z,1/2+y
46 -x,1/2-z,1/2-y
47 z,1/2-y,1/2+x
48 -z,1/2-y,1/2-x
49 1/2+x,y,1/2+z
50 1/2-y,x,1/2+z
51 1/2-x,-y,1/2+z
52 1/2+y,-x,1/2+z
53 1/2+x,-z,1/2+y
54 1/2+x,-y,1/2-z
55 1/2+x,z,1/2-y
56 1/2+z,y,1/2-x
57 1/2-x,y,1/2-z
58 1/2-z,y,1/2+x
59 1/2+z,x,1/2+y
60 1/2+y,z,1/2+x
61 1/2-y,-z,1/2+x
62 1/2+z,-x,1/2-y
63 1/2-y,z,1/2-x
64 1/2-z,-x,1/2+y
65 1/2-z,x,1/2-y
66 1/2+y,-z,1/2-x
67 1/2+y,x,1/2-z
68 1/2-y,-x,1/2-z
69 1/2-x,z,1/2+y
70 1/2-x,-z,1/2-y
71 1/2+z,-y,1/2+x
72 1/2-z,-y,1/2-x
73 1/2+x,1/2+y,z
74 1/2-y,1/2+x,z
75 1/2-x,1/2-y,z
76 1/2+y,1/2-x,z
77 1/2+x,1/2-z,y
78 1/2+x,1/2-y,-z
79 1/2+x,1/2+z,-y
80 1/2+z,1/2+y,-x
81 1/2-x,1/2+y,-z
82 1/2-z,1/2+y,x
83 1/2+z,1/2+x,y
84 1/2+y,1/2+z,x
85 1/2-y,1/2-z,x
86 1/2+z,1/2-x,-y
87 1/2-y,1/2+z,-x
88 1/2-z,1/2-x,y
89 1/2-z,1/2+x,-y
90 1/2+y,1/2-z,-x
91 1/2+y,1/2+x,-z
92 1/2-y,1/2-x,-z
93 1/2-x,1/2+z,y
94 1/2-x,1/2-z,-y
95 1/2+z,1/2-y,x
96 1/2-z,1/2-y,-x
97 -x,-y,-z
98 y,-x,-z
99 x,y,-z
100 -y,x,-z
101 -x,z,-y
102 -x,y,z
103 -x,-z,y
104 -z,-y,x
105 x,-y,z
106 z,-y,-x
107 -z,-x,-y
108 -y,-z,-x
109 y,z,-x
110 -z,x,y
111 y,-z,x
112 z,x,-y
113 z,-x,y
114 -y,z,x
115 -y,-x,z
116 y,x,z
117 x,-z,-y
118 x,z,y
119 -z,y,-x
120 z,y,x
121 -x,1/2-y,1/2-z
122 y,1/2-x,1/2-z
123 x,1/2+y,1/2-z
124 -y,1/2+x,1/2-z
125 -x,1/2+z,1/2-y
126 -x,1/2+y,1/2+z
127 -x,1/2-z,1/2+y
128 -z,1/2-y,1/2+x
129 x,1/2-y,1/2+z
130 z,1/2-y,1/2-x
131 -z,1/2-x,1/2-y
132 -y,1/2-z,1/2-x
133 y,1/2+z,1/2-x
134 -z,1/2+x,1/2+y
135 y,1/2-z,1/2+x
136 z,1/2+x,1/2-y
137 z,1/2-x,1/2+y
138 -y,1/2+z,1/2+x
139 -y,1/2-x,1/2+z
140 y,1/2+x,1/2+z
141 x,1/2-z,1/2-y
142 x,1/2+z,1/2+y
143 -z,1/2+y,1/2-x
144 z,1/2+y,1/2+x
145 1/2-x,-y,1/2-z
146 1/2+y,-x,1/2-z
147 1/2+x,y,1/2-z
148 1/2-y,x,1/2-z
149 1/2-x,z,1/2-y
150 1/2-x,y,1/2+z
151 1/2-x,-z,1/2+y
152 1/2-z,-y,1/2+x
153 1/2+x,-y,1/2+z
154 1/2+z,-y,1/2-x
155 1/2-z,-x,1/2-y
156 1/2-y,-z,1/2-x
157 1/2+y,z,1/2-x
158 1/2-z,x,1/2+y
159 1/2+y,-z,1/2+x
160 1/2+z,x,1/2-y
161 1/2+z,-x,1/2+y
162 1/2-y,z,1/2+x
163 1/2-y,-x,1/2+z
164 1/2+y,x,1/2+z
165 1/2+x,-z,1/2-y
166 1/2+x,z,1/2+y
167 1/2-z,y,1/2-x
168 1/2+z,y,1/2+x
169 1/2-x,1/2-y,-z
170 1/2+y,1/2-x,-z
171 1/2+x,1/2+y,-z
172 1/2-y,1/2+x,-z
173 1/2-x,1/2+z,-y
174 1/2-x,1/2+y,z
175 1/2-x,1/2-z,y
176 1/2-z,1/2-y,x
177 1/2+x,1/2-y,z
178 1/2+z,1/2-y,-x
179 1/2-z,1/2-x,-y
180 1/2-y,1/2-z,-x
181 1/2+y,1/2+z,-x
182 1/2-z,1/2+x,y
183 1/2+y,1/2-z,x
184 1/2+z,1/2+x,-y
185 1/2+z,1/2-x,y
186 1/2-y,1/2+z,x
187 1/2-y,1/2-x,z
188 1/2+y,1/2+x,z
189 1/2+x,1/2-z,-y
190 1/2+x,1/2+z,y
191 1/2-z,1/2+y,-x
192 1/2+z,1/2+y,x
_cell_length_a                   25.7643(3)
_cell_length_b                   25.7643(3)
_cell_length_c                   25.7643(3)
_cell_angle_alpha                90
_cell_angle_beta                 90
_cell_angle_gamma                90
_cell_volume                     17102.3
loop_
_atom_site_label
_atom_site_type_symbol
_atom_site_fract_x
_atom_site_fract_y
_atom_site_fract_z
Zn1 Zn 0.29340(2) 0.70660(2) 0.20660(2)
O1 O 0.2500 0.7500 0.2500
O2 O 0.28144(12) 0.63393(15) 0.21856(12)
C1 C 0.2824(2) 0.5263(2) 0.2176(2)
C2 C 0.2500 0.6118(3) 0.2500
C3 C 0.2500 0.5540(3) 0.2500
O2DB O 0.21856(12) 0.63393(15) 0.28144(12)
C1DB C 0.2176(2) 0.5263(2) 0.2824(2)
O2SB O 0.28144(12) 0.36607(15) 0.21856(12)
C1SB C 0.2824(2) 0.4737(2) 0.2176(2)
C2V C 0.2500 0.3882(3) 0.2500
C3V C 0.2500 0.4460(3) 0.2500
O2V O 0.21856(12) 0.36607(15) 0.28144(12)
C1V C 0.2176(2) 0.4737(2) 0.2824(2)
Zn1A Zn 0.29340(2) 0.29340(2) 0.20660(2)
O2A O 0.36607(15) 0.28144(12) 0.21856(12)
C1A C 0.4737(2) 0.2824(2) 0.2176(2)
C2A C 0.3882(3) 0.2500 0.2500
C3A C 0.4460(3) 0.2500 0.2500
O2QA O 0.36607(15) 0.21856(12) 0.28144(12)
C1QA C 0.4737(2) 0.2176(2) 0.2824(2)
O2OA O 0.63393(15) 0.28144(12) 0.21856(12)
C1OA C 0.5263(2) 0.2824(2) 0.2176(2)
C2K C 0.6118(3) 0.2500 0.2500
C3K C 0.5540(3) 0.2500 0.2500
O2K O 0.63393(15) 0.21856(12) 0.28144(12)
C1K C 0.5263(2) 0.2176(2) 0.2824(2)
Zn1C Zn 0.70660(2) 0.70660(2) 0.20660(2)
O2C O 0.63393(15) 0.71856(12) 0.21856(12)
C1C C 0.5263(2) 0.7176(2) 0.2176(2)
C2C C 0.6118(3) 0.7500 0.2500
C3C C 0.5540(3) 0.7500 0.2500
O2PA O 0.63393(15) 0.78144(12) 0.28144(12)
C1PA C 0.5263(2) 0.7824(2) 0.2824(2)
O2LA O 0.36607(15) 0.71856(12) 0.21856(12)
C1LA C 0.4737(2) 0.7176(2) 0.2176(2)
C2L C 0.3882(3) 0.7500 0.2500
C3L C 0.4460(3) 0.7500 0.2500
O2L O 0.36607(15) 0.78144(12) 0.28144(12)
C1L C 0.4737(2) 0.7824(2) 0.2824(2)
Zn1L Zn 0.29340(2) 0.79340(2) 0.29340(2)
Zn1B Zn 0.70660(2) 0.29340(2) 0.20660(2)
Zn1F Zn 0.29340(2) 0.20660(2) 0.29340(2)
Zn1K Zn 0.70660(2) 0.20660(2) 0.29340(2)
Zn1M Zn 0.20660(2) 0.70660(2) 0.29340(2)
Zn1U Zn 0.70660(2) 0.79340(2) 0.29340(2)
Zn1V Zn 0.20660(2) 0.29340(2) 0.29340(2)
Zn1HA Zn 0.20660(2) 0.79340(2) 0.20660(2)
O1A O 0.2500 0.2500 0.2500
O1C O 0.7500 0.7500 0.2500
O2BA O 0.28144(12) 0.28144(12) 0.13393(15)
O2CA O 0.28144(12) 0.86607(15) 0.28144(12)
O2RA O 0.71856(12) 0.71856(12) 0.13393(15)
O2CB O 0.71856(12) 0.63393(15) 0.21856(12)
O2KB O 0.28144(12) 0.71856(12) 0.13393(15)
O2JC O 0.28144(12) 0.78144(12) 0.36607(15)
loop_
_geom_bond_atom_site_label_1
_geom_bond_atom_site_label_2
_geom_bond_site_symmetry_1
_geom_bond_site_symmetry_2
Zn1 O1 1_555 1_555
O1 Zn1L 1_555 1_555
O2 Zn1 1_555 1_555
C1 C3 1_555 1_555
C2 O2 1_555 1_555
C3 C2 1_555 1_555
O2DB C2 1_555 1_555
C1DB C3 1_555 1_555
O2SB C2V 1_555 1_555
C1SB C1 1_555 1_555
C2V C3V 1_555 1_555
C3V C1SB 1_555 1_555
O2V C2V 1_555 1_555
C1V C1DB 1_555 1_555
Zn1A O2SB 1_555 1_555
O2A Zn1A 1_555 1_555
C1A C3A 1_555 1_555
C2A O2A 1_555 1_555
C3A C2A 1_555 1_555
O2QA C2A 1_555 1_555
C1QA C3A 1_555 1_555
O2OA C2K 1_555 1_555
C1OA C1A 1_555 1_555
C2K C3K 1_555 1_555
C3K C1OA 1_555 1_555
O2K C2K 1_555 1_555
C1K C1QA 1_555 1_555
Zn1C O2C 1_555 1_555
O2C C2C 1_555 1_555
C1C C3C 1_555 1_555
C2C C3C 1_555 1_555
C3C C1PA 1_555 1_555
O2PA C2C 1_555 1_555
C1PA C1L 1_555 1_555
O2LA Zn1 1_555 1_555
C1LA C1C 1_555 1_555
C2L O2LA 1_555 1_555
C3L C1LA 1_555 1_555
O2L C2L 1_555 1_555
C1L C3L 1_555 1_555
Zn1L O2L 1_555 1_555
Zn1B O2OA 1_555 1_555
Zn1F O2QA 1_555 1_555
Zn1K O2K 1_555 1_555
Zn1M O1 1_555 1_555
Zn1U O2PA 1_555 1_555
Zn1V O2V 1_555 1_555
Zn1HA O1 1_555 1_555
O1A Zn1A 1_555 1_555
O1C Zn1C 1_555 1_555
O2BA Zn1A 1_555 1_555
O2CA Zn1L 1_555 1_555
O2RA Zn1C 1_555 1_555
O2CB Zn1C 1_555 1_555
O2KB Zn1 1_555 1_555
O2JC Zn1L 1_555 1_555
O2DB Zn1M 1_555 1_555
C3V C1V 1_555 1_555
C3K C1K 1_555 1_555
C2L C3L 1_555 1_555
Zn1F O1A 1_555 1_555
Zn1U O1C 1_555 1_555
Zn1V O1A 1_555 1_555

#END
