
#######################################################################
#
#                 Cambridge Crystallographic Data Centre
#                                CCDC 
#
#######################################################################
#
# If this CIF has been generated from an entry in the Cambridge 
# Structural Database, then it will include bibliographic, chemical, 
# crystal, experimental, refinement or atomic coordinate data resulting 
# from the CCDC's data processing and validation procedures.
#
#######################################################################

data_HIFVAV
_symmetry_cell_setting           monoclinic
_symmetry_space_group_name_H-M   'C 2/m'
_symmetry_Int_Tables_number      12
_space_group_name_Hall           '-C 2y'
loop_
_symmetry_equiv_pos_site_id
_symmetry_equiv_pos_as_xyz
1 x,y,z
2 1/2+x,1/2+y,z
3 -x,y,-z
4 1/2-x,1/2+y,-z
5 -x,-y,-z
6 1/2-x,1/2-y,-z
7 x,-y,z
8 1/2+x,1/2-y,z
_cell_length_a                   19.2613(6)
_cell_length_b                   6.8059(2)
_cell_length_c                   13.9284(7)
_cell_angle_alpha                90
_cell_angle_beta                 132.9070(10)
_cell_angle_gamma                90
_cell_volume                     1337.38
loop_
_atom_site_label
_atom_site_type_symbol
_atom_site_fract_x
_atom_site_fract_y
_atom_site_fract_z
Au1 Au 0.300733(10) 0.5000 0.488778(12)
Cu1 Cu 0.0000 0.5000 0.0000
Cl1 Cl 0.22719(7) 0.5000 0.56602(9)
Cl2 Cl 0.37821(9) 0.5000 0.41837(11)
N1 N 0.4959(3) 0.5000 0.7789(4)
N2 N 0.1059(3) 0.5000 0.1948(3)
N3 N 0.0000 0.2046(5) 0.0000
N4 N -0.1250(3) 0.5000 0.0043(4)
C1 C 0.4246(3) 0.5000 0.6723(4)
C2 C 0.1754(3) 0.5000 0.3024(3)
C3 C -0.08130(19) 0.1014(4) -0.0721(2)
C4 C -0.2016(3) 0.5000 -0.0400(4)
C5 C -0.2989(4) 0.500000(7) -0.0984(5)
H1 H -0.1384 0.1730 -0.1231
H2 H -0.2998 0.5000 -0.0311
H3 H -0.3303 0.6140 -0.1512
N3D N 0.0000 -0.2046(5) 0.0000
C3F C -0.08130(19) -0.1014(4) -0.0721(2)
H1F H -0.1384 -0.1730 -0.1231
C3B C 0.08130(19) 0.1014(4) 0.0721(2)
H1B H 0.1384 0.1730 0.1231
C3D C 0.08130(19) -0.1014(4) 0.0721(2)
H1D H 0.1384 -0.1730 0.1231
H3F H -0.3303 0.3860 -0.1512
Au1D Au -0.300733(10) 0.5000 -0.488778(12)
Cl1D Cl -0.22719(7) 0.5000 -0.56602(9)
Cl2D Cl -0.37821(9) 0.5000 -0.41837(11)
N1D N -0.4959(3) 0.5000 -0.7789(4)
N2D N -0.1059(3) 0.5000 -0.1948(3)
N4D N 0.1250(3) 0.5000 -0.0043(4)
C1D C -0.4246(3) 0.5000 -0.6723(4)
C2D C -0.1754(3) 0.5000 -0.3024(3)
C4D C 0.2016(3) 0.5000 0.0400(4)
C5D C 0.2989(4) 0.500000(7) 0.0984(5)
H2D H 0.2998 0.5000 0.0311
H3B H 0.3303 0.6140 0.1512
H3D H 0.3303 0.3860 0.1512
Cu1_2 Cu 0.0000 -0.5000 0.0000
N3D_2 N 0.0000 0.7954(5) 0.0000
N5 N 0.3040(3) 0.0000 0.2147(5)
C6 C 0.3826(4) 0.0000 0.2752(5)
C7 C 0.4841(4) 0.000000(7) 0.3524(7)
H4 H 0.5175 0.0000 0.4431
H5 H 0.5004 0.1287 0.3321
H5F H 0.5004 -0.1287 0.3321
loop_
_geom_bond_atom_site_label_1
_geom_bond_atom_site_label_2
_geom_bond_site_symmetry_1
_geom_bond_site_symmetry_2
Au1 Cl1 1_555 1_555
Cu1 N2 1_555 1_555
Cl2 Au1 1_555 1_555
N1 C1 1_555 1_555
N2 C2 1_555 1_555
N3 Cu1 1_555 1_555
N4 Cu1 1_555 1_555
C1 Au1 1_555 1_555
C2 Au1 1_555 1_555
C3 N3 1_555 1_555
C4 N4 1_555 1_555
C5 C4 1_555 1_555
H1 C3 1_555 1_555
H2 C5 1_555 1_555
H3 C5 1_555 1_555
N5 C6 1_555 1_555
C6 C7 1_555 1_555
C7 H4 1_555 1_555
H5 C7 1_555 1_555
N3D C3F 1_555 1_555
C3F C3 1_555 1_555
H1F C3F 1_555 1_555
C3B N3 1_555 1_555
H1B C3B 1_555 1_555
C3D N3D 1_555 1_555
H1D C3D 1_555 1_555
H3F C5 1_555 1_555
Au1D Cl1D 1_555 1_555
Cl2D Au1D 1_555 1_555
N1D C1D 1_555 1_555
N2D Cu1 1_555 1_555
N4D Cu1 1_555 1_555
C1D Au1D 1_555 1_555
C2D Au1D 1_555 1_555
C4D N4D 1_555 1_555
C5D C4D 1_555 1_555
H2D C5D 1_555 1_555
H3B C5D 1_555 1_555
H3D C5D 1_555 1_555
Cu1_2 N3D 1_555 1_555
N3D_2 Cu1 1_555 1_555
H5F C7 1_555 1_555
C3B C3D 1_555 1_555
N2D C2D 1_555 1_555

#END
