
#######################################################################
#
#                 Cambridge Crystallographic Data Centre
#                                CCDC 
#
#######################################################################
#
# If this CIF has been generated from an entry in the Cambridge 
# Structural Database, then it will include bibliographic, chemical, 
# crystal, experimental, refinement or atomic coordinate data resulting 
# from the CCDC's data processing and validation procedures.
#
#######################################################################

data_HIFVOI
_symmetry_cell_setting           tetragonal
_symmetry_space_group_name_H-M   'P 42/m n m'
_symmetry_Int_Tables_number      136
_space_group_name_Hall           '-P 4n 2n'
loop_
_symmetry_equiv_pos_site_id
_symmetry_equiv_pos_as_xyz
1 x,y,z
2 1/2-y,1/2+x,1/2+z
3 1/2+y,1/2-x,1/2+z
4 y,x,-z
5 -x,-y,z
6 1/2-x,1/2+y,1/2-z
7 1/2+x,1/2-y,1/2-z
8 -y,-x,-z
9 -x,-y,-z
10 1/2+y,1/2-x,1/2-z
11 1/2-y,1/2+x,1/2-z
12 -y,-x,z
13 x,y,-z
14 1/2+x,1/2-y,1/2+z
15 1/2-x,1/2+y,1/2+z
16 y,x,z
_cell_length_a                   19.073(9)
_cell_length_b                   19.073(9)
_cell_length_c                   17.058(12)
_cell_angle_alpha                90
_cell_angle_beta                 90
_cell_angle_gamma                90
_cell_volume                     6205.35
loop_
_atom_site_label
_atom_site_type_symbol
_atom_site_fract_x
_atom_site_fract_y
_atom_site_fract_z
Zn1 Zn 0.11388(4) 0.66509(4) 0.17642(4)
N1 N 0.1342(3) 0.6413(3) 0.0657(3)
N2 N 0.1634(3) 0.7539(3) 0.2013(3)
N3 N 0.0130(3) 0.6750(3) 0.1996(3)
N4 N 0.1540(3) 0.5908(3) 0.2452(3)
C1 C 0.1054(5) 0.6655(5) 0.0000
H1 H 0.0681 0.6969 0.0000
C2 C 0.2221(3) 0.7779(3) 0.1685(5)
H2 H 0.2443 0.7557 0.1268
C3 C 0.1942(6) 0.6114(8) 0.0398(3)
H3 H 0.2297 0.5937 0.0714
C4 C 0.1573(6) 0.7922(6) 0.2693(7)
H4 H 0.1243 0.7849 0.3086
C5 C -0.0327(7) 0.7258(8) 0.1777(10)
H5 H -0.0227 0.7622 0.1431
C6 C 0.2154(8) 0.5953(7) 0.2860(10)
H6 H 0.2448 0.6341 0.2885
C11 C -0.0231(3) 0.6376(3) 0.2511(4)
H11 H -0.0029 0.6028 0.2819
Zn1L Zn 0.11388(4) 0.66509(4) -0.17642(4)
Zn1K Zn 0.33491(4) 0.88612(4) 0.17642(4)
Zn1J Zn -0.16509(4) 0.61388(4) 0.32358(4)
Zn1I Zn 0.16509(4) 0.38612(4) 0.32358(4)
N1L N 0.1342(3) 0.6413(3) -0.0657(3)
N1I N 0.1413(3) 0.3658(3) 0.4343(3)
N2K N 0.2461(3) 0.8366(3) 0.2013(3)
N2I N 0.2539(3) 0.3366(3) 0.2987(3)
N3I N 0.1750(3) 0.4870(3) 0.3004(3)
N4J N -0.0908(3) 0.6540(3) 0.2548(3)
N4I N 0.0908(3) 0.3460(3) 0.2548(3)
C3L C 0.1942(6) 0.6114(8) -0.0398(3)
H3L H 0.2297 0.5937 -0.0714
C4K C 0.2078(6) 0.8427(6) 0.2693(7)
H4K H 0.2151 0.8757 0.3086
C5I C 0.2258(8) 0.5327(7) 0.3223(10)
H5I H 0.2622 0.5227 0.3569
C6J C -0.0953(7) 0.7154(8) 0.2140(10)
H6J H -0.1341 0.7448 0.2115
C11I C 0.1376(3) 0.5231(3) 0.2489(4)
H11I H 0.1028 0.5029 0.2181
O1 O 0.0000 0.5000 0.0000
O2 O 0.0953(16) 0.9047(16) 0.0000
O3 O 0.0000 0.5000 -0.1090(14)
O4 O 0.011(2) 0.815(2) 0.0000
C7? C 0.1735(7) 0.5849(7) 0.0401(3)
H7? H 0.1961 0.5524 0.0720
C8? C 0.1394(6) 0.8100(5) 0.2442(11)
H8? H 0.0960 0.8130 0.2690
C9? C -0.0390(6) 0.7008(10) 0.1516(9)
H9? H -0.0320 0.7219 0.1031
C10? C -0.1020(8) 0.6905(9) 0.1865(8)
H10? H -0.1452 0.7054 0.1675
loop_
_geom_bond_atom_site_label_1
_geom_bond_atom_site_label_2
_geom_bond_site_symmetry_1
_geom_bond_site_symmetry_2
Zn1 N1 1_555 1_555
N1 C1 1_555 1_555
N2 Zn1 1_555 1_555
N3 Zn1 1_555 1_555
N4 Zn1 1_555 1_555
C1 H1 1_555 1_555
C2 N2 1_555 1_555
H2 C2 1_555 1_555
C3 N1 1_555 1_555
H3 C3 1_555 1_555
C4 N2 1_555 1_555
H4 C4 1_555 1_555
C5 N3 1_555 1_555
H5 C5 1_555 1_555
C6 N4 1_555 1_555
H6 C6 1_555 1_555
C11 N3 1_555 1_555
H11 C11 1_555 1_555
Zn1L N1L 1_555 1_555
Zn1K N2K 1_555 1_555
Zn1J N4J 1_555 1_555
Zn1I N1I 1_555 1_555
N1L C1 1_555 1_555
N2K C2 1_555 1_555
N2I Zn1I 1_555 1_555
N3I Zn1I 1_555 1_555
N4J C11 1_555 1_555
N4I Zn1I 1_555 1_555
C3L C3 1_555 1_555
H3L C3L 1_555 1_555
C4K C4 1_555 1_555
H4K C4K 1_555 1_555
C5I C6 1_555 1_555
H5I C5I 1_555 1_555
C6J C5 1_555 1_555
H6J C6J 1_555 1_555
C11I N4 1_555 1_555
H11I C11I 1_555 1_555
N1L C3L 1_555 1_555
N2K C4K 1_555 1_555
N3I C5I 1_555 1_555
N3I C11I 1_555 1_555
N4J C6J 1_555 1_555

#END
