
#######################################################################
#
#                 Cambridge Crystallographic Data Centre
#                                CCDC 
#
#######################################################################
#
# If this CIF has been generated from an entry in the Cambridge 
# Structural Database, then it will include bibliographic, chemical, 
# crystal, experimental, refinement or atomic coordinate data resulting 
# from the CCDC's data processing and validation procedures.
#
#######################################################################

data_HIFVEZ
_symmetry_cell_setting           orthorhombic
_symmetry_space_group_name_H-M   'C m c m'
_symmetry_Int_Tables_number      63
_space_group_name_Hall           '-C 2n 2'
loop_
_symmetry_equiv_pos_site_id
_symmetry_equiv_pos_as_xyz
1 x,y,z
2 1/2+x,1/2+y,z
3 x,-y,-z
4 1/2+x,1/2-y,-z
5 -x,y,1/2-z
6 1/2-x,1/2+y,1/2-z
7 -x,-y,1/2+z
8 1/2-x,1/2-y,1/2+z
9 -x,-y,-z
10 1/2-x,1/2-y,-z
11 -x,y,z
12 1/2-x,1/2+y,z
13 x,-y,1/2+z
14 1/2+x,1/2-y,1/2+z
15 x,y,1/2-z
16 1/2+x,1/2+y,1/2-z
_cell_length_a                   15.1343(4)
_cell_length_b                   16.3411(4)
_cell_length_c                   11.1500(3)
_cell_angle_alpha                90
_cell_angle_beta                 90
_cell_angle_gamma                90
_cell_volume                     2757.52
loop_
_atom_site_label
_atom_site_type_symbol
_atom_site_fract_x
_atom_site_fract_y
_atom_site_fract_z
Au2 Au 0.5000 0.10552(4) 0.7500
Cl1 Cl 0.4277(4) 0.1022(4) 0.5677(6)
C8 C 0.3836(13) 0.1070(13) 0.6619(19)
N4 N 0.3221(16) 0.1063(13) 0.6181(19)
Cl1J Cl 0.5723(4) 0.1022(4) 0.5677(6)
C8J C 0.6164(13) 0.1070(13) 0.6619(19)
N4J N 0.6779(16) 0.1063(13) 0.6181(19)
Cl1D Cl 0.5723(4) 0.1022(4) 0.9323(6)
C8D C 0.6164(13) 0.1070(13) 0.8381(19)
N4D N 0.6779(16) 0.1063(13) 0.8819(19)
Cl1N Cl 0.4277(4) 0.1022(4) 0.9323(6)
C8N C 0.3836(13) 0.1070(13) 0.8381(19)
N4N N 0.3221(16) 0.1063(13) 0.8819(19)
Au1 Au 0.5000 0.31683(4) 0.7500
Cu1 Cu 0.5000 0.33334(10) 0.2500
N1 N 0.5000 0.3295(6) 0.4709(9)
N2 N 0.5953(5) 0.2463(5) 0.2500
N3 N 0.9060(5) -0.0769(4) 0.2500
C1 C 0.5000 0.3219(7) 0.5733(10)
C2 C 0.5861(7) 0.1819(6) 0.1733(8)
C3 C 0.6448(6) 0.1186(7) 0.1701(9)
C4 C 0.7207(6) 0.1198(6) 0.2500
C5 C 0.7856(6) 0.0534(5) 0.2500
C6 C 0.8442(6) 0.0432(7) 0.1656(9)
C7 C 0.9026(8) -0.0216(6) 0.1678(10)
H1 H 0.5344 0.1888 0.1244
H2 H 0.6454 0.0716 0.1192
H3 H 0.8389 0.0716 0.0907
H4 H 0.9346 -0.0296 0.0946
C2N C 0.5861(7) 0.1819(6) 0.3267(8)
C3N C 0.6448(6) 0.1186(7) 0.3299(9)
C6N C 0.8442(6) 0.0432(7) 0.3344(9)
C7N C 0.9026(8) -0.0216(6) 0.3322(10)
H1N H 0.5344 0.1888 0.3756
H2N H 0.6454 0.0716 0.3808
H3N H 0.8389 0.0716 0.4093
H4N H 0.9346 -0.0296 0.4054
N2J N 0.4047(5) 0.2463(5) 0.2500
N3J N 0.0940(5) -0.0769(4) 0.2500
C2J C 0.4139(7) 0.1819(6) 0.1733(8)
C3J C 0.3552(6) 0.1186(7) 0.1701(9)
C4J C 0.2793(6) 0.1198(6) 0.2500
C5J C 0.2144(6) 0.0534(5) 0.2500
C6J C 0.1558(6) 0.0432(7) 0.1656(9)
C7J C 0.0974(8) -0.0216(6) 0.1678(10)
H1J H 0.4656 0.1888 0.1244
H2J H 0.3546 0.0716 0.1192
H3J H 0.1611 0.0716 0.0907
H4J H 0.0654 -0.0296 0.0946
C2D C 0.4139(7) 0.1819(6) 0.3267(8)
C3D C 0.3552(6) 0.1186(7) 0.3299(9)
C6D C 0.1558(6) 0.0432(7) 0.3344(9)
C7D C 0.0974(8) -0.0216(6) 0.3322(10)
H1D H 0.4656 0.1888 0.3756
H2D H 0.3546 0.0716 0.3808
H3D H 0.1611 0.0716 0.4093
H4D H 0.0654 -0.0296 0.4054
N1D N 0.5000 0.3295(6) 0.0291(9)
C1D C 0.5000 0.3219(7) -0.0733(10)
Au1_2 Au 0.5000 0.31683(4) -0.2500
Cu1A Cu 0.0000 -0.16666(10) 0.2500
Cu1A_2 Cu 1.0000 -0.16666(10) 0.2500
N3A N 0.4060(5) 0.4231(4) 0.2500
N3K N 0.5940(5) 0.4231(4) 0.2500
C1D_2 C 0.5000 0.3219(7) 0.9267(10)
H5? H 0.8612 -0.0934 0.4144
C9? C 0.8486(6) -0.0687(7) 0.3383(9)
C10? C 0.7892(7) -0.0028(6) 0.3416(10)
H6? H 0.7660 0.0099 0.4192
H7? H 0.7830 0.1909 0.3629
C11? C 0.7300(8) 0.1913(6) 0.3158(10)
C12? C 0.6684(6) 0.2507(7) 0.3132(9)
H8? H 0.6704 0.3005 0.3592
loop_
_geom_bond_atom_site_label_1
_geom_bond_atom_site_label_2
_geom_bond_site_symmetry_1
_geom_bond_site_symmetry_2
Au1 C1 1_555 1_555
Cu1 N1 1_555 1_555
N1 C1 1_555 1_555
N2 Cu1 1_555 1_555
N3 C7 1_555 1_555
C2 N2 1_555 1_555
C3 C2 1_555 1_555
C4 C3 1_555 1_555
C5 C4 1_555 1_555
C6 C5 1_555 1_555
C7 C6 1_555 1_555
H1 C2 1_555 1_555
H2 C3 1_555 1_555
H3 C6 1_555 1_555
H4 C7 1_555 1_555
Au2 Cl1 1_555 1_555
C8 Au2 1_555 1_555
N4 C8 1_555 1_555
C2N N2 1_555 1_555
C3N C4 1_555 1_555
C6N C5 1_555 1_555
C7N N3 1_555 1_555
H1N C2N 1_555 1_555
H2N C3N 1_555 1_555
H3N C6N 1_555 1_555
H4N C7N 1_555 1_555
N2J Cu1 1_555 1_555
N3J C7J 1_555 1_555
C2J N2J 1_555 1_555
C3J C2J 1_555 1_555
C4J C3J 1_555 1_555
C5J C4J 1_555 1_555
C6J C5J 1_555 1_555
C7J C6J 1_555 1_555
H1J C2J 1_555 1_555
H2J C3J 1_555 1_555
H3J C6J 1_555 1_555
H4J C7J 1_555 1_555
C2D N2J 1_555 1_555
C3D C4J 1_555 1_555
C6D C5J 1_555 1_555
C7D N3J 1_555 1_555
H1D C2D 1_555 1_555
H2D C3D 1_555 1_555
H3D C6D 1_555 1_555
H4D C7D 1_555 1_555
N1D Cu1 1_555 1_555
C1D N1D 1_555 1_555
Au1_2 C1D 1_555 1_555
Cu1A N3J 1_555 1_555
Cu1A_2 N3 1_555 1_555
N3A Cu1 1_555 1_555
N3K Cu1 1_555 1_555
C1D_2 Au1 1_555 1_555
Cl1J Au2 1_555 1_555
C8J Au2 1_555 1_555
N4J C8J 1_555 1_555
Cl1D Au2 1_555 1_555
C8D Au2 1_555 1_555
N4D C8D 1_555 1_555
Cl1N Au2 1_555 1_555
C8N Au2 1_555 1_555
N4N C8N 1_555 1_555
C2N C3N 1_555 1_555
C6N C7N 1_555 1_555
C2D C3D 1_555 1_555
C6D C7D 1_555 1_555

#END
