
#######################################################################
#
#                 Cambridge Crystallographic Data Centre
#                                CCDC 
#
#######################################################################
#
# If this CIF has been generated from an entry in the Cambridge 
# Structural Database, then it will include bibliographic, chemical, 
# crystal, experimental, refinement or atomic coordinate data resulting 
# from the CCDC's data processing and validation procedures.
#
#######################################################################

data_HIFVUO
_symmetry_cell_setting           tetragonal
_symmetry_space_group_name_H-M   'I 41/a'
_symmetry_Int_Tables_number      88
_space_group_name_Hall           '-I 4ad'
loop_
_symmetry_equiv_pos_site_id
_symmetry_equiv_pos_as_xyz
1 x,y,z
2 3/4-y,1/4+x,1/4+z
3 1/2+x,1/2+y,1/2+z
4 1/4-y,3/4+x,3/4+z
5 1/4+y,1/4-x,1/4+z
6 1/2-x,-y,1/2+z
7 3/4+y,3/4-x,3/4+z
8 -x,1/2-y,z
9 -x,-y,-z
10 1/4+y,3/4-x,3/4-z
11 1/2-x,1/2-y,1/2-z
12 3/4+y,1/4-x,1/4-z
13 3/4-y,3/4+x,3/4-z
14 1/2+x,y,1/2-z
15 1/4-y,1/4+x,1/4-z
16 x,1/2+y,-z
_cell_length_a                   18.389(4)
_cell_length_b                   18.389(4)
_cell_length_c                   19.129(5)
_cell_angle_alpha                90
_cell_angle_beta                 90
_cell_angle_gamma                90
_cell_volume                     6468.57
loop_
_atom_site_label
_atom_site_type_symbol
_atom_site_fract_x
_atom_site_fract_y
_atom_site_fract_z
Zn1 Zn 0.68429(4) 0.11813(4) 0.40694(3)
N1 N 0.6953(3) 0.0788(3) 0.5025(2)
N2 N 0.6731(3) 0.0129(3) 0.5984(2)
N3 N 0.5917(3) 0.0814(3) 0.3672(3)
N4 N 0.4753(3) 0.0608(3) 0.3431(3)
C1 C 0.6532(3) 0.0335(3) 0.5347(3)
H1 H 0.6108 0.0160 0.5141
C2 C 0.7522(5) 0.0848(5) 0.5482(5)
H2 H 0.7947 0.1109 0.5401
C3 C 0.7374(5) 0.0477(5) 0.6057(4)
H3 H 0.7668 0.0458 0.6452
C4 C 0.5244(4) 0.0994(4) 0.3771(3)
H4 H 0.5114 0.1374 0.4067
C5 C 0.5871(6) 0.0241(7) 0.3260(7)
H5 H 0.6266 -0.0034 0.3109
C6 C 0.5147(6) 0.0105(7) 0.3083(7)
H6 H 0.4973 -0.0257 0.2787
Zn1A Zn 0.63187(4) -0.06571(4) 0.65694(3)
Zn1I Zn 0.36813(4) 0.06571(4) 0.34306(3)
N2F N 0.7629(3) 0.0769(3) 0.3484(2)
N4L N 0.6892(3) 0.2253(3) 0.4069(3)
loop_
_geom_bond_atom_site_label_1
_geom_bond_atom_site_label_2
_geom_bond_site_symmetry_1
_geom_bond_site_symmetry_2
Zn1 N1 1_555 1_555
N1 C1 1_555 1_555
N2 C1 1_555 1_555
N3 Zn1 1_555 1_555
N4 C4 1_555 1_555
C1 H1 1_555 1_555
C2 N1 1_555 1_555
H2 C2 1_555 1_555
C3 N2 1_555 1_555
H3 C3 1_555 1_555
C4 N3 1_555 1_555
H4 C4 1_555 1_555
C5 N3 1_555 1_555
H5 C5 1_555 1_555
C6 N4 1_555 1_555
H6 C6 1_555 1_555
Zn1A N2 1_555 1_555
Zn1I N4 1_555 1_555
N2F Zn1 1_555 1_555
N4L Zn1 1_555 1_555
C2 C3 1_555 1_555
C5 C6 1_555 1_555

#END
