
#######################################################################
#
#                 Cambridge Crystallographic Data Centre
#                                CCDC 
#
#######################################################################
#
# If this CIF has been generated from an entry in the Cambridge 
# Structural Database, then it will include bibliographic, chemical, 
# crystal, experimental, refinement or atomic coordinate data resulting 
# from the CCDC's data processing and validation procedures.
#
#######################################################################

data_HIFYIF
_symmetry_cell_setting           monoclinic
_symmetry_space_group_name_H-M   'P 21/n'
_symmetry_Int_Tables_number      14
_space_group_name_Hall           '-P 2yn'
loop_
_symmetry_equiv_pos_site_id
_symmetry_equiv_pos_as_xyz
1 x,y,z
2 1/2-x,1/2+y,1/2-z
3 -x,-y,-z
4 1/2+x,1/2-y,1/2+z
_cell_length_a                   6.07500(10)
_cell_length_b                   16.9431(3)
_cell_length_c                   11.9592(2)
_cell_angle_alpha                90
_cell_angle_beta                 101.3800(10)
_cell_angle_gamma                90
_cell_volume                     1206.75
loop_
_atom_site_label
_atom_site_type_symbol
_atom_site_fract_x
_atom_site_fract_y
_atom_site_fract_z
Zn1 Zn 0.83620(4) 1.107448(15) 0.775966(19)
O1 O 1.1127(3) 1.18787(14) 0.84953(19)
O2 O 0.9846(3) 1.10280(11) 0.95027(14)
O3 O 1.2553(3) 1.17951(15) 1.03032(19)
O4 O 1.0885(3) 1.04650(14) 0.70216(15)
O5 O 0.8714(3) 1.11812(12) 0.58608(16)
O6 O 1.1650(3) 1.06808(12) 0.53668(13)
N1 N 0.6358(3) 1.01033(11) 0.77214(13)
N2 N 0.5370(3) 1.00153(11) 0.86266(13)
N3 N -0.1125(3) 0.69886(10) 0.75467(13)
N4 N -0.1166(3) 0.74666(12) 0.66441(14)
N5 N 1.1232(3) 1.15792(13) 0.94646(19)
N6 N 1.0436(3) 1.07747(12) 0.60574(14)
C1 C 0.3994(4) 0.94113(13) 0.86242(16)
C2 C 0.3481(3) 0.88624(12) 0.77351(15)
C3 C 0.4523(4) 0.89689(14) 0.68311(18)
C4 C 0.5961(4) 0.96016(14) 0.68611(18)
C5 C 0.0291(4) 0.80462(14) 0.67518(17)
C6 C 0.1876(3) 0.82155(13) 0.77458(15)
C7 C 0.1840(3) 0.77343(14) 0.86605(16)
C8 C 0.0296(4) 0.71215(14) 0.85142(17)
H1 H 0.334(4) 0.9378(15) 0.9251(19)
H2 H 0.426(4) 0.8616(17) 0.624(2)
H3 H 0.675(4) 0.9691(15) 0.627(2)
H4 H 0.019(4) 0.8388(14) 0.6125(19)
H5 H 0.279(4) 0.7800(15) 0.934(2)
H6 H 0.020(4) 0.6777(16) 0.912(2)
Zn1A Zn -0.33620(4) 0.607448(15) 0.724034(19)
N3A N 0.6125(3) 1.19886(10) 0.74533(13)
loop_
_geom_bond_atom_site_label_1
_geom_bond_atom_site_label_2
_geom_bond_site_symmetry_1
_geom_bond_site_symmetry_2
Zn1 O1 1_555 1_555
O1 N5 1_555 1_555
O2 Zn1 1_555 1_555
O3 N5 1_555 1_555
O4 Zn1 1_555 1_555
O5 Zn1 1_555 1_555
O6 N6 1_555 1_555
N1 Zn1 1_555 1_555
N2 N1 1_555 1_555
N3 N4 1_555 1_555
N4 C5 1_555 1_555
N5 O2 1_555 1_555
N6 O4 1_555 1_555
C1 N2 1_555 1_555
C2 C1 1_555 1_555
C3 C2 1_555 1_555
C4 N1 1_555 1_555
C5 C6 1_555 1_555
C6 C2 1_555 1_555
C7 C6 1_555 1_555
C8 N3 1_555 1_555
H1 C1 1_555 1_555
H2 C3 1_555 1_555
H3 C4 1_555 1_555
H4 C5 1_555 1_555
H5 C7 1_555 1_555
H6 C8 1_555 1_555
Zn1A N3 1_555 1_555
N3A Zn1 1_555 1_555
O5 N6 1_555 1_555
C3 C4 1_555 1_555
C7 C8 1_555 1_555

#END
