
#######################################################################
#
#                 Cambridge Crystallographic Data Centre
#                                CCDC 
#
#######################################################################
#
# If this CIF has been generated from an entry in the Cambridge 
# Structural Database, then it will include bibliographic, chemical, 
# crystal, experimental, refinement or atomic coordinate data resulting 
# from the CCDC's data processing and validation procedures.
#
#######################################################################

data_HIFYOL
_symmetry_cell_setting           orthorhombic
_symmetry_space_group_name_H-M   'P n a 21'
_symmetry_Int_Tables_number      33
_space_group_name_Hall           'P 2c -2n'
loop_
_symmetry_equiv_pos_site_id
_symmetry_equiv_pos_as_xyz
1 x,y,z
2 -x,-y,1/2+z
3 1/2+x,1/2-y,z
4 1/2-x,1/2+y,1/2+z
_cell_length_a                   15.1065(13)
_cell_length_b                   11.8885(9)
_cell_length_c                   11.0631(10)
_cell_angle_alpha                90
_cell_angle_beta                 90
_cell_angle_gamma                90
_cell_volume                     1986.86
loop_
_atom_site_label
_atom_site_type_symbol
_atom_site_fract_x
_atom_site_fract_y
_atom_site_fract_z
Cu1 Cu 0.00115(3) -0.73686(3) 0.00486(8)
O1 O -0.0121(2) -0.5996(2) -0.1369(3)
H1 H -0.0050 -0.6242 -0.2091
H2 H 0.0229 -0.5444 -0.1249
O2 O 0.0112(2) -0.8792(3) 0.1603(3)
H3 H 0.0174 -0.9452 0.1314
H4 H -0.0331 -0.8782 0.2083
N1 N -0.0914(2) -0.8398(3) -0.0769(3)
N2 N -0.1559(3) -0.7896(3) -0.1393(4)
N3 N -0.4056(2) -1.1584(3) -0.3946(3)
N4 N -0.4085(3) -1.0463(3) -0.3962(4)
N5 N 0.0954(2) -0.6462(3) 0.0957(3)
N6 N 0.1437(2) -0.5731(3) 0.0326(3)
N7 N 0.4046(2) -0.3166(3) 0.4043(3)
N8 N 0.3335(2) -0.3552(3) 0.4625(3)
C1 C -0.0854(3) -0.9507(4) -0.0746(4)
H5 H -0.0374 -0.9845 -0.0309
C2 C -0.1459(3) -1.0206(4) -0.1331(4)
H6 H -0.1407 -1.1010 -0.1280
C3 C -0.2135(3) -0.9714(3) -0.1986(4)
C4 C -0.2139(3) -0.8528(4) -0.1985(5)
H7 H -0.2592 -0.8153 -0.2442
C5 C -0.3451(3) -1.2103(4) -0.3304(4)
H8 H -0.3444 -1.2911 -0.3302
C6 C -0.2824(3) -1.1535(4) -0.2630(5)
H9 H -0.2404 -1.1942 -0.2148
C7 C -0.2810(3) -1.0369(3) -0.2658(4)
C8 C -0.3472(3) -0.9863(4) -0.3349(5)
H10 H -0.3493 -0.9057 -0.3391
C9 C 0.1030(3) -0.6527(4) 0.2155(4)
H11 H 0.0656 -0.7040 0.2588
C10 C 0.1635(3) -0.5873(4) 0.2803(4)
H12 H 0.1702 -0.5960 0.3661
C11 C 0.2140(3) -0.5090(3) 0.2163(4)
C12 C 0.1985(3) -0.5051(4) 0.0915(4)
H13 H 0.2296 -0.4493 0.0453
C13 C 0.4132(3) -0.3302(4) 0.2857(4)
H14 H 0.4632 -0.2974 0.2454
C14 C 0.3518(3) -0.3907(4) 0.2181(4)
H15 H 0.3593 -0.4002 0.1325
C15 C 0.2801(3) -0.4366(3) 0.2770(4)
C16 C 0.2736(3) -0.4131(4) 0.4010(4)
H16 H 0.2228 -0.4407 0.4438
Cu1C Cu -0.50115(3) -1.23686(3) -0.49514(8)
Cu1C_2 Cu 0.49885(3) -0.23686(3) 0.50486(8)
N3C N -0.0944(2) -0.6584(3) 0.1054(3)
N7C N 0.0954(2) -0.8166(3) -0.0957(3)
S1 S 0.02501(6) -0.30041(8) 0.00697(13)
S2 S 0.10899(7) -0.15727(8) -0.00838(11)
O3 O -0.0639(2) -0.2552(3) -0.0023(6)
O4 O 0.0502(3) -0.3727(3) -0.0925(3)
O5 O 0.0472(3) -0.3448(3) 0.1255(3)
O6 O 0.0882(3) -0.1100(3) -0.1257(3)
O7 O 0.1993(2) -0.1986(3) 0.0034(5)
O8 O 0.0808(3) -0.0865(3) 0.0918(4)
loop_
_geom_bond_atom_site_label_1
_geom_bond_atom_site_label_2
_geom_bond_site_symmetry_1
_geom_bond_site_symmetry_2
Cu1 O1 1_555 1_555
S1 S2 1_555 1_555
S2 O6 1_555 1_555
O1 H1 1_555 1_555
H2 O1 1_555 1_555
O2 Cu1 1_555 1_555
H3 O2 1_555 1_555
H4 O2 1_555 1_555
O3 S1 1_555 1_555
O4 S1 1_555 1_555
O5 S1 1_555 1_555
O7 S2 1_555 1_555
O8 S2 1_555 1_555
N1 Cu1 1_555 1_555
N2 N1 1_555 1_555
N3 N4 1_555 1_555
N4 C8 1_555 1_555
N5 Cu1 1_555 1_555
N6 N5 1_555 1_555
N7 N8 1_555 1_555
N8 C16 1_555 1_555
C1 N1 1_555 1_555
H5 C1 1_555 1_555
C2 C1 1_555 1_555
H6 C2 1_555 1_555
C3 C2 1_555 1_555
C4 N2 1_555 1_555
H7 C4 1_555 1_555
C5 N3 1_555 1_555
H8 C5 1_555 1_555
C6 C5 1_555 1_555
H9 C6 1_555 1_555
C7 C3 1_555 1_555
C8 C7 1_555 1_555
H10 C8 1_555 1_555
C9 N5 1_555 1_555
H11 C9 1_555 1_555
C10 C9 1_555 1_555
H12 C10 1_555 1_555
C11 C10 1_555 1_555
C12 N6 1_555 1_555
H13 C12 1_555 1_555
C13 N7 1_555 1_555
H14 C13 1_555 1_555
C14 C13 1_555 1_555
H15 C14 1_555 1_555
C15 C11 1_555 1_555
C16 C15 1_555 1_555
H16 C16 1_555 1_555
Cu1C N3 1_555 1_555
Cu1C_2 N7 1_555 1_555
N3C Cu1 1_555 1_555
N7C Cu1 1_555 1_555
C3 C4 1_555 1_555
C6 C7 1_555 1_555
C11 C12 1_555 1_555
C14 C15 1_555 1_555

#END
