
#######################################################################
#
#                 Cambridge Crystallographic Data Centre
#                                CCDC 
#
#######################################################################
#
# If this CIF has been generated from an entry in the Cambridge 
# Structural Database, then it will include bibliographic, chemical, 
# crystal, experimental, refinement or atomic coordinate data resulting 
# from the CCDC's data processing and validation procedures.
#
#######################################################################

data_HIFZOM
_symmetry_cell_setting           monoclinic
_symmetry_space_group_name_H-M   'P 21/c'
_symmetry_Int_Tables_number      14
_space_group_name_Hall           '-P 2ybc'
loop_
_symmetry_equiv_pos_site_id
_symmetry_equiv_pos_as_xyz
1 x,y,z
2 -x,1/2+y,1/2-z
3 -x,-y,-z
4 x,1/2-y,1/2+z
_cell_length_a                   6.712(2)
_cell_length_b                   13.450(4)
_cell_length_c                   6.807(3)
_cell_angle_alpha                90
_cell_angle_beta                 112.79(3)
_cell_angle_gamma                90
_cell_volume                     566.537
loop_
_atom_site_label
_atom_site_type_symbol
_atom_site_fract_x
_atom_site_fract_y
_atom_site_fract_z
Cu1 Cu 0.02625(12) 0.73438(6) 0.24493(11)
Br1 Br 0.24053(11) 0.66585(5) 0.06106(10)
N1 N -0.1263(7) 0.6352(4) 0.3645(7)
N2 N -0.1772(8) 0.6654(4) 0.5275(8)
C1 C -0.3203(10) 0.6137(5) 0.5741(9)
H1 H -0.3609 0.6381 0.6860
C2 C -0.4165(8) 0.5259(4) 0.4714(8)
C3 C -0.3443(9) 0.4912(5) 0.3209(9)
H2 H -0.3904 0.4278 0.2539
C4 C -0.2027(9) 0.5504(5) 0.2684(9)
H3 H -0.1586 0.5285 0.1571
Cu1C Cu 0.02625(12) 0.76562(6) 0.74493(11)
Cu1C_2 Cu 0.02625(12) 0.76562(6) -0.25507(11)
Cu1A Cu -1.02625(12) 0.23438(6) 0.25507(11)
Cu1B Cu -1.02625(12) 0.26562(6) 0.75507(11)
Br1C Br 0.24053(11) 0.83415(5) 0.56106(10)
Br1_2 Br 0.24053(11) 0.66585(5) 1.06106(10)
N1B N -0.8737(7) 0.3648(4) 0.6355(7)
N1C N -0.1263(7) 0.8648(4) 0.8645(7)
N2B N -0.8228(8) 0.3346(4) 0.4725(8)
N2C N -0.1772(8) 0.8346(4) 0.0275(8)
C1B C -0.6797(10) 0.3863(5) 0.4259(9)
H1B H -0.6391 0.3619 0.3140
C2B C -0.5835(8) 0.4741(4) 0.5286(8)
C3B C -0.6557(9) 0.5088(5) 0.6791(9)
H2B H -0.6096 0.5722 0.7461
C4B C -0.7973(9) 0.4496(5) 0.7316(9)
H3B H -0.8414 0.4715 0.8429
loop_
_geom_bond_atom_site_label_1
_geom_bond_atom_site_label_2
_geom_bond_site_symmetry_1
_geom_bond_site_symmetry_2
Cu1 Br1 1_555 1_555
Br1 Cu1C_2 1_555 1_555
N1 Cu1 1_555 1_555
N2 N1 1_555 1_555
C1 N2 1_555 1_555
H1 C1 1_555 1_555
C2 C1 1_555 1_555
C3 C2 1_555 1_555
H2 C3 1_555 1_555
C4 N1 1_555 1_555
H3 C4 1_555 1_555
Cu1C N2 1_555 1_555
Cu1A N2B 1_555 1_555
Cu1B N1B 1_555 1_555
Br1C Cu1 1_555 1_555
Br1_2 Cu1C 1_555 1_555
N1B N2B 1_555 1_555
N1C Cu1C 1_555 1_555
N2B C1B 1_555 1_555
N2C Cu1 1_555 1_555
C1B H1B 1_555 1_555
C2B C2 1_555 1_555
C3B C2B 1_555 1_555
H2B C3B 1_555 1_555
C4B N1B 1_555 1_555
H3B C4B 1_555 1_555
C3 C4 1_555 1_555
Cu1C Br1C 1_555 1_555
C1B C2B 1_555 1_555
C3B C4B 1_555 1_555

#END
