
#######################################################################
#
#                 Cambridge Crystallographic Data Centre
#                                CCDC 
#
#######################################################################
#
# If this CIF has been generated from an entry in the Cambridge 
# Structural Database, then it will include bibliographic, chemical, 
# crystal, experimental, refinement or atomic coordinate data resulting 
# from the CCDC's data processing and validation procedures.
#
#######################################################################

data_HIGGUB
_symmetry_cell_setting           monoclinic
_symmetry_space_group_name_H-M   'P 21/n'
_symmetry_Int_Tables_number      14
_space_group_name_Hall           '-P 2yn'
loop_
_symmetry_equiv_pos_site_id
_symmetry_equiv_pos_as_xyz
1 x,y,z
2 1/2-x,1/2+y,1/2-z
3 -x,-y,-z
4 1/2+x,1/2-y,1/2+z
_cell_length_a                   8.4262(3)
_cell_length_b                   9.6325(3)
_cell_length_c                   13.0926(5)
_cell_angle_alpha                90
_cell_angle_beta                 94.251(3)
_cell_angle_gamma                90
_cell_volume                     1059.74
loop_
_atom_site_label
_atom_site_type_symbol
_atom_site_fract_x
_atom_site_fract_y
_atom_site_fract_z
Cd1 Cd 0.146492(18) 0.789715(15) 0.374334(10)
N1 N 0.1635(2) 1.0115(2) 0.43395(16)
C1 C 0.1435(2) 1.1148(2) 0.47595(16)
S1 S 0.12101(7) 1.26319(6) 0.53445(5)
N2 N 0.1424(3) 0.5543(2) 0.33689(17)
C2 C 0.1226(2) 0.4532(2) 0.29023(16)
S2 S 0.08691(7) 0.30918(6) 0.22497(5)
N3 N 0.4929(2) 0.6775(2) 0.70906(13)
N4 N 0.3105(2) 0.7254(2) 0.52713(15)
C3 C 0.2687(3) 0.6314(2) 0.59453(17)
H1 H 0.1754 0.5814 0.5800
C4 C 0.3592(2) 0.6045(2) 0.68629(16)
C5 C 0.5364(3) 0.7692(3) 0.63966(17)
H2 H 0.6306 0.8184 0.6530
C6 C 0.4468(3) 0.7932(3) 0.54939(18)
H3 H 0.4817 0.8576 0.5031
C7 C 0.3092(3) 0.4973(2) 0.75924(18)
H4 H 0.4017 0.4547 0.7931
H5 H 0.2463 0.4279 0.7225
H6 H 0.2472 0.5402 0.8092
Cd1A Cd 0.353508(18) 0.289715(15) 0.125666(10)
Cd1B Cd -0.146492(18) 1.210285(15) 0.625666(10)
Cd1C Cd 0.646492(18) 0.710285(15) 0.874334(10)
S1B S -0.12101(7) 0.73681(6) 0.46555(5)
S2A S 0.41309(7) 0.80918(6) 0.27503(5)
N3C N -0.0071(2) 0.8225(2) 0.20906(13)
loop_
_geom_bond_atom_site_label_1
_geom_bond_atom_site_label_2
_geom_bond_site_symmetry_1
_geom_bond_site_symmetry_2
Cd1 N1 1_555 1_555
N1 C1 1_555 1_555
C1 S1 1_555 1_555
S1 Cd1B 1_555 1_555
N2 Cd1 1_555 1_555
C2 N2 1_555 1_555
S2 C2 1_555 1_555
N3 C4 1_555 1_555
N4 Cd1 1_555 1_555
C3 N4 1_555 1_555
H1 C3 1_555 1_555
C4 C3 1_555 1_555
C5 N3 1_555 1_555
H2 C5 1_555 1_555
C6 N4 1_555 1_555
H3 C6 1_555 1_555
C7 C4 1_555 1_555
H4 C7 1_555 1_555
H5 C7 1_555 1_555
H6 C7 1_555 1_555
Cd1A S2 1_555 1_555
Cd1C N3 1_555 1_555
S1B Cd1 1_555 1_555
S2A Cd1 1_555 1_555
N3C Cd1 1_555 1_555
C5 C6 1_555 1_555

#END
