
#######################################################################
#
#                 Cambridge Crystallographic Data Centre
#                                CCDC 
#
#######################################################################
#
# If this CIF has been generated from an entry in the Cambridge 
# Structural Database, then it will include bibliographic, chemical, 
# crystal, experimental, refinement or atomic coordinate data resulting 
# from the CCDC's data processing and validation procedures.
#
#######################################################################

data_HIGKAK
_symmetry_cell_setting           orthorhombic
_symmetry_space_group_name_H-M   'P m n 21'
_symmetry_Int_Tables_number      31
_space_group_name_Hall           'P 2ac -2'
loop_
_symmetry_equiv_pos_site_id
_symmetry_equiv_pos_as_xyz
1 x,y,z
2 1/2-x,-y,1/2+z
3 1/2+x,-y,1/2+z
4 -x,y,z
_cell_length_a                   24.331(5)
_cell_length_b                   6.9050(14)
_cell_length_c                   5.9980(12)
_cell_angle_alpha                90
_cell_angle_beta                 90
_cell_angle_gamma                90
_cell_volume                     1007.7
loop_
_atom_site_label
_atom_site_type_symbol
_atom_site_fract_x
_atom_site_fract_y
_atom_site_fract_z
Cu1 Cu 0.0000 -0.22339(6) -0.2498
N1 N 0.0000 -0.9135(4) -0.2499(10)
O1 O 0.07849(9) -0.2195(3) -0.2316(8)
O2 O 0.0000 -0.2190(5) -0.6224(7)
H1 H -0.031(2) -0.254(11) -0.679(18)
O3 O 0.09439(13) -0.2601(5) 0.1335(7)
C1 C 0.10933(17) -0.2407(5) -0.0606(8)
C2 C 0.16971(15) -0.2416(5) -0.1152(9)
C3 C 0.20784(15) -0.2989(5) 0.0442(8)
H2 H 0.1959 -0.3356 0.1852
C4 C 0.26359(16) -0.3020(5) -0.0045(9)
H3 H 0.2890 -0.3425 0.1016
C5 C 0.28059(16) -0.2438(5) -0.2129(11)
C6 C 0.24399(15) -0.1865(5) -0.3739(8)
H4 H 0.2563 -0.1468 -0.5134
C7 C 0.18809(16) -0.1888(5) -0.3245(7)
H5 H 0.1628 -0.1544 -0.4338
C8 C 0.04887(14) -0.6124(5) -0.3635(8)
H6 H 0.0819 -0.5663 -0.2899
H7 H 0.0494 -0.5653 -0.5158
C9 C 0.0000 -0.6132(7) -0.0177(9)
H8 H -0.035(3) -0.553(12) 0.064(19)
C10 C 0.0000 -0.8374(8) -0.0181(9)
H9 H 0.031(3) -0.877(12) 0.06(2)
C11 C 0.04883(15) -0.8333(5) -0.3648(8)
H10 H 0.0494 -0.8789 -0.5177
H11 H 0.0818 -0.8800 -0.2918
N2 N 0.0000 -0.5338(4) -0.2473(10)
Cl1 Cl 0.35039(4) -0.24245(15) -0.2762(4)
Cu1_2 Cu 0.0000 -1.22339(6) -0.2498
N1_2 N 0.0000 0.0865(4) -0.2499(10)
O1C O -0.07849(9) -0.2195(3) -0.2316(8)
H1C H 0.031(2) -0.254(11) -0.679(18)
O3C O -0.09439(13) -0.2601(5) 0.1335(7)
C1C C -0.10933(17) -0.2407(5) -0.0606(8)
C2C C -0.16971(15) -0.2416(5) -0.1152(9)
C3C C -0.20784(15) -0.2989(5) 0.0442(8)
H2C H -0.1959 -0.3356 0.1852
C4C C -0.26359(16) -0.3020(5) -0.0045(9)
H3C H -0.2890 -0.3425 0.1016
C5C C -0.28059(16) -0.2438(5) -0.2129(11)
C6C C -0.24399(15) -0.1865(5) -0.3739(8)
H4C H -0.2563 -0.1468 -0.5134
C7C C -0.18809(16) -0.1888(5) -0.3245(7)
H5C H -0.1628 -0.1544 -0.4338
C8C C -0.04887(14) -0.6124(5) -0.3635(8)
H6C H -0.0819 -0.5663 -0.2899
H7C H -0.0494 -0.5653 -0.5158
H8C H 0.035(3) -0.553(12) 0.064(19)
H9C H -0.031(3) -0.877(12) 0.06(2)
C11C C -0.04883(15) -0.8333(5) -0.3648(8)
H10C H -0.0494 -0.8789 -0.5177
H11C H -0.0818 -0.8800 -0.2918
Cl1C Cl -0.35039(4) -0.24245(15) -0.2762(4)
loop_
_geom_bond_atom_site_label_1
_geom_bond_atom_site_label_2
_geom_bond_site_symmetry_1
_geom_bond_site_symmetry_2
Cu1 O1 1_555 1_555
N1 C10 1_555 1_555
O1 C1 1_555 1_555
O2 Cu1 1_555 1_555
H1 O2 1_555 1_555
O3 C1 1_555 1_555
C1 C2 1_555 1_555
C2 C3 1_555 1_555
C3 H2 1_555 1_555
C4 C3 1_555 1_555
H3 C4 1_555 1_555
C5 C4 1_555 1_555
C6 C5 1_555 1_555
H4 C6 1_555 1_555
C7 C2 1_555 1_555
H5 C7 1_555 1_555
C8 H6 1_555 1_555
H7 C8 1_555 1_555
C9 H8 1_555 1_555
C10 C9 1_555 1_555
H9 C10 1_555 1_555
C11 N1 1_555 1_555
H10 C11 1_555 1_555
H11 C11 1_555 1_555
N2 Cu1 1_555 1_555
Cl1 C5 1_555 1_555
Cu1_2 N1 1_555 1_555
N1_2 Cu1 1_555 1_555
O1C Cu1 1_555 1_555
H1C O2 1_555 1_555
O3C C1C 1_555 1_555
C1C O1C 1_555 1_555
C2C C1C 1_555 1_555
C3C C2C 1_555 1_555
H2C C3C 1_555 1_555
C4C C3C 1_555 1_555
H3C C4C 1_555 1_555
C5C C4C 1_555 1_555
C6C C5C 1_555 1_555
H4C C6C 1_555 1_555
C7C C2C 1_555 1_555
H5C C7C 1_555 1_555
C8C N2 1_555 1_555
H6C C8C 1_555 1_555
H7C C8C 1_555 1_555
H8C C9 1_555 1_555
H9C C10 1_555 1_555
C11C N1 1_555 1_555
H10C C11C 1_555 1_555
H11C C11C 1_555 1_555
Cl1C C5C 1_555 1_555
C6 C7 1_555 1_555
C8 C11 1_555 1_555
C8 N2 1_555 1_555
C9 N2 1_555 1_555
C6C C7C 1_555 1_555
C8C C11C 1_555 1_555

#END
