
#######################################################################
#
#                 Cambridge Crystallographic Data Centre
#                                CCDC 
#
#######################################################################
#
# If this CIF has been generated from an entry in the Cambridge 
# Structural Database, then it will include bibliographic, chemical, 
# crystal, experimental, refinement or atomic coordinate data resulting 
# from the CCDC's data processing and validation procedures.
#
#######################################################################

data_HIGLIU
_symmetry_cell_setting           triclinic
_symmetry_space_group_name_H-M   'P -1'
_symmetry_Int_Tables_number      2
_space_group_name_Hall           '-P 1'
loop_
_symmetry_equiv_pos_site_id
_symmetry_equiv_pos_as_xyz
1 x,y,z
2 -x,-y,-z
_cell_length_a                   9.6724(10)
_cell_length_b                   10.0685(10)
_cell_length_c                   12.6032(13)
_cell_angle_alpha                76.167(2)
_cell_angle_beta                 79.590(2)
_cell_angle_gamma                62.7200(10)
_cell_volume                     1055.63
loop_
_atom_site_label
_atom_site_type_symbol
_atom_site_fract_x
_atom_site_fract_y
_atom_site_fract_z
Gd1 Gd 0.69205(2) 0.491876(19) 0.939080(16)
S1 S 1.09405(15) -0.29061(12) 1.29779(10)
C1 C 0.7432(5) 0.7760(5) 1.0114(4)
H1 H 0.7894 0.6947 1.0671
C2 C 0.7427(5) 0.9141(5) 1.0128(4)
H2 H 0.7897 0.9231 1.0672
C3 C 0.6726(5) 1.0362(6) 0.9334(4)
H3 H 0.6711 1.1294 0.9328
C4 C 0.6028(5) 1.0181(5) 0.8528(4)
C5 C 0.5176(5) 1.1393(5) 0.7692(4)
C6 C 0.3995(6) 1.3511(5) 0.6691(4)
H4 H 0.3592 1.4543 0.6399
C7 C 0.4505(5) 1.1135(5) 0.6932(4)
C8 C 0.4597(5) 0.9684(5) 0.6912(4)
C9 C 0.3916(6) 0.9384(5) 0.6162(4)
H5 H 0.3358 1.0155 0.5615
C10 C 0.4086(6) 0.7933(6) 0.6250(4)
H6 H 0.3644 0.7710 0.5760
C11 C 0.4919(6) 0.6809(5) 0.7069(4)
H7 H 0.5037 0.5829 0.7108
C12 C 0.5413(5) 0.8484(5) 0.7734(4)
C13 C 0.6110(4) 0.8733(5) 0.8561(4)
C14 C 0.8767(5) 0.2756(5) 1.1083(4)
C15 C 0.9598(5) 0.1565(5) 1.2020(4)
C16 C 1.0112(6) 0.1939(5) 1.2823(4)
H8 H 0.9927 0.2937 1.2797
C17 C 1.0907(7) 0.0794(6) 1.3665(5)
H9 H 1.1265 0.1033 1.4197
C18 C 1.1166(6) -0.0665(6) 1.3719(4)
H10 H 1.1691 -0.1416 1.4288
C19 C 1.0646(5) -0.1032(5) 1.2925(4)
C20 C 0.9867(5) 0.0090(5) 1.2075(4)
H11 H 0.9525 -0.0159 1.1539
O1 O 0.8234(4) 0.2383(4) 1.0426(3)
O2 O 0.8596(4) 0.4105(3) 1.0986(3)
O3 O 0.9461(4) -0.2793(4) 1.2753(4)
O4 O 1.1377(6) -0.3718(4) 1.4065(3)
O5 O 1.2159(4) -0.3501(3) 1.2122(3)
O6 O 0.9395(4) 0.4929(4) 0.8535(3)
H12 H 0.998(5) 0.428(5) 0.815(4)
H13 H 0.993(5) 0.529(6) 0.874(5)
O7 O 0.5028(3) 0.5691(3) 1.0729(2)
H14 H 0.5038 0.6190 1.1258
N1 N 0.6813(4) 0.7541(4) 0.9353(3)
N2 N 0.4844(5) 1.2901(4) 0.7534(4)
N3 N 0.3754(5) 1.2514(4) 0.6282(3)
H15 H 0.3239 1.2707 0.5732
N4 N 0.5565(4) 0.7053(4) 0.7809(3)
Gd1A Gd 0.30795(2) 0.508124(19) 1.060920(16)
Gd1A_2 Gd 1.30795(2) -0.491876(19) 1.060920(16)
O5A O 0.7841(4) 0.3501(3) 0.7878(3)
O7A O 0.4972(3) 0.4309(3) 0.9271(2)
O8 O 0.1754(5) 0.3218(4) 0.4657(3)
H16 H 0.153(7) 0.415(3) 0.433(5)
H17 H 0.097(5) 0.323(6) 0.510(5)
loop_
_geom_bond_atom_site_label_1
_geom_bond_atom_site_label_2
_geom_bond_site_symmetry_1
_geom_bond_site_symmetry_2
Gd1 O1 1_555 1_555
S1 C19 1_555 1_555
C1 H1 1_555 1_555
C2 C1 1_555 1_555
H2 C2 1_555 1_555
C3 C2 1_555 1_555
H3 C3 1_555 1_555
C4 C3 1_555 1_555
C5 C4 1_555 1_555
C6 H4 1_555 1_555
C7 C5 1_555 1_555
C8 C7 1_555 1_555
C9 C8 1_555 1_555
H5 C9 1_555 1_555
C10 C9 1_555 1_555
H6 C10 1_555 1_555
C11 C10 1_555 1_555
H7 C11 1_555 1_555
C12 C8 1_555 1_555
C13 C4 1_555 1_555
C14 C15 1_555 1_555
C15 C16 1_555 1_555
C16 H8 1_555 1_555
C17 C16 1_555 1_555
H9 C17 1_555 1_555
C18 C17 1_555 1_555
H10 C18 1_555 1_555
C19 C18 1_555 1_555
C20 C15 1_555 1_555
H11 C20 1_555 1_555
O1 C14 1_555 1_555
O2 Gd1 1_555 1_555
O3 S1 1_555 1_555
O4 S1 1_555 1_555
O5 S1 1_555 1_555
O6 Gd1 1_555 1_555
H12 O6 1_555 1_555
H13 O6 1_555 1_555
O7 Gd1 1_555 1_555
H14 O7 1_555 1_555
N1 Gd1 1_555 1_555
N2 C5 1_555 1_555
N3 C6 1_555 1_555
H15 N3 1_555 1_555
N4 Gd1 1_555 1_555
O8 H16 1_555 1_555
H17 O8 1_555 1_555
Gd1A O7 1_555 1_555
Gd1A_2 O5 1_555 1_555
O5A Gd1 1_555 1_555
O7A Gd1 1_555 1_555
C1 N1 1_555 1_555
C6 N2 1_555 1_555
C7 N3 1_555 1_555
C11 N4 1_555 1_555
C12 C13 1_555 1_555
C12 N4 1_555 1_555
C13 N1 1_555 1_555
C14 O2 1_555 1_555
C19 C20 1_555 1_555
Gd1A O7A 1_555 1_555

#END
