
#######################################################################
#
#                 Cambridge Crystallographic Data Centre
#                                CCDC 
#
#######################################################################
#
# If this CIF has been generated from an entry in the Cambridge 
# Structural Database, then it will include bibliographic, chemical, 
# crystal, experimental, refinement or atomic coordinate data resulting 
# from the CCDC's data processing and validation procedures.
#
#######################################################################

data_HIGLOA
_symmetry_cell_setting           triclinic
_symmetry_space_group_name_H-M   'P -1'
_symmetry_Int_Tables_number      2
_space_group_name_Hall           '-P 1'
loop_
_symmetry_equiv_pos_site_id
_symmetry_equiv_pos_as_xyz
1 x,y,z
2 -x,-y,-z
_cell_length_a                   9.6718(15)
_cell_length_b                   10.0634(15)
_cell_length_c                   12.5704(18)
_cell_angle_alpha                76.287(2)
_cell_angle_beta                 79.545(2)
_cell_angle_gamma                62.738(2)
_cell_volume                     1052.82
loop_
_atom_site_label
_atom_site_type_symbol
_atom_site_fract_x
_atom_site_fract_y
_atom_site_fract_z
C1 C 0.3770(7) 0.2749(8) 0.6112(5)
C2 C 0.4596(7) 0.1563(7) 0.7019(5)
C3 C 0.4871(7) 0.0087(7) 0.7091(5)
H1 H 0.4527 -0.0171 0.6560
C4 C 0.5640(7) -0.1016(7) 0.7927(5)
C5 C 0.6157(9) -0.0666(8) 0.8715(5)
H2 H 0.6674 -0.1425 0.9284
C6 C 0.5918(10) 0.0813(9) 0.8675(6)
H3 H 0.6285 0.1056 0.9202
C7 C 0.5117(8) 0.1919(8) 0.7828(5)
H4 H 0.4923 0.2921 0.7799
C8 C 0.2422(7) 0.7771(7) 0.5093(5)
H5 H 0.2881 0.6954 0.5647
C9 C 0.2429(7) 0.9150(8) 0.5130(5)
H6 H 0.2897 0.9239 0.5677
C10 C 0.1713(7) 1.0370(7) 0.4321(5)
H7 H 0.1695 1.1305 0.4311
C11 C 0.1016(6) 1.0190(7) 0.3521(5)
C12 C 0.0175(7) 1.1407(7) 0.2694(5)
C13 C -0.1027(9) 1.3536(8) 0.1685(6)
H8 H -0.1435 1.4567 0.1392
C14 C -0.0497(7) 1.1138(7) 0.1930(5)
C15 C -0.0416(7) 0.9700(7) 0.1925(5)
C16 C -0.1086(8) 0.9386(8) 0.1182(5)
H9 H -0.1651 1.0159 0.0639
C17 C -0.0916(9) 0.7954(8) 0.1249(6)
H10 H -0.1358 0.7734 0.0756
C18 C -0.0063(8) 0.6820(8) 0.2075(5)
H11 H 0.0065 0.5836 0.2112
C19 C 0.0408(7) 0.8487(7) 0.2733(5)
C20 C 0.1118(7) 0.8753(7) 0.3548(5)
N1 N 0.1815(6) 0.7545(6) 0.4336(4)
N2 N -0.0171(7) 1.2911(6) 0.2524(4)
N3 N -0.1246(6) 1.2528(6) 0.1300(5)
H12 H -0.1766 1.2720 0.0752
N4 N 0.0566(6) 0.7069(6) 0.2802(4)
O1 O 0.3246(6) 0.2374(5) 0.5439(4)
O2 O 0.3601(5) 0.4091(5) 0.5996(4)
O3 O 0.4438(6) -0.2785(6) 0.7758(5)
O4 O 0.7158(5) -0.3498(5) 0.7140(4)
O5 O 0.6366(8) -0.3693(6) 0.9086(4)
O6 O 0.4421(5) 0.4913(6) 0.3560(4)
H13 H 0.487(8) 0.545(7) 0.358(5)
H14 H 0.465(8) 0.458(8) 0.297(4)
O7 O 0.0025(5) 0.5689(5) 0.5730(4)
S1 S 0.5934(2) -0.2899(2) 0.79883(14)
Eu1 Eu 0.19261(3) 0.49167(4) 0.43904(2)
H15 H 0.007(9) 0.604(9) 0.622(6)
O4A O 0.2842(5) 0.3498(5) 0.2860(4)
O7A O -0.0025(5) 0.4311(5) 0.4270(4)
Eu1A Eu -0.19261(3) 0.50833(4) 0.56096(2)
Eu1A_2 Eu 0.80739(3) -0.49167(4) 0.56096(2)
O8 O 0.3251(6) 0.6771(6) 0.0344(4)
H16 H 0.414(5) 0.675(9) 0.011(7)
H17 H 0.334(8) 0.600(6) 0.083(6)
loop_
_geom_bond_atom_site_label_1
_geom_bond_atom_site_label_2
_geom_bond_site_symmetry_1
_geom_bond_site_symmetry_2
C1 C2 1_555 1_555
C2 C3 1_555 1_555
C3 H1 1_555 1_555
C4 C3 1_555 1_555
C5 C4 1_555 1_555
H2 C5 1_555 1_555
C6 C5 1_555 1_555
H3 C6 1_555 1_555
C7 C2 1_555 1_555
H4 C7 1_555 1_555
C8 H5 1_555 1_555
C9 C8 1_555 1_555
H6 C9 1_555 1_555
C10 C9 1_555 1_555
H7 C10 1_555 1_555
C11 C10 1_555 1_555
C12 C11 1_555 1_555
C13 H8 1_555 1_555
C14 C12 1_555 1_555
C15 C14 1_555 1_555
C16 C15 1_555 1_555
H9 C16 1_555 1_555
C17 C16 1_555 1_555
H10 C17 1_555 1_555
C18 C17 1_555 1_555
H11 C18 1_555 1_555
C19 C15 1_555 1_555
C20 C11 1_555 1_555
N1 C8 1_555 1_555
N2 C12 1_555 1_555
N3 C13 1_555 1_555
H12 N3 1_555 1_555
N4 C18 1_555 1_555
O1 C1 1_555 1_555
O2 C1 1_555 1_555
O3 S1 1_555 1_555
O4 S1 1_555 1_555
O5 S1 1_555 1_555
O6 H13 1_555 1_555
H14 O6 1_555 1_555
O7 Eu1 1_555 1_555
S1 C4 1_555 1_555
Eu1 N1 1_555 1_555
H15 O7 1_555 1_555
O8 H16 1_555 1_555
H17 O8 1_555 1_555
O4A Eu1 1_555 1_555
O7A Eu1 1_555 1_555
Eu1A O7 1_555 1_555
Eu1A_2 O4 1_555 1_555
C6 C7 1_555 1_555
C13 N2 1_555 1_555
C14 N3 1_555 1_555
C19 C20 1_555 1_555
C19 N4 1_555 1_555
C20 N1 1_555 1_555
N4 Eu1 1_555 1_555
O1 Eu1 1_555 1_555
O2 Eu1 1_555 1_555
O6 Eu1 1_555 1_555
O7A Eu1A 1_555 1_555

#END
