
#######################################################################
#
#                 Cambridge Crystallographic Data Centre
#                                CCDC 
#
#######################################################################
#
# If this CIF has been generated from an entry in the Cambridge 
# Structural Database, then it will include bibliographic, chemical, 
# crystal, experimental, refinement or atomic coordinate data resulting 
# from the CCDC's data processing and validation procedures.
#
#######################################################################

data_HIGMOA
_symmetry_cell_setting           triclinic
_symmetry_space_group_name_H-M   'P -1'
_symmetry_Int_Tables_number      2
_space_group_name_Hall           '-P 1'
loop_
_symmetry_equiv_pos_site_id
_symmetry_equiv_pos_as_xyz
1 x,y,z
2 -x,-y,-z
_cell_length_a                   11.5080(14)
_cell_length_b                   19.262(2)
_cell_length_c                   20.466(2)
_cell_angle_alpha                108.102(2)
_cell_angle_beta                 104.842(2)
_cell_angle_gamma                91.297(2)
_cell_volume                     4142.35
loop_
_atom_site_label
_atom_site_type_symbol
_atom_site_fract_x
_atom_site_fract_y
_atom_site_fract_z
Zn1 Zn -0.60686(3) -0.31391(2) -0.20509(2)
O1 O -0.6492(2) -0.41976(13) -0.28368(12)
O3 O -0.5803(2) -0.36476(14) -0.12691(13)
O5 O -0.5731(2) -0.21178(13) -0.12827(13)
N1 N -0.4142(2) -0.31433(16) -0.19823(15)
N2 N 0.2006(2) -0.31688(15) -0.20481(15)
N3 N -0.6379(2) -0.27163(15) -0.29714(15)
N4 N -0.8064(3) -0.21710(19) -0.63741(18)
C1 C -0.3515(3) -0.2577(2) -0.20352(19)
H1 H -0.3917 -0.2159 -0.2070
C2 C -0.2318(3) -0.2568(2) -0.20425(19)
H2 H -0.1922 -0.2156 -0.2091
C3 C -0.1692(3) -0.31678(18) -0.19779(17)
C4 C -0.2330(3) -0.37490(19) -0.18988(19)
H3 H -0.1940 -0.4163 -0.1839
C5 C -0.3533(3) -0.37173(19) -0.19083(18)
H4 H -0.3953 -0.4121 -0.1860
C6 C -0.0415(3) -0.31785(19) -0.19923(17)
C7 C 0.0338(3) -0.25214(19) -0.17847(18)
H5 H 0.0036 -0.2063 -0.1622
C8 C 0.1514(3) -0.25413(19) -0.18175(18)
H6 H 0.2008 -0.2088 -0.1670
C9 C 0.1289(3) -0.37984(19) -0.22355(18)
H7 H 0.1615 -0.4249 -0.2393
C10 C 0.0097(3) -0.38248(19) -0.22105(19)
H8 H -0.0369 -0.4285 -0.2343
C11 C -0.5772(3) -0.29627(19) -0.34654(19)
H9 H -0.5089 -0.3215 -0.3350
C12 C -0.6079(3) -0.28716(19) -0.41258(19)
H10 H -0.5611 -0.3058 -0.4450
C13 C -0.7076(3) -0.25059(18) -0.43214(19)
C14 C -0.7697(3) -0.22421(19) -0.38079(19)
H11 H -0.8383 -0.1987 -0.3909
C15 C -0.7322(3) -0.23491(19) -0.31552(19)
H12 H -0.7756 -0.2152 -0.2814
C16 C -0.7436(3) -0.24012(19) -0.50332(19)
C17 C -0.7067(3) -0.2835(2) -0.5607(2)
H13 H -0.6591 -0.3221 -0.5555
C18 C -0.7392(3) -0.2707(2) -0.6257(2)
H14 H -0.7126 -0.3014 -0.6641
C19 C -0.8430(3) -0.1762(2) -0.5820(2)
H15 H -0.8911 -0.1382 -0.5886
C20 C -0.8157(3) -0.1856(2) -0.5160(2)
H16 H -0.8458 -0.1551 -0.4791
H58 H -0.590(4) -0.205(2) -0.0836(14)
H59 H -0.518(3) -0.3489(18) -0.0840(14)
H61 H -0.608(3) -0.4133(11) -0.1350(17)
H65 H -0.706(3) -0.425(2) -0.3284(14)
H66 H -0.582(3) -0.445(2) -0.296(2)
H73 H -0.549(4) -0.1659(14) -0.129(2)
Zn1_2 Zn 0.39314(3) -0.31391(2) -0.20509(2)
N2_2 N -0.7994(2) -0.31688(15) -0.20481(15)
Zn2 Zn -0.38492(3) 0.81276(2) -0.79561(2)
O7 O -0.4205(2) 0.85940(14) -0.87724(14)
O9 O -0.3496(2) 0.91926(13) -0.71783(13)
O11 O -0.4189(2) 0.70809(13) -0.86895(13)
N5 N -0.3374(2) 0.77322(15) -0.70161(15)
N6 N -0.1746(3) 0.71890(19) -0.36085(18)
N7 N -0.5778(2) 0.81541(15) -0.79737(15)
N8 N -1.1976(2) 0.81425(15) -0.80086(14)
C21 C -0.2278(3) 0.79784(19) -0.65434(19)
H17 H -0.1705 0.8235 -0.6671
C22 C -0.1940(3) 0.78790(19) -0.58842(19)
H18 H -0.1147 0.8055 -0.5577
C23 C -0.2766(3) 0.75182(18) -0.56675(19)
C24 C -0.3896(3) 0.72620(19) -0.6161(2)
H19 H -0.4493 0.7008 -0.6047
C25 C -0.4152(3) 0.73743(19) -0.6811(2)
H20 H -0.4929 0.7187 -0.7136
C26 C -0.2431(3) 0.74127(19) -0.49565(19)
C27 C -0.1491(3) 0.7855(2) -0.4393(2)
H21 H -0.1057 0.8246 -0.4452
C28 C -0.1189(4) 0.7723(2) -0.3744(2)
H22 H -0.0540 0.8034 -0.3371
C29 C -0.2661(4) 0.6772(2) -0.4155(2)
H23 H -0.3085 0.6389 -0.4077
C30 C -0.3032(3) 0.6856(2) -0.4819(2)
H24 H -0.3688 0.6539 -0.5180
C31 C -0.6259(3) 0.87866(19) -0.77567(19)
H25 H -0.5747 0.9235 -0.7598
C32 C -0.7456(3) 0.88203(19) -0.7752(2)
H26 H -0.7748 0.9283 -0.7593
C33 C -0.8234(3) 0.81706(18) -0.79831(18)
C34 C -0.7737(3) 0.75192(19) -0.8223(2)
H27 H -0.8226 0.7061 -0.8393
C35 C -0.6535(3) 0.7540(2) -0.82139(19)
H28 H -0.6227 0.7087 -0.8390
C36 C -0.9518(3) 0.81707(18) -0.79905(17)
C37 C -1.0158(3) 0.75583(19) -0.79593(19)
H29 H -0.9761 0.7137 -0.7930
C38 C -1.1356(3) 0.75665(19) -0.79711(19)
H30 H -1.1767 0.7143 -0.7952
C39 C -1.1372(3) 0.87242(19) -0.80489(19)
H31 H -1.1796 0.9135 -0.8083
C40 C -1.0167(3) 0.87605(19) -0.80436(19)
H32 H -0.9785 0.9186 -0.8076
H60 H -0.360(4) 0.918(2) -0.6729(15)
H62 H -0.407(4) 0.701(2) -0.9148(13)
H63 H -0.278(2) 0.9496(18) -0.7057(18)
H64 H -0.398(3) 0.9083(11) -0.8711(19)
H72 H -0.454(3) 0.6635(14) -0.8700(19)
H80 H -0.492(3) 0.843(2) -0.9146(19)
Zn2_2 Zn -1.38492(3) 0.81276(2) -0.79561(2)
N8_2 N -0.1976(2) 0.81425(15) -0.80086(14)
Cl1 Cl -0.94218(10) 0.53472(6) -0.88496(6)
O6 O -0.9559(10) 0.4612(5) -0.9204(6)
O8 O -0.8835(5) 0.5737(3) -0.9226(3)
O10 O -1.0651(5) 0.5596(4) -0.8938(4)
O12 O -0.8761(3) 0.5530(2) -0.81092(17)
Cl2 Cl -0.05244(8) -0.04104(5) -0.11590(5)
O14 O -0.0451(5) -0.0847(2) -0.0730(2)
O15 O -0.1598(3) -0.00407(19) -0.1155(2)
O17 O 0.0468(3) 0.01438(19) -0.09122(18)
O19 O -0.0612(2) -0.08728(15) -0.18834(14)
Cl3 Cl 0.57742(8) 0.48458(5) 0.62285(5)
O22 O 0.5621(3) 0.55776(15) 0.62412(18)
O23 O 0.6984(2) 0.47960(17) 0.66132(15)
O25 O 0.4940(2) 0.46367(17) 0.65774(17)
O27 O 0.5510(3) 0.43609(16) 0.55074(15)
Cl4 Cl 0.95953(8) 0.01942(5) 0.38076(5)
O29 O 0.9476(3) -0.05637(15) 0.37429(16)
O30 O 1.0389(2) 0.03266(16) 0.34137(14)
O31 O 1.0030(2) 0.06377(15) 0.45418(14)
O32 O 0.8402(2) 0.03837(15) 0.35036(15)
O2 O -0.4166(2) 0.68399(15) -1.00192(13)
O4 O 0.4013(2) 0.81463(14) -0.99830(13)
N13 N -0.3037(3) 0.70199(17) -1.00092(15)
N14 N 0.2907(3) 0.79706(17) -0.99658(15)
C61 C -0.2181(3) 0.6570(2) -0.9889(2)
H49 H -0.2387 0.6126 -0.9815
C62 C -0.1018(3) 0.6754(2) -0.9875(2)
H50 H -0.0425 0.6432 -0.9792
C63 C -0.0684(3) 0.73980(19) -0.99785(18)
C64 C -0.1586(3) 0.7856(2) -1.0093(2)
H51 H -0.1395 0.8306 -1.0161
C65 C -0.2755(3) 0.7654(2) -1.0106(2)
H52 H -0.3364 0.7967 -1.0185
C66 C 0.0565(3) 0.75954(19) -0.99709(18)
C67 C 0.1328(3) 0.7055(2) -1.01563(19)
H53 H 0.1046 0.6550 -1.0288
C68 C 0.2482(3) 0.7257(2) -1.0146(2)
H54 H 0.2996 0.6888 -1.0269
C69 C 0.2202(3) 0.8502(2) -0.9776(2)
H55 H 0.2505 0.9003 -0.9645
C70 C 0.1044(3) 0.8321(2) -0.9769(2)
H56 H 0.0562 0.8702 -0.9624
O13 O -0.2847(3) 0.4564(3) -0.99334(19)
H82 H -0.350(4) 0.440(4) -1.036(2)
H84 H -0.220(5) 0.477(6) -1.005(4)
O16 O -0.7109(3) 0.0522(2) 0.01048(18)
H81 H -0.685(5) 0.035(4) -0.033(2)
H83 H -0.798(2) 0.031(5) -0.010(3)
O18 O -0.6276(3) 0.59504(17) -0.76624(17)
H70 H -0.7111(17) 0.581(2) -0.781(2)
H79 H -0.596(4) 0.576(3) -0.728(2)
O20 O -0.8463(2) -0.08864(15) -0.22975(15)
H67 H -0.858(3) -0.078(2) -0.2721(15)
H68 H -0.917(2) -0.085(2) -0.2161(18)
O21 O -0.3442(2) 0.50156(15) -0.86972(16)
H71 H -0.290(3) 0.534(2) -0.8292(15)
H78 H -0.311(5) 0.489(4) -0.909(2)
O24 O -0.6621(3) 0.00651(14) -0.12100(16)
H69 H -0.730(3) -0.025(2) -0.157(2)
H76 H -0.600(3) -0.025(3) -0.118(3)
O26 O -0.4621(3) 0.41974(15) -1.12078(16)
H75 H -0.528(3) 0.447(3) -1.128(3)
H77 H -0.421(3) 0.419(2) -1.1557(19)
O28 O -0.4797(2) -0.08244(14) -0.12675(15)
H57 H -0.467(4) -0.091(3) -0.1708(12)
H74 H -0.406(3) -0.074(3) -0.0903(16)
N9 N -0.4502(3) 0.90937(16) 0.74155(16)
N10 N -0.3971(3) 0.92585(17) 0.40890(17)
C41 C -0.5458(3) 0.91821(19) 0.6931(2)
H33 H -0.6211 0.9223 0.7043
C42 C -0.5409(3) 0.92169(19) 0.62735(19)
H34 H -0.6118 0.9270 0.5940
C43 C -0.4300(3) 0.91735(19) 0.61041(19)
C44 C -0.3311(3) 0.9089(2) 0.6613(2)
H35 H -0.2542 0.9057 0.6522
C45 C -0.3444(3) 0.9052(2) 0.7252(2)
H36 H -0.2751 0.8994 0.7593
C46 C -0.4200(3) 0.92098(19) 0.54071(19)
C47 C -0.5156(3) 0.89601(19) 0.47901(19)
H37 H -0.5909 0.8765 0.4807
C48 C -0.5014(3) 0.8996(2) 0.4154(2)
H38 H -0.5685 0.8826 0.3740
C49 C -0.3046(3) 0.9498(2) 0.4686(2)
H39 H -0.2300 0.9682 0.4651
C50 C -0.3117(3) 0.9491(2) 0.5339(2)
H40 H -0.2437 0.9675 0.5746
N11 N -0.8129(3) 0.57598(17) -0.40859(17)
N12 N -1.1889(3) 0.59081(17) -0.73784(16)
C51 C -0.7806(3) 0.5526(2) -0.4694(2)
H41 H -0.7049 0.5334 -0.4676
C52 C -0.8498(3) 0.5545(2) -0.5344(2)
H42 H -0.8220 0.5369 -0.5759
C53 C -0.9613(3) 0.58275(19) -0.53874(19)
C54 C -0.9949(3) 0.60750(19) -0.4752(2)
H43 H -1.0697 0.6274 -0.4751
C55 C -0.9201(3) 0.6032(2) -0.4128(2)
H44 H -0.9454 0.6204 -0.3704
C56 C -1.0390(3) 0.58654(19) -0.60708(19)
C57 C -0.9914(3) 0.5931(2) -0.6606(2)
H45 H -0.9064 0.5957 -0.6541
C58 C -1.0681(3) 0.5957(2) -0.7239(2)
H46 H -1.0332 0.6014 -0.7595
C59 C -1.2341(3) 0.58516(19) -0.6858(2)
H47 H -1.3195 0.5821 -0.6941
C60 C -1.1651(3) 0.58340(18) -0.62064(19)
H48 H -1.2026 0.5801 -0.5852
O33? O -0.8541(10) 0.5146(9) -0.9223(5)
O34? O -0.0008(17) 0.5884(5) -0.8881(7)
O35? O -0.0113(11) 0.4672(5) -0.9000(6)
loop_
_geom_bond_atom_site_label_1
_geom_bond_atom_site_label_2
_geom_bond_site_symmetry_1
_geom_bond_site_symmetry_2
Zn1 O1 1_555 1_555
Zn2 O7 1_555 1_555
Cl1 O6 1_555 1_555
Cl2 O14 1_555 1_555
Cl3 O22 1_555 1_555
Cl4 O29 1_555 1_555
O1 H65 1_555 1_555
O2 N13 1_555 1_555
O3 Zn1 1_555 1_555
O4 N14 1_555 1_555
O5 Zn1 1_555 1_555
O7 H64 1_555 1_555
O8 Cl1 1_555 1_555
O9 Zn2 1_555 1_555
O10 Cl1 1_555 1_555
O11 Zn2 1_555 1_555
O12 Cl1 1_555 1_555
O13 H82 1_555 1_555
O15 Cl2 1_555 1_555
O16 H81 1_555 1_555
O17 Cl2 1_555 1_555
O18 H70 1_555 1_555
O19 Cl2 1_555 1_555
O20 H67 1_555 1_555
O21 H71 1_555 1_555
O23 Cl3 1_555 1_555
O24 H69 1_555 1_555
O25 Cl3 1_555 1_555
O26 H75 1_555 1_555
O27 Cl3 1_555 1_555
O28 H57 1_555 1_555
O30 Cl4 1_555 1_555
O31 Cl4 1_555 1_555
O32 Cl4 1_555 1_555
N1 Zn1 1_555 1_555
N2 C8 1_555 1_555
N3 Zn1 1_555 1_555
N4 C18 1_555 1_555
N5 Zn2 1_555 1_555
N6 C28 1_555 1_555
N7 Zn2 1_555 1_555
N8 C38 1_555 1_555
N9 C41 1_555 1_555
N10 C48 1_555 1_555
N11 C51 1_555 1_555
N12 C58 1_555 1_555
N13 C61 1_555 1_555
N14 C68 1_555 1_555
C1 N1 1_555 1_555
H1 C1 1_555 1_555
C2 C1 1_555 1_555
H2 C2 1_555 1_555
C3 C2 1_555 1_555
C4 C3 1_555 1_555
H3 C4 1_555 1_555
C5 N1 1_555 1_555
H4 C5 1_555 1_555
C6 C3 1_555 1_555
C7 C6 1_555 1_555
H5 C7 1_555 1_555
C8 C7 1_555 1_555
H6 C8 1_555 1_555
C9 N2 1_555 1_555
H7 C9 1_555 1_555
C10 C6 1_555 1_555
H8 C10 1_555 1_555
C11 N3 1_555 1_555
H9 C11 1_555 1_555
C12 C11 1_555 1_555
H10 C12 1_555 1_555
C13 C12 1_555 1_555
C14 C13 1_555 1_555
H11 C14 1_555 1_555
C15 N3 1_555 1_555
H12 C15 1_555 1_555
C16 C13 1_555 1_555
C17 C16 1_555 1_555
H13 C17 1_555 1_555
C18 C17 1_555 1_555
H14 C18 1_555 1_555
C19 N4 1_555 1_555
H15 C19 1_555 1_555
C20 C16 1_555 1_555
H16 C20 1_555 1_555
C21 N5 1_555 1_555
H17 C21 1_555 1_555
C22 C21 1_555 1_555
H18 C22 1_555 1_555
C23 C22 1_555 1_555
C24 C23 1_555 1_555
H19 C24 1_555 1_555
C25 N5 1_555 1_555
H20 C25 1_555 1_555
C26 C23 1_555 1_555
C27 C26 1_555 1_555
H21 C27 1_555 1_555
C28 C27 1_555 1_555
H22 C28 1_555 1_555
C29 N6 1_555 1_555
H23 C29 1_555 1_555
C30 C26 1_555 1_555
H24 C30 1_555 1_555
C31 N7 1_555 1_555
H25 C31 1_555 1_555
C32 C31 1_555 1_555
H26 C32 1_555 1_555
C33 C32 1_555 1_555
C34 C33 1_555 1_555
H27 C34 1_555 1_555
C35 N7 1_555 1_555
H28 C35 1_555 1_555
C36 C33 1_555 1_555
C37 C36 1_555 1_555
H29 C37 1_555 1_555
C38 C37 1_555 1_555
H30 C38 1_555 1_555
C39 N8 1_555 1_555
H31 C39 1_555 1_555
C40 C36 1_555 1_555
H32 C40 1_555 1_555
C41 H33 1_555 1_555
C42 C41 1_555 1_555
H34 C42 1_555 1_555
C43 C42 1_555 1_555
C44 C43 1_555 1_555
H35 C44 1_555 1_555
C45 N9 1_555 1_555
H36 C45 1_555 1_555
C46 C43 1_555 1_555
C47 C46 1_555 1_555
H37 C47 1_555 1_555
C48 C47 1_555 1_555
H38 C48 1_555 1_555
C49 N10 1_555 1_555
H39 C49 1_555 1_555
C50 C46 1_555 1_555
H40 C50 1_555 1_555
C51 H41 1_555 1_555
C52 C51 1_555 1_555
H42 C52 1_555 1_555
C53 C52 1_555 1_555
C54 C53 1_555 1_555
H43 C54 1_555 1_555
C55 N11 1_555 1_555
H44 C55 1_555 1_555
C56 C53 1_555 1_555
C57 C56 1_555 1_555
H45 C57 1_555 1_555
C58 C57 1_555 1_555
H46 C58 1_555 1_555
C59 N12 1_555 1_555
H47 C59 1_555 1_555
C60 C56 1_555 1_555
H48 C60 1_555 1_555
C61 H49 1_555 1_555
C62 C61 1_555 1_555
H50 C62 1_555 1_555
C63 C62 1_555 1_555
C64 C63 1_555 1_555
H51 C64 1_555 1_555
C65 N13 1_555 1_555
H52 C65 1_555 1_555
C66 C63 1_555 1_555
C67 C66 1_555 1_555
H53 C67 1_555 1_555
C68 C67 1_555 1_555
H54 C68 1_555 1_555
C69 N14 1_555 1_555
H55 C69 1_555 1_555
C70 C66 1_555 1_555
H56 C70 1_555 1_555
H58 O5 1_555 1_555
H59 O3 1_555 1_555
H60 O9 1_555 1_555
H61 O3 1_555 1_555
H62 O11 1_555 1_555
H63 O9 1_555 1_555
H66 O1 1_555 1_555
H68 O20 1_555 1_555
H72 O11 1_555 1_555
H73 O5 1_555 1_555
H74 O28 1_555 1_555
H76 O24 1_555 1_555
H77 O26 1_555 1_555
H78 O21 1_555 1_555
H79 O18 1_555 1_555
H80 O7 1_555 1_555
H83 O16 1_555 1_555
H84 O13 1_555 1_555
Zn1_2 N2 1_555 1_555
Zn2_2 N8 1_555 1_555
N2_2 Zn1 1_555 1_555
N8_2 Zn2 1_555 1_555
C4 C5 1_555 1_555
C9 C10 1_555 1_555
C14 C15 1_555 1_555
C19 C20 1_555 1_555
C24 C25 1_555 1_555
C29 C30 1_555 1_555
C34 C35 1_555 1_555
C39 C40 1_555 1_555
C44 C45 1_555 1_555
C49 C50 1_555 1_555
C54 C55 1_555 1_555
C59 C60 1_555 1_555
C64 C65 1_555 1_555
C69 C70 1_555 1_555

#END
