
#######################################################################
#
#                 Cambridge Crystallographic Data Centre
#                                CCDC 
#
#######################################################################
#
# If this CIF has been generated from an entry in the Cambridge 
# Structural Database, then it will include bibliographic, chemical, 
# crystal, experimental, refinement or atomic coordinate data resulting 
# from the CCDC's data processing and validation procedures.
#
#######################################################################

data_HIGMIU
_symmetry_cell_setting           triclinic
_symmetry_space_group_name_H-M   'P -1'
_symmetry_Int_Tables_number      2
_space_group_name_Hall           '-P 1'
loop_
_symmetry_equiv_pos_site_id
_symmetry_equiv_pos_as_xyz
1 x,y,z
2 -x,-y,-z
_cell_length_a                   6.7478(3)
_cell_length_b                   10.4917(3)
_cell_length_c                   11.4993(5)
_cell_angle_alpha                64.7370(10)
_cell_angle_beta                 87.555(2)
_cell_angle_gamma                73.999(2)
_cell_volume                     705.079
loop_
_atom_site_label
_atom_site_type_symbol
_atom_site_fract_x
_atom_site_fract_y
_atom_site_fract_z
Ag1 Ag 0.86507(5) 0.20798(3) 0.55328(3)
Ag2 Ag 0.74231(5) 0.03055(3) 0.43671(3)
O1 O 0.7914(4) 0.1832(3) 0.8214(2)
O2 O 0.7232(5) -0.2718(3) 1.0655(2)
O3 O 0.7255(5) -0.1099(3) 0.6340(2)
O4 O 0.7689(4) 0.3508(3) 0.3274(2)
O5 O 0.7470(5) 0.5130(3) -0.1052(2)
O6 O 0.7424(4) 0.0437(3) 0.1491(2)
N1 N 1.1269(5) 0.3083(3) 0.5292(3)
N2 N 0.7614(5) 0.0458(3) 0.7183(3)
N3 N 0.7477(5) -0.0407(3) 0.9439(3)
H1 H 0.7426 -0.0233 1.0107
N4 N 0.7366(5) -0.1918(3) 0.8485(3)
H2 H 0.7352 -0.2758 0.8537
N5 N 0.7594(5) 0.4308(3) 0.1125(3)
H3 H 0.7632 0.5151 0.1054
N6 N 0.7529(5) 0.2760(3) 0.0217(3)
H4 H 0.7558 0.2582 -0.0448
N7 N 0.7535(5) 0.1895(3) 0.2472(3)
C1 C 1.1787(6) 0.3914(4) 0.4142(4)
H5 H 1.1146 0.3984 0.3408
C2 C 1.3227(6) 0.4678(4) 0.3982(3)
H6 H 1.3529 0.5247 0.3157
C3 C 1.4229(5) 0.4593(3) 0.5062(3)
C4 C 1.3680(6) 0.3723(4) 0.6259(3)
H7 H 1.4296 0.3629 0.7010
C5 C 1.2220(6) 0.2999(4) 0.6332(4)
H8 H 1.1881 0.2423 0.7143
C6 C 0.7686(5) 0.0686(4) 0.8266(3)
C7 C 0.7346(6) -0.1748(4) 0.9603(3)
C8 C 0.7406(5) -0.0821(4) 0.7285(3)
C9 C 0.7610(5) 0.3228(4) 0.2351(3)
C10 C 0.7489(5) 0.1626(4) 0.1414(3)
C11 C 0.7525(6) 0.4139(4) 0.0021(3)
Ag1A Ag 2.13493(5) 0.79202(3) 0.44672(3)
Ag1A_2 Ag 1.13493(5) -0.20798(3) 0.44672(3)
Ag2A Ag 1.25769(5) -0.03055(3) 0.56329(3)
Ag2_2 Ag 1.74231(5) 1.03055(3) 0.43671(3)
Ag2A_2 Ag 2.25769(5) 0.96945(3) 0.56329(3)
O1A O 2.2086(4) 0.8168(3) 0.1786(2)
O2A O 2.2768(5) 1.2718(3) -0.0655(2)
O3A O 2.2745(5) 1.1099(3) 0.3660(2)
O3A_2 O 1.2745(5) 0.1099(3) 0.3660(2)
O4A O 2.2311(4) 0.6492(3) 0.6726(2)
O5A O 2.2530(5) 0.4870(3) 1.1052(2)
O6A O 2.2576(4) 0.9563(3) 0.8509(2)
N1A N 1.8731(5) 0.6917(3) 0.4708(3)
N2A N 2.2386(5) 0.9542(3) 0.2817(3)
N3A N 2.2523(5) 1.0407(3) 0.0561(3)
H1A H 2.2574 1.0233 -0.0107
N4A N 2.2634(5) 1.1918(3) 0.1515(3)
H2A H 2.2648 1.2758 0.1463
N5A N 2.2406(5) 0.5692(3) 0.8875(3)
H3A H 2.2368 0.4849 0.8946
N6A N 2.2471(5) 0.7240(3) 0.9783(3)
H4A H 2.2442 0.7418 1.0448
N7A N 2.2465(5) 0.8105(3) 0.7528(3)
N7A_2 N 1.2465(5) -0.1895(3) 0.7528(3)
C1A C 1.8213(6) 0.6086(4) 0.5858(4)
H5A H 1.8854 0.6016 0.6592
C2A C 1.6773(6) 0.5322(4) 0.6018(3)
H6A H 1.6471 0.4753 0.6843
C3A C 1.5771(5) 0.5407(3) 0.4938(3)
C4A C 1.6320(6) 0.6277(4) 0.3741(3)
H7A H 1.5704 0.6371 0.2990
C5A C 1.7780(6) 0.7001(4) 0.3668(4)
H8A H 1.8119 0.7577 0.2857
C6A C 2.2314(5) 0.9314(4) 0.1734(3)
C7A C 2.2654(6) 1.1748(4) 0.0397(3)
C8A C 2.2594(5) 1.0821(4) 0.2715(3)
C9A C 2.2390(5) 0.6772(4) 0.7649(3)
C10A C 2.2511(5) 0.8374(4) 0.8586(3)
C11A C 2.2475(6) 0.5861(4) 0.9979(3)
loop_
_geom_bond_atom_site_label_1
_geom_bond_atom_site_label_2
_geom_bond_site_symmetry_1
_geom_bond_site_symmetry_2
Ag1 Ag2 1_555 1_555
Ag2 O3 1_555 1_555
O1 C6 1_555 1_555
O2 C7 1_555 1_555
O3 C8 1_555 1_555
O4 Ag1 1_555 1_555
O5 C11 1_555 1_555
O6 C10 1_555 1_555
N1 Ag1 1_555 1_555
N2 Ag1 1_555 1_555
N3 H1 1_555 1_555
N4 H2 1_555 1_555
N5 H3 1_555 1_555
N6 H4 1_555 1_555
N7 Ag2 1_555 1_555
C1 N1 1_555 1_555
H5 C1 1_555 1_555
C2 C1 1_555 1_555
H6 C2 1_555 1_555
C3 C2 1_555 1_555
C4 C3 1_555 1_555
H7 C4 1_555 1_555
C5 N1 1_555 1_555
H8 C5 1_555 1_555
C6 N2 1_555 1_555
C7 N3 1_555 1_555
C8 N2 1_555 1_555
C9 O4 1_555 1_555
C10 N6 1_555 1_555
C11 N5 1_555 1_555
Ag1A Ag2_2 1_555 1_555
Ag1A_2 Ag2 1_555 1_555
Ag2A Ag1 1_555 1_555
Ag2A_2 Ag1A 1_555 1_555
O1A C6A 1_555 1_555
O2A C7A 1_555 1_555
O3A Ag2A_2 1_555 1_555
O3A_2 Ag2A 1_555 1_555
O4A Ag1A 1_555 1_555
O5A C11A 1_555 1_555
O6A C10A 1_555 1_555
N1A Ag1A 1_555 1_555
N2A Ag1A 1_555 1_555
N3A H1A 1_555 1_555
N4A H2A 1_555 1_555
N5A H3A 1_555 1_555
N6A H4A 1_555 1_555
N7A Ag2A_2 1_555 1_555
N7A_2 Ag2A 1_555 1_555
C1A N1A 1_555 1_555
H5A C1A 1_555 1_555
C2A C1A 1_555 1_555
H6A C2A 1_555 1_555
C3A C3 1_555 1_555
C4A C3A 1_555 1_555
H7A C4A 1_555 1_555
C5A N1A 1_555 1_555
H8A C5A 1_555 1_555
C6A N2A 1_555 1_555
C7A N3A 1_555 1_555
C8A O3A 1_555 1_555
C9A O4A 1_555 1_555
C10A N6A 1_555 1_555
C11A N5A 1_555 1_555
N3 C6 1_555 1_555
N4 C7 1_555 1_555
N4 C8 1_555 1_555
N5 C9 1_555 1_555
N6 C11 1_555 1_555
N7 C9 1_555 1_555
N7 C10 1_555 1_555
C4 C5 1_555 1_555
Ag1A_2 Ag2A 1_555 1_555
N2A C8A 1_555 1_555
N3A C6A 1_555 1_555
N4A C7A 1_555 1_555
N4A C8A 1_555 1_555
N5A C9A 1_555 1_555
N6A C11A 1_555 1_555
N7A C9A 1_555 1_555
N7A C10A 1_555 1_555
C2A C3A 1_555 1_555
C4A C5A 1_555 1_555

#END
