
#######################################################################
#
#                 Cambridge Crystallographic Data Centre
#                                CCDC 
#
#######################################################################
#
# If this CIF has been generated from an entry in the Cambridge 
# Structural Database, then it will include bibliographic, chemical, 
# crystal, experimental, refinement or atomic coordinate data resulting 
# from the CCDC's data processing and validation procedures.
#
#######################################################################

data_HIGNIW
_symmetry_cell_setting           monoclinic
_symmetry_space_group_name_H-M   'P 21/c'
_symmetry_Int_Tables_number      14
_space_group_name_Hall           '-P 2ybc'
loop_
_symmetry_equiv_pos_site_id
_symmetry_equiv_pos_as_xyz
1 x,y,z
2 -x,1/2+y,1/2-z
3 -x,-y,-z
4 x,1/2-y,1/2+z
_cell_length_a                   14.326(3)
_cell_length_b                   17.238(3)
_cell_length_c                   7.4095(15)
_cell_angle_alpha                90
_cell_angle_beta                 97.40(3)
_cell_angle_gamma                90
_cell_volume                     1814.55
loop_
_atom_site_label
_atom_site_type_symbol
_atom_site_fract_x
_atom_site_fract_y
_atom_site_fract_z
Cd1 Cd 0.12887(2) 0.210730(15) 0.27209(4)
Cd2 Cd 0.00158(2) 0.040175(15) 0.25128(4)
O1 O -0.0162(2) 0.17086(16) 0.2741(4)
O2 O -0.3246(3) 0.3072(2) -0.0692(6)
O3 O 0.1537(2) 0.07443(16) 0.2731(4)
O4 O 0.4690(3) -0.0071(2) 0.6990(5)
O5 O 0.1229(2) 0.32635(15) 0.1027(4)
O6 O 0.1080(2) 0.31898(16) 0.4567(4)
O7 O 0.0408(2) 0.43704(17) 0.0810(4)
O8 O 0.0253(2) 0.42944(16) 0.4363(4)
N1 N -0.1569(3) 0.0768(2) 0.1287(5)
N2 N -0.0966(3) 0.2795(2) 0.1831(5)
N3 N -0.1792(3) 0.3106(2) 0.0934(6)
H1 H -0.1822 0.3604 0.0901
N4 N 0.2838(3) 0.1875(2) 0.3660(5)
N5 N 0.2416(3) -0.0168(2) 0.4377(5)
N6 N 0.3256(3) -0.0335(2) 0.5449(6)
H2 H 0.3317 -0.0803 0.5845
C1 C -0.2275(3) 0.0324(3) 0.0531(7)
H3 H -0.2207 -0.0212 0.0627
C2 C -0.3107(3) 0.0616(3) -0.0392(8)
H4 H -0.3581 0.0282 -0.0893
C3 C -0.3216(3) 0.1406(3) -0.0552(7)
H5 H -0.3764 0.1619 -0.1165
C4 C -0.2487(3) 0.1881(3) 0.0228(6)
C5 C -0.1677(3) 0.1544(2) 0.1116(6)
C6 C -0.0918(3) 0.2044(2) 0.1921(5)
C7 C -0.2549(3) 0.2729(3) 0.0113(7)
C8 C 0.3514(4) 0.2398(3) 0.4028(7)
H6 H 0.3387 0.2909 0.3675
C9 C 0.4406(4) 0.2221(3) 0.4915(8)
H7 H 0.4872 0.2599 0.5084
C10 C 0.4583(3) 0.1483(3) 0.5533(7)
H8 H 0.5171 0.1350 0.6136
C11 C 0.3864(3) 0.0930(3) 0.5241(6)
C12 C 0.3014(3) 0.1135(2) 0.4255(6)
C13 C 0.2289(3) 0.0540(2) 0.3772(6)
C14 C 0.3988(3) 0.0138(3) 0.5953(6)
C15 C 0.0686(3) 0.3754(2) 0.3715(5)
C16 C 0.0774(3) 0.3795(2) 0.1673(5)
Cd1C Cd 0.12887(2) 0.289270(15) -0.22791(4)
Cd1C_2 Cd 0.12887(2) 0.289270(15) 0.77209(4)
Cd2A Cd -0.00158(2) 0.540175(15) 0.24872(4)
Cd2C Cd 0.00158(2) 0.459825(15) -0.24872(4)
Cd2C_2 Cd 0.00158(2) 0.459825(15) 0.75128(4)
O5C O 0.1229(2) 0.17365(15) 0.6027(4)
O6C O 0.1080(2) 0.18102(16) -0.0433(4)
O7A O -0.0408(2) -0.06296(17) 0.4190(4)
O7C O 0.0408(2) 0.06296(17) 0.5810(4)
O8A O -0.0253(2) -0.07056(16) 0.0637(4)
O8C O 0.0253(2) 0.07056(16) -0.0637(4)
O9 O 0.5500(4) -0.0972(3) 0.9939(7)
loop_
_geom_bond_atom_site_label_1
_geom_bond_atom_site_label_2
_geom_bond_site_symmetry_1
_geom_bond_site_symmetry_2
Cd1 O1 1_555 1_555
Cd2 O1 1_555 1_555
O1 C6 1_555 1_555
O2 C7 1_555 1_555
O3 Cd1 1_555 1_555
O4 C14 1_555 1_555
O5 Cd1 1_555 1_555
O6 Cd1 1_555 1_555
O7 C16 1_555 1_555
O8 C15 1_555 1_555
N1 Cd2 1_555 1_555
N2 N3 1_555 1_555
N3 H1 1_555 1_555
N4 Cd1 1_555 1_555
N5 N6 1_555 1_555
N6 H2 1_555 1_555
C1 N1 1_555 1_555
H3 C1 1_555 1_555
C2 C1 1_555 1_555
H4 C2 1_555 1_555
C3 C2 1_555 1_555
H5 C3 1_555 1_555
C4 C3 1_555 1_555
C5 N1 1_555 1_555
C6 N2 1_555 1_555
C7 N3 1_555 1_555
C8 N4 1_555 1_555
H6 C8 1_555 1_555
C9 C8 1_555 1_555
H7 C9 1_555 1_555
C10 C9 1_555 1_555
H8 C10 1_555 1_555
C11 C10 1_555 1_555
C12 N4 1_555 1_555
C13 O3 1_555 1_555
C14 N6 1_555 1_555
C15 O6 1_555 1_555
C16 O5 1_555 1_555
Cd1C O5 1_555 1_555
Cd1C_2 O6 1_555 1_555
Cd2A O7 1_555 1_555
Cd2C O7 1_555 1_555
Cd2C_2 O8 1_555 1_555
O5C Cd1 1_555 1_555
O6C Cd1 1_555 1_555
O7A Cd2 1_555 1_555
O7C Cd2 1_555 1_555
O8A Cd2 1_555 1_555
O8C Cd2 1_555 1_555
Cd2 O3 1_555 1_555
O8 Cd2A 1_555 1_555
N5 C13 1_555 1_555
C4 C5 1_555 1_555
C4 C7 1_555 1_555
C5 C6 1_555 1_555
C11 C12 1_555 1_555
C11 C14 1_555 1_555
C12 C13 1_555 1_555
C15 C16 1_555 1_555
Cd1C O6C 1_555 1_555
Cd1C_2 O5C 1_555 1_555

#END
