
#######################################################################
#
#                 Cambridge Crystallographic Data Centre
#                                CCDC 
#
#######################################################################
#
# If this CIF has been generated from an entry in the Cambridge 
# Structural Database, then it will include bibliographic, chemical, 
# crystal, experimental, refinement or atomic coordinate data resulting 
# from the CCDC's data processing and validation procedures.
#
#######################################################################

data_HIGNUH
_symmetry_cell_setting           tetragonal
_symmetry_space_group_name_H-M   'I -4 2 d'
_symmetry_Int_Tables_number      122
_space_group_name_Hall           'I -4 2bw'
loop_
_symmetry_equiv_pos_site_id
_symmetry_equiv_pos_as_xyz
1 x,y,z
2 y,-x,-z
3 -x,-y,z
4 -y,x,-z
5 1/2-x,y,3/4-z
6 1/2-y,-x,3/4+z
7 1/2+x,-y,3/4-z
8 1/2+y,x,3/4+z
9 1/2+x,1/2+y,1/2+z
10 1/2+y,1/2-x,1/2-z
11 1/2-x,1/2-y,1/2+z
12 1/2-y,1/2+x,1/2-z
13 -x,1/2+y,1/4-z
14 -y,1/2-x,1/4+z
15 x,1/2-y,1/4-z
16 y,1/2+x,1/4+z
_cell_length_a                   19.827(2)
_cell_length_b                   19.827(2)
_cell_length_c                   22.206(3)
_cell_angle_alpha                90
_cell_angle_beta                 90
_cell_angle_gamma                90
_cell_volume                     8729.4
loop_
_atom_site_label
_atom_site_type_symbol
_atom_site_fract_x
_atom_site_fract_y
_atom_site_fract_z
Au1 Au 0.20202(3) 0.19647(3) 0.06362(3)
P1 P 0.28410(19) 0.2713(2) 0.04807(16)
N1 N 0.1290(8) 0.1248(8) 0.0694(7)
C1 C 0.3592(7) 0.2588(8) 0.0937(6)
C2 C 0.4226(7) 0.2688(9) 0.0658(7)
H1 H 0.4239 0.2831 0.0260
C3 C 0.4824(9) 0.2583(12) 0.0956(7)
H2 H 0.5230 0.2626 0.0750
C4 C 0.1383(10) 0.0612(11) 0.0586(8)
H3 H 0.1818 0.0491 0.0472
C5 C 0.0928(11) 0.0097(10) 0.0618(9)
H4 H 0.1047 -0.0343 0.0520
C6 C 0.0276(11) 0.0262(11) 0.0804(7)
C7 C 0.0133(11) 0.0931(11) 0.0928(8)
H5 H -0.0300 0.1067 0.1035
C8 C 0.0658(11) 0.1392(11) 0.0888(7)
H6 H 0.0569 0.1834 0.1004
C11 C 0.3118(8) 0.2675(9) -0.0293(7)
C12 C 0.3301(8) 0.3294(12) -0.0601(8)
H7 H 0.3272 0.3715 -0.0419
C13 C 0.3529(10) 0.3207(12) -0.1207(8)
H8 H 0.3679 0.3587 -0.1412
C14 C 0.3542(11) 0.2644(17) -0.1488(11)
H9 H 0.3673 0.2633 -0.1890
C15 C 0.3360(9) 0.2034(12) -0.1192(9)
H10 H 0.3384 0.1623 -0.1393
C16 C 0.3139(10) 0.2064(14) -0.0584(11)
H11 H 0.3010 0.1672 -0.0384
C17 C 0.2585(8) 0.3562(7) 0.0585(7)
C18 C 0.1918(8) 0.3744(7) 0.0387(5)
H12 H 0.1624 0.3418 0.0239
C19 C 0.1722(10) 0.4414(8) 0.0421(7)
H13 H 0.1291 0.4537 0.0295
C20 C 0.2149(12) 0.4896(8) 0.0635(8)
H14 H 0.2011 0.5344 0.0646
C21 C 0.2770(14) 0.4728(11) 0.0831(10)
H15 H 0.3054 0.5063 0.0977
C22 C 0.2990(10) 0.4070(9) 0.0821(7)
H16 H 0.3414 0.3964 0.0973
Au1N Au 0.20202(3) 0.30353(3) 0.18638(3)
Au1B Au -0.20202(3) -0.19647(3) 0.06362(3)
P1N P 0.28410(19) 0.2287(2) 0.20193(16)
N1B N -0.1290(8) -0.1248(8) 0.0694(7)
N1N N 0.1290(8) 0.3752(8) 0.1806(7)
C1N C 0.3592(7) 0.2412(8) 0.1563(6)
C2N C 0.4226(7) 0.2312(9) 0.1842(7)
H1N H 0.4239 0.2169 0.2240
C3N C 0.4824(9) 0.2417(12) 0.1544(7)
H2N H 0.5230 0.2374 0.1750
C4B C -0.1383(10) -0.0612(11) 0.0586(8)
H3B H -0.1818 -0.0491 0.0472
C5B C -0.0928(11) -0.0097(10) 0.0618(9)
H4B H -0.1047 0.0343 0.0520
C6B C -0.0276(11) -0.0262(11) 0.0804(7)
C7B C -0.0133(11) -0.0931(11) 0.0928(8)
H5B H 0.0300 -0.1067 0.1035
C8B C -0.0658(11) -0.1392(11) 0.0888(7)
H6B H -0.0569 -0.1834 0.1004
C11N C 0.3118(8) 0.2325(9) 0.2793(7)
C12N C 0.3301(8) 0.1706(12) 0.3101(8)
H7N H 0.3272 0.1285 0.2919
C13N C 0.3529(10) 0.1793(12) 0.3707(8)
H8N H 0.3679 0.1413 0.3912
C14N C 0.3542(11) 0.2356(17) 0.3988(11)
H9N H 0.3673 0.2367 0.4390
C15N C 0.3360(9) 0.2966(12) 0.3692(9)
H10N H 0.3384 0.3377 0.3893
C16N C 0.3139(10) 0.2936(14) 0.3084(11)
H11N H 0.3010 0.3328 0.2884
C17N C 0.2585(8) 0.1438(7) 0.1915(7)
C18N C 0.1918(8) 0.1256(7) 0.2113(5)
H12N H 0.1624 0.1582 0.2261
C19N C 0.1722(10) 0.0586(8) 0.2079(7)
H13N H 0.1291 0.0463 0.2205
C20N C 0.2149(12) 0.0104(8) 0.1865(8)
H14N H 0.2011 -0.0344 0.1854
C21N C 0.2770(14) 0.0272(11) 0.1669(10)
H15N H 0.3054 -0.0063 0.1523
C22N C 0.2990(10) 0.0930(9) 0.1679(7)
H16N H 0.3414 0.1036 0.1527
C9 C -0.0040(16) 0.3075(17) 0.0149(17)
O1 O 0.0527(9) 0.3001(12) 0.0225(9)
O2 O -0.0518(13) 0.2711(16) 0.029(3)
C10 C -0.0287(16) 0.3756(18) -0.0098(15)
F1 F 0.0222(12) 0.3989(14) -0.0448(12)
F2 F -0.0450(14) 0.4197(11) 0.0311(9)
F3 F -0.0826(12) 0.3759(18) -0.0446(11)
Cl1 Cl 0.4315(11) 0.489(3) 0.967(2)
C23 C 0.5000 0.5000 0.919(3)
H17 H 0.5064 0.4607 0.8934
H18 H 0.4936 0.5393 0.8934
Cl1B Cl 0.5685(11) 0.511(3) 0.967(2)
loop_
_geom_bond_atom_site_label_1
_geom_bond_atom_site_label_2
_geom_bond_site_symmetry_1
_geom_bond_site_symmetry_2
Au1 P1 1_555 1_555
P1 C1 1_555 1_555
N1 Au1 1_555 1_555
C1 C2 1_555 1_555
C2 H1 1_555 1_555
C3 C2 1_555 1_555
H2 C3 1_555 1_555
C4 N1 1_555 1_555
H3 C4 1_555 1_555
C5 C4 1_555 1_555
H4 C5 1_555 1_555
C6 C5 1_555 1_555
C7 C6 1_555 1_555
H5 C7 1_555 1_555
C8 N1 1_555 1_555
H6 C8 1_555 1_555
C9 O1 1_555 1_555
O2 C9 1_555 1_555
C10 C9 1_555 1_555
F1 C10 1_555 1_555
F2 C10 1_555 1_555
F3 C10 1_555 1_555
C11 P1 1_555 1_555
C12 C11 1_555 1_555
H7 C12 1_555 1_555
C13 C12 1_555 1_555
H8 C13 1_555 1_555
C14 C13 1_555 1_555
H9 C14 1_555 1_555
C15 C14 1_555 1_555
H10 C15 1_555 1_555
C16 C11 1_555 1_555
H11 C16 1_555 1_555
C17 P1 1_555 1_555
C18 C17 1_555 1_555
H12 C18 1_555 1_555
C19 C18 1_555 1_555
H13 C19 1_555 1_555
C20 C19 1_555 1_555
H14 C20 1_555 1_555
C21 C20 1_555 1_555
H15 C21 1_555 1_555
C22 C17 1_555 1_555
H16 C22 1_555 1_555
Cl1 C23 1_555 1_555
C23 H17 1_555 1_555
H18 C23 1_555 1_555
Au1N P1N 1_555 1_555
Au1B N1B 1_555 1_555
P1N C1N 1_555 1_555
N1B C4B 1_555 1_555
N1N Au1N 1_555 1_555
C1N C1 1_555 1_555
C2N C1N 1_555 1_555
H1N C2N 1_555 1_555
C3N C3 1_555 1_555
H2N C3N 1_555 1_555
C4B H3B 1_555 1_555
C5B C4B 1_555 1_555
H4B C5B 1_555 1_555
C6B C6 1_555 1_555
C7B C6B 1_555 1_555
H5B C7B 1_555 1_555
C8B N1B 1_555 1_555
H6B C8B 1_555 1_555
C11N P1N 1_555 1_555
C12N C11N 1_555 1_555
H7N C12N 1_555 1_555
C13N C12N 1_555 1_555
H8N C13N 1_555 1_555
C14N C13N 1_555 1_555
H9N C14N 1_555 1_555
C15N C14N 1_555 1_555
H10N C15N 1_555 1_555
C16N C11N 1_555 1_555
H11N C16N 1_555 1_555
C17N P1N 1_555 1_555
C18N C17N 1_555 1_555
H12N C18N 1_555 1_555
C19N C18N 1_555 1_555
H13N C19N 1_555 1_555
C20N C19N 1_555 1_555
H14N C20N 1_555 1_555
C21N C20N 1_555 1_555
H15N C21N 1_555 1_555
C22N C17N 1_555 1_555
H16N C22N 1_555 1_555
Cl1B C23 1_555 1_555
C7 C8 1_555 1_555
C15 C16 1_555 1_555
C21 C22 1_555 1_555
C2N C3N 1_555 1_555
C5B C6B 1_555 1_555
C7B C8B 1_555 1_555
C15N C16N 1_555 1_555
C21N C22N 1_555 1_555

#END
