
#######################################################################
#
#                 Cambridge Crystallographic Data Centre
#                                CCDC 
#
#######################################################################
#
# If this CIF has been generated from an entry in the Cambridge 
# Structural Database, then it will include bibliographic, chemical, 
# crystal, experimental, refinement or atomic coordinate data resulting 
# from the CCDC's data processing and validation procedures.
#
#######################################################################

data_HIGWUP
_symmetry_cell_setting           monoclinic
_symmetry_space_group_name_H-M   'P 21/n'
_symmetry_Int_Tables_number      14
_space_group_name_Hall           '-P 2yn'
loop_
_symmetry_equiv_pos_site_id
_symmetry_equiv_pos_as_xyz
1 x,y,z
2 1/2-x,1/2+y,1/2-z
3 -x,-y,-z
4 1/2+x,1/2-y,1/2+z
_cell_length_a                   9.170(1)
_cell_length_b                   16.1350(9)
_cell_length_c                   17.697(2)
_cell_angle_alpha                90
_cell_angle_beta                 96.980(6)
_cell_angle_gamma                90
_cell_volume                     2599.01
loop_
_atom_site_label
_atom_site_type_symbol
_atom_site_fract_x
_atom_site_fract_y
_atom_site_fract_z
Sn1 Sn 0.16084(3) 0.19838(2) 0.20031(1)
P1 P -0.1379(1) 0.41267(7) -0.13090(6)
O1 O 0.0397(3) 0.2841(2) 0.1271(1)
O2 O 0.1234(4) 0.2344(2) 0.0239(2)
O3 O 0.2886(3) 0.1086(2) 0.2940(1)
O4 O -0.2318(4) 0.4689(2) -0.0841(2)
O5 O 0.0036(4) 0.4637(2) -0.1334(2)
C1 C 0.3784(4) 0.2340(2) 0.1857(2)
C2 C 0.4600(5) 0.2812(3) 0.2406(2)
H1 H 0.4164(5) 0.3012(3) 0.2817(2)
C3 C 0.6074(5) 0.2992(3) 0.2351(3)
H2 H 0.6619(5) 0.3304(3) 0.2727(3)
C4 C 0.6710(5) 0.2708(4) 0.1740(3)
H3 H 0.7687(5) 0.2832(4) 0.1698(3)
C5 C 0.5914(5) 0.2242(4) 0.1193(3)
H4 H 0.6352(5) 0.2049(4) 0.0780(3)
C6 C 0.4460(5) 0.2057(3) 0.1251(2)
H5 H 0.3929(5) 0.1737(3) 0.0876(2)
C7 C 0.0664(4) 0.2537(3) 0.2923(2)
C8 C -0.0011(6) 0.2072(3) 0.3434(3)
H6 H -0.0024(6) 0.1498(3) 0.3392(3)
C9 C -0.0675(7) 0.2453(5) 0.4014(3)
H7 H -0.1136(7) 0.2131(5) 0.4351(3)
C10 C -0.0649(7) 0.3283(5) 0.4086(3)
H8 H -0.1087(7) 0.3536(5) 0.4473(3)
C11 C 0.0004(7) 0.3740(4) 0.3601(3)
H9 H 0.0020(7) 0.4314(4) 0.3655(3)
C12 C 0.0663(6) 0.3381(3) 0.3015(3)
H10 H 0.1107(6) 0.3716(3) 0.2681(3)
C13 C 0.0673(5) 0.0870(2) 0.1526(2)
C14 C 0.1499(6) 0.0193(3) 0.1404(3)
H11 H 0.2505(6) 0.0206(3) 0.1558(3)
C15 C 0.0879(8) -0.0513(3) 0.1057(3)
H12 H 0.1475(8) -0.0961(3) 0.0970(3)
C16 C -0.0568(8) -0.0558(4) 0.0845(3)
H13 H -0.0985(8) -0.1038(4) 0.0622(3)
C17 C -0.1422(7) 0.0108(4) 0.0959(4)
H14 H -0.2431(7) 0.0085(4) 0.0814(4)
C18 C -0.0791(6) 0.0825(3) 0.1294(3)
H15 H -0.1383(6) 0.1281(3) 0.1361(3)
C19 C 0.0464(4) 0.2814(2) 0.0541(2)
C20 C -0.0480(6) 0.3472(3) 0.0111(2)
H16 H -0.1352(6) 0.3557(3) 0.0361(2)
H17 H 0.0062(6) 0.3989(3) 0.0135(2)
C21 C -0.0937(6) 0.3261(3) -0.0700(2)
H18 H -0.1788(6) 0.2900(3) -0.0727(2)
H19 H -0.0150(6) 0.2951(3) -0.0889(2)
C22 C -0.3099(7) 0.5398(3) -0.1188(3)
H20 H -0.2408(7) 0.5804(3) -0.1337(3)
H21 H -0.3737(7) 0.5227(3) -0.1639(3)
C23 C -0.3957(9) 0.5754(4) -0.0640(4)
H22 H -0.4483(9) 0.6227(4) -0.0860(4)
H23 H -0.3317(9) 0.5922(4) -0.0197(4)
H24 H -0.4642(9) 0.5349(4) -0.0498(4)
C24 C 0.101(1) 0.4504(7) -0.1906(5)
H25 H 0.125(1) 0.3919(7) -0.1911(5)
H26 H 0.047(1) 0.4637(7) -0.2399(5)
C25 C 0.225(1) 0.4932(7) -0.1828(6)
H27 H 0.281(1) 0.4796(7) -0.2236(6)
H28 H 0.281(1) 0.4795(7) -0.1350(6)
H29 H 0.204(1) 0.5515(7) -0.1841(6)
O3C O -0.2114(3) 0.3914(2) -0.2060(1)
Sn1C Sn -0.33916(3) 0.30162(2) -0.29969(1)
loop_
_geom_bond_atom_site_label_1
_geom_bond_atom_site_label_2
_geom_bond_site_symmetry_1
_geom_bond_site_symmetry_2
Sn1 O1 1_555 1_555
P1 O4 1_555 1_555
O1 C19 1_555 1_555
O2 C19 1_555 1_555
O3 Sn1 1_555 1_555
O4 C22 1_555 1_555
O5 P1 1_555 1_555
C1 Sn1 1_555 1_555
C2 C1 1_555 1_555
H1 C2 1_555 1_555
C3 C2 1_555 1_555
H2 C3 1_555 1_555
C4 C3 1_555 1_555
H3 C4 1_555 1_555
C5 C4 1_555 1_555
H4 C5 1_555 1_555
C6 C1 1_555 1_555
H5 C6 1_555 1_555
C7 Sn1 1_555 1_555
C8 C7 1_555 1_555
H6 C8 1_555 1_555
C9 C8 1_555 1_555
H7 C9 1_555 1_555
C10 C9 1_555 1_555
H8 C10 1_555 1_555
C11 C10 1_555 1_555
H9 C11 1_555 1_555
C12 C7 1_555 1_555
H10 C12 1_555 1_555
C13 Sn1 1_555 1_555
C14 C13 1_555 1_555
H11 C14 1_555 1_555
C15 C14 1_555 1_555
H12 C15 1_555 1_555
C16 C15 1_555 1_555
H13 C16 1_555 1_555
C17 C16 1_555 1_555
H14 C17 1_555 1_555
C18 C13 1_555 1_555
H15 C18 1_555 1_555
C19 C20 1_555 1_555
C20 H16 1_555 1_555
H17 C20 1_555 1_555
C21 P1 1_555 1_555
H18 C21 1_555 1_555
H19 C21 1_555 1_555
C22 H20 1_555 1_555
H21 C22 1_555 1_555
C23 C22 1_555 1_555
H22 C23 1_555 1_555
H23 C23 1_555 1_555
H24 C23 1_555 1_555
C24 O5 1_555 1_555
H25 C24 1_555 1_555
H26 C24 1_555 1_555
C25 C24 1_555 1_555
H27 C25 1_555 1_555
H28 C25 1_555 1_555
H29 C25 1_555 1_555
O3C P1 1_555 1_555
Sn1C O3C 1_555 1_555
C5 C6 1_555 1_555
C11 C12 1_555 1_555
C17 C18 1_555 1_555
C20 C21 1_555 1_555

#END
