
#######################################################################
#
#                 Cambridge Crystallographic Data Centre
#                                CCDC 
#
#######################################################################
#
# If this CIF has been generated from an entry in the Cambridge 
# Structural Database, then it will include bibliographic, chemical, 
# crystal, experimental, refinement or atomic coordinate data resulting 
# from the CCDC's data processing and validation procedures.
#
#######################################################################

data_HIGWOL
_symmetry_cell_setting           triclinic
_symmetry_space_group_name_H-M   'P -1'
_symmetry_Int_Tables_number      2
_space_group_name_Hall           '-P 1'
loop_
_symmetry_equiv_pos_site_id
_symmetry_equiv_pos_as_xyz
1 x,y,z
2 -x,-y,-z
_cell_length_a                   10.442(2)
_cell_length_b                   11.545(2)
_cell_length_c                   14.071(3)
_cell_angle_alpha                102.208(2)
_cell_angle_beta                 110.9310(10)
_cell_angle_gamma                100.5360(10)
_cell_volume                     1485.21
loop_
_atom_site_label
_atom_site_type_symbol
_atom_site_fract_x
_atom_site_fract_y
_atom_site_fract_z
Pr1 Pr 0.615285(18) 0.562735(14) 0.660546(13)
C1 C 0.8007(4) 0.7875(3) 0.8232(3)
C2 C 0.9029(4) 0.8995(3) 0.9133(3)
C3 C 0.8936(4) 0.9216(3) 1.0113(3)
H1 H 0.8216 0.8685 1.0186
C4 C 1.0101(4) 0.9785(3) 0.9010(3)
C5 C 1.0190(4) 0.9636(3) 0.7941(3)
C6 C 1.1349(5) 0.9150(3) 0.7768(3)
C7 C 1.2580(5) 0.9176(4) 0.8597(4)
H2 H 1.2674 0.9435 0.9297
C8 C 1.3680(7) 0.8816(5) 0.8389(5)
H3 H 1.4517 0.8862 0.8952
C9 C 1.3533(6) 0.8392(5) 0.7356(5)
H4 H 1.4270 0.8152 0.7221
C10 C 1.2317(6) 0.8323(5) 0.6536(5)
H5 H 1.2213 0.8013 0.5838
C11 C 1.1211(6) 0.8715(4) 0.6723(4)
H6 H 1.0390 0.8684 0.6154
C12 C 0.4839(4) 0.7433(3) 0.4953(3)
C13 C 0.4874(4) 0.8762(3) 0.4977(3)
C14 C 0.6051(4) 0.9699(3) 0.5759(3)
H7 H 0.6756 0.9503 0.6273
C15 C 0.3813(4) 0.9066(3) 0.4219(3)
C16 C 0.2444(4) 0.8112(3) 0.3420(3)
C17 C 0.2118(4) 0.7852(3) 0.2262(3)
C18 C 0.3163(5) 0.8245(4) 0.1917(3)
H8 H 0.4069 0.8732 0.2411
C19 C 0.2859(6) 0.7914(6) 0.0841(4)
H9 H 0.3566 0.8169 0.0613
C20 C 0.1509(6) 0.7207(5) 0.0103(4)
H10 H 0.1311 0.6983 -0.0621
C21 C 0.0464(6) 0.6836(4) 0.0432(4)
H11 H -0.0447 0.6370 -0.0069
C22 C 0.0756(5) 0.7151(4) 0.1509(3)
H12 H 0.0041 0.6894 0.1730
C23 C 0.7015(4) 0.4906(3) 0.4276(3)
C24 C 0.8569(4) 0.4998(3) 0.4651(3)
C25 C 0.9260(4) 0.4788(3) 0.5609(3)
H13 H 0.8758 0.4642 0.6020
C26 C 0.9314(4) 0.5212(3) 0.4024(3)
C27 C 0.8677(4) 0.5455(4) 0.2969(3)
C28 C 0.8035(4) 0.6496(4) 0.2902(4)
C29 C 0.7277(5) 0.6595(5) 0.1892(4)
H14 H 0.7173 0.6012 0.1282
C30 C 0.6686(7) 0.7563(5) 0.1809(5)
H15 H 0.6170 0.7626 0.1139
C31 C 0.6851(7) 0.8411(6) 0.2687(5)
H16 H 0.6447 0.9059 0.2611
C32 C 0.7608(7) 0.8362(5) 0.3716(6)
H17 H 0.7717 0.8963 0.4318
C33 C 0.8194(5) 0.7369(4) 0.3802(5)
H18 H 0.8694 0.7299 0.4472
O1 O 0.8310(3) 0.7487(2) 0.7462(2)
O2 O 0.6886(3) 0.7326(2) 0.8292(2)
O3 O 0.9379(3) 0.9965(3) 0.7269(2)
O4 O 0.5406(3) 0.7239(2) 0.58307(19)
O5 O 0.4267(3) 0.6630(2) 0.4048(2)
O6 O 0.1625(3) 0.7579(3) 0.3732(2)
O7 O 0.6219(3) 0.4461(2) 0.3302(2)
O8 O 0.6528(2) 0.5263(2) 0.49653(19)
O9 O 0.8758(3) 0.4824(3) 0.2193(2)
O10 O 0.5925(3) 0.4599(3) 0.8020(3)
H19 H 0.5598 0.4987 0.8421
H20 H 0.5447 0.3842 0.7797
O11 O 0.8433(3) 0.5184(3) 0.7713(2)
H21 H 0.9301 0.5574 0.7902
H22 H 0.8323 0.4431 0.7409
C1A C 1.1993(4) 1.2125(3) 1.1768(3)
C2A C 1.0971(4) 1.1005(3) 1.0867(3)
C3A C 1.1064(4) 1.0784(3) 0.9887(3)
H1A H 1.1784 1.1315 0.9814
C4A C 0.9899(4) 1.0215(3) 1.0990(3)
C5A C 0.9810(4) 1.0364(3) 1.2059(3)
C6A C 0.8651(5) 1.0850(3) 1.2232(3)
C7A C 0.7420(5) 1.0824(4) 1.1403(4)
H2A H 0.7326 1.0565 1.0703
C8A C 0.6320(7) 1.1184(5) 1.1611(5)
H3A H 0.5483 1.1138 1.1048
C9A C 0.6467(6) 1.1608(5) 1.2644(5)
H4A H 0.5730 1.1848 1.2779
C10A C 0.7683(6) 1.1677(5) 1.3464(5)
H5A H 0.7787 1.1987 1.4162
C11A C 0.8789(6) 1.1285(4) 1.3277(4)
H6A H 0.9610 1.1316 1.3846
O1A O 1.1690(3) 1.2513(2) 1.2538(2)
O2A O 1.3114(3) 1.2674(2) 1.1708(2)
O3A O 1.0621(3) 1.0035(3) 1.2731(2)
C12A C 0.5161(4) 1.2567(3) 0.5047(3)
C13A C 0.5126(4) 1.1238(3) 0.5023(3)
C14A C 0.3949(4) 1.0301(3) 0.4241(3)
H7A H 0.3244 1.0497 0.3727
C15A C 0.6187(4) 1.0934(3) 0.5781(3)
C16A C 0.7556(4) 1.1888(3) 0.6580(3)
C17A C 0.7882(4) 1.2148(3) 0.7738(3)
C18A C 0.6837(5) 1.1755(4) 0.8083(3)
H8A H 0.5931 1.1268 0.7589
C19A C 0.7141(6) 1.2086(6) 0.9159(4)
H9A H 0.6434 1.1831 0.9387
C20A C 0.8491(6) 1.2793(5) 0.9897(4)
H10A H 0.8689 1.3017 1.0621
C21A C 0.9536(6) 1.3164(4) 0.9568(4)
H11A H 1.0447 1.3630 1.0069
C22A C 0.9244(5) 1.2849(4) 0.8491(3)
H12A H 0.9959 1.3106 0.8270
O4A O 0.4594(3) 1.2761(2) 0.41693(19)
O6A O 0.8375(3) 1.2421(3) 0.6268(2)
O5A O 0.5733(3) 1.3370(2) 0.5952(2)
C23A C 1.2985(4) 0.5094(3) 0.5724(3)
C24A C 1.1431(4) 0.5002(3) 0.5349(3)
C25A C 1.0740(4) 0.5212(3) 0.4391(3)
H13A H 1.1242 0.5358 0.3980
C26A C 1.0686(4) 0.4788(3) 0.5976(3)
C27A C 1.1323(4) 0.4545(4) 0.7031(3)
C28A C 1.1965(4) 0.3504(4) 0.7098(4)
C29A C 1.2723(5) 0.3405(5) 0.8108(4)
H14A H 1.2827 0.3988 0.8718
C30A C 1.3314(7) 0.2437(5) 0.8191(5)
H15A H 1.3830 0.2374 0.8861
C31A C 1.3149(7) 0.1589(6) 0.7313(5)
H16A H 1.3553 0.0941 0.7389
C32A C 1.2392(7) 0.1638(5) 0.6284(6)
H17A H 1.2283 0.1037 0.5682
C33A C 1.1806(5) 0.2631(4) 0.6198(5)
H18A H 1.1306 0.2701 0.5528
O8A O 1.3472(2) 0.4737(2) 0.50347(19)
O9A O 1.1242(3) 0.5176(3) 0.7807(2)
O7A O 1.3781(3) 0.5539(2) 0.6698(2)
Pr1A Pr 0.384715(18) 0.437265(14) 0.339454(13)
O10A O 0.4075(3) 0.5401(3) 0.1980(3)
H19A H 0.4402 0.5013 0.1579
H20A H 0.4553 0.6158 0.2203
O11A O 0.1567(3) 0.4816(3) 0.2287(2)
H21A H 0.0699 0.4426 0.2098
H22A H 0.1677 0.5569 0.2591
Pr1_2 Pr 0.615285(18) 1.562735(14) 0.660546(13)
Pr1_3 Pr 1.615285(18) 0.562735(14) 0.660546(13)
Pr1A_2 Pr 0.384715(18) 1.437265(14) 0.339454(13)
Pr1A_3 Pr 1.384715(18) 0.437265(14) 0.339454(13)
Pr1A_4 Pr 1.384715(18) 1.437265(14) 1.339454(13)
O1A_2 O 0.1690(3) 0.2513(2) 0.2538(2)
O2A_2 O 0.3114(3) 0.2674(2) 0.1708(2)
O4A_2 O 0.4594(3) 0.2761(2) 0.41693(19)
O5A_2 O 0.5733(3) 0.3370(2) 0.5952(2)
O7A_2 O 0.3781(3) 0.5539(2) 0.6698(2)
O8A_2 O 0.3472(2) 0.4737(2) 0.50347(19)
O12 O 0.4976(6) 0.6381(5) 0.9145(4)
H23 H 0.5733 0.6784 0.9131
H24 H 0.4315 0.6182 0.8522
loop_
_geom_bond_atom_site_label_1
_geom_bond_atom_site_label_2
_geom_bond_site_symmetry_1
_geom_bond_site_symmetry_2
Pr1 O1 1_555 1_555
C1 C2 1_555 1_555
C2 C3 1_555 1_555
C3 H1 1_555 1_555
C4 C2 1_555 1_555
C5 C4 1_555 1_555
C6 C5 1_555 1_555
C7 C6 1_555 1_555
H2 C7 1_555 1_555
C8 C7 1_555 1_555
H3 C8 1_555 1_555
C9 C8 1_555 1_555
H4 C9 1_555 1_555
C10 C9 1_555 1_555
H5 C10 1_555 1_555
C11 C6 1_555 1_555
H6 C11 1_555 1_555
C12 C13 1_555 1_555
C13 C14 1_555 1_555
C14 H7 1_555 1_555
C15 C13 1_555 1_555
C16 C15 1_555 1_555
C17 C16 1_555 1_555
C18 C17 1_555 1_555
H8 C18 1_555 1_555
C19 C18 1_555 1_555
H9 C19 1_555 1_555
C20 C19 1_555 1_555
H10 C20 1_555 1_555
C21 C20 1_555 1_555
H11 C21 1_555 1_555
C22 C17 1_555 1_555
H12 C22 1_555 1_555
C23 C24 1_555 1_555
C24 C25 1_555 1_555
C25 H13 1_555 1_555
C26 C24 1_555 1_555
C27 C26 1_555 1_555
C28 C27 1_555 1_555
C29 C28 1_555 1_555
H14 C29 1_555 1_555
C30 C29 1_555 1_555
H15 C30 1_555 1_555
C31 C30 1_555 1_555
H16 C31 1_555 1_555
C32 C31 1_555 1_555
H17 C32 1_555 1_555
C33 C28 1_555 1_555
H18 C33 1_555 1_555
O1 C1 1_555 1_555
O2 Pr1 1_555 1_555
O3 C5 1_555 1_555
O4 Pr1 1_555 1_555
O5 C12 1_555 1_555
O6 C16 1_555 1_555
O7 C23 1_555 1_555
O8 Pr1 1_555 1_555
O9 C27 1_555 1_555
O10 Pr1 1_555 1_555
H19 O10 1_555 1_555
H20 O10 1_555 1_555
O11 Pr1 1_555 1_555
H21 O11 1_555 1_555
H22 O11 1_555 1_555
O12 H23 1_555 1_555
H24 O12 1_555 1_555
C1A C2A 1_555 1_555
C2A C3A 1_555 1_555
C3A C4 1_555 1_555
H1A C3A 1_555 1_555
C4A C3 1_555 1_555
C5A C4A 1_555 1_555
C6A C5A 1_555 1_555
C7A C6A 1_555 1_555
H2A C7A 1_555 1_555
C8A C7A 1_555 1_555
H3A C8A 1_555 1_555
C9A C8A 1_555 1_555
H4A C9A 1_555 1_555
C10A C9A 1_555 1_555
H5A C10A 1_555 1_555
C11A C6A 1_555 1_555
H6A C11A 1_555 1_555
O1A C1A 1_555 1_555
O2A C1A 1_555 1_555
O3A C5A 1_555 1_555
C12A C13A 1_555 1_555
C13A C14A 1_555 1_555
C14A C15 1_555 1_555
H7A C14A 1_555 1_555
C15A C14 1_555 1_555
C16A C15A 1_555 1_555
C17A C16A 1_555 1_555
C18A C17A 1_555 1_555
H8A C18A 1_555 1_555
C19A C18A 1_555 1_555
H9A C19A 1_555 1_555
C20A C19A 1_555 1_555
H10A C20A 1_555 1_555
C21A C20A 1_555 1_555
H11A C21A 1_555 1_555
C22A C17A 1_555 1_555
H12A C22A 1_555 1_555
O4A C12A 1_555 1_555
O6A C16A 1_555 1_555
O5A C12A 1_555 1_555
C23A C24A 1_555 1_555
C24A C25A 1_555 1_555
C25A C26 1_555 1_555
H13A C25A 1_555 1_555
C26A C25 1_555 1_555
C27A C26A 1_555 1_555
C28A C27A 1_555 1_555
C29A C28A 1_555 1_555
H14A C29A 1_555 1_555
C30A C29A 1_555 1_555
H15A C30A 1_555 1_555
C31A C30A 1_555 1_555
H16A C31A 1_555 1_555
C32A C31A 1_555 1_555
H17A C32A 1_555 1_555
C33A C28A 1_555 1_555
H18A C33A 1_555 1_555
O8A C23A 1_555 1_555
O9A C27A 1_555 1_555
O7A C23A 1_555 1_555
Pr1A O5 1_555 1_555
O10A Pr1A 1_555 1_555
H19A O10A 1_555 1_555
H20A O10A 1_555 1_555
O11A Pr1A 1_555 1_555
H21A O11A 1_555 1_555
H22A O11A 1_555 1_555
Pr1_2 O5A 1_555 1_555
Pr1_3 O8A 1_555 1_555
Pr1A_2 O4A 1_555 1_555
Pr1A_3 O8A 1_555 1_555
Pr1A_4 O1A 1_555 1_555
O1A_2 Pr1A 1_555 1_555
O2A_2 Pr1A 1_555 1_555
O4A_2 Pr1A 1_555 1_555
O5A_2 Pr1 1_555 1_555
O7A_2 Pr1 1_555 1_555
O8A_2 Pr1 1_555 1_555
C1 O2 1_555 1_555
C10 C11 1_555 1_555
C12 O4 1_555 1_555
C21 C22 1_555 1_555
C23 O8 1_555 1_555
C32 C33 1_555 1_555
O7 Pr1A 1_555 1_555
O8 Pr1A 1_555 1_555
C2A C4A 1_555 1_555
C10A C11A 1_555 1_555
O2A Pr1A_4 1_555 1_555
C13A C15A 1_555 1_555
C21A C22A 1_555 1_555
C24A C26A 1_555 1_555
C32A C33A 1_555 1_555
O7A Pr1_3 1_555 1_555
Pr1A O8A_2 1_555 1_555

#END
