
#######################################################################
#
#                 Cambridge Crystallographic Data Centre
#                                CCDC 
#
#######################################################################
#
# If this CIF has been generated from an entry in the Cambridge 
# Structural Database, then it will include bibliographic, chemical, 
# crystal, experimental, refinement or atomic coordinate data resulting 
# from the CCDC's data processing and validation procedures.
#
#######################################################################

data_HIGXOM
_symmetry_cell_setting           triclinic
_symmetry_space_group_name_H-M   'P -1'
_symmetry_Int_Tables_number      2
_space_group_name_Hall           '-P 1'
loop_
_symmetry_equiv_pos_site_id
_symmetry_equiv_pos_as_xyz
1 x,y,z
2 -x,-y,-z
_cell_length_a                   10.4002(6)
_cell_length_b                   11.4239(6)
_cell_length_c                   14.1035(8)
_cell_angle_alpha                102.7800(10)
_cell_angle_beta                 111.3540(10)
_cell_angle_gamma                100.2750(10)
_cell_volume                     1458.8
loop_
_atom_site_label
_atom_site_type_symbol
_atom_site_fract_x
_atom_site_fract_y
_atom_site_fract_z
Gd1 Gd 0.613372(17) 0.563779(14) 0.658266(12)
C1 C 0.7972(4) 0.7860(3) 0.8192(3)
C2 C 0.9010(4) 0.8994(3) 0.9110(3)
C3 C 1.1080(4) 1.0789(3) 0.9906(3)
H1 H 1.1809 1.1329 0.9845
C4 C 1.0115(4) 0.9792(3) 0.9017(3)
C5 C 1.0211(4) 0.9648(3) 0.7955(3)
C6 C 1.1363(5) 0.9153(4) 0.7779(3)
C7 C 1.2600(5) 0.9174(4) 0.8614(4)
H2 H 1.2688 0.9428 0.9314
C8 C 1.3716(6) 0.8816(5) 0.8415(5)
H3 H 1.4562 0.8869 0.8982
C9 C 1.3558(6) 0.8387(5) 0.7378(5)
H4 H 1.4296 0.8138 0.7244
C10 C 1.2325(6) 0.8323(5) 0.6543(5)
H5 H 1.2220 0.8014 0.5843
C11 C 1.1217(6) 0.8718(5) 0.6732(4)
H6 H 1.0388 0.8689 0.6162
C12 C 0.4846(4) 0.7407(3) 0.4961(3)
C13 C 0.4871(4) 0.8742(3) 0.4980(3)
C14 C 0.6057(4) 0.9708(3) 0.5765(3)
H7 H 0.6768 0.9520 0.6286
C15 C 0.3803(4) 0.9048(3) 0.4217(3)
C16 C 0.2418(4) 0.8068(3) 0.3407(3)
C17 C 0.2083(4) 0.7807(3) 0.2252(3)
C18 C 0.0715(5) 0.7090(4) 0.1493(3)
H8 H 0.0006 0.6821 0.1714
C19 C 0.0395(6) 0.6771(5) 0.0416(4)
H9 H -0.0523 0.6286 -0.0086
C20 C 0.1443(7) 0.7177(5) 0.0083(4)
H10 H 0.1230 0.6967 -0.0644
C21 C 0.2804(7) 0.7892(6) 0.0830(4)
H11 H 0.3511 0.8155 0.0605
C22 C 0.3119(5) 0.8218(5) 0.1904(3)
H12 H 0.4032 0.8717 0.2402
C23 C 0.7005(4) 0.4929(3) 0.4315(3)
C24 C 0.8562(4) 0.5019(3) 0.4666(3)
C25 C 0.9299(4) 0.4830(4) 0.5636(3)
H13 H 0.8820 0.4712 0.6066
C26 C 0.9283(4) 0.5190(3) 0.4017(3)
C27 C 0.8615(4) 0.5408(4) 0.2952(3)
C28 C 0.7981(4) 0.6465(4) 0.2878(4)
C29 C 0.8154(6) 0.7372(5) 0.3769(5)
H14 H 0.8666 0.7317 0.4445
C30 C 0.7575(7) 0.8380(6) 0.3682(5)
H15 H 0.7697 0.9002 0.4284
C31 C 0.6814(7) 0.8407(6) 0.2658(5)
H16 H 0.6406 0.9060 0.2579
C32 C 0.6639(7) 0.7547(6) 0.1784(5)
H17 H 0.6118 0.7608 0.1113
C33 C 0.7228(5) 0.6555(5) 0.1867(5)
H18 H 0.7122 0.5959 0.1254
O1 O 0.6837(3) 0.7312(2) 0.8228(2)
O2 O 0.8276(3) 0.7472(2) 0.7420(2)
O3 O 0.9403(3) 0.9997(3) 0.7282(2)
O4 O 0.4296(3) 0.6583(2) 0.40547(19)
O5 O 0.5397(3) 0.7226(2) 0.58474(19)
O6 O 0.1620(3) 0.7528(3) 0.3719(2)
O7 O 0.6179(3) 0.4487(3) 0.3346(2)
O8 O 0.6541(3) 0.5282(2) 0.5021(2)
O9 O 0.8697(4) 0.4758(3) 0.2187(2)
O10 O 0.8379(3) 0.5210(3) 0.7647(2)
H19 H 0.9285 0.5365 0.7803
H20 H 0.7996 0.4453 0.7221
O11 O 0.5944(3) 0.4638(3) 0.7960(2)
H21 H 0.6210 0.3991 0.8038
H22 H 0.5708 0.4865 0.8474
C1A C 1.2028(4) 1.2140(3) 1.1808(3)
C2A C 1.0990(4) 1.1006(3) 1.0890(3)
C3A C 0.8920(4) 0.9211(3) 1.0094(3)
H1A H 0.8191 0.8671 1.0155
C4A C 0.9885(4) 1.0208(3) 1.0983(3)
C5A C 0.9789(4) 1.0352(3) 1.2045(3)
C6A C 0.8637(5) 1.0847(4) 1.2221(3)
C7A C 0.7400(5) 1.0826(4) 1.1386(4)
H2A H 0.7312 1.0572 1.0686
C8A C 0.6284(6) 1.1184(5) 1.1585(5)
H3A H 0.5438 1.1131 1.1018
C9A C 0.6442(6) 1.1613(5) 1.2622(5)
H4A H 0.5704 1.1862 1.2756
C10A C 0.7675(6) 1.1677(5) 1.3457(5)
H5A H 0.7780 1.1986 1.4157
C11A C 0.8783(6) 1.1282(5) 1.3268(4)
H6A H 0.9612 1.1311 1.3838
O1A O 1.3163(3) 1.2688(2) 1.1772(2)
O2A O 1.1724(3) 1.2528(2) 1.2580(2)
O3A O 1.0597(3) 1.0003(3) 1.2718(2)
C12A C 0.5154(4) 1.2593(3) 0.5039(3)
C13A C 0.5129(4) 1.1258(3) 0.5020(3)
C14A C 0.3943(4) 1.0292(3) 0.4235(3)
H7A H 0.3232 1.0480 0.3714
C15A C 0.6197(4) 1.0952(3) 0.5783(3)
C16A C 0.7582(4) 1.1932(3) 0.6593(3)
C17A C 0.7917(4) 1.2193(3) 0.7748(3)
C18A C 0.9285(5) 1.2910(4) 0.8507(3)
H8A H 0.9994 1.3179 0.8286
C19A C 0.9605(6) 1.3229(5) 0.9584(4)
H9A H 1.0523 1.3714 1.0086
C20A C 0.8557(7) 1.2823(5) 0.9917(4)
H10A H 0.8770 1.3033 1.0644
C21A C 0.7196(7) 1.2108(6) 0.9170(4)
H11A H 0.6489 1.1845 0.9395
C22A C 0.6881(5) 1.1782(5) 0.8096(3)
H12A H 0.5968 1.1283 0.7598
O4A O 0.5704(3) 1.3417(2) 0.59453(19)
O5A O 0.4603(3) 1.2774(2) 0.41526(19)
O6A O 0.8380(3) 1.2472(3) 0.6281(2)
C23A C 1.2995(4) 0.5071(3) 0.5685(3)
C24A C 1.1438(4) 0.4981(3) 0.5334(3)
C25A C 1.0701(4) 0.5170(4) 0.4364(3)
H13A H 1.1180 0.5288 0.3934
C26A C 1.0717(4) 0.4810(3) 0.5983(3)
C27A C 1.1385(4) 0.4592(4) 0.7048(3)
C28A C 1.2019(4) 0.3535(4) 0.7122(4)
C29A C 1.1846(6) 0.2628(5) 0.6231(5)
H14A H 1.1334 0.2683 0.5555
C30A C 1.2425(7) 0.1620(6) 0.6318(5)
H15A H 1.2303 0.0998 0.5716
C31A C 1.3186(7) 0.1593(6) 0.7342(5)
H16A H 1.3594 0.0940 0.7421
C32A C 1.3361(7) 0.2453(6) 0.8216(5)
H17A H 1.3882 0.2392 0.8887
C33A C 1.2772(5) 0.3445(5) 0.8133(5)
H18A H 1.2878 0.4041 0.8746
O7A O 1.3821(3) 0.5513(3) 0.6654(2)
O8A O 1.3459(3) 0.4718(2) 0.4979(2)
O9A O 1.1303(4) 0.5242(3) 0.7813(2)
Gd1A Gd 0.386628(17) 0.436221(14) 0.341734(12)
O10A O 0.1621(3) 0.4790(3) 0.2353(2)
H19A H 0.0715 0.4635 0.2197
H20A H 0.2004 0.5547 0.2779
O11A O 0.4056(3) 0.5362(3) 0.2040(2)
H21A H 0.3790 0.6009 0.1962
H22A H 0.4292 0.5135 0.1526
Gd1_2 Gd 0.613372(17) 1.563779(14) 0.658266(12)
Gd1_3 Gd 1.613372(17) 0.563779(14) 0.658266(12)
Gd1A_2 Gd 0.386628(17) 1.436221(14) 0.341734(12)
Gd1A_3 Gd 1.386628(17) 0.436221(14) 0.341734(12)
Gd1A_4 Gd 1.386628(17) 1.436221(14) 1.341734(12)
O1A_2 O 0.3163(3) 0.2688(2) 0.1772(2)
O2A_2 O 0.1724(3) 0.2528(2) 0.2580(2)
O4A_2 O 0.5704(3) 0.3417(2) 0.59453(19)
O5A_2 O 0.4603(3) 0.2774(2) 0.41526(19)
O7A_2 O 0.3821(3) 0.5513(3) 0.6654(2)
O8A_2 O 0.3459(3) 0.4718(2) 0.4979(2)
O12 O 0.5015(6) 0.6406(5) 0.9139(4)
H23 H 0.5767 0.6824 0.9120
H24 H 0.4412 0.6023 0.8489
loop_
_geom_bond_atom_site_label_1
_geom_bond_atom_site_label_2
_geom_bond_site_symmetry_1
_geom_bond_site_symmetry_2
Gd1 O1 1_555 1_555
C1 C2 1_555 1_555
C2 C4 1_555 1_555
C3 H1 1_555 1_555
C4 C3 1_555 1_555
C5 C4 1_555 1_555
C6 C5 1_555 1_555
C7 C6 1_555 1_555
H2 C7 1_555 1_555
C8 C7 1_555 1_555
H3 C8 1_555 1_555
C9 C8 1_555 1_555
H4 C9 1_555 1_555
C10 C9 1_555 1_555
H5 C10 1_555 1_555
C11 C6 1_555 1_555
H6 C11 1_555 1_555
C12 C13 1_555 1_555
C13 C14 1_555 1_555
C14 H7 1_555 1_555
C15 C13 1_555 1_555
C16 C15 1_555 1_555
C17 C16 1_555 1_555
C18 C17 1_555 1_555
H8 C18 1_555 1_555
C19 C18 1_555 1_555
H9 C19 1_555 1_555
C20 C19 1_555 1_555
H10 C20 1_555 1_555
C21 C20 1_555 1_555
H11 C21 1_555 1_555
C22 C17 1_555 1_555
H12 C22 1_555 1_555
C23 C24 1_555 1_555
C24 C25 1_555 1_555
C25 H13 1_555 1_555
C26 C24 1_555 1_555
C27 C26 1_555 1_555
C28 C27 1_555 1_555
C29 C28 1_555 1_555
H14 C29 1_555 1_555
C30 C29 1_555 1_555
H15 C30 1_555 1_555
C31 C30 1_555 1_555
H16 C31 1_555 1_555
C32 C31 1_555 1_555
H17 C32 1_555 1_555
C33 C28 1_555 1_555
H18 C33 1_555 1_555
O1 C1 1_555 1_555
O2 Gd1 1_555 1_555
O3 C5 1_555 1_555
O4 C12 1_555 1_555
O5 Gd1 1_555 1_555
O6 C16 1_555 1_555
O7 C23 1_555 1_555
O8 Gd1 1_555 1_555
O9 C27 1_555 1_555
O10 Gd1 1_555 1_555
H19 O10 1_555 1_555
H20 O10 1_555 1_555
O11 Gd1 1_555 1_555
H21 O11 1_555 1_555
H22 O11 1_555 1_555
O12 H23 1_555 1_555
H24 O12 1_555 1_555
C1A C2A 1_555 1_555
C2A C3 1_555 1_555
C3A C2 1_555 1_555
H1A C3A 1_555 1_555
C4A C2A 1_555 1_555
C5A C4A 1_555 1_555
C6A C5A 1_555 1_555
C7A C6A 1_555 1_555
H2A C7A 1_555 1_555
C8A C7A 1_555 1_555
H3A C8A 1_555 1_555
C9A C8A 1_555 1_555
H4A C9A 1_555 1_555
C10A C9A 1_555 1_555
H5A C10A 1_555 1_555
C11A C6A 1_555 1_555
H6A C11A 1_555 1_555
O1A C1A 1_555 1_555
O2A C1A 1_555 1_555
O3A C5A 1_555 1_555
C12A C13A 1_555 1_555
C13A C14A 1_555 1_555
C14A C15 1_555 1_555
H7A C14A 1_555 1_555
C15A C14 1_555 1_555
C16A C15A 1_555 1_555
C17A C16A 1_555 1_555
C18A C17A 1_555 1_555
H8A C18A 1_555 1_555
C19A C18A 1_555 1_555
H9A C19A 1_555 1_555
C20A C19A 1_555 1_555
H10A C20A 1_555 1_555
C21A C20A 1_555 1_555
H11A C21A 1_555 1_555
C22A C17A 1_555 1_555
H12A C22A 1_555 1_555
O4A C12A 1_555 1_555
O5A C12A 1_555 1_555
O6A C16A 1_555 1_555
C23A C24A 1_555 1_555
C24A C25A 1_555 1_555
C25A C26 1_555 1_555
H13A C25A 1_555 1_555
C26A C25 1_555 1_555
C27A C26A 1_555 1_555
C28A C27A 1_555 1_555
C29A C28A 1_555 1_555
H14A C29A 1_555 1_555
C30A C29A 1_555 1_555
H15A C30A 1_555 1_555
C31A C30A 1_555 1_555
H16A C31A 1_555 1_555
C32A C31A 1_555 1_555
H17A C32A 1_555 1_555
C33A C28A 1_555 1_555
H18A C33A 1_555 1_555
O7A C23A 1_555 1_555
O8A C23A 1_555 1_555
O9A C27A 1_555 1_555
Gd1A O4 1_555 1_555
O10A Gd1A 1_555 1_555
H19A O10A 1_555 1_555
H20A O10A 1_555 1_555
O11A Gd1A 1_555 1_555
H21A O11A 1_555 1_555
H22A O11A 1_555 1_555
Gd1_2 O4A 1_555 1_555
Gd1_3 O7A 1_555 1_555
Gd1A_2 O5A 1_555 1_555
Gd1A_3 O8A 1_555 1_555
Gd1A_4 O1A 1_555 1_555
O1A_2 Gd1A 1_555 1_555
O2A_2 Gd1A 1_555 1_555
O4A_2 Gd1 1_555 1_555
O5A_2 Gd1A 1_555 1_555
O7A_2 Gd1 1_555 1_555
O8A_2 Gd1 1_555 1_555
C1 O2 1_555 1_555
C10 C11 1_555 1_555
C12 O5 1_555 1_555
C21 C22 1_555 1_555
C23 O8 1_555 1_555
C32 C33 1_555 1_555
O7 Gd1A 1_555 1_555
O8 Gd1A 1_555 1_555
C3A C4A 1_555 1_555
C10A C11A 1_555 1_555
O2A Gd1A_4 1_555 1_555
C13A C15A 1_555 1_555
C21A C22A 1_555 1_555
C24A C26A 1_555 1_555
C32A C33A 1_555 1_555
O8A Gd1_3 1_555 1_555
Gd1A O8A_2 1_555 1_555

#END
