
#######################################################################
#
#                 Cambridge Crystallographic Data Centre
#                                CCDC 
#
#######################################################################
#
# If this CIF has been generated from an entry in the Cambridge 
# Structural Database, then it will include bibliographic, chemical, 
# crystal, experimental, refinement or atomic coordinate data resulting 
# from the CCDC's data processing and validation procedures.
#
#######################################################################

data_HIGXIG
_symmetry_cell_setting           triclinic
_symmetry_space_group_name_H-M   'P -1'
_symmetry_Int_Tables_number      2
_space_group_name_Hall           '-P 1'
loop_
_symmetry_equiv_pos_site_id
_symmetry_equiv_pos_as_xyz
1 x,y,z
2 -x,-y,-z
_cell_length_a                   10.3979(6)
_cell_length_b                   11.4388(6)
_cell_length_c                   14.1007(8)
_cell_angle_alpha                102.635(5)
_cell_angle_beta                 111.321(5)
_cell_angle_gamma                100.381(5)
_cell_volume                     1460.95
loop_
_atom_site_label
_atom_site_type_symbol
_atom_site_fract_x
_atom_site_fract_y
_atom_site_fract_z
Eu1 Eu 0.61396(2) 0.563440(19) 0.658491(16)
C1 C 0.7982(5) 0.7874(4) 0.8196(3)
C2 C 0.9013(5) 0.8988(4) 0.9113(3)
C3 C 0.8924(5) 0.9212(4) 1.0095(3)
H1 H 0.8193 0.8676 1.0156
C4 C 1.0119(5) 0.9802(4) 0.9024(3)
C5 C 1.0201(5) 0.9658(4) 0.7952(4)
C6 C 1.1365(5) 0.9153(4) 0.7788(4)
C7 C 1.2595(6) 0.9176(5) 0.8607(5)
H2 H 1.2691 0.9438 0.9308
C8 C 1.3710(7) 0.8814(6) 0.8409(5)
H3 H 1.4559 0.8866 0.8973
C9 C 1.3531(7) 0.8379(6) 0.7365(5)
H4 H 1.4265 0.8131 0.7226
C10 C 1.2310(7) 0.8307(6) 0.6541(5)
H5 H 1.2194 0.7985 0.5840
C11 C 1.1215(7) 0.8716(5) 0.6738(4)
H6 H 1.0389 0.8698 0.6170
C12 C 0.7007(5) 0.4923(4) 0.4304(3)
C13 C 0.8570(5) 0.5014(4) 0.4669(3)
C14 C 0.9289(5) 0.4821(4) 0.5626(3)
H7 H 0.8805 0.4705 0.6053
C15 C 0.9297(5) 0.5205(4) 0.4024(3)
C16 C 0.8629(5) 0.5426(4) 0.2961(4)
C17 C 0.7992(5) 0.6476(5) 0.2881(4)
C18 C 0.8174(6) 0.7367(5) 0.3785(5)
H8 H 0.8689 0.7310 0.4459
C19 C 0.7562(8) 0.8390(6) 0.3682(6)
H9 H 0.7664 0.9012 0.4275
C20 C 0.6808(7) 0.8391(6) 0.2641(5)
H10 H 0.6397 0.9039 0.2548
C21 C 0.6640(7) 0.7539(6) 0.1782(5)
H11 H 0.6117 0.7587 0.1106
C22 C 0.7240(6) 0.6574(6) 0.1886(5)
H12 H 0.7138 0.5978 0.1276
C23 C 0.4838(5) 0.7407(4) 0.4959(3)
C24 C 0.4873(5) 0.8754(4) 0.4980(3)
C25 C 0.6053(5) 0.9705(4) 0.5764(3)
H13 H 0.6759 0.9510 0.6284
C26 C 0.3793(5) 0.9045(4) 0.4211(3)
C27 C 0.2428(5) 0.8080(4) 0.3416(3)
C28 C 0.2084(5) 0.7815(4) 0.2254(3)
C29 C 0.3134(6) 0.8238(5) 0.1919(4)
H14 H 0.4046 0.8737 0.2418
C30 C 0.2807(7) 0.7907(6) 0.0832(5)
H15 H 0.3508 0.8179 0.0603
C31 C 0.1467(8) 0.7189(6) 0.0099(4)
H16 H 0.1263 0.6971 -0.0626
C32 C 0.0410(7) 0.6780(5) 0.0418(4)
H17 H -0.0505 0.6296 -0.0087
C33 C 0.0728(6) 0.7099(4) 0.1501(4)
H18 H 0.0018 0.6828 0.1722
O1 O 0.6846(3) 0.7308(3) 0.8237(2)
O2 O 0.8287(3) 0.7486(3) 0.7427(2)
O3 O 0.9402(4) 1.0001(3) 0.7284(3)
O4 O 0.6536(3) 0.5284(3) 0.5009(2)
O5 O 0.6181(3) 0.4487(3) 0.3339(2)
O6 O 0.8698(4) 0.4772(4) 0.2190(3)
O7 O 0.5395(3) 0.7228(3) 0.5843(2)
O8 O 0.4289(3) 0.6589(3) 0.4055(2)
O9 O 0.1611(4) 0.7525(3) 0.3715(3)
O10 O 0.5954(4) 0.4624(3) 0.7967(3)
H19 H 0.5532 0.3854 0.7812
H20 H 0.5567 0.5042 0.8302
O11 O 0.8398(4) 0.5216(3) 0.7653(3)
H21 H 0.9252 0.5372 0.7698
H22 H 0.8191 0.4500 0.7732
C1A C 1.2018(5) 1.2126(4) 1.1804(3)
C2A C 1.0987(5) 1.1012(4) 1.0887(3)
C3A C 1.1076(5) 1.0788(4) 0.9905(3)
H1A H 1.1807 1.1324 0.9844
C4A C 0.9881(5) 1.0198(4) 1.0976(3)
C5A C 0.9799(5) 1.0342(4) 1.2048(4)
C6A C 0.8635(5) 1.0847(4) 1.2212(4)
C7A C 0.7405(6) 1.0824(5) 1.1393(5)
H2A H 0.7309 1.0562 1.0692
C8A C 0.6290(7) 1.1186(6) 1.1591(5)
H3A H 0.5441 1.1134 1.1027
C9A C 0.6469(7) 1.1621(6) 1.2635(5)
H4A H 0.5735 1.1869 1.2774
C10A C 0.7690(7) 1.1693(6) 1.3459(5)
H5A H 0.7806 1.2015 1.4160
C11A C 0.8785(7) 1.1284(5) 1.3262(4)
H6A H 0.9611 1.1302 1.3830
O1A O 1.3154(3) 1.2692(3) 1.1763(2)
O2A O 1.1713(3) 1.2514(3) 1.2573(2)
O3A O 1.0598(4) 0.9999(3) 1.2716(3)
C12A C 1.2993(5) 0.5077(4) 0.5696(3)
C13A C 1.1430(5) 0.4986(4) 0.5331(3)
C14A C 1.0711(5) 0.5179(4) 0.4374(3)
H7A H 1.1195 0.5295 0.3947
C15A C 1.0703(5) 0.4795(4) 0.5976(3)
C16A C 1.1371(5) 0.4574(4) 0.7039(4)
C17A C 1.2008(5) 0.3524(5) 0.7119(4)
C18A C 1.1826(6) 0.2633(5) 0.6215(5)
H8A H 1.1311 0.2690 0.5541
C19A C 1.2438(8) 0.1610(6) 0.6318(6)
H9A H 1.2336 0.0988 0.5725
C20A C 1.3192(7) 0.1609(6) 0.7359(5)
H10A H 1.3603 0.0961 0.7452
C21A C 1.3360(7) 0.2461(6) 0.8218(5)
H11A H 1.3883 0.2413 0.8894
C22A C 1.2760(6) 0.3426(6) 0.8114(5)
H12A H 1.2862 0.4022 0.8724
O4A O 1.3464(3) 0.4716(3) 0.4991(2)
O5A O 1.3819(3) 0.5513(3) 0.6661(2)
O6A O 1.1302(4) 0.5228(4) 0.7810(3)
C23A C 0.5162(5) 1.2593(4) 0.5041(3)
C24A C 0.5127(5) 1.1246(4) 0.5020(3)
C25A C 0.3947(5) 1.0295(4) 0.4236(3)
H13A H 0.3241 1.0490 0.3716
C26A C 0.6207(5) 1.0955(4) 0.5789(3)
C27A C 0.7572(5) 1.1920(4) 0.6584(3)
C28A C 0.7916(5) 1.2185(4) 0.7746(3)
C29A C 0.6866(6) 1.1762(5) 0.8081(4)
H14A H 0.5954 1.1263 0.7582
C30A C 0.7193(7) 1.2093(6) 0.9168(5)
H15A H 0.6492 1.1821 0.9397
C31A C 0.8533(8) 1.2811(6) 0.9901(4)
H16A H 0.8737 1.3029 1.0626
C32A C 0.9590(7) 1.3220(5) 0.9582(4)
H17A H 1.0505 1.3704 1.0087
C33A C 0.9272(6) 1.2901(4) 0.8499(4)
H18A H 0.9982 1.3172 0.8278
O7A O 0.4605(3) 1.2772(3) 0.4157(2)
O8A O 0.5711(3) 1.3411(3) 0.5945(2)
O9A O 0.8389(4) 1.2475(3) 0.6285(3)
Eu1A Eu 0.38604(2) 0.436560(19) 0.341509(16)
O10A O 0.4046(4) 0.5376(3) 0.2033(3)
H19A H 0.4468 0.6146 0.2188
H20A H 0.4433 0.4958 0.1698
O11A O 0.1602(4) 0.4784(3) 0.2347(3)
H21A H 0.0748 0.4628 0.2302
H22A H 0.1809 0.5500 0.2268
Eu1_2 Eu 0.61396(2) 1.563440(19) 0.658491(16)
Eu1_3 Eu 1.61396(2) 0.563440(19) 0.658491(16)
Eu1A_2 Eu 0.38604(2) 1.436560(19) 0.341509(16)
Eu1A_3 Eu 1.38604(2) 0.436560(19) 0.341509(16)
Eu1A_4 Eu 1.38604(2) 1.436560(19) 1.341509(16)
O1A_2 O 0.3154(3) 0.2692(3) 0.1763(2)
O2A_2 O 0.1713(3) 0.2514(3) 0.2573(2)
O4A_2 O 0.3464(3) 0.4716(3) 0.4991(2)
O5A_2 O 0.3819(3) 0.5513(3) 0.6661(2)
O7A_2 O 0.4605(3) 0.2772(3) 0.4157(2)
O8A_2 O 0.5711(3) 0.3411(3) 0.5945(2)
O12 O 0.4990(6) 0.3613(4) 0.0865(4)
H23 H 0.4232 0.3205 0.0878
H24 H 0.5704 0.3610 0.1406
loop_
_geom_bond_atom_site_label_1
_geom_bond_atom_site_label_2
_geom_bond_site_symmetry_1
_geom_bond_site_symmetry_2
Eu1 O1 1_555 1_555
C1 C2 1_555 1_555
C2 C3 1_555 1_555
C3 H1 1_555 1_555
C4 C2 1_555 1_555
C5 C4 1_555 1_555
C6 C5 1_555 1_555
C7 C6 1_555 1_555
H2 C7 1_555 1_555
C8 C7 1_555 1_555
H3 C8 1_555 1_555
C9 C8 1_555 1_555
H4 C9 1_555 1_555
C10 C9 1_555 1_555
H5 C10 1_555 1_555
C11 C6 1_555 1_555
H6 C11 1_555 1_555
C12 C13 1_555 1_555
C13 C14 1_555 1_555
C14 H7 1_555 1_555
C15 C13 1_555 1_555
C16 C15 1_555 1_555
C17 C16 1_555 1_555
C18 C17 1_555 1_555
H8 C18 1_555 1_555
C19 C18 1_555 1_555
H9 C19 1_555 1_555
C20 C19 1_555 1_555
H10 C20 1_555 1_555
C21 C20 1_555 1_555
H11 C21 1_555 1_555
C22 C17 1_555 1_555
H12 C22 1_555 1_555
C23 C24 1_555 1_555
C24 C25 1_555 1_555
C25 H13 1_555 1_555
C26 C24 1_555 1_555
C27 C26 1_555 1_555
C28 C27 1_555 1_555
C29 C28 1_555 1_555
H14 C29 1_555 1_555
C30 C29 1_555 1_555
H15 C30 1_555 1_555
C31 C30 1_555 1_555
H16 C31 1_555 1_555
C32 C31 1_555 1_555
H17 C32 1_555 1_555
C33 C28 1_555 1_555
H18 C33 1_555 1_555
O1 C1 1_555 1_555
O2 Eu1 1_555 1_555
O3 C5 1_555 1_555
O4 Eu1 1_555 1_555
O5 C12 1_555 1_555
O6 C16 1_555 1_555
O7 Eu1 1_555 1_555
O8 C23 1_555 1_555
O9 C27 1_555 1_555
O10 Eu1 1_555 1_555
H19 O10 1_555 1_555
H20 O10 1_555 1_555
O11 Eu1 1_555 1_555
H21 O11 1_555 1_555
H22 O11 1_555 1_555
O12 H23 1_555 1_555
H24 O12 1_555 1_555
C1A C2A 1_555 1_555
C2A C3A 1_555 1_555
C3A C4 1_555 1_555
H1A C3A 1_555 1_555
C4A C3 1_555 1_555
C5A C4A 1_555 1_555
C6A C5A 1_555 1_555
C7A C6A 1_555 1_555
H2A C7A 1_555 1_555
C8A C7A 1_555 1_555
H3A C8A 1_555 1_555
C9A C8A 1_555 1_555
H4A C9A 1_555 1_555
C10A C9A 1_555 1_555
H5A C10A 1_555 1_555
C11A C6A 1_555 1_555
H6A C11A 1_555 1_555
O1A C1A 1_555 1_555
O2A C1A 1_555 1_555
O3A C5A 1_555 1_555
C12A C13A 1_555 1_555
C13A C14A 1_555 1_555
C14A C15 1_555 1_555
H7A C14A 1_555 1_555
C15A C14 1_555 1_555
C16A C15A 1_555 1_555
C17A C16A 1_555 1_555
C18A C17A 1_555 1_555
H8A C18A 1_555 1_555
C19A C18A 1_555 1_555
H9A C19A 1_555 1_555
C20A C19A 1_555 1_555
H10A C20A 1_555 1_555
C21A C20A 1_555 1_555
H11A C21A 1_555 1_555
C22A C17A 1_555 1_555
H12A C22A 1_555 1_555
O4A C12A 1_555 1_555
O5A C12A 1_555 1_555
O6A C16A 1_555 1_555
C23A C24A 1_555 1_555
C24A C25A 1_555 1_555
C25A C26 1_555 1_555
H13A C25A 1_555 1_555
C26A C25 1_555 1_555
C27A C26A 1_555 1_555
C28A C27A 1_555 1_555
C29A C28A 1_555 1_555
H14A C29A 1_555 1_555
C30A C29A 1_555 1_555
H15A C30A 1_555 1_555
C31A C30A 1_555 1_555
H16A C31A 1_555 1_555
C32A C31A 1_555 1_555
H17A C32A 1_555 1_555
C33A C28A 1_555 1_555
H18A C33A 1_555 1_555
O7A C23A 1_555 1_555
O8A C23A 1_555 1_555
O9A C27A 1_555 1_555
Eu1A O4 1_555 1_555
O10A Eu1A 1_555 1_555
H19A O10A 1_555 1_555
H20A O10A 1_555 1_555
O11A Eu1A 1_555 1_555
H21A O11A 1_555 1_555
H22A O11A 1_555 1_555
Eu1_2 O8A 1_555 1_555
Eu1_3 O4A 1_555 1_555
Eu1A_2 O7A 1_555 1_555
Eu1A_3 O4A 1_555 1_555
Eu1A_4 O1A 1_555 1_555
O1A_2 Eu1A 1_555 1_555
O2A_2 Eu1A 1_555 1_555
O4A_2 Eu1 1_555 1_555
O5A_2 Eu1 1_555 1_555
O7A_2 Eu1A 1_555 1_555
O8A_2 Eu1 1_555 1_555
C1 O2 1_555 1_555
C10 C11 1_555 1_555
C12 O4 1_555 1_555
C21 C22 1_555 1_555
C23 O7 1_555 1_555
C32 C33 1_555 1_555
O5 Eu1A 1_555 1_555
O8 Eu1A 1_555 1_555
C2A C4A 1_555 1_555
C10A C11A 1_555 1_555
O2A Eu1A_4 1_555 1_555
C13A C15A 1_555 1_555
C21A C22A 1_555 1_555
O5A Eu1_3 1_555 1_555
C24A C26A 1_555 1_555
C32A C33A 1_555 1_555
Eu1A O4A_2 1_555 1_555

#END
