
#######################################################################
#
#                 Cambridge Crystallographic Data Centre
#                                CCDC 
#
#######################################################################
#
# If this CIF has been generated from an entry in the Cambridge 
# Structural Database, then it will include bibliographic, chemical, 
# crystal, experimental, refinement or atomic coordinate data resulting 
# from the CCDC's data processing and validation procedures.
#
#######################################################################

data_HIGYED
_symmetry_cell_setting           monoclinic
_symmetry_space_group_name_H-M   'P 21/c'
_symmetry_Int_Tables_number      14
_space_group_name_Hall           '-P 2ybc'
loop_
_symmetry_equiv_pos_site_id
_symmetry_equiv_pos_as_xyz
1 x,y,z
2 -x,1/2+y,1/2-z
3 -x,-y,-z
4 x,1/2-y,1/2+z
_cell_length_a                   12.0185(4)
_cell_length_b                   12.6199(5)
_cell_length_c                   19.5860(8)
_cell_angle_alpha                90
_cell_angle_beta                 108.006(3)
_cell_angle_gamma                90
_cell_volume                     2825.16
loop_
_atom_site_label
_atom_site_type_symbol
_atom_site_fract_x
_atom_site_fract_y
_atom_site_fract_z
Er1 Er 0.508502(18) 0.398517(15) 0.567600(10)
C1 C 0.6304(5) 0.4934(3) 0.6948(2)
C2 C 0.6930(4) 0.5468(3) 0.7651(2)
C3 C 0.6390(4) 0.6312(3) 0.7869(2)
H1 H 0.5637 0.6504 0.7596
C4 C 0.6959(4) 0.6884(3) 0.8496(2)
C5 C 0.8089(4) 0.6594(4) 0.8903(2)
C6 C 0.8597(4) 0.5726(4) 0.8692(2)
H2 H 0.9342 0.5520 0.8971
C7 C 0.8036(4) 0.5145(4) 0.8073(2)
C8 C 0.6281(5) 0.7720(4) 0.8744(2)
C9 C 0.8792(4) 0.7138(4) 0.9589(3)
C10 C 0.9600(4) 0.7998(4) 0.9533(2)
C11 C 0.9557(5) 0.8408(4) 0.8868(3)
H3 H 0.9014 0.8150 0.8453
C12 C 1.0334(5) 0.9213(4) 0.8825(3)
H4 H 1.0335 0.9480 0.8383
C13 C 1.1108(6) 0.9605(5) 0.9462(3)
H5 H 1.1601 1.0166 0.9445
C14 C 1.1149(5) 0.9185(5) 1.0092(3)
H6 H 1.1689 0.9440 1.0509
C15 C 1.0413(4) 0.8389(4) 1.0136(3)
H7 H 1.0461 0.8105 1.0582
C16 C 0.8694(5) 0.4187(4) 0.7936(2)
C17 C 0.8199(5) 0.3114(4) 0.7973(3)
C18 C 0.8718(6) 0.2229(5) 0.7790(3)
H8 H 0.9384 0.2298 0.7648
C19 C 0.8237(6) 0.1225(5) 0.7820(3)
H9 H 0.8578 0.0637 0.7680
C20 C 0.7337(6) 0.1092(6) 0.8036(4)
H10 H 0.7042 0.0413 0.8046
C21 C 0.6801(6) 0.1944(5) 0.8255(3)
H11 H 0.6159 0.1844 0.8418
C22 C 0.7257(5) 0.2967(4) 0.8224(3)
H12 H 0.6919 0.3549 0.8375
C23 C 0.7388(5) 0.2280(4) 0.5974(3)
H13 H 0.7694 0.2767 0.6341
C24 C 0.8070(5) 0.1393(4) 0.5938(3)
H14 H 0.8816 0.1313 0.6262
C25 C 0.7627(6) 0.0657(4) 0.5425(3)
H15 H 0.8058 0.0055 0.5397
C26 C 0.6511(5) 0.0811(4) 0.4936(3)
C27 C 0.5946(5) 0.0078(5) 0.4375(3)
H16 H 0.6335 -0.0544 0.4333
C28 C 0.4906(5) 0.0248(5) 0.3919(3)
H17 H 0.4583 -0.0252 0.3564
C29 C 0.4252(6) 0.1189(4) 0.3954(3)
C30 C 0.3110(6) 0.1414(5) 0.3501(3)
H18 H 0.2744 0.0947 0.3133
C31 C 0.2557(6) 0.2278(6) 0.3594(3)
H19 H 0.1815 0.2436 0.3286
C32 C 0.3113(5) 0.2960(5) 0.4169(3)
H20 H 0.2710 0.3560 0.4237
C33 C 0.4763(4) 0.1922(4) 0.4506(3)
C34 C 0.5870(5) 0.1738(4) 0.4997(3)
N1 N 0.6357(4) 0.2466(3) 0.5528(2)
N2 N 0.4157(4) 0.2798(3) 0.4612(2)
O1 O 0.6863(3) 0.4353(2) 0.66542(16)
O2 O 0.5231(3) 0.5120(3) 0.66686(16)
O3 O 0.6810(3) 0.8446(2) 0.91696(17)
O4 O 0.5176(3) 0.7643(3) 0.85449(19)
O5 O 0.9652(3) 0.4297(3) 0.7854(2)
O6 O 0.8765(4) 0.6794(3) 1.01624(19)
O7 O 0.6029(3) 0.4749(2) 0.49752(16)
Er1A Er 0.491498(18) 0.898517(15) 0.932400(10)
Er1B Er 0.491498(18) 0.601483(15) 0.432400(10)
O3A O 0.3190(3) 0.3446(2) 0.58304(17)
O4A O 0.4824(3) 0.2643(3) 0.64551(19)
O7B O 0.3971(3) 0.5251(2) 0.50248(16)
loop_
_geom_bond_atom_site_label_1
_geom_bond_atom_site_label_2
_geom_bond_site_symmetry_1
_geom_bond_site_symmetry_2
Er1 N1 1_555 1_555
C1 C2 1_555 1_555
C2 C3 1_555 1_555
C3 H1 1_555 1_555
C4 C3 1_555 1_555
C5 C4 1_555 1_555
C6 C5 1_555 1_555
H2 C6 1_555 1_555
C7 C2 1_555 1_555
C8 C4 1_555 1_555
C9 C5 1_555 1_555
C10 C9 1_555 1_555
C11 C10 1_555 1_555
H3 C11 1_555 1_555
C12 C11 1_555 1_555
H4 C12 1_555 1_555
C13 C12 1_555 1_555
H5 C13 1_555 1_555
C14 C13 1_555 1_555
H6 C14 1_555 1_555
C15 C10 1_555 1_555
H7 C15 1_555 1_555
C16 C7 1_555 1_555
C17 C16 1_555 1_555
C18 C17 1_555 1_555
H8 C18 1_555 1_555
C19 C18 1_555 1_555
H9 C19 1_555 1_555
C20 C19 1_555 1_555
H10 C20 1_555 1_555
C21 C20 1_555 1_555
H11 C21 1_555 1_555
C22 C17 1_555 1_555
H12 C22 1_555 1_555
C23 H13 1_555 1_555
C24 C23 1_555 1_555
H14 C24 1_555 1_555
C25 C24 1_555 1_555
H15 C25 1_555 1_555
C26 C25 1_555 1_555
C27 C26 1_555 1_555
H16 C27 1_555 1_555
C28 C27 1_555 1_555
H17 C28 1_555 1_555
C29 C28 1_555 1_555
C30 C29 1_555 1_555
H18 C30 1_555 1_555
C31 C30 1_555 1_555
H19 C31 1_555 1_555
C32 C31 1_555 1_555
H20 C32 1_555 1_555
C33 C29 1_555 1_555
C34 C26 1_555 1_555
N1 C23 1_555 1_555
N2 Er1 1_555 1_555
O1 Er1 1_555 1_555
O2 Er1 1_555 1_555
O3 C8 1_555 1_555
O4 C8 1_555 1_555
O5 C16 1_555 1_555
O6 C9 1_555 1_555
O7 Er1 1_555 1_555
Er1A O3 1_555 1_555
Er1B O7 1_555 1_555
O3A Er1 1_555 1_555
O4A Er1 1_555 1_555
O7B Er1 1_555 1_555
C1 O1 1_555 1_555
C1 O2 1_555 1_555
C6 C7 1_555 1_555
C14 C15 1_555 1_555
C21 C22 1_555 1_555
C32 N2 1_555 1_555
C33 C34 1_555 1_555
C33 N2 1_555 1_555
C34 N1 1_555 1_555
O4 Er1A 1_555 1_555
Er1B O7B 1_555 1_555

#END
