
#######################################################################
#
#                 Cambridge Crystallographic Data Centre
#                                CCDC 
#
#######################################################################
#
# If this CIF has been generated from an entry in the Cambridge 
# Structural Database, then it will include bibliographic, chemical, 
# crystal, experimental, refinement or atomic coordinate data resulting 
# from the CCDC's data processing and validation procedures.
#
#######################################################################

data_HIGYON
_symmetry_cell_setting           monoclinic
_symmetry_space_group_name_H-M   'P 21/n'
_symmetry_Int_Tables_number      14
_space_group_name_Hall           '-P 2yn'
loop_
_symmetry_equiv_pos_site_id
_symmetry_equiv_pos_as_xyz
1 x,y,z
2 1/2-x,1/2+y,1/2-z
3 -x,-y,-z
4 1/2+x,1/2-y,1/2+z
_cell_length_a                   30.6539(11)
_cell_length_b                   16.5114(5)
_cell_length_c                   35.9700(11)
_cell_angle_alpha                90
_cell_angle_beta                 111.244(2)
_cell_angle_gamma                90
_cell_volume                     16968.7
loop_
_atom_site_label
_atom_site_type_symbol
_atom_site_fract_x
_atom_site_fract_y
_atom_site_fract_z
Cr1 Cr 0.57348(3) 0.11087(5) 0.25224(3)
Cr2 Cr 0.66384(3) 0.23350(5) 0.30599(3)
Cr3 Cr 0.67177(3) 0.42088(6) 0.34605(3)
Cr4 Cr 0.59412(4) 0.55558(6) 0.35287(4)
Cr5 Cr 0.47860(4) 0.57871(6) 0.30392(3)
Cr6 Cr 0.38797(4) 0.46073(8) 0.25033(4)
Cr7 Cr 0.37743(4) 0.27043(9) 0.20856(3)
Ni1 Ni 0.45501(3) 0.12387(5) 0.20880(2)
F1 F 0.60089(10) 0.19812(15) 0.29032(8)
F2 F 0.64191(10) 0.34244(16) 0.30578(9)
F3 F 0.61235(10) 0.44715(16) 0.34815(9)
F4 F 0.53822(11) 0.53399(17) 0.30855(9)
F5 F 0.44915(10) 0.4729(2) 0.28935(9)
F6 F 0.41087(12) 0.3717(2) 0.22749(10)
F7 F 0.43452(10) 0.2200(2) 0.23445(9)
F8 F 0.52022(10) 0.17626(18) 0.22939(8)
O1 O 0.62959(13) 0.04346(19) 0.27920(11)
O2 O 0.68752(15) 0.1241(2) 0.30763(15)
O3 O 0.60295(13) 0.1591(2) 0.21632(10)
O4 O 0.65764(12) 0.2435(2) 0.25033(11)
O5 O 0.72812(13) 0.2720(2) 0.32069(12)
O6 O 0.73293(14) 0.3928(2) 0.34485(15)
O7 O 0.67058(17) 0.2200(2) 0.36064(13)
O8 O 0.68029(15) 0.3412(3) 0.38872(12)
O9 O 0.70302(15) 0.5021(3) 0.38578(15)
O10 O 0.65189(18) 0.5746(3) 0.39857(18)
O11 O 0.66377(13) 0.4999(2) 0.30357(12)
O12 O 0.62219(15) 0.5958(3) 0.31721(16)
O13 O 0.57841(17) 0.6682(3) 0.36110(15)
O14 O 0.5077(2) 0.6869(2) 0.31696(18)
O15 O 0.56289(15) 0.5212(3) 0.38871(13)
O16 O 0.49231(15) 0.5569(4) 0.35991(14)
O17 O 0.4227(2) 0.6361(3) 0.29944(17)
O18 O 0.36353(17) 0.5483(3) 0.27278(18)
O19 O 0.4657(2) 0.6030(3) 0.24825(14)
O20 O 0.40224(17) 0.5352(3) 0.21404(14)
O21 O 0.3280(2) 0.4526(4) 0.21084(19)
O22 O 0.31913(18) 0.3273(4) 0.18234(16)
O23 O 0.37320(15) 0.3884(3) 0.28572(14)
O24 O 0.36305(15) 0.2654(3) 0.25795(13)
O25 O 0.34309(18) 0.1715(4) 0.19190(18)
O26 O 0.39327(17) 0.0722(3) 0.19313(13)
O27 O 0.39142(17) 0.2857(3) 0.16037(13)
O28 O 0.44372(15) 0.1895(3) 0.15896(12)
O29 O 0.47514(16) 0.0337(2) 0.18234(11)
O30 O 0.55287(15) 0.0215(3) 0.21608(12)
O31 O 0.47077(14) 0.0679(2) 0.26232(10)
O32 O 0.54821(14) 0.0682(2) 0.29073(11)
C1 C 0.67012(19) 0.0571(3) 0.29747(16)
C2 C 0.70358(17) -0.0151(3) 0.31320(14)
C3 C 0.6801(2) -0.0937(3) 0.29469(19)
H1 H 0.7017 -0.139 0.3055
H2 H 0.6716 -0.0913 0.2657
H3 H 0.6518 -0.1017 0.3009
C4 C 0.74717(14) -0.0053(4) 0.30408(17)
H4 H 0.7679 -0.0515 0.3148
H5 H 0.7631 0.0448 0.3163
H6 H 0.739 -0.0026 0.2751
C5 C 0.7167(3) -0.0227(5) 0.35795(13)
H7 H 0.7378 -0.0689 0.3678
H8 H 0.6883 -0.0312 0.364
H9 H 0.7323 0.0269 0.371
C6 C 0.6329(2) 0.2093(3) 0.21804(16)
C7 C 0.64347(15) 0.2261(2) 0.18194(15)
C8 C 0.67565(19) 0.2990(3) 0.1872(2)
H10 H 0.6817 0.3079 0.1626
H11 H 0.7053 0.2888 0.2092
H12 H 0.6607 0.3471 0.1932
C9 C 0.6666(2) 0.1502(3) 0.17399(19)
H13 H 0.6737 0.1577 0.1497
H14 H 0.6454 0.1041 0.1705
H15 H 0.6957 0.1399 0.1966
C10 C 0.59799(18) 0.2425(5) 0.14775(17)
H16 H 0.6044 0.2524 0.1234
H17 H 0.5828 0.2901 0.1539
H18 H 0.5773 0.1954 0.1438
C11 C 0.7506(2) 0.3356(4) 0.3351(2)
C12 C 0.8010(2) 0.3440(3) 0.33914(13)
C13 C 0.8047(3) 0.4234(3) 0.3199(2)
H19 H 0.837 0.4314 0.3215
H20 H 0.7957 0.4676 0.3339
H21 H 0.7837 0.4228 0.2919
C14 C 0.8287(3) 0.3451(7) 0.38295(16)
H22 H 0.8621 0.3511 0.3874
H23 H 0.8238 0.2942 0.3949
H24 H 0.8185 0.3906 0.3953
C15 C 0.8153(2) 0.2781(4) 0.3178(2)
H25 H 0.848 0.2861 0.3204
H26 H 0.7952 0.279 0.2895
H27 H 0.8121 0.2257 0.3294
C16 C 0.6787(2) 0.2635(4) 0.38947(19)
C17 C 0.69143(16) 0.2289(3) 0.43118(17)
C18 C 0.74214(18) 0.2036(6) 0.4441(3)
H28 H 0.7521 0.1798 0.4709
H29 H 0.7615 0.2511 0.4446
H30 H 0.7457 0.1636 0.4253
C19 C 0.6849(3) 0.2888(4) 0.46062(18)
H31 H 0.6934 0.263 0.4869
H32 H 0.652 0.3059 0.4514
H33 H 0.7049 0.3361 0.4626
C20 C 0.6619(2) 0.1540(3) 0.4285(2)
H34 H 0.6698 0.1303 0.4552
H35 H 0.668 0.1144 0.4107
H36 H 0.6286 0.1689 0.418
C21 C 0.6912(3) 0.5579(5) 0.4024(3)
C22 C 0.73017(18) 0.5939(3) 0.43805(16)
C23 C 0.7652(3) 0.5367(5) 0.4661(3)
H37 H 0.7881 0.5676 0.4876
H38 H 0.7814 0.5068 0.4514
H39 H 0.7489 0.4984 0.4773
C24 C 0.7552(3) 0.6431(6) 0.4162(2)
H40 H 0.7816 0.6719 0.4357
H41 H 0.7334 0.6824 0.3987
H42 H 0.7667 0.6069 0.4003
C25 C 0.7104(3) 0.6481(5) 0.4616(2)
H43 H 0.7361 0.6713 0.4842
H44 H 0.6899 0.6165 0.4716
H45 H 0.6924 0.6919 0.4444
C26 C 0.6451(2) 0.5655(3) 0.2962(2)
C27 C 0.65614(16) 0.6190(3) 0.26777(16)
C28 C 0.6702(2) 0.5697(4) 0.23905(18)
H46 H 0.677 0.6058 0.2202
H47 H 0.6445 0.5331 0.2244
H48 H 0.6981 0.538 0.2537
C29 C 0.6947(2) 0.6751(4) 0.2914(2)
H49 H 0.7026 0.7113 0.2732
H50 H 0.7223 0.6434 0.3069
H51 H 0.6843 0.7072 0.3096
C30 C 0.6129(2) 0.6659(5) 0.2436(3)
H52 H 0.62 0.701 0.2246
H53 H 0.6026 0.6991 0.2615
H54 H 0.5879 0.628 0.2291
C31 C 0.5445(3) 0.7123(4) 0.3362(2)
C32 C 0.55435(16) 0.8031(3) 0.34931(13)
C33 C 0.6039(2) 0.8199(4) 0.3770(2)
H55 H 0.6093 0.7943 0.4029
H56 H 0.6085 0.8785 0.3806
H57 H 0.6259 0.7979 0.3655
C34 C 0.5434(3) 0.8427(4) 0.30978(14)
H58 H 0.5107 0.8317 0.293
H59 H 0.5641 0.8213 0.2968
H60 H 0.548 0.9013 0.3135
C35 C 0.52126(18) 0.8256(4) 0.37006(16)
H61 H 0.5307 0.798 0.3959
H62 H 0.4894 0.8092 0.3536
H63 H 0.5222 0.8844 0.3742
C36 C 0.5247(2) 0.5316(4) 0.38941(19)
C37 C 0.51619(17) 0.5203(3) 0.42782(17)
C38 C 0.5491(3) 0.4586(4) 0.4544(2)
H64 H 0.5815 0.4758 0.4603
H65 H 0.5439 0.4059 0.4409
H66 H 0.5433 0.4539 0.4794
C39 C 0.5291(3) 0.6006(3) 0.4491(2)
H67 H 0.5616 0.6137 0.4531
H68 H 0.5254 0.5972 0.475
H69 H 0.5084 0.643 0.433
C40 C 0.46751(18) 0.4957(7) 0.4220(3)
H70 H 0.4645 0.4891 0.4481
H71 H 0.4603 0.4442 0.4075
H72 H 0.4456 0.5374 0.4067
C41 C 0.3786(3) 0.6046(6) 0.2899(2)
C42 C 0.3456(2) 0.6713(3) 0.29910(16)
C43 C 0.3412(3) 0.6418(6) 0.33722(17)
H73 H 0.3715 0.6464 0.3591
H74 H 0.3311 0.585 0.3341
H75 H 0.318 0.6748 0.3432
C44 C 0.3667(3) 0.7544(4) 0.3042(4)
H76 H 0.397 0.7541 0.3264
H77 H 0.3457 0.7931 0.3099
H78 H 0.3713 0.7704 0.2796
C45 C 0.2987(2) 0.6644(7) 0.2668(3)
H79 H 0.2874 0.6085 0.2654
H80 H 0.301 0.6794 0.2412
H81 H 0.2766 0.7009 0.2725
C46 C 0.4315(2) 0.5892(4) 0.2165(2)
C47 C 0.42955(16) 0.6345(3) 0.18005(16)
C48 C 0.47775(17) 0.6661(5) 0.1835(2)
H82 H 0.4905 0.7 0.2074
H83 H 0.4748 0.6982 0.1598
H84 H 0.4988 0.6202 0.1856
C49 C 0.3992(2) 0.7076(4) 0.1783(2)
H85 H 0.4132 0.7399 0.2026
H86 H 0.3679 0.6898 0.1762
H87 H 0.3969 0.7406 0.155
C50 C 0.4080(3) 0.5830(4) 0.14368(18)
H88 H 0.4067 0.6135 0.12
H89 H 0.3762 0.5677 0.1413
H90 H 0.4269 0.5341 0.146
C51 C 0.3077(3) 0.4028(6) 0.1813(3)
C52 C 0.2546(2) 0.4175(3) 0.15580(16)
C53 C 0.2572(3) 0.4691(5) 0.1221(2)
H91 H 0.2756 0.441 0.1088
H92 H 0.2721 0.5209 0.1327
H93 H 0.2255 0.4789 0.1029
C54 C 0.2288(3) 0.4631(6) 0.1780(2)
H94 H 0.2231 0.427 0.1974
H95 H 0.1988 0.4827 0.159
H96 H 0.2477 0.5093 0.192
C55 C 0.2251(3) 0.3441(4) 0.1363(3)
H97 H 0.2249 0.3056 0.157
H98 H 0.2385 0.318 0.1184
H99 H 0.193 0.3614 0.121
C56 C 0.3627(2) 0.3139(5) 0.2843(2)
C57 C 0.34900(17) 0.2846(3) 0.31742(16)
C58 C 0.3781(3) 0.3235(5) 0.35656(19)
H100 H 0.3675 0.3042 0.3776
H101 H 0.3746 0.3825 0.3542
H102 H 0.411 0.3091 0.3632
C59 C 0.29877(18) 0.3108(6) 0.3084(3)
H103 H 0.2887 0.293 0.33
H104 H 0.2785 0.2864 0.2833
H105 H 0.2967 0.37 0.3062
C60 C 0.3547(4) 0.1939(3) 0.3210(3)
H106 H 0.3451 0.1746 0.3427
H107 H 0.3875 0.1798 0.3269
H108 H 0.3351 0.1685 0.2959
C61 C 0.3539(3) 0.1028(6) 0.1872(3)
C62 C 0.3174(2) 0.0260(4) 0.18731(15)
C63 C 0.3336(3) -0.0540(4) 0.1773(3)
H109 H 0.3627 -0.0699 0.1987
H110 H 0.3392 -0.0492 0.1522
H111 H 0.3096 -0.0951 0.1744
C64 C 0.3133(3) 0.0229(8) 0.22780(17)
H112 H 0.3023 0.0754 0.2337
H113 H 0.3439 0.0105 0.2481
H114 H 0.2909 -0.0194 0.2279
C65 C 0.2728(3) 0.0496(7) 0.1543(3)
H115 H 0.2612 0.1006 0.1611
H116 H 0.2493 0.0071 0.1507
H117 H 0.2788 0.0564 0.1295
C66 C 0.5124(3) 0.0027(4) 0.18733(19)
C67 C 0.52042(16) -0.0687(3) 0.16344(15)
C68 C 0.5423(2) -0.0344(5) 0.13486(16)
H118 H 0.5473 -0.0782 0.1185
H119 H 0.5724 -0.0091 0.1502
H120 H 0.5213 0.0063 0.1176
C69 C 0.47234(19) -0.1006(5) 0.1401(2)
H121 H 0.4748 -0.1466 0.1238
H122 H 0.4536 -0.0578 0.1228
H123 H 0.4573 -0.1182 0.1585
C70 C 0.5507(3) -0.1347(4) 0.1883(2)
H124 H 0.5536 -0.1784 0.1709
H125 H 0.5366 -0.1559 0.2068
H126 H 0.5818 -0.1129 0.2035
C71 C 0.4219(2) 0.2513(5) 0.14839(18)
C72 C 0.4338(3) 0.3006(4) 0.11611(19)
C73 C 0.4131(3) 0.3726(5) 0.1017(2)
H127 H 0.3891 0.3931 0.1099
C74 C 0.4266(3) 0.4150(5) 0.0759(2)
H128 H 0.4137 0.4673 0.0679
N1 N 0.4576(2) 0.3857(4) 0.06106(16)
C75 C 0.4778(3) 0.3141(4) 0.0743(2)
H129 H 0.5009 0.2933 0.065
C76 C 0.4648(2) 0.2703(4) 0.10186(17)
H130 H 0.4782 0.2185 0.1105
C77 C 0.5075(2) 0.0614(3) 0.29142(16)
C78 C 0.5048(2) 0.0495(3) 0.33037(16)
C79 C 0.5423(2) 0.0498(3) 0.36285(17)
H131 H 0.5724 0.0557 0.3613
C80 C 0.5375(2) 0.0412(3) 0.40054(18)
H132 H 0.5649 0.0447 0.4239
N2 N 0.49892(17) 0.0292(3) 0.40474(13)
C81 C 0.4602(2) 0.0280(4) 0.37282(17)
H133 H 0.431 0.0186 0.3755
C82 C 0.4621(2) 0.0404(4) 0.33518(17)
H134 H 0.4339 0.0428 0.3125
Cu1 Cu 0.48322(5) 0.45765(6) 0.02226(3)
Cu2 Cu 0.49798(3) 0.00883(5) 0.46376(2)
O33 O 0.4322(3) 0.4396(5) -0.02328(19)
O34 O 0.4673(3) 0.5025(5) -0.06253(19)
O35 O 0.4513(3) 0.5575(5) 0.02629(19)
O36 O 0.4822(3) 0.6320(4) -0.00981(18)
O37 O 0.55194(16) -0.0626(3) 0.48063(11)
O38 O 0.55675(17) -0.0747(3) 0.54264(12)
O39 O 0.45665(18) -0.0865(3) 0.45138(12)
O40 O 0.4616(2) -0.0999(3) 0.51366(13)
C83 C 0.4326(5) 0.4658(9) -0.0580(3)
C84 C 0.39612(19) 0.4288(3) -0.10078(17)
C85 C 0.3566(2) 0.3899(6) -0.0915(2)
H135 H 0.3684 0.3423 -0.0746
H136 H 0.3319 0.3734 -0.1164
H137 H 0.344 0.4288 -0.0775
C86 C 0.4161(3) 0.3712(5) -0.1235(3)
H138 H 0.4414 0.3982 -0.1293
H139 H 0.3914 0.3554 -0.1486
H140 H 0.4284 0.3228 -0.1073
C87 C 0.3788(4) 0.5033(4) -0.1268(2)
H141 H 0.4046 0.5268 -0.1332
H142 H 0.3672 0.5433 -0.1125
H143 H 0.3534 0.4878 -0.1515
C88 C 0.4565(5) 0.6212(7) 0.0096(4)
C89 C 0.4315(2) 0.6984(5) 0.01718(15)
C90 C 0.3994(4) 0.7155(10) -0.02541(19)
H144 H 0.4181 0.7209 -0.0423
H145 H 0.3821 0.7658 -0.0262
H146 H 0.3772 0.6706 -0.0352
C91 C 0.4661(3) 0.7676(5) 0.0308(4)
H147 H 0.4823 0.7744 0.012
H148 H 0.489 0.7555 0.0574
H149 H 0.4494 0.8176 0.0319
C92 C 0.4047(2) 0.6904(10) 0.0445(2)
H150 H 0.382 0.6462 0.0352
H151 H 0.3882 0.7411 0.0447
H152 H 0.4265 0.6784 0.0716
C93 C 0.5713(3) -0.0895(4) 0.5143(2)
C94 C 0.61160(19) -0.1519(3) 0.52482(13)
C95 C 0.6309(2) -0.1545(8) 0.49195(16)
H153 H 0.6052 -0.1626 0.4663
H154 H 0.6532 -0.1993 0.4967
H155 H 0.6468 -0.1033 0.4914
C96 C 0.5902(3) -0.2350(4) 0.5250(3)
H156 H 0.5656 -0.245 0.499
H157 H 0.5768 -0.2369 0.5459
H158 H 0.6146 -0.2765 0.5302
C97 C 0.6488(3) -0.1392(7) 0.56510(18)
H159 H 0.6346 -0.1399 0.5855
H160 H 0.6641 -0.0869 0.5657
H161 H 0.6721 -0.1827 0.5705
C98 C 0.4482(3) -0.1227(4) 0.47801(19)
C99 C 0.41432(18) -0.1921(3) 0.46622(13)
C100 C 0.4064(3) -0.2195(5) 0.42439(15)
H162 H 0.3843 -0.2649 0.4174
H163 H 0.4362 -0.2369 0.4227
H164 H 0.3936 -0.1746 0.4058
C101 C 0.36746(19) -0.1613(6) 0.4666(2)
H165 H 0.3444 -0.2053 0.4588
H166 H 0.3565 -0.1164 0.4476
H167 H 0.3714 -0.1425 0.4934
C102 C 0.4318(4) -0.2612(4) 0.4948(2)
H168 H 0.4094 -0.3062 0.4866
H169 H 0.435 -0.2436 0.5217
H170 H 0.4622 -0.2792 0.4948
Cu1B Cu 0.51678(5) 0.54235(6) -0.02226(3)
Cu2B Cu 0.50202(3) -0.00883(5) 0.53624(2)
O34B O 0.5327(3) 0.4975(5) 0.06253(19)
O36B O 0.5178(3) 0.3680(4) 0.00981(18)
O38B O 0.44325(17) 0.0747(3) 0.45736(12)
O40B O 0.5384(2) 0.0999(3) 0.48634(13)
C103 C 0.5198(3) 0.2695(4) 0.37155(18)
H171 H 0.5003 0.2325 0.3801
H172 H 0.5181 0.324 0.3817
H173 H 0.5524 0.2506 0.3821
C104 C 0.5035(3) 0.2716(5) 0.3289(2)
H174 H 0.4701 0.2873 0.3191
H175 H 0.5051 0.2158 0.3195
C105 C 0.5274(2) 0.3249(4) 0.30994(17)
H176 H 0.5609 0.3099 0.32
H177 H 0.5253 0.381 0.3189
N3 N 0.51045(18) 0.3251(3) 0.26605(15)
C106 C 0.5338(2) 0.3810(3) 0.24749(17)
H178 H 0.5301 0.4368 0.256
H179 H 0.5677 0.3685 0.2578
C107 C 0.5169(3) 0.3787(4) 0.20474(19)
H180 H 0.483 0.3909 0.1949
H181 H 0.5202 0.3223 0.1967
C108 C 0.5381(2) 0.4317(4) 0.1837(2)
H182 H 0.5232 0.4229 0.1549
H183 H 0.5716 0.4196 0.1921
H184 H 0.534 0.4883 0.1899
loop_
_geom_bond_atom_site_label_1
_geom_bond_atom_site_label_2
_geom_bond_site_symmetry_1
_geom_bond_site_symmetry_2
Cr1 F1 1_555 1_555
Cr2 F1 1_555 1_555
Cr3 F2 1_555 1_555
Cr4 F3 1_555 1_555
Cr5 F4 1_555 1_555
Cr6 F5 1_555 1_555
Cr7 F6 1_555 1_555
Ni1 F7 1_555 1_555
F2 Cr2 1_555 1_555
F3 Cr3 1_555 1_555
F4 Cr4 1_555 1_555
F5 Cr5 1_555 1_555
F6 Cr6 1_555 1_555
F7 Cr7 1_555 1_555
F8 Cr1 1_555 1_555
O1 Cr1 1_555 1_555
O2 Cr2 1_555 1_555
O3 Cr1 1_555 1_555
O4 Cr2 1_555 1_555
O5 Cr2 1_555 1_555
O6 Cr3 1_555 1_555
O7 Cr2 1_555 1_555
O8 Cr3 1_555 1_555
O9 Cr3 1_555 1_555
O10 Cr4 1_555 1_555
O11 Cr3 1_555 1_555
O12 Cr4 1_555 1_555
O13 Cr4 1_555 1_555
O14 Cr5 1_555 1_555
O15 Cr4 1_555 1_555
O16 Cr5 1_555 1_555
O17 Cr5 1_555 1_555
O18 Cr6 1_555 1_555
O19 Cr5 1_555 1_555
O20 Cr6 1_555 1_555
O21 Cr6 1_555 1_555
O22 Cr7 1_555 1_555
O23 Cr6 1_555 1_555
O24 Cr7 1_555 1_555
O25 Cr7 1_555 1_555
O26 Ni1 1_555 1_555
O27 Cr7 1_555 1_555
O28 Ni1 1_555 1_555
O29 Ni1 1_555 1_555
O30 Cr1 1_555 1_555
O31 Ni1 1_555 1_555
O32 Cr1 1_555 1_555
C1 O1 1_555 1_555
C2 C1 1_555 1_555
C3 C2 1_555 1_555
H1 C3 1_555 1_555
H2 C3 1_555 1_555
H3 C3 1_555 1_555
C4 C2 1_555 1_555
H4 C4 1_555 1_555
H5 C4 1_555 1_555
H6 C4 1_555 1_555
C5 C2 1_555 1_555
H7 C5 1_555 1_555
H8 C5 1_555 1_555
H9 C5 1_555 1_555
C6 O3 1_555 1_555
C7 C6 1_555 1_555
C8 C7 1_555 1_555
H10 C8 1_555 1_555
H11 C8 1_555 1_555
H12 C8 1_555 1_555
C9 C7 1_555 1_555
H13 C9 1_555 1_555
H14 C9 1_555 1_555
H15 C9 1_555 1_555
C10 C7 1_555 1_555
H16 C10 1_555 1_555
H17 C10 1_555 1_555
H18 C10 1_555 1_555
C11 O5 1_555 1_555
C12 C11 1_555 1_555
C13 C12 1_555 1_555
H19 C13 1_555 1_555
H20 C13 1_555 1_555
H21 C13 1_555 1_555
C14 C12 1_555 1_555
H22 C14 1_555 1_555
H23 C14 1_555 1_555
H24 C14 1_555 1_555
C15 C12 1_555 1_555
H25 C15 1_555 1_555
H26 C15 1_555 1_555
H27 C15 1_555 1_555
C16 O7 1_555 1_555
C17 C16 1_555 1_555
C18 C17 1_555 1_555
H28 C18 1_555 1_555
H29 C18 1_555 1_555
H30 C18 1_555 1_555
C19 C17 1_555 1_555
H31 C19 1_555 1_555
H32 C19 1_555 1_555
H33 C19 1_555 1_555
C20 C17 1_555 1_555
H34 C20 1_555 1_555
H35 C20 1_555 1_555
H36 C20 1_555 1_555
C21 O9 1_555 1_555
C22 C21 1_555 1_555
C23 C22 1_555 1_555
H37 C23 1_555 1_555
H38 C23 1_555 1_555
H39 C23 1_555 1_555
C24 C22 1_555 1_555
H40 C24 1_555 1_555
H41 C24 1_555 1_555
H42 C24 1_555 1_555
C25 C22 1_555 1_555
H43 C25 1_555 1_555
H44 C25 1_555 1_555
H45 C25 1_555 1_555
C26 O11 1_555 1_555
C27 C26 1_555 1_555
C28 C27 1_555 1_555
H46 C28 1_555 1_555
H47 C28 1_555 1_555
H48 C28 1_555 1_555
C29 C27 1_555 1_555
H49 C29 1_555 1_555
H50 C29 1_555 1_555
H51 C29 1_555 1_555
C30 C27 1_555 1_555
H52 C30 1_555 1_555
H53 C30 1_555 1_555
H54 C30 1_555 1_555
C31 O13 1_555 1_555
C32 C31 1_555 1_555
C33 C32 1_555 1_555
H55 C33 1_555 1_555
H56 C33 1_555 1_555
H57 C33 1_555 1_555
C34 C32 1_555 1_555
H58 C34 1_555 1_555
H59 C34 1_555 1_555
H60 C34 1_555 1_555
C35 C32 1_555 1_555
H61 C35 1_555 1_555
H62 C35 1_555 1_555
H63 C35 1_555 1_555
C36 O15 1_555 1_555
C37 C36 1_555 1_555
C38 C37 1_555 1_555
H64 C38 1_555 1_555
H65 C38 1_555 1_555
H66 C38 1_555 1_555
C39 C37 1_555 1_555
H67 C39 1_555 1_555
H68 C39 1_555 1_555
H69 C39 1_555 1_555
C40 C37 1_555 1_555
H70 C40 1_555 1_555
H71 C40 1_555 1_555
H72 C40 1_555 1_555
C41 O17 1_555 1_555
C42 C41 1_555 1_555
C43 C42 1_555 1_555
H73 C43 1_555 1_555
H74 C43 1_555 1_555
H75 C43 1_555 1_555
C44 C42 1_555 1_555
H76 C44 1_555 1_555
H77 C44 1_555 1_555
H78 C44 1_555 1_555
C45 C42 1_555 1_555
H79 C45 1_555 1_555
H80 C45 1_555 1_555
H81 C45 1_555 1_555
C46 O19 1_555 1_555
C47 C46 1_555 1_555
C48 C47 1_555 1_555
H82 C48 1_555 1_555
H83 C48 1_555 1_555
H84 C48 1_555 1_555
C49 C47 1_555 1_555
H85 C49 1_555 1_555
H86 C49 1_555 1_555
H87 C49 1_555 1_555
C50 C47 1_555 1_555
H88 C50 1_555 1_555
H89 C50 1_555 1_555
H90 C50 1_555 1_555
C51 O21 1_555 1_555
C52 C51 1_555 1_555
C53 C52 1_555 1_555
H91 C53 1_555 1_555
H92 C53 1_555 1_555
H93 C53 1_555 1_555
C54 C52 1_555 1_555
H94 C54 1_555 1_555
H95 C54 1_555 1_555
H96 C54 1_555 1_555
C55 C52 1_555 1_555
H97 C55 1_555 1_555
H98 C55 1_555 1_555
H99 C55 1_555 1_555
C56 O23 1_555 1_555
C57 C56 1_555 1_555
C58 C57 1_555 1_555
H100 C58 1_555 1_555
H101 C58 1_555 1_555
H102 C58 1_555 1_555
C59 C57 1_555 1_555
H103 C59 1_555 1_555
H104 C59 1_555 1_555
H105 C59 1_555 1_555
C60 C57 1_555 1_555
H106 C60 1_555 1_555
H107 C60 1_555 1_555
H108 C60 1_555 1_555
C61 O25 1_555 1_555
C62 C61 1_555 1_555
C63 C62 1_555 1_555
H109 C63 1_555 1_555
H110 C63 1_555 1_555
H111 C63 1_555 1_555
C64 C62 1_555 1_555
H112 C64 1_555 1_555
H113 C64 1_555 1_555
H114 C64 1_555 1_555
C65 C62 1_555 1_555
H115 C65 1_555 1_555
H116 C65 1_555 1_555
H117 C65 1_555 1_555
C66 O29 1_555 1_555
C67 C66 1_555 1_555
C68 C67 1_555 1_555
H118 C68 1_555 1_555
H119 C68 1_555 1_555
H120 C68 1_555 1_555
C69 C67 1_555 1_555
H121 C69 1_555 1_555
H122 C69 1_555 1_555
H123 C69 1_555 1_555
C70 C67 1_555 1_555
H124 C70 1_555 1_555
H125 C70 1_555 1_555
H126 C70 1_555 1_555
C71 O27 1_555 1_555
C72 C71 1_555 1_555
C73 C72 1_555 1_555
H127 C73 1_555 1_555
C74 C73 1_555 1_555
H128 C74 1_555 1_555
N1 C74 1_555 1_555
C75 N1 1_555 1_555
H129 C75 1_555 1_555
C76 C72 1_555 1_555
H130 C76 1_555 1_555
C77 O31 1_555 1_555
C78 C77 1_555 1_555
C79 C78 1_555 1_555
H131 C79 1_555 1_555
C80 C79 1_555 1_555
H132 C80 1_555 1_555
N2 C80 1_555 1_555
C81 N2 1_555 1_555
H133 C81 1_555 1_555
C82 C78 1_555 1_555
H134 C82 1_555 1_555
Cu1 N1 1_555 1_555
Cu2 N2 1_555 1_555
O33 Cu1 1_555 1_555
O34 C83 1_555 1_555
O35 Cu1 1_555 1_555
O36 C88 1_555 1_555
O37 Cu2 1_555 1_555
O38 C93 1_555 1_555
O39 Cu2 1_555 1_555
O40 C98 1_555 1_555
C83 O33 1_555 1_555
C84 C83 1_555 1_555
C85 C84 1_555 1_555
H135 C85 1_555 1_555
H136 C85 1_555 1_555
H137 C85 1_555 1_555
C86 C84 1_555 1_555
H138 C86 1_555 1_555
H139 C86 1_555 1_555
H140 C86 1_555 1_555
C87 C84 1_555 1_555
H141 C87 1_555 1_555
H142 C87 1_555 1_555
H143 C87 1_555 1_555
C88 O35 1_555 1_555
C89 C88 1_555 1_555
C90 C89 1_555 1_555
H144 C90 1_555 1_555
H145 C90 1_555 1_555
H146 C90 1_555 1_555
C91 C89 1_555 1_555
H147 C91 1_555 1_555
H148 C91 1_555 1_555
H149 C91 1_555 1_555
C92 C89 1_555 1_555
H150 C92 1_555 1_555
H151 C92 1_555 1_555
H152 C92 1_555 1_555
C93 O37 1_555 1_555
C94 C93 1_555 1_555
C95 C94 1_555 1_555
H153 C95 1_555 1_555
H154 C95 1_555 1_555
H155 C95 1_555 1_555
C96 C94 1_555 1_555
H156 C96 1_555 1_555
H157 C96 1_555 1_555
H158 C96 1_555 1_555
C97 C94 1_555 1_555
H159 C97 1_555 1_555
H160 C97 1_555 1_555
H161 C97 1_555 1_555
C98 O39 1_555 1_555
C99 C98 1_555 1_555
C100 C99 1_555 1_555
H162 C100 1_555 1_555
H163 C100 1_555 1_555
H164 C100 1_555 1_555
C101 C99 1_555 1_555
H165 C101 1_555 1_555
H166 C101 1_555 1_555
H167 C101 1_555 1_555
C102 C99 1_555 1_555
H168 C102 1_555 1_555
H169 C102 1_555 1_555
H170 C102 1_555 1_555
C103 H171 1_555 1_555
H172 C103 1_555 1_555
H173 C103 1_555 1_555
C104 C103 1_555 1_555
H174 C104 1_555 1_555
H175 C104 1_555 1_555
C105 C104 1_555 1_555
H176 C105 1_555 1_555
H177 C105 1_555 1_555
N3 C105 1_555 1_555
C106 N3 1_555 1_555
H178 C106 1_555 1_555
H179 C106 1_555 1_555
C107 C106 1_555 1_555
H180 C107 1_555 1_555
H181 C107 1_555 1_555
C108 C107 1_555 1_555
H182 C108 1_555 1_555
H183 C108 1_555 1_555
H184 C108 1_555 1_555
Cu1B Cu1 1_555 1_555
Cu2B Cu2 1_555 1_555
O34B Cu1 1_555 1_555
O36B Cu1 1_555 1_555
O38B Cu2 1_555 1_555
O40B Cu2 1_555 1_555
Ni1 F8 1_555 1_555
O2 C1 1_555 1_555
O4 C6 1_555 1_555
O6 C11 1_555 1_555
O8 C16 1_555 1_555
O10 C21 1_555 1_555
O12 C26 1_555 1_555
O14 C31 1_555 1_555
O16 C36 1_555 1_555
O18 C41 1_555 1_555
O20 C46 1_555 1_555
O22 C51 1_555 1_555
O24 C56 1_555 1_555
O26 C61 1_555 1_555
O28 C71 1_555 1_555
O30 C66 1_555 1_555
O32 C77 1_555 1_555
C75 C76 1_555 1_555
C81 C82 1_555 1_555
O34 Cu1B 1_555 1_555
O36 Cu1B 1_555 1_555
O38 Cu2B 1_555 1_555
O40 Cu2B 1_555 1_555

#END
