
#######################################################################
#
#                 Cambridge Crystallographic Data Centre
#                                CCDC 
#
#######################################################################
#
# If this CIF has been generated from an entry in the Cambridge 
# Structural Database, then it will include bibliographic, chemical, 
# crystal, experimental, refinement or atomic coordinate data resulting 
# from the CCDC's data processing and validation procedures.
#
#######################################################################

data_HIHBEH
_symmetry_cell_setting           monoclinic
_symmetry_space_group_name_H-M   'P 21/n'
_symmetry_Int_Tables_number      14
_space_group_name_Hall           '-P 2yn'
loop_
_symmetry_equiv_pos_site_id
_symmetry_equiv_pos_as_xyz
1 x,y,z
2 1/2-x,1/2+y,1/2-z
3 -x,-y,-z
4 1/2+x,1/2-y,1/2+z
_cell_length_a                   16.9352(6)
_cell_length_b                   29.4007(11)
_cell_length_c                   29.4140(13)
_cell_angle_alpha                90
_cell_angle_beta                 90.834(3)
_cell_angle_gamma                90
_cell_volume                     14643.9
loop_
_atom_site_label
_atom_site_type_symbol
_atom_site_fract_x
_atom_site_fract_y
_atom_site_fract_z
C1 C 0.2554(13) 0.2027(9) 0.5261(8)
H1 H 0.2948 0.2089 0.5496
H2 H 0.2576 0.1707 0.5181
C2 C 0.1667(13) 0.2167(8) 0.5434(8)
H3 H 0.1277 0.1961 0.5304
H4 H 0.1645 0.2146 0.5763
C3 C 0.1518(15) 0.2587(9) 0.5302(8)
H5 H 0.1601 0.2797 0.5552
H6 H 0.0975 0.2614 0.5196
C4 C 0.2100(11) 0.2694(7) 0.4906(7)
H7 H 0.1811 0.2726 0.4621
H8 H 0.238 0.2976 0.4967
C5 C 0.4450(7) 0.2778(5) 0.5100(4)
H9 H 0.3991 0.2951 0.5078
C6 C 0.5052(7) 0.2900(4) 0.5416(4)
H10 H 0.4985 0.3147 0.5609
C7 C 0.5740(6) 0.2648(4) 0.5435(4)
C8 C 0.6371(6) 0.2761(4) 0.5805(3)
C9 C 0.5894(7) 0.0756(4) 0.6052(3)
C10 C 0.5593(6) 0.0661(4) 0.5557(4)
C11 C 0.5658(15) 0.1073(5) 0.5272(6)
H11 H 0.6202 0.1164 0.5258
H12 H 0.5353 0.1314 0.5402
H13 H 0.5463 0.1008 0.4971
C12 C 0.6105(10) 0.0296(5) 0.5350(7)
H14 H 0.6634 0.0407 0.5322
H15 H 0.5899 0.0216 0.5055
H16 H 0.6106 0.0032 0.5543
C13 C 0.4779(7) 0.0503(7) 0.5620(7)
H17 H 0.4785 0.0224 0.5791
H18 H 0.4532 0.0451 0.5329
H19 H 0.4488 0.0729 0.5783
C14 C 0.7414(7) 0.0195(3) 0.6699(5)
C15 C 0.7908(6) -0.0245(4) 0.6578(3)
C16 C 0.7379(8) -0.0592(4) 0.6365(5)
H20 H 0.6968 -0.0671 0.6573
H21 H 0.768 -0.0859 0.6294
H22 H 0.7148 -0.047 0.6091
C17 C 0.8183(9) -0.0371(6) 0.7043(4)
H23 H 0.8538 -0.0142 0.7157
H24 H 0.8452 -0.0658 0.7034
H25 H 0.7738 -0.0394 0.724
C18 C 0.8535(8) -0.0124(6) 0.6251(5)
H26 H 0.8888 0.0093 0.6388
H27 H 0.8297 0.0006 0.5982
H28 H 0.8823 -0.0392 0.617
C19 C 0.5797(7) 0.0543(4) 0.7999(3)
C20 C 0.6262(6) 0.0480(3) 0.8462(3)
C21 C 0.7072(6) 0.0670(5) 0.8422(6)
H29 H 0.7357 0.0501 0.8198
H30 H 0.7343 0.065 0.871
H31 H 0.7039 0.0983 0.833
C22 C 0.6309(12) -0.0028(3) 0.8518(7)
H32 H 0.5787 -0.015 0.8549
H33 H 0.6618 -0.01 0.8785
H34 H 0.6552 -0.0159 0.8256
C23 C 0.5824(10) 0.0722(6) 0.8821(5)
H35 H 0.5299 0.0601 0.8838
H36 H 0.5797 0.104 0.8749
H37 H 0.6091 0.0682 0.9108
C24 C 0.4658(7) -0.0139(3) 0.7152(4)
C25 C 0.4428(5) -0.0645(3) 0.7040(3)
C26 C 0.5155(6) -0.0934(4) 0.7054(5)
H38 H 0.552 -0.0828 0.683
H39 H 0.5015 -0.1244 0.699
H40 H 0.5398 -0.0915 0.735
C27 C 0.4103(7) -0.0631(4) 0.6558(3)
H41 H 0.4514 -0.054 0.6355
H42 H 0.3677 -0.0416 0.654
H43 H 0.3913 -0.0927 0.6474
C28 C 0.3836(7) -0.0786(4) 0.7374(4)
H44 H 0.3384 -0.0589 0.7351
H45 H 0.406 -0.0767 0.7675
H46 H 0.3676 -0.1093 0.7313
C29 C 0.8406(5) 0.1728(4) 0.7018(3)
C30 C 0.9051(6) 0.1709(3) 0.7404(3)
C31 C 0.8969(8) 0.2112(4) 0.7709(4)
H47 H 0.9034 0.2385 0.7535
H48 H 0.9366 0.2099 0.7945
H49 H 0.8455 0.211 0.7842
C32 C 0.9832(6) 0.1729(6) 0.7160(5)
H50 H 0.9861 0.2006 0.6988
H51 H 0.9872 0.1474 0.6957
H52 H 1.0258 0.1719 0.7378
C33 C 0.8963(12) 0.1294(4) 0.7682(5)
H53 H 0.9015 0.1031 0.7491
H54 H 0.8453 0.1293 0.7819
H55 H 0.9366 0.1289 0.7915
C34 C 0.8323(7) 0.1554(4) 0.5789(3)
C35 C 0.8710(6) 0.1468(3) 0.5313(4)
C36 C 0.9451(6) 0.1733(5) 0.5307(6)
H56 H 0.9813 0.1615 0.5532
H57 H 0.9339 0.2046 0.5374
H58 H 0.9683 0.1711 0.5012
C37 C 0.8785(10) 0.0966(3) 0.5240(6)
H59 H 0.827 0.0829 0.5244
H60 H 0.9108 0.0837 0.5478
H61 H 0.9024 0.091 0.4951
C38 C 0.8153(11) 0.1662(8) 0.4958(6)
H62 H 0.7666 0.1495 0.4959
H63 H 0.8387 0.1638 0.4664
H64 H 0.8051 0.1976 0.5025
C39 C 0.5835(7) 0.2297(4) 0.5149(4)
H65 H 0.63 0.2129 0.5154
C40 C 0.5222(8) 0.2187(5) 0.4844(4)
H66 H 0.5296 0.1948 0.4642
C41 C 0.3399(7) 0.1940(5) 0.3458(4)
H67 H 0.3939 0.1994 0.3439
C42 C 0.2995(6) 0.1816(4) 0.3073(4)
H68 H 0.3254 0.1791 0.2798
C43 C 0.2215(6) 0.1730(3) 0.3096(3)
C44 C 0.1754(5) 0.1626(3) 0.2670(3)
C45 C -0.2125(5) 0.3819(4) 0.2110(4)
C46 C -0.2828(6) 0.3882(3) 0.1769(3)
C47 C -0.3452(6) 0.4164(4) 0.1989(5)
H69 H -0.3649 0.4006 0.225
H70 H -0.3878 0.4216 0.1776
H71 H -0.3231 0.445 0.2083
C48 C -0.3163(8) 0.3423(4) 0.1645(6)
H72 H -0.3359 0.3278 0.1913
H73 H -0.2757 0.3238 0.1515
H74 H -0.3587 0.346 0.1428
C49 C -0.2531(9) 0.4125(5) 0.1367(4)
H75 H -0.2135 0.3944 0.1223
H76 H -0.2305 0.441 0.146
H77 H -0.2959 0.4179 0.1156
C50 C -0.1959(7) 0.4258(5) 0.3255(4)
C51 C -0.2542(6) 0.4502(4) 0.3590(4)
C52 C -0.3362(7) 0.4334(6) 0.3518(7)
H78 H -0.3391 0.402 0.3605
H79 H -0.3508 0.4365 0.3203
H80 H -0.3716 0.4509 0.3701
C53 C -0.2244(11) 0.4385(7) 0.4061(4)
H81 H -0.172 0.4503 0.4104
H82 H -0.2236 0.406 0.4098
H83 H -0.2588 0.4516 0.4283
C54 C -0.2512(12) 0.4991(4) 0.3470(7)
H84 H -0.1983 0.5101 0.3511
H85 H -0.2861 0.5158 0.3663
H86 H -0.2674 0.503 0.3158
C55 C -0.2706(5) 0.2559(4) 0.3184(4)
C56 C -0.3557(6) 0.2444(3) 0.3353(3)
C57 C -0.4058(8) 0.2262(6) 0.2974(5)
H87 H -0.4129 0.2492 0.2745
H88 H -0.4563 0.2174 0.3089
H89 H -0.3805 0.2001 0.2843
C58 C -0.3901(9) 0.2881(4) 0.3514(6)
H90 H -0.3591 0.2995 0.3765
H91 H -0.4433 0.2831 0.3611
H92 H -0.3901 0.3099 0.3272
C59 C -0.3483(10) 0.2078(5) 0.3700(5)
H93 H -0.3175 0.2187 0.3955
H94 H -0.3227 0.1819 0.357
H95 H -0.3999 0.1992 0.3801
C60 C -0.0794(6) 0.2815(4) 0.3646(3)
C61 C -0.0509(6) 0.2827(3) 0.4156(3)
C62 C 0.0055(7) 0.2450(4) 0.4250(5)
H96 H -0.0199 0.2164 0.4189
H97 H 0.0223 0.246 0.4563
H98 H 0.0506 0.2481 0.4059
C63 C -0.1262(7) 0.2762(7) 0.4418(5)
H99 H -0.161 0.3014 0.4361
H100 H -0.114 0.2745 0.4738
H101 H -0.1515 0.2485 0.4323
C64 C -0.0133(11) 0.3275(4) 0.4252(7)
H102 H -0.0511 0.3513 0.4201
H103 H 0.0308 0.3317 0.4055
H104 H 0.0048 0.3283 0.4563
C65 C -0.1525(5) 0.1791(3) 0.2005(3)
C66 C -0.2135(5) 0.1693(3) 0.1616(3)
C67 C -0.1749(7) 0.1729(5) 0.1164(3)
H105 H -0.1551 0.2032 0.1123
H106 H -0.2127 0.1661 0.0927
H107 H -0.1319 0.1516 0.115
C68 C -0.2796(6) 0.2041(4) 0.1647(5)
H108 H -0.3045 0.2015 0.1937
H109 H -0.3179 0.1986 0.1409
H110 H -0.2582 0.2341 0.1614
C69 C -0.2453(7) 0.1221(3) 0.1673(5)
H111 H -0.2704 0.1197 0.1962
H112 H -0.2027 0.1006 0.1658
H113 H -0.2831 0.1158 0.1435
C70 C -0.0857(6) 0.1246(3) 0.3076(3)
C71 C -0.1038(5) 0.0864(3) 0.3431(3)
C72 C -0.1828(6) 0.0928(5) 0.3635(5)
H114 H -0.1847 0.1219 0.3784
H115 H -0.1919 0.0692 0.3853
H116 H -0.2227 0.0915 0.3401
C73 C -0.0422(7) 0.0909(5) 0.3803(4)
H117 H 0.0093 0.0868 0.3678
H118 H -0.0511 0.0682 0.4031
H119 H -0.0457 0.1206 0.3938
C74 C -0.0971(11) 0.0422(4) 0.3189(5)
H120 H -0.045 0.0392 0.3068
H121 H -0.1353 0.041 0.2945
H122 H -0.1066 0.0178 0.3398
C75 C 0.0802(5) 0.0882(3) 0.1717(3)
C76 C 0.0593(5) 0.0411(3) 0.1496(3)
C77 C -0.0075(6) 0.0494(4) 0.1163(4)
H123 H 0.0096 0.0699 0.093
H124 H -0.0514 0.0625 0.1319
H125 H -0.0233 0.0211 0.1027
C78 C 0.1302(6) 0.0230(4) 0.1253(5)
H126 H 0.1722 0.0175 0.1469
H127 H 0.1473 0.0449 0.1033
H128 H 0.1165 -0.0049 0.1102
C79 C 0.0322(9) 0.0087(4) 0.1850(4)
H129 H 0.0744 0.0031 0.2064
H130 H 0.0167 -0.0194 0.1708
H131 H -0.0121 0.0215 0.2005
C80 C 0.3364(5) 0.1808(3) 0.1342(4)
C81 C 0.4202(5) 0.1598(3) 0.1280(3)
C82 C 0.4693(7) 0.1815(5) 0.0930(4)
H132 H 0.4713 0.2137 0.0982
H133 H 0.4468 0.1757 0.0634
H134 H 0.5218 0.1693 0.0946
C83 C 0.4622(9) 0.1671(7) 0.1736(4)
H135 H 0.4325 0.1529 0.1972
H136 H 0.4665 0.1991 0.1796
H137 H 0.514 0.1539 0.1727
C84 C 0.4130(10) 0.1105(3) 0.1191(7)
H138 H 0.3816 0.0967 0.1422
H139 H 0.4646 0.0969 0.1193
H140 H 0.3882 0.1058 0.0899
C85 C 0.1864(6) 0.1767(3) 0.3509(3)
H141 H 0.1327 0.1705 0.3534
C86 C 0.2295(6) 0.1896(4) 0.3891(4)
H142 H 0.205 0.192 0.4171
Cr1 Cr 0.76270(9) 0.22833(5) 0.63267(6)
Cr2 Cr 0.72647(12) 0.11653(6) 0.64756(8)
Cr3 Cr 0.59314(11) 0.05337(6) 0.70199(7)
Ni1 Ni 0.17294(8) 0.17345(4) 0.16610(4)
Cr4 Cr 0.01121(9) 0.15559(5) 0.23204(6)
Cr5 Cr -0.12204(10) 0.22095(6) 0.28879(6)
Cr6 Cr -0.16530(13) 0.33168(7) 0.29211(9)
Cr7 Cr -0.07674(12) 0.42772(6) 0.25513(8)
Cu1 Cu 0.36919(10) 0.21944(8) 0.44040(5)
F1 F 0.6907(3) 0.17802(15) 0.64197(17)
F2 F 0.6520(3) 0.10846(16) 0.69480(18)
F3 F 0.5000(3) 0.08815(17) 0.71157(19)
F4 F 0.0671(3) 0.19225(16) 0.19155(16)
F5 F -0.0210(3) 0.21141(15) 0.26350(17)
F6 F -0.1227(3) 0.28019(18) 0.26203(18)
F7 F -0.0732(3) 0.36588(18) 0.27679(19)
F8 F 0.2036(3) 0.23989(15) 0.17546(16)
N1 N 0.4277(6) 0.1311(4) 0.4312(4)
N2 N 0.3794(8) 0.3024(5) 0.4003(5)
N3 N 0.4541(6) 0.2409(4) 0.4828(3)
N4 N 0.3055(6) 0.1985(4) 0.3856(3)
O1 O 0.4667(6) 0.1538(4) 0.4059(3)
O2 O 0.3802(5) 0.1548(4) 0.4606(3)
O3 O 0.4199(7) 0.0914(5) 0.4388(5)
O4 O 0.3348(6) 0.2789(4) 0.4301(3)
O5 O 0.4339(6) 0.2762(5) 0.3859(3)
O6 O 0.3720(9) 0.3406(5) 0.3881(4)
O7 O 0.2681(6) 0.2298(4) 0.4881(4)
O8 O 0.6256(4) 0.3096(2) 0.6047(2)
O9 O 0.6931(4) 0.2478(2) 0.5832(2)
O10 O 0.5677(5) 0.0527(3) 0.6392(3)
O11 O 0.6474(7) 0.0988(3) 0.6017(3)
O12 O 0.6885(5) 0.0164(3) 0.6942(3)
O13 O 0.7603(7) 0.0543(4) 0.6492(4)
O14 O 0.6185(5) 0.0550(3) 0.7675(3)
O15 O 0.5080(6) 0.0562(3) 0.8006(3)
O16 O 0.5368(6) -0.0038(3) 0.7084(3)
O17 O 0.4179(5) 0.0104(3) 0.7325(3)
O18 O 0.8065(5) 0.1368(3) 0.6928(4)
O19 O 0.8302(4) 0.2067(2) 0.6805(3)
O20 O 0.8022(7) 0.1251(4) 0.6004(4)
O21 O 0.8217(4) 0.1939(2) 0.5874(3)
O22 O 0.2112(3) 0.1633(2) 0.2312(2)
O23 O -0.1607(5) 0.4120(3) 0.2121(3)
O24 O -0.2206(5) 0.3498(3) 0.2361(4)
O25 O -0.1523(5) 0.4450(3) 0.2991(3)
O26 O -0.2166(7) 0.3813(4) 0.3187(5)
O27 O -0.2602(6) 0.2960(4) 0.3071(4)
O28 O -0.2231(5) 0.2281(3) 0.3140(3)
O29 O -0.1169(7) 0.3142(3) 0.3496(3)
O30 O -0.0737(5) 0.2455(3) 0.3441(3)
O31 O -0.1726(5) 0.1975(3) 0.2356(3)
O32 O -0.0846(4) 0.1611(2) 0.1933(2)
O33 O -0.1195(6) 0.1620(3) 0.3191(3)
O34 O -0.0440(4) 0.1176(2) 0.2757(3)
O35 O 0.1024(4) 0.15418(19) 0.2737(2)
O36 O 0.0346(4) 0.0999(2) 0.2016(2)
O37 O 0.1357(4) 0.1089(2) 0.1556(2)
O38 O 0.2804(4) 0.1582(2) 0.1449(2)
O39 O 0.3363(4) 0.2238(2) 0.1242(3)
Cr1C Cr 0.26270(9) 0.27167(5) 0.13267(6)
Ni1C Ni 0.67294(8) 0.32655(4) 0.66610(4)
Cr7C Cr 0.42326(12) 0.07228(6) 0.75513(8)
F3C F 0.0000(3) 0.41185(17) 0.21157(19)
F8C F 0.7036(3) 0.26011(15) 0.67546(16)
O8C O 0.1256(4) 0.1904(2) 0.1047(2)
O15C O 0.0080(6) 0.4438(3) 0.3006(3)
O17C O -0.0821(5) 0.4896(3) 0.2325(3)
O39C O 0.8363(4) 0.2762(2) 0.6242(3)
C87 C 0.0045(6) 0.3041(3) 0.1863(3)
H143 H 0.0049 0.3371 0.186
H144 H -0.0407 0.2947 0.2038
C88 C -0.0077(6) 0.2884(4) 0.1396(4)
H145 H -0.0082 0.2554 0.1399
H146 H 0.0376 0.2978 0.1221
C89 C -0.0798(8) 0.3042(5) 0.1156(5)
H147 H -0.082 0.291 0.0857
H148 H -0.0788 0.3367 0.1131
H149 H -0.1254 0.295 0.1322
C90 C 0.0879(6) 0.3040(3) 0.2552(3)
H150 H 0.0882 0.337 0.2551
H151 H 0.0433 0.2946 0.2732
C91 C 0.1582(8) 0.2893(5) 0.2785(5)
H152 H 0.2027 0.3006 0.2614
H153 H 0.1597 0.2564 0.2766
C92 C 0.1726(7) 0.3015(4) 0.3262(4)
H154 H 0.2218 0.2885 0.3364
H155 H 0.1305 0.2898 0.3444
H156 H 0.1748 0.334 0.3291
N5 N 0.0732(5) 0.2891(3) 0.2091(3)
H157 H 0.1148 0.2977 0.1924
H158 H 0.0724 0.2585 0.2092
C93 C 0.6055(9) 0.4330(6) 0.4951(8)
H159 H 0.6293 0.4585 0.5081
C94 C 0.6394(9) 0.3929(5) 0.4982(6)
C95 C 0.6183(10) 0.3607(6) 0.4684(6)
H160 H 0.6454 0.3335 0.4644
C96 C 0.5529(9) 0.3728(6) 0.4450(7)
H161 H 0.5379 0.3504 0.4242
C97 C 0.5039(11) 0.4079(6) 0.4435(7)
H162 H 0.4583 0.4114 0.4258
C98 C 0.5353(12) 0.4365(7) 0.4728(8)
H163 H 0.5057 0.4623 0.479
C99 C 0.7154(10) 0.3840(8) 0.5221(8)
H164 H 0.7533 0.4066 0.5137
H165 H 0.7345 0.3544 0.5137
H166 H 0.7077 0.385 0.5543
C100 C 0.2454(10) 0.0607(6) 0.4990(6)
H167 H 0.2999 0.0645 0.4979
C101 C 0.2146(9) 0.0279(6) 0.5223(6)
C102 C 0.1367(10) 0.0231(7) 0.5264(7)
H168 H 0.1121 0.0024 0.5454
C103 C 0.0996(13) 0.0525(8) 0.4988(8)
H169 H 0.0451 0.0487 0.4994
C104 C 0.1202(12) 0.0858(9) 0.4710(10)
H170 H 0.0876 0.1028 0.4518
C105 C 0.1963(13) 0.0892(8) 0.4765(10)
H171 H 0.2198 0.1144 0.4632
C106 C 0.2623(16) -0.0077(9) 0.5445(11)
H172 H 0.2829 -0.0278 0.5218
H173 H 0.2299 -0.0246 0.565
H174 H 0.3052 0.0061 0.5611
loop_
_geom_bond_atom_site_label_1
_geom_bond_atom_site_label_2
_geom_bond_site_symmetry_1
_geom_bond_site_symmetry_2
C1 H1 1_555 1_555
H2 C1 1_555 1_555
C2 C1 1_555 1_555
H3 C2 1_555 1_555
H4 C2 1_555 1_555
C3 C2 1_555 1_555
H5 C3 1_555 1_555
H6 C3 1_555 1_555
C4 C3 1_555 1_555
H7 C4 1_555 1_555
H8 C4 1_555 1_555
C5 H9 1_555 1_555
C6 C5 1_555 1_555
H10 C6 1_555 1_555
C7 C6 1_555 1_555
C8 C7 1_555 1_555
C9 C10 1_555 1_555
C10 C11 1_555 1_555
C11 H11 1_555 1_555
H12 C11 1_555 1_555
H13 C11 1_555 1_555
C12 C10 1_555 1_555
H14 C12 1_555 1_555
H15 C12 1_555 1_555
H16 C12 1_555 1_555
C13 C10 1_555 1_555
H17 C13 1_555 1_555
H18 C13 1_555 1_555
H19 C13 1_555 1_555
C14 C15 1_555 1_555
C15 C16 1_555 1_555
C16 H20 1_555 1_555
H21 C16 1_555 1_555
H22 C16 1_555 1_555
C17 C15 1_555 1_555
H23 C17 1_555 1_555
H24 C17 1_555 1_555
H25 C17 1_555 1_555
C18 C15 1_555 1_555
H26 C18 1_555 1_555
H27 C18 1_555 1_555
H28 C18 1_555 1_555
C19 C20 1_555 1_555
C20 C21 1_555 1_555
C21 H29 1_555 1_555
H30 C21 1_555 1_555
H31 C21 1_555 1_555
C22 C20 1_555 1_555
H32 C22 1_555 1_555
H33 C22 1_555 1_555
H34 C22 1_555 1_555
C23 C20 1_555 1_555
H35 C23 1_555 1_555
H36 C23 1_555 1_555
H37 C23 1_555 1_555
C24 C25 1_555 1_555
C25 C26 1_555 1_555
C26 H38 1_555 1_555
H39 C26 1_555 1_555
H40 C26 1_555 1_555
C27 C25 1_555 1_555
H41 C27 1_555 1_555
H42 C27 1_555 1_555
H43 C27 1_555 1_555
C28 C25 1_555 1_555
H44 C28 1_555 1_555
H45 C28 1_555 1_555
H46 C28 1_555 1_555
C29 C30 1_555 1_555
C30 C31 1_555 1_555
C31 H47 1_555 1_555
H48 C31 1_555 1_555
H49 C31 1_555 1_555
C32 C30 1_555 1_555
H50 C32 1_555 1_555
H51 C32 1_555 1_555
H52 C32 1_555 1_555
C33 C30 1_555 1_555
H53 C33 1_555 1_555
H54 C33 1_555 1_555
H55 C33 1_555 1_555
C34 C35 1_555 1_555
C35 C36 1_555 1_555
C36 H56 1_555 1_555
H57 C36 1_555 1_555
H58 C36 1_555 1_555
C37 C35 1_555 1_555
H59 C37 1_555 1_555
H60 C37 1_555 1_555
H61 C37 1_555 1_555
C38 C35 1_555 1_555
H62 C38 1_555 1_555
H63 C38 1_555 1_555
H64 C38 1_555 1_555
C39 C7 1_555 1_555
H65 C39 1_555 1_555
C40 C39 1_555 1_555
H66 C40 1_555 1_555
C41 H67 1_555 1_555
C42 C41 1_555 1_555
H68 C42 1_555 1_555
C43 C42 1_555 1_555
C44 C43 1_555 1_555
C45 C46 1_555 1_555
C46 C47 1_555 1_555
C47 H69 1_555 1_555
H70 C47 1_555 1_555
H71 C47 1_555 1_555
C48 C46 1_555 1_555
H72 C48 1_555 1_555
H73 C48 1_555 1_555
H74 C48 1_555 1_555
C49 C46 1_555 1_555
H75 C49 1_555 1_555
H76 C49 1_555 1_555
H77 C49 1_555 1_555
C50 C51 1_555 1_555
C51 C52 1_555 1_555
C52 H78 1_555 1_555
H79 C52 1_555 1_555
H80 C52 1_555 1_555
C53 C51 1_555 1_555
H81 C53 1_555 1_555
H82 C53 1_555 1_555
H83 C53 1_555 1_555
C54 C51 1_555 1_555
H84 C54 1_555 1_555
H85 C54 1_555 1_555
H86 C54 1_555 1_555
C55 C56 1_555 1_555
C56 C57 1_555 1_555
C57 H87 1_555 1_555
H88 C57 1_555 1_555
H89 C57 1_555 1_555
C58 C56 1_555 1_555
H90 C58 1_555 1_555
H91 C58 1_555 1_555
H92 C58 1_555 1_555
C59 C56 1_555 1_555
H93 C59 1_555 1_555
H94 C59 1_555 1_555
H95 C59 1_555 1_555
C60 C61 1_555 1_555
C61 C62 1_555 1_555
C62 H96 1_555 1_555
H97 C62 1_555 1_555
H98 C62 1_555 1_555
C63 C61 1_555 1_555
H99 C63 1_555 1_555
H100 C63 1_555 1_555
H101 C63 1_555 1_555
C64 C61 1_555 1_555
H102 C64 1_555 1_555
H103 C64 1_555 1_555
H104 C64 1_555 1_555
C65 C66 1_555 1_555
C66 C67 1_555 1_555
C67 H105 1_555 1_555
H106 C67 1_555 1_555
H107 C67 1_555 1_555
C68 C66 1_555 1_555
H108 C68 1_555 1_555
H109 C68 1_555 1_555
H110 C68 1_555 1_555
C69 C66 1_555 1_555
H111 C69 1_555 1_555
H112 C69 1_555 1_555
H113 C69 1_555 1_555
C70 C71 1_555 1_555
C71 C72 1_555 1_555
C72 H114 1_555 1_555
H115 C72 1_555 1_555
H116 C72 1_555 1_555
C73 C71 1_555 1_555
H117 C73 1_555 1_555
H118 C73 1_555 1_555
H119 C73 1_555 1_555
C74 C71 1_555 1_555
H120 C74 1_555 1_555
H121 C74 1_555 1_555
H122 C74 1_555 1_555
C75 C76 1_555 1_555
C76 C77 1_555 1_555
C77 H123 1_555 1_555
H124 C77 1_555 1_555
H125 C77 1_555 1_555
C78 C76 1_555 1_555
H126 C78 1_555 1_555
H127 C78 1_555 1_555
H128 C78 1_555 1_555
C79 C76 1_555 1_555
H129 C79 1_555 1_555
H130 C79 1_555 1_555
H131 C79 1_555 1_555
C80 C81 1_555 1_555
C81 C82 1_555 1_555
C82 H132 1_555 1_555
H133 C82 1_555 1_555
H134 C82 1_555 1_555
C83 C81 1_555 1_555
H135 C83 1_555 1_555
H136 C83 1_555 1_555
H137 C83 1_555 1_555
C84 C81 1_555 1_555
H138 C84 1_555 1_555
H139 C84 1_555 1_555
H140 C84 1_555 1_555
C85 C43 1_555 1_555
H141 C85 1_555 1_555
C86 C85 1_555 1_555
H142 C86 1_555 1_555
Cr1 F1 1_555 1_555
Cr2 F1 1_555 1_555
Cr3 F2 1_555 1_555
Ni1 F4 1_555 1_555
Cr4 F4 1_555 1_555
Cr5 F5 1_555 1_555
Cr6 F6 1_555 1_555
Cr7 F7 1_555 1_555
Cu1 N3 1_555 1_555
F2 Cr2 1_555 1_555
F3 Cr3 1_555 1_555
F5 Cr4 1_555 1_555
F6 Cr5 1_555 1_555
F7 Cr6 1_555 1_555
F8 Ni1 1_555 1_555
N1 O1 1_555 1_555
N2 O4 1_555 1_555
N3 C5 1_555 1_555
N4 C41 1_555 1_555
O1 Cu1 1_555 1_555
O2 Cu1 1_555 1_555
O3 N1 1_555 1_555
O4 Cu1 1_555 1_555
O5 Cu1 1_555 1_555
O6 N2 1_555 1_555
O7 C1 1_555 1_555
O8 C8 1_555 1_555
O9 C8 1_555 1_555
O10 C9 1_555 1_555
O11 C9 1_555 1_555
O12 C14 1_555 1_555
O13 C14 1_555 1_555
O14 C19 1_555 1_555
O15 C19 1_555 1_555
O16 C24 1_555 1_555
O17 C24 1_555 1_555
O18 C29 1_555 1_555
O19 C29 1_555 1_555
O20 C34 1_555 1_555
O21 C34 1_555 1_555
O22 C44 1_555 1_555
O23 C45 1_555 1_555
O24 C45 1_555 1_555
O25 C50 1_555 1_555
O26 C50 1_555 1_555
O27 C55 1_555 1_555
O28 C55 1_555 1_555
O29 C60 1_555 1_555
O30 C60 1_555 1_555
O31 C65 1_555 1_555
O32 C65 1_555 1_555
O33 C70 1_555 1_555
O34 C70 1_555 1_555
O35 C44 1_555 1_555
O36 C75 1_555 1_555
O37 C75 1_555 1_555
O38 C80 1_555 1_555
O39 C80 1_555 1_555
C87 H143 1_555 1_555
H144 C87 1_555 1_555
C88 C87 1_555 1_555
H145 C88 1_555 1_555
H146 C88 1_555 1_555
C89 C88 1_555 1_555
H147 C89 1_555 1_555
H148 C89 1_555 1_555
H149 C89 1_555 1_555
C90 H150 1_555 1_555
H151 C90 1_555 1_555
C91 C90 1_555 1_555
H152 C91 1_555 1_555
H153 C91 1_555 1_555
C92 C91 1_555 1_555
H154 C92 1_555 1_555
H155 C92 1_555 1_555
H156 C92 1_555 1_555
N5 C87 1_555 1_555
H157 N5 1_555 1_555
H158 N5 1_555 1_555
C93 H159 1_555 1_555
C94 C93 1_555 1_555
C95 C94 1_555 1_555
H160 C95 1_555 1_555
C96 C95 1_555 1_555
H161 C96 1_555 1_555
C97 C96 1_555 1_555
H162 C97 1_555 1_555
C98 C93 1_555 1_555
H163 C98 1_555 1_555
C99 C94 1_555 1_555
H164 C99 1_555 1_555
H165 C99 1_555 1_555
H166 C99 1_555 1_555
C100 H167 1_555 1_555
C101 C100 1_555 1_555
C102 C101 1_555 1_555
H168 C102 1_555 1_555
C103 C102 1_555 1_555
H169 C103 1_555 1_555
C104 C103 1_555 1_555
H170 C104 1_555 1_555
C105 C100 1_555 1_555
H171 C105 1_555 1_555
C106 C101 1_555 1_555
H172 C106 1_555 1_555
H173 C106 1_555 1_555
H174 C106 1_555 1_555
Cr1C F8 1_555 1_555
Ni1C O8 1_555 1_555
Cr7C F3 1_555 1_555
F3C Cr7 1_555 1_555
F8C Cr1 1_555 1_555
O8C Ni1 1_555 1_555
O15C Cr7 1_555 1_555
O17C Cr7 1_555 1_555
O39C Cr1 1_555 1_555
C4 O7 1_555 1_555
C40 N3 1_555 1_555
C86 N4 1_555 1_555
Cr1 O9 1_555 1_555
Cr1 O19 1_555 1_555
Cr1 O21 1_555 1_555
Cr2 O11 1_555 1_555
Cr2 O13 1_555 1_555
Cr2 O18 1_555 1_555
Cr2 O20 1_555 1_555
Cr3 O10 1_555 1_555
Cr3 O12 1_555 1_555
Cr3 O14 1_555 1_555
Cr3 O16 1_555 1_555
Ni1 O22 1_555 1_555
Ni1 O37 1_555 1_555
Ni1 O38 1_555 1_555
Cr4 O32 1_555 1_555
Cr4 O34 1_555 1_555
Cr4 O35 1_555 1_555
Cr4 O36 1_555 1_555
Cr5 O28 1_555 1_555
Cr5 O30 1_555 1_555
Cr5 O31 1_555 1_555
Cr5 O33 1_555 1_555
Cr6 O24 1_555 1_555
Cr6 O26 1_555 1_555
Cr6 O27 1_555 1_555
Cr6 O29 1_555 1_555
Cr7 O23 1_555 1_555
Cr7 O25 1_555 1_555
Cu1 N4 1_555 1_555
Cu1 O7 1_555 1_555
N1 O2 1_555 1_555
N2 O5 1_555 1_555
O15 Cr7C 1_555 1_555
O17 Cr7C 1_555 1_555
O39 Cr1C 1_555 1_555
C90 N5 1_555 1_555
C97 C98 1_555 1_555
C104 C105 1_555 1_555
Ni1C F8C 1_555 1_555

#END
