
#######################################################################
#
#                 Cambridge Crystallographic Data Centre
#                                CCDC 
#
#######################################################################
#
# If this CIF has been generated from an entry in the Cambridge 
# Structural Database, then it will include bibliographic, chemical, 
# crystal, experimental, refinement or atomic coordinate data resulting 
# from the CCDC's data processing and validation procedures.
#
#######################################################################

data_HIHBUV
_symmetry_cell_setting           triclinic
_symmetry_space_group_name_H-M   'P -1'
_symmetry_Int_Tables_number      2
_space_group_name_Hall           '-P 1'
loop_
_symmetry_equiv_pos_site_id
_symmetry_equiv_pos_as_xyz
1 x,y,z
2 -x,-y,-z
_cell_length_a                   11.194(2)
_cell_length_b                   10.492(2)
_cell_length_c                   6.976(2)
_cell_angle_alpha                94.62(2)
_cell_angle_beta                 97.78(2)
_cell_angle_gamma                102.54(2)
_cell_volume                     787.271
loop_
_atom_site_label
_atom_site_type_symbol
_atom_site_fract_x
_atom_site_fract_y
_atom_site_fract_z
Cu1 Cu 0.47111(7) 0.45692(7) 0.23553(12)
Na1 Na -0.0207(2) 0.6032(3) 0.1873(4)
Na2 Na 0.1306(3) -0.0115(3) 0.1723(4)
O1 O 0.3474(4) 0.2913(4) 0.2248(7)
O2 O 0.1446(4) 0.2227(4) 0.2326(8)
O3 O 0.1196(5) 0.4775(5) 0.2108(10)
O4 O 0.6081(4) 0.3684(4) 0.2204(7)
O5 O 0.8129(4) 0.4211(5) 0.2126(7)
O6 O 0.8012(4) 0.6806(4) 0.2047(7)
N1 N 0.3343(5) 0.5384(5) 0.2527(8)
N2 N 0.5959(5) 0.6152(5) 0.2354(8)
C1 C 0.2384(6) 0.3109(5) 0.2305(9)
C2 C 0.2266(6) 0.4552(6) 0.2299(10)
C3 C 0.7104(5) 0.4497(5) 0.2155(9)
C4 C 0.7066(5) 0.5965(5) 0.2198(8)
C5 C 0.3403(6) 0.6798(6) 0.2645(11)
C6 C 0.4700(6) 0.7589(6) 0.3614(10)
C7 C 0.5741(7) 0.7485(6) 0.2467(11)
O7 O 0.0799(5) 0.7683(5) 0.0050(8)
O8 O 0.0312(5) 0.6836(6) 0.5205(8)
O9 O -0.0919(5) -0.0572(5) 0.1701(8)
O10 O 0.3540(5) 0.0291(5) 0.1473(9)
O12 O 0.1718(6) -0.0678(6) 0.5000(9)
H1 H 0.2786(6) 0.7003(6) 0.3394(11)
H2 H 0.3218(6) 0.7044(6) 0.1346(11)
H3 H 0.4675(6) 0.8507(6) 0.3832(10)
H4 H 0.4891(6) 0.7294(6) 0.4878(10)
H5 H 0.5532(7) 0.7710(6) 0.1162(11)
H6 H 0.6494(7) 0.8107(6) 0.3088(11)
O5_2 O -0.1871(4) 0.4211(5) 0.2126(7)
O6_2 O -0.1988(4) 0.6806(4) 0.2047(7)
O7_2 O 0.0799(5) -0.2317(5) 0.0050(8)
O9A O 0.0919(5) 0.0572(5) -0.1701(8)
Na1_2 Na 0.9793(2) 0.6032(3) 0.1873(4)
Na2_2 Na 0.1306(3) 0.9885(3) 0.1723(4)
Na2A Na -0.1306(3) 0.0115(3) -0.1723(4)
O11 O 0.6219(6) 0.0963(5) 0.2261(9)
loop_
_geom_bond_atom_site_label_1
_geom_bond_atom_site_label_2
_geom_bond_site_symmetry_1
_geom_bond_site_symmetry_2
Cu1 O1 1_555 1_555
Na1 O3 1_555 1_555
Na2 O2 1_555 1_555
O1 C1 1_555 1_555
O2 C1 1_555 1_555
O3 C2 1_555 1_555
O4 Cu1 1_555 1_555
O5 C3 1_555 1_555
O6 C4 1_555 1_555
N1 Cu1 1_555 1_555
N2 Cu1 1_555 1_555
C1 C2 1_555 1_555
C2 N1 1_555 1_555
C3 O4 1_555 1_555
C4 N2 1_555 1_555
C5 N1 1_555 1_555
C6 C5 1_555 1_555
C7 N2 1_555 1_555
O7 Na1 1_555 1_555
O8 Na1 1_555 1_555
O9 Na2 1_555 1_555
O10 Na2 1_555 1_555
O12 Na2 1_555 1_555
H1 C5 1_555 1_555
H2 C5 1_555 1_555
H3 C6 1_555 1_555
H4 C6 1_555 1_555
H5 C7 1_555 1_555
H6 C7 1_555 1_555
O5_2 Na1 1_555 1_555
O6_2 Na1 1_555 1_555
O7_2 Na2 1_555 1_555
O9A Na2 1_555 1_555
Na1_2 O5 1_555 1_555
Na2_2 O7 1_555 1_555
Na2A O9 1_555 1_555
O6 Na1_2 1_555 1_555
C3 C4 1_555 1_555
C6 C7 1_555 1_555
O9A Na2A 1_555 1_555

#END
