
#######################################################################
#
#                 Cambridge Crystallographic Data Centre
#                                CCDC 
#
#######################################################################
#
# If this CIF has been generated from an entry in the Cambridge 
# Structural Database, then it will include bibliographic, chemical, 
# crystal, experimental, refinement or atomic coordinate data resulting 
# from the CCDC's data processing and validation procedures.
#
#######################################################################

data_HIHBUV01
_symmetry_cell_setting           triclinic
_symmetry_space_group_name_H-M   'P -1'
_symmetry_Int_Tables_number      2
_space_group_name_Hall           '-P 1'
loop_
_symmetry_equiv_pos_site_id
_symmetry_equiv_pos_as_xyz
1 x,y,z
2 -x,-y,-z
_cell_length_a                   6.986(7)
_cell_length_b                   10.466(11)
_cell_length_c                   11.182(11)
_cell_angle_alpha                102.509(15)
_cell_angle_beta                 97.961(14)
_cell_angle_gamma                94.433(15)
_cell_volume                     785.595
loop_
_atom_site_label
_atom_site_type_symbol
_atom_site_fract_x
_atom_site_fract_y
_atom_site_fract_z
Cu1 Cu 0.23534(4) -0.04304(2) -0.02895(2)
Na1 Na 0.18737(15) 0.10336(10) 0.47923(8)
Na2 Na 0.17267(15) -0.51091(10) -0.36878(9)
O1 O 0.2190(3) -0.13122(15) 0.10863(14)
O2 O 0.2124(3) -0.07897(16) 0.31169(15)
O3 O 0.2049(3) 0.18036(16) 0.30123(14)
O4 O 0.2244(2) -0.20785(15) -0.15291(14)
O5 O 0.2339(3) -0.27661(16) -0.35438(15)
O6 O 0.2090(3) -0.02224(17) -0.37999(15)
N1 N 0.2362(3) 0.11496(18) 0.09500(17)
N2 N 0.2534(3) 0.03810(18) -0.16573(17)
C1 C 0.2171(3) -0.0497(2) 0.2110(2)
C2 C 0.2196(3) 0.0973(2) 0.2052(2)
C3 C 0.2490(4) 0.2485(2) 0.0738(2)
C4 C 0.3615(4) 0.2599(2) -0.0313(2)
C5 C 0.2663(4) 0.1801(2) -0.1591(2)
C6 C 0.2302(3) -0.0446(2) -0.2736(2)
C7 C 0.2291(3) -0.1895(2) -0.2619(2)
O7 O 0.0077(3) 0.26911(18) 0.57990(17)
O8 O 0.5177(3) 0.1830(2) 0.53250(19)
O9 O 0.4976(3) -0.5666(2) -0.3300(2)
O10 O 0.1692(3) -0.55676(19) -0.59132(18)
O11 O 0.1469(3) -0.4716(2) -0.14642(19)
H1 H 0.114(4) 0.271(3) 0.054(3)
H2 H 0.304(4) 0.311(3) 0.145(3)
H3 H 0.374(3) 0.355(2) -0.035(2)
H4 H 0.486(4) 0.233(3) -0.014(3)
H5 H 0.132(4) 0.201(3) -0.180(2)
H6 H 0.342(4) 0.198(3) -0.219(2)
H7 H -0.069(4) 0.276(3) 0.520(2)
H8 H -0.045(5) 0.234(3) 0.627(3)
H9 H 0.577(5) 0.186(4) 0.475(2)
H10 H 0.591(5) 0.147(4) 0.574(3)
H11 H 0.505(5) -0.6399(18) -0.372(3)
H12 H 0.552(5) -0.575(4) -0.2635(18)
H13 H 0.267(3) -0.515(3) -0.601(3)
H14 H 0.166(6) -0.6316(19) -0.634(3)
H15 H 0.157(5) -0.3920(11) -0.141(3)
H16 H 0.038(4) -0.512(6) -0.161(6)
O6_2 O 0.2090(3) -0.02224(17) 0.62001(15)
O7_2 O 0.0077(3) -0.73089(18) -0.42010(17)
O10A O -0.1692(3) -0.44324(19) -0.40868(18)
Na1_2 Na 0.18737(15) 0.10336(10) -0.52077(8)
Na2_2 Na 0.17267(15) 0.48909(10) 0.63122(9)
Na2A Na -0.17267(15) -0.48909(10) -0.63122(9)
H7_2 H -0.069(4) -0.724(3) -0.480(2)
H8_2 H -0.045(5) -0.766(3) -0.373(3)
H13A H -0.267(3) -0.485(3) -0.399(3)
H14A H -0.166(6) -0.3684(19) -0.366(3)
O12 O 0.7728(3) 0.4048(2) 0.8774(2)
H17 H 0.784(9) 0.440(6) 0.9510(17)
H18 H 0.779(5) 0.3265(13) 0.873(3)
loop_
_geom_bond_atom_site_label_1
_geom_bond_atom_site_label_2
_geom_bond_site_symmetry_1
_geom_bond_site_symmetry_2
Cu1 O1 1_555 1_555
Na1 O2 1_555 1_555
Na2 O5 1_555 1_555
O1 C1 1_555 1_555
O2 C1 1_555 1_555
O3 Na1 1_555 1_555
O4 Cu1 1_555 1_555
O5 C7 1_555 1_555
O6 C6 1_555 1_555
N1 Cu1 1_555 1_555
N2 Cu1 1_555 1_555
C1 C2 1_555 1_555
C2 O3 1_555 1_555
C3 N1 1_555 1_555
C4 C3 1_555 1_555
C5 N2 1_555 1_555
C6 N2 1_555 1_555
C7 O4 1_555 1_555
O7 Na1 1_555 1_555
O8 Na1 1_555 1_555
O9 Na2 1_555 1_555
O10 Na2 1_555 1_555
O11 Na2 1_555 1_555
O12 H17 1_555 1_555
H1 C3 1_555 1_555
H2 C3 1_555 1_555
H3 C4 1_555 1_555
H4 C4 1_555 1_555
H5 C5 1_555 1_555
H6 C5 1_555 1_555
H7 O7 1_555 1_555
H8 O7 1_555 1_555
H9 O8 1_555 1_555
H10 O8 1_555 1_555
H11 O9 1_555 1_555
H12 O9 1_555 1_555
H13 O10 1_555 1_555
H14 O10 1_555 1_555
H15 O11 1_555 1_555
H16 O11 1_555 1_555
H18 O12 1_555 1_555
O6_2 Na1 1_555 1_555
O7_2 Na2 1_555 1_555
O10A Na2 1_555 1_555
Na1_2 O6 1_555 1_555
Na2_2 O7 1_555 1_555
Na2A O10 1_555 1_555
H7_2 O7_2 1_555 1_555
H8_2 O7_2 1_555 1_555
H13A O10A 1_555 1_555
H14A O10A 1_555 1_555
N1 C2 1_555 1_555
C4 C5 1_555 1_555
C6 C7 1_555 1_555
O10A Na2A 1_555 1_555

#END
