
#######################################################################
#
#                 Cambridge Crystallographic Data Centre
#                                CCDC 
#
#######################################################################
#
# If this CIF has been generated from an entry in the Cambridge 
# Structural Database, then it will include bibliographic, chemical, 
# crystal, experimental, refinement or atomic coordinate data resulting 
# from the CCDC's data processing and validation procedures.
#
#######################################################################

data_HIHDAD
_symmetry_cell_setting           monoclinic
_symmetry_space_group_name_H-M   'C 2/c'
_symmetry_Int_Tables_number      15
_space_group_name_Hall           '-C 2yn'
loop_
_symmetry_equiv_pos_site_id
_symmetry_equiv_pos_as_xyz
1 x,y,z
2 -x,y,1/2-z
3 1/2+x,1/2+y,z
4 1/2-x,1/2+y,1/2-z
5 -x,-y,-z
6 x,-y,1/2+z
7 1/2-x,1/2-y,-z
8 1/2+x,1/2-y,1/2+z
_cell_length_a                   12.129(1)
_cell_length_b                   11.116(1)
_cell_length_c                   9.716(1)
_cell_angle_alpha                90
_cell_angle_beta                 93.95(1)
_cell_angle_gamma                90
_cell_volume                     1306.86
loop_
_atom_site_label
_atom_site_type_symbol
_atom_site_fract_x
_atom_site_fract_y
_atom_site_fract_z
Ag1 Ag 0.00000 0.50000 0.00000
O1 O 0.00000 0.4297(3) 0.25000
N1 N -0.0600(2) 0.3156(3) 0.0100(2)
C1 C -0.1087(4) 0.2609(5) -0.0997(4)
C2 C -0.1541(5) 0.1486(6) -0.0960(6)
C3 C -0.1519(4) 0.0903(5) 0.0238(6)
C4 C -0.1008(4) 0.1424(3) 0.1404(4)
C5 C -0.0535(3) 0.2546(3) 0.1299(3)
C6 C 0.00000 0.3201(3) 0.25000
H1 H -0.11185 0.30258 -0.18641
H2 H -0.18607 0.11198 -0.17884
H3 H -0.18725 0.01326 0.02917
H4 H -0.09723 0.10091 0.22726
Ag1A Ag 0.00000 0.50000 0.50000
N1A N 0.0600(2) 0.3156(3) 0.4900(2)
C1A C 0.1087(4) 0.2609(5) 0.5997(4)
C2A C 0.1541(5) 0.1486(6) 0.5960(6)
C3A C 0.1519(4) 0.0903(5) 0.4762(6)
C4A C 0.1008(4) 0.1424(3) 0.3596(4)
C5A C 0.0535(3) 0.2546(3) 0.3701(3)
O1D O 0.00000 0.5703(3) -0.25000
N1D N 0.0600(2) 0.6844(3) -0.0100(2)
H4A H 0.09723 0.10091 0.27274
H3A H 0.18725 0.01326 0.47083
H2A H 0.18607 0.11198 0.67884
H1A H 0.11185 0.30258 0.68641
B1 B 0.25000 0.25000 0.00000
F2 F 0.1471(6) 0.1914(6) -0.0649(7)
F4 F 0.2929(6) 0.1536(6) 0.0851(6)
F2F F 0.3529(6) 0.3086(6) 0.0649(7)
F4F F 0.2071(6) 0.3464(6) -0.0851(6)
F1? F 0.3036(9) 0.2937(11) -0.0843(10)
F3? F 0.2007(5) 0.3287(6) 0.0941(6)
loop_
_geom_bond_atom_site_label_1
_geom_bond_atom_site_label_2
_geom_bond_site_symmetry_1
_geom_bond_site_symmetry_2
Ag1 O1 1_555 1_555
O1 C6 1_555 1_555
N1 Ag1 1_555 1_555
C1 N1 1_555 1_555
C2 C1 1_555 1_555
C3 C2 1_555 1_555
C4 C3 1_555 1_555
C5 N1 1_555 1_555
C6 C5 1_555 1_555
B1 F2 1_555 1_555
F4 B1 1_555 1_555
H1 C1 1_555 1_555
H2 C2 1_555 1_555
H3 C3 1_555 1_555
H4 C4 1_555 1_555
Ag1A O1 1_555 1_555
N1A Ag1A 1_555 1_555
C1A N1A 1_555 1_555
C2A C1A 1_555 1_555
C3A C2A 1_555 1_555
C4A C3A 1_555 1_555
C5A C6 1_555 1_555
O1D Ag1 1_555 1_555
N1D Ag1 1_555 1_555
H4A C4A 1_555 1_555
H3A C3A 1_555 1_555
H2A C2A 1_555 1_555
H1A C1A 1_555 1_555
F2F B1 1_555 1_555
F4F B1 1_555 1_555
C4 C5 1_555 1_555
N1A C5A 1_555 1_555
C4A C5A 1_555 1_555

#END
