
#######################################################################
#
#                 Cambridge Crystallographic Data Centre
#                                CCDC 
#
#######################################################################
#
# If this CIF has been generated from an entry in the Cambridge 
# Structural Database, then it will include bibliographic, chemical, 
# crystal, experimental, refinement or atomic coordinate data resulting 
# from the CCDC's data processing and validation procedures.
#
#######################################################################

data_HIHDEH
_symmetry_cell_setting           monoclinic
_symmetry_space_group_name_H-M   'C 2/c'
_symmetry_Int_Tables_number      15
_space_group_name_Hall           '-C 2yn'
loop_
_symmetry_equiv_pos_site_id
_symmetry_equiv_pos_as_xyz
1 x,y,z
2 -x,y,1/2-z
3 1/2+x,1/2+y,z
4 1/2-x,1/2+y,1/2-z
5 -x,-y,-z
6 x,-y,1/2+z
7 1/2-x,1/2-y,-z
8 1/2+x,1/2-y,1/2+z
_cell_length_a                   13.165(3)
_cell_length_b                   9.530(5)
_cell_length_c                   28.924(2)
_cell_angle_alpha                90
_cell_angle_beta                 98.27(1)
_cell_angle_gamma                90
_cell_volume                     3591.14
loop_
_atom_site_label
_atom_site_type_symbol
_atom_site_fract_x
_atom_site_fract_y
_atom_site_fract_z
Sn1 Sn 0.29093(2) 0.29113(3) 0.23552(1)
O1 O 0.3224(2) 0.1550(3) 0.18053(9)
O2 O 0.2558(2) 0.4700(3) 0.29430(9)
O3 O 0.4773(3) -0.2629(4) -0.0576(1)
N1 N 0.3901(3) -0.2640(4) 0.0168(1)
N2 N 0.3595(3) -0.3885(4) 0.0111(1)
C1 C 0.2939(3) 0.0262(4) 0.1774(1)
C2 C 0.3226(3) -0.0526(4) 0.1364(1)
C3 C 0.2904(3) -0.1907(4) 0.1282(1)
C4 C 0.3123(4) -0.2635(5) 0.0898(1)
C5 C 0.3655(3) -0.1980(5) 0.0582(1)
C6 C 0.3989(3) -0.0614(5) 0.0661(1)
C7 C 0.3771(3) 0.0111(4) 0.1050(1)
C8 C 0.3854(3) -0.4552(5) -0.0289(1)
C9 C 0.3512(3) -0.5928(5) -0.0348(1)
C10 C 0.3707(4) -0.6756(6) -0.0720(2)
C11 C 0.3313(5) -0.8228(7) -0.0783(2)
C12 C 0.4277(4) -0.6137(7) -0.1033(2)
C13 C 0.4631(4) -0.4783(7) -0.0983(2)
C14 C 0.4427(4) -0.3952(6) -0.0612(1)
C15 C 0.3601(4) 0.4560(5) 0.2023(2)
C16 C 0.1277(3) 0.2779(5) 0.2245(2)
C17 C 0.3866(3) 0.1874(5) 0.2902(1)
H1 H 0.4478 -0.2280 -0.0265
H2 H 0.2517 -0.2365 0.1501
H3 H 0.2904 -0.3603 0.0849
H4 H 0.4379 -0.0160 0.0443
H5 H 0.4003 0.1072 0.1101
H6 H 0.3121 -0.6326 -0.0120
H7 H 0.2570 -0.8221 -0.0818
H8 H 0.3533 -0.8632 -0.1061
H9 H 0.3583 -0.8784 -0.0512
H10 H 0.4432 -0.6682 -0.1297
H11 H 0.5030 -0.4400 -0.1210
H12 H 0.4309 0.4319 0.2002
H13 H 0.3232 0.4701 0.1711
H14 H 0.3581 0.5415 0.2203
H15 H 0.1000 0.3361 0.2472
H16 H 0.1017 0.3102 0.1932
H17 H 0.1070 0.1812 0.2280
H18 H 0.3638 0.0911 0.2923
H19 H 0.4569 0.1882 0.2837
H20 H 0.3829 0.2353 0.3195
O2C O 0.2442(2) -0.0300(3) 0.20570(9)
Sn1C Sn 0.20907(2) -0.20887(3) 0.26448(1)
loop_
_geom_bond_atom_site_label_1
_geom_bond_atom_site_label_2
_geom_bond_site_symmetry_1
_geom_bond_site_symmetry_2
Sn1 O1 1_555 1_555
O1 C1 1_555 1_555
O2 Sn1 1_555 1_555
O3 C14 1_555 1_555
N1 N2 1_555 1_555
N2 C8 1_555 1_555
C1 C2 1_555 1_555
C2 C3 1_555 1_555
C3 C4 1_555 1_555
C4 C5 1_555 1_555
C5 N1 1_555 1_555
C6 C5 1_555 1_555
C7 C2 1_555 1_555
C8 C9 1_555 1_555
C9 C10 1_555 1_555
C10 C11 1_555 1_555
C11 H7 1_555 1_555
C12 C10 1_555 1_555
C13 C12 1_555 1_555
C14 C8 1_555 1_555
C15 Sn1 1_555 1_555
C16 Sn1 1_555 1_555
C17 Sn1 1_555 1_555
H1 O3 1_555 1_555
H2 C3 1_555 1_555
H3 C4 1_555 1_555
H4 C6 1_555 1_555
H5 C7 1_555 1_555
H6 C9 1_555 1_555
H8 C11 1_555 1_555
H9 C11 1_555 1_555
H10 C12 1_555 1_555
H11 C13 1_555 1_555
H12 C15 1_555 1_555
H13 C15 1_555 1_555
H14 C15 1_555 1_555
H15 C16 1_555 1_555
H16 C16 1_555 1_555
H17 C16 1_555 1_555
H18 C17 1_555 1_555
H19 C17 1_555 1_555
H20 C17 1_555 1_555
O2C C1 1_555 1_555
Sn1C O2C 1_555 1_555
C6 C7 1_555 1_555
C13 C14 1_555 1_555

#END
