
#######################################################################
#
#                 Cambridge Crystallographic Data Centre
#                                CCDC 
#
#######################################################################
#
# If this CIF has been generated from an entry in the Cambridge 
# Structural Database, then it will include bibliographic, chemical, 
# crystal, experimental, refinement or atomic coordinate data resulting 
# from the CCDC's data processing and validation procedures.
#
#######################################################################

data_HIHFIP
_symmetry_cell_setting           monoclinic
_symmetry_space_group_name_H-M   'P 21/n'
_symmetry_Int_Tables_number      14
_space_group_name_Hall           '-P 2yn'
loop_
_symmetry_equiv_pos_site_id
_symmetry_equiv_pos_as_xyz
1 x,y,z
2 1/2-x,1/2+y,1/2-z
3 -x,-y,-z
4 1/2+x,1/2-y,1/2+z
_cell_length_a                   9.1455(2)
_cell_length_b                   22.8915(4)
_cell_length_c                   17.1438(3)
_cell_angle_alpha                90
_cell_angle_beta                 103.4680(10)
_cell_angle_gamma                90
_cell_volume                     3490.43
loop_
_atom_site_label
_atom_site_type_symbol
_atom_site_fract_x
_atom_site_fract_y
_atom_site_fract_z
C1 C 0.3400(3) 0.22672(11) 0.81230(17)
H1 H 0.2788 0.1941 0.7985
C2 C 0.3193(4) 0.26930(11) 0.8682(2)
H2 H 0.2453 0.2694 0.8974
C3 C 0.4290(3) 0.31025(10) 0.87124(16)
H3 H 0.4428 0.3442 0.9019
C4 C 0.5185(2) 0.29080(9) 0.81820(12)
C5 C 0.6463(2) 0.31728(8) 0.80278(12)
C6 C 0.7340(2) 0.29493(9) 0.75230(12)
C7 C 0.8808(3) 0.31460(11) 0.74934(15)
H4 H 0.9324 0.3461 0.7772
C8 C 0.9313(3) 0.27819(11) 0.69759(16)
H5 H 1.0238 0.2797 0.6839
C9 C 0.8145(2) 0.23811(10) 0.66958(14)
H6 H 0.8188 0.2087 0.6328
C10 C 0.6933(2) 0.37492(9) 0.84149(12)
C11 C 0.7227(3) 0.38362(9) 0.92410(12)
H7 H 0.7125 0.3525 0.9572
C12 C 0.7667(3) 0.43758(9) 0.95798(12)
H8 H 0.7870 0.4420 1.0134
C13 C 0.7808(2) 0.48534(9) 0.91009(12)
C14 C 0.7466(3) 0.47719(10) 0.82737(13)
H9 H 0.7517 0.5088 0.7941
C15 C 0.7051(3) 0.42297(10) 0.79368(13)
H10 H 0.6848 0.4186 0.7383
C16 C 0.8263(2) 0.54395(9) 0.94425(12)
C17 C 0.8025(3) 0.56251(10) 1.01718(13)
H11 H 0.7628 0.5372 1.0494
C18 C 0.8392(3) 0.61945(11) 1.04124(16)
H12 H 0.8277 0.6324 1.0909
C19 C 0.8925(3) 0.65661(11) 0.99158(16)
H13 H 0.9096 0.6954 1.0072
C20 C 0.8919(2) 0.58398(9) 0.90138(13)
H14 H 0.9173 0.5708 0.8550
C21 C 0.1795(2) 0.15780(10) 0.62124(14)
H15 H 0.1595 0.1905 0.5884
C22 C 0.0701(3) 0.11633(10) 0.62892(16)
H16 H -0.0309 0.1165 0.6024
C23 C 0.1417(3) 0.07597(10) 0.68286(15)
H17 H 0.0985 0.0433 0.7007
C24 C 0.2961(2) 0.09338(9) 0.70693(12)
C25 C 0.4080(2) 0.06598(8) 0.76447(12)
C26 C 0.5581(2) 0.08273(8) 0.79069(12)
C27 C 0.6744(3) 0.05054(9) 0.84247(12)
H18 H 0.6631 0.0160 0.8690
C28 C 0.8059(3) 0.07991(10) 0.84595(14)
H19 H 0.9013 0.0692 0.8748
C29 C 0.7673(2) 0.12979(10) 0.79686(13)
H20 H 0.8364 0.1577 0.7889
C30 C 0.3626(2) 0.01179(9) 0.80206(12)
C31 C 0.3393(3) -0.04068(9) 0.76021(13)
H21 H 0.3505 -0.0422 0.7077
C32 C 0.2997(3) -0.09057(9) 0.79575(13)
H22 H 0.2843 -0.1252 0.7667
C33 C 0.2824(2) -0.08987(9) 0.87450(12)
C34 C 0.3047(3) -0.03701(9) 0.91610(13)
H23 H 0.2926 -0.0353 0.9684
C35 C 0.3447(3) 0.01293(9) 0.88043(13)
H24 H 0.3599 0.0477 0.9093
C36 C 0.2461(2) -0.14385(9) 0.91383(12)
C37 C 0.3007(3) -0.15469(10) 0.99521(13)
H25 H 0.3640 -0.1280 1.0275
C38 C 0.2595(3) -0.20578(10) 1.02736(14)
H26 H 0.2936 -0.2138 1.0818
C39 C 0.1673(3) -0.24464(10) 0.97766(15)
H27 H 0.1395 -0.2786 1.0003
C40 C 0.1546(2) -0.18609(9) 0.86875(13)
H28 H 0.1180 -0.1791 0.8143
N1 N 0.4569(2) 0.23879(7) 0.78183(11)
N2 N 0.69692(19) 0.24692(7) 0.70159(10)
N3 N 0.9212(2) 0.63999(8) 0.92191(12)
N4 N 0.31541(19) 0.14483(7) 0.66644(10)
N5 N 0.62097(19) 0.13228(7) 0.76339(10)
N6 N 0.1154(2) -0.23661(7) 0.89883(12)
Ni1 Ni 0.50832(3) 0.195727(10) 0.686597(16)
N3A N 0.5788(2) 0.13999(8) 0.57809(12)
N6A N 0.3846(2) 0.26339(7) 0.60117(12)
Ni1A Ni -0.00832(3) -0.304273(10) 0.813403(16)
Ni1A_2 Ni 0.99168(3) 0.695727(10) 0.813403(16)
C41 C 0.1807(3) 0.12828(11) 0.05128(16)
H29 H 0.1757 0.1556 0.0946
Cl1 Cl 0.36639(7) 0.10340(4) 0.06481(5)
Cl2 Cl 0.06277(7) 0.06864(3) 0.05642(4)
Cl3 Cl 0.12168(10) 0.16455(4) -0.04077(5)
loop_
_geom_bond_atom_site_label_1
_geom_bond_atom_site_label_2
_geom_bond_site_symmetry_1
_geom_bond_site_symmetry_2
C1 H1 1_555 1_555
C2 C1 1_555 1_555
H2 C2 1_555 1_555
C3 C2 1_555 1_555
H3 C3 1_555 1_555
C4 C3 1_555 1_555
C5 C4 1_555 1_555
C6 C5 1_555 1_555
C7 C6 1_555 1_555
H4 C7 1_555 1_555
C8 C7 1_555 1_555
H5 C8 1_555 1_555
C9 C8 1_555 1_555
H6 C9 1_555 1_555
C10 C5 1_555 1_555
C11 C10 1_555 1_555
H7 C11 1_555 1_555
C12 C11 1_555 1_555
H8 C12 1_555 1_555
C13 C12 1_555 1_555
C14 C13 1_555 1_555
H9 C14 1_555 1_555
C15 C10 1_555 1_555
H10 C15 1_555 1_555
C16 C13 1_555 1_555
C17 C16 1_555 1_555
H11 C17 1_555 1_555
C18 C17 1_555 1_555
H12 C18 1_555 1_555
C19 C18 1_555 1_555
H13 C19 1_555 1_555
C20 C16 1_555 1_555
H14 C20 1_555 1_555
C21 H15 1_555 1_555
C22 C21 1_555 1_555
H16 C22 1_555 1_555
C23 C22 1_555 1_555
H17 C23 1_555 1_555
C24 C23 1_555 1_555
C25 C24 1_555 1_555
C26 C25 1_555 1_555
C27 C26 1_555 1_555
H18 C27 1_555 1_555
C28 C27 1_555 1_555
H19 C28 1_555 1_555
C29 C28 1_555 1_555
H20 C29 1_555 1_555
C30 C25 1_555 1_555
C31 C30 1_555 1_555
H21 C31 1_555 1_555
C32 C31 1_555 1_555
H22 C32 1_555 1_555
C33 C32 1_555 1_555
C34 C33 1_555 1_555
H23 C34 1_555 1_555
C35 C30 1_555 1_555
H24 C35 1_555 1_555
C36 C33 1_555 1_555
C37 C36 1_555 1_555
H25 C37 1_555 1_555
C38 C37 1_555 1_555
H26 C38 1_555 1_555
C39 C38 1_555 1_555
H27 C39 1_555 1_555
C40 C36 1_555 1_555
H28 C40 1_555 1_555
N1 C1 1_555 1_555
N2 C6 1_555 1_555
N3 C19 1_555 1_555
N4 C21 1_555 1_555
N5 C26 1_555 1_555
N6 C39 1_555 1_555
Ni1 N1 1_555 1_555
C41 H29 1_555 1_555
Cl1 C41 1_555 1_555
Cl2 C41 1_555 1_555
Cl3 C41 1_555 1_555
N3A Ni1 1_555 1_555
N6A Ni1 1_555 1_555
Ni1A N6 1_555 1_555
Ni1A_2 N3 1_555 1_555
C4 N1 1_555 1_555
C9 N2 1_555 1_555
C14 C15 1_555 1_555
C20 N3 1_555 1_555
C24 N4 1_555 1_555
C29 N5 1_555 1_555
C34 C35 1_555 1_555
C40 N6 1_555 1_555
N2 Ni1 1_555 1_555
N4 Ni1 1_555 1_555
N5 Ni1 1_555 1_555

#END
