
#######################################################################
#
#                 Cambridge Crystallographic Data Centre
#                                CCDC 
#
#######################################################################
#
# If this CIF has been generated from an entry in the Cambridge 
# Structural Database, then it will include bibliographic, chemical, 
# crystal, experimental, refinement or atomic coordinate data resulting 
# from the CCDC's data processing and validation procedures.
#
#######################################################################

data_HIHFAH
_symmetry_cell_setting           monoclinic
_symmetry_space_group_name_H-M   'C 2/c'
_symmetry_Int_Tables_number      15
_space_group_name_Hall           '-C 2yn'
loop_
_symmetry_equiv_pos_site_id
_symmetry_equiv_pos_as_xyz
1 x,y,z
2 -x,y,1/2-z
3 1/2+x,1/2+y,z
4 1/2-x,1/2+y,1/2-z
5 -x,-y,-z
6 x,-y,1/2+z
7 1/2-x,1/2-y,-z
8 1/2+x,1/2-y,1/2+z
_cell_length_a                   16.8518(3)
_cell_length_b                   9.3426(2)
_cell_length_c                   16.0838(3)
_cell_angle_alpha                90
_cell_angle_beta                 116.5070(10)
_cell_angle_gamma                90
_cell_volume                     2266.04
loop_
_atom_site_label
_atom_site_type_symbol
_atom_site_fract_x
_atom_site_fract_y
_atom_site_fract_z
C1 C 0.85027(10) 0.57608(15) 0.06202(10)
H1 H 0.8881 0.6322 0.0477
C2 C 0.75835(10) 0.56237(16) 0.00389(10)
H2 H 0.7259 0.6061 -0.0534
C3 C 0.72654(10) 0.47142(15) 0.04906(10)
H3 H 0.6681 0.4413 0.0282
C4 C 0.80006(9) 0.43198(14) 0.13403(9)
C5 C 0.79823(9) 0.34441(14) 0.20382(9)
C6 C 0.87014(9) 0.30122(14) 0.28601(9)
C7 C 0.86826(11) 0.20566(16) 0.35487(11)
H4 H 0.8183 0.1638 0.3551
C8 C 0.95422(11) 0.18788(18) 0.42022(11)
H5 H 0.9743 0.1316 0.4734
C9 C 1.00641(10) 0.27257(16) 0.39036(11)
H6 H 1.0678 0.2794 0.4222
C10 C 0.71028(9) 0.28963(14) 0.19158(9)
C11 C 0.67391(10) 0.34157(15) 0.24807(10)
H7 H 0.6989 0.4203 0.2862
C12 C 0.60022(10) 0.27490(16) 0.24694(11)
H8 H 0.5778 0.3095 0.2864
C13 C 0.59090(9) 0.12164(15) 0.13259(10)
H9 H 0.5611 0.0493 0.0904
C14 C 0.66558(9) 0.18034(15) 0.13028(10)
H10 H 0.6853 0.1468 0.0883
N1 N 0.87641(8) 0.49951(11) 0.13940(8)
N2 N 0.95721(8) 0.34120(12) 0.31147(8)
N3 N 0.55898(8) 0.16284(13) 0.19207(8)
Ni1 Ni 1.0000 0.49324(2) 0.2500
C1A C 1.14973(10) 0.57608(15) 0.43798(10)
H1A H 1.1119 0.6322 0.4523
C2A C 1.24165(10) 0.56237(16) 0.49611(10)
H2A H 1.2741 0.6061 0.5534
C3A C 1.27346(10) 0.47142(15) 0.45094(10)
H3A H 1.3319 0.4413 0.4718
C4A C 1.19994(9) 0.43198(14) 0.36597(9)
C5A C 1.20177(9) 0.34441(14) 0.29618(9)
C6A C 1.12986(9) 0.30122(14) 0.21399(9)
C7A C 1.13174(11) 0.20566(16) 0.14513(11)
H4A H 1.1817 0.1638 0.1449
C8A C 1.04578(11) 0.18788(18) 0.07978(11)
H5A H 1.0257 0.1316 0.0266
C9A C 0.99359(10) 0.27257(16) 0.10964(11)
H6A H 0.9322 0.2794 0.0778
C10A C 1.28972(9) 0.28963(14) 0.30842(9)
C11A C 1.32609(10) 0.34157(15) 0.25193(10)
H7A H 1.3011 0.4203 0.2138
C12A C 1.39978(10) 0.27490(16) 0.25306(11)
H8A H 1.4222 0.3095 0.2136
C13A C 1.40910(9) 0.12164(15) 0.36741(10)
H9A H 1.4389 0.0493 0.4096
C14A C 1.33442(9) 0.18034(15) 0.36972(10)
H10A H 1.3147 0.1468 0.4117
N1A N 1.12359(8) 0.49951(11) 0.36060(8)
N2A N 1.04279(8) 0.34120(12) 0.18853(8)
N3A N 1.44102(8) 0.16284(13) 0.30793(8)
N3B N 1.05898(8) 0.66284(13) 0.19207(8)
N3C N 0.94102(8) 0.66284(13) 0.30793(8)
Ni1B Ni 0.5000 -0.00676(2) 0.2500
Ni1B_2 Ni 1.5000 -0.00676(2) 0.2500
loop_
_geom_bond_atom_site_label_1
_geom_bond_atom_site_label_2
_geom_bond_site_symmetry_1
_geom_bond_site_symmetry_2
C1 H1 1_555 1_555
C2 C1 1_555 1_555
H2 C2 1_555 1_555
C3 C2 1_555 1_555
H3 C3 1_555 1_555
C4 C3 1_555 1_555
C5 C4 1_555 1_555
C6 C5 1_555 1_555
C7 C6 1_555 1_555
H4 C7 1_555 1_555
C8 C7 1_555 1_555
H5 C8 1_555 1_555
C9 C8 1_555 1_555
H6 C9 1_555 1_555
C10 C5 1_555 1_555
C11 C10 1_555 1_555
H7 C11 1_555 1_555
C12 C11 1_555 1_555
H8 C12 1_555 1_555
C13 H9 1_555 1_555
C14 C10 1_555 1_555
H10 C14 1_555 1_555
N1 C1 1_555 1_555
N2 C6 1_555 1_555
N3 C12 1_555 1_555
Ni1 N1 1_555 1_555
C1A H1A 1_555 1_555
C2A C1A 1_555 1_555
H2A C2A 1_555 1_555
C3A C2A 1_555 1_555
H3A C3A 1_555 1_555
C4A C3A 1_555 1_555
C5A C4A 1_555 1_555
C6A C5A 1_555 1_555
C7A C6A 1_555 1_555
H4A C7A 1_555 1_555
C8A C7A 1_555 1_555
H5A C8A 1_555 1_555
C9A C8A 1_555 1_555
H6A C9A 1_555 1_555
C10A C5A 1_555 1_555
C11A C10A 1_555 1_555
H7A C11A 1_555 1_555
C12A C11A 1_555 1_555
H8A C12A 1_555 1_555
C13A H9A 1_555 1_555
C14A C10A 1_555 1_555
H10A C14A 1_555 1_555
N1A Ni1 1_555 1_555
N2A Ni1 1_555 1_555
N3A C12A 1_555 1_555
N3B Ni1 1_555 1_555
N3C Ni1 1_555 1_555
Ni1B N3 1_555 1_555
Ni1B_2 N3A 1_555 1_555
C4 N1 1_555 1_555
C9 N2 1_555 1_555
C13 C14 1_555 1_555
C13 N3 1_555 1_555
N2 Ni1 1_555 1_555
C1A N1A 1_555 1_555
C4A N1A 1_555 1_555
C6A N2A 1_555 1_555
C9A N2A 1_555 1_555
C13A C14A 1_555 1_555
C13A N3A 1_555 1_555

#END
