
#######################################################################
#
#                 Cambridge Crystallographic Data Centre
#                                CCDC 
#
#######################################################################
#
# If this CIF has been generated from an entry in the Cambridge 
# Structural Database, then it will include bibliographic, chemical, 
# crystal, experimental, refinement or atomic coordinate data resulting 
# from the CCDC's data processing and validation procedures.
#
#######################################################################

data_HIHGOU
_symmetry_cell_setting           triclinic
_symmetry_space_group_name_H-M   'P -1'
_symmetry_Int_Tables_number      2
_space_group_name_Hall           '-P 1'
loop_
_symmetry_equiv_pos_site_id
_symmetry_equiv_pos_as_xyz
1 x,y,z
2 -x,-y,-z
_cell_length_a                   9.531(1)
_cell_length_b                   12.120(1)
_cell_length_c                   14.327(2)
_cell_angle_alpha                64.34(2)
_cell_angle_beta                 70.61(1)
_cell_angle_gamma                82.90(1)
_cell_volume                     1406.77
loop_
_atom_site_label
_atom_site_type_symbol
_atom_site_fract_x
_atom_site_fract_y
_atom_site_fract_z
Ce1 Ce 0.77017(5) 0.02652(4) 0.00962(3)
O1 O 0.8595(6) 0.2421(5) -0.0592(4)
O2 O 1.0735(6) 0.1538(4) -0.0473(4)
O3 O 0.9538(5) 0.0582(5) -0.1637(3)
O4 O 1.1945(6) 0.0079(5) -0.1835(4)
O5 O 0.5659(6) -0.1100(5) 0.1480(4)
O6 O 0.3898(5) -0.1458(4) 0.0951(3)
O7 O 0.5747(6) 0.1554(4) 0.1017(4)
O8 O 0.7028(6) -0.1008(4) -0.0771(4)
O9 O 0.8125(7) 0.6791(5) -0.1663(5)
O10 O 0.9846(7) 0.7838(5) -0.1695(5)
O11 O 1.4459(8) 0.5947(6) -0.1248(6)
O12 O 1.4819(7) 0.4075(6) -0.1008(5)
O13 O 1.5196(7) 0.1237(6) -0.5710(5)
O14 O 1.4137(9) 0.1387(7) -0.6874(4)
O15 O 0.8895(8) 0.2123(8) -0.6144(5)
O16 O 0.7522(7) 0.1227(6) -0.4480(4)
O17 O 0.0933(9) -0.5259(7) 0.3363(5)
O18 O 0.0860(8) -0.6173(5) 0.5033(5)
O19 O 0.3639(9) -0.4554(7) 0.6422(5)
O20 O 0.5454(7) -0.3294(6) 0.5281(4)
N1 N 0.9357(8) 0.6902(5) -0.1621(4)
N2 N 1.4076(8) 0.4990(6) -0.1157(6)
N3 N 1.4096(8) 0.1288(6) -0.5974(5)
N4 N 0.8710(8) 0.1601(6) -0.5181(5)
N5 N 0.1304(9) -0.5361(6) 0.4120(6)
N6 N 0.4332(8) -0.3846(6) 0.5501(5)
C1 C 1.0604(8) 0.3691(6) -0.0985(5)
C2 C 0.9726(8) 0.4742(6) -0.1223(5)
C3 C 1.0332(9) 0.5824(6) -0.1441(5)
C4 C 1.1735(9) 0.5945(7) -0.1439(5)
C5 C 1.2579(8) 0.4911(7) -0.1211(5)
C6 C 1.2041(8) 0.3777(6) -0.0997(5)
C7 C 0.9931(9) 0.2455(6) -0.0662(5)
C8 C 1.1058(8) 0.0770(6) -0.3369(5)
C9 C 1.2499(9) 0.0856(6) -0.4105(5)
C10 C 1.2601(9) 0.1202(7) -0.5173(5)
C11 C 1.1417(9) 0.1447(7) -0.5564(5)
C12 C 1.0023(9) 0.1320(6) -0.4799(5)
C13 C 0.9835(9) 0.1004(6) -0.3727(5)
C14 C 1.0834(8) 0.0450(6) -0.2185(5)
C15 C 0.3933(8) -0.2695(6) 0.2741(5)
C16 C 0.2879(8) -0.3524(7) 0.2926(6)
C17 C 0.2352(9) -0.4432(7) 0.3944(6)
C18 C 0.275(1) -0.4542(7) 0.4823(6)
C19 C 0.3817(9) -0.3725(7) 0.4602(6)
C20 C 0.4448(9) -0.2822(6) 0.3585(5)
C21 C 0.4547(8) -0.1676(6) 0.1640(5)
H1 H 0.864 0.469 -0.123
H2 H 1.216 0.679 -0.161
H3 H 1.272 0.301 -0.085
H4 H 1.345 0.066 -0.385
H5 H 1.155 0.171 -0.639
H6 H 0.876 0.094 -0.318
H7 H 0.250 -0.345 0.229
H8 H 0.227 -0.521 0.561
H9 H 0.529 -0.224 0.345
H10 H 0.568 0.240 0.056
H11 H 0.525 0.162 0.166
H12 H 0.771 -0.116 -0.135
H13 H 0.626 -0.159 -0.068
O2A O 0.9265(6) -0.1538(4) 0.0473(4)
O4A O 0.8055(6) -0.0079(5) 0.1835(4)
O6A O 0.6102(5) 0.1458(4) -0.0951(3)
Ce1A Ce 1.22983(5) -0.02652(4) -0.00962(3)
Ce1A_2 Ce 0.22983(5) -0.02652(4) -0.00962(3)
loop_
_geom_bond_atom_site_label_1
_geom_bond_atom_site_label_2
_geom_bond_site_symmetry_1
_geom_bond_site_symmetry_2
Ce1 O1 1_555 1_555
O1 C7 1_555 1_555
O2 C7 1_555 1_555
O3 Ce1 1_555 1_555
O4 C14 1_555 1_555
O5 Ce1 1_555 1_555
O6 C21 1_555 1_555
O7 Ce1 1_555 1_555
O8 Ce1 1_555 1_555
O9 N1 1_555 1_555
O10 N1 1_555 1_555
O11 N2 1_555 1_555
O12 N2 1_555 1_555
O13 N3 1_555 1_555
O14 N3 1_555 1_555
O15 N4 1_555 1_555
O16 N4 1_555 1_555
O17 N5 1_555 1_555
O18 N5 1_555 1_555
O19 N6 1_555 1_555
O20 N6 1_555 1_555
N1 C3 1_555 1_555
N2 C5 1_555 1_555
N3 C10 1_555 1_555
N4 C12 1_555 1_555
N5 C17 1_555 1_555
N6 C19 1_555 1_555
C1 C2 1_555 1_555
C2 C3 1_555 1_555
C3 C4 1_555 1_555
C4 C5 1_555 1_555
C5 C6 1_555 1_555
C6 C1 1_555 1_555
C7 C1 1_555 1_555
C8 C9 1_555 1_555
C9 C10 1_555 1_555
C10 C11 1_555 1_555
C11 C12 1_555 1_555
C12 C13 1_555 1_555
C13 C8 1_555 1_555
C14 O3 1_555 1_555
C15 C16 1_555 1_555
C16 C17 1_555 1_555
C17 C18 1_555 1_555
C18 C19 1_555 1_555
C19 C20 1_555 1_555
C20 C15 1_555 1_555
C21 O5 1_555 1_555
H1 C2 1_555 1_555
H2 C4 1_555 1_555
H3 C6 1_555 1_555
H4 C9 1_555 1_555
H5 C11 1_555 1_555
H6 C13 1_555 1_555
H7 C16 1_555 1_555
H8 C18 1_555 1_555
H9 C20 1_555 1_555
H10 O7 1_555 1_555
H11 O7 1_555 1_555
H12 O8 1_555 1_555
H13 O8 1_555 1_555
O2A Ce1 1_555 1_555
O4A Ce1 1_555 1_555
O6A Ce1 1_555 1_555
Ce1A O2 1_555 1_555
Ce1A_2 O6 1_555 1_555
O4 Ce1A 1_555 1_555
C8 C14 1_555 1_555
C15 C21 1_555 1_555

#END
