
#######################################################################
#
#                 Cambridge Crystallographic Data Centre
#                                CCDC 
#
#######################################################################
#
# If this CIF has been generated from an entry in the Cambridge 
# Structural Database, then it will include bibliographic, chemical, 
# crystal, experimental, refinement or atomic coordinate data resulting 
# from the CCDC's data processing and validation procedures.
#
#######################################################################

data_HIHJAK
_symmetry_cell_setting           monoclinic
_symmetry_space_group_name_H-M   'P 21/c'
_symmetry_Int_Tables_number      14
_space_group_name_Hall           '-P 2ybc'
loop_
_symmetry_equiv_pos_site_id
_symmetry_equiv_pos_as_xyz
1 x,y,z
2 -x,1/2+y,1/2-z
3 -x,-y,-z
4 x,1/2-y,1/2+z
_cell_length_a                   13.6020(11)
_cell_length_b                   6.6961(5)
_cell_length_c                   9.6654(8)
_cell_angle_alpha                90
_cell_angle_beta                 90.999(5)
_cell_angle_gamma                90
_cell_volume                     880.194
loop_
_atom_site_label
_atom_site_type_symbol
_atom_site_fract_x
_atom_site_fract_y
_atom_site_fract_z
Pb1 Pb 0.95495(3) 0.26028(6) 0.84489(5)
C1 C 1.2833(9) 0.1032(17) 0.5663(12)
O1 O 1.1120(6) 0.1111(11) 0.7330(9)
C2 C 1.3410(11) -0.2123(18) 0.4833(16)
H1 H 1.3338 -0.3240 0.4234
C3 C 1.2119(11) 0.2769(16) 0.5629(15)
H2 H 1.2463 0.3966 0.5994
H3 H 1.1936 0.3044 0.4651
C4 C 1.2711(9) -0.0625(16) 0.4785(12)
C5 C 1.4205(12) -0.204(2) 0.5723(16)
H4 H 1.4684 -0.3070 0.5730
C6 C 1.3626(10) 0.107(2) 0.6563(14)
H5 H 1.3705 0.2171 0.7173
O2 O 1.1978(8) -0.1774(14) 0.2715(10)
C7 C 1.1849(9) -0.0882(16) 0.3841(13)
C8 C 1.4300(12) -0.043(2) 0.6606(16)
H6 H 1.4836 -0.0374 0.7247
C9 C 1.1167(9) 0.2476(15) 0.6449(13)
O3 O 1.1009(7) -0.0266(12) 0.4180(9)
O4 O 1.0474(6) 0.3707(11) 0.6208(9)
Pb1A Pb 1.04505(3) -0.23972(6) 0.65511(5)
Pb1B Pb 1.04505(3) -0.26028(6) 0.15511(5)
Pb1C Pb 0.95495(3) 0.23972(6) 0.34489(5)
Pb1A_2 Pb 1.04505(3) 0.76028(6) 0.65511(5)
O1A O 0.8880(6) 0.6111(11) 0.7670(9)
O2B O 0.8022(8) 0.1774(14) 0.7285(10)
O3C O 1.1009(7) 0.5266(12) 0.9180(9)
O4A O 0.9526(6) -0.1293(11) 0.8792(9)
loop_
_geom_bond_atom_site_label_1
_geom_bond_atom_site_label_2
_geom_bond_site_symmetry_1
_geom_bond_site_symmetry_2
Pb1 O1 1_555 1_555
C1 C3 1_555 1_555
O1 C9 1_555 1_555
C2 H1 1_555 1_555
C3 H2 1_555 1_555
H3 C3 1_555 1_555
C4 C1 1_555 1_555
C5 C2 1_555 1_555
H4 C5 1_555 1_555
C6 C1 1_555 1_555
H5 C6 1_555 1_555
O2 C7 1_555 1_555
C7 C4 1_555 1_555
C8 C5 1_555 1_555
H6 C8 1_555 1_555
C9 C3 1_555 1_555
O3 C7 1_555 1_555
O4 Pb1 1_555 1_555
Pb1A O1 1_555 1_555
Pb1B O2 1_555 1_555
Pb1C O3 1_555 1_555
Pb1A_2 O4 1_555 1_555
O1A Pb1 1_555 1_555
O2B Pb1 1_555 1_555
O3C Pb1 1_555 1_555
O4A Pb1 1_555 1_555
C2 C4 1_555 1_555
C6 C8 1_555 1_555
C9 O4 1_555 1_555
Pb1A O4A 1_555 1_555
Pb1A_2 O1A 1_555 1_555

#END
