
#######################################################################
#
#                 Cambridge Crystallographic Data Centre
#                                CCDC 
#
#######################################################################
#
# If this CIF has been generated from an entry in the Cambridge 
# Structural Database, then it will include bibliographic, chemical, 
# crystal, experimental, refinement or atomic coordinate data resulting 
# from the CCDC's data processing and validation procedures.
#
#######################################################################

data_HIHJUF
_symmetry_cell_setting           trigonal
_symmetry_space_group_name_H-M   'P -3 1 c'
_symmetry_Int_Tables_number      163
_space_group_name_Hall           "-P 3 2'c"
loop_
_symmetry_equiv_pos_site_id
_symmetry_equiv_pos_as_xyz
1 x,y,z
2 -y,x-y,z
3 -x+y,-x,z
4 -y,-x,1/2-z
5 x,x-y,1/2-z
6 -x+y,y,1/2-z
7 -x,-y,-z
8 y,-x+y,-z
9 x-y,x,-z
10 y,x,1/2+z
11 -x,-x+y,1/2+z
12 x-y,-y,1/2+z
_cell_length_a                   11.8739(15)
_cell_length_b                   11.8739(15)
_cell_length_c                   25.494(5)
_cell_angle_alpha                90
_cell_angle_beta                 90
_cell_angle_gamma                120
_cell_volume                     3112.83
loop_
_atom_site_label
_atom_site_type_symbol
_atom_site_fract_x
_atom_site_fract_y
_atom_site_fract_z
C1 C 0.4071(12) 0.3489(11) 0.1599(3)
C2 C 0.4026(12) 0.2696(10) 0.2060(3)
C3 C 0.3997(15) 0.3135(12) 0.2563(3)
H1 H 0.3983 0.3906 0.2607
C4 C 0.1655(8) 0.4476(9) 0.0799(3)
C5 C 0.1929(10) 0.4130(12) 0.0018(3)
H2 H 0.2247 0.3935 -0.0281
C6 C 0.3987(13) 0.1553(10) 0.2002(3)
H3 H 0.3954 0.1225 0.1667
N1 N 0.0764(11) 0.4601(8) 0.0531(2)
N2 N 0.2423(9) 0.4195(9) 0.0504(2)
N3 N 0.1766(10) 0.4605(11) 0.1331(3)
N4 N 0.0967(7) 0.4366(9) 0.0007(2)
O1 O 0.4127(9) 0.3073(8) 0.1144(2)
O2 O 0.4031(8) 0.4504(8) 0.1658(3)
Zn1 Zn 0.41315(13) 0.42694(12) 0.06271(3)
H4 H 0.244(8) 0.466(7) 0.146(3)
H5 H 0.131(11) 0.497(10) 0.154(4)
C1D C 0.4071(12) 0.0582(16) 0.3401(3)
C2D C 0.4026(12) 0.1330(16) 0.2940(3)
C3D C 0.3997(15) 0.0862(19) 0.2437(3)
H1D H 0.3983 0.0077 0.2393
C6D C 0.3987(13) 0.2434(16) 0.2998(3)
H3D H 0.3954 0.2729 0.3333
O1D O 0.4127(9) 0.1054(12) 0.3856(2)
O2D O 0.4031(8) -0.0473(11) 0.3342(3)
C4A C 0.5524(9) 0.7179(12) 0.0799(3)
C5A C 0.5870(12) 0.7799(16) 0.0018(3)
H2A H 0.6065 0.8312 -0.0281
N1A N 0.5399(8) 0.6163(14) 0.0531(2)
N2A N 0.5805(9) 0.8228(13) 0.0504(2)
N3A N 0.5395(11) 0.7161(15) 0.1331(3)
N4A N 0.5634(9) 0.6601(11) 0.0007(2)
Zn1A Zn 0.57306(12) 0.98621(18) 0.06271(3)
H4A H 0.534(7) 0.778(11) 0.146(3)
H5A H 0.503(10) 0.634(15) 0.154(4)
N1B N 0.3837(14) 0.9236(11) 0.0531(2)
N4G N 0.4366(9) 0.3399(11) -0.0007(2)
N4H N 0.6601(11) 1.0967(7) -0.0007(2)
O1A O 0.6927(8) 1.1054(12) 0.1144(2)
Zn1B Zn 0.01379(18) 0.58685(13) 0.06271(3)
Zn1D Zn 0.41315(13) -0.01379(18) 0.43729(3)
Zn1F Zn 0.58685(13) 0.57306(12) -0.06271(3)
Zn1H Zn -0.01379(18) 0.41315(13) -0.06271(3)
loop_
_geom_bond_atom_site_label_1
_geom_bond_atom_site_label_2
_geom_bond_site_symmetry_1
_geom_bond_site_symmetry_2
C1 C2 1_555 1_555
C2 C3 1_555 1_555
C3 H1 1_555 1_555
C4 N1 1_555 1_555
C5 H2 1_555 1_555
C6 C2 1_555 1_555
H3 C6 1_555 1_555
N1 N4 1_555 1_555
N2 C4 1_555 1_555
N3 C4 1_555 1_555
N4 C5 1_555 1_555
O1 C1 1_555 1_555
O2 C1 1_555 1_555
Zn1 N2 1_555 1_555
H4 N3 1_555 1_555
H5 N3 1_555 1_555
C1D C2D 1_555 1_555
C2D C3D 1_555 1_555
C3D C6 1_555 1_555
H1D C3D 1_555 1_555
C6D C3 1_555 1_555
H3D C6D 1_555 1_555
O1D C1D 1_555 1_555
O2D C1D 1_555 1_555
C4A N1A 1_555 1_555
C5A H2A 1_555 1_555
N1A Zn1 1_555 1_555
N2A C4A 1_555 1_555
N3A C4A 1_555 1_555
N4A C5A 1_555 1_555
Zn1A N2A 1_555 1_555
H4A N3A 1_555 1_555
H5A N3A 1_555 1_555
N1B Zn1A 1_555 1_555
N4G Zn1 1_555 1_555
N4H Zn1A 1_555 1_555
O1A Zn1A 1_555 1_555
Zn1B N1 1_555 1_555
Zn1D O1D 1_555 1_555
Zn1F N4A 1_555 1_555
Zn1H N4 1_555 1_555
C5 N2 1_555 1_555
O1 Zn1 1_555 1_555
C2D C6D 1_555 1_555
C5A N2A 1_555 1_555
N1A N4A 1_555 1_555

#END
