
#######################################################################
#
#                 Cambridge Crystallographic Data Centre
#                                CCDC 
#
#######################################################################
#
# If this CIF has been generated from an entry in the Cambridge 
# Structural Database, then it will include bibliographic, chemical, 
# crystal, experimental, refinement or atomic coordinate data resulting 
# from the CCDC's data processing and validation procedures.
#
#######################################################################

data_HIHLUH
_symmetry_cell_setting           monoclinic
_symmetry_space_group_name_H-M   'P 21/n'
_symmetry_Int_Tables_number      14
_space_group_name_Hall           '-P 2yn'
loop_
_symmetry_equiv_pos_site_id
_symmetry_equiv_pos_as_xyz
1 x,y,z
2 1/2-x,1/2+y,1/2-z
3 -x,-y,-z
4 1/2+x,1/2-y,1/2+z
_cell_length_a                   8.3924(4)
_cell_length_b                   17.1982(14)
_cell_length_c                   11.9928(8)
_cell_angle_alpha                90
_cell_angle_beta                 108.319(4)
_cell_angle_gamma                90
_cell_volume                     1643.25
loop_
_atom_site_label
_atom_site_type_symbol
_atom_site_fract_x
_atom_site_fract_y
_atom_site_fract_z
U1 U 0.55151(2) 0.169993(10) 0.424782(14)
Cu1 Cu 0.65429(7) 0.46459(3) 0.21311(5)
O1 O 0.7186(4) 0.1403(2) 0.3746(3)
O2 O 0.3819(4) 0.19980(19) 0.4718(3)
O3 O 0.5514(4) 0.29294(18) 0.3346(3)
O4 O 0.4630(4) 0.36711(19) 0.1719(3)
O5 O 0.3562(4) 0.17986(18) 0.2285(3)
O6 O 0.2188(4) 0.25428(19) 0.0801(3)
O7 O 0.4330(4) 0.04338(18) 0.3622(3)
O8 O 0.3914(4) -0.07681(18) 0.4162(2)
O9 O 0.6814(4) 0.44486(18) 0.0586(3)
O10 O 0.5293(4) 0.46653(18) -0.1292(3)
N1 N 0.8366(4) 0.3960(2) 0.3039(3)
N2 N 0.6757(4) 0.5064(2) 0.3692(3)
C1 C 0.4590(5) 0.3086(3) 0.2288(4)
C2 C 0.3333(5) 0.2432(3) 0.1733(4)
C3 C 0.4487(5) -0.0095(3) 0.4357(4)
C4 C 0.5607(5) 0.4745(3) -0.0203(4)
C5 C 0.9041(6) 0.3382(3) 0.2587(4)
H1 H 0.8789 0.3342 0.1776
C6 C 1.0111(6) 0.2839(3) 0.3308(5)
H2 H 1.0571 0.2438 0.2987
C7 C 1.0478(6) 0.2906(3) 0.4513(4)
H3 H 1.1164 0.2541 0.5009
C8 C 0.9822(5) 0.3517(3) 0.4973(4)
H4 H 1.0114 0.3584 0.5782
C9 C 0.8718(5) 0.4030(3) 0.4214(4)
C10 C 0.7843(5) 0.4675(3) 0.4600(4)
C11 C 0.8043(6) 0.4868(3) 0.5753(4)
H5 H 0.8771 0.4584 0.6362
C12 C 0.7159(6) 0.5485(3) 0.5996(4)
H6 H 0.7294 0.5624 0.6769
C13 C 0.6061(6) 0.5897(3) 0.5075(4)
H7 H 0.5463 0.6320 0.5220
C14 C 0.5880(6) 0.5663(3) 0.3933(4)
H8 H 0.5128 0.5928 0.3313
O7B O 0.5670(4) -0.04338(18) 0.6378(3)
O8B O 0.6086(4) 0.07681(18) 0.5838(2)
C3B C 0.5513(5) 0.0095(3) 0.5643(4)
O9B O 0.3186(4) 0.55514(18) -0.0586(3)
O10B O 0.4707(4) 0.53347(18) 0.1292(3)
C4B C 0.4393(5) 0.5255(3) 0.0203(4)
U1B U 0.44849(2) -0.169993(10) 0.575218(14)
Cu1B Cu 0.34571(7) -0.46459(3) 0.78689(5)
O1B O 0.2814(4) -0.1403(2) 0.6254(3)
O2B O 0.6181(4) -0.19980(19) 0.5282(3)
O3B O 0.4486(4) -0.29294(18) 0.6654(3)
O4B O 0.5370(4) -0.36711(19) 0.8281(3)
O5B O 0.6438(4) -0.17986(18) 0.7715(3)
O6B O 0.7812(4) -0.25428(19) 0.9199(3)
N1B N 0.1634(4) -0.3960(2) 0.6961(3)
N2B N 0.3243(4) -0.5064(2) 0.6308(3)
C1B C 0.5410(5) -0.3086(3) 0.7712(4)
C2B C 0.6667(5) -0.2432(3) 0.8267(4)
C5B C 0.0959(6) -0.3382(3) 0.7413(4)
H1B H 0.1211 -0.3342 0.8224
C6B C -0.0111(6) -0.2839(3) 0.6692(5)
H2B H -0.0571 -0.2438 0.7013
C7B C -0.0478(6) -0.2906(3) 0.5487(4)
H3B H -0.1164 -0.2541 0.4991
C8B C 0.0178(5) -0.3517(3) 0.5027(4)
H4B H -0.0114 -0.3584 0.4218
C9B C 0.1282(5) -0.4030(3) 0.5786(4)
C10B C 0.2157(5) -0.4675(3) 0.5400(4)
C11B C 0.1957(6) -0.4868(3) 0.4247(4)
H5B H 0.1229 -0.4584 0.3638
C12B C 0.2841(6) -0.5485(3) 0.4004(4)
H6B H 0.2706 -0.5624 0.3231
C13B C 0.3939(6) -0.5897(3) 0.4925(4)
H7B H 0.4537 -0.6320 0.4780
C14B C 0.4120(6) -0.5663(3) 0.6067(4)
H8B H 0.4872 -0.5928 0.6687
U1A U 0.94849(2) -0.330007(10) 1.075218(14)
U1C U 0.05151(2) 0.330007(10) -0.075218(14)
Cu1B_2 Cu 0.34571(7) 0.53541(3) -0.21311(5)
O6A O 0.2812(4) -0.24572(19) 0.4199(3)
O6C O 0.7188(4) 0.24572(19) 0.5801(3)
O9B_2 O 0.3186(4) -0.44486(18) 0.9414(3)
O10_2 O 0.5293(4) -0.53347(18) 0.8708(3)
loop_
_geom_bond_atom_site_label_1
_geom_bond_atom_site_label_2
_geom_bond_site_symmetry_1
_geom_bond_site_symmetry_2
U1 O1 1_555 1_555
Cu1 O4 1_555 1_555
O2 U1 1_555 1_555
O3 U1 1_555 1_555
O4 C1 1_555 1_555
O5 U1 1_555 1_555
O6 C2 1_555 1_555
O7 U1 1_555 1_555
O8 C3 1_555 1_555
O9 Cu1 1_555 1_555
O10 C4 1_555 1_555
N1 Cu1 1_555 1_555
N2 Cu1 1_555 1_555
C1 O3 1_555 1_555
C2 O5 1_555 1_555
C3 O7 1_555 1_555
C4 O9 1_555 1_555
C5 N1 1_555 1_555
H1 C5 1_555 1_555
C6 C5 1_555 1_555
H2 C6 1_555 1_555
C7 C6 1_555 1_555
H3 C7 1_555 1_555
C8 C7 1_555 1_555
H4 C8 1_555 1_555
C9 N1 1_555 1_555
C10 N2 1_555 1_555
C11 C10 1_555 1_555
H5 C11 1_555 1_555
C12 C11 1_555 1_555
H6 C12 1_555 1_555
C13 C12 1_555 1_555
H7 C13 1_555 1_555
C14 N2 1_555 1_555
H8 C14 1_555 1_555
O7B C3B 1_555 1_555
O8B U1 1_555 1_555
C3B C3 1_555 1_555
O9B C4B 1_555 1_555
O10B Cu1 1_555 1_555
C4B C4 1_555 1_555
U1B O8 1_555 1_555
Cu1B O4B 1_555 1_555
O1B U1B 1_555 1_555
O2B U1B 1_555 1_555
O3B U1B 1_555 1_555
O4B C1B 1_555 1_555
O5B U1B 1_555 1_555
O6B C2B 1_555 1_555
N1B Cu1B 1_555 1_555
N2B Cu1B 1_555 1_555
C1B O3B 1_555 1_555
C2B O5B 1_555 1_555
C5B N1B 1_555 1_555
H1B C5B 1_555 1_555
C6B C5B 1_555 1_555
H2B C6B 1_555 1_555
C7B C6B 1_555 1_555
H3B C7B 1_555 1_555
C8B C7B 1_555 1_555
H4B C8B 1_555 1_555
C9B N1B 1_555 1_555
C10B N2B 1_555 1_555
C11B C10B 1_555 1_555
H5B C11B 1_555 1_555
C12B C11B 1_555 1_555
H6B C12B 1_555 1_555
C13B C12B 1_555 1_555
H7B C13B 1_555 1_555
C14B N2B 1_555 1_555
H8B C14B 1_555 1_555
U1A O6B 1_555 1_555
U1C O6 1_555 1_555
Cu1B_2 O10 1_555 1_555
O6A U1B 1_555 1_555
O6C U1 1_555 1_555
O9B_2 Cu1B 1_555 1_555
O10_2 Cu1B 1_555 1_555
C1 C2 1_555 1_555
C8 C9 1_555 1_555
C9 C10 1_555 1_555
C13 C14 1_555 1_555
O7B U1B 1_555 1_555
O8B C3B 1_555 1_555
O9B Cu1B_2 1_555 1_555
O10B C4B 1_555 1_555
C1B C2B 1_555 1_555
C8B C9B 1_555 1_555
C9B C10B 1_555 1_555
C13B C14B 1_555 1_555

#END
