
#######################################################################
#
#                 Cambridge Crystallographic Data Centre
#                                CCDC 
#
#######################################################################
#
# If this CIF has been generated from an entry in the Cambridge 
# Structural Database, then it will include bibliographic, chemical, 
# crystal, experimental, refinement or atomic coordinate data resulting 
# from the CCDC's data processing and validation procedures.
#
#######################################################################

data_HIHLOB
_symmetry_cell_setting           monoclinic
_symmetry_space_group_name_H-M   'P 21/c'
_symmetry_Int_Tables_number      14
_space_group_name_Hall           '-P 2ybc'
loop_
_symmetry_equiv_pos_site_id
_symmetry_equiv_pos_as_xyz
1 x,y,z
2 -x,1/2+y,1/2-z
3 -x,-y,-z
4 x,1/2-y,1/2+z
_cell_length_a                   8.8103(6)
_cell_length_b                   16.5690(7)
_cell_length_c                   12.5158(7)
_cell_angle_alpha                90
_cell_angle_beta                 107.188(3)
_cell_angle_gamma                90
_cell_volume                     1745.44
loop_
_atom_site_label
_atom_site_type_symbol
_atom_site_fract_x
_atom_site_fract_y
_atom_site_fract_z
U1 U 0.41633(2) 0.679516(11) 0.928769(13)
Cu1 Cu 0.08077(8) 0.95031(4) 0.70284(4)
O1 O 0.6189(4) 0.7072(2) 0.9766(2)
O2 O 0.2136(4) 0.6509(2) 0.8805(2)
O3 O 0.3376(4) 0.80271(19) 0.8304(2)
O4 O 0.2260(4) 0.8557(2) 0.6600(3)
O5 O 0.4500(4) 0.6827(2) 0.7439(2)
O6 O 0.3872(4) 0.7402(2) 0.5760(2)
O7 O 0.4678(4) 0.54568(19) 0.8705(2)
O8 O 0.5161(4) 0.4162(2) 0.9199(2)
O9 O -0.0899(4) 0.9286(2) 0.5635(3)
O10 O -0.1500(4) 0.9663(2) 0.3830(3)
N1 N -0.0105(5) 0.8791(2) 0.7942(3)
N2 N 0.2021(5) 0.9955(2) 0.8499(3)
C1 C 0.3080(6) 0.8068(3) 0.7253(4)
C2 C 0.3898(6) 0.7383(3) 0.6762(3)
C3 C 0.4949(6) 0.4893(3) 0.9387(3)
C4 C -0.0700(6) 0.9695(3) 0.4846(4)
C5 C -0.1109(6) 0.8167(3) 0.7634(4)
H1 H -0.1583 0.8074 0.6875
C6 C -0.1462(6) 0.7662(3) 0.8391(4)
H2 H -0.2143 0.7228 0.8138
C7 C -0.0826(6) 0.7788(3) 0.9515(4)
H3 H -0.1043 0.7436 1.0030
C8 C 0.0170(6) 0.8466(3) 0.9876(4)
C9 C 0.0547(6) 0.8925(3) 0.9055(4)
C10 C 0.1653(6) 0.9579(3) 0.9363(4)
C11 C 0.2289(6) 0.9800(3) 1.0491(4)
C12 C 0.1818(6) 0.9354(3) 1.1297(4)
H4 H 0.2205 0.9505 1.2045
C13 C 0.0819(6) 0.8712(3) 1.1024(4)
H5 H 0.0551 0.8429 1.1584
C14 C 0.3387(6) 1.0441(3) 1.0707(4)
H6 H 0.3860 1.0608 1.1440
C15 C 0.3757(6) 1.0818(3) 0.9853(4)
H7 H 0.4467 1.1248 0.9999
C16 C 0.3070(6) 1.0557(3) 0.8754(4)
H8 H 0.3355 1.0813 0.8180
O7B O 0.5322(4) 0.45432(19) 1.1295(2)
O8B O 0.4839(4) 0.5838(2) 1.0801(2)
C3B C 0.5051(6) 0.5107(3) 1.0613(3)
O9B O 0.0899(4) 1.0714(2) 0.4365(3)
O10B O 0.1500(4) 1.0337(2) 0.6170(3)
C4B C 0.0700(6) 1.0305(3) 0.5154(4)
U1B U -0.41633(2) 1.320484(11) 0.071231(13)
Cu1B Cu -0.08077(8) 1.04969(4) 0.29716(4)
O1B O -0.6189(4) 1.2928(2) 0.0234(2)
O2B O -0.2136(4) 1.3491(2) 0.1195(2)
O3B O -0.3376(4) 1.19729(19) 0.1696(2)
O4B O -0.2260(4) 1.1443(2) 0.3400(3)
O5B O -0.4500(4) 1.3173(2) 0.2561(2)
O6B O -0.3872(4) 1.2598(2) 0.4240(2)
N1B N 0.0105(5) 1.1209(2) 0.2058(3)
N2B N -0.2021(5) 1.0045(2) 0.1501(3)
C1B C -0.3080(6) 1.1932(3) 0.2747(4)
C2B C -0.3898(6) 1.2617(3) 0.3238(3)
C5B C 0.1109(6) 1.1833(3) 0.2366(4)
H1B H 0.1583 1.1926 0.3125
C6B C 0.1462(6) 1.2338(3) 0.1609(4)
H2B H 0.2143 1.2772 0.1862
C7B C 0.0826(6) 1.2212(3) 0.0485(4)
H3B H 0.1043 1.2564 -0.0030
C8B C -0.0170(6) 1.1534(3) 0.0124(4)
C9B C -0.0547(6) 1.1075(3) 0.0945(4)
C10B C -0.1653(6) 1.0421(3) 0.0637(4)
C11B C -0.2289(6) 1.0200(3) -0.0491(4)
C12B C -0.1818(6) 1.0646(3) -0.1297(4)
H4B H -0.2205 1.0495 -0.2045
C13B C -0.0819(6) 1.1288(3) -0.1024(4)
H5B H -0.0551 1.1571 -0.1584
C14B C -0.3387(6) 0.9559(3) -0.0707(4)
H6B H -0.3860 0.9392 -0.1440
C15B C -0.3757(6) 0.9182(3) 0.0147(4)
H7B H -0.4467 0.8752 0.0001
C16B C -0.3070(6) 0.9443(3) 0.1246(4)
H8B H -0.3355 0.9187 0.1820
U1A U -0.41633(2) 1.179516(11) 0.571231(13)
U1B_2 U 0.58367(2) 0.320484(11) 1.071231(13)
U1C U 0.41633(2) 0.820484(11) 0.428769(13)
O6A O -0.3872(4) 1.2402(2) -0.0760(2)
O6C O 0.3872(4) 0.7598(2) 1.0760(2)
O7B_2 O -0.4678(4) 1.45432(19) 0.1295(2)
O8_2 O -0.4839(4) 1.4162(2) -0.0801(2)
loop_
_geom_bond_atom_site_label_1
_geom_bond_atom_site_label_2
_geom_bond_site_symmetry_1
_geom_bond_site_symmetry_2
U1 O1 1_555 1_555
Cu1 O4 1_555 1_555
O2 U1 1_555 1_555
O3 U1 1_555 1_555
O4 C1 1_555 1_555
O5 U1 1_555 1_555
O6 C2 1_555 1_555
O7 U1 1_555 1_555
O8 C3 1_555 1_555
O9 Cu1 1_555 1_555
O10 C4 1_555 1_555
N1 Cu1 1_555 1_555
N2 Cu1 1_555 1_555
C1 O3 1_555 1_555
C2 O5 1_555 1_555
C3 O7 1_555 1_555
C4 O9 1_555 1_555
C5 N1 1_555 1_555
H1 C5 1_555 1_555
C6 C5 1_555 1_555
H2 C6 1_555 1_555
C7 C6 1_555 1_555
H3 C7 1_555 1_555
C8 C7 1_555 1_555
C9 N1 1_555 1_555
C10 N2 1_555 1_555
C11 C10 1_555 1_555
C12 C11 1_555 1_555
H4 C12 1_555 1_555
C13 C8 1_555 1_555
H5 C13 1_555 1_555
C14 C11 1_555 1_555
H6 C14 1_555 1_555
C15 C14 1_555 1_555
H7 C15 1_555 1_555
C16 N2 1_555 1_555
H8 C16 1_555 1_555
O7B C3B 1_555 1_555
O8B U1 1_555 1_555
C3B C3 1_555 1_555
O9B C4B 1_555 1_555
O10B Cu1 1_555 1_555
C4B C4 1_555 1_555
U1B O1B 1_555 1_555
Cu1B O10 1_555 1_555
O2B U1B 1_555 1_555
O3B U1B 1_555 1_555
O4B Cu1B 1_555 1_555
O5B U1B 1_555 1_555
O6B C2B 1_555 1_555
N1B Cu1B 1_555 1_555
N2B Cu1B 1_555 1_555
C1B O3B 1_555 1_555
C2B O5B 1_555 1_555
C5B N1B 1_555 1_555
H1B C5B 1_555 1_555
C6B C5B 1_555 1_555
H2B C6B 1_555 1_555
C7B C6B 1_555 1_555
H3B C7B 1_555 1_555
C8B C7B 1_555 1_555
C9B N1B 1_555 1_555
C10B N2B 1_555 1_555
C11B C10B 1_555 1_555
C12B C11B 1_555 1_555
H4B C12B 1_555 1_555
C13B C8B 1_555 1_555
H5B C13B 1_555 1_555
C14B C11B 1_555 1_555
H6B C14B 1_555 1_555
C15B C14B 1_555 1_555
H7B C15B 1_555 1_555
C16B N2B 1_555 1_555
H8B C16B 1_555 1_555
U1A O6B 1_555 1_555
U1B_2 O8 1_555 1_555
U1C O6 1_555 1_555
O6A U1B 1_555 1_555
O6C U1 1_555 1_555
O7B_2 U1B 1_555 1_555
O8_2 U1B 1_555 1_555
C1 C2 1_555 1_555
C8 C9 1_555 1_555
C9 C10 1_555 1_555
C12 C13 1_555 1_555
C15 C16 1_555 1_555
O7B U1B_2 1_555 1_555
O8B C3B 1_555 1_555
O9B Cu1B 1_555 1_555
O10B C4B 1_555 1_555
O4B C1B 1_555 1_555
C1B C2B 1_555 1_555
C8B C9B 1_555 1_555
C9B C10B 1_555 1_555
C12B C13B 1_555 1_555
C15B C16B 1_555 1_555

#END
