
#######################################################################
#
#                 Cambridge Crystallographic Data Centre
#                                CCDC 
#
#######################################################################
#
# If this CIF has been generated from an entry in the Cambridge 
# Structural Database, then it will include bibliographic, chemical, 
# crystal, experimental, refinement or atomic coordinate data resulting 
# from the CCDC's data processing and validation procedures.
#
#######################################################################

data_HIHMAO
_symmetry_cell_setting           triclinic
_symmetry_space_group_name_H-M   'P -1'
_symmetry_Int_Tables_number      2
_space_group_name_Hall           '-P 1'
loop_
_symmetry_equiv_pos_site_id
_symmetry_equiv_pos_as_xyz
1 x,y,z
2 -x,-y,-z
_cell_length_a                   9.9169(6)
_cell_length_b                   10.9294(6)
_cell_length_c                   11.1783(5)
_cell_angle_alpha                103.449(3)
_cell_angle_beta                 110.754(3)
_cell_angle_gamma                110.069(3)
_cell_volume                     973.805
loop_
_atom_site_label
_atom_site_type_symbol
_atom_site_fract_x
_atom_site_fract_y
_atom_site_fract_z
U1 U 0.265623(15) 0.181929(12) 0.435344(13)
Cu1 Cu 0.21630(5) -0.10800(4) 0.11947(4)
O1 O 0.1142(3) 0.1742(2) 0.2835(3)
O2 O 0.4225(3) 0.2013(3) 0.5890(3)
O3 O 0.0726(3) -0.0542(2) 0.3879(2)
O4 O -0.1093(3) -0.1842(2) 0.4406(3)
O5 O 0.4743(3) 0.3402(2) 0.3943(3)
O6 O 0.6527(3) 0.5656(2) 0.4541(3)
O7 O 0.3212(3) 0.0363(2) 0.3063(2)
H1 H 0.4227 0.0524 0.3333
O8 O 0.6360(3) 0.0950(3) 0.3804(3)
O9 O 0.5067(3) -0.0513(3) 0.1604(3)
O10 O 0.7601(3) 0.0059(3) 0.2898(3)
N1 N 0.2106(3) -0.2645(3) 0.1854(3)
N2 N 0.1870(3) -0.2542(3) -0.0515(3)
N3 N 0.2109(4) -0.4666(3) -0.1172(3)
N4 N 0.1988(4) -0.4929(3) 0.1215(3)
N5 N 0.2053(3) 0.0372(3) 0.0368(3)
N6 N 0.0456(3) 0.1451(3) -0.0538(3)
N7 N 0.6343(4) 0.0154(3) 0.2776(3)
C1 C -0.0099(4) -0.0687(3) 0.4514(4)
C2 C 0.5366(4) 0.4725(4) 0.4560(4)
C3 C 0.2138(4) -0.2654(4) 0.3060(4)
H2 H 0.2192 -0.1884 0.3682
C4 C 0.2088(4) -0.3823(4) 0.3375(4)
H3 H 0.2110 -0.3852 0.4206
C5 C 0.2005(4) -0.4932(4) 0.2422(4)
H4 H 0.1958 -0.5722 0.2619
C6 C 0.2048(4) -0.3759(4) 0.1006(4)
C7 C 0.2015(4) -0.3669(4) -0.0316(4)
C8 C 0.1808(4) -0.2419(4) -0.1710(4)
H5 H 0.1683 -0.1669 -0.1901
C9 C 0.1929(5) -0.3385(4) -0.2639(4)
H6 H 0.1905 -0.3294 -0.3452
C10 C 0.2088(5) -0.4513(4) -0.2334(4)
H7 H 0.2181 -0.5173 -0.2951
C11 C 0.3303(5) 0.1286(4) 0.0306(4)
H8 H 0.4281 0.1242 0.0613
C12 C 0.3168(5) 0.2301(4) -0.0210(4)
H9 H 0.4032 0.2929 -0.0267
C13 C 0.1704(4) 0.2343(4) -0.0636(4)
H10 H 0.1576 0.3003 -0.0999
C14 C 0.0689(4) 0.0498(3) -0.0045(4)
O3A O -0.0726(3) 0.0542(2) 0.6121(2)
O4A O 0.1093(3) 0.1842(2) 0.5594(3)
C1A C 0.0099(4) 0.0687(3) 0.5486(4)
O5A O 0.5257(3) 0.6598(2) 0.6057(3)
O6A O 0.3473(3) 0.4344(2) 0.5459(3)
C2A C 0.4634(4) 0.5275(4) 0.5440(4)
N5A N -0.2053(3) -0.0372(3) -0.0368(3)
N6A N -0.0456(3) -0.1451(3) 0.0538(3)
C11A C -0.3303(5) -0.1286(4) -0.0306(4)
H8A H -0.4281 -0.1242 -0.0613
C12A C -0.3168(5) -0.2301(4) 0.0210(4)
H9A H -0.4032 -0.2929 0.0267
C13A C -0.1704(4) -0.2343(4) 0.0636(4)
H10A H -0.1576 -0.3003 0.0999
C14A C -0.0689(4) -0.0498(3) 0.0045(4)
U1A U -0.265623(15) -0.181929(12) -0.435344(13)
Cu1A Cu -0.21630(5) 0.10800(4) -0.11947(4)
O1A O -0.1142(3) -0.1742(2) -0.2835(3)
O2A O -0.4225(3) -0.2013(3) -0.5890(3)
O7A O -0.3212(3) -0.0363(2) -0.3063(2)
H1A H -0.4227 -0.0524 -0.3333
O8A O -0.6360(3) -0.0950(3) -0.3804(3)
O9A O -0.5067(3) 0.0513(3) -0.1604(3)
O10A O -0.7601(3) -0.0059(3) -0.2898(3)
N1A N -0.2106(3) 0.2645(3) -0.1854(3)
N2A N -0.1870(3) 0.2542(3) 0.0515(3)
N3A N -0.2109(4) 0.4666(3) 0.1172(3)
N4A N -0.1988(4) 0.4929(3) -0.1215(3)
N7A N -0.6343(4) -0.0154(3) -0.2776(3)
C3A C -0.2138(4) 0.2654(4) -0.3060(4)
H2A H -0.2192 0.1884 -0.3682
C4A C -0.2088(4) 0.3823(4) -0.3375(4)
H3A H -0.2110 0.3852 -0.4206
C5A C -0.2005(4) 0.4932(4) -0.2422(4)
H4A H -0.1958 0.5722 -0.2619
C6A C -0.2048(4) 0.3759(4) -0.1006(4)
C7A C -0.2015(4) 0.3669(4) 0.0316(4)
C8A C -0.1808(4) 0.2419(4) 0.1710(4)
H5A H -0.1683 0.1669 0.1901
C9A C -0.1929(5) 0.3385(4) 0.2639(4)
H6A H -0.1905 0.3294 0.3452
C10A C -0.2088(5) 0.4513(4) 0.2334(4)
H7A H -0.2181 0.5173 0.2951
U1A_2 U -0.265623(15) -0.181929(12) 0.564656(13)
U1A_3 U 0.734377(15) 0.818071(12) 0.564656(13)
O3A_2 O -0.0726(3) 0.0542(2) -0.3879(2)
O4_2 O -0.1093(3) -0.1842(2) -0.5594(3)
O5A_2 O -0.4743(3) -0.3402(2) -0.3943(3)
O6_2 O -0.3473(3) -0.4344(2) -0.5459(3)
loop_
_geom_bond_atom_site_label_1
_geom_bond_atom_site_label_2
_geom_bond_site_symmetry_1
_geom_bond_site_symmetry_2
U1 O1 1_555 1_555
Cu1 O7 1_555 1_555
O2 U1 1_555 1_555
O3 U1 1_555 1_555
O4 C1 1_555 1_555
O5 U1 1_555 1_555
O6 C2 1_555 1_555
O7 U1 1_555 1_555
H1 O7 1_555 1_555
O8 N7 1_555 1_555
O9 Cu1 1_555 1_555
O10 N7 1_555 1_555
N1 Cu1 1_555 1_555
N2 Cu1 1_555 1_555
N3 C7 1_555 1_555
N4 C5 1_555 1_555
N5 Cu1 1_555 1_555
N6 C13 1_555 1_555
N7 O9 1_555 1_555
C1 O3 1_555 1_555
C2 O5 1_555 1_555
C3 N1 1_555 1_555
H2 C3 1_555 1_555
C4 C3 1_555 1_555
H3 C4 1_555 1_555
C5 C4 1_555 1_555
H4 C5 1_555 1_555
C6 N1 1_555 1_555
C7 N2 1_555 1_555
C8 N2 1_555 1_555
H5 C8 1_555 1_555
C9 C8 1_555 1_555
H6 C9 1_555 1_555
C10 N3 1_555 1_555
H7 C10 1_555 1_555
C11 N5 1_555 1_555
H8 C11 1_555 1_555
C12 C11 1_555 1_555
H9 C12 1_555 1_555
C13 C12 1_555 1_555
H10 C13 1_555 1_555
C14 N5 1_555 1_555
O3A C1A 1_555 1_555
O4A U1 1_555 1_555
C1A C1 1_555 1_555
O5A C2A 1_555 1_555
O6A U1 1_555 1_555
C2A C2 1_555 1_555
N5A C11A 1_555 1_555
N6A Cu1 1_555 1_555
C11A H8A 1_555 1_555
C12A C11A 1_555 1_555
H9A C12A 1_555 1_555
C13A N6A 1_555 1_555
H10A C13A 1_555 1_555
C14A C14 1_555 1_555
U1A O1A 1_555 1_555
Cu1A N6 1_555 1_555
O2A U1A 1_555 1_555
O7A U1A 1_555 1_555
H1A O7A 1_555 1_555
O8A N7A 1_555 1_555
O9A Cu1A 1_555 1_555
O10A N7A 1_555 1_555
N1A Cu1A 1_555 1_555
N2A Cu1A 1_555 1_555
N3A C7A 1_555 1_555
N4A C5A 1_555 1_555
N7A O9A 1_555 1_555
C3A N1A 1_555 1_555
H2A C3A 1_555 1_555
C4A C3A 1_555 1_555
H3A C4A 1_555 1_555
C5A C4A 1_555 1_555
H4A C5A 1_555 1_555
C6A N1A 1_555 1_555
C7A N2A 1_555 1_555
C8A N2A 1_555 1_555
H5A C8A 1_555 1_555
C9A C8A 1_555 1_555
H6A C9A 1_555 1_555
C10A N3A 1_555 1_555
H7A C10A 1_555 1_555
U1A_2 O4 1_555 1_555
U1A_3 O6 1_555 1_555
O3A_2 U1A 1_555 1_555
O4_2 U1A 1_555 1_555
O5A_2 U1A 1_555 1_555
O6_2 U1A 1_555 1_555
N4 C6 1_555 1_555
N6 C14 1_555 1_555
C6 C7 1_555 1_555
C9 C10 1_555 1_555
O3A U1A_2 1_555 1_555
O4A C1A 1_555 1_555
O5A U1A_3 1_555 1_555
O6A C2A 1_555 1_555
N5A C14A 1_555 1_555
N5A Cu1A 1_555 1_555
N6A C14A 1_555 1_555
C12A C13A 1_555 1_555
Cu1A O7A 1_555 1_555
N4A C6A 1_555 1_555
C6A C7A 1_555 1_555
C9A C10A 1_555 1_555

#END
