
#######################################################################
#
#                 Cambridge Crystallographic Data Centre
#                                CCDC 
#
#######################################################################
#
# If this CIF has been generated from an entry in the Cambridge 
# Structural Database, then it will include bibliographic, chemical, 
# crystal, experimental, refinement or atomic coordinate data resulting 
# from the CCDC's data processing and validation procedures.
#
#######################################################################

data_HIHMES
_symmetry_cell_setting           monoclinic
_symmetry_space_group_name_H-M   'P 21/c'
_symmetry_Int_Tables_number      14
_space_group_name_Hall           '-P 2ybc'
loop_
_symmetry_equiv_pos_site_id
_symmetry_equiv_pos_as_xyz
1 x,y,z
2 -x,1/2+y,1/2-z
3 -x,-y,-z
4 x,1/2-y,1/2+z
_cell_length_a                   15.6832(8)
_cell_length_b                   11.7371(3)
_cell_length_c                   9.2826(5)
_cell_angle_alpha                90
_cell_angle_beta                 98.833(2)
_cell_angle_gamma                90
_cell_volume                     1688.43
loop_
_atom_site_label
_atom_site_type_symbol
_atom_site_fract_x
_atom_site_fract_y
_atom_site_fract_z
U1 U 0.570891(8) 0.362482(12) 0.239457(13)
Cu1 Cu 0.81859(3) 0.51536(4) -0.07408(5)
O1 O 0.53819(16) 0.3597(2) 0.0490(3)
O2 O 0.60442(16) 0.3705(2) 0.4290(3)
O3 O 0.60389(15) 0.5642(2) 0.2264(2)
O4 O 0.55393(14) 0.7423(2) 0.2358(3)
O5 O 0.44944(15) 0.4826(3) 0.2613(3)
O6 O 0.39785(15) 0.6610(2) 0.2534(3)
O7 O 0.71711(15) 0.3303(3) 0.2059(3)
O8 O 0.73547(16) 0.4666(2) 0.0476(3)
O9 O 0.88164(16) 0.3772(2) -0.0041(3)
O10 O 0.85737(16) 0.2170(3) 0.1142(3)
O11 O 0.75792(15) 0.4401(2) -0.2762(3)
H1 H 0.7068 0.4312 -0.2994
H2 H 0.7802 0.3896 -0.3120
N1 N 0.78289(18) 0.6778(3) -0.0712(3)
N2 N 0.90823(18) 0.5809(3) -0.1786(3)
N3 N 0.94238(19) 0.7523(3) -0.2947(3)
N4 N 0.8282(2) 0.8631(3) -0.1303(3)
C1 C 0.5466(2) 0.6368(3) 0.2358(4)
C2 C 0.4565(2) 0.5882(4) 0.2512(4)
C3 C 0.7571(2) 0.3753(3) 0.1122(4)
C4 C 0.8390(2) 0.3134(4) 0.0723(4)
C5 C 0.7230(2) 0.7218(4) 0.0031(4)
H3 H 0.6870 0.6740 0.0464
C6 C 0.7157(2) 0.8388(4) 0.0140(4)
H4 H 0.6761 0.8711 0.0670
C7 C 0.7686(2) 0.9062(4) -0.0556(4)
H5 H 0.7629 0.9850 -0.0506
C8 C 0.8323(2) 0.7504(3) -0.1336(4)
C9 C 0.8991(2) 0.6925(4) -0.2075(4)
C10 C 0.9669(2) 0.5233(4) -0.2395(4)
H6 H 0.9746 0.4458 -0.2212
C11 C 1.0162(2) 0.5781(4) -0.3299(4)
H7 H 1.0580 0.5391 -0.3715
C12 C 1.0014(2) 0.6923(4) -0.3560(4)
H8 H 1.0331 0.7299 -0.4182
U1A U 0.429109(8) 0.862482(12) 0.260543(13)
O4A O 0.44607(14) 0.2423(2) 0.2642(3)
O6A O 0.60215(15) 0.1610(2) 0.2466(3)
loop_
_geom_bond_atom_site_label_1
_geom_bond_atom_site_label_2
_geom_bond_site_symmetry_1
_geom_bond_site_symmetry_2
U1 O1 1_555 1_555
Cu1 O8 1_555 1_555
O2 U1 1_555 1_555
O3 U1 1_555 1_555
O4 C1 1_555 1_555
O5 U1 1_555 1_555
O6 C2 1_555 1_555
O7 U1 1_555 1_555
O8 C3 1_555 1_555
O9 Cu1 1_555 1_555
O10 C4 1_555 1_555
O11 Cu1 1_555 1_555
H1 O11 1_555 1_555
H2 O11 1_555 1_555
N1 Cu1 1_555 1_555
N2 Cu1 1_555 1_555
N3 C9 1_555 1_555
N4 C7 1_555 1_555
C1 O3 1_555 1_555
C2 O5 1_555 1_555
C3 O7 1_555 1_555
C4 O9 1_555 1_555
C5 N1 1_555 1_555
H3 C5 1_555 1_555
C6 C5 1_555 1_555
H4 C6 1_555 1_555
C7 C6 1_555 1_555
H5 C7 1_555 1_555
C8 N1 1_555 1_555
C9 N2 1_555 1_555
C10 N2 1_555 1_555
H6 C10 1_555 1_555
C11 C10 1_555 1_555
H7 C11 1_555 1_555
C12 N3 1_555 1_555
H8 C12 1_555 1_555
U1A O4 1_555 1_555
O4A U1 1_555 1_555
O6A U1 1_555 1_555
O6 U1A 1_555 1_555
N4 C8 1_555 1_555
C1 C2 1_555 1_555
C3 C4 1_555 1_555
C8 C9 1_555 1_555
C11 C12 1_555 1_555

#END
