
#######################################################################
#
#                 Cambridge Crystallographic Data Centre
#                                CCDC 
#
#######################################################################
#
# If this CIF has been generated from an entry in the Cambridge 
# Structural Database, then it will include bibliographic, chemical, 
# crystal, experimental, refinement or atomic coordinate data resulting 
# from the CCDC's data processing and validation procedures.
#
#######################################################################

data_HIHNET
_symmetry_cell_setting           triclinic
_symmetry_space_group_name_H-M   'P -1'
_symmetry_Int_Tables_number      2
_space_group_name_Hall           '-P 1'
loop_
_symmetry_equiv_pos_site_id
_symmetry_equiv_pos_as_xyz
1 x,y,z
2 -x,-y,-z
_cell_length_a                   7.7715(9)
_cell_length_b                   9.4619(8)
_cell_length_c                   10.7591(8)
_cell_angle_alpha                114.628(7)
_cell_angle_beta                 90.843(6)
_cell_angle_gamma                102.125(8)
_cell_volume                     698.47
loop_
_atom_site_label
_atom_site_type_symbol
_atom_site_fract_x
_atom_site_fract_y
_atom_site_fract_z
Mn1 Mn 0.69162(5) 0.11900(4) 0.59242(4)
P1 P 0.44984(9) 0.26045(8) 0.43807(7)
O1 O 0.4747(2) 0.12286(19) 0.46989(17)
O2 O 0.6180(2) 0.3572(2) 0.42044(18)
O3 O 0.3482(3) 0.3597(2) 0.55174(18)
H1 H 0.3641 0.4501 0.5559
O4 O 0.3276(3) 0.1884(2) 0.29783(18)
H2 H 0.2451 0.1171 0.2959
O5 O 0.9078(2) 0.0288(2) 0.65310(16)
O6 O 1.1391(2) -0.0740(2) 0.57372(17)
N1 N 0.6009(3) 0.2007(2) 0.8058(2)
N2 N 0.8274(3) 0.3794(2) 0.7077(2)
C1 C 0.4883(4) 0.1135(3) 0.8539(3)
H3 H 0.4285 0.0104 0.7930
C2 C 0.4564(4) 0.1698(4) 0.9914(3)
H4 H 0.3781 0.1045 1.0210
C3 C 0.5404(4) 0.3208(4) 1.0818(3)
H5 H 0.5218 0.3587 1.1741
C4 C 0.6560(4) 0.4198(3) 1.0351(3)
C5 C 0.6822(3) 0.3527(3) 0.8951(2)
C6 C 0.8010(3) 0.4486(3) 0.8419(2)
C7 C 0.8842(4) 0.6080(3) 0.9304(3)
C8 C 0.9955(4) 0.6963(3) 0.8733(3)
H6 H 1.0517 0.8028 0.9279
C9 C 1.0218(4) 0.6271(3) 0.7384(3)
H7 H 1.0949 0.6855 0.6999
C10 C 0.9374(4) 0.4677(3) 0.6594(3)
H8 H 0.9587 0.4202 0.5679
C11 C 0.7466(4) 0.5812(4) 1.1227(3)
H9 H 0.7308 0.6248 1.2156
C12 C 0.8543(4) 0.6705(4) 1.0724(3)
H10 H 0.9108 0.7755 1.1312
C13 C 1.0147(4) -0.0137(3) 0.5657(2)
O5A O 1.0922(2) -0.0288(2) 0.34690(16)
O6A O 0.8609(2) 0.0740(2) 0.42628(17)
C13A C 0.9853(4) 0.0137(3) 0.4343(2)
Mn1A Mn 0.30838(5) -0.11900(4) 0.40758(4)
P1A P 0.55016(9) -0.26045(8) 0.56193(7)
O1A O 0.5253(2) -0.12286(19) 0.53011(17)
O2A O 0.3820(2) -0.3572(2) 0.57956(18)
O3A O 0.6518(3) -0.3597(2) 0.44826(18)
H1A H 0.6359 -0.4501 0.4441
O4A O 0.6724(3) -0.1884(2) 0.70217(18)
H2A H 0.7549 -0.1171 0.7041
N1A N 0.3991(3) -0.2007(2) 0.1942(2)
N2A N 0.1726(3) -0.3794(2) 0.2923(2)
C1A C 0.5117(4) -0.1135(3) 0.1461(3)
H3A H 0.5715 -0.0104 0.2070
C2A C 0.5436(4) -0.1698(4) 0.0086(3)
H4A H 0.6219 -0.1045 -0.0210
C3A C 0.4596(4) -0.3208(4) -0.0818(3)
H5A H 0.4782 -0.3587 -0.1741
C4A C 0.3440(4) -0.4198(3) -0.0351(3)
C5A C 0.3178(3) -0.3527(3) 0.1049(2)
C6A C 0.1990(3) -0.4486(3) 0.1581(2)
C7A C 0.1158(4) -0.6080(3) 0.0696(3)
C8A C 0.0045(4) -0.6963(3) 0.1267(3)
H6A H -0.0517 -0.8028 0.0721
C9A C -0.0218(4) -0.6271(3) 0.2616(3)
H7A H -0.0949 -0.6855 0.3001
C10A C 0.0626(4) -0.4677(3) 0.3406(3)
H8A H 0.0413 -0.4202 0.4321
C11A C 0.2534(4) -0.5812(4) -0.1227(3)
H9A H 0.2692 -0.6248 -0.2156
C12A C 0.1457(4) -0.6705(4) -0.0724(3)
H10A H 0.0892 -0.7755 -0.1312
Mn1A_2 Mn 1.30838(5) -0.11900(4) 0.40758(4)
O5A_2 O 0.0922(2) -0.0288(2) 0.34690(16)
O6_2 O 0.1391(2) -0.0740(2) 0.57372(17)
loop_
_geom_bond_atom_site_label_1
_geom_bond_atom_site_label_2
_geom_bond_site_symmetry_1
_geom_bond_site_symmetry_2
Mn1 O1 1_555 1_555
P1 O1 1_555 1_555
O1 Mn1A 1_555 1_555
O2 P1 1_555 1_555
O3 P1 1_555 1_555
H1 O3 1_555 1_555
O4 P1 1_555 1_555
H2 O4 1_555 1_555
O5 Mn1 1_555 1_555
O6 C13 1_555 1_555
N1 Mn1 1_555 1_555
N2 Mn1 1_555 1_555
C1 N1 1_555 1_555
H3 C1 1_555 1_555
C2 C1 1_555 1_555
H4 C2 1_555 1_555
C3 C2 1_555 1_555
H5 C3 1_555 1_555
C4 C3 1_555 1_555
C5 N1 1_555 1_555
C6 N2 1_555 1_555
C7 C6 1_555 1_555
C8 C7 1_555 1_555
H6 C8 1_555 1_555
C9 C8 1_555 1_555
H7 C9 1_555 1_555
C10 N2 1_555 1_555
H8 C10 1_555 1_555
C11 C4 1_555 1_555
H9 C11 1_555 1_555
C12 C7 1_555 1_555
H10 C12 1_555 1_555
C13 O5 1_555 1_555
O5A C13A 1_555 1_555
O6A Mn1 1_555 1_555
C13A C13 1_555 1_555
Mn1A O1A 1_555 1_555
P1A O1A 1_555 1_555
O1A Mn1 1_555 1_555
O2A P1A 1_555 1_555
O3A P1A 1_555 1_555
H1A O3A 1_555 1_555
O4A P1A 1_555 1_555
H2A O4A 1_555 1_555
N1A Mn1A 1_555 1_555
N2A Mn1A 1_555 1_555
C1A N1A 1_555 1_555
H3A C1A 1_555 1_555
C2A C1A 1_555 1_555
H4A C2A 1_555 1_555
C3A C2A 1_555 1_555
H5A C3A 1_555 1_555
C4A C3A 1_555 1_555
C5A N1A 1_555 1_555
C6A N2A 1_555 1_555
C7A C6A 1_555 1_555
C8A C7A 1_555 1_555
H6A C8A 1_555 1_555
C9A C8A 1_555 1_555
H7A C9A 1_555 1_555
C10A N2A 1_555 1_555
H8A C10A 1_555 1_555
C11A C4A 1_555 1_555
H9A C11A 1_555 1_555
C12A C7A 1_555 1_555
H10A C12A 1_555 1_555
Mn1A_2 O6 1_555 1_555
O5A_2 Mn1A 1_555 1_555
O6_2 Mn1A 1_555 1_555
C4 C5 1_555 1_555
C5 C6 1_555 1_555
C9 C10 1_555 1_555
C11 C12 1_555 1_555
O5A Mn1A_2 1_555 1_555
O6A C13A 1_555 1_555
C4A C5A 1_555 1_555
C5A C6A 1_555 1_555
C9A C10A 1_555 1_555
C11A C12A 1_555 1_555

#END
