
#######################################################################
#
#                 Cambridge Crystallographic Data Centre
#                                CCDC 
#
#######################################################################
#
# If this CIF has been generated from an entry in the Cambridge 
# Structural Database, then it will include bibliographic, chemical, 
# crystal, experimental, refinement or atomic coordinate data resulting 
# from the CCDC's data processing and validation procedures.
#
#######################################################################

data_HIHNOD
_symmetry_cell_setting           triclinic
_symmetry_space_group_name_H-M   'P -1'
_symmetry_Int_Tables_number      2
_space_group_name_Hall           '-P 1'
loop_
_symmetry_equiv_pos_site_id
_symmetry_equiv_pos_as_xyz
1 x,y,z
2 -x,-y,-z
_cell_length_a                   7.9992(6)
_cell_length_b                   9.3303(5)
_cell_length_c                   9.5016(4)
_cell_angle_alpha                95.094(4)
_cell_angle_beta                 97.795(5)
_cell_angle_gamma                108.464(6)
_cell_volume                     659.849
loop_
_atom_site_label
_atom_site_type_symbol
_atom_site_fract_x
_atom_site_fract_y
_atom_site_fract_z
Mn1 Mn 0.50403(5) 0.25876(4) 0.35304(3)
P1 P 0.20827(9) 0.41290(7) 0.46445(6)
O1 O 0.3406(2) 0.39205(19) 0.37525(17)
O2 O 0.2490(2) 0.57179(19) 0.54249(17)
O3 O 0.0230(2) 0.3643(2) 0.36315(18)
H1 H -0.0482 0.3904 0.4049
O4 O 0.1857(3) 0.3025(2) 0.58246(19)
H2 H 0.2461 0.2471 0.5722
O5 O 0.3943(3) 0.13519(19) 0.52602(16)
O6 O 0.3687(2) -0.07762(19) 0.62486(17)
N1 N 0.5569(3) 0.2981(2) 0.1318(2)
N2 N 0.2857(3) 0.0672(2) 0.1909(2)
C1 C 0.6817(4) 0.4204(3) 0.1048(3)
H3 H 0.7581 0.4887 0.1819
C2 C 0.7032(5) 0.4509(4) -0.0321(3)
H4 H 0.7919 0.5381 -0.0464
C3 C 0.5924(5) 0.3514(4) -0.1466(3)
H5 H 0.6044 0.3697 -0.2399
C4 C 0.4630(4) 0.2238(3) -0.1209(3)
H6 H 0.3858 0.1545 -0.1970
C5 C 0.4484(4) 0.1991(3) 0.0193(2)
C6 C 0.3089(4) 0.0643(3) 0.0526(2)
C7 C 0.2066(4) -0.0562(3) -0.0513(3)
H7 H 0.2271 -0.0571 -0.1454
C8 C 0.0747(4) -0.1747(3) -0.0148(3)
H8 H 0.0038 -0.2560 -0.0838
C9 C 0.0491(4) -0.1710(4) 0.1259(3)
H9 H -0.0396 -0.2495 0.1535
C10 C 0.1564(4) -0.0499(3) 0.2240(3)
H10 H 0.1389 -0.0486 0.3188
C11 C 0.4314(3) 0.0158(3) 0.5442(2)
O5A O 0.6057(3) -0.13519(19) 0.47398(16)
O6A O 0.6313(2) 0.07762(19) 0.37514(17)
C11A C 0.5686(3) -0.0158(3) 0.4558(2)
Mn1A Mn 0.49597(5) -0.25876(4) 0.64696(3)
P1A P 0.79173(9) -0.41290(7) 0.53555(6)
O1A O 0.6594(2) -0.39205(19) 0.62475(17)
O2A O 0.7510(2) -0.57179(19) 0.45751(17)
O3A O 0.9770(2) -0.3643(2) 0.63685(18)
H1A H 1.0482 -0.3904 0.5951
O4A O 0.8143(3) -0.3025(2) 0.41754(19)
H2A H 0.7539 -0.2471 0.4278
N1A N 0.4431(3) -0.2981(2) 0.8682(2)
N2A N 0.7143(3) -0.0672(2) 0.8091(2)
C1A C 0.3183(4) -0.4204(3) 0.8952(3)
H3A H 0.2419 -0.4887 0.8181
C2A C 0.2968(5) -0.4509(4) 1.0321(3)
H4A H 0.2081 -0.5381 1.0464
C3A C 0.4076(5) -0.3514(4) 1.1466(3)
H5A H 0.3956 -0.3697 1.2399
C4A C 0.5370(4) -0.2238(3) 1.1209(3)
H6A H 0.6142 -0.1545 1.1970
C5A C 0.5516(4) -0.1991(3) 0.9807(2)
C6A C 0.6911(4) -0.0643(3) 0.9474(2)
C7A C 0.7934(4) 0.0562(3) 1.0513(3)
H7A H 0.7729 0.0571 1.1454
C8A C 0.9253(4) 0.1747(3) 1.0148(3)
H8A H 0.9962 0.2560 1.0838
C9A C 0.9509(4) 0.1710(4) 0.8741(3)
H9A H 1.0396 0.2495 0.8465
C10A C 0.8436(4) 0.0499(3) 0.7760(3)
H10A H 0.8611 0.0486 0.6812
Mn1_2 Mn 0.50403(5) -0.74124(4) 0.35304(3)
Mn1A_2 Mn 0.49597(5) 0.74124(4) 0.64696(3)
O2_2 O 0.2490(2) -0.42821(19) 0.54249(17)
O2A_2 O 0.7510(2) 0.42821(19) 0.45751(17)
loop_
_geom_bond_atom_site_label_1
_geom_bond_atom_site_label_2
_geom_bond_site_symmetry_1
_geom_bond_site_symmetry_2
Mn1 O1 1_555 1_555
P1 O1 1_555 1_555
O2 P1 1_555 1_555
O3 P1 1_555 1_555
H1 O3 1_555 1_555
O4 P1 1_555 1_555
H2 O4 1_555 1_555
O5 Mn1 1_555 1_555
O6 C11 1_555 1_555
N1 Mn1 1_555 1_555
N2 Mn1 1_555 1_555
C1 N1 1_555 1_555
H3 C1 1_555 1_555
C2 C1 1_555 1_555
H4 C2 1_555 1_555
C3 C2 1_555 1_555
H5 C3 1_555 1_555
C4 C3 1_555 1_555
H6 C4 1_555 1_555
C5 N1 1_555 1_555
C6 N2 1_555 1_555
C7 C6 1_555 1_555
H7 C7 1_555 1_555
C8 C7 1_555 1_555
H8 C8 1_555 1_555
C9 C8 1_555 1_555
H9 C9 1_555 1_555
C10 N2 1_555 1_555
H10 C10 1_555 1_555
C11 O5 1_555 1_555
O5A C11A 1_555 1_555
O6A Mn1 1_555 1_555
C11A C11 1_555 1_555
Mn1A O6 1_555 1_555
P1A O1A 1_555 1_555
O1A Mn1A 1_555 1_555
O2A P1A 1_555 1_555
O3A P1A 1_555 1_555
H1A O3A 1_555 1_555
O4A P1A 1_555 1_555
H2A O4A 1_555 1_555
N1A Mn1A 1_555 1_555
N2A Mn1A 1_555 1_555
C1A N1A 1_555 1_555
H3A C1A 1_555 1_555
C2A C1A 1_555 1_555
H4A C2A 1_555 1_555
C3A C2A 1_555 1_555
H5A C3A 1_555 1_555
C4A C3A 1_555 1_555
H6A C4A 1_555 1_555
C5A N1A 1_555 1_555
C6A N2A 1_555 1_555
C7A C6A 1_555 1_555
H7A C7A 1_555 1_555
C8A C7A 1_555 1_555
H8A C8A 1_555 1_555
C9A C8A 1_555 1_555
H9A C9A 1_555 1_555
C10A N2A 1_555 1_555
H10A C10A 1_555 1_555
Mn1_2 O2A 1_555 1_555
Mn1A_2 O2 1_555 1_555
O2_2 Mn1A 1_555 1_555
O2A_2 Mn1 1_555 1_555
C4 C5 1_555 1_555
C5 C6 1_555 1_555
C9 C10 1_555 1_555
O5A Mn1A 1_555 1_555
O6A C11A 1_555 1_555
C4A C5A 1_555 1_555
C5A C6A 1_555 1_555
C9A C10A 1_555 1_555

#END
