
#######################################################################
#
#                 Cambridge Crystallographic Data Centre
#                                CCDC 
#
#######################################################################
#
# If this CIF has been generated from an entry in the Cambridge 
# Structural Database, then it will include bibliographic, chemical, 
# crystal, experimental, refinement or atomic coordinate data resulting 
# from the CCDC's data processing and validation procedures.
#
#######################################################################

data_HIHQOE01
_symmetry_cell_setting           tetragonal
_symmetry_space_group_name_H-M   'P 43 21 2'
_symmetry_Int_Tables_number      96
_space_group_name_Hall           'P 4nw 2abw'
loop_
_symmetry_equiv_pos_site_id
_symmetry_equiv_pos_as_xyz
1 x,y,z
2 -x,-y,1/2+z
3 1/2-y,1/2+x,3/4+z
4 1/2+y,1/2-x,1/4+z
5 1/2-x,1/2+y,3/4-z
6 1/2+x,1/2-y,1/4-z
7 y,x,-z
8 -y,-x,1/2-z
_cell_length_a                   8.8790(1)
_cell_length_b                   8.8790(1)
_cell_length_c                   24.9879(2)
_cell_angle_alpha                90
_cell_angle_beta                 90
_cell_angle_gamma                90
_cell_volume                     1969.96
loop_
_atom_site_label
_atom_site_type_symbol
_atom_site_fract_x
_atom_site_fract_y
_atom_site_fract_z
Cu1 Cu -0.35035(3) 0.31259(3) 0.190100(9)
O1 O -0.23431(17) 0.43123(18) 0.24300(5)
C1 C -0.0946(2) 0.4769(2) 0.22966(8)
C2 C 0.0286(3) 0.4526(3) 0.26315(9)
H1 H 0.0149 0.4051 0.2960
C3 C 0.1708(3) 0.4986(3) 0.24797(9)
H2 H 0.2520 0.4824 0.2708
C4 C 0.1943(3) 0.5689(3) 0.19893(10)
H3 H 0.2905 0.5986 0.1887
C5 C 0.0718(3) 0.5942(3) 0.16540(9)
H4 H 0.0868 0.6415 0.1326
C6 C -0.0730(2) 0.5498(2) 0.18003(7)
C7 C -0.2066(2) 0.5776(2) 0.14414(8)
H5 H -0.2796 0.6397 0.1628
H6 H -0.1742 0.6316 0.1124
N1 N -0.27888(19) 0.43249(18) 0.12798(6)
H7 H -0.204(3) 0.373(3) 0.1139(9)
C8 C -0.4020(2) 0.4482(2) 0.08770(7)
H8 H -0.4347 0.5536 0.0873
C9 C -0.5374(2) 0.3498(2) 0.10315(7)
O2 O -0.52475(17) 0.26742(17) 0.14543(5)
O3 O -0.65086(16) 0.35488(18) 0.07448(6)
C10 C -0.3443(3) 0.4079(3) 0.03166(8)
H9 H -0.2600 0.4710 0.0229
H10 H -0.4232 0.4232 0.0060
H11 H -0.3134 0.3043 0.0310
Cu1E Cu -0.85035(3) 0.18741(3) 0.059900(9)
Cu1G Cu -0.31259(3) 0.35035(3) 0.309900(9)
O1G O -0.43123(18) 0.23431(17) 0.25700(5)
O3E O -0.15086(16) 0.14512(18) 0.17552(6)
loop_
_geom_bond_atom_site_label_1
_geom_bond_atom_site_label_2
_geom_bond_site_symmetry_1
_geom_bond_site_symmetry_2
Cu1 O1 1_555 1_555
O1 C1 1_555 1_555
C1 C2 1_555 1_555
C2 H1 1_555 1_555
C3 C2 1_555 1_555
H2 C3 1_555 1_555
C4 C3 1_555 1_555
H3 C4 1_555 1_555
C5 C4 1_555 1_555
H4 C5 1_555 1_555
C6 C1 1_555 1_555
C7 C6 1_555 1_555
H5 C7 1_555 1_555
H6 C7 1_555 1_555
N1 Cu1 1_555 1_555
H7 N1 1_555 1_555
C8 N1 1_555 1_555
H8 C8 1_555 1_555
C9 C8 1_555 1_555
O2 Cu1 1_555 1_555
O3 C9 1_555 1_555
C10 C8 1_555 1_555
H9 C10 1_555 1_555
H10 C10 1_555 1_555
H11 C10 1_555 1_555
Cu1E O3 1_555 1_555
Cu1G O1 1_555 1_555
O1G Cu1 1_555 1_555
O3E Cu1 1_555 1_555
C5 C6 1_555 1_555
C7 N1 1_555 1_555
C9 O2 1_555 1_555
Cu1G O1G 1_555 1_555

#END
