
#######################################################################
#
#                 Cambridge Crystallographic Data Centre
#                                CCDC 
#
#######################################################################
#
# If this CIF has been generated from an entry in the Cambridge 
# Structural Database, then it will include bibliographic, chemical, 
# crystal, experimental, refinement or atomic coordinate data resulting 
# from the CCDC's data processing and validation procedures.
#
#######################################################################

data_HIHRAS01
_symmetry_cell_setting           monoclinic
_symmetry_space_group_name_H-M   'P 21/n'
_symmetry_Int_Tables_number      14
_space_group_name_Hall           '-P 2yn'
loop_
_symmetry_equiv_pos_site_id
_symmetry_equiv_pos_as_xyz
1 x,y,z
2 1/2-x,1/2+y,1/2-z
3 -x,-y,-z
4 1/2+x,1/2-y,1/2+z
_cell_length_a                   18.7884(4)
_cell_length_b                   16.5851(2)
_cell_length_c                   20.6845(4)
_cell_angle_alpha                90
_cell_angle_beta                 114.664(10)
_cell_angle_gamma                90
_cell_volume                     5857.43
loop_
_atom_site_label
_atom_site_type_symbol
_atom_site_fract_x
_atom_site_fract_y
_atom_site_fract_z
Fe1 Fe 0.48496(3) 0.11738(3) 0.73963(2)
S1 S 0.42976(10) 0.28723(11) 0.53723(8)
S2 S 0.60740(9) -0.06635(12) 0.93916(9)
N1 N 0.54209(16) 0.06221(18) 0.67621(16)
N2 N 0.91099(15) -0.30346(17) 0.70755(16)
N3 N 0.42769(16) 0.17734(19) 0.80083(16)
N4 N 0.12508(16) 0.54403(17) 0.80964(14)
N5 N 0.43674(19) 0.20325(19) 0.65588(18)
N6 N 0.53451(19) 0.0291(2) 0.81918(18)
C1 C 0.5835(2) 0.1046(2) 0.6480(2)
H1 H 0.5936 0.1587 0.6601
C2 C 0.6113(2) 0.0718(2) 0.6023(2)
H2 H 0.6401 0.1035 0.5848
C3 C 0.59674(18) -0.0081(2) 0.58209(17)
C4 C 0.55319(19) -0.0503(2) 0.6098(2)
H3 H 0.5403 -0.1038 0.5965
C5 C 0.5281(2) -0.0150(2) 0.6568(2)
H4 H 0.5003 -0.0461 0.6758
C6 C 0.6264(2) -0.0462(2) 0.5319(2)
H5 H 0.6317 -0.0047 0.5011
H6 H 0.5880 -0.0849 0.5021
C7 C 0.7061(2) -0.0895(3) 0.5703(2)
H7 H 0.7208 -0.1140 0.5351
H8 H 0.7458 -0.0499 0.5963
C8 C 0.7046(2) -0.1526(2) 0.6205(2)
H9 H 0.6592 -0.1868 0.5963
H10 H 0.6983 -0.1268 0.6599
C9 C 0.7769(2) -0.2050(2) 0.6498(2)
C10 C 0.7734(2) -0.2865(3) 0.6388(3)
H11 H 0.7256 -0.3109 0.6113
C11 C 0.8405(2) -0.3328(3) 0.6681(3)
H12 H 0.8358 -0.3880 0.6597
C12 C 0.9146(2) -0.2237(2) 0.7166(2)
H13 H 0.9634 -0.2006 0.7426
C13 C 0.8507(2) -0.1735(2) 0.6898(3)
H14 H 0.8569 -0.1184 0.6985
C14 C 0.4626(2) 0.1805(3) 0.8713(2)
H15 H 0.5120 0.1573 0.8940
C15 C 0.4304(3) 0.2157(3) 0.9125(2)
H16 H 0.4574 0.2158 0.9617
C16 C 0.3572(2) 0.2515(2) 0.8803(2)
C17 C 0.3207(2) 0.2460(3) 0.8083(2)
H17 H 0.2709 0.2677 0.7843
C18 C 0.3564(2) 0.2090(3) 0.7706(2)
H18 H 0.3295 0.2059 0.7214
C19 C 0.3237(3) 0.2951(3) 0.9259(3)
H19 H 0.2687 0.3065 0.8974
H20 H 0.3272 0.2601 0.9647
C20 C 0.3660(3) 0.3732(3) 0.9562(2)
H21 H 0.4214 0.3618 0.9820
H22 H 0.3472 0.3942 0.9901
C21 C 0.3558(2) 0.4377(2) 0.9009(2)
H23 H 0.3932 0.4806 0.9230
H24 H 0.3675 0.4146 0.8634
C22 C 0.2742(2) 0.4736(2) 0.86814(19)
C23 C 0.2256(2) 0.4657(3) 0.7983(2)
H25 H 0.2417 0.4361 0.7687
C24 C 0.1530(2) 0.5007(3) 0.7709(2)
H26 H 0.1214 0.4940 0.7227
C25 C 0.1719(2) 0.5508(2) 0.87748(18)
H27 H 0.1541 0.5804 0.9060
C26 C 0.2454(2) 0.5173(2) 0.90938(19)
H28 H 0.2755 0.5237 0.9579
C27 C 0.4336(2) 0.2374(2) 0.6064(2)
C28 C 0.5647(2) -0.0095(2) 0.8692(2)
Fe1A Fe 1.01504(3) -0.38262(3) 0.76037(2)
Fe1A_2 Fe 0.01504(3) 0.61738(3) 0.76037(2)
N2A N 0.58901(15) 0.19654(17) 0.79245(16)
N4A N 0.37492(16) 0.04403(17) 0.69036(14)
Fe2 Fe 0.53021(3) 0.63390(3) 0.76126(3)
S3 S 0.38072(7) 0.83426(8) 0.59087(9)
S4 S 0.56663(7) 0.42051(8) 0.92687(7)
N7 N 0.5920(2) 0.5809(2) 0.70002(18)
N8 N 0.8648(2) 0.2094(2) 0.68391(17)
N9 N 0.4686(2) 0.6872(2) 0.8222(2)
N10 N 0.07329(19) 1.0553(2) 0.79774(19)
N11 N 0.4820(3) 0.7239(2) 0.6828(2)
N12 N 0.5767(2) 0.5424(2) 0.8396(2)
C29 C 0.6624(2) 0.5455(3) 0.7308(2)
H29 H 0.6870 0.5440 0.7802
C30 C 0.7004(3) 0.5112(3) 0.6931(2)
H30 H 0.7491 0.4870 0.7171
C31 C 0.6663(3) 0.5128(2) 0.6207(2)
C32 C 0.5939(3) 0.5506(3) 0.5886(2)
H31 H 0.5688 0.5540 0.5393
C33 C 0.5597(3) 0.5825(3) 0.6291(2)
H32 H 0.5110 0.6068 0.6061
C34 C 0.7037(3) 0.4744(4) 0.5768(3)
H33 H 0.7111 0.5153 0.5465
H34 H 0.7550 0.4543 0.6082
C35 C 0.6567(4) 0.4066(5) 0.5312(3)
H35 H 0.6817 0.3886 0.5011
H36 H 0.6052 0.4268 0.5003
C36 C 0.6468(3) 0.3334(4) 0.5727(3)
H37 H 0.6263 0.3516 0.6062
H38 H 0.6091 0.2964 0.5398
C37 C 0.7227(2) 0.2898(3) 0.6124(3)
C38 C 0.7611(3) 0.2903(3) 0.6846(3)
H39 H 0.7394 0.3177 0.7113
C39 C 0.8313(3) 0.2510(3) 0.7188(2)
H40 H 0.8564 0.2536 0.7682
C40 C 0.8278(3) 0.2090(3) 0.6144(2)
H41 H 0.8504 0.1808 0.5888
C41 C 0.7582(2) 0.2473(3) 0.5772(2)
H42 H 0.7348 0.2445 0.5278
C42 C 0.4289(3) 0.6427(3) 0.8503(3)
H43 H 0.4269 0.5872 0.8432
C43 C 0.3913(3) 0.6741(3) 0.8888(3)
H44 H 0.3634 0.6405 0.9059
C44 C 0.3950(2) 0.7559(3) 0.9020(2)
C45 C 0.4360(3) 0.8021(3) 0.8733(3)
H45 H 0.4403 0.8575 0.8808
C46 C 0.4704(3) 0.7665(3) 0.8338(3)
H46 H 0.4963 0.7992 0.8140
C47 C 0.3565(3) 0.7939(3) 0.9461(3)
H47 H 0.3952 0.8234 0.9857
H48 H 0.3346 0.7521 0.9653
C48 C 0.2878(3) 0.8545(5) 0.8972(4)
H49 H 0.3095 0.8927 0.8748
H50 H 0.2480 0.8235 0.8597
C49 C 0.2530(4) 0.8964(5) 0.9334(4)
H51 H 0.2921 0.9260 0.9726
H52 H 0.2266 0.8596 0.9526
C50 C 0.1942(4) 0.9545(3) 0.8809(4)
C51 C 0.2059(3) 1.0365(3) 0.8733(3)
H53 H 0.2557 1.0586 0.8956
C52 C 0.1448(3) 1.0835(3) 0.8334(3)
H54 H 0.1534 1.1384 0.8309
C53 C 0.0630(3) 0.9765(3) 0.8013(3)
H55 H 0.0134 0.9551 0.7754
C54 C 0.1212(3) 0.9259(3) 0.8408(4)
H56 H 0.1112 0.8709 0.8405
C55 C 0.4392(2) 0.7698(2) 0.6439(2)
C56 C 0.5721(2) 0.4913(2) 0.8768(2)
Fe2A Fe 0.96979(3) 0.13390(3) 0.73874(3)
Fe2A_2 Fe -0.03021(3) 1.13390(3) 0.73874(3)
N8A N 0.6352(2) 0.7094(2) 0.81609(17)
N10A N 0.42671(19) 0.5553(2) 0.70226(19)
loop_
_geom_bond_atom_site_label_1
_geom_bond_atom_site_label_2
_geom_bond_site_symmetry_1
_geom_bond_site_symmetry_2
Fe1 N1 1_555 1_555
S1 C27 1_555 1_555
S2 C28 1_555 1_555
N1 C1 1_555 1_555
N2 C11 1_555 1_555
N3 Fe1 1_555 1_555
N4 C24 1_555 1_555
N5 Fe1 1_555 1_555
N6 Fe1 1_555 1_555
C1 H1 1_555 1_555
C2 C1 1_555 1_555
H2 C2 1_555 1_555
C3 C2 1_555 1_555
C4 C3 1_555 1_555
H3 C4 1_555 1_555
C5 N1 1_555 1_555
H4 C5 1_555 1_555
C6 C3 1_555 1_555
H5 C6 1_555 1_555
H6 C6 1_555 1_555
C7 C6 1_555 1_555
H7 C7 1_555 1_555
H8 C7 1_555 1_555
C8 C7 1_555 1_555
H9 C8 1_555 1_555
H10 C8 1_555 1_555
C9 C8 1_555 1_555
C10 C9 1_555 1_555
H11 C10 1_555 1_555
C11 C10 1_555 1_555
H12 C11 1_555 1_555
C12 N2 1_555 1_555
H13 C12 1_555 1_555
C13 C9 1_555 1_555
H14 C13 1_555 1_555
C14 N3 1_555 1_555
H15 C14 1_555 1_555
C15 C14 1_555 1_555
H16 C15 1_555 1_555
C16 C15 1_555 1_555
C17 C16 1_555 1_555
H17 C17 1_555 1_555
C18 N3 1_555 1_555
H18 C18 1_555 1_555
C19 C16 1_555 1_555
H19 C19 1_555 1_555
H20 C19 1_555 1_555
C20 C19 1_555 1_555
H21 C20 1_555 1_555
H22 C20 1_555 1_555
C21 C20 1_555 1_555
H23 C21 1_555 1_555
H24 C21 1_555 1_555
C22 C21 1_555 1_555
C23 C22 1_555 1_555
H25 C23 1_555 1_555
C24 C23 1_555 1_555
H26 C24 1_555 1_555
C25 N4 1_555 1_555
H27 C25 1_555 1_555
C26 C22 1_555 1_555
H28 C26 1_555 1_555
C27 N5 1_555 1_555
C28 N6 1_555 1_555
Fe2 N7 1_555 1_555
S3 C55 1_555 1_555
S4 C56 1_555 1_555
N7 C29 1_555 1_555
N8 C39 1_555 1_555
N9 Fe2 1_555 1_555
N10 C52 1_555 1_555
N11 Fe2 1_555 1_555
N12 Fe2 1_555 1_555
C29 H29 1_555 1_555
C30 C29 1_555 1_555
H30 C30 1_555 1_555
C31 C30 1_555 1_555
C32 C31 1_555 1_555
H31 C32 1_555 1_555
C33 N7 1_555 1_555
H32 C33 1_555 1_555
C34 C31 1_555 1_555
H33 C34 1_555 1_555
H34 C34 1_555 1_555
C35 C34 1_555 1_555
H35 C35 1_555 1_555
H36 C35 1_555 1_555
C36 C35 1_555 1_555
H37 C36 1_555 1_555
H38 C36 1_555 1_555
C37 C36 1_555 1_555
C38 C37 1_555 1_555
H39 C38 1_555 1_555
C39 C38 1_555 1_555
H40 C39 1_555 1_555
C40 N8 1_555 1_555
H41 C40 1_555 1_555
C41 C37 1_555 1_555
H42 C41 1_555 1_555
C42 N9 1_555 1_555
H43 C42 1_555 1_555
C43 C42 1_555 1_555
H44 C43 1_555 1_555
C44 C43 1_555 1_555
C45 C44 1_555 1_555
H45 C45 1_555 1_555
C46 N9 1_555 1_555
H46 C46 1_555 1_555
C47 C44 1_555 1_555
H47 C47 1_555 1_555
H48 C47 1_555 1_555
C48 C47 1_555 1_555
H49 C48 1_555 1_555
H50 C48 1_555 1_555
C49 C48 1_555 1_555
H51 C49 1_555 1_555
H52 C49 1_555 1_555
C50 C49 1_555 1_555
C51 C50 1_555 1_555
H53 C51 1_555 1_555
C52 C51 1_555 1_555
H54 C52 1_555 1_555
C53 N10 1_555 1_555
H55 C53 1_555 1_555
C54 C50 1_555 1_555
H56 C54 1_555 1_555
C55 N11 1_555 1_555
C56 N12 1_555 1_555
Fe1A N2 1_555 1_555
Fe1A_2 N4 1_555 1_555
N2A Fe1 1_555 1_555
N4A Fe1 1_555 1_555
Fe2A N8 1_555 1_555
Fe2A_2 N10 1_555 1_555
N8A Fe2 1_555 1_555
N10A Fe2 1_555 1_555
C4 C5 1_555 1_555
C12 C13 1_555 1_555
C17 C18 1_555 1_555
C25 C26 1_555 1_555
C32 C33 1_555 1_555
C40 C41 1_555 1_555
C45 C46 1_555 1_555
C53 C54 1_555 1_555

#END
