
#######################################################################
#
#                 Cambridge Crystallographic Data Centre
#                                CCDC 
#
#######################################################################
#
# If this CIF has been generated from an entry in the Cambridge 
# Structural Database, then it will include bibliographic, chemical, 
# crystal, experimental, refinement or atomic coordinate data resulting 
# from the CCDC's data processing and validation procedures.
#
#######################################################################

data_HIHVEB
_symmetry_cell_setting           orthorhombic
_symmetry_space_group_name_H-M   'P n a 21'
_symmetry_Int_Tables_number      33
_space_group_name_Hall           'P 2c -2n'
loop_
_symmetry_equiv_pos_site_id
_symmetry_equiv_pos_as_xyz
1 x,y,z
2 -x,-y,1/2+z
3 1/2-x,1/2+y,1/2+z
4 1/2+x,1/2-y,z
_cell_length_a                   28.0304(9)
_cell_length_b                   13.2373(5)
_cell_length_c                   7.9327(2)
_cell_angle_alpha                90
_cell_angle_beta                 90
_cell_angle_gamma                90
_cell_volume                     2943.4
loop_
_atom_site_label
_atom_site_type_symbol
_atom_site_fract_x
_atom_site_fract_y
_atom_site_fract_z
Cu1 Cu 0.08895(5) 0.51923(10) 0.62334(18)
S1 S 0.12988(9) 0.5397(2) 0.2277(3)
F1 F 0.2232(3) 0.5504(7) 0.2214(15)
F2 F 0.1963(3) 0.4178(7) 0.3476(9)
F3 F 0.1926(3) 0.4296(7) 0.0760(9)
O1 O -0.0430(2) 0.5034(5) 0.4011(9)
O2 O 0.1587(3) 0.2497(6) 0.6989(12)
O3 O 0.1077(2) 0.6394(5) 0.7548(9)
H1 H 0.1260 0.6219 0.8382
H2 H 0.1232 0.6825 0.6928
O4 O 0.1306(2) 0.5873(7) 0.3909(9)
O5 O 0.0978(3) 0.4537(6) 0.2231(11)
O6 O 0.1296(3) 0.6056(5) 0.0880(9)
N1 N 0.0610(3) 0.3903(6) 0.5686(9)
N2 N 0.1462(3) 0.4231(6) 0.6802(10)
N3 N 0.0256(3) 0.5700(6) 0.5242(10)
N4 N 0.2259(3) 0.3751(7) 0.7467(10)
H3 H 0.2169 0.3115 0.7413
N5 N -0.0351(3) 0.6898(7) 0.5609(11)
H4 H -0.0539 0.6425 0.6013
C1 C 0.0172(4) 0.3910(8) 0.5025(11)
C2 C -0.0066(4) 0.3008(8) 0.4708(12)
H5 H -0.0376 0.2999 0.4220
C3 C 0.0173(5) 0.2107(9) 0.5146(14)
H6 H 0.0015 0.1478 0.5016
C4 C 0.0622(4) 0.2127(8) 0.5743(15)
H7 H 0.0788 0.1518 0.5987
C5 C 0.0842(4) 0.3084(7) 0.6000(14)
C6 C 0.1340(4) 0.3245(8) 0.6647(13)
C7 C -0.0033(4) 0.4937(7) 0.4682(11)
C8 C 0.1925(3) 0.4479(9) 0.7138(13)
C9 C 0.0096(4) 0.6643(7) 0.5114(12)
C10 C 0.2076(4) 0.5479(9) 0.7195(15)
H8 H 0.1860 0.6009 0.6933
C11 C 0.0377(4) 0.7410(8) 0.4426(12)
H9 H 0.0691 0.7253 0.4052
C12 C 0.2553(4) 0.5704(9) 0.7644(17)
C13 C 0.2867(4) 0.4922(9) 0.8001(18)
H10 H 0.3185 0.5072 0.8335
C14 C 0.2726(4) 0.3951(10) 0.7878(16)
C15 C 0.2714(5) 0.6798(11) 0.766(3)
H11 H 0.2972 0.6890 0.6841
H12 H 0.2830 0.6974 0.8790
H13 H 0.2446 0.7237 0.7364
C16 C 0.3029(4) 0.3032(10) 0.8114(17)
H14 H 0.2869 0.2445 0.7615
H15 H 0.3079 0.2913 0.9320
H16 H 0.3338 0.3134 0.7560
C17 C 0.0215(5) 0.8394(9) 0.4273(14)
C18 C -0.0262(5) 0.8593(9) 0.4896(18)
H17 H -0.0385 0.9261 0.4856
C19 C -0.0520(5) 0.7879(10) 0.5501(17)
C20 C 0.0510(6) 0.9238(12) 0.348(2)
H18 H 0.0790 0.9375 0.4185
H19 H 0.0316 0.9851 0.3388
H20 H 0.0615 0.9030 0.2353
C21 C -0.1037(4) 0.7984(12) 0.610(2)
H21 H -0.1244 0.7559 0.5400
H22 H -0.1137 0.8690 0.6004
H23 H -0.1060 0.7768 0.7278
C22 C 0.1875(5) 0.4802(11) 0.2192(15)
Cu1A Cu -0.08895(5) 0.48077(10) 0.12334(18)
O1A O 0.0430(2) 0.4966(5) 0.9011(9)
S2 S 0.11018(10) 0.9095(2) 0.7907(4)
F4 F 0.1997(4) 0.8959(9) 0.8711(16)
F5 F 0.1847(4) 0.9956(12) 0.6666(13)
F6 F 0.1705(4) 1.0342(9) 0.9270(12)
O7 O 0.1176(3) 0.8301(6) 0.6711(10)
O8 O 0.0835(5) 0.9914(8) 0.746(2)
O9 O 0.0977(6) 0.8736(13) 0.9627(17)
C23 C 0.1699(5) 0.9584(18) 0.820(2)
loop_
_geom_bond_atom_site_label_1
_geom_bond_atom_site_label_2
_geom_bond_site_symmetry_1
_geom_bond_site_symmetry_2
Cu1 O3 1_555 1_555
S1 O4 1_555 1_555
F1 C22 1_555 1_555
F2 C22 1_555 1_555
F3 C22 1_555 1_555
O1 C7 1_555 1_555
O2 C6 1_555 1_555
O3 H1 1_555 1_555
H2 O3 1_555 1_555
O4 Cu1 1_555 1_555
O5 S1 1_555 1_555
O6 S1 1_555 1_555
N1 Cu1 1_555 1_555
N2 Cu1 1_555 1_555
N3 Cu1 1_555 1_555
N4 H3 1_555 1_555
N5 H4 1_555 1_555
C1 N1 1_555 1_555
C2 C1 1_555 1_555
H5 C2 1_555 1_555
C3 C2 1_555 1_555
H6 C3 1_555 1_555
C4 C3 1_555 1_555
H7 C4 1_555 1_555
C5 N1 1_555 1_555
C6 N2 1_555 1_555
C7 N3 1_555 1_555
C8 N2 1_555 1_555
C9 N3 1_555 1_555
C10 C8 1_555 1_555
H8 C10 1_555 1_555
C11 C9 1_555 1_555
H9 C11 1_555 1_555
C12 C10 1_555 1_555
C13 C12 1_555 1_555
H10 C13 1_555 1_555
C14 N4 1_555 1_555
C15 C12 1_555 1_555
H11 C15 1_555 1_555
H12 C15 1_555 1_555
H13 C15 1_555 1_555
C16 C14 1_555 1_555
H14 C16 1_555 1_555
H15 C16 1_555 1_555
H16 C16 1_555 1_555
C17 C11 1_555 1_555
C18 C17 1_555 1_555
H17 C18 1_555 1_555
C19 N5 1_555 1_555
C20 C17 1_555 1_555
H18 C20 1_555 1_555
H19 C20 1_555 1_555
H20 C20 1_555 1_555
C21 C19 1_555 1_555
H21 C21 1_555 1_555
H22 C21 1_555 1_555
H23 C21 1_555 1_555
C22 S1 1_555 1_555
S2 O7 1_555 1_555
F4 C23 1_555 1_555
F5 C23 1_555 1_555
F6 C23 1_555 1_555
O8 S2 1_555 1_555
O9 S2 1_555 1_555
C23 S2 1_555 1_555
Cu1A O1 1_555 1_555
O1A Cu1 1_555 1_555
N4 C8 1_555 1_555
N5 C9 1_555 1_555
C1 C7 1_555 1_555
C4 C5 1_555 1_555
C5 C6 1_555 1_555
C13 C14 1_555 1_555
C18 C19 1_555 1_555

#END
