
#######################################################################
#
#                 Cambridge Crystallographic Data Centre
#                                CCDC 
#
#######################################################################
#
# If this CIF has been generated from an entry in the Cambridge 
# Structural Database, then it will include bibliographic, chemical, 
# crystal, experimental, refinement or atomic coordinate data resulting 
# from the CCDC's data processing and validation procedures.
#
#######################################################################

data_HIHXIG
_symmetry_cell_setting           orthorhombic
_symmetry_space_group_name_H-M   'P n a 21'
_symmetry_Int_Tables_number      33
_space_group_name_Hall           'P 2c -2n'
loop_
_symmetry_equiv_pos_site_id
_symmetry_equiv_pos_as_xyz
1 x,y,z
2 -x,-y,1/2+z
3 1/2-x,1/2+y,1/2+z
4 1/2+x,1/2-y,z
_cell_length_a                   20.436(3)
_cell_length_b                   10.7839(10)
_cell_length_c                   14.252(2)
_cell_angle_alpha                90
_cell_angle_beta                 90
_cell_angle_gamma                90
_cell_volume                     3140.85
loop_
_atom_site_label
_atom_site_type_symbol
_atom_site_fract_x
_atom_site_fract_y
_atom_site_fract_z
Tb1 Tb 0.07081(1) -0.25075(3) 0.52872(2)
Mo1 Mo 0.15711(2) -0.75214(5) 0.48973(2)
O1 O 0.10302(17) -0.2574(4) 0.6891(2)
O2 O -0.01594(18) -0.1459(3) 0.5981(2)
O3 O 0.00290(19) -0.3671(3) 0.4266(3)
O4 O 0.12430(16) -0.2584(4) 0.3834(3)
N1 N -0.0001(2) -0.1099(4) 0.4164(3)
N2 N -0.0779(2) 0.0545(4) 0.3142(4)
N3 N -0.0925(2) 0.0011(4) 0.6146(4)
N4 N -0.0129(2) -0.4079(4) 0.6087(4)
N5 N -0.1013(2) -0.5874(4) 0.6718(3)
N6 N -0.0917(2) -0.4593(4) 0.3877(3)
N7 N 0.20209(18) -0.2290(3) 0.5302(4)
N8 N 0.33797(19) -0.2527(6) 0.5141(3)
N9 N 0.2065(2) -0.2919(4) 0.2837(3)
N10 N 0.1216(2) -0.4581(4) 0.5327(4)
N11 N 0.1063(2) -1.0321(4) 0.5467(4)
N12 N 0.1306(3) -0.7394(6) 0.7197(3)
N13 N -0.0028(3) -0.7200(5) 0.4643(6)
N14 N 0.1188(3) -0.8962(5) 0.2947(4)
N15 N 0.2769(3) -0.9460(5) 0.4417(4)
N16 N 0.2284(3) -0.5956(5) 0.3168(4)
N17 N 0.2925(3) -0.6439(5) 0.5846(4)
C1 C 0.0038(3) -0.1011(5) 0.3241(4)
C2 C -0.0360(3) -0.0196(5) 0.2741(4)
C3 C -0.0842(3) 0.0458(5) 0.4084(4)
C4 C -0.0456(3) -0.0388(5) 0.4601(4)
C5 C -0.0517(3) -0.0634(5) 0.5635(5)
C6 C -0.0207(3) -0.4331(5) 0.6991(4)
C7 C -0.0647(3) -0.5235(6) 0.7290(5)
C8 C -0.0957(3) -0.5592(5) 0.5801(4)
C9 C -0.0522(3) -0.4685(5) 0.5484(4)
C10 C -0.0456(3) -0.4288(5) 0.4491(4)
C11 C 0.2414(3) -0.2077(5) 0.6034(5)
C12 C 0.3088(3) -0.2225(5) 0.5950(4)
C13 C 0.2988(3) -0.2671(6) 0.4395(4)
C14 C 0.2319(2) -0.2554(6) 0.4479(4)
C15 C 0.1841(2) -0.2688(5) 0.3671(4)
C16 C 0.1348(3) -0.5594(6) 0.5184(5)
C17 C 0.1233(3) -0.9329(5) 0.5281(5)
C18 C 0.1367(3) -0.7467(7) 0.6403(4)
C19 C 0.0528(3) -0.7294(5) 0.4754(5)
C20 C 0.1306(3) -0.8432(6) 0.3608(4)
C21 C 0.2365(3) -0.8789(5) 0.4600(4)
C22 C 0.2024(3) -0.6514(5) 0.3754(4)
C23 C 0.2448(3) -0.6786(5) 0.5536(4)
H1 H 0.12550 -0.32500 0.71630
H2 H 0.11320 -0.18870 0.72770
H3 H 0.03450 -0.15110 0.29120
H4 H -0.03250 -0.01800 0.20760
H5 H -0.11490 0.09710 0.44010
H6 H -0.09540 -0.01290 0.67530
H7 H -0.11700 0.05850 0.58840
H8 H 0.00420 -0.38870 0.74430
H9 H -0.06830 -0.53930 0.79440
H10 H -0.12200 -0.60220 0.53580
H11 H -0.08840 -0.43550 0.32890
H12 H -0.12570 -0.50340 0.40590
H13 H 0.22320 -0.18220 0.66160
H14 H 0.33520 -0.21070 0.64910
H15 H 0.31740 -0.28580 0.38010
H16 H 0.17930 -0.30070 0.23630
H17 H 0.24900 -0.29870 0.27450
Tb1_2 Tb 0.07081(1) -1.25075(3) 0.52872(2)
N11_2 N 0.1063(2) -0.0321(4) 0.5467(4)
O5 O 0.3067(2) -0.9375(4) 0.2341(3)
H18 H 0.27970 -0.93830 0.28760
H19 H 0.30610 -1.01970 0.21080
loop_
_geom_bond_atom_site_label_1
_geom_bond_atom_site_label_2
_geom_bond_site_symmetry_1
_geom_bond_site_symmetry_2
Tb1 O1 1_555 1_555
Mo1 C16 1_555 1_555
O1 H1 1_555 1_555
O2 Tb1 1_555 1_555
O3 Tb1 1_555 1_555
O4 Tb1 1_555 1_555
N1 Tb1 1_555 1_555
N2 C2 1_555 1_555
N3 C5 1_555 1_555
N4 Tb1 1_555 1_555
N5 C7 1_555 1_555
N6 C10 1_555 1_555
N7 Tb1 1_555 1_555
N8 C12 1_555 1_555
N9 C15 1_555 1_555
N10 Tb1 1_555 1_555
N11 C17 1_555 1_555
N12 C18 1_555 1_555
N13 C19 1_555 1_555
N14 C20 1_555 1_555
N15 C21 1_555 1_555
N16 C22 1_555 1_555
N17 C23 1_555 1_555
C1 N1 1_555 1_555
C2 C1 1_555 1_555
C3 N2 1_555 1_555
C4 N1 1_555 1_555
C5 O2 1_555 1_555
C6 N4 1_555 1_555
C7 C6 1_555 1_555
C8 N5 1_555 1_555
C9 N4 1_555 1_555
C10 O3 1_555 1_555
C11 N7 1_555 1_555
C12 C11 1_555 1_555
C13 N8 1_555 1_555
C14 N7 1_555 1_555
C15 O4 1_555 1_555
C16 N10 1_555 1_555
C17 Mo1 1_555 1_555
C18 Mo1 1_555 1_555
C19 Mo1 1_555 1_555
C20 Mo1 1_555 1_555
C21 Mo1 1_555 1_555
C22 Mo1 1_555 1_555
C23 Mo1 1_555 1_555
O5 H18 1_555 1_555
H2 O1 1_555 1_555
H3 C1 1_555 1_555
H4 C2 1_555 1_555
H5 C3 1_555 1_555
H6 N3 1_555 1_555
H7 N3 1_555 1_555
H8 C6 1_555 1_555
H9 C7 1_555 1_555
H10 C8 1_555 1_555
H11 N6 1_555 1_555
H12 N6 1_555 1_555
H13 C11 1_555 1_555
H14 C12 1_555 1_555
H15 C13 1_555 1_555
H16 N9 1_555 1_555
H17 N9 1_555 1_555
H19 O5 1_555 1_555
Tb1_2 N11 1_555 1_555
N11_2 Tb1 1_555 1_555
C3 C4 1_555 1_555
C4 C5 1_555 1_555
C8 C9 1_555 1_555
C9 C10 1_555 1_555
C13 C14 1_555 1_555
C14 C15 1_555 1_555

#END
