
#######################################################################
#
#                 Cambridge Crystallographic Data Centre
#                                CCDC 
#
#######################################################################
#
# If this CIF has been generated from an entry in the Cambridge 
# Structural Database, then it will include bibliographic, chemical, 
# crystal, experimental, refinement or atomic coordinate data resulting 
# from the CCDC's data processing and validation procedures.
#
#######################################################################

data_HIJBIN
_symmetry_cell_setting           monoclinic
_symmetry_space_group_name_H-M   'C 2/c'
_symmetry_Int_Tables_number      15
_space_group_name_Hall           '-C 2yn'
loop_
_symmetry_equiv_pos_site_id
_symmetry_equiv_pos_as_xyz
1 x,y,z
2 -x,y,1/2-z
3 1/2+x,1/2+y,z
4 1/2-x,1/2+y,1/2-z
5 -x,-y,-z
6 x,-y,1/2+z
7 1/2-x,1/2-y,-z
8 1/2+x,1/2-y,1/2+z
_cell_length_a                   11.2325(11)
_cell_length_b                   6.7023(4)
_cell_length_c                   11.8372(19)
_cell_angle_alpha                90
_cell_angle_beta                 104.753(14)
_cell_angle_gamma                90
_cell_volume                     861.768
loop_
_atom_site_label
_atom_site_type_symbol
_atom_site_fract_x
_atom_site_fract_y
_atom_site_fract_z
Br1 Br 0.50000 0.86826(7) 0.25000
Br2 Br 0.38852(3) 1.36476(5) 0.36709(3)
Al1 Al 0.50000 1.2129(2) 0.25000
N1 N 0.6550(2) 1.2319(4) 0.3976(2)
C1 C 0.6724(3) 1.0972(5) 0.4841(3)
C2 C 0.7330(3) 1.3864(5) 0.4148(3)
H1 H 0.61800 0.98650 0.47580
H2 H 0.72350 1.48690 0.35660
N1F N 0.8450(2) 1.2681(4) 0.6024(2)
C1F C 0.8276(3) 1.4028(5) 0.5159(3)
C2F C 0.7670(3) 1.1136(5) 0.5852(3)
H1F H 0.88200 1.51350 0.52420
H2F H 0.77650 1.01310 0.64340
Br2A Br 0.61148(3) 1.36476(5) 0.13291(3)
Al1F Al 1.00000 1.2871(2) 0.75000
N1A N 0.3450(2) 1.2319(4) 0.1024(2)
loop_
_geom_bond_atom_site_label_1
_geom_bond_atom_site_label_2
_geom_bond_site_symmetry_1
_geom_bond_site_symmetry_2
Br1 Al1 1_555 1_555
Br2 Al1 1_555 1_555
Al1 N1 1_555 1_555
N1 C1 1_555 1_555
C1 H1 1_555 1_555
C2 N1 1_555 1_555
H2 C2 1_555 1_555
N1F C1F 1_555 1_555
C1F C2 1_555 1_555
C2F C1 1_555 1_555
H1F C1F 1_555 1_555
H2F C2F 1_555 1_555
Br2A Al1 1_555 1_555
Al1F N1F 1_555 1_555
N1A Al1 1_555 1_555
N1F C2F 1_555 1_555

#END
