
#######################################################################
#
#                 Cambridge Crystallographic Data Centre
#                                CCDC 
#
#######################################################################
#
# If this CIF has been generated from an entry in the Cambridge 
# Structural Database, then it will include bibliographic, chemical, 
# crystal, experimental, refinement or atomic coordinate data resulting 
# from the CCDC's data processing and validation procedures.
#
#######################################################################

data_HIJHOY
_symmetry_cell_setting           triclinic
_symmetry_space_group_name_H-M   'P -1'
_symmetry_Int_Tables_number      2
_space_group_name_Hall           '-P 1'
loop_
_symmetry_equiv_pos_site_id
_symmetry_equiv_pos_as_xyz
1 x,y,z
2 -x,-y,-z
_cell_length_a                   14.164(3)
_cell_length_b                   16.024(3)
_cell_length_c                   24.529(5)
_cell_angle_alpha                91.41(3)
_cell_angle_beta                 105.26(3)
_cell_angle_gamma                114.04(3)
_cell_volume                     4849.83
loop_
_atom_site_label
_atom_site_type_symbol
_atom_site_fract_x
_atom_site_fract_y
_atom_site_fract_z
V1 V 0.90056(7) 0.85084(5) 0.31630(3)
V2 V 1.12687(8) 0.82387(8) 0.40482(4)
V3 V 0.99084(8) 0.60839(6) 0.11705(4)
V4 V 1.12017(7) 0.59872(6) 0.23319(4)
V5 V 0.76648(8) 0.62659(6) 0.12100(4)
V6 V 1.18309(8) 0.99794(6) 0.33106(4)
V7 V 1.13735(8) 0.65671(6) 0.34772(4)
V8 V 0.90072(7) 0.67255(6) 0.35055(3)
V9 V 0.74805(7) 0.62152(6) 0.23591(3)
V10 V 1.28519(7) 0.82801(6) 0.31331(3)
V11 V 0.88875(7) 0.52578(6) 0.23276(4)
V12 V 1.18558(7) 0.78930(6) 0.15891(3)
V13 V 1.24112(7) 0.95380(6) 0.23283(4)
V14 V 0.99399(7) 0.83288(6) 0.11392(3)
V15 V 0.99988(7) 0.96856(6) 0.23561(3)
V16 V 0.81197(7) 0.81230(6) 0.16186(3)
Cu1 Cu 0.86759(9) 0.30122(7) 0.26709(3)
Cu2 Cu 0.45641(9) 0.42463(8) 0.03570(4)
Cu3 Cu 0.86776(9) 1.05922(8) 0.35197(4)
Cu4 Cu 1.31655(7) 0.57466(5) 0.45538(3)
Cu5 Cu 1.00336(8) 0.92421(6) -0.02448(3)
Cu6 Cu 0.57234(9) 0.47566(7) 0.31081(4)
C1 C 0.9357(6) 0.3217(5) 0.1681(3)
H1 H 0.9547 0.3847 0.1740
C2 C 0.8761(7) 0.1803(5) 0.1783(3)
H2 H 0.8461 0.1257 0.1928
C3 C 0.9108(6) 0.1885(5) 0.1310(3)
H3 H 0.9086 0.1412 0.1071
C4 C 0.9906(7) 0.3225(5) 0.0800(4)
H4 H 1.0579 0.3183 0.0824
H5 H 1.0058 0.3875 0.0847
C5 C 0.9117(8) 0.2769(7) 0.0227(3)
H6 H 0.9107 0.2169 0.0144
H7 H 0.9368 0.3137 -0.0058
C6 C 0.7944(9) 0.2632(7) 0.0168(4)
H8 H 0.7449 0.2213 -0.0179
H9 H 0.7727 0.2365 0.0491
C7 C 0.7903(10) 0.3468(7) 0.0150(5)
H10 H 0.8107 0.3729 -0.0176
H11 H 0.8408 0.3891 0.0494
C8 C 0.5813(9) 0.2728(6) -0.0305(4)
H12 H 0.5776 0.2261 -0.0554
C9 C 0.4985(8) 0.2934(6) -0.0281(3)
H13 H 0.4283 0.2644 -0.0529
C10 C 0.6354(7) 0.3829(6) 0.0379(4)
H14 H 0.6804 0.4275 0.0697
C11 C 0.8539(7) 0.3955(5) 0.3627(3)
H15 H 0.8644 0.4488 0.3460
C12 C 0.8334(9) 0.2594(6) 0.3777(4)
H16 H 0.8259 0.1991 0.3722
C13 C 0.8282(9) 0.2995(5) 0.4239(3)
H17 H 0.8189 0.2736 0.4567
C14 C 0.8510(8) 0.4577(6) 0.4564(3)
H18 H 0.8478 0.5093 0.4374
H19 H 0.7904 0.4339 0.4719
C15 C 0.9499(10) 0.4908(11) 0.5026(6)
H20 H 0.9569 0.5474 0.5220
H21 H 0.9376 0.4463 0.5291
C16 C 0.4329(6) 0.5215(5) 0.1242(3)
H22 H 0.5040 0.5358 0.1452
C17 C 0.2832(7) 0.4721(7) 0.0577(4)
H23 H 0.2303 0.4448 0.0227
C18 C 0.2718(6) 0.5151(6) 0.1011(4)
H24 H 0.2103 0.5220 0.1023
C19 C 0.3974(7) 0.6021(6) 0.1992(4)
H25 H 0.4604 0.5982 0.2244
H26 H 0.3383 0.5745 0.2156
C20 C 0.4223(8) 0.7048(8) 0.1981(5)
H27 H 0.3623 0.7095 0.1703
H28 H 0.4284 0.7322 0.2353
C21 C 0.5170(8) 0.7546(7) 0.1844(5)
H29 H 0.5152 0.7222 0.1499
H30 H 0.5781 0.7571 0.2150
C22 C 0.5348(6) 0.8544(6) 0.1750(4)
H31 H 0.5742 0.8721 0.1471
H32 H 0.4645 0.8541 0.1585
C23 C 0.5540(7) 0.9645(7) 0.2572(4)
H33 H 0.4820 0.9541 0.2502
C24 C 0.6378(9) 1.0221(7) 0.3009(4)
H34 H 0.6332 1.0578 0.3296
C25 C 0.7000(5) 0.9601(5) 0.2501(3)
H35 H 0.7460 0.9439 0.2359
C26 C 1.0525(6) 1.0631(6) 0.4348(3)
H36 H 1.0541 1.0161 0.4126
C27 C 1.0154(9) 1.1709(8) 0.4620(5)
H37 H 0.9838 1.2117 0.4615
C28 C 1.0887(9) 1.1672(9) 0.5051(5)
H38 H 1.1197 1.2050 0.5403
C29 C 1.1898(7) 1.0645(10) 0.5219(4)
H39 H 1.1865 1.0653 0.5609
H40 H 1.1703 1.0014 0.5065
C30 C 1.3011(9) 1.1235(17) 0.5219(5)
H41 H 1.3241 1.0823 0.5053
H42 H 1.2934 1.1639 0.4940
C31 C 1.3751(11) 1.1702(10) 0.5591(7)
H43 H 1.3993 1.2300 0.5462
H44 H 1.4293 1.1484 0.5578
C32 C 1.2025(5) 0.4124(4) 0.3715(3)
H45 H 1.1673 0.4411 0.3469
C33 C 1.2564(7) 0.3120(5) 0.4046(3)
H46 H 1.2651 0.2577 0.4079
C34 C 1.3019(7) 0.3842(5) 0.4439(3)
H47 H 1.3501 0.3909 0.4796
C35 C 1.1323(7) 0.2681(6) 0.3039(3)
H48 H 1.0572 0.2577 0.2954
H49 H 1.1350 0.2089 0.3074
C36 C 1.3710(5) 0.7629(4) 0.4973(3)
H50 H 1.3144 0.7646 0.4684
C37 C 1.4819(6) 0.7183(5) 0.5484(3)
H51 H 1.5172 0.6818 0.5620
C38 C 1.5102(6) 0.8036(6) 0.5721(3)
H52 H 1.5677 0.8370 0.6045
C39 C 1.4342(7) 0.9223(5) 0.5507(3)
H53 H 1.4473 0.9372 0.5914
H54 H 1.3621 0.9164 0.5311
C40 C 1.5172(7) 1.0013(5) 0.5310(3)
H55 H 1.5278 1.0598 0.5498
H56 H 1.5861 0.9973 0.5423
C41 C 1.2145(7) 1.0409(6) -0.0337(3)
H57 H 1.1867 1.0615 -0.0665
C42 C 1.3169(8) 1.0565(6) -0.0117(4)
H58 H 1.3735 1.0893 -0.0263
C43 C 1.2249(6) 0.9778(5) 0.0413(3)
H59 H 1.2065 0.9464 0.0711
C44 C 1.4189(7) 1.0052(6) 0.0720(5)
H60 H 1.4384 0.9687 0.0489
H61 H 1.3995 0.9717 0.1027
C45 C 1.5178(8) 1.0976(7) 0.0979(5)
H62 H 1.5807 1.0867 0.1157
H63 H 1.5331 1.1352 0.0681
C46 C 1.4956(8) 1.1446(7) 0.1395(4)
H64 H 1.4720 1.1043 0.1668
H65 H 1.4381 1.1619 0.1210
C47 C 0.8525(6) 0.8605(4) -0.1374(3)
H66 H 0.8982 0.9068 -0.1529
C48 C 0.7853(7) 0.7794(6) -0.0785(4)
H67 H 0.7749 0.7583 -0.0446
C49 C 0.7164(7) 0.7390(6) -0.1307(4)
H68 H 0.6518 0.6856 -0.1397
C50 C 1.2842(6) 0.2242(5) 0.2306(3)
H69 H 1.2415 0.1715 0.2460
H70 H 1.3576 0.2296 0.2407
C51 C 1.2855(7) 0.3102(6) 0.2576(3)
H71 H 1.3277 0.3231 0.2975
H72 H 1.3224 0.3616 0.2394
C52 C 1.1738(7) 0.3064(6) 0.2542(3)
H73 H 1.1219 0.2682 0.2187
H74 H 1.1779 0.3682 0.2531
C53 C 0.6068(6) 0.6553(6) 0.3525(3)
H75 H 0.6792 0.6795 0.3534
C54 C 0.4520(6) 0.6467(6) 0.3560(3)
H76 H 0.3974 0.6623 0.3598
C55 C 0.4436(7) 0.5618(6) 0.3429(4)
H77 H 0.3805 0.5075 0.3361
C56 C 1.3936(6) 1.1932(6) 0.6219(4)
C57 C 0.5954(6) 0.3559(5) 0.2331(3)
H78 H 0.6067 0.3991 0.2080
C58 C 0.5706(8) 0.2919(6) 0.3055(4)
H79 H 0.5611 0.2811 0.3412
C59 C 0.5733(8) 0.2319(6) 0.2678(5)
H80 H 0.5656 0.1723 0.2724
C60 C 1.6017(9) 1.2339(8) 0.1714(5)
H81 H 1.6627 1.2182 0.1826
H82 H 1.6165 1.2795 0.1457
O1 O 0.8301(3) 0.4161(2) 0.23044(18)
O2 O 0.6495(3) 0.5773(3) 0.07413(17)
O3 O 0.8414(3) 0.8927(3) 0.34882(15)
O4 O 1.1961(3) 0.6087(3) 0.39300(16)
O5 O 0.9863(3) 0.8719(3) 0.05407(15)
O6 O 0.6266(3) 0.5587(3) 0.23678(16)
O7 O 1.2479(3) 1.1057(3) 0.35553(18)
O8 O 1.2655(3) 0.8089(3) 0.12058(16)
O9 O 1.0295(3) 0.6668(3) 0.37527(15)
O10 O 1.4100(3) 0.8567(3) 0.34424(17)
O11 O 0.8520(3) 0.5855(3) 0.09149(15)
O12 O 0.7225(3) 0.8441(3) 0.12732(15)
O13 O 0.9849(3) 1.0616(3) 0.23058(17)
O14 O 1.1839(3) 0.9411(3) 0.39856(15)
O15 O 0.8378(4) 0.6350(3) 0.39661(17)
O16 O 1.1656(3) 0.5235(3) 0.23121(18)
O17 O 1.0104(4) 0.5507(3) 0.07054(17)
O18 O 1.1502(3) 0.6686(2) 0.17509(14)
O19 O 1.3442(3) 1.0376(3) 0.22491(18)
O20 O 1.2712(3) 0.8443(2) 0.23307(14)
O21 O 1.1598(3) 0.8207(3) 0.47245(15)
O22 O 1.2112(3) 0.7892(2) 0.37172(14)
O23 O 1.0316(3) 0.9551(2) 0.31432(13)
O24 O 0.8464(3) 0.7477(2) 0.10957(13)
O25 O 0.9756(3) 0.5456(2) 0.18025(14)
O26 O 0.7387(3) 0.6999(2) 0.18186(14)
O27 O 1.0345(3) 0.5659(2) 0.28517(14)
O28 O 1.2670(3) 0.9427(2) 0.31215(14)
O29 O 0.7817(3) 0.5584(2) 0.18211(14)
O30 O 1.1442(3) 1.0009(2) 0.24402(14)
O31 O 1.0394(3) 0.7336(2) 0.10844(14)
O32 O 1.1472(3) 0.8914(2) 0.15902(14)
O33 O 0.8426(3) 0.5782(2) 0.28868(14)
O34 O 0.9836(3) 0.8037(2) 0.37387(13)
O35 O 1.2177(3) 0.6930(2) 0.29190(14)
O36 O 0.8117(3) 0.7193(2) 0.29795(13)
O37 O 0.8621(3) 0.8730(2) 0.23730(13)
O38 O 0.9531(3) 0.9056(2) 0.16134(13)
N1 N 0.8928(5) 0.2652(4) 0.2005(2)
N2 N 0.9496(4) 0.2804(4) 0.1256(2)
N3 N 0.5329(5) 0.3629(4) 0.0158(2)
N4 N 0.6696(6) 0.3328(5) 0.0101(3)
N5 N 0.8517(6) 0.3207(5) 0.3388(2)
N6 N 0.8391(6) 0.3859(4) 0.4144(2)
N7 N 0.3862(5) 0.4743(5) 0.0726(3)
N8 N 0.3679(5) 0.5466(4) 0.1432(3)
N9 N 0.7336(5) 1.0199(4) 0.2963(3)
N10 N 0.5928(4) 0.9248(4) 0.2254(3)
N11 N 0.9910(6) 1.1043(5) 0.4166(3)
N12 N 1.1129(5) 1.0950(6) 0.4884(3)
N13 N 1.2660(5) 0.4500(4) 0.4231(2)
N14 N 1.1941(4) 0.3289(4) 0.3581(2)
N15 N 1.3941(4) 0.6917(4) 0.5014(2)
N16 N 1.4382(4) 0.8331(4) 0.5395(2)
N17 N 0.8727(5) 0.8555(4) -0.0819(2)
N18 N 1.2395(5) 0.2074(4) 0.1684(2)
N19 N 1.1564(5) 0.9901(4) -0.0004(2)
N20 N 1.3245(5) 1.0152(4) 0.0368(3)
N21 N 0.5417(5) 0.5667(4) 0.3411(3)
N22 N 1.4420(4) 1.2941(4) 0.6374(2)
N23 N 0.5840(5) 0.3712(4) 0.2829(3)
N24 N 1.5890(5) 1.2730(4) 0.2221(3)
V1A V 0.09944(7) 0.14916(5) -0.31630(3)
V2A V -0.12687(8) 0.17613(8) -0.40482(4)
V3A V 0.00916(8) 0.39161(6) -0.11705(4)
V4A V -0.12017(7) 0.40128(6) -0.23319(4)
V5A V 0.23352(8) 0.37341(6) -0.12100(4)
V6A V -0.18309(8) 0.00206(6) -0.33106(4)
V7A V -0.13735(8) 0.34329(6) -0.34772(4)
V8A V 0.09928(7) 0.32745(6) -0.35055(3)
V9A V 0.25195(7) 0.37848(6) -0.23591(3)
V10A V -0.28519(7) 0.17199(6) -0.31331(3)
V11A V 0.11125(7) 0.47422(6) -0.23276(4)
V12A V -0.18558(7) 0.21070(6) -0.15891(3)
V13A V -0.24112(7) 0.04620(6) -0.23283(4)
V14A V 0.00601(7) 0.16712(6) -0.11392(3)
V15A V 0.00012(7) 0.03144(6) -0.23561(3)
V16A V 0.18803(7) 0.18770(6) -0.16186(3)
Cu1A Cu 0.13241(9) 0.69878(7) -0.26709(3)
Cu1A_2 Cu 1.13241(9) 0.69878(7) 0.73291(3)
Cu2A Cu 0.54359(9) 0.57537(8) -0.03570(4)
Cu3A Cu 1.13224(9) 0.94078(8) 0.64803(4)
Cu3A_2 Cu 0.13224(9) -0.05922(8) -0.35197(4)
Cu4A Cu 0.68345(7) 0.42534(5) -0.45538(3)
Cu4A_2 Cu -0.31655(7) 0.42534(5) -0.45538(3)
Cu4A_3 Cu 1.68345(7) 1.42534(5) 0.54462(3)
Cu5A Cu 0.99664(8) 1.07579(6) 0.02448(3)
Cu5_2 Cu 0.00336(8) -0.07579(6) -0.02448(3)
Cu5A_2 Cu -0.00336(8) 0.07579(6) 0.02448(3)
Cu5A_3 Cu 0.99664(8) 0.07579(6) 0.02448(3)
Cu6_2 Cu 1.57234(9) 1.47566(7) 0.31081(4)
Cu6A Cu 1.42766(9) 1.52434(7) 0.68919(4)
Cu6A_2 Cu 0.42766(9) 0.52434(7) -0.31081(4)
C1A C 0.0643(6) 0.6783(5) -0.1681(3)
H1A H 0.0453 0.6153 -0.1740
C2A C 0.1239(7) 0.8197(5) -0.1783(3)
H2A H 0.1539 0.8743 -0.1928
C3A C 0.0892(6) 0.8115(5) -0.1310(3)
H3A H 0.0914 0.8588 -0.1071
C4A C 0.0094(7) 0.6775(5) -0.0800(4)
H4A H -0.0579 0.6817 -0.0824
H5A H -0.0058 0.6125 -0.0847
C5A C 0.0883(8) 0.7231(7) -0.0227(3)
H6A H 0.0893 0.7831 -0.0144
H7A H 0.0632 0.6863 0.0058
C6A C 0.2056(9) 0.7368(7) -0.0168(4)
H8A H 0.2551 0.7787 0.0179
H9A H 0.2273 0.7635 -0.0491
C7A C 0.2097(10) 0.6532(7) -0.0150(5)
H10A H 0.1893 0.6271 0.0176
H11A H 0.1592 0.6109 -0.0494
C8A C 0.4187(9) 0.7272(6) 0.0305(4)
H12A H 0.4224 0.7739 0.0554
C9A C 0.5015(8) 0.7066(6) 0.0281(3)
H13A H 0.5717 0.7356 0.0529
C10A C 0.3646(7) 0.6171(6) -0.0379(4)
H14A H 0.3196 0.5725 -0.0697
C11A C 1.1461(7) 0.6045(5) 0.6373(3)
H15A H 1.1356 0.5512 0.6540
C12A C 1.1666(9) 0.7406(6) 0.6223(4)
H16A H 1.1741 0.8009 0.6278
C13A C 1.1718(9) 0.7005(5) 0.5761(3)
H17A H 1.1811 0.7264 0.5433
C14A C 1.1490(8) 0.5423(6) 0.5436(3)
H18A H 1.1522 0.4907 0.5626
H19A H 1.2096 0.5661 0.5281
C15A C 1.0501(10) 0.5092(11) 0.4974(6)
H20A H 1.0431 0.4526 0.4780
H21A H 1.0624 0.5537 0.4709
C16A C 0.5671(6) 0.4785(5) -0.1242(3)
H22A H 0.4960 0.4642 -0.1452
C17A C 0.7168(7) 0.5279(7) -0.0577(4)
H23A H 0.7697 0.5552 -0.0227
C18A C 0.7282(6) 0.4849(6) -0.1011(4)
H24A H 0.7897 0.4780 -0.1023
C19A C 0.6026(7) 0.3979(6) -0.1992(4)
H25A H 0.5396 0.4018 -0.2244
H26A H 0.6617 0.4255 -0.2156
C20A C 0.5777(8) 0.2952(8) -0.1981(5)
H27A H 0.6377 0.2905 -0.1703
H28A H 0.5716 0.2678 -0.2353
C21A C 0.4830(8) 0.2454(7) -0.1844(5)
H29A H 0.4848 0.2778 -0.1499
H30A H 0.4219 0.2429 -0.2150
C22A C 0.4652(6) 0.1456(6) -0.1750(4)
H31A H 0.4258 0.1279 -0.1471
H32A H 0.5355 0.1459 -0.1585
C23A C 0.4460(7) 0.0355(7) -0.2572(4)
H33A H 0.5180 0.0459 -0.2502
C24A C 0.3622(9) -0.0221(7) -0.3009(4)
H34A H 0.3668 -0.0578 -0.3296
C25A C 0.3000(5) 0.0399(5) -0.2501(3)
H35A H 0.2540 0.0561 -0.2359
C26A C 0.9475(6) 0.9369(6) 0.5652(3)
H36A H 0.9459 0.9839 0.5874
C27A C 0.9846(9) 0.8291(8) 0.5380(5)
H37A H 1.0162 0.7883 0.5385
C28A C 0.9113(9) 0.8328(9) 0.4949(5)
H38A H 0.8803 0.7950 0.4597
C29A C 0.8102(7) 0.9355(10) 0.4781(4)
H39A H 0.8135 0.9347 0.4391
H40A H 0.8297 0.9986 0.4935
C30A C 0.6989(9) 0.8765(17) 0.4781(5)
H41A H 0.6759 0.9177 0.4947
H42A H 0.7066 0.8361 0.5060
C31A C 0.6249(11) 0.8298(10) 0.4409(7)
H43A H 0.6007 0.7700 0.4538
H44A H 0.5707 0.8516 0.4422
C32A C 0.7975(5) 0.5876(4) -0.3715(3)
H45A H 0.8327 0.5589 -0.3469
C33A C 0.7436(7) 0.6880(5) -0.4046(3)
H46A H 0.7349 0.7423 -0.4079
C34A C 0.6981(7) 0.6158(5) -0.4439(3)
H47A H 0.6499 0.6091 -0.4796
C35A C 0.8677(7) 0.7319(6) -0.3039(3)
H48A H 0.9428 0.7423 -0.2954
H49A H 0.8650 0.7911 -0.3074
C36A C 1.6290(5) 1.2371(4) 0.5027(3)
H50A H 1.6856 1.2354 0.5316
C37A C 1.5181(6) 1.2817(5) 0.4516(3)
H51A H 1.4828 1.3182 0.4380
C38A C 1.4898(6) 1.1964(6) 0.4279(3)
H52A H 1.4323 1.1630 0.3955
C39A C 1.5658(7) 1.0777(5) 0.4493(3)
H53A H 1.5527 1.0628 0.4086
H54A H 1.6379 1.0836 0.4689
C40A C 1.4828(7) 0.9987(5) 0.4690(3)
H55A H 1.4722 0.9402 0.4502
H56A H 1.4139 1.0027 0.4577
C41_2 C 0.2145(7) 0.0409(6) -0.0337(3)
H57_2 H 0.1867 0.0615 -0.0665
C42_2 C 0.3169(8) 0.0565(6) -0.0117(4)
H58_2 H 0.3735 0.0893 -0.0263
C43_2 C 0.2249(6) -0.0222(5) 0.0413(3)
H59_2 H 0.2065 -0.0536 0.0711
C44_2 C 0.4189(7) 0.0052(6) 0.0720(5)
H60_2 H 0.4384 -0.0313 0.0489
H61_2 H 0.3995 -0.0283 0.1027
C45_2 C 0.5178(8) 0.0976(7) 0.0979(5)
H62_2 H 0.5807 0.0867 0.1157
H63_2 H 0.5331 0.1352 0.0681
C46_2 C 0.4956(8) 0.1446(7) 0.1395(4)
H64_2 H 0.4720 0.1043 0.1668
H65_2 H 0.4381 0.1619 0.1210
C47A C 1.1475(6) 0.1395(4) 0.1374(3)
H66A H 1.1018 0.0932 0.1529
C48A C 1.2147(7) 0.2206(6) 0.0785(4)
H67A H 1.2251 0.2417 0.0446
C49A C 1.2836(7) 0.2610(6) 0.1307(4)
H68A H 1.3482 0.3144 0.1397
C50A C 0.7158(6) 0.7758(5) -0.2306(3)
H69A H 0.7585 0.8285 -0.2460
H70A H 0.6424 0.7704 -0.2407
C51A C 0.7145(7) 0.6898(6) -0.2576(3)
H71A H 0.6723 0.6769 -0.2975
H72A H 0.6776 0.6384 -0.2394
C52A C 0.8262(7) 0.6936(6) -0.2542(3)
H73A H 0.8781 0.7318 -0.2187
H74A H 0.8221 0.6318 -0.2531
C53A C 1.3932(6) 1.3447(6) 0.6475(3)
H75A H 1.3208 1.3205 0.6466
C54A C 1.5480(6) 1.3533(6) 0.6440(3)
H76A H 1.6026 1.3377 0.6402
C55A C 1.5564(7) 1.4382(6) 0.6571(4)
H77A H 1.6195 1.4925 0.6639
C56A C 0.6064(6) 0.8068(6) 0.3781(4)
C57_2 C 1.5954(6) 1.3559(5) 0.2331(3)
H78_2 H 1.6067 1.3991 0.2080
C58_2 C 1.5706(8) 1.2919(6) 0.3055(4)
H79_2 H 1.5611 1.2811 0.3412
C59_2 C 1.5733(8) 1.2319(6) 0.2678(5)
H80_2 H 1.5656 1.1723 0.2724
C60_2 C 0.6017(9) 0.2339(8) 0.1714(5)
H81_2 H 0.6627 0.2182 0.1826
H82_2 H 0.6165 0.2795 0.1457
O1A O 0.1699(3) 0.5839(2) -0.23044(18)
O2A O 0.3505(3) 0.4227(3) -0.07413(17)
O3A O 0.1586(3) 0.1073(3) -0.34882(15)
O4A O -0.1961(3) 0.3913(3) -0.39300(16)
O5A O 0.0137(3) 0.1281(3) -0.05407(15)
O6A O 0.3734(3) 0.4413(3) -0.23678(16)
O7A O -0.2479(3) -0.1057(3) -0.35553(18)
O8A O -0.2655(3) 0.1911(3) -0.12058(16)
O9A O -0.0295(3) 0.3332(3) -0.37527(15)
O10A O -0.4100(3) 0.1433(3) -0.34424(17)
O11A O 0.1480(3) 0.4145(3) -0.09149(15)
O12A O 0.2775(3) 0.1559(3) -0.12732(15)
O13A O 0.0151(3) -0.0616(3) -0.23058(17)
O14A O -0.1839(3) 0.0589(3) -0.39856(15)
O15A O 0.1622(4) 0.3650(3) -0.39661(17)
O16A O -0.1656(3) 0.4765(3) -0.23121(18)
O17A O -0.0104(4) 0.4493(3) -0.07054(17)
O18A O -0.1502(3) 0.3314(2) -0.17509(14)
O19A O -0.3442(3) -0.0376(3) -0.22491(18)
O20A O -0.2712(3) 0.1557(2) -0.23307(14)
O21A O -0.1598(3) 0.1793(3) -0.47245(15)
O22A O -0.2112(3) 0.2108(2) -0.37172(14)
O23A O -0.0316(3) 0.0449(2) -0.31432(13)
O24A O 0.1536(3) 0.2523(2) -0.10957(13)
O25A O 0.0244(3) 0.4544(2) -0.18025(14)
O26A O 0.2613(3) 0.3001(2) -0.18186(14)
O27A O -0.0345(3) 0.4341(2) -0.28517(14)
O28A O -0.2670(3) 0.0573(2) -0.31215(14)
O29A O 0.2183(3) 0.4416(2) -0.18211(14)
O30A O -0.1442(3) -0.0009(2) -0.24402(14)
O31A O -0.0394(3) 0.2664(2) -0.10844(14)
O32A O -0.1472(3) 0.1086(2) -0.15902(14)
O33A O 0.1574(3) 0.4218(2) -0.28868(14)
O34A O 0.0164(3) 0.1963(2) -0.37387(13)
O35A O -0.2177(3) 0.3070(2) -0.29190(14)
O36A O 0.1883(3) 0.2807(2) -0.29795(13)
O37A O 0.1379(3) 0.1270(2) -0.23730(13)
O38A O 0.0469(3) 0.0944(2) -0.16134(13)
N1A N 0.1072(5) 0.7348(4) -0.2005(2)
N2A N 0.0504(4) 0.7196(4) -0.1256(2)
N3A N 0.4671(5) 0.6371(4) -0.0158(2)
N4A N 0.3304(6) 0.6672(5) -0.0101(3)
N5A N 0.1483(6) 0.6793(5) -0.3388(2)
N5A_2 N 1.1483(6) 0.6793(5) 0.6612(2)
N6A N 1.1609(6) 0.6141(4) 0.5856(2)
N7A N 0.6138(5) 0.5257(5) -0.0726(3)
N8A N 0.6321(5) 0.4534(4) -0.1432(3)
N9A N 0.2664(5) -0.0199(4) -0.2963(3)
N10A N 0.4072(4) 0.0752(4) -0.2254(3)
N11A N 1.0090(6) 0.8957(5) 0.5834(3)
N11A_2 N 0.0090(6) -0.1043(5) -0.4166(3)
N12A N 0.8871(5) 0.9050(6) 0.5116(3)
N13A N 0.7340(5) 0.5500(4) -0.4231(2)
N13A_2 N -0.2660(5) 0.5500(4) -0.4231(2)
N14A N 0.8059(4) 0.6711(4) -0.3581(2)
N15A N -0.3941(4) 0.3083(4) -0.5014(2)
N15A_2 N 1.6059(4) 1.3083(4) 0.4986(2)
N16A N 1.5618(4) 1.1669(4) 0.4605(2)
N17A N 0.1273(5) 0.1445(4) 0.0819(2)
N17A_2 N 1.1273(5) 0.1445(4) 0.0819(2)
N18A N 0.7605(5) 0.7926(4) -0.1684(2)
N19_2 N 0.1564(5) -0.0099(4) -0.0004(2)
N19A N -0.1564(5) 0.0099(4) 0.0004(2)
N20_2 N 0.3245(5) 0.0152(4) 0.0368(3)
N21A N 1.4583(5) 1.4333(4) 0.6589(3)
N21A_2 N 0.4583(5) 0.4333(4) -0.3411(3)
N22A N 0.5580(4) 0.7059(4) 0.3626(2)
N23_2 N 1.5840(5) 1.3712(4) 0.2829(3)
N23A N 0.4160(5) 0.6288(4) -0.2829(3)
N24_2 N 0.5890(5) 0.2730(4) 0.2221(3)
Cl1 Cl 1.01532(12) 0.75748(10) 0.24311(6)
loop_
_geom_bond_atom_site_label_1
_geom_bond_atom_site_label_2
_geom_bond_site_symmetry_1
_geom_bond_site_symmetry_2
V1 O3 1_555 1_555
V2 O9 1_555 1_555
V3 O11 1_555 1_555
V4 O16 1_555 1_555
V5 O2 1_555 1_555
V6 O7 1_555 1_555
V7 O4 1_555 1_555
V8 O9 1_555 1_555
V9 O6 1_555 1_555
V10 O10 1_555 1_555
V11 O1 1_555 1_555
V12 O8 1_555 1_555
V13 O19 1_555 1_555
V14 O5 1_555 1_555
V15 O13 1_555 1_555
V16 O12 1_555 1_555
Cu1 O1 1_555 1_555
Cu2 O2 1_555 1_555
Cu3 O3 1_555 1_555
Cu4 O4 1_555 1_555
Cu5 O5 1_555 1_555
Cu6 O6 1_555 1_555
C1 H1 1_555 1_555
C2 H2 1_555 1_555
C3 C2 1_555 1_555
H3 C3 1_555 1_555
C4 H4 1_555 1_555
H5 C4 1_555 1_555
C5 C4 1_555 1_555
H6 C5 1_555 1_555
H7 C5 1_555 1_555
C6 C5 1_555 1_555
H8 C6 1_555 1_555
H9 C6 1_555 1_555
C7 C6 1_555 1_555
H10 C7 1_555 1_555
H11 C7 1_555 1_555
C8 H12 1_555 1_555
C9 C8 1_555 1_555
H13 C9 1_555 1_555
C10 H14 1_555 1_555
C11 H15 1_555 1_555
C12 H16 1_555 1_555
C13 C12 1_555 1_555
H17 C13 1_555 1_555
C14 H18 1_555 1_555
H19 C14 1_555 1_555
C15 C14 1_555 1_555
H20 C15 1_555 1_555
H21 C15 1_555 1_555
C16 H22 1_555 1_555
C17 H23 1_555 1_555
C18 C17 1_555 1_555
H24 C18 1_555 1_555
C19 H25 1_555 1_555
H26 C19 1_555 1_555
C20 C19 1_555 1_555
H27 C20 1_555 1_555
H28 C20 1_555 1_555
C21 C20 1_555 1_555
H29 C21 1_555 1_555
H30 C21 1_555 1_555
C22 C21 1_555 1_555
H31 C22 1_555 1_555
H32 C22 1_555 1_555
C23 H33 1_555 1_555
C24 C23 1_555 1_555
H34 C24 1_555 1_555
C25 H35 1_555 1_555
C26 H36 1_555 1_555
C27 H37 1_555 1_555
C28 C27 1_555 1_555
H38 C28 1_555 1_555
C29 H39 1_555 1_555
H40 C29 1_555 1_555
C30 C29 1_555 1_555
H41 C30 1_555 1_555
H42 C30 1_555 1_555
C31 C30 1_555 1_555
H43 C31 1_555 1_555
H44 C31 1_555 1_555
C32 H45 1_555 1_555
C33 H46 1_555 1_555
C34 C33 1_555 1_555
H47 C34 1_555 1_555
C35 H48 1_555 1_555
H49 C35 1_555 1_555
C36 H50 1_555 1_555
C37 H51 1_555 1_555
C38 C37 1_555 1_555
H52 C38 1_555 1_555
C39 H53 1_555 1_555
H54 C39 1_555 1_555
C40 C39 1_555 1_555
H55 C40 1_555 1_555
H56 C40 1_555 1_555
C41 H57 1_555 1_555
C42 C41 1_555 1_555
H58 C42 1_555 1_555
C43 H59 1_555 1_555
C44 H60 1_555 1_555
H61 C44 1_555 1_555
C45 C44 1_555 1_555
H62 C45 1_555 1_555
H63 C45 1_555 1_555
C46 C45 1_555 1_555
H64 C46 1_555 1_555
H65 C46 1_555 1_555
C47 H66 1_555 1_555
C48 H67 1_555 1_555
C49 C48 1_555 1_555
H68 C49 1_555 1_555
C50 H69 1_555 1_555
H70 C50 1_555 1_555
C51 C50 1_555 1_555
H71 C51 1_555 1_555
H72 C51 1_555 1_555
C52 C35 1_555 1_555
H73 C52 1_555 1_555
H74 C52 1_555 1_555
C53 H75 1_555 1_555
C54 H76 1_555 1_555
C55 C54 1_555 1_555
H77 C55 1_555 1_555
C56 C31 1_555 1_555
C57 H78 1_555 1_555
C58 H79 1_555 1_555
C59 C58 1_555 1_555
H80 C59 1_555 1_555
C60 C46 1_555 1_555
H81 C60 1_555 1_555
H82 C60 1_555 1_555
O2 Cu2A 1_555 1_555
O9 V7 1_555 1_555
O11 V5 1_555 1_555
O14 V2 1_555 1_555
O15 V8 1_555 1_555
O17 V3 1_555 1_555
O18 V3 1_555 1_555
O20 V10 1_555 1_555
O21 V2 1_555 1_555
O22 V2 1_555 1_555
O23 V1 1_555 1_555
O24 V5 1_555 1_555
O25 V3 1_555 1_555
O26 V5 1_555 1_555
O27 V4 1_555 1_555
O28 V6 1_555 1_555
O29 V5 1_555 1_555
O30 V6 1_555 1_555
O31 V3 1_555 1_555
O32 V12 1_555 1_555
O33 V8 1_555 1_555
O34 V1 1_555 1_555
O35 V4 1_555 1_555
O36 V1 1_555 1_555
O37 V1 1_555 1_555
O38 V14 1_555 1_555
N1 Cu1 1_555 1_555
N2 C1 1_555 1_555
N3 Cu2 1_555 1_555
N4 C7 1_555 1_555
N5 Cu1 1_555 1_555
N6 C11 1_555 1_555
N7 Cu2 1_555 1_555
N8 C16 1_555 1_555
N9 Cu3 1_555 1_555
N10 C22 1_555 1_555
N11 Cu3 1_555 1_555
N12 C26 1_555 1_555
N13 Cu4 1_555 1_555
N14 C32 1_555 1_555
N15 Cu4 1_555 1_555
N16 C36 1_555 1_555
N17 Cu5 1_555 1_555
N18 C50 1_555 1_555
N19 Cu5 1_555 1_555
N20 C42 1_555 1_555
N21 Cu6 1_555 1_555
N22 C56 1_555 1_555
N23 Cu6 1_555 1_555
N24 C60 1_555 1_555
V1A O3A 1_555 1_555
V2A O9A 1_555 1_555
V3A O11A 1_555 1_555
V4A O16A 1_555 1_555
V5A O2A 1_555 1_555
V6A O7A 1_555 1_555
V7A O4A 1_555 1_555
V8A O9A 1_555 1_555
V9A O6A 1_555 1_555
V10A O10A 1_555 1_555
V11A O1A 1_555 1_555
V12A O8A 1_555 1_555
V13A O19A 1_555 1_555
V14A O5A 1_555 1_555
V15A O13A 1_555 1_555
V16A O12A 1_555 1_555
Cu1A O1A 1_555 1_555
Cu1A_2 N5A_2 1_555 1_555
Cu2A O2A 1_555 1_555
Cu3A N11A 1_555 1_555
Cu3A_2 O3A 1_555 1_555
Cu4A N13A 1_555 1_555
Cu4A_2 O4A 1_555 1_555
Cu4A_3 N15A_2 1_555 1_555
Cu5A Cu5 1_555 1_555
Cu5_2 Cu5A_2 1_555 1_555
Cu5A_2 O5A 1_555 1_555
Cu5A_3 N17A_2 1_555 1_555
Cu6_2 N23_2 1_555 1_555
Cu6A N21A 1_555 1_555
Cu6A_2 O6A 1_555 1_555
C1A H1A 1_555 1_555
C2A H2A 1_555 1_555
C3A C2A 1_555 1_555
H3A C3A 1_555 1_555
C4A H4A 1_555 1_555
H5A C4A 1_555 1_555
C5A C4A 1_555 1_555
H6A C5A 1_555 1_555
H7A C5A 1_555 1_555
C6A C5A 1_555 1_555
H8A C6A 1_555 1_555
H9A C6A 1_555 1_555
C7A C6A 1_555 1_555
H10A C7A 1_555 1_555
H11A C7A 1_555 1_555
C8A H12A 1_555 1_555
C9A C8A 1_555 1_555
H13A C9A 1_555 1_555
C10A H14A 1_555 1_555
C11A H15A 1_555 1_555
C12A H16A 1_555 1_555
C13A C12A 1_555 1_555
H17A C13A 1_555 1_555
C14A H18A 1_555 1_555
H19A C14A 1_555 1_555
C15A C15 1_555 1_555
H20A C15A 1_555 1_555
H21A C15A 1_555 1_555
C16A H22A 1_555 1_555
C17A H23A 1_555 1_555
C18A C17A 1_555 1_555
H24A C18A 1_555 1_555
C19A H25A 1_555 1_555
H26A C19A 1_555 1_555
C20A C19A 1_555 1_555
H27A C20A 1_555 1_555
H28A C20A 1_555 1_555
C21A C20A 1_555 1_555
H29A C21A 1_555 1_555
H30A C21A 1_555 1_555
C22A C21A 1_555 1_555
H31A C22A 1_555 1_555
H32A C22A 1_555 1_555
C23A H33A 1_555 1_555
C24A C23A 1_555 1_555
H34A C24A 1_555 1_555
C25A H35A 1_555 1_555
C26A H36A 1_555 1_555
C27A H37A 1_555 1_555
C28A C27A 1_555 1_555
H38A C28A 1_555 1_555
C29A H39A 1_555 1_555
H40A C29A 1_555 1_555
C30A C29A 1_555 1_555
H41A C30A 1_555 1_555
H42A C30A 1_555 1_555
C31A C30A 1_555 1_555
H43A C31A 1_555 1_555
H44A C31A 1_555 1_555
C32A H45A 1_555 1_555
C33A H46A 1_555 1_555
C34A C33A 1_555 1_555
H47A C34A 1_555 1_555
C35A H48A 1_555 1_555
H49A C35A 1_555 1_555
C36A H50A 1_555 1_555
C37A H51A 1_555 1_555
C38A C37A 1_555 1_555
H52A C38A 1_555 1_555
C39A H53A 1_555 1_555
H54A C39A 1_555 1_555
C40A C40 1_555 1_555
H55A C40A 1_555 1_555
H56A C40A 1_555 1_555
C41_2 H57_2 1_555 1_555
C42_2 C41_2 1_555 1_555
H58_2 C42_2 1_555 1_555
C43_2 H59_2 1_555 1_555
C44_2 H60_2 1_555 1_555
H61_2 C44_2 1_555 1_555
C45_2 C44_2 1_555 1_555
H62_2 C45_2 1_555 1_555
H63_2 C45_2 1_555 1_555
C46_2 C45_2 1_555 1_555
H64_2 C46_2 1_555 1_555
H65_2 C46_2 1_555 1_555
C47A N18 1_555 1_555
H66A C47A 1_555 1_555
C48A H67A 1_555 1_555
C49A N18 1_555 1_555
H68A C49A 1_555 1_555
C50A H69A 1_555 1_555
H70A C50A 1_555 1_555
C51A C50A 1_555 1_555
H71A C51A 1_555 1_555
H72A C51A 1_555 1_555
C52A C35A 1_555 1_555
H73A C52A 1_555 1_555
H74A C52A 1_555 1_555
C53A N22 1_555 1_555
H75A C53A 1_555 1_555
C54A N22 1_555 1_555
H76A C54A 1_555 1_555
C55A C54A 1_555 1_555
H77A C55A 1_555 1_555
C56A C31A 1_555 1_555
C57_2 N24 1_555 1_555
H78_2 C57_2 1_555 1_555
C58_2 H79_2 1_555 1_555
C59_2 N24 1_555 1_555
H80_2 C59_2 1_555 1_555
C60_2 C46_2 1_555 1_555
H81_2 C60_2 1_555 1_555
H82_2 C60_2 1_555 1_555
O2A Cu2 1_555 1_555
O9A V7A 1_555 1_555
O11A V5A 1_555 1_555
O14A V2A 1_555 1_555
O15A V8A 1_555 1_555
O17A V3A 1_555 1_555
O18A V3A 1_555 1_555
O20A V10A 1_555 1_555
O21A V2A 1_555 1_555
O22A V2A 1_555 1_555
O23A V1A 1_555 1_555
O24A V5A 1_555 1_555
O25A V3A 1_555 1_555
O26A V5A 1_555 1_555
O27A V4A 1_555 1_555
O28A V6A 1_555 1_555
O29A V5A 1_555 1_555
O30A V6A 1_555 1_555
O31A V3A 1_555 1_555
O32A V12A 1_555 1_555
O33A V8A 1_555 1_555
O34A V1A 1_555 1_555
O35A V4A 1_555 1_555
O36A V1A 1_555 1_555
O37A V1A 1_555 1_555
O38A V14A 1_555 1_555
N1A Cu1A 1_555 1_555
N2A C1A 1_555 1_555
N3A Cu2A 1_555 1_555
N4A C7A 1_555 1_555
N5A Cu1A 1_555 1_555
N5A_2 C11A 1_555 1_555
N6A C11A 1_555 1_555
N7A Cu2A 1_555 1_555
N8A C16A 1_555 1_555
N9A Cu3A_2 1_555 1_555
N10A C22A 1_555 1_555
N11A C26A 1_555 1_555
N11A_2 Cu3A_2 1_555 1_555
N12A C26A 1_555 1_555
N13A C32A 1_555 1_555
N13A_2 Cu4A_2 1_555 1_555
N14A C32A 1_555 1_555
N15A Cu4A_2 1_555 1_555
N15A_2 C36A 1_555 1_555
N16A C36A 1_555 1_555
N17A Cu5A_2 1_555 1_555
N17A_2 C47A 1_555 1_555
N18A C47 1_555 1_555
N19_2 Cu5_2 1_555 1_555
N19A Cu5A_2 1_555 1_555
N20_2 C42_2 1_555 1_555
N21A C53A 1_555 1_555
N21A_2 Cu6A_2 1_555 1_555
N22A C53 1_555 1_555
N23_2 C57_2 1_555 1_555
N23A Cu6A_2 1_555 1_555
N24_2 C57 1_555 1_555
V2 O34 1_555 1_555
V4 O18 1_555 1_555
V4 O25 1_555 1_555
V6 O14 1_555 1_555
V6 O23 1_555 1_555
V7 O22 1_555 1_555
V7 O27 1_555 1_555
V7 O35 1_555 1_555
V8 O34 1_555 1_555
V8 O36 1_555 1_555
V9 O26 1_555 1_555
V9 O29 1_555 1_555
V9 O33 1_555 1_555
V9 O36 1_555 1_555
V10 O22 1_555 1_555
V10 O28 1_555 1_555
V10 O35 1_555 1_555
V11 O25 1_555 1_555
V11 O27 1_555 1_555
V11 O29 1_555 1_555
V11 O33 1_555 1_555
V12 O18 1_555 1_555
V12 O20 1_555 1_555
V12 O31 1_555 1_555
V13 O20 1_555 1_555
V13 O28 1_555 1_555
V13 O30 1_555 1_555
V13 O32 1_555 1_555
V14 O24 1_555 1_555
V14 O31 1_555 1_555
V14 O32 1_555 1_555
V15 O23 1_555 1_555
V15 O30 1_555 1_555
V15 O37 1_555 1_555
V15 O38 1_555 1_555
V16 O24 1_555 1_555
V16 O26 1_555 1_555
V16 O37 1_555 1_555
V16 O38 1_555 1_555
C1 N1 1_555 1_555
C2 N1 1_555 1_555
C3 N2 1_555 1_555
C4 N2 1_555 1_555
C8 N4 1_555 1_555
C9 N3 1_555 1_555
C10 N3 1_555 1_555
C10 N4 1_555 1_555
C11 N5 1_555 1_555
C12 N5 1_555 1_555
C13 N6 1_555 1_555
C14 N6 1_555 1_555
C16 N7 1_555 1_555
C17 N7 1_555 1_555
C18 N8 1_555 1_555
C19 N8 1_555 1_555
C23 N10 1_555 1_555
C24 N9 1_555 1_555
C25 N9 1_555 1_555
C25 N10 1_555 1_555
C26 N11 1_555 1_555
C27 N11 1_555 1_555
C28 N12 1_555 1_555
C29 N12 1_555 1_555
C32 N13 1_555 1_555
C33 N14 1_555 1_555
C34 N13 1_555 1_555
C35 N14 1_555 1_555
C36 N15 1_555 1_555
C37 N15 1_555 1_555
C38 N16 1_555 1_555
C39 N16 1_555 1_555
C41 N19 1_555 1_555
C43 N19 1_555 1_555
C43 N20 1_555 1_555
C44 N20 1_555 1_555
C47 N17 1_555 1_555
C48 N17 1_555 1_555
C49 N18A 1_555 1_555
C51 C52 1_555 1_555
C53 N21 1_555 1_555
C54 N22A 1_555 1_555
C55 N21 1_555 1_555
C57 N23 1_555 1_555
C58 N23 1_555 1_555
C59 N24_2 1_555 1_555
V2A O34A 1_555 1_555
V4A O18A 1_555 1_555
V4A O25A 1_555 1_555
V6A O14A 1_555 1_555
V6A O23A 1_555 1_555
V7A O22A 1_555 1_555
V7A O27A 1_555 1_555
V7A O35A 1_555 1_555
V8A O34A 1_555 1_555
V8A O36A 1_555 1_555
V9A O26A 1_555 1_555
V9A O29A 1_555 1_555
V9A O33A 1_555 1_555
V9A O36A 1_555 1_555
V10A O22A 1_555 1_555
V10A O28A 1_555 1_555
V10A O35A 1_555 1_555
V11A O25A 1_555 1_555
V11A O27A 1_555 1_555
V11A O29A 1_555 1_555
V11A O33A 1_555 1_555
V12A O18A 1_555 1_555
V12A O20A 1_555 1_555
V12A O31A 1_555 1_555
V13A O20A 1_555 1_555
V13A O28A 1_555 1_555
V13A O30A 1_555 1_555
V13A O32A 1_555 1_555
V14A O24A 1_555 1_555
V14A O31A 1_555 1_555
V14A O32A 1_555 1_555
V15A O23A 1_555 1_555
V15A O30A 1_555 1_555
V15A O37A 1_555 1_555
V15A O38A 1_555 1_555
V16A O24A 1_555 1_555
V16A O26A 1_555 1_555
V16A O37A 1_555 1_555
V16A O38A 1_555 1_555
C1A N1A 1_555 1_555
C2A N1A 1_555 1_555
C3A N2A 1_555 1_555
C4A N2A 1_555 1_555
C8A N4A 1_555 1_555
C9A N3A 1_555 1_555
C10A N3A 1_555 1_555
C10A N4A 1_555 1_555
C12A N5A_2 1_555 1_555
C13A N6A 1_555 1_555
C14A C15A 1_555 1_555
C14A N6A 1_555 1_555
C16A N7A 1_555 1_555
C17A N7A 1_555 1_555
C18A N8A 1_555 1_555
C19A N8A 1_555 1_555
C23A N10A 1_555 1_555
C24A N9A 1_555 1_555
C25A N9A 1_555 1_555
C25A N10A 1_555 1_555
C27A N11A 1_555 1_555
C28A N12A 1_555 1_555
C29A N12A 1_555 1_555
C33A N14A 1_555 1_555
C34A N13A 1_555 1_555
C35A N14A 1_555 1_555
C37A N15A_2 1_555 1_555
C38A N16A 1_555 1_555
C39A C40A 1_555 1_555
C39A N16A 1_555 1_555
C41_2 N19_2 1_555 1_555
C43_2 N19_2 1_555 1_555
C43_2 N20_2 1_555 1_555
C44_2 N20_2 1_555 1_555
C48A C49A 1_555 1_555
C48A N17A_2 1_555 1_555
C50A N18A 1_555 1_555
C51A C52A 1_555 1_555
C55A N21A 1_555 1_555
C56A N22A 1_555 1_555
C58_2 C59_2 1_555 1_555
C58_2 N23_2 1_555 1_555
C60_2 N24_2 1_555 1_555

#END
