
#######################################################################
#
#                 Cambridge Crystallographic Data Centre
#                                CCDC 
#
#######################################################################
#
# If this CIF has been generated from an entry in the Cambridge 
# Structural Database, then it will include bibliographic, chemical, 
# crystal, experimental, refinement or atomic coordinate data resulting 
# from the CCDC's data processing and validation procedures.
#
#######################################################################

data_HIJHAK
_symmetry_cell_setting           tetragonal
_symmetry_space_group_name_H-M   'I 41/a c d'
_symmetry_Int_Tables_number      142
_space_group_name_Hall           '-I 4bd 2c'
loop_
_symmetry_equiv_pos_site_id
_symmetry_equiv_pos_as_xyz
1 x,y,z
2 1/4-y,3/4+x,1/4+z
3 1/4+y,1/4-x,3/4+z
4 1/4+y,3/4+x,3/4-z
5 1/4-y,1/4-x,1/4-z
6 1/2+x,1/2+y,1/2+z
7 3/4-y,1/4+x,3/4+z
8 3/4+y,3/4-x,1/4+z
9 3/4+y,1/4+x,1/4-z
10 1/2-x,-y,1/2+z
11 1/2-x,y,-z
12 x,-y,1/2-z
13 -x,1/2-y,z
14 -x,1/2+y,1/2-z
15 1/2+x,1/2-y,-z
16 3/4-y,3/4-x,3/4-z
17 -x,-y,-z
18 3/4+y,1/4-x,3/4-z
19 3/4-y,3/4+x,1/4-z
20 3/4-y,1/4-x,1/4+z
21 3/4+y,3/4+x,3/4+z
22 1/2-x,1/2-y,1/2-z
23 1/4+y,3/4-x,1/4-z
24 1/4-y,1/4+x,3/4-z
25 1/4-y,3/4-x,3/4+z
26 1/2+x,y,1/2-z
27 1/2+x,-y,z
28 -x,y,1/2+z
29 x,1/2+y,-z
30 x,1/2-y,1/2+z
31 1/2-x,1/2+y,z
32 1/4+y,1/4+x,1/4+z
_cell_length_a                   21.0082(9)
_cell_length_b                   21.0082(9)
_cell_length_c                   40.400(3)
_cell_angle_alpha                90
_cell_angle_beta                 90
_cell_angle_gamma                90
_cell_volume                     17830.3
loop_
_atom_site_label
_atom_site_type_symbol
_atom_site_fract_x
_atom_site_fract_y
_atom_site_fract_z
Co1 Co 0.29681(4) -0.04681(4) 0.1250
As1 As 0.49101(6) 0.08804(5) 0.20260(3)
As2 As 0.35902(3) 0.16926(3) 0.202220(18)
V1 V 0.40191(5) 0.09118(4) 0.12901(3)
V2 V 0.54207(5) 0.06836(4) 0.12541(3)
V3 V 0.5000 0.2500 0.21741(4)
V4 V 0.61643(5) 0.17808(5) 0.18655(3)
O2 O 0.6651(2) 0.1499(2) 0.21280(13)
O3 O 0.5280(2) 0.1641(2) 0.20310(11)
O4 O 0.4116(2) 0.2357(2) 0.20266(11)
O5 O 0.3645(2) 0.02424(18) 0.13022(11)
O6 O 0.47521(18) 0.08268(18) 0.15970(10)
O7 O 0.4135(2) 0.1105(2) 0.21660(12)
O8 O 0.5578(2) -0.0058(2) 0.12544(11)
O9 O 0.46994(17) 0.08504(17) 0.09761(10)
O10 O 0.5000 0.2500 0.25624(15)
O11 O 0.36470(17) 0.14805(17) 0.09698(10)
O12 O 0.35940(18) 0.15286(18) 0.15896(10)
N1 N 0.3428(3) -0.1063(3) 0.16034(16)
N2 N 0.3606(3) -0.1890(3) 0.19206(17)
N3 N 0.2494(2) 0.0021(2) 0.08666(14)
N4 N 0.3259(3) -0.4492(3) 0.19309(18)
C1 C 0.3186(3) -0.1550(4) 0.1744(2)
H1 H 0.2759 -0.1660 0.1725
C2 C 0.4153(4) -0.1587(5) 0.1885(3)
H2 H 0.4543 -0.1702 0.1976
C3 C 0.4032(4) -0.1074(4) 0.1691(3)
H3 H 0.4333 -0.0773 0.1628
C4 C 0.3491(6) -0.2485(5) 0.2105(3)
H4 H 0.3042 -0.2525 0.2157
H5 H 0.3728 -0.2481 0.2312
C5 C 0.3727(5) -0.3100(5) 0.1870(3)
H6 H 0.4098 -0.2986 0.1739
H7 H 0.3389 -0.3232 0.1721
C6 C 0.3888(6) -0.3629(7) 0.2112(4)
H8 H 0.3597 -0.3593 0.2297
H9 H 0.4312 -0.3545 0.2197
C7 C 0.3876(5) -0.4239(5) 0.2010(4)
H10 H 0.4144 -0.4275 0.1815
H11 H 0.4064 -0.4501 0.2181
C8 C 0.2725(4) -0.4519(5) 0.2118(2)
H12 H 0.2672 -0.4352 0.2330
C9 C 0.2335(4) -0.0218(4) 0.0563(2)
H13 H 0.2430 -0.0627 0.0490
C10 C 0.2287(4) 0.0609(4) 0.0858(2)
H14 H 0.2336 0.0895 0.1032
Co1DA Co 0.20319(4) 0.45319(4) 0.1250
Co1DA_2 Co 0.20319(4) -0.54681(4) 0.1250
Co1Z Co -0.20319(4) 0.04681(4) 0.1250
Co1Z_2 Co 0.79681(4) 0.04681(4) 0.1250
Co1H Co 0.70319(4) 0.54681(4) 0.1250
As1L As 0.50899(6) 0.41196(5) 0.20260(3)
As1R As 0.66196(5) 0.24101(6) 0.04740(3)
As1V As 0.33804(5) 0.25899(6) 0.04740(3)
As2L As 0.64098(3) 0.33074(3) 0.202220(18)
As2R As 0.58074(3) 0.10902(3) 0.047780(18)
As2V As 0.41926(3) 0.39098(3) 0.047780(18)
V1R V 0.65882(4) 0.15191(5) 0.12099(3)
V1V V 0.34118(4) 0.34809(5) 0.12099(3)
V1L V 0.59809(5) 0.40882(4) 0.12901(3)
V2V V 0.31836(4) 0.20793(5) 0.12459(3)
V2L V 0.45793(5) 0.43164(4) 0.12541(3)
V2R V 0.68164(4) 0.29207(5) 0.12459(3)
V3R V 0.5000 0.2500 0.03259(4)
V4L V 0.38357(5) 0.32192(5) 0.18655(3)
V4V V 0.42808(5) 0.13357(5) 0.06345(3)
V4R V 0.57192(5) 0.36643(5) 0.06345(3)
O2L O 0.3349(2) 0.3501(2) 0.21280(13)
O2R O 0.6001(2) 0.4151(2) 0.03720(13)
O2V O 0.3999(2) 0.0849(2) 0.03720(13)
O3L O 0.4720(2) 0.3359(2) 0.20310(11)
O3R O 0.5859(2) 0.2780(2) 0.04690(11)
O3V O 0.4141(2) 0.2220(2) 0.04690(11)
O4L O 0.5884(2) 0.2643(2) 0.20266(11)
O4V O 0.4857(2) 0.3384(2) 0.04734(11)
O4R O 0.5143(2) 0.1616(2) 0.04734(11)
O5D O 0.22576(18) -0.1145(2) 0.11978(11)
O5V O 0.27424(18) 0.3855(2) 0.11978(11)
O5R O 0.72576(18) 0.1145(2) 0.11978(11)
O5L O 0.6355(2) 0.47576(18) 0.13022(11)
O5DA O 0.1355(2) 0.52424(18) 0.13022(11)
O6V O 0.33268(18) 0.27479(18) 0.09030(10)
O6L O 0.52479(18) 0.41732(18) 0.15970(10)
O6R O 0.66732(18) 0.22521(18) 0.09030(10)
O7L O 0.5865(2) 0.3895(2) 0.21660(12)
O7R O 0.6395(2) 0.1635(2) 0.03340(12)
O7V O 0.3605(2) 0.3365(2) 0.03340(12)
O8V O 0.2442(2) 0.1922(2) 0.12456(11)
O8R O 0.7558(2) 0.3078(2) 0.12456(11)
O8L O 0.4422(2) 0.5058(2) 0.12544(11)
O9R O 0.66496(17) 0.21994(17) 0.15239(10)
O9V O 0.33504(17) 0.28006(17) 0.15239(10)
O9L O 0.53006(17) 0.41496(17) 0.09761(10)
O10R O 0.5000 0.2500 -0.00624(15)
O11R O 0.60195(17) 0.11470(17) 0.15302(10)
O11V O 0.39805(17) 0.38530(17) 0.15302(10)
O11L O 0.63530(17) 0.35195(17) 0.09698(10)
O12R O 0.59714(18) 0.10940(18) 0.09104(10)
O12V O 0.40286(18) 0.39060(18) 0.09104(10)
O12L O 0.64060(18) 0.34714(18) 0.15896(10)
N1D N 0.3563(3) -0.0928(3) 0.08966(16)
N1DA N 0.1572(3) 0.3937(3) 0.16034(16)
N1R N -0.1437(3) 0.0928(3) 0.08966(16)
N1V N 0.1437(3) 0.4072(3) 0.08966(16)
N2D N 0.4390(3) -0.1106(3) 0.05794(17)
N2DA N 0.1394(3) 0.3110(3) 0.19206(17)
N2R N -0.0610(3) 0.1106(3) 0.05794(17)
N3D N 0.2479(2) 0.0006(2) 0.16334(14)
N3V N 0.2521(2) -0.4994(2) 0.16334(14)
N3Z N 0.7494(2) -0.0021(2) 0.08666(14)
N3DA N 0.2506(2) 0.5021(2) 0.08666(14)
N3V_2 N 0.2521(2) 0.5006(2) 0.16334(14)
N4R N 0.1992(3) 0.0759(3) 0.05691(18)
N4DA N 0.1741(3) 0.0508(3) 0.19309(18)
N4D N 0.6992(3) -0.0759(3) 0.05691(18)
C1D C 0.4050(4) -0.0686(3) 0.0756(2)
C1DA C 0.1814(3) 0.3450(4) 0.1744(2)
C1R C -0.0950(4) 0.0686(3) 0.0756(2)
H1D H 0.4160 -0.0259 0.0775
H1DA H 0.2241 0.3340 0.1725
H1R H -0.0840 0.0259 0.0775
C2D C 0.4087(5) -0.1653(4) 0.0615(3)
C2DA C 0.0847(4) 0.3413(5) 0.1885(3)
C2R C -0.0913(5) 0.1653(4) 0.0615(3)
H2D H 0.4202 -0.2043 0.0524
H2DA H 0.0457 0.3298 0.1976
H2R H -0.0798 0.2043 0.0524
C3D C 0.3574(4) -0.1532(4) 0.0809(3)
C3DA C 0.0968(4) 0.3926(4) 0.1691(3)
C3R C -0.1426(4) 0.1532(4) 0.0809(3)
H3D H 0.3273 -0.1833 0.0872
H3DA H 0.0667 0.4227 0.1628
H3R H -0.1727 0.1833 0.0872
C4DA C 0.1509(6) 0.2515(5) 0.2105(3)
C4R C -0.0015(5) 0.0991(6) 0.0395(3)
C4D C 0.4985(5) -0.0991(6) 0.0395(3)
H4DA H 0.1958 0.2475 0.2157
H4R H 0.0025 0.0542 0.0343
H4D H 0.5025 -0.0542 0.0343
H5DA H 0.1272 0.2519 0.2312
H5R H -0.0019 0.1228 0.0188
H5D H 0.4981 -0.1228 0.0188
C5R C 0.0600(5) 0.1227(5) 0.0630(3)
C5DA C 0.1273(5) 0.1900(5) 0.1870(3)
C5D C 0.5600(5) -0.1227(5) 0.0630(3)
H6DA H 0.0902 0.2014 0.1739
H6R H 0.0486 0.1598 0.0761
H6D H 0.5486 -0.1598 0.0761
H7DA H 0.1611 0.1768 0.1721
H7R H 0.0732 0.0889 0.0779
H7D H 0.5732 -0.0889 0.0779
C6R C 0.1129(7) 0.1388(6) 0.0388(4)
C6DA C 0.1112(6) 0.1371(7) 0.2112(4)
C6D C 0.6129(7) -0.1388(6) 0.0388(4)
H8R H 0.1093 0.1097 0.0203
H8DA H 0.1403 0.1407 0.2297
H8D H 0.6093 -0.1097 0.0203
H9R H 0.1045 0.1812 0.0303
H9DA H 0.0688 0.1455 0.2197
H9D H 0.6045 -0.1812 0.0303
C7R C 0.1739(5) 0.1376(5) 0.0490(4)
C7DA C 0.1124(5) 0.0761(5) 0.2010(4)
C7D C 0.6739(5) -0.1376(5) 0.0490(4)
H10R H 0.1775 0.1644 0.0685
H10DA H 0.0856 0.0725 0.1815
H10D H 0.6775 -0.1644 0.0685
H11R H 0.2001 0.1564 0.0319
H11DA H 0.0936 0.0499 0.2181
H11D H 0.7001 -0.1564 0.0319
C8R C 0.2019(5) 0.0225(4) 0.0382(2)
C8DA C 0.2275(4) 0.0481(5) 0.2118(2)
C8D C 0.7019(5) -0.0225(4) 0.0382(2)
H12R H 0.1852 0.0172 0.0170
H12DA H 0.2328 0.0648 0.2330
H12D H 0.6852 -0.0172 0.0170
C9V C 0.2282(4) -0.4835(4) 0.1937(2)
C9D C 0.2718(4) 0.0165(4) 0.1937(2)
C9Z C 0.7335(4) 0.0218(4) 0.0563(2)
H13D H 0.3127 0.0070 0.2010
H13V H 0.1873 -0.4930 0.2010
H13Z H 0.7430 0.0627 0.0490
C10V C 0.3109(4) -0.4787(4) 0.1642(2)
C10D C 0.1891(4) 0.0213(4) 0.1642(2)
C10Z C 0.7287(4) -0.0609(4) 0.0858(2)
H14D H 0.1605 0.0164 0.1468
H14V H 0.3395 -0.4836 0.1468
H14Z H 0.7336 -0.0895 0.1032
O1 O 0.5000 0.2500 0.1250
V5? V 0.3763(2) 0.1440(2) 0.04987(14)
As3? As 0.5276(4) 0.1162(4) 0.0635(2)
As4? As 0.6562(3) 0.2101(4) 0.0474(2)
loop_
_geom_bond_atom_site_label_1
_geom_bond_atom_site_label_2
_geom_bond_site_symmetry_1
_geom_bond_site_symmetry_2
Co1 O5 1_555 1_555
As1 O3 1_555 1_555
As2 O4 1_555 1_555
V1 O5 1_555 1_555
V2 O6 1_555 1_555
V3 O3 1_555 1_555
V4 O2 1_555 1_555
O3 V4 1_555 1_555
O4 V3 1_555 1_555
O6 As1 1_555 1_555
O7 As1 1_555 1_555
O8 V2 1_555 1_555
O9 V1 1_555 1_555
O10 V3 1_555 1_555
O11 V1 1_555 1_555
O12 As2 1_555 1_555
N1 Co1 1_555 1_555
N2 C1 1_555 1_555
N3 Co1 1_555 1_555
N4 C7 1_555 1_555
C1 N1 1_555 1_555
H1 C1 1_555 1_555
C2 N2 1_555 1_555
H2 C2 1_555 1_555
C3 N1 1_555 1_555
H3 C3 1_555 1_555
C4 N2 1_555 1_555
H4 C4 1_555 1_555
H5 C4 1_555 1_555
C5 C4 1_555 1_555
H6 C5 1_555 1_555
H7 C5 1_555 1_555
C6 C5 1_555 1_555
H8 C6 1_555 1_555
H9 C6 1_555 1_555
C7 C6 1_555 1_555
H10 C7 1_555 1_555
H11 C7 1_555 1_555
C8 N4 1_555 1_555
H12 C8 1_555 1_555
C9 N3 1_555 1_555
H13 C9 1_555 1_555
C10 N3 1_555 1_555
H14 C10 1_555 1_555
Co1DA O5V 1_555 1_555
Co1DA_2 N3V 1_555 1_555
Co1Z N1R 1_555 1_555
Co1Z_2 O5R 1_555 1_555
Co1H O5L 1_555 1_555
As1L O3L 1_555 1_555
As1R O3R 1_555 1_555
As1V O3V 1_555 1_555
As2L O4L 1_555 1_555
As2R O4R 1_555 1_555
As2V O4V 1_555 1_555
V1R O5R 1_555 1_555
V1V O5V 1_555 1_555
V1L O5L 1_555 1_555
V2V O11 1_555 1_555
V2L O6L 1_555 1_555
V2R O6R 1_555 1_555
V3R O3R 1_555 1_555
V4L O4 1_555 1_555
V4V O9 1_555 1_555
V4R O2R 1_555 1_555
O2L V4L 1_555 1_555
O2V V4V 1_555 1_555
O3L V3 1_555 1_555
O3R V4R 1_555 1_555
O3V V3R 1_555 1_555
O4L V3 1_555 1_555
O4V V3R 1_555 1_555
O4R V3R 1_555 1_555
O5D Co1 1_555 1_555
O5DA Co1DA 1_555 1_555
O6V As1V 1_555 1_555
O6L As1L 1_555 1_555
O6R As1R 1_555 1_555
O7L As1L 1_555 1_555
O7R As1R 1_555 1_555
O7V As1V 1_555 1_555
O8V V2V 1_555 1_555
O8R V2R 1_555 1_555
O8L V2L 1_555 1_555
O9R V4 1_555 1_555
O9V V1V 1_555 1_555
O9L V1L 1_555 1_555
O10R V3R 1_555 1_555
O11R V2 1_555 1_555
O11V V1V 1_555 1_555
O11L V1L 1_555 1_555
O12R V2 1_555 1_555
O12V As2V 1_555 1_555
O12L As2L 1_555 1_555
N1D Co1 1_555 1_555
N1DA Co1DA 1_555 1_555
N1R C1R 1_555 1_555
N1V Co1DA 1_555 1_555
N2D C1D 1_555 1_555
N2DA C1DA 1_555 1_555
N2R C1R 1_555 1_555
N3D Co1 1_555 1_555
N3V C9V 1_555 1_555
N3Z Co1Z_2 1_555 1_555
N3DA Co1DA 1_555 1_555
N3V_2 Co1DA 1_555 1_555
N4R C10 1_555 1_555
N4DA C7DA 1_555 1_555
N4D C7D 1_555 1_555
C1D N1D 1_555 1_555
C1DA N1DA 1_555 1_555
C1R H1R 1_555 1_555
H1D C1D 1_555 1_555
H1DA C1DA 1_555 1_555
C2D N2D 1_555 1_555
C2DA N2DA 1_555 1_555
C2R N2R 1_555 1_555
H2D C2D 1_555 1_555
H2DA C2DA 1_555 1_555
H2R C2R 1_555 1_555
C3D N1D 1_555 1_555
C3DA N1DA 1_555 1_555
C3R N1R 1_555 1_555
H3D C3D 1_555 1_555
H3DA C3DA 1_555 1_555
H3R C3R 1_555 1_555
C4DA N2DA 1_555 1_555
C4R N2R 1_555 1_555
C4D N2D 1_555 1_555
H4DA C4DA 1_555 1_555
H4R C4R 1_555 1_555
H4D C4D 1_555 1_555
H5DA C4DA 1_555 1_555
H5R C4R 1_555 1_555
H5D C4D 1_555 1_555
C5R C4R 1_555 1_555
C5DA C4DA 1_555 1_555
C5D C4D 1_555 1_555
H6DA C5DA 1_555 1_555
H6R C5R 1_555 1_555
H6D C5D 1_555 1_555
H7DA C5DA 1_555 1_555
H7R C5R 1_555 1_555
H7D C5D 1_555 1_555
C6R C5R 1_555 1_555
C6DA C5DA 1_555 1_555
C6D C5D 1_555 1_555
H8R C6R 1_555 1_555
H8DA C6DA 1_555 1_555
H8D C6D 1_555 1_555
H9R C6R 1_555 1_555
H9DA C6DA 1_555 1_555
H9D C6D 1_555 1_555
C7R N4R 1_555 1_555
C7DA C6DA 1_555 1_555
C7D C6D 1_555 1_555
H10R C7R 1_555 1_555
H10DA C7DA 1_555 1_555
H10D C7D 1_555 1_555
H11R C7R 1_555 1_555
H11DA C7DA 1_555 1_555
H11D C7D 1_555 1_555
C8R C9 1_555 1_555
C8DA N4DA 1_555 1_555
C8D N4D 1_555 1_555
H12R C8R 1_555 1_555
H12DA C8DA 1_555 1_555
H12D C8D 1_555 1_555
C9V C8 1_555 1_555
C9D N3D 1_555 1_555
C9Z N3Z 1_555 1_555
H13D C9D 1_555 1_555
H13V C9V 1_555 1_555
H13Z C9Z 1_555 1_555
C10V N4 1_555 1_555
C10D N3D 1_555 1_555
C10Z N3Z 1_555 1_555
H14D C10D 1_555 1_555
H14V C10V 1_555 1_555
H14Z C10Z 1_555 1_555
As2 O7 1_555 1_555
V1 O6 1_555 1_555
V1 O12 1_555 1_555
V2 O9 1_555 1_555
V4 O4L 1_555 1_555
V4 O11R 1_555 1_555
O11 V4V 1_555 1_555
O12 V2V 1_555 1_555
C2 C3 1_555 1_555
As2L O7L 1_555 1_555
As2R O7R 1_555 1_555
As2R O12R 1_555 1_555
As2V O7V 1_555 1_555
V1R O6R 1_555 1_555
V1R O9R 1_555 1_555
V1R O11R 1_555 1_555
V1R O12R 1_555 1_555
V1V O6V 1_555 1_555
V1V O12V 1_555 1_555
V1L O6L 1_555 1_555
V1L O12L 1_555 1_555
V2V O6V 1_555 1_555
V2V O9V 1_555 1_555
V2L O9L 1_555 1_555
V2L O11V 1_555 1_555
V2L O12V 1_555 1_555
V2R O9R 1_555 1_555
V2R O11L 1_555 1_555
V2R O12L 1_555 1_555
V4L O3L 1_555 1_555
V4L O9V 1_555 1_555
V4L O11V 1_555 1_555
V4V O3V 1_555 1_555
V4V O4R 1_555 1_555
V4R O4V 1_555 1_555
V4R O9L 1_555 1_555
V4R O11L 1_555 1_555
N3V C10V 1_555 1_555
N4R C8R 1_555 1_555
N4DA C10D 1_555 1_555
N4D C10Z 1_555 1_555
C2D C3D 1_555 1_555
C2DA C3DA 1_555 1_555
C2R C3R 1_555 1_555
C6R C7R 1_555 1_555
C8DA C9D 1_555 1_555
C8D C9Z 1_555 1_555

#END
