
#######################################################################
#
#                 Cambridge Crystallographic Data Centre
#                                CCDC 
#
#######################################################################
#
# If this CIF has been generated from an entry in the Cambridge 
# Structural Database, then it will include bibliographic, chemical, 
# crystal, experimental, refinement or atomic coordinate data resulting 
# from the CCDC's data processing and validation procedures.
#
#######################################################################

data_HIJHIS
_symmetry_cell_setting           tetragonal
_symmetry_space_group_name_H-M   'I 41/a c d'
_symmetry_Int_Tables_number      142
_space_group_name_Hall           '-I 4bd 2c'
loop_
_symmetry_equiv_pos_site_id
_symmetry_equiv_pos_as_xyz
1 x,y,z
2 1/4-y,3/4+x,1/4+z
3 1/4+y,1/4-x,3/4+z
4 1/4+y,3/4+x,3/4-z
5 1/4-y,1/4-x,1/4-z
6 1/2+x,1/2+y,1/2+z
7 3/4-y,1/4+x,3/4+z
8 3/4+y,3/4-x,1/4+z
9 3/4+y,1/4+x,1/4-z
10 1/2-x,-y,1/2+z
11 1/2-x,y,-z
12 x,-y,1/2-z
13 -x,1/2-y,z
14 -x,1/2+y,1/2-z
15 1/2+x,1/2-y,-z
16 3/4-y,3/4-x,3/4-z
17 -x,-y,-z
18 3/4+y,1/4-x,3/4-z
19 3/4-y,3/4+x,1/4-z
20 3/4-y,1/4-x,1/4+z
21 3/4+y,3/4+x,3/4+z
22 1/2-x,1/2-y,1/2-z
23 1/4+y,3/4-x,1/4-z
24 1/4-y,1/4+x,3/4-z
25 1/4-y,3/4-x,3/4+z
26 1/2+x,y,1/2-z
27 1/2+x,-y,z
28 -x,y,1/2+z
29 x,1/2+y,-z
30 x,1/2-y,1/2+z
31 1/2-x,1/2+y,z
32 1/4+y,1/4+x,1/4+z
_cell_length_a                   20.9245(4)
_cell_length_b                   20.9245(4)
_cell_length_c                   40.6114(16)
_cell_angle_alpha                90
_cell_angle_beta                 90
_cell_angle_gamma                90
_cell_volume                     17781.1
loop_
_atom_site_label
_atom_site_type_symbol
_atom_site_fract_x
_atom_site_fract_y
_atom_site_fract_z
Ni1 Ni 0.20361(4) 0.04639(4) 0.1250
As1 As 0.33714(14) 0.24096(8) 0.04790(8)
As3 As 0.41961(4) 0.10799(3) 0.048156(19)
V1 V 0.42718(5) 0.36635(5) 0.06378(3)
V3 V 0.31737(5) 0.29122(5) 0.12451(3)
V4 V 0.5000 0.2500 0.03288(4)
V5 V 0.34125(5) 0.15081(5) 0.12117(3)
N1 N 0.2523(3) 0.0001(3) 0.16257(15)
N2 N 0.3264(3) -0.0501(3) 0.19189(18)
N3 N 0.3424(3) -0.3954(3) 0.15975(16)
N4 N 0.3609(3) -0.3129(3) 0.19149(17)
O1 O 0.3987(3) 0.4156(3) 0.03746(14)
O3 O 0.4136(2) 0.2776(2) 0.04707(12)
O4 O 0.2747(2) 0.1132(2) 0.12037(11)
O5 O 0.2427(2) 0.3063(2) 0.12456(12)
O6 O 0.33449(18) 0.21913(18) 0.15259(10)
O7 O 0.33257(19) 0.22385(19) 0.09048(11)
O8 O 0.5000 0.2500 -0.00615(15)
O9 O 0.4855(2) 0.1613(2) 0.04777(12)
O10 O 0.3604(3) 0.1621(2) 0.03374(13)
O11 O 0.40301(19) 0.10874(19) 0.09139(11)
O12 O 0.39855(19) 0.11381(19) 0.15306(10)
C1 C 0.3111(4) -0.0217(4) 0.1632(2)
H1 H 0.3393 -0.0179 0.1456
C2 C 0.2726(5) -0.0466(4) 0.2110(2)
H2 H 0.2677 -0.0630 0.2321
C3 C 0.2279(4) -0.0147(4) 0.1933(2)
H3 H 0.1871 -0.0044 0.2007
C4 C 0.3878(5) -0.0769(5) 0.2004(3)
H4 H 0.4146 -0.0765 0.1809
H5 H 0.4078 -0.0492 0.2166
C5 C 0.3871(6) -0.1393(5) 0.2131(3)
H6 H 0.3560 -0.1408 0.2308
H7 H 0.4286 -0.1479 0.2227
C6 C 0.3718(6) -0.1927(5) 0.1892(2)
H8 H 0.4092 -0.2031 0.1761
H9 H 0.3376 -0.1800 0.1745
C7 C 0.3500(5) -0.2545(5) 0.2110(3)
H10 H 0.3052 -0.2510 0.2168
H11 H 0.3747 -0.2562 0.2312
C8 C 0.4166(5) -0.3432(4) 0.1877(3)
H12 H 0.4559 -0.3316 0.1967
C9 C 0.4042(4) -0.3949(4) 0.1679(3)
H13 H 0.4342 -0.4249 0.1612
C10 C 0.3179(4) -0.3468(3) 0.1746(2)
H14 H 0.2747 -0.3364 0.1737
Ni1DA Ni 0.29639(4) 0.54639(4) 0.1250
Ni1DA_2 Ni 0.29639(4) -0.45361(4) 0.1250
Ni1Z Ni 0.70361(4) -0.04639(4) 0.1250
Ni1Z_2 Ni -0.29639(4) -0.04639(4) 0.1250
Ni1H Ni 0.79639(4) 0.45361(4) 0.1250
As1L As 0.66286(14) 0.25904(8) 0.04790(8)
As1V As 0.49096(8) 0.41286(14) 0.20210(8)
As1R As 0.50904(8) 0.08714(14) 0.20210(8)
As3L As 0.58039(4) 0.39201(3) 0.048156(19)
As3V As 0.35799(3) 0.33039(4) 0.201844(19)
As3R As 0.64201(3) 0.16961(4) 0.201844(19)
V1R V 0.38365(5) 0.17718(5) 0.18622(3)
V1L V 0.57282(5) 0.13365(5) 0.06378(3)
V1V V 0.61635(5) 0.32282(5) 0.18622(3)
V3R V 0.45878(5) 0.06737(5) 0.12549(3)
V3V V 0.54122(5) 0.43263(5) 0.12549(3)
V3L V 0.68263(5) 0.20878(5) 0.12451(3)
V4R V 0.5000 0.2500 0.21712(4)
V5V V 0.40081(5) 0.40875(5) 0.12883(3)
V5L V 0.65875(5) 0.34919(5) 0.12117(3)
V5R V 0.59919(5) 0.09125(5) 0.12883(3)
N1D N 0.2499(3) -0.0023(3) 0.08743(15)
N1DA N 0.2477(3) 0.5001(3) 0.16257(15)
N1R N -0.2501(3) 0.0023(3) 0.08743(15)
N1Z N 0.7523(3) -0.0001(3) 0.16257(15)
N1R_2 N 0.7499(3) 0.0023(3) 0.08743(15)
N2D N 0.3001(3) -0.0764(3) 0.05811(18)
N2DA N 0.1736(3) 0.4499(3) 0.19189(18)
N2R N -0.1999(3) 0.0764(3) 0.05811(18)
N3D N 0.6454(3) -0.0924(3) 0.09025(16)
N3DA N 0.1576(3) 0.1046(3) 0.15975(16)
N3R N 0.1454(3) 0.0924(3) 0.09025(16)
N3L N 0.6576(3) -0.1046(3) 0.15975(16)
N4D N 0.5629(3) -0.1109(3) 0.05851(17)
N4DA N 0.1391(3) 0.1871(3) 0.19149(17)
N4R N 0.0629(3) 0.1109(3) 0.05851(17)
O1R O 0.3344(3) 0.1487(3) 0.21254(14)
O1L O 0.6013(3) 0.0844(3) 0.03746(14)
O1V O 0.6656(3) 0.3513(3) 0.21254(14)
O3L O 0.5864(2) 0.2224(2) 0.04707(12)
O3V O 0.5276(2) 0.3364(2) 0.20293(12)
O3R O 0.4724(2) 0.1636(2) 0.20293(12)
O4D O 0.1368(2) -0.0247(2) 0.12963(11)
O4V O 0.3632(2) 0.4753(2) 0.12963(11)
O4Z O 0.7747(2) -0.1132(2) 0.12037(11)
O4R O 0.6368(2) 0.0247(2) 0.12963(11)
O4L O 0.7253(2) 0.3868(2) 0.12037(11)
O5R O 0.4437(2) -0.0073(2) 0.12544(12)
O5V O 0.5563(2) 0.5073(2) 0.12544(12)
O5L O 0.7573(2) 0.1937(2) 0.12456(12)
O6V O 0.46913(18) 0.41551(18) 0.09741(10)
O6R O 0.53087(18) 0.08449(18) 0.09741(10)
O6L O 0.66551(18) 0.28087(18) 0.15259(10)
O7L O 0.66743(19) 0.27615(19) 0.09048(11)
O7V O 0.47385(19) 0.41743(19) 0.15952(11)
O7R O 0.52615(19) 0.08257(19) 0.15952(11)
O8R O 0.5000 0.2500 0.25615(15)
O9L O 0.5145(2) 0.3387(2) 0.04777(12)
O9V O 0.4113(2) 0.2645(2) 0.20223(12)
O9R O 0.5887(2) 0.2355(2) 0.20223(12)
O10L O 0.6396(3) 0.3379(2) 0.03374(13)
O10V O 0.4121(2) 0.3896(3) 0.21626(13)
O10R O 0.5879(2) 0.1104(3) 0.21626(13)
O11L O 0.59699(19) 0.39126(19) 0.09139(11)
O11V O 0.35874(19) 0.34699(19) 0.15861(11)
O11R O 0.64126(19) 0.15301(19) 0.15861(11)
O12V O 0.36381(19) 0.35145(19) 0.09694(10)
O12R O 0.63619(19) 0.14855(19) 0.09694(10)
O12L O 0.60145(19) 0.38619(19) 0.15306(10)
C1D C 0.2717(4) -0.0611(4) 0.0868(2)
C1DA C 0.1889(4) 0.4783(4) 0.1632(2)
C1R C -0.2283(4) 0.0611(4) 0.0868(2)
H1D H 0.2679 -0.0893 0.1044
H1DA H 0.1607 0.4821 0.1456
H1R H -0.2321 0.0893 0.1044
C2D C 0.2966(4) -0.0226(5) 0.0390(2)
C2DA C 0.2274(5) 0.4534(4) 0.2110(2)
C2R C -0.2034(4) 0.0226(5) 0.0390(2)
H2D H 0.3130 -0.0177 0.0179
H2DA H 0.2323 0.4370 0.2321
H2R H -0.1870 0.0177 0.0179
C3D C 0.2647(4) 0.0221(4) 0.0567(2)
C3DA C 0.2721(4) 0.4853(4) 0.1933(2)
C3R C -0.2353(4) -0.0221(4) 0.0567(2)
H3D H 0.2544 0.0629 0.0493
H3DA H 0.3129 0.4956 0.2007
H3R H -0.2456 -0.0629 0.0493
C4D C 0.3269(5) -0.1378(5) 0.0496(3)
C4DA C 0.1122(5) 0.4231(5) 0.2004(3)
C4R C -0.1731(5) 0.1378(5) 0.0496(3)
H4D H 0.3265 -0.1646 0.0691
H4DA H 0.0854 0.4235 0.1809
H4R H -0.1735 0.1646 0.0691
H5D H 0.2992 -0.1578 0.0334
H5DA H 0.0922 0.4508 0.2166
H5R H -0.2008 0.1578 0.0334
C5D C 0.3893(5) -0.1371(6) 0.0369(3)
C5DA C 0.1129(6) 0.3607(5) 0.2131(3)
C5R C -0.1107(5) 0.1371(6) 0.0369(3)
H6D H 0.3908 -0.1060 0.0192
H6DA H 0.1440 0.3592 0.2308
H6R H -0.1092 0.1060 0.0192
H7D H 0.3979 -0.1786 0.0273
H7DA H 0.0714 0.3521 0.2227
H7R H -0.1021 0.1786 0.0273
C6D C 0.4427(5) -0.1218(6) 0.0608(2)
C6DA C 0.1282(6) 0.3073(5) 0.1892(2)
C6R C -0.0573(5) 0.1218(6) 0.0608(2)
H8D H 0.4531 -0.1592 0.0739
H8DA H 0.0908 0.2969 0.1761
H8R H -0.0469 0.1592 0.0739
H9D H 0.4300 -0.0876 0.0755
H9DA H 0.1624 0.3200 0.1745
H9R H -0.0700 0.0876 0.0755
C7D C 0.5045(5) -0.1000(5) 0.0390(3)
C7DA C 0.1500(5) 0.2455(5) 0.2110(3)
C7R C 0.0045(5) 0.1000(5) 0.0390(3)
H10D H 0.5010 -0.0552 0.0332
H10DA H 0.1948 0.2490 0.2168
H10R H 0.0010 0.0552 0.0332
H11D H 0.5062 -0.1247 0.0188
H11DA H 0.1253 0.2438 0.2312
H11R H 0.0062 0.1247 0.0188
C8D C 0.5932(4) -0.1666(5) 0.0623(3)
C8DA C 0.0834(5) 0.1568(4) 0.1877(3)
C8R C 0.0932(4) 0.1666(5) 0.0623(3)
H12D H 0.5816 -0.2059 0.0533
H12DA H 0.0441 0.1684 0.1967
H12R H 0.0816 0.2059 0.0533
C9D C 0.6449(4) -0.1542(4) 0.0821(3)
C9DA C 0.0958(4) 0.1051(4) 0.1679(3)
C9R C 0.1449(4) 0.1542(4) 0.0821(3)
H13D H 0.6749 -0.1842 0.0888
H13DA H 0.0658 0.0751 0.1612
H13R H 0.1749 0.1842 0.0888
C10D C 0.5968(3) -0.0679(4) 0.0754(2)
C10DA C 0.1821(4) 0.1532(3) 0.1746(2)
C10R C 0.0968(3) 0.0679(4) 0.0754(2)
H14D H 0.5864 -0.0247 0.0763
H14DA H 0.2253 0.1636 0.1737
H14R H 0.0864 0.0247 0.0763
O2 O 0.5000 0.2500 0.1250
As2? As 0.3414(3) 0.2203(3) 0.04724(18)
As4? As 0.4721(3) 0.1157(3) 0.06386(18)
V2? V 0.3943(2) 0.1254(2) 0.20011(11)
loop_
_geom_bond_atom_site_label_1
_geom_bond_atom_site_label_2
_geom_bond_site_symmetry_1
_geom_bond_site_symmetry_2
Ni1 N1 1_555 1_555
As1 O3 1_555 1_555
As3 O9 1_555 1_555
V1 O1 1_555 1_555
V3 O5 1_555 1_555
V4 O3 1_555 1_555
V5 O4 1_555 1_555
N1 C1 1_555 1_555
N2 C1 1_555 1_555
N3 C9 1_555 1_555
N4 C7 1_555 1_555
O3 V1 1_555 1_555
O4 Ni1 1_555 1_555
O6 V3 1_555 1_555
O7 As1 1_555 1_555
O8 V4 1_555 1_555
O9 V4 1_555 1_555
O10 As1 1_555 1_555
O11 As3 1_555 1_555
O12 V5 1_555 1_555
C1 H1 1_555 1_555
C2 N2 1_555 1_555
H2 C2 1_555 1_555
C3 N1 1_555 1_555
H3 C3 1_555 1_555
C4 N2 1_555 1_555
H4 C4 1_555 1_555
H5 C4 1_555 1_555
C5 C4 1_555 1_555
H6 C5 1_555 1_555
H7 C5 1_555 1_555
C6 C5 1_555 1_555
H8 C6 1_555 1_555
H9 C6 1_555 1_555
C7 C6 1_555 1_555
H10 C7 1_555 1_555
H11 C7 1_555 1_555
C8 N4 1_555 1_555
H12 C8 1_555 1_555
C9 C8 1_555 1_555
H13 C9 1_555 1_555
C10 N3 1_555 1_555
H14 C10 1_555 1_555
Ni1DA N1DA 1_555 1_555
Ni1DA_2 N3 1_555 1_555
Ni1Z N1Z 1_555 1_555
Ni1Z_2 N1R 1_555 1_555
Ni1H O4L 1_555 1_555
As1L O3L 1_555 1_555
As1V O3V 1_555 1_555
As1R O3R 1_555 1_555
As3L O9L 1_555 1_555
As3V O9V 1_555 1_555
As3R O9R 1_555 1_555
V1R O6 1_555 1_555
V1L O9 1_555 1_555
V1V O1V 1_555 1_555
V3R O11 1_555 1_555
V3V O5V 1_555 1_555
V3L O5L 1_555 1_555
V4R O3V 1_555 1_555
V5V O4V 1_555 1_555
V5L O4L 1_555 1_555
V5R O4R 1_555 1_555
N1D Ni1 1_555 1_555
N1DA C1DA 1_555 1_555
N1R C1R 1_555 1_555
N1R_2 Ni1Z 1_555 1_555
N2D C1D 1_555 1_555
N2DA C1DA 1_555 1_555
N2R C1R 1_555 1_555
N3D Ni1Z 1_555 1_555
N3DA Ni1 1_555 1_555
N3R Ni1 1_555 1_555
N3L Ni1Z 1_555 1_555
N4D C7D 1_555 1_555
N4DA C7DA 1_555 1_555
N4R C7R 1_555 1_555
O1R V1R 1_555 1_555
O1L V1L 1_555 1_555
O3L V4 1_555 1_555
O3V V1V 1_555 1_555
O3R V1R 1_555 1_555
O4D Ni1 1_555 1_555
O4V Ni1DA 1_555 1_555
O4Z Ni1Z 1_555 1_555
O4R Ni1Z 1_555 1_555
O5R V3R 1_555 1_555
O6V V1 1_555 1_555
O6R V1L 1_555 1_555
O6L V1V 1_555 1_555
O7L As1L 1_555 1_555
O7V As1V 1_555 1_555
O7R As1R 1_555 1_555
O8R V4R 1_555 1_555
O9L V1 1_555 1_555
O9V V1R 1_555 1_555
O9R V1V 1_555 1_555
O10L As1L 1_555 1_555
O10V As1V 1_555 1_555
O10R As1R 1_555 1_555
O11L As3L 1_555 1_555
O11V V3 1_555 1_555
O11R As3R 1_555 1_555
O12V V1 1_555 1_555
O12R V1L 1_555 1_555
O12L V1V 1_555 1_555
C1D N1D 1_555 1_555
C1DA H1DA 1_555 1_555
C1R H1R 1_555 1_555
H1D C1D 1_555 1_555
C2D N2D 1_555 1_555
C2DA N2DA 1_555 1_555
C2R N2R 1_555 1_555
H2D C2D 1_555 1_555
H2DA C2DA 1_555 1_555
H2R C2R 1_555 1_555
C3D N1D 1_555 1_555
C3DA N1DA 1_555 1_555
C3R N1R 1_555 1_555
H3D C3D 1_555 1_555
H3DA C3DA 1_555 1_555
H3R C3R 1_555 1_555
C4D N2D 1_555 1_555
C4DA N2DA 1_555 1_555
C4R N2R 1_555 1_555
H4D C4D 1_555 1_555
H4DA C4DA 1_555 1_555
H4R C4R 1_555 1_555
H5D C4D 1_555 1_555
H5DA C4DA 1_555 1_555
H5R C4R 1_555 1_555
C5D C4D 1_555 1_555
C5DA C4DA 1_555 1_555
C5R C4R 1_555 1_555
H6D C5D 1_555 1_555
H6DA C5DA 1_555 1_555
H6R C5R 1_555 1_555
H7D C5D 1_555 1_555
H7DA C5DA 1_555 1_555
H7R C5R 1_555 1_555
C6D C5D 1_555 1_555
C6DA C5DA 1_555 1_555
C6R C5R 1_555 1_555
H8D C6D 1_555 1_555
H8DA C6DA 1_555 1_555
H8R C6R 1_555 1_555
H9D C6D 1_555 1_555
H9DA C6DA 1_555 1_555
H9R C6R 1_555 1_555
C7D C6D 1_555 1_555
C7DA C6DA 1_555 1_555
C7R C6R 1_555 1_555
H10D C7D 1_555 1_555
H10DA C7DA 1_555 1_555
H10R C7R 1_555 1_555
H11D C7D 1_555 1_555
H11DA C7DA 1_555 1_555
H11R C7R 1_555 1_555
C8D N4D 1_555 1_555
C8DA N4DA 1_555 1_555
C8R N4R 1_555 1_555
H12D C8D 1_555 1_555
H12DA C8DA 1_555 1_555
H12R C8R 1_555 1_555
C9D N3D 1_555 1_555
C9DA N3DA 1_555 1_555
C9R N3R 1_555 1_555
H13D C9D 1_555 1_555
H13DA C9DA 1_555 1_555
H13R C9R 1_555 1_555
C10D N3D 1_555 1_555
C10DA N3DA 1_555 1_555
C10R N3R 1_555 1_555
H14D C10D 1_555 1_555
H14DA C10DA 1_555 1_555
H14R C10R 1_555 1_555
As3 O10 1_555 1_555
V3 O7 1_555 1_555
V3 O12V 1_555 1_555
V4 O9L 1_555 1_555
V5 O6 1_555 1_555
V5 O7 1_555 1_555
V5 O11 1_555 1_555
N4 C10 1_555 1_555
O12 V1R 1_555 1_555
O12 V3R 1_555 1_555
C2 C3 1_555 1_555
As3L O10L 1_555 1_555
As3V O10V 1_555 1_555
As3V O11V 1_555 1_555
As3R O10R 1_555 1_555
V1L O3L 1_555 1_555
V3R O6R 1_555 1_555
V3R O7R 1_555 1_555
V3V O6V 1_555 1_555
V3V O7V 1_555 1_555
V3V O11L 1_555 1_555
V3V O12L 1_555 1_555
V3L O6L 1_555 1_555
V3L O7L 1_555 1_555
V3L O11R 1_555 1_555
V3L O12R 1_555 1_555
V4R O3R 1_555 1_555
V4R O9V 1_555 1_555
V4R O9R 1_555 1_555
V5V O6V 1_555 1_555
V5V O7V 1_555 1_555
V5V O11V 1_555 1_555
V5V O12V 1_555 1_555
V5L O6L 1_555 1_555
V5L O7L 1_555 1_555
V5L O11L 1_555 1_555
V5L O12L 1_555 1_555
V5R O6R 1_555 1_555
V5R O7R 1_555 1_555
V5R O11R 1_555 1_555
V5R O12R 1_555 1_555
N4D C10D 1_555 1_555
N4DA C10DA 1_555 1_555
N4R C10R 1_555 1_555
C2D C3D 1_555 1_555
C2DA C3DA 1_555 1_555
C2R C3R 1_555 1_555
C8D C9D 1_555 1_555
C8DA C9DA 1_555 1_555
C8R C9R 1_555 1_555

#END
