
#######################################################################
#
#                 Cambridge Crystallographic Data Centre
#                                CCDC 
#
#######################################################################
#
# If this CIF has been generated from an entry in the Cambridge 
# Structural Database, then it will include bibliographic, chemical, 
# crystal, experimental, refinement or atomic coordinate data resulting 
# from the CCDC's data processing and validation procedures.
#
#######################################################################

data_HIJKOC
_symmetry_cell_setting           orthorhombic
_symmetry_space_group_name_H-M   'C 2 2 21'
_symmetry_Int_Tables_number      20
_space_group_name_Hall           'C 2n 2'
loop_
_symmetry_equiv_pos_site_id
_symmetry_equiv_pos_as_xyz
1 x,y,z
2 -x,-y,1/2+z
3 x,-y,-z
4 -x,y,1/2-z
5 1/2+x,1/2+y,z
6 1/2-x,1/2-y,1/2+z
7 1/2+x,1/2-y,-z
8 1/2-x,1/2+y,1/2-z
_cell_length_a                   8.090(5)
_cell_length_b                   27.992(5)
_cell_length_c                   17.987(5)
_cell_angle_alpha                90
_cell_angle_beta                 90
_cell_angle_gamma                90
_cell_volume                     4073.25
loop_
_atom_site_label
_atom_site_type_symbol
_atom_site_fract_x
_atom_site_fract_y
_atom_site_fract_z
Cd1 Cd 1.0000 0.228665(10) 0.7500
Cu1 Cu 1.00345(9) 0.160567(13) 0.902550(19)
O1 O 1.0489(3) 0.22677(8) 0.87716(13)
O2 O 0.8768(3) 0.16548(8) 0.81194(13)
C1 C 1.1174(5) 0.25581(15) 0.9974(2)
C2 C 0.6392(4) 0.28813(13) 0.7555(4)
N1 N 0.9785(6) 0.09138(11) 0.90657(17)
C3 C 0.8147(5) 0.08277(15) 0.7937(2)
C4 C 0.6378(6) 0.1075(2) 0.6665(3)
H1 H 0.5776 0.1159 0.6245
C5 C 0.7113(5) 0.14260(18) 0.7093(2)
H2 H 0.7000 0.1745 0.6958
C6 C 0.7384(6) 0.04807(16) 0.7450(5)
H3 H 0.7500 0.0158 0.7562
C7 C 1.0776(5) 0.26295(14) 0.9223(2)
C8 C 1.0686(6) 0.30995(14) 0.8949(3)
H4 H 1.0419 0.3152 0.8453
C9 C 0.6531(7) 0.0602(3) 0.6857(3)
H5 H 0.6031 0.0368 0.6567
C10 C 0.9010(6) 0.06628(15) 0.8584(3)
H6 H 0.9007 0.0335 0.8663
C11 C 1.0509(8) 0.06180(18) 0.9666(3)
H7 H 0.9907 0.0319 0.9696
H8 H 1.1646 0.0544 0.9539
C12 C 1.0472(11) 0.0851(2) 1.0389(4)
H9 H 0.9341 0.0945 1.0494
H10 H 1.0792 0.0619 1.0763
C13 C 1.1401(7) 0.34078(18) 1.0156(3)
H11 H 1.1625 0.3666 1.0465
N2 N 0.5000 0.3100(2) 0.7500
C14 C 1.0995(6) 0.34872(17) 0.9414(3)
H12 H 1.0930 0.3797 0.9230
C15 C 1.1470(6) 0.2970(2) 1.0425(3)
H13 H 1.1720 0.2927 1.0926
C16 C 0.8036(4) 0.13041(14) 0.77341(19)
C17 C 1.1318(7) 0.2105(2) 1.0298(2)
H14 H 1.1676 0.2104 1.0789
C18 C 1.1461(12) 0.1245(3) 1.0468(4)
H15 H 1.2581 0.1153 1.0339
H16 H 1.1465 0.1333 1.0989
N3 N 1.1030(6) 0.16910(14) 1.0018(2)
N4 N 0.7691(4) 0.27379(12) 0.7637(2)
C2C C 0.3608(4) 0.28813(13) 0.7445(4)
N4C N 0.2309(4) 0.27379(12) 0.7363(2)
Cu1C Cu 0.99655(9) 0.160567(13) 0.597450(19)
O1C O 0.9511(3) 0.22677(8) 0.62284(13)
O2C O 1.1232(3) 0.16548(8) 0.68806(13)
C1C C 0.8826(5) 0.25581(15) 0.5026(2)
N1C N 1.0215(6) 0.09138(11) 0.59343(17)
C3C C 1.1853(5) 0.08277(15) 0.7063(2)
C4C C 1.3622(6) 0.1075(2) 0.8335(3)
H1C H 1.4224 0.1159 0.8755
C5C C 1.2887(5) 0.14260(18) 0.7907(2)
H2C H 1.3000 0.1745 0.8042
C6C C 1.2616(6) 0.04807(16) 0.7550(5)
H3C H 1.2500 0.0158 0.7438
C7C C 0.9224(5) 0.26295(14) 0.5777(2)
C8C C 0.9314(6) 0.30995(14) 0.6051(3)
H4C H 0.9581 0.3152 0.6547
C9C C 1.3469(7) 0.0602(3) 0.8143(3)
H5C H 1.3969 0.0368 0.8433
C10C C 1.0990(6) 0.06628(15) 0.6416(3)
H6C H 1.0993 0.0335 0.6337
C11C C 0.9491(8) 0.06180(18) 0.5334(3)
H7C H 1.0093 0.0319 0.5304
H8C H 0.8354 0.0544 0.5461
C12C C 0.9528(11) 0.0851(2) 0.4611(4)
H9C H 1.0659 0.0945 0.4506
H10C H 0.9208 0.0619 0.4237
C13C C 0.8599(7) 0.34078(18) 0.4844(3)
H11C H 0.8375 0.3666 0.4535
C14C C 0.9005(6) 0.34872(17) 0.5586(3)
H12C H 0.9070 0.3797 0.5770
C15C C 0.8530(6) 0.2970(2) 0.4575(3)
H13C H 0.8280 0.2927 0.4074
C16C C 1.1964(4) 0.13041(14) 0.72659(19)
C17C C 0.8682(7) 0.2105(2) 0.4702(2)
H14C H 0.8324 0.2104 0.4211
C18C C 0.8539(12) 0.1245(3) 0.4532(4)
H15C H 0.7419 0.1153 0.4661
H16C H 0.8535 0.1333 0.4011
N3C N 0.8970(6) 0.16910(14) 0.4982(2)
Cd1_2 Cd 0.0000 0.228665(10) 0.7500
N4C_2 N 1.2309(4) 0.27379(12) 0.7363(2)
Cl1 Cl 0.5726(3) 0.0000 1.0000
O3 O 0.6219(17) 0.0252(7) 0.9523(6)
O4 O 0.4222(15) -0.0274(3) 0.9769(10)
O3B O 0.6219(17) -0.0252(7) 1.0477(6)
O4B O 0.4222(15) 0.0274(3) 1.0231(10)
loop_
_geom_bond_atom_site_label_1
_geom_bond_atom_site_label_2
_geom_bond_site_symmetry_1
_geom_bond_site_symmetry_2
Cd1 O1 1_555 1_555
Cu1 O1 1_555 1_555
O1 C7 1_555 1_555
O2 Cd1 1_555 1_555
C1 C7 1_555 1_555
C2 N2 1_555 1_555
N1 Cu1 1_555 1_555
C3 C6 1_555 1_555
C4 H1 1_555 1_555
C5 C4 1_555 1_555
H2 C5 1_555 1_555
C6 H3 1_555 1_555
C7 C8 1_555 1_555
C8 H4 1_555 1_555
C9 C4 1_555 1_555
H5 C9 1_555 1_555
C10 N1 1_555 1_555
H6 C10 1_555 1_555
C11 N1 1_555 1_555
H7 C11 1_555 1_555
H8 C11 1_555 1_555
C12 C11 1_555 1_555
H9 C12 1_555 1_555
H10 C12 1_555 1_555
C13 H11 1_555 1_555
N2 C2C 1_555 1_555
C14 C8 1_555 1_555
H12 C14 1_555 1_555
C15 C1 1_555 1_555
H13 C15 1_555 1_555
C16 O2 1_555 1_555
C17 C1 1_555 1_555
H14 C17 1_555 1_555
C18 C12 1_555 1_555
H15 C18 1_555 1_555
H16 C18 1_555 1_555
N3 Cu1 1_555 1_555
N4 Cd1 1_555 1_555
Cl1 O3 1_555 1_555
O4 Cl1 1_555 1_555
C2C N4C 1_555 1_555
N4C Cd1_2 1_555 1_555
Cu1C O1C 1_555 1_555
O1C Cd1 1_555 1_555
O2C Cd1 1_555 1_555
C1C C7C 1_555 1_555
N1C Cu1C 1_555 1_555
C3C C6C 1_555 1_555
C4C H1C 1_555 1_555
C5C C4C 1_555 1_555
H2C C5C 1_555 1_555
C6C H3C 1_555 1_555
C7C O1C 1_555 1_555
C8C C7C 1_555 1_555
H4C C8C 1_555 1_555
C9C C4C 1_555 1_555
H5C C9C 1_555 1_555
C10C N1C 1_555 1_555
H6C C10C 1_555 1_555
C11C N1C 1_555 1_555
H7C C11C 1_555 1_555
H8C C11C 1_555 1_555
C12C C11C 1_555 1_555
H9C C12C 1_555 1_555
H10C C12C 1_555 1_555
C13C H11C 1_555 1_555
C14C C8C 1_555 1_555
H12C C14C 1_555 1_555
C15C C1C 1_555 1_555
H13C C15C 1_555 1_555
C16C O2C 1_555 1_555
C17C C1C 1_555 1_555
H14C C17C 1_555 1_555
C18C C12C 1_555 1_555
H15C C18C 1_555 1_555
H16C C18C 1_555 1_555
N3C Cu1C 1_555 1_555
N4C_2 Cd1 1_555 1_555
O3B Cl1 1_555 1_555
O4B Cl1 1_555 1_555
Cu1 O2 1_555 1_555
C2 N4 1_555 1_555
C3 C10 1_555 1_555
C3 C16 1_555 1_555
C5 C16 1_555 1_555
C6 C9 1_555 1_555
C13 C14 1_555 1_555
C13 C15 1_555 1_555
C17 N3 1_555 1_555
C18 N3 1_555 1_555
Cu1C O2C 1_555 1_555
C3C C10C 1_555 1_555
C3C C16C 1_555 1_555
C5C C16C 1_555 1_555
C6C C9C 1_555 1_555
C13C C14C 1_555 1_555
C13C C15C 1_555 1_555
C17C N3C 1_555 1_555
C18C N3C 1_555 1_555

#END
