
#######################################################################
#
#                 Cambridge Crystallographic Data Centre
#                                CCDC 
#
#######################################################################
#
# If this CIF has been generated from an entry in the Cambridge 
# Structural Database, then it will include bibliographic, chemical, 
# crystal, experimental, refinement or atomic coordinate data resulting 
# from the CCDC's data processing and validation procedures.
#
#######################################################################

data_HIJKIW
_symmetry_cell_setting           trigonal
_symmetry_space_group_name_H-M   'P 32 2 1'
_symmetry_Int_Tables_number      154
_space_group_name_Hall           'P 32 2"'
loop_
_symmetry_equiv_pos_site_id
_symmetry_equiv_pos_as_xyz
1 x,y,z
2 -y,x-y,2/3+z
3 -x+y,-x,1/3+z
4 x-y,-y,1/3-z
5 -x,-x+y,2/3-z
6 y,x,-z
_cell_length_a                   11.377(5)
_cell_length_b                   11.377(5)
_cell_length_c                   25.411(5)
_cell_angle_alpha                90
_cell_angle_beta                 90
_cell_angle_gamma                120
_cell_volume                     2848.45
loop_
_atom_site_label
_atom_site_type_symbol
_atom_site_fract_x
_atom_site_fract_y
_atom_site_fract_z
Cd1 Cd 0.50426(2) 0.50426(2) 1.0000
Cu1 Cu 0.31136(4) 0.25130(4) 0.922434(15)
O1 O 0.5015(2) 0.3838(2) 0.92989(7)
O2 O 0.2932(2) 0.3939(3) 0.95625(9)
C1 C 0.7177(4) 0.5182(4) 0.89284(13)
H1 H 0.7283 0.5929 0.9118
C2 C 0.5867(4) 0.2839(4) 0.86955(11)
C3 C 0.1980(4) 0.5301(5) 0.97691(14)
H2 H 0.2824 0.6005 0.9873
C4 C 0.5992(3) 0.3952(4) 0.89822(10)
N1 N 0.3638(4) 0.1145(3) 0.90053(11)
N2 N 0.3031(5) 0.2999(5) 0.83067(14)
N3 N 0.4323(4) 0.1432(5) 0.69966(13)
C5 C 0.6945(5) 0.3031(5) 0.83607(13)
H3 H 0.6871 0.2295 0.8172
N4 N 0.3326(7) 0.2617(7) 0.74056(16)
C6 C 0.3234(4) 0.2798(4) 0.78989(14)
C7 C 0.1867(3) 0.4095(5) 0.95830(11)
C8 C 0.0865(5) 0.5469(7) 0.98014(17)
H4 H 0.0966 0.6280 0.9930
C9 C 0.0567(4) 0.3049(6) 0.94323(15)
C10 C 0.4751(4) 0.1493(4) 0.87675(13)
H5 H 0.4849 0.0794 0.8625
N5 N 0.1152(4) 0.1257(5) 0.9259(2)
C11 C 0.2691(6) -0.0320(5) 0.9077(2)
H6 H 0.2959 -0.0821 0.8845
H7 H 0.2765 -0.0566 0.9436
C12 C 0.0312(4) 0.1688(7) 0.9302(2)
H8 H -0.0592 0.1043 0.9242
C13 C 0.8209(4) 0.5326(5) 0.85994(15)
H9 H 0.9002 0.6163 0.8577
C14 C 0.8089(5) 0.4267(6) 0.83079(16)
H10 H 0.8774 0.4384 0.8077
C15 C -0.0419(6) 0.4435(10) 0.9643(2)
H11 H -0.1171 0.4551 0.9664
C16 C -0.0538(5) 0.3275(9) 0.9462(2)
H12 H -0.1386 0.2591 0.9352
C17 C 0.1300(8) -0.0720(7) 0.8973(4)
H13 H 0.1256 -0.0549 0.8602
H14 H 0.0790 -0.1698 0.9017
C18 C 0.0610(7) -0.0259(8) 0.9213(5)
H15 H 0.0444 -0.0622 0.9568
H16 H -0.0265 -0.0648 0.9040
C19 C 0.3877(4) 0.1976(5) 0.72192(14)
Cu1E Cu 0.25130(4) 0.31136(4) 1.077566(15)
O1E O 0.3838(2) 0.5015(2) 1.07011(7)
O2E O 0.3939(3) 0.2932(2) 1.04375(9)
C1E C 0.5182(4) 0.7177(4) 1.10716(13)
H1E H 0.5929 0.7283 1.0882
C2E C 0.2839(4) 0.5867(4) 1.13045(11)
C3E C 0.5301(5) 0.1980(4) 1.02309(14)
H2E H 0.6005 0.2824 1.0127
C4E C 0.3952(4) 0.5992(3) 1.10178(10)
N1E N 0.1145(3) 0.3638(4) 1.09947(11)
N2E N 0.2999(5) 0.3031(5) 1.16933(14)
N3E N 0.1432(5) 0.4323(4) 1.30034(13)
C5E C 0.3031(5) 0.6945(5) 1.16393(13)
H3E H 0.2295 0.6871 1.1828
N4E N 0.2617(7) 0.3326(7) 1.25944(16)
C6E C 0.2798(4) 0.3234(4) 1.21011(14)
C7E C 0.4095(5) 0.1867(3) 1.04170(11)
C8E C 0.5469(7) 0.0865(5) 1.01986(17)
H4E H 0.6280 0.0966 1.0070
C9E C 0.3049(6) 0.0567(4) 1.05677(15)
C10E C 0.1493(4) 0.4751(4) 1.12325(13)
H5E H 0.0794 0.4849 1.1375
N5E N 0.1257(5) 0.1152(4) 1.0741(2)
C11E C -0.0320(5) 0.2691(6) 1.0923(2)
H6E H -0.0821 0.2959 1.1155
H7E H -0.0566 0.2765 1.0564
C12E C 0.1688(7) 0.0312(4) 1.0698(2)
H8E H 0.1043 -0.0592 1.0758
C13E C 0.5326(5) 0.8209(4) 1.14006(15)
H9E H 0.6163 0.9002 1.1423
C14E C 0.4267(6) 0.8089(5) 1.16921(16)
H10E H 0.4384 0.8774 1.1923
C15E C 0.4435(10) -0.0419(6) 1.0357(2)
H11E H 0.4551 -0.1171 1.0336
C16E C 0.3275(9) -0.0538(5) 1.0538(2)
H12E H 0.2591 -0.1386 1.0648
C17E C -0.0720(7) 0.1300(8) 1.1027(4)
H13E H -0.0549 0.1256 1.1398
H14E H -0.1698 0.0790 1.0983
C18E C -0.0259(8) 0.0610(7) 1.0787(5)
H15E H -0.0622 0.0444 1.0432
H16E H -0.0648 -0.0265 1.0960
C19E C 0.1976(5) 0.3877(4) 1.27808(14)
Cd1A Cd 0.49574(2) 0.00000(3) 0.6667
Cd1B Cd 0.00000(3) 0.49574(2) 1.3333
N3B N 0.7109(6) 0.5677(4) 1.03299(13)
N3D N 0.5677(4) 0.7109(6) 0.96701(13)
loop_
_geom_bond_atom_site_label_1
_geom_bond_atom_site_label_2
_geom_bond_site_symmetry_1
_geom_bond_site_symmetry_2
Cd1 O1 1_555 1_555
Cu1 O1 1_555 1_555
O1 C4 1_555 1_555
O2 Cd1 1_555 1_555
C1 H1 1_555 1_555
C2 C4 1_555 1_555
C3 H2 1_555 1_555
C4 C1 1_555 1_555
N1 Cu1 1_555 1_555
N2 Cu1 1_555 1_555
N3 C19 1_555 1_555
C5 C2 1_555 1_555
H3 C5 1_555 1_555
N4 C6 1_555 1_555
C6 N2 1_555 1_555
C7 O2 1_555 1_555
C8 C3 1_555 1_555
H4 C8 1_555 1_555
C9 C7 1_555 1_555
C10 C2 1_555 1_555
H5 C10 1_555 1_555
N5 Cu1 1_555 1_555
C11 N1 1_555 1_555
H6 C11 1_555 1_555
H7 C11 1_555 1_555
C12 C9 1_555 1_555
H8 C12 1_555 1_555
C13 C1 1_555 1_555
H9 C13 1_555 1_555
C14 C5 1_555 1_555
H10 C14 1_555 1_555
C15 C8 1_555 1_555
H11 C15 1_555 1_555
C16 C9 1_555 1_555
H12 C16 1_555 1_555
C17 C11 1_555 1_555
H13 C17 1_555 1_555
H14 C17 1_555 1_555
C18 N5 1_555 1_555
H15 C18 1_555 1_555
H16 C18 1_555 1_555
C19 N4 1_555 1_555
Cu1E O1E 1_555 1_555
O1E Cd1 1_555 1_555
O2E Cd1 1_555 1_555
C1E H1E 1_555 1_555
C2E C4E 1_555 1_555
C3E H2E 1_555 1_555
C4E O1E 1_555 1_555
N1E Cu1E 1_555 1_555
N2E Cu1E 1_555 1_555
N3E C19E 1_555 1_555
C5E C2E 1_555 1_555
H3E C5E 1_555 1_555
N4E C6E 1_555 1_555
C6E N2E 1_555 1_555
C7E O2E 1_555 1_555
C8E C3E 1_555 1_555
H4E C8E 1_555 1_555
C9E C7E 1_555 1_555
C10E C2E 1_555 1_555
H5E C10E 1_555 1_555
N5E Cu1E 1_555 1_555
C11E N1E 1_555 1_555
H6E C11E 1_555 1_555
H7E C11E 1_555 1_555
C12E C9E 1_555 1_555
H8E C12E 1_555 1_555
C13E C1E 1_555 1_555
H9E C13E 1_555 1_555
C14E C5E 1_555 1_555
H10E C14E 1_555 1_555
C15E C8E 1_555 1_555
H11E C15E 1_555 1_555
C16E C9E 1_555 1_555
H12E C16E 1_555 1_555
C17E C11E 1_555 1_555
H13E C17E 1_555 1_555
H14E C17E 1_555 1_555
C18E N5E 1_555 1_555
H15E C18E 1_555 1_555
H16E C18E 1_555 1_555
C19E N4E 1_555 1_555
Cd1A N3 1_555 1_555
Cd1B N3E 1_555 1_555
N3B Cd1 1_555 1_555
N3D Cd1 1_555 1_555
Cu1 O2 1_555 1_555
C3 C7 1_555 1_555
N1 C10 1_555 1_555
N5 C12 1_555 1_555
C13 C14 1_555 1_555
C15 C16 1_555 1_555
C17 C18 1_555 1_555
Cu1E O2E 1_555 1_555
C1E C4E 1_555 1_555
C3E C7E 1_555 1_555
N1E C10E 1_555 1_555
N5E C12E 1_555 1_555
C13E C14E 1_555 1_555
C15E C16E 1_555 1_555
C17E C18E 1_555 1_555

#END
