
#######################################################################
#
#                 Cambridge Crystallographic Data Centre
#                                CCDC 
#
#######################################################################
#
# If this CIF has been generated from an entry in the Cambridge 
# Structural Database, then it will include bibliographic, chemical, 
# crystal, experimental, refinement or atomic coordinate data resulting 
# from the CCDC's data processing and validation procedures.
#
#######################################################################

data_HIJLAN01
_symmetry_cell_setting           triclinic
_symmetry_space_group_name_H-M   'P -1'
_symmetry_Int_Tables_number      2
_space_group_name_Hall           '-P 1'
loop_
_symmetry_equiv_pos_site_id
_symmetry_equiv_pos_as_xyz
1 x,y,z
2 -x,-y,-z
_cell_length_a                   8.0687(8)
_cell_length_b                   15.7933(19)
_cell_length_c                   16.051(3)
_cell_angle_alpha                116.537(11)
_cell_angle_beta                 102.370(11)
_cell_angle_gamma                90.391(9)
_cell_volume                     1775.08
loop_
_atom_site_label
_atom_site_type_symbol
_atom_site_fract_x
_atom_site_fract_y
_atom_site_fract_z
Ag1 Ag 0.20456(5) 0.04661(3) 0.22565(3)
S1 S 0.09406(19) 0.16561(10) 0.37547(11)
S2 S -0.10577(17) 0.09156(12) 0.15563(11)
O1 O 0.0378(7) -0.0894(5) 0.0553(4)
O2 O 0.2496(8) -0.1205(4) 0.1999(4)
O3 O 0.3330(5) 0.0249(3) 0.3915(3)
N1 N -0.2704(9) 0.1208(5) 0.4597(5)
N2 N -0.5324(7) 0.0462(4) 0.1945(4)
C1 C -0.1211(7) 0.1174(4) 0.3323(4)
C2 C -0.2053(7) 0.0877(4) 0.2409(4)
C3 C -0.2107(8) -0.0158(6) 0.0484(4)
C4 C -0.1429(10) -0.1039(6) 0.0473(5)
C5 C 0.1270(14) -0.1698(7) 0.0371(6)
C6 C 0.1498(15) -0.1978(6) 0.1110(7)
C7 C 0.2773(9) -0.1440(5) 0.2765(5)
C8 C 0.3960(9) -0.0665(5) 0.3622(5)
C9 C 0.2021(8) 0.0357(5) 0.4406(4)
C10 C 0.1624(10) 0.1371(5) 0.4739(4)
C11 C -0.2102(9) 0.1194(4) 0.4013(5)
C12 C -0.3885(7) 0.0631(4) 0.2135(4)
H1 H -0.33480 -0.02080 0.04450
H2 H -0.19500 -0.01090 -0.00880
H3 H -0.16320 -0.11250 0.10190
H4 H -0.19830 -0.16070 -0.01330
H5 H 0.24050 -0.15560 0.02900
H6 H 0.06370 -0.22370 -0.02400
H7 H 0.20970 -0.25550 0.09350
H8 H 0.03720 -0.21290 0.11950
H9 H 0.32730 -0.20500 0.25800
H10 H 0.16730 -0.15160 0.29170
H11 H 0.41410 -0.08270 0.41610
H12 H 0.50790 -0.06240 0.34750
H13 H 0.24100 0.02270 0.49620
H14 H 0.09920 -0.00920 0.39720
H15 H 0.26560 0.18070 0.51910
H16 H 0.07130 0.14750 0.50900
N2_2 N 0.4676(7) 0.0462(4) 0.1945(4)
Ag1_2 Ag -0.79544(5) 0.04661(3) 0.22565(3)
Ag2 Ag 0.40323(6) 0.40971(3) 0.74746(3)
Cl1 Cl 0.2341(3) 0.22309(12) 0.75175(12)
S3 S 0.3090(2) 0.56772(12) 0.87846(12)
S4 S 0.14746(19) 0.47461(10) 0.65463(11)
O4 O 0.4129(9) 0.3506(5) 0.5701(4)
O5 O 0.6884(6) 0.3745(4) 0.7206(5)
O6 O 0.6615(7) 0.4929(4) 0.9112(4)
O7 O 0.1520(14) 0.2995(7) 0.7981(8)
O8 O 0.3580(14) 0.2472(8) 0.7114(8)
O9 O 0.3296(13) 0.1972(7) 0.8255(7)
O10 O 0.1423(13) 0.1374(7) 0.6811(7)
N3 N 0.4506(7) 0.8081(4) 0.9133(4)
N4 N 0.2454(8) 0.6821(4) 0.6189(4)
C13 C 0.3157(7) 0.6316(4) 0.8129(4)
C14 C 0.2475(7) 0.5922(4) 0.7178(4)
C15 C 0.1906(8) 0.4355(4) 0.5379(4)
C16 C 0.3733(8) 0.4195(5) 0.5367(4)
C17 C 0.5542(14) 0.3026(10) 0.5507(8)
C18 C 0.6942(14) 0.3596(7) 0.6165(8)
C19 C 0.8267(9) 0.4399(5) 0.7892(5)
C20 C 0.8163(11) 0.4573(7) 0.8858(7)
C21 C 0.6634(10) 0.5924(5) 0.9446(5)
C22 C 0.5004(10) 0.6211(5) 0.9754(5)
C23 C 0.3877(8) 0.7291(4) 0.8659(4)
C24 C 0.2469(7) 0.6449(4) 0.6658(4)
H17 H 0.11660 0.37540 0.49200
H18 H 0.56410 0.28760 0.48530
H19 H 0.69910 0.42220 0.61620
H20 H 0.79830 0.33050 0.59980
H21 H 0.82460 0.50050 0.78500
H22 H 0.93540 0.41430 0.77660
H23 H 0.82680 0.39690 0.89030
H24 H 0.91450 0.50370 0.93330
H25 H 0.67210 0.60890 0.89300
H26 H 0.76310 0.62640 0.99950
H27 H 0.50460 0.69130 1.00370
H28 H 0.49310 0.60270 1.02600
H29 H 0.16010 0.48380 0.51570
H30 H 0.38880 0.39590 0.47070
H31 H 0.44940 0.47980 0.57900
H32 H 0.54260 0.24210 0.55460
Cl2 Cl 0.2129(2) 0.32286(11) 0.24773(11)
O15 O 0.3585(7) 0.3915(4) 0.2780(5)
O16 O 0.1244(8) 0.3448(6) 0.3185(4)
O17 O 0.0956(10) 0.3279(6) 0.1686(4)
O18 O 0.2629(12) 0.2327(5) 0.2197(9)
O11? O 0.198(2) 0.2869(11) 0.8404(11)
O12? O 0.088(2) 0.2393(12) 0.6827(11)
O13? O 0.200(2) 0.1291(10) 0.7266(13)
O14? O 0.383(2) 0.2553(14) 0.7401(13)
loop_
_geom_bond_atom_site_label_1
_geom_bond_atom_site_label_2
_geom_bond_site_symmetry_1
_geom_bond_site_symmetry_2
Ag1 S1 1_555 1_555
S1 C1 1_555 1_555
S2 Ag1 1_555 1_555
O1 Ag1 1_555 1_555
O2 Ag1 1_555 1_555
O3 Ag1 1_555 1_555
N1 C11 1_555 1_555
N2 C12 1_555 1_555
C1 C2 1_555 1_555
C2 S2 1_555 1_555
C3 S2 1_555 1_555
C4 O1 1_555 1_555
C5 O1 1_555 1_555
C6 O2 1_555 1_555
C7 O2 1_555 1_555
C8 O3 1_555 1_555
C9 O3 1_555 1_555
C10 S1 1_555 1_555
C11 C1 1_555 1_555
C12 C2 1_555 1_555
Ag2 S3 1_555 1_555
Cl1 O7 1_555 1_555
S3 C13 1_555 1_555
S4 Ag2 1_555 1_555
O4 Ag2 1_555 1_555
O5 Ag2 1_555 1_555
O6 Ag2 1_555 1_555
O8 Ag2 1_555 1_555
O9 Cl1 1_555 1_555
O10 Cl1 1_555 1_555
N3 C23 1_555 1_555
N4 C24 1_555 1_555
C13 C14 1_555 1_555
C14 S4 1_555 1_555
C15 S4 1_555 1_555
C16 O4 1_555 1_555
C17 O4 1_555 1_555
C18 O5 1_555 1_555
C19 O5 1_555 1_555
C20 O6 1_555 1_555
C21 O6 1_555 1_555
C22 S3 1_555 1_555
C23 C13 1_555 1_555
C24 C14 1_555 1_555
Cl2 O15 1_555 1_555
O16 Cl2 1_555 1_555
O17 Cl2 1_555 1_555
O18 Cl2 1_555 1_555
H1 C3 1_555 1_555
H2 C3 1_555 1_555
H3 C4 1_555 1_555
H4 C4 1_555 1_555
H5 C5 1_555 1_555
H6 C5 1_555 1_555
H7 C6 1_555 1_555
H8 C6 1_555 1_555
H9 C7 1_555 1_555
H10 C7 1_555 1_555
H11 C8 1_555 1_555
H12 C8 1_555 1_555
H13 C9 1_555 1_555
H14 C9 1_555 1_555
H15 C10 1_555 1_555
H16 C10 1_555 1_555
H17 C15 1_555 1_555
H18 C17 1_555 1_555
H19 C18 1_555 1_555
H20 C18 1_555 1_555
H21 C19 1_555 1_555
H22 C19 1_555 1_555
H23 C20 1_555 1_555
H24 C20 1_555 1_555
H25 C21 1_555 1_555
H26 C21 1_555 1_555
H27 C22 1_555 1_555
H28 C22 1_555 1_555
H29 C15 1_555 1_555
H30 C16 1_555 1_555
H31 C16 1_555 1_555
H32 C17 1_555 1_555
N2_2 Ag1 1_555 1_555
Ag1_2 N2 1_555 1_555
C3 C4 1_555 1_555
C5 C6 1_555 1_555
C7 C8 1_555 1_555
C9 C10 1_555 1_555
Cl1 O8 1_555 1_555
C15 C16 1_555 1_555
C17 C18 1_555 1_555
C19 C20 1_555 1_555
C21 C22 1_555 1_555

#END
