
#######################################################################
#
#                 Cambridge Crystallographic Data Centre
#                                CCDC 
#
#######################################################################
#
# If this CIF has been generated from an entry in the Cambridge 
# Structural Database, then it will include bibliographic, chemical, 
# crystal, experimental, refinement or atomic coordinate data resulting 
# from the CCDC's data processing and validation procedures.
#
#######################################################################

data_HIJLIV
_symmetry_cell_setting           orthorhombic
_symmetry_space_group_name_H-M   'P 21 21 21'
_symmetry_Int_Tables_number      19
_space_group_name_Hall           'P 2ac 2ab'
loop_
_symmetry_equiv_pos_site_id
_symmetry_equiv_pos_as_xyz
1 x,y,z
2 1/2-x,-y,1/2+z
3 1/2+x,1/2-y,-z
4 -x,1/2+y,1/2-z
_cell_length_a                   11.661(2)
_cell_length_b                   12.924(2)
_cell_length_c                   16.003(1)
_cell_angle_alpha                90
_cell_angle_beta                 90
_cell_angle_gamma                90
_cell_volume                     2411.76
loop_
_atom_site_label
_atom_site_type_symbol
_atom_site_fract_x
_atom_site_fract_y
_atom_site_fract_z
Ag1 Ag 0.22927(4) 0.37787(3) 0.64130(2)
S1 S 0.32977(12) 0.12086(13) 0.32628(8)
S2 S 0.55039(12) 0.01387(11) 0.40107(8)
O1 O 0.7932(3) -0.0470(3) 0.4371(2)
O2 O 0.9365(4) 0.0682(3) 0.3366(2)
O3 O 0.8109(4) 0.1886(3) 0.2282(3)
O4 O 0.5996(3) 0.2680(3) 0.2969(2)
O5 O 0.3836(3) 0.3617(3) 0.3444(2)
N1 N 0.2686(5) 0.2754(4) 0.5221(3)
N2 N 0.5295(5) 0.1353(4) 0.6134(3)
C1 C 0.3769(5) 0.1489(4) 0.4265(3)
C2 C 0.4693(4) 0.1012(4) 0.4604(3)
C3 C 0.6035(5) -0.0779(5) 0.4778(4)
H1 H 0.5513(5) -0.0785(5) 0.5258(4)
H2 H 0.6028(5) -0.1473(5) 0.4531(4)
C4 C 0.7240(5) -0.0541(5) 0.5083(4)
H3 H 0.7249(5) 0.0113(5) 0.5393(4)
H4 H 0.7515(5) -0.1093(5) 0.5452(4)
C5 C 0.9123(5) -0.0399(6) 0.4542(4)
H5 H 0.9392(5) -0.1027(6) 0.4825(4)
H6 H 0.9282(5) 0.0198(6) 0.4901(4)
C6 C 0.9709(6) -0.0278(6) 0.3718(4)
H7 H 1.0543(6) -0.0290(6) 0.3794(4)
H8 H 0.9496(6) -0.0848(6) 0.3345(4)
C7 C 0.9699(6) 0.0812(5) 0.2520(4)
H9 H 0.9345(6) 0.0276(5) 0.2173(4)
H10 H 1.0534(6) 0.0749(5) 0.2471(4)
C8 C 0.9333(5) 0.1833(6) 0.2239(4)
H11 H 0.9672(5) 0.2369(6) 0.2596(4)
H12 H 0.9589(5) 0.1951(6) 0.1664(4)
C9 C 0.7666(6) 0.2903(5) 0.2094(4)
H13 H 0.7914(6) 0.3118(5) 0.1536(4)
H14 H 0.7958(6) 0.3405(5) 0.2501(4)
C10 C 0.6410(6) 0.2867(6) 0.2131(4)
H15 H 0.6099(6) 0.3526(6) 0.1928(4)
H16 H 0.6131(6) 0.2318(6) 0.1761(4)
C11 C 0.5910(5) 0.3586(5) 0.3462(3)
H17 H 0.6586(5) 0.4019(5) 0.3363(3)
H18 H 0.5907(5) 0.3390(5) 0.4054(3)
C12 C 0.4851(5) 0.4203(5) 0.3277(4)
H19 H 0.4849(5) 0.4831(5) 0.3620(4)
H20 H 0.4857(5) 0.4413(5) 0.2688(4)
C13 C 0.3258(5) 0.3253(5) 0.2723(4)
H21 H 0.3817(5) 0.3037(5) 0.2300(4)
H22 H 0.2787(5) 0.3807(5) 0.2485(4)
C14 C 0.2513(5) 0.2353(4) 0.2963(3)
H23 H 0.2014(5) 0.2181(4) 0.2490(3)
H24 H 0.2020(5) 0.2562(4) 0.3430(3)
C15 C 0.3156(5) 0.2211(5) 0.4785(3)
C16 C 0.5020(4) 0.1208(5) 0.5462(3)
Ag1B Ag 0.72927(4) 0.12213(3) 0.35870(2)
N1B N 0.7686(5) 0.2246(4) 0.4779(3)
P1 P -0.24599(13) 0.38250(12) 0.94756(9)
F1 F -0.1871(4) 0.4839(3) 0.9836(2)
F2 F -0.3033(4) 0.2814(3) 0.9101(3)
F3 F -0.3311(4) 0.4505(4) 0.8958(3)
F4 F -0.1613(4) 0.3142(3) 1.0030(3)
F5 F -0.3342(3) 0.3845(4) 1.0229(3)
F6 F -0.1571(4) 0.3826(4) 0.8738(2)
loop_
_geom_bond_atom_site_label_1
_geom_bond_atom_site_label_2
_geom_bond_site_symmetry_1
_geom_bond_site_symmetry_2
Ag1 N1 1_555 1_555
S1 C1 1_555 1_555
S2 C2 1_555 1_555
O1 C4 1_555 1_555
O2 C6 1_555 1_555
O3 C8 1_555 1_555
O4 C10 1_555 1_555
O5 C12 1_555 1_555
N1 C15 1_555 1_555
N2 C16 1_555 1_555
C1 C2 1_555 1_555
C2 C16 1_555 1_555
C3 S2 1_555 1_555
H1 C3 1_555 1_555
H2 C3 1_555 1_555
C4 C3 1_555 1_555
H3 C4 1_555 1_555
H4 C4 1_555 1_555
C5 O1 1_555 1_555
H5 C5 1_555 1_555
H6 C5 1_555 1_555
C6 C5 1_555 1_555
H7 C6 1_555 1_555
H8 C6 1_555 1_555
C7 O2 1_555 1_555
H9 C7 1_555 1_555
H10 C7 1_555 1_555
C8 C7 1_555 1_555
H11 C8 1_555 1_555
H12 C8 1_555 1_555
C9 O3 1_555 1_555
H13 C9 1_555 1_555
H14 C9 1_555 1_555
C10 C9 1_555 1_555
H15 C10 1_555 1_555
H16 C10 1_555 1_555
C11 O4 1_555 1_555
H17 C11 1_555 1_555
H18 C11 1_555 1_555
C12 C11 1_555 1_555
H19 C12 1_555 1_555
H20 C12 1_555 1_555
C13 O5 1_555 1_555
H21 C13 1_555 1_555
H22 C13 1_555 1_555
C14 S1 1_555 1_555
H23 C14 1_555 1_555
H24 C14 1_555 1_555
C15 C1 1_555 1_555
P1 F1 1_555 1_555
F2 P1 1_555 1_555
F3 P1 1_555 1_555
F4 P1 1_555 1_555
F5 P1 1_555 1_555
F6 P1 1_555 1_555
Ag1B S2 1_555 1_555
N1B Ag1B 1_555 1_555
O1 Ag1B 1_555 1_555
O2 Ag1B 1_555 1_555
O3 Ag1B 1_555 1_555
O4 Ag1B 1_555 1_555
C13 C14 1_555 1_555

#END
