
#######################################################################
#
#                 Cambridge Crystallographic Data Centre
#                                CCDC 
#
#######################################################################
#
# If this CIF has been generated from an entry in the Cambridge 
# Structural Database, then it will include bibliographic, chemical, 
# crystal, experimental, refinement or atomic coordinate data resulting 
# from the CCDC's data processing and validation procedures.
#
#######################################################################

data_HIJNUL
_symmetry_cell_setting           monoclinic
_symmetry_space_group_name_H-M   'C 2/c'
_symmetry_Int_Tables_number      15
_space_group_name_Hall           '-C 2yn'
loop_
_symmetry_equiv_pos_site_id
_symmetry_equiv_pos_as_xyz
1 x,y,z
2 -x,y,1/2-z
3 1/2+x,1/2+y,z
4 1/2-x,1/2+y,1/2-z
5 -x,-y,-z
6 x,-y,1/2+z
7 1/2-x,1/2-y,-z
8 1/2+x,1/2-y,1/2+z
_cell_length_a                   28.349(8)
_cell_length_b                   15.281(4)
_cell_length_c                   30.728(8)
_cell_angle_alpha                90
_cell_angle_beta                 111.506(4)
_cell_angle_gamma                90
_cell_volume                     12384.7
loop_
_atom_site_label
_atom_site_type_symbol
_atom_site_fract_x
_atom_site_fract_y
_atom_site_fract_z
Ag1 Ag 0.136014(19) 0.65904(3) 0.119254(18)
Ag2 Ag 0.30266(2) 0.64513(4) 0.33185(2)
N1 N 0.04842(19) 0.6214(4) 0.1566(2)
N2 N 0.09755(17) 0.5119(3) 0.16605(17)
N3 N 0.24815(18) 0.2583(3) 0.10986(17)
N4 N 0.21435(19) 0.1917(3) 0.10381(18)
N5 N 0.29575(18) 0.2653(3) 0.19163(18)
N6 N 0.2751(2) 0.2027(4) 0.21093(18)
N7 N 0.1730(3) 0.7736(4) 0.0559(2)
N8 N 0.2370(2) 0.7356(4) 0.11609(19)
N9 N 0.35757(19) 0.4950(4) 0.29761(19)
N10 N 0.3192(2) 0.5055(3) 0.31282(19)
N11 N 0.40774(19) 0.6262(4) 0.3165(2)
N12 N 0.3856(2) 0.6747(4) 0.3403(2)
C1 C -0.0607(3) 0.7654(6) 0.0956(3)
H1 H -0.0575 0.8032 0.1210
C2 C -0.1038(3) 0.7691(7) 0.0559(3)
H2 H -0.1303 0.8079 0.0548
C3 C -0.1090(3) 0.7177(7) 0.0181(3)
H3 H -0.1384 0.7215 -0.0097
C4 C -0.0699(4) 0.6595(6) 0.0213(4)
H4 H -0.0726 0.6227 -0.0044
C5 C -0.0274(3) 0.6552(5) 0.0618(3)
H5 H -0.0011 0.6150 0.0637
C6 C -0.0223(2) 0.7079(5) 0.0991(3)
C7 C 0.0253(3) 0.7079(5) 0.1426(3)
H6 H 0.0505 0.7470 0.1373
H7 H 0.0171 0.7326 0.1687
C8 C 0.0316(2) 0.5597(5) 0.1786(3)
H8 H 0.0029 0.5646 0.1873
C9 C 0.0622(2) 0.4907(5) 0.1861(2)
H9 H 0.0604 0.4380 0.2018
C10 C 0.0902(2) 0.5932(4) 0.1477(2)
C11 C 0.1380(2) 0.4560(4) 0.1635(2)
C12 C 0.1413(2) 0.4443(4) 0.1200(2)
H10 H 0.1170 0.4698 0.0927
C13 C 0.1806(2) 0.3948(4) 0.1173(2)
H11 H 0.1828 0.3853 0.0876
C14 C 0.2173(2) 0.3581(4) 0.1570(2)
C15 C 0.2126(2) 0.3712(4) 0.1996(2)
H12 H 0.2371 0.3472 0.2271
C16 C 0.1725(2) 0.4191(4) 0.2027(2)
H13 H 0.1689 0.4262 0.2321
C17 C 0.2629(2) 0.3151(4) 0.1514(2)
H14 H 0.2841 0.3632 0.1461
C18 C 0.2675(3) 0.2578(5) 0.0769(2)
H15 H 0.2920 0.2979 0.0744
C19 C 0.2468(3) 0.1907(5) 0.0472(2)
H16 H 0.2532 0.1742 0.0201
C20 C 0.2138(3) 0.1516(4) 0.0655(2)
H17 H 0.1934 0.1020 0.0521
C21 C 0.3459(3) 0.2627(6) 0.2075(3)
H18 H 0.3673 0.2992 0.1978
C22 C 0.3611(3) 0.1980(5) 0.2402(3)
H19 H 0.3949 0.1813 0.2585
C23 C 0.3171(3) 0.1620(5) 0.2412(3)
H20 H 0.3160 0.1144 0.2607
C24 C 0.1154(4) 0.9403(7) 0.0478(3)
H21 H 0.1470 0.9510 0.0447
C25 C 0.0938(4) 1.0084(7) 0.0615(4)
H22 H 0.1094 1.0644 0.0668
C26 C 0.0505(4) 0.9952(7) 0.0674(4)
H23 H 0.0351 1.0427 0.0770
C27 C 0.0271(5) 0.9150(9) 0.0600(6)
H24 H -0.0038 0.9049 0.0645
C28 C 0.0529(5) 0.8474(7) 0.0449(5)
H25 H 0.0381 0.7907 0.0392
C29 C 0.0969(3) 0.8598(5) 0.0384(3)
C30 C 0.1222(4) 0.7874(6) 0.0235(3)
H26 H 0.1023 0.7330 0.0208
H27 H 0.1229 0.8009 -0.0078
C31 C 0.2167(3) 0.8084(6) 0.0522(3)
H28 H 0.2175 0.8431 0.0269
C32 C 0.2574(4) 0.7859(6) 0.0895(3)
H29 H 0.2919 0.8008 0.0963
C33 C 0.1849(3) 0.7256(5) 0.0962(2)
C34 C 0.2695(2) 0.6955(5) 0.1594(2)
C35 C 0.3083(2) 0.7435(5) 0.1909(3)
H30 H 0.3123 0.8037 0.1854
C36 C 0.3413(2) 0.7023(5) 0.2306(3)
H31 H 0.3678 0.7360 0.2523
C37 C 0.3377(2) 0.6142(4) 0.2404(2)
C38 C 0.2967(2) 0.5683(5) 0.2090(2)
H32 H 0.2918 0.5087 0.2151
C39 C 0.2625(2) 0.6081(4) 0.1686(2)
H33 H 0.2349 0.5758 0.1476
C40 C 0.3781(2) 0.5693(4) 0.2790(2)
H34 H 0.4019 0.5438 0.2652
C41 C 0.3699(3) 0.4092(5) 0.2974(3)
H35 H 0.3950 0.3853 0.2871
C42 C 0.3392(3) 0.3643(5) 0.3146(3)
H36 H 0.3390 0.3029 0.3196
C43 C 0.3089(3) 0.4253(4) 0.3234(2)
H37 H 0.2835 0.4122 0.3357
C44 C 0.4573(3) 0.6419(6) 0.3298(3)
H38 H 0.4802 0.6163 0.3173
C45 C 0.4684(3) 0.7018(6) 0.3645(3)
H39 H 0.5008 0.7259 0.3818
C46 C 0.4229(3) 0.7210(5) 0.3700(3)
H40 H 0.4192 0.7616 0.3919
Ag2C Ag 0.19734(2) 0.14513(4) 0.16815(2)
N4C N 0.28565(19) 0.6917(3) 0.39619(18)
N6C N 0.2249(2) 0.7027(4) 0.28907(18)
O1 O 0.1958(2) 0.4578(4) 0.3240(2)
N13 N 0.1434(2) 0.5271(5) 0.3520(2)
C47 C 0.1856(3) 0.5073(6) 0.3514(5)
H41 H 0.2139 0.5334 0.3751
C48 C 0.0989(5) 0.4993(13) 0.3136(5)
H42 H 0.0727 0.5444 0.3070
H43 H 0.0863 0.4445 0.3219
H44 H 0.1075 0.4900 0.2858
C49 C 0.1329(4) 0.5909(7) 0.3809(4)
H45 H 0.1192 0.5619 0.4022
H46 H 0.1079 0.6328 0.3613
H47 H 0.1642 0.6218 0.3991
O2 O 0.9375(3) 0.4604(8) -0.0232(3)
N14 N 0.9426(2) 0.4122(8) 0.0493(3)
C50 C 0.9124(4) 0.4443(10) 0.0014(3)
C51 C 0.9970(3) 0.3910(12) 0.0601(6)
C52 C 0.9119(4) 0.3783(12) 0.0763(4)
O4 O 0.3644(4) 0.3880(5) 0.1304(4)
N16 N 0.3918(3) 0.5337(4) 0.1236(3)
C56 C 0.3681(4) 0.4660(5) 0.1435(4)
C57 C 0.4098(5) 0.5072(12) 0.0854(4)
C58 C 0.3890(6) 0.6276(6) 0.1364(6)
P1 P 0.25154(12) 0.51680(17) 0.03524(9)
F1 F 0.2131(3) 0.5654(4) 0.0527(2)
F2 F 0.2783(3) 0.4772(5) 0.0888(2)
F3 F 0.2949(3) 0.4589(5) 0.0243(2)
F4 F 0.2280(3) 0.5526(5) -0.0137(2)
F5 F 0.2915(3) 0.5952(4) 0.0510(2)
F6 F 0.2127(2) 0.4372(4) 0.0214(2)
P2 P 0.5000 0.8141(2) 0.2500
F7 F 0.5000 0.7092(4) 0.2500
F8 F 0.55447(16) 0.8157(3) 0.24664(19)
F9 F 0.5000 0.9188(4) 0.2500
F10 F 0.5243(2) 0.8158(3) 0.30568(18)
F8A F 0.44553(16) 0.8157(3) 0.25336(19)
F10A F 0.4757(2) 0.8158(3) 0.19432(18)
P3 P 0.5000 0.3958(4) 0.2500
F11 F 0.5039(3) 0.4016(6) 0.2018(3)
F12 F 0.5000 0.2982(12) 0.2500
F13 F 0.4476(7) 0.4403(14) 0.2355(6)
F14 F 0.5000 0.4981(13) 0.2500
F11A F 0.4961(3) 0.4016(6) 0.2982(3)
F13A F 0.5524(7) 0.4403(14) 0.2645(6)
O3? O 0.9375(5) 0.4326(9) -0.0350(3)
N15? N 0.9344(2) 0.4189(10) 0.0379(2)
C53? C 0.9644(4) 0.4319(13) 0.0075(3)
C54? C 0.9723(6) 0.4229(13) 0.0870(3)
C55? C 0.8781(3) 0.4323(13) 0.0190(7)
O5? O 0.4011(4) 0.7380(8) 0.0866(3)
N17? N 0.4123(4) 0.6065(4) 0.1261(3)
C59? C 0.3988(6) 0.7008(5) 0.1220(4)
C60? C 0.4232(5) 0.5587(11) 0.0882(4)
C61? C 0.4070(6) 0.5608(11) 0.1671(4)
F15? F 0.4495(7) 0.3516(13) 0.2254(7)
loop_
_geom_bond_atom_site_label_1
_geom_bond_atom_site_label_2
_geom_bond_site_symmetry_1
_geom_bond_site_symmetry_2
Ag1 C10 1_555 1_555
Ag2 N10 1_555 1_555
N1 C7 1_555 1_555
N2 C9 1_555 1_555
N3 N4 1_555 1_555
N4 C20 1_555 1_555
N5 N6 1_555 1_555
N6 C23 1_555 1_555
N7 C30 1_555 1_555
N8 C32 1_555 1_555
N9 N10 1_555 1_555
N10 C43 1_555 1_555
N11 N12 1_555 1_555
N12 Ag2 1_555 1_555
C1 H1 1_555 1_555
C2 C1 1_555 1_555
H2 C2 1_555 1_555
C3 C2 1_555 1_555
H3 C3 1_555 1_555
C4 C3 1_555 1_555
H4 C4 1_555 1_555
C5 C4 1_555 1_555
H5 C5 1_555 1_555
C6 C1 1_555 1_555
C7 C6 1_555 1_555
H6 C7 1_555 1_555
H7 C7 1_555 1_555
C8 N1 1_555 1_555
H8 C8 1_555 1_555
C9 C8 1_555 1_555
H9 C9 1_555 1_555
C10 N1 1_555 1_555
C11 N2 1_555 1_555
C12 C11 1_555 1_555
H10 C12 1_555 1_555
C13 C12 1_555 1_555
H11 C13 1_555 1_555
C14 C13 1_555 1_555
C15 C14 1_555 1_555
H12 C15 1_555 1_555
C16 C11 1_555 1_555
H13 C16 1_555 1_555
C17 N3 1_555 1_555
H14 C17 1_555 1_555
C18 N3 1_555 1_555
H15 C18 1_555 1_555
C19 C18 1_555 1_555
H16 C19 1_555 1_555
C20 C19 1_555 1_555
H17 C20 1_555 1_555
C21 N5 1_555 1_555
H18 C21 1_555 1_555
C22 C21 1_555 1_555
H19 C22 1_555 1_555
C23 C22 1_555 1_555
H20 C23 1_555 1_555
C24 H21 1_555 1_555
C25 C24 1_555 1_555
H22 C25 1_555 1_555
C26 C25 1_555 1_555
H23 C26 1_555 1_555
C27 C26 1_555 1_555
H24 C27 1_555 1_555
C28 C27 1_555 1_555
H25 C28 1_555 1_555
C29 C24 1_555 1_555
C30 C29 1_555 1_555
H26 C30 1_555 1_555
H27 C30 1_555 1_555
C31 N7 1_555 1_555
H28 C31 1_555 1_555
C32 C31 1_555 1_555
H29 C32 1_555 1_555
C33 Ag1 1_555 1_555
C34 N8 1_555 1_555
C35 C34 1_555 1_555
H30 C35 1_555 1_555
C36 C35 1_555 1_555
H31 C36 1_555 1_555
C37 C36 1_555 1_555
C38 C37 1_555 1_555
H32 C38 1_555 1_555
C39 C34 1_555 1_555
H33 C39 1_555 1_555
C40 N9 1_555 1_555
H34 C40 1_555 1_555
C41 N9 1_555 1_555
H35 C41 1_555 1_555
C42 C41 1_555 1_555
H36 C42 1_555 1_555
C43 C42 1_555 1_555
H37 C43 1_555 1_555
C44 N11 1_555 1_555
H38 C44 1_555 1_555
C45 C44 1_555 1_555
H39 C45 1_555 1_555
C46 N12 1_555 1_555
H40 C46 1_555 1_555
O1 C47 1_555 1_555
N13 C47 1_555 1_555
C47 H41 1_555 1_555
C48 N13 1_555 1_555
H42 C48 1_555 1_555
H43 C48 1_555 1_555
H44 C48 1_555 1_555
C49 N13 1_555 1_555
H45 C49 1_555 1_555
H46 C49 1_555 1_555
H47 C49 1_555 1_555
O2 C50 1_555 1_555
N14 C50 1_555 1_555
C51 N14 1_555 1_555
C52 N14 1_555 1_555
O4 C56 1_555 1_555
N16 C56 1_555 1_555
C57 N16 1_555 1_555
C58 N16 1_555 1_555
P1 F1 1_555 1_555
F2 P1 1_555 1_555
F3 P1 1_555 1_555
F4 P1 1_555 1_555
F5 P1 1_555 1_555
F6 P1 1_555 1_555
P2 F7 1_555 1_555
F8 P2 1_555 1_555
F9 P2 1_555 1_555
F10 P2 1_555 1_555
P3 F11 1_555 1_555
F12 P3 1_555 1_555
F13 P3 1_555 1_555
F14 P3 1_555 1_555
Ag2C N4 1_555 1_555
N4C Ag2 1_555 1_555
N6C Ag2 1_555 1_555
F8A P2 1_555 1_555
F10A P2 1_555 1_555
F11A P3 1_555 1_555
F13A P3 1_555 1_555
N2 C10 1_555 1_555
N5 C17 1_555 1_555
N6 Ag2C 1_555 1_555
N7 C33 1_555 1_555
N8 C33 1_555 1_555
N11 C40 1_555 1_555
C5 C6 1_555 1_555
C14 C17 1_555 1_555
C15 C16 1_555 1_555
C28 C29 1_555 1_555
C37 C40 1_555 1_555
C38 C39 1_555 1_555
C45 C46 1_555 1_555

#END
