
#######################################################################
#
#                 Cambridge Crystallographic Data Centre
#                                CCDC 
#
#######################################################################
#
# If this CIF has been generated from an entry in the Cambridge 
# Structural Database, then it will include bibliographic, chemical, 
# crystal, experimental, refinement or atomic coordinate data resulting 
# from the CCDC's data processing and validation procedures.
#
#######################################################################

data_HIJTAX
_symmetry_cell_setting           triclinic
_symmetry_space_group_name_H-M   'P -1'
_symmetry_Int_Tables_number      2
_space_group_name_Hall           '-P 1'
loop_
_symmetry_equiv_pos_site_id
_symmetry_equiv_pos_as_xyz
1 x,y,z
2 -x,-y,-z
_cell_length_a                   6.1255(6)
_cell_length_b                   10.4327(10)
_cell_length_c                   10.5615(10)
_cell_angle_alpha                100.6530(10)
_cell_angle_beta                 102.5720(10)
_cell_angle_gamma                90.739(2)
_cell_volume                     646.407
loop_
_atom_site_label
_atom_site_type_symbol
_atom_site_fract_x
_atom_site_fract_y
_atom_site_fract_z
Mo1 Mo -0.30964(5) 0.28626(3) -0.12240(3)
Ni1 Ni -0.5000 0.0000 0.0000
O1 O -1.2713(5) -0.3019(3) -0.2493(3)
N1 N -0.6853(6) -0.0754(3) -0.1950(3)
C1 C -0.6170(8) -0.0529(5) -0.3017(5)
H1 H -0.4850 -0.0026 -0.2895
O2 O -0.2471(5) -0.1171(3) -0.0301(3)
H2 H -0.1668 -0.1662 0.0296
H3 H -0.2561 -0.1820 -0.1061
Mo2 Mo -0.85165(5) 0.44771(3) -0.13518(3)
O3 O -0.3613(5) 0.1416(3) -0.0742(3)
C2 C -0.7354(10) -0.1017(6) -0.4287(5)
H4 H -0.6848 -0.0826 -0.5003
N2 N -1.3082(11) -0.3548(7) -0.4667(5)
H5 H -1.2492 -0.3524 -0.5331
O4 O -0.3987(5) 0.2525(3) -0.2893(3)
C3 C -0.9295(10) -0.1791(6) -0.4494(5)
H6 H -1.0104 -0.2130 -0.5346
O5 O -0.1792(4) 0.4932(3) -0.1054(3)
C4 C -1.0009(7) -0.2051(4) -0.3405(4)
O6 O -0.9990(5) 0.2857(3) -0.1035(3)
C5 C -0.8737(7) -0.1500(4) -0.2157(4)
H7 H -0.9225 -0.1661 -0.1424
O7 O -0.7786(5) 0.6162(3) -0.0909(3)
C6 C -1.2034(8) -0.2919(5) -0.3488(4)
O8 O -0.5843(5) 0.3760(3) -0.0964(3)
C7 C -1.5290(12) -0.4309(7) -0.4890(7)
H8 H -1.5944 -0.4100 -0.4124
H9 H -1.6341 -0.4124 -0.5656
O9 O -0.9182(6) 0.4220(3) -0.3025(3)
O1A O -1.7287(5) -0.6981(3) -0.7507(3)
N1A N -2.3147(6) -0.9246(3) -0.8050(3)
C1A C -2.3830(8) -0.9471(5) -0.6983(5)
H1A H -2.5150 -0.9974 -0.7105
C2A C -2.2646(10) -0.8983(6) -0.5713(5)
H4A H -2.3152 -0.9174 -0.4997
N2A N -1.6918(11) -0.6452(7) -0.5333(5)
H5A H -1.7508 -0.6476 -0.4669
C3A C -2.0705(10) -0.8209(6) -0.5506(5)
H6A H -1.9896 -0.7870 -0.4654
C4A C -1.9991(7) -0.7949(4) -0.6595(4)
C5A C -2.1263(7) -0.8500(4) -0.7843(4)
H7A H -2.0775 -0.8339 -0.8576
C6A C -1.7966(8) -0.7081(5) -0.6512(4)
C7A C -1.4710(12) -0.5691(7) -0.5110(7)
H8A H -1.4056 -0.5900 -0.5876
H9A H -1.3659 -0.5876 -0.4344
Mo1_2 Mo 0.69036(5) 0.28626(3) -0.12240(3)
Mo2_2 Mo 0.14835(5) 0.44771(3) -0.13518(3)
O3_2 O 0.6387(5) 0.1416(3) -0.0742(3)
O4_2 O 0.6013(5) 0.2525(3) -0.2893(3)
O5_2 O 0.8208(4) 0.4932(3) -0.1054(3)
O6_2 O 0.0010(5) 0.2857(3) -0.1035(3)
O7_2 O 0.2214(5) 0.6162(3) -0.0909(3)
O8_2 O 0.4157(5) 0.3760(3) -0.0964(3)
O9_2 O 0.0818(6) 0.4220(3) -0.3025(3)
O2A O -0.7529(5) 0.1171(3) 0.0301(3)
H2A H -0.8332 0.1662 -0.0296
H3A H -0.7439 0.1820 0.1061
Mo1_3 Mo -1.30964(5) 0.28626(3) -0.12240(3)
Mo1A Mo -0.69036(5) 0.71374(3) 0.12240(3)
Mo1A_2 Mo 0.30964(5) 0.71374(3) 0.12240(3)
Ni1_2 Ni -2.5000 -1.0000 -1.0000
Ni1_3 Ni 0.5000 0.0000 0.0000
N1A_2 N -0.3147(6) 0.0754(3) 0.1950(3)
Mo2_3 Mo 1.14835(5) 0.44771(3) -0.13518(3)
Mo2A Mo -0.14835(5) 0.55229(3) 0.13518(3)
Mo2A_2 Mo 0.85165(5) 0.55229(3) 0.13518(3)
O3A O -0.6387(5) -0.1416(3) 0.0742(3)
O5_3 O -1.1792(4) 0.4932(3) -0.1054(3)
O5A O -0.8208(4) 0.5068(3) 0.1054(3)
O5A_2 O 0.1792(4) 0.5068(3) 0.1054(3)
O6_3 O 1.0010(5) 0.2857(3) -0.1035(3)
O7A O -0.2214(5) 0.3838(3) 0.0909(3)
O7A_2 O 0.7786(5) 0.3838(3) 0.0909(3)
loop_
_geom_bond_atom_site_label_1
_geom_bond_atom_site_label_2
_geom_bond_site_symmetry_1
_geom_bond_site_symmetry_2
Mo1 O3 1_555 1_555
Ni1 N1 1_555 1_555
O1 C6 1_555 1_555
N1 C1 1_555 1_555
C1 H1 1_555 1_555
O2 Ni1 1_555 1_555
H2 O2 1_555 1_555
H3 O2 1_555 1_555
Mo2 O6 1_555 1_555
O3 Ni1 1_555 1_555
C2 C1 1_555 1_555
H4 C2 1_555 1_555
N2 H5 1_555 1_555
O4 Mo1 1_555 1_555
C3 C2 1_555 1_555
H6 C3 1_555 1_555
O5 Mo1 1_555 1_555
C4 C3 1_555 1_555
O6 Mo1_3 1_555 1_555
C5 N1 1_555 1_555
H7 C5 1_555 1_555
O7 Mo2 1_555 1_555
C6 N2 1_555 1_555
O8 Mo1 1_555 1_555
C7 N2 1_555 1_555
H8 C7 1_555 1_555
H9 C7 1_555 1_555
O9 Mo2 1_555 1_555
O1A C6A 1_555 1_555
N1A C1A 1_555 1_555
C1A H1A 1_555 1_555
C2A C1A 1_555 1_555
H4A C2A 1_555 1_555
N2A H5A 1_555 1_555
C3A C2A 1_555 1_555
H6A C3A 1_555 1_555
C4A C3A 1_555 1_555
C5A N1A 1_555 1_555
H7A C5A 1_555 1_555
C6A N2A 1_555 1_555
C7A C7 1_555 1_555
H8A C7A 1_555 1_555
H9A C7A 1_555 1_555
Mo1_2 O3_2 1_555 1_555
Mo2_2 O5 1_555 1_555
O3_2 Ni1_3 1_555 1_555
O4_2 Mo1_2 1_555 1_555
O5_2 Mo1_2 1_555 1_555
O6_2 Mo1 1_555 1_555
O7_2 Mo2_2 1_555 1_555
O8_2 Mo1_2 1_555 1_555
O9_2 Mo2_2 1_555 1_555
O2A Ni1 1_555 1_555
H2A O2A 1_555 1_555
H3A O2A 1_555 1_555
Mo1_3 O5_3 1_555 1_555
Mo1A O7 1_555 1_555
Mo1A_2 O7_2 1_555 1_555
Ni1_2 N1A 1_555 1_555
N1A_2 Ni1 1_555 1_555
Mo2_3 O5_2 1_555 1_555
Mo2A O5 1_555 1_555
Mo2A_2 O5_2 1_555 1_555
O3A Ni1 1_555 1_555
O5_3 Mo2 1_555 1_555
O5A Mo2 1_555 1_555
O5A_2 Mo2_2 1_555 1_555
O6_3 Mo1_2 1_555 1_555
O7A Mo1 1_555 1_555
O7A_2 Mo1_2 1_555 1_555
Mo2 O8 1_555 1_555
C4 C5 1_555 1_555
C4 C6 1_555 1_555
N2A C7A 1_555 1_555
C4A C5A 1_555 1_555
C4A C6A 1_555 1_555
Mo2_2 O6_2 1_555 1_555
Mo2_2 O8_2 1_555 1_555
Mo1A O5A 1_555 1_555
Mo1A_2 O5A_2 1_555 1_555
Mo2_3 O6_3 1_555 1_555
Mo2A O5A_2 1_555 1_555
Mo2A O7A 1_555 1_555
Mo2A_2 O7A_2 1_555 1_555

#END
