
#######################################################################
#
#                 Cambridge Crystallographic Data Centre
#                                CCDC 
#
#######################################################################
#
# If this CIF has been generated from an entry in the Cambridge 
# Structural Database, then it will include bibliographic, chemical, 
# crystal, experimental, refinement or atomic coordinate data resulting 
# from the CCDC's data processing and validation procedures.
#
#######################################################################

data_HIJTEB
_symmetry_cell_setting           triclinic
_symmetry_space_group_name_H-M   'P -1'
_symmetry_Int_Tables_number      2
_space_group_name_Hall           '-P 1'
loop_
_symmetry_equiv_pos_site_id
_symmetry_equiv_pos_as_xyz
1 x,y,z
2 -x,-y,-z
_cell_length_a                   6.1304(5)
_cell_length_b                   10.4242(8)
_cell_length_c                   10.6432(9)
_cell_angle_alpha                101.1650(10)
_cell_angle_beta                 102.3420(10)
_cell_angle_gamma                90.1260(10)
_cell_volume                     651.18
loop_
_atom_site_label
_atom_site_type_symbol
_atom_site_fract_x
_atom_site_fract_y
_atom_site_fract_z
Mo1 Mo -0.30591(6) 0.28574(3) -0.12379(3)
N1 N -0.6920(6) -0.0747(4) -0.1989(4)
C1 C -0.6286(9) -0.0507(5) -0.3055(5)
H1 H -0.5001 0.0017 -0.2938
Co1 Co -0.5000 0.0000 0.0000
O1 O -0.1786(5) 0.4938(3) -0.1046(3)
O2 O -0.7452(6) 0.1240(3) 0.0321(3)
H2 H -0.8186 0.1742 -0.0206
H3 H -0.7382 0.1707 0.1145
Mo2 Mo 0.15029(6) 0.44816(3) -0.13434(3)
N2 N -1.3053(13) -0.3609(8) -0.4678(5)
H4 H -1.2427 -0.3629 -0.5331
C2 C -0.7448(11) -0.1000(6) -0.4311(5)
H5 H -0.6951 -0.0806 -0.5023
O3 O 0.0055(5) 0.2857(3) -0.1047(3)
O4 O -0.3551(5) 0.1399(3) -0.0781(3)
C3 C -0.9363(10) -0.1787(6) -0.4513(5)
H6 H -1.0180 -0.2121 -0.5357
C4 C -1.0034(8) -0.2064(4) -0.3432(5)
O5 O -0.3931(6) 0.2528(3) -0.2901(3)
C5 C -0.8771(8) -0.1516(5) -0.2191(5)
H7 H -0.9236 -0.1692 -0.1463
O6 O 0.2214(5) 0.6168(3) -0.0885(3)
O7 O 0.4183(5) 0.3755(3) -0.0971(4)
C6 C -1.2022(9) -0.2949(5) -0.3513(5)
C7 C -1.5225(13) -0.4311(8) -0.4905(8)
H8 H -1.5905 -0.4057 -0.4156
H9 H -1.6229 -0.4120 -0.5676
O8 O 0.0844(6) 0.4232(3) -0.3006(3)
O9 O -1.2717(6) -0.3047(3) -0.2526(3)
N1A N -2.3080(6) -0.9253(4) -0.8011(4)
C1A C -2.3714(9) -0.9493(5) -0.6945(5)
H1A H -2.4999 -1.0017 -0.7062
N2A N -1.6947(13) -0.6391(8) -0.5322(5)
H4A H -1.7573 -0.6371 -0.4669
C2A C -2.2552(11) -0.9000(6) -0.5689(5)
H5A H -2.3049 -0.9194 -0.4977
C3A C -2.0637(10) -0.8213(6) -0.5487(5)
H6A H -1.9820 -0.7879 -0.4643
C4A C -1.9966(8) -0.7936(4) -0.6568(5)
C5A C -2.1229(8) -0.8484(5) -0.7809(5)
H7A H -2.0764 -0.8308 -0.8537
C6A C -1.7978(9) -0.7051(5) -0.6487(5)
C7A C -1.4775(13) -0.5689(8) -0.5095(8)
H8A H -1.4095 -0.5943 -0.5844
H9A H -1.3771 -0.5880 -0.4324
O9A O -1.7283(6) -0.6953(3) -0.7474(3)
Mo1A Mo 0.30591(6) 0.71426(3) 0.12379(3)
O1A O 0.1786(5) 0.5062(3) 0.1046(3)
Mo2A Mo -0.15029(6) 0.55184(3) 0.13434(3)
O3A O -0.0055(5) 0.7143(3) 0.1047(3)
O4A O 0.3551(5) 0.8601(3) 0.0781(3)
O5A O 0.3931(6) 0.7472(3) 0.2901(3)
O6A O -0.2214(5) 0.3832(3) 0.0885(3)
O7A O -0.4183(5) 0.6245(3) 0.0971(4)
O8A O -0.0844(6) 0.5768(3) 0.3006(3)
O2A O -0.2548(6) -0.1240(3) -0.0321(3)
H2A H -0.1814 -0.1742 0.0206
H3A H -0.2618 -0.1707 -0.1145
Mo1_2 Mo 0.69409(6) 0.28574(3) -0.12379(3)
Mo1A_2 Mo -0.69409(6) 0.71426(3) 0.12379(3)
N1A_2 N -0.3080(6) 0.0747(4) 0.1989(4)
Co1_2 Co -2.5000 -1.0000 -1.0000
Co1_3 Co 0.5000 1.0000 0.0000
O4A_2 O -0.6449(5) -0.1399(3) 0.0781(3)
O7_2 O -0.5817(5) 0.3755(3) -0.0971(4)
O7A_2 O 0.5817(5) 0.6245(3) 0.0971(4)
loop_
_geom_bond_atom_site_label_1
_geom_bond_atom_site_label_2
_geom_bond_site_symmetry_1
_geom_bond_site_symmetry_2
Mo1 O1 1_555 1_555
N1 C1 1_555 1_555
C1 H1 1_555 1_555
Co1 N1 1_555 1_555
O1 Mo2 1_555 1_555
O2 Co1 1_555 1_555
H2 O2 1_555 1_555
H3 O2 1_555 1_555
Mo2 O3 1_555 1_555
N2 H4 1_555 1_555
C2 C1 1_555 1_555
H5 C2 1_555 1_555
O3 Mo1 1_555 1_555
O4 Mo1 1_555 1_555
C3 C2 1_555 1_555
H6 C3 1_555 1_555
C4 C3 1_555 1_555
O5 Mo1 1_555 1_555
C5 N1 1_555 1_555
H7 C5 1_555 1_555
O6 Mo2 1_555 1_555
O7 Mo2 1_555 1_555
C6 N2 1_555 1_555
C7 N2 1_555 1_555
H8 C7 1_555 1_555
H9 C7 1_555 1_555
O8 Mo2 1_555 1_555
O9 C6 1_555 1_555
N1A C1A 1_555 1_555
C1A H1A 1_555 1_555
N2A H4A 1_555 1_555
C2A C1A 1_555 1_555
H5A C2A 1_555 1_555
C3A C2A 1_555 1_555
H6A C3A 1_555 1_555
C4A C3A 1_555 1_555
C5A N1A 1_555 1_555
H7A C5A 1_555 1_555
C6A N2A 1_555 1_555
C7A C7 1_555 1_555
H8A C7A 1_555 1_555
H9A C7A 1_555 1_555
O9A C6A 1_555 1_555
Mo1A O6 1_555 1_555
O1A Mo2 1_555 1_555
Mo2A O1 1_555 1_555
O3A Mo1A 1_555 1_555
O4A Mo1A 1_555 1_555
O5A Mo1A 1_555 1_555
O6A Mo1 1_555 1_555
O7A Mo2A 1_555 1_555
O8A Mo2A 1_555 1_555
O2A Co1 1_555 1_555
H2A O2A 1_555 1_555
H3A O2A 1_555 1_555
Mo1_2 O7 1_555 1_555
Mo1A_2 O7A 1_555 1_555
N1A_2 Co1 1_555 1_555
Co1_2 N1A 1_555 1_555
Co1_3 O4A 1_555 1_555
O4A_2 Co1 1_555 1_555
O7_2 Mo1 1_555 1_555
O7A_2 Mo1A 1_555 1_555
Co1 O4 1_555 1_555
C4 C5 1_555 1_555
C4 C6 1_555 1_555
N2A C7A 1_555 1_555
C4A C5A 1_555 1_555
C4A C6A 1_555 1_555
Mo1A O1A 1_555 1_555
O1A Mo2A 1_555 1_555
Mo2A O3A 1_555 1_555
Mo2A O6A 1_555 1_555

#END
