
#######################################################################
#
#                 Cambridge Crystallographic Data Centre
#                                CCDC 
#
#######################################################################
#
# If this CIF has been generated from an entry in the Cambridge 
# Structural Database, then it will include bibliographic, chemical, 
# crystal, experimental, refinement or atomic coordinate data resulting 
# from the CCDC's data processing and validation procedures.
#
#######################################################################

data_HIKDIQ
_symmetry_cell_setting           triclinic
_symmetry_space_group_name_H-M   'P -1'
_symmetry_Int_Tables_number      2
_space_group_name_Hall           '-P 1'
loop_
_symmetry_equiv_pos_site_id
_symmetry_equiv_pos_as_xyz
1 x,y,z
2 -x,-y,-z
_cell_length_a                   9.977(3)
_cell_length_b                   10.058(3)
_cell_length_c                   11.165(3)
_cell_angle_alpha                92.661(5)
_cell_angle_beta                 91.976(4)
_cell_angle_gamma                97.604(4)
_cell_volume                     1108.41
loop_
_atom_site_label
_atom_site_type_symbol
_atom_site_fract_x
_atom_site_fract_y
_atom_site_fract_z
C1 C 0.2964(6) -0.1573(5) 1.3165(5)
H1 H 0.3166 -0.2242 1.3662
C2 C 0.3866(5) -0.0842(5) 1.2512(5)
H2 H 0.4788 -0.0900 1.2484
C3 C 0.1860(5) -0.0230(4) 1.2232(4)
H3 H 0.1169 0.0229 1.1958
C4 C 0.3638(5) 0.0989(4) 1.1067(4)
C5 C 0.4991(5) 0.1541(6) 1.1124(5)
H4 H 0.5590 0.1283 1.1697
C6 C 0.5429(5) 0.2487(6) 1.0306(5)
H5 H 0.6337 0.2852 1.0345
C7 C 0.4597(5) 0.2911(4) 0.9446(4)
C8 C 0.3253(5) 0.2358(5) 0.9436(5)
H6 H 0.2649 0.2623 0.8870
C9 C 0.2780(5) 0.1419(5) 1.0246(5)
H7 H 0.1865 0.1081 1.0226
C10 C 0.5101(5) 0.3904(4) 0.8560(4)
C11 C 0.6433(5) 0.4491(5) 0.8602(5)
H8 H 0.7021 0.4279 0.9206
C12 C 0.6917(5) 0.5392(5) 0.7763(5)
H9 H 0.7818 0.5779 0.7811
C13 C 0.6074(5) 0.5706(4) 0.6871(4)
C14 C 0.4742(5) 0.5147(6) 0.6811(5)
H10 H 0.4163 0.5359 0.6200
C15 C 0.4264(5) 0.4269(6) 0.7660(5)
H11 H 0.3353 0.3913 0.7623
C16 C 0.6059(5) 0.7737(5) 0.5637(5)
H12 H 0.5244 0.8009 0.5860
C17 C 0.6941(5) 0.8356(5) 0.4888(5)
H13 H 0.6837 0.9144 0.4513
C18 C 0.7777(5) 0.6625(4) 0.5448(4)
H14 H 0.8349 0.5975 0.5542
C19 C 0.9088(4) 1.0908(4) 0.3504(4)
C20 C 0.9076(4) 1.2059(4) 0.2666(4)
C21 C 0.9222(4) 1.3368(4) 0.3150(4)
H15 H 0.9265 1.3537 0.3977
C22 C 0.9303(4) 1.4428(4) 0.2381(4)
C23 C 0.9166(4) 1.4169(4) 0.1153(4)
H16 H 0.9162 1.4877 0.0645
C24 C 0.9036(5) 1.2880(4) 0.0681(4)
H17 H 0.8970 1.2712 -0.0147
C25 C 0.9003(5) 1.1814(4) 0.1438(4)
H18 H 0.8931 1.0937 0.1115
C26 C 0.9564(4) 1.5829(4) 0.2888(4)
Co1 Co 0.98347(6) 0.81986(5) 0.38327(5)
N1 N 0.1691(4) -0.1193(3) 1.2997(3)
N2 N 0.3155(4) 0.0012(3) 1.1892(3)
N3 N 0.8015(4) 0.7649(3) 0.4761(3)
N4 N 0.6589(4) 0.6637(3) 0.6004(3)
O1 O 1.0190(3) 1.6085(3) 0.3891(3)
O2 O 0.9163(3) 1.6776(3) 0.2311(3)
O3 O 0.9091(3) 0.9761(3) 0.3014(3)
O4 O 0.9115(3) 1.1161(3) 0.4602(3)
Co1_2 Co -0.01653(6) -0.18014(5) 1.38327(5)
Co1_3 Co 0.98347(6) 1.81986(5) 0.38327(5)
Co1A Co 1.01653(6) 1.18014(5) 0.61673(5)
N1_2 N 1.1691(4) 0.8807(3) 0.2997(3)
O1_2 O 1.0190(3) 0.6085(3) 0.3891(3)
O2_2 O 0.9163(3) 0.6776(3) 0.2311(3)
O4A O 1.0885(3) 0.8839(3) 0.5398(3)
loop_
_geom_bond_atom_site_label_1
_geom_bond_atom_site_label_2
_geom_bond_site_symmetry_1
_geom_bond_site_symmetry_2
C1 H1 1_555 1_555
C2 C1 1_555 1_555
H2 C2 1_555 1_555
C3 H3 1_555 1_555
C4 C5 1_555 1_555
C5 H4 1_555 1_555
C6 C5 1_555 1_555
H5 C6 1_555 1_555
C7 C6 1_555 1_555
C8 C7 1_555 1_555
H6 C8 1_555 1_555
C9 C4 1_555 1_555
H7 C9 1_555 1_555
C10 C7 1_555 1_555
C11 C10 1_555 1_555
H8 C11 1_555 1_555
C12 C11 1_555 1_555
H9 C12 1_555 1_555
C13 C12 1_555 1_555
C14 C13 1_555 1_555
H10 C14 1_555 1_555
C15 C10 1_555 1_555
H11 C15 1_555 1_555
C16 H12 1_555 1_555
C17 C16 1_555 1_555
H13 C17 1_555 1_555
C18 H14 1_555 1_555
C19 C20 1_555 1_555
C20 C21 1_555 1_555
C21 H15 1_555 1_555
C22 C21 1_555 1_555
C23 C22 1_555 1_555
H16 C23 1_555 1_555
C24 C23 1_555 1_555
H17 C24 1_555 1_555
C25 C20 1_555 1_555
H18 C25 1_555 1_555
C26 C22 1_555 1_555
Co1 N3 1_555 1_555
N1 C1 1_555 1_555
N2 C2 1_555 1_555
N3 C17 1_555 1_555
N4 C13 1_555 1_555
O1 C26 1_555 1_555
O2 C26 1_555 1_555
O3 C19 1_555 1_555
O4 C19 1_555 1_555
Co1_2 N1 1_555 1_555
Co1_3 O1 1_555 1_555
Co1A O4 1_555 1_555
N1_2 Co1 1_555 1_555
O1_2 Co1 1_555 1_555
O2_2 Co1 1_555 1_555
O4A Co1 1_555 1_555
C3 N1 1_555 1_555
C3 N2 1_555 1_555
C4 N2 1_555 1_555
C8 C9 1_555 1_555
C14 C15 1_555 1_555
C16 N4 1_555 1_555
C18 N3 1_555 1_555
C18 N4 1_555 1_555
C24 C25 1_555 1_555
Co1 O3 1_555 1_555
O2 Co1_3 1_555 1_555

#END
