
#######################################################################
#
#                 Cambridge Crystallographic Data Centre
#                                CCDC 
#
#######################################################################
#
# If this CIF has been generated from an entry in the Cambridge 
# Structural Database, then it will include bibliographic, chemical, 
# crystal, experimental, refinement or atomic coordinate data resulting 
# from the CCDC's data processing and validation procedures.
#
#######################################################################

data_HIKDIQ01
_symmetry_cell_setting           triclinic
_symmetry_space_group_name_H-M   'P -1'
_symmetry_Int_Tables_number      2
_space_group_name_Hall           '-P 1'
loop_
_symmetry_equiv_pos_site_id
_symmetry_equiv_pos_as_xyz
1 x,y,z
2 -x,-y,-z
_cell_length_a                   9.990(4)
_cell_length_b                   10.046(4)
_cell_length_c                   11.176(5)
_cell_angle_alpha                92.603(6)
_cell_angle_beta                 92.028(6)
_cell_angle_gamma                97.537(7)
_cell_volume                     1109.81
loop_
_atom_site_label
_atom_site_type_symbol
_atom_site_fract_x
_atom_site_fract_y
_atom_site_fract_z
Co1 Co 0.48352(2) 0.319725(19) 0.383280(18)
N1 N 0.66920(16) 0.38007(15) 0.29891(13)
N2 N 0.81517(15) 0.50088(15) 0.18927(13)
N3 N 1.15941(14) 1.16309(15) -0.39978(13)
N4 N 1.30146(15) 1.26524(15) -0.52408(13)
O1 O 0.41129(13) 0.61717(12) 0.46082(10)
O2 O 0.40823(13) 0.47572(11) 0.30217(11)
O3 O 0.51817(12) 1.10867(11) 0.38985(10)
O4 O 0.41613(13) 1.17787(11) 0.23156(11)
C1 C 0.68519(18) 0.47599(19) 0.22250(16)
H1 H 0.6159 0.5213 0.1946
C2 C 0.7949(2) 0.3419(2) 0.31655(19)
H2 H 0.8148 0.2751 0.3667
C3 C 0.8861(2) 0.4153(2) 0.25063(19)
H3 H 0.9780 0.4091 0.2476
C4 C 0.86446(17) 0.59897(17) 0.10730(15)
C5 C 0.77709(19) 0.6410(2) 0.02325(19)
H4 H 0.6862 0.6054 0.0203
C6 C 0.82344(19) 0.7361(2) -0.05685(19)
H5 H 0.7630 0.7634 -0.1129
C7 C 0.95864(16) 0.79138(17) -0.05509(15)
C8 C 1.04409(19) 0.7483(3) 0.03068(19)
H6 H 1.1349 0.7843 0.0346
C9 C 0.99855(19) 0.6530(3) 0.11096(19)
H7 H 1.0586 0.6256 0.1673
C10 C 1.00956(16) 0.89090(17) -0.14350(15)
C11 C 0.92581(19) 0.9257(3) -0.23503(19)
H8 H 0.8354 0.8883 -0.2400
C12 C 0.9739(2) 1.0150(3) -0.31945(19)
H9 H 0.9159 1.0372 -0.3802
C13 C 1.10763(17) 1.07081(17) -0.31323(15)
C14 C 1.19260(18) 1.0394(2) -0.22277(19)
H10 H 1.2826 1.0780 -0.2175
C15 C 1.14333(19) 0.9498(2) -0.13937(19)
H11 H 1.2017 0.9283 -0.0787
C16 C 1.27756(17) 1.16208(17) -0.45564(15)
H12 H 1.3346 1.0968 -0.4468
C17 C 1.1049(2) 1.2742(2) -0.43654(19)
H13 H 1.0234 1.3013 -0.4143
C18 C 1.1935(2) 1.3357(2) -0.51127(19)
H14 H 1.1830 1.4147 -0.5488
C19 C 0.40738(15) 0.70527(14) 0.26767(13)
C20 C 0.42233(15) 0.83710(14) 0.31517(13)
H15 H 0.4280 0.8542 0.3978
C21 C 0.42869(14) 0.94305(14) 0.23928(13)
C22 C 0.41600(16) 0.91771(16) 0.11584(14)
H16 H 0.4154 0.9887 0.0653
C23 C 0.40423(19) 0.78675(17) 0.06791(14)
H17 H 0.3992 0.7700 -0.0148
C24 C 0.40002(18) 0.68100(16) 0.14369(15)
H18 H 0.3922 0.5932 0.1116
C25 C 0.40909(15) 0.59122(15) 0.35051(14)
C26 C 0.45572(15) 1.08509(14) 0.28963(13)
Co1_2 Co 0.48352(2) 1.319725(19) 0.383280(18)
Co1_3 Co 1.48352(2) 1.319725(19) -0.616720(18)
Co1A Co 0.51648(2) 0.680275(19) 0.616720(18)
N4_2 N 0.30146(15) 0.26524(15) 0.47592(13)
O1A O 0.58871(13) 0.38283(12) 0.53918(10)
O3_2 O 0.51817(12) 0.10867(11) 0.38985(10)
O4_2 O 0.41613(13) 0.17787(11) 0.23156(11)
loop_
_geom_bond_atom_site_label_1
_geom_bond_atom_site_label_2
_geom_bond_site_symmetry_1
_geom_bond_site_symmetry_2
Co1 N1 1_555 1_555
N1 C1 1_555 1_555
N2 C1 1_555 1_555
N3 C13 1_555 1_555
N4 C16 1_555 1_555
O1 C25 1_555 1_555
O2 Co1 1_555 1_555
O3 C26 1_555 1_555
O4 C26 1_555 1_555
C1 H1 1_555 1_555
C2 N1 1_555 1_555
H2 C2 1_555 1_555
C3 N2 1_555 1_555
H3 C3 1_555 1_555
C4 N2 1_555 1_555
C5 C4 1_555 1_555
H4 C5 1_555 1_555
C6 C5 1_555 1_555
H5 C6 1_555 1_555
C7 C6 1_555 1_555
C8 C7 1_555 1_555
H6 C8 1_555 1_555
C9 C4 1_555 1_555
H7 C9 1_555 1_555
C10 C7 1_555 1_555
C11 C10 1_555 1_555
H8 C11 1_555 1_555
C12 C11 1_555 1_555
H9 C12 1_555 1_555
C13 C12 1_555 1_555
C14 C13 1_555 1_555
H10 C14 1_555 1_555
C15 C10 1_555 1_555
H11 C15 1_555 1_555
C16 N3 1_555 1_555
H12 C16 1_555 1_555
C17 N3 1_555 1_555
H13 C17 1_555 1_555
C18 N4 1_555 1_555
H14 C18 1_555 1_555
C19 C20 1_555 1_555
C20 H15 1_555 1_555
C21 C20 1_555 1_555
C22 C21 1_555 1_555
H16 C22 1_555 1_555
C23 C22 1_555 1_555
H17 C23 1_555 1_555
C24 C19 1_555 1_555
H18 C24 1_555 1_555
C25 O2 1_555 1_555
C26 C21 1_555 1_555
Co1_2 O3 1_555 1_555
Co1_3 N4 1_555 1_555
Co1A O1 1_555 1_555
N4_2 Co1 1_555 1_555
O1A Co1 1_555 1_555
O3_2 Co1 1_555 1_555
O4_2 Co1 1_555 1_555
O4 Co1_2 1_555 1_555
C2 C3 1_555 1_555
C8 C9 1_555 1_555
C14 C15 1_555 1_555
C17 C18 1_555 1_555
C19 C25 1_555 1_555
C23 C24 1_555 1_555

#END
