
#######################################################################
#
#                 Cambridge Crystallographic Data Centre
#                                CCDC 
#
#######################################################################
#
# If this CIF has been generated from an entry in the Cambridge 
# Structural Database, then it will include bibliographic, chemical, 
# crystal, experimental, refinement or atomic coordinate data resulting 
# from the CCDC's data processing and validation procedures.
#
#######################################################################

data_HIKHAM
_symmetry_cell_setting           tetragonal
_symmetry_space_group_name_H-M   'P 43 21 2'
_symmetry_Int_Tables_number      96
_space_group_name_Hall           'P 4nw 2abw'
loop_
_symmetry_equiv_pos_site_id
_symmetry_equiv_pos_as_xyz
1 x,y,z
2 1/2-y,1/2+x,3/4+z
3 -x,-y,1/2+z
4 1/2+y,1/2-x,1/4+z
5 1/2+x,1/2-y,1/4-z
6 y,x,-z
7 1/2-x,1/2+y,3/4-z
8 -y,-x,1/2-z
_cell_length_a                   8.628(3)
_cell_length_b                   8.628(3)
_cell_length_c                   24.621(10)
_cell_angle_alpha                90
_cell_angle_beta                 90
_cell_angle_gamma                90
_cell_volume                     1832.85
loop_
_atom_site_label
_atom_site_type_symbol
_atom_site_fract_x
_atom_site_fract_y
_atom_site_fract_z
Ag1 Ag 0.38813(6) 0.04977(6) 0.23870(2)
Ag2 Ag 0.25605(6) 0.25605(6) 0.0000
C1 C 0.4257(7) -0.0585(7) 0.11530(19)
C2 C 0.5055(11) -0.2094(9) 0.1280(3)
H1 H 0.4325 -0.2924 0.1207
H2 H 0.5905 -0.2212 0.1026
C3 C 0.5659(12) -0.2331(10) 0.1814(3)
H3 H 0.6132 -0.3337 0.1835
H4 H 0.4832 -0.2265 0.2074
H5 H 0.6420 -0.1550 0.1892
C4 C 0.3092(7) 0.1567(7) 0.1214(2)
C5 C 0.2365(9) 0.2986(9) 0.1433(2)
H6 H 0.1569 0.2693 0.1692
H7 H 0.1866 0.3542 0.1139
C6 C 0.3507(11) 0.4053(10) 0.1710(4)
H8 H 0.2973 0.4951 0.1844
H9 H 0.4286 0.4368 0.1454
H10 H 0.3989 0.3519 0.2007
N1 N 0.3708(6) 0.0431(6) 0.15213(17)
N2 N 0.4020(6) -0.0100(5) 0.06543(16)
N3 N 0.3278(6) 0.1284(6) 0.06898(16)
Ag1E Ag 0.04977(6) 0.38813(6) -0.23870(2)
C1E C -0.0585(7) 0.4257(7) -0.11530(19)
C2E C -0.2094(9) 0.5055(11) -0.1280(3)
H1E H -0.2924 0.4325 -0.1207
H2E H -0.2212 0.5905 -0.1026
C3E C -0.2331(10) 0.5659(12) -0.1814(3)
H3E H -0.3337 0.6132 -0.1835
H4E H -0.2265 0.4832 -0.2074
H5E H -0.1550 0.6420 -0.1892
C4E C 0.1567(7) 0.3092(7) -0.1214(2)
C5E C 0.2986(9) 0.2365(9) -0.1433(2)
H6E H 0.2693 0.1569 -0.1692
H7E H 0.3542 0.1866 -0.1139
C6E C 0.4053(10) 0.3507(11) -0.1710(4)
H8E H 0.4951 0.2973 -0.1844
H9E H 0.4368 0.4286 -0.1454
H10E H 0.3519 0.3989 -0.2007
N1E N 0.0431(6) 0.3708(6) -0.15213(17)
N2E N -0.0100(5) 0.4020(6) -0.06543(16)
N3E N 0.1284(6) 0.3278(6) -0.06898(16)
Ag1A Ag 0.45023(6) -0.11187(6) -0.01130(2)
Ag1D Ag -0.11187(6) 0.45023(6) 0.01130(2)
N2C N 0.4900(5) 0.0980(6) 0.31543(16)
N2F N 0.0980(6) 0.4900(5) -0.31543(16)
N4 N 0.0304(7) -0.0304(7) 0.2500
O1 O -0.1082(6) -0.0668(6) 0.2428(2)
O2 O 0.1319(6) -0.1319(6) 0.2500
O1G O 0.0668(6) 0.1082(6) 0.2572(2)
loop_
_geom_bond_atom_site_label_1
_geom_bond_atom_site_label_2
_geom_bond_site_symmetry_1
_geom_bond_site_symmetry_2
Ag1 N1 1_555 1_555
Ag2 N3 1_555 1_555
C1 C2 1_555 1_555
C2 H1 1_555 1_555
H2 C2 1_555 1_555
C3 C2 1_555 1_555
H3 C3 1_555 1_555
H4 C3 1_555 1_555
H5 C3 1_555 1_555
C4 C5 1_555 1_555
C5 H6 1_555 1_555
H7 C5 1_555 1_555
C6 C5 1_555 1_555
H8 C6 1_555 1_555
H9 C6 1_555 1_555
H10 C6 1_555 1_555
N1 C1 1_555 1_555
N2 C1 1_555 1_555
N3 C4 1_555 1_555
N4 O1 1_555 1_555
O2 N4 1_555 1_555
Ag1E N1E 1_555 1_555
C1E C2E 1_555 1_555
C2E H1E 1_555 1_555
H2E C2E 1_555 1_555
C3E C2E 1_555 1_555
H3E C3E 1_555 1_555
H4E C3E 1_555 1_555
H5E C3E 1_555 1_555
C4E C5E 1_555 1_555
C5E H6E 1_555 1_555
H7E C5E 1_555 1_555
C6E C5E 1_555 1_555
H8E C6E 1_555 1_555
H9E C6E 1_555 1_555
H10E C6E 1_555 1_555
N1E C1E 1_555 1_555
N2E C1E 1_555 1_555
N3E Ag2 1_555 1_555
Ag1A N2 1_555 1_555
Ag1D N2E 1_555 1_555
N2C Ag1 1_555 1_555
N2F Ag1E 1_555 1_555
O1G N4 1_555 1_555
C4 N1 1_555 1_555
N2 N3 1_555 1_555
C4E N1E 1_555 1_555
C4E N3E 1_555 1_555
N2E N3E 1_555 1_555

#END
