
#######################################################################
#
#                 Cambridge Crystallographic Data Centre
#                                CCDC 
#
#######################################################################
#
# If this CIF has been generated from an entry in the Cambridge 
# Structural Database, then it will include bibliographic, chemical, 
# crystal, experimental, refinement or atomic coordinate data resulting 
# from the CCDC's data processing and validation procedures.
#
#######################################################################

data_HIKKOC
_symmetry_cell_setting           monoclinic
_symmetry_space_group_name_H-M   'P 21/c'
_symmetry_Int_Tables_number      14
_space_group_name_Hall           '-P 2ybc'
loop_
_symmetry_equiv_pos_site_id
_symmetry_equiv_pos_as_xyz
1 x,y,z
2 -x,1/2+y,1/2-z
3 -x,-y,-z
4 x,1/2-y,1/2+z
_cell_length_a                   12.411(5)
_cell_length_b                   16.008(5)
_cell_length_c                   8.721(3)
_cell_angle_alpha                90
_cell_angle_beta                 93.838(16)
_cell_angle_gamma                90
_cell_volume                     1728.76
loop_
_atom_site_label
_atom_site_type_symbol
_atom_site_fract_x
_atom_site_fract_y
_atom_site_fract_z
Zn1 Zn 0.330046(14) 0.165478(11) 0.450871(19)
N1 N 0.67344(11) 0.45068(10) -0.06852(16)
N2 N 0.79642(14) 0.34693(11) 0.4337(2)
N3 N 0.29513(11) 0.10786(9) 0.23605(14)
N4 N 0.16160(11) 0.16425(8) 0.43535(16)
O1 O 0.41439(10) 0.26515(8) 0.39674(13)
O2 O 0.33371(9) 0.30540(8) 0.17646(12)
O3 O 0.46089(9) 0.40506(7) -0.00561(13)
O4 O 0.62432(13) 0.43094(12) -0.18859(15)
O5 O 0.74900(11) 0.50049(9) -0.06180(16)
O6 O 0.88645(11) 0.37247(12) 0.40693(18)
O7 O 0.77718(13) 0.31225(13) 0.55333(18)
C1 C 0.52163(13) 0.33957(9) 0.23281(18)
C2 C 0.53641(12) 0.38539(9) 0.09340(17)
C3 C 0.64584(13) 0.41098(10) 0.07377(18)
C4 C 0.72955(13) 0.39982(11) 0.1829(2)
H1 H 0.7984 0.4197 0.1672
C5 C 0.70885(14) 0.35848(12) 0.3161(2)
C6 C 0.60739(14) 0.32761(10) 0.3408(2)
H2 H 0.5966 0.2985 0.4308
C7 C 0.41542(12) 0.30116(10) 0.26857(17)
C8 C 0.36826(15) 0.08029(11) 0.1431(2)
H3 H 0.4408 0.0813 0.1776
C9 C 0.34032(17) 0.05019(13) -0.0027(2)
H4 H 0.3927 0.0298 -0.0644
C10 C 0.23318(18) 0.05116(14) -0.0543(2)
H5 H 0.2124 0.0328 -0.1530
C11 C 0.15674(16) 0.07938(14) 0.0407(2)
H6 H 0.0840 0.0802 0.0071
C12 C 0.19008(13) 0.10673(10) 0.18784(18)
C13 C 0.11473(13) 0.13476(11) 0.30218(18)
C14 C 0.00339(15) 0.13051(15) 0.2784(2)
H7 H -0.0282 0.1106 0.1859
C15 C -0.06020(17) 0.15622(15) 0.3936(3)
H8 H -0.1351 0.1552 0.3784
C16 C -0.01166(16) 0.18342(14) 0.5309(3)
H9 H -0.0529 0.1991 0.6113
C17 C 0.09935(15) 0.18701(12) 0.5470(2)
H10 H 0.1322 0.2061 0.6393
Zn1C Zn 0.330046(14) 0.334522(11) -0.049129(19)
O2C O 0.33371(9) 0.19460(8) 0.67646(12)
O3C O 0.46089(9) 0.09494(7) 0.49439(13)
loop_
_geom_bond_atom_site_label_1
_geom_bond_atom_site_label_2
_geom_bond_site_symmetry_1
_geom_bond_site_symmetry_2
Zn1 N3 1_555 1_555
N1 O4 1_555 1_555
N2 O6 1_555 1_555
N3 C8 1_555 1_555
N4 Zn1 1_555 1_555
O1 Zn1 1_555 1_555
O2 C7 1_555 1_555
O3 C2 1_555 1_555
O5 N1 1_555 1_555
O7 N2 1_555 1_555
C1 C2 1_555 1_555
C2 C3 1_555 1_555
C3 N1 1_555 1_555
C4 C3 1_555 1_555
H1 C4 1_555 1_555
C5 N2 1_555 1_555
C6 C1 1_555 1_555
H2 C6 1_555 1_555
C7 O1 1_555 1_555
C8 H3 1_555 1_555
C9 C8 1_555 1_555
H4 C9 1_555 1_555
C10 C9 1_555 1_555
H5 C10 1_555 1_555
C11 C10 1_555 1_555
H6 C11 1_555 1_555
C12 N3 1_555 1_555
C13 N4 1_555 1_555
C14 C13 1_555 1_555
H7 C14 1_555 1_555
C15 C14 1_555 1_555
H8 C15 1_555 1_555
C16 C15 1_555 1_555
H9 C16 1_555 1_555
C17 N4 1_555 1_555
H10 C17 1_555 1_555
Zn1C O2 1_555 1_555
O2C Zn1 1_555 1_555
O3C Zn1 1_555 1_555
O3 Zn1C 1_555 1_555
C1 C7 1_555 1_555
C4 C5 1_555 1_555
C5 C6 1_555 1_555
C11 C12 1_555 1_555
C12 C13 1_555 1_555
C16 C17 1_555 1_555

#END
