
#######################################################################
#
#                 Cambridge Crystallographic Data Centre
#                                CCDC 
#
#######################################################################
#
# If this CIF has been generated from an entry in the Cambridge 
# Structural Database, then it will include bibliographic, chemical, 
# crystal, experimental, refinement or atomic coordinate data resulting 
# from the CCDC's data processing and validation procedures.
#
#######################################################################

data_HIKMOE
_symmetry_cell_setting           orthorhombic
_symmetry_space_group_name_H-M   'P n n a'
_symmetry_Int_Tables_number      52
_space_group_name_Hall           '-P 2a 2bc'
loop_
_symmetry_equiv_pos_site_id
_symmetry_equiv_pos_as_xyz
1 x,y,z
2 1/2-x,-y,z
3 x,1/2-y,1/2-z
4 1/2-x,1/2+y,1/2-z
5 -x,-y,-z
6 1/2+x,y,-z
7 -x,1/2+y,1/2+z
8 1/2+x,1/2-y,1/2+z
_cell_length_a                   16.4217(17)
_cell_length_b                   19.8241(15)
_cell_length_c                   10.233
_cell_angle_alpha                90
_cell_angle_beta                 90
_cell_angle_gamma                90
_cell_volume                     3331.31
loop_
_atom_site_label
_atom_site_type_symbol
_atom_site_fract_x
_atom_site_fract_y
_atom_site_fract_z
Cu1 Cu 0.225181(15) 0.324209(14) 0.08718(3)
O1 O 0.18301(10) 0.42796(9) -0.05339(18)
O2 O 0.23083(9) 0.32725(8) -0.11075(19)
O3 O 0.27713(10) 0.28518(10) -0.59499(17)
O4 O 0.20307(10) 0.35036(9) -0.73102(16)
O5 O 0.0778(2) 0.55605(15) -0.5780(2)
O6 O 0.06914(15) 0.57637(11) -0.3723(2)
N1 N 0.11061(11) 0.29273(10) 0.0723(2)
N2 N -0.01823(11) 0.27576(10) 0.1216(2)
N3 N 0.33385(12) 0.36639(11) 0.10113(19)
N4 N 0.43218(13) 0.44205(10) 0.0936(2)
N5 N 0.09280(15) 0.54259(12) -0.4648(2)
C1 C 0.20432(13) 0.38603(11) -0.1372(2)
C2 C 0.23322(13) 0.33445(12) -0.6210(3)
C3 C 0.19593(13) 0.40525(11) -0.2794(2)
C4 C 0.22308(12) 0.36423(12) -0.3808(2)
H1 H 0.2515 0.3237 -0.3613
C5 C 0.20901(14) 0.38199(11) -0.5109(2)
C6 C 0.16669(15) 0.44122(12) -0.5406(2)
H2 H 0.1561 0.4537 -0.6285
C7 C 0.14058(15) 0.48114(12) -0.4373(3)
C8 C 0.15522(14) 0.46520(12) -0.3082(2)
H3 H 0.1379 0.4945 -0.2401
C9 C 0.07805(14) 0.24629(12) -0.0143(2)
H4 H 0.1065 0.2258 -0.0847
C10 C -0.00128(16) 0.23459(13) 0.0175(3)
H5 H -0.0375 0.2041 -0.0241
C11 C 0.05071(13) 0.30934(12) 0.1526(2)
H6 H 0.0555 0.3406 0.2224
C12 C -0.09347(13) 0.27767(14) 0.1983(3)
H7 H -0.1408 0.2716 0.1395
H8 H -0.0987 0.3222 0.2412
C13 C 0.40228(14) 0.33966(13) 0.1575(3)
H9 H 0.4060 0.2959 0.1947
C14 C 0.46394(14) 0.38522(13) 0.1520(3)
H10 H 0.5181 0.3791 0.1825
C15 C 0.35364(14) 0.42844(12) 0.0644(3)
H11 H 0.3175 0.4592 0.0232
C16 C 0.47518(14) 0.50422(13) 0.0623(3)
H12 H 0.5118 0.5164 0.1355
H13 H 0.4354 0.5413 0.0508
Cu1B Cu 0.225181(15) 0.175791(14) -0.58718(3)
Cu1_2 Cu 0.225181(15) 0.324209(14) -0.91282(3)
Cu1B_2 Cu 0.225181(15) 0.175791(14) 0.41282(3)
Cu1D Cu 0.774819(15) 0.675791(14) -0.08718(3)
O1B O 0.18301(10) 0.07204(9) -0.44661(18)
O2B O 0.23083(9) 0.17275(8) -0.38925(19)
O3B O 0.27713(10) 0.21482(10) 0.09499(17)
O4B O 0.20307(10) 0.14964(9) 0.23102(16)
O4_2 O 0.20307(10) 0.35036(9) 0.26898(16)
O4B_2 O 0.20307(10) 0.14964(9) -0.76898(16)
O5B O 0.0778(2) -0.05605(15) 0.0780(2)
O6B O 0.06914(15) -0.07637(11) -0.1277(2)
N1B N 0.11061(11) 0.20727(10) 0.4277(2)
N1B_2 N 0.11061(11) 0.20727(10) -0.5723(2)
N2B N -0.01823(11) 0.22424(10) 0.3784(2)
N3D N 0.66615(12) 0.63361(11) -0.10113(19)
N3B N 0.33385(12) 0.13361(11) -0.60113(19)
N4D N 0.56782(13) 0.55795(10) -0.0936(2)
N5B N 0.09280(15) -0.04259(12) -0.0352(2)
C1B C 0.20432(13) 0.11397(11) -0.3628(2)
C2B C 0.23322(13) 0.16555(12) 0.1210(3)
C3B C 0.19593(13) 0.09475(11) -0.2206(2)
C4B C 0.22308(12) 0.13577(12) -0.1192(2)
H1B H 0.2515 0.1763 -0.1387
C5B C 0.20901(14) 0.11801(11) 0.0109(2)
C6B C 0.16669(15) 0.05878(12) 0.0406(2)
H2B H 0.1561 0.0463 0.1285
C7B C 0.14058(15) 0.01886(12) -0.0627(3)
C8B C 0.15522(14) 0.03480(12) -0.1918(2)
H3B H 0.1379 0.0055 -0.2599
C9B C 0.07805(14) 0.25371(12) 0.5143(2)
H4B H 0.1065 0.2742 0.5847
C10B C -0.00128(16) 0.26541(13) 0.4825(3)
H5B H -0.0375 0.2959 0.5241
C11B C 0.05071(13) 0.19066(12) 0.3474(2)
H6B H 0.0555 0.1594 0.2776
C12B C -0.09347(13) 0.22233(14) 0.3017(3)
H7B H -0.1408 0.2284 0.3605
H8B H -0.0987 0.1778 0.2588
C13D C 0.59772(14) 0.66034(13) -0.1575(3)
H9D H 0.5940 0.7041 -0.1947
C14D C 0.53606(14) 0.61478(13) -0.1520(3)
H10D H 0.4819 0.6209 -0.1825
C15D C 0.64636(14) 0.57156(12) -0.0644(3)
H11D H 0.6825 0.5408 -0.0232
C16D C 0.52482(14) 0.49578(13) -0.0623(3)
H12D H 0.4882 0.4836 -0.1355
H13D H 0.5646 0.4587 -0.0508
loop_
_geom_bond_atom_site_label_1
_geom_bond_atom_site_label_2
_geom_bond_site_symmetry_1
_geom_bond_site_symmetry_2
Cu1 O2 1_555 1_555
O1 C1 1_555 1_555
O2 C1 1_555 1_555
O3 C2 1_555 1_555
O4 C2 1_555 1_555
O5 N5 1_555 1_555
O6 N5 1_555 1_555
N1 Cu1 1_555 1_555
N2 C10 1_555 1_555
N3 Cu1 1_555 1_555
N4 C14 1_555 1_555
N5 C7 1_555 1_555
C1 C3 1_555 1_555
C2 C5 1_555 1_555
C3 C4 1_555 1_555
C4 H1 1_555 1_555
C5 C4 1_555 1_555
C6 C5 1_555 1_555
H2 C6 1_555 1_555
C7 C6 1_555 1_555
C8 C3 1_555 1_555
H3 C8 1_555 1_555
C9 N1 1_555 1_555
H4 C9 1_555 1_555
C10 C9 1_555 1_555
H5 C10 1_555 1_555
C11 N1 1_555 1_555
H6 C11 1_555 1_555
C12 N2 1_555 1_555
H7 C12 1_555 1_555
H8 C12 1_555 1_555
C13 N3 1_555 1_555
H9 C13 1_555 1_555
C14 C13 1_555 1_555
H10 C14 1_555 1_555
C15 N3 1_555 1_555
H11 C15 1_555 1_555
C16 N4 1_555 1_555
H12 C16 1_555 1_555
H13 C16 1_555 1_555
Cu1B O3 1_555 1_555
Cu1_2 O4 1_555 1_555
Cu1B_2 O4B 1_555 1_555
Cu1D N3D 1_555 1_555
O1B C1B 1_555 1_555
O2B Cu1B 1_555 1_555
O3B Cu1 1_555 1_555
O4B C2B 1_555 1_555
O4_2 Cu1 1_555 1_555
O4B_2 Cu1B 1_555 1_555
O5B N5B 1_555 1_555
O6B N5B 1_555 1_555
N1B Cu1B_2 1_555 1_555
N1B_2 Cu1B 1_555 1_555
N2B C10B 1_555 1_555
N3D C13D 1_555 1_555
N3B Cu1B 1_555 1_555
N4D C14D 1_555 1_555
N5B C7B 1_555 1_555
C1B O2B 1_555 1_555
C2B O3B 1_555 1_555
C3B C1B 1_555 1_555
C4B C3B 1_555 1_555
H1B C4B 1_555 1_555
C5B C2B 1_555 1_555
C6B C5B 1_555 1_555
H2B C6B 1_555 1_555
C7B C6B 1_555 1_555
C8B C3B 1_555 1_555
H3B C8B 1_555 1_555
C9B N1B 1_555 1_555
H4B C9B 1_555 1_555
C10B C9B 1_555 1_555
H5B C10B 1_555 1_555
C11B N1B 1_555 1_555
H6B C11B 1_555 1_555
C12B C12 1_555 1_555
H7B C12B 1_555 1_555
H8B C12B 1_555 1_555
C13D H9D 1_555 1_555
C14D C13D 1_555 1_555
H10D C14D 1_555 1_555
C15D N3D 1_555 1_555
H11D C15D 1_555 1_555
C16D C16 1_555 1_555
H12D C16D 1_555 1_555
H13D C16D 1_555 1_555
N2 C11 1_555 1_555
N4 C15 1_555 1_555
C7 C8 1_555 1_555
N2B C11B 1_555 1_555
N2B C12B 1_555 1_555
N4D C15D 1_555 1_555
N4D C16D 1_555 1_555
C4B C5B 1_555 1_555
C7B C8B 1_555 1_555

#END
