
#######################################################################
#
#                 Cambridge Crystallographic Data Centre
#                                CCDC 
#
#######################################################################
#
# If this CIF has been generated from an entry in the Cambridge 
# Structural Database, then it will include bibliographic, chemical, 
# crystal, experimental, refinement or atomic coordinate data resulting 
# from the CCDC's data processing and validation procedures.
#
#######################################################################

data_HIKMIY
_symmetry_cell_setting           monoclinic
_symmetry_space_group_name_H-M   'P 21/c'
_symmetry_Int_Tables_number      14
_space_group_name_Hall           '-P 2ybc'
loop_
_symmetry_equiv_pos_site_id
_symmetry_equiv_pos_as_xyz
1 x,y,z
2 -x,1/2+y,1/2-z
3 -x,-y,-z
4 x,1/2-y,1/2+z
_cell_length_a                   10.2458(3)
_cell_length_b                   21.9840(3)
_cell_length_c                   9.0406(2)
_cell_angle_alpha                90
_cell_angle_beta                 103.0100(10)
_cell_angle_gamma                90
_cell_volume                     1984.07
loop_
_atom_site_label
_atom_site_type_symbol
_atom_site_fract_x
_atom_site_fract_y
_atom_site_fract_z
Zn1 Zn -0.08683(6) 0.10095(3) 0.35368(7)
O1 O 0.0961(4) 0.09035(19) 0.4829(5)
O3 O 0.1682(4) 0.1179(2) 0.2795(5)
O5 O 0.6551(5) 0.1009(2) 0.2852(5)
O6 O 0.7981(4) 0.08607(19) 0.5027(5)
O7 O 0.5127(7) 0.0258(3) 0.8599(8)
H1 H 0.4416 0.0213 0.8904
N1 N -0.0997(5) 0.1885(2) 0.2946(6)
N2 N -0.0376(6) 0.2834(2) 0.2780(7)
N3 N 0.0573(5) 0.4442(2) 0.3815(6)
N4 N 0.1021(4) 0.5322(2) 0.2928(5)
C1 C 0.1898(6) 0.1001(2) 0.4125(7)
C2 C 0.6797(6) 0.0912(3) 0.4249(7)
C3 C 0.3308(6) 0.0872(3) 0.4972(7)
C4 C 0.4359(6) 0.0949(3) 0.4281(7)
H2 H 0.4187 0.1091 0.3263
C5 C 0.5640(6) 0.0828(3) 0.5019(7)
C6 C 0.5900(6) 0.0601(4) 0.6493(7)
H3 H 0.6790 0.0511 0.7021
C7 C 0.4833(7) 0.0511(4) 0.7174(8)
C8 C 0.3551(7) 0.0648(3) 0.6439(8)
H4 H 0.2832 0.0589 0.6930
C9 C -0.0047(7) 0.2290(3) 0.3409(8)
H5 H 0.0775 0.2206 0.4107
C10 C 0.0438(7) 0.3382(3) 0.2968(9)
H6 H 0.0428 0.3558 0.1958
H7 H 0.1375 0.3275 0.3453
C11 C -0.0073(8) 0.3850(3) 0.3933(9)
H8 H -0.1056 0.3892 0.3584
H9 H 0.0128 0.3716 0.5006
C12 C 0.1712(6) 0.4652(3) 0.4775(7)
H10 H 0.2210 0.4456 0.5659
C13 C 0.1981(6) 0.5188(3) 0.4219(7)
H11 H 0.2723 0.5440 0.4649
C14 C 0.0196(6) 0.4848(3) 0.2724(7)
H12 H -0.0563 0.4806 0.1905
C15 C -0.1591(9) 0.2774(4) 0.1833(11)
H13 H -0.2082 0.3080 0.1203
C16 C -0.1975(8) 0.2184(3) 0.1960(10)
H14 H -0.2801 0.2011 0.1437
Zn1_2 Zn 0.91317(6) 0.10095(3) 0.35368(7)
Zn1A Zn 0.08683(6) 0.60095(3) 0.14632(7)
O6_2 O -0.2019(4) 0.08607(19) 0.5027(5)
N4A N -0.1021(4) 0.0322(2) 0.2072(5)
O2 O 0.2552(9) 0.2801(4) 0.6431(11)
O4 O 0.4560(10) 0.1350(7) 1.0343(12)
O8 O 0.462(4) 0.2225(13) 0.828(6)
loop_
_geom_bond_atom_site_label_1
_geom_bond_atom_site_label_2
_geom_bond_site_symmetry_1
_geom_bond_site_symmetry_2
Zn1 O1 1_555 1_555
O1 C1 1_555 1_555
O3 C1 1_555 1_555
O5 C2 1_555 1_555
O6 C2 1_555 1_555
O7 H1 1_555 1_555
N1 Zn1 1_555 1_555
N2 C9 1_555 1_555
N3 C11 1_555 1_555
N4 C13 1_555 1_555
C1 C3 1_555 1_555
C2 C5 1_555 1_555
C3 C4 1_555 1_555
C4 H2 1_555 1_555
C5 C4 1_555 1_555
C6 C5 1_555 1_555
H3 C6 1_555 1_555
C7 O7 1_555 1_555
C8 C3 1_555 1_555
H4 C8 1_555 1_555
C9 N1 1_555 1_555
H5 C9 1_555 1_555
C10 N2 1_555 1_555
H6 C10 1_555 1_555
H7 C10 1_555 1_555
C11 C10 1_555 1_555
H8 C11 1_555 1_555
H9 C11 1_555 1_555
C12 N3 1_555 1_555
H10 C12 1_555 1_555
C13 C12 1_555 1_555
H11 C13 1_555 1_555
C14 N3 1_555 1_555
H12 C14 1_555 1_555
C15 N2 1_555 1_555
H13 C15 1_555 1_555
C16 N1 1_555 1_555
H14 C16 1_555 1_555
Zn1_2 O6 1_555 1_555
Zn1A N4 1_555 1_555
O6_2 Zn1 1_555 1_555
N4A Zn1 1_555 1_555
N4 C14 1_555 1_555
C6 C7 1_555 1_555
C7 C8 1_555 1_555
C15 C16 1_555 1_555

#END
