
#######################################################################
#
#                 Cambridge Crystallographic Data Centre
#                                CCDC 
#
#######################################################################
#
# If this CIF has been generated from an entry in the Cambridge 
# Structural Database, then it will include bibliographic, chemical, 
# crystal, experimental, refinement or atomic coordinate data resulting 
# from the CCDC's data processing and validation procedures.
#
#######################################################################

data_HIKQUP
_symmetry_cell_setting           monoclinic
_symmetry_space_group_name_H-M   'P 21/n'
_symmetry_Int_Tables_number      14
_space_group_name_Hall           '-P 2yn'
loop_
_symmetry_equiv_pos_site_id
_symmetry_equiv_pos_as_xyz
1 x,y,z
2 1/2-x,1/2+y,1/2-z
3 -x,-y,-z
4 1/2+x,1/2-y,1/2+z
_cell_length_a                   12.0007(5)
_cell_length_b                   15.5179(5)
_cell_length_c                   16.1233(6)
_cell_angle_alpha                90
_cell_angle_beta                 100.2352(12)
_cell_angle_gamma                90
_cell_volume                     2954.79
loop_
_atom_site_label
_atom_site_type_symbol
_atom_site_fract_x
_atom_site_fract_y
_atom_site_fract_z
Sm1 Sm 0.665140(10) 0.628329(8) 0.509857(8)
Cu1 Cu 0.56430(3) 0.62628(2) 0.70515(2)
C1 C 0.4615(2) 0.75015(17) 0.57259(16)
C2 C 0.4664(2) 0.79795(17) 0.49855(17)
C3 C 0.3854(3) 0.85869(18) 0.4689(2)
H1 H 0.3903 0.8895 0.4202
C4 C 0.2963(3) 0.87409(19) 0.5116(2)
H2 H 0.2414 0.9148 0.4910
C5 C 0.2889(2) 0.8299(2) 0.5833(2)
H3 H 0.2293 0.8410 0.6115
C6 C 0.3710(2) 0.76713(18) 0.61522(18)
O1 O 0.55560(16) 0.77573(12) 0.45872(12)
C7 C 0.5777(3) 0.8317(2) 0.3914(2)
H4 H 0.5075 0.8419 0.3525
H5 H 0.6295 0.8030 0.3606
C8 C 0.6278(3) 0.9169(2) 0.4238(3)
H6 H 0.5746 0.9474 0.4509
H7 H 0.6445 0.9506 0.3776
H8 H 0.6962 0.9071 0.4636
O2 O 0.54051(15) 0.69171(12) 0.59828(11)
C9 C 0.3546(2) 0.72160(19) 0.69017(18)
H9 H 0.2906 0.7375 0.7116
N1 N 0.41506(19) 0.66255(17) 0.73145(15)
C10 C 0.3650(3) 0.6251(3) 0.8019(2)
H10 H 0.2992 0.5913 0.7778
H11 H 0.3389 0.6721 0.8332
C11 C 0.4421(4) 0.5694(3) 0.8624(3)
H12 H 0.5032 0.6049 0.8917
H13 H 0.4002 0.5476 0.9041
C12 C 0.4915(3) 0.4961(2) 0.8243(2)
H14 H 0.4337 0.4687 0.7830
H15 H 0.5194 0.4540 0.8675
N2 N 0.5852(2) 0.52520(17) 0.78308(15)
C13 C 0.6786(3) 0.4841(2) 0.80280(18)
H16 H 0.6810 0.4424 0.8445
C14 C 0.7804(2) 0.49460(18) 0.76820(17)
C15 C 0.8757(3) 0.44487(19) 0.80398(19)
H17 H 0.8725 0.4107 0.8509
C16 C 0.9722(3) 0.4466(2) 0.7704(2)
H18 H 1.0350 0.4148 0.7953
C17 C 0.9770(2) 0.4958(2) 0.6990(2)
H19 H 1.0427 0.4962 0.6759
C18 C 0.8846(2) 0.54402(17) 0.66213(17)
C19 C 0.7842(2) 0.54488(16) 0.69620(16)
O3 O 0.87900(15) 0.59183(13) 0.58937(12)
C20 C 0.9849(2) 0.6070(3) 0.5601(2)
H20 H 0.9690 0.6307 0.5036
H21 H 1.0239 0.5525 0.5576
C21 C 1.0610(3) 0.6681(3) 0.6168(3)
H22 H 1.0202 0.7199 0.6240
H23 H 1.1258 0.6818 0.5919
H24 H 1.0855 0.6414 0.6707
O4 O 0.69685(14) 0.59135(12) 0.65757(11)
C22 C 0.6971(2) 0.35190(16) 0.60895(16)
C23 C 0.6569(2) 0.30815(17) 0.67272(16)
H25 H 0.5844 0.3188 0.6832
C24 C 0.7263(2) 0.24848(18) 0.72041(17)
H26 H 0.6989 0.2202 0.7636
N3 N 0.8310(2) 0.22916(15) 0.70770(15)
C25 C 0.8687(2) 0.2726(2) 0.64626(19)
H27 H 0.9413 0.2607 0.6367
C26 C 0.8055(2) 0.33412(18) 0.59624(17)
H28 H 0.8357 0.3630 0.5548
C27 C 0.6241(2) 0.41816(16) 0.55552(16)
O5 O 0.67444(15) 0.47508(12) 0.52088(12)
O6 O 0.51949(16) 0.41156(13) 0.55102(13)
N4 N 0.8228(2) 0.78275(17) 0.52969(16)
O7 O 0.7669(2) 0.76591(14) 0.58654(14)
O8 O 0.80488(18) 0.73479(14) 0.46479(13)
O9 O 0.8903(3) 0.84198(19) 0.53493(19)
N5 N 0.7345(2) 0.59948(18) 0.34127(16)
O10 O 0.64647(19) 0.64033(16) 0.34876(14)
O11 O 0.7661(2) 0.5940(2) 0.27372(15)
O12 O 0.78668(19) 0.56305(15) 0.40651(13)
Sm1B Sm 0.334860(10) 0.371671(8) 0.490143(8)
Cu1A Cu 0.93570(3) 0.12628(2) 0.79485(2)
N3A N 0.6690(2) 0.72916(15) 0.79230(15)
O6B O 0.48051(16) 0.58844(13) 0.44898(13)
loop_
_geom_bond_atom_site_label_1
_geom_bond_atom_site_label_2
_geom_bond_site_symmetry_1
_geom_bond_site_symmetry_2
Sm1 O1 1_555 1_555
Cu1 O2 1_555 1_555
C1 C2 1_555 1_555
C2 C3 1_555 1_555
C3 H1 1_555 1_555
C4 C3 1_555 1_555
H2 C4 1_555 1_555
C5 C4 1_555 1_555
H3 C5 1_555 1_555
C6 C1 1_555 1_555
O1 C2 1_555 1_555
C7 O1 1_555 1_555
H4 C7 1_555 1_555
H5 C7 1_555 1_555
C8 C7 1_555 1_555
H6 C8 1_555 1_555
H7 C8 1_555 1_555
H8 C8 1_555 1_555
O2 Sm1 1_555 1_555
C9 C6 1_555 1_555
H9 C9 1_555 1_555
N1 Cu1 1_555 1_555
C10 N1 1_555 1_555
H10 C10 1_555 1_555
H11 C10 1_555 1_555
C11 C10 1_555 1_555
H12 C11 1_555 1_555
H13 C11 1_555 1_555
C12 C11 1_555 1_555
H14 C12 1_555 1_555
H15 C12 1_555 1_555
N2 Cu1 1_555 1_555
C13 N2 1_555 1_555
H16 C13 1_555 1_555
C14 C13 1_555 1_555
C15 C14 1_555 1_555
H17 C15 1_555 1_555
C16 C15 1_555 1_555
H18 C16 1_555 1_555
C17 C16 1_555 1_555
H19 C17 1_555 1_555
C18 C17 1_555 1_555
C19 C14 1_555 1_555
O3 Sm1 1_555 1_555
C20 O3 1_555 1_555
H20 C20 1_555 1_555
H21 C20 1_555 1_555
C21 C20 1_555 1_555
H22 C21 1_555 1_555
H23 C21 1_555 1_555
H24 C21 1_555 1_555
O4 Sm1 1_555 1_555
C22 C23 1_555 1_555
C23 H25 1_555 1_555
C24 C23 1_555 1_555
H26 C24 1_555 1_555
N3 C24 1_555 1_555
C25 N3 1_555 1_555
H27 C25 1_555 1_555
C26 C22 1_555 1_555
H28 C26 1_555 1_555
C27 C22 1_555 1_555
O5 Sm1 1_555 1_555
O6 C27 1_555 1_555
N4 O7 1_555 1_555
O7 Sm1 1_555 1_555
O8 Sm1 1_555 1_555
O9 N4 1_555 1_555
N5 O10 1_555 1_555
O10 Sm1 1_555 1_555
O11 N5 1_555 1_555
O12 Sm1 1_555 1_555
Sm1B O6 1_555 1_555
Cu1A N3 1_555 1_555
N3A Cu1 1_555 1_555
O6B Sm1 1_555 1_555
Cu1 O4 1_555 1_555
C1 O2 1_555 1_555
C5 C6 1_555 1_555
C9 N1 1_555 1_555
C12 N2 1_555 1_555
C18 C19 1_555 1_555
C18 O3 1_555 1_555
C19 O4 1_555 1_555
C25 C26 1_555 1_555
C27 O5 1_555 1_555
N4 O8 1_555 1_555
N5 O12 1_555 1_555

#END
