
#######################################################################
#
#                 Cambridge Crystallographic Data Centre
#                                CCDC 
#
#######################################################################
#
# If this CIF has been generated from an entry in the Cambridge 
# Structural Database, then it will include bibliographic, chemical, 
# crystal, experimental, refinement or atomic coordinate data resulting 
# from the CCDC's data processing and validation procedures.
#
#######################################################################

data_HIKTOM
_symmetry_cell_setting           triclinic
_symmetry_space_group_name_H-M   'P -1'
_symmetry_Int_Tables_number      2
_space_group_name_Hall           '-P 1'
loop_
_symmetry_equiv_pos_site_id
_symmetry_equiv_pos_as_xyz
1 x,y,z
2 -x,-y,-z
_cell_length_a                   9.024(5)
_cell_length_b                   9.571(5)
_cell_length_c                   12.313(5)
_cell_angle_alpha                68.243(5)
_cell_angle_beta                 73.643(5)
_cell_angle_gamma                82.752(5)
_cell_volume                     947.442
loop_
_atom_site_label
_atom_site_type_symbol
_atom_site_fract_x
_atom_site_fract_y
_atom_site_fract_z
V1 V 0.53883(4) 0.71313(4) 0.29200(3)
V2 V 0.35535(4) 0.31206(4) 0.20562(3)
Se1 Se 0.48220(2) 0.36230(2) 0.415765(18)
Se2 Se 0.44452(2) 0.65471(2) 0.064355(17)
O1 O 0.69608(18) 0.62707(17) 0.24541(14)
O2 O 0.41271(19) 0.27146(17) 0.56493(14)
O3 O 0.40344(17) 0.53994(16) 0.39793(14)
O4 O 0.44181(19) 0.74663(17) 0.15690(14)
O5 O 0.33280(17) 0.85346(16) 0.33535(13)
O6 O 0.62399(17) 0.92603(17) 0.21231(14)
O7 O 0.19657(18) 0.40825(18) 0.19340(15)
O8 O 0.26562(17) 1.09923(16) 0.28662(13)
O9 O 0.56673(17) 1.16384(16) 0.20333(14)
O10 O 0.35882(19) 0.28613(17) 0.37272(14)
O11 O 0.50594(18) 0.47523(16) 0.13678(14)
O12 O 0.60997(17) 0.71551(17) -0.04506(13)
C1 C 0.3613(2) 0.9897(2) 0.28849(17)
C2 C 0.5321(2) 1.0311(2) 0.22822(17)
V1A V 0.46117(4) 0.28687(4) 0.70800(3)
V2_2 V 0.35535(4) 1.31206(4) 0.20562(3)
V2A V 0.64465(4) 0.68794(4) -0.20562(3)
O2A O 0.58729(19) 0.72854(17) 0.43507(14)
O8_2 O 0.26562(17) 0.09923(16) 0.28662(13)
O9_2 O 0.56673(17) 0.16384(16) 0.20333(14)
O12A O 0.39003(17) 0.28449(17) 0.04506(13)
O13 O -0.0501(2) 0.1737(2) 0.4031(2)
H1 H 0.0350 0.1267 0.3947
H2 H -0.1208 0.1108 0.4393
O14 O 0.2871(3) -0.0044(2) 0.56030(18)
H3 H 0.2767 0.0931 0.5031
H4 H 0.2973 0.0045 0.6322
N1 N 0.0886(2) 0.6231(2) 0.48550(17)
C3 C -0.0324(2) 0.6501(2) 0.4175(2)
C4 C 0.0514(3) 0.4934(2) 0.6014(2)
C5 C 0.0106(3) 0.7798(3) 0.2980(2)
H5 H 0.0960 0.7108 0.5023
H6 H 0.1849 0.6028 0.4368
H7 H -0.1267 0.6762 0.4676
H8 H -0.0434 0.5197 0.6514
H9 H 0.1328 0.4734 0.6422
H10 H 0.0990 0.7473 0.2486
H11 H 0.0284 0.8660 0.3138
H12 H -0.0736 0.7999 0.2623
N1A N -0.0886(2) 0.3769(2) 0.51450(17)
C3A C 0.0324(2) 0.3499(2) 0.5825(2)
C4A C -0.0514(3) 0.5066(2) 0.3986(2)
C5A C -0.0106(3) 0.2202(3) 0.7020(2)
H5A H -0.0960 0.2892 0.4977
H6A H -0.1849 0.3972 0.5632
H7A H 0.1267 0.3238 0.5324
H8A H 0.0434 0.4803 0.3486
H9A H -0.1328 0.5266 0.3578
H10A H -0.0990 0.2527 0.7514
H11A H -0.0284 0.1340 0.6862
H12A H 0.0736 0.2001 0.7377
N2 N 0.8586(2) 0.5638(2) 0.04913(18)
C6 C 1.0036(3) 0.6523(3) 0.0028(2)
C7 C 1.1136(3) 0.6027(3) -0.0952(2)
C8 C 0.9640(3) 0.8195(3) -0.0451(3)
H13 H 0.7887 0.5934 0.1109
H14 H 0.8124 0.5828 -0.0156
H15 H 1.0467 0.6239 0.0710
H16 H 1.0669 0.6297 -0.1624
H17 H 1.2098 0.6559 -0.1235
H18 H 1.0585 0.8763 -0.0662
H19 H 0.9232 0.8433 -0.1137
H20 H 0.8847 0.8458 0.0191
N2A N 1.1414(2) 0.4362(2) -0.04913(18)
C6A C 0.9964(3) 0.3477(3) -0.0028(2)
C7A C 0.8864(3) 0.3973(3) 0.0952(2)
C8A C 1.0360(3) 0.1805(3) 0.0451(3)
H13A H 1.2113 0.4066 -0.1109
H14A H 1.1876 0.4172 0.0156
H15A H 0.9533 0.3761 -0.0710
H16A H 0.9331 0.3703 0.1624
H17A H 0.7902 0.3441 0.1235
H18A H 0.9415 0.1237 0.0662
H19A H 1.0768 0.1567 0.1137
H20A H 1.1153 0.1542 -0.0191
loop_
_geom_bond_atom_site_label_1
_geom_bond_atom_site_label_2
_geom_bond_site_symmetry_1
_geom_bond_site_symmetry_2
V1 O1 1_555 1_555
V2 O7 1_555 1_555
Se1 O2 1_555 1_555
Se2 O4 1_555 1_555
O2 V1A 1_555 1_555
O3 V1 1_555 1_555
O4 V1 1_555 1_555
O5 V1 1_555 1_555
O6 V1 1_555 1_555
O8 C1 1_555 1_555
O9 C2 1_555 1_555
O10 V2 1_555 1_555
O11 V2 1_555 1_555
O12 Se2 1_555 1_555
C1 O5 1_555 1_555
C2 O6 1_555 1_555
O13 H1 1_555 1_555
H2 O13 1_555 1_555
O14 H3 1_555 1_555
H4 O14 1_555 1_555
N1 C3 1_555 1_555
C3 C5 1_555 1_555
C4 N1 1_555 1_555
C5 H10 1_555 1_555
H5 N1 1_555 1_555
H6 N1 1_555 1_555
H7 C3 1_555 1_555
H8 C4 1_555 1_555
H9 C4 1_555 1_555
H11 C5 1_555 1_555
H12 C5 1_555 1_555
N2 C6 1_555 1_555
C6 C7 1_555 1_555
C7 H16 1_555 1_555
C8 C6 1_555 1_555
H13 N2 1_555 1_555
H14 N2 1_555 1_555
H15 C6 1_555 1_555
H17 C7 1_555 1_555
H18 C8 1_555 1_555
H19 C8 1_555 1_555
H20 C8 1_555 1_555
V2_2 O8 1_555 1_555
V2A O12 1_555 1_555
O2A V1 1_555 1_555
O8_2 V2 1_555 1_555
O9_2 V2 1_555 1_555
O12A V2 1_555 1_555
N1A C3A 1_555 1_555
C3A C4 1_555 1_555
C4A C3 1_555 1_555
C5A C3A 1_555 1_555
H5A N1A 1_555 1_555
H6A N1A 1_555 1_555
H7A C3A 1_555 1_555
H8A C4A 1_555 1_555
H9A C4A 1_555 1_555
H10A C5A 1_555 1_555
H11A C5A 1_555 1_555
H12A C5A 1_555 1_555
N2A C7 1_555 1_555
C6A N2A 1_555 1_555
C7A N2 1_555 1_555
C8A C6A 1_555 1_555
H13A N2A 1_555 1_555
H14A N2A 1_555 1_555
H15A C6A 1_555 1_555
H16A C7A 1_555 1_555
H17A C7A 1_555 1_555
H18A C8A 1_555 1_555
H19A C8A 1_555 1_555
H20A C8A 1_555 1_555
Se1 O3 1_555 1_555
Se1 O10 1_555 1_555
Se2 O11 1_555 1_555
O9 V2_2 1_555 1_555
C1 C2 1_555 1_555
N1A C4A 1_555 1_555
C6A C7A 1_555 1_555

#END
