
#######################################################################
#
#                 Cambridge Crystallographic Data Centre
#                                CCDC 
#
#######################################################################
#
# If this CIF has been generated from an entry in the Cambridge 
# Structural Database, then it will include bibliographic, chemical, 
# crystal, experimental, refinement or atomic coordinate data resulting 
# from the CCDC's data processing and validation procedures.
#
#######################################################################

data_HIKTIG
_symmetry_cell_setting           triclinic
_symmetry_space_group_name_H-M   'P -1'
_symmetry_Int_Tables_number      2
_space_group_name_Hall           '-P 1'
loop_
_symmetry_equiv_pos_site_id
_symmetry_equiv_pos_as_xyz
1 x,y,z
2 -x,-y,-z
_cell_length_a                   6.324(3)
_cell_length_b                   7.841(4)
_cell_length_c                   9.197(5)
_cell_angle_alpha                90.438(7)
_cell_angle_beta                 105.955(7)
_cell_angle_gamma                105.059(7)
_cell_volume                     421.883
loop_
_atom_site_label
_atom_site_type_symbol
_atom_site_fract_x
_atom_site_fract_y
_atom_site_fract_z
V1 V 0.33189(7) 0.10535(6) 0.70709(5)
Se1 Se -0.24461(4) -0.02601(3) 0.64558(3)
O1 O 0.3269(3) 0.2938(3) 0.6417(2)
O2 O 0.0318(3) 0.0281(3) 0.7508(2)
O3 O -0.2341(3) 0.0601(2) 0.4772(2)
O4 O -0.3350(3) 0.1274(2) 0.7270(2)
O5 O 0.4608(3) 0.2010(2) 0.9329(2)
O6 O 0.6188(3) 0.1375(2) 1.1682(2)
C1 C 0.5225(4) 0.0967(3) 1.0299(3)
O5A O 0.5392(3) -0.2010(2) 1.0671(2)
O6A O 0.3812(3) -0.1375(2) 0.8318(2)
C1A C 0.4775(4) -0.0967(3) 0.9701(3)
V1A V -0.33189(7) -0.10535(6) 0.29291(5)
Se1A Se 0.24461(4) 0.02601(3) 0.35442(3)
O1A O -0.3269(3) -0.2938(3) 0.3583(2)
O2A O -0.0318(3) -0.0281(3) 0.2492(2)
O3A O 0.2341(3) -0.0601(2) 0.5228(2)
O4A O 0.3350(3) -0.1274(2) 0.2730(2)
V1_2 V -0.66811(7) 0.10535(6) 0.70709(5)
V1A_2 V 0.66811(7) -0.10535(6) 0.29291(5)
V1A_3 V 0.66811(7) -0.10535(6) 1.29291(5)
O4_2 O 0.6650(3) 0.1274(2) 0.7270(2)
O4A_2 O -0.6650(3) -0.1274(2) 0.2730(2)
O5A_2 O -0.4608(3) -0.2010(2) 0.0671(2)
O6_2 O -0.3812(3) 0.1375(2) 0.1682(2)
N1 N -0.0916(4) 0.4693(3) 0.8341(3)
C2 C 0.1383(4) 0.4459(4) 0.9156(3)
C3 C -0.1517(5) 0.6012(4) 0.9227(3)
C4 C -0.0982(5) 0.5208(4) 0.6765(3)
H1 H -0.2053 0.3715 0.8256
H2 H 0.2519 0.5478 0.9185
H3 H 0.1637 0.3595 0.8587
H4 H -0.0487 0.7063 0.9211
H5 H -0.3079 0.6038 0.8709
H6 H 0.0080 0.6263 0.6826
H7 H -0.2507 0.5244 0.6237
H8 H -0.0573 0.4413 0.6250
N1A N 0.0916(4) 0.5307(3) 1.1659(3)
C2A C -0.1383(4) 0.5541(4) 1.0844(3)
C3A C 0.1517(5) 0.3988(4) 1.0773(3)
C4A C 0.0982(5) 0.4792(4) 1.3235(3)
H1A H 0.2053 0.6285 1.1744
H2A H -0.2519 0.4522 1.0815
H3A H -0.1637 0.6405 1.1413
H4A H 0.0487 0.2937 1.0789
H5A H 0.3079 0.3962 1.1291
H6A H -0.0080 0.3737 1.3174
H7A H 0.2507 0.4756 1.3763
H8A H 0.0573 0.5587 1.3750
loop_
_geom_bond_atom_site_label_1
_geom_bond_atom_site_label_2
_geom_bond_site_symmetry_1
_geom_bond_site_symmetry_2
V1 O1 1_555 1_555
Se1 O2 1_555 1_555
O2 V1 1_555 1_555
O3 Se1 1_555 1_555
O4 Se1 1_555 1_555
O5 V1 1_555 1_555
O6 C1 1_555 1_555
C1 O5 1_555 1_555
N1 C2 1_555 1_555
C2 H2 1_555 1_555
C3 N1 1_555 1_555
C4 N1 1_555 1_555
H1 N1 1_555 1_555
H3 C2 1_555 1_555
H4 C3 1_555 1_555
H5 C3 1_555 1_555
H6 C4 1_555 1_555
H7 C4 1_555 1_555
H8 C4 1_555 1_555
O5A C1A 1_555 1_555
O6A V1 1_555 1_555
C1A C1 1_555 1_555
V1A O3 1_555 1_555
Se1A O2A 1_555 1_555
O1A V1A 1_555 1_555
O2A V1A 1_555 1_555
O3A V1 1_555 1_555
O4A Se1A 1_555 1_555
V1_2 O4 1_555 1_555
V1A_2 O4A 1_555 1_555
V1A_3 O6 1_555 1_555
O4_2 V1 1_555 1_555
O4A_2 V1A 1_555 1_555
O5A_2 V1A 1_555 1_555
O6_2 V1A 1_555 1_555
N1A C2A 1_555 1_555
C2A C3 1_555 1_555
C3A C2 1_555 1_555
C4A N1A 1_555 1_555
H1A N1A 1_555 1_555
H2A C2A 1_555 1_555
H3A C2A 1_555 1_555
H4A C3A 1_555 1_555
H5A C3A 1_555 1_555
H6A C4A 1_555 1_555
H7A C4A 1_555 1_555
H8A C4A 1_555 1_555
O5A V1A_3 1_555 1_555
O6A C1A 1_555 1_555
Se1A O3A 1_555 1_555
N1A C3A 1_555 1_555

#END
