
#######################################################################
#
#                 Cambridge Crystallographic Data Centre
#                                CCDC 
#
#######################################################################
#
# If this CIF has been generated from an entry in the Cambridge 
# Structural Database, then it will include bibliographic, chemical, 
# crystal, experimental, refinement or atomic coordinate data resulting 
# from the CCDC's data processing and validation procedures.
#
#######################################################################

data_HIKTUS
_symmetry_cell_setting           triclinic
_symmetry_space_group_name_H-M   'P -1'
_symmetry_Int_Tables_number      2
_space_group_name_Hall           '-P 1'
loop_
_symmetry_equiv_pos_site_id
_symmetry_equiv_pos_as_xyz
1 x,y,z
2 -x,-y,-z
_cell_length_a                   6.3369(16)
_cell_length_b                   8.509(2)
_cell_length_c                   9.413(2)
_cell_angle_alpha                95.363(3)
_cell_angle_beta                 108.245(3)
_cell_angle_gamma                105.236(3)
_cell_volume                     456.462
loop_
_atom_site_label
_atom_site_type_symbol
_atom_site_fract_x
_atom_site_fract_y
_atom_site_fract_z
V1 V 0.73349(6) 0.60217(5) 0.31781(4)
Se1 Se 0.78717(4) 0.52234(3) 0.64847(2)
O1 O 0.8847(4) 0.7767(2) 0.4328(2)
O2 O 0.5825(3) 0.3799(2) 0.6911(2)
O3 O 0.7173(3) 0.4445(2) 0.45974(18)
O4 O 1.0187(3) 0.4626(3) 0.7368(2)
O5 O 0.3315(3) 0.3074(2) -0.11769(18)
O6 O 0.5038(3) 0.3749(2) 0.13701(19)
C1 C 0.4528(4) 0.4087(3) 0.0062(2)
O6A O 0.4962(3) 0.6251(2) -0.13701(19)
C1A C 0.5472(4) 0.5913(3) -0.0062(2)
O5A O 0.6685(3) 0.6926(2) 0.11769(18)
V1A V 0.26651(6) 0.39783(5) -0.31781(4)
Se1A Se 0.21283(4) 0.47766(3) -0.64847(2)
O1A O 0.1153(4) 0.2233(2) -0.4328(2)
O2A O 0.4175(3) 0.6201(2) -0.6911(2)
O3A O 0.2827(3) 0.5555(2) -0.45974(18)
O4A O -0.0187(3) 0.5374(3) -0.7368(2)
V1_2 V -0.26651(6) 0.60217(5) -0.68219(4)
V1_3 V 0.73349(6) 0.60217(5) -0.68219(4)
V1A_2 V 0.26651(6) 0.39783(5) 0.68219(4)
V1A_3 V 1.26651(6) 0.39783(5) 0.68219(4)
O2_2 O 0.5825(3) 0.3799(2) -0.3089(2)
O2A_2 O 0.4175(3) 0.6201(2) 0.3089(2)
O4_2 O 0.0187(3) 0.4626(3) -0.2632(2)
O4A_2 O 0.9813(3) 0.5374(3) 0.2632(2)
N1 N 0.5934(5) 0.0660(3) 0.7144(3)
C2 C 0.5947(5) -0.0141(4) 0.5663(3)
C3 C 0.8017(6) 0.0655(4) 0.8457(4)
H1 H 0.5917 0.1769 0.7106
H2 H 0.4549 0.0059 0.7301
H3 H 0.7510 0.0346 0.5607
H4 H 0.5664 -0.1337 0.5658
H5 H 0.8004 -0.0458 0.8505
H6 H 0.7960 0.1166 0.9378
H7 H 0.9400 0.1251 0.8308
N1A N 0.4066(5) -0.0660(3) 0.2856(3)
C2A C 0.4053(5) 0.0141(4) 0.4337(3)
C3A C 0.1983(6) -0.0655(4) 0.1543(4)
H1A H 0.4083 -0.1769 0.2894
H2A H 0.5451 -0.0059 0.2699
H3A H 0.2490 -0.0346 0.4393
H4A H 0.4336 0.1337 0.4342
H5A H 0.1996 0.0458 0.1495
H6A H 0.2040 -0.1166 0.0622
H7A H 0.0600 -0.1251 0.1692
O7 O 0.2257(8) -0.1329(6) 0.7422(6)
H12 H 0.1862 -0.1851 0.8185
H13 H 0.1138 -0.1847 0.6451
O7A O 0.7743(8) 0.1329(6) 0.2578(6)
H12A H 0.8138 0.1851 0.1815
H13A H 0.8862 0.1847 0.3549
C4? C 0.3604(10) -0.0378(6) 0.7464(6)
H8? H 0.7286 0.0665 0.7948
H9? H 0.3623 0.0143 0.8404
H10? H 0.3639 -0.1478 0.7510
H11? H 0.2260 -0.0379 0.6662
O8? O 0.8444(13) 0.1990(8) 0.9782(7)
H14? H 0.8761 0.3066 0.9563
H15? H 0.9618 0.1966 1.0700
loop_
_geom_bond_atom_site_label_1
_geom_bond_atom_site_label_2
_geom_bond_site_symmetry_1
_geom_bond_site_symmetry_2
V1 O1 1_555 1_555
Se1 O2 1_555 1_555
O2 V1A_2 1_555 1_555
O3 V1 1_555 1_555
O4 Se1 1_555 1_555
O5 C1 1_555 1_555
O6 V1 1_555 1_555
C1 O6 1_555 1_555
N1 C2 1_555 1_555
C2 H3 1_555 1_555
C3 N1 1_555 1_555
H1 N1 1_555 1_555
H2 N1 1_555 1_555
H4 C2 1_555 1_555
H5 C3 1_555 1_555
H6 C3 1_555 1_555
H7 C3 1_555 1_555
O7 H12 1_555 1_555
H13 O7 1_555 1_555
O6A C1A 1_555 1_555
C1A C1 1_555 1_555
O5A V1 1_555 1_555
V1A O5 1_555 1_555
Se1A O2A 1_555 1_555
O1A V1A 1_555 1_555
O2A V1_3 1_555 1_555
O3A V1A 1_555 1_555
O4A Se1A 1_555 1_555
V1_2 O4A 1_555 1_555
V1A_3 O4 1_555 1_555
O2_2 V1A 1_555 1_555
O2A_2 V1 1_555 1_555
O4_2 V1A 1_555 1_555
O4A_2 V1 1_555 1_555
N1A C2A 1_555 1_555
C2A C2 1_555 1_555
C3A N1A 1_555 1_555
H1A N1A 1_555 1_555
H2A N1A 1_555 1_555
H3A C2A 1_555 1_555
H4A C2A 1_555 1_555
H5A C3A 1_555 1_555
H6A C3A 1_555 1_555
H7A C3A 1_555 1_555
O7A H12A 1_555 1_555
H13A O7A 1_555 1_555
Se1 O3 1_555 1_555
O6A V1A 1_555 1_555
C1A O5A 1_555 1_555
Se1A O3A 1_555 1_555

#END
