
#######################################################################
#
#                 Cambridge Crystallographic Data Centre
#                                CCDC 
#
#######################################################################
#
# If this CIF has been generated from an entry in the Cambridge 
# Structural Database, then it will include bibliographic, chemical, 
# crystal, experimental, refinement or atomic coordinate data resulting 
# from the CCDC's data processing and validation procedures.
#
#######################################################################

data_HIKVAA
_symmetry_cell_setting           triclinic
_symmetry_space_group_name_H-M   'P -1'
_symmetry_Int_Tables_number      2
_space_group_name_Hall           '-P 1'
loop_
_symmetry_equiv_pos_site_id
_symmetry_equiv_pos_as_xyz
1 x,y,z
2 -x,-y,-z
_cell_length_a                   6.378(7)
_cell_length_b                   8.444(7)
_cell_length_c                   9.405(8)
_cell_angle_alpha                92.260(16)
_cell_angle_beta                 107.27(3)
_cell_angle_gamma                107.84(2)
_cell_volume                     455.66
loop_
_atom_site_label
_atom_site_type_symbol
_atom_site_fract_x
_atom_site_fract_y
_atom_site_fract_z
V1 V 0.73726(4) 0.60275(3) 0.31258(3)
Se1 Se 0.78919(2) 0.523184(17) 0.648937(15)
O1 O 0.8866(2) 0.78140(14) 0.41816(12)
O2 O 0.57731(18) 0.37734(13) 0.69710(12)
O3 O 0.71785(19) 0.44447(13) 0.46326(11)
O4 O 1.0164(2) 0.46205(19) 0.73943(13)
O5 O 0.31943(18) 0.30432(13) -0.10792(11)
O6 O 0.49796(19) 0.37368(13) 0.14307(11)
C1 C 0.4480(2) 0.40698(17) 0.01082(16)
O6A O 0.50204(19) 0.62632(13) -0.14307(11)
C1A C 0.5520(2) 0.59302(17) -0.01082(16)
O5A O 0.68057(18) 0.69568(13) 0.10792(11)
V1A V 0.26274(4) 0.39725(3) -0.31258(3)
Se1A Se 0.21081(2) 0.476816(17) -0.648937(15)
O1A O 0.1134(2) 0.21860(14) -0.41816(12)
O2A O 0.42269(18) 0.62266(13) -0.69710(12)
O3A O 0.28215(19) 0.55553(13) -0.46326(11)
O4A O -0.0164(2) 0.53795(19) -0.73943(13)
V1_2 V -0.26274(4) 0.60275(3) -0.68742(3)
V1_3 V 0.73726(4) 0.60275(3) -0.68742(3)
V1A_2 V 0.26274(4) 0.39725(3) 0.68742(3)
V1A_3 V 1.26274(4) 0.39725(3) 0.68742(3)
O2_2 O 0.57731(18) 0.37734(13) -0.30290(12)
O2A_2 O 0.42269(18) 0.62266(13) 0.30290(12)
O4_2 O 0.0164(2) 0.46205(19) -0.26057(13)
O4A_2 O 0.9836(2) 0.53795(19) 0.26057(13)
N1 N 0.4442(2) -0.05032(16) 0.28892(14)
C2 C 0.4157(3) 0.0178(2) 0.43000(17)
C3 C 0.2400(3) -0.0601(2) 0.15364(19)
C4 C 0.6679(3) 0.0499(2) 0.26543(18)
H1 H 0.4465 -0.1614 0.2985
H2 H 0.2565 -0.0350 0.4274
H3 H 0.4493 0.1379 0.4309
H4 H 0.2358 0.0526 0.1398
H5 H 0.0972 -0.1248 0.1709
H6 H 0.2540 -0.1145 0.0655
H7 H 0.6624 0.1605 0.2469
H8 H 0.7947 0.0579 0.3534
H9 H 0.6777 -0.0086 0.1805
N1A N 0.5558(2) 0.05032(16) 0.71108(14)
C2A C 0.5843(3) -0.0178(2) 0.57000(17)
C3A C 0.7600(3) 0.0601(2) 0.84636(19)
C4A C 0.3321(3) -0.0499(2) 0.73457(18)
H1A H 0.5535 0.1614 0.7015
H2A H 0.7435 0.0350 0.5726
H3A H 0.5507 -0.1379 0.5691
H4A H 0.7642 -0.0526 0.8602
H5A H 0.9028 0.1248 0.8291
H6A H 0.7460 0.1145 0.9345
H7A H 0.3376 -0.1605 0.7531
H8A H 0.2053 -0.0579 0.6466
H9A H 0.3223 0.0086 0.8195
loop_
_geom_bond_atom_site_label_1
_geom_bond_atom_site_label_2
_geom_bond_site_symmetry_1
_geom_bond_site_symmetry_2
V1 O1 1_555 1_555
Se1 O2 1_555 1_555
O2 V1A_2 1_555 1_555
O3 V1 1_555 1_555
O4 Se1 1_555 1_555
O5 C1 1_555 1_555
O6 V1 1_555 1_555
C1 O6 1_555 1_555
N1 C2 1_555 1_555
C2 H2 1_555 1_555
C3 N1 1_555 1_555
C4 N1 1_555 1_555
H1 N1 1_555 1_555
H3 C2 1_555 1_555
H4 C3 1_555 1_555
H5 C3 1_555 1_555
H6 C3 1_555 1_555
H7 C4 1_555 1_555
H8 C4 1_555 1_555
H9 C4 1_555 1_555
O6A C1A 1_555 1_555
C1A C1 1_555 1_555
O5A V1 1_555 1_555
V1A O5 1_555 1_555
Se1A O2A 1_555 1_555
O1A V1A 1_555 1_555
O2A V1_3 1_555 1_555
O3A V1A 1_555 1_555
O4A Se1A 1_555 1_555
V1_2 O4A 1_555 1_555
V1A_3 O4 1_555 1_555
O2_2 V1A 1_555 1_555
O2A_2 V1 1_555 1_555
O4_2 V1A 1_555 1_555
O4A_2 V1 1_555 1_555
N1A C2A 1_555 1_555
C2A C2 1_555 1_555
C3A N1A 1_555 1_555
C4A N1A 1_555 1_555
H1A N1A 1_555 1_555
H2A C2A 1_555 1_555
H3A C2A 1_555 1_555
H4A C3A 1_555 1_555
H5A C3A 1_555 1_555
H6A C3A 1_555 1_555
H7A C4A 1_555 1_555
H8A C4A 1_555 1_555
H9A C4A 1_555 1_555
Se1 O3 1_555 1_555
O6A V1A 1_555 1_555
C1A O5A 1_555 1_555
Se1A O3A 1_555 1_555

#END
