
#######################################################################
#
#                 Cambridge Crystallographic Data Centre
#                                CCDC 
#
#######################################################################
#
# If this CIF has been generated from an entry in the Cambridge 
# Structural Database, then it will include bibliographic, chemical, 
# crystal, experimental, refinement or atomic coordinate data resulting 
# from the CCDC's data processing and validation procedures.
#
#######################################################################

data_HIKVOO
_symmetry_cell_setting           monoclinic
_symmetry_space_group_name_H-M   'P 21/c'
_symmetry_Int_Tables_number      14
_space_group_name_Hall           '-P 2ybc'
loop_
_symmetry_equiv_pos_site_id
_symmetry_equiv_pos_as_xyz
1 x,y,z
2 -x,1/2+y,1/2-z
3 -x,-y,-z
4 x,1/2-y,1/2+z
_cell_length_a                   9.2248(2)
_cell_length_b                   11.2499(3)
_cell_length_c                   9.3512(2)
_cell_angle_alpha                90
_cell_angle_beta                 116.3783(15)
_cell_angle_gamma                90
_cell_volume                     869.406
loop_
_atom_site_label
_atom_site_type_symbol
_atom_site_fract_x
_atom_site_fract_y
_atom_site_fract_z
O7 O 0.1667(2) 0.79693(16) 0.2185(2)
H1 H 0.2484 0.7570 0.2671
H2 H 0.2080 0.8436 0.1742
N1 N -0.0340(2) 0.61148(19) 0.0552(2)
C2 C 0.0554(3) 0.5146(2) 0.1712(3)
C3 C -0.0073(3) 0.6058(2) -0.0911(3)
C4 C 0.0325(6) 0.5299(4) 0.3236(6)
H3 H 0.0018 0.6866 0.1064
H4 H -0.1469 0.6035 0.0249
H5 H 0.1694 0.5286 0.2039
H6 H -0.0733 0.6687 -0.1636
H7 H 0.1077 0.6213 -0.0609
H8 H 0.0664 0.6090 0.3610
H9 H 0.1004 0.4741 0.4002
H10 H -0.0773 0.5206 0.2949
N1B N 0.0340(2) 0.38852(19) -0.0552(2)
C2B C -0.0554(3) 0.4854(2) -0.1712(3)
C3B C 0.0073(3) 0.3942(2) 0.0911(3)
C4B C -0.0325(6) 0.4701(4) -0.3236(6)
H3B H -0.0018 0.3134 -0.1064
H4B H 0.1469 0.3965 -0.0249
H5B H -0.1694 0.4714 -0.2039
H6B H 0.0733 0.3313 0.1636
H7B H -0.1077 0.3787 0.0609
H8B H -0.0664 0.3910 -0.3610
H9B H -0.1004 0.5259 -0.4002
H10B H 0.0773 0.4794 -0.2949
V1 V 0.57023(5) 0.62167(3) 0.28849(4)
Se1 Se 0.49687(3) 0.631034(18) 0.59393(2)
O1 O 0.7188(2) 0.70327(15) 0.4032(2)
O2 O 0.3598(2) 0.53918(14) 0.6121(2)
O3 O 0.4212(2) 0.63349(14) 0.39028(18)
O4 O 0.4275(2) 0.76163(14) 0.6253(2)
O5 O 0.6665(2) 0.58171(14) 0.1331(2)
O6 O 0.6216(2) 0.49713(14) -0.0988(2)
C1 C 0.5823(3) 0.52239(18) 0.0094(3)
O5B O 0.3335(2) 0.41829(14) -0.1331(2)
O6B O 0.3784(2) 0.50287(14) 0.0988(2)
C1B C 0.4177(3) 0.47761(18) -0.0094(3)
V1B V 0.42977(5) 0.37833(3) -0.28849(4)
Se1B Se 0.50313(3) 0.368966(18) -0.59393(2)
O1B O 0.2812(2) 0.29673(15) -0.4032(2)
O2B O 0.6402(2) 0.46082(14) -0.6121(2)
O3B O 0.5788(2) 0.36651(14) -0.39028(18)
O4B O 0.5725(2) 0.23837(14) -0.6253(2)
V1_2 V 0.57023(5) 0.62167(3) -0.71151(4)
V1B_2 V 0.42977(5) 0.37833(3) 0.71151(4)
V1A V 0.42977(5) 0.12167(3) -0.78849(4)
V1C V 0.57023(5) 0.87833(3) 0.78849(4)
O2_2 O 0.3598(2) 0.53918(14) -0.3879(2)
O2B_2 O 0.6402(2) 0.46082(14) 0.3879(2)
O4A O 0.5725(2) 0.26163(14) -0.1253(2)
O4C O 0.4275(2) 0.73837(14) 0.1253(2)
H11? H 0.0334 0.5177 0.2612
loop_
_geom_bond_atom_site_label_1
_geom_bond_atom_site_label_2
_geom_bond_site_symmetry_1
_geom_bond_site_symmetry_2
V1 O1 1_555 1_555
Se1 O2 1_555 1_555
O2 V1B_2 1_555 1_555
O3 V1 1_555 1_555
O4 Se1 1_555 1_555
O5 V1 1_555 1_555
O6 C1 1_555 1_555
C1 O5 1_555 1_555
O7 H1 1_555 1_555
H2 O7 1_555 1_555
N1 C2 1_555 1_555
C2 C4 1_555 1_555
C3 N1 1_555 1_555
C4 H8 1_555 1_555
H3 N1 1_555 1_555
H4 N1 1_555 1_555
H5 C2 1_555 1_555
H6 C3 1_555 1_555
H7 C3 1_555 1_555
H9 C4 1_555 1_555
H10 C4 1_555 1_555
O5B C1B 1_555 1_555
O6B V1 1_555 1_555
C1B C1 1_555 1_555
V1B O6 1_555 1_555
Se1B O2B 1_555 1_555
O1B V1B 1_555 1_555
O2B V1_2 1_555 1_555
O3B V1B 1_555 1_555
O4B Se1B 1_555 1_555
V1A O4B 1_555 1_555
V1C O4 1_555 1_555
O2_2 V1B 1_555 1_555
O2B_2 V1 1_555 1_555
O4A V1B 1_555 1_555
O4C V1 1_555 1_555
N1B C2B 1_555 1_555
C2B C3 1_555 1_555
C3B C2 1_555 1_555
C4B C2B 1_555 1_555
H3B N1B 1_555 1_555
H4B N1B 1_555 1_555
H5B C2B 1_555 1_555
H6B C3B 1_555 1_555
H7B C3B 1_555 1_555
H8B C4B 1_555 1_555
H9B C4B 1_555 1_555
H10B C4B 1_555 1_555
Se1 O3 1_555 1_555
O5B V1B 1_555 1_555
O6B C1B 1_555 1_555
Se1B O3B 1_555 1_555
N1B C3B 1_555 1_555

#END
