
#######################################################################
#
#                 Cambridge Crystallographic Data Centre
#                                CCDC 
#
#######################################################################
#
# If this CIF has been generated from an entry in the Cambridge 
# Structural Database, then it will include bibliographic, chemical, 
# crystal, experimental, refinement or atomic coordinate data resulting 
# from the CCDC's data processing and validation procedures.
#
#######################################################################

data_HIKVUU
_symmetry_cell_setting           monoclinic
_symmetry_space_group_name_H-M   'P 21'
_symmetry_Int_Tables_number      4
_space_group_name_Hall           'P 2yb'
loop_
_symmetry_equiv_pos_site_id
_symmetry_equiv_pos_as_xyz
1 x,y,z
2 -x,1/2+y,-z
_cell_length_a                   9.227(5)
_cell_length_b                   11.244(5)
_cell_length_c                   9.362(5)
_cell_angle_alpha                90
_cell_angle_beta                 116.077(5)
_cell_angle_gamma                90
_cell_volume                     872.419
loop_
_atom_site_label
_atom_site_type_symbol
_atom_site_fract_x
_atom_site_fract_y
_atom_site_fract_z
V1 V 0.0724 0.3665 0.0382
V2 V -0.06922(10) 0.60908(8) 0.46147(11)
Se1 Se 0.00738(10) 0.61916(18) 0.15809(15)
Se2 Se 0.00129(10) 0.35668(17) 0.34527(15)
O1 O 0.2173 0.2840 0.1475
O2 O 0.0726(9) 0.7506(8) 0.1228(10)
O3 O -0.0767 0.3531 0.1415
O4 O 0.1458(5) 0.5273(4) 0.1417(5)
O5 O 0.1641(8) 0.4036(8) -0.1189(11)
O6 O -0.1210 0.4858 -0.1507
O7 O -0.2192(5) 0.6914(3) 0.3440(5)
O8 O -0.0710(9) 0.2258(7) 0.3732(12)
O9 O 0.0812(5) 0.6204(4) 0.3617(5)
O10 O -0.1345 0.4483 0.3669
O11 O -0.1699(9) 0.5661(8) -0.3841(12)
O12 O 0.1208(5) 0.4905(4) -0.3504(5)
C1 C 0.0794(12) 0.4647(11) -0.2445(15)
C2 C -0.0840(12) 0.5093(11) -0.2613(16)
V1A V -0.0724 0.8665 -0.0382
V2_2 V -0.06922(10) 0.60908(8) -0.53853(11)
V2A V 0.06922(10) 0.10908(8) 0.53853(11)
O2A O -0.0726(9) 0.2506(8) -0.1228(10)
O8A O 0.0710(9) 0.7258(7) 0.6268(12)
O11_2 O -0.1699(9) 0.5661(8) 0.6159(12)
O12_2 O 0.1208(5) 0.4905(4) 0.6496(5)
O13 O -0.3279(10) 0.1925(8) -0.0286(13)
H1 H -0.2475 0.2525 0.0122
H2 H -0.3094 0.1451 -0.1029
O14 O -0.3355(10) 0.2864(8) 0.4669(12)
H3 H -0.2879 0.3352 0.4162
H4 H -0.2530 0.2486 0.5566
N1 N 0.4675(10) 0.3753(8) 0.8021(13)
N2 N 0.5348(10) 0.5992(11) 0.6919(12)
C3 C 0.5583(12) 0.4712(9) 0.9253(13)
C4 C 0.5114(11) 0.5889(9) 0.8490(11)
C5 C 0.4482(12) 0.4997(10) 0.5828(14)
C6 C 0.4972(9) 0.3785(7) 0.6658(9)
C7 C 0.5352(8) 0.4597(6) 1.0726(8)
H5 H 0.5012 0.3001 0.8522
H6 H 0.3556 0.3856 0.7719
H7 H 0.6742 0.4619 0.9566
H8 H 0.5721 0.6518 0.9232
H9 H 0.3972 0.6002 0.8175
H10 H 0.6473 0.5959 0.7213
H11 H 0.4928 0.6731 0.6416
H12 H 0.4771 0.5045 0.4957
H13 H 0.3334 0.5110 0.5417
H14 H 0.6099 0.3617 0.6949
H15 H 0.4283 0.3184 0.5909
H16 H 0.5646 0.3809 1.1146
H17 H 0.6030 0.5170 1.1490
H18 H 0.4233 0.4721 1.0451
loop_
_geom_bond_atom_site_label_1
_geom_bond_atom_site_label_2
_geom_bond_site_symmetry_1
_geom_bond_site_symmetry_2
V1 O1 1_555 1_555
V2 O7 1_555 1_555
Se1 O2 1_555 1_555
Se2 O3 1_555 1_555
O2 V1A 1_555 1_555
O3 V1 1_555 1_555
O4 V1 1_555 1_555
O5 V1 1_555 1_555
O6 V1 1_555 1_555
O8 Se2 1_555 1_555
O9 V2 1_555 1_555
O10 V2 1_555 1_555
O11 C2 1_555 1_555
O12 C1 1_555 1_555
C1 O5 1_555 1_555
C2 O6 1_555 1_555
O13 H1 1_555 1_555
H2 O13 1_555 1_555
O14 H3 1_555 1_555
H4 O14 1_555 1_555
N1 C3 1_555 1_555
N2 C4 1_555 1_555
C3 C4 1_555 1_555
C4 H8 1_555 1_555
C5 N2 1_555 1_555
C6 N1 1_555 1_555
C7 C3 1_555 1_555
H5 N1 1_555 1_555
H6 N1 1_555 1_555
H7 C3 1_555 1_555
H9 C4 1_555 1_555
H10 N2 1_555 1_555
H11 N2 1_555 1_555
H12 C5 1_555 1_555
H13 C5 1_555 1_555
H14 C6 1_555 1_555
H15 C6 1_555 1_555
H16 C7 1_555 1_555
H17 C7 1_555 1_555
H18 C7 1_555 1_555
V2_2 O11 1_555 1_555
V2A O8 1_555 1_555
O2A V1 1_555 1_555
O8A V2 1_555 1_555
O11_2 V2 1_555 1_555
O12_2 V2 1_555 1_555
Se1 O4 1_555 1_555
Se1 O9 1_555 1_555
Se2 O10 1_555 1_555
O12 V2_2 1_555 1_555
C1 C2 1_555 1_555
C5 C6 1_555 1_555

#END
