
#######################################################################
#
#                 Cambridge Crystallographic Data Centre
#                                CCDC 
#
#######################################################################
#
# If this CIF has been generated from an entry in the Cambridge 
# Structural Database, then it will include bibliographic, chemical, 
# crystal, experimental, refinement or atomic coordinate data resulting 
# from the CCDC's data processing and validation procedures.
#
#######################################################################

data_HIKVII
_symmetry_cell_setting           triclinic
_symmetry_space_group_name_H-M   'P -1'
_symmetry_Int_Tables_number      2
_space_group_name_Hall           '-P 1'
loop_
_symmetry_equiv_pos_site_id
_symmetry_equiv_pos_as_xyz
1 x,y,z
2 -x,-y,-z
_cell_length_a                   9.290(3)
_cell_length_b                   9.723(3)
_cell_length_c                   11.280(3)
_cell_angle_alpha                110.687(4)
_cell_angle_beta                 90.346(4)
_cell_angle_gamma                114.511(4)
_cell_volume                     853.241
loop_
_atom_site_label
_atom_site_type_symbol
_atom_site_fract_x
_atom_site_fract_y
_atom_site_fract_z
V1 V 0.27539(9) 0.54122(10) 0.63987(7)
V2 V 0.77416(9) 0.54069(10) 0.88735(7)
Se1 Se 0.58130(5) 0.47518(6) 0.62504(4)
Se2 Se 0.09115(5) 0.48792(6) 0.86443(4)
O1 O 0.3859(4) 0.6830(4) 0.7741(3)
O2 O 0.1347(4) 0.6606(4) 0.6368(3)
O3 O -0.0940(4) 0.6281(4) 0.5379(3)
O4 O 0.5983(4) 0.3606(4) 0.4775(3)
O5 O 0.3746(4) 0.3872(4) 0.6077(3)
O6 O 0.1003(4) 0.3993(4) 0.7086(3)
O7 O 0.9011(4) 0.6859(4) 0.8521(3)
O8 O 0.4166(4) 0.6376(4) 1.0485(3)
O9 O 0.6223(4) 0.6463(4) 0.9423(3)
O10 O 0.6280(4) 0.3888(4) 0.7157(3)
O11 O -0.1144(4) 0.3968(4) 0.8562(3)
O12 O 0.1346(4) 0.3684(4) 0.9232(3)
C1 C 0.0115(5) 0.5836(5) 0.5504(4)
C2 C 0.5099(5) 0.5830(6) 0.9978(5)
O2A O -0.1347(4) 0.3394(4) 0.3632(3)
C1A C -0.0115(5) 0.4164(5) 0.4496(4)
O3A O 0.0940(4) 0.3719(4) 0.4621(3)
O9A O 0.3777(4) 0.3537(4) 1.0577(3)
C2A C 0.4901(5) 0.4170(6) 1.0022(5)
O8A O 0.5834(4) 0.3624(4) 0.9515(3)
V1A V -0.27539(9) 0.45878(10) 0.36013(7)
V2A V -0.77416(9) 0.45931(10) 0.11265(7)
Se1A Se -0.58130(5) 0.52482(6) 0.37496(4)
Se2A Se -0.09115(5) 0.51208(6) 0.13557(4)
O1A O -0.3859(4) 0.3170(4) 0.2259(3)
O4A O -0.5983(4) 0.6394(4) 0.5225(3)
O5A O -0.3746(4) 0.6128(4) 0.3923(3)
O6A O -0.1003(4) 0.6007(4) 0.2914(3)
O7A O -0.9011(4) 0.3141(4) 0.1479(3)
O10A O -0.6280(4) 0.6112(4) 0.2843(3)
O11A O 0.1144(4) 0.6032(4) 0.1438(3)
O12A O -0.1346(4) 0.6316(4) 0.0768(3)
V1_2 V -0.72461(9) 0.54122(10) 0.63987(7)
V1A_2 V 0.72461(9) 0.45878(10) 0.36013(7)
V2_2 V -0.22584(9) 0.54069(10) -0.11265(7)
V2_3 V -0.22584(9) 0.54069(10) 0.88735(7)
V2A_2 V 0.22584(9) 0.45931(10) 0.11265(7)
V2A_3 V 0.22584(9) 0.45931(10) 1.11265(7)
O4_2 O -0.4017(4) 0.3606(4) 0.4775(3)
O4A_2 O 0.4017(4) 0.6394(4) 0.5225(3)
O8_2 O -0.5834(4) 0.6376(4) 0.0485(3)
O9A_2 O -0.6223(4) 0.3537(4) 0.0577(3)
O11_2 O 0.8856(4) 0.3968(4) 0.8562(3)
O11A_2 O -0.8856(4) 0.6032(4) 0.1438(3)
O12_2 O -0.8654(4) 0.3684(4) -0.0768(3)
O12A_2 O 0.8654(4) 0.6316(4) 1.0768(3)
O13 O 0.7584(4) 0.0311(4) 0.1420(3)
H1 H 0.7936 0.1402 0.2036
H2 H 0.7481 -0.0396 0.1852
O14 O 0.2322(4) 0.1625(4) 0.7348(3)
H3 H 0.2890 0.2210 0.6847
H4 H 0.1895 0.2255 0.7948
N1 N 0.2524(5) -0.0755(5) 0.3160(4)
N2 N 0.2970(5) 0.0551(5) 0.1169(4)
C3 C 0.1775(6) 0.0327(6) 0.3093(5)
C4 C 0.1467(6) 0.0186(6) 0.1733(5)
C5 C 0.3741(6) -0.0488(6) 0.1270(5)
C6 C 0.4053(6) -0.0314(6) 0.2643(5)
C7 C 0.2767(7) -0.0672(7) 0.4499(5)
H5 H 0.1806 -0.1854 0.2619
H6 H 0.0753 -0.0011 0.3392
H7 H 0.2492 0.1461 0.3630
H8 H 0.1072 0.0969 0.1723
H9 H 0.0688 -0.0926 0.1216
H10 H 0.3709 0.1671 0.1629
H11 H 0.2716 0.0357 0.0290
H12 H 0.4765 -0.0169 0.0968
H13 H 0.3027 -0.1631 0.0766
H14 H 0.4486 -0.1067 0.2641
H15 H 0.4828 0.0796 0.3167
H16 H 0.3543 0.0426 0.5042
H17 H 0.1774 -0.0899 0.4824
H18 H 0.3140 -0.1449 0.4518
loop_
_geom_bond_atom_site_label_1
_geom_bond_atom_site_label_2
_geom_bond_site_symmetry_1
_geom_bond_site_symmetry_2
V1 O1 1_555 1_555
V2 O7 1_555 1_555
Se1 O4 1_555 1_555
Se2 O6 1_555 1_555
O2 V1 1_555 1_555
O3 C1 1_555 1_555
O4 V1A_2 1_555 1_555
O5 V1 1_555 1_555
O6 V1 1_555 1_555
O8 C2 1_555 1_555
O9 V2 1_555 1_555
O10 V2 1_555 1_555
O11 Se2 1_555 1_555
O12 Se2 1_555 1_555
C1 O2 1_555 1_555
C2 O9 1_555 1_555
O13 H1 1_555 1_555
H2 O13 1_555 1_555
O14 H3 1_555 1_555
H4 O14 1_555 1_555
N1 C3 1_555 1_555
N2 C4 1_555 1_555
C3 C4 1_555 1_555
C4 H8 1_555 1_555
C5 N2 1_555 1_555
C6 N1 1_555 1_555
C7 N1 1_555 1_555
H5 N1 1_555 1_555
H6 C3 1_555 1_555
H7 C3 1_555 1_555
H9 C4 1_555 1_555
H10 N2 1_555 1_555
H11 N2 1_555 1_555
H12 C5 1_555 1_555
H13 C5 1_555 1_555
H14 C6 1_555 1_555
H15 C6 1_555 1_555
H16 C7 1_555 1_555
H17 C7 1_555 1_555
H18 C7 1_555 1_555
O2A C1A 1_555 1_555
C1A C1 1_555 1_555
O3A V1 1_555 1_555
O9A C2A 1_555 1_555
C2A C2 1_555 1_555
O8A V2 1_555 1_555
V1A O3 1_555 1_555
V2A O7A 1_555 1_555
Se1A O4A 1_555 1_555
Se2A O6A 1_555 1_555
O1A V1A 1_555 1_555
O4A V1_2 1_555 1_555
O5A V1A 1_555 1_555
O6A V1A 1_555 1_555
O10A V2A 1_555 1_555
O11A Se2A 1_555 1_555
O12A Se2A 1_555 1_555
V2_2 O12A 1_555 1_555
V2_3 O11 1_555 1_555
V2A_2 O11A 1_555 1_555
V2A_3 O8 1_555 1_555
O4_2 V1A 1_555 1_555
O4A_2 V1 1_555 1_555
O8_2 V2A 1_555 1_555
O9A_2 V2A 1_555 1_555
O11_2 V2 1_555 1_555
O11A_2 V2A 1_555 1_555
O12_2 V2A 1_555 1_555
O12A_2 V2 1_555 1_555
Se1 O5 1_555 1_555
Se1 O10 1_555 1_555
O12 V2A_3 1_555 1_555
C5 C6 1_555 1_555
O2A V1A 1_555 1_555
C1A O3A 1_555 1_555
O9A V2A_3 1_555 1_555
C2A O8A 1_555 1_555
Se1A O5A 1_555 1_555
Se1A O10A 1_555 1_555

#END
