
#######################################################################
#
#                 Cambridge Crystallographic Data Centre
#                                CCDC 
#
#######################################################################
#
# If this CIF has been generated from an entry in the Cambridge 
# Structural Database, then it will include bibliographic, chemical, 
# crystal, experimental, refinement or atomic coordinate data resulting 
# from the CCDC's data processing and validation procedures.
#
#######################################################################

data_HIKWAB
_symmetry_cell_setting           monoclinic
_symmetry_space_group_name_H-M   'P 21'
_symmetry_Int_Tables_number      4
_space_group_name_Hall           'P 2yb'
loop_
_symmetry_equiv_pos_site_id
_symmetry_equiv_pos_as_xyz
1 x,y,z
2 -x,1/2+y,-z
_cell_length_a                   9.2250(15)
_cell_length_b                   11.2463(18)
_cell_length_c                   9.3681(15)
_cell_angle_alpha                90
_cell_angle_beta                 116.074(2)
_cell_angle_gamma                90
_cell_volume                     872.999
loop_
_atom_site_label
_atom_site_type_symbol
_atom_site_fract_x
_atom_site_fract_y
_atom_site_fract_z
V1 V 1.07180(14) 0.51124(18) 1.03795(18)
V2 V 0.93033(14) 0.26845(17) 1.46135(18)
Se1 Se 1.00695(7) 0.25841(13) 1.15759(10)
Se2 Se 1.00088(7) 0.52082(13) 1.34459(9)
O1 O 1.2190(6) 0.5945(5) 1.1508(8)
O2 O 1.0728(7) 0.1285(5) 1.1250(9)
O3 O 0.9243(5) 0.5216(6) 1.1414(7)
O4 O 1.1449(6) 0.3511(5) 1.1403(8)
O5 O 1.1626(6) 0.4740(5) 0.8770(8)
O6 O 0.8804(7) 0.3912(5) 0.8513(8)
O7 O 0.7816(7) 0.1872(6) 1.3462(9)
O8 O 0.9296(7) 0.6531(6) 1.3753(9)
O9 O 1.0819(6) 0.2545(7) 1.3613(8)
O10 O 0.8648(6) 0.4304(5) 1.3659(8)
O11 O 0.8293(6) 0.3114(6) 0.6124(8)
O12 O 1.1224(6) 0.3858(5) 0.6512(7)
C1 C 1.0777(8) 0.4107(7) 0.7568(9)
C2 C 0.9139(8) 0.3664(7) 0.7395(11)
V1A V 0.92820(14) 0.01124(18) 0.96205(18)
V2_2 V 0.93033(14) 0.26845(17) 0.46135(18)
V2A V 1.06967(14) 0.76845(17) 1.53865(18)
O2A O 0.9272(7) 0.6285(5) 0.8750(9)
O8A O 1.0704(7) 0.1531(6) 1.6247(9)
O11_2 O 0.8293(6) 0.3114(6) 1.6124(8)
O12_2 O 1.1224(6) 0.3858(5) 1.6512(7)
O13 O 0.6735(7) 0.6842(6) 0.9737(9)
H1 H 0.6879 0.7523 0.9213
H2 H 0.7703 0.6390 1.0169
O14 O 0.6634(7) 0.5911(6) 1.4646(9)
H3 H 0.7057 0.5672 1.3932
H4 H 0.7414 0.6376 1.5475
N1 N 0.4688(7) 0.5031(7) 0.8057(9)
N2 N 0.5354(7) 0.2797(8) 0.6945(9)
C3 C 0.5612(9) 0.4072(7) 0.9229(12)
C4 C 0.5089(9) 0.2881(8) 0.8437(11)
C5 C 0.4505(9) 0.3784(9) 0.5807(12)
C6 C 0.4953(8) 0.4996(8) 0.6611(11)
C7 C 0.5353(6) 0.4185(4) 1.0718(7)
H5 H 0.5105 0.5729 0.8546
H6 H 0.3645 0.4958 0.7801
H7 H 0.6762 0.4161 0.9530
H8 H 0.5703 0.2255 0.9174
H9 H 0.3947 0.2780 0.8129
H10 H 0.6395 0.2819 0.7183
H11 H 0.4905 0.2092 0.6502
H12 H 0.4800 0.3732 0.4940
H13 H 0.3346 0.3660 0.5399
H14 H 0.6079 0.5175 0.6891
H15 H 0.4255 0.5595 0.5862
H16 H 0.5914 0.3558 1.1450
H17 H 0.5769 0.4940 1.1207
H18 H 0.4222 0.4151 1.0444
loop_
_geom_bond_atom_site_label_1
_geom_bond_atom_site_label_2
_geom_bond_site_symmetry_1
_geom_bond_site_symmetry_2
V1 O1 1_555 1_555
V2 O7 1_555 1_555
Se1 O2 1_555 1_555
Se2 O3 1_555 1_555
O2 V1A 1_555 1_555
O3 V1 1_555 1_555
O4 V1 1_555 1_555
O5 V1 1_555 1_555
O6 V1 1_555 1_555
O8 Se2 1_555 1_555
O9 V2 1_555 1_555
O10 V2 1_555 1_555
O11 C2 1_555 1_555
O12 C1 1_555 1_555
C1 O5 1_555 1_555
C2 O6 1_555 1_555
O13 H1 1_555 1_555
H2 O13 1_555 1_555
O14 H3 1_555 1_555
H4 O14 1_555 1_555
N1 C3 1_555 1_555
N2 C4 1_555 1_555
C3 C4 1_555 1_555
C4 H8 1_555 1_555
C5 N2 1_555 1_555
C6 N1 1_555 1_555
C7 C3 1_555 1_555
H5 N1 1_555 1_555
H6 N1 1_555 1_555
H7 C3 1_555 1_555
H9 C4 1_555 1_555
H10 N2 1_555 1_555
H11 N2 1_555 1_555
H12 C5 1_555 1_555
H13 C5 1_555 1_555
H14 C6 1_555 1_555
H15 C6 1_555 1_555
H16 C7 1_555 1_555
H17 C7 1_555 1_555
H18 C7 1_555 1_555
V2_2 O11 1_555 1_555
V2A O8 1_555 1_555
O2A V1 1_555 1_555
O8A V2 1_555 1_555
O11_2 V2 1_555 1_555
O12_2 V2 1_555 1_555
Se1 O4 1_555 1_555
Se1 O9 1_555 1_555
Se2 O10 1_555 1_555
O12 V2_2 1_555 1_555
C1 C2 1_555 1_555
C5 C6 1_555 1_555

#END
