
#######################################################################
#
#                 Cambridge Crystallographic Data Centre
#                                CCDC 
#
#######################################################################
#
# If this CIF has been generated from an entry in the Cambridge 
# Structural Database, then it will include bibliographic, chemical, 
# crystal, experimental, refinement or atomic coordinate data resulting 
# from the CCDC's data processing and validation procedures.
#
#######################################################################

data_HILDAJ
_symmetry_cell_setting           monoclinic
_symmetry_space_group_name_H-M   'P 21/n'
_symmetry_Int_Tables_number      14
_space_group_name_Hall           '-P 2yn'
loop_
_symmetry_equiv_pos_site_id
_symmetry_equiv_pos_as_xyz
1 x,y,z
2 1/2-x,1/2+y,1/2-z
3 -x,-y,-z
4 1/2+x,1/2-y,1/2+z
_cell_length_a                   11.1935(3)
_cell_length_b                   11.2137(3)
_cell_length_c                   17.2156(5)
_cell_angle_alpha                90
_cell_angle_beta                 96.039(2)
_cell_angle_gamma                90
_cell_volume                     2148.92
loop_
_atom_site_label
_atom_site_type_symbol
_atom_site_fract_x
_atom_site_fract_y
_atom_site_fract_z
Cu1 Cu 0.46071(3) 0.98128(4) 0.57531(2)
Cu2 Cu 0.61765(3) 0.77508(4) 0.50130(2)
Cu3 Cu 0.75024(3) 0.99423(3) 0.57956(2)
O1 O 0.60128(18) 0.94293(19) 0.52242(11)
O2 O 0.78728(19) 0.7846(2) 0.53623(12)
O3 O 0.5154(2) 0.9182(2) 0.68030(12)
O4 O 0.71430(19) 0.9179(2) 0.67580(12)
N1 N 0.6101(2) 0.4631(2) 0.37120(15)
O5 O 0.7491(2) 0.6540(2) 0.62917(14)
N2 N 0.5070(2) 0.3835(2) 0.25265(14)
C1 C 1.0981(3) 0.7380(3) 0.74239(18)
H1 H 1.1242 0.7128 0.7928
C2 C 0.9458(3) 0.7417(3) 0.63312(17)
C3 C 0.6217(3) 0.9065(3) 0.70992(17)
C4 C 0.7507(3) 0.8212(3) 0.82346(18)
H2 H 0.8042 0.7976 0.7886
C5 C 0.8180(3) 0.7210(3) 0.59853(18)
C6 C 1.0218(3) 0.8094(3) 0.59189(17)
H3 H 0.9964 0.8325 0.5409
C7 C 0.7467(3) 0.5955(3) 0.40978(18)
H4 H 0.8188 0.6372 0.4175
C8 C 0.8930(3) 0.7359(3) 0.92969(18)
C9 C 1.1725(3) 0.8098(3) 0.70209(18)
H5 H 1.2464 0.8351 0.7261
C10 C 0.6437(3) 0.8762(3) 0.79577(17)
C11 C 0.5623(3) 0.5452(3) 0.41536(18)
H6 H 0.4830 0.5444 0.4270
C12 C 0.4000(3) 0.4274(3) 0.22405(18)
H7 H 0.3386 0.4467 0.2543
C13 C 0.7786(3) 0.8010(3) 0.90285(17)
N3 N 0.6416(2) 0.6268(3) 0.44021(15)
C14 C 0.7002(3) 0.8410(3) 0.95505(18)
H8 H 0.7205 0.8326 1.0085
C15 C 1.1346(3) 0.8432(3) 0.62528(17)
C16 C 0.5630(3) 0.9099(3) 0.84793(18)
H9 H 0.4895 0.9435 0.8295
C17 C 0.9863(3) 0.7040(3) 0.70824(18)
H10 H 0.9377 0.6556 0.7356
C18 C 0.7282(3) 0.4945(3) 0.3669(2)
H11 H 0.7839 0.4546 0.3399
C19 C 0.5455(3) 0.3611(3) 0.33471(17)
H12 H 0.5973 0.2915 0.3393
H13 H 0.4758 0.3443 0.3619
C20 C 0.5731(3) 0.3668(3) 0.19046(19)
H14 H 0.6511 0.3377 0.1922
C21 C 0.5019(3) 0.4012(3) 0.12663(18)
H15 H 0.5230 0.3991 0.0758
C22 C 0.5921(3) 0.8931(3) 0.92721(19)
H16 H 0.5387 0.9170 0.9621
C23 C 1.2131(3) 0.9201(3) 0.57940(17)
O6 O 1.1813(2) 0.9297(2) 0.50751(12)
O7 O 1.3042(2) 0.9664(2) 0.61652(13)
O8 O 0.9437(2) 0.7598(2) 0.99831(12)
O9 O 0.9350(2) 0.6653(2) 0.88425(12)
N4 N 0.3930(2) 0.4398(2) 0.14753(14)
Cu1_2 Cu 1.46071(3) 0.98128(4) 0.57531(2)
Cu1A Cu 1.03929(3) 0.48128(4) 0.92469(2)
Cu1B Cu 0.53929(3) 1.01872(4) 0.42469(2)
Cu2C Cu 1.11765(3) 0.72492(4) 1.00130(2)
Cu3B Cu 1.24976(3) 1.00577(3) 0.42044(2)
Cu3C Cu 0.25024(3) 0.50577(3) 0.07956(2)
O1B O 0.39872(18) 1.05707(19) 0.47758(11)
O6B O 0.8187(2) 1.0703(2) 0.49249(12)
O7_2 O 0.3042(2) 0.9664(2) 0.61652(13)
O8C O 0.4437(2) 0.7402(2) 0.49831(12)
O9A O 0.5650(2) 1.1653(2) 0.61575(12)
O9C O 0.4350(2) 0.8347(2) 0.38425(12)
N4C N 0.8930(2) 1.0602(2) 0.64753(14)
loop_
_geom_bond_atom_site_label_1
_geom_bond_atom_site_label_2
_geom_bond_site_symmetry_1
_geom_bond_site_symmetry_2
Cu1 O1 1_555 1_555
Cu2 O1 1_555 1_555
Cu3 O1 1_555 1_555
O1 Cu1B 1_555 1_555
O2 Cu2 1_555 1_555
O3 Cu1 1_555 1_555
O4 Cu3 1_555 1_555
N1 C11 1_555 1_555
O5 C5 1_555 1_555
N2 C12 1_555 1_555
C1 H1 1_555 1_555
C2 C5 1_555 1_555
C3 O3 1_555 1_555
C4 H2 1_555 1_555
C5 O2 1_555 1_555
C6 C2 1_555 1_555
H3 C6 1_555 1_555
C7 H4 1_555 1_555
C8 C13 1_555 1_555
C9 C1 1_555 1_555
H5 C9 1_555 1_555
C10 C3 1_555 1_555
C11 H6 1_555 1_555
C12 H7 1_555 1_555
C13 C4 1_555 1_555
N3 Cu2 1_555 1_555
C14 C13 1_555 1_555
H8 C14 1_555 1_555
C15 C6 1_555 1_555
C16 C10 1_555 1_555
H9 C16 1_555 1_555
C17 C1 1_555 1_555
H10 C17 1_555 1_555
C18 N1 1_555 1_555
H11 C18 1_555 1_555
C19 N1 1_555 1_555
H12 C19 1_555 1_555
H13 C19 1_555 1_555
C20 N2 1_555 1_555
H14 C20 1_555 1_555
C21 C20 1_555 1_555
H15 C21 1_555 1_555
C22 C14 1_555 1_555
H16 C22 1_555 1_555
C23 C15 1_555 1_555
O6 C23 1_555 1_555
O7 C23 1_555 1_555
O8 C8 1_555 1_555
O9 C8 1_555 1_555
N4 C12 1_555 1_555
Cu1_2 O7 1_555 1_555
Cu1A O9 1_555 1_555
Cu1B Cu1 1_555 1_555
Cu2C O8 1_555 1_555
Cu3B O6 1_555 1_555
Cu3C N4 1_555 1_555
O1B Cu1 1_555 1_555
O6B Cu3 1_555 1_555
O7_2 Cu1 1_555 1_555
O8C Cu2 1_555 1_555
O9A Cu1 1_555 1_555
O9C Cu2 1_555 1_555
N4C Cu3 1_555 1_555
Cu3 O2 1_555 1_555
O4 C3 1_555 1_555
N2 C19 1_555 1_555
C2 C17 1_555 1_555
C4 C10 1_555 1_555
C7 N3 1_555 1_555
C7 C18 1_555 1_555
C9 C15 1_555 1_555
C11 N3 1_555 1_555
C16 C22 1_555 1_555
C21 N4 1_555 1_555
O9 Cu2C 1_555 1_555
Cu1B O1B 1_555 1_555
Cu1B O9C 1_555 1_555

#END
