
#######################################################################
#
#                 Cambridge Crystallographic Data Centre
#                                CCDC 
#
#######################################################################
#
# If this CIF has been generated from an entry in the Cambridge 
# Structural Database, then it will include bibliographic, chemical, 
# crystal, experimental, refinement or atomic coordinate data resulting 
# from the CCDC's data processing and validation procedures.
#
#######################################################################

data_HILJUI
_symmetry_cell_setting           monoclinic
_symmetry_space_group_name_H-M   'P 21/c'
_symmetry_Int_Tables_number      14
_space_group_name_Hall           '-P 2ybc'
loop_
_symmetry_equiv_pos_site_id
_symmetry_equiv_pos_as_xyz
1 x,y,z
2 -x,1/2+y,1/2-z
3 -x,-y,-z
4 x,1/2-y,1/2+z
_cell_length_a                   10.6840(11)
_cell_length_b                   11.0728(12)
_cell_length_c                   15.3809(18)
_cell_angle_alpha                90
_cell_angle_beta                 90.134(3)
_cell_angle_gamma                90
_cell_volume                     1819.58
loop_
_atom_site_label
_atom_site_type_symbol
_atom_site_fract_x
_atom_site_fract_y
_atom_site_fract_z
Ag1 Ag 0.74763(4) 0.13875(4) 0.20169(3)
C1 C 0.5480(4) 0.3381(4) 0.1370(2)
C2 C 0.4720(3) 0.4416(3) 0.1175(2)
C3 C 0.5054(3) 0.5518(4) 0.1566(2)
H1 H 0.5729 0.5542 0.1948
C4 C 0.4406(4) 0.6551(3) 0.1394(2)
H2 H 0.4622 0.7280 0.1655
C5 C 0.3402(3) 0.6474(3) 0.0810(2)
C6 C 0.3075(3) 0.5376(3) 0.0406(2)
C7 C 0.3738(3) 0.4331(3) 0.0592(2)
H3 H 0.3529 0.3599 0.0334
C8 C 0.2017(3) 0.5643(3) -0.0151(2)
C9 C 0.1748(3) 0.6883(3) -0.0047(2)
C10 C 0.0795(4) 0.7446(4) -0.0508(3)
H4 H 0.0633 0.8266 -0.0441
C11 C 0.0098(4) 0.6745(4) -0.1069(3)
H5 H -0.0547 0.7096 -0.1387
C12 C 0.0349(3) 0.5510(4) -0.1165(2)
C13 C 0.1313(3) 0.4943(3) -0.0719(2)
H6 H 0.1481 0.4126 -0.0797
C14 C -0.0443(4) 0.4799(4) -0.1723(3)
C15 C 0.2631(4) 0.8596(3) 0.0836(2)
C16 C 0.3727(4) 0.9241(4) 0.0758(3)
H7 H 0.4424 0.8893 0.0497
C17 C 0.3783(5) 1.0406(4) 0.1069(3)
H8 H 0.4524 1.0842 0.1019
C18 C 0.2770(5) 1.0929(4) 0.1450(3)
H9 H 0.2817 1.1717 0.1657
C19 C 0.1688(5) 1.0289(4) 0.1524(3)
H10 H 0.0994 1.0649 0.1781
C20 C 0.1601(4) 0.9101(4) 0.1221(3)
H11 H 0.0862 0.8664 0.1279
N1 N 0.6112(3) 0.2598(3) 0.1530(2)
N2 N 0.2600(3) 0.7373(3) 0.05368(19)
N3 N -0.1079(3) 0.4233(4) -0.2149(2)
Ag1C Ag -0.25237(4) 0.36125(4) -0.29831(3)
N3C N 0.8921(3) 0.0767(4) 0.2851(2)
B1 B 0.7622(6) 0.8506(5) 0.1395(4)
F1 F 0.8178(5) 0.9510(3) 0.1063(3)
F2 F 0.6728(5) 0.8862(5) 0.1943(4)
F3 F 0.7152(4) 0.7776(3) 0.0775(3)
F4 F 0.8530(4) 0.7913(4) 0.1852(3)
loop_
_geom_bond_atom_site_label_1
_geom_bond_atom_site_label_2
_geom_bond_site_symmetry_1
_geom_bond_site_symmetry_2
Ag1 N1 1_555 1_555
B1 F1 1_555 1_555
C1 C2 1_555 1_555
C2 C3 1_555 1_555
C3 H1 1_555 1_555
C4 C3 1_555 1_555
H2 C4 1_555 1_555
C5 C4 1_555 1_555
C6 C5 1_555 1_555
C7 C2 1_555 1_555
H3 C7 1_555 1_555
C8 C6 1_555 1_555
C9 C8 1_555 1_555
C10 C9 1_555 1_555
H4 C10 1_555 1_555
C11 C10 1_555 1_555
H5 C11 1_555 1_555
C12 C11 1_555 1_555
C13 C8 1_555 1_555
H6 C13 1_555 1_555
C14 C12 1_555 1_555
C15 C16 1_555 1_555
C16 H7 1_555 1_555
C17 C16 1_555 1_555
H8 C17 1_555 1_555
C18 C17 1_555 1_555
H9 C18 1_555 1_555
C19 C18 1_555 1_555
H10 C19 1_555 1_555
C20 C15 1_555 1_555
H11 C20 1_555 1_555
F2 B1 1_555 1_555
F3 B1 1_555 1_555
F4 B1 1_555 1_555
N1 C1 1_555 1_555
N2 C5 1_555 1_555
N3 C14 1_555 1_555
Ag1C N3 1_555 1_555
N3C Ag1 1_555 1_555
C6 C7 1_555 1_555
C9 N2 1_555 1_555
C12 C13 1_555 1_555
C15 N2 1_555 1_555
C19 C20 1_555 1_555

#END
