
#######################################################################
#
#                 Cambridge Crystallographic Data Centre
#                                CCDC 
#
#######################################################################
#
# If this CIF has been generated from an entry in the Cambridge 
# Structural Database, then it will include bibliographic, chemical, 
# crystal, experimental, refinement or atomic coordinate data resulting 
# from the CCDC's data processing and validation procedures.
#
#######################################################################

data_HILJUJ
_symmetry_cell_setting           monoclinic
_symmetry_space_group_name_H-M   'C 2/c'
_symmetry_Int_Tables_number      15
_space_group_name_Hall           '-C 2yn'
loop_
_symmetry_equiv_pos_site_id
_symmetry_equiv_pos_as_xyz
1 x,y,z
2 -x,y,1/2-z
3 1/2+x,1/2+y,z
4 1/2-x,1/2+y,1/2-z
5 -x,-y,-z
6 x,-y,1/2+z
7 1/2-x,1/2-y,-z
8 1/2+x,1/2-y,1/2+z
_cell_length_a                   26.211(4)
_cell_length_b                   13.5295(18)
_cell_length_c                   6.7481(9)
_cell_angle_alpha                90
_cell_angle_beta                 92.2940(10)
_cell_angle_gamma                90
_cell_volume                     2391.11
loop_
_atom_site_label
_atom_site_type_symbol
_atom_site_fract_x
_atom_site_fract_y
_atom_site_fract_z
Ce1 Ce 0.103478(6) 0.192844(11) 0.50963(2)
N1 N 0.29573(11) -0.1310(2) 0.4088(4)
O1 O 0.31348(9) 0.22089(17) 0.4251(4)
O2 O 0.37924(9) 0.12650(18) 0.5087(4)
O3 O 0.13721(10) 0.04084(18) 0.4018(4)
O4 O 0.14023(9) -0.11525(18) 0.3045(4)
O5 O 0.04164(10) 0.0650(2) 0.6258(5)
H1 H 0.0120 0.0606 0.6719
H2 H 0.0516 0.0063 0.6503
O6 O 0.14067(11) 0.2220(2) 0.1912(4)
H3 H 0.1599 0.2677 0.1509
H4 H 0.1296 0.1929 0.0865
O7 O 0.07019(11) 0.2793(2) 0.8045(4)
H5 H 0.0668 0.3416 0.8121
H6 H 0.0393 0.2529 0.8738
O8 O 0.01627(11) 0.2610(2) 0.4228(4)
O9 O 0.04463(10) 0.1392(2) 0.2070(4)
S1 S 0.0000 0.20065(9) 0.2500
C1 C 0.16117(12) -0.0358(2) 0.3624(5)
C2 C 0.21857(12) -0.0351(2) 0.3871(4)
C3 C 0.24475(12) -0.1246(2) 0.3846(5)
H7 H 0.2261 -0.1826 0.3654
C4 C 0.32221(13) -0.0468(2) 0.4332(5)
H8 H 0.3575 -0.0507 0.4506
C5 C 0.29941(12) 0.0464(2) 0.4338(5)
C6 C 0.24661(12) 0.0524(2) 0.4109(5)
H9 H 0.2302 0.1133 0.4114
C7 C 0.33233(13) 0.1372(2) 0.4572(5)
O8A O -0.01627(11) 0.2610(2) 0.0772(4)
O9A O -0.04463(10) 0.1392(2) 0.2930(4)
Ce1A Ce -0.103478(6) 0.192844(11) -0.00963(2)
N1A N -0.29573(11) -0.1310(2) 0.0912(4)
O1A O -0.31348(9) 0.22089(17) 0.0749(4)
O2A O -0.37924(9) 0.12650(18) -0.0087(4)
O3A O -0.13721(10) 0.04084(18) 0.0982(4)
O4A O -0.14023(9) -0.11525(18) 0.1955(4)
O5A O -0.04164(10) 0.0650(2) -0.1258(5)
H1A H -0.0120 0.0606 -0.1719
H2A H -0.0516 0.0063 -0.1503
O6A O -0.14067(11) 0.2220(2) 0.3088(4)
H3A H -0.1599 0.2677 0.3491
H4A H -0.1296 0.1929 0.4135
O7A O -0.07019(11) 0.2793(2) -0.3045(4)
H5A H -0.0668 0.3416 -0.3121
H6A H -0.0393 0.2529 -0.3738
C1A C -0.16117(12) -0.0358(2) 0.1376(5)
C2A C -0.21857(12) -0.0351(2) 0.1129(4)
C3A C -0.24475(12) -0.1246(2) 0.1154(5)
H7A H -0.2261 -0.1826 0.1346
C4A C -0.32221(13) -0.0468(2) 0.0668(5)
H8A H -0.3575 -0.0507 0.0494
C5A C -0.29941(12) 0.0464(2) 0.0662(5)
C6A C -0.24661(12) 0.0524(2) 0.0891(5)
H9A H -0.2302 0.1133 0.0886
C7A C -0.33233(13) 0.1372(2) 0.0428(5)
Ce1D Ce -0.103478(6) -0.192844(11) 0.49037(2)
Ce1E Ce 0.103478(6) -0.192844(11) 0.00963(2)
Ce1F Ce 0.396522(6) 0.307156(11) 0.49037(2)
Ce1G Ce -0.396522(6) 0.307156(11) 0.00963(2)
O1F O 0.18652(9) 0.27911(17) 0.5749(4)
O1G O -0.18652(9) 0.27911(17) -0.0749(4)
O2F O 0.12076(9) 0.37350(18) 0.4913(4)
O2G O -0.12076(9) 0.37350(18) 0.0087(4)
O4D O -0.14023(9) 0.11525(18) -0.3045(4)
O4E O 0.14023(9) 0.11525(18) 0.8045(4)
O10 O 0.45006(15) -0.0171(3) 0.6586(8)
H10 H 0.4266 0.0382 0.6406
H11 H 0.4814 -0.0022 0.6511
loop_
_geom_bond_atom_site_label_1
_geom_bond_atom_site_label_2
_geom_bond_site_symmetry_1
_geom_bond_site_symmetry_2
Ce1 O3 1_555 1_555
N1 C3 1_555 1_555
O1 C7 1_555 1_555
O2 C7 1_555 1_555
O3 C1 1_555 1_555
O4 C1 1_555 1_555
O5 Ce1 1_555 1_555
H1 O5 1_555 1_555
H2 O5 1_555 1_555
O6 Ce1 1_555 1_555
H3 O6 1_555 1_555
H4 O6 1_555 1_555
O7 Ce1 1_555 1_555
H5 O7 1_555 1_555
H6 O7 1_555 1_555
O8 Ce1 1_555 1_555
O9 Ce1 1_555 1_555
S1 O8 1_555 1_555
C1 C2 1_555 1_555
C2 C3 1_555 1_555
C3 H7 1_555 1_555
C4 N1 1_555 1_555
H8 C4 1_555 1_555
C5 C4 1_555 1_555
C6 C2 1_555 1_555
H9 C6 1_555 1_555
C7 C5 1_555 1_555
O10 H10 1_555 1_555
H11 O10 1_555 1_555
O8A S1 1_555 1_555
O9A S1 1_555 1_555
Ce1A O8A 1_555 1_555
N1A C3A 1_555 1_555
O1A C7A 1_555 1_555
O2A C7A 1_555 1_555
O3A Ce1A 1_555 1_555
O4A C1A 1_555 1_555
O5A Ce1A 1_555 1_555
H1A O5A 1_555 1_555
H2A O5A 1_555 1_555
O6A Ce1A 1_555 1_555
H3A O6A 1_555 1_555
H4A O6A 1_555 1_555
O7A Ce1A 1_555 1_555
H5A O7A 1_555 1_555
H6A O7A 1_555 1_555
C1A O3A 1_555 1_555
C2A C1A 1_555 1_555
C3A C2A 1_555 1_555
H7A C3A 1_555 1_555
C4A N1A 1_555 1_555
H8A C4A 1_555 1_555
C5A C4A 1_555 1_555
C6A C2A 1_555 1_555
H9A C6A 1_555 1_555
C7A C5A 1_555 1_555
Ce1D O4A 1_555 1_555
Ce1E O4 1_555 1_555
Ce1F O1 1_555 1_555
Ce1G O1A 1_555 1_555
O1F Ce1 1_555 1_555
O1G Ce1A 1_555 1_555
O2F Ce1 1_555 1_555
O2G Ce1A 1_555 1_555
O4D Ce1A 1_555 1_555
O4E Ce1 1_555 1_555
O2 Ce1F 1_555 1_555
O9 S1 1_555 1_555
C5 C6 1_555 1_555
O9A Ce1A 1_555 1_555
O2A Ce1G 1_555 1_555
C5A C6A 1_555 1_555

#END
