
#######################################################################
#
#                 Cambridge Crystallographic Data Centre
#                                CCDC 
#
#######################################################################
#
# If this CIF has been generated from an entry in the Cambridge 
# Structural Database, then it will include bibliographic, chemical, 
# crystal, experimental, refinement or atomic coordinate data resulting 
# from the CCDC's data processing and validation procedures.
#
#######################################################################

data_HILJES
_symmetry_cell_setting           monoclinic
_symmetry_space_group_name_H-M   'P 2/c'
_symmetry_Int_Tables_number      13
_space_group_name_Hall           '-P 2yc'
loop_
_symmetry_equiv_pos_site_id
_symmetry_equiv_pos_as_xyz
1 x,y,z
2 -x,y,1/2-z
3 -x,-y,-z
4 x,-y,1/2+z
_cell_length_a                   11.2145(8)
_cell_length_b                   15.2776(11)
_cell_length_c                   7.1139(5)
_cell_angle_alpha                90
_cell_angle_beta                 94.5540(10)
_cell_angle_gamma                90
_cell_volume                     1214.98
loop_
_atom_site_label
_atom_site_type_symbol
_atom_site_fract_x
_atom_site_fract_y
_atom_site_fract_z
Ag1 Ag 1.0000 0.74049(3) 1.2500
Ag2 Ag 1.0000 0.54462(3) 1.2500
C1 C 0.8398(3) 0.8939(3) 0.9817(5)
C2 C 0.7545(3) 0.9598(2) 0.9220(5)
C3 C 0.6411(3) 0.9359(2) 0.8450(5)
H1 H 0.6199 0.8773 0.8303
C4 C 0.5613(3) 1.0014(2) 0.7912(4)
C5 C 0.5956(3) 1.0896(2) 0.8146(5)
C6 C 0.7080(3) 1.1139(3) 0.8928(5)
H2 H 0.7289 1.1725 0.9092
C7 C 0.7870(3) 1.0484(3) 0.9450(5)
H3 H 0.8633 1.0626 0.9965
C8 C 0.5000 1.2362(3) 0.7500
C9 C 0.4136(4) 1.2813(3) 0.8401(6)
H4 H 0.3562 1.2510 0.9016
C10 C 0.4137(5) 1.3717(3) 0.8377(8)
H5 H 0.3553 1.4026 0.8957
C11 C 0.5000 1.4159(4) 0.7500
H6 H 0.5000 1.4768 0.7500
C12 C 1.1487(4) 0.6354(2) 0.9716(6)
C13 C 1.2290(5) 0.6377(3) 0.8052(7)
F1 F 1.2985(5) 0.7048(3) 0.8057(7)
F2 F 1.2936(6) 0.5702(3) 0.7952(9)
F3 F 1.1663(5) 0.6412(4) 0.6454(6)
N1 N 0.9082(4) 0.8423(3) 1.0322(6)
N2 N 0.5000 1.1423(2) 0.7500
O1 O 1.1461(3) 0.7022(2) 1.0640(5)
O2 O 1.0961(4) 0.5652(2) 0.9902(5)
Ag1_2 Ag 0.0000 0.74049(3) 0.2500
Ag2C Ag 1.0000 0.45538(3) 0.7500
Ag2C_2 Ag 1.0000 0.45538(3) 1.7500
C1A C 0.1602(3) 0.8939(3) 0.5183(5)
C2A C 0.2455(3) 0.9598(2) 0.5780(5)
C3A C 0.3589(3) 0.9359(2) 0.6550(5)
H1A H 0.3801 0.8773 0.6697
C4A C 0.4387(3) 1.0014(2) 0.7088(4)
C5A C 0.4044(3) 1.0896(2) 0.6854(5)
C6A C 0.2920(3) 1.1139(3) 0.6072(5)
H2A H 0.2711 1.1725 0.5908
C7A C 0.2130(3) 1.0484(3) 0.5550(5)
H3A H 0.1367 1.0626 0.5035
C9A C 0.5864(4) 1.2813(3) 0.6599(6)
H4A H 0.6438 1.2510 0.5984
C10A C 0.5863(5) 1.3717(3) 0.6623(8)
H5A H 0.6447 1.4026 0.6043
C12A C 0.8513(4) 0.6354(2) 1.5284(6)
C13A C 0.7710(5) 0.6377(3) 1.6948(7)
F1A F 0.7015(5) 0.7048(3) 1.6943(7)
F2A F 0.7064(6) 0.5702(3) 1.7048(9)
F3A F 0.8337(5) 0.6412(4) 1.8546(6)
N1A N 0.0918(4) 0.8423(3) 0.4678(6)
N1A_2 N 1.0918(4) 0.8423(3) 1.4678(6)
O1A O 0.8539(3) 0.7022(2) 1.4360(5)
O2A O 0.9039(4) 0.5652(2) 1.5098(5)
O2C O 1.0961(4) 0.4348(2) 1.4902(5)
O2B O 0.9039(4) 0.4348(2) 1.0098(5)
loop_
_geom_bond_atom_site_label_1
_geom_bond_atom_site_label_2
_geom_bond_site_symmetry_1
_geom_bond_site_symmetry_2
Ag1 Ag2 1_555 1_555
Ag2 O2 1_555 1_555
C1 C2 1_555 1_555
C2 C3 1_555 1_555
C3 H1 1_555 1_555
C4 C3 1_555 1_555
C5 C4 1_555 1_555
C6 C5 1_555 1_555
H2 C6 1_555 1_555
C7 C2 1_555 1_555
H3 C7 1_555 1_555
C8 C9 1_555 1_555
C9 H4 1_555 1_555
C10 C9 1_555 1_555
H5 C10 1_555 1_555
C11 C10 1_555 1_555
H6 C11 1_555 1_555
C12 C13 1_555 1_555
C13 F1 1_555 1_555
F2 C13 1_555 1_555
F3 C13 1_555 1_555
N1 Ag1 1_555 1_555
N2 C5 1_555 1_555
O1 Ag1 1_555 1_555
O2 C12 1_555 1_555
Ag1_2 N1A 1_555 1_555
Ag2C O2 1_555 1_555
Ag2C_2 O2A 1_555 1_555
C1A C2A 1_555 1_555
C2A C3A 1_555 1_555
C3A H1A 1_555 1_555
C4A C4 1_555 1_555
C5A N2 1_555 1_555
C6A C5A 1_555 1_555
H2A C6A 1_555 1_555
C7A C2A 1_555 1_555
H3A C7A 1_555 1_555
C9A C8 1_555 1_555
H4A C9A 1_555 1_555
C10A C11 1_555 1_555
H5A C10A 1_555 1_555
C12A C13A 1_555 1_555
C13A F1A 1_555 1_555
F2A C13A 1_555 1_555
F3A C13A 1_555 1_555
N1A C1A 1_555 1_555
N1A_2 Ag1 1_555 1_555
O1A Ag1 1_555 1_555
O2A Ag2 1_555 1_555
O2C Ag2 1_555 1_555
O2B Ag2 1_555 1_555
C1 N1 1_555 1_555
C6 C7 1_555 1_555
C8 N2 1_555 1_555
C12 O1 1_555 1_555
Ag2C O2B 1_555 1_555
Ag2C_2 O2C 1_555 1_555
C3A C4A 1_555 1_555
C4A C5A 1_555 1_555
C6A C7A 1_555 1_555
C9A C10A 1_555 1_555
C12A O1A 1_555 1_555
C12A O2A 1_555 1_555

#END
