
#######################################################################
#
#                 Cambridge Crystallographic Data Centre
#                                CCDC 
#
#######################################################################
#
# If this CIF has been generated from an entry in the Cambridge 
# Structural Database, then it will include bibliographic, chemical, 
# crystal, experimental, refinement or atomic coordinate data resulting 
# from the CCDC's data processing and validation procedures.
#
#######################################################################

data_HILKET
_symmetry_cell_setting           monoclinic
_symmetry_space_group_name_H-M   'P 21/n'
_symmetry_Int_Tables_number      14
_space_group_name_Hall           '-P 2yn'
loop_
_symmetry_equiv_pos_site_id
_symmetry_equiv_pos_as_xyz
1 x,y,z
2 1/2-x,1/2+y,1/2-z
3 -x,-y,-z
4 1/2+x,1/2-y,1/2+z
_cell_length_a                   13.302(3)
_cell_length_b                   7.6274(19)
_cell_length_c                   19.510(5)
_cell_angle_alpha                90
_cell_angle_beta                 91.166(3)
_cell_angle_gamma                90
_cell_volume                     1979.07
loop_
_atom_site_label
_atom_site_type_symbol
_atom_site_fract_x
_atom_site_fract_y
_atom_site_fract_z
Mn1 Mn 0.231121(19) 0.80211(3) 0.901109(12)
N1 N 0.39363(12) 0.7128(2) 0.89508(8)
N2 N 0.30879(11) 0.8731(2) 1.00291(7)
N3 N 0.16434(10) 0.56620(19) 0.95933(7)
O1 O 0.26231(13) 0.9752(2) 0.81664(7)
O2 O 0.18538(12) 0.31840(17) 0.80947(7)
O3 O 0.18553(10) 0.60559(17) 0.82623(6)
O4 O 0.11377(10) -0.02399(17) 0.92234(7)
O5 O 0.00056(12) 0.1231(2) 0.86103(9)
C1 C 0.43671(17) 0.6410(3) 0.84105(12)
C2 C 0.53625(18) 0.5857(3) 0.84132(14)
C3 C 0.59246(18) 0.6028(3) 0.89946(14)
C4 C 0.55107(15) 0.6785(3) 0.95807(12)
C5 C 0.60543(18) 0.7038(3) 1.02132(15)
C6 C 0.56314(18) 0.7794(3) 1.07479(15)
C7 C 0.46063(16) 0.8402(3) 1.07192(10)
C8 C 0.41316(19) 0.9236(3) 1.12633(11)
C9 C 0.3172(2) 0.9802(3) 1.11842(12)
C10 C 0.26700(17) 0.9533(3) 1.05571(10)
C11 C 0.40480(14) 0.8166(2) 1.01042(9)
C12 C 0.45046(14) 0.7332(2) 0.95323(10)
C13 C 0.14315(14) 0.5593(3) 1.02593(9)
C14 C 0.09841(14) 0.4156(3) 1.05536(9)
C15 C 0.07538(14) 0.2740(3) 1.01490(9)
C16 C 0.09738(12) 0.2760(2) 0.94508(9)
C17 C 0.14230(12) 0.4259(2) 0.91937(8)
C18 C 0.17308(13) 0.4494(2) 0.84569(9)
C19 C 0.06892(14) 0.1150(3) 0.90418(10)
H7 H 0.0407(14) 0.178(2) 1.0336(9)
H8 H 0.1626(14) 0.656(3) 1.0511(10)
H9 H 0.1964(15) 0.991(3) 1.0469(10)
H10 H 0.0850(14) 0.413(3) 1.1016(10)
H11 H 0.2399(19) 1.080(3) 0.8119(13)
H12 H 0.4497(18) 0.938(3) 1.1708(13)
H13 H 0.590(2) 0.804(3) 1.1155(14)
H14 H 0.3933(17) 0.628(3) 0.8014(12)
H15 H 0.5591(18) 0.533(3) 0.7984(13)
H16 H 0.2859(18) 1.037(3) 1.1509(13)
H17 H 0.281(2) 0.939(4) 0.7765(11)
H18 H 0.6550(18) 0.568(3) 0.8987(12)
H19 H 0.6735(18) 0.666(3) 1.0193(11)
Mn1_2 Mn 0.231121(19) -0.19789(3) 0.901109(12)
O4_2 O 0.11377(10) 0.97601(17) 0.92234(7)
O6 O 0.1593(2) 0.6689(3) 0.19505(13)
H1 H 0.193(3) 0.741(4) 0.2233(16)
H2 H 0.101(2) 0.721(5) 0.186(2)
O7 O -0.00356(18) 0.8018(3) 0.78815(12)
H3 H 0.0556(19) 0.746(5) 0.785(2)
H4 H 0.002(3) 0.897(4) 0.8146(19)
O8 O -0.20180(17) 0.6805(3) 0.78390(10)
H5 H -0.195(2) 0.567(3) 0.7894(17)
H6 H -0.1405(15) 0.715(4) 0.7796(16)
loop_
_geom_bond_atom_site_label_1
_geom_bond_atom_site_label_2
_geom_bond_site_symmetry_1
_geom_bond_site_symmetry_2
Mn1 N1 1_555 1_555
N1 C1 1_555 1_555
N2 Mn1 1_555 1_555
N3 Mn1 1_555 1_555
O1 Mn1 1_555 1_555
O2 C18 1_555 1_555
O3 Mn1 1_555 1_555
O4 C19 1_555 1_555
O5 C19 1_555 1_555
O6 H1 1_555 1_555
H2 O6 1_555 1_555
O7 H3 1_555 1_555
H4 O7 1_555 1_555
O8 H5 1_555 1_555
H6 O8 1_555 1_555
C1 C2 1_555 1_555
C2 C3 1_555 1_555
C3 C4 1_555 1_555
C4 C5 1_555 1_555
C5 C6 1_555 1_555
C6 C7 1_555 1_555
C7 C8 1_555 1_555
C8 C9 1_555 1_555
C9 C10 1_555 1_555
C10 N2 1_555 1_555
C11 N2 1_555 1_555
C12 N1 1_555 1_555
C13 N3 1_555 1_555
C14 C13 1_555 1_555
C15 C14 1_555 1_555
C16 C15 1_555 1_555
C17 N3 1_555 1_555
C18 O3 1_555 1_555
C19 C16 1_555 1_555
H7 C15 1_555 1_555
H8 C13 1_555 1_555
H9 C10 1_555 1_555
H10 C14 1_555 1_555
H11 O1 1_555 1_555
H12 C8 1_555 1_555
H13 C6 1_555 1_555
H14 C1 1_555 1_555
H15 C2 1_555 1_555
H16 C9 1_555 1_555
H17 O1 1_555 1_555
H18 C3 1_555 1_555
H19 C5 1_555 1_555
Mn1_2 O4 1_555 1_555
O4_2 Mn1 1_555 1_555
C4 C12 1_555 1_555
C7 C11 1_555 1_555
C11 C12 1_555 1_555
C16 C17 1_555 1_555
C17 C18 1_555 1_555

#END
