
#######################################################################
#
#                 Cambridge Crystallographic Data Centre
#                                CCDC 
#
#######################################################################
#
# If this CIF has been generated from an entry in the Cambridge 
# Structural Database, then it will include bibliographic, chemical, 
# crystal, experimental, refinement or atomic coordinate data resulting 
# from the CCDC's data processing and validation procedures.
#
#######################################################################

data_HILKAP
_symmetry_cell_setting           monoclinic
_symmetry_space_group_name_H-M   'P 21/c'
_symmetry_Int_Tables_number      14
_space_group_name_Hall           '-P 2ybc'
loop_
_symmetry_equiv_pos_site_id
_symmetry_equiv_pos_as_xyz
1 x,y,z
2 -x,1/2+y,1/2-z
3 -x,-y,-z
4 x,1/2-y,1/2+z
_cell_length_a                   6.412(3)
_cell_length_b                   10.785(5)
_cell_length_c                   11.122(5)
_cell_angle_alpha                90
_cell_angle_beta                 94.760(5)
_cell_angle_gamma                90
_cell_volume                     766.472
loop_
_atom_site_label
_atom_site_type_symbol
_atom_site_fract_x
_atom_site_fract_y
_atom_site_fract_z
Mn1 Mn 0.73547(4) 0.83282(2) 0.89676(2)
N1 N 0.7413(2) 0.62081(15) 0.89825(13)
O1 O 0.6985(2) 0.77293(12) 0.71024(12)
O2 O 0.9304(2) 0.34420(14) 0.61446(15)
O3 O 0.5895(2) 0.36831(14) 0.58404(12)
O4 O 0.7554(2) 1.03840(13) 0.86899(14)
H1 H 0.8130 1.0670 0.8087
H2 H 0.7054 1.0877 0.9188
O5 O 0.7988(2) 0.62581(13) 0.58649(12)
C1 C 0.7435(3) 0.54494(18) 0.99326(17)
C2 C 0.7547(3) 0.41777(19) 0.98259(18)
C3 C 0.7622(3) 0.36581(18) 0.86992(19)
C4 C 0.7494(3) 0.57035(16) 0.78751(16)
C5 C 0.7474(3) 0.66426(16) 0.68680(16)
C6 C 0.7609(3) 0.38254(16) 0.64636(17)
C7 C 0.7585(3) 0.44300(17) 0.76892(17)
H3 H 0.768(3) 0.285(3) 0.862(2)
H4 H 0.757(4) 0.370(3) 1.047(3)
H5 H 0.739(4) 0.574(2) 1.070(2)
Mn1A Mn 1.26453(4) 0.33282(2) 0.60324(2)
Mn1A_2 Mn 0.26453(4) 0.33282(2) 0.60324(2)
Mn1C Mn 0.73547(4) 0.66718(2) 0.39676(2)
O2A O 1.0696(2) 0.84420(14) 0.88554(15)
O3A O 0.4105(2) 0.86831(14) 0.91596(12)
O5C O 0.7988(2) 0.87419(13) 1.08649(12)
loop_
_geom_bond_atom_site_label_1
_geom_bond_atom_site_label_2
_geom_bond_site_symmetry_1
_geom_bond_site_symmetry_2
Mn1 N1 1_555 1_555
N1 C1 1_555 1_555
O1 Mn1 1_555 1_555
O2 C6 1_555 1_555
O3 C6 1_555 1_555
O4 Mn1 1_555 1_555
H1 O4 1_555 1_555
H2 O4 1_555 1_555
O5 C5 1_555 1_555
C1 C2 1_555 1_555
C2 C3 1_555 1_555
C3 C7 1_555 1_555
C4 N1 1_555 1_555
C5 O1 1_555 1_555
C6 C7 1_555 1_555
C7 C4 1_555 1_555
H3 C3 1_555 1_555
H4 C2 1_555 1_555
H5 C1 1_555 1_555
Mn1A O2 1_555 1_555
Mn1A_2 O3 1_555 1_555
Mn1C O5 1_555 1_555
O2A Mn1 1_555 1_555
O3A Mn1 1_555 1_555
O5C Mn1 1_555 1_555
C4 C5 1_555 1_555

#END
