
#######################################################################
#
#                 Cambridge Crystallographic Data Centre
#                                CCDC 
#
#######################################################################
#
# If this CIF has been generated from an entry in the Cambridge 
# Structural Database, then it will include bibliographic, chemical, 
# crystal, experimental, refinement or atomic coordinate data resulting 
# from the CCDC's data processing and validation procedures.
#
#######################################################################

data_HILKIY
_symmetry_cell_setting           monoclinic
_symmetry_space_group_name_H-M   'P 21/c'
_symmetry_Int_Tables_number      14
_space_group_name_Hall           '-P 2ybc'
loop_
_symmetry_equiv_pos_site_id
_symmetry_equiv_pos_as_xyz
1 x,y,z
2 -x,1/2+y,1/2-z
3 -x,-y,-z
4 x,1/2-y,1/2+z
_cell_length_a                   12.585(6)
_cell_length_b                   19.704(8)
_cell_length_c                   23.047(5)
_cell_angle_alpha                90
_cell_angle_beta                 108.43(1)
_cell_angle_gamma                90
_cell_volume                     5421.95
loop_
_atom_site_label
_atom_site_type_symbol
_atom_site_fract_x
_atom_site_fract_y
_atom_site_fract_z
Zn1 Zn 0.51478(4) 0.88210(2) 0.69440(2)
Zn2 Zn 0.36402(4) 0.87258(2) 0.78740(2)
Zn3 Zn 1.15703(4) 1.37526(2) 0.75302(2)
Zn4 Zn 0.88913(4) 1.37585(2) 0.65486(2)
O1 O 0.5562(3) 0.95330(16) 0.75499(15)
O2 O 0.3544(2) 0.87090(19) 0.65201(15)
O3 O 0.2452(2) 0.88543(15) 0.71052(13)
O4 O -0.4558(2) 0.92671(15) 0.62232(13)
O5 O 0.3039(2) 0.85861(13) 0.85466(12)
O6 O -0.3032(2) 0.88261(14) 0.68240(12)
O7 O 0.8014(2) 0.85176(16) 0.81826(13)
O8 O 0.5563(2) 0.79483(15) 0.73251(16)
O9 O 0.9125(3) 1.30224(14) 0.72257(14)
O10 O 0.2095(2) 0.80261(15) 0.90366(13)
O11 O 0.9135(3) 0.45014(14) 0.71627(14)
O12 O 1.0985(3) 0.46429(15) 0.75790(15)
O13 O 0.4371(3) 0.78631(15) 0.78649(14)
O14 O 0.4471(3) 0.95693(15) 0.81378(15)
O15 O 1.0897(3) 1.30150(16) 0.78360(14)
O16 O 0.9784(2) 0.86301(18) 0.87453(14)
N1 N 0.8152(3) 1.45049(19) 0.58269(19)
C1 C 0.5140(4) 0.6524(2) 0.8197(2)
H1 H 0.4431 0.6620 0.8219
C2 C 0.5660(4) 0.5911(2) 0.8417(2)
H2 H 0.5295 0.5591 0.8582
C3 C 0.6760(4) 0.6851(2) 0.79193(19)
H3 H 0.7120 0.7169 0.7748
C4 C 0.7301(4) 0.6249(2) 0.8148(2)
C5 C 0.8451(4) 0.6118(2) 0.81290(19)
C6 C 0.8692(4) 0.5534(2) 0.78591(19)
H4 H 0.8129 0.5218 0.7693
C7 C 0.9766(4) 0.5414(2) 0.78328(19)
C8 C 1.0621(4) 0.5870(2) 0.80940(19)
H5 H 1.1348 0.5779 0.8098
C9 C 1.0384(4) 0.6466(2) 0.83503(19)
H6 H 1.0947 0.6782 0.8515
C10 C 0.5161(4) 0.7647(2) 0.7691(2)
C11 C 0.1620(3) 0.8759(2) 0.60377(18)
C12 C 0.0590(3) 0.9015(2) 0.60410(19)
H7 H 0.0503 0.9157 0.6408
C13 C 0.2609(3) 0.8772(2) 0.65979(18)
C14 C -0.1968(3) 0.9805(2) 0.50485(19)
H8 H -0.1652 0.9934 0.4751
C15 C -0.1401(3) 0.9348(2) 0.55039(18)
C16 C -0.1898(3) 0.9159(2) 0.59393(18)
H9 H -0.1531 0.8855 0.6246
C17 C 0.6774(4) 1.0646(2) 0.8127(2)
H10 H 0.7131 1.0340 0.7943
C18 C 0.7281(4) 1.1266(2) 0.8331(2)
C19 C 0.8407(4) 1.1436(2) 0.8285(2)
C20 C 0.8617(4) 1.2030(2) 0.8011(2)
H11 H 0.8034 1.2332 0.7840
C21 C 0.9903(4) 1.2789(2) 0.7655(2)
C22 C 0.8795(3) 0.8467(2) 0.86811(19)
C23 C 0.7427(3) 0.8035(2) 0.91837(19)
H12 H 0.6854 0.8118 0.8821
C24 C 0.3843(4) 0.7122(2) 0.9552(2)
H13 H 0.3126 0.6985 0.9535
C25 C 0.9977(4) 0.4805(2) 0.75010(19)
C26 C 0.2991(3) 0.8123(2) 0.89288(19)
C27 C 0.7163(3) 0.7754(2) 0.96752(19)
C28 C 0.6002(4) 0.7547(2) 0.9629(2)
C29 C 0.9684(4) 1.2177(2) 0.7987(2)
C30 C -0.2931(3) 0.9415(2) 0.59239(18)
C31 C 0.5218(4) 0.9808(2) 0.7943(2)
C32 C 0.8521(3) 0.8195(2) 0.92183(19)
C33 C 0.3998(3) 0.7722(2) 0.9265(2)
C34 C -0.3479(3) 0.9881(2) 0.54733(18)
H14 H -0.4164 1.0064 0.5467
C35 C 1.0565(4) 1.1733(2) 0.8252(2)
H15 H 1.1285 1.1838 0.8252
C36 C -0.0164(4) 0.8822(2) 0.49695(19)
H16 H -0.0756 0.8847 0.4606
C37 C 0.8048(3) 0.7638(2) 1.02134(19)
H17 H 0.7898 0.7455 1.0551
C38 C 1.0365(4) 1.1137(2) 0.8514(2)
H18 H 1.0947 1.0834 0.8683
C39 C 0.9380(3) 0.8064(2) 0.97597(19)
H19 H 1.0117 0.8162 0.9787
C40 C 0.5203(4) 1.0923(2) 0.8460(2)
H20 H 0.4522 1.0805 0.8511
C41 C 0.6724(4) 0.5779(2) 0.8389(2)
H21 H 0.7063 0.5366 0.8534
C42 C 0.9143(4) 0.7790(2) 1.0253(2)
H22 H 0.9720 0.7707 1.0614
C43 C 0.6710(6) 1.5309(3) 0.5374(3)
H23 H 0.6126 1.5578 0.5408
C44 C 0.9312(4) 0.6588(2) 0.83603(19)
H24 H 0.9158 0.6993 0.8525
C45 C 0.5827(4) 0.6947(2) 0.9903(2)
H25 H 0.6439 0.6684 1.0118
C46 C 0.4758(4) 0.6735(2) 0.9860(2)
H26 H 0.4656 0.6328 1.0041
C47 C 0.9294(4) 1.0991(2) 0.8525(2)
H27 H 0.9167 1.0585 0.8698
C48 C 0.5677(4) 1.1552(2) 0.8653(2)
H28 H 0.5307 1.1860 0.8826
C49 C 0.7291(6) 1.4898(3) 0.5851(3)
H29 H 0.7082 1.4892 0.6203
C50 C 0.7877(6) 1.4954(3) 0.4834(3)
H30 H 0.8114 1.4977 0.4491
C51 C 0.0849(4) 0.8546(2) 0.4965(2)
H31 H 0.0925 0.8380 0.4602
C52 C 0.6703(4) 1.1721(2) 0.8588(2)
H32 H 0.7012 1.2145 0.8718
C53 C 0.8434(6) 1.4541(3) 0.5327(3)
H33 H 0.9032 1.4280 0.5300
C54 C 0.6989(6) 1.5319(3) 0.4862(3)
H34 H 0.6575 1.5576 0.4528
C55 C -0.2995(3) 1.0069(2) 0.50344(19)
H35 H -0.3362 1.0374 0.4729
C56 C 0.5073(3) 0.7925(2) 0.93071(19)
H36 H 0.5174 0.8324 0.9115
C57 C 0.5693(4) 0.6990(2) 0.7942(2)
C58 C 0.1738(4) 0.8518(2) 0.54977(19)
H37 H 0.2419 0.8338 0.5495
C59 C 0.5749(4) 1.0471(2) 0.8192(2)
C60 C -0.0308(3) 0.9062(2) 0.55049(18)
C61 C -0.3526(3) 0.9166(2) 0.63481(18)
Zn1_2 Zn -0.48522(4) 0.88210(2) 0.69440(2)
Zn3_2 Zn 1.15703(4) 0.37526(2) 0.75302(2)
Zn3A Zn -0.15703(4) 0.87526(2) 0.74698(2)
Zn3A_2 Zn 0.84297(4) 0.87526(2) 0.74698(2)
Zn4_2 Zn 0.88913(4) 0.37585(2) 0.65486(2)
Zn4A Zn 0.11087(4) 0.87585(2) 0.84514(2)
Zn4A_2 Zn 1.11087(4) 0.87585(2) 0.84514(2)
O4_2 O 0.5442(2) 0.92671(15) 0.62232(13)
O5A O 0.6961(2) 1.35861(13) 0.64534(12)
O6_2 O 0.6968(2) 0.88261(14) 0.68240(12)
O6A O 1.3032(2) 1.38261(14) 0.81760(12)
O7A O 1.1986(2) 1.35176(16) 0.68174(13)
O10A O 0.7905(2) 1.30261(15) 0.59634(13)
O11_2 O 0.9135(3) 1.45014(14) 0.71627(14)
O12_2 O 1.0985(3) 1.46429(15) 0.75790(15)
O16A O 1.0216(2) 1.36301(18) 0.62547(14)
loop_
_geom_bond_atom_site_label_1
_geom_bond_atom_site_label_2
_geom_bond_site_symmetry_1
_geom_bond_site_symmetry_2
Zn1 O1 1_555 1_555
Zn2 O3 1_555 1_555
Zn3 O15 1_555 1_555
Zn4 O9 1_555 1_555
O1 C31 1_555 1_555
O2 Zn1 1_555 1_555
O3 C13 1_555 1_555
O4 C61 1_555 1_555
O5 Zn2 1_555 1_555
O6 C61 1_555 1_555
O7 C22 1_555 1_555
O8 Zn1 1_555 1_555
O9 C21 1_555 1_555
O10 C26 1_555 1_555
O11 C25 1_555 1_555
O12 C25 1_555 1_555
O13 Zn2 1_555 1_555
O14 Zn2 1_555 1_555
O15 C21 1_555 1_555
O16 C22 1_555 1_555
N1 Zn4 1_555 1_555
C1 H1 1_555 1_555
C2 C1 1_555 1_555
H2 C2 1_555 1_555
C3 H3 1_555 1_555
C4 C3 1_555 1_555
C5 C4 1_555 1_555
C6 C5 1_555 1_555
H4 C6 1_555 1_555
C7 C6 1_555 1_555
C8 C7 1_555 1_555
H5 C8 1_555 1_555
C9 C8 1_555 1_555
H6 C9 1_555 1_555
C10 O8 1_555 1_555
C11 C12 1_555 1_555
C12 H7 1_555 1_555
C13 O2 1_555 1_555
C14 H8 1_555 1_555
C15 C14 1_555 1_555
C16 C15 1_555 1_555
H9 C16 1_555 1_555
C17 H10 1_555 1_555
C18 C17 1_555 1_555
C19 C18 1_555 1_555
C20 C19 1_555 1_555
H11 C20 1_555 1_555
C21 C29 1_555 1_555
C22 C32 1_555 1_555
C23 H12 1_555 1_555
C24 H13 1_555 1_555
C25 C7 1_555 1_555
C26 O5 1_555 1_555
C27 C23 1_555 1_555
C28 C27 1_555 1_555
C29 C20 1_555 1_555
C30 C16 1_555 1_555
C31 O14 1_555 1_555
C32 C23 1_555 1_555
C33 C24 1_555 1_555
C34 C30 1_555 1_555
H14 C34 1_555 1_555
C35 C29 1_555 1_555
H15 C35 1_555 1_555
C36 H16 1_555 1_555
C37 C27 1_555 1_555
H17 C37 1_555 1_555
C38 C35 1_555 1_555
H18 C38 1_555 1_555
C39 C32 1_555 1_555
H19 C39 1_555 1_555
C40 H20 1_555 1_555
C41 C2 1_555 1_555
H21 C41 1_555 1_555
C42 C37 1_555 1_555
H22 C42 1_555 1_555
C43 H23 1_555 1_555
C44 C5 1_555 1_555
H24 C44 1_555 1_555
C45 C28 1_555 1_555
H25 C45 1_555 1_555
C46 C24 1_555 1_555
H26 C46 1_555 1_555
C47 C19 1_555 1_555
H27 C47 1_555 1_555
C48 C40 1_555 1_555
H28 C48 1_555 1_555
C49 N1 1_555 1_555
H29 C49 1_555 1_555
C50 H30 1_555 1_555
C51 C36 1_555 1_555
H31 C51 1_555 1_555
C52 C18 1_555 1_555
H32 C52 1_555 1_555
C53 N1 1_555 1_555
H33 C53 1_555 1_555
C54 C43 1_555 1_555
H34 C54 1_555 1_555
C55 C14 1_555 1_555
H35 C55 1_555 1_555
C56 C28 1_555 1_555
H36 C56 1_555 1_555
C57 C1 1_555 1_555
C58 C11 1_555 1_555
H37 C58 1_555 1_555
C59 C17 1_555 1_555
C60 C12 1_555 1_555
C61 C30 1_555 1_555
Zn1_2 O4 1_555 1_555
Zn3_2 O12 1_555 1_555
Zn3A O6 1_555 1_555
Zn3A_2 O7 1_555 1_555
Zn4_2 O11 1_555 1_555
Zn4A O5 1_555 1_555
Zn4A_2 O16 1_555 1_555
O4_2 Zn1 1_555 1_555
O5A Zn4 1_555 1_555
O6_2 Zn1 1_555 1_555
O6A Zn3 1_555 1_555
O7A Zn3 1_555 1_555
O10A Zn4 1_555 1_555
O11_2 Zn4 1_555 1_555
O12_2 Zn3 1_555 1_555
O16A Zn4 1_555 1_555
O6 Zn1_2 1_555 1_555
O10 Zn4A 1_555 1_555
O13 C10 1_555 1_555
C3 C57 1_555 1_555
C4 C41 1_555 1_555
C9 C44 1_555 1_555
C10 C57 1_555 1_555
C11 C13 1_555 1_555
C15 C60 1_555 1_555
C26 C33 1_555 1_555
C31 C59 1_555 1_555
C33 C56 1_555 1_555
C34 C55 1_555 1_555
C36 C60 1_555 1_555
C38 C47 1_555 1_555
C39 C42 1_555 1_555
C40 C59 1_555 1_555
C43 C49 1_555 1_555
C45 C46 1_555 1_555
C48 C52 1_555 1_555
C50 C53 1_555 1_555
C50 C54 1_555 1_555
C51 C58 1_555 1_555
Zn3A_2 O6_2 1_555 1_555

#END
