
#######################################################################
#
#                 Cambridge Crystallographic Data Centre
#                                CCDC 
#
#######################################################################
#
# If this CIF has been generated from an entry in the Cambridge 
# Structural Database, then it will include bibliographic, chemical, 
# crystal, experimental, refinement or atomic coordinate data resulting 
# from the CCDC's data processing and validation procedures.
#
#######################################################################

data_HILNAR
_symmetry_cell_setting           monoclinic
_symmetry_space_group_name_H-M   'C 2/c'
_symmetry_Int_Tables_number      15
_space_group_name_Hall           '-C 2yn'
loop_
_symmetry_equiv_pos_site_id
_symmetry_equiv_pos_as_xyz
1 x,y,z
2 1/2+x,1/2+y,z
3 x,-y,1/2+z
4 1/2+x,1/2-y,1/2+z
5 -x,-y,-z
6 1/2-x,1/2-y,-z
7 -x,y,1/2-z
8 1/2-x,1/2+y,1/2-z
_cell_length_a                   8.568(3)
_cell_length_b                   14.243(5)
_cell_length_c                   12.389(5)
_cell_angle_alpha                90
_cell_angle_beta                 94.81(6)
_cell_angle_gamma                90
_cell_volume                     1506.56
loop_
_atom_site_label
_atom_site_type_symbol
_atom_site_fract_x
_atom_site_fract_y
_atom_site_fract_z
Au1 Au 0.5000 0.5000 0.5000
Au2 Au 0.5000 0.54178(2) 0.7500
Cl1 Cl 0.76530(15) 0.54307(10) 0.78450(11)
N1 N 0.5256(4) 0.6404(3) 0.4721(3)
C1 C 0.4587(5) 0.7051(4) 0.5336(4)
H1 H 0.3992 0.6841 0.5882
C2 C 0.4742(5) 0.8006(4) 0.5195(4)
C3 C 0.5611(6) 0.8298(4) 0.4348(4)
H2 H 0.5728 0.8934 0.4208
C4 C 0.6294(6) 0.7638(4) 0.3723(4)
H3 H 0.6877 0.7828 0.3162
C5 C 0.6113(6) 0.6706(4) 0.3931(4)
H4 H 0.6596 0.6267 0.3514
C6 C 0.4012(6) 0.8694(4) 0.5931(5)
H5 H 0.4820 0.9059 0.6315
H6 H 0.3438 0.8357 0.6440
H7 H 0.3314 0.9103 0.5506
Au1B Au 0.5000 0.5000 1.0000
Cl1F Cl 0.23470(15) 0.54307(10) 0.71550(11)
Au2B Au 0.5000 0.45822(2) 0.2500
N1D N 0.4744(4) 0.3596(3) 0.5279(3)
C1D C 0.5413(5) 0.2949(4) 0.4664(4)
H1D H 0.6008 0.3159 0.4118
C2D C 0.5258(5) 0.1994(4) 0.4805(4)
C3D C 0.4389(6) 0.1702(4) 0.5652(4)
H2D H 0.4272 0.1066 0.5792
C4D C 0.3706(6) 0.2362(4) 0.6277(4)
H3D H 0.3123 0.2172 0.6838
C5D C 0.3887(6) 0.3294(4) 0.6069(4)
H4D H 0.3404 0.3733 0.6486
C6D C 0.5988(6) 0.1306(4) 0.4069(5)
H5D H 0.5180 0.0941 0.3685
H6D H 0.6562 0.1643 0.3560
H7D H 0.6686 0.0897 0.4494
loop_
_geom_bond_atom_site_label_1
_geom_bond_atom_site_label_2
_geom_bond_site_symmetry_1
_geom_bond_site_symmetry_2
Au1 Au2 1_555 1_555
Au2 Cl1 1_555 1_555
N1 Au1 1_555 1_555
C1 N1 1_555 1_555
H1 C1 1_555 1_555
C2 C1 1_555 1_555
C3 C2 1_555 1_555
H2 C3 1_555 1_555
C4 C3 1_555 1_555
H3 C4 1_555 1_555
C5 N1 1_555 1_555
H4 C5 1_555 1_555
C6 C2 1_555 1_555
H5 C6 1_555 1_555
H6 C6 1_555 1_555
H7 C6 1_555 1_555
Au1B Au2 1_555 1_555
Cl1F Au2 1_555 1_555
Au2B Au1 1_555 1_555
N1D Au1 1_555 1_555
C1D N1D 1_555 1_555
H1D C1D 1_555 1_555
C2D C1D 1_555 1_555
C3D C2D 1_555 1_555
H2D C3D 1_555 1_555
C4D C3D 1_555 1_555
H3D C4D 1_555 1_555
C5D N1D 1_555 1_555
H4D C5D 1_555 1_555
C6D C2D 1_555 1_555
H5D C6D 1_555 1_555
H6D C6D 1_555 1_555
H7D C6D 1_555 1_555
C4 C5 1_555 1_555
C4D C5D 1_555 1_555

#END
