
#######################################################################
#
#                 Cambridge Crystallographic Data Centre
#                                CCDC 
#
#######################################################################
#
# If this CIF has been generated from an entry in the Cambridge 
# Structural Database, then it will include bibliographic, chemical, 
# crystal, experimental, refinement or atomic coordinate data resulting 
# from the CCDC's data processing and validation procedures.
#
#######################################################################

data_HILNIZ
_symmetry_cell_setting           orthorhombic
_symmetry_space_group_name_H-M   'P b c m'
_symmetry_Int_Tables_number      57
_space_group_name_Hall           '-P 2c 2b'
loop_
_symmetry_equiv_pos_site_id
_symmetry_equiv_pos_as_xyz
1 x,y,z
2 x,y,1/2-z
3 x,1/2-y,1/2+z
4 -x,1/2+y,z
5 -x,-y,-z
6 -x,-y,1/2+z
7 -x,1/2+y,1/2-z
8 x,1/2-y,-z
_cell_length_a                   14.882(3)
_cell_length_b                   16.162(4)
_cell_length_c                   6.801(2)
_cell_angle_alpha                90
_cell_angle_beta                 90
_cell_angle_gamma                90
_cell_volume                     1635.8
loop_
_atom_site_label
_atom_site_type_symbol
_atom_site_fract_x
_atom_site_fract_y
_atom_site_fract_z
F1 F 0.8874(6) -0.0026(6) 0.2500
F2 F 0.6520(5) -0.0735(5) 0.2500
F5 F 0.7510(9) 0.0081(9) 0.4900(20)
F6 F 0.7920(9) -0.0856(10) 0.0111(22)
Sb1 Sb 0.77058(8) -0.03885(7) 0.2500
F5A F 0.7510(9) 0.0081(9) 0.0100(20)
F6A F 0.7920(9) -0.0856(10) 0.4889(22)
N1 N 0.5481(9) 0.2038(9) 0.2500
C1 C 0.5314(11) 0.1245(10) 0.2500
H1 H 0.5810 0.0875 0.2500
C2 C 0.4449(11) 0.0909(10) 0.2500
C3 C 0.3756(11) 0.1428(10) 0.2500
H2 H 0.3160 0.1216 0.2500
C4 C 0.3896(11) 0.2284(10) 0.2500
H3 H 0.3398 0.2652 0.2500
C5 C 0.4773(11) 0.2595(13) 0.2500
H4 H 0.4880 0.3174 0.2500
C6 C 0.4326(12) -0.0019(10) 0.2500
N2 N 0.8037(9) 0.2836(9) 0.2500
C7 C 0.8718(12) 0.2242(10) 0.2500
H8 H 0.8541 0.1677 0.2500
C8 C 0.9605(11) 0.2405(15) 0.2500
C9 C 0.9810(14) 0.3309(12) 0.2500
H9 H 1.0415 0.3496 0.2500
C10 C 0.9121(13) 0.3860(12) 0.2500
H10 H 0.9264 0.4433 0.2500
C11 C 0.8247(15) 0.3641(11) 0.2500
H11 H 0.7789 0.4050 0.2500
C12 C 1.0325(12) 0.1780(12) 0.2500
Au1 Au 0.67401(5) 0.24763(6) 0.2500
Au1B Au 0.67401(5) 0.25237(6) -0.2500
Au1B_2 Au 0.67401(5) 0.25237(6) 0.7500
F3? F 0.7377(8) 0.0576(8) 0.1296(17)
F4? F 0.8066(9) -0.1340(9) 0.3700(18)
H5? H 0.4226 -0.0212 0.3849
H6? H 0.4865 -0.0284 0.1964
H7? H 0.3805 -0.0164 0.1687
H12? H 1.0556 0.1712 0.3839
H13? H 1.0812 0.1962 0.1633
H14? H 1.0085 0.1252 0.2028
loop_
_geom_bond_atom_site_label_1
_geom_bond_atom_site_label_2
_geom_bond_site_symmetry_1
_geom_bond_site_symmetry_2
F1 Sb1 1_555 1_555
F2 Sb1 1_555 1_555
F5 Sb1 1_555 1_555
F6 Sb1 1_555 1_555
N1 C1 1_555 1_555
C1 H1 1_555 1_555
C2 C1 1_555 1_555
C3 C2 1_555 1_555
H2 C3 1_555 1_555
C4 C3 1_555 1_555
H3 C4 1_555 1_555
C5 N1 1_555 1_555
H4 C5 1_555 1_555
C6 C2 1_555 1_555
N2 C7 1_555 1_555
C7 H8 1_555 1_555
C8 C7 1_555 1_555
C9 C8 1_555 1_555
H9 C9 1_555 1_555
C10 C9 1_555 1_555
H10 C10 1_555 1_555
C11 N2 1_555 1_555
H11 C11 1_555 1_555
C12 C8 1_555 1_555
Au1 N1 1_555 1_555
Sb1 F5A 1_555 1_555
F6A Sb1 1_555 1_555
Au1B Au1 1_555 1_555
Au1B_2 Au1 1_555 1_555
C4 C5 1_555 1_555
N2 Au1 1_555 1_555
C10 C11 1_555 1_555

#END
