
#######################################################################
#
#                 Cambridge Crystallographic Data Centre
#                                CCDC 
#
#######################################################################
#
# If this CIF has been generated from an entry in the Cambridge 
# Structural Database, then it will include bibliographic, chemical, 
# crystal, experimental, refinement or atomic coordinate data resulting 
# from the CCDC's data processing and validation procedures.
#
#######################################################################

data_HILPIB
_symmetry_cell_setting           orthorhombic
_symmetry_space_group_name_H-M   'P n n a'
_symmetry_Int_Tables_number      52
_space_group_name_Hall           '-P 2a 2bc'
loop_
_symmetry_equiv_pos_site_id
_symmetry_equiv_pos_as_xyz
1 x,y,z
2 1/2-x,-y,z
3 1/2-x,1/2+y,1/2-z
4 x,1/2-y,1/2-z
5 -x,-y,-z
6 1/2+x,y,-z
7 1/2+x,1/2-y,1/2+z
8 -x,1/2+y,1/2+z
_cell_length_a                   8.0700(10)
_cell_length_b                   12.5740(10)
_cell_length_c                   12.7550(10)
_cell_angle_alpha                90
_cell_angle_beta                 90
_cell_angle_gamma                90
_cell_volume                     1294.28
loop_
_atom_site_label
_atom_site_type_symbol
_atom_site_fract_x
_atom_site_fract_y
_atom_site_fract_z
Be1 Be 0.2500 0.0000 0.7556(2)
O1 O 0.29534(11) 0.10235(7) 0.68461(7)
O2 O 0.09737(12) 0.02600(7) 0.83252(7)
O3 O 0.25090(13) 0.22772(8) 0.56659(8)
O4 O -0.13737(13) 0.09842(9) 0.88205(8)
C1 C 0.1992(2) 0.15639(10) 0.62447(10)
C2 C 0.0162(2) 0.13540(11) 0.62381(11)
C3 C -0.0811(2) 0.10562(11) 0.70240(11)
C4 C -0.0373(2) 0.07628(10) 0.81263(10)
O5 O -0.0395(2) -0.2500 0.7500
H1 H -0.0410(23) 0.1521(14) 0.5570(13)
H2 H -0.2011(22) 0.1076(13) 0.6909(12)
H3 H 0.0237(27) -0.2930(16) 0.7757(17)
K1 K -0.05678(4) -0.14367(2) 0.94505(2)
O1A O 0.20466(11) -0.10235(7) 0.68461(7)
O2A O 0.40263(12) -0.02600(7) 0.83252(7)
K1D K 0.05678(4) 0.14367(2) 1.05495(2)
K1G K 0.05678(4) 0.35633(2) 0.44505(2)
K1B K 0.55678(4) 0.35633(2) 0.55495(2)
K1A K -0.44322(4) 0.14367(2) 0.94505(2)
H3C H 0.0237(27) -0.2070(16) 0.7243(17)
K1C K -0.05678(4) -0.35633(2) 0.55495(2)
K1E K -0.55678(4) -0.14367(2) 1.05495(2)
K1E_2 K 0.44322(4) -0.14367(2) 1.05495(2)
O2D O -0.09737(12) -0.02600(7) 1.16748(7)
O3G O -0.25090(13) -0.27228(8) 1.06659(8)
O3B O 0.24910(13) -0.27228(8) 0.93341(8)
O4D O 0.13737(13) -0.09842(9) 1.11795(8)
O4A O -0.36263(13) -0.09842(9) 0.88205(8)
C4A C 0.5373(2) -0.07628(10) 0.81263(10)
K1A_2 K 0.55678(4) 0.14367(2) 0.94505(2)
C1A C 0.3008(2) -0.15639(10) 0.62447(10)
O4A_2 O 0.63737(13) -0.09842(9) 0.88205(8)
C3A C 0.5811(2) -0.10562(11) 0.70240(11)
O3A O 0.24910(13) -0.22772(8) 0.56659(8)
C2A C 0.4838(2) -0.13540(11) 0.62381(11)
H2A H 0.7011(22) -0.1076(13) 0.6909(12)
H1A H 0.5410(23) -0.1521(14) 0.5570(13)
K1F K 0.44322(4) -0.35633(2) 0.44505(2)
K1_2 K 0.94322(4) -0.14367(2) 0.94505(2)
O3F O -0.24910(13) 0.27228(8) 1.06659(8)
O3C O 0.25090(13) 0.27228(8) 0.93341(8)
O4E O 0.36263(13) 0.09842(9) 1.11795(8)
O5G O 0.0395(2) 0.2500 1.2500
loop_
_geom_bond_atom_site_label_1
_geom_bond_atom_site_label_2
_geom_bond_site_symmetry_1
_geom_bond_site_symmetry_2
Be1 O1 1_555 1_555
O1 C1 1_555 1_555
O2 Be1 1_555 1_555
O3 C1 1_555 1_555
O4 C4 1_555 1_555
C1 C2 1_555 1_555
C2 C3 1_555 1_555
C3 C4 1_555 1_555
C4 O2 1_555 1_555
O5 H3 1_555 1_555
H1 C2 1_555 1_555
H2 C3 1_555 1_555
K1 O2 1_555 1_555
O1A Be1 1_555 1_555
O2A Be1 1_555 1_555
K1D O2 1_555 1_555
K1G O3 1_555 1_555
K1B O3 1_555 1_555
K1A O4 1_555 1_555
H3C O5 1_555 1_555
K1C O5 1_555 1_555
K1E O3G 1_555 1_555
K1E_2 O2A 1_555 1_555
O2D K1 1_555 1_555
O3G K1 1_555 1_555
O3B K1 1_555 1_555
O4D K1 1_555 1_555
O4A K1 1_555 1_555
C4A O2A 1_555 1_555
K1A_2 O2A 1_555 1_555
C1A O1A 1_555 1_555
O4A_2 K1E_2 1_555 1_555
C3A C4A 1_555 1_555
O3A K1C 1_555 1_555
C2A C1A 1_555 1_555
H2A C3A 1_555 1_555
H1A C2A 1_555 1_555
K1F O3A 1_555 1_555
K1_2 O4A_2 1_555 1_555
O3F K1D 1_555 1_555
O3C K1D 1_555 1_555
O4E K1D 1_555 1_555
O5G K1D 1_555 1_555
O4 K1 1_555 1_555
O4 K1D 1_555 1_555
O5 K1 1_555 1_555
K1D O2D 1_555 1_555
K1D O4D 1_555 1_555
K1A O4A 1_555 1_555
K1E O4A 1_555 1_555
K1E_2 O3B 1_555 1_555
K1E_2 O4D 1_555 1_555
C4A O4A_2 1_555 1_555
K1A_2 O4A_2 1_555 1_555
C1A O3A 1_555 1_555
C3A C2A 1_555 1_555

#END
