
#######################################################################
#
#                 Cambridge Crystallographic Data Centre
#                                CCDC 
#
#######################################################################
#
# If this CIF has been generated from an entry in the Cambridge 
# Structural Database, then it will include bibliographic, chemical, 
# crystal, experimental, refinement or atomic coordinate data resulting 
# from the CCDC's data processing and validation procedures.
#
#######################################################################

data_HILTEB
_symmetry_cell_setting           triclinic
_symmetry_space_group_name_H-M   'P -1'
_symmetry_Int_Tables_number      2
_space_group_name_Hall           '-P 1'
loop_
_symmetry_equiv_pos_site_id
_symmetry_equiv_pos_as_xyz
1 x,y,z
2 -x,-y,-z
_cell_length_a                   7.633(5)
_cell_length_b                   10.664(6)
_cell_length_c                   13.360(8)
_cell_angle_alpha                108.750(10)
_cell_angle_beta                 91.490
_cell_angle_gamma                107.360(10)
_cell_volume                     973.879
loop_
_atom_site_label
_atom_site_type_symbol
_atom_site_fract_x
_atom_site_fract_y
_atom_site_fract_z
K1 K 0.2098(1) 0.9715(1) 0.4717(1)
O1 O 0.5530(2) 1.1046(1) 0.4132(1)
O2 O 0.3180(2) 0.8339(1) 0.2841(1)
N1 N 0.0564(2) 1.1546(1) 0.4164(1)
N2 N 0.1365(2) 1.2697(1) 0.4979(1)
N3 N 0.1537(2) 1.2435(1) 0.5867(1)
C1 C 0.0180(2) 1.1797(2) 0.3224(1)
C2 C 0.0119(2) 1.3080(2) 0.3169(1)
C3 C -0.0391(2) 1.3174(2) 0.2194(1)
C4 C -0.0832(2) 1.2031(2) 0.1252(1)
C5 C -0.0785(2) 1.0757(2) 0.1311(1)
C6 C -0.0288(2) 1.0644(2) 0.2276(1)
C7 C 0.2592(2) 1.3643(2) 0.6718(1)
C8 C 0.3907(2) 1.4811(2) 0.6589(1)
C9 C 0.4950(2) 1.5925(2) 0.7467(1)
C10 C 0.4737(2) 1.5953(2) 0.8503(1)
C11 C 0.3434(2) 1.4798(2) 0.8634(1)
C12 C 0.2400(2) 1.3666(2) 0.7764(1)
C13 C -0.1350(3) 1.2158(3) 0.0191(2)
C14 C 0.5905(3) 1.7199(2) 0.9444(2)
C15 C 0.5958(3) 1.2524(2) 0.4641(2)
C16 C 0.5116(2) 1.0630(2) 0.3004(1)
C17 C 0.4812(3) 0.9092(2) 0.2514(1)
C18 C 0.2706(3) 0.6865(2) 0.2341(2)
H1 H 0.0424 1.3887 0.3808
H2 H -0.0430 1.4055 0.2169
H3 H -0.1107 0.9949 0.0672
H4 H -0.0256 0.9760 0.2299
H5 H 0.4080 1.4820 0.5882
H6 H 0.5842 1.6706 0.7359
H7 H 0.3252 1.4800 0.9343
H8 H 0.1533 1.2876 0.7874
H9 H -0.1303 1.3102 0.0295
H10 H -0.2571 1.1521 -0.0116
H11 H -0.0503 1.1896 -0.0289
H12 H 0.5601 1.7064 1.0103
H13 H 0.5687 1.8028 0.9414
H14 H 0.7191 1.7314 0.9390
H15 H 0.7113 1.3003 0.4458
H16 H 0.4992 1.2812 0.4407
H17 H 0.6053 1.2747 0.5400
H18 H 0.4018 1.0820 0.2829
H19 H 0.6121 1.1147 0.2728
H20 H 0.4677 0.8812 0.1750
H21 H 0.5861 0.8887 0.2747
H22 H 0.2050 0.6570 0.1638
H23 H 0.1958 0.6408 0.2769
H24 H 0.3821 0.6619 0.2302
K1A K -0.2098(1) 1.0285(1) 0.5283(1)
O1A O -0.5530(2) 0.8954(1) 0.5868(1)
K1_2 K -0.7902(1) 0.9715(1) 0.4717(1)
O1_2 O -0.4470(2) 1.1046(1) 0.4132(1)
O2A O -0.3180(2) 1.1661(1) 0.7159(1)
C17A C -0.4812(3) 1.0908(2) 0.7486(1)
C16A C -0.5116(2) 0.9370(2) 0.6996(1)
C15A C -0.5958(3) 0.7476(2) 0.5359(2)
H15A H -0.7113 0.6997 0.5542
H16A H -0.4992 0.7188 0.5593
H17A H -0.6053 0.7253 0.4600
H18A H -0.4018 0.9180 0.7171
H19A H -0.6121 0.8853 0.7272
H20A H -0.4677 1.1188 0.8250
H21A H -0.5861 1.1113 0.7253
C18A C -0.2706(3) 1.3135(2) 0.7659(2)
H22A H -0.2050 1.3430 0.8362
H23A H -0.1958 1.3592 0.7231
H24A H -0.3821 1.3381 0.7698
N1A N -0.0564(2) 0.8454(1) 0.5836(1)
K1A_2 K 0.7902(1) 1.0285(1) 0.5283(1)
O1A_2 O 0.4470(2) 0.8954(1) 0.5868(1)
N3A N -0.1537(2) 0.7565(1) 0.4133(1)
N2A N -0.1365(2) 0.7303(1) 0.5021(1)
C1A C -0.0180(2) 0.8203(2) 0.6776(1)
C2A C -0.0119(2) 0.6920(2) 0.6831(1)
C3A C 0.0391(2) 0.6826(2) 0.7806(1)
C4A C 0.0832(2) 0.7969(2) 0.8748(1)
C5A C 0.0785(2) 0.9243(2) 0.8689(1)
C6A C 0.0288(2) 0.9356(2) 0.7724(1)
H4A H 0.0256 1.0240 0.7701
H3A H 0.1107 1.0051 0.9328
C13A C 0.1350(3) 0.7842(3) 0.9809(2)
H9A H 0.1303 0.6898 0.9705
H10A H 0.2571 0.8479 1.0116
H11A H 0.0503 0.8104 1.0289
H2A H 0.0430 0.5945 0.7831
H1A H -0.0424 0.6113 0.6192
C7A C -0.2592(2) 0.6357(2) 0.3282(1)
C8A C -0.3907(2) 0.5189(2) 0.3411(1)
C9A C -0.4950(2) 0.4075(2) 0.2533(1)
C10A C -0.4737(2) 0.4047(2) 0.1497(1)
C11A C -0.3434(2) 0.5202(2) 0.1366(1)
C12A C -0.2400(2) 0.6334(2) 0.2236(1)
H8A H -0.1533 0.7124 0.2126
H7A H -0.3252 0.5200 0.0657
C14A C -0.5905(3) 0.2801(2) 0.0556(2)
H12A H -0.5601 0.2936 -0.0103
H13A H -0.5687 0.1972 0.0586
H14A H -0.7191 0.2686 0.0610
H6A H -0.5842 0.3294 0.2641
H5A H -0.4080 0.5180 0.4118
loop_
_geom_bond_atom_site_label_1
_geom_bond_atom_site_label_2
_geom_bond_site_symmetry_1
_geom_bond_site_symmetry_2
K1 O1 1_555 1_555
O1 C15 1_555 1_555
O2 K1 1_555 1_555
N1 K1 1_555 1_555
N2 N1 1_555 1_555
N3 K1 1_555 1_555
C1 N1 1_555 1_555
C2 C1 1_555 1_555
C3 C2 1_555 1_555
C4 C3 1_555 1_555
C5 C4 1_555 1_555
C6 C1 1_555 1_555
C7 N3 1_555 1_555
C8 C7 1_555 1_555
C9 C8 1_555 1_555
C10 C9 1_555 1_555
C11 C10 1_555 1_555
C12 C7 1_555 1_555
C13 C4 1_555 1_555
C14 C10 1_555 1_555
C15 H15 1_555 1_555
C16 O1 1_555 1_555
C17 O2 1_555 1_555
C18 O2 1_555 1_555
H1 C2 1_555 1_555
H2 C3 1_555 1_555
H3 C5 1_555 1_555
H4 C6 1_555 1_555
H5 C8 1_555 1_555
H6 C9 1_555 1_555
H7 C11 1_555 1_555
H8 C12 1_555 1_555
H9 C13 1_555 1_555
H10 C13 1_555 1_555
H11 C13 1_555 1_555
H12 C14 1_555 1_555
H13 C14 1_555 1_555
H14 C14 1_555 1_555
H16 C15 1_555 1_555
H17 C15 1_555 1_555
H18 C16 1_555 1_555
H19 C16 1_555 1_555
H20 C17 1_555 1_555
H21 C17 1_555 1_555
H22 C18 1_555 1_555
H23 C18 1_555 1_555
H24 C18 1_555 1_555
K1A N1 1_555 1_555
O1A K1A 1_555 1_555
K1_2 O1A 1_555 1_555
O1_2 K1A 1_555 1_555
O2A K1A 1_555 1_555
C17A O2A 1_555 1_555
C16A O1A 1_555 1_555
C15A O1A 1_555 1_555
H15A C15A 1_555 1_555
H16A C15A 1_555 1_555
H17A C15A 1_555 1_555
H18A C16A 1_555 1_555
H19A C16A 1_555 1_555
H20A C17A 1_555 1_555
H21A C17A 1_555 1_555
C18A O2A 1_555 1_555
H22A C18A 1_555 1_555
H23A C18A 1_555 1_555
H24A C18A 1_555 1_555
N1A K1 1_555 1_555
K1A_2 O1 1_555 1_555
O1A_2 K1 1_555 1_555
N3A K1 1_555 1_555
N2A N1A 1_555 1_555
C1A N1A 1_555 1_555
C2A C1A 1_555 1_555
C3A C2A 1_555 1_555
C4A C3A 1_555 1_555
C5A C4A 1_555 1_555
C6A C1A 1_555 1_555
H4A C6A 1_555 1_555
H3A C5A 1_555 1_555
C13A C4A 1_555 1_555
H9A C13A 1_555 1_555
H10A C13A 1_555 1_555
H11A C13A 1_555 1_555
H2A C3A 1_555 1_555
H1A C2A 1_555 1_555
C7A N3A 1_555 1_555
C8A C7A 1_555 1_555
C9A C8A 1_555 1_555
C10A C9A 1_555 1_555
C11A C10A 1_555 1_555
C12A C7A 1_555 1_555
H8A C12A 1_555 1_555
H7A C11A 1_555 1_555
C14A C10A 1_555 1_555
H12A C14A 1_555 1_555
H13A C14A 1_555 1_555
H14A C14A 1_555 1_555
H6A C9A 1_555 1_555
H5A C8A 1_555 1_555
N2 N3 1_555 1_555
N3 K1A 1_555 1_555
C5 C6 1_555 1_555
C11 C12 1_555 1_555
C16 C17 1_555 1_555
K1A N1A 1_555 1_555
K1A N3A 1_555 1_555
K1_2 O1_2 1_555 1_555
C17A C16A 1_555 1_555
K1A_2 O1A_2 1_555 1_555
N3A N2A 1_555 1_555
C5A C6A 1_555 1_555
C11A C12A 1_555 1_555

#END
