
#######################################################################
#
#                 Cambridge Crystallographic Data Centre
#                                CCDC 
#
#######################################################################
#
# If this CIF has been generated from an entry in the Cambridge 
# Structural Database, then it will include bibliographic, chemical, 
# crystal, experimental, refinement or atomic coordinate data resulting 
# from the CCDC's data processing and validation procedures.
#
#######################################################################

data_HILXOP
_symmetry_cell_setting           tetragonal
_symmetry_space_group_name_H-M   'I -4 2 d'
_symmetry_Int_Tables_number      122
_space_group_name_Hall           'I -4 2bw'
loop_
_symmetry_equiv_pos_site_id
_symmetry_equiv_pos_as_xyz
1 x,y,z
2 y,-x,-z
3 x,1/2-y,1/4-z
4 -x,-y,z
5 1/2-y,-x,3/4+z
6 -y,x,-z
7 -x,1/2+y,1/4-z
8 1/2+y,x,3/4+z
9 1/2+x,1/2+y,1/2+z
10 1/2+y,1/2-x,1/2-z
11 1/2+x,-y,3/4-z
12 1/2-x,1/2-y,1/2+z
13 -y,1/2-x,1/4+z
14 1/2-y,1/2+x,1/2-z
15 1/2-x,y,3/4-z
16 y,1/2+x,1/4+z
_cell_length_a                   14.137(3)
_cell_length_b                   14.137(3)
_cell_length_c                   26.246(5)
_cell_angle_alpha                90
_cell_angle_beta                 90
_cell_angle_gamma                90
_cell_volume                     5245.39
loop_
_atom_site_label
_atom_site_type_symbol
_atom_site_fract_x
_atom_site_fract_y
_atom_site_fract_z
Ru1 Ru 0.97664(2) 0.42243(2) 0.12513(2)
Cl1 Cl 0.9179(1) 0.25000 0.1250
O1 O 1.0748(4) 0.3945(3) 0.1789(2)
O2 O 0.8798(3) 0.4533(3) 0.1791(2)
O3 O 1.0738(4) 0.3949(3) 0.0703(2)
O4 O 0.8809(4) 0.4542(3) 0.0700(2)
C1 C 1.1295(5) 0.4607(4) 0.1941(2)
C2 C 1.1246(6) 0.4622(5) 0.0533(3)
C3 C 1.2085(6) 0.4393(6) 0.2302(3)
C4 C 1.1922(8) 0.4395(6) 0.0120(4)
C5 C 1.2996(7) 0.435(1) 0.2034(4)
C6 C 1.220(1) 0.3446(7) 0.0051(5)
C7 C 1.320(1) 0.404(2) 0.1571(6)
C8 C 1.284(1) 0.319(1) -0.0374(7)
C9 C 1.4076(9) 0.393(1) 0.1310(8)
C10 C 1.344(2) 0.366(1) -0.0577(9)
H1 H 1.2112(4) 0.4944(4) 0.2592(2)
H2 H 1.1948(4) 0.3723(4) 0.2487(2)
H3 H 1.1625(6) 0.4655(5) -0.0229(3)
H4 H 1.2567(6) 0.4795(5) 0.0205(3)
H5 H 1.3222(5) 0.5082(10) 0.2018(3)
H6 H 1.3451(5) 0.3971(10) 0.2297(3)
H7 H 1.1547(7) 0.3054(5) 0.0008(4)
H8 H 1.2536(7) 0.3218(5) 0.0392(4)
H9 H 1.2779(7) 0.4416(14) 0.1335(4)
H10 H 1.2970(7) 0.3294(14) 0.1611(4)
H11 H 1.3223(10) 0.2604(8) -0.0234(5)
H12 H 1.2351(10) 0.2963(8) -0.0674(5)
H13 H 1.3932(6) 0.3592(8) 0.0951(5)
H14 H 1.4375(6) 0.4616(8) 0.1252(5)
H15 H 1.4566(6) 0.3494(8) 0.1528(5)
H16 H 1.3736(11) 0.3251(9) -0.0889(7)
H17 H 1.3056(11) 0.4272(9) -0.0769(7)
H18 H 1.3928(11) 0.3914(9) -0.0329(7)
Ru1C Ru 1.02336(2) 0.57757(2) 0.12513(2)
Cl1C Cl 1.0821(1) 0.75000 0.1250
O1C O 0.9252(4) 0.6055(3) 0.1789(2)
C1C C 0.8705(5) 0.5393(4) 0.1941(2)
C3C C 0.7915(6) 0.5607(6) 0.2302(3)
C5C C 0.7004(7) 0.565(1) 0.2034(4)
C7C C 0.680(1) 0.596(2) 0.1571(6)
C9C C 0.5924(9) 0.607(1) 0.1310(8)
H13C H 0.6068(6) 0.6408(8) 0.0951(5)
H14C H 0.5625(6) 0.5384(8) 0.1252(5)
H15C H 0.5434(6) 0.6506(8) 0.1528(5)
H9C H 0.7221(7) 0.5584(14) 0.1335(4)
H10C H 0.7030(7) 0.6706(14) 0.1611(4)
H5C H 0.6778(5) 0.4918(10) 0.2018(3)
H6C H 0.6549(5) 0.6029(10) 0.2297(3)
H1C H 0.7888(4) 0.5056(4) 0.2592(2)
H2C H 0.8052(4) 0.6277(4) 0.2487(2)
O2C O 1.1202(3) 0.5467(3) 0.1791(2)
O3C O 0.9262(4) 0.6051(3) 0.0703(2)
C2C C 0.8754(6) 0.5378(5) 0.0533(3)
C4C C 0.8078(8) 0.5605(6) 0.0120(4)
C6C C 0.780(1) 0.6554(7) 0.0051(5)
C8C C 0.716(1) 0.681(1) -0.0374(7)
C10C C 0.656(2) 0.634(1) -0.0577(9)
H16C H 0.6264(11) 0.6749(9) -0.0889(7)
H17C H 0.6944(11) 0.5728(9) -0.0769(7)
H18C H 0.6072(11) 0.6086(9) -0.0329(7)
H11C H 0.6777(10) 0.7396(8) -0.0234(5)
H12C H 0.7649(10) 0.7037(8) -0.0674(5)
H7C H 0.8453(7) 0.6946(5) 0.0008(4)
H8C H 0.7464(7) 0.6782(5) 0.0392(4)
H3C H 0.8375(6) 0.5345(5) -0.0229(3)
H4C H 0.7433(6) 0.5205(5) 0.0205(3)
O4C O 1.1191(4) 0.5458(3) 0.0700(2)
Ru1B Ru 0.97664(2) 0.07757(2) 0.12487(2)
loop_
_geom_bond_atom_site_label_1
_geom_bond_atom_site_label_2
_geom_bond_site_symmetry_1
_geom_bond_site_symmetry_2
Ru1 Cl1 1_555 1_555
Cl1 Ru1B 1_555 1_555
O1 Ru1 1_555 1_555
O2 Ru1 1_555 1_555
O3 Ru1 1_555 1_555
O4 Ru1 1_555 1_555
C1 O1 1_555 1_555
C2 O3 1_555 1_555
C3 C1 1_555 1_555
C4 C2 1_555 1_555
C5 C3 1_555 1_555
C6 C4 1_555 1_555
C7 C5 1_555 1_555
C8 C6 1_555 1_555
C9 C7 1_555 1_555
C10 C8 1_555 1_555
H1 C3 1_555 1_555
H2 C3 1_555 1_555
H3 C4 1_555 1_555
H4 C4 1_555 1_555
H5 C5 1_555 1_555
H6 C5 1_555 1_555
H7 C6 1_555 1_555
H8 C6 1_555 1_555
H9 C7 1_555 1_555
H10 C7 1_555 1_555
H11 C8 1_555 1_555
H12 C8 1_555 1_555
H13 C9 1_555 1_555
H14 C9 1_555 1_555
H15 C9 1_555 1_555
H16 C10 1_555 1_555
H17 C10 1_555 1_555
H18 C10 1_555 1_555
Ru1C Ru1 1_555 1_555
Cl1C Ru1C 1_555 1_555
O1C Ru1C 1_555 1_555
C1C O2 1_555 1_555
C3C C1C 1_555 1_555
C5C C3C 1_555 1_555
C7C C5C 1_555 1_555
C9C C7C 1_555 1_555
H13C C9C 1_555 1_555
H14C C9C 1_555 1_555
H15C C9C 1_555 1_555
H9C C7C 1_555 1_555
H10C C7C 1_555 1_555
H5C C5C 1_555 1_555
H6C C5C 1_555 1_555
H1C C3C 1_555 1_555
H2C C3C 1_555 1_555
O2C C1 1_555 1_555
O3C Ru1C 1_555 1_555
C2C O4 1_555 1_555
C4C C2C 1_555 1_555
C6C C4C 1_555 1_555
C8C C6C 1_555 1_555
C10C C8C 1_555 1_555
H16C C10C 1_555 1_555
H17C C10C 1_555 1_555
H18C C10C 1_555 1_555
H11C C8C 1_555 1_555
H12C C8C 1_555 1_555
H7C C6C 1_555 1_555
H8C C6C 1_555 1_555
H3C C4C 1_555 1_555
H4C C4C 1_555 1_555
O4C C2 1_555 1_555
Ru1C O2C 1_555 1_555
Ru1C O4C 1_555 1_555
O1C C1C 1_555 1_555
O3C C2C 1_555 1_555

#END
