
#######################################################################
#
#                 Cambridge Crystallographic Data Centre
#                                CCDC 
#
#######################################################################
#
# If this CIF has been generated from an entry in the Cambridge 
# Structural Database, then it will include bibliographic, chemical, 
# crystal, experimental, refinement or atomic coordinate data resulting 
# from the CCDC's data processing and validation procedures.
#
#######################################################################

data_HILZOT
_symmetry_cell_setting           monoclinic
_symmetry_space_group_name_H-M   'C 2/c'
_symmetry_Int_Tables_number      15
_space_group_name_Hall           '-C 2yn'
loop_
_symmetry_equiv_pos_site_id
_symmetry_equiv_pos_as_xyz
1 x,y,z
2 -x,y,1/2-z
3 1/2+x,1/2+y,z
4 1/2-x,1/2+y,1/2-z
5 -x,-y,-z
6 x,-y,1/2+z
7 1/2-x,1/2-y,-z
8 1/2+x,1/2-y,1/2+z
_cell_length_a                   24.708(10)
_cell_length_b                   15.736(7)
_cell_length_c                   19.859(8)
_cell_angle_alpha                90
_cell_angle_beta                 116.178(6)
_cell_angle_gamma                90
_cell_volume                     6929.29
loop_
_atom_site_label
_atom_site_type_symbol
_atom_site_fract_x
_atom_site_fract_y
_atom_site_fract_z
C1 C 0.4666(2) 0.9717(3) 1.0998(2)
H1 H 0.4318 0.9768 1.1065
C2 C 0.48296(17) 0.8913(2) 1.0879(2)
H2 H 0.4599 0.8446 1.0878
C3 C 0.53365(16) 0.8803(2) 1.07617(19)
C4 C 0.56582(16) 0.9536(2) 1.0783(2)
H3 H 0.6003 0.9505 1.0706
C5 C 0.54633(18) 1.0311(2) 1.0918(2)
H4 H 0.5692 1.0789 1.0938
C6 C 0.55210(15) 0.7959(2) 1.06083(19)
C7 C 0.51017(16) 0.7309(2) 1.0303(2)
H5 H 0.4699 0.7414 1.0184
C8 C 0.52678(15) 0.6514(2) 1.0171(2)
H6 H 0.4977 0.6091 0.9967
C9 C 0.58660(14) 0.6335(2) 1.03413(17)
C10 C 0.62945(14) 0.6989(2) 1.06346(18)
C11 C 0.61158(15) 0.7775(2) 1.07651(18)
H7 H 0.6404 0.8201 1.0966
C12 C 0.69534(14) 0.6846(2) 1.08387(19)
H8 H 0.7166 0.7382 1.0997
H9 H 0.7120 0.6459 1.1262
C13 C 0.68326(14) 0.6777(2) 0.95127(19)
H10 H 0.6574 0.7240 0.9334
C14 C 0.73894(15) 0.5707(2) 0.9575(2)
H11 H 0.7590 0.5288 0.9443
C15 C 0.74193(15) 0.5812(2) 1.0266(2)
H12 H 0.7639 0.5484 1.0689
C16 C 0.60352(14) 0.5450(2) 1.02319(19)
C17 C 0.63594(15) 0.4951(2) 1.0859(2)
H13 H 0.6465 0.5175 1.1335
C18 C 0.65271(15) 0.4135(2) 1.0794(2)
H14 H 0.6739 0.3811 1.1222
C19 C 0.63810(15) 0.3788(2) 1.0087(2)
C20 C 0.60695(14) 0.4293(2) 0.94620(19)
H15 H 0.5982 0.4077 0.8989
C21 C 0.58845(14) 0.5113(2) 0.95201(18)
C22 C 0.55686(13) 0.5645(2) 0.88176(18)
H16 H 0.5621 0.6241 0.8959
H17 H 0.5763 0.5548 0.8494
C23 C 0.46535(15) 0.4704(2) 0.8135(2)
H18 H 0.4838 0.4173 0.8249
C24 C 0.40683(15) 0.4864(2) 0.76864(19)
H19 H 0.3776 0.4454 0.7439
C25 C 0.44973(15) 0.6068(2) 0.80784(19)
H20 H 0.4566 0.6649 0.8155
C26 C 0.65626(15) 0.2898(2) 1.0016(2)
C27 C 0.66189(17) 0.2277(2) 1.0532(2)
H21 H 0.6546 0.2407 1.0942
C28 C 0.67836(19) 0.1460(3) 1.0442(3)
H22 H 0.6821 0.1056 1.0801
C29 C 0.68439(18) 0.1823(3) 0.9381(3)
H23 H 0.6925 0.1676 0.8980
C30 C 0.66812(16) 0.2659(2) 0.9426(2)
H24 H 0.6653 0.3053 0.9063
C31 C 0.63627(17) 0.8000(2) 0.7784(2)
C32 C 0.64128(14) 0.8940(2) 0.76876(18)
C33 C 0.60626(16) 0.9516(2) 0.7842(2)
H25 H 0.5771 0.9325 0.7983
C34 C 0.61443(18) 1.0377(2) 0.7787(2)
H26 H 0.5904 1.0765 0.7886
C35 C 0.65833(17) 1.0664(2) 0.7585(2)
H27 H 0.6644 1.1244 0.7561
C36 C 0.69302(15) 1.0091(2) 0.74208(19)
C37 C 0.68397(14) 0.9235(2) 0.74747(18)
H28 H 0.7073 0.8846 0.7365
C38 C 0.74076(16) 1.0371(3) 0.7183(2)
N1 N 0.49687(16) 1.0424(2) 1.10230(18)
N2 N 0.70176(11) 0.63135(17) 0.90963(15)
N3 N 0.70629(11) 0.64960(17) 1.02213(15)
N4 N 0.49246(11) 0.54742(16) 0.83905(14)
N5 N 0.39688(11) 0.57285(17) 0.76502(15)
N6 N 0.68915(17) 0.1221(2) 0.9872(3)
O1 O 0.60262(12) 0.77191(15) 0.80346(16)
O2 O 0.67063(11) 0.75343(14) 0.76117(15)
O3 O 0.76750(12) 0.98283(19) 0.69905(16)
O4 O 0.74997(11) 1.11634(16) 0.71885(15)
Zn1 Zn 0.678143(17) 0.63726(2) 0.79883(2)
N5A N 0.60312(11) 0.57285(17) 0.73498(15)
O4C O 0.75003(11) 0.61634(16) 0.78115(15)
Zn1A Zn 0.321857(17) 0.63726(2) 0.70117(2)
Zn1C Zn 0.821857(17) 1.13726(2) 0.70117(2)
O5 O 0.52731(14) 0.78120(16) 0.87190(18)
H29 H 0.5180 0.7942 0.8266
H30 H 0.5625 0.8014 0.8968
O8 O 0.5604(10) 0.2664(12) 0.7450(11)
H35 H 0.5596 0.2923 0.7821
H36 H 0.5277 0.2383 0.7264
O9 O 0.70067(18) 0.2955(3) 0.7720(2)
H37 H 0.6658 0.2871 0.7694
H38 H 0.7257 0.2549 0.7824
O8A O 0.4396(10) 0.2664(12) 0.7550(11)
H35A H 0.4404 0.2923 0.7179
H36A H 0.4723 0.2383 0.7736
O6? O 0.5188(9) 0.2806(8) 0.7976(10)
H31? H 0.4817 0.2801 0.7664
H32? H 0.5454 0.2730 0.7820
O7? O 0.5862(10) 0.2644(15) 0.7313(15)
H33? H 0.5883 0.2867 0.7713
H34? H 0.6045 0.2906 0.7100
loop_
_geom_bond_atom_site_label_1
_geom_bond_atom_site_label_2
_geom_bond_site_symmetry_1
_geom_bond_site_symmetry_2
C1 H1 1_555 1_555
C2 C1 1_555 1_555
H2 C2 1_555 1_555
C3 C2 1_555 1_555
C4 C3 1_555 1_555
H3 C4 1_555 1_555
C5 C4 1_555 1_555
H4 C5 1_555 1_555
C6 C3 1_555 1_555
C7 C6 1_555 1_555
H5 C7 1_555 1_555
C8 C7 1_555 1_555
H6 C8 1_555 1_555
C9 C8 1_555 1_555
C10 C9 1_555 1_555
C11 C6 1_555 1_555
H7 C11 1_555 1_555
C12 C10 1_555 1_555
H8 C12 1_555 1_555
H9 C12 1_555 1_555
C13 H10 1_555 1_555
C14 H11 1_555 1_555
C15 C14 1_555 1_555
H12 C15 1_555 1_555
C16 C9 1_555 1_555
C17 C16 1_555 1_555
H13 C17 1_555 1_555
C18 C17 1_555 1_555
H14 C18 1_555 1_555
C19 C18 1_555 1_555
C20 C19 1_555 1_555
H15 C20 1_555 1_555
C21 C16 1_555 1_555
C22 C21 1_555 1_555
H16 C22 1_555 1_555
H17 C22 1_555 1_555
C23 H18 1_555 1_555
C24 C23 1_555 1_555
H19 C24 1_555 1_555
C25 H20 1_555 1_555
C26 C19 1_555 1_555
C27 C26 1_555 1_555
H21 C27 1_555 1_555
C28 C27 1_555 1_555
H22 C28 1_555 1_555
C29 H23 1_555 1_555
C30 C26 1_555 1_555
H24 C30 1_555 1_555
C31 C32 1_555 1_555
C32 C33 1_555 1_555
C33 H25 1_555 1_555
C34 C33 1_555 1_555
H26 C34 1_555 1_555
C35 C34 1_555 1_555
H27 C35 1_555 1_555
C36 C35 1_555 1_555
C37 C32 1_555 1_555
H28 C37 1_555 1_555
C38 C36 1_555 1_555
N1 C1 1_555 1_555
N2 C13 1_555 1_555
N3 C12 1_555 1_555
N4 C22 1_555 1_555
N5 C24 1_555 1_555
N6 C28 1_555 1_555
O1 C31 1_555 1_555
O2 C31 1_555 1_555
O3 C38 1_555 1_555
O4 C38 1_555 1_555
Zn1 N2 1_555 1_555
O5 H29 1_555 1_555
H30 O5 1_555 1_555
O8 H35 1_555 1_555
H36 O8 1_555 1_555
O9 H37 1_555 1_555
H38 O9 1_555 1_555
N5A Zn1 1_555 1_555
O4C Zn1 1_555 1_555
Zn1A N5 1_555 1_555
Zn1C O4 1_555 1_555
O8A H35A 1_555 1_555
H36A O8A 1_555 1_555
C5 N1 1_555 1_555
C10 C11 1_555 1_555
C13 N3 1_555 1_555
C14 N2 1_555 1_555
C15 N3 1_555 1_555
C20 C21 1_555 1_555
C23 N4 1_555 1_555
C25 N4 1_555 1_555
C25 N5 1_555 1_555
C29 C30 1_555 1_555
C29 N6 1_555 1_555
C36 C37 1_555 1_555
O2 Zn1 1_555 1_555

#END
