
#######################################################################
#
#                 Cambridge Crystallographic Data Centre
#                                CCDC 
#
#######################################################################
#
# If this CIF has been generated from an entry in the Cambridge 
# Structural Database, then it will include bibliographic, chemical, 
# crystal, experimental, refinement or atomic coordinate data resulting 
# from the CCDC's data processing and validation procedures.
#
#######################################################################

data_HILZUZ
_symmetry_cell_setting           monoclinic
_symmetry_space_group_name_H-M   'P 21'
_symmetry_Int_Tables_number      4
_space_group_name_Hall           'P 2yb'
loop_
_symmetry_equiv_pos_site_id
_symmetry_equiv_pos_as_xyz
1 x,y,z
2 -x,1/2+y,-z
_cell_length_a                   9.336(5)
_cell_length_b                   18.183(9)
_cell_length_c                   9.816(5)
_cell_angle_alpha                90
_cell_angle_beta                 104.910(8)
_cell_angle_gamma                90
_cell_volume                     1610.23
loop_
_atom_site_label
_atom_site_type_symbol
_atom_site_fract_x
_atom_site_fract_y
_atom_site_fract_z
C1 C 0.0716(7) 0.4840(3) 0.4546(7)
H1 H -0.0063 0.4975 0.4922
C2 C 0.1667(7) 0.5377(3) 0.4332(7)
H2 H 0.1535 0.5858 0.4600
C3 C 0.2795(6) 0.5223(3) 0.3739(6)
C4 C 0.3003(6) 0.4485(3) 0.3493(6)
H3 H 0.3806 0.4338 0.3162
C5 C 0.2018(7) 0.3974(3) 0.3741(6)
H4 H 0.2167 0.3483 0.3548
C6 C 0.3640(6) 0.5815(3) 0.3287(6)
C7 C 0.2927(6) 0.6470(3) 0.2796(6)
H5 H 0.1929 0.6525 0.2766
C8 C 0.3658(7) 0.7031(3) 0.2360(6)
H6 H 0.3153 0.7465 0.2048
C9 C 0.5163(6) 0.6972(3) 0.2366(5)
C10 C 0.5881(6) 0.6329(3) 0.2852(5)
C11 C 0.5131(6) 0.5761(3) 0.3260(5)
H7 H 0.5628 0.5320 0.3531
C12 C 0.7552(5) 0.6237(3) 0.2994(5)
H8 H 0.7813 0.5720 0.3091
H9 H 0.7794 0.6422 0.2154
C13 C 0.8467(7) 0.6473(3) 0.5603(7)
H10 H 0.8041 0.6069 0.5928
C14 C 0.9290(6) 0.7019(3) 0.6394(6)
H11 H 0.9502 0.7053 0.7370
C15 C 0.9214(5) 0.7262(3) 0.4256(6)
H12 H 0.9369 0.7486 0.3454
C16 C 0.5876(6) 0.7635(3) 0.1963(6)
C17 C 0.6049(6) 0.8236(3) 0.2856(6)
H13 H 0.5749 0.8203 0.3688
C18 C 0.6658(6) 0.8881(3) 0.2532(6)
H14 H 0.6771 0.9275 0.3155
C19 C 0.7103(6) 0.8958(3) 0.1314(6)
C20 C 0.6913(5) 0.8356(3) 0.0424(5)
H15 H 0.7216 0.8393 -0.0405
C21 C 0.6296(6) 0.7707(3) 0.0710(6)
C22 C 0.6048(6) 0.7097(3) -0.0349(5)
H16 H 0.6991 0.6951 -0.0508
H17 H 0.5635 0.6676 0.0021
C23 C 0.3782(6) 0.7667(3) -0.1842(6)
H18 H 0.3413 0.7805 -0.1086
C24 C 0.3975(8) 0.7507(4) -0.3856(7)
H19 H 0.3783 0.7505 -0.4833
C25 C 0.5166(8) 0.7216(4) -0.3004(7)
H20 H 0.5941 0.6983 -0.3266
C26 C 0.7762(6) 0.9647(3) 0.0994(6)
C27 C 0.7536(6) 1.0314(3) 0.1593(7)
H21 H 0.6942 1.0337 0.2221
C28 C 0.8194(8) 1.0939(3) 0.1255(8)
H22 H 0.8027 1.1377 0.1680
C29 C 0.9265(6) 1.0333(4) -0.0176(7)
H23 H 0.9883 1.0326 -0.0783
C30 C 0.8633(6) 0.9674(3) 0.0091(6)
H24 H 0.8813 0.9246 -0.0358
C31 C -0.2065(7) 0.4039(4) 0.5887(7)
C32 C -0.2454(6) 0.4281(3) 0.7235(6)
C33 C -0.1891(6) 0.3924(3) 0.8502(7)
H25 H -0.1297 0.3511 0.8526
C34 C -0.2189(7) 0.4167(3) 0.9732(7)
C35 C -0.3104(7) 0.4764(4) 0.9686(7)
H26 H -0.3338 0.4923 1.0503
C36 C -0.3672(7) 0.5127(3) 0.8431(7)
H27 H -0.4271 0.5538 0.8406
C37 C -0.3357(7) 0.4883(3) 0.7217(7)
H28 H -0.3758 0.5126 0.6372
C38 C -0.1538(11) 0.3839(6) 1.1119(10)
Co1 Co -0.11140(8) 0.34209(5) 0.38893(7)
N1 N 0.0852(6) 0.4143(3) 0.4246(5)
N2 N 0.8405(4) 0.6645(2) 0.4244(5)
N3 N 0.9751(5) 0.7503(2) 0.5543(5)
N4 N 0.5043(5) 0.7321(2) -0.1689(5)
N5 N 0.3087(5) 0.7801(3) -0.3156(5)
N6 N 0.9035(7) 1.0963(3) 0.0382(7)
O1 O -0.2517(6) 0.4446(3) 0.4842(5)
O2 O -0.1362(4) 0.3496(3) 0.5923(5)
O3 O -0.0736(7) 0.3243(3) 1.1093(6)
O4 O -0.1798(8) 0.4049(4) 1.2165(5)
Co1_2 Co -0.11140(8) 0.34209(5) 1.38893(7)
Co1A Co 0.11140(8) 0.84209(5) -0.38893(7)
Co1A_2 Co 1.11140(8) 0.84209(5) 0.61107(7)
N3A N 0.0249(5) 0.2503(2) 0.4457(5)
N5A N -0.3087(5) 0.2801(3) 0.3156(5)
O4_2 O -0.1798(8) 0.4049(4) 0.2165(5)
H29 H -0.0199 0.1801 0.9441
H30 H 0.0117 0.2547 0.9717
O5 O 0.0383(5) 0.2157(2) 0.9363(6)
loop_
_geom_bond_atom_site_label_1
_geom_bond_atom_site_label_2
_geom_bond_site_symmetry_1
_geom_bond_site_symmetry_2
C1 H1 1_555 1_555
C2 C1 1_555 1_555
H2 C2 1_555 1_555
C3 C2 1_555 1_555
C4 C3 1_555 1_555
H3 C4 1_555 1_555
C5 C4 1_555 1_555
H4 C5 1_555 1_555
C6 C3 1_555 1_555
C7 C6 1_555 1_555
H5 C7 1_555 1_555
C8 C7 1_555 1_555
H6 C8 1_555 1_555
C9 C8 1_555 1_555
C10 C9 1_555 1_555
C11 C6 1_555 1_555
H7 C11 1_555 1_555
C12 C10 1_555 1_555
H8 C12 1_555 1_555
H9 C12 1_555 1_555
C13 H10 1_555 1_555
C14 C13 1_555 1_555
H11 C14 1_555 1_555
C15 H12 1_555 1_555
C16 C9 1_555 1_555
C17 C16 1_555 1_555
H13 C17 1_555 1_555
C18 C17 1_555 1_555
H14 C18 1_555 1_555
C19 C18 1_555 1_555
C20 C19 1_555 1_555
H15 C20 1_555 1_555
C21 C16 1_555 1_555
C22 C21 1_555 1_555
H16 C22 1_555 1_555
H17 C22 1_555 1_555
C23 H18 1_555 1_555
C24 H19 1_555 1_555
C25 C24 1_555 1_555
H20 C25 1_555 1_555
C26 C19 1_555 1_555
C27 C26 1_555 1_555
H21 C27 1_555 1_555
C28 C27 1_555 1_555
H22 C28 1_555 1_555
C29 H23 1_555 1_555
C30 C26 1_555 1_555
H24 C30 1_555 1_555
C31 C32 1_555 1_555
C32 C33 1_555 1_555
C33 H25 1_555 1_555
C34 C33 1_555 1_555
C35 C34 1_555 1_555
H26 C35 1_555 1_555
C36 C35 1_555 1_555
H27 C36 1_555 1_555
C37 C32 1_555 1_555
H28 C37 1_555 1_555
C38 C34 1_555 1_555
Co1 N1 1_555 1_555
N1 C1 1_555 1_555
N2 C12 1_555 1_555
N3 C14 1_555 1_555
N4 C22 1_555 1_555
N5 C23 1_555 1_555
N6 C28 1_555 1_555
O1 C31 1_555 1_555
O2 C31 1_555 1_555
O3 C38 1_555 1_555
O4 C38 1_555 1_555
H29 O5 1_555 1_555
H30 O5 1_555 1_555
Co1_2 O4 1_555 1_555
Co1A N5 1_555 1_555
Co1A_2 N3 1_555 1_555
N3A Co1 1_555 1_555
N5A Co1 1_555 1_555
O4_2 Co1 1_555 1_555
C5 N1 1_555 1_555
C10 C11 1_555 1_555
C13 N2 1_555 1_555
C15 N2 1_555 1_555
C15 N3 1_555 1_555
C20 C21 1_555 1_555
C23 N4 1_555 1_555
C24 N5 1_555 1_555
C25 N4 1_555 1_555
C29 C30 1_555 1_555
C29 N6 1_555 1_555
C36 C37 1_555 1_555
Co1 O2 1_555 1_555

#END
