
#######################################################################
#
#                 Cambridge Crystallographic Data Centre
#                                CCDC 
#
#######################################################################
#
# If this CIF has been generated from an entry in the Cambridge 
# Structural Database, then it will include bibliographic, chemical, 
# crystal, experimental, refinement or atomic coordinate data resulting 
# from the CCDC's data processing and validation procedures.
#
#######################################################################

data_HIMFEQ
_symmetry_cell_setting           triclinic
_symmetry_space_group_name_H-M   'P -1'
_symmetry_Int_Tables_number      2
_space_group_name_Hall           '-P 1'
loop_
_symmetry_equiv_pos_site_id
_symmetry_equiv_pos_as_xyz
1 x,y,z
2 -x,-y,-z
_cell_length_a                   7.9045(16)
_cell_length_b                   8.6569(17)
_cell_length_c                   10.927(2)
_cell_angle_alpha                67.47(3)
_cell_angle_beta                 72.15(3)
_cell_angle_gamma                87.98(3)
_cell_volume                     654.525
loop_
_atom_site_label
_atom_site_type_symbol
_atom_site_fract_x
_atom_site_fract_y
_atom_site_fract_z
Cu1 Cu 0.5000 0.5000 0.0000
Cu2 Cu 0.10568(3) 0.35650(4) 0.10621(3)
N1 N -0.0821(3) 0.2913(3) 0.2874(2)
N2 N 0.3317(3) 0.3910(3) -0.0521(2)
N3 N 0.2887(3) 0.4403(3) 0.1693(2)
N4 N -0.0423(3) 0.3251(3) -0.0006(2)
N5 N -0.1924(3) 0.2642(3) 0.0535(2)
N6 N 0.3626(3) 0.3189(3) -0.1299(2)
O1 O 0.0730(3) 0.0281(3) 0.2393(2)
N7 N -0.2737(3) 0.1346(3) 0.4889(2)
N8 N 0.2786(3) 0.4287(3) 0.2839(2)
C1 C -0.1488(3) 0.1349(3) 0.3724(2)
C2 C -0.1688(4) 0.3931(4) 0.3522(3)
H1 H -0.1493 0.5096 0.3161
C3 C -0.2866(4) 0.2974(4) 0.4764(3)
H2 H -0.3621 0.3348 0.5412
C4 C -0.0943(4) -0.0165(4) 0.3426(3)
H3 H -0.0870 -0.1076 0.4265
H4 H -0.1806 -0.0528 0.3101
N9 N -0.3397(4) 0.2122(4) 0.0993(3)
C5 C -0.3746(4) -0.0127(4) 0.6110(3)
H5 H -0.3421 -0.1129 0.5949
H6 H -0.5002 -0.0044 0.6257
H7 H -0.3475 -0.0172 0.6920
N10 N 0.3865(5) 0.2532(4) -0.2050(3)
N11 N 0.2698(5) 0.4150(5) 0.3938(3)
C6 C 0.1288(7) -0.0961(6) 0.1845(5)
H8 H 0.2440 -0.0589 0.1148
H9 H 0.0443 -0.1145 0.1433
H10 H 0.1358 -0.1990 0.2584
Cu2A Cu -0.10568(3) 0.64350(4) -0.10621(3)
N1A N 0.0821(3) 0.7087(3) -0.2874(2)
N2A N -0.3317(3) 0.6090(3) 0.0521(2)
N3A N -0.2887(3) 0.5597(3) -0.1693(2)
N4A N 0.0423(3) 0.6749(3) 0.0006(2)
N5A N 0.1924(3) 0.7358(3) -0.0535(2)
N6A N -0.3626(3) 0.6811(3) 0.1299(2)
O1A O -0.0730(3) 0.9719(3) -0.2393(2)
N7A N 0.2737(3) 0.8654(3) -0.4889(2)
N8A N -0.2786(3) 0.5713(3) -0.2839(2)
C1A C 0.1488(3) 0.8651(3) -0.3724(2)
C2A C 0.1688(4) 0.6069(4) -0.3522(3)
H1A H 0.1493 0.4904 -0.3161
C3A C 0.2866(4) 0.7026(4) -0.4764(3)
H2A H 0.3621 0.6652 -0.5412
C4A C 0.0943(4) 1.0165(4) -0.3426(3)
H3A H 0.0870 1.1076 -0.4265
H4A H 0.1806 1.0528 -0.3101
N9A N 0.3397(4) 0.7878(4) -0.0993(3)
C5A C 0.3746(4) 1.0127(4) -0.6110(3)
H5A H 0.3421 1.1129 -0.5949
H6A H 0.5002 1.0044 -0.6257
H7A H 0.3475 1.0172 -0.6920
N10A N -0.3865(5) 0.7468(4) 0.2050(3)
N11A N -0.2698(5) 0.5850(5) -0.3938(3)
C6A C -0.1288(7) 1.0961(6) -0.1845(5)
H8A H -0.2440 1.0589 -0.1148
H9A H -0.0443 1.1145 -0.1433
H10A H -0.1358 1.1990 -0.2584
Cu1_2 Cu -0.5000 0.5000 0.0000
N2A_2 N 0.6683(3) 0.6090(3) 0.0521(2)
N3A_2 N 0.7113(3) 0.5597(3) -0.1693(2)
N9_2 N 0.6603(4) 0.2122(4) 0.0993(3)
loop_
_geom_bond_atom_site_label_1
_geom_bond_atom_site_label_2
_geom_bond_site_symmetry_1
_geom_bond_site_symmetry_2
Cu1 N2 1_555 1_555
Cu2 N1 1_555 1_555
N1 C1 1_555 1_555
N2 Cu2 1_555 1_555
N3 Cu1 1_555 1_555
N4 Cu2 1_555 1_555
N5 N4 1_555 1_555
N6 N2 1_555 1_555
O1 Cu2 1_555 1_555
N7 C1 1_555 1_555
N8 N3 1_555 1_555
C1 C4 1_555 1_555
C2 N1 1_555 1_555
H1 C2 1_555 1_555
C3 N7 1_555 1_555
H2 C3 1_555 1_555
C4 O1 1_555 1_555
H3 C4 1_555 1_555
H4 C4 1_555 1_555
N9 N5 1_555 1_555
C5 N7 1_555 1_555
H5 C5 1_555 1_555
H6 C5 1_555 1_555
H7 C5 1_555 1_555
N10 N6 1_555 1_555
N11 N8 1_555 1_555
C6 O1 1_555 1_555
H8 C6 1_555 1_555
H9 C6 1_555 1_555
H10 C6 1_555 1_555
Cu2A N4 1_555 1_555
N1A Cu2A 1_555 1_555
N2A Cu2A 1_555 1_555
N3A Cu2A 1_555 1_555
N4A Cu2 1_555 1_555
N5A N4A 1_555 1_555
N6A N2A 1_555 1_555
O1A Cu2A 1_555 1_555
N7A C1A 1_555 1_555
N8A N3A 1_555 1_555
C1A N1A 1_555 1_555
C2A N1A 1_555 1_555
H1A C2A 1_555 1_555
C3A N7A 1_555 1_555
H2A C3A 1_555 1_555
C4A O1A 1_555 1_555
H3A C4A 1_555 1_555
H4A C4A 1_555 1_555
N9A Cu1 1_555 1_555
C5A N7A 1_555 1_555
H5A C5A 1_555 1_555
H6A C5A 1_555 1_555
H7A C5A 1_555 1_555
N10A N6A 1_555 1_555
N11A N8A 1_555 1_555
C6A O1A 1_555 1_555
H8A C6A 1_555 1_555
H9A C6A 1_555 1_555
H10A C6A 1_555 1_555
Cu1_2 N9 1_555 1_555
N2A_2 Cu1 1_555 1_555
N3A_2 Cu1 1_555 1_555
N9_2 Cu1 1_555 1_555
Cu2 N3 1_555 1_555
C2 C3 1_555 1_555
Cu2A N4A 1_555 1_555
N2A Cu1_2 1_555 1_555
N3A Cu1_2 1_555 1_555
N5A N9A 1_555 1_555
C1A C4A 1_555 1_555
C2A C3A 1_555 1_555

#END
