
#######################################################################
#
#                 Cambridge Crystallographic Data Centre
#                                CCDC 
#
#######################################################################
#
# If this CIF has been generated from an entry in the Cambridge 
# Structural Database, then it will include bibliographic, chemical, 
# crystal, experimental, refinement or atomic coordinate data resulting 
# from the CCDC's data processing and validation procedures.
#
#######################################################################

data_HIMFIU
_symmetry_cell_setting           monoclinic
_symmetry_space_group_name_H-M   'P 21/c'
_symmetry_Int_Tables_number      14
_space_group_name_Hall           '-P 2ybc'
loop_
_symmetry_equiv_pos_site_id
_symmetry_equiv_pos_as_xyz
1 x,y,z
2 -x,1/2+y,1/2-z
3 -x,-y,-z
4 x,1/2-y,1/2+z
_cell_length_a                   11.050(2)
_cell_length_b                   21.560(4)
_cell_length_c                   15.388(3)
_cell_angle_alpha                90
_cell_angle_beta                 98.31(3)
_cell_angle_gamma                90
_cell_volume                     3627.52
loop_
_atom_site_label
_atom_site_type_symbol
_atom_site_fract_x
_atom_site_fract_y
_atom_site_fract_z
Cu1 Cu 0.51147(5) 0.09567(2) 0.30725(3)
Cu2 Cu 0.76298(4) 0.05289(2) 0.39541(3)
Cu3 Cu 1.0000 0.0000 0.5000
Cu4 Cu 1.02022(4) 0.14117(2) 0.39101(3)
Cu5 Cu 1.27291(5) 0.08012(2) 0.43533(3)
Cu6 Cu 1.5000 0.0000 0.5000
C1 C 0.3781(5) 0.0477(2) 0.1334(3)
H1 H 0.3464 0.0120 0.1554
C2 C 0.3702(5) 0.0632(3) 0.0472(3)
H2 H 0.3328 0.0402 -0.0004
C3 C 0.4700(4) 0.1360(2) 0.1270(3)
C4 C 0.5389(5) 0.1948(2) 0.1523(3)
H3 H 0.6040 0.2004 0.1170
H4 H 0.4845 0.2303 0.1436
C5 C 0.6524(5) 0.2427(2) 0.2741(4)
H5 H 0.6845 0.2374 0.3350
H6 H 0.5979 0.2776 0.2675
H7 H 0.7184 0.2498 0.2410
C6 C 0.4500(6) 0.1511(3) -0.0369(3)
H8 H 0.4658 0.1947 -0.0246
H9 H 0.3776 0.1480 -0.0806
C7 C 0.5576(7) 0.1229(3) -0.0726(5)
H10 H 0.5704 0.1442 -0.1252
H11 H 0.5415 0.0798 -0.0855
H12 H 0.6294 0.1265 -0.0296
C8 C 0.9054(4) 0.2475(2) 0.4833(3)
H13 H 0.8790 0.2242 0.5279
C9 C 0.8949(4) 0.3097(2) 0.4744(3)
H14 H 0.8614 0.3368 0.5115
C10 C 0.9836(4) 0.27213(19) 0.3674(3)
C11 C 1.0441(5) 0.2678(2) 0.2861(3)
H15 H 0.9882 0.2811 0.2350
H16 H 1.1162 0.2939 0.2917
C12 C 1.1208(5) 0.1931(3) 0.1962(3)
H17 H 1.1334 0.2317 0.1677
H18 H 1.0619 0.1687 0.1589
H19 H 1.1968 0.1709 0.2074
C13 C 0.9613(5) 0.3888(2) 0.3688(4)
H20 H 0.8878 0.4129 0.3708
H21 H 0.9769 0.3875 0.3084
C14 C 1.0673(8) 0.4188(3) 0.4255(6)
H22 H 1.0783 0.4601 0.4048
H23 H 1.1402 0.3951 0.4227
H24 H 1.0512 0.4204 0.4851
N1 N 0.4411(3) 0.09406(17) 0.1829(2)
N2 N 0.4282(4) 0.11932(19) 0.0437(3)
N3 N 0.9614(3) 0.22417(16) 0.4160(2)
N4 N 0.9433(4) 0.32504(17) 0.3999(3)
N5 N 0.6349(3) 0.02806(17) 0.2962(2)
N6 N 0.6603(4) 0.0088(2) 0.2266(3)
N7 N 0.6823(5) -0.0103(3) 0.1621(3)
N8 N 0.6191(3) 0.10073(17) 0.4244(2)
N9 N 0.6152(3) 0.14704(18) 0.4700(2)
N10 N 0.6075(4) 0.1892(2) 0.5125(3)
N11 N 0.8904(3) 0.07465(16) 0.5015(2)
N12 N 0.8732(3) 0.10013(17) 0.5672(2)
N13 N 0.8582(5) 0.1263(2) 0.6294(3)
N14 N 0.8737(3) -0.02081(16) 0.4003(2)
N15 N 0.8632(3) -0.06760(17) 0.3558(2)
N16 N 0.8534(5) -0.1109(2) 0.3141(3)
N17 N 0.8663(3) 0.11469(17) 0.3167(2)
N18 N 0.8448(3) 0.12802(19) 0.2402(2)
N19 N 0.8204(4) 0.1402(3) 0.1671(3)
N20 N 1.1743(3) 0.14782(16) 0.4799(2)
N21 N 1.2173(3) 0.19746(17) 0.5064(2)
N22 N 1.2556(4) 0.2435(2) 0.5323(3)
N23 N 1.1067(3) 0.06209(17) 0.3691(2)
N24 N 1.0847(4) 0.03792(18) 0.2969(3)
N25 N 1.0601(5) 0.0152(3) 0.2307(3)
N26 N 1.4032(3) 0.06926(18) 0.5388(2)
N27 N 1.4184(3) 0.10012(19) 0.6053(3)
N28 N 1.4304(5) 0.1285(3) 0.6685(3)
N29 N 1.3639(3) 0.00433(18) 0.3992(3)
N30 N 1.3438(3) -0.02862(18) 0.3372(3)
N31 N 1.3250(5) -0.0596(2) 0.2765(3)
N32 N 1.3736(3) 0.1403(2) 0.3500(2)
N33 N 1.3634(3) 0.1933(2) 0.3372(3)
N34 N 1.3517(5) 0.2464(2) 0.3243(3)
O1 O 0.5878(3) 0.18854(15) 0.2425(2)
O2 O 1.0765(3) 0.20504(15) 0.2775(2)
Cu1B Cu 1.48853(5) -0.09567(2) 0.69275(3)
Cu2B Cu 1.23702(4) -0.05289(2) 0.60459(3)
Cu4B Cu 0.97978(4) -0.14117(2) 0.60899(3)
Cu5B Cu 0.72709(5) -0.08012(2) 0.56467(3)
C1B C 1.6219(5) -0.0477(2) 0.8666(3)
H1B H 1.6536 -0.0120 0.8446
C2B C 1.6298(5) -0.0632(3) 0.9528(3)
H2B H 1.6672 -0.0402 1.0004
C3B C 1.5300(4) -0.1360(2) 0.8730(3)
C4B C 1.4611(5) -0.1948(2) 0.8477(3)
H3B H 1.3960 -0.2004 0.8830
H4B H 1.5155 -0.2303 0.8564
C5B C 1.3476(5) -0.2427(2) 0.7259(4)
H5B H 1.3155 -0.2374 0.6650
H6B H 1.4021 -0.2776 0.7325
H7B H 1.2816 -0.2498 0.7590
C6B C 1.5500(6) -0.1511(3) 1.0369(3)
H8B H 1.5342 -0.1947 1.0246
H9B H 1.6224 -0.1480 1.0806
C7B C 1.4424(7) -0.1229(3) 1.0726(5)
H10B H 1.4296 -0.1442 1.1252
H11B H 1.4585 -0.0798 1.0855
H12B H 1.3706 -0.1265 1.0296
C8B C 1.0946(4) -0.2475(2) 0.5167(3)
H13B H 1.1210 -0.2242 0.4721
C9B C 1.1051(4) -0.3097(2) 0.5256(3)
H14B H 1.1386 -0.3368 0.4885
C10B C 1.0164(4) -0.27213(19) 0.6326(3)
C11B C 0.9559(5) -0.2678(2) 0.7139(3)
H15B H 1.0118 -0.2811 0.7650
H16B H 0.8838 -0.2939 0.7083
C12B C 0.8792(5) -0.1931(3) 0.8038(3)
H17B H 0.8666 -0.2317 0.8323
H18B H 0.9381 -0.1687 0.8411
H19B H 0.8032 -0.1709 0.7926
C13B C 1.0387(5) -0.3888(2) 0.6312(4)
H20B H 1.1122 -0.4129 0.6292
H21B H 1.0231 -0.3875 0.6916
C14B C 0.9327(8) -0.4188(3) 0.5745(6)
H22B H 0.9217 -0.4601 0.5952
H23B H 0.8598 -0.3951 0.5773
H24B H 0.9488 -0.4204 0.5149
N1B N 1.5589(3) -0.09406(17) 0.8171(2)
N2B N 1.5718(4) -0.11932(19) 0.9563(3)
N3B N 1.0386(3) -0.22417(16) 0.5840(2)
N4B N 1.0567(4) -0.32504(17) 0.6001(3)
N5B N 1.3651(3) -0.02806(17) 0.7038(2)
N6B N 1.3397(4) -0.0088(2) 0.7734(3)
N7B N 1.3177(5) 0.0103(3) 0.8379(3)
N8B N 1.3809(3) -0.10073(17) 0.5756(2)
N9B N 1.3848(3) -0.14704(18) 0.5300(2)
N10B N 1.3925(4) -0.1892(2) 0.4875(3)
N11B N 1.1096(3) -0.07465(16) 0.4985(2)
N12B N 1.1268(3) -0.10013(17) 0.4328(2)
N13B N 1.1418(5) -0.1263(2) 0.3706(3)
N14B N 1.1263(3) 0.02081(16) 0.5997(2)
N15B N 1.1368(3) 0.06760(17) 0.6442(2)
N16B N 1.1466(5) 0.1109(2) 0.6859(3)
N17B N 1.1337(3) -0.11469(17) 0.6833(2)
N18B N 1.1552(3) -0.12802(19) 0.7598(2)
N19B N 1.1796(4) -0.1402(3) 0.8329(3)
N20B N 0.8257(3) -0.14782(16) 0.5201(2)
N21B N 0.7827(3) -0.19746(17) 0.4936(2)
N22B N 0.7444(4) -0.2435(2) 0.4677(3)
N23B N 0.8933(3) -0.06209(17) 0.6309(2)
N24B N 0.9153(4) -0.03792(18) 0.7031(3)
N25B N 0.9399(5) -0.0152(3) 0.7693(3)
N26B N 0.5968(3) -0.06926(18) 0.4612(2)
N27B N 0.5816(3) -0.10012(19) 0.3947(3)
N28B N 0.5696(5) -0.1285(3) 0.3315(3)
N29B N 0.6361(3) -0.00433(18) 0.6008(3)
N30B N 0.6562(3) 0.02862(18) 0.6628(3)
N31B N 0.6750(5) 0.0596(2) 0.7235(3)
N32B N 0.6264(3) -0.1403(2) 0.6500(2)
N33B N 0.6366(3) -0.1933(2) 0.6628(3)
N34B N 0.6483(5) -0.2464(2) 0.6757(3)
O1B O 1.4122(3) -0.18854(15) 0.7575(2)
O2B O 0.9235(3) -0.20504(15) 0.7225(2)
Cu1_2 Cu 1.51147(5) 0.09567(2) 0.30725(3)
Cu1B_2 Cu 0.48853(5) -0.09567(2) 0.69275(3)
Cu6_2 Cu 0.5000 0.0000 0.5000
N26B_2 N 1.5968(3) -0.06926(18) 0.4612(2)
N29B_2 N 1.6361(3) -0.00433(18) 0.6008(3)
N32_2 N 0.3736(3) 0.1403(2) 0.3500(2)
N32B_2 N 1.6264(3) -0.1403(2) 0.6500(2)
loop_
_geom_bond_atom_site_label_1
_geom_bond_atom_site_label_2
_geom_bond_site_symmetry_1
_geom_bond_site_symmetry_2
Cu1 N1 1_555 1_555
Cu2 N5 1_555 1_555
Cu3 N11 1_555 1_555
Cu4 N3 1_555 1_555
Cu5 N20 1_555 1_555
Cu6 N26 1_555 1_555
C1 H1 1_555 1_555
C2 C1 1_555 1_555
H2 C2 1_555 1_555
C3 C4 1_555 1_555
C4 H3 1_555 1_555
H4 C4 1_555 1_555
C5 H5 1_555 1_555
H6 C5 1_555 1_555
H7 C5 1_555 1_555
C6 H8 1_555 1_555
H9 C6 1_555 1_555
C7 C6 1_555 1_555
H10 C7 1_555 1_555
H11 C7 1_555 1_555
H12 C7 1_555 1_555
C8 H13 1_555 1_555
C9 C8 1_555 1_555
H14 C9 1_555 1_555
C10 C11 1_555 1_555
C11 H15 1_555 1_555
H16 C11 1_555 1_555
C12 H17 1_555 1_555
H18 C12 1_555 1_555
H19 C12 1_555 1_555
C13 H20 1_555 1_555
H21 C13 1_555 1_555
C14 C13 1_555 1_555
H22 C14 1_555 1_555
H23 C14 1_555 1_555
H24 C14 1_555 1_555
N1 C1 1_555 1_555
N2 C2 1_555 1_555
N3 C8 1_555 1_555
N4 C9 1_555 1_555
N5 Cu1 1_555 1_555
N6 N5 1_555 1_555
N7 N6 1_555 1_555
N8 Cu1 1_555 1_555
N9 N8 1_555 1_555
N10 N9 1_555 1_555
N11 Cu2 1_555 1_555
N12 N11 1_555 1_555
N13 N12 1_555 1_555
N14 Cu2 1_555 1_555
N15 N14 1_555 1_555
N16 N15 1_555 1_555
N17 Cu2 1_555 1_555
N18 N17 1_555 1_555
N19 N18 1_555 1_555
N20 Cu4 1_555 1_555
N21 N20 1_555 1_555
N22 N21 1_555 1_555
N23 Cu4 1_555 1_555
N24 N23 1_555 1_555
N25 N24 1_555 1_555
N26 Cu5 1_555 1_555
N27 N26 1_555 1_555
N28 N27 1_555 1_555
N29 Cu5 1_555 1_555
N30 N29 1_555 1_555
N31 N30 1_555 1_555
N32 Cu5 1_555 1_555
N33 N32 1_555 1_555
N34 N33 1_555 1_555
O1 Cu1 1_555 1_555
O2 Cu4 1_555 1_555
Cu1B N1B 1_555 1_555
Cu2B N5B 1_555 1_555
Cu4B N3B 1_555 1_555
Cu5B N20B 1_555 1_555
C1B H1B 1_555 1_555
C2B C1B 1_555 1_555
H2B C2B 1_555 1_555
C3B C4B 1_555 1_555
C4B H3B 1_555 1_555
H4B C4B 1_555 1_555
C5B H5B 1_555 1_555
H6B C5B 1_555 1_555
H7B C5B 1_555 1_555
C6B H8B 1_555 1_555
H9B C6B 1_555 1_555
C7B C6B 1_555 1_555
H10B C7B 1_555 1_555
H11B C7B 1_555 1_555
H12B C7B 1_555 1_555
C8B H13B 1_555 1_555
C9B C8B 1_555 1_555
H14B C9B 1_555 1_555
C10B C11B 1_555 1_555
C11B H15B 1_555 1_555
H16B C11B 1_555 1_555
C12B H17B 1_555 1_555
H18B C12B 1_555 1_555
H19B C12B 1_555 1_555
C13B H20B 1_555 1_555
H21B C13B 1_555 1_555
C14B C13B 1_555 1_555
H22B C14B 1_555 1_555
H23B C14B 1_555 1_555
H24B C14B 1_555 1_555
N1B C1B 1_555 1_555
N2B C2B 1_555 1_555
N3B C8B 1_555 1_555
N4B C9B 1_555 1_555
N5B Cu1B 1_555 1_555
N6B N5B 1_555 1_555
N7B N6B 1_555 1_555
N8B Cu1B 1_555 1_555
N9B N8B 1_555 1_555
N10B N9B 1_555 1_555
N11B Cu3 1_555 1_555
N12B N11B 1_555 1_555
N13B N12B 1_555 1_555
N14B Cu3 1_555 1_555
N15B N14B 1_555 1_555
N16B N15B 1_555 1_555
N17B Cu2B 1_555 1_555
N18B N17B 1_555 1_555
N19B N18B 1_555 1_555
N20B Cu4B 1_555 1_555
N21B N20B 1_555 1_555
N22B N21B 1_555 1_555
N23B Cu4B 1_555 1_555
N24B N23B 1_555 1_555
N25B N24B 1_555 1_555
N26B Cu5B 1_555 1_555
N27B N26B 1_555 1_555
N28B N27B 1_555 1_555
N29B Cu5B 1_555 1_555
N30B N29B 1_555 1_555
N31B N30B 1_555 1_555
N32B Cu5B 1_555 1_555
N33B N32B 1_555 1_555
N34B N33B 1_555 1_555
O1B Cu1B 1_555 1_555
O2B Cu4B 1_555 1_555
Cu1_2 N32 1_555 1_555
Cu1B_2 N32B 1_555 1_555
Cu6_2 N26B 1_555 1_555
N26B_2 Cu6 1_555 1_555
N29B_2 Cu6 1_555 1_555
N32_2 Cu1 1_555 1_555
N32B_2 Cu1B 1_555 1_555
Cu2 N8 1_555 1_555
Cu3 N14 1_555 1_555
Cu4 N17 1_555 1_555
Cu5 N23 1_555 1_555
Cu6 N29 1_555 1_555
C3 N1 1_555 1_555
C3 N2 1_555 1_555
C4 O1 1_555 1_555
C5 O1 1_555 1_555
C6 N2 1_555 1_555
C10 N3 1_555 1_555
C10 N4 1_555 1_555
C11 O2 1_555 1_555
C12 O2 1_555 1_555
C13 N4 1_555 1_555
Cu2B N8B 1_555 1_555
Cu2B N11B 1_555 1_555
Cu2B N14B 1_555 1_555
Cu4B N17B 1_555 1_555
Cu5B N23B 1_555 1_555
C3B N1B 1_555 1_555
C3B N2B 1_555 1_555
C4B O1B 1_555 1_555
C5B O1B 1_555 1_555
C6B N2B 1_555 1_555
C10B N3B 1_555 1_555
C10B N4B 1_555 1_555
C11B O2B 1_555 1_555
C12B O2B 1_555 1_555
C13B N4B 1_555 1_555
N29B Cu6_2 1_555 1_555

#END
