
#######################################################################
#
#                 Cambridge Crystallographic Data Centre
#                                CCDC 
#
#######################################################################
#
# If this CIF has been generated from an entry in the Cambridge 
# Structural Database, then it will include bibliographic, chemical, 
# crystal, experimental, refinement or atomic coordinate data resulting 
# from the CCDC's data processing and validation procedures.
#
#######################################################################

data_HIMGIU
_symmetry_cell_setting           orthorhombic
_symmetry_space_group_name_H-M   'P 21 21 21'
_symmetry_Int_Tables_number      19
_space_group_name_Hall           'P 2ac 2ab'
loop_
_symmetry_equiv_pos_site_id
_symmetry_equiv_pos_as_xyz
1 x,y,z
2 1/2-x,-y,1/2+z
3 1/2+x,1/2-y,-z
4 -x,1/2+y,1/2-z
_cell_length_a                   6.617(3)
_cell_length_b                   15.313(3)
_cell_length_c                   20.110(4)
_cell_angle_alpha                90
_cell_angle_beta                 90
_cell_angle_gamma                90
_cell_volume                     2037.67
loop_
_atom_site_label
_atom_site_type_symbol
_atom_site_fract_x
_atom_site_fract_y
_atom_site_fract_z
Co1 Co 0.50727(4) 0.898934(17) 0.829671(12)
N1 N 0.5231(3) 0.93398(12) 0.93169(9)
N2 N 0.5000(3) 0.77516(11) 0.87749(8)
C1 C 0.5330(4) 1.01407(19) 0.95740(13)
H1 H 0.5420 1.0616 0.9288
C2 C 0.5303(4) 1.0290(2) 1.02629(14)
H2 H 0.5371 1.0856 1.0427
C3 C 0.5177(4) 0.9604(2) 1.06878(13)
H3 H 0.5140 0.9700 1.1144
C4 C 0.5104(4) 0.87423(17) 1.04358(10)
C5 C 0.5127(3) 0.86478(15) 0.97417(10)
C6 C 0.5049(4) 0.77970(13) 0.94525(9)
C7 C 0.5030(4) 0.70534(15) 0.98609(10)
C8 C 0.5013(4) 0.62376(16) 0.95463(13)
H4 H 0.5028 0.5728 0.9798
C9 C 0.4975(4) 0.61927(15) 0.88678(13)
H5 H 0.4967 0.5654 0.8655
C10 C 0.4949(4) 0.69643(15) 0.84970(11)
H6 H 0.4894 0.6925 0.8036
C11 C 0.5047(4) 0.79741(19) 1.08437(11)
H7 H 0.5021 0.8033 1.1304
C12 C 0.5032(4) 0.71716(18) 1.05731(11)
H8 H 0.5023 0.6684 1.0849
O1 O 0.3924(3) 0.85030(12) 0.74209(8)
O2 O 0.1806(3) 0.88111(12) 0.65953(8)
O3 O -0.3933(2) 1.01939(11) 0.80000(9)
O4 O -0.1525(3) 1.09530(12) 0.74994(12)
O5 O 0.1967(2) 0.94297(11) 0.82880(8)
H9 H 0.140(5) 0.982(2) 0.8548(16)
O6 O -0.1829(2) 0.87443(10) 0.79925(8)
H10 H -0.148(5) 0.821(2) 0.7792(16)
C13 C 0.2399(3) 0.88921(15) 0.71770(10)
C14 C 0.1243(3) 0.95264(17) 0.76257(11)
H11 H 0.1572 1.0120 0.7480
C15 C -0.1066(3) 0.94166(16) 0.75719(12)
H12 H -0.1364 0.9245 0.7113
C16 C -0.2237(3) 1.02607(15) 0.77098(11)
Co1_2 Co -0.49273(4) 0.898934(17) 0.829671(12)
O3_2 O 0.6067(2) 1.01939(11) 0.80000(9)
O6_2 O 0.8171(2) 0.87443(10) 0.79925(8)
H10_2 H 0.852(5) 0.821(2) 0.7792(16)
O7 O 0.8836(4) 0.72803(17) 0.73785(15)
H13 H 0.793(8) 0.720(3) 0.711(2)
H14 H 0.972(9) 0.695(3) 0.737(2)
O8 O 0.5206(3) 0.69493(14) 0.67160(10)
H15 H 0.468(6) 0.7410(15) 0.6879(19)
H16 H 0.459(5) 0.6515(15) 0.6824(19)
O9 O 0.9070(4) 0.23472(18) 0.91946(14)
H17 H 0.860(8) 0.273(3) 0.888(3)
H18 H 0.842(8) 0.238(3) 0.961(2)
O10 O 0.5422(4) 0.41133(16) 0.94974(13)
H19 H 0.458(7) 0.363(3) 0.955(2)
H20 H 0.622(8) 0.402(3) 0.909(2)
O11 O 0.0453(4) 0.06056(16) 0.91123(12)
H21 H -0.021(6) 0.105(2) 0.899(2)
H22 H 0.064(7) 0.066(3) 0.9522(10)
O12 O 0.3135(4) 0.25481(17) 0.94646(12)
H23 H 0.156(9) 0.250(3) 0.931(2)
H24 H 0.387(7) 0.214(3) 0.905(2)
loop_
_geom_bond_atom_site_label_1
_geom_bond_atom_site_label_2
_geom_bond_site_symmetry_1
_geom_bond_site_symmetry_2
Co1 N1 1_555 1_555
N1 C1 1_555 1_555
N2 Co1 1_555 1_555
C1 H1 1_555 1_555
C2 C1 1_555 1_555
H2 C2 1_555 1_555
C3 C2 1_555 1_555
H3 C3 1_555 1_555
C4 C3 1_555 1_555
C5 N1 1_555 1_555
C6 N2 1_555 1_555
C7 C6 1_555 1_555
C8 C7 1_555 1_555
H4 C8 1_555 1_555
C9 C8 1_555 1_555
H5 C9 1_555 1_555
C10 N2 1_555 1_555
H6 C10 1_555 1_555
C11 C4 1_555 1_555
H7 C11 1_555 1_555
C12 C7 1_555 1_555
H8 C12 1_555 1_555
O1 Co1 1_555 1_555
O2 C13 1_555 1_555
O3 C16 1_555 1_555
O4 C16 1_555 1_555
O5 Co1 1_555 1_555
H9 O5 1_555 1_555
O6 H10 1_555 1_555
C13 O1 1_555 1_555
C14 O5 1_555 1_555
H11 C14 1_555 1_555
C15 O6 1_555 1_555
H12 C15 1_555 1_555
C16 C15 1_555 1_555
O7 H13 1_555 1_555
H14 O7 1_555 1_555
O8 H15 1_555 1_555
H16 O8 1_555 1_555
O9 H17 1_555 1_555
H18 O9 1_555 1_555
O10 H19 1_555 1_555
H20 O10 1_555 1_555
O11 H21 1_555 1_555
H22 O11 1_555 1_555
O12 H23 1_555 1_555
H24 O12 1_555 1_555
Co1_2 O3 1_555 1_555
O3_2 Co1 1_555 1_555
O6_2 Co1 1_555 1_555
H10_2 O6_2 1_555 1_555
C4 C5 1_555 1_555
C5 C6 1_555 1_555
C9 C10 1_555 1_555
C11 C12 1_555 1_555
O6 Co1_2 1_555 1_555
C13 C14 1_555 1_555
C14 C15 1_555 1_555

#END
