
#######################################################################
#
#                 Cambridge Crystallographic Data Centre
#                                CCDC 
#
#######################################################################
#
# If this CIF has been generated from an entry in the Cambridge 
# Structural Database, then it will include bibliographic, chemical, 
# crystal, experimental, refinement or atomic coordinate data resulting 
# from the CCDC's data processing and validation procedures.
#
#######################################################################

data_HIMPEA
_symmetry_cell_setting           monoclinic
_symmetry_space_group_name_H-M   'P 21/n'
_symmetry_Int_Tables_number      14
_space_group_name_Hall           '-P 2yn'
loop_
_symmetry_equiv_pos_site_id
_symmetry_equiv_pos_as_xyz
1 x,y,z
2 1/2-x,1/2+y,1/2-z
3 -x,-y,-z
4 1/2+x,1/2-y,1/2+z
_cell_length_a                   13.0457(19)
_cell_length_b                   14.179(2)
_cell_length_c                   16.271(2)
_cell_angle_alpha                90
_cell_angle_beta                 112.250(2)
_cell_angle_gamma                90
_cell_volume                     2785.63
loop_
_atom_site_label
_atom_site_type_symbol
_atom_site_fract_x
_atom_site_fract_y
_atom_site_fract_z
Br1 Br 1.12581(4) 0.00158(3) 0.13798(3)
Br2 Br 1.35457(3) 0.12160(3) 0.42886(3)
C1 C 0.8040(5) 0.6990(3) 0.4604(4)
H1 H 0.7628 0.7434 0.4768
C2 C 0.7621(5) 0.6071(3) 0.4437(4)
H2 H 0.6956 0.5923 0.4493
C3 C 0.8189(4) 0.5395(3) 0.4191(3)
C4 C 0.9193(5) 0.5682(4) 0.4139(4)
H3 H 0.9633 0.5253 0.3990
C5 C 0.9514(6) 0.6606(4) 0.4312(4)
H4 H 1.0173 0.6783 0.4259
C6 C 0.7800(4) 0.4403(3) 0.4016(2)
C7 C 0.8081(4) 0.3828(3) 0.3451(3)
H5 H 0.8550 0.4055 0.3186
C8 C 0.7675(4) 0.2918(3) 0.3273(3)
H6 H 0.7860 0.2552 0.2876
C9 C 0.6998(3) 0.2538(2) 0.3674(2)
C10 C 0.6741(3) 0.3111(2) 0.4278(2)
C11 C 0.7140(3) 0.4029(2) 0.4434(2)
H7 H 0.6959 0.4404 0.4829
C12 C 0.6073(3) 0.2735(2) 0.4788(2)
H8 H 0.5733 0.3257 0.4975
H9 H 0.5486 0.2333 0.4402
C13 C 0.6791(3) 0.1257(2) 0.5680(2)
H10 H 0.6338 0.0836 0.5262
C14 C 0.7995(3) 0.1829(3) 0.6862(2)
H11 H 0.8545 0.1875 0.7427
C15 C 0.7538(3) 0.2565(3) 0.6326(3)
H12 H 0.7712 0.3199 0.6446
C16 C 0.6514(3) 0.1579(2) 0.3444(2)
C17 C 0.5403(3) 0.1499(3) 0.2885(3)
H13 H 0.4999 0.2043 0.2652
C18 C 0.4890(3) 0.0640(3) 0.2671(3)
H14 H 0.4151 0.0612 0.2288
C19 C 0.5453(3) -0.0190(2) 0.3015(2)
C20 C 0.6556(3) -0.0108(2) 0.3582(2)
H15 H 0.6944 -0.0652 0.3836
C21 C 0.7106(3) 0.0755(2) 0.3786(2)
C22 C 0.8312(3) 0.0763(3) 0.4394(2)
H16 H 0.8535 0.1407 0.4579
H17 H 0.8407 0.0397 0.4921
C23 C 0.9059(4) -0.0530(3) 0.3727(4)
H18 H 0.8626 -0.1023 0.3793
C24 C 0.9829(4) -0.0579(3) 0.3374(4)
H19 H 1.0013 -0.1123 0.3140
C25 C 0.9812(3) 0.0828(3) 0.3788(3)
H20 H 0.9989 0.1460 0.3918
C26 C 0.4919(3) -0.1119(2) 0.2795(2)
C27 C 0.5286(4) -0.1896(3) 0.3334(3)
H21 H 0.5879 -0.1835 0.3874
C28 C 0.4792(4) -0.2758(3) 0.3086(3)
H22 H 0.5083 -0.3267 0.3463
C29 C 0.3543(4) -0.2162(3) 0.1845(3)
H23 H 0.2911 -0.2235 0.1332
C30 C 0.4017(4) -0.1282(3) 0.2035(3)
H24 H 0.3718 -0.0789 0.1640
Cd1 Cd 1.18182(2) 0.051935(18) 0.302976(17)
N1 N 1.0306(2) 0.0280(2) 0.3403(2)
N2 N 0.9032(2) 0.03784(19) 0.39714(19)
N3 N 0.7533(2) 0.1009(2) 0.64546(19)
N4 N 0.6770(2) 0.21957(18) 0.55696(18)
N5 N 0.3937(3) -0.2910(2) 0.2351(2)
N6 N 0.8959(5) 0.7269(3) 0.4549(3)
Cd1A Cd 0.31818(2) -0.448065(18) 0.197024(17)
Cd1B Cd 0.81818(2) -0.051935(18) 0.697024(17)
N3B N 1.2467(2) -0.1009(2) 0.35454(19)
N5A N 1.1063(3) 0.2090(2) 0.2649(2)
loop_
_geom_bond_atom_site_label_1
_geom_bond_atom_site_label_2
_geom_bond_site_symmetry_1
_geom_bond_site_symmetry_2
Br1 Cd1 1_555 1_555
Br2 Cd1 1_555 1_555
C1 H1 1_555 1_555
C2 C1 1_555 1_555
H2 C2 1_555 1_555
C3 C2 1_555 1_555
C4 C3 1_555 1_555
H3 C4 1_555 1_555
C5 C4 1_555 1_555
H4 C5 1_555 1_555
C6 C3 1_555 1_555
C7 C6 1_555 1_555
H5 C7 1_555 1_555
C8 C7 1_555 1_555
H6 C8 1_555 1_555
C9 C8 1_555 1_555
C10 C9 1_555 1_555
C11 C6 1_555 1_555
H7 C11 1_555 1_555
C12 C10 1_555 1_555
H8 C12 1_555 1_555
H9 C12 1_555 1_555
C13 H10 1_555 1_555
C14 H11 1_555 1_555
C15 C14 1_555 1_555
H12 C15 1_555 1_555
C16 C9 1_555 1_555
C17 C16 1_555 1_555
H13 C17 1_555 1_555
C18 C17 1_555 1_555
H14 C18 1_555 1_555
C19 C18 1_555 1_555
C20 C19 1_555 1_555
H15 C20 1_555 1_555
C21 C16 1_555 1_555
C22 C21 1_555 1_555
H16 C22 1_555 1_555
H17 C22 1_555 1_555
C23 H18 1_555 1_555
C24 C23 1_555 1_555
H19 C24 1_555 1_555
C25 H20 1_555 1_555
C26 C19 1_555 1_555
C27 C26 1_555 1_555
H21 C27 1_555 1_555
C28 C27 1_555 1_555
H22 C28 1_555 1_555
C29 H23 1_555 1_555
C30 C26 1_555 1_555
H24 C30 1_555 1_555
Cd1 N1 1_555 1_555
N1 C24 1_555 1_555
N2 C22 1_555 1_555
N3 C13 1_555 1_555
N4 C12 1_555 1_555
N5 C28 1_555 1_555
N6 C1 1_555 1_555
Cd1A N5 1_555 1_555
Cd1B N3 1_555 1_555
N3B Cd1 1_555 1_555
N5A Cd1 1_555 1_555
C5 N6 1_555 1_555
C10 C11 1_555 1_555
C13 N4 1_555 1_555
C14 N3 1_555 1_555
C15 N4 1_555 1_555
C20 C21 1_555 1_555
C23 N2 1_555 1_555
C25 N1 1_555 1_555
C25 N2 1_555 1_555
C29 C30 1_555 1_555
C29 N5 1_555 1_555

#END
