
#######################################################################
#
#                 Cambridge Crystallographic Data Centre
#                                CCDC 
#
#######################################################################
#
# If this CIF has been generated from an entry in the Cambridge 
# Structural Database, then it will include bibliographic, chemical, 
# crystal, experimental, refinement or atomic coordinate data resulting 
# from the CCDC's data processing and validation procedures.
#
#######################################################################

data_HIMTEC
_symmetry_cell_setting           triclinic
_symmetry_space_group_name_H-M   'P 1'
_symmetry_Int_Tables_number      1
_space_group_name_Hall           'P 1'
loop_
_symmetry_equiv_pos_site_id
_symmetry_equiv_pos_as_xyz
1 x,y,z
_cell_length_a                   9.860(2)
_cell_length_b                   13.020(5)
_cell_length_c                   13.632(5)
_cell_angle_alpha                109.32(3)
_cell_angle_beta                 110.19(2)
_cell_angle_gamma                100.96(2)
_cell_volume                     1455.65
loop_
_atom_site_label
_atom_site_type_symbol
_atom_site_fract_x
_atom_site_fract_y
_atom_site_fract_z
Er1 Er 0.0000 0.0000 0.0000
Y1 Y 0.5097(1) 0.0433(1) -0.0060(1)
O1 O 0.0326(10) -0.1575(9) -0.1234(9)
O2 O 0.2740(11) -0.0952(10) -0.1006(9)
O3 O 0.2390(12) 0.1282(10) 0.0848(10)
O4 O 0.4818(12) 0.2048(9) 0.1237(9)
O5 O -0.1641(11) -0.1489(9) 0.0084(9)
O6 O -0.3529(11) -0.0801(10) -0.0038(9)
O7 O -0.1061(12) 0.1381(9) -0.0011(9)
O8 O -0.3252(10) 0.1744(10) -0.0262(9)
O9 O 0.0172(13) 0.0892(11) 0.1908(9)
O10 O 0.0996(14) -0.0094(10) 0.2901(9)
O11 O 0.4924(11) -0.0561(9) -0.2001(8)
O12 O 0.3073(13) -0.0190(10) -0.3193(8)
O37 O 0.1652(10) -0.0772(9) 0.1159(8)
O38 O 0.0484(11) 0.0650(10) -0.1389(10)
O39 O -0.2271(12) -0.0886(10) -0.1825(9)
O40 O 0.3463(12) 0.1177(9) -0.1164(9)
O41 O 0.4631(12) -0.0198(11) 0.1275(8)
O42 O 0.7418(11) 0.1398(10) 0.1734(9)
C1 C 0.1506(16) -0.1735(12) -0.1322(12)
C2 C 0.1489(12) -0.2959(10) -0.1854(10)
C3 C 0.1966(18) -0.3292(13) -0.2814(13)
C4 C 0.1109(25) -0.4601(18) -0.3477(17)
C5 C -0.0416(27) -0.4757(22) -0.3487(19)
C6 C 0.3683(15) 0.2052(12) 0.1432(11)
C7 C 0.3844(3) 0.3084(11) 0.2489(10)
C8 C 0.2906(23) 0.3798(18) 0.2174(18)
C9 C 0.3783(34) 0.4970(25) 0.3016(27)
C10 C 0.5403(35) 0.5082(21) 0.3364(34)
C11 C -0.2904(15) -0.1521(11) 0.0090(12)
C12 C -0.3720(16) -0.2509(14) 0.0284(15)
C13 C -0.3402(26) -0.2114(15) 0.1547(17)
C14 C -0.3383(32) -0.3178(20) 0.1736(17)
C15 C -0.2700(23) -0.3767(20) 0.1025(17)
C16 C -0.1900(15) 0.1970(14) -0.0195(12)
C17 C -0.1318(17) 0.3011(13) -0.0385(13)
C18 C -0.2497(16) 0.3410(13) -0.1029(15)
C19 C -0.2989(20) 0.2644(21) -0.2250(13)
C20 C -0.1710(18) 0.2226(18) -0.2344(13)
C21 C 0.0520(16) 0.0689(13) 0.2801(10)
C22 C 0.0356(20) 0.1495(15) 0.3822(13)
C23 C 0.1666(38) 0.2603(19) 0.4480(19)
C24 C 0.2759(36) 0.2540(30) 0.5338(39)
C25 C 0.1921(30) 0.1621(17) 0.5645(14)
C26 C 0.3933(15) -0.0650(12) -0.3021(11)
C27 C 0.3905(16) -0.1662(16) -0.4023(12)
C28 C 0.4985(22) -0.1263(24) -0.4466(15)
C29 C 0.4144(26) -0.1745(28) -0.5729(18)
C30 C 0.2509(21) -0.1997(21) -0.6025(15)
N1 N -0.0161(13) -0.3807(10) -0.2411(11)
N2 N 0.5472(13) 0.3885(11) 0.3214(12)
N3 N -0.3136(13) -0.3476(9) 0.0017(9)
N4 N -0.0489(12) 0.2724(10) -0.1100(10)
N5 N 0.0397(17) 0.0983(13) 0.4647(11)
N6 N 0.2316(17) -0.2133(15) -0.4949(15)
O6_2 O 0.6471(11) -0.0801(10) -0.0038(9)
Y1_2 Y -0.4903(1) 0.0433(1) -0.0060(1)
O8_2 O 0.6748(10) 0.1744(10) -0.0262(9)
Cl1 Cl 0.9372(6) 0.4642(5) 0.3122(4)
O13 O 0.8625(16) 0.3928(15) 0.3507(14)
O14 O 0.9664(29) 0.3848(20) 0.2261(19)
O15 O 1.0901(19) 0.5312(19) 0.3973(15)
O16 O 0.8548(35) 0.5202(34) 0.2670(36)
Cl2 Cl 0.5886(6) 0.5738(5) 0.6712(5)
O17 O 0.4748(33) 0.6123(30) 0.6851(41)
O18 O 0.5351(34) 0.4769(16) 0.5699(14)
O19 O 0.6725(25) 0.5488(21) 0.7618(15)
O20 O 0.6947(16) 0.6664(12) 0.6696(14)
Cl3 Cl 0.6671(6) 0.1548(5) 0.4439(4)
O21 O 0.6004(29) 0.2014(21) 0.3726(17)
O22 O 0.5877(19) 0.1259(17) 0.5042(13)
O23 O 0.6718(19) 0.0481(12) 0.3663(12)
O24 O 0.8250(15) 0.2212(16) 0.5239(12)
Cl4 Cl 0.1179(4) 0.6187(3) 0.0486(3)
O25 O 0.0173(13) 0.6832(10) 0.0355(14)
O26 O 0.0686(15) 0.5240(9) -0.0623(10)
O27 O 0.2670(13) 0.6944(12) 0.0875(17)
O28 O 0.1065(25) 0.5712(15) 0.1259(14)
Cl5 Cl 0.8924(4) 0.8556(4) 0.5357(3)
O29 O 0.7395(13) 0.7857(12) 0.4642(11)
O30 O 0.9692(18) 0.8019(15) 0.6037(14)
O31 O 0.9685(13) 0.8692(11) 0.4651(10)
O32 O 0.9044(19) 0.9683(12) 0.6130(12)
Cl6 Cl 0.3169(5) 0.3924(4) 0.8801(4)
O33 O 0.1615(12) 0.3372(13) 0.7927(12)
O34 O 0.3077(23) 0.3903(22) 0.9803(16)
O35 O 0.3722(17) 0.5036(12) 0.8903(16)
O36 O 0.4072(17) 0.3283(14) 0.8479(18)
loop_
_geom_bond_atom_site_label_1
_geom_bond_atom_site_label_2
_geom_bond_site_symmetry_1
_geom_bond_site_symmetry_2
Er1 O1 1_555 1_555
Y1 O2 1_555 1_555
Cl1 O13 1_555 1_555
Cl2 O17 1_555 1_555
Cl3 O21 1_555 1_555
Cl4 O25 1_555 1_555
Cl5 O29 1_555 1_555
Cl6 O33 1_555 1_555
O1 C1 1_555 1_555
O2 C1 1_555 1_555
O3 Er1 1_555 1_555
O4 Y1 1_555 1_555
O5 Er1 1_555 1_555
O6 C11 1_555 1_555
O7 Er1 1_555 1_555
O8 C16 1_555 1_555
O9 Er1 1_555 1_555
O10 C21 1_555 1_555
O11 Y1 1_555 1_555
O12 C26 1_555 1_555
O14 Cl1 1_555 1_555
O15 Cl1 1_555 1_555
O16 Cl1 1_555 1_555
O18 Cl2 1_555 1_555
O19 Cl2 1_555 1_555
O20 Cl2 1_555 1_555
O22 Cl3 1_555 1_555
O23 Cl3 1_555 1_555
O24 Cl3 1_555 1_555
O26 Cl4 1_555 1_555
O27 Cl4 1_555 1_555
O28 Cl4 1_555 1_555
O30 Cl5 1_555 1_555
O31 Cl5 1_555 1_555
O32 Cl5 1_555 1_555
O34 Cl6 1_555 1_555
O35 Cl6 1_555 1_555
O36 Cl6 1_555 1_555
O37 Er1 1_555 1_555
O38 Er1 1_555 1_555
O39 Er1 1_555 1_555
O40 Y1 1_555 1_555
O41 Y1 1_555 1_555
O42 Y1 1_555 1_555
C1 C2 1_555 1_555
C2 C3 1_555 1_555
C3 C4 1_555 1_555
C4 C5 1_555 1_555
C5 N1 1_555 1_555
C6 O3 1_555 1_555
C7 C6 1_555 1_555
C8 C7 1_555 1_555
C9 C8 1_555 1_555
C10 C9 1_555 1_555
C11 O5 1_555 1_555
C12 C11 1_555 1_555
C13 C12 1_555 1_555
C14 C13 1_555 1_555
C15 C14 1_555 1_555
C16 O7 1_555 1_555
C17 C16 1_555 1_555
C18 C17 1_555 1_555
C19 C18 1_555 1_555
C20 C19 1_555 1_555
C21 O9 1_555 1_555
C22 C21 1_555 1_555
C23 C22 1_555 1_555
C24 C23 1_555 1_555
C25 C24 1_555 1_555
C26 O11 1_555 1_555
C27 C26 1_555 1_555
C28 C27 1_555 1_555
C29 C28 1_555 1_555
C30 C29 1_555 1_555
N1 C2 1_555 1_555
N2 C7 1_555 1_555
N3 C12 1_555 1_555
N4 C17 1_555 1_555
N5 C22 1_555 1_555
N6 C27 1_555 1_555
O6_2 Y1 1_555 1_555
Y1_2 O6 1_555 1_555
O8_2 Y1 1_555 1_555
O4 C6 1_555 1_555
O8 Y1_2 1_555 1_555
C10 N2 1_555 1_555
C15 N3 1_555 1_555
C20 N4 1_555 1_555
C25 N5 1_555 1_555
C30 N6 1_555 1_555

#END
