
#######################################################################
#
#                 Cambridge Crystallographic Data Centre
#                                CCDC 
#
#######################################################################
#
# If this CIF has been generated from an entry in the Cambridge 
# Structural Database, then it will include bibliographic, chemical, 
# crystal, experimental, refinement or atomic coordinate data resulting 
# from the CCDC's data processing and validation procedures.
#
#######################################################################

data_HIMVUW
_symmetry_cell_setting           triclinic
_symmetry_space_group_name_H-M   'P -1'
_symmetry_Int_Tables_number      2
_space_group_name_Hall           '-P 1'
loop_
_symmetry_equiv_pos_site_id
_symmetry_equiv_pos_as_xyz
1 x,y,z
2 -x,-y,-z
_cell_length_a                   8.1724(9)
_cell_length_b                   8.3848(9)
_cell_length_c                   18.0690(19)
_cell_angle_alpha                87.2380(10)
_cell_angle_beta                 77.1370(10)
_cell_angle_gamma                81.4090(10)
_cell_volume                     1193.4
loop_
_atom_site_label
_atom_site_type_symbol
_atom_site_fract_x
_atom_site_fract_y
_atom_site_fract_z
Eu1 Eu 0.78656(6) 0.73122(6) 0.46962(3)
Cu1 Cu 1.3948(2) 0.35755(19) 0.02049(8)
Cu2 Cu 1.6404(2) 0.10044(19) -0.02044(8)
I1 I 1.35210(10) 0.14750(9) -0.07491(4)
I2 I 1.71181(10) 0.36027(9) 0.03942(4)
S1 S 0.6147(4) 0.6845(4) 0.30955(15)
C1 C 0.7830(14) 1.0221(13) 0.3182(6)
C2 C 0.9186(13) 0.9958(12) 0.2477(5)
C3 C 0.9079(14) 1.0897(14) 0.1831(6)
H1 H 0.8172 1.1712 0.1831
C4 C 1.0369(15) 1.0588(14) 0.1182(6)
H2 H 1.0306 1.1233 0.0753
C5 C 1.1729(15) 0.8519(14) 0.1769(6)
H3 H 1.2634 0.7696 0.1754
C6 C 1.0536(15) 0.8727(13) 0.2429(6)
H4 H 1.0627 0.8047 0.2845
C7 C 1.0703(13) 0.4149(13) 0.3701(5)
C8 C 1.1287(14) 0.3798(12) 0.2861(5)
C9 C 1.0520(14) 0.4712(13) 0.2334(6)
H5 H 0.9560 0.5462 0.2498
C10 C 1.1195(14) 0.4500(14) 0.1564(6)
H6 H 1.0663 0.5103 0.1216
C11 C 1.3254(15) 0.2516(13) 0.1822(6)
H7 H 1.4183 0.1736 0.1653
C12 C 1.2620(14) 0.2661(12) 0.2584(6)
H8 H 1.3108 0.1970 0.2919
C13 C 0.4413(16) 0.8375(16) 0.3079(7)
H9 H 0.3377 0.7980 0.3319
H10 H 0.4385 0.8680 0.2563
H11 H 0.4536 0.9296 0.3347
C14 C 0.5356(18) 0.5377(16) 0.2679(7)
H12 H 0.6254 0.4516 0.2502
H13 H 0.4902 0.5846 0.2259
H14 H 0.4476 0.4960 0.3047
H15 H 0.5773 0.5052 0.5757
H16 H 0.7762 0.3586 0.5283
H17 H 0.4258 0.8213 0.5866
H18 H 0.4435 0.8629 0.4852
C15 C 0.9167(13) 1.0546(12) 0.5189(5)
N1 N 1.1684(11) 0.9421(10) 0.1142(5)
N2 N 1.2596(12) 0.3449(11) 0.1306(5)
O1 O 0.7828(9) 0.9157(8) 0.3703(4)
O2 O 0.6755(12) 1.1446(11) 0.3234(5)
O3 O 0.9745(9) 0.5431(9) 0.3897(4)
O4 O 1.1316(11) 0.3153(9) 0.4135(4)
O5 O 0.6037(9) 0.6438(9) 0.3933(4)
O6 O 0.7000(9) 0.4683(8) 0.5252(4)
O7 O 0.4974(9) 0.8124(9) 0.5342(4)
O8 O 0.7815(8) 1.0024(8) 0.5204(4)
O9 O 0.9323(8) 1.1854(8) 0.5452(4)
C15A C 1.0833(13) 0.9454(12) 0.4811(5)
O8A O 1.2185(8) 0.9976(8) 0.4796(4)
O9A O 1.0677(8) 0.8146(8) 0.4548(4)
Eu1A Eu 1.21344(6) 0.26878(6) 0.53038(3)
Cu1A Cu 0.6052(2) 0.64245(19) 0.97951(8)
Cu2A Cu 0.3596(2) 0.89956(19) 1.02044(8)
I1A I 0.64790(10) 0.85250(9) 1.07491(4)
I2A I 0.28819(10) 0.63973(9) 0.96058(4)
S1A S 1.3853(4) 0.3155(4) 0.69045(15)
C1A C 1.2170(14) -0.0221(13) 0.6818(6)
C2A C 1.0814(13) 0.0042(12) 0.7523(5)
C3A C 1.0921(14) -0.0897(14) 0.8169(6)
H1A H 1.1828 -0.1712 0.8169
C4A C 0.9631(15) -0.0588(14) 0.8818(6)
H2A H 0.9694 -0.1233 0.9247
C5A C 0.8271(15) 0.1481(14) 0.8231(6)
H3A H 0.7366 0.2304 0.8246
C6A C 0.9464(15) 0.1273(13) 0.7571(6)
H4A H 0.9373 0.1953 0.7155
C7A C 0.9297(13) 0.5851(13) 0.6299(5)
C8A C 0.8713(14) 0.6202(12) 0.7139(5)
C9A C 0.9480(14) 0.5288(13) 0.7666(6)
H5A H 1.0440 0.4538 0.7502
C10A C 0.8805(14) 0.5500(14) 0.8436(6)
H6A H 0.9337 0.4897 0.8784
C11A C 0.6746(15) 0.7484(13) 0.8178(6)
H7A H 0.5817 0.8264 0.8347
C12A C 0.7380(14) 0.7339(12) 0.7416(6)
H8A H 0.6892 0.8030 0.7081
C13A C 1.5587(16) 0.1625(16) 0.6921(7)
H9A H 1.6623 0.2020 0.6681
H10A H 1.5615 0.1320 0.7437
H11A H 1.5464 0.0704 0.6653
C14A C 1.4644(18) 0.4623(16) 0.7321(7)
H12A H 1.3746 0.5484 0.7498
H13A H 1.5098 0.4154 0.7741
H14A H 1.5524 0.5040 0.6953
H15A H 1.4227 0.4948 0.4243
H16A H 1.2238 0.6414 0.4717
H17A H 1.5742 0.1787 0.4134
H18A H 1.5565 0.1371 0.5148
N1A N 0.8316(11) 0.0579(10) 0.8858(5)
N2A N 0.7404(12) 0.6551(11) 0.8694(5)
O1A O 1.2172(9) 0.0843(8) 0.6297(4)
O2A O 1.3245(12) -0.1446(11) 0.6766(5)
O3A O 1.0255(9) 0.4569(9) 0.6103(4)
O4A O 0.8684(11) 0.6847(9) 0.5865(4)
O5A O 1.3963(9) 0.3562(9) 0.6067(4)
O6A O 1.3000(9) 0.5317(8) 0.4748(4)
O7A O 1.5026(9) 0.1876(9) 0.4658(4)
Eu1A_2 Eu 1.21344(6) 1.26878(6) 0.53038(3)
Cu1_2 Cu 0.3948(2) 0.35755(19) 1.02049(8)
Cu1A_2 Cu 1.6052(2) 0.64245(19) -0.02049(8)
Cu2_2 Cu 0.6404(2) 0.10044(19) 0.97956(8)
Cu2_3 Cu 0.6404(2) 1.10044(19) 0.97956(8)
Cu2A_2 Cu 1.3596(2) -0.10044(19) 0.02044(8)
Cu2A_3 Cu 1.3596(2) 0.89956(19) 0.02044(8)
I1_2 I 0.35210(10) 1.14750(9) 0.92509(4)
I1A_2 I 1.64790(10) -0.14750(9) 0.07491(4)
I2_2 I 0.71181(10) 0.36027(9) 1.03942(4)
I2A_2 I 1.28819(10) 0.63973(9) -0.03942(4)
N1_2 N 0.1684(11) 0.9421(10) 1.1142(5)
N1A_2 N 1.8316(11) 0.0579(10) -0.1142(5)
O8A_2 O 1.2185(8) -0.0024(8) 0.4796(4)
O9_2 O 0.9323(8) 0.1854(8) 0.5452(4)
loop_
_geom_bond_atom_site_label_1
_geom_bond_atom_site_label_2
_geom_bond_site_symmetry_1
_geom_bond_site_symmetry_2
Eu1 O1 1_555 1_555
Cu1 Cu2 1_555 1_555
Cu2 I1 1_555 1_555
I1 Cu1 1_555 1_555
I2 Cu1 1_555 1_555
S1 C13 1_555 1_555
C1 C2 1_555 1_555
C2 C3 1_555 1_555
C3 H1 1_555 1_555
C4 C3 1_555 1_555
H2 C4 1_555 1_555
C5 H3 1_555 1_555
C6 C2 1_555 1_555
H4 C6 1_555 1_555
C7 C8 1_555 1_555
C8 C9 1_555 1_555
C9 H5 1_555 1_555
C10 C9 1_555 1_555
H6 C10 1_555 1_555
C11 H7 1_555 1_555
C12 C8 1_555 1_555
H8 C12 1_555 1_555
C13 H9 1_555 1_555
H10 C13 1_555 1_555
H11 C13 1_555 1_555
C14 S1 1_555 1_555
H12 C14 1_555 1_555
H13 C14 1_555 1_555
H14 C14 1_555 1_555
H15 O6 1_555 1_555
H16 O6 1_555 1_555
H17 O7 1_555 1_555
H18 O7 1_555 1_555
C15 O8 1_555 1_555
N1 C4 1_555 1_555
N2 Cu1 1_555 1_555
O1 C1 1_555 1_555
O2 C1 1_555 1_555
O3 Eu1 1_555 1_555
O4 C7 1_555 1_555
O5 Eu1 1_555 1_555
O6 Eu1 1_555 1_555
O7 Eu1 1_555 1_555
O8 Eu1 1_555 1_555
O9 C15 1_555 1_555
C15A C15 1_555 1_555
O8A C15A 1_555 1_555
O9A Eu1 1_555 1_555
Eu1A O4 1_555 1_555
Cu1A Cu2A 1_555 1_555
Cu2A I1A 1_555 1_555
I1A Cu1A 1_555 1_555
I2A Cu1A 1_555 1_555
S1A C13A 1_555 1_555
C1A C2A 1_555 1_555
C2A C3A 1_555 1_555
C3A H1A 1_555 1_555
C4A C3A 1_555 1_555
H2A C4A 1_555 1_555
C5A H3A 1_555 1_555
C6A C2A 1_555 1_555
H4A C6A 1_555 1_555
C7A C8A 1_555 1_555
C8A C9A 1_555 1_555
C9A H5A 1_555 1_555
C10A C9A 1_555 1_555
H6A C10A 1_555 1_555
C11A H7A 1_555 1_555
C12A C8A 1_555 1_555
H8A C12A 1_555 1_555
C13A H9A 1_555 1_555
H10A C13A 1_555 1_555
H11A C13A 1_555 1_555
C14A S1A 1_555 1_555
H12A C14A 1_555 1_555
H13A C14A 1_555 1_555
H14A C14A 1_555 1_555
H15A O6A 1_555 1_555
H16A O6A 1_555 1_555
H17A O7A 1_555 1_555
H18A O7A 1_555 1_555
N1A C4A 1_555 1_555
N2A Cu1A 1_555 1_555
O1A Eu1A 1_555 1_555
O2A C1A 1_555 1_555
O3A Eu1A 1_555 1_555
O4A Eu1 1_555 1_555
O5A Eu1A 1_555 1_555
O6A Eu1A 1_555 1_555
O7A Eu1A 1_555 1_555
Eu1A_2 O9 1_555 1_555
Cu1_2 I2A 1_555 1_555
Cu1A_2 I2 1_555 1_555
Cu2_2 N1A 1_555 1_555
Cu2_3 I1A 1_555 1_555
Cu2A_2 I1 1_555 1_555
Cu2A_3 N1 1_555 1_555
I1_2 Cu2A 1_555 1_555
I1A_2 Cu2 1_555 1_555
I2_2 Cu1A 1_555 1_555
I2A_2 Cu1 1_555 1_555
N1_2 Cu2A 1_555 1_555
N1A_2 Cu2 1_555 1_555
O8A_2 Eu1A 1_555 1_555
O9_2 Eu1A 1_555 1_555
Cu2 I2 1_555 1_555
S1 O5 1_555 1_555
C5 C6 1_555 1_555
C5 N1 1_555 1_555
C7 O3 1_555 1_555
C10 N2 1_555 1_555
C11 C12 1_555 1_555
C11 N2 1_555 1_555
C15A O9A 1_555 1_555
O8A Eu1A_2 1_555 1_555
Cu2A I2A 1_555 1_555
S1A O5A 1_555 1_555
C1A O1A 1_555 1_555
C5A C6A 1_555 1_555
C5A N1A 1_555 1_555
C7A O3A 1_555 1_555
C7A O4A 1_555 1_555
C10A N2A 1_555 1_555
C11A C12A 1_555 1_555
C11A N2A 1_555 1_555
Cu1_2 Cu2_2 1_555 1_555
Cu1_2 I2_2 1_555 1_555
Cu1A_2 Cu2A_3 1_555 1_555
Cu1A_2 I2A_2 1_555 1_555
Cu2_2 I2_2 1_555 1_555
Cu2_3 I1_2 1_555 1_555
Cu2A_2 I1A_2 1_555 1_555
Cu2A_3 I2A_2 1_555 1_555

#END
