
#######################################################################
#
#                 Cambridge Crystallographic Data Centre
#                                CCDC 
#
#######################################################################
#
# If this CIF has been generated from an entry in the Cambridge 
# Structural Database, then it will include bibliographic, chemical, 
# crystal, experimental, refinement or atomic coordinate data resulting 
# from the CCDC's data processing and validation procedures.
#
#######################################################################

data_HIMWAD
_symmetry_cell_setting           triclinic
_symmetry_space_group_name_H-M   'P -1'
_symmetry_Int_Tables_number      2
_space_group_name_Hall           '-P 1'
loop_
_symmetry_equiv_pos_site_id
_symmetry_equiv_pos_as_xyz
1 x,y,z
2 -x,-y,-z
_cell_length_a                   8.189(3)
_cell_length_b                   8.394(3)
_cell_length_c                   18.062(6)
_cell_angle_alpha                87.234(3)
_cell_angle_beta                 77.067(4)
_cell_angle_gamma                81.359(4)
_cell_volume                     1196.19
loop_
_atom_site_label
_atom_site_type_symbol
_atom_site_fract_x
_atom_site_fract_y
_atom_site_fract_z
Sm1 Sm 0.78616(8) 0.73095(8) 0.46955(4)
Cu1 Cu 1.6050(3) 0.6417(3) -0.02039(11)
Cu2 Cu 1.3594(3) 0.8998(3) 0.02033(12)
I1 I 1.64726(13) 0.85260(12) 0.07487(6)
I2 I 1.28874(13) 0.63990(12) -0.03939(6)
S1 S 0.6137(5) 0.6835(5) 0.3093(2)
C1 C 1.0709(17) 0.4137(17) 0.3698(8)
C2 C 1.1259(16) 0.3808(16) 0.2853(8)
C3 C 1.2653(18) 0.2624(17) 0.2589(8)
H1 H 1.3138 0.1939 0.2926
C4 C 1.328(2) 0.2512(18) 0.1816(9)
H2 H 1.4207 0.1739 0.1641
C5 C 1.1227(19) 0.451(2) 0.1553(9)
H3 H 1.0716 0.5133 0.1204
C6 C 1.0528(17) 0.4708(17) 0.2320(8)
H4 H 0.9560 0.5450 0.2479
C7 C 0.7811(18) 1.0222(16) 0.3187(8)
C8 C 0.9173(16) 0.9981(16) 0.2462(7)
C9 C 1.054(2) 0.8728(18) 0.2438(8)
H5 H 1.0631 0.8076 0.2862
C10 C 1.1723(19) 0.8500(18) 0.1769(8)
H6 H 1.2605 0.7653 0.1748
C11 C 1.0369(19) 1.0590(19) 0.1181(9)
H7 H 1.0282 1.1222 0.0750
C12 C 0.9101(17) 1.0906(19) 0.1843(9)
H8 H 0.8221 1.1750 0.1851
C13 C 0.537(3) 0.524(2) 0.2730(11)
H9 H 0.6004 0.4227 0.2836
H10 H 0.5490 0.5377 0.2191
H11 H 0.4195 0.5239 0.2966
C14 C 0.442(2) 0.839(2) 0.3073(11)
H12 H 0.3381 0.8019 0.3323
H13 H 0.4385 0.8674 0.2555
H14 H 0.4571 0.9316 0.3328
C15 C 1.0839(16) 0.9463(15) 0.4810(7)
N1 N 1.2619(16) 0.3454(15) 0.1297(7)
N2 N 1.1690(16) 0.9435(15) 0.1137(7)
O1 O 1.1327(15) 0.3137(13) 0.4129(6)
O2 O 0.9737(12) 0.5416(12) 0.3887(6)
O3 O 0.7812(13) 0.9157(12) 0.3705(6)
O4 O 0.6760(15) 1.1466(14) 0.3230(6)
O5 O 0.6032(13) 0.6437(13) 0.3930(6)
O6 O 0.4974(12) 0.8116(13) 0.5341(5)
O7 O 0.6967(12) 0.4686(11) 0.5269(6)
O8 O 1.0670(11) 0.8146(11) 0.4546(6)
O9 O 1.2221(10) 1.0002(10) 0.4776(5)
H15 H 0.4252 0.8716 0.5137
H16 H 0.4564 0.8176 0.5822
H17 H 0.7749 0.3633 0.5126
H18 H 0.5863 0.4819 0.5760
C15A C 0.9161(16) 1.0537(15) 0.5190(7)
O8A O 0.9330(11) 1.1854(11) 0.5454(6)
O9A O 0.7779(10) 0.9998(10) 0.5224(5)
Sm1A Sm 1.21384(8) 0.26905(8) 0.53045(4)
Cu1A Cu 0.3950(3) 0.3583(3) 1.02039(11)
Cu2A Cu 0.6406(3) 0.1002(3) 0.97967(12)
I1A I 0.35274(13) 0.14740(12) 0.92513(6)
I2A I 0.71126(13) 0.36010(12) 1.03939(6)
S1A S 1.3863(5) 0.3165(5) 0.6907(2)
C1A C 0.9291(17) 0.5863(17) 0.6302(8)
C2A C 0.8741(16) 0.6192(16) 0.7147(8)
C3A C 0.7347(18) 0.7376(17) 0.7411(8)
H1A H 0.6862 0.8061 0.7074
C4A C 0.672(2) 0.7488(18) 0.8184(9)
H2A H 0.5793 0.8261 0.8359
C5A C 0.8773(19) 0.549(2) 0.8447(9)
H3A H 0.9284 0.4867 0.8796
C6A C 0.9472(17) 0.5292(17) 0.7680(8)
H4A H 1.0440 0.4550 0.7521
C7A C 1.2189(18) -0.0222(16) 0.6813(8)
C8A C 1.0827(16) 0.0019(16) 0.7538(7)
C9A C 0.946(2) 0.1272(18) 0.7562(8)
H5A H 0.9369 0.1924 0.7138
C10A C 0.8277(19) 0.1500(18) 0.8231(8)
H6A H 0.7395 0.2347 0.8252
C11A C 0.9631(19) -0.0590(19) 0.8819(9)
H7A H 0.9718 -0.1222 0.9250
C12A C 1.0899(17) -0.0906(19) 0.8157(9)
H8A H 1.1779 -0.1750 0.8149
C13A C 1.463(3) 0.476(2) 0.7270(11)
H9A H 1.3996 0.5773 0.7164
H10A H 1.4510 0.4623 0.7809
H11A H 1.5805 0.4761 0.7034
C14A C 1.558(2) 0.161(2) 0.6927(11)
H12A H 1.6619 0.1981 0.6677
H13A H 1.5615 0.1326 0.7445
H14A H 1.5429 0.0684 0.6672
N1A N 0.7381(16) 0.6546(15) 0.8703(7)
N2A N 0.8310(16) 0.0565(15) 0.8863(7)
O1A O 0.8673(15) 0.6863(13) 0.5871(6)
O2A O 1.0263(12) 0.4584(12) 0.6113(6)
O3A O 1.2188(13) 0.0843(12) 0.6295(6)
O4A O 1.3240(15) -0.1466(14) 0.6770(6)
O5A O 1.3968(13) 0.3563(13) 0.6070(6)
O6A O 1.5026(12) 0.1884(13) 0.4659(5)
O7A O 1.3033(12) 0.5314(11) 0.4731(6)
H15A H 1.5748 0.1284 0.4863
H16A H 1.5436 0.1824 0.4178
H17A H 1.2251 0.6367 0.4874
H18A H 1.4137 0.5181 0.4240
Sm1A_2 Sm 1.21384(8) 1.26905(8) 0.53045(4)
Cu1_2 Cu 0.6050(3) 0.6417(3) 0.97961(11)
Cu1A_2 Cu 1.3950(3) 0.3583(3) 0.02039(11)
Cu2_2 Cu 0.3594(3) -0.1002(3) 1.02033(12)
Cu2A_2 Cu 1.6406(3) 1.1002(3) -0.02033(12)
I1_2 I 0.64726(13) -0.14740(12) 1.07487(6)
I1A_2 I 1.35274(13) 1.14740(12) -0.07487(6)
I2_2 I 0.28874(13) 0.63990(12) 0.96061(6)
I2A_2 I 1.71126(13) 0.36010(12) 0.03939(6)
N1_2 N 0.2619(16) 0.3454(15) 1.1297(7)
N1A_2 N 1.7381(16) 0.6546(15) -0.1297(7)
O8A_2 O 0.9330(11) 0.1854(11) 0.5454(6)
O9_2 O 1.2221(10) 0.0002(10) 0.4776(5)
loop_
_geom_bond_atom_site_label_1
_geom_bond_atom_site_label_2
_geom_bond_site_symmetry_1
_geom_bond_site_symmetry_2
Sm1 O2 1_555 1_555
Cu1 Cu2 1_555 1_555
Cu2 I1 1_555 1_555
I1 Cu1 1_555 1_555
I2 Cu1 1_555 1_555
S1 C13 1_555 1_555
C1 C2 1_555 1_555
C2 C3 1_555 1_555
C3 H1 1_555 1_555
C4 C3 1_555 1_555
H2 C4 1_555 1_555
C5 H3 1_555 1_555
C6 C2 1_555 1_555
H4 C6 1_555 1_555
C7 C8 1_555 1_555
C8 C9 1_555 1_555
C9 H5 1_555 1_555
C10 C9 1_555 1_555
H6 C10 1_555 1_555
C11 H7 1_555 1_555
C12 C8 1_555 1_555
H8 C12 1_555 1_555
C13 H9 1_555 1_555
H10 C13 1_555 1_555
H11 C13 1_555 1_555
C14 S1 1_555 1_555
H12 C14 1_555 1_555
H13 C14 1_555 1_555
H14 C14 1_555 1_555
C15 O8 1_555 1_555
N1 C4 1_555 1_555
N2 Cu2 1_555 1_555
O1 C1 1_555 1_555
O2 C1 1_555 1_555
O3 Sm1 1_555 1_555
O4 C7 1_555 1_555
O5 Sm1 1_555 1_555
O6 Sm1 1_555 1_555
O7 Sm1 1_555 1_555
O8 Sm1 1_555 1_555
O9 C15 1_555 1_555
H15 O6 1_555 1_555
H16 O6 1_555 1_555
H17 O7 1_555 1_555
H18 O7 1_555 1_555
C15A C15 1_555 1_555
O8A C15A 1_555 1_555
O9A Sm1 1_555 1_555
Sm1A O1 1_555 1_555
Cu1A Cu2A 1_555 1_555
Cu2A I1A 1_555 1_555
I1A Cu1A 1_555 1_555
I2A Cu1A 1_555 1_555
S1A C13A 1_555 1_555
C1A C2A 1_555 1_555
C2A C3A 1_555 1_555
C3A H1A 1_555 1_555
C4A C3A 1_555 1_555
H2A C4A 1_555 1_555
C5A H3A 1_555 1_555
C6A C2A 1_555 1_555
H4A C6A 1_555 1_555
C7A C8A 1_555 1_555
C8A C9A 1_555 1_555
C9A H5A 1_555 1_555
C10A C9A 1_555 1_555
H6A C10A 1_555 1_555
C11A H7A 1_555 1_555
C12A C8A 1_555 1_555
H8A C12A 1_555 1_555
C13A H9A 1_555 1_555
H10A C13A 1_555 1_555
H11A C13A 1_555 1_555
C14A S1A 1_555 1_555
H12A C14A 1_555 1_555
H13A C14A 1_555 1_555
H14A C14A 1_555 1_555
N1A C4A 1_555 1_555
N2A Cu2A 1_555 1_555
O1A Sm1 1_555 1_555
O2A Sm1A 1_555 1_555
O3A Sm1A 1_555 1_555
O4A C7A 1_555 1_555
O5A Sm1A 1_555 1_555
O6A Sm1A 1_555 1_555
O7A Sm1A 1_555 1_555
H15A O6A 1_555 1_555
H16A O6A 1_555 1_555
H17A O7A 1_555 1_555
H18A O7A 1_555 1_555
Sm1A_2 O9 1_555 1_555
Cu1_2 I2A 1_555 1_555
Cu1A_2 I2 1_555 1_555
Cu2_2 I1A 1_555 1_555
Cu2A_2 I1 1_555 1_555
I1_2 Cu2A 1_555 1_555
I1A_2 Cu2 1_555 1_555
I2_2 Cu1A 1_555 1_555
I2A_2 Cu1 1_555 1_555
N1_2 Cu1A 1_555 1_555
N1A_2 Cu1 1_555 1_555
O8A_2 Sm1A 1_555 1_555
O9_2 Sm1A 1_555 1_555
Cu2 I2 1_555 1_555
S1 O5 1_555 1_555
C5 C6 1_555 1_555
C5 N1 1_555 1_555
C7 O3 1_555 1_555
C10 N2 1_555 1_555
C11 C12 1_555 1_555
C11 N2 1_555 1_555
N1 Cu1A_2 1_555 1_555
C15A O9A 1_555 1_555
O8A Sm1A_2 1_555 1_555
Cu2A I2A 1_555 1_555
S1A O5A 1_555 1_555
C1A O1A 1_555 1_555
C1A O2A 1_555 1_555
C5A C6A 1_555 1_555
C5A N1A 1_555 1_555
C7A O3A 1_555 1_555
C10A N2A 1_555 1_555
C11A C12A 1_555 1_555
C11A N2A 1_555 1_555
N1A Cu1_2 1_555 1_555
Cu1_2 I2_2 1_555 1_555
Cu1A_2 I2A_2 1_555 1_555
Cu2_2 I1_2 1_555 1_555
Cu2A_2 I1A_2 1_555 1_555

#END
