
#######################################################################
#
#                 Cambridge Crystallographic Data Centre
#                                CCDC 
#
#######################################################################
#
# If this CIF has been generated from an entry in the Cambridge 
# Structural Database, then it will include bibliographic, chemical, 
# crystal, experimental, refinement or atomic coordinate data resulting 
# from the CCDC's data processing and validation procedures.
#
#######################################################################

data_HINBUC
_symmetry_cell_setting           tetragonal
_symmetry_space_group_name_H-M   'P 42/n m c'
_symmetry_Int_Tables_number      137
_space_group_name_Hall           '-P 4ac 2a'
loop_
_symmetry_equiv_pos_site_id
_symmetry_equiv_pos_as_xyz
1 x,y,z
2 1/2-y,x,1/2+z
3 y,1/2-x,1/2+z
4 1/2+y,1/2+x,1/2-z
5 1/2-x,1/2-y,z
6 -x,1/2+y,-z
7 1/2+x,-y,-z
8 -y,-x,1/2-z
9 -x,-y,-z
10 1/2+y,-x,1/2-z
11 -y,1/2+x,1/2-z
12 1/2-y,1/2-x,1/2+z
13 1/2+x,1/2+y,-z
14 x,1/2-y,z
15 1/2-x,y,z
16 y,x,1/2+z
_cell_length_a                   10.4583(3)
_cell_length_b                   10.4583(3)
_cell_length_c                   13.6296(8)
_cell_angle_alpha                90
_cell_angle_beta                 90
_cell_angle_gamma                90
_cell_volume                     1490.75
loop_
_atom_site_label
_atom_site_type_symbol
_atom_site_fract_x
_atom_site_fract_y
_atom_site_fract_z
Mn1 Mn 0.43282(2) 0.56718(2) 0.2500
O1 O 0.35735(12) 0.47351(13) 0.12126(9)
N1 N 0.4168(2) 0.7500 0.17067(16)
N2 N 0.4148(3) 0.7500 0.08090(19)
N3 N 0.4119(4) 0.7500 -0.0056(2)
N4 N 0.36366(15) 0.45254(16) -0.18210(11)
C1 C 0.36177(18) 0.45457(19) -0.08350(13)
H1 H 0.4392 0.4548 -0.0499
C2 C 0.2500 0.4563(2) -0.03010(17)
C3 C 0.2500 0.4520(3) -0.22745(19)
H2 H 0.2500 0.4512 -0.2957
C4 C 0.2500 0.4686(2) 0.08046(17)
Mn1N Mn 0.06718(2) 0.56718(2) 0.2500
Mn1M Mn 0.43282(2) 0.93282(2) 0.2500
Mn1O Mn 0.56718(2) 0.43282(2) -0.2500
Mn1A Mn -0.06718(2) 0.43282(2) -0.2500
Mn1O_2 Mn 0.56718(2) 0.43282(2) 0.7500
Mn1B Mn 0.56718(2) 1.06718(2) 0.7500
O1N O 0.14265(12) 0.47351(13) 0.12126(9)
O1G O 0.52649(13) 0.64265(12) 0.37874(9)
O1J O 0.52649(13) 0.85735(12) 0.37874(9)
O1I O -0.02649(13) 0.64265(12) 0.37874(9)
N1I N 0.2500 0.5832(2) 0.32933(16)
N1N N 0.0832(2) 0.7500 0.17067(16)
N2I N 0.2500 0.5852(3) 0.41910(19)
N3I N 0.2500 0.5881(4) 0.5056(2)
N4N N 0.13634(15) 0.45254(16) -0.18210(11)
N4G N 0.54746(16) 0.63634(15) 0.68210(11)
N4J N 0.54746(16) 0.86366(15) 0.68210(11)
N4O N 0.45254(16) 0.36366(15) 0.31790(11)
N4H N 0.63634(15) 0.54746(16) 0.18210(11)
N4A N 0.04746(16) 0.36366(15) 0.31790(11)
N4F N -0.13634(15) 0.54746(16) 0.18210(11)
C1N C 0.13823(18) 0.45457(19) -0.08350(13)
C1G C 0.54543(19) 0.63823(18) 0.58350(13)
C1J C 0.54543(19) 0.86177(18) 0.58350(13)
H1N H 0.0608 0.4548 -0.0499
H1G H 0.5452 0.5608 0.5499
H1J H 0.5452 0.9392 0.5499
C2J C 0.5437(2) 0.7500 0.53010(17)
C3J C 0.5480(3) 0.7500 0.72745(19)
H2J H 0.5488 0.7500 0.7957
C4J C 0.5314(2) 0.7500 0.41954(17)
O2 O 0.2500 0.7500 -1.344(3)
loop_
_geom_bond_atom_site_label_1
_geom_bond_atom_site_label_2
_geom_bond_site_symmetry_1
_geom_bond_site_symmetry_2
Mn1 O1 1_555 1_555
O1 C4 1_555 1_555
N1 Mn1 1_555 1_555
N2 N1 1_555 1_555
N3 N2 1_555 1_555
N4 C1 1_555 1_555
C1 H1 1_555 1_555
C2 C1 1_555 1_555
C3 N4 1_555 1_555
H2 C3 1_555 1_555
C4 C2 1_555 1_555
Mn1N O1N 1_555 1_555
Mn1M N1 1_555 1_555
Mn1O N4 1_555 1_555
Mn1A N4N 1_555 1_555
Mn1O_2 N4G 1_555 1_555
Mn1B N4J 1_555 1_555
O1N C4 1_555 1_555
O1G Mn1 1_555 1_555
O1J Mn1M 1_555 1_555
O1I Mn1N 1_555 1_555
N1I Mn1 1_555 1_555
N1N Mn1N 1_555 1_555
N2I N1I 1_555 1_555
N3I N2I 1_555 1_555
N4N C3 1_555 1_555
N4G C1G 1_555 1_555
N4J C1J 1_555 1_555
N4O Mn1 1_555 1_555
N4H Mn1 1_555 1_555
N4A Mn1N 1_555 1_555
N4F Mn1N 1_555 1_555
C1N C2 1_555 1_555
C1G H1G 1_555 1_555
C1J H1J 1_555 1_555
H1N C1N 1_555 1_555
C2J C1G 1_555 1_555
C3J N4G 1_555 1_555
H2J C3J 1_555 1_555
C4J O1G 1_555 1_555
Mn1N N1I 1_555 1_555
O1J C4J 1_555 1_555
N4N C1N 1_555 1_555
N4J C3J 1_555 1_555
C1J C2J 1_555 1_555
C2J C4J 1_555 1_555

#END
