
#######################################################################
#
#                 Cambridge Crystallographic Data Centre
#                                CCDC 
#
#######################################################################
#
# If this CIF has been generated from an entry in the Cambridge 
# Structural Database, then it will include bibliographic, chemical, 
# crystal, experimental, refinement or atomic coordinate data resulting 
# from the CCDC's data processing and validation procedures.
#
#######################################################################

data_HINFER
_symmetry_cell_setting           trigonal
_symmetry_space_group_name_H-M   'P -3 m 1'
_symmetry_Int_Tables_number      164
_space_group_name_Hall           '-P 3 2"'
loop_
_symmetry_equiv_pos_site_id
_symmetry_equiv_pos_as_xyz
1 x,y,z
2 -y,x-y,z
3 -x+y,-x,z
4 y,x,-z
5 -x,-x+y,-z
6 x-y,-y,-z
7 -x,-y,-z
8 y,-x+y,-z
9 x-y,x,-z
10 -y,-x,z
11 x,x-y,z
12 -x+y,y,z
_cell_length_a                   15.492(2)
_cell_length_b                   15.492(2)
_cell_length_c                   14.471(3)
_cell_angle_alpha                90
_cell_angle_beta                 90
_cell_angle_gamma                120
_cell_volume                     3007.77
loop_
_atom_site_label
_atom_site_type_symbol
_atom_site_fract_x
_atom_site_fract_y
_atom_site_fract_z
Pb1 Pb -0.137976(15) 0.137976(15) 0.54549(3)
Pb2 Pb -0.087740(16) 0.087740(16) 0.27131(3)
Pb3 Pb 0.0000 0.0000 0.0000
O1 O -0.0425(5) 0.2477(5) 0.3744(5)
O2 O -0.1113(5) 0.2916(5) 0.4859(4)
O3 O 0.1879(3) 0.3759(6) 0.3180(6)
O4 O 0.1100(3) 0.2200(6) 0.2598(5)
O5 O 0.0893(4) 0.1786(7) -0.0828(7)
O6 O 0.1574(6) 0.3149(11) -0.1651(9)
O7 O 0.0000 0.0000 0.2106(12)
C1 C -0.0567(7) 0.3935(7) 0.3529(6)
C2 C -0.0719(10) 0.4640(5) 0.3985(8)
H1 H -0.0924 0.4538 0.4599
C3 C -0.0268(11) 0.4092(8) 0.2648(7)
H2 H -0.0174 0.3616 0.2345
C4 C -0.009(2) 0.4955(12) 0.2160(13)
H3 H 0.0133 0.5067 0.1552
C5 C -0.0728(7) 0.3040(6) 0.4081(6)
C6 C 0.1790(6) 0.3579(12) 0.1585(10)
C7 C 0.1478(5) 0.2955(9) 0.0798(9)
H4 H 0.1134 0.2267 0.0878
C8 C 0.1671(6) 0.3341(12) -0.0080(10)
C9 C 0.1583(5) 0.3166(10) 0.2522(9)
C10 C 0.1356(5) 0.2712(10) -0.0917(9)
C11 C 0.2175(9) 0.4350(18) -0.0277(18)
H5 H 0.2304 0.4607 -0.0874
C12 C 0.2282(8) 0.4564(16) 0.1483(15)
H6 H 0.2492 0.4983 0.1995
C13 C 0.2483(8) 0.4966(17) 0.0555(19)
H7 H 0.2828 0.5655 0.0485
O1J O -0.0425(5) 0.7098(7) 0.3744(5)
O2J O -0.1113(5) 0.5971(7) 0.4859(4)
C1J C -0.0567(7) 0.5498(10) 0.3529(6)
C3J C -0.0268(11) 0.5640(14) 0.2648(7)
H2J H -0.0174 0.6210 0.2345
C5J C -0.0728(7) 0.6232(9) 0.4081(6)
Pb1A Pb -0.137976(15) -0.275952(21) 0.54549(3)
Pb2A Pb -0.087740(16) -0.175480(23) 0.27131(3)
O1A O -0.2477(5) -0.2902(7) 0.3744(5)
O2A O -0.2916(5) -0.4029(7) 0.4859(4)
O3A O -0.3759(6) -0.1880(7) 0.3180(6)
O4A O -0.2200(6) -0.1100(7) 0.2598(5)
O5A O -0.1786(7) -0.0893(8) -0.0828(7)
O6A O -0.3149(11) -0.1575(13) -0.1651(9)
C1A C -0.3935(7) -0.4502(10) 0.3529(6)
C2A C -0.4640(5) -0.5359(11) 0.3985(8)
H1A H -0.4538 -0.5462 0.4599
C3A C -0.4092(8) -0.4360(14) 0.2648(7)
H2A H -0.3616 -0.3790 0.2345
C4A C -0.4955(12) -0.5045(23) 0.2160(13)
H3A H -0.5067 -0.4934 0.1552
C5A C -0.3040(6) -0.3768(9) 0.4081(6)
C6A C -0.3579(12) -0.1789(13) 0.1585(10)
C7A C -0.2955(9) -0.1477(10) 0.0798(9)
H4A H -0.2267 -0.1133 0.0878
C8A C -0.3341(12) -0.1670(13) -0.0080(10)
C9A C -0.3166(10) -0.1583(11) 0.2522(9)
C10A C -0.2712(10) -0.1356(11) -0.0917(9)
C11A C -0.4350(18) -0.2175(20) -0.0277(18)
H5A H -0.4607 -0.2303 -0.0874
C12A C -0.4564(16) -0.2282(18) 0.1483(15)
H6A H -0.4983 -0.2491 0.1995
C13A C -0.4966(17) -0.2483(19) 0.0555(19)
H7A H -0.5655 -0.2827 0.0485
O1K O -0.7098(7) -0.7523(5) 0.3744(5)
O2K O -0.5971(7) -0.7084(5) 0.4859(4)
C1K C -0.5498(10) -0.6065(7) 0.3529(6)
C3K C -0.5640(14) -0.5908(8) 0.2648(7)
H2K H -0.6210 -0.6384 0.2345
C5K C -0.6232(9) -0.6960(6) 0.4081(6)
Pb1B Pb -0.724048(21) 0.137976(15) 0.54549(3)
Pb2B Pb -0.824520(23) 0.087740(16) 0.27131(3)
O1B O -0.7098(7) 0.0425(5) 0.3744(5)
O2B O -0.5971(7) 0.1113(5) 0.4859(4)
O3B O -0.8120(7) -0.1879(3) 0.3180(6)
O4B O -0.8900(7) -0.1100(3) 0.2598(5)
O5B O -0.9107(8) -0.0893(4) -0.0828(7)
O6B O -0.8425(13) -0.1574(6) -0.1651(9)
C1B C -0.5498(10) 0.0567(7) 0.3529(6)
C2B C -0.4641(11) 0.0719(10) 0.3985(8)
H1B H -0.4538 0.0924 0.4599
C3B C -0.5640(14) 0.0268(11) 0.2648(7)
H2B H -0.6210 0.0174 0.2345
C4B C -0.4955(23) 0.009(2) 0.2160(13)
H3B H -0.5066 -0.0133 0.1552
C5B C -0.6232(9) 0.0728(7) 0.4081(6)
C6B C -0.8211(13) -0.1790(6) 0.1585(10)
C7B C -0.8523(10) -0.1478(5) 0.0798(9)
H4B H -0.8867 -0.1134 0.0878
C8B C -0.8330(13) -0.1671(6) -0.0080(10)
C9B C -0.8417(11) -0.1583(5) 0.2522(9)
C10B C -0.8644(11) -0.1356(5) -0.0917(9)
C11B C -0.7825(20) -0.2175(9) -0.0277(18)
H5B H -0.7697 -0.2304 -0.0874
C12B C -0.7718(18) -0.2282(8) 0.1483(15)
H6B H -0.7509 -0.2492 0.1995
C13B C -0.7517(19) -0.2483(8) 0.0555(19)
H7B H -0.7173 -0.2828 0.0485
O1I O -0.2477(5) 0.0425(5) 0.3744(5)
O2I O -0.2916(5) 0.1113(5) 0.4859(4)
C1I C -0.3935(7) 0.0567(7) 0.3529(6)
C3I C -0.4092(8) 0.0268(11) 0.2648(7)
H2I H -0.3616 0.0174 0.2345
C5I C -0.3040(6) 0.0728(7) 0.4081(6)
Pb1C Pb 0.137976(15) -0.137976(15) -0.54549(3)
Pb2C Pb 0.087740(16) -0.087740(16) -0.27131(3)
O1F O 0.0425(5) -0.2477(5) -0.3744(5)
O2F O 0.1113(5) -0.2916(5) -0.4859(4)
O3E O -0.1880(7) -0.3759(6) -0.3180(6)
O4E O -0.1100(7) -0.2200(6) -0.2598(5)
O5E O -0.0893(8) -0.1786(7) 0.0828(7)
O6E O -0.1575(13) -0.3149(11) 0.1651(9)
O7C O 0.0000 0.0000 -0.2106(12)
C1F C 0.0567(7) -0.3935(7) -0.3529(6)
C2D C 0.0719(10) -0.4641(11) -0.3985(8)
H1D H 0.0924 -0.4538 -0.4599
C3F C 0.0268(11) -0.4092(8) -0.2648(7)
H2F H 0.0174 -0.3616 -0.2345
C4D C 0.009(2) -0.4955(23) -0.2160(13)
H3D H -0.0133 -0.5066 -0.1552
C5F C 0.0728(7) -0.3040(6) -0.4081(6)
C6E C -0.1789(13) -0.3579(12) -0.1585(10)
C7E C -0.1477(10) -0.2955(9) -0.0798(9)
H4E H -0.1133 -0.2267 -0.0878
C8E C -0.1670(13) -0.3341(12) 0.0080(10)
C9E C -0.1583(11) -0.3166(10) -0.2522(9)
C10E C -0.1356(11) -0.2712(10) 0.0917(9)
C11E C -0.2175(20) -0.4350(18) 0.0277(18)
H5E H -0.2303 -0.4607 0.0874
C12E C -0.2282(18) -0.4564(16) -0.1483(15)
H6E H -0.2491 -0.4983 -0.1995
C13E C -0.2483(19) -0.4966(17) -0.0555(19)
H7E H -0.2827 -0.5655 -0.0485
O1D O 0.0425(5) -0.7098(7) -0.3744(5)
O2D O 0.1113(5) -0.5971(7) -0.4859(4)
C1D C 0.0567(7) -0.5498(10) -0.3529(6)
C3D C 0.0268(11) -0.5640(14) -0.2648(7)
H2D H 0.0174 -0.6210 -0.2345
C5D C 0.0728(7) -0.6232(9) -0.4081(6)
Pb1D Pb -0.862024(15) 0.275952(21) -0.54549(3)
Pb2D Pb -0.912260(16) 0.175480(23) -0.27131(3)
O1G O -0.7523(5) 0.2902(7) -0.3744(5)
O2G O -0.7084(5) 0.4029(7) -0.4859(4)
O3C O -0.6241(6) 0.1879(3) -0.3180(6)
O4C O -0.7800(6) 0.1100(3) -0.2598(5)
O5C O -0.8214(7) 0.0893(4) 0.0828(7)
O6C O -0.6851(11) 0.1574(6) 0.1651(9)
C1G C -0.6065(7) 0.4502(10) -0.3529(6)
C2E C -0.5359(11) 0.5360(5) -0.3985(8)
H1E H -0.5462 0.5462 -0.4599
C3G C -0.5908(8) 0.4360(14) -0.2648(7)
H2G H -0.6384 0.3790 -0.2345
C4E C -0.5045(23) 0.5045(12) -0.2160(13)
H3E H -0.4934 0.4933 -0.1552
C5G C -0.6960(6) 0.3768(9) -0.4081(6)
C6C C -0.6421(12) 0.1790(6) -0.1585(10)
C7C C -0.7045(9) 0.1478(5) -0.0798(9)
H4C H -0.7733 0.1134 -0.0878
C8C C -0.6659(12) 0.1671(6) 0.0080(10)
C9C C -0.6834(10) 0.1583(5) -0.2522(9)
C10C C -0.7288(10) 0.1356(5) 0.0917(9)
C11C C -0.5650(18) 0.2175(9) 0.0277(18)
H5C H -0.5393 0.2304 0.0874
C12C C -0.5436(16) 0.2282(8) -0.1483(15)
H6C H -0.5017 0.2492 -0.1995
C13C C -0.5034(17) 0.2483(8) -0.0555(19)
H7C H -0.4345 0.2828 -0.0485
O1E O -0.2902(7) 0.7523(5) -0.3744(5)
O2E O -0.4029(7) 0.7084(5) -0.4859(4)
C1E C -0.4502(10) 0.6065(7) -0.3529(6)
C3E C -0.4360(14) 0.5908(8) -0.2648(7)
H2E H -0.3790 0.6384 -0.2345
C5E C -0.3768(9) 0.6960(6) -0.4081(6)
Pb1E Pb -0.275952(21) -0.137976(15) -0.54549(3)
Pb2E Pb -0.175480(23) -0.087740(16) -0.27131(3)
O1H O -0.2902(7) -0.0425(5) -0.3744(5)
O2H O -0.4029(7) -0.1113(5) -0.4859(4)
O3D O -0.1879(3) 0.1880(7) -0.3180(6)
O4D O -0.1100(3) 0.1100(7) -0.2598(5)
O5D O -0.0893(4) 0.0893(8) 0.0828(7)
O6D O -0.1574(6) 0.1575(13) 0.1651(9)
C1H C -0.4502(10) -0.0567(7) -0.3529(6)
C2C C -0.5360(5) -0.0719(10) -0.3985(8)
H1C H -0.5462 -0.0924 -0.4599
C3H C -0.4360(14) -0.0268(11) -0.2648(7)
H2H H -0.3790 -0.0174 -0.2345
C4C C -0.5045(12) -0.009(2) -0.2160(13)
H3C H -0.4933 0.0133 -0.1552
C5H C -0.3768(9) -0.0728(7) -0.4081(6)
C6D C -0.1790(6) 0.1789(13) -0.1585(10)
C7D C -0.1478(5) 0.1477(10) -0.0798(9)
H4D H -0.1134 0.1133 -0.0878
C8D C -0.1671(6) 0.1670(13) 0.0080(10)
C9D C -0.1583(5) 0.1583(11) -0.2522(9)
C10D C -0.1356(5) 0.1356(11) 0.0917(9)
C11D C -0.2175(9) 0.2175(20) 0.0277(18)
H5D H -0.2304 0.2303 0.0874
C12D C -0.2282(8) 0.2282(18) -0.1483(15)
H6D H -0.2492 0.2491 -0.1995
C13D C -0.2483(8) 0.2483(19) -0.0555(19)
H7D H -0.2828 0.2827 -0.0485
O1C O -0.7523(5) -0.0425(5) -0.3744(5)
O2C O -0.7084(5) -0.1113(5) -0.4859(4)
C1C C -0.6065(7) -0.0567(7) -0.3529(6)
C3C C -0.5908(8) -0.0268(11) -0.2648(7)
H2C H -0.6384 -0.0174 -0.2345
C5C C -0.6960(6) -0.0728(7) -0.4081(6)
Pb1_2 Pb -0.137976(15) -0.862024(15) -0.45451(3)
Pb1_3 Pb -0.137976(15) 0.137976(15) -0.45451(3)
Pb1A_2 Pb -0.137976(15) -0.275952(21) -0.45451(3)
Pb1A_3 Pb -0.137976(15) 0.724048(21) -0.45451(3)
Pb1A_4 Pb -0.137976(15) 0.724048(21) 0.54549(3)
Pb1B_2 Pb -0.724048(21) -0.862024(15) 0.54549(3)
Pb1B_3 Pb -0.724048(21) 0.137976(15) -0.45451(3)
Pb1C_2 Pb -0.862024(15) -0.137976(15) -0.54549(3)
Pb1C_3 Pb -0.862024(15) -0.137976(15) 0.45451(3)
Pb1C_4 Pb 0.137976(15) 0.862024(15) 0.45451(3)
Pb1D_2 Pb -0.862024(15) -0.724048(21) 0.45451(3)
Pb1D_3 Pb 0.137976(15) -0.724048(21) -0.54549(3)
Pb1D_4 Pb 0.137976(15) 0.275952(21) 0.45451(3)
Pb1E_2 Pb -0.275952(21) -0.137976(15) 0.45451(3)
Pb1E_3 Pb -0.275952(21) 0.862024(15) -0.54549(3)
Pb2A_2 Pb -1.087740(16) -0.175480(23) 0.27131(3)
Pb2A_3 Pb -0.087740(16) 0.824520(23) 0.27131(3)
Pb2B_2 Pb -0.824520(23) -0.912260(16) 0.27131(3)
Pb2B_3 Pb 0.175480(23) 0.087740(16) 0.27131(3)
Pb2C_2 Pb -0.912260(16) -0.087740(16) -0.27131(3)
Pb2D_2 Pb 0.087740(16) -0.824520(23) -0.27131(3)
Pb2D_3 Pb 0.087740(16) 0.175480(23) -0.27131(3)
Pb2E_2 Pb -0.175480(23) 0.912260(16) -0.27131(3)
Pb3_2 Pb -1.0000 0.0000 0.0000
O1_2 O -1.0425(5) 0.2477(5) -0.6256(5)
O1A_2 O -0.2477(5) -0.2902(7) -0.6256(5)
O1B_2 O 0.2902(7) 0.0425(5) -0.6256(5)
O1C_2 O -0.7523(5) -0.0425(5) 0.6256(5)
O1C_3 O 0.2477(5) -0.0425(5) -0.3744(5)
O1D_2 O -0.9575(5) 0.2902(7) -0.3744(5)
O1D_3 O 0.0425(5) 0.2902(7) 0.6256(5)
O1E_2 O -0.2902(7) -0.2477(5) -0.3744(5)
O1E_3 O -0.2902(7) -0.2477(5) 0.6256(5)
O1F_2 O 0.0425(5) -0.2477(5) 0.6256(5)
O1G_2 O -0.7523(5) 0.2902(7) 0.6256(5)
O1H_2 O -0.2902(7) -0.0425(5) 0.6256(5)
O1I_2 O -0.2477(5) 0.0425(5) -0.6256(5)
O1J_2 O -0.0425(5) -0.2902(7) -0.6256(5)
O1J_3 O -0.0425(5) -0.2902(7) 0.3744(5)
O1K_2 O -0.7098(7) 0.2477(5) -0.6256(5)
O1K_3 O -0.7098(7) 0.2477(5) 0.3744(5)
O2C_2 O 0.2916(5) -0.1113(5) -0.4859(4)
O2D_2 O -0.8887(5) 0.4029(7) -0.4859(4)
O2E_2 O -0.4029(7) -0.2916(5) -0.4859(4)
O2J_2 O -0.1113(5) -0.4029(7) 0.4859(4)
O2K_2 O -0.5971(7) 0.2916(5) 0.4859(4)
O3_2 O -0.8121(3) 0.3759(6) -0.6820(6)
O3A_2 O -0.3759(6) -0.1880(7) -0.6820(6)
O3B_2 O 0.1880(7) -0.1879(3) -0.6820(6)
O3C_2 O -0.6241(6) 0.1879(3) 0.6820(6)
O3D_2 O -0.1879(3) 0.1880(7) 0.6820(6)
O3E_2 O -0.1880(7) -0.3759(6) 0.6820(6)
O4_2 O -0.8900(3) 0.2200(6) -0.7402(5)
O4_3 O -0.8900(3) 0.2200(6) 0.2598(5)
O4A_2 O -0.2200(6) -0.1100(7) -0.7402(5)
O4B_2 O 0.1100(7) -0.1100(3) -0.7402(5)
O4B_3 O 0.1100(7) -0.1100(3) 0.2598(5)
O4C_2 O -0.7800(6) 0.1100(3) 0.7402(5)
O4C_3 O 0.2200(6) 0.1100(3) -0.2598(5)
O4D_2 O -1.1100(3) 0.1100(7) -0.2598(5)
O4D_3 O -0.1100(3) 0.1100(7) 0.7402(5)
O4E_2 O -0.1100(7) -0.2200(6) 0.7402(5)
O5_2 O -0.9107(4) 0.1786(7) -0.0828(7)
O5B_2 O 0.0893(8) -0.0893(4) -0.0828(7)
O5C_2 O 0.1786(7) 0.0893(4) 0.0828(7)
O6_2 O -0.8426(6) 0.3149(11) -0.1651(9)
O6B_2 O 0.1575(13) -0.1574(6) -0.1651(9)
O7_2 O -1.0000 0.0000 0.2106(12)
O7C_2 O -1.0000 0.0000 -0.2106(12)
Na1 Na 0.0000 0.0000 0.5000
loop_
_geom_bond_atom_site_label_1
_geom_bond_atom_site_label_2
_geom_bond_site_symmetry_1
_geom_bond_site_symmetry_2
Pb1 O2 1_555 1_555
Pb2 O1 1_555 1_555
Pb3 O5 1_555 1_555
O1 C5 1_555 1_555
O2 C5 1_555 1_555
O3 C9 1_555 1_555
O4 Pb2 1_555 1_555
O5 C10 1_555 1_555
O6 C10 1_555 1_555
O7 Pb2 1_555 1_555
C1 C2 1_555 1_555
C2 H1 1_555 1_555
C3 C1 1_555 1_555
H2 C3 1_555 1_555
C4 C3 1_555 1_555
H3 C4 1_555 1_555
C5 C1 1_555 1_555
C6 C7 1_555 1_555
C7 H4 1_555 1_555
C8 C7 1_555 1_555
C9 O4 1_555 1_555
C10 C8 1_555 1_555
C11 C8 1_555 1_555
H5 C11 1_555 1_555
C12 C6 1_555 1_555
H6 C12 1_555 1_555
C13 C11 1_555 1_555
H7 C13 1_555 1_555
O1J C5J 1_555 1_555
O2J C5J 1_555 1_555
C1J C2 1_555 1_555
C3J C4 1_555 1_555
H2J C3J 1_555 1_555
C5J C1J 1_555 1_555
Pb1A O2A 1_555 1_555
Pb2A O7 1_555 1_555
O1A Pb2A 1_555 1_555
O2A C5A 1_555 1_555
O3A C9A 1_555 1_555
O4A Pb2 1_555 1_555
O5A Pb3 1_555 1_555
O6A C10A 1_555 1_555
C1A C2A 1_555 1_555
C2A H1A 1_555 1_555
C3A C1A 1_555 1_555
H2A C3A 1_555 1_555
C4A C3A 1_555 1_555
H3A C4A 1_555 1_555
C5A O1A 1_555 1_555
C6A C7A 1_555 1_555
C7A H4A 1_555 1_555
C8A C7A 1_555 1_555
C9A O4A 1_555 1_555
C10A O5A 1_555 1_555
C11A C8A 1_555 1_555
H5A C11A 1_555 1_555
C12A C6A 1_555 1_555
H6A C12A 1_555 1_555
C13A C11A 1_555 1_555
H7A C13A 1_555 1_555
O1K C5K 1_555 1_555
O2K C5K 1_555 1_555
C1K C2A 1_555 1_555
C3K C4A 1_555 1_555
H2K C3K 1_555 1_555
C5K C1K 1_555 1_555
Pb1B O2B 1_555 1_555
Pb2B O1B 1_555 1_555
O1B C5B 1_555 1_555
O2B C5B 1_555 1_555
O3B C9B 1_555 1_555
O4B Pb2B 1_555 1_555
O5B C10B 1_555 1_555
O6B C10B 1_555 1_555
C1B C2B 1_555 1_555
C2B H1B 1_555 1_555
C3B C1B 1_555 1_555
H2B C3B 1_555 1_555
C4B C3B 1_555 1_555
H3B C4B 1_555 1_555
C5B C1B 1_555 1_555
C6B C7B 1_555 1_555
C7B H4B 1_555 1_555
C8B C7B 1_555 1_555
C9B O4B 1_555 1_555
C10B C8B 1_555 1_555
C11B C8B 1_555 1_555
H5B C11B 1_555 1_555
C12B C6B 1_555 1_555
H6B C12B 1_555 1_555
C13B C11B 1_555 1_555
H7B C13B 1_555 1_555
O1I Pb2 1_555 1_555
O2I Pb1 1_555 1_555
C1I C2B 1_555 1_555
C3I C4B 1_555 1_555
H2I C3I 1_555 1_555
C5I O1I 1_555 1_555
Pb1C O2F 1_555 1_555
Pb2C O1F 1_555 1_555
O1F C5F 1_555 1_555
O2F C5F 1_555 1_555
O3E C9E 1_555 1_555
O4E Pb2C 1_555 1_555
O5E Pb3 1_555 1_555
O6E Pb2A 1_555 1_555
O7C Pb2C 1_555 1_555
C1F C2D 1_555 1_555
C2D H1D 1_555 1_555
C3F C1F 1_555 1_555
H2F C3F 1_555 1_555
C4D C3F 1_555 1_555
H3D C4D 1_555 1_555
C5F C1F 1_555 1_555
C6E C7E 1_555 1_555
C7E H4E 1_555 1_555
C8E C7E 1_555 1_555
C9E O4E 1_555 1_555
C10E O5E 1_555 1_555
C11E C8E 1_555 1_555
H5E C11E 1_555 1_555
C12E C6E 1_555 1_555
H6E C12E 1_555 1_555
C13E C11E 1_555 1_555
H7E C13E 1_555 1_555
O1D C5D 1_555 1_555
O2D C5D 1_555 1_555
C1D C2D 1_555 1_555
C3D C4D 1_555 1_555
H2D C3D 1_555 1_555
C5D C1D 1_555 1_555
Pb1D O2G 1_555 1_555
Pb2D O1G 1_555 1_555
O1G C5G 1_555 1_555
O2G C5G 1_555 1_555
O3C C9C 1_555 1_555
O4C Pb2D 1_555 1_555
O5C Pb2B 1_555 1_555
O6C Pb2B 1_555 1_555
C1G C2E 1_555 1_555
C2E H1E 1_555 1_555
C3G C1G 1_555 1_555
H2G C3G 1_555 1_555
C4E C3G 1_555 1_555
H3E C4E 1_555 1_555
C5G C1G 1_555 1_555
C6C C7C 1_555 1_555
C7C H4C 1_555 1_555
C8C C7C 1_555 1_555
C9C O4C 1_555 1_555
C10C O5C 1_555 1_555
C11C C8C 1_555 1_555
H5C C11C 1_555 1_555
C12C C6C 1_555 1_555
H6C C12C 1_555 1_555
C13C C11C 1_555 1_555
H7C C13C 1_555 1_555
O1E C5E 1_555 1_555
O2E C5E 1_555 1_555
C1E C2E 1_555 1_555
C3E C4E 1_555 1_555
H2E C3E 1_555 1_555
C5E C1E 1_555 1_555
Pb1E O2H 1_555 1_555
Pb2E O5A 1_555 1_555
O1H Pb2E 1_555 1_555
O2H C5H 1_555 1_555
O3D C9D 1_555 1_555
O4D Pb2E 1_555 1_555
O5D Pb2 1_555 1_555
O6D Pb2 1_555 1_555
C1H C2C 1_555 1_555
C2C H1C 1_555 1_555
C3H C1H 1_555 1_555
H2H C3H 1_555 1_555
C4C C3H 1_555 1_555
H3C C4C 1_555 1_555
C5H O1H 1_555 1_555
C6D C7D 1_555 1_555
C7D H4D 1_555 1_555
C8D C7D 1_555 1_555
C9D O4D 1_555 1_555
C10D O5D 1_555 1_555
C11D C8D 1_555 1_555
H5D C11D 1_555 1_555
C12D C6D 1_555 1_555
H6D C12D 1_555 1_555
C13D C11D 1_555 1_555
H7D C13D 1_555 1_555
O1C C5C 1_555 1_555
O2C C5C 1_555 1_555
C1C C2C 1_555 1_555
C3C C4C 1_555 1_555
H2C C3C 1_555 1_555
C5C C1C 1_555 1_555
Pb1_2 O1D 1_555 1_555
Pb1_3 O1H 1_555 1_555
Pb1A_2 O1F 1_555 1_555
Pb1A_3 O1E 1_555 1_555
Pb1A_4 O2J 1_555 1_555
Pb1B_2 O2K 1_555 1_555
Pb1B_3 O1G 1_555 1_555
Pb1C_2 O2C 1_555 1_555
Pb1C_3 O1B 1_555 1_555
Pb1C_4 O1J 1_555 1_555
Pb1D_2 O1K 1_555 1_555
Pb1D_3 O2D 1_555 1_555
Pb1D_4 O1 1_555 1_555
Pb1E_2 O1A 1_555 1_555
Pb1E_3 O2E 1_555 1_555
Pb2A_2 O4B 1_555 1_555
Pb2A_3 O1J 1_555 1_555
Pb2B_2 O1K 1_555 1_555
Pb2B_3 O4 1_555 1_555
Pb2C_2 O5B 1_555 1_555
Pb2D_2 O1D 1_555 1_555
Pb2D_3 O5 1_555 1_555
Pb2E_2 O1E 1_555 1_555
Pb3_2 O5B 1_555 1_555
O1_2 Pb1D 1_555 1_555
O1A_2 Pb1E 1_555 1_555
O1B_2 Pb1C 1_555 1_555
O1C_2 Pb1B 1_555 1_555
O1C_3 Pb2C 1_555 1_555
O1D_2 Pb2D 1_555 1_555
O1D_3 Pb1 1_555 1_555
O1E_2 Pb2E 1_555 1_555
O1E_3 Pb1A 1_555 1_555
O1F_2 Pb1A 1_555 1_555
O1G_2 Pb1B 1_555 1_555
O1H_2 Pb1 1_555 1_555
O1I_2 Pb1E 1_555 1_555
O1J_2 Pb1C 1_555 1_555
O1J_3 Pb2A 1_555 1_555
O1K_2 Pb1D 1_555 1_555
O1K_3 Pb2B 1_555 1_555
O2C_2 Pb1C 1_555 1_555
O2D_2 Pb1D 1_555 1_555
O2E_2 Pb1E 1_555 1_555
O2J_2 Pb1A 1_555 1_555
O2K_2 Pb1B 1_555 1_555
O3_2 Pb1D 1_555 1_555
O3A_2 Pb1E 1_555 1_555
O3B_2 Pb1C 1_555 1_555
O3C_2 Pb1B 1_555 1_555
O3D_2 Pb1 1_555 1_555
O3E_2 Pb1A 1_555 1_555
O4_2 Pb1D 1_555 1_555
O4_3 Pb2B 1_555 1_555
O4A_2 Pb1E 1_555 1_555
O4B_2 Pb1C 1_555 1_555
O4B_3 Pb2A 1_555 1_555
O4C_2 Pb1B 1_555 1_555
O4C_3 Pb2C 1_555 1_555
O4D_2 Pb2D 1_555 1_555
O4D_3 Pb1 1_555 1_555
O4E_2 Pb1A 1_555 1_555
O5_2 Pb2D 1_555 1_555
O5B_2 Pb3 1_555 1_555
O5C_2 Pb3 1_555 1_555
O6_2 Pb2D 1_555 1_555
O6B_2 Pb2C 1_555 1_555
O7_2 Pb2B 1_555 1_555
O7C_2 Pb2D 1_555 1_555
Pb3 O5D 1_555 1_555
O3 Pb1D_4 1_555 1_555
O4 Pb1D_4 1_555 1_555
O6 Pb2D_3 1_555 1_555
O7 Pb2B_3 1_555 1_555
C6 C9 1_555 1_555
C12 C13 1_555 1_555
C1J C3J 1_555 1_555
Pb2A O4A 1_555 1_555
Pb2A O5E 1_555 1_555
O3A Pb1E_2 1_555 1_555
O4A Pb1E_2 1_555 1_555
O6A Pb2E 1_555 1_555
C1A C5A 1_555 1_555
C6A C9A 1_555 1_555
C8A C10A 1_555 1_555
C12A C13A 1_555 1_555
C1K C3K 1_555 1_555
O3B Pb1C_3 1_555 1_555
O4B Pb1C_3 1_555 1_555
O6B Pb2C_2 1_555 1_555
C6B C9B 1_555 1_555
C12B C13B 1_555 1_555
O1I Pb1E_2 1_555 1_555
O2I C5I 1_555 1_555
C1I C3I 1_555 1_555
C1I C5I 1_555 1_555
Pb2C O5B_2 1_555 1_555
O3E Pb1A_2 1_555 1_555
O4E Pb2E 1_555 1_555
O4E Pb1A_2 1_555 1_555
O6E C10E 1_555 1_555
O7C Pb2E 1_555 1_555
O7C Pb2D_3 1_555 1_555
C6E C9E 1_555 1_555
C8E C10E 1_555 1_555
C12E C13E 1_555 1_555
C1D C3D 1_555 1_555
O3C Pb1B_3 1_555 1_555
O4C Pb1B_3 1_555 1_555
O4C Pb2C_2 1_555 1_555
O5C Pb3_2 1_555 1_555
O6C C10C 1_555 1_555
C6C C9C 1_555 1_555
C8C C10C 1_555 1_555
C12C C13C 1_555 1_555
C1E C3E 1_555 1_555
O3D Pb1_3 1_555 1_555
O4D Pb1_3 1_555 1_555
O4D Pb2D_3 1_555 1_555
O6D C10D 1_555 1_555
C1H C5H 1_555 1_555
C6D C9D 1_555 1_555
C8D C10D 1_555 1_555
C12D C13D 1_555 1_555
O1C Pb1B_3 1_555 1_555
O1C Pb2C_2 1_555 1_555
C1C C3C 1_555 1_555
Pb1A_2 O1E_2 1_555 1_555
Pb2A_2 O7_2 1_555 1_555
Pb2B_3 O4B_3 1_555 1_555
Pb2B_3 O5C_2 1_555 1_555
Pb2C_2 O7C_2 1_555 1_555
Pb2D_3 O4C_3 1_555 1_555
Pb3_2 O5_2 1_555 1_555

#END
