
#######################################################################
#
#                 Cambridge Crystallographic Data Centre
#                                CCDC 
#
#######################################################################
#
# If this CIF has been generated from an entry in the Cambridge 
# Structural Database, then it will include bibliographic, chemical, 
# crystal, experimental, refinement or atomic coordinate data resulting 
# from the CCDC's data processing and validation procedures.
#
#######################################################################

data_HINPOL
_symmetry_cell_setting           monoclinic
_symmetry_space_group_name_H-M   'P 21/c'
_symmetry_Int_Tables_number      14
_space_group_name_Hall           '-P 2ybc'
loop_
_symmetry_equiv_pos_site_id
_symmetry_equiv_pos_as_xyz
1 x,y,z
2 -x,1/2+y,1/2-z
3 -x,-y,-z
4 x,1/2-y,1/2+z
_cell_length_a                   12.154(4)
_cell_length_b                   10.845(4)
_cell_length_c                   28.502(8)
_cell_angle_alpha                90
_cell_angle_beta                 114.880(11)
_cell_angle_gamma                90
_cell_volume                     3408.18
loop_
_atom_site_label
_atom_site_type_symbol
_atom_site_fract_x
_atom_site_fract_y
_atom_site_fract_z
Cd1 Cd 0.59498(8) 0.21943(7) 0.99625(3)
O1 O 0.4632(11) -0.2114(10) 0.7714(4)
O2 O 0.8815(11) 0.6837(10) 1.2067(4)
O3 O 0.8664(12) 0.0874(13) 1.0314(6)
O4 O 0.7686(10) 0.2445(9) 0.9854(4)
O5 O 1.3616(8) 0.3894(8) 0.9969(4)
O6 O 1.4108(8) 0.1894(7) 1.0007(4)
O7 O 0.5218(11) 0.4046(9) 0.9507(4)
H1 H 0.4532 0.4221 0.9495
H2 H 0.5675 0.4646 0.9648
O8 O 0.6653(10) 0.0411(9) 1.0441(4)
H3 H 0.6278 -0.0216 1.0280
H4 H 0.7382 0.0321 1.0493
N1 N 0.5047(10) 0.1197(10) 0.9159(4)
N2 N 0.4073(9) -0.1191(9) 0.7432(4)
N3 N 0.3116(11) 0.0635(11) 0.7218(4)
N4 N 0.6721(9) 0.3223(10) 1.0753(4)
N5 N 0.8875(9) 0.5997(10) 1.2385(4)
N6 N 0.8425(11) 0.4185(11) 1.2667(4)
C1 C 0.4149(10) 0.0255(11) 0.8150(5)
C2 C 0.3541(12) 0.1193(13) 0.8274(5)
H5 H 0.2829 0.1521 0.8024
C3 C 0.4029(12) 0.1643(13) 0.8791(5)
H6 H 0.3621 0.2271 0.8875
C4 C 0.5601(13) 0.0270(13) 0.9038(5)
H7 H 0.6294 -0.0056 0.9301
C5 C 0.5219(14) -0.0247(12) 0.8545(5)
H8 H 0.5642 -0.0887 0.8479
C6 C 0.3714(12) -0.0094(12) 0.7587(5)
C7 C 0.3882(15) -0.1070(14) 0.6877(5)
C8 C 0.5017(15) -0.0705(14) 0.6855(6)
H9 H 0.5320 0.0032 0.7055
H10 H 0.4875 -0.0554 0.6502
H11 H 0.5603 -0.1354 0.6994
C9 C 0.3395(14) -0.2326(14) 0.6597(6)
H12 H 0.4064 -0.2818 0.6610
H13 H 0.2850 -0.2175 0.6243
H14 H 0.2974 -0.2756 0.6766
C10 C 0.2859(15) 0.0013(13) 0.6707(5)
C11 C 0.3042(18) 0.0954(17) 0.6346(6)
H15 H 0.2951 0.0553 0.6031
H16 H 0.3841 0.1302 0.6512
H17 H 0.2449 0.1598 0.6268
C12 C 0.1576(17) -0.0438(19) 0.6504(7)
H18 H 0.1505 -0.1031 0.6739
H19 H 0.1356 -0.0816 0.6172
H20 H 0.1045 0.0245 0.6470
C13 C 0.7690(11) 0.4341(11) 1.1726(5)
C14 C 0.6846(12) 0.3395(12) 1.1621(5)
H21 H 0.6608 0.3112 1.1872
C15 C 0.6370(14) 0.2887(12) 1.1126(6)
H22 H 0.5777 0.2282 1.1048
C16 C 0.7571(12) 0.4143(13) 1.0866(5)
H23 H 0.7832 0.4377 1.0616
C17 C 0.8043(13) 0.4722(13) 1.1334(6)
H24 H 0.8594 0.5364 1.1396
C18 C 0.8301(11) 0.4818(11) 1.2263(5)
C19 C 0.9712(14) 0.6011(14) 1.2950(6)
C20 C 1.0946(14) 0.5702(15) 1.2981(6)
H25 H 1.0870 0.5079 1.2730
H26 H 1.1450 0.5402 1.3321
H27 H 1.1304 0.6428 1.2912
C21 C 0.9687(16) 0.7349(15) 1.3163(6)
H28 H 0.9847 0.7944 1.2950
H29 H 1.0296 0.7413 1.3512
H30 H 0.8903 0.7505 1.3157
C22 C 0.9080(13) 0.4958(13) 1.3136(5)
C23 C 0.8082(17) 0.5476(17) 1.3306(7)
H31 H 0.7524 0.5988 1.3036
H32 H 0.8467 0.5953 1.3616
H33 H 0.7651 0.4800 1.3368
C24 C 0.9970(17) 0.4141(17) 1.3557(6)
H34 H 0.9531 0.3558 1.3667
H35 H 1.0473 0.4640 1.3846
H36 H 1.0469 0.3707 1.3425
C25 C 0.8509(14) 0.1739(12) 0.9988(6)
C26 C 0.9581(13) 0.1981(12) 0.9826(5)
H37 H 1.0155 0.1304 0.9944
H38 H 0.9265 0.2024 0.9452
C27 C 1.0175(13) 0.3096(12) 1.0044(7)
H39 H 1.0464 0.3050 1.0416
H40 H 0.9591 0.3764 0.9922
C28 C 1.1281(13) 0.3413(12) 0.9911(7)
H41 H 1.0968 0.3639 0.9549
H42 H 1.1698 0.4127 1.0112
C29 C 1.2162(13) 0.2418(13) 1.0009(6)
H43 H 1.1791 0.1781 0.9751
H44 H 1.2323 0.2061 1.0344
C30 C 1.3396(11) 0.2771(10) 1.0004(5)
Cd1_2 Cd 1.59498(8) 0.21943(7) 0.99625(3)
O6_2 O 0.4108(8) 0.1894(7) 1.0007(4)
loop_
_geom_bond_atom_site_label_1
_geom_bond_atom_site_label_2
_geom_bond_site_symmetry_1
_geom_bond_site_symmetry_2
Cd1 O4 1_555 1_555
O1 N2 1_555 1_555
O2 N5 1_555 1_555
O3 C25 1_555 1_555
O4 C25 1_555 1_555
O5 C30 1_555 1_555
O6 C30 1_555 1_555
O7 Cd1 1_555 1_555
H1 O7 1_555 1_555
H2 O7 1_555 1_555
O8 Cd1 1_555 1_555
H3 O8 1_555 1_555
H4 O8 1_555 1_555
N1 Cd1 1_555 1_555
N2 C6 1_555 1_555
N3 C6 1_555 1_555
N4 Cd1 1_555 1_555
N5 C18 1_555 1_555
N6 C18 1_555 1_555
C1 C2 1_555 1_555
C2 H5 1_555 1_555
C3 N1 1_555 1_555
H6 C3 1_555 1_555
C4 N1 1_555 1_555
H7 C4 1_555 1_555
C5 C1 1_555 1_555
H8 C5 1_555 1_555
C6 C1 1_555 1_555
C7 N2 1_555 1_555
C8 C7 1_555 1_555
H9 C8 1_555 1_555
H10 C8 1_555 1_555
H11 C8 1_555 1_555
C9 C7 1_555 1_555
H12 C9 1_555 1_555
H13 C9 1_555 1_555
H14 C9 1_555 1_555
C10 N3 1_555 1_555
C11 C10 1_555 1_555
H15 C11 1_555 1_555
H16 C11 1_555 1_555
H17 C11 1_555 1_555
C12 C10 1_555 1_555
H18 C12 1_555 1_555
H19 C12 1_555 1_555
H20 C12 1_555 1_555
C13 C14 1_555 1_555
C14 H21 1_555 1_555
C15 N4 1_555 1_555
H22 C15 1_555 1_555
C16 N4 1_555 1_555
H23 C16 1_555 1_555
C17 C13 1_555 1_555
H24 C17 1_555 1_555
C18 C13 1_555 1_555
C19 N5 1_555 1_555
C20 C19 1_555 1_555
H25 C20 1_555 1_555
H26 C20 1_555 1_555
H27 C20 1_555 1_555
C21 C19 1_555 1_555
H28 C21 1_555 1_555
H29 C21 1_555 1_555
H30 C21 1_555 1_555
C22 N6 1_555 1_555
C23 C22 1_555 1_555
H31 C23 1_555 1_555
H32 C23 1_555 1_555
H33 C23 1_555 1_555
C24 C22 1_555 1_555
H34 C24 1_555 1_555
H35 C24 1_555 1_555
H36 C24 1_555 1_555
C25 C26 1_555 1_555
C26 H37 1_555 1_555
H38 C26 1_555 1_555
C27 C26 1_555 1_555
H39 C27 1_555 1_555
H40 C27 1_555 1_555
C28 C27 1_555 1_555
H41 C28 1_555 1_555
H42 C28 1_555 1_555
C29 C28 1_555 1_555
H43 C29 1_555 1_555
H44 C29 1_555 1_555
C30 C29 1_555 1_555
Cd1_2 O6 1_555 1_555
O6_2 Cd1 1_555 1_555
C2 C3 1_555 1_555
C4 C5 1_555 1_555
C7 C10 1_555 1_555
C14 C15 1_555 1_555
C16 C17 1_555 1_555
C19 C22 1_555 1_555

#END
