
#######################################################################
#
#                 Cambridge Crystallographic Data Centre
#                                CCDC 
#
#######################################################################
#
# If this CIF has been generated from an entry in the Cambridge 
# Structural Database, then it will include bibliographic, chemical, 
# crystal, experimental, refinement or atomic coordinate data resulting 
# from the CCDC's data processing and validation procedures.
#
#######################################################################

data_HINPIF
_symmetry_cell_setting           monoclinic
_symmetry_space_group_name_H-M   'P 21/n'
_symmetry_Int_Tables_number      14
_space_group_name_Hall           '-P 2yn'
loop_
_symmetry_equiv_pos_site_id
_symmetry_equiv_pos_as_xyz
1 x,y,z
2 1/2-x,1/2+y,1/2-z
3 -x,-y,-z
4 1/2+x,1/2-y,1/2+z
_cell_length_a                   24.124(4)
_cell_length_b                   10.6375(17)
_cell_length_c                   27.546(5)
_cell_angle_alpha                90
_cell_angle_beta                 113.621(3)
_cell_angle_gamma                90
_cell_volume                     6476.57
loop_
_atom_site_label
_atom_site_type_symbol
_atom_site_fract_x
_atom_site_fract_y
_atom_site_fract_z
Co1 Co 0.299606(18) 0.19950(3) 0.498149(14)
Co2 Co 0.783771(18) 0.24261(3) 0.491198(15)
O1 O 0.23213(11) -0.21165(19) 0.27002(9)
O2 O 0.44580(12) 0.6659(2) 0.70137(9)
O3 O 0.73411(11) -0.18686(19) 0.27448(8)
O4 O 0.93716(12) 0.6829(2) 0.70347(9)
O5 O 0.67126(10) 0.40931(18) 0.49691(9)
O6 O 0.70154(9) 0.21263(17) 0.49798(7)
O7 O 0.37675(9) 0.22551(17) 0.48527(8)
O8 O 0.43547(11) 0.0745(2) 0.53554(10)
O9 O 0.18298(10) 0.36233(18) 0.50288(8)
O10 O 0.21789(9) 0.16847(17) 0.50487(7)
O11 O -0.13914(9) 0.27276(18) 0.47963(8)
O12 O -0.07615(10) 0.1368(2) 0.53695(9)
O13 O 0.81679(9) 0.07433(17) 0.53259(7)
H1 H 0.8069 0.0008 0.5213
H2 H 0.8540 0.0815 0.5399
O14 O 0.75119(10) 0.41732(17) 0.45164(8)
H3 H 0.7753 0.4783 0.4615
H4 H 0.7257 0.4277 0.4649
O15 O 0.26544(10) 0.37352(17) 0.45928(8)
H5 H 0.2877 0.4376 0.4667
H6 H 0.2372 0.3883 0.4690
O16 O 0.33182(10) 0.03241(17) 0.53959(8)
H7 H 0.3197 -0.0393 0.5271
H8 H 0.3678 0.0387 0.5428
N1 N 0.25768(11) 0.1121(2) 0.42205(9)
N2 N 0.20548(12) -0.1167(2) 0.24308(9)
N3 N 0.15914(12) 0.0701(2) 0.22457(9)
N4 N 0.33849(11) 0.2940(2) 0.57340(9)
N5 N 0.44577(12) 0.5844(2) 0.73501(10)
N6 N 0.42007(13) 0.4107(2) 0.76727(10)
N7 N 0.74448(11) 0.1532(2) 0.41614(9)
N8 N 0.70160(12) -0.1009(2) 0.24473(10)
N9 N 0.64588(14) 0.0739(2) 0.22094(10)
N10 N 0.82457(11) 0.3304(2) 0.56707(9)
N11 N 0.93990(12) 0.5934(2) 0.73502(10)
N12 N 0.91815(12) 0.4107(2) 0.76378(10)
C1 C 0.21141(14) 0.0238(3) 0.31827(11)
C2 C 0.18162(14) 0.1166(3) 0.33382(12)
H9 H 0.1450 0.1520 0.3091
C3 C 0.20602(14) 0.1567(3) 0.38586(11)
H10 H 0.1849 0.2192 0.3964
C4 C 0.28555(14) 0.0207(3) 0.40696(11)
H11 H 0.3220 -0.0130 0.4325
C5 C 0.26392(15) -0.0270(3) 0.35618(11)
H12 H 0.2845 -0.0933 0.3473
C6 C 0.18989(14) -0.0064(3) 0.26136(12)
C7 C 0.19360(15) -0.1003(3) 0.18604(11)
C8 C 0.25439(16) -0.0647(3) 0.18513(13)
H13 H 0.2688 0.0138 0.2048
H14 H 0.2497 -0.0534 0.1484
H15 H 0.2838 -0.1318 0.2017
C9 C 0.17075(16) -0.2224(3) 0.15617(13)
H16 H 0.2019 -0.2874 0.1703
H17 H 0.1615 -0.2095 0.1185
H18 H 0.1341 -0.2492 0.1604
C10 C 0.14755(15) 0.0093(3) 0.17258(11)
C11 C 0.15567(19) 0.1076(3) 0.13600(13)
H19 H 0.1249 0.1732 0.1289
H20 H 0.1513 0.0679 0.1026
H21 H 0.1960 0.1452 0.1529
C12 C 0.08212(16) -0.0346(3) 0.15090(14)
H22 H 0.0767 -0.0948 0.1756
H23 H 0.0720 -0.0752 0.1165
H24 H 0.0555 0.0378 0.1467
C13 C 0.38696(14) 0.4158(3) 0.67110(11)
C14 C 0.40427(14) 0.4492(3) 0.63034(12)
H25 H 0.4325 0.5151 0.6351
C15 C 0.37977(14) 0.3849(3) 0.58277(12)
H26 H 0.3928 0.4063 0.5556
C16 C 0.32138(14) 0.2643(3) 0.61269(11)
H27 H 0.2916 0.2009 0.6064
C17 C 0.34476(14) 0.3211(3) 0.66161(11)
H28 H 0.3320 0.2956 0.6886
C18 C 0.41635(14) 0.4692(3) 0.72497(12)
C19 C 0.48472(15) 0.5929(3) 0.79293(12)
C20 C 0.48681(16) 0.7270(3) 0.81215(13)
H29 H 0.5073 0.7804 0.7954
H30 H 0.5090 0.7297 0.8507
H31 H 0.4455 0.7578 0.8027
C21 C 0.54750(16) 0.5511(3) 0.79911(14)
H32 H 0.5455 0.4650 0.7858
H33 H 0.5751 0.5539 0.8366
H34 H 0.5624 0.6074 0.7788
C22 C 0.45106(16) 0.4956(3) 0.81338(12)
C23 C 0.40067(17) 0.5560(3) 0.82584(14)
H35 H 0.3760 0.6101 0.7963
H36 H 0.4186 0.6064 0.8582
H37 H 0.3752 0.4901 0.8310
C24 C 0.49252(19) 0.4186(3) 0.86022(13)
H38 H 0.4683 0.3607 0.8714
H39 H 0.5153 0.4750 0.8896
H40 H 0.5207 0.3705 0.8499
C25 C 0.70201(14) 0.0490(3) 0.31540(11)
C26 C 0.66989(14) 0.1434(3) 0.32763(11)
H41 H 0.6331 0.1743 0.3015
C27 C 0.69255(14) 0.1912(3) 0.37834(11)
H42 H 0.6700 0.2543 0.3868
C28 C 0.77469(14) 0.0615(3) 0.40432(11)
H43 H 0.8115 0.0332 0.4312
C29 C 0.75525(15) 0.0055(3) 0.35508(11)
H44 H 0.7776 -0.0609 0.3485
C30 C 0.68121(15) 0.0090(3) 0.25968(12)
C31 C 0.68627(16) -0.0939(3) 0.18656(12)
C32 C 0.74337(19) -0.0448(4) 0.18168(14)
H45 H 0.7542 0.0372 0.1991
H46 H 0.7359 -0.0361 0.1442
H47 H 0.7767 -0.1041 0.1986
C33 C 0.67008(17) -0.2230(3) 0.16212(13)
H48 H 0.7050 -0.2790 0.1778
H49 H 0.6587 -0.2172 0.1238
H50 H 0.6360 -0.2565 0.1689
C34 C 0.63426(18) 0.0030(3) 0.17123(12)
C35 C 0.6327(3) 0.0939(4) 0.12838(15)
H51 H 0.5968 0.1475 0.1184
H52 H 0.6312 0.0466 0.0973
H53 H 0.6692 0.1463 0.1417
C36 C 0.57231(18) -0.0578(4) 0.15691(15)
H54 H 0.5748 -0.1202 0.1839
H55 H 0.5596 -0.0991 0.1223
H56 H 0.5427 0.0070 0.1553
C37 C 0.88011(14) 0.4321(3) 0.66787(11)
C38 C 0.89259(15) 0.4787(3) 0.62616(12)
H57 H 0.9201 0.5464 0.6314
C39 C 0.86407(14) 0.4240(3) 0.57692(12)
H58 H 0.8732 0.4549 0.5486
C40 C 0.81258(14) 0.2867(3) 0.60749(11)
H59 H 0.7841 0.2204 0.6008
C41 C 0.83967(14) 0.3335(3) 0.65805(11)
H60 H 0.8308 0.2987 0.6859
C42 C 0.91173(14) 0.4775(3) 0.72277(12)
C43 C 0.98039(15) 0.5954(3) 0.79248(12)
C44 C 0.97961(17) 0.7248(3) 0.81545(13)
H61 H 0.9989 0.7855 0.8004
H62 H 1.0017 0.7222 0.8540
H63 H 0.9377 0.7504 0.8067
C45 C 1.04366(16) 0.5655(3) 0.79555(14)
H64 H 1.0432 0.4834 0.7792
H65 H 1.0723 0.5635 0.8327
H66 H 1.0560 0.6304 0.7767
C46 C 0.95151(15) 0.4868(3) 0.81218(12)
C47 C 0.90401(17) 0.5344(3) 0.83129(14)
H67 H 0.8757 0.5902 0.8044
H68 H 0.9240 0.5808 0.8645
H69 H 0.8819 0.4628 0.8372
C48 C 0.99647(17) 0.4020(3) 0.85347(13)
H70 H 0.9747 0.3361 0.8635
H71 H 1.0205 0.4517 0.8848
H72 H 1.0233 0.3633 0.8388
C49 C 0.66423(13) 0.2941(3) 0.49975(11)
C50 C 0.60825(14) 0.2476(3) 0.50622(12)
H73 H 0.6200 0.2183 0.5431
H74 H 0.5918 0.1744 0.4826
C51 C 0.55884(15) 0.3455(3) 0.49395(14)
H75 H 0.5411 0.3617 0.4553
H76 H 0.5771 0.4250 0.5120
C52 C 0.50849(15) 0.3073(3) 0.51103(14)
H77 H 0.5265 0.2888 0.5495
H78 H 0.4806 0.3793 0.5053
C53 C 0.47235(15) 0.1940(3) 0.48188(12)
H79 H 0.4998 0.1214 0.4870
H80 H 0.4528 0.2125 0.4435
C54 C 0.42446(14) 0.1616(3) 0.50243(11)
C55 C 0.17906(14) 0.2470(3) 0.50745(11)
C56 C 0.12670(14) 0.1930(3) 0.51737(12)
H81 H 0.1176 0.1084 0.5011
H82 H 0.1396 0.1823 0.5561
C57 C 0.06935(14) 0.2688(3) 0.49671(11)
H83 H 0.0548 0.2772 0.4578
H84 H 0.0777 0.3542 0.5123
C58 C 0.02048(14) 0.2075(3) 0.51020(12)
H85 H 0.0114 0.1235 0.4934
H86 H 0.0362 0.1953 0.5490
C59 C -0.03687(15) 0.2817(3) 0.49267(14)
H87 H -0.0517 0.2952 0.4540
H88 H -0.0273 0.3654 0.5098
C60 C -0.08771(15) 0.2247(3) 0.50429(11)
Co2_2 Co -0.216229(18) 0.24261(3) 0.491198(15)
O11_2 O 0.86086(9) 0.27276(18) 0.47963(8)
loop_
_geom_bond_atom_site_label_1
_geom_bond_atom_site_label_2
_geom_bond_site_symmetry_1
_geom_bond_site_symmetry_2
Co1 O7 1_555 1_555
Co2 O6 1_555 1_555
O1 N2 1_555 1_555
O2 N5 1_555 1_555
O3 N8 1_555 1_555
O4 N11 1_555 1_555
O5 C49 1_555 1_555
O6 C49 1_555 1_555
O7 C54 1_555 1_555
O8 C54 1_555 1_555
O9 C55 1_555 1_555
O10 Co1 1_555 1_555
O11 C60 1_555 1_555
O12 C60 1_555 1_555
O13 Co2 1_555 1_555
H1 O13 1_555 1_555
H2 O13 1_555 1_555
O14 Co2 1_555 1_555
H3 O14 1_555 1_555
H4 O14 1_555 1_555
O15 Co1 1_555 1_555
H5 O15 1_555 1_555
H6 O15 1_555 1_555
O16 Co1 1_555 1_555
H7 O16 1_555 1_555
H8 O16 1_555 1_555
N1 Co1 1_555 1_555
N2 C6 1_555 1_555
N3 C6 1_555 1_555
N4 Co1 1_555 1_555
N5 C18 1_555 1_555
N6 C18 1_555 1_555
N7 Co2 1_555 1_555
N8 C30 1_555 1_555
N9 C30 1_555 1_555
N10 Co2 1_555 1_555
N11 C42 1_555 1_555
N12 C42 1_555 1_555
C1 C2 1_555 1_555
C2 H9 1_555 1_555
C3 N1 1_555 1_555
H10 C3 1_555 1_555
C4 N1 1_555 1_555
H11 C4 1_555 1_555
C5 C1 1_555 1_555
H12 C5 1_555 1_555
C6 C1 1_555 1_555
C7 N2 1_555 1_555
C8 C7 1_555 1_555
H13 C8 1_555 1_555
H14 C8 1_555 1_555
H15 C8 1_555 1_555
C9 C7 1_555 1_555
H16 C9 1_555 1_555
H17 C9 1_555 1_555
H18 C9 1_555 1_555
C10 N3 1_555 1_555
C11 C10 1_555 1_555
H19 C11 1_555 1_555
H20 C11 1_555 1_555
H21 C11 1_555 1_555
C12 C10 1_555 1_555
H22 C12 1_555 1_555
H23 C12 1_555 1_555
H24 C12 1_555 1_555
C13 C14 1_555 1_555
C14 H25 1_555 1_555
C15 N4 1_555 1_555
H26 C15 1_555 1_555
C16 N4 1_555 1_555
H27 C16 1_555 1_555
C17 C13 1_555 1_555
H28 C17 1_555 1_555
C18 C13 1_555 1_555
C19 N5 1_555 1_555
C20 C19 1_555 1_555
H29 C20 1_555 1_555
H30 C20 1_555 1_555
H31 C20 1_555 1_555
C21 C19 1_555 1_555
H32 C21 1_555 1_555
H33 C21 1_555 1_555
H34 C21 1_555 1_555
C22 N6 1_555 1_555
C23 C22 1_555 1_555
H35 C23 1_555 1_555
H36 C23 1_555 1_555
H37 C23 1_555 1_555
C24 C22 1_555 1_555
H38 C24 1_555 1_555
H39 C24 1_555 1_555
H40 C24 1_555 1_555
C25 C26 1_555 1_555
C26 H41 1_555 1_555
C27 N7 1_555 1_555
H42 C27 1_555 1_555
C28 N7 1_555 1_555
H43 C28 1_555 1_555
C29 C25 1_555 1_555
H44 C29 1_555 1_555
C30 C25 1_555 1_555
C31 N8 1_555 1_555
C32 C31 1_555 1_555
H45 C32 1_555 1_555
H46 C32 1_555 1_555
H47 C32 1_555 1_555
C33 C31 1_555 1_555
H48 C33 1_555 1_555
H49 C33 1_555 1_555
H50 C33 1_555 1_555
C34 N9 1_555 1_555
C35 C34 1_555 1_555
H51 C35 1_555 1_555
H52 C35 1_555 1_555
H53 C35 1_555 1_555
C36 C34 1_555 1_555
H54 C36 1_555 1_555
H55 C36 1_555 1_555
H56 C36 1_555 1_555
C37 C38 1_555 1_555
C38 H57 1_555 1_555
C39 N10 1_555 1_555
H58 C39 1_555 1_555
C40 N10 1_555 1_555
H59 C40 1_555 1_555
C41 C37 1_555 1_555
H60 C41 1_555 1_555
C42 C37 1_555 1_555
C43 N11 1_555 1_555
C44 C43 1_555 1_555
H61 C44 1_555 1_555
H62 C44 1_555 1_555
H63 C44 1_555 1_555
C45 C43 1_555 1_555
H64 C45 1_555 1_555
H65 C45 1_555 1_555
H66 C45 1_555 1_555
C46 N12 1_555 1_555
C47 C46 1_555 1_555
H67 C47 1_555 1_555
H68 C47 1_555 1_555
H69 C47 1_555 1_555
C48 C46 1_555 1_555
H70 C48 1_555 1_555
H71 C48 1_555 1_555
H72 C48 1_555 1_555
C49 C50 1_555 1_555
C50 H73 1_555 1_555
H74 C50 1_555 1_555
C51 C50 1_555 1_555
H75 C51 1_555 1_555
H76 C51 1_555 1_555
C52 C51 1_555 1_555
H77 C52 1_555 1_555
H78 C52 1_555 1_555
C53 C52 1_555 1_555
H79 C53 1_555 1_555
H80 C53 1_555 1_555
C54 C53 1_555 1_555
C55 O10 1_555 1_555
C56 C55 1_555 1_555
H81 C56 1_555 1_555
H82 C56 1_555 1_555
C57 C56 1_555 1_555
H83 C57 1_555 1_555
H84 C57 1_555 1_555
C58 C57 1_555 1_555
H85 C58 1_555 1_555
H86 C58 1_555 1_555
C59 C58 1_555 1_555
H87 C59 1_555 1_555
H88 C59 1_555 1_555
C60 C59 1_555 1_555
Co2_2 O11 1_555 1_555
O11_2 Co2 1_555 1_555
C2 C3 1_555 1_555
C4 C5 1_555 1_555
C7 C10 1_555 1_555
C14 C15 1_555 1_555
C16 C17 1_555 1_555
C19 C22 1_555 1_555
C26 C27 1_555 1_555
C28 C29 1_555 1_555
C31 C34 1_555 1_555
C38 C39 1_555 1_555
C40 C41 1_555 1_555
C43 C46 1_555 1_555

#END
