
#######################################################################
#
#                 Cambridge Crystallographic Data Centre
#                                CCDC 
#
#######################################################################
#
# If this CIF has been generated from an entry in the Cambridge 
# Structural Database, then it will include bibliographic, chemical, 
# crystal, experimental, refinement or atomic coordinate data resulting 
# from the CCDC's data processing and validation procedures.
#
#######################################################################

data_HINPEB
_symmetry_cell_setting           triclinic
_symmetry_space_group_name_H-M   'P -1'
_symmetry_Int_Tables_number      2
_space_group_name_Hall           '-P 1'
loop_
_symmetry_equiv_pos_site_id
_symmetry_equiv_pos_as_xyz
1 x,y,z
2 -x,-y,-z
_cell_length_a                   7.8700(16)
_cell_length_b                   9.0304(18)
_cell_length_c                   11.323(2)
_cell_angle_alpha                87.46(3)
_cell_angle_beta                 83.84(3)
_cell_angle_gamma                84.71(3)
_cell_volume                     796.181
loop_
_atom_site_label
_atom_site_type_symbol
_atom_site_fract_x
_atom_site_fract_y
_atom_site_fract_z
Ni1 Ni 0.5000 1.0000 0.5000
N1 N 0.3825(2) 0.8051(2) 0.48885(15)
N2 N 0.3244(2) 0.5919(2) 0.42321(17)
N3 N 0.1171(3) 0.3688(2) 0.22381(17)
H1 H 0.1666 0.2798 0.2235
N4 N 0.0677(3) 0.6091(2) 0.26294(18)
O1 O 0.52603(19) 1.02225(18) 0.31716(12)
O2 O 0.25504(19) 1.08979(17) 0.28481(12)
O3 O 0.73529(19) 0.87200(17) 0.48113(13)
H2 H 0.7849 0.8796 0.5434
H3 H 0.8046 0.8969 0.4224
C1 C 0.4136(3) 0.7118(2) 0.40216(19)
H4 H 0.4884 0.7268 0.3342
C2 C 0.2678(3) 0.7410(3) 0.5702(2)
H5 H 0.2218 0.7817 0.6420
C3 C 0.2314(4) 0.6099(3) 0.5310(2)
H6 H 0.1575 0.5447 0.5699
C4 C 0.3221(3) 0.4702(3) 0.3438(2)
H7 H 0.3243 0.3768 0.3896
H8 H 0.4241 0.4671 0.2874
C5 C 0.1663(3) 0.4866(2) 0.2774(2)
C6 C -0.0269(3) 0.4187(3) 0.1700(2)
C7 C -0.1322(4) 0.3485(4) 0.1039(3)
H9 H -0.1113 0.2482 0.0870
C8 C -0.2697(4) 0.4356(5) 0.0646(3)
H10 H -0.3436 0.3928 0.0199
C9 C -0.3009(4) 0.5848(5) 0.0898(3)
H11 H -0.3945 0.6399 0.0612
C10 C -0.1973(4) 0.6532(4) 0.1559(3)
H12 H -0.2200 0.7532 0.1736
C11 C -0.0576(3) 0.5686(3) 0.1955(2)
C12 C 0.4089(3) 1.0471(2) 0.25105(16)
C13 C 0.3290(3) 1.0095(3) 0.04609(18)
H13 H 0.2144 1.0157 0.0770
C14 C 0.4562(3) 1.0233(2) 0.12007(16)
C15 C 0.6265(3) 1.0134(3) 0.07395(18)
H14 H 0.7116 1.0222 0.1236
O1A O 0.47397(19) 0.97775(18) -0.31716(12)
O2A O 0.74496(19) 0.91021(17) -0.28481(12)
C12A C 0.5911(3) 0.9529(2) -0.25105(16)
C13A C 0.6710(3) 0.9905(3) -0.04609(18)
H13A H 0.7856 0.9843 -0.0770
C14A C 0.5438(3) 0.9767(2) -0.12007(16)
C15A C 0.3735(3) 0.9866(3) -0.07395(18)
H14A H 0.2884 0.9778 -0.1236
N1A N 0.6175(2) 1.1949(2) 0.51115(15)
N2A N 0.6756(2) 1.4081(2) 0.57679(17)
N3A N 0.8829(3) 1.6312(2) 0.77619(17)
H1A H 0.8334 1.7202 0.7765
N4A N 0.9323(3) 1.3909(2) 0.73706(18)
C1A C 0.5864(3) 1.2882(2) 0.59784(19)
H4A H 0.5116 1.2732 0.6658
C2A C 0.7322(3) 1.2590(3) 0.4298(2)
H5A H 0.7782 1.2183 0.3580
C3A C 0.7686(4) 1.3901(3) 0.4690(2)
H6A H 0.8425 1.4553 0.4301
C4A C 0.6779(3) 1.5298(3) 0.6562(2)
H7A H 0.6757 1.6232 0.6104
H8A H 0.5759 1.5329 0.7126
C5A C 0.8337(3) 1.5134(2) 0.7226(2)
C6A C 1.0269(3) 1.5813(3) 0.8300(2)
C7A C 1.1322(4) 1.6515(4) 0.8961(3)
H9A H 1.1113 1.7518 0.9130
C8A C 1.2697(4) 1.5644(5) 0.9354(3)
H10A H 1.3436 1.6072 0.9801
C9A C 1.3009(4) 1.4152(5) 0.9102(3)
H11A H 1.3945 1.3601 0.9388
C10A C 1.1973(4) 1.3468(4) 0.8441(3)
H12A H 1.2200 1.2468 0.8264
C11A C 1.0576(3) 1.4314(3) 0.8045(2)
O3A O 0.26471(19) 1.12800(17) 0.51887(13)
H2A H 0.2151 1.1204 0.4566
H3A H 0.1954 1.1031 0.5776
Ni1_2 Ni 0.5000 1.0000 -0.5000
O1A_2 O 0.47397(19) 0.97775(18) 0.68284(12)
O4 O 0.9781(2) 0.9152(2) 0.29602(18)
H15 H 1.0673 0.9609 0.2985
H16 H 1.0208 0.8258 0.2880
loop_
_geom_bond_atom_site_label_1
_geom_bond_atom_site_label_2
_geom_bond_site_symmetry_1
_geom_bond_site_symmetry_2
Ni1 N1 1_555 1_555
N1 C1 1_555 1_555
N2 C1 1_555 1_555
N3 H1 1_555 1_555
N4 C5 1_555 1_555
O1 Ni1 1_555 1_555
O2 C12 1_555 1_555
O3 Ni1 1_555 1_555
H2 O3 1_555 1_555
H3 O3 1_555 1_555
C1 H4 1_555 1_555
C2 N1 1_555 1_555
H5 C2 1_555 1_555
C3 N2 1_555 1_555
H6 C3 1_555 1_555
C4 N2 1_555 1_555
H7 C4 1_555 1_555
H8 C4 1_555 1_555
C5 N3 1_555 1_555
C6 N3 1_555 1_555
C7 C6 1_555 1_555
H9 C7 1_555 1_555
C8 C7 1_555 1_555
H10 C8 1_555 1_555
C9 C8 1_555 1_555
H11 C9 1_555 1_555
C10 C9 1_555 1_555
H12 C10 1_555 1_555
C11 N4 1_555 1_555
C12 O1 1_555 1_555
C13 H13 1_555 1_555
C14 C12 1_555 1_555
C15 C14 1_555 1_555
H14 C15 1_555 1_555
O4 H15 1_555 1_555
H16 O4 1_555 1_555
O1A C12A 1_555 1_555
O2A C12A 1_555 1_555
C12A C14A 1_555 1_555
C13A C15 1_555 1_555
H13A C13A 1_555 1_555
C14A C13A 1_555 1_555
C15A C13 1_555 1_555
H14A C15A 1_555 1_555
N1A Ni1 1_555 1_555
N2A C1A 1_555 1_555
N3A H1A 1_555 1_555
N4A C5A 1_555 1_555
C1A N1A 1_555 1_555
H4A C1A 1_555 1_555
C2A N1A 1_555 1_555
H5A C2A 1_555 1_555
C3A N2A 1_555 1_555
H6A C3A 1_555 1_555
C4A N2A 1_555 1_555
H7A C4A 1_555 1_555
H8A C4A 1_555 1_555
C5A N3A 1_555 1_555
C6A N3A 1_555 1_555
C7A C6A 1_555 1_555
H9A C7A 1_555 1_555
C8A C7A 1_555 1_555
H10A C8A 1_555 1_555
C9A C8A 1_555 1_555
H11A C9A 1_555 1_555
C10A C9A 1_555 1_555
H12A C10A 1_555 1_555
C11A N4A 1_555 1_555
O3A Ni1 1_555 1_555
H2A O3A 1_555 1_555
H3A O3A 1_555 1_555
Ni1_2 O1A 1_555 1_555
O1A_2 Ni1 1_555 1_555
C2 C3 1_555 1_555
C4 C5 1_555 1_555
C6 C11 1_555 1_555
C10 C11 1_555 1_555
C13 C14 1_555 1_555
C14A C15A 1_555 1_555
C2A C3A 1_555 1_555
C4A C5A 1_555 1_555
C6A C11A 1_555 1_555
C10A C11A 1_555 1_555

#END
