
#######################################################################
#
#                 Cambridge Crystallographic Data Centre
#                                CCDC 
#
#######################################################################
#
# If this CIF has been generated from an entry in the Cambridge 
# Structural Database, then it will include bibliographic, chemical, 
# crystal, experimental, refinement or atomic coordinate data resulting 
# from the CCDC's data processing and validation procedures.
#
#######################################################################

data_HINPUR
_symmetry_cell_setting           monoclinic
_symmetry_space_group_name_H-M   'P 21/c'
_symmetry_Int_Tables_number      14
_space_group_name_Hall           '-P 2ybc'
loop_
_symmetry_equiv_pos_site_id
_symmetry_equiv_pos_as_xyz
1 x,y,z
2 -x,1/2+y,1/2-z
3 -x,-y,-z
4 x,1/2-y,1/2+z
_cell_length_a                   24.1859(11)
_cell_length_b                   10.6527(5)
_cell_length_c                   28.3859(10)
_cell_angle_alpha                90
_cell_angle_beta                 117.271(3)
_cell_angle_gamma                90
_cell_volume                     6500.59
loop_
_atom_site_label
_atom_site_type_symbol
_atom_site_fract_x
_atom_site_fract_y
_atom_site_fract_z
Zn1 Zn 0.698122(10) 0.30160(2) 0.498661(9)
Zn2 Zn 1.206839(10) 0.25589(2) 0.490979(9)
O1 O 1.04055(7) 0.68764(13) 0.27504(6)
O2 O 1.26674(8) -0.18460(14) 0.70373(6)
O3 O 0.53815(7) 0.71349(13) 0.27016(6)
O4 O 0.75549(7) -0.16710(14) 0.70164(6)
O5 O 1.11223(7) 0.36030(14) 0.53628(6)
O6 O 1.11763(6) 0.22435(12) 0.47856(5)
O7 O 0.82004(7) 0.13894(12) 0.50362(6)
O8 O 0.78733(6) 0.33351(12) 0.50516(5)
O9 O 0.60785(6) 0.27350(12) 0.48468(5)
O10 O 0.59941(7) 0.42501(15) 0.53527(7)
O11 O 0.32572(7) 0.09002(12) 0.49734(6)
O12 O 0.29646(6) 0.28768(12) 0.49755(5)
O13 O 1.20082(6) 0.08011(12) 0.45096(5)
H1 H 1.1851 0.0183 0.4588
H2 H 1.2392 0.0665 0.4640
O14 O 1.21598(6) 0.42528(12) 0.53365(5)
H3 H 1.1841 0.4171 0.5381
H4 H 1.2143 0.4972 0.5209
O15 O 0.69394(6) 0.12679(12) 0.45878(5)
H5 H 0.6792 0.0605 0.4644
H6 H 0.7323 0.1151 0.4703
O16 O 0.70802(6) 0.46936(12) 0.54102(5)
H7 H 0.6752 0.4626 0.5440
H8 H 0.7082 0.5420 0.5296
N1 N 1.17135(7) 0.34653(15) 0.41596(6)
N2 N 1.04346(8) 0.60264(15) 0.24480(7)
N3 N 1.07604(9) 0.42904(17) 0.22066(7)
N4 N 1.24315(8) 0.16764(15) 0.56693(6)
N5 N 1.29554(8) -0.09542(15) 0.73551(7)
N6 N 1.34585(8) 0.08721(16) 0.76377(7)
N7 N 0.66400(7) 0.38968(15) 0.42196(6)
N8 N 0.53733(8) 0.61846(15) 0.24293(7)
N9 N 0.56505(8) 0.43150(16) 0.22429(7)
N10 N 0.73591(8) 0.20515(15) 0.57413(7)
N11 N 0.78933(8) -0.08649(15) 0.73543(7)
N12 N 0.84781(8) 0.08606(16) 0.76759(7)
C1 C 1.11345(9) 0.45173(18) 0.31518(8)
C2 C 1.10031(9) 0.49454(18) 0.35536(8)
H9 H 1.0717 0.5612 0.3491
C3 C 1.12969(9) 0.43798(18) 0.40414(8)
H10 H 1.1196 0.4659 0.4311
C4 C 1.18556(9) 0.30834(19) 0.37769(8)
H11 H 1.2160 0.2446 0.3857
C5 C 1.15767(9) 0.35795(18) 0.32738(8)
H12 H 1.1686 0.3282 0.3012
C6 C 1.07895(9) 0.49335(18) 0.25983(8)
C7 C 1.00154(10) 0.5970(2) 0.18668(8)
C8 C 0.93958(11) 0.5466(3) 0.18085(10)
H13 H 0.9459 0.4634 0.1972
H14 H 0.9099 0.5404 0.1432
H15 H 0.9231 0.6039 0.1984
C9 C 0.99312(12) 0.7264(2) 0.16255(9)
H16 H 0.9723 0.7808 0.1774
H17 H 0.9677 0.7206 0.1240
H18 H 1.0339 0.7618 0.1706
C10 C 1.03895(11) 0.5016(2) 0.17123(9)
C11 C 0.99809(15) 0.4125(3) 0.12751(11)
H19 H 1.0242 0.3587 0.1179
H20 H 0.9696 0.4608 0.0965
H21 H 0.9740 0.3602 0.1399
C12 C 1.08696(13) 0.5642(3) 0.15783(10)
H22 H 1.1119 0.6236 0.1860
H23 H 1.0655 0.6092 0.1241
H24 H 1.1142 0.5000 0.1549
C13 C 1.28835(9) 0.06556(18) 0.66808(8)
C14 C 1.23456(9) 0.01882(18) 0.62623(8)
H25 H 1.2128 -0.0495 0.6315
C15 C 1.21335(9) 0.07360(18) 0.57675(8)
H26 H 1.1760 0.0430 0.5485
C16 C 1.29549(9) 0.21112(18) 0.60742(8)
H27 H 1.3172 0.2775 0.6008
C17 C 1.31898(10) 0.16401(18) 0.65795(8)
H28 H 1.3558 0.1984 0.6856
C18 C 1.31129(9) 0.02049(18) 0.72294(8)
C19 C 1.31241(10) -0.0968(2) 0.79294(8)
C20 C 1.25256(11) -0.0673(2) 0.79628(9)
H29 H 1.2368 0.0149 0.7802
H30 H 1.2611 -0.0658 0.8335
H31 H 1.2214 -0.1319 0.7773
C21 C 1.33639(11) -0.2261(2) 0.81566(9)
H32 H 1.3026 -0.2874 0.7999
H33 H 1.3518 -0.2245 0.8542
H34 H 1.3703 -0.2500 0.8076
C22 C 1.36091(10) 0.01131(19) 0.81234(8)
C23 C 1.35759(12) 0.0972(2) 0.85387(9)
H35 H 1.3885 0.1643 0.8628
H36 H 1.3663 0.0485 0.8858
H37 H 1.3159 0.1340 0.8398
C24 C 1.42774(10) -0.0364(2) 0.83164(9)
H38 H 1.4293 -0.0926 0.8049
H39 H 1.4410 -0.0821 0.8650
H40 H 1.4556 0.0351 0.8373
C25 C 0.60663(9) 0.47802(18) 0.31804(8)
C26 C 0.59231(9) 0.52894(18) 0.35644(8)
H41 H 0.5631 0.5955 0.3478
C27 C 0.62133(9) 0.48081(18) 0.40696(8)
H42 H 0.6105 0.5142 0.4326
C28 C 0.67928(9) 0.34495(18) 0.38527(8)
H43 H 0.7106 0.2822 0.3956
C29 C 0.65197(9) 0.38523(18) 0.33360(8)
H44 H 0.6639 0.3502 0.3088
C30 C 0.57134(9) 0.50821(18) 0.26136(8)
C31 C 0.49232(10) 0.60219(19) 0.18599(8)
C32 C 0.43096(10) 0.5666(2) 0.18524(9)
H45 H 0.4362 0.4881 0.2048
H46 H 0.3990 0.5553 0.1485
H47 H 0.4182 0.6334 0.2019
C33 C 0.48530(11) 0.7239(2) 0.15597(9)
H48 H 0.4680 0.7887 0.1699
H49 H 0.4573 0.7106 0.1183
H50 H 0.5261 0.7509 0.1603
C34 C 0.52483(10) 0.49190(19) 0.17232(8)
C35 C 0.48018(12) 0.3945(2) 0.13573(9)
H51 H 0.5036 0.3289 0.1285
H52 H 0.4513 0.4346 0.1024
H53 H 0.4567 0.3571 0.1526
C36 C 0.56855(12) 0.5369(2) 0.15040(9)
H54 H 0.5974 0.5995 0.1744
H55 H 0.5441 0.5746 0.1154
H56 H 0.5922 0.4654 0.1473
C37 C 0.78441(9) 0.08224(18) 0.67150(8)
C38 C 0.72637(9) 0.04998(18) 0.63074(8)
H57 H 0.7026 -0.0153 0.6354
C39 C 0.70398(9) 0.11444(17) 0.58344(8)
H58 H 0.6639 0.0934 0.5561
C40 C 0.79223(9) 0.23421(18) 0.61323(8)
H59 H 0.8156 0.2979 0.6070
C41 C 0.81778(10) 0.17621(18) 0.66196(8)
H60 H 0.8577 0.2002 0.6887
C42 C 0.80915(10) 0.02864(18) 0.72543(8)
C43 C 0.80861(10) -0.09497(19) 0.79349(8)
C44 C 0.82509(11) -0.2291(2) 0.81258(9)
H61 H 0.7880 -0.2820 0.7954
H62 H 0.8406 -0.2321 0.8511
H63 H 0.8573 -0.2599 0.8036
C45 C 0.75219(11) -0.0517(2) 0.80002(10)
H64 H 0.7419 0.0351 0.7876
H65 H 0.7619 -0.0564 0.8375
H66 H 0.7166 -0.1061 0.7791
C46 C 0.86267(11) 0.0011(2) 0.81373(9)
C47 C 0.92499(11) -0.0601(2) 0.82588(10)
H67 H 0.9201 -0.1125 0.7959
H68 H 0.9388 -0.1122 0.8577
H69 H 0.9560 0.0054 0.8318
C48 C 0.86894(13) 0.0781(2) 0.86114(9)
H70 H 0.9050 0.1341 0.8725
H71 H 0.8747 0.0217 0.8903
H72 H 0.8312 0.1282 0.8511
C49 C 1.09102(9) 0.27297(19) 0.50374(8)
C50 C 1.02895(10) 0.2158(2) 0.49216(9)
H73 H 1.0364 0.1325 0.5095
H74 H 1.0051 0.2021 0.4535
C51 C 0.98941(9) 0.29231(19) 0.51006(8)
H75 H 0.9821 0.3762 0.4932
H76 H 1.0124 0.3043 0.5489
C52 C 0.92694(9) 0.23108(18) 0.49631(8)
H77 H 0.9025 0.2238 0.4573
H78 H 0.9338 0.1454 0.5115
C53 C 0.89069(9) 0.30773(18) 0.51784(8)
H79 H 0.9165 0.3172 0.5566
H80 H 0.8839 0.3927 0.5020
C54 C 0.82842(9) 0.25451(18) 0.50781(8)
C55 C 0.57723(9) 0.33910(18) 0.50206(8)
C56 C 0.50922(9) 0.30641(19) 0.48134(9)
H81 H 0.4907 0.2881 0.4429
H82 H 0.4868 0.3787 0.4864
C57 C 0.50218(10) 0.19218(19) 0.51063(9)
H83 H 0.5222 0.2105 0.5491
H84 H 0.5245 0.1204 0.5050
C58 C 0.43460(10) 0.15448(19) 0.49292(9)
H85 H 0.4140 0.1405 0.4541
H86 H 0.4339 0.0741 0.5101
C59 C 0.39773(9) 0.25184(18) 0.50612(8)
H87 H 0.4230 0.2797 0.5432
H88 H 0.3907 0.3258 0.4829
C60 C 0.33546(9) 0.20529(18) 0.49967(8)
Zn2_2 Zn 0.206839(10) 0.25589(2) 0.490979(9)
O12_2 O 1.29646(6) 0.28768(12) 0.49755(5)
loop_
_geom_bond_atom_site_label_1
_geom_bond_atom_site_label_2
_geom_bond_site_symmetry_1
_geom_bond_site_symmetry_2
Zn1 O8 1_555 1_555
Zn2 O6 1_555 1_555
O1 N2 1_555 1_555
O2 N5 1_555 1_555
O3 N8 1_555 1_555
O4 N11 1_555 1_555
O5 C49 1_555 1_555
O6 C49 1_555 1_555
O7 C54 1_555 1_555
O8 C54 1_555 1_555
O9 Zn1 1_555 1_555
O10 C55 1_555 1_555
O11 C60 1_555 1_555
O12 C60 1_555 1_555
O13 Zn2 1_555 1_555
H1 O13 1_555 1_555
H2 O13 1_555 1_555
O14 Zn2 1_555 1_555
H3 O14 1_555 1_555
H4 O14 1_555 1_555
O15 Zn1 1_555 1_555
H5 O15 1_555 1_555
H6 O15 1_555 1_555
O16 Zn1 1_555 1_555
H7 O16 1_555 1_555
H8 O16 1_555 1_555
N1 Zn2 1_555 1_555
N2 C6 1_555 1_555
N3 C6 1_555 1_555
N4 Zn2 1_555 1_555
N5 C18 1_555 1_555
N6 C18 1_555 1_555
N7 Zn1 1_555 1_555
N8 C30 1_555 1_555
N9 C30 1_555 1_555
N10 Zn1 1_555 1_555
N11 C42 1_555 1_555
N12 C42 1_555 1_555
C1 C2 1_555 1_555
C2 H9 1_555 1_555
C3 N1 1_555 1_555
H10 C3 1_555 1_555
C4 N1 1_555 1_555
H11 C4 1_555 1_555
C5 C1 1_555 1_555
H12 C5 1_555 1_555
C6 C1 1_555 1_555
C7 N2 1_555 1_555
C8 C7 1_555 1_555
H13 C8 1_555 1_555
H14 C8 1_555 1_555
H15 C8 1_555 1_555
C9 C7 1_555 1_555
H16 C9 1_555 1_555
H17 C9 1_555 1_555
H18 C9 1_555 1_555
C10 N3 1_555 1_555
C11 C10 1_555 1_555
H19 C11 1_555 1_555
H20 C11 1_555 1_555
H21 C11 1_555 1_555
C12 C10 1_555 1_555
H22 C12 1_555 1_555
H23 C12 1_555 1_555
H24 C12 1_555 1_555
C13 C14 1_555 1_555
C14 H25 1_555 1_555
C15 N4 1_555 1_555
H26 C15 1_555 1_555
C16 N4 1_555 1_555
H27 C16 1_555 1_555
C17 C13 1_555 1_555
H28 C17 1_555 1_555
C18 C13 1_555 1_555
C19 N5 1_555 1_555
C20 C19 1_555 1_555
H29 C20 1_555 1_555
H30 C20 1_555 1_555
H31 C20 1_555 1_555
C21 C19 1_555 1_555
H32 C21 1_555 1_555
H33 C21 1_555 1_555
H34 C21 1_555 1_555
C22 N6 1_555 1_555
C23 C22 1_555 1_555
H35 C23 1_555 1_555
H36 C23 1_555 1_555
H37 C23 1_555 1_555
C24 C22 1_555 1_555
H38 C24 1_555 1_555
H39 C24 1_555 1_555
H40 C24 1_555 1_555
C25 C26 1_555 1_555
C26 H41 1_555 1_555
C27 N7 1_555 1_555
H42 C27 1_555 1_555
C28 N7 1_555 1_555
H43 C28 1_555 1_555
C29 C25 1_555 1_555
H44 C29 1_555 1_555
C30 C25 1_555 1_555
C31 N8 1_555 1_555
C32 C31 1_555 1_555
H45 C32 1_555 1_555
H46 C32 1_555 1_555
H47 C32 1_555 1_555
C33 C31 1_555 1_555
H48 C33 1_555 1_555
H49 C33 1_555 1_555
H50 C33 1_555 1_555
C34 N9 1_555 1_555
C35 C34 1_555 1_555
H51 C35 1_555 1_555
H52 C35 1_555 1_555
H53 C35 1_555 1_555
C36 C34 1_555 1_555
H54 C36 1_555 1_555
H55 C36 1_555 1_555
H56 C36 1_555 1_555
C37 C38 1_555 1_555
C38 H57 1_555 1_555
C39 N10 1_555 1_555
H58 C39 1_555 1_555
C40 N10 1_555 1_555
H59 C40 1_555 1_555
C41 C37 1_555 1_555
H60 C41 1_555 1_555
C42 C37 1_555 1_555
C43 N11 1_555 1_555
C44 C43 1_555 1_555
H61 C44 1_555 1_555
H62 C44 1_555 1_555
H63 C44 1_555 1_555
C45 C43 1_555 1_555
H64 C45 1_555 1_555
H65 C45 1_555 1_555
H66 C45 1_555 1_555
C46 N12 1_555 1_555
C47 C46 1_555 1_555
H67 C47 1_555 1_555
H68 C47 1_555 1_555
H69 C47 1_555 1_555
C48 C46 1_555 1_555
H70 C48 1_555 1_555
H71 C48 1_555 1_555
H72 C48 1_555 1_555
C49 C50 1_555 1_555
C50 H73 1_555 1_555
H74 C50 1_555 1_555
C51 C50 1_555 1_555
H75 C51 1_555 1_555
H76 C51 1_555 1_555
C52 C51 1_555 1_555
H77 C52 1_555 1_555
H78 C52 1_555 1_555
C53 C52 1_555 1_555
H79 C53 1_555 1_555
H80 C53 1_555 1_555
C54 C53 1_555 1_555
C55 O9 1_555 1_555
C56 C55 1_555 1_555
H81 C56 1_555 1_555
H82 C56 1_555 1_555
C57 C56 1_555 1_555
H83 C57 1_555 1_555
H84 C57 1_555 1_555
C58 C57 1_555 1_555
H85 C58 1_555 1_555
H86 C58 1_555 1_555
C59 C58 1_555 1_555
H87 C59 1_555 1_555
H88 C59 1_555 1_555
C60 C59 1_555 1_555
Zn2_2 O12 1_555 1_555
O12_2 Zn2 1_555 1_555
C2 C3 1_555 1_555
C4 C5 1_555 1_555
C7 C10 1_555 1_555
C14 C15 1_555 1_555
C16 C17 1_555 1_555
C19 C22 1_555 1_555
C26 C27 1_555 1_555
C28 C29 1_555 1_555
C31 C34 1_555 1_555
C38 C39 1_555 1_555
C40 C41 1_555 1_555
C43 C46 1_555 1_555

#END
