
#######################################################################
#
#                 Cambridge Crystallographic Data Centre
#                                CCDC 
#
#######################################################################
#
# If this CIF has been generated from an entry in the Cambridge 
# Structural Database, then it will include bibliographic, chemical, 
# crystal, experimental, refinement or atomic coordinate data resulting 
# from the CCDC's data processing and validation procedures.
#
#######################################################################

data_HINQIG
_symmetry_cell_setting           monoclinic
_symmetry_space_group_name_H-M   'P 21/c'
_symmetry_Int_Tables_number      14
_space_group_name_Hall           '-P 2ybc'
loop_
_symmetry_equiv_pos_site_id
_symmetry_equiv_pos_as_xyz
1 x,y,z
2 -x,1/2+y,1/2-z
3 -x,-y,-z
4 x,1/2-y,1/2+z
_cell_length_a                   13.209(4)
_cell_length_b                   13.052(4)
_cell_length_c                   9.118(2)
_cell_angle_alpha                90
_cell_angle_beta                 100.330(12)
_cell_angle_gamma                90
_cell_volume                     1546.5
loop_
_atom_site_label
_atom_site_type_symbol
_atom_site_fract_x
_atom_site_fract_y
_atom_site_fract_z
Eu1 Eu 1.269307(9) 0.213147(9) 0.528729(13)
Cl1 Cl 1.40934(5) 0.12910(5) 0.31652(7)
O1 O 1.15140(16) 0.29728(14) 0.6397(2)
O2 O 1.11195(15) 0.33081(16) 0.8622(2)
O3 O 0.75162(15) 0.64814(14) 0.6432(2)
O4 O 0.80573(16) 0.57030(16) 0.8593(2)
O5 O 1.41528(17) 0.12444(16) 0.6808(2)
H1 H 1.421(3) 0.141(3) 0.774(5)
H2 H 1.439(3) 0.080(3) 0.677(4)
O6 O 1.32042(15) 0.08076(14) 0.3681(2)
O7 O 1.42729(15) 0.22682(14) 0.4031(2)
O8 O 1.50036(16) 0.06493(15) 0.3444(2)
O9 O 1.38171(15) 0.15371(14) 0.1562(2)
N1 N 0.75696(19) 0.32675(19) 0.2103(3)
N2 N 0.6607(3) 0.1888(3) 0.1932(4)
C1 C 0.8748(2) 0.4121(2) 0.4158(3)
C2 C 0.9612(2) 0.3621(2) 0.4934(3)
H3 H 0.9987 0.3164 0.4421
C3 C 0.9931(2) 0.37870(19) 0.6462(3)
C4 C 0.93794(19) 0.44542(19) 0.7208(3)
H4 H 0.9581 0.4554 0.8252
C5 C 0.8530(2) 0.49776(19) 0.6429(3)
C6 C 0.8212(2) 0.4807(2) 0.4904(3)
H5 H 0.7629 0.5159 0.4375
C7 C 0.8449(2) 0.3977(2) 0.2490(3)
H6 H 0.8265 0.4649 0.2014
H7 H 0.9045 0.3703 0.2093
C8 C 0.7526(3) 0.2286(3) 0.2604(4)
H8 H 0.8041 0.1945 0.3293
C9 C 0.6119(2) 0.2641(2) 0.1039(4)
H9 H 0.5460 0.2580 0.0425
C10 C 0.6703(2) 0.3468(2) 0.1157(4)
H10 H 0.6533 0.4099 0.0653
C11 C 1.0924(2) 0.33143(19) 0.7229(3)
C12 C 0.7995(2) 0.57780(19) 0.7207(3)
Eu1A Eu 0.730693(9) 0.713147(9) 0.971271(13)
Eu1B Eu 0.730693(9) 0.786853(9) 0.471271(13)
Eu1C Eu 1.269307(9) 0.286853(9) 0.028729(13)
Eu1C_2 Eu 1.269307(9) 0.286853(9) 1.028729(13)
O2C O 1.11195(15) 0.16919(16) 0.3622(2)
O3B O 1.24838(15) 0.35186(14) 0.3568(2)
O4A O 1.19427(16) 0.07030(16) 0.6407(2)
O9C O 1.38171(15) 0.34629(14) 0.6562(2)
O10 O 0.5061(11) 0.0323(7) 0.9733(9)
loop_
_geom_bond_atom_site_label_1
_geom_bond_atom_site_label_2
_geom_bond_site_symmetry_1
_geom_bond_site_symmetry_2
Eu1 O1 1_555 1_555
Cl1 O6 1_555 1_555
O1 C11 1_555 1_555
O2 C11 1_555 1_555
O3 C12 1_555 1_555
O4 C12 1_555 1_555
O5 Eu1 1_555 1_555
H1 O5 1_555 1_555
H2 O5 1_555 1_555
O6 Eu1 1_555 1_555
O7 Eu1 1_555 1_555
O8 Cl1 1_555 1_555
O9 Cl1 1_555 1_555
N1 C7 1_555 1_555
N2 C8 1_555 1_555
C1 C2 1_555 1_555
C2 H3 1_555 1_555
C3 C2 1_555 1_555
C4 C3 1_555 1_555
H4 C4 1_555 1_555
C5 C4 1_555 1_555
C6 C1 1_555 1_555
H5 C6 1_555 1_555
C7 C1 1_555 1_555
H6 C7 1_555 1_555
H7 C7 1_555 1_555
C8 N1 1_555 1_555
H8 C8 1_555 1_555
C9 N2 1_555 1_555
H9 C9 1_555 1_555
C10 N1 1_555 1_555
H10 C10 1_555 1_555
C11 C3 1_555 1_555
C12 C5 1_555 1_555
Eu1A O4 1_555 1_555
Eu1B O3 1_555 1_555
Eu1C O9 1_555 1_555
Eu1C_2 O2 1_555 1_555
O2C Eu1 1_555 1_555
O3B Eu1 1_555 1_555
O4A Eu1 1_555 1_555
O9C Eu1 1_555 1_555
Cl1 O7 1_555 1_555
C5 C6 1_555 1_555
C9 C10 1_555 1_555

#END
