
#######################################################################
#
#                 Cambridge Crystallographic Data Centre
#                                CCDC 
#
#######################################################################
#
# If this CIF has been generated from an entry in the Cambridge 
# Structural Database, then it will include bibliographic, chemical, 
# crystal, experimental, refinement or atomic coordinate data resulting 
# from the CCDC's data processing and validation procedures.
#
#######################################################################

data_HINQEC
_symmetry_cell_setting           monoclinic
_symmetry_space_group_name_H-M   'P 21/c'
_symmetry_Int_Tables_number      14
_space_group_name_Hall           '-P 2ybc'
loop_
_symmetry_equiv_pos_site_id
_symmetry_equiv_pos_as_xyz
1 x,y,z
2 -x,1/2+y,1/2-z
3 -x,-y,-z
4 x,1/2-y,1/2+z
_cell_length_a                   13.238(5)
_cell_length_b                   13.067(4)
_cell_length_c                   9.109(3)
_cell_angle_alpha                90
_cell_angle_beta                 100.401(15)
_cell_angle_gamma                90
_cell_volume                     1549.79
loop_
_atom_site_label
_atom_site_type_symbol
_atom_site_fract_x
_atom_site_fract_y
_atom_site_fract_z
Sm1 Sm 0.230448(10) 0.287153(10) 0.470832(14)
Cl1 Cl 0.08972(5) 0.37116(5) 0.68373(7)
O1 O 0.34922(17) 0.20228(16) 0.3606(2)
O2 O 0.38847(16) 0.16803(17) 0.1377(2)
O3 O 0.69525(17) -0.06795(17) 0.1399(2)
O4 O 0.74856(16) -0.14779(15) 0.3555(2)
O5 O 0.08326(18) 0.37569(18) 0.3187(3)
H1 H 0.081(3) 0.358(3) 0.233(5)
H2 H 0.064(3) 0.424(3) 0.333(5)
O6 O 0.17825(16) 0.41979(15) 0.6323(2)
O7 O 0.07257(16) 0.27353(15) 0.5974(2)
O8 O -0.00159(17) 0.43483(17) 0.6550(3)
O9 O 0.11695(16) 0.34681(16) 0.8446(2)
N1 N 0.7428(2) 0.1730(2) 0.7910(3)
N2 N 0.8385(3) 0.3106(3) 0.8068(5)
C1 C 0.6254(2) 0.0878(2) 0.5850(3)
C2 C 0.5394(2) 0.1374(2) 0.5076(3)
H3 H 0.5022 0.1831 0.5590
C3 C 0.5070(2) 0.1208(2) 0.3546(3)
C4 C 0.5625(2) 0.0546(2) 0.2795(3)
H4 H 0.5426 0.0450 0.1749
C5 C 0.6474(2) 0.0025(2) 0.3574(3)
C6 C 0.6790(2) 0.0196(2) 0.5103(3)
H5 H 0.7372 -0.0155 0.5633
C7 C 0.6552(2) 0.1025(2) 0.7522(3)
H6 H 0.5957 0.1300 0.7915
H7 H 0.6734 0.0354 0.8002
C8 C 0.7473(3) 0.2709(3) 0.7401(4)
H8 H 0.6960 0.3048 0.6707
C9 C 0.8878(2) 0.2360(2) 0.8963(4)
H9 H 0.9538 0.2424 0.9571
C10 C 0.8294(3) 0.1533(3) 0.8855(4)
H10 H 0.8464 0.0905 0.9366
C11 C 0.4079(2) 0.1682(2) 0.2776(3)
C12 C 0.7010(2) -0.0767(2) 0.2788(3)
Sm1A Sm 0.769552(10) -0.212847(10) 0.029168(14)
Sm1B Sm 0.769552(10) -0.287153(10) 0.529168(14)
Sm1C Sm 0.230448(10) 0.212847(10) -0.029168(14)
Sm1C_2 Sm 0.230448(10) 0.212847(10) 0.970832(14)
O2C O 0.38847(16) 0.33197(17) 0.6377(2)
O3A O 0.30475(17) 0.43205(17) 0.3601(2)
O4B O 0.25144(16) 0.14779(15) 0.6445(2)
O9C O 0.11695(16) 0.15319(16) 0.3446(2)
O10 O 0.9943(13) 0.0324(10) 0.5283(10)
O10B O 1.0057(13) -0.0324(10) 0.4717(10)
H11? H 1.019(7) 0.051(7) 0.453(7)
loop_
_geom_bond_atom_site_label_1
_geom_bond_atom_site_label_2
_geom_bond_site_symmetry_1
_geom_bond_site_symmetry_2
Sm1 O1 1_555 1_555
Cl1 O6 1_555 1_555
O1 C11 1_555 1_555
O2 C11 1_555 1_555
O3 C12 1_555 1_555
O4 C12 1_555 1_555
O5 Sm1 1_555 1_555
H1 O5 1_555 1_555
H2 O5 1_555 1_555
O6 Sm1 1_555 1_555
O7 Sm1 1_555 1_555
O8 Cl1 1_555 1_555
O9 Cl1 1_555 1_555
N1 C7 1_555 1_555
N2 C8 1_555 1_555
C1 C2 1_555 1_555
C2 H3 1_555 1_555
C3 C2 1_555 1_555
C4 C3 1_555 1_555
H4 C4 1_555 1_555
C5 C4 1_555 1_555
C6 C1 1_555 1_555
H5 C6 1_555 1_555
C7 C1 1_555 1_555
H6 C7 1_555 1_555
H7 C7 1_555 1_555
C8 N1 1_555 1_555
H8 C8 1_555 1_555
C9 N2 1_555 1_555
H9 C9 1_555 1_555
C10 N1 1_555 1_555
H10 C10 1_555 1_555
C11 C3 1_555 1_555
C12 C5 1_555 1_555
Sm1A O3 1_555 1_555
Sm1B O4 1_555 1_555
Sm1C O2 1_555 1_555
Sm1C_2 O9 1_555 1_555
O2C Sm1 1_555 1_555
O3A Sm1 1_555 1_555
O4B Sm1 1_555 1_555
O9C Sm1 1_555 1_555
Cl1 O7 1_555 1_555
C5 C6 1_555 1_555
C9 C10 1_555 1_555

#END
