
#######################################################################
#
#                 Cambridge Crystallographic Data Centre
#                                CCDC 
#
#######################################################################
#
# If this CIF has been generated from an entry in the Cambridge 
# Structural Database, then it will include bibliographic, chemical, 
# crystal, experimental, refinement or atomic coordinate data resulting 
# from the CCDC's data processing and validation procedures.
#
#######################################################################

data_HINQAY
_symmetry_cell_setting           orthorhombic
_symmetry_space_group_name_H-M   'P 21 21 21'
_symmetry_Int_Tables_number      19
_space_group_name_Hall           'P 2ac 2ab'
loop_
_symmetry_equiv_pos_site_id
_symmetry_equiv_pos_as_xyz
1 x,y,z
2 1/2-x,-y,1/2+z
3 1/2+x,1/2-y,-z
4 -x,1/2+y,1/2-z
_cell_length_a                   22.4061(10)
_cell_length_b                   10.8872(5)
_cell_length_c                   25.1928(11)
_cell_angle_alpha                90
_cell_angle_beta                 90
_cell_angle_gamma                90
_cell_volume                     6145.52
loop_
_atom_site_label
_atom_site_type_symbol
_atom_site_fract_x
_atom_site_fract_y
_atom_site_fract_z
Ni1 Ni 0.42193(2) 0.72096(4) 0.003498(19)
O1 O 0.46394(15) 1.1631(3) -0.20660(12)
O2 O 0.47224(16) 0.3136(3) 0.22553(12)
O3 O 0.33025(11) 0.6862(2) -0.00041(11)
O4 O 0.29592(12) 0.8792(2) 0.00145(13)
O5 O 0.01039(14) 0.7433(2) -0.01274(13)
O6 O 0.05627(13) 0.8926(3) 0.03246(12)
O7 O 0.43965(12) 0.5547(2) -0.03618(10)
H1 H 0.4337 0.4833 -0.0247
H2 H 0.4767 0.5631 -0.0395
O8 O 0.40663(12) 0.8908(2) 0.04103(10)
H3 H 0.4302 0.9428 0.0280
H4 H 0.3725 0.9041 0.0262
N1 N 0.42135(16) 0.8057(3) -0.07057(13)
N2 N 0.45010(17) 1.0784(4) -0.23850(15)
N3 N 0.41317(18) 0.8986(3) -0.26733(14)
N4 N 0.42034(17) 0.6400(3) 0.07838(13)
N5 N 0.45651(17) 0.4027(4) 0.25465(15)
N6 N 0.41704(18) 0.5849(3) 0.27679(14)
C1 C 0.4217(2) 0.9180(4) -0.17069(16)
C2 C 0.3848(2) 0.8171(4) -0.15989(17)
H5 H 0.3595 0.7847 -0.1867
C3 C 0.3857(2) 0.7657(4) -0.10999(17)
H6 H 0.3598 0.6985 -0.1030
C4 C 0.4560(2) 0.9035(4) -0.08075(17)
H7 H 0.4811 0.9335 -0.0533
C5 C 0.45667(19) 0.9629(4) -0.12959(17)
H8 H 0.4808 1.0336 -0.1348
C6 C 0.4263(2) 0.9629(4) -0.22624(17)
C7 C 0.4653(2) 1.0803(4) -0.29563(18)
C8 C 0.4536(2) 1.2070(4) -0.31859(18)
H9 H 0.4118 1.2294 -0.3126
H10 H 0.4618 1.2061 -0.3568
H11 H 0.4796 1.2671 -0.3012
C9 C 0.5319(2) 1.0498(5) -0.29914(19)
H12 H 0.5549 1.1135 -0.2808
H13 H 0.5440 1.0464 -0.3365
H14 H 0.5393 0.9701 -0.2823
C10 C 0.4251(2) 0.9734(4) -0.31589(17)
C11 C 0.3642(2) 1.0191(5) -0.3364(2)
H15 H 0.3372 0.9490 -0.3408
H16 H 0.3696 1.0604 -0.3706
H17 H 0.3471 1.0769 -0.3108
C12 C 0.4525(2) 0.8918(5) -0.35812(18)
H18 H 0.4903 0.8580 -0.3451
H19 H 0.4599 0.9401 -0.3903
H20 H 0.4250 0.8244 -0.3663
C13 C 0.4264(2) 0.5495(4) 0.18163(17)
C14 C 0.3887(2) 0.6477(4) 0.16877(17)
H21 H 0.3650 0.6854 0.1954
C15 C 0.3864(2) 0.6885(4) 0.11771(17)
H22 H 0.3599 0.7538 0.1093
C16 C 0.45652(19) 0.5459(4) 0.09133(17)
H23 H 0.4812 0.5119 0.0644
C17 C 0.45971(19) 0.4966(4) 0.14135(16)
H24 H 0.4844 0.4275 0.1483
C18 C 0.4319(2) 0.5142(4) 0.23806(17)
C19 C 0.4709(2) 0.4114(4) 0.31252(18)
C20 C 0.4593(2) 0.2892(4) 0.33970(19)
H25 H 0.4171 0.2671 0.3357
H26 H 0.4690 0.2960 0.3775
H27 H 0.4843 0.2255 0.3234
C21 C 0.5365(2) 0.4457(5) 0.31497(19)
H28 H 0.5602 0.3828 0.2968
H29 H 0.5491 0.4512 0.3521
H30 H 0.5425 0.5253 0.2976
C22 C 0.4284(2) 0.5192(4) 0.32777(17)
C23 C 0.3667(2) 0.4746(5) 0.3464(2)
H31 H 0.3390 0.5442 0.3475
H32 H 0.3701 0.4386 0.3819
H33 H 0.3516 0.4125 0.3216
C24 C 0.4539(3) 0.6091(5) 0.36724(18)
H34 H 0.4906 0.6451 0.3529
H35 H 0.4629 0.5663 0.4005
H36 H 0.4247 0.6744 0.3740
C25 C 0.2882(2) 0.7647(3) -0.00303(15)
C26 C 0.22549(17) 0.7179(4) -0.01334(15)
H37 H 0.2214 0.6374 0.0046
H38 H 0.2216 0.7030 -0.0520
C27 C 0.17329(16) 0.7978(3) 0.00387(17)
H39 H 0.1746 0.8770 -0.0154
H40 H 0.1764 0.8153 0.0423
C28 C 0.1144(2) 0.7330(4) -0.00762(19)
H41 H 0.1140 0.7125 -0.0459
H42 H 0.1149 0.6542 0.0120
C29 C 0.05621(18) 0.7959(4) 0.00493(16)
Ni1B Ni -0.07807(2) 0.77904(4) -0.003498(19)
O5B O 0.51039(14) 0.7567(2) 0.01274(13)
Ni2 Ni 0.17278(3) 0.72774(4) 0.49745(2)
O9 O 0.22149(16) 0.3226(3) 0.27489(12)
O10 O 0.21743(17) 1.1711(3) 0.70738(14)
O11 O 0.08138(11) 0.6907(2) 0.50167(10)
O12 O 0.04509(11) 0.8823(2) 0.49937(12)
O13 O -0.23907(14) 0.7354(2) 0.51161(12)
O14 O -0.19281(13) 0.8945(3) 0.47360(12)
O15 O 0.19089(12) 0.5601(2) 0.53644(10)
H43 H 0.1806 0.4886 0.5278
H44 H 0.2282 0.5637 0.5333
O16 O 0.15679(12) 0.8966(3) 0.45967(11)
H45 H 0.1823 0.9478 0.4699
H46 H 0.1249 0.9126 0.4758
N7 N 0.17105(16) 0.6479(3) 0.42283(13)
N8 N 0.20297(16) 0.4114(4) 0.24624(13)
N9 N 0.16250(18) 0.5940(3) 0.22506(14)
N10 N 0.17264(16) 0.8142(3) 0.57163(13)
N11 N 0.20321(18) 1.0850(4) 0.73970(16)
N12 N 0.16528(18) 0.9062(3) 0.76833(14)
C30 C 0.1744(2) 0.5577(4) 0.31925(17)
C31 C 0.21067(19) 0.5068(4) 0.35900(17)
H47 H 0.2367 0.4403 0.3514
C32 C 0.20743(19) 0.5564(4) 0.40953(16)
H48 H 0.2326 0.5231 0.4362
C33 C 0.1353(2) 0.6939(4) 0.38487(18)
H49 H 0.1081 0.7573 0.3942
C34 C 0.1363(2) 0.6531(4) 0.33303(17)
H50 H 0.1113 0.6899 0.3071
C35 C 0.1790(2) 0.5220(4) 0.26323(17)
C36 C 0.2150(2) 0.4196(4) 0.18816(17)
C37 C 0.2814(2) 0.4553(5) 0.1842(2)
H51 H 0.2883 0.5315 0.2040
H52 H 0.2921 0.4677 0.1469
H53 H 0.3060 0.3895 0.1992
C38 C 0.2036(2) 0.2975(4) 0.16173(18)
H54 H 0.2324 0.2369 0.1749
H55 H 0.2081 0.3063 0.1232
H56 H 0.1630 0.2699 0.1699
C39 C 0.1716(2) 0.5268(4) 0.17400(18)
C40 C 0.1103(3) 0.4815(5) 0.1566(2)
H57 H 0.0943 0.4253 0.1834
H58 H 0.1139 0.4384 0.1226
H59 H 0.0833 0.5518 0.1525
C41 C 0.1972(3) 0.6175(4) 0.13277(19)
H60 H 0.1660 0.6756 0.1221
H61 H 0.2111 0.5719 0.1016
H62 H 0.2307 0.6626 0.1485
C42 C 0.1742(2) 0.9244(4) 0.67185(17)
C43 C 0.1378(2) 0.8242(4) 0.66149(19)
H63 H 0.1132 0.7907 0.6886
C44 C 0.1379(2) 0.7741(4) 0.61132(17)
H64 H 0.1118 0.7072 0.6044
C45 C 0.2075(2) 0.9104(4) 0.58169(16)
H65 H 0.2323 0.9397 0.5539
C46 C 0.20991(19) 0.9708(4) 0.63017(17)
H66 H 0.2346 1.0407 0.6351
C47 C 0.1800(2) 0.9711(4) 0.72713(17)
C48 C 0.2173(2) 1.0888(4) 0.79744(18)
C49 C 0.2844(2) 1.0577(5) 0.80170(19)
H67 H 0.2913 0.9743 0.7884
H68 H 0.2970 1.0628 0.8389
H69 H 0.3075 1.1163 0.7805
C50 C 0.2054(2) 1.2155(4) 0.8193(2)
H70 H 0.2330 1.2744 0.8030
H71 H 0.2114 1.2150 0.8579
H72 H 0.1642 1.2393 0.8114
C51 C 0.1758(2) 0.9827(4) 0.81667(17)
C52 C 0.2029(3) 0.9022(5) 0.86054(19)
H73 H 0.1730 0.8433 0.8730
H74 H 0.2157 0.9543 0.8902
H75 H 0.2374 0.8576 0.8464
C53 C 0.1141(2) 1.0293(5) 0.83315(19)
H76 H 0.0975 1.0802 0.8047
H77 H 0.1177 1.0784 0.8656
H78 H 0.0877 0.9592 0.8397
C54 C 0.0387(2) 0.7675(4) 0.50294(14)
C55 C -0.02320(18) 0.7149(4) 0.51148(16)
H79 H -0.0277 0.6965 0.5497
H80 H -0.0256 0.6359 0.4922
C56 C -0.07622(16) 0.7942(4) 0.49437(16)
H81 H -0.0747 0.8744 0.5128
H82 H -0.0744 0.8093 0.4557
C57 C -0.1341(2) 0.7279(4) 0.50816(19)
H83 H -0.1342 0.6485 0.4890
H84 H -0.1332 0.7088 0.5466
C58 C -0.19280(18) 0.7922(4) 0.49643(16)
Ni2B Ni -0.32722(3) 0.77226(4) 0.50255(2)
O13B O 0.26093(14) 0.7646(2) 0.48839(12)
loop_
_geom_bond_atom_site_label_1
_geom_bond_atom_site_label_2
_geom_bond_site_symmetry_1
_geom_bond_site_symmetry_2
Ni1 O3 1_555 1_555
O1 N2 1_555 1_555
O2 N5 1_555 1_555
O3 C25 1_555 1_555
O4 C25 1_555 1_555
O5 C29 1_555 1_555
O6 C29 1_555 1_555
O7 Ni1 1_555 1_555
H1 O7 1_555 1_555
H2 O7 1_555 1_555
O8 Ni1 1_555 1_555
H3 O8 1_555 1_555
H4 O8 1_555 1_555
N1 Ni1 1_555 1_555
N2 C6 1_555 1_555
N3 C6 1_555 1_555
N4 Ni1 1_555 1_555
N5 C18 1_555 1_555
N6 C18 1_555 1_555
C1 C2 1_555 1_555
C2 H5 1_555 1_555
C3 N1 1_555 1_555
H6 C3 1_555 1_555
C4 N1 1_555 1_555
H7 C4 1_555 1_555
C5 C1 1_555 1_555
H8 C5 1_555 1_555
C6 C1 1_555 1_555
C7 N2 1_555 1_555
C8 C7 1_555 1_555
H9 C8 1_555 1_555
H10 C8 1_555 1_555
H11 C8 1_555 1_555
C9 C7 1_555 1_555
H12 C9 1_555 1_555
H13 C9 1_555 1_555
H14 C9 1_555 1_555
C10 N3 1_555 1_555
C11 C10 1_555 1_555
H15 C11 1_555 1_555
H16 C11 1_555 1_555
H17 C11 1_555 1_555
C12 C10 1_555 1_555
H18 C12 1_555 1_555
H19 C12 1_555 1_555
H20 C12 1_555 1_555
C13 C14 1_555 1_555
C14 H21 1_555 1_555
C15 N4 1_555 1_555
H22 C15 1_555 1_555
C16 N4 1_555 1_555
H23 C16 1_555 1_555
C17 C13 1_555 1_555
H24 C17 1_555 1_555
C18 C13 1_555 1_555
C19 N5 1_555 1_555
C20 C19 1_555 1_555
H25 C20 1_555 1_555
H26 C20 1_555 1_555
H27 C20 1_555 1_555
C21 C19 1_555 1_555
H28 C21 1_555 1_555
H29 C21 1_555 1_555
H30 C21 1_555 1_555
C22 N6 1_555 1_555
C23 C22 1_555 1_555
H31 C23 1_555 1_555
H32 C23 1_555 1_555
H33 C23 1_555 1_555
C24 C22 1_555 1_555
H34 C24 1_555 1_555
H35 C24 1_555 1_555
H36 C24 1_555 1_555
C25 C26 1_555 1_555
C26 H37 1_555 1_555
H38 C26 1_555 1_555
C27 C26 1_555 1_555
H39 C27 1_555 1_555
H40 C27 1_555 1_555
C28 C27 1_555 1_555
H41 C28 1_555 1_555
H42 C28 1_555 1_555
C29 C28 1_555 1_555
Ni2 O11 1_555 1_555
O9 N8 1_555 1_555
O10 N11 1_555 1_555
O11 C54 1_555 1_555
O12 C54 1_555 1_555
O13 C58 1_555 1_555
O14 C58 1_555 1_555
O15 Ni2 1_555 1_555
H43 O15 1_555 1_555
H44 O15 1_555 1_555
O16 Ni2 1_555 1_555
H45 O16 1_555 1_555
H46 O16 1_555 1_555
N7 Ni2 1_555 1_555
N8 C35 1_555 1_555
N9 C35 1_555 1_555
N10 Ni2 1_555 1_555
N11 C47 1_555 1_555
N12 C47 1_555 1_555
C30 C31 1_555 1_555
C31 H47 1_555 1_555
C32 N7 1_555 1_555
H48 C32 1_555 1_555
C33 N7 1_555 1_555
H49 C33 1_555 1_555
C34 C30 1_555 1_555
H50 C34 1_555 1_555
C35 C30 1_555 1_555
C36 N8 1_555 1_555
C37 C36 1_555 1_555
H51 C37 1_555 1_555
H52 C37 1_555 1_555
H53 C37 1_555 1_555
C38 C36 1_555 1_555
H54 C38 1_555 1_555
H55 C38 1_555 1_555
H56 C38 1_555 1_555
C39 N9 1_555 1_555
C40 C39 1_555 1_555
H57 C40 1_555 1_555
H58 C40 1_555 1_555
H59 C40 1_555 1_555
C41 C39 1_555 1_555
H60 C41 1_555 1_555
H61 C41 1_555 1_555
H62 C41 1_555 1_555
C42 C43 1_555 1_555
C43 H63 1_555 1_555
C44 N10 1_555 1_555
H64 C44 1_555 1_555
C45 N10 1_555 1_555
H65 C45 1_555 1_555
C46 C42 1_555 1_555
H66 C46 1_555 1_555
C47 C42 1_555 1_555
C48 N11 1_555 1_555
C49 C48 1_555 1_555
H67 C49 1_555 1_555
H68 C49 1_555 1_555
H69 C49 1_555 1_555
C50 C48 1_555 1_555
H70 C50 1_555 1_555
H71 C50 1_555 1_555
H72 C50 1_555 1_555
C51 N12 1_555 1_555
C52 C51 1_555 1_555
H73 C52 1_555 1_555
H74 C52 1_555 1_555
H75 C52 1_555 1_555
C53 C51 1_555 1_555
H76 C53 1_555 1_555
H77 C53 1_555 1_555
H78 C53 1_555 1_555
C54 C55 1_555 1_555
C55 H79 1_555 1_555
H80 C55 1_555 1_555
C56 C55 1_555 1_555
H81 C56 1_555 1_555
H82 C56 1_555 1_555
C57 C56 1_555 1_555
H83 C57 1_555 1_555
H84 C57 1_555 1_555
C58 C57 1_555 1_555
Ni1B O5 1_555 1_555
O5B Ni1 1_555 1_555
Ni2B O13 1_555 1_555
O13B Ni2 1_555 1_555
C2 C3 1_555 1_555
C4 C5 1_555 1_555
C7 C10 1_555 1_555
C14 C15 1_555 1_555
C16 C17 1_555 1_555
C19 C22 1_555 1_555
C31 C32 1_555 1_555
C33 C34 1_555 1_555
C36 C39 1_555 1_555
C43 C44 1_555 1_555
C45 C46 1_555 1_555
C48 C51 1_555 1_555

#END
