
#######################################################################
#
#                 Cambridge Crystallographic Data Centre
#                                CCDC 
#
#######################################################################
#
# If this CIF has been generated from an entry in the Cambridge 
# Structural Database, then it will include bibliographic, chemical, 
# crystal, experimental, refinement or atomic coordinate data resulting 
# from the CCDC's data processing and validation procedures.
#
#######################################################################

data_HINQOM
_symmetry_cell_setting           monoclinic
_symmetry_space_group_name_H-M   'P 21/c'
_symmetry_Int_Tables_number      14
_space_group_name_Hall           '-P 2ybc'
loop_
_symmetry_equiv_pos_site_id
_symmetry_equiv_pos_as_xyz
1 x,y,z
2 -x,1/2+y,1/2-z
3 -x,-y,-z
4 x,1/2-y,1/2+z
_cell_length_a                   13.180(4)
_cell_length_b                   12.887(3)
_cell_length_c                   9.084(3)
_cell_angle_alpha                90
_cell_angle_beta                 100.549(12)
_cell_angle_gamma                90
_cell_volume                     1516.85
loop_
_atom_site_label
_atom_site_type_symbol
_atom_site_fract_x
_atom_site_fract_y
_atom_site_fract_z
Er1 Er 0.732456(9) 0.713563(9) 0.471920(13)
Cl1 Cl 0.59520(5) 0.62952(5) 0.68289(8)
O1 O 0.80641(18) 0.57454(17) 0.3590(2)
O2 O 0.75227(16) 0.64967(16) 0.1378(2)
O3 O 1.11455(17) 0.32953(18) 0.3645(2)
O4 O 1.15336(18) 0.29659(16) 0.1394(3)
O5 O 0.59127(19) 0.62544(19) 0.3195(3)
H1 H 0.586(3) 0.646(3) 0.225(5)
H2 H 0.566(3) 0.582(4) 0.328(5)
O6 O 0.57435(18) 0.72764(16) 0.5939(2)
O7 O 0.68441(17) 0.58229(16) 0.6292(2)
O8 O 0.50619(19) 0.56153(18) 0.6577(3)
O9 O 0.62342(17) 0.65613(16) 0.8433(2)
N1 N 0.7559(2) 0.3233(2) -0.2893(3)
N2 N 0.6572(3) 0.1855(3) -0.3026(5)
C1 C 0.8756(2) 0.4089(2) -0.0839(3)
C2 C 0.8224(2) 0.4794(2) -0.0090(3)
H3 H 0.7638 0.5149 -0.0624
C3 C 0.8547(2) 0.4977(2) 0.1431(3)
C4 C 0.9398(2) 0.4455(2) 0.2220(3)
H4 H 0.9604 0.4564 0.3266
C5 C 0.9949(2) 0.3774(2) 0.1479(3)
C6 C 0.9622(2) 0.3591(2) -0.0056(3)
H5 H 0.9997 0.3124 -0.0563
C7 C 0.8452(2) 0.3929(2) -0.2515(3)
H6 H 0.8283 0.4609 -0.3007
H7 H 0.9044 0.3633 -0.2904
C8 C 0.7498(3) 0.2240(3) -0.2377(5)
H8 H 0.8013 0.1887 -0.1690
C9 C 0.6085(2) 0.2619(3) -0.3935(4)
H9 H 0.5419 0.2565 -0.4543
C10 C 0.6690(3) 0.3449(3) -0.3835(4)
H10 H 0.6529 0.4087 -0.4349
C11 C 0.8002(2) 0.5798(2) 0.2188(3)
C12 C 1.0953(2) 0.3300(2) 0.2237(3)
Er1A Er 1.267544(9) 0.213563(9) 0.028080(13)
Er1B Er 1.267544(9) 0.286437(9) 0.528080(13)
Er1C Er 0.732456(9) 0.786437(9) -0.028080(13)
Er1C_2 Er 0.732456(9) 0.786437(9) 0.971920(13)
O2C O 0.75227(16) 0.85033(16) 0.6378(2)
O3B O 0.88545(17) 0.67047(18) 0.6355(2)
O4A O 0.84664(18) 0.79659(16) 0.3606(3)
O9C O 0.62342(17) 0.84387(16) 0.3433(2)
O10 O 0.5010(17) 0.9712(11) 0.5281(13)
O10B O 0.4990(17) 1.0288(11) 0.4719(13)
H11? H 0.479(9) 1.028(5) 0.560(12)
loop_
_geom_bond_atom_site_label_1
_geom_bond_atom_site_label_2
_geom_bond_site_symmetry_1
_geom_bond_site_symmetry_2
Er1 O1 1_555 1_555
Cl1 O6 1_555 1_555
O1 C11 1_555 1_555
O2 C11 1_555 1_555
O3 C12 1_555 1_555
O4 C12 1_555 1_555
O5 Er1 1_555 1_555
H1 O5 1_555 1_555
H2 O5 1_555 1_555
O6 Er1 1_555 1_555
O7 Er1 1_555 1_555
O8 Cl1 1_555 1_555
O9 Cl1 1_555 1_555
N1 C7 1_555 1_555
N2 C8 1_555 1_555
C1 C2 1_555 1_555
C2 H3 1_555 1_555
C3 C2 1_555 1_555
C4 C3 1_555 1_555
H4 C4 1_555 1_555
C5 C4 1_555 1_555
C6 C1 1_555 1_555
H5 C6 1_555 1_555
C7 C1 1_555 1_555
H6 C7 1_555 1_555
H7 C7 1_555 1_555
C8 N1 1_555 1_555
H8 C8 1_555 1_555
C9 N2 1_555 1_555
H9 C9 1_555 1_555
C10 N1 1_555 1_555
H10 C10 1_555 1_555
C11 C3 1_555 1_555
C12 C5 1_555 1_555
Er1A O4 1_555 1_555
Er1B O3 1_555 1_555
Er1C O2 1_555 1_555
Er1C_2 O9 1_555 1_555
O2C Er1 1_555 1_555
O3B Er1 1_555 1_555
O4A Er1 1_555 1_555
O9C Er1 1_555 1_555
Cl1 O7 1_555 1_555
C5 C6 1_555 1_555
C9 C10 1_555 1_555

#END
