
#######################################################################
#
#                 Cambridge Crystallographic Data Centre
#                                CCDC 
#
#######################################################################
#
# If this CIF has been generated from an entry in the Cambridge 
# Structural Database, then it will include bibliographic, chemical, 
# crystal, experimental, refinement or atomic coordinate data resulting 
# from the CCDC's data processing and validation procedures.
#
#######################################################################

data_HINRON
_symmetry_cell_setting           orthorhombic
_symmetry_space_group_name_H-M   'P n m a'
_symmetry_Int_Tables_number      62
_space_group_name_Hall           '-P 2ac 2n'
loop_
_symmetry_equiv_pos_site_id
_symmetry_equiv_pos_as_xyz
1 x,y,z
2 1/2-x,-y,1/2+z
3 1/2+x,1/2-y,1/2-z
4 -x,1/2+y,-z
5 -x,-y,-z
6 1/2+x,y,1/2-z
7 1/2-x,1/2+y,1/2+z
8 x,1/2-y,z
_cell_length_a                   13.612(4)
_cell_length_b                   18.014(5)
_cell_length_c                   9.503(3)
_cell_angle_alpha                90
_cell_angle_beta                 90
_cell_angle_gamma                90
_cell_volume                     2330.2
loop_
_atom_site_label
_atom_site_type_symbol
_atom_site_fract_x
_atom_site_fract_y
_atom_site_fract_z
Ag1 Ag 0.10180(9) 0.2500 0.10176(12)
O1 O 0.3614(7) 0.2500 0.1855(12)
H1 H 0.3078 0.2500 0.2249
O2 O 0.2684(8) 0.2500 -0.0033(11)
O3 O 0.7918(8) 0.2500 -0.0419(11)
N1 N 0.0670(7) 0.1341(4) 0.1238(9)
N2 N 0.0052(7) 0.0321(6) 0.2231(10)
C1 C 0.3491(13) 0.2500 0.0568(16)
C2 C 0.6091(11) 0.2500 -0.1914(15)
H2 H 0.6652 0.2500 -0.2473
O4 O 0.7135(7) 0.2500 0.1596(11)
C3 C 0.5320(10) 0.2500 0.0327(14)
H3 H 0.5362 0.2500 0.1304
C4 C 0.1192(8) 0.0728(6) 0.0789(11)
C5 C 0.4382(10) 0.2500 -0.0298(14)
C6 C 0.0842(9) 0.0078(7) 0.1343(11)
C7 C -0.0080(10) -0.0348(6) 0.4536(12)
H4 H 0.0548 -0.0586 0.4363
H5 H -0.0495 -0.0699 0.5033
C8 C 0.4359(12) 0.2500 -0.1754(17)
H6 H 0.3753 0.2500 -0.2204
C9 C 0.1174(11) -0.0616(7) 0.1098(15)
H7 H 0.0915 -0.1038 0.1522
C10 C -0.0563(9) -0.0145(7) 0.3115(13)
H8 H -0.0716 -0.0599 0.2610
H9 H -0.1177 0.0111 0.3297
C11 C -0.0005(9) 0.1058(7) 0.2107(11)
H10 H -0.0468 0.1345 0.2578
C12 C 0.6199(11) 0.2500 -0.0459(14)
C13 C 0.5191(13) 0.2500 -0.2554(17)
H11 H 0.5147 0.2500 -0.3531
C14 C 0.1970(9) 0.0705(6) -0.0171(12)
H12 H 0.2228 0.1133 -0.0574
C15 C 0.1961(13) -0.0629(7) 0.0122(18)
H13 H 0.2239 -0.1083 -0.0121
C16 C 0.2330(10) 0.0013(9) -0.0482(14)
H14 H 0.2842 -0.0026 -0.1125
C17 C 0.7154(11) 0.2500 0.0206(16)
N1D N -0.0670(7) -0.1341(4) 0.8762(9)
N2D N -0.0052(7) -0.0321(6) 0.7769(10)
C4D C -0.1192(8) -0.0728(6) 0.9211(11)
C6D C -0.0842(9) -0.0078(7) 0.8657(11)
C7D C 0.0080(10) 0.0348(6) 0.5464(12)
H4D H -0.0548 0.0586 0.5637
H5D H 0.0495 0.0699 0.4967
C9D C -0.1174(11) 0.0616(7) 0.8902(15)
H7D H -0.0915 0.1038 0.8478
C10D C 0.0563(9) 0.0145(7) 0.6885(13)
H8D H 0.0716 0.0599 0.7390
H9D H 0.1177 -0.0111 0.6703
C11D C 0.0005(9) -0.1058(7) 0.7893(11)
H10D H 0.0468 -0.1345 0.7422
C14D C -0.1970(9) -0.0705(6) 1.0171(12)
H12D H -0.2228 -0.1133 1.0574
C15D C -0.1961(13) 0.0629(7) 0.9878(18)
H13D H -0.2239 0.1083 1.0121
C16D C -0.2330(10) -0.0013(9) 1.0482(14)
H14D H -0.2842 0.0026 1.1125
Ag1C Ag -0.10180(9) -0.2500 0.89824(12)
N1G N 0.0670(7) 0.3659(4) 0.1238(9)
loop_
_geom_bond_atom_site_label_1
_geom_bond_atom_site_label_2
_geom_bond_site_symmetry_1
_geom_bond_site_symmetry_2
Ag1 O2 1_555 1_555
O1 H1 1_555 1_555
O2 C1 1_555 1_555
O3 C17 1_555 1_555
N1 Ag1 1_555 1_555
N2 C6 1_555 1_555
C1 O1 1_555 1_555
C2 H2 1_555 1_555
O4 C17 1_555 1_555
C3 H3 1_555 1_555
C4 N1 1_555 1_555
C5 C1 1_555 1_555
C6 C4 1_555 1_555
C7 H4 1_555 1_555
H5 C7 1_555 1_555
C8 C5 1_555 1_555
H6 C8 1_555 1_555
C9 C6 1_555 1_555
H7 C9 1_555 1_555
C10 N2 1_555 1_555
H8 C10 1_555 1_555
H9 C10 1_555 1_555
C11 N1 1_555 1_555
H10 C11 1_555 1_555
C12 C2 1_555 1_555
C13 C2 1_555 1_555
H11 C13 1_555 1_555
C14 C4 1_555 1_555
H12 C14 1_555 1_555
C15 C9 1_555 1_555
H13 C15 1_555 1_555
C16 C14 1_555 1_555
H14 C16 1_555 1_555
C17 C12 1_555 1_555
N1D C4D 1_555 1_555
N2D C6D 1_555 1_555
C4D C6D 1_555 1_555
C6D C9D 1_555 1_555
C7D C7 1_555 1_555
H4D C7D 1_555 1_555
H5D C7D 1_555 1_555
C9D H7D 1_555 1_555
C10D N2D 1_555 1_555
H8D C10D 1_555 1_555
H9D C10D 1_555 1_555
C11D N1D 1_555 1_555
H10D C11D 1_555 1_555
C14D C4D 1_555 1_555
H12D C14D 1_555 1_555
C15D C9D 1_555 1_555
H13D C15D 1_555 1_555
C16D C14D 1_555 1_555
H14D C16D 1_555 1_555
Ag1C N1D 1_555 1_555
N1G Ag1 1_555 1_555
N2 C11 1_555 1_555
C3 C5 1_555 1_555
C3 C12 1_555 1_555
C7 C10 1_555 1_555
C8 C13 1_555 1_555
C15 C16 1_555 1_555
N2D C11D 1_555 1_555
C7D C10D 1_555 1_555
C15D C16D 1_555 1_555

#END
