
#######################################################################
#
#                 Cambridge Crystallographic Data Centre
#                                CCDC 
#
#######################################################################
#
# If this CIF has been generated from an entry in the Cambridge 
# Structural Database, then it will include bibliographic, chemical, 
# crystal, experimental, refinement or atomic coordinate data resulting 
# from the CCDC's data processing and validation procedures.
#
#######################################################################

data_HINSUU
_symmetry_cell_setting           triclinic
_symmetry_space_group_name_H-M   'P -1'
_symmetry_Int_Tables_number      2
_space_group_name_Hall           '-P 1'
loop_
_symmetry_equiv_pos_site_id
_symmetry_equiv_pos_as_xyz
1 x,y,z
2 -x,-y,-z
_cell_length_a                   7.9492(12)
_cell_length_b                   10.5156(17)
_cell_length_c                   16.383(2)
_cell_angle_alpha                108.258(2)
_cell_angle_beta                 101.098(2)
_cell_angle_gamma                94.289(2)
_cell_volume                     1262.72
loop_
_atom_site_label
_atom_site_type_symbol
_atom_site_fract_x
_atom_site_fract_y
_atom_site_fract_z
Cu1 Cu 0.5000 1.0000 0.5000
Cu2 Cu 0.35065(3) 0.31575(3) 0.066918(17)
S1 S -0.01317(7) -0.37679(5) -0.17604(4)
O1 O 0.2299(2) 0.15334(15) -0.03367(10)
O2 O 0.0537(2) 0.25480(16) -0.11075(10)
O3 O -0.3232(2) -0.01464(15) -0.39955(10)
O4 O -0.3715(2) -0.24139(16) -0.43728(10)
O5 O -0.0921(2) -0.49175(17) -0.25463(11)
O6 O -0.1024(2) -0.36542(17) -0.10482(11)
O7 O 0.1724(2) -0.37242(17) -0.14475(12)
O8 O 0.6907(2) 1.18713(16) 0.49760(11)
H1 H 0.7633 1.2379 0.5437
H2 H 0.6551 1.2395 0.4697
O9 O 0.3167(2) 0.42837(16) -0.00993(10)
H3 H 0.2225 0.3900 -0.0473
H4 H 0.3032 0.5107 0.0113
N1 N 0.4395(2) 0.20067(18) 0.13795(12)
N2 N 0.5099(3) 0.46440(19) 0.17005(13)
H5 H 0.6185 0.4643 0.1568
N3 N 0.6119(2) 0.88048(18) 0.40988(12)
C1 C 0.5267(3) 0.2711(2) 0.22125(14)
C2 C 0.4266(3) 0.0646(2) 0.10958(16)
H6 H 0.3645 0.0150 0.0510
C3 C 0.5006(3) -0.0052(2) 0.16270(16)
H7 H 0.4889 -0.1012 0.1412
C4 C 0.5926(3) 0.0679(2) 0.24842(16)
H8 H 0.6458 0.0224 0.2861
C5 C 0.6055(3) 0.2078(2) 0.27802(15)
H9 H 0.6673 0.2596 0.3363
C6 C 0.5281(3) 0.4218(2) 0.24894(15)
H10 H 0.4313 0.4467 0.2780
H11 H 0.6381 0.4685 0.2916
C7 C 0.4738(3) 0.6053(2) 0.18731(15)
H12 H 0.3519 0.6081 0.1924
H13 H 0.4865 0.6328 0.1360
C8 C 0.5906(3) 0.7073(2) 0.27020(14)
C9 C 0.5176(3) 0.7849(2) 0.33592(14)
H14 H 0.3954 0.7699 0.3285
C10 C 0.7851(3) 0.9005(2) 0.42080(15)
H15 H 0.8523 0.9679 0.4728
C11 C 0.8688(3) 0.8266(2) 0.35912(15)
H16 H 0.9915 0.8419 0.3691
C12 C 0.7709(3) 0.7297(2) 0.28242(15)
H17 H 0.8257 0.6791 0.2387
C13 C 0.0191(3) 0.0152(2) -0.16114(14)
C14 C -0.0927(3) 0.0080(2) -0.24029(14)
H18 H -0.1141 0.0889 -0.2521
C15 C -0.1727(3) -0.1163(2) -0.30182(14)
C16 C -0.1443(3) -0.2354(2) -0.28394(14)
H19 H -0.1979 -0.3208 -0.3258
C17 C -0.0366(3) -0.2277(2) -0.20409(14)
C18 C 0.0467(3) -0.1036(2) -0.14302(14)
H20 H 0.1218 -0.0999 -0.0894
C19 C 0.1066(3) 0.1516(2) -0.09717(14)
C20 C -0.2993(3) -0.1268(2) -0.38725(14)
Cu2A Cu -0.35065(3) -0.31575(3) -0.066918(17)
S1A S 0.01317(7) 0.37679(5) 0.17604(4)
O1A O -0.2299(2) -0.15334(15) 0.03367(10)
O2A O -0.0537(2) -0.25480(16) 0.11075(10)
O3A O 0.3232(2) 0.01464(15) 0.39955(10)
O4A O 0.3715(2) 0.24139(16) 0.43728(10)
O5A O 0.0921(2) 0.49175(17) 0.25463(11)
O6A O 0.1024(2) 0.36542(17) 0.10482(11)
O7A O -0.1724(2) 0.37242(17) 0.14475(12)
O9A O -0.3167(2) -0.42837(16) 0.00993(10)
H3A H -0.2225 -0.3900 0.0473
H4A H -0.3032 -0.5107 -0.0113
N1A N -0.4395(2) -0.20067(18) -0.13795(12)
N2A N -0.5099(3) -0.46440(19) -0.17005(13)
H5A H -0.6185 -0.4643 -0.1568
N3A N -0.6119(2) -0.88048(18) -0.40988(12)
C1A C -0.5267(3) -0.2711(2) -0.22125(14)
C2A C -0.4266(3) -0.0646(2) -0.10958(16)
H6A H -0.3645 -0.0150 -0.0510
C3A C -0.5006(3) 0.0052(2) -0.16270(16)
H7A H -0.4889 0.1012 -0.1412
C4A C -0.5926(3) -0.0679(2) -0.24842(16)
H8A H -0.6458 -0.0224 -0.2861
C5A C -0.6055(3) -0.2078(2) -0.27802(15)
H9A H -0.6673 -0.2596 -0.3363
C6A C -0.5281(3) -0.4218(2) -0.24894(15)
H10A H -0.4313 -0.4467 -0.2780
H11A H -0.6381 -0.4685 -0.2916
C7A C -0.4738(3) -0.6053(2) -0.18731(15)
H12A H -0.3519 -0.6081 -0.1924
H13A H -0.4865 -0.6328 -0.1360
C8A C -0.5906(3) -0.7073(2) -0.27020(14)
C9A C -0.5176(3) -0.7849(2) -0.33592(14)
H14A H -0.3954 -0.7699 -0.3285
C10A C -0.7851(3) -0.9005(2) -0.42080(15)
H15A H -0.8523 -0.9679 -0.4728
C11A C -0.8688(3) -0.8266(2) -0.35912(15)
H16A H -0.9915 -0.8419 -0.3691
C12A C -0.7709(3) -0.7297(2) -0.28242(15)
H17A H -0.8257 -0.6791 -0.2387
C13A C -0.0191(3) -0.0152(2) 0.16114(14)
C14A C 0.0927(3) -0.0080(2) 0.24029(14)
H18A H 0.1141 -0.0889 0.2521
C15A C 0.1727(3) 0.1163(2) 0.30182(14)
C16A C 0.1443(3) 0.2354(2) 0.28394(14)
H19A H 0.1979 0.3208 0.3258
C17A C 0.0366(3) 0.2277(2) 0.20409(14)
C18A C -0.0467(3) 0.1036(2) 0.14302(14)
H20A H -0.1218 0.0999 0.0894
C19A C -0.1066(3) -0.1516(2) 0.09717(14)
C20A C 0.2993(3) 0.1268(2) 0.38725(14)
O8A O 0.3093(2) 0.81287(16) 0.50240(11)
H1A H 0.2367 0.7621 0.4563
H2A H 0.3449 0.7605 0.5303
Cu1_2 Cu -0.5000 -1.0000 -0.5000
Cu1_3 Cu -0.5000 0.0000 -0.5000
Cu1_4 Cu 0.5000 0.0000 0.5000
O3_2 O 0.6768(2) 0.98536(15) 0.60045(10)
O3A_2 O 0.3232(2) 1.01464(15) 0.39955(10)
N3A_2 N 0.3881(2) 1.11952(18) 0.59012(12)
O10 O 0.7491(2) 0.53154(18) 0.46148(11)
H21 H 0.7084 0.5994 0.4907
H22 H 0.7961 0.4975 0.4994
O11 O 0.0621(2) 0.58728(17) 0.42604(11)
H23 H -0.0420 0.5769 0.4312
H24 H 0.0565 0.5558 0.3709
O12 O 0.7503(2) 0.30940(17) 0.95952(12)
H25 H 0.7846 0.3144 1.0130
H26 H 0.8389 0.2976 0.9376
loop_
_geom_bond_atom_site_label_1
_geom_bond_atom_site_label_2
_geom_bond_site_symmetry_1
_geom_bond_site_symmetry_2
Cu1 O8 1_555 1_555
Cu2 O1 1_555 1_555
S1 O5 1_555 1_555
O1 C19 1_555 1_555
O2 C19 1_555 1_555
O3 C20 1_555 1_555
O4 C20 1_555 1_555
O6 S1 1_555 1_555
O7 S1 1_555 1_555
O8 H1 1_555 1_555
H2 O8 1_555 1_555
O9 Cu2 1_555 1_555
H3 O9 1_555 1_555
H4 O9 1_555 1_555
N1 Cu2 1_555 1_555
N2 Cu2 1_555 1_555
H5 N2 1_555 1_555
N3 Cu1 1_555 1_555
C1 N1 1_555 1_555
C2 N1 1_555 1_555
H6 C2 1_555 1_555
C3 C2 1_555 1_555
H7 C3 1_555 1_555
C4 C3 1_555 1_555
H8 C4 1_555 1_555
C5 C1 1_555 1_555
H9 C5 1_555 1_555
C6 N2 1_555 1_555
H10 C6 1_555 1_555
H11 C6 1_555 1_555
C7 N2 1_555 1_555
H12 C7 1_555 1_555
H13 C7 1_555 1_555
C8 C7 1_555 1_555
C9 N3 1_555 1_555
H14 C9 1_555 1_555
C10 N3 1_555 1_555
H15 C10 1_555 1_555
C11 C10 1_555 1_555
H16 C11 1_555 1_555
C12 C8 1_555 1_555
H17 C12 1_555 1_555
C13 C14 1_555 1_555
C14 H18 1_555 1_555
C15 C14 1_555 1_555
C16 C15 1_555 1_555
H19 C16 1_555 1_555
C17 S1 1_555 1_555
C18 C13 1_555 1_555
H20 C18 1_555 1_555
C19 C13 1_555 1_555
C20 C15 1_555 1_555
O10 H21 1_555 1_555
H22 O10 1_555 1_555
O11 H23 1_555 1_555
H24 O11 1_555 1_555
O12 H25 1_555 1_555
H26 O12 1_555 1_555
Cu2A O6 1_555 1_555
S1A O5A 1_555 1_555
O1A Cu2A 1_555 1_555
O2A C19A 1_555 1_555
O3A C20A 1_555 1_555
O4A C20A 1_555 1_555
O6A Cu2 1_555 1_555
O7A S1A 1_555 1_555
O9A Cu2A 1_555 1_555
H3A O9A 1_555 1_555
H4A O9A 1_555 1_555
N1A Cu2A 1_555 1_555
N2A Cu2A 1_555 1_555
H5A N2A 1_555 1_555
N3A C9A 1_555 1_555
C1A N1A 1_555 1_555
C2A N1A 1_555 1_555
H6A C2A 1_555 1_555
C3A C2A 1_555 1_555
H7A C3A 1_555 1_555
C4A C3A 1_555 1_555
H8A C4A 1_555 1_555
C5A C1A 1_555 1_555
H9A C5A 1_555 1_555
C6A N2A 1_555 1_555
H10A C6A 1_555 1_555
H11A C6A 1_555 1_555
C7A N2A 1_555 1_555
H12A C7A 1_555 1_555
H13A C7A 1_555 1_555
C8A C7A 1_555 1_555
C9A C8A 1_555 1_555
H14A C9A 1_555 1_555
C10A N3A 1_555 1_555
H15A C10A 1_555 1_555
C11A C10A 1_555 1_555
H16A C11A 1_555 1_555
C12A C8A 1_555 1_555
H17A C12A 1_555 1_555
C13A C14A 1_555 1_555
C14A H18A 1_555 1_555
C15A C14A 1_555 1_555
C16A C15A 1_555 1_555
H19A C16A 1_555 1_555
C17A S1A 1_555 1_555
C18A C13A 1_555 1_555
H20A C18A 1_555 1_555
C19A O1A 1_555 1_555
C20A C15A 1_555 1_555
O8A Cu1 1_555 1_555
H1A O8A 1_555 1_555
H2A O8A 1_555 1_555
Cu1_2 N3A 1_555 1_555
Cu1_3 O3 1_555 1_555
Cu1_4 O3A 1_555 1_555
O3_2 Cu1 1_555 1_555
O3A_2 Cu1 1_555 1_555
N3A_2 Cu1 1_555 1_555
C1 C6 1_555 1_555
C4 C5 1_555 1_555
C8 C9 1_555 1_555
C11 C12 1_555 1_555
C16 C17 1_555 1_555
C17 C18 1_555 1_555
S1A O6A 1_555 1_555
C1A C6A 1_555 1_555
C4A C5A 1_555 1_555
C11A C12A 1_555 1_555
C13A C19A 1_555 1_555
C16A C17A 1_555 1_555
C17A C18A 1_555 1_555

#END
