
#######################################################################
#
#                 Cambridge Crystallographic Data Centre
#                                CCDC 
#
#######################################################################
#
# If this CIF has been generated from an entry in the Cambridge 
# Structural Database, then it will include bibliographic, chemical, 
# crystal, experimental, refinement or atomic coordinate data resulting 
# from the CCDC's data processing and validation procedures.
#
#######################################################################

data_HINSII
_symmetry_cell_setting           triclinic
_symmetry_space_group_name_H-M   'P -1'
_symmetry_Int_Tables_number      2
_space_group_name_Hall           '-P 1'
loop_
_symmetry_equiv_pos_site_id
_symmetry_equiv_pos_as_xyz
1 x,y,z
2 -x,-y,-z
_cell_length_a                   7.2029(9)
_cell_length_b                   10.8460(13)
_cell_length_c                   12.4992(16)
_cell_angle_alpha                68.617(2)
_cell_angle_beta                 74.017(2)
_cell_angle_gamma                89.203(2)
_cell_volume                     870.017
loop_
_atom_site_label
_atom_site_type_symbol
_atom_site_fract_x
_atom_site_fract_y
_atom_site_fract_z
Cu1 Cu 0.5000 0.5000 0.0000
O1 O 0.4851(4) 0.3624(3) 0.2221(2)
N1 N 0.2353(4) 0.4082(3) 0.0464(2)
C1 C -0.0620(5) 0.3399(4) 0.1494(3)
H1 H -0.1800 0.3187 0.2093
O2 O 0.4143(3) 0.5664(2) 0.13149(19)
N2 N 0.0943(4) 0.3939(3) 0.1531(2)
C2 C 0.1606(5) 0.3611(3) -0.0156(3)
H2 H 0.2259 0.3572 -0.0895
C3 C -0.2339(5) 0.1407(3) 0.0609(3)
C4 C -0.3725(6) 0.0997(4) 0.0053(3)
H3 H -0.3866 0.1779 -0.0619
O3 O -0.1874(5) 0.0680(3) 0.1478(3)
N3 N -0.1610(4) 0.2700(3) 0.0049(3)
H4 H -0.1966 0.3215 -0.0553
C5 C -0.5703(6) 0.0507(5) 0.0967(4)
H5 H -0.6217 0.1217 0.1225
H6 H -0.5576 -0.0229 0.1664
N4 N -0.0287(4) 0.3185(3) 0.0452(2)
C6 C -0.2887(6) -0.0054(5) -0.0433(4)
H7 H -0.2648 -0.0811 0.0211
H8 H -0.1660 0.0310 -0.1046
O4 O 0.1500(6) 0.7692(3) 0.5624(3)
O5 O 0.1769(6) 0.8443(3) 0.3678(3)
O6 O 0.1686(6) 0.2775(3) 0.7746(2)
O7 O 0.2884(5) 0.1608(3) 0.6617(2)
C7 C 0.4182(5) 0.4667(3) 0.2262(3)
C8 C 0.3417(5) 0.4834(3) 0.3453(3)
C9 C 0.2925(5) 0.6054(3) 0.3504(3)
H9 H 0.3026 0.6782 0.2799
C10 C 0.2277(5) 0.6196(4) 0.4614(3)
C11 C 0.1810(6) 0.7514(4) 0.4692(3)
C12 C 0.2096(5) 0.5106(4) 0.5668(3)
H10 H 0.1658 0.5196 0.6406
C13 C 0.2574(5) 0.3874(3) 0.5617(3)
C14 C 0.2333(6) 0.2711(4) 0.6772(3)
C15 C 0.3251(5) 0.3742(3) 0.4513(3)
H11 H 0.3594 0.2924 0.4481
N1A N -1.2353(4) -0.4082(3) -0.0464(2)
C1A C -0.9380(5) -0.3399(4) -0.1494(3)
H1A H -0.8200 -0.3187 -0.2093
N2A N -1.0943(4) -0.3939(3) -0.1531(2)
C2A C -1.1606(5) -0.3611(3) 0.0156(3)
H2A H -1.2259 -0.3572 0.0895
C3A C -0.7661(5) -0.1407(3) -0.0609(3)
C4A C -0.6275(6) -0.0997(4) -0.0053(3)
H3A H -0.6134 -0.1779 0.0619
O3A O -0.8126(5) -0.0680(3) -0.1478(3)
N3A N -0.8390(4) -0.2700(3) -0.0049(3)
H4A H -0.8034 -0.3215 0.0553
C5A C -0.4297(6) -0.0507(5) -0.0967(4)
H5A H -0.3783 -0.1217 -0.1225
H6A H -0.4424 0.0229 -0.1664
N4A N -0.9713(4) -0.3185(3) -0.0452(2)
C6A C -0.7113(6) 0.0054(5) 0.0433(4)
H7A H -0.7352 0.0811 -0.0211
H8A H -0.8340 -0.0310 0.1046
O1A O 0.5149(4) 0.6376(3) -0.2221(2)
O2A O 0.5857(3) 0.4336(2) -0.13149(19)
O4A O 0.8500(6) 0.2308(3) -0.5624(3)
O5A O 0.8231(6) 0.1557(3) -0.3678(3)
O6A O 0.8314(6) 0.7225(3) -0.7746(2)
O7A O 0.7116(5) 0.8392(3) -0.6617(2)
C7A C 0.5818(5) 0.5333(3) -0.2262(3)
C8A C 0.6583(5) 0.5166(3) -0.3453(3)
C9A C 0.7075(5) 0.3946(3) -0.3504(3)
H9A H 0.6974 0.3218 -0.2799
C10A C 0.7723(5) 0.3804(4) -0.4614(3)
C11A C 0.8190(6) 0.2486(4) -0.4692(3)
C12A C 0.7904(5) 0.4894(4) -0.5668(3)
H10A H 0.8342 0.4804 -0.6406
C13A C 0.7426(5) 0.6126(3) -0.5617(3)
C14A C 0.7667(6) 0.7289(4) -0.6772(3)
C15A C 0.6749(5) 0.6258(3) -0.4513(3)
H11A H 0.6406 0.7076 -0.4481
Cu1_2 Cu -1.5000 -0.5000 0.0000
N1A_2 N 0.7647(4) 0.5918(3) -0.0464(2)
O8 O 0.1587(10) 0.0903(5) 0.3590(4)
H12 H 0.2725 0.1022 0.3632
H13 H 0.1095 0.1642 0.3463
loop_
_geom_bond_atom_site_label_1
_geom_bond_atom_site_label_2
_geom_bond_site_symmetry_1
_geom_bond_site_symmetry_2
Cu1 O1 1_555 1_555
O1 C7 1_555 1_555
N1 Cu1 1_555 1_555
C1 H1 1_555 1_555
O2 Cu1 1_555 1_555
N2 N1 1_555 1_555
C2 N1 1_555 1_555
H2 C2 1_555 1_555
C3 C4 1_555 1_555
C4 H3 1_555 1_555
O3 C3 1_555 1_555
N3 C3 1_555 1_555
H4 N3 1_555 1_555
C5 C4 1_555 1_555
H5 C5 1_555 1_555
H6 C5 1_555 1_555
N4 C1 1_555 1_555
C6 C4 1_555 1_555
H7 C6 1_555 1_555
H8 C6 1_555 1_555
O4 C11 1_555 1_555
O5 C11 1_555 1_555
O6 C14 1_555 1_555
O7 C14 1_555 1_555
C7 O2 1_555 1_555
C8 C7 1_555 1_555
C9 C8 1_555 1_555
H9 C9 1_555 1_555
C10 C9 1_555 1_555
C11 C10 1_555 1_555
C12 C10 1_555 1_555
H10 C12 1_555 1_555
C13 C12 1_555 1_555
C14 C13 1_555 1_555
C15 C8 1_555 1_555
H11 C15 1_555 1_555
O8 H12 1_555 1_555
H13 O8 1_555 1_555
N1A N2A 1_555 1_555
C1A H1A 1_555 1_555
N2A C1A 1_555 1_555
C2A N1A 1_555 1_555
H2A C2A 1_555 1_555
C3A C4A 1_555 1_555
C4A H3A 1_555 1_555
O3A C3A 1_555 1_555
N3A C3A 1_555 1_555
H4A N3A 1_555 1_555
C5A C6 1_555 1_555
H5A C5A 1_555 1_555
H6A C5A 1_555 1_555
N4A C1A 1_555 1_555
C6A C5 1_555 1_555
H7A C6A 1_555 1_555
H8A C6A 1_555 1_555
O1A Cu1 1_555 1_555
O2A Cu1 1_555 1_555
O4A C11A 1_555 1_555
O5A C11A 1_555 1_555
O6A C14A 1_555 1_555
O7A C14A 1_555 1_555
C7A O1A 1_555 1_555
C8A C7A 1_555 1_555
C9A C8A 1_555 1_555
H9A C9A 1_555 1_555
C10A C9A 1_555 1_555
C11A C10A 1_555 1_555
C12A C10A 1_555 1_555
H10A C12A 1_555 1_555
C13A C12A 1_555 1_555
C14A C13A 1_555 1_555
C15A C8A 1_555 1_555
H11A C15A 1_555 1_555
Cu1_2 N1A 1_555 1_555
N1A_2 Cu1 1_555 1_555
C1 N2 1_555 1_555
C2 N4 1_555 1_555
N3 N4 1_555 1_555
C13 C15 1_555 1_555
C2A N4A 1_555 1_555
C4A C5A 1_555 1_555
C4A C6A 1_555 1_555
N3A N4A 1_555 1_555
O2A C7A 1_555 1_555
C13A C15A 1_555 1_555

#END
