
#######################################################################
#
#                 Cambridge Crystallographic Data Centre
#                                CCDC 
#
#######################################################################
#
# If this CIF has been generated from an entry in the Cambridge 
# Structural Database, then it will include bibliographic, chemical, 
# crystal, experimental, refinement or atomic coordinate data resulting 
# from the CCDC's data processing and validation procedures.
#
#######################################################################

data_HINSOO
_symmetry_cell_setting           triclinic
_symmetry_space_group_name_H-M   'P -1'
_symmetry_Int_Tables_number      2
_space_group_name_Hall           '-P 1'
loop_
_symmetry_equiv_pos_site_id
_symmetry_equiv_pos_as_xyz
1 x,y,z
2 -x,-y,-z
_cell_length_a                   10.8602(18)
_cell_length_b                   11.3405(19)
_cell_length_c                   13.795(2)
_cell_angle_alpha                85.009(3)
_cell_angle_beta                 84.749(2)
_cell_angle_gamma                64.776(2)
_cell_volume                     1528.37
loop_
_atom_site_label
_atom_site_type_symbol
_atom_site_fract_x
_atom_site_fract_y
_atom_site_fract_z
Cu1 Cu 0.63743(3) 0.50502(3) 0.48398(3)
O1 O 0.4427(2) 0.6267(2) 0.49215(16)
H1 H 0.4188 0.6692 0.4273
N1 N 0.6108(3) 0.3873(3) 0.2949(2)
C1 C 0.6537(3) 0.7370(3) 0.5485(2)
Cu2 Cu 0.37195(4) 0.76211(4) 0.58693(3)
O2 O 0.7063(2) 0.6318(2) 0.5072(2)
N2 N 0.6320(3) 0.4914(3) 0.3229(2)
C2 C 0.7461(3) 0.7993(3) 0.5682(2)
S1 S 0.71148(9) 1.10459(8) 0.71860(8)
O3 O 0.5326(3) 0.7953(3) 0.5779(3)
N3 N 0.6311(3) 0.5015(3) 0.1657(2)
C3 C 0.6911(3) 0.9131(3) 0.6194(3)
H2 H 0.5979 0.9534 0.6357
O4 O 0.6093(5) 1.2058(3) 0.6657(3)
N4 N 0.6462(4) 0.5374(3) 0.0681(2)
H3 H 0.5825 0.6031 0.0403
C4 C 0.7768(3) 0.9655(3) 0.6460(3)
O5 O 0.6537(5) 1.0679(4) 0.8062(3)
N5 N 1.0221(3) 0.2217(3) -0.2814(3)
H4 H 0.9415 0.2249 -0.2815
C5 C 0.9149(3) 0.9064(3) 0.6203(3)
H5 H 0.9719 0.9419 0.6384
O6 O 1.1720(2) 0.6204(2) 0.51153(19)
N6 N 1.1354(3) 0.1026(3) -0.2830(3)
C6 C 0.9695(3) 0.7940(3) 0.5676(2)
N7 N 1.3170(5) -0.0687(5) -0.2435(4)
C7 C 0.8845(3) 0.7393(3) 0.5424(2)
H6 H 0.9204 0.6632 0.5085
N8 N 1.2844(3) -0.0813(3) -0.3332(2)
C8 C 0.6117(4) 0.3952(4) 0.2005(3)
H7 H 0.6006 0.3369 0.1626
O7 O 1.1826(2) 0.7999(2) 0.5590(2)
C9 C 0.6450(4) 0.5573(4) 0.2437(3)
H8 H 0.6614 0.6316 0.2414
O8 O 1.1519(4) 0.3278(3) -0.2773(3)
C10 C 0.7648(5) 0.4661(4) 0.0177(3)
O9 O 0.8252(4) 1.1284(5) 0.7354(5)
C11 C 0.7719(5) 0.5113(4) -0.0881(3)
H9 H 0.6962 0.5972 -0.0986
O10 O 0.8546(4) 0.3726(4) 0.0562(2)
C12 C 0.7574(4) 0.4145(4) -0.1518(3)
H10 H 0.8251 0.3271 -0.1359
H11 H 0.6679 0.4151 -0.1384
C13 C 0.7761(4) 0.4500(4) -0.2599(3)
H12 H 0.7724 0.3841 -0.2984
H13 H 0.7015 0.5327 -0.2770
C14 C 0.9103(4) 0.4605(4) -0.2852(3)
H14 H 0.9076 0.4959 -0.3527
C15 C 0.9220(5) 0.5592(4) -0.2217(3)
H15 H 1.0100 0.5617 -0.2360
H16 H 0.8519 0.6456 -0.2370
C16 C 0.9065(5) 0.5231(4) -0.1138(3)
H17 H 0.9100 0.5893 -0.0755
H18 H 0.9819 0.4408 -0.0972
C17 C 1.0393(4) 0.3328(4) -0.2796(3)
C18 C 1.1775(4) 0.0241(3) -0.3560(3)
H19 H 1.1368 0.0415 -0.4152
C19 C 1.2264(7) 0.0414(6) -0.2141(5)
H20 H 1.2238 0.0743 -0.1541
C20 C 1.1213(3) 0.7321(3) 0.5431(2)
Cu1A Cu 0.36257(3) 0.49498(3) 0.51602(3)
Cu1A_2 Cu 1.36257(3) 0.49498(3) 0.51602(3)
O1A O 0.5573(2) 0.3733(2) 0.50785(16)
N1A N 0.3892(3) 0.6127(3) 0.7051(2)
Cu2_2 Cu 1.37195(4) -0.23789(4) -0.41307(3)
Cu2_3 Cu 1.37195(4) 0.76211(4) 0.58693(3)
Cu2A Cu 0.62805(4) 0.23789(4) 0.41307(3)
O6A O 0.8280(2) 0.3796(2) 0.48847(19)
N8_2 N 0.2844(3) 0.9187(3) 0.6668(2)
O7_2 O 0.1826(2) 0.7999(2) 0.5590(2)
O11 O 0.5669(11) 0.2439(10) 0.0144(8)
O13 O 0.4072(12) 0.1378(9) 0.1134(12)
H21 H 0.3815 0.0793 0.1360
H22 H 0.4528 0.1485 0.1561
O14 O 1.1052(18) 0.1720(12) -0.0099(10)
O16 O 1.1588(18) -0.0755(12) 0.0350(10)
H23 H 1.1810 -0.0760 0.0926
H24 H 1.1108 -0.1186 0.0371
O12? O 0.541(2) 0.2184(19) -0.0227(16)
O15? O 1.089(4) 0.111(2) 0.0394(19)
loop_
_geom_bond_atom_site_label_1
_geom_bond_atom_site_label_2
_geom_bond_site_symmetry_1
_geom_bond_site_symmetry_2
Cu1 O1 1_555 1_555
O1 H1 1_555 1_555
N1 N2 1_555 1_555
C1 O2 1_555 1_555
Cu2 O1 1_555 1_555
O2 Cu1 1_555 1_555
N2 Cu1 1_555 1_555
C2 C1 1_555 1_555
S1 O4 1_555 1_555
O3 C1 1_555 1_555
N3 N4 1_555 1_555
C3 C2 1_555 1_555
H2 C3 1_555 1_555
N4 H3 1_555 1_555
C4 S1 1_555 1_555
O5 S1 1_555 1_555
N5 H4 1_555 1_555
C5 C4 1_555 1_555
H5 C5 1_555 1_555
O6 C20 1_555 1_555
N6 N5 1_555 1_555
C6 C5 1_555 1_555
N7 N8 1_555 1_555
C7 C2 1_555 1_555
H6 C7 1_555 1_555
N8 C18 1_555 1_555
C8 N1 1_555 1_555
H7 C8 1_555 1_555
O7 C20 1_555 1_555
C9 N2 1_555 1_555
H8 C9 1_555 1_555
O8 C17 1_555 1_555
C10 N4 1_555 1_555
O9 S1 1_555 1_555
C11 C10 1_555 1_555
H9 C11 1_555 1_555
O10 C10 1_555 1_555
C12 C11 1_555 1_555
H10 C12 1_555 1_555
H11 C12 1_555 1_555
C13 C12 1_555 1_555
H12 C13 1_555 1_555
H13 C13 1_555 1_555
C14 C13 1_555 1_555
H14 C14 1_555 1_555
C15 C14 1_555 1_555
H15 C15 1_555 1_555
H16 C15 1_555 1_555
C16 C11 1_555 1_555
H17 C16 1_555 1_555
H18 C16 1_555 1_555
C17 N5 1_555 1_555
C18 N6 1_555 1_555
H19 C18 1_555 1_555
C19 N6 1_555 1_555
H20 C19 1_555 1_555
C20 C6 1_555 1_555
O13 H21 1_555 1_555
H22 O13 1_555 1_555
O16 H23 1_555 1_555
H24 O16 1_555 1_555
Cu1A O1 1_555 1_555
Cu1A_2 O6 1_555 1_555
O1A Cu1 1_555 1_555
N1A Cu2 1_555 1_555
Cu2_2 N8 1_555 1_555
Cu2_3 O7 1_555 1_555
Cu2A N1 1_555 1_555
O6A Cu1 1_555 1_555
N8_2 Cu2 1_555 1_555
O7_2 Cu2 1_555 1_555
Cu2 O3 1_555 1_555
N3 C8 1_555 1_555
N3 C9 1_555 1_555
C3 C4 1_555 1_555
C6 C7 1_555 1_555
N7 C19 1_555 1_555
C14 C17 1_555 1_555
C15 C16 1_555 1_555
Cu1A O1A 1_555 1_555
O1A Cu2A 1_555 1_555

#END
