
#######################################################################
#
#                 Cambridge Crystallographic Data Centre
#                                CCDC 
#
#######################################################################
#
# If this CIF has been generated from an entry in the Cambridge 
# Structural Database, then it will include bibliographic, chemical, 
# crystal, experimental, refinement or atomic coordinate data resulting 
# from the CCDC's data processing and validation procedures.
#
#######################################################################

data_HINTAB
_symmetry_cell_setting           triclinic
_symmetry_space_group_name_H-M   'P -1'
_symmetry_Int_Tables_number      2
_space_group_name_Hall           '-P 1'
loop_
_symmetry_equiv_pos_site_id
_symmetry_equiv_pos_as_xyz
1 x,y,z
2 -x,-y,-z
_cell_length_a                   8.3799(6)
_cell_length_b                   10.2218(7)
_cell_length_c                   13.9461(10)
_cell_angle_alpha                99.6500(10)
_cell_angle_beta                 102.3960(10)
_cell_angle_gamma                103.8830(10)
_cell_volume                     1101.99
loop_
_atom_site_label
_atom_site_type_symbol
_atom_site_fract_x
_atom_site_fract_y
_atom_site_fract_z
Cd1 Cd 0.783062(18) 0.383664(14) 0.492520(10)
S1 S 1.29225(6) 1.08476(5) 0.85490(4)
O1 O 0.97833(18) 0.59550(14) 0.58746(10)
O2 O 0.72887(18) 0.61265(14) 0.50633(10)
O3 O 0.72204(18) 1.10916(15) 0.47878(10)
O4 O 0.92546(19) 1.27977(14) 0.59349(11)
O5 O 1.39891(19) 1.21260(15) 0.84177(11)
O6 O 1.20087(19) 1.10738(16) 0.93184(10)
O7 O 1.38290(18) 0.98085(15) 0.86976(11)
O8 O 0.58369(19) 0.35604(16) 0.58225(11)
H1 H 0.5642 0.2809 0.6020
H2 H 0.4860 0.3624 0.5545
N1 N 0.6139(2) 0.34383(18) 0.33562(13)
N2 N 0.2635(2) -0.03972(17) 0.08756(12)
H3 H 0.2244 -0.0267 0.0240
H4 H 0.3788 -0.0286 0.0996
N3 N 0.0353(2) -0.28371(19) -0.08376(13)
C1 C 0.3714(3) 0.2013(2) 0.20169(15)
C2 C 0.4892(3) 0.2248(2) 0.29422(15)
H5 H 0.4810 0.1531 0.3299
C3 C 0.6252(3) 0.4454(2) 0.28446(15)
H6 H 0.7133 0.5300 0.3129
C4 C 0.5127(3) 0.4304(2) 0.19182(16)
H7 H 0.5237 0.5037 0.1576
C5 C 0.3836(3) 0.3071(2) 0.14954(15)
H8 H 0.3050 0.2949 0.0863
C6 C 0.2309(3) 0.0665(2) 0.16505(15)
H9 H 0.1230 0.0856 0.1352
H10 H 0.2161 0.0266 0.2237
C7 C 0.1742(3) -0.1837(2) 0.09280(16)
H11 H 0.0624 -0.1841 0.1056
H12 H 0.2425 -0.2078 0.1509
C8 C 0.1457(3) -0.2937(2) -0.00091(15)
C9 C -0.0090(3) -0.3883(2) -0.16568(16)
H13 H -0.0854 -0.3824 -0.2249
C10 C 0.0499(3) -0.5044(2) -0.16914(17)
H14 H 0.0120 -0.5769 -0.2284
C11 C 0.1651(3) -0.5122(2) -0.08421(18)
H15 H 0.2091 -0.5897 -0.0843
C12 C 0.2152(3) -0.4041(2) 0.00152(17)
H16 H 0.2955 -0.4058 0.0605
C13 C 0.9341(3) 0.8194(2) 0.61236(15)
C14 C 0.8554(3) 0.9084(2) 0.56801(14)
H17 H 0.7591 0.8717 0.5110
C15 C 0.9183(3) 1.0515(2) 0.60733(14)
C16 C 1.0556(3) 1.1036(2) 0.69357(15)
H18 H 1.0987 1.2007 0.7210
C17 C 1.1293(2) 1.0136(2) 0.73945(14)
C18 C 1.0729(3) 0.8716(2) 0.69804(14)
H19 H 1.1278 0.8111 0.7274
C19 C 0.8756(3) 0.6668(2) 0.56530(14)
C20 C 0.8472(3) 1.1517(2) 0.55533(15)
Cd1_2 Cd 0.783062(18) 1.383664(14) 0.492520(10)
Cd1A Cd 1.216938(18) 0.616336(14) 0.507480(10)
O1A O 1.02167(18) 0.40450(14) 0.41254(10)
O3_2 O 0.72204(18) 0.10916(15) 0.47878(10)
O4_2 O 0.92546(19) 0.27977(14) 0.59349(11)
O9 O 0.4851(2) 0.87444(16) 0.33799(11)
H20 H 0.5365 0.8540 0.2938
H21 H 0.5567 0.9432 0.3816
loop_
_geom_bond_atom_site_label_1
_geom_bond_atom_site_label_2
_geom_bond_site_symmetry_1
_geom_bond_site_symmetry_2
Cd1 O1 1_555 1_555
S1 O5 1_555 1_555
O1 C19 1_555 1_555
O2 Cd1 1_555 1_555
O3 C20 1_555 1_555
O4 C20 1_555 1_555
O6 S1 1_555 1_555
O7 S1 1_555 1_555
O8 Cd1 1_555 1_555
H1 O8 1_555 1_555
H2 O8 1_555 1_555
N1 Cd1 1_555 1_555
N2 H3 1_555 1_555
H4 N2 1_555 1_555
N3 C8 1_555 1_555
C1 C2 1_555 1_555
C2 N1 1_555 1_555
H5 C2 1_555 1_555
C3 N1 1_555 1_555
H6 C3 1_555 1_555
C4 C3 1_555 1_555
H7 C4 1_555 1_555
C5 C1 1_555 1_555
H8 C5 1_555 1_555
C6 N2 1_555 1_555
H9 C6 1_555 1_555
H10 C6 1_555 1_555
C7 N2 1_555 1_555
H11 C7 1_555 1_555
H12 C7 1_555 1_555
C8 C7 1_555 1_555
C9 N3 1_555 1_555
H13 C9 1_555 1_555
C10 C9 1_555 1_555
H14 C10 1_555 1_555
C11 C10 1_555 1_555
H15 C11 1_555 1_555
C12 C8 1_555 1_555
H16 C12 1_555 1_555
C13 C14 1_555 1_555
C14 H17 1_555 1_555
C15 C14 1_555 1_555
C16 C15 1_555 1_555
H18 C16 1_555 1_555
C17 S1 1_555 1_555
C18 C13 1_555 1_555
H19 C18 1_555 1_555
C19 O2 1_555 1_555
C20 C15 1_555 1_555
O9 H20 1_555 1_555
H21 O9 1_555 1_555
Cd1_2 O3 1_555 1_555
Cd1A O1 1_555 1_555
O1A Cd1 1_555 1_555
O3_2 Cd1 1_555 1_555
O4_2 Cd1 1_555 1_555
O4 Cd1_2 1_555 1_555
C1 C6 1_555 1_555
C4 C5 1_555 1_555
C11 C12 1_555 1_555
C13 C19 1_555 1_555
C16 C17 1_555 1_555
C17 C18 1_555 1_555
Cd1A O1A 1_555 1_555

#END
