
#######################################################################
#
#                 Cambridge Crystallographic Data Centre
#                                CCDC 
#
#######################################################################
#
# If this CIF has been generated from an entry in the Cambridge 
# Structural Database, then it will include bibliographic, chemical, 
# crystal, experimental, refinement or atomic coordinate data resulting 
# from the CCDC's data processing and validation procedures.
#
#######################################################################

data_HINWIL
_symmetry_cell_setting           orthorhombic
_symmetry_space_group_name_H-M   'F d d 2'
_symmetry_Int_Tables_number      43
_space_group_name_Hall           'F 2 -2d'
loop_
_symmetry_equiv_pos_site_id
_symmetry_equiv_pos_as_xyz
1 x,y,z
2 -x,-y,z
3 1/4-x,1/4+y,1/4+z
4 3/4+x,3/4-y,1/4+z
5 x,1/2+y,1/2+z
6 -x,1/2-y,1/2+z
7 1/4-x,3/4+y,3/4+z
8 3/4+x,1/4-y,3/4+z
9 1/2+x,y,1/2+z
10 1/2-x,-y,1/2+z
11 3/4-x,1/4+y,3/4+z
12 1/4+x,3/4-y,3/4+z
13 1/2+x,1/2+y,z
14 1/2-x,1/2-y,z
15 3/4-x,3/4+y,1/4+z
16 1/4+x,1/4-y,1/4+z
_cell_length_a                   11.0005(19)
_cell_length_b                   35.0030(16)
_cell_length_c                   10.154(3)
_cell_angle_alpha                90
_cell_angle_beta                 90
_cell_angle_gamma                90
_cell_volume                     3909.8
loop_
_atom_site_label
_atom_site_type_symbol
_atom_site_fract_x
_atom_site_fract_y
_atom_site_fract_z
Ag1 Ag 0.2500 0.2500 0.48862(6)
Ag2 Ag 0.24300(5) 0.176723(12) 0.23079(4)
N1 N 0.0915(4) 0.21457(10) 0.4571(4)
N2 N 0.0870(4) 0.18630(12) 0.3612(4)
N4 N -0.1966(4) 0.17512(12) 0.5154(4)
H1 H -0.200(5) 0.1494(4) 0.514(5)
H2 H -0.249(2) 0.1907(9) 0.475(4)
N5 N -0.0774(3) 0.18467(10) 0.4752(4)
C1 C -0.0103(5) 0.21337(13) 0.5247(4)
C2 C -0.0416(6) 0.23976(16) 0.6347(5)
H3 H -0.0423 0.2256 0.7178
H4 H -0.1220 0.2509 0.6190
H5 H 0.0191 0.2602 0.6394
C3 C -0.0155(5) 0.16831(13) 0.3706(5)
C4 C -0.0622(6) 0.13792(17) 0.2884(6)
H6 H 0.0035 0.1279 0.2332
H7 H -0.1273 0.1479 0.2322
H8 H -0.0943 0.1174 0.3441
Ag2M Ag 0.25700(5) 0.323277(12) 0.23079(4)
Ag2H Ag -0.25700(5) 0.176723(12) 0.73079(4)
Ag2E Ag 0.75700(5) 0.323277(12) 0.73079(4)
N1M N 0.4085(4) 0.28543(10) 0.4571(4)
N2M N 0.4130(4) 0.31370(12) 0.3612(4)
N4M N 0.6966(4) 0.32488(12) 0.5154(4)
N4H N 0.3034(4) 0.17512(12) 0.0154(4)
N4E N 0.1966(4) 0.32488(12) 0.0154(4)
H1M H 0.700(5) 0.3506(4) 0.514(5)
H1H H 0.300(5) 0.1494(4) 0.014(5)
H1E H 0.200(5) 0.3506(4) 0.014(5)
H2M H 0.749(2) 0.3093(9) 0.475(4)
H2H H 0.251(2) 0.1907(9) -0.025(4)
H2E H 0.249(2) 0.3093(9) -0.025(4)
N5M N 0.5774(3) 0.31533(10) 0.4752(4)
C1M C 0.5103(5) 0.28663(13) 0.5247(4)
C2M C 0.5416(6) 0.26024(16) 0.6347(5)
H3M H 0.5423 0.2744 0.7178
H4M H 0.6220 0.2491 0.6190
H5M H 0.4809 0.2398 0.6394
C3M C 0.5155(5) 0.33169(13) 0.3706(5)
C4M C 0.5622(6) 0.36208(17) 0.2884(6)
H6M H 0.4965 0.3721 0.2332
H7M H 0.6273 0.3521 0.2322
H8M H 0.5943 0.3826 0.3441
O1 O 0.5540(5) 0.15163(16) 0.4690(7)
O2 O 0.3952(6) 0.18394(17) 0.4294(6)
O3 O 0.4897(7) 0.15596(13) 0.2776(5)
N3 N 0.4815(7) 0.16474(15) 0.3944(6)
O4 O 0.5000 0.0000 0.1709(6)
O5 O 0.5178(5) 0.02969(12) -0.0141(6)
N6 N 0.5000 0.0000 0.0453(6)
O5A O 0.4822(5) -0.02969(12) -0.0141(6)
loop_
_geom_bond_atom_site_label_1
_geom_bond_atom_site_label_2
_geom_bond_site_symmetry_1
_geom_bond_site_symmetry_2
Ag1 N1 1_555 1_555
Ag2 N2 1_555 1_555
O1 N3 1_555 1_555
O2 N3 1_555 1_555
O3 N3 1_555 1_555
N1 N2 1_555 1_555
N2 C3 1_555 1_555
N4 H1 1_555 1_555
H2 N4 1_555 1_555
N5 N4 1_555 1_555
C1 N1 1_555 1_555
C2 C1 1_555 1_555
H3 C2 1_555 1_555
H4 C2 1_555 1_555
H5 C2 1_555 1_555
C3 N5 1_555 1_555
C4 C3 1_555 1_555
H6 C4 1_555 1_555
H7 C4 1_555 1_555
H8 C4 1_555 1_555
O4 N6 1_555 1_555
O5 N6 1_555 1_555
N6 O5A 1_555 1_555
Ag2M N2M 1_555 1_555
Ag2H N4 1_555 1_555
Ag2E N4M 1_555 1_555
N1M Ag1 1_555 1_555
N2M N1M 1_555 1_555
N4M H1M 1_555 1_555
N4H Ag2 1_555 1_555
N4E Ag2M 1_555 1_555
H1H N4H 1_555 1_555
H1E N4E 1_555 1_555
H2M N4M 1_555 1_555
H2H N4H 1_555 1_555
H2E N4E 1_555 1_555
N5M N4M 1_555 1_555
C1M N1M 1_555 1_555
C2M C1M 1_555 1_555
H3M C2M 1_555 1_555
H4M C2M 1_555 1_555
H5M C2M 1_555 1_555
C3M N2M 1_555 1_555
C4M C3M 1_555 1_555
H6M C4M 1_555 1_555
H7M C4M 1_555 1_555
H8M C4M 1_555 1_555
N5 C1 1_555 1_555
N5M C1M 1_555 1_555
N5M C3M 1_555 1_555

#END
