
#######################################################################
#
#                 Cambridge Crystallographic Data Centre
#                                CCDC 
#
#######################################################################
#
# If this CIF has been generated from an entry in the Cambridge 
# Structural Database, then it will include bibliographic, chemical, 
# crystal, experimental, refinement or atomic coordinate data resulting 
# from the CCDC's data processing and validation procedures.
#
#######################################################################

data_HINWIL01
_symmetry_cell_setting           orthorhombic
_symmetry_space_group_name_H-M   'F d d 2'
_symmetry_Int_Tables_number      43
_space_group_name_Hall           'F 2 -2d'
loop_
_symmetry_equiv_pos_site_id
_symmetry_equiv_pos_as_xyz
1 x,y,z
2 -x,-y,z
3 1/4+x,1/4-y,1/4+z
4 1/4-x,1/4+y,1/4+z
5 x,1/2+y,1/2+z
6 -x,1/2-y,1/2+z
7 1/4+x,3/4-y,3/4+z
8 1/4-x,3/4+y,3/4+z
9 1/2+x,y,1/2+z
10 1/2-x,-y,1/2+z
11 3/4+x,1/4-y,3/4+z
12 3/4-x,1/4+y,3/4+z
13 1/2+x,1/2+y,z
14 1/2-x,1/2-y,z
15 3/4+x,3/4-y,1/4+z
16 3/4-x,3/4+y,1/4+z
_cell_length_a                   10.965(7)
_cell_length_b                   34.881(13)
_cell_length_c                   10.120(4)
_cell_angle_alpha                90
_cell_angle_beta                 90
_cell_angle_gamma                90
_cell_volume                     3870.6
loop_
_atom_site_label
_atom_site_type_symbol
_atom_site_fract_x
_atom_site_fract_y
_atom_site_fract_z
Ag1 Ag 0.5000 1.0000 0.62127(5)
Ag2 Ag 0.49310(3) 0.926760(11) 0.87915(3)
N1 N 0.3376(3) 0.93624(9) 0.7484(3)
N2 N 0.3429(2) 0.96469(8) 0.6528(3)
N3 N 0.1725(2) 0.93458(9) 0.6343(3)
N4 N 0.0525(3) 0.92493(9) 0.5916(3)
H1 H 0.0012 0.9403 0.6364
H2 H 0.0382 0.9009 0.6202
C1 C 0.1860(4) 0.88735(13) 0.8203(5)
H3 H 0.2421 0.8823 0.8910
H4 H 0.1768 0.8647 0.7673
H5 H 0.1083 0.8945 0.8562
C2 C 0.2336(3) 0.91893(11) 0.7373(4)
C3 C 0.2418(3) 0.96319(12) 0.5847(4)
C4 C 0.2083(4) 0.98950(13) 0.4755(5)
H6 H 0.2532 1.0130 0.4841
H7 H 0.1225 0.9948 0.4792
H8 H 0.2276 0.9777 0.3924
N5 N 0.7306(4) 0.91548(13) 0.7147(5)
O1 O 0.6431(5) 0.93327(16) 0.6835(6)
O2 O 0.7384(6) 0.90654(16) 0.8318(7)
O3 O 0.8034(4) 0.90320(15) 0.6378(7)
Ag2A Ag 0.50690(3) 1.073240(11) 0.87915(3)
Ag2H Ag -0.00690(3) 0.926760(11) 0.37915(3)
Ag2I Ag 1.00690(3) 1.073240(11) 0.37915(3)
N1A N 0.6624(3) 1.06376(9) 0.7484(3)
N2A N 0.6571(2) 1.03531(8) 0.6528(3)
N3A N 0.8275(2) 1.06542(9) 0.6343(3)
N4A N 0.9475(3) 1.07507(9) 0.5916(3)
N4H N 0.5525(3) 0.92493(9) 1.0916(3)
N4I N 0.4475(3) 1.07507(9) 1.0916(3)
H1A H 0.9988 1.0597 0.6364
H1H H 0.5012 0.9403 1.1364
H1I H 0.4988 1.0597 1.1364
H2A H 0.9618 1.0991 0.6202
H2H H 0.5382 0.9009 1.1202
H2I H 0.4618 1.0991 1.1202
C1A C 0.8140(4) 1.11265(13) 0.8203(5)
H3A H 0.7579 1.1177 0.8910
H4A H 0.8232 1.1353 0.7673
H5A H 0.8917 1.1055 0.8562
C2A C 0.7664(3) 1.08107(11) 0.7373(4)
C3A C 0.7582(3) 1.03681(12) 0.5847(4)
C4A C 0.7917(4) 1.01050(13) 0.4755(5)
H6A H 0.7468 0.9870 0.4841
H7A H 0.8775 1.0052 0.4792
H8A H 0.7724 1.0223 0.3924
N5A N 0.2694(4) 1.08452(13) 0.7147(5)
O1A O 0.3569(5) 1.06673(16) 0.6835(6)
O2A O 0.2616(6) 1.09346(16) 0.8318(7)
O3A O 0.1966(4) 1.09680(15) 0.6378(7)
N6 N 0.5000 1.0000 0.3149(6)
O4 O 0.5000 1.0000 0.1928(6)
O5 O 0.5169(3) 0.96995(12) 0.3754(4)
O5A O 0.4831(3) 1.03005(12) 0.3754(4)
loop_
_geom_bond_atom_site_label_1
_geom_bond_atom_site_label_2
_geom_bond_site_symmetry_1
_geom_bond_site_symmetry_2
Ag1 N2 1_555 1_555
Ag2 N1 1_555 1_555
N1 N2 1_555 1_555
N2 C3 1_555 1_555
N3 N4 1_555 1_555
N4 H1 1_555 1_555
H2 N4 1_555 1_555
C1 H3 1_555 1_555
H4 C1 1_555 1_555
H5 C1 1_555 1_555
C2 N1 1_555 1_555
C3 N3 1_555 1_555
C4 C3 1_555 1_555
H6 C4 1_555 1_555
H7 C4 1_555 1_555
H8 C4 1_555 1_555
N5 O1 1_555 1_555
O1 Ag2 1_555 1_555
O2 N5 1_555 1_555
O3 N5 1_555 1_555
N6 O4 1_555 1_555
O5 N6 1_555 1_555
Ag2A N1A 1_555 1_555
Ag2H N4 1_555 1_555
Ag2I N4A 1_555 1_555
N1A N2A 1_555 1_555
N2A Ag1 1_555 1_555
N3A N4A 1_555 1_555
N4A H1A 1_555 1_555
N4H Ag2 1_555 1_555
N4I Ag2A 1_555 1_555
H1H N4H 1_555 1_555
H1I N4I 1_555 1_555
H2A N4A 1_555 1_555
H2H N4H 1_555 1_555
H2I N4I 1_555 1_555
C1A H3A 1_555 1_555
H4A C1A 1_555 1_555
H5A C1A 1_555 1_555
C2A N1A 1_555 1_555
C3A N2A 1_555 1_555
C4A C3A 1_555 1_555
H6A C4A 1_555 1_555
H7A C4A 1_555 1_555
H8A C4A 1_555 1_555
N5A O1A 1_555 1_555
O1A Ag2A 1_555 1_555
O2A N5A 1_555 1_555
O3A N5A 1_555 1_555
O5A N6 1_555 1_555
N3 C2 1_555 1_555
C1 C2 1_555 1_555
N3A C2A 1_555 1_555
N3A C3A 1_555 1_555
C1A C2A 1_555 1_555

#END
