
#######################################################################
#
#                 Cambridge Crystallographic Data Centre
#                                CCDC 
#
#######################################################################
#
# If this CIF has been generated from an entry in the Cambridge 
# Structural Database, then it will include bibliographic, chemical, 
# crystal, experimental, refinement or atomic coordinate data resulting 
# from the CCDC's data processing and validation procedures.
#
#######################################################################

data_HINZAH
_symmetry_cell_setting           triclinic
_symmetry_space_group_name_H-M   'P -1'
_symmetry_Int_Tables_number      2
_space_group_name_Hall           '-P 1'
loop_
_symmetry_equiv_pos_site_id
_symmetry_equiv_pos_as_xyz
1 x,y,z
2 -x,-y,-z
_cell_length_a                   15.622(7)
_cell_length_b                   16.005(7)
_cell_length_c                   23.385(10)
_cell_angle_alpha                75.687(7)
_cell_angle_beta                 83.407(7)
_cell_angle_gamma                82.719(7)
_cell_volume                     5598.54
loop_
_atom_site_label
_atom_site_type_symbol
_atom_site_fract_x
_atom_site_fract_y
_atom_site_fract_z
N1 N -0.3973(3) 0.0786(4) 0.9343(2)
Cd1 Cd 0.5000 0.0000 1.0000
N2 N 0.3997(3) 0.0553(4) 0.9298(2)
O1 O -0.0327(4) 0.1284(3) 0.4796(2)
O2 O 0.0879(4) 0.1271(4) 0.4180(2)
O3 O 0.0181(3) 0.3223(4) 0.3024(2)
O4 O -0.0661(4) 0.2179(4) 0.3376(2)
O5 O 0.3828(4) 0.3430(4) 0.4649(3)
O6 O 0.4165(4) 0.4539(4) 0.3966(3)
O7 O 0.3998(3) 0.5257(3) 0.5379(2)
O8 O 0.3832(3) 0.6100(4) 0.4486(2)
C1 C 0.0129(3) 0.3075(4) 0.6300(2)
C2 C 0.0116(3) 0.3869(4) 0.6592(2)
C3 C -0.0684(4) 0.4523(4) 0.6528(2)
C4 C -0.1400(3) 0.4381(4) 0.6289(2)
C5 C -0.1382(3) 0.3656(4) 0.6018(2)
C6 C -0.0641(3) 0.3074(4) 0.5989(2)
C7 C -0.0380(3) 0.2800(4) 0.5461(2)
C8 C 0.0579(3) 0.2739(4) 0.5383(2)
C9 C 0.0874(4) 0.2986(4) 0.5852(2)
C10 C 0.1563(4) 0.3479(4) 0.5765(3)
C11 C 0.1554(3) 0.4202(4) 0.6033(2)
C12 C 0.0856(4) 0.4431(4) 0.6391(2)
C13 C 0.0539(3) 0.5325(4) 0.6345(2)
C14 C -0.0416(4) 0.5369(4) 0.6426(2)
C15 C -0.1640(3) 0.3659(4) 0.5011(2)
C16 C -0.0869(3) 0.3052(4) 0.4982(2)
C17 C -0.0494(3) 0.3222(4) 0.4367(2)
C18 C 0.0530(4) 0.3166(4) 0.4265(2)
C19 C 0.1018(4) 0.2956(4) 0.4807(2)
C20 C 0.1715(3) 0.3468(4) 0.4711(3)
C21 C 0.2019(3) 0.3695(4) 0.5168(2)
C22 C 0.2002(3) 0.4877(4) 0.5616(2)
C23 C 0.1680(3) 0.5720(4) 0.5572(2)
C24 C -0.0960(3) 0.4050(4) 0.4047(2)
C25 C 0.0927(4) 0.3958(4) 0.3888(2)
C26 C 0.1659(3) 0.4076(4) 0.4136(2)
C27 C 0.1914(4) 0.4885(4) 0.4033(2)
C28 C 0.2338(3) 0.5196(4) 0.4473(2)
C29 C 0.1911(3) 0.6073(4) 0.4474(2)
C30 C 0.0157(4) 0.2973(4) 0.6948(2)
C31 C 0.0974(4) 0.2592(5) 0.7258(2)
C32 C 0.1270(4) 0.3065(5) 0.7609(2)
H1 H 0.1026 0.3643 0.7598
C33 C 0.1911(4) 0.2694(4) 0.7968(3)
H2 H 0.2115 0.3008 0.8212
C34 C 0.2260(4) 0.1854(5) 0.7973(3)
C35 C 0.1998(4) 0.1389(4) 0.7597(3)
H3 H 0.2260 0.0821 0.7595
C36 C 0.1358(4) 0.1769(4) 0.7236(2)
H4 H 0.1178 0.1473 0.6972
C37 C 0.2893(4) 0.1408(4) 0.8429(3)
C38 C 0.2772(4) 0.1550(5) 0.8981(3)
H5 H 0.2294 0.1934 0.9080
C39 C 0.3338(4) 0.1143(5) 0.9404(3)
H6 H 0.3260 0.1283 0.9780
C40 C 0.4076(4) 0.0369(5) 0.8773(3)
H7 H 0.4508 -0.0073 0.8695
C41 C 0.3546(4) 0.0801(5) 0.8330(3)
H8 H 0.3643 0.0670 0.7952
C42 C -0.0653(4) 0.2664(5) 0.7338(2)
C43 C -0.0970(4) 0.1934(5) 0.7290(3)
H9 H -0.0729 0.1654 0.6986
C44 C -0.1642(4) 0.1600(5) 0.7681(3)
H10 H -0.1847 0.1074 0.7662
C45 C -0.2021(4) 0.2053(5) 0.8111(2)
C46 C -0.1713(4) 0.2773(5) 0.8155(3)
H11 H -0.1965 0.3067 0.8450
C47 C -0.1016(4) 0.3095(4) 0.7765(3)
H12 H -0.0793 0.3607 0.7795
C48 C -0.2730(4) 0.1657(5) 0.8542(3)
C49 C -0.3326(8) 0.1243(9) 0.8376(5)
H13 H -0.3314 0.1244 0.7969
C50 C -0.3940(9) 0.0827(9) 0.8758(5)
H14 H -0.4353 0.0562 0.8612
C51 C -0.3562(8) 0.1395(8) 0.9493(5)
H15 H -0.3720 0.1537 0.9865
C52 C -0.2918(8) 0.1810(8) 0.9111(5)
H16 H -0.2605 0.2196 0.9233
C53 C 0.0021(4) 0.2565(4) 0.4078(3)
C54 C 0.0150(5) 0.1624(5) 0.4398(3)
C55 C 0.1064(7) 0.0355(6) 0.4469(5)
H17 H 0.1477 0.0072 0.4210
H18 H 0.0526 0.0075 0.4548
H19 H 0.1313 0.0304 0.4844
C56 C -0.0107(5) 0.2688(5) 0.3430(3)
C57 C -0.0900(6) 0.2279(6) 0.2780(3)
H20 H -0.1321 0.1872 0.2785
H21 H -0.0383 0.2160 0.2522
H22 H -0.1158 0.2874 0.2631
C58 C 0.3197(4) 0.4818(4) 0.4721(2)
C59 C 0.3733(4) 0.4157(6) 0.4439(3)
C60 C 0.4803(6) 0.3910(7) 0.3698(4)
H23 H 0.5115 0.4229 0.3339
H24 H 0.4489 0.3481 0.3597
H25 H 0.5218 0.3613 0.3985
C61 C 0.3711(4) 0.5414(5) 0.4912(3)
C62 C 0.4374(5) 0.6714(5) 0.4591(4)
H26 H 0.4415 0.7198 0.4242
H27 H 0.4954 0.6424 0.4669
H28 H 0.4117 0.6935 0.4935
C63 C 0.2387(3) 0.4515(4) 0.5112(3)
N1A N 0.3973(3) 0.9214(4) 0.0657(2)
N2A N -0.3997(3) 0.9447(4) 0.0702(2)
O1A O 0.0327(4) 0.8716(3) 0.5204(2)
O2A O -0.0879(4) 0.8729(4) 0.5820(2)
O3A O -0.0181(3) 0.6777(4) 0.6976(2)
O4A O 0.0661(4) 0.7821(4) 0.6624(2)
O5A O -0.3828(4) 0.6570(4) 0.5351(3)
O6A O -0.4165(4) 0.5461(4) 0.6034(3)
O7A O -0.3998(3) 0.4743(3) 0.4621(2)
O8A O -0.3832(3) 0.3900(4) 0.5514(2)
C1A C -0.0129(3) 0.6925(4) 0.3700(2)
C2A C -0.0116(3) 0.6131(4) 0.3408(2)
C3A C 0.0684(4) 0.5477(4) 0.3472(2)
C4A C 0.1400(3) 0.5619(4) 0.3711(2)
C5A C 0.1382(3) 0.6344(4) 0.3982(2)
C6A C 0.0641(3) 0.6926(4) 0.4011(2)
C7A C 0.0380(3) 0.7200(4) 0.4539(2)
C8A C -0.0579(3) 0.7261(4) 0.4617(2)
C9A C -0.0874(4) 0.7014(4) 0.4148(2)
C10A C -0.1563(4) 0.6521(4) 0.4235(3)
C11A C -0.1554(3) 0.5798(4) 0.3967(2)
C12A C -0.0856(4) 0.5569(4) 0.3609(2)
C13A C -0.0539(3) 0.4675(4) 0.3655(2)
C14A C 0.0416(4) 0.4631(4) 0.3574(2)
C15A C 0.1640(3) 0.6341(4) 0.4989(2)
C16A C 0.0869(3) 0.6948(4) 0.5018(2)
C17A C 0.0494(3) 0.6778(4) 0.5633(2)
C18A C -0.0530(4) 0.6834(4) 0.5735(2)
C19A C -0.1018(4) 0.7044(4) 0.5193(2)
C20A C -0.1715(3) 0.6532(4) 0.5289(3)
C21A C -0.2019(3) 0.6305(4) 0.4832(2)
C22A C -0.2002(3) 0.5123(4) 0.4384(2)
C23A C -0.1680(3) 0.4280(4) 0.4428(2)
C24A C 0.0960(3) 0.5950(4) 0.5953(2)
C25A C -0.0927(4) 0.6042(4) 0.6112(2)
C26A C -0.1659(3) 0.5924(4) 0.5864(2)
C27A C -0.1914(4) 0.5115(4) 0.5967(2)
C28A C -0.2338(3) 0.4804(4) 0.5527(2)
C29A C -0.1911(3) 0.3927(4) 0.5526(2)
C30A C -0.0157(4) 0.7027(4) 0.3052(2)
C31A C -0.0974(4) 0.7408(5) 0.2742(2)
C32A C -0.1270(4) 0.6935(5) 0.2391(2)
H1A H -0.1026 0.6357 0.2402
C33A C -0.1911(4) 0.7306(4) 0.2032(3)
H2A H -0.2115 0.6992 0.1788
C34A C -0.2260(4) 0.8146(5) 0.2027(3)
C35A C -0.1998(4) 0.8611(4) 0.2403(3)
H3A H -0.2260 0.9179 0.2405
C36A C -0.1358(4) 0.8231(4) 0.2764(2)
H4A H -0.1178 0.8527 0.3028
C37A C -0.2893(4) 0.8592(4) 0.1571(3)
C38A C -0.2772(4) 0.8450(5) 0.1019(3)
H5A H -0.2294 0.8066 0.0920
C39A C -0.3338(4) 0.8857(5) 0.0596(3)
H6A H -0.3260 0.8717 0.0220
C40A C -0.4076(4) 0.9631(5) 0.1227(3)
H7A H -0.4508 1.0073 0.1305
C41A C -0.3546(4) 0.9199(5) 0.1670(3)
H8A H -0.3643 0.9330 0.2048
C42A C 0.0653(4) 0.7336(5) 0.2662(2)
C43A C 0.0970(4) 0.8066(5) 0.2710(3)
H9A H 0.0729 0.8346 0.3014
C44A C 0.1642(4) 0.8400(5) 0.2319(3)
H10A H 0.1847 0.8926 0.2338
C45A C 0.2021(4) 0.7947(5) 0.1889(2)
C46A C 0.1713(4) 0.7227(5) 0.1845(3)
H11A H 0.1965 0.6933 0.1550
C47A C 0.1016(4) 0.6905(4) 0.2235(3)
H12A H 0.0793 0.6393 0.2205
C48A C 0.2730(4) 0.8343(5) 0.1458(3)
C49A C 0.3326(8) 0.8757(9) 0.1624(5)
H13A H 0.3314 0.8756 0.2031
C50A C 0.3940(9) 0.9173(9) 0.1242(5)
H14A H 0.4353 0.9438 0.1388
C51A C 0.3562(8) 0.8605(8) 0.0507(5)
H15A H 0.3720 0.8463 0.0135
C52A C 0.2918(8) 0.8190(8) 0.0889(5)
H16A H 0.2605 0.7804 0.0767
C53A C -0.0021(4) 0.7435(4) 0.5922(3)
C54A C -0.0150(5) 0.8376(5) 0.5602(3)
C55A C -0.1064(7) 0.9645(6) 0.5531(5)
H17A H -0.1477 0.9928 0.5790
H18A H -0.0526 0.9925 0.5452
H19A H -0.1313 0.9696 0.5156
C56A C 0.0107(5) 0.7312(5) 0.6570(3)
C57A C 0.0900(6) 0.7721(6) 0.7220(3)
H20A H 0.1321 0.8128 0.7215
H21A H 0.0383 0.7840 0.7478
H22A H 0.1158 0.7126 0.7369
C58A C -0.3197(4) 0.5182(4) 0.5279(2)
C59A C -0.3733(4) 0.5843(6) 0.5561(3)
C60A C -0.4803(6) 0.6090(7) 0.6302(4)
H23A H -0.5115 0.5771 0.6661
H24A H -0.4489 0.6519 0.6403
H25A H -0.5218 0.6387 0.6015
C61A C -0.3711(4) 0.4586(5) 0.5088(3)
C62A C -0.4374(5) 0.3286(5) 0.5409(4)
H26A H -0.4415 0.2802 0.5758
H27A H -0.4954 0.3576 0.5331
H28A H -0.4117 0.3065 0.5065
C63A C -0.2387(3) 0.5485(4) 0.4888(3)
N1_2 N 0.6027(3) 0.0786(4) 0.9343(2)
N1A_2 N 0.3973(3) -0.0786(4) 1.0657(2)
Cd1_2 Cd -0.5000 0.0000 1.0000
Cd1_3 Cd -0.5000 1.0000 0.0000
Cd1_4 Cd 0.5000 1.0000 0.0000
N2A_2 N 0.6003(3) -0.0553(4) 1.0702(2)
N3 N 0.4808(5) 0.6933(5) 0.2940(3)
N4 N 0.3493(9) -0.1365(6) 0.3555(5)
O9 O -0.1652(3) 0.4644(4) 0.24412(19)
O10 O -0.3046(3) 0.5049(4) 0.25154(19)
O11 O -0.3793(3) 0.5137(4) 0.1291(2)
O12 O -0.3403(3) 0.6402(4) 0.1330(2)
O13 O -0.2212(8) 0.1930(8) 0.0392(7)
O14 O -0.1184(7) 0.1041(9) 0.0808(7)
C64 C -0.1784(11) 0.0530(18) 0.1153(14)
H29 H -0.1495 0.0084 0.1457
H30 H -0.2062 0.0252 0.0904
H31 H -0.2224 0.0890 0.1344
O15 O -0.0469(11) 0.1601(10) -0.0864(6)
C65 C -0.0036(15) 0.1108(14) -0.1255(8)
H32 H -0.0361 0.1202 -0.1604
H33 H 0.0008 0.0492 -0.1053
H34 H 0.0547 0.1289 -0.1380
O16 O 0.0616(12) 0.1228(15) -0.0292(9)
C66 C 0.1140(4) 0.4044(4) 0.1367(2)
C67 C 0.0748(4) 0.4960(5) 0.1381(3)
C68 C -0.0171(4) 0.4923(5) 0.1522(2)
C69 C -0.0380(4) 0.4085(5) 0.1521(2)
C70 C 0.0408(4) 0.3579(5) 0.1388(3)
C71 C 0.0405(4) 0.3000(4) 0.1028(3)
C72 C -0.0411(4) 0.6428(5) 0.0957(3)
C73 C -0.0730(4) 0.5654(5) 0.1332(3)
C74 C -0.1618(4) 0.5610(5) 0.1171(3)
C75 C -0.1864(4) 0.4683(5) 0.1167(2)
C76 C -0.1141(4) 0.3910(5) 0.1330(3)
C77 C -0.1151(4) 0.3359(5) 0.0954(3)
C78 C -0.0398(4) 0.2886(4) 0.0822(3)
C79 C 0.0168(4) 0.7381(4) -0.0245(3)
C80 C -0.0739(4) 0.7215(4) -0.0066(3)
C81 C -0.1022(4) 0.6812(5) 0.0499(3)
C82 C -0.1711(4) 0.6285(4) 0.0602(3)
C83 C -0.2071(4) 0.6137(5) 0.0129(3)
C84 C -0.2278(4) 0.5304(6) 0.0130(3)
C85 C -0.2126(4) 0.4559(5) 0.0601(3)
C86 C -0.1755(4) 0.3736(4) 0.0509(3)
C87 C -0.1122(4) 0.7043(5) -0.0554(3)
C88 C -0.1789(4) 0.6558(5) -0.0462(3)
C89 C -0.1913(4) 0.5998(5) -0.0849(3)
C90 C -0.2109(4) 0.5160(5) -0.0452(2)
C91 C -0.1753(4) 0.4345(5) -0.0551(3)
C92 C -0.1598(4) 0.3632(4) -0.0067(3)
C93 C -0.1048(4) 0.4308(5) -0.1023(3)
C94 C -0.0479(4) 0.3538(4) -0.0825(2)
C95 C -0.0852(4) 0.3041(4) -0.0254(3)
C96 C 0.2071(4) 0.3718(5) 0.1503(3)
C97 C 0.2549(4) 0.4275(5) 0.1750(3)
C98 C 0.2237(4) 0.4504(5) 0.2269(3)
H35 H 0.1698 0.4332 0.2465
C99 C 0.2704(4) 0.4978(5) 0.2500(3)
H36 H 0.2476 0.5129 0.2859
C100 C 0.3483(4) 0.5252(5) 0.2247(3)
C101 C 0.3827(4) 0.4962(5) 0.1728(3)
H37 H 0.4383 0.5107 0.1550
C102 C 0.3378(4) 0.4487(5) 0.1487(3)
H38 H 0.3618 0.4297 0.1143
C103 C 0.3960(4) 0.5812(6) 0.2488(3)
C104 C 0.3511(5) 0.6361(6) 0.2807(3)
H39 H 0.2900 0.6369 0.2885
C105 C 0.3949(6) 0.6903(6) 0.3016(4)
H40 H 0.3616 0.7285 0.3229
C106 C 0.5238(6) 0.6406(9) 0.2638(4)
H41 H 0.5848 0.6416 0.2569
C107 C 0.4850(5) 0.5823(7) 0.2408(3)
H42 H 0.5197 0.5443 0.2200
C108 C 0.2241(4) 0.2769(5) 0.1780(3)
C109 C 0.2942(4) 0.2252(6) 0.1577(3)
H43 H 0.3279 0.2481 0.1220
C110 C 0.3146(5) 0.1422(6) 0.1886(4)
H44 H 0.3607 0.1069 0.1735
C111 C 0.2671(6) 0.1079(5) 0.2438(3)
C112 C 0.1961(5) 0.1574(5) 0.2632(3)
C113 C 0.1755(5) 0.2363(6) 0.2286(4)
H45 H 0.1228 0.2673 0.2397
C114 C 0.2943(6) 0.0234(6) 0.2806(4)
C115 C 0.3833(7) -0.0094(6) 0.2808(4)
H46 H 0.4261 0.0209 0.2544
C116 C 0.4067(10) -0.0896(8) 0.3222(6)
H47 H 0.4664 -0.1091 0.3254
C117 C 0.2587(9) -0.1076(7) 0.3552(5)
H48 H 0.2176 -0.1417 0.3805
C118 C 0.2310(7) -0.0274(6) 0.3168(4)
H49 H 0.1711 -0.0079 0.3154
C119 C -0.2385(4) 0.5200(4) 0.1556(3)
C120 C -0.2300(4) 0.4924(5) 0.2215(3)
C121 C -0.3067(5) 0.4794(7) 0.3154(3)
H50 H -0.3657 0.4919 0.3326
H51 H -0.2672 0.5120 0.3290
H52 H -0.2886 0.4172 0.3279
C122 C -0.3267(4) 0.5551(6) 0.1378(3)
C123 C -0.4216(5) 0.6899(6) 0.1103(5)
H53 H -0.4209 0.7512 0.1098
H54 H -0.4715 0.6672 0.1362
H55 H -0.4259 0.6839 0.0701
C124 C -0.0701(5) 0.2091(5) -0.0002(3)
C125 C -0.0222(9) 0.1589(6) -0.0405(5)
C126 C -0.1403(6) 0.1641(7) 0.0402(4)
N3A N -0.4808(5) 0.3067(5) -0.2940(3)
N4A N -0.3493(9) 1.1365(6) -0.3555(5)
O9A O 0.1652(3) 0.5356(4) -0.24412(19)
O10A O 0.3046(3) 0.4951(4) -0.25154(19)
O11A O 0.3793(3) 0.4863(4) -0.1291(2)
O12A O 0.3403(3) 0.3598(4) -0.1330(2)
O13A O 0.2212(8) 0.8070(8) -0.0392(7)
O14A O 0.1184(7) 0.8959(9) -0.0808(7)
C64A C 0.1784(11) 0.9470(18) -0.1153(14)
H29A H 0.1495 0.9916 -0.1457
H30A H 0.2062 0.9748 -0.0904
H31A H 0.2224 0.9110 -0.1344
O15A O 0.0469(11) 0.8399(10) 0.0864(6)
C65A C 0.0036(15) 0.8892(14) 0.1255(8)
H32A H 0.0361 0.8798 0.1604
H33A H -0.0008 0.9508 0.1053
H34A H -0.0547 0.8711 0.1380
O16A O -0.0616(12) 0.8772(15) 0.0292(9)
C66A C -0.1140(4) 0.5956(4) -0.1367(2)
C67A C -0.0748(4) 0.5040(5) -0.1381(3)
C68A C 0.0171(4) 0.5077(5) -0.1522(2)
C69A C 0.0380(4) 0.5915(5) -0.1521(2)
C70A C -0.0408(4) 0.6421(5) -0.1388(3)
C71A C -0.0405(4) 0.7000(4) -0.1028(3)
C72A C 0.0411(4) 0.3572(5) -0.0957(3)
C73A C 0.0730(4) 0.4346(5) -0.1332(3)
C74A C 0.1618(4) 0.4390(5) -0.1171(3)
C75A C 0.1864(4) 0.5317(5) -0.1167(2)
C76A C 0.1141(4) 0.6090(5) -0.1330(3)
C77A C 0.1151(4) 0.6641(5) -0.0954(3)
C78A C 0.0398(4) 0.7114(4) -0.0822(3)
C79A C -0.0168(4) 0.2619(4) 0.0245(3)
C80A C 0.0739(4) 0.2785(4) 0.0066(3)
C81A C 0.1022(4) 0.3188(5) -0.0499(3)
C82A C 0.1711(4) 0.3715(4) -0.0602(3)
C83A C 0.2071(4) 0.3863(5) -0.0129(3)
C84A C 0.2278(4) 0.4696(6) -0.0130(3)
C85A C 0.2126(4) 0.5441(5) -0.0601(3)
C86A C 0.1755(4) 0.6264(4) -0.0509(3)
C87A C 0.1122(4) 0.2957(5) 0.0554(3)
C88A C 0.1789(4) 0.3442(5) 0.0462(3)
C89A C 0.1913(4) 0.4002(5) 0.0849(3)
C90A C 0.2109(4) 0.4840(5) 0.0452(2)
C91A C 0.1753(4) 0.5655(5) 0.0551(3)
C92A C 0.1598(4) 0.6368(4) 0.0067(3)
C93A C 0.1048(4) 0.5692(5) 0.1023(3)
C94A C 0.0479(4) 0.6462(4) 0.0825(2)
C95A C 0.0852(4) 0.6959(4) 0.0254(3)
C96A C -0.2071(4) 0.6282(5) -0.1503(3)
C97A C -0.2549(4) 0.5725(5) -0.1750(3)
C98A C -0.2237(4) 0.5496(5) -0.2269(3)
H35A H -0.1698 0.5668 -0.2465
C99A C -0.2704(4) 0.5022(5) -0.2500(3)
H36A H -0.2476 0.4871 -0.2859
C100A C -0.3483(4) 0.4748(5) -0.2247(3)
C101A C -0.3827(4) 0.5038(5) -0.1728(3)
H37A H -0.4383 0.4893 -0.1550
C102A C -0.3378(4) 0.5513(5) -0.1487(3)
H38A H -0.3618 0.5703 -0.1143
C103A C -0.3960(4) 0.4188(6) -0.2488(3)
C104A C -0.3511(5) 0.3639(6) -0.2807(3)
H39A H -0.2900 0.3631 -0.2885
C105A C -0.3949(6) 0.3097(6) -0.3016(4)
H40A H -0.3616 0.2715 -0.3229
C106A C -0.5238(6) 0.3594(9) -0.2638(4)
H41A H -0.5848 0.3584 -0.2569
C107A C -0.4850(5) 0.4177(7) -0.2408(3)
H42A H -0.5197 0.4557 -0.2200
C108A C -0.2241(4) 0.7231(5) -0.1780(3)
C109A C -0.2942(4) 0.7748(6) -0.1577(3)
H43A H -0.3279 0.7519 -0.1220
C110A C -0.3146(5) 0.8578(6) -0.1886(4)
H44A H -0.3607 0.8931 -0.1735
C111A C -0.2671(6) 0.8921(5) -0.2438(3)
C112A C -0.1961(5) 0.8426(5) -0.2632(3)
C113A C -0.1755(5) 0.7637(6) -0.2286(4)
H45A H -0.1228 0.7327 -0.2397
C114A C -0.2943(6) 0.9766(6) -0.2806(4)
C115A C -0.3833(7) 1.0094(6) -0.2808(4)
H46A H -0.4261 0.9791 -0.2544
C116A C -0.4067(10) 1.0896(8) -0.3222(6)
H47A H -0.4664 1.1091 -0.3254
C117A C -0.2587(9) 1.1076(7) -0.3552(5)
H48A H -0.2176 1.1417 -0.3805
C118A C -0.2310(7) 1.0274(6) -0.3168(4)
H49A H -0.1711 1.0079 -0.3154
C119A C 0.2385(4) 0.4800(4) -0.1556(3)
C120A C 0.2300(4) 0.5076(5) -0.2215(3)
C121A C 0.3067(5) 0.5206(7) -0.3154(3)
H50A H 0.3657 0.5081 -0.3326
H51A H 0.2672 0.4880 -0.3290
H52A H 0.2886 0.5828 -0.3279
C122A C 0.3267(4) 0.4449(6) -0.1378(3)
C123A C 0.4216(5) 0.3101(6) -0.1103(5)
H53A H 0.4209 0.2488 -0.1098
H54A H 0.4715 0.3328 -0.1362
H55A H 0.4259 0.3161 -0.0701
C124A C 0.0701(5) 0.7909(5) 0.0002(3)
C125A C 0.0222(9) 0.8411(6) 0.0405(5)
C126A C 0.1403(6) 0.8359(7) -0.0402(4)
O17? O -0.1860(15) 0.1890(15) 0.0726(10)
O18? O -0.1341(13) 0.0858(13) 0.0284(12)
C127? C -0.208(3) 0.039(2) 0.059(2)
H56? H -0.2029 -0.0179 0.0498
H57? H -0.2620 0.0724 0.0451
H58? H -0.2082 0.0323 0.1016
O19? O -0.0910(10) 0.1114(15) -0.0536(10)
C128? C -0.075(2) 0.052(2) -0.0955(12)
H59? H -0.1290 0.0271 -0.0972
H60? H -0.0305 0.0046 -0.0813
H61? H -0.0559 0.0842 -0.1351
O20? O 0.0368(16) 0.1541(18) -0.0627(14)
C129? C -0.2676(13) 0.0679(15) 0.8640(8)
H62? H -0.2231 0.0363 0.8443
C130? C -0.3317(13) 0.0274(15) 0.9034(8)
H63? H -0.3330 -0.0335 0.9104
C131? C -0.3961(15) 0.1524(17) 0.9220(9)
H64? H -0.4415 0.1838 0.9410
C132? C -0.3323(15) 0.2067(17) 0.8799(9)
H65? H -0.3371 0.2681 0.8733
loop_
_geom_bond_atom_site_label_1
_geom_bond_atom_site_label_2
_geom_bond_site_symmetry_1
_geom_bond_site_symmetry_2
N1 C50 1_555 1_555
Cd1 N2 1_555 1_555
N2 C39 1_555 1_555
O1 C54 1_555 1_555
O2 C54 1_555 1_555
O3 C56 1_555 1_555
O4 C56 1_555 1_555
O5 C59 1_555 1_555
O6 C59 1_555 1_555
O7 C61 1_555 1_555
O8 C61 1_555 1_555
C1 C2 1_555 1_555
C2 C3 1_555 1_555
C3 C4 1_555 1_555
C4 C5 1_555 1_555
C5 C6 1_555 1_555
C6 C1 1_555 1_555
C7 C6 1_555 1_555
C8 C7 1_555 1_555
C9 C1 1_555 1_555
C10 C9 1_555 1_555
C11 C10 1_555 1_555
C12 C2 1_555 1_555
C13 C12 1_555 1_555
C14 C3 1_555 1_555
C15 C16 1_555 1_555
C16 C7 1_555 1_555
C17 C16 1_555 1_555
C18 C17 1_555 1_555
C19 C8 1_555 1_555
C20 C19 1_555 1_555
C21 C10 1_555 1_555
C22 C11 1_555 1_555
C23 C22 1_555 1_555
C24 C17 1_555 1_555
C25 C18 1_555 1_555
C26 C20 1_555 1_555
C27 C26 1_555 1_555
C28 C27 1_555 1_555
C29 C28 1_555 1_555
C30 C1 1_555 1_555
C31 C30 1_555 1_555
C32 C31 1_555 1_555
H1 C32 1_555 1_555
C33 C32 1_555 1_555
H2 C33 1_555 1_555
C34 C33 1_555 1_555
C35 C34 1_555 1_555
H3 C35 1_555 1_555
C36 C31 1_555 1_555
H4 C36 1_555 1_555
C37 C34 1_555 1_555
C38 C37 1_555 1_555
H5 C38 1_555 1_555
C39 C38 1_555 1_555
H6 C39 1_555 1_555
C40 N2 1_555 1_555
H7 C40 1_555 1_555
C41 C37 1_555 1_555
H8 C41 1_555 1_555
C42 C30 1_555 1_555
C43 C42 1_555 1_555
H9 C43 1_555 1_555
C44 C43 1_555 1_555
H10 C44 1_555 1_555
C45 C44 1_555 1_555
C46 C45 1_555 1_555
H11 C46 1_555 1_555
C47 C42 1_555 1_555
H12 C47 1_555 1_555
C48 C45 1_555 1_555
C49 C48 1_555 1_555
H13 C49 1_555 1_555
C50 C49 1_555 1_555
H14 C50 1_555 1_555
C51 N1 1_555 1_555
H15 C51 1_555 1_555
C52 C48 1_555 1_555
H16 C52 1_555 1_555
C53 C17 1_555 1_555
C54 C53 1_555 1_555
C55 O2 1_555 1_555
H17 C55 1_555 1_555
H18 C55 1_555 1_555
H19 C55 1_555 1_555
C56 C53 1_555 1_555
C57 O4 1_555 1_555
H20 C57 1_555 1_555
H21 C57 1_555 1_555
H22 C57 1_555 1_555
C58 C28 1_555 1_555
C59 C58 1_555 1_555
C60 O6 1_555 1_555
H23 C60 1_555 1_555
H24 C60 1_555 1_555
H25 C60 1_555 1_555
C61 C58 1_555 1_555
C62 O8 1_555 1_555
H26 C62 1_555 1_555
H27 C62 1_555 1_555
H28 C62 1_555 1_555
C63 C21 1_555 1_555
N3 C105 1_555 1_555
N4 C116 1_555 1_555
O9 C120 1_555 1_555
O10 C120 1_555 1_555
O11 C122 1_555 1_555
O12 C122 1_555 1_555
O13 C126 1_555 1_555
O14 C64 1_555 1_555
C64 H29 1_555 1_555
H30 C64 1_555 1_555
H31 C64 1_555 1_555
O15 C65 1_555 1_555
C65 H32 1_555 1_555
H33 C65 1_555 1_555
H34 C65 1_555 1_555
O16 C125 1_555 1_555
C66 C67 1_555 1_555
C67 C68 1_555 1_555
C68 C69 1_555 1_555
C69 C70 1_555 1_555
C70 C66 1_555 1_555
C71 C70 1_555 1_555
C72 C73 1_555 1_555
C73 C68 1_555 1_555
C74 C73 1_555 1_555
C75 C74 1_555 1_555
C76 C69 1_555 1_555
C77 C76 1_555 1_555
C78 C71 1_555 1_555
C79 C80 1_555 1_555
C80 C81 1_555 1_555
C81 C72 1_555 1_555
C82 C74 1_555 1_555
C83 C82 1_555 1_555
C84 C83 1_555 1_555
C85 C75 1_555 1_555
C86 C77 1_555 1_555
C87 C80 1_555 1_555
C88 C83 1_555 1_555
C89 C88 1_555 1_555
C90 C84 1_555 1_555
C91 C90 1_555 1_555
C92 C86 1_555 1_555
C93 C91 1_555 1_555
C94 C93 1_555 1_555
C95 C92 1_555 1_555
C96 C66 1_555 1_555
C97 C96 1_555 1_555
C98 C97 1_555 1_555
H35 C98 1_555 1_555
C99 C98 1_555 1_555
H36 C99 1_555 1_555
C100 C99 1_555 1_555
C101 C100 1_555 1_555
H37 C101 1_555 1_555
C102 C97 1_555 1_555
H38 C102 1_555 1_555
C103 C100 1_555 1_555
C104 C103 1_555 1_555
H39 C104 1_555 1_555
C105 C104 1_555 1_555
H40 C105 1_555 1_555
C106 N3 1_555 1_555
H41 C106 1_555 1_555
C107 C103 1_555 1_555
H42 C107 1_555 1_555
C108 C96 1_555 1_555
C109 C108 1_555 1_555
H43 C109 1_555 1_555
C110 C109 1_555 1_555
H44 C110 1_555 1_555
C111 C110 1_555 1_555
C112 C111 1_555 1_555
C113 C108 1_555 1_555
H45 C113 1_555 1_555
C114 C111 1_555 1_555
C115 C114 1_555 1_555
H46 C115 1_555 1_555
C116 C115 1_555 1_555
H47 C116 1_555 1_555
C117 N4 1_555 1_555
H48 C117 1_555 1_555
C118 C114 1_555 1_555
H49 C118 1_555 1_555
C119 C74 1_555 1_555
C120 C119 1_555 1_555
C121 O10 1_555 1_555
H50 C121 1_555 1_555
H51 C121 1_555 1_555
H52 C121 1_555 1_555
C122 C119 1_555 1_555
C123 O12 1_555 1_555
H53 C123 1_555 1_555
H54 C123 1_555 1_555
H55 C123 1_555 1_555
C124 C95 1_555 1_555
C125 O15 1_555 1_555
C126 O14 1_555 1_555
N1A C50A 1_555 1_555
N2A C39A 1_555 1_555
O1A C54A 1_555 1_555
O2A C54A 1_555 1_555
O3A C56A 1_555 1_555
O4A C56A 1_555 1_555
O5A C59A 1_555 1_555
O6A C59A 1_555 1_555
O7A C61A 1_555 1_555
O8A C61A 1_555 1_555
C1A C2A 1_555 1_555
C2A C3A 1_555 1_555
C3A C4A 1_555 1_555
C4A C27 1_555 1_555
C5A C29 1_555 1_555
C6A C1A 1_555 1_555
C7A C6A 1_555 1_555
C8A C7A 1_555 1_555
C9A C1A 1_555 1_555
C10A C9A 1_555 1_555
C11A C10A 1_555 1_555
C12A C2A 1_555 1_555
C13A C24 1_555 1_555
C14A C25 1_555 1_555
C15A C23 1_555 1_555
C16A C7A 1_555 1_555
C17A C16A 1_555 1_555
C18A C17A 1_555 1_555
C19A C8A 1_555 1_555
C20A C19A 1_555 1_555
C21A C10A 1_555 1_555
C22A C11A 1_555 1_555
C23A C15 1_555 1_555
C24A C13 1_555 1_555
C25A C14 1_555 1_555
C26A C20A 1_555 1_555
C27A C4 1_555 1_555
C28A C27A 1_555 1_555
C29A C5 1_555 1_555
C30A C1A 1_555 1_555
C31A C30A 1_555 1_555
C32A C31A 1_555 1_555
H1A C32A 1_555 1_555
C33A C32A 1_555 1_555
H2A C33A 1_555 1_555
C34A C33A 1_555 1_555
C35A C34A 1_555 1_555
H3A C35A 1_555 1_555
C36A C31A 1_555 1_555
H4A C36A 1_555 1_555
C37A C34A 1_555 1_555
C38A C37A 1_555 1_555
H5A C38A 1_555 1_555
C39A C38A 1_555 1_555
H6A C39A 1_555 1_555
C40A N2A 1_555 1_555
H7A C40A 1_555 1_555
C41A C37A 1_555 1_555
H8A C41A 1_555 1_555
C42A C30A 1_555 1_555
C43A C42A 1_555 1_555
H9A C43A 1_555 1_555
C44A C43A 1_555 1_555
H10A C44A 1_555 1_555
C45A C44A 1_555 1_555
C46A C45A 1_555 1_555
H11A C46A 1_555 1_555
C47A C42A 1_555 1_555
H12A C47A 1_555 1_555
C48A C45A 1_555 1_555
C49A C48A 1_555 1_555
H13A C49A 1_555 1_555
C50A C49A 1_555 1_555
H14A C50A 1_555 1_555
C51A N1A 1_555 1_555
H15A C51A 1_555 1_555
C52A C48A 1_555 1_555
H16A C52A 1_555 1_555
C53A C17A 1_555 1_555
C54A C53A 1_555 1_555
C55A O2A 1_555 1_555
H17A C55A 1_555 1_555
H18A C55A 1_555 1_555
H19A C55A 1_555 1_555
C56A C53A 1_555 1_555
C57A O4A 1_555 1_555
H20A C57A 1_555 1_555
H21A C57A 1_555 1_555
H22A C57A 1_555 1_555
C58A C28A 1_555 1_555
C59A C58A 1_555 1_555
C60A O6A 1_555 1_555
H23A C60A 1_555 1_555
H24A C60A 1_555 1_555
H25A C60A 1_555 1_555
C61A C58A 1_555 1_555
C62A O8A 1_555 1_555
H26A C62A 1_555 1_555
H27A C62A 1_555 1_555
H28A C62A 1_555 1_555
C63A C21A 1_555 1_555
N1_2 Cd1 1_555 1_555
N1A_2 Cd1 1_555 1_555
Cd1_2 N1 1_555 1_555
Cd1_3 N2A 1_555 1_555
Cd1_4 N1A 1_555 1_555
N2A_2 Cd1 1_555 1_555
N3A C105A 1_555 1_555
N4A C116A 1_555 1_555
O9A C120A 1_555 1_555
O10A C120A 1_555 1_555
O11A C122A 1_555 1_555
O12A C122A 1_555 1_555
O13A C126A 1_555 1_555
O14A C64A 1_555 1_555
C64A H29A 1_555 1_555
H30A C64A 1_555 1_555
H31A C64A 1_555 1_555
O15A C65A 1_555 1_555
C65A H32A 1_555 1_555
H33A C65A 1_555 1_555
H34A C65A 1_555 1_555
O16A C125A 1_555 1_555
C66A C89 1_555 1_555
C67A C93 1_555 1_555
C68A C67A 1_555 1_555
C69A C68A 1_555 1_555
C70A C66A 1_555 1_555
C71A C87 1_555 1_555
C72A C94 1_555 1_555
C73A C68A 1_555 1_555
C74A C73A 1_555 1_555
C75A C74A 1_555 1_555
C76A C69A 1_555 1_555
C77A C76A 1_555 1_555
C78A C79 1_555 1_555
C79A C78 1_555 1_555
C80A C79A 1_555 1_555
C81A C72A 1_555 1_555
C82A C74A 1_555 1_555
C83A C82A 1_555 1_555
C84A C83A 1_555 1_555
C85A C75A 1_555 1_555
C86A C77A 1_555 1_555
C87A C71 1_555 1_555
C88A C83A 1_555 1_555
C89A C66 1_555 1_555
C90A C84A 1_555 1_555
C91A C90A 1_555 1_555
C92A C86A 1_555 1_555
C93A C67 1_555 1_555
C94A C72 1_555 1_555
C95A C79 1_555 1_555
C96A C89 1_555 1_555
C97A C96A 1_555 1_555
C98A C97A 1_555 1_555
H35A C98A 1_555 1_555
C99A C98A 1_555 1_555
H36A C99A 1_555 1_555
C100A C99A 1_555 1_555
C101A C100A 1_555 1_555
H37A C101A 1_555 1_555
C102A C97A 1_555 1_555
H38A C102A 1_555 1_555
C103A C100A 1_555 1_555
C104A C103A 1_555 1_555
H39A C104A 1_555 1_555
C105A C104A 1_555 1_555
H40A C105A 1_555 1_555
C106A N3A 1_555 1_555
H41A C106A 1_555 1_555
C107A C103A 1_555 1_555
H42A C107A 1_555 1_555
C108A C96A 1_555 1_555
C109A C108A 1_555 1_555
H43A C109A 1_555 1_555
C110A C109A 1_555 1_555
H44A C110A 1_555 1_555
C111A C110A 1_555 1_555
C112A C111A 1_555 1_555
C113A C108A 1_555 1_555
H45A C113A 1_555 1_555
C114A C111A 1_555 1_555
C115A C114A 1_555 1_555
H46A C115A 1_555 1_555
C116A C115A 1_555 1_555
H47A C116A 1_555 1_555
C117A N4A 1_555 1_555
H48A C117A 1_555 1_555
C118A C114A 1_555 1_555
H49A C118A 1_555 1_555
C119A C74A 1_555 1_555
C120A C119A 1_555 1_555
C121A O10A 1_555 1_555
H50A C121A 1_555 1_555
H51A C121A 1_555 1_555
H52A C121A 1_555 1_555
C122A C119A 1_555 1_555
C123A O12A 1_555 1_555
H53A C123A 1_555 1_555
H54A C123A 1_555 1_555
H55A C123A 1_555 1_555
C124A C79 1_555 1_555
C125A O15A 1_555 1_555
C126A O14A 1_555 1_555
C2 C30 1_555 1_555
C8 C9 1_555 1_555
C11 C12 1_555 1_555
C13 C14 1_555 1_555
C15 C29A 1_555 1_555
C18 C19 1_555 1_555
C18 C53 1_555 1_555
C20 C21 1_555 1_555
C22 C63 1_555 1_555
C23 C24A 1_555 1_555
C24 C23A 1_555 1_555
C25 C26 1_555 1_555
C28 C63 1_555 1_555
C29 C15A 1_555 1_555
C35 C36 1_555 1_555
C40 C41 1_555 1_555
C46 C47 1_555 1_555
C51 C52 1_555 1_555
C58 C63 1_555 1_555
C75 C76 1_555 1_555
C75 C119 1_555 1_555
C77 C78 1_555 1_555
C81 C82 1_555 1_555
C84 C85 1_555 1_555
C85 C86 1_555 1_555
C87 C88 1_555 1_555
C89 C90 1_555 1_555
C91 C92 1_555 1_555
C94 C95 1_555 1_555
C95 C79A 1_555 1_555
C96 C89A 1_555 1_555
C101 C102 1_555 1_555
C106 C107 1_555 1_555
C112 C113 1_555 1_555
C117 C118 1_555 1_555
C124 C125 1_555 1_555
C124 C126 1_555 1_555
C124 C79A 1_555 1_555
C2A C30A 1_555 1_555
C3A C14A 1_555 1_555
C4A C5A 1_555 1_555
C5A C6A 1_555 1_555
C8A C9A 1_555 1_555
C11A C12A 1_555 1_555
C12A C13A 1_555 1_555
C13A C14A 1_555 1_555
C15A C16A 1_555 1_555
C17A C24A 1_555 1_555
C18A C19A 1_555 1_555
C18A C25A 1_555 1_555
C18A C53A 1_555 1_555
C20A C21A 1_555 1_555
C22A C23A 1_555 1_555
C22A C63A 1_555 1_555
C25A C26A 1_555 1_555
C26A C27A 1_555 1_555
C28A C29A 1_555 1_555
C28A C63A 1_555 1_555
C35A C36A 1_555 1_555
C40A C41A 1_555 1_555
C46A C47A 1_555 1_555
C51A C52A 1_555 1_555
C58A C63A 1_555 1_555
C66A C67A 1_555 1_555
C66A C96A 1_555 1_555
C69A C70A 1_555 1_555
C70A C71A 1_555 1_555
C71A C78A 1_555 1_555
C72A C73A 1_555 1_555
C75A C76A 1_555 1_555
C75A C119A 1_555 1_555
C77A C78A 1_555 1_555
C80A C81A 1_555 1_555
C80A C87A 1_555 1_555
C81A C82A 1_555 1_555
C84A C85A 1_555 1_555
C85A C86A 1_555 1_555
C87A C88A 1_555 1_555
C88A C89A 1_555 1_555
C89A C90A 1_555 1_555
C91A C92A 1_555 1_555
C91A C93A 1_555 1_555
C92A C95A 1_555 1_555
C93A C94A 1_555 1_555
C94A C95A 1_555 1_555
C95A C124A 1_555 1_555
C101A C102A 1_555 1_555
C106A C107A 1_555 1_555
C112A C113A 1_555 1_555
C117A C118A 1_555 1_555
C124A C125A 1_555 1_555
C124A C126A 1_555 1_555

#END
