
#######################################################################
#
#                 Cambridge Crystallographic Data Centre
#                                CCDC 
#
#######################################################################
#
# If this CIF has been generated from an entry in the Cambridge 
# Structural Database, then it will include bibliographic, chemical, 
# crystal, experimental, refinement or atomic coordinate data resulting 
# from the CCDC's data processing and validation procedures.
#
#######################################################################

data_HIPCUF
_symmetry_cell_setting           orthorhombic
_symmetry_space_group_name_H-M   'P n m a'
_symmetry_Int_Tables_number      62
_space_group_name_Hall           '-P 2ac 2n'
loop_
_symmetry_equiv_pos_site_id
_symmetry_equiv_pos_as_xyz
1 x,y,z
2 1/2-x,-y,1/2+z
3 1/2+x,1/2-y,1/2-z
4 -x,1/2+y,-z
5 -x,-y,-z
6 1/2+x,y,1/2-z
7 1/2-x,1/2+y,1/2+z
8 x,1/2-y,z
_cell_length_a                   14.9097(5)
_cell_length_b                   7.2568(3)
_cell_length_c                   9.3686(2)
_cell_angle_alpha                90
_cell_angle_beta                 90
_cell_angle_gamma                90
_cell_volume                     1013.65
loop_
_atom_site_label
_atom_site_type_symbol
_atom_site_fract_x
_atom_site_fract_y
_atom_site_fract_z
Ca1 Ca 0.68616(5) 0.7500 0.49596(7)
Ca2 Ca 0.76692(5) 0.7500 0.87337(7)
O1 O 0.62843(19) 0.7500 1.0281(3)
O2 O 0.62362(17) 0.7500 0.7283(3)
O3 O 0.42886(19) 0.7500 0.6373(3)
O4 O 0.32306(18) 0.7500 0.8836(3)
O5 O 0.4420(2) 0.7500 1.1421(3)
O6 O 0.69945(13) 1.0655(3) 0.58280(17)
O7 O 0.75515(13) 1.0654(3) 0.80585(17)
C1 C 0.5580(3) 0.7500 0.9600(4)
C2 C 0.5549(2) 0.7500 0.8042(4)
C3 C 0.4617(2) 0.7500 0.7606(4)
C4 C 0.4066(3) 0.7500 0.8892(4)
C5 C 0.4647(3) 0.7500 1.0152(4)
C6 C 0.72663(17) 1.1425(4) 0.6942(2)
O8 O 0.5429(2) 0.7500 0.4008(3)
H1 H 0.495(2) 0.7500 0.468(4)
H2 H 0.516(3) 0.7500 0.309(2)
Ca1E Ca 0.18616(5) 0.7500 1.00404(7)
Ca1F Ca 0.81384(5) 1.2500 0.99596(7)
Ca1_2 Ca 0.68616(5) 1.7500 0.49596(7)
Ca2E Ca 0.26692(5) 0.7500 0.62663(7)
Ca2F Ca 0.73308(5) 1.2500 0.37337(7)
Ca2_2 Ca 0.76692(5) 1.7500 0.87337(7)
O3E O 0.92886(19) 0.7500 0.8627(3)
O4E O 0.82306(18) 0.7500 0.6164(3)
O6G O 0.69945(13) 1.4345(3) 0.58280(17)
O6G_2 O 0.69945(13) 0.4345(3) 0.58280(17)
O6F O 0.80055(13) 0.5655(3) 1.08280(17)
O6A O 0.80055(13) 0.9345(3) 1.08280(17)
O7G O 0.75515(13) 1.4346(3) 0.80585(17)
O7F O 0.74485(13) 0.5654(3) 0.30585(17)
O7A O 0.74485(13) 0.9346(3) 0.30585(17)
O7G_2 O 0.75515(13) 0.4346(3) 0.80585(17)
C6G C 0.72663(17) 1.3575(4) 0.6942(2)
loop_
_geom_bond_atom_site_label_1
_geom_bond_atom_site_label_2
_geom_bond_site_symmetry_1
_geom_bond_site_symmetry_2
Ca1 O2 1_555 1_555
Ca2 O1 1_555 1_555
O1 C1 1_555 1_555
O2 Ca2 1_555 1_555
O3 C3 1_555 1_555
O4 C4 1_555 1_555
O5 C5 1_555 1_555
O6 Ca1 1_555 1_555
O7 Ca2 1_555 1_555
C1 C2 1_555 1_555
C2 O2 1_555 1_555
C3 C2 1_555 1_555
C4 C3 1_555 1_555
C5 C1 1_555 1_555
C6 O6 1_555 1_555
O8 Ca1 1_555 1_555
H1 O8 1_555 1_555
H2 O8 1_555 1_555
Ca1E O4 1_555 1_555
Ca1F O7 1_555 1_555
Ca1_2 O6G 1_555 1_555
Ca2E O3 1_555 1_555
Ca2F O6 1_555 1_555
Ca2_2 O7G 1_555 1_555
O3E Ca2 1_555 1_555
O4E Ca1 1_555 1_555
O6G Ca2F 1_555 1_555
O6G_2 Ca1 1_555 1_555
O6F Ca2 1_555 1_555
O6A Ca2 1_555 1_555
O7G Ca1F 1_555 1_555
O7F Ca1 1_555 1_555
O7A Ca1 1_555 1_555
O7G_2 Ca2 1_555 1_555
C6G C6 1_555 1_555
Ca2 O4E 1_555 1_555
O4 Ca2E 1_555 1_555
O7 C6 1_555 1_555
C4 C5 1_555 1_555
Ca1F O6A 1_555 1_555
Ca2F O7A 1_555 1_555
O6G C6G 1_555 1_555
O7G C6G 1_555 1_555

#END
