
#######################################################################
#
#                 Cambridge Crystallographic Data Centre
#                                CCDC 
#
#######################################################################
#
# If this CIF has been generated from an entry in the Cambridge 
# Structural Database, then it will include bibliographic, chemical, 
# crystal, experimental, refinement or atomic coordinate data resulting 
# from the CCDC's data processing and validation procedures.
#
#######################################################################

data_HIPDIU
_symmetry_cell_setting           tetragonal
_symmetry_space_group_name_H-M   'P 41 21 2'
_symmetry_Int_Tables_number      92
_space_group_name_Hall           'P 4abw 2nw'
loop_
_symmetry_equiv_pos_site_id
_symmetry_equiv_pos_as_xyz
1 x,y,z
2 -x,-y,1/2+z
3 1/2-y,1/2+x,1/4+z
4 1/2+y,1/2-x,3/4+z
5 1/2-x,1/2+y,1/4-z
6 1/2+x,1/2-y,3/4-z
7 y,x,-z
8 -y,-x,1/2-z
_cell_length_a                   11.1860(2)
_cell_length_b                   11.1860(2)
_cell_length_c                   19.7088(4)
_cell_angle_alpha                90
_cell_angle_beta                 90
_cell_angle_gamma                90
_cell_volume                     2466.1
loop_
_atom_site_label
_atom_site_type_symbol
_atom_site_fract_x
_atom_site_fract_y
_atom_site_fract_z
Zn1 Zn 0.84917(5) 0.35133(5) 0.01216(2)
N1 N 0.9472(3) 0.2494(4) 0.08503(16)
N2 N 1.0602(3) 0.2467(4) 0.18641(16)
O1 O 0.7034(3) 0.2335(3) 0.02950(14)
H1 H 0.7099 0.2046 0.0676
H2 H 0.6869 0.1828 0.0009
O2 O 0.9983(3) 0.4679(3) -0.00321(12)
H3 H 1.0470 0.4252 0.0050
H4 H 1.0059 0.5421 0.0177
O3 O 0.7823(4) 0.4688(3) 0.08362(14)
H5 H 0.7789 0.5564 0.0728
H6 H 0.7732 0.4566 0.1213
O4 O 0.9291(3) 0.2380(3) -0.06175(13)
H7 H 0.9156 0.2277 -0.1023
H8 H 1.0202 0.2423 -0.0548
C1 C 0.9472(4) 0.1314(4) 0.0844(2)
H11 H 0.9084 0.0910 0.0481
C2 C 1.0019(4) 0.0644(5) 0.1347(2)
H12 H 1.0006 -0.0205 0.1346
C3 C 1.0584(4) 0.1290(4) 0.1853(2)
H13 H 1.0977 0.0867 0.2207
C4 C 1.0044(4) 0.3041(5) 0.1358(2)
H14 H 1.0056 0.3890 0.1360
Zn1C Zn 0.85133(5) 0.65083(5) -0.23784(2)
Zn1B Zn 1.14867(5) 0.34917(5) 0.26216(2)
N1C N 0.7494(4) 0.5528(3) -0.16497(16)
N2C N 0.7467(4) 0.4398(3) -0.06359(16)
N2A N 0.9398(3) 0.7533(4) -0.31359(16)
O1C O 0.7335(3) 0.7966(3) -0.22050(14)
H1C H 0.7046 0.7901 -0.1824
H2C H 0.6828 0.8131 -0.2491
O2C O 0.9679(3) 0.5017(3) -0.25321(12)
H3C H 0.9252 0.4530 -0.2450
H4C H 1.0421 0.4941 -0.2323
O3C O 0.9688(3) 0.7177(4) -0.16638(14)
H5C H 1.0564 0.7211 -0.1772
H6C H 0.9566 0.7268 -0.1287
O4C O 0.7380(3) 0.5709(3) -0.31175(13)
H7C H 0.7277 0.5844 -0.3523
H8C H 0.7423 0.4798 -0.3048
C1C C 0.6314(4) 0.5528(4) -0.1656(2)
H11C H 0.5910 0.5916 -0.2019
C2C C 0.5644(5) 0.4981(4) -0.1153(2)
H12C H 0.4795 0.4994 -0.1154
C3C C 0.6290(4) 0.4416(4) -0.0647(2)
H13C H 0.5867 0.4023 -0.0293
C4C C 0.8041(5) 0.4956(4) -0.1142(2)
H14C H 0.8890 0.4944 -0.1140
O5 O 0.6695(3) 0.0791(3) -0.07585(15)
H9 H 0.7059 0.0064 -0.0773
H10 H 0.6682 0.0988 -0.1142
Si1 Si 0.80006(13) -0.19994(13) 0.0000
F1 F 0.7031(3) -0.1015(2) 0.03471(12)
F2 F 0.7907(7) -0.2883(7) 0.0699(3)
F3 F 0.9208(7) -0.1363(7) 0.0352(4)
F1F F 0.8985(2) -0.2969(3) -0.03471(12)
F2F F 0.7117(7) -0.2093(7) -0.0699(3)
F3F F 0.8637(7) -0.0792(7) -0.0352(4)
Si2 Si 1.20357(12) -0.20357(12) 0.2500
F6 F 1.2309(3) -0.3268(3) 0.20280(13)
F7 F 1.2869(3) -0.1214(3) 0.19571(12)
F8 F 1.0829(3) -0.1791(3) 0.20338(12)
F6G F 1.3268(3) -0.2309(3) 0.29720(13)
F7G F 1.1214(3) -0.2869(3) 0.30429(12)
F8G F 1.1791(3) -0.0829(3) 0.29662(12)
F4? F 0.7292(7) -0.3143(6) 0.0353(3)
F5? F 0.8812(7) -0.1840(8) 0.0700(3)
loop_
_geom_bond_atom_site_label_1
_geom_bond_atom_site_label_2
_geom_bond_site_symmetry_1
_geom_bond_site_symmetry_2
Zn1 N1 1_555 1_555
N1 C1 1_555 1_555
N2 C3 1_555 1_555
O1 Zn1 1_555 1_555
H1 O1 1_555 1_555
H2 O1 1_555 1_555
O2 Zn1 1_555 1_555
H3 O2 1_555 1_555
H4 O2 1_555 1_555
O3 Zn1 1_555 1_555
H5 O3 1_555 1_555
H6 O3 1_555 1_555
O4 Zn1 1_555 1_555
H7 O4 1_555 1_555
H8 O4 1_555 1_555
O5 H9 1_555 1_555
H10 O5 1_555 1_555
C1 H11 1_555 1_555
C2 C1 1_555 1_555
H12 C2 1_555 1_555
C3 C2 1_555 1_555
H13 C3 1_555 1_555
C4 N1 1_555 1_555
H14 C4 1_555 1_555
Si1 F1 1_555 1_555
F2 Si1 1_555 1_555
F3 Si1 1_555 1_555
Si2 F6 1_555 1_555
F7 Si2 1_555 1_555
F8 Si2 1_555 1_555
Zn1C N1C 1_555 1_555
Zn1B N2 1_555 1_555
N1C C1C 1_555 1_555
N2C Zn1 1_555 1_555
N2A Zn1C 1_555 1_555
O1C Zn1C 1_555 1_555
H1C O1C 1_555 1_555
H2C O1C 1_555 1_555
O2C Zn1C 1_555 1_555
H3C O2C 1_555 1_555
H4C O2C 1_555 1_555
O3C Zn1C 1_555 1_555
H5C O3C 1_555 1_555
H6C O3C 1_555 1_555
O4C Zn1C 1_555 1_555
H7C O4C 1_555 1_555
H8C O4C 1_555 1_555
C1C H11C 1_555 1_555
C2C C1C 1_555 1_555
H12C C2C 1_555 1_555
C3C N2C 1_555 1_555
H13C C3C 1_555 1_555
C4C N1C 1_555 1_555
H14C C4C 1_555 1_555
F1F Si1 1_555 1_555
F2F Si1 1_555 1_555
F3F Si1 1_555 1_555
F6G Si2 1_555 1_555
F7G Si2 1_555 1_555
F8G Si2 1_555 1_555
N2 C4 1_555 1_555
N2C C4C 1_555 1_555
C2C C3C 1_555 1_555

#END
