
#######################################################################
#
#                 Cambridge Crystallographic Data Centre
#                                CCDC 
#
#######################################################################
#
# If this CIF has been generated from an entry in the Cambridge 
# Structural Database, then it will include bibliographic, chemical, 
# crystal, experimental, refinement or atomic coordinate data resulting 
# from the CCDC's data processing and validation procedures.
#
#######################################################################

data_HIPFUJ
_symmetry_cell_setting           monoclinic
_symmetry_space_group_name_H-M   'P 21/c'
_symmetry_Int_Tables_number      14
_space_group_name_Hall           '-P 2ybc'
loop_
_symmetry_equiv_pos_site_id
_symmetry_equiv_pos_as_xyz
1 x,y,z
2 -x,1/2+y,1/2-z
3 -x,-y,-z
4 x,1/2-y,1/2+z
_cell_length_a                   7.877(2)
_cell_length_b                   19.236(5)
_cell_length_c                   7.151(2)
_cell_angle_alpha                90
_cell_angle_beta                 93.808(4)
_cell_angle_gamma                90
_cell_volume                     1081.14
loop_
_atom_site_label
_atom_site_type_symbol
_atom_site_fract_x
_atom_site_fract_y
_atom_site_fract_z
Cu1 Cu 0.0000 0.0000 0.5000
Cu2 Cu 0.55104(9) 0.23466(4) 0.96227(10)
Cl1 Cl 0.09519(16) 0.05573(7) 0.23854(18)
O1 O 0.3691(5) -0.0429(2) 0.6054(6)
N1 N 0.1096(6) 0.0710(2) 0.6613(6)
N2 N 0.1843(6) 0.1620(2) 0.8395(6)
N3 N 0.4796(6) 0.1327(2) 0.9257(6)
N4 N 0.5515(6) 0.0240(2) 0.7957(6)
H1 H 0.6301 -0.0068 0.7893
C1 C 0.5905(7) 0.0820(3) 0.8987(7)
N5 N 0.7483(6) 0.0868(3) 0.9789(7)
H2 H 0.7771 0.1223 1.0470
H3 H 0.8211 0.0544 0.9625
C2 C 0.3242(7) 0.1196(3) 0.8398(7)
C3 C 0.1630(7) 0.2244(3) 0.9549(8)
H4 H 0.1547 0.2107 1.0845
H5 H 0.0580 0.2477 0.9133
C4 C 0.2765(7) 0.0635(3) 0.7317(8)
C5 C 0.3075(8) 0.2733(3) 0.9425(8)
C6 C 0.4006(7) 0.3231(3) 0.9299(8)
H6 H 0.4720 0.3612 0.9202
C7 C 0.0571(7) 0.1306(3) 0.7288(7)
H7 H -0.0514 0.1488 0.7048
Cl2 Cl 0.75019(18) 0.23818(7) 1.2257(2)
C8 C 0.3944(8) 0.0099(3) 0.6992(8)
Cu2B Cu -0.55104(9) -0.23466(4) 0.03773(10)
Cl1B Cl -0.09519(16) -0.05573(7) 0.76146(18)
O1B O -0.3691(5) 0.0429(2) 0.3946(6)
N1B N -0.1096(6) -0.0710(2) 0.3387(6)
N2B N -0.1843(6) -0.1620(2) 0.1605(6)
N3B N -0.4796(6) -0.1327(2) 0.0743(6)
N4B N -0.5515(6) -0.0240(2) 0.2043(6)
H1B H -0.6301 0.0068 0.2107
C1B C -0.5905(7) -0.0820(3) 0.1013(7)
N5B N -0.7483(6) -0.0868(3) 0.0211(7)
H2B H -0.7771 -0.1223 -0.0470
H3B H -0.8211 -0.0544 0.0375
C2B C -0.3242(7) -0.1196(3) 0.1602(7)
C3B C -0.1630(7) -0.2244(3) 0.0451(8)
H4B H -0.1547 -0.2107 -0.0845
H5B H -0.0580 -0.2477 0.0867
C4B C -0.2765(7) -0.0635(3) 0.2683(8)
C5B C -0.3075(8) -0.2733(3) 0.0575(8)
C6B C -0.4006(7) -0.3231(3) 0.0701(8)
H6B H -0.4720 -0.3612 0.0798
C7B C -0.0571(7) -0.1306(3) 0.2712(7)
H7B H 0.0514 -0.1488 0.2952
Cl2B Cl -0.75019(18) -0.23818(7) -0.2257(2)
C8B C -0.3944(8) -0.0099(3) 0.3008(8)
Cu2A Cu -0.55104(9) -0.26534(4) -0.46227(10)
Cu2C Cu 0.55104(9) 0.26534(4) 1.46227(10)
Cl2A Cl -0.75019(18) -0.26182(7) 0.2743(2)
Cl2C Cl 0.75019(18) 0.26182(7) 0.7257(2)
loop_
_geom_bond_atom_site_label_1
_geom_bond_atom_site_label_2
_geom_bond_site_symmetry_1
_geom_bond_site_symmetry_2
Cu1 Cl1 1_555 1_555
Cu2 N3 1_555 1_555
O1 C8 1_555 1_555
N1 Cu1 1_555 1_555
N2 C2 1_555 1_555
N3 C1 1_555 1_555
N4 H1 1_555 1_555
C1 N4 1_555 1_555
N5 C1 1_555 1_555
H2 N5 1_555 1_555
H3 N5 1_555 1_555
C2 N3 1_555 1_555
C3 N2 1_555 1_555
H4 C3 1_555 1_555
H5 C3 1_555 1_555
C4 N1 1_555 1_555
C5 Cu2 1_555 1_555
C6 Cu2 1_555 1_555
H6 C6 1_555 1_555
C7 N1 1_555 1_555
H7 C7 1_555 1_555
Cl2 Cu2 1_555 1_555
C8 N4 1_555 1_555
Cu2B N3B 1_555 1_555
Cl1B Cu1 1_555 1_555
O1B C8B 1_555 1_555
N1B Cu1 1_555 1_555
N2B C2B 1_555 1_555
N3B C1B 1_555 1_555
N4B H1B 1_555 1_555
C1B N4B 1_555 1_555
N5B C1B 1_555 1_555
H2B N5B 1_555 1_555
H3B N5B 1_555 1_555
C2B N3B 1_555 1_555
C3B N2B 1_555 1_555
H4B C3B 1_555 1_555
H5B C3B 1_555 1_555
C4B N1B 1_555 1_555
C5B Cu2B 1_555 1_555
C6B Cu2B 1_555 1_555
H6B C6B 1_555 1_555
C7B N1B 1_555 1_555
H7B C7B 1_555 1_555
Cl2B Cu2B 1_555 1_555
C8B N4B 1_555 1_555
Cu2A Cl2B 1_555 1_555
Cu2C Cl2 1_555 1_555
Cl2A Cu2B 1_555 1_555
Cl2C Cu2 1_555 1_555
N2 C7 1_555 1_555
C2 C4 1_555 1_555
C3 C5 1_555 1_555
C4 C8 1_555 1_555
C5 C6 1_555 1_555
N2B C7B 1_555 1_555
C2B C4B 1_555 1_555
C3B C5B 1_555 1_555
C4B C8B 1_555 1_555
C5B C6B 1_555 1_555

#END
