
#######################################################################
#
#                 Cambridge Crystallographic Data Centre
#                                CCDC 
#
#######################################################################
#
# If this CIF has been generated from an entry in the Cambridge 
# Structural Database, then it will include bibliographic, chemical, 
# crystal, experimental, refinement or atomic coordinate data resulting 
# from the CCDC's data processing and validation procedures.
#
#######################################################################

data_HIPGOD
_symmetry_cell_setting           monoclinic
_symmetry_space_group_name_H-M   'P 21/c'
_symmetry_Int_Tables_number      14
_space_group_name_Hall           '-P 2ybc'
loop_
_symmetry_equiv_pos_site_id
_symmetry_equiv_pos_as_xyz
1 x,y,z
2 -x,1/2+y,1/2-z
3 -x,-y,-z
4 x,1/2-y,1/2+z
_cell_length_a                   12.3482(14)
_cell_length_b                   26.594(3)
_cell_length_c                   10.6089(12)
_cell_angle_alpha                90
_cell_angle_beta                 96.581(2)
_cell_angle_gamma                90
_cell_volume                     3460.88
loop_
_atom_site_label
_atom_site_type_symbol
_atom_site_fract_x
_atom_site_fract_y
_atom_site_fract_z
Pr1 Pr 0.33085(3) 0.885455(11) 0.18695(3)
O1 O 0.3161(3) 0.80935(13) 0.3117(4)
O2 O 0.4957(3) 0.83552(13) 0.2284(3)
O3 O 0.3343(3) 0.91024(13) 0.4056(4)
O4 O 0.2119(3) 0.92856(14) 0.0236(4)
O5 O 0.4413(3) 0.91288(14) 0.0093(4)
O6 O 0.3919(3) 0.97136(14) 0.2403(4)
O7 O 0.1390(3) 0.88198(15) 0.2072(4)
N1 N 0.3506(4) 0.95890(16) 0.4399(4)
O9 O 0.3283(4) 0.95328(15) 0.7757(4)
N2 N 0.4055(4) 0.78008(16) 0.3414(4)
N3 N 0.2085(4) 0.74937(17) 0.4434(5)
H1 H 0.2118 0.7762 0.3988
O10 O -0.1919(4) 0.88458(18) 0.2431(5)
N4 N 0.0663(4) 0.90231(17) 0.1161(5)
N5 N 0.0761(4) 0.81955(17) 0.5864(5)
N6 N -0.0241(4) 0.87936(18) 0.3501(5)
H2 H 0.0441 0.8751 0.3436
C1 C 0.5933(5) 0.7233(2) 0.4033(5)
C2 C 0.4021(5) 0.73754(19) 0.4178(5)
C3 C 0.3797(5) 1.1115(2) 0.5236(6)
H3 H 0.3615 1.1241 0.6002
C4 C 0.3964(4) 1.0424(2) 0.3798(5)
C5 C 0.4929(5) 0.71037(19) 0.4465(5)
H4 H 0.4898 0.6819 0.4967
N7 N 0.2674(4) 0.89467(17) 0.6280(5)
H5 H 0.2592 0.8873 0.5485
C6 C 0.6920(5) 0.7783(2) 0.2736(6)
H6 H 0.6940 0.8066 0.2224
C7 C 0.3803(4) 0.9901(2) 0.3477(5)
C8 C -0.0467(5) 0.8992(2) 0.1223(6)
C9 C 0.3726(4) 1.0600(2) 0.4985(5)
C10 C 0.5953(5) 0.76509(19) 0.3230(5)
C11 C 0.0043(6) 0.9886(2) -0.2825(6)
H7 H 0.0313 1.0051 -0.3496
C12 C 0.4314(5) 1.0757(2) 0.2907(6)
H8 H 0.4477 1.0640 0.2125
C13 C 0.3345(5) 0.9753(2) 0.5614(5)
C14 C 0.4415(5) 1.1257(2) 0.3202(6)
H9 H 0.4674 1.1478 0.2627
C15 C 0.3430(4) 1.0249(2) 0.5886(5)
H10 H 0.3290 1.0362 0.6682
C16 C 0.1067(5) 0.7370(2) 0.4906(6)
H11 H 0.1046 0.7012 0.5075
H12 H 0.0468 0.7449 0.4264
C17 C 0.3094(5) 0.9388(2) 0.6633(5)
C18 C 0.0929(5) 0.7657(2) 0.6111(5)
H13 H 0.0309 0.7523 0.6486
H14 H 0.1573 0.7611 0.6715
C19 C -0.0781(5) 0.9388(2) -0.0837(6)
C20 C 0.4979(4) 0.7956(2) 0.2942(5)
C21 C -0.0399(5) 0.8298(2) 0.5458(6)
H15 H -0.0791 0.8300 0.6200
H16 H -0.0693 0.8027 0.4910
C22 C -0.1161(5) 0.9159(2) 0.0248(6)
H17 H -0.1907 0.9124 0.0278
C23 C 0.1079(5) 0.9258(2) 0.0185(6)
C24 C 0.0758(5) 0.9719(2) -0.1810(6)
H18 H 0.1502 0.9780 -0.1783
C25 C 0.1117(5) 0.8487(2) 0.7005(5)
H19 H 0.0911 0.8309 0.7740
H20 H 0.0744 0.8808 0.6955
C26 C 0.4139(6) 1.1437(2) 0.4338(6)
H21 H 0.4183 1.1780 0.4504
C27 C -0.1059(6) 0.9812(2) -0.2851(6)
H22 H -0.1530 0.9930 -0.3533
C28 C 0.0347(5) 0.9455(2) -0.0827(5)
C29 C -0.0600(5) 0.8790(2) 0.4763(6)
H23 H -0.1374 0.8864 0.4686
H24 H -0.0224 0.9055 0.5264
C30 C 0.7808(5) 0.7073(2) 0.3813(6)
H25 H 0.8431 0.6878 0.3999
C31 C 0.6882(5) 0.6951(2) 0.4315(6)
H26 H 0.6879 0.6676 0.4854
C32 C 0.2341(5) 0.8577(2) 0.7181(5)
H27 H 0.2557 0.8694 0.8039
H28 H 0.2714 0.8262 0.7071
C33 C 0.7830(5) 0.7495(2) 0.3009(6)
H29 H 0.8467 0.7577 0.2665
C34 C -0.1472(5) 0.9562(3) -0.1869(6)
H30 H -0.2220 0.9511 -0.1899
C35 C -0.0923(5) 0.8860(2) 0.2439(6)
O11 O 0.2969(3) 0.68112(13) 0.5245(4)
C36 C 0.2973(5) 0.7211(2) 0.4660(5)
Pr1C Pr 0.33085(3) 0.614545(11) 0.68695(3)
O11C O 0.2969(3) 0.81888(13) 0.0245(4)
O8 O 0.6268(4) 0.97157(17) 0.0207(5)
loop_
_geom_bond_atom_site_label_1
_geom_bond_atom_site_label_2
_geom_bond_site_symmetry_1
_geom_bond_site_symmetry_2
Pr1 O1 1_555 1_555
O1 N2 1_555 1_555
O2 Pr1 1_555 1_555
O3 Pr1 1_555 1_555
O4 Pr1 1_555 1_555
O5 Pr1 1_555 1_555
O6 Pr1 1_555 1_555
O7 Pr1 1_555 1_555
N1 O3 1_555 1_555
O9 C17 1_555 1_555
N2 C2 1_555 1_555
N3 H1 1_555 1_555
O10 C35 1_555 1_555
N4 O7 1_555 1_555
N5 C18 1_555 1_555
N6 H2 1_555 1_555
C1 C5 1_555 1_555
C2 C5 1_555 1_555
C3 H3 1_555 1_555
C4 C7 1_555 1_555
C5 H4 1_555 1_555
N7 H5 1_555 1_555
C6 H6 1_555 1_555
C7 O6 1_555 1_555
C8 N4 1_555 1_555
C9 C3 1_555 1_555
C10 C1 1_555 1_555
C11 H7 1_555 1_555
C12 C4 1_555 1_555
H8 C12 1_555 1_555
C13 N1 1_555 1_555
C14 C12 1_555 1_555
H9 C14 1_555 1_555
C15 C9 1_555 1_555
H10 C15 1_555 1_555
C16 N3 1_555 1_555
H11 C16 1_555 1_555
H12 C16 1_555 1_555
C17 N7 1_555 1_555
C18 C16 1_555 1_555
H13 C18 1_555 1_555
H14 C18 1_555 1_555
C19 C22 1_555 1_555
C20 O2 1_555 1_555
C21 N5 1_555 1_555
H15 C21 1_555 1_555
H16 C21 1_555 1_555
C22 C8 1_555 1_555
H17 C22 1_555 1_555
C23 O4 1_555 1_555
C24 C11 1_555 1_555
H18 C24 1_555 1_555
C25 N5 1_555 1_555
H19 C25 1_555 1_555
H20 C25 1_555 1_555
C26 C3 1_555 1_555
H21 C26 1_555 1_555
C27 C11 1_555 1_555
H22 C27 1_555 1_555
C28 C19 1_555 1_555
C29 N6 1_555 1_555
H23 C29 1_555 1_555
H24 C29 1_555 1_555
C30 H25 1_555 1_555
C31 C1 1_555 1_555
H26 C31 1_555 1_555
C32 N7 1_555 1_555
H27 C32 1_555 1_555
H28 C32 1_555 1_555
C33 C6 1_555 1_555
H29 C33 1_555 1_555
C34 C19 1_555 1_555
H30 C34 1_555 1_555
C35 N6 1_555 1_555
O11 C36 1_555 1_555
C36 N3 1_555 1_555
Pr1C O11 1_555 1_555
O11C Pr1 1_555 1_555
N1 C7 1_555 1_555
N2 C20 1_555 1_555
N4 C23 1_555 1_555
C2 C36 1_555 1_555
C4 C9 1_555 1_555
C6 C10 1_555 1_555
C8 C35 1_555 1_555
C10 C20 1_555 1_555
C13 C15 1_555 1_555
C13 C17 1_555 1_555
C14 C26 1_555 1_555
C21 C29 1_555 1_555
C23 C28 1_555 1_555
C24 C28 1_555 1_555
C25 C32 1_555 1_555
C27 C34 1_555 1_555
C30 C31 1_555 1_555
C30 C33 1_555 1_555

#END
