
#######################################################################
#
#                 Cambridge Crystallographic Data Centre
#                                CCDC 
#
#######################################################################
#
# If this CIF has been generated from an entry in the Cambridge 
# Structural Database, then it will include bibliographic, chemical, 
# crystal, experimental, refinement or atomic coordinate data resulting 
# from the CCDC's data processing and validation procedures.
#
#######################################################################

data_HIPGIX
_symmetry_cell_setting           monoclinic
_symmetry_space_group_name_H-M   'P 21/c'
_symmetry_Int_Tables_number      14
_space_group_name_Hall           '-P 2ybc'
loop_
_symmetry_equiv_pos_site_id
_symmetry_equiv_pos_as_xyz
1 x,y,z
2 -x,1/2+y,1/2-z
3 -x,-y,-z
4 x,1/2-y,1/2+z
_cell_length_a                   12.3545(11)
_cell_length_b                   26.745(2)
_cell_length_c                   10.6674(9)
_cell_angle_alpha                90
_cell_angle_beta                 97.018(2)
_cell_angle_gamma                90
_cell_volume                     3498.33
loop_
_atom_site_label
_atom_site_type_symbol
_atom_site_fract_x
_atom_site_fract_y
_atom_site_fract_z
La1 La 0.16309(3) 0.886128(13) 0.31397(3)
O1 O 0.1759(3) 0.80922(15) 0.1878(4)
O2 O 0.1056(3) 0.97301(16) 0.2577(4)
O3 O 0.1609(4) 0.91156(16) 0.0933(4)
O4 O -0.0035(3) 0.83414(15) 0.2716(4)
O5 O 0.0547(4) 0.91448(17) 0.4935(4)
O6 O 0.3582(4) 0.88186(18) 0.2963(4)
N1 N 0.1475(4) 0.96001(19) 0.0598(5)
O7 O 0.2864(3) 0.92806(17) 0.4804(4)
N2 N 0.0866(4) 0.77978(17) 0.1601(4)
N3 N 0.2841(4) 0.74971(19) 0.0586(5)
H1 H 0.2803 0.7764 0.1029
O8 O 0.1713(4) 0.95395(18) -0.2746(4)
C1 C 0.0914(5) 0.7378(2) 0.0838(6)
O9 O 0.6876(4) 0.8850(2) 0.2601(6)
N4 N 0.4320(4) 0.9025(2) 0.3876(5)
C2 C -0.1990(5) 0.7769(3) 0.2264(6)
H2 H -0.2012 0.8053 0.2766
N5 N 0.2275(5) 0.8951(2) -0.1257(5)
H3 H 0.2348 0.8877 -0.0467
N6 N 0.4173(4) 0.8200(2) -0.0823(5)
C3 C -0.1004(5) 0.7225(2) 0.0983(6)
C4 C 0.1060(5) 1.0433(2) 0.1178(6)
C5 C 0.0002(5) 0.7099(2) 0.0542(6)
H4 H 0.0035 0.6817 0.0037
N7 N 0.5175(5) 0.8796(2) 0.1517(6)
H5 H 0.4491 0.8759 0.1574
C6 C 0.1304(5) 1.0604(2) 0.0012(6)
C7 C 0.1882(5) 0.9397(2) -0.1614(6)
C8 C -0.1019(5) 0.7640(2) 0.1782(6)
C9 C 0.3871(5) 0.7378(2) 0.0122(6)
H6 H 0.3901 0.7022 -0.0045
H7 H 0.4469 0.7461 0.0765
C10 C 0.1257(6) 1.1124(3) -0.0242(7)
H8 H 0.1442 1.1246 -0.1005
C11 C 0.3994(5) 0.7661(2) -0.1058(6)
H9 H 0.4606 0.7526 -0.1437
H10 H 0.3343 0.7616 -0.1654
C12 C 0.1175(4) 0.9916(2) 0.1504(6)
C13 C 0.0710(5) 1.0773(3) 0.2069(6)
H11 H 0.0540 1.0660 0.2846
C14 C 0.1585(5) 1.0252(2) -0.0887(6)
H12 H 0.1727 1.0361 -0.1678
C15 C 0.1648(5) 0.9758(2) -0.0606(6)
C16 C 0.5428(5) 0.8994(3) 0.3785(7)
C17 C 0.4961(6) 0.9882(3) 0.7840(7)
H13 H 0.4697 1.0045 0.8510
C18 C 0.6469(6) 0.9572(3) 0.6860(7)
H14 H 0.7216 0.9526 0.6875
C19 C 0.3894(5) 0.9257(2) 0.4841(6)
C20 C 0.4644(5) 0.9454(2) 0.5856(6)
C21 C 0.4246(6) 0.9706(3) 0.6844(6)
H15 H 0.3500 0.9756 0.6833
C22 C 0.5546(6) 0.8787(3) 0.0284(7)
H16 H 0.6324 0.8852 0.0379
H17 H 0.5188 0.9054 -0.0224
C23 C 0.5764(5) 0.9392(3) 0.5844(7)
C24 C 0.5326(6) 0.8298(3) -0.0409(7)
H18 H 0.5718 0.8296 -0.1143
H19 H 0.5613 0.8027 0.0140
C25 C 0.6129(6) 0.9167(3) 0.4774(7)
H20 H 0.6875 0.9136 0.4744
C26 C 0.0629(6) 1.1268(3) 0.1762(7)
H21 H 0.0360 1.1490 0.2320
C27 C -0.0066(5) 0.7949(2) 0.2062(5)
C28 C 0.3807(6) 0.8489(3) -0.1973(6)
H22 H 0.4008 0.8310 -0.2701
H23 H 0.4182 0.8808 -0.1929
C29 C 0.2591(6) 0.8581(3) -0.2155(6)
H24 H 0.2373 0.8698 -0.3009
H25 H 0.2212 0.8269 -0.2045
C30 C 0.5878(6) 0.8861(3) 0.2592(7)
C31 C 0.0938(7) 1.1448(3) 0.0637(7)
H26 H 0.0927 1.1790 0.0480
C32 C -0.1951(6) 0.6942(3) 0.0694(7)
H27 H -0.1949 0.6669 0.0154
C33 C -0.2891(6) 0.7485(3) 0.2005(7)
H28 H -0.3521 0.7566 0.2357
C34 C 0.6074(6) 0.9816(3) 0.7841(7)
H29 H 0.6556 0.9938 0.8510
C35 C -0.2885(6) 0.7064(3) 0.1200(7)
H30 H -0.3511 0.6872 0.1015
O11 O 0.1956(3) 0.68178(16) -0.0226(4)
C36 C 0.1969(5) 0.7216(2) 0.0360(5)
La1C La 0.16309(3) 0.613872(13) -0.18603(3)
O11C O 0.1956(3) 0.81822(16) 0.4774(4)
O10 O -0.1308(4) 0.9717(2) 0.4819(6)
loop_
_geom_bond_atom_site_label_1
_geom_bond_atom_site_label_2
_geom_bond_site_symmetry_1
_geom_bond_site_symmetry_2
La1 O1 1_555 1_555
O1 N2 1_555 1_555
O2 La1 1_555 1_555
O3 La1 1_555 1_555
O4 La1 1_555 1_555
O5 La1 1_555 1_555
O6 La1 1_555 1_555
N1 O3 1_555 1_555
O7 La1 1_555 1_555
N2 C1 1_555 1_555
N3 H1 1_555 1_555
O8 C7 1_555 1_555
C1 C5 1_555 1_555
O9 C30 1_555 1_555
N4 O6 1_555 1_555
C2 H2 1_555 1_555
N5 H3 1_555 1_555
N6 C11 1_555 1_555
C3 C5 1_555 1_555
C4 C6 1_555 1_555
C5 H4 1_555 1_555
N7 H5 1_555 1_555
C6 C10 1_555 1_555
C7 N5 1_555 1_555
C8 C2 1_555 1_555
C9 N3 1_555 1_555
H6 C9 1_555 1_555
H7 C9 1_555 1_555
C10 H8 1_555 1_555
C11 C9 1_555 1_555
H9 C11 1_555 1_555
H10 C11 1_555 1_555
C12 O2 1_555 1_555
C13 C4 1_555 1_555
H11 C13 1_555 1_555
C14 C6 1_555 1_555
H12 C14 1_555 1_555
C15 N1 1_555 1_555
C16 N4 1_555 1_555
C17 H13 1_555 1_555
C18 H14 1_555 1_555
C19 O7 1_555 1_555
C20 C19 1_555 1_555
C21 C17 1_555 1_555
H15 C21 1_555 1_555
C22 N7 1_555 1_555
H16 C22 1_555 1_555
H17 C22 1_555 1_555
C23 C18 1_555 1_555
C24 N6 1_555 1_555
H18 C24 1_555 1_555
H19 C24 1_555 1_555
C25 C16 1_555 1_555
H20 C25 1_555 1_555
C26 C13 1_555 1_555
H21 C26 1_555 1_555
C27 O4 1_555 1_555
C28 N6 1_555 1_555
H22 C28 1_555 1_555
H23 C28 1_555 1_555
C29 N5 1_555 1_555
H24 C29 1_555 1_555
H25 C29 1_555 1_555
C30 N7 1_555 1_555
C31 C10 1_555 1_555
H26 C31 1_555 1_555
C32 C3 1_555 1_555
H27 C32 1_555 1_555
C33 C2 1_555 1_555
H28 C33 1_555 1_555
C34 C17 1_555 1_555
H29 C34 1_555 1_555
C35 C32 1_555 1_555
H30 C35 1_555 1_555
O11 C36 1_555 1_555
C36 N3 1_555 1_555
La1C O11 1_555 1_555
O11C La1 1_555 1_555
N1 C12 1_555 1_555
N2 C27 1_555 1_555
C1 C36 1_555 1_555
N4 C19 1_555 1_555
C3 C8 1_555 1_555
C4 C12 1_555 1_555
C7 C15 1_555 1_555
C8 C27 1_555 1_555
C14 C15 1_555 1_555
C16 C30 1_555 1_555
C18 C34 1_555 1_555
C20 C21 1_555 1_555
C20 C23 1_555 1_555
C22 C24 1_555 1_555
C23 C25 1_555 1_555
C26 C31 1_555 1_555
C28 C29 1_555 1_555
C33 C35 1_555 1_555

#END
