
#######################################################################
#
#                 Cambridge Crystallographic Data Centre
#                                CCDC 
#
#######################################################################
#
# If this CIF has been generated from an entry in the Cambridge 
# Structural Database, then it will include bibliographic, chemical, 
# crystal, experimental, refinement or atomic coordinate data resulting 
# from the CCDC's data processing and validation procedures.
#
#######################################################################

data_HIPHOE
_symmetry_cell_setting           monoclinic
_symmetry_space_group_name_H-M   'P 21/c'
_symmetry_Int_Tables_number      14
_space_group_name_Hall           '-P 2ybc'
loop_
_symmetry_equiv_pos_site_id
_symmetry_equiv_pos_as_xyz
1 x,y,z
2 -x,1/2+y,1/2-z
3 -x,-y,-z
4 x,1/2-y,1/2+z
_cell_length_a                   12.3216(14)
_cell_length_b                   26.295(3)
_cell_length_c                   10.5618(12)
_cell_angle_alpha                90
_cell_angle_beta                 96.335(2)
_cell_angle_gamma                90
_cell_volume                     3401.09
loop_
_atom_site_label
_atom_site_type_symbol
_atom_site_fract_x
_atom_site_fract_y
_atom_site_fract_z
Tb1 Tb 0.81982(2) 0.883609(11) 0.68278(3)
O1 O 0.8229(4) 0.90629(16) 0.8969(4)
O2 O 0.8015(3) 0.80893(16) 0.8027(4)
O3 O 0.9316(4) 0.90938(17) 0.5144(4)
O4 O 0.9823(3) 0.83822(15) 0.7269(4)
O5 O 0.6338(4) 0.87999(17) 0.7051(4)
O6 O 0.7107(4) 0.92734(17) 0.5234(4)
O7 O 0.8849(4) 0.96634(16) 0.7315(4)
N1 N 0.8442(4) 0.95502(19) 0.9320(5)
O8 O 0.8239(5) 0.95019(19) 1.2709(5)
N2 N 0.8930(4) 0.78114(18) 0.8386(5)
N3 N 0.6960(4) 0.7484(2) 0.9388(5)
H1 H 0.6979 0.7750 0.8918
C1 C 0.8050(6) 0.9359(3) 1.1586(6)
N4 N 0.7602(4) 0.8914(2) 1.1222(5)
H2 H 0.7513 0.8839 1.0425
N5 N 0.5648(4) 0.8188(2) 1.0830(5)
C2 C 1.0845(5) 0.7678(2) 0.8224(6)
C3 C 0.8770(5) 0.9857(2) 0.8393(6)
C4 C 0.8909(5) 0.7387(2) 0.9160(6)
C5 C 1.0830(5) 0.7249(2) 0.9014(6)
N6 N 0.4710(5) 0.8786(2) 0.8461(6)
H3 H 0.5395 0.8740 0.8408
O10 O 0.3017(4) 0.8864(2) 0.7359(6)
N7 N 0.5626(5) 0.9012(2) 0.6125(5)
C6 C 0.8979(5) 1.0378(2) 0.8709(6)
C7 C 0.5949(5) 0.7352(3) 0.9869(7)
H4 H 0.5939 0.6990 1.0037
H5 H 0.5346 0.7429 0.9228
C8 C 0.4236(6) 0.9387(3) 0.4106(8)
C9 C 0.8325(5) 0.9715(2) 1.0565(6)
C10 C 0.9856(5) 0.7979(2) 0.7923(6)
C11 C 0.5799(6) 0.7639(2) 1.1076(6)
H6 H 0.5167 0.7506 1.1438
H7 H 0.6434 0.7587 1.1692
C12 C 1.2733(6) 0.7529(3) 0.7980(7)
H8 H 1.3370 0.7614 0.7633
C13 C 0.4493(5) 0.8986(3) 0.6179(8)
C14 C 0.9330(6) 1.0709(2) 0.7814(7)
H9 H 0.9462 1.0588 0.7018
C15 C 0.8786(5) 1.0563(3) 0.9921(6)
C16 C 1.1793(5) 0.6971(3) 0.9286(7)
H10 H 1.1801 0.6692 0.9827
C17 C 1.1803(5) 0.7822(3) 0.7719(7)
H11 H 1.1814 0.8111 0.7214
C18 C 1.2705(6) 0.7098(3) 0.8781(8)
H12 H 1.3329 0.6900 0.8958
C19 C 0.6078(6) 0.9252(3) 0.5160(7)
C20 C 0.6023(6) 0.8481(3) 1.1968(6)
H13 H 0.5802 0.8308 1.2710
H14 H 0.5676 0.8812 1.1913
C21 C 0.9827(5) 0.7114(2) 0.9463(6)
H15 H 0.9801 0.6830 0.9981
C22 C 0.9268(6) 1.1400(3) 0.9276(7)
H16 H 0.9359 1.1745 0.9453
C23 C 0.8482(5) 1.0214(2) 1.0829(7)
H17 H 0.8387 1.0331 1.1640
C24 C 0.5094(7) 0.9900(3) 0.2116(8)
H18 H 0.5377 1.0067 0.1449
C25 C 0.9478(7) 1.1210(3) 0.8106(8)
H19 H 0.9726 1.1429 0.7509
C26 C 0.3978(7) 0.9828(3) 0.2095(9)
H20 H 0.3509 0.9954 0.1417
C27 C 0.5357(6) 0.9457(3) 0.4145(7)
C28 C 0.4316(7) 0.8789(3) 0.9692(8)
H21 H 0.3541 0.8864 0.9582
H22 H 0.4677 0.9062 1.0195
C29 C 0.4494(6) 0.8298(3) 1.0426(7)
H23 H 0.4103 0.8314 1.1173
H24 H 0.4187 0.8020 0.9897
C30 C 0.3823(6) 0.9164(3) 0.5158(8)
H25 H 0.3071 0.9136 0.5161
C31 C 0.7258(6) 0.8551(3) 1.2140(6)
H26 H 0.7486 0.8671 1.2997
H27 H 0.7610 0.8226 1.2032
C32 C 0.8930(6) 1.1083(3) 1.0160(8)
H28 H 0.8791 1.1214 1.0945
C33 C 0.4010(6) 0.8856(3) 0.7360(8)
C34 C 0.3559(7) 0.9573(3) 0.3062(8)
H29 H 0.2808 0.9523 0.3022
C35 C 0.5785(7) 0.9718(3) 0.3145(7)
H30 H 0.6534 0.9769 0.3175
O11 O 0.7878(3) 0.68108(16) 1.0253(4)
C36 C 0.7862(5) 0.7212(2) 0.9637(6)
Tb1C Tb 0.81982(2) 0.616391(11) 1.18278(3)
O11C O 0.7878(3) 0.81892(16) 0.5253(4)
O9 O 1.1233(6) 0.9672(4) 0.5461(9)
loop_
_geom_bond_atom_site_label_1
_geom_bond_atom_site_label_2
_geom_bond_site_symmetry_1
_geom_bond_site_symmetry_2
Tb1 O1 1_555 1_555
O1 N1 1_555 1_555
O2 Tb1 1_555 1_555
O3 Tb1 1_555 1_555
O4 Tb1 1_555 1_555
O5 Tb1 1_555 1_555
O6 Tb1 1_555 1_555
O7 Tb1 1_555 1_555
N1 C3 1_555 1_555
O8 C1 1_555 1_555
N2 O2 1_555 1_555
N3 H1 1_555 1_555
C1 N4 1_555 1_555
N4 H2 1_555 1_555
N5 C11 1_555 1_555
C2 C5 1_555 1_555
C3 O7 1_555 1_555
C4 N2 1_555 1_555
C5 C16 1_555 1_555
N6 H3 1_555 1_555
O10 C33 1_555 1_555
N7 O5 1_555 1_555
C6 C3 1_555 1_555
C7 N3 1_555 1_555
H4 C7 1_555 1_555
H5 C7 1_555 1_555
C8 C27 1_555 1_555
C9 N1 1_555 1_555
C10 O4 1_555 1_555
C11 C7 1_555 1_555
H6 C11 1_555 1_555
H7 C11 1_555 1_555
C12 H8 1_555 1_555
C13 N7 1_555 1_555
C14 C6 1_555 1_555
H9 C14 1_555 1_555
C15 C6 1_555 1_555
C16 H10 1_555 1_555
C17 C2 1_555 1_555
H11 C17 1_555 1_555
C18 C12 1_555 1_555
H12 C18 1_555 1_555
C19 O6 1_555 1_555
C20 N5 1_555 1_555
H13 C20 1_555 1_555
H14 C20 1_555 1_555
C21 C4 1_555 1_555
H15 C21 1_555 1_555
C22 H16 1_555 1_555
C23 C9 1_555 1_555
H17 C23 1_555 1_555
C24 H18 1_555 1_555
C25 C14 1_555 1_555
H19 C25 1_555 1_555
C26 C24 1_555 1_555
H20 C26 1_555 1_555
C27 C19 1_555 1_555
C28 N6 1_555 1_555
H21 C28 1_555 1_555
H22 C28 1_555 1_555
C29 N5 1_555 1_555
H23 C29 1_555 1_555
H24 C29 1_555 1_555
C30 C8 1_555 1_555
H25 C30 1_555 1_555
C31 N4 1_555 1_555
H26 C31 1_555 1_555
H27 C31 1_555 1_555
C32 C15 1_555 1_555
H28 C32 1_555 1_555
C33 N6 1_555 1_555
C34 C8 1_555 1_555
H29 C34 1_555 1_555
C35 C24 1_555 1_555
H30 C35 1_555 1_555
O11 C36 1_555 1_555
C36 N3 1_555 1_555
Tb1C O11 1_555 1_555
O11C Tb1 1_555 1_555
N2 C10 1_555 1_555
C1 C9 1_555 1_555
C2 C10 1_555 1_555
C4 C36 1_555 1_555
C5 C21 1_555 1_555
N7 C19 1_555 1_555
C12 C17 1_555 1_555
C13 C30 1_555 1_555
C13 C33 1_555 1_555
C15 C23 1_555 1_555
C16 C18 1_555 1_555
C20 C31 1_555 1_555
C22 C25 1_555 1_555
C22 C32 1_555 1_555
C26 C34 1_555 1_555
C27 C35 1_555 1_555
C28 C29 1_555 1_555

#END
