
#######################################################################
#
#                 Cambridge Crystallographic Data Centre
#                                CCDC 
#
#######################################################################
#
# If this CIF has been generated from an entry in the Cambridge 
# Structural Database, then it will include bibliographic, chemical, 
# crystal, experimental, refinement or atomic coordinate data resulting 
# from the CCDC's data processing and validation procedures.
#
#######################################################################

data_HIPHEU
_symmetry_cell_setting           monoclinic
_symmetry_space_group_name_H-M   'P 21/c'
_symmetry_Int_Tables_number      14
_space_group_name_Hall           '-P 2ybc'
loop_
_symmetry_equiv_pos_site_id
_symmetry_equiv_pos_as_xyz
1 x,y,z
2 -x,1/2+y,1/2-z
3 -x,-y,-z
4 x,1/2-y,1/2+z
_cell_length_a                   12.380(3)
_cell_length_b                   26.314(5)
_cell_length_c                   10.612(2)
_cell_angle_alpha                90
_cell_angle_beta                 96.470(4)
_cell_angle_gamma                90
_cell_volume                     3435.02
loop_
_atom_site_label
_atom_site_type_symbol
_atom_site_fract_x
_atom_site_fract_y
_atom_site_fract_z
C1 C 0.8985(7) 0.8483(3) -0.1973(7)
H1 H 0.9196 0.8310 -0.2714
H2 H 0.9343 0.8812 -0.1916
C2 C 0.7762(7) 0.8562(3) -0.2133(6)
H3 H 0.7537 0.8673 -0.2994
H4 H 0.7410 0.8239 -0.2012
C3 C 0.6950(6) 0.9368(3) -0.1598(7)
C4 C 0.6671(6) 0.9727(3) -0.0596(7)
C5 C 0.6550(6) 1.0232(3) -0.0853(7)
H5 H 0.6684 1.0352 -0.1644
C6 C 0.6226(6) 1.0579(3) 0.0050(7)
C7 C 0.6099(7) 1.1103(3) -0.0202(7)
H6 H 0.6261 1.1233 -0.0974
C8 C 0.5744(8) 1.1420(3) 0.0674(8)
H7 H 0.5659 1.1764 0.0498
C9 C 0.5510(7) 1.1231(3) 0.1816(8)
H8 H 0.5246 1.1451 0.2395
C10 C 0.5657(7) 1.0721(3) 0.2139(7)
H9 H 0.5513 1.0601 0.2927
C11 C 0.6026(6) 1.0397(3) 0.1250(6)
C12 C 0.6213(6) 0.9874(3) 0.1553(7)
C13 C 1.0503(7) 0.8297(3) -0.0441(8)
H10 H 1.0882 0.8311 -0.1193
H11 H 1.0816 0.8021 0.0084
C14 C 1.0695(7) 0.8781(3) 0.0268(8)
H12 H 1.1469 0.8851 0.0369
H13 H 1.0340 0.9054 -0.0236
C15 C 1.0989(7) 0.8857(3) 0.2596(8)
C16 C 1.0500(7) 0.8984(3) 0.3794(7)
C17 C 1.1195(7) 0.9156(3) 0.4789(8)
H14 H 1.1941 0.9124 0.4773
C18 C 1.0776(7) 0.9390(3) 0.5876(7)
C19 C 1.1481(7) 0.9564(3) 0.6901(8)
H15 H 1.2228 0.9516 0.6930
C20 C 1.1037(8) 0.9815(3) 0.7890(8)
H16 H 1.1496 0.9927 0.8588
C21 C 0.9950(7) 0.9896(3) 0.7849(7)
H17 H 0.9677 1.0071 0.8506
C22 C 0.9243(7) 0.9719(3) 0.6832(7)
H18 H 0.8500 0.9776 0.6805
C23 C 0.9669(7) 0.9450(3) 0.5831(6)
C24 C 0.8941(7) 0.9256(3) 0.4803(7)
C25 C 0.9184(7) 0.7636(3) -0.1065(7)
H19 H 0.9807 0.7499 -0.1429
H20 H 0.8547 0.7587 -0.1674
C26 C 0.9038(6) 0.7353(3) 0.0120(7)
H21 H 0.9048 0.6991 -0.0050
H22 H 0.9641 0.7429 0.0757
C27 C 0.7139(6) 0.7206(3) 0.0354(6)
C28 C 0.6100(6) 0.7375(3) 0.0850(6)
C29 C 0.5170(7) 0.7111(3) 0.0544(6)
H23 H 0.5188 0.6832 0.0010
C30 C 0.4170(6) 0.7237(3) 0.0993(6)
C31 C 0.3220(7) 0.6953(3) 0.0700(7)
H24 H 0.3223 0.6675 0.0162
C32 C 0.2306(8) 0.7080(3) 0.1187(8)
H25 H 0.1685 0.6883 0.0998
C33 C 0.2272(7) 0.7510(3) 0.1990(8)
H26 H 0.1632 0.7598 0.2318
C34 C 0.3206(6) 0.7798(3) 0.2279(7)
H27 H 0.3198 0.8080 0.2806
C35 C 0.4154(6) 0.7662(3) 0.1775(6)
C36 C 0.5125(6) 0.7970(3) 0.2076(6)
N1 N 0.9350(5) 0.8184(2) -0.0830(6)
N2 N 0.7396(5) 0.8930(2) -0.1259(5)
H28 H 0.7477 0.8856 -0.0464
N3 N 0.6548(5) 0.9563(2) 0.0648(5)
N4 N 1.0304(5) 0.8788(2) 0.1536(6)
H29 H 0.9623 0.8746 0.1595
N5 N 0.9382(5) 0.9025(2) 0.3859(5)
N6 N 0.8030(5) 0.7482(2) 0.0613(5)
H30 H 0.8009 0.7746 0.1089
N7 N 0.6059(5) 0.7804(2) 0.1625(5)
O1 O 0.6758(5) 0.9507(2) -0.2730(5)
O2 O 0.6758(4) 0.90715(18) 0.0997(4)
O3 O 0.6124(4) 0.96790(18) 0.2637(4)
O4 O 1.1978(5) 0.8853(2) 0.2630(6)
O5 O 0.8664(4) 0.88138(19) 0.2929(4)
O6 O 0.7906(4) 0.92855(19) 0.4747(4)
O7 O 0.7131(4) 0.68099(18) -0.0251(4)
O8 O 0.6965(4) 0.80899(18) 0.1949(4)
O9 O 0.5170(4) 0.83702(17) 0.2738(4)
O10 O 0.5658(4) 0.91053(19) 0.4857(4)
Eu1 Eu 0.67844(3) 0.884468(14) 0.31524(3)
O7C O 0.7131(4) 0.81901(18) 0.4749(4)
Eu1C Eu 0.67844(3) 0.615532(14) -0.18476(3)
O11 O 0.3778(6) 0.9697(3) 0.4686(8)
loop_
_geom_bond_atom_site_label_1
_geom_bond_atom_site_label_2
_geom_bond_site_symmetry_1
_geom_bond_site_symmetry_2
C1 H1 1_555 1_555
H2 C1 1_555 1_555
C2 C1 1_555 1_555
H3 C2 1_555 1_555
H4 C2 1_555 1_555
C3 C4 1_555 1_555
C4 C5 1_555 1_555
C5 H5 1_555 1_555
C6 C5 1_555 1_555
C7 C6 1_555 1_555
H6 C7 1_555 1_555
C8 C7 1_555 1_555
H7 C8 1_555 1_555
C9 C8 1_555 1_555
H8 C9 1_555 1_555
C10 C9 1_555 1_555
H9 C10 1_555 1_555
C11 C6 1_555 1_555
C12 C11 1_555 1_555
C13 H10 1_555 1_555
H11 C13 1_555 1_555
C14 C13 1_555 1_555
H12 C14 1_555 1_555
H13 C14 1_555 1_555
C15 C16 1_555 1_555
C16 C17 1_555 1_555
C17 H14 1_555 1_555
C18 C17 1_555 1_555
C19 C18 1_555 1_555
H15 C19 1_555 1_555
C20 C19 1_555 1_555
H16 C20 1_555 1_555
C21 C20 1_555 1_555
H17 C21 1_555 1_555
C22 C21 1_555 1_555
H18 C22 1_555 1_555
C23 C18 1_555 1_555
C24 C23 1_555 1_555
C25 H19 1_555 1_555
H20 C25 1_555 1_555
C26 C25 1_555 1_555
H21 C26 1_555 1_555
H22 C26 1_555 1_555
C27 C28 1_555 1_555
C28 C29 1_555 1_555
C29 H23 1_555 1_555
C30 C29 1_555 1_555
C31 C30 1_555 1_555
H24 C31 1_555 1_555
C32 C31 1_555 1_555
H25 C32 1_555 1_555
C33 C32 1_555 1_555
H26 C33 1_555 1_555
C34 C33 1_555 1_555
H27 C34 1_555 1_555
C35 C30 1_555 1_555
C36 C35 1_555 1_555
N1 C1 1_555 1_555
N2 C2 1_555 1_555
H28 N2 1_555 1_555
N3 C4 1_555 1_555
N4 C14 1_555 1_555
H29 N4 1_555 1_555
N5 C16 1_555 1_555
N6 C26 1_555 1_555
H30 N6 1_555 1_555
N7 C28 1_555 1_555
O1 C3 1_555 1_555
O2 N3 1_555 1_555
O3 C12 1_555 1_555
O4 C15 1_555 1_555
O5 N5 1_555 1_555
O6 C24 1_555 1_555
O7 C27 1_555 1_555
O8 N7 1_555 1_555
O9 C36 1_555 1_555
O10 Eu1 1_555 1_555
Eu1 O2 1_555 1_555
O7C Eu1 1_555 1_555
Eu1C O7 1_555 1_555
C3 N2 1_555 1_555
C10 C11 1_555 1_555
C12 N3 1_555 1_555
C13 N1 1_555 1_555
C15 N4 1_555 1_555
C22 C23 1_555 1_555
C24 N5 1_555 1_555
C25 N1 1_555 1_555
C27 N6 1_555 1_555
C34 C35 1_555 1_555
C36 N7 1_555 1_555
O3 Eu1 1_555 1_555
O5 Eu1 1_555 1_555
O6 Eu1 1_555 1_555
O8 Eu1 1_555 1_555
O9 Eu1 1_555 1_555

#END
