
#######################################################################
#
#                 Cambridge Crystallographic Data Centre
#                                CCDC 
#
#######################################################################
#
# If this CIF has been generated from an entry in the Cambridge 
# Structural Database, then it will include bibliographic, chemical, 
# crystal, experimental, refinement or atomic coordinate data resulting 
# from the CCDC's data processing and validation procedures.
#
#######################################################################

data_HIPHIY
_symmetry_cell_setting           monoclinic
_symmetry_space_group_name_H-M   'P 21/c'
_symmetry_Int_Tables_number      14
_space_group_name_Hall           '-P 2ybc'
loop_
_symmetry_equiv_pos_site_id
_symmetry_equiv_pos_as_xyz
1 x,y,z
2 -x,1/2+y,1/2-z
3 -x,-y,-z
4 x,1/2-y,1/2+z
_cell_length_a                   12.3590(18)
_cell_length_b                   26.307(4)
_cell_length_c                   10.5933(15)
_cell_angle_alpha                90
_cell_angle_beta                 96.343(3)
_cell_angle_gamma                90
_cell_volume                     3423.1
loop_
_atom_site_label
_atom_site_type_symbol
_atom_site_fract_x
_atom_site_fract_y
_atom_site_fract_z
Gd1 Gd 0.31944(3) 0.884061(13) 0.18257(3)
O1 O 0.3018(4) 0.80898(18) 0.3032(4)
O2 O 0.3218(4) 0.90660(18) 0.3978(4)
O3 O 0.4317(4) 0.91028(19) 0.0124(4)
O4 O 0.4816(4) 0.83762(17) 0.2258(4)
O5 O 0.2091(4) 0.92803(19) 0.0226(4)
O6 O 0.1330(4) 0.8803(2) 0.2042(4)
O8 O 0.3856(4) 0.96706(18) 0.2336(4)
N1 N 0.3933(4) 0.7812(2) 0.3375(5)
N2 N -0.0299(5) 0.8779(2) 0.3445(6)
H1 H 0.0384 0.8734 0.3395
C1 C 0.3897(6) 0.7383(3) 0.4140(6)
O9 O 0.3230(5) 0.9505(2) 0.7720(5)
N3 N 0.1954(5) 0.7485(2) 0.4374(5)
H2 H 0.1973 0.7751 0.3905
N4 N 0.3438(5) 0.9549(2) 0.4337(5)
O10 O -0.1983(5) 0.8863(3) 0.2346(6)
N5 N 0.2586(5) 0.8916(2) 0.6226(5)
H3 H 0.2501 0.8841 0.5431
N6 N 0.0620(5) 0.9020(2) 0.1107(6)
C2 C 0.3972(5) 1.0386(3) 0.3729(6)
C3 C 0.0957(5) 0.7351(3) 0.4864(6)
H4 H 0.0958 0.6989 0.5038
H5 H 0.0352 0.7423 0.4226
C4 C 0.5811(6) 0.7251(3) 0.3996(6)
N7 N 0.0631(5) 0.8187(2) 0.5819(5)
C5 C 0.4818(6) 0.7111(3) 0.4451(6)
H6 H 0.4798 0.6828 0.4972
C6 C -0.0510(7) 0.8980(3) 0.1172(8)
C7 C 0.3038(6) 0.9358(3) 0.6585(6)
C8 C 0.5844(6) 0.7671(3) 0.3205(6)
C9 C 0.6786(6) 0.7804(3) 0.2714(7)
H7 H 0.6796 0.8090 0.2201
C10 C 0.1070(6) 0.9251(3) 0.0178(7)
C11 C -0.0777(7) 0.9389(3) -0.0900(7)
C12 C 0.3769(6) 0.9857(3) 0.3421(6)
C13 C 0.4513(7) 1.1218(3) 0.3140(7)
H8 H 0.4778 1.1436 0.2556
C14 C 0.0797(6) 0.7635(3) 0.6055(6)
H9 H 0.0169 0.7498 0.6412
H10 H 0.1429 0.7587 0.6671
C15 C -0.0516(7) 0.8288(3) 0.5420(7)
H11 H -0.0906 0.8301 0.6165
H12 H -0.0815 0.8009 0.4892
C16 C 0.3312(6) 0.9715(3) 0.5564(6)
C17 C 0.7692(7) 0.7084(3) 0.3770(7)
H13 H 0.8312 0.6885 0.3946
C18 C 0.6777(6) 0.6964(3) 0.4265(7)
H14 H 0.6775 0.6685 0.4802
C19 C 0.1006(6) 0.8480(3) 0.6945(6)
H15 H 0.0783 0.8309 0.7685
H16 H 0.0656 0.8811 0.6886
C20 C 0.3778(6) 1.0565(3) 0.4927(6)
C21 C 0.7712(6) 0.7519(3) 0.2970(8)
H17 H 0.8346 0.7608 0.2626
C22 C 0.4345(6) 1.0712(3) 0.2841(7)
H18 H 0.4480 1.0590 0.2050
C23 C -0.0701(7) 0.8783(3) 0.4684(8)
H19 H -0.1476 0.8855 0.4572
H20 H -0.0346 0.9057 0.5186
C24 C 0.3935(7) 1.1087(3) 0.5194(7)
H21 H 0.3799 1.1217 0.5977
C25 C 0.0334(6) 0.9458(3) -0.0868(7)
C26 C 0.3473(6) 1.0213(3) 0.5844(7)
H22 H 0.3382 1.0328 0.6656
C27 C 0.0061(8) 0.9900(3) -0.2874(7)
H23 H 0.0336 1.0073 -0.3535
C28 C -0.1449(7) 0.9569(4) -0.1939(8)
H24 H -0.2196 0.9517 -0.1978
C29 C 0.4852(5) 0.7974(3) 0.2918(6)
C30 C 0.0762(7) 0.9722(3) -0.1851(7)
H25 H 0.1508 0.9777 -0.1820
C31 C -0.0985(7) 0.8846(3) 0.2363(8)
C32 C 0.2231(7) 0.8555(3) 0.7132(6)
H26 H 0.2445 0.8676 0.7988
H27 H 0.2587 0.8231 0.7035
C33 C -0.1171(7) 0.9162(3) 0.0145(8)
H28 H -0.1921 0.9132 0.0147
C34 C -0.1037(8) 0.9820(4) -0.2902(8)
H29 H -0.1505 0.9939 -0.3586
C35 C 0.4290(7) 1.1400(3) 0.4295(8)
H30 H 0.4382 1.1744 0.4471
O11 O 0.2859(4) 0.68111(18) 0.5241(4)
C36 C 0.2843(6) 0.7208(3) 0.4628(6)
Gd1C Gd 0.31944(3) 0.615939(13) 0.68257(3)
O11C O 0.2859(4) 0.81889(18) 0.0241(4)
O7 O 0.6211(6) 0.9673(4) 0.0404(9)
loop_
_geom_bond_atom_site_label_1
_geom_bond_atom_site_label_2
_geom_bond_site_symmetry_1
_geom_bond_site_symmetry_2
Gd1 O1 1_555 1_555
O1 N1 1_555 1_555
O2 Gd1 1_555 1_555
O3 Gd1 1_555 1_555
O4 Gd1 1_555 1_555
O5 Gd1 1_555 1_555
O6 Gd1 1_555 1_555
O8 Gd1 1_555 1_555
N1 C1 1_555 1_555
N2 H1 1_555 1_555
C1 C5 1_555 1_555
O9 C7 1_555 1_555
N3 H2 1_555 1_555
N4 O2 1_555 1_555
O10 C31 1_555 1_555
N5 H3 1_555 1_555
N6 O6 1_555 1_555
C2 C12 1_555 1_555
C3 N3 1_555 1_555
H4 C3 1_555 1_555
H5 C3 1_555 1_555
C4 C5 1_555 1_555
N7 C14 1_555 1_555
C5 H6 1_555 1_555
C6 N6 1_555 1_555
C7 N5 1_555 1_555
C8 C4 1_555 1_555
C9 C8 1_555 1_555
H7 C9 1_555 1_555
C10 O5 1_555 1_555
C11 C25 1_555 1_555
C12 O8 1_555 1_555
C13 H8 1_555 1_555
C14 C3 1_555 1_555
H9 C14 1_555 1_555
H10 C14 1_555 1_555
C15 N7 1_555 1_555
H11 C15 1_555 1_555
H12 C15 1_555 1_555
C16 N4 1_555 1_555
C17 H13 1_555 1_555
C18 C4 1_555 1_555
H14 C18 1_555 1_555
C19 N7 1_555 1_555
H15 C19 1_555 1_555
H16 C19 1_555 1_555
C20 C2 1_555 1_555
C21 C9 1_555 1_555
H17 C21 1_555 1_555
C22 C2 1_555 1_555
H18 C22 1_555 1_555
C23 N2 1_555 1_555
H19 C23 1_555 1_555
H20 C23 1_555 1_555
C24 C20 1_555 1_555
H21 C24 1_555 1_555
C25 C10 1_555 1_555
C26 C16 1_555 1_555
H22 C26 1_555 1_555
C27 H23 1_555 1_555
C28 C11 1_555 1_555
H24 C28 1_555 1_555
C29 O4 1_555 1_555
C30 C25 1_555 1_555
H25 C30 1_555 1_555
C31 N2 1_555 1_555
C32 N5 1_555 1_555
H26 C32 1_555 1_555
H27 C32 1_555 1_555
C33 C6 1_555 1_555
H28 C33 1_555 1_555
C34 C27 1_555 1_555
H29 C34 1_555 1_555
C35 C13 1_555 1_555
H30 C35 1_555 1_555
O11 C36 1_555 1_555
C36 C1 1_555 1_555
Gd1C O11 1_555 1_555
O11C Gd1 1_555 1_555
N1 C29 1_555 1_555
N3 C36 1_555 1_555
N4 C12 1_555 1_555
N6 C10 1_555 1_555
C6 C31 1_555 1_555
C7 C16 1_555 1_555
C8 C29 1_555 1_555
C11 C33 1_555 1_555
C13 C22 1_555 1_555
C15 C23 1_555 1_555
C17 C18 1_555 1_555
C17 C21 1_555 1_555
C19 C32 1_555 1_555
C20 C26 1_555 1_555
C24 C35 1_555 1_555
C27 C30 1_555 1_555
C28 C34 1_555 1_555

#END
