
#######################################################################
#
#                 Cambridge Crystallographic Data Centre
#                                CCDC 
#
#######################################################################
#
# If this CIF has been generated from an entry in the Cambridge 
# Structural Database, then it will include bibliographic, chemical, 
# crystal, experimental, refinement or atomic coordinate data resulting 
# from the CCDC's data processing and validation procedures.
#
#######################################################################

data_HIPHUK
_symmetry_cell_setting           monoclinic
_symmetry_space_group_name_H-M   'P 21/c'
_symmetry_Int_Tables_number      14
_space_group_name_Hall           '-P 2ybc'
loop_
_symmetry_equiv_pos_site_id
_symmetry_equiv_pos_as_xyz
1 x,y,z
2 -x,1/2+y,1/2-z
3 -x,-y,-z
4 x,1/2-y,1/2+z
_cell_length_a                   12.3472(15)
_cell_length_b                   26.188(3)
_cell_length_c                   10.5624(12)
_cell_angle_alpha                90
_cell_angle_beta                 96.220(2)
_cell_angle_gamma                90
_cell_volume                     3395.23
loop_
_atom_site_label
_atom_site_type_symbol
_atom_site_fract_x
_atom_site_fract_y
_atom_site_fract_z
Dy1 Dy 0.18314(2) 0.883624(9) 0.31690(2)
O1 O 0.2023(3) 0.80876(14) 0.1979(4)
O2 O 0.0217(3) 0.83827(14) 0.2740(3)
O3 O 0.1793(3) 0.90527(14) 0.1026(4)
O4 O 0.3682(3) 0.88056(15) 0.2934(4)
O5 O 0.0704(4) 0.90845(15) 0.4850(4)
O6 O 0.1158(3) 0.96564(14) 0.2682(4)
O7 O 0.2911(3) 0.92834(15) 0.4749(4)
O8 O 0.1766(4) 0.95007(17) -0.2710(4)
N1 N 0.1575(4) 0.95455(17) 0.0679(4)
N2 N 0.1113(4) 0.78116(17) 0.1620(4)
O9 O 0.7008(4) 0.8861(2) 0.2655(5)
N3 N 0.3090(4) 0.74809(17) 0.0623(5)
H1 H 0.3068 0.7747 0.1096
C1 C 0.6187(6) 0.9158(2) 0.4840(7)
H2 H 0.6937 0.9123 0.4838
N4 N 0.4395(4) 0.90215(18) 0.3876(5)
C2 C 0.1141(5) 0.7385(2) 0.0843(5)
C3 C 0.1019(5) 1.0377(2) 0.1285(5)
C4 C 0.5780(5) 0.9392(2) 0.5905(6)
C5 C -0.0802(5) 0.7678(2) 0.1777(5)
N5 N 0.5332(5) 0.87850(19) 0.1552(5)
H3 H 0.4649 0.8740 0.1603
N6 N 0.2426(4) 0.89155(18) -0.1231(5)
H4 H 0.2517 0.8841 -0.0433
C6 C -0.0784(5) 0.7247(2) 0.0971(5)
N7 N 0.4412(4) 0.81826(18) -0.0827(5)
C7 C 0.1234(5) 0.9855(2) 0.1596(5)
C8 C 0.6026(7) 0.9825(3) 0.7896(7)
H5 H 0.6486 0.9948 0.8584
C9 C 0.5516(5) 0.8983(2) 0.3819(6)
C10 C 0.1965(5) 0.9355(2) -0.1577(5)
C11 C -0.1749(5) 0.7816(2) 0.2273(6)
H6 H -0.1759 0.8104 0.2785
C12 C 0.1209(5) 1.0564(2) 0.0080(6)
C13 C 0.0696(6) 1.1402(2) 0.0724(7)
H7 H 0.0596 1.1748 0.0552
C14 C 0.0664(5) 1.0706(2) 0.2173(6)
H8 H 0.0546 1.0584 0.2973
C15 C 0.3942(5) 0.9257(2) 0.4828(6)
C16 C 0.1681(5) 0.9713(2) -0.0564(5)
C17 C 0.4102(5) 0.7348(2) 0.0139(6)
H9 H 0.4113 0.6983 -0.0022
H10 H 0.4703 0.7427 0.0777
C18 C 0.4653(5) 0.9458(2) 0.5850(6)
C19 C -0.2685(6) 0.7527(2) 0.2011(6)
H11 H -0.3320 0.7614 0.2360
C20 C -0.2660(5) 0.7094(3) 0.1200(6)
H12 H -0.3284 0.6897 0.1012
C21 C 0.4029(5) 0.8481(2) -0.1971(6)
H13 H 0.4248 0.8309 -0.2717
H14 H 0.4375 0.8814 -0.1916
C22 C 0.0484(6) 1.1212(2) 0.1886(7)
H15 H 0.0218 1.1428 0.2480
C23 C 0.0210(5) 0.7119(2) 0.0524(5)
H16 H 0.0230 0.6840 -0.0015
C24 C 0.5736(6) 0.8784(2) 0.0313(7)
H17 H 0.6513 0.8851 0.0427
H18 H 0.5390 0.9061 -0.0190
C25 C 0.6463(6) 0.9575(3) 0.6942(6)
H19 H 0.7212 0.9528 0.6982
C26 C -0.1744(5) 0.6967(2) 0.0708(6)
H20 H -0.1746 0.6685 0.0174
C27 C 0.4251(5) 0.7629(2) -0.1064(6)
H21 H 0.4879 0.7492 -0.1428
H22 H 0.3615 0.7578 -0.1675
C28 C 0.4230(6) 0.9721(2) 0.6842(6)
H23 H 0.3483 0.9775 0.6809
C29 C 0.6014(5) 0.8856(2) 0.2632(7)
C30 C 0.0177(5) 0.7978(2) 0.2076(5)
C31 C 0.1058(6) 1.1086(2) -0.0197(6)
H24 H 0.1198 1.1216 -0.0981
C32 C 0.1524(5) 1.0211(2) -0.0829(6)
H25 H 0.1625 1.0329 -0.1639
C33 C 0.5543(5) 0.8294(2) -0.0422(6)
H26 H 0.5934 0.8310 -0.1169
H27 H 0.5847 0.8014 0.0104
C34 C 0.4910(6) 0.9900(2) 0.7867(6)
H28 H 0.4625 1.0069 0.8531
C35 C 0.2788(6) 0.8551(2) -0.2134(6)
H29 H 0.2559 0.8668 -0.2993
H30 H 0.2442 0.8224 -0.2020
O11 O 0.2173(3) 0.68086(14) -0.0257(4)
C36 C 0.2189(5) 0.7205(2) 0.0358(5)
Dy1C Dy 0.18314(2) 0.616376(9) -0.18310(2)
O11C O 0.2173(3) 0.81914(14) 0.4743(4)
O10 O -0.1193(5) 0.9662(4) 0.4531(9)
loop_
_geom_bond_atom_site_label_1
_geom_bond_atom_site_label_2
_geom_bond_site_symmetry_1
_geom_bond_site_symmetry_2
Dy1 O1 1_555 1_555
O1 N2 1_555 1_555
O2 Dy1 1_555 1_555
O3 Dy1 1_555 1_555
O4 Dy1 1_555 1_555
O5 Dy1 1_555 1_555
O6 Dy1 1_555 1_555
O7 Dy1 1_555 1_555
O8 C10 1_555 1_555
N1 O3 1_555 1_555
N2 C2 1_555 1_555
O9 C29 1_555 1_555
N3 H1 1_555 1_555
C1 H2 1_555 1_555
N4 O4 1_555 1_555
C2 C23 1_555 1_555
C3 C7 1_555 1_555
C4 C1 1_555 1_555
C5 C6 1_555 1_555
N5 H3 1_555 1_555
N6 H4 1_555 1_555
C6 C23 1_555 1_555
N7 C21 1_555 1_555
C7 O6 1_555 1_555
C8 H5 1_555 1_555
C9 C1 1_555 1_555
C10 N6 1_555 1_555
C11 C5 1_555 1_555
H6 C11 1_555 1_555
C12 C3 1_555 1_555
C13 H7 1_555 1_555
C14 C3 1_555 1_555
H8 C14 1_555 1_555
C15 O7 1_555 1_555
C16 N1 1_555 1_555
C17 N3 1_555 1_555
H9 C17 1_555 1_555
H10 C17 1_555 1_555
C18 C4 1_555 1_555
C19 C11 1_555 1_555
H11 C19 1_555 1_555
C20 C19 1_555 1_555
H12 C20 1_555 1_555
C21 H13 1_555 1_555
H14 C21 1_555 1_555
C22 C13 1_555 1_555
H15 C22 1_555 1_555
C23 H16 1_555 1_555
C24 N5 1_555 1_555
H17 C24 1_555 1_555
H18 C24 1_555 1_555
C25 C4 1_555 1_555
H19 C25 1_555 1_555
C26 C6 1_555 1_555
H20 C26 1_555 1_555
C27 N7 1_555 1_555
H21 C27 1_555 1_555
H22 C27 1_555 1_555
C28 C18 1_555 1_555
H23 C28 1_555 1_555
C29 N5 1_555 1_555
C30 O2 1_555 1_555
C31 C12 1_555 1_555
H24 C31 1_555 1_555
C32 C12 1_555 1_555
H25 C32 1_555 1_555
C33 N7 1_555 1_555
H26 C33 1_555 1_555
H27 C33 1_555 1_555
C34 C8 1_555 1_555
H28 C34 1_555 1_555
C35 N6 1_555 1_555
H29 C35 1_555 1_555
H30 C35 1_555 1_555
O11 C36 1_555 1_555
C36 N3 1_555 1_555
Dy1C O11 1_555 1_555
O11C Dy1 1_555 1_555
N1 C7 1_555 1_555
N2 C30 1_555 1_555
N4 C9 1_555 1_555
N4 C15 1_555 1_555
C2 C36 1_555 1_555
C5 C30 1_555 1_555
C8 C25 1_555 1_555
C9 C29 1_555 1_555
C10 C16 1_555 1_555
C13 C31 1_555 1_555
C14 C22 1_555 1_555
C15 C18 1_555 1_555
C16 C32 1_555 1_555
C17 C27 1_555 1_555
C20 C26 1_555 1_555
C21 C35 1_555 1_555
C24 C33 1_555 1_555
C28 C34 1_555 1_555

#END
