
#######################################################################
#
#                 Cambridge Crystallographic Data Centre
#                                CCDC 
#
#######################################################################
#
# If this CIF has been generated from an entry in the Cambridge 
# Structural Database, then it will include bibliographic, chemical, 
# crystal, experimental, refinement or atomic coordinate data resulting 
# from the CCDC's data processing and validation procedures.
#
#######################################################################

data_HIPJEW
_symmetry_cell_setting           monoclinic
_symmetry_space_group_name_H-M   'P 21/c'
_symmetry_Int_Tables_number      14
_space_group_name_Hall           '-P 2ybc'
loop_
_symmetry_equiv_pos_site_id
_symmetry_equiv_pos_as_xyz
1 x,y,z
2 -x,1/2+y,1/2-z
3 -x,-y,-z
4 x,1/2-y,1/2+z
_cell_length_a                   12.3589(18)
_cell_length_b                   26.132(4)
_cell_length_c                   10.5565(15)
_cell_angle_alpha                90
_cell_angle_beta                 96.277(2)
_cell_angle_gamma                90
_cell_volume                     3388.92
loop_
_atom_site_label
_atom_site_type_symbol
_atom_site_fract_x
_atom_site_fract_y
_atom_site_fract_z
Er1 Er 0.31451(2) 0.883076(11) 0.68348(3)
O1 O 0.4752(4) 0.83834(16) 0.7272(4)
O2 O 0.3173(4) 0.90417(17) 0.8961(4)
O3 O 0.1306(4) 0.88029(19) 0.7062(4)
O4 O 0.2945(4) 0.80899(16) 0.8015(4)
O5 O 0.3821(4) 0.96432(17) 0.7299(4)
O6 O 0.4266(4) 0.90745(18) 0.5166(4)
O7 O 0.2090(4) 0.92759(17) 0.5264(4)
O8 O 0.3229(4) 0.9493(2) 1.2705(5)
C1 C -0.1022(6) 0.8855(3) 0.7364(8)
N1 N 0.3859(4) 0.7816(2) 0.8379(5)
N2 N -0.0344(5) 0.8781(2) 0.8444(6)
H1 H 0.0339 0.8733 0.8394
N3 N 0.0605(5) 0.9017(2) 0.6122(6)
N4 N 0.2563(5) 0.8913(2) 1.1235(5)
H2 H 0.2472 0.8837 1.0438
N5 N 0.3421(4) 0.9533(2) 0.9310(5)
O9 O -0.2015(4) 0.8859(2) 0.7322(6)
N6 N 0.1885(5) 0.7481(2) 0.9381(6)
H3 H 0.1910 0.7747 0.8904
C2 C 0.3846(6) 0.7389(2) 0.9172(6)
C3 C -0.0776(6) 0.9388(3) 0.4096(7)
C4 C 0.3975(5) 1.0362(3) 0.8693(6)
N7 N 0.0569(5) 0.8185(2) 1.0818(6)
C5 C 0.5753(5) 0.7254(3) 0.9040(6)
C6 C 0.5768(5) 0.7683(2) 0.8231(6)
C7 C 0.3746(5) 0.9842(3) 0.8384(7)
C8 C 0.0343(6) 0.9459(3) 0.4143(6)
C9 C 0.3807(5) 1.0556(3) 0.9914(7)
C10 C 0.4794(6) 0.7986(3) 0.7932(6)
C11 C 0.6726(6) 0.6969(3) 0.9302(7)
H4 H 0.6737 0.6685 0.9834
C12 C 0.3024(6) 0.9350(3) 1.1584(7)
C13 C 0.0863(5) 0.7347(3) 0.9863(7)
H5 H 0.0848 0.6982 1.0023
H6 H 0.0262 0.7429 0.9227
C14 C 0.1061(6) 0.9256(2) 0.5185(7)
C15 C -0.0748(6) 0.8783(3) 0.9694(7)
H7 H -0.1522 0.8857 0.9580
H8 H -0.0392 0.9058 1.0198
C16 C 0.0971(6) 0.8482(3) 1.1974(7)
H9 H 0.0753 0.8309 1.2718
H10 H 0.0627 0.8816 1.1927
C17 C 0.3300(6) 0.9701(3) 1.0542(7)
C18 C 0.3483(6) 1.0203(3) 1.0826(7)
H11 H 0.3394 1.0319 1.1641
C19 C 0.4334(6) 1.0692(3) 0.7788(8)
H12 H 0.4448 1.0571 0.6985
C20 C 0.4761(6) 0.7124(3) 0.9471(7)
H13 H 0.4737 0.6838 0.9993
C21 C -0.1449(7) 0.9575(3) 0.3051(8)
H14 H -0.2197 0.9525 0.3002
C22 C 0.6719(6) 0.7824(3) 0.7736(7)
H15 H 0.6733 0.8112 0.7223
C23 C 0.7645(6) 0.7531(3) 0.8010(8)
H16 H 0.8282 0.7620 0.7670
C24 C 0.4521(6) 1.1203(3) 0.8096(8)
H17 H 0.4771 1.1421 0.7496
C25 C -0.0574(6) 0.8293(3) 1.0425(8)
H18 H -0.0960 0.8310 1.1176
H19 H -0.0881 0.8013 0.9900
C26 C -0.1191(6) 0.9155(3) 0.5137(8)
H20 H -0.1939 0.9115 0.5129
C27 C 0.7630(6) 0.7103(3) 0.8794(8)
H21 H 0.8257 0.6907 0.8967
C28 C 0.0733(6) 0.7628(3) 1.1057(7)
H22 H 0.1376 0.7577 1.1658
H23 H 0.0113 0.7491 1.1435
C29 C -0.0518(6) 0.8987(3) 0.6161(8)
C30 C 0.0095(7) 0.9906(3) 0.2137(8)
H24 H 0.0375 1.0081 0.1478
C31 C 0.4346(6) 1.1392(3) 0.9249(8)
H25 H 0.4467 1.1737 0.9424
C32 C 0.0785(7) 0.9723(3) 0.3158(7)
H26 H 0.1532 0.9774 0.3191
C33 C 0.2199(6) 0.8552(3) 1.2142(6)
H27 H 0.2424 0.8672 1.2999
H28 H 0.2545 0.8224 1.2038
C34 C 0.3988(6) 1.1077(3) 1.0169(8)
H29 H 0.3867 1.1211 1.0957
C35 C -0.1012(8) 0.9828(3) 0.2102(9)
H30 H -0.1471 0.9951 0.1413
O11 O 0.2805(4) 0.68119(17) 1.0281(4)
C36 C 0.2780(5) 0.7204(3) 0.9657(7)
Er1C Er 0.31451(2) 0.616924(11) 1.18348(3)
O11C O 0.2805(4) 0.81881(17) 0.5281(4)
O10 O 0.6183(6) 0.9639(4) 0.5542(10)
loop_
_geom_bond_atom_site_label_1
_geom_bond_atom_site_label_2
_geom_bond_site_symmetry_1
_geom_bond_site_symmetry_2
Er1 O1 1_555 1_555
O1 C10 1_555 1_555
O2 Er1 1_555 1_555
O3 Er1 1_555 1_555
O4 Er1 1_555 1_555
O5 Er1 1_555 1_555
O6 Er1 1_555 1_555
O7 Er1 1_555 1_555
O8 C12 1_555 1_555
C1 N2 1_555 1_555
N1 O4 1_555 1_555
N2 H1 1_555 1_555
N3 O3 1_555 1_555
N4 H2 1_555 1_555
N5 O2 1_555 1_555
O9 C1 1_555 1_555
N6 H3 1_555 1_555
C2 N1 1_555 1_555
C3 C8 1_555 1_555
C4 C7 1_555 1_555
N7 C16 1_555 1_555
C5 C6 1_555 1_555
C6 C10 1_555 1_555
C7 O5 1_555 1_555
C8 C14 1_555 1_555
C9 C4 1_555 1_555
C10 N1 1_555 1_555
C11 C5 1_555 1_555
H4 C11 1_555 1_555
C12 N4 1_555 1_555
C13 N6 1_555 1_555
H5 C13 1_555 1_555
H6 C13 1_555 1_555
C14 O7 1_555 1_555
C15 N2 1_555 1_555
H7 C15 1_555 1_555
H8 C15 1_555 1_555
C16 H9 1_555 1_555
H10 C16 1_555 1_555
C17 N5 1_555 1_555
C18 C9 1_555 1_555
H11 C18 1_555 1_555
C19 C4 1_555 1_555
H12 C19 1_555 1_555
C20 C2 1_555 1_555
H13 C20 1_555 1_555
C21 C3 1_555 1_555
H14 C21 1_555 1_555
C22 C6 1_555 1_555
H15 C22 1_555 1_555
C23 C22 1_555 1_555
H16 C23 1_555 1_555
C24 C19 1_555 1_555
H17 C24 1_555 1_555
C25 N7 1_555 1_555
H18 C25 1_555 1_555
H19 C25 1_555 1_555
C26 C3 1_555 1_555
H20 C26 1_555 1_555
C27 C11 1_555 1_555
H21 C27 1_555 1_555
C28 N7 1_555 1_555
H22 C28 1_555 1_555
H23 C28 1_555 1_555
C29 C1 1_555 1_555
C30 H24 1_555 1_555
C31 C24 1_555 1_555
H25 C31 1_555 1_555
C32 C8 1_555 1_555
H26 C32 1_555 1_555
C33 N4 1_555 1_555
H27 C33 1_555 1_555
H28 C33 1_555 1_555
C34 C9 1_555 1_555
H29 C34 1_555 1_555
C35 C21 1_555 1_555
H30 C35 1_555 1_555
O11 C36 1_555 1_555
C36 N6 1_555 1_555
Er1C O11 1_555 1_555
O11C Er1 1_555 1_555
N3 C14 1_555 1_555
N3 C29 1_555 1_555
N5 C7 1_555 1_555
C2 C36 1_555 1_555
C5 C20 1_555 1_555
C12 C17 1_555 1_555
C13 C28 1_555 1_555
C15 C25 1_555 1_555
C16 C33 1_555 1_555
C17 C18 1_555 1_555
C23 C27 1_555 1_555
C26 C29 1_555 1_555
C30 C32 1_555 1_555
C30 C35 1_555 1_555
C31 C34 1_555 1_555

#END
