
#######################################################################
#
#                 Cambridge Crystallographic Data Centre
#                                CCDC 
#
#######################################################################
#
# If this CIF has been generated from an entry in the Cambridge 
# Structural Database, then it will include bibliographic, chemical, 
# crystal, experimental, refinement or atomic coordinate data resulting 
# from the CCDC's data processing and validation procedures.
#
#######################################################################

data_HIPJOG
_symmetry_cell_setting           monoclinic
_symmetry_space_group_name_H-M   'P 21/c'
_symmetry_Int_Tables_number      14
_space_group_name_Hall           '-P 2ybc'
loop_
_symmetry_equiv_pos_site_id
_symmetry_equiv_pos_as_xyz
1 x,y,z
2 -x,1/2+y,1/2-z
3 -x,-y,-z
4 x,1/2-y,1/2+z
_cell_length_a                   12.336(5)
_cell_length_b                   26.006(10)
_cell_length_c                   10.546(4)
_cell_angle_alpha                90
_cell_angle_beta                 96.443(5)
_cell_angle_gamma                90
_cell_volume                     3361.89
loop_
_atom_site_label
_atom_site_type_symbol
_atom_site_fract_x
_atom_site_fract_y
_atom_site_fract_z
C1 C 0.4062(8) 0.8484(4) -0.1952(8)
H1 H 0.4291 0.8315 -0.2699
H2 H 0.4401 0.8821 -0.1887
C2 C 0.2828(8) 0.8551(4) -0.2142(8)
H3 H 0.2612 0.8676 -0.2999
H4 H 0.2484 0.8219 -0.2058
C3 C 0.1986(8) 0.9337(4) -0.1566(9)
C4 C 0.1687(7) 0.9705(4) -0.0543(9)
C5 C 0.1496(8) 1.0202(4) -0.0817(9)
H5 H 0.1575 1.0320 -0.1635
C6 C 0.1182(8) 1.0551(4) 0.0088(10)
C7 C 0.0992(8) 1.1068(4) -0.0153(10)
H6 H 0.1113 1.1206 -0.0938
C8 C 0.0631(8) 1.1375(4) 0.0752(10)
H7 H 0.0492 1.1720 0.0567
C9 C 0.0467(7) 1.1192(4) 0.1923(9)
H8 H 0.0219 1.1411 0.2526
C10 C 0.0664(8) 1.0689(4) 0.2211(9)
H9 H 0.0552 1.0567 0.3015
C11 C 0.1034(7) 1.0350(4) 0.1318(9)
C12 C 0.1261(7) 0.9824(4) 0.1613(9)
C13 C 0.5595(8) 0.8298(4) -0.0412(10)
H10 H 0.5985 0.8319 -0.1160
H11 H 0.5904 0.8016 0.0110
C14 C 0.5772(8) 0.8787(4) 0.0330(9)
H12 H 0.6547 0.8862 0.0443
H13 H 0.5413 0.9065 -0.0168
C15 C 0.6048(8) 0.8857(4) 0.2650(9)
C16 C 0.5549(8) 0.8981(4) 0.3836(9)
C17 C 0.6201(8) 0.9149(4) 0.4865(10)
H14 H 0.6952 0.9109 0.4884
C18 C 0.5779(8) 0.9385(4) 0.5922(10)
C19 C 0.6449(9) 0.9571(4) 0.6984(10)
H15 H 0.7200 0.9522 0.7049
C20 C 0.5987(9) 0.9827(4) 0.7928(11)
H16 H 0.6437 0.9949 0.8631
C21 C 0.4885(9) 0.9910(4) 0.7868(10)
H17 H 0.4600 1.0086 0.8523
C22 C 0.4210(8) 0.9736(4) 0.6853(9)
H18 H 0.3463 0.9796 0.6807
C23 C 0.4651(8) 0.9461(4) 0.5860(9)
C24 C 0.3951(8) 0.9252(4) 0.4820(9)
C25 C 0.4311(8) 0.7629(4) -0.1052(9)
H19 H 0.4948 0.7494 -0.1402
H20 H 0.3682 0.7573 -0.1674
C26 C 0.4159(8) 0.7351(4) 0.0136(9)
H21 H 0.4174 0.6984 -0.0024
H22 H 0.4760 0.7432 0.0780
C27 C 0.2249(8) 0.7206(4) 0.0342(8)
C28 C 0.1193(8) 0.7392(4) 0.0820(8)
C29 C 0.0272(8) 0.7116(4) 0.0512(8)
H23 H 0.0298 0.6828 -0.0004
C30 C -0.0728(8) 0.7255(4) 0.0954(9)
C31 C -0.1679(8) 0.6980(4) 0.0704(9)
H24 H -0.1682 0.6694 0.0175
C32 C -0.2600(9) 0.7104(4) 0.1186(10)
H25 H -0.3227 0.6908 0.0996
C33 C -0.2609(8) 0.7537(4) 0.1987(9)
H26 H -0.3240 0.7624 0.2342
C34 C -0.1685(7) 0.7830(4) 0.2243(8)
H27 H -0.1702 0.8124 0.2742
C35 C -0.0729(7) 0.7691(4) 0.1764(8)
C36 C 0.0241(8) 0.7983(4) 0.2051(8)
N1 N 0.4454(6) 0.8185(3) -0.0822(7)
N2 N 0.2450(6) 0.8903(3) -0.1238(7)
H28 H 0.2535 0.8822 -0.0442
N3 N 0.1601(6) 0.9527(3) 0.0691(7)
N4 N 0.5379(6) 0.8780(3) 0.1563(7)
H29 H 0.4697 0.8726 0.1609
N5 N 0.4406(6) 0.9016(3) 0.3876(7)
N6 N 0.3148(6) 0.7481(3) 0.0616(7)
H30 H 0.3126 0.7747 0.1097
N7 N 0.1183(6) 0.7813(3) 0.1614(7)
O1 O 0.1779(6) 0.9488(3) -0.2700(6)
O2 O 0.1847(5) 0.9039(2) 0.1040(5)
O3 O 0.1216(5) 0.9630(2) 0.2704(6)
O4 O 0.7035(5) 0.8865(3) 0.2677(7)
O5 O 0.3705(5) 0.8801(3) 0.2926(6)
O6 O 0.2916(5) 0.9277(2) 0.4717(5)
O7 O 0.2228(5) 0.6811(3) -0.0289(5)
O8 O 0.2091(5) 0.8091(2) 0.2000(5)
O9 O 0.0296(5) 0.8393(2) 0.2718(5)
O10 O 0.0752(5) 0.9062(3) 0.4819(6)
Yb1 Yb 0.18864(3) 0.882673(17) 0.31614(4)
O7C O 0.2228(5) 0.8189(3) 0.4711(5)
Yb1C Yb 0.18864(3) 0.617327(17) -0.18386(4)
O11 O -0.1186(8) 0.9604(6) 0.4374(12)
loop_
_geom_bond_atom_site_label_1
_geom_bond_atom_site_label_2
_geom_bond_site_symmetry_1
_geom_bond_site_symmetry_2
C1 H1 1_555 1_555
H2 C1 1_555 1_555
C2 C1 1_555 1_555
H3 C2 1_555 1_555
H4 C2 1_555 1_555
C3 C4 1_555 1_555
C4 C5 1_555 1_555
C5 H5 1_555 1_555
C6 C5 1_555 1_555
C7 C6 1_555 1_555
H6 C7 1_555 1_555
C8 C7 1_555 1_555
H7 C8 1_555 1_555
C9 C8 1_555 1_555
H8 C9 1_555 1_555
C10 C9 1_555 1_555
H9 C10 1_555 1_555
C11 C6 1_555 1_555
C12 C11 1_555 1_555
C13 H10 1_555 1_555
H11 C13 1_555 1_555
C14 C13 1_555 1_555
H12 C14 1_555 1_555
H13 C14 1_555 1_555
C15 C16 1_555 1_555
C16 C17 1_555 1_555
C17 H14 1_555 1_555
C18 C17 1_555 1_555
C19 C18 1_555 1_555
H15 C19 1_555 1_555
C20 C19 1_555 1_555
H16 C20 1_555 1_555
C21 C20 1_555 1_555
H17 C21 1_555 1_555
C22 C21 1_555 1_555
H18 C22 1_555 1_555
C23 C18 1_555 1_555
C24 C23 1_555 1_555
C25 H19 1_555 1_555
H20 C25 1_555 1_555
C26 C25 1_555 1_555
H21 C26 1_555 1_555
H22 C26 1_555 1_555
C27 C28 1_555 1_555
C28 C29 1_555 1_555
C29 H23 1_555 1_555
C30 C29 1_555 1_555
C31 C30 1_555 1_555
H24 C31 1_555 1_555
C32 C31 1_555 1_555
H25 C32 1_555 1_555
C33 C32 1_555 1_555
H26 C33 1_555 1_555
C34 C33 1_555 1_555
H27 C34 1_555 1_555
C35 C30 1_555 1_555
C36 C35 1_555 1_555
N1 C1 1_555 1_555
N2 C2 1_555 1_555
H28 N2 1_555 1_555
N3 C4 1_555 1_555
N4 C14 1_555 1_555
H29 N4 1_555 1_555
N5 C16 1_555 1_555
N6 C26 1_555 1_555
H30 N6 1_555 1_555
N7 C28 1_555 1_555
O1 C3 1_555 1_555
O2 N3 1_555 1_555
O3 C12 1_555 1_555
O4 C15 1_555 1_555
O5 N5 1_555 1_555
O6 C24 1_555 1_555
O7 C27 1_555 1_555
O8 N7 1_555 1_555
O9 C36 1_555 1_555
O10 Yb1 1_555 1_555
Yb1 O2 1_555 1_555
O7C Yb1 1_555 1_555
Yb1C O7 1_555 1_555
C3 N2 1_555 1_555
C10 C11 1_555 1_555
C12 N3 1_555 1_555
C13 N1 1_555 1_555
C15 N4 1_555 1_555
C22 C23 1_555 1_555
C24 N5 1_555 1_555
C25 N1 1_555 1_555
C27 N6 1_555 1_555
C34 C35 1_555 1_555
C36 N7 1_555 1_555
O3 Yb1 1_555 1_555
O5 Yb1 1_555 1_555
O6 Yb1 1_555 1_555
O8 Yb1 1_555 1_555
O9 Yb1 1_555 1_555

#END
