
#######################################################################
#
#                 Cambridge Crystallographic Data Centre
#                                CCDC 
#
#######################################################################
#
# If this CIF has been generated from an entry in the Cambridge 
# Structural Database, then it will include bibliographic, chemical, 
# crystal, experimental, refinement or atomic coordinate data resulting 
# from the CCDC's data processing and validation procedures.
#
#######################################################################

data_HIPJAS
_symmetry_cell_setting           monoclinic
_symmetry_space_group_name_H-M   'P 21/c'
_symmetry_Int_Tables_number      14
_space_group_name_Hall           '-P 2ybc'
loop_
_symmetry_equiv_pos_site_id
_symmetry_equiv_pos_as_xyz
1 x,y,z
2 -x,1/2+y,1/2-z
3 -x,-y,-z
4 x,1/2-y,1/2+z
_cell_length_a                   12.345(2)
_cell_length_b                   26.153(4)
_cell_length_c                   10.5557(17)
_cell_angle_alpha                90
_cell_angle_beta                 96.306(3)
_cell_angle_gamma                90
_cell_volume                     3387.38
loop_
_atom_site_label
_atom_site_type_symbol
_atom_site_fract_x
_atom_site_fract_y
_atom_site_fract_z
Ho1 Ho 0.68364(3) 0.883339(12) 0.31683(3)
C1 C 0.5485(7) 1.1207(3) 0.1891(8)
H1 H 0.5215 1.1425 0.2479
O1 O 0.5226(4) 0.83833(17) 0.2732(5)
O2 O 0.7030(4) 0.80906(17) 0.1990(5)
O3 O 0.8676(4) 0.8803(2) 0.2937(4)
O4 O 0.6806(4) 0.90490(17) 0.1041(5)
O5 O 0.5709(4) 0.90801(19) 0.4845(5)
O6 O 0.6167(4) 0.96510(18) 0.2694(5)
O7 O 0.7900(4) 0.92786(19) 0.4746(5)
O8 O 1.2003(4) 0.8861(2) 0.2663(6)
O9 O 0.6769(5) 0.9497(2) -0.2704(5)
N1 N 0.7414(5) 0.8912(2) -0.1231(6)
H2 H 0.7495 0.8837 -0.0433
N2 N 0.6123(4) 0.7815(2) 0.1613(6)
C2 C 0.4224(6) 0.7248(3) 0.0967(7)
N3 N 0.8088(5) 0.7482(2) 0.0632(6)
H3 H 0.8068 0.7745 0.1119
C3 C 1.0722(7) 0.8784(3) 0.0308(8)
H4 H 1.1495 0.8862 0.0410
H5 H 1.0354 0.9056 -0.0193
N4 N 0.6575(5) 0.9541(2) 0.0680(6)
C4 C 0.6139(6) 0.7385(3) 0.0844(6)
N5 N 0.9392(5) 0.9019(2) 0.3873(6)
N6 N 1.0337(5) 0.8783(2) 0.1556(6)
H6 H 0.9655 0.8734 0.1609
C5 C 0.6965(6) 0.9351(3) -0.1582(7)
C6 C 0.6025(6) 1.0367(3) 0.1306(7)
N7 N 0.9408(5) 0.8184(2) -0.0823(6)
C7 C 1.0762(7) 0.9392(3) 0.5906(8)
C8 C 0.4198(6) 0.7679(3) 0.1751(7)
C9 C 1.1007(6) 0.8854(3) 0.2633(8)
C10 C 0.8933(6) 0.9255(3) 0.4826(7)
C11 C 0.9107(6) 0.7347(3) 0.0133(7)
H7 H 0.9118 0.6982 -0.0026
H8 H 0.9714 0.7427 0.0766
C12 C 0.5663(6) 1.0700(3) 0.2195(8)
H9 H 0.5540 1.0580 0.2996
C13 C 0.6240(6) 0.9850(3) 0.1612(7)
C14 C 1.0518(7) 0.8988(3) 0.3830(8)
C15 C 0.3255(6) 0.7820(3) 0.2269(8)
H10 H 0.3248 0.8103 0.2801
C16 C 0.6686(6) 0.9707(3) -0.0540(7)
C17 C 0.9900(8) 0.9897(3) 0.7855(8)
H11 H 0.9617 1.0066 0.8520
C18 C 0.6195(6) 1.0556(3) 0.0085(7)
C19 C 0.2334(7) 0.7532(3) 0.1975(8)
H12 H 0.1693 0.7622 0.2308
C20 C 0.7780(7) 0.8548(3) -0.2129(7)
H13 H 0.7548 0.8664 -0.2989
H14 H 0.7437 0.8221 -0.2013
C21 C 0.9646(6) 0.9460(3) 0.5858(7)
C22 C 0.2344(7) 0.7105(3) 0.1186(8)
H15 H 0.1711 0.6914 0.1000
C23 C 0.3253(6) 0.6967(3) 0.0693(7)
H16 H 0.3244 0.6682 0.0164
C24 C 0.9243(6) 0.7626(3) -0.1068(8)
H17 H 0.8602 0.7576 -0.1672
H18 H 0.9866 0.7489 -0.1440
C25 C 0.9008(7) 0.8480(3) -0.1974(7)
H19 H 0.9221 0.8305 -0.2719
H20 H 0.9352 0.8813 -0.1930
C26 C 1.0553(6) 0.8291(3) -0.0426(8)
H21 H 1.0941 0.8309 -0.1176
H22 H 1.0860 0.8012 0.0100
C27 C 0.5180(6) 0.7976(3) 0.2068(7)
C28 C 1.1451(7) 0.9567(3) 0.6941(8)
H23 H 1.2197 0.9511 0.6984
C29 C 0.6513(6) 1.0212(3) -0.0819(7)
H24 H 0.6609 1.0330 -0.1630
C30 C 0.9209(7) 0.9722(3) 0.6843(8)
H25 H 0.8462 0.9776 0.6810
C31 C 0.5211(6) 0.7124(3) 0.0517(7)
H26 H 0.5229 0.6848 -0.0035
C32 C 1.1021(9) 0.9824(4) 0.7900(9)
H27 H 1.1481 0.9951 0.8584
C33 C 1.1182(7) 0.9158(3) 0.4837(9)
H28 H 1.1932 0.9123 0.4839
C34 C 0.6039(7) 1.1076(3) -0.0164(8)
H29 H 0.6165 1.1208 -0.0952
C35 C 0.5698(7) 1.1393(3) 0.0752(8)
H30 H 0.5613 1.1741 0.0584
O11 O 0.7179(4) 0.68081(18) -0.0276(5)
C36 C 0.7189(6) 0.7206(3) 0.0345(7)
Ho1C Ho 0.68364(3) 0.616661(12) -0.18317(3)
O11C O 0.7179(4) 0.81919(18) 0.4724(5)
O10 O 0.3800(7) 0.9647(5) 0.4482(11)
loop_
_geom_bond_atom_site_label_1
_geom_bond_atom_site_label_2
_geom_bond_site_symmetry_1
_geom_bond_site_symmetry_2
Ho1 O1 1_555 1_555
C1 H1 1_555 1_555
O1 C27 1_555 1_555
O2 Ho1 1_555 1_555
O3 Ho1 1_555 1_555
O4 Ho1 1_555 1_555
O5 Ho1 1_555 1_555
O6 Ho1 1_555 1_555
O7 Ho1 1_555 1_555
O8 C9 1_555 1_555
O9 C5 1_555 1_555
N1 H2 1_555 1_555
N2 O2 1_555 1_555
C2 C8 1_555 1_555
N3 H3 1_555 1_555
C3 H4 1_555 1_555
H5 C3 1_555 1_555
N4 O4 1_555 1_555
C4 N2 1_555 1_555
N5 O3 1_555 1_555
N6 C3 1_555 1_555
H6 N6 1_555 1_555
C5 N1 1_555 1_555
C6 C12 1_555 1_555
N7 C24 1_555 1_555
C7 C21 1_555 1_555
C8 C15 1_555 1_555
C9 N6 1_555 1_555
C10 O7 1_555 1_555
C11 N3 1_555 1_555
H7 C11 1_555 1_555
H8 C11 1_555 1_555
C12 C1 1_555 1_555
H9 C12 1_555 1_555
C13 O6 1_555 1_555
C14 N5 1_555 1_555
C15 H10 1_555 1_555
C16 N4 1_555 1_555
C17 H11 1_555 1_555
C18 C6 1_555 1_555
C19 C15 1_555 1_555
H12 C19 1_555 1_555
C20 N1 1_555 1_555
H13 C20 1_555 1_555
H14 C20 1_555 1_555
C21 C10 1_555 1_555
C22 C19 1_555 1_555
H15 C22 1_555 1_555
C23 C2 1_555 1_555
H16 C23 1_555 1_555
C24 C11 1_555 1_555
H17 C24 1_555 1_555
H18 C24 1_555 1_555
C25 N7 1_555 1_555
H19 C25 1_555 1_555
H20 C25 1_555 1_555
C26 C3 1_555 1_555
H21 C26 1_555 1_555
H22 C26 1_555 1_555
C27 N2 1_555 1_555
C28 C7 1_555 1_555
H23 C28 1_555 1_555
C29 C16 1_555 1_555
H24 C29 1_555 1_555
C30 C17 1_555 1_555
H25 C30 1_555 1_555
C31 C2 1_555 1_555
H26 C31 1_555 1_555
C32 C17 1_555 1_555
H27 C32 1_555 1_555
C33 C7 1_555 1_555
H28 C33 1_555 1_555
C34 C18 1_555 1_555
H29 C34 1_555 1_555
C35 C1 1_555 1_555
H30 C35 1_555 1_555
O11 C36 1_555 1_555
C36 N3 1_555 1_555
Ho1C O11 1_555 1_555
O11C Ho1 1_555 1_555
N4 C13 1_555 1_555
C4 C31 1_555 1_555
C4 C36 1_555 1_555
N5 C10 1_555 1_555
C5 C16 1_555 1_555
C6 C13 1_555 1_555
N7 C26 1_555 1_555
C8 C27 1_555 1_555
C9 C14 1_555 1_555
C14 C33 1_555 1_555
C18 C29 1_555 1_555
C20 C25 1_555 1_555
C21 C30 1_555 1_555
C22 C23 1_555 1_555
C28 C32 1_555 1_555
C34 C35 1_555 1_555

#END
