
#######################################################################
#
#                 Cambridge Crystallographic Data Centre
#                                CCDC 
#
#######################################################################
#
# If this CIF has been generated from an entry in the Cambridge 
# Structural Database, then it will include bibliographic, chemical, 
# crystal, experimental, refinement or atomic coordinate data resulting 
# from the CCDC's data processing and validation procedures.
#
#######################################################################

data_HIPJUM
_symmetry_cell_setting           monoclinic
_symmetry_space_group_name_H-M   'P 21/c'
_symmetry_Int_Tables_number      14
_space_group_name_Hall           '-P 2ybc'
loop_
_symmetry_equiv_pos_site_id
_symmetry_equiv_pos_as_xyz
1 x,y,z
2 -x,1/2+y,1/2-z
3 -x,-y,-z
4 x,1/2-y,1/2+z
_cell_length_a                   12.417(2)
_cell_length_b                   26.193(4)
_cell_length_c                   10.5619(17)
_cell_angle_alpha                90
_cell_angle_beta                 96.436(4)
_cell_angle_gamma                90
_cell_volume                     3413.49
loop_
_atom_site_label
_atom_site_type_symbol
_atom_site_fract_x
_atom_site_fract_y
_atom_site_fract_z
Lu1 Lu 0.812053(15) 0.882161(7) 0.182863(18)
O1 O 0.8788(3) 0.96235(12) 0.2276(3)
O2 O 0.9720(2) 0.83958(12) 0.2288(3)
O3 O 0.7910(2) 0.80857(12) 0.2997(3)
O4 O 0.8158(3) 0.90308(12) 0.3942(3)
O5 O 0.9236(3) 0.90606(12) 0.0188(3)
O6 O 0.7094(3) 0.92651(13) 0.0257(3)
O7 O 0.6312(3) 0.87931(13) 0.2060(3)
N1 N 0.8835(3) 0.78188(14) 0.3382(4)
N2 N 0.5608(3) 0.90049(16) 0.1115(4)
O9 O 0.2985(4) 0.88615(18) 0.2295(5)
O10 O 0.8234(3) 0.94881(15) 0.7687(4)
C1 C 0.8816(4) 0.73922(17) 0.4166(4)
N3 N 0.4651(4) 0.87759(17) 0.3425(5)
H1 H 0.5328 0.8718 0.3384
N4 N 0.6874(3) 0.74801(15) 0.4371(4)
H2 H 0.6888 0.7743 0.3885
C2 C 1.0732(4) 0.72623(17) 0.4039(5)
N5 N 0.7562(4) 0.88982(16) 0.6221(4)
H3 H 0.7474 0.8819 0.5426
C3 C 0.4244(4) 0.9391(2) -0.0925(6)
N6 N 0.8398(3) 0.95228(14) 0.4287(4)
C4 C 1.0743(4) 0.76985(18) 0.3249(5)
N7 N 0.5560(3) 0.81826(16) 0.5819(4)
C5 C 0.5807(5) 0.97258(19) -0.1842(5)
H4 H 0.6549 0.9783 -0.1796
C6 C 0.8967(4) 1.03522(19) 0.3659(5)
C7 C 0.8502(4) 1.0194(2) 0.5794(5)
H5 H 0.8423 1.0313 0.6608
C8 C 0.5859(4) 0.73433(19) 0.4857(5)
H6 H 0.5853 0.6979 0.5027
H7 H 0.5258 0.7419 0.4216
C9 C 1.2607(4) 0.7115(2) 0.3799(6)
H8 H 1.3236 0.6924 0.3979
C10 C 0.4492(4) 0.8981(2) 0.1154(5)
C11 C 0.5365(4) 0.94546(18) -0.0865(5)
C12 C 0.9744(4) 0.71291(18) 0.4496(5)
H9 H 0.9730 0.6851 0.5043
C13 C 0.8309(4) 0.96931(19) 0.5523(5)
C14 C 1.1695(4) 0.7836(2) 0.2743(5)
H10 H 1.1707 0.8125 0.2234
C15 C 0.8820(4) 1.05394(19) 0.4872(5)
C16 C 0.9760(4) 0.79919(17) 0.2947(4)
C17 C 0.5714(4) 0.76290(19) 0.6052(5)
H11 H 0.5089 0.7494 0.6415
H12 H 0.6346 0.7577 0.6666
C18 C 0.6077(4) 0.92480(18) 0.0183(5)
C19 C 0.9004(5) 1.1062(2) 0.5137(6)
H13 H 0.8890 1.1194 0.5928
C20 C 0.7188(5) 0.8542(2) 0.7136(5)
H14 H 0.7411 0.8663 0.7993
H15 H 0.7524 0.8212 0.7041
C21 C 0.9321(4) 1.06781(19) 0.2751(5)
H16 H 0.9421 1.0553 0.1948
C22 C 0.5960(5) 0.8480(2) 0.6955(5)
H17 H 0.5733 0.8314 0.7701
H18 H 0.5629 0.8816 0.6892
C23 C 0.5116(5) 0.9905(2) -0.2873(6)
H19 H 0.5399 1.0077 -0.3531
C24 C 1.1703(4) 0.6980(2) 0.4305(5)
H20 H 1.1715 0.6696 0.4836
C25 C 0.8733(4) 0.98221(18) 0.3365(5)
C26 C 1.2608(4) 0.7546(2) 0.2997(6)
H21 H 1.3233 0.7632 0.2638
C27 C 0.3824(4) 0.9151(2) 0.0127(6)
H22 H 0.3079 0.9111 0.0113
C28 C 0.9352(5) 1.1374(2) 0.4224(6)
H23 H 0.9475 1.1718 0.4402
C29 C 0.8031(4) 0.9339(2) 0.6558(5)
C30 C 0.4423(4) 0.8295(2) 0.5412(6)
H24 H 0.4036 0.8315 0.6159
H25 H 0.4114 0.8016 0.4889
C31 C 0.4014(5) 0.9831(3) -0.2924(7)
H26 H 0.3561 0.9954 -0.3618
C32 C 0.3577(5) 0.9581(3) -0.1977(6)
H27 H 0.2830 0.9535 -0.2028
C33 C 0.9522(5) 1.1182(2) 0.3035(6)
H28 H 0.9773 1.1397 0.2430
C34 C 0.4247(5) 0.8789(2) 0.4665(6)
H29 H 0.3478 0.8865 0.4546
H30 H 0.4605 0.9065 0.5162
C35 C 0.3995(5) 0.8851(2) 0.2347(6)
O11 O 0.7798(3) 0.68135(12) 0.5289(3)
C36 C 0.7776(4) 0.72117(18) 0.4654(5)
Lu1C Lu 0.812053(15) 0.617839(7) 0.682863(18)
O11C O 0.7798(3) 0.81865(12) 0.0289(3)
O8 O 1.1198(5) 0.9586(4) 0.0684(8)
loop_
_geom_bond_atom_site_label_1
_geom_bond_atom_site_label_2
_geom_bond_site_symmetry_1
_geom_bond_site_symmetry_2
Lu1 O1 1_555 1_555
O1 C25 1_555 1_555
O2 Lu1 1_555 1_555
O3 Lu1 1_555 1_555
O4 Lu1 1_555 1_555
O5 Lu1 1_555 1_555
O6 Lu1 1_555 1_555
O7 Lu1 1_555 1_555
N1 O3 1_555 1_555
N2 O7 1_555 1_555
O9 C35 1_555 1_555
O10 C29 1_555 1_555
C1 N1 1_555 1_555
N3 H1 1_555 1_555
N4 H2 1_555 1_555
C2 C4 1_555 1_555
N5 H3 1_555 1_555
C3 C11 1_555 1_555
N6 O4 1_555 1_555
C4 C14 1_555 1_555
N7 C17 1_555 1_555
C5 H4 1_555 1_555
C6 C15 1_555 1_555
C7 H5 1_555 1_555
C8 N4 1_555 1_555
H6 C8 1_555 1_555
H7 C8 1_555 1_555
C9 H8 1_555 1_555
C10 N2 1_555 1_555
C11 C5 1_555 1_555
C12 C1 1_555 1_555
H9 C12 1_555 1_555
C13 N6 1_555 1_555
C14 H10 1_555 1_555
C15 C7 1_555 1_555
C16 O2 1_555 1_555
C17 C8 1_555 1_555
H11 C17 1_555 1_555
H12 C17 1_555 1_555
C18 O6 1_555 1_555
C19 C15 1_555 1_555
H13 C19 1_555 1_555
C20 N5 1_555 1_555
H14 C20 1_555 1_555
H15 C20 1_555 1_555
C21 C6 1_555 1_555
H16 C21 1_555 1_555
C22 N7 1_555 1_555
H17 C22 1_555 1_555
H18 C22 1_555 1_555
C23 C5 1_555 1_555
H19 C23 1_555 1_555
C24 C2 1_555 1_555
H20 C24 1_555 1_555
C25 N6 1_555 1_555
C26 C9 1_555 1_555
H21 C26 1_555 1_555
C27 C3 1_555 1_555
H22 C27 1_555 1_555
C28 C19 1_555 1_555
H23 C28 1_555 1_555
C29 N5 1_555 1_555
C30 N7 1_555 1_555
H24 C30 1_555 1_555
H25 C30 1_555 1_555
C31 C23 1_555 1_555
H26 C31 1_555 1_555
C32 C3 1_555 1_555
H27 C32 1_555 1_555
C33 C21 1_555 1_555
H28 C33 1_555 1_555
C34 N3 1_555 1_555
H29 C34 1_555 1_555
H30 C34 1_555 1_555
C35 N3 1_555 1_555
O11 C36 1_555 1_555
C36 C1 1_555 1_555
Lu1C O11 1_555 1_555
O11C Lu1 1_555 1_555
N1 C16 1_555 1_555
N2 C18 1_555 1_555
N4 C36 1_555 1_555
C2 C12 1_555 1_555
C4 C16 1_555 1_555
C6 C25 1_555 1_555
C7 C13 1_555 1_555
C9 C24 1_555 1_555
C10 C27 1_555 1_555
C10 C35 1_555 1_555
C11 C18 1_555 1_555
C13 C29 1_555 1_555
C14 C26 1_555 1_555
C20 C22 1_555 1_555
C28 C33 1_555 1_555
C30 C34 1_555 1_555
C31 C32 1_555 1_555

#END
