
#######################################################################
#
#                 Cambridge Crystallographic Data Centre
#                                CCDC 
#
#######################################################################
#
# If this CIF has been generated from an entry in the Cambridge 
# Structural Database, then it will include bibliographic, chemical, 
# crystal, experimental, refinement or atomic coordinate data resulting 
# from the CCDC's data processing and validation procedures.
#
#######################################################################

data_HIPKAT
_symmetry_cell_setting           monoclinic
_symmetry_space_group_name_H-M   'C 2/c'
_symmetry_Int_Tables_number      15
_space_group_name_Hall           '-C 2yn'
loop_
_symmetry_equiv_pos_site_id
_symmetry_equiv_pos_as_xyz
1 x,y,z
2 1/2+x,1/2+y,z
3 -x,y,1/2-z
4 1/2-x,1/2+y,1/2-z
5 -x,-y,-z
6 1/2-x,1/2-y,-z
7 x,-y,1/2+z
8 1/2+x,1/2-y,1/2+z
_cell_length_a                   23.100(5)
_cell_length_b                   11.865(3)
_cell_length_c                   17.365(4)
_cell_angle_alpha                90
_cell_angle_beta                 107.886(3)
_cell_angle_gamma                90
_cell_volume                     4529.4
loop_
_atom_site_label
_atom_site_type_symbol
_atom_site_fract_x
_atom_site_fract_y
_atom_site_fract_z
Ni1 Ni 0.387294(11) 0.52703(2) 0.018007(14)
O1 O 0.45036(6) 0.63630(12) -0.00316(8)
O2 O 0.41959(7) 0.66794(13) 0.10155(9)
O3 O 0.65937(7) 1.41857(14) 0.42781(9)
O4 O 0.55984(7) 1.41560(14) 0.38548(10)
O5 O 0.61937(9) 1.05326(16) 0.14871(12)
N1 N 0.38186(8) 0.42749(14) -0.08014(10)
N2 N 0.34676(8) 0.27075(18) -0.30566(11)
H1 H 0.3722(10) 0.286(2) -0.3301(14)
N3 N 0.18917(8) 0.11457(15) -0.45412(10)
C1 C 0.33824(10) 0.3493(2) -0.10451(13)
H2 H 0.3159 0.3309 -0.0700
C2 C 0.32473(10) 0.2948(2) -0.17741(13)
H3 H 0.2943 0.2404 -0.1910
C3 C 0.35673(9) 0.32139(18) -0.23110(12)
C4 C 0.40378(9) 0.39973(18) -0.20483(12)
H4 H 0.4277 0.4180 -0.2375
C5 C 0.41456(9) 0.44978(17) -0.13002(13)
H5 H 0.4461 0.5016 -0.1134
C6 C 0.24371(10) 0.09888(19) -0.46384(13)
H6 H 0.2464 0.0515 -0.5052
C7 C 0.29635(10) 0.14925(19) -0.41576(13)
H7 H 0.3332 0.1358 -0.4252
C8 C 0.29381(9) 0.22007(18) -0.35312(12)
C9 C 0.23666(11) 0.2396(2) -0.34535(15)
H8 H 0.2321 0.2893 -0.3062
C10 C 0.18685(10) 0.1854(2) -0.39564(15)
H9 H 0.1492 0.1989 -0.3885
C11 C 0.49346(9) 0.79448(17) 0.07913(11)
C12 C 0.49353(12) 0.8619(2) 0.14390(15)
H10 H 0.4658 0.8478 0.1718
C13 C 0.53414(13) 0.9503(2) 0.16796(16)
H11 H 0.5340 0.9950 0.2119
C14 C 0.57501(11) 0.97120(18) 0.12587(14)
C15 C 0.57452(10) 0.90710(19) 0.05943(13)
H12 H 0.6011 0.9235 0.0302
C16 C 0.53405(9) 0.81818(18) 0.03658(12)
H13 H 0.5340 0.7739 -0.0076
C17 C 0.61211(10) 1.29174(17) 0.32036(12)
C18 C 0.57069(10) 1.29558(19) 0.24312(13)
H14 H 0.5414 1.3521 0.2295
C19 C 0.57304(11) 1.2154(2) 0.18652(13)
H15 H 0.5460 1.2188 0.1344
C20 C 0.61525(11) 1.13095(19) 0.20730(14)
C21 C 0.65691(12) 1.1248(2) 0.28363(16)
H16 H 0.6853 1.0667 0.2972
C22 C 0.65555(11) 1.2074(2) 0.33974(14)
H17 H 0.6841 1.2060 0.3909
C23 C 0.45240(9) 0.69485(17) 0.05802(11)
C24 C 0.60959(10) 1.38025(18) 0.38100(12)
Ni1B Ni 0.612706(11) 1.52703(2) 0.481993(14)
Ni1C Ni 0.112706(11) 0.02703(2) -0.518007(14)
O3B O 0.34063(7) 0.41857(14) 0.07219(9)
O4B O 0.44016(7) 0.41560(14) 0.11452(10)
N3C N 0.31083(8) 0.61457(15) -0.04588(10)
O6 O 0.2457(5) 0.0471(9) -0.1688(7)
O7? O 0.2720(6) 0.0876(11) -0.0961(8)
loop_
_geom_bond_atom_site_label_1
_geom_bond_atom_site_label_2
_geom_bond_site_symmetry_1
_geom_bond_site_symmetry_2
Ni1 O1 1_555 1_555
O1 C23 1_555 1_555
O2 Ni1 1_555 1_555
O3 C24 1_555 1_555
O4 C24 1_555 1_555
O5 C14 1_555 1_555
N1 Ni1 1_555 1_555
N2 H1 1_555 1_555
N3 C6 1_555 1_555
C1 N1 1_555 1_555
H2 C1 1_555 1_555
C2 C1 1_555 1_555
H3 C2 1_555 1_555
C3 N2 1_555 1_555
C4 C3 1_555 1_555
H4 C4 1_555 1_555
C5 N1 1_555 1_555
H5 C5 1_555 1_555
C6 H6 1_555 1_555
C7 C6 1_555 1_555
H7 C7 1_555 1_555
C8 N2 1_555 1_555
C9 C8 1_555 1_555
H8 C9 1_555 1_555
C10 N3 1_555 1_555
H9 C10 1_555 1_555
C11 C12 1_555 1_555
C12 H10 1_555 1_555
C13 C12 1_555 1_555
H11 C13 1_555 1_555
C14 C13 1_555 1_555
C15 C14 1_555 1_555
H12 C15 1_555 1_555
C16 C11 1_555 1_555
H13 C16 1_555 1_555
C17 C18 1_555 1_555
C18 H14 1_555 1_555
C19 C18 1_555 1_555
H15 C19 1_555 1_555
C20 O5 1_555 1_555
C21 C20 1_555 1_555
H16 C21 1_555 1_555
C22 C17 1_555 1_555
H17 C22 1_555 1_555
C23 O2 1_555 1_555
C24 C17 1_555 1_555
Ni1B O3 1_555 1_555
Ni1C N3 1_555 1_555
O3B Ni1 1_555 1_555
O4B Ni1 1_555 1_555
N3C Ni1 1_555 1_555
O4 Ni1B 1_555 1_555
C2 C3 1_555 1_555
C4 C5 1_555 1_555
C7 C8 1_555 1_555
C9 C10 1_555 1_555
C11 C23 1_555 1_555
C15 C16 1_555 1_555
C19 C20 1_555 1_555
C21 C22 1_555 1_555

#END
