
#######################################################################
#
#                 Cambridge Crystallographic Data Centre
#                                CCDC 
#
#######################################################################
#
# If this CIF has been generated from an entry in the Cambridge 
# Structural Database, then it will include bibliographic, chemical, 
# crystal, experimental, refinement or atomic coordinate data resulting 
# from the CCDC's data processing and validation procedures.
#
#######################################################################

data_HIPLUP
_symmetry_cell_setting           triclinic
_symmetry_space_group_name_H-M   'P -1'
_symmetry_Int_Tables_number      2
_space_group_name_Hall           '-P 1'
loop_
_symmetry_equiv_pos_site_id
_symmetry_equiv_pos_as_xyz
1 x,y,z
2 -x,-y,-z
_cell_length_a                   5.9310(5)
_cell_length_b                   10.8092(10)
_cell_length_c                   13.7808(12)
_cell_angle_alpha                102.153(7)
_cell_angle_beta                 93.932(7)
_cell_angle_gamma                101.552(7)
_cell_volume                     840.509
loop_
_atom_site_label
_atom_site_type_symbol
_atom_site_fract_x
_atom_site_fract_y
_atom_site_fract_z
Y1 Y 0.39513(9) 0.25414(5) 0.51703(4)
O1 O 0.0887(6) 0.1062(4) 0.3932(3)
O2 O 0.4503(6) 0.1124(4) 0.3675(3)
O3 O -0.4547(6) -0.5440(4) -0.3668(3)
O4 O -0.2437(6) -0.3917(3) -0.4310(2)
O5 O 0.7101(6) 0.2148(4) 0.5980(3)
O6 O 1.0906(6) 0.2811(4) 0.6002(3)
O7 O 0.7205(8) 0.3620(4) 0.4444(3)
H1 H 0.7359 0.4409 0.4622
H2 H 0.808(16) 0.340(10) 0.429(8)
O8 O 0.2984(7) 0.0618(4) 0.5753(3)
H3 H 0.4146 0.0328 0.5823
H4 H 0.152(11) 0.003(7) 0.574(5)
N1 N 1.1735(8) 0.4650(5) 0.8987(3)
N2 N -0.1469(9) -0.1269(5) 0.1048(4)
N3 N 0.0772(8) -0.2231(5) -0.1322(3)
C1 C 0.2358(9) 0.0756(5) 0.3358(4)
C2 C 0.1627(9) -0.0001(5) 0.2302(4)
C3 C 0.3192(10) -0.0121(6) 0.1611(4)
H5 H 0.4752 0.0274 0.1793
C4 C 0.2438(9) -0.0819(5) 0.0664(4)
H6 H 0.3488 -0.0918 0.0198
C5 C 0.0129(10) -0.1379(5) 0.0394(4)
C6 C -0.0675(11) -0.0578(6) 0.1995(4)
H7 H -0.1735 -0.0491 0.2458
C7 C -0.0772(9) -0.2143(5) -0.0639(4)
C8 C -0.3043(10) -0.2709(5) -0.0871(4)
H8 H -0.4058 -0.2613 -0.0389
C9 C -0.3849(10) -0.3426(6) -0.1819(4)
H9 H -0.5409 -0.3829 -0.1980
C10 C -0.2352(9) -0.3548(5) -0.2528(4)
C11 C -0.0053(10) -0.2922(6) -0.2261(4)
H10 H 0.0965 -0.2977 -0.2744
C12 C -0.3173(9) -0.4365(5) -0.3582(4)
C13 C 0.9088(9) 0.2715(5) 0.6420(4)
C14 C 0.9301(9) 0.3327(5) 0.7518(4)
C15 C 0.7358(9) 0.3289(6) 0.8043(4)
H11 H 0.5904 0.2821 0.7734
C16 C 0.7644(9) 0.3958(6) 0.9027(4)
H12 H 0.6376 0.3956 0.9388
C17 C 0.9812(10) 0.4629(5) 0.9472(4)
C18 C 1.1413(9) 0.3999(6) 0.8022(4)
H13 H 1.2706 0.4005 0.7675
O5A O 1.2899(6) 0.7852(4) 1.4020(3)
O6A O 0.9094(6) 0.7189(4) 1.3998(3)
N1A N 0.8265(8) 0.5350(5) 1.1013(3)
C13A C 1.0912(9) 0.7285(5) 1.3580(4)
C14A C 1.0699(9) 0.6673(5) 1.2482(4)
C15A C 1.2642(9) 0.6711(6) 1.1957(4)
H11A H 1.4096 0.7179 1.2266
C16A C 1.2356(9) 0.6042(6) 1.0973(4)
H12A H 1.3624 0.6044 1.0612
C17A C 1.0188(10) 0.5371(5) 1.0528(4)
C18A C 0.8587(9) 0.6001(6) 1.1978(4)
H13A H 0.7294 0.5995 1.2325
Y1A Y -0.39513(9) -0.25414(5) -0.51703(4)
O1A O -0.0887(6) -0.1062(4) -0.3932(3)
O2A O -0.4503(6) -0.1124(4) -0.3675(3)
O3A O 0.4547(6) 0.5440(4) 0.3668(3)
O4A O 0.2437(6) 0.3917(3) 0.4310(2)
O7A O -0.7205(8) -0.3620(4) -0.4444(3)
H1A H -0.7359 -0.4409 -0.4622
H2A H -0.808(16) -0.340(10) -0.429(8)
O8A O -0.2984(7) -0.0618(4) -0.5753(3)
H3A H -0.4146 -0.0328 -0.5823
H4A H -0.152(11) -0.003(7) -0.574(5)
N2A N 0.1469(9) 0.1269(5) -0.1048(4)
N3A N -0.0772(8) 0.2231(5) 0.1322(3)
C1A C -0.2358(9) -0.0756(5) -0.3358(4)
C2A C -0.1627(9) 0.0001(5) -0.2302(4)
C3A C -0.3192(10) 0.0121(6) -0.1611(4)
H5A H -0.4752 -0.0274 -0.1793
C4A C -0.2438(9) 0.0819(5) -0.0664(4)
H6A H -0.3488 0.0918 -0.0198
C5A C -0.0129(10) 0.1379(5) -0.0394(4)
C6A C 0.0675(11) 0.0578(6) -0.1995(4)
H7A H 0.1735 0.0491 -0.2458
C7A C 0.0772(9) 0.2143(5) 0.0639(4)
C8A C 0.3043(10) 0.2709(5) 0.0871(4)
H8A H 0.4058 0.2613 0.0389
C9A C 0.3849(10) 0.3426(6) 0.1819(4)
H9A H 0.5409 0.3829 0.1980
C10A C 0.2352(9) 0.3548(5) 0.2528(4)
C11A C 0.0053(10) 0.2922(6) 0.2261(4)
H10A H -0.0965 0.2977 0.2744
C12A C 0.3173(9) 0.4365(5) 0.3582(4)
Y1_2 Y -0.60487(9) -0.74586(5) -0.48297(4)
Y1_3 Y 1.39513(9) 0.25414(5) 0.51703(4)
Y1A_2 Y 0.60487(9) 0.74586(5) 0.48297(4)
Y1A_3 Y 0.60487(9) 0.74586(5) 1.48297(4)
Y1A_4 Y 1.60487(9) 0.74586(5) 1.48297(4)
O3_2 O 0.5453(6) 0.4560(4) 0.6332(3)
O3A_2 O -0.5453(6) -0.4560(4) -0.6332(3)
O5A_2 O -0.7101(6) -0.2148(4) -0.5980(3)
O6_2 O 0.0906(6) 0.2811(4) 0.6002(3)
O6A_2 O -0.0906(6) -0.2811(4) -0.6002(3)
loop_
_geom_bond_atom_site_label_1
_geom_bond_atom_site_label_2
_geom_bond_site_symmetry_1
_geom_bond_site_symmetry_2
Y1 O1 1_555 1_555
O1 C1 1_555 1_555
O2 Y1 1_555 1_555
O3 C12 1_555 1_555
O4 C12 1_555 1_555
O5 Y1 1_555 1_555
O6 C13 1_555 1_555
O7 Y1 1_555 1_555
H1 O7 1_555 1_555
H2 O7 1_555 1_555
O8 Y1 1_555 1_555
H3 O8 1_555 1_555
H4 O8 1_555 1_555
N1 C17 1_555 1_555
N2 C5 1_555 1_555
N3 C7 1_555 1_555
C1 O2 1_555 1_555
C2 C1 1_555 1_555
C3 C2 1_555 1_555
H5 C3 1_555 1_555
C4 C3 1_555 1_555
H6 C4 1_555 1_555
C5 C4 1_555 1_555
C6 N2 1_555 1_555
H7 C6 1_555 1_555
C7 C5 1_555 1_555
C8 C7 1_555 1_555
H8 C8 1_555 1_555
C9 C8 1_555 1_555
H9 C9 1_555 1_555
C10 C9 1_555 1_555
C11 N3 1_555 1_555
H10 C11 1_555 1_555
C12 C10 1_555 1_555
C13 O5 1_555 1_555
C14 C13 1_555 1_555
C15 C14 1_555 1_555
H11 C15 1_555 1_555
C16 C15 1_555 1_555
H12 C16 1_555 1_555
C17 C16 1_555 1_555
C18 N1 1_555 1_555
H13 C18 1_555 1_555
O5A C13A 1_555 1_555
O6A C13A 1_555 1_555
N1A C17A 1_555 1_555
C13A C14A 1_555 1_555
C14A C15A 1_555 1_555
C15A H11A 1_555 1_555
C16A C15A 1_555 1_555
H12A C16A 1_555 1_555
C17A C17 1_555 1_555
C18A N1A 1_555 1_555
H13A C18A 1_555 1_555
Y1A O4 1_555 1_555
O1A Y1A 1_555 1_555
O2A Y1A 1_555 1_555
O3A C12A 1_555 1_555
O4A Y1 1_555 1_555
O7A Y1A 1_555 1_555
H1A O7A 1_555 1_555
H2A O7A 1_555 1_555
O8A Y1A 1_555 1_555
H3A O8A 1_555 1_555
H4A O8A 1_555 1_555
N2A C5A 1_555 1_555
N3A C7A 1_555 1_555
C1A O1A 1_555 1_555
C2A C1A 1_555 1_555
C3A C2A 1_555 1_555
H5A C3A 1_555 1_555
C4A C3A 1_555 1_555
H6A C4A 1_555 1_555
C5A C4A 1_555 1_555
C6A N2A 1_555 1_555
H7A C6A 1_555 1_555
C7A C5A 1_555 1_555
C8A C7A 1_555 1_555
H8A C8A 1_555 1_555
C9A C8A 1_555 1_555
H9A C9A 1_555 1_555
C10A C9A 1_555 1_555
C11A N3A 1_555 1_555
H10A C11A 1_555 1_555
C12A O4A 1_555 1_555
Y1_2 O3 1_555 1_555
Y1_3 O6 1_555 1_555
Y1A_2 O3A 1_555 1_555
Y1A_3 O6A 1_555 1_555
Y1A_4 O5A 1_555 1_555
O3_2 Y1 1_555 1_555
O3A_2 Y1A 1_555 1_555
O5A_2 Y1A 1_555 1_555
O6_2 Y1 1_555 1_555
O6A_2 Y1A 1_555 1_555
C2 C6 1_555 1_555
C10 C11 1_555 1_555
C14 C18 1_555 1_555
C14A C18A 1_555 1_555
C16A C17A 1_555 1_555
O2A C1A 1_555 1_555
C2A C6A 1_555 1_555
C10A C11A 1_555 1_555
C10A C12A 1_555 1_555

#END
