
#######################################################################
#
#                 Cambridge Crystallographic Data Centre
#                                CCDC 
#
#######################################################################
#
# If this CIF has been generated from an entry in the Cambridge 
# Structural Database, then it will include bibliographic, chemical, 
# crystal, experimental, refinement or atomic coordinate data resulting 
# from the CCDC's data processing and validation procedures.
#
#######################################################################

data_HIPMID01
_symmetry_cell_setting           monoclinic
_symmetry_space_group_name_H-M   'P 21/c'
_symmetry_Int_Tables_number      14
_space_group_name_Hall           '-P 2ybc'
loop_
_symmetry_equiv_pos_site_id
_symmetry_equiv_pos_as_xyz
1 x,y,z
2 -x,1/2+y,1/2-z
3 -x,-y,-z
4 x,1/2-y,1/2+z
_cell_length_a                   6.5462(3)
_cell_length_b                   14.4316(10)
_cell_length_c                   19.0146(10)
_cell_angle_alpha                90
_cell_angle_beta                 90.021(6)
_cell_angle_gamma                90
_cell_volume                     1796.35
loop_
_atom_site_label
_atom_site_type_symbol
_atom_site_fract_x
_atom_site_fract_y
_atom_site_fract_z
Zn1 Zn 1.15843(10) 0.26787(5) 0.91736(4)
Zn2 Zn 0.61041(9) 0.27138(5) 0.66947(4)
I1 I 1.35613(7) 0.14990(3) 0.84553(3)
I2 I 1.34511(9) 0.37722(4) 0.99668(3)
I3 I 0.74751(7) 0.10808(3) 0.67695(2)
I4 I 0.25184(6) 0.34214(3) 0.66059(2)
N1 N 0.9532(7) 0.3407(3) 0.8544(3)
N2 N 0.7376(8) 0.3442(3) 0.7557(3)
C1 C 0.8764(9) 0.3033(4) 0.7961(3)
H1 H 0.9232 0.2442 0.7828
C2 C 0.6726(10) 0.4287(5) 0.7753(4)
H2 H 0.5706 0.4585 0.7488
C3 C 0.7512(11) 0.4717(5) 0.8326(4)
H3 H 0.7109 0.5322 0.8445
C4 C 0.8893(10) 0.4253(5) 0.8720(4)
H4 H 0.9415 0.4534 0.9129
N3 N 0.7431(8) 0.1717(3) 1.0773(3)
N4 N 0.9368(7) 0.1897(4) 0.9744(3)
C5 C 0.8650(9) 0.2199(4) 1.0356(3)
H5 H 0.9035 0.2797 1.0502
C6 C 0.8802(9) 0.1063(4) 0.9523(4)
H6 H 0.9232 0.0852 0.9080
C7 C 0.7591(10) 0.0505(5) 0.9938(4)
H7 H 0.7228 -0.0096 0.9794
C8 C 0.6949(8) 0.0851(5) 1.0556(4)
H8 H 0.6136 0.0478 1.0849
Zn2C Zn 0.61041(9) 0.22862(5) 1.16947(4)
N3C N 0.7431(8) 0.3283(3) 0.5773(3)
loop_
_geom_bond_atom_site_label_1
_geom_bond_atom_site_label_2
_geom_bond_site_symmetry_1
_geom_bond_site_symmetry_2
Zn1 I1 1_555 1_555
Zn2 I3 1_555 1_555
I2 Zn1 1_555 1_555
I4 Zn2 1_555 1_555
N1 Zn1 1_555 1_555
N2 Zn2 1_555 1_555
C1 N1 1_555 1_555
H1 C1 1_555 1_555
C2 N2 1_555 1_555
H2 C2 1_555 1_555
C3 C2 1_555 1_555
H3 C3 1_555 1_555
C4 N1 1_555 1_555
H4 C4 1_555 1_555
N3 C5 1_555 1_555
N4 Zn1 1_555 1_555
C5 N4 1_555 1_555
H5 C5 1_555 1_555
C6 N4 1_555 1_555
H6 C6 1_555 1_555
C7 C6 1_555 1_555
H7 C7 1_555 1_555
C8 N3 1_555 1_555
H8 C8 1_555 1_555
Zn2C N3 1_555 1_555
N3C Zn2 1_555 1_555
N2 C1 1_555 1_555
C3 C4 1_555 1_555
C7 C8 1_555 1_555

#END
