
#######################################################################
#
#                 Cambridge Crystallographic Data Centre
#                                CCDC 
#
#######################################################################
#
# If this CIF has been generated from an entry in the Cambridge 
# Structural Database, then it will include bibliographic, chemical, 
# crystal, experimental, refinement or atomic coordinate data resulting 
# from the CCDC's data processing and validation procedures.
#
#######################################################################

data_HIPMAW
_symmetry_cell_setting           triclinic
_symmetry_space_group_name_H-M   'P -1'
_symmetry_Int_Tables_number      2
_space_group_name_Hall           '-P 1'
loop_
_symmetry_equiv_pos_site_id
_symmetry_equiv_pos_as_xyz
1 x,y,z
2 -x,-y,-z
_cell_length_a                   5.9877(9)
_cell_length_b                   10.8829(15)
_cell_length_c                   13.822(2)
_cell_angle_alpha                102.111(3)
_cell_angle_beta                 93.686(3)
_cell_angle_gamma                101.147(3)
_cell_volume                     858.853
loop_
_atom_site_label
_atom_site_type_symbol
_atom_site_fract_x
_atom_site_fract_y
_atom_site_fract_z
Sm1 Sm 0.10649(6) 0.24702(4) 0.48269(3)
O1 O 0.0506(8) 0.3882(4) 0.6379(3)
O2 O 0.4092(8) 0.3970(4) 0.6098(3)
O3 O -0.5801(8) 0.2181(5) 0.3989(3)
O4 O 0.7395(8) 0.8937(4) 1.4288(3)
O5 O 0.9556(8) 1.0410(4) 1.3642(3)
O6 O -0.2092(4) 0.2878(2) 0.39772(19)
O7 O 0.2062(4) 0.4444(2) 0.42286(19)
H1 H 0.3435 0.4811 0.4197
H2 H 0.2062 0.5091 0.4696
O8 O -0.2305(4) 0.1362(2) 0.55332(19)
H3 H -0.2704 0.0636 0.5125
H4 H -0.3541 0.1554 0.5724
N1 N 0.4219(10) 0.7233(6) 1.1328(4)
N2 N 0.6419(11) 0.6256(6) 0.8952(4)
N3 N -0.6664(9) 0.0344(6) 0.1025(4)
C1 C 0.8171(11) 0.9375(6) 1.3556(5)
C2 C 0.7308(12) 0.8558(6) 1.2520(5)
C3 C 0.8802(13) 0.8440(7) 1.1799(5)
H5 H 1.0337 0.8849 1.1949
C4 C 0.7996(12) 0.7715(6) 1.0859(5)
H6 H 0.8995 0.7610 1.0374
C5 C 0.5733(12) 0.7149(6) 1.0637(5)
C6 C 0.5024(12) 0.7925(7) 1.2263(5)
H7 H 0.4018 0.7980 1.2748
C7 C 0.4862(12) 0.6375(6) 0.9625(5)
C8 C 0.5664(13) 0.5567(7) 0.8021(5)
H8 H 0.6725 0.5458 0.7565
C9 C 0.2608(11) 0.5834(6) 0.9368(5)
H9 H 0.1581 0.5931 0.9841
C10 C 0.1840(13) 0.5152(7) 0.8429(5)
H10 H 0.0293 0.4775 0.8261
C11 C 0.3372(13) 0.5014(6) 0.7711(5)
C12 C -0.4047(12) 0.2302(6) 0.3549(5)
C13 C -0.4243(11) 0.1682(6) 0.2472(5)
C14 C -0.2364(11) 0.1718(6) 0.1922(5)
H11 H -0.0928 0.2198 0.2210
C15 C -0.2667(11) 0.1036(6) 0.0948(5)
H12 H -0.1419 0.1024 0.0581
C16 C -0.4798(12) 0.0374(6) 0.0521(5)
C17 C -0.6333(12) 0.0997(7) 0.1976(5)
H13 H -0.7605 0.0990 0.2329
C18 C 0.2617(13) 0.4246(7) 0.6668(5)
O3A O -0.4199(8) -0.2181(5) -0.3989(3)
O6A O -0.7908(4) -0.2878(2) -0.39772(19)
N3A N -0.3336(9) -0.0344(6) -0.1025(4)
C12A C -0.5953(12) -0.2302(6) -0.3549(5)
C13A C -0.5757(11) -0.1682(6) -0.2472(5)
C14A C -0.7636(11) -0.1718(6) -0.1922(5)
H11A H -0.9072 -0.2198 -0.2210
C15A C -0.7333(11) -0.1036(6) -0.0948(5)
H12A H -0.8581 -0.1024 -0.0581
C16A C -0.5202(12) -0.0374(6) -0.0521(5)
C17A C -0.3667(12) -0.0997(7) -0.1976(5)
H13A H -0.2395 -0.0990 -0.2329
Sm1A Sm -1.10649(6) -0.24702(4) -0.48269(3)
O1A O -1.0506(8) -0.3882(4) -0.6379(3)
O2A O -1.4092(8) -0.3970(4) -0.6098(3)
O4A O -1.7395(8) -0.8937(4) -1.4288(3)
O5A O -1.9556(8) -1.0410(4) -1.3642(3)
O7A O -1.2062(4) -0.4444(2) -0.42286(19)
H1A H -1.3435 -0.4811 -0.4197
H2A H -1.2062 -0.5091 -0.4696
O8A O -0.7695(4) -0.1362(2) -0.55332(19)
H3A H -0.7296 -0.0636 -0.5125
H4A H -0.6459 -0.1554 -0.5724
N1A N -1.4219(10) -0.7233(6) -1.1328(4)
N2A N -1.6419(11) -0.6256(6) -0.8952(4)
C1A C -1.8171(11) -0.9375(6) -1.3556(5)
C2A C -1.7308(12) -0.8558(6) -1.2520(5)
C3A C -1.8802(13) -0.8440(7) -1.1799(5)
H5A H -2.0337 -0.8849 -1.1949
C4A C -1.7996(12) -0.7715(6) -1.0859(5)
H6A H -1.8995 -0.7610 -1.0374
C5A C -1.5733(12) -0.7149(6) -1.0637(5)
C6A C -1.5024(12) -0.7925(7) -1.2263(5)
H7A H -1.4018 -0.7980 -1.2748
C7A C -1.4862(12) -0.6375(6) -0.9625(5)
C8A C -1.5664(13) -0.5567(7) -0.8021(5)
H8A H -1.6725 -0.5458 -0.7565
C9A C -1.2608(11) -0.5834(6) -0.9368(5)
H9A H -1.1581 -0.5931 -0.9841
C10A C -1.1840(13) -0.5152(7) -0.8429(5)
H10A H -1.0293 -0.4775 -0.8261
C11A C -1.3372(13) -0.5014(6) -0.7711(5)
C18A C -1.2617(13) -0.4246(7) -0.6668(5)
Sm1_2 Sm -1.89351(6) -0.75298(4) -1.51731(3)
Sm1_3 Sm -0.89351(6) 0.24702(4) 0.48269(3)
Sm1_4 Sm 1.10649(6) 1.24702(4) 1.48269(3)
Sm1A_2 Sm -2.10649(6) -1.24702(4) -1.48269(3)
Sm1A_3 Sm -0.10649(6) -0.24702(4) -0.48269(3)
Sm1A_4 Sm 0.89351(6) 0.75298(4) 1.51731(3)
O3_2 O 0.4199(8) 0.2181(5) 0.3989(3)
O3A_2 O -1.4199(8) -0.2181(5) -0.3989(3)
O4_2 O -1.2605(8) -0.1063(4) -0.5712(3)
O4A_2 O 0.2605(8) 0.1063(4) 0.5712(3)
O5_2 O -0.0444(8) 0.0410(4) 0.3642(3)
O5A_2 O -0.9556(8) -0.0410(4) -0.3642(3)
loop_
_geom_bond_atom_site_label_1
_geom_bond_atom_site_label_2
_geom_bond_site_symmetry_1
_geom_bond_site_symmetry_2
Sm1 O1 1_555 1_555
O1 C18 1_555 1_555
O2 Sm1 1_555 1_555
O3 C12 1_555 1_555
O4 C1 1_555 1_555
O5 C1 1_555 1_555
O6 Sm1 1_555 1_555
O7 Sm1 1_555 1_555
H1 O7 1_555 1_555
H2 O7 1_555 1_555
O8 Sm1 1_555 1_555
H3 O8 1_555 1_555
H4 O8 1_555 1_555
N1 C5 1_555 1_555
N2 C7 1_555 1_555
N3 C16 1_555 1_555
C1 C2 1_555 1_555
C2 C3 1_555 1_555
C3 H5 1_555 1_555
C4 C3 1_555 1_555
H6 C4 1_555 1_555
C5 C4 1_555 1_555
C6 N1 1_555 1_555
H7 C6 1_555 1_555
C7 C5 1_555 1_555
C8 N2 1_555 1_555
H8 C8 1_555 1_555
C9 C7 1_555 1_555
H9 C9 1_555 1_555
C10 C9 1_555 1_555
H10 C10 1_555 1_555
C11 C8 1_555 1_555
C12 O6 1_555 1_555
C13 C12 1_555 1_555
C14 C13 1_555 1_555
H11 C14 1_555 1_555
C15 C14 1_555 1_555
H12 C15 1_555 1_555
C16 C15 1_555 1_555
C17 N3 1_555 1_555
H13 C17 1_555 1_555
C18 O2 1_555 1_555
O3A C12A 1_555 1_555
O6A C12A 1_555 1_555
N3A C16A 1_555 1_555
C12A C13A 1_555 1_555
C13A C14A 1_555 1_555
C14A H11A 1_555 1_555
C15A C14A 1_555 1_555
H12A C15A 1_555 1_555
C16A C16 1_555 1_555
C17A N3A 1_555 1_555
H13A C17A 1_555 1_555
Sm1A O6A 1_555 1_555
O1A Sm1A 1_555 1_555
O2A Sm1A 1_555 1_555
O4A C1A 1_555 1_555
O5A C1A 1_555 1_555
O7A Sm1A 1_555 1_555
H1A O7A 1_555 1_555
H2A O7A 1_555 1_555
O8A Sm1A 1_555 1_555
H3A O8A 1_555 1_555
H4A O8A 1_555 1_555
N1A C5A 1_555 1_555
N2A C7A 1_555 1_555
C1A C2A 1_555 1_555
C2A C3A 1_555 1_555
C3A H5A 1_555 1_555
C4A C3A 1_555 1_555
H6A C4A 1_555 1_555
C5A C4A 1_555 1_555
C6A N1A 1_555 1_555
H7A C6A 1_555 1_555
C7A C5A 1_555 1_555
C8A N2A 1_555 1_555
H8A C8A 1_555 1_555
C9A C7A 1_555 1_555
H9A C9A 1_555 1_555
C10A C9A 1_555 1_555
H10A C10A 1_555 1_555
C11A C8A 1_555 1_555
C18A O1A 1_555 1_555
Sm1_2 O4A 1_555 1_555
Sm1_3 O3 1_555 1_555
Sm1_4 O5 1_555 1_555
Sm1A_2 O5A 1_555 1_555
Sm1A_3 O3A 1_555 1_555
Sm1A_4 O4 1_555 1_555
O3_2 Sm1 1_555 1_555
O3A_2 Sm1A 1_555 1_555
O4_2 Sm1A 1_555 1_555
O4A_2 Sm1 1_555 1_555
O5_2 Sm1 1_555 1_555
O5A_2 Sm1A 1_555 1_555
C2 C6 1_555 1_555
C10 C11 1_555 1_555
C11 C18 1_555 1_555
C13 C17 1_555 1_555
C13A C17A 1_555 1_555
C15A C16A 1_555 1_555
O2A C18A 1_555 1_555
C2A C6A 1_555 1_555
C10A C11A 1_555 1_555
C11A C18A 1_555 1_555

#END
