
#######################################################################
#
#                 Cambridge Crystallographic Data Centre
#                                CCDC 
#
#######################################################################
#
# If this CIF has been generated from an entry in the Cambridge 
# Structural Database, then it will include bibliographic, chemical, 
# crystal, experimental, refinement or atomic coordinate data resulting 
# from the CCDC's data processing and validation procedures.
#
#######################################################################

data_HIPMOK
_symmetry_cell_setting           triclinic
_symmetry_space_group_name_H-M   'P -1'
_symmetry_Int_Tables_number      2
_space_group_name_Hall           '-P 1'
loop_
_symmetry_equiv_pos_site_id
_symmetry_equiv_pos_as_xyz
1 x,y,z
2 -x,-y,-z
_cell_length_a                   5.9529(12)
_cell_length_b                   10.838(2)
_cell_length_c                   13.781(3)
_cell_angle_alpha                102.068(4)
_cell_angle_beta                 93.942(4)
_cell_angle_gamma                101.403(4)
_cell_volume                     846.666
loop_
_atom_site_label
_atom_site_type_symbol
_atom_site_fract_x
_atom_site_fract_y
_atom_site_fract_z
Tb1 Tb 0.39450(6) 0.25373(3) 0.51729(2)
O1 O 0.0901(8) 0.1055(4) 0.3915(3)
O2 O 0.4522(8) 0.1124(4) 0.3659(3)
O3 O -0.4547(8) -0.5428(4) -0.3652(3)
O4 O -0.2410(8) -0.3923(4) -0.4305(3)
O5 O 0.7102(7) 0.2138(4) 0.6002(3)
O6 O 1.0859(8) 0.2812(5) 0.6001(3)
O7 O 0.7233(8) 0.3628(4) 0.4469(3)
H1 H 0.8094 0.3369 0.4038
H2 H 0.7561 0.4445 0.4548
O8 O 0.2983(8) 0.0606(4) 0.5759(4)
H3 H 0.1573 0.0266 0.5769
H4 H 0.3480 0.0015 0.5969
N1 N -0.1435(11) -0.1261(6) 0.1044(4)
N2 N 0.0775(10) -0.2229(6) -0.1323(4)
N3 N 1.1706(10) 0.4651(6) 0.8984(4)
C1 C 0.2385(13) 0.0768(6) 0.3351(5)
C2 C 0.1647(12) -0.0013(6) 0.2294(5)
C3 C 0.3191(13) -0.0130(7) 0.1611(5)
H5 H 0.4746 0.0254 0.1795
C4 C 0.2438(12) -0.0817(7) 0.0651(5)
H6 H 0.3474 -0.0902 0.0179
C5 C 0.0139(13) -0.1376(6) 0.0396(5)
C6 C -0.0664(13) -0.0568(7) 0.1988(5)
H7 H -0.1725 -0.0462 0.2447
C7 C -0.0732(12) -0.2141(6) -0.0632(5)
C8 C -0.3042(12) -0.2715(6) -0.0875(5)
H8 H -0.4063 -0.2615 -0.0398
C9 C -0.3823(13) -0.3433(7) -0.1821(5)
H9 H -0.5371 -0.3845 -0.1982
C10 C -0.2327(12) -0.3549(6) -0.2537(5)
C11 C -0.0050(13) -0.2912(7) -0.2252(5)
H10 H 0.0972 -0.2959 -0.2732
C12 C -0.3186(12) -0.4368(7) -0.3571(5)
C13 C 0.9069(12) 0.2707(6) 0.6437(5)
C14 C 0.9295(11) 0.3337(6) 0.7528(5)
C15 C 0.7402(12) 0.3285(6) 0.8059(5)
H11 H 0.5961 0.2804 0.7756
C16 C 0.7670(12) 0.3949(7) 0.9037(5)
H12 H 0.6411 0.3936 0.9402
C17 C 0.9824(12) 0.4632(6) 0.9471(5)
C18 C 1.1412(13) 0.4016(7) 0.8022(5)
H13 H 1.2696 0.4035 0.7672
O5A O 1.2898(7) 0.7862(4) 1.3998(3)
O6A O 0.9141(8) 0.7188(5) 1.3999(3)
N3A N 0.8294(10) 0.5349(6) 1.1016(4)
C13A C 1.0931(12) 0.7293(6) 1.3563(5)
C14A C 1.0705(11) 0.6663(6) 1.2472(5)
C15A C 1.2598(12) 0.6715(6) 1.1941(5)
H11A H 1.4039 0.7196 1.2244
C16A C 1.2330(12) 0.6051(7) 1.0963(5)
H12A H 1.3589 0.6064 1.0598
C17A C 1.0176(12) 0.5368(6) 1.0529(5)
C18A C 0.8588(13) 0.5984(7) 1.1978(5)
H13A H 0.7304 0.5965 1.2328
Tb1A Tb -0.39450(6) -0.25373(3) -0.51729(2)
O1A O -0.0901(8) -0.1055(4) -0.3915(3)
O2A O -0.4522(8) -0.1124(4) -0.3659(3)
O3A O 0.4547(8) 0.5428(4) 0.3652(3)
O4A O 0.2410(8) 0.3923(4) 0.4305(3)
O7A O -0.7233(8) -0.3628(4) -0.4469(3)
H1A H -0.8094 -0.3369 -0.4038
H2A H -0.7561 -0.4445 -0.4548
O8A O -0.2983(8) -0.0606(4) -0.5759(4)
H3A H -0.1573 -0.0266 -0.5769
H4A H -0.3480 -0.0015 -0.5969
N1A N 0.1435(11) 0.1261(6) -0.1044(4)
N2A N -0.0775(10) 0.2229(6) 0.1323(4)
C1A C -0.2385(13) -0.0768(6) -0.3351(5)
C2A C -0.1647(12) 0.0013(6) -0.2294(5)
C3A C -0.3191(13) 0.0130(7) -0.1611(5)
H5A H -0.4746 -0.0254 -0.1795
C4A C -0.2438(12) 0.0817(7) -0.0651(5)
H6A H -0.3474 0.0902 -0.0179
C5A C -0.0139(13) 0.1376(6) -0.0396(5)
C6A C 0.0664(13) 0.0568(7) -0.1988(5)
H7A H 0.1725 0.0462 -0.2447
C7A C 0.0732(12) 0.2141(6) 0.0632(5)
C8A C 0.3042(12) 0.2715(6) 0.0875(5)
H8A H 0.4063 0.2615 0.0398
C9A C 0.3823(13) 0.3433(7) 0.1821(5)
H9A H 0.5371 0.3845 0.1982
C10A C 0.2327(12) 0.3549(6) 0.2537(5)
C11A C 0.0050(13) 0.2912(7) 0.2252(5)
H10A H -0.0972 0.2959 0.2732
C12A C 0.3186(12) 0.4368(7) 0.3571(5)
Tb1_2 Tb -0.60550(6) -0.74627(3) -0.48271(2)
Tb1_3 Tb 1.39450(6) 0.25373(3) 0.51729(2)
Tb1A_2 Tb 0.60550(6) 0.74627(3) 0.48271(2)
Tb1A_3 Tb 0.60550(6) 0.74627(3) 1.48271(2)
Tb1A_4 Tb 1.60550(6) 0.74627(3) 1.48271(2)
O3_2 O 0.5453(8) 0.4572(4) 0.6348(3)
O3A_2 O -0.5453(8) -0.4572(4) -0.6348(3)
O5A_2 O -0.7102(7) -0.2138(4) -0.6002(3)
O6_2 O 0.0859(8) 0.2812(5) 0.6001(3)
O6A_2 O -0.0859(8) -0.2812(5) -0.6001(3)
loop_
_geom_bond_atom_site_label_1
_geom_bond_atom_site_label_2
_geom_bond_site_symmetry_1
_geom_bond_site_symmetry_2
Tb1 O1 1_555 1_555
O1 C1 1_555 1_555
O2 Tb1 1_555 1_555
O3 C12 1_555 1_555
O4 C12 1_555 1_555
O5 Tb1 1_555 1_555
O6 C13 1_555 1_555
O7 Tb1 1_555 1_555
H1 O7 1_555 1_555
H2 O7 1_555 1_555
O8 Tb1 1_555 1_555
H3 O8 1_555 1_555
H4 O8 1_555 1_555
N1 C5 1_555 1_555
N2 C7 1_555 1_555
N3 C17 1_555 1_555
C1 O2 1_555 1_555
C2 C1 1_555 1_555
C3 C2 1_555 1_555
H5 C3 1_555 1_555
C4 C3 1_555 1_555
H6 C4 1_555 1_555
C5 C4 1_555 1_555
C6 N1 1_555 1_555
H7 C6 1_555 1_555
C7 C5 1_555 1_555
C8 C7 1_555 1_555
H8 C8 1_555 1_555
C9 C8 1_555 1_555
H9 C9 1_555 1_555
C10 C9 1_555 1_555
C11 N2 1_555 1_555
H10 C11 1_555 1_555
C12 C10 1_555 1_555
C13 O5 1_555 1_555
C14 C13 1_555 1_555
C15 C14 1_555 1_555
H11 C15 1_555 1_555
C16 C15 1_555 1_555
H12 C16 1_555 1_555
C17 C16 1_555 1_555
C18 N3 1_555 1_555
H13 C18 1_555 1_555
O5A C13A 1_555 1_555
O6A C13A 1_555 1_555
N3A C17A 1_555 1_555
C13A C14A 1_555 1_555
C14A C15A 1_555 1_555
C15A H11A 1_555 1_555
C16A C15A 1_555 1_555
H12A C16A 1_555 1_555
C17A C17 1_555 1_555
C18A N3A 1_555 1_555
H13A C18A 1_555 1_555
Tb1A O4 1_555 1_555
O1A Tb1A 1_555 1_555
O2A Tb1A 1_555 1_555
O3A C12A 1_555 1_555
O4A Tb1 1_555 1_555
O7A Tb1A 1_555 1_555
H1A O7A 1_555 1_555
H2A O7A 1_555 1_555
O8A Tb1A 1_555 1_555
H3A O8A 1_555 1_555
H4A O8A 1_555 1_555
N1A C5A 1_555 1_555
N2A C7A 1_555 1_555
C1A O1A 1_555 1_555
C2A C1A 1_555 1_555
C3A C2A 1_555 1_555
H5A C3A 1_555 1_555
C4A C3A 1_555 1_555
H6A C4A 1_555 1_555
C5A C4A 1_555 1_555
C6A N1A 1_555 1_555
H7A C6A 1_555 1_555
C7A C5A 1_555 1_555
C8A C7A 1_555 1_555
H8A C8A 1_555 1_555
C9A C8A 1_555 1_555
H9A C9A 1_555 1_555
C10A C9A 1_555 1_555
C11A N2A 1_555 1_555
H10A C11A 1_555 1_555
C12A O4A 1_555 1_555
Tb1_2 O3 1_555 1_555
Tb1_3 O6 1_555 1_555
Tb1A_2 O3A 1_555 1_555
Tb1A_3 O6A 1_555 1_555
Tb1A_4 O5A 1_555 1_555
O3_2 Tb1 1_555 1_555
O3A_2 Tb1A 1_555 1_555
O5A_2 Tb1A 1_555 1_555
O6_2 Tb1 1_555 1_555
O6A_2 Tb1A 1_555 1_555
C2 C6 1_555 1_555
C10 C11 1_555 1_555
C14 C18 1_555 1_555
C14A C18A 1_555 1_555
C16A C17A 1_555 1_555
O2A C1A 1_555 1_555
C2A C6A 1_555 1_555
C10A C11A 1_555 1_555
C10A C12A 1_555 1_555

#END
