
#######################################################################
#
#                 Cambridge Crystallographic Data Centre
#                                CCDC 
#
#######################################################################
#
# If this CIF has been generated from an entry in the Cambridge 
# Structural Database, then it will include bibliographic, chemical, 
# crystal, experimental, refinement or atomic coordinate data resulting 
# from the CCDC's data processing and validation procedures.
#
#######################################################################

data_HIPMID
_symmetry_cell_setting           monoclinic
_symmetry_space_group_name_H-M   'P 21/c'
_symmetry_Int_Tables_number      14
_space_group_name_Hall           '-P 2ybc'
loop_
_symmetry_equiv_pos_site_id
_symmetry_equiv_pos_as_xyz
1 x,y,z
2 -x,1/2+y,1/2-z
3 -x,-y,-z
4 x,1/2-y,1/2+z
_cell_length_a                   7.5576(5)
_cell_length_b                   13.5380(8)
_cell_length_c                   9.6246(8)
_cell_angle_alpha                90
_cell_angle_beta                 112.310(8)
_cell_angle_gamma                90
_cell_volume                     911.025
loop_
_atom_site_label
_atom_site_type_symbol
_atom_site_fract_x
_atom_site_fract_y
_atom_site_fract_z
Zn1 Zn 0.51054(8) 0.38029(3) 0.28303(6)
I1 I 0.65961(5) 0.54153(2) 0.25242(4)
I2 I 0.15403(5) 0.35255(3) 0.19401(4)
N1 N 0.6286(6) 0.3438(2) 0.5133(4)
C1 C 0.5581(7) 0.2692(3) 0.5678(5)
H1 H 0.4492 0.2373 0.5027
N2 N 0.6339(5) 0.2377(2) 0.7096(4)
C2 C 0.7875(7) 0.2847(3) 0.8017(5)
H2 H 0.8454 0.2625 0.9001
C3 C 0.8644(7) 0.3649(4) 0.7575(5)
H3 H 0.9683 0.3993 0.8247
C4 C 0.7803(7) 0.3920(3) 0.6089(5)
H4 H 0.8302 0.4450 0.5742
Zn1C Zn 0.51054(8) 0.11971(3) 0.78303(6)
N2C N 0.6339(5) 0.2623(2) 0.2096(4)
loop_
_geom_bond_atom_site_label_1
_geom_bond_atom_site_label_2
_geom_bond_site_symmetry_1
_geom_bond_site_symmetry_2
Zn1 I1 1_555 1_555
I2 Zn1 1_555 1_555
N1 Zn1 1_555 1_555
C1 N1 1_555 1_555
H1 C1 1_555 1_555
N2 C1 1_555 1_555
C2 N2 1_555 1_555
H2 C2 1_555 1_555
C3 C2 1_555 1_555
H3 C3 1_555 1_555
C4 N1 1_555 1_555
H4 C4 1_555 1_555
Zn1C N2 1_555 1_555
N2C Zn1 1_555 1_555
C3 C4 1_555 1_555

#END
