
#######################################################################
#
#                 Cambridge Crystallographic Data Centre
#                                CCDC 
#
#######################################################################
#
# If this CIF has been generated from an entry in the Cambridge 
# Structural Database, then it will include bibliographic, chemical, 
# crystal, experimental, refinement or atomic coordinate data resulting 
# from the CCDC's data processing and validation procedures.
#
#######################################################################

data_HIPMIE
_symmetry_cell_setting           triclinic
_symmetry_space_group_name_H-M   'P -1'
_symmetry_Int_Tables_number      2
_space_group_name_Hall           '-P 1'
loop_
_symmetry_equiv_pos_site_id
_symmetry_equiv_pos_as_xyz
1 x,y,z
2 -x,-y,-z
_cell_length_a                   5.9617(12)
_cell_length_b                   10.842(2)
_cell_length_c                   13.789(3)
_cell_angle_alpha                102.015(4)
_cell_angle_beta                 93.983(4)
_cell_angle_gamma                101.326(5)
_cell_volume                     849.098
loop_
_atom_site_label
_atom_site_type_symbol
_atom_site_fract_x
_atom_site_fract_y
_atom_site_fract_z
Gd1 Gd 0.39445(4) 0.25327(2) 1.017374(16)
O1 O 0.0864(4) 0.1026(3) 0.89144(18)
O2 O 0.4498(4) 0.1115(2) 0.86454(17)
O3 O -0.4561(4) -0.5407(2) 0.13384(17)
O4 O -0.2401(4) -0.3929(2) 0.07020(17)
O5 O 0.7112(4) 0.2133(2) 1.10164(18)
O6 O 1.0849(4) 0.2810(3) 1.0998(2)
O7 O 0.7245(4) 0.3624(2) 0.94527(17)
H1 H 0.7999 0.3207 0.9763
H2 H 0.7370 0.4403 0.9405
O8 O 0.2980(4) 0.0611(2) 1.07699(18)
H3 H 0.1724 0.0176 1.0431
H4 H 0.3953 0.0299 1.1069
N1 N -0.1419(6) -0.1254(3) 0.6033(2)
N2 N 0.0748(6) -0.2236(3) 0.3685(2)
N3 N 1.1694(5) 0.4658(3) 1.3992(2)
C1 C 0.2384(7) 0.0746(3) 0.8356(3)
C2 C 0.1615(7) -0.0030(4) 0.7299(3)
C3 C 0.3187(7) -0.0133(4) 0.6594(3)
H5 H 0.4739 0.0257 0.6766
C4 C 0.2386(6) -0.0812(3) 0.5661(3)
H6 H 0.3420 -0.0894 0.5189
C5 C 0.0124(7) -0.1385(3) 0.5378(3)
C6 C -0.0657(7) -0.0588(3) 0.6974(3)
H7 H -0.1729 -0.0502 0.7429
C7 C -0.0754(7) -0.2143(3) 0.4357(3)
C8 C -0.3015(6) -0.2691(3) 0.4138(3)
H8 H -0.4032 -0.2565 0.4612
C9 C -0.3773(7) -0.3433(4) 0.3204(3)
H9 H -0.5300 -0.3880 0.3059
C10 C -0.2322(6) -0.3536(3) 0.2472(3)
C11 C -0.0020(7) -0.2919(3) 0.2739(3)
H10 H 0.1008 -0.2974 0.2262
C12 C -0.3144(6) -0.4358(4) 0.1435(3)
C13 C 0.9063(6) 0.2706(3) 1.1423(3)
C14 C 0.9316(6) 0.3340(3) 1.2523(3)
C15 C 0.7434(7) 0.3297(4) 1.3064(3)
H11 H 0.5993 0.2822 1.2760
C16 C 0.7688(7) 0.3956(3) 1.4056(3)
H12 H 0.6439 0.3945 1.4425
C17 C 0.9814(6) 0.4611(3) 1.4461(3)
C18 C 1.1433(7) 0.3995(4) 1.3015(3)
H13 H 1.2726 0.3989 1.2676
O5A O 1.2888(4) 0.7867(2) 1.89836(18)
O6A O 0.9151(4) 0.7190(3) 1.9002(2)
N3A N 0.8306(5) 0.5342(3) 1.6008(2)
C13A C 1.0937(6) 0.7294(3) 1.8577(3)
C14A C 1.0684(6) 0.6660(3) 1.7477(3)
C15A C 1.2566(7) 0.6703(4) 1.6936(3)
H11A H 1.4007 0.7178 1.7240
C16A C 1.2312(7) 0.6044(3) 1.5944(3)
H12A H 1.3561 0.6055 1.5575
C17A C 1.0186(6) 0.5389(3) 1.5539(3)
C18A C 0.8567(7) 0.6005(4) 1.6985(3)
H13A H 0.7274 0.6011 1.7324
Gd1A Gd -0.39445(4) -0.25327(2) -0.017374(16)
O1A O -0.0864(4) -0.1026(3) 0.10856(18)
O2A O -0.4498(4) -0.1115(2) 0.13546(17)
O3A O 0.4561(4) 0.5407(2) 0.86616(17)
O4A O 0.2401(4) 0.3929(2) 0.92980(17)
O7A O -0.7245(4) -0.3624(2) 0.05473(17)
H1A H -0.7999 -0.3207 0.0237
H2A H -0.7370 -0.4403 0.0595
O8A O -0.2980(4) -0.0611(2) -0.07699(18)
H3A H -0.1724 -0.0176 -0.0431
H4A H -0.3953 -0.0299 -0.1069
N1A N 0.1419(6) 0.1254(3) 0.3967(2)
N2A N -0.0748(6) 0.2236(3) 0.6315(2)
C1A C -0.2384(7) -0.0746(3) 0.1644(3)
C2A C -0.1615(7) 0.0030(4) 0.2701(3)
C3A C -0.3187(7) 0.0133(4) 0.3406(3)
H5A H -0.4739 -0.0257 0.3234
C4A C -0.2386(6) 0.0812(3) 0.4339(3)
H6A H -0.3420 0.0894 0.4811
C5A C -0.0124(7) 0.1385(3) 0.4622(3)
C6A C 0.0657(7) 0.0588(3) 0.3026(3)
H7A H 0.1729 0.0502 0.2571
C7A C 0.0754(7) 0.2143(3) 0.5643(3)
C8A C 0.3015(6) 0.2691(3) 0.5862(3)
H8A H 0.4032 0.2565 0.5388
C9A C 0.3773(7) 0.3433(4) 0.6796(3)
H9A H 0.5300 0.3880 0.6941
C10A C 0.2322(6) 0.3536(3) 0.7528(3)
C11A C 0.0020(7) 0.2919(3) 0.7261(3)
H10A H -0.1008 0.2974 0.7738
C12A C 0.3144(6) 0.4358(4) 0.8565(3)
Gd1_2 Gd -0.60555(4) -0.74673(2) 0.017374(16)
Gd1_3 Gd 1.39445(4) 0.25327(2) 1.017374(16)
Gd1A_2 Gd 0.60555(4) 0.74673(2) 0.982626(16)
Gd1A_3 Gd 0.60555(4) 0.74673(2) 1.982626(16)
Gd1A_4 Gd 1.60555(4) 0.74673(2) 1.982626(16)
O3_2 O 0.5439(4) 0.4593(2) 1.13384(17)
O3A_2 O -0.5439(4) -0.4593(2) -0.13384(17)
O5A_2 O -0.7112(4) -0.2133(2) -0.10164(18)
O6_2 O 0.0849(4) 0.2810(3) 1.0998(2)
O6A_2 O -0.0849(4) -0.2810(3) -0.0998(2)
loop_
_geom_bond_atom_site_label_1
_geom_bond_atom_site_label_2
_geom_bond_site_symmetry_1
_geom_bond_site_symmetry_2
Gd1 O1 1_555 1_555
O1 C1 1_555 1_555
O2 Gd1 1_555 1_555
O3 C12 1_555 1_555
O4 C12 1_555 1_555
O5 Gd1 1_555 1_555
O6 C13 1_555 1_555
O7 Gd1 1_555 1_555
H1 O7 1_555 1_555
H2 O7 1_555 1_555
O8 Gd1 1_555 1_555
H3 O8 1_555 1_555
H4 O8 1_555 1_555
N1 C5 1_555 1_555
N2 C7 1_555 1_555
N3 C17 1_555 1_555
C1 O2 1_555 1_555
C2 C1 1_555 1_555
C3 C2 1_555 1_555
H5 C3 1_555 1_555
C4 C3 1_555 1_555
H6 C4 1_555 1_555
C5 C4 1_555 1_555
C6 N1 1_555 1_555
H7 C6 1_555 1_555
C7 C5 1_555 1_555
C8 C7 1_555 1_555
H8 C8 1_555 1_555
C9 C8 1_555 1_555
H9 C9 1_555 1_555
C10 C9 1_555 1_555
C11 N2 1_555 1_555
H10 C11 1_555 1_555
C12 C10 1_555 1_555
C13 O5 1_555 1_555
C14 C13 1_555 1_555
C15 C14 1_555 1_555
H11 C15 1_555 1_555
C16 C15 1_555 1_555
H12 C16 1_555 1_555
C17 C16 1_555 1_555
C18 N3 1_555 1_555
H13 C18 1_555 1_555
O5A C13A 1_555 1_555
O6A C13A 1_555 1_555
N3A C17A 1_555 1_555
C13A C14A 1_555 1_555
C14A C15A 1_555 1_555
C15A H11A 1_555 1_555
C16A C15A 1_555 1_555
H12A C16A 1_555 1_555
C17A C17 1_555 1_555
C18A N3A 1_555 1_555
H13A C18A 1_555 1_555
Gd1A O4 1_555 1_555
O1A Gd1A 1_555 1_555
O2A Gd1A 1_555 1_555
O3A C12A 1_555 1_555
O4A Gd1 1_555 1_555
O7A Gd1A 1_555 1_555
H1A O7A 1_555 1_555
H2A O7A 1_555 1_555
O8A Gd1A 1_555 1_555
H3A O8A 1_555 1_555
H4A O8A 1_555 1_555
N1A C5A 1_555 1_555
N2A C7A 1_555 1_555
C1A O1A 1_555 1_555
C2A C1A 1_555 1_555
C3A C2A 1_555 1_555
H5A C3A 1_555 1_555
C4A C3A 1_555 1_555
H6A C4A 1_555 1_555
C5A C4A 1_555 1_555
C6A N1A 1_555 1_555
H7A C6A 1_555 1_555
C7A C5A 1_555 1_555
C8A C7A 1_555 1_555
H8A C8A 1_555 1_555
C9A C8A 1_555 1_555
H9A C9A 1_555 1_555
C10A C9A 1_555 1_555
C11A N2A 1_555 1_555
H10A C11A 1_555 1_555
C12A O4A 1_555 1_555
Gd1_2 O3 1_555 1_555
Gd1_3 O6 1_555 1_555
Gd1A_2 O3A 1_555 1_555
Gd1A_3 O6A 1_555 1_555
Gd1A_4 O5A 1_555 1_555
O3_2 Gd1 1_555 1_555
O3A_2 Gd1A 1_555 1_555
O5A_2 Gd1A 1_555 1_555
O6_2 Gd1 1_555 1_555
O6A_2 Gd1A 1_555 1_555
C2 C6 1_555 1_555
C10 C11 1_555 1_555
C14 C18 1_555 1_555
C14A C18A 1_555 1_555
C16A C17A 1_555 1_555
O2A C1A 1_555 1_555
C2A C6A 1_555 1_555
C10A C11A 1_555 1_555
C10A C12A 1_555 1_555

#END
