
#######################################################################
#
#                 Cambridge Crystallographic Data Centre
#                                CCDC 
#
#######################################################################
#
# If this CIF has been generated from an entry in the Cambridge 
# Structural Database, then it will include bibliographic, chemical, 
# crystal, experimental, refinement or atomic coordinate data resulting 
# from the CCDC's data processing and validation procedures.
#
#######################################################################

data_HIPPON
_symmetry_cell_setting           triclinic
_symmetry_space_group_name_H-M   'P -1'
_symmetry_Int_Tables_number      2
_space_group_name_Hall           '-P 1'
loop_
_symmetry_equiv_pos_site_id
_symmetry_equiv_pos_as_xyz
1 x,y,z
2 -x,-y,-z
_cell_length_a                   7.7984(16)
_cell_length_b                   8.5300(17)
_cell_length_c                   11.280(2)
_cell_angle_alpha                92.87(3)
_cell_angle_beta                 108.22(3)
_cell_angle_gamma                92.93(3)
_cell_volume                     710.07
loop_
_atom_site_label
_atom_site_type_symbol
_atom_site_fract_x
_atom_site_fract_y
_atom_site_fract_z
Cu1 Cu 0.5000 0.5000 0.5000
Cu2 Cu 0.10717(5) 0.35972(4) 0.42259(3)
N1 N 0.6672(3) 0.6129(3) 0.4264(2)
O1 O 0.1362(3) 0.0523(3) 0.3888(2)
N2 N -0.0725(3) 0.2887(3) 0.2580(2)
N3 N -0.1041(4) 0.1302(3) 0.2231(2)
C1 C -0.2312(5) 0.2506(4) 0.0553(3)
H1 H -0.2948 0.2714 -0.0263
C2 C -0.1488(5) 0.3622(4) 0.1548(3)
C3 C -0.0441(4) 0.0180(4) 0.3201(3)
H2 H -0.1175 0.0231 0.3754
H3 H -0.0602 -0.0880 0.2812
C4 C -0.2008(5) 0.1065(4) 0.1002(3)
C5 C -0.1380(6) 0.5364(4) 0.1571(4)
H4 H -0.0714 0.5795 0.2401
H5 H -0.2579 0.5724 0.1333
H6 H -0.0776 0.5702 0.0996
C6 C -0.2517(7) -0.0564(5) 0.0363(4)
H7 H -0.2073 -0.1331 0.0959
H8 H -0.1993 -0.0679 -0.0299
H9 H -0.3811 -0.0721 0.0021
N4 N 0.2872(3) 0.4585(3) 0.3481(2)
N5 N -0.2065(4) 0.2811(3) 0.4810(3)
N6 N -0.0502(4) 0.3207(3) 0.5253(3)
N7 N 0.6207(3) 0.7039(3) 0.3462(3)
N8 N 0.3016(4) 0.4235(4) 0.2465(3)
N9 N -0.3578(4) 0.2450(4) 0.4450(4)
N10 N 0.5770(5) 0.7878(5) 0.2686(4)
N11 N 0.3165(6) 0.3921(6) 0.1524(3)
C7 C 0.2576(6) 0.0037(5) 0.3234(4)
H10 H 0.3802 0.0306 0.3749
H11 H 0.2338 0.0560 0.2471
H12 H 0.2400 -0.1081 0.3044
Cu2A Cu -0.10717(5) 0.64028(4) 0.57741(3)
O1A O -0.1362(3) 0.9477(3) 0.6112(2)
N2A N 0.0725(3) 0.7113(3) 0.7420(2)
N3A N 0.1041(4) 0.8698(3) 0.7769(2)
C1A C 0.2312(5) 0.7494(4) 0.9447(3)
H1A H 0.2948 0.7286 1.0263
C2A C 0.1488(5) 0.6378(4) 0.8452(3)
C3A C 0.0441(4) 0.9820(4) 0.6799(3)
H2A H 0.1175 0.9769 0.6246
H3A H 0.0602 1.0880 0.7188
C4A C 0.2008(5) 0.8935(4) 0.8998(3)
C5A C 0.1380(6) 0.4636(4) 0.8429(4)
H4A H 0.0714 0.4205 0.7599
H5A H 0.2579 0.4276 0.8667
H6A H 0.0776 0.4298 0.9004
C6A C 0.2517(7) 1.0564(5) 0.9637(4)
H7A H 0.2073 1.1331 0.9041
H8A H 0.1993 1.0679 1.0299
H9A H 0.3811 1.0721 0.9979
N4A N -0.2872(3) 0.5415(3) 0.6519(2)
N5A N 0.2065(4) 0.7189(3) 0.5190(3)
N6A N 0.0502(4) 0.6793(3) 0.4747(3)
N8A N -0.3016(4) 0.5765(4) 0.7535(3)
N9A N 0.3578(4) 0.7550(4) 0.5550(4)
N11A N -0.3165(6) 0.6079(6) 0.8476(3)
C7A C -0.2576(6) 0.9963(5) 0.6766(4)
H10A H -0.3802 0.9694 0.6251
H11A H -0.2338 0.9440 0.7529
H12A H -0.2400 1.1081 0.6956
N1A N 0.3328(3) 0.3871(3) 0.5736(2)
N7A N 0.3793(3) 0.2961(3) 0.6538(3)
N10A N 0.4230(5) 0.2122(5) 0.7314(4)
Cu1_2 Cu -0.5000 0.5000 0.5000
Cu2A_2 Cu 0.89283(5) 0.64028(4) 0.57741(3)
N1_2 N -0.3328(3) 0.6129(3) 0.4264(2)
N4A_2 N 0.7128(3) 0.5415(3) 0.6519(2)
N9_2 N 0.6422(4) 0.2450(4) 0.4450(4)
loop_
_geom_bond_atom_site_label_1
_geom_bond_atom_site_label_2
_geom_bond_site_symmetry_1
_geom_bond_site_symmetry_2
Cu1 N1 1_555 1_555
Cu2 O1 1_555 1_555
N1 N7 1_555 1_555
O1 C3 1_555 1_555
N2 Cu2 1_555 1_555
N3 N2 1_555 1_555
C1 H1 1_555 1_555
C2 N2 1_555 1_555
C3 N3 1_555 1_555
H2 C3 1_555 1_555
H3 C3 1_555 1_555
C4 N3 1_555 1_555
C5 C2 1_555 1_555
H4 C5 1_555 1_555
H5 C5 1_555 1_555
H6 C5 1_555 1_555
C6 C4 1_555 1_555
H7 C6 1_555 1_555
H8 C6 1_555 1_555
H9 C6 1_555 1_555
N4 Cu1 1_555 1_555
N5 N6 1_555 1_555
N6 Cu2 1_555 1_555
N7 N10 1_555 1_555
N8 N4 1_555 1_555
N9 N5 1_555 1_555
N11 N8 1_555 1_555
C7 O1 1_555 1_555
H10 C7 1_555 1_555
H11 C7 1_555 1_555
H12 C7 1_555 1_555
Cu2A O1A 1_555 1_555
O1A C3A 1_555 1_555
N2A Cu2A 1_555 1_555
N3A N2A 1_555 1_555
C1A H1A 1_555 1_555
C2A N2A 1_555 1_555
C3A N3A 1_555 1_555
H2A C3A 1_555 1_555
H3A C3A 1_555 1_555
C4A N3A 1_555 1_555
C5A C2A 1_555 1_555
H4A C5A 1_555 1_555
H5A C5A 1_555 1_555
H6A C5A 1_555 1_555
C6A C4A 1_555 1_555
H7A C6A 1_555 1_555
H8A C6A 1_555 1_555
H9A C6A 1_555 1_555
N4A Cu2A 1_555 1_555
N5A N6A 1_555 1_555
N6A Cu2A 1_555 1_555
N8A N4A 1_555 1_555
N9A Cu1 1_555 1_555
N11A N8A 1_555 1_555
C7A O1A 1_555 1_555
H10A C7A 1_555 1_555
H11A C7A 1_555 1_555
H12A C7A 1_555 1_555
N1A Cu1 1_555 1_555
N7A N1A 1_555 1_555
N10A N7A 1_555 1_555
Cu1_2 N9 1_555 1_555
Cu2A_2 N1 1_555 1_555
N1_2 Cu2A 1_555 1_555
N4A_2 Cu1 1_555 1_555
N9_2 Cu1 1_555 1_555
Cu2 N4 1_555 1_555
Cu2 N1A 1_555 1_555
C1 C2 1_555 1_555
C1 C4 1_555 1_555
C1A C2A 1_555 1_555
C1A C4A 1_555 1_555
N4A Cu1_2 1_555 1_555
N5A N9A 1_555 1_555
Cu1_2 N1_2 1_555 1_555
Cu2A_2 N4A_2 1_555 1_555

#END
