
#######################################################################
#
#                 Cambridge Crystallographic Data Centre
#                                CCDC 
#
#######################################################################
#
# If this CIF has been generated from an entry in the Cambridge 
# Structural Database, then it will include bibliographic, chemical, 
# crystal, experimental, refinement or atomic coordinate data resulting 
# from the CCDC's data processing and validation procedures.
#
#######################################################################

data_HIPQIG
_symmetry_cell_setting           triclinic
_symmetry_space_group_name_H-M   'P -1'
_symmetry_Int_Tables_number      2
_space_group_name_Hall           '-P 1'
loop_
_symmetry_equiv_pos_site_id
_symmetry_equiv_pos_as_xyz
1 x,y,z
2 -x,-y,-z
_cell_length_a                   5.653(2)
_cell_length_b                   5.894(2)
_cell_length_c                   14.016(10)
_cell_angle_alpha                82.23(4)
_cell_angle_beta                 82.16(4)
_cell_angle_gamma                73.22(2)
_cell_volume                     440.666
loop_
_atom_site_label
_atom_site_type_symbol
_atom_site_fract_x
_atom_site_fract_y
_atom_site_fract_z
I1 I -0.5000 -0.5000 0.0000
K1 K -0.5000 -0.5000 0.5000
O1 O -0.1716(3) -0.4197(3) 0.34812(10)
N1 N -0.0483(2) -0.05438(19) 0.20571(8)
C1 C 0.1386(2) -0.2384(2) 0.26242(10)
H1 H 0.2130 -0.1551 0.2997
H2 H 0.2693 -0.3200 0.2165
C2 C 0.0503(3) -0.4285(3) 0.33198(10)
C3 C -0.1622(3) -0.1709(3) 0.14267(11)
H3 H -0.0335 -0.2684 0.1018
H4 H -0.2715 -0.0508 0.1033
H5 H -0.2547 -0.2684 0.1825
C4 C 0.0895(3) 0.1027(3) 0.14245(12)
H6 H -0.0244 0.2237 0.1052
H7 H 0.2153 0.0086 0.0995
H8 H 0.1658 0.1762 0.1822
C5 C -0.2486(3) 0.0969(3) 0.26936(13)
H9 H -0.1756 0.1714 0.3099
H10 H -0.3412 -0.0005 0.3090
H11 H -0.3577 0.2173 0.2300
O2 O -0.2523(5) -0.9960(3) 0.53446(13)
H12 H -0.203(7) -1.147(4) 0.567(2)
H13 H -0.340(6) -1.041(8) 0.495(3)
O3 O 0.2294(3) -0.5836(3) 0.36555(11)
O3_2 O -0.7706(3) -0.5836(3) 0.36555(11)
K1_2 K 0.5000 -0.5000 0.5000
O1A O 0.1716(3) -0.5803(3) 0.65188(10)
C2A C -0.0503(3) -0.5715(3) 0.66802(10)
C1A C -0.1386(2) -0.7616(2) 0.73758(10)
N1A N 0.0483(2) -0.94562(19) 0.79429(8)
C3A C 0.1622(3) -0.8291(3) 0.85733(11)
H3A H 0.0335 -0.7316 0.8982
H4A H 0.2715 -0.9492 0.8967
H5A H 0.2547 -0.7316 0.8175
C4A C -0.0895(3) -1.1027(3) 0.85755(12)
H6A H 0.0244 -1.2237 0.8948
H7A H -0.2153 -1.0086 0.9005
H8A H -0.1658 -1.1762 0.8178
C5A C 0.2486(3) -1.0969(3) 0.73064(13)
H9A H 0.1756 -1.1714 0.6901
H10A H 0.3412 -0.9995 0.6910
H11A H 0.3577 -1.2173 0.7700
H1A H -0.2130 -0.8449 0.7003
H2A H -0.2693 -0.6800 0.7835
O3A O -0.2294(3) -0.4164(3) 0.63445(11)
O1A_2 O -0.8284(3) -0.5803(3) 0.65188(10)
O2A O -0.7477(5) -0.0040(3) 0.46554(13)
H12A H -0.797(7) 0.147(4) 0.433(2)
H13A H -0.660(6) 0.041(8) 0.505(3)
loop_
_geom_bond_atom_site_label_1
_geom_bond_atom_site_label_2
_geom_bond_site_symmetry_1
_geom_bond_site_symmetry_2
K1 O1 1_555 1_555
O1 C2 1_555 1_555
N1 C1 1_555 1_555
C1 H1 1_555 1_555
H2 C1 1_555 1_555
C2 C1 1_555 1_555
C3 N1 1_555 1_555
H3 C3 1_555 1_555
H4 C3 1_555 1_555
H5 C3 1_555 1_555
C4 N1 1_555 1_555
H6 C4 1_555 1_555
H7 C4 1_555 1_555
H8 C4 1_555 1_555
C5 N1 1_555 1_555
H9 C5 1_555 1_555
H10 C5 1_555 1_555
H11 C5 1_555 1_555
O2 K1 1_555 1_555
H12 O2 1_555 1_555
H13 O2 1_555 1_555
O3 C2 1_555 1_555
O3_2 K1 1_555 1_555
K1_2 O3 1_555 1_555
O1A K1_2 1_555 1_555
C2A O1A 1_555 1_555
C1A C2A 1_555 1_555
N1A C1A 1_555 1_555
C3A N1A 1_555 1_555
H3A C3A 1_555 1_555
H4A C3A 1_555 1_555
H5A C3A 1_555 1_555
C4A N1A 1_555 1_555
H6A C4A 1_555 1_555
H7A C4A 1_555 1_555
H8A C4A 1_555 1_555
C5A N1A 1_555 1_555
H9A C5A 1_555 1_555
H10A C5A 1_555 1_555
H11A C5A 1_555 1_555
H1A C1A 1_555 1_555
H2A C1A 1_555 1_555
O3A K1 1_555 1_555
O1A_2 K1 1_555 1_555
O2A K1 1_555 1_555
H12A O2A 1_555 1_555
H13A O2A 1_555 1_555
C2A O3A 1_555 1_555

#END
