
#######################################################################
#
#                 Cambridge Crystallographic Data Centre
#                                CCDC 
#
#######################################################################
#
# If this CIF has been generated from an entry in the Cambridge 
# Structural Database, then it will include bibliographic, chemical, 
# crystal, experimental, refinement or atomic coordinate data resulting 
# from the CCDC's data processing and validation procedures.
#
#######################################################################

data_HIPYUA
_symmetry_cell_setting           triclinic
_symmetry_space_group_name_H-M   'P -1'
_symmetry_Int_Tables_number      2
_space_group_name_Hall           '-P 1'
loop_
_symmetry_equiv_pos_site_id
_symmetry_equiv_pos_as_xyz
1 x,y,z
2 -x,-y,-z
_cell_length_a                   6.9446(6)
_cell_length_b                   9.8415(7)
_cell_length_c                   17.0921(13)
_cell_angle_alpha                94.102(6)
_cell_angle_beta                 94.906(6)
_cell_angle_gamma                100.050(6)
_cell_volume                     1141.57
loop_
_atom_site_label
_atom_site_type_symbol
_atom_site_fract_x
_atom_site_fract_y
_atom_site_fract_z
Cu1 Cu 0.10300(3) -0.685880(19) 0.411290(11)
S1 S -0.39047(6) -0.72729(4) 0.45031(2)
O1 O 0.0668(2) -0.87762(12) 0.44019(7)
O2 O 0.1961(2) -0.62830(13) 0.52252(7)
O3 O 0.1658(2) -0.49950(13) 0.37523(8)
O5 O -0.20312(18) -0.63890(12) 0.43562(8)
O6 O -0.55109(19) -0.69549(14) 0.39625(7)
O7 O -0.43099(19) -0.68994(13) 0.53298(7)
O8 O -0.3752(2) -0.87245(13) 0.43908(9)
N1 N 0.0197(2) -0.78454(14) 0.30352(8)
N2 N -0.0152(3) -1.10177(16) 0.39527(10)
C1 C 0.0138(3) -0.97003(17) 0.38421(10)
C2 C -0.0155(2) -0.92365(16) 0.30329(9)
C3 C -0.0715(3) -1.01062(18) 0.23491(10)
H1 H -0.095(3) -1.110(3) 0.2356(14)
C4 C -0.0901(3) -0.9512(2) 0.16407(11)
H2 H -0.131(4) -1.006(3) 0.1157(15)
C5 C -0.0532(4) -0.8098(2) 0.16431(11)
H3 H -0.063(4) -0.769(3) 0.1179(18)
C6 C 0.0016(3) -0.72846(19) 0.23509(11)
H4 H 0.029(3) -0.635(2) 0.2363(13)
H5 H 0.006(5) -1.119(3) 0.4384(19)
H6 H -0.045(4) -1.169(3) 0.3570(16)
H7 H 0.304(5) -0.642(3) 0.5300(17)
H8 H 0.187(4) -0.556(3) 0.5330(16)
H9 H 0.090(4) -0.463(3) 0.3547(16)
H10 H 0.240(4) -0.441(3) 0.4028(15)
Cu1_2 Cu -0.89700(3) -0.685880(19) 0.411290(11)
O6_2 O 0.44891(19) -0.69549(14) 0.39625(7)
O4 O 0.9220(2) -0.35921(15) 0.29699(8)
H11 H 0.939(4) -0.359(3) 0.2562(19)
H12 H 0.818(5) -0.402(3) 0.2954(17)
Cu2 Cu 0.32438(3) -0.294800(19) 0.126470(11)
S2 S 0.79530(6) -0.35881(4) 0.08566(2)
O9 O 0.3735(2) -0.27236(12) 0.24319(7)
O10 O 0.3225(2) -0.49450(13) 0.12475(8)
O11 O 0.2418(2) -0.30011(13) 0.01265(7)
O13 O 0.6625(2) -0.26242(14) 0.10158(10)
O14 O 0.9749(2) -0.32584(17) 0.14116(7)
O15 O 0.6935(2) -0.50242(13) 0.09206(8)
O16 O 0.8561(2) -0.34782(15) 0.00455(7)
N3 N 0.3658(2) -0.08959(14) 0.14170(8)
N4 N 0.4595(3) -0.11510(17) 0.34829(9)
C7 C 0.4169(2) -0.14847(16) 0.27281(9)
C8 C 0.4154(2) -0.03744(16) 0.21705(9)
C9 C 0.4589(3) 0.10338(18) 0.23809(11)
H13 H 0.494(4) 0.134(3) 0.2883(16)
C10 C 0.4534(3) 0.19302(19) 0.17923(13)
H14 H 0.483(4) 0.289(3) 0.1898(15)
C11 C 0.4026(3) 0.1396(2) 0.10189(12)
H15 H 0.393(4) 0.194(3) 0.0634(16)
C12 C 0.3596(3) -0.00254(19) 0.08550(10)
H16 H 0.322(4) -0.041(2) 0.0378(15)
H17 H 0.455(4) -0.178(3) 0.3785(16)
H18 H 0.486(4) -0.035(3) 0.3676(16)
H19 H 0.264(5) -0.535(3) 0.0867(19)
H20 H 0.433(4) -0.499(3) 0.1195(16)
H21 H 0.276(4) -0.349(3) -0.0144(18)
H22 H 0.115(4) -0.317(3) 0.0091(17)
Cu2_2 Cu 1.32438(3) -0.294800(19) 0.126470(11)
O14_2 O -0.0251(2) -0.32584(17) 0.14116(7)
O12 O 0.5558(3) -0.50079(19) 0.29177(11)
H23 H 0.466(5) -0.449(3) 0.2862(19)
H24 H 0.528(5) -0.544(4) 0.319(2)
loop_
_geom_bond_atom_site_label_1
_geom_bond_atom_site_label_2
_geom_bond_site_symmetry_1
_geom_bond_site_symmetry_2
Cu1 O1 1_555 1_555
S1 O5 1_555 1_555
O1 C1 1_555 1_555
O2 Cu1 1_555 1_555
O3 Cu1 1_555 1_555
O4 H11 1_555 1_555
O5 Cu1 1_555 1_555
O6 S1 1_555 1_555
O7 S1 1_555 1_555
O8 S1 1_555 1_555
N1 Cu1 1_555 1_555
N2 C1 1_555 1_555
C1 C2 1_555 1_555
C2 N1 1_555 1_555
C3 C2 1_555 1_555
H1 C3 1_555 1_555
C4 C3 1_555 1_555
H2 C4 1_555 1_555
C5 C4 1_555 1_555
H3 C5 1_555 1_555
C6 N1 1_555 1_555
H4 C6 1_555 1_555
H5 N2 1_555 1_555
H6 N2 1_555 1_555
H7 O2 1_555 1_555
H8 O2 1_555 1_555
H9 O3 1_555 1_555
H10 O3 1_555 1_555
H12 O4 1_555 1_555
Cu2 O9 1_555 1_555
S2 O13 1_555 1_555
O9 C7 1_555 1_555
O10 Cu2 1_555 1_555
O11 Cu2 1_555 1_555
O12 H23 1_555 1_555
O13 Cu2 1_555 1_555
O14 S2 1_555 1_555
O15 S2 1_555 1_555
O16 S2 1_555 1_555
N3 Cu2 1_555 1_555
N4 C7 1_555 1_555
C7 C8 1_555 1_555
C8 N3 1_555 1_555
C9 C8 1_555 1_555
H13 C9 1_555 1_555
C10 C9 1_555 1_555
H14 C10 1_555 1_555
C11 C10 1_555 1_555
H15 C11 1_555 1_555
C12 N3 1_555 1_555
H16 C12 1_555 1_555
H17 N4 1_555 1_555
H18 N4 1_555 1_555
H19 O10 1_555 1_555
H20 O10 1_555 1_555
H21 O11 1_555 1_555
H22 O11 1_555 1_555
H24 O12 1_555 1_555
Cu1_2 O6 1_555 1_555
O6_2 Cu1 1_555 1_555
Cu2_2 O14 1_555 1_555
O14_2 Cu2 1_555 1_555
C5 C6 1_555 1_555
C11 C12 1_555 1_555

#END
