
#######################################################################
#
#                 Cambridge Crystallographic Data Centre
#                                CCDC 
#
#######################################################################
#
# If this CIF has been generated from an entry in the Cambridge 
# Structural Database, then it will include bibliographic, chemical, 
# crystal, experimental, refinement or atomic coordinate data resulting 
# from the CCDC's data processing and validation procedures.
#
#######################################################################

data_HIPYUA01
_symmetry_cell_setting           monoclinic
_symmetry_space_group_name_H-M   'P 21/n'
_symmetry_Int_Tables_number      14
_space_group_name_Hall           '-P 2yn'
loop_
_symmetry_equiv_pos_site_id
_symmetry_equiv_pos_as_xyz
1 x,y,z
2 1/2-x,1/2+y,1/2-z
3 -x,-y,-z
4 1/2+x,1/2-y,1/2+z
_cell_length_a                   12.635(3)
_cell_length_b                   6.8276(14)
_cell_length_c                   13.414(3)
_cell_angle_alpha                90
_cell_angle_beta                 101.62(3)
_cell_angle_gamma                90
_cell_volume                     1133.47
loop_
_atom_site_label
_atom_site_type_symbol
_atom_site_fract_x
_atom_site_fract_y
_atom_site_fract_z
Cu1 Cu 0.742639(16) 0.16977(3) 0.978278(16)
S1 S 0.77141(3) -0.32881(6) 0.91273(3)
N1 N 0.79170(12) 0.1495(2) 1.12775(11)
N2 N 0.51595(13) 0.1540(3) 1.15192(15)
H1 H 0.457(2) 0.159(3) 1.1169(19)
H2 H 0.5208(18) 0.131(3) 1.216(2)
O1 O 0.59841(10) 0.1884(2) 1.01824(10)
O2 O 0.88971(11) 0.1235(2) 0.95335(11)
H3 H 0.915(2) 0.201(4) 0.923(2)
H4 H 0.896(2) 0.019(4) 0.930(2)
O3 O 0.67949(12) 0.2125(2) 0.83497(10)
H5 H 0.707(2) 0.163(4) 0.798(2)
H6 H 0.685(2) 0.329(4) 0.8214(19)
O4 O 0.70955(10) -0.17043(19) 0.94892(11)
O5 O 0.87604(10) -0.2516(2) 0.89645(11)
O6 O 0.79221(11) -0.48778(19) 0.98863(9)
O7 O 0.70994(11) -0.4067(2) 0.81536(10)
C1 C 0.89396(14) 0.1424(3) 1.17916(15)
H9 H 0.9494 0.1360 1.1430
C2 C 0.91984(15) 0.1444(3) 1.28418(16)
H10 H 0.9916 0.1406 1.3182
C3 C 0.83787(16) 0.1520(3) 1.33781(15)
H11 H 0.8535 0.1536 1.4086
C4 C 0.73175(15) 0.1571(3) 1.28508(14)
H12 H 0.6751 0.1613 1.3199
C5 C 0.71139(13) 0.1559(3) 1.18053(13)
C6 C 0.60208(14) 0.1662(3) 1.11164(14)
Cu1_2 Cu 0.742639(16) -0.83023(3) 0.978278(16)
O6_2 O 0.79221(11) 0.51222(19) 0.98863(9)
O8 O 1.00312(13) -0.5835(3) 0.87414(12)
H7 H 0.969(2) -0.495(4) 0.873(2)
H8 H 1.053(2) -0.564(4) 0.917(2)
loop_
_geom_bond_atom_site_label_1
_geom_bond_atom_site_label_2
_geom_bond_site_symmetry_1
_geom_bond_site_symmetry_2
Cu1 N1 1_555 1_555
S1 O4 1_555 1_555
N1 C1 1_555 1_555
N2 H1 1_555 1_555
H2 N2 1_555 1_555
O1 Cu1 1_555 1_555
O2 Cu1 1_555 1_555
H3 O2 1_555 1_555
H4 O2 1_555 1_555
O3 Cu1 1_555 1_555
H5 O3 1_555 1_555
H6 O3 1_555 1_555
O4 Cu1 1_555 1_555
O5 S1 1_555 1_555
O6 S1 1_555 1_555
O7 S1 1_555 1_555
O8 H7 1_555 1_555
H8 O8 1_555 1_555
C1 H9 1_555 1_555
C2 C1 1_555 1_555
H10 C2 1_555 1_555
C3 C2 1_555 1_555
H11 C3 1_555 1_555
C4 C3 1_555 1_555
H12 C4 1_555 1_555
C5 N1 1_555 1_555
C6 N2 1_555 1_555
Cu1_2 O6 1_555 1_555
O6_2 Cu1 1_555 1_555
O1 C6 1_555 1_555
C4 C5 1_555 1_555
C5 C6 1_555 1_555

#END
