
#######################################################################
#
#                 Cambridge Crystallographic Data Centre
#                                CCDC 
#
#######################################################################
#
# If this CIF has been generated from an entry in the Cambridge 
# Structural Database, then it will include bibliographic, chemical, 
# crystal, experimental, refinement or atomic coordinate data resulting 
# from the CCDC's data processing and validation procedures.
#
#######################################################################

data_HIPZEM
_symmetry_cell_setting           triclinic
_symmetry_space_group_name_H-M   'P -1'
_symmetry_Int_Tables_number      2
_space_group_name_Hall           '-P 1'
loop_
_symmetry_equiv_pos_site_id
_symmetry_equiv_pos_as_xyz
1 x,y,z
2 -x,-y,-z
_cell_length_a                   8.5730(8)
_cell_length_b                   9.7120(9)
_cell_length_c                   12.0990(11)
_cell_angle_alpha                88.845(2)
_cell_angle_beta                 71.8670(10)
_cell_angle_gamma                77.047(2)
_cell_volume                     931.645
loop_
_atom_site_label
_atom_site_type_symbol
_atom_site_fract_x
_atom_site_fract_y
_atom_site_fract_z
Ag1 Ag 0.64106(3) 0.45095(3) 0.55161(2)
C1 C 0.4381(4) 0.4066(3) 0.8046(3)
H1 H 0.5187 0.3215 0.7871
C2 C 0.3196(5) 0.4286(4) 0.9124(3)
H2 H 0.3224 0.3613 0.9680
C3 C 0.1954(4) 0.5524(4) 0.9376(3)
H3 H 0.1127 0.5687 1.0101
C4 C 0.1949(3) 0.6511(3) 0.8549(3)
C5 C 0.3232(3) 0.6225(3) 0.7493(3)
H4 H 0.3262 0.6902 0.6937
C6 C 0.0622(4) 0.7879(3) 0.8736(3)
H5 H 0.1143 0.8682 0.8640
H6 H 0.0016 0.7916 0.8175
C7 C -0.1839(4) 0.9076(3) 1.0236(3)
C8 C -0.2800(4) 0.9094(3) 1.1393(3)
H7 H -0.2509 0.8372 1.1858
C9 C -0.4204(4) 1.0199(3) 1.1857(3)
H8 H -0.4861 1.0209 1.2631
C10 C -0.4615(4) 1.1267(3) 1.1173(3)
C11 C -0.3624(4) 1.1257(3) 1.0023(3)
H9 H -0.3894 1.1998 0.9566
C12 C -0.2235(4) 1.0157(3) 0.9544(3)
H10 H -0.1581 1.0148 0.8769
C13 C -0.7012(4) 1.2405(3) 1.2734(3)
H11 H -0.6349 1.2422 1.3252
H12 H -0.7448 1.1556 1.2856
C14 C -0.8441(3) 1.3692(3) 1.2985(3)
C15 C -0.9936(3) 1.3643(3) 1.3841(3)
H13 H -1.0021 1.2801 1.4208
C16 C -0.8321(4) 1.4946(3) 1.2444(3)
H14 H -0.7342 1.5014 1.1858
C17 C -0.9688(4) 1.6107(4) 1.2789(3)
H15 H -0.9628 1.6967 1.2444
C18 C -1.1126(4) 1.5963(3) 1.3645(3)
H16 H -1.2037 1.6740 1.3870
C19 C 0.6094(4) 0.1537(3) 0.5074(3)
C20 C 0.5740(4) 0.0108(3) 0.4968(3)
H17 H 0.6633 -0.0679 0.4847
N1 N 0.4431(3) 0.5020(3) 0.7234(2)
N2 N -1.1269(3) 1.4750(3) 1.4167(2)
O1 O 0.7521(4) 0.1564(3) 0.5123(4)
O2 O 0.4997(3) 0.2597(2) 0.5080(3)
O3 O -0.0494(3) 0.7919(2) 0.9878(2)
O4 O -0.5989(3) 1.2410(2) 1.15538(19)
Ag1_2 Ag 2.64106(3) -0.54905(3) -0.44839(2)
Ag1_3 Ag -1.35894(3) 1.45095(3) 1.55161(2)
Ag1A Ag 0.35894(3) -0.45095(3) 0.44839(2)
C1_2 C 2.4381(4) -0.5934(3) -0.1954(3)
H1_2 H 2.5187 -0.6785 -0.2129
C2_2 C 2.3196(5) -0.5714(4) -0.0876(3)
H2_2 H 2.3224 -0.6387 -0.0320
C3_2 C 2.1954(4) -0.4476(4) -0.0624(3)
H3_2 H 2.1127 -0.4313 0.0101
C4_2 C 2.1949(3) -0.3489(3) -0.1451(3)
C5_2 C 2.3232(3) -0.3775(3) -0.2507(3)
H4_2 H 2.3262 -0.3098 -0.3063
C6_2 C 2.0622(4) -0.2121(3) -0.1264(3)
H5_2 H 2.1143 -0.1318 -0.1360
H6_2 H 2.0016 -0.2084 -0.1825
C7_2 C 1.8161(4) -0.0924(3) 0.0236(3)
C8_2 C 1.7200(4) -0.0906(3) 0.1393(3)
H7_2 H 1.7491 -0.1628 0.1858
C9_2 C 1.5796(4) 0.0199(3) 0.1857(3)
H8_2 H 1.5139 0.0209 0.2631
C10_2 C 1.5385(4) 0.1267(3) 0.1173(3)
C11_2 C 1.6376(4) 0.1257(3) 0.0023(3)
H9_2 H 1.6106 0.1998 -0.0434
C12_2 C 1.7765(4) 0.0157(3) -0.0456(3)
H10_2 H 1.8419 0.0148 -0.1231
C13_2 C 1.2988(4) 0.2405(3) 0.2734(3)
H11_2 H 1.3651 0.2422 0.3252
H12_2 H 1.2552 0.1556 0.2856
C14_2 C 1.1559(3) 0.3692(3) 0.2985(3)
C15_2 C 1.0064(3) 0.3643(3) 0.3841(3)
H13_2 H 0.9979 0.2801 0.4208
C16_2 C 1.1679(4) 0.4946(3) 0.2444(3)
H14_2 H 1.2658 0.5014 0.1858
C17_2 C 1.0312(4) 0.6107(4) 0.2789(3)
H15_2 H 1.0372 0.6967 0.2444
C18_2 C 0.8874(4) 0.5963(3) 0.3645(3)
H16_2 H 0.7963 0.6740 0.3870
C19A C 0.3906(4) -0.1537(3) 0.4926(3)
C20A C 0.4260(4) -0.0108(3) 0.5032(3)
H17A H 0.3367 0.0679 0.5153
N1_2 N 2.4431(3) -0.4980(3) -0.2766(2)
N2_2 N 0.8731(3) 0.4750(3) 0.4167(2)
N2_3 N 2.8731(3) -0.5250(3) -0.5833(2)
O1A O 0.2479(4) -0.1564(3) 0.4877(4)
O1_2 O 2.7521(4) -0.8436(3) -0.4877(4)
O2A O 0.5003(3) -0.2597(2) 0.4920(3)
O2_2 O 2.4997(3) -0.7403(2) -0.4920(3)
O3_2 O 1.9506(3) -0.2081(2) -0.0122(2)
O4_2 O 1.4011(3) 0.2410(2) 0.15538(19)
O5 O 1.0451(6) -0.0306(5) 0.3447(3)
H18 H 1.107(6) -0.084(7) 0.378(5)
H19 H 0.946(3) -0.015(8) 0.392(5)
loop_
_geom_bond_atom_site_label_1
_geom_bond_atom_site_label_2
_geom_bond_site_symmetry_1
_geom_bond_site_symmetry_2
Ag1 N1 1_555 1_555
C1 H1 1_555 1_555
C2 C1 1_555 1_555
H2 C2 1_555 1_555
C3 C2 1_555 1_555
H3 C3 1_555 1_555
C4 C3 1_555 1_555
C5 C4 1_555 1_555
H4 C5 1_555 1_555
C6 C4 1_555 1_555
H5 C6 1_555 1_555
H6 C6 1_555 1_555
C7 C8 1_555 1_555
C8 H7 1_555 1_555
C9 C8 1_555 1_555
H8 C9 1_555 1_555
C10 C9 1_555 1_555
C11 C10 1_555 1_555
H9 C11 1_555 1_555
C12 C7 1_555 1_555
H10 C12 1_555 1_555
C13 H11 1_555 1_555
H12 C13 1_555 1_555
C14 C13 1_555 1_555
C15 C14 1_555 1_555
H13 C15 1_555 1_555
C16 C14 1_555 1_555
H14 C16 1_555 1_555
C17 C16 1_555 1_555
H15 C17 1_555 1_555
C18 C17 1_555 1_555
H16 C18 1_555 1_555
C19 C20 1_555 1_555
C20 H17 1_555 1_555
N1 C1 1_555 1_555
N2 C15 1_555 1_555
O1 Ag1 1_555 1_555
O2 Ag1 1_555 1_555
O3 C6 1_555 1_555
O4 C10 1_555 1_555
O5 H18 1_555 1_555
H19 O5 1_555 1_555
Ag1_2 N1_2 1_555 1_555
Ag1_3 N2 1_555 1_555
Ag1A O1A 1_555 1_555
C1_2 H1_2 1_555 1_555
C2_2 C1_2 1_555 1_555
H2_2 C2_2 1_555 1_555
C3_2 C2_2 1_555 1_555
H3_2 C3_2 1_555 1_555
C4_2 C3_2 1_555 1_555
C5_2 C4_2 1_555 1_555
H4_2 C5_2 1_555 1_555
C6_2 C4_2 1_555 1_555
H5_2 C6_2 1_555 1_555
H6_2 C6_2 1_555 1_555
C7_2 C8_2 1_555 1_555
C8_2 H7_2 1_555 1_555
C9_2 C8_2 1_555 1_555
H8_2 C9_2 1_555 1_555
C10_2 C9_2 1_555 1_555
C11_2 C10_2 1_555 1_555
H9_2 C11_2 1_555 1_555
C12_2 C7_2 1_555 1_555
H10_2 C12_2 1_555 1_555
C13_2 H11_2 1_555 1_555
H12_2 C13_2 1_555 1_555
C14_2 C13_2 1_555 1_555
C15_2 C14_2 1_555 1_555
H13_2 C15_2 1_555 1_555
C16_2 C14_2 1_555 1_555
H14_2 C16_2 1_555 1_555
C17_2 C16_2 1_555 1_555
H15_2 C17_2 1_555 1_555
C18_2 C17_2 1_555 1_555
H16_2 C18_2 1_555 1_555
C19A C20A 1_555 1_555
C20A C20 1_555 1_555
H17A C20A 1_555 1_555
N1_2 C1_2 1_555 1_555
N2_2 Ag1 1_555 1_555
N2_3 Ag1_2 1_555 1_555
O1A C19A 1_555 1_555
O1_2 Ag1_2 1_555 1_555
O2A Ag1A 1_555 1_555
O2_2 Ag1_2 1_555 1_555
O3_2 C6_2 1_555 1_555
O4_2 C10_2 1_555 1_555
C5 N1 1_555 1_555
C7 O3 1_555 1_555
C11 C12 1_555 1_555
C13 O4 1_555 1_555
C18 N2 1_555 1_555
C19 O1 1_555 1_555
C19 O2 1_555 1_555
C5_2 N1_2 1_555 1_555
C7_2 O3_2 1_555 1_555
C11_2 C12_2 1_555 1_555
C13_2 O4_2 1_555 1_555
C15_2 N2_2 1_555 1_555
C18_2 N2_2 1_555 1_555
C19A O2A 1_555 1_555

#END
