
#######################################################################
#
#                 Cambridge Crystallographic Data Centre
#                                CCDC 
#
#######################################################################
#
# If this CIF has been generated from an entry in the Cambridge 
# Structural Database, then it will include bibliographic, chemical, 
# crystal, experimental, refinement or atomic coordinate data resulting 
# from the CCDC's data processing and validation procedures.
#
#######################################################################

data_HIPZEN
_symmetry_cell_setting           orthorhombic
_symmetry_space_group_name_H-M   'P 21 21 21'
_symmetry_Int_Tables_number      19
_space_group_name_Hall           'P 2ac 2ab'
loop_
_symmetry_equiv_pos_site_id
_symmetry_equiv_pos_as_xyz
1 x,y,z
2 1/2-x,-y,1/2+z
3 -x,1/2+y,1/2-z
4 1/2+x,1/2-y,-z
_cell_length_a                   17.070(3)
_cell_length_b                   17.240(3)
_cell_length_c                   28.560(5)
_cell_angle_alpha                90
_cell_angle_beta                 90
_cell_angle_gamma                90
_cell_volume                     8404.83
loop_
_atom_site_label
_atom_site_type_symbol
_atom_site_fract_x
_atom_site_fract_y
_atom_site_fract_z
Cl5 Cl -0.10812(14) 0.33050(16) 0.11920(9)
Cl6 Cl 0.04174(15) 0.18683(19) 0.19615(10)
Cl7 Cl 0.11950(14) 0.37698(17) 0.11792(8)
Cl8 Cl -0.00422(16) 0.4004(2) 0.23623(11)
Cd2 Cd 0.01477(4) 0.31780(6) 0.16556(3)
O1 O 0.0069(3) 0.2762(4) -0.3041(2)
O2 O 0.0629(4) 0.1632(5) -0.3767(3)
O3 O 0.2089(5) 0.2749(4) -0.4028(2)
O4 O 0.1817(6) 0.7331(5) -0.1669(4)
Ca1 Ca 0.14016(9) 0.25163(10) -0.33204(6)
Ca2 Ca 0.2618(2) 0.67839(19) -0.10829(11)
C1 C 0.1086(5) 0.4517(5) -0.3533(2)
C2 C 0.0796(4) 0.5830(5) -0.3550(3)
H1 H 0.0695 0.6103 -0.3849
C3 C 0.1694(4) 0.5713(5) -0.3457(3)
H2 H 0.2020 0.5986 -0.3691
C4 C 0.1101(5) 0.6382(5) -0.2841(3)
C5 C 0.2531(4) 0.4514(5) -0.3460(2)
H3 H 0.2905 0.4820 -0.3643
H4 H 0.2486 0.4005 -0.3610
C6 C 0.2515(4) 0.6245(4) -0.2790(3)
H5 H 0.2463 0.6688 -0.2577
H6 H 0.2865 0.6400 -0.3046
C7 C 0.2725(5) 0.3752(6) -0.2736(3)
C8 C 0.3329(4) 0.4971(5) -0.2762(3)
H7 H 0.3748 0.5179 -0.2966
C9 C 0.3649(5) 0.4514(5) -0.2347(3)
H8 H 0.4205 0.4365 -0.2387
C10 C 0.3067(5) 0.5682(5) -0.2075(3)
C11 C 0.3241(5) 0.3199(5) -0.1992(2)
H9 H 0.3803 0.3091 -0.1970
H10 H 0.2983 0.2732 -0.2113
C12 C 0.3939(5) 0.4959(5) -0.1500(3)
H11 H 0.4440 0.4694 -0.1550
H12 H 0.4051 0.5477 -0.1375
C13 C 0.2391(5) 0.2880(5) -0.1325(3)
C14 C 0.3447(5) 0.3679(5) -0.1154(3)
H13 H 0.3971 0.3432 -0.1154
C15 C 0.2997(4) 0.3529(5) -0.0708(3)
H14 H 0.3337 0.3323 -0.0456
C16 C 0.2961(5) 0.4899(8) -0.0814(3)
C17 C 0.1970(5) 0.2438(5) -0.0531(3)
H15 H 0.1842 0.1955 -0.0695
H16 H 0.2303 0.2310 -0.0263
C18 C 0.2276(5) 0.4411(6) -0.0159(3)
H17 H 0.2288 0.4969 -0.0096
H18 H 0.2569 0.4150 0.0090
C19 C 0.0541(5) 0.2461(6) -0.0474(3)
C20 C 0.1246(5) 0.3341(5) 0.0010(3)
H19 H 0.1538 0.3174 0.0292
C21 C 0.0346(5) 0.3437(5) 0.0091(3)
H20 H 0.0213 0.3290 0.0417
C22 C 0.0824(5) 0.4652(7) -0.0112(3)
C23 C -0.0787(5) 0.2615(5) -0.0169(3)
H21 H -0.0893 0.2598 0.0168
H22 H -0.0809 0.2081 -0.0285
C24 C -0.0567(5) 0.4583(5) 0.0118(3)
H23 H -0.0497 0.5144 0.0150
H24 H -0.0752 0.4384 0.0420
C25 C -0.1711(5) 0.2883(6) -0.0822(3)
C26 C -0.1696(5) 0.3790(5) -0.0227(3)
H25 H -0.1909 0.3731 0.0094
C27 C -0.2365(5) 0.3972(4) -0.0565(3)
H26 H -0.2887 0.3923 -0.0417
C28 C -0.1488(5) 0.5071(6) -0.0493(3)
C29 C -0.2781(4) 0.3305(5) -0.1311(3)
H27 H -0.3312 0.3280 -0.1181
H28 H -0.2668 0.2801 -0.1454
C30 C -0.2754(5) 0.5292(5) -0.0903(3)
H29 H -0.3270 0.5179 -0.0770
H30 H -0.2617 0.5826 -0.0818
C31 C -0.2519(5) 0.3728(6) -0.2116(4)
C32 C -0.3190(4) 0.4609(5) -0.1649(3)
H31 H -0.3725 0.4525 -0.1525
C33 C -0.3216(5) 0.4911(5) -0.2164(3)
H32 H -0.3754 0.4912 -0.2293
C34 C -0.2640(4) 0.5866(5) -0.1703(3)
C35 C -0.2652(5) 0.4280(5) -0.2931(3)
H33 H -0.2578 0.3736 -0.3021
H34 H -0.3143 0.4462 -0.3071
C36 C -0.2808(4) 0.6204(5) -0.2518(3)
H35 H -0.2771 0.6735 -0.2397
H36 H -0.3270 0.6174 -0.2721
C37 C -0.1346(5) 0.4407(6) -0.3273(3)
C38 C -0.2070(4) 0.5560(5) -0.3213(3)
H37 H -0.2502 0.5681 -0.3433
C39 C -0.1261(5) 0.5748(5) -0.3420(3)
H38 H -0.1303 0.6029 -0.3721
C40 C -0.1396(4) 0.6388(5) -0.2717(3)
C41 C -0.0246(5) 0.4837(5) -0.3770(3)
H39 H -0.0303 0.5125 -0.4064
H40 H -0.0242 0.4283 -0.3847
C42 C -0.0226(4) 0.6697(4) -0.3154(3)
H41 H -0.0208 0.7106 -0.2916
H42 H -0.0288 0.6948 -0.3460
N1 N 0.0503(4) 0.5041(4) -0.3556(2)
N2 N 0.1787(4) 0.4886(4) -0.3483(2)
N3 N 0.0520(3) 0.6268(4) -0.3148(2)
N4 N 0.1773(4) 0.6068(4) -0.2978(2)
N5 N 0.2845(3) 0.4408(4) -0.2997(2)
N6 N 0.3116(4) 0.3833(4) -0.2317(2)
N7 N 0.2882(4) 0.5582(4) -0.2529(2)
N8 N 0.3529(4) 0.5038(4) -0.1955(2)
N9 N 0.2934(4) 0.3371(4) -0.1523(2)
N10 N 0.2409(4) 0.2964(4) -0.0857(2)
N11 N 0.3490(4) 0.4534(5) -0.1163(3)
N12 N 0.2636(4) 0.4272(5) -0.0577(2)
N13 N 0.1270(4) 0.2791(4) -0.0370(2)
N14 N -0.0021(4) 0.2897(4) -0.0235(2)
N15 N 0.1441(4) 0.4138(4) -0.0148(3)
N16 N 0.0168(4) 0.4242(4) 0.0016(3)
N17 N -0.1394(4) 0.3049(4) -0.0389(2)
N18 N -0.2250(4) 0.3424(4) -0.0939(2)
N19 N -0.1168(4) 0.4433(4) -0.0238(2)
N20 N -0.2182(4) 0.4768(4) -0.0698(2)
N21 N -0.2768(4) 0.3900(4) -0.1680(2)
N22 N -0.2703(4) 0.4340(4) -0.2405(3)
N23 N -0.2797(4) 0.5233(4) -0.1405(2)
N24 N -0.2900(4) 0.5673(4) -0.2131(3)
N25 N -0.2025(4) 0.4727(4) -0.3101(2)
N26 N -0.0913(4) 0.4995(4) -0.3478(2)
N27 N -0.2105(4) 0.6024(4) -0.2791(2)
N28 N -0.0896(3) 0.6211(4) -0.3067(2)
O5 O 0.1015(3) 0.3805(4) -0.35720(19)
O6 O 0.2327(3) 0.3198(3) -0.28370(18)
O7 O 0.1949(4) 0.2437(4) -0.1539(2)
O8 O 0.0433(3) 0.1906(3) -0.07390(19)
O9 O -0.1496(4) 0.2299(4) -0.1069(2)
O10 O -0.2186(3) 0.3124(4) -0.2247(2)
O11 O -0.1176(3) 0.3724(4) -0.3280(2)
O12 O 0.1002(3) 0.6741(3) -0.24555(19)
O13 O 0.2888(4) 0.6180(4) -0.1805(2)
O14 O 0.2881(4) 0.5562(4) -0.0782(2)
O15 O 0.0868(4) 0.5367(4) -0.0188(3)
O16 O -0.1227(4) 0.5715(4) -0.0517(2)
O17 O -0.2334(3) 0.6463(3) -0.15688(19)
O18 O -0.1260(3) 0.6858(4) -0.23948(19)
Ca1B Ca -0.14016(9) 0.75163(10) -0.16796(6)
O17B O 0.2334(3) 0.1463(3) -0.34312(19)
O18B O 0.1260(3) 0.1858(4) -0.26052(19)
Cl1 Cl -0.09460(12) 0.03749(17) -0.02806(8)
Cl2 Cl 0.15292(13) 0.02475(18) -0.03070(8)
Cl3 Cl 0.02443(17) -0.07840(19) 0.06642(11)
Cl4 Cl 0.04021(15) 0.15433(17) 0.06181(9)
Cd1 Cd 0.02947(4) 0.03775(5) 0.01484(2)
Cd3? Cd -0.0070(7) 0.3950(11) 0.1538(4)
loop_
_geom_bond_atom_site_label_1
_geom_bond_atom_site_label_2
_geom_bond_site_symmetry_1
_geom_bond_site_symmetry_2
Cl1 Cd1 1_555 1_555
Cl2 Cd1 1_555 1_555
Cl3 Cd1 1_555 1_555
Cl4 Cd1 1_555 1_555
Cl5 Cd2 1_555 1_555
Cl6 Cd2 1_555 1_555
Cl7 Cd2 1_555 1_555
Cl8 Cd2 1_555 1_555
O1 Ca1 1_555 1_555
O2 Ca1 1_555 1_555
O3 Ca1 1_555 1_555
O4 Ca2 1_555 1_555
Ca1 O5 1_555 1_555
Ca2 O13 1_555 1_555
C1 N1 1_555 1_555
C2 H1 1_555 1_555
C3 C2 1_555 1_555
H2 C3 1_555 1_555
C4 N3 1_555 1_555
C5 H3 1_555 1_555
H4 C5 1_555 1_555
C6 H5 1_555 1_555
H6 C6 1_555 1_555
C7 N5 1_555 1_555
C8 H7 1_555 1_555
C9 C8 1_555 1_555
H8 C9 1_555 1_555
C10 N7 1_555 1_555
C11 H9 1_555 1_555
H10 C11 1_555 1_555
C12 H11 1_555 1_555
H12 C12 1_555 1_555
C13 N9 1_555 1_555
C14 H13 1_555 1_555
C15 C14 1_555 1_555
H14 C15 1_555 1_555
C16 N11 1_555 1_555
C17 H15 1_555 1_555
H16 C17 1_555 1_555
C18 H17 1_555 1_555
H18 C18 1_555 1_555
C19 N13 1_555 1_555
C20 H19 1_555 1_555
C21 C20 1_555 1_555
H20 C21 1_555 1_555
C22 N15 1_555 1_555
C23 H21 1_555 1_555
H22 C23 1_555 1_555
C24 H23 1_555 1_555
H24 C24 1_555 1_555
C25 N17 1_555 1_555
C26 H25 1_555 1_555
C27 C26 1_555 1_555
H26 C27 1_555 1_555
C28 N19 1_555 1_555
C29 H27 1_555 1_555
H28 C29 1_555 1_555
C30 H29 1_555 1_555
H30 C30 1_555 1_555
C31 N21 1_555 1_555
C32 H31 1_555 1_555
C33 C32 1_555 1_555
H32 C33 1_555 1_555
C34 N23 1_555 1_555
C35 H33 1_555 1_555
H34 C35 1_555 1_555
C36 H35 1_555 1_555
H36 C36 1_555 1_555
C37 N25 1_555 1_555
C38 H37 1_555 1_555
C39 C38 1_555 1_555
H38 C39 1_555 1_555
C40 N27 1_555 1_555
C41 H39 1_555 1_555
H40 C41 1_555 1_555
C42 H41 1_555 1_555
H42 C42 1_555 1_555
N1 C2 1_555 1_555
N2 C1 1_555 1_555
N3 C2 1_555 1_555
N4 C3 1_555 1_555
N5 C5 1_555 1_555
N6 C7 1_555 1_555
N7 C6 1_555 1_555
N8 C9 1_555 1_555
N9 C11 1_555 1_555
N10 C13 1_555 1_555
N11 C12 1_555 1_555
N12 C15 1_555 1_555
N13 C17 1_555 1_555
N14 C19 1_555 1_555
N15 C18 1_555 1_555
N16 C21 1_555 1_555
N17 C23 1_555 1_555
N18 C25 1_555 1_555
N19 C24 1_555 1_555
N20 C27 1_555 1_555
N21 C29 1_555 1_555
N22 C31 1_555 1_555
N23 C30 1_555 1_555
N24 C33 1_555 1_555
N25 C35 1_555 1_555
N26 C37 1_555 1_555
N27 C36 1_555 1_555
N28 C39 1_555 1_555
O5 C1 1_555 1_555
O6 Ca1 1_555 1_555
O7 C13 1_555 1_555
O8 C19 1_555 1_555
O9 C25 1_555 1_555
O10 C31 1_555 1_555
O11 C37 1_555 1_555
O12 C4 1_555 1_555
O13 C10 1_555 1_555
O14 Ca2 1_555 1_555
O15 C22 1_555 1_555
O16 C28 1_555 1_555
O17 C34 1_555 1_555
O18 C40 1_555 1_555
Ca1B O17 1_555 1_555
O17B Ca1 1_555 1_555
O18B Ca1 1_555 1_555
C3 N2 1_555 1_555
C4 N4 1_555 1_555
C5 N2 1_555 1_555
C6 N4 1_555 1_555
C7 O6 1_555 1_555
C8 N5 1_555 1_555
C8 N7 1_555 1_555
C9 N6 1_555 1_555
C10 N8 1_555 1_555
C11 N6 1_555 1_555
C12 N8 1_555 1_555
C14 N9 1_555 1_555
C14 N11 1_555 1_555
C15 N10 1_555 1_555
C16 N12 1_555 1_555
C16 O14 1_555 1_555
C17 N10 1_555 1_555
C18 N12 1_555 1_555
C20 N13 1_555 1_555
C20 N15 1_555 1_555
C21 N14 1_555 1_555
C22 N16 1_555 1_555
C23 N14 1_555 1_555
C24 N16 1_555 1_555
C26 N17 1_555 1_555
C26 N19 1_555 1_555
C27 N18 1_555 1_555
C28 N20 1_555 1_555
C29 N18 1_555 1_555
C30 N20 1_555 1_555
C32 N21 1_555 1_555
C32 N23 1_555 1_555
C33 N22 1_555 1_555
C34 N24 1_555 1_555
C35 N22 1_555 1_555
C36 N24 1_555 1_555
C38 N25 1_555 1_555
C38 N27 1_555 1_555
C39 N26 1_555 1_555
C40 N28 1_555 1_555
C41 N1 1_555 1_555
C41 N26 1_555 1_555
C42 N3 1_555 1_555
C42 N28 1_555 1_555
O18 Ca1B 1_555 1_555

#END
