
#######################################################################
#
#                 Cambridge Crystallographic Data Centre
#                                CCDC 
#
#######################################################################
#
# If this CIF has been generated from an entry in the Cambridge 
# Structural Database, then it will include bibliographic, chemical, 
# crystal, experimental, refinement or atomic coordinate data resulting 
# from the CCDC's data processing and validation procedures.
#
#######################################################################

data_HIQBIT
_symmetry_cell_setting           orthorhombic
_symmetry_space_group_name_H-M   'P b c a'
_symmetry_Int_Tables_number      61
_space_group_name_Hall           '-P 2ac 2ab'
loop_
_symmetry_equiv_pos_site_id
_symmetry_equiv_pos_as_xyz
1 x,y,z
2 1/2-x,-y,1/2+z
3 -x,1/2+y,1/2-z
4 1/2+x,1/2-y,-z
5 -x,-y,-z
6 1/2+x,y,1/2-z
7 x,1/2-y,1/2+z
8 1/2-x,1/2+y,z
_cell_length_a                   13.9501(3)
_cell_length_b                   6.86960(10)
_cell_length_c                   21.8409(4)
_cell_angle_alpha                90
_cell_angle_beta                 90
_cell_angle_gamma                90
_cell_volume                     2093.05
loop_
_atom_site_label
_atom_site_type_symbol
_atom_site_fract_x
_atom_site_fract_y
_atom_site_fract_z
Eu1 Eu 0.831538(8) 1.019333(16) 0.445256(5)
O1 O 0.86262(14) 1.0402(3) 0.55012(7)
O2 O 1.00832(12) 0.9242(3) 0.56773(7)
C1 C 0.92483(18) 0.9674(3) 0.58479(10)
C2 C 0.89791(18) 0.9259(3) 0.65008(10)
C3 C 0.8072(2) 0.9723(4) 0.67128(12)
H1 H 0.7629 1.0296 0.6450
C4 C 0.7821(2) 0.9335(4) 0.73152(11)
H2 H 0.7210 0.9645 0.7455
C5 C 0.84800(18) 0.8486(4) 0.77108(11)
C6 C 0.82002(19) 0.7999(4) 0.83558(11)
C7 C 0.9384(2) 0.8024(4) 0.74985(11)
H3 H 0.9828 0.7457 0.7762
C8 C 0.96347(19) 0.8400(4) 0.68955(11)
H4 H 1.0244 0.8076 0.6755
O3 O 0.74136(14) 0.8621(3) 0.85578(8)
O4 O 0.87738(14) 0.6966(3) 0.86622(8)
O5 O 0.66579(12) 0.8740(3) 0.45395(8)
O6 O 0.67471(12) 1.1767(2) 0.48308(8)
C9 C 0.6250(2) 1.0308(4) 0.46890(13)
C10 C 0.5164(2) 1.0421(4) 0.46964(14)
H5 H 0.4897 0.9678 0.4359
H6 H 0.4955 1.1762 0.4658
Eu1D Eu 1.168462(8) 0.980667(16) 0.554744(5)
Eu1A Eu 0.668462(8) 0.980667(16) 0.945256(5)
Eu1F Eu 0.831538(8) 0.480667(16) 0.945256(5)
Eu1G Eu 0.668462(8) 0.519333(16) 0.445256(5)
Eu1G_2 Eu 0.668462(8) 1.519333(16) 0.445256(5)
Eu1D_2 Eu 0.168462(8) 0.980667(16) 0.554744(5)
Eu1C Eu 0.331538(8) 1.480667(16) 0.554744(5)
Eu1C_2 Eu 0.331538(8) 0.480667(16) 0.554744(5)
Eu1E Eu 1.331538(8) 1.019333(16) 0.054744(5)
Eu1B Eu 1.168462(8) 1.519333(16) 0.054744(5)
O1D O 1.13738(14) 0.9598(3) 0.44988(7)
O2D O 0.99168(12) 1.0758(3) 0.43227(7)
C1D C 1.07517(18) 1.0326(3) 0.41521(10)
C2D C 1.10209(18) 1.0741(3) 0.34992(10)
C3D C 1.1928(2) 1.0277(4) 0.32872(12)
H1D H 1.2371 0.9704 0.3550
C4D C 1.2179(2) 1.0665(4) 0.26848(11)
H2D H 1.2790 1.0355 0.2545
C5D C 1.15200(18) 1.1514(4) 0.22892(11)
C6D C 1.17998(19) 1.2001(4) 0.16442(11)
C7D C 1.0616(2) 1.1976(4) 0.25015(11)
H3D H 1.0172 1.2543 0.2238
C8D C 1.03653(19) 1.1600(4) 0.31045(11)
H4D H 0.9756 1.1924 0.3245
O3D O 1.25864(14) 1.1379(3) 0.14422(8)
O3A O 0.75864(14) 1.1379(3) 0.35578(8)
O3E O 1.24136(14) 0.8621(3) 0.64422(8)
O4D O 1.12262(14) 1.3034(3) 0.13378(8)
O4F O 0.87738(14) 0.8034(3) 0.36622(8)
O4B O 1.12262(14) 1.1966(3) 0.63378(8)
O5D O 0.33421(12) 1.1260(3) 0.54605(8)
O5G O 0.83421(12) 1.3740(3) 0.45395(8)
O5D_2 O 1.33421(12) 1.1260(3) 0.54605(8)
O5C O 1.16579(12) 0.6260(3) 0.54605(8)
O6D O 0.32529(12) 0.8233(2) 0.51692(8)
O6G O 0.82529(12) 0.6767(2) 0.48308(8)
O6D_2 O 1.32529(12) 0.8233(2) 0.51692(8)
O6C O 1.17471(12) 1.3233(2) 0.51692(8)
C9D C 0.3750(2) 0.9692(4) 0.53110(13)
C10D C 0.4836(2) 0.9579(4) 0.53036(14)
H5D H 0.5103 1.0322 0.5641
H6D H 0.5045 0.8238 0.5342
loop_
_geom_bond_atom_site_label_1
_geom_bond_atom_site_label_2
_geom_bond_site_symmetry_1
_geom_bond_site_symmetry_2
Eu1 O1 1_555 1_555
O1 C1 1_555 1_555
O2 C1 1_555 1_555
C1 C2 1_555 1_555
C2 C3 1_555 1_555
C3 H1 1_555 1_555
C4 C3 1_555 1_555
H2 C4 1_555 1_555
C5 C4 1_555 1_555
C6 C5 1_555 1_555
C7 C5 1_555 1_555
H3 C7 1_555 1_555
C8 C2 1_555 1_555
H4 C8 1_555 1_555
O3 C6 1_555 1_555
O4 C6 1_555 1_555
O5 Eu1 1_555 1_555
O6 Eu1 1_555 1_555
C9 O5 1_555 1_555
C10 C9 1_555 1_555
H5 C10 1_555 1_555
H6 C10 1_555 1_555
Eu1D O2 1_555 1_555
Eu1A O3 1_555 1_555
Eu1F O4 1_555 1_555
Eu1G O5 1_555 1_555
Eu1G_2 O6 1_555 1_555
Eu1D_2 O5D 1_555 1_555
Eu1C O5D 1_555 1_555
Eu1C_2 O6D 1_555 1_555
Eu1E O3D 1_555 1_555
Eu1B O4D 1_555 1_555
O1D Eu1D 1_555 1_555
O2D Eu1 1_555 1_555
C1D O1D 1_555 1_555
C2D C1D 1_555 1_555
C3D C2D 1_555 1_555
H1D C3D 1_555 1_555
C4D C3D 1_555 1_555
H2D C4D 1_555 1_555
C5D C4D 1_555 1_555
C6D C5D 1_555 1_555
C7D C5D 1_555 1_555
H3D C7D 1_555 1_555
C8D C2D 1_555 1_555
H4D C8D 1_555 1_555
O3D C6D 1_555 1_555
O3A Eu1 1_555 1_555
O3E Eu1D 1_555 1_555
O4D C6D 1_555 1_555
O4F Eu1 1_555 1_555
O4B Eu1D 1_555 1_555
O5D C9D 1_555 1_555
O5G Eu1 1_555 1_555
O5D_2 Eu1D 1_555 1_555
O5C Eu1D 1_555 1_555
O6D Eu1D_2 1_555 1_555
O6G Eu1 1_555 1_555
O6D_2 Eu1D 1_555 1_555
O6C Eu1D 1_555 1_555
C9D O6D 1_555 1_555
C10D C10 1_555 1_555
H5D C10D 1_555 1_555
H6D C10D 1_555 1_555
C7 C8 1_555 1_555
O6 C9 1_555 1_555
Eu1G O6G 1_555 1_555
Eu1G_2 O5G 1_555 1_555
O2D C1D 1_555 1_555
C7D C8D 1_555 1_555
C9D C10D 1_555 1_555

#END
