
#######################################################################
#
#                 Cambridge Crystallographic Data Centre
#                                CCDC 
#
#######################################################################
#
# If this CIF has been generated from an entry in the Cambridge 
# Structural Database, then it will include bibliographic, chemical, 
# crystal, experimental, refinement or atomic coordinate data resulting 
# from the CCDC's data processing and validation procedures.
#
#######################################################################

data_HIQBOZ
_symmetry_cell_setting           orthorhombic
_symmetry_space_group_name_H-M   'P b c a'
_symmetry_Int_Tables_number      61
_space_group_name_Hall           '-P 2ac 2ab'
loop_
_symmetry_equiv_pos_site_id
_symmetry_equiv_pos_as_xyz
1 x,y,z
2 1/2-x,-y,1/2+z
3 -x,1/2+y,1/2-z
4 1/2+x,1/2-y,-z
5 -x,-y,-z
6 1/2+x,y,1/2-z
7 x,1/2-y,1/2+z
8 1/2-x,1/2+y,z
_cell_length_a                   13.9896(2)
_cell_length_b                   6.89230(10)
_cell_length_c                   21.8748(3)
_cell_angle_alpha                90
_cell_angle_beta                 90
_cell_angle_gamma                90
_cell_volume                     2109.18
loop_
_atom_site_label
_atom_site_type_symbol
_atom_site_fract_x
_atom_site_fract_y
_atom_site_fract_z
Sm1 Sm 0.831769(9) 1.01978(2) 0.445280(7)
O1 O 0.86274(16) 1.0413(3) 0.55071(9)
O2 O 1.00773(15) 0.9231(3) 0.56802(10)
C1 C 0.9245(2) 0.9670(4) 0.58552(13)
C2 C 0.8979(2) 0.9258(5) 0.65030(13)
C3 C 0.8072(2) 0.9726(5) 0.67140(16)
H1 H 0.7629 1.0297 0.6452
C4 C 0.7827(2) 0.9339(5) 0.73188(15)
H2 H 0.7220 0.9658 0.7460
C5 C 0.8480(2) 0.8480(5) 0.77128(15)
C6 C 0.8204(2) 0.7994(5) 0.83569(15)
C7 C 0.9386(2) 0.8012(6) 0.74961(16)
H3 H 0.9828 0.7441 0.7757
C8 C 0.9635(2) 0.8391(5) 0.68950(15)
H4 H 1.0241 0.8065 0.6754
O3 O 0.74192(17) 0.8604(4) 0.85596(10)
O4 O 0.87809(19) 0.6959(4) 0.86582(11)
O5 O 0.67416(15) 1.1773(3) 0.48285(10)
O6 O 0.66547(15) 0.8740(3) 0.45425(11)
C9 C 0.6247(2) 1.0309(5) 0.46912(17)
C10 C 0.5163(2) 1.0420(5) 0.46982(17)
H5 H 0.4954 1.1757 0.4661
H6 H 0.4897 0.9682 0.4361
Sm1D Sm 1.168231(9) 0.98022(2) 0.554720(7)
Sm1A Sm 0.668231(9) 0.98022(2) 0.945280(7)
Sm1F Sm 0.831769(9) 0.48022(2) 0.945280(7)
Sm1G Sm 0.668231(9) 1.51978(2) 0.445280(7)
Sm1G_2 Sm 0.668231(9) 0.51978(2) 0.445280(7)
Sm1D_2 Sm 0.168231(9) 0.98022(2) 0.554720(7)
Sm1C Sm 0.331769(9) 0.48022(2) 0.554720(7)
Sm1C_2 Sm 0.331769(9) 1.48022(2) 0.554720(7)
Sm1E Sm 1.331769(9) 1.01978(2) 0.054720(7)
Sm1B Sm 1.168231(9) 1.51978(2) 0.054720(7)
O1D O 1.13726(16) 0.9587(3) 0.44929(9)
O2D O 0.99227(15) 1.0769(3) 0.43198(10)
C1D C 1.0755(2) 1.0330(4) 0.41448(13)
C2D C 1.1021(2) 1.0742(5) 0.34970(13)
C3D C 1.1928(2) 1.0274(5) 0.32860(16)
H1D H 1.2371 0.9703 0.3548
C4D C 1.2173(2) 1.0661(5) 0.26812(15)
H2D H 1.2780 1.0342 0.2540
C5D C 1.1520(2) 1.1520(5) 0.22872(15)
C6D C 1.1796(2) 1.2006(5) 0.16431(15)
C7D C 1.0614(2) 1.1988(6) 0.25039(16)
H3D H 1.0172 1.2559 0.2243
C8D C 1.0365(2) 1.1609(5) 0.31050(15)
H4D H 0.9759 1.1935 0.3246
O3D O 1.25808(17) 1.1396(4) 0.14404(10)
O3A O 0.75808(17) 1.1396(4) 0.35596(10)
O3E O 1.24192(17) 0.8604(4) 0.64404(10)
O4D O 1.12191(19) 1.3041(4) 0.13418(11)
O4F O 0.87809(19) 0.8041(4) 0.36582(11)
O4B O 1.12191(19) 1.1959(4) 0.63418(11)
O5D O 0.32584(15) 0.8227(3) 0.51715(10)
O5G O 0.82584(15) 0.6773(3) 0.48285(10)
O5D_2 O 1.32584(15) 0.8227(3) 0.51715(10)
O5C O 1.17416(15) 1.3227(3) 0.51715(10)
O6D O 0.33453(15) 1.1260(3) 0.54575(11)
O6G O 0.83453(15) 1.3740(3) 0.45425(11)
O6D_2 O 1.33453(15) 1.1260(3) 0.54575(11)
O6C O 1.16547(15) 0.6260(3) 0.54575(11)
C9D C 0.3753(2) 0.9691(5) 0.53088(17)
C10D C 0.4837(2) 0.9580(5) 0.53018(17)
H5D H 0.5046 0.8243 0.5339
H6D H 0.5103 1.0318 0.5639
loop_
_geom_bond_atom_site_label_1
_geom_bond_atom_site_label_2
_geom_bond_site_symmetry_1
_geom_bond_site_symmetry_2
Sm1 O1 1_555 1_555
O1 C1 1_555 1_555
O2 C1 1_555 1_555
C1 C2 1_555 1_555
C2 C3 1_555 1_555
C3 H1 1_555 1_555
C4 C3 1_555 1_555
H2 C4 1_555 1_555
C5 C4 1_555 1_555
C6 C5 1_555 1_555
C7 C5 1_555 1_555
H3 C7 1_555 1_555
C8 C2 1_555 1_555
H4 C8 1_555 1_555
O3 C6 1_555 1_555
O4 C6 1_555 1_555
O5 Sm1 1_555 1_555
O6 Sm1 1_555 1_555
C9 O5 1_555 1_555
C10 C9 1_555 1_555
H5 C10 1_555 1_555
H6 C10 1_555 1_555
Sm1D O2 1_555 1_555
Sm1A O3 1_555 1_555
Sm1F O4 1_555 1_555
Sm1G O5 1_555 1_555
Sm1G_2 O6 1_555 1_555
Sm1D_2 O5D 1_555 1_555
Sm1C O5D 1_555 1_555
Sm1C_2 O6D 1_555 1_555
Sm1E O3D 1_555 1_555
Sm1B O4D 1_555 1_555
O1D Sm1D 1_555 1_555
O2D Sm1 1_555 1_555
C1D O1D 1_555 1_555
C2D C1D 1_555 1_555
C3D C2D 1_555 1_555
H1D C3D 1_555 1_555
C4D C3D 1_555 1_555
H2D C4D 1_555 1_555
C5D C4D 1_555 1_555
C6D C5D 1_555 1_555
C7D C5D 1_555 1_555
H3D C7D 1_555 1_555
C8D C2D 1_555 1_555
H4D C8D 1_555 1_555
O3D C6D 1_555 1_555
O3A Sm1 1_555 1_555
O3E Sm1D 1_555 1_555
O4D C6D 1_555 1_555
O4F Sm1 1_555 1_555
O4B Sm1D 1_555 1_555
O5D C9D 1_555 1_555
O5G Sm1 1_555 1_555
O5D_2 Sm1D 1_555 1_555
O5C Sm1D 1_555 1_555
O6D Sm1D_2 1_555 1_555
O6G Sm1 1_555 1_555
O6D_2 Sm1D 1_555 1_555
O6C Sm1D 1_555 1_555
C9D O6D 1_555 1_555
C10D C10 1_555 1_555
H5D C10D 1_555 1_555
H6D C10D 1_555 1_555
C7 C8 1_555 1_555
O6 C9 1_555 1_555
Sm1G O6G 1_555 1_555
Sm1G_2 O5G 1_555 1_555
O2D C1D 1_555 1_555
C7D C8D 1_555 1_555
C9D C10D 1_555 1_555

#END
