
#######################################################################
#
#                 Cambridge Crystallographic Data Centre
#                                CCDC 
#
#######################################################################
#
# If this CIF has been generated from an entry in the Cambridge 
# Structural Database, then it will include bibliographic, chemical, 
# crystal, experimental, refinement or atomic coordinate data resulting 
# from the CCDC's data processing and validation procedures.
#
#######################################################################

data_HIQBOZ01
_symmetry_cell_setting           orthorhombic
_symmetry_space_group_name_H-M   'P b c a'
_symmetry_Int_Tables_number      61
_space_group_name_Hall           '-P 2ac 2ab'
loop_
_symmetry_equiv_pos_site_id
_symmetry_equiv_pos_as_xyz
1 x,y,z
2 1/2-x,-y,1/2+z
3 -x,1/2+y,1/2-z
4 1/2+x,1/2-y,-z
5 -x,-y,-z
6 1/2+x,y,1/2-z
7 x,1/2-y,1/2+z
8 1/2-x,1/2+y,z
_cell_length_a                   14.0029(17)
_cell_length_b                   6.8928(8)
_cell_length_c                   21.883(3)
_cell_angle_alpha                90
_cell_angle_beta                 90
_cell_angle_gamma                90
_cell_volume                     2112.13
loop_
_atom_site_label
_atom_site_type_symbol
_atom_site_fract_x
_atom_site_fract_y
_atom_site_fract_z
H1 H 1.021(4) 0.961(8) 0.567(3)
H2 H 1.017(4) 1.164(9) 0.532(3)
H3 H 0.482(4) 0.799(9) 0.323(3)
H4 H 0.517(4) 0.751(8) 0.223(2)
H5 H 0.780(4) 0.954(8) 0.254(3)
H6 H 0.739(4) 1.033(8) 0.362(3)
Sm1 Sm 0.668395(16) 1.01752(3) 0.554634(10)
C1 C 0.6021(3) 0.9277(7) 0.3497(2)
C2 C 0.6930(4) 0.9714(8) 0.3281(2)
C3 C 0.7168(4) 0.9353(8) 0.2682(2)
C4 C 0.6521(4) 0.8516(7) 0.2288(2)
C5 C 0.5612(4) 0.8050(9) 0.2495(3)
C6 C 0.5365(4) 0.8425(9) 0.3099(3)
C7 C 0.5757(3) 0.9679(7) 0.4148(2)
C8 C 0.8750(4) 1.0286(8) 0.5295(3)
C9 C 0.9844(5) 1.0402(9) 0.5298(3)
C10 C 0.6801(4) 0.8004(7) 0.1644(2)
O1 O 0.6372(2) 1.0391(5) 0.44959(14)
O2 O 0.8257(2) 1.1756(5) 0.51699(15)
O3 O 0.8346(2) 0.8726(5) 0.54538(17)
O4 O 0.6224(3) 0.6991(6) 0.13382(16)
O5 O 0.4918(2) 0.9240(5) 0.43140(15)
O6 O 0.7582(3) 0.8628(6) 0.14412(16)
H1D H 0.979(4) 1.039(8) 0.433(3)
H2D H 0.983(4) 0.836(9) 0.468(3)
H3D H 0.518(4) 1.201(9) 0.677(3)
H4D H 0.483(4) 1.249(8) 0.777(2)
H5D H 0.220(4) 1.046(8) 0.746(3)
H6D H 0.261(4) 0.967(8) 0.638(3)
Sm1D Sm 0.331605(16) 0.98248(3) 0.445366(10)
Sm1A Sm 0.831605(16) 0.98248(3) 0.054634(10)
Sm1B Sm 0.331605(16) 1.51752(3) 0.945366(10)
Sm1C Sm 1.168395(16) 0.48248(3) 0.445366(10)
Sm1C_2 Sm 1.168395(16) 1.48248(3) 0.445366(10)
Sm1D_2 Sm 1.331605(16) 0.98248(3) 0.445366(10)
Sm1E Sm 0.168395(16) 1.01752(3) 0.945366(10)
Sm1F Sm 0.668395(16) 0.48248(3) 0.054634(10)
Sm1G Sm 0.831605(16) 0.51752(3) 0.554634(10)
Sm1G_2 Sm 0.831605(16) 1.51752(3) 0.554634(10)
C1D C 0.3979(3) 1.0723(7) 0.6503(2)
C2D C 0.3070(4) 1.0286(8) 0.6719(2)
C3D C 0.2832(4) 1.0647(8) 0.7318(2)
C4D C 0.3479(4) 1.1484(7) 0.7712(2)
C5D C 0.4388(4) 1.1950(9) 0.7505(3)
C6D C 0.4635(4) 1.1575(9) 0.6901(3)
C7D C 0.4243(3) 1.0321(7) 0.5852(2)
C8D C 1.1250(4) 0.9714(8) 0.4705(3)
C9D C 1.0156(5) 0.9598(9) 0.4702(3)
C10D C 0.3199(4) 1.1996(7) 0.8356(2)
O1D O 0.3628(2) 0.9609(5) 0.55041(14)
O2D O 1.1743(2) 0.8244(5) 0.48301(15)
O2C O 0.3257(2) 1.3244(5) 0.48301(15)
O2G O 0.6743(2) 0.6756(5) 0.51699(15)
O2D_2 O 0.1743(2) 0.8244(5) 0.48301(15)
O3D O 1.1654(2) 1.1274(5) 0.45462(17)
O3C O 0.3346(2) 0.6274(5) 0.45462(17)
O3G O 0.6654(2) 1.3726(5) 0.54538(17)
O3D_2 O 0.1654(2) 1.1274(5) 0.45462(17)
O4D O 0.3776(3) 1.3009(6) 0.86618(16)
O4B O 0.3776(3) 1.1991(6) 0.36618(16)
O4F O 0.6224(3) 0.8009(6) 0.63382(16)
O5D O 0.5082(2) 1.0760(5) 0.56860(15)
O6D O 0.2418(3) 1.1372(6) 0.85588(16)
O6A O 0.7418(3) 1.1372(6) 0.64412(16)
O6E O 0.2582(3) 0.8628(6) 0.35588(16)
loop_
_geom_bond_atom_site_label_1
_geom_bond_atom_site_label_2
_geom_bond_site_symmetry_1
_geom_bond_site_symmetry_2
H1 C9 1_555 1_555
H2 C9 1_555 1_555
H3 C6 1_555 1_555
H4 C5 1_555 1_555
H5 C3 1_555 1_555
H6 C2 1_555 1_555
Sm1 O1 1_555 1_555
C1 C2 1_555 1_555
C2 C3 1_555 1_555
C3 C4 1_555 1_555
C4 C5 1_555 1_555
C5 C6 1_555 1_555
C6 C1 1_555 1_555
C7 C1 1_555 1_555
C8 C9 1_555 1_555
C9 C9D 1_555 1_555
C10 C4 1_555 1_555
O1 C7 1_555 1_555
O2 Sm1 1_555 1_555
O3 Sm1 1_555 1_555
O4 C10 1_555 1_555
O5 C7 1_555 1_555
O6 C10 1_555 1_555
H1D C9D 1_555 1_555
H2D C9D 1_555 1_555
H3D C6D 1_555 1_555
H4D C5D 1_555 1_555
H5D C3D 1_555 1_555
H6D C2D 1_555 1_555
Sm1D O5 1_555 1_555
Sm1A O6 1_555 1_555
Sm1B O4D 1_555 1_555
Sm1C O2D 1_555 1_555
Sm1C_2 O3D 1_555 1_555
Sm1D_2 O2D 1_555 1_555
Sm1E O6D 1_555 1_555
Sm1F O4 1_555 1_555
Sm1G O3 1_555 1_555
Sm1G_2 O2 1_555 1_555
C1D C2D 1_555 1_555
C2D C3D 1_555 1_555
C3D C4D 1_555 1_555
C4D C5D 1_555 1_555
C5D C6D 1_555 1_555
C6D C1D 1_555 1_555
C7D C1D 1_555 1_555
C8D C9D 1_555 1_555
C10D C4D 1_555 1_555
O1D Sm1D 1_555 1_555
O2D C8D 1_555 1_555
O2C Sm1D 1_555 1_555
O2G Sm1 1_555 1_555
O2D_2 Sm1D 1_555 1_555
O3D Sm1D_2 1_555 1_555
O3C Sm1D 1_555 1_555
O3G Sm1 1_555 1_555
O3D_2 Sm1D 1_555 1_555
O4D C10D 1_555 1_555
O4B Sm1D 1_555 1_555
O4F Sm1 1_555 1_555
O5D Sm1 1_555 1_555
O6D C10D 1_555 1_555
O6A Sm1 1_555 1_555
O6E Sm1D 1_555 1_555
C8 O2 1_555 1_555
C8 O3 1_555 1_555
Sm1G O2G 1_555 1_555
Sm1G_2 O3G 1_555 1_555
C7D O1D 1_555 1_555
C7D O5D 1_555 1_555
C8D O3D 1_555 1_555

#END
