
#######################################################################
#
#                 Cambridge Crystallographic Data Centre
#                                CCDC 
#
#######################################################################
#
# If this CIF has been generated from an entry in the Cambridge 
# Structural Database, then it will include bibliographic, chemical, 
# crystal, experimental, refinement or atomic coordinate data resulting 
# from the CCDC's data processing and validation procedures.
#
#######################################################################

data_HIQBIT01
_symmetry_cell_setting           orthorhombic
_symmetry_space_group_name_H-M   'P b c a'
_symmetry_Int_Tables_number      61
_space_group_name_Hall           '-P 2ac 2ab'
loop_
_symmetry_equiv_pos_site_id
_symmetry_equiv_pos_as_xyz
1 x,y,z
2 1/2-x,-y,1/2+z
3 -x,1/2+y,1/2-z
4 1/2+x,1/2-y,-z
5 -x,-y,-z
6 1/2+x,y,1/2-z
7 x,1/2-y,1/2+z
8 1/2-x,1/2+y,z
_cell_length_a                   13.956(3)
_cell_length_b                   6.8726(14)
_cell_length_c                   21.829(4)
_cell_angle_alpha                90
_cell_angle_beta                 90
_cell_angle_gamma                90
_cell_volume                     2093.71
loop_
_atom_site_label
_atom_site_type_symbol
_atom_site_fract_x
_atom_site_fract_y
_atom_site_fract_z
H1 H 0.525(3) 0.040(6) -0.0601(18)
H2 H 0.230(4) -0.043(6) 0.142(2)
H3 H 0.283(4) 0.040(6) 0.241(2)
H4 H -0.026(3) 0.200(6) 0.1767(19)
H5 H 0.022(3) 0.253(6) 0.2755(19)
H6 H 0.518(3) -0.184(7) -0.033(2)
Eu1 Eu 0.168615(10) -0.01910(2) -0.054706(6)
C1 C 0.0752(2) 0.0334(4) 0.08473(13)
C2 C 0.1019(2) 0.0742(5) 0.15012(13)
C3 C 0.1941(3) 0.0295(5) 0.17157(16)
C4 C 0.2181(3) 0.0660(6) 0.23154(15)
C5 C 0.1520(2) 0.1512(5) 0.27093(14)
C6 C 0.0612(3) 0.1980(6) 0.24961(15)
C7 C 0.0362(3) 0.1598(6) 0.18962(15)
C8 C 0.3752(2) -0.0306(5) -0.03092(17)
C9 C 0.4830(3) -0.0435(6) -0.03020(17)
C10 C 0.1801(2) 0.2005(5) 0.33576(14)
O1 O -0.00863(16) 0.0752(4) 0.06804(9)
O2 O 0.25864(18) 0.1380(4) 0.35575(9)
O3 O 0.12253(19) 0.3035(4) 0.36613(10)
O4 O 0.13729(18) -0.0397(3) 0.05009(9)
O5 O 0.33428(15) 0.1268(4) -0.04591(11)
O6 O 0.32533(15) -0.1765(3) -0.01685(10)
H1D H 0.475(3) -0.040(6) 0.0601(18)
H2D H -0.230(4) 0.043(6) -0.142(2)
H3D H -0.283(4) -0.040(6) -0.241(2)
H4D H 0.026(3) -0.200(6) -0.1767(19)
H5D H -0.022(3) -0.253(6) -0.2755(19)
H6D H 0.482(3) 0.184(7) 0.033(2)
Eu1D Eu -0.168615(10) 0.01910(2) 0.054706(6)
Eu1A Eu 0.331385(10) 0.01910(2) 0.445294(6)
Eu1B Eu -0.168615(10) -0.51910(2) -0.445294(6)
Eu1C Eu 0.668615(10) -0.48090(2) 0.054706(6)
Eu1C_2 Eu 0.668615(10) 0.51910(2) 0.054706(6)
Eu1D_2 Eu 0.831385(10) 0.01910(2) 0.054706(6)
Eu1E Eu -0.331385(10) -0.01910(2) -0.445294(6)
Eu1F Eu 0.168615(10) 0.51910(2) 0.445294(6)
Eu1G Eu 0.331385(10) -0.51910(2) -0.054706(6)
Eu1G_2 Eu 0.331385(10) 0.48090(2) -0.054706(6)
C1D C -0.0752(2) -0.0334(4) -0.08473(13)
C2D C -0.1019(2) -0.0742(5) -0.15012(13)
C3D C -0.1941(3) -0.0295(5) -0.17157(16)
C4D C -0.2181(3) -0.0660(6) -0.23154(15)
C5D C -0.1520(2) -0.1512(5) -0.27093(14)
C6D C -0.0612(3) -0.1980(6) -0.24961(15)
C7D C -0.0362(3) -0.1598(6) -0.18962(15)
C8D C 0.6248(2) 0.0306(5) 0.03092(17)
C9D C 0.5170(3) 0.0435(6) 0.03020(17)
C10D C -0.1801(2) -0.2005(5) -0.33576(14)
O1D O 0.00863(16) -0.0752(4) -0.06804(9)
O2D O -0.25864(18) -0.1380(4) -0.35575(9)
O2A O 0.24136(18) -0.1380(4) -0.14425(9)
O2E O -0.24136(18) 0.1380(4) 0.14425(9)
O3D O -0.12253(19) -0.3035(4) -0.36613(10)
O3B O -0.12253(19) -0.1965(4) 0.13387(10)
O3F O 0.12253(19) 0.1965(4) -0.13387(10)
O4D O -0.13729(18) 0.0397(3) -0.05009(9)
O5D O 0.66572(15) -0.1268(4) 0.04591(11)
O5C O -0.16572(15) 0.3732(4) 0.04591(11)
O5G O 0.16572(15) -0.3732(4) -0.04591(11)
O5D_2 O -0.33428(15) -0.1268(4) 0.04591(11)
O6D O 0.67467(15) 0.1765(3) 0.01685(10)
O6C O -0.17467(15) -0.3235(3) 0.01685(10)
O6G O 0.17467(15) 0.3235(3) -0.01685(10)
O6D_2 O -0.32533(15) 0.1765(3) 0.01685(10)
loop_
_geom_bond_atom_site_label_1
_geom_bond_atom_site_label_2
_geom_bond_site_symmetry_1
_geom_bond_site_symmetry_2
H1 C9 1_555 1_555
H2 C3 1_555 1_555
H3 C4 1_555 1_555
H4 C7 1_555 1_555
H5 C6 1_555 1_555
H6 C9 1_555 1_555
Eu1 O4 1_555 1_555
C1 C2 1_555 1_555
C2 C3 1_555 1_555
C3 C4 1_555 1_555
C4 C5 1_555 1_555
C5 C6 1_555 1_555
C6 C7 1_555 1_555
C7 C2 1_555 1_555
C8 C9 1_555 1_555
C9 C9D 1_555 1_555
C10 C5 1_555 1_555
O1 C1 1_555 1_555
O2 C10 1_555 1_555
O3 C10 1_555 1_555
O4 C1 1_555 1_555
O5 Eu1 1_555 1_555
O6 Eu1 1_555 1_555
H1D C9D 1_555 1_555
H2D C3D 1_555 1_555
H3D C4D 1_555 1_555
H4D C7D 1_555 1_555
H5D C6D 1_555 1_555
H6D C9D 1_555 1_555
Eu1D O1 1_555 1_555
Eu1A O2 1_555 1_555
Eu1B O3D 1_555 1_555
Eu1C O5D 1_555 1_555
Eu1C_2 O6D 1_555 1_555
Eu1D_2 O5D 1_555 1_555
Eu1E O2D 1_555 1_555
Eu1F O3 1_555 1_555
Eu1G O6 1_555 1_555
Eu1G_2 O5 1_555 1_555
C1D C2D 1_555 1_555
C2D C3D 1_555 1_555
C3D C4D 1_555 1_555
C4D C5D 1_555 1_555
C5D C6D 1_555 1_555
C6D C7D 1_555 1_555
C7D C2D 1_555 1_555
C8D C9D 1_555 1_555
C10D C5D 1_555 1_555
O1D Eu1 1_555 1_555
O2D C10D 1_555 1_555
O2A Eu1 1_555 1_555
O2E Eu1D 1_555 1_555
O3D C10D 1_555 1_555
O3B Eu1D 1_555 1_555
O3F Eu1 1_555 1_555
O4D Eu1D 1_555 1_555
O5D C8D 1_555 1_555
O5C Eu1D 1_555 1_555
O5G Eu1 1_555 1_555
O5D_2 Eu1D 1_555 1_555
O6D Eu1D_2 1_555 1_555
O6C Eu1D 1_555 1_555
O6G Eu1 1_555 1_555
O6D_2 Eu1D 1_555 1_555
C8 O5 1_555 1_555
C8 O6 1_555 1_555
Eu1G O5G 1_555 1_555
Eu1G_2 O6G 1_555 1_555
C1D O1D 1_555 1_555
C1D O4D 1_555 1_555
C8D O6D 1_555 1_555

#END
