
#######################################################################
#
#                 Cambridge Crystallographic Data Centre
#                                CCDC 
#
#######################################################################
#
# If this CIF has been generated from an entry in the Cambridge 
# Structural Database, then it will include bibliographic, chemical, 
# crystal, experimental, refinement or atomic coordinate data resulting 
# from the CCDC's data processing and validation procedures.
#
#######################################################################

data_HIQCAL
_symmetry_cell_setting           monoclinic
_symmetry_space_group_name_H-M   'C 2/c'
_symmetry_Int_Tables_number      15
_space_group_name_Hall           '-C 2yn'
loop_
_symmetry_equiv_pos_site_id
_symmetry_equiv_pos_as_xyz
1 x,y,z
2 1/2+x,1/2+y,z
3 -x,y,1/2-z
4 1/2-x,1/2+y,1/2-z
5 -x,-y,-z
6 1/2-x,1/2-y,-z
7 x,-y,1/2+z
8 1/2+x,1/2-y,1/2+z
_cell_length_a                   20.160(3)
_cell_length_b                   9.000(2)
_cell_length_c                   24.497(3)
_cell_angle_alpha                90
_cell_angle_beta                 118.47(1)
_cell_angle_gamma                90
_cell_volume                     3907.22
loop_
_atom_site_label
_atom_site_type_symbol
_atom_site_fract_x
_atom_site_fract_y
_atom_site_fract_z
Cu1 Cu 0.25000 0.25000 0.50000
Cu2 Cu 0.50000 0.50000 0.50000
S1 S 0.4315(1) 0.6639(2) 0.66976(9)
S2 S 0.2229(1) 0.2579(2) 0.31081(8)
O1 O 0.3498(2) 0.2290(3) 0.5687(1)
O2 O 0.4394(2) 0.3552(4) 0.6482(2)
O3 O 0.2626(2) 0.4652(3) 0.5337(1)
O4 O 0.2919(2) 0.3237(4) 0.4344(1)
O5 O 0.4011(2) 0.4387(3) 0.4922(1)
O6 O 0.4270(2) 0.4316(4) 0.3934(2)
N1 N 0.4618(2) 0.7070(4) 0.4778(2)
C1 C 0.3776(2) 0.3436(5) 0.6015(2)
C2 C 0.3254(2) 0.4830(5) 0.5788(2)
C3 C 0.3491(2) 0.6256(5) 0.6088(2)
C4 C 0.2942(2) 0.7666(3) 0.5821(1)
C5 C 0.3455(4) 0.8834(6) 0.6266(3)
C6 C 0.4133(4) 0.8356(7) 0.6705(3)
C7 C 0.3518(2) 0.3828(5) 0.4430(2)
C8 C 0.3659(3) 0.3845(5) 0.3854(2)
C9 C 0.3096(3) 0.3296(5) 0.3260(2)
C10 C 0.3240(3) 0.3275(6) 0.2716(2)
C11 C 0.2568(6) 0.2663(9) 0.2232(4)
C12 C 0.2015(4) 0.2250(8) 0.2357(3)
C13 C 0.4291(3) 0.7741(5) 0.5076(3)
C14 C 0.3979(3) 0.9136(6) 0.4911(3)
C15 C 0.3988(3) 0.9833(6) 0.4416(3)
C16 C 0.4328(3) 0.9176(6) 0.4099(3)
C17 C 0.4641(3) 0.7770(5) 0.4302(2)
C18 C 0.4376(4) 0.9910(7) 0.3573(3)
H2 H 0.24389 0.77480 0.54809
H3 H 0.33084 0.98575 0.62357
H4 H 0.44904 0.90196 0.70111
H5 H 0.36864 0.36002 0.27029
H6 H 0.25187 0.25454 0.18246
H7 H 0.15503 0.18292 0.20459
H8 H 0.42712 0.72328 0.54133
H9 H 0.37615 0.96107 0.51386
H10 H 0.39093 1.06572 0.43019
H11 H 0.48849 0.72860 0.40965
H12 H 0.49025 0.99923 0.36920
H13 H 0.41365 0.92503 0.32250
H14 H 0.41595 1.08753 0.34290
O1E O 0.1502(2) 0.2710(3) 0.4313(1)
C1E C 0.1224(2) 0.1564(5) 0.3985(2)
O2E O 0.0606(2) 0.1448(4) 0.3518(2)
C2E C 0.1746(2) 0.0170(5) 0.4212(2)
O3E O 0.2374(2) 0.0348(3) 0.4663(1)
O5D O 0.5989(2) 0.5613(3) 0.5078(1)
C7D C 0.6482(2) 0.6172(5) 0.5570(2)
O4D O 0.7081(2) 0.6763(4) 0.5656(1)
Cu1A Cu 0.75000 0.75000 0.50000
C8D C 0.6341(3) 0.6155(5) 0.6146(2)
O6D O 0.5730(2) 0.5684(4) 0.6066(2)
C9D C 0.6904(3) 0.6704(5) 0.6740(2)
S2D S 0.7771(1) 0.7421(2) 0.68919(8)
C12D C 0.7985(4) 0.7750(8) 0.7643(3)
C11D C 0.7432(6) 0.7337(9) 0.7768(4)
C10D C 0.6760(3) 0.6725(6) 0.7284(2)
H5D H 0.63136 0.63998 0.72971
H6D H 0.74813 0.74546 0.81754
H7D H 0.84497 0.81708 0.79541
N1D N 0.5382(2) 0.2930(4) 0.5222(2)
C13D C 0.5709(3) 0.2259(5) 0.4924(3)
C14D C 0.6021(3) 0.0864(6) 0.5089(3)
C15D C 0.6012(3) 0.0167(6) 0.5584(3)
C16D C 0.5672(3) 0.0824(6) 0.5901(3)
C17D C 0.5359(3) 0.2230(5) 0.5698(2)
H11D H 0.51151 0.27140 0.59035
C18D C 0.5624(4) 0.0090(7) 0.6427(3)
H12D H 0.50975 0.00077 0.63080
H13D H 0.58635 0.07497 0.67750
H14D H 0.58405 -0.08753 0.65710
H10D H 0.60907 -0.06572 0.56981
H9D H 0.62385 0.03893 0.48614
H8D H 0.57288 0.27672 0.45867
O4E O 0.2081(2) 0.1763(4) 0.5656(1)
C3E C 0.1509(2) -0.1256(5) 0.3912(2)
S1E S 0.0685(1) -0.1639(2) 0.33024(9)
C6E C 0.0867(4) -0.3356(7) 0.3295(3)
C5E C 0.1545(4) -0.3834(6) 0.3734(3)
C4E C 0.2058(2) -0.2666(3) 0.4179(1)
H2E H 0.25611 -0.27480 0.45191
H3E H 0.16916 -0.48575 0.37643
H4E H 0.05096 -0.40196 0.29889
O7 O 0.00000 0.3486(6) 0.25000
H1 H -0.01270 0.30407 0.21060
H1B H 0.01270 0.30407 0.28940
loop_
_geom_bond_atom_site_label_1
_geom_bond_atom_site_label_2
_geom_bond_site_symmetry_1
_geom_bond_site_symmetry_2
Cu1 O1 1_555 1_555
Cu2 O5 1_555 1_555
S1 C3 1_555 1_555
S2 C9 1_555 1_555
O1 C1 1_555 1_555
O2 C1 1_555 1_555
O3 Cu1 1_555 1_555
O4 Cu1 1_555 1_555
O5 C7 1_555 1_555
O6 Cu2 1_555 1_555
O7 H1 1_555 1_555
N1 Cu2 1_555 1_555
C1 C2 1_555 1_555
C2 O3 1_555 1_555
C3 C2 1_555 1_555
C4 C3 1_555 1_555
C5 C4 1_555 1_555
C6 S1 1_555 1_555
C7 O4 1_555 1_555
C8 O6 1_555 1_555
C9 C8 1_555 1_555
C10 C9 1_555 1_555
C11 C10 1_555 1_555
C12 S2 1_555 1_555
C13 N1 1_555 1_555
C14 C13 1_555 1_555
C15 C14 1_555 1_555
C16 C15 1_555 1_555
C17 N1 1_555 1_555
C18 C16 1_555 1_555
H2 C4 1_555 1_555
H3 C5 1_555 1_555
H4 C6 1_555 1_555
H5 C10 1_555 1_555
H6 C11 1_555 1_555
H7 C12 1_555 1_555
H8 C13 1_555 1_555
H9 C14 1_555 1_555
H10 C15 1_555 1_555
H11 C17 1_555 1_555
H12 C18 1_555 1_555
H13 C18 1_555 1_555
H14 C18 1_555 1_555
O1E Cu1 1_555 1_555
C1E O1E 1_555 1_555
O2E C1E 1_555 1_555
C2E C1E 1_555 1_555
O3E Cu1 1_555 1_555
O5D Cu2 1_555 1_555
C7D O5D 1_555 1_555
O4D C7D 1_555 1_555
Cu1A O4D 1_555 1_555
C8D C7D 1_555 1_555
O6D Cu2 1_555 1_555
C9D C8D 1_555 1_555
S2D C9D 1_555 1_555
C12D S2D 1_555 1_555
C11D C12D 1_555 1_555
C10D C9D 1_555 1_555
H5D C10D 1_555 1_555
H6D C11D 1_555 1_555
H7D C12D 1_555 1_555
N1D Cu2 1_555 1_555
C13D N1D 1_555 1_555
C14D C13D 1_555 1_555
C15D C14D 1_555 1_555
C16D C15D 1_555 1_555
C17D N1D 1_555 1_555
H11D C17D 1_555 1_555
C18D C16D 1_555 1_555
H12D C18D 1_555 1_555
H13D C18D 1_555 1_555
H14D C18D 1_555 1_555
H10D C15D 1_555 1_555
H9D C14D 1_555 1_555
H8D C13D 1_555 1_555
O4E Cu1 1_555 1_555
C3E C2E 1_555 1_555
S1E C3E 1_555 1_555
C6E S1E 1_555 1_555
C5E C6E 1_555 1_555
C4E C3E 1_555 1_555
H2E C4E 1_555 1_555
H3E C5E 1_555 1_555
H4E C6E 1_555 1_555
H1B O7 1_555 1_555
C5 C6 1_555 1_555
C7 C8 1_555 1_555
C11 C12 1_555 1_555
C16 C17 1_555 1_555
C2E O3E 1_555 1_555
C8D O6D 1_555 1_555
C11D C10D 1_555 1_555
C16D C17D 1_555 1_555
C5E C4E 1_555 1_555

#END
