
#######################################################################
#
#                 Cambridge Crystallographic Data Centre
#                                CCDC 
#
#######################################################################
#
# If this CIF has been generated from an entry in the Cambridge 
# Structural Database, then it will include bibliographic, chemical, 
# crystal, experimental, refinement or atomic coordinate data resulting 
# from the CCDC's data processing and validation procedures.
#
#######################################################################

data_HIQDOB
_symmetry_cell_setting           orthorhombic
_symmetry_space_group_name_H-M   'P 21 21 2'
_symmetry_Int_Tables_number      18
_space_group_name_Hall           'P 2 2ab'
loop_
_symmetry_equiv_pos_site_id
_symmetry_equiv_pos_as_xyz
1 x,y,z
2 -x,-y,z
3 1/2+x,1/2-y,-z
4 1/2-x,1/2+y,-z
_cell_length_a                   10.12010(10)
_cell_length_b                   23.7418(3)
_cell_length_c                   7.33460(10)
_cell_angle_alpha                90
_cell_angle_beta                 90
_cell_angle_gamma                90
_cell_volume                     1762.28
loop_
_atom_site_label
_atom_site_type_symbol
_atom_site_fract_x
_atom_site_fract_y
_atom_site_fract_z
Zn1 Zn 0.49499(2) 0.665500(10) 0.47415(3)
O1 O 0.4922(2) 0.65530(10) 0.7651(2)
O2 O 0.6009(2) 0.58840(10) 0.4700(3)
O3 O 0.5257(2) 0.66960(10) 0.1956(2)
N1 N 0.35820(10) 0.73420(10) 0.4689(3)
N2 N 0.3877(2) 0.78840(10) 0.4371(3)
N3 N 0.2826(2) 0.81930(10) 0.4451(3)
N4 N 0.1772(2) 0.78610(10) 0.4804(3)
N5 N 0.1544(2) 0.68700(10) 0.5283(3)
N6 N 0.1094(2) 0.59140(10) 0.4621(3)
N7 N 0.1864(2) 0.54790(10) 0.4106(3)
N8 N 0.3081(2) 0.56310(10) 0.3983(3)
N9 N 0.3177(2) 0.61850(10) 0.4429(3)
C1 C 0.22764(2) 0.73410(10) 0.4936(3)
C2 C 0.19376(2) 0.63380(10) 0.4795(3)
H1 H 0.0730(10) 0.6910(10) 0.543(4)
H3 H 0.423(2) 0.6410(10) 0.810(4)
H4 H 0.505(3) 0.6880(10) 0.807(4)
H5 H 0.667(2) 0.5800(10) 0.406(4)
H6 H 0.571(2) 0.5600(10) 0.526(3)
H7 H 0.496(3) 0.7020(10) 0.167(5)
H8 H 0.6080(10) 0.6690(10) 0.173(4)
Zn1B Zn 0.99499(2) 0.834500(10) 0.52585(3)
Zn1B_2 Zn -0.00501(2) 0.834500(10) 0.52585(3)
O1B O 0.9922(2) 0.84470(10) 0.2349(2)
O2B O 1.1009(2) 0.91160(10) 0.5300(3)
O3B O 1.0257(2) 0.83040(10) 0.8044(2)
N1B N 0.85820(10) 0.76580(10) 0.5311(3)
N2B N 0.8877(2) 0.71160(10) 0.5629(3)
N3B N 0.7826(2) 0.68070(10) 0.5549(3)
N4B N 0.6772(2) 0.71390(10) 0.5196(3)
N4_2 N 1.1772(2) 0.78610(10) 0.4804(3)
N5B N 0.6544(2) 0.81300(10) 0.4717(3)
N6B N 0.6094(2) 0.90860(10) 0.5379(3)
N7B N 0.6864(2) 0.95210(10) 0.5894(3)
N8B N 0.8081(2) 0.93690(10) 0.6017(3)
N9B N 0.8177(2) 0.88150(10) 0.5571(3)
C1B C 0.72764(2) 0.76590(10) 0.5064(3)
C2B C 0.69376(2) 0.86620(10) 0.5205(3)
H1B H 0.5730(10) 0.8090(10) 0.457(4)
H3B H 0.923(2) 0.8590(10) 0.190(4)
H4B H 1.005(3) 0.8120(10) 0.193(4)
H5B H 1.167(2) 0.9200(10) 0.594(4)
H6B H 1.071(2) 0.9400(10) 0.474(3)
H7B H 0.996(3) 0.7980(10) 0.833(5)
H8B H 1.1080(10) 0.8310(10) 0.827(4)
Zn2 Zn 0.36506(2) 0.935800(10) 0.01708(3)
O4 O 0.3686(2) 0.92500(10) 0.3053(2)
O5 O 0.15910(10) 0.92710(10) 0.0271(3)
O6 O 0.3553(2) 0.94390(10) -0.2721(2)
N10 N 0.5769(2) 0.93190(10) 0.0183(3)
N11 N 0.6602(2) 0.97510(10) 0.0585(2)
N12 N 0.7751(2) 0.95520(10) 0.1032(3)
N13 N 0.7735(2) 0.89860(10) 0.0949(3)
N14 N 0.6126(2) 0.83100(10) 0.0127(3)
N15 N 0.4512(2) 0.76000(10) -0.0351(3)
N16 N 0.3182(2) 0.76170(10) -0.0593(3)
N17 N 0.2775(2) 0.81330(10) -0.0559(3)
N18 N 0.3817(2) 0.84820(10) -0.0277(3)
C3 C 0.65014(2) 0.88600(10) 0.0409(3)
C4 C 0.48487(2) 0.81410(10) -0.0158(3)
H2 H 0.671(2) 0.8070(10) 0.025(3)
H9 H 0.333(3) 0.8940(10) 0.343(5)
H10 H 0.448(2) 0.927(2) 0.345(6)
H11 H 0.119(2) 0.9050(10) 0.095(3)
H12 H 0.112(2) 0.9460(10) -0.043(3)
H13 H 0.429(2) 0.9310(10) -0.310(5)
H14 H 0.345(3) 0.9770(10) -0.320(4)
Zn2A Zn 0.63494(2) 1.064200(10) 0.01708(3)
O4A O 0.6314(2) 1.07500(10) 0.3053(2)
O5A O 0.84090(10) 1.07290(10) 0.0271(3)
O6A O 0.6447(2) 1.05610(10) -0.2721(2)
N10A N 0.4231(2) 1.06810(10) 0.0183(3)
N11A N 0.3398(2) 1.02490(10) 0.0585(2)
N12A N 0.2249(2) 1.04480(10) 0.1032(3)
N13A N 0.2265(2) 1.10140(10) 0.0949(3)
N14A N 0.3874(2) 1.16900(10) 0.0127(3)
N15A N 0.5488(2) 1.24000(10) -0.0351(3)
N16A N 0.6818(2) 1.23830(10) -0.0593(3)
N17A N 0.7225(2) 1.18670(10) -0.0559(3)
N18A N 0.6183(2) 1.15180(10) -0.0277(3)
C3A C 0.34986(2) 1.11400(10) 0.0409(3)
C4A C 0.51513(2) 1.18590(10) -0.0158(3)
H2A H 0.329(2) 1.1930(10) 0.025(3)
H9A H 0.667(3) 1.1060(10) 0.343(5)
H10A H 0.552(2) 1.073(2) 0.345(6)
H11A H 0.881(2) 1.0950(10) 0.095(3)
H12A H 0.888(2) 1.0540(10) -0.043(3)
H13A H 0.571(2) 1.0690(10) -0.310(5)
H14A H 0.655(3) 1.0230(10) -0.320(4)
O7 O 1.0000 1.0000 -0.1726(3)
H15 H 1.055(2) 1.0180(10) -0.236(4)
H15A H 0.945(2) 0.9820(10) -0.236(4)
O8 O 1.0000 1.0000 0.3201(3)
H16 H 1.066(2) 1.007(2) 0.253(4)
H16A H 0.934(2) 0.993(2) 0.253(4)
loop_
_geom_bond_atom_site_label_1
_geom_bond_atom_site_label_2
_geom_bond_site_symmetry_1
_geom_bond_site_symmetry_2
Zn1 O1 1_555 1_555
Zn2 O4 1_555 1_555
O1 H3 1_555 1_555
O2 Zn1 1_555 1_555
O3 Zn1 1_555 1_555
O4 H9 1_555 1_555
O5 Zn2 1_555 1_555
O6 Zn2 1_555 1_555
O7 H15 1_555 1_555
O8 H16 1_555 1_555
N1 Zn1 1_555 1_555
N2 N1 1_555 1_555
N3 N2 1_555 1_555
N4 N3 1_555 1_555
N5 C1 1_555 1_555
N6 N7 1_555 1_555
N7 N8 1_555 1_555
N8 N9 1_555 1_555
N9 Zn1 1_555 1_555
N10 Zn2 1_555 1_555
N11 N10 1_555 1_555
N12 N11 1_555 1_555
N13 N12 1_555 1_555
N14 C3 1_555 1_555
N15 N16 1_555 1_555
N16 N17 1_555 1_555
N17 N18 1_555 1_555
N18 Zn2 1_555 1_555
C1 N1 1_555 1_555
C2 N5 1_555 1_555
C3 N10 1_555 1_555
C4 N14 1_555 1_555
H1 N5 1_555 1_555
H2 N14 1_555 1_555
H4 O1 1_555 1_555
H5 O2 1_555 1_555
H6 O2 1_555 1_555
H7 O3 1_555 1_555
H8 O3 1_555 1_555
H10 O4 1_555 1_555
H11 O5 1_555 1_555
H12 O5 1_555 1_555
H13 O6 1_555 1_555
H14 O6 1_555 1_555
Zn1B O1B 1_555 1_555
Zn1B_2 N4 1_555 1_555
Zn2A N11 1_555 1_555
O1B H3B 1_555 1_555
O2B Zn1B 1_555 1_555
O3B Zn1B 1_555 1_555
O4A Zn2A 1_555 1_555
O5A Zn2A 1_555 1_555
O6A Zn2A 1_555 1_555
N1B Zn1B 1_555 1_555
N2B N1B 1_555 1_555
N3B N2B 1_555 1_555
N4B Zn1 1_555 1_555
N4_2 Zn1B 1_555 1_555
N5B C1B 1_555 1_555
N6B N7B 1_555 1_555
N7B N8B 1_555 1_555
N8B N9B 1_555 1_555
N9B Zn1B 1_555 1_555
N10A Zn2A 1_555 1_555
N11A Zn2 1_555 1_555
N12A N11A 1_555 1_555
N13A N12A 1_555 1_555
N14A C3A 1_555 1_555
N15A N16A 1_555 1_555
N16A N17A 1_555 1_555
N17A N18A 1_555 1_555
N18A Zn2A 1_555 1_555
C1B N1B 1_555 1_555
C2B N5B 1_555 1_555
C3A N10A 1_555 1_555
C4A N14A 1_555 1_555
H1B N5B 1_555 1_555
H2A N14A 1_555 1_555
H4B O1B 1_555 1_555
H5B O2B 1_555 1_555
H6B O2B 1_555 1_555
H7B O3B 1_555 1_555
H8B O3B 1_555 1_555
H9A O4A 1_555 1_555
H10A O4A 1_555 1_555
H11A O5A 1_555 1_555
H12A O5A 1_555 1_555
H13A O6A 1_555 1_555
H14A O6A 1_555 1_555
H15A O7 1_555 1_555
H16A O8 1_555 1_555
N4 C1 1_555 1_555
N6 C2 1_555 1_555
N9 C2 1_555 1_555
N13 C3 1_555 1_555
N15 C4 1_555 1_555
N18 C4 1_555 1_555
N3B N4B 1_555 1_555
N4B C1B 1_555 1_555
N6B C2B 1_555 1_555
N9B C2B 1_555 1_555
N10A N11A 1_555 1_555
N13A C3A 1_555 1_555
N15A C4A 1_555 1_555
N18A C4A 1_555 1_555

#END
