
#######################################################################
#
#                 Cambridge Crystallographic Data Centre
#                                CCDC 
#
#######################################################################
#
# If this CIF has been generated from an entry in the Cambridge 
# Structural Database, then it will include bibliographic, chemical, 
# crystal, experimental, refinement or atomic coordinate data resulting 
# from the CCDC's data processing and validation procedures.
#
#######################################################################

data_HIQFET
_symmetry_cell_setting           monoclinic
_symmetry_space_group_name_H-M   'C 2/c'
_symmetry_Int_Tables_number      15
_space_group_name_Hall           '-C 2yn'
loop_
_symmetry_equiv_pos_site_id
_symmetry_equiv_pos_as_xyz
1 x,y,z
2 1/2+x,1/2+y,z
3 -x,y,1/2-z
4 1/2-x,1/2+y,1/2-z
5 -x,-y,-z
6 1/2-x,1/2-y,-z
7 x,-y,1/2+z
8 1/2+x,1/2-y,1/2+z
_cell_length_a                   13.4008(13)
_cell_length_b                   8.4880(9)
_cell_length_c                   20.112(2)
_cell_angle_alpha                90
_cell_angle_beta                 106.191(7)
_cell_angle_gamma                90
_cell_volume                     2196.93
loop_
_atom_site_label
_atom_site_type_symbol
_atom_site_fract_x
_atom_site_fract_y
_atom_site_fract_z
Ni1 Ni 0.95385(5) 0.92235(8) 0.94293(4)
N1 N 0.8818(4) 0.7990(6) 0.8453(3)
N2 N 0.9693(9) 0.7655(13) 0.6845(5)
H1 H 0.9387 0.7845 0.6416
O1 O 1.0991(3) 0.8984(5) 0.9401(2)
O2 O 1.1772(3) 1.0270(5) 1.0372(3)
O3 O 0.9695(3) 0.7416(5) 1.0053(2)
O4 O 1.0480(3) 0.8712(5) 1.1020(2)
C1 C 0.7828(6) 0.7539(8) 0.8293(4)
H2 H 0.7445 0.7658 0.8611
C2 C 0.7364(8) 0.6873(11) 0.7633(6)
H3 H 0.6677 0.6535 0.7516
C3 C 0.7940(15) 0.6729(14) 0.7163(7)
H4 H 0.7632 0.6323 0.6724
C4 C 0.8911(11) 0.7158(18) 0.7332(5)
C5 C 0.9334(7) 0.7787(12) 0.7980(4)
C6 C 1.1793(5) 0.9576(7) 0.9823(4)
C7 C 1.2802(5) 0.9406(8) 0.9663(4)
H5 H 1.3101 1.0428 0.9647
H6 H 1.2695 0.8897 0.9222
H7 H 1.3265 0.8782 1.0015
C8 C 1.0076(5) 0.7494(8) 1.0691(4)
C9 C 1.0085(6) 0.6030(8) 1.1110(4)
H8 H 0.9487 0.6024 1.1284
H9 H 1.0704 0.6009 1.1491
H10 H 1.0069 0.5120 1.0824
Ni1B Ni 1.04615(5) 0.92235(8) 0.55707(4)
Ni1D Ni 1.04615(5) 1.07765(8) 1.05707(4)
Ni1F Ni 0.95385(5) 1.07765(8) 0.44293(4)
N1B N 1.1182(4) 0.7990(6) 0.6547(3)
N2B N 1.0307(9) 0.7655(13) 0.8155(5)
H1B H 1.0613 0.7845 0.8584
O1D O 0.9009(3) 1.1016(5) 1.0599(2)
O1B O 0.9009(3) 0.8984(5) 0.5599(2)
O2D O 0.8228(3) 0.9730(5) 0.9628(3)
O2F O 1.1772(3) 0.9730(5) 0.5372(3)
O3D O 1.0305(3) 1.2584(5) 0.9947(2)
O3B O 1.0305(3) 0.7416(5) 0.4947(2)
O4D O 0.9520(3) 1.1288(5) 0.8980(2)
O4F O 1.0480(3) 1.1288(5) 0.6020(2)
C1B C 1.2172(6) 0.7539(8) 0.6707(4)
H2B H 1.2555 0.7658 0.6389
C2B C 1.2636(8) 0.6873(11) 0.7367(6)
H3B H 1.3323 0.6535 0.7484
C3B C 1.2060(15) 0.6729(14) 0.7837(7)
H4B H 1.2368 0.6323 0.8276
C4B C 1.1089(11) 0.7158(18) 0.7668(5)
C5B C 1.0666(7) 0.7787(12) 0.7020(4)
C6D C 0.8207(5) 1.0424(7) 1.0177(4)
C7D C 0.7198(5) 1.0594(8) 1.0337(4)
H5D H 0.6899 0.9572 1.0353
H6D H 0.7305 1.1103 1.0778
H7D H 0.6735 1.1218 0.9985
C8D C 0.9924(5) 1.2506(8) 0.9309(4)
C9D C 0.9915(6) 1.3970(8) 0.8890(4)
H8D H 1.0513 1.3976 0.8716
H9D H 0.9296 1.3991 0.8509
H10D H 0.9931 1.4880 0.9176
loop_
_geom_bond_atom_site_label_1
_geom_bond_atom_site_label_2
_geom_bond_site_symmetry_1
_geom_bond_site_symmetry_2
Ni1 N1 1_555 1_555
N1 C1 1_555 1_555
N2 H1 1_555 1_555
O1 Ni1 1_555 1_555
O2 C6 1_555 1_555
O3 Ni1 1_555 1_555
O4 C8 1_555 1_555
C1 H2 1_555 1_555
C2 C1 1_555 1_555
H3 C2 1_555 1_555
C3 C2 1_555 1_555
H4 C3 1_555 1_555
C4 N2 1_555 1_555
C5 N1 1_555 1_555
C6 O1 1_555 1_555
C7 C6 1_555 1_555
H5 C7 1_555 1_555
H6 C7 1_555 1_555
H7 C7 1_555 1_555
C8 O3 1_555 1_555
C9 C8 1_555 1_555
H8 C9 1_555 1_555
H9 C9 1_555 1_555
H10 C9 1_555 1_555
Ni1B Ni1F 1_555 1_555
Ni1D Ni1 1_555 1_555
N1B Ni1B 1_555 1_555
N2B C5 1_555 1_555
H1B N2B 1_555 1_555
O1D Ni1D 1_555 1_555
O1B Ni1B 1_555 1_555
O2D Ni1 1_555 1_555
O2F Ni1B 1_555 1_555
O3D Ni1D 1_555 1_555
O3B Ni1B 1_555 1_555
O4D Ni1 1_555 1_555
O4F Ni1B 1_555 1_555
C1B N1B 1_555 1_555
H2B C1B 1_555 1_555
C2B C1B 1_555 1_555
H3B C2B 1_555 1_555
C3B C2B 1_555 1_555
H4B C3B 1_555 1_555
C4B N2B 1_555 1_555
C5B N2 1_555 1_555
C6D O1D 1_555 1_555
C7D C6D 1_555 1_555
H5D C7D 1_555 1_555
H6D C7D 1_555 1_555
H7D C7D 1_555 1_555
C8D O3D 1_555 1_555
C9D C8D 1_555 1_555
H8D C9D 1_555 1_555
H9D C9D 1_555 1_555
H10D C9D 1_555 1_555
O2 Ni1D 1_555 1_555
O4 Ni1D 1_555 1_555
C3 C4 1_555 1_555
C4 C5 1_555 1_555
N1B C5B 1_555 1_555
O2D C6D 1_555 1_555
O4D C8D 1_555 1_555
C3B C4B 1_555 1_555
C4B C5B 1_555 1_555

#END
