
#######################################################################
#
#                 Cambridge Crystallographic Data Centre
#                                CCDC 
#
#######################################################################
#
# If this CIF has been generated from an entry in the Cambridge 
# Structural Database, then it will include bibliographic, chemical, 
# crystal, experimental, refinement or atomic coordinate data resulting 
# from the CCDC's data processing and validation procedures.
#
#######################################################################

data_HIQHUL
_symmetry_cell_setting           triclinic
_symmetry_space_group_name_H-M   'P -1'
_symmetry_Int_Tables_number      2
_space_group_name_Hall           '-P 1'
loop_
_symmetry_equiv_pos_site_id
_symmetry_equiv_pos_as_xyz
1 x,y,z
2 -x,-y,-z
_cell_length_a                   7.5345(15)
_cell_length_b                   9.2112(18)
_cell_length_c                   18.524(4)
_cell_angle_alpha                88.12(3)
_cell_angle_beta                 84.29(3)
_cell_angle_gamma                76.38(3)
_cell_volume                     1243.19
loop_
_atom_site_label
_atom_site_type_symbol
_atom_site_fract_x
_atom_site_fract_y
_atom_site_fract_z
Co1 Co 0.43923(5) 0.65500(4) 0.628861(19)
O1 O 0.6521(3) 0.5294(3) 0.55787(12)
H1 H 0.675(5) 0.513(5) 0.5126(7)
H2 H 0.744(3) 0.549(5) 0.5747(17)
O2 O 0.2624(3) 0.5328(2) 0.58733(10)
H3 H 0.1490(17) 0.559(3) 0.6021(18)
H4 H 0.310(4) 0.451(2) 0.6084(18)
O3 O 0.3931(3) 0.3052(2) 0.66551(12)
O4 O 0.4849(3) 0.4951(2) 0.71028(11)
O5 O 0.9059(3) 0.5857(3) 0.63524(11)
O6 O 0.6409(3) 0.7378(2) 0.67405(11)
N1 N 0.2421(3) 0.8101(3) 0.69611(13)
N2 N 0.3447(3) 0.8322(3) 0.55504(13)
C1 C 0.1957(5) 0.7976(4) 0.76617(18)
H5 H 0.2489 0.7107 0.7904
C2 C 0.0693(6) 0.9103(5) 0.8053(2)
H6 H 0.0391 0.8979 0.8547
C3 C -0.0089(6) 1.0383(5) 0.7706(3)
H7 H -0.0946 1.1129 0.7961
C4 C 0.0386(5) 1.0581(4) 0.6969(2)
C5 C -0.0311(5) 1.1907(4) 0.6553(3)
H8 H -0.1155 1.2703 0.6779
C6 C 0.0238(5) 1.2009(4) 0.5847(3)
H9 H -0.0231 1.2882 0.5594
C7 C 0.1512(4) 1.0830(3) 0.5473(2)
C8 C 0.2095(5) 1.0866(4) 0.4735(2)
H10 H 0.1656 1.1712 0.4459
C9 C 0.3301(5) 0.9673(4) 0.44203(19)
H11 H 0.3696 0.9696 0.3929
C10 C 0.3943(5) 0.8406(4) 0.48433(16)
H12 H 0.4752 0.7587 0.4620
C11 C 0.2226(4) 0.9508(3) 0.58613(17)
C12 C 0.1659(4) 0.9390(3) 0.66163(17)
C13 C 0.7921(4) 0.6514(3) 0.68497(15)
C14 C 0.8366(4) 0.6222(3) 0.76200(15)
C15 C 0.7248(5) 0.7048(4) 0.81696(18)
H13 H 0.6250 0.7798 0.8056
C16 C 0.7589(6) 0.6776(5) 0.88847(19)
H14 H 0.6814 0.7347 0.9245
C17 C 0.9054(5) 0.5675(5) 0.90771(18)
C18 C 1.0162(5) 0.4823(4) 0.85223(19)
H15 H 1.1141 0.4057 0.8638
C19 C 0.9832(4) 0.5096(4) 0.78023(17)
H16 H 1.0596 0.4522 0.7440
C20 C 0.9339(6) 0.5462(5) 0.9859(2)
H17 H 0.8468 0.6061 1.0181
C21 C 0.4532(4) 0.3663(3) 0.71367(15)
C22 C 0.4856(4) 0.2819(3) 0.78413(15)
C23 C 0.5623(5) 0.3377(4) 0.83860(17)
H18 H 0.6004 0.4265 0.8314
C24 C 0.5825(5) 0.2607(4) 0.90439(17)
H19 H 0.6365 0.2978 0.9405
C25 C 0.5232(5) 0.1291(4) 0.91687(16)
C26 C 0.4475(6) 0.0748(4) 0.86118(18)
H20 H 0.4070 -0.0129 0.8685
C27 C 0.4311(5) 0.1479(4) 0.79540(18)
H21 H 0.3834 0.1078 0.7583
C28 C 0.5413(5) 0.0533(4) 0.98769(17)
H22 H 0.6174 0.0827 1.0180
Co1A Co 0.56077(5) -0.65500(4) 1.371139(19)
Co1A_2 Co 1.56077(5) 0.34500(4) 1.371139(19)
O1A O 0.3479(3) -0.5294(3) 1.44213(12)
H1A H 0.325(5) -0.513(5) 1.4874(7)
H2A H 0.256(3) -0.549(5) 1.4253(17)
O2A O 0.7376(3) -0.5328(2) 1.41267(10)
H3A H 0.8510(17) -0.559(3) 1.3979(18)
H4A H 0.690(4) -0.451(2) 1.3916(18)
O3A O 0.6069(3) -0.3052(2) 1.33449(12)
O4A O 0.5151(3) -0.4951(2) 1.28972(11)
O5A O 1.0941(3) 0.4143(3) 1.36476(11)
O6A O 1.3591(3) 0.2622(2) 1.32595(11)
O6A_2 O 0.3591(3) -0.7378(2) 1.32595(11)
N1A N 0.7579(3) -0.8101(3) 1.30389(13)
N2A N 0.6553(3) -0.8322(3) 1.44496(13)
C1A C 0.8043(5) -0.7976(4) 1.23383(18)
H5A H 0.7511 -0.7107 1.2096
C2A C 0.9307(6) -0.9103(5) 1.1947(2)
H6A H 0.9609 -0.8979 1.1453
C3A C 1.0089(6) -1.0383(5) 1.2294(3)
H7A H 1.0946 -1.1129 1.2039
C4A C 0.9614(5) -1.0581(4) 1.3031(2)
C5A C 1.0311(5) -1.1907(4) 1.3447(3)
H8A H 1.1155 -1.2703 1.3221
C6A C 0.9762(5) -1.2009(4) 1.4153(3)
H9A H 1.0231 -1.2882 1.4406
C7A C 0.8488(4) -1.0830(3) 1.4527(2)
C8A C 0.7905(5) -1.0866(4) 1.5265(2)
H10A H 0.8344 -1.1712 1.5541
C9A C 0.6699(5) -0.9673(4) 1.55797(19)
H11A H 0.6304 -0.9696 1.6071
C10A C 0.6057(5) -0.8406(4) 1.51567(16)
H12A H 0.5248 -0.7587 1.5380
C11A C 0.7774(4) -0.9508(3) 1.41387(17)
C12A C 0.8341(4) -0.9390(3) 1.33837(17)
C13A C 1.2079(4) 0.3486(3) 1.31503(15)
C14A C 1.1634(4) 0.3778(3) 1.23800(15)
C15A C 1.2752(5) 0.2952(4) 1.18304(18)
H13A H 1.3750 0.2202 1.1944
C16A C 1.2411(6) 0.3224(5) 1.11153(19)
H14A H 1.3186 0.2653 1.0755
C17A C 1.0946(5) 0.4325(5) 1.09229(18)
C18A C 0.9838(5) 0.5177(4) 1.14777(19)
H15A H 0.8859 0.5943 1.1362
C19A C 1.0168(4) 0.4904(4) 1.21977(17)
H16A H 0.9404 0.5478 1.2560
C20A C 1.0661(6) 0.4538(5) 1.0141(2)
H17A H 1.1532 0.3939 0.9819
C21A C 0.5468(4) -0.3663(3) 1.28633(15)
C22A C 0.5144(4) -0.2819(3) 1.21587(15)
C23A C 0.4377(5) -0.3377(4) 1.16140(17)
H18A H 0.3996 -0.4265 1.1686
C24A C 0.4175(5) -0.2607(4) 1.09561(17)
H19A H 0.3635 -0.2978 1.0595
C25A C 0.4768(5) -0.1291(4) 1.08313(16)
C26A C 0.5525(6) -0.0748(4) 1.13882(18)
H20A H 0.5930 0.0129 1.1315
C27A C 0.5689(5) -0.1479(4) 1.20460(18)
H21A H 0.6166 -0.1078 1.2417
C28A C 0.4587(5) -0.0533(4) 1.01231(17)
H22A H 0.3826 -0.0827 0.9820
loop_
_geom_bond_atom_site_label_1
_geom_bond_atom_site_label_2
_geom_bond_site_symmetry_1
_geom_bond_site_symmetry_2
Co1 O1 1_555 1_555
O1 H1 1_555 1_555
H2 O1 1_555 1_555
O2 Co1 1_555 1_555
H3 O2 1_555 1_555
H4 O2 1_555 1_555
O3 C21 1_555 1_555
O4 Co1 1_555 1_555
O5 C13 1_555 1_555
O6 Co1 1_555 1_555
N1 Co1 1_555 1_555
N2 Co1 1_555 1_555
C1 N1 1_555 1_555
H5 C1 1_555 1_555
C2 C1 1_555 1_555
H6 C2 1_555 1_555
C3 C2 1_555 1_555
H7 C3 1_555 1_555
C4 C3 1_555 1_555
C5 C4 1_555 1_555
H8 C5 1_555 1_555
C6 C5 1_555 1_555
H9 C6 1_555 1_555
C7 C6 1_555 1_555
C8 C7 1_555 1_555
H10 C8 1_555 1_555
C9 C8 1_555 1_555
H11 C9 1_555 1_555
C10 N2 1_555 1_555
H12 C10 1_555 1_555
C11 N2 1_555 1_555
C12 N1 1_555 1_555
C13 O6 1_555 1_555
C14 C13 1_555 1_555
C15 C14 1_555 1_555
H13 C15 1_555 1_555
C16 C15 1_555 1_555
H14 C16 1_555 1_555
C17 C16 1_555 1_555
C18 C17 1_555 1_555
H15 C18 1_555 1_555
C19 C14 1_555 1_555
H16 C19 1_555 1_555
C20 C17 1_555 1_555
H17 C20 1_555 1_555
C21 O4 1_555 1_555
C22 C21 1_555 1_555
C23 C22 1_555 1_555
H18 C23 1_555 1_555
C24 C23 1_555 1_555
H19 C24 1_555 1_555
C25 C24 1_555 1_555
C26 C25 1_555 1_555
H20 C26 1_555 1_555
C27 C22 1_555 1_555
H21 C27 1_555 1_555
C28 C25 1_555 1_555
H22 C28 1_555 1_555
Co1A O1A 1_555 1_555
Co1A_2 O6A 1_555 1_555
O1A H1A 1_555 1_555
H2A O1A 1_555 1_555
O2A Co1A 1_555 1_555
H3A O2A 1_555 1_555
H4A O2A 1_555 1_555
O3A C21A 1_555 1_555
O4A Co1A 1_555 1_555
O5A C13A 1_555 1_555
O6A C13A 1_555 1_555
O6A_2 Co1A 1_555 1_555
N1A Co1A 1_555 1_555
N2A Co1A 1_555 1_555
C1A N1A 1_555 1_555
H5A C1A 1_555 1_555
C2A C1A 1_555 1_555
H6A C2A 1_555 1_555
C3A C2A 1_555 1_555
H7A C3A 1_555 1_555
C4A C3A 1_555 1_555
C5A C4A 1_555 1_555
H8A C5A 1_555 1_555
C6A C5A 1_555 1_555
H9A C6A 1_555 1_555
C7A C6A 1_555 1_555
C8A C7A 1_555 1_555
H10A C8A 1_555 1_555
C9A C8A 1_555 1_555
H11A C9A 1_555 1_555
C10A N2A 1_555 1_555
H12A C10A 1_555 1_555
C11A N2A 1_555 1_555
C12A N1A 1_555 1_555
C13A C14A 1_555 1_555
C14A C15A 1_555 1_555
C15A H13A 1_555 1_555
C16A C15A 1_555 1_555
H14A C16A 1_555 1_555
C17A C16A 1_555 1_555
C18A C17A 1_555 1_555
H15A C18A 1_555 1_555
C19A C14A 1_555 1_555
H16A C19A 1_555 1_555
C20A C20 1_555 1_555
H17A C20A 1_555 1_555
C21A O4A 1_555 1_555
C22A C21A 1_555 1_555
C23A C22A 1_555 1_555
H18A C23A 1_555 1_555
C24A C23A 1_555 1_555
H19A C24A 1_555 1_555
C25A C24A 1_555 1_555
C26A C25A 1_555 1_555
H20A C26A 1_555 1_555
C27A C22A 1_555 1_555
H21A C27A 1_555 1_555
C28A C28 1_555 1_555
H22A C28A 1_555 1_555
C4 C12 1_555 1_555
C7 C11 1_555 1_555
C9 C10 1_555 1_555
C11 C12 1_555 1_555
C18 C19 1_555 1_555
C26 C27 1_555 1_555
C4A C12A 1_555 1_555
C7A C11A 1_555 1_555
C9A C10A 1_555 1_555
C11A C12A 1_555 1_555
C17A C20A 1_555 1_555
C18A C19A 1_555 1_555
C25A C28A 1_555 1_555
C26A C27A 1_555 1_555

#END
