
#######################################################################
#
#                 Cambridge Crystallographic Data Centre
#                                CCDC 
#
#######################################################################
#
# If this CIF has been generated from an entry in the Cambridge 
# Structural Database, then it will include bibliographic, chemical, 
# crystal, experimental, refinement or atomic coordinate data resulting 
# from the CCDC's data processing and validation procedures.
#
#######################################################################

data_HIQHOF
_symmetry_cell_setting           monoclinic
_symmetry_space_group_name_H-M   'C 2/c'
_symmetry_Int_Tables_number      15
_space_group_name_Hall           '-C 2yn'
loop_
_symmetry_equiv_pos_site_id
_symmetry_equiv_pos_as_xyz
1 x,y,z
2 1/2+x,1/2+y,z
3 -x,y,1/2-z
4 1/2-x,1/2+y,1/2-z
5 -x,-y,-z
6 1/2-x,1/2-y,-z
7 x,-y,1/2+z
8 1/2+x,1/2-y,1/2+z
_cell_length_a                   15.1950(9)
_cell_length_b                   5.8261(2)
_cell_length_c                   18.8040(7)
_cell_angle_alpha                90
_cell_angle_beta                 100.893(2)
_cell_angle_gamma                90
_cell_volume                     1634.68
loop_
_atom_site_label
_atom_site_type_symbol
_atom_site_fract_x
_atom_site_fract_y
_atom_site_fract_z
Zn1 Zn 0.5000 0.23651(6) 0.7500
S1 S 0.38748(10) -0.21390(18) 0.91869(6)
N1 N 0.40464(14) 0.4526(3) 0.69942(11)
N2 N 0.29337(19) 0.7082(5) 0.68471(14)
N3 N 0.34510(17) 0.7371(3) 0.63403(12)
N4 N 0.45101(19) 0.0641(5) 0.82138(17)
C1 C 0.33192(19) 0.5365(5) 0.72290(14)
C2 C 0.41033(18) 0.5847(4) 0.64281(14)
C3 C 0.3238(2) 0.9165(4) 0.57881(14)
C4 C 0.24236(19) 0.8540(4) 0.52201(14)
C5 C 0.4231(2) -0.0470(5) 0.86203(17)
H1 H 0.3114 0.4770 0.7627
H2 H 0.4535 0.5716 0.6140
H3 H 0.3118 1.0586 0.6021
H4 H 0.3748 0.9375 0.5553
H5 H 0.1926 0.8225 0.5462
H6 H 0.2275 0.9833 0.4895
Zn1G Zn 0.0000 1.26349(6) 0.2500
S1B S 0.61252(10) -0.21390(18) 0.58131(6)
N1E N 0.09536(14) 1.0474(3) 0.30058(11)
N1B N 0.59536(14) 0.4526(3) 0.80058(11)
N2E N 0.20663(19) 0.7918(5) 0.31529(14)
N3E N 0.15490(17) 0.7629(3) 0.36597(12)
N4B N 0.54899(19) 0.0641(5) 0.67862(17)
C1E C 0.16808(19) 0.9635(5) 0.27710(14)
C2E C 0.08967(18) 0.9153(4) 0.35719(14)
C3E C 0.1762(2) 0.5835(4) 0.42119(14)
C4E C 0.25764(19) 0.6460(4) 0.47799(14)
C5B C 0.5769(2) -0.0470(5) 0.63797(17)
H1E H 0.1886 1.0230 0.2373
H2E H 0.0465 0.9284 0.3860
H3E H 0.1882 0.4414 0.3979
H4E H 0.1252 0.5625 0.4447
H5E H 0.3074 0.6775 0.4538
H6E H 0.2725 0.5167 0.5105
loop_
_geom_bond_atom_site_label_1
_geom_bond_atom_site_label_2
_geom_bond_site_symmetry_1
_geom_bond_site_symmetry_2
Zn1 N1 1_555 1_555
S1 C5 1_555 1_555
N1 C1 1_555 1_555
N2 N3 1_555 1_555
N3 C2 1_555 1_555
N4 Zn1 1_555 1_555
C1 N2 1_555 1_555
C2 N1 1_555 1_555
C3 N3 1_555 1_555
C4 C3 1_555 1_555
C5 N4 1_555 1_555
H1 C1 1_555 1_555
H2 C2 1_555 1_555
H3 C3 1_555 1_555
H4 C3 1_555 1_555
H5 C4 1_555 1_555
H6 C4 1_555 1_555
Zn1G N1E 1_555 1_555
S1B C5B 1_555 1_555
N1E C1E 1_555 1_555
N1B Zn1 1_555 1_555
N2E N3E 1_555 1_555
N3E C2E 1_555 1_555
N4B Zn1 1_555 1_555
C1E N2E 1_555 1_555
C2E N1E 1_555 1_555
C3E N3E 1_555 1_555
C4E C4 1_555 1_555
C5B N4B 1_555 1_555
H1E C1E 1_555 1_555
H2E C2E 1_555 1_555
H3E C3E 1_555 1_555
H4E C3E 1_555 1_555
H5E C4E 1_555 1_555
H6E C4E 1_555 1_555
C3E C4E 1_555 1_555

#END
