
#######################################################################
#
#                 Cambridge Crystallographic Data Centre
#                                CCDC 
#
#######################################################################
#
# If this CIF has been generated from an entry in the Cambridge 
# Structural Database, then it will include bibliographic, chemical, 
# crystal, experimental, refinement or atomic coordinate data resulting 
# from the CCDC's data processing and validation procedures.
#
#######################################################################

data_HIQJEX
_symmetry_cell_setting           monoclinic
_symmetry_space_group_name_H-M   'P 21/c'
_symmetry_Int_Tables_number      14
_space_group_name_Hall           '-P 2ybc'
loop_
_symmetry_equiv_pos_site_id
_symmetry_equiv_pos_as_xyz
1 x,y,z
2 -x,1/2+y,1/2-z
3 -x,-y,-z
4 x,1/2-y,1/2+z
_cell_length_a                   7.2380(5)
_cell_length_b                   14.3560(9)
_cell_length_c                   14.6290(9)
_cell_angle_alpha                90
_cell_angle_beta                 90.0980(10)
_cell_angle_gamma                90
_cell_volume                     1520.08
loop_
_atom_site_label
_atom_site_type_symbol
_atom_site_fract_x
_atom_site_fract_y
_atom_site_fract_z
Sn1 Sn 0.5000 0.5000 0.5000
Cl1 Cl 0.20749(7) 0.43159(4) 0.57024(3)
C1 C 0.8020(3) 0.29921(14) 0.38280(14)
H1 H 0.9066 0.3322 0.4006
C2 C 0.8068(5) 0.24379(18) 0.30446(18)
H2 H 0.9140 0.2404 0.2697
C3 C 0.6534(6) 0.19451(18) 0.27899(18)
H3 H 0.6568 0.1576 0.2268
C4 C 0.4961(5) 0.19903(18) 0.3293(2)
H4 H 0.3929 0.1650 0.3113
C5 C 0.4881(4) 0.25374(15) 0.40689(17)
H5 H 0.3798 0.2562 0.4409
C6 C 0.6417(3) 0.30517(12) 0.43423(12)
C7 C 0.6336(3) 0.36578(13) 0.51685(13)
H6 H 0.7589 0.3765 0.5380
H7 H 0.5694 0.3320 0.5646
C8 C 0.5061(2) 0.45295(11) 0.28016(10)
H8 H 0.6321 0.4607 0.2901
C9 C 0.4468(2) 0.42783(12) 0.19347(11)
C10 C 0.2592(3) 0.41791(16) 0.17951(13)
H9 H 0.2141 0.4004 0.1225
C11 C 0.1393(3) 0.43422(18) 0.25106(13)
H10 H 0.0124 0.4293 0.2423
C12 C 0.2089(2) 0.45780(15) 0.33514(12)
H11 H 0.1274 0.4680 0.3832
C13 C 0.5846(3) 0.41269(13) 0.11814(12)
H12 H 0.6507 0.3547 0.1276
H13 H 0.5223 0.4098 0.0595
C14 C 0.8871(3) 0.42179(13) -0.00519(12)
H14 H 0.8118 0.3695 -0.0092
C15 C 0.8503(3) 0.49061(12) 0.05819(13)
C16 C 0.9622(3) 0.56830(14) 0.06280(13)
H15 H 0.9362 0.6147 0.1052
O1 O 0.7078(2) 0.48820(10) 0.12015(12)
N1 N 0.39040(19) 0.46651(11) 0.35020(9)
Sn1_2 Sn 1.5000 0.5000 -0.5000
Cl1B Cl 0.79251(7) 0.56841(4) 0.42976(3)
C1B C 0.1980(3) 0.70079(14) 0.61720(14)
H1B H 0.0934 0.6678 0.5994
C2B C 0.1932(5) 0.75621(18) 0.69554(18)
H2B H 0.0860 0.7596 0.7303
C3B C 0.3466(6) 0.80549(18) 0.72101(18)
H3B H 0.3432 0.8424 0.7732
C4B C 0.5039(5) 0.80097(18) 0.6707(2)
H4B H 0.6071 0.8350 0.6887
C5B C 0.5119(4) 0.74626(15) 0.59311(17)
H5B H 0.6202 0.7438 0.5591
C6B C 0.3583(3) 0.69483(12) 0.56577(12)
C7B C 0.3664(3) 0.63422(13) 0.48315(13)
H6B H 0.2411 0.6235 0.4620
H7B H 0.4306 0.6680 0.4354
C8B C 1.4939(2) 0.54705(11) -0.28016(10)
H8B H 1.3679 0.5393 -0.2901
C9B C 1.5532(2) 0.57217(12) -0.19347(11)
C10B C 1.7408(3) 0.58209(16) -0.17951(13)
H9B H 1.7859 0.5996 -0.1225
C11B C 1.8607(3) 0.56578(18) -0.25106(13)
H10B H 1.9876 0.5707 -0.2423
C12B C 1.7911(2) 0.54220(15) -0.33514(12)
H11B H 1.8726 0.5320 -0.3832
C13B C 1.4154(3) 0.58731(13) -0.11814(12)
H12B H 1.3493 0.6453 -0.1276
H13B H 1.4777 0.5902 -0.0595
C14B C 1.1129(3) 0.57821(13) 0.00519(12)
H14B H 1.1882 0.6305 0.0092
C15B C 1.1497(3) 0.50939(12) -0.05819(13)
C16B C 1.0378(3) 0.43170(14) -0.06280(13)
H15B H 1.0638 0.3853 -0.1052
O1B O 1.2922(2) 0.51180(10) -0.12015(12)
N1B N 1.60960(19) 0.53349(11) -0.35020(9)
N1B_2 N 0.60960(19) 0.53349(11) 0.64980(9)
loop_
_geom_bond_atom_site_label_1
_geom_bond_atom_site_label_2
_geom_bond_site_symmetry_1
_geom_bond_site_symmetry_2
Sn1 Cl1 1_555 1_555
C1 H1 1_555 1_555
C2 C1 1_555 1_555
H2 C2 1_555 1_555
C3 C2 1_555 1_555
H3 C3 1_555 1_555
C4 C3 1_555 1_555
H4 C4 1_555 1_555
C5 C4 1_555 1_555
H5 C5 1_555 1_555
C6 C1 1_555 1_555
C7 Sn1 1_555 1_555
H6 C7 1_555 1_555
H7 C7 1_555 1_555
C8 H8 1_555 1_555
C9 C8 1_555 1_555
C10 C9 1_555 1_555
H9 C10 1_555 1_555
C11 C10 1_555 1_555
H10 C11 1_555 1_555
C12 C11 1_555 1_555
H11 C12 1_555 1_555
C13 C9 1_555 1_555
H12 C13 1_555 1_555
H13 C13 1_555 1_555
C14 H14 1_555 1_555
C15 C14 1_555 1_555
C16 C15 1_555 1_555
H15 C16 1_555 1_555
O1 C13 1_555 1_555
N1 Sn1 1_555 1_555
Sn1_2 N1B 1_555 1_555
Cl1B Sn1 1_555 1_555
C1B H1B 1_555 1_555
C2B C1B 1_555 1_555
H2B C2B 1_555 1_555
C3B C2B 1_555 1_555
H3B C3B 1_555 1_555
C4B C3B 1_555 1_555
H4B C4B 1_555 1_555
C5B C4B 1_555 1_555
H5B C5B 1_555 1_555
C6B C1B 1_555 1_555
C7B Sn1 1_555 1_555
H6B C7B 1_555 1_555
H7B C7B 1_555 1_555
C8B H8B 1_555 1_555
C9B C8B 1_555 1_555
C10B C9B 1_555 1_555
H9B C10B 1_555 1_555
C11B C10B 1_555 1_555
H10B C11B 1_555 1_555
C12B C11B 1_555 1_555
H11B C12B 1_555 1_555
C13B C9B 1_555 1_555
H12B C13B 1_555 1_555
H13B C13B 1_555 1_555
C14B C16 1_555 1_555
H14B C14B 1_555 1_555
C15B C14B 1_555 1_555
C16B C14 1_555 1_555
H15B C16B 1_555 1_555
O1B C13B 1_555 1_555
N1B C8B 1_555 1_555
N1B_2 Sn1 1_555 1_555
C5 C6 1_555 1_555
C6 C7 1_555 1_555
C8 N1 1_555 1_555
C12 N1 1_555 1_555
C15 O1 1_555 1_555
C5B C6B 1_555 1_555
C6B C7B 1_555 1_555
C12B N1B 1_555 1_555
C15B C16B 1_555 1_555
C15B O1B 1_555 1_555

#END
