
#######################################################################
#
#                 Cambridge Crystallographic Data Centre
#                                CCDC 
#
#######################################################################
#
# If this CIF has been generated from an entry in the Cambridge 
# Structural Database, then it will include bibliographic, chemical, 
# crystal, experimental, refinement or atomic coordinate data resulting 
# from the CCDC's data processing and validation procedures.
#
#######################################################################

data_HIQJIC
_symmetry_cell_setting           orthorhombic
_symmetry_space_group_name_H-M   'I b a m'
_symmetry_Int_Tables_number      72
_space_group_name_Hall           '-I 2 2c'
loop_
_symmetry_equiv_pos_site_id
_symmetry_equiv_pos_as_xyz
1 x,y,z
2 -x,-y,z
3 1/2-x,1/2+y,-z
4 1/2+x,1/2-y,-z
5 1/2+x,1/2+y,1/2+z
6 1/2-x,1/2-y,1/2+z
7 -x,y,1/2-z
8 x,-y,1/2-z
9 -x,-y,-z
10 x,y,-z
11 1/2+x,1/2-y,z
12 1/2-x,1/2+y,z
13 1/2-x,1/2-y,1/2-z
14 1/2+x,1/2+y,1/2-z
15 x,-y,1/2+z
16 -x,y,1/2+z
_cell_length_a                   8.430(5)
_cell_length_b                   16.155(12)
_cell_length_c                   19.840(11)
_cell_angle_alpha                90
_cell_angle_beta                 90
_cell_angle_gamma                90
_cell_volume                     2701.94
loop_
_atom_site_label
_atom_site_type_symbol
_atom_site_fract_x
_atom_site_fract_y
_atom_site_fract_z
O6 O 0.8472(6) 0.3441(4) 0.2112(3)
N1 N 0.5000 0.0000 0.2122(17)
C5 C 0.5000 0.0000 0.2878(17)
N1F N 0.5000 0.0000 0.2878(17)
C5F C 0.5000 0.0000 0.2122(17)
Zn1 Zn 0.61120(11) 0.24791(6) 0.08719(6)
P1 P 0.3710(2) 0.37823(15) 0.13866(12)
O1 O 0.3509(6) 0.4379(4) 0.1967(3)
C1 C 0.3224(9) 0.4321(5) 0.0613(5)
Zn2 Zn 0.5000 0.5000 0.2500
P2 P 0.1461(3) 0.65451(19) 0.0000
O2 O 0.5407(7) 0.3462(4) 0.1325(3)
C2 C 0.3591(13) 0.3961(7) 0.0000
H1 H 0.4119 0.3441 0.0000
C3 C 0.2147(14) 0.5492(7) 0.0000
O3 O 0.2559(7) 0.3054(4) 0.1464(3)
O4 O 0.0555(6) 0.6696(4) 0.0636(3)
C4 C 0.2508(8) 0.5098(5) 0.0612(4)
H2 H 0.2263 0.5363 0.1027
O5 O 0.2965(10) 0.7126(5) 0.0000
P1I P 0.3710(2) 0.37823(15) -0.13866(12)
O1I O 0.3509(6) 0.4379(4) -0.1967(3)
C1I C 0.3224(9) 0.4321(5) -0.0613(5)
O2I O 0.5407(7) 0.3462(4) -0.1325(3)
O3I O 0.2559(7) 0.3054(4) -0.1464(3)
O4I O 0.0555(6) 0.6696(4) -0.0636(3)
C4I C 0.2508(8) 0.5098(5) -0.0612(4)
H2I H 0.2263 0.5363 -0.1027
Zn1A Zn 0.38880(11) 0.75209(6) 0.08719(6)
P1A P 0.6290(2) 0.62177(15) 0.13866(12)
O1A O 0.6491(6) 0.5621(4) 0.1967(3)
C1A C 0.6776(9) 0.5679(5) 0.0613(5)
P2A P 0.8539(3) 0.34549(19) 0.0000
O2A O 0.4593(7) 0.6538(4) 0.1325(3)
C2A C 0.6409(13) 0.6039(7) 0.0000
H1A H 0.5881 0.6559 0.0000
C3A C 0.7853(14) 0.4508(7) 0.0000
O3A O 0.7441(7) 0.6946(4) 0.1464(3)
O4A O 0.9445(6) 0.3304(4) 0.0636(3)
C4A C 0.7492(8) 0.4902(5) 0.0612(4)
H2A H 0.7737 0.4637 0.1027
O5A O 0.7035(10) 0.2874(5) 0.0000
P1H P 0.6290(2) 0.62177(15) -0.13866(12)
O1H O 0.6491(6) 0.5621(4) -0.1967(3)
C1H C 0.6776(9) 0.5679(5) -0.0613(5)
O2H O 0.4593(7) 0.6538(4) -0.1325(3)
O3H O 0.7441(7) 0.6946(4) -0.1464(3)
O4H O 0.9445(6) 0.3304(4) -0.0636(3)
C4H C 0.7492(8) 0.4902(5) -0.0612(4)
H2H H 0.7737 0.4637 -0.1027
Zn1J Zn 0.11120(11) 0.25209(6) 0.08719(6)
Zn1K Zn -0.11120(11) 0.74791(6) 0.08719(6)
Zn1B Zn -0.11120(11) 0.74791(6) -0.08719(6)
Zn1B_2 Zn 0.88880(11) 0.74791(6) -0.08719(6)
Zn1C Zn 0.11120(11) 0.25209(6) -0.08719(6)
Zn1C_2 Zn 1.11120(11) 0.25209(6) -0.08719(6)
Zn1H Zn 0.38880(11) 0.75209(6) -0.08719(6)
Zn1I Zn 0.61120(11) 0.24791(6) -0.08719(6)
Zn1J_2 Zn 1.11120(11) 0.25209(6) 0.08719(6)
Zn1K_2 Zn 0.88880(11) 0.74791(6) 0.08719(6)
O1F O 0.6491(6) 0.4379(4) 0.3033(3)
O1G O 0.3509(6) 0.5621(4) 0.3033(3)
Zn2H Zn 0.5000 0.5000 -0.2500
O2J O 0.0407(7) 0.1538(4) 0.1325(3)
O2K O -0.0407(7) 0.8462(4) 0.1325(3)
O3A_2 O -0.2559(7) 0.6946(4) 0.1464(3)
O3J O 0.7559(7) 0.1946(4) 0.1464(3)
O3K O 0.2441(7) 0.8054(4) 0.1464(3)
O4A_2 O -0.0555(6) 0.3304(4) 0.0636(3)
O4J O 0.5555(6) 0.8304(4) 0.0636(3)
O4K O 0.4445(6) 0.1696(4) 0.0636(3)
O5B O 0.2035(10) 0.2126(5) 0.0000
O5C O -0.2035(10) 0.7874(5) 0.0000
loop_
_geom_bond_atom_site_label_1
_geom_bond_atom_site_label_2
_geom_bond_site_symmetry_1
_geom_bond_site_symmetry_2
Zn1 O2 1_555 1_555
P1 O1 1_555 1_555
O1 Zn2 1_555 1_555
C1 P1 1_555 1_555
Zn2 O1A 1_555 1_555
P2 C3 1_555 1_555
O2 P1 1_555 1_555
C2 C1 1_555 1_555
H1 C2 1_555 1_555
C3 C4 1_555 1_555
O3 P1 1_555 1_555
O4 P2 1_555 1_555
C4 C1 1_555 1_555
H2 C4 1_555 1_555
O5 P2 1_555 1_555
N1 C5 1_555 1_555
C5 C5F 1_555 1_555
P1I O1I 1_555 1_555
O1I Zn2H 1_555 1_555
C1I C2 1_555 1_555
O2I P1I 1_555 1_555
O3I P1I 1_555 1_555
O4I P2 1_555 1_555
C4I C3 1_555 1_555
H2I C4I 1_555 1_555
Zn1A O5 1_555 1_555
P1A O1A 1_555 1_555
C1A P1A 1_555 1_555
P2A C3A 1_555 1_555
O2A Zn1A 1_555 1_555
C2A C1A 1_555 1_555
H1A C2A 1_555 1_555
C3A C4A 1_555 1_555
O3A P1A 1_555 1_555
O4A P2A 1_555 1_555
C4A C1A 1_555 1_555
H2A C4A 1_555 1_555
O5A Zn1 1_555 1_555
P1H O1H 1_555 1_555
O1H Zn2H 1_555 1_555
C1H C2A 1_555 1_555
O2H P1H 1_555 1_555
O3H P1H 1_555 1_555
O4H P2A 1_555 1_555
C4H C3A 1_555 1_555
H2H C4H 1_555 1_555
Zn1J O3 1_555 1_555
Zn1K O4 1_555 1_555
Zn1B O4I 1_555 1_555
Zn1B_2 O3H 1_555 1_555
Zn1C O3I 1_555 1_555
Zn1C_2 O4H 1_555 1_555
Zn1H O5 1_555 1_555
Zn1I O2I 1_555 1_555
Zn1J_2 O4A 1_555 1_555
Zn1K_2 O3A 1_555 1_555
O1F Zn2 1_555 1_555
O1G Zn2 1_555 1_555
O2J Zn1J 1_555 1_555
O2K Zn1K 1_555 1_555
O3A_2 Zn1K 1_555 1_555
O3J Zn1 1_555 1_555
O3K Zn1A 1_555 1_555
O4A_2 Zn1J 1_555 1_555
O4J Zn1A 1_555 1_555
O4K Zn1 1_555 1_555
O5B Zn1J 1_555 1_555
O5C Zn1K 1_555 1_555
N1F N1 1_555 1_555
C5F N1F 1_555 1_555
P1I C1I 1_555 1_555
C1I C4I 1_555 1_555
P1A O2A 1_555 1_555
P2A O5A 1_555 1_555
O5A Zn1I 1_555 1_555
P1H C1H 1_555 1_555
C1H C4H 1_555 1_555
O2H Zn1H 1_555 1_555
Zn1B O5C 1_555 1_555
Zn1C O5B 1_555 1_555

#END
