
#######################################################################
#
#                 Cambridge Crystallographic Data Centre
#                                CCDC 
#
#######################################################################
#
# If this CIF has been generated from an entry in the Cambridge 
# Structural Database, then it will include bibliographic, chemical, 
# crystal, experimental, refinement or atomic coordinate data resulting 
# from the CCDC's data processing and validation procedures.
#
#######################################################################

data_HIQJOI
_symmetry_cell_setting           orthorhombic
_symmetry_space_group_name_H-M   'I b a m'
_symmetry_Int_Tables_number      72
_space_group_name_Hall           '-I 2 2c'
loop_
_symmetry_equiv_pos_site_id
_symmetry_equiv_pos_as_xyz
1 x,y,z
2 -x,-y,z
3 1/2-x,1/2+y,-z
4 1/2+x,1/2-y,-z
5 1/2+x,1/2+y,1/2+z
6 1/2-x,1/2-y,1/2+z
7 -x,y,1/2-z
8 x,-y,1/2-z
9 -x,-y,-z
10 x,y,-z
11 1/2+x,1/2-y,z
12 1/2-x,1/2+y,z
13 1/2-x,1/2-y,1/2-z
14 1/2+x,1/2+y,1/2-z
15 x,-y,1/2+z
16 -x,y,1/2+z
_cell_length_a                   8.472(3)
_cell_length_b                   16.208(7)
_cell_length_c                   19.816(8)
_cell_angle_alpha                90
_cell_angle_beta                 90
_cell_angle_gamma                90
_cell_volume                     2721.02
loop_
_atom_site_label
_atom_site_type_symbol
_atom_site_fract_x
_atom_site_fract_y
_atom_site_fract_z
N1 N 0.0000 0.0000 0.2939(8)
N1F N 0.0000 0.0000 0.2061(8)
O6 O 0.1453(4) 0.1556(2) 0.28759(16)
H3 H 0.1958 0.1493 0.2545
H4 H 0.0976 0.1122 0.2905
Zn1 Zn 0.39351(5) 0.25344(3) 0.41267(2)
O1 O 0.2496(3) 0.30770(16) 0.35364(12)
P1 P 0.13154(11) 0.37815(6) 0.36144(5)
C1 C 0.1768(4) 0.4326(2) 0.43834(18)
Zn2 Zn 0.0000 0.5000 0.2500
O2 O 0.1494(3) 0.43752(16) 0.30284(13)
P2 P 0.34688(16) 0.65555(8) 0.5000
C2 C 0.2445(4) 0.5110(2) 0.43896(19)
H1 H 0.2687 0.5369 0.3984
O3 O -0.0357(3) 0.34452(16) 0.36706(13)
C3 C 0.2762(6) 0.5508(3) 0.5000
O4 O 0.1990(4) 0.7137(2) 0.5000
C4 C 0.1414(6) 0.3959(3) 0.5000
H2 H 0.0921 0.3446 0.5000
O5 O 0.4381(3) 0.67028(15) 0.56410(13)
O1I O 0.2496(3) 0.30770(16) 0.64636(12)
P1I P 0.13154(11) 0.37815(6) 0.63856(5)
C1I C 0.1768(4) 0.4326(2) 0.56166(18)
O2I O 0.1494(3) 0.43752(16) 0.69716(13)
C2I C 0.2445(4) 0.5110(2) 0.56104(19)
H1I H 0.2687 0.5369 0.6016
O3I O -0.0357(3) 0.34452(16) 0.63294(13)
O5I O 0.4381(3) 0.67028(15) 0.43590(13)
Zn1A Zn -0.39351(5) 0.74656(3) 0.41267(2)
O1A O -0.2496(3) 0.69230(16) 0.35364(12)
P1A P -0.13154(11) 0.62185(6) 0.36144(5)
C1A C -0.1768(4) 0.5674(2) 0.43834(18)
O2A O -0.1494(3) 0.56248(16) 0.30284(13)
P2A P -0.34688(16) 0.34445(8) 0.5000
C2A C -0.2445(4) 0.4890(2) 0.43896(19)
H1A H -0.2687 0.4631 0.3984
O3A O 0.0357(3) 0.65548(16) 0.36706(13)
C3A C -0.2762(6) 0.4492(3) 0.5000
O4A O -0.1990(4) 0.2863(2) 0.5000
C4A C -0.1414(6) 0.6041(3) 0.5000
H2A H -0.0921 0.6554 0.5000
O5A O -0.4381(3) 0.32972(15) 0.56410(13)
O1H O -0.2496(3) 0.69230(16) 0.64636(12)
P1H P -0.13154(11) 0.62185(6) 0.63856(5)
C1H C -0.1768(4) 0.5674(2) 0.56166(18)
O2H O -0.1494(3) 0.56248(16) 0.69716(13)
C2H C -0.2445(4) 0.4890(2) 0.56104(19)
H1H H -0.2687 0.4631 0.6016
O3H O 0.0357(3) 0.65548(16) 0.63294(13)
O5H O -0.4381(3) 0.32972(15) 0.43590(13)
Zn1J Zn -0.10649(5) 0.24656(3) 0.41267(2)
Zn1B Zn 0.10649(5) 0.75344(3) 0.58733(2)
Zn1_2 Zn -0.60649(5) 0.25344(3) 0.41267(2)
Zn1A_2 Zn 0.60649(5) 0.74656(3) 0.41267(2)
Zn1C Zn -0.10649(5) 0.24656(3) 0.58733(2)
Zn1H Zn -0.39351(5) 0.74656(3) 0.58733(2)
Zn1H_2 Zn 0.60649(5) 0.74656(3) 0.58733(2)
Zn1I Zn -0.60649(5) 0.25344(3) 0.58733(2)
Zn1I_2 Zn 0.39351(5) 0.25344(3) 0.58733(2)
Zn1K Zn 0.10649(5) 0.75344(3) 0.41267(2)
O1B O 0.2504(3) 0.80770(16) 0.64636(12)
O1J O -0.2504(3) 0.19230(16) 0.35364(12)
Zn2H Zn 0.0000 0.5000 0.7500
O2F O -0.1494(3) 0.43752(16) 0.19716(13)
O2G O 0.1494(3) 0.56248(16) 0.19716(13)
O3J O 0.4643(3) 0.15548(16) 0.36706(13)
O3K O -0.4643(3) 0.84452(16) 0.36706(13)
O4B O 0.3010(4) 0.2137(2) 0.5000
O4C O -0.3010(4) 0.7863(2) 0.5000
O5B O 0.0619(3) 0.17028(15) 0.43590(13)
O5H_2 O 0.5619(3) 0.32972(15) 0.43590(13)
O5I_2 O -0.5619(3) 0.67028(15) 0.43590(13)
O5J O -0.0619(3) 0.82972(15) 0.56410(13)
loop_
_geom_bond_atom_site_label_1
_geom_bond_atom_site_label_2
_geom_bond_site_symmetry_1
_geom_bond_site_symmetry_2
Zn1 O1 1_555 1_555
O1 P1 1_555 1_555
P1 C1 1_555 1_555
C1 C2 1_555 1_555
Zn2 O2 1_555 1_555
O2 P1 1_555 1_555
P2 C3 1_555 1_555
C2 H1 1_555 1_555
O3 P1 1_555 1_555
C3 C2 1_555 1_555
O4 P2 1_555 1_555
C4 C1 1_555 1_555
H2 C4 1_555 1_555
O5 P2 1_555 1_555
N1 N1F 1_555 1_555
O6 H3 1_555 1_555
H4 O6 1_555 1_555
O1I P1I 1_555 1_555
P1I C1I 1_555 1_555
C1I C4 1_555 1_555
O2I P1I 1_555 1_555
C2I C3 1_555 1_555
H1I C2I 1_555 1_555
O3I P1I 1_555 1_555
O5I P2 1_555 1_555
Zn1A O1A 1_555 1_555
O1A P1A 1_555 1_555
P1A C1A 1_555 1_555
C1A C2A 1_555 1_555
O2A Zn2 1_555 1_555
P2A C3A 1_555 1_555
C2A H1A 1_555 1_555
O3A P1A 1_555 1_555
C3A C2A 1_555 1_555
O4A P2A 1_555 1_555
C4A C1A 1_555 1_555
H2A C4A 1_555 1_555
O5A P2A 1_555 1_555
O1H P1H 1_555 1_555
P1H C1H 1_555 1_555
C1H C4A 1_555 1_555
O2H P1H 1_555 1_555
C2H C3A 1_555 1_555
H1H C2H 1_555 1_555
O3H P1H 1_555 1_555
O5H P2A 1_555 1_555
Zn1J O3 1_555 1_555
Zn1B O4 1_555 1_555
Zn1_2 O5H 1_555 1_555
Zn1A_2 O5I 1_555 1_555
Zn1C O3I 1_555 1_555
Zn1H O1H 1_555 1_555
Zn1H_2 O5 1_555 1_555
Zn1I O5A 1_555 1_555
Zn1I_2 O1I 1_555 1_555
Zn1K O4 1_555 1_555
O1B Zn1B 1_555 1_555
O1J Zn1J 1_555 1_555
Zn2H O2I 1_555 1_555
O2F Zn2 1_555 1_555
O2G Zn2 1_555 1_555
O3J Zn1 1_555 1_555
O3K Zn1A 1_555 1_555
O4B Zn1 1_555 1_555
O4C Zn1A 1_555 1_555
O5B Zn1J 1_555 1_555
O5H_2 Zn1 1_555 1_555
O5I_2 Zn1A 1_555 1_555
O5J Zn1B 1_555 1_555
C1I C2I 1_555 1_555
P1A O2A 1_555 1_555
O3A Zn1K 1_555 1_555
O4A Zn1J 1_555 1_555
O4A Zn1C 1_555 1_555
C1H C2H 1_555 1_555
O2H Zn2H 1_555 1_555
O3H Zn1B 1_555 1_555
Zn1H O4C 1_555 1_555
Zn1I_2 O4B 1_555 1_555

#END
