
#######################################################################
#
#                 Cambridge Crystallographic Data Centre
#                                CCDC 
#
#######################################################################
#
# If this CIF has been generated from an entry in the Cambridge 
# Structural Database, then it will include bibliographic, chemical, 
# crystal, experimental, refinement or atomic coordinate data resulting 
# from the CCDC's data processing and validation procedures.
#
#######################################################################

data_HIQJUO
_symmetry_cell_setting           orthorhombic
_symmetry_space_group_name_H-M   'I b a m'
_symmetry_Int_Tables_number      72
_space_group_name_Hall           '-I 2 2c'
loop_
_symmetry_equiv_pos_site_id
_symmetry_equiv_pos_as_xyz
1 x,y,z
2 -x,-y,z
3 1/2-x,1/2+y,-z
4 1/2+x,1/2-y,-z
5 1/2+x,1/2+y,1/2+z
6 1/2-x,1/2-y,1/2+z
7 -x,y,1/2-z
8 x,-y,1/2-z
9 -x,-y,-z
10 x,y,-z
11 1/2+x,1/2-y,z
12 1/2-x,1/2+y,z
13 1/2-x,1/2-y,1/2-z
14 1/2+x,1/2+y,1/2-z
15 x,-y,1/2+z
16 -x,y,1/2+z
_cell_length_a                   8.472(3)
_cell_length_b                   16.208(7)
_cell_length_c                   19.816(8)
_cell_angle_alpha                90
_cell_angle_beta                 90
_cell_angle_gamma                90
_cell_volume                     2721.02
loop_
_atom_site_label
_atom_site_type_symbol
_atom_site_fract_x
_atom_site_fract_y
_atom_site_fract_z
O6 O 0.0000 0.0000 0.2073(9)
H3 H -0.0887 0.0174 0.1913
H3A H 0.0887 -0.0174 0.1913
N1 N 0.1459(4) 0.1546(3) 0.28716(19)
Zn1 Zn 0.39352(6) 0.25343(3) 0.41270(3)
O1 O 0.2498(4) 0.30780(18) 0.35359(14)
P1 P 0.13148(13) 0.37818(7) 0.36147(6)
C1 C 0.1770(5) 0.4326(3) 0.4384(2)
Zn2 Zn 0.0000 0.5000 0.2500
O2 O 0.1494(3) 0.43769(19) 0.30282(16)
P2 P 0.34682(18) 0.65552(9) 0.5000
C2 C 0.2448(5) 0.5110(3) 0.4391(2)
H1 H 0.2691 0.5371 0.3985
O3 O -0.0356(3) 0.34455(18) 0.36710(15)
C3 C 0.2764(7) 0.5505(4) 0.5000
O4 O 0.1991(5) 0.7137(3) 0.5000
C4 C 0.1422(7) 0.3957(4) 0.5000
H2 H 0.0937 0.3442 0.5000
O5 O 0.4378(3) 0.67036(18) 0.56433(15)
O1I O 0.2498(4) 0.30780(18) 0.64641(14)
P1I P 0.13148(13) 0.37818(7) 0.63853(6)
C1I C 0.1770(5) 0.4326(3) 0.5616(2)
O2I O 0.1494(3) 0.43769(19) 0.69718(16)
C2I C 0.2448(5) 0.5110(3) 0.5609(2)
H1I H 0.2691 0.5371 0.6015
O3I O -0.0356(3) 0.34455(18) 0.63290(15)
O5I O 0.4378(3) 0.67036(18) 0.43567(15)
Zn1A Zn -0.39352(6) 0.74657(3) 0.41270(3)
O1A O -0.2498(4) 0.69220(18) 0.35359(14)
P1A P -0.13148(13) 0.62182(7) 0.36147(6)
C1A C -0.1770(5) 0.5674(3) 0.4384(2)
O2A O -0.1494(3) 0.56231(19) 0.30282(16)
P2A P -0.34682(18) 0.34448(9) 0.5000
C2A C -0.2448(5) 0.4890(3) 0.4391(2)
H1A H -0.2691 0.4629 0.3985
O3A O 0.0356(3) 0.65545(18) 0.36710(15)
C3A C -0.2764(7) 0.4495(4) 0.5000
O4A O -0.1991(5) 0.2863(3) 0.5000
C4A C -0.1422(7) 0.6043(4) 0.5000
H2A H -0.0937 0.6558 0.5000
O5A O -0.4378(3) 0.32964(18) 0.56433(15)
O1H O -0.2498(4) 0.69220(18) 0.64641(14)
P1H P -0.13148(13) 0.62182(7) 0.63853(6)
C1H C -0.1770(5) 0.5674(3) 0.5616(2)
O2H O -0.1494(3) 0.56231(19) 0.69718(16)
C2H C -0.2448(5) 0.4890(3) 0.5609(2)
H1H H -0.2691 0.4629 0.6015
O3H O 0.0356(3) 0.65545(18) 0.63290(15)
O5H O -0.4378(3) 0.32964(18) 0.43567(15)
Zn1J Zn -0.10648(6) 0.24657(3) 0.41270(3)
Zn1B Zn 0.10648(6) 0.75343(3) 0.58730(3)
Zn1_2 Zn -0.60648(6) 0.25343(3) 0.41270(3)
Zn1A_2 Zn 0.60648(6) 0.74657(3) 0.41270(3)
Zn1C Zn -0.10648(6) 0.24657(3) 0.58730(3)
Zn1H Zn -0.39352(6) 0.74657(3) 0.58730(3)
Zn1H_2 Zn 0.60648(6) 0.74657(3) 0.58730(3)
Zn1I Zn -0.60648(6) 0.25343(3) 0.58730(3)
Zn1I_2 Zn 0.39352(6) 0.25343(3) 0.58730(3)
Zn1K Zn 0.10648(6) 0.75343(3) 0.41270(3)
O1B O 0.2502(4) 0.80780(18) 0.64641(14)
O1J O -0.2502(4) 0.19220(18) 0.35359(14)
Zn2H Zn 0.0000 0.5000 0.7500
O2F O -0.1494(3) 0.43769(19) 0.19718(16)
O2G O 0.1494(3) 0.56231(19) 0.19718(16)
O3J O 0.4644(3) 0.15545(18) 0.36710(15)
O3K O -0.4644(3) 0.84455(18) 0.36710(15)
O4B O 0.3009(5) 0.2137(3) 0.5000
O4C O -0.3009(5) 0.7863(3) 0.5000
O5B O 0.0622(3) 0.17036(18) 0.43567(15)
O5H_2 O 0.5622(3) 0.32964(18) 0.43567(15)
O5I_2 O -0.5622(3) 0.67036(18) 0.43567(15)
O5J O -0.0622(3) 0.82964(18) 0.56433(15)
O7? O 0.1459(4) 0.1546(3) 0.28716(19)
loop_
_geom_bond_atom_site_label_1
_geom_bond_atom_site_label_2
_geom_bond_site_symmetry_1
_geom_bond_site_symmetry_2
Zn1 O1 1_555 1_555
O1 P1 1_555 1_555
P1 C1 1_555 1_555
C1 C2 1_555 1_555
Zn2 O2 1_555 1_555
O2 P1 1_555 1_555
P2 C3 1_555 1_555
C2 H1 1_555 1_555
O3 P1 1_555 1_555
C3 C2 1_555 1_555
O4 P2 1_555 1_555
C4 C1 1_555 1_555
H2 C4 1_555 1_555
O5 P2 1_555 1_555
O6 H3 1_555 1_555
O1I P1I 1_555 1_555
P1I C1I 1_555 1_555
C1I C4 1_555 1_555
O2I P1I 1_555 1_555
C2I C3 1_555 1_555
H1I C2I 1_555 1_555
O3I P1I 1_555 1_555
O5I P2 1_555 1_555
Zn1A O1A 1_555 1_555
O1A P1A 1_555 1_555
P1A C1A 1_555 1_555
C1A C2A 1_555 1_555
O2A Zn2 1_555 1_555
P2A C3A 1_555 1_555
C2A H1A 1_555 1_555
O3A P1A 1_555 1_555
C3A C2A 1_555 1_555
O4A P2A 1_555 1_555
C4A C1A 1_555 1_555
H2A C4A 1_555 1_555
O5A P2A 1_555 1_555
O1H P1H 1_555 1_555
P1H C1H 1_555 1_555
C1H C4A 1_555 1_555
O2H P1H 1_555 1_555
C2H C3A 1_555 1_555
H1H C2H 1_555 1_555
O3H P1H 1_555 1_555
O5H P2A 1_555 1_555
Zn1J O3 1_555 1_555
Zn1B O4 1_555 1_555
Zn1_2 O5H 1_555 1_555
Zn1A_2 O5I 1_555 1_555
Zn1C O3I 1_555 1_555
Zn1H O1H 1_555 1_555
Zn1H_2 O5 1_555 1_555
Zn1I O5A 1_555 1_555
Zn1I_2 O1I 1_555 1_555
Zn1K O4 1_555 1_555
O1B Zn1B 1_555 1_555
O1J Zn1J 1_555 1_555
Zn2H O2I 1_555 1_555
O2F Zn2 1_555 1_555
O2G Zn2 1_555 1_555
O3J Zn1 1_555 1_555
O3K Zn1A 1_555 1_555
O4B Zn1 1_555 1_555
O4C Zn1A 1_555 1_555
O5B Zn1J 1_555 1_555
O5H_2 Zn1 1_555 1_555
O5I_2 Zn1A 1_555 1_555
O5J Zn1B 1_555 1_555
H3A O6 1_555 1_555
C1I C2I 1_555 1_555
P1A O2A 1_555 1_555
O3A Zn1K 1_555 1_555
O4A Zn1J 1_555 1_555
O4A Zn1C 1_555 1_555
C1H C2H 1_555 1_555
O2H Zn2H 1_555 1_555
O3H Zn1B 1_555 1_555
Zn1H O4C 1_555 1_555
Zn1I_2 O4B 1_555 1_555

#END
