
#######################################################################
#
#                 Cambridge Crystallographic Data Centre
#                                CCDC 
#
#######################################################################
#
# If this CIF has been generated from an entry in the Cambridge 
# Structural Database, then it will include bibliographic, chemical, 
# crystal, experimental, refinement or atomic coordinate data resulting 
# from the CCDC's data processing and validation procedures.
#
#######################################################################

data_HIQJIB
_symmetry_cell_setting           monoclinic
_symmetry_space_group_name_H-M   'C 2/c'
_symmetry_Int_Tables_number      15
_space_group_name_Hall           '-C 2yn'
loop_
_symmetry_equiv_pos_site_id
_symmetry_equiv_pos_as_xyz
1 x,y,z
2 1/2+x,1/2+y,z
3 -x,y,1/2-z
4 1/2-x,1/2+y,1/2-z
5 -x,-y,-z
6 1/2-x,1/2-y,-z
7 x,-y,1/2+z
8 1/2+x,1/2-y,1/2+z
_cell_length_a                   23.9560(8)
_cell_length_b                   12.6670(8)
_cell_length_c                   18.3560(9)
_cell_angle_alpha                90
_cell_angle_beta                 126.5930(10)
_cell_angle_gamma                90
_cell_volume                     4472.21
loop_
_atom_site_label
_atom_site_type_symbol
_atom_site_fract_x
_atom_site_fract_y
_atom_site_fract_z
Pb1 Pb 0.0000 0.369453(14) 0.7500
C1 C -0.3961(3) 0.1026(3) 0.8718(3)
H1 H -0.4300 0.1391 0.8713
C2 C -0.3441(3) 0.1481(3) 0.8750(3)
H2 H -0.3353 0.2200 0.8774
C3 C -0.3366(2) -0.0243(3) 0.8719(3)
C4 C -0.3138(2) -0.1323(3) 0.8724(2)
C5 C -0.2448(3) -0.1598(4) 0.9119(3)
H3 H -0.2105 -0.1081 0.9379
C6 C -0.2279(3) -0.2630(4) 0.9124(4)
H4 H -0.1821 -0.2822 0.9387
C7 C -0.2794(3) -0.3376(4) 0.8734(3)
H5 H -0.2695 -0.4083 0.8722
C8 C -0.3465(3) -0.3051(3) 0.8360(3)
H6 H -0.3813 -0.3561 0.8102
C9 C -0.2491(2) 0.0851(3) 0.8679(3)
H7 H -0.2595 0.1467 0.8304
H8 H -0.2454 0.0250 0.8383
C10 C -0.1798(2) 0.1016(3) 0.9593(3)
C11 C -0.1707(2) 0.0842(3) 1.0405(3)
H9 H -0.2084 0.0629 1.0392
C12 C -0.1075(3) 0.0976(3) 1.1220(3)
H10 H -0.1023 0.0846 1.1756
C13 C -0.0506(2) 0.1307(3) 1.1254(3)
H11 H -0.0075 0.1400 1.1810
C14 C -0.0586(2) 0.1498(3) 1.0452(3)
H12 H -0.0206 0.1719 1.0473
C15 C -0.1230(2) 0.1362(3) 0.9617(2)
C16 C -0.1331(2) 0.1580(3) 0.8735(3)
H13 H -0.1575 0.0989 0.8327
H14 H -0.1622 0.2200 0.8454
C17 C -0.0294(3) 0.0944(4) 0.8856(3)
H15 H -0.0365 0.0224 0.8868
C18 C 0.0209(3) 0.1404(3) 0.8849(4)
H16 H 0.0551 0.1042 0.8858
C19 C -0.0393(2) 0.2666(3) 0.8829(3)
C20 C -0.0613(2) 0.3735(3) 0.8845(3)
C21 C -0.0888(3) 0.4009(4) 0.9309(3)
H17 H -0.0967 0.3496 0.9600
C22 C -0.1041(3) 0.5061(4) 0.9329(3)
H18 H -0.1228 0.5259 0.9630
C23 C -0.0915(3) 0.5805(4) 0.8903(3)
H19 H -0.1010 0.6514 0.8913
C24 C -0.0644(3) 0.5471(3) 0.8456(3)
H20 H -0.0566 0.5977 0.8159
N1 N -0.0682(2) 0.1750(3) 0.8843(2)
N2 N 0.0148(2) 0.2480(3) 0.8825(3)
N3 N -0.04862(19) 0.4469(3) 0.8425(2)
N4 N -0.3922(2) -0.0055(3) 0.8693(2)
N5 N -0.30638(19) 0.0672(3) 0.8739(2)
N6 N -0.36416(19) -0.2053(2) 0.8348(2)
Pb1A Pb -0.5000 -0.130547(14) 0.7500
Pb1A_2 Pb 0.5000 -0.130547(14) 0.7500
C1B C 0.3961(3) 0.1026(3) 0.6282(3)
H1B H 0.4300 0.1391 0.6287
C2B C 0.3441(3) 0.1481(3) 0.6250(3)
H2B H 0.3353 0.2200 0.6226
C3B C 0.3366(2) -0.0243(3) 0.6281(3)
C4B C 0.3138(2) -0.1323(3) 0.6276(2)
C5B C 0.2448(3) -0.1598(4) 0.5881(3)
H3B H 0.2105 -0.1081 0.5621
C6B C 0.2279(3) -0.2630(4) 0.5876(4)
H4B H 0.1821 -0.2822 0.5613
C7B C 0.2794(3) -0.3376(4) 0.6266(3)
H5B H 0.2695 -0.4083 0.6278
C8B C 0.3465(3) -0.3051(3) 0.6640(3)
H6B H 0.3813 -0.3561 0.6898
C9B C 0.2491(2) 0.0851(3) 0.6321(3)
H7B H 0.2595 0.1467 0.6696
H8B H 0.2454 0.0250 0.6617
C10B C 0.1798(2) 0.1016(3) 0.5407(3)
C11B C 0.1707(2) 0.0842(3) 0.4595(3)
H9B H 0.2084 0.0629 0.4608
C12B C 0.1075(3) 0.0976(3) 0.3780(3)
H10B H 0.1023 0.0846 0.3244
C13B C 0.0506(2) 0.1307(3) 0.3746(3)
H11B H 0.0075 0.1400 0.3190
C14B C 0.0586(2) 0.1498(3) 0.4548(3)
H12B H 0.0206 0.1719 0.4527
C15B C 0.1230(2) 0.1362(3) 0.5383(2)
C16B C 0.1331(2) 0.1580(3) 0.6265(3)
H13B H 0.1575 0.0989 0.6673
H14B H 0.1622 0.2200 0.6546
C17B C 0.0294(3) 0.0944(4) 0.6144(3)
H15B H 0.0365 0.0224 0.6132
C18B C -0.0209(3) 0.1404(3) 0.6151(4)
H16B H -0.0551 0.1042 0.6142
C19B C 0.0393(2) 0.2666(3) 0.6171(3)
C20B C 0.0613(2) 0.3735(3) 0.6155(3)
C21B C 0.0888(3) 0.4009(4) 0.5691(3)
H17B H 0.0967 0.3496 0.5400
C22B C 0.1041(3) 0.5061(4) 0.5671(3)
H18B H 0.1228 0.5259 0.5370
C23B C 0.0915(3) 0.5805(4) 0.6097(3)
H19B H 0.1010 0.6514 0.6087
C24B C 0.0644(3) 0.5471(3) 0.6544(3)
H20B H 0.0566 0.5977 0.6841
N1B N 0.0682(2) 0.1750(3) 0.6157(2)
N2B N -0.0148(2) 0.2480(3) 0.6175(3)
N3B N 0.04862(19) 0.4469(3) 0.6575(2)
N4B N 0.3922(2) -0.0055(3) 0.6307(2)
N4A N 0.1078(2) 0.4945(3) 0.8693(2)
N4C N -0.1078(2) 0.4945(3) 0.6307(2)
N5B N 0.30638(19) 0.0672(3) 0.6261(2)
N6B N 0.36416(19) -0.2053(2) 0.6652(2)
N6A N 0.13584(19) 0.2947(2) 0.8348(2)
N6C N -0.13584(19) 0.2947(2) 0.6652(2)
S1 S 0.23584(15) 0.88594(17) 0.80144(19)
C25 C 0.1601(5) 0.8640(6) 0.7079(9)
N7 N 0.1191(6) 0.8507(9) 0.6599(9)
loop_
_geom_bond_atom_site_label_1
_geom_bond_atom_site_label_2
_geom_bond_site_symmetry_1
_geom_bond_site_symmetry_2
Pb1 N2 1_555 1_555
C1 H1 1_555 1_555
C2 C1 1_555 1_555
H2 C2 1_555 1_555
C3 C4 1_555 1_555
C4 C5 1_555 1_555
C5 H3 1_555 1_555
C6 C5 1_555 1_555
H4 C6 1_555 1_555
C7 C6 1_555 1_555
H5 C7 1_555 1_555
C8 C7 1_555 1_555
H6 C8 1_555 1_555
C9 H7 1_555 1_555
H8 C9 1_555 1_555
C10 C9 1_555 1_555
C11 C10 1_555 1_555
H9 C11 1_555 1_555
C12 C11 1_555 1_555
H10 C12 1_555 1_555
C13 C12 1_555 1_555
H11 C13 1_555 1_555
C14 C13 1_555 1_555
H12 C14 1_555 1_555
C15 C10 1_555 1_555
C16 C15 1_555 1_555
H13 C16 1_555 1_555
H14 C16 1_555 1_555
C17 H15 1_555 1_555
C18 C17 1_555 1_555
H16 C18 1_555 1_555
C19 C20 1_555 1_555
C20 C21 1_555 1_555
C21 H17 1_555 1_555
C22 C21 1_555 1_555
H18 C22 1_555 1_555
C23 C22 1_555 1_555
H19 C23 1_555 1_555
C24 C23 1_555 1_555
H20 C24 1_555 1_555
N1 C16 1_555 1_555
N2 C18 1_555 1_555
N3 Pb1 1_555 1_555
N4 C1 1_555 1_555
N5 C2 1_555 1_555
N6 C4 1_555 1_555
S1 C25 1_555 1_555
C25 N7 1_555 1_555
Pb1A N4 1_555 1_555
Pb1A_2 N4B 1_555 1_555
C1B H1B 1_555 1_555
C2B C1B 1_555 1_555
H2B C2B 1_555 1_555
C3B C4B 1_555 1_555
C4B C5B 1_555 1_555
C5B H3B 1_555 1_555
C6B C5B 1_555 1_555
H4B C6B 1_555 1_555
C7B C6B 1_555 1_555
H5B C7B 1_555 1_555
C8B C7B 1_555 1_555
H6B C8B 1_555 1_555
C9B H7B 1_555 1_555
H8B C9B 1_555 1_555
C10B C9B 1_555 1_555
C11B C10B 1_555 1_555
H9B C11B 1_555 1_555
C12B C11B 1_555 1_555
H10B C12B 1_555 1_555
C13B C12B 1_555 1_555
H11B C13B 1_555 1_555
C14B C13B 1_555 1_555
H12B C14B 1_555 1_555
C15B C10B 1_555 1_555
C16B C15B 1_555 1_555
H13B C16B 1_555 1_555
H14B C16B 1_555 1_555
C17B H15B 1_555 1_555
C18B C17B 1_555 1_555
H16B C18B 1_555 1_555
C19B C20B 1_555 1_555
C20B C21B 1_555 1_555
C21B H17B 1_555 1_555
C22B C21B 1_555 1_555
H18B C22B 1_555 1_555
C23B C22B 1_555 1_555
H19B C23B 1_555 1_555
C24B C23B 1_555 1_555
H20B C24B 1_555 1_555
N1B C16B 1_555 1_555
N2B Pb1 1_555 1_555
N3B Pb1 1_555 1_555
N4B C1B 1_555 1_555
N4A Pb1 1_555 1_555
N4C Pb1 1_555 1_555
N5B C2B 1_555 1_555
N6B Pb1A_2 1_555 1_555
N6A Pb1 1_555 1_555
N6C Pb1 1_555 1_555
C3 N4 1_555 1_555
C3 N5 1_555 1_555
C8 N6 1_555 1_555
C9 N5 1_555 1_555
C14 C15 1_555 1_555
C17 N1 1_555 1_555
C19 N1 1_555 1_555
C19 N2 1_555 1_555
C20 N3 1_555 1_555
C24 N3 1_555 1_555
N6 Pb1A 1_555 1_555
C3B N4B 1_555 1_555
C3B N5B 1_555 1_555
C4B N6B 1_555 1_555
C8B N6B 1_555 1_555
C9B N5B 1_555 1_555
C14B C15B 1_555 1_555
C17B N1B 1_555 1_555
C18B N2B 1_555 1_555
C19B N1B 1_555 1_555
C19B N2B 1_555 1_555
C20B N3B 1_555 1_555
C24B N3B 1_555 1_555

#END
