
#######################################################################
#
#                 Cambridge Crystallographic Data Centre
#                                CCDC 
#
#######################################################################
#
# If this CIF has been generated from an entry in the Cambridge 
# Structural Database, then it will include bibliographic, chemical, 
# crystal, experimental, refinement or atomic coordinate data resulting 
# from the CCDC's data processing and validation procedures.
#
#######################################################################

data_HIQKUP
_symmetry_cell_setting           monoclinic
_symmetry_space_group_name_H-M   'C 2/c'
_symmetry_Int_Tables_number      15
_space_group_name_Hall           '-C 2yc'
loop_
_symmetry_equiv_pos_site_id
_symmetry_equiv_pos_as_xyz
1 x,y,z
2 -x,y,1/2-z
3 1/2-x,1/2+y,1/2-z
4 1/2+x,1/2+y,z
5 -x,-y,-z
6 x,-y,1/2+z
7 1/2+x,1/2-y,1/2+z
8 1/2-x,1/2-y,-z
_cell_length_a                   18.8885(23)
_cell_length_b                   6.40793(84)
_cell_length_c                   16.5076(19)
_cell_angle_alpha                90
_cell_angle_beta                 96.8851(61)
_cell_angle_gamma                90
_cell_volume                     1983.61
loop_
_atom_site_label
_atom_site_type_symbol
_atom_site_fract_x
_atom_site_fract_y
_atom_site_fract_z
K1 K -0.50378(68) 0.734(26) 0.09523(89)
C1 C -0.81517(44) 0.7435(12) 0.12176(35)
C2 C -0.76242(40) 0.6099(12) 0.09723(32)
C3 C -0.69175(44) 0.6603(10) 0.12018(34)
C4 C -0.67399(42) 0.8424(11) 0.16725(36)
C5 C -0.72717(42) 0.9660(12) 0.18925(41)
C6 C -0.79780(41) 0.9217(10) 0.16773(40)
C7 C -0.65104(41) 0.3499(13) 0.06515(46)
O1 O -0.63539(59) 0.5476(15) 0.10123(59)
O2 O -0.60436(57) 0.8884(22) 0.18896(50)
S1 S -0.90775(49) 0.6869(12) 0.09610(43)
O3 O -0.9140(12) 0.5400(28) 0.02855(96)
O4 O -0.9470(12) 0.8816(22) 0.0808(14)
O5 O -0.9293(11) 0.5872(32) 0.17118(86)
H1 H -0.5915(20) 0.9391(56) 0.2350(24)
H2 H -0.7759(26) 0.4944(57) 0.0669(24)
H3 H -0.7137(25) 1.0797(65) 0.2188(23)
H4 H -0.8341(25) 1.0071(57) 0.1826(25)
H5 H -0.6800(20) 0.2649(67) 0.0951(22)
H6 H -0.6805(19) 0.3663(61) 0.0130(24)
H7 H -0.6061(20) 0.2887(63) 0.0613(21)
K1G K -0.99622(68) 0.766(26) -0.09523(89)
K1C K -1.00378(68) 0.234(26) 0.09523(89)
K1C_2 K -1.00378(68) 1.234(26) 0.09523(89)
O3G O -0.5860(12) 0.9600(28) -0.02855(96)
O3C O -0.4140(12) 1.0400(28) 0.02855(96)
O4G O -0.5530(12) 0.6184(22) -0.0808(14)
O4C O -0.4470(12) 0.3816(22) 0.0808(14)
O5C O -0.4293(11) 1.0872(32) 0.17118(86)
loop_
_geom_bond_atom_site_label_1
_geom_bond_atom_site_label_2
_geom_bond_site_symmetry_1
_geom_bond_site_symmetry_2
K1 O1 1_555 1_555
C1 C2 1_555 1_555
C2 C3 1_555 1_555
C3 C4 1_555 1_555
C4 C5 1_555 1_555
C5 C6 1_555 1_555
C6 C1 1_555 1_555
C7 O1 1_555 1_555
O1 C3 1_555 1_555
O2 K1 1_555 1_555
S1 C1 1_555 1_555
O3 S1 1_555 1_555
O4 S1 1_555 1_555
O5 S1 1_555 1_555
H1 O2 1_555 1_555
H2 C2 1_555 1_555
H3 C5 1_555 1_555
H4 C6 1_555 1_555
H5 C7 1_555 1_555
H6 C7 1_555 1_555
H7 C7 1_555 1_555
K1G O3 1_555 1_555
K1C O3 1_555 1_555
K1C_2 O4 1_555 1_555
O3G K1 1_555 1_555
O3C K1 1_555 1_555
O4G K1 1_555 1_555
O4C K1 1_555 1_555
O5C K1 1_555 1_555
C4 O2 1_555 1_555
O4 K1G 1_555 1_555
O5 K1C 1_555 1_555

#END
