
#######################################################################
#
#                 Cambridge Crystallographic Data Centre
#                                CCDC 
#
#######################################################################
#
# If this CIF has been generated from an entry in the Cambridge 
# Structural Database, then it will include bibliographic, chemical, 
# crystal, experimental, refinement or atomic coordinate data resulting 
# from the CCDC's data processing and validation procedures.
#
#######################################################################

data_HIQKAV
_symmetry_cell_setting           orthorhombic
_symmetry_space_group_name_H-M   'I b a m'
_symmetry_Int_Tables_number      72
_space_group_name_Hall           '-I 2 2c'
loop_
_symmetry_equiv_pos_site_id
_symmetry_equiv_pos_as_xyz
1 x,y,z
2 -x,-y,z
3 1/2-x,1/2+y,-z
4 1/2+x,1/2-y,-z
5 1/2+x,1/2+y,1/2+z
6 1/2-x,1/2-y,1/2+z
7 -x,y,1/2-z
8 x,-y,1/2-z
9 -x,-y,-z
10 x,y,-z
11 1/2+x,1/2-y,z
12 1/2-x,1/2+y,z
13 1/2-x,1/2-y,1/2-z
14 1/2+x,1/2+y,1/2-z
15 x,-y,1/2+z
16 -x,y,1/2+z
_cell_length_a                   8.44253(17)
_cell_length_b                   16.2850(4)
_cell_length_c                   19.8132(4)
_cell_angle_alpha                90
_cell_angle_beta                 90
_cell_angle_gamma                90
_cell_volume                     2724.05
loop_
_atom_site_label
_atom_site_type_symbol
_atom_site_fract_x
_atom_site_fract_y
_atom_site_fract_z
O6 O 0.870(2) 0.6510(7) 0.7149(7)
N1 N 0.000 0.500 0.228(3)
N1F N 0.000 0.500 0.272(3)
Zn1 Zn 0.6039(3) 0.2470(2) 0.08806(13)
Zn2 Zn 1 0.000 0.250
O1 O 0.7383(12) 0.1898(7) 0.1504(6)
P1 P 0.8627(9) 0.1236(3) 0.1396(3)
C1 C 0.8195(15) 0.0665(8) 0.06102(7)
O2 O 1.0297(9) 0.1580(7) 0.1354(5)
P2 P 0.6515(12) -0.1579(5) 0.000
C2 C 0.7492(14) -0.0107(8) 0.06104(7)
O3 O 0.8479(13) 0.0629(6) 0.1978(5)
C3 C 0.719(3) -0.0497(9) 0.000
O4 O 0.5626(11) -0.1736(7) 0.0656(4)
C4 C 0.858(3) 0.1034(8) 0.000
O5 O 0.8020(14) -0.2092(9) 0.000
H1 H 0.721969 -0.036858 0.10287
H2 H 0.912344 0.155277 0.000
O1I O 0.7383(12) 0.1898(7) -0.1504(6)
P1I P 0.8627(9) 0.1236(3) -0.1396(3)
C1I C 0.8195(15) 0.0665(8) -0.06102(7)
O2I O 1.0297(9) 0.1580(7) -0.1354(5)
C2I C 0.7492(14) -0.0107(8) -0.06104(7)
O3I O 0.8479(13) 0.0629(6) -0.1978(5)
O4I O 0.5626(11) -0.1736(7) -0.0656(4)
H1I H 0.721969 -0.036858 -0.10287
Zn1A Zn 0.3961(3) -0.2470(2) 0.08806(13)
O1A O 0.2617(12) -0.1898(7) 0.1504(6)
P1A P 0.1373(9) -0.1236(3) 0.1396(3)
C1A C 0.1805(15) -0.0665(8) 0.06102(7)
O2A O -0.0297(9) -0.1580(7) 0.1354(5)
P2A P 0.3485(12) 0.1579(5) 0.000
C2A C 0.2508(14) 0.0107(8) 0.06104(7)
O3A O 0.1521(13) -0.0629(6) 0.1978(5)
C3A C 0.281(3) 0.0497(9) 0.000
O4A O 0.4374(11) 0.1736(7) 0.0656(4)
C4A C 0.142(3) -0.1034(8) 0.000
O5A O 0.1980(14) 0.2092(9) 0.000
H1A H 0.278031 0.036858 0.10287
H2A H 0.087656 -0.155277 0.000
O1H O 0.2617(12) -0.1898(7) -0.1504(6)
P1H P 0.1373(9) -0.1236(3) -0.1396(3)
C1H C 0.1805(15) -0.0665(8) -0.06102(7)
O2H O -0.0297(9) -0.1580(7) -0.1354(5)
C2H C 0.2508(14) 0.0107(8) -0.06104(7)
O3H O 0.1521(13) -0.0629(6) -0.1978(5)
O4H O 0.4374(11) 0.1736(7) -0.0656(4)
H1H H 0.278031 0.036858 -0.10287
Zn1H Zn 0.3961(3) -0.2470(2) -0.08806(13)
Zn1I Zn 0.6039(3) 0.2470(2) -0.08806(13)
Zn1B Zn -0.1039(3) -0.2530(2) -0.08806(13)
Zn1B_2 Zn 0.8961(3) -0.2530(2) -0.08806(13)
Zn1C Zn 0.1039(3) 0.2530(2) -0.08806(13)
Zn1C_2 Zn 1.1039(3) 0.2530(2) -0.08806(13)
Zn1J Zn 0.1039(3) 0.2530(2) 0.08806(13)
Zn1J_2 Zn 1.1039(3) 0.2530(2) 0.08806(13)
Zn1K Zn -0.1039(3) -0.2530(2) 0.08806(13)
Zn1K_2 Zn 0.8961(3) -0.2530(2) 0.08806(13)
Zn2_2 Zn 0 0.000 0.250
Zn2H Zn 0 0.000 -0.250
Zn2H_2 Zn 1 0.000 -0.250
O2B O 0.4703(9) -0.3420(7) -0.1354(5)
O2C O 0.5297(9) 0.3420(7) -0.1354(5)
O2J O 0.5297(9) 0.3420(7) 0.1354(5)
O2K O 0.4703(9) -0.3420(7) 0.1354(5)
O3A_2 O 1.1521(13) -0.0629(6) 0.1978(5)
O3F O 1.1521(13) 0.0629(6) 0.3022(5)
O3G O 0.8479(13) -0.0629(6) 0.3022(5)
O5B O 0.6980(14) 0.2908(9) 0.000
O5C O 0.3020(14) -0.2908(9) 0.000
loop_
_geom_bond_atom_site_label_1
_geom_bond_atom_site_label_2
_geom_bond_site_symmetry_1
_geom_bond_site_symmetry_2
Zn1 O1 1_555 1_555
Zn2 O3 1_555 1_555
O1 P1 1_555 1_555
P1 C1 1_555 1_555
C1 C2 1_555 1_555
O2 P1 1_555 1_555
P2 C3 1_555 1_555
C2 C3 1_555 1_555
O3 P1 1_555 1_555
C3 C2I 1_555 1_555
O4 P2 1_555 1_555
C4 C1 1_555 1_555
O5 P2 1_555 1_555
H1 C2 1_555 1_555
H2 C4 1_555 1_555
N1 N1F 1_555 1_555
O1I P1I 1_555 1_555
P1I C1I 1_555 1_555
C1I C4 1_555 1_555
O2I P1I 1_555 1_555
C2I C1I 1_555 1_555
O3I P1I 1_555 1_555
O4I P2 1_555 1_555
H1I C2I 1_555 1_555
Zn1A O4 1_555 1_555
O1A Zn1A 1_555 1_555
P1A O1A 1_555 1_555
C1A P1A 1_555 1_555
O2A P1A 1_555 1_555
P2A C3A 1_555 1_555
C2A C1A 1_555 1_555
O3A P1A 1_555 1_555
C3A C2A 1_555 1_555
O4A Zn1 1_555 1_555
C4A C1A 1_555 1_555
O5A P2A 1_555 1_555
H1A C2A 1_555 1_555
H2A C4A 1_555 1_555
O1H P1H 1_555 1_555
P1H C1H 1_555 1_555
C1H C4A 1_555 1_555
O2H P1H 1_555 1_555
C2H C3A 1_555 1_555
O3H P1H 1_555 1_555
O4H P2A 1_555 1_555
H1H C2H 1_555 1_555
Zn1H O4I 1_555 1_555
Zn1I O1I 1_555 1_555
Zn1B O2H 1_555 1_555
Zn1B_2 O5 1_555 1_555
Zn1C O5A 1_555 1_555
Zn1C_2 O2I 1_555 1_555
Zn1J O5A 1_555 1_555
Zn1J_2 O2 1_555 1_555
Zn1K O2A 1_555 1_555
Zn1K_2 O5 1_555 1_555
Zn2_2 O3A 1_555 1_555
Zn2H O3H 1_555 1_555
Zn2H_2 O3I 1_555 1_555
O2B Zn1H 1_555 1_555
O2C Zn1I 1_555 1_555
O2J Zn1 1_555 1_555
O2K Zn1A 1_555 1_555
O3A_2 Zn2 1_555 1_555
O3F Zn2 1_555 1_555
O3G Zn2 1_555 1_555
O5B Zn1 1_555 1_555
O5C Zn1A 1_555 1_555
P2A O4A 1_555 1_555
O1H Zn1H 1_555 1_555
C1H C2H 1_555 1_555
O4H Zn1I 1_555 1_555
Zn1H O5C 1_555 1_555
Zn1I O5B 1_555 1_555

#END
