
#######################################################################
#
#                 Cambridge Crystallographic Data Centre
#                                CCDC 
#
#######################################################################
#
# If this CIF has been generated from an entry in the Cambridge 
# Structural Database, then it will include bibliographic, chemical, 
# crystal, experimental, refinement or atomic coordinate data resulting 
# from the CCDC's data processing and validation procedures.
#
#######################################################################

data_HIQKEY
_symmetry_cell_setting           monoclinic
_symmetry_space_group_name_H-M   'C m'
_symmetry_Int_Tables_number      8
_space_group_name_Hall           'C -2y'
loop_
_symmetry_equiv_pos_site_id
_symmetry_equiv_pos_as_xyz
1 x,y,z
2 x,-y,z
3 1/2+x,1/2+y,z
4 1/2+x,1/2-y,z
_cell_length_a                   5.8316(10)
_cell_length_b                   19.691(7)
_cell_length_c                   14.623(2)
_cell_angle_alpha                90
_cell_angle_beta                 98.953(13)
_cell_angle_gamma                90
_cell_volume                     1658.7
loop_
_atom_site_label
_atom_site_type_symbol
_atom_site_fract_x
_atom_site_fract_y
_atom_site_fract_z
K1 K 1.27341(18) 0.18494(4) 0.50427(7)
K2 K 0.3806(2) 0.00000 0.66340(8)
K3 K 0.8140(2) 0.00000 0.48912(8)
S1 S 0.85074(12) 0.13645(4) 0.64504(5)
S2 S 0.67991(14) 0.14568(5) 1.35851(6)
O1 O 0.4854(11) 0.00000 0.8501(4)
O2 O 0.2800(7) 0.00000 0.4652(3)
O3 O 0.8714(6) 0.20502(15) 0.6112(2)
O4 O 0.9000(5) 0.12170(17) 1.40854(18)
O5 O 0.6357(5) 0.10358(17) 0.60446(19)
O6 O 0.4950(6) 0.09558(17) 1.3603(2)
O7 O 1.0527(5) 0.09479(17) 0.6370(2)
O8 O 0.6088(6) 0.21186(17) 1.3865(2)
C1 C 0.7952(7) 0.15078(19) 0.9536(3)
C2 C 0.7699(7) 0.1525(2) 1.0539(3)
C3 C 0.6400(8) 0.1846(3) 0.8868(3)
C4 C 0.5868(9) 0.1849(2) 1.0848(3)
C5 C 0.6591(9) 0.1809(2) 0.7931(3)
C6 C 0.5603(8) 0.1853(2) 1.1778(3)
C7 C 0.8342(7) 0.14383(19) 0.7654(2)
C8 C 0.7182(7) 0.1511(2) 1.2407(3)
C9 C 0.9927(8) 0.1114(3) 0.8300(3)
C10 C 0.9036(10) 0.1196(4) 1.2123(3)
C11 C 0.9716(9) 0.1150(3) 0.9235(3)
C12 C 0.9281(9) 0.1203(4) 1.1193(3)
H1 H 0.51870 0.20980 0.90700
H2 H 0.47780 0.20740 1.04090
H3 H 0.34800 0.03900 0.44000
H4 H 0.55160 0.20360 0.74820
H5 H 0.43380 0.20770 1.19790
H6 H 1.11400 0.08620 0.80980
H7 H 1.01260 0.09710 1.25620
H8 H 1.07910 0.09230 0.96840
H9 H 1.05460 0.09790 1.09920
H10 H 0.35600 0.00000 0.88400
H11 H 0.61400 0.00000 0.88400
K1A K 1.27341(18) -0.18494(4) 0.50427(7)
K1C K 0.77341(18) 0.31506(4) 0.50427(7)
K1C_2 K 1.77341(18) 0.31506(4) 0.50427(7)
K1_2 K 0.27341(18) 0.18494(4) 0.50427(7)
K1A_2 K 0.27341(18) -0.18494(4) 0.50427(7)
K1_3 K 1.27341(18) 0.18494(4) 1.50427(7)
K1_4 K 0.27341(18) 0.18494(4) 1.50427(7)
K1C_3 K 0.77341(18) 0.31506(4) 1.50427(7)
K1B K 0.77341(18) -0.31506(4) 0.50427(7)
K1A_3 K 1.27341(18) -0.18494(4) 1.50427(7)
K1A_4 K 0.27341(18) -0.18494(4) 1.50427(7)
K1B_2 K 0.77341(18) -0.31506(4) 1.50427(7)
K1B_3 K 1.77341(18) -0.31506(4) 0.50427(7)
K2_2 K 1.3806(2) 0.00000 0.66340(8)
K3_2 K -0.1860(2) 0.00000 0.48912(8)
K3_3 K 0.8140(2) 0.00000 1.48912(8)
S1A S 0.85074(12) -0.13645(4) 0.64504(5)
S2A S 0.67991(14) -0.14568(5) 1.35851(6)
O2_2 O 1.2800(7) 0.00000 0.4652(3)
O3A O 0.8714(6) -0.20502(15) 0.6112(2)
O3C O 1.3714(6) 0.29498(15) 0.6112(2)
O3B O 1.3714(6) -0.29498(15) 0.6112(2)
O4A O 0.9000(5) -0.12170(17) 1.40854(18)
O4_2 O 0.9000(5) 0.12170(17) 0.40854(18)
O4A_2 O 0.9000(5) -0.12170(17) 0.40854(18)
O5A O 0.6357(5) -0.10358(17) 0.60446(19)
O5_2 O 1.6357(5) 0.10358(17) 0.60446(19)
O5A_2 O 1.6357(5) -0.10358(17) 0.60446(19)
O6A O 0.4950(6) -0.09558(17) 1.3603(2)
O6_2 O 0.4950(6) 0.09558(17) 0.3603(2)
O6A_2 O 0.4950(6) -0.09558(17) 0.3603(2)
O7A O 1.0527(5) -0.09479(17) 0.6370(2)
O7_2 O 0.0527(5) 0.09479(17) 0.6370(2)
O7A_2 O 0.0527(5) -0.09479(17) 0.6370(2)
O8A O 0.6088(6) -0.21186(17) 1.3865(2)
O8_2 O 1.6088(6) 0.21186(17) 0.3865(2)
O8C O 1.1088(6) 0.28814(17) 0.3865(2)
O8A_2 O 1.6088(6) -0.21186(17) 0.3865(2)
O8B O 1.1088(6) -0.28814(17) 0.3865(2)
C1A C 0.7952(7) -0.15078(19) 0.9536(3)
C2A C 0.7699(7) -0.1525(2) 1.0539(3)
C3A C 0.6400(8) -0.1846(3) 0.8868(3)
C4A C 0.5868(9) -0.1849(2) 1.0848(3)
C5A C 0.6591(9) -0.1809(2) 0.7931(3)
C6A C 0.5603(8) -0.1853(2) 1.1778(3)
C7A C 0.8342(7) -0.14383(19) 0.7654(2)
C8A C 0.7182(7) -0.1511(2) 1.2407(3)
C9A C 0.9927(8) -0.1114(3) 0.8300(3)
C10A C 0.9036(10) -0.1196(4) 1.2123(3)
C11A C 0.9716(9) -0.1150(3) 0.9235(3)
C12A C 0.9281(9) -0.1203(4) 1.1193(3)
H1A H 0.51870 -0.20980 0.90700
H2A H 0.47780 -0.20740 1.04090
H3A H 0.34800 -0.03900 0.44000
H3_2 H 1.34800 0.03900 0.44000
H3A_2 H 1.34800 -0.03900 0.44000
H4A H 0.55160 -0.20360 0.74820
H5A H 0.43380 -0.20770 1.19790
H6A H 1.11400 -0.08620 0.80980
H7A H 1.01260 -0.09710 1.25620
H8A H 1.07910 -0.09230 0.96840
H9A H 1.05460 -0.09790 1.09920
O9 O 0.3491(11) 0.00000 0.2133(3)
H12 H 0.39700 0.03850 0.25200
H12A H 0.39700 -0.03850 0.25200
O10 O 0.4275(14) 0.00000 0.0351(5)
H13 H 0.40200 0.00000 0.09400
H14 H 0.57940 0.00000 0.03750
loop_
_geom_bond_atom_site_label_1
_geom_bond_atom_site_label_2
_geom_bond_site_symmetry_1
_geom_bond_site_symmetry_2
K1 O3 1_555 1_555
K2 O1 1_555 1_555
K3 O2 1_555 1_555
S1 O3 1_555 1_555
S2 O4 1_555 1_555
O1 H10 1_555 1_555
O2 K2 1_555 1_555
O3 K1C 1_555 1_555
O4 K1_3 1_555 1_555
O5 K2 1_555 1_555
O6 S2 1_555 1_555
O7 K1 1_555 1_555
O8 S2 1_555 1_555
C1 C2 1_555 1_555
C2 C4 1_555 1_555
C3 C1 1_555 1_555
C4 C6 1_555 1_555
C5 C3 1_555 1_555
C6 C8 1_555 1_555
C7 S1 1_555 1_555
C8 S2 1_555 1_555
C9 C7 1_555 1_555
C10 C8 1_555 1_555
C11 C1 1_555 1_555
C12 C2 1_555 1_555
O9 H12 1_555 1_555
O10 H13 1_555 1_555
H1 C3 1_555 1_555
H2 C4 1_555 1_555
H3 O2 1_555 1_555
H4 C5 1_555 1_555
H5 C6 1_555 1_555
H6 C9 1_555 1_555
H7 C10 1_555 1_555
H8 C11 1_555 1_555
H9 C12 1_555 1_555
H11 O1 1_555 1_555
H14 O10 1_555 1_555
K1A O3A 1_555 1_555
K1C O8C 1_555 1_555
K1C_2 O3C 1_555 1_555
K1_2 O5 1_555 1_555
K1A_2 O5A 1_555 1_555
K1_4 O8 1_555 1_555
K1C_3 O8 1_555 1_555
K1B O3A 1_555 1_555
K1A_3 O4A 1_555 1_555
K1A_4 O8A 1_555 1_555
K1B_2 O8A 1_555 1_555
K1B_3 O3B 1_555 1_555
K2_2 O7 1_555 1_555
K3_2 O2 1_555 1_555
K3_3 O4 1_555 1_555
S1A O3A 1_555 1_555
S2A O4A 1_555 1_555
O2_2 K3 1_555 1_555
O3C K1 1_555 1_555
O3B K1A 1_555 1_555
O4A K3_3 1_555 1_555
O4_2 K1 1_555 1_555
O4A_2 K3 1_555 1_555
O5A K2 1_555 1_555
O5_2 K1 1_555 1_555
O5A_2 K1A 1_555 1_555
O6A K3_3 1_555 1_555
O6_2 K3 1_555 1_555
O6A_2 K3 1_555 1_555
O7A K3 1_555 1_555
O7_2 K2 1_555 1_555
O7A_2 K2 1_555 1_555
O8A S2A 1_555 1_555
O8_2 K1 1_555 1_555
O8C K1 1_555 1_555
O8A_2 K1A 1_555 1_555
O8B K1A 1_555 1_555
C1A C2A 1_555 1_555
C2A C4A 1_555 1_555
C3A C1A 1_555 1_555
C4A C6A 1_555 1_555
C5A C3A 1_555 1_555
C6A C8A 1_555 1_555
C7A S1A 1_555 1_555
C8A S2A 1_555 1_555
C9A C7A 1_555 1_555
C10A C8A 1_555 1_555
C11A C1A 1_555 1_555
C12A C2A 1_555 1_555
H1A C3A 1_555 1_555
H2A C4A 1_555 1_555
H3A O2 1_555 1_555
H3_2 O2_2 1_555 1_555
H3A_2 O2_2 1_555 1_555
H4A C5A 1_555 1_555
H5A C6A 1_555 1_555
H6A C9A 1_555 1_555
H7A C10A 1_555 1_555
H8A C11A 1_555 1_555
H9A C12A 1_555 1_555
H12A O9 1_555 1_555
K3 O5 1_555 1_555
K3 O7 1_555 1_555
K3 O4_2 1_555 1_555
K3 O5A 1_555 1_555
S1 O5 1_555 1_555
S1 O7 1_555 1_555
O6 K3_3 1_555 1_555
C5 C7 1_555 1_555
C9 C11 1_555 1_555
C10 C12 1_555 1_555
K1A O4A_2 1_555 1_555
K1A O7A 1_555 1_555
K1C_2 O8_2 1_555 1_555
K1_2 O7_2 1_555 1_555
K1A_2 O7A_2 1_555 1_555
K1B O8B 1_555 1_555
K1B_3 O8A_2 1_555 1_555
K2_2 O2_2 1_555 1_555
K2_2 O5_2 1_555 1_555
K2_2 O5A_2 1_555 1_555
K2_2 O7A 1_555 1_555
K3_2 O7_2 1_555 1_555
K3_2 O7A_2 1_555 1_555
S1A O5A 1_555 1_555
S1A O7A 1_555 1_555
S2A O6A 1_555 1_555
C5A C7A 1_555 1_555
C9A C11A 1_555 1_555
C10A C12A 1_555 1_555

#END
