
#######################################################################
#
#                 Cambridge Crystallographic Data Centre
#                                CCDC 
#
#######################################################################
#
# If this CIF has been generated from an entry in the Cambridge 
# Structural Database, then it will include bibliographic, chemical, 
# crystal, experimental, refinement or atomic coordinate data resulting 
# from the CCDC's data processing and validation procedures.
#
#######################################################################

data_HIQKOJ
_symmetry_cell_setting           monoclinic
_symmetry_space_group_name_H-M   'C 2/c'
_symmetry_Int_Tables_number      15
_space_group_name_Hall           '-C 2yn'
loop_
_symmetry_equiv_pos_site_id
_symmetry_equiv_pos_as_xyz
1 x,y,z
2 -x,y,1/2-z
3 1/2+x,1/2+y,z
4 1/2-x,1/2+y,1/2-z
5 -x,-y,-z
6 x,-y,1/2+z
7 1/2-x,1/2-y,-z
8 1/2+x,1/2-y,1/2+z
_cell_length_a                   17.8701(5)
_cell_length_b                   13.8872(4)
_cell_length_c                   18.4391(5)
_cell_angle_alpha                90
_cell_angle_beta                 92.262(2)
_cell_angle_gamma                90
_cell_volume                     4572.39
loop_
_atom_site_label
_atom_site_type_symbol
_atom_site_fract_x
_atom_site_fract_y
_atom_site_fract_z
O1 O 0.21921(16) 0.00562(17) 0.04030(14)
O2 O 0.41706(15) 0.3670(2) -0.05501(16)
O3 O 0.26156(15) 0.2555(2) 0.18285(13)
O4 O 0.45425(16) 0.4193(2) 0.20927(16)
O5 O 0.14092(14) 0.31164(19) 0.09120(17)
O6 O 0.44894(16) 0.3954(2) 0.06007(17)
O7 O 0.16628(18) -0.02641(19) -0.06720(15)
O8 O 0.17596(19) 0.0932(2) 0.17867(14)
O9 O 0.17507(19) 0.0108(2) 0.27840(15)
O10 O 0.21435(15) 0.4332(2) 0.1305(2)
C1 C 0.1523(2) 0.3979(3) 0.1110(2)
C2 C 0.0861(2) 0.4634(3) 0.1117(3)
C3 C -0.0360(2) 0.5851(3) 0.1152(2)
O11 O 0.3319(2) 0.3078(3) 0.27136(17)
C4 C 0.2024(2) -0.0507(3) -0.0104(2)
C5 C 0.4619(2) 0.3857(3) -0.0045(3)
H1 H 0.5115 0.3933 -0.0167
C6 C -0.0451(2) 0.4907(3) 0.0930(2)
H2 H -0.0925 0.4681 0.0789
C7 C 0.2266(2) -0.1541(3) -0.0041(2)
C8 C 0.2140(3) -0.2165(3) -0.0620(2)
H3 H 0.1901 -0.1941 -0.1045
C9 C 0.0343(2) 0.6189(3) 0.1337(3)
H4 H 0.0409 0.6828 0.1476
C10 C 0.0158(2) 0.4298(3) 0.0917(2)
H5 H 0.0094 0.3660 0.0772
C11 C 0.2636(3) -0.1890(3) 0.0574(2)
H6 H 0.2735 -0.1479 0.0965
C12 C 0.0956(2) 0.5582(3) 0.1319(3)
H7 H 0.1432 0.5814 0.1443
C13 C 0.5000 0.3773(4) 0.2500
H8 H 0.5000 0.3103 0.2500
C14 C 0.1908(3) 0.0242(3) 0.2163(2)
H9 H 0.2177 -0.0246 0.1947
C15 C 0.2850(3) 0.2520(3) 0.2472(2)
H10 H 0.2660 0.2052 0.2776
U1 U 0.212571(6) 0.174029(8) 0.072962(5)
U2 U 0.343878(6) 0.383529(8) 0.136023(6)
O12 O 0.29257(12) 0.30629(15) 0.04336(11)
O13 O -0.16426(14) 0.61776(18) 0.09500(17)
O14 O -0.09056(14) 0.73426(18) 0.14083(16)
C16 C -0.1017(2) 0.6512(3) 0.1170(2)
O1F O 0.28079(16) -0.50562(17) -0.04030(14)
O7F O 0.33372(18) -0.47359(19) 0.06720(15)
C4F C 0.2976(2) -0.4493(3) 0.0104(2)
C7F C 0.2734(2) -0.3459(3) 0.0041(2)
C8F C 0.2860(3) -0.2835(3) 0.0620(2)
H3F H 0.3099 -0.3059 0.1045
C11F C 0.2364(3) -0.3110(3) -0.0574(2)
H6F H 0.2265 -0.3521 -0.0965
O4A O 0.54575(16) 0.4193(2) 0.29073(16)
O2A O 0.58294(15) 0.3670(2) 0.55501(16)
O3A O 0.73844(15) 0.2555(2) 0.31715(13)
O5A O 0.85908(14) 0.31164(19) 0.40880(17)
O6A O 0.55106(16) 0.3954(2) 0.43993(17)
O8A O 0.82404(19) 0.0932(2) 0.32133(14)
O9A O 0.82493(19) 0.0108(2) 0.22160(15)
O10A O 0.78565(15) 0.4332(2) 0.3695(2)
C1A C 0.8477(2) 0.3979(3) 0.3890(2)
C2A C 0.9139(2) 0.4634(3) 0.3883(3)
C3A C 1.0360(2) 0.5851(3) 0.3848(2)
O11A O 0.6681(2) 0.3078(3) 0.22864(17)
C5A C 0.5381(2) 0.3857(3) 0.5045(3)
H1A H 0.4885 0.3933 0.5167
C6A C 1.0451(2) 0.4907(3) 0.4070(2)
H2A H 1.0925 0.4681 0.4211
C9A C 0.9657(2) 0.6189(3) 0.3663(3)
H4A H 0.9591 0.6828 0.3524
C10A C 0.9842(2) 0.4298(3) 0.4083(2)
H5A H 0.9906 0.3660 0.4228
C12A C 0.9044(2) 0.5582(3) 0.3681(3)
H7A H 0.8568 0.5814 0.3557
C14A C 0.8092(3) 0.0242(3) 0.2837(2)
H9A H 0.7823 -0.0246 0.3053
C15A C 0.7150(3) 0.2520(3) 0.2528(2)
H10A H 0.7340 0.2052 0.2224
U1A U 0.787429(6) 0.174029(8) 0.427038(5)
U2A U 0.656122(6) 0.383529(8) 0.363977(6)
O12A O 0.70743(12) 0.30629(15) 0.45664(11)
O13A O 1.16426(14) 0.61776(18) 0.40500(17)
O14A O 1.09056(14) 0.73426(18) 0.35917(16)
C16A C 1.1017(2) 0.6512(3) 0.3830(2)
O1A O 0.78079(16) 0.00562(17) 0.45970(14)
O2F O 0.08294(15) 0.1330(2) 0.05501(16)
O2G O 0.91706(15) 0.1330(2) 0.44499(16)
O7F_2 O 0.33372(18) 0.52641(19) 0.06720(15)
O7G O 0.66628(18) 0.52641(19) 0.43280(15)
O9B O 0.67507(19) 0.5108(2) 0.27840(15)
O9C O 0.32493(19) 0.5108(2) 0.22160(15)
U1B U -0.287429(6) 0.674029(8) 0.072962(5)
U1C U 1.287429(6) 0.674029(8) 0.427038(5)
U1F U 0.287429(6) -0.674029(8) -0.072962(5)
U1F_2 U 0.287429(6) 0.325971(8) -0.072962(5)
U1G U 0.712571(6) 0.325971(8) 0.572962(5)
U2_2 U 0.343878(6) -0.616471(8) 0.136023(6)
U2B U -0.156122(6) 0.883529(8) 0.136023(6)
U2B_2 U 0.843878(6) -0.116471(8) 0.136023(6)
U2C U 0.156122(6) -0.116471(8) 0.363977(6)
U2C_2 U 1.156122(6) 0.883529(8) 0.363977(6)
U2F U 0.156122(6) 0.116471(8) -0.136023(6)
O12F O 0.20743(12) 0.19371(15) -0.04336(11)
O12G O 0.79257(12) 0.19371(15) 0.54336(11)
O13B O 0.33574(14) 0.11776(18) 0.09500(17)
O13C O 0.66426(14) 0.11776(18) 0.40500(17)
O14B O 0.40944(14) 0.23426(18) 0.14083(16)
O14C O 0.59056(14) 0.23426(18) 0.35917(16)
N1 N 0.5000 0.6215(9) 0.2500
H11 H 0.4647 0.5827 0.2677
C17 C 0.4650(5) 0.6710(6) 0.1879(4)
H12 H 0.4456 0.6244 0.1536
H13 H 0.5015 0.7105 0.1653
H14 H 0.4248 0.7106 0.2038
H11A H 0.5353 0.5827 0.2323
C17A C 0.5350(5) 0.6710(6) 0.3121(4)
H12A H 0.5544 0.6244 0.3464
H13A H 0.4985 0.7105 0.3347
H14A H 0.5752 0.7106 0.2962
H15? H 0.4647 0.5827 0.2677
loop_
_geom_bond_atom_site_label_1
_geom_bond_atom_site_label_2
_geom_bond_site_symmetry_1
_geom_bond_site_symmetry_2
O1 C4 1_555 1_555
O2 C5 1_555 1_555
O3 C15 1_555 1_555
O4 C13 1_555 1_555
O5 C1 1_555 1_555
O6 C5 1_555 1_555
O7 C4 1_555 1_555
O8 C14 1_555 1_555
O9 C14 1_555 1_555
O10 C1 1_555 1_555
C1 C2 1_555 1_555
C2 C10 1_555 1_555
C3 C6 1_555 1_555
O11 C15 1_555 1_555
C4 C7 1_555 1_555
C5 H1 1_555 1_555
C6 H2 1_555 1_555
C7 C8 1_555 1_555
C8 H3 1_555 1_555
C9 C3 1_555 1_555
H4 C9 1_555 1_555
C10 C6 1_555 1_555
H5 C10 1_555 1_555
C11 C7 1_555 1_555
H6 C11 1_555 1_555
C12 C2 1_555 1_555
H7 C12 1_555 1_555
C13 H8 1_555 1_555
C14 H9 1_555 1_555
C15 H10 1_555 1_555
U1 O1 1_555 1_555
U2 O3 1_555 1_555
O12 U1 1_555 1_555
O13 C16 1_555 1_555
O14 C16 1_555 1_555
C16 C3 1_555 1_555
N1 H11 1_555 1_555
C17 N1 1_555 1_555
H12 C17 1_555 1_555
H13 C17 1_555 1_555
H14 C17 1_555 1_555
O1F C4F 1_555 1_555
O7F C4F 1_555 1_555
C4F C7F 1_555 1_555
C7F C8F 1_555 1_555
C8F C11 1_555 1_555
H3F C8F 1_555 1_555
C11F C8 1_555 1_555
H6F C11F 1_555 1_555
O4A C13 1_555 1_555
O2A C5A 1_555 1_555
O3A C15A 1_555 1_555
O5A C1A 1_555 1_555
O6A C5A 1_555 1_555
O8A C14A 1_555 1_555
O9A C14A 1_555 1_555
O10A C1A 1_555 1_555
C1A C2A 1_555 1_555
C2A C10A 1_555 1_555
C3A C6A 1_555 1_555
O11A C15A 1_555 1_555
C5A H1A 1_555 1_555
C6A H2A 1_555 1_555
C9A C3A 1_555 1_555
H4A C9A 1_555 1_555
C10A C6A 1_555 1_555
H5A C10A 1_555 1_555
C12A C2A 1_555 1_555
H7A C12A 1_555 1_555
C14A H9A 1_555 1_555
C15A H10A 1_555 1_555
U1A O3A 1_555 1_555
U2A O4A 1_555 1_555
O12A U1A 1_555 1_555
O13A C16A 1_555 1_555
O14A C16A 1_555 1_555
C16A C3A 1_555 1_555
O1A U1A 1_555 1_555
O2F U1 1_555 1_555
O2G U1A 1_555 1_555
O7F_2 U2 1_555 1_555
O7G U2A 1_555 1_555
O9B U2A 1_555 1_555
O9C U2 1_555 1_555
U1B O13 1_555 1_555
U1C O13A 1_555 1_555
U1F O1F 1_555 1_555
U1F_2 O2 1_555 1_555
U1G O2A 1_555 1_555
U2_2 O7F 1_555 1_555
U2B O14 1_555 1_555
U2B_2 O9A 1_555 1_555
U2C O9 1_555 1_555
U2C_2 O14A 1_555 1_555
U2F O7 1_555 1_555
O12F U1 1_555 1_555
O12G U1A 1_555 1_555
O13B U1 1_555 1_555
O13C U1A 1_555 1_555
O14B U2 1_555 1_555
O14C U2A 1_555 1_555
H11A N1 1_555 1_555
C17A N1 1_555 1_555
H12A C17A 1_555 1_555
H13A C17A 1_555 1_555
H14A C17A 1_555 1_555
O3 U1 1_555 1_555
O4 U2 1_555 1_555
O5 U1 1_555 1_555
O6 U2 1_555 1_555
O8 U1 1_555 1_555
O10 U2 1_555 1_555
O11 U2 1_555 1_555
C9 C12 1_555 1_555
U2 O12 1_555 1_555
O12 U1F_2 1_555 1_555
C7F C11F 1_555 1_555
O3A U2A 1_555 1_555
O5A U1A 1_555 1_555
O6A U2A 1_555 1_555
O8A U1A 1_555 1_555
O10A U2A 1_555 1_555
O11A U2A 1_555 1_555
C9A C12A 1_555 1_555
U2A O12A 1_555 1_555
O12A U1G 1_555 1_555
U1F_2 O12F 1_555 1_555
U1G O12G 1_555 1_555
U2F O12F 1_555 1_555

#END
