
#######################################################################
#
#                 Cambridge Crystallographic Data Centre
#                                CCDC 
#
#######################################################################
#
# If this CIF has been generated from an entry in the Cambridge 
# Structural Database, then it will include bibliographic, chemical, 
# crystal, experimental, refinement or atomic coordinate data resulting 
# from the CCDC's data processing and validation procedures.
#
#######################################################################

data_HIQKEZ
_symmetry_cell_setting           orthorhombic
_symmetry_space_group_name_H-M   'I b a m'
_symmetry_Int_Tables_number      72
_space_group_name_Hall           '-I 2 2c'
loop_
_symmetry_equiv_pos_site_id
_symmetry_equiv_pos_as_xyz
1 x,y,z
2 -x,-y,z
3 1/2-x,1/2+y,-z
4 1/2+x,1/2-y,-z
5 1/2+x,1/2+y,1/2+z
6 1/2-x,1/2-y,1/2+z
7 -x,y,1/2-z
8 x,-y,1/2-z
9 -x,-y,-z
10 x,y,-z
11 1/2+x,1/2-y,z
12 1/2-x,1/2+y,z
13 1/2-x,1/2-y,1/2-z
14 1/2+x,1/2+y,1/2-z
15 x,-y,1/2+z
16 -x,y,1/2+z
_cell_length_a                   8.29575(18)
_cell_length_b                   16.4162(4)
_cell_length_c                   19.7053(5)
_cell_angle_alpha                90
_cell_angle_beta                 90
_cell_angle_gamma                90
_cell_volume                     2683.56
loop_
_atom_site_label
_atom_site_type_symbol
_atom_site_fract_x
_atom_site_fract_y
_atom_site_fract_z
O1 O 0.2773(18) 0.3087(9) 0.6583(7)
P1 P 0.1518(9) 0.3799(2) 0.64050(12)
C1 C 0.15642(10) 0.39402(7) 0.500
Zn1 Zn 0.4001(3) 0.2515(2) 0.58990(13)
C2 C 0.18467(7) 0.43287(6) 0.56138(2)
P2 P 0.3415(7) 0.65531(13) 0.500
O2 O 0.1743(15) 0.4357(7) 0.7057(6)
Zn2 Zn 0.000 0.500 0.750
C3 C 0.24243(13) 0.51230(6) 0.56135(2)
O3 O -0.0228(17) 0.3418(7) 0.6411(6)
C4 C 0.2708(2) 0.55129(7) 0.500
O4 O 0.4310(17) 0.6790(7) 0.4340(6)
O5 O 0.195(2) 0.7175(11) 0.500
H1 H 0.116501 0.339127 0.500
H2 H 0.262571 0.53999 0.603418
O1I O 0.2773(18) 0.3087(9) 0.3417(7)
P1I P 0.1518(9) 0.3799(2) 0.35950(12)
C2I C 0.18467(7) 0.43287(6) 0.43862(2)
O2I O 0.1743(15) 0.4357(7) 0.2943(6)
C3I C 0.24243(13) 0.51230(6) 0.43865(2)
O3I O -0.0228(17) 0.3418(7) 0.3589(6)
O4I O 0.4310(17) 0.6790(7) 0.5660(6)
H2I H 0.262571 0.53999 0.396582
O1A O -0.2773(18) 0.6913(9) 0.6583(7)
P1A P -0.1518(9) 0.6201(2) 0.64050(12)
C1A C -0.15642(10) 0.60598(7) 0.500
Zn1A Zn -0.4001(3) 0.7485(2) 0.58990(13)
C2A C -0.18467(7) 0.56713(6) 0.56138(2)
P2A P -0.3415(7) 0.34469(13) 0.500
O2A O -0.1743(15) 0.5643(7) 0.7057(6)
C3A C -0.24243(13) 0.48770(6) 0.56135(2)
O3A O 0.0228(17) 0.6582(7) 0.6411(6)
C4A C -0.2708(2) 0.44871(7) 0.500
O4A O -0.4310(17) 0.3210(7) 0.4340(6)
O5A O -0.195(2) 0.2825(11) 0.500
H1A H -0.116501 0.660873 0.500
H2A H -0.262571 0.46001 0.603418
O1H O -0.2773(18) 0.6913(9) 0.3417(7)
P1H P -0.1518(9) 0.6201(2) 0.35950(12)
C2H C -0.18467(7) 0.56713(6) 0.43862(2)
O2H O -0.1743(15) 0.5643(7) 0.2943(6)
C3H C -0.24243(13) 0.48770(6) 0.43865(2)
O3H O 0.0228(17) 0.6582(7) 0.3589(6)
O4H O -0.4310(17) 0.3210(7) 0.5660(6)
H2H H -0.262571 0.46001 0.396582
Zn1H Zn -0.4001(3) 0.7485(2) 0.41010(13)
Zn1I Zn 0.4001(3) 0.2515(2) 0.41010(13)
Zn1_2 Zn -0.5999(3) 0.2515(2) 0.58990(13)
Zn1A_2 Zn 0.5999(3) 0.7485(2) 0.58990(13)
Zn1B Zn 0.0999(3) 0.7515(2) 0.41010(13)
Zn1C Zn -0.0999(3) 0.2485(2) 0.41010(13)
Zn1H_2 Zn 0.5999(3) 0.7485(2) 0.41010(13)
Zn1I_2 Zn -0.5999(3) 0.2515(2) 0.41010(13)
Zn1J Zn -0.0999(3) 0.2485(2) 0.58990(13)
Zn1K Zn 0.0999(3) 0.7515(2) 0.58990(13)
O2F O -0.1743(15) 0.4357(7) 0.7943(6)
O2G O 0.1743(15) 0.5643(7) 0.7943(6)
Zn2H Zn 0.000 0.500 0.250
O3B O -0.4772(17) 0.8418(7) 0.3589(6)
O3C O 0.4772(17) 0.1582(7) 0.3589(6)
O3J O 0.4772(17) 0.1582(7) 0.6411(6)
O3K O -0.4772(17) 0.8418(7) 0.6411(6)
O4_2 O -0.5690(17) 0.6790(7) 0.4340(6)
O4A_2 O 0.5690(17) 0.3210(7) 0.4340(6)
O4H_2 O 0.5690(17) 0.3210(7) 0.5660(6)
O4I_2 O -0.5690(17) 0.6790(7) 0.5660(6)
O5B O 0.305(2) 0.2175(11) 0.500
O5C O -0.305(2) 0.7825(11) 0.500
N1 N 0.39565(2) 0.343598(13) 0.220195(9)
H3 H 0.431006 0.301117 0.198395
H4 H 0.325663 0.369243 0.195199
H5 H 0.350043 0.328132 0.257807
H6 H 0.475877 0.375899 0.229378
loop_
_geom_bond_atom_site_label_1
_geom_bond_atom_site_label_2
_geom_bond_site_symmetry_1
_geom_bond_site_symmetry_2
O1 P1 1_555 1_555
P1 C2 1_555 1_555
C1 C2 1_555 1_555
Zn1 O1 1_555 1_555
C2 C3 1_555 1_555
P2 C4 1_555 1_555
O2 P1 1_555 1_555
Zn2 O2 1_555 1_555
C3 C4 1_555 1_555
O3 P1 1_555 1_555
C4 C3I 1_555 1_555
O4 P2 1_555 1_555
O5 P2 1_555 1_555
H1 C1 1_555 1_555
H2 C3 1_555 1_555
N1 H3 1_555 1_555
H4 N1 1_555 1_555
H5 N1 1_555 1_555
H6 N1 1_555 1_555
O1I P1I 1_555 1_555
P1I C2I 1_555 1_555
C2I C1 1_555 1_555
O2I P1I 1_555 1_555
C3I C2I 1_555 1_555
O3I P1I 1_555 1_555
O4I P2 1_555 1_555
H2I C3I 1_555 1_555
O1A P1A 1_555 1_555
P1A C2A 1_555 1_555
C1A C2A 1_555 1_555
Zn1A O1A 1_555 1_555
C2A C3A 1_555 1_555
P2A C4A 1_555 1_555
O2A Zn2 1_555 1_555
C3A C4A 1_555 1_555
O3A P1A 1_555 1_555
C4A C3H 1_555 1_555
O4A P2A 1_555 1_555
O5A P2A 1_555 1_555
H1A C1A 1_555 1_555
H2A C3A 1_555 1_555
O1H P1H 1_555 1_555
P1H C2H 1_555 1_555
C2H C1A 1_555 1_555
O2H P1H 1_555 1_555
C3H C2H 1_555 1_555
O3H P1H 1_555 1_555
O4H P2A 1_555 1_555
H2H C3H 1_555 1_555
Zn1H O1H 1_555 1_555
Zn1I O1I 1_555 1_555
Zn1_2 O4H 1_555 1_555
Zn1A_2 O4I 1_555 1_555
Zn1B O5 1_555 1_555
Zn1C O3I 1_555 1_555
Zn1H_2 O4 1_555 1_555
Zn1I_2 O4A 1_555 1_555
Zn1J O3 1_555 1_555
Zn1K O5 1_555 1_555
O2F Zn2 1_555 1_555
O2G Zn2 1_555 1_555
Zn2H O2I 1_555 1_555
O3B Zn1H 1_555 1_555
O3C Zn1I 1_555 1_555
O3J Zn1 1_555 1_555
O3K Zn1A 1_555 1_555
O4_2 Zn1H 1_555 1_555
O4A_2 Zn1I 1_555 1_555
O4H_2 Zn1 1_555 1_555
O4I_2 Zn1A 1_555 1_555
O5B Zn1 1_555 1_555
O5C Zn1A 1_555 1_555
P1A O2A 1_555 1_555
O3A Zn1K 1_555 1_555
O5A Zn1C 1_555 1_555
O5A Zn1J 1_555 1_555
O2H Zn2H 1_555 1_555
O3H Zn1B 1_555 1_555
Zn1H O5C 1_555 1_555
Zn1I O5B 1_555 1_555

#END
