
#######################################################################
#
#                 Cambridge Crystallographic Data Centre
#                                CCDC 
#
#######################################################################
#
# If this CIF has been generated from an entry in the Cambridge 
# Structural Database, then it will include bibliographic, chemical, 
# crystal, experimental, refinement or atomic coordinate data resulting 
# from the CCDC's data processing and validation procedures.
#
#######################################################################

data_HIQLAW
_symmetry_cell_setting           monoclinic
_symmetry_space_group_name_H-M   'C 2/c'
_symmetry_Int_Tables_number      15
_space_group_name_Hall           '-C 2yn'
loop_
_symmetry_equiv_pos_site_id
_symmetry_equiv_pos_as_xyz
1 x,y,z
2 -x,y,1/2-z
3 1/2+x,1/2+y,z
4 1/2-x,1/2+y,1/2-z
5 -x,-y,-z
6 x,-y,1/2+z
7 1/2-x,1/2-y,-z
8 1/2+x,1/2-y,1/2+z
_cell_length_a                   19.4360(16)
_cell_length_b                   6.3452(5)
_cell_length_c                   16.2640(14)
_cell_angle_alpha                90
_cell_angle_beta                 97.1560(10)
_cell_angle_gamma                90
_cell_volume                     1990.14
loop_
_atom_site_label
_atom_site_type_symbol
_atom_site_fract_x
_atom_site_fract_y
_atom_site_fract_z
S1 S 0.40868(2) 0.18619(8) 0.90284(3)
K1 K 0.51124(2) -0.26484(7) 0.89768(3)
O1 O 0.41315(7) 0.0222(2) 0.96459(10)
O2 O 0.44532(7) 0.3752(2) 0.93134(9)
O3 O 0.43035(7) 0.1131(3) 0.82490(9)
O4 O 0.11360(7) 0.3886(3) 0.81051(10)
O5 O 0.14525(7) 0.0614(2) 0.90282(10)
O6 O 0.5000 -0.5211(5) 0.7500
C1 C 0.32007(10) 0.2556(3) 0.87947(11)
C2 C 0.26905(10) 0.1274(3) 0.90530(11)
C3 C 0.30279(10) 0.4318(3) 0.83174(12)
C4 C 0.23390(10) 0.4790(3) 0.80855(12)
C5 C 0.20013(10) 0.1749(3) 0.88178(12)
C6 C 0.18231(10) 0.3515(3) 0.83221(11)
C7 C 0.15872(12) -0.1312(4) 0.94662(15)
H1 H 0.1070(13) 0.469(4) 0.7715(13)
H2 H 0.2824(10) 0.017(4) 0.9386(14)
H3 H 0.2210(11) 0.599(4) 0.7773(13)
H4 H 0.3375(11) 0.515(3) 0.8151(13)
H5 H 0.1873(11) -0.225(3) 0.9195(14)
H6 H 0.1858(11) -0.107(4) 1.0002(12)
H7 H 0.1144(9) -0.188(4) 0.9507(15)
H8 H 0.4616(9) -0.608(5) 0.753(3)
H8A H 0.5384(9) -0.608(5) 0.747(3)
S1A S 0.59132(2) 0.18619(8) 0.59716(3)
K1A K 0.48876(2) -0.26484(7) 0.60232(3)
O1A O 0.58685(7) 0.0222(2) 0.53541(10)
O2A O 0.55468(7) 0.3752(2) 0.56866(9)
O3A O 0.56965(7) 0.1131(3) 0.67510(9)
O4A O 0.88640(7) 0.3886(3) 0.68949(10)
O5A O 0.85475(7) 0.0614(2) 0.59718(10)
C1A C 0.67993(10) 0.2556(3) 0.62053(11)
C2A C 0.73095(10) 0.1274(3) 0.59470(11)
C3A C 0.69721(10) 0.4318(3) 0.66826(12)
C4A C 0.76610(10) 0.4790(3) 0.69145(12)
C5A C 0.79987(10) 0.1749(3) 0.61822(12)
C6A C 0.81769(10) 0.3515(3) 0.66779(11)
C7A C 0.84128(12) -0.1312(4) 0.55338(15)
H1A H 0.8930(13) 0.469(4) 0.7285(13)
H2A H 0.7176(10) 0.017(4) 0.5614(14)
H3A H 0.7790(11) 0.599(4) 0.7227(13)
H4A H 0.6625(11) 0.515(3) 0.6849(13)
H5A H 0.8127(11) -0.225(3) 0.5805(14)
H6A H 0.8142(11) -0.107(4) 0.4998(12)
H7A H 0.8856(9) -0.188(4) 0.5493(15)
K1_2 K 0.51124(2) 0.73516(7) 0.89768(3)
K1A_2 K 0.48876(2) 0.73516(7) 0.60232(3)
K1B K 0.01124(2) 0.23516(7) 0.89768(3)
K1C K 0.98876(2) 0.23516(7) 0.60232(3)
K1D K 0.48876(2) 0.26484(7) 1.10232(3)
K1E K 0.51124(2) 0.26484(7) 0.39768(3)
O1D O 0.58685(7) -0.0222(2) 1.03541(10)
O1E O 0.41315(7) -0.0222(2) 0.46459(10)
O2_2 O 0.44532(7) -0.6248(2) 0.93134(9)
O2A_2 O 0.55468(7) -0.6248(2) 0.56866(9)
O2D O 0.55468(7) -0.3752(2) 1.06866(9)
O2E O 0.44532(7) -0.3752(2) 0.43134(9)
O4B O 0.61360(7) -0.1114(3) 0.81051(10)
O4C O 0.38640(7) -0.1114(3) 0.68949(10)
O5B O 0.64525(7) -0.4386(2) 0.90282(10)
O5C O 0.35475(7) -0.4386(2) 0.59718(10)
loop_
_geom_bond_atom_site_label_1
_geom_bond_atom_site_label_2
_geom_bond_site_symmetry_1
_geom_bond_site_symmetry_2
S1 O1 1_555 1_555
K1 O1 1_555 1_555
O1 K1D 1_555 1_555
O2 S1 1_555 1_555
O3 S1 1_555 1_555
O4 C6 1_555 1_555
O5 C5 1_555 1_555
O6 K1 1_555 1_555
C1 S1 1_555 1_555
C2 C1 1_555 1_555
C3 C1 1_555 1_555
C4 C3 1_555 1_555
C5 C2 1_555 1_555
C6 C4 1_555 1_555
C7 O5 1_555 1_555
H1 O4 1_555 1_555
H2 C2 1_555 1_555
H3 C4 1_555 1_555
H4 C3 1_555 1_555
H5 C7 1_555 1_555
H6 C7 1_555 1_555
H7 C7 1_555 1_555
H8 O6 1_555 1_555
H8A O6 1_555 1_555
S1A O1A 1_555 1_555
K1A O6 1_555 1_555
O1A K1A 1_555 1_555
O2A S1A 1_555 1_555
O3A S1A 1_555 1_555
O4A C6A 1_555 1_555
O5A C5A 1_555 1_555
C1A S1A 1_555 1_555
C2A C1A 1_555 1_555
C3A C1A 1_555 1_555
C4A C3A 1_555 1_555
C5A C2A 1_555 1_555
C6A C4A 1_555 1_555
C7A O5A 1_555 1_555
H1A O4A 1_555 1_555
H2A C2A 1_555 1_555
H3A C4A 1_555 1_555
H4A C3A 1_555 1_555
H5A C7A 1_555 1_555
H6A C7A 1_555 1_555
H7A C7A 1_555 1_555
K1_2 O2 1_555 1_555
K1A_2 O2A 1_555 1_555
K1B O4 1_555 1_555
K1C O4A 1_555 1_555
K1D O2 1_555 1_555
K1E O1A 1_555 1_555
O1D K1 1_555 1_555
O1E K1A 1_555 1_555
O2_2 K1 1_555 1_555
O2A_2 K1A 1_555 1_555
O2D K1 1_555 1_555
O2E K1A 1_555 1_555
O4B K1 1_555 1_555
O4C K1A 1_555 1_555
O5B K1 1_555 1_555
O5C K1A 1_555 1_555
K1 O3 1_555 1_555
O5 K1B 1_555 1_555
C5 C6 1_555 1_555
K1A O3A 1_555 1_555
O2A K1E 1_555 1_555
O5A K1C 1_555 1_555
C5A C6A 1_555 1_555
K1D O1D 1_555 1_555
K1E O1E 1_555 1_555

#END
