
#######################################################################
#
#                 Cambridge Crystallographic Data Centre
#                                CCDC 
#
#######################################################################
#
# If this CIF has been generated from an entry in the Cambridge 
# Structural Database, then it will include bibliographic, chemical, 
# crystal, experimental, refinement or atomic coordinate data resulting 
# from the CCDC's data processing and validation procedures.
#
#######################################################################

data_HIQLUQ
_symmetry_cell_setting           monoclinic
_symmetry_space_group_name_H-M   'C c'
_symmetry_Int_Tables_number      9
_space_group_name_Hall           'C -2yc'
loop_
_symmetry_equiv_pos_site_id
_symmetry_equiv_pos_as_xyz
1 x,y,z
2 x,-y,1/2+z
3 1/2+x,1/2+y,z
4 1/2+x,1/2-y,1/2+z
_cell_length_a                   6.9544(5)
_cell_length_b                   29.4636(18)
_cell_length_c                   11.2390(5)
_cell_angle_alpha                90
_cell_angle_beta                 92.817(2)
_cell_angle_gamma                90
_cell_volume                     2300.11
loop_
_atom_site_label
_atom_site_type_symbol
_atom_site_fract_x
_atom_site_fract_y
_atom_site_fract_z
Ag1 Ag 0.352954(14) 0.937551(3) 0.429058(10)
N1 N 0.6659(2) 0.93782(4) 0.43087(12)
N2 N 1.0393(2) 0.93841(3) 0.42813(11)
C1 C 0.9660(2) 0.89289(4) 0.46467(12)
H1 H 1.0013 0.8876 0.5499
H2 H 1.0265 0.8688 0.4177
C2 C 0.7465(2) 0.89063(4) 0.44427(12)
H3 H 0.7132 0.8728 0.3715
H4 H 0.6895 0.8753 0.5126
C3 C 0.9694(2) 0.97329(5) 0.51373(12)
H5 H 0.9921 1.0041 0.4825
H6 H 1.0413 0.9703 0.5915
C4 C 0.7314(2) 0.95656(5) 0.31537(11)
H7 H 0.6999 0.9893 0.3100
H8 H 0.6628 0.9409 0.2479
C5 C 0.9510(2) 0.94992(6) 0.30720(11)
H9 H 0.9762 0.9251 0.2506
H10 H 1.0096 0.9781 0.2775
C6 C 0.7528(2) 0.96634(5) 0.52995(11)
H11 H 0.7341 0.9513 0.6073
H12 H 0.6874 0.9962 0.5307
Ag1_2 Ag 1.352954(14) 0.937551(3) 0.429058(10)
N2_2 N 0.0393(2) 0.93841(3) 0.42813(11)
Co1 Co 0.34419(2) 0.838833(5) 1.016526(14)
C7 C 0.4090(2) 0.83756(4) 0.84051(11)
H13 H 0.4349 0.8012 0.8167
B1 B 0.1767(2) 0.85464(5) 0.86115(12)
H14 H 0.0449 0.8329 0.8518
B2 B 0.1400(3) 0.79735(5) 1.25511(13)
H15 H 0.0229 0.8033 1.3182
C8 C 0.2498(2) 0.77335(4) 1.03215(11)
H16 H 0.2034 0.7614 0.9406
B3 B 0.4517(3) 0.90505(5) 1.01014(13)
H17 H 0.5039 0.9173 1.1004
B4 B 0.2751(3) 0.84427(5) 1.19809(12)
H18 H 0.2482 0.8800 1.2273
B5 B 0.3041(3) 0.87053(5) 0.73133(13)
H19 H 0.2567 0.8583 0.6402
B6 B 0.1974(2) 0.90005(5) 0.96831(12)
H20 H 0.0803 0.9092 1.0289
B7 B 0.5772(3) 0.92043(5) 0.87880(14)
H21 H 0.7112 0.9415 0.8853
B8 B 0.1220(3) 0.75343(5) 1.14599(12)
H22 H -0.0062 0.7305 1.1350
B9 B 0.2935(3) 0.74877(5) 1.26919(12)
H23 H 0.2780 0.7232 1.3419
B10 B 0.5525(2) 0.87641(5) 0.77219(13)
H24 H 0.6679 0.8682 0.7095
B11 B 0.3445(3) 0.94296(5) 0.90270(14)
H25 H 0.3244 0.9797 0.9244
B12 B 0.3573(3) 0.73257(5) 1.12446(13)
H26 H 0.3851 0.6964 1.0994
B13 B 0.1073(2) 0.81240(5) 1.10111(12)
H27 H -0.0315 0.8272 1.0641
B14 B 0.5125(2) 0.82283(5) 1.17163(11)
H28 H 0.6444 0.8446 1.1812
C9 C 0.5639(2) 0.86565(4) 0.92452(11)
H29 H 0.7007 0.8498 0.9611
B15 B 0.3894(3) 0.80406(5) 1.29917(12)
H30 H 0.4382 0.8145 1.3916
C10 C 0.4756(2) 0.77953(4) 1.07147(11)
H31 H 0.5907 0.7722 1.0079
B16 B 0.4031(3) 0.92550(6) 0.75652(14)
H32 H 0.4185 0.9505 0.6826
B17 B 0.1731(3) 0.91197(5) 0.81041(13)
H33 H 0.0386 0.9279 0.7706
B18 B 0.5226(3) 0.76397(5) 1.21640(13)
H34 H 0.6601 0.7482 1.2522
loop_
_geom_bond_atom_site_label_1
_geom_bond_atom_site_label_2
_geom_bond_site_symmetry_1
_geom_bond_site_symmetry_2
Ag1 N1 1_555 1_555
N1 C2 1_555 1_555
N2 C1 1_555 1_555
C1 H1 1_555 1_555
H2 C1 1_555 1_555
C2 C1 1_555 1_555
H3 C2 1_555 1_555
H4 C2 1_555 1_555
C3 N2 1_555 1_555
H5 C3 1_555 1_555
H6 C3 1_555 1_555
C4 N1 1_555 1_555
H7 C4 1_555 1_555
H8 C4 1_555 1_555
C5 N2 1_555 1_555
H9 C5 1_555 1_555
H10 C5 1_555 1_555
C6 N1 1_555 1_555
H11 C6 1_555 1_555
H12 C6 1_555 1_555
Co1 C7 1_555 1_555
C7 H13 1_555 1_555
B1 Co1 1_555 1_555
H14 B1 1_555 1_555
B2 H15 1_555 1_555
C8 Co1 1_555 1_555
H16 C8 1_555 1_555
B3 Co1 1_555 1_555
H17 B3 1_555 1_555
B4 Co1 1_555 1_555
H18 B4 1_555 1_555
B5 C7 1_555 1_555
H19 B5 1_555 1_555
B6 Co1 1_555 1_555
H20 B6 1_555 1_555
B7 B3 1_555 1_555
H21 B7 1_555 1_555
B8 B2 1_555 1_555
H22 B8 1_555 1_555
B9 B2 1_555 1_555
H23 B9 1_555 1_555
B10 C7 1_555 1_555
H24 B10 1_555 1_555
B11 B3 1_555 1_555
H25 B11 1_555 1_555
B12 C8 1_555 1_555
H26 B12 1_555 1_555
B13 Co1 1_555 1_555
H27 B13 1_555 1_555
B14 Co1 1_555 1_555
H28 B14 1_555 1_555
C9 Co1 1_555 1_555
H29 C9 1_555 1_555
B15 B2 1_555 1_555
H30 B15 1_555 1_555
C10 Co1 1_555 1_555
H31 C10 1_555 1_555
B16 B5 1_555 1_555
H32 B16 1_555 1_555
B17 B1 1_555 1_555
H33 B17 1_555 1_555
B18 B9 1_555 1_555
H34 B18 1_555 1_555
Ag1_2 N2 1_555 1_555
N2_2 Ag1 1_555 1_555
C3 C6 1_555 1_555
C4 C5 1_555 1_555
C7 B1 1_555 1_555
C7 C9 1_555 1_555
B1 B5 1_555 1_555
B1 B6 1_555 1_555
B2 B4 1_555 1_555
B2 B13 1_555 1_555
C8 B8 1_555 1_555
C8 B13 1_555 1_555
C8 C10 1_555 1_555
B3 B6 1_555 1_555
B3 C9 1_555 1_555
B4 B13 1_555 1_555
B4 B14 1_555 1_555
B4 B15 1_555 1_555
B5 B10 1_555 1_555
B5 B17 1_555 1_555
B6 B11 1_555 1_555
B6 B17 1_555 1_555
B7 B10 1_555 1_555
B7 B11 1_555 1_555
B7 C9 1_555 1_555
B7 B16 1_555 1_555
B8 B9 1_555 1_555
B8 B12 1_555 1_555
B8 B13 1_555 1_555
B9 B12 1_555 1_555
B9 B15 1_555 1_555
B10 C9 1_555 1_555
B10 B16 1_555 1_555
B11 B16 1_555 1_555
B11 B17 1_555 1_555
B12 C10 1_555 1_555
B12 B18 1_555 1_555
B14 B15 1_555 1_555
B14 C10 1_555 1_555
B14 B18 1_555 1_555
B15 B18 1_555 1_555
C10 B18 1_555 1_555
B16 B17 1_555 1_555

#END
