
#######################################################################
#
#                 Cambridge Crystallographic Data Centre
#                                CCDC 
#
#######################################################################
#
# If this CIF has been generated from an entry in the Cambridge 
# Structural Database, then it will include bibliographic, chemical, 
# crystal, experimental, refinement or atomic coordinate data resulting 
# from the CCDC's data processing and validation procedures.
#
#######################################################################

data_HIQNOM
_symmetry_cell_setting           monoclinic
_symmetry_space_group_name_H-M   'C 2/c'
_symmetry_Int_Tables_number      15
_space_group_name_Hall           '-C 2yn'
loop_
_symmetry_equiv_pos_site_id
_symmetry_equiv_pos_as_xyz
1 x,y,z
2 -x,y,1/2-z
3 1/2+x,1/2+y,z
4 1/2-x,1/2+y,1/2-z
5 -x,-y,-z
6 x,-y,1/2+z
7 1/2-x,1/2-y,-z
8 1/2+x,1/2-y,1/2+z
_cell_length_a                   21.639(2)
_cell_length_b                   9.2791(11)
_cell_length_c                   17.132(2)
_cell_angle_alpha                90
_cell_angle_beta                 111.495(2)
_cell_angle_gamma                90
_cell_volume                     3200.69
loop_
_atom_site_label
_atom_site_type_symbol
_atom_site_fract_x
_atom_site_fract_y
_atom_site_fract_z
Zn1 Zn 0.44852(3) 0.74229(6) 0.12663(3)
O1 O 0.4383(2) 1.1521(7) 0.5236(3)
O2 O 0.3993(2) 0.8435(5) 0.1843(2)
O3 O 0.4542(2) 0.7839(6) 0.3158(3)
O4 O 0.3482(3) 1.2764(6) 0.4951(3)
N1 N 0.2109(3) 1.1555(6) 0.1926(3)
H1 H 0.1864 1.2078 0.2111
N2 N 0.4486(3) 0.5266(6) 0.1372(4)
C1 C 0.3714(2) 0.9633(5) 0.2866(3)
C2 C 0.3943(3) 1.0188(6) 0.3671(3)
H2 H 0.4343 0.9871 0.4067
C3 C 0.3566(3) 1.1229(6) 0.3883(3)
C4 C 0.2967(3) 1.1674(6) 0.3301(3)
H3 H 0.2719 1.2360 0.3454
C5 C 0.2721(3) 1.1117(6) 0.2485(3)
C6 C 0.3112(2) 1.0117(5) 0.2264(3)
H4 H 0.2973 0.9771 0.1717
C7 C 0.3807(3) 1.1889(7) 0.4743(3)
C8 C 0.4125(3) 0.8579(5) 0.2604(3)
C9 C 0.1858(3) 1.1178(8) 0.1040(4)
H5 H 0.1391 1.1434 0.0804
H6 H 0.1886 1.0139 0.0996
C10 C 0.2303(4) 1.3327(7) 0.0533(4)
H7 H 0.2168 1.3901 0.0886
C11 C 0.2194(3) 1.1849(7) 0.0515(4)
C12 C 0.2389(3) 1.1030(8) -0.0033(4)
H8 H 0.2313 1.0042 -0.0068
C13 C 0.4703(5) 0.4334(9) 0.0920(6)
H9 H 0.4919 0.4685 0.0579
C14 C 0.4610(5) 0.2889(8) 0.0959(7)
H10 H 0.4799 0.2298 0.0668
C15 C 0.4255(6) 0.2207(10) 0.1396(8)
H11 H 0.4171 0.1221 0.1366
C16 C 0.4041(6) 0.3145(10) 0.1876(7)
H12 H 0.3846 0.2799 0.2242
C17 C 0.4123(4) 0.4577(8) 0.1798(6)
H13 H 0.3914 0.5180 0.2058
O2F O 0.1007(2) 1.6565(5) -0.1843(2)
O3F O 0.0458(2) 1.7161(6) -0.3158(3)
O4F O 0.1518(3) 1.2236(6) -0.4951(3)
N1F N 0.2891(3) 1.3445(6) -0.1926(3)
H1F H 0.3136 1.2922 -0.2111
C1F C 0.1286(2) 1.5367(5) -0.2866(3)
C2F C 0.1057(3) 1.4812(6) -0.3671(3)
H2F H 0.0657 1.5129 -0.4067
C3F C 0.1434(3) 1.3771(6) -0.3883(3)
C4F C 0.2033(3) 1.3326(6) -0.3301(3)
H3F H 0.2281 1.2640 -0.3454
C5F C 0.2279(3) 1.3883(6) -0.2485(3)
C6F C 0.1888(2) 1.4883(5) -0.2264(3)
H4F H 0.2027 1.5229 -0.1717
C7F C 0.1193(3) 1.3111(7) -0.4743(3)
C8F C 0.0875(3) 1.6421(5) -0.2604(3)
C9F C 0.3142(3) 1.3822(8) -0.1040(4)
H5F H 0.3609 1.3566 -0.0804
H6F H 0.3114 1.4861 -0.0996
C10F C 0.2697(4) 1.1673(7) -0.0533(4)
H7F H 0.2832 1.1099 -0.0886
C11F C 0.2806(3) 1.3151(7) -0.0515(4)
C12F C 0.2611(3) 1.3970(8) 0.0033(4)
H8F H 0.2687 1.4958 0.0068
O1F O 0.0617(2) 1.3479(7) -0.5236(3)
Zn1A Zn 0.55148(3) 0.74229(6) 0.37337(3)
N2A N 0.5514(3) 0.5266(6) 0.3628(4)
C13A C 0.5297(5) 0.4334(9) 0.4080(6)
H9A H 0.5081 0.4685 0.4421
C14A C 0.5390(5) 0.2889(8) 0.4041(7)
H10A H 0.5201 0.2298 0.4332
C15A C 0.5745(6) 0.2207(10) 0.3604(8)
H11A H 0.5829 0.1221 0.3634
C16A C 0.5959(6) 0.3145(10) 0.3124(7)
H12A H 0.6154 0.2799 0.2758
C17A C 0.5877(4) 0.4577(8) 0.3202(6)
H13A H 0.6086 0.5180 0.2942
Zn1C Zn 0.05148(3) 1.24229(6) -0.62663(3)
Zn1E Zn 0.44852(3) 1.25771(6) 0.62663(3)
Zn1F Zn 0.05148(3) 1.75771(6) -0.12663(3)
Zn1G Zn -0.05148(3) 1.75771(6) -0.37337(3)
O1D O 0.5617(2) 0.8479(7) 0.4764(3)
O1E O 0.4383(2) 0.8479(7) 0.0236(3)
O2A O 0.6007(2) 0.8435(5) 0.3157(2)
O3A O 0.5458(2) 0.7839(6) 0.1842(3)
O4D O 0.6518(3) 0.7236(6) 0.5049(3)
O4E O 0.3482(3) 0.7236(6) -0.0049(3)
loop_
_geom_bond_atom_site_label_1
_geom_bond_atom_site_label_2
_geom_bond_site_symmetry_1
_geom_bond_site_symmetry_2
Zn1 O2 1_555 1_555
O1 C7 1_555 1_555
O2 C8 1_555 1_555
O3 C8 1_555 1_555
O4 C7 1_555 1_555
N1 H1 1_555 1_555
N2 Zn1 1_555 1_555
C1 C2 1_555 1_555
C2 H2 1_555 1_555
C3 C2 1_555 1_555
C4 C3 1_555 1_555
H3 C4 1_555 1_555
C5 N1 1_555 1_555
C6 C1 1_555 1_555
H4 C6 1_555 1_555
C7 C3 1_555 1_555
C8 C1 1_555 1_555
C9 N1 1_555 1_555
H5 C9 1_555 1_555
H6 C9 1_555 1_555
C10 H7 1_555 1_555
C11 C9 1_555 1_555
C12 C11 1_555 1_555
H8 C12 1_555 1_555
C13 N2 1_555 1_555
H9 C13 1_555 1_555
C14 C13 1_555 1_555
H10 C14 1_555 1_555
C15 C14 1_555 1_555
H11 C15 1_555 1_555
C16 C15 1_555 1_555
H12 C16 1_555 1_555
C17 N2 1_555 1_555
H13 C17 1_555 1_555
O2F C8F 1_555 1_555
O3F C8F 1_555 1_555
O4F C7F 1_555 1_555
N1F H1F 1_555 1_555
C1F C2F 1_555 1_555
C2F H2F 1_555 1_555
C3F C2F 1_555 1_555
C4F C3F 1_555 1_555
H3F C4F 1_555 1_555
C5F N1F 1_555 1_555
C6F C1F 1_555 1_555
H4F C6F 1_555 1_555
C7F C3F 1_555 1_555
C8F C1F 1_555 1_555
C9F N1F 1_555 1_555
H5F C9F 1_555 1_555
H6F C9F 1_555 1_555
C10F C12 1_555 1_555
H7F C10F 1_555 1_555
C11F C9F 1_555 1_555
C12F C10 1_555 1_555
H8F C12F 1_555 1_555
O1F C7F 1_555 1_555
Zn1A O3 1_555 1_555
N2A Zn1A 1_555 1_555
C13A N2A 1_555 1_555
H9A C13A 1_555 1_555
C14A C13A 1_555 1_555
H10A C14A 1_555 1_555
C15A C14A 1_555 1_555
H11A C15A 1_555 1_555
C16A C15A 1_555 1_555
H12A C16A 1_555 1_555
C17A N2A 1_555 1_555
H13A C17A 1_555 1_555
Zn1C O4F 1_555 1_555
Zn1E O1 1_555 1_555
Zn1F O2F 1_555 1_555
Zn1G O3F 1_555 1_555
O1D Zn1A 1_555 1_555
O1E Zn1 1_555 1_555
O2A Zn1A 1_555 1_555
O3A Zn1 1_555 1_555
O4D Zn1A 1_555 1_555
O4E Zn1 1_555 1_555
O4 Zn1E 1_555 1_555
C4 C5 1_555 1_555
C5 C6 1_555 1_555
C10 C11 1_555 1_555
C16 C17 1_555 1_555
C4F C5F 1_555 1_555
C5F C6F 1_555 1_555
C10F C11F 1_555 1_555
C11F C12F 1_555 1_555
O1F Zn1C 1_555 1_555
C16A C17A 1_555 1_555

#END
