
#######################################################################
#
#                 Cambridge Crystallographic Data Centre
#                                CCDC 
#
#######################################################################
#
# If this CIF has been generated from an entry in the Cambridge 
# Structural Database, then it will include bibliographic, chemical, 
# crystal, experimental, refinement or atomic coordinate data resulting 
# from the CCDC's data processing and validation procedures.
#
#######################################################################

data_HIQPAA
_symmetry_cell_setting           hexagonal
_symmetry_space_group_name_H-M   'P 61 2 2'
_symmetry_Int_Tables_number      178
_space_group_name_Hall           "P 61 2' (0,0,5)"
loop_
_symmetry_equiv_pos_site_id
_symmetry_equiv_pos_as_xyz
1 x,y,z
2 -x,-x+y,2/3-z
3 -x,-y,1/2+z
4 -x+y,-x,2/3+z
5 -x+y,y,1/2-z
6 -y,-x,5/6-z
7 -y,x-y,1/3+z
8 y,-x+y,5/6+z
9 y,x,1/3-z
10 x-y,-y,-z
11 x-y,x,1/6+z
12 x,x-y,1/6-z
_cell_length_a                   9.132637(70)
_cell_length_b                   9.132637(70)
_cell_length_c                   23.09972(24)
_cell_angle_alpha                90
_cell_angle_beta                 90
_cell_angle_gamma                120
_cell_volume                     1668.51
loop_
_atom_site_label
_atom_site_type_symbol
_atom_site_fract_x
_atom_site_fract_y
_atom_site_fract_z
C1 C 0.00000 -0.679583 -0.166667
C2 C 0.099553 -0.717337 -0.133397
C3 C 0.232075 -0.598968 -0.089110
H1 H 0.255787 -0.486344 -0.095295
H2 H 0.189378 -0.633571 -0.051029
H3 H 0.332926 -0.603866 -0.093648
N1 N 0.061527 -0.877978 -0.146105
C4 C 0.00000 -0.510957 -0.166667
C5 C 0.018271 -0.414291 -0.213885
C6 C 0.042592 -0.454238 -0.276740
H4 H 0.057320 -0.550103 -0.277256
H5 H -0.054183 -0.477380 -0.298962
H6 H 0.139663 -0.359910 -0.292832
N2 N 0.011292 -0.276152 -0.195849
Cd1 Cd 0.06275(19) -1.062748(84) -0.083333
C2A C -0.099553 -0.816890 -0.199936
C3A C -0.232075 -0.831043 -0.244223
H1A H -0.255787 -0.742131 -0.238038
H2A H -0.189378 -0.822949 -0.282304
H3A H -0.332926 -0.936792 -0.239685
N1A N -0.061527 -0.939505 -0.187228
C5A C -0.018271 -0.432562 -0.119448
C6A C -0.042592 -0.496830 -0.056593
H4A H -0.057320 -0.607423 -0.056077
H5A H 0.054183 -0.423197 -0.034371
H6A H -0.139663 -0.499573 -0.040501
N2A N -0.011292 -0.287444 -0.137484
N1E N -0.122022 -1.061527 -0.020562
N2A_2 N -0.011292 -1.287444 -0.137484
N2J N 0.287444 -0.988708 -0.029182
Cd1A Cd -0.06275(19) -1.12550(21) -0.250000
Cd1A_2 Cd -0.06275(19) -0.12550(21) -0.250000
Cd1E Cd 0.062748(84) -0.06275(19) -0.083334
loop_
_geom_bond_atom_site_label_1
_geom_bond_atom_site_label_2
_geom_bond_site_symmetry_1
_geom_bond_site_symmetry_2
C1 C2 1_555 1_555
C2 C3 1_555 1_555
C3 H1 1_555 1_555
H2 C3 1_555 1_555
H3 C3 1_555 1_555
N1 C2 1_555 1_555
C4 C1 1_555 1_555
C5 C4 1_555 1_555
C6 C5 1_555 1_555
H4 C6 1_555 1_555
H5 C6 1_555 1_555
H6 C6 1_555 1_555
N2 C5 1_555 1_555
Cd1 N1 1_555 1_555
C2A C1 1_555 1_555
C3A C2A 1_555 1_555
H1A C3A 1_555 1_555
H2A C3A 1_555 1_555
H3A C3A 1_555 1_555
N1A N1 1_555 1_555
C5A C4 1_555 1_555
C6A C5A 1_555 1_555
H4A C6A 1_555 1_555
H5A C6A 1_555 1_555
H6A C6A 1_555 1_555
N2A N2 1_555 1_555
N1E Cd1 1_555 1_555
N2A_2 Cd1 1_555 1_555
N2J Cd1 1_555 1_555
Cd1A N1A 1_555 1_555
Cd1A_2 N2 1_555 1_555
Cd1E N2A 1_555 1_555
C2A N1A 1_555 1_555
C5A N2A 1_555 1_555

#END
