
#######################################################################
#
#                 Cambridge Crystallographic Data Centre
#                                CCDC 
#
#######################################################################
#
# If this CIF has been generated from an entry in the Cambridge 
# Structural Database, then it will include bibliographic, chemical, 
# crystal, experimental, refinement or atomic coordinate data resulting 
# from the CCDC's data processing and validation procedures.
#
#######################################################################

data_HIQQOO
_symmetry_cell_setting           monoclinic
_symmetry_space_group_name_H-M   'P 21/n'
_symmetry_Int_Tables_number      14
_space_group_name_Hall           '-P 2yn'
loop_
_symmetry_equiv_pos_site_id
_symmetry_equiv_pos_as_xyz
1 x,y,z
2 1/2-x,1/2+y,1/2-z
3 -x,-y,-z
4 1/2+x,1/2-y,1/2+z
_cell_length_a                   10.5218(19)
_cell_length_b                   11.742(2)
_cell_length_c                   18.077(3)
_cell_angle_alpha                90
_cell_angle_beta                 101.281(4)
_cell_angle_gamma                90
_cell_volume                     2190.21
loop_
_atom_site_label
_atom_site_type_symbol
_atom_site_fract_x
_atom_site_fract_y
_atom_site_fract_z
Co1 Co 0.49412(5) 0.06855(4) 0.63798(3)
O1 O 0.3496(3) -0.0366(2) 0.57392(15)
O2 O 0.2835(3) 0.1061(2) 0.63506(15)
O3 O 0.6371(3) 0.0100(3) 0.58260(19)
N1 N 0.5516(3) -0.0670(3) 0.72031(16)
C1 C 0.6497(3) -0.0620(3) 0.9301(2)
N2 N 0.6541(3) 0.1013(3) 1.01155(18)
N3 N 0.6879(3) -0.1346(3) 0.98703(19)
N4 N 0.5349(3) 0.1544(3) 0.74323(17)
C2 C 0.7111(4) -0.0898(4) 1.0577(2)
C3 C 0.6252(4) -0.1065(3) 0.8530(2)
C4 C 0.5825(3) -0.0328(3) 0.7924(2)
C5 C 0.6338(3) 0.0564(3) 0.9431(2)
C6 C 0.7204(4) 0.0719(4) 1.1443(2)
H1 H 0.7108 0.1493 1.1527
C7 C 0.5971(4) 0.1338(3) 0.8784(2)
C8 C 0.5705(3) 0.0889(3) 0.8059(2)
C9 C 0.2598(4) 0.0287(4) 0.5870(2)
C10 C 0.6939(4) 0.0280(4) 1.0695(2)
C11 C 0.5651(4) -0.1773(3) 0.7058(2)
H2 H 0.5425 -0.2025 0.6562
C12 C 0.6421(4) -0.2206(4) 0.8354(2)
H3 H 0.6739 -0.2724 0.8734
C13 C 0.5886(4) 0.2511(4) 0.8866(2)
H4 H 0.6084 0.2842 0.9342
C14 C 0.7748(4) -0.1170(5) 1.1915(3)
H5 H 0.8001 -0.1649 1.2327
C15 C 0.6120(4) -0.2560(4) 0.7623(2)
H6 H 0.6225 -0.3319 0.7502
C16 C 0.5236(4) 0.2654(3) 0.7536(2)
H7 H 0.4958 0.3109 0.7115
C17 C 0.7600(4) 0.0000(5) 1.2033(3)
H8 H 0.7773 0.0288 1.2522
C18 C 0.7525(4) -0.1619(4) 1.1197(2)
H9 H 0.7647 -0.2392 1.1124
C19 C 0.5509(5) 0.3175(4) 0.8239(2)
H10 H 0.5436 0.3960 0.8283
O4 O 0.5077(3) 0.2196(2) 0.58662(15)
O5 O 0.3983(3) 0.2030(2) 0.46817(16)
C20 C 0.4606(4) 0.2578(3) 0.5222(2)
C21 C 0.5377(4) 0.4530(3) 0.5701(2)
C22 C 0.4429(4) 0.4323(4) 0.4403(2)
C23 C 0.4816(4) 0.3832(3) 0.5108(2)
C24 C 0.0943(4) -0.0796(4) 0.4949(2)
C25 C 0.1242(4) 0.0122(3) 0.5429(2)
C26 C 0.0299(4) 0.0927(4) 0.5484(2)
H11 H 0.565(3) 0.424(3) 0.613(2)
H12 H 0.049(3) 0.156(3) 0.5768(19)
H13 H 0.161(3) -0.133(3) 0.4907(18)
H14 H 0.631(4) 0.045(4) 0.534(3)
H15 H 0.628(5) -0.048(4) 0.568(3)
H16 H 0.404(4) 0.391(3) 0.401(2)
Co1B Co -0.49412(5) -0.06855(4) 0.36202(3)
Co1B_2 Co 0.50588(5) 0.93145(4) 0.36202(3)
O1B O -0.3496(3) 0.0366(2) 0.42608(15)
O2B O -0.2835(3) -0.1061(2) 0.36494(15)
O3B O -0.6371(3) -0.0100(3) 0.41740(19)
N1B N -0.5516(3) 0.0670(3) 0.27969(16)
C1B C -0.6497(3) 0.0620(3) 0.0699(2)
N2B N -0.6541(3) -0.1013(3) -0.01155(18)
N3B N -0.6879(3) 0.1346(3) 0.01297(19)
N4B N -0.5349(3) -0.1544(3) 0.25677(17)
C2B C -0.7111(4) 0.0898(4) -0.0577(2)
C3B C -0.6252(4) 0.1065(3) 0.1470(2)
C4B C -0.5825(3) 0.0328(3) 0.2076(2)
C5B C -0.6338(3) -0.0564(3) 0.0569(2)
C6B C -0.7204(4) -0.0719(4) -0.1443(2)
H1B H -0.7108 -0.1493 -0.1527
C7B C -0.5971(4) -0.1338(3) 0.1216(2)
C8B C -0.5705(3) -0.0889(3) 0.1941(2)
C9B C -0.2598(4) -0.0287(4) 0.4130(2)
C10B C -0.6939(4) -0.0280(4) -0.0695(2)
C11B C -0.5651(4) 0.1773(3) 0.2942(2)
H2B H -0.5425 0.2025 0.3438
C12B C -0.6421(4) 0.2206(4) 0.1646(2)
H3B H -0.6739 0.2724 0.1266
C13B C -0.5886(4) -0.2511(4) 0.1134(2)
H4B H -0.6084 -0.2842 0.0658
C14B C -0.7748(4) 0.1170(5) -0.1915(3)
H5B H -0.8001 0.1649 -0.2327
C15B C -0.6120(4) 0.2560(4) 0.2377(2)
H6B H -0.6225 0.3319 0.2498
C16B C -0.5236(4) -0.2654(3) 0.2464(2)
H7B H -0.4958 -0.3109 0.2885
C17B C -0.7600(4) 0.0000(5) -0.2033(3)
H8B H -0.7773 -0.0288 -0.2522
C18B C -0.7525(4) 0.1619(4) -0.1197(2)
H9B H -0.7647 0.2392 -0.1124
C19B C -0.5509(5) -0.3175(4) 0.1761(2)
H10B H -0.5436 -0.3960 0.1717
O4B O 0.4923(3) 0.7804(2) 0.41338(15)
O4B_2 O -0.5077(3) -0.2196(2) 0.41338(15)
O5B O 0.6017(3) 0.7970(2) 0.53183(16)
C20B C 0.5394(4) 0.7422(3) 0.4778(2)
C21B C 0.4623(4) 0.5470(3) 0.4299(2)
C22B C 0.5571(4) 0.5677(4) 0.5597(2)
C23B C 0.5184(4) 0.6168(3) 0.4892(2)
C24B C -0.0943(4) 0.0796(4) 0.5051(2)
C25B C -0.1242(4) -0.0122(3) 0.4571(2)
C26B C -0.0299(4) -0.0927(4) 0.4516(2)
H11B H 0.435(3) 0.576(3) 0.387(2)
H12B H -0.049(3) -0.156(3) 0.4232(19)
H13B H -0.161(3) 0.133(3) 0.5093(18)
H14B H -0.631(4) -0.045(4) 0.466(3)
H15B H -0.628(5) 0.048(4) 0.432(3)
H16B H 0.596(4) 0.609(3) 0.599(2)
loop_
_geom_bond_atom_site_label_1
_geom_bond_atom_site_label_2
_geom_bond_site_symmetry_1
_geom_bond_site_symmetry_2
Co1 O1 1_555 1_555
O1 C9 1_555 1_555
O2 Co1 1_555 1_555
O3 Co1 1_555 1_555
N1 Co1 1_555 1_555
C1 N3 1_555 1_555
N2 C5 1_555 1_555
N3 C2 1_555 1_555
N4 Co1 1_555 1_555
C2 C10 1_555 1_555
C3 C1 1_555 1_555
C4 N1 1_555 1_555
C5 C1 1_555 1_555
C6 H1 1_555 1_555
C7 C5 1_555 1_555
C8 N4 1_555 1_555
C9 O2 1_555 1_555
C10 N2 1_555 1_555
C11 N1 1_555 1_555
H2 C11 1_555 1_555
C12 C3 1_555 1_555
H3 C12 1_555 1_555
C13 C7 1_555 1_555
H4 C13 1_555 1_555
C14 H5 1_555 1_555
C15 C11 1_555 1_555
H6 C15 1_555 1_555
C16 N4 1_555 1_555
H7 C16 1_555 1_555
C17 C6 1_555 1_555
H8 C17 1_555 1_555
C18 C2 1_555 1_555
H9 C18 1_555 1_555
C19 C13 1_555 1_555
H10 C19 1_555 1_555
O4 Co1 1_555 1_555
O5 C20 1_555 1_555
C20 O4 1_555 1_555
C21 C23 1_555 1_555
C22 C23 1_555 1_555
C23 C20 1_555 1_555
C24 C25 1_555 1_555
C25 C9 1_555 1_555
C26 C25 1_555 1_555
H11 C21 1_555 1_555
H12 C26 1_555 1_555
H13 C24 1_555 1_555
H14 O3 1_555 1_555
H15 O3 1_555 1_555
H16 C22 1_555 1_555
Co1B O1B 1_555 1_555
Co1B_2 O4B 1_555 1_555
O1B C9B 1_555 1_555
O2B Co1B 1_555 1_555
O3B Co1B 1_555 1_555
N1B Co1B 1_555 1_555
C1B N3B 1_555 1_555
N2B C5B 1_555 1_555
N3B C2B 1_555 1_555
N4B Co1B 1_555 1_555
C2B C10B 1_555 1_555
C3B C1B 1_555 1_555
C4B N1B 1_555 1_555
C5B C1B 1_555 1_555
C6B H1B 1_555 1_555
C7B C5B 1_555 1_555
C8B N4B 1_555 1_555
C9B O2B 1_555 1_555
C10B N2B 1_555 1_555
C11B N1B 1_555 1_555
H2B C11B 1_555 1_555
C12B C3B 1_555 1_555
H3B C12B 1_555 1_555
C13B C7B 1_555 1_555
H4B C13B 1_555 1_555
C14B H5B 1_555 1_555
C15B C11B 1_555 1_555
H6B C15B 1_555 1_555
C16B N4B 1_555 1_555
H7B C16B 1_555 1_555
C17B C6B 1_555 1_555
H8B C17B 1_555 1_555
C18B C2B 1_555 1_555
H9B C18B 1_555 1_555
C19B C13B 1_555 1_555
H10B C19B 1_555 1_555
O4B C20B 1_555 1_555
O4B_2 Co1B 1_555 1_555
O5B C20B 1_555 1_555
C20B C23B 1_555 1_555
C21B C22 1_555 1_555
C22B C21 1_555 1_555
C23B C21B 1_555 1_555
C24B C26 1_555 1_555
C25B C9B 1_555 1_555
C26B C24 1_555 1_555
H11B C21B 1_555 1_555
H12B C26B 1_555 1_555
H13B C24B 1_555 1_555
H14B O3B 1_555 1_555
H15B O3B 1_555 1_555
H16B C22B 1_555 1_555
C3 C4 1_555 1_555
C4 C8 1_555 1_555
C6 C10 1_555 1_555
C7 C8 1_555 1_555
C12 C15 1_555 1_555
C14 C17 1_555 1_555
C14 C18 1_555 1_555
C16 C19 1_555 1_555
C3B C4B 1_555 1_555
C4B C8B 1_555 1_555
C6B C10B 1_555 1_555
C7B C8B 1_555 1_555
C12B C15B 1_555 1_555
C14B C17B 1_555 1_555
C14B C18B 1_555 1_555
C16B C19B 1_555 1_555
C22B C23B 1_555 1_555
C24B C25B 1_555 1_555
C25B C26B 1_555 1_555

#END
