
#######################################################################
#
#                 Cambridge Crystallographic Data Centre
#                                CCDC 
#
#######################################################################
#
# If this CIF has been generated from an entry in the Cambridge 
# Structural Database, then it will include bibliographic, chemical, 
# crystal, experimental, refinement or atomic coordinate data resulting 
# from the CCDC's data processing and validation procedures.
#
#######################################################################

data_HIQSUW
_symmetry_cell_setting           monoclinic
_symmetry_space_group_name_H-M   'P 2/n'
_symmetry_Int_Tables_number      13
_space_group_name_Hall           '-P 2yac'
loop_
_symmetry_equiv_pos_site_id
_symmetry_equiv_pos_as_xyz
1 x,y,z
2 1/2-x,y,1/2-z
3 -x,-y,-z
4 1/2+x,-y,1/2+z
_cell_length_a                   8.777(2)
_cell_length_b                   10.9763(16)
_cell_length_c                   17.981(3)
_cell_angle_alpha                90
_cell_angle_beta                 103.650(14)
_cell_angle_gamma                90
_cell_volume                     1683.34
loop_
_atom_site_label
_atom_site_type_symbol
_atom_site_fract_x
_atom_site_fract_y
_atom_site_fract_z
Zn1 Zn 0.04335(4) 0.79387(3) 0.171663(16)
C1 C -0.1934(4) 0.8493(3) 0.06332(15)
C2 C -0.3194(3) 0.8800(3) -0.00631(14)
C3 C -0.2932(3) 0.9639(3) -0.06037(14)
H1 H -0.1974 1.0041 -0.0529
C4 C -0.4116(3) 0.9871(2) -0.12579(14)
C5 C -0.5553(3) 0.9282(3) -0.13638(15)
H2 H -0.6339 0.9437 -0.1800
C6 C -0.5818(3) 0.8457(3) -0.08168(16)
C7 C -0.4635(4) 0.8226(3) -0.01715(15)
H3 H -0.4811 0.7678 0.0194
C8 C -0.3810(3) 1.0759(3) -0.18412(14)
C9 C -0.0538(4) 0.6455(3) 0.29853(17)
H4 H -0.0723 0.7214 0.3176
C10 C -0.0911(5) 0.5421(4) 0.33393(19)
H5 H -0.1345 0.5484 0.3762
C11 C -0.0640(5) 0.4309(4) 0.3066(2)
H6 H -0.0877 0.3604 0.3303
C12 C -0.0003(5) 0.4235(3) 0.2430(2)
H7 H 0.0187 0.3482 0.2232
C13 C 0.1464(4) 0.4292(3) 0.1073(2)
H8 H 0.1391 0.3524 0.1280
C14 C 0.2047(4) 0.4431(4) 0.0426(2)
H9 H 0.2353 0.3751 0.0188
C15 C 0.2171(4) 0.5564(4) 0.0140(2)
H10 H 0.2572 0.5670 -0.0290
C16 C 0.1694(4) 0.6549(3) 0.04976(17)
H11 H 0.1782 0.7325 0.0303
C17 C 0.0992(3) 0.5322(3) 0.14052(17)
C18 C 0.0340(4) 0.5299(3) 0.20978(17)
N1 N 0.0082(3) 0.6396(2) 0.23741(13)
N2 N 0.1105(3) 0.6432(2) 0.11174(13)
O1 O -0.0610(3) 0.9002(2) 0.07345(12)
O2 O -0.2190(3) 0.7718(2) 0.10882(12)
O3 O -0.2652(2) 1.1432(2) -0.16680(11)
O4 O -0.4802(2) 1.07902(19) -0.24867(10)
O5 O -0.7167(3) 0.7825(2) -0.08941(13)
H12 H -0.7905 0.8242 -0.1123
Zn1B Zn -0.04335(4) 1.20613(3) -0.171663(16)
Zn1C Zn -0.45665(4) 1.20613(3) -0.328337(16)
O3B O 0.2652(2) 0.8568(2) 0.16680(11)
O4C O 0.0198(2) 0.92098(19) 0.25133(10)
O6 O 0.9935(4) 0.1276(2) 0.15885(16)
H13 H 1.003(6) 0.086(3) 0.1992(13)
H14 H 1.014(6) 0.085(3) 0.1235(15)
loop_
_geom_bond_atom_site_label_1
_geom_bond_atom_site_label_2
_geom_bond_site_symmetry_1
_geom_bond_site_symmetry_2
Zn1 N1 1_555 1_555
C1 C2 1_555 1_555
C2 C3 1_555 1_555
C3 H1 1_555 1_555
C4 C3 1_555 1_555
C5 C4 1_555 1_555
H2 C5 1_555 1_555
C6 C5 1_555 1_555
C7 C2 1_555 1_555
H3 C7 1_555 1_555
C8 C4 1_555 1_555
C9 H4 1_555 1_555
C10 C9 1_555 1_555
H5 C10 1_555 1_555
C11 C10 1_555 1_555
H6 C11 1_555 1_555
C12 C11 1_555 1_555
H7 C12 1_555 1_555
C13 H8 1_555 1_555
C14 C13 1_555 1_555
H9 C14 1_555 1_555
C15 C14 1_555 1_555
H10 C15 1_555 1_555
C16 C15 1_555 1_555
H11 C16 1_555 1_555
C17 C13 1_555 1_555
C18 C12 1_555 1_555
N1 C9 1_555 1_555
N2 Zn1 1_555 1_555
O1 Zn1 1_555 1_555
O2 Zn1 1_555 1_555
O3 C8 1_555 1_555
O4 C8 1_555 1_555
O5 C6 1_555 1_555
H12 O5 1_555 1_555
O6 H13 1_555 1_555
H14 O6 1_555 1_555
Zn1B O3 1_555 1_555
Zn1C O4 1_555 1_555
O3B Zn1 1_555 1_555
O4C Zn1 1_555 1_555
C1 O1 1_555 1_555
C1 O2 1_555 1_555
C6 C7 1_555 1_555
C16 N2 1_555 1_555
C17 C18 1_555 1_555
C17 N2 1_555 1_555
C18 N1 1_555 1_555

#END
