
#######################################################################
#
#                 Cambridge Crystallographic Data Centre
#                                CCDC 
#
#######################################################################
#
# If this CIF has been generated from an entry in the Cambridge 
# Structural Database, then it will include bibliographic, chemical, 
# crystal, experimental, refinement or atomic coordinate data resulting 
# from the CCDC's data processing and validation procedures.
#
#######################################################################

data_HIQVUZ
_symmetry_cell_setting           triclinic
_symmetry_space_group_name_H-M   'P -1'
_symmetry_Int_Tables_number      2
_space_group_name_Hall           '-P 1'
loop_
_symmetry_equiv_pos_site_id
_symmetry_equiv_pos_as_xyz
1 x,y,z
2 -x,-y,-z
_cell_length_a                   6.9291(5)
_cell_length_b                   10.0551(7)
_cell_length_c                   20.620(2)
_cell_angle_alpha                78.0300(10)
_cell_angle_beta                 81.0440(10)
_cell_angle_gamma                77.2660(10)
_cell_volume                     1361.71
loop_
_atom_site_label
_atom_site_type_symbol
_atom_site_fract_x
_atom_site_fract_y
_atom_site_fract_z
Zn1 Zn 0.63480(4) 0.67635(3) 0.719133(14)
Zn2 Zn 0.92767(4) 0.77920(3) 0.775812(14)
O1 O 0.5123(3) 0.6234(2) 0.81850(9)
O2 O 0.7888(3) 0.6531(2) 0.85183(9)
O3 O 0.8096(3) 0.7535(2) 0.63769(9)
O4 O 0.9806(3) 0.8735(2) 0.67983(9)
O5 O 0.5119(3) 0.8748(2) 0.72861(11)
O6 O 0.7024(3) 0.9401(2) 0.78959(11)
O7 O -0.1614(3) 1.49770(19) 0.73505(10)
O8 O 0.0874(3) 1.59581(19) 0.74699(10)
O11 O 0.4426(3) 0.6272(2) 0.67268(10)
O12 O 1.1323(3) 0.8078(2) 0.82510(10)
C1 C 0.6258(4) 0.6158(3) 0.86252(13)
C2 C 0.5584(4) 0.5557(3) 0.93373(13)
C3 C 0.3839(4) 0.5026(3) 0.94995(14)
H1 H 0.3063 0.5042 0.9167
C4 C 0.6740(4) 0.5528(3) 0.98410(14)
H2 H 0.7904 0.5882 0.9734
C5 C 0.9142(4) 0.8430(3) 0.63250(13)
C6 C 0.9616(4) 0.9236(3) 0.56353(13)
C7 C 0.8558(5) 0.9188(3) 0.51209(14)
H3 H 0.7594 0.8641 0.5203
C8 C 1.1067(5) 1.0052(3) 0.55114(14)
H4 H 1.1782 1.0085 0.5852
C9 C 0.5516(4) 0.9592(3) 0.75905(13)
C10 C 0.4100(4) 1.0962(3) 0.75689(13)
C11 C 0.2208(4) 1.1129(3) 0.73742(14)
H5 H 0.1796 1.0382 0.7274
C12 C 0.0946(4) 1.2414(3) 0.73307(14)
H6 H -0.0323 1.2522 0.7208
C13 C 0.1558(4) 1.3544(3) 0.74688(13)
C14 C 0.3456(4) 1.3378(3) 0.76604(14)
H7 H 0.3878 1.4128 0.7753
C15 C 0.4704(4) 1.2094(3) 0.77112(14)
H8 H 0.5963 1.1982 0.7842
C16 C 0.0166(4) 1.4929(3) 0.74250(12)
H27 H 0.438(6) 0.652(4) 0.6313(6)
H28 H 0.329(3) 0.620(4) 0.6927(18)
H29 H 1.095(6) 0.811(4) 0.8661(7)
H30 H 1.246(3) 0.757(3) 0.8228(19)
Zn1A Zn 0.36520(4) 0.32365(3) 1.280867(14)
Zn1_2 Zn -0.36520(4) 1.67635(3) 0.719133(14)
Zn1A_2 Zn 1.36520(4) 1.32365(3) 0.280867(14)
Zn1_3 Zn 1.63480(4) -0.32365(3) 0.719133(14)
Zn2A Zn 0.07233(4) 0.22080(3) 1.224188(14)
Zn2_2 Zn -0.07233(4) 1.77920(3) 0.775812(14)
Zn2A_2 Zn 1.07233(4) 1.22080(3) 0.224188(14)
Zn2_3 Zn 1.92767(4) -0.22080(3) 0.775812(14)
O1A O 0.4877(3) 0.3766(2) 1.18150(9)
O2A O 0.2112(3) 0.3469(2) 1.14817(9)
O3A O 1.1904(3) 1.2465(2) 0.36231(9)
O3A_2 O 0.1904(3) 0.2465(2) 1.36231(9)
O4A O 1.0194(3) 1.1265(2) 0.32017(9)
O4A_2 O 0.0194(3) 0.1265(2) 1.32017(9)
O5_2 O 1.5119(3) -0.1252(2) 0.72861(11)
O5A O 0.4881(3) 0.1252(2) 1.27139(11)
O6_2 O 1.7024(3) -0.0599(2) 0.78959(11)
O6A O 0.2976(3) 0.0599(2) 1.21041(11)
O7_2 O 0.8386(3) 0.49770(19) 0.73505(10)
O7A O 0.1614(3) 0.50230(19) 1.26495(10)
O8_2 O 1.0874(3) 0.59581(19) 0.74699(10)
O8A O -0.0874(3) 0.40419(19) 1.25301(10)
O11A O 0.5574(3) 0.3728(2) 1.32732(10)
O12A O -0.1323(3) 0.1922(2) 1.17490(10)
C1A C 0.3742(4) 0.3842(3) 1.13748(13)
C2A C 0.4416(4) 0.4443(3) 1.06627(13)
C3A C 0.6161(4) 0.4974(3) 1.05005(14)
H1A H 0.6937 0.4958 1.0833
C4A C 0.3260(4) 0.4472(3) 1.01590(14)
H2A H 0.2096 0.4118 1.0266
C5A C 1.0858(4) 1.1570(3) 0.36750(13)
C6A C 1.0384(4) 1.0764(3) 0.43647(13)
C7A C 1.1442(5) 1.0812(3) 0.48791(14)
H3A H 1.2406 1.1359 0.4797
C8A C 0.8933(5) 0.9948(3) 0.44886(14)
H4A H 0.8218 0.9915 0.4148
C9_2 C 1.5516(4) -0.0408(3) 0.75905(13)
C10_2 C 1.4100(4) 0.0962(3) 0.75689(13)
C11_2 C 1.2208(4) 0.1129(3) 0.73742(14)
H5_2 H 1.1796 0.0382 0.7274
C12_2 C 1.0946(4) 0.2414(3) 0.73307(14)
H6_2 H 0.9677 0.2522 0.7208
C13_2 C 1.1558(4) 0.3544(3) 0.74688(13)
C14_2 C 1.3456(4) 0.3378(3) 0.76604(14)
H7_2 H 1.3878 0.4128 0.7753
C15_2 C 1.4704(4) 0.2094(3) 0.77112(14)
H8_2 H 1.5963 0.1982 0.7842
C16_2 C 1.0166(4) 0.4929(3) 0.74250(12)
H27A H 0.562(6) 0.348(4) 1.3687(6)
H28A H 0.671(3) 0.380(4) 1.3073(18)
H29A H -0.095(6) 0.189(4) 1.1339(7)
H30A H -0.246(3) 0.243(3) 1.1772(19)
O9 O 0.4592(4) 0.6915(3) 0.54349(11)
N1 N 0.3480(6) 0.7018(5) 0.44740(18)
C17 C 0.3473(6) 0.6572(5) 0.5108(2)
C18 C 0.2010(6) 0.5604(4) 0.54366(19)
H9 H 0.2192 0.5293 0.5900
H10 H 0.2261 0.4819 0.5217
H11 H 0.0668 0.6099 0.5398
C19 C 0.4846(7) 0.7971(5) 0.41555(19)
H12 H 0.5368 0.8269 0.4494
H13 H 0.4133 0.8762 0.3883
H14 H 0.5923 0.7499 0.3883
C20 C 0.2240(8) 0.6634(7) 0.4052(2)
H15 H 0.1502 0.5966 0.4315
H16 H 0.3077 0.6242 0.3694
H17 H 0.1330 0.7444 0.3870
O10 O 1.0286(4) 0.8186(3) 0.95154(12)
N2 N 1.1224(6) 0.8029(4) 1.05090(18)
C21 C 1.3211(6) 0.9137(4) 0.9555(2)
H18 H 1.3178 0.9395 0.9081
H19 H 1.4445 0.8517 0.9646
H20 H 1.3099 0.9952 0.9743
C22 C 1.1458(6) 0.8407(4) 0.9868(2)
C23 C 0.9614(7) 0.7308(5) 1.08110(19)
H21 H 0.8818 0.7282 1.0474
H22 H 0.8800 0.7787 1.1145
H23 H 1.0160 0.6379 1.1014
C24 C 1.2542(9) 0.8267(6) 1.0954(2)
H24 H 1.3640 0.8633 1.0690
H25 H 1.3037 0.7406 1.1233
H26 H 1.1806 0.8916 1.1228
loop_
_geom_bond_atom_site_label_1
_geom_bond_atom_site_label_2
_geom_bond_site_symmetry_1
_geom_bond_site_symmetry_2
Zn1 O1 1_555 1_555
Zn2 O2 1_555 1_555
O1 C1 1_555 1_555
O2 C1 1_555 1_555
O3 Zn1 1_555 1_555
O4 Zn2 1_555 1_555
O5 Zn1 1_555 1_555
O6 Zn2 1_555 1_555
O7 C16 1_555 1_555
O8 C16 1_555 1_555
O9 C17 1_555 1_555
O10 C22 1_555 1_555
O11 Zn1 1_555 1_555
O12 Zn2 1_555 1_555
N1 C17 1_555 1_555
N2 C22 1_555 1_555
C1 C2 1_555 1_555
C2 C3 1_555 1_555
C3 H1 1_555 1_555
C4 C2 1_555 1_555
H2 C4 1_555 1_555
C5 O3 1_555 1_555
C6 C5 1_555 1_555
C7 C6 1_555 1_555
H3 C7 1_555 1_555
C8 C6 1_555 1_555
H4 C8 1_555 1_555
C9 O5 1_555 1_555
C10 C9 1_555 1_555
C11 C10 1_555 1_555
H5 C11 1_555 1_555
C12 C11 1_555 1_555
H6 C12 1_555 1_555
C13 C12 1_555 1_555
C14 C13 1_555 1_555
H7 C14 1_555 1_555
C15 C10 1_555 1_555
H8 C15 1_555 1_555
C16 C13 1_555 1_555
C17 C18 1_555 1_555
C18 H9 1_555 1_555
H10 C18 1_555 1_555
H11 C18 1_555 1_555
C19 N1 1_555 1_555
H12 C19 1_555 1_555
H13 C19 1_555 1_555
H14 C19 1_555 1_555
C20 N1 1_555 1_555
H15 C20 1_555 1_555
H16 C20 1_555 1_555
H17 C20 1_555 1_555
C21 H18 1_555 1_555
H19 C21 1_555 1_555
H20 C21 1_555 1_555
C22 C21 1_555 1_555
C23 N2 1_555 1_555
H21 C23 1_555 1_555
H22 C23 1_555 1_555
H23 C23 1_555 1_555
C24 N2 1_555 1_555
H24 C24 1_555 1_555
H25 C24 1_555 1_555
H26 C24 1_555 1_555
H27 O11 1_555 1_555
H28 O11 1_555 1_555
H29 O12 1_555 1_555
H30 O12 1_555 1_555
Zn1A O1A 1_555 1_555
Zn1_2 O7 1_555 1_555
Zn1A_2 O3A 1_555 1_555
Zn1_3 O5_2 1_555 1_555
Zn2A O2A 1_555 1_555
Zn2_2 O8 1_555 1_555
Zn2A_2 O4A 1_555 1_555
Zn2_3 O6_2 1_555 1_555
O1A C1A 1_555 1_555
O2A C1A 1_555 1_555
O3A C5A 1_555 1_555
O3A_2 Zn1A 1_555 1_555
O4A C5A 1_555 1_555
O4A_2 Zn2A 1_555 1_555
O5_2 C9_2 1_555 1_555
O5A Zn1A 1_555 1_555
O6_2 C9_2 1_555 1_555
O6A Zn2A 1_555 1_555
O7_2 Zn1 1_555 1_555
O7A Zn1A 1_555 1_555
O8_2 Zn2 1_555 1_555
O8A Zn2A 1_555 1_555
O11A Zn1A 1_555 1_555
O12A Zn2A 1_555 1_555
C1A C2A 1_555 1_555
C2A C3A 1_555 1_555
C3A C4 1_555 1_555
H1A C3A 1_555 1_555
C4A C3 1_555 1_555
H2A C4A 1_555 1_555
C5A C6A 1_555 1_555
C6A C7A 1_555 1_555
C7A C8 1_555 1_555
H3A C7A 1_555 1_555
C8A C7 1_555 1_555
H4A C8A 1_555 1_555
C9_2 C10_2 1_555 1_555
C10_2 C11_2 1_555 1_555
C11_2 H5_2 1_555 1_555
C12_2 C11_2 1_555 1_555
H6_2 C12_2 1_555 1_555
C13_2 C12_2 1_555 1_555
C14_2 C13_2 1_555 1_555
H7_2 C14_2 1_555 1_555
C15_2 C10_2 1_555 1_555
H8_2 C15_2 1_555 1_555
C16_2 O7_2 1_555 1_555
H27A O11A 1_555 1_555
H28A O11A 1_555 1_555
H29A O12A 1_555 1_555
H30A O12A 1_555 1_555
O4 C5 1_555 1_555
O6 C9 1_555 1_555
C14 C15 1_555 1_555
O8_2 C16_2 1_555 1_555
C2A C4A 1_555 1_555
C6A C8A 1_555 1_555
C13_2 C16_2 1_555 1_555
C14_2 C15_2 1_555 1_555

#END
