
#######################################################################
#
#                 Cambridge Crystallographic Data Centre
#                                CCDC 
#
#######################################################################
#
# If this CIF has been generated from an entry in the Cambridge 
# Structural Database, then it will include bibliographic, chemical, 
# crystal, experimental, refinement or atomic coordinate data resulting 
# from the CCDC's data processing and validation procedures.
#
#######################################################################

data_HIQVIN01
_symmetry_cell_setting           monoclinic
_symmetry_space_group_name_H-M   'P 21/n'
_symmetry_Int_Tables_number      14
_space_group_name_Hall           '-P 2yn'
loop_
_symmetry_equiv_pos_site_id
_symmetry_equiv_pos_as_xyz
1 x,y,z
2 1/2-x,1/2+y,1/2-z
3 -x,-y,-z
4 1/2+x,1/2-y,1/2+z
_cell_length_a                   8.3090(10)
_cell_length_b                   13.959(2)
_cell_length_c                   10.8150(11)
_cell_angle_alpha                90
_cell_angle_beta                 90.360(10)
_cell_angle_gamma                90
_cell_volume                     1254.36
loop_
_atom_site_label
_atom_site_type_symbol
_atom_site_fract_x
_atom_site_fract_y
_atom_site_fract_z
Cu1 Cu 0.07112(10) -0.07929(7) 0.01716(8)
Cu2 Cu 0.44949(10) 0.11073(6) 0.25882(8)
N1 N 0.2486(9) 0.0987(5) 0.1305(6)
C1 C 0.1473(11) 0.0599(6) 0.0822(8)
N2 N 0.3611(9) -0.1279(4) -0.1509(6)
C2 C 0.2478(11) -0.1159(5) -0.0931(8)
N3 N 0.0439(7) -0.2544(5) 0.1887(6)
C3 C 0.0431(9) -0.1814(7) 0.1383(7)
N4 N 0.4705(7) -0.0342(4) 0.2508(5)
N5 N 0.3202(7) 0.0713(4) 0.4111(6)
C4 C 0.3979(8) -0.0839(5) 0.3400(7)
C5 C 0.4027(10) -0.1811(6) 0.3432(7)
H1 H 0.3533 -0.2145 0.4082
C6 C 0.4802(10) -0.2307(6) 0.2508(8)
H2 H 0.484 -0.298 0.2515
C7 C 0.5520(9) -0.1793(6) 0.1574(7)
H3 H 0.604 -0.211 0.0922
C8 C 0.5465(10) -0.0825(6) 0.1610(8)
H4 H 0.598 -0.0477 0.0983
C9 C 0.3149(8) -0.0229(6) 0.4318(7)
C10 C 0.2338(9) -0.0591(6) 0.5349(8)
H5 H 0.2318 -0.1253 0.5505
C11 C 0.1567(9) 0.0038(6) 0.6132(7)
H6 H 0.1017 -0.0195 0.6827
C12 C 0.1606(10) 0.0999(6) 0.5897(8)
H7 H 0.1073 0.1434 0.6417
C13 C 0.2447(10) 0.1318(6) 0.4879(7)
H8 H 0.2492 0.1979 0.4718
Cu1B Cu -0.07112(10) 0.07929(7) -0.01716(8)
Cu2B Cu 0.55051(10) -0.11073(6) -0.25882(8)
Cu2A Cu 0.05051(10) -0.38927(6) 0.24118(8)
C1B C -0.1473(11) -0.0599(6) -0.0822(8)
N2B N 0.6389(9) 0.1279(4) 0.1509(6)
N3A N 0.4561(7) 0.2456(5) 0.3113(6)
loop_
_geom_bond_atom_site_label_1
_geom_bond_atom_site_label_2
_geom_bond_site_symmetry_1
_geom_bond_site_symmetry_2
Cu1 C1 1_555 1_555
Cu2 N1 1_555 1_555
N1 C1 1_555 1_555
C1 Cu1B 1_555 1_555
N2 C2 1_555 1_555
C2 Cu1 1_555 1_555
N3 C3 1_555 1_555
C3 Cu1 1_555 1_555
N4 Cu2 1_555 1_555
N5 Cu2 1_555 1_555
C4 N4 1_555 1_555
C5 C4 1_555 1_555
H1 C5 1_555 1_555
C6 C5 1_555 1_555
H2 C6 1_555 1_555
C7 C6 1_555 1_555
H3 C7 1_555 1_555
C8 N4 1_555 1_555
H4 C8 1_555 1_555
C9 N5 1_555 1_555
C10 C9 1_555 1_555
H5 C10 1_555 1_555
C11 C10 1_555 1_555
H6 C11 1_555 1_555
C12 C11 1_555 1_555
H7 C12 1_555 1_555
C13 N5 1_555 1_555
H8 C13 1_555 1_555
Cu1B C1B 1_555 1_555
Cu2B N2 1_555 1_555
Cu2A N3 1_555 1_555
C1B Cu1 1_555 1_555
N2B Cu2 1_555 1_555
N3A Cu2 1_555 1_555
C4 C9 1_555 1_555
C7 C8 1_555 1_555
C12 C13 1_555 1_555

#END
