
#######################################################################
#
#                 Cambridge Crystallographic Data Centre
#                                CCDC 
#
#######################################################################
#
# If this CIF has been generated from an entry in the Cambridge 
# Structural Database, then it will include bibliographic, chemical, 
# crystal, experimental, refinement or atomic coordinate data resulting 
# from the CCDC's data processing and validation procedures.
#
#######################################################################

data_HIQVIN
_symmetry_cell_setting           monoclinic
_symmetry_space_group_name_H-M   'P 21/n'
_symmetry_Int_Tables_number      14
_space_group_name_Hall           '-P 2yn'
loop_
_symmetry_equiv_pos_site_id
_symmetry_equiv_pos_as_xyz
1 x,y,z
2 1/2-x,1/2+y,1/2-z
3 -x,-y,-z
4 1/2+x,1/2-y,1/2+z
_cell_length_a                   8.3009(17)
_cell_length_b                   13.972(3)
_cell_length_c                   10.814(2)
_cell_angle_alpha                90
_cell_angle_beta                 90.27(3)
_cell_angle_gamma                90
_cell_volume                     1254.2
loop_
_atom_site_label
_atom_site_type_symbol
_atom_site_fract_x
_atom_site_fract_y
_atom_site_fract_z
Cu1 Cu 0.07091(5) 0.42052(3) 0.51708(3)
Cu2 Cu 0.44880(5) 0.61074(3) 0.75886(3)
N1 N 0.3200(3) 0.57131(19) 0.9116(2)
N2 N 0.4729(3) 0.46640(18) 0.7511(2)
N3 N 0.2456(4) 0.59756(19) 0.6310(3)
C1 C 0.2496(4) 0.3838(2) 0.4065(3)
C2 C 0.0437(4) 0.3177(2) 0.6380(3)
C3 C 0.2443(4) 0.6312(3) 0.9891(3)
H1 H 0.2484 0.6967 0.9738
C4 C 0.1606(4) 0.5987(3) 1.0907(3)
H2 H 0.1075 0.6415 1.1423
C5 C 0.1570(5) 0.5032(3) 1.1144(3)
H3 H 0.1024 0.4801 1.1830
C6 C 0.2352(5) 0.4403(3) 1.0356(3)
H4 H 0.2345 0.3749 1.0511
C7 C 0.3145(4) 0.4766(2) 0.9334(3)
C8 C 0.3988(4) 0.4166(2) 0.8423(3)
C9 C 0.4030(5) 0.3175(2) 0.8446(3)
H5 H 0.3535 0.2841 0.9083
C10 C 0.4813(5) 0.2692(2) 0.7519(4)
H6 H 0.4853 0.2027 0.7525
C11 C 0.5534(5) 0.3196(3) 0.6583(4)
H7 H 0.6056 0.2880 0.5944
C12 C 0.5469(5) 0.4182(2) 0.6612(3)
H8 H 0.5960 0.4525 0.5980
C13 C 0.1443(4) 0.5593(2) 0.5813(3)
N4 N 0.3625(4) 0.37243(19) 0.3484(3)
N5 N 0.0438(4) 0.2456(2) 0.6877(3)
Cu1B Cu -0.07091(5) 0.57948(3) 0.48292(3)
Cu2B Cu 0.55120(5) 0.38926(3) 0.24114(3)
Cu2A Cu 0.05120(5) 0.11074(3) 0.74114(3)
C13B C -0.1443(4) 0.4407(2) 0.4187(3)
N4B N 0.6375(4) 0.62757(19) 0.6516(3)
N5A N 0.4562(4) 0.7456(2) 0.8123(3)
loop_
_geom_bond_atom_site_label_1
_geom_bond_atom_site_label_2
_geom_bond_site_symmetry_1
_geom_bond_site_symmetry_2
Cu1 C1 1_555 1_555
Cu2 N1 1_555 1_555
N1 C3 1_555 1_555
N2 Cu2 1_555 1_555
N3 Cu2 1_555 1_555
C1 N4 1_555 1_555
C2 Cu1 1_555 1_555
C3 H1 1_555 1_555
C4 C3 1_555 1_555
H2 C4 1_555 1_555
C5 C4 1_555 1_555
H3 C5 1_555 1_555
C6 C5 1_555 1_555
H4 C6 1_555 1_555
C7 N1 1_555 1_555
C8 N2 1_555 1_555
C9 C8 1_555 1_555
H5 C9 1_555 1_555
C10 C9 1_555 1_555
H6 C10 1_555 1_555
C11 C10 1_555 1_555
H7 C11 1_555 1_555
C12 N2 1_555 1_555
H8 C12 1_555 1_555
C13 Cu1 1_555 1_555
N4 Cu2B 1_555 1_555
N5 C2 1_555 1_555
Cu1B C13 1_555 1_555
Cu2A N5 1_555 1_555
C13B Cu1 1_555 1_555
N4B Cu2 1_555 1_555
N5A Cu2 1_555 1_555
N3 C13 1_555 1_555
C6 C7 1_555 1_555
C7 C8 1_555 1_555
C11 C12 1_555 1_555
Cu1B C13B 1_555 1_555

#END
