
#######################################################################
#
#                 Cambridge Crystallographic Data Centre
#                                CCDC 
#
#######################################################################
#
# If this CIF has been generated from an entry in the Cambridge 
# Structural Database, then it will include bibliographic, chemical, 
# crystal, experimental, refinement or atomic coordinate data resulting 
# from the CCDC's data processing and validation procedures.
#
#######################################################################

data_HIQVUZ01
_symmetry_cell_setting           triclinic
_symmetry_space_group_name_H-M   'P -1'
_symmetry_Int_Tables_number      2
_space_group_name_Hall           '-P 1'
loop_
_symmetry_equiv_pos_site_id
_symmetry_equiv_pos_as_xyz
1 x,y,z
2 -x,-y,-z
_cell_length_a                   6.9787(3)
_cell_length_b                   10.1257(5)
_cell_length_c                   10.8955(5)
_cell_angle_alpha                70.4360(10)
_cell_angle_beta                 74.0180(10)
_cell_angle_gamma                76.7500(10)
_cell_volume                     689.409
loop_
_atom_site_label
_atom_site_type_symbol
_atom_site_fract_x
_atom_site_fract_y
_atom_site_fract_z
Zn1 Zn 0.32623(3) 0.42173(2) 0.55518(2)
O1 O 0.3366(4) 0.4428(3) 0.36062(17)
O2 O 0.5999(3) 0.5543(3) 0.28761(19)
O3 O 0.5435(3) 0.2518(2) 0.5526(3)
O4 O 0.8022(3) 0.36796(19) 0.4880(3)
O6 O 0.0812(3) 0.3369(2) 0.6502(2)
C1 C 0.6437(4) 0.5518(3) 0.0286(2)
H1 H 0.7404 0.5870 0.0478
C2 C 0.4851(4) 0.5003(3) 0.1299(2)
C3 C 0.3400(4) 0.4486(3) 0.1011(2)
H2 H 0.2325 0.4144 0.1683
C4 C 0.4723(4) 0.4998(2) 0.2706(2)
C5 C 0.7942(3) -0.0011(2) 0.5388(2)
H3 H 0.6557 -0.0017 0.5650
C6 C 0.8694(3) 0.1242(2) 0.5103(2)
C7 C 1.0766(3) 0.1249(2) 0.4713(2)
H4 H 1.1281 0.2082 0.4521
C8 C 0.7265(3) 0.2583(2) 0.5176(2)
H14 H 0.068(5) 0.306(4) 0.727(4)
H15 H 0.008(7) 0.352(5) 0.620(5)
Zn1A Zn 0.67377(3) 0.57827(2) -0.55518(2)
Zn1A_2 Zn 0.67377(3) 0.57827(2) 0.44482(2)
Zn1_2 Zn 0.32623(3) 0.42173(2) -0.44482(2)
Zn1A_3 Zn 1.67377(3) -0.42173(2) 0.44482(2)
Zn1_3 Zn 1.32623(3) -0.57827(2) 0.55518(2)
O1A O 0.6634(4) 0.5572(3) -0.36062(17)
O2A O 0.4001(3) 0.4457(3) -0.28761(19)
O2A_2 O 0.4001(3) 0.4457(3) 0.71239(19)
O2_2 O 0.5999(3) 0.5543(3) -0.71239(19)
O3A O 1.4565(3) -0.2518(2) 0.4474(3)
O3A_2 O 0.4565(3) 0.7482(2) -0.5526(3)
O4A O 1.1978(3) -0.36796(19) 0.5120(3)
O4A_2 O 0.1978(3) 0.63204(19) 0.5120(3)
O4_2 O 0.8022(3) 0.36796(19) -0.5120(3)
O6A O 0.9188(3) 0.6631(2) -0.6502(2)
C1A C 0.3563(4) 0.4482(3) -0.0286(2)
H1A H 0.2596 0.4130 -0.0478
C2A C 0.5149(4) 0.4997(3) -0.1299(2)
C3A C 0.6600(4) 0.5514(3) -0.1011(2)
H2A H 0.7675 0.5856 -0.1683
C4A C 0.5277(4) 0.5002(2) -0.2706(2)
C5A C 1.2058(3) 0.0011(2) 0.4612(2)
H3A H 1.3443 0.0017 0.4350
C6A C 1.1306(3) -0.1242(2) 0.4897(2)
C7A C 0.9234(3) -0.1249(2) 0.5287(2)
H4A H 0.8719 -0.2082 0.5479
C8A C 1.2735(3) -0.2583(2) 0.4824(2)
H14A H 0.932(5) 0.694(4) -0.727(4)
H15A H 0.992(7) 0.648(5) -0.620(5)
O5 O 0.0075(4) 0.2331(3) 0.9086(2)
C9 C -0.1409(7) 0.1716(4) 0.9751(4)
C10 C -0.2667(7) 0.1223(5) 0.9095(5)
H5 H -0.2058 0.1380 0.8163
H6 H -0.4005 0.1748 0.9196
H7 H -0.2731 0.0231 0.9511
C11 C -0.0735(8) 0.2028(6) 1.1650(4)
H8 H 0.0343 0.2459 1.0983
H9 H -0.0187 0.1253 1.2315
H10 H -0.1604 0.2718 1.2060
C12 C -0.3599(9) 0.0759(7) 1.1882(5)
H11 H -0.4463 0.0718 1.1350
H12 H -0.4350 0.1266 1.2511
H13 H -0.3089 -0.0186 1.2354
N1 N -0.1912(6) 0.1490(4) 1.1015(4)
loop_
_geom_bond_atom_site_label_1
_geom_bond_atom_site_label_2
_geom_bond_site_symmetry_1
_geom_bond_site_symmetry_2
Zn1 O1 1_555 1_555
O1 C4 1_555 1_555
O2 C4 1_555 1_555
O3 Zn1 1_555 1_555
O4 C8 1_555 1_555
O5 C9 1_555 1_555
O6 Zn1 1_555 1_555
C1 H1 1_555 1_555
C2 C1 1_555 1_555
C3 C2 1_555 1_555
H2 C3 1_555 1_555
C4 C2 1_555 1_555
C5 H3 1_555 1_555
C6 C5 1_555 1_555
C7 C6 1_555 1_555
H4 C7 1_555 1_555
C8 O3 1_555 1_555
C9 C10 1_555 1_555
C10 H5 1_555 1_555
H6 C10 1_555 1_555
H7 C10 1_555 1_555
C11 H8 1_555 1_555
H9 C11 1_555 1_555
H10 C11 1_555 1_555
C12 H11 1_555 1_555
H12 C12 1_555 1_555
H13 C12 1_555 1_555
N1 C9 1_555 1_555
H14 O6 1_555 1_555
H15 O6 1_555 1_555
Zn1A Zn1_2 1_555 1_555
Zn1A_2 Zn1 1_555 1_555
Zn1_2 O2A 1_555 1_555
Zn1A_3 Zn1_3 1_555 1_555
Zn1_3 O4A 1_555 1_555
O1A Zn1A 1_555 1_555
O2A C4A 1_555 1_555
O2A_2 Zn1 1_555 1_555
O2_2 Zn1A 1_555 1_555
O3A Zn1A_3 1_555 1_555
O3A_2 Zn1A 1_555 1_555
O4A C8A 1_555 1_555
O4A_2 Zn1 1_555 1_555
O4_2 Zn1A 1_555 1_555
O6A Zn1A 1_555 1_555
C1A C3 1_555 1_555
H1A C1A 1_555 1_555
C2A C1A 1_555 1_555
C3A C1 1_555 1_555
H2A C3A 1_555 1_555
C4A O1A 1_555 1_555
C5A C7 1_555 1_555
H3A C5A 1_555 1_555
C6A C5A 1_555 1_555
C7A C5 1_555 1_555
H4A C7A 1_555 1_555
C8A O3A 1_555 1_555
H14A O6A 1_555 1_555
H15A O6A 1_555 1_555
O2 Zn1A_2 1_555 1_555
O4 Zn1A_2 1_555 1_555
C6 C8 1_555 1_555
C11 N1 1_555 1_555
C12 N1 1_555 1_555
C2A C3A 1_555 1_555
C2A C4A 1_555 1_555
C6A C7A 1_555 1_555
C6A C8A 1_555 1_555

#END
