
#######################################################################
#
#                 Cambridge Crystallographic Data Centre
#                                CCDC 
#
#######################################################################
#
# If this CIF has been generated from an entry in the Cambridge 
# Structural Database, then it will include bibliographic, chemical, 
# crystal, experimental, refinement or atomic coordinate data resulting 
# from the CCDC's data processing and validation procedures.
#
#######################################################################

data_HIQVOT
_symmetry_cell_setting           triclinic
_symmetry_space_group_name_H-M   'P -1'
_symmetry_Int_Tables_number      2
_space_group_name_Hall           '-P 1'
loop_
_symmetry_equiv_pos_site_id
_symmetry_equiv_pos_as_xyz
1 x,y,z
2 -x,-y,-z
_cell_length_a                   10.727(2)
_cell_length_b                   10.960(2)
_cell_length_c                   13.375(3)
_cell_angle_alpha                92.85(3)
_cell_angle_beta                 108.06(3)
_cell_angle_gamma                96.34(3)
_cell_volume                     1479.98
loop_
_atom_site_label
_atom_site_type_symbol
_atom_site_fract_x
_atom_site_fract_y
_atom_site_fract_z
C1 C 0.6637(2) 0.6060(2) 0.37389(18)
H1 H 0.6025 0.6403 0.3992
C2 C 0.6826(2) 0.6458(2) 0.28126(19)
H2 H 0.6325 0.7038 0.2458
C3 C 0.7738(2) 0.6007(2) 0.24197(18)
C4 C 0.8459(2) 0.5097(2) 0.29766(16)
C5 C 0.81712(19) 0.4713(2) 0.38772(16)
C6 C 0.88064(19) 0.3725(2) 0.44245(16)
C7 C 0.9048(2) 0.2453(2) 0.57706(19)
H3 H 0.8858 0.2229 0.6374
C8 C 0.9903(2) 0.1811(2) 0.54251(19)
H4 H 1.0253 0.1161 0.5788
C9 C 1.0240(2) 0.2131(2) 0.45465(17)
C10 C 0.97134(19) 0.3157(2) 0.40378(16)
C11 C 1.0081(2) 0.3666(2) 0.31927(17)
H5 H 1.0743 0.3356 0.2983
C12 C 0.9485(2) 0.4592(2) 0.26896(17)
H6 H 0.9750 0.4907 0.2144
C13 C 0.7934(2) 0.6468(2) 0.14384(18)
C14 C 0.7898(3) 0.5666(3) 0.05885(19)
H7 H 0.7792 0.4820 0.0639
C15 C 0.8017(3) 0.6114(3) -0.0337(2)
H8 H 0.7994 0.5569 -0.0900
C16 C 0.8167(3) 0.7360(3) -0.0418(2)
H9 H 0.8234 0.7657 -0.1041
C17 C 0.8220(3) 0.8167(3) 0.0410(3)
H10 H 0.8343 0.9012 0.0355
C18 C 0.8088(3) 0.7724(3) 0.1345(2)
H11 H 0.8104 0.8276 0.1901
C19 C 1.1120(2) 0.1413(2) 0.4157(2)
C20 C 1.2313(3) 0.1185(2) 0.4854(2)
H12 H 1.2549 0.1472 0.5563
C21 C 1.3154(3) 0.0535(3) 0.4503(3)
H13 H 1.3956 0.0395 0.4975
C22 C 1.0767(3) 0.0942(3) 0.3104(2)
H14 H 0.9963 0.1071 0.2628
C23 C 0.7171(2) 0.3036(2) 0.75097(18)
C24 C 0.7178(2) 0.2417(2) 0.84919(17)
C25 C 0.8257(2) 0.2671(3) 0.9397(2)
H15 H 0.9009 0.3168 0.9379
C26 C 0.8232(3) 0.2194(3) 1.0335(2)
H16 H 0.8966 0.2353 1.0940
C27 C 0.7100(3) 0.1480(2) 1.03528(19)
C28 C 0.6038(3) 0.1172(3) 0.9450(2)
H17 H 0.5299 0.0652 0.9465
C29 C 0.6081(2) 0.1646(2) 0.85146(19)
H18 H 0.5366 0.1443 0.7901
C30 C 0.6376(2) 0.1703(2) 1.18442(18)
C31 C 0.5706(3) 0.2679(3) 1.14457(18)
H19 H 0.5706 0.2943 1.0796
C32 C 0.5040(2) 0.3251(2) 1.20322(17)
H20 H 0.4566 0.3885 1.1758
C33 C 0.5063(2) 0.2900(2) 1.30192(17)
C34 C 0.5775(2) 0.1941(2) 1.34149(17)
H21 H 0.5822 0.1707 1.4083
C35 C 0.6408(2) 0.1339(2) 1.28275(18)
H22 H 0.6858 0.0686 1.3091
C36 C 0.4414(2) 0.3591(2) 1.36633(18)
C37 C 1.1620(4) 0.0279(3) 0.2767(3)
H23 H 1.1381 -0.0041 0.2067
C38 C 1.2814(4) 0.0098(3) 0.3466(3)
H24 H 1.3392 -0.0324 0.3232
N1 N 0.72926(17) 0.52138(18) 0.42724(14)
N2 N 0.84895(18) 0.33720(18) 0.52780(14)
O1 O 0.61682(18) 0.27675(19) 0.66971(14)
O2 O 0.81336(18) 0.3792(2) 0.75375(15)
O3 O 0.7058(2) 0.10611(19) 1.13135(14)
O4 O 0.48556(16) 0.3603(2) 1.46570(13)
O5 O 0.34624(19) 0.41474(19) 1.31991(14)
Cd1 Cd 0.690321(14) 0.434330(16) 0.577806(12)
O4_2 O 0.48556(16) 0.3603(2) 0.46570(13)
O5A O 0.65376(19) 0.58526(19) 0.68009(14)
Cd1_2 Cd 0.690321(14) 0.434330(16) 1.577806(12)
Cd1A Cd 0.309679(14) 0.565670(16) 1.422194(12)
loop_
_geom_bond_atom_site_label_1
_geom_bond_atom_site_label_2
_geom_bond_site_symmetry_1
_geom_bond_site_symmetry_2
C1 H1 1_555 1_555
C2 C1 1_555 1_555
H2 C2 1_555 1_555
C3 C2 1_555 1_555
C4 C3 1_555 1_555
C5 C4 1_555 1_555
C6 C5 1_555 1_555
C7 H3 1_555 1_555
C8 C7 1_555 1_555
H4 C8 1_555 1_555
C9 C8 1_555 1_555
C10 C6 1_555 1_555
C11 C10 1_555 1_555
H5 C11 1_555 1_555
C12 C4 1_555 1_555
H6 C12 1_555 1_555
C13 C3 1_555 1_555
C14 C13 1_555 1_555
H7 C14 1_555 1_555
C15 C14 1_555 1_555
H8 C15 1_555 1_555
C16 C15 1_555 1_555
H9 C16 1_555 1_555
C17 C16 1_555 1_555
H10 C17 1_555 1_555
C18 C13 1_555 1_555
H11 C18 1_555 1_555
C19 C9 1_555 1_555
C20 C19 1_555 1_555
H12 C20 1_555 1_555
C21 C20 1_555 1_555
H13 C21 1_555 1_555
C22 C19 1_555 1_555
H14 C22 1_555 1_555
C23 C24 1_555 1_555
C24 C25 1_555 1_555
C25 H15 1_555 1_555
C26 C25 1_555 1_555
H16 C26 1_555 1_555
C27 C26 1_555 1_555
C28 C27 1_555 1_555
H17 C28 1_555 1_555
C29 C24 1_555 1_555
H18 C29 1_555 1_555
C30 C31 1_555 1_555
C31 H19 1_555 1_555
C32 C31 1_555 1_555
H20 C32 1_555 1_555
C33 C32 1_555 1_555
C34 C33 1_555 1_555
H21 C34 1_555 1_555
C35 C30 1_555 1_555
H22 C35 1_555 1_555
C36 C33 1_555 1_555
C37 C22 1_555 1_555
H23 C37 1_555 1_555
C38 C21 1_555 1_555
H24 C38 1_555 1_555
N1 C1 1_555 1_555
N2 C6 1_555 1_555
O1 C23 1_555 1_555
O2 C23 1_555 1_555
O3 C27 1_555 1_555
O4 C36 1_555 1_555
O5 C36 1_555 1_555
Cd1 N1 1_555 1_555
O4_2 Cd1 1_555 1_555
O5A Cd1 1_555 1_555
Cd1_2 O4 1_555 1_555
Cd1A O5 1_555 1_555
C5 N1 1_555 1_555
C7 N2 1_555 1_555
C9 C10 1_555 1_555
C11 C12 1_555 1_555
C17 C18 1_555 1_555
C28 C29 1_555 1_555
C30 O3 1_555 1_555
C34 C35 1_555 1_555
C37 C38 1_555 1_555
N2 Cd1 1_555 1_555
O1 Cd1 1_555 1_555
O2 Cd1 1_555 1_555

#END
