
#######################################################################
#
#                 Cambridge Crystallographic Data Centre
#                                CCDC 
#
#######################################################################
#
# If this CIF has been generated from an entry in the Cambridge 
# Structural Database, then it will include bibliographic, chemical, 
# crystal, experimental, refinement or atomic coordinate data resulting 
# from the CCDC's data processing and validation procedures.
#
#######################################################################

data_HIQXEM
_symmetry_cell_setting           monoclinic
_symmetry_space_group_name_H-M   'P 21/n'
_symmetry_Int_Tables_number      14
_space_group_name_Hall           '-P 2yn'
loop_
_symmetry_equiv_pos_site_id
_symmetry_equiv_pos_as_xyz
1 x,y,z
2 1/2-x,1/2+y,1/2-z
3 -x,-y,-z
4 1/2+x,1/2-y,1/2+z
_cell_length_a                   6.0700(3)
_cell_length_b                   7.1073(4)
_cell_length_c                   24.2183(13)
_cell_angle_alpha                90
_cell_angle_beta                 94.035(5)
_cell_angle_gamma                90
_cell_volume                     1042.22
loop_
_atom_site_label
_atom_site_type_symbol
_atom_site_fract_x
_atom_site_fract_y
_atom_site_fract_z
Cs1 Cs 0.25378(4) 0.19824(4) 0.47189(1)
O1 O 0.2785(5) 0.5049(5) 0.56462(14)
O2 O 0.7695(5) 0.2283(5) 0.51753(15)
O3 O 0.3802(5) 0.0475(5) 0.10793(14)
O4 O 0.0968(5) -0.0945(5) 0.14338(15)
O5 O 0.6184(7) -0.0192(5) 0.40379(16)
O6 O 0.9117(7) 0.0828(7) 0.36824(17)
N1 N 0.7213(7) 0.0261(6) 0.36407(17)
C1 C 0.4023(7) -0.0137(5) 0.20429(19)
C2 C 0.6135(7) 0.0617(6) 0.2120(2)
C3 C 0.7195(7) 0.0745(6) 0.26440(19)
C4 C 0.6093(7) 0.0113(6) 0.30818(19)
C5 C 0.4009(7) -0.0646(6) 0.30250(19)
C6 C 0.2985(7) -0.0777(6) 0.25023(19)
C7 C 0.2830(7) -0.0201(6) 0.1477(2)
H1 H 0.68620 0.10490 0.18090
H2 H 0.86400 0.12560 0.26980
H3 H 0.32940 -0.10700 0.33390
H4 H 0.15490 -0.13100 0.24530
H5 H 0.37890 0.53710 0.58680
H6 H 0.14960 0.48830 0.58230
H7 H 0.72670 0.30190 0.49470
H8 H 0.79800 0.29200 0.54650
Cs1_2 Cs 1.25378(4) 0.19824(4) 0.47189(1)
Cs1A Cs 0.24622(4) -0.30176(4) 0.02811(1)
Cs1B Cs 0.74622(4) -0.19824(4) 0.52811(1)
O2_2 O -0.2305(5) 0.2283(5) 0.51753(15)
O2B O 0.2305(5) -0.2283(5) 0.48247(15)
O3A O 0.1198(5) 0.5475(5) 0.39207(14)
O4A O 0.4032(5) 0.4055(5) 0.35662(15)
O5B O 0.3816(7) 0.0192(5) 0.59621(16)
O6_2 O -0.0883(7) 0.0828(7) 0.36824(17)
loop_
_geom_bond_atom_site_label_1
_geom_bond_atom_site_label_2
_geom_bond_site_symmetry_1
_geom_bond_site_symmetry_2
Cs1 O1 1_555 1_555
O1 H5 1_555 1_555
O2 Cs1 1_555 1_555
O3 C7 1_555 1_555
O4 C7 1_555 1_555
O5 Cs1 1_555 1_555
O6 N1 1_555 1_555
N1 O5 1_555 1_555
C1 C2 1_555 1_555
C2 C3 1_555 1_555
C3 C4 1_555 1_555
C4 N1 1_555 1_555
C5 C4 1_555 1_555
C6 C1 1_555 1_555
C7 C1 1_555 1_555
H1 C2 1_555 1_555
H2 C3 1_555 1_555
H3 C5 1_555 1_555
H4 C6 1_555 1_555
H6 O1 1_555 1_555
H7 O2 1_555 1_555
H8 O2 1_555 1_555
Cs1_2 O2 1_555 1_555
Cs1A O3 1_555 1_555
Cs1B O2 1_555 1_555
O2_2 Cs1 1_555 1_555
O2B Cs1 1_555 1_555
O3A Cs1 1_555 1_555
O4A Cs1 1_555 1_555
O5B Cs1 1_555 1_555
O6_2 Cs1 1_555 1_555
O4 Cs1A 1_555 1_555
O5 Cs1B 1_555 1_555
O6 Cs1_2 1_555 1_555
C5 C6 1_555 1_555
Cs1B O2B 1_555 1_555
Cs1B O5B 1_555 1_555

#END
