
#######################################################################
#
#                 Cambridge Crystallographic Data Centre
#                                CCDC 
#
#######################################################################
#
# If this CIF has been generated from an entry in the Cambridge 
# Structural Database, then it will include bibliographic, chemical, 
# crystal, experimental, refinement or atomic coordinate data resulting 
# from the CCDC's data processing and validation procedures.
#
#######################################################################

data_HIQYOW
_symmetry_cell_setting           triclinic
_symmetry_space_group_name_H-M   'P -1'
_symmetry_Int_Tables_number      2
_space_group_name_Hall           '-P 1'
loop_
_symmetry_equiv_pos_site_id
_symmetry_equiv_pos_as_xyz
1 x,y,z
2 -x,-y,-z
_cell_length_a                   7.0051(14)
_cell_length_b                   9.7371(19)
_cell_length_c                   11.201(2)
_cell_angle_alpha                112.88(3)
_cell_angle_beta                 95.63(3)
_cell_angle_gamma                100.18(3)
_cell_volume                     680.996
loop_
_atom_site_label
_atom_site_type_symbol
_atom_site_fract_x
_atom_site_fract_y
_atom_site_fract_z
Ba1 Ba 0.600166(14) 0.757213(11) 0.602839(10)
O1 O 0.4232(3) 0.72415(16) 0.35817(16)
O2 O 0.1915(2) 0.69116(18) 0.61729(16)
H1 H 0.134(4) 0.748(3) 0.6738(19)
H2 H 0.109(3) 0.672(3) 0.5494(17)
O3 O 0.3509(2) 0.49709(16) 0.36455(14)
O4 O 0.8518(2) 0.62065(18) 0.43111(15)
H3 H 0.867(4) 0.645(3) 0.371(2)
H4 H 0.825(4) 0.5260(19) 0.401(2)
O5 O 0.0848(3) 0.28461(19) -0.23870(15)
O6 O 0.4998(3) 0.8244(2) 0.85769(16)
H5 H 0.572(4) 0.856(3) 0.929(2)
H6 H 0.415(3) 0.879(3) 0.871(3)
O7 O 0.2545(2) 0.04168(17) -0.10934(15)
O8 O 0.8181(3) 0.9993(2) 0.5519(2)
H7 H 0.929(3) 1.000(3) 0.545(3)
H8 H 0.805(4) 1.083(2) 0.592(3)
O9 O -0.0335(2) -0.11523(16) -0.22398(15)
O10 O 0.4634(4) 1.0222(2) 0.6837(2)
H9 H 0.494(5) 1.105(3) 0.677(3)
H10 H 0.404(5) 1.038(4) 0.745(3)
N1 N 0.0942(2) 0.29402(17) -0.03292(15)
C1 C 0.3557(3) 0.5812(2) 0.30310(19)
C2 C 0.1429(3) 0.3611(2) -0.11786(19)
C3 C -0.0354(3) 0.1403(2) -0.0908(2)
H11 H -0.1350 0.1337 -0.1606
H12 H -0.1026 0.1245 -0.0239
C4 C 0.2792(3) 0.5095(2) 0.15796(19)
C5 C 0.2571(3) 0.5157(2) -0.0563(2)
H13 H 0.2876 0.5688 -0.1079
C6 C 0.3217(3) 0.5864(2) 0.0757(2)
H14 H 0.3953 0.6873 0.1131
C7 C 0.0716(3) 0.0126(2) -0.14697(18)
C8 C 0.1647(3) 0.3642(2) 0.09955(18)
H15 H 0.1336 0.3113 0.1513
Ba1A Ba 0.399834(14) 0.242787(11) 0.397161(10)
Ba1_2 Ba -0.399834(14) -0.242787(11) -0.397161(10)
O3A O 0.6491(2) 0.50291(16) 0.63545(14)
O9_2 O 0.9665(2) 0.88477(16) 0.77602(15)
loop_
_geom_bond_atom_site_label_1
_geom_bond_atom_site_label_2
_geom_bond_site_symmetry_1
_geom_bond_site_symmetry_2
Ba1 O1 1_555 1_555
O1 C1 1_555 1_555
O2 Ba1 1_555 1_555
H1 O2 1_555 1_555
H2 O2 1_555 1_555
O3 Ba1 1_555 1_555
O4 Ba1 1_555 1_555
H3 O4 1_555 1_555
H4 O4 1_555 1_555
O5 C2 1_555 1_555
O6 Ba1 1_555 1_555
H5 O6 1_555 1_555
H6 O6 1_555 1_555
O7 C7 1_555 1_555
O8 Ba1 1_555 1_555
H7 O8 1_555 1_555
H8 O8 1_555 1_555
O9 C7 1_555 1_555
O10 Ba1 1_555 1_555
H9 O10 1_555 1_555
H10 O10 1_555 1_555
N1 C2 1_555 1_555
C1 O3 1_555 1_555
C2 C5 1_555 1_555
C3 N1 1_555 1_555
H11 C3 1_555 1_555
H12 C3 1_555 1_555
C4 C1 1_555 1_555
C5 H13 1_555 1_555
C6 C4 1_555 1_555
H14 C6 1_555 1_555
C7 C3 1_555 1_555
C8 N1 1_555 1_555
H15 C8 1_555 1_555
Ba1A O3 1_555 1_555
Ba1_2 O9 1_555 1_555
O3A Ba1 1_555 1_555
O9_2 Ba1 1_555 1_555
C4 C8 1_555 1_555
C5 C6 1_555 1_555
Ba1A O3A 1_555 1_555

#END
