
#######################################################################
#
#                 Cambridge Crystallographic Data Centre
#                                CCDC 
#
#######################################################################
#
# If this CIF has been generated from an entry in the Cambridge 
# Structural Database, then it will include bibliographic, chemical, 
# crystal, experimental, refinement or atomic coordinate data resulting 
# from the CCDC's data processing and validation procedures.
#
#######################################################################

data_HIQYIQ
_symmetry_cell_setting           orthorhombic
_symmetry_space_group_name_H-M   'P n n a'
_symmetry_Int_Tables_number      52
_space_group_name_Hall           '-P 2a 2bc'
loop_
_symmetry_equiv_pos_site_id
_symmetry_equiv_pos_as_xyz
1 x,y,z
2 1/2-x,-y,z
3 1/2-x,1/2+y,1/2-z
4 x,1/2-y,1/2-z
5 -x,-y,-z
6 1/2+x,y,-z
7 1/2+x,1/2-y,1/2+z
8 -x,1/2+y,1/2+z
_cell_length_a                   20.324(4)
_cell_length_b                   12.057(2)
_cell_length_c                   7.4706(16)
_cell_angle_alpha                90
_cell_angle_beta                 90
_cell_angle_gamma                90
_cell_volume                     1830.64
loop_
_atom_site_label
_atom_site_type_symbol
_atom_site_fract_x
_atom_site_fract_y
_atom_site_fract_z
Cu1 Cu 0.368200(18) -0.04094(4) -0.31828(6)
O1 O 0.32674(11) 0.2225(2) -0.0179(3)
O4 O 0.31742(10) 0.0671(2) -0.1781(3)
O5 O 0.57268(10) 0.3454(2) 0.0840(3)
O6 O 0.64410(11) 0.2053(2) 0.0432(4)
O7 O 0.35862(12) 0.0631(2) -0.5813(4)
H3 H 0.3465(18) 0.1282(18) -0.566(5)
H4 H 0.3250(13) 0.060(3) -0.642(4)
O8 O 0.28811(11) -0.1152(2) -0.3878(4)
H5 H 0.2951(18) -0.1824(17) -0.394(5)
H6 H 0.2606(14) -0.129(3) -0.312(4)
N1 N 0.44252(12) 0.0464(2) -0.2216(4)
C1 C 0.42427(15) 0.1319(3) -0.1148(5)
C2 C 0.46900(15) 0.2009(3) -0.0310(5)
H7 H 0.4546 0.2614 0.0407
C3 C 0.53563(15) 0.1796(3) -0.0546(5)
C4 C 0.55445(15) 0.0921(3) -0.1630(4)
H8 H 0.5997 0.0766 -0.1812
C5 C 0.50722(15) 0.0276(3) -0.2444(5)
H9 H 0.5207 -0.0321 -0.3192
C6 C 0.35013(15) 0.1440(3) -0.0990(5)
C7 C 0.58945(15) 0.2489(3) 0.0317(5)
Cu1G Cu 0.631800(18) 0.45906(4) 0.18172(6)
O5G O 0.42732(10) -0.1546(2) -0.4160(3)
O2 O 0.7500 0.5000 -0.3147(6)
H1 H 0.7590 0.5513 -0.3903
H1A H 0.7410 0.4487 -0.3903
O3 O 0.7243(11) 0.2500 -0.2500
H2 H 0.7513 0.2379 -0.1577
H2C H 0.7513 0.2621 -0.3423
loop_
_geom_bond_atom_site_label_1
_geom_bond_atom_site_label_2
_geom_bond_site_symmetry_1
_geom_bond_site_symmetry_2
Cu1 O4 1_555 1_555
O1 C6 1_555 1_555
O2 H1 1_555 1_555
O3 H2 1_555 1_555
O4 C6 1_555 1_555
O5 C7 1_555 1_555
O6 C7 1_555 1_555
O7 Cu1 1_555 1_555
H3 O7 1_555 1_555
H4 O7 1_555 1_555
O8 Cu1 1_555 1_555
H5 O8 1_555 1_555
H6 O8 1_555 1_555
N1 Cu1 1_555 1_555
C1 N1 1_555 1_555
C2 C1 1_555 1_555
H7 C2 1_555 1_555
C3 C2 1_555 1_555
C4 C3 1_555 1_555
H8 C4 1_555 1_555
C5 N1 1_555 1_555
H9 C5 1_555 1_555
C6 C1 1_555 1_555
C7 C3 1_555 1_555
Cu1G O5 1_555 1_555
H1A O2 1_555 1_555
H2C O3 1_555 1_555
O5G Cu1 1_555 1_555
C4 C5 1_555 1_555

#END
