
#######################################################################
#
#                 Cambridge Crystallographic Data Centre
#                                CCDC 
#
#######################################################################
#
# If this CIF has been generated from an entry in the Cambridge 
# Structural Database, then it will include bibliographic, chemical, 
# crystal, experimental, refinement or atomic coordinate data resulting 
# from the CCDC's data processing and validation procedures.
#
#######################################################################

data_HIRHIZ
_symmetry_cell_setting           monoclinic
_symmetry_space_group_name_H-M   'P 21/n'
_symmetry_Int_Tables_number      14
_space_group_name_Hall           '-P 2yn'
loop_
_symmetry_equiv_pos_site_id
_symmetry_equiv_pos_as_xyz
1 x,y,z
2 1/2+x,1/2-y,1/2+z
3 -x,-y,-z
4 1/2-x,1/2+y,1/2-z
_cell_length_a                   10.907(3)
_cell_length_b                   6.0677(13)
_cell_length_c                   21.620(5)
_cell_angle_alpha                90
_cell_angle_beta                 90.542(4)
_cell_angle_gamma                90
_cell_volume                     1430.76
loop_
_atom_site_label
_atom_site_type_symbol
_atom_site_fract_x
_atom_site_fract_y
_atom_site_fract_z
Br1 Br -0.12161(4) 0.14182(8) 0.23599(2)
Br2 Br -0.44928(4) -0.84138(8) 0.14447(2)
Br3 Br -0.19084(4) -0.35009(8) 0.11240(2)
Cu2 Cu -0.28691(6) -0.08625(12) 0.18149(3)
Cu3 Cu -0.27882(6) -0.61788(11) 0.18282(3)
Br1C Br -0.37839(4) -0.35818(8) 0.26401(2)
Cu2C Cu -0.21309(6) -0.58625(12) 0.31851(3)
Br1_2 Br -0.12161(4) -0.85818(8) 0.23599(2)
Cu2_2 Cu -0.28691(6) -1.08625(12) 0.18149(3)
Br2_2 Br -0.44928(4) 0.15862(8) 0.14447(2)
Cu3_2 Cu -0.27882(6) 0.38212(11) 0.18282(3)
Cu3C Cu -0.22118(6) -1.11788(11) 0.31718(3)
Br3C Br -0.30916(4) -0.85009(8) 0.38760(2)
Br2C Br -0.05072(4) -0.34138(8) 0.35553(2)
Cu3C_2 Cu -0.22118(6) -0.11788(11) 0.31718(3)
Br3C_2 Br -0.30916(4) 0.14991(8) 0.38760(2)
Cu2C_2 Cu -0.21309(6) 0.41375(12) 0.31851(3)
Cu1 Cu -0.41108(5) -0.40845(10) -0.04239(3)
O1 O -0.4789(3) -0.3445(5) 0.03775(15)
H1 H -0.4633(3) -0.2303(5) 0.06541(15)
N1 N -0.2874(3) -0.1707(6) -0.0414(2)
N2 N -0.3092(3) -0.5137(7) -0.1124(2)
C1 C -0.2896(5) 0.0053(8) -0.0046(2)
H2 H -0.3563(5) 0.0254(8) 0.0213(2)
C2 C -0.1950(5) 0.1606(8) -0.0036(2)
H3 H -0.1973(5) 0.2814(8) 0.0228(2)
C3 C -0.0983(4) 0.1289(8) -0.0430(2)
H4 H -0.0343(4) 0.2302(8) -0.0434(2)
C4 C -0.0949(4) -0.0496(8) -0.0816(2)
H5 H -0.0293(4) -0.0706(8) -0.1081(2)
C5 C -0.1921(4) -0.2000(8) -0.0803(2)
C6 C -0.2030(4) -0.3970(8) -0.1200(2)
C7 C -0.1147(4) -0.4671(9) -0.1610(2)
H6 H -0.0421(4) -0.3884(9) -0.1652(2)
C8 C -0.1352(5) -0.6560(9) -0.1959(2)
H7 H -0.0760(5) -0.7065(9) -0.2232(2)
C9 C -0.2448(5) -0.7680(9) -0.1895(2)
H8 H -0.2616(5) -0.8921(9) -0.2134(2)
C10 C -0.3293(5) -0.6925(8) -0.1469(2)
H9 H -0.4025(5) -0.7691(8) -0.1423(2)
Cu1B Cu -0.58892(5) -0.59155(10) 0.04239(3)
O1B O -0.5211(3) -0.6555(5) -0.03775(15)
H1B H -0.5367(3) -0.7697(5) -0.06541(15)
N1B N -0.7126(3) -0.8293(6) 0.0414(2)
C1B C -0.7104(5) -1.0053(8) 0.0046(2)
H2B H -0.6437(5) -1.0254(8) -0.0213(2)
C2B C -0.8050(5) -1.1606(8) 0.0036(2)
H3B H -0.8027(5) -1.2814(8) -0.0228(2)
C3B C -0.9017(4) -1.1289(8) 0.0430(2)
H4B H -0.9657(4) -1.2302(8) 0.0434(2)
C4B C -0.9051(4) -0.9504(8) 0.0816(2)
H5B H -0.9707(4) -0.9294(8) 0.1081(2)
C5B C -0.8079(4) -0.8000(8) 0.0803(2)
C6B C -0.7970(4) -0.6030(8) 0.1200(2)
N2B N -0.6908(3) -0.4863(7) 0.1124(2)
C10B C -0.6707(5) -0.3075(8) 0.1469(2)
C9B C -0.7552(5) -0.2320(9) 0.1895(2)
C8B C -0.8648(5) -0.3440(9) 0.1959(2)
C7B C -0.8853(4) -0.5329(9) 0.1610(2)
H6B H -0.9579(4) -0.6116(9) 0.1652(2)
H7B H -0.9240(5) -0.2935(9) 0.2232(2)
H8B H -0.7384(5) -0.1079(9) 0.2134(2)
H9B H -0.5975(5) -0.2309(8) 0.1423(2)
loop_
_geom_bond_atom_site_label_1
_geom_bond_atom_site_label_2
_geom_bond_site_symmetry_1
_geom_bond_site_symmetry_2
Br1 Cu2 1_555 1_555
Br2 Cu3 1_555 1_555
Br3 Cu2 1_555 1_555
Cu1 O1 1_555 1_555
Cu2 Br1C 1_555 1_555
Cu3 Br3 1_555 1_555
O1 H1 1_555 1_555
N1 Cu1 1_555 1_555
N2 Cu1 1_555 1_555
C1 N1 1_555 1_555
H2 C1 1_555 1_555
C2 C1 1_555 1_555
H3 C2 1_555 1_555
C3 C2 1_555 1_555
H4 C3 1_555 1_555
C4 C3 1_555 1_555
H5 C4 1_555 1_555
C5 N1 1_555 1_555
C6 N2 1_555 1_555
C7 C6 1_555 1_555
H6 C7 1_555 1_555
C8 C7 1_555 1_555
H7 C8 1_555 1_555
C9 C8 1_555 1_555
H8 C9 1_555 1_555
C10 N2 1_555 1_555
H9 C10 1_555 1_555
Br1C Cu3 1_555 1_555
Cu2C Br1C 1_555 1_555
Br1_2 Cu3 1_555 1_555
Cu2_2 Br2 1_555 1_555
Br2_2 Cu2 1_555 1_555
Cu3_2 Br1 1_555 1_555
Cu3C Br1_2 1_555 1_555
Br3C Cu2C 1_555 1_555
Br2C Cu2C 1_555 1_555
Cu3C_2 Br1 1_555 1_555
Br3C_2 Cu3C_2 1_555 1_555
Cu2C_2 Br1 1_555 1_555
Cu1B O1 1_555 1_555
O1B Cu1 1_555 1_555
H1B O1B 1_555 1_555
N1B Cu1B 1_555 1_555
C1B N1B 1_555 1_555
H2B C1B 1_555 1_555
C2B C1B 1_555 1_555
H3B C2B 1_555 1_555
C3B C2B 1_555 1_555
H4B C3B 1_555 1_555
C4B C3B 1_555 1_555
H5B C4B 1_555 1_555
C5B N1B 1_555 1_555
C6B C5B 1_555 1_555
N2B Cu1B 1_555 1_555
C10B N2B 1_555 1_555
C9B C10B 1_555 1_555
C8B C9B 1_555 1_555
C7B C6B 1_555 1_555
H6B C7B 1_555 1_555
H7B C8B 1_555 1_555
H8B C9B 1_555 1_555
H9B C10B 1_555 1_555
C4 C5 1_555 1_555
C5 C6 1_555 1_555
C9 C10 1_555 1_555
Br1C Cu3C_2 1_555 1_555
Cu2C Br1_2 1_555 1_555
Br1_2 Cu2_2 1_555 1_555
Br2_2 Cu3_2 1_555 1_555
Cu3C Br3C 1_555 1_555
Br2C Cu3C_2 1_555 1_555
Br3C_2 Cu2C_2 1_555 1_555
Cu1B O1B 1_555 1_555
C4B C5B 1_555 1_555
C6B N2B 1_555 1_555
C8B C7B 1_555 1_555

#END
