
#######################################################################
#
#                 Cambridge Crystallographic Data Centre
#                                CCDC 
#
#######################################################################
#
# If this CIF has been generated from an entry in the Cambridge 
# Structural Database, then it will include bibliographic, chemical, 
# crystal, experimental, refinement or atomic coordinate data resulting 
# from the CCDC's data processing and validation procedures.
#
#######################################################################

data_HIRXAH
_symmetry_cell_setting           monoclinic
_symmetry_space_group_name_H-M   'I 2/a'
_symmetry_Int_Tables_number      15
_space_group_name_Hall           '-I 2ya'
loop_
_symmetry_equiv_pos_site_id
_symmetry_equiv_pos_as_xyz
1 x,y,z
2 1/2+x,1/2+y,1/2+z
3 1/2+x,-y,z
4 x,1/2-y,1/2+z
5 -x,-y,-z
6 1/2-x,1/2-y,1/2-z
7 1/2-x,y,-z
8 -x,1/2+y,1/2-z
_cell_length_a                   24.602(5)
_cell_length_b                   7.849(2)
_cell_length_c                   15.711(3)
_cell_angle_alpha                90
_cell_angle_beta                 97.970(5)
_cell_angle_gamma                90
_cell_volume                     3004.51
loop_
_atom_site_label
_atom_site_type_symbol
_atom_site_fract_x
_atom_site_fract_y
_atom_site_fract_z
O5 O 0.3175(6) 0.0290(20) -0.9609(9)
C13 C 0.2684(8) 0.0457(30) -1.0061(21)
C13F C 0.2316(8) 0.0457(30) -0.9939(21)
O5F O 0.1825(6) 0.0290(20) -1.0391(9)
Cu1 Cu 0.47549(2) 0.07524(7) -0.24239(3)
N1 N 0.4864(2) 0.0781(7) -0.1133(3)
N2 N 0.4034(2) 0.1854(6) -0.2329(3)
N3 N 0.4481(2) 0.0659(8) -0.3691(3)
O1 O 0.4403(2) -0.1997(5) -0.2366(3)
O2 O 0.44876(13) -0.4807(5) -0.2392(2)
O3 O 0.45902(14) -0.2940(6) -0.0544(3)
O4 O 0.4011(2) -0.2257(8) 0.0341(3)
C1 C 0.4402(2) 0.1684(8) -0.0832(3)
C2 C 0.3883(2) 0.1435(8) -0.1481(3)
C3 C 0.3649(2) 0.1366(8) -0.3096(3)
C4 C 0.3959(2) 0.1605(9) -0.3861(4)
C5 C 0.4241(2) -0.3449(6) -0.2229(3)
C6 C 0.3707(2) -0.3707(7) -0.1879(3)
C7 C 0.3256(2) -0.4257(9) -0.2450(4)
C8 C 0.2757(2) -0.4540(12) -0.2175(5)
C9 C 0.2696(3) -0.4275(12) -0.1326(5)
C10 C 0.3136(2) -0.3703(10) -0.0760(4)
C11 C 0.3644(2) -0.3403(7) -0.1011(3)
C12 C 0.4125(2) -0.2832(7) -0.0358(3)
H1 H 0.4844(22) -0.0262(78) -0.1005(35)
H2 H 0.5214(27) 0.1184(77) -0.0888(39)
H3 H 0.4110(24) 0.2763(81) -0.2394(38)
H4 H 0.4709(26) 0.1103(75) -0.3980(39)
H5 H 0.4418(26) -0.0253(90) -0.3851(42)
H6 H 0.4482(21) 0.2896(72) -0.0794(34)
H7 H 0.4331(24) 0.1232(76) -0.0311(40)
H8 H 0.3772(19) 0.0272(67) -0.1484(30)
H9 H 0.3599(22) 0.2111(69) -0.1347(33)
H10 H 0.3546(19) 0.0236(68) -0.2997(30)
H11 H 0.3280(27) 0.2081(85) -0.3200(42)
H12 H 0.3743(25) 0.1260(79) -0.4321(42)
H13 H 0.4038(26) 0.2800(88) -0.3934(41)
H14 H 0.3315(26) -0.4404(78) -0.2985(44)
H15 H 0.2483(35) -0.4826(98) -0.2566(49)
H16 H 0.2362(35) -0.4398(97) -0.1177(53)
H17 H 0.3091(29) -0.3467(96) -0.0267(49)
O2G O 0.55124(13) 0.0193(5) -0.2608(2)
Cu1G Cu 0.52451(2) -0.42476(7) -0.25761(3)
loop_
_geom_bond_atom_site_label_1
_geom_bond_atom_site_label_2
_geom_bond_site_symmetry_1
_geom_bond_site_symmetry_2
Cu1 N1 1_555 1_555
N1 C1 1_555 1_555
N2 Cu1 1_555 1_555
N3 Cu1 1_555 1_555
O1 Cu1 1_555 1_555
O2 C5 1_555 1_555
O3 C12 1_555 1_555
O4 C12 1_555 1_555
C1 C2 1_555 1_555
C2 N2 1_555 1_555
C3 N2 1_555 1_555
C4 N3 1_555 1_555
C5 O1 1_555 1_555
C6 C5 1_555 1_555
C7 C6 1_555 1_555
C8 C7 1_555 1_555
C9 C8 1_555 1_555
C10 C9 1_555 1_555
C11 C6 1_555 1_555
C12 C11 1_555 1_555
O5 C13 1_555 1_555
C13 C13F 1_555 1_555
H1 N1 1_555 1_555
H2 N1 1_555 1_555
H3 N2 1_555 1_555
H4 N3 1_555 1_555
H5 N3 1_555 1_555
H6 C1 1_555 1_555
H7 C1 1_555 1_555
H8 C2 1_555 1_555
H9 C2 1_555 1_555
H10 C3 1_555 1_555
H11 C3 1_555 1_555
H12 C4 1_555 1_555
H13 C4 1_555 1_555
H14 C7 1_555 1_555
H15 C8 1_555 1_555
H16 C9 1_555 1_555
H17 C10 1_555 1_555
O2G Cu1 1_555 1_555
Cu1G O2 1_555 1_555
C13F O5F 1_555 1_555
C3 C4 1_555 1_555
C10 C11 1_555 1_555

#END
