
#######################################################################
#
#                 Cambridge Crystallographic Data Centre
#                                CCDC 
#
#######################################################################
#
# If this CIF has been generated from an entry in the Cambridge 
# Structural Database, then it will include bibliographic, chemical, 
# crystal, experimental, refinement or atomic coordinate data resulting 
# from the CCDC's data processing and validation procedures.
#
#######################################################################

data_HIRZUD
_symmetry_cell_setting           hexagonal
_symmetry_space_group_name_H-M   'P 65'
_symmetry_Int_Tables_number      170
_space_group_name_Hall           'P 65'
loop_
_symmetry_equiv_pos_site_id
_symmetry_equiv_pos_as_xyz
1 x,y,z
2 x-y,x,5/6+z
3 -y,x-y,2/3+z
4 -x,-y,1/2+z
5 -x+y,-x,1/3+z
6 y,-x+y,1/6+z
_cell_length_a                   11.435(2)
_cell_length_b                   11.435(2)
_cell_length_c                   20.886(4)
_cell_angle_alpha                90
_cell_angle_beta                 90
_cell_angle_gamma                120
_cell_volume                     2365.15
loop_
_atom_site_label
_atom_site_type_symbol
_atom_site_fract_x
_atom_site_fract_y
_atom_site_fract_z
Co1 Co -0.00029(12) 0.56788(12) -0.00033(6)
O1 O -0.0250(8) 0.5467(8) -0.0993(4)
O2 O 0.0384(8) 0.5953(8) 0.0958(4)
O3 O -0.2128(7) 0.4657(7) 0.0190(3)
O4 O 0.2239(7) 0.6779(6) -0.0182(3)
S1 S 0.3435(3) 0.7329(2) 0.02579(12)
O5 O 0.4459(8) 0.7053(10) -0.0011(5)
O6 O 0.3984(9) 0.8799(8) 0.0339(5)
O7 O 0.3013(7) 0.6665(8) 0.0884(3)
N1 N -0.0045(8) 0.3759(8) 0.0017(5)
N2 N -0.0068(8) -0.2463(8) -0.0048(5)
C1 C -0.1166(12) 0.2595(11) 0.0051(11)
C2 C -0.1233(12) 0.1348(12) 0.0020(11)
C3 C -0.0063(9) 0.1298(9) -0.0022(6)
C4 C 0.1101(12) 0.2485(12) -0.0033(10)
C5 C 0.1109(11) 0.3700(11) 0.0015(10)
C6 C 0.1068(11) -0.1277(10) -0.0022(6)
C7 C 0.1136(11) -0.0024(10) -0.0026(6)
C8 C -0.0074(12) -0.0023(10) -0.0024(7)
C9 C -0.1258(11) -0.1258(10) -0.0046(8)
C10 C -0.1207(11) -0.2441(12) -0.0061(6)
N2_2 N -0.0068(8) 0.7537(8) -0.0048(5)
Co1_2 Co -0.00029(12) -0.43212(12) -0.00033(6)
O8 O 0.1186(9) 0.4394(9) -0.1560(4)
O9 O 0.1556(9) 0.6229(11) 0.2305(5)
loop_
_geom_bond_atom_site_label_1
_geom_bond_atom_site_label_2
_geom_bond_site_symmetry_1
_geom_bond_site_symmetry_2
Co1 O1 1_555 1_555
O2 Co1 1_555 1_555
O3 Co1 1_555 1_555
O4 Co1 1_555 1_555
S1 O4 1_555 1_555
O5 S1 1_555 1_555
O6 S1 1_555 1_555
O7 S1 1_555 1_555
N1 Co1 1_555 1_555
N2 C6 1_555 1_555
C1 N1 1_555 1_555
C2 C1 1_555 1_555
C3 C2 1_555 1_555
C4 C3 1_555 1_555
C5 N1 1_555 1_555
C6 C7 1_555 1_555
C7 C8 1_555 1_555
C8 C3 1_555 1_555
C9 C8 1_555 1_555
C10 N2 1_555 1_555
N2_2 Co1 1_555 1_555
Co1_2 N2 1_555 1_555
C4 C5 1_555 1_555
C9 C10 1_555 1_555

#END
