
#######################################################################
#
#                 Cambridge Crystallographic Data Centre
#                                CCDC 
#
#######################################################################
#
# If this CIF has been generated from an entry in the Cambridge 
# Structural Database, then it will include bibliographic, chemical, 
# crystal, experimental, refinement or atomic coordinate data resulting 
# from the CCDC's data processing and validation procedures.
#
#######################################################################

data_HISBEQ
_symmetry_cell_setting           triclinic
_symmetry_space_group_name_H-M   'P -1'
_symmetry_Int_Tables_number      2
_space_group_name_Hall           '-P 1'
loop_
_symmetry_equiv_pos_site_id
_symmetry_equiv_pos_as_xyz
1 x,y,z
2 -x,-y,-z
_cell_length_a                   7.996(1)
_cell_length_b                   9.128(1)
_cell_length_c                   10.676(1)
_cell_angle_alpha                109.79(1)
_cell_angle_beta                 99.90(1)
_cell_angle_gamma                100.98(1)
_cell_volume                     695.798
loop_
_atom_site_label
_atom_site_type_symbol
_atom_site_fract_x
_atom_site_fract_y
_atom_site_fract_z
O1 O -0.40868(16) 0.11340(16) 0.37911(12)
O2 O -0.24466(18) 0.15766(14) 0.58664(12)
O3 O -0.28076(17) -0.16999(16) 0.76669(13)
O4 O -0.05757(17) -0.00688(17) 0.74888(14)
N1 N -0.32435(19) -0.20479(16) 0.46428(13)
N2 N -0.34364(19) -0.82702(16) -0.16462(13)
C1 C -0.4281(2) -0.3550(2) 0.42297(17)
H1 H -0.4966 -0.3771 0.4798
C2 C -0.4394(2) -0.47937(19) 0.30074(17)
H2 H -0.5142 -0.5814 0.2769
C3 C -0.3374(2) -0.45002(18) 0.21346(15)
C4 C -0.2285(2) -0.2944(2) 0.25669(17)
H3 H -0.1579 -0.2690 0.2023
C5 C -0.2254(2) -0.17713(19) 0.38110(17)
H4 H -0.1509 -0.0742 0.4081
C6 C -0.4489(3) -0.8537(2) -0.08521(17)
H5 H -0.5239 -0.9566 -0.1134
C7 C -0.4524(2) -0.7362(2) 0.03682(18)
H6 H -0.5273 -0.7616 0.0886
C8 C -0.3433(2) -0.57996(18) 0.08160(15)
C9 C -0.2378(2) -0.5523(2) -0.00341(18)
H7 H -0.1643 -0.4496 0.0204
C10 C -0.2416(2) -0.6765(2) -0.12300(18)
H8 H -0.1692 -0.6542 -0.1774
C11 C -0.2754(2) 0.18501(19) 0.47858(16)
C12 C -0.1377(3) 0.3152(3) 0.4687(2)
H9 H -0.0388 0.2749 0.4488
H10 H -0.1866 0.3468 0.3965
H11 H -0.0997 0.4070 0.5546
Co1 Co -0.33027(3) -0.01828(2) 0.65298(2)
C13 C -0.1172(2) -0.1144(2) 0.78994(17)
C14 C 0.0038(4) -0.1799(3) 0.8659(3)
H12 H -0.0319 -0.1814 0.9470
H13 H 0.1221 -0.1127 0.8921
H14 H -0.0010 -0.2879 0.8076
Co1A Co -0.66973(3) 0.01828(2) 0.34702(2)
O1A O -0.59132(16) -0.11340(16) 0.62089(12)
N2_2 N -0.34364(19) 0.17298(16) 0.83538(13)
Co1_2 Co -0.33027(3) -1.01828(2) -0.34702(2)
loop_
_geom_bond_atom_site_label_1
_geom_bond_atom_site_label_2
_geom_bond_site_symmetry_1
_geom_bond_site_symmetry_2
O1 C11 1_555 1_555
O2 C11 1_555 1_555
O3 Co1 1_555 1_555
O4 Co1 1_555 1_555
N1 C1 1_555 1_555
N2 C6 1_555 1_555
C1 H1 1_555 1_555
C2 C1 1_555 1_555
H2 C2 1_555 1_555
C3 C2 1_555 1_555
C4 C3 1_555 1_555
H3 C4 1_555 1_555
C5 N1 1_555 1_555
H4 C5 1_555 1_555
C6 H5 1_555 1_555
C7 C6 1_555 1_555
H6 C7 1_555 1_555
C8 C3 1_555 1_555
C9 C8 1_555 1_555
H7 C9 1_555 1_555
C10 N2 1_555 1_555
H8 C10 1_555 1_555
C11 C12 1_555 1_555
C12 H9 1_555 1_555
H10 C12 1_555 1_555
H11 C12 1_555 1_555
Co1 O2 1_555 1_555
C13 O3 1_555 1_555
C14 C13 1_555 1_555
H12 C14 1_555 1_555
H13 C14 1_555 1_555
H14 C14 1_555 1_555
Co1A O1 1_555 1_555
O1A Co1 1_555 1_555
N2_2 Co1 1_555 1_555
Co1_2 N2 1_555 1_555
O4 C13 1_555 1_555
N1 Co1 1_555 1_555
C4 C5 1_555 1_555
C7 C8 1_555 1_555
C9 C10 1_555 1_555

#END
