
#######################################################################
#
#                 Cambridge Crystallographic Data Centre
#                                CCDC 
#
#######################################################################
#
# If this CIF has been generated from an entry in the Cambridge 
# Structural Database, then it will include bibliographic, chemical, 
# crystal, experimental, refinement or atomic coordinate data resulting 
# from the CCDC's data processing and validation procedures.
#
#######################################################################

data_HISBAM
_symmetry_cell_setting           orthorhombic
_symmetry_space_group_name_H-M   'P b c n'
_symmetry_Int_Tables_number      60
_space_group_name_Hall           '-P 2n 2ab'
loop_
_symmetry_equiv_pos_site_id
_symmetry_equiv_pos_as_xyz
1 x,y,z
2 1/2+x,1/2+y,1/2-z
3 x,-y,1/2+z
4 1/2-x,1/2+y,z
5 -x,-y,-z
6 1/2-x,1/2-y,1/2+z
7 -x,y,1/2-z
8 1/2+x,1/2-y,-z
_cell_length_a                   11.470(2)
_cell_length_b                   11.390(2)
_cell_length_c                   14.753(1)
_cell_angle_alpha                90
_cell_angle_beta                 90
_cell_angle_gamma                90
_cell_volume                     1927.38
loop_
_atom_site_label
_atom_site_type_symbol
_atom_site_fract_x
_atom_site_fract_y
_atom_site_fract_z
Co1 Co 0.0000 0.13706(3) 0.2500
Cl1 Cl 0.13976(4) 0.12837(4) 0.12274(3)
S1 S 0.13806(5) 0.07883(5) 0.43262(4)
O1 O 0.14268(13) 0.14383(13) 0.34216(11)
N1 N 0.0000 0.3260(2) 0.2500
N2 N 0.0000 0.9481(2) 0.2500
C1 C 0.0896(2) 0.3877(2) 0.2158(2)
C2 C 0.0936(2) 0.5086(2) 0.2150(2)
C3 C 0.0000 0.5726(2) 0.2500
C4 C 0.0000 0.7023(2) 0.2500
C5 C 0.1033(2) 0.7655(2) 0.26203(13)
C6 C 0.0989(2) 0.8868(2) 0.26105(14)
C7 C 0.1038(3) 0.1842(3) 0.5171(2)
C8 C 0.2888(3) 0.0582(4) 0.4604(2)
H1 H 0.1575(21) 0.3414(24) 0.1951(19)
H2 H 0.1529(21) 0.5447(25) 0.1925(17)
H3 H 0.1778(22) 0.7237(22) 0.2716(16)
H4 H -0.1681(24) 0.9333(26) 0.2362(17)
H5 H 0.1472(30) 0.2506(34) 0.5099(22)
H6 H 0.0362(44) 0.2286(44) 0.4997(34)
H7 H 0.0933(34) 0.1448(32) 0.5718(31)
H8 H 0.2895(29) 0.0308(32) 0.5158(24)
H9 H 0.3320(33) 0.1283(34) 0.4546(27)
H10 H 0.3152(34) 0.0004(43) 0.4184(32)
Cl1F Cl -0.13976(4) 0.12837(4) 0.37726(3)
O1F O -0.14268(13) 0.14383(13) 0.15784(11)
S1F S -0.13806(5) 0.07883(5) 0.06738(4)
C7F C -0.1038(3) 0.1842(3) -0.0171(2)
H5F H -0.1472(30) 0.2506(34) -0.0099(22)
H6F H -0.0362(44) 0.2286(44) 0.0003(34)
H7F H -0.0933(34) 0.1448(32) -0.0718(31)
C8F C -0.2888(3) 0.0582(4) 0.0396(2)
H8F H -0.2895(29) 0.0308(32) -0.0158(24)
H9F H -0.3320(33) 0.1283(34) 0.0454(27)
H10F H -0.3152(34) 0.0004(43) 0.0816(32)
C2F C -0.0936(2) 0.5086(2) 0.2850(2)
C1F C -0.0896(2) 0.3877(2) 0.2842(2)
H1F H -0.1575(21) 0.3414(24) 0.3049(19)
H2F H -0.1529(21) 0.5447(25) 0.3075(17)
N2_2 N 0.0000 -0.0519(2) 0.2500
Co1_2 Co 0.0000 1.13706(3) 0.2500
C6F C -0.0989(2) 0.8868(2) 0.23895(14)
C5F C -0.1033(2) 0.7655(2) 0.23797(13)
H3F H -0.1778(22) 0.7237(22) 0.2284(16)
H4F H 0.1681(24) 0.9333(26) 0.2638(17)
loop_
_geom_bond_atom_site_label_1
_geom_bond_atom_site_label_2
_geom_bond_site_symmetry_1
_geom_bond_site_symmetry_2
Co1 Cl1 1_555 1_555
S1 O1 1_555 1_555
O1 Co1 1_555 1_555
N1 Co1 1_555 1_555
N2 C6 1_555 1_555
C1 N1 1_555 1_555
C2 C1 1_555 1_555
C3 C2 1_555 1_555
C4 C3 1_555 1_555
C5 C4 1_555 1_555
C6 C5 1_555 1_555
C7 S1 1_555 1_555
C8 S1 1_555 1_555
H1 C1 1_555 1_555
H2 C2 1_555 1_555
H3 C5 1_555 1_555
H4 C6F 1_555 1_555
H5 C7 1_555 1_555
H6 C7 1_555 1_555
H7 C7 1_555 1_555
H8 C8 1_555 1_555
H9 C8 1_555 1_555
H10 C8 1_555 1_555
Cl1F Co1 1_555 1_555
O1F Co1 1_555 1_555
S1F O1F 1_555 1_555
C7F S1F 1_555 1_555
H5F C7F 1_555 1_555
H6F C7F 1_555 1_555
H7F C7F 1_555 1_555
C8F S1F 1_555 1_555
H8F C8F 1_555 1_555
H9F C8F 1_555 1_555
H10F C8F 1_555 1_555
C2F C3 1_555 1_555
C1F N1 1_555 1_555
H1F C1F 1_555 1_555
H2F C2F 1_555 1_555
N2_2 Co1 1_555 1_555
Co1_2 N2 1_555 1_555
C6F N2 1_555 1_555
C5F C4 1_555 1_555
H3F C5F 1_555 1_555
H4F C6 1_555 1_555
C2F C1F 1_555 1_555
C6F C5F 1_555 1_555

#END
