
#######################################################################
#
#                 Cambridge Crystallographic Data Centre
#                                CCDC 
#
#######################################################################
#
# If this CIF has been generated from an entry in the Cambridge 
# Structural Database, then it will include bibliographic, chemical, 
# crystal, experimental, refinement or atomic coordinate data resulting 
# from the CCDC's data processing and validation procedures.
#
#######################################################################

data_HISCIX
_symmetry_cell_setting           monoclinic
_symmetry_space_group_name_H-M   'P 21/c'
_symmetry_Int_Tables_number      14
_space_group_name_Hall           '-P 2ybc'
loop_
_symmetry_equiv_pos_site_id
_symmetry_equiv_pos_as_xyz
1 x,y,z
2 -x,1/2+y,1/2-z
3 -x,-y,-z
4 x,1/2-y,1/2+z
_cell_length_a                   7.9642(16)
_cell_length_b                   12.530(3)
_cell_length_c                   8.7090(17)
_cell_angle_alpha                90
_cell_angle_beta                 113.66(3)
_cell_angle_gamma                90
_cell_volume                     796.031
loop_
_atom_site_label
_atom_site_type_symbol
_atom_site_fract_x
_atom_site_fract_y
_atom_site_fract_z
O1 O 0.4930(2) 0.98761(13) 0.7363(2)
O2 O 0.2766(2) 0.89905(13) 0.4482(2)
O3 O 0.1751(2) 0.77628(13) 0.5749(2)
O4 O 0.8225(3) 0.72885(15) 0.7149(2)
O5 O 0.6783(2) 0.87114(13) 0.5716(2)
C1 C 0.7041(3) 0.8007(2) 0.6829(3)
C2 C 0.2806(3) 0.84956(19) 0.5774(3)
C3 C 0.5911(3) 0.80021(19) 0.7885(3)
H1 H 0.6748 0.8118 0.9042
H2 H 0.5407 0.7291 0.7822
C4 C 0.4328(3) 0.87982(18) 0.7479(3)
C5 C 0.3615(3) 0.87711(19) 0.8861(3)
H3 H 0.3180 0.8056 0.8920
H4 H 0.4629 0.8916 0.9923
O6 O 0.1969(2) 0.98895(14) 0.9984(2)
Zn1 Zn 0.5000 1.0000 0.5000
Na1 Na -0.05408(14) 1.12137(8) 0.83937(13)
Na2 Na 0.10230(14) 1.11830(8) 0.53517(13)
O7 O 0.1002(2) 0.98321(13) 0.7212(2)
C6 C 0.2085(3) 0.95534(19) 0.8644(3)
H5 H 0.606(4) 1.000(2) 0.828(4)
O1B O -0.4930(2) 1.01239(13) 0.2637(2)
O2B O -0.2766(2) 1.10095(13) 0.5518(2)
O3B O -0.1751(2) 1.22372(13) 0.4251(2)
O4B O -0.8225(3) 1.27115(15) 0.2851(2)
O5B O -0.6783(2) 1.12886(13) 0.4284(2)
C1B C -0.7041(3) 1.1993(2) 0.3171(3)
C2B C -0.2806(3) 1.15044(19) 0.4226(3)
C3B C -0.5911(3) 1.19979(19) 0.2115(3)
H1B H -0.6748 1.1882 0.0958
H2B H -0.5407 1.2709 0.2178
C4B C -0.4328(3) 1.12018(18) 0.2521(3)
C5B C -0.3615(3) 1.12289(19) 0.1139(3)
H3B H -0.3180 1.1944 0.1080
H4B H -0.4629 1.1084 0.0077
O6B O -0.1969(2) 1.01105(14) 0.0016(2)
Na1B Na 0.05408(14) 0.87863(8) 0.16063(13)
Na2B Na -0.10230(14) 0.88170(8) 0.46483(13)
O7B O -0.1002(2) 1.01679(13) 0.2788(2)
C6B C -0.2085(3) 1.04466(19) 0.1356(3)
H5B H -0.606(4) 1.000(2) 0.172(4)
O1B_2 O 0.5070(2) 1.01239(13) 0.2637(2)
O2B_2 O 0.7234(2) 1.10095(13) 0.5518(2)
O3A O -0.1751(2) 1.27628(13) 0.9251(2)
O3C O 0.1751(2) 0.72372(13) 0.0749(2)
O4A O 0.1775(3) 1.22885(15) 0.7851(2)
O4C O -0.1775(3) 0.77115(15) 0.2149(2)
O5_2 O -0.3217(2) 0.87114(13) 0.5716(2)
O5B_2 O 0.3217(2) 1.12886(13) 0.4284(2)
O6_2 O 0.1969(2) 0.98895(14) -0.0016(2)
O6B_2 O -0.1969(2) 1.01105(14) 1.0016(2)
Zn1_2 Zn -0.5000 1.0000 0.5000
Na1_2 Na -0.05408(14) 1.12137(8) -0.16063(13)
Na1A Na 0.05408(14) 0.62137(8) 0.66063(13)
Na1A_2 Na 1.05408(14) 0.62137(8) 0.66063(13)
Na1B_2 Na 0.05408(14) 0.87863(8) 1.16063(13)
Na1C Na -1.05408(14) 1.37863(8) 0.33937(13)
Na1C_2 Na -0.05408(14) 1.37863(8) 0.33937(13)
Na2_2 Na -0.89770(14) 1.11830(8) 0.53517(13)
Na2A Na 0.89770(14) 0.61830(8) 0.96483(13)
Na2B_2 Na 0.89770(14) 0.88170(8) 0.46483(13)
Na2C Na -0.89770(14) 1.38170(8) 0.03517(13)
loop_
_geom_bond_atom_site_label_1
_geom_bond_atom_site_label_2
_geom_bond_site_symmetry_1
_geom_bond_site_symmetry_2
O1 C4 1_555 1_555
O2 C2 1_555 1_555
O3 C2 1_555 1_555
O4 C1 1_555 1_555
O5 C1 1_555 1_555
C1 C3 1_555 1_555
C2 C4 1_555 1_555
C3 H1 1_555 1_555
H2 C3 1_555 1_555
C4 C3 1_555 1_555
C5 C4 1_555 1_555
H3 C5 1_555 1_555
H4 C5 1_555 1_555
O6 Na1 1_555 1_555
Zn1 O1 1_555 1_555
Na1 O7 1_555 1_555
Na2 O7 1_555 1_555
O7 C6 1_555 1_555
C6 C5 1_555 1_555
H5 O1 1_555 1_555
O1B C4B 1_555 1_555
O2B Na1 1_555 1_555
O3B Na2 1_555 1_555
O4B C1B 1_555 1_555
O5B C1B 1_555 1_555
C1B C3B 1_555 1_555
C2B O2B 1_555 1_555
C3B H1B 1_555 1_555
H2B C3B 1_555 1_555
C4B C2B 1_555 1_555
C5B C4B 1_555 1_555
H3B C5B 1_555 1_555
H4B C5B 1_555 1_555
O6B Na1B 1_555 1_555
Na1B O2 1_555 1_555
Na2B O3 1_555 1_555
O7B Na2 1_555 1_555
C6B C5B 1_555 1_555
H5B O1B 1_555 1_555
O1B_2 Zn1 1_555 1_555
O2B_2 Zn1 1_555 1_555
O3A Na1 1_555 1_555
O3C Na1B 1_555 1_555
O4A Na1 1_555 1_555
O4C Na1B 1_555 1_555
O5_2 Na2B 1_555 1_555
O5B_2 Zn1 1_555 1_555
O6_2 Na1B 1_555 1_555
O6B_2 Na1 1_555 1_555
Zn1_2 O1B 1_555 1_555
Na1_2 O6B 1_555 1_555
Na1A O3 1_555 1_555
Na1A_2 O4 1_555 1_555
Na1B_2 O6 1_555 1_555
Na1C O4B 1_555 1_555
Na1C_2 O3B 1_555 1_555
Na2_2 O5B 1_555 1_555
Na2A O4 1_555 1_555
Na2B_2 O5 1_555 1_555
Na2C O4B 1_555 1_555
O2 Zn1 1_555 1_555
O5 Zn1 1_555 1_555
O6 C6 1_555 1_555
Na2 O4A 1_555 1_555
Na2 O5B_2 1_555 1_555
O7 Na2B 1_555 1_555
O2B Zn1_2 1_555 1_555
O3B C2B 1_555 1_555
O5B Zn1_2 1_555 1_555
C3B C4B 1_555 1_555
O6B C6B 1_555 1_555
Na1B O7B 1_555 1_555
Na2B O7B 1_555 1_555
Na2B O4C 1_555 1_555
O7B C6B 1_555 1_555
O5_2 Zn1_2 1_555 1_555
O6_2 Na1_2 1_555 1_555
O6B_2 Na1B_2 1_555 1_555

#END
