
#######################################################################
#
#                 Cambridge Crystallographic Data Centre
#                                CCDC 
#
#######################################################################
#
# If this CIF has been generated from an entry in the Cambridge 
# Structural Database, then it will include bibliographic, chemical, 
# crystal, experimental, refinement or atomic coordinate data resulting 
# from the CCDC's data processing and validation procedures.
#
#######################################################################

data_HISFEW
_symmetry_cell_setting           monoclinic
_symmetry_space_group_name_H-M   'C 2/c'
_symmetry_Int_Tables_number      15
_space_group_name_Hall           '-C 2yn'
loop_
_symmetry_equiv_pos_site_id
_symmetry_equiv_pos_as_xyz
1 x,y,z
2 -x,y,1/2-z
3 1/2+x,1/2+y,z
4 1/2-x,1/2+y,1/2-z
5 -x,-y,-z
6 x,-y,1/2+z
7 1/2-x,1/2-y,-z
8 1/2+x,1/2-y,1/2+z
_cell_length_a                   10.8704(6)
_cell_length_b                   12.8983(10)
_cell_length_c                   8.3362(5)
_cell_angle_alpha                90
_cell_angle_beta                 106.503(3)
_cell_angle_gamma                90
_cell_volume                     1120.67
loop_
_atom_site_label
_atom_site_type_symbol
_atom_site_fract_x
_atom_site_fract_y
_atom_site_fract_z
Cd1 Cd 0.50000 0.20749(3) 0.25000
S1 S 0.65559(10) 0.05195(8) 0.40889(13)
N1 N 0.8532(3) 0.1670(2) 0.6240(4)
C1 C 0.7707(3) 0.1202(3) 0.5352(4)
N2 N 0.6151(3) 0.2057(2) 0.0483(4)
H1 H 0.6952 0.233 0.0968
H2 H 0.6263 0.1377 0.0223
C2 C 0.5594(3) 0.2606(3) -0.1055(4)
C3 C 0.50000 0.2075(4) -0.25
H3 H 0.500 0.1339 -0.25
C4 C 0.5598(3) 0.3684(3) -0.1044(4)
H4 H 0.6007 0.4054 -0.0049
C5 C 0.50000 0.4211(4) -0.25
H5 H 0.500 0.4947 -0.25
N2A N 0.3849(3) 0.2057(2) -0.5483(4)
H1A H 0.3048 0.233 -0.5968
H2A H 0.3737 0.1377 -0.5223
C2A C 0.4406(3) 0.2606(3) -0.3945(4)
C4A C 0.4402(3) 0.3684(3) -0.3956(4)
H4A H 0.3993 0.4054 -0.4951
S1A S 0.34441(10) 0.05195(8) 0.09111(13)
N1A N 0.1468(3) 0.1670(2) -0.1240(4)
C1A C 0.2293(3) 0.1202(3) -0.0352(4)
Cd1_2 Cd 0.50000 0.20749(3) -0.75000
Cd1F Cd 0.00000 0.29251(3) -0.25000
Cd1F_2 Cd 1.00000 0.29251(3) 0.75000
N1F N 0.6468(3) 0.3330(2) 0.3760(4)
N1G N 0.3532(3) 0.3330(2) 0.1240(4)
N2A_2 N 0.3849(3) 0.2057(2) 0.4517(4)
loop_
_geom_bond_atom_site_label_1
_geom_bond_atom_site_label_2
_geom_bond_site_symmetry_1
_geom_bond_site_symmetry_2
Cd1 S1 1_555 1_555
S1 C1 1_555 1_555
N1 C1 1_555 1_555
N2 Cd1 1_555 1_555
H1 N2 1_555 1_555
H2 N2 1_555 1_555
C2 N2 1_555 1_555
C3 C2 1_555 1_555
H3 C3 1_555 1_555
C4 C2 1_555 1_555
H4 C4 1_555 1_555
C5 C4 1_555 1_555
H5 C5 1_555 1_555
N2A H1A 1_555 1_555
H2A N2A 1_555 1_555
C2A C3 1_555 1_555
C4A C5 1_555 1_555
H4A C4A 1_555 1_555
S1A Cd1 1_555 1_555
N1A C1A 1_555 1_555
C1A S1A 1_555 1_555
Cd1_2 N2A 1_555 1_555
Cd1F N1A 1_555 1_555
Cd1F_2 N1 1_555 1_555
N1F Cd1 1_555 1_555
N1G Cd1 1_555 1_555
N2A_2 Cd1 1_555 1_555
N2A C2A 1_555 1_555
C2A C4A 1_555 1_555

#END
