
#######################################################################
#
#                 Cambridge Crystallographic Data Centre
#                                CCDC 
#
#######################################################################
#
# If this CIF has been generated from an entry in the Cambridge 
# Structural Database, then it will include bibliographic, chemical, 
# crystal, experimental, refinement or atomic coordinate data resulting 
# from the CCDC's data processing and validation procedures.
#
#######################################################################

data_HISGEX
_symmetry_cell_setting           monoclinic
_symmetry_space_group_name_H-M   'P 2/c'
_symmetry_Int_Tables_number      13
_space_group_name_Hall           '-P 2yc'
loop_
_symmetry_equiv_pos_site_id
_symmetry_equiv_pos_as_xyz
1 x,y,z
2 -x,y,1/2-z
3 -x,-y,-z
4 x,-y,1/2+z
_cell_length_a                   12.1526(4)
_cell_length_b                   4.8183(2)
_cell_length_c                   12.3055(4)
_cell_angle_alpha                90
_cell_angle_beta                 109.222(2)
_cell_angle_gamma                90
_cell_volume                     680.377
loop_
_atom_site_label
_atom_site_type_symbol
_atom_site_fract_x
_atom_site_fract_y
_atom_site_fract_z
Rb1 Rb 0.5000 0.18937(12) 0.2500
S1 S 0.0000 1.1074(3) 0.2500
O1 O 0.4346(2) 0.1919(6) 0.4519(2)
O2 O 0.3988(3) 0.2786(6) 0.6149(2)
O3 O -0.0394(2) 1.2551(6) 0.3313(3)
C1 C 0.3804(3) 0.3184(8) 0.5115(3)
C2 C 0.2885(3) 0.5221(7) 0.4466(3)
C3 C 0.2048(3) 0.6081(9) 0.4936(3)
H1 H 0.2079 0.5445 0.5659
C4 C 0.1175(3) 0.7858(8) 0.4345(4)
H2 H 0.0609 0.8400 0.4658
C5 C 0.1141(3) 0.8838(7) 0.3281(3)
C6 C 0.1978(4) 0.8061(8) 0.2800(3)
H3 H 0.1961 0.8752 0.2089
C7 C 0.2840(3) 0.6234(8) 0.3403(3)
H4 H 0.3402 0.5676 0.3086
O1A O -0.4346(2) 0.1919(6) 0.0481(2)
O2A O -0.3988(3) 0.2786(6) -0.1149(2)
O3A O 0.0394(2) 1.2551(6) 0.1687(3)
C1A C -0.3804(3) 0.3184(8) -0.0115(3)
C2A C -0.2885(3) 0.5221(7) 0.0534(3)
C3A C -0.2048(3) 0.6081(9) 0.0064(3)
H1A H -0.2079 0.5445 -0.0659
C4A C -0.1175(3) 0.7858(8) 0.0655(4)
H2A H -0.0609 0.8400 0.0342
C5A C -0.1141(3) 0.8838(7) 0.1719(3)
C6A C -0.1978(4) 0.8061(8) 0.2200(3)
H3A H -0.1961 0.8752 0.2911
C7A C -0.2840(3) 0.6234(8) 0.1597(3)
H4A H -0.3402 0.5676 0.1914
Rb1_2 Rb -0.5000 0.18937(12) 0.2500
Rb1B Rb -0.5000 -0.18937(12) -0.2500
Rb1B_2 Rb -0.5000 0.81063(12) -0.2500
Rb1B_3 Rb 0.5000 -0.18937(12) 0.7500
Rb1B_4 Rb 0.5000 0.81063(12) 0.7500
O1A_2 O 0.5654(2) 0.1919(6) 0.0481(2)
O2B O 0.6012(3) -0.2786(6) 0.3851(2)
O2B_2 O 0.6012(3) 0.7214(6) 0.3851(2)
O2C O 0.3988(3) -0.2786(6) 0.1149(2)
O2C_2 O 0.3988(3) 0.7214(6) 0.1149(2)
loop_
_geom_bond_atom_site_label_1
_geom_bond_atom_site_label_2
_geom_bond_site_symmetry_1
_geom_bond_site_symmetry_2
Rb1 O1 1_555 1_555
S1 O3 1_555 1_555
O1 C1 1_555 1_555
O2 C1 1_555 1_555
C1 C2 1_555 1_555
C2 C3 1_555 1_555
C3 H1 1_555 1_555
C4 C3 1_555 1_555
H2 C4 1_555 1_555
C5 S1 1_555 1_555
C6 C5 1_555 1_555
H3 C6 1_555 1_555
C7 C2 1_555 1_555
H4 C7 1_555 1_555
O1A C1A 1_555 1_555
O2A C1A 1_555 1_555
O3A S1 1_555 1_555
C1A C2A 1_555 1_555
C2A C3A 1_555 1_555
C3A H1A 1_555 1_555
C4A C3A 1_555 1_555
H2A C4A 1_555 1_555
C5A S1 1_555 1_555
C6A C5A 1_555 1_555
H3A C6A 1_555 1_555
C7A C2A 1_555 1_555
H4A C7A 1_555 1_555
Rb1_2 O1A 1_555 1_555
Rb1B O2A 1_555 1_555
Rb1B_2 O2A 1_555 1_555
Rb1B_3 O2 1_555 1_555
Rb1B_4 O2 1_555 1_555
O1A_2 Rb1 1_555 1_555
O2B Rb1 1_555 1_555
O2B_2 Rb1 1_555 1_555
O2C Rb1 1_555 1_555
O2C_2 Rb1 1_555 1_555
C4 C5 1_555 1_555
C6 C7 1_555 1_555
C4A C5A 1_555 1_555
C6A C7A 1_555 1_555

#END
