
#######################################################################
#
#                 Cambridge Crystallographic Data Centre
#                                CCDC 
#
#######################################################################
#
# If this CIF has been generated from an entry in the Cambridge 
# Structural Database, then it will include bibliographic, chemical, 
# crystal, experimental, refinement or atomic coordinate data resulting 
# from the CCDC's data processing and validation procedures.
#
#######################################################################

data_HISGIZ
_symmetry_cell_setting           orthorhombic
_symmetry_space_group_name_H-M   'P 21 21 21'
_symmetry_Int_Tables_number      19
_space_group_name_Hall           'P 2ac 2ab'
loop_
_symmetry_equiv_pos_site_id
_symmetry_equiv_pos_as_xyz
1 x,y,z
2 1/2-x,-y,1/2+z
3 1/2+x,1/2-y,-z
4 -x,1/2+y,1/2-z
_cell_length_a                   27.888(3)
_cell_length_b                   29.054(2)
_cell_length_c                   9.428(2)
_cell_angle_alpha                90
_cell_angle_beta                 90
_cell_angle_gamma                90
_cell_volume                     7639.11
loop_
_atom_site_label
_atom_site_type_symbol
_atom_site_fract_x
_atom_site_fract_y
_atom_site_fract_z
Mn1 Mn -0.5336(1) 0.1104(1) -0.2625(3)
Mn2 Mn -0.4483(1) 0.0855(1) 0.2319(3)
O1 O -0.5216(4) 0.0960(4) -0.044(1)
O2 O -0.5107(4) 0.1213(4) 0.172(1)
O3 O -0.4709(5) 0.0809(4) 0.675(1)
O4 O -0.4629(4) 0.0983(5) 0.451(1)
O5 O -0.5507(4) 0.1349(4) -0.491(1)
N1 N -0.5878(6) 0.0537(5) -0.288(2)
N2 N -0.6074(5) 0.1395(5) -0.193(2)
N3 N -0.5187(5) 0.1851(4) -0.216(1)
N4 N -0.4181(5) 0.0313(5) 0.092(2)
N5 N -0.3716(5) 0.0694(6) 0.311(2)
N6 N -0.4057(6) 0.1495(5) 0.199(2)
N7 N -0.5033(6) 0.0239(6) 0.288(2)
C1 C -0.5747(8) 0.0066(6) -0.299(2)
C2 C -0.6066(8) -0.0271(6) -0.326(2)
C3 C -0.6573(8) -0.0110(8) -0.343(2)
C4 C -0.6720(8) 0.0367(7) -0.332(2)
C5 C -0.6339(6) 0.0684(9) -0.302(2)
C6 C -0.6422(7) 0.1198(6) -0.291(2)
C7 C -0.6086(6) 0.1922(6) -0.217(2)
C8 C -0.5605(8) 0.2097(6) -0.182(2)
C9 C -0.552(1) 0.2558(6) -0.144(2)
C10 C -0.5050(9) 0.2733(7) -0.125(2)
C11 C -0.467(1) 0.2474(7) -0.154(2)
C12 C -0.4733(7) 0.2001(7) -0.203(2)
C13 C -0.6187(7) 0.1237(7) -0.042(2)
C14 C -0.5847(6) 0.1396(6) 0.070(2)
C15 C -0.5357(6) 0.1194(6) 0.065(2)
C16 C -0.4385(6) 0.0189(6) -0.038(2)
C17 C -0.4237(8) -0.0222(7) -0.116(2)
C18 C -0.3883(8) -0.0475(7) -0.062(2)
C19 C -0.3675(8) -0.0360(6) 0.065(3)
C20 C -0.3849(6) 0.0061(6) 0.141(2)
C21 C -0.3608(7) 0.0147(7) 0.277(3)
C22 C -0.3396(7) 0.0945(6) 0.226(2)
C23 C -0.3569(7) 0.1444(8) 0.208(2)
C24 C -0.328(1) 0.1826(8) 0.194(3)
C25 C -0.350(1) 0.226(1) 0.178(4)
C26 C -0.398(1) 0.234(1) 0.172(3)
C27 C -0.428(1) 0.1930(7) 0.178(3)
C28 C -0.3612(7) 0.081(1) 0.464(2)
C29 C -0.3948(8) 0.0597(7) 0.568(2)
C30 C -0.4442(7) 0.0823(6) 0.564(2)
C31 C -0.5453(9) 0.0185(8) 0.291(2)
C32 C -0.5941(8) 0.018(1) 0.314(3)
O3_2 O -0.4709(5) 0.0809(4) -0.325(1)
Mn1_2 Mn -0.5336(1) 0.1104(1) 0.7375(3)
N8 N -0.5486(8) 0.2317(7) -0.573(2)
C33 C -0.525(1) 0.307(1) -0.723(3)
C34 C -0.538(1) 0.266(1) -0.630(3)
N9 N -0.359(1) 0.176(1) -0.315(3)
C35 C -0.294(1) 0.2362(9) -0.311(3)
C36 C -0.330(1) 0.208(1) -0.318(4)
C37 C -0.1775(6) 0.1402(5) -0.734(2)
C38 C -0.2125(7) 0.1158(7) -0.663(2)
C39 C -0.2195(7) 0.1200(7) -0.512(2)
C40 C -0.1957(9) 0.1535(8) -0.436(3)
C41 C -0.1593(9) 0.1799(6) -0.504(2)
C42 C -0.1511(9) 0.1754(7) -0.653(2)
C43 C -0.1723(7) 0.1875(7) -0.982(2)
C44 C -0.1445(7) 0.2028(6) -1.094(2)
C45 C -0.1507(7) 0.2455(7) -1.150(2)
C46 C -0.1872(7) 0.2759(6) -1.107(2)
C47 C -0.2150(7) 0.2635(7) -0.992(2)
C48 C -0.2084(7) 0.2181(6) -0.927(2)
C49 C -0.2063(6) 0.0997(5) -0.980(2)
C50 C -0.2057(7) 0.0521(6) -0.946(2)
C51 C -0.2417(8) 0.0211(6) -1.011(2)
C52 C -0.277(1) 0.0361(8) -1.097(2)
C53 C -0.2792(8) 0.0834(8) -1.130(2)
C54 C -0.2451(6) 0.1153(8) -1.072(2)
C55 C -0.1138(7) 0.1144(6) -0.943(2)
C56 C -0.1067(8) 0.0960(6) -1.082(2)
C57 C -0.0572(8) 0.0787(7) -1.117(2)
C58 C -0.0196(8) 0.0840(7) -1.031(3)
C59 C -0.0282(7) 0.1013(6) -0.891(2)
C60 C -0.0739(7) 0.1152(6) -0.849(2)
B1 B -0.1667(9) 0.1366(7) -0.912(2)
C61 C -0.8387(7) 0.1299(6) -0.156(2)
C62 C -0.7993(7) 0.1323(5) -0.061(2)
C63 C -0.8050(9) 0.1443(8) 0.089(2)
C64 C -0.8517(9) 0.1489(7) 0.134(2)
C65 C -0.8934(7) 0.1453(5) 0.036(2)
C66 C -0.8826(7) 0.1335(7) -0.112(2)
C67 C -0.7808(7) 0.1421(6) -0.395(2)
C68 C -0.7671(8) 0.1854(7) -0.339(2)
C69 C -0.7275(8) 0.2103(7) -0.409(2)
C70 C -0.7039(9) 0.1934(7) -0.523(2)
C71 C -0.7172(7) 0.1488(7) -0.573(2)
C72 C -0.7557(6) 0.1247(6) -0.513(2)
C73 C -0.8152(6) 0.0555(6) -0.325(2)
C74 C -0.7963(6) 0.0330(6) -0.207(2)
C75 C -0.7877(7) -0.0159(6) -0.214(2)
C76 C -0.7895(7) -0.0396(7) -0.348(2)
C77 C -0.8075(9) -0.0147(7) -0.456(2)
C78 C -0.8198(7) 0.0318(6) -0.451(2)
C79 C -0.8767(7) 0.1255(7) -0.425(2)
C80 C -0.8799(7) 0.1720(7) -0.467(2)
C81 C -0.9244(9) 0.1847(8) -0.541(2)
C82 C -0.957(1) 0.1526(8) -0.569(2)
C83 C -0.9541(9) 0.1050(8) -0.527(3)
C84 C -0.9112(7) 0.091(1) -0.456(2)
B2 B -0.8260(8) 0.1137(7) -0.329(2)
loop_
_geom_bond_atom_site_label_1
_geom_bond_atom_site_label_2
_geom_bond_site_symmetry_1
_geom_bond_site_symmetry_2
Mn1 O1 1_555 1_555
Mn2 O2 1_555 1_555
O1 C15 1_555 1_555
O2 C15 1_555 1_555
O3 C30 1_555 1_555
O4 Mn2 1_555 1_555
O5 Mn1 1_555 1_555
N1 Mn1 1_555 1_555
N2 Mn1 1_555 1_555
N3 Mn1 1_555 1_555
N4 Mn2 1_555 1_555
N5 Mn2 1_555 1_555
N6 Mn2 1_555 1_555
N7 Mn2 1_555 1_555
N8 C34 1_555 1_555
N9 C36 1_555 1_555
C1 N1 1_555 1_555
C2 C1 1_555 1_555
C3 C2 1_555 1_555
C4 C3 1_555 1_555
C5 N1 1_555 1_555
C6 N2 1_555 1_555
C7 N2 1_555 1_555
C8 N3 1_555 1_555
C9 C8 1_555 1_555
C10 C9 1_555 1_555
C11 C10 1_555 1_555
C12 N3 1_555 1_555
C13 N2 1_555 1_555
C14 C13 1_555 1_555
C15 C14 1_555 1_555
C16 N4 1_555 1_555
C17 C16 1_555 1_555
C18 C17 1_555 1_555
C19 C18 1_555 1_555
C20 N4 1_555 1_555
C21 N5 1_555 1_555
C22 N5 1_555 1_555
C23 N6 1_555 1_555
C24 C23 1_555 1_555
C25 C24 1_555 1_555
C26 C25 1_555 1_555
C27 N6 1_555 1_555
C28 N5 1_555 1_555
C29 C28 1_555 1_555
C30 O4 1_555 1_555
C31 N7 1_555 1_555
C32 C31 1_555 1_555
C33 C34 1_555 1_555
C35 C36 1_555 1_555
C37 C38 1_555 1_555
C38 C39 1_555 1_555
C39 C40 1_555 1_555
C40 C41 1_555 1_555
C41 C42 1_555 1_555
C42 C37 1_555 1_555
C43 C44 1_555 1_555
C44 C45 1_555 1_555
C45 C46 1_555 1_555
C46 C47 1_555 1_555
C47 C48 1_555 1_555
C48 C43 1_555 1_555
C49 C50 1_555 1_555
C50 C51 1_555 1_555
C51 C52 1_555 1_555
C52 C53 1_555 1_555
C53 C54 1_555 1_555
C54 C49 1_555 1_555
C55 C56 1_555 1_555
C56 C57 1_555 1_555
C57 C58 1_555 1_555
C58 C59 1_555 1_555
C59 C60 1_555 1_555
C60 C55 1_555 1_555
C61 C62 1_555 1_555
C62 C63 1_555 1_555
C63 C64 1_555 1_555
C64 C65 1_555 1_555
C65 C66 1_555 1_555
C66 C61 1_555 1_555
C67 C68 1_555 1_555
C68 C69 1_555 1_555
C69 C70 1_555 1_555
C70 C71 1_555 1_555
C71 C72 1_555 1_555
C72 C67 1_555 1_555
C73 C74 1_555 1_555
C74 C75 1_555 1_555
C75 C76 1_555 1_555
C76 C77 1_555 1_555
C77 C78 1_555 1_555
C78 C73 1_555 1_555
C79 C80 1_555 1_555
C80 C81 1_555 1_555
C81 C82 1_555 1_555
C82 C83 1_555 1_555
C83 C84 1_555 1_555
C84 C79 1_555 1_555
B1 C37 1_555 1_555
B2 C61 1_555 1_555
O3_2 Mn1 1_555 1_555
Mn1_2 O3 1_555 1_555
C4 C5 1_555 1_555
C5 C6 1_555 1_555
C7 C8 1_555 1_555
C11 C12 1_555 1_555
C19 C20 1_555 1_555
C20 C21 1_555 1_555
C22 C23 1_555 1_555
C26 C27 1_555 1_555
C29 C30 1_555 1_555
C43 B1 1_555 1_555
C49 B1 1_555 1_555
C55 B1 1_555 1_555
C67 B2 1_555 1_555
C73 B2 1_555 1_555
C79 B2 1_555 1_555

#END
