
#######################################################################
#
#                 Cambridge Crystallographic Data Centre
#                                CCDC 
#
#######################################################################
#
# If this CIF has been generated from an entry in the Cambridge 
# Structural Database, then it will include bibliographic, chemical, 
# crystal, experimental, refinement or atomic coordinate data resulting 
# from the CCDC's data processing and validation procedures.
#
#######################################################################

data_HISHIC
_symmetry_cell_setting           monoclinic
_symmetry_space_group_name_H-M   'C 2'
_symmetry_Int_Tables_number      5
_space_group_name_Hall           'C 2y'
loop_
_symmetry_equiv_pos_site_id
_symmetry_equiv_pos_as_xyz
1 x,y,z
2 -x,y,-z
3 1/2+x,1/2+y,z
4 1/2-x,1/2+y,-z
_cell_length_a                   17.2532(5)
_cell_length_b                   12.9657(4)
_cell_length_c                   6.6115(2)
_cell_angle_alpha                90
_cell_angle_beta                 111.443(2)
_cell_angle_gamma                90
_cell_volume                     1376.62
loop_
_atom_site_label
_atom_site_type_symbol
_atom_site_fract_x
_atom_site_fract_y
_atom_site_fract_z
Mg1 Mg 0.5000 0.17878(11) 0.5000
Mg2 Mg 0.24110(6) 0.88932(8) 0.26564(15)
O1 O 0.43499(13) 0.31995(16) 0.3894(3)
O2 O 0.34071(12) 0.79326(16) 0.3220(3)
O3 O 0.28333(13) 0.64762(16) 0.1582(3)
O4 O 0.14887(12) 0.99621(15) 0.1985(3)
O5 O 0.21499(12) 1.13994(16) 0.3473(3)
O6 O 0.06903(13) 1.47778(17) 0.0747(3)
O7 O 0.41928(17) 0.0809(2) 0.2981(4)
O8 O 0.55717(14) 0.1722(2) 0.2697(3)
O9 O 0.32175(13) 0.99278(18) 0.4847(3)
O10 O 0.21855(15) 0.8250(2) 0.5274(4)
O11 O 0.15967(14) 0.78029(18) 0.0650(3)
O12 O 0.26741(14) 0.95513(18) 0.0070(3)
C1 C 0.42661(17) 0.5374(2) 0.3915(4)
C2 C 0.42567(17) 0.6434(2) 0.3940(4)
C3 C 0.5000 0.6974(3) 0.5000
C4 C 0.5000 0.4833(3) 0.5000
C5 C 0.34405(17) 0.6992(2) 0.2827(4)
C6 C 0.5000 0.3702(3) 0.5000
C7 C 0.07344(16) 1.1529(2) 0.1077(4)
C8 C 0.07316(18) 1.2599(2) 0.1056(4)
C9 C 0.0000 1.3148(3) 0.0000
C10 C 0.0000 1.0993(3) 0.0000
C11 C 0.15118(17) 1.0924(2) 0.2253(4)
C12 C 0.0000 1.4302(3) 0.0000
H1 H 0.381(3) 0.499(4) 0.334(6)
H2 H 0.5000 0.767(6) 0.5000
H3 H 0.125(3) 1.301(3) 0.178(6)
H4 H 0.0000 1.031(5) 0.0000
H5 H 0.353(3) 0.976(4) 0.634(7)
H6 H 0.290(3) 1.038(4) 0.466(7)
H7 H 0.185(3) 0.832(4) 0.548(7)
H8 H 0.239(3) 0.767(4) 0.564(7)
H9 H 0.127(3) 0.798(4) -0.061(7)
H10 H 0.198(3) 0.729(4) 0.070(7)
H11 H 0.309(3) 0.936(4) -0.039(6)
H12 H 0.246(3) 1.019(4) -0.046(6)
H13 H 0.416(2) 0.041(3) 0.179(7)
H14 H 0.386(3) 0.053(4) 0.344(6)
H15 H 0.581(3) 0.212(4) 0.210(7)
H16 H 0.555(2) 0.103(4) 0.176(6)
O1A O 0.56501(13) 0.31995(16) 0.6106(3)
O2A O 0.65929(12) 0.79326(16) 0.6780(3)
O3A O 0.71667(13) 0.64762(16) 0.8418(3)
C1A C 0.57339(17) 0.5374(2) 0.6085(4)
C2A C 0.57433(17) 0.6434(2) 0.6060(4)
C5A C 0.65595(17) 0.6992(2) 0.7173(4)
H1A H 0.619(3) 0.499(4) 0.666(6)
O4A O -0.14887(12) 0.99621(15) -0.1985(3)
O5A O -0.21499(12) 1.13994(16) -0.3473(3)
O6A O -0.06903(13) 1.47778(17) -0.0747(3)
C7A C -0.07344(16) 1.1529(2) -0.1077(4)
C8A C -0.07316(18) 1.2599(2) -0.1056(4)
C11A C -0.15118(17) 1.0924(2) -0.2253(4)
H3A H -0.125(3) 1.301(3) -0.178(6)
Mg2A Mg -0.24110(6) 0.88932(8) -0.26564(15)
O9A O -0.32175(13) 0.99278(18) -0.4847(3)
O10A O -0.21855(15) 0.8250(2) -0.5274(4)
O11A O -0.15967(14) 0.78029(18) -0.0650(3)
O12A O -0.26741(14) 0.95513(18) -0.0070(3)
H5A H -0.353(3) 0.976(4) -0.634(7)
H6A H -0.290(3) 1.038(4) -0.466(7)
H7A H -0.185(3) 0.832(4) -0.548(7)
H8A H -0.239(3) 0.767(4) -0.564(7)
H9A H -0.127(3) 0.798(4) 0.061(7)
H10A H -0.198(3) 0.729(4) -0.070(7)
H11A H -0.309(3) 0.936(4) 0.039(6)
H12A H -0.246(3) 1.019(4) 0.046(6)
O7A O 0.58072(17) 0.0809(2) 0.7019(4)
H13A H 0.584(2) 0.041(3) 0.821(7)
H14A H 0.614(3) 0.053(4) 0.656(6)
O8A O 0.44283(14) 0.1722(2) 0.7303(3)
H15A H 0.419(3) 0.212(4) 0.790(7)
H16A H 0.445(2) 0.103(4) 0.824(6)
Mg2A_2 Mg 0.75890(6) 0.88932(8) 0.73436(15)
O2A_2 O -0.34071(12) 0.79326(16) -0.3220(3)
loop_
_geom_bond_atom_site_label_1
_geom_bond_atom_site_label_2
_geom_bond_site_symmetry_1
_geom_bond_site_symmetry_2
Mg1 O1 1_555 1_555
Mg2 O2 1_555 1_555
O1 C6 1_555 1_555
O2 C5 1_555 1_555
O3 C5 1_555 1_555
O4 Mg2 1_555 1_555
O5 C11 1_555 1_555
O6 C12 1_555 1_555
O7 Mg1 1_555 1_555
O8 Mg1 1_555 1_555
O9 Mg2 1_555 1_555
O10 Mg2 1_555 1_555
O11 Mg2 1_555 1_555
O12 Mg2 1_555 1_555
C1 C2 1_555 1_555
C2 C3 1_555 1_555
C3 H2 1_555 1_555
C4 C1 1_555 1_555
C5 C2 1_555 1_555
C6 C4 1_555 1_555
C7 C8 1_555 1_555
C8 C9 1_555 1_555
C9 C12 1_555 1_555
C10 C7 1_555 1_555
C11 O4 1_555 1_555
C12 O6A 1_555 1_555
H1 C1 1_555 1_555
H3 C8 1_555 1_555
H4 C10 1_555 1_555
H5 O9 1_555 1_555
H6 O9 1_555 1_555
H7 O10 1_555 1_555
H8 O10 1_555 1_555
H9 O11 1_555 1_555
H10 O11 1_555 1_555
H11 O12 1_555 1_555
H12 O12 1_555 1_555
H13 O7 1_555 1_555
H14 O7 1_555 1_555
H15 O8 1_555 1_555
H16 O8 1_555 1_555
O1A Mg1 1_555 1_555
O2A C5A 1_555 1_555
O3A C5A 1_555 1_555
C1A C4 1_555 1_555
C2A C3 1_555 1_555
C5A C2A 1_555 1_555
H1A C1A 1_555 1_555
O4A C11A 1_555 1_555
O5A C11A 1_555 1_555
C7A C10 1_555 1_555
C8A C9 1_555 1_555
C11A C7A 1_555 1_555
H3A C8A 1_555 1_555
Mg2A O4A 1_555 1_555
O9A Mg2A 1_555 1_555
O10A Mg2A 1_555 1_555
O11A Mg2A 1_555 1_555
O12A Mg2A 1_555 1_555
H5A O9A 1_555 1_555
H6A O9A 1_555 1_555
H7A O10A 1_555 1_555
H8A O10A 1_555 1_555
H9A O11A 1_555 1_555
H10A O11A 1_555 1_555
H11A O12A 1_555 1_555
H12A O12A 1_555 1_555
O7A Mg1 1_555 1_555
H13A O7A 1_555 1_555
H14A O7A 1_555 1_555
O8A Mg1 1_555 1_555
H15A O8A 1_555 1_555
H16A O8A 1_555 1_555
Mg2A_2 O2A 1_555 1_555
O2A_2 Mg2A 1_555 1_555
C6 O1A 1_555 1_555
C7 C11 1_555 1_555
C1A C2A 1_555 1_555
C7A C8A 1_555 1_555

#END
