
#######################################################################
#
#                 Cambridge Crystallographic Data Centre
#                                CCDC 
#
#######################################################################
#
# If this CIF has been generated from an entry in the Cambridge 
# Structural Database, then it will include bibliographic, chemical, 
# crystal, experimental, refinement or atomic coordinate data resulting 
# from the CCDC's data processing and validation procedures.
#
#######################################################################

data_HISHOI
_symmetry_cell_setting           triclinic
_symmetry_space_group_name_H-M   'P -1'
_symmetry_Int_Tables_number      2
_space_group_name_Hall           '-P 1'
loop_
_symmetry_equiv_pos_site_id
_symmetry_equiv_pos_as_xyz
1 x,y,z
2 -x,-y,-z
_cell_length_a                   7.8423(5)
_cell_length_b                   8.7463(5)
_cell_length_c                   10.7163(8)
_cell_angle_alpha                101.274(3)
_cell_angle_beta                 91.868(3)
_cell_angle_gamma                96.042(3)
_cell_volume                     715.788
loop_
_atom_site_label
_atom_site_type_symbol
_atom_site_fract_x
_atom_site_fract_y
_atom_site_fract_z
Mg1 Mg 0.3558(3) 0.8604(3) 0.5006(2)
Mg2 Mg 0.4471(3) 1.1312(3) 0.8009(2)
O1 O 0.6066(7) 1.3293(6) 0.8057(5)
O2 O 0.7519(7) 1.3311(6) 0.6304(5)
O3 O 0.7655(7) 1.7413(6) 1.1979(5)
O4 O 1.0292(7) 1.8642(7) 1.2070(6)
O5 O 1.1874(7) 1.7906(7) 0.6250(5)
O6 O 1.2850(7) 1.9395(6) 0.8120(5)
O7 O 0.4581(5) 1.0684(5) 0.6106(4)
O8 O 0.5403(8) 0.7393(7) 0.5824(6)
O9 O 0.1764(8) 0.9860(7) 0.4357(6)
O10 O 0.4733(7) 1.1796(7) 0.9988(5)
O11 O 0.6533(7) 0.9892(6) 0.8103(5)
C1 C 0.8321(9) 1.5305(9) 0.8123(7)
C2 C 0.8151(10) 1.5872(9) 0.9413(7)
C3 C 0.9183(10) 1.7172(9) 1.0061(7)
C4 C 1.0372(10) 1.7983(9) 0.9415(7)
C5 C 1.0548(9) 1.7445(9) 0.8110(7)
C6 C 0.9511(10) 1.6129(9) 0.7473(8)
C7 C 0.7215(9) 1.3856(9) 0.7437(8)
C8 C 0.9026(10) 1.7807(9) 1.1479(7)
C9 C 1.1849(10) 1.8328(9) 0.7441(8)
H1 H 1.047(15) 1.969(5) 1.195(11)
H2 H 0.746(15) 1.546(14) 0.996(11)
H3 H 1.101(15) 1.886(15) 0.984(11)
H4 H 0.937(15) 1.589(14) 0.653(12)
H5 H 0.564(14) 0.651(9) 0.617(10)
H6 H 0.074(8) 0.943(13) 0.386(10)
H7 H 0.218(14) 0.919(12) 0.365(7)
H8 H 0.406(12) 1.123(12) 1.051(9)
H9 H 0.555(11) 1.118(11) 1.026(11)
H10 H 0.756(8) 1.053(11) 0.845(10)
Mg1_2 Mg 1.3558(3) 1.8604(3) 0.5006(2)
Mg1A Mg 0.6442(3) 1.1396(3) 0.4994(2)
Mg2_2 Mg 1.4471(3) 2.1312(3) 0.8009(2)
Mg2A Mg 0.5529(3) 1.8688(3) 1.1991(2)
O2A O 0.2481(7) 0.6689(6) 0.3696(5)
O3A O 0.2345(7) 1.2587(6) 0.8021(5)
O5_2 O 0.1874(7) 0.7906(7) 0.6250(5)
O6_2 O 0.2850(7) 0.9395(6) 0.8120(5)
O7A O 0.5419(5) 0.9316(5) 0.3894(4)
O12 O 0.1482(9) 1.2942(8) 0.5552(6)
H11 H 0.032(5) 1.312(14) 0.568(11)
H12 H 0.139(15) 1.354(12) 0.491(8)
O13 O 0.4007(10) 0.5705(9) 0.7619(10)
H13 H 0.475(12) 0.498(10) 0.782(11)
H14 H 0.308(10) 0.629(12) 0.787(11)
loop_
_geom_bond_atom_site_label_1
_geom_bond_atom_site_label_2
_geom_bond_site_symmetry_1
_geom_bond_site_symmetry_2
Mg1 O7 1_555 1_555
Mg2 O1 1_555 1_555
O1 C7 1_555 1_555
O2 C7 1_555 1_555
O3 C8 1_555 1_555
O4 C8 1_555 1_555
O5 C9 1_555 1_555
O6 C9 1_555 1_555
O7 Mg2 1_555 1_555
O8 Mg1 1_555 1_555
O9 Mg1 1_555 1_555
O10 Mg2 1_555 1_555
O11 Mg2 1_555 1_555
C1 C2 1_555 1_555
C2 C3 1_555 1_555
C3 C4 1_555 1_555
C4 C5 1_555 1_555
C5 C6 1_555 1_555
C6 C1 1_555 1_555
C7 C1 1_555 1_555
C8 C3 1_555 1_555
C9 C5 1_555 1_555
H1 O4 1_555 1_555
H2 C2 1_555 1_555
H3 C4 1_555 1_555
H4 C6 1_555 1_555
H5 O8 1_555 1_555
H6 O9 1_555 1_555
H7 O9 1_555 1_555
H8 O10 1_555 1_555
H9 O10 1_555 1_555
H10 O11 1_555 1_555
O12 H11 1_555 1_555
H12 O12 1_555 1_555
O13 H13 1_555 1_555
H14 O13 1_555 1_555
Mg1_2 O5 1_555 1_555
Mg1A O2 1_555 1_555
Mg2_2 O6 1_555 1_555
Mg2A O3 1_555 1_555
O2A Mg1 1_555 1_555
O3A Mg2 1_555 1_555
O5_2 Mg1 1_555 1_555
O6_2 Mg2 1_555 1_555
O7A Mg1 1_555 1_555
O7 Mg1A 1_555 1_555
Mg1A O7A 1_555 1_555

#END
