
#######################################################################
#
#                 Cambridge Crystallographic Data Centre
#                                CCDC 
#
#######################################################################
#
# If this CIF has been generated from an entry in the Cambridge 
# Structural Database, then it will include bibliographic, chemical, 
# crystal, experimental, refinement or atomic coordinate data resulting 
# from the CCDC's data processing and validation procedures.
#
#######################################################################

data_HISHUO
_symmetry_cell_setting           triclinic
_symmetry_space_group_name_H-M   'P -1'
_symmetry_Int_Tables_number      2
_space_group_name_Hall           '-P 1'
loop_
_symmetry_equiv_pos_site_id
_symmetry_equiv_pos_as_xyz
1 x,y,z
2 -x,-y,-z
_cell_length_a                   7.7922(2)
_cell_length_b                   7.7932(2)
_cell_length_c                   7.7929(2)
_cell_angle_alpha                66.135(4)
_cell_angle_beta                 66.148(4)
_cell_angle_gamma                66.148(4)
_cell_volume                     379.056
loop_
_atom_site_label
_atom_site_type_symbol
_atom_site_fract_x
_atom_site_fract_y
_atom_site_fract_z
Mg1 Mg -0.1617(3) -0.1626(3) 1.3383(3)
Mg2 Mg 0.0000 0.0000 0.5000
O1 O -0.2221(7) 0.5843(7) 0.4787(7)
O2 O -0.1030(6) 0.2592(6) 0.5728(6)
O3 O -0.4147(6) -0.0212(7) 1.2765(6)
O4 O -0.7405(6) 0.0737(7) 1.3969(6)
O5 O -1.0217(7) 0.7776(7) 1.0843(6)
O6 O -0.9275(6) 0.8963(6) 0.7596(6)
C1 C -0.4283(8) 0.4051(9) 0.7455(8)
C2 C -0.4284(9) 0.2443(9) 0.9077(9)
C3 C -0.5941(8) 0.2453(9) 1.0733(8)
C4 C -0.7570(9) 0.4077(9) 1.0717(9)
C5 C -0.7557(8) 0.5725(9) 0.9068(9)
C6 C -0.5922(9) 0.5710(10) 0.7442(9)
C7 C -0.2386(9) 0.4175(9) 0.5836(9)
C8 C -0.5828(9) 0.0830(9) 1.2614(9)
C9 C -0.9161(8) 0.7618(9) 0.9176(9)
H1 H -0.339(14) 0.124(15) 0.904(13)
H2 H -0.866(13) 0.360(14) 1.199(14)
H3 H -0.586(13) 0.663(14) 0.625(15)
Mg1A Mg -0.8383(3) 0.1626(3) 0.6617(3)
O1A O -0.7779(7) -0.5843(7) 1.5213(7)
O2A O -0.8970(6) -0.2592(6) 1.4272(6)
O3A O -0.5853(6) 0.0212(7) 0.7235(6)
O4A O -0.2595(6) -0.0737(7) 0.6031(6)
O5A O 0.0217(7) -0.7776(7) 0.9157(6)
O6A O -0.0725(6) -0.8963(6) 1.2404(6)
C1A C -0.5717(8) -0.4051(9) 1.2545(8)
C2A C -0.5716(9) -0.2443(9) 1.0923(9)
C3A C -0.4059(8) -0.2453(9) 0.9267(8)
C4A C -0.2430(9) -0.4077(9) 0.9283(9)
C5A C -0.2443(8) -0.5725(9) 1.0932(9)
C6A C -0.4078(9) -0.5710(10) 1.2558(9)
C7A C -0.7614(9) -0.4175(9) 1.4164(9)
C8A C -0.4172(9) -0.0830(9) 0.7386(9)
C9A C -0.0839(8) -0.7618(9) 1.0824(9)
H1A H -0.661(14) -0.124(15) 1.096(13)
H2A H -0.134(13) -0.360(14) 0.801(14)
H3A H -0.414(13) -0.663(14) 1.375(15)
Mg1_2 Mg -1.1617(3) -0.1626(3) 1.3383(3)
Mg1_3 Mg -1.1617(3) 0.8374(3) 1.3383(3)
Mg1_4 Mg -0.1617(3) -1.1626(3) 1.3383(3)
Mg1_5 Mg -0.1617(3) -0.1626(3) 0.3383(3)
Mg1_6 Mg -0.1617(3) 0.8374(3) 0.3383(3)
Mg1A_2 Mg -0.8383(3) -0.8374(3) 1.6617(3)
Mg1A_3 Mg -0.8383(3) 0.1626(3) 1.6617(3)
Mg1A_4 Mg -0.8383(3) 1.1626(3) 0.6617(3)
Mg1A_5 Mg 0.1617(3) -0.8374(3) 0.6617(3)
Mg1A_6 Mg 0.1617(3) 0.1626(3) 0.6617(3)
Mg2_2 Mg -1.0000 0.0000 1.5000
Mg2_3 Mg -1.0000 1.0000 0.5000
Mg2_4 Mg 0.0000 -1.0000 1.5000
O1_2 O -0.2221(7) -0.4157(7) 1.4787(7)
O1A_2 O -0.7779(7) 0.4157(7) 0.5213(7)
O2_2 O -1.1030(6) 0.2592(6) 0.5728(6)
O2A_2 O 0.1030(6) -0.2592(6) 0.4272(6)
O2A_3 O 0.1030(6) -0.2592(6) 1.4272(6)
O4_2 O -0.7405(6) 0.0737(7) 0.3969(6)
O4_3 O 0.2595(6) 0.0737(7) 0.3969(6)
O4A_2 O -0.2595(6) -0.0737(7) 1.6031(6)
O5_2 O -0.0217(7) -0.2224(7) 1.0843(6)
O5A_2 O -0.9783(7) 0.2224(7) 0.9157(6)
O6_2 O -0.9275(6) -0.1037(6) 0.7596(6)
O6_3 O 0.0725(6) -0.1037(6) 0.7596(6)
O6A_2 O -0.0725(6) 0.1037(6) 0.2404(6)
O6A_3 O -0.0725(6) 0.1037(6) 1.2404(6)
loop_
_geom_bond_atom_site_label_1
_geom_bond_atom_site_label_2
_geom_bond_site_symmetry_1
_geom_bond_site_symmetry_2
Mg1 O3 1_555 1_555
Mg2 O2 1_555 1_555
O1 C7 1_555 1_555
O2 C7 1_555 1_555
O3 C8 1_555 1_555
O4 C8 1_555 1_555
O5 C9 1_555 1_555
O6 C9 1_555 1_555
C1 C2 1_555 1_555
C2 C3 1_555 1_555
C3 C4 1_555 1_555
C4 C5 1_555 1_555
C5 C6 1_555 1_555
C6 C1 1_555 1_555
C7 C1 1_555 1_555
C8 C3 1_555 1_555
C9 C5 1_555 1_555
H1 C2 1_555 1_555
H2 C4 1_555 1_555
H3 C6 1_555 1_555
Mg1A O3A 1_555 1_555
O1A C7A 1_555 1_555
O2A C7A 1_555 1_555
O3A C8A 1_555 1_555
O4A Mg2 1_555 1_555
O5A C9A 1_555 1_555
O6A C9A 1_555 1_555
C1A C2A 1_555 1_555
C2A C3A 1_555 1_555
C3A C4A 1_555 1_555
C4A C5A 1_555 1_555
C5A C6A 1_555 1_555
C6A C1A 1_555 1_555
C7A C1A 1_555 1_555
C8A O4A 1_555 1_555
C9A C5A 1_555 1_555
H1A C2A 1_555 1_555
H2A C4A 1_555 1_555
H3A C6A 1_555 1_555
Mg1_2 O2A 1_555 1_555
Mg1_3 O5 1_555 1_555
Mg1_4 O6A 1_555 1_555
Mg1_5 O4A 1_555 1_555
Mg1_6 O1 1_555 1_555
Mg1A_2 O1A 1_555 1_555
Mg1A_3 O4 1_555 1_555
Mg1A_4 O6 1_555 1_555
Mg1A_5 O5A 1_555 1_555
Mg1A_6 O2 1_555 1_555
Mg2_2 O4 1_555 1_555
Mg2_3 O6 1_555 1_555
Mg2_4 O6A 1_555 1_555
O1_2 Mg1 1_555 1_555
O1A_2 Mg1A 1_555 1_555
O2_2 Mg1A 1_555 1_555
O2A_2 Mg2 1_555 1_555
O2A_3 Mg1 1_555 1_555
O4_2 Mg1A 1_555 1_555
O4_3 Mg2 1_555 1_555
O4A_2 Mg1 1_555 1_555
O5_2 Mg1 1_555 1_555
O5A_2 Mg1A 1_555 1_555
O6_2 Mg1A 1_555 1_555
O6_3 Mg2 1_555 1_555
O6A_2 Mg2 1_555 1_555
O6A_3 Mg1 1_555 1_555
O2A Mg2_2 1_555 1_555
C3A C8A 1_555 1_555
Mg1_5 O2A_2 1_555 1_555
Mg1_5 O6A_2 1_555 1_555
Mg1A_6 O4_3 1_555 1_555
Mg1A_6 O6_3 1_555 1_555

#END
