
#######################################################################
#
#                 Cambridge Crystallographic Data Centre
#                                CCDC 
#
#######################################################################
#
# If this CIF has been generated from an entry in the Cambridge 
# Structural Database, then it will include bibliographic, chemical, 
# crystal, experimental, refinement or atomic coordinate data resulting 
# from the CCDC's data processing and validation procedures.
#
#######################################################################

data_HISJEA
_symmetry_cell_setting           triclinic
_symmetry_space_group_name_H-M   'P -1'
_symmetry_Int_Tables_number      2
_space_group_name_Hall           '-P 1'
loop_
_symmetry_equiv_pos_site_id
_symmetry_equiv_pos_as_xyz
1 x,y,z
2 -x,-y,-z
_cell_length_a                   11.0815(14)
_cell_length_b                   12.6742(19)
_cell_length_c                   14.523(2)
_cell_angle_alpha                91.853(8)
_cell_angle_beta                 92.757(6)
_cell_angle_gamma                97.818(9)
_cell_volume                     2016.89
loop_
_atom_site_label
_atom_site_type_symbol
_atom_site_fract_x
_atom_site_fract_y
_atom_site_fract_z
Co1 Co 0.41050(4) 0.47845(4) 0.40414(3)
Co2 Co 0.58459(4) 0.73763(4) 0.35260(3)
Co3 Co 0.30715(4) 0.64276(4) 0.27095(3)
O1 O 0.5997(2) 0.4914(2) 0.44697(16)
O2 O 0.6941(2) 0.6105(2) 0.35369(17)
O3 O 1.2205(2) 0.4555(2) 0.3830(2)
O4 O 1.1438(2) 0.5909(2) 0.3158(2)
O5 O 0.4014(3) 0.3234(2) 0.4285(2)
O6 O 0.3863(4) 0.1889(2) 0.51981(19)
O7 O 0.3058(3) -0.2069(2) 0.24351(18)
O8 O 0.4792(3) -0.1394(2) 0.32408(19)
O9 O 0.5545(3) 0.6961(2) 0.20770(17)
O10 O 0.6948(3) 0.5955(3) 0.16636(19)
H1 H 0.7057 0.5927 0.2224
O11 O 0.5572(3) 0.5453(2) -0.26737(17)
O12 O 0.6741(2) 0.4632(2) -0.17146(17)
O13 O 0.4234(2) 0.63979(19) 0.38033(15)
H2 H 0.3885 0.6735 0.4326
O14 O 0.7435(4) 0.8413(3) 0.3163(3)
C1 C 0.6893(3) 0.5270(3) 0.3993(2)
C2 C 0.7951(3) 0.4642(3) 0.3971(2)
C3 C 0.9091(3) 0.5117(3) 0.3736(2)
H3 H 0.9202 0.5815 0.3544
C4 C 1.0072(3) 0.4529(3) 0.3793(3)
C5 C 0.9896(3) 0.3490(3) 0.4063(3)
H4 H 1.0565 0.3121 0.4108
C6 C 0.8741(3) 0.2962(3) 0.4276(3)
C7 C 0.7773(3) 0.3569(3) 0.4224(2)
H5 H 0.6997 0.3257 0.4360
C8 C 1.1336(3) 0.5043(3) 0.3578(3)
C9 C 0.8586(4) 0.1797(3) 0.4562(3)
C10 C 0.9208(5) 0.1113(4) 0.3899(4)
H6 H 0.8840 0.1132 0.3289
H7 H 0.9115 0.0391 0.4094
H8 H 1.0060 0.1384 0.3897
C11 C 0.7236(5) 0.1320(4) 0.4574(5)
H9 H 0.6859 0.1327 0.3966
H10 H 0.6830 0.1735 0.4994
H11 H 0.7177 0.0599 0.4770
C12 C 0.9165(2) 0.17727(18) 0.55532(15)
H12 H 1.0011 0.2067 0.5561
H13 H 0.9094 0.1050 0.5744
H14 H 0.8750 0.2186 0.5968
C13 C 0.3437(2) 0.15181(18) 0.36007(15)
C14 C 0.3815(2) 0.04982(18) 0.35902(15)
H15 H 0.4332 0.0306 0.4060
C15 C 0.3392(3) -0.0214(3) 0.2856(2)
C16 C 0.2600(3) 0.0075(3) 0.2174(2)
H16 H 0.2297 -0.0422 0.1706
C17 C 0.2241(3) 0.1088(3) 0.2164(2)
C18 C 0.2685(3) 0.1803(3) 0.2890(2)
H17 H 0.2471 0.2488 0.2897
C19 C 0.3792(3) -0.1301(3) 0.2844(2)
C20 C 0.1391(4) 0.1386(3) 0.1375(3)
C21 C 0.0233(4) 0.0554(4) 0.1289(4)
H18 H -0.0189 0.0565 0.1851
H19 H 0.0458 -0.0142 0.1179
H20 H -0.0291 0.0721 0.0785
C22 C 0.2047(5) 0.1351(4) 0.0465(3)
H21 H 0.2773 0.1862 0.0508
H22 H 0.1515 0.1520 -0.0034
H23 H 0.2260 0.0651 0.0356
C23 C 0.1021(5) 0.2486(4) 0.1525(3)
H24 H 0.1737 0.3008 0.1575
H25 H 0.0590 0.2507 0.2081
H26 H 0.0501 0.2637 0.1011
C24 C 0.6059(3) 0.6512(3) 0.1477(2)
C25 C 0.5678(3) 0.6556(3) 0.0483(2)
C26 C 0.4824(4) 0.7219(3) 0.0268(3)
H27 H 0.4525 0.7607 0.0739
C27 C 0.4397(4) 0.7322(4) -0.0645(3)
C28 C 0.4861(4) 0.6708(3) -0.1323(3)
H28 H 0.4605 0.6768 -0.1936
C29 C 0.5695(3) 0.6007(3) -0.1113(2)
C30 C 0.6120(3) 0.5933(3) -0.0201(2)
H29 H 0.6686 0.5478 -0.0051
C31 C 0.6044(3) 0.5326(3) -0.1895(2)
C32 C 0.3442(6) 0.8065(6) -0.0914(3)
C33 C 0.2764(9) 0.8359(9) -0.0107(6)
H30 H 0.2180 0.8813 -0.0297
H31 H 0.3327 0.8728 0.0357
H32 H 0.2348 0.7725 0.0141
C34 C 0.3945(13) 0.8868(11) -0.1525(10)
H33 H 0.3343 0.9318 -0.1683
H34 H 0.4182 0.8529 -0.2076
H35 H 0.4646 0.9290 -0.1223
C35 C 0.2443(9) 0.7419(9) -0.1568(7)
H36 H 0.1838 0.7862 -0.1740
H37 H 0.2066 0.6812 -0.1258
H38 H 0.2805 0.7182 -0.2111
C36 C 0.3813(3) 0.2282(3) 0.4418(2)
Co1_2 Co 1.41050(4) 0.47845(4) 0.40414(3)
Co1A Co 0.58950(4) 0.52155(4) -0.40414(3)
Co1A_2 Co 0.58950(4) 0.52155(4) 0.59586(3)
Co2_2 Co 0.58459(4) -0.26237(4) 0.35260(3)
Co2A Co 0.41541(4) 0.26237(4) 0.64740(3)
Co3_2 Co 0.30715(4) -0.35724(4) 0.27095(3)
Co3_3 Co 1.30715(4) 0.64276(4) 0.27095(3)
Co3A Co 0.69285(4) 0.35724(4) -0.27095(3)
O1A O 0.4003(2) 0.5086(2) 0.55303(16)
O3_2 O 0.2205(2) 0.4555(2) 0.3830(2)
O4_2 O 0.1438(2) 0.5909(2) 0.3158(2)
O6A O 0.6137(4) 0.8111(2) 0.48019(19)
O7_2 O 0.3058(3) 0.7931(2) 0.24351(18)
O8_2 O 0.4792(3) 0.8606(2) 0.32408(19)
O11A O 0.4428(3) 0.4547(2) 0.26737(17)
O12A O 0.3259(2) 0.5368(2) 0.17146(17)
N1 N 0.9478(12) 0.7808(11) 0.2155(10)
C37 C 0.9676(18) 0.7081(18) 0.1661(14)
C38 C 1.0038(18) 0.5944(18) 0.1012(14)
H39 H 1.0688 0.6165 0.0618
H40 H 0.9331 0.5626 0.0644
H41 H 1.0287 0.5432 0.1429
loop_
_geom_bond_atom_site_label_1
_geom_bond_atom_site_label_2
_geom_bond_site_symmetry_1
_geom_bond_site_symmetry_2
Co1 O1 1_555 1_555
Co2 O2 1_555 1_555
Co3 O13 1_555 1_555
O1 C1 1_555 1_555
O2 C1 1_555 1_555
O3 C8 1_555 1_555
O4 C8 1_555 1_555
O5 Co1 1_555 1_555
O6 C36 1_555 1_555
O7 C19 1_555 1_555
O8 C19 1_555 1_555
O9 Co2 1_555 1_555
O10 H1 1_555 1_555
O11 C31 1_555 1_555
O12 C31 1_555 1_555
O13 Co1 1_555 1_555
H2 O13 1_555 1_555
O14 Co2 1_555 1_555
C1 C2 1_555 1_555
C2 C3 1_555 1_555
C3 H3 1_555 1_555
C4 C3 1_555 1_555
C5 C4 1_555 1_555
H4 C5 1_555 1_555
C6 C5 1_555 1_555
C7 C2 1_555 1_555
H5 C7 1_555 1_555
C8 C4 1_555 1_555
C9 C6 1_555 1_555
C10 C9 1_555 1_555
H6 C10 1_555 1_555
H7 C10 1_555 1_555
H8 C10 1_555 1_555
C11 C9 1_555 1_555
H9 C11 1_555 1_555
H10 C11 1_555 1_555
H11 C11 1_555 1_555
C12 C9 1_555 1_555
H12 C12 1_555 1_555
H13 C12 1_555 1_555
H14 C12 1_555 1_555
C13 C14 1_555 1_555
C14 H15 1_555 1_555
C15 C14 1_555 1_555
C16 C15 1_555 1_555
H16 C16 1_555 1_555
C17 C16 1_555 1_555
C18 C13 1_555 1_555
H17 C18 1_555 1_555
C19 C15 1_555 1_555
C20 C17 1_555 1_555
C21 C20 1_555 1_555
H18 C21 1_555 1_555
H19 C21 1_555 1_555
H20 C21 1_555 1_555
C22 C20 1_555 1_555
H21 C22 1_555 1_555
H22 C22 1_555 1_555
H23 C22 1_555 1_555
C23 C20 1_555 1_555
H24 C23 1_555 1_555
H25 C23 1_555 1_555
H26 C23 1_555 1_555
C24 O9 1_555 1_555
C25 C24 1_555 1_555
C26 C25 1_555 1_555
H27 C26 1_555 1_555
C27 C26 1_555 1_555
C28 C27 1_555 1_555
H28 C28 1_555 1_555
C29 C28 1_555 1_555
C30 C25 1_555 1_555
H29 C30 1_555 1_555
C31 C29 1_555 1_555
C32 C27 1_555 1_555
C33 C32 1_555 1_555
H30 C33 1_555 1_555
H31 C33 1_555 1_555
H32 C33 1_555 1_555
C34 C32 1_555 1_555
H33 C34 1_555 1_555
H34 C34 1_555 1_555
H35 C34 1_555 1_555
C35 C32 1_555 1_555
H36 C35 1_555 1_555
H37 C35 1_555 1_555
H38 C35 1_555 1_555
C36 O5 1_555 1_555
N1 C37 1_555 1_555
C37 C38 1_555 1_555
C38 H39 1_555 1_555
H40 C38 1_555 1_555
H41 C38 1_555 1_555
Co1_2 O3 1_555 1_555
Co1A O11 1_555 1_555
Co1A_2 O1 1_555 1_555
Co2_2 O8 1_555 1_555
Co2A O6 1_555 1_555
Co3_2 O7 1_555 1_555
Co3_3 O4 1_555 1_555
Co3A O12 1_555 1_555
O1A Co1 1_555 1_555
O3_2 Co1 1_555 1_555
O4_2 Co3 1_555 1_555
O6A Co2 1_555 1_555
O7_2 Co3 1_555 1_555
O8_2 Co2 1_555 1_555
O11A Co1 1_555 1_555
O12A Co3 1_555 1_555
Co2 O13 1_555 1_555
O10 C24 1_555 1_555
C6 C7 1_555 1_555
C13 C36 1_555 1_555
C17 C18 1_555 1_555
C29 C30 1_555 1_555
Co1A_2 O1A 1_555 1_555

#END
