
#######################################################################
#
#                 Cambridge Crystallographic Data Centre
#                                CCDC 
#
#######################################################################
#
# If this CIF has been generated from an entry in the Cambridge 
# Structural Database, then it will include bibliographic, chemical, 
# crystal, experimental, refinement or atomic coordinate data resulting 
# from the CCDC's data processing and validation procedures.
#
#######################################################################

data_HISLEB
_symmetry_cell_setting           triclinic
_symmetry_space_group_name_H-M   'P -1'
_symmetry_Int_Tables_number      2
_space_group_name_Hall           '-P 1'
loop_
_symmetry_equiv_pos_site_id
_symmetry_equiv_pos_as_xyz
1 x,y,z
2 -x,-y,-z
_cell_length_a                   8.1354(16)
_cell_length_b                   9.4770(19)
_cell_length_c                   10.094(2)
_cell_angle_alpha                84.66(3)
_cell_angle_beta                 67.17(3)
_cell_angle_gamma                65.36(3)
_cell_volume                     649.765
loop_
_atom_site_label
_atom_site_type_symbol
_atom_site_fract_x
_atom_site_fract_y
_atom_site_fract_z
Ni1 Ni 0.69698(7) 0.51940(6) 0.47848(5)
N1 N 0.7466(6) 0.3698(5) 0.6423(4)
N2 N 0.6740(6) 0.6716(5) 0.3143(4)
N3 N 0.3937(5) 0.6239(5) 0.5965(4)
N4 N 0.3021(5) 0.7109(4) 0.7033(4)
N5 N 0.2148(8) 0.7941(6) 0.8059(5)
N6 N 0.7515(6) 0.6794(5) 0.5723(5)
N7 N 0.8790(5) 0.6417(4) 0.6133(4)
N8 N 0.9965(5) 0.3918(5) 0.3418(4)
C1 C 0.6961(8) 0.4251(7) 0.7757(5)
H1 H 0.6229 0.5315 0.8003
C2 C 0.7475(9) 0.3319(7) 0.8788(6)
H2 H 0.7078 0.3749 0.9710
C3 C 0.8581(9) 0.1744(7) 0.8438(6)
H3 H 0.8990 0.1093 0.9102
C4 C 0.9060(11) 0.1169(7) 0.7085(7)
H4 H 0.9752 0.0104 0.6824
C5 C 0.8511(10) 0.2176(7) 0.6114(6)
H5 H 0.8893 0.1767 0.5187
C6 C 0.5810(9) 0.8266(7) 0.3467(7)
H6 H 0.5188 0.8644 0.4432
C7 C 0.5738(11) 0.9323(8) 0.2428(9)
H7 H 0.5109 1.0390 0.2685
C8 C 0.6626(11) 0.8754(9) 0.0997(9)
H8 H 0.6603 0.9436 0.0272
C9 C 0.7538(9) 0.7183(9) 0.0657(7)
H9 H 0.8133 0.6778 -0.0299
C10 C 0.7559(8) 0.6207(7) 0.1759(5)
H10 H 0.8180 0.5138 0.1520
Ni1A Ni 0.30302(7) 0.48060(6) 0.52152(5)
Ni1A_2 Ni 1.30302(7) 0.48060(6) 0.52152(5)
N1A N 0.2534(6) 0.6302(5) 0.3577(4)
N2A N 0.3260(6) 0.3284(5) 0.6857(4)
N3A N 0.6063(5) 0.3761(5) 0.4035(4)
N4A N 0.6979(5) 0.2891(4) 0.2967(4)
N5A N 0.7852(8) 0.2059(6) 0.1941(5)
N6A N 1.2485(6) 0.3206(5) 0.4277(5)
N6A_2 N 0.2485(6) 0.3206(5) 0.4277(5)
N7A N 1.1210(5) 0.3583(4) 0.3867(4)
N8A N 1.0035(5) 0.6082(5) 0.6582(4)
N8A_2 N 0.0035(5) 0.6082(5) 0.6582(4)
C1A C 0.3039(8) 0.5749(7) 0.2243(5)
H1A H 0.3771 0.4685 0.1997
C2A C 0.2525(9) 0.6681(7) 0.1212(6)
H2A H 0.2922 0.6251 0.0290
C3A C 0.1419(9) 0.8256(7) 0.1562(6)
H3A H 0.1010 0.8907 0.0898
C4A C 0.0940(11) 0.8831(7) 0.2915(7)
H4A H 0.0248 0.9896 0.3176
C5A C 0.1489(10) 0.7824(7) 0.3886(6)
H5A H 0.1107 0.8233 0.4813
C6A C 0.4190(9) 0.1734(7) 0.6533(7)
H6A H 0.4812 0.1356 0.5568
C7A C 0.4262(11) 0.0677(8) 0.7572(9)
H7A H 0.4891 -0.0390 0.7315
C8A C 0.3374(11) 0.1246(9) 0.9003(9)
H8A H 0.3397 0.0564 0.9728
C9A C 0.2462(9) 0.2817(9) 0.9343(7)
H9A H 0.1867 0.3222 1.0299
C10A C 0.2441(8) 0.3793(7) 0.8241(5)
H10A H 0.1820 0.4862 0.8480
loop_
_geom_bond_atom_site_label_1
_geom_bond_atom_site_label_2
_geom_bond_site_symmetry_1
_geom_bond_site_symmetry_2
Ni1 N1 1_555 1_555
N1 C1 1_555 1_555
N2 Ni1 1_555 1_555
N3 Ni1 1_555 1_555
N4 N3 1_555 1_555
N5 N4 1_555 1_555
N6 Ni1 1_555 1_555
N7 N6 1_555 1_555
N8 Ni1 1_555 1_555
C1 H1 1_555 1_555
C2 C1 1_555 1_555
H2 C2 1_555 1_555
C3 C2 1_555 1_555
H3 C3 1_555 1_555
C4 C3 1_555 1_555
H4 C4 1_555 1_555
C5 N1 1_555 1_555
H5 C5 1_555 1_555
C6 N2 1_555 1_555
H6 C6 1_555 1_555
C7 C6 1_555 1_555
H7 C7 1_555 1_555
C8 C7 1_555 1_555
H8 C8 1_555 1_555
C9 C8 1_555 1_555
H9 C9 1_555 1_555
C10 N2 1_555 1_555
H10 C10 1_555 1_555
Ni1A N3 1_555 1_555
Ni1A_2 N6A 1_555 1_555
N1A Ni1A 1_555 1_555
N2A Ni1A 1_555 1_555
N3A Ni1 1_555 1_555
N4A N3A 1_555 1_555
N5A N4A 1_555 1_555
N6A N7A 1_555 1_555
N6A_2 Ni1A 1_555 1_555
N7A N8 1_555 1_555
N8A N7 1_555 1_555
N8A_2 Ni1A 1_555 1_555
C1A N1A 1_555 1_555
H1A C1A 1_555 1_555
C2A C1A 1_555 1_555
H2A C2A 1_555 1_555
C3A C2A 1_555 1_555
H3A C3A 1_555 1_555
C4A C3A 1_555 1_555
H4A C4A 1_555 1_555
C5A N1A 1_555 1_555
H5A C5A 1_555 1_555
C6A N2A 1_555 1_555
H6A C6A 1_555 1_555
C7A C6A 1_555 1_555
H7A C7A 1_555 1_555
C8A C7A 1_555 1_555
H8A C8A 1_555 1_555
C9A C8A 1_555 1_555
H9A C9A 1_555 1_555
C10A N2A 1_555 1_555
H10A C10A 1_555 1_555
C4 C5 1_555 1_555
C9 C10 1_555 1_555
Ni1A N3A 1_555 1_555
Ni1A_2 N8A 1_555 1_555
C4A C5A 1_555 1_555
C9A C10A 1_555 1_555

#END
