
#######################################################################
#
#                 Cambridge Crystallographic Data Centre
#                                CCDC 
#
#######################################################################
#
# If this CIF has been generated from an entry in the Cambridge 
# Structural Database, then it will include bibliographic, chemical, 
# crystal, experimental, refinement or atomic coordinate data resulting 
# from the CCDC's data processing and validation procedures.
#
#######################################################################

data_HISSUZ
_symmetry_cell_setting           monoclinic
_symmetry_space_group_name_H-M   'P 21/c'
_symmetry_Int_Tables_number      14
_space_group_name_Hall           '-P 2ybc'
loop_
_symmetry_equiv_pos_site_id
_symmetry_equiv_pos_as_xyz
1 x,y,z
2 -x,1/2+y,1/2-z
3 -x,-y,-z
4 x,1/2-y,1/2+z
_cell_length_a                   23.4546(7)
_cell_length_b                   14.1658(6)
_cell_length_c                   9.8960(4)
_cell_angle_alpha                90
_cell_angle_beta                 95.692(3)
_cell_angle_gamma                90
_cell_volume                     3271.77
loop_
_atom_site_label
_atom_site_type_symbol
_atom_site_fract_x
_atom_site_fract_y
_atom_site_fract_z
C1 C 0.7600(4) 0.7536(6) -0.4399(10)
H1 H 0.7475 0.8077 -0.4933
H2 H 0.7701 0.7038 -0.4989
H3 H 0.7928 0.7703 -0.3787
C2 C 0.4310(2) 0.6551(4) -0.0515(6)
C3 C -0.1171(3) 0.3218(5) 0.5804(7)
C4 C 0.3721(3) 0.6824(5) -0.0154(7)
C5 C 0.5390(3) 0.6156(5) -0.1202(7)
C6 C -0.0072(3) 0.3717(5) 0.5479(7)
C7 C -0.1037(3) 0.3517(5) 0.4517(7)
H4 H -0.1318 0.3540 0.3785
C8 C -0.1782(3) 0.2926(4) 0.5967(7)
C9 C 0.1787(3) 0.4873(4) 0.1617(7)
C10 C -0.0758(3) 0.3174(5) 0.6902(7)
H5 H -0.0855 0.2975 0.7745
C11 C 0.4398(3) 0.6394(5) -0.1857(7)
H6 H 0.4092 0.6425 -0.2528
C12 C 0.7147(3) 0.8762(5) -0.2550(7)
H7 H 0.7488 0.8931 -0.2893
C13 C 0.1257(3) 0.3981(5) 0.3631(7)
C14 C 0.7064(3) 1.0399(5) -0.1729(6)
C15 C 0.5316(3) 0.6284(5) 0.0147(7)
H8 H 0.5623 0.6237 0.0814
C16 C 0.6870(3) 0.9405(5) -0.1810(7)
C17 C 0.2091(3) 0.5367(5) 0.0561(6)
C18 C 0.4943(3) 0.6192(5) -0.2202(7)
H9 H 0.5004 0.6082 -0.3102
C19 C -0.0198(3) 0.3431(5) 0.6733(7)
H10 H 0.0086 0.3409 0.7459
C20 C 0.4768(3) 0.6488(5) 0.0483(7)
H11 H 0.4708 0.6583 0.1387
C21 C 0.1984(3) 0.5004(5) 0.2970(7)
H12 H 0.2301 0.5388 0.3196
C22 C -0.0478(3) 0.3778(5) 0.4367(7)
C23 C 0.6424(3) 0.7627(5) -0.2267(8)
C24 C 0.1321(3) 0.4286(5) 0.1283(7)
H13 H 0.1189 0.4193 0.0375
C25 C 0.6928(3) 0.7867(5) -0.2794(8)
C26 C 0.1048(3) 0.3834(5) 0.2288(8)
H14 H 0.0733 0.3444 0.2065
C27 C -0.0717(3) 0.4375(6) 0.2114(8)
H15 H -0.0535 0.4629 0.1368
H16 H -0.0962 0.4846 0.2449
H17 H -0.0942 0.3835 0.1813
C28 C 0.1720(3) 0.4578(5) 0.3979(7)
H18 H 0.1848 0.4685 0.4885
C29 C 0.6370(3) 0.9145(5) -0.1253(8)
H19 H 0.6189 0.9568 -0.0716
C30 C 0.6143(3) 0.8250(5) -0.1507(8)
H20 H 0.5803 0.8075 -0.1165
O1 O -0.21517(17) 0.2999(3) 0.4976(5)
O2 O 0.36603(18) 0.7002(3) 0.1057(5)
O3 O 0.74814(18) 1.0683(3) -0.2335(5)
O4 O 0.24178(19) 0.6018(3) 0.0821(5)
O5 O 0.65023(18) 0.5967(3) -0.0585(6)
O6 O 0.33239(17) 0.6867(3) -0.1098(5)
O7 O 0.67893(17) 1.0991(3) -0.1048(4)
O8 O 0.31992(17) 0.6194(3) 0.3345(5)
H21 H 0.3036 0.6161 0.4073
H22 H 0.3146 0.5683 0.2901
O9 O -0.18850(17) 0.2639(3) 0.7124(5)
O10 O 0.19728(19) 0.5016(3) -0.0666(5)
H23 H 0.2172 0.5278 -0.1191
O11 O 0.60294(19) 0.5114(3) -0.2580(6)
O12 O 0.61677(19) 0.6754(3) -0.2726(5)
O13 O 0.04886(19) 0.4076(4) 0.5314(5)
O14 O 0.1372(2) 0.3307(4) 0.6103(5)
O15 O -0.02925(19) 0.4102(4) 0.3171(5)
O16 O 0.7141(2) 0.7219(4) -0.3628(7)
O17 O 0.0695(2) 0.2515(3) 0.4415(5)
S1 S 0.60764(7) 0.59223(12) -0.1707(2)
S2 S 0.09549(7) 0.33498(14) 0.4943(2)
Pr1 Pr 0.277824(13) 0.75367(2) 0.19245(3)
O1A O 0.21517(17) 0.7999(3) 0.0024(5)
O3B O 0.25186(18) 0.9317(3) 0.2335(5)
O6C O 0.33239(17) 0.8133(3) 0.3902(5)
O7B O 0.32107(17) 0.9009(3) 0.1048(4)
O9B O 0.18850(17) 0.7361(3) 0.2876(5)
Pr1A Pr -0.277824(13) 0.25367(2) 0.30755(3)
Pr1B Pr -0.277824(13) 0.24633(2) 0.80755(3)
Pr1B_2 Pr 0.722176(13) 1.24633(2) -0.19245(3)
Pr1C Pr 0.277824(13) 0.74633(2) -0.30755(3)
loop_
_geom_bond_atom_site_label_1
_geom_bond_atom_site_label_2
_geom_bond_site_symmetry_1
_geom_bond_site_symmetry_2
C1 H1 1_555 1_555
H2 C1 1_555 1_555
H3 C1 1_555 1_555
C2 C4 1_555 1_555
C3 C7 1_555 1_555
C4 O2 1_555 1_555
C5 C15 1_555 1_555
C6 C19 1_555 1_555
C7 H4 1_555 1_555
C8 C3 1_555 1_555
C9 C17 1_555 1_555
C10 C3 1_555 1_555
H5 C10 1_555 1_555
C11 C2 1_555 1_555
H6 C11 1_555 1_555
C12 H7 1_555 1_555
C13 C26 1_555 1_555
C14 C16 1_555 1_555
C15 H8 1_555 1_555
C16 C12 1_555 1_555
C17 O4 1_555 1_555
C18 C5 1_555 1_555
H9 C18 1_555 1_555
C19 C10 1_555 1_555
H10 C19 1_555 1_555
C20 C2 1_555 1_555
H11 C20 1_555 1_555
C21 C9 1_555 1_555
H12 C21 1_555 1_555
C22 C6 1_555 1_555
C23 C25 1_555 1_555
C24 C9 1_555 1_555
H13 C24 1_555 1_555
C25 C12 1_555 1_555
C26 C24 1_555 1_555
H14 C26 1_555 1_555
C27 H15 1_555 1_555
H16 C27 1_555 1_555
H17 C27 1_555 1_555
C28 C13 1_555 1_555
H18 C28 1_555 1_555
C29 C16 1_555 1_555
H19 C29 1_555 1_555
C30 C23 1_555 1_555
H20 C30 1_555 1_555
O1 C8 1_555 1_555
O2 Pr1 1_555 1_555
O3 C14 1_555 1_555
O4 Pr1 1_555 1_555
O5 S1 1_555 1_555
O6 C4 1_555 1_555
O7 C14 1_555 1_555
O8 H21 1_555 1_555
H22 O8 1_555 1_555
O9 C8 1_555 1_555
O10 C17 1_555 1_555
H23 O10 1_555 1_555
O11 S1 1_555 1_555
O12 C23 1_555 1_555
O13 C6 1_555 1_555
O14 S2 1_555 1_555
O15 C22 1_555 1_555
O16 C1 1_555 1_555
O17 S2 1_555 1_555
S1 C5 1_555 1_555
S2 C13 1_555 1_555
Pr1 O8 1_555 1_555
O1A Pr1 1_555 1_555
O3B Pr1 1_555 1_555
O6C Pr1 1_555 1_555
O7B Pr1 1_555 1_555
O9B Pr1 1_555 1_555
Pr1A O1 1_555 1_555
Pr1B O9 1_555 1_555
Pr1B_2 O3 1_555 1_555
Pr1C O6 1_555 1_555
C7 C22 1_555 1_555
C11 C18 1_555 1_555
C15 C20 1_555 1_555
C21 C28 1_555 1_555
C25 O16 1_555 1_555
C27 O15 1_555 1_555
C29 C30 1_555 1_555
O7 Pr1B_2 1_555 1_555
O12 S1 1_555 1_555
O13 S2 1_555 1_555

#END
