
#######################################################################
#
#                 Cambridge Crystallographic Data Centre
#                                CCDC 
#
#######################################################################
#
# If this CIF has been generated from an entry in the Cambridge 
# Structural Database, then it will include bibliographic, chemical, 
# crystal, experimental, refinement or atomic coordinate data resulting 
# from the CCDC's data processing and validation procedures.
#
#######################################################################

data_HISSEI
_symmetry_cell_setting           cubic
_symmetry_space_group_name_H-M   'P 43 3 2'
_symmetry_Int_Tables_number      212
_space_group_name_Hall           'P 4acd 2ab 3'
loop_
_symmetry_equiv_pos_site_id
_symmetry_equiv_pos_as_xyz
1 x,y,z
2 1/2-x,-y,1/2+z
3 -x,1/2+y,1/2-z
4 1/2+x,1/2-y,-z
5 z,x,y
6 1/2+z,1/2-x,-y
7 1/2-z,-x,1/2+y
8 -z,1/2+x,1/2-y
9 y,z,x
10 -y,1/2+z,1/2-x
11 1/2+y,1/2-z,-x
12 1/2-y,-z,1/2+x
13 1/4+y,3/4+x,3/4-z
14 1/4-y,1/4-x,1/4-z
15 3/4+y,3/4-x,1/4+z
16 3/4-y,1/4+x,3/4+z
17 1/4+x,3/4+z,3/4-y
18 3/4-x,1/4+z,3/4+y
19 1/4-x,1/4-z,1/4-y
20 3/4+x,3/4-z,1/4+y
21 1/4+z,3/4+y,3/4-x
22 3/4+z,3/4-y,1/4+x
23 3/4-z,1/4+y,3/4+x
24 1/4-z,1/4-y,1/4-x
_cell_length_a                   15.3866(6)
_cell_length_b                   15.3866(6)
_cell_length_c                   15.3866(6)
_cell_angle_alpha                90
_cell_angle_beta                 90
_cell_angle_gamma                90
_cell_volume                     3642.74
loop_
_atom_site_label
_atom_site_type_symbol
_atom_site_fract_x
_atom_site_fract_y
_atom_site_fract_z
Co1 Co 0.10239(4) 0.60239(4) 0.89761(4)
O1 O 0.09034(17) 0.73898(17) 0.8858(2)
O2 O -0.03468(18) 0.61569(17) 0.89149(19)
C1 C 0.0139(3) 0.7639(3) 0.8750
C2 C -0.0586(3) 0.6914(3) 0.8750
Co1L Co -0.14761(4) 0.85239(4) 0.85239(4)
Co1O Co 0.14761(4) 0.35239(4) 0.64761(4)
Co1N Co 0.35239(4) 0.64761(4) 1.14761(4)
O1L O -0.01102(17) 0.84034(17) 0.8642(2)
O1G O 0.1142(2) 0.59034(17) 0.76102(17)
O1T O 0.1358(2) 0.48898(17) 0.65966(17)
O1J O 0.23898(17) 0.6142(2) 0.90966(17)
O1P O 0.34034(17) 0.6358(2) 1.01102(17)
O1S O -0.15966(17) 0.8642(2) 0.98898(17)
O1V O -0.1358(2) 0.98898(17) 0.84034(17)
O2L O -0.13431(17) 0.71532(18) 0.85851(19)
O2G O 0.10851(19) 0.46532(18) 0.88431(17)
O2T O 0.14149(19) 0.36569(17) 0.78468(18)
O2J O 0.11569(17) 0.60851(19) 1.03468(18)
O2P O 0.21532(18) 0.64149(19) 1.13431(17)
O2S O -0.28468(18) 0.85851(19) 0.86569(17)
O2V O -0.14149(19) 0.86569(17) 0.71532(18)
C1G C 0.1250 0.5139(3) 0.7361(3)
C1J C 0.2639(3) 0.6250 0.9861(3)
C2G C 0.1250 0.4414(3) 0.8086(3)
C2J C 0.1914(3) 0.6250 1.0586(3)
Co2 Co 0.1250 0.8750 0.3750
N1 N 0.1251(2) 0.74686(17) 0.38420(19)
C3 C 0.1256(2) 0.7154(2) 0.4669(2)
C4 C 0.1271(3) 0.6276(3) 0.4837(3)
H1 H 0.1262 0.6075 0.5407
C5 C 0.1299(3) 0.5687(3) 0.4143(3)
H2 H 0.1312 0.5091 0.4244
C6 C 0.1308(3) 0.6007(3) 0.3312(3)
H3 H 0.1333 0.5632 0.2839
C7 C 0.1278(3) 0.6903(3) 0.3187(3)
H4 H 0.1277 0.7116 0.2621
N1R N 0.1249(2) 0.86580(19) 0.50314(17)
N1F N 0.11580(19) 0.8749(2) 0.24686(17)
N1L N -0.00314(17) 0.8751(2) 0.36580(19)
N1I N 0.25314(17) 0.88420(19) 0.3749(2)
N1U N 0.13420(19) 1.00314(17) 0.3751(2)
C3R C 0.1244(2) 0.7831(2) 0.5346(2)
C3F C 0.0331(2) 0.8744(2) 0.2154(2)
C3L C -0.0346(2) 0.8756(2) 0.2831(2)
C3I C 0.2846(2) 0.9669(2) 0.3744(2)
C3U C 0.2169(2) 1.0346(2) 0.3756(2)
C4R C 0.1229(3) 0.7663(3) 0.6224(3)
C4F C 0.0163(3) 0.8729(3) 0.1276(3)
C4L C -0.1224(3) 0.8771(3) 0.2663(3)
C4I C 0.3724(3) 0.9837(3) 0.3729(3)
C4U C 0.2337(3) 1.1224(3) 0.3771(3)
H1R H 0.1238 0.7093 0.6425
H1F H -0.0407 0.8738 0.1075
H1L H -0.1425 0.8762 0.2093
H1I H 0.3925 1.0407 0.3738
H1U H 0.2907 1.1425 0.3762
C5R C 0.1201(3) 0.8357(3) 0.6813(3)
C5F C 0.0857(3) 0.8701(3) 0.0687(3)
C5L C -0.1813(3) 0.8799(3) 0.3357(3)
C5I C 0.4313(3) 0.9143(3) 0.3701(3)
C5U C 0.1643(3) 1.1813(3) 0.3799(3)
H2R H 0.1188 0.8256 0.7409
H2F H 0.0756 0.8688 0.0091
H2L H -0.2409 0.8812 0.3256
H2I H 0.4909 0.9244 0.3688
H2U H 0.1744 1.2409 0.3812
C6R C 0.1192(3) 0.9188(3) 0.6493(3)
C6F C 0.1688(3) 0.8692(3) 0.1007(3)
C6L C -0.1493(3) 0.8808(3) 0.4188(3)
C6I C 0.3993(3) 0.8312(3) 0.3692(3)
C6U C 0.0812(3) 1.1493(3) 0.3808(3)
H3R H 0.1167 0.9661 0.6868
H3F H 0.2161 0.8667 0.0632
H3L H -0.1868 0.8833 0.4661
H3I H 0.4368 0.7839 0.3667
H3U H 0.0339 1.1868 0.3833
C7R C 0.1222(3) 0.9313(3) 0.5597(3)
C7F C 0.1813(3) 0.8722(3) 0.1903(3)
C7L C -0.0597(3) 0.8778(3) 0.4313(3)
C7I C 0.3097(3) 0.8187(3) 0.3722(3)
C7U C 0.0687(3) 1.0597(3) 0.3778(3)
H4R H 0.1223 0.9879 0.5384
H4F H 0.2379 0.8723 0.2116
H4L H -0.0384 0.8777 0.4879
H4I H 0.2884 0.7621 0.3723
H4U H 0.0121 1.0384 0.3777
loop_
_geom_bond_atom_site_label_1
_geom_bond_atom_site_label_2
_geom_bond_site_symmetry_1
_geom_bond_site_symmetry_2
Co1 O1 1_555 1_555
Co2 N1 1_555 1_555
O1 C1 1_555 1_555
O2 Co1 1_555 1_555
N1 C3 1_555 1_555
C1 C2 1_555 1_555
C2 O2 1_555 1_555
C3 C4 1_555 1_555
C4 H1 1_555 1_555
C5 C4 1_555 1_555
H2 C5 1_555 1_555
C6 C5 1_555 1_555
H3 C6 1_555 1_555
C7 N1 1_555 1_555
H4 C7 1_555 1_555
Co1L O1L 1_555 1_555
Co1O O1T 1_555 1_555
Co1N O1P 1_555 1_555
O1L C1 1_555 1_555
O1G Co1 1_555 1_555
O1T C1G 1_555 1_555
O1J Co1 1_555 1_555
O1P C1J 1_555 1_555
O1S Co1L 1_555 1_555
O1V Co1L 1_555 1_555
O2L C2 1_555 1_555
O2G Co1 1_555 1_555
O2T Co1O 1_555 1_555
O2J Co1 1_555 1_555
O2P Co1N 1_555 1_555
O2S Co1L 1_555 1_555
O2V Co1L 1_555 1_555
N1R Co2 1_555 1_555
N1F Co2 1_555 1_555
N1L Co2 1_555 1_555
N1I Co2 1_555 1_555
N1U Co2 1_555 1_555
C1G O1G 1_555 1_555
C1J O1J 1_555 1_555
C2G O2G 1_555 1_555
C2J O2J 1_555 1_555
C3R C3 1_555 1_555
C3F N1F 1_555 1_555
C3L N1L 1_555 1_555
C3I N1I 1_555 1_555
C3U N1U 1_555 1_555
C4R C3R 1_555 1_555
C4F C3F 1_555 1_555
C4L C3L 1_555 1_555
C4I C3I 1_555 1_555
C4U C3U 1_555 1_555
H1R C4R 1_555 1_555
H1F C4F 1_555 1_555
H1L C4L 1_555 1_555
H1I C4I 1_555 1_555
H1U C4U 1_555 1_555
C5R C4R 1_555 1_555
C5F C4F 1_555 1_555
C5L C4L 1_555 1_555
C5I C4I 1_555 1_555
C5U C4U 1_555 1_555
H2R C5R 1_555 1_555
H2F C5F 1_555 1_555
H2L C5L 1_555 1_555
H2I C5I 1_555 1_555
H2U C5U 1_555 1_555
C6R C5R 1_555 1_555
C6F C5F 1_555 1_555
C6L C5L 1_555 1_555
C6I C5I 1_555 1_555
C6U C5U 1_555 1_555
H3R C6R 1_555 1_555
H3F C6F 1_555 1_555
H3L C6L 1_555 1_555
H3I C6I 1_555 1_555
H3U C6U 1_555 1_555
C7R N1R 1_555 1_555
C7F N1F 1_555 1_555
C7L N1L 1_555 1_555
C7I N1I 1_555 1_555
C7U N1U 1_555 1_555
H4R C7R 1_555 1_555
H4F C7F 1_555 1_555
H4L C7L 1_555 1_555
H4I C7I 1_555 1_555
H4U C7U 1_555 1_555
C6 C7 1_555 1_555
Co1L O2L 1_555 1_555
O2T C2G 1_555 1_555
O2P C2J 1_555 1_555
N1R C3R 1_555 1_555
C1G C2G 1_555 1_555
C1J C2J 1_555 1_555
C3F C3L 1_555 1_555
C3I C3U 1_555 1_555
C6R C7R 1_555 1_555
C6F C7F 1_555 1_555
C6L C7L 1_555 1_555
C6I C7I 1_555 1_555
C6U C7U 1_555 1_555

#END
