
#######################################################################
#
#                 Cambridge Crystallographic Data Centre
#                                CCDC 
#
#######################################################################
#
# If this CIF has been generated from an entry in the Cambridge 
# Structural Database, then it will include bibliographic, chemical, 
# crystal, experimental, refinement or atomic coordinate data resulting 
# from the CCDC's data processing and validation procedures.
#
#######################################################################

data_HISTAF
_symmetry_cell_setting           monoclinic
_symmetry_space_group_name_H-M   'P 21/n'
_symmetry_Int_Tables_number      14
_space_group_name_Hall           '-P 2yn'
loop_
_symmetry_equiv_pos_site_id
_symmetry_equiv_pos_as_xyz
1 x,y,z
2 1/2-x,1/2+y,1/2-z
3 -x,-y,-z
4 1/2+x,1/2-y,1/2+z
_cell_length_a                   11.310(3)
_cell_length_b                   7.790(2)
_cell_length_c                   22.753(6)
_cell_angle_alpha                90
_cell_angle_beta                 91.477(4)
_cell_angle_gamma                90
_cell_volume                     2003.98
loop_
_atom_site_label
_atom_site_type_symbol
_atom_site_fract_x
_atom_site_fract_y
_atom_site_fract_z
Cu1 Cu 0.76449(5) 0.47279(7) 0.14552(2)
Cu2 Cu 0.73069(5) -0.65794(7) -0.18213(2)
O1 O 0.8325(3) 0.6206(4) 0.20688(13)
O2 O 0.8152(3) 0.7871(4) 0.28361(14)
O3 O 0.6345(3) 0.6282(4) 0.13194(13)
O4 O 0.4997(3) 0.8085(5) 0.16331(15)
O5 O 0.9246(3) 0.3782(5) 0.13414(15)
H1 H 0.979(3) 0.424(7) 0.1537(19)
H2 H 0.938(4) 0.349(7) 0.0997(11)
O6 O 0.8160(3) -0.7363(4) -0.11302(13)
O7 O 0.9743(16) -0.857(3) -0.0686(10)
O9 O 0.7550(3) -0.8766(4) -0.22032(14)
O10 O 0.8612(3) -1.1007(4) -0.24593(13)
O11 O 0.9252(3) -0.5288(5) -0.21443(15)
H3 H 0.983(3) -0.582(6) -0.227(2)
H4 H 0.895(4) -0.464(6) -0.2399(17)
N1 N 0.7062(3) 0.3233(5) 0.08051(15)
N2 N 0.6014(4) 0.0288(5) -0.06501(16)
H5 H 0.562(4) 0.088(6) -0.0920(16)
N3 N 0.6856(3) -0.4432(5) -0.14033(15)
C1 C 0.7254(4) 0.1549(6) 0.0798(2)
H6 H 0.7639 0.1064 0.1124
C2 C 0.6925(5) 0.0472(6) 0.0344(2)
H7 H 0.7061 -0.0703 0.0371
C3 C 0.6383(4) 0.1178(6) -0.01583(19)
C4 C 0.6141(4) 0.2932(6) -0.01452(19)
H8 H 0.5743 0.3452 -0.0461
C5 C 0.6492(4) 0.3890(6) 0.03350(19)
H9 H 0.6324 0.5059 0.0333
C6 C 0.7519(5) -0.3797(6) -0.0959(2)
H10 H 0.8176 -0.4425 -0.0831
C7 C 0.7290(4) -0.2274(6) -0.0680(2)
H11 H 0.7782 -0.1899 -0.0373
C8 C 0.6322(4) -0.1299(5) -0.08599(19)
C9 C 0.5616(4) -0.1980(6) -0.13244(19)
H12 H 0.4951 -0.1386 -0.1461
C10 C 0.5907(4) -0.3496(6) -0.15714(19)
H13 H 0.5422 -0.3916 -0.1875
C11 C 0.7701(4) 0.7061(6) 0.24218(19)
C12 C 0.6373(4) 0.7006(7) 0.2339(2)
H14 H 0.6041 0.7922 0.2572
H15 H 0.6095 0.5929 0.2499
C13 C 0.5880(4) 0.7170(6) 0.1716(2)
C14 C 0.8959(5) -0.8473(7) -0.1109(2)
C15 C 0.9336(4) -0.9392(6) -0.1652(2)
H16 H 0.9673 -1.0485 -0.1532
H17 H 0.9968 -0.8729 -0.1823
C16 C 0.8420(4) -0.9743(6) -0.21352(19)
Cu1A Cu 0.73551(5) 0.97279(7) 0.35448(2)
Cu2A Cu 0.76931(5) -1.15794(7) -0.31787(2)
O2A O 0.6848(3) 0.2871(4) 0.21639(14)
O10A O 0.6388(3) -0.6007(4) -0.25407(13)
O12 O 0.9860(12) 0.3770(19) 0.0188(6)
O8? O 0.9261(14) -0.909(2) -0.0626(8)
O13? O 0.9893(5) 0.2273(8) 0.0390(2)
loop_
_geom_bond_atom_site_label_1
_geom_bond_atom_site_label_2
_geom_bond_site_symmetry_1
_geom_bond_site_symmetry_2
Cu1 O1 1_555 1_555
Cu2 O6 1_555 1_555
O1 C11 1_555 1_555
O2 C11 1_555 1_555
O3 Cu1 1_555 1_555
O4 C13 1_555 1_555
O5 Cu1 1_555 1_555
H1 O5 1_555 1_555
H2 O5 1_555 1_555
O6 C14 1_555 1_555
O7 C14 1_555 1_555
O9 Cu2 1_555 1_555
O10 C16 1_555 1_555
O11 Cu2 1_555 1_555
H3 O11 1_555 1_555
H4 O11 1_555 1_555
N1 Cu1 1_555 1_555
N2 H5 1_555 1_555
N3 Cu2 1_555 1_555
C1 N1 1_555 1_555
H6 C1 1_555 1_555
C2 C1 1_555 1_555
H7 C2 1_555 1_555
C3 N2 1_555 1_555
C4 C3 1_555 1_555
H8 C4 1_555 1_555
C5 N1 1_555 1_555
H9 C5 1_555 1_555
C6 N3 1_555 1_555
H10 C6 1_555 1_555
C7 C6 1_555 1_555
H11 C7 1_555 1_555
C8 N2 1_555 1_555
C9 C8 1_555 1_555
H12 C9 1_555 1_555
C10 N3 1_555 1_555
H13 C10 1_555 1_555
C11 C12 1_555 1_555
C12 H14 1_555 1_555
H15 C12 1_555 1_555
C13 O3 1_555 1_555
C14 C15 1_555 1_555
C15 H16 1_555 1_555
H17 C15 1_555 1_555
C16 O9 1_555 1_555
Cu1A O2 1_555 1_555
Cu2A O10 1_555 1_555
O2A Cu1 1_555 1_555
O10A Cu2 1_555 1_555
C2 C3 1_555 1_555
C4 C5 1_555 1_555
C7 C8 1_555 1_555
C9 C10 1_555 1_555
C12 C13 1_555 1_555
C15 C16 1_555 1_555

#END
