
#######################################################################
#
#                 Cambridge Crystallographic Data Centre
#                                CCDC 
#
#######################################################################
#
# If this CIF has been generated from an entry in the Cambridge 
# Structural Database, then it will include bibliographic, chemical, 
# crystal, experimental, refinement or atomic coordinate data resulting 
# from the CCDC's data processing and validation procedures.
#
#######################################################################

data_HISTUA
_symmetry_cell_setting           monoclinic
_symmetry_space_group_name_H-M   'P 21/c'
_symmetry_Int_Tables_number      14
_space_group_name_Hall           '-P 2ybc'
loop_
_symmetry_equiv_pos_site_id
_symmetry_equiv_pos_as_xyz
1 x,y,z
2 -x,1/2+y,1/2-z
3 -x,-y,-z
4 x,1/2-y,1/2+z
_cell_length_a                   23.327(2)
_cell_length_b                   14.0248(11)
_cell_length_c                   9.8469(6)
_cell_angle_alpha                90
_cell_angle_beta                 94.653(7)
_cell_angle_gamma                90
_cell_volume                     3210.86
loop_
_atom_site_label
_atom_site_type_symbol
_atom_site_fract_x
_atom_site_fract_y
_atom_site_fract_z
C1 C 0.6821(6) 0.2920(9) -0.0925(11)
C2 C 0.6214(5) 0.3201(9) -0.0763(11)
C3 C 0.5820(5) 0.3168(9) -0.1872(11)
H1 H 0.5934 0.2977 -0.2713
C4 C 0.5245(5) 0.3420(8) -0.1742(11)
H2 H 0.4971 0.3397 -0.2481
C5 C 0.5105(6) 0.3707(9) -0.0460(12)
C6 C 0.5506(6) 0.3771(9) 0.0657(11)
C7 C 0.6081(6) 0.3509(9) 0.0519(11)
H3 H 0.6359 0.3541 0.1250
C8 C 0.5708(6) 0.4389(10) 0.2904(11)
H4 H 0.5511 0.4696 0.3602
H5 H 0.5969 0.4832 0.2538
H6 H 0.5919 0.3852 0.3284
C9 C 0.2907(6) 0.5396(9) 0.4392(12)
C10 C 0.3212(5) 0.4920(9) 0.3381(11)
C11 C 0.3689(6) 0.4327(9) 0.3711(11)
H7 H 0.3820 0.4240 0.4620
C12 C 0.3963(6) 0.3877(9) 0.2719(11)
H8 H 0.4292 0.3516 0.2943
C13 C 0.3742(6) 0.3967(9) 0.1352(11)
C14 C 0.3280(6) 0.4533(9) 0.1004(12)
H9 H 0.3155 0.4613 0.0090
C15 C 0.2992(5) 0.4991(9) 0.1994(11)
H10 H 0.2661 0.5341 0.1754
C16 C 0.1307(6) 0.6827(9) 0.5266(11)
C17 C 0.0712(6) 0.6548(9) 0.5583(11)
C18 C 0.0276(6) 0.6490(9) 0.4559(11)
H11 H 0.0356 0.6591 0.3660
C19 C -0.0283(6) 0.6283(9) 0.4850(11)
H12 H -0.0575 0.6228 0.4154
C20 C -0.0396(6) 0.6162(9) 0.6190(11)
C21 C 0.0041(6) 0.6195(9) 0.7224(11)
H13 H -0.0035 0.6081 0.8122
C22 C 0.0574(6) 0.6394(9) 0.6909(11)
H14 H 0.0866 0.6431 0.7610
C23 C -0.1452(6) 0.7624(10) 0.7201(12)
C24 C -0.1164(6) 0.8245(9) 0.6409(12)
H15 H -0.0823 0.8066 0.6050
C25 C -0.1401(6) 0.9157(10) 0.6164(12)
H16 H -0.1219 0.9580 0.5613
C26 C -0.1886(6) 0.9433(10) 0.6706(12)
C27 C -0.2172(6) 0.8799(9) 0.7481(12)
H17 H -0.2512 0.8980 0.7844
C28 C -0.1954(6) 0.7894(10) 0.7716(13)
C29 C -0.2639(6) 0.7593(11) 0.9391(13)
H18 H -0.2978 0.7719 0.8799
H19 H -0.2517 0.8169 0.9858
H20 H -0.2723 0.7116 1.0045
C30 C -0.2064(6) 1.0459(10) 0.6668(13)
O1 O 0.1406(3) 0.7010(6) 0.4072(7)
O2 O 0.1835(4) 0.6257(6) 0.1736(7)
H21 H 0.1609 0.5912 0.2189
H22 H 0.1641 0.6477 0.1017
O3 O 0.2558(4) 0.6063(6) 0.4144(7)
O4 O 0.6954(3) 0.2639(6) -0.2095(7)
O5 O 0.7184(3) 0.2952(6) 0.0091(7)
O6 O 0.5297(4) 0.4071(7) 0.1837(8)
O7 O 0.3030(4) 0.5099(7) 0.5657(7)
H23 H 0.2935 0.5507 0.6191
O8 O 0.4543(4) 0.4063(7) -0.0324(8)
O9 O 0.4325(4) 0.2485(7) 0.0567(7)
O10 O 0.3665(4) 0.3296(7) -0.1127(8)
O11 O 0.1692(4) 0.6865(6) 0.6264(7)
O12 O -0.1500(4) 0.5961(7) 0.5477(8)
O13 O -0.1209(4) 0.6743(7) 0.7635(8)
O14 O -0.1071(4) 0.5093(6) 0.7504(10)
O15 O -0.2177(5) 0.7250(8) 0.8579(10)
O16 O -0.2492(4) 1.0741(6) 0.7282(7)
O17 O -0.1780(3) 1.1032(6) 0.5995(7)
S1 S 0.40644(16) 0.3343(3) 0.0043(3)
S2 S -0.10925(16) 0.5920(3) 0.6636(3)
Ho1 Ho 0.22145(2) 0.75449(5) 0.31041(5)
O4B O 0.3046(3) 0.7361(6) 0.2095(7)
O5A O 0.2816(3) 0.7952(6) 0.4909(7)
O11C O 0.1692(4) 0.8135(6) 0.1264(7)
O16B O 0.2492(4) 0.9259(6) 0.2718(7)
O17B O 0.1780(3) 0.8968(6) 0.4005(7)
Ho1A Ho 0.77855(2) 0.25449(5) 0.18959(5)
Ho1B Ho -0.22145(2) 1.24551(5) 0.68959(5)
Ho1B_2 Ho 0.77855(2) 0.24551(5) -0.31041(5)
Ho1C Ho 0.22145(2) 0.74551(5) 0.81041(5)
loop_
_geom_bond_atom_site_label_1
_geom_bond_atom_site_label_2
_geom_bond_site_symmetry_1
_geom_bond_site_symmetry_2
C1 C2 1_555 1_555
C2 C3 1_555 1_555
C3 H1 1_555 1_555
C4 C3 1_555 1_555
H2 C4 1_555 1_555
C5 C4 1_555 1_555
C6 C5 1_555 1_555
C7 C2 1_555 1_555
H3 C7 1_555 1_555
C8 H4 1_555 1_555
H5 C8 1_555 1_555
H6 C8 1_555 1_555
C9 C10 1_555 1_555
C10 C11 1_555 1_555
C11 H7 1_555 1_555
C12 C11 1_555 1_555
H8 C12 1_555 1_555
C13 C12 1_555 1_555
C14 C13 1_555 1_555
H9 C14 1_555 1_555
C15 C10 1_555 1_555
H10 C15 1_555 1_555
C16 C17 1_555 1_555
C17 C18 1_555 1_555
C18 H11 1_555 1_555
C19 C18 1_555 1_555
H12 C19 1_555 1_555
C20 C19 1_555 1_555
C21 C20 1_555 1_555
H13 C21 1_555 1_555
C22 C17 1_555 1_555
H14 C22 1_555 1_555
C23 C24 1_555 1_555
C24 H15 1_555 1_555
C25 C24 1_555 1_555
H16 C25 1_555 1_555
C26 C25 1_555 1_555
C27 C26 1_555 1_555
H17 C27 1_555 1_555
C28 C23 1_555 1_555
C29 H18 1_555 1_555
H19 C29 1_555 1_555
H20 C29 1_555 1_555
C30 C26 1_555 1_555
O1 C16 1_555 1_555
O2 H21 1_555 1_555
H22 O2 1_555 1_555
O3 C9 1_555 1_555
O4 C1 1_555 1_555
O5 C1 1_555 1_555
O6 C6 1_555 1_555
O7 C9 1_555 1_555
H23 O7 1_555 1_555
O8 C5 1_555 1_555
O9 S1 1_555 1_555
O10 S1 1_555 1_555
O11 C16 1_555 1_555
O12 S2 1_555 1_555
O13 C23 1_555 1_555
O14 S2 1_555 1_555
O15 C28 1_555 1_555
O16 C30 1_555 1_555
O17 C30 1_555 1_555
S1 C13 1_555 1_555
S2 C20 1_555 1_555
Ho1 O1 1_555 1_555
O4B Ho1 1_555 1_555
O5A Ho1 1_555 1_555
O11C Ho1 1_555 1_555
O16B Ho1 1_555 1_555
O17B Ho1 1_555 1_555
Ho1A O5 1_555 1_555
Ho1B O16 1_555 1_555
Ho1B_2 O4 1_555 1_555
Ho1C O11 1_555 1_555
C6 C7 1_555 1_555
C8 O6 1_555 1_555
C14 C15 1_555 1_555
C21 C22 1_555 1_555
C27 C28 1_555 1_555
C29 O15 1_555 1_555
O2 Ho1 1_555 1_555
O3 Ho1 1_555 1_555
O8 S1 1_555 1_555
O13 S2 1_555 1_555
O17 Ho1B 1_555 1_555

#END
