
#######################################################################
#
#                 Cambridge Crystallographic Data Centre
#                                CCDC 
#
#######################################################################
#
# If this CIF has been generated from an entry in the Cambridge 
# Structural Database, then it will include bibliographic, chemical, 
# crystal, experimental, refinement or atomic coordinate data resulting 
# from the CCDC's data processing and validation procedures.
#
#######################################################################

data_HISTAG
_symmetry_cell_setting           monoclinic
_symmetry_space_group_name_H-M   'P 21/c'
_symmetry_Int_Tables_number      14
_space_group_name_Hall           '-P 2ybc'
loop_
_symmetry_equiv_pos_site_id
_symmetry_equiv_pos_as_xyz
1 x,y,z
2 -x,1/2+y,1/2-z
3 -x,-y,-z
4 x,1/2-y,1/2+z
_cell_length_a                   23.428(2)
_cell_length_b                   14.0753(13)
_cell_length_c                   9.8845(8)
_cell_angle_alpha                90
_cell_angle_beta                 94.907(8)
_cell_angle_gamma                90
_cell_volume                     3247.53
loop_
_atom_site_label
_atom_site_type_symbol
_atom_site_fract_x
_atom_site_fract_y
_atom_site_fract_z
C1 C -0.2611(5) 0.7578(8) 0.9422(11)
H1 H -0.2950 0.7678 0.8824
H2 H -0.2498 0.8166 0.9859
H3 H -0.2686 0.7115 1.0096
C2 C 0.1302(4) 0.6818(6) 0.5239(9)
C3 C 0.3196(4) 0.7073(6) 0.0942(8)
C4 C 0.6780(4) 0.5115(6) -0.3382(8)
C5 C 0.4205(3) 0.6825(6) 0.1888(8)
H4 H 0.4102 0.7024 0.2731
C6 C 0.3945(4) 0.6483(6) -0.0488(8)
H5 H 0.3667 0.6450 -0.1218
C7 C -0.0396(4) 0.6144(6) 0.6178(9)
C8 C 0.4774(4) 0.6552(6) 0.1721(9)
H6 H 0.5051 0.6558 0.2454
C9 C 0.0714(4) 0.6561(6) 0.5562(8)
C10 C -0.2062(4) 1.0424(7) 0.6666(9)
C11 C 0.4911(4) 0.6282(7) 0.0479(9)
C12 C -0.0297(4) 0.6273(6) 0.4862(9)
H7 H -0.0595 0.6222 0.4180
C13 C 0.3803(4) 0.6794(6) 0.0783(8)
C14 C 0.0597(4) 0.6404(7) 0.6894(9)
H8 H 0.0895 0.6434 0.7577
C15 C 0.6987(4) 0.4996(6) -0.2031(8)
H9 H 0.7304 0.4612 -0.1809
C16 C 0.4512(4) 0.6221(6) -0.0646(8)
C17 C 0.6314(4) 0.5695(6) -0.3713(9)
H10 H 0.6178 0.5772 -0.4619
C18 C 0.7091(4) 0.4617(7) -0.4422(9)
C19 C 0.6250(4) 0.6028(7) -0.1370(9)
C20 C -0.1876(4) 0.9431(7) 0.6758(9)
C21 C -0.1435(4) 0.7623(7) 0.7253(10)
C22 C 0.6051(4) 0.6153(6) -0.2726(8)
H11 H 0.5740 0.6549 -0.2957
C23 C -0.2159(4) 0.8774(7) 0.7511(9)
H12 H -0.2502 0.8937 0.7857
C24 C 0.0258(4) 0.6486(6) 0.4538(9)
H13 H 0.0328 0.6579 0.3635
C25 C 0.0047(4) 0.6204(7) 0.7237(9)
H14 H -0.0027 0.6113 0.8137
C26 C -0.1928(4) 0.7876(7) 0.7746(10)
C27 C 0.6721(4) 0.5449(6) -0.1024(9)
H15 H 0.6855 0.5369 -0.0118
C28 C -0.1381(4) 0.9159(7) 0.6219(10)
H16 H -0.1200 0.9583 0.5674
C29 C 0.4288(4) 0.5605(7) -0.2897(9)
H17 H 0.4475 0.5294 -0.3601
H18 H 0.4086 0.6154 -0.3264
H19 H 0.4022 0.5175 -0.2536
C30 C -0.1137(4) 0.8247(7) 0.6471(9)
H20 H -0.0794 0.8072 0.6130
O1 O -0.2485(2) 1.0704(4) 0.7306(5)
O2 O 0.2836(2) 0.7012(4) -0.0065(5)
O3 O 0.1680(2) 0.6855(4) 0.6200(6)
O4 O -0.1787(2) 1.1009(4) 0.6011(5)
O5 O 0.7422(3) 0.3946(4) -0.4163(6)
O6 O 0.3078(2) 0.7367(4) 0.2093(5)
O7 O 0.1383(2) 0.7001(4) 0.4031(5)
O8 O 0.1827(2) 0.6209(4) 0.1718(6)
H21 H 0.1515 0.5984 0.2043
H22 H 0.1735 0.6393 0.0876
O9 O 0.4707(2) 0.5893(5) -0.1836(6)
O10 O -0.1044(3) 0.5098(5) 0.7529(7)
O11 O -0.1192(3) 0.6750(5) 0.7689(7)
O12 O 0.5468(2) 0.5922(4) 0.0316(6)
O13 O 0.5677(3) 0.7509(4) -0.0584(6)
O14 O 0.6974(3) 0.4944(4) -0.5659(5)
H23 H 0.7164 0.4655 -0.6184
O15 O 0.6353(3) 0.6712(5) 0.1099(6)
O16 O -0.2146(3) 0.7235(5) 0.8632(8)
S1 S 0.59428(10) 0.66575(18) -0.0059(2)
S2 S -0.10793(11) 0.59129(18) 0.6662(3)
Eu1 Eu 0.222031(17) 0.75456(3) 0.30961(4)
O17 O -0.1502(2) 0.5972(4) 0.5551(7)
O1B O 0.2485(2) 0.9296(4) 0.2694(5)
O2C O 0.2836(2) 0.7988(4) 0.4935(5)
O3C O 0.1680(2) 0.8145(4) 0.1200(6)
O4B O 0.1787(2) 0.8991(4) 0.3989(5)
O5B O 0.2578(3) 0.6054(4) 0.4163(6)
Eu1B Eu -0.222031(17) 1.24544(3) 0.69039(4)
Eu1B_2 Eu 0.777969(17) 0.24544(3) -0.30961(4)
Eu1C Eu 0.222031(17) 0.74544(3) -0.19039(4)
Eu1C_2 Eu 0.222031(17) 0.74544(3) 0.80961(4)
loop_
_geom_bond_atom_site_label_1
_geom_bond_atom_site_label_2
_geom_bond_site_symmetry_1
_geom_bond_site_symmetry_2
C1 H1 1_555 1_555
H2 C1 1_555 1_555
H3 C1 1_555 1_555
C2 C9 1_555 1_555
C3 C13 1_555 1_555
C4 C15 1_555 1_555
C5 H4 1_555 1_555
C6 H5 1_555 1_555
C7 C12 1_555 1_555
C8 C5 1_555 1_555
H6 C8 1_555 1_555
C9 C14 1_555 1_555
C10 C20 1_555 1_555
C11 C8 1_555 1_555
C12 H7 1_555 1_555
C13 C5 1_555 1_555
C14 H8 1_555 1_555
C15 H9 1_555 1_555
C16 C6 1_555 1_555
C17 C4 1_555 1_555
H10 C17 1_555 1_555
C18 C4 1_555 1_555
C19 C22 1_555 1_555
C20 C23 1_555 1_555
C21 C26 1_555 1_555
C22 C17 1_555 1_555
H11 C22 1_555 1_555
C23 H12 1_555 1_555
C24 C9 1_555 1_555
H13 C24 1_555 1_555
C25 C7 1_555 1_555
H14 C25 1_555 1_555
C26 C23 1_555 1_555
C27 C15 1_555 1_555
H15 C27 1_555 1_555
C28 C20 1_555 1_555
H16 C28 1_555 1_555
C29 H17 1_555 1_555
H18 C29 1_555 1_555
H19 C29 1_555 1_555
C30 C21 1_555 1_555
H20 C30 1_555 1_555
O1 C10 1_555 1_555
O2 C3 1_555 1_555
O3 C2 1_555 1_555
O4 C10 1_555 1_555
O5 C18 1_555 1_555
O6 C3 1_555 1_555
O7 C2 1_555 1_555
O8 H21 1_555 1_555
H22 O8 1_555 1_555
O9 C16 1_555 1_555
O10 S2 1_555 1_555
O11 C21 1_555 1_555
O12 C11 1_555 1_555
O13 S1 1_555 1_555
O14 C18 1_555 1_555
H23 O14 1_555 1_555
O15 S1 1_555 1_555
O16 C1 1_555 1_555
S1 C19 1_555 1_555
S2 C7 1_555 1_555
Eu1 O6 1_555 1_555
O17 S2 1_555 1_555
O1B Eu1 1_555 1_555
O2C Eu1 1_555 1_555
O3C Eu1 1_555 1_555
O4B Eu1 1_555 1_555
O5B Eu1 1_555 1_555
Eu1B O1 1_555 1_555
Eu1B_2 O5 1_555 1_555
Eu1C O2 1_555 1_555
Eu1C_2 O3 1_555 1_555
C6 C13 1_555 1_555
C11 C16 1_555 1_555
C12 C24 1_555 1_555
C14 C25 1_555 1_555
C19 C27 1_555 1_555
C26 O16 1_555 1_555
C28 C30 1_555 1_555
C29 O9 1_555 1_555
O4 Eu1B 1_555 1_555
O7 Eu1 1_555 1_555
O8 Eu1 1_555 1_555
O11 S2 1_555 1_555
O12 S1 1_555 1_555

#END
