
#######################################################################
#
#                 Cambridge Crystallographic Data Centre
#                                CCDC 
#
#######################################################################
#
# If this CIF has been generated from an entry in the Cambridge 
# Structural Database, then it will include bibliographic, chemical, 
# crystal, experimental, refinement or atomic coordinate data resulting 
# from the CCDC's data processing and validation procedures.
#
#######################################################################

data_HISTIO
_symmetry_cell_setting           monoclinic
_symmetry_space_group_name_H-M   'P 21/c'
_symmetry_Int_Tables_number      14
_space_group_name_Hall           '-P 2ybc'
loop_
_symmetry_equiv_pos_site_id
_symmetry_equiv_pos_as_xyz
1 x,y,z
2 -x,1/2+y,1/2-z
3 -x,-y,-z
4 x,1/2-y,1/2+z
_cell_length_a                   23.3952(15)
_cell_length_b                   14.0348(11)
_cell_length_c                   9.8470(6)
_cell_angle_alpha                90
_cell_angle_beta                 94.930(6)
_cell_angle_gamma                90
_cell_volume                     3221.27
loop_
_atom_site_label
_atom_site_type_symbol
_atom_site_fract_x
_atom_site_fract_y
_atom_site_fract_z
C1 C 0.2067(3) 0.4560(5) 0.3336(7)
C2 C 0.1882(3) 0.5571(5) 0.3264(7)
C3 C 0.2168(3) 0.6203(6) 0.2500(8)
H1 H 0.252(3) 0.614(6) 0.228(7)
C4 C 0.1953(3) 0.7120(6) 0.2254(9)
C5 C 0.1447(3) 0.7372(6) 0.2780(8)
C6 C 0.1155(3) 0.6746(6) 0.3558(8)
H2 H 0.0812 0.6925 0.3897
C7 C 0.1386(3) 0.5838(6) 0.3826(8)
H3 H 0.1206 0.5416 0.4381
C8 C 0.2621(4) 0.7417(7) 0.0603(10)
H4 H 0.2696 0.7878 -0.0079
H5 H 0.2506 0.6826 0.0171
H6 H 0.2962 0.7319 0.1202
C9 C 0.0390(3) 0.8837(5) 0.3809(7)
C10 C 0.0285(3) 0.8710(5) 0.5135(7)
H7 H 0.0583 0.8756 0.5822
C11 C -0.0267(3) 0.8513(5) 0.5454(7)
H8 H -0.0343 0.8433 0.6359
C12 C -0.0712(3) 0.8435(5) 0.4412(7)
C13 C -0.0590(3) 0.8593(6) 0.3080(7)
H9 H -0.0886 0.8565 0.2388
C14 C -0.0043(3) 0.8789(6) 0.2755(7)
H10 H 0.0035 0.8887 0.1855
C15 C -0.1307(3) 0.8174(5) 0.4735(7)
C16 C 0.3186(3) 0.2919(5) 0.5948(6)
C17 C 0.3795(3) 0.3203(5) 0.5780(6)
C18 C 0.4199(3) 0.3177(5) 0.6884(7)
H11 H 0.4093 0.2985 0.7732
C19 C 0.4766(3) 0.3437(5) 0.6734(7)
H12 H 0.5043 0.3414 0.7469
C20 C 0.4902(3) 0.3727(5) 0.5471(7)
C21 C 0.4504(3) 0.3772(5) 0.4349(6)
C22 C 0.3941(3) 0.3517(5) 0.4494(7)
H13 H 0.3665 0.3550 0.3758
C23 C 0.4290(3) 0.4378(6) 0.2099(7)
H14 H 0.4481 0.4607 0.1338
H15 H 0.4058 0.4878 0.2428
H16 H 0.4051 0.3846 0.1818
C24 C 0.6250(3) 0.3974(5) 0.3644(7)
C25 C 0.6718(3) 0.4543(5) 0.4001(7)
H17 H 0.6851 0.4621 0.4912
C26 C 0.6988(3) 0.5003(5) 0.2980(7)
H18 H 0.7308 0.5383 0.3205
C27 C 0.6780(3) 0.4895(5) 0.1627(7)
C28 C 0.6312(3) 0.4304(5) 0.1281(7)
H19 H 0.6184 0.4213 0.0370
C29 C 0.6041(3) 0.3858(5) 0.2282(7)
H20 H 0.5719 0.3481 0.2058
C30 C 0.7092(3) 0.5402(5) 0.0572(7)
O1 O 0.18344(19) 0.1230(3) 0.1740(4)
H21 H 0.1548 0.0968 0.2110
H22 H 0.1712 0.1429 0.0931
O2 O 0.17886(18) 0.3971(3) 0.4003(4)
O3 O 0.24874(19) 0.4277(3) 0.2712(4)
O4 O 0.2168(3) 0.7758(5) 0.1376(7)
O5 O 0.1202(2) 0.8252(4) 0.2329(5)
O6 O 0.1497(2) 0.9032(4) 0.4486(5)
O7 O 0.1052(2) 0.9903(4) 0.2479(6)
O8 O -0.16857(19) 0.8145(4) 0.3755(5)
O9 O -0.13920(19) 0.7994(4) 0.5943(4)
O10 O 0.28253(18) 0.2972(3) 0.4929(4)
O11 O 0.30643(19) 0.2644(3) 0.7097(4)
O12 O 0.4706(2) 0.4087(4) 0.3160(5)
O13 O 0.54648(19) 0.4069(4) 0.5321(5)
O14 O 0.5674(2) 0.2492(4) 0.4412(5)
O15 O 0.6347(2) 0.3290(4) 0.6107(5)
O16 O 0.6970(2) 0.5074(4) -0.0664(5)
H23 H 0.7188 0.5312 -0.1178
O17 O 0.74273(19) 0.6051(3) 0.0833(4)
S1 S 0.10844(8) 0.90829(14) 0.3348(2)
S2 S 0.59377(8) 0.33354(14) 0.49467(19)
Tb1 Tb 0.221825(12) 0.25448(2) 0.31095(3)
O8A O 0.16857(19) 0.3145(4) 0.1245(5)
O9B O 0.13920(19) 0.2006(4) 0.4057(4)
O11C O 0.30643(19) 0.2356(3) 0.2097(4)
O17A O 0.25727(19) 0.1051(3) 0.4167(4)
Tb1A Tb -0.221825(12) 0.75448(2) 0.18905(3)
Tb1A_2 Tb 0.778175(12) 0.75448(2) 0.18905(3)
Tb1B Tb -0.221825(12) 0.74552(2) 0.68905(3)
Tb1C Tb 0.221825(12) 0.24552(2) 0.81095(3)
loop_
_geom_bond_atom_site_label_1
_geom_bond_atom_site_label_2
_geom_bond_site_symmetry_1
_geom_bond_site_symmetry_2
C1 C2 1_555 1_555
C2 C3 1_555 1_555
C3 H1 1_555 1_555
C4 C3 1_555 1_555
C5 C4 1_555 1_555
C6 C5 1_555 1_555
H2 C6 1_555 1_555
C7 C2 1_555 1_555
H3 C7 1_555 1_555
C8 H4 1_555 1_555
H5 C8 1_555 1_555
H6 C8 1_555 1_555
C9 C10 1_555 1_555
C10 H7 1_555 1_555
C11 C10 1_555 1_555
H8 C11 1_555 1_555
C12 C11 1_555 1_555
C13 C12 1_555 1_555
H9 C13 1_555 1_555
C14 C9 1_555 1_555
H10 C14 1_555 1_555
C15 C12 1_555 1_555
C16 C17 1_555 1_555
C17 C18 1_555 1_555
C18 H11 1_555 1_555
C19 C18 1_555 1_555
H12 C19 1_555 1_555
C20 C19 1_555 1_555
C21 C20 1_555 1_555
C22 C17 1_555 1_555
H13 C22 1_555 1_555
C23 H14 1_555 1_555
H15 C23 1_555 1_555
H16 C23 1_555 1_555
C24 C25 1_555 1_555
C25 H17 1_555 1_555
C26 C25 1_555 1_555
H18 C26 1_555 1_555
C27 C26 1_555 1_555
C28 C27 1_555 1_555
H19 C28 1_555 1_555
C29 C24 1_555 1_555
H20 C29 1_555 1_555
C30 C27 1_555 1_555
O1 H21 1_555 1_555
H22 O1 1_555 1_555
O2 C1 1_555 1_555
O3 C1 1_555 1_555
O4 C4 1_555 1_555
O5 C5 1_555 1_555
O6 S1 1_555 1_555
O7 S1 1_555 1_555
O8 C15 1_555 1_555
O9 C15 1_555 1_555
O10 C16 1_555 1_555
O11 C16 1_555 1_555
O12 C21 1_555 1_555
O13 C20 1_555 1_555
O14 S2 1_555 1_555
O15 S2 1_555 1_555
O16 C30 1_555 1_555
H23 O16 1_555 1_555
O17 C30 1_555 1_555
S1 C9 1_555 1_555
S2 C24 1_555 1_555
Tb1 O1 1_555 1_555
O8A Tb1 1_555 1_555
O9B Tb1 1_555 1_555
O11C Tb1 1_555 1_555
O17A Tb1 1_555 1_555
Tb1A O8 1_555 1_555
Tb1A_2 O17 1_555 1_555
Tb1B O9 1_555 1_555
Tb1C O11 1_555 1_555
C6 C7 1_555 1_555
C8 O4 1_555 1_555
C13 C14 1_555 1_555
C21 C22 1_555 1_555
C23 O12 1_555 1_555
C28 C29 1_555 1_555
O2 Tb1 1_555 1_555
O3 Tb1 1_555 1_555
O5 S1 1_555 1_555
O10 Tb1 1_555 1_555
O13 S2 1_555 1_555

#END
