
#######################################################################
#
#                 Cambridge Crystallographic Data Centre
#                                CCDC 
#
#######################################################################
#
# If this CIF has been generated from an entry in the Cambridge 
# Structural Database, then it will include bibliographic, chemical, 
# crystal, experimental, refinement or atomic coordinate data resulting 
# from the CCDC's data processing and validation procedures.
#
#######################################################################

data_HISTIN
_symmetry_cell_setting           monoclinic
_symmetry_space_group_name_H-M   'C 2/c'
_symmetry_Int_Tables_number      15
_space_group_name_Hall           '-C 2yn'
loop_
_symmetry_equiv_pos_site_id
_symmetry_equiv_pos_as_xyz
1 x,y,z
2 1/2+x,1/2+y,z
3 -x,y,1/2-z
4 1/2-x,1/2+y,1/2-z
5 -x,-y,-z
6 1/2-x,1/2-y,-z
7 x,-y,1/2+z
8 1/2+x,1/2-y,1/2+z
_cell_length_a                   36.968(4)
_cell_length_b                   11.749(2)
_cell_length_c                   24.407(3)
_cell_angle_alpha                90
_cell_angle_beta                 129.651(2)
_cell_angle_gamma                90
_cell_volume                     8162.09
loop_
_atom_site_label
_atom_site_type_symbol
_atom_site_fract_x
_atom_site_fract_y
_atom_site_fract_z
Eu1 Eu 0.62051(3) 0.46955(6) 0.50126(4)
N1 N 0.6620(4) 0.6670(9) 0.3982(5)
H1 H 0.6677 0.7251 0.3833
N2 N 0.5260(4) 0.5856(12) 0.1719(7)
N3 N 0.5853(5) 1.2465(10) 0.0669(6)
H2 H 0.5854 1.1769 0.0779
N4 N 0.6107(7) 1.2867(13) 0.2813(9)
N5 N 0.5513(5) 0.3133(13) 0.4812(8)
N6 N 0.6878(6) 0.3273(13) 0.5086(9)
N7 N 0.6755(6) 0.4624(14) 0.6547(9)
O1 O 0.6880(4) 0.8803(8) 0.4114(5)
O2 O 0.6594(3) 0.5997(8) 0.4817(5)
O3 O 0.6162(5) 1.0409(8) 0.0657(6)
O4 O 0.5843(3) 1.3649(8) -0.0053(5)
O5 O 0.5819(4) 0.2850(10) 0.4753(6)
O6 O 0.5501(4) 0.4144(10) 0.4931(6)
O7 O 0.5257(5) 0.2446(12) 0.4781(8)
O8 O 0.6959(4) 0.3725(11) 0.5592(7)
O9 O 0.6453(4) 0.3431(10) 0.4483(7)
O10 O 0.7142(5) 0.2675(13) 0.5076(8)
O11 O 0.6487(5) 0.3821(11) 0.6148(7)
O12 O 0.6750(4) 0.5460(10) 0.6221(6)
O13 O 0.6989(5) 0.4612(13) 0.7193(7)
O14 O 0.5561(3) 0.4862(8) 0.3769(5)
H3 H 0.5501 0.4219 0.3568
H4 H 0.5297 0.5129 0.3615
C1 C 0.6814(7) 0.9554(13) 0.3141(10)
C2 C 0.7134(7) 0.9351(17) 0.3045(11)
H5 H 0.7451 0.9283 0.3438
C3 C 0.6984(10) 0.9241(19) 0.2336(17)
H6 H 0.7207 0.9113 0.2280
C4 C 0.6516(9) 0.9320(16) 0.1741(11)
C5 C 0.6192(6) 0.9516(12) 0.1835(8)
C6 C 0.5729(7) 0.9608(17) 0.1260(10)
H7 H 0.5631 0.9535 0.0803
C7 C 0.5404(9) 0.981(2) 0.1351(12)
H8 H 0.5087 0.9838 0.0952
C8 C 0.5532(8) 0.9976(19) 0.2020(12)
H9 H 0.5312 1.0165 0.2074
C9 C 0.5982(7) 0.9851(16) 0.2575(10)
H10 H 0.6072 0.9907 0.3027
C10 C 0.6328(6) 0.9639(12) 0.2520(9)
C11 C 0.6975(7) 0.9777(15) 0.3862(10)
H11 H 0.7309 0.9934 0.4184
H12 H 0.6814 1.0439 0.3850
C12 C 0.6362(8) 0.9276(14) 0.1004(12)
H13 H 0.6627 0.9097 0.1027
H14 H 0.6126 0.8688 0.0729
C13 C 0.6695(4) 0.6759(11) 0.4579(7)
C14 C 0.6923(4) 0.7834(11) 0.5015(7)
C15 C 0.7013(5) 0.8821(12) 0.4777(7)
C16 C 0.7213(6) 0.9746(14) 0.5219(8)
H15 H 0.7261 1.0405 0.5063
C17 C 0.7343(7) 0.9726(17) 0.5886(9)
H16 H 0.7491 1.0350 0.6187
C18 C 0.7252(7) 0.8765(18) 0.6100(9)
H17 H 0.7334 0.8743 0.6548
C19 C 0.7045(5) 0.7862(13) 0.5670(7)
H18 H 0.6984 0.7227 0.5827
C20 C 0.6444(6) 0.5637(11) 0.3554(7)
H19 H 0.6311 0.5139 0.3702
H20 H 0.6701 0.5238 0.3627
C21 C 0.5604(6) 0.5721(13) 0.2420(8)
H21 H 0.5522 0.5472 0.2689
C22 C 0.6070(5) 0.5925(11) 0.2769(7)
C23 C 0.6188(5) 0.6317(13) 0.2378(8)
H22 H 0.6500 0.6470 0.2592
C24 C 0.5829(6) 0.6487(15) 0.1640(8)
H23 H 0.5896 0.6768 0.1358
C25 C 0.5385(6) 0.6231(14) 0.1357(8)
H24 H 0.5151 0.6326 0.0869
C26 C 0.5865(5) 1.2663(12) 0.0143(7)
C27 C 0.5843(5) 1.1714(12) -0.0277(8)
C28 C 0.6001(6) 1.0624(13) -0.0008(8)
C29 C 0.5975(7) 0.9774(14) -0.0439(10)
H25 H 0.6093 0.9044 -0.0272
C30 C 0.5760(7) 1.0108(15) -0.1134(10)
H26 H 0.5692 0.9541 -0.1454
C31 C 0.5648(6) 1.1126(14) -0.1369(9)
H27 H 0.5546 1.1304 -0.1819
C32 C 0.5682(5) 1.1946(13) -0.0943(8)
H28 H 0.5591 1.2686 -0.1115
C33 C 0.5838(6) 1.3356(13) 0.1069(8)
H29 H 0.5969 1.4048 0.1043
H30 H 0.5513 1.3507 0.0849
C34 C 0.5875(7) 1.3057(14) 0.2108(9)
H31 H 0.5553 1.3188 0.1809
C35 C 0.6096(7) 1.3064(14) 0.1820(9)
C36 C 0.6560(7) 1.2837(15) 0.2259(10)
H32 H 0.6722 1.2825 0.2084
C37 C 0.6805(8) 1.2614(16) 0.2998(11)
H33 H 0.7123 1.2437 0.3314
C38 C 0.6547(8) 1.2677(16) 0.3201(11)
H34 H 0.6707 1.2569 0.3684
Eu1F Eu 0.62051(3) 1.53045(6) 0.00126(4)
O4F O 0.5843(3) 0.6351(8) 0.4947(5)
O15 O 0.5451(6) 0.2836(13) 0.3102(8)
H35 H 0.5709 0.3075 0.3221
H36 H 0.5235 0.3193 0.2725
loop_
_geom_bond_atom_site_label_1
_geom_bond_atom_site_label_2
_geom_bond_site_symmetry_1
_geom_bond_site_symmetry_2
Eu1 O2 1_555 1_555
N1 H1 1_555 1_555
N2 C21 1_555 1_555
N3 H2 1_555 1_555
N4 C34 1_555 1_555
N5 O5 1_555 1_555
N6 O8 1_555 1_555
N7 O11 1_555 1_555
O1 C11 1_555 1_555
O2 C13 1_555 1_555
O3 C12 1_555 1_555
O4 C26 1_555 1_555
O5 Eu1 1_555 1_555
O6 Eu1 1_555 1_555
O7 N5 1_555 1_555
O8 Eu1 1_555 1_555
O9 Eu1 1_555 1_555
O10 N6 1_555 1_555
O11 Eu1 1_555 1_555
O12 Eu1 1_555 1_555
O13 N7 1_555 1_555
O14 Eu1 1_555 1_555
H3 O14 1_555 1_555
H4 O14 1_555 1_555
C1 C2 1_555 1_555
C2 H5 1_555 1_555
C3 C2 1_555 1_555
H6 C3 1_555 1_555
C4 C3 1_555 1_555
C5 C4 1_555 1_555
C6 C5 1_555 1_555
H7 C6 1_555 1_555
C7 C6 1_555 1_555
H8 C7 1_555 1_555
C8 C7 1_555 1_555
H9 C8 1_555 1_555
C9 C8 1_555 1_555
H10 C9 1_555 1_555
C10 C1 1_555 1_555
C11 C1 1_555 1_555
H11 C11 1_555 1_555
H12 C11 1_555 1_555
C12 C4 1_555 1_555
H13 C12 1_555 1_555
H14 C12 1_555 1_555
C13 N1 1_555 1_555
C14 C13 1_555 1_555
C15 O1 1_555 1_555
C16 C15 1_555 1_555
H15 C16 1_555 1_555
C17 C16 1_555 1_555
H16 C17 1_555 1_555
C18 C17 1_555 1_555
H17 C18 1_555 1_555
C19 C14 1_555 1_555
H18 C19 1_555 1_555
C20 N1 1_555 1_555
H19 C20 1_555 1_555
H20 C20 1_555 1_555
C21 H21 1_555 1_555
C22 C20 1_555 1_555
C23 C22 1_555 1_555
H22 C23 1_555 1_555
C24 C23 1_555 1_555
H23 C24 1_555 1_555
C25 N2 1_555 1_555
H24 C25 1_555 1_555
C26 N3 1_555 1_555
C27 C26 1_555 1_555
C28 O3 1_555 1_555
C29 C28 1_555 1_555
H25 C29 1_555 1_555
C30 C29 1_555 1_555
H26 C30 1_555 1_555
C31 C30 1_555 1_555
H27 C31 1_555 1_555
C32 C27 1_555 1_555
H28 C32 1_555 1_555
C33 N3 1_555 1_555
H29 C33 1_555 1_555
H30 C33 1_555 1_555
C34 H31 1_555 1_555
C35 C33 1_555 1_555
C36 C35 1_555 1_555
H32 C36 1_555 1_555
C37 C36 1_555 1_555
H33 C37 1_555 1_555
C38 N4 1_555 1_555
H34 C38 1_555 1_555
O15 H35 1_555 1_555
H36 O15 1_555 1_555
Eu1F O4 1_555 1_555
O4F Eu1 1_555 1_555
N5 O6 1_555 1_555
N6 O9 1_555 1_555
N7 O12 1_555 1_555
C5 C10 1_555 1_555
C9 C10 1_555 1_555
C14 C15 1_555 1_555
C18 C19 1_555 1_555
C21 C22 1_555 1_555
C24 C25 1_555 1_555
C27 C28 1_555 1_555
C31 C32 1_555 1_555
C34 C35 1_555 1_555
C37 C38 1_555 1_555

#END
