
#######################################################################
#
#                 Cambridge Crystallographic Data Centre
#                                CCDC 
#
#######################################################################
#
# If this CIF has been generated from an entry in the Cambridge 
# Structural Database, then it will include bibliographic, chemical, 
# crystal, experimental, refinement or atomic coordinate data resulting 
# from the CCDC's data processing and validation procedures.
#
#######################################################################

data_HISTOU
_symmetry_cell_setting           monoclinic
_symmetry_space_group_name_H-M   'P 21/c'
_symmetry_Int_Tables_number      14
_space_group_name_Hall           '-P 2ybc'
loop_
_symmetry_equiv_pos_site_id
_symmetry_equiv_pos_as_xyz
1 x,y,z
2 -x,1/2+y,1/2-z
3 -x,-y,-z
4 x,1/2-y,1/2+z
_cell_length_a                   23.3391(5)
_cell_length_b                   14.0385(4)
_cell_length_c                   9.8581(3)
_cell_angle_alpha                90
_cell_angle_beta                 94.703(2)
_cell_angle_gamma                90
_cell_volume                     3219.09
loop_
_atom_site_label
_atom_site_type_symbol
_atom_site_fract_x
_atom_site_fract_y
_atom_site_fract_z
C1 C 0.3688(3) 0.1824(4) 0.9713(8)
C2 C 0.4287(3) 0.1562(5) 0.9409(8)
C3 C 0.4728(3) 0.1497(5) 1.0453(8)
H1 H 0.4648 0.1586 1.1353
C4 C 0.5285(3) 0.1298(5) 1.0144(8)
H2 H 0.5582 0.1258 1.0832
C5 C 0.5391(3) 0.1162(5) 0.8819(8)
C6 C 0.4961(3) 0.1203(5) 0.7766(9)
H3 H 0.5044 0.1101 0.6871
C7 C 0.4403(3) 0.1398(5) 0.8071(8)
H4 H 0.4107 0.1419 0.7379
C8 C 0.6451(3) 0.2628(5) 0.7802(9)
C9 C 0.6162(3) 0.3249(5) 0.8575(9)
H5 H 0.5820 0.3067 0.8925
C10 C 0.6387(3) 0.4156(5) 0.8827(9)
H6 H 0.6201 0.4578 0.9371
C11 C 0.6887(3) 0.4435(5) 0.8272(8)
C12 C 0.7167(3) 0.3787(5) 0.7494(9)
H7 H 0.7507 0.3966 0.7131
C13 C 0.6952(3) 0.2887(5) 0.7250(9)
C14 C 0.7628(4) 0.2594(6) 0.5609(11)
H8 H 0.7731 0.2104 0.4993
H9 H 0.7957 0.2755 0.6214
H10 H 0.7500 0.3148 0.5100
C15 C 0.7074(3) 0.5445(5) 0.8344(8)
C16 C 0.1823(3) 0.2918(5) 0.9080(8)
C17 C 0.1214(3) 0.3201(5) 0.9226(7)
C18 C 0.1061(3) 0.3508(5) 1.0495(8)
H11 H 0.1337 0.3535 1.1229
C19 C 0.0501(3) 0.3772(5) 1.0666(8)
C20 C 0.0105(3) 0.3732(5) 0.9539(8)
C21 C 0.0245(3) 0.3431(5) 0.8271(8)
H12 H -0.0033 0.3399 0.7540
C22 C 0.0810(3) 0.3177(5) 0.8118(8)
H13 H 0.0917 0.2990 0.7270
C23 C 0.0713(3) 0.4376(6) 1.2904(9)
H14 H 0.0944 0.4882 1.2584
H15 H 0.0955 0.3846 1.3179
H16 H 0.0519 0.4596 1.3667
C24 C -0.1251(3) 0.3975(5) 1.1368(8)
C25 C -0.1039(3) 0.3850(5) 1.2706(8)
H17 H -0.0720 0.3466 1.2929
C26 C -0.1318(3) 0.4320(5) 1.3716(8)
H18 H -0.1188 0.4241 1.4626
C27 C -0.1784(3) 0.4898(5) 1.3373(8)
C28 C -0.1986(3) 0.5001(5) 1.2019(9)
C29 C -0.1721(3) 0.4547(5) 1.0996(8)
H19 H -0.1853 0.4624 1.0087
C30 C -0.2095(3) 0.5405(5) 1.4421(8)
O1 O 0.19466(19) 0.2642(3) 0.7912(5)
O2 O 0.3177(2) 0.1252(3) 1.3273(5)
H20 H 0.2924 0.1048 1.3781
H21 H 0.3273 0.0801 1.2756
O3 O 0.36005(19) 0.2010(3) 1.0932(5)
O4 O 0.33110(19) 0.1844(3) 0.8747(5)
O5 O 0.6500(2) 0.0975(4) 0.9511(6)
O6 O 0.6058(2) 0.0095(4) 0.7502(7)
O7 O 0.6207(2) 0.1739(4) 0.7342(6)
O8 O 0.7171(3) 0.2254(4) 0.6392(8)
O9 O 0.7494(2) 0.5732(3) 0.7718(5)
O10 O 0.67901(19) 0.6032(3) 0.9013(5)
O11 O 0.21816(18) 0.2965(3) 1.0085(5)
O12 O 0.0298(2) 0.4086(4) 1.1838(6)
O13 O -0.0457(2) 0.4067(3) 0.9685(6)
O14 O -0.1345(2) 0.3287(4) 0.8887(6)
O15 O -0.0673(2) 0.2493(3) 1.0596(6)
O16 O -0.2431(2) 0.6062(3) 1.4150(5)
O17 O -0.1976(2) 0.5083(3) 1.5660(5)
H22 H -0.2174 0.5363 1.6183
S1 S 0.60887(8) 0.09159(13) 0.8362(2)
S2 S -0.09366(8) 0.33356(13) 1.0051(2)
Dy1 Dy 0.278359(12) 0.25479(2) 1.18921(3)
H23 H -0.227(3) 0.522(5) 1.176(8)
O1C O 0.19466(19) 0.2358(3) 1.2912(5)
O4C O 0.33110(19) 0.3156(3) 1.3747(5)
O9B O 0.2506(2) 0.4268(3) 1.2282(5)
O10B O 0.32099(19) 0.3968(3) 1.0987(5)
O16A O 0.2431(2) 0.1062(3) 1.0850(5)
Dy1A Dy -0.278359(12) 0.75479(2) 1.31079(3)
Dy1B Dy 0.721641(12) 0.74521(2) 0.81079(3)
Dy1C Dy 0.278359(12) 0.24521(2) 0.68921(3)
loop_
_geom_bond_atom_site_label_1
_geom_bond_atom_site_label_2
_geom_bond_site_symmetry_1
_geom_bond_site_symmetry_2
C1 C2 1_555 1_555
C2 C3 1_555 1_555
C3 H1 1_555 1_555
C4 C3 1_555 1_555
H2 C4 1_555 1_555
C5 C4 1_555 1_555
C6 C5 1_555 1_555
H3 C6 1_555 1_555
C7 C2 1_555 1_555
H4 C7 1_555 1_555
C8 C9 1_555 1_555
C9 H5 1_555 1_555
C10 C9 1_555 1_555
H6 C10 1_555 1_555
C11 C10 1_555 1_555
C12 C11 1_555 1_555
H7 C12 1_555 1_555
C13 C8 1_555 1_555
C14 H8 1_555 1_555
H9 C14 1_555 1_555
H10 C14 1_555 1_555
C15 C11 1_555 1_555
C16 C17 1_555 1_555
C17 C18 1_555 1_555
C18 H11 1_555 1_555
C19 C18 1_555 1_555
C20 C19 1_555 1_555
C21 C20 1_555 1_555
H12 C21 1_555 1_555
C22 C17 1_555 1_555
H13 C22 1_555 1_555
C23 H14 1_555 1_555
H15 C23 1_555 1_555
H16 C23 1_555 1_555
C24 C25 1_555 1_555
C25 H17 1_555 1_555
C26 C25 1_555 1_555
H18 C26 1_555 1_555
C27 C26 1_555 1_555
C28 C27 1_555 1_555
C29 C24 1_555 1_555
H19 C29 1_555 1_555
C30 C27 1_555 1_555
O1 C16 1_555 1_555
O2 H20 1_555 1_555
H21 O2 1_555 1_555
O3 C1 1_555 1_555
O4 C1 1_555 1_555
O5 S1 1_555 1_555
O6 S1 1_555 1_555
O7 C8 1_555 1_555
O8 C13 1_555 1_555
O9 C15 1_555 1_555
O10 C15 1_555 1_555
O11 C16 1_555 1_555
O12 C19 1_555 1_555
O13 C20 1_555 1_555
O14 S2 1_555 1_555
O15 S2 1_555 1_555
O16 C30 1_555 1_555
O17 C30 1_555 1_555
H22 O17 1_555 1_555
S1 C5 1_555 1_555
S2 C24 1_555 1_555
Dy1 O2 1_555 1_555
H23 C28 1_555 1_555
O1C Dy1 1_555 1_555
O4C Dy1 1_555 1_555
O9B Dy1 1_555 1_555
O10B Dy1 1_555 1_555
O16A Dy1 1_555 1_555
Dy1A O16 1_555 1_555
Dy1B O9 1_555 1_555
Dy1C O1 1_555 1_555
C6 C7 1_555 1_555
C12 C13 1_555 1_555
C14 O8 1_555 1_555
C21 C22 1_555 1_555
C23 O12 1_555 1_555
C28 C29 1_555 1_555
O3 Dy1 1_555 1_555
O4 Dy1C 1_555 1_555
O7 S1 1_555 1_555
O10 Dy1B 1_555 1_555
O11 Dy1 1_555 1_555
O13 S2 1_555 1_555

#END
