
#######################################################################
#
#                 Cambridge Crystallographic Data Centre
#                                CCDC 
#
#######################################################################
#
# If this CIF has been generated from an entry in the Cambridge 
# Structural Database, then it will include bibliographic, chemical, 
# crystal, experimental, refinement or atomic coordinate data resulting 
# from the CCDC's data processing and validation procedures.
#
#######################################################################

data_HISTCW11
_symmetry_cell_setting           triclinic
_symmetry_space_group_name_H-M   'P -1'
_symmetry_Int_Tables_number      2
_space_group_name_Hall           '-P 1'
loop_
_symmetry_equiv_pos_site_id
_symmetry_equiv_pos_as_xyz
1 x,y,z
2 -x,-y,-z
_cell_length_a                   5.84250(10)
_cell_length_b                   8.5745(3)
_cell_length_c                   9.0370(3)
_cell_angle_alpha                80.1680(10)
_cell_angle_beta                 88.8050(10)
_cell_angle_gamma                80.7760(10)
_cell_volume                     440.295
loop_
_atom_site_label
_atom_site_type_symbol
_atom_site_fract_x
_atom_site_fract_y
_atom_site_fract_z
Cu1 Cu 0.75375(5) 0.47051(3) 1.12356(3)
Cl1 Cl 0.74115(9) 0.56110(7) 0.86458(6)
Cl2 Cl 0.69094(11) 0.73154(7) 1.15894(7)
N1 N 0.8196(3) 0.2502(2) 1.0681(2)
H1 H 0.6874 0.2335 1.0237
H2 H 0.9323 0.2524 0.9954
C1 C 0.8938(5) 0.1082(3) 1.1835(3)
H3 H 1.0489 0.1137 1.2226
H4 H 0.9057 0.01 1.1382
C2 C 0.7212(5) 0.1001(3) 1.3124(3)
H5 H 0.5624 0.1129 1.271
H6 H 0.7542 -0.0067 1.3768
C3 C 0.7327(4) 0.2267(3) 1.4053(3)
C4 C 0.7322(4) 0.2161(3) 1.5569(3)
H7 H 0.7214 0.1231 1.6291
N2 N 0.7503(3) 0.3657(3) 1.5857(2)
H8 H 0.7554 0.3927 1.6751
C5 C 0.7590(4) 0.4631(3) 1.4543(3)
H9 H 0.7699 0.5738 1.4432
N3 N 0.7501(3) 0.3835(2) 1.3412(2)
Cu1A Cu 0.24625(5) 0.52949(3) 0.87644(3)
Cu1A_2 Cu 1.24625(5) 0.52949(3) 0.87644(3)
Cl1A Cl 0.25885(9) 0.43890(7) 1.13542(6)
Cl1A_2 Cl 1.25885(9) 0.43890(7) 1.13542(6)
loop_
_geom_bond_atom_site_label_1
_geom_bond_atom_site_label_2
_geom_bond_site_symmetry_1
_geom_bond_site_symmetry_2
Cu1 Cl1 1_555 1_555
Cl1 Cu1A 1_555 1_555
Cl2 Cu1 1_555 1_555
N1 Cu1 1_555 1_555
H1 N1 1_555 1_555
H2 N1 1_555 1_555
C1 N1 1_555 1_555
H3 C1 1_555 1_555
H4 C1 1_555 1_555
C2 C1 1_555 1_555
H5 C2 1_555 1_555
H6 C2 1_555 1_555
C3 C2 1_555 1_555
C4 C3 1_555 1_555
H7 C4 1_555 1_555
N2 C4 1_555 1_555
H8 N2 1_555 1_555
C5 N2 1_555 1_555
H9 C5 1_555 1_555
N3 Cu1 1_555 1_555
Cu1A Cl1A 1_555 1_555
Cu1A_2 Cl1 1_555 1_555
Cl1A Cu1 1_555 1_555
Cl1A_2 Cu1 1_555 1_555
C3 N3 1_555 1_555
C5 N3 1_555 1_555
Cu1A_2 Cl1A_2 1_555 1_555

#END
