
#######################################################################
#
#                 Cambridge Crystallographic Data Centre
#                                CCDC 
#
#######################################################################
#
# If this CIF has been generated from an entry in the Cambridge 
# Structural Database, then it will include bibliographic, chemical, 
# crystal, experimental, refinement or atomic coordinate data resulting 
# from the CCDC's data processing and validation procedures.
#
#######################################################################

data_HISVIQ01
_symmetry_cell_setting           monoclinic
_symmetry_space_group_name_H-M   'C 2/c'
_symmetry_Int_Tables_number      15
_space_group_name_Hall           '-C 2yn'
loop_
_symmetry_equiv_pos_site_id
_symmetry_equiv_pos_as_xyz
1 x,y,z
2 -x,y,1/2-z
3 1/2+x,1/2+y,z
4 1/2-x,1/2+y,1/2-z
5 -x,-y,-z
6 x,-y,1/2+z
7 1/2-x,1/2-y,-z
8 1/2+x,1/2-y,1/2+z
_cell_length_a                   15.6758(14)
_cell_length_b                   13.6884(12)
_cell_length_c                   22.957(2)
_cell_angle_alpha                90
_cell_angle_beta                 102.617(2)
_cell_angle_gamma                90
_cell_volume                     4807.08
loop_
_atom_site_label
_atom_site_type_symbol
_atom_site_fract_x
_atom_site_fract_y
_atom_site_fract_z
Zn1 Zn 0.59648(2) 0.40393(2) 0.205165(14)
O1 O 0.60020(14) 0.39360(14) 0.11219(10)
O2 O 0.72690(14) 0.39352(15) 0.17616(9)
O3 O 0.46084(13) 0.40293(15) 0.18323(9)
O4 O 0.33341(13) 0.41299(14) 0.20868(9)
N1 N 0.59247(15) 0.24733(18) 0.21253(10)
C1 C 0.52806(18) 0.1932(2) 0.17901(12)
H1 H 0.4805 0.2258 0.1538
C2 C 0.52831(19) 0.0928(2) 0.17987(13)
H2 H 0.4813 0.0578 0.1556
C3 C 0.59706(18) 0.0419(2) 0.21602(12)
C4 C 0.6629(2) 0.0989(2) 0.25142(13)
H3 H 0.7108 0.0683 0.2776
C5 C 0.65812(18) 0.1994(2) 0.24816(12)
H4 H 0.7036 0.2365 0.2724
N2 N 0.58527(15) -0.43911(18) 0.19887(10)
C6 C 0.62139(19) -0.3789(2) 0.24369(13)
H5 H 0.6540 -0.4072 0.2795
C7 C 0.61404(19) -0.2791(2) 0.24087(13)
H6 H 0.6411 -0.2401 0.2740
C8 C 0.56652(18) -0.2353(2) 0.18901(13)
C9 C 0.5282(2) -0.2972(2) 0.14290(13)
H7 H 0.4944 -0.2709 0.1069
C10 C 0.5389(2) -0.3971(2) 0.14914(13)
H8 H 0.5123 -0.4379 0.1168
C11 C 0.60481(19) -0.0644(2) 0.21951(13)
H9 H 0.6486 -0.0901 0.2511
C12 C 0.55654(19) -0.1295(2) 0.18286(13)
H10 H 0.5129 -0.1052 0.1507
C13 C 0.6825(2) 0.38957(19) 0.12339(13)
C14 C 0.72810(19) 0.3813(2) 0.07249(13)
C15 C 0.8181(2) 0.3808(2) 0.08322(14)
H11 H 0.8512 0.3843 0.1231
C16 C 0.8607(2) 0.3751(2) 0.03630(16)
H12 H 0.9228 0.3749 0.0444
C17 C 0.8134(2) 0.3698(2) -0.02248(15)
C18 C 0.7227(2) 0.3697(2) -0.03287(14)
H13 H 0.6894 0.3654 -0.0727
C19 C 0.6800(2) 0.3757(2) 0.01392(13)
H14 H 0.6179 0.3760 0.0060
C20 C 0.8605(3) 0.3641(3) -0.07261(17)
H15 H 0.8977 0.4219 -0.0718
H16 H 0.8178 0.3615 -0.1108
H17 H 0.8969 0.3052 -0.0681
C21 C 0.37985(18) 0.40515(18) 0.17019(12)
C22 C 0.33391(19) 0.39669(19) 0.10607(13)
C23 C 0.3825(2) 0.3881(2) 0.06227(13)
H18 H 0.4446 0.3896 0.0730
C24 C 0.3402(3) 0.3773(2) 0.00301(14)
H19 H 0.3738 0.3717 -0.0266
C25 C 0.2499(3) 0.3745(2) -0.01406(14)
C26 C 0.2021(2) 0.3824(2) 0.02985(16)
H20 H 0.1401 0.3801 0.0190
C27 C 0.2434(2) 0.3936(2) 0.08969(15)
H21 H 0.2096 0.3991 0.1192
C28 C 0.2048(3) 0.3628(3) -0.07908(16)
H22 H 0.2404 0.3213 -0.0992
H23 H 0.1972 0.4271 -0.0983
H24 H 0.1474 0.3325 -0.0818
Zn1_2 Zn 0.59648(2) -0.59607(2) 0.205165(14)
Zn1A Zn 0.40352(2) 0.40393(2) 0.294835(14)
O4A O 0.66659(13) 0.41299(14) 0.29132(9)
N2_2 N 0.58527(15) 0.56089(18) 0.19887(10)
loop_
_geom_bond_atom_site_label_1
_geom_bond_atom_site_label_2
_geom_bond_site_symmetry_1
_geom_bond_site_symmetry_2
Zn1 O1 1_555 1_555
O1 C13 1_555 1_555
O2 Zn1 1_555 1_555
O3 Zn1 1_555 1_555
O4 C21 1_555 1_555
N1 Zn1 1_555 1_555
C1 N1 1_555 1_555
H1 C1 1_555 1_555
C2 C1 1_555 1_555
H2 C2 1_555 1_555
C3 C2 1_555 1_555
C4 C3 1_555 1_555
H3 C4 1_555 1_555
C5 N1 1_555 1_555
H4 C5 1_555 1_555
N2 C6 1_555 1_555
C6 H5 1_555 1_555
C7 C6 1_555 1_555
H6 C7 1_555 1_555
C8 C7 1_555 1_555
C9 C8 1_555 1_555
H7 C9 1_555 1_555
C10 N2 1_555 1_555
H8 C10 1_555 1_555
C11 C3 1_555 1_555
H9 C11 1_555 1_555
C12 C8 1_555 1_555
H10 C12 1_555 1_555
C13 O2 1_555 1_555
C14 C13 1_555 1_555
C15 C14 1_555 1_555
H11 C15 1_555 1_555
C16 C15 1_555 1_555
H12 C16 1_555 1_555
C17 C16 1_555 1_555
C18 C17 1_555 1_555
H13 C18 1_555 1_555
C19 C14 1_555 1_555
H14 C19 1_555 1_555
C20 C17 1_555 1_555
H15 C20 1_555 1_555
H16 C20 1_555 1_555
H17 C20 1_555 1_555
C21 O3 1_555 1_555
C22 C21 1_555 1_555
C23 C22 1_555 1_555
H18 C23 1_555 1_555
C24 C23 1_555 1_555
H19 C24 1_555 1_555
C25 C24 1_555 1_555
C26 C25 1_555 1_555
H20 C26 1_555 1_555
C27 C22 1_555 1_555
H21 C27 1_555 1_555
C28 C25 1_555 1_555
H22 C28 1_555 1_555
H23 C28 1_555 1_555
H24 C28 1_555 1_555
Zn1_2 N2 1_555 1_555
Zn1A O4 1_555 1_555
O4A Zn1 1_555 1_555
N2_2 Zn1 1_555 1_555
C4 C5 1_555 1_555
C9 C10 1_555 1_555
C11 C12 1_555 1_555
C18 C19 1_555 1_555
C26 C27 1_555 1_555

#END
