
#######################################################################
#
#                 Cambridge Crystallographic Data Centre
#                                CCDC 
#
#######################################################################
#
# If this CIF has been generated from an entry in the Cambridge 
# Structural Database, then it will include bibliographic, chemical, 
# crystal, experimental, refinement or atomic coordinate data resulting 
# from the CCDC's data processing and validation procedures.
#
#######################################################################

data_HISVOV
_symmetry_cell_setting           triclinic
_symmetry_space_group_name_H-M   'P -1'
_symmetry_Int_Tables_number      2
_space_group_name_Hall           '-P 1'
loop_
_symmetry_equiv_pos_site_id
_symmetry_equiv_pos_as_xyz
1 x,y,z
2 -x,-y,-z
_cell_length_a                   8.302(4)
_cell_length_b                   8.667(4)
_cell_length_c                   11.470(5)
_cell_angle_alpha                94.380(6)
_cell_angle_beta                 90.990(4)
_cell_angle_gamma                105.831(5)
_cell_volume                     791.058
loop_
_atom_site_label
_atom_site_type_symbol
_atom_site_fract_x
_atom_site_fract_y
_atom_site_fract_z
Cd1 Cd 1.09873(2) 0.43362(2) -0.696130(14)
Cd2 Cd 0.5000 0.0000 0.0000
S1 S 0.72465(8) -0.11717(8) -0.22570(5)
N1 N 1.0364(3) 0.4733(3) -0.88605(19)
C1 C 0.7687(3) 0.0290(3) -0.5530(2)
C2 C 0.6352(3) -0.0834(3) -0.6125(2)
H1 H 0.6142 -0.0759 -0.6915
C3 C 0.5324(3) -0.2073(3) -0.5555(2)
C4 C 0.5643(3) -0.2160(3) -0.4362(2)
H2 H 0.4955 -0.2968 -0.3964
C5 C 0.6963(3) -0.1058(3) -0.3788(2)
C6 C 0.7994(3) 0.0197(3) -0.4346(2)
H3 H 0.8870 0.0957 -0.3934
C7 C 0.8779(3) 0.1653(3) -0.6138(2)
C8 C 0.3842(3) -0.3273(3) -0.6160(2)
C9 C 1.0063(5) 0.6102(4) -0.9114(3)
H4 H 1.0121 0.6909 -0.8519
C10 C 1.0336(5) 0.3656(4) -0.9748(3)
H5 H 1.0593 0.2707 -0.9605
O1 O 0.8441(3) 0.1841(3) -0.7179(2)
O3 O 1.0029(2) 0.2589(2) -0.55828(18)
O4 O 0.3552(4) -0.3260(3) -0.7230(2)
O5 O 0.2895(3) -0.4275(3) -0.55633(19)
O6 O 0.7325(3) -0.2826(3) -0.21496(17)
O7 O 0.5703(3) -0.0969(3) -0.17515(17)
O8 O 0.8727(3) 0.0024(3) -0.1809(2)
O9 O 0.9011(4) 0.5741(4) -0.6495(2)
H6 H 0.905(6) 0.631(5) -0.587(2)
H7 H 0.802(2) 0.548(6) -0.674(4)
O10 O 0.6044(5) 0.2528(4) -0.0503(3)
H8 H 0.584(7) 0.330(5) -0.010(4)
H9 H 0.581(7) 0.274(7) -0.118(2)
O11 O 0.7498(4) -0.0022(4) 0.0827(3)
H10 H 0.832(4) 0.022(6) 0.040(4)
H11 H 0.792(6) 0.047(6) 0.147(2)
Cd1A Cd -0.09873(2) -0.43362(2) 0.696130(14)
Cd1_2 Cd 0.09873(2) -0.56638(2) -0.696130(14)
Cd1A_2 Cd 0.90127(2) -0.43362(2) -0.303870(14)
Cd1A_3 Cd 0.90127(2) 0.56638(2) -1.303870(14)
Cd1A_4 Cd 0.90127(2) 0.56638(2) 0.696130(14)
Cd1_3 Cd 0.09873(2) 0.43362(2) 0.303870(14)
S1A S 0.27535(8) 0.11717(8) 0.22570(5)
N1A N 0.9636(3) 0.5267(3) -1.11395(19)
N1A_2 N -0.0364(3) -0.4733(3) 0.88605(19)
C1A C 0.2313(3) -0.0290(3) 0.5530(2)
C2A C 0.3648(3) 0.0834(3) 0.6125(2)
H1A H 0.3858 0.0759 0.6915
C3A C 0.4676(3) 0.2073(3) 0.5555(2)
C4A C 0.4357(3) 0.2160(3) 0.4362(2)
H2A H 0.5045 0.2968 0.3964
C5A C 0.3037(3) 0.1058(3) 0.3788(2)
C6A C 0.2006(3) -0.0197(3) 0.4346(2)
H3A H 0.1130 -0.0957 0.3934
C7A C 0.1221(3) -0.1653(3) 0.6138(2)
C8A C 0.6158(3) 0.3273(3) 0.6160(2)
C9A C 0.9937(5) 0.3898(4) -1.0886(3)
H4A H 0.9879 0.3091 -1.1481
C10A C 0.9664(5) 0.6344(4) -1.0252(3)
H5A H 0.9407 0.7293 -1.0395
O1A O 0.1559(3) -0.1841(3) 0.7179(2)
O3A O -0.0029(2) -0.2589(2) 0.55828(18)
O4A O 0.6448(4) 0.3260(3) 0.7230(2)
O4_2 O 1.3552(4) 0.6740(3) -0.7230(2)
O4A_2 O -0.3552(4) -0.6740(3) 0.7230(2)
O5A O 0.7105(3) 0.4275(3) 0.55633(19)
O5_2 O 1.2895(3) 0.5725(3) -0.55633(19)
O5A_2 O -0.2895(3) -0.5725(3) 0.55633(19)
O6A O 0.2675(3) 0.2826(3) 0.21496(17)
O6A_2 O 1.2675(3) 0.2826(3) -0.78504(17)
O6_2 O -0.2675(3) -0.2826(3) 0.78504(17)
O7A O 0.4297(3) 0.0969(3) 0.17515(17)
O8A O 0.1273(3) -0.0024(3) 0.1809(2)
O9A O 0.0989(4) -0.5741(4) 0.6495(2)
H6A H 0.095(6) -0.631(5) 0.587(2)
H7A H 0.198(2) -0.548(6) 0.674(4)
O10A O 0.3956(5) -0.2528(4) 0.0503(3)
H8A H 0.416(7) -0.330(5) 0.010(4)
H9A H 0.419(7) -0.274(7) 0.118(2)
O11A O 0.2502(4) 0.0022(4) -0.0827(3)
H10A H 0.168(4) -0.022(6) -0.040(4)
H11A H 0.208(6) -0.047(6) -0.147(2)
O2 O 0.6116(9) 0.4799(9) 0.1669(7)
loop_
_geom_bond_atom_site_label_1
_geom_bond_atom_site_label_2
_geom_bond_site_symmetry_1
_geom_bond_site_symmetry_2
Cd1 N1 1_555 1_555
Cd2 O7 1_555 1_555
S1 C5 1_555 1_555
N1 C9 1_555 1_555
C1 C2 1_555 1_555
C2 H1 1_555 1_555
C3 C2 1_555 1_555
C4 C3 1_555 1_555
H2 C4 1_555 1_555
C5 C4 1_555 1_555
C6 C1 1_555 1_555
H3 C6 1_555 1_555
C7 C1 1_555 1_555
C8 C3 1_555 1_555
C9 H4 1_555 1_555
C10 N1 1_555 1_555
H5 C10 1_555 1_555
O1 Cd1 1_555 1_555
O3 Cd1 1_555 1_555
O4 C8 1_555 1_555
O5 C8 1_555 1_555
O6 S1 1_555 1_555
O7 S1 1_555 1_555
O8 S1 1_555 1_555
O9 Cd1 1_555 1_555
H6 O9 1_555 1_555
H7 O9 1_555 1_555
O10 Cd2 1_555 1_555
H8 O10 1_555 1_555
H9 O10 1_555 1_555
O11 Cd2 1_555 1_555
H10 O11 1_555 1_555
H11 O11 1_555 1_555
Cd1A N1A_2 1_555 1_555
Cd1_2 O4 1_555 1_555
Cd1A_2 O6 1_555 1_555
Cd1A_3 N1A 1_555 1_555
Cd1A_4 O4A 1_555 1_555
Cd1_3 O6A 1_555 1_555
S1A C5A 1_555 1_555
N1A C9A 1_555 1_555
C1A C2A 1_555 1_555
C2A H1A 1_555 1_555
C3A C2A 1_555 1_555
C4A C3A 1_555 1_555
H2A C4A 1_555 1_555
C5A C4A 1_555 1_555
C6A C1A 1_555 1_555
H3A C6A 1_555 1_555
C7A C1A 1_555 1_555
C8A C3A 1_555 1_555
C9A C10 1_555 1_555
H4A C9A 1_555 1_555
C10A C9 1_555 1_555
H5A C10A 1_555 1_555
O1A Cd1A 1_555 1_555
O3A Cd1A 1_555 1_555
O4A C8A 1_555 1_555
O4_2 Cd1 1_555 1_555
O4A_2 Cd1A 1_555 1_555
O5A Cd1A_4 1_555 1_555
O5_2 Cd1 1_555 1_555
O5A_2 Cd1A 1_555 1_555
O6A S1A 1_555 1_555
O6A_2 Cd1 1_555 1_555
O6_2 Cd1A 1_555 1_555
O7A Cd2 1_555 1_555
O8A S1A 1_555 1_555
O9A Cd1A 1_555 1_555
H6A O9A 1_555 1_555
H7A O9A 1_555 1_555
O10A Cd2 1_555 1_555
H8A O10A 1_555 1_555
H9A O10A 1_555 1_555
O11A Cd2 1_555 1_555
H10A O11A 1_555 1_555
H11A O11A 1_555 1_555
C5 C6 1_555 1_555
C7 O1 1_555 1_555
C7 O3 1_555 1_555
O5 Cd1_2 1_555 1_555
S1A O7A 1_555 1_555
N1A C10A 1_555 1_555
C5A C6A 1_555 1_555
C7A O1A 1_555 1_555
C7A O3A 1_555 1_555
C8A O5A 1_555 1_555

#END
