
#######################################################################
#
#                 Cambridge Crystallographic Data Centre
#                                CCDC 
#
#######################################################################
#
# If this CIF has been generated from an entry in the Cambridge 
# Structural Database, then it will include bibliographic, chemical, 
# crystal, experimental, refinement or atomic coordinate data resulting 
# from the CCDC's data processing and validation procedures.
#
#######################################################################

data_HISVIQ
_symmetry_cell_setting           triclinic
_symmetry_space_group_name_H-M   'P -1'
_symmetry_Int_Tables_number      2
_space_group_name_Hall           '-P 1'
loop_
_symmetry_equiv_pos_site_id
_symmetry_equiv_pos_as_xyz
1 x,y,z
2 -x,-y,-z
_cell_length_a                   10.2881(15)
_cell_length_b                   11.0671(16)
_cell_length_c                   11.2031(16)
_cell_angle_alpha                88.609(3)
_cell_angle_beta                 70.855(3)
_cell_angle_gamma                79.324(3)
_cell_volume                     1183.26
loop_
_atom_site_label
_atom_site_type_symbol
_atom_site_fract_x
_atom_site_fract_y
_atom_site_fract_z
Zn1 Zn 0.57187(3) 0.61433(3) 0.58818(3)
O1 O 0.6883(2) 0.7479(2) 0.6406(2)
O2 O 0.5185(2) 0.6775(2) 0.7823(2)
O3 O 0.4164(2) 0.50854(19) 0.6392(2)
O4 O 0.3065(2) 0.37055(19) 0.59596(19)
N1 N 0.7135(3) 0.4550(2) 0.6127(2)
C1 C 0.6732(3) 0.3704(3) 0.6979(3)
H1 H 0.5800 0.3862 0.7553
C2 C 0.7592(3) 0.2626(3) 0.7064(3)
H2 H 0.7248 0.2052 0.7677
C3 C 0.8964(3) 0.2374(3) 0.6255(3)
C4 C 0.9402(3) 0.3267(3) 0.5392(3)
H3 H 1.0339 0.3147 0.4830
C5 C 0.8475(3) 0.4310(3) 0.5361(3)
H4 H 0.8795 0.4904 0.4763
N2 N 1.4128(3) -0.2400(2) 0.5636(2)
C6 C 1.2793(3) -0.2248(3) 0.6403(3)
H5 H 1.2526 -0.2871 0.6982
C7 C 1.1795(3) -0.1239(3) 0.6394(3)
H6 H 1.0858 -0.1189 0.6942
C8 C 1.2150(3) -0.0289(3) 0.5584(3)
C9 C 1.3530(3) -0.0470(3) 0.4758(3)
H7 H 1.3820 0.0128 0.4155
C10 C 1.4468(3) -0.1511(3) 0.4818(3)
H8 H 1.5403 -0.1606 0.4253
C11 C 0.9872(3) 0.1210(3) 0.6301(3)
H9 H 0.9478 0.0631 0.6883
C12 C 1.1221(3) 0.0892(3) 0.5584(3)
H10 H 1.1613 0.1487 0.5023
C13 C 0.6114(3) 0.7423(3) 0.7532(3)
C14 C 0.6315(3) 0.8143(3) 0.8557(3)
C15 C 0.5550(3) 0.8019(3) 0.9817(3)
H11 H 0.4873 0.7501 1.0030
C16 C 0.5775(3) 0.8651(3) 1.0763(3)
H12 H 0.5246 0.8564 1.1621
C17 C 0.6760(3) 0.9409(3) 1.0475(3)
C18 C 0.7513(3) 0.9532(3) 0.9219(3)
H13 H 0.8186 1.0054 0.9006
C19 C 0.7298(3) 0.8901(3) 0.8265(3)
H14 H 0.7828 0.8989 0.7407
C20 C 0.7020(4) 1.0063(3) 1.1513(3)
H15 H 0.7898 0.9644 1.1623
H16 H 0.6245 1.0055 1.2304
H17 H 0.7088 1.0916 1.1288
C21 C 0.3331(3) 0.4350(3) 0.6741(3)
C22 C 0.2625(3) 0.4238(3) 0.8119(3)
C23 C 0.1662(3) 0.3452(3) 0.8548(3)
H18 H 0.1467 0.2973 0.7957
C24 C 0.0996(3) 0.3370(3) 0.9826(3)
H19 H 0.0343 0.2834 1.0106
C25 C 0.1262(3) 0.4061(3) 1.0717(3)
C26 C 0.2229(3) 0.4839(3) 1.0270(3)
H20 H 0.2434 0.5313 1.0859
C27 C 0.2894(3) 0.4936(3) 0.8993(3)
H21 H 0.3537 0.5480 0.8712
C28 C 0.0540(4) 0.3995(3) 1.2107(3)
H22 H -0.0131 0.3439 1.2252
H23 H 0.0043 0.4818 1.2461
H24 H 0.1236 0.3685 1.2518
Zn1_2 Zn 1.57187(3) -0.38567(3) 0.58818(3)
Zn1A Zn 0.42813(3) 0.38567(3) 0.41182(3)
O4A O 0.6935(2) 0.62945(19) 0.40404(19)
N2_2 N 0.4128(3) 0.7600(2) 0.5636(2)
loop_
_geom_bond_atom_site_label_1
_geom_bond_atom_site_label_2
_geom_bond_site_symmetry_1
_geom_bond_site_symmetry_2
Zn1 O1 1_555 1_555
O1 C13 1_555 1_555
O2 Zn1 1_555 1_555
O3 Zn1 1_555 1_555
O4 C21 1_555 1_555
N1 Zn1 1_555 1_555
C1 N1 1_555 1_555
H1 C1 1_555 1_555
C2 C1 1_555 1_555
H2 C2 1_555 1_555
C3 C2 1_555 1_555
C4 C3 1_555 1_555
H3 C4 1_555 1_555
C5 N1 1_555 1_555
H4 C5 1_555 1_555
N2 C6 1_555 1_555
C6 H5 1_555 1_555
C7 C6 1_555 1_555
H6 C7 1_555 1_555
C8 C7 1_555 1_555
C9 C8 1_555 1_555
H7 C9 1_555 1_555
C10 N2 1_555 1_555
H8 C10 1_555 1_555
C11 C3 1_555 1_555
H9 C11 1_555 1_555
C12 C8 1_555 1_555
H10 C12 1_555 1_555
C13 O2 1_555 1_555
C14 C13 1_555 1_555
C15 C14 1_555 1_555
H11 C15 1_555 1_555
C16 C15 1_555 1_555
H12 C16 1_555 1_555
C17 C16 1_555 1_555
C18 C17 1_555 1_555
H13 C18 1_555 1_555
C19 C14 1_555 1_555
H14 C19 1_555 1_555
C20 C17 1_555 1_555
H15 C20 1_555 1_555
H16 C20 1_555 1_555
H17 C20 1_555 1_555
C21 O3 1_555 1_555
C22 C21 1_555 1_555
C23 C22 1_555 1_555
H18 C23 1_555 1_555
C24 C23 1_555 1_555
H19 C24 1_555 1_555
C25 C24 1_555 1_555
C26 C25 1_555 1_555
H20 C26 1_555 1_555
C27 C22 1_555 1_555
H21 C27 1_555 1_555
C28 C25 1_555 1_555
H22 C28 1_555 1_555
H23 C28 1_555 1_555
H24 C28 1_555 1_555
Zn1_2 N2 1_555 1_555
Zn1A O4 1_555 1_555
O4A Zn1 1_555 1_555
N2_2 Zn1 1_555 1_555
C4 C5 1_555 1_555
C9 C10 1_555 1_555
C11 C12 1_555 1_555
C18 C19 1_555 1_555
C26 C27 1_555 1_555

#END
