
#######################################################################
#
#                 Cambridge Crystallographic Data Centre
#                                CCDC 
#
#######################################################################
#
# If this CIF has been generated from an entry in the Cambridge 
# Structural Database, then it will include bibliographic, chemical, 
# crystal, experimental, refinement or atomic coordinate data resulting 
# from the CCDC's data processing and validation procedures.
#
#######################################################################

data_HISVUC
_symmetry_cell_setting           triclinic
_symmetry_space_group_name_H-M   'P -1'
_symmetry_Int_Tables_number      2
_space_group_name_Hall           '-P 1'
loop_
_symmetry_equiv_pos_site_id
_symmetry_equiv_pos_as_xyz
1 x,y,z
2 -x,-y,-z
_cell_length_a                   8.2441(10)
_cell_length_b                   11.3889(13)
_cell_length_c                   11.8203(15)
_cell_angle_alpha                67.142(5)
_cell_angle_beta                 72.808(5)
_cell_angle_gamma                77.218(5)
_cell_volume                     969.809
loop_
_atom_site_label
_atom_site_type_symbol
_atom_site_fract_x
_atom_site_fract_y
_atom_site_fract_z
Zn1 Zn 0.41880(3) 0.47552(2) 0.41838(2)
O1 O 0.24626(18) 0.60628(13) 0.48232(14)
O2 O 0.36825(17) 0.64978(13) 0.60449(15)
O3 O 0.56635(19) 0.62065(13) 0.29877(14)
O4 O 0.68322(19) 0.66701(13) 0.42186(13)
N1 N 0.3039(2) 0.47223(14) 0.28947(15)
C1 C 0.3899(3) 0.4190(2) 0.2026(2)
H1 H 0.5047 0.3813 0.2035
C2 C 0.3187(3) 0.4167(2) 0.1119(2)
H2 H 0.3842 0.3781 0.0517
C3 C 0.1503(3) 0.47115(18) 0.10849(19)
C4 C 0.0606(2) 0.52352(18) 0.20139(18)
H3 H -0.0556 0.5594 0.2045
C5 C 0.1405(2) 0.52312(17) 0.28856(18)
H4 H 0.0778 0.5602 0.3505
C6 C 0.0768(3) 0.4724(2) 0.0090(2)
H5 H 0.1456 0.4299 -0.0472
C7 C 0.2471(2) 0.66358(17) 0.55396(18)
C8 C 0.0925(2) 0.75518(17) 0.58114(18)
C9 C 0.0899(2) 0.83047(18) 0.65048(19)
H6 H 0.1871 0.8239 0.6811
C10 C -0.0540(3) 0.91521(19) 0.6752(2)
H7 H -0.0534 0.9671 0.7215
C11 C -0.1988(3) 0.92518(18) 0.63313(19)
C12 C -0.1961(3) 0.84798(19) 0.5653(2)
H8 H -0.2948 0.8522 0.5374
C13 C -0.0517(2) 0.76508(18) 0.53798(19)
H9 H -0.0512 0.7149 0.4897
C14 C -0.3551(3) 1.0164(2) 0.6608(2)
H10 H -0.4382 0.9695 0.7345
H11 H -0.4065 1.0551 0.5876
H12 H -0.3223 1.0841 0.6784
C15 C 0.6471(2) 0.68909(17) 0.31909(18)
C16 C 0.7019(2) 0.80819(17) 0.21175(18)
C17 C 0.7723(2) 0.89799(18) 0.2300(2)
H13 H 0.7986 0.8797 0.3086
C18 C 0.8040(3) 1.01393(19) 0.1338(2)
H14 H 0.8512 1.0748 0.1476
C19 C 0.7683(3) 1.04307(19) 0.0176(2)
C20 C 0.7052(3) 0.9507(2) -0.0018(2)
H15 H 0.6854 0.9670 -0.0821
C21 C 0.6709(3) 0.83506(19) 0.09454(19)
H16 H 0.6256 0.7736 0.0802
C22 C 0.7947(3) 1.1729(2) -0.0839(2)
H17 H 0.7907 1.1699 -0.1647
H18 H 0.9063 1.1954 -0.0910
H19 H 0.7042 1.2377 -0.0617
N1A N -0.3039(2) 0.52777(14) -0.28947(15)
C1A C -0.3899(3) 0.5810(2) -0.2026(2)
H1A H -0.5047 0.6187 -0.2035
C2A C -0.3187(3) 0.5833(2) -0.1119(2)
H2A H -0.3842 0.6219 -0.0517
C3A C -0.1503(3) 0.52885(18) -0.10849(19)
C4A C -0.0606(2) 0.47648(18) -0.20139(18)
H3A H 0.0556 0.4406 -0.2045
C5A C -0.1405(2) 0.47688(17) -0.28856(18)
H4A H -0.0778 0.4398 -0.3505
C6A C -0.0768(3) 0.5276(2) -0.0090(2)
H5A H -0.1456 0.5701 0.0472
Zn1A Zn -0.41880(3) 0.52448(2) -0.41838(2)
O1A O -0.24626(18) 0.39372(13) -0.48232(14)
O2A O -0.36825(17) 0.35022(13) -0.60449(15)
O3A O -0.56635(19) 0.37935(13) -0.29877(14)
O4A O -0.68322(19) 0.33299(13) -0.42186(13)
C7A C -0.2471(2) 0.33642(17) -0.55396(18)
C8A C -0.0925(2) 0.24482(17) -0.58114(18)
C9A C -0.0899(2) 0.16953(18) -0.65048(19)
H6A H -0.1871 0.1761 -0.6811
C10A C 0.0540(3) 0.08479(19) -0.6752(2)
H7A H 0.0534 0.0329 -0.7215
C11A C 0.1988(3) 0.07482(18) -0.63313(19)
C12A C 0.1961(3) 0.15202(19) -0.5653(2)
H8A H 0.2948 0.1478 -0.5374
C13A C 0.0517(2) 0.23492(18) -0.53798(19)
H9A H 0.0512 0.2851 -0.4897
C14A C 0.3551(3) -0.0164(2) -0.6608(2)
H10A H 0.4382 0.0305 -0.7345
H11A H 0.4065 -0.0551 -0.5876
H12A H 0.3223 -0.0841 -0.6784
C15A C -0.6471(2) 0.31091(17) -0.31909(18)
C16A C -0.7019(2) 0.19181(17) -0.21175(18)
C17A C -0.7723(2) 0.10201(18) -0.2300(2)
H13A H -0.7986 0.1203 -0.3086
C18A C -0.8040(3) -0.01393(19) -0.1338(2)
H14A H -0.8512 -0.0748 -0.1476
C19A C -0.7683(3) -0.04307(19) -0.0176(2)
C20A C -0.7052(3) 0.0493(2) 0.0018(2)
H15A H -0.6854 0.0330 0.0821
C21A C -0.6709(3) 0.16494(19) -0.09454(19)
H16A H -0.6256 0.2264 -0.0802
C22A C -0.7947(3) -0.1729(2) 0.0839(2)
H17A H -0.7907 -0.1699 0.1647
H18A H -0.9063 -0.1954 0.0910
H19A H -0.7042 -0.2377 0.0617
Zn1_2 Zn -0.58120(3) 0.47552(2) -0.58162(2)
Zn1A_2 Zn 0.58120(3) 0.52448(2) 0.58162(2)
O2_2 O -0.63175(17) 0.64978(13) -0.39551(15)
O2A_2 O 0.63175(17) 0.35022(13) 0.39551(15)
O4_2 O -0.31678(19) 0.66701(13) -0.57814(13)
O4A_2 O 0.31678(19) 0.33299(13) 0.57814(13)
loop_
_geom_bond_atom_site_label_1
_geom_bond_atom_site_label_2
_geom_bond_site_symmetry_1
_geom_bond_site_symmetry_2
Zn1 O1 1_555 1_555
O1 C7 1_555 1_555
O2 C7 1_555 1_555
O3 Zn1 1_555 1_555
O4 C15 1_555 1_555
N1 Zn1 1_555 1_555
C1 N1 1_555 1_555
H1 C1 1_555 1_555
C2 C1 1_555 1_555
H2 C2 1_555 1_555
C3 C2 1_555 1_555
C4 C3 1_555 1_555
H3 C4 1_555 1_555
C5 N1 1_555 1_555
H4 C5 1_555 1_555
C6 C3 1_555 1_555
H5 C6 1_555 1_555
C7 C8 1_555 1_555
C8 C9 1_555 1_555
C9 H6 1_555 1_555
C10 C9 1_555 1_555
H7 C10 1_555 1_555
C11 C10 1_555 1_555
C12 C11 1_555 1_555
H8 C12 1_555 1_555
C13 C8 1_555 1_555
H9 C13 1_555 1_555
C14 C11 1_555 1_555
H10 C14 1_555 1_555
H11 C14 1_555 1_555
H12 C14 1_555 1_555
C15 O3 1_555 1_555
C16 C15 1_555 1_555
C17 C16 1_555 1_555
H13 C17 1_555 1_555
C18 C17 1_555 1_555
H14 C18 1_555 1_555
C19 C18 1_555 1_555
C20 C19 1_555 1_555
H15 C20 1_555 1_555
C21 C16 1_555 1_555
H16 C21 1_555 1_555
C22 C19 1_555 1_555
H17 C22 1_555 1_555
H18 C22 1_555 1_555
H19 C22 1_555 1_555
N1A C1A 1_555 1_555
C1A H1A 1_555 1_555
C2A C1A 1_555 1_555
H2A C2A 1_555 1_555
C3A C2A 1_555 1_555
C4A C3A 1_555 1_555
H3A C4A 1_555 1_555
C5A N1A 1_555 1_555
H4A C5A 1_555 1_555
C6A C6 1_555 1_555
H5A C6A 1_555 1_555
Zn1A N1A 1_555 1_555
O1A Zn1A 1_555 1_555
O2A C7A 1_555 1_555
O3A Zn1A 1_555 1_555
O4A C15A 1_555 1_555
C7A O1A 1_555 1_555
C8A C7A 1_555 1_555
C9A C8A 1_555 1_555
H6A C9A 1_555 1_555
C10A C9A 1_555 1_555
H7A C10A 1_555 1_555
C11A C10A 1_555 1_555
C12A C11A 1_555 1_555
H8A C12A 1_555 1_555
C13A C8A 1_555 1_555
H9A C13A 1_555 1_555
C14A C11A 1_555 1_555
H10A C14A 1_555 1_555
H11A C14A 1_555 1_555
H12A C14A 1_555 1_555
C15A O3A 1_555 1_555
C16A C15A 1_555 1_555
C17A C16A 1_555 1_555
H13A C17A 1_555 1_555
C18A C17A 1_555 1_555
H14A C18A 1_555 1_555
C19A C18A 1_555 1_555
C20A C19A 1_555 1_555
H15A C20A 1_555 1_555
C21A C16A 1_555 1_555
H16A C21A 1_555 1_555
C22A C19A 1_555 1_555
H17A C22A 1_555 1_555
H18A C22A 1_555 1_555
H19A C22A 1_555 1_555
Zn1_2 O2A 1_555 1_555
Zn1A_2 O2 1_555 1_555
O2_2 Zn1A 1_555 1_555
O2A_2 Zn1 1_555 1_555
O4_2 Zn1A 1_555 1_555
O4A_2 Zn1 1_555 1_555
O4 Zn1A_2 1_555 1_555
C4 C5 1_555 1_555
C12 C13 1_555 1_555
C20 C21 1_555 1_555
C3A C6A 1_555 1_555
C4A C5A 1_555 1_555
O4A Zn1_2 1_555 1_555
C12A C13A 1_555 1_555
C20A C21A 1_555 1_555

#END
