
#######################################################################
#
#                 Cambridge Crystallographic Data Centre
#                                CCDC 
#
#######################################################################
#
# If this CIF has been generated from an entry in the Cambridge 
# Structural Database, then it will include bibliographic, chemical, 
# crystal, experimental, refinement or atomic coordinate data resulting 
# from the CCDC's data processing and validation procedures.
#
#######################################################################

data_HISWUC
_symmetry_cell_setting           monoclinic
_symmetry_space_group_name_H-M   'P 21'
_symmetry_Int_Tables_number      4
_space_group_name_Hall           'P 2yb'
loop_
_symmetry_equiv_pos_site_id
_symmetry_equiv_pos_as_xyz
1 x,y,z
2 -x,1/2+y,-z
_cell_length_a                   10.978(2)
_cell_length_b                   18.217(4)
_cell_length_c                   13.156(3)
_cell_angle_alpha                90
_cell_angle_beta                 110.08(3)
_cell_angle_gamma                90
_cell_volume                     2471.09
loop_
_atom_site_label
_atom_site_type_symbol
_atom_site_fract_x
_atom_site_fract_y
_atom_site_fract_z
C1 C 0.5607(4) 0.9240(3) 0.3762(4)
H1 H 0.6090 0.9468 0.4407
C2 C 0.8204(5) 1.1684(3) 0.2458(4)
H2 H 0.9012 1.1902 0.2462
H3 H 0.8118 1.1786 0.3154
C3 C 0.4230(5) 0.8585(3) 0.1889(4)
H4 H 0.3760 0.8338 0.1257
C4 C 0.8480(4) 1.0403(3) 0.3202(4)
H5 H 0.8501 1.0597 0.3862
C5 C 0.4494(5) 0.8246(3) 0.2864(4)
H6 H 0.4178 0.7774 0.2877
C6 C 0.8222(5) 1.0536(2) 0.1365(4)
H7 H 0.8075 1.0823 0.0750
C7 C 0.8286(4) 1.0862(2) 0.2338(4)
C8 C 0.5358(4) 0.9624(3) 0.2801(4)
H8 H 0.5661 1.0101 0.2810
C9 C 0.3494(5) 1.2521(3) -0.1121(4)
H9 H 0.3420 1.2514 -0.1847
C10 C 0.8375(4) 0.9792(3) 0.1309(3)
H10 H 0.8320 0.9588 0.0647
C11 C 0.8645(4) 0.9657(3) 0.3114(4)
H11 H 0.8789 0.9361 0.3720
C12 C 0.2724(4) 1.2867(3) 0.0205(4)
H12 H 0.2102 1.3108 0.0415
C13 C 0.3727(4) 1.2533(3) 0.0988(4)
H13 H 0.3780 1.2558 0.1708
C14 C 0.5893(5) 0.9339(2) -0.2093(4)
H14 H 0.6565 0.9602 -0.1601
C15 C 0.4750(4) 0.9278(3) -0.0067(3)
H15 H 0.4315 0.8806 -0.0218
H16 H 0.5678 0.9191 0.0217
C16 C 0.6106(4) 0.8955(3) -0.2935(4)
H17 H 0.6927 0.8967 -0.2991
C17 C 0.4681(5) 0.9326(2) -0.1996(4)
C18 C 0.3722(4) 0.8921(3) -0.2764(4)
H18 H 0.2890 0.8895 -0.2732
C19 C 0.4337(5) 0.9688(3) 0.0766(4)
H19 H 0.4760 1.0164 0.0895
H20 H 0.3409 0.9772 0.0473
C20 C 0.4655(4) 0.9291(3) 0.1830(4)
C21 C 0.4012(4) 0.8566(3) -0.3562(4)
H21 H 0.3355 0.8302 -0.4068
C22 C 0.4653(4) 1.2162(3) 0.0715(4)
C23 C 0.5788(5) 1.1788(3) 0.1555(5)
H22 H 0.5723 1.1865 0.2264
H23 H 0.5735 1.1264 0.1416
C24 C 0.4405(6) 0.9726(3) -0.1107(4)
H24 H 0.3490 0.9851 -0.1345
H25 H 0.4894 1.0181 -0.0958
C25 C -0.2423(5) 0.5517(3) 0.7021(4)
C26 C -0.1324(4) 0.4850(3) 0.8610(4)
H26 H -0.1053 0.4396 0.8930
C27 C -0.2020(5) 0.4868(3) 0.7528(4)
H27 H -0.2218 0.4432 0.7137
C28 C -0.2059(6) 0.6152(3) 0.7660(5)
H28 H -0.2295 0.6611 0.7345
C29 C -0.1372(6) 0.6101(3) 0.8723(5)
H29 H -0.1136 0.6532 0.9123
C30 C 0.7077(4) 1.2058(3) 0.1570(5)
H30 H 0.7128 1.2585 0.1690
H31 H 0.7162 1.1966 0.0872
C31 C -0.0032(5) 0.5165(3) 0.2982(4)
H32 H 0.0695 0.4875 0.3076
C32 C 0.4536(5) 1.2174(3) -0.0381(5)
H33 H 0.5159 1.1948 -0.0607
C33 C -0.1616(5) 0.5918(3) 0.1917(6)
H34 H -0.2038 0.6172 0.1279
C34 C -0.3259(6) 0.5568(4) 0.5830(4)
H35 H -0.3946 0.5205 0.5674
H36 H -0.3661 0.6049 0.5689
C35 C -0.2065(7) 0.5947(4) 0.2868(9)
H37 H -0.2835 0.6192 0.2787
C36 C -0.0498(9) 0.5225(4) 0.3817(6)
H38 H -0.0103 0.4936 0.4425
C37 C -0.1421(10) 0.5638(6) 0.3840(8)
C38 C -0.2505(16) 0.5447(7) 0.5097(10)
C39 C -0.1701(12) 0.5850(7) 0.4801(9)
H39 H -0.2016 0.5004 0.5375
H40 H -0.3158 0.5306 0.4417
H41 H -0.0885 0.5866 0.5402
H42 H -0.2040 0.6347 0.4692
N1 N 0.8601(3) 0.9343(2) 0.2168(3)
N2 N 0.5186(3) 0.8561(2) 0.3800(3)
N3 N 0.2585(3) 1.2868(2) -0.0844(3)
N4 N -0.0574(4) 0.5504(2) 0.2041(3)
N5 N 0.5171(3) 0.8571(2) -0.3663(3)
N6 N -0.1009(3) 0.5449(2) 0.9237(3)
O1 O 0.9306(4) 0.8201(3) 0.7427(3)
O2 O 0.8288(4) 0.8856(2) 0.5432(3)
O3 O 0.1934(3) 0.56276(16) 0.1162(2)
O4 O 0.9188(3) 0.7694(2) 0.3286(3)
O5 O 0.4354(3) 0.6139(2) 0.2102(3)
O6 O 0.9679(3) 0.7564(2) 0.5520(3)
O7 O 1.0503(3) 0.81929(17) 0.1608(3)
O8 O 0.2740(4) 0.6146(2) 0.3328(3)
O9 O 0.7227(3) 0.7596(2) 0.5755(3)
O10 O 0.1528(3) 0.6982(2) 0.4620(3)
O11 O 0.2437(3) 0.71564(18) 0.1547(3)
O12 O -0.0140(3) 0.68196(19) 0.0857(3)
O13 O 0.9601(3) 0.92480(18) 0.9075(3)
O14 O 1.0630(5) 0.7798(2) 0.9604(3)
O15 O 0.4148(4) 0.7241(2) 0.4754(3)
O16 O 0.3491(4) 0.6021(2) 0.5545(3)
O17 O 1.1104(4) 0.8482(2) 0.4651(4)
O18 O 1.1649(4) 0.8807(3) 0.8604(5)
Zn1 Zn 0.54915(5) 0.79657(3) 0.51669(4)
Zn2 Zn 0.89906(5) 0.82760(3) 0.20434(4)
Zn3 Zn 0.01370(5) 0.53494(3) 0.08314(4)
V1 V 0.86193(7) 0.80645(4) 0.60111(6)
V2 V 0.08340(7) 0.74957(4) 0.09208(6)
V3 V 1.03859(7) 0.76971(4) 0.44920(6)
V4 V 0.30110(6) 0.66020(4) 0.45840(5)
V5 V 0.28817(6) 0.62458(4) 0.20379(6)
V6 V 1.03163(7) 0.85426(4) 0.86807(5)
N3A N 0.7415(3) 0.7868(2) 0.0844(3)
N5_2 N 0.5171(3) 0.8571(2) 0.6337(3)
N6_2 N -0.1009(3) 0.5449(2) -0.0763(3)
O7_2 O 0.0503(3) 0.81929(17) 0.1608(3)
O10_2 O 1.1528(3) 0.6982(2) 0.4620(3)
O13A O 0.0399(3) 0.42480(18) 0.0925(3)
O14_2 O 0.0630(5) 0.7798(2) -0.0396(3)
Zn1_2 Zn 0.54915(5) 0.79657(3) -0.48331(4)
Zn2A Zn 0.10094(5) 1.32760(3) -0.20434(4)
Zn3_2 Zn 0.01370(5) 0.53494(3) 1.08314(4)
Zn3A Zn 0.98630(5) 1.03494(3) 0.91686(4)
V2_2 V 1.08340(7) 0.74957(4) 0.09208(6)
V2_3 V 1.08340(7) 0.74957(4) 1.09208(6)
V3_2 V 0.03859(7) 0.76971(4) 0.44920(6)
loop_
_geom_bond_atom_site_label_1
_geom_bond_atom_site_label_2
_geom_bond_site_symmetry_1
_geom_bond_site_symmetry_2
C1 H1 1_555 1_555
C2 H2 1_555 1_555
H3 C2 1_555 1_555
C3 H4 1_555 1_555
C4 H5 1_555 1_555
C5 C3 1_555 1_555
H6 C5 1_555 1_555
C6 H7 1_555 1_555
C7 C2 1_555 1_555
C8 C1 1_555 1_555
H8 C8 1_555 1_555
C9 H9 1_555 1_555
C10 C6 1_555 1_555
H10 C10 1_555 1_555
C11 C4 1_555 1_555
H11 C11 1_555 1_555
C12 H12 1_555 1_555
C13 C12 1_555 1_555
H13 C13 1_555 1_555
C14 H14 1_555 1_555
C15 H15 1_555 1_555
H16 C15 1_555 1_555
C16 C14 1_555 1_555
H17 C16 1_555 1_555
C17 C14 1_555 1_555
C18 C17 1_555 1_555
H18 C18 1_555 1_555
C19 C15 1_555 1_555
H19 C19 1_555 1_555
H20 C19 1_555 1_555
C20 C3 1_555 1_555
C21 C18 1_555 1_555
H21 C21 1_555 1_555
C22 C13 1_555 1_555
C23 C22 1_555 1_555
H22 C23 1_555 1_555
H23 C23 1_555 1_555
C24 C15 1_555 1_555
H24 C24 1_555 1_555
H25 C24 1_555 1_555
C25 C27 1_555 1_555
C26 H26 1_555 1_555
C27 C26 1_555 1_555
H27 C27 1_555 1_555
C28 C25 1_555 1_555
H28 C28 1_555 1_555
C29 C28 1_555 1_555
H29 C29 1_555 1_555
C30 C2 1_555 1_555
H30 C30 1_555 1_555
H31 C30 1_555 1_555
C31 H32 1_555 1_555
C32 C9 1_555 1_555
H33 C32 1_555 1_555
C33 H34 1_555 1_555
C34 C25 1_555 1_555
H35 C34 1_555 1_555
H36 C34 1_555 1_555
C35 C33 1_555 1_555
H37 C35 1_555 1_555
C36 C31 1_555 1_555
H38 C36 1_555 1_555
C37 C35 1_555 1_555
C38 C34 1_555 1_555
C39 C37 1_555 1_555
H39 C38 1_555 1_555
H40 C38 1_555 1_555
H41 C39 1_555 1_555
H42 C39 1_555 1_555
N1 C10 1_555 1_555
N2 C1 1_555 1_555
N3 C9 1_555 1_555
N4 C31 1_555 1_555
N5 C16 1_555 1_555
N6 C26 1_555 1_555
O1 V1 1_555 1_555
O2 V1 1_555 1_555
O3 Zn3 1_555 1_555
O4 Zn2 1_555 1_555
O5 V5 1_555 1_555
O6 V1 1_555 1_555
O7 Zn2 1_555 1_555
O8 V4 1_555 1_555
O9 Zn1 1_555 1_555
O10 V4 1_555 1_555
O11 V2 1_555 1_555
O12 V2 1_555 1_555
O13 V6 1_555 1_555
O14 V6 1_555 1_555
O15 Zn1 1_555 1_555
O16 V4 1_555 1_555
O17 V3 1_555 1_555
O18 V6 1_555 1_555
Zn1 N2 1_555 1_555
Zn2 N1 1_555 1_555
Zn3 N4 1_555 1_555
V1 O9 1_555 1_555
V2 O7_2 1_555 1_555
V3 O4 1_555 1_555
V4 O15 1_555 1_555
V5 O3 1_555 1_555
V6 O1 1_555 1_555
N3A Zn2 1_555 1_555
N5_2 Zn1 1_555 1_555
N6_2 Zn3 1_555 1_555
O10_2 V3 1_555 1_555
O13A Zn3 1_555 1_555
O14_2 V2 1_555 1_555
Zn1_2 N5 1_555 1_555
Zn2A N3 1_555 1_555
Zn3_2 N6 1_555 1_555
Zn3A O13 1_555 1_555
V2_2 O7 1_555 1_555
V2_3 O14 1_555 1_555
V3_2 O10 1_555 1_555
C4 C7 1_555 1_555
C5 N2 1_555 1_555
C6 C7 1_555 1_555
C8 C20 1_555 1_555
C11 N1 1_555 1_555
C12 N3 1_555 1_555
C17 C24 1_555 1_555
C19 C20 1_555 1_555
C21 N5 1_555 1_555
C22 C32 1_555 1_555
C23 C30 1_555 1_555
C29 N6 1_555 1_555
C33 N4 1_555 1_555
C36 C37 1_555 1_555
C38 C39 1_555 1_555
O6 V3 1_555 1_555
O8 V5 1_555 1_555
O11 V5 1_555 1_555

#END
