
#######################################################################
#
#                 Cambridge Crystallographic Data Centre
#                                CCDC 
#
#######################################################################
#
# If this CIF has been generated from an entry in the Cambridge 
# Structural Database, then it will include bibliographic, chemical, 
# crystal, experimental, refinement or atomic coordinate data resulting 
# from the CCDC's data processing and validation procedures.
#
#######################################################################

data_HISWUC01
_symmetry_cell_setting           monoclinic
_symmetry_space_group_name_H-M   'P 21'
_symmetry_Int_Tables_number      4
_space_group_name_Hall           'P 2yb'
loop_
_symmetry_equiv_pos_site_id
_symmetry_equiv_pos_as_xyz
1 x,y,z
2 -x,1/2+y,-z
_cell_length_a                   10.9894(9)
_cell_length_b                   18.1493(15)
_cell_length_c                   13.0903(11)
_cell_angle_alpha                90
_cell_angle_beta                 109.8880(10)
_cell_angle_gamma                90
_cell_volume                     2455.15
loop_
_atom_site_label
_atom_site_type_symbol
_atom_site_fract_x
_atom_site_fract_y
_atom_site_fract_z
Zn1 Zn 0.39587(3) -0.059282(15) -0.29618(2)
Zn2 Zn 0.49144(3) -0.268020(16) -0.57455(2)
Zn3 Zn 1.05181(3) -0.027390(15) 0.01068(2)
V1 V 0.58296(4) 0.02119(2) -0.40876(3)
V2 V 0.78745(4) 0.14764(2) -0.29441(3)
V3 V 0.80265(4) 0.10948(2) -0.04130(3)
V4 V 0.54180(4) -0.00413(2) -0.05148(4)
V5 V 0.53275(4) -0.08635(2) -0.63133(3)
V6 V 0.36230(4) -0.04078(2) 0.10087(3)
O1 O 0.54523(18) -0.04872(10) -0.34124(15)
O2 O 0.74180(19) 0.05475(10) -0.34065(18)
O3 O 0.7731(2) 0.16047(11) -0.16438(16)
O4 O 0.6559(2) 0.06809(11) -0.03800(17)
O5 O 0.41685(18) -0.00138(10) -0.16961(15)
O6 O 0.5723(3) -0.00964(11) -0.53918(16)
O7 O 0.46892(19) -0.15650(10) -0.58250(15)
O8 O 0.69206(17) 0.20817(9) -0.38571(14)
O9 O 0.9153(2) 0.04507(10) -0.03152(16)
O10 O 0.22541(19) 0.00974(10) 0.06837(16)
O11 O 0.4797(2) 0.00432(12) 0.05830(16)
O12 O 0.4201(2) -0.05358(13) -0.75512(16)
O13 O 0.48274(19) 0.08892(10) -0.42122(16)
O14 O 0.93540(18) 0.15704(10) -0.28831(16)
O15 O 0.8524(2) 0.16487(11) 0.06027(16)
O16 O 0.6132(2) -0.08260(12) -0.04376(19)
O17 O 0.6626(2) -0.11356(12) -0.6490(2)
O18 O 0.32666(19) -0.12028(11) 0.04281(17)
N1 N 0.2390(2) -0.01856(11) -0.41616(17)
N2 N -0.3581(2) 0.33310(11) -0.71636(18)
N3 N 0.6025(2) -0.27806(12) -0.41337(17)
N4 N 0.5584(2) -0.28215(11) 0.30081(18)
N5 N 1.0180(2) -0.08675(12) 0.12892(17)
N6 N 1.0190(2) -0.08750(12) 0.87395(17)
C1 C 0.1473(3) 0.01652(15) -0.3878(2)
H1 H 0.1536 0.0167 -0.3136
C2 C 0.0444(3) 0.05230(16) -0.4628(2)
H2 H -0.0182 0.0766 -0.4396
C3 C 0.0321(3) 0.05282(14) -0.5722(2)
C4 C 0.1259(3) 0.01567(14) -0.6003(2)
H3 H 0.1209 0.0139 -0.6742
C5 C 0.2268(3) -0.01884(14) -0.5216(2)
H4 H 0.2903 -0.0438 -0.5430
C6 C -0.3359(3) 0.28882(14) -0.6298(2)
H5 H -0.3299 0.3101 -0.5620
C7 C -0.3213(3) 0.21314(14) -0.6355(2)
H6 H -0.3058 0.1835 -0.5725
C8 C -0.3294(2) 0.18082(14) -0.7343(2)
C9 C -0.3469(3) 0.22758(15) -0.8219(2)
H7 H -0.3484 0.2080 -0.8896
C10 C -0.3622(3) 0.30247(14) -0.8114(2)
H8 H -0.3760 0.3333 -0.8729
C11 C 0.6334(3) -0.21706(14) -0.3512(2)
H9 H 0.6049 -0.1708 -0.3846
C12 C 0.7039(3) -0.21816(14) -0.2422(2)
H10 H 0.7220 -0.1734 -0.2022
C13 C 0.7488(3) -0.28477(15) -0.1901(2)
C14 C 0.7129(3) -0.34804(16) -0.2536(2)
H11 H 0.7376 -0.3951 -0.2215
C15 C 0.6422(3) -0.34279(15) -0.3621(2)
H12 H 0.6200 -0.3869 -0.4032
C16 C 0.4975(3) -0.24850(15) 0.2058(2)
H13 H 0.4259 -0.2175 0.2004
C17 C 0.5340(3) -0.25682(17) 0.1159(2)
H14 H 0.4891 -0.2307 0.0512
C18 C 0.6348(3) -0.30263(16) 0.1186(3)
C19 C 0.6997(3) -0.33573(16) 0.2175(3)
H15 H 0.7729 -0.3659 0.2248
C20 C 0.6597(3) -0.32564(15) 0.3056(3)
H16 H 0.7050 -0.3501 0.3719
C21 C 0.8996(2) -0.08502(15) 0.1356(2)
H17 H 0.8344 -0.0571 0.0835
C22 C 0.8677(3) -0.12217(14) 0.2154(2)
H18 H 0.7823 -0.1194 0.2176
C23 C 0.9612(3) -0.16338(13) 0.2921(2)
C24 C 1.0845(3) -0.16473(14) 0.2853(2)
H19 H 1.1516 -0.1919 0.3368
C25 C 1.1093(3) -0.12624(14) 0.2031(2)
H20 H 1.1940 -0.1279 0.1991
C26 C 1.0611(2) -0.15686(14) 0.8690(2)
H21 H 1.1130 -0.1802 0.9342
C27 C 1.0315(2) -0.19510(13) 0.7723(2)
H22 H 1.0629 -0.2439 0.7721
C28 C 0.9566(2) -0.16276(14) 0.6763(2)
C29 C 0.9133(3) -0.09120(14) 0.6813(2)
H23 H 0.8618 -0.0668 0.6169
C30 C 0.9455(3) -0.05586(15) 0.7802(2)
H24 H 0.9146 -0.0072 0.7824
C31 C -0.0795(3) 0.09055(15) -0.6560(2)
H25 H -0.0718 0.0837 -0.7285
H26 H -0.0751 0.1441 -0.6405
C32 C -0.2102(3) 0.06114(14) -0.6580(2)
H27 H -0.2198 0.0698 -0.5865
H28 H -0.2138 0.0073 -0.6709
C33 C -0.3227(3) 0.09848(14) -0.7471(2)
H29 H -0.3141 0.0879 -0.8185
H30 H -0.4051 0.0764 -0.7471
C34 C 0.8368(3) -0.28844(17) -0.0719(2)
H31 H 0.8699 -0.3394 -0.0567
H32 H 0.9121 -0.2560 -0.0631
C35 C 0.7784(3) -0.26712(18) 0.0134(3)
H33 H 0.8481 -0.2658 0.0852
H34 H 0.7421 -0.2168 -0.0025
C36 C 0.6743(3) -0.31817(19) 0.0197(3)
H35 H 0.7053 -0.3696 0.0231
H36 H 0.5976 -0.3129 -0.0470
C37 C 0.9292(3) -0.20455(14) 0.3785(2)
H37 H 0.9735 -0.2529 0.3900
H38 H 0.8349 -0.2137 0.3540
C38 C 0.9701(3) -0.16233(14) 0.4869(2)
H39 H 1.0657 -0.1588 0.5167
H40 H 0.9346 -0.1117 0.4744
C39 C 0.9209(3) -0.20156(14) 0.5685(2)
H41 H 0.8255 -0.2057 0.5373
H42 H 0.9569 -0.2521 0.5803
Zn1A Zn -0.39587(3) 0.440718(15) -0.70382(2)
Zn2A Zn 0.50856(3) 0.231980(16) -0.42545(2)
Zn2_2 Zn 0.49144(3) -0.268020(16) 0.42545(2)
Zn3_2 Zn 0.05181(3) -0.027390(15) 0.01068(2)
Zn3_3 Zn 1.05181(3) -0.027390(15) 1.01068(2)
V6_2 V 0.36230(4) -0.04078(2) -0.89913(3)
O8A O 0.30794(17) -0.29183(9) -0.61429(14)
O10_2 O 1.22541(19) 0.00974(10) 0.06837(16)
O12_2 O 0.4201(2) -0.05358(13) 0.24488(16)
N2A N 0.3581(2) -0.16690(11) -0.28364(18)
N4_2 N 0.5584(2) -0.28215(11) -0.69919(18)
N6_2 N 1.0190(2) -0.08750(12) -0.12605(17)
loop_
_geom_bond_atom_site_label_1
_geom_bond_atom_site_label_2
_geom_bond_site_symmetry_1
_geom_bond_site_symmetry_2
Zn1 O1 1_555 1_555
Zn2 O7 1_555 1_555
Zn3 O9 1_555 1_555
V1 O1 1_555 1_555
V2 O2 1_555 1_555
V3 O3 1_555 1_555
V4 O4 1_555 1_555
V5 O6 1_555 1_555
V6 O10 1_555 1_555
O2 V1 1_555 1_555
O3 V2 1_555 1_555
O4 V3 1_555 1_555
O5 Zn1 1_555 1_555
O6 V1 1_555 1_555
O7 V5 1_555 1_555
O8 V2 1_555 1_555
O9 V3 1_555 1_555
O10 Zn3_2 1_555 1_555
O11 V4 1_555 1_555
O12 V5 1_555 1_555
O13 V1 1_555 1_555
O14 V2 1_555 1_555
O15 V3 1_555 1_555
O16 V4 1_555 1_555
O17 V5 1_555 1_555
O18 V6 1_555 1_555
N1 Zn1 1_555 1_555
N2 C6 1_555 1_555
N3 Zn2 1_555 1_555
N4 C16 1_555 1_555
N5 Zn3 1_555 1_555
N6 C26 1_555 1_555
C1 N1 1_555 1_555
H1 C1 1_555 1_555
C2 C1 1_555 1_555
H2 C2 1_555 1_555
C3 C2 1_555 1_555
C4 C3 1_555 1_555
H3 C4 1_555 1_555
C5 N1 1_555 1_555
H4 C5 1_555 1_555
C6 H5 1_555 1_555
C7 C6 1_555 1_555
H6 C7 1_555 1_555
C8 C7 1_555 1_555
C9 C8 1_555 1_555
H7 C9 1_555 1_555
C10 N2 1_555 1_555
H8 C10 1_555 1_555
C11 N3 1_555 1_555
H9 C11 1_555 1_555
C12 C11 1_555 1_555
H10 C12 1_555 1_555
C13 C12 1_555 1_555
C14 C13 1_555 1_555
H11 C14 1_555 1_555
C15 N3 1_555 1_555
H12 C15 1_555 1_555
C16 H13 1_555 1_555
C17 C16 1_555 1_555
H14 C17 1_555 1_555
C18 C17 1_555 1_555
C19 C18 1_555 1_555
H15 C19 1_555 1_555
C20 N4 1_555 1_555
H16 C20 1_555 1_555
C21 N5 1_555 1_555
H17 C21 1_555 1_555
C22 C21 1_555 1_555
H18 C22 1_555 1_555
C23 C22 1_555 1_555
C24 C23 1_555 1_555
H19 C24 1_555 1_555
C25 N5 1_555 1_555
H20 C25 1_555 1_555
C26 H21 1_555 1_555
C27 C26 1_555 1_555
H22 C27 1_555 1_555
C28 C27 1_555 1_555
C29 C28 1_555 1_555
H23 C29 1_555 1_555
C30 N6 1_555 1_555
H24 C30 1_555 1_555
C31 C3 1_555 1_555
H25 C31 1_555 1_555
H26 C31 1_555 1_555
C32 C31 1_555 1_555
H27 C32 1_555 1_555
H28 C32 1_555 1_555
C33 C8 1_555 1_555
H29 C33 1_555 1_555
H30 C33 1_555 1_555
C34 C13 1_555 1_555
H31 C34 1_555 1_555
H32 C34 1_555 1_555
C35 C34 1_555 1_555
H33 C35 1_555 1_555
H34 C35 1_555 1_555
C36 C18 1_555 1_555
H35 C36 1_555 1_555
H36 C36 1_555 1_555
C37 C23 1_555 1_555
H37 C37 1_555 1_555
H38 C37 1_555 1_555
C38 C37 1_555 1_555
H39 C38 1_555 1_555
H40 C38 1_555 1_555
C39 C28 1_555 1_555
H41 C39 1_555 1_555
H42 C39 1_555 1_555
Zn1A N2 1_555 1_555
Zn2A O8 1_555 1_555
Zn2_2 N4 1_555 1_555
Zn3_3 N6 1_555 1_555
V6_2 O12 1_555 1_555
O8A Zn2 1_555 1_555
O10_2 Zn3 1_555 1_555
O12_2 V6 1_555 1_555
N2A Zn1 1_555 1_555
N4_2 Zn2 1_555 1_555
N6_2 Zn3 1_555 1_555
V4 O5 1_555 1_555
V6 O11 1_555 1_555
C4 C5 1_555 1_555
C9 C10 1_555 1_555
C14 C15 1_555 1_555
C19 C20 1_555 1_555
C24 C25 1_555 1_555
C29 C30 1_555 1_555
C32 C33 1_555 1_555
C35 C36 1_555 1_555
C38 C39 1_555 1_555

#END
