
#######################################################################
#
#                 Cambridge Crystallographic Data Centre
#                                CCDC 
#
#######################################################################
#
# If this CIF has been generated from an entry in the Cambridge 
# Structural Database, then it will include bibliographic, chemical, 
# crystal, experimental, refinement or atomic coordinate data resulting 
# from the CCDC's data processing and validation procedures.
#
#######################################################################

data_HISWAJ
_symmetry_cell_setting           triclinic
_symmetry_space_group_name_H-M   'P -1'
_symmetry_Int_Tables_number      2
_space_group_name_Hall           '-P 1'
loop_
_symmetry_equiv_pos_site_id
_symmetry_equiv_pos_as_xyz
1 x,y,z
2 -x,-y,-z
_cell_length_a                   10.208(7)
_cell_length_b                   10.368(7)
_cell_length_c                   11.703(8)
_cell_angle_alpha                87.864(12)
_cell_angle_beta                 74.045(12)
_cell_angle_gamma                81.843(12)
_cell_volume                     1178.84
loop_
_atom_site_label
_atom_site_type_symbol
_atom_site_fract_x
_atom_site_fract_y
_atom_site_fract_z
Zn1 Zn 0.59077(4) 0.60503(3) 0.60377(3)
O1 O 0.6982(2) 0.7574(2) 0.66223(19)
O2 O 0.5416(2) 0.6569(2) 0.7856(2)
O3 O 0.4579(2) 0.4685(2) 0.6379(2)
O4 O 0.3073(2) 0.3831(2) 0.56920(19)
N1 N 0.7483(3) 0.4447(2) 0.6215(2)
C1 C 0.7148(3) 0.3537(3) 0.7041(3)
H1 H 0.6358 0.3739 0.7694
C2 C 0.7908(3) 0.2310(3) 0.6984(3)
H2 H 0.7631 0.1688 0.7587
C3 C 0.9078(3) 0.1989(3) 0.6040(3)
C4 C 0.9486(3) 0.2980(3) 0.5254(3)
H3 H 1.0327 0.2842 0.4644
C5 C 0.8652(3) 0.4183(3) 0.5363(3)
H4 H 0.8933 0.4845 0.4802
N2 N 0.5690(3) 0.2438(2) 0.4221(2)
C6 C 0.5433(3) 0.1568(3) 0.5100(3)
H5 H 0.4511 0.1570 0.5570
C7 C 0.6447(3) 0.0665(3) 0.5356(3)
H6 H 0.6215 0.0061 0.5986
C8 C 0.7814(3) 0.0644(3) 0.4688(3)
C9 C 0.8053(3) 0.1528(3) 0.3756(3)
H7 H 0.8959 0.1536 0.3256
C10 C 0.6982(3) 0.2394(3) 0.3554(3)
H8 H 0.7175 0.2984 0.2908
C11 C 0.9672(3) 0.0585(3) 0.5839(3)
H9 H 0.9656 0.0138 0.6613
C12 C 0.8927(3) -0.0185(3) 0.5088(3)
H10 H 0.8577 -0.0963 0.5536
C13 C 0.6258(3) 0.7386(3) 0.7653(3)
C14 C 0.6375(3) 0.8149(3) 0.8671(3)
C15 C 0.7340(3) 0.9000(3) 0.8488(3)
H11 H 0.7893 0.9135 0.7707
C16 C 0.7506(4) 0.9658(3) 0.9436(3)
H12 H 0.8174 1.0239 0.9297
C17 C 0.6712(4) 0.9481(3) 1.0582(3)
C18 C 0.5724(3) 0.8648(3) 1.0755(3)
H13 H 0.5152 0.8535 1.1533
C19 C 0.5559(3) 0.7986(3) 0.9823(3)
H14 H 0.4885 0.7412 0.9963
C20 C 0.6915(4) 1.0182(4) 1.1611(3)
H15 H 0.6623 0.9680 1.2340
H16 H 0.6365 1.1046 1.1700
H17 H 0.7889 1.0277 1.1462
C21 C 0.3510(3) 0.4189(3) 0.6521(3)
C22 C 0.2670(3) 0.3990(3) 0.7764(3)
C23 C 0.2953(4) 0.4555(3) 0.8711(3)
H18 H 0.3692 0.5057 0.8564
C24 C 0.2178(4) 0.4397(4) 0.9860(3)
H19 H 0.2377 0.4801 1.0497
C25 C 0.1119(4) 0.3660(4) 1.0088(4)
C26 C 0.0818(4) 0.3092(4) 0.9163(4)
H20 H 0.0088 0.2578 0.9323
C27 C 0.1586(4) 0.3268(3) 0.7978(4)
H21 H 0.1362 0.2897 0.7338
C28 C 0.0252(5) 0.3474(5) 1.1351(4)
H22 H -0.0402 0.4264 1.1612
H23 H 0.0852 0.3307 1.1881
H24 H -0.0253 0.2733 1.1375
N1A N 1.2517(3) -0.4447(2) 0.3785(2)
C1A C 1.2852(3) -0.3537(3) 0.2959(3)
H1A H 1.3642 -0.3739 0.2306
C2A C 1.2092(3) -0.2310(3) 0.3016(3)
H2A H 1.2369 -0.1688 0.2413
C3A C 1.0922(3) -0.1989(3) 0.3960(3)
C4A C 1.0514(3) -0.2980(3) 0.4746(3)
H3A H 0.9673 -0.2842 0.5356
C5A C 1.1348(3) -0.4183(3) 0.4637(3)
H4A H 1.1067 -0.4845 0.5198
N2A N 1.4310(3) -0.2438(2) 0.5779(2)
C6A C 1.4567(3) -0.1568(3) 0.4900(3)
H5A H 1.5489 -0.1570 0.4430
C7A C 1.3553(3) -0.0665(3) 0.4644(3)
H6A H 1.3785 -0.0061 0.4014
C8A C 1.2186(3) -0.0644(3) 0.5312(3)
C9A C 1.1947(3) -0.1528(3) 0.6244(3)
H7A H 1.1041 -0.1536 0.6744
C10A C 1.3018(3) -0.2394(3) 0.6446(3)
H8A H 1.2825 -0.2984 0.7092
C11A C 1.0328(3) -0.0585(3) 0.4161(3)
H9A H 1.0344 -0.0138 0.3387
C12A C 1.1073(3) 0.0185(3) 0.4912(3)
H10A H 1.1423 0.0963 0.4464
Zn1A Zn 0.40923(4) 0.39497(3) 0.39623(3)
O1A O 0.3018(2) 0.2426(2) 0.33777(19)
O2A O 0.4584(2) 0.3431(2) 0.2144(2)
O3A O 0.5421(2) 0.5315(2) 0.3621(2)
O4A O 0.6927(2) 0.6169(2) 0.43080(19)
C13A C 0.3742(3) 0.2614(3) 0.2347(3)
C14A C 0.3625(3) 0.1851(3) 0.1329(3)
C15A C 0.2660(3) 0.1000(3) 0.1512(3)
H11A H 0.2107 0.0865 0.2293
C16A C 0.2494(4) 0.0342(3) 0.0564(3)
H12A H 0.1826 -0.0239 0.0703
C17A C 0.3288(4) 0.0519(3) -0.0582(3)
C18A C 0.4276(3) 0.1352(3) -0.0755(3)
H13A H 0.4848 0.1465 -0.1533
C19A C 0.4441(3) 0.2014(3) 0.0177(3)
H14A H 0.5115 0.2588 0.0037
C20A C 0.3085(4) -0.0182(4) -0.1611(3)
H15A H 0.3377 0.0320 -0.2340
H16A H 0.3635 -0.1046 -0.1700
H17A H 0.2111 -0.0277 -0.1462
C21A C 0.6490(3) 0.5811(3) 0.3479(3)
C22A C 0.7330(3) 0.6010(3) 0.2236(3)
C23A C 0.7047(4) 0.5445(3) 0.1289(3)
H18A H 0.6308 0.4943 0.1436
C24A C 0.7822(4) 0.5603(4) 0.0140(3)
H19A H 0.7623 0.5199 -0.0497
C25A C 0.8881(4) 0.6340(4) -0.0088(4)
C26A C 0.9182(4) 0.6908(4) 0.0837(4)
H20A H 0.9912 0.7422 0.0677
C27A C 0.8414(4) 0.6732(3) 0.2022(4)
H21A H 0.8638 0.7103 0.2662
C28A C 0.9748(5) 0.6526(5) -0.1351(4)
H22A H 1.0402 0.5736 -0.1612
H23A H 0.9148 0.6693 -0.1881
H24A H 1.0253 0.7267 -0.1375
Zn1_2 Zn 1.59077(4) -0.39497(3) 0.60377(3)
Zn1A_2 Zn 1.40923(4) -0.60503(3) 0.39623(3)
N1A_2 N 0.2517(3) 0.5553(2) 0.3785(2)
N2A_2 N 0.4310(3) 0.7562(2) 0.5779(2)
loop_
_geom_bond_atom_site_label_1
_geom_bond_atom_site_label_2
_geom_bond_site_symmetry_1
_geom_bond_site_symmetry_2
Zn1 O1 1_555 1_555
O1 C13 1_555 1_555
O2 Zn1 1_555 1_555
O3 Zn1 1_555 1_555
O4 C21 1_555 1_555
N1 Zn1 1_555 1_555
C1 N1 1_555 1_555
H1 C1 1_555 1_555
C2 C1 1_555 1_555
H2 C2 1_555 1_555
C3 C2 1_555 1_555
C4 C3 1_555 1_555
H3 C4 1_555 1_555
C5 N1 1_555 1_555
H4 C5 1_555 1_555
N2 C6 1_555 1_555
C6 H5 1_555 1_555
C7 C6 1_555 1_555
H6 C7 1_555 1_555
C8 C7 1_555 1_555
C9 C8 1_555 1_555
H7 C9 1_555 1_555
C10 N2 1_555 1_555
H8 C10 1_555 1_555
C11 C3 1_555 1_555
H9 C11 1_555 1_555
C12 C8 1_555 1_555
H10 C12 1_555 1_555
C13 O2 1_555 1_555
C14 C13 1_555 1_555
C15 C14 1_555 1_555
H11 C15 1_555 1_555
C16 C15 1_555 1_555
H12 C16 1_555 1_555
C17 C16 1_555 1_555
C18 C17 1_555 1_555
H13 C18 1_555 1_555
C19 C14 1_555 1_555
H14 C19 1_555 1_555
C20 C17 1_555 1_555
H15 C20 1_555 1_555
H16 C20 1_555 1_555
H17 C20 1_555 1_555
C21 O3 1_555 1_555
C22 C21 1_555 1_555
C23 C22 1_555 1_555
H18 C23 1_555 1_555
C24 C23 1_555 1_555
H19 C24 1_555 1_555
C25 C24 1_555 1_555
C26 C25 1_555 1_555
H20 C26 1_555 1_555
C27 C22 1_555 1_555
H21 C27 1_555 1_555
C28 C25 1_555 1_555
H22 C28 1_555 1_555
H23 C28 1_555 1_555
H24 C28 1_555 1_555
N1A C1A 1_555 1_555
C1A H1A 1_555 1_555
C2A C1A 1_555 1_555
H2A C2A 1_555 1_555
C3A C2A 1_555 1_555
C4A C3A 1_555 1_555
H3A C4A 1_555 1_555
C5A N1A 1_555 1_555
H4A C5A 1_555 1_555
N2A C6A 1_555 1_555
C6A H5A 1_555 1_555
C7A C6A 1_555 1_555
H6A C7A 1_555 1_555
C8A C7A 1_555 1_555
C9A C8A 1_555 1_555
H7A C9A 1_555 1_555
C10A N2A 1_555 1_555
H8A C10A 1_555 1_555
C11A C12 1_555 1_555
H9A C11A 1_555 1_555
C12A C11 1_555 1_555
H10A C12A 1_555 1_555
Zn1A O4 1_555 1_555
O1A Zn1A 1_555 1_555
O2A Zn1A 1_555 1_555
O3A Zn1A 1_555 1_555
O4A Zn1 1_555 1_555
C13A O1A 1_555 1_555
C14A C13A 1_555 1_555
C15A C14A 1_555 1_555
H11A C15A 1_555 1_555
C16A C15A 1_555 1_555
H12A C16A 1_555 1_555
C17A C16A 1_555 1_555
C18A C17A 1_555 1_555
H13A C18A 1_555 1_555
C19A C14A 1_555 1_555
H14A C19A 1_555 1_555
C20A C17A 1_555 1_555
H15A C20A 1_555 1_555
H16A C20A 1_555 1_555
H17A C20A 1_555 1_555
C21A O3A 1_555 1_555
C22A C21A 1_555 1_555
C23A C22A 1_555 1_555
H18A C23A 1_555 1_555
C24A C23A 1_555 1_555
H19A C24A 1_555 1_555
C25A C24A 1_555 1_555
C26A C25A 1_555 1_555
H20A C26A 1_555 1_555
C27A C22A 1_555 1_555
H21A C27A 1_555 1_555
C28A C25A 1_555 1_555
H22A C28A 1_555 1_555
H23A C28A 1_555 1_555
H24A C28A 1_555 1_555
Zn1_2 N2A 1_555 1_555
Zn1A_2 N1A 1_555 1_555
N1A_2 Zn1A 1_555 1_555
N2A_2 Zn1 1_555 1_555
C4 C5 1_555 1_555
N2 Zn1A 1_555 1_555
C9 C10 1_555 1_555
C11 C12 1_555 1_555
C18 C19 1_555 1_555
C26 C27 1_555 1_555
C3A C11A 1_555 1_555
C4A C5A 1_555 1_555
C8A C12A 1_555 1_555
C9A C10A 1_555 1_555
C11A C12A 1_555 1_555
O2A C13A 1_555 1_555
O4A C21A 1_555 1_555
C18A C19A 1_555 1_555
C26A C27A 1_555 1_555

#END
