
#######################################################################
#
#                 Cambridge Crystallographic Data Centre
#                                CCDC 
#
#######################################################################
#
# If this CIF has been generated from an entry in the Cambridge 
# Structural Database, then it will include bibliographic, chemical, 
# crystal, experimental, refinement or atomic coordinate data resulting 
# from the CCDC's data processing and validation procedures.
#
#######################################################################

data_HISXAJ
_symmetry_cell_setting           triclinic
_symmetry_space_group_name_H-M   'P -1'
_symmetry_Int_Tables_number      2
_space_group_name_Hall           '-P 1'
loop_
_symmetry_equiv_pos_site_id
_symmetry_equiv_pos_as_xyz
1 x,y,z
2 -x,-y,-z
_cell_length_a                   10.860(9)
_cell_length_b                   14.297(6)
_cell_length_c                   15.793(7)
_cell_angle_alpha                113.736(3)
_cell_angle_beta                 106.131(3)
_cell_angle_gamma                98.382(4)
_cell_volume                     2061.71
loop_
_atom_site_label
_atom_site_type_symbol
_atom_site_fract_x
_atom_site_fract_y
_atom_site_fract_z
Cu3 Cu 0.0711(13) 0.4891(9) 0.1131(11)
N5 N -0.096(2) 0.514(2) 0.1217(18)
N6 N -0.749(2) 0.517(2) 0.1148(17)
C21 C -0.134(3) 0.599(3) 0.138(2)
H17 H -0.0720 0.6592 0.1499
C22 C -0.658(4) 0.605(3) 0.139(3)
H18 H -0.6801 0.6683 0.1553
C23 C -0.259(3) 0.608(2) 0.140(2)
H19 H -0.2806 0.6713 0.1519
C24 C -0.532(3) 0.604(2) 0.141(2)
H20 H -0.4733 0.6684 0.1577
C25 C -0.487(2) 0.520(2) 0.1219(18)
C26 C -0.351(2) 0.5189(16) 0.1248(17)
C27 C -0.582(3) 0.429(2) 0.100(2)
H21 H -0.5546 0.3678 0.0893
C28 C -0.307(2) 0.4320(19) 0.112(2)
H22 H -0.3640 0.3714 0.1050
C29 C -0.714(3) 0.420(2) 0.0931(19)
H23 H -0.7745 0.3561 0.0756
C30 C -0.184(2) 0.431(3) 0.111(2)
H24 H -0.1591 0.3691 0.1010
Cu3_2 Cu 1.0711(13) 0.4891(9) 0.1131(11)
Cu3_3 Cu -0.9289(13) 0.4891(9) 0.1131(11)
N5_2 N 0.904(2) 0.514(2) 0.1217(18)
N6_2 N 0.251(2) 0.517(2) 0.1148(17)
N6_3 N 1.251(2) 0.517(2) 0.1148(17)
C21_2 C 0.866(3) 0.599(3) 0.138(2)
H17_2 H 0.9280 0.6592 0.1499
C22_2 C 0.342(4) 0.605(3) 0.139(3)
H18_2 H 0.3199 0.6683 0.1553
C23_2 C 0.741(3) 0.608(2) 0.140(2)
H19_2 H 0.7194 0.6713 0.1519
C24_2 C 0.468(3) 0.604(2) 0.141(2)
H20_2 H 0.5267 0.6684 0.1577
C25_2 C 0.513(2) 0.520(2) 0.1219(18)
C26_2 C 0.649(2) 0.5189(16) 0.1248(17)
C27_2 C 0.418(3) 0.429(2) 0.100(2)
H21_2 H 0.4454 0.3678 0.0893
C28_2 C 0.693(2) 0.4320(19) 0.112(2)
H22_2 H 0.6360 0.3714 0.1050
C29_2 C 0.286(3) 0.420(2) 0.0931(19)
H23_2 H 0.2255 0.3561 0.0756
C30_2 C 0.816(2) 0.431(3) 0.111(2)
H24_2 H 0.8409 0.3691 0.1010
O23 O -0.735(3) 0.808(3) -0.299(2)
O24 O -0.468(5) 0.982(4) 0.238(3)
Cu1 Cu -0.2617(3) 0.8671(3) -0.5432(3)
Cu2 Cu -0.1693(3) 0.4441(4) -0.4255(3)
Si1 Si 0.0000 1.0000 0.0000
W1 W -0.33159(10) 0.83200(8) -0.15168(8)
W2 W -0.12996(11) 0.93552(9) -0.25143(7)
W3 W -0.05209(11) 0.73937(8) -0.18338(8)
W4 W -0.07664(11) 1.19595(8) -0.06970(8)
W5 W 0.20242(10) 1.10090(8) -0.10111(7)
W6 W -0.27492(13) 1.09174(11) 0.02942(10)
O1 O -0.486(2) 0.7497(16) -0.2258(15)
O2 O -0.1912(17) 0.9023(15) -0.3758(13)
O3 O -0.0819(19) 0.6135(15) -0.2737(14)
O4 O -0.1090(19) 1.2886(15) -0.1057(15)
O5 O 0.291(2) 1.1499(16) -0.1524(15)
O6 O -0.4047(16) 1.1439(17) 0.0449(15)
O7 O 0.0916(16) 1.1938(13) -0.0832(12)
O8 O -0.2321(17) 0.7347(13) -0.1859(13)
O9 O 0.0501(16) 0.9999(13) -0.2170(12)
O10 O -0.022(2) 0.718(2) -0.0695(17)
O11 O -0.366(2) 0.9600(16) -0.0947(16)
O12 O -0.155(2) 1.0717(17) -0.1941(17)
O13 O 0.127(2) 0.795(2) -0.1438(17)
O14 O -0.309(3) 0.8173(18) -0.0358(17)
O15 O -0.281(2) 0.8777(19) -0.2361(19)
O16 O 0.2665(19) 0.9882(14) -0.1020(13)
O17 O -0.228(2) 1.156(2) -0.0443(17)
O18 O -0.081(2) 0.8121(19) -0.2600(19)
O20 O -0.148(3) 0.967(2) -0.005(2)
O22 O 0.007(3) 1.044(3) -0.079(2)
N1 N -0.445(2) 0.8602(16) -0.5546(15)
N2 N -1.090(2) 0.8664(17) -0.5487(16)
N3 N 0.003(2) 0.4411(19) -0.4294(17)
N4 N 0.646(2) 0.4210(18) -0.4392(16)
C1 C -0.987(3) 0.883(2) -0.472(2)
H1 H -1.0022 0.8926 -0.4147
C2 C -0.485(3) 0.858(3) -0.489(3)
H2 H -0.4233 0.8565 -0.4352
C3 C -0.859(3) 0.888(2) -0.470(2)
H3 H -0.7890 0.9069 -0.4110
C4 C -0.608(3) 0.857(3) -0.485(2)
H4 H -0.6289 0.8526 -0.4332
C5 C -0.700(3) 0.861(2) -0.5592(19)
C6 C -0.837(2) 0.8657(19) -0.5566(18)
C7 C -0.944(3) 0.849(2) -0.639(2)
H5 H -0.9306 0.8350 -0.6983
C8 C -0.666(3) 0.859(3) -0.635(2)
H6 H -0.7293 0.8562 -0.6901
C9 C -0.535(3) 0.862(3) -0.631(3)
H7 H -0.5103 0.8657 -0.6822
C10 C -1.069(3) 0.851(2) -0.637(2)
H8 H -1.1385 0.8426 -0.6920
C11 C 0.537(3) 0.369(2) -0.522(2)
H9 H 0.5501 0.3313 -0.5805
C12 C 0.018(3) 0.362(2) -0.504(2)
H10 H -0.0585 0.3079 -0.5545
C13 C 0.405(2) 0.367(2) -0.529(2)
H11 H 0.3325 0.3280 -0.5895
C14 C 0.139(3) 0.356(2) -0.510(2)
H12 H 0.1439 0.2996 -0.5642
C15 C 0.393(3) 0.428(2) -0.437(2)
C16 C 0.254(2) 0.4311(19) -0.4376(17)
C17 C 0.500(3) 0.475(2) -0.353(2)
H13 H 0.4895 0.5074 -0.2921
C18 C 0.241(3) 0.518(2) -0.361(2)
H14 H 0.3167 0.5718 -0.3102
C19 C 0.113(3) 0.520(3) -0.363(2)
H15 H 0.1037 0.5810 -0.3154
C20 C 0.626(3) 0.476(2) -0.354(2)
H16 H 0.6994 0.5147 -0.2946
Cu1_2 Cu 0.7383(3) 0.8671(3) -0.5432(3)
Cu1_3 Cu -1.2617(3) 0.8671(3) -0.5432(3)
Cu1A Cu 0.2617(3) 1.1329(3) 0.5432(3)
Cu2A Cu 0.1693(3) 1.5559(4) 0.4255(3)
Cu2_2 Cu 0.8307(3) 0.4441(4) -0.4255(3)
Cu2_3 Cu -1.1693(3) 0.4441(4) -0.4255(3)
Si1_2 Si 1.0000 1.0000 0.0000
W1A W 0.33159(10) 1.16800(8) 0.15168(8)
W1_2 W 0.66841(10) 0.83200(8) -0.15168(8)
W1A_2 W 1.33159(10) 1.16800(8) 0.15168(8)
W2_2 W 0.87004(11) 0.93552(9) -0.25143(7)
W2A W 0.12996(11) 1.06448(9) 0.25143(7)
W2_3 W -1.12996(11) 0.93552(9) -0.25143(7)
W2A_2 W 1.12996(11) 1.06448(9) 0.25143(7)
W3A W 0.05209(11) 1.26063(8) 0.18338(8)
W3_2 W 0.94791(11) 0.73937(8) -0.18338(8)
W3A_2 W 1.05209(11) 1.26063(8) 0.18338(8)
W3_3 W -1.05209(11) 0.73937(8) -0.18338(8)
W4A W 0.07664(11) 0.80405(8) 0.06970(8)
W4_2 W 0.92336(11) 1.19595(8) -0.06970(8)
W4A_2 W 1.07664(11) 0.80405(8) 0.06970(8)
W5A W -0.20242(10) 0.89910(8) 0.10111(7)
W5_2 W 1.20242(10) 1.10090(8) -0.10111(7)
W5A_2 W 0.79758(10) 0.89910(8) 0.10111(7)
W6A W 0.27492(13) 0.90826(11) -0.02942(10)
W6A_2 W 1.27492(13) 0.90826(11) -0.02942(10)
W6_2 W 0.72508(13) 1.09174(11) 0.02942(10)
O1A O 0.486(2) 1.2503(16) 0.2258(15)
O1_2 O 0.514(2) 0.7497(16) -0.2258(15)
O1A_2 O 1.486(2) 1.2503(16) 0.2258(15)
O2_2 O 0.8088(17) 0.9023(15) -0.3758(13)
O2_3 O -1.1912(17) 0.9023(15) -0.3758(13)
O2A O 0.1912(17) 1.0977(15) 0.3758(13)
O3A O 0.0819(19) 1.3865(15) 0.2737(14)
O3_2 O 0.9181(19) 0.6135(15) -0.2737(14)
O3_3 O -1.0819(19) 0.6135(15) -0.2737(14)
O3A_2 O 1.0819(19) 1.3865(15) 0.2737(14)
O4A O 0.1090(19) 0.7114(15) 0.1057(15)
O4_2 O 0.8910(19) 1.2886(15) -0.1057(15)
O4A_2 O 1.1090(19) 0.7114(15) 0.1057(15)
O5A O -0.291(2) 0.8501(16) 0.1524(15)
O5_2 O 1.291(2) 1.1499(16) -0.1524(15)
O6A O 0.4047(16) 0.8561(17) -0.0449(15)
O6A_2 O 1.4047(16) 0.8561(17) -0.0449(15)
O6_2 O 0.5953(16) 1.1439(17) 0.0449(15)
O7A O -0.0916(16) 0.8062(13) 0.0832(12)
O7_2 O 1.0916(16) 1.1938(13) -0.0832(12)
O7A_2 O 0.9084(16) 0.8062(13) 0.0832(12)
O8A O 0.2321(17) 1.2653(13) 0.1859(13)
O8_2 O 0.7679(17) 0.7347(13) -0.1859(13)
O8A_2 O 1.2321(17) 1.2653(13) 0.1859(13)
O8_3 O -1.2321(17) 0.7347(13) -0.1859(13)
O9_2 O 1.0501(16) 0.9999(13) -0.2170(12)
O9A O -0.0501(16) 1.0001(13) 0.2170(12)
O9_3 O -0.9499(16) 0.9999(13) -0.2170(12)
O10A O 0.022(2) 1.282(2) 0.0695(17)
O10A_2 O 1.022(2) 1.282(2) 0.0695(17)
O10_2 O 0.978(2) 0.718(2) -0.0695(17)
O10_3 O -1.022(2) 0.718(2) -0.0695(17)
O11A O 0.366(2) 1.0400(16) 0.0947(16)
O11_2 O 0.634(2) 0.9600(16) -0.0947(16)
O11A_2 O 1.366(2) 1.0400(16) 0.0947(16)
O12_2 O 0.845(2) 1.0717(17) -0.1941(17)
O12A O 0.155(2) 0.9283(17) 0.1941(17)
O12_3 O -1.155(2) 1.0717(17) -0.1941(17)
O12A_2 O 1.155(2) 0.9283(17) 0.1941(17)
O13A O -0.127(2) 1.205(2) 0.1438(17)
O13_2 O 1.127(2) 0.795(2) -0.1438(17)
O13A_2 O 0.873(2) 1.205(2) 0.1438(17)
O13_3 O -0.873(2) 0.795(2) -0.1438(17)
O14A O 0.309(3) 1.1827(18) 0.0358(17)
O14A_2 O 1.309(3) 1.1827(18) 0.0358(17)
O14_2 O 0.691(3) 0.8173(18) -0.0358(17)
O15A O 0.281(2) 1.1223(19) 0.2361(19)
O15_2 O 0.719(2) 0.8777(19) -0.2361(19)
O15_3 O -1.281(2) 0.8777(19) -0.2361(19)
O15A_2 O 1.281(2) 1.1223(19) 0.2361(19)
O16A O -0.2665(19) 1.0118(14) 0.1020(13)
O16_2 O 1.2665(19) 0.9882(14) -0.1020(13)
O16A_2 O 0.7335(19) 1.0118(14) 0.1020(13)
O17A O 0.228(2) 0.844(2) 0.0443(17)
O17_2 O 0.772(2) 1.156(2) -0.0443(17)
O17A_2 O 1.228(2) 0.844(2) 0.0443(17)
O18_2 O 0.919(2) 0.8121(19) -0.2600(19)
O18A O 0.081(2) 1.1879(19) 0.2600(19)
O18_3 O -1.081(2) 0.8121(19) -0.2600(19)
O18A_2 O 1.081(2) 1.1879(19) 0.2600(19)
O20A O 0.148(3) 1.033(2) 0.005(2)
O20A_2 O 1.148(3) 1.033(2) 0.005(2)
O20_2 O 0.852(3) 0.967(2) -0.005(2)
O22A O -0.007(3) 0.956(3) 0.079(2)
O22_2 O 1.007(3) 1.044(3) -0.079(2)
O22A_2 O 0.993(3) 0.956(3) 0.079(2)
O22_3 O -0.993(3) 1.044(3) -0.079(2)
N1_2 N 0.555(2) 0.8602(16) -0.5546(15)
N1_3 N -1.445(2) 0.8602(16) -0.5546(15)
N1A N 0.445(2) 1.1398(16) 0.5546(15)
N2_2 N -0.090(2) 0.8664(17) -0.5487(16)
N2_3 N 0.910(2) 0.8664(17) -0.5487(16)
N2A N 0.090(2) 1.1336(17) 0.5487(16)
N3_2 N -0.997(2) 0.4411(19) -0.4294(17)
N3A N -0.003(2) 1.5589(19) 0.4294(17)
N3_3 N 1.003(2) 0.4411(19) -0.4294(17)
N4_2 N -0.354(2) 0.4210(18) -0.4392(16)
N4A N 0.354(2) 1.5790(18) 0.4392(16)
N4_3 N -1.354(2) 0.4210(18) -0.4392(16)
C1_2 C 0.013(3) 0.883(2) -0.472(2)
C1_3 C 1.013(3) 0.883(2) -0.472(2)
H1_2 H -0.0022 0.8926 -0.4147
H1_3 H 0.9978 0.8926 -0.4147
C2_2 C 0.515(3) 0.858(3) -0.489(3)
C2_3 C -1.485(3) 0.858(3) -0.489(3)
H2_2 H 0.5767 0.8565 -0.4352
H2_3 H -1.4233 0.8565 -0.4352
C3_2 C 0.141(3) 0.888(2) -0.470(2)
C3_3 C 1.141(3) 0.888(2) -0.470(2)
H3_2 H 0.2110 0.9069 -0.4110
H3_3 H 1.2110 0.9069 -0.4110
C4_2 C 0.392(3) 0.857(3) -0.485(2)
C4_3 C -1.608(3) 0.857(3) -0.485(2)
H4_2 H 0.3711 0.8526 -0.4332
C5_2 C 0.300(3) 0.861(2) -0.5592(19)
C6_2 C 0.163(2) 0.8657(19) -0.5566(18)
C6_3 C 1.163(2) 0.8657(19) -0.5566(18)
C7_2 C 0.056(3) 0.849(2) -0.639(2)
C7_3 C 1.056(3) 0.849(2) -0.639(2)
H5_2 H 0.0694 0.8350 -0.6983
H5_3 H 1.0694 0.8350 -0.6983
C8_2 C 0.334(3) 0.859(3) -0.635(2)
C8_3 C -1.666(3) 0.859(3) -0.635(2)
H6_2 H 0.2707 0.8562 -0.6901
C9_2 C 0.465(3) 0.862(3) -0.631(3)
C9_3 C -1.535(3) 0.862(3) -0.631(3)
H7_2 H 0.4897 0.8657 -0.6822
H7_3 H -1.5103 0.8657 -0.6822
C10_2 C -0.069(3) 0.851(2) -0.637(2)
C10_3 C 0.931(3) 0.851(2) -0.637(2)
H8_2 H -0.1385 0.8426 -0.6920
H8_3 H 0.8615 0.8426 -0.6920
C11_2 C -0.463(3) 0.369(2) -0.522(2)
C11A C 0.463(3) 1.631(2) 0.522(2)
C11_3 C -1.463(3) 0.369(2) -0.522(2)
H9_2 H -0.4499 0.3313 -0.5805
H9A H 0.4499 1.6687 0.5805
H9_3 H -1.4499 0.3313 -0.5805
C12_2 C -0.982(3) 0.362(2) -0.504(2)
C12A C -0.018(3) 1.638(2) 0.504(2)
C12_3 C 1.018(3) 0.362(2) -0.504(2)
H10_2 H -1.0585 0.3079 -0.5545
H10A H 0.0585 1.6921 0.5545
H10_3 H 0.9415 0.3079 -0.5545
C13_2 C -0.595(2) 0.367(2) -0.529(2)
C13A C 0.595(2) 1.633(2) 0.529(2)
C13_3 C -1.595(2) 0.367(2) -0.529(2)
H11_2 H -0.6675 0.3280 -0.5895
H11A H 0.6675 1.6720 0.5895
C14_2 C -0.861(3) 0.356(2) -0.510(2)
C14A C -0.139(3) 1.644(2) 0.510(2)
C14_3 C 1.139(3) 0.356(2) -0.510(2)
H12_2 H -0.8561 0.2996 -0.5642
H12A H -0.1439 1.7004 0.5642
C15_2 C -0.607(3) 0.428(2) -0.437(2)
C15A C 0.607(3) 1.572(2) 0.437(2)
C16_2 C -0.746(2) 0.4311(19) -0.4376(17)
C16A C -0.254(2) 1.5689(19) 0.4376(17)
C17_2 C -0.500(3) 0.475(2) -0.353(2)
C17A C 0.500(3) 1.525(2) 0.353(2)
C17_3 C -1.500(3) 0.475(2) -0.353(2)
H13_2 H -0.5105 0.5074 -0.2921
H13A H 0.5105 1.4926 0.2921
C18_2 C -0.759(3) 0.518(2) -0.361(2)
C18A C -0.241(3) 1.482(2) 0.361(2)
C18_3 C 1.241(3) 0.518(2) -0.361(2)
H14_2 H -0.6833 0.5718 -0.3102
H14A H -0.3167 1.4282 0.3102
C19_2 C -0.887(3) 0.520(3) -0.363(2)
C19A C -0.113(3) 1.480(3) 0.363(2)
C19_3 C 1.113(3) 0.520(3) -0.363(2)
H15_2 H -0.8963 0.5810 -0.3154
H15A H -0.1037 1.4190 0.3154
H15_3 H 1.1037 0.5810 -0.3154
C20_2 C -0.374(3) 0.476(2) -0.354(2)
C20A C 0.374(3) 1.524(2) 0.354(2)
C20_3 C -1.374(3) 0.476(2) -0.354(2)
H16_2 H -0.3006 0.5147 -0.2946
H16A H 0.3006 1.4853 0.2946
H16_3 H -1.3006 0.5147 -0.2946
Cu4? Cu 0.0781(13) 0.5381(11) 0.1139(10)
O19? O 0.059(3) 0.904(3) -0.024(2)
O21? O -0.100(3) 0.907(3) -0.111(2)
loop_
_geom_bond_atom_site_label_1
_geom_bond_atom_site_label_2
_geom_bond_site_symmetry_1
_geom_bond_site_symmetry_2
Cu1 O2 1_555 1_555
Cu2 O3 1_555 1_555
Cu3 N5 1_555 1_555
Si1 O20 1_555 1_555
W1 O1 1_555 1_555
W2 O2 1_555 1_555
W3 O3 1_555 1_555
W4 O4 1_555 1_555
W5 O5 1_555 1_555
W6 O6 1_555 1_555
O7 W4 1_555 1_555
O8 W1 1_555 1_555
O9 W2 1_555 1_555
O10 W3 1_555 1_555
O11 W1 1_555 1_555
O12 W2 1_555 1_555
O13 W3 1_555 1_555
O14 W1 1_555 1_555
O15 W1 1_555 1_555
O16 W5 1_555 1_555
O17 W4 1_555 1_555
O18 W2 1_555 1_555
O20 W1 1_555 1_555
O22 Si1 1_555 1_555
N1 Cu1 1_555 1_555
N2 C1 1_555 1_555
N3 Cu2 1_555 1_555
N4 C11 1_555 1_555
N5 C21 1_555 1_555
N6 C22 1_555 1_555
C1 H1 1_555 1_555
C2 N1 1_555 1_555
H2 C2 1_555 1_555
C3 C1 1_555 1_555
H3 C3 1_555 1_555
C4 C2 1_555 1_555
H4 C4 1_555 1_555
C5 C4 1_555 1_555
C6 C3 1_555 1_555
C7 C6 1_555 1_555
H5 C7 1_555 1_555
C8 C5 1_555 1_555
H6 C8 1_555 1_555
C9 N1 1_555 1_555
H7 C9 1_555 1_555
C10 N2 1_555 1_555
H8 C10 1_555 1_555
C11 H9 1_555 1_555
C12 N3 1_555 1_555
H10 C12 1_555 1_555
C13 C11 1_555 1_555
H11 C13 1_555 1_555
C14 C12 1_555 1_555
H12 C14 1_555 1_555
C15 C13 1_555 1_555
C16 C14 1_555 1_555
C17 C15 1_555 1_555
H13 C17 1_555 1_555
C18 C16 1_555 1_555
H14 C18 1_555 1_555
C19 N3 1_555 1_555
H15 C19 1_555 1_555
C20 N4 1_555 1_555
H16 C20 1_555 1_555
C21 H17 1_555 1_555
C22 H18 1_555 1_555
C23 C21 1_555 1_555
H19 C23 1_555 1_555
C24 C22 1_555 1_555
H20 C24 1_555 1_555
C25 C24 1_555 1_555
C26 C23 1_555 1_555
C27 C25 1_555 1_555
H21 C27 1_555 1_555
C28 C26 1_555 1_555
H22 C28 1_555 1_555
C29 N6 1_555 1_555
H23 C29 1_555 1_555
C30 N5 1_555 1_555
H24 C30 1_555 1_555
Cu1_2 O2_2 1_555 1_555
Cu1_3 N2 1_555 1_555
Cu1A O2A 1_555 1_555
Cu2A O3A 1_555 1_555
Cu2_2 N4 1_555 1_555
Cu2_3 O3_3 1_555 1_555
Cu3_2 N5_2 1_555 1_555
Cu3_3 N6 1_555 1_555
Si1_2 O20A_2 1_555 1_555
W1A O1A 1_555 1_555
W1_2 O1_2 1_555 1_555
W1A_2 O1A_2 1_555 1_555
W2_2 O2_2 1_555 1_555
W2A O2A 1_555 1_555
W2_3 O2_3 1_555 1_555
W2A_2 O12A_2 1_555 1_555
W3A O3A 1_555 1_555
W3_2 O3_2 1_555 1_555
W3A_2 O3A_2 1_555 1_555
W3_3 O3_3 1_555 1_555
W4A O10 1_555 1_555
W4_2 O4_2 1_555 1_555
W4A_2 O4A_2 1_555 1_555
W5A O14 1_555 1_555
W5_2 O5_2 1_555 1_555
W5A_2 O7A_2 1_555 1_555
W6A O13 1_555 1_555
W6A_2 O6A_2 1_555 1_555
W6_2 O6_2 1_555 1_555
O2_3 Cu1_3 1_555 1_555
O3_2 Cu2_2 1_555 1_555
O4A W4A 1_555 1_555
O5A W5A 1_555 1_555
O6A W6A 1_555 1_555
O7A W4A 1_555 1_555
O7_2 W4_2 1_555 1_555
O7A_2 W4A_2 1_555 1_555
O8A W1A 1_555 1_555
O8_2 W1_2 1_555 1_555
O8A_2 W1A_2 1_555 1_555
O8_3 W3_3 1_555 1_555
O9_2 W2_2 1_555 1_555
O9A W2A 1_555 1_555
O9_3 W2_3 1_555 1_555
O10A W4 1_555 1_555
O10A_2 W3A_2 1_555 1_555
O10_2 W3_2 1_555 1_555
O10_3 W3_3 1_555 1_555
O11A W1A 1_555 1_555
O11_2 W1_2 1_555 1_555
O11A_2 W1A_2 1_555 1_555
O12_2 W2_2 1_555 1_555
O12A W2A 1_555 1_555
O12_3 W2_3 1_555 1_555
O12A_2 W4A_2 1_555 1_555
O13A W6 1_555 1_555
O13_2 W3_2 1_555 1_555
O13A_2 W3A_2 1_555 1_555
O13_3 W3_3 1_555 1_555
O14A W5 1_555 1_555
O14A_2 W1A_2 1_555 1_555
O14_2 W1_2 1_555 1_555
O15A W1A 1_555 1_555
O15_2 W1_2 1_555 1_555
O15_3 W2_3 1_555 1_555
O15A_2 W1A_2 1_555 1_555
O16A W6 1_555 1_555
O16_2 W5_2 1_555 1_555
O16A_2 W5A_2 1_555 1_555
O17A W4A 1_555 1_555
O17_2 W4_2 1_555 1_555
O17A_2 W4A_2 1_555 1_555
O18_2 W2_2 1_555 1_555
O18A W2A 1_555 1_555
O18_3 W2_3 1_555 1_555
O18A_2 W2A_2 1_555 1_555
O20A Si1 1_555 1_555
O20A_2 W1A_2 1_555 1_555
O20_2 Si1_2 1_555 1_555
O22A Si1 1_555 1_555
O22_2 Si1_2 1_555 1_555
O22A_2 Si1_2 1_555 1_555
O22_3 W2_3 1_555 1_555
N1_2 Cu1_2 1_555 1_555
N1_3 Cu1_3 1_555 1_555
N1A Cu1A 1_555 1_555
N2_2 Cu1 1_555 1_555
N2_3 Cu1_2 1_555 1_555
N2A Cu1A 1_555 1_555
N3_2 Cu2_3 1_555 1_555
N3A Cu2A 1_555 1_555
N3_3 Cu2_2 1_555 1_555
N4_2 Cu2 1_555 1_555
N4A Cu2A 1_555 1_555
N4_3 Cu2_3 1_555 1_555
N5_2 C21_2 1_555 1_555
N6_2 Cu3 1_555 1_555
N6_3 Cu3_2 1_555 1_555
C1_2 N2_2 1_555 1_555
C1_3 N2_3 1_555 1_555
H1_2 C1_2 1_555 1_555
H1_3 C1_3 1_555 1_555
C2_2 N1_2 1_555 1_555
C2_3 N1_3 1_555 1_555
H2_2 C2_2 1_555 1_555
H2_3 C2_3 1_555 1_555
C3_2 C1_2 1_555 1_555
C3_3 C1_3 1_555 1_555
H3_2 C3_2 1_555 1_555
H3_3 C3_3 1_555 1_555
C4_2 C2_2 1_555 1_555
C4_3 C2_3 1_555 1_555
H4_2 C4_2 1_555 1_555
C5_2 C4_2 1_555 1_555
C6_2 C3_2 1_555 1_555
C6_3 C3_3 1_555 1_555
C7_2 C6_2 1_555 1_555
C7_3 C6_3 1_555 1_555
H5_2 C7_2 1_555 1_555
H5_3 C7_3 1_555 1_555
C8_2 C5_2 1_555 1_555
C8_3 C9_3 1_555 1_555
H6_2 C8_2 1_555 1_555
C9_2 N1_2 1_555 1_555
C9_3 N1_3 1_555 1_555
H7_2 C9_2 1_555 1_555
H7_3 C9_3 1_555 1_555
C10_2 N2_2 1_555 1_555
C10_3 N2_3 1_555 1_555
H8_2 C10_2 1_555 1_555
H8_3 C10_3 1_555 1_555
C11_2 N4_2 1_555 1_555
C11A N4A 1_555 1_555
C11_3 N4_3 1_555 1_555
H9_2 C11_2 1_555 1_555
H9A C11A 1_555 1_555
H9_3 C11_3 1_555 1_555
C12_2 N3_2 1_555 1_555
C12A N3A 1_555 1_555
C12_3 N3_3 1_555 1_555
H10_2 C12_2 1_555 1_555
H10A C12A 1_555 1_555
H10_3 C12_3 1_555 1_555
C13_2 C11_2 1_555 1_555
C13A C11A 1_555 1_555
C13_3 C11_3 1_555 1_555
H11_2 C13_2 1_555 1_555
H11A C13A 1_555 1_555
C14_2 C12_2 1_555 1_555
C14A C12A 1_555 1_555
C14_3 C12_3 1_555 1_555
H12_2 C14_2 1_555 1_555
H12A C14A 1_555 1_555
C15_2 C13_2 1_555 1_555
C15A C13A 1_555 1_555
C16_2 C14_2 1_555 1_555
C16A C14A 1_555 1_555
C17_2 C15_2 1_555 1_555
C17A C15A 1_555 1_555
C17_3 C20_3 1_555 1_555
H13_2 C17_2 1_555 1_555
H13A C17A 1_555 1_555
C18_2 C16_2 1_555 1_555
C18A C16A 1_555 1_555
C18_3 C19_3 1_555 1_555
H14_2 C18_2 1_555 1_555
H14A C18A 1_555 1_555
C19_2 N3_2 1_555 1_555
C19A N3A 1_555 1_555
C19_3 N3_3 1_555 1_555
H15_2 C19_2 1_555 1_555
H15A C19A 1_555 1_555
H15_3 C19_3 1_555 1_555
C20_2 N4_2 1_555 1_555
C20A N4A 1_555 1_555
C20_3 N4_3 1_555 1_555
H16_2 C20_2 1_555 1_555
H16A C20A 1_555 1_555
H16_3 C20_3 1_555 1_555
C21_2 H17_2 1_555 1_555
C22_2 N6_2 1_555 1_555
H18_2 C22_2 1_555 1_555
C23_2 C21_2 1_555 1_555
H19_2 C23_2 1_555 1_555
C24_2 C22_2 1_555 1_555
H20_2 C24_2 1_555 1_555
C25_2 C24_2 1_555 1_555
C26_2 C23_2 1_555 1_555
C27_2 C25_2 1_555 1_555
H21_2 C27_2 1_555 1_555
C28_2 C26_2 1_555 1_555
H22_2 C28_2 1_555 1_555
C29_2 N6_2 1_555 1_555
H23_2 C29_2 1_555 1_555
C30_2 N5_2 1_555 1_555
H24_2 C30_2 1_555 1_555
W2 O15 1_555 1_555
W2 O22 1_555 1_555
W3 O8 1_555 1_555
W3 O18 1_555 1_555
W4 O12 1_555 1_555
W4 O22 1_555 1_555
W5 O7 1_555 1_555
W5 O9 1_555 1_555
W5 O22 1_555 1_555
W5 O20A 1_555 1_555
W6 O11 1_555 1_555
W6 O17 1_555 1_555
W6 O20 1_555 1_555
O16 W6A 1_555 1_555
O20 W5A 1_555 1_555
C5 C6 1_555 1_555
C7 C10 1_555 1_555
C8 C9 1_555 1_555
C15 C16 1_555 1_555
C17 C20 1_555 1_555
C18 C19 1_555 1_555
C25 C26 1_555 1_555
C27 C29 1_555 1_555
C28 C30 1_555 1_555
W1A O14A 1_555 1_555
W1A O20A 1_555 1_555
W1_2 O20_2 1_555 1_555
W2_2 O15_2 1_555 1_555
W2_2 O22_2 1_555 1_555
W2A O15A 1_555 1_555
W2A O22A 1_555 1_555
W2A_2 O15A_2 1_555 1_555
W2A_2 O22A_2 1_555 1_555
W3A O8A 1_555 1_555
W3A O10A 1_555 1_555
W3A O13A 1_555 1_555
W3A O18A 1_555 1_555
W3_2 O8_2 1_555 1_555
W3_2 O18_2 1_555 1_555
W3A_2 O8A_2 1_555 1_555
W3A_2 O18A_2 1_555 1_555
W3_3 O18_3 1_555 1_555
W4A O12A 1_555 1_555
W4A O22A 1_555 1_555
W4_2 O10A_2 1_555 1_555
W4_2 O12_2 1_555 1_555
W4_2 O22_2 1_555 1_555
W4A_2 O10_2 1_555 1_555
W4A_2 O22A_2 1_555 1_555
W5A O7A 1_555 1_555
W5A O9A 1_555 1_555
W5A O16A 1_555 1_555
W5A O22A 1_555 1_555
W5_2 O7_2 1_555 1_555
W5_2 O9_2 1_555 1_555
W5_2 O14A_2 1_555 1_555
W5_2 O20A_2 1_555 1_555
W5_2 O22_2 1_555 1_555
W5A_2 O14_2 1_555 1_555
W5A_2 O20_2 1_555 1_555
W5A_2 O22A_2 1_555 1_555
W6A O11A 1_555 1_555
W6A O17A 1_555 1_555
W6A O20A 1_555 1_555
W6A_2 O11A_2 1_555 1_555
W6A_2 O13_2 1_555 1_555
W6A_2 O16_2 1_555 1_555
W6A_2 O17A_2 1_555 1_555
W6A_2 O20A_2 1_555 1_555
W6_2 O11_2 1_555 1_555
W6_2 O13A_2 1_555 1_555
W6_2 O16A_2 1_555 1_555
W6_2 O17_2 1_555 1_555
W6_2 O20_2 1_555 1_555
C5_2 C6_2 1_555 1_555
C7_2 C10_2 1_555 1_555
C7_3 C10_3 1_555 1_555
C8_2 C9_2 1_555 1_555
C15_2 C16_2 1_555 1_555
C17_2 C20_2 1_555 1_555
C17A C20A 1_555 1_555
C18_2 C19_2 1_555 1_555
C18A C19A 1_555 1_555
C25_2 C26_2 1_555 1_555
C27_2 C29_2 1_555 1_555
C28_2 C30_2 1_555 1_555

#END
