
#######################################################################
#
#                 Cambridge Crystallographic Data Centre
#                                CCDC 
#
#######################################################################
#
# If this CIF has been generated from an entry in the Cambridge 
# Structural Database, then it will include bibliographic, chemical, 
# crystal, experimental, refinement or atomic coordinate data resulting 
# from the CCDC's data processing and validation procedures.
#
#######################################################################

data_HISXEO
_symmetry_cell_setting           triclinic
_symmetry_space_group_name_H-M   'P 1'
_symmetry_Int_Tables_number      1
_space_group_name_Hall           'P 1'
loop_
_symmetry_equiv_pos_site_id
_symmetry_equiv_pos_as_xyz
1 x,y,z
_cell_length_a                   13.8389(14)
_cell_length_b                   18.3530(18)
_cell_length_c                   20.043(2)
_cell_angle_alpha                63.805(2)
_cell_angle_beta                 86.522(3)
_cell_angle_gamma                78.098(2)
_cell_volume                     4466.93
loop_
_atom_site_label
_atom_site_type_symbol
_atom_site_fract_x
_atom_site_fract_y
_atom_site_fract_z
Ru1 Ru 0.38236(4) 1.27961(3) 0.14075(3)
C1 C 0.3315(6) 1.1807(4) 0.2208(4)
N1 N 0.3681(5) 1.2387(4) 0.0625(3)
N2 N 0.5142(4) 1.2044(4) 0.1587(3)
O1 O 0.2422(4) 1.3466(3) 0.1198(3)
O2 O 0.4128(3) 1.3121(3) 0.2208(3)
C2 C 0.4343(5) 1.3802(5) 0.0597(4)
N3 N 0.3021(5) 1.1265(4) 0.2631(4)
C3 C 0.3023(5) 1.2736(5) 0.0137(5)
C4 C 0.4462(6) 1.1687(5) 0.0704(5)
C5 C 0.5412(6) 1.1824(5) 0.0932(5)
C6 C 0.5695(6) 1.1765(5) 0.2186(4)
C7 C 0.1886(5) 1.3696(5) 0.0571(4)
C8 C 0.4770(5) 1.2632(5) 0.2785(4)
N4 N 0.4542(4) 1.4342(4) 0.0092(4)
Mn1 Mn 0.27648(7) 1.00720(6) 0.36009(5)
C9 C 0.2128(6) 1.3373(5) 0.0061(4)
H1 H 0.3099 1.2574 -0.0245
H2 H 0.4296 1.1184 0.1105
C10 C 0.4708(5) 1.1527(6) -0.0015(5)
C11 C 0.6353(7) 1.1100(6) 0.1100(5)
H3 H 0.5573 1.2320 0.0518
H4 H 0.6300 1.1423 0.2200
C12 C 0.5491(6) 1.1915(5) 0.2808(4)
C13 C 0.1020(6) 1.4300(6) 0.0473(5)
C14 C 0.4709(5) 1.2829(5) 0.3367(4)
Mn2 Mn 0.45503(7) 1.54911(7) -0.09824(6)
N5 N 0.1872(4) 1.0735(4) 0.4027(4)
N6 N 0.3795(4) 1.0248(4) 0.4153(4)
N7 N 0.2556(5) 0.8893(4) 0.4639(4)
O3 O 0.1702(4) 1.0015(3) 0.3084(3)
O4 O 0.3782(4) 0.9439(3) 0.3254(3)
C15 C 0.1500(6) 1.3621(5) -0.0554(4)
H5 H 0.4151 1.1369 -0.0151
H6 H 0.4827 1.2031 -0.0429
C16 C 0.5618(7) 1.0840(6) 0.0153(5)
C17 C 0.6516(6) 1.1041(5) 0.0364(5)
H7 H 0.6922 1.1234 0.1246
H8 H 0.6228 1.0583 0.1492
C18 C 0.6136(6) 1.1503(5) 0.3404(4)
H9 H 0.0865 1.4547 0.0794
C19 C 0.0406(6) 1.4502(6) -0.0144(6)
C20 C 0.5368(7) 1.2377(6) 0.3976(5)
H10 H 0.4225 1.3268 0.3359
N8 N 0.4048(4) 1.6160(4) -0.0426(3)
N9 N 0.3063(4) 1.5516(4) -0.1087(3)
O5 O 0.4891(4) 1.4884(3) -0.1572(3)
N10 N 0.4338(4) 1.6743(4) -0.2071(3)
O6 O 0.5846(4) 1.5514(3) -0.0832(3)
C21 C 0.0939(5) 1.1032(5) 0.3892(4)
C22 C 0.2338(6) 1.0875(6) 0.4612(5)
C23 C 0.3398(6) 1.0882(6) 0.4428(6)
C24 C 0.4719(5) 0.9970(5) 0.4186(4)
C25 C 0.0738(6) 1.0397(5) 0.3020(4)
C26 C 0.4734(6) 0.9219(5) 0.3417(5)
C27 C 0.0629(7) 1.4208(6) -0.0647(5)
H11 H 0.1656 1.3400 -0.0894
H12 H 0.5480 1.0336 0.0557
H13 H 0.5755 1.0738 -0.0282
H14 H 0.6637 1.1564 -0.0022
H15 H 0.7089 1.0613 0.0413
H16 H 0.6639 1.1075 0.3412
C28 C 0.6064(6) 1.1706(5) 0.4008(5)
H17 H -0.0195 1.4866 -0.0206
H18 H 0.5338 1.2529 0.4363
C29 C 0.2975(5) 1.6524(6) -0.0574(5)
C30 C 0.4556(6) 1.6295(5) -0.0012(5)
C31 C 0.2486(5) 1.5863(5) -0.0608(5)
C32 C 0.2739(5) 1.5229(5) -0.1468(4)
C33 C 0.4310(6) 1.4694(6) -0.1951(5)
C34 C 0.3986(5) 1.7121(4) -0.2621(4)
C35 C 0.6219(5) 1.5654(5) -0.0268(4)
C36 C 0.0353(6) 1.0867(5) 0.3386(4)
H19 H 0.0618 1.1360 0.4116
H20 H 0.2011 1.1399 0.4606
H21 H 0.2283 1.0434 0.5102
H22 H 0.3460 1.1427 0.4049
H23 H 0.3778 1.0766 0.4867
H24 H 0.5105 1.0089 0.4475
C37 C 0.5221(6) 0.9496(5) 0.3824(5)
C38 C 0.0154(6) 1.0299(6) 0.2550(5)
C39 C 0.5273(7) 0.8771(6) 0.3057(5)
Cl1 Cl -0.01814(17) 1.45432(16) -0.14181(13)
Cl2 Cl 0.68712(16) 1.10857(15) 0.47727(12)
H25 H 0.2866 1.7021 -0.1043
H26 H 0.2701 1.6667 -0.0181
C40 C 0.5622(5) 1.6058(5) 0.0122(4)
H27 H 0.4210 1.6582 0.0241
H28 H 0.1814 1.6107 -0.0809
H29 H 0.2461 1.5424 -0.0111
C41 C 0.3308(5) 1.4822(5) -0.1907(5)
H30 H 0.2058 1.5276 -0.1479
C42 C 0.4744(6) 1.4280(5) -0.2369(4)
Ru2 Ru 0.33820(3) 1.78042(3) -0.37002(3)
C43 C 0.7239(6) 1.5401(6) -0.0131(5)
C44 C -0.0598(6) 1.1241(6) 0.3310(5)
C45 C 0.6249(7) 0.9293(7) 0.3915(6)
H31 H 0.0426 0.9991 0.2295
C46 C -0.0839(7) 1.0656(6) 0.2455(5)
C47 C 0.6302(7) 0.8547(6) 0.3126(6)
H32 H 0.4938 0.8620 0.2765
C48 C 0.6086(6) 1.6187(5) 0.0647(5)
C49 C 0.2704(6) 1.4574(5) -0.2282(4)
C50 C 0.4162(6) 1.4028(5) -0.2753(5)
H33 H 0.5429 1.4168 -0.2395
O7 O 0.3067(4) 1.8891(3) -0.3634(3)
C51 C 0.2785(5) 1.8472(5) -0.4781(4)
N11 N 0.4784(4) 1.7952(4) -0.4038(3)
O8 O 0.2117(3) 1.7498(3) -0.3275(3)
N12 N 0.3751(5) 1.6797(4) -0.3893(4)
C52 C 0.7646(6) 1.5549(6) 0.0417(4)
H34 H 0.7635 1.5144 -0.0389
C53 C -0.1244(7) 1.1096(7) 0.2842(5)
H35 H -0.0842 1.1579 0.3542
H36 H 0.6579 0.9450 0.4205
C54 C 0.6771(7) 0.8829(6) 0.3540(6)
H37 H -0.1233 1.0598 0.2129
H38 H 0.6659 0.8226 0.2908
C55 C 0.7062(6) 1.5917(5) 0.0829(5)
H39 H 0.5703 1.6475 0.0885
H40 H 0.2021 1.4671 -0.2243
C56 C 0.3154(7) 1.4181(6) -0.2712(6)
H41 H 0.4463 1.3758 -0.3034
C57 C 0.3744(5) 1.9310(4) -0.3595(4)
C58 C 0.5191(5) 1.7402(5) -0.4381(4)
C59 C 0.5190(5) 1.8485(5) -0.3964(4)
C60 C 0.1661(5) 1.6962(5) -0.3411(4)
C61 C 0.4833(5) 1.6604(4) -0.3985(4)
C62 C 0.3096(5) 1.6393(5) -0.3958(4)
H42 H 0.8326 1.5397 0.0509
H43 H -0.1921 1.1302 0.2810
H44 H 0.7458 0.8709 0.3574
H45 H 0.7337 1.5972 0.1213
H46 H 0.2769 1.4023 -0.2970
C63 C 0.4765(5) 1.9092(4) -0.3694(4)
C64 C 0.3410(5) 1.9970(5) -0.3406(4)
H47 H 0.4938 1.7668 -0.4898
C65 C 0.6351(6) 1.7225(6) -0.4388(6)
H48 H 0.5845 1.8480 -0.4103
C66 C 0.2077(5) 1.6506(4) -0.3793(4)
C67 C 0.0715(5) 1.6914(5) -0.3142(4)
C68 C 0.5118(6) 1.6022(5) -0.4380(5)
H49 H 0.5151 1.6311 -0.3487
H50 H 0.3327 1.5996 -0.4130
C69 C 0.5405(5) 1.9593(5) -0.3628(4)
C70 C 0.4028(5) 2.0446(5) -0.3358(4)
H51 H 0.2745 2.0091 -0.3311
C71 C 0.6652(5) 1.6685(6) -0.4826(5)
H52 H 0.6630 1.6927 -0.3884
H53 H 0.6588 1.7740 -0.4634
C72 C 0.1546(5) 1.6003(4) -0.3907(4)
H54 H 0.0436 1.7219 -0.2886
C73 C 0.0184(5) 1.6410(5) -0.3256(4)
H55 H 0.4839 1.6289 -0.4884
C74 C 0.6300(6) 1.5863(5) -0.4379(5)
H56 H 0.4890 1.5506 -0.4107
H57 H 0.6078 1.9471 -0.3699
C75 C 0.5040(5) 2.0233(5) -0.3464(5)
H58 H 0.3782 2.0897 -0.3257
H59 H 0.7363 1.6581 -0.4874
H60 H 0.6342 1.6972 -0.5320
H61 H 0.1824 1.5698 -0.4163
C76 C 0.0600(6) 1.5955(5) -0.3639(5)
H62 H -0.0449 1.6378 -0.3077
H63 H 0.6562 1.5609 -0.3871
H64 H 0.6549 1.5485 -0.4597
Cl3 Cl 0.58081(14) 2.08549(14) -0.33940(13)
Cl4 Cl -0.01164(14) 1.53206(13) -0.37833(12)
N7_2 N 0.2556(5) 1.8893(4) -0.5361(4)
Mn1_2 Mn 0.27648(7) 2.00720(6) -0.63991(5)
C77 C 0.3088(6) -0.0497(6) 0.9042(5)
C78 C 0.3606(6) -0.0322(6) 0.9505(6)
H65 H 0.3291 0.0055 0.9681
C79 C 0.4583(6) -0.0699(6) 0.9710(5)
H66 H 0.4909 -0.0595 1.0041
C80 C 0.5070(7) -0.1220(6) 0.9430(6)
H67 H 0.5734 -0.1456 0.9556
C81 C 0.4536(6) -0.1414(6) 0.8917(5)
H68 H 0.4857 -0.1777 0.8728
C82 C 0.3565(6) -0.1041(5) 0.8737(5)
C83 C 0.3055(6) -0.1340(6) 0.8336(5)
H69 H 0.3451 -0.1702 0.8174
C84 C 0.1686(6) -0.1476(6) 0.7685(5)
H70 H 0.2155 -0.1926 0.7644
H71 H 0.1516 -0.1031 0.7190
C85 C 0.0755(6) -0.1778(5) 0.8079(4)
H72 H 0.0347 -0.1860 0.7750
H73 H 0.0934 -0.2297 0.8523
C86 C -0.0696(6) -0.0888(5) 0.8216(4)
H74 H -0.1018 -0.1146 0.8014
C87 C -0.1338(6) -0.0269(5) 0.8424(5)
C88 C -0.2315(6) -0.0025(6) 0.8225(4)
H75 H -0.2594 -0.0263 0.7980
C89 C -0.2881(7) 0.0572(6) 0.8388(5)
H76 H -0.3554 0.0715 0.8267
C90 C -0.2506(6) 0.0988(6) 0.8730(5)
H77 H -0.2911 0.1399 0.8827
C91 C -0.1481(6) 0.0747(6) 0.8919(4)
H78 H -0.1208 0.0996 0.9156
C92 C -0.0887(6) 0.0157(5) 0.8759(5)
C93 C 0.2130(5) 0.2623(4) 0.5481(4)
C94 C 0.3075(5) 0.2646(5) 0.5223(5)
H79 H 0.3450 0.2210 0.5144
C95 C 0.3436(5) 0.3328(5) 0.5091(4)
H80 H 0.4059 0.3357 0.4892
C96 C 0.2950(5) 0.3982(5) 0.5229(4)
C97 C 0.2005(6) 0.3966(5) 0.5493(4)
H81 H 0.1651 0.4399 0.5585
C98 C 0.1590(5) 0.3277(5) 0.5619(4)
C99 C 0.0612(5) 0.3312(5) 0.5942(4)
H82 H 0.0379 0.3759 0.6051
C100 C -0.0894(5) 0.2801(5) 0.6488(4)
H83 H -0.0767 0.2361 0.6997
C101 C -0.1355(6) 0.3596(5) 0.6535(5)
H84 H -0.0903 0.3735 0.6793
H85 H -0.1498 0.4047 0.6040
C102 C -0.2271(7) 0.3477(6) 0.6943(5)
H86 H -0.2564 0.3983 0.6984
H87 H -0.2106 0.3042 0.7444
C103 C -0.3097(6) 0.3233(5) 0.6569(4)
H88 H -0.3669 0.3142 0.6878
H89 H -0.3311 0.3675 0.6080
C104 C -0.2602(5) 0.2448(5) 0.6513(5)
H90 H -0.3050 0.2302 0.6261
H91 H -0.2457 0.2000 0.7010
C105 C -0.1627(5) 0.2550(4) 0.6083(4)
H92 H -0.1783 0.2995 0.5578
C106 C -0.1470(5) 0.1141(4) 0.6162(4)
H93 H -0.2110 0.1154 0.6333
C107 C -0.0981(5) 0.0396(5) 0.6067(4)
C108 C -0.1513(5) -0.0210(4) 0.6257(4)
H94 H -0.2115 -0.0158 0.6482
C109 C -0.1184(5) -0.0915(5) 0.6126(4)
C110 C -0.0276(5) -0.1002(5) 0.5818(4)
H95 H -0.0030 -0.1464 0.5732
C111 C 0.0251(5) -0.0395(5) 0.5641(4)
H96 H 0.0866 -0.0458 0.5436
C112 C -0.0070(5) 0.0302(5) 0.5747(4)
C113 C -0.0450(6) 0.5278(5) 0.3621(4)
C114 C -0.0987(7) 0.5791(5) 0.3930(5)
H97 H -0.1670 0.5847 0.3947
C115 C -0.0556(7) 0.6208(6) 0.4204(5)
H98 H -0.0938 0.6551 0.4392
C116 C 0.0464(7) 0.6113(6) 0.4201(5)
H99 H 0.0768 0.6391 0.4391
C117 C 0.1029(6) 0.5613(5) 0.3919(4)
H100 H 0.1714 0.5539 0.3927
C118 C 0.0543(6) 0.5208(5) 0.3612(4)
C119 C 0.1200(6) 0.4694(5) 0.3301(4)
H101 H 0.1877 0.4642 0.3356
C120 C 0.1585(5) 0.3869(5) 0.2628(5)
H102 H 0.2221 0.3669 0.2891
H103 H 0.1675 0.4239 0.2114
C121 C 0.1180(5) 0.3140(5) 0.2665(5)
H104 H 0.1508 0.2956 0.2308
H105 H 0.1312 0.2682 0.3158
C122 C -0.0331(5) 0.3192(4) 0.2071(4)
H106 H 0.0048 0.2908 0.1827
C123 C -0.1402(5) 0.3391(5) 0.1943(4)
C124 C -0.1787(6) 0.3233(5) 0.1389(5)
H107 H -0.1354 0.3035 0.1106
C125 C -0.2775(7) 0.3366(6) 0.1267(5)
H108 H -0.3013 0.3234 0.0918
C126 C -0.3417(6) 0.3688(5) 0.1649(4)
H109 H -0.4093 0.3763 0.1569
C127 C -0.3078(6) 0.3911(5) 0.2164(4)
H110 H -0.3527 0.4152 0.2410
C128 C -0.2065(5) 0.3773(5) 0.2308(4)
C129 C 0.2355(5) 0.5786(5) 0.1462(4)
C130 C 0.3238(5) 0.5192(5) 0.1530(4)
H111 H 0.3317 0.4907 0.1238
C131 C 0.3956(5) 0.5049(4) 0.2027(4)
H112 H 0.4528 0.4658 0.2074
C132 C 0.3871(6) 0.5461(5) 0.2464(5)
C133 C 0.3057(5) 0.6046(5) 0.2408(5)
H113 H 0.3015 0.6331 0.2697
C134 C 0.2288(5) 0.6214(4) 0.1913(4)
C135 C 0.1381(5) 0.6766(5) 0.1970(4)
H114 H 0.1382 0.6967 0.2322
C136 C -0.0339(6) 0.7468(6) 0.1731(5)
H115 H -0.0768 0.7074 0.1998
C137 C -0.0213(6) 0.7920(6) 0.2214(5)
H116 H 0.0126 0.7528 0.2684
H117 H 0.0171 0.8345 0.1955
C138 C -0.1265(6) 0.8312(6) 0.2348(5)
H118 H -0.1664 0.7892 0.2570
H119 H -0.1231 0.8559 0.2684
C139 C -0.1723(7) 0.8978(6) 0.1591(5)
H120 H -0.1298 0.9377 0.1359
H121 H -0.2361 0.9270 0.1660
C140 C -0.1853(7) 0.8559(6) 0.1071(5)
H122 H -0.2311 0.8187 0.1287
H123 H -0.2124 0.8982 0.0588
C141 C -0.0854(6) 0.8076(5) 0.0978(5)
H124 H -0.0435 0.8484 0.0728
C142 C -0.1545(6) 0.7748(5) 0.0050(4)
H125 H -0.2125 0.8107 0.0054
C143 C -0.1515(5) 0.7391(5) -0.0494(4)
C144 C -0.2369(6) 0.7613(6) -0.0928(5)
H126 H -0.2931 0.7922 -0.0830
C145 C -0.2414(6) 0.7398(5) -0.1482(5)
C146 C -0.1578(5) 0.6921(4) -0.1634(4)
H127 H -0.1603 0.6769 -0.2017
C147 C -0.0726(5) 0.6683(5) -0.1212(4)
H128 H -0.0173 0.6371 -0.1318
C148 C -0.0660(5) 0.6895(5) -0.0623(4)
C149 C 0.0707(5) 0.0982(4) 0.6865(4)
C150 C -0.0008(6) 0.2656(5) 0.4687(4)
C151 C -0.0317(6) 0.5785(5) 0.1332(5)
C152 C 0.1159(5) 0.7690(4) 0.0083(4)
Cl5 Cl 0.34774(14) 0.48559(13) 0.50549(12)
Cl6 Cl -0.19016(14) -0.16705(12) 0.63434(12)
Cl7 Cl 0.48375(15) 0.52065(14) 0.31319(12)
Cl8 Cl -0.35067(14) 0.76673(14) -0.20076(12)
Mn3 Mn 0.11368(7) -0.05588(6) 0.85963(6)
Mn4 Mn -0.04954(7) 0.41634(6) 0.29360(6)
N13 N 0.2112(5) -0.1175(4) 0.8166(4)
N14 N 0.0207(4) -0.1100(4) 0.8280(3)
N15 N 0.0040(5) 0.2792(4) 0.6091(4)
N16 N -0.1092(4) 0.1760(4) 0.6030(4)
N17 N 0.0918(4) 0.4301(4) 0.2954(4)
N18 N 0.0132(4) 0.3382(4) 0.2501(3)
N19 N 0.0590(4) 0.6989(4) 0.1565(3)
N20 N -0.0844(5) 0.7608(4) 0.0515(4)
N21 N 0.0867(5) 0.0512(4) 0.7460(4)
N22 N -0.0193(5) 0.3108(5) 0.4092(4)
N23 N -0.0591(5) 0.5231(4) 0.1766(3)
N24 N 0.1445(5) 0.8276(4) -0.0302(3)
O9 O 0.2123(4) -0.0151(3) 0.8885(3)
O10 O 0.0060(4) -0.0030(3) 0.8956(3)
O11 O 0.1797(3) 0.1934(3) 0.5631(3)
O12 O 0.0495(4) 0.0894(3) 0.5487(3)
O13 O -0.0988(4) 0.4942(4) 0.3359(3)
O14 O -0.1779(3) 0.3984(4) 0.2815(3)
O15 O 0.1689(4) 0.5875(3) 0.0979(3)
O16 O 0.0191(3) 0.6671(3) -0.0251(3)
Ru3 Ru 0.03533(4) 0.18254(3) 0.57957(3)
Ru4 Ru 0.04248(4) 0.67496(3) 0.07001(3)
Mn3_2 Mn 0.11368(7) 0.94412(6) -0.14037(6)
N24_2 N 0.1445(5) -0.1724(4) 0.9698(3)
loop_
_geom_bond_atom_site_label_1
_geom_bond_atom_site_label_2
_geom_bond_site_symmetry_1
_geom_bond_site_symmetry_2
Ru1 C1 1_555 1_555
C1 N3 1_555 1_555
N1 Ru1 1_555 1_555
N2 Ru1 1_555 1_555
O1 Ru1 1_555 1_555
O2 Ru1 1_555 1_555
C2 Ru1 1_555 1_555
N3 Mn1 1_555 1_555
C3 N1 1_555 1_555
C4 N1 1_555 1_555
C5 N2 1_555 1_555
C6 N2 1_555 1_555
C7 O1 1_555 1_555
C8 O2 1_555 1_555
N4 C2 1_555 1_555
Mn1 N5 1_555 1_555
C9 C3 1_555 1_555
H1 C3 1_555 1_555
H2 C4 1_555 1_555
C10 C4 1_555 1_555
C11 C5 1_555 1_555
H3 C5 1_555 1_555
H4 C6 1_555 1_555
C12 C6 1_555 1_555
C13 C7 1_555 1_555
C14 C8 1_555 1_555
Mn2 N4 1_555 1_555
N5 C21 1_555 1_555
N6 Mn1 1_555 1_555
N7 Mn1 1_555 1_555
O3 Mn1 1_555 1_555
O4 Mn1 1_555 1_555
C15 C9 1_555 1_555
H5 C10 1_555 1_555
H6 C10 1_555 1_555
C16 C10 1_555 1_555
C17 C11 1_555 1_555
H7 C11 1_555 1_555
H8 C11 1_555 1_555
C18 C12 1_555 1_555
H9 C13 1_555 1_555
C19 C13 1_555 1_555
C20 C14 1_555 1_555
H10 C14 1_555 1_555
N8 Mn2 1_555 1_555
N9 Mn2 1_555 1_555
O5 Mn2 1_555 1_555
N10 Mn2 1_555 1_555
O6 Mn2 1_555 1_555
C21 C36 1_555 1_555
C22 N5 1_555 1_555
C23 N6 1_555 1_555
C24 N6 1_555 1_555
C25 O3 1_555 1_555
C26 O4 1_555 1_555
C27 C15 1_555 1_555
H11 C15 1_555 1_555
H12 C16 1_555 1_555
H13 C16 1_555 1_555
H14 C17 1_555 1_555
H15 C17 1_555 1_555
H16 C18 1_555 1_555
C28 C18 1_555 1_555
H17 C19 1_555 1_555
H18 C20 1_555 1_555
C29 N8 1_555 1_555
C30 N8 1_555 1_555
C31 N9 1_555 1_555
C32 N9 1_555 1_555
C33 O5 1_555 1_555
C34 N10 1_555 1_555
C35 O6 1_555 1_555
C36 C25 1_555 1_555
H19 C21 1_555 1_555
H20 C22 1_555 1_555
H21 C22 1_555 1_555
H22 C23 1_555 1_555
H23 C23 1_555 1_555
H24 C24 1_555 1_555
C37 C24 1_555 1_555
C38 C25 1_555 1_555
C39 C26 1_555 1_555
Cl1 C27 1_555 1_555
Cl2 C28 1_555 1_555
H25 C29 1_555 1_555
H26 C29 1_555 1_555
C40 C30 1_555 1_555
H27 C30 1_555 1_555
H28 C31 1_555 1_555
H29 C31 1_555 1_555
C41 C32 1_555 1_555
H30 C32 1_555 1_555
C42 C33 1_555 1_555
Ru2 C34 1_555 1_555
C43 C35 1_555 1_555
C44 C36 1_555 1_555
C45 C37 1_555 1_555
H31 C38 1_555 1_555
C46 C38 1_555 1_555
C47 C39 1_555 1_555
H32 C39 1_555 1_555
C48 C40 1_555 1_555
C49 C41 1_555 1_555
C50 C42 1_555 1_555
H33 C42 1_555 1_555
O7 Ru2 1_555 1_555
C51 Ru2 1_555 1_555
N11 Ru2 1_555 1_555
O8 Ru2 1_555 1_555
N12 Ru2 1_555 1_555
C52 C43 1_555 1_555
H34 C43 1_555 1_555
C53 C44 1_555 1_555
H35 C44 1_555 1_555
H36 C45 1_555 1_555
C54 C45 1_555 1_555
H37 C46 1_555 1_555
H38 C47 1_555 1_555
C55 C48 1_555 1_555
H39 C48 1_555 1_555
H40 C49 1_555 1_555
C56 C49 1_555 1_555
H41 C50 1_555 1_555
C57 O7 1_555 1_555
C58 N11 1_555 1_555
C59 N11 1_555 1_555
C60 O8 1_555 1_555
C61 N12 1_555 1_555
C62 N12 1_555 1_555
H42 C52 1_555 1_555
H43 C53 1_555 1_555
H44 C54 1_555 1_555
H45 C55 1_555 1_555
H46 C56 1_555 1_555
C63 C57 1_555 1_555
C64 C57 1_555 1_555
H47 C58 1_555 1_555
C65 C58 1_555 1_555
H48 C59 1_555 1_555
C66 C60 1_555 1_555
C67 C60 1_555 1_555
C68 C61 1_555 1_555
H49 C61 1_555 1_555
H50 C62 1_555 1_555
C69 C63 1_555 1_555
C70 C64 1_555 1_555
H51 C64 1_555 1_555
C71 C65 1_555 1_555
H52 C65 1_555 1_555
H53 C65 1_555 1_555
C72 C66 1_555 1_555
H54 C67 1_555 1_555
C73 C67 1_555 1_555
H55 C68 1_555 1_555
C74 C68 1_555 1_555
H56 C68 1_555 1_555
H57 C69 1_555 1_555
C75 C69 1_555 1_555
H58 C70 1_555 1_555
H59 C71 1_555 1_555
H60 C71 1_555 1_555
H61 C72 1_555 1_555
C76 C72 1_555 1_555
H62 C73 1_555 1_555
H63 C74 1_555 1_555
H64 C74 1_555 1_555
Cl3 C75 1_555 1_555
Cl4 C76 1_555 1_555
C77 C78 1_555 1_555
C78 H65 1_555 1_555
C79 C78 1_555 1_555
H66 C79 1_555 1_555
C80 C79 1_555 1_555
H67 C80 1_555 1_555
C81 C80 1_555 1_555
H68 C81 1_555 1_555
C82 C77 1_555 1_555
C83 C82 1_555 1_555
H69 C83 1_555 1_555
C84 H70 1_555 1_555
H71 C84 1_555 1_555
C85 C84 1_555 1_555
H72 C85 1_555 1_555
H73 C85 1_555 1_555
C86 H74 1_555 1_555
C87 C86 1_555 1_555
C88 C87 1_555 1_555
H75 C88 1_555 1_555
C89 C88 1_555 1_555
H76 C89 1_555 1_555
C90 C89 1_555 1_555
H77 C90 1_555 1_555
C91 C90 1_555 1_555
H78 C91 1_555 1_555
C92 C87 1_555 1_555
C93 C94 1_555 1_555
C94 H79 1_555 1_555
C95 C94 1_555 1_555
H80 C95 1_555 1_555
C96 C95 1_555 1_555
C97 C96 1_555 1_555
H81 C97 1_555 1_555
C98 C93 1_555 1_555
C99 C98 1_555 1_555
H82 C99 1_555 1_555
C100 H83 1_555 1_555
C101 C100 1_555 1_555
H84 C101 1_555 1_555
H85 C101 1_555 1_555
C102 C101 1_555 1_555
H86 C102 1_555 1_555
H87 C102 1_555 1_555
C103 C102 1_555 1_555
H88 C103 1_555 1_555
H89 C103 1_555 1_555
C104 C103 1_555 1_555
H90 C104 1_555 1_555
H91 C104 1_555 1_555
C105 C100 1_555 1_555
H92 C105 1_555 1_555
C106 H93 1_555 1_555
C107 C106 1_555 1_555
C108 C107 1_555 1_555
H94 C108 1_555 1_555
C109 C108 1_555 1_555
C110 C109 1_555 1_555
H95 C110 1_555 1_555
C111 C110 1_555 1_555
H96 C111 1_555 1_555
C112 C107 1_555 1_555
C113 C114 1_555 1_555
C114 H97 1_555 1_555
C115 C114 1_555 1_555
H98 C115 1_555 1_555
C116 C115 1_555 1_555
H99 C116 1_555 1_555
C117 C116 1_555 1_555
H100 C117 1_555 1_555
C118 C113 1_555 1_555
C119 C118 1_555 1_555
H101 C119 1_555 1_555
C120 H102 1_555 1_555
H103 C120 1_555 1_555
C121 C120 1_555 1_555
H104 C121 1_555 1_555
H105 C121 1_555 1_555
C122 H106 1_555 1_555
C123 C122 1_555 1_555
C124 C123 1_555 1_555
H107 C124 1_555 1_555
C125 C124 1_555 1_555
H108 C125 1_555 1_555
C126 C125 1_555 1_555
H109 C126 1_555 1_555
C127 C126 1_555 1_555
H110 C127 1_555 1_555
C128 C123 1_555 1_555
C129 C130 1_555 1_555
C130 H111 1_555 1_555
C131 C130 1_555 1_555
H112 C131 1_555 1_555
C132 C131 1_555 1_555
C133 C132 1_555 1_555
H113 C133 1_555 1_555
C134 C129 1_555 1_555
C135 C134 1_555 1_555
H114 C135 1_555 1_555
C136 H115 1_555 1_555
C137 C136 1_555 1_555
H116 C137 1_555 1_555
H117 C137 1_555 1_555
C138 C137 1_555 1_555
H118 C138 1_555 1_555
H119 C138 1_555 1_555
C139 C138 1_555 1_555
H120 C139 1_555 1_555
H121 C139 1_555 1_555
C140 C139 1_555 1_555
H122 C140 1_555 1_555
H123 C140 1_555 1_555
C141 C136 1_555 1_555
H124 C141 1_555 1_555
C142 H125 1_555 1_555
C143 C142 1_555 1_555
C144 C143 1_555 1_555
H126 C144 1_555 1_555
C145 C144 1_555 1_555
C146 C145 1_555 1_555
H127 C146 1_555 1_555
C147 C146 1_555 1_555
H128 C147 1_555 1_555
C148 C143 1_555 1_555
C149 N21 1_555 1_555
C150 N22 1_555 1_555
C151 N23 1_555 1_555
C152 N24 1_555 1_555
Cl5 C96 1_555 1_555
Cl6 C109 1_555 1_555
Cl7 C132 1_555 1_555
Cl8 C145 1_555 1_555
Mn3 N13 1_555 1_555
Mn4 N17 1_555 1_555
N13 C83 1_555 1_555
N14 C85 1_555 1_555
N15 C99 1_555 1_555
N16 C105 1_555 1_555
N17 C119 1_555 1_555
N18 C121 1_555 1_555
N19 C135 1_555 1_555
N20 C141 1_555 1_555
N21 Mn3 1_555 1_555
N22 Mn4 1_555 1_555
N23 Mn4 1_555 1_555
N24 Mn3_2 1_555 1_555
O9 C77 1_555 1_555
O10 C92 1_555 1_555
O11 C93 1_555 1_555
O12 C112 1_555 1_555
O13 C113 1_555 1_555
O14 C128 1_555 1_555
O15 C129 1_555 1_555
O16 C148 1_555 1_555
Ru3 C149 1_555 1_555
Ru4 C151 1_555 1_555
N7_2 C51 1_555 1_555
Mn1_2 N7_2 1_555 1_555
N24_2 Mn3 1_555 1_555
C4 C5 1_555 1_555
C7 C9 1_555 1_555
C8 C12 1_555 1_555
C16 C17 1_555 1_555
C19 C27 1_555 1_555
C20 C28 1_555 1_555
C22 C23 1_555 1_555
C26 C37 1_555 1_555
C29 C31 1_555 1_555
C33 C41 1_555 1_555
C35 C40 1_555 1_555
C46 C53 1_555 1_555
C47 C54 1_555 1_555
C50 C56 1_555 1_555
C52 C55 1_555 1_555
C58 C61 1_555 1_555
C59 C63 1_555 1_555
C62 C66 1_555 1_555
C70 C75 1_555 1_555
C71 C74 1_555 1_555
C73 C76 1_555 1_555
C81 C82 1_555 1_555
C84 N13 1_555 1_555
C86 N14 1_555 1_555
C91 C92 1_555 1_555
C97 C98 1_555 1_555
C100 N15 1_555 1_555
C104 C105 1_555 1_555
C106 N16 1_555 1_555
C111 C112 1_555 1_555
C117 C118 1_555 1_555
C120 N17 1_555 1_555
C122 N18 1_555 1_555
C127 C128 1_555 1_555
C133 C134 1_555 1_555
C136 N19 1_555 1_555
C140 C141 1_555 1_555
C142 N20 1_555 1_555
C147 C148 1_555 1_555
C150 Ru3 1_555 1_555
C152 Ru4 1_555 1_555
Mn3 N14 1_555 1_555
Mn3 O9 1_555 1_555
Mn3 O10 1_555 1_555
Mn4 N18 1_555 1_555
Mn4 O13 1_555 1_555
Mn4 O14 1_555 1_555
N15 Ru3 1_555 1_555
N16 Ru3 1_555 1_555
N19 Ru4 1_555 1_555
N20 Ru4 1_555 1_555
O11 Ru3 1_555 1_555
O12 Ru3 1_555 1_555
O15 Ru4 1_555 1_555
O16 Ru4 1_555 1_555

#END
