
#######################################################################
#
#                 Cambridge Crystallographic Data Centre
#                                CCDC 
#
#######################################################################
#
# If this CIF has been generated from an entry in the Cambridge 
# Structural Database, then it will include bibliographic, chemical, 
# crystal, experimental, refinement or atomic coordinate data resulting 
# from the CCDC's data processing and validation procedures.
#
#######################################################################

data_HISXAK
_symmetry_cell_setting           triclinic
_symmetry_space_group_name_H-M   'P 1'
_symmetry_Int_Tables_number      1
_space_group_name_Hall           'P 1'
loop_
_symmetry_equiv_pos_site_id
_symmetry_equiv_pos_as_xyz
1 x,y,z
_cell_length_a                   14.040(2)
_cell_length_b                   18.2330(19)
_cell_length_c                   20.1182(13)
_cell_angle_alpha                65.524(2)
_cell_angle_beta                 87.796(3)
_cell_angle_gamma                78.230(3)
_cell_volume                     4582.58
loop_
_atom_site_label
_atom_site_type_symbol
_atom_site_fract_x
_atom_site_fract_y
_atom_site_fract_z
Ru1 Ru 0.61782(2) -0.279501(18) 0.859421(17)
C1 C 0.6673(4) -0.1798(3) 0.7792(2)
N1 N 0.6322(3) -0.2382(2) 0.9372(2)
N2 N 0.4846(3) -0.2058(3) 0.8418(2)
O1 O 0.7582(2) -0.3465(2) 0.87979(19)
O2 O 0.5871(2) -0.3120(2) 0.77962(17)
C2 C 0.5664(4) -0.3797(3) 0.9402(3)
N3 N 0.6970(3) -0.1248(2) 0.7361(2)
C3 C 0.6992(4) -0.2738(3) 0.9867(3)
C4 C 0.5539(4) -0.1684(3) 0.9297(3)
C5 C 0.4589(4) -0.1834(3) 0.9082(3)
C6 C 0.4301(4) -0.1776(3) 0.7829(3)
C7 C 0.8122(4) -0.3701(3) 0.9430(2)
C8 C 0.5228(3) -0.2636(3) 0.7217(2)
N4 N 0.5465(3) -0.4335(2) 0.9903(2)
Mn1 Mn 0.72272(5) -0.00686(4) 0.63984(3)
C9 C 0.7884(4) -0.3373(3) 0.9942(2)
H1 H 0.6917 -0.2576 1.0251
H2 H 0.5686 -0.1183 0.8910
C10 C 0.5290(4) -0.1524(3) 1.0021(3)
C11 C 0.3624(5) -0.1117(4) 0.8914(3)
H3 H 0.4451 -0.2329 0.9484
H4 H 0.3706 -0.1432 0.7817
C12 C 0.4507(4) -0.1930(3) 0.7192(3)
C13 C 0.8981(4) -0.4287(4) 0.9533(3)
C14 C 0.5289(3) -0.2830(3) 0.6628(3)
Mn2 Mn 0.54543(5) -0.54905(4) 1.09799(3)
N5 N 0.8122(3) -0.0736(2) 0.5974(2)
N6 N 0.6197(3) -0.0252(3) 0.5844(2)
N7 N 0.7434(3) 0.1110(3) 0.5362(2)
O3 O 0.8299(3) -0.0013(2) 0.69157(18)
O4 O 0.6204(2) 0.05621(19) 0.67349(19)
C15 C 0.8509(4) -0.3623(4) 1.0554(3)
H5 H 0.5184 -0.2026 1.0419
H6 H 0.5831 -0.1357 1.0167
C16 C 0.4362(4) -0.0838(3) 0.9851(3)
C17 C 0.3482(4) -0.1044(4) 0.9641(3)
H7 H 0.3723 -0.0603 0.8529
H8 H 0.3068 -0.1271 0.8773
C18 C 0.3859(4) -0.1509(3) 0.6603(2)
H9 H 0.9139 -0.4528 0.9206
C19 C 0.9597(4) -0.4499(4) 1.0140(3)
C20 C 0.4622(4) -0.2385(3) 0.6029(3)
H10 H 0.5775 -0.3259 0.6625
N8 N 0.6935(3) -0.5511(2) 1.1086(2)
N9 N 0.5665(3) -0.6744(2) 1.2067(2)
O5 O 0.5111(3) -0.4879(2) 1.15692(18)
N10 N 0.5964(3) -0.6161(2) 1.0421(2)
O6 O 0.4154(2) -0.5515(2) 1.08304(18)
C21 C 0.9058(3) -0.1029(3) 0.6105(3)
C22 C 0.7672(4) -0.0879(3) 0.5395(3)
C23 C 0.6589(4) -0.0879(3) 0.5568(3)
C24 C 0.5276(3) 0.0031(3) 0.5811(3)
C25 C 0.9249(4) -0.0389(3) 0.6982(3)
C26 C 0.5256(4) 0.0786(3) 0.6574(3)
C27 C 0.9374(5) -0.4198(4) 1.0652(3)
H11 H 0.8348 -0.3404 1.0898
H12 H 0.4230 -0.0722 1.0279
H13 H 0.4485 -0.0340 0.9456
H14 H 0.2915 -0.0618 0.9596
H15 H 0.3373 -0.1561 1.0016
H16 H 0.3370 -0.1078 0.6601
C28 C 0.3917(4) -0.1712(3) 0.6003(3)
H17 H 1.0188 -0.4865 1.0196
H18 H 0.4649 -0.2540 0.5641
C29 C 0.7267(3) -0.5223(3) 1.1470(2)
C30 C 0.7530(3) -0.5857(3) 1.0604(3)
C31 C 0.6014(3) -0.7126(3) 1.2624(2)
C32 C 0.5689(4) -0.4684(3) 1.1942(3)
C33 C 0.7031(4) -0.6528(3) 1.0580(3)
C34 C 0.5451(4) -0.6293(3) 1.0009(3)
C35 C 0.3787(3) -0.5665(3) 1.0257(2)
C36 C 0.9634(4) -0.0868(3) 0.6625(2)
H19 H 0.9376 -0.1346 0.5870
H20 H 0.7995 -0.1403 0.5396
H21 H 0.7726 -0.0445 0.4918
H22 H 0.6216 -0.0767 0.5129
H23 H 0.6530 -0.1418 0.5932
H24 H 0.4898 -0.0094 0.5518
C37 C 0.4764(3) 0.0509(3) 0.6163(3)
C38 C 0.9846(4) -0.0290(3) 0.7454(3)
C39 C 0.4722(4) 0.1231(3) 0.6936(3)
Cl1 Cl 1.01863(10) -0.45399(9) 1.14206(8)
Cl2 Cl 0.31218(10) -0.10894(8) 0.52286(7)
C40 C 0.6694(4) -0.4811(3) 1.1904(3)
H25 H 0.7939 -0.5271 1.1487
H26 H 0.7540 -0.5429 1.0116
H27 H 0.8195 -0.6094 1.0804
Ru2 Ru 0.66184(2) -0.780336(17) 1.369797(16)
C41 C 0.5263(4) -0.4276(3) 1.2372(2)
H28 H 0.7139 -0.7006 1.1046
H29 H 0.7295 -0.6698 1.0202
C42 C 0.4373(4) -0.6059(3) 0.9882(3)
H30 H 0.5784 -0.6573 0.9747
C43 C 0.2759(4) -0.5401(3) 1.0117(3)
C44 C 1.0600(4) -0.1234(4) 0.6696(3)
C45 C 0.3758(4) 0.0701(3) 0.6091(3)
H31 H 0.9584 0.0020 0.7711
C46 C 1.0829(4) -0.0645(3) 0.7551(3)
C47 C 0.3697(4) 0.1461(4) 0.6872(3)
H32 H 0.5058 0.1381 0.7233
C48 C 0.7292(4) -0.4570(3) 1.2278(3)
C49 C 0.7221(4) -0.8481(3) 1.4781(2)
N11 N 0.6256(3) -0.6798(2) 1.3893(2)
N12 N 0.5219(3) -0.7951(2) 1.4040(2)
O7 O 0.7884(2) -0.7495(2) 1.32744(17)
O8 O 0.6935(2) -0.88932(18) 1.36299(18)
C50 C 0.5831(4) -0.4029(3) 1.2756(3)
H33 H 0.4589 -0.4169 1.2398
C51 C 0.3924(4) -0.6184(3) 0.9344(3)
C52 C 0.2360(4) -0.5557(3) 0.9578(3)
H34 H 0.2373 -0.5139 1.0373
C53 C 1.1238(5) -0.1095(4) 0.7162(3)
H35 H 1.0841 -0.1563 0.6451
H36 H 0.3431 0.0524 0.5809
C54 C 0.3223(4) 0.1173(4) 0.6451(3)
H37 H 1.1217 -0.0581 0.7880
H38 H 0.3353 0.1784 0.7095
C55 C 0.6845(5) -0.4180(4) 1.2714(3)
H39 H 0.7964 -0.4664 1.2239
C56 C 0.5159(3) -0.6602(3) 1.3983(2)
C57 C 0.6911(4) -0.6395(3) 1.3955(2)
C58 C 0.4807(3) -0.7396(3) 1.4375(3)
C59 C 0.4807(3) -0.8484(3) 1.3962(2)
C60 C 0.8362(3) -0.6974(3) 1.3402(2)
C61 C 0.6250(3) -0.9308(3) 1.3594(2)
H40 H 0.5539 -0.3763 1.3041
C62 C 0.2939(4) -0.5918(3) 0.9164(3)
H41 H 0.4305 -0.6459 0.9096
H42 H 0.1688 -0.5417 0.9488
H43 H 1.1905 -0.1302 0.7199
H44 H 0.2546 0.1294 0.6407
H45 H 0.7225 -0.4021 1.2978
C63 C 0.4881(4) -0.6022(3) 1.4373(3)
H46 H 0.4836 -0.6321 1.3493
C64 C 0.7936(3) -0.6508(3) 1.3793(2)
H47 H 0.6687 -0.5989 1.4124
C65 C 0.3645(4) -0.7224(3) 1.4388(3)
H48 H 0.5069 -0.7646 1.4883
C66 C 0.5238(3) -0.9104(3) 1.3699(3)
H49 H 0.4162 -0.8470 1.4089
C67 C 0.9289(3) -0.6908(3) 1.3140(2)
C68 C 0.6580(3) -0.9968(3) 1.3399(3)
H50 H 0.2665 -0.5975 0.8779
C69 C 0.3701(4) -0.5859(3) 1.4379(3)
H51 H 0.5098 -0.5510 1.4110
H52 H 0.5169 -0.6280 1.4868
C70 C 0.8468(3) -0.5991(3) 1.3893(3)
H53 H 0.3423 -0.7738 1.4620
C71 C 0.3352(4) -0.6694(3) 1.4829(3)
H54 H 0.3356 -0.6931 1.3894
C72 C 0.4600(3) -0.9595(3) 1.3638(3)
H55 H 0.9564 -0.7209 1.2878
C73 C 0.9793(3) -0.6418(3) 1.3260(3)
H56 H 0.7231 -1.0086 1.3300
C74 C 0.5971(4) -1.0446(3) 1.3352(3)
H57 H 0.3468 -0.5475 1.4597
H58 H 0.3427 -0.5617 1.3881
H59 H 0.8193 -0.5664 1.4131
C75 C 0.9413(4) -0.5955(3) 1.3642(3)
H60 H 0.2652 -0.6590 1.4874
H61 H 0.3668 -0.6971 1.5314
C76 C 0.4964(4) -1.0234(3) 1.3461(3)
H62 H 0.3941 -0.9476 1.3719
H63 H 1.0412 -0.6390 1.3083
H64 H 0.6212 -1.0900 1.3250
Cl3 Cl 1.01198(9) -0.53174(7) 1.37813(7)
Cl4 Cl 0.41877(9) -1.08595(8) 1.33961(7)
N7_2 N 0.7434(3) -0.8890(3) 1.5362(2)
Mn1_2 Mn 0.72272(5) -1.00686(4) 1.63984(3)
C77 C 0.6909(4) 1.0508(3) 0.0944(3)
C78 C 0.6400(4) 1.0321(3) 0.0483(3)
H65 H 0.6709 0.9946 0.0301
C79 C 0.5422(4) 1.0695(4) 0.0291(3)
H66 H 0.5093 1.0581 -0.0036
C80 C 0.4936(4) 1.1223(4) 0.0567(3)
H67 H 0.4279 1.1455 0.0440
C81 C 0.5460(4) 1.1426(3) 0.1073(3)
H68 H 0.5148 1.1795 0.1261
C82 C 0.6441(4) 1.1044(3) 0.1257(3)
C83 C 0.6953(4) 1.1339(3) 0.1658(3)
H69 H 0.6569 1.1703 0.1823
C84 C 0.8319(4) 1.1468(4) 0.2321(3)
H70 H 0.8500 1.1024 0.2801
H71 H 0.7862 1.1916 0.2372
C85 C 0.9252(4) 1.1772(3) 0.1921(3)
H72 H 0.9060 1.2277 0.1483
H73 H 0.9654 1.1874 0.2242
C86 C 1.0709(4) 1.0881(3) 0.1788(2)
H74 H 1.1030 1.1144 0.1992
C87 C 1.1333(4) 1.0264(3) 0.1576(3)
C88 C 1.2318(4) 1.0022(3) 0.1779(3)
H75 H 1.2592 1.0273 0.2021
C89 C 1.2884(4) 0.9418(4) 0.1625(3)
H76 H 1.3546 0.9269 0.1757
C90 C 1.2499(4) 0.9007(3) 0.1270(3)
H77 H 1.2899 0.8608 0.1153
C91 C 1.1480(4) 0.9224(4) 0.1097(3)
H78 H 1.1207 0.8953 0.0875
C92 C 1.0888(4) 0.9833(3) 0.1253(3)
C93 C 0.7862(3) 0.7377(3) 0.4515(2)
C94 C 0.6921(4) 0.7355(3) 0.4774(3)
H79 H 0.6555 0.7796 0.4853
C95 C 0.6563(3) 0.6679(3) 0.4906(3)
H80 H 0.5951 0.6658 0.5098
C96 C 0.7048(3) 0.6012(3) 0.4775(3)
C97 C 0.7987(4) 0.6038(3) 0.4503(3)
H81 H 0.8332 0.5605 0.4404
C98 C 0.8402(4) 0.6723(3) 0.4383(3)
C99 C 0.9387(4) 0.6690(3) 0.4062(3)
H82 H 0.9622 0.6235 0.3959
C100 C 1.0888(3) 0.7213(3) 0.3520(3)
H83 H 1.0757 0.7645 0.3022
C101 C 1.1344(4) 0.6409(3) 0.3468(3)
H84 H 1.0899 0.6270 0.3203
H85 H 1.1483 0.5967 0.3954
C102 C 1.2285(4) 0.6518(3) 0.3066(3)
H86 H 1.2122 0.6944 0.2575
H87 H 1.2568 0.6009 0.3022
C103 C 1.3101(4) 0.6755(3) 0.3438(3)
H88 H 1.3315 0.6323 0.3919
H89 H 1.3661 0.6836 0.3139
C104 C 1.2606(3) 0.7559(3) 0.3496(3)
H90 H 1.2455 0.7996 0.3009
H91 H 1.3050 0.7713 0.3749
C105 C 1.1627(3) 0.7456(3) 0.3927(3)
H92 H 1.1785 0.7022 0.4422
C106 C 1.1474(3) 0.8863(3) 0.3846(2)
H93 H 1.2105 0.8842 0.3685
C107 C 1.0972(3) 0.9612(3) 0.3941(2)
C108 C 1.1512(4) 1.0213(3) 0.3747(2)
H94 H 1.2102 1.0147 0.3532
C109 C 1.1181(3) 1.0931(3) 0.3872(3)
C110 C 1.0269(3) 1.1018(3) 0.4189(3)
H95 H 1.0024 1.1482 0.4276
C111 C 0.9746(3) 1.0397(3) 0.4367(3)
H96 H 0.9145 1.0461 0.4569
C112 C 1.0069(4) 0.9702(3) 0.4260(3)
C113 C 1.0448(4) 0.4731(3) 0.6372(3)
C114 C 1.0980(4) 0.4216(3) 0.6064(3)
H97 H 1.1654 0.4158 0.6054
C115 C 1.0550(4) 0.3811(3) 0.5790(3)
H98 H 1.0924 0.3472 0.5596
C116 C 0.9526(5) 0.3893(4) 0.5790(3)
H99 H 0.9233 0.3611 0.5590
C117 C 0.8962(4) 0.4384(3) 0.6083(3)
H100 H 0.8288 0.4443 0.6086
C118 C 0.9454(4) 0.4802(3) 0.6384(3)
C119 C 0.8802(3) 0.5295(3) 0.6690(3)
H101 H 0.8137 0.5335 0.6633
C120 C 0.8400(3) 0.6128(3) 0.7381(3)
H102 H 0.8328 0.5771 0.7888
H103 H 0.7769 0.6316 0.7121
C121 C 0.8822(3) 0.6869(3) 0.7331(3)
H104 H 0.8694 0.7304 0.6841
H105 H 0.8506 0.7082 0.7671
C122 C 1.0331(3) 0.6802(3) 0.7929(2)
H106 H 0.9963 0.7090 0.8172
C123 C 1.1404(4) 0.6597(3) 0.8066(2)
C124 C 1.1777(4) 0.6765(3) 0.8611(3)
H107 H 1.1351 0.6967 0.8891
C125 C 1.2778(4) 0.6635(3) 0.8739(3)
H108 H 1.3014 0.6780 0.9084
C126 C 1.3421(4) 0.6295(3) 0.8360(3)
H109 H 1.4088 0.6206 0.8453
C127 C 1.3079(4) 0.6085(3) 0.7839(3)
H110 H 1.3515 0.5848 0.7588
C128 C 1.2067(4) 0.6232(3) 0.7691(2)
C129 C 0.7630(3) 0.4216(3) 0.8534(3)
C130 C 0.6769(3) 0.4815(3) 0.8466(3)
H111 H 0.6703 0.5108 0.8755
C131 C 0.6037(3) 0.4952(3) 0.7969(3)
H112 H 0.5466 0.5333 0.7931
C132 C 0.6132(4) 0.4540(3) 0.7526(3)
C133 C 0.6952(4) 0.3955(3) 0.7583(3)
H113 H 0.7002 0.3675 0.7283
C134 C 0.7703(3) 0.3781(3) 0.8085(2)
C135 C 0.8615(3) 0.3225(3) 0.8034(2)
H114 H 0.8614 0.3017 0.7683
C136 C 1.0344(4) 0.2531(4) 0.8264(3)
H115 H 1.0765 0.2921 0.8014
C137 C 1.0199(4) 0.2074(3) 0.7772(3)
H116 H 0.9823 0.1654 0.8016
H117 H 0.9864 0.2460 0.7308
C138 C 1.1257(4) 0.1676(4) 0.7651(3)
H118 H 1.1648 0.2093 0.7455
H119 H 1.1232 0.1434 0.7305
C139 C 1.1720(5) 0.0992(4) 0.8410(3)
H120 H 1.2342 0.0690 0.8343
H121 H 1.1294 0.0607 0.8630
C140 C 1.1870(5) 0.1448(4) 0.8938(3)
H122 H 1.2148 0.1044 0.9415
H123 H 1.2306 0.1826 0.8723
C141 C 1.0841(4) 0.1927(3) 0.9011(3)
H124 H 1.0434 0.1520 0.9244
C142 C 1.1535(4) 0.2254(3) 0.9951(2)
H125 H 1.2104 0.1890 0.9947
C143 C 1.1510(3) 0.2604(3) 1.0494(3)
C144 C 1.2376(4) 0.2378(4) 1.0927(3)
H126 H 1.2930 0.2075 1.0821
C145 C 1.2421(4) 0.2588(3) 1.1493(3)
C146 C 1.1583(3) 0.3075(3) 1.1636(3)
H127 H 1.1610 0.3235 1.2017
C147 C 1.0721(3) 0.3316(3) 1.1212(2)
H128 H 1.0175 0.3625 1.1320
C148 C 1.0662(3) 0.3101(3) 1.0629(3)
C149 C 0.9298(3) 0.9017(3) 0.3139(2)
C150 C 0.9993(4) 0.7350(3) 0.5314(3)
C151 C 1.0320(4) 0.4202(3) 0.8665(3)
C152 C 0.8853(3) 0.2302(3) 0.9917(2)
Cl5 Cl 0.65186(9) 0.51435(7) 0.49444(7)
Cl6 Cl 1.19037(9) 1.16753(7) 0.36644(7)
Cl7 Cl 0.51544(9) 0.47968(8) 0.68663(7)
Cl8 Cl 1.35096(9) 0.23261(8) 1.20121(7)
Mn3 Mn 0.88664(5) 1.05528(4) 0.14048(3)
Mn4 Mn 1.04947(5) 0.58374(4) 0.70629(3)
N13 N 0.7889(3) 1.1175(2) 0.1830(2)
N14 N 0.9805(3) 1.1092(2) 0.1725(2)
N15 N 0.9950(3) 0.7213(2) 0.3910(2)
N16 N 1.1082(3) 0.8245(2) 0.3974(2)
N17 N 0.9088(3) 0.5698(3) 0.7050(2)
N18 N 0.9872(3) 0.6616(2) 0.7506(2)
N19 N 0.9409(3) 0.3006(2) 0.8436(2)
N20 N 1.0846(3) 0.2402(3) 0.9480(2)
N21 N 0.9131(3) 0.9474(2) 0.2544(2)
N22 N 1.0189(3) 0.6909(3) 0.5902(2)
N23 N 1.0588(3) 0.4762(2) 0.8231(2)
N24 N 0.8565(3) 0.1710(3) 1.0305(2)
O9 O 0.7883(3) 1.0144(2) 0.11163(18)
O10 O 0.9942(3) 1.0020(2) 0.10441(19)
O11 O 0.8201(2) 0.8066(2) 0.43700(19)
O12 O 0.9505(3) 0.91132(19) 0.45138(18)
O13 O 1.0983(3) 0.5063(2) 0.6631(2)
O14 O 1.1771(2) 0.6018(2) 0.71823(19)
O15 O 0.8315(2) 0.41203(18) 0.90203(17)
O16 O 0.9813(2) 0.3335(2) 1.02459(18)
Ru3 Ru 0.96421(2) 0.817969(18) 0.420610(17)
Ru4 Ru 0.95772(2) 0.324623(18) 0.929771(17)
Mn3_2 Mn 0.88664(5) 0.05528(4) 1.14048(3)
N24_2 N 0.8565(3) 1.1710(3) 0.0305(2)
loop_
_geom_bond_atom_site_label_1
_geom_bond_atom_site_label_2
_geom_bond_site_symmetry_1
_geom_bond_site_symmetry_2
Ru1 C1 1_555 1_555
C1 N3 1_555 1_555
N1 Ru1 1_555 1_555
N2 Ru1 1_555 1_555
O1 Ru1 1_555 1_555
O2 Ru1 1_555 1_555
C2 Ru1 1_555 1_555
N3 Mn1 1_555 1_555
C3 N1 1_555 1_555
C4 N1 1_555 1_555
C5 N2 1_555 1_555
C6 N2 1_555 1_555
C7 O1 1_555 1_555
C8 O2 1_555 1_555
N4 C2 1_555 1_555
Mn1 N5 1_555 1_555
C9 C3 1_555 1_555
H1 C3 1_555 1_555
H2 C4 1_555 1_555
C10 C4 1_555 1_555
C11 C5 1_555 1_555
H3 C5 1_555 1_555
H4 C6 1_555 1_555
C12 C6 1_555 1_555
C13 C7 1_555 1_555
C14 C8 1_555 1_555
Mn2 N4 1_555 1_555
N5 C21 1_555 1_555
N6 Mn1 1_555 1_555
N7 Mn1 1_555 1_555
O3 Mn1 1_555 1_555
O4 Mn1 1_555 1_555
C15 C9 1_555 1_555
H5 C10 1_555 1_555
H6 C10 1_555 1_555
C16 C10 1_555 1_555
C17 C11 1_555 1_555
H7 C11 1_555 1_555
H8 C11 1_555 1_555
C18 C12 1_555 1_555
H9 C13 1_555 1_555
C19 C13 1_555 1_555
C20 C14 1_555 1_555
H10 C14 1_555 1_555
N8 Mn2 1_555 1_555
N9 Mn2 1_555 1_555
O5 Mn2 1_555 1_555
N10 Mn2 1_555 1_555
O6 Mn2 1_555 1_555
C21 C36 1_555 1_555
C22 N5 1_555 1_555
C23 N6 1_555 1_555
C24 N6 1_555 1_555
C25 O3 1_555 1_555
C26 O4 1_555 1_555
C27 C15 1_555 1_555
H11 C15 1_555 1_555
H12 C16 1_555 1_555
H13 C16 1_555 1_555
H14 C17 1_555 1_555
H15 C17 1_555 1_555
H16 C18 1_555 1_555
C28 C18 1_555 1_555
H17 C19 1_555 1_555
H18 C20 1_555 1_555
C29 N8 1_555 1_555
C30 N8 1_555 1_555
C31 N9 1_555 1_555
C32 O5 1_555 1_555
C33 N10 1_555 1_555
C34 N10 1_555 1_555
C35 O6 1_555 1_555
C36 C25 1_555 1_555
H19 C21 1_555 1_555
H20 C22 1_555 1_555
H21 C22 1_555 1_555
H22 C23 1_555 1_555
H23 C23 1_555 1_555
H24 C24 1_555 1_555
C37 C24 1_555 1_555
C38 C25 1_555 1_555
C39 C26 1_555 1_555
Cl1 C27 1_555 1_555
Cl2 C28 1_555 1_555
C40 C29 1_555 1_555
H25 C29 1_555 1_555
H26 C30 1_555 1_555
H27 C30 1_555 1_555
Ru2 C31 1_555 1_555
C41 C32 1_555 1_555
H28 C33 1_555 1_555
H29 C33 1_555 1_555
C42 C34 1_555 1_555
H30 C34 1_555 1_555
C43 C35 1_555 1_555
C44 C36 1_555 1_555
C45 C37 1_555 1_555
H31 C38 1_555 1_555
C46 C38 1_555 1_555
C47 C39 1_555 1_555
H32 C39 1_555 1_555
C48 C40 1_555 1_555
C49 Ru2 1_555 1_555
N11 Ru2 1_555 1_555
N12 Ru2 1_555 1_555
O7 Ru2 1_555 1_555
O8 Ru2 1_555 1_555
C50 C41 1_555 1_555
H33 C41 1_555 1_555
C51 C42 1_555 1_555
C52 C43 1_555 1_555
H34 C43 1_555 1_555
C53 C44 1_555 1_555
H35 C44 1_555 1_555
H36 C45 1_555 1_555
C54 C45 1_555 1_555
H37 C46 1_555 1_555
H38 C47 1_555 1_555
C55 C48 1_555 1_555
H39 C48 1_555 1_555
C56 N11 1_555 1_555
C57 N11 1_555 1_555
C58 N12 1_555 1_555
C59 N12 1_555 1_555
C60 O7 1_555 1_555
C61 O8 1_555 1_555
H40 C50 1_555 1_555
C62 C51 1_555 1_555
H41 C51 1_555 1_555
H42 C52 1_555 1_555
H43 C53 1_555 1_555
H44 C54 1_555 1_555
H45 C55 1_555 1_555
C63 C56 1_555 1_555
H46 C56 1_555 1_555
C64 C57 1_555 1_555
H47 C57 1_555 1_555
C65 C58 1_555 1_555
H48 C58 1_555 1_555
C66 C59 1_555 1_555
H49 C59 1_555 1_555
C67 C60 1_555 1_555
C68 C61 1_555 1_555
H50 C62 1_555 1_555
C69 C63 1_555 1_555
H51 C63 1_555 1_555
H52 C63 1_555 1_555
C70 C64 1_555 1_555
H53 C65 1_555 1_555
C71 C65 1_555 1_555
H54 C65 1_555 1_555
C72 C66 1_555 1_555
H55 C67 1_555 1_555
C73 C67 1_555 1_555
H56 C68 1_555 1_555
C74 C68 1_555 1_555
H57 C69 1_555 1_555
H58 C69 1_555 1_555
H59 C70 1_555 1_555
C75 C70 1_555 1_555
H60 C71 1_555 1_555
H61 C71 1_555 1_555
C76 C72 1_555 1_555
H62 C72 1_555 1_555
H63 C73 1_555 1_555
H64 C74 1_555 1_555
Cl3 C75 1_555 1_555
Cl4 C76 1_555 1_555
C77 C78 1_555 1_555
C78 H65 1_555 1_555
C79 C78 1_555 1_555
H66 C79 1_555 1_555
C80 C79 1_555 1_555
H67 C80 1_555 1_555
C81 C80 1_555 1_555
H68 C81 1_555 1_555
C82 C77 1_555 1_555
C83 C82 1_555 1_555
H69 C83 1_555 1_555
C84 H70 1_555 1_555
H71 C84 1_555 1_555
C85 C84 1_555 1_555
H72 C85 1_555 1_555
H73 C85 1_555 1_555
C86 H74 1_555 1_555
C87 C86 1_555 1_555
C88 C87 1_555 1_555
H75 C88 1_555 1_555
C89 C88 1_555 1_555
H76 C89 1_555 1_555
C90 C89 1_555 1_555
H77 C90 1_555 1_555
C91 C90 1_555 1_555
H78 C91 1_555 1_555
C92 C87 1_555 1_555
C93 C94 1_555 1_555
C94 H79 1_555 1_555
C95 C94 1_555 1_555
H80 C95 1_555 1_555
C96 C95 1_555 1_555
C97 C96 1_555 1_555
H81 C97 1_555 1_555
C98 C93 1_555 1_555
C99 C98 1_555 1_555
H82 C99 1_555 1_555
C100 H83 1_555 1_555
C101 C100 1_555 1_555
H84 C101 1_555 1_555
H85 C101 1_555 1_555
C102 C101 1_555 1_555
H86 C102 1_555 1_555
H87 C102 1_555 1_555
C103 C102 1_555 1_555
H88 C103 1_555 1_555
H89 C103 1_555 1_555
C104 C103 1_555 1_555
H90 C104 1_555 1_555
H91 C104 1_555 1_555
C105 C100 1_555 1_555
H92 C105 1_555 1_555
C106 H93 1_555 1_555
C107 C106 1_555 1_555
C108 C107 1_555 1_555
H94 C108 1_555 1_555
C109 C108 1_555 1_555
C110 C109 1_555 1_555
H95 C110 1_555 1_555
C111 C110 1_555 1_555
H96 C111 1_555 1_555
C112 C107 1_555 1_555
C113 C114 1_555 1_555
C114 H97 1_555 1_555
C115 C114 1_555 1_555
H98 C115 1_555 1_555
C116 C115 1_555 1_555
H99 C116 1_555 1_555
C117 C116 1_555 1_555
H100 C117 1_555 1_555
C118 C113 1_555 1_555
C119 C118 1_555 1_555
H101 C119 1_555 1_555
C120 H102 1_555 1_555
H103 C120 1_555 1_555
C121 C120 1_555 1_555
H104 C121 1_555 1_555
H105 C121 1_555 1_555
C122 H106 1_555 1_555
C123 C122 1_555 1_555
C124 C123 1_555 1_555
H107 C124 1_555 1_555
C125 C124 1_555 1_555
H108 C125 1_555 1_555
C126 C125 1_555 1_555
H109 C126 1_555 1_555
C127 C126 1_555 1_555
H110 C127 1_555 1_555
C128 C123 1_555 1_555
C129 C130 1_555 1_555
C130 H111 1_555 1_555
C131 C130 1_555 1_555
H112 C131 1_555 1_555
C132 C131 1_555 1_555
C133 C132 1_555 1_555
H113 C133 1_555 1_555
C134 C129 1_555 1_555
C135 C134 1_555 1_555
H114 C135 1_555 1_555
C136 H115 1_555 1_555
C137 C136 1_555 1_555
H116 C137 1_555 1_555
H117 C137 1_555 1_555
C138 C137 1_555 1_555
H118 C138 1_555 1_555
H119 C138 1_555 1_555
C139 C138 1_555 1_555
H120 C139 1_555 1_555
H121 C139 1_555 1_555
C140 C139 1_555 1_555
H122 C140 1_555 1_555
H123 C140 1_555 1_555
C141 C136 1_555 1_555
H124 C141 1_555 1_555
C142 H125 1_555 1_555
C143 C142 1_555 1_555
C144 C143 1_555 1_555
H126 C144 1_555 1_555
C145 C144 1_555 1_555
C146 C145 1_555 1_555
H127 C146 1_555 1_555
C147 C146 1_555 1_555
H128 C147 1_555 1_555
C148 C143 1_555 1_555
C149 N21 1_555 1_555
C150 N22 1_555 1_555
C151 N23 1_555 1_555
C152 N24 1_555 1_555
Cl5 C96 1_555 1_555
Cl6 C109 1_555 1_555
Cl7 C132 1_555 1_555
Cl8 C145 1_555 1_555
Mn3 N13 1_555 1_555
Mn4 N17 1_555 1_555
N13 C83 1_555 1_555
N14 C85 1_555 1_555
N15 C99 1_555 1_555
N16 C105 1_555 1_555
N17 C119 1_555 1_555
N18 C121 1_555 1_555
N19 C135 1_555 1_555
N20 C141 1_555 1_555
N21 Mn3 1_555 1_555
N22 Mn4 1_555 1_555
N23 Mn4 1_555 1_555
N24 Mn3_2 1_555 1_555
O9 C77 1_555 1_555
O10 C92 1_555 1_555
O11 C93 1_555 1_555
O12 C112 1_555 1_555
O13 C113 1_555 1_555
O14 C128 1_555 1_555
O15 C129 1_555 1_555
O16 C148 1_555 1_555
Ru3 C149 1_555 1_555
Ru4 C151 1_555 1_555
N7_2 C49 1_555 1_555
Mn1_2 N7_2 1_555 1_555
N24_2 Mn3 1_555 1_555
C4 C5 1_555 1_555
C7 C9 1_555 1_555
C8 C12 1_555 1_555
C16 C17 1_555 1_555
C19 C27 1_555 1_555
C20 C28 1_555 1_555
C22 C23 1_555 1_555
C26 C37 1_555 1_555
C30 C33 1_555 1_555
C32 C40 1_555 1_555
C35 C42 1_555 1_555
C46 C53 1_555 1_555
C47 C54 1_555 1_555
C50 C55 1_555 1_555
C52 C62 1_555 1_555
C56 C58 1_555 1_555
C60 C64 1_555 1_555
C61 C66 1_555 1_555
C69 C71 1_555 1_555
C73 C75 1_555 1_555
C74 C76 1_555 1_555
C81 C82 1_555 1_555
C84 N13 1_555 1_555
C86 N14 1_555 1_555
C91 C92 1_555 1_555
C97 C98 1_555 1_555
C100 N15 1_555 1_555
C104 C105 1_555 1_555
C106 N16 1_555 1_555
C111 C112 1_555 1_555
C117 C118 1_555 1_555
C120 N17 1_555 1_555
C122 N18 1_555 1_555
C127 C128 1_555 1_555
C133 C134 1_555 1_555
C136 N19 1_555 1_555
C140 C141 1_555 1_555
C142 N20 1_555 1_555
C147 C148 1_555 1_555
C150 Ru3 1_555 1_555
C152 Ru4 1_555 1_555
Mn3 N14 1_555 1_555
Mn3 O9 1_555 1_555
Mn3 O10 1_555 1_555
Mn4 N18 1_555 1_555
Mn4 O13 1_555 1_555
Mn4 O14 1_555 1_555
N15 Ru3 1_555 1_555
N16 Ru3 1_555 1_555
N19 Ru4 1_555 1_555
N20 Ru4 1_555 1_555
O11 Ru3 1_555 1_555
O12 Ru3 1_555 1_555
O15 Ru4 1_555 1_555
O16 Ru4 1_555 1_555

#END
