
#######################################################################
#
#                 Cambridge Crystallographic Data Centre
#                                CCDC 
#
#######################################################################
#
# If this CIF has been generated from an entry in the Cambridge 
# Structural Database, then it will include bibliographic, chemical, 
# crystal, experimental, refinement or atomic coordinate data resulting 
# from the CCDC's data processing and validation procedures.
#
#######################################################################

data_HISYIS01
_symmetry_cell_setting           triclinic
_symmetry_space_group_name_H-M   'P -1'
_symmetry_Int_Tables_number      2
_space_group_name_Hall           '-P 1'
loop_
_symmetry_equiv_pos_site_id
_symmetry_equiv_pos_as_xyz
1 x,y,z
2 -x,-y,-z
_cell_length_a                   8.3039(15)
_cell_length_b                   10.9503(18)
_cell_length_c                   12.311(2)
_cell_angle_alpha                79.38(2)
_cell_angle_beta                 83.69(3)
_cell_angle_gamma                73.65(4)
_cell_volume                     1053.77
loop_
_atom_site_label
_atom_site_type_symbol
_atom_site_fract_x
_atom_site_fract_y
_atom_site_fract_z
Fe1 Fe 0.0000 0.0000 1.0000
N1 N 0.1380(3) 0.1251(3) 0.9910(2)
N2 N 0.2981(4) 0.1071(3) 0.9443(2)
N3 N 0.3661(4) 0.1914(3) 0.9675(2)
N4 N 0.2470(3) 0.2666(3) 1.0301(2)
N5 N 0.5757(3) 0.2582(3) 1.1084(2)
N6 N 0.6252(3) 0.3299(3) 1.0161(2)
N7 N 0.7610(3) 0.2575(3) 0.9740(2)
N8 N 0.8000(3) 0.1380(3) 1.0386(2)
N9 N -0.6279(4) 0.1090(3) 0.6711(3)
N10 N -0.6261(4) 0.1330(3) 0.5582(3)
N11 N -0.5283(4) 0.2065(4) 0.5173(3)
N12 N -0.4641(4) 0.2314(3) 0.6049(3)
N13 N -0.1123(4) 0.1537(3) 0.6760(2)
N14 N -0.1260(4) 0.0309(3) 0.6838(3)
N15 N -0.0834(4) -0.0274(3) 0.7802(3)
N16 N -0.0436(3) 0.0535(3) 0.8391(2)
C1 C 0.1094(4) 0.2251(3) 1.0431(3)
H1 H 0.0078 0.2612 1.0831
C2 C 0.2819(4) 0.3672(3) 1.0803(3)
H2 H 0.1761 0.4166 1.1148
H3 H 0.3242 0.4276 1.0217
C3 C 0.4121(4) 0.3107(3) 1.1684(3)
C4 C 0.4262(5) 0.4206(4) 1.2243(3)
H4 H 0.5132 0.3874 1.2780
H5 H 0.3181 0.4569 1.2625
H6 H 0.4563 0.4879 1.1682
C5 C 0.3690(4) 0.2018(3) 1.2526(3)
H7 H 0.3712 0.1298 1.2150
H8 H 0.2565 0.2330 1.2875
H9 H 0.4516 0.1726 1.3093
C6 C 0.6832(4) 0.1413(3) 1.1212(3)
H10 H 0.6772 0.0723 1.1795
C7 C -0.5270(5) 0.1729(4) 0.6964(3)
H11 H -0.5034 0.1761 0.7694
C8 C -0.3532(5) 0.3173(3) 0.5901(3)
H12 H -0.3715 0.3613 0.6556
H13 H -0.3865 0.3844 0.5248
C9 C -0.1657(5) 0.2512(3) 0.5746(3)
C10 C -0.1224(5) 0.1813(4) 0.4745(3)
H14 H -0.0013 0.1399 0.4693
H15 H -0.1537 0.2435 0.4070
H16 H -0.1843 0.1157 0.4829
C11 C -0.0690(5) 0.3530(3) 0.5660(3)
H17 H -0.0969 0.3946 0.6321
H18 H -0.1001 0.4178 0.5001
H19 H 0.0521 0.3116 0.5603
C12 C -0.0624(4) 0.1647(3) 0.7711(3)
H20 H -0.0431 0.2404 0.7881
Fe1_2 Fe 1.0000 0.0000 1.0000
Fe1_3 Fe -1.0000 0.0000 1.0000
N1A N -0.1380(3) -0.1251(3) 1.0090(2)
N2A N -0.2981(4) -0.1071(3) 1.0557(2)
N3A N -0.3661(4) -0.1914(3) 1.0325(2)
N4A N -0.2470(3) -0.2666(3) 0.9699(2)
N5A N -0.5757(3) -0.2582(3) 0.8916(2)
N6A N -0.6252(3) -0.3299(3) 0.9839(2)
N7A N -0.7610(3) -0.2575(3) 1.0260(2)
N8A N -0.8000(3) -0.1380(3) 0.9614(2)
N8_2 N -0.2000(3) 0.1380(3) 1.0386(2)
N8A_2 N 0.2000(3) -0.1380(3) 0.9614(2)
N9A N 0.6279(4) -0.1090(3) 1.3289(3)
N10A N 0.6261(4) -0.1330(3) 1.4418(3)
N11A N 0.5283(4) -0.2065(4) 1.4827(3)
N12A N 0.4641(4) -0.2314(3) 1.3951(3)
N13A N 0.1123(4) -0.1537(3) 1.3240(2)
N14A N 0.1260(4) -0.0309(3) 1.3162(3)
N15A N 0.0834(4) 0.0274(3) 1.2198(3)
N16A N 0.0436(3) -0.0535(3) 1.1609(2)
C1A C -0.1094(4) -0.2251(3) 0.9569(3)
H1A H -0.0078 -0.2612 0.9169
C2A C -0.2819(4) -0.3672(3) 0.9197(3)
H2A H -0.1761 -0.4166 0.8852
H3A H -0.3242 -0.4276 0.9783
C3A C -0.4121(4) -0.3107(3) 0.8316(3)
C4A C -0.4262(5) -0.4206(4) 0.7757(3)
H4A H -0.5132 -0.3874 0.7220
H5A H -0.3181 -0.4569 0.7375
H6A H -0.4563 -0.4879 0.8318
C5A C -0.3690(4) -0.2018(3) 0.7474(3)
H7A H -0.3712 -0.1298 0.7850
H8A H -0.2565 -0.2330 0.7125
H9A H -0.4516 -0.1726 0.6907
C6A C -0.6832(4) -0.1413(3) 0.8788(3)
H10A H -0.6772 -0.0723 0.8205
C7A C 0.5270(5) -0.1729(4) 1.3036(3)
H11A H 0.5034 -0.1761 1.2306
C8A C 0.3532(5) -0.3173(3) 1.4099(3)
H12A H 0.3715 -0.3613 1.3444
H13A H 0.3865 -0.3844 1.4752
C9A C 0.1657(5) -0.2512(3) 1.4254(3)
C10A C 0.1224(5) -0.1813(4) 1.5255(3)
H14A H 0.0013 -0.1399 1.5307
H15A H 0.1537 -0.2435 1.5930
H16A H 0.1843 -0.1157 1.5171
C11A C 0.0690(5) -0.3530(3) 1.4340(3)
H17A H 0.0969 -0.3946 1.3679
H18A H 0.1001 -0.4178 1.4999
H19A H -0.0521 -0.3116 1.4397
C12A C 0.0624(4) -0.1647(3) 1.2289(3)
H20A H 0.0431 -0.2404 1.2119
Cl1 Cl 0.85465(11) 0.50238(8) 0.24164(7)
O1 O 0.7164(3) 0.5210(3) 0.3231(2)
O2 O 0.8168(3) 0.4427(2) 0.1557(2)
O3 O 0.8846(4) 0.6244(3) 0.1933(2)
O4 O 1.0031(3) 0.4202(2) 0.2936(2)
loop_
_geom_bond_atom_site_label_1
_geom_bond_atom_site_label_2
_geom_bond_site_symmetry_1
_geom_bond_site_symmetry_2
Fe1 N1 1_555 1_555
N1 N2 1_555 1_555
N2 N3 1_555 1_555
N3 N4 1_555 1_555
N4 C1 1_555 1_555
N5 N6 1_555 1_555
N6 N7 1_555 1_555
N7 N8 1_555 1_555
N8 C6 1_555 1_555
N9 N10 1_555 1_555
N10 N11 1_555 1_555
N11 N12 1_555 1_555
N12 C7 1_555 1_555
N13 N14 1_555 1_555
N14 N15 1_555 1_555
N15 N16 1_555 1_555
N16 Fe1 1_555 1_555
C1 N1 1_555 1_555
H1 C1 1_555 1_555
C2 N4 1_555 1_555
H2 C2 1_555 1_555
H3 C2 1_555 1_555
C3 N5 1_555 1_555
C4 C3 1_555 1_555
H4 C4 1_555 1_555
H5 C4 1_555 1_555
H6 C4 1_555 1_555
C5 C3 1_555 1_555
H7 C5 1_555 1_555
H8 C5 1_555 1_555
H9 C5 1_555 1_555
C6 N5 1_555 1_555
H10 C6 1_555 1_555
C7 N9 1_555 1_555
H11 C7 1_555 1_555
C8 N12 1_555 1_555
H12 C8 1_555 1_555
H13 C8 1_555 1_555
C9 N13 1_555 1_555
C10 C9 1_555 1_555
H14 C10 1_555 1_555
H15 C10 1_555 1_555
H16 C10 1_555 1_555
C11 C9 1_555 1_555
H17 C11 1_555 1_555
H18 C11 1_555 1_555
H19 C11 1_555 1_555
C12 N13 1_555 1_555
H20 C12 1_555 1_555
Cl1 O1 1_555 1_555
O2 Cl1 1_555 1_555
O3 Cl1 1_555 1_555
O4 Cl1 1_555 1_555
Fe1_2 N8 1_555 1_555
Fe1_3 N8A 1_555 1_555
N1A Fe1 1_555 1_555
N2A N1A 1_555 1_555
N3A N2A 1_555 1_555
N4A N3A 1_555 1_555
N5A N6A 1_555 1_555
N6A N7A 1_555 1_555
N7A N8A 1_555 1_555
N8A C6A 1_555 1_555
N8_2 Fe1 1_555 1_555
N8A_2 Fe1 1_555 1_555
N9A N10A 1_555 1_555
N10A N11A 1_555 1_555
N11A N12A 1_555 1_555
N12A C7A 1_555 1_555
N13A N14A 1_555 1_555
N14A N15A 1_555 1_555
N15A N16A 1_555 1_555
N16A Fe1 1_555 1_555
C1A N1A 1_555 1_555
H1A C1A 1_555 1_555
C2A N4A 1_555 1_555
H2A C2A 1_555 1_555
H3A C2A 1_555 1_555
C3A N5A 1_555 1_555
C4A C3A 1_555 1_555
H4A C4A 1_555 1_555
H5A C4A 1_555 1_555
H6A C4A 1_555 1_555
C5A C3A 1_555 1_555
H7A C5A 1_555 1_555
H8A C5A 1_555 1_555
H9A C5A 1_555 1_555
C6A N5A 1_555 1_555
H10A C6A 1_555 1_555
C7A N9A 1_555 1_555
H11A C7A 1_555 1_555
C8A N12A 1_555 1_555
H12A C8A 1_555 1_555
H13A C8A 1_555 1_555
C9A N13A 1_555 1_555
C10A C9A 1_555 1_555
H14A C10A 1_555 1_555
H15A C10A 1_555 1_555
H16A C10A 1_555 1_555
C11A C9A 1_555 1_555
H17A C11A 1_555 1_555
H18A C11A 1_555 1_555
H19A C11A 1_555 1_555
C12A N13A 1_555 1_555
H20A C12A 1_555 1_555
N16 C12 1_555 1_555
C2 C3 1_555 1_555
C8 C9 1_555 1_555
N4A C1A 1_555 1_555
N16A C12A 1_555 1_555
C2A C3A 1_555 1_555
C8A C9A 1_555 1_555

#END
