
#######################################################################
#
#                 Cambridge Crystallographic Data Centre
#                                CCDC 
#
#######################################################################
#
# If this CIF has been generated from an entry in the Cambridge 
# Structural Database, then it will include bibliographic, chemical, 
# crystal, experimental, refinement or atomic coordinate data resulting 
# from the CCDC's data processing and validation procedures.
#
#######################################################################

data_HISYIS
_symmetry_cell_setting           triclinic
_symmetry_space_group_name_H-M   'P -1'
_symmetry_Int_Tables_number      2
_space_group_name_Hall           '-P 1'
loop_
_symmetry_equiv_pos_site_id
_symmetry_equiv_pos_as_xyz
1 x,y,z
2 -x,-y,-z
_cell_length_a                   8.5157(15)
_cell_length_b                   11.1223(18)
_cell_length_c                   12.432(2)
_cell_angle_alpha                79.24(2)
_cell_angle_beta                 78.96(2)
_cell_angle_gamma                74.62(4)
_cell_volume                     1102.76
loop_
_atom_site_label
_atom_site_type_symbol
_atom_site_fract_x
_atom_site_fract_y
_atom_site_fract_z
Fe1 Fe 0.0000 0.0000 1.0000
N1 N 0.1495(4) 0.1352(3) 0.9875(3)
N2 N 0.3165(4) 0.1070(3) 0.9529(3)
N3 N 0.3803(4) 0.1861(4) 0.9827(3)
N4 N 0.2556(4) 0.2663(3) 1.0383(3)
N5 N 0.5621(4) 0.2659(3) 1.1189(3)
N6 N 0.6268(4) 0.3344(3) 1.0283(3)
N7 N 0.7631(4) 0.2629(3) 0.9880(3)
N8 N 0.7886(4) 0.1471(3) 1.0513(3)
N9 N -0.6139(5) 0.1058(4) 0.6699(4)
N10 N -0.6119(6) 0.1391(5) 0.5594(4)
N11 N -0.5155(6) 0.2146(5) 0.5186(4)
N12 N -0.4516(4) 0.2317(4) 0.6047(3)
N13 N -0.1123(4) 0.1559(3) 0.6692(3)
N14 N -0.1398(5) 0.0396(4) 0.6821(3)
N15 N -0.0978(5) -0.0184(4) 0.7764(3)
N16 N -0.0445(4) 0.0593(3) 0.8267(3)
C1 C 0.1172(5) 0.2327(4) 1.0392(3)
H1 H 0.0110 0.2733 1.0724
C2 C 0.2810(5) 0.3677(4) 1.0876(4)
H2 H 0.1729 0.4159 1.1207
H3 H 0.3300 0.4259 1.0286
C3 C 0.3932(5) 0.3201(4) 1.1768(3)
C4 C 0.4009(5) 0.4313(5) 1.2289(4)
H4 H 0.4751 0.4020 1.2847
H5 H 0.2905 0.4701 1.2641
H6 H 0.4423 0.4935 1.1714
C5 C 0.3383(5) 0.2173(5) 1.2635(4)
H7 H 0.3446 0.1441 1.2282
H8 H 0.2246 0.2492 1.2977
H9 H 0.4105 0.1925 1.3205
C6 C 0.6614(5) 0.1513(4) 1.1320(4)
H10 H 0.6442 0.0843 1.1892
C7 C -0.5141(6) 0.1659(5) 0.6948(4)
H11 H -0.4905 0.1624 0.7671
C8 C -0.3401(5) 0.3145(4) 0.5904(4)
H12 H -0.3612 0.3554 0.6577
H13 H -0.3662 0.3818 0.5275
C9 C -0.1546(5) 0.2492(4) 0.5690(3)
C10 C -0.1120(6) 0.1788(5) 0.4693(4)
H14 H 0.0048 0.1348 0.4613
H15 H -0.1338 0.2389 0.4023
H16 H -0.1796 0.1174 0.4800
C11 C -0.0561(6) 0.3484(4) 0.5548(4)
H17 H -0.0861 0.3917 0.6202
H18 H -0.0805 0.4097 0.4889
H19 H 0.0618 0.3077 0.5461
C12 C -0.0544(5) 0.1660(4) 0.7583(4)
H20 H -0.0250 0.2384 0.7707
Fe1_2 Fe 1.0000 0.0000 1.0000
Fe1_3 Fe -1.0000 0.0000 1.0000
N1A N -0.1495(4) -0.1352(3) 1.0125(3)
N2A N -0.3165(4) -0.1070(3) 1.0471(3)
N3A N -0.3803(4) -0.1861(4) 1.0173(3)
N4A N -0.2556(4) -0.2663(3) 0.9617(3)
N5A N -0.5621(4) -0.2659(3) 0.8811(3)
N6A N -0.6268(4) -0.3344(3) 0.9717(3)
N7A N -0.7631(4) -0.2629(3) 1.0120(3)
N8A N -0.7886(4) -0.1471(3) 0.9487(3)
N8_2 N -0.2114(4) 0.1471(3) 1.0513(3)
N8A_2 N 0.2114(4) -0.1471(3) 0.9487(3)
N9A N 0.6139(5) -0.1058(4) 1.3301(4)
N10A N 0.6119(6) -0.1391(5) 1.4406(4)
N11A N 0.5155(6) -0.2146(5) 1.4814(4)
N12A N 0.4516(4) -0.2317(4) 1.3953(3)
N13A N 0.1123(4) -0.1559(3) 1.3308(3)
N14A N 0.1398(5) -0.0396(4) 1.3179(3)
N15A N 0.0978(5) 0.0184(4) 1.2236(3)
N16A N 0.0445(4) -0.0593(3) 1.1733(3)
C1A C -0.1172(5) -0.2327(4) 0.9608(3)
H1A H -0.0110 -0.2733 0.9276
C2A C -0.2810(5) -0.3677(4) 0.9124(4)
H2A H -0.1729 -0.4159 0.8793
H3A H -0.3300 -0.4259 0.9714
C3A C -0.3932(5) -0.3201(4) 0.8232(3)
C4A C -0.4009(5) -0.4313(5) 0.7711(4)
H4A H -0.4751 -0.4020 0.7153
H5A H -0.2905 -0.4701 0.7359
H6A H -0.4423 -0.4935 0.8286
C5A C -0.3383(5) -0.2173(5) 0.7365(4)
H7A H -0.3446 -0.1441 0.7718
H8A H -0.2246 -0.2492 0.7023
H9A H -0.4105 -0.1925 0.6795
C6A C -0.6614(5) -0.1513(4) 0.8680(4)
H10A H -0.6442 -0.0843 0.8108
C7A C 0.5141(6) -0.1659(5) 1.3052(4)
H11A H 0.4905 -0.1624 1.2329
C8A C 0.3401(5) -0.3145(4) 1.4096(4)
H12A H 0.3612 -0.3554 1.3423
H13A H 0.3662 -0.3818 1.4725
C9A C 0.1546(5) -0.2492(4) 1.4310(3)
C10A C 0.1120(6) -0.1788(5) 1.5307(4)
H14A H -0.0048 -0.1348 1.5387
H15A H 0.1338 -0.2389 1.5977
H16A H 0.1796 -0.1174 1.5200
C11A C 0.0561(6) -0.3484(4) 1.4452(4)
H17A H 0.0861 -0.3917 1.3798
H18A H 0.0805 -0.4097 1.5111
H19A H -0.0618 -0.3077 1.4539
C12A C 0.0544(5) -0.1660(4) 1.2417(4)
H20A H 0.0250 -0.2384 1.2293
Cl1 Cl 0.8117(7) 0.5197(6) 0.2407(5)
O1 O 0.7335(10) 0.5214(8) 0.3524(7)
O3 O 0.8494(9) 0.3936(7) 0.2114(6)
O5 O 0.9524(10) 0.5707(8) 0.2168(6)
O7 O 0.6896(8) 0.5984(7) 0.1762(6)
Cl2? Cl 0.8276(9) 0.5122(7) 0.2416(6)
O2? O 0.6972(13) 0.5031(10) 0.3327(9)
O4? O 0.8153(10) 0.4564(9) 0.1517(7)
O6? O 0.8493(11) 0.6410(9) 0.2029(7)
O8? O 0.9809(10) 0.4492(8) 0.2831(7)
loop_
_geom_bond_atom_site_label_1
_geom_bond_atom_site_label_2
_geom_bond_site_symmetry_1
_geom_bond_site_symmetry_2
Fe1 N1 1_555 1_555
N1 N2 1_555 1_555
N2 N3 1_555 1_555
N3 N4 1_555 1_555
N4 C1 1_555 1_555
N5 N6 1_555 1_555
N6 N7 1_555 1_555
N7 N8 1_555 1_555
N8 C6 1_555 1_555
N9 N10 1_555 1_555
N10 N11 1_555 1_555
N11 N12 1_555 1_555
N12 C7 1_555 1_555
N13 N14 1_555 1_555
N14 N15 1_555 1_555
N15 N16 1_555 1_555
N16 Fe1 1_555 1_555
C1 N1 1_555 1_555
H1 C1 1_555 1_555
C2 N4 1_555 1_555
H2 C2 1_555 1_555
H3 C2 1_555 1_555
C3 N5 1_555 1_555
C4 C3 1_555 1_555
H4 C4 1_555 1_555
H5 C4 1_555 1_555
H6 C4 1_555 1_555
C5 C3 1_555 1_555
H7 C5 1_555 1_555
H8 C5 1_555 1_555
H9 C5 1_555 1_555
C6 N5 1_555 1_555
H10 C6 1_555 1_555
C7 N9 1_555 1_555
H11 C7 1_555 1_555
C8 N12 1_555 1_555
H12 C8 1_555 1_555
H13 C8 1_555 1_555
C9 N13 1_555 1_555
C10 C9 1_555 1_555
H14 C10 1_555 1_555
H15 C10 1_555 1_555
H16 C10 1_555 1_555
C11 C9 1_555 1_555
H17 C11 1_555 1_555
H18 C11 1_555 1_555
H19 C11 1_555 1_555
C12 N13 1_555 1_555
H20 C12 1_555 1_555
Cl1 O1 1_555 1_555
O3 Cl1 1_555 1_555
O5 Cl1 1_555 1_555
O7 Cl1 1_555 1_555
Fe1_2 N8 1_555 1_555
Fe1_3 N8A 1_555 1_555
N1A Fe1 1_555 1_555
N2A N1A 1_555 1_555
N3A N2A 1_555 1_555
N4A N3A 1_555 1_555
N5A N6A 1_555 1_555
N6A N7A 1_555 1_555
N7A N8A 1_555 1_555
N8A C6A 1_555 1_555
N8_2 Fe1 1_555 1_555
N8A_2 Fe1 1_555 1_555
N9A N10A 1_555 1_555
N10A N11A 1_555 1_555
N11A N12A 1_555 1_555
N12A C7A 1_555 1_555
N13A N14A 1_555 1_555
N14A N15A 1_555 1_555
N15A N16A 1_555 1_555
N16A Fe1 1_555 1_555
C1A N1A 1_555 1_555
H1A C1A 1_555 1_555
C2A N4A 1_555 1_555
H2A C2A 1_555 1_555
H3A C2A 1_555 1_555
C3A N5A 1_555 1_555
C4A C3A 1_555 1_555
H4A C4A 1_555 1_555
H5A C4A 1_555 1_555
H6A C4A 1_555 1_555
C5A C3A 1_555 1_555
H7A C5A 1_555 1_555
H8A C5A 1_555 1_555
H9A C5A 1_555 1_555
C6A N5A 1_555 1_555
H10A C6A 1_555 1_555
C7A N9A 1_555 1_555
H11A C7A 1_555 1_555
C8A N12A 1_555 1_555
H12A C8A 1_555 1_555
H13A C8A 1_555 1_555
C9A N13A 1_555 1_555
C10A C9A 1_555 1_555
H14A C10A 1_555 1_555
H15A C10A 1_555 1_555
H16A C10A 1_555 1_555
C11A C9A 1_555 1_555
H17A C11A 1_555 1_555
H18A C11A 1_555 1_555
H19A C11A 1_555 1_555
C12A N13A 1_555 1_555
H20A C12A 1_555 1_555
N16 C12 1_555 1_555
C2 C3 1_555 1_555
C8 C9 1_555 1_555
N4A C1A 1_555 1_555
N16A C12A 1_555 1_555
C2A C3A 1_555 1_555
C8A C9A 1_555 1_555

#END
