
#######################################################################
#
#                 Cambridge Crystallographic Data Centre
#                                CCDC 
#
#######################################################################
#
# If this CIF has been generated from an entry in the Cambridge 
# Structural Database, then it will include bibliographic, chemical, 
# crystal, experimental, refinement or atomic coordinate data resulting 
# from the CCDC's data processing and validation procedures.
#
#######################################################################

data_HITFIA
_symmetry_cell_setting           orthorhombic
_symmetry_space_group_name_H-M   'I 2 2 2'
_symmetry_Int_Tables_number      23
_space_group_name_Hall           'I 2 2'
loop_
_symmetry_equiv_pos_site_id
_symmetry_equiv_pos_as_xyz
1 x,y,z
2 -x,-y,z
3 x,-y,-z
4 -x,y,-z
5 1/2+x,1/2+y,1/2+z
6 1/2-x,1/2-y,1/2+z
7 1/2+x,1/2-y,1/2-z
8 1/2-x,1/2+y,1/2-z
_cell_length_a                   23.0670(14)
_cell_length_b                   23.1760(14)
_cell_length_c                   24.9480(14)
_cell_angle_alpha                90
_cell_angle_beta                 90
_cell_angle_gamma                90
_cell_volume                     13337.2
loop_
_atom_site_label
_atom_site_type_symbol
_atom_site_fract_x
_atom_site_fract_y
_atom_site_fract_z
V1 V -0.24705(5) -0.25443(5) 0.03474(4)
V2 V -0.27986(6) -0.39884(6) 0.07794(5)
V3 V -0.10619(6) -0.29125(7) 0.08259(5)
V4 V -0.21643(7) -0.11707(6) 0.09021(5)
V5 V -0.32951(6) -0.14596(6) 0.16792(6)
V6 V -0.38982(6) -0.22661(7) 0.08487(6)
V7 V -0.37480(6) -0.34561(7) 0.15916(6)
V8 V -0.25297(5) -0.27243(5) 0.21120(5)
V9 V -0.17171(6) -0.38973(6) 0.15877(6)
V10 V -0.13210(6) -0.19062(7) 0.16517(6)
Cu1 Cu -0.25137(4) -0.24480(4) -0.12188(3)
C1 C -0.3714(3) -0.2541(4) -0.1649(3)
H1 H -0.3579 -0.2684 -0.1974
C2 C -0.3740(3) -0.2225(4) -0.0837(3)
H2 H -0.3627 -0.2104 -0.0497
C3 C -0.4302(4) -0.2246(4) -0.1021(4)
H3 H -0.4635 -0.2147 -0.0832
C4 C -0.4743(4) -0.2516(6) -0.1912(3)
H4 H -0.5092 -0.2604 -0.1710
H5 H -0.4662 -0.2844 -0.2141
C5 C -0.4856(5) -0.2001(6) -0.2255(4)
H6 H -0.4511 -0.1923 -0.2467
H7 H -0.4922 -0.1670 -0.2026
C6 C -0.5375(5) -0.2066(6) -0.2637(5)
H8 H -0.5723 -0.2125 -0.2426
H9 H -0.5424 -0.1709 -0.2835
C7 C -0.5319(5) -0.2528(5) -0.3008(4)
H10 H -0.5348 -0.2892 -0.2817
H11 H -0.4940 -0.2511 -0.3175
C8 C -0.6352(4) -0.2592(5) -0.3327(4)
H12 H -0.6505 -0.2690 -0.2995
C9 C -0.6270(4) -0.2402(4) -0.4162(3)
H13 H -0.6367 -0.2354 -0.4521
C10 C -0.5726(4) -0.2365(4) -0.3959(3)
H14 H -0.5390 -0.2266 -0.4143
C11 C -0.2467(5) -0.3613(4) -0.1734(3)
H15 H -0.2357 -0.3460 -0.2063
C12 C -0.2684(4) -0.3697(4) -0.0912(3)
H16 H -0.2749 -0.3610 -0.0553
C13 C -0.2706(4) -0.4233(4) -0.1123(3)
H17 H -0.2803 -0.4572 -0.0945
C14 C -0.2537(6) -0.4635(4) -0.2046(4)
H18 H -0.2614 -0.5002 -0.1873
H19 H -0.2149 -0.4652 -0.2197
C15 C -0.2960(5) -0.4549(5) -0.2487(4)
H20 H -0.2853 -0.4211 -0.2694
H21 H -0.3343 -0.4484 -0.2337
C16 C -0.2977(5) -0.5074(5) -0.2854(4)
H22 H -0.3097 -0.5405 -0.2643
H23 H -0.3272 -0.5010 -0.3124
C17 C -0.2436(6) -0.5218(4) -0.3124(3)
H24 H -0.2150 -0.5320 -0.2856
H25 H -0.2296 -0.4876 -0.3309
C18 C -0.2400(4) -0.6251(4) -0.3390(4)
H26 H -0.2278 -0.6381 -0.3056
C19 C -0.2668(4) -0.5676(5) -0.4038(4)
H27 H -0.2763 -0.5349 -0.4236
C20 C -0.2687(3) -0.6229(4) -0.4204(3)
H28 H -0.2799 -0.6348 -0.4545
N1 N -0.3371(3) -0.2411(3) -0.1237(2)
N2 N -0.4271(3) -0.2443(4) -0.1544(3)
N3 N -0.5775(3) -0.2505(4) -0.3430(3)
N4 N -0.6653(3) -0.2518(3) -0.3763(3)
N5 N -0.2553(3) -0.3303(3) -0.1297(2)
N6 N -0.2558(4) -0.4177(3) -0.1645(3)
N7 N -0.2479(3) -0.5696(3) -0.3517(3)
N8 N -0.2518(3) -0.6589(3) -0.3800(2)
O1 O -0.2520(2) -0.2552(2) -0.02890(16)
O2 O -0.4359(3) -0.2159(3) 0.0370(2)
O3 O -0.2034(3) -0.0632(2) 0.0509(2)
O4 O -0.3491(3) -0.1094(3) 0.2183(3)
O5 O -0.0567(2) -0.3036(3) 0.0390(2)
O6 O -0.0999(3) -0.1747(3) 0.2203(2)
O7 O -0.1430(3) -0.4362(3) 0.1984(2)
O8 O -0.2468(2) -0.2647(2) 0.27436(18)
O9 O -0.4242(3) -0.3743(3) 0.1964(2)
O10 O -0.2913(3) -0.4372(3) 0.0257(2)
O11 O -0.4090(2) -0.2911(3) 0.1190(2)
O12 O -0.3919(2) -0.1650(3) 0.1295(2)
O13 O -0.2800(3) -0.1032(3) 0.1286(2)
O14 O -0.3231(3) -0.2327(3) 0.0594(2)
O15 O -0.1549(2) -0.1251(3) 0.1336(2)
O16 O -0.2240(3) -0.1766(3) 0.0529(2)
O17 O -0.1679(2) -0.2760(2) 0.0493(2)
O18 O -0.1901(3) -0.2321(3) 0.1786(3)
O19 O -0.2668(3) -0.3299(3) 0.0600(2)
O20 O -0.2968(3) -0.2061(3) 0.1895(3)
O21 O -0.3232(2) -0.3167(3) 0.1985(2)
O22 O -0.3440(2) -0.4011(2) 0.1175(2)
O23 O -0.2186(2) -0.4279(2) 0.1140(2)
O24 O -0.2108(3) -0.3427(3) 0.1953(2)
O25 O -0.1149(2) -0.3545(3) 0.1229(2)
O26 O -0.0838(2) -0.2306(3) 0.1225(2)
Cu1F Cu -0.75137(4) -0.25520(4) -0.37812(3)
Cu1G Cu -0.24863(4) -0.74480(4) -0.37812(3)
Cu1E Cu -0.24863(4) -0.25520(4) 0.37812(3)
N4F N -0.1653(3) -0.2482(3) -0.1237(3)
N8G N -0.2482(3) -0.1589(3) -0.1200(2)
O8E O -0.2532(2) -0.2353(2) -0.22564(18)
Cu2 Cu -0.51590(6) -0.43128(6) 0.22735(5)
C21 C -0.5478(4) -0.3950(5) 0.1248(4)
H29 H -0.5319 -0.3588 0.1315
C22 C -0.5760(4) -0.4813(5) 0.1331(5)
H30 H -0.5824 -0.5174 0.1481
C23 C -0.5922(5) -0.4660(5) 0.0837(5)
H31 H -0.6122 -0.4879 0.0587
C24 C -0.5762(6) -0.3729(6) 0.0294(4)
H32 H -0.6134 -0.3797 0.0125
H33 H -0.5753 -0.3329 0.0408
C25 C -0.5297(5) -0.3816(6) -0.0115(5)
H34 H -0.5325 -0.3512 -0.0381
H35 H -0.5363 -0.4181 -0.0296
C26 C -0.5185(5) -0.4246(4) 0.3423(4)
H36 H -0.5581 -0.4320 0.3436
C27 C -0.4341(5) -0.4100(7) 0.3131(5)
H37 H -0.4031 -0.4051 0.2898
C28 C -0.4309(6) -0.4051(9) 0.3670(5)
H38 H -0.3982 -0.3972 0.3875
C29 C -0.5059(7) -0.4165(7) 0.4414(4)
H39 H -0.5477 -0.4210 0.4426
H40 H -0.4889 -0.4502 0.4582
C30 C -0.4902(9) -0.3666(6) 0.4713(5)
H41 H -0.5064 -0.3329 0.4537
H42 H -0.4483 -0.3628 0.4706
N9 N -0.5490(3) -0.4365(4) 0.1587(3)
N10 N -0.5724(4) -0.4105(4) 0.0785(3)
N11 N -0.4894(4) -0.4233(4) 0.2976(3)
N12 N -0.4875(4) -0.4146(4) 0.3852(3)
Cu2C Cu -0.48410(6) -0.43128(6) 0.77265(5)
Cu2C_2 Cu -0.48410(6) -0.43128(6) -0.22735(5)
C21C C -0.4522(4) -0.3950(5) -0.1248(4)
H29C H -0.4681 -0.3588 -0.1315
C22C C -0.4240(4) -0.4813(5) -0.1331(5)
H30C H -0.4176 -0.5174 -0.1481
C23C C -0.4078(5) -0.4660(5) -0.0837(5)
H31C H -0.3878 -0.4879 -0.0587
C24C C -0.4238(6) -0.3729(6) -0.0294(4)
H32C H -0.3866 -0.3797 -0.0125
H33C H -0.4247 -0.3329 -0.0408
C25C C -0.4703(5) -0.3816(6) 0.0115(5)
H34C H -0.4675 -0.3512 0.0381
H35C H -0.4637 -0.4181 0.0296
C26C C -0.4815(5) -0.4246(4) 0.6577(4)
H36C H -0.4419 -0.4320 0.6564
C27C C -0.5659(5) -0.4100(7) 0.6869(5)
H37C H -0.5969 -0.4051 0.7102
C28C C -0.5691(6) -0.4051(9) 0.6330(5)
H38C H -0.6018 -0.3972 0.6125
C29C C -0.4941(7) -0.4165(7) 0.5586(4)
H39C H -0.4523 -0.4210 0.5574
H40C H -0.5111 -0.4502 0.5418
C30C C -0.5098(9) -0.3666(6) 0.5287(5)
H41C H -0.4936 -0.3329 0.5463
H42C H -0.5517 -0.3628 0.5294
N9C N -0.4510(3) -0.4365(4) -0.1587(3)
N10C N -0.4276(4) -0.4105(4) -0.0785(3)
N11C N -0.5106(4) -0.4233(4) 0.7024(3)
N11C_2 N -0.5106(4) -0.4233(4) -0.2976(3)
N12C N -0.5125(4) -0.4146(4) 0.6148(3)
Cu3 Cu -0.06806(6) -0.51943(6) 0.22851(5)
C31 C -0.0724(5) -0.5209(5) 0.3426(4)
H43 H -0.0644 -0.5602 0.3443
C32 C -0.0884(6) -0.4376(6) 0.3125(5)
H44 H -0.0940 -0.4065 0.2894
C33 C -0.0931(8) -0.4353(6) 0.3664(6)
H45 H -0.1016 -0.4028 0.3868
C34 C -0.0850(10) -0.5067(7) 0.4422(5)
H46 H -0.0842 -0.5486 0.4432
H47 H -0.0500 -0.4931 0.4597
C35 C -0.1308(7) -0.4887(15) 0.4712(6)
H48 H -0.1662 -0.5013 0.4535
H49 H -0.1310 -0.4469 0.4719
C36 C -0.1065(5) -0.5485(4) 0.1248(4)
H50 H -0.1430 -0.5334 0.1321
C37 C -0.0169(5) -0.5771(5) 0.1325(5)
H51 H 0.0197 -0.5842 0.1467
C38 C -0.0349(6) -0.5916(5) 0.0829(6)
H52 H -0.0134 -0.6109 0.0569
C39 C -0.1281(6) -0.5753(6) 0.0307(5)
H53 H -0.1681 -0.5722 0.0422
H54 H -0.1233 -0.6128 0.0139
C40 C -0.1168(6) -0.5297(5) -0.0105(5)
H55 H -0.0794 -0.5372 -0.0270
H56 H -0.1460 -0.5326 -0.0383
N13 N -0.0831(5) -0.4881(5) 0.3847(4)
N14 N -0.0746(4) -0.4906(4) 0.2974(3)
N15 N -0.0627(4) -0.5493(4) 0.1590(3)
N16 N -0.0909(4) -0.5728(4) 0.0780(3)
Cu3B Cu -0.06806(6) -0.48057(6) 0.77149(5)
Cu3B_2 Cu -0.06806(6) -0.48057(6) -0.22851(5)
C31B C -0.0724(5) -0.4791(5) 0.6574(4)
H43B H -0.0644 -0.4398 0.6557
C32B C -0.0884(6) -0.5624(6) 0.6875(5)
H44B H -0.0940 -0.5935 0.7106
C33B C -0.0931(8) -0.5647(6) 0.6336(6)
H45B H -0.1016 -0.5972 0.6132
C34B C -0.0850(10) -0.4933(7) 0.5578(5)
H46B H -0.0842 -0.4514 0.5568
H47B H -0.0500 -0.5069 0.5403
C35B C -0.1308(7) -0.5113(15) 0.5288(6)
H48B H -0.1662 -0.4987 0.5465
H49B H -0.1310 -0.5531 0.5281
C36B C -0.1065(5) -0.4515(4) -0.1248(4)
H50B H -0.1430 -0.4666 -0.1321
C37B C -0.0169(5) -0.4229(5) -0.1325(5)
H51B H 0.0197 -0.4158 -0.1467
C38B C -0.0349(6) -0.4084(5) -0.0829(6)
H52B H -0.0134 -0.3891 -0.0569
C39B C -0.1281(6) -0.4247(6) -0.0307(5)
H53B H -0.1681 -0.4278 -0.0422
H54B H -0.1233 -0.3872 -0.0139
C40B C -0.1168(6) -0.4703(5) 0.0105(5)
H55B H -0.0794 -0.4628 0.0270
H56B H -0.1460 -0.4674 0.0383
N13B N -0.0831(5) -0.5119(5) 0.6153(4)
N14B N -0.0746(4) -0.5094(4) 0.7026(3)
N14B_2 N -0.0746(4) -0.5094(4) -0.2974(3)
N15B N -0.0627(4) -0.4507(4) -0.1590(3)
N16B N -0.0909(4) -0.4272(4) -0.0780(3)
O27 O -0.1131(6) -1.0000 0.0000
O28 O -0.5000 -0.1170(6) 0.0000
loop_
_geom_bond_atom_site_label_1
_geom_bond_atom_site_label_2
_geom_bond_site_symmetry_1
_geom_bond_site_symmetry_2
V1 O1 1_555 1_555
V2 O10 1_555 1_555
V3 O5 1_555 1_555
V4 O3 1_555 1_555
V5 O4 1_555 1_555
V6 O2 1_555 1_555
V7 O9 1_555 1_555
V8 O8 1_555 1_555
V9 O7 1_555 1_555
V10 O6 1_555 1_555
Cu1 N1 1_555 1_555
Cu2 N9 1_555 1_555
Cu3 N14 1_555 1_555
C1 H1 1_555 1_555
C2 H2 1_555 1_555
C3 C2 1_555 1_555
H3 C3 1_555 1_555
C4 H4 1_555 1_555
H5 C4 1_555 1_555
C5 C4 1_555 1_555
H6 C5 1_555 1_555
H7 C5 1_555 1_555
C6 C5 1_555 1_555
H8 C6 1_555 1_555
H9 C6 1_555 1_555
C7 C6 1_555 1_555
H10 C7 1_555 1_555
H11 C7 1_555 1_555
C8 H12 1_555 1_555
C9 H13 1_555 1_555
C10 C9 1_555 1_555
H14 C10 1_555 1_555
C11 H15 1_555 1_555
C12 H16 1_555 1_555
C13 C12 1_555 1_555
H17 C13 1_555 1_555
C14 H18 1_555 1_555
H19 C14 1_555 1_555
C15 C14 1_555 1_555
H20 C15 1_555 1_555
H21 C15 1_555 1_555
C16 C15 1_555 1_555
H22 C16 1_555 1_555
H23 C16 1_555 1_555
C17 C16 1_555 1_555
H24 C17 1_555 1_555
H25 C17 1_555 1_555
C18 H26 1_555 1_555
C19 H27 1_555 1_555
C20 C19 1_555 1_555
H28 C20 1_555 1_555
C21 H29 1_555 1_555
C22 H30 1_555 1_555
C23 C22 1_555 1_555
H31 C23 1_555 1_555
C24 H32 1_555 1_555
H33 C24 1_555 1_555
C25 C24 1_555 1_555
H34 C25 1_555 1_555
H35 C25 1_555 1_555
C26 H36 1_555 1_555
C27 H37 1_555 1_555
C28 C27 1_555 1_555
H38 C28 1_555 1_555
C29 H39 1_555 1_555
H40 C29 1_555 1_555
C30 C29 1_555 1_555
H41 C30 1_555 1_555
H42 C30 1_555 1_555
C31 H43 1_555 1_555
C32 H44 1_555 1_555
C33 C32 1_555 1_555
H45 C33 1_555 1_555
C34 H46 1_555 1_555
H47 C34 1_555 1_555
C35 C34 1_555 1_555
H48 C35 1_555 1_555
H49 C35 1_555 1_555
C36 H50 1_555 1_555
C37 H51 1_555 1_555
C38 C37 1_555 1_555
H52 C38 1_555 1_555
C39 H53 1_555 1_555
H54 C39 1_555 1_555
C40 C39 1_555 1_555
H55 C40 1_555 1_555
H56 C40 1_555 1_555
N1 C1 1_555 1_555
N2 C1 1_555 1_555
N3 C7 1_555 1_555
N4 C8 1_555 1_555
N5 Cu1 1_555 1_555
N6 C11 1_555 1_555
N7 C17 1_555 1_555
N8 C18 1_555 1_555
N9 C21 1_555 1_555
N10 C21 1_555 1_555
N11 Cu2 1_555 1_555
N12 C26 1_555 1_555
N13 C31 1_555 1_555
N14 C31 1_555 1_555
N15 Cu3 1_555 1_555
N16 C36 1_555 1_555
O1 Cu1 1_555 1_555
O8 Cu1E 1_555 1_555
O11 V6 1_555 1_555
O12 V5 1_555 1_555
O13 V4 1_555 1_555
O14 V1 1_555 1_555
O15 V4 1_555 1_555
O16 V1 1_555 1_555
O17 V1 1_555 1_555
O18 V8 1_555 1_555
O19 V1 1_555 1_555
O20 V5 1_555 1_555
O21 V7 1_555 1_555
O22 V2 1_555 1_555
O23 V2 1_555 1_555
O24 V8 1_555 1_555
O25 V3 1_555 1_555
O26 V3 1_555 1_555
Cu1F N4 1_555 1_555
Cu1G N8 1_555 1_555
Cu2C N11C 1_555 1_555
Cu2C_2 N9C 1_555 1_555
Cu3B N14B 1_555 1_555
Cu3B_2 N14B_2 1_555 1_555
C21C H29C 1_555 1_555
C22C H30C 1_555 1_555
C23C C22C 1_555 1_555
H31C C23C 1_555 1_555
C24C H32C 1_555 1_555
H33C C24C 1_555 1_555
C25C C25 1_555 1_555
H34C C25C 1_555 1_555
H35C C25C 1_555 1_555
C26C H36C 1_555 1_555
C27C H37C 1_555 1_555
C28C C27C 1_555 1_555
H38C C28C 1_555 1_555
C29C H39C 1_555 1_555
H40C C29C 1_555 1_555
C30C C30 1_555 1_555
H41C C30C 1_555 1_555
H42C C30C 1_555 1_555
C31B H43B 1_555 1_555
C32B H44B 1_555 1_555
C33B C32B 1_555 1_555
H45B C33B 1_555 1_555
C34B H46B 1_555 1_555
H47B C34B 1_555 1_555
C35B C35 1_555 1_555
H48B C35B 1_555 1_555
H49B C35B 1_555 1_555
C36B H50B 1_555 1_555
C37B H51B 1_555 1_555
C38B C37B 1_555 1_555
H52B C38B 1_555 1_555
C39B H53B 1_555 1_555
H54B C39B 1_555 1_555
C40B C40 1_555 1_555
H55B C40B 1_555 1_555
H56B C40B 1_555 1_555
N4F Cu1 1_555 1_555
N8G Cu1 1_555 1_555
N9C C21C 1_555 1_555
N10C C21C 1_555 1_555
N11C C26C 1_555 1_555
N11C_2 Cu2C_2 1_555 1_555
N12C C26C 1_555 1_555
N13B C31B 1_555 1_555
N14B C31B 1_555 1_555
N15B Cu3B_2 1_555 1_555
N16B C36B 1_555 1_555
O8E Cu1 1_555 1_555
V2 O19 1_555 1_555
V3 O17 1_555 1_555
V4 O16 1_555 1_555
V5 O13 1_555 1_555
V6 O12 1_555 1_555
V6 O14 1_555 1_555
V7 O11 1_555 1_555
V7 O22 1_555 1_555
V8 O20 1_555 1_555
V8 O21 1_555 1_555
V9 O23 1_555 1_555
V9 O24 1_555 1_555
V9 O25 1_555 1_555
V10 O15 1_555 1_555
V10 O18 1_555 1_555
V10 O26 1_555 1_555
C2 N1 1_555 1_555
C3 N2 1_555 1_555
C4 N2 1_555 1_555
C8 N3 1_555 1_555
C9 N4 1_555 1_555
C10 N3 1_555 1_555
C11 N5 1_555 1_555
C12 N5 1_555 1_555
C13 N6 1_555 1_555
C14 N6 1_555 1_555
C18 N7 1_555 1_555
C19 N7 1_555 1_555
C20 N8 1_555 1_555
C22 N9 1_555 1_555
C23 N10 1_555 1_555
C24 N10 1_555 1_555
C26 N11 1_555 1_555
C27 N11 1_555 1_555
C28 N12 1_555 1_555
C29 N12 1_555 1_555
C32 N14 1_555 1_555
C33 N13 1_555 1_555
C34 N13 1_555 1_555
C36 N15 1_555 1_555
C37 N15 1_555 1_555
C38 N16 1_555 1_555
C39 N16 1_555 1_555
C22C N9C 1_555 1_555
C23C N10C 1_555 1_555
C24C C25C 1_555 1_555
C24C N10C 1_555 1_555
C27C N11C 1_555 1_555
C28C N12C 1_555 1_555
C29C C30C 1_555 1_555
C29C N12C 1_555 1_555
C32B N14B 1_555 1_555
C33B N13B 1_555 1_555
C34B C35B 1_555 1_555
C34B N13B 1_555 1_555
C36B N15B 1_555 1_555
C37B N15B 1_555 1_555
C38B N16B 1_555 1_555
C39B C40B 1_555 1_555
C39B N16B 1_555 1_555

#END
