
#######################################################################
#
#                 Cambridge Crystallographic Data Centre
#                                CCDC 
#
#######################################################################
#
# If this CIF has been generated from an entry in the Cambridge 
# Structural Database, then it will include bibliographic, chemical, 
# crystal, experimental, refinement or atomic coordinate data resulting 
# from the CCDC's data processing and validation procedures.
#
#######################################################################

data_HITXOZ
_symmetry_cell_setting           monoclinic
_symmetry_space_group_name_H-M   'P 2/c'
_symmetry_Int_Tables_number      13
_space_group_name_Hall           '-P 2yc'
loop_
_symmetry_equiv_pos_site_id
_symmetry_equiv_pos_as_xyz
1 x,y,z
2 -x,y,1/2-z
3 -x,-y,-z
4 x,-y,1/2+z
_cell_length_a                   8.9560(14)
_cell_length_b                   12.1840(19)
_cell_length_c                   14.2625(16)
_cell_angle_alpha                90
_cell_angle_beta                 127.328(6)
_cell_angle_gamma                90
_cell_volume                     1237.55
loop_
_atom_site_label
_atom_site_type_symbol
_atom_site_fract_x
_atom_site_fract_y
_atom_site_fract_z
O4 O 0.0434(14) 0.6056(9) 0.0597(8)
H7 H 0.1128 0.5734 0.0464
H8 H 0.0274 0.6048 0.1128
O5 O 0.0000 0.6276(15) 0.2500
H9 H 0.1080 0.6566 0.2806
H9A H -0.1080 0.6566 0.2194
Cu1 Cu 0.5000 0.83880(9) 0.2500
O1 O 0.3981(8) 0.7217(4) 0.1295(5)
O2 O 0.6749(9) 0.7542(5) 0.1773(6)
O3 O 0.2078(12) 1.1624(5) 0.2871(6)
N1 N 0.3433(8) 0.9539(5) 0.1271(5)
N2 N 0.0891(11) 1.2042(6) 0.1008(6)
H1 H 0.0228 1.2519 0.0458
C1 C 0.5284(13) 0.6978(6) 0.1263(7)
C2 C 0.5120(13) 0.5941(6) 0.0602(6)
C3 C 0.4807(14) 0.4951(8) 0.0894(9)
C4 C 0.5380(16) 0.5973(8) -0.0248(12)
C5 C 0.489(3) 0.4856(17) 0.1969(17)
C6 C 0.535(3) 0.7056(16) -0.0798(18)
C7 C 0.5000 0.3838(19) 0.2500
C8 C 0.541(4) 0.2806(18) 0.3233(19)
C9 C 0.3082(11) 0.9545(7) 0.0212(6)
H2 H 0.3533 0.8971 0.0017
C10 C 0.2095(13) 1.0360(8) -0.0582(7)
H3 H 0.1926 1.0356 -0.1293
C11 C 0.1336(14) 1.1198(8) -0.0334(7)
H4 H 0.0642 1.1757 -0.0876
C12 C 0.1642(12) 1.1183(7) 0.0757(6)
C13 C 0.2682(10) 1.0346(6) 0.1532(6)
H5 H 0.2880 1.0328 0.2251
C14 C 0.1098(11) 1.2207(6) 0.2029(6)
C15 C 0.0062(12) 1.3218(6) 0.2006(8)
H6 H -0.0432 1.3767 0.1439
O1A O 0.6019(8) 0.7217(4) 0.3705(5)
O2A O 0.3251(9) 0.7542(5) 0.3227(6)
C1A C 0.4716(13) 0.6978(6) 0.3737(7)
C2A C 0.4880(13) 0.5941(6) 0.4398(6)
C3A C 0.5193(14) 0.4951(8) 0.4106(9)
C4A C 0.4620(16) 0.5973(8) 0.5248(12)
C5A C 0.511(3) 0.4856(17) 0.3031(17)
C6A C 0.465(3) 0.7056(16) 0.5798(18)
C8A C 0.459(4) 0.2806(18) 0.1767(19)
O3A O -0.2078(12) 1.1624(5) 0.2129(6)
N1A N -0.3433(8) 0.9539(5) 0.3729(5)
N2A N -0.0891(11) 1.2042(6) 0.3992(6)
H1A H -0.0228 1.2519 0.4542
C9A C -0.3082(11) 0.9545(7) 0.4788(6)
H2A H -0.3533 0.8971 0.4983
C10A C -0.2095(13) 1.0360(8) 0.5582(7)
H3A H -0.1926 1.0356 0.6293
C11A C -0.1336(14) 1.1198(8) 0.5334(7)
H4A H -0.0642 1.1757 0.5876
C12A C -0.1642(12) 1.1183(7) 0.4243(6)
C13A C -0.2682(10) 1.0346(6) 0.3468(6)
H5A H -0.2880 1.0328 0.2749
C14A C -0.1098(11) 1.2207(6) 0.2971(6)
C15A C -0.0062(12) 1.3218(6) 0.2994(8)
H6A H 0.0432 1.3767 0.3561
Cu1_2 Cu -0.5000 0.83880(9) 0.2500
N1A_2 N 0.6567(8) 0.9539(5) 0.3729(5)
C3B C 0.5193(14) 0.5049(8) -0.0894(9)
C3C C 0.4807(14) 0.5049(8) 0.5894(9)
C4B C 0.4620(16) 0.4027(8) 0.0248(12)
C4C C 0.5380(16) 0.4027(8) 0.4752(12)
C6B C 0.465(3) 0.2944(16) 0.0798(18)
C6C C 0.535(3) 0.2944(16) 0.4202(18)
C8B C 0.459(4) 0.7194(18) 0.6767(19)
C8C C 0.541(4) 0.7194(18) -0.1767(19)
C16? C 0.315(5) 0.525(3) 0.009(4)
loop_
_geom_bond_atom_site_label_1
_geom_bond_atom_site_label_2
_geom_bond_site_symmetry_1
_geom_bond_site_symmetry_2
Cu1 O1 1_555 1_555
O1 C1 1_555 1_555
O2 Cu1 1_555 1_555
O3 C14 1_555 1_555
N1 Cu1 1_555 1_555
N2 H1 1_555 1_555
C1 O2 1_555 1_555
C2 C1 1_555 1_555
C3 C2 1_555 1_555
C4 C2 1_555 1_555
C5 C3 1_555 1_555
C6 C4 1_555 1_555
C7 C5 1_555 1_555
C8 C7 1_555 1_555
C9 N1 1_555 1_555
H2 C9 1_555 1_555
C10 C9 1_555 1_555
H3 C10 1_555 1_555
C11 C10 1_555 1_555
H4 C11 1_555 1_555
C12 N2 1_555 1_555
C13 N1 1_555 1_555
H5 C13 1_555 1_555
C14 N2 1_555 1_555
C15 C14 1_555 1_555
H6 C15 1_555 1_555
O4 H7 1_555 1_555
H8 O4 1_555 1_555
O5 H9 1_555 1_555
O1A Cu1 1_555 1_555
O2A Cu1 1_555 1_555
C1A O1A 1_555 1_555
C2A C1A 1_555 1_555
C3A C2A 1_555 1_555
C4A C2A 1_555 1_555
C5A C5 1_555 1_555
C6A C4A 1_555 1_555
C8A C7 1_555 1_555
O3A C14A 1_555 1_555
N1A C9A 1_555 1_555
N2A H1A 1_555 1_555
C9A H2A 1_555 1_555
C10A C9A 1_555 1_555
H3A C10A 1_555 1_555
C11A C10A 1_555 1_555
H4A C11A 1_555 1_555
C12A N2A 1_555 1_555
C13A N1A 1_555 1_555
H5A C13A 1_555 1_555
C14A N2A 1_555 1_555
C15A C15 1_555 1_555
H6A C15A 1_555 1_555
Cu1_2 N1A 1_555 1_555
N1A_2 Cu1 1_555 1_555
C3B C4 1_555 1_555
C3C C4A 1_555 1_555
C4B C3 1_555 1_555
C4C C3A 1_555 1_555
C6B C8A 1_555 1_555
C6C C8 1_555 1_555
C8B C6A 1_555 1_555
C8C C6 1_555 1_555
H9A O5 1_555 1_555
C7 C5A 1_555 1_555
C8 C8A 1_555 1_555
C11 C12 1_555 1_555
C12 C13 1_555 1_555
O2A C1A 1_555 1_555
C3A C5A 1_555 1_555
C11A C12A 1_555 1_555
C12A C13A 1_555 1_555
C14A C15A 1_555 1_555
C4B C6B 1_555 1_555
C4C C6C 1_555 1_555

#END
