
#######################################################################
#
#                 Cambridge Crystallographic Data Centre
#                                CCDC 
#
#######################################################################
#
# If this CIF has been generated from an entry in the Cambridge 
# Structural Database, then it will include bibliographic, chemical, 
# crystal, experimental, refinement or atomic coordinate data resulting 
# from the CCDC's data processing and validation procedures.
#
#######################################################################

data_HITXUF
_symmetry_cell_setting           triclinic
_symmetry_space_group_name_H-M   'P -1'
_symmetry_Int_Tables_number      2
_space_group_name_Hall           '-P 1'
loop_
_symmetry_equiv_pos_site_id
_symmetry_equiv_pos_as_xyz
1 x,y,z
2 -x,-y,-z
_cell_length_a                   9.5201(4)
_cell_length_b                   10.1789(7)
_cell_length_c                   17.6150(10)
_cell_angle_alpha                81.152(5)
_cell_angle_beta                 89.833(4)
_cell_angle_gamma                67.143(6)
_cell_volume                     1551.18
loop_
_atom_site_label
_atom_site_type_symbol
_atom_site_fract_x
_atom_site_fract_y
_atom_site_fract_z
C1 C 0.8790(4) -0.1574(4) 0.5760(2)
H1 H 0.7899 -0.1691 0.5642
N1 N 0.8810(3) -0.0863(3) 0.63372(17)
O1 O 0.6885(3) -0.2178(3) 0.70126(14)
Cu1 Cu 0.69911(5) -0.02260(4) 0.69887(2)
O2 O 0.5545(3) 0.1203(4) 0.58939(17)
H2 H 0.5410 0.1952 0.5564
H3 H 0.4835 0.0925 0.5810
C2 C 1.0045(4) -0.2144(4) 0.5331(2)
N2 N 1.0038(4) -0.2950(4) 0.4746(2)
H4 H 1.0907 -0.3587 0.4663
O3 O 0.8224(3) -0.2306(3) 0.80687(16)
C3 C 1.1364(5) -0.1964(5) 0.5509(3)
H5 H 1.2231 -0.2340 0.5238
N3 N 0.4040(4) -0.8162(4) -0.05607(18)
H6 H 0.3185 -0.7803 -0.0353
O4 O 0.6603(6) -0.6869(4) 0.6463(2)
C4 C 1.1372(5) -0.1217(6) 0.6097(3)
H7 H 1.2246 -0.1076 0.6223
N4 N 0.5148(3) -0.9669(3) -0.23529(17)
O5 O 0.7599(3) -0.8775(3) 0.73517(15)
C5 C 1.0091(5) -0.0681(5) 0.6495(3)
H8 H 1.0111 -0.0174 0.6888
O6 O 0.7562(4) -0.1961(4) 0.4383(2)
C6 C 0.8849(4) -0.2841(5) 0.4312(2)
O7 O 0.6550(4) -0.8622(4) -0.04229(19)
C7 C 0.9197(4) -0.3775(5) 0.3693(2)
H9 H 1.0013 -0.4698 0.3892
H10 H 0.9570 -0.3318 0.3261
C8 C 0.7857(4) -0.4053(5) 0.3405(2)
H11 H 0.7006 -0.3135 0.3247
H12 H 0.7544 -0.4598 0.3823
C9 C 0.8228(4) -0.4882(5) 0.2732(2)
H13 H 0.8577 -0.4352 0.2322
H14 H 0.9059 -0.5812 0.2897
C10 C 0.6882(5) -0.5129(5) 0.2416(2)
H15 H 0.6036 -0.4202 0.2271
H16 H 0.6560 -0.5695 0.2820
C11 C 0.7242(5) -0.5903(5) 0.1723(2)
H17 H 0.8100 -0.6823 0.1865
H18 H 0.7543 -0.5328 0.1315
C12 C 0.5895(5) -0.6168(5) 0.1422(2)
H19 H 0.5038 -0.5247 0.1283
H20 H 0.5596 -0.6742 0.1832
C13 C 0.6232(5) -0.6941(5) 0.0726(2)
H21 H 0.6474 -0.6343 0.0306
H22 H 0.7122 -0.7839 0.0855
C14 C 0.4910(5) -0.7267(5) 0.0463(2)
H23 H 0.4029 -0.6367 0.0320
H24 H 0.4650 -0.7842 0.0888
C15 C 0.5262(5) -0.8073(4) -0.0214(2)
C16 C 0.5198(4) -0.9111(4) -0.1716(2)
H25 H 0.6059 -0.8941 -0.1601
C17 C 0.4010(4) -0.8775(4) -0.1222(2)
C18 C 0.2726(5) -0.9022(5) -0.1405(2)
H26 H 0.1909 -0.8807 -0.1090
C19 C 0.2680(5) -0.9588(5) -0.2061(2)
H27 H 0.1824 -0.9752 -0.2194
C20 C 0.3908(5) -0.9913(5) -0.2518(2)
H28 H 0.3874 -1.0314 -0.2955
C21 C 0.7880(4) -0.4433(4) 0.7883(2)
C22 C 0.7444(4) -0.5174(4) 0.7385(2)
H29 H 0.6968 -0.4693 0.6905
C23 C 0.7721(4) -0.6639(4) 0.7611(2)
C24 C 0.8403(4) -0.7321(4) 0.8337(2)
H30 H 0.8590 -0.8293 0.8492
C25 C 0.8808(5) -0.6587(4) 0.8833(2)
H31 H 0.9244 -0.7059 0.9322
C26 C 0.8569(4) -0.5148(4) 0.8606(2)
H32 H 0.8868 -0.4661 0.8937
C27 C 0.7659(4) -0.2885(4) 0.7646(2)
C28 C 0.7287(5) -0.7474(4) 0.7084(2)
Cu1_2 Cu 0.69911(5) -1.02260(4) -0.30113(2)
Cu1_3 Cu 0.69911(5) -1.02260(4) 0.69887(2)
N4_2 N 0.5148(3) 0.0331(3) 0.76471(17)
O5_2 O 0.7599(3) 0.1225(3) 0.73517(15)
O8 O 0.1537(4) -0.8063(6) 0.0414(2)
H33 H 0.1007 -0.8580 0.0546
H34 H 0.1382 -0.7950 0.0875
O9 O 1.4963(5) -0.2193(5) 0.5770(3)
H35 H 1.5517 -0.1962 0.6057
H36 H 1.4710 -0.2821 0.6043
O10 O 1.3122(5) -0.5047(5) 0.4649(3)
H37 H 1.3379 -0.5892 0.4540
H38 H 1.3926 -0.4878 0.4674
O11 O 1.0000 -1.0000 1.0000
H39 H 1.0574 -0.9987 1.0088
H39A H 0.9426 -1.0013 0.9912
loop_
_geom_bond_atom_site_label_1
_geom_bond_atom_site_label_2
_geom_bond_site_symmetry_1
_geom_bond_site_symmetry_2
C1 H1 1_555 1_555
N1 C1 1_555 1_555
O1 Cu1 1_555 1_555
Cu1 N1 1_555 1_555
O2 Cu1 1_555 1_555
H2 O2 1_555 1_555
H3 O2 1_555 1_555
C2 C1 1_555 1_555
N2 C2 1_555 1_555
H4 N2 1_555 1_555
O3 Cu1 1_555 1_555
C3 C2 1_555 1_555
H5 C3 1_555 1_555
N3 H6 1_555 1_555
O4 C28 1_555 1_555
C4 C3 1_555 1_555
H7 C4 1_555 1_555
N4 C16 1_555 1_555
O5 C28 1_555 1_555
C5 N1 1_555 1_555
H8 C5 1_555 1_555
O6 C6 1_555 1_555
C6 N2 1_555 1_555
O7 C15 1_555 1_555
C7 C6 1_555 1_555
H9 C7 1_555 1_555
H10 C7 1_555 1_555
C8 C7 1_555 1_555
H11 C8 1_555 1_555
H12 C8 1_555 1_555
C9 C8 1_555 1_555
H13 C9 1_555 1_555
H14 C9 1_555 1_555
C10 C9 1_555 1_555
H15 C10 1_555 1_555
H16 C10 1_555 1_555
C11 C10 1_555 1_555
H17 C11 1_555 1_555
H18 C11 1_555 1_555
C12 C11 1_555 1_555
H19 C12 1_555 1_555
H20 C12 1_555 1_555
C13 C12 1_555 1_555
H21 C13 1_555 1_555
H22 C13 1_555 1_555
C14 C13 1_555 1_555
H23 C14 1_555 1_555
H24 C14 1_555 1_555
C15 N3 1_555 1_555
C16 H25 1_555 1_555
C17 N3 1_555 1_555
C18 C17 1_555 1_555
H26 C18 1_555 1_555
C19 C18 1_555 1_555
H27 C19 1_555 1_555
C20 N4 1_555 1_555
H28 C20 1_555 1_555
C21 C22 1_555 1_555
C22 H29 1_555 1_555
C23 C22 1_555 1_555
C24 C23 1_555 1_555
H30 C24 1_555 1_555
C25 C24 1_555 1_555
H31 C25 1_555 1_555
C26 C21 1_555 1_555
H32 C26 1_555 1_555
C27 O1 1_555 1_555
C28 C23 1_555 1_555
O8 H33 1_555 1_555
H34 O8 1_555 1_555
O9 H35 1_555 1_555
H36 O9 1_555 1_555
O10 H37 1_555 1_555
H38 O10 1_555 1_555
O11 H39 1_555 1_555
Cu1_2 N4 1_555 1_555
Cu1_3 O5 1_555 1_555
N4_2 Cu1 1_555 1_555
O5_2 Cu1 1_555 1_555
H39A O11 1_555 1_555
O3 C27 1_555 1_555
C4 C5 1_555 1_555
C14 C15 1_555 1_555
C16 C17 1_555 1_555
C19 C20 1_555 1_555
C21 C27 1_555 1_555
C25 C26 1_555 1_555

#END
