
#######################################################################
#
#                 Cambridge Crystallographic Data Centre
#                                CCDC 
#
#######################################################################
#
# If this CIF has been generated from an entry in the Cambridge 
# Structural Database, then it will include bibliographic, chemical, 
# crystal, experimental, refinement or atomic coordinate data resulting 
# from the CCDC's data processing and validation procedures.
#
#######################################################################

data_HITXEP
_symmetry_cell_setting           monoclinic
_symmetry_space_group_name_H-M   'P 21/n'
_symmetry_Int_Tables_number      14
_space_group_name_Hall           '-P 2yn'
loop_
_symmetry_equiv_pos_site_id
_symmetry_equiv_pos_as_xyz
1 x,y,z
2 1/2-x,1/2+y,1/2-z
3 -x,-y,-z
4 1/2+x,1/2-y,1/2+z
_cell_length_a                   11.1320(5)
_cell_length_b                   14.3355(7)
_cell_length_c                   11.5297(6)
_cell_angle_alpha                90
_cell_angle_beta                 91.7680(10)
_cell_angle_gamma                90
_cell_volume                     1839.07
loop_
_atom_site_label
_atom_site_type_symbol
_atom_site_fract_x
_atom_site_fract_y
_atom_site_fract_z
Cu1 Cu 0.415350(18) 0.019548(15) 0.418960(18)
N1 N 0.28503(14) 0.06048(12) 0.27881(14)
O1 O -0.03509(14) -0.07673(12) 0.22669(16)
C1 C 0.30988(18) 0.13255(16) 0.20926(19)
H1 H 0.3848 0.1609 0.2180
O2 O 0.31786(13) -0.07045(12) 0.50343(14)
N2 N -0.12196(15) 0.03723(13) 0.12044(16)
H2 H -0.1131 0.0881 0.0821
C2 C 0.23080(19) 0.16676(16) 0.1259(2)
H3 H 0.2522 0.2168 0.0796
O3 O 0.45765(13) -0.10174(12) 0.63774(14)
C3 C 0.11849(19) 0.12556(16) 0.11174(19)
H4 H 0.0631 0.1480 0.0566
O4 O 0.12487(14) -0.38325(12) 0.96677(13)
C4 C 0.09052(17) 0.05045(15) 0.18115(17)
O5 O -0.01380(13) -0.41642(11) 0.83107(13)
C5 C 0.17689(18) 0.02009(14) 0.26268(18)
H5 H 0.1586 -0.0310 0.3085
C6 C -0.02789(18) -0.00130(15) 0.17739(19)
C7 C -0.24053(18) -0.00776(16) 0.12366(19)
H6 H -0.2707 -0.0023 0.2014
H7 H -0.2316 -0.0736 0.1068
C8 C -0.33189(18) 0.03400(15) 0.03807(19)
H8 H -0.3016 0.0302 -0.0398
H9 H -0.3440 0.0993 0.0564
C9 C -0.45215(18) -0.01802(16) 0.04276(19)
H10 H -0.4384 -0.0836 0.0273
H11 H -0.4821 -0.0130 0.1206
C10 C 0.27144(17) -0.17512(13) 0.65815(17)
C11 C 0.32358(17) -0.22864(15) 0.74417(18)
H12 H 0.4060 -0.2243 0.7589
C12 C 0.25587(18) -0.28957(14) 0.81019(18)
H13 H 0.2941 -0.3229 0.8698
C13 C 0.13521(17) -0.30191(13) 0.79020(16)
C14 C 0.07588(17) -0.37192(13) 0.86768(16)
C15 C 0.07577(17) -0.25042(13) 0.69846(16)
C16 C -0.04810(17) -0.26150(14) 0.66896(18)
H14 H -0.0925 -0.3060 0.7077
C17 C -0.10316(18) -0.20850(15) 0.58536(19)
H15 H -0.1839 -0.2183 0.5659
C18 C -0.0387(2) -0.13892(17) 0.5281(2)
H16 H -0.0781 -0.1004 0.4743
C19 C 0.08155(18) -0.12758(16) 0.55124(19)
H17 H 0.1233 -0.0819 0.5116
C20 C 0.14415(17) -0.18385(13) 0.63423(16)
C21 C 0.35393(16) -0.11067(13) 0.59425(16)
N1B N -1.28503(14) -0.06048(12) -0.27881(14)
O1B O -0.96491(14) 0.07673(12) -0.22669(16)
C1B C -1.30988(18) -0.13255(16) -0.20926(19)
H1B H -1.3848 -0.1609 -0.2180
N2B N -0.87804(15) -0.03723(13) -0.12044(16)
H2B H -0.8869 -0.0881 -0.0821
C2B C -1.23080(19) -0.16676(16) -0.1259(2)
H3B H -1.2522 -0.2168 -0.0796
C3B C -1.11849(19) -0.12556(16) -0.11174(19)
H4B H -1.0631 -0.1480 -0.0566
C4B C -1.09052(17) -0.05045(15) -0.18115(17)
C5B C -1.17689(18) -0.02009(14) -0.26268(18)
H5B H -1.1586 0.0310 -0.3085
C6B C -0.97211(18) 0.00130(15) -0.17739(19)
C7B C -0.75947(18) 0.00776(16) -0.12366(19)
H6B H -0.7293 0.0023 -0.2014
H7B H -0.7684 0.0736 -0.1068
C8B C -0.66811(18) -0.03400(15) -0.03807(19)
H8B H -0.6984 -0.0302 0.0398
H9B H -0.6560 -0.0993 -0.0564
C9B C -0.54785(18) 0.01802(16) -0.04276(19)
H10B H -0.5616 0.0836 -0.0273
H11B H -0.5179 0.0130 -0.1206
Cu1B Cu -1.415350(18) -0.019548(15) -0.418960(18)
O2B O -1.31786(13) 0.07045(12) -0.50343(14)
O3B O -1.45765(13) 0.10174(12) -0.63774(14)
O4B O -1.12487(14) 0.38325(12) -0.96677(13)
O5B O -0.98620(13) 0.41642(11) -0.83107(13)
C10B C -1.27144(17) 0.17512(13) -0.65815(17)
C11B C -1.32358(17) 0.22864(15) -0.74417(18)
H12B H -1.4060 0.2243 -0.7589
C12B C -1.25587(18) 0.28957(14) -0.81019(18)
H13B H -1.2941 0.3229 -0.8698
C13B C -1.13521(17) 0.30191(13) -0.79020(16)
C14B C -1.07588(17) 0.37192(13) -0.86768(16)
C15B C -1.07577(17) 0.25042(13) -0.69846(16)
C16B C -0.95190(17) 0.26150(14) -0.66896(18)
H14B H -0.9075 0.3060 -0.7077
C17B C -0.89684(18) 0.20850(15) -0.58536(19)
H15B H -0.8161 0.2183 -0.5659
C18B C -0.9613(2) 0.13892(17) -0.5281(2)
H16B H -0.9219 0.1004 -0.4743
C19B C -1.08155(18) 0.12758(16) -0.55124(19)
H17B H -1.1233 0.0819 -0.5116
C20B C -1.14415(17) 0.18385(13) -0.63423(16)
C21B C -1.35393(16) 0.11067(13) -0.59425(16)
Cu1_2 Cu -1.584650(18) 0.019548(15) -0.581040(18)
Cu1A Cu -0.915350(18) 0.519548(15) -0.918960(18)
Cu1A_2 Cu 0.084650(18) -0.480452(15) 1.081040(18)
Cu1B_2 Cu 0.584650(18) -0.019548(15) 0.581040(18)
Cu1C Cu -1.084650(18) 0.480452(15) -1.081040(18)
Cu1C_2 Cu -0.084650(18) -0.519548(15) 0.918960(18)
O3_2 O -1.54235(13) -0.10174(12) -0.36226(14)
O3B_2 O 0.54235(13) 0.10174(12) 0.36226(14)
O4A O 0.37513(14) 0.11675(12) 0.53323(13)
O4C O -1.37513(14) -0.11675(12) -0.53323(13)
O5A O -1.48620(13) 0.08358(11) -0.33107(13)
O5C O 0.48620(13) -0.08358(11) 0.33107(13)
O6 O 0.1054(2) -0.19005(18) 0.0712(2)
H18 H 0.069(3) -0.169(3) 0.133(3)
H19 H 0.087(4) -0.248(4) 0.070(4)
loop_
_geom_bond_atom_site_label_1
_geom_bond_atom_site_label_2
_geom_bond_site_symmetry_1
_geom_bond_site_symmetry_2
Cu1 N1 1_555 1_555
N1 C1 1_555 1_555
O1 C6 1_555 1_555
C1 H1 1_555 1_555
O2 Cu1 1_555 1_555
N2 H2 1_555 1_555
C2 C1 1_555 1_555
H3 C2 1_555 1_555
O3 C21 1_555 1_555
C3 C2 1_555 1_555
H4 C3 1_555 1_555
O4 C14 1_555 1_555
C4 C3 1_555 1_555
O5 C14 1_555 1_555
C5 N1 1_555 1_555
H5 C5 1_555 1_555
C6 N2 1_555 1_555
C7 N2 1_555 1_555
H6 C7 1_555 1_555
H7 C7 1_555 1_555
C8 C7 1_555 1_555
H8 C8 1_555 1_555
H9 C8 1_555 1_555
C9 C8 1_555 1_555
H10 C9 1_555 1_555
H11 C9 1_555 1_555
C10 C11 1_555 1_555
C11 H12 1_555 1_555
C12 C11 1_555 1_555
H13 C12 1_555 1_555
C13 C12 1_555 1_555
C14 C13 1_555 1_555
C15 C13 1_555 1_555
C16 C15 1_555 1_555
H14 C16 1_555 1_555
C17 C16 1_555 1_555
H15 C17 1_555 1_555
C18 C17 1_555 1_555
H16 C18 1_555 1_555
C19 C18 1_555 1_555
H17 C19 1_555 1_555
C20 C10 1_555 1_555
C21 O2 1_555 1_555
O6 H18 1_555 1_555
H19 O6 1_555 1_555
N1B C1B 1_555 1_555
O1B C6B 1_555 1_555
C1B H1B 1_555 1_555
N2B H2B 1_555 1_555
C2B C1B 1_555 1_555
H3B C2B 1_555 1_555
C3B C2B 1_555 1_555
H4B C3B 1_555 1_555
C4B C3B 1_555 1_555
C5B N1B 1_555 1_555
H5B C5B 1_555 1_555
C6B N2B 1_555 1_555
C7B N2B 1_555 1_555
H6B C7B 1_555 1_555
H7B C7B 1_555 1_555
C8B C7B 1_555 1_555
H8B C8B 1_555 1_555
H9B C8B 1_555 1_555
C9B C9 1_555 1_555
H10B C9B 1_555 1_555
H11B C9B 1_555 1_555
Cu1B N1B 1_555 1_555
O2B Cu1B 1_555 1_555
O3B C21B 1_555 1_555
O4B C14B 1_555 1_555
O5B C14B 1_555 1_555
C10B C11B 1_555 1_555
C11B H12B 1_555 1_555
C12B C11B 1_555 1_555
H13B C12B 1_555 1_555
C13B C12B 1_555 1_555
C14B C13B 1_555 1_555
C15B C13B 1_555 1_555
C16B C15B 1_555 1_555
H14B C16B 1_555 1_555
C17B C16B 1_555 1_555
H15B C17B 1_555 1_555
C18B C17B 1_555 1_555
H16B C18B 1_555 1_555
C19B C18B 1_555 1_555
H17B C19B 1_555 1_555
C20B C10B 1_555 1_555
C21B O2B 1_555 1_555
Cu1_2 Cu1B 1_555 1_555
Cu1A O5B 1_555 1_555
Cu1A_2 O4 1_555 1_555
Cu1B_2 Cu1 1_555 1_555
Cu1C O4B 1_555 1_555
Cu1C_2 O5 1_555 1_555
O3_2 Cu1B 1_555 1_555
O3B_2 Cu1 1_555 1_555
O4A Cu1 1_555 1_555
O4C Cu1B 1_555 1_555
O5A Cu1B 1_555 1_555
O5C Cu1 1_555 1_555
O3 Cu1B_2 1_555 1_555
C4 C5 1_555 1_555
C4 C6 1_555 1_555
C10 C21 1_555 1_555
C15 C20 1_555 1_555
C19 C20 1_555 1_555
C4B C5B 1_555 1_555
C4B C6B 1_555 1_555
C8B C9B 1_555 1_555
O3B Cu1_2 1_555 1_555
C10B C21B 1_555 1_555
C15B C20B 1_555 1_555
C19B C20B 1_555 1_555
Cu1A Cu1C 1_555 1_555
Cu1A_2 Cu1C_2 1_555 1_555

#END
