
#######################################################################
#
#                 Cambridge Crystallographic Data Centre
#                                CCDC 
#
#######################################################################
#
# If this CIF has been generated from an entry in the Cambridge 
# Structural Database, then it will include bibliographic, chemical, 
# crystal, experimental, refinement or atomic coordinate data resulting 
# from the CCDC's data processing and validation procedures.
#
#######################################################################

data_HITYUG
_symmetry_cell_setting           monoclinic
_symmetry_space_group_name_H-M   'C 2/c'
_symmetry_Int_Tables_number      15
_space_group_name_Hall           '-C 2yn'
loop_
_symmetry_equiv_pos_site_id
_symmetry_equiv_pos_as_xyz
1 x,y,z
2 -x,y,1/2-z
3 1/2+x,1/2+y,z
4 1/2-x,1/2+y,1/2-z
5 -x,-y,-z
6 x,-y,1/2+z
7 1/2-x,1/2-y,-z
8 1/2+x,1/2-y,1/2+z
_cell_length_a                   6.8317(6)
_cell_length_b                   21.0819(18)
_cell_length_c                   15.1676(14)
_cell_angle_alpha                90
_cell_angle_beta                 92.9920(10)
_cell_angle_gamma                90
_cell_volume                     2181.54
loop_
_atom_site_label
_atom_site_type_symbol
_atom_site_fract_x
_atom_site_fract_y
_atom_site_fract_z
Cu1 Cu 0.5000 -0.036269(14) 0.7500
N1 N 0.4404(2) 0.02621(7) 0.84377(10)
C1 C 0.1027(3) -0.17523(9) 0.75564(11)
C2 C 0.2740(3) 0.02226(9) 0.88651(14)
H1 H 0.1692 -0.0008 0.8614
O1 O 0.35715(18) -0.10649(6) 0.81008(8)
O2 O 0.18039(19) -0.07637(7) 0.69078(9)
N2 N 0.7310(2) 0.13073(8) 0.99720(11)
H2 H 0.7249 0.1379 1.0528
C3 C 0.2548(3) 0.05155(9) 0.96687(14)
H3 H 0.1394 0.0474 0.9962
O3 O 0.9202(2) 0.14669(8) 0.88051(9)
C4 C 0.4079(3) 0.08691(9) 1.00328(13)
H4 H 0.3974 0.1062 1.0580
C5 C 0.5788(3) 0.09368(9) 0.95789(12)
C6 C 0.5906(3) 0.06175(9) 0.87773(12)
H5 H 0.7045 0.0650 0.8470
C7 C 0.8882(3) 0.15681(9) 0.95731(13)
C8 C 1.0184(3) 0.19811(10) 1.01706(13)
H6 H 1.0809 0.1718 1.0628
H7 H 0.9376 0.2290 1.0456
C9 C 1.1763(3) 0.23305(10) 0.96871(13)
H8 H 1.2455 0.2029 0.9334
H9 H 1.1143 0.2639 0.9289
C10 C 0.2166(3) -0.11465(9) 0.75175(12)
C11 C 0.2019(3) -0.23243(9) 0.76186(13)
H10 H 0.3377 -0.2326 0.7705
C12 C 0.1007(3) -0.28950(10) 0.75538(15)
H11 H 0.1689 -0.3277 0.7583
N1F N 2.0596(2) 0.47379(7) 1.15623(10)
C2F C 2.2260(3) 0.47774(9) 1.11349(14)
H1F H 2.3308 0.5008 1.1386
N2F N 1.7690(2) 0.36927(8) 1.00280(11)
H2F H 1.7751 0.3621 0.9472
C3F C 2.2452(3) 0.44845(9) 1.03313(14)
H3F H 2.3606 0.4526 1.0038
O3F O 1.5798(2) 0.35331(8) 1.11949(9)
C4F C 2.0921(3) 0.41309(9) 0.99672(13)
H4F H 2.1026 0.3938 0.9420
C5F C 1.9212(3) 0.40632(9) 1.04211(12)
C6F C 1.9094(3) 0.43825(9) 1.12227(12)
H5F H 1.7955 0.4350 1.1530
C7F C 1.6118(3) 0.34319(9) 1.04269(13)
C8F C 1.4816(3) 0.30189(10) 0.98294(13)
H6F H 1.4191 0.3282 0.9372
H7F H 1.5624 0.2710 0.9544
C9F C 1.3237(3) 0.26695(10) 1.03129(13)
H8F H 1.2545 0.2971 1.0666
H9F H 1.3857 0.2361 1.0711
C1A C -0.1027(3) -0.17523(9) 0.74436(11)
O1A O -0.35715(18) -0.10649(6) 0.68992(8)
O2A O -0.18039(19) -0.07637(7) 0.80922(9)
C10A C -0.2166(3) -0.11465(9) 0.74825(12)
C11A C -0.2019(3) -0.23243(9) 0.73814(13)
H10A H -0.3377 -0.2326 0.7295
C12A C -0.1007(3) -0.28950(10) 0.74462(15)
H11A H -0.1689 -0.3277 0.7417
Cu1_2 Cu -0.5000 -0.036269(14) 0.7500
Cu1F Cu 2.0000 0.536269(14) 1.2500
N1A N 0.5596(2) 0.02621(7) 0.65623(10)
O1A_2 O 0.64285(18) -0.10649(6) 0.68992(8)
O2A_2 O 0.81961(19) -0.07637(7) 0.80922(9)
loop_
_geom_bond_atom_site_label_1
_geom_bond_atom_site_label_2
_geom_bond_site_symmetry_1
_geom_bond_site_symmetry_2
Cu1 N1 1_555 1_555
N1 C2 1_555 1_555
C1 C10 1_555 1_555
C2 H1 1_555 1_555
O1 Cu1 1_555 1_555
O2 Cu1 1_555 1_555
N2 H2 1_555 1_555
C3 C2 1_555 1_555
H3 C3 1_555 1_555
O3 C7 1_555 1_555
C4 C3 1_555 1_555
H4 C4 1_555 1_555
C5 N2 1_555 1_555
C6 N1 1_555 1_555
H5 C6 1_555 1_555
C7 N2 1_555 1_555
C8 C7 1_555 1_555
H6 C8 1_555 1_555
H7 C8 1_555 1_555
C9 C8 1_555 1_555
H8 C9 1_555 1_555
H9 C9 1_555 1_555
C10 O1 1_555 1_555
C11 C1 1_555 1_555
H10 C11 1_555 1_555
C12 C11 1_555 1_555
H11 C12 1_555 1_555
N1F C2F 1_555 1_555
C2F H1F 1_555 1_555
N2F H2F 1_555 1_555
C3F C2F 1_555 1_555
H3F C3F 1_555 1_555
O3F C7F 1_555 1_555
C4F C3F 1_555 1_555
H4F C4F 1_555 1_555
C5F N2F 1_555 1_555
C6F N1F 1_555 1_555
H5F C6F 1_555 1_555
C7F N2F 1_555 1_555
C8F C7F 1_555 1_555
H6F C8F 1_555 1_555
H7F C8F 1_555 1_555
C9F C9 1_555 1_555
H8F C9F 1_555 1_555
H9F C9F 1_555 1_555
C1A C1 1_555 1_555
O1A C10A 1_555 1_555
O2A C10A 1_555 1_555
C10A C1A 1_555 1_555
C11A C1A 1_555 1_555
H10A C11A 1_555 1_555
C12A C12 1_555 1_555
H11A C12A 1_555 1_555
Cu1_2 O1A 1_555 1_555
Cu1F N1F 1_555 1_555
N1A Cu1 1_555 1_555
O1A_2 Cu1 1_555 1_555
O2A_2 Cu1 1_555 1_555
O2 C10 1_555 1_555
C4 C5 1_555 1_555
C5 C6 1_555 1_555
C4F C5F 1_555 1_555
C5F C6F 1_555 1_555
C8F C9F 1_555 1_555
O2A Cu1_2 1_555 1_555
C11A C12A 1_555 1_555

#END
