
#######################################################################
#
#                 Cambridge Crystallographic Data Centre
#                                CCDC 
#
#######################################################################
#
# If this CIF has been generated from an entry in the Cambridge 
# Structural Database, then it will include bibliographic, chemical, 
# crystal, experimental, refinement or atomic coordinate data resulting 
# from the CCDC's data processing and validation procedures.
#
#######################################################################

data_HITYEQ
_symmetry_cell_setting           monoclinic
_symmetry_space_group_name_H-M   'C 2/c'
_symmetry_Int_Tables_number      15
_space_group_name_Hall           '-C 2yn'
loop_
_symmetry_equiv_pos_site_id
_symmetry_equiv_pos_as_xyz
1 x,y,z
2 -x,y,1/2-z
3 1/2+x,1/2+y,z
4 1/2-x,1/2+y,1/2-z
5 -x,-y,-z
6 x,-y,1/2+z
7 1/2-x,1/2-y,-z
8 1/2+x,1/2-y,1/2+z
_cell_length_a                   18.4100(9)
_cell_length_b                   16.2894(8)
_cell_length_c                   15.8517(7)
_cell_angle_alpha                90
_cell_angle_beta                 108.9080(10)
_cell_angle_gamma                90
_cell_volume                     4497.22
loop_
_atom_site_label
_atom_site_type_symbol
_atom_site_fract_x
_atom_site_fract_y
_atom_site_fract_z
Cu1 Cu -0.289859(17) 0.354536(17) -0.22547(2)
O1 O -0.33681(10) 0.24549(10) -0.25507(12)
N1 N -0.29833(12) 0.34866(12) -0.10132(14)
C1 C -0.40714(14) 0.23286(15) -0.29990(16)
O2 O -0.40052(13) 0.43290(13) -0.27845(16)
H1 H -0.4332 0.4716 -0.2887
H2 H -0.4217 0.3923 -0.3107
O3 O -0.45777(11) 0.28667(12) -0.32158(14)
N2 N -0.45094(13) 0.34440(14) -0.00094(16)
H3 H -0.4833 0.3104 -0.0345
C2 C -0.43036(14) 0.14639(15) -0.32717(17)
O4 O -0.36580(12) -0.13665(11) -0.34287(15)
N3 N -0.64166(13) 0.28645(14) 0.08342(16)
H4 H -0.6511 0.3280 0.1116
C3 C -0.37685(14) 0.08379(15) -0.31617(16)
H5 H -0.3248 0.0953 -0.2914
O5 O -0.27231(10) -0.04442(10) -0.30878(13)
N4 N -0.75907(13) 0.14696(12) 0.16236(15)
C4 C -0.40062(14) 0.00397(15) -0.34197(18)
O6 O -0.57475(15) 0.24646(16) -0.00585(18)
C5 C -0.34360(15) -0.06423(15) -0.33062(18)
O7 O -0.43235(13) 0.44358(16) 0.10176(19)
C6 C -0.47814(17) -0.01334(19) -0.3785(2)
H6 H -0.4942 -0.0667 -0.3954
C7 C -0.53147(17) 0.0484(2) -0.3897(3)
H7 H -0.5835 0.0367 -0.4144
C8 C -0.50774(16) 0.12787(18) -0.3642(2)
H8 H -0.5441 0.1693 -0.3721
C9 C -0.36736(15) 0.34597(15) -0.08999(18)
H9 H -0.4110 0.3436 -0.1401
C10 C -0.37602(15) 0.34656(15) -0.00650(18)
C11 C -0.47436(16) 0.39228(18) 0.05361(19)
C12 C -0.55735(17) 0.38469(19) 0.0492(2)
H10 H -0.5883 0.4173 -0.0007
H11 H -0.5625 0.4086 0.1030
C13 C -0.59069(16) 0.29856(18) 0.03932(19)
C14 C -0.68057(15) 0.21391(16) 0.08817(17)
C15 C -0.68188(17) 0.14365(17) 0.0375(2)
H12 H -0.6560 0.1419 -0.0040
C16 C -0.72294(17) 0.07664(17) 0.0511(2)
H13 H -0.7257 0.0294 0.0172
C17 C -0.31108(16) 0.34853(16) 0.06864(18)
H14 H -0.3152 0.3479 0.1256
C18 C -0.24042(16) 0.35151(16) 0.05633(18)
H15 H -0.1959 0.3533 0.1055
C19 C -0.23538(15) 0.35183(15) -0.02850(18)
H16 H -0.1872 0.3543 -0.0356
C20 C -0.72147(14) 0.21296(16) 0.14852(17)
H17 H -0.7226 0.2605 0.1806
C21 C -0.75960(16) 0.07908(16) 0.11387(18)
H18 H -0.7854 0.0327 0.1231
Cu1C Cu -0.210141(17) -0.145464(17) -0.27453(2)
Cu1G Cu -0.789859(17) 0.145464(17) 0.27453(2)
O4C O -0.13420(12) 0.36335(11) -0.15713(15)
O5C O -0.22769(10) 0.45558(10) -0.19122(13)
N4G N -0.25907(13) 0.35304(12) -0.33764(15)
O8 O -0.17313(15) 0.09319(16) -0.30229(19)
H19 H -0.1656 0.0552 -0.3353
H20 H -0.1347 0.0942 -0.2548
O9 O -0.4474(2) -0.2697(2) -0.3010(2)
H21 H -0.4507 -0.2498 -0.3517
H22 H -0.4323 -0.2316 -0.2626
loop_
_geom_bond_atom_site_label_1
_geom_bond_atom_site_label_2
_geom_bond_site_symmetry_1
_geom_bond_site_symmetry_2
Cu1 O1 1_555 1_555
O1 C1 1_555 1_555
N1 Cu1 1_555 1_555
C1 O3 1_555 1_555
O2 Cu1 1_555 1_555
H1 O2 1_555 1_555
H2 O2 1_555 1_555
N2 H3 1_555 1_555
C2 C1 1_555 1_555
O4 C5 1_555 1_555
N3 H4 1_555 1_555
C3 C2 1_555 1_555
H5 C3 1_555 1_555
O5 C5 1_555 1_555
N4 C20 1_555 1_555
C4 C3 1_555 1_555
O6 C13 1_555 1_555
C5 C4 1_555 1_555
O7 C11 1_555 1_555
C6 C4 1_555 1_555
H6 C6 1_555 1_555
C7 C6 1_555 1_555
H7 C7 1_555 1_555
C8 C2 1_555 1_555
H8 C8 1_555 1_555
C9 N1 1_555 1_555
H9 C9 1_555 1_555
C10 N2 1_555 1_555
C11 N2 1_555 1_555
C12 C11 1_555 1_555
H10 C12 1_555 1_555
H11 C12 1_555 1_555
C13 N3 1_555 1_555
C14 N3 1_555 1_555
C15 C14 1_555 1_555
H12 C15 1_555 1_555
C16 C15 1_555 1_555
H13 C16 1_555 1_555
C17 C10 1_555 1_555
H14 C17 1_555 1_555
C18 C17 1_555 1_555
H15 C18 1_555 1_555
C19 N1 1_555 1_555
H16 C19 1_555 1_555
C20 C14 1_555 1_555
H17 C20 1_555 1_555
C21 N4 1_555 1_555
H18 C21 1_555 1_555
O8 H19 1_555 1_555
H20 O8 1_555 1_555
O9 H21 1_555 1_555
H22 O9 1_555 1_555
Cu1C O4 1_555 1_555
Cu1G N4 1_555 1_555
O4C Cu1 1_555 1_555
O5C Cu1 1_555 1_555
N4G Cu1 1_555 1_555
O5 Cu1C 1_555 1_555
C7 C8 1_555 1_555
C9 C10 1_555 1_555
C12 C13 1_555 1_555
C16 C21 1_555 1_555
C18 C19 1_555 1_555

#END
