
#######################################################################
#
#                 Cambridge Crystallographic Data Centre
#                                CCDC 
#
#######################################################################
#
# If this CIF has been generated from an entry in the Cambridge 
# Structural Database, then it will include bibliographic, chemical, 
# crystal, experimental, refinement or atomic coordinate data resulting 
# from the CCDC's data processing and validation procedures.
#
#######################################################################

data_HITYOA
_symmetry_cell_setting           monoclinic
_symmetry_space_group_name_H-M   'P 2/c'
_symmetry_Int_Tables_number      13
_space_group_name_Hall           '-P 2yc'
loop_
_symmetry_equiv_pos_site_id
_symmetry_equiv_pos_as_xyz
1 x,y,z
2 -x,y,1/2-z
3 -x,-y,-z
4 x,-y,1/2+z
_cell_length_a                   6.9266(6)
_cell_length_b                   13.3091(11)
_cell_length_c                   15.0058(13)
_cell_angle_alpha                90
_cell_angle_beta                 95.106(2)
_cell_angle_gamma                90
_cell_volume                     1377.85
loop_
_atom_site_label
_atom_site_type_symbol
_atom_site_fract_x
_atom_site_fract_y
_atom_site_fract_z
Cu1 Cu 1.0000 0.57355(3) 0.2500
O1 O 0.8596(3) 0.68376(14) 0.30878(12)
N1 N 1.0773(3) 0.47260(17) 0.16132(15)
C1 C 0.9368(4) 0.4139(2) 0.12292(18)
H1 H 0.8198 0.4101 0.1487
O2 O 0.6746(3) 0.63518(15) 0.18850(13)
N2 N 0.8080(4) 0.29967(18) 0.00449(15)
H2 H 0.7964 0.2979 -0.0530
C2 C 0.9585(4) 0.3583(2) 0.04604(18)
O3 O 0.6852(4) 0.2442(3) 0.12911(15)
C3 C 1.1325(4) 0.3658(2) 0.00731(19)
H3 H 1.1499 0.3324 -0.0458
C4 C 1.2799(4) 0.4239(2) 0.0492(2)
H4 H 1.3993 0.4275 0.0255
C5 C 1.2500(4) 0.4764(2) 0.1259(2)
H5 H 1.3499 0.5151 0.1537
C6 C 0.6788(4) 0.2454(2) 0.04789(19)
C7 C 0.5298(4) 0.1888(2) -0.01182(19)
H6 H 0.5954 0.1397 -0.0462
H7 H 0.4635 0.2356 -0.0537
C8 C 0.3804(4) 0.1351(2) 0.0395(2)
H8 H 0.4456 0.0853 0.0786
H9 H 0.3204 0.1835 0.0768
C9 C 0.2237(4) 0.0838(2) -0.0214(2)
H10 H 0.2840 0.0364 -0.0594
H11 H 0.1572 0.1339 -0.0598
C10 C 0.0751(4) 0.0283(2) 0.0297(2)
H12 H 0.1428 -0.0188 0.0708
H13 H 0.0097 0.0765 0.0650
C11 C 0.6018(3) 0.79167(19) 0.25448(15)
C12 C 0.6993(4) 0.8828(2) 0.25971(18)
H14 H 0.8341 0.8832 0.2665
C13 C 0.6001(4) 0.9732(2) 0.25500(19)
H15 H 0.6678 1.0336 0.2586
C14 C 0.7150(3) 0.6959(2) 0.25013(17)
O1A O 0.1404(3) 0.68376(14) 0.19122(12)
O2A O 0.3254(3) 0.63518(15) 0.31150(13)
C11A C 0.3982(3) 0.79167(19) 0.24552(15)
C12A C 0.3007(4) 0.8828(2) 0.24029(18)
H14A H 0.1659 0.8832 0.2335
C13A C 0.3999(4) 0.9732(2) 0.24500(19)
H15A H 0.3322 1.0336 0.2414
C14A C 0.2850(3) 0.6959(2) 0.24987(17)
N1B N -1.0773(3) -0.47260(17) -0.16132(15)
C1B C -0.9368(4) -0.4139(2) -0.12292(18)
H1B H -0.8198 -0.4101 -0.1487
N2B N -0.8080(4) -0.29967(18) -0.00449(15)
H2B H -0.7964 -0.2979 0.0530
C2B C -0.9585(4) -0.3583(2) -0.04604(18)
O3B O -0.6852(4) -0.2442(3) -0.12911(15)
C3B C -1.1325(4) -0.3658(2) -0.00731(19)
H3B H -1.1499 -0.3324 0.0458
C4B C -1.2799(4) -0.4239(2) -0.0492(2)
H4B H -1.3993 -0.4275 -0.0255
C5B C -1.2500(4) -0.4764(2) -0.1259(2)
H5B H -1.3499 -0.5151 -0.1537
C6B C -0.6788(4) -0.2454(2) -0.04789(19)
C7B C -0.5298(4) -0.1888(2) 0.01182(19)
H6B H -0.5954 -0.1397 0.0462
H7B H -0.4635 -0.2356 0.0537
C8B C -0.3804(4) -0.1351(2) -0.0395(2)
H8B H -0.4456 -0.0853 -0.0786
H9B H -0.3204 -0.1835 -0.0768
C9B C -0.2237(4) -0.0838(2) 0.0214(2)
H10B H -0.2840 -0.0364 0.0594
H11B H -0.1572 -0.1339 0.0598
C10B C -0.0751(4) -0.0283(2) -0.0297(2)
H12B H -0.1428 0.0188 -0.0708
H13B H -0.0097 -0.0765 -0.0650
Cu1_2 Cu 0.0000 0.57355(3) 0.2500
Cu1B Cu -1.0000 -0.57355(3) -0.2500
O1A_2 O 1.1404(3) 0.68376(14) 0.19122(12)
N1A N 0.9227(3) 0.47260(17) 0.33868(15)
O2A_2 O 1.3254(3) 0.63518(15) 0.31150(13)
O4 O 1.0000 0.1547(7) 0.2500
H16 H 1.0966 0.2000 0.2184
H16A H 0.9034 0.2000 0.2816
loop_
_geom_bond_atom_site_label_1
_geom_bond_atom_site_label_2
_geom_bond_site_symmetry_1
_geom_bond_site_symmetry_2
Cu1 O1 1_555 1_555
O1 C14 1_555 1_555
N1 Cu1 1_555 1_555
C1 N1 1_555 1_555
H1 C1 1_555 1_555
O2 Cu1 1_555 1_555
N2 H2 1_555 1_555
C2 C1 1_555 1_555
O3 C6 1_555 1_555
C3 C2 1_555 1_555
H3 C3 1_555 1_555
C4 C3 1_555 1_555
H4 C4 1_555 1_555
C5 N1 1_555 1_555
H5 C5 1_555 1_555
C6 N2 1_555 1_555
C7 C6 1_555 1_555
H6 C7 1_555 1_555
H7 C7 1_555 1_555
C8 C7 1_555 1_555
H8 C8 1_555 1_555
H9 C8 1_555 1_555
C9 C8 1_555 1_555
H10 C9 1_555 1_555
H11 C9 1_555 1_555
C10 C9 1_555 1_555
H12 C10 1_555 1_555
H13 C10 1_555 1_555
C11 C12 1_555 1_555
C12 H14 1_555 1_555
C13 C12 1_555 1_555
H15 C13 1_555 1_555
C14 O2 1_555 1_555
O4 H16 1_555 1_555
O1A C14A 1_555 1_555
O2A C14A 1_555 1_555
C11A C11 1_555 1_555
C12A C11A 1_555 1_555
H14A C12A 1_555 1_555
C13A C13 1_555 1_555
H15A C13A 1_555 1_555
C14A C11A 1_555 1_555
N1B C1B 1_555 1_555
C1B H1B 1_555 1_555
N2B H2B 1_555 1_555
C2B C1B 1_555 1_555
O3B C6B 1_555 1_555
C3B C2B 1_555 1_555
H3B C3B 1_555 1_555
C4B C3B 1_555 1_555
H4B C4B 1_555 1_555
C5B N1B 1_555 1_555
H5B C5B 1_555 1_555
C6B N2B 1_555 1_555
C7B C6B 1_555 1_555
H6B C7B 1_555 1_555
H7B C7B 1_555 1_555
C8B C7B 1_555 1_555
H8B C8B 1_555 1_555
H9B C8B 1_555 1_555
C9B C8B 1_555 1_555
H10B C9B 1_555 1_555
H11B C9B 1_555 1_555
C10B C10 1_555 1_555
H12B C10B 1_555 1_555
H13B C10B 1_555 1_555
Cu1_2 O1A 1_555 1_555
Cu1B N1B 1_555 1_555
O1A_2 Cu1 1_555 1_555
N1A Cu1 1_555 1_555
O2A_2 Cu1 1_555 1_555
H16A O4 1_555 1_555
N2 C2 1_555 1_555
C4 C5 1_555 1_555
C11 C14 1_555 1_555
O2A Cu1_2 1_555 1_555
C12A C13A 1_555 1_555
N2B C2B 1_555 1_555
C4B C5B 1_555 1_555
C9B C10B 1_555 1_555

#END
