
#######################################################################
#
#                 Cambridge Crystallographic Data Centre
#                                CCDC 
#
#######################################################################
#
# If this CIF has been generated from an entry in the Cambridge 
# Structural Database, then it will include bibliographic, chemical, 
# crystal, experimental, refinement or atomic coordinate data resulting 
# from the CCDC's data processing and validation procedures.
#
#######################################################################

data_HITZAN
_symmetry_cell_setting           monoclinic
_symmetry_space_group_name_H-M   'C 2/c'
_symmetry_Int_Tables_number      15
_space_group_name_Hall           '-C 2yn'
loop_
_symmetry_equiv_pos_site_id
_symmetry_equiv_pos_as_xyz
1 x,y,z
2 -x,y,1/2-z
3 1/2+x,1/2+y,z
4 1/2-x,1/2+y,1/2-z
5 -x,-y,-z
6 x,-y,1/2+z
7 1/2-x,1/2-y,-z
8 1/2+x,1/2-y,1/2+z
_cell_length_a                   15.455(5)
_cell_length_b                   15.314(5)
_cell_length_c                   18.078(8)
_cell_angle_alpha                90
_cell_angle_beta                 91.390(8)
_cell_angle_gamma                90
_cell_volume                     4277.4
loop_
_atom_site_label
_atom_site_type_symbol
_atom_site_fract_x
_atom_site_fract_y
_atom_site_fract_z
Cu1 Cu 0.00006(6) 0.25368(8) 0.09501(6)
O1 O -0.0878(4) 0.2906(4) 0.1657(4)
N1 N -0.0368(4) 0.3384(5) 0.0169(4)
C1 C -0.1176(6) 0.3710(7) 0.0118(5)
H1 H -0.1594 0.3515 0.0441
O2 O -0.1268(6) 0.1592(6) 0.1376(6)
N2 N 0.5368(4) 0.6662(5) 0.0198(4)
C2 C -0.1388(6) 0.4324(7) -0.0406(6)
H2 H -0.1950 0.4541 -0.0439
O3 O -0.0847(4) 0.2157(4) 0.3265(4)
C3 C -0.0770(6) 0.4626(7) -0.0887(6)
H3 H -0.0908 0.5048 -0.1240
O4 O -0.1365(6) 0.3331(6) 0.3782(6)
C4 C 0.0075(5) 0.4275(6) -0.0827(5)
N3 N 0.0685(5) 0.4620(5) -0.1321(5)
H4 H 0.0478 0.4937 -0.1676
C5 C 0.0233(5) 0.3681(6) -0.0298(5)
H5 H 0.0792 0.3460 -0.0249
N4 N 0.4295(5) 0.5357(5) -0.1277(4)
H6 H 0.4497 0.5055 -0.1635
C6 C 0.1563(5) 0.4511(6) -0.1299(5)
C7 C 0.1999(6) 0.5006(7) -0.1906(6)
H7 H 0.1851 0.5619 -0.1866
H8 H 0.1776 0.4797 -0.2380
C8 C 0.2974(6) 0.4916(7) -0.1888(6)
H9 H 0.3122 0.4303 -0.1832
H10 H 0.3194 0.5111 -0.2358
O5 O 0.1928(4) 0.4045(5) -0.0847(4)
C9 C 0.3419(6) 0.5426(7) -0.1273(5)
O6 O 0.3043(4) 0.5863(5) -0.0819(4)
C10 C 0.4917(6) 0.5698(6) -0.0785(5)
C11 C 0.5772(6) 0.5418(6) -0.0856(6)
H11 H 0.5918 0.5005 -0.1209
C12 C 0.6386(6) 0.5773(7) -0.0389(6)
H12 H 0.6960 0.5596 -0.0425
C13 C 0.6176(5) 0.6385(7) 0.0134(6)
H13 H 0.6607 0.6608 0.0447
C14 C 0.4747(5) 0.6326(6) -0.0267(5)
H14 H 0.4183 0.6531 -0.0232
C15 C -0.1405(6) 0.2267(5) 0.1692(5)
C16 C -0.2212(5) 0.2387(6) 0.2107(5)
C17 C -0.2991(7) 0.2266(7) 0.1722(7)
H15 H -0.2991 0.2076 0.1233
C18 C -0.3754(7) 0.2425(10) 0.2054(9)
H16 H -0.4270 0.2363 0.1784
C19 C -0.3773(7) 0.2673(10) 0.2774(9)
H17 H -0.4300 0.2761 0.2999
C20 C -0.3006(6) 0.2793(8) 0.3170(7)
H18 H -0.3020 0.2973 0.3661
C21 C -0.2221(5) 0.2649(5) 0.2845(5)
C22 C -0.1417(5) 0.2750(6) 0.3316(5)
Cu1A Cu -0.00006(6) 0.25368(8) 0.40499(6)
Cu1B Cu 0.50006(6) 0.75368(8) 0.09501(6)
N2B N 0.0368(4) 0.1662(5) 0.0198(4)
O3A O 0.0847(4) 0.2157(4) 0.1735(4)
O4A O 0.1365(6) 0.3331(6) 0.1218(6)
O7 O 0.0000 0.5795(7) -0.2500
H19 H 0.0156 0.6269 -0.2292
H19A H -0.0156 0.6269 -0.2708
O8 O 0.5000 0.4311(7) -0.2500
H20 H 0.4737 0.3957 -0.2789
H20A H 0.5263 0.3957 -0.2211
loop_
_geom_bond_atom_site_label_1
_geom_bond_atom_site_label_2
_geom_bond_site_symmetry_1
_geom_bond_site_symmetry_2
Cu1 O1 1_555 1_555
O1 C15 1_555 1_555
N1 Cu1 1_555 1_555
C1 N1 1_555 1_555
H1 C1 1_555 1_555
O2 Cu1 1_555 1_555
N2 C13 1_555 1_555
C2 C1 1_555 1_555
H2 C2 1_555 1_555
O3 C22 1_555 1_555
C3 C2 1_555 1_555
H3 C3 1_555 1_555
O4 C22 1_555 1_555
C4 C3 1_555 1_555
N3 C4 1_555 1_555
H4 N3 1_555 1_555
C5 N1 1_555 1_555
H5 C5 1_555 1_555
N4 H6 1_555 1_555
C6 N3 1_555 1_555
C7 C6 1_555 1_555
H7 C7 1_555 1_555
H8 C7 1_555 1_555
C8 C7 1_555 1_555
H9 C8 1_555 1_555
H10 C8 1_555 1_555
O5 C6 1_555 1_555
C9 N4 1_555 1_555
O6 C9 1_555 1_555
C10 N4 1_555 1_555
C11 C10 1_555 1_555
H11 C11 1_555 1_555
C12 C11 1_555 1_555
H12 C12 1_555 1_555
C13 C12 1_555 1_555
H13 C13 1_555 1_555
C14 N2 1_555 1_555
H14 C14 1_555 1_555
C15 O2 1_555 1_555
C16 C15 1_555 1_555
C17 C16 1_555 1_555
H15 C17 1_555 1_555
C18 C17 1_555 1_555
H16 C18 1_555 1_555
C19 C18 1_555 1_555
H17 C19 1_555 1_555
C20 C19 1_555 1_555
H18 C20 1_555 1_555
C21 C16 1_555 1_555
C22 C21 1_555 1_555
O7 H19 1_555 1_555
O8 H20 1_555 1_555
Cu1A O3 1_555 1_555
Cu1B N2 1_555 1_555
N2B Cu1 1_555 1_555
O3A Cu1 1_555 1_555
O4A Cu1 1_555 1_555
H19A O7 1_555 1_555
H20A O8 1_555 1_555
O4 Cu1A 1_555 1_555
C4 C5 1_555 1_555
C8 C9 1_555 1_555
C10 C14 1_555 1_555
C20 C21 1_555 1_555

#END
