
#######################################################################
#
#                 Cambridge Crystallographic Data Centre
#                                CCDC 
#
#######################################################################
#
# If this CIF has been generated from an entry in the Cambridge 
# Structural Database, then it will include bibliographic, chemical, 
# crystal, experimental, refinement or atomic coordinate data resulting 
# from the CCDC's data processing and validation procedures.
#
#######################################################################

data_HITZER
_symmetry_cell_setting           orthorhombic
_symmetry_space_group_name_H-M   'P b c n'
_symmetry_Int_Tables_number      60
_space_group_name_Hall           '-P 2n 2ab'
loop_
_symmetry_equiv_pos_site_id
_symmetry_equiv_pos_as_xyz
1 x,y,z
2 1/2-x,1/2-y,1/2+z
3 1/2+x,1/2-y,-z
4 -x,y,1/2-z
5 -x,-y,-z
6 1/2+x,1/2+y,1/2-z
7 1/2-x,1/2+y,z
8 x,-y,1/2+z
_cell_length_a                   10.9568(7)
_cell_length_b                   17.7717(12)
_cell_length_c                   22.2155(15)
_cell_angle_alpha                90
_cell_angle_beta                 90
_cell_angle_gamma                90
_cell_volume                     4325.82
loop_
_atom_site_label
_atom_site_type_symbol
_atom_site_fract_x
_atom_site_fract_y
_atom_site_fract_z
C1 C 0.9325(4) 0.0034(3) 0.0078(2)
H1 H 0.8849 -0.0173 -0.0251
H2 H 0.9160 -0.0266 0.0433
O1 O 0.4566(3) 0.24929(16) 0.16450(17)
O2 O 1.0000 0.6376(3) 0.2500
H3 H 1.0419 0.6661 0.2215
Cu1 Cu 1.0000 0.51424(3) 0.2500
O3 O 1.0865(3) 0.50493(17) 0.17200(13)
H4 H 1.0423 0.5139 0.1498
H5 H 1.1357 0.5204 0.1757
C2 C 0.8912(4) 0.0828(3) 0.0192(3)
H6 H 0.8998 0.1112 -0.0178
H7 H 0.9454 0.1052 0.0487
N1 N 0.2090(3) 0.20488(19) 0.07037(16)
O4 O 0.2847(3) 0.31504(16) 0.15597(15)
Cu2 Cu 0.17311(4) 0.23017(3) 0.15702(2)
C3 C 0.7605(5) 0.0913(3) 0.0415(2)
H8 H 0.7494 0.0597 0.0767
H9 H 0.7478 0.1431 0.0539
O5 O 0.4556(3) 0.65255(15) 0.16064(14)
O6 O 0.1483(3) 0.24498(18) 0.24452(14)
H10 H 0.1460 0.2900 0.2522
H11 H 0.1782 0.2333 0.2697
N2 N 0.4641(3) 0.1258(2) -0.01704(17)
H12 H 0.4893 0.1336 -0.0532
C4 C 0.6654(4) 0.0710(3) -0.0045(2)
H13 H 0.6729 0.0181 -0.0148
H14 H 0.6786 0.1002 -0.0408
O7 O 0.2842(3) 0.58919(17) 0.16936(16)
O8 O 0.0382(3) 0.34015(17) 0.13959(14)
H15 H 0.0693 0.3721 0.1477
H16 H -0.0253 0.3551 0.1635
C5 C 0.5391(4) 0.0863(3) 0.0195(2)
O9 O 0.8417(2) 0.51152(17) 0.20997(14)
C6 C 0.3485(4) 0.1556(2) -0.0020(2)
O10 O 0.8424(3) 0.38693(18) 0.20718(16)
C7 C 0.2662(4) 0.1714(3) -0.0478(2)
H17 H 0.2858 0.1611 -0.0877
O11 O 0.5085(3) 0.0657(2) 0.06974(16)
C8 C 0.1545(4) 0.2026(3) -0.0331(2)
H18 H 0.0977 0.2135 -0.0630
C9 C 0.1288(4) 0.2173(2) 0.0263(2)
H19 H 0.0525 0.2366 0.0362
C10 C 0.3169(4) 0.1742(2) 0.0563(2)
H20 H 0.3728 0.1651 0.0869
C11 C 0.4009(4) 0.3090(2) 0.16208(18)
C12 C 0.4688(3) 0.3830(2) 0.16625(17)
C13 C 0.5934(3) 0.3831(2) 0.17863(17)
H21 H 0.6348 0.3377 0.1825
C14 C 0.6563(3) 0.4503(2) 0.18526(17)
C15 C 0.5935(3) 0.5184(2) 0.17970(17)
H22 H 0.6354 0.5637 0.1837
C16 C 0.4686(3) 0.5189(2) 0.16822(17)
C17 C 0.4072(3) 0.4506(2) 0.16158(17)
H23 H 0.3238 0.4506 0.1539
C18 C 0.7903(3) 0.4485(2) 0.20201(18)
C19 C 0.3976(4) 0.5907(2) 0.16604(18)
C1D C 1.0675(4) -0.0034(3) -0.0078(2)
H1D H 1.1151 0.0173 0.0251
H2D H 1.0840 0.0266 -0.0433
C2D C 1.1088(4) -0.0828(3) -0.0192(3)
H6D H 1.1002 -0.1112 0.0178
H7D H 1.0546 -0.1052 -0.0487
N1D N 1.7910(3) -0.20488(19) -0.07037(16)
C3D C 1.2395(5) -0.0913(3) -0.0415(2)
H8D H 1.2506 -0.0597 -0.0767
H9D H 1.2522 -0.1431 -0.0539
N2D N 1.5359(3) -0.1258(2) 0.01704(17)
H12D H 1.5107 -0.1336 0.0532
C4D C 1.3346(4) -0.0710(3) 0.0045(2)
H13D H 1.3271 -0.0181 0.0148
H14D H 1.3214 -0.1002 0.0408
C5D C 1.4609(4) -0.0863(3) -0.0195(2)
C6D C 1.6515(4) -0.1556(2) 0.0020(2)
C7D C 1.7338(4) -0.1714(3) 0.0478(2)
H17D H 1.7142 -0.1611 0.0877
O11D O 1.4915(3) -0.0657(2) -0.06974(16)
C8D C 1.8455(4) -0.2026(3) 0.0331(2)
H18D H 1.9023 -0.2135 0.0630
C9D C 1.8712(4) -0.2173(2) -0.0263(2)
H19D H 1.9475 -0.2366 -0.0362
C10D C 1.6831(4) -0.1742(2) -0.0563(2)
H20D H 1.6272 -0.1651 -0.0869
H3C H 0.9581 0.6661 0.2785
O1C O 1.5434(3) 0.24929(16) 0.33550(17)
O3C O 0.9135(3) 0.50493(17) 0.32800(13)
H4C H 0.9577 0.5139 0.3502
H5C H 0.8643 0.5204 0.3243
O4C O 1.7153(3) 0.31504(16) 0.34403(15)
Cu2C Cu 1.82689(4) 0.23017(3) 0.34298(2)
O5C O 1.5444(3) 0.65255(15) 0.33936(14)
O6C O 1.8517(3) 0.24498(18) 0.25548(14)
H10C H 1.8540 0.2900 0.2478
H11C H 1.8218 0.2333 0.2303
O7C O 1.7158(3) 0.58919(17) 0.33064(16)
O8C O 1.9618(3) 0.34015(17) 0.36041(14)
H15C H 1.9307 0.3721 0.3523
H16C H 2.0253 0.3551 0.3365
O9C O 1.1583(2) 0.51152(17) 0.29003(14)
O10C O 1.1576(3) 0.38693(18) 0.29282(16)
C11C C 1.5991(4) 0.3090(2) 0.33792(18)
C12C C 1.5312(3) 0.3830(2) 0.33375(17)
C13C C 1.4066(3) 0.3831(2) 0.32137(17)
H21C H 1.3652 0.3377 0.3175
C14C C 1.3437(3) 0.4503(2) 0.31474(17)
C15C C 1.4065(3) 0.5184(2) 0.32030(17)
H22C H 1.3646 0.5637 0.3163
C16C C 1.5314(3) 0.5189(2) 0.33178(17)
C17C C 1.5928(3) 0.4506(2) 0.33842(17)
H23C H 1.6762 0.4506 0.3461
C18C C 1.2097(3) 0.4485(2) 0.29799(18)
C19C C 1.6024(4) 0.5907(2) 0.33396(18)
N1C N 1.7910(3) 0.20488(19) 0.42963(16)
Cu2D Cu 1.82689(4) -0.23017(3) -0.15702(2)
Cu2E Cu 1.67311(4) 0.73017(3) 0.34298(2)
Cu2F Cu 0.32689(4) 0.73017(3) 0.15702(2)
O5E O 1.9556(3) 0.15255(15) 0.33936(14)
O5F O 0.0444(3) 0.15255(15) 0.16064(14)
O7E O 1.7842(3) 0.08919(17) 0.33064(16)
O7F O 0.2158(3) 0.08919(17) 0.16936(16)
O12 O 0.3000(7) 0.1801(4) 0.3221(4)
loop_
_geom_bond_atom_site_label_1
_geom_bond_atom_site_label_2
_geom_bond_site_symmetry_1
_geom_bond_site_symmetry_2
C1 H1 1_555 1_555
H2 C1 1_555 1_555
O1 C11 1_555 1_555
O2 H3 1_555 1_555
Cu1 O2 1_555 1_555
O3 Cu1 1_555 1_555
H4 O3 1_555 1_555
H5 O3 1_555 1_555
C2 C1 1_555 1_555
H6 C2 1_555 1_555
H7 C2 1_555 1_555
N1 Cu2 1_555 1_555
O4 Cu2 1_555 1_555
Cu2 O6 1_555 1_555
C3 C2 1_555 1_555
H8 C3 1_555 1_555
H9 C3 1_555 1_555
O5 C19 1_555 1_555
O6 H10 1_555 1_555
H11 O6 1_555 1_555
N2 H12 1_555 1_555
C4 C3 1_555 1_555
H13 C4 1_555 1_555
H14 C4 1_555 1_555
O7 C19 1_555 1_555
O8 Cu2 1_555 1_555
H15 O8 1_555 1_555
H16 O8 1_555 1_555
C5 N2 1_555 1_555
O9 Cu1 1_555 1_555
C6 N2 1_555 1_555
O10 C18 1_555 1_555
C7 C6 1_555 1_555
H17 C7 1_555 1_555
O11 C5 1_555 1_555
C8 C7 1_555 1_555
H18 C8 1_555 1_555
C9 N1 1_555 1_555
H19 C9 1_555 1_555
C10 N1 1_555 1_555
H20 C10 1_555 1_555
C11 O4 1_555 1_555
C12 C11 1_555 1_555
C13 C12 1_555 1_555
H21 C13 1_555 1_555
C14 C13 1_555 1_555
C15 C14 1_555 1_555
H22 C15 1_555 1_555
C16 C15 1_555 1_555
C17 C12 1_555 1_555
H23 C17 1_555 1_555
C18 O9 1_555 1_555
C19 C16 1_555 1_555
C1D C1 1_555 1_555
H1D C1D 1_555 1_555
H2D C1D 1_555 1_555
C2D C1D 1_555 1_555
H6D C2D 1_555 1_555
H7D C2D 1_555 1_555
N1D C9D 1_555 1_555
C3D C2D 1_555 1_555
H8D C3D 1_555 1_555
H9D C3D 1_555 1_555
N2D H12D 1_555 1_555
C4D C3D 1_555 1_555
H13D C4D 1_555 1_555
H14D C4D 1_555 1_555
C5D N2D 1_555 1_555
C6D N2D 1_555 1_555
C7D C6D 1_555 1_555
H17D C7D 1_555 1_555
O11D C5D 1_555 1_555
C8D C7D 1_555 1_555
H18D C8D 1_555 1_555
C9D C8D 1_555 1_555
H19D C9D 1_555 1_555
C10D N1D 1_555 1_555
H20D C10D 1_555 1_555
H3C O2 1_555 1_555
O1C C11C 1_555 1_555
O3C Cu1 1_555 1_555
H4C O3C 1_555 1_555
H5C O3C 1_555 1_555
O4C Cu2C 1_555 1_555
Cu2C O6C 1_555 1_555
O5C C19C 1_555 1_555
O6C H10C 1_555 1_555
H11C O6C 1_555 1_555
O7C C19C 1_555 1_555
O8C Cu2C 1_555 1_555
H15C O8C 1_555 1_555
H16C O8C 1_555 1_555
O9C Cu1 1_555 1_555
O10C C18C 1_555 1_555
C11C O4C 1_555 1_555
C12C C11C 1_555 1_555
C13C C12C 1_555 1_555
H21C C13C 1_555 1_555
C14C C13C 1_555 1_555
C15C C14C 1_555 1_555
H22C C15C 1_555 1_555
C16C C15C 1_555 1_555
C17C C12C 1_555 1_555
H23C C17C 1_555 1_555
C18C O9C 1_555 1_555
C19C C16C 1_555 1_555
N1C Cu2C 1_555 1_555
Cu2D N1D 1_555 1_555
Cu2E O5C 1_555 1_555
Cu2F O5 1_555 1_555
O5E Cu2C 1_555 1_555
O5F Cu2 1_555 1_555
O7E Cu2C 1_555 1_555
O7F Cu2 1_555 1_555
C4 C5 1_555 1_555
O7 Cu2F 1_555 1_555
C6 C10 1_555 1_555
C8 C9 1_555 1_555
C14 C18 1_555 1_555
C16 C17 1_555 1_555
C4D C5D 1_555 1_555
C6D C10D 1_555 1_555
O7C Cu2E 1_555 1_555
C14C C18C 1_555 1_555
C16C C17C 1_555 1_555

#END
