
#######################################################################
#
#                 Cambridge Crystallographic Data Centre
#                                CCDC 
#
#######################################################################
#
# If this CIF has been generated from an entry in the Cambridge 
# Structural Database, then it will include bibliographic, chemical, 
# crystal, experimental, refinement or atomic coordinate data resulting 
# from the CCDC's data processing and validation procedures.
#
#######################################################################

data_HIVGOJ
_symmetry_cell_setting           monoclinic
_symmetry_space_group_name_H-M   'P 2/n'
_symmetry_Int_Tables_number      13
_space_group_name_Hall           '-P 2yac'
loop_
_symmetry_equiv_pos_site_id
_symmetry_equiv_pos_as_xyz
1 x,y,z
2 1/2-x,y,1/2-z
3 -x,-y,-z
4 1/2+x,-y,1/2+z
_cell_length_a                   12.733(3)
_cell_length_b                   12.197(2)
_cell_length_c                   32.286(7)
_cell_angle_alpha                90
_cell_angle_beta                 96.62(3)
_cell_angle_gamma                90
_cell_volume                     4980.73
loop_
_atom_site_label
_atom_site_type_symbol
_atom_site_fract_x
_atom_site_fract_y
_atom_site_fract_z
Zn1 Zn 1.69821(5) 0.57822(6) 0.07518(2)
Zn2 Zn 1.2500 0.86915(9) 0.2500
O1 O 1.2500 1.0451(4) 0.2500
O2 O 1.2500 0.6826(6) 0.2500
C1 C 1.8099(5) 0.4214(6) 0.1360(2)
H1 H 1.8059 0.3591 0.1545
H2 H 1.8675 0.4681 0.1477
C2 C 1.8308(5) 0.3819(5) 0.0933(2)
H3 H 1.8977 0.3431 0.0957
H4 H 1.7758 0.3307 0.0828
C3 C 1.6168(5) 0.4084(6) 0.1304(2)
H5 H 1.5671 0.4340 0.1488
H6 H 1.6413 0.3363 0.1398
C4 C 1.7033(5) 0.5648(6) 0.1667(2)
H7 H 1.7722 0.5976 0.1743
H8 H 1.6812 0.5293 0.1912
C5 C 1.9341(4) 0.5379(6) 0.0713(2)
H9 H 1.9569 0.5625 0.0452
H10 H 1.9889 0.4909 0.0850
C6 C 1.8150(5) 0.4343(6) 0.0193(2)
H11 H 1.8192 0.4960 0.0006
H12 H 1.7437 0.4053 0.0145
N1 N 1.8342(4) 0.4741(4) 0.06251(17)
N2 N 1.7078(4) 0.4843(4) 0.13267(16)
O3 O 1.5849(3) 0.4589(3) 0.05724(13)
N3 N 1.4838(4) 0.3254(4) 0.08160(16)
H13 H 1.4714 0.2930 0.1042
N4 N 1.3366(3) 0.3275(4) -0.02322(16)
C7 C 1.5607(4) 0.3998(5) 0.0858(2)
C8 C 1.4206(4) 0.2930(5) 0.0456(2)
C9 C 1.3982(4) 0.3605(5) 0.01112(19)
H14 H 1.4266 0.4308 0.0118
C10 C 1.2994(6) 0.2259(6) -0.0244(2)
H15 H 1.2603 0.2015 -0.0487
C11 C 1.3162(7) 0.1546(7) 0.0092(3)
H16 H 1.2862 0.0850 0.0081
C12 C 1.3777(6) 0.1897(6) 0.0437(3)
H17 H 1.3912 0.1430 0.0664
O4 O 1.6057(3) 0.6719(4) 0.11293(14)
N5 N 1.5771(4) 0.7011(5) 0.18030(18)
H18 H 1.5969 0.6823 0.2057
N6 N 1.3512(4) 0.8620(5) 0.20186(16)
C13 C 1.6239(5) 0.6514(6) 0.1506(2)
C14 C 1.4974(5) 0.7824(6) 0.1735(2)
C15 C 1.4304(5) 0.7910(5) 0.2038(2)
H19 H 1.4412 0.7448 0.2268
C16 C 1.3385(6) 0.9311(6) 0.1687(2)
H20 H 1.2848 0.9831 0.1672
C17 C 1.4035(6) 0.9264(6) 0.1371(2)
H21 H 1.3930 0.9739 0.1144
C18 C 1.4825(6) 0.8512(6) 0.1397(2)
H22 H 1.5264 0.8463 0.1187
O5 O 1.8292(3) 0.6756(3) 0.10124(12)
N7 N 2.0044(4) 0.6799(4) 0.11919(16)
H23 H 2.0638 0.6495 0.1159
N8 N 2.1123(3) 0.8631(4) 0.20352(15)
C19 C 1.9194(5) 0.6362(5) 0.09860(19)
C20 C 2.0086(4) 0.7719(5) 0.14634(19)
C21 C 2.1000(4) 0.7823(5) 0.17533(18)
H24 H 2.1539 0.7309 0.1748
C22 C 2.0339(5) 0.9364(5) 0.2041(2)
H25 H 2.0401 0.9909 0.2244
C23 C 1.9461(5) 0.9339(6) 0.1763(2)
H26 H 1.8962 0.9896 0.1763
C24 C 1.9296(5) 0.8483(6) 0.1474(2)
H27 H 1.8672 0.8433 0.1294
O6 O 1.9861(4) 0.3521(4) 0.02012(17)
N9 N 1.8490(4) 0.2660(5) -0.01614(17)
H28 H 1.7817 0.2703 -0.0226
N10 N 1.8740(6) 0.0156(5) -0.0764(2)
C25 C 1.8929(5) 0.3450(6) 0.0083(2)
C26 C 1.9003(6) 0.1745(5) -0.0330(2)
C27 C 1.8376(6) 0.1037(6) -0.0579(3)
H29 H 1.7654 0.1178 -0.0621
C28 C 1.9779(8) -0.0052(7) -0.0696(3)
H30 H 2.0056 -0.0657 -0.0821
C29 C 2.0430(6) 0.0611(7) -0.0447(3)
H31 H 2.1145 0.0435 -0.0398
C30 C 2.0072(6) 0.1535(6) -0.0263(2)
H32 H 2.0531 0.1999 -0.0101
Zn1A Zn 0.80179(5) 0.57822(6) 0.42482(2)
Zn1B Zn 1.30179(5) 0.42178(6) -0.07518(2)
Zn1C Zn 1.19821(5) 0.42178(6) 0.57518(2)
Zn2_2 Zn 2.2500 0.86915(9) 0.2500
Zn2_3 Zn 0.2500 0.86915(9) 0.2500
C1A C 0.6901(5) 0.4214(6) 0.3640(2)
H1A H 0.6941 0.3591 0.3455
H2A H 0.6325 0.4681 0.3523
C2A C 0.6692(5) 0.3819(5) 0.4067(2)
H3A H 0.6023 0.3431 0.4043
H4A H 0.7242 0.3307 0.4172
C3A C 0.8832(5) 0.4084(6) 0.3696(2)
H5A H 0.9329 0.4340 0.3512
H6A H 0.8587 0.3363 0.3602
C4A C 0.7967(5) 0.5648(6) 0.3333(2)
H7A H 0.7278 0.5976 0.3257
H8A H 0.8188 0.5293 0.3088
C5A C 0.5659(4) 0.5379(6) 0.4287(2)
H9A H 0.5431 0.5625 0.4548
H10A H 0.5111 0.4909 0.4150
C6A C 0.6850(5) 0.4343(6) 0.4807(2)
H11A H 0.6808 0.4960 0.4994
H12A H 0.7563 0.4053 0.4855
N1A N 0.6658(4) 0.4741(4) 0.43749(17)
N2A N 0.7922(4) 0.4843(4) 0.36733(16)
O3A O 0.9151(3) 0.4589(3) 0.44276(13)
N3A N 1.0162(4) 0.3254(4) 0.41840(16)
H13A H 1.0286 0.2930 0.3958
N4A N 1.1634(3) 0.3275(4) 0.52322(16)
N4B N 1.6634(3) 0.6725(4) 0.02322(16)
N4C N 0.8366(3) 0.6725(4) 0.47678(16)
C7A C 0.9393(4) 0.3998(5) 0.4142(2)
C8A C 1.0794(4) 0.2930(5) 0.4544(2)
C9A C 1.1018(4) 0.3605(5) 0.48888(19)
H14A H 1.0734 0.4308 0.4882
C10A C 1.2006(6) 0.2259(6) 0.5244(2)
H15A H 1.2397 0.2015 0.5487
C11A C 1.1838(7) 0.1546(7) 0.4908(3)
H16A H 1.2138 0.0850 0.4919
C12A C 1.1223(6) 0.1897(6) 0.4563(3)
H17A H 1.1088 0.1430 0.4336
O4A O 0.8943(3) 0.6719(4) 0.38707(14)
N5A N 0.9229(4) 0.7011(5) 0.31970(18)
H18A H 0.9031 0.6823 0.2943
N6A N 1.1488(4) 0.8620(5) 0.29814(16)
C13A C 0.8761(5) 0.6514(6) 0.3494(2)
C14A C 1.0026(5) 0.7824(6) 0.3265(2)
C15A C 1.0696(5) 0.7910(5) 0.2962(2)
H19A H 1.0588 0.7448 0.2732
C16A C 1.1615(6) 0.9311(6) 0.3313(2)
H20A H 1.2152 0.9831 0.3328
C17A C 1.0965(6) 0.9264(6) 0.3629(2)
H21A H 1.1070 0.9739 0.3856
C18A C 1.0175(6) 0.8512(6) 0.3603(2)
H22A H 0.9736 0.8463 0.3813
O5A O 0.6708(3) 0.6756(3) 0.39876(12)
N7A N 0.4956(4) 0.6799(4) 0.38081(16)
H23A H 0.4362 0.6495 0.3841
N8A N 0.3877(3) 0.8631(4) 0.29648(15)
N8_2 N 1.1123(3) 0.8631(4) 0.20352(15)
N8A_2 N 1.3877(3) 0.8631(4) 0.29648(15)
C19A C 0.5806(5) 0.6362(5) 0.40140(19)
C20A C 0.4914(4) 0.7719(5) 0.35366(19)
C21A C 0.4000(4) 0.7823(5) 0.32467(18)
H24A H 0.3461 0.7309 0.3252
C22A C 0.4661(5) 0.9364(5) 0.2959(2)
H25A H 0.4599 0.9909 0.2756
C23A C 0.5539(5) 0.9339(6) 0.3237(2)
H26A H 0.6038 0.9896 0.3237
C24A C 0.5704(5) 0.8483(6) 0.3526(2)
H27A H 0.6328 0.8433 0.3706
O6A O 0.5139(4) 0.3521(4) 0.47988(17)
N9A N 0.6510(4) 0.2660(5) 0.51614(17)
H28A H 0.7183 0.2703 0.5226
N10A N 0.6260(6) 0.0156(5) 0.5764(2)
C25A C 0.6071(5) 0.3450(6) 0.4917(2)
C26A C 0.5997(6) 0.1745(5) 0.5330(2)
C27A C 0.6624(6) 0.1037(6) 0.5579(3)
H29A H 0.7346 0.1178 0.5621
C28A C 0.5221(8) -0.0052(7) 0.5696(3)
H30A H 0.4944 -0.0657 0.5821
C29A C 0.4570(6) 0.0611(7) 0.5447(3)
H31A H 0.3855 0.0435 0.5398
C30A C 0.4928(6) 0.1535(6) 0.5263(2)
H32A H 0.4469 0.1999 0.5101
loop_
_geom_bond_atom_site_label_1
_geom_bond_atom_site_label_2
_geom_bond_site_symmetry_1
_geom_bond_site_symmetry_2
Zn1 N1 1_555 1_555
Zn2 O1 1_555 1_555
O2 Zn2 1_555 1_555
C1 H1 1_555 1_555
H2 C1 1_555 1_555
C2 C1 1_555 1_555
H3 C2 1_555 1_555
H4 C2 1_555 1_555
C3 H5 1_555 1_555
H6 C3 1_555 1_555
C4 H7 1_555 1_555
H8 C4 1_555 1_555
C5 H9 1_555 1_555
H10 C5 1_555 1_555
C6 H11 1_555 1_555
H12 C6 1_555 1_555
N1 C2 1_555 1_555
N2 Zn1 1_555 1_555
O3 Zn1 1_555 1_555
N3 H13 1_555 1_555
N4 C9 1_555 1_555
C7 C3 1_555 1_555
C8 N3 1_555 1_555
C9 C8 1_555 1_555
H14 C9 1_555 1_555
C10 N4 1_555 1_555
H15 C10 1_555 1_555
C11 C10 1_555 1_555
H16 C11 1_555 1_555
C12 C8 1_555 1_555
H17 C12 1_555 1_555
O4 Zn1 1_555 1_555
N5 H18 1_555 1_555
N6 Zn2 1_555 1_555
C13 C4 1_555 1_555
C14 N5 1_555 1_555
C15 N6 1_555 1_555
H19 C15 1_555 1_555
C16 N6 1_555 1_555
H20 C16 1_555 1_555
C17 C16 1_555 1_555
H21 C17 1_555 1_555
C18 C14 1_555 1_555
H22 C18 1_555 1_555
O5 Zn1 1_555 1_555
N7 H23 1_555 1_555
N8 C21 1_555 1_555
C19 C5 1_555 1_555
C20 N7 1_555 1_555
C21 C20 1_555 1_555
H24 C21 1_555 1_555
C22 N8 1_555 1_555
H25 C22 1_555 1_555
C23 C22 1_555 1_555
H26 C23 1_555 1_555
C24 C20 1_555 1_555
H27 C24 1_555 1_555
O6 C25 1_555 1_555
N9 H28 1_555 1_555
N10 C27 1_555 1_555
C25 C6 1_555 1_555
C26 N9 1_555 1_555
C27 C26 1_555 1_555
H29 C27 1_555 1_555
C28 N10 1_555 1_555
H30 C28 1_555 1_555
C29 C28 1_555 1_555
H31 C29 1_555 1_555
C30 C26 1_555 1_555
H32 C30 1_555 1_555
Zn1A N1A 1_555 1_555
Zn1B N4 1_555 1_555
Zn1C N4A 1_555 1_555
Zn2_2 N8 1_555 1_555
Zn2_3 N8A 1_555 1_555
C1A H1A 1_555 1_555
H2A C1A 1_555 1_555
C2A C1A 1_555 1_555
H3A C2A 1_555 1_555
H4A C2A 1_555 1_555
C3A H5A 1_555 1_555
H6A C3A 1_555 1_555
C4A H7A 1_555 1_555
H8A C4A 1_555 1_555
C5A H9A 1_555 1_555
H10A C5A 1_555 1_555
C6A H11A 1_555 1_555
H12A C6A 1_555 1_555
N1A C2A 1_555 1_555
N2A Zn1A 1_555 1_555
O3A Zn1A 1_555 1_555
N3A H13A 1_555 1_555
N4A C9A 1_555 1_555
N4B Zn1 1_555 1_555
N4C Zn1A 1_555 1_555
C7A C3A 1_555 1_555
C8A N3A 1_555 1_555
C9A C8A 1_555 1_555
H14A C9A 1_555 1_555
C10A N4A 1_555 1_555
H15A C10A 1_555 1_555
C11A C10A 1_555 1_555
H16A C11A 1_555 1_555
C12A C8A 1_555 1_555
H17A C12A 1_555 1_555
O4A Zn1A 1_555 1_555
N5A H18A 1_555 1_555
N6A Zn2 1_555 1_555
C13A C4A 1_555 1_555
C14A N5A 1_555 1_555
C15A N6A 1_555 1_555
H19A C15A 1_555 1_555
C16A N6A 1_555 1_555
H20A C16A 1_555 1_555
C17A C16A 1_555 1_555
H21A C17A 1_555 1_555
C18A C14A 1_555 1_555
H22A C18A 1_555 1_555
O5A Zn1A 1_555 1_555
N7A H23A 1_555 1_555
N8A C21A 1_555 1_555
N8_2 Zn2 1_555 1_555
N8A_2 Zn2 1_555 1_555
C19A C5A 1_555 1_555
C20A N7A 1_555 1_555
C21A C20A 1_555 1_555
H24A C21A 1_555 1_555
C22A N8A 1_555 1_555
H25A C22A 1_555 1_555
C23A C22A 1_555 1_555
H26A C23A 1_555 1_555
C24A C20A 1_555 1_555
H27A C24A 1_555 1_555
O6A C25A 1_555 1_555
N9A H28A 1_555 1_555
N10A C27A 1_555 1_555
C25A C6A 1_555 1_555
C26A N9A 1_555 1_555
C27A C26A 1_555 1_555
H29A C27A 1_555 1_555
C28A N10A 1_555 1_555
H30A C28A 1_555 1_555
C29A C28A 1_555 1_555
H31A C29A 1_555 1_555
C30A C26A 1_555 1_555
H32A C30A 1_555 1_555
C1 N2 1_555 1_555
C3 N2 1_555 1_555
C4 N2 1_555 1_555
C5 N1 1_555 1_555
C6 N1 1_555 1_555
O3 C7 1_555 1_555
N3 C7 1_555 1_555
C11 C12 1_555 1_555
O4 C13 1_555 1_555
N5 C13 1_555 1_555
C14 C15 1_555 1_555
C17 C18 1_555 1_555
O5 C19 1_555 1_555
N7 C19 1_555 1_555
C23 C24 1_555 1_555
N9 C25 1_555 1_555
C29 C30 1_555 1_555
C1A N2A 1_555 1_555
C3A N2A 1_555 1_555
C4A N2A 1_555 1_555
C5A N1A 1_555 1_555
C6A N1A 1_555 1_555
O3A C7A 1_555 1_555
N3A C7A 1_555 1_555
C11A C12A 1_555 1_555
O4A C13A 1_555 1_555
N5A C13A 1_555 1_555
C14A C15A 1_555 1_555
C17A C18A 1_555 1_555
O5A C19A 1_555 1_555
N7A C19A 1_555 1_555
C23A C24A 1_555 1_555
N9A C25A 1_555 1_555
C29A C30A 1_555 1_555

#END
