
#######################################################################
#
#                 Cambridge Crystallographic Data Centre
#                                CCDC 
#
#######################################################################
#
# If this CIF has been generated from an entry in the Cambridge 
# Structural Database, then it will include bibliographic, chemical, 
# crystal, experimental, refinement or atomic coordinate data resulting 
# from the CCDC's data processing and validation procedures.
#
#######################################################################

data_HIVGEZ
_symmetry_cell_setting           triclinic
_symmetry_space_group_name_H-M   'P -1'
_symmetry_Int_Tables_number      2
_space_group_name_Hall           '-P 1'
loop_
_symmetry_equiv_pos_site_id
_symmetry_equiv_pos_as_xyz
1 x,y,z
2 -x,-y,-z
_cell_length_a                   13.1979(14)
_cell_length_b                   16.5893(17)
_cell_length_c                   24.985(4)
_cell_angle_alpha                105.433(5)
_cell_angle_beta                 96.685(5)
_cell_angle_gamma                104.462(3)
_cell_volume                     5007.03
loop_
_atom_site_label
_atom_site_type_symbol
_atom_site_fract_x
_atom_site_fract_y
_atom_site_fract_z
Co1 Co 0.11239(6) 0.31492(5) 0.65355(3)
Co2 Co 0.66512(7) 0.80053(5) 0.67070(3)
Co3 Co 0.28793(7) 0.18848(6) 0.89116(3)
O1 O 0.7884(4) 0.7503(3) 0.6987(2)
O2 O 0.5373(4) 0.8541(3) 0.64813(19)
O3 O 0.6459(4) 0.8298(3) 0.75029(19)
C1 C 0.4855(7) 0.1268(6) 0.9240(3)
H1 H 0.4676 0.1122 0.9575
H2 H 0.5598 0.1299 0.9238
C2 C 0.4129(8) 0.0541(5) 0.8695(3)
H3 H 0.4431 0.0623 0.8371
H4 H 0.4164 -0.0023 0.8725
C3 C 0.5100(7) 0.2757(5) 0.9852(3)
H5 H 0.5696 0.2627 1.0042
H6 H 0.5322 0.3360 0.9853
C4 C 0.4231(6) 0.2601(5) 1.0108(3)
C5 C 0.5291(6) 0.2537(5) 0.8911(3)
H7 H 0.5310 0.2093 0.8572
H8 H 0.6018 0.2834 0.9115
C6 C 0.4802(6) 0.3174(5) 0.8751(3)
C7 C 0.2460(6) 0.0171(5) 0.7962(3)
H9 H 0.2759 -0.0259 0.7747
H10 H 0.1701 -0.0095 0.7923
C8 C 0.2647(6) 0.0929(5) 0.7767(3)
C9 C 0.2465(9) -0.0087(5) 0.8846(3)
H11 H 0.2895 -0.0028 0.9204
H12 H 0.2295 -0.0686 0.8604
C10 C 0.1416(7) 0.0175(5) 0.8939(3)
N1 N 0.4689(4) 0.2138(4) 0.9255(2)
N2 N 0.3011(5) 0.0508(3) 0.8581(2)
O4 O 0.3973(4) 0.3264(3) 0.8859(2)
N3 N 0.5320(5) 0.3608(5) 0.8472(2)
H13 H 0.5919 0.3519 0.8418
C11 C 0.5015(4) 0.4232(3) 0.8237(2)
C12 C 0.4163(4) 0.4570(4) 0.8327(2)
H14 H 0.3712 0.4384 0.8558
N4 N 0.3986(4) 0.5185(4) 0.8073(3)
C13 C 0.4659(6) 0.5463(3) 0.7727(2)
H15 H 0.4541 0.5874 0.7557
C14 C 0.5511(5) 0.5126(4) 0.7637(2)
H16 H 0.5962 0.5311 0.7406
C15 C 0.5688(4) 0.4510(4) 0.7892(2)
H17 H 0.6258 0.4285 0.7832
O5 O 0.3260(4) 0.2231(3) 0.98116(17)
N5 N 0.4542(5) 0.2893(4) 1.0656(2)
H18 H 0.5210 0.3062 1.0804
C16 C 0.3859(4) 0.2929(3) 1.09704(17)
C17 C 0.3910(4) 0.2546(3) 1.14007(18)
H19 H 0.4469 0.2317 1.1470
N6 N 0.3125(5) 0.2506(3) 1.17267(16)
C18 C 0.2289(4) 0.2849(4) 1.1622(2)
H20 H 0.1764 0.2822 1.1840
C19 C 0.2239(4) 0.3232(4) 1.1192(2)
H21 H 0.1680 0.3461 1.1122
C20 C 0.3024(5) 0.3272(3) 1.08661(18)
H22 H 0.2990 0.3528 1.0578
O6 O 0.2612(4) 0.1649(3) 0.80586(16)
N7 N 0.2845(4) 0.0853(4) 0.7269(2)
H23 H 0.2839 0.0350 0.7055
N8 N 0.2488(4) 0.2684(3) 0.67979(19)
C21 C 0.3068(5) 0.1569(4) 0.7069(2)
C22 C 0.2332(5) 0.1986(4) 0.6976(2)
H24 H 0.1657 0.1762 0.7044
C23 C 0.3411(5) 0.2940(5) 0.6703(2)
H25 H 0.3577 0.3433 0.6582
C24 C 0.4198(6) 0.2533(5) 0.6766(3)
H26 H 0.4856 0.2748 0.6676
C25 C 0.4030(6) 0.1847(6) 0.6952(3)
H27 H 0.4554 0.1573 0.6999
O7 O 0.1374(4) 0.0894(4) 0.89198(19)
N9 N 0.0743(6) -0.0414(5) 0.9012(3)
H28 H 0.0873 -0.0906 0.8976
C26 C -0.0201(5) -0.0336(5) 0.9148(2)
C27 C -0.0643(6) 0.0305(5) 0.9057(3)
H29 H -0.0294 0.0703 0.8889
N10 N -0.1606(6) 0.0352(6) 0.9217(3)
C28 C -0.2126(5) -0.0243(7) 0.9468(3)
H30 H -0.2771 -0.0212 0.9576
C29 C -0.1684(7) -0.0885(6) 0.9559(3)
H31 H -0.2033 -0.1283 0.9727
C30 C -0.0722(7) -0.0932(4) 0.9399(3)
H32 H -0.0426 -0.1361 0.9459
C31 C -0.0378(5) 0.4246(4) 0.6295(3)
H33 H -0.0821 0.4601 0.6451
H34 H -0.0022 0.4507 0.6037
C32 C -0.1100(5) 0.3316(5) 0.5959(3)
H35 H -0.1561 0.3090 0.6194
H36 H -0.1547 0.3335 0.5629
C33 C 0.1419(5) 0.5079(4) 0.6990(3)
H37 H 0.1182 0.5578 0.6964
H38 H 0.1723 0.5181 0.7383
C34 C 0.2201(5) 0.4987(4) 0.6656(3)
C35 C 0.0031(5) 0.4186(4) 0.7251(2)
H39 H -0.0696 0.3805 0.7120
H40 H 0.0006 0.4757 0.7470
C36 C 0.0663(4) 0.3816(4) 0.7627(2)
C37 C -0.0137(5) 0.2867(4) 0.5295(2)
H41 H -0.0027 0.3470 0.5301
H42 H -0.0671 0.2489 0.4964
C38 C 0.0875(5) 0.2635(4) 0.5293(2)
C39 C -0.1066(5) 0.1791(4) 0.5673(2)
H43 H -0.1824 0.1696 0.5556
H44 H -0.0824 0.1412 0.5381
C40 C -0.0836(5) 0.1626(4) 0.6222(3)
N11 N 0.0484(3) 0.4264(3) 0.67885(19)
N12 N -0.0447(4) 0.2747(3) 0.57849(19)
O8 O 0.2230(3) 0.4236(3) 0.64464(19)
N13 N 0.2839(4) 0.5702(3) 0.6631(2)
H45 H 0.2677 0.6176 0.6767
N14 N 0.5460(4) 0.6693(3) 0.6424(2)
C41 C 0.3721(5) 0.5775(4) 0.6417(2)
C42 C 0.4585(5) 0.6569(4) 0.6608(2)
H46 H 0.4505 0.7033 0.6888
C43 C 0.5504(6) 0.6003(4) 0.6036(3)
H47 H 0.6125 0.6041 0.5890
C44 C 0.4689(6) 0.5217(4) 0.5824(3)
H48 H 0.4804 0.4778 0.5538
C45 C 0.3793(6) 0.5040(4) 0.5987(3)
H49 H 0.3263 0.4507 0.5843
O9 O 0.1387(3) 0.3527(3) 0.75063(15)
N15 N 0.0426(4) 0.3826(4) 0.8089(2)
H50 H -0.0002 0.4129 0.8185
N16 N 0.1756(4) 0.2631(3) 0.89043(19)
C46 C 0.0733(5) 0.3421(4) 0.8503(3)
C47 C 0.1481(4) 0.2995(4) 0.8510(2)
H51 H 0.1845 0.2950 0.8212
C48 C 0.1259(6) 0.2693(6) 0.9302(3)
H52 H 0.1380 0.2434 0.9581
C49 C 0.0530(7) 0.3155(6) 0.9316(3)
H53 H 0.0206 0.3234 0.9629
C50 C 0.0250(6) 0.3495(6) 0.8925(3)
H54 H -0.0277 0.3779 0.8952
O10 O 0.1400(3) 0.2533(3) 0.57060(17)
N17 N 0.1153(4) 0.2562(4) 0.4850(2)
H55 H 0.0711 0.2542 0.4562
N18 N 0.3240(5) 0.2299(3) 0.4138(2)
C51 C 0.2219(5) 0.2507(4) 0.4780(2)
C52 C 0.2311(5) 0.2348(4) 0.4247(2)
H56 H 0.1743 0.2274 0.3963
C53 C 0.4104(7) 0.2401(5) 0.4580(3)
H57 H 0.4732 0.2324 0.4470
C54 C 0.4095(7) 0.2590(7) 0.5118(3)
H58 H 0.4684 0.2709 0.5402
C55 C 0.3069(6) 0.2587(6) 0.5209(3)
H59 H 0.2939 0.2641 0.5573
O11 O 0.0008(3) 0.2116(2) 0.66287(16)
N19 N -0.1594(4) 0.0919(3) 0.62502(19)
H60 H -0.2155 0.0678 0.5987
N20 N -0.2172(4) -0.0680(3) 0.6938(2)
C56 C -0.1472(4) 0.0584(4) 0.6696(2)
C57 C -0.2167(5) -0.0263(4) 0.6573(2)
H61 H -0.2628 -0.0524 0.6223
C58 C -0.1510(6) -0.0266(5) 0.7469(3)
H62 H -0.1564 -0.0551 0.7743
C59 C -0.0729(7) 0.0602(5) 0.7615(3)
H63 H -0.0232 0.0848 0.7953
C60 C -0.0793(6) 0.1005(5) 0.7226(3)
H64 H -0.0376 0.1581 0.7306
Co2A Co 0.33488(7) 0.19947(5) 0.32930(3)
Co2_2 Co -0.33488(7) -0.19947(5) 0.67070(3)
N18A N 0.6760(5) 0.7701(3) 0.5862(2)
N20_2 N 0.7828(4) 0.9320(3) 0.6938(2)
loop_
_geom_bond_atom_site_label_1
_geom_bond_atom_site_label_2
_geom_bond_site_symmetry_1
_geom_bond_site_symmetry_2
Co1 N8 1_555 1_555
Co2 O1 1_555 1_555
Co3 N1 1_555 1_555
O2 Co2 1_555 1_555
O3 Co2 1_555 1_555
C1 H1 1_555 1_555
H2 C1 1_555 1_555
C2 C1 1_555 1_555
H3 C2 1_555 1_555
H4 C2 1_555 1_555
C3 H5 1_555 1_555
H6 C3 1_555 1_555
C4 C3 1_555 1_555
C5 H7 1_555 1_555
H8 C5 1_555 1_555
C6 C5 1_555 1_555
C7 H9 1_555 1_555
H10 C7 1_555 1_555
C8 C7 1_555 1_555
C9 H11 1_555 1_555
H12 C9 1_555 1_555
C10 C9 1_555 1_555
N1 C1 1_555 1_555
N2 Co3 1_555 1_555
O4 Co3 1_555 1_555
N3 C6 1_555 1_555
H13 N3 1_555 1_555
C11 N3 1_555 1_555
C12 C11 1_555 1_555
H14 C12 1_555 1_555
N4 C12 1_555 1_555
C13 N4 1_555 1_555
H15 C13 1_555 1_555
C14 C13 1_555 1_555
H16 C14 1_555 1_555
C15 C11 1_555 1_555
H17 C15 1_555 1_555
O5 Co3 1_555 1_555
N5 C4 1_555 1_555
H18 N5 1_555 1_555
C16 N5 1_555 1_555
C17 C16 1_555 1_555
H19 C17 1_555 1_555
N6 C17 1_555 1_555
C18 N6 1_555 1_555
H20 C18 1_555 1_555
C19 C18 1_555 1_555
H21 C19 1_555 1_555
C20 C16 1_555 1_555
H22 C20 1_555 1_555
O6 Co3 1_555 1_555
N7 C8 1_555 1_555
H23 N7 1_555 1_555
N8 C22 1_555 1_555
C21 N7 1_555 1_555
C22 C21 1_555 1_555
H24 C22 1_555 1_555
C23 N8 1_555 1_555
H25 C23 1_555 1_555
C24 C23 1_555 1_555
H26 C24 1_555 1_555
C25 C21 1_555 1_555
H27 C25 1_555 1_555
O7 Co3 1_555 1_555
N9 C10 1_555 1_555
H28 N9 1_555 1_555
C26 N9 1_555 1_555
C27 C26 1_555 1_555
H29 C27 1_555 1_555
N10 C27 1_555 1_555
C28 N10 1_555 1_555
H30 C28 1_555 1_555
C29 C28 1_555 1_555
H31 C29 1_555 1_555
C30 C26 1_555 1_555
H32 C30 1_555 1_555
C31 H33 1_555 1_555
H34 C31 1_555 1_555
C32 C31 1_555 1_555
H35 C32 1_555 1_555
H36 C32 1_555 1_555
C33 H37 1_555 1_555
H38 C33 1_555 1_555
C34 C33 1_555 1_555
C35 H39 1_555 1_555
H40 C35 1_555 1_555
C36 C35 1_555 1_555
C37 H41 1_555 1_555
H42 C37 1_555 1_555
C38 C37 1_555 1_555
C39 H43 1_555 1_555
H44 C39 1_555 1_555
C40 C39 1_555 1_555
N11 Co1 1_555 1_555
N12 Co1 1_555 1_555
O8 Co1 1_555 1_555
N13 C34 1_555 1_555
H45 N13 1_555 1_555
N14 Co2 1_555 1_555
C41 N13 1_555 1_555
C42 N14 1_555 1_555
H46 C42 1_555 1_555
C43 N14 1_555 1_555
H47 C43 1_555 1_555
C44 C43 1_555 1_555
H48 C44 1_555 1_555
C45 C41 1_555 1_555
H49 C45 1_555 1_555
O9 Co1 1_555 1_555
N15 C36 1_555 1_555
H50 N15 1_555 1_555
N16 Co3 1_555 1_555
C46 N15 1_555 1_555
C47 N16 1_555 1_555
H51 C47 1_555 1_555
C48 N16 1_555 1_555
H52 C48 1_555 1_555
C49 C48 1_555 1_555
H53 C49 1_555 1_555
C50 C46 1_555 1_555
H54 C50 1_555 1_555
O10 Co1 1_555 1_555
N17 C38 1_555 1_555
H55 N17 1_555 1_555
N18 C52 1_555 1_555
C51 N17 1_555 1_555
C52 C51 1_555 1_555
H56 C52 1_555 1_555
C53 N18 1_555 1_555
H57 C53 1_555 1_555
C54 C53 1_555 1_555
H58 C54 1_555 1_555
C55 C51 1_555 1_555
H59 C55 1_555 1_555
O11 Co1 1_555 1_555
N19 C40 1_555 1_555
H60 N19 1_555 1_555
N20 C57 1_555 1_555
C56 N19 1_555 1_555
C57 C56 1_555 1_555
H61 C57 1_555 1_555
C58 N20 1_555 1_555
H62 C58 1_555 1_555
C59 C58 1_555 1_555
H63 C59 1_555 1_555
C60 C56 1_555 1_555
H64 C60 1_555 1_555
Co2A N18 1_555 1_555
Co2_2 N20 1_555 1_555
N18A Co2 1_555 1_555
N20_2 Co2 1_555 1_555
C2 N2 1_555 1_555
C3 N1 1_555 1_555
C4 O5 1_555 1_555
C5 N1 1_555 1_555
C6 O4 1_555 1_555
C7 N2 1_555 1_555
C8 O6 1_555 1_555
C9 N2 1_555 1_555
C10 O7 1_555 1_555
C14 C15 1_555 1_555
C19 C20 1_555 1_555
C24 C25 1_555 1_555
C29 C30 1_555 1_555
C31 N11 1_555 1_555
C32 N12 1_555 1_555
C33 N11 1_555 1_555
C34 O8 1_555 1_555
C35 N11 1_555 1_555
C36 O9 1_555 1_555
C37 N12 1_555 1_555
C38 O10 1_555 1_555
C39 N12 1_555 1_555
C40 O11 1_555 1_555
C41 C42 1_555 1_555
C44 C45 1_555 1_555
C46 C47 1_555 1_555
C49 C50 1_555 1_555
C54 C55 1_555 1_555
C59 C60 1_555 1_555

#END
