
#######################################################################
#
#                 Cambridge Crystallographic Data Centre
#                                CCDC 
#
#######################################################################
#
# If this CIF has been generated from an entry in the Cambridge 
# Structural Database, then it will include bibliographic, chemical, 
# crystal, experimental, refinement or atomic coordinate data resulting 
# from the CCDC's data processing and validation procedures.
#
#######################################################################

data_HIVGID
_symmetry_cell_setting           monoclinic
_symmetry_space_group_name_H-M   'C 2/c'
_symmetry_Int_Tables_number      15
_space_group_name_Hall           '-C 2yn'
loop_
_symmetry_equiv_pos_site_id
_symmetry_equiv_pos_as_xyz
1 x,y,z
2 1/2+x,1/2+y,z
3 -x,y,1/2-z
4 1/2-x,1/2+y,1/2-z
5 -x,-y,-z
6 1/2-x,1/2-y,-z
7 x,-y,1/2+z
8 1/2+x,1/2-y,1/2+z
_cell_length_a                   27.096(3)
_cell_length_b                   12.6392(12)
_cell_length_c                   26.681(2)
_cell_angle_alpha                90
_cell_angle_beta                 92.178(2)
_cell_angle_gamma                90
_cell_volume                     9130.89
loop_
_atom_site_label
_atom_site_type_symbol
_atom_site_fract_x
_atom_site_fract_y
_atom_site_fract_z
Zn1 Zn 0.0000 1.08224(3) 0.2500
Zn2 Zn 0.187330(11) 1.57614(2) 0.420830(11)
O1 O -0.07625(8) 1.08212(15) 0.27387(8)
N1 N 0.23504(8) 1.43261(15) 0.42338(8)
N2 N 0.20965(8) 1.58229(15) 0.34304(8)
C1 C 0.26372(11) 1.4419(2) 0.37781(11)
H1 H 0.2783 1.3738 0.3704
H2 H 0.2903 1.4922 0.3838
C2 C 0.23162(11) 1.4782(2) 0.33257(10)
H3 H 0.2516 1.4831 0.3033
H4 H 0.2056 1.4269 0.3256
C3 C 0.20290(11) 1.3374(2) 0.42278(12)
H5 H 0.2003 1.3109 0.4567
H6 H 0.2176 1.2824 0.4029
C4 C 0.15211(10) 1.3628(2) 0.40125(10)
C5 C 0.26797(11) 1.4389(2) 0.46945(11)
H7 H 0.2482 1.4283 0.4986
H8 H 0.2820 1.5094 0.4717
C6 C 0.30990(11) 1.3584(2) 0.47099(11)
C7 C 0.24467(11) 1.6710(2) 0.33816(10)
H9 H 0.2288 1.7267 0.3184
H10 H 0.2730 1.6467 0.3203
C8 C 0.26224(10) 1.7162(2) 0.38846(10)
C9 C 0.16369(11) 1.6015(2) 0.31287(10)
H11 H 0.1464 1.5352 0.3069
H12 H 0.1715 1.6317 0.2807
C10 C 0.13106(11) 1.67728(18) 0.34112(10)
O2 O 0.30425(9) 1.26706(18) 0.45729(11)
N3 N 0.35174(10) 1.3961(2) 0.49130(12)
H13 H 0.3506 1.4608 0.5013
C11 C 0.47980(15) 1.3569(4) 0.53257(17)
H14 H 0.5047 1.3940 0.5499
C12 C 0.39782(12) 1.3456(3) 0.49890(13)
C13 C 0.43404(14) 1.3997(3) 0.52466(17)
H15 H 0.4274 1.4669 0.5370
C14 C 0.48781(16) 1.2604(4) 0.51478(18)
H16 H 0.5190 1.2310 0.5202
N4 N 0.45425(15) 1.2044(3) 0.48993(16)
C15 C 0.40917(14) 1.2478(3) 0.48192(17)
H17 H 0.3850 1.2094 0.4641
N5 N 0.12514(8) 1.28082(16) 0.38397(9)
H18 H 0.1383 1.2191 0.3866
N6 N 0.01861(8) 1.20349(16) 0.30493(9)
O3 O 0.13616(7) 1.45400(13) 0.40068(7)
C16 C 0.07706(10) 1.2864(2) 0.36186(11)
C17 C 0.06292(10) 1.20564(19) 0.32893(10)
H19 H 0.0851 1.1511 0.3234
C18 C -0.01262(11) 1.2832(2) 0.31277(13)
H20 H -0.0430 1.2837 0.2954
C19 C -0.00160(11) 1.3637(2) 0.34533(14)
H21 H -0.0247 1.4166 0.3506
C20 C 0.04402(11) 1.3668(2) 0.37050(13)
H22 H 0.0522 1.4216 0.3926
O4 O 0.24589(6) 1.68565(13) 0.42847(6)
N7 N 0.29655(9) 1.7904(2) 0.38441(8)
H23 H 0.3032 1.8083 0.3543
N8 N 0.33513(8) 1.90477(15) 0.50710(8)
C21 C 0.32354(10) 1.8439(2) 0.42302(10)
C22 C 0.30775(10) 1.85467(19) 0.47111(9)
H24 H 0.2773 1.8266 0.4791
C23 C 0.37872(12) 1.9453(3) 0.49515(13)
H25 H 0.3978 1.9798 0.5198
C24 C 0.39600(14) 1.9374(3) 0.44791(14)
H26 H 0.4265 1.9661 0.4406
C25 C 0.36805(13) 1.8868(3) 0.41117(13)
H27 H 0.3792 1.8818 0.3787
O5 O 0.13570(7) 1.68668(13) 0.38705(7)
N9 N 0.09783(9) 1.72941(18) 0.31290(9)
H28 H 0.0965 1.7143 0.2814
N10 N 0.01865(8) 1.96171(17) 0.30518(8)
C26 C 0.06447(10) 1.8067(2) 0.32879(11)
C27 C 0.04954(11) 1.8836(2) 0.29464(11)
H29 H 0.0617 1.8806 0.2626
C28 C 0.00111(11) 1.9649(3) 0.35081(12)
H30 H -0.0204 2.0192 0.3586
C29 C 0.01337(13) 1.8913(3) 0.38723(13)
H31 H 0.0005 1.8962 0.4190
C30 C 0.04500(12) 1.8105(3) 0.37587(13)
H32 H 0.0532 1.7590 0.3996
Zn1_2 Zn 0.0000 2.08224(3) 0.2500
Zn2B Zn -0.187330(11) 1.57614(2) 0.079170(11)
Zn2E Zn 0.312670(11) 1.92386(2) 0.579170(11)
Zn2G Zn -0.312670(11) 1.92386(2) -0.079170(11)
O1B O 0.07625(8) 1.08212(15) 0.22613(8)
N1B N -0.23504(8) 1.43261(15) 0.07662(8)
N2B N -0.20965(8) 1.58229(15) 0.15696(8)
C1B C -0.26372(11) 1.4419(2) 0.12219(11)
H1B H -0.2783 1.3738 0.1296
H2B H -0.2903 1.4922 0.1162
C2B C -0.23162(11) 1.4782(2) 0.16743(10)
H3B H -0.2516 1.4831 0.1967
H4B H -0.2056 1.4269 0.1744
C3B C -0.20290(11) 1.3374(2) 0.07722(12)
H5B H -0.2003 1.3109 0.0433
H6B H -0.2176 1.2824 0.0971
C4B C -0.15211(10) 1.3628(2) 0.09875(10)
C5B C -0.26797(11) 1.4389(2) 0.03055(11)
H7B H -0.2482 1.4283 0.0014
H8B H -0.2820 1.5094 0.0283
C6B C -0.30990(11) 1.3584(2) 0.02901(11)
C7B C -0.24467(11) 1.6710(2) 0.16184(10)
H9B H -0.2288 1.7267 0.1816
H10B H -0.2730 1.6467 0.1797
C8B C -0.26224(10) 1.7162(2) 0.11154(10)
C9B C -0.16369(11) 1.6015(2) 0.18713(10)
H11B H -0.1464 1.5352 0.1931
H12B H -0.1715 1.6317 0.2193
C10B C -0.13106(11) 1.67728(18) 0.15888(10)
O2B O -0.30425(9) 1.26706(18) 0.04271(11)
N3B N -0.35174(10) 1.3961(2) 0.00870(12)
H13B H -0.3506 1.4608 -0.0013
C11B C -0.47980(15) 1.3569(4) -0.03257(17)
H14B H -0.5047 1.3940 -0.0499
C12B C -0.39782(12) 1.3456(3) 0.00110(13)
C13B C -0.43404(14) 1.3997(3) -0.02466(17)
H15B H -0.4274 1.4669 -0.0370
C14B C -0.48781(16) 1.2604(4) -0.01478(18)
H16B H -0.5190 1.2310 -0.0202
N4B N -0.45425(15) 1.2044(3) 0.01007(16)
C15B C -0.40917(14) 1.2478(3) 0.01808(17)
H17B H -0.3850 1.2094 0.0359
N5B N -0.12514(8) 1.28082(16) 0.11603(9)
H18B H -0.1383 1.2191 0.1134
N6B N -0.01861(8) 1.20349(16) 0.19507(9)
O3B O -0.13616(7) 1.45400(13) 0.09932(7)
C16B C -0.07706(10) 1.2864(2) 0.13814(11)
C17B C -0.06292(10) 1.20564(19) 0.17107(10)
H19B H -0.0851 1.1511 0.1766
C18B C 0.01262(11) 1.2832(2) 0.18723(13)
H20B H 0.0430 1.2837 0.2046
C19B C 0.00160(11) 1.3637(2) 0.15467(14)
H21B H 0.0247 1.4166 0.1494
C20B C -0.04402(11) 1.3668(2) 0.12950(13)
H22B H -0.0522 1.4216 0.1074
O4B O -0.24589(6) 1.68565(13) 0.07153(6)
N7B N -0.29655(9) 1.7904(2) 0.11559(8)
H23B H -0.3032 1.8083 0.1457
N8B N -0.33513(8) 1.90477(15) -0.00710(8)
N8E N 0.16487(8) 1.59523(15) 0.49290(8)
N8G N -0.16487(8) 1.59523(15) 0.00710(8)
C21B C -0.32354(10) 1.8439(2) 0.07698(10)
C22B C -0.30775(10) 1.85467(19) 0.02889(9)
H24B H -0.2773 1.8266 0.0209
C23B C -0.37872(12) 1.9453(3) 0.00485(13)
H25B H -0.3978 1.9798 -0.0198
C24B C -0.39600(14) 1.9374(3) 0.05209(14)
H26B H -0.4265 1.9661 0.0594
C25B C -0.36805(13) 1.8868(3) 0.08883(13)
H27B H -0.3792 1.8818 0.1213
O5B O -0.13570(7) 1.68668(13) 0.11295(7)
N9B N -0.09783(9) 1.72941(18) 0.18710(9)
H28B H -0.0965 1.7143 0.2186
N10B N -0.01865(8) 1.96171(17) 0.19482(8)
N10_2 N 0.01865(8) 0.96171(17) 0.30518(8)
N10B_2 N -0.01865(8) 0.96171(17) 0.19482(8)
C26B C -0.06447(10) 1.8067(2) 0.17121(11)
C27B C -0.04954(11) 1.8836(2) 0.20536(11)
H29B H -0.0617 1.8806 0.2374
C28B C -0.00111(11) 1.9649(3) 0.14919(12)
H30B H 0.0204 2.0192 0.1414
C29B C -0.01337(13) 1.8913(3) 0.11277(13)
H31B H -0.0005 1.8962 0.0810
C30B C -0.04500(12) 1.8105(3) 0.12413(13)
H32B H -0.0532 1.7590 0.1004
loop_
_geom_bond_atom_site_label_1
_geom_bond_atom_site_label_2
_geom_bond_site_symmetry_1
_geom_bond_site_symmetry_2
Zn1 O1 1_555 1_555
Zn2 N1 1_555 1_555
N1 C1 1_555 1_555
N2 Zn2 1_555 1_555
C1 H1 1_555 1_555
H2 C1 1_555 1_555
C2 N2 1_555 1_555
H3 C2 1_555 1_555
H4 C2 1_555 1_555
C3 N1 1_555 1_555
H5 C3 1_555 1_555
H6 C3 1_555 1_555
C4 C3 1_555 1_555
C5 N1 1_555 1_555
H7 C5 1_555 1_555
H8 C5 1_555 1_555
C6 C5 1_555 1_555
C7 N2 1_555 1_555
H9 C7 1_555 1_555
H10 C7 1_555 1_555
C8 C7 1_555 1_555
C9 N2 1_555 1_555
H11 C9 1_555 1_555
H12 C9 1_555 1_555
C10 C9 1_555 1_555
O2 C6 1_555 1_555
N3 C6 1_555 1_555
H13 N3 1_555 1_555
C11 H14 1_555 1_555
C12 N3 1_555 1_555
C13 C11 1_555 1_555
H15 C13 1_555 1_555
C14 C11 1_555 1_555
H16 C14 1_555 1_555
N4 C14 1_555 1_555
C15 C12 1_555 1_555
H17 C15 1_555 1_555
N5 C4 1_555 1_555
H18 N5 1_555 1_555
N6 Zn1 1_555 1_555
O3 Zn2 1_555 1_555
C16 N5 1_555 1_555
C17 N6 1_555 1_555
H19 C17 1_555 1_555
C18 N6 1_555 1_555
H20 C18 1_555 1_555
C19 C18 1_555 1_555
H21 C19 1_555 1_555
C20 C16 1_555 1_555
H22 C20 1_555 1_555
O4 Zn2 1_555 1_555
N7 C8 1_555 1_555
H23 N7 1_555 1_555
N8 C22 1_555 1_555
C21 N7 1_555 1_555
C22 C21 1_555 1_555
H24 C22 1_555 1_555
C23 N8 1_555 1_555
H25 C23 1_555 1_555
C24 C23 1_555 1_555
H26 C24 1_555 1_555
C25 C21 1_555 1_555
H27 C25 1_555 1_555
O5 Zn2 1_555 1_555
N9 C10 1_555 1_555
H28 N9 1_555 1_555
N10 C27 1_555 1_555
C26 N9 1_555 1_555
C27 C26 1_555 1_555
H29 C27 1_555 1_555
C28 N10 1_555 1_555
H30 C28 1_555 1_555
C29 C28 1_555 1_555
H31 C29 1_555 1_555
C30 C26 1_555 1_555
H32 C30 1_555 1_555
Zn1_2 N10 1_555 1_555
Zn2B N1B 1_555 1_555
Zn2E N8 1_555 1_555
Zn2G N8B 1_555 1_555
O1B Zn1 1_555 1_555
N1B C1B 1_555 1_555
N2B Zn2B 1_555 1_555
C1B H1B 1_555 1_555
H2B C1B 1_555 1_555
C2B N2B 1_555 1_555
H3B C2B 1_555 1_555
H4B C2B 1_555 1_555
C3B N1B 1_555 1_555
H5B C3B 1_555 1_555
H6B C3B 1_555 1_555
C4B C3B 1_555 1_555
C5B N1B 1_555 1_555
H7B C5B 1_555 1_555
H8B C5B 1_555 1_555
C6B C5B 1_555 1_555
C7B N2B 1_555 1_555
H9B C7B 1_555 1_555
H10B C7B 1_555 1_555
C8B C7B 1_555 1_555
C9B N2B 1_555 1_555
H11B C9B 1_555 1_555
H12B C9B 1_555 1_555
C10B C9B 1_555 1_555
O2B C6B 1_555 1_555
N3B C6B 1_555 1_555
H13B N3B 1_555 1_555
C11B H14B 1_555 1_555
C12B N3B 1_555 1_555
C13B C11B 1_555 1_555
H15B C13B 1_555 1_555
C14B C11B 1_555 1_555
H16B C14B 1_555 1_555
N4B C14B 1_555 1_555
C15B C12B 1_555 1_555
H17B C15B 1_555 1_555
N5B C4B 1_555 1_555
H18B N5B 1_555 1_555
N6B Zn1 1_555 1_555
O3B Zn2B 1_555 1_555
C16B N5B 1_555 1_555
C17B N6B 1_555 1_555
H19B C17B 1_555 1_555
C18B N6B 1_555 1_555
H20B C18B 1_555 1_555
C19B C18B 1_555 1_555
H21B C19B 1_555 1_555
C20B C16B 1_555 1_555
H22B C20B 1_555 1_555
O4B Zn2B 1_555 1_555
N7B C8B 1_555 1_555
H23B N7B 1_555 1_555
N8B C22B 1_555 1_555
N8E Zn2 1_555 1_555
N8G Zn2B 1_555 1_555
C21B N7B 1_555 1_555
C22B C21B 1_555 1_555
H24B C22B 1_555 1_555
C23B N8B 1_555 1_555
H25B C23B 1_555 1_555
C24B C23B 1_555 1_555
H26B C24B 1_555 1_555
C25B C21B 1_555 1_555
H27B C25B 1_555 1_555
O5B Zn2B 1_555 1_555
N9B C10B 1_555 1_555
H28B N9B 1_555 1_555
N10B Zn1_2 1_555 1_555
N10_2 Zn1 1_555 1_555
N10B_2 Zn1 1_555 1_555
C26B N9B 1_555 1_555
C27B N10B 1_555 1_555
H29B C27B 1_555 1_555
C28B N10B 1_555 1_555
H30B C28B 1_555 1_555
C29B C28B 1_555 1_555
H31B C29B 1_555 1_555
C30B C26B 1_555 1_555
H32B C30B 1_555 1_555
C1 C2 1_555 1_555
C4 O3 1_555 1_555
C8 O4 1_555 1_555
C10 O5 1_555 1_555
C12 C13 1_555 1_555
N4 C15 1_555 1_555
C16 C17 1_555 1_555
C19 C20 1_555 1_555
C24 C25 1_555 1_555
C29 C30 1_555 1_555
C1B C2B 1_555 1_555
C4B O3B 1_555 1_555
C8B O4B 1_555 1_555
C10B O5B 1_555 1_555
C12B C13B 1_555 1_555
N4B C15B 1_555 1_555
C16B C17B 1_555 1_555
C19B C20B 1_555 1_555
C24B C25B 1_555 1_555
C26B C27B 1_555 1_555
C29B C30B 1_555 1_555

#END
