
#######################################################################
#
#                 Cambridge Crystallographic Data Centre
#                                CCDC 
#
#######################################################################
#
# If this CIF has been generated from an entry in the Cambridge 
# Structural Database, then it will include bibliographic, chemical, 
# crystal, experimental, refinement or atomic coordinate data resulting 
# from the CCDC's data processing and validation procedures.
#
#######################################################################

data_HIVJAX
_symmetry_cell_setting           monoclinic
_symmetry_space_group_name_H-M   'C 2/m'
_symmetry_Int_Tables_number      12
_space_group_name_Hall           '-C 2y'
loop_
_symmetry_equiv_pos_site_id
_symmetry_equiv_pos_as_xyz
1 x,y,z
2 x,-y,z
3 1/2+x,1/2+y,z
4 1/2+x,1/2-y,z
5 -x,-y,-z
6 -x,y,-z
7 1/2-x,1/2-y,-z
8 1/2-x,1/2+y,-z
_cell_length_a                   9.745(2)
_cell_length_b                   7.913(1)
_cell_length_c                   6.954(1)
_cell_angle_alpha                90
_cell_angle_beta                 117.050(10)
_cell_angle_gamma                90
_cell_volume                     477.579
loop_
_atom_site_label
_atom_site_type_symbol
_atom_site_fract_x
_atom_site_fract_y
_atom_site_fract_z
Pt1 Pt 0.0000 1.0000 -1.0000
Ag1 Ag -0.21783(9) 0.5000 -0.5856(1)
O1 O -0.4139(6) 0.3333(6) -0.1334(7)
O2 O -0.3058(6) 0.3247(6) -0.3526(9)
O3 O -0.0396(10) 0.5000 -0.7404(14)
C1 C -0.3576(7) 0.4030(8) -0.2494(11)
O2A O -0.3058(6) 0.6753(6) -0.3526(9)
O2F O -0.1942(6) 0.1753(6) -0.6474(9)
O2G O -0.1942(6) 0.8247(6) -0.6474(9)
O3D O 0.0396(10) 0.5000 -0.2596(14)
Ag1F Ag -0.28217(9) 0.0000 -0.4144(1)
Ag1D Ag 0.21783(9) 0.5000 -0.4144(1)
Ag1F_2 Ag -0.28217(9) 1.0000 -0.4144(1)
C1A C -0.3576(7) 0.5970(8) -0.2494(11)
O1A O -0.4139(6) 0.6667(6) -0.1334(7)
Pt1B Pt -0.5000 0.5000 0.0000
Pt1_2 Pt 0.0000 1.0000 0.0000
O2_2 O -0.3058(6) 1.3247(6) -0.3526(9)
O2F_2 O -0.1942(6) 1.1753(6) -0.6474(9)
O3B O -0.5396(10) 1.0000 -0.7404(14)
O3F O -0.4604(10) 1.0000 -0.2596(14)
C1G C -0.1424(7) 0.9030(8) -0.7506(11)
O1G O -0.0861(6) 0.8333(6) -0.8666(7)
C1F C -0.1424(7) 1.0970(8) -0.7506(11)
Pt1B_2 Pt -0.5000 0.5000 -1.0000
O1F O -0.0861(6) 1.1667(6) -0.8666(7)
Ag1_2 Ag -0.21783(9) 1.5000 -0.5856(1)
Ag1B Ag -0.71783(9) 1.0000 -0.5856(1)
Ag1B_2 Ag 0.28217(9) 1.0000 -0.5856(1)
Ag1F_3 Ag -0.28217(9) 1.0000 -1.4144(1)
O1B O 0.0861(6) 0.8333(6) -1.1334(7)
O1C O 0.0861(6) 1.1667(6) -1.1334(7)
loop_
_geom_bond_atom_site_label_1
_geom_bond_atom_site_label_2
_geom_bond_site_symmetry_1
_geom_bond_site_symmetry_2
Pt1 O1G 1_555 1_555
Ag1 O2 1_555 1_555
O1 C1 1_555 1_555
O2 C1 1_555 1_555
O3 Ag1 1_555 1_555
C1 C1A 1_555 1_555
O2A Ag1 1_555 1_555
O2F Ag1 1_555 1_555
O2G Ag1 1_555 1_555
O3D Ag1 1_555 1_555
Ag1F O2 1_555 1_555
Ag1D O3 1_555 1_555
Ag1F_2 O2A 1_555 1_555
C1A O2A 1_555 1_555
O1A C1A 1_555 1_555
Pt1B O1 1_555 1_555
Pt1_2 Ag1F_2 1_555 1_555
O2_2 Ag1F_2 1_555 1_555
O2F_2 Ag1F_2 1_555 1_555
O3B Ag1F_2 1_555 1_555
O3F Ag1F_2 1_555 1_555
C1G O2G 1_555 1_555
O1G C1G 1_555 1_555
C1F O2F_2 1_555 1_555
Pt1B_2 Ag1 1_555 1_555
O1F Pt1 1_555 1_555
Ag1_2 O2_2 1_555 1_555
Ag1B O3B 1_555 1_555
Ag1B_2 Pt1 1_555 1_555
Ag1F_3 Pt1 1_555 1_555
O1B Pt1 1_555 1_555
O1C Pt1 1_555 1_555
O2F Ag1F 1_555 1_555
O2G Ag1F_2 1_555 1_555
O3D Ag1D 1_555 1_555
O1A Pt1B 1_555 1_555
O2F_2 Ag1_2 1_555 1_555
O3F Ag1B 1_555 1_555
C1G C1F 1_555 1_555
C1F O1F 1_555 1_555

#END
