
#######################################################################
#
#                 Cambridge Crystallographic Data Centre
#                                CCDC 
#
#######################################################################
#
# If this CIF has been generated from an entry in the Cambridge 
# Structural Database, then it will include bibliographic, chemical, 
# crystal, experimental, refinement or atomic coordinate data resulting 
# from the CCDC's data processing and validation procedures.
#
#######################################################################

data_HIVMAB
_symmetry_cell_setting           triclinic
_symmetry_space_group_name_H-M   'P -1'
_symmetry_Int_Tables_number      2
_space_group_name_Hall           '-P 1'
loop_
_symmetry_equiv_pos_site_id
_symmetry_equiv_pos_as_xyz
1 x,y,z
2 -x,-y,-z
_cell_length_a                   8.219(5)
_cell_length_b                   9.652(5)
_cell_length_c                   9.682(5)
_cell_angle_alpha                116.161(7)
_cell_angle_beta                 94.729(7)
_cell_angle_gamma                104.698(7)
_cell_volume                     649.914
loop_
_atom_site_label
_atom_site_type_symbol
_atom_site_fract_x
_atom_site_fract_y
_atom_site_fract_z
Cd1 Cd 0.32358(3) 0.27253(3) 0.13420(2)
C1 C 0.1767(4) 0.1512(4) -0.1722(4)
C2 C 0.0821(4) 0.0720(3) -0.3413(3)
C3 C -0.0843(4) -0.0431(3) -0.3974(3)
C4 C 0.1633(4) 0.1126(4) -0.4446(4)
C5 C -0.1847(4) -0.0965(3) -0.2957(3)
C6 C 0.6733(6) 0.1870(5) 0.1739(5)
C7 C 0.8810(6) 0.4103(8) 0.2517(8)
C8 C 0.7304(5) 0.4363(5) 0.2286(6)
C9 C 0.3501(6) 0.6361(5) 0.4065(5)
C10 C 0.3161(5) 0.6222(5) 0.1806(5)
C11 C 0.3400(7) 0.7797(5) 0.4273(6)
N1 N 0.5982(3) 0.2940(3) 0.1797(3)
N2 N 0.8425(5) 0.2541(6) 0.2171(6)
N3 N 0.3345(4) 0.5350(3) 0.2499(3)
N4 N 0.3162(5) 0.7693(4) 0.2832(4)
O1 O 0.1274(4) 0.0869(3) -0.0905(3)
O2 O 0.3019(4) 0.2789(4) -0.1182(3)
O3 O -0.2804(3) -0.0225(3) -0.2262(3)
O4 O -0.1714(3) -0.2245(3) -0.2961(3)
H1 H 0.269(5) 0.185(5) -0.413(4)
H2 H 0.363(5) 0.611(5) 0.467(5)
H3 H 0.353(5) 0.866(6) 0.509(5)
H4 H 0.309(6) 0.848(6) 0.268(6)
H5 H 0.300(6) 0.584(5) 0.079(6)
H6 H 0.705(6) 0.519(6) 0.239(6)
H7 H 0.987(7) 0.487(7) 0.302(7)
H8 H 0.903(8) 0.220(7) 0.222(7)
H9 H 0.618(7) 0.081(7) 0.146(6)
Cd1A Cd -0.32358(3) -0.27253(3) -1.13420(2)
Cd1A_2 Cd -0.32358(3) -0.27253(3) -0.13420(2)
Cd1_2 Cd 0.32358(3) 0.27253(3) -0.86580(2)
C1A C -0.1767(4) -0.1512(4) -0.8278(4)
C2A C -0.0821(4) -0.0720(3) -0.6587(3)
C3A C 0.0843(4) 0.0431(3) -0.6026(3)
C4A C -0.1633(4) -0.1126(4) -0.5554(4)
C5A C 0.1847(4) 0.0965(3) -0.7043(3)
C6A C -0.6733(6) -0.1870(5) -1.1739(5)
C7A C -0.8810(6) -0.4103(8) -1.2517(8)
C8A C -0.7304(5) -0.4363(5) -1.2286(6)
C9A C -0.3501(6) -0.6361(5) -1.4065(5)
C10A C -0.3161(5) -0.6222(5) -1.1806(5)
C11A C -0.3400(7) -0.7797(5) -1.4273(6)
N1A N -0.5982(3) -0.2940(3) -1.1797(3)
N2A N -0.8425(5) -0.2541(6) -1.2171(6)
N3A N -0.3345(4) -0.5350(3) -1.2499(3)
N4A N -0.3162(5) -0.7693(4) -1.2832(4)
O1A O -0.1274(4) -0.0869(3) -0.9095(3)
O2A O -0.3019(4) -0.2789(4) -0.8818(3)
O3A O 0.2804(3) 0.0225(3) -0.7738(3)
O4A O 0.1714(3) 0.2245(3) -0.7039(3)
O4A_2 O 0.1714(3) 0.2245(3) 0.2961(3)
O4_2 O -0.1714(3) -0.2245(3) -1.2961(3)
H1A H -0.269(5) -0.185(5) -0.587(4)
H2A H -0.363(5) -0.611(5) -1.467(5)
H3A H -0.353(5) -0.866(6) -1.509(5)
H4A H -0.309(6) -0.848(6) -1.268(6)
H5A H -0.300(6) -0.584(5) -1.079(6)
H6A H -0.705(6) -0.519(6) -1.239(6)
H7A H -0.987(7) -0.487(7) -1.302(7)
H8A H -0.903(8) -0.220(7) -1.222(7)
H9A H -0.618(7) -0.081(7) -1.146(6)
loop_
_geom_bond_atom_site_label_1
_geom_bond_atom_site_label_2
_geom_bond_site_symmetry_1
_geom_bond_site_symmetry_2
Cd1 N1 1_555 1_555
C1 C2 1_555 1_555
C2 C3 1_555 1_555
C3 C5 1_555 1_555
C4 C2 1_555 1_555
C5 O3 1_555 1_555
C6 N1 1_555 1_555
C7 C8 1_555 1_555
C8 N1 1_555 1_555
C9 C11 1_555 1_555
C10 N3 1_555 1_555
C11 N4 1_555 1_555
N2 C6 1_555 1_555
N3 Cd1 1_555 1_555
N4 C10 1_555 1_555
O1 Cd1 1_555 1_555
O2 Cd1 1_555 1_555
O4 C5 1_555 1_555
H1 C4 1_555 1_555
H2 C9 1_555 1_555
H3 C11 1_555 1_555
H4 N4 1_555 1_555
H5 C10 1_555 1_555
H6 C8 1_555 1_555
H7 C7 1_555 1_555
H8 N2 1_555 1_555
H9 C6 1_555 1_555
Cd1A N1A 1_555 1_555
Cd1A_2 O4 1_555 1_555
Cd1_2 O4A 1_555 1_555
C1A C2A 1_555 1_555
C2A C3A 1_555 1_555
C3A C4 1_555 1_555
C4A C3 1_555 1_555
C5A C3A 1_555 1_555
C6A N1A 1_555 1_555
C7A C8A 1_555 1_555
C8A N1A 1_555 1_555
C9A C11A 1_555 1_555
C10A N3A 1_555 1_555
C11A N4A 1_555 1_555
N2A C6A 1_555 1_555
N3A Cd1A 1_555 1_555
N4A C10A 1_555 1_555
O1A Cd1A 1_555 1_555
O2A Cd1A 1_555 1_555
O3A C5A 1_555 1_555
O4A C5A 1_555 1_555
O4A_2 Cd1 1_555 1_555
O4_2 Cd1A 1_555 1_555
H1A C4A 1_555 1_555
H2A C9A 1_555 1_555
H3A C11A 1_555 1_555
H4A N4A 1_555 1_555
H5A C10A 1_555 1_555
H6A C8A 1_555 1_555
H7A C7A 1_555 1_555
H8A N2A 1_555 1_555
H9A C6A 1_555 1_555
C1 O1 1_555 1_555
C1 O2 1_555 1_555
C7 N2 1_555 1_555
C9 N3 1_555 1_555
C1A O1A 1_555 1_555
C1A O2A 1_555 1_555
C2A C4A 1_555 1_555
C7A N2A 1_555 1_555
C9A N3A 1_555 1_555

#END
