
#######################################################################
#
#                 Cambridge Crystallographic Data Centre
#                                CCDC 
#
#######################################################################
#
# If this CIF has been generated from an entry in the Cambridge 
# Structural Database, then it will include bibliographic, chemical, 
# crystal, experimental, refinement or atomic coordinate data resulting 
# from the CCDC's data processing and validation procedures.
#
#######################################################################

data_HIVTOX
_symmetry_cell_setting           monoclinic
_symmetry_space_group_name_H-M   'C 2/c'
_symmetry_Int_Tables_number      15
_space_group_name_Hall           '-C 2yn'
loop_
_symmetry_equiv_pos_site_id
_symmetry_equiv_pos_as_xyz
1 x,y,z
2 -x,y,1/2-z
3 1/2+x,1/2+y,z
4 1/2-x,1/2+y,1/2-z
5 -x,-y,-z
6 x,-y,1/2+z
7 1/2-x,1/2-y,-z
8 1/2+x,1/2-y,1/2+z
_cell_length_a                   25.1215(18)
_cell_length_b                   5.9302(5)
_cell_length_c                   17.8847(14)
_cell_angle_alpha                90
_cell_angle_beta                 102.312(4)
_cell_angle_gamma                90
_cell_volume                     2603.1
loop_
_atom_site_label
_atom_site_type_symbol
_atom_site_fract_x
_atom_site_fract_y
_atom_site_fract_z
P1 P 0.31992(4) 0.86867(15) 0.23830(5)
P2 P 0.35838(4) 0.87178(15) 0.08293(5)
O1 O 0.30102(11) 1.1211(4) 0.22347(14)
O2 O 0.34286(10) 0.8330(4) 0.32237(14)
O3 O 0.27390(9) 0.7104(4) 0.20325(14)
O4 O 0.40896(9) 0.7983(4) 0.05385(14)
O5 O 0.34583(9) 1.1216(4) 0.06797(13)
O6 O 0.30982(9) 0.7196(4) 0.05318(13)
O7 O 0.39027(12) 0.6006(4) 0.20485(15)
O8 O 0.21981(11) 1.2608(4) 0.07182(18)
O9 O 0.42032(11) 0.6332(5) 0.51322(15)
O10 O 0.48194(12) 0.8484(5) 0.41551(17)
O11 O 0.48191(12) 0.3081(5) 0.38194(17)
O12 O 0.35945(11) 0.2485(4) 0.39829(17)
C1 C 0.37616(14) 0.8374(5) 0.1879(2)
C2 C 0.42319(16) 0.9914(6) 0.2235(2)
Na1 Na 0.30772(5) 1.3987(2) 0.12999(8)
Na2 Na 0.40860(6) 0.5648(2) 0.36974(9)
Na3 Na 0.22667(5) 0.8577(2) 0.07482(8)
H1 H 0.2785(18) 1.146(7) 0.246(3)
H2 H 0.416(2) 0.583(8) 0.208(3)
H3 H 0.4167(14) 1.148(6) 0.216(2)
H4 H 0.4528(16) 0.974(6) 0.200(2)
H5 H 0.4382(14) 0.960(6) 0.282(2)
H6 H 0.203(2) 1.290(9) 0.030(3)
H7 H 0.199(2) 1.288(8) 0.103(3)
H8 H 0.415(2) 0.494(10) 0.529(3)
H9 H 0.399(2) 0.718(9) 0.530(3)
H10 H 0.519(3) 0.824(9) 0.418(3)
H11 H 0.474(2) 0.822(8) 0.449(3)
H12 H 0.512(2) 0.331(10) 0.411(4)
H13 H 0.4788(17) 0.172(8) 0.386(2)
H14 H 0.358(2) 0.122(8) 0.373(3)
H15 H 0.377(2) 0.222(10) 0.451(4)
O3_2 O 0.27390(9) 1.7104(4) 0.20325(14)
O6_2 O 0.30982(9) 1.7196(4) 0.05318(13)
O6F O 0.19018(9) 0.7804(4) -0.05318(13)
O7_2 O 0.39027(12) 1.6006(4) 0.20485(15)
O12C O 0.14055(11) 0.7485(4) 0.10171(17)
Na1_2 Na 0.30772(5) 0.3987(2) 0.12999(8)
Na3C Na 0.27333(5) 0.3577(2) 0.42518(8)
Na3F Na 0.27333(5) 0.6423(2) -0.07482(8)
O13 O 0.50000 0.4924(7) 0.25000
H16 H 0.4943(18) 0.426(7) 0.284(2)
H16A H 0.5057(18) 0.426(7) 0.216(2)
loop_
_geom_bond_atom_site_label_1
_geom_bond_atom_site_label_2
_geom_bond_site_symmetry_1
_geom_bond_site_symmetry_2
P1 O1 1_555 1_555
P2 O4 1_555 1_555
O1 Na1 1_555 1_555
O2 P1 1_555 1_555
O3 P1 1_555 1_555
O5 P2 1_555 1_555
O6 P2 1_555 1_555
O7 C1 1_555 1_555
O8 Na1 1_555 1_555
O9 Na2 1_555 1_555
O10 Na2 1_555 1_555
O11 Na2 1_555 1_555
O12 Na2 1_555 1_555
C1 P1 1_555 1_555
C2 C1 1_555 1_555
Na1 O5 1_555 1_555
Na2 O2 1_555 1_555
Na3 O3 1_555 1_555
H1 O1 1_555 1_555
H2 O7 1_555 1_555
H3 C2 1_555 1_555
H4 C2 1_555 1_555
H5 C2 1_555 1_555
H6 O8 1_555 1_555
H7 O8 1_555 1_555
H8 O9 1_555 1_555
H9 O9 1_555 1_555
H10 O10 1_555 1_555
H11 O10 1_555 1_555
H12 O11 1_555 1_555
H13 O11 1_555 1_555
H14 O12 1_555 1_555
H15 O12 1_555 1_555
O13 H16 1_555 1_555
O3_2 Na1 1_555 1_555
O6_2 Na1 1_555 1_555
O6F Na3 1_555 1_555
O7_2 Na1 1_555 1_555
O12C Na3 1_555 1_555
Na1_2 O3 1_555 1_555
Na3C O12 1_555 1_555
Na3F O6 1_555 1_555
H16A O13 1_555 1_555
P2 C1 1_555 1_555
O6 Na3 1_555 1_555
O6 Na1_2 1_555 1_555
O7 Na2 1_555 1_555
O7 Na1_2 1_555 1_555
O8 Na3 1_555 1_555
O6F Na3F 1_555 1_555

#END
