
#######################################################################
#
#                 Cambridge Crystallographic Data Centre
#                                CCDC 
#
#######################################################################
#
# If this CIF has been generated from an entry in the Cambridge 
# Structural Database, then it will include bibliographic, chemical, 
# crystal, experimental, refinement or atomic coordinate data resulting 
# from the CCDC's data processing and validation procedures.
#
#######################################################################

data_HIWBUL
_symmetry_cell_setting           triclinic
_symmetry_space_group_name_H-M   'P -1'
_symmetry_Int_Tables_number      2
_space_group_name_Hall           '-P 1'
loop_
_symmetry_equiv_pos_site_id
_symmetry_equiv_pos_as_xyz
1 x,y,z
2 -x,-y,-z
_cell_length_a                   10.5061(4)
_cell_length_b                   11.8547(4)
_cell_length_c                   14.9532(7)
_cell_angle_alpha                68.574(14)
_cell_angle_beta                 85.085(14)
_cell_angle_gamma                87.627(2)
_cell_volume                     1727.19
loop_
_atom_site_label
_atom_site_type_symbol
_atom_site_fract_x
_atom_site_fract_y
_atom_site_fract_z
Mn1 Mn 0.61473(6) 0.00490(6) 0.24748(5)
Br1 Br 0.67036(5) -0.52801(5) 0.68370(4)
Br2 Br 0.67721(6) 0.63860(5) -0.08538(4)
Cr1 Cr 0.11759(6) 0.00064(6) 0.24146(5)
O1 O 0.5542(2) -0.0470(2) 0.37898(19)
N1 N 0.5822(3) -0.1615(3) 0.2483(3)
O2 O 0.6436(3) 0.1605(2) 0.2465(2)
N2 N 0.1679(3) -0.0901(3) 0.3806(3)
N3 N 0.6951(3) 0.0509(3) 0.1128(3)
N4 N 0.0882(3) 0.1338(3) 0.3001(3)
N5 N 0.4167(4) 0.0588(3) 0.1974(3)
N6 N 0.8210(4) -0.0628(3) 0.2952(3)
C1 C 0.6527(4) 0.2636(4) 0.1711(3)
C2 C 0.5751(4) -0.1550(4) 0.4441(3)
C3 C 0.5859(4) -0.2565(4) 0.3241(4)
H1 H 0.5811 -0.3306 0.3166
C4 C 0.5722(4) -0.1670(4) 0.5416(3)
H2 H 0.5532 -0.0999 0.5588
C5 C 0.3081(5) 0.0466(4) 0.2075(3)
C6 C 0.5974(4) -0.2777(4) 0.6116(3)
H3 H 0.5966 -0.2842 0.6755
C7 C 0.1569(4) -0.1448(4) 0.2002(3)
C8 C 0.6822(4) 0.2678(4) 0.0763(3)
C9 C 0.1663(4) -0.0216(4) 0.4365(3)
C10 C 0.9284(4) -0.0469(4) 0.2791(3)
C11 C 0.0660(4) 0.1099(4) 0.1077(4)
C12 C 0.5970(4) -0.2595(4) 0.4212(3)
C13 C 0.1057(4) 0.1837(5) 0.4391(4)
H4 H 0.1267 0.1608 0.5025
C14 C 0.6903(4) 0.3812(4) -0.0003(3)
H5 H 0.7098 0.3845 -0.0630
C15 C 0.1194(4) 0.1017(4) 0.3917(4)
C16 C 0.6194(4) -0.3715(4) 0.4950(4)
H6 H 0.6313 -0.4410 0.4800
N7 N 0.0353(4) 0.1753(4) 0.0355(3)
C17 C 0.7112(4) 0.1605(4) 0.0558(3)
H7 H 0.7457 0.1718 -0.0063
C18 C 0.6240(4) -0.3797(4) 0.5882(4)
C19 C 0.2515(4) -0.2566(5) 0.5079(4)
H8 H 0.2794 -0.3369 0.5311
C20 C 0.6696(5) 0.4860(4) 0.0172(4)
C21 C 0.2082(4) -0.0687(5) 0.5280(3)
H9 H 0.2070 -0.0211 0.5656
C22 C 0.6445(5) 0.4822(4) 0.1104(4)
H10 H 0.6324 0.5539 0.1221
N8 N 0.1862(4) -0.2278(4) 0.1811(3)
C23 C 0.0605(5) 0.2993(5) 0.3908(5)
H11 H 0.0507 0.3546 0.4219
C24 C 0.6375(4) 0.3736(4) 0.1854(3)
H12 H 0.6222 0.3727 0.2478
C25 C 0.2085(4) -0.2052(4) 0.4172(3)
H13 H 0.2076 -0.2526 0.3796
C26 C 0.7463(5) -0.0457(4) 0.0799(4)
H14 H 0.8100 -0.0917 0.1225
H15 H 0.7886 -0.0091 0.0159
C27 C 0.2521(4) -0.1869(5) 0.5631(4)
H16 H 0.2820 -0.2191 0.6243
C28 C 0.0447(4) 0.2460(4) 0.2547(4)
H17 H 0.0231 0.2673 0.1915
C29 C 0.0301(5) 0.3327(5) 0.2977(5)
H18 H 0.0008 0.4106 0.2640
C30 C 0.5522(5) -0.1785(5) 0.1590(3)
H19 H 0.5431 -0.2646 0.1731
H20 H 0.4705 -0.1399 0.1403
C31 C 0.6474(6) -0.1303(6) 0.0769(4)
H21 H 0.6013 -0.0893 0.0201
H22 H 0.6917 -0.1989 0.0673
Cr1_2 Cr 1.11759(6) 0.00064(6) 0.24146(5)
C10_2 C -0.0716(4) -0.0469(4) 0.2791(3)
O3 O 0.8220(5) 0.5602(5) 0.3181(4)
C32 C 0.9147(9) 0.6061(8) 0.3689(8)
O4 O 0.0376(7) 0.3688(6) 0.8540(5)
C33 C 0.042(2) 0.448(3) 0.9252(15)
loop_
_geom_bond_atom_site_label_1
_geom_bond_atom_site_label_2
_geom_bond_site_symmetry_1
_geom_bond_site_symmetry_2
Mn1 O1 1_555 1_555
Br1 C18 1_555 1_555
Br2 C20 1_555 1_555
Cr1 N2 1_555 1_555
O1 C2 1_555 1_555
N1 Mn1 1_555 1_555
O2 Mn1 1_555 1_555
N2 C9 1_555 1_555
N3 Mn1 1_555 1_555
N4 Cr1 1_555 1_555
N5 Mn1 1_555 1_555
N6 Mn1 1_555 1_555
C1 O2 1_555 1_555
C2 C4 1_555 1_555
C3 N1 1_555 1_555
H1 C3 1_555 1_555
C4 H2 1_555 1_555
C5 Cr1 1_555 1_555
C6 C4 1_555 1_555
H3 C6 1_555 1_555
C7 Cr1 1_555 1_555
C8 C1 1_555 1_555
C9 C15 1_555 1_555
C10 N6 1_555 1_555
C11 Cr1 1_555 1_555
C12 C2 1_555 1_555
C13 H4 1_555 1_555
C14 C8 1_555 1_555
H5 C14 1_555 1_555
C15 N4 1_555 1_555
C16 C12 1_555 1_555
H6 C16 1_555 1_555
N7 C11 1_555 1_555
C17 N3 1_555 1_555
H7 C17 1_555 1_555
C18 C6 1_555 1_555
C19 H8 1_555 1_555
C20 C14 1_555 1_555
C21 C9 1_555 1_555
H9 C21 1_555 1_555
C22 C20 1_555 1_555
H10 C22 1_555 1_555
N8 C7 1_555 1_555
C23 C13 1_555 1_555
H11 C23 1_555 1_555
C24 C1 1_555 1_555
H12 C24 1_555 1_555
C25 N2 1_555 1_555
H13 C25 1_555 1_555
C26 N3 1_555 1_555
H14 C26 1_555 1_555
H15 C26 1_555 1_555
C27 C19 1_555 1_555
H16 C27 1_555 1_555
C28 N4 1_555 1_555
H17 C28 1_555 1_555
C29 C23 1_555 1_555
H18 C29 1_555 1_555
C30 N1 1_555 1_555
H19 C30 1_555 1_555
H20 C30 1_555 1_555
C31 C26 1_555 1_555
H21 C31 1_555 1_555
H22 C31 1_555 1_555
O3 C32 1_555 1_555
O4 C33 1_555 1_555
Cr1_2 C10 1_555 1_555
C10_2 Cr1 1_555 1_555
N5 C5 1_555 1_555
C3 C12 1_555 1_555
C8 C17 1_555 1_555
C13 C15 1_555 1_555
C16 C18 1_555 1_555
C19 C25 1_555 1_555
C21 C27 1_555 1_555
C22 C24 1_555 1_555
C28 C29 1_555 1_555
C30 C31 1_555 1_555

#END
