
#######################################################################
#
#                 Cambridge Crystallographic Data Centre
#                                CCDC 
#
#######################################################################
#
# If this CIF has been generated from an entry in the Cambridge 
# Structural Database, then it will include bibliographic, chemical, 
# crystal, experimental, refinement or atomic coordinate data resulting 
# from the CCDC's data processing and validation procedures.
#
#######################################################################

data_HIWBIZ
_symmetry_cell_setting           triclinic
_symmetry_space_group_name_H-M   'P -1'
_symmetry_Int_Tables_number      2
_space_group_name_Hall           '-P 1'
loop_
_symmetry_equiv_pos_site_id
_symmetry_equiv_pos_as_xyz
1 x,y,z
2 -x,-y,-z
_cell_length_a                   10.5139(8)
_cell_length_b                   11.7534(10)
_cell_length_c                   15.0032(13)
_cell_angle_alpha                67.650(4)
_cell_angle_beta                 84.914(4)
_cell_angle_gamma                88.307(3)
_cell_volume                     1707.96
loop_
_atom_site_label
_atom_site_type_symbol
_atom_site_fract_x
_atom_site_fract_y
_atom_site_fract_z
Cr1 Cr 1.12061(10) 0.00199(9) 0.74239(6)
Mn1 Mn 1.61716(9) 0.00591(8) 0.74700(6)
Cl1 Cl 1.65809(19) -0.52265(16) 1.18187(12)
Cl2 Cl 1.6746(2) 0.63390(16) 0.40941(13)
O1 O 1.5565(3) -0.0468(3) 0.8802(2)
O2 O 1.6489(4) 0.1640(3) 0.7430(2)
N1 N 1.6967(4) 0.0514(5) 0.6126(3)
N2 N 1.5829(4) -0.1637(4) 0.7505(3)
C1 C 1.5742(5) -0.1574(5) 0.9470(4)
N3 N 1.1691(4) -0.0922(5) 0.8834(3)
C2 C 1.5706(5) -0.1692(5) 1.0424(4)
H1 H 1.5531 -0.1008 1.0581
C3 C 1.0726(6) 0.1114(6) 0.6104(4)
C4 C 1.6821(6) 0.2720(6) 0.5707(4)
C5 C 1.1564(6) -0.1449(6) 0.7023(4)
C6 C 1.5925(5) -0.2804(6) 1.1140(4)
H2 H 1.5899 -0.2873 1.1780
C7 C 1.6546(6) 0.2673(6) 0.6660(4)
N4 N 1.0925(4) 0.1358(5) 0.7997(4)
C8 C 1.5846(5) -0.2601(5) 0.8285(5)
H3 H 1.5788 -0.3359 0.8231
C9 C 1.5947(6) -0.2606(6) 0.9245(4)
C10 C 1.1674(5) -0.0249(6) 0.9397(4)
N5 N 1.4197(5) 0.0605(5) 0.6970(3)
C11 C 1.6890(6) 0.3849(6) 0.4916(4)
H4 H 1.7077 0.3869 0.4292
N6 N 0.8222(5) -0.0604(5) 0.7947(3)
C12 C 1.6389(6) 0.3793(5) 0.6781(4)
H5 H 1.6251 0.3791 0.7402
C13 C 1.1203(6) 0.1040(6) 0.8916(5)
C14 C 1.2502(6) -0.2610(6) 1.0120(4)
H6 H 1.2775 -0.3423 1.0358
C15 C 1.1079(6) 0.1845(7) 0.9387(5)
H7 H 1.1266 0.1603 1.0027
C16 C 0.9294(6) -0.0443(5) 0.7792(4)
C17 C 1.2094(6) -0.0756(6) 1.0310(4)
H8 H 1.2096 -0.0279 1.0683
C18 C 1.6473(8) -0.1306(7) 0.5776(5)
H9 H 1.6023 -0.0874 0.5206
H10 H 1.6893 -0.2004 0.5686
C19 C 1.7479(6) -0.0470(6) 0.5815(4)
H11 H 1.8089 -0.0948 0.6260
H12 H 1.7931 -0.0100 0.5180
C20 C 1.6154(6) -0.3754(5) 0.9971(4)
H13 H 1.6266 -0.4451 0.9823
C21 C 1.2098(6) -0.2093(6) 0.9205(4)
H14 H 1.2106 -0.2568 0.8830
C22 C 1.3109(6) 0.0496(6) 0.7061(4)
C23 C 1.2500(6) -0.1927(7) 1.0675(4)
H15 H 1.2774 -0.2262 1.1295
N7 N 1.0427(6) 0.1775(5) 0.5369(4)
C24 C 1.6188(6) -0.3835(6) 1.0907(5)
C25 C 1.6682(6) 0.4913(6) 0.5063(5)
C26 C 1.5519(7) -0.1781(6) 0.6606(4)
H16 H 1.5390 -0.2649 0.6752
H17 H 1.4716 -0.1369 0.6418
C27 C 1.6434(6) 0.4891(6) 0.6006(5)
H18 H 1.6300 0.5623 0.6103
N8 N 1.1822(6) -0.2295(5) 0.6839(4)
C28 C 1.0527(6) 0.2486(6) 0.7533(5)
H19 H 1.0327 0.2709 0.6897
C29 C 1.7116(6) 0.1613(6) 0.5529(4)
H20 H 1.7453 0.1719 0.4908
C30 C 1.0670(7) 0.3020(7) 0.8880(6)
H21 H 1.0583 0.3587 0.9176
C31 C 1.0394(7) 0.3350(6) 0.7949(6)
H22 H 1.0121 0.4143 0.7599
Mn1_2 Mn 0.61716(9) 0.00591(8) 0.74700(6)
N6_2 N 1.8222(5) -0.0604(5) 0.7947(3)
O3 O 0.8205(7) 0.5626(6) 0.8201(5)
C32 C 0.9132(11) 0.6049(11) 0.8717(9)
O4 O 0.0387(6) 0.3743(6) 0.3544(4)
loop_
_geom_bond_atom_site_label_1
_geom_bond_atom_site_label_2
_geom_bond_site_symmetry_1
_geom_bond_site_symmetry_2
Cr1 N3 1_555 1_555
Mn1 O1 1_555 1_555
Cl1 C24 1_555 1_555
Cl2 C25 1_555 1_555
O1 C1 1_555 1_555
O2 Mn1 1_555 1_555
N1 Mn1 1_555 1_555
N2 Mn1 1_555 1_555
C1 C2 1_555 1_555
N3 C10 1_555 1_555
C2 H1 1_555 1_555
C3 Cr1 1_555 1_555
C4 C7 1_555 1_555
C5 Cr1 1_555 1_555
C6 C2 1_555 1_555
H2 C6 1_555 1_555
C7 O2 1_555 1_555
N4 Cr1 1_555 1_555
C8 N2 1_555 1_555
H3 C8 1_555 1_555
C9 C1 1_555 1_555
C10 C13 1_555 1_555
N5 Mn1 1_555 1_555
C11 C4 1_555 1_555
H4 C11 1_555 1_555
N6 C16 1_555 1_555
C12 C7 1_555 1_555
H5 C12 1_555 1_555
C13 N4 1_555 1_555
C14 H6 1_555 1_555
C15 C13 1_555 1_555
H7 C15 1_555 1_555
C16 Cr1 1_555 1_555
C17 C10 1_555 1_555
H8 C17 1_555 1_555
C18 H9 1_555 1_555
H10 C18 1_555 1_555
C19 N1 1_555 1_555
H11 C19 1_555 1_555
H12 C19 1_555 1_555
C20 C9 1_555 1_555
H13 C20 1_555 1_555
C21 N3 1_555 1_555
H14 C21 1_555 1_555
C22 Cr1 1_555 1_555
C23 C14 1_555 1_555
H15 C23 1_555 1_555
N7 C3 1_555 1_555
C24 C6 1_555 1_555
C25 C11 1_555 1_555
C26 N2 1_555 1_555
H16 C26 1_555 1_555
H17 C26 1_555 1_555
C27 C12 1_555 1_555
H18 C27 1_555 1_555
N8 C5 1_555 1_555
C28 N4 1_555 1_555
H19 C28 1_555 1_555
C29 N1 1_555 1_555
H20 C29 1_555 1_555
C30 C15 1_555 1_555
H21 C30 1_555 1_555
C31 C28 1_555 1_555
H22 C31 1_555 1_555
O3 C32 1_555 1_555
Mn1_2 N6 1_555 1_555
N6_2 Mn1 1_555 1_555
C4 C29 1_555 1_555
C8 C9 1_555 1_555
N5 C22 1_555 1_555
C14 C21 1_555 1_555
C17 C23 1_555 1_555
C18 C19 1_555 1_555
C18 C26 1_555 1_555
C20 C24 1_555 1_555
C25 C27 1_555 1_555
C30 C31 1_555 1_555

#END
