
#######################################################################
#
#                 Cambridge Crystallographic Data Centre
#                                CCDC 
#
#######################################################################
#
# If this CIF has been generated from an entry in the Cambridge 
# Structural Database, then it will include bibliographic, chemical, 
# crystal, experimental, refinement or atomic coordinate data resulting 
# from the CCDC's data processing and validation procedures.
#
#######################################################################

data_HIWBOF
_symmetry_cell_setting           triclinic
_symmetry_space_group_name_H-M   'P -1'
_symmetry_Int_Tables_number      2
_space_group_name_Hall           '-P 1'
loop_
_symmetry_equiv_pos_site_id
_symmetry_equiv_pos_as_xyz
1 x,y,z
2 -x,-y,-z
_cell_length_a                   10.5663(6)
_cell_length_b                   12.0949(7)
_cell_length_c                   15.0986(10)
_cell_angle_alpha                67.683(3)
_cell_angle_beta                 84.657(3)
_cell_angle_gamma                85.292(2)
_cell_volume                     1775
loop_
_atom_site_label
_atom_site_type_symbol
_atom_site_fract_x
_atom_site_fract_y
_atom_site_fract_z
Mn1 Mn 0.62405(7) 0.01473(8) 0.24958(5)
Cr1 Cr 1.12693(8) 0.01132(8) 0.23844(6)
Br1 Br 0.64400(8) -0.53823(7) 0.67722(5)
Br2 Br 0.67815(8) 0.63241(8) -0.09897(5)
O1 O 0.5670(3) -0.0428(3) 0.3807(2)
O2 O 0.6493(3) 0.1685(3) 0.2433(2)
N1 N 0.6921(4) 0.0532(5) 0.1154(3)
N2 N 1.1731(4) -0.0814(5) 0.3789(3)
N3 N 0.6169(4) -0.1461(5) 0.2438(3)
N4 N 0.4236(5) 0.0641(4) 0.2044(3)
C1 C 0.6932(6) 0.3773(7) -0.0076(4)
H1 H 0.7093 0.3777 -0.0693
C2 C 0.5804(5) -0.1539(5) 0.4429(4)
C3 C 0.6609(5) 0.2679(6) 0.1652(4)
C4 C 0.6029(5) -0.2544(6) 0.4156(4)
C5 C 0.5707(5) -0.1733(5) 0.5413(4)
H2 H 0.5531 -0.1087 0.5604
C6 C 0.6861(5) 0.2672(6) 0.0720(4)
N5 N 1.0919(4) 0.1411(5) 0.2961(4)
C7 C 1.1073(5) 0.1873(7) 0.4344(5)
H3 H 1.1276 0.1623 0.4979
C8 C 1.0776(6) 0.1214(6) 0.1038(5)
C9 C 1.1712(6) -0.1308(6) 0.1975(4)
C10 C 0.9394(6) -0.0325(5) 0.2742(4)
C11 C 0.3159(6) 0.0529(5) 0.2087(4)
N6 N 0.8339(5) -0.0496(5) 0.2932(3)
C12 C 0.6130(6) -0.2428(6) 0.3163(5)
H4 H 0.6171 -0.3132 0.3047
C13 C 0.7079(5) 0.1602(7) 0.0540(4)
H5 H 0.7362 0.1680 -0.0082
C14 C 1.2122(5) -0.1980(6) 0.4164(4)
H6 H 1.2120 -0.2443 0.3793
C15 C 0.6500(6) 0.3763(6) 0.1756(4)
H7 H 0.6387 0.3775 0.2371
C16 C 1.2483(6) -0.1840(8) 0.5629(5)
H8 H 1.2736 -0.2189 0.6254
C17 C 1.1210(5) 0.1086(6) 0.3880(5)
C18 C 0.5868(5) -0.2862(6) 0.6095(4)
H9 H 0.5817 -0.2976 0.6742
C19 C 0.6107(5) -0.3835(5) 0.5819(4)
C20 C 1.2072(5) -0.0654(7) 0.5268(4)
H10 H 1.2056 -0.0193 0.5641
N7 N 1.1996(6) -0.2145(6) 0.1798(4)
C21 C 1.1678(5) -0.0151(6) 0.4331(4)
N8 N 1.0512(6) 0.1855(6) 0.0279(4)
C22 C 1.2520(6) -0.2498(7) 0.5077(5)
H11 H 1.2812 -0.3296 0.5314
C23 C 0.6554(6) 0.4843(6) 0.0975(5)
H12 H 0.6451 0.5566 0.1063
C24 C 0.6174(6) -0.3685(6) 0.4878(5)
H13 H 0.6319 -0.4350 0.4708
C25 C 0.6764(6) 0.4821(7) 0.0061(5)
C26 C 1.0470(6) 0.2527(7) 0.2506(5)
H14 H 1.0255 0.2753 0.1875
C27 C 1.0311(7) 0.3361(7) 0.2927(7)
H15 H 0.9991 0.4134 0.2589
C28 C 0.7279(7) -0.0509(7) 0.0898(4)
H16 H 0.8134 -0.0814 0.1079
H17 H 0.7252 -0.0295 0.0212
C29 C 1.0635(7) 0.3028(8) 0.3867(7)
H18 H 1.0557 0.3577 0.4167
C30 C 0.6333(10) -0.1432(8) 0.1437(5)
H19 H 0.6943 -0.2123 0.1576
C31 C 0.5621(15) -0.1793(16) 0.1088(8)
H20 H 0.5146 -0.2403 0.1580
H21 H 0.6077 -0.2125 0.0659
H22 H 0.5047 -0.1151 0.0737
Cr1_2 Cr 0.12693(8) 0.01132(8) 0.23844(6)
C11_2 C 1.3159(6) 0.0529(5) 0.2087(4)
O3 O 0.0165(6) 0.3541(6) 0.8412(4)
O4 O 0.8516(11) 0.5679(10) 0.3302(8)
C32 C 0.948(3) 0.613(3) 0.387(3)
loop_
_geom_bond_atom_site_label_1
_geom_bond_atom_site_label_2
_geom_bond_site_symmetry_1
_geom_bond_site_symmetry_2
Mn1 O1 1_555 1_555
Cr1 N2 1_555 1_555
Br1 C19 1_555 1_555
Br2 C25 1_555 1_555
O1 C2 1_555 1_555
O2 Mn1 1_555 1_555
N1 Mn1 1_555 1_555
N2 C14 1_555 1_555
N3 Mn1 1_555 1_555
N4 Mn1 1_555 1_555
C1 H1 1_555 1_555
C2 C4 1_555 1_555
C3 O2 1_555 1_555
C4 C12 1_555 1_555
C5 C2 1_555 1_555
H2 C5 1_555 1_555
C6 C1 1_555 1_555
N5 Cr1 1_555 1_555
C7 H3 1_555 1_555
C8 Cr1 1_555 1_555
C9 Cr1 1_555 1_555
C10 Cr1 1_555 1_555
C11 N4 1_555 1_555
N6 Mn1 1_555 1_555
C12 N3 1_555 1_555
H4 C12 1_555 1_555
C13 N1 1_555 1_555
H5 C13 1_555 1_555
C14 H6 1_555 1_555
C15 C3 1_555 1_555
H7 C15 1_555 1_555
C16 H8 1_555 1_555
C17 N5 1_555 1_555
C18 C5 1_555 1_555
H9 C18 1_555 1_555
C19 C18 1_555 1_555
C20 C16 1_555 1_555
H10 C20 1_555 1_555
N7 C9 1_555 1_555
C21 N2 1_555 1_555
N8 C8 1_555 1_555
C22 C14 1_555 1_555
H11 C22 1_555 1_555
C23 C15 1_555 1_555
H12 C23 1_555 1_555
C24 C4 1_555 1_555
H13 C24 1_555 1_555
C25 C1 1_555 1_555
C26 N5 1_555 1_555
H14 C26 1_555 1_555
C27 C26 1_555 1_555
H15 C27 1_555 1_555
C28 N1 1_555 1_555
H16 C28 1_555 1_555
H17 C28 1_555 1_555
C29 C7 1_555 1_555
H18 C29 1_555 1_555
C30 N3 1_555 1_555
H19 C30 1_555 1_555
C31 C30 1_555 1_555
H20 C31 1_555 1_555
H21 C31 1_555 1_555
H22 C31 1_555 1_555
O4 C32 1_555 1_555
Cr1_2 C11 1_555 1_555
C11_2 Cr1 1_555 1_555
C3 C6 1_555 1_555
C6 C13 1_555 1_555
C7 C17 1_555 1_555
C10 N6 1_555 1_555
C16 C22 1_555 1_555
C17 C21 1_555 1_555
C19 C24 1_555 1_555
C20 C21 1_555 1_555
C23 C25 1_555 1_555
C27 C29 1_555 1_555
C28 C30 1_555 1_555

#END
