
#######################################################################
#
#                 Cambridge Crystallographic Data Centre
#                                CCDC 
#
#######################################################################
#
# If this CIF has been generated from an entry in the Cambridge 
# Structural Database, then it will include bibliographic, chemical, 
# crystal, experimental, refinement or atomic coordinate data resulting 
# from the CCDC's data processing and validation procedures.
#
#######################################################################

data_HIWCAS
_symmetry_cell_setting           monoclinic
_symmetry_space_group_name_H-M   'P 21/n'
_symmetry_Int_Tables_number      14
_space_group_name_Hall           '-P 2yn'
loop_
_symmetry_equiv_pos_site_id
_symmetry_equiv_pos_as_xyz
1 x,y,z
2 1/2-x,1/2+y,1/2-z
3 -x,-y,-z
4 1/2+x,1/2-y,1/2+z
_cell_length_a                   15.8304(4)
_cell_length_b                   13.4057(3)
_cell_length_c                   19.7864(6)
_cell_angle_alpha                90
_cell_angle_beta                 112.955(10)
_cell_angle_gamma                90
_cell_volume                     3866.51
loop_
_atom_site_label
_atom_site_type_symbol
_atom_site_fract_x
_atom_site_fract_y
_atom_site_fract_z
Mn1 Mn 0.79537(6) -0.14309(7) 0.23303(5)
Cr1 Cr 0.94733(7) 0.18363(7) 0.17578(6)
Br1 Br 0.56543(6) 0.03918(8) -0.14018(5)
Br2 Br 1.27998(6) -0.16712(8) 0.31744(6)
O1 O 0.8820(3) -0.2449(3) 0.2483(3)
O2 O 0.7229(3) -0.1953(3) 0.1397(3)
N1 N 1.0539(4) 0.1256(4) 0.1518(3)
C1 C 0.6943(5) 0.0233(6) 0.2743(4)
H1 H 0.6672 -0.0222 0.2983
H2 H 0.6523 0.0788 0.2552
N2 N 0.7056(4) -0.0288(4) 0.2127(3)
N3 N 0.8702(4) -0.0373(4) 0.1781(3)
N4 N 0.8822(4) -0.0789(4) 0.3273(3)
C2 C 0.9947(5) 0.3284(6) 0.1770(4)
N5 N 0.8891(4) 0.1909(4) 0.0626(3)
C3 C 1.0366(5) 0.1292(5) 0.0790(4)
C4 C 0.8977(4) 0.0406(5) 0.1744(3)
N6 N 0.7201(4) -0.2240(4) 0.2930(3)
C5 C 0.9716(4) -0.2275(5) 0.2670(4)
C6 C 0.6620(4) 0.0022(5) 0.1468(4)
H3 H 0.6290 0.0611 0.1415
C7 C 0.6193(4) 0.0081(6) 0.0126(4)
H4 H 0.5992 0.0734 0.0122
C8 C 1.1002(6) 0.0967(6) 0.0502(5)
C9 C 0.6583(4) -0.0444(5) 0.0800(4)
N7 N 1.0609(6) 0.1524(6) 0.3470(4)
C10 C 1.1976(6) 0.0501(6) 0.1725(6)
H5 H 1.2515 0.0214 0.2054
C11 C 1.0188(5) 0.1665(5) 0.2872(5)
C12 C 0.9496(5) 0.1641(5) 0.0314(4)
C13 C 0.6748(5) -0.1854(6) 0.0117(4)
H6 H 0.6920 -0.2515 0.0104
C14 C 1.0219(5) -0.2905(5) 0.2413(4)
H7 H 0.9932 -0.3456 0.2131
C15 C 0.6112(5) -0.0360(7) -0.0507(4)
C16 C 0.6624(5) -0.2574(5) 0.3064(4)
C17 C 0.9277(7) 0.1676(6) -0.0449(5)
C18 C 1.0166(4) -0.1489(5) 0.3131(4)
N8 N 1.0176(5) 0.4075(5) 0.1742(4)
C19 C 0.6878(4) -0.1418(5) 0.0796(4)
C20 C 0.9705(5) -0.0856(5) 0.3476(4)
H8 H 1.0070 -0.0470 0.3873
C21 C 0.7833(6) 0.0619(5) 0.3299(4)
H9 H 0.8135 0.1016 0.3049
H10 H 0.7703 0.1054 0.3639
C22 C 1.1085(5) -0.1319(6) 0.3294(4)
H11 H 1.1386 -0.0797 0.3604
C23 C 0.6376(5) -0.1333(6) -0.0522(4)
H12 H 0.6302 -0.1634 -0.0965
C24 C 1.1112(5) -0.2736(6) 0.2561(4)
H13 H 1.1432 -0.3160 0.2374
C25 C 0.8059(5) 0.2194(6) 0.0183(4)
H14 H 0.7643 0.2382 0.0386
C26 C 0.8468(5) -0.0182(6) 0.3722(4)
H15 H 0.8981 0.0119 0.4119
H16 H 0.8150 -0.0613 0.3939
C27 C 1.0772(8) 0.1037(6) -0.0258(6)
H17 H 1.1200 0.0846 -0.0447
C28 C 1.1554(5) -0.1927(6) 0.2995(4)
C29 C 1.1820(6) 0.0565(6) 0.1006(7)
H18 H 1.2264 0.0340 0.0843
C30 C 1.1318(5) 0.0871(6) 0.1970(5)
H19 H 1.1436 0.0843 0.2469
C31 C 0.7782(6) 0.2225(7) -0.0576(5)
H20 H 0.7185 0.2411 -0.0869
C32 C 0.8383(7) 0.1984(7) -0.0894(5)
H21 H 0.8202 0.2023 -0.1401
C33 C 0.9952(8) 0.1373(7) -0.0716(5)
H22 H 0.9822 0.1408 -0.1216
Cr1A Cr 0.55267(7) -0.31637(7) 0.32422(6)
C16A C 0.8376(5) 0.2426(5) 0.1936(4)
O3 O 0.1019(7) 0.1921(10) 0.4950(5)
C34 C 0.0218(9) 0.2224(10) 0.4984(8)
O4 O 0.0845(17) 0.5727(8) 0.1157(11)
O5 O 0.305(3) 0.969(2) 0.5191(18)
loop_
_geom_bond_atom_site_label_1
_geom_bond_atom_site_label_2
_geom_bond_site_symmetry_1
_geom_bond_site_symmetry_2
Mn1 O1 1_555 1_555
Cr1 N1 1_555 1_555
Br1 C15 1_555 1_555
Br2 C28 1_555 1_555
O1 C5 1_555 1_555
O2 Mn1 1_555 1_555
N1 C3 1_555 1_555
C1 H1 1_555 1_555
H2 C1 1_555 1_555
N2 Mn1 1_555 1_555
N3 Mn1 1_555 1_555
N4 Mn1 1_555 1_555
C2 Cr1 1_555 1_555
N5 Cr1 1_555 1_555
C3 C8 1_555 1_555
C4 Cr1 1_555 1_555
N6 Mn1 1_555 1_555
C5 C14 1_555 1_555
C6 N2 1_555 1_555
H3 C6 1_555 1_555
C7 H4 1_555 1_555
C8 C27 1_555 1_555
C9 C6 1_555 1_555
N7 C11 1_555 1_555
C10 H5 1_555 1_555
C11 Cr1 1_555 1_555
C12 N5 1_555 1_555
C13 H6 1_555 1_555
C14 H7 1_555 1_555
C15 C7 1_555 1_555
C16 N6 1_555 1_555
C17 C12 1_555 1_555
C18 C5 1_555 1_555
N8 C2 1_555 1_555
C19 O2 1_555 1_555
C20 N4 1_555 1_555
H8 C20 1_555 1_555
C21 C1 1_555 1_555
H9 C21 1_555 1_555
H10 C21 1_555 1_555
C22 C18 1_555 1_555
H11 C22 1_555 1_555
C23 C13 1_555 1_555
H12 C23 1_555 1_555
C24 C14 1_555 1_555
H13 C24 1_555 1_555
C25 N5 1_555 1_555
H14 C25 1_555 1_555
C26 N4 1_555 1_555
H15 C26 1_555 1_555
H16 C26 1_555 1_555
C27 H17 1_555 1_555
C28 C22 1_555 1_555
C29 C8 1_555 1_555
H18 C29 1_555 1_555
C30 N1 1_555 1_555
H19 C30 1_555 1_555
C31 C25 1_555 1_555
H20 C31 1_555 1_555
C32 C17 1_555 1_555
H21 C32 1_555 1_555
C33 C17 1_555 1_555
H22 C33 1_555 1_555
O3 C34 1_555 1_555
Cr1A C16 1_555 1_555
C16A Cr1 1_555 1_555
C1 N2 1_555 1_555
N3 C4 1_555 1_555
C3 C12 1_555 1_555
C7 C9 1_555 1_555
C9 C19 1_555 1_555
C10 C29 1_555 1_555
C10 C30 1_555 1_555
C13 C19 1_555 1_555
C15 C23 1_555 1_555
C18 C20 1_555 1_555
C21 C26 1_555 1_555
C24 C28 1_555 1_555
C27 C33 1_555 1_555
C31 C32 1_555 1_555

#END
