
#######################################################################
#
#                 Cambridge Crystallographic Data Centre
#                                CCDC 
#
#######################################################################
#
# If this CIF has been generated from an entry in the Cambridge 
# Structural Database, then it will include bibliographic, chemical, 
# crystal, experimental, refinement or atomic coordinate data resulting 
# from the CCDC's data processing and validation procedures.
#
#######################################################################

data_HIWDOI
_symmetry_cell_setting           monoclinic
_symmetry_space_group_name_H-M   'P 21/n'
_symmetry_Int_Tables_number      14
_space_group_name_Hall           '-P 2yn'
loop_
_symmetry_equiv_pos_site_id
_symmetry_equiv_pos_as_xyz
1 x,y,z
2 1/2-x,1/2+y,1/2-z
3 -x,-y,-z
4 1/2+x,1/2-y,1/2+z
_cell_length_a                   9.66800(10)
_cell_length_b                   25.7662(2)
_cell_length_c                   15.4843(2)
_cell_angle_alpha                90
_cell_angle_beta                 106.4700(10)
_cell_angle_gamma                90
_cell_volume                     3698.99
loop_
_atom_site_label
_atom_site_type_symbol
_atom_site_fract_x
_atom_site_fract_y
_atom_site_fract_z
Cr1 Cr 0.94028(8) 0.34734(3) 0.83906(5)
N1 N 0.8975(4) 0.35884(16) 0.9566(3)
N2 N 0.7299(4) 0.36288(17) 0.7777(3)
N3 N 0.9860(4) 0.33481(17) 0.7233(3)
N4 N 1.1459(5) 0.33225(17) 0.9073(3)
N5 N 0.9972(4) 0.42121(17) 0.8317(3)
N6 N 0.8922(4) 0.27188(17) 0.8411(3)
C1 C 0.8531(5) 0.36170(17) 1.0194(3)
C2 C 0.6102(5) 0.36530(19) 0.7767(3)
C3 C 1.0326(5) 0.32372(18) 0.6645(3)
C4 C 1.2601(5) 0.32892(17) 0.9580(3)
C5 C 1.0784(5) 0.45404(19) 0.8269(3)
C6 C 0.8639(5) 0.2277(2) 0.8256(3)
S1 S 0.79384(13) 0.36367(5) 1.10667(8)
S2 S 0.44112(13) 0.36697(6) 0.77746(8)
S3 S 1.08663(13) 0.30675(5) 0.57924(8)
S4 S 1.41693(13) 0.32312(5) 1.03151(10)
S5 S 1.18561(13) 0.50090(5) 0.82054(9)
S6 S 0.82069(14) 0.16740(5) 0.80611(9)
La1 La 0.27161(2) 0.495088(8) 0.505187(14)
O1 O 0.1014(3) 0.54882(14) 0.3810(2)
H1 H 0.016(8) 0.550(3) 0.377(5)
H2 H 0.119(7) 0.567(3) 0.339(5)
O2 O 0.1886(3) 0.43485(13) 0.6206(2)
H3 H 0.234(7) 0.443(3) 0.669(5)
H4 H 0.193(7) 0.402(3) 0.611(5)
O3 O 0.1011(3) 0.42997(12) 0.4139(2)
O4 O -0.1102(3) 0.45902(12) 0.4261(2)
O5 O 0.3804(3) 0.58206(11) 0.5114(2)
O6 O 0.5874(3) 0.58592(11) 0.4725(2)
O7 O 0.4207(3) 0.50781(13) 0.6664(2)
O8 O 0.6159(3) 0.50492(12) 0.61697(19)
C7 C -0.0336(4) 0.42629(16) 0.4019(3)
C8 C -0.1047(4) 0.37682(17) 0.3604(3)
C9 C -0.0196(5) 0.33408(18) 0.3611(3)
H5 H 0.0824 0.3371 0.3826
N7 N -0.0805(4) 0.28751(16) 0.3312(3)
H6 H -0.0250 0.2601 0.3343
C10 C -0.2252(6) 0.2826(2) 0.2965(3)
H7 H -0.2655 0.2498 0.2752
C11 C -0.3135(5) 0.3244(2) 0.2919(3)
H8 H -0.4147 0.3212 0.2660
C12 C -0.2524(4) 0.37174(19) 0.3259(3)
H9 H -0.3129 0.4009 0.3253
C13 C 0.4740(4) 0.60442(18) 0.4825(3)
C14 C 0.4425(4) 0.66068(16) 0.4549(3)
C15 C 0.5439(5) 0.69093(18) 0.4298(3)
H10 H 0.6357 0.6770 0.4318
C16 C 0.5099(6) 0.74155(19) 0.4019(4)
H11 H 0.5776 0.7622 0.3832
C17 C 0.3809(6) 0.76154(19) 0.4012(3)
H12 H 0.3578 0.7964 0.3829
N8 N 0.2842(5) 0.73146(16) 0.4267(3)
H13 H 0.1999 0.7447 0.4257
C18 C 0.3134(5) 0.68236(19) 0.4531(3)
H14 H 0.2434 0.6624 0.4708
C19 C 0.5533(5) 0.51144(16) 0.6767(3)
C20 C 0.6439(4) 0.52566(16) 0.7698(3)
C21 C 0.7912(4) 0.53871(18) 0.7883(3)
H15 H 0.8381 0.5370 0.7421
C22 C 0.8667(5) 0.5540(2) 0.8745(3)
H16 H 0.9657 0.5632 0.8875
C23 C 0.7988(5) 0.5559(2) 0.9411(3)
H17 H 0.8504 0.5662 1.0004
N9 N 0.6579(4) 0.54317(16) 0.9215(2)
H18 H 0.6153 0.5446 0.9647
C24 C 0.5804(5) 0.52850(18) 0.8395(3)
H19 H 0.4814 0.5200 0.8288
La1B La -0.27161(2) 0.504912(8) 0.494813(14)
La1B_2 La 0.72839(2) 0.504912(8) 0.494813(14)
O4B O 0.1102(3) 0.54098(12) 0.5739(2)
O6B O 0.4126(3) 0.41408(11) 0.5275(2)
O8B O 0.3841(3) 0.49508(12) 0.38303(19)
O9 O 0.4760(4) 0.55830(14) 1.0294(2)
H20 H 0.398(7) 0.575(3) 0.993(5)
H21 H 0.519(7) 0.575(3) 1.079(5)
O10 O 0.1431(4) 0.23081(17) 0.4256(3)
H22 H 0.225(5) 0.215(2) 0.407(4)
H23 H 0.086(6) 0.208(2) 0.458(4)
loop_
_geom_bond_atom_site_label_1
_geom_bond_atom_site_label_2
_geom_bond_site_symmetry_1
_geom_bond_site_symmetry_2
Cr1 N1 1_555 1_555
N1 C1 1_555 1_555
N2 Cr1 1_555 1_555
N3 Cr1 1_555 1_555
N4 Cr1 1_555 1_555
N5 Cr1 1_555 1_555
N6 Cr1 1_555 1_555
C1 S1 1_555 1_555
C2 N2 1_555 1_555
C3 N3 1_555 1_555
C4 N4 1_555 1_555
C5 N5 1_555 1_555
C6 N6 1_555 1_555
S2 C2 1_555 1_555
S3 C3 1_555 1_555
S4 C4 1_555 1_555
S5 C5 1_555 1_555
S6 C6 1_555 1_555
La1 O1 1_555 1_555
O1 H1 1_555 1_555
H2 O1 1_555 1_555
O2 La1 1_555 1_555
H3 O2 1_555 1_555
H4 O2 1_555 1_555
O3 La1 1_555 1_555
O4 C7 1_555 1_555
O5 La1 1_555 1_555
O6 C13 1_555 1_555
O7 La1 1_555 1_555
O8 C19 1_555 1_555
C7 O3 1_555 1_555
C8 C7 1_555 1_555
C9 C8 1_555 1_555
H5 C9 1_555 1_555
N7 C9 1_555 1_555
H6 N7 1_555 1_555
C10 N7 1_555 1_555
H7 C10 1_555 1_555
C11 C10 1_555 1_555
H8 C11 1_555 1_555
C12 C8 1_555 1_555
H9 C12 1_555 1_555
C13 O5 1_555 1_555
C14 C13 1_555 1_555
C15 C14 1_555 1_555
H10 C15 1_555 1_555
C16 C15 1_555 1_555
H11 C16 1_555 1_555
C17 C16 1_555 1_555
H12 C17 1_555 1_555
N8 C17 1_555 1_555
H13 N8 1_555 1_555
C18 C14 1_555 1_555
H14 C18 1_555 1_555
C19 O7 1_555 1_555
C20 C19 1_555 1_555
C21 C20 1_555 1_555
H15 C21 1_555 1_555
C22 C21 1_555 1_555
H16 C22 1_555 1_555
C23 C22 1_555 1_555
H17 C23 1_555 1_555
N9 C23 1_555 1_555
H18 N9 1_555 1_555
C24 C20 1_555 1_555
H19 C24 1_555 1_555
O9 H20 1_555 1_555
H21 O9 1_555 1_555
O10 H22 1_555 1_555
H23 O10 1_555 1_555
La1B O4 1_555 1_555
La1B_2 O6 1_555 1_555
O4B La1 1_555 1_555
O6B La1 1_555 1_555
O8B La1 1_555 1_555
O8 La1B_2 1_555 1_555
C11 C12 1_555 1_555
N8 C18 1_555 1_555
N9 C24 1_555 1_555

#END
