
#######################################################################
#
#                 Cambridge Crystallographic Data Centre
#                                CCDC 
#
#######################################################################
#
# If this CIF has been generated from an entry in the Cambridge 
# Structural Database, then it will include bibliographic, chemical, 
# crystal, experimental, refinement or atomic coordinate data resulting 
# from the CCDC's data processing and validation procedures.
#
#######################################################################

data_HIWDIC
_symmetry_cell_setting           monoclinic
_symmetry_space_group_name_H-M   'P 21/n'
_symmetry_Int_Tables_number      14
_space_group_name_Hall           '-P 2yn'
loop_
_symmetry_equiv_pos_site_id
_symmetry_equiv_pos_as_xyz
1 x,y,z
2 1/2-x,1/2+y,1/2-z
3 -x,-y,-z
4 1/2+x,1/2-y,1/2+z
_cell_length_a                   9.53120(10)
_cell_length_b                   25.5166(4)
_cell_length_c                   15.3843(3)
_cell_angle_alpha                90
_cell_angle_beta                 104.9450(10)
_cell_angle_gamma                90
_cell_volume                     3614.96
loop_
_atom_site_label
_atom_site_type_symbol
_atom_site_fract_x
_atom_site_fract_y
_atom_site_fract_z
Cr1 Cr 0.92021(5) 0.349988(19) 0.84161(3)
N1 N 0.8709(3) 0.36035(10) 0.95859(19)
N2 N 0.7132(3) 0.36683(11) 0.7791(2)
N3 N 0.9730(3) 0.33803(11) 0.72580(19)
N4 N 1.1234(3) 0.33288(10) 0.90717(19)
N5 N 0.9822(3) 0.42430(10) 0.83651(19)
N6 N 0.8701(3) 0.27309(11) 0.8405(2)
C1 C 0.8280(3) 0.36148(11) 1.0221(2)
C2 C 0.5904(4) 0.36778(12) 0.7767(2)
C3 C 1.0189(3) 0.32556(11) 0.6665(2)
C4 C 1.2415(3) 0.32777(11) 0.9514(2)
C5 C 1.0676(3) 0.45603(12) 0.8295(2)
C6 C 0.8644(3) 0.22905(12) 0.8231(2)
S1 S 0.77015(9) 0.36346(3) 1.11264(6)
S2 S 0.41869(9) 0.36796(3) 0.77468(6)
S3 S 1.07513(9) 0.30758(4) 0.58086(6)
S4 S 1.40502(9) 0.31960(4) 1.01425(7)
S5 S 1.18042(9) 0.50136(4) 0.82080(7)
S6 S 0.85765(9) 0.16718(3) 0.79670(7)
Nd1 Nd 0.272035(14) 0.496095(5) 0.506871(9)
O1 O 0.1090(3) 0.54498(10) 0.37987(17)
H1 H 0.129(4) 0.5603(15) 0.345(3)
H2 H 0.025(4) 0.5494(13) 0.377(2)
O2 O 0.1837(2) 0.44016(9) 0.62271(16)
H3 H 0.219(4) 0.4505(16) 0.665(3)
H4 H 0.225(5) 0.4087(13) 0.623(4)
O3 O 0.11133(18) 0.42864(7) 0.42159(13)
O4 O -0.10598(19) 0.45561(7) 0.43176(13)
O5 O 0.37734(19) 0.58182(7) 0.50495(14)
O6 O 0.58668(19) 0.58344(7) 0.46385(13)
O7 O 0.41532(19) 0.51387(7) 0.66285(13)
O8 O 0.6137(2) 0.50856(7) 0.61292(13)
C7 C -0.0232(3) 0.42338(10) 0.40984(18)
C8 C -0.0888(3) 0.37270(10) 0.36725(18)
C9 C -0.0028(3) 0.33008(11) 0.3576(2)
H5 H 0.0999 0.3334 0.3734
C10 C -0.0672(4) 0.28292(11) 0.3252(2)
H6 H -0.0089 0.2536 0.3193
C11 C -0.2144(4) 0.27885(12) 0.3017(2)
H7 H -0.2595 0.2465 0.2799
N7 N -0.2952(3) 0.32039(10) 0.30938(18)
H8 H -0.393(4) 0.3175(13) 0.295(2)
C12 C -0.2378(3) 0.36695(11) 0.3416(2)
H9 H -0.2992 0.3955 0.3465
C13 C 0.4740(3) 0.60383(10) 0.47599(19)
C14 C 0.4494(3) 0.66070(10) 0.45043(18)
C15 C 0.5553(3) 0.69055(11) 0.4272(2)
H10 H 0.6467 0.6753 0.4282
C16 C 0.5288(4) 0.74250(11) 0.4024(2)
H11 H 0.6014 0.7632 0.3867
C17 C 0.3961(4) 0.76337(11) 0.4011(2)
H12 H 0.3757 0.7988 0.3837
N8 N 0.2949(3) 0.73409(10) 0.42419(19)
H13 H 0.204(4) 0.7480(16) 0.425(3)
C18 C 0.3182(3) 0.68373(10) 0.44847(19)
H14 H 0.2440 0.6640 0.4643
C19 C 0.5501(3) 0.51630(10) 0.67314(18)
C20 C 0.6403(3) 0.53060(10) 0.76579(18)
C21 C 0.7861(3) 0.54429(11) 0.7815(2)
H15 H 0.8324 0.5437 0.7337
C22 C 0.8636(3) 0.55874(12) 0.8675(2)
H16 H 0.9630 0.5683 0.8790
C23 C 0.7954(3) 0.55907(11) 0.9351(2)
H17 H 0.8472 0.5694 0.9940
N9 N 0.6555(3) 0.54490(10) 0.91906(18)
H18 H 0.606(3) 0.5474(12) 0.957(2)
C24 C 0.5778(3) 0.53110(11) 0.8369(2)
H19 H 0.4787 0.5216 0.8276
Nd1B Nd -0.272035(14) 0.503905(5) 0.493129(9)
Nd1B_2 Nd 0.727965(14) 0.503905(5) 0.493129(9)
O4B O 0.10598(19) 0.54439(7) 0.56824(13)
O6B O 0.41332(19) 0.41656(7) 0.53615(13)
O8B O 0.3863(2) 0.49144(7) 0.38708(13)
O9 O 0.4822(3) 0.55800(9) 1.03447(19)
H20 H 0.526(5) 0.5775(19) 1.078(4)
H21 H 0.421(4) 0.5751(15) 1.003(3)
loop_
_geom_bond_atom_site_label_1
_geom_bond_atom_site_label_2
_geom_bond_site_symmetry_1
_geom_bond_site_symmetry_2
Cr1 N1 1_555 1_555
N1 C1 1_555 1_555
N2 Cr1 1_555 1_555
N3 Cr1 1_555 1_555
N4 Cr1 1_555 1_555
N5 Cr1 1_555 1_555
N6 Cr1 1_555 1_555
C1 S1 1_555 1_555
C2 N2 1_555 1_555
C3 N3 1_555 1_555
C4 N4 1_555 1_555
C5 N5 1_555 1_555
C6 N6 1_555 1_555
S2 C2 1_555 1_555
S3 C3 1_555 1_555
S4 C4 1_555 1_555
S5 C5 1_555 1_555
S6 C6 1_555 1_555
Nd1 O1 1_555 1_555
O1 H1 1_555 1_555
H2 O1 1_555 1_555
O2 Nd1 1_555 1_555
H3 O2 1_555 1_555
H4 O2 1_555 1_555
O3 Nd1 1_555 1_555
O4 C7 1_555 1_555
O5 Nd1 1_555 1_555
O6 C13 1_555 1_555
O7 Nd1 1_555 1_555
O8 C19 1_555 1_555
C7 O3 1_555 1_555
C8 C7 1_555 1_555
C9 C8 1_555 1_555
H5 C9 1_555 1_555
C10 C9 1_555 1_555
H6 C10 1_555 1_555
C11 C10 1_555 1_555
H7 C11 1_555 1_555
N7 C11 1_555 1_555
H8 N7 1_555 1_555
C12 C8 1_555 1_555
H9 C12 1_555 1_555
C13 O5 1_555 1_555
C14 C13 1_555 1_555
C15 C14 1_555 1_555
H10 C15 1_555 1_555
C16 C15 1_555 1_555
H11 C16 1_555 1_555
C17 C16 1_555 1_555
H12 C17 1_555 1_555
N8 C17 1_555 1_555
H13 N8 1_555 1_555
C18 C14 1_555 1_555
H14 C18 1_555 1_555
C19 O7 1_555 1_555
C20 C19 1_555 1_555
C21 C20 1_555 1_555
H15 C21 1_555 1_555
C22 C21 1_555 1_555
H16 C22 1_555 1_555
C23 C22 1_555 1_555
H17 C23 1_555 1_555
N9 C23 1_555 1_555
H18 N9 1_555 1_555
C24 C20 1_555 1_555
H19 C24 1_555 1_555
O9 H20 1_555 1_555
H21 O9 1_555 1_555
Nd1B O4 1_555 1_555
Nd1B_2 O6 1_555 1_555
O4B Nd1 1_555 1_555
O6B Nd1 1_555 1_555
O8B Nd1 1_555 1_555
O8 Nd1B_2 1_555 1_555
N7 C12 1_555 1_555
N8 C18 1_555 1_555
N9 C24 1_555 1_555

#END
