
#######################################################################
#
#                 Cambridge Crystallographic Data Centre
#                                CCDC 
#
#######################################################################
#
# If this CIF has been generated from an entry in the Cambridge 
# Structural Database, then it will include bibliographic, chemical, 
# crystal, experimental, refinement or atomic coordinate data resulting 
# from the CCDC's data processing and validation procedures.
#
#######################################################################

data_HIWFOK
_symmetry_cell_setting           monoclinic
_symmetry_space_group_name_H-M   'C 2/c'
_symmetry_Int_Tables_number      15
_space_group_name_Hall           '-C 2yn'
loop_
_symmetry_equiv_pos_site_id
_symmetry_equiv_pos_as_xyz
1 x,y,z
2 -x,y,1/2-z
3 1/2+x,1/2+y,z
4 1/2-x,1/2+y,1/2-z
5 -x,-y,-z
6 x,-y,1/2+z
7 1/2-x,1/2-y,-z
8 1/2+x,1/2-y,1/2+z
_cell_length_a                   20.3073(13)
_cell_length_b                   10.8593(4)
_cell_length_c                   25.026(2)
_cell_angle_alpha                90
_cell_angle_beta                 110.129(8)
_cell_angle_gamma                90
_cell_volume                     5181.72
loop_
_atom_site_label
_atom_site_type_symbol
_atom_site_fract_x
_atom_site_fract_y
_atom_site_fract_z
Ga1 Ga 0.14770(3) 0.12510(5) 0.13681(2)
O1 O 0.1996(4) -0.0516(6) 0.1747(3)
O2 O 0.0880(4) -0.0589(7) 0.1257(3)
O3 O 0.3082(5) -0.2951(7) 0.2796(3)
O4 O 0.4070(5) -0.3758(10) 0.2831(4)
O5 O 0.1341(4) 0.3214(7) 0.1045(3)
O6 O 0.0390(4) 0.2045(6) 0.0797(3)
N1 N 0.2576(4) 0.1674(7) 0.1336(3)
N2 N 0.1508(4) 0.0665(8) 0.0489(3)
C1 C 0.2018(5) -0.3197(8) 0.1731(4)
C2 C 0.1448(5) -0.2440(7) 0.1665(4)
C3 C 0.0860(5) -0.2910(9) 0.1775(4)
H1 H 0.0476 -0.2394 0.1717
C4 C 0.0822(6) -0.4088(9) 0.1964(5)
H2 H 0.0434 -0.4369 0.2044
C5 C 0.1421(8) -0.4857(10) 0.2029(5)
H3 H 0.1420 -0.5661 0.2157
C6 C 0.1998(6) -0.4441(8) 0.1908(4)
H4 H 0.2371 -0.4969 0.1942
C7 C 0.2628(5) -0.2790(8) 0.1571(4)
C8 C 0.3325(5) -0.2879(8) 0.1941(4)
C9 C 0.3859(7) -0.2560(12) 0.1753(5)
H5 H 0.4320 -0.2584 0.2003
C10 C 0.3715(9) -0.2196(14) 0.1183(7)
H6 H 0.4083 -0.2067 0.1048
C11 C 0.3044(8) -0.2032(12) 0.0832(5)
H7 H 0.2947 -0.1680 0.0474
C12 C 0.2515(7) -0.2394(11) 0.1015(4)
H8 H 0.2058 -0.2378 0.0758
C13 C 0.1439(5) -0.1157(9) 0.1541(4)
C14 C 0.3511(6) -0.3245(10) 0.2545(4)
C15 C 0.3122(5) 0.2210(12) 0.1748(4)
H9 H 0.3053 0.2402 0.2087
C16 C 0.3750(7) 0.2491(17) 0.1715(5)
H10 H 0.4087 0.2912 0.2006
C17 C 0.3872(7) 0.2128(18) 0.1231(8)
H11 H 0.4314 0.2242 0.1206
C18 C 0.3316(6) 0.1561(12) 0.0751(5)
C19 C 0.2682(5) 0.1365(8) 0.0834(4)
C20 C 0.3382(9) 0.1189(14) 0.0227(7)
H12 H 0.3816 0.1232 0.0181
C21 C 0.2813(9) 0.0767(16) -0.0210(7)
H13 H 0.2853 0.0626 -0.0565
C22 C 0.2187(6) 0.0548(10) -0.0135(5)
C23 C 0.1603(8) 0.0066(11) -0.0556(5)
H14 H 0.1632 -0.0148 -0.0907
C24 C 0.0979(7) -0.0099(12) -0.0457(5)
H15 H 0.0583 -0.0424 -0.0733
C25 C 0.0976(6) 0.0237(12) 0.0060(5)
H16 H 0.0552 0.0157 0.0122
C26 C 0.2111(5) 0.0841(9) 0.0397(4)
C27 C 0.0309(5) 0.4077(8) 0.0381(3)
C28 C -0.0288(5) 0.3833(8) -0.0075(4)
H17 H -0.0486 0.3051 -0.0123
C29 C -0.0594(5) 0.4766(8) -0.0464(4)
H18 H -0.0991 0.4603 -0.0779
C30 C 0.0700(5) 0.3038(9) 0.0753(4)
O5D O -0.1341(4) 0.6786(7) -0.1045(3)
O6D O -0.0390(4) 0.7955(6) -0.0797(3)
C27D C -0.0309(5) 0.5923(8) -0.0381(3)
C28D C 0.0288(5) 0.6167(8) 0.0075(4)
H17D H 0.0486 0.6949 0.0123
C29D C 0.0594(5) 0.5234(8) 0.0464(4)
H18D H 0.0991 0.5397 0.0779
C30D C -0.0700(5) 0.6962(9) -0.0753(4)
Ga1D Ga -0.14770(3) 0.87490(5) -0.13681(2)
O1D O -0.1996(4) 1.0516(6) -0.1747(3)
O2D O -0.0880(4) 1.0589(7) -0.1257(3)
O3D O -0.3082(5) 1.2951(7) -0.2796(3)
O4D O -0.4070(5) 1.3758(10) -0.2831(4)
N1D N -0.2576(4) 0.8326(7) -0.1336(3)
N2D N -0.1508(4) 0.9335(8) -0.0489(3)
C1D C -0.2018(5) 1.3197(8) -0.1731(4)
C2D C -0.1448(5) 1.2440(7) -0.1665(4)
C3D C -0.0860(5) 1.2910(9) -0.1775(4)
H1D H -0.0476 1.2394 -0.1717
C4D C -0.0822(6) 1.4088(9) -0.1964(5)
H2D H -0.0434 1.4369 -0.2044
C5D C -0.1421(8) 1.4857(10) -0.2029(5)
H3D H -0.1420 1.5661 -0.2157
C6D C -0.1998(6) 1.4441(8) -0.1908(4)
H4D H -0.2371 1.4969 -0.1942
C7D C -0.2628(5) 1.2790(8) -0.1571(4)
C8D C -0.3325(5) 1.2879(8) -0.1941(4)
C9D C -0.3859(7) 1.2560(12) -0.1753(5)
H5D H -0.4320 1.2584 -0.2003
C10D C -0.3715(9) 1.2196(14) -0.1183(7)
H6D H -0.4083 1.2067 -0.1048
C11D C -0.3044(8) 1.2032(12) -0.0832(5)
H7D H -0.2947 1.1680 -0.0474
C12D C -0.2515(7) 1.2394(11) -0.1015(4)
H8D H -0.2058 1.2378 -0.0758
C13D C -0.1439(5) 1.1157(9) -0.1541(4)
C14D C -0.3511(6) 1.3245(10) -0.2545(4)
C15D C -0.3122(5) 0.7790(12) -0.1748(4)
H9D H -0.3053 0.7598 -0.2087
C16D C -0.3750(7) 0.7509(17) -0.1715(5)
H10D H -0.4087 0.7088 -0.2006
C17D C -0.3872(7) 0.7872(18) -0.1231(8)
H11D H -0.4314 0.7758 -0.1206
C18D C -0.3316(6) 0.8439(12) -0.0751(5)
C19D C -0.2682(5) 0.8635(8) -0.0834(4)
C20D C -0.3382(9) 0.8811(14) -0.0227(7)
H12D H -0.3816 0.8768 -0.0181
C21D C -0.2813(9) 0.9233(16) 0.0210(7)
H13D H -0.2853 0.9374 0.0565
C22D C -0.2187(6) 0.9452(10) 0.0135(5)
C23D C -0.1603(8) 0.9934(11) 0.0556(5)
H14D H -0.1632 1.0148 0.0907
C24D C -0.0979(7) 1.0099(12) 0.0457(5)
H15D H -0.0583 1.0424 0.0733
C25D C -0.0976(6) 0.9763(12) -0.0060(5)
H16D H -0.0552 0.9843 -0.0122
C26D C -0.2111(5) 0.9159(9) -0.0397(4)
Ga1C Ga 0.35230(3) -0.37490(5) 0.36319(2)
Ga1G Ga -0.35230(3) 1.37490(5) -0.36319(2)
O3C O 0.1918(5) 0.2049(7) 0.2204(3)
O3G O -0.1918(5) 0.7951(7) -0.2204(3)
O7 O 0.0000 -0.0473(16) 0.2500
H19? H 0.0299 -0.0247 0.2815
H20? H -0.0134 0.0148 0.2283
loop_
_geom_bond_atom_site_label_1
_geom_bond_atom_site_label_2
_geom_bond_site_symmetry_1
_geom_bond_site_symmetry_2
Ga1 O1 1_555 1_555
O1 C13 1_555 1_555
O2 Ga1 1_555 1_555
O3 C14 1_555 1_555
O4 C14 1_555 1_555
O5 Ga1 1_555 1_555
O6 Ga1 1_555 1_555
N1 Ga1 1_555 1_555
N2 Ga1 1_555 1_555
C1 C2 1_555 1_555
C2 C3 1_555 1_555
C3 H1 1_555 1_555
C4 C3 1_555 1_555
H2 C4 1_555 1_555
C5 C4 1_555 1_555
H3 C5 1_555 1_555
C6 C1 1_555 1_555
H4 C6 1_555 1_555
C7 C1 1_555 1_555
C8 C7 1_555 1_555
C9 C8 1_555 1_555
H5 C9 1_555 1_555
C10 C9 1_555 1_555
H6 C10 1_555 1_555
C11 C10 1_555 1_555
H7 C11 1_555 1_555
C12 C7 1_555 1_555
H8 C12 1_555 1_555
C13 O2 1_555 1_555
C14 C8 1_555 1_555
C15 N1 1_555 1_555
H9 C15 1_555 1_555
C16 C15 1_555 1_555
H10 C16 1_555 1_555
C17 C16 1_555 1_555
H11 C17 1_555 1_555
C18 C17 1_555 1_555
C19 N1 1_555 1_555
C20 C18 1_555 1_555
H12 C20 1_555 1_555
C21 C20 1_555 1_555
H13 C21 1_555 1_555
C22 C21 1_555 1_555
C23 C22 1_555 1_555
H14 C23 1_555 1_555
C24 C23 1_555 1_555
H15 C24 1_555 1_555
C25 N2 1_555 1_555
H16 C25 1_555 1_555
C26 N2 1_555 1_555
C27 C28 1_555 1_555
C28 H17 1_555 1_555
C29 C28 1_555 1_555
H18 C29 1_555 1_555
C30 O5 1_555 1_555
O5D C30D 1_555 1_555
O6D C30D 1_555 1_555
C27D C29 1_555 1_555
C28D C27D 1_555 1_555
H17D C28D 1_555 1_555
C29D C27 1_555 1_555
H18D C29D 1_555 1_555
C30D C27D 1_555 1_555
Ga1D O5D 1_555 1_555
O1D Ga1D 1_555 1_555
O2D Ga1D 1_555 1_555
O3D C14D 1_555 1_555
O4D C14D 1_555 1_555
N1D Ga1D 1_555 1_555
N2D Ga1D 1_555 1_555
C1D C2D 1_555 1_555
C2D C3D 1_555 1_555
C3D H1D 1_555 1_555
C4D C3D 1_555 1_555
H2D C4D 1_555 1_555
C5D C4D 1_555 1_555
H3D C5D 1_555 1_555
C6D C1D 1_555 1_555
H4D C6D 1_555 1_555
C7D C1D 1_555 1_555
C8D C7D 1_555 1_555
C9D C8D 1_555 1_555
H5D C9D 1_555 1_555
C10D C9D 1_555 1_555
H6D C10D 1_555 1_555
C11D C10D 1_555 1_555
H7D C11D 1_555 1_555
C12D C7D 1_555 1_555
H8D C12D 1_555 1_555
C13D O1D 1_555 1_555
C14D C8D 1_555 1_555
C15D N1D 1_555 1_555
H9D C15D 1_555 1_555
C16D C15D 1_555 1_555
H10D C16D 1_555 1_555
C17D C16D 1_555 1_555
H11D C17D 1_555 1_555
C18D C17D 1_555 1_555
C19D N1D 1_555 1_555
C20D C18D 1_555 1_555
H12D C20D 1_555 1_555
C21D C20D 1_555 1_555
H13D C21D 1_555 1_555
C22D C21D 1_555 1_555
C23D C22D 1_555 1_555
H14D C23D 1_555 1_555
C24D C23D 1_555 1_555
H15D C24D 1_555 1_555
C25D N2D 1_555 1_555
H16D C25D 1_555 1_555
C26D N2D 1_555 1_555
Ga1C O3 1_555 1_555
Ga1G O3D 1_555 1_555
O3C Ga1 1_555 1_555
O3G Ga1D 1_555 1_555
O6 C30 1_555 1_555
C2 C13 1_555 1_555
C5 C6 1_555 1_555
C11 C12 1_555 1_555
C18 C19 1_555 1_555
C19 C26 1_555 1_555
C22 C26 1_555 1_555
C24 C25 1_555 1_555
C27 C30 1_555 1_555
O6D Ga1D 1_555 1_555
C28D C29D 1_555 1_555
O2D C13D 1_555 1_555
C2D C13D 1_555 1_555
C5D C6D 1_555 1_555
C11D C12D 1_555 1_555
C18D C19D 1_555 1_555
C19D C26D 1_555 1_555
C22D C26D 1_555 1_555
C24D C25D 1_555 1_555

#END
