
#######################################################################
#
#                 Cambridge Crystallographic Data Centre
#                                CCDC 
#
#######################################################################
#
# If this CIF has been generated from an entry in the Cambridge 
# Structural Database, then it will include bibliographic, chemical, 
# crystal, experimental, refinement or atomic coordinate data resulting 
# from the CCDC's data processing and validation procedures.
#
#######################################################################

data_HIWFUQ
_symmetry_cell_setting           monoclinic
_symmetry_space_group_name_H-M   'C 2/c'
_symmetry_Int_Tables_number      15
_space_group_name_Hall           '-C 2yn'
loop_
_symmetry_equiv_pos_site_id
_symmetry_equiv_pos_as_xyz
1 x,y,z
2 -x,y,1/2-z
3 1/2+x,1/2+y,z
4 1/2-x,1/2+y,1/2-z
5 -x,-y,-z
6 x,-y,1/2+z
7 1/2-x,1/2-y,-z
8 1/2+x,1/2-y,1/2+z
_cell_length_a                   20.347(4)
_cell_length_b                   10.869(2)
_cell_length_c                   25.052(5)
_cell_angle_alpha                90
_cell_angle_beta                 110.29(3)
_cell_angle_gamma                90
_cell_volume                     5196.51
loop_
_atom_site_label
_atom_site_type_symbol
_atom_site_fract_x
_atom_site_fract_y
_atom_site_fract_z
In1 In -0.14774(2) 1.37520(3) -0.136654(17)
O1 O -0.0884(2) 1.5590(4) -0.1245(2)
O2 O -0.2010(2) 1.5515(3) -0.17357(18)
O3 O -0.3091(3) 1.7940(4) -0.28040(19)
O4 O -0.4052(3) 1.8775(7) -0.2821(3)
O5 O -0.0390(3) 1.2943(4) -0.0797(2)
O6 O -0.1325(2) 1.1813(4) -0.10448(19)
N1 N -0.2588(3) 1.3325(5) -0.1332(2)
N2 N -0.1511(3) 1.4320(5) -0.0486(2)
C1 C -0.2015(3) 1.8214(5) -0.1729(2)
C2 C -0.1443(3) 1.7466(5) -0.1671(2)
C3 C -0.0867(4) 1.7908(6) -0.1787(3)
H1 H -0.0485 1.7395 -0.1740
C4 C -0.0856(4) 1.9106(6) -0.1971(3)
H2 H -0.0471 1.9400 -0.2051
C5 C -0.1428(5) 1.9862(6) -0.2035(3)
H3 H -0.1430 2.0666 -0.2162
C6 C -0.1989(4) 1.9429(5) -0.1911(3)
H4 H -0.2363 1.9954 -0.1947
C7 C -0.2623(4) 1.7806(5) -0.1567(3)
C8 C -0.3322(4) 1.7881(5) -0.1940(3)
C9 C -0.3867(5) 1.7546(7) -0.1751(3)
H5 H -0.4328 1.7615 -0.1998
C10 C -0.3732(5) 1.7114(7) -0.1205(4)
H6 H -0.4098 1.6864 -0.1088
C11 C -0.3047(5) 1.7055(7) -0.0833(3)
H7 H -0.2949 1.6787 -0.0461
C12 C -0.2519(4) 1.7394(6) -0.1017(3)
H8 H -0.2062 1.7348 -0.0762
C13 C -0.1441(3) 1.6115(5) -0.1539(3)
C14 C -0.3511(4) 1.8235(7) -0.2554(3)
C15 C -0.0312(3) 1.0935(5) -0.0386(2)
C16 C 0.0279(3) 1.1171(5) 0.0085(3)
H9 H 0.0465 1.1962 0.0145
C17 C 0.0596(3) 1.0254(5) 0.0464(3)
H10 H 0.0999 1.0422 0.0773
C18 C -0.0689(4) 1.1944(5) -0.0768(3)
C19 C -0.3115(4) 1.2805(7) -0.1744(3)
H11 H -0.3051 1.2590 -0.2082
C20 C -0.3765(4) 1.2570(9) -0.1687(4)
H12 H -0.4124 1.2198 -0.1981
C21 C -0.3861(5) 1.2896(10) -0.1196(4)
H13 H -0.4291 1.2747 -0.1155
C22 C -0.3330(4) 1.3447(7) -0.0756(3)
C23 C -0.2691(3) 1.3640(5) -0.0850(3)
C24 C -0.3386(5) 1.3759(8) -0.0227(4)
H14 H -0.3808 1.3620 -0.0171
C25 C -0.2848(6) 1.4252(8) 0.0202(4)
H15 H -0.2906 1.4458 0.0543
C26 C -0.2189(4) 1.4458(6) 0.0132(3)
C27 C -0.1590(5) 1.4929(7) 0.0563(4)
H16 H -0.1611 1.5118 0.0920
C28 C -0.0989(5) 1.5104(8) 0.0458(4)
H17 H -0.0594 1.5419 0.0738
C29 C -0.0971(4) 1.4808(7) -0.0070(3)
H18 H -0.0560 1.4957 -0.0142
C30 C -0.2113(4) 1.4160(5) -0.0393(3)
O5D O 0.0390(3) 0.7057(4) 0.0797(2)
O6D O 0.1325(2) 0.8187(4) 0.10448(19)
C15D C 0.0312(3) 0.9065(5) 0.0386(2)
C16D C -0.0279(3) 0.8829(5) -0.0085(3)
H9D H -0.0465 0.8038 -0.0145
C17D C -0.0596(3) 0.9746(5) -0.0464(3)
H10D H -0.0999 0.9578 -0.0773
C18D C 0.0689(4) 0.8056(5) 0.0768(3)
In1D In 0.14774(2) 0.62480(3) 0.136654(17)
O1D O 0.0884(2) 0.4410(4) 0.1245(2)
O2D O 0.2010(2) 0.4485(3) 0.17357(18)
O3D O 0.3091(3) 0.2060(4) 0.28040(19)
O4D O 0.4052(3) 0.1225(7) 0.2821(3)
N1D N 0.2588(3) 0.6675(5) 0.1332(2)
N2D N 0.1511(3) 0.5680(5) 0.0486(2)
C1D C 0.2015(3) 0.1786(5) 0.1729(2)
C2D C 0.1443(3) 0.2534(5) 0.1671(2)
C3D C 0.0867(4) 0.2092(6) 0.1787(3)
H1D H 0.0485 0.2605 0.1740
C4D C 0.0856(4) 0.0894(6) 0.1971(3)
H2D H 0.0471 0.0600 0.2051
C5D C 0.1428(5) 0.0138(6) 0.2035(3)
H3D H 0.1430 -0.0666 0.2162
C6D C 0.1989(4) 0.0571(5) 0.1911(3)
H4D H 0.2363 0.0046 0.1947
C7D C 0.2623(4) 0.2194(5) 0.1567(3)
C8D C 0.3322(4) 0.2119(5) 0.1940(3)
C9D C 0.3867(5) 0.2454(7) 0.1751(3)
H5D H 0.4328 0.2385 0.1998
C10D C 0.3732(5) 0.2886(7) 0.1205(4)
H6D H 0.4098 0.3136 0.1088
C11D C 0.3047(5) 0.2945(7) 0.0833(3)
H7D H 0.2949 0.3213 0.0461
C12D C 0.2519(4) 0.2606(6) 0.1017(3)
H8D H 0.2062 0.2652 0.0762
C13D C 0.1441(3) 0.3885(5) 0.1539(3)
C14D C 0.3511(4) 0.1765(7) 0.2554(3)
C19D C 0.3115(4) 0.7195(7) 0.1744(3)
H11D H 0.3051 0.7410 0.2082
C20D C 0.3765(4) 0.7430(9) 0.1687(4)
H12D H 0.4124 0.7802 0.1981
C21D C 0.3861(5) 0.7104(10) 0.1196(4)
H13D H 0.4291 0.7253 0.1155
C22D C 0.3330(4) 0.6553(7) 0.0756(3)
C23D C 0.2691(3) 0.6360(5) 0.0850(3)
C24D C 0.3386(5) 0.6241(8) 0.0227(4)
H14D H 0.3808 0.6380 0.0171
C25D C 0.2848(6) 0.5748(8) -0.0202(4)
H15D H 0.2906 0.5542 -0.0543
C26D C 0.2189(4) 0.5542(6) -0.0132(3)
C27D C 0.1590(5) 0.5071(7) -0.0563(4)
H16D H 0.1611 0.4882 -0.0920
C28D C 0.0989(5) 0.4896(8) -0.0458(4)
H17D H 0.0594 0.4581 -0.0738
C29D C 0.0971(4) 0.5192(7) 0.0070(3)
H18D H 0.0560 0.5043 0.0142
C30D C 0.2113(4) 0.5840(5) 0.0393(3)
In1C In -0.35226(2) 1.87520(3) -0.363346(17)
In1G In 0.35226(2) 0.12480(3) 0.363346(17)
O3C O -0.1909(3) 1.2940(4) -0.21960(19)
O3G O 0.1909(3) 0.7060(4) 0.21960(19)
O4C O -0.0948(3) 1.3775(7) -0.2179(3)
O4G O 0.0948(3) 0.6225(7) 0.2179(3)
O7 O 0.0000 0.4562(10) 0.2500
H19? H -0.0328 0.4501 0.2635
H20? H 0.0038 0.3889 0.2340
loop_
_geom_bond_atom_site_label_1
_geom_bond_atom_site_label_2
_geom_bond_site_symmetry_1
_geom_bond_site_symmetry_2
In1 O1 1_555 1_555
O1 C13 1_555 1_555
O2 In1 1_555 1_555
O3 C14 1_555 1_555
O4 C14 1_555 1_555
O5 In1 1_555 1_555
O6 In1 1_555 1_555
N1 In1 1_555 1_555
N2 In1 1_555 1_555
C1 C2 1_555 1_555
C2 C3 1_555 1_555
C3 H1 1_555 1_555
C4 C3 1_555 1_555
H2 C4 1_555 1_555
C5 C4 1_555 1_555
H3 C5 1_555 1_555
C6 C1 1_555 1_555
H4 C6 1_555 1_555
C7 C1 1_555 1_555
C8 C7 1_555 1_555
C9 C8 1_555 1_555
H5 C9 1_555 1_555
C10 C9 1_555 1_555
H6 C10 1_555 1_555
C11 C10 1_555 1_555
H7 C11 1_555 1_555
C12 C7 1_555 1_555
H8 C12 1_555 1_555
C13 O2 1_555 1_555
C14 C8 1_555 1_555
C15 C16 1_555 1_555
C16 H9 1_555 1_555
C17 C16 1_555 1_555
H10 C17 1_555 1_555
C18 O5 1_555 1_555
C19 N1 1_555 1_555
H11 C19 1_555 1_555
C20 C19 1_555 1_555
H12 C20 1_555 1_555
C21 C20 1_555 1_555
H13 C21 1_555 1_555
C22 C21 1_555 1_555
C23 N1 1_555 1_555
C24 C22 1_555 1_555
H14 C24 1_555 1_555
C25 C24 1_555 1_555
H15 C25 1_555 1_555
C26 C25 1_555 1_555
C27 C26 1_555 1_555
H16 C27 1_555 1_555
C28 C27 1_555 1_555
H17 C28 1_555 1_555
C29 N2 1_555 1_555
H18 C29 1_555 1_555
C30 N2 1_555 1_555
O5D C18D 1_555 1_555
O6D C18D 1_555 1_555
C15D C17 1_555 1_555
C16D C15D 1_555 1_555
H9D C16D 1_555 1_555
C17D C15 1_555 1_555
H10D C17D 1_555 1_555
C18D C15D 1_555 1_555
In1D O5D 1_555 1_555
O1D In1D 1_555 1_555
O2D In1D 1_555 1_555
O3D C14D 1_555 1_555
O4D C14D 1_555 1_555
N1D In1D 1_555 1_555
N2D In1D 1_555 1_555
C1D C2D 1_555 1_555
C2D C3D 1_555 1_555
C3D H1D 1_555 1_555
C4D C3D 1_555 1_555
H2D C4D 1_555 1_555
C5D C4D 1_555 1_555
H3D C5D 1_555 1_555
C6D C1D 1_555 1_555
H4D C6D 1_555 1_555
C7D C1D 1_555 1_555
C8D C7D 1_555 1_555
C9D C8D 1_555 1_555
H5D C9D 1_555 1_555
C10D C9D 1_555 1_555
H6D C10D 1_555 1_555
C11D C10D 1_555 1_555
H7D C11D 1_555 1_555
C12D C7D 1_555 1_555
H8D C12D 1_555 1_555
C13D O1D 1_555 1_555
C14D C8D 1_555 1_555
C19D N1D 1_555 1_555
H11D C19D 1_555 1_555
C20D C19D 1_555 1_555
H12D C20D 1_555 1_555
C21D C20D 1_555 1_555
H13D C21D 1_555 1_555
C22D C21D 1_555 1_555
C23D N1D 1_555 1_555
C24D C22D 1_555 1_555
H14D C24D 1_555 1_555
C25D C24D 1_555 1_555
H15D C25D 1_555 1_555
C26D C25D 1_555 1_555
C27D C26D 1_555 1_555
H16D C27D 1_555 1_555
C28D C27D 1_555 1_555
H17D C28D 1_555 1_555
C29D N2D 1_555 1_555
H18D C29D 1_555 1_555
C30D N2D 1_555 1_555
In1C O3 1_555 1_555
In1G O3D 1_555 1_555
O3C In1 1_555 1_555
O3G In1D 1_555 1_555
O4C In1 1_555 1_555
O4G In1D 1_555 1_555
O4 In1C 1_555 1_555
O6 C18 1_555 1_555
C2 C13 1_555 1_555
C5 C6 1_555 1_555
C11 C12 1_555 1_555
C15 C18 1_555 1_555
C22 C23 1_555 1_555
C23 C30 1_555 1_555
C26 C30 1_555 1_555
C28 C29 1_555 1_555
O6D In1D 1_555 1_555
C16D C17D 1_555 1_555
O2D C13D 1_555 1_555
O4D In1G 1_555 1_555
C2D C13D 1_555 1_555
C5D C6D 1_555 1_555
C11D C12D 1_555 1_555
C22D C23D 1_555 1_555
C23D C30D 1_555 1_555
C26D C30D 1_555 1_555
C28D C29D 1_555 1_555

#END
