
#######################################################################
#
#                 Cambridge Crystallographic Data Centre
#                                CCDC 
#
#######################################################################
#
# If this CIF has been generated from an entry in the Cambridge 
# Structural Database, then it will include bibliographic, chemical, 
# crystal, experimental, refinement or atomic coordinate data resulting 
# from the CCDC's data processing and validation procedures.
#
#######################################################################

data_HIWGUP
_symmetry_cell_setting           hexagonal
_symmetry_space_group_name_H-M   'P 63'
_symmetry_Int_Tables_number      173
_space_group_name_Hall           'P 6c'
loop_
_symmetry_equiv_pos_site_id
_symmetry_equiv_pos_as_xyz
1 x,y,z
2 x-y,x,1/2+z
3 -y,x-y,z
4 -x,-y,1/2+z
5 -x+y,-x,z
6 y,-x+y,1/2+z
_cell_length_a                   8.714(3)
_cell_length_b                   8.714(3)
_cell_length_c                   8.083(4)
_cell_angle_alpha                90
_cell_angle_beta                 90
_cell_angle_gamma                120
_cell_volume                     531.543
loop_
_atom_site_label
_atom_site_type_symbol
_atom_site_fract_x
_atom_site_fract_y
_atom_site_fract_z
Cu1 Cu 0.0000 0.0000 0.0000
Cu2 Cu -0.3333 0.3333 0.0725
C1 C -0.1129(5) 0.1456(5) 0.0072(9)
N1 N -0.1877(5) 0.2227(5) 0.0209(7)
N2 N -0.3333 0.3333 0.3493(8)
C2 C -0.4973(6) 0.1809(6) 0.4118(6)
C3 C -0.5020(7) 0.1792(7) 0.6018(6)
N3 N -0.3333 0.3333 0.6647(8)
H1 H -0.5960 0.1876 0.3709
H2 H -0.5038 0.0747 0.3736
N1D N -0.5896(7) 0.1877(5) 0.0209(7)
C1B C -0.1456(5) -0.2585(7) 0.0072(9)
N1B N -0.2227(5) -0.4104(7) 0.0209(7)
Cu2_2 Cu -0.3333 -0.6667 0.0725
C1D C 0.2585(7) 0.1129(5) 0.0072(9)
N1D_2 N 0.4104(7) 0.1877(5) 0.0209(7)
Cu2_3 Cu 0.6667 0.3333 0.0725
N1B_2 N -0.2227(5) 0.5896(7) 0.0209(7)
C2B C -0.1809(6) 0.3218(8) 0.4118(6)
C3B C -0.1792(7) 0.3188(10) 0.6018(6)
H1B H -0.1876 0.2164 0.3709
H2B H -0.0747 0.4215 0.3736
C2D C -0.3218(8) 0.4973(6) 0.4118(6)
C3D C -0.3188(10) 0.5020(7) 0.6018(6)
H1D H -0.2164 0.5960 0.3709
H2D H -0.4215 0.5038 0.3736
loop_
_geom_bond_atom_site_label_1
_geom_bond_atom_site_label_2
_geom_bond_site_symmetry_1
_geom_bond_site_symmetry_2
Cu1 C1 1_555 1_555
Cu2 N1 1_555 1_555
C1 N1 1_555 1_555
N2 Cu2 1_555 1_555
C2 N2 1_555 1_555
C3 C2 1_555 1_555
N3 C3 1_555 1_555
H1 C2 1_555 1_555
H2 C2 1_555 1_555
N1D Cu2 1_555 1_555
C1B Cu1 1_555 1_555
N1B C1B 1_555 1_555
Cu2_2 N1B 1_555 1_555
C1D Cu1 1_555 1_555
N1D_2 C1D 1_555 1_555
Cu2_3 N1D_2 1_555 1_555
N1B_2 Cu2 1_555 1_555
C2B N2 1_555 1_555
C3B N3 1_555 1_555
H1B C2B 1_555 1_555
H2B C2B 1_555 1_555
C2D N2 1_555 1_555
C3D N3 1_555 1_555
H1D C2D 1_555 1_555
H2D C2D 1_555 1_555
C2B C3B 1_555 1_555
C2D C3D 1_555 1_555

#END
