
#######################################################################
#
#                 Cambridge Crystallographic Data Centre
#                                CCDC 
#
#######################################################################
#
# If this CIF has been generated from an entry in the Cambridge 
# Structural Database, then it will include bibliographic, chemical, 
# crystal, experimental, refinement or atomic coordinate data resulting 
# from the CCDC's data processing and validation procedures.
#
#######################################################################

data_HIWHOL
_symmetry_cell_setting           triclinic
_symmetry_space_group_name_H-M   'P -1'
_symmetry_Int_Tables_number      2
_space_group_name_Hall           '-P 1'
loop_
_symmetry_equiv_pos_site_id
_symmetry_equiv_pos_as_xyz
1 x,y,z
2 -x,-y,-z
_cell_length_a                   10.9496(8)
_cell_length_b                   11.4702(8)
_cell_length_c                   12.9805(9)
_cell_angle_alpha                67.222(1)
_cell_angle_beta                 86.708(1)
_cell_angle_gamma                66.378(1)
_cell_volume                     1367.94
loop_
_atom_site_label
_atom_site_type_symbol
_atom_site_fract_x
_atom_site_fract_y
_atom_site_fract_z
U1 U 0.577704(16) 0.099649(16) 0.298469(13)
Zn1 Zn 0.73493(6) 0.18769(5) 0.50031(4)
Zn2 Zn 0.71204(5) 0.30418(5) 0.02577(4)
P1 P 0.83195(11) 0.21904(12) 0.26027(9)
P2 P 0.40246(12) 0.37155(12) 0.09528(9)
P3 P 0.72161(11) -0.09311(12) 0.57191(9)
O1 O 0.9888(3) 0.1581(3) 0.2586(3)
O2 O 0.7853(3) 0.1081(3) 0.2650(3)
O3 O 0.7758(3) 0.3429(3) 0.1483(2)
O4 O 0.8008(3) 0.2602(3) 0.3590(3)
O5 O 0.3398(3) 0.3902(3) -0.0196(3)
O6 O 0.3692(3) 0.5110(3) 0.0960(3)
O7 O 0.3566(3) 0.2767(3) 0.1917(3)
O8 O 0.5548(3) 0.2830(3) 0.1106(3)
O9 O 0.8034(3) -0.2484(3) 0.6535(3)
O10 O 0.8071(3) -0.0139(3) 0.5695(3)
O11 O 0.7019(3) -0.0906(3) 0.4556(3)
O12 O 0.5901(3) -0.0363(3) 0.6178(3)
O13 O 0.6047(3) -0.0109(3) 0.2264(3)
O14 O 0.5570(3) 0.2067(3) 0.3747(3)
N1 N 0.8330(4) 0.2642(4) 0.5756(3)
N2 N 0.5812(4) 0.2904(4) 0.5744(3)
N3 N 0.9062(4) 0.2495(4) -0.0297(3)
N4 N 0.7158(4) 0.1705(4) -0.0479(3)
C1 C 0.9587(6) 0.2519(6) 0.5637(4)
H1 H 1.0169 0.1865 0.5357
C2 C 1.0060(6) 0.3323(7) 0.5911(5)
H2 H 1.0962 0.3215 0.5829
C3 C 0.9217(7) 0.4281(6) 0.6302(5)
H3 H 0.9521 0.4862 0.6470
C4 C 0.7923(6) 0.4391(5) 0.6449(4)
H4 H 0.7332 0.5026 0.6742
C5 C 0.7504(5) 0.3548(5) 0.6159(4)
C6 C 0.6143(5) 0.3581(5) 0.6265(4)
C7 C 0.5232(6) 0.4242(5) 0.6867(4)
H5 H 0.5467 0.4713 0.7230
C8 C 0.3984(6) 0.4203(5) 0.6930(4)
H6 H 0.3348 0.4656 0.7330
C9 C 0.3669(5) 0.3501(5) 0.6408(4)
H7 H 0.2816 0.3462 0.6445
C10 C 0.4609(5) 0.2855(5) 0.5831(4)
H8 H 0.4395 0.2358 0.5483
C11 C 0.9962(5) 0.2975(6) -0.0189(5)
H9 H 0.9772 0.3535 0.0230
C12 C 1.1146(6) 0.2689(6) -0.0659(5)
H10 H 1.1759 0.3053 -0.0578
C13 C 1.1421(5) 0.1860(6) -0.1252(4)
H11 H 1.2233 0.1642 -0.1587
C14 C 1.0526(5) 0.1359(5) -0.1356(4)
H12 H 1.0721 0.0768 -0.1748
C15 C 0.9319(5) 0.1708(5) -0.0890(4)
C16 C 0.8245(5) 0.1275(5) -0.0998(4)
C17 C 0.8333(6) 0.0475(5) -0.1599(4)
H13 H 0.9109 0.0166 -0.1955
C18 C 0.7270(6) 0.0139(6) -0.1668(4)
H14 H 0.7306 -0.0399 -0.2079
C19 C 0.6164(6) 0.0586(6) -0.1139(4)
H15 H 0.5429 0.0354 -0.1171
C20 C 0.6141(5) 0.1384(5) -0.0555(4)
H16 H 0.5370 0.1710 -0.0199
U1A U 0.422296(16) -0.099649(16) 0.701531(13)
Zn2A Zn 0.28796(5) 0.69582(5) -0.02577(4)
O6A O 0.6308(3) 0.4890(3) -0.0960(3)
O12A O 0.4099(3) 0.0363(3) 0.3822(3)
loop_
_geom_bond_atom_site_label_1
_geom_bond_atom_site_label_2
_geom_bond_site_symmetry_1
_geom_bond_site_symmetry_2
U1 O2 1_555 1_555
Zn1 O4 1_555 1_555
Zn2 O3 1_555 1_555
P1 O1 1_555 1_555
P2 O5 1_555 1_555
P3 O9 1_555 1_555
O2 P1 1_555 1_555
O3 P1 1_555 1_555
O4 P1 1_555 1_555
O6 P2 1_555 1_555
O7 U1 1_555 1_555
O8 U1 1_555 1_555
O10 Zn1 1_555 1_555
O11 U1 1_555 1_555
O12 P3 1_555 1_555
O13 U1 1_555 1_555
O14 U1 1_555 1_555
N1 Zn1 1_555 1_555
N2 Zn1 1_555 1_555
N3 Zn2 1_555 1_555
N4 Zn2 1_555 1_555
C1 N1 1_555 1_555
H1 C1 1_555 1_555
C2 C1 1_555 1_555
H2 C2 1_555 1_555
C3 C2 1_555 1_555
H3 C3 1_555 1_555
C4 C3 1_555 1_555
H4 C4 1_555 1_555
C5 N1 1_555 1_555
C6 N2 1_555 1_555
C7 C6 1_555 1_555
H5 C7 1_555 1_555
C8 C7 1_555 1_555
H6 C8 1_555 1_555
C9 C8 1_555 1_555
H7 C9 1_555 1_555
C10 N2 1_555 1_555
H8 C10 1_555 1_555
C11 N3 1_555 1_555
H9 C11 1_555 1_555
C12 C11 1_555 1_555
H10 C12 1_555 1_555
C13 C12 1_555 1_555
H11 C13 1_555 1_555
C14 C13 1_555 1_555
H12 C14 1_555 1_555
C15 N3 1_555 1_555
C16 N4 1_555 1_555
C17 C16 1_555 1_555
H13 C17 1_555 1_555
C18 C17 1_555 1_555
H14 C18 1_555 1_555
C19 C18 1_555 1_555
H15 C19 1_555 1_555
C20 N4 1_555 1_555
H16 C20 1_555 1_555
U1A O12 1_555 1_555
Zn2A O6 1_555 1_555
O6A Zn2 1_555 1_555
O12A U1 1_555 1_555
Zn1 O14 1_555 1_555
Zn2 O8 1_555 1_555
P2 O7 1_555 1_555
P2 O8 1_555 1_555
P3 O10 1_555 1_555
P3 O11 1_555 1_555
C4 C5 1_555 1_555
C5 C6 1_555 1_555
C9 C10 1_555 1_555
C14 C15 1_555 1_555
C15 C16 1_555 1_555
C19 C20 1_555 1_555

#END
