
#######################################################################
#
#                 Cambridge Crystallographic Data Centre
#                                CCDC 
#
#######################################################################
#
# If this CIF has been generated from an entry in the Cambridge 
# Structural Database, then it will include bibliographic, chemical, 
# crystal, experimental, refinement or atomic coordinate data resulting 
# from the CCDC's data processing and validation procedures.
#
#######################################################################

data_HIWHIE
_symmetry_cell_setting           monoclinic
_symmetry_space_group_name_H-M   'C 2/c'
_symmetry_Int_Tables_number      15
_space_group_name_Hall           '-C 2yn'
loop_
_symmetry_equiv_pos_site_id
_symmetry_equiv_pos_as_xyz
1 x,y,z
2 -x,y,1/2-z
3 1/2+x,1/2+y,z
4 1/2-x,1/2+y,1/2-z
5 -x,-y,-z
6 x,-y,1/2+z
7 1/2-x,1/2-y,-z
8 1/2+x,1/2-y,1/2+z
_cell_length_a                   20.573(9)
_cell_length_b                   8.354(2)
_cell_length_c                   15.989(6)
_cell_angle_alpha                90
_cell_angle_beta                 133.70
_cell_angle_gamma                90
_cell_volume                     1986.7
loop_
_atom_site_label
_atom_site_type_symbol
_atom_site_fract_x
_atom_site_fract_y
_atom_site_fract_z
Cu1 Cu -0.50971(4) -0.06111(8) 0.38890(5)
Cu2 Cu -0.32571(3) 0.43439(7) 0.52184(4)
C1 C -0.4329(3) 0.1262(6) 0.4645(4)
N1 N -0.3884(3) 0.2361(5) 0.4949(3)
C2 C -0.4524(3) 0.7348(5) 0.4338(3)
N2 N -0.4091(2) 0.6214(5) 0.4639(3)
N3 N -0.1339(3) 0.5199(5) 0.7545(4)
C3 C -0.2056(3) 0.4834(5) 0.6706(3)
N4 N -0.3096(2) 0.4321(4) 0.4023(2)
C4 C -0.2717(3) 0.5851(5) 0.4084(3)
C5 C -0.2636(3) 0.5999(5) 0.3213(4)
N5 N -0.3529(2) 0.5697(5) 0.2028(3)
C6 C -0.3887(3) 0.4102(5) 0.1952(3)
C7 C -0.3952(3) 0.4006(5) 0.2835(3)
H1 H -0.2686 0.3493 0.4246
H2 H -0.3094 0.6690 0.3945
H3 H -0.2135 0.5964 0.4838
H4 H -0.2438 0.7047 0.3249
H5 H -0.2214 0.5237 0.3388
H6 H -0.3939 0.6501 0.1841
H7 H -0.3468 0.5739 0.1491
H8 H -0.4466 0.3957 0.1199
H9 H -0.3494 0.3289 0.2103
H10 H -0.4149 0.2962 0.2808
H11 H -0.4381 0.4771 0.2639
C2_2 C -0.4524(3) -0.2652(5) 0.4338(3)
Cu1_2 Cu -0.50971(4) 0.93889(8) 0.38890(5)
Cu1G Cu -0.00971(4) 0.56111(8) 0.88890(5)
N3G N -0.6339(3) -0.0199(5) 0.2545(4)
loop_
_geom_bond_atom_site_label_1
_geom_bond_atom_site_label_2
_geom_bond_site_symmetry_1
_geom_bond_site_symmetry_2
Cu1 C1 1_555 1_555
Cu2 N1 1_555 1_555
C1 N1 1_555 1_555
C2 N2 1_555 1_555
N2 Cu2 1_555 1_555
N3 C3 1_555 1_555
C3 Cu2 1_555 1_555
N4 Cu2 1_555 1_555
C4 N4 1_555 1_555
C5 C4 1_555 1_555
N5 C5 1_555 1_555
C6 N5 1_555 1_555
C7 N4 1_555 1_555
H1 N4 1_555 1_555
H2 C4 1_555 1_555
H3 C4 1_555 1_555
H4 C5 1_555 1_555
H5 C5 1_555 1_555
H6 N5 1_555 1_555
H7 N5 1_555 1_555
H8 C6 1_555 1_555
H9 C6 1_555 1_555
H10 C7 1_555 1_555
H11 C7 1_555 1_555
C2_2 Cu1 1_555 1_555
Cu1_2 C2 1_555 1_555
Cu1G N3 1_555 1_555
N3G Cu1 1_555 1_555
C6 C7 1_555 1_555

#END
