
#######################################################################
#
#                 Cambridge Crystallographic Data Centre
#                                CCDC 
#
#######################################################################
#
# If this CIF has been generated from an entry in the Cambridge 
# Structural Database, then it will include bibliographic, chemical, 
# crystal, experimental, refinement or atomic coordinate data resulting 
# from the CCDC's data processing and validation procedures.
#
#######################################################################

data_HIWHIF
_symmetry_cell_setting           triclinic
_symmetry_space_group_name_H-M   'P -1'
_symmetry_Int_Tables_number      2
_space_group_name_Hall           '-P 1'
loop_
_symmetry_equiv_pos_site_id
_symmetry_equiv_pos_as_xyz
1 x,y,z
2 -x,-y,-z
_cell_length_a                   9.3642(18)
_cell_length_b                   9.8038(19)
_cell_length_c                   10.488(2)
_cell_angle_alpha                100.350(3)
_cell_angle_beta                 98.449(3)
_cell_angle_gamma                93.135(3)
_cell_volume                     933.643
loop_
_atom_site_label
_atom_site_type_symbol
_atom_site_fract_x
_atom_site_fract_y
_atom_site_fract_z
U1 U 0.69940(2) 0.44193(2) 0.46468(2)
P1 P 0.95775(15) 0.73548(14) 0.55905(16)
O1 O 0.9119(4) 0.7580(4) 0.6937(5)
N1 N 1.2520(7) 0.7103(7) 0.9861(8)
C1 C 1.3299(12) 0.8359(9) 1.0240(13)
H1 H 1.2954 0.9116 0.9866
U2 U 1.20776(2) 0.95290(2) 0.53298(2)
P2 P 0.44023(15) 0.21136(14) 0.43717(16)
O2 O 0.8702(4) 0.6170(4) 0.4643(5)
N2 N 1.1120(6) 0.4533(7) 0.8883(6)
C2 C 1.4543(12) 0.8594(10) 1.1123(11)
H2 H 1.5028 0.9501 1.1380
O3 O 0.9503(4) 0.8727(4) 0.5060(5)
C3 C 1.5085(9) 0.7511(10) 1.1636(9)
H3 H 1.5970 0.7634 1.2233
O4 O 1.1220(4) 0.7166(4) 0.5705(5)
C4 C 1.4289(8) 0.6206(9) 1.1252(8)
H4 H 1.4630 0.5436 1.1606
O5 O 0.4468(4) 0.3688(4) 0.4893(5)
C5 C 1.3016(8) 0.6030(7) 1.0363(7)
O6 O 0.3515(5) 0.1764(4) 0.2956(5)
C6 C 1.2194(8) 0.4660(8) 0.9912(7)
O7 O 0.3785(4) 0.1297(4) 0.5263(4)
C7 C 1.2499(9) 0.3532(8) 1.0505(8)
H5 H 1.3231 0.3636 1.1254
O8 O 0.5974(4) 0.1882(4) 0.4258(5)
C8 C 1.1737(9) 0.2259(8) 1.0005(9)
H6 H 1.1967 0.1472 1.0384
O9 O 0.6426(5) 0.4311(4) 0.2947(5)
C9 C 1.0637(8) 0.2137(8) 0.8951(9)
H7 H 1.0092 0.1272 0.8596
O10 O 0.7495(5) 0.4512(5) 0.6340(5)
C10 C 1.0351(8) 0.3298(9) 0.8427(9)
H8 H 0.9579 0.3226 0.7715
O11 O 1.2171(4) 1.0100(5) 0.7034(5)
O12 O 1.2001(5) 0.8955(5) 0.3653(5)
Ag1 Ag 1.04378(8) 0.65451(9) 0.83124(8)
U1A U 1.30060(2) 0.55807(2) 0.53532(2)
U1A_2 U 0.30060(2) 0.55807(2) 0.53532(2)
U2A U 0.79224(2) 1.04710(2) 0.46702(2)
U2_2 U 0.20776(2) -0.04710(2) 0.53298(2)
U2A_2 U 0.79224(2) 0.04710(2) 0.46702(2)
O3A O 1.0497(4) 1.1273(4) 0.4940(5)
O4A O 0.8780(4) 0.2834(4) 0.4295(5)
O5A O 0.5532(4) 0.6312(4) 0.5107(5)
O7_2 O 1.3785(4) 1.1297(4) 0.5263(4)
O8A O 1.4026(4) 0.8118(4) 0.5742(5)
loop_
_geom_bond_atom_site_label_1
_geom_bond_atom_site_label_2
_geom_bond_site_symmetry_1
_geom_bond_site_symmetry_2
U1 O2 1_555 1_555
P1 O1 1_555 1_555
O1 Ag1 1_555 1_555
N1 C1 1_555 1_555
C1 H1 1_555 1_555
U2 O3 1_555 1_555
P2 O5 1_555 1_555
O2 P1 1_555 1_555
N2 C6 1_555 1_555
C2 C1 1_555 1_555
H2 C2 1_555 1_555
O3 P1 1_555 1_555
C3 C2 1_555 1_555
H3 C3 1_555 1_555
O4 P1 1_555 1_555
C4 C3 1_555 1_555
H4 C4 1_555 1_555
O5 U1 1_555 1_555
C5 N1 1_555 1_555
O6 P2 1_555 1_555
C6 C5 1_555 1_555
O7 P2 1_555 1_555
C7 C6 1_555 1_555
H5 C7 1_555 1_555
O8 U1 1_555 1_555
C8 C7 1_555 1_555
H6 C8 1_555 1_555
O9 U1 1_555 1_555
C9 C8 1_555 1_555
H7 C9 1_555 1_555
O10 U1 1_555 1_555
C10 N2 1_555 1_555
H8 C10 1_555 1_555
O11 U2 1_555 1_555
O12 U2 1_555 1_555
Ag1 N1 1_555 1_555
U1A O4 1_555 1_555
U1A_2 O5 1_555 1_555
U2A O3 1_555 1_555
U2_2 O7 1_555 1_555
U2A_2 O8 1_555 1_555
O3A U2 1_555 1_555
O4A U1 1_555 1_555
O5A U1 1_555 1_555
O7_2 U2 1_555 1_555
O8A U2 1_555 1_555
U2 O4 1_555 1_555
P2 O8 1_555 1_555
N2 Ag1 1_555 1_555
C4 C5 1_555 1_555
C9 C10 1_555 1_555
U1A O8A 1_555 1_555
U1A_2 O5A 1_555 1_555
U2A O3A 1_555 1_555
U2A_2 O4A 1_555 1_555

#END
