
#######################################################################
#
#                 Cambridge Crystallographic Data Centre
#                                CCDC 
#
#######################################################################
#
# If this CIF has been generated from an entry in the Cambridge 
# Structural Database, then it will include bibliographic, chemical, 
# crystal, experimental, refinement or atomic coordinate data resulting 
# from the CCDC's data processing and validation procedures.
#
#######################################################################

data_HIWHAW
_symmetry_cell_setting           monoclinic
_symmetry_space_group_name_H-M   'C 2/m'
_symmetry_Int_Tables_number      12
_space_group_name_Hall           '-C 2y'
loop_
_symmetry_equiv_pos_site_id
_symmetry_equiv_pos_as_xyz
1 x,y,z
2 -x,y,-z
3 1/2+x,1/2+y,z
4 1/2-x,1/2+y,-z
5 -x,-y,-z
6 x,-y,z
7 1/2-x,1/2-y,-z
8 1/2+x,1/2-y,z
_cell_length_a                   8.812(3)
_cell_length_b                   9.631(2)
_cell_length_c                   7.266(3)
_cell_angle_alpha                90
_cell_angle_beta                 113.40(3)
_cell_angle_gamma                90
_cell_volume                     565.937
loop_
_atom_site_label
_atom_site_type_symbol
_atom_site_fract_x
_atom_site_fract_y
_atom_site_fract_z
Cu1 Cu 0.22803(5) 0.5000 0.93523(6)
N1 N 0.2455(4) 0.3090(3) 0.9920(5)
N2 N 0.1771(3) 0.5000 0.6071(4)
C1 C 0.0868(2) 0.3760(2) 0.5037(3)
C2 C 0.3448(4) 0.5000 0.6084(6)
H1 H 0.0819 0.3748 0.3707
H2 H 0.1433 0.2956 0.5731
H3 H 0.4025 0.4195 0.6756
H4 H 0.3373 0.5000 0.4741
N1E N 0.2455(4) 0.6910(3) 0.9920(5)
N1F N 0.2545(4) 0.1910(3) 1.0080(5)
C1E C 0.0868(2) 0.6240(2) 0.5037(3)
C1A C -0.0868(2) 0.3760(2) 0.4963(3)
H3E H 0.4025 0.5805 0.6756
N2A N -0.1771(3) 0.5000 0.3929(4)
H1A H -0.0819 0.3748 0.6293
H2A H -0.1433 0.2956 0.4269
C1D C -0.0868(2) 0.6240(2) 0.4963(3)
H1E H 0.0819 0.6252 0.3707
H2E H 0.1433 0.7044 0.5731
H1D H -0.0819 0.6252 0.6293
H2D H -0.1433 0.7044 0.4269
Cu1A Cu -0.22803(5) 0.5000 0.06477(6)
C2A C -0.3448(4) 0.5000 0.3916(6)
H3A H -0.4025 0.4195 0.3244
H3D H -0.4025 0.5805 0.3244
H4A H -0.3373 0.5000 0.5259
N1A N -0.2455(4) 0.3090(3) 0.0080(5)
N1D N -0.2455(4) 0.6910(3) 0.0080(5)
N1C N 0.2545(4) 0.8090(3) 1.0080(5)
Cu1C Cu 0.27197(5) 1.0000 1.06477(6)
Cu1C_2 Cu 0.27197(5) 0.0000 1.06477(6)
loop_
_geom_bond_atom_site_label_1
_geom_bond_atom_site_label_2
_geom_bond_site_symmetry_1
_geom_bond_site_symmetry_2
Cu1 N1 1_555 1_555
N1 N1F 1_555 1_555
N2 Cu1 1_555 1_555
C1 N2 1_555 1_555
C2 N2 1_555 1_555
H1 C1 1_555 1_555
H2 C1 1_555 1_555
H3 C2 1_555 1_555
H4 C2 1_555 1_555
N1E Cu1 1_555 1_555
N1F Cu1C_2 1_555 1_555
C1E N2 1_555 1_555
C1A C1 1_555 1_555
H3E C2 1_555 1_555
N2A C1A 1_555 1_555
H1A C1A 1_555 1_555
H2A C1A 1_555 1_555
C1D C1E 1_555 1_555
H1E C1E 1_555 1_555
H2E C1E 1_555 1_555
H1D C1D 1_555 1_555
H2D C1D 1_555 1_555
Cu1A N2A 1_555 1_555
C2A N2A 1_555 1_555
H3A C2A 1_555 1_555
H3D C2A 1_555 1_555
H4A C2A 1_555 1_555
N1A Cu1A 1_555 1_555
N1D Cu1A 1_555 1_555
N1C N1E 1_555 1_555
Cu1C N1C 1_555 1_555
N2A C1D 1_555 1_555

#END
