
#######################################################################
#
#                 Cambridge Crystallographic Data Centre
#                                CCDC 
#
#######################################################################
#
# If this CIF has been generated from an entry in the Cambridge 
# Structural Database, then it will include bibliographic, chemical, 
# crystal, experimental, refinement or atomic coordinate data resulting 
# from the CCDC's data processing and validation procedures.
#
#######################################################################

data_HIWHEB
_symmetry_cell_setting           triclinic
_symmetry_space_group_name_H-M   'P -1'
_symmetry_Int_Tables_number      2
_space_group_name_Hall           '-P 1'
loop_
_symmetry_equiv_pos_site_id
_symmetry_equiv_pos_as_xyz
1 x,y,z
2 -x,-y,-z
_cell_length_a                   7.0342(5)
_cell_length_b                   10.6929(7)
_cell_length_c                   11.1301(8)
_cell_angle_alpha                93.682(1)
_cell_angle_beta                 106.908(1)
_cell_angle_gamma                107.031(1)
_cell_volume                     755.566
loop_
_atom_site_label
_atom_site_type_symbol
_atom_site_fract_x
_atom_site_fract_y
_atom_site_fract_z
U1 U 0.13711(4) -0.06363(2) -0.18575(2)
P1 P -0.1336(7) 0.0133(4) -0.4899(4)
P2 P -0.3173(3) 0.01889(18) -0.16004(1)
O1 O -0.163(2) 0.1347(13) -0.4250(13)
O2 O -0.3558(19) -0.0968(12) -0.5392(11)
O3 O -0.3074(11) 0.1284(6) -0.2452(6)
O4 O 0.0356(11) -0.0503(6) -0.4004(6)
O5 O -0.1878(8) -0.0657(5) -0.1858(5)
O6 O -0.2276(9) 0.0889(6) -0.0212(5)
O7 O 0.2378(9) 0.1131(5) -0.1452(6)
O8 O -0.5471(8) -0.0695(6) -0.1930(6)
O9 O 0.0360(8) -0.2405(5) -0.2284(5)
U1A U -0.13711(4) 0.06363(2) -0.81425(2)
U1A_2 U -0.13711(4) 0.06363(2) 0.18575(2)
U1_2 U -0.86289(4) -0.06363(2) -0.18575(2)
U1A_3 U 0.86289(4) 0.06363(2) 0.18575(2)
P1A P 0.1336(7) -0.0133(4) -0.5101(4)
P2A P 0.3173(3) -0.01889(18) 0.16004(1)
O1A O 0.163(2) -0.1347(13) -0.5750(13)
O2A O 0.3558(19) 0.0968(12) -0.4608(11)
O3A O 0.3074(11) -0.1284(6) 0.2452(6)
O4A O -0.0356(11) 0.0503(6) -0.5996(6)
O5A O 0.1878(8) 0.0657(5) 0.1858(5)
O5A_2 O 0.1878(8) 0.0657(5) -0.8142(5)
O6A O 0.2276(9) -0.0889(6) 0.0212(5)
O6_2 O -0.2276(9) 0.0889(6) -1.0212(5)
O7A O -0.2378(9) -0.1131(5) -0.8548(6)
O8A O 0.5471(8) 0.0695(6) 0.1930(6)
O8_2 O 0.4529(8) -0.0695(6) -0.1930(6)
O8A_2 O -0.4529(8) 0.0695(6) -0.8070(6)
O9A O -0.0360(8) 0.2405(5) -0.7716(5)
Ag1 Ag 0.04389(10) -0.49311(6) 0.28422(5)
N1 N -0.1377(9) -0.4867(6) 0.0994(6)
N2 N -0.7765(11) -0.4885(7) -0.5248(6)
C1 C -0.6665(14) -0.3746(9) -0.4448(8)
H1 H -0.6724 -0.2937 -0.4738
C2 C -0.7738(14) -0.6008(8) -0.4800(8)
H2 H -0.8547 -0.6827 -0.5351
C3 C -0.6589(14) -0.6031(8) -0.3575(8)
H3 H -0.6667 -0.6854 -0.3283
C4 C -0.2742(12) -0.3674(7) -0.0643(7)
H4 H -0.2760 -0.2843 -0.0891
C5 C -0.1515(13) -0.3754(8) 0.0553(8)
H5 H -0.0694 -0.2942 0.1112
C6 C -0.5430(15) -0.3702(8) -0.3198(8)
H6 H -0.4675 -0.2874 -0.2653
C7 C -0.2539(12) -0.6008(7) 0.0179(7)
H7 H -0.2490 -0.6826 0.0449
C8 C -0.3810(13) -0.6019(7) -0.1047(8)
H8 H -0.4591 -0.6840 -0.1600
C9 C -0.3950(11) -0.4858(7) -0.1467(7)
C10 C -0.5314(11) -0.4853(7) -0.2765(7)
Ag1_2 Ag 1.04389(10) -0.49311(6) 1.28422(5)
Ag1_3 Ag -0.95611(10) -0.49311(6) -0.71578(5)
N1_2 N 0.8623(9) -0.4867(6) 1.0994(6)
N2_2 N 0.2235(11) -0.4885(7) 0.4752(6)
N2_3 N 1.2235(11) -0.4885(7) 1.4752(6)
C1_2 C 0.3335(14) -0.3746(9) 0.5552(8)
H1_2 H 0.3276 -0.2937 0.5262
C2_2 C 0.2262(14) -0.6008(8) 0.5200(8)
H2_2 H 0.1453 -0.6827 0.4649
C3_2 C 0.3411(14) -0.6031(8) 0.6425(8)
H3_2 H 0.3333 -0.6854 0.6717
C4_2 C 0.7258(12) -0.3674(7) 0.9357(7)
H4_2 H 0.7240 -0.2843 0.9109
C5_2 C 0.8485(13) -0.3754(8) 1.0553(8)
H5_2 H 0.9306 -0.2942 1.1112
C6_2 C 0.4570(15) -0.3702(8) 0.6802(8)
H6_2 H 0.5325 -0.2874 0.7347
C7_2 C 0.7461(12) -0.6008(7) 1.0179(7)
H7_2 H 0.7510 -0.6826 1.0449
C8_2 C 0.6190(13) -0.6019(7) 0.8953(8)
H8_2 H 0.5409 -0.6840 0.8400
C9_2 C 0.6050(11) -0.4858(7) 0.8533(7)
C10_2 C 0.4686(11) -0.4853(7) 0.7235(7)
loop_
_geom_bond_atom_site_label_1
_geom_bond_atom_site_label_2
_geom_bond_site_symmetry_1
_geom_bond_site_symmetry_2
U1 O4 1_555 1_555
Ag1 N1 1_555 1_555
P1 O1 1_555 1_555
P2 O3 1_555 1_555
O2 P1 1_555 1_555
O4 P1 1_555 1_555
O5 U1 1_555 1_555
O6 P2 1_555 1_555
O7 U1 1_555 1_555
O8 P2 1_555 1_555
O9 U1 1_555 1_555
N1 C5 1_555 1_555
N2 C1 1_555 1_555
C1 H1 1_555 1_555
C2 N2 1_555 1_555
H2 C2 1_555 1_555
C3 C2 1_555 1_555
H3 C3 1_555 1_555
C4 H4 1_555 1_555
C5 C4 1_555 1_555
H5 C5 1_555 1_555
C6 C1 1_555 1_555
H6 C6 1_555 1_555
C7 N1 1_555 1_555
H7 C7 1_555 1_555
C8 C7 1_555 1_555
H8 C8 1_555 1_555
C9 C4 1_555 1_555
C10 C3 1_555 1_555
U1A O4A 1_555 1_555
U1A_2 O6 1_555 1_555
U1_2 O8 1_555 1_555
U1A_3 O8A 1_555 1_555
Ag1_2 N1_2 1_555 1_555
Ag1_3 N2 1_555 1_555
P1A O4 1_555 1_555
P2A O3A 1_555 1_555
O1A P1A 1_555 1_555
O2A P1A 1_555 1_555
O4A P1 1_555 1_555
O5A U1A_2 1_555 1_555
O5A_2 U1A 1_555 1_555
O6A U1 1_555 1_555
O6_2 U1A 1_555 1_555
O7A U1A 1_555 1_555
O8A P2A 1_555 1_555
O8_2 U1 1_555 1_555
O8A_2 U1A 1_555 1_555
O9A U1A 1_555 1_555
N1_2 C5_2 1_555 1_555
N2_2 Ag1 1_555 1_555
N2_3 Ag1_2 1_555 1_555
C1_2 N2_2 1_555 1_555
H1_2 C1_2 1_555 1_555
C2_2 N2_2 1_555 1_555
H2_2 C2_2 1_555 1_555
C3_2 C2_2 1_555 1_555
H3_2 C3_2 1_555 1_555
C4_2 H4_2 1_555 1_555
C5_2 C4_2 1_555 1_555
H5_2 C5_2 1_555 1_555
C6_2 C1_2 1_555 1_555
H6_2 C6_2 1_555 1_555
C7_2 N1_2 1_555 1_555
H7_2 C7_2 1_555 1_555
C8_2 C7_2 1_555 1_555
H8_2 C8_2 1_555 1_555
C9_2 C4_2 1_555 1_555
C10_2 C3_2 1_555 1_555
P2 O5 1_555 1_555
C6 C10 1_555 1_555
C8 C9 1_555 1_555
C9 C10 1_555 1_555
P1A O4A 1_555 1_555
P2A O5A 1_555 1_555
P2A O6A 1_555 1_555
C6_2 C10_2 1_555 1_555
C8_2 C9_2 1_555 1_555
C9_2 C10_2 1_555 1_555

#END
