
#######################################################################
#
#                 Cambridge Crystallographic Data Centre
#                                CCDC 
#
#######################################################################
#
# If this CIF has been generated from an entry in the Cambridge 
# Structural Database, then it will include bibliographic, chemical, 
# crystal, experimental, refinement or atomic coordinate data resulting 
# from the CCDC's data processing and validation procedures.
#
#######################################################################

data_HIWJAY
_symmetry_cell_setting           monoclinic
_symmetry_space_group_name_H-M   'P 21/c'
_symmetry_Int_Tables_number      14
_space_group_name_Hall           '-P 2ybc'
loop_
_symmetry_equiv_pos_site_id
_symmetry_equiv_pos_as_xyz
1 x,y,z
2 -x,1/2+y,1/2-z
3 -x,-y,-z
4 x,1/2-y,1/2+z
_cell_length_a                   17.8819(3)
_cell_length_b                   6.9190(1)
_cell_length_c                   8.6972(1)
_cell_angle_alpha                90
_cell_angle_beta                 96.720(1)
_cell_angle_gamma                90
_cell_volume                     1068.67
loop_
_atom_site_label
_atom_site_type_symbol
_atom_site_fract_x
_atom_site_fract_y
_atom_site_fract_z
Cu1 Cu 0.05132(2) 0.06508(4) -0.57464(3)
N1 N 0.0499(1) 0.2319(3) -0.7551(2)
C1 C -0.0413(1) -0.1715(4) -0.6374(3)
N2 N 0.1434(1) -0.1355(3) -0.5386(2)
N3 N 0.2498(1) -0.3656(3) -0.3340(2)
C2 C 0.1249(1) -0.3318(4) -0.4874(3)
C3 C 0.1932(1) -0.4592(3) -0.4482(3)
C4 C 0.2700(1) -0.1754(4) -0.3877(3)
C5 C 0.2003(2) -0.0517(3) -0.4222(3)
C6 C 0.3108(1) -0.4848(4) -0.2700(3)
C7 C 0.2963(1) -0.6634(4) -0.2064(3)
C8 C 0.3540(2) -0.7734(4) -0.1316(3)
C9 C 0.4276(2) -0.7109(5) -0.1193(4)
C10 C 0.4433(2) -0.5363(5) -0.1846(4)
C11 C 0.3857(2) -0.4231(4) -0.2601(3)
H1 H 0.162(1) -0.137(4) -0.623(3)
H2 H 0.0994 -0.3204 -0.3980
H3 H 0.0927 -0.3917 -0.5681
H4 H 0.2154 -0.4847 -0.5401
H5 H 0.1777 -0.5774 -0.4062
H6 H 0.3037 -0.1148 -0.3098
H7 H 0.2939 -0.1892 -0.4792
H8 H 0.2150 0.0703 -0.4589
H9 H 0.1783 -0.0344 -0.3289
H10 H 0.2461 -0.7104 -0.2144
H11 H 0.3427 -0.8943 -0.0879
H12 H 0.4669 -0.7868 -0.0667
H13 H 0.4939 -0.4924 -0.1780
H14 H 0.3974 -0.3035 -0.3052
Cu1B Cu -0.05132(2) -0.06508(4) -0.42536(3)
N1B N -0.0499(1) -0.2319(3) -0.2449(2)
Cu1A Cu -0.05132(2) -0.43492(4) -0.92536(3)
N1A N -0.0499(1) -0.2681(3) -0.7449(2)
C1B C 0.0413(1) 0.1715(4) -0.3626(3)
N2B N -0.1434(1) 0.1355(3) -0.4614(2)
C2B C -0.1249(1) 0.3318(4) -0.5126(3)
C3B C -0.1932(1) 0.4592(3) -0.5518(3)
N3B N -0.2498(1) 0.3656(3) -0.6660(2)
C4B C -0.2700(1) 0.1754(4) -0.6123(3)
C5B C -0.2003(2) 0.0517(3) -0.5778(3)
H1B H -0.162(1) 0.137(4) -0.377(3)
H8B H -0.2150 -0.0703 -0.5411
H9B H -0.1783 0.0344 -0.6711
H6B H -0.3037 0.1148 -0.6902
H7B H -0.2939 0.1892 -0.5208
C6B C -0.3108(1) 0.4848(4) -0.7300(3)
C7B C -0.2963(1) 0.6634(4) -0.7936(3)
C8B C -0.3540(2) 0.7734(4) -0.8684(3)
C9B C -0.4276(2) 0.7109(5) -0.8807(4)
C10B C -0.4433(2) 0.5363(5) -0.8154(4)
C11B C -0.3857(2) 0.4231(4) -0.7399(3)
H14B H -0.3974 0.3035 -0.6948
H13B H -0.4939 0.4924 -0.8220
H12B H -0.4669 0.7868 -0.9333
H11B H -0.3427 0.8943 -0.9121
H10B H -0.2461 0.7104 -0.7856
H4B H -0.2154 0.4847 -0.4599
H5B H -0.1777 0.5774 -0.5938
H2B H -0.0994 0.3204 -0.6020
H3B H -0.0927 0.3917 -0.4319
C1A C 0.0413(1) 0.3285(4) -0.8626(3)
Cu1C Cu 0.05132(2) 0.43492(4) -1.07464(3)
Cu1A_2 Cu -0.05132(2) 0.56508(4) -0.92536(3)
loop_
_geom_bond_atom_site_label_1
_geom_bond_atom_site_label_2
_geom_bond_site_symmetry_1
_geom_bond_site_symmetry_2
Cu1 N1 1_555 1_555
N1 C1A 1_555 1_555
C1 Cu1 1_555 1_555
N2 Cu1 1_555 1_555
N3 C3 1_555 1_555
C2 N2 1_555 1_555
C3 C2 1_555 1_555
C4 N3 1_555 1_555
C5 N2 1_555 1_555
C6 N3 1_555 1_555
C7 C6 1_555 1_555
C8 C7 1_555 1_555
C9 C8 1_555 1_555
C10 C9 1_555 1_555
C11 C6 1_555 1_555
H1 N2 1_555 1_555
H2 C2 1_555 1_555
H3 C2 1_555 1_555
H4 C3 1_555 1_555
H5 C3 1_555 1_555
H6 C4 1_555 1_555
H7 C4 1_555 1_555
H8 C5 1_555 1_555
H9 C5 1_555 1_555
H10 C7 1_555 1_555
H11 C8 1_555 1_555
H12 C9 1_555 1_555
H13 C10 1_555 1_555
H14 C11 1_555 1_555
Cu1B C1 1_555 1_555
N1B Cu1B 1_555 1_555
Cu1A N1A 1_555 1_555
N1A C1 1_555 1_555
C1B Cu1 1_555 1_555
N2B Cu1B 1_555 1_555
C2B N2B 1_555 1_555
C3B C2B 1_555 1_555
N3B C3B 1_555 1_555
C4B N3B 1_555 1_555
C5B N2B 1_555 1_555
H1B N2B 1_555 1_555
H8B C5B 1_555 1_555
H9B C5B 1_555 1_555
H6B C4B 1_555 1_555
H7B C4B 1_555 1_555
C6B N3B 1_555 1_555
C7B C6B 1_555 1_555
C8B C7B 1_555 1_555
C9B C8B 1_555 1_555
C10B C9B 1_555 1_555
C11B C6B 1_555 1_555
H14B C11B 1_555 1_555
H13B C10B 1_555 1_555
H12B C9B 1_555 1_555
H11B C8B 1_555 1_555
H10B C7B 1_555 1_555
H4B C3B 1_555 1_555
H5B C3B 1_555 1_555
H2B C2B 1_555 1_555
H3B C2B 1_555 1_555
C1A Cu1C 1_555 1_555
Cu1A_2 C1A 1_555 1_555
C4 C5 1_555 1_555
C10 C11 1_555 1_555
Cu1B C1B 1_555 1_555
C4B C5B 1_555 1_555
C10B C11B 1_555 1_555

#END
