
#######################################################################
#
#                 Cambridge Crystallographic Data Centre
#                                CCDC 
#
#######################################################################
#
# If this CIF has been generated from an entry in the Cambridge 
# Structural Database, then it will include bibliographic, chemical, 
# crystal, experimental, refinement or atomic coordinate data resulting 
# from the CCDC's data processing and validation procedures.
#
#######################################################################

data_HIWKOO
_symmetry_cell_setting           monoclinic
_symmetry_space_group_name_H-M   'C 2/c'
_symmetry_Int_Tables_number      15
_space_group_name_Hall           '-C 2yn'
loop_
_symmetry_equiv_pos_site_id
_symmetry_equiv_pos_as_xyz
1 x,y,z
2 1/2+x,1/2+y,z
3 -x,y,1/2-z
4 1/2-x,1/2+y,1/2-z
5 -x,-y,-z
6 1/2-x,1/2-y,-z
7 x,-y,1/2+z
8 1/2+x,1/2-y,1/2+z
_cell_length_a                   14.713(5)
_cell_length_b                   12.731(5)
_cell_length_c                   12.249(5)
_cell_angle_alpha                90
_cell_angle_beta                 103.298(5)
_cell_angle_gamma                90
_cell_volume                     2232.86
loop_
_atom_site_label
_atom_site_type_symbol
_atom_site_fract_x
_atom_site_fract_y
_atom_site_fract_z
Nb1 Nb 0.00000 0.233111(18) 0.25000
Mn1 Mn 0.25979(2) 0.51313(2) 0.44700(2)
N1 N 0.19563(13) 0.67322(14) 0.37891(15)
N2 N 0.19304(14) 0.85660(14) 0.41534(15)
O1 O 0.14931(14) 0.49034(15) 0.54114(17)
N3 N -0.01145(16) 0.33987(18) 0.50129(17)
N4 N 0.17279(14) 0.41590(16) 0.31599(16)
N5 N -0.15703(14) 0.10518(16) 0.04760(17)
C1 C 0.21928(15) 0.75800(16) 0.44319(16)
N6 N -0.12934(15) 0.06616(16) 0.36791(17)
C2 C 0.14324(19) 0.68962(19) 0.27532(19)
H1 H 0.1254 0.6325 0.2279
C3 C -0.10555(15) 0.15211(16) 0.11444(17)
C4 C -0.00850(15) 0.30396(16) 0.41628(17)
C5 C -0.08484(15) 0.12133(17) 0.32756(18)
C6 C 0.1409(2) 0.87085(19) 0.3116(2)
H2 H 0.1213 0.9384 0.2888
C7 C 0.11591(15) 0.35360(16) 0.28765(17)
C8 C 0.1152(2) 0.7891(2) 0.2373(2)
H3 H 0.0804 0.8004 0.1647
H4 H 0.1116(19) 0.4418(18) 0.517(2)
H5 H 0.115(3) 0.544(2) 0.536(4)
Mn1B Mn -0.25979(2) 0.51313(2) 0.05300(2)
Mn1E Mn 0.24021(2) 0.98687(2) 0.55300(2)
Mn1G Mn -0.24021(2) -0.01313(2) -0.05300(2)
Mn1A Mn -0.24021(2) 0.01313(2) 0.44700(2)
Mn1E_2 Mn 0.24021(2) -0.01313(2) 0.55300(2)
Mn1C Mn 0.24021(2) 0.01313(2) 0.05300(2)
N1E N 0.30437(13) 0.82678(14) 0.62109(15)
N1B N -0.19563(13) 0.67322(14) 0.12109(15)
N2E N 0.30696(14) 0.64340(14) 0.58466(15)
N2G N -0.30696(14) 0.64340(14) -0.08466(15)
O1B O -0.14931(14) 0.49034(15) -0.04114(17)
N3B N 0.01145(16) 0.33987(18) -0.00129(17)
N4B N -0.17279(14) 0.41590(16) 0.18401(16)
N5B N 0.15703(14) 0.10518(16) 0.45240(17)
N5G N 0.34297(14) 0.39482(16) 0.54760(17)
N5E N -0.34297(14) 0.39482(16) -0.04760(17)
C1E C 0.28072(15) 0.74200(16) 0.55681(16)
N6B N 0.12934(15) 0.06616(16) 0.13209(17)
N6A N 0.37066(15) 0.56616(16) 0.36791(17)
N6C N -0.37066(15) 0.56616(16) 0.13209(17)
C2E C 0.35676(19) 0.81038(19) 0.72468(19)
H1E H 0.3746 0.8675 0.7721
C3B C 0.10555(15) 0.15211(16) 0.38556(17)
C4B C 0.00850(15) 0.30396(16) 0.08372(17)
C5B C 0.08484(15) 0.12133(17) 0.17244(18)
C6E C 0.3591(2) 0.62915(19) 0.6884(2)
H2E H 0.3787 0.5616 0.7112
C7B C -0.11591(15) 0.35360(16) 0.21235(17)
C8E C 0.3848(2) 0.7109(2) 0.7627(2)
H3E H 0.4196 0.6996 0.8353
H4B H -0.1116(19) 0.4418(18) -0.017(2)
H5B H -0.115(3) 0.544(2) -0.036(4)
loop_
_geom_bond_atom_site_label_1
_geom_bond_atom_site_label_2
_geom_bond_site_symmetry_1
_geom_bond_site_symmetry_2
Nb1 C3 1_555 1_555
Mn1 N1 1_555 1_555
N1 C1 1_555 1_555
N2 C1 1_555 1_555
O1 Mn1 1_555 1_555
N3 C4 1_555 1_555
N4 Mn1 1_555 1_555
N5 C3 1_555 1_555
C1 C1E 1_555 1_555
N6 C5 1_555 1_555
C2 N1 1_555 1_555
H1 C2 1_555 1_555
C4 Nb1 1_555 1_555
C5 Nb1 1_555 1_555
C6 N2 1_555 1_555
H2 C6 1_555 1_555
C7 Nb1 1_555 1_555
C8 C2 1_555 1_555
H3 C8 1_555 1_555
H4 O1 1_555 1_555
H5 O1 1_555 1_555
Mn1B N1B 1_555 1_555
Mn1E N2 1_555 1_555
Mn1G N5 1_555 1_555
Mn1A N6 1_555 1_555
Mn1E_2 N5B 1_555 1_555
Mn1C N6B 1_555 1_555
N1E Mn1E 1_555 1_555
N2E Mn1 1_555 1_555
N2G Mn1B 1_555 1_555
O1B Mn1B 1_555 1_555
N3B C4B 1_555 1_555
N4B Mn1B 1_555 1_555
N5B C3B 1_555 1_555
N5G Mn1 1_555 1_555
N5E Mn1B 1_555 1_555
C1E N1E 1_555 1_555
N6B C5B 1_555 1_555
N6A Mn1 1_555 1_555
N6C Mn1B 1_555 1_555
C2E N1E 1_555 1_555
H1E C2E 1_555 1_555
C3B Nb1 1_555 1_555
C4B Nb1 1_555 1_555
C5B Nb1 1_555 1_555
C6E N2E 1_555 1_555
H2E C6E 1_555 1_555
C7B Nb1 1_555 1_555
C8E C2E 1_555 1_555
H3E C8E 1_555 1_555
H4B O1B 1_555 1_555
H5B O1B 1_555 1_555
N4 C7 1_555 1_555
C6 C8 1_555 1_555
N2E C1E 1_555 1_555
N4B C7B 1_555 1_555
C6E C8E 1_555 1_555

#END
