
#######################################################################
#
#                 Cambridge Crystallographic Data Centre
#                                CCDC 
#
#######################################################################
#
# If this CIF has been generated from an entry in the Cambridge 
# Structural Database, then it will include bibliographic, chemical, 
# crystal, experimental, refinement or atomic coordinate data resulting 
# from the CCDC's data processing and validation procedures.
#
#######################################################################

data_HIWKEE
_symmetry_cell_setting           triclinic
_symmetry_space_group_name_H-M   'P -1'
_symmetry_Int_Tables_number      2
_space_group_name_Hall           '-P 1'
loop_
_symmetry_equiv_pos_site_id
_symmetry_equiv_pos_as_xyz
1 x,y,z
2 -x,-y,-z
_cell_length_a                   10.947(5)
_cell_length_b                   17.908(5)
_cell_length_c                   19.308(5)
_cell_angle_alpha                63.446(5)
_cell_angle_beta                 75.227(5)
_cell_angle_gamma                73.788(5)
_cell_volume                     3213.65
loop_
_atom_site_label
_atom_site_type_symbol
_atom_site_fract_x
_atom_site_fract_y
_atom_site_fract_z
N25 N 0.8068(3) 0.2566(2) 0.0200(2)
C33 C 0.8662(4) 0.2776(3) 0.0585(3)
H17 H 0.9296 0.2369 0.0868
C34 C 0.8376(4) 0.3571(3) 0.0579(3)
H18 H 0.8825 0.3687 0.0858
N26 N 0.7492(3) 0.4178(2) 0.0197(2)
C35 C 0.6907(5) 0.3974(3) -0.0190(3)
H19 H 0.6288 0.4387 -0.0482
C36 C 0.7173(5) 0.3172(3) -0.0181(3)
H20 H 0.671 0.3054 -0.045
N27 N 0.4808(3) 0.0774(2) 0.00611(19)
C37 C 0.5827(4) 0.0512(3) -0.0379(2)
H21 H 0.6437 0.0856 -0.0657
C38 C 0.3990(4) 0.0245(3) 0.0438(2)
H22 H 0.3261 0.0395 0.0756
N27A N 0.5192(3) -0.0774(2) -0.00611(19)
C37A C 0.4173(4) -0.0512(3) 0.0379(2)
H21A H 0.3563 -0.0856 0.0657
C38A C 0.6010(4) -0.0245(3) -0.0438(2)
H22A H 0.6739 -0.0395 -0.0756
N28 N 0.5388(10) 0.4202(7) 0.4695(6)
C39 C 0.6143(9) 0.4762(6) 0.4477(5)
C40 C 0.4115(8) 0.4565(6) 0.5300(5)
N28A N 0.4612(10) 0.5798(7) 0.5305(6)
C39A C 0.3857(9) 0.5238(6) 0.5523(5)
C40A C 0.5885(8) 0.5435(6) 0.4700(5)
O1 O 0.3388(9) 0.3273(6) 0.4247(5)
H23 H 0.2526 0.3227 0.414
H24 H 0.3414 0.2748 0.462
O3 O 0.1843(2) 0.78829(16) 0.16900(17)
H27 H 0.1295 0.758 0.1724
H28 H 0.1534 0.8171 0.1989
O4 O 0.1628(2) 0.28101(15) 0.67127(15)
H29 H 0.1251 0.2385 0.6826
H30 H 0.1197 0.3034 0.7043
O5 O 0.4779(2) 0.56147(17) 0.16029(17)
H31 H 0.4125 0.5333 0.1779
H32 H 0.5399 0.5183 0.1802
O6 O 0.5067(3) 0.13607(16) 0.58990(17)
H33 H 0.4463 0.1149 0.5839
H34 H 0.5555 0.0885 0.6182
O7 O 0.5757(3) 0.1238(2) 0.1654(2)
H35 H 0.6333 0.1203 0.1928
H36 H 0.5306 0.0873 0.2066
Nb1 Nb -0.10395(2) -0.004173(15) 0.732864(14)
Nb2 Nb 0.06196(2) 0.494900(14) 0.778190(14)
Mn1 Mn 0.00000 0.00000 1.00000
Mn2 Mn 0.49203(4) 0.25755(3) 0.74796(3)
Mn3 Mn 1.00000 0.50000 0.50000
Mn4 Mn 0.16626(5) -0.19317(3) 0.57942(3)
Mn5 Mn -0.24461(4) -0.31254(3) 0.93901(3)
C1 C -0.0751(3) -0.00636(18) 0.84591(17)
C2 C -0.2675(3) 0.09552(18) 0.75304(18)
C3 C -0.2873(3) -0.02240(19) 0.7143(2)
C4 C -0.0431(3) -0.08500(18) 0.66442(17)
C5 C -0.1426(3) -0.13055(19) 0.82778(18)
C6 C -0.0031(3) 0.1027(2) 0.7014(2)
C7 C 0.1010(3) -0.0723(2) 0.74825(19)
C8 C -0.1206(3) 0.08508(19) 0.60651(19)
N1 N -0.0544(3) -0.00573(18) 0.90095(16)
N2 N -0.3536(3) 0.14686(17) 0.76022(18)
N3 N -0.3816(3) -0.0298(2) 0.7052(2)
N4 N -0.0061(3) -0.12348(18) 0.62661(17)
N5 N -0.1646(3) -0.19495(17) 0.87468(16)
N6 N 0.0430(4) 0.1580(2) 0.6892(2)
N7 N 0.2027(3) -0.1103(2) 0.7591(2)
N8 N -0.1275(3) 0.12885(18) 0.54186(16)
C9 C -0.0377(3) 0.5676(2) 0.85351(19)
C10 C 0.2497(3) 0.41507(18) 0.74879(17)
C11 C 0.1195(3) 0.40401(19) 0.89722(18)
C12 C 0.0662(3) 0.62701(19) 0.68257(18)
C13 C 0.0498(3) 0.49599(18) 0.66371(18)
C14 C 0.2195(3) 0.54509(19) 0.7897(2)
C15 C 0.0081(3) 0.3717(2) 0.80564(19)
C16 C -0.1509(3) 0.5211(2) 0.7749(2)
N9 N -0.0916(3) 0.60542(19) 0.89079(18)
N10 N 0.3435(3) 0.37018(17) 0.73924(17)
N11 N 0.1589(3) 0.35776(17) 0.95417(16)
N12 N 0.0855(3) 0.69083(17) 0.63218(17)
N13 N 0.0416(3) 0.49854(19) 0.60452(16)
N14 N 0.3011(3) 0.5726(2) 0.7918(2)
N15 N -0.0191(3) 0.3103(2) 0.8138(2)
N16 N -0.2574(3) 0.5252(3) 0.7760(3)
N17 N 0.1535(3) 0.07983(16) 0.92026(16)
C17 C 0.1611(3) 0.1487(2) 0.9274(2)
H1 H 0.0996 0.1668 0.9627
C18 C 0.2582(3) 0.19419(19) 0.88378(19)
H2 H 0.2594 0.2425 0.8901
N18 N 0.3495(2) 0.17079(16) 0.83325(16)
C19 C 0.3436(3) 0.1006(2) 0.8269(2)
H3 H 0.4065 0.0816 0.7927
C20 C 0.2458(4) 0.0555(2) 0.8701(2)
H4 H 0.2444 0.0071 0.864
N19 N 0.6452(2) 0.33533(17) 0.66101(17)
C21 C 0.6596(4) 0.4014(2) 0.6701(2)
H5 H 0.5994 0.4205 0.7052
C22 C 0.7622(4) 0.4425(2) 0.6287(2)
H6 H 0.7707 0.4877 0.6375
N20 N 0.8486(3) 0.41866(18) 0.57654(17)
C23 C 0.8343(3) 0.3530(2) 0.5674(2)
H7 H 0.8937 0.3345 0.5316
C24 C 0.7332(3) 0.3108(2) 0.6098(2)
H8 H 0.7267 0.2644 0.6022
N21 N 0.2657(3) -0.07933(18) 0.55644(17)
C25 C 0.2035(4) 0.0016(2) 0.5307(2)
H9 H 0.1293 0.0164 0.5088
C26 C 0.2470(4) 0.0633(2) 0.5360(3)
H10 H 0.2005 0.1187 0.5176
N22 N 0.3524(3) 0.0478(2) 0.5662(2)
C27 C 0.4147(4) -0.0322(3) 0.5905(2)
H11 H 0.4896 -0.0464 0.6117
C28 C 0.3725(3) -0.0957(2) 0.5855(2)
H12 H 0.42 -0.1509 0.6029
N23 N -0.3225(3) -0.28419(18) 0.82679(19)
C29 C -0.2541(5) -0.2477(3) 0.7567(2)
H13 H -0.1805 -0.23 0.7545
C30 C -0.2870(7) -0.2353(4) 0.6882(3)
H14 H -0.2355 -0.2099 0.6411
N24 N -0.3903(7) -0.2587(4) 0.6876(3)
C31 C -0.4605(6) -0.2950(4) 0.7558(4)
H15 H -0.5343 -0.3122 0.7573
C32 C -0.4256(4) -0.3082(3) 0.8262(3)
H16 H -0.4764 -0.3345 0.8734
O8 O 0.1462(2) -0.11378(14) 1.01426(15)
H37 H 0.1604 -0.1521 0.9946
H38 H 0.1578 -0.1432 1.0642
O9 O 0.5532(2) 0.27264(16) 0.84108(15)
H39 H 0.6378 0.2512 0.8413
H40 H 0.5411 0.3261 0.8356
O10 O 0.4234(2) 0.25169(16) 0.65500(16)
H41 H 0.4517 0.2104 0.6388
H42 H 0.3381 0.2638 0.6574
O11 O 0.8584(3) 0.61640(18) 0.48218(16)
H43 H 0.8519 0.6478 0.4324
H44 H 0.8262 0.6469 0.5108
O12 O 0.2371(3) -0.24201(15) 0.69461(15)
H45 H 0.2462 -0.2938 0.7296
H46 H 0.225 -0.2154 0.7251
O13 O 0.3546(3) -0.25047(19) 0.53486(19)
H47 H 0.4027 -0.2142 0.4981
H48 H 0.379 -0.3056 0.5495
O14 O -0.3555(2) -0.41531(15) 1.00321(16)
H49 H -0.3113 -0.469 1.0116
H50 H -0.4036 -0.4141 1.0482
O15 O -0.4340(2) -0.22928(16) 0.96216(17)
H51 H -0.4744 -0.2007 0.9199
H52 H -0.4203 -0.2146 0.9976
Nb1A Nb 0.10395(2) 0.004173(15) 1.267136(14)
Nb1_2 Nb 0.89605(2) -0.004173(15) 0.732864(14)
Nb2A Nb -0.06196(2) -0.494900(14) 1.221810(14)
Nb2_2 Nb 1.06196(2) 0.494900(14) 0.778190(14)
Nb2_3 Nb 0.06196(2) -0.505100(14) 0.778190(14)
Mn2A Mn -0.49203(4) -0.25755(3) 1.25204(3)
Mn2_2 Mn -0.50797(4) 0.25755(3) 0.74796(3)
Mn3_2 Mn 0.00000 0.50000 0.50000
Mn3_3 Mn -1.00000 -0.50000 1.50000
Mn4A Mn -0.16626(5) 0.19317(3) 1.42058(3)
Mn4A_2 Mn -0.16626(5) 0.19317(3) 0.42058(3)
Mn4_2 Mn 0.16626(5) 0.80683(3) 0.57942(3)
Mn4_3 Mn 0.16626(5) -0.19317(3) 1.57942(3)
Mn5A Mn 0.24461(4) 0.31254(3) 1.06099(3)
Mn5_2 Mn -0.24461(4) 0.68746(3) 0.93901(3)
C1A C 0.0751(3) 0.00636(18) 1.15409(17)
C2_2 C 0.7325(3) 0.09552(18) 0.75304(18)
C2A C 0.2675(3) -0.09552(18) 1.24696(18)
C3A C 0.2873(3) 0.02240(19) 1.2857(2)
C4A C 0.0431(3) 0.08500(18) 1.33558(17)
C5A C 0.1426(3) 0.13055(19) 1.17222(18)
C6A C 0.0031(3) -0.1027(2) 1.2986(2)
C7A C -0.1010(3) 0.0723(2) 1.25175(19)
C8A C 0.1206(3) -0.08508(19) 1.39349(19)
N1A N 0.0544(3) 0.00573(18) 1.09905(16)
N2_2 N 0.6464(3) 0.14686(17) 0.76022(18)
N2A N -0.6464(3) -0.14686(17) 1.23978(18)
N3A N 0.3816(3) 0.0298(2) 1.2948(2)
N4A N 0.0061(3) 0.12348(18) 1.37339(17)
N5A N 0.1646(3) 0.19495(17) 1.12532(16)
N6A N -0.0430(4) -0.1580(2) 1.3108(2)
N7A N -0.2027(3) 0.1103(2) 1.2409(2)
N8A N 0.1275(3) -0.12885(18) 1.45814(16)
N8A_2 N 0.1275(3) -0.12885(18) 0.45814(16)
N8_2 N -0.1275(3) 0.12885(18) 1.54186(16)
C9_2 C -0.0377(3) -0.4324(2) 0.85351(19)
C9A C 0.0377(3) -0.5676(2) 1.14649(19)
C10A C -0.2497(3) -0.41507(18) 1.25121(17)
C11A C -0.1195(3) -0.40401(19) 1.10278(18)
C12_2 C 0.0662(3) -0.37299(19) 0.68257(18)
C12A C -0.0662(3) -0.62701(19) 1.31743(18)
C13_2 C 1.0498(3) 0.49599(18) 0.66371(18)
C13A C -0.0498(3) -0.49599(18) 1.33629(18)
C14A C -0.2195(3) -0.54509(19) 1.2103(2)
C15A C -0.0081(3) -0.3717(2) 1.19436(19)
C16A C 0.1509(3) -0.5211(2) 1.2251(2)
N9_2 N -0.0916(3) -0.39458(19) 0.89079(18)
N9A N 0.0916(3) 0.39458(19) 1.10921(18)
N10A N -0.3435(3) -0.37018(17) 1.26076(17)
N11A N -0.1589(3) -0.35776(17) 1.04583(16)
N12_2 N 0.0855(3) -0.30917(17) 0.63218(17)
N12A N -0.0855(3) 0.30917(17) 1.36782(17)
N13_2 N 1.0416(3) 0.49854(19) 0.60452(16)
N13A N 0.9584(3) 0.50146(19) 0.39548(16)
N14A N -0.3011(3) -0.5726(2) 1.2082(2)
N15A N 0.0191(3) -0.3103(2) 1.1862(2)
N16A N 0.2574(3) -0.5252(3) 1.2240(3)
N17A N -0.1535(3) -0.07983(16) 1.07974(16)
C17A C -0.1611(3) -0.1487(2) 1.0726(2)
H1A H -0.0996 -0.1668 1.0373
C18A C -0.2582(3) -0.19419(19) 1.11622(19)
H2A H -0.2594 -0.2425 1.1099
N18A N -0.3495(2) -0.17079(16) 1.16675(16)
C19A C -0.3436(3) -0.1006(2) 1.1731(2)
H3A H -0.4065 -0.0816 1.2073
C20A C -0.2458(4) -0.0555(2) 1.1299(2)
H4A H -0.2444 -0.0071 1.136
N19A N -0.6452(2) -0.33533(17) 1.33899(17)
C21A C -0.6596(4) -0.4014(2) 1.3299(2)
H5A H -0.5994 -0.4205 1.2948
C22A C -0.7622(4) -0.4425(2) 1.3713(2)
H6A H -0.7707 -0.4877 1.3625
N20A N -0.8486(3) -0.41866(18) 1.42346(17)
N20A_2 N 1.1514(3) 0.58134(18) 0.42346(17)
C23A C -0.8343(3) -0.3530(2) 1.4326(2)
H7A H -0.8937 -0.3345 1.4684
C24A C -0.7332(3) -0.3108(2) 1.3902(2)
H8A H -0.7267 -0.2644 1.3978
N21A N -0.2657(3) 0.07933(18) 1.44356(17)
C25A C -0.2035(4) -0.0016(2) 1.4693(2)
H9A H -0.1293 -0.0164 1.4912
C26A C -0.2470(4) -0.0633(2) 1.4640(3)
H10A H -0.2005 -0.1187 1.4824
N22A N -0.3524(3) -0.0478(2) 1.4338(2)
C27A C -0.4147(4) 0.0322(3) 1.4095(2)
H11A H -0.4896 0.0464 1.3883
C28A C -0.3725(3) 0.0957(2) 1.4145(2)
H12A H -0.42 0.1509 1.3971
N23A N 0.3225(3) 0.28419(18) 1.17321(19)
C29A C 0.2541(5) 0.2477(3) 1.2433(2)
H13A H 0.1805 0.23 1.2455
C30A C 0.2870(7) 0.2353(4) 1.3118(3)
H14A H 0.2355 0.2099 1.3589
N24A N 0.3903(7) 0.2587(4) 1.3124(3)
C31A C 0.4605(6) 0.2950(4) 1.2442(4)
H15A H 0.5343 0.3122 1.2427
C32A C 0.4256(4) 0.3082(3) 1.1738(3)
H16A H 0.4764 0.3345 1.1266
O8A O -0.1462(2) 0.11378(14) 0.98574(15)
H37A H -0.1604 0.1521 1.0054
H38A H -0.1578 0.1432 0.9358
O9A O -0.5532(2) -0.27264(16) 1.15892(15)
H39A H -0.6378 -0.2512 1.1587
H40A H -0.5411 -0.3261 1.1644
O10A O -0.4234(2) -0.25169(16) 1.34500(16)
H41A H -0.4517 -0.2104 1.3612
H42A H -0.3381 -0.2638 1.3426
O11A O 1.1416(3) 0.38360(18) 0.51782(16)
H43A H 1.1481 0.3522 0.5676
H44A H 1.1738 0.3531 0.4892
O12A O -0.2371(3) 0.24201(15) 1.30539(15)
H45A H -0.2462 0.2938 1.2704
H46A H -0.225 0.2154 1.2749
O13A O -0.3546(3) 0.25047(19) 1.46514(19)
H47A H -0.4027 0.2142 1.5019
H48A H -0.379 0.3056 1.4505
O14A O 0.3555(2) 0.41531(15) 0.99679(16)
H49A H 0.3113 0.469 0.9884
H50A H 0.4036 0.4141 0.9518
O15A O 0.4340(2) 0.22928(16) 1.03784(17)
H51A H 0.4744 0.2007 1.0801
H52A H 0.4203 0.2146 1.0024
N29? N 0.5115(19) 0.4695(12) 0.4814(11)
C41? C 0.5987(13) 0.5101(11) 0.4658(8)
C42? C 0.5638(16) 0.5772(10) 0.4958(10)
O2? O 0.5338(16) 0.3984(9) 0.3741(8)
H25? H 0.5453 0.408 0.4144
H26? H 0.4661 0.3782 0.3759
loop_
_geom_bond_atom_site_label_1
_geom_bond_atom_site_label_2
_geom_bond_site_symmetry_1
_geom_bond_site_symmetry_2
Nb1 C1 1_555 1_555
Nb2 C9 1_555 1_555
Mn1 N1 1_555 1_555
Mn2 N10 1_555 1_555
Mn3 N20 1_555 1_555
Mn4 N4 1_555 1_555
Mn5 N5 1_555 1_555
C1 N1 1_555 1_555
C2 Nb1 1_555 1_555
C3 Nb1 1_555 1_555
C4 Nb1 1_555 1_555
C5 Nb1 1_555 1_555
C6 Nb1 1_555 1_555
C7 Nb1 1_555 1_555
C8 Nb1 1_555 1_555
N2 C2 1_555 1_555
N3 C3 1_555 1_555
N4 C4 1_555 1_555
N5 C5 1_555 1_555
N6 C6 1_555 1_555
N7 C7 1_555 1_555
N8 C8 1_555 1_555
C9 N9 1_555 1_555
C10 Nb2 1_555 1_555
C11 Nb2 1_555 1_555
C12 Nb2 1_555 1_555
C13 Nb2 1_555 1_555
C14 Nb2 1_555 1_555
C15 Nb2 1_555 1_555
C16 Nb2 1_555 1_555
N9 Mn5_2 1_555 1_555
N10 C10 1_555 1_555
N11 C11 1_555 1_555
N12 C12 1_555 1_555
N13 C13 1_555 1_555
N14 C14 1_555 1_555
N15 C15 1_555 1_555
N16 C16 1_555 1_555
N17 Mn1 1_555 1_555
C17 N17 1_555 1_555
H1 C17 1_555 1_555
C18 C17 1_555 1_555
H2 C18 1_555 1_555
N18 Mn2 1_555 1_555
C19 N18 1_555 1_555
H3 C19 1_555 1_555
C20 N17 1_555 1_555
H4 C20 1_555 1_555
N19 Mn2 1_555 1_555
C21 N19 1_555 1_555
H5 C21 1_555 1_555
C22 C21 1_555 1_555
H6 C22 1_555 1_555
N20 C22 1_555 1_555
C23 N20 1_555 1_555
H7 C23 1_555 1_555
C24 N19 1_555 1_555
H8 C24 1_555 1_555
N21 Mn4 1_555 1_555
C25 N21 1_555 1_555
H9 C25 1_555 1_555
C26 C25 1_555 1_555
H10 C26 1_555 1_555
N22 C26 1_555 1_555
C27 N22 1_555 1_555
H11 C27 1_555 1_555
C28 N21 1_555 1_555
H12 C28 1_555 1_555
N23 Mn5 1_555 1_555
C29 N23 1_555 1_555
H13 C29 1_555 1_555
C30 C29 1_555 1_555
H14 C30 1_555 1_555
N24 C30 1_555 1_555
C31 N24 1_555 1_555
H15 C31 1_555 1_555
C32 N23 1_555 1_555
H16 C32 1_555 1_555
N25 C33 1_555 1_555
C33 H17 1_555 1_555
C34 C33 1_555 1_555
H18 C34 1_555 1_555
N26 C34 1_555 1_555
C35 N26 1_555 1_555
H19 C35 1_555 1_555
C36 N25 1_555 1_555
H20 C36 1_555 1_555
N27 C37 1_555 1_555
C37 H21 1_555 1_555
C38 N27 1_555 1_555
H22 C38 1_555 1_555
N28 C39 1_555 1_555
C39 C40A 1_555 1_555
C40 N28 1_555 1_555
O1 H23 1_555 1_555
H24 O1 1_555 1_555
O3 H27 1_555 1_555
H28 O3 1_555 1_555
O4 H29 1_555 1_555
H30 O4 1_555 1_555
O5 H31 1_555 1_555
H32 O5 1_555 1_555
O6 H33 1_555 1_555
H34 O6 1_555 1_555
O7 H35 1_555 1_555
H36 O7 1_555 1_555
O8 Mn1 1_555 1_555
H37 O8 1_555 1_555
H38 O8 1_555 1_555
O9 Mn2 1_555 1_555
H39 O9 1_555 1_555
H40 O9 1_555 1_555
O10 Mn2 1_555 1_555
H41 O10 1_555 1_555
H42 O10 1_555 1_555
O11 Mn3 1_555 1_555
H43 O11 1_555 1_555
H44 O11 1_555 1_555
O12 Mn4 1_555 1_555
H45 O12 1_555 1_555
H46 O12 1_555 1_555
O13 Mn4 1_555 1_555
H47 O13 1_555 1_555
H48 O13 1_555 1_555
O14 Mn5 1_555 1_555
H49 O14 1_555 1_555
H50 O14 1_555 1_555
O15 Mn5 1_555 1_555
H51 O15 1_555 1_555
H52 O15 1_555 1_555
Nb1A C1A 1_555 1_555
Nb1_2 C2_2 1_555 1_555
Nb2A C9A 1_555 1_555
Nb2_2 C13_2 1_555 1_555
Nb2_3 C9_2 1_555 1_555
Mn2A N2A 1_555 1_555
Mn2_2 N2 1_555 1_555
Mn3_2 N13 1_555 1_555
Mn3_3 N20A 1_555 1_555
Mn4A N4A 1_555 1_555
Mn4A_2 N8 1_555 1_555
Mn4_2 N12 1_555 1_555
Mn4_3 N8A 1_555 1_555
Mn5A N11 1_555 1_555
C1A N1A 1_555 1_555
C2_2 N2_2 1_555 1_555
C2A Nb1A 1_555 1_555
C3A Nb1A 1_555 1_555
C4A Nb1A 1_555 1_555
C5A Nb1A 1_555 1_555
C6A Nb1A 1_555 1_555
C7A Nb1A 1_555 1_555
C8A Nb1A 1_555 1_555
N1A Mn1 1_555 1_555
N2_2 Mn2 1_555 1_555
N3A C3A 1_555 1_555
N4A C4A 1_555 1_555
N5A Mn5A 1_555 1_555
N6A C6A 1_555 1_555
N7A C7A 1_555 1_555
N8A C8A 1_555 1_555
N8A_2 Mn4 1_555 1_555
N8_2 Mn4A 1_555 1_555
C9_2 N9_2 1_555 1_555
C10A Nb2A 1_555 1_555
C11A Nb2A 1_555 1_555
C12_2 Nb2_3 1_555 1_555
C12A Nb2A 1_555 1_555
C13_2 N13_2 1_555 1_555
C13A Nb2A 1_555 1_555
C14A Nb2A 1_555 1_555
C15A Nb2A 1_555 1_555
C16A Nb2A 1_555 1_555
N9_2 Mn5 1_555 1_555
N9A Mn5A 1_555 1_555
N10A Mn2A 1_555 1_555
N11A Mn5 1_555 1_555
N12_2 Mn4 1_555 1_555
N12A Mn4A 1_555 1_555
N13_2 Mn3 1_555 1_555
N13A Mn3 1_555 1_555
N14A C14A 1_555 1_555
N15A C15A 1_555 1_555
N16A C16A 1_555 1_555
N17A Mn1 1_555 1_555
C17A N17A 1_555 1_555
H1A C17A 1_555 1_555
C18A C17A 1_555 1_555
H2A C18A 1_555 1_555
N18A Mn2A 1_555 1_555
C19A N18A 1_555 1_555
H3A C19A 1_555 1_555
C20A N17A 1_555 1_555
H4A C20A 1_555 1_555
N19A Mn2A 1_555 1_555
C21A N19A 1_555 1_555
H5A C21A 1_555 1_555
C22A C21A 1_555 1_555
H6A C22A 1_555 1_555
N20A C22A 1_555 1_555
N20A_2 Mn3 1_555 1_555
C23A N20A 1_555 1_555
H7A C23A 1_555 1_555
C24A N19A 1_555 1_555
H8A C24A 1_555 1_555
N21A Mn4A 1_555 1_555
C25A N21A 1_555 1_555
H9A C25A 1_555 1_555
C26A C25A 1_555 1_555
H10A C26A 1_555 1_555
N22A C26A 1_555 1_555
C27A N22A 1_555 1_555
H11A C27A 1_555 1_555
C28A N21A 1_555 1_555
H12A C28A 1_555 1_555
N23A Mn5A 1_555 1_555
C29A N23A 1_555 1_555
H13A C29A 1_555 1_555
C30A C29A 1_555 1_555
H14A C30A 1_555 1_555
N24A C30A 1_555 1_555
C31A N24A 1_555 1_555
H15A C31A 1_555 1_555
C32A N23A 1_555 1_555
H16A C32A 1_555 1_555
N27A C37A 1_555 1_555
C37A C38 1_555 1_555
H21A C37A 1_555 1_555
C38A C37 1_555 1_555
H22A C38A 1_555 1_555
N28A C39A 1_555 1_555
C39A C40 1_555 1_555
C40A N28A 1_555 1_555
O8A Mn1 1_555 1_555
H37A O8A 1_555 1_555
H38A O8A 1_555 1_555
O9A Mn2A 1_555 1_555
H39A O9A 1_555 1_555
H40A O9A 1_555 1_555
O10A Mn2A 1_555 1_555
H41A O10A 1_555 1_555
H42A O10A 1_555 1_555
O11A Mn3 1_555 1_555
H43A O11A 1_555 1_555
H44A O11A 1_555 1_555
O12A Mn4A 1_555 1_555
H45A O12A 1_555 1_555
H46A O12A 1_555 1_555
O13A Mn4A 1_555 1_555
H47A O13A 1_555 1_555
H48A O13A 1_555 1_555
O14A Mn5A 1_555 1_555
H49A O14A 1_555 1_555
H50A O14A 1_555 1_555
O15A Mn5A 1_555 1_555
H51A O15A 1_555 1_555
H52A O15A 1_555 1_555
C18 N18 1_555 1_555
C19 C20 1_555 1_555
C23 C24 1_555 1_555
C27 C28 1_555 1_555
C31 C32 1_555 1_555
C35 C36 1_555 1_555
C5A N5A 1_555 1_555
C10A N10A 1_555 1_555
C11A N11A 1_555 1_555
C12_2 N12_2 1_555 1_555
C18A N18A 1_555 1_555
C19A C20A 1_555 1_555
C23A C24A 1_555 1_555
C27A C28A 1_555 1_555
C31A C32A 1_555 1_555
N27A C38A 1_555 1_555

#END
