
#######################################################################
#
#                 Cambridge Crystallographic Data Centre
#                                CCDC 
#
#######################################################################
#
# If this CIF has been generated from an entry in the Cambridge 
# Structural Database, then it will include bibliographic, chemical, 
# crystal, experimental, refinement or atomic coordinate data resulting 
# from the CCDC's data processing and validation procedures.
#
#######################################################################

data_HIWLOO
_symmetry_cell_setting           triclinic
_symmetry_space_group_name_H-M   'P -1'
_symmetry_Int_Tables_number      2
_space_group_name_Hall           '-P 1'
loop_
_symmetry_equiv_pos_site_id
_symmetry_equiv_pos_as_xyz
1 x,y,z
2 -x,-y,-z
_cell_length_a                   10.5429(4)
_cell_length_b                   11.6345(5)
_cell_length_c                   11.7303(5)
_cell_angle_alpha                110.116(1)
_cell_angle_beta                 100.445(1)
_cell_angle_gamma                104.339(1)
_cell_volume                     1251.58
loop_
_atom_site_label
_atom_site_type_symbol
_atom_site_fract_x
_atom_site_fract_y
_atom_site_fract_z
In1 In -0.04631(5) -0.04462(5) 0.20526(5)
In2 In -0.5000 0.0000 0.0000
In3 In -0.5000 0.0000 0.5000
P1 P -0.1936(2) 0.0026(2) -0.0498(2)
P2 P -0.3676(2) -0.0977(2) 0.2365(2)
P3 P 0.1546(2) -0.1621(2) 0.3667(2)
P4 P -0.1984(3) -0.3774(2) 0.0232(2)
O1 O -0.1213(5) 0.0423(5) 0.0890(4)
O2 O -0.1076(5) 0.0679(5) -0.1153(5)
O3 O -0.3278(4) 0.0315(5) -0.0679(5)
O4 O -0.2273(6) -0.1502(5) -0.1203(5)
O5 O -0.2111(5) -0.0410(5) 0.2939(5)
O6 O -0.4107(5) -0.0812(5) 0.1152(4)
O7 O -0.4354(5) -0.0399(5) 0.3335(5)
O8 O -0.4141(6) -0.2503(5) 0.1994(5)
O9 O 0.0407(5) -0.1107(5) 0.3357(4)
O10 O -0.7053(5) -0.0785(5) 0.3801(5)
O11 O 0.1549(5) -0.1812(5) 0.4939(5)
O12 O 0.1230(5) -0.3012(5) 0.2632(5)
O13 O -0.1170(8) -0.4120(6) 0.1159(7)
O14 O -0.1752(6) -0.2356(5) 0.0666(5)
O15 O -0.1859(10) -0.4328(9) -0.1115(6)
O16 O -0.3541(8) -0.4452(8) -0.0017(9)
N1 N 0.0699(6) 0.1592(6) 0.3582(5)
N2 N -0.6044(6) -0.2058(5) -0.1541(5)
N3 N -0.4955(6) 0.1955(5) 0.5010(6)
C1 C 0.1278(7) 0.1768(7) 0.4784(7)
C2 C 0.0723(7) 0.2646(7) 0.3348(7)
C3 C 0.1899(7) 0.3005(7) 0.5765(7)
C4 C 0.1314(7) 0.3912(7) 0.4280(7)
C5 C 0.1933(7) 0.4097(7) 0.5545(7)
C6 C 0.2608(7) 0.5420(7) 0.6546(6)
C7 C 0.3649(7) 0.5671(7) 0.7648(7)
C8 C 0.2270(7) 0.6471(7) 0.6469(7)
C9 C 0.4293(7) 0.6923(7) 0.8556(7)
C10 C 0.2928(7) 0.7714(7) 0.7440(7)
C11 C -0.5685(7) 0.2015(7) 0.3952(7)
C12 C -0.4254(7) 0.3084(7) 0.6058(7)
C13 C -0.5701(7) 0.3192(6) 0.3926(6)
C14 C -0.4257(7) 0.4273(7) 0.6073(7)
C15 C -0.4993(6) 0.4355(6) 0.4999(6)
O3A O -0.6722(4) -0.0315(5) 0.0679(5)
O6A O -0.5893(5) 0.0812(5) -0.1152(4)
N2A N -0.3956(6) 0.2058(5) 0.1541(5)
O7A O -0.5646(5) 0.0399(5) 0.6665(5)
O10A O -0.2947(5) 0.0785(5) 0.6199(5)
N3A N -0.5045(6) -0.1955(5) 0.4990(6)
O2A O 0.1076(5) -0.0679(5) 0.1153(5)
O10_2 O 0.2947(5) -0.0785(5) 0.3801(5)
P3_2 P -0.8454(2) -0.1621(2) 0.3667(2)
C15A C -0.5007(6) 0.5645(6) 0.5001(6)
N2_2 N 0.3956(6) 0.7942(5) 0.8459(5)
C13A C -0.4299(7) 0.6808(6) 0.6074(6)
C14A C -0.5743(7) 0.5727(7) 0.3927(7)
In2_2 In 0.5000 1.0000 1.0000
C11A C -0.4315(7) 0.7985(7) 0.6048(7)
C12A C -0.5746(7) 0.6916(7) 0.3942(7)
In3_2 In 0.5000 0.0000 0.5000
C9_2 C -0.5707(7) -0.3077(7) -0.1444(7)
C10_2 C -0.7072(7) -0.2286(7) -0.2560(7)
P2A P -0.6324(2) 0.0977(2) -0.2365(2)
P1A P -0.8064(2) -0.0026(2) 0.0498(2)
O9_2 O -0.9593(5) -0.1107(5) 0.3357(4)
O11_2 O -0.8451(5) -0.1812(5) 0.4939(5)
O12_2 O -0.8770(5) -0.3012(5) 0.2632(5)
N3A_2 N -0.5045(6) 0.8045(5) 0.4990(6)
C7_2 C -0.6351(7) -0.4329(7) -0.2352(7)
C8_2 C -0.7730(7) -0.3529(7) -0.3531(7)
In1A In 0.04631(5) 0.04462(5) -0.20526(5)
O1A O -0.8787(5) -0.0423(5) -0.0890(4)
O2A_2 O -0.8924(5) -0.0679(5) 0.1153(5)
O4A O -0.7727(6) 0.1502(5) 0.1203(5)
O5A O -0.7889(5) 0.0410(5) -0.2939(5)
O7A_2 O -0.5646(5) 0.0399(5) -0.3335(5)
O8A O -0.5859(6) 0.2503(5) -0.1994(5)
In1_2 In -1.04631(5) -0.04462(5) 0.20526(5)
C6_2 C -0.7392(7) -0.4580(7) -0.3454(6)
O1_2 O -1.1213(5) 0.0423(5) 0.0890(4)
O5_2 O -1.2111(5) -0.0410(5) 0.2939(5)
O14_2 O -1.1752(6) -0.2356(5) 0.0666(5)
N1_2 N -0.9301(6) 0.1592(6) 0.3582(5)
In3_3 In -0.5000 1.0000 0.5000
In1A_2 In -0.95369(5) 0.04462(5) -0.20526(5)
C5_2 C -0.8067(7) -0.5903(7) -0.4455(7)
C3_2 C -0.8101(7) -0.6995(7) -0.4235(7)
C4_2 C -0.8686(7) -0.6088(7) -0.5720(7)
C2_2 C -0.9277(7) -0.7354(7) -0.6652(7)
C1_2 C -0.8722(7) -0.8232(7) -0.5216(7)
N1_3 N -0.9301(6) -0.8408(6) -0.6418(5)
In1_3 In -1.04631(5) -1.04462(5) -0.79474(5)
In3_4 In -0.5000 0.0000 -0.5000
P4_2 P -1.1984(3) -0.3774(2) 0.0232(2)
O13_2 O -1.1170(8) -0.4120(6) 0.1159(7)
O15_2 O -1.1859(10) -0.4328(9) -0.1115(6)
O16_2 O -1.3541(8) -0.4452(8) -0.0017(9)
O17 O -0.2984(7) -0.7256(7) 0.8997(7)
O18 O -0.0601(9) -0.6253(8) 0.1204(9)
loop_
_geom_bond_atom_site_label_1
_geom_bond_atom_site_label_2
_geom_bond_site_symmetry_1
_geom_bond_site_symmetry_2
In1 O1 1_555 1_555
In2 O3 1_555 1_555
In3 O7 1_555 1_555
P1 O1 1_555 1_555
P2 O5 1_555 1_555
P3 O9 1_555 1_555
P4 O13 1_555 1_555
O2 P1 1_555 1_555
O3 P1 1_555 1_555
O4 P1 1_555 1_555
O5 In1 1_555 1_555
O6 In2 1_555 1_555
O7 P2 1_555 1_555
O8 P2 1_555 1_555
O9 In1 1_555 1_555
O10 In3 1_555 1_555
O11 P3 1_555 1_555
O12 P3 1_555 1_555
O14 In1 1_555 1_555
O15 P4 1_555 1_555
O16 P4 1_555 1_555
N1 In1 1_555 1_555
N2 In2 1_555 1_555
N3 In3 1_555 1_555
C1 N1 1_555 1_555
C2 N1 1_555 1_555
C3 C1 1_555 1_555
C4 C2 1_555 1_555
C5 C3 1_555 1_555
C6 C5 1_555 1_555
C7 C6 1_555 1_555
C8 C6 1_555 1_555
C9 C7 1_555 1_555
C10 C8 1_555 1_555
C11 N3 1_555 1_555
C12 N3 1_555 1_555
C13 C11 1_555 1_555
C14 C12 1_555 1_555
C15 C13 1_555 1_555
O3A In2 1_555 1_555
O6A In2 1_555 1_555
N2A In2 1_555 1_555
O7A In3 1_555 1_555
O10A In3 1_555 1_555
N3A In3 1_555 1_555
O2A In1 1_555 1_555
O10_2 P3 1_555 1_555
P3_2 O10 1_555 1_555
C15A C15 1_555 1_555
N2_2 C9 1_555 1_555
C13A C15A 1_555 1_555
C14A C15A 1_555 1_555
In2_2 N2_2 1_555 1_555
C11A C13A 1_555 1_555
C12A C14A 1_555 1_555
In3_2 O10_2 1_555 1_555
C9_2 N2 1_555 1_555
C10_2 N2 1_555 1_555
P2A O6A 1_555 1_555
P1A O3A 1_555 1_555
O9_2 P3_2 1_555 1_555
O11_2 P3_2 1_555 1_555
O12_2 P3_2 1_555 1_555
N3A_2 C11A 1_555 1_555
C7_2 C9_2 1_555 1_555
C8_2 C10_2 1_555 1_555
In1A O2 1_555 1_555
O1A P1A 1_555 1_555
O2A_2 P1A 1_555 1_555
O4A P1A 1_555 1_555
O5A P2A 1_555 1_555
O7A_2 P2A 1_555 1_555
O8A P2A 1_555 1_555
In1_2 O9_2 1_555 1_555
C6_2 C7_2 1_555 1_555
O1_2 In1_2 1_555 1_555
O5_2 In1_2 1_555 1_555
O14_2 In1_2 1_555 1_555
N1_2 In1_2 1_555 1_555
In3_3 N3A_2 1_555 1_555
In1A_2 O1A 1_555 1_555
C5_2 C6_2 1_555 1_555
C3_2 C5_2 1_555 1_555
C4_2 C5_2 1_555 1_555
C2_2 C4_2 1_555 1_555
C1_2 C3_2 1_555 1_555
N1_3 C2_2 1_555 1_555
In1_3 N1_3 1_555 1_555
In3_4 O7A_2 1_555 1_555
P4_2 O14_2 1_555 1_555
O13_2 P4_2 1_555 1_555
O15_2 P4_2 1_555 1_555
O16_2 P4_2 1_555 1_555
P2 O6 1_555 1_555
P4 O14 1_555 1_555
C4 C5 1_555 1_555
C10 N2_2 1_555 1_555
C14 C15 1_555 1_555
C12A N3A_2 1_555 1_555
C8_2 C6_2 1_555 1_555
O2A_2 In1_2 1_555 1_555
O5A In1A_2 1_555 1_555
C1_2 N1_3 1_555 1_555

#END
