
#######################################################################
#
#                 Cambridge Crystallographic Data Centre
#                                CCDC 
#
#######################################################################
#
# If this CIF has been generated from an entry in the Cambridge 
# Structural Database, then it will include bibliographic, chemical, 
# crystal, experimental, refinement or atomic coordinate data resulting 
# from the CCDC's data processing and validation procedures.
#
#######################################################################

data_HIWXAN
_symmetry_cell_setting           trigonal
_symmetry_space_group_name_H-M   'P -3 c 1'
_symmetry_Int_Tables_number      165
_space_group_name_Hall           '-P 3 2"c'
loop_
_symmetry_equiv_pos_site_id
_symmetry_equiv_pos_as_xyz
1 x,y,z
2 -y,x-y,z
3 -x+y,-x,z
4 y,x,1/2-z
5 x-y,-y,1/2-z
6 -x,-x+y,1/2-z
7 -x,-y,-z
8 y,-x+y,-z
9 x-y,x,-z
10 -y,-x,1/2+z
11 -x+y,y,1/2+z
12 x,x-y,1/2+z
_cell_length_a                   14.6088(6)
_cell_length_b                   14.6088(6)
_cell_length_c                   13.5875(11)
_cell_angle_alpha                90
_cell_angle_beta                 90
_cell_angle_gamma                120
_cell_volume                     2511.3
loop_
_atom_site_label
_atom_site_type_symbol
_atom_site_fract_x
_atom_site_fract_y
_atom_site_fract_z
Cd1 Cd 0.19751(2) 1.696725(19) 0.15005(2)
Cd2 Cd 0.0000 1.0000 0.0000
O1 O 0.3333 1.6667 0.1877(4)
H1 H 0.3333 1.6667 0.2490(16)
O2 O 0.1607(2) 1.6796(2) 0.3170(2)
H2 H 0.127(4) 1.618(3) 0.348(4)
H3 H 0.122(3) 1.707(3) 0.332(4)
O3 O 0.2283(2) 1.6835(2) -0.0179(2)
H4 H 0.180(3) 1.688(4) -0.047(4)
H5 H 0.288(2) 1.738(3) -0.028(5)
N1 N 0.0380(2) 1.2568(2) 0.1149(3)
H6 H -0.022(2) 1.201(2) 0.099(3)
N2 N -0.0463(2) 1.3589(2) 0.1165(3)
N3 N -0.0130(3) 1.4620(3) 0.1265(3)
N4 N 0.0876(2) 1.5136(2) 0.1369(3)
N5 N 0.1261(2) 1.4460(2) 0.1343(3)
N6 N 0.1127(2) 1.1478(2) 0.0980(3)
N7 N 0.2111(3) 1.1625(2) 0.1088(3)
N8 N 0.2766(2) 1.2611(2) 0.1275(3)
N9 N 0.2237(2) 1.3154(2) 0.1313(3)
C1 C 0.0407(3) 1.3518(3) 0.1210(3)
C2 C 0.1231(3) 1.2425(3) 0.1141(3)
Cd1A Cd -0.696725(19) 0.500785(28) 0.15005(2)
Cd1B Cd 0.499215(28) 0.80249(2) 0.15005(2)
Cd1F Cd -0.19751(2) 0.303275(19) -0.15005(2)
Cd1G Cd 0.696725(19) 1.499215(28) -0.15005(2)
Cd1H Cd -0.499215(28) 1.19751(2) -0.15005(2)
Cd1A_2 Cd 0.303275(19) 1.500785(28) 0.15005(2)
Cd1B_2 Cd 0.499215(28) 1.80249(2) 0.15005(2)
Cd1B_3 Cd -0.500785(28) 0.80249(2) 0.15005(2)
Cd1_2 Cd 0.19751(2) 0.696725(19) 0.15005(2)
Cd1G_2 Cd -0.303275(19) 0.499215(28) -0.15005(2)
Cd1H_2 Cd 0.500785(28) 1.19751(2) -0.15005(2)
Cd1F_2 Cd -0.19751(2) 1.303275(19) -0.15005(2)
Cd1_3 Cd -0.80249(2) 0.696725(19) 0.15005(2)
O1A O -0.6667 0.6666 0.1877(4)
O1_2 O 0.3333 0.6667 0.1877(4)
O1F O -0.3333 0.3333 -0.1877(4)
O1F_2 O 0.6667 1.3333 -0.1877(4)
O1F_3 O -0.3333 1.3333 -0.1877(4)
H1A H -0.6667 0.6666 0.2490(16)
H1_2 H 0.3333 0.6667 0.2490(16)
H1F H -0.3333 0.3333 -0.2490(16)
H1F_2 H 0.6667 1.3333 -0.2490(16)
H1F_3 H -0.3333 1.3333 -0.2490(16)
O2A O -0.6796(2) 0.4811(3) 0.3170(2)
O2B O 0.5189(3) 0.8393(2) 0.3170(2)
O2F O -0.1607(2) 0.3204(2) -0.3170(2)
O2G O 0.6796(2) 1.5189(3) -0.3170(2)
O2H O -0.5189(3) 1.1607(2) -0.3170(2)
H2A H -0.618(3) 0.509(5) 0.348(4)
H2B H 0.491(5) 0.873(4) 0.348(4)
H2F H -0.127(4) 0.382(3) -0.348(4)
H2G H 0.618(3) 1.491(5) -0.348(4)
H2H H -0.491(5) 1.127(4) -0.348(4)
H3A H -0.707(3) 0.415(4) 0.332(4)
H3B H 0.585(4) 0.878(3) 0.332(4)
H3F H -0.122(3) 0.293(3) -0.332(4)
H3G H 0.707(3) 1.585(4) -0.332(4)
H3H H -0.585(4) 1.122(3) -0.332(4)
O3A O -0.6835(2) 0.5448(3) -0.0179(2)
O3B O 0.4552(3) 0.7717(2) -0.0179(2)
O3F O -0.2283(2) 0.3165(2) 0.0179(2)
O3G O 0.6835(2) 1.4552(3) 0.0179(2)
O3H O -0.4552(3) 1.2283(2) 0.0179(2)
H4A H -0.688(4) 0.492(5) -0.047(4)
H4B H 0.508(5) 0.820(3) -0.047(4)
H4F H -0.180(3) 0.312(4) 0.047(4)
H4G H 0.688(4) 1.508(5) 0.047(4)
H4H H -0.508(5) 1.180(3) 0.047(4)
H5A H -0.738(3) 0.550(4) -0.028(5)
H5B H 0.450(4) 0.712(2) -0.028(5)
H5F H -0.288(2) 0.262(3) 0.028(5)
H5G H 0.738(3) 1.450(4) 0.028(5)
H5H H -0.450(4) 1.288(2) 0.028(5)
N1A N -0.2568(2) 0.7812(3) 0.1149(3)
N1B N 0.2188(3) 0.9620(2) 0.1149(3)
N1F N -0.0380(2) 0.7432(2) -0.1149(3)
N1G N 0.2568(2) 1.2188(3) -0.1149(3)
N1H N -0.2188(3) 1.0380(2) -0.1149(3)
H6A H -0.201(2) 0.777(3) 0.099(3)
H6B H 0.223(3) 1.022(2) 0.099(3)
H6F H 0.022(2) 0.799(2) -0.099(3)
H6G H 0.201(2) 1.223(3) -0.099(3)
H6H H -0.223(3) 0.978(2) -0.099(3)
N2A N -0.3589(2) 0.5948(3) 0.1165(3)
N2B N 0.4052(3) 1.0463(2) 0.1165(3)
N2F N 0.0463(2) 0.6411(2) -0.1165(3)
N2G N 0.3589(2) 1.4052(3) -0.1165(3)
N2H N -0.4052(3) 0.9537(2) -0.1165(3)
N3A N -0.4620(3) 0.5250(4) 0.1265(3)
N3B N 0.4750(4) 1.0130(3) 0.1265(3)
N3F N 0.0130(3) 0.5380(3) -0.1265(3)
N3G N 0.4620(3) 1.4750(4) -0.1265(3)
N3H N -0.4750(4) 0.9870(3) -0.1265(3)
N4A N -0.5136(2) 0.5740(3) 0.1369(3)
N4B N 0.4260(3) 0.9124(2) 0.1369(3)
N4F N -0.0876(2) 0.4864(2) -0.1369(3)
N4G N 0.5136(2) 1.4260(3) -0.1369(3)
N4H N -0.4260(3) 1.0876(2) -0.1369(3)
N5A N -0.4460(2) 0.6801(3) 0.1343(3)
N5B N 0.3199(3) 0.8739(2) 0.1343(3)
N5F N -0.1261(2) 0.5540(2) -0.1343(3)
N5G N 0.4460(2) 1.3199(3) -0.1343(3)
N5H N -0.3199(3) 1.1261(2) -0.1343(3)
N5B_2 N 0.3199(3) 1.8739(2) 0.1343(3)
N5_2 N -0.8739(2) 0.4460(2) 0.1343(3)
N5A_2 N 0.5540(2) 0.6801(3) 0.1343(3)
N5H_2 N -0.3199(3) 0.1261(2) -0.1343(3)
N5F_2 N 0.8739(2) 1.5540(2) -0.1343(3)
N5G_2 N -0.5540(2) 1.3199(3) -0.1343(3)
N6A N -0.1478(2) 0.9649(3) 0.0980(3)
N6B N 0.0351(3) 0.8873(2) 0.0980(3)
N6F N -0.1127(2) 0.8522(2) -0.0980(3)
N6G N 0.1478(2) 1.0351(3) -0.0980(3)
N6H N -0.0351(3) 1.1127(2) -0.0980(3)
N7A N -0.1625(2) 1.0486(4) 0.1088(3)
N7B N -0.0486(4) 0.7889(3) 0.1088(3)
N7F N -0.2111(3) 0.8375(2) -0.1088(3)
N7G N 0.1625(2) 0.9514(4) -0.1088(3)
N7H N 0.0486(4) 1.2111(3) -0.1088(3)
N8A N -0.2611(2) 1.0155(3) 0.1275(3)
N8B N -0.0155(3) 0.7234(2) 0.1275(3)
N8F N -0.2766(2) 0.7389(2) -0.1275(3)
N8G N 0.2611(2) 0.9845(3) -0.1275(3)
N8H N 0.0155(3) 1.2766(2) -0.1275(3)
N9A N -0.3154(2) 0.9083(3) 0.1313(3)
N9B N 0.0917(3) 0.7763(2) 0.1313(3)
N9F N -0.2237(2) 0.6846(2) -0.1313(3)
N9G N 0.3154(2) 1.0917(3) -0.1313(3)
N9H N -0.0917(3) 1.2237(2) -0.1313(3)
N9B_2 N 0.0917(3) 1.7763(2) 0.1313(3)
N9_2 N -0.7763(2) 0.3154(2) 0.1313(3)
N9A_2 N 0.6846(2) 0.9083(3) 0.1313(3)
N9H_2 N -0.0917(3) 0.2237(2) -0.1313(3)
N9F_2 N 0.7763(2) 1.6846(2) -0.1313(3)
N9G_2 N -0.6846(2) 1.0917(3) -0.1313(3)
C1A C -0.3518(3) 0.6889(4) 0.1210(3)
C1B C 0.3111(4) 0.9593(3) 0.1210(3)
C1F C -0.0407(3) 0.6482(3) -0.1210(3)
C1G C 0.3518(3) 1.3111(4) -0.1210(3)
C1H C -0.3111(4) 1.0407(3) -0.1210(3)
C2A C -0.2425(3) 0.8806(4) 0.1141(3)
C2B C 0.1194(4) 0.8769(3) 0.1141(3)
C2F C -0.1231(3) 0.7575(3) -0.1141(3)
C2G C 0.2425(3) 1.1194(4) -0.1141(3)
C2H C -0.1194(4) 1.1231(3) -0.1141(3)
loop_
_geom_bond_atom_site_label_1
_geom_bond_atom_site_label_2
_geom_bond_site_symmetry_1
_geom_bond_site_symmetry_2
Cd1 O1 1_555 1_555
Cd2 N6 1_555 1_555
O1 H1 1_555 1_555
O2 Cd1 1_555 1_555
H2 O2 1_555 1_555
H3 O2 1_555 1_555
O3 Cd1 1_555 1_555
H4 O3 1_555 1_555
H5 O3 1_555 1_555
N1 H6 1_555 1_555
N2 N3 1_555 1_555
N3 N4 1_555 1_555
N4 Cd1 1_555 1_555
N5 N4 1_555 1_555
N6 N7 1_555 1_555
N7 N8 1_555 1_555
N8 N9 1_555 1_555
N9 C2 1_555 1_555
C1 N1 1_555 1_555
C2 N1 1_555 1_555
Cd1A O1A 1_555 1_555
Cd1B O1_2 1_555 1_555
Cd1F O1F 1_555 1_555
Cd1G O1F_2 1_555 1_555
Cd1H O1F_3 1_555 1_555
Cd1A_2 O1 1_555 1_555
Cd1B_2 O1 1_555 1_555
Cd1B_3 O1A 1_555 1_555
Cd1_2 O1_2 1_555 1_555
Cd1G_2 O1F 1_555 1_555
Cd1H_2 O1F_2 1_555 1_555
Cd1F_2 O1F_3 1_555 1_555
Cd1_3 O1A 1_555 1_555
O1A H1A 1_555 1_555
O1_2 H1_2 1_555 1_555
O1F H1F 1_555 1_555
O1F_2 H1F_2 1_555 1_555
O1F_3 H1F_3 1_555 1_555
O2A Cd1A 1_555 1_555
O2B Cd1B 1_555 1_555
O2F Cd1F 1_555 1_555
O2G Cd1G 1_555 1_555
O2H Cd1H 1_555 1_555
H2A O2A 1_555 1_555
H2B O2B 1_555 1_555
H2F O2F 1_555 1_555
H2G O2G 1_555 1_555
H2H O2H 1_555 1_555
H3A O2A 1_555 1_555
H3B O2B 1_555 1_555
H3F O2F 1_555 1_555
H3G O2G 1_555 1_555
H3H O2H 1_555 1_555
O3A Cd1A 1_555 1_555
O3B Cd1B 1_555 1_555
O3F Cd1F 1_555 1_555
O3G Cd1G 1_555 1_555
O3H Cd1H 1_555 1_555
H4A O3A 1_555 1_555
H4B O3B 1_555 1_555
H4F O3F 1_555 1_555
H4G O3G 1_555 1_555
H4H O3H 1_555 1_555
H5A O3A 1_555 1_555
H5B O3B 1_555 1_555
H5F O3F 1_555 1_555
H5G O3G 1_555 1_555
H5H O3H 1_555 1_555
N1A H6A 1_555 1_555
N1B H6B 1_555 1_555
N1F H6F 1_555 1_555
N1G H6G 1_555 1_555
N1H H6H 1_555 1_555
N2A N3A 1_555 1_555
N2B N3B 1_555 1_555
N2F N3F 1_555 1_555
N2G N3G 1_555 1_555
N2H N3H 1_555 1_555
N3A N4A 1_555 1_555
N3B N4B 1_555 1_555
N3F N4F 1_555 1_555
N3G N4G 1_555 1_555
N3H N4H 1_555 1_555
N4A Cd1A 1_555 1_555
N4B Cd1B 1_555 1_555
N4F Cd1F 1_555 1_555
N4G Cd1G 1_555 1_555
N4H Cd1H 1_555 1_555
N5A Cd1B_3 1_555 1_555
N5B Cd1_2 1_555 1_555
N5F Cd1G_2 1_555 1_555
N5G Cd1H_2 1_555 1_555
N5H Cd1F_2 1_555 1_555
N5B_2 Cd1 1_555 1_555
N5_2 Cd1A 1_555 1_555
N5A_2 Cd1B 1_555 1_555
N5H_2 Cd1F 1_555 1_555
N5F_2 Cd1G 1_555 1_555
N5G_2 Cd1H 1_555 1_555
N6A Cd2 1_555 1_555
N6B Cd2 1_555 1_555
N6F Cd2 1_555 1_555
N6G Cd2 1_555 1_555
N6H Cd2 1_555 1_555
N7A N6A 1_555 1_555
N7B N6B 1_555 1_555
N7F N6F 1_555 1_555
N7G N6G 1_555 1_555
N7H N6H 1_555 1_555
N8A N7A 1_555 1_555
N8B N7B 1_555 1_555
N8F N7F 1_555 1_555
N8G N7G 1_555 1_555
N8H N7H 1_555 1_555
N9A Cd1B_3 1_555 1_555
N9B Cd1_2 1_555 1_555
N9F Cd1G_2 1_555 1_555
N9G Cd1H_2 1_555 1_555
N9H Cd1F_2 1_555 1_555
N9B_2 Cd1 1_555 1_555
N9_2 Cd1A 1_555 1_555
N9A_2 Cd1B 1_555 1_555
N9H_2 Cd1F 1_555 1_555
N9F_2 Cd1G 1_555 1_555
N9G_2 Cd1H 1_555 1_555
C1A N1A 1_555 1_555
C1B N1B 1_555 1_555
C1F N1F 1_555 1_555
C1G N1G 1_555 1_555
C1H N1H 1_555 1_555
C2A N1A 1_555 1_555
C2B N1B 1_555 1_555
C2F N1F 1_555 1_555
C2G N1G 1_555 1_555
C2H N1H 1_555 1_555
N2 C1 1_555 1_555
N5 C1 1_555 1_555
N5 Cd1A_2 1_555 1_555
N6 C2 1_555 1_555
N9 Cd1A_2 1_555 1_555
N2A C1A 1_555 1_555
N2B C1B 1_555 1_555
N2F C1F 1_555 1_555
N2G C1G 1_555 1_555
N2H C1H 1_555 1_555
N4A N5A 1_555 1_555
N4B N5B 1_555 1_555
N4F N5F 1_555 1_555
N4G N5G 1_555 1_555
N4H N5H 1_555 1_555
N5A C1A 1_555 1_555
N5B C1B 1_555 1_555
N5F C1F 1_555 1_555
N5G C1G 1_555 1_555
N5H C1H 1_555 1_555
N6A C2A 1_555 1_555
N6B C2B 1_555 1_555
N6F C2F 1_555 1_555
N6G C2G 1_555 1_555
N6H C2H 1_555 1_555
N8A N9A 1_555 1_555
N8B N9B 1_555 1_555
N8F N9F 1_555 1_555
N8G N9G 1_555 1_555
N8H N9H 1_555 1_555
N9A C2A 1_555 1_555
N9B C2B 1_555 1_555
N9F C2F 1_555 1_555
N9G C2G 1_555 1_555
N9H C2H 1_555 1_555

#END
