
#######################################################################
#
#                 Cambridge Crystallographic Data Centre
#                                CCDC 
#
#######################################################################
#
# If this CIF has been generated from an entry in the Cambridge 
# Structural Database, then it will include bibliographic, chemical, 
# crystal, experimental, refinement or atomic coordinate data resulting 
# from the CCDC's data processing and validation procedures.
#
#######################################################################

data_HIWXIV
_symmetry_cell_setting           monoclinic
_symmetry_space_group_name_H-M   'P 21/c'
_symmetry_Int_Tables_number      14
_space_group_name_Hall           '-P 2ybc'
loop_
_symmetry_equiv_pos_site_id
_symmetry_equiv_pos_as_xyz
1 x,y,z
2 -x,1/2+y,1/2-z
3 -x,-y,-z
4 x,1/2-y,1/2+z
_cell_length_a                   4.5354(9)
_cell_length_b                   11.040(2)
_cell_length_c                   13.342(3)
_cell_angle_alpha                90
_cell_angle_beta                 99.40(3)
_cell_angle_gamma                90
_cell_volume                     659.074
loop_
_atom_site_label
_atom_site_type_symbol
_atom_site_fract_x
_atom_site_fract_y
_atom_site_fract_z
Li1 Li 0.2090(13) 0.5522(4) 0.4191(4)
B1 B 0.2600(10) 0.3672(3) 0.5282(3)
H1 H 0.283(7) 0.465(3) 0.558(2)
H2 H 0.084(6) 0.325(2) 0.5665(19)
H3 H 0.497(7) 0.320(2) 0.5459(19)
H4 H 0.196(8) 0.374(3) 0.449(3)
O1 O 0.1828(5) 0.54023(15) 0.27330(13)
C1 C 0.2295(10) 0.6460(3) 0.2159(2)
H5 H 0.3922 0.6939 0.2521
H6 H 0.0504 0.6955 0.2050
C2 C 0.3020(12) 0.6050(3) 0.1190(3)
H7 H 0.1302 0.6136 0.0657
H8 H 0.4656 0.6523 0.1007
C3 C 0.3866(11) 0.4793(3) 0.1322(3)
H9 H 0.6005 0.4704 0.1347
H10 H 0.2851 0.4314 0.0760
C4 C 0.3016(10) 0.4389(3) 0.2266(3)
H11 H 0.1526 0.3754 0.2135
H12 H 0.4744 0.4068 0.2712
Li1B Li -0.2090(13) 0.4478(4) 0.5809(4)
Li1B_2 Li 0.7910(13) 0.4478(4) 0.5809(4)
H1B H -0.283(7) 0.535(3) 0.442(2)
H1B_2 H 0.717(7) 0.535(3) 0.442(2)
H1_2 H -0.717(7) 0.465(3) 0.558(2)
H1_3 H 1.283(7) 0.465(3) 0.558(2)
H2B H -0.084(6) 0.675(2) 0.4335(19)
H2_2 H 1.084(6) 0.325(2) 0.5665(19)
H3B H 0.503(7) 0.680(2) 0.4541(19)
H3_2 H -0.503(7) 0.320(2) 0.5459(19)
H4B H -0.196(8) 0.626(3) 0.551(3)
H4B_2 H 0.804(8) 0.626(3) 0.551(3)
loop_
_geom_bond_atom_site_label_1
_geom_bond_atom_site_label_2
_geom_bond_site_symmetry_1
_geom_bond_site_symmetry_2
Li1 H1 1_555 1_555
B1 H1 1_555 1_555
H1 Li1B 1_555 1_555
H2 B1 1_555 1_555
H3 B1 1_555 1_555
H4 Li1 1_555 1_555
O1 Li1 1_555 1_555
C1 O1 1_555 1_555
H5 C1 1_555 1_555
H6 C1 1_555 1_555
C2 C1 1_555 1_555
H7 C2 1_555 1_555
H8 C2 1_555 1_555
C3 C2 1_555 1_555
H9 C3 1_555 1_555
H10 C3 1_555 1_555
C4 O1 1_555 1_555
H11 C4 1_555 1_555
H12 C4 1_555 1_555
Li1B H2 1_555 1_555
Li1B_2 H1 1_555 1_555
H1B Li1 1_555 1_555
H1B_2 Li1 1_555 1_555
H1_2 Li1B 1_555 1_555
H1_3 Li1B_2 1_555 1_555
H2B Li1 1_555 1_555
H2_2 Li1B_2 1_555 1_555
H3B Li1 1_555 1_555
H3_2 Li1B 1_555 1_555
H4B Li1B 1_555 1_555
H4B_2 Li1B_2 1_555 1_555
B1 H4 1_555 1_555
H3 Li1B_2 1_555 1_555
C3 C4 1_555 1_555
Li1B H1B 1_555 1_555
Li1B_2 H1B_2 1_555 1_555

#END
