
#######################################################################
#
#                 Cambridge Crystallographic Data Centre
#                                CCDC 
#
#######################################################################
#
# If this CIF has been generated from an entry in the Cambridge 
# Structural Database, then it will include bibliographic, chemical, 
# crystal, experimental, refinement or atomic coordinate data resulting 
# from the CCDC's data processing and validation procedures.
#
#######################################################################

data_HIWXAN01
_symmetry_cell_setting           trigonal
_symmetry_space_group_name_H-M   'P -3 c 1'
_symmetry_Int_Tables_number      165
_space_group_name_Hall           '-P 3 2"c'
loop_
_symmetry_equiv_pos_site_id
_symmetry_equiv_pos_as_xyz
1 x,y,z
2 -y,x-y,z
3 -x+y,-x,z
4 y,x,1/2-z
5 x-y,-y,1/2-z
6 -x,-x+y,1/2-z
7 -x,-y,-z
8 y,-x+y,-z
9 x-y,x,-z
10 -y,-x,1/2+z
11 -x+y,y,1/2+z
12 x,x-y,1/2+z
_cell_length_a                   14.6130(3)
_cell_length_b                   14.6130(3)
_cell_length_c                   13.6080(4)
_cell_angle_alpha                90
_cell_angle_beta                 90
_cell_angle_gamma                120
_cell_volume                     2516.54
loop_
_atom_site_label
_atom_site_type_symbol
_atom_site_fract_x
_atom_site_fract_y
_atom_site_fract_z
Cd1 Cd 0.499277(17) 0.802344(17) 0.349804(18)
Cd2 Cd 1.0000 1.0000 0.5000
N1 N 0.55354(18) 0.68008(18) 0.3652(2)
N2 N 0.48564(19) 0.57404(19) 0.36280(19)
N3 N 0.53835(19) 0.5247(2) 0.3730(2)
N4 N 0.6420(2) 0.59501(19) 0.3824(2)
N5 N 0.74282(19) 0.78060(19) 0.3847(2)
H1 H 0.7983(19) 0.778(3) 0.391(3)
N6 N 0.68432(18) 0.90792(19) 0.36791(19)
N7 N 0.73908(19) 1.01578(19) 0.3724(2)
N8 N 0.83767(19) 1.04881(19) 0.3910(2)
N9 N 0.85267(17) 0.96512(19) 0.4017(2)
C1 C 0.6480(2) 0.6887(2) 0.3774(2)
C2 C 0.7570(2) 0.8808(2) 0.3856(2)
O1 O 0.3333 0.6667 0.3124(3)
H2 H 0.3333 0.6667 0.2549(15)
O2 O 0.51881(18) 0.83828(18) 0.18249(18)
H3 H 0.581(3) 0.877(3) 0.166(3)
H4 H 0.492(3) 0.868(3) 0.167(3)
O3 O 0.4554(2) 0.77156(19) 0.5172(2)
H5 H 0.453(3) 0.722(3) 0.537(3)
H6 H 0.504(3) 0.817(3) 0.550(3)
Cd1A Cd 1.197656(17) 0.696933(24) 0.349804(18)
Cd1B Cd 1.303067(24) 1.500723(17) 0.349804(18)
Cd1F Cd 1.500723(17) 1.197656(17) 0.650196(18)
Cd1G Cd 0.802344(17) 1.303067(24) 0.650196(18)
Cd1H Cd 0.696933(24) 0.499277(17) 0.650196(18)
Cd1B_2 Cd 0.303067(24) 0.500723(17) 0.349804(18)
Cd1A_2 Cd 0.197656(17) 0.696933(24) 0.349804(18)
Cd1_2 Cd 1.499277(17) 0.802344(17) 0.349804(18)
Cd1A_3 Cd 1.197656(17) 1.696933(24) 0.349804(18)
Cd1H_2 Cd 1.696933(24) 1.499277(17) 0.650196(18)
Cd1F_2 Cd 0.500723(17) 1.197656(17) 0.650196(18)
Cd1G_2 Cd 0.802344(17) 0.303067(24) 0.650196(18)
Cd1B_3 Cd 1.303067(24) 0.500723(17) 0.349804(18)
N1A N 1.31992(18) 0.87346(25) 0.3652(2)
N1B N 1.12654(25) 1.44646(18) 0.3652(2)
N1F N 1.44646(18) 1.31992(18) 0.6348(2)
N1G N 0.68008(18) 1.12654(25) 0.6348(2)
N1H N 0.87346(25) 0.55354(18) 0.6348(2)
N2A N 1.42596(19) 0.91160(27) 0.36280(19)
N2B N 1.08840(27) 1.51436(19) 0.36280(19)
N2F N 1.51436(19) 1.42596(19) 0.63720(19)
N2G N 0.57404(19) 1.08840(27) 0.63720(19)
N2H N 0.91160(27) 0.48564(19) 0.63720(19)
N2A_2 N 0.42596(19) 0.91160(27) 0.36280(19)
N2B_2 N 1.08840(27) 0.51436(19) 0.36280(19)
N2_2 N 1.48564(19) 1.57404(19) 0.36280(19)
N2G_2 N 1.57404(19) 1.08840(27) 0.63720(19)
N2H_2 N 0.91160(27) 1.48564(19) 0.63720(19)
N2F_2 N 0.51436(19) 0.42596(19) 0.63720(19)
N3A N 1.4753(2) 1.01365(28) 0.3730(2)
N3B N 0.98635(28) 1.46165(19) 0.3730(2)
N3F N 1.46165(19) 1.4753(2) 0.6270(2)
N3G N 0.5247(2) 0.98635(28) 0.6270(2)
N3H N 1.01365(28) 0.53835(19) 0.6270(2)
N4A N 1.40499(19) 1.04699(28) 0.3824(2)
N4B N 0.95301(28) 1.3580(2) 0.3824(2)
N4F N 1.3580(2) 1.40499(19) 0.6176(2)
N4G N 0.59501(19) 0.95301(28) 0.6176(2)
N4H N 1.04699(28) 0.6420(2) 0.6176(2)
N5A N 1.21940(19) 0.96222(27) 0.3847(2)
N5B N 1.03778(27) 1.25718(19) 0.3847(2)
N5F N 1.25718(19) 1.21940(19) 0.6153(2)
N5G N 0.78060(19) 1.03778(27) 0.6153(2)
N5H N 0.96222(27) 0.74282(19) 0.6153(2)
H1A H 1.222(3) 1.0203(36) 0.391(3)
H1B H 0.9797(36) 1.2017(19) 0.391(3)
H1F H 1.2017(19) 1.222(3) 0.609(3)
H1G H 0.778(3) 0.9797(36) 0.609(3)
H1H H 1.0203(36) 0.7983(19) 0.609(3)
N6A N 1.09208(19) 0.77640(26) 0.36791(19)
N6B N 1.22360(26) 1.31568(18) 0.36791(19)
N6F N 1.31568(18) 1.09208(19) 0.63209(19)
N6G N 0.90792(19) 1.22360(26) 0.63209(19)
N6H N 0.77640(26) 0.68432(18) 0.63209(19)
N7A N 0.98422(19) 0.72330(27) 0.3724(2)
N7B N 1.27670(27) 1.26092(19) 0.3724(2)
N7F N 1.26092(19) 0.98422(19) 0.6276(2)
N7G N 1.01578(19) 1.27670(27) 0.6276(2)
N7H N 0.72330(27) 0.73908(19) 0.6276(2)
N8A N 0.95119(19) 0.78886(27) 0.3910(2)
N8B N 1.21114(27) 1.16233(19) 0.3910(2)
N8F N 1.16233(19) 0.95119(19) 0.6090(2)
N8G N 1.04881(19) 1.21114(27) 0.6090(2)
N8H N 0.78886(27) 0.83767(19) 0.6090(2)
N9A N 1.03488(19) 0.88755(25) 0.4017(2)
N9B N 1.11245(25) 1.14733(17) 0.4017(2)
N9F N 1.14733(17) 1.03488(19) 0.5983(2)
N9G N 0.96512(19) 1.11245(25) 0.5983(2)
N9H N 0.88755(25) 0.85267(17) 0.5983(2)
C1A C 1.3113(2) 0.9593(3) 0.3774(2)
C1B C 1.0407(3) 1.3520(2) 0.3774(2)
C1F C 1.3520(2) 1.3113(2) 0.6226(2)
C1G C 0.6887(2) 1.0407(3) 0.6226(2)
C1H C 0.9593(3) 0.6480(2) 0.6226(2)
C2A C 1.1192(2) 0.8762(3) 0.3856(2)
C2B C 1.1238(3) 1.2430(2) 0.3856(2)
C2F C 1.2430(2) 1.1192(2) 0.6144(2)
C2G C 0.8808(2) 1.1238(3) 0.6144(2)
C2H C 0.8762(3) 0.7570(2) 0.6144(2)
O1A O 1.3333 0.6666 0.3124(3)
O1_2 O 1.3333 1.6667 0.3124(3)
O1F O 1.6667 1.3333 0.6876(3)
O1F_2 O 0.6667 1.3333 0.6876(3)
O1F_3 O 0.6667 0.3333 0.6876(3)
H2A H 1.3333 0.6666 0.2549(15)
H2_2 H 1.3333 1.6667 0.2549(15)
H2F H 1.6667 1.3333 0.7451(15)
H2F_2 H 0.6667 1.3333 0.7451(15)
H2F_3 H 0.6667 0.3333 0.7451(15)
O2A O 1.16172(18) 0.68053(25) 0.18249(18)
O2B O 1.31947(25) 1.48119(18) 0.18249(18)
O2F O 1.48119(18) 1.16172(18) 0.81751(18)
O2G O 0.83828(18) 1.31947(25) 0.81751(18)
O2H O 0.68053(25) 0.51881(18) 0.81751(18)
H3A H 1.123(3) 0.704(4) 0.166(3)
H3B H 1.296(4) 1.419(3) 0.166(3)
H3F H 1.419(3) 1.123(3) 0.834(3)
H3G H 0.877(3) 1.296(4) 0.834(3)
H3H H 0.704(4) 0.581(3) 0.834(3)
H4A H 1.132(3) 0.624(4) 0.167(3)
H4B H 1.376(4) 1.508(3) 0.167(3)
H4F H 1.508(3) 1.132(3) 0.833(3)
H4G H 0.868(3) 1.376(4) 0.833(3)
H4H H 0.624(4) 0.492(3) 0.833(3)
O3A O 1.22844(19) 0.68384(28) 0.5172(2)
O3B O 1.31616(28) 1.5446(2) 0.5172(2)
O3F O 1.5446(2) 1.22844(19) 0.4828(2)
O3G O 0.77156(19) 1.31616(28) 0.4828(2)
O3H O 0.68384(28) 0.4554(2) 0.4828(2)
H5A H 1.278(3) 0.731(4) 0.537(3)
H5B H 1.269(4) 1.547(3) 0.537(3)
H5F H 1.547(3) 1.278(3) 0.463(3)
H5G H 0.722(3) 1.269(4) 0.463(3)
H5H H 0.731(4) 0.453(3) 0.463(3)
H6A H 1.183(3) 0.687(4) 0.550(3)
H6B H 1.313(4) 1.496(3) 0.550(3)
H6F H 1.496(3) 1.183(3) 0.450(3)
H6G H 0.817(3) 1.313(4) 0.450(3)
H6H H 0.687(4) 0.504(3) 0.450(3)
loop_
_geom_bond_atom_site_label_1
_geom_bond_atom_site_label_2
_geom_bond_site_symmetry_1
_geom_bond_site_symmetry_2
Cd1 N1 1_555 1_555
Cd2 N9 1_555 1_555
N1 N2 1_555 1_555
N2 N3 1_555 1_555
N3 N4 1_555 1_555
N4 C1 1_555 1_555
N5 H1 1_555 1_555
N6 Cd1 1_555 1_555
N7 N6 1_555 1_555
N8 N7 1_555 1_555
N9 N8 1_555 1_555
C1 N1 1_555 1_555
C2 N5 1_555 1_555
O1 Cd1 1_555 1_555
H2 O1 1_555 1_555
O2 Cd1 1_555 1_555
H3 O2 1_555 1_555
H4 O2 1_555 1_555
O3 Cd1 1_555 1_555
H5 O3 1_555 1_555
H6 O3 1_555 1_555
Cd1A N1A 1_555 1_555
Cd1B N1B 1_555 1_555
Cd1F N1F 1_555 1_555
Cd1G N1G 1_555 1_555
Cd1H N1H 1_555 1_555
Cd1B_2 N2 1_555 1_555
Cd1A_2 O1 1_555 1_555
Cd1_2 N2A 1_555 1_555
Cd1A_3 N2B 1_555 1_555
Cd1H_2 N2F 1_555 1_555
Cd1F_2 N2G 1_555 1_555
Cd1G_2 N2H 1_555 1_555
Cd1B_3 O1A 1_555 1_555
N1A N2A 1_555 1_555
N1B N2B 1_555 1_555
N1F N2F 1_555 1_555
N1G N2G 1_555 1_555
N1H N2H 1_555 1_555
N2A N3A 1_555 1_555
N2B N3B 1_555 1_555
N2F N3F 1_555 1_555
N2G N3G 1_555 1_555
N2H N3H 1_555 1_555
N2A_2 Cd1 1_555 1_555
N2B_2 Cd1A 1_555 1_555
N2_2 Cd1B 1_555 1_555
N2G_2 Cd1F 1_555 1_555
N2H_2 Cd1G 1_555 1_555
N2F_2 Cd1H 1_555 1_555
N3A N4A 1_555 1_555
N3B N4B 1_555 1_555
N3F N4F 1_555 1_555
N3G N4G 1_555 1_555
N3H N4H 1_555 1_555
N4A C1A 1_555 1_555
N4B C1B 1_555 1_555
N4F C1F 1_555 1_555
N4G C1G 1_555 1_555
N4H C1H 1_555 1_555
N5A H1A 1_555 1_555
N5B H1B 1_555 1_555
N5F H1F 1_555 1_555
N5G H1G 1_555 1_555
N5H H1H 1_555 1_555
N6A Cd1A 1_555 1_555
N6B Cd1B 1_555 1_555
N6F Cd1F 1_555 1_555
N6G Cd1G 1_555 1_555
N6H Cd1H 1_555 1_555
N7A N6A 1_555 1_555
N7B N6B 1_555 1_555
N7F N6F 1_555 1_555
N7G N6G 1_555 1_555
N7H N6H 1_555 1_555
N8A N7A 1_555 1_555
N8B N7B 1_555 1_555
N8F N7F 1_555 1_555
N8G N7G 1_555 1_555
N8H N7H 1_555 1_555
N9A Cd2 1_555 1_555
N9B Cd2 1_555 1_555
N9F Cd2 1_555 1_555
N9G Cd2 1_555 1_555
N9H Cd2 1_555 1_555
C1A N1A 1_555 1_555
C1B N1B 1_555 1_555
C1F N1F 1_555 1_555
C1G N1G 1_555 1_555
C1H N1H 1_555 1_555
C2A N5A 1_555 1_555
C2B N5B 1_555 1_555
C2F N5F 1_555 1_555
C2G N5G 1_555 1_555
C2H N5H 1_555 1_555
O1A Cd1A 1_555 1_555
O1_2 Cd1B 1_555 1_555
O1F Cd1F 1_555 1_555
O1F_2 Cd1G 1_555 1_555
O1F_3 Cd1H 1_555 1_555
H2A O1A 1_555 1_555
H2_2 O1_2 1_555 1_555
H2F O1F 1_555 1_555
H2F_2 O1F_2 1_555 1_555
H2F_3 O1F_3 1_555 1_555
O2A Cd1A 1_555 1_555
O2B Cd1B 1_555 1_555
O2F Cd1F 1_555 1_555
O2G Cd1G 1_555 1_555
O2H Cd1H 1_555 1_555
H3A O2A 1_555 1_555
H3B O2B 1_555 1_555
H3F O2F 1_555 1_555
H3G O2G 1_555 1_555
H3H O2H 1_555 1_555
H4A O2A 1_555 1_555
H4B O2B 1_555 1_555
H4F O2F 1_555 1_555
H4G O2G 1_555 1_555
H4H O2H 1_555 1_555
O3A Cd1A 1_555 1_555
O3B Cd1B 1_555 1_555
O3F Cd1F 1_555 1_555
O3G Cd1G 1_555 1_555
O3H Cd1H 1_555 1_555
H5A O3A 1_555 1_555
H5B O3B 1_555 1_555
H5F O3F 1_555 1_555
H5G O3G 1_555 1_555
H5H O3H 1_555 1_555
H6A O3A 1_555 1_555
H6B O3B 1_555 1_555
H6F O3F 1_555 1_555
H6G O3G 1_555 1_555
H6H O3H 1_555 1_555
N5 C1 1_555 1_555
N6 C2 1_555 1_555
N9 C2 1_555 1_555
O1 Cd1B_2 1_555 1_555
Cd1_2 O1A 1_555 1_555
Cd1A_3 O1_2 1_555 1_555
Cd1H_2 O1F 1_555 1_555
Cd1F_2 O1F_2 1_555 1_555
Cd1G_2 O1F_3 1_555 1_555
N5A C1A 1_555 1_555
N5B C1B 1_555 1_555
N5F C1F 1_555 1_555
N5G C1G 1_555 1_555
N5H C1H 1_555 1_555
N6A C2A 1_555 1_555
N6B C2B 1_555 1_555
N6F C2F 1_555 1_555
N6G C2G 1_555 1_555
N6H C2H 1_555 1_555
N8A N9A 1_555 1_555
N8B N9B 1_555 1_555
N8F N9F 1_555 1_555
N8G N9G 1_555 1_555
N8H N9H 1_555 1_555
N9A C2A 1_555 1_555
N9B C2B 1_555 1_555
N9F C2F 1_555 1_555
N9G C2G 1_555 1_555
N9H C2H 1_555 1_555

#END
