
#######################################################################
#
#                 Cambridge Crystallographic Data Centre
#                                CCDC 
#
#######################################################################
#
# If this CIF has been generated from an entry in the Cambridge 
# Structural Database, then it will include bibliographic, chemical, 
# crystal, experimental, refinement or atomic coordinate data resulting 
# from the CCDC's data processing and validation procedures.
#
#######################################################################

data_HIWZOD
_symmetry_cell_setting           monoclinic
_symmetry_space_group_name_H-M   'P 21'
_symmetry_Int_Tables_number      4
_space_group_name_Hall           'P 2yb'
loop_
_symmetry_equiv_pos_site_id
_symmetry_equiv_pos_as_xyz
1 x,y,z
2 -x,1/2+y,-z
_cell_length_a                   11.5302(5)
_cell_length_b                   14.3647(5)
_cell_length_c                   14.6638(6)
_cell_angle_alpha                90
_cell_angle_beta                 90.042(1)
_cell_angle_gamma                90
_cell_volume                     2428.73
loop_
_atom_site_label
_atom_site_type_symbol
_atom_site_fract_x
_atom_site_fract_y
_atom_site_fract_z
Na1 Na 0.75001(10) 0.10836(8) 0.73874(6)
Na2 Na 0.75006(8) 0.57216(7) 0.78732(6)
Na3 Na 0.74996(7) 0.09295(7) 1.20509(6)
Na4 Na 1.25003(8) 0.13030(7) 0.66083(6)
B1 B 1.0438(3) 0.1101(3) 0.7367(2)
H1 H 0.954(3) 0.109(2) 0.7586(19)
H2 H 1.044(4) 0.148(4) 0.669(3)
H3 H 1.110(3) 0.139(3) 0.784(3)
H4 H 1.077(4) 0.044(4) 0.723(3)
B2 B 0.4559(3) 0.1100(3) 0.7369(2)
H5 H 0.542(3) 0.107(2) 0.7573(19)
H6 H 0.449(4) 0.152(4) 0.669(3)
H7 H 0.396(4) 0.156(4) 0.782(3)
H8 H 0.420(4) 0.045(4) 0.718(3)
B3 B 0.4991(2) 0.6107(2) 0.76915(19)
H9 H 0.436(2) 0.6137(19) 0.7119(16)
H10 H 0.566(2) 0.663(2) 0.7657(16)
H11 H 0.546(2) 0.5448(18) 0.7738(16)
H12 H 0.449(2) 0.619(2) 0.8338(18)
B4 B 1.0010(2) 0.6106(2) 0.76930(18)
H13 H 1.061(2) 0.6154(19) 0.7099(16)
H14 H 0.934(3) 0.663(2) 0.764(2)
H15 H 1.051(2) 0.624(2) 0.8327(17)
H16 H 0.954(3) 0.543(2) 0.770(2)
N1 N 0.7500(3) -0.19813(18) 0.62269(16)
H17 H 0.751(3) -0.247(2) 0.649(2)
N2 N 0.7505(2) 0.25558(18) 0.44321(17)
H18 H 0.751(3) 0.227(2) 0.392(2)
N3 N 0.7500(2) 0.41723(16) 0.86861(14)
H19 H 0.750(3) 0.441(2) 0.927(2)
N4 N 0.75025(19) -0.00032(16) 1.05716(14)
H20 H 0.748(2) -0.053(2) 1.0747(18)
N5 N 0.7499(2) 0.42889(19) 1.09682(16)
H21 H 0.750(3) 0.474(2) 1.124(2)
N6 N 0.74964(19) -0.20451(16) 1.40976(15)
H22 H 0.749(2) -0.219(2) 1.467(2)
N7 N 0.75031(19) 0.49049(17) 0.44497(14)
H23 H 0.751(3) 0.441(2) 0.417(2)
N8 N 0.7500(2) 0.77435(19) 1.07787(17)
H24 H 0.751(2) 0.733(2) 1.128(2)
O1 O 0.74988(16) -0.05608(13) 0.76049(12)
O2 O 0.75010(15) 0.10034(14) 0.56829(11)
O3 O 0.75000(15) 0.27409(13) 0.73524(12)
O4 O 0.74996(14) 0.12064(13) 0.90502(10)
O5 O 0.74971(16) 0.26695(14) 1.21410(14)
O6 O 0.74987(16) -0.05528(14) 1.28201(13)
O7 O 0.74985(14) 0.57297(15) 0.62098(11)
O8 O 0.75003(14) 0.64167(15) 0.93196(12)
C1 C 0.6484(2) -0.1107(2) 0.74498(19)
H25 H 0.5799 -0.0732 0.7562
H26 H 0.6473 -0.1630 0.7869
C2 C 0.6463(3) -0.1461(2) 0.64809(19)
H27 H 0.5791 -0.1859 0.6402
H28 H 0.6379 -0.0935 0.6071
C3 C 0.8537(3) -0.1461(2) 0.64811(19)
H29 H 0.8621 -0.0935 0.6072
H30 H 0.9210 -0.1858 0.6403
C4 C 0.8513(3) -0.1109(2) 0.74519(19)
H31 H 0.8521 -0.1632 0.7870
H32 H 0.9199 -0.0735 0.7568
C5 C 0.8513(2) 0.1218(2) 0.51604(19)
H33 H 0.8518 0.0847 0.4608
H34 H 0.9201 0.1064 0.5510
C6 C 0.8532(3) 0.2238(2) 0.4916(2)
H35 H 0.8613 0.2599 0.5472
H36 H 0.9207 0.2360 0.4541
C7 C 0.6465(3) 0.2238(2) 0.4915(2)
H37 H 0.5792 0.2354 0.4534
H38 H 0.6376 0.2601 0.5468
C8 C 0.6491(2) 0.1221(2) 0.51630(19)
H39 H 0.5805 0.1067 0.5514
H40 H 0.6483 0.0849 0.4611
C9 C 0.6477(2) 0.3274(2) 0.75436(18)
H41 H 0.5796 0.2895 0.7428
H42 H 0.6448 0.3809 0.7141
C10 C 0.6465(2) 0.3599(2) 0.85205(17)
H43 H 0.5771 0.3962 0.8636
H44 H 0.6464 0.3067 0.8928
C11 C 0.8537(2) 0.3600(2) 0.85222(17)
H45 H 0.8539 0.3068 0.8929
H46 H 0.9231 0.3963 0.8638
C12 C 0.8523(2) 0.3275(2) 0.75439(19)
H47 H 0.8550 0.3811 0.7142
H48 H 0.9204 0.2898 0.7427
C13 C 0.6477(2) 0.1066(2) 0.95948(15)
H49 H 0.5793 0.1149 0.9218
H50 H 0.6454 0.1526 1.0078
C14 C 0.6465(2) 0.0112(2) 1.00023(17)
H51 H 0.5773 0.0031 1.0370
H52 H 0.6458 -0.0352 0.9522
C15 C 0.8537(2) 0.0118(2) 1.00042(17)
H53 H 0.8547 -0.0348 0.9525
H54 H 0.9229 0.0041 1.0373
C16 C 0.8519(2) 0.1072(2) 0.95929(15)
H55 H 0.8540 0.1534 1.0075
H56 H 0.9202 0.1156 0.9216
C17 C 0.6483(2) 0.3247(2) 1.2070(2)
H57 H 0.6485 0.3704 1.2557
H58 H 0.5793 0.2867 1.2133
C18 C 0.6462(2) 0.3738(2) 1.11598(19)
H59 H 0.6370 0.3277 1.0682
H60 H 0.5791 0.4145 1.1140
C19 C 0.8541(3) 0.3740(2) 1.11616(19)
H61 H 0.9209 0.4149 1.1148
H62 H 0.8639 0.3282 1.0682
C20 C 0.8513(2) 0.3245(2) 1.2068(2)
H63 H 0.9202 0.2862 1.2131
H64 H 0.8515 0.3700 1.2557
C21 C 0.6483(2) -0.1104(2) 1.29678(18)
H65 H 0.6472 -0.1618 1.2538
H66 H 0.5798 -0.0727 1.2863
C22 C 0.6462(2) -0.1479(2) 1.39283(18)
H67 H 0.6436 -0.0967 1.4358
H68 H 0.5772 -0.1856 1.4015
C23 C 0.8539(2) -0.1479(2) 1.39251(18)
H69 H 0.9227 -0.1858 1.4009
H70 H 0.8571 -0.0968 1.4356
C24 C 0.8511(2) -0.1104(2) 1.29703(18)
H71 H 0.9196 -0.0727 1.2865
H72 H 0.8522 -0.1617 1.2541
C25 C 0.8523(2) 0.5725(2) 0.56442(16)
H73 H 0.9209 0.5717 0.6028
H74 H 0.8544 0.6287 0.5279
C26 C 0.8533(2) 0.4892(2) 0.50306(17)
H75 H 0.9225 0.4900 0.4655
H76 H 0.8541 0.4328 0.5394
C27 C 0.6466(2) 0.4885(2) 0.50309(17)
H77 H 0.6459 0.4320 0.5393
H78 H 0.5773 0.4894 0.4655
C28 C 0.6481(2) 0.5720(2) 0.56447(17)
H79 H 0.6460 0.6282 0.5278
H80 H 0.5795 0.5714 0.6028
C29 C 0.6480(2) 0.6545(2) 0.98628(18)
H81 H 0.6471 0.6092 1.0354
H82 H 0.5795 0.6446 0.9490
C30 C 0.6458(2) 0.7513(2) 1.02544(19)
H83 H 0.6375 0.7957 0.9760
H84 H 0.5785 0.7575 1.0647
C31 C 0.8542(2) 0.7514(2) 1.02529(19)
H85 H 0.9216 0.7576 1.0644
H86 H 0.8622 0.7957 0.9758
C32 C 0.8516(2) 0.6544(2) 0.98639(18)
H87 H 0.9201 0.6442 0.9494
H88 H 0.8522 0.6093 1.0356
Na1_2 Na 1.75001(10) 0.10836(8) 0.73874(6)
Na3A Na 0.25004(7) 0.59295(7) 0.79491(6)
Na3A_2 Na 1.25004(7) 0.59295(7) 0.79491(6)
Na4_2 Na 0.25003(8) 0.13030(7) 0.66083(6)
Na4A Na 0.74997(8) -0.36970(7) 1.33917(6)
Na4A_2 Na 0.74997(8) 0.63030(7) 0.33917(6)
H2_2 H 0.044(4) 0.148(4) 0.669(3)
H2A H 0.956(4) -0.352(4) 1.331(3)
H2A_2 H 0.956(4) 0.648(4) 0.331(3)
H3_2 H 0.110(3) 0.139(3) 0.784(3)
H3A H 0.890(3) -0.361(3) 1.216(3)
H3A_2 H 0.890(3) 0.639(3) 0.216(3)
H4_2 H 0.077(4) 0.044(4) 0.723(3)
H4A H 0.923(4) -0.456(4) 1.277(3)
H4A_2 H 0.923(4) 0.544(4) 0.277(3)
B2_2 B 1.4559(3) 0.1100(3) 0.7369(2)
H5_2 H 1.542(3) 0.107(2) 0.7573(19)
H6_2 H 1.449(4) 0.152(4) 0.669(3)
H6A H 0.551(4) -0.348(4) 1.331(3)
H6A_2 H 0.551(4) 0.652(4) 0.331(3)
H7_2 H 1.396(4) 0.156(4) 0.782(3)
H7A H 0.604(4) -0.344(4) 1.218(3)
H7A_2 H 0.604(4) 0.656(4) 0.218(3)
H8_2 H 1.420(4) 0.045(4) 0.718(3)
H8A H 0.580(4) -0.455(4) 1.282(3)
H8A_2 H 0.580(4) 0.545(4) 0.282(3)
H9A H 0.564(2) 0.1137(19) 1.2881(16)
H9_2 H 1.436(2) 0.6137(19) 0.7119(16)
H12A H 0.551(2) 0.119(2) 1.1662(18)
H12_2 H 1.449(2) 0.619(2) 0.8338(18)
H13A H 0.939(2) 0.1154(19) 1.2901(16)
H13_2 H 0.061(2) 0.6154(19) 0.7099(16)
H15A H 0.949(2) 0.124(2) 1.1673(17)
H15_2 H 0.051(2) 0.624(2) 0.8327(17)
N6A N 1.25036(19) 0.29549(16) 0.59024(15)
H22A H 1.251(2) 0.281(2) 0.533(2)
N7A N 1.24969(19) -0.00951(17) 0.55503(14)
H23A H 1.249(3) -0.059(2) 0.583(2)
loop_
_geom_bond_atom_site_label_1
_geom_bond_atom_site_label_2
_geom_bond_site_symmetry_1
_geom_bond_site_symmetry_2
Na1 H1 1_555 1_555
Na2 H10 1_555 1_555
Na3 N4 1_555 1_555
Na4 H2 1_555 1_555
B1 H1 1_555 1_555
H2 B1 1_555 1_555
H3 Na4 1_555 1_555
H4 Na4 1_555 1_555
B2 H5 1_555 1_555
H5 Na1 1_555 1_555
H6 B2 1_555 1_555
H7 B2 1_555 1_555
H8 B2 1_555 1_555
B3 H9 1_555 1_555
H9 Na3A 1_555 1_555
H10 B3 1_555 1_555
H11 Na2 1_555 1_555
H12 B3 1_555 1_555
B4 H13 1_555 1_555
H13 Na3A_2 1_555 1_555
H14 Na2 1_555 1_555
H15 B4 1_555 1_555
H16 Na2 1_555 1_555
N1 H17 1_555 1_555
N2 H18 1_555 1_555
N3 Na2 1_555 1_555
H19 N3 1_555 1_555
N4 H20 1_555 1_555
N5 H21 1_555 1_555
N6 H22 1_555 1_555
N7 H23 1_555 1_555
N8 H24 1_555 1_555
O1 Na1 1_555 1_555
O2 Na1 1_555 1_555
O3 Na1 1_555 1_555
O4 Na1 1_555 1_555
O5 Na3 1_555 1_555
O6 Na3 1_555 1_555
O7 Na2 1_555 1_555
O8 Na2 1_555 1_555
C1 O1 1_555 1_555
H25 C1 1_555 1_555
H26 C1 1_555 1_555
C2 N1 1_555 1_555
H27 C2 1_555 1_555
H28 C2 1_555 1_555
C3 N1 1_555 1_555
H29 C3 1_555 1_555
H30 C3 1_555 1_555
C4 O1 1_555 1_555
H31 C4 1_555 1_555
H32 C4 1_555 1_555
C5 O2 1_555 1_555
H33 C5 1_555 1_555
H34 C5 1_555 1_555
C6 N2 1_555 1_555
H35 C6 1_555 1_555
H36 C6 1_555 1_555
C7 N2 1_555 1_555
H37 C7 1_555 1_555
H38 C7 1_555 1_555
C8 O2 1_555 1_555
H39 C8 1_555 1_555
H40 C8 1_555 1_555
C9 O3 1_555 1_555
H41 C9 1_555 1_555
H42 C9 1_555 1_555
C10 N3 1_555 1_555
H43 C10 1_555 1_555
H44 C10 1_555 1_555
C11 N3 1_555 1_555
H45 C11 1_555 1_555
H46 C11 1_555 1_555
C12 O3 1_555 1_555
H47 C12 1_555 1_555
H48 C12 1_555 1_555
C13 O4 1_555 1_555
H49 C13 1_555 1_555
H50 C13 1_555 1_555
C14 N4 1_555 1_555
H51 C14 1_555 1_555
H52 C14 1_555 1_555
C15 N4 1_555 1_555
H53 C15 1_555 1_555
H54 C15 1_555 1_555
C16 O4 1_555 1_555
H55 C16 1_555 1_555
H56 C16 1_555 1_555
C17 O5 1_555 1_555
H57 C17 1_555 1_555
H58 C17 1_555 1_555
C18 N5 1_555 1_555
H59 C18 1_555 1_555
H60 C18 1_555 1_555
C19 N5 1_555 1_555
H61 C19 1_555 1_555
H62 C19 1_555 1_555
C20 O5 1_555 1_555
H63 C20 1_555 1_555
H64 C20 1_555 1_555
C21 O6 1_555 1_555
H65 C21 1_555 1_555
H66 C21 1_555 1_555
C22 N6 1_555 1_555
H67 C22 1_555 1_555
H68 C22 1_555 1_555
C23 N6 1_555 1_555
H69 C23 1_555 1_555
H70 C23 1_555 1_555
C24 O6 1_555 1_555
H71 C24 1_555 1_555
H72 C24 1_555 1_555
C25 O7 1_555 1_555
H73 C25 1_555 1_555
H74 C25 1_555 1_555
C26 N7 1_555 1_555
H75 C26 1_555 1_555
H76 C26 1_555 1_555
C27 N7 1_555 1_555
H77 C27 1_555 1_555
H78 C27 1_555 1_555
C28 O7 1_555 1_555
H79 C28 1_555 1_555
H80 C28 1_555 1_555
C29 O8 1_555 1_555
H81 C29 1_555 1_555
H82 C29 1_555 1_555
C30 N8 1_555 1_555
H83 C30 1_555 1_555
H84 C30 1_555 1_555
C31 N8 1_555 1_555
H85 C31 1_555 1_555
H86 C31 1_555 1_555
C32 O8 1_555 1_555
H87 C32 1_555 1_555
H88 C32 1_555 1_555
Na1_2 H5_2 1_555 1_555
Na3A H12 1_555 1_555
Na3A_2 H15 1_555 1_555
Na4_2 H6 1_555 1_555
Na4A N6 1_555 1_555
Na4A_2 N7 1_555 1_555
H2_2 Na4_2 1_555 1_555
H2A Na4A 1_555 1_555
H2A_2 Na4A_2 1_555 1_555
H3_2 Na4_2 1_555 1_555
H3A Na4A 1_555 1_555
H3A_2 Na4A_2 1_555 1_555
H4_2 Na4_2 1_555 1_555
H4A Na4A 1_555 1_555
H4A_2 Na4A_2 1_555 1_555
B2_2 H5_2 1_555 1_555
H6_2 Na4 1_555 1_555
H6A Na4A 1_555 1_555
H6A_2 Na4A_2 1_555 1_555
H7_2 Na4 1_555 1_555
H7A Na4A 1_555 1_555
H7A_2 Na4A_2 1_555 1_555
H8_2 Na4 1_555 1_555
H8A Na4A 1_555 1_555
H8A_2 Na4A_2 1_555 1_555
H9A Na3 1_555 1_555
H9_2 Na3A_2 1_555 1_555
H12A Na3 1_555 1_555
H12_2 Na3A_2 1_555 1_555
H13A Na3 1_555 1_555
H13_2 Na3A 1_555 1_555
H15A Na3 1_555 1_555
H15_2 Na3A 1_555 1_555
N6A Na4 1_555 1_555
H22A N6A 1_555 1_555
N7A Na4 1_555 1_555
H23A N7A 1_555 1_555
B1 H3 1_555 1_555
B1 H4 1_555 1_555
H7 Na4_2 1_555 1_555
H8 Na4_2 1_555 1_555
B3 H11 1_555 1_555
B4 H14 1_555 1_555
B4 H16 1_555 1_555
C1 C2 1_555 1_555
C3 C4 1_555 1_555
C5 C6 1_555 1_555
C7 C8 1_555 1_555
C9 C10 1_555 1_555
C11 C12 1_555 1_555
C13 C14 1_555 1_555
C15 C16 1_555 1_555
C17 C18 1_555 1_555
C19 C20 1_555 1_555
C21 C22 1_555 1_555
C23 C24 1_555 1_555
C25 C26 1_555 1_555
C27 C28 1_555 1_555
C29 C30 1_555 1_555
C31 C32 1_555 1_555
B2_2 H6_2 1_555 1_555
B2_2 H7_2 1_555 1_555
B2_2 H8_2 1_555 1_555

#END
