
#######################################################################
#
#                 Cambridge Crystallographic Data Centre
#                                CCDC 
#
#######################################################################
#
# If this CIF has been generated from an entry in the Cambridge 
# Structural Database, then it will include bibliographic, chemical, 
# crystal, experimental, refinement or atomic coordinate data resulting 
# from the CCDC's data processing and validation procedures.
#
#######################################################################

data_HIXDOH01
_symmetry_cell_setting           tetragonal
_symmetry_space_group_name_H-M   'I 4/m c m'
_symmetry_Int_Tables_number      140
_space_group_name_Hall           '-I 4 2c'
loop_
_symmetry_equiv_pos_site_id
_symmetry_equiv_pos_as_xyz
1 x,y,z
2 -y,x,z
3 x,-y,1/2-z
4 -x,-y,z
5 y,x,1/2-z
6 y,-x,z
7 -x,y,1/2-z
8 -y,-x,1/2-z
9 1/2+x,1/2+y,1/2+z
10 1/2-y,1/2+x,1/2+z
11 1/2+x,1/2-y,-z
12 1/2-x,1/2-y,1/2+z
13 1/2+y,1/2+x,-z
14 1/2+y,1/2-x,1/2+z
15 1/2-x,1/2+y,-z
16 1/2-y,1/2-x,-z
17 -x,-y,-z
18 y,-x,-z
19 -x,y,1/2+z
20 x,y,-z
21 -y,-x,1/2+z
22 -y,x,-z
23 x,-y,1/2+z
24 y,x,1/2+z
25 1/2-x,1/2-y,1/2-z
26 1/2+y,1/2-x,1/2-z
27 1/2-x,1/2+y,z
28 1/2+x,1/2+y,1/2-z
29 1/2-y,1/2-x,z
30 1/2-y,1/2+x,1/2-z
31 1/2+x,1/2-y,z
32 1/2+y,1/2+x,z
_cell_length_a                   9.745(1)
_cell_length_b                   9.745(1)
_cell_length_c                   16.565(3)
_cell_angle_alpha                90
_cell_angle_beta                 90
_cell_angle_gamma                90
_cell_volume                     1573.1
loop_
_atom_site_label
_atom_site_type_symbol
_atom_site_fract_x
_atom_site_fract_y
_atom_site_fract_z
W1 W 0.5000 0.5000 0.5000
Cu1 Cu 0.5000 0.5000 0.2500
O1 O 0.5000 0.5000 0.3857(2)
F1 F 0.6687(4) 0.4117(4) 0.5000
N1 N 0.3504(3) 0.3504 0.2500
C1 C 0.2707(4) 0.3311(4) 0.1860(2)
C1BA C 0.1689(4) 0.2293(4) 0.1860(2)
N1BA N 0.1496 0.1496(3) 0.2500
C1X C 0.2293(4) 0.1689(4) 0.3140(2)
C1D C 0.3311(4) 0.2707(4) 0.3140(2)
O1P O 0.5000 0.5000 0.6143(2)
F1A F 0.5883(4) 0.6687(4) 0.5000
F1C F 0.3313(4) 0.5883(4) 0.5000
F1E F 0.4117(4) 0.3313(4) 0.5000
Cu1P Cu 0.5000 0.5000 0.7500
O1B O 0.5000 0.5000 0.1143(2)
N1A N 0.6496 0.3504(3) 0.2500
C1A C 0.6689(4) 0.2707(4) 0.1860(2)
C1DA C 0.7707(4) 0.1689(4) 0.1860(2)
N1DA N 0.8504(3) 0.1496 0.2500
C1Y C 0.8311(4) 0.2293(4) 0.3140(2)
C1F C 0.7293(4) 0.3311(4) 0.3140(2)
N1B N 0.3504(3) 0.6496 0.2500
N1C N 0.6496(3) 0.6496 0.2500
Cu1BA Cu 0.0000 0.0000 0.2500
Cu1DA Cu 1.0000 0.0000 0.2500
O2 O 0.5000 0.0000 0.2500
N2 N 0.5000 0.0000 0.084(2)
C2 C 0.4128(10) 0.0872 0.029(8)
C2O C 0.4128 0.0872(10) -0.029(8)
N2O N 0.5000 0.0000 -0.084(2)
C2L C 0.5872 -0.0872(10) -0.029(8)
C2C C 0.5872(10) -0.0872 0.029(8)
loop_
_geom_bond_atom_site_label_1
_geom_bond_atom_site_label_2
_geom_bond_site_symmetry_1
_geom_bond_site_symmetry_2
W1 O1 1_555 1_555
Cu1 O1 1_555 1_555
F1 W1 1_555 1_555
N1 Cu1 1_555 1_555
C1 N1 1_555 1_555
N2 C2 1_555 1_555
C2 C2O 1_555 1_555
C1BA C1 1_555 1_555
N1BA C1BA 1_555 1_555
C1X N1BA 1_555 1_555
C1D N1 1_555 1_555
O1P W1 1_555 1_555
F1A W1 1_555 1_555
F1C W1 1_555 1_555
F1E W1 1_555 1_555
Cu1P O1P 1_555 1_555
O1B Cu1 1_555 1_555
N1A Cu1 1_555 1_555
C1A N1A 1_555 1_555
C1DA C1A 1_555 1_555
N1DA C1DA 1_555 1_555
C1Y N1DA 1_555 1_555
C1F N1A 1_555 1_555
N1B Cu1 1_555 1_555
N1C Cu1 1_555 1_555
Cu1BA N1BA 1_555 1_555
Cu1DA N1DA 1_555 1_555
C2O N2O 1_555 1_555
N2O C2L 1_555 1_555
C2L C2C 1_555 1_555
C2C N2 1_555 1_555
C1X C1D 1_555 1_555
C1Y C1F 1_555 1_555

#END
