
#######################################################################
#
#                 Cambridge Crystallographic Data Centre
#                                CCDC 
#
#######################################################################
#
# If this CIF has been generated from an entry in the Cambridge 
# Structural Database, then it will include bibliographic, chemical, 
# crystal, experimental, refinement or atomic coordinate data resulting 
# from the CCDC's data processing and validation procedures.
#
#######################################################################

data_HIXDEY
_symmetry_cell_setting           hexagonal
_symmetry_space_group_name_H-M   'P 6/m m m'
_symmetry_Int_Tables_number      191
_space_group_name_Hall           "-P 6 2'"
loop_
_symmetry_equiv_pos_site_id
_symmetry_equiv_pos_as_xyz
1 x,y,z
2 x-y,x,z
3 -y,-x,-z
4 -y,x-y,z
5 x-y,-y,-z
6 -x,-y,z
7 x,x-y,-z
8 -x+y,-x,z
9 y,x,-z
10 y,-x+y,z
11 -x+y,y,-z
12 -x,-x+y,-z
13 -x,-y,-z
14 -x+y,-x,-z
15 y,x,z
16 y,-x+y,-z
17 -x+y,y,z
18 x,y,-z
19 -x,-x+y,z
20 x-y,x,-z
21 -y,-x,z
22 -y,x-y,-z
23 x-y,-y,z
24 x,x-y,z
_cell_length_a                   8.964447
_cell_length_b                   8.964447
_cell_length_c                   3.957573
_cell_angle_alpha                90
_cell_angle_beta                 90
_cell_angle_gamma                120
_cell_volume                     275.427
loop_
_atom_site_label
_atom_site_type_symbol
_atom_site_fract_x
_atom_site_fract_y
_atom_site_fract_z
Pb1 Pb 0.50000 0.50000 0.50000
C1 C 0.91080(84) 0.8216(17) 0.00000
S1 S 0.79572(25) 0.59144(50) 0.00000
S1_2 S 0.79572(25) 0.59144(50) 1.00000
S1B S 0.40856(50) 0.20428(25) 0.00000
S1B_2 S 0.40856(50) 0.20428(25) 1.00000
S1D S 0.20428(56) 0.40856(50) 0.00000
S1D_2 S 0.20428(56) 0.40856(50) 1.00000
S1H S 0.59144(50) 0.79572(25) 0.00000
S1H_2 S 0.59144(50) 0.79572(25) 1.00000
C1A C 1.0892(19) 0.91080(84) 0.00000
C1H C 0.8216(17) 0.91080(84) 0.00000
Pb1_2 Pb 0.50000 0.50000 -0.50000
Pb1G Pb 1.00000 0.50000 0.50000
Pb1G_2 Pb 1.00000 0.50000 -0.50000
loop_
_geom_bond_atom_site_label_1
_geom_bond_atom_site_label_2
_geom_bond_site_symmetry_1
_geom_bond_site_symmetry_2
Pb1 S1 1_555 1_555
C1 S1 1_555 1_555
S1 Pb1_2 1_555 1_555
S1_2 Pb1 1_555 1_555
S1B Pb1 1_555 1_555
S1B_2 Pb1 1_555 1_555
S1D Pb1 1_555 1_555
S1D_2 Pb1 1_555 1_555
S1H Pb1 1_555 1_555
S1H_2 Pb1 1_555 1_555
C1A C1 1_555 1_555
C1H C1 1_555 1_555
Pb1_2 S1B 1_555 1_555
Pb1G S1 1_555 1_555
Pb1G_2 S1 1_555 1_555
S1_2 Pb1G 1_555 1_555
S1D Pb1_2 1_555 1_555
S1H Pb1_2 1_555 1_555
S1H C1H 1_555 1_555

#END
