
#######################################################################
#
#                 Cambridge Crystallographic Data Centre
#                                CCDC 
#
#######################################################################
#
# If this CIF has been generated from an entry in the Cambridge 
# Structural Database, then it will include bibliographic, chemical, 
# crystal, experimental, refinement or atomic coordinate data resulting 
# from the CCDC's data processing and validation procedures.
#
#######################################################################

data_HIXQAG
_symmetry_cell_setting           monoclinic
_symmetry_space_group_name_H-M   'P 21/n'
_symmetry_Int_Tables_number      14
_space_group_name_Hall           '-P 2yn'
loop_
_symmetry_equiv_pos_site_id
_symmetry_equiv_pos_as_xyz
1 x,y,z
2 1/2+x,1/2-y,1/2+z
3 -x,-y,-z
4 1/2-x,1/2+y,1/2-z
_cell_length_a                   13.800(1)
_cell_length_b                   24.636(4)
_cell_length_c                   18.735(1)
_cell_angle_alpha                90
_cell_angle_beta                 102.20(1)
_cell_angle_gamma                90
_cell_volume                     6225.62
loop_
_atom_site_label
_atom_site_type_symbol
_atom_site_fract_x
_atom_site_fract_y
_atom_site_fract_z
Cs1 Cs 0.27085(2) 0.406390(13) -0.07760(2)
Cs2 Cs 0.46066(2) 0.158110(13) -0.16001(2)
O1 O 0.5005(2) 0.35303(13) -0.0369(2)
O2 O 0.4589(2) 0.43954(15) 0.0560(2)
O3 O 0.2915(2) 0.48471(13) 0.0538(2)
O4 O 0.0939(2) 0.43459(13) 0.0106(2)
O5 O 0.0346(2) 0.36817(13) -0.0986(2)
O6 O 0.1705(2) 0.30566(13) -0.1658(2)
O7 O 0.3698(2) 0.19595(14) -0.0227(2)
O8 O 0.4889(3) 0.09788(14) 0.0002(2)
O9 O 0.5855(3) 0.06434(15) -0.0929(2)
O10 O 0.6704(3) 0.1205(2) -0.2006(2)
O11 O 0.5975(3) 0.20431(14) -0.2749(2)
O12 O 0.4381(2) 0.26676(13) -0.2441(2)
O13 O 0.2384(3) 0.5297(2) -0.1560(3)
O14 O 0.1132(3) 0.4782(2) -0.1889(3)
O15 O 0.1063(3) 0.5612(2) -0.2278(2)
N1 N 0.1527(4) 0.5234(2) -0.1909(3)
C1 C 0.5599(5) 0.4004(3) -0.0166(4)
H1 H 0.5365(5) 0.4290(3) -0.0514(4)
H2 H 0.6278(5) 0.3922(3) -0.0193(4)
C2 C 0.5582(4) 0.4195(3) 0.0558(4)
H3 H 0.6063(4) 0.4485(3) 0.0694(4)
H4 H 0.5752(4) 0.3902(3) 0.0907(4)
C3 C 0.4437(4) 0.4553(2) 0.1223(3)
C4 C 0.5115(4) 0.4479(2) 0.1882(3)
H5 H 0.5716(4) 0.4305(2) 0.1891(3)
C5 C 0.4882(5) 0.4668(2) 0.2529(3)
H6 H 0.5336(5) 0.4624(2) 0.2969(3)
C6 C 0.4007(4) 0.4914(2) 0.2521(3)
H7 H 0.3862(4) 0.5040(2) 0.2955(3)
C7 C 0.3317(4) 0.4979(2) 0.1864(3)
H8 H 0.2713(4) 0.5146(2) 0.1865(3)
C8 C 0.3522(3) 0.4799(2) 0.1216(3)
C9 C 0.1968(4) 0.5114(2) 0.0478(3)
H9 H 0.1740(4) 0.5242(2) -0.0019(3)
H10 H 0.2052(4) 0.5428(2) 0.0798(3)
C10 C 0.1197(4) 0.4747(2) 0.0673(3)
H11 H 0.1455(4) 0.4572(2) 0.1138(3)
H12 H 0.0615(4) 0.4956(2) 0.0716(3)
C11 C 0.0131(3) 0.4026(2) 0.0143(3)
C12 C -0.0351(4) 0.4028(2) 0.0716(3)
H13 H -0.0115(4) 0.4245(2) 0.1121(3)
C13 C -0.1193(4) 0.3706(2) 0.0694(3)
H14 H -0.1517(4) 0.3711(2) 0.1082(3)
C14 C -0.1537(4) 0.3386(2) 0.0102(3)
H15 H -0.2102(4) 0.3176(2) 0.0083(3)
C15 C -0.1048(4) 0.3370(2) -0.0476(3)
H16 H -0.1285(4) 0.3148(2) -0.0875(3)
C16 C -0.0208(4) 0.3684(2) -0.0461(3)
C17 C 0.0028(4) 0.3321(2) -0.1591(3)
H17 H -0.0597(4) 0.3445(2) -0.1887(3)
H18 H -0.0065(4) 0.2958(2) -0.1416(3)
C18 C 0.0809(4) 0.3317(2) -0.2035(3)
H19 H 0.0559(4) 0.3129(2) -0.2491(3)
H20 H 0.0958(4) 0.3688(2) -0.2149(3)
C19 C 0.3415(4) 0.1453(2) 0.0064(3)
H21 H 0.3077(4) 0.1227(2) -0.0335(3)
H22 H 0.2953(4) 0.1528(2) 0.0377(3)
C20 C 0.4287(4) 0.1152(2) 0.0491(3)
H23 H 0.4667(4) 0.1385(2) 0.0865(3)
H24 H 0.4065(4) 0.0839(2) 0.0729(3)
C21 C 0.5647(4) 0.0623(2) 0.0267(3)
C22 C 0.5870(4) 0.0422(2) 0.0976(3)
H25 H 0.5491(4) 0.0524(2) 0.1309(3)
C23 C 0.6669(4) 0.0065(2) 0.1184(3)
H26 H 0.6820(4) -0.0073(2) 0.1656(3)
C24 C 0.7221(4) -0.0076(2) 0.0699(3)
H27 H 0.7765(4) -0.0303(2) 0.0848(3)
C25 C 0.6993(4) 0.0109(2) -0.0018(3)
H28 H 0.7374(4) 0.0003(2) -0.0348(3)
C26 C 0.6194(4) 0.0451(2) -0.0234(3)
C27 C 0.6210(5) 0.0393(2) -0.1522(3)
H29 H 0.5681(5) 0.0386(2) -0.1955(3)
H30 H 0.6404(5) 0.0022(2) -0.1394(3)
C28 C 0.7064(5) 0.0692(2) -0.1683(4)
H31 H 0.7557(5) 0.0752(2) -0.1238(4)
H32 H 0.7368(5) 0.0486(2) -0.2019(4)
C29 C 0.7389(4) 0.1543(2) -0.2207(3)
C30 C 0.8399(4) 0.1476(3) -0.2027(3)
H33 H 0.8666(4) 0.1173(3) -0.1762(3)
C31 C 0.9024(5) 0.1854(3) -0.2233(4)
H34 H 0.9707(5) 0.1804(3) -0.2109(4)
C32 C 0.8639(5) 0.2300(3) -0.2618(3)
H35 H 0.9065(5) 0.2553(3) -0.2757(3)
C33 C 0.7624(4) 0.2385(2) -0.2807(3)
H36 H 0.7368(4) 0.2694(2) -0.3064(3)
C34 C 0.7002(4) 0.2005(2) -0.2607(3)
C35 C 0.5534(4) 0.2477(2) -0.3217(3)
H37 H 0.5586(4) 0.2406(2) -0.3717(3)
H38 H 0.5868(4) 0.2817(2) -0.3061(3)
C36 C 0.4472(4) 0.2508(2) -0.3164(3)
H39 H 0.4130(4) 0.2768(2) -0.3517(3)
H40 H 0.4162(4) 0.2156(2) -0.3280(3)
C37 C 0.5524(3) 0.3059(2) -0.0452(3)
C38 C 0.5579(4) 0.2645(2) 0.0061(3)
C39 C 0.6172(4) 0.2195(2) -0.0005(3)
H41 H 0.6214(4) 0.1912(2) 0.0328(3)
C40 C 0.6692(4) 0.2164(2) -0.0553(3)
H42 H 0.7121(4) 0.1875(2) -0.0568(3)
C41 C 0.6574(4) 0.2564(2) -0.1082(3)
H43 H 0.6907(4) 0.2533(2) -0.1463(3)
C42 C 0.5969(3) 0.3012(2) -0.1057(3)
C43 C 0.5037(4) 0.2674(2) 0.0683(3)
H44 H 0.5151(4) 0.2336(2) 0.0953(3)
H45 H 0.5334(4) 0.2962(2) 0.1010(3)
C44 C 0.3936(4) 0.2772(2) 0.0483(3)
C45 C 0.3291(4) 0.2417(2) 0.0031(3)
C46 C 0.2270(4) 0.2511(2) -0.0158(3)
C47 C 0.1899(4) 0.2942(2) 0.0182(3)
H46 H 0.1219(4) 0.3003(2) 0.0085(3)
C48 C 0.2514(5) 0.3279(2) 0.0658(3)
H47 H 0.2247(5) 0.3558(2) 0.0890(3)
C49 C 0.3516(5) 0.3205(2) 0.0792(3)
H48 H 0.3928(5) 0.3447(2) 0.1095(3)
C50 C 0.1561(4) 0.2158(2) -0.0699(3)
H49 H 0.1544(4) 0.1800(2) -0.0486(3)
H50 H 0.0901(4) 0.2311(2) -0.0761(3)
C51 C 0.1798(3) 0.2092(2) -0.1449(3)
C52 C 0.1872(3) 0.2538(2) -0.1900(3)
C53 C 0.2140(3) 0.2470(2) -0.2576(3)
C54 C 0.2238(4) 0.1940(2) -0.2822(3)
H51 H 0.2392(4) 0.1886(2) -0.3276(3)
C55 C 0.2113(4) 0.1502(2) -0.2405(4)
H52 H 0.2166(4) 0.1153(2) -0.2582(4)
C56 C 0.1910(4) 0.1575(2) -0.1725(4)
H53 H 0.1845(4) 0.1272(2) -0.1442(4)
C57 C 0.2322(4) 0.2944(2) -0.3044(3)
H54 H 0.1701(4) 0.3136(2) -0.3204(3)
H55 H 0.2515(4) 0.2801(2) -0.3476(3)
C58 C 0.3101(4) 0.3351(2) -0.2689(3)
C59 C 0.4085(4) 0.3205(2) -0.2384(3)
C60 C 0.4775(4) 0.3577(2) -0.2015(3)
C61 C 0.4466(4) 0.4112(2) -0.2013(3)
H56 H 0.4911(4) 0.4370(2) -0.1774(3)
C62 C 0.3525(4) 0.4277(2) -0.2352(3)
H57 H 0.3353(4) 0.4642(2) -0.2365(3)
C63 C 0.2848(4) 0.3894(2) -0.2670(3)
H58 H 0.2204(4) 0.4002(2) -0.2877(3)
C64 C 0.5831(4) 0.3433(2) -0.1659(3)
H59 H 0.6168(4) 0.3762(2) -0.1459(3)
H60 H 0.6160(4) 0.3302(2) -0.2035(3)
Cs2C Cs 0.03934(2) 0.658110(13) -0.33999(2)
O15C O 0.3937(3) 0.0612(2) -0.2722(2)
O16 O 0.1879(4) 0.1483(2) 0.1328(4)
O17 O 0.2194(4) 0.0651(2) 0.1356(4)
O18 O 0.3280(4) 0.1205(2) 0.1910(3)
N2 N 0.2436(5) 0.1108(3) 0.1568(3)
C65 C -0.0049(5) 0.1128(3) 0.0361(4)
Cl1 Cl -0.0735(2) 0.08384(13) 0.0929(2)
Cl2 Cl -0.0595(2) 0.17549(9) 0.00210(12)
Cl3 Cl 0.0065(2) 0.07140(11) -0.03696(13)
O19 O 0.6001(3) -0.0381(2) -0.2970(2)
loop_
_geom_bond_atom_site_label_1
_geom_bond_atom_site_label_2
_geom_bond_site_symmetry_1
_geom_bond_site_symmetry_2
Cs1 O1 1_555 1_555
Cs2 O7 1_555 1_555
O1 C1 1_555 1_555
O2 Cs1 1_555 1_555
O3 Cs1 1_555 1_555
O4 Cs1 1_555 1_555
O5 Cs1 1_555 1_555
O6 Cs1 1_555 1_555
O7 C19 1_555 1_555
O8 Cs2 1_555 1_555
O9 Cs2 1_555 1_555
O10 Cs2 1_555 1_555
O11 Cs2 1_555 1_555
O12 Cs2 1_555 1_555
O13 Cs1 1_555 1_555
O14 Cs1 1_555 1_555
O15 N1 1_555 1_555
O16 N2 1_555 1_555
O17 N2 1_555 1_555
O18 N2 1_555 1_555
N1 O13 1_555 1_555
C1 H1 1_555 1_555
H2 C1 1_555 1_555
C2 O2 1_555 1_555
H3 C2 1_555 1_555
H4 C2 1_555 1_555
C3 O2 1_555 1_555
C4 C3 1_555 1_555
H5 C4 1_555 1_555
C5 C4 1_555 1_555
H6 C5 1_555 1_555
C6 C5 1_555 1_555
H7 C6 1_555 1_555
C7 C6 1_555 1_555
H8 C7 1_555 1_555
C8 O3 1_555 1_555
C9 O3 1_555 1_555
H9 C9 1_555 1_555
H10 C9 1_555 1_555
C10 O4 1_555 1_555
H11 C10 1_555 1_555
H12 C10 1_555 1_555
C11 O4 1_555 1_555
C12 C11 1_555 1_555
H13 C12 1_555 1_555
C13 C12 1_555 1_555
H14 C13 1_555 1_555
C14 C13 1_555 1_555
H15 C14 1_555 1_555
C15 C14 1_555 1_555
H16 C15 1_555 1_555
C16 O5 1_555 1_555
C17 O5 1_555 1_555
H17 C17 1_555 1_555
H18 C17 1_555 1_555
C18 O6 1_555 1_555
H19 C18 1_555 1_555
H20 C18 1_555 1_555
C19 H21 1_555 1_555
H22 C19 1_555 1_555
C20 O8 1_555 1_555
H23 C20 1_555 1_555
H24 C20 1_555 1_555
C21 O8 1_555 1_555
C22 C21 1_555 1_555
H25 C22 1_555 1_555
C23 C22 1_555 1_555
H26 C23 1_555 1_555
C24 C23 1_555 1_555
H27 C24 1_555 1_555
C25 C24 1_555 1_555
H28 C25 1_555 1_555
C26 O9 1_555 1_555
C27 O9 1_555 1_555
H29 C27 1_555 1_555
H30 C27 1_555 1_555
C28 O10 1_555 1_555
H31 C28 1_555 1_555
H32 C28 1_555 1_555
C29 O10 1_555 1_555
C30 C29 1_555 1_555
H33 C30 1_555 1_555
C31 C30 1_555 1_555
H34 C31 1_555 1_555
C32 C31 1_555 1_555
H35 C32 1_555 1_555
C33 C32 1_555 1_555
H36 C33 1_555 1_555
C34 O11 1_555 1_555
C35 O11 1_555 1_555
H37 C35 1_555 1_555
H38 C35 1_555 1_555
C36 O12 1_555 1_555
H39 C36 1_555 1_555
H40 C36 1_555 1_555
C37 O1 1_555 1_555
C38 C37 1_555 1_555
C39 C38 1_555 1_555
H41 C39 1_555 1_555
C40 C39 1_555 1_555
H42 C40 1_555 1_555
C41 C40 1_555 1_555
H43 C41 1_555 1_555
C42 C37 1_555 1_555
C43 C38 1_555 1_555
H44 C43 1_555 1_555
H45 C43 1_555 1_555
C44 C43 1_555 1_555
C45 O7 1_555 1_555
C46 C45 1_555 1_555
C47 C46 1_555 1_555
H46 C47 1_555 1_555
C48 C47 1_555 1_555
H47 C48 1_555 1_555
C49 C44 1_555 1_555
H48 C49 1_555 1_555
C50 C46 1_555 1_555
H49 C50 1_555 1_555
H50 C50 1_555 1_555
C51 C50 1_555 1_555
C52 O6 1_555 1_555
C53 C52 1_555 1_555
C54 C53 1_555 1_555
H51 C54 1_555 1_555
C55 C54 1_555 1_555
H52 C55 1_555 1_555
C56 C51 1_555 1_555
H53 C56 1_555 1_555
C57 C53 1_555 1_555
H54 C57 1_555 1_555
H55 C57 1_555 1_555
C58 C57 1_555 1_555
C59 O12 1_555 1_555
C60 C59 1_555 1_555
C61 C60 1_555 1_555
H56 C61 1_555 1_555
C62 C61 1_555 1_555
H57 C62 1_555 1_555
C63 C58 1_555 1_555
H58 C63 1_555 1_555
C64 C42 1_555 1_555
H59 C64 1_555 1_555
H60 C64 1_555 1_555
C65 Cl1 1_555 1_555
Cl2 C65 1_555 1_555
Cl3 C65 1_555 1_555
Cs2C O15 1_555 1_555
O15C Cs2 1_555 1_555
O14 N1 1_555 1_555
C1 C2 1_555 1_555
C3 C8 1_555 1_555
C7 C8 1_555 1_555
C9 C10 1_555 1_555
C11 C16 1_555 1_555
C15 C16 1_555 1_555
C17 C18 1_555 1_555
C19 C20 1_555 1_555
C21 C26 1_555 1_555
C25 C26 1_555 1_555
C27 C28 1_555 1_555
C29 C34 1_555 1_555
C33 C34 1_555 1_555
C35 C36 1_555 1_555
C41 C42 1_555 1_555
C44 C45 1_555 1_555
C48 C49 1_555 1_555
C51 C52 1_555 1_555
C55 C56 1_555 1_555
C58 C59 1_555 1_555
C60 C64 1_555 1_555
C62 C63 1_555 1_555

#END
