
#######################################################################
#
#                 Cambridge Crystallographic Data Centre
#                                CCDC 
#
#######################################################################
#
# If this CIF has been generated from an entry in the Cambridge 
# Structural Database, then it will include bibliographic, chemical, 
# crystal, experimental, refinement or atomic coordinate data resulting 
# from the CCDC's data processing and validation procedures.
#
#######################################################################

data_HIXQAH
_symmetry_cell_setting           orthorhombic
_symmetry_space_group_name_H-M   'P n a 21'
_symmetry_Int_Tables_number      33
_space_group_name_Hall           'P 2c -2n'
loop_
_symmetry_equiv_pos_site_id
_symmetry_equiv_pos_as_xyz
1 x,y,z
2 -x,-y,1/2+z
3 1/2+x,1/2-y,z
4 1/2-x,1/2+y,1/2+z
_cell_length_a                   19.6227(6)
_cell_length_b                   10.6131(3)
_cell_length_c                   16.8353(5)
_cell_angle_alpha                90
_cell_angle_beta                 90
_cell_angle_gamma                90
_cell_volume                     3506.08
loop_
_atom_site_label
_atom_site_type_symbol
_atom_site_fract_x
_atom_site_fract_y
_atom_site_fract_z
I1 I 0.26228(2) -0.39297(5) 0.74273(4)
Cu1 Cu 0.16448(5) -0.27478(9) 0.67127(6)
P1 P 0.19255(10) -0.1061(2) 0.59802(13)
P2 P 0.08804(10) -0.3749(2) 0.59469(14)
C1 C 0.1240(4) -0.0662(7) 0.5261(5)
H1 H 0.0862 -0.0264 0.5560
H2 H 0.1421 -0.0021 0.4890
C2 C 0.0937(4) -0.1753(8) 0.4761(5)
C3 C 0.0462(4) -0.2629(7) 0.5242(5)
H3 H 0.0187 -0.3126 0.4862
H4 H 0.0143 -0.2095 0.5548
C4 C 0.1491(4) -0.2480(8) 0.4344(5)
H5 H 0.1781 -0.1896 0.4046
H6 H 0.1285 -0.3089 0.3978
H7 H 0.1767 -0.2928 0.4738
C5 C 0.0497(4) -0.1184(8) 0.4086(5)
O1 O 0.0530(3) -0.1529(6) 0.3424(4)
N1 N 0.0049(4) -0.0217(7) 0.4297(4)
H8 H -0.0007 -0.0053 0.4805
C6 C -0.0316(4) 0.0503(8) 0.3750(5)
C7 C -0.0959(4) 0.0999(9) 0.3929(5)
H9 H -0.1163 0.0840 0.4431
C8 C -0.1286(4) 0.1710(9) 0.3379(6)
H10 H -0.1720 0.2043 0.3517
N2 N -0.1043(3) 0.1975(6) 0.2655(4)
C9 C -0.0422(4) 0.1531(7) 0.2503(7)
H11 H -0.0231 0.1720 0.1998
C10 C -0.0037(4) 0.0826(8) 0.3014(5)
H12 H 0.0409 0.0561 0.2871
C11 C 0.2695(2) -0.1117(6) 0.5353(3)
C12 C 0.2873(3) -0.0144(5) 0.4841(4)
H13 H 0.2631 0.0631 0.4857
C13 C 0.3405(3) -0.0305(6) 0.4306(3)
H14 H 0.3527 0.0360 0.3956
C14 C 0.3759(3) -0.1439(7) 0.4282(3)
H15 H 0.4123 -0.1549 0.3916
C15 C 0.3581(3) -0.2412(5) 0.4795(4)
H16 H 0.3823 -0.3187 0.4779
C16 C 0.3049(3) -0.2251(5) 0.5330(3)
H17 H 0.2927 -0.2916 0.5680
C17 C 0.2014(3) 0.0393(5) 0.6582(3)
C18 C 0.1822(3) 0.1590(6) 0.6333(3)
H18 H 0.1646 0.1712 0.5814
C19 C 0.1889(3) 0.2610(4) 0.6846(4)
H19 H 0.1758 0.3429 0.6676
C20 C 0.2147(3) 0.2432(5) 0.7606(3)
H20 H 0.2193 0.3129 0.7956
C21 C 0.2339(2) 0.1235(6) 0.7854(3)
H21 H 0.2516 0.1113 0.8374
C22 C 0.2273(2) 0.0215(4) 0.7342(4)
H22 H 0.2404 -0.0604 0.7512
C23 C 0.0168(2) -0.4334(5) 0.6540(3)
C24 C 0.0341(2) -0.4857(5) 0.7270(3)
H23 H 0.0807 -0.4938 0.7416
C25 C -0.0167(3) -0.5262(6) 0.7785(3)
H24 H -0.0049 -0.5620 0.8284
C26 C -0.0848(3) -0.5144(6) 0.7571(3)
H25 H -0.1195 -0.5420 0.7923
C27 C -0.1021(2) -0.4620(7) 0.6842(4)
H26 H -0.1486 -0.4539 0.6695
C28 C -0.0513(3) -0.4215(6) 0.6326(3)
H27 H -0.0631 -0.3858 0.5827
C29 C 0.1091(3) -0.5082(5) 0.5295(3)
C30 C 0.0593(3) -0.5749(6) 0.4885(4)
H28 H 0.0126 -0.5553 0.4960
C31 C 0.0781(4) -0.6704(6) 0.4363(4)
H29 H 0.0441 -0.7160 0.4082
C32 C 0.1465(5) -0.6991(5) 0.4252(4)
H30 H 0.1593 -0.7643 0.3895
C33 C 0.1962(3) -0.6324(7) 0.4662(4)
H31 H 0.2430 -0.6520 0.4586
C34 C 0.1775(3) -0.5369(6) 0.5184(4)
H32 H 0.2115 -0.4914 0.5465
Cu1A Cu -0.16448(5) 0.27478(9) 0.17127(6)
N2A N 0.1043(3) -0.1975(6) 0.7655(4)
S1 S -0.07167(13) 0.0789(3) 0.64989(17)
O2 O -0.0560(3) 0.0045(7) 0.5777(4)
C35 C -0.1369(5) 0.1830(11) 0.6262(7)
H33 H -0.1793 0.1359 0.6180
H34 H -0.1252 0.2286 0.5775
H35 H -0.1431 0.2431 0.6698
C36 C -0.0027(5) 0.1876(10) 0.6601(7)
H36 H 0.0389 0.1417 0.6746
H37 H -0.0135 0.2490 0.7017
H38 H 0.0045 0.2317 0.6096
loop_
_geom_bond_atom_site_label_1
_geom_bond_atom_site_label_2
_geom_bond_site_symmetry_1
_geom_bond_site_symmetry_2
I1 Cu1 1_555 1_555
Cu1 P1 1_555 1_555
P1 C1 1_555 1_555
P2 Cu1 1_555 1_555
C1 H1 1_555 1_555
H2 C1 1_555 1_555
C2 C1 1_555 1_555
C3 P2 1_555 1_555
H3 C3 1_555 1_555
H4 C3 1_555 1_555
C4 C2 1_555 1_555
H5 C4 1_555 1_555
H6 C4 1_555 1_555
H7 C4 1_555 1_555
C5 C2 1_555 1_555
O1 C5 1_555 1_555
N1 C5 1_555 1_555
H8 N1 1_555 1_555
C6 N1 1_555 1_555
C7 C6 1_555 1_555
H9 C7 1_555 1_555
C8 C7 1_555 1_555
H10 C8 1_555 1_555
N2 C8 1_555 1_555
C9 N2 1_555 1_555
H11 C9 1_555 1_555
C10 C6 1_555 1_555
H12 C10 1_555 1_555
C11 P1 1_555 1_555
C12 C11 1_555 1_555
H13 C12 1_555 1_555
C13 C12 1_555 1_555
H14 C13 1_555 1_555
C14 C13 1_555 1_555
H15 C14 1_555 1_555
C15 C14 1_555 1_555
H16 C15 1_555 1_555
C16 C11 1_555 1_555
H17 C16 1_555 1_555
C17 P1 1_555 1_555
C18 C17 1_555 1_555
H18 C18 1_555 1_555
C19 C18 1_555 1_555
H19 C19 1_555 1_555
C20 C19 1_555 1_555
H20 C20 1_555 1_555
C21 C20 1_555 1_555
H21 C21 1_555 1_555
C22 C17 1_555 1_555
H22 C22 1_555 1_555
C23 P2 1_555 1_555
C24 C23 1_555 1_555
H23 C24 1_555 1_555
C25 C24 1_555 1_555
H24 C25 1_555 1_555
C26 C25 1_555 1_555
H25 C26 1_555 1_555
C27 C26 1_555 1_555
H26 C27 1_555 1_555
C28 C23 1_555 1_555
H27 C28 1_555 1_555
C29 P2 1_555 1_555
C30 C29 1_555 1_555
H28 C30 1_555 1_555
C31 C30 1_555 1_555
H29 C31 1_555 1_555
C32 C31 1_555 1_555
H30 C32 1_555 1_555
C33 C32 1_555 1_555
H31 C33 1_555 1_555
C34 C29 1_555 1_555
H32 C34 1_555 1_555
S1 O2 1_555 1_555
C35 S1 1_555 1_555
H33 C35 1_555 1_555
H34 C35 1_555 1_555
H35 C35 1_555 1_555
C36 S1 1_555 1_555
H36 C36 1_555 1_555
H37 C36 1_555 1_555
H38 C36 1_555 1_555
Cu1A N2 1_555 1_555
N2A Cu1 1_555 1_555
C2 C3 1_555 1_555
C9 C10 1_555 1_555
C15 C16 1_555 1_555
C21 C22 1_555 1_555
C27 C28 1_555 1_555
C33 C34 1_555 1_555

#END
