
#######################################################################
#
#                 Cambridge Crystallographic Data Centre
#                                CCDC 
#
#######################################################################
#
# If this CIF has been generated from an entry in the Cambridge 
# Structural Database, then it will include bibliographic, chemical, 
# crystal, experimental, refinement or atomic coordinate data resulting 
# from the CCDC's data processing and validation procedures.
#
#######################################################################

data_HIXVOA
_symmetry_cell_setting           monoclinic
_symmetry_space_group_name_H-M   'C 2/c'
_symmetry_Int_Tables_number      15
_space_group_name_Hall           '-C 2yn'
loop_
_symmetry_equiv_pos_site_id
_symmetry_equiv_pos_as_xyz
1 x,y,z
2 1/2+x,1/2+y,z
3 -x,y,1/2-z
4 1/2-x,1/2+y,1/2-z
5 -x,-y,-z
6 1/2-x,1/2-y,-z
7 x,-y,1/2+z
8 1/2+x,1/2-y,1/2+z
_cell_length_a                   23.5920(15)
_cell_length_b                   13.0888(8)
_cell_length_c                   22.7312(14)
_cell_angle_alpha                90
_cell_angle_beta                 115.052(1)
_cell_angle_gamma                90
_cell_volume                     6358.85
loop_
_atom_site_label
_atom_site_type_symbol
_atom_site_fract_x
_atom_site_fract_y
_atom_site_fract_z
Cd1 Cd 0.122709(9) 0.224177(14) 0.027795(9)
N1 N 0.23009(10) 0.22212(14) 0.10749(10)
N2 N 0.13603(11) 0.11412(16) 0.11821(11)
N3 N 0.01645(11) 0.24614(18) 0.01328(11)
N4 N 0.10958(11) 0.38045(18) 0.07922(11)
O1 O 0.16211(13) 0.34118(18) -0.02058(11)
O2 O 0.06442(14) 0.3360(2) -0.09083(15)
O3 O 0.05407(16) 1.0641(2) -0.0708(2)
O4 O 0.15202(14) 1.09229(19) -0.01820(12)
C1 C 0.27544(13) 0.27916(19) 0.10299(14)
H1 H 0.2661 0.3167 0.0653
C2 C 0.33509(14) 0.2846(2) 0.15166(15)
H2 H 0.3653 0.3250 0.1468
C3 C 0.34922(15) 0.2298(2) 0.20696(15)
H3 H 0.3890 0.2332 0.2409
C4 C 0.30377(14) 0.1694(2) 0.21170(13)
H4 H 0.3129 0.1307 0.2489
C5 C 0.24441(12) 0.16610(18) 0.16125(11)
C6 C 0.19442(13) 0.09994(19) 0.16359(12)
C7 C 0.20737(18) 0.0259(2) 0.21073(16)
H5 H 0.2483 0.0151 0.2412
C8 C 0.1591(2) -0.0320(3) 0.2122(2)
H6 H 0.1672 -0.0820 0.2439
C9 C 0.1002(2) -0.0158(3) 0.16768(19)
H7 H 0.0670 -0.0533 0.1684
C10 C 0.09033(16) 0.0570(2) 0.12123(16)
H8 H 0.0497 0.0674 0.0901
C11 C -0.02826(15) 0.1777(3) -0.01760(16)
H9 H -0.0193 0.1246 -0.0395
C12 C -0.08696(17) 0.1817(3) -0.01869(19)
H10 H -0.1172 0.1334 -0.0416
C13 C -0.0997(2) 0.2584(3) 0.0147(2)
H11 H -0.1385 0.2620 0.0160
C14 C -0.05462(17) 0.3296(3) 0.04600(18)
H12 H -0.0629 0.3825 0.0686
C15 C 0.00317(14) 0.3238(2) 0.04435(13)
C16 C 0.05211(14) 0.4030(2) 0.07368(13)
C17 C 0.03881(17) 0.4978(3) 0.09251(16)
H13 H -0.0012 0.5122 0.0887
C18 C 0.08508(19) 0.5695(3) 0.11663(16)
H14 H 0.0765 0.6335 0.1288
C19 C 0.14390(17) 0.5475(2) 0.12294(15)
H15 H 0.1761 0.5951 0.1397
C20 C 0.15394(15) 0.4515(2) 0.10346(14)
H16 H 0.1939 0.4357 0.1075
C21 C 0.1178(2) 0.3694(2) -0.07101(17)
C22 C 0.13066(16) 0.4526(2) -0.11028(13)
C23 C 0.18924(17) 0.4935(2) -0.08915(15)
H17 H 0.2217 0.4669 -0.0523
C24 C 0.20089(19) 0.5742(2) -0.12207(18)
H18 H 0.2406 0.6028 -0.1070
C25 C 0.1529(2) 0.6112(2) -0.17724(17)
C26 C 0.0946(2) 0.5681(2) -0.20101(16)
H19 H 0.0629 0.5920 -0.2394
C27 C 0.08320(16) 0.4882(2) -0.16737(15)
H20 H 0.0437 0.4585 -0.1831
C28 C 0.10815(19) 1.0469(2) -0.05931(18)
C29 C 0.12300(14) 0.9669(2) -0.09923(14)
C30 C 0.18277(16) 0.9357(3) -0.08246(17)
H21 H 0.2151 0.9648 -0.0466
C31 C 0.19649(18) 0.8612(3) -0.1178(2)
H22 H 0.2374 0.8391 -0.1052
C32 C 0.1491(2) 0.8210(2) -0.17123(16)
C33 C 0.0899(2) 0.8537(3) -0.18951(18)
H23 H 0.0579 0.8269 -0.2266
C34 C 0.07665(18) 0.9266(3) -0.15355(19)
H24 H 0.0356 0.9486 -0.1664
S1 S 0.16511(8) 0.72173(6) -0.21536(6)
O5 O 0.2295(2) 0.72708(19) -0.2026(2)
O6 O 0.1178(2) 0.72398(19) -0.28115(13)
Cd1_2 Cd 0.122709(9) 1.224177(14) 0.027795(9)
O4_2 O 0.15202(14) 0.09229(19) -0.01820(12)
O7 O 0.49350(16) 0.2930(3) 0.3111(2)
loop_
_geom_bond_atom_site_label_1
_geom_bond_atom_site_label_2
_geom_bond_site_symmetry_1
_geom_bond_site_symmetry_2
Cd1 N1 1_555 1_555
N1 C1 1_555 1_555
N2 Cd1 1_555 1_555
N3 Cd1 1_555 1_555
N4 Cd1 1_555 1_555
O1 Cd1 1_555 1_555
O2 C21 1_555 1_555
O3 C28 1_555 1_555
O4 C28 1_555 1_555
C1 H1 1_555 1_555
C2 C1 1_555 1_555
H2 C2 1_555 1_555
C3 C2 1_555 1_555
H3 C3 1_555 1_555
C4 C3 1_555 1_555
H4 C4 1_555 1_555
C5 N1 1_555 1_555
C6 N2 1_555 1_555
C7 C6 1_555 1_555
H5 C7 1_555 1_555
C8 C7 1_555 1_555
H6 C8 1_555 1_555
C9 C8 1_555 1_555
H7 C9 1_555 1_555
C10 N2 1_555 1_555
H8 C10 1_555 1_555
C11 N3 1_555 1_555
H9 C11 1_555 1_555
C12 C11 1_555 1_555
H10 C12 1_555 1_555
C13 C12 1_555 1_555
H11 C13 1_555 1_555
C14 C13 1_555 1_555
H12 C14 1_555 1_555
C15 N3 1_555 1_555
C16 N4 1_555 1_555
C17 C16 1_555 1_555
H13 C17 1_555 1_555
C18 C17 1_555 1_555
H14 C18 1_555 1_555
C19 C18 1_555 1_555
H15 C19 1_555 1_555
C20 N4 1_555 1_555
H16 C20 1_555 1_555
C21 O1 1_555 1_555
C22 C21 1_555 1_555
C23 C22 1_555 1_555
H17 C23 1_555 1_555
C24 C23 1_555 1_555
H18 C24 1_555 1_555
C25 C24 1_555 1_555
C26 C25 1_555 1_555
H19 C26 1_555 1_555
C27 C22 1_555 1_555
H20 C27 1_555 1_555
C28 C29 1_555 1_555
C29 C30 1_555 1_555
C30 H21 1_555 1_555
C31 C30 1_555 1_555
H22 C31 1_555 1_555
C32 C31 1_555 1_555
C33 C32 1_555 1_555
H23 C33 1_555 1_555
C34 C29 1_555 1_555
H24 C34 1_555 1_555
S1 C25 1_555 1_555
O5 S1 1_555 1_555
O6 S1 1_555 1_555
Cd1_2 O4 1_555 1_555
O4_2 Cd1 1_555 1_555
C4 C5 1_555 1_555
C5 C6 1_555 1_555
C9 C10 1_555 1_555
C14 C15 1_555 1_555
C15 C16 1_555 1_555
C19 C20 1_555 1_555
C26 C27 1_555 1_555
C32 S1 1_555 1_555
C33 C34 1_555 1_555

#END
