
#######################################################################
#
#                 Cambridge Crystallographic Data Centre
#                                CCDC 
#
#######################################################################
#
# If this CIF has been generated from an entry in the Cambridge 
# Structural Database, then it will include bibliographic, chemical, 
# crystal, experimental, refinement or atomic coordinate data resulting 
# from the CCDC's data processing and validation procedures.
#
#######################################################################

data_HIXVUG
_symmetry_cell_setting           monoclinic
_symmetry_space_group_name_H-M   'C 2/c'
_symmetry_Int_Tables_number      15
_space_group_name_Hall           '-C 2yn'
loop_
_symmetry_equiv_pos_site_id
_symmetry_equiv_pos_as_xyz
1 x,y,z
2 1/2+x,1/2+y,z
3 -x,y,1/2-z
4 1/2-x,1/2+y,1/2-z
5 -x,-y,-z
6 1/2-x,1/2-y,-z
7 x,-y,1/2+z
8 1/2+x,1/2-y,1/2+z
_cell_length_a                   22.995(5)
_cell_length_b                   12.265(2)
_cell_length_c                   17.901(3)
_cell_angle_alpha                90
_cell_angle_beta                 110.871(4)
_cell_angle_gamma                90
_cell_volume                     4717.41
loop_
_atom_site_label
_atom_site_type_symbol
_atom_site_fract_x
_atom_site_fract_y
_atom_site_fract_z
Cu1 Cu 0.324239(16) 0.20681(3) 0.210134(19)
S1 S 0.57534(4) -0.30125(6) 0.46700(4)
N1 N 0.26071(11) 0.30741(17) 0.13159(13)
N2 N 0.37361(10) 0.24879(19) 0.14049(13)
O1 O 0.38844(10) 0.10983(15) 0.27714(12)
O2 O 0.36083(11) -0.01451(19) 0.17974(13)
O3 O 0.61235(10) -0.2440(2) 0.53838(11)
O4 O 0.54321(10) -0.39923(17) 0.47358(13)
O5 O 0.76751(10) -0.32149(16) 0.26488(13)
O6 O 0.72466(11) -0.48506(17) 0.22797(13)
O7 O 0.36197(11) 0.34587(18) 0.30457(13)
C1 C 0.20605(14) 0.3410(3) 0.13121(19)
H1 H 0.1924 0.3168 0.1714
C2 C 0.16802(15) 0.4112(3) 0.0729(2)
H2 H 0.1296 0.4323 0.0745
C3 C 0.18676(15) 0.4492(3) 0.01338(19)
H3 H 0.1611 0.4946 -0.0263
C4 C 0.24570(13) 0.4184(2) 0.01321(16)
C5 C 0.27142(15) 0.4557(2) -0.04473(16)
H4 H 0.2477 0.4998 -0.0868
C6 C 0.32949(15) 0.4274(2) -0.03857(17)
H5 H 0.3455 0.4537 -0.0760
C7 C 0.36720(14) 0.3577(2) 0.02444(17)
C8 C 0.42960(16) 0.3300(3) 0.0375(2)
H6 H 0.4490 0.3572 0.0039
C9 C 0.46139(16) 0.2633(3) 0.0997(2)
H7 H 0.5026 0.2451 0.1089
C10 C 0.43153(14) 0.2228(2) 0.1493(2)
H8 H 0.4532 0.1754 0.1903
C11 C 0.34200(12) 0.3168(2) 0.07924(15)
C12 C 0.28090(12) 0.3476(2) 0.07401(15)
C13 C 0.39071(14) 0.0147(2) 0.24832(18)
C14 C 0.43587(12) -0.0634(2) 0.30507(16)
C15 C 0.48060(14) -0.0282(2) 0.37541(17)
H9 H 0.4818 0.0449 0.3895
C16 C 0.52354(14) -0.0995(2) 0.42518(17)
H10 H 0.5544 -0.0743 0.4713
C17 C 0.51996(13) -0.2088(2) 0.40549(16)
C18 C 0.47394(15) -0.2468(2) 0.33724(18)
H11 H 0.4708 -0.3209 0.3253
C19 C 0.43259(14) -0.1735(2) 0.28684(18)
H12 H 0.4022 -0.1985 0.2401
C20 C 0.73166(14) -0.3994(2) 0.26584(16)
C21 C 0.69394(13) -0.3774(2) 0.31889(16)
C22 C 0.71056(14) -0.2926(2) 0.37452(17)
H13 H 0.7457 -0.2509 0.3803
C23 C 0.67540(14) -0.2703(2) 0.42088(17)
H14 H 0.6869 -0.2143 0.4584
C24 C 0.62270(12) -0.3320(2) 0.41105(16)
C25 C 0.60529(13) -0.4170(2) 0.35579(17)
H15 H 0.5700 -0.4583 0.3497
C26 C 0.64122(14) -0.4389(2) 0.31037(17)
H16 H 0.6301 -0.4956 0.2735
H17 H 0.3655(19) 0.311(3) 0.3444(16)
H18 H 0.3356(15) 0.394(2) 0.297(2)
Cu1A Cu 0.824239(16) -0.29319(3) 0.210134(19)
O5A O 0.26751(10) 0.17851(16) 0.26488(13)
O8 O 0.4649(6) 0.4755(12) 0.3488(9)
loop_
_geom_bond_atom_site_label_1
_geom_bond_atom_site_label_2
_geom_bond_site_symmetry_1
_geom_bond_site_symmetry_2
Cu1 N1 1_555 1_555
S1 O3 1_555 1_555
N1 C1 1_555 1_555
N2 Cu1 1_555 1_555
O1 Cu1 1_555 1_555
O2 C13 1_555 1_555
O4 S1 1_555 1_555
O5 C20 1_555 1_555
O6 C20 1_555 1_555
O7 Cu1 1_555 1_555
C1 H1 1_555 1_555
C2 C1 1_555 1_555
H2 C2 1_555 1_555
C3 C2 1_555 1_555
H3 C3 1_555 1_555
C4 C3 1_555 1_555
C5 C4 1_555 1_555
H4 C5 1_555 1_555
C6 C5 1_555 1_555
H5 C6 1_555 1_555
C7 C6 1_555 1_555
C8 C7 1_555 1_555
H6 C8 1_555 1_555
C9 C8 1_555 1_555
H7 C9 1_555 1_555
C10 N2 1_555 1_555
H8 C10 1_555 1_555
C11 N2 1_555 1_555
C12 N1 1_555 1_555
C13 O1 1_555 1_555
C14 C13 1_555 1_555
C15 C14 1_555 1_555
H9 C15 1_555 1_555
C16 C15 1_555 1_555
H10 C16 1_555 1_555
C17 S1 1_555 1_555
C18 C17 1_555 1_555
H11 C18 1_555 1_555
C19 C14 1_555 1_555
H12 C19 1_555 1_555
C20 C21 1_555 1_555
C21 C22 1_555 1_555
C22 H13 1_555 1_555
C23 C22 1_555 1_555
H14 C23 1_555 1_555
C24 S1 1_555 1_555
C25 C24 1_555 1_555
H15 C25 1_555 1_555
C26 C21 1_555 1_555
H16 C26 1_555 1_555
H17 O7 1_555 1_555
H18 O7 1_555 1_555
Cu1A O5 1_555 1_555
O5A Cu1 1_555 1_555
C4 C12 1_555 1_555
C7 C11 1_555 1_555
C9 C10 1_555 1_555
C11 C12 1_555 1_555
C16 C17 1_555 1_555
C18 C19 1_555 1_555
C23 C24 1_555 1_555
C25 C26 1_555 1_555

#END
