
#######################################################################
#
#                 Cambridge Crystallographic Data Centre
#                                CCDC 
#
#######################################################################
#
# If this CIF has been generated from an entry in the Cambridge 
# Structural Database, then it will include bibliographic, chemical, 
# crystal, experimental, refinement or atomic coordinate data resulting 
# from the CCDC's data processing and validation procedures.
#
#######################################################################

data_HIXWIU
_symmetry_cell_setting           orthorhombic
_symmetry_space_group_name_H-M   'P 21 21 21'
_symmetry_Int_Tables_number      19
_space_group_name_Hall           'P 2ac 2ab'
loop_
_symmetry_equiv_pos_site_id
_symmetry_equiv_pos_as_xyz
1 x,y,z
2 1/2-x,-y,1/2+z
3 1/2+x,1/2-y,-z
4 -x,1/2+y,1/2-z
_cell_length_a                   7.654(2)
_cell_length_b                   11.578(2)
_cell_length_c                   17.771(3)
_cell_angle_alpha                90
_cell_angle_beta                 90
_cell_angle_gamma                90
_cell_volume                     1574.83
loop_
_atom_site_label
_atom_site_type_symbol
_atom_site_fract_x
_atom_site_fract_y
_atom_site_fract_z
Cd1 Cd -0.08849(3) -0.75470(2) -0.394717(12)
Cd2 Cd -0.21974(3) -0.26052(2) -0.381932(12)
O1 O 0.0578(4) -0.7050(2) -0.28668(17)
O2 O 0.0467(4) -0.6276(2) -0.17186(16)
O3 O -0.2611(3) -0.6360(2) -0.32096(14)
H1 H -0.3665 -0.6238 -0.3231
O4 O -0.0881(3) -0.4259(2) -0.32030(14)
H2 H -0.0988 -0.4747 -0.3535
O5 O -0.4062(4) -0.3302(3) -0.29878(17)
O6 O -0.4608(5) -0.4453(4) -0.2017(2)
O7 O -0.2784(4) -0.7300(2) -0.48751(15)
O8 O -0.3845(4) -0.6195(3) -0.57847(18)
O9 O -0.0330(3) -0.5701(2) -0.45131(15)
H3 H 0.0726 -0.5692 -0.4590
O10 O -0.3102(4) -0.4059(3) -0.47050(18)
H4 H -0.4064 -0.4319 -0.4817
O11 O -0.0349(4) -0.2654(3) -0.48013(16)
O12 O 0.0744(5) -0.3609(3) -0.57841(18)
O13 O -0.2193(5) -0.9117(3) -0.3448(3)
C1 C -0.0164(5) -0.6473(3) -0.2364(2)
C2 C -0.1951(4) -0.5939(3) -0.25219(19)
H5 H -0.2755 -0.6156 -0.2117
C3 C -0.1826(5) -0.4613(3) -0.25546(17)
H6 H -0.1181 -0.4352 -0.2110
C4 C -0.3652(5) -0.4087(3) -0.2523(2)
C5 C -0.2741(5) -0.6417(3) -0.52839(19)
C6 C -0.1234(5) -0.5546(3) -0.52066(19)
H7 H -0.0405 -0.5692 -0.5616
C7 C -0.1888(5) -0.4316(3) -0.5287(2)
H8 H -0.2495 -0.4250 -0.5770
C8 C -0.0378(5) -0.3450(3) -0.5282(2)
Cd1B Cd -0.58849(3) -0.74530(2) -0.605283(12)
Cd2C Cd 0.21974(3) -0.76052(2) -0.118068(12)
Cd2B Cd 0.28026(3) -0.23948(2) -0.618068(12)
O2C O -0.0467(4) -0.1276(2) -0.32814(16)
O8B O 0.1155(4) -0.8805(3) -0.42153(18)
O12B O -0.4256(5) -0.1391(3) -0.42159(18)
O14 O -0.7460(6) -0.3415(5) -0.3491(3)
O15 O 0.5947(6) -0.1525(6) -0.1595(3)
O16 O -0.3168(8) -0.0058(5) -0.0389(4)
loop_
_geom_bond_atom_site_label_1
_geom_bond_atom_site_label_2
_geom_bond_site_symmetry_1
_geom_bond_site_symmetry_2
Cd1 O1 1_555 1_555
Cd2 O4 1_555 1_555
O1 C1 1_555 1_555
O2 C1 1_555 1_555
O3 Cd1 1_555 1_555
H1 O3 1_555 1_555
O4 H2 1_555 1_555
O5 Cd2 1_555 1_555
O6 C4 1_555 1_555
O7 Cd1 1_555 1_555
O8 C5 1_555 1_555
O9 Cd1 1_555 1_555
H3 O9 1_555 1_555
O10 Cd2 1_555 1_555
H4 O10 1_555 1_555
O11 Cd2 1_555 1_555
O12 C8 1_555 1_555
O13 Cd1 1_555 1_555
C1 C2 1_555 1_555
C2 O3 1_555 1_555
H5 C2 1_555 1_555
C3 O4 1_555 1_555
H6 C3 1_555 1_555
C4 O5 1_555 1_555
C5 O7 1_555 1_555
C6 O9 1_555 1_555
H7 C6 1_555 1_555
C7 O10 1_555 1_555
H8 C7 1_555 1_555
C8 O11 1_555 1_555
Cd1B O8 1_555 1_555
Cd2C O2 1_555 1_555
Cd2B O12 1_555 1_555
O2C Cd2 1_555 1_555
O8B Cd1 1_555 1_555
O12B Cd2 1_555 1_555
C2 C3 1_555 1_555
C3 C4 1_555 1_555
C5 C6 1_555 1_555
C6 C7 1_555 1_555
C7 C8 1_555 1_555

#END
