
#######################################################################
#
#                 Cambridge Crystallographic Data Centre
#                                CCDC 
#
#######################################################################
#
# If this CIF has been generated from an entry in the Cambridge 
# Structural Database, then it will include bibliographic, chemical, 
# crystal, experimental, refinement or atomic coordinate data resulting 
# from the CCDC's data processing and validation procedures.
#
#######################################################################

data_HIXWIV
_symmetry_cell_setting           triclinic
_symmetry_space_group_name_H-M   'P -1'
_symmetry_Int_Tables_number      2
_space_group_name_Hall           '-P 1'
loop_
_symmetry_equiv_pos_site_id
_symmetry_equiv_pos_as_xyz
1 x,y,z
2 -x,-y,-z
_cell_length_a                   10.413(2)
_cell_length_b                   13.732(3)
_cell_length_c                   14.915(3)
_cell_angle_alpha                107.390(2)
_cell_angle_beta                 108.286(2)
_cell_angle_gamma                100.380(2)
_cell_volume                     1842.02
loop_
_atom_site_label
_atom_site_type_symbol
_atom_site_fract_x
_atom_site_fract_y
_atom_site_fract_z
Cd1 Cd 1.12917(3) 1.000601(19) 0.809955(19)
Cd2 Cd 1.0000 1.0000 1.0000
S1 S 0.24943(12) 0.58762(9) 0.57375(8)
S2 S 1.48092(10) 0.68897(7) 1.22826(7)
N1 N 1.0202(3) 1.0882(2) 0.7071(2)
N2 N 1.2382(3) 1.0064(2) 0.6986(2)
O1 O 0.9393(3) 0.8445(2) 0.72300(19)
O2 O 0.8876(3) 0.96526(18) 0.83039(17)
O3 O 0.2445(4) 0.4857(3) 0.5059(2)
O4 O 0.1713(4) 0.6504(3) 0.5332(3)
O5 O 0.0221(4) 0.4197(2) 0.8896(3)
H1 H 0.0046 0.4194 0.9394
O6 O 0.0386(4) 0.5915(3) 0.9552(3)
O7 O 1.3122(3) 0.9066(2) 0.8743(2)
O8 O 1.1756(3) 0.9544(2) 0.9522(2)
O9 O 1.6264(3) 0.6979(2) 1.2428(2)
O10 O 1.4446(3) 0.7264(2) 1.31471(19)
O11 O 1.2063(3) 0.16975(19) 0.9288(2)
O12 O 1.1030(3) 0.17139(18) 1.0395(2)
C1 C 0.9164(5) 1.1295(3) 0.7135(3)
H2 H 0.8745 1.1183 0.7577
C2 C 0.8674(5) 1.1892(4) 0.6569(3)
H3 H 0.7946 1.2175 0.6636
C3 C 0.9274(5) 1.2054(3) 0.5917(3)
H4 H 0.8956 1.2450 0.5533
C4 C 1.0372(5) 1.1625(3) 0.5822(3)
C5 C 1.1050(5) 1.1748(3) 0.5144(3)
H5 H 1.0764 1.2135 0.4743
C6 C 1.2078(5) 1.1320(3) 0.5080(3)
H6 H 1.2489 1.1408 0.4627
C7 C 1.2575(4) 1.0722(3) 0.5691(3)
C8 C 1.3683(5) 1.0288(4) 0.5671(3)
H7 H 1.4127 1.0363 0.5233
C9 C 1.4117(5) 0.9758(4) 0.6289(4)
H8 H 1.4851 0.9463 0.6276
C10 C 1.3438(5) 0.9667(3) 0.6939(3)
H9 H 1.3741 0.9307 0.7365
C11 C 1.1946(4) 1.0592(3) 0.6368(2)
C12 C 1.0808(4) 1.1042(3) 0.6425(2)
C13 C 0.8553(4) 0.8739(3) 0.7606(3)
C14 C 0.7060(4) 0.8011(3) 0.7187(3)
C15 C 0.6578(4) 0.7111(3) 0.6292(3)
H10 H 0.7187 0.6951 0.5967
C16 C 0.5197(5) 0.6453(3) 0.5884(3)
H11 H 0.4873 0.5857 0.5279
C17 C 0.4297(4) 0.6679(3) 0.6374(3)
C18 C 0.4776(4) 0.7552(3) 0.7287(3)
H12 H 0.4180 0.7684 0.7631
C19 C 0.6143(4) 0.8222(3) 0.7682(3)
H13 H 0.6460 0.8820 0.8283
C20 C 0.0513(4) 0.5167(4) 0.8921(3)
C21 C 0.1000(4) 0.5328(3) 0.8131(3)
C22 C 0.1636(5) 0.4636(3) 0.7669(3)
H14 H 0.1736 0.4050 0.7844
C23 C 0.2117(5) 0.4815(3) 0.6956(3)
H15 H 0.2553 0.4359 0.6653
C24 C 0.1945(4) 0.5679(3) 0.6695(3)
C25 C 0.1286(4) 0.6365(3) 0.7133(3)
H16 H 0.1144 0.6930 0.6932
C26 C 0.0852(4) 0.6199(3) 0.7863(3)
H17 H 0.0453 0.6674 0.8185
C27 C 1.2681(4) 0.9090(3) 0.9421(3)
C28 C 1.3225(4) 0.8563(3) 1.0154(3)
C29 C 1.2477(4) 0.8312(3) 1.0712(3)
H18 H 1.1646 0.8495 1.0655
C30 C 1.2946(4) 0.7793(3) 1.1355(3)
H19 H 1.2429 0.7617 1.1722
C31 C 1.4186(4) 0.7540(3) 1.1445(3)
C32 C 1.4971(4) 0.7808(3) 1.0915(3)
H20 H 1.5825 0.7655 1.0999
C33 C 1.4474(4) 0.8310(3) 1.0255(3)
H21 H 1.4983 0.8476 0.9880
C34 C 1.1812(4) 0.2153(3) 1.0050(3)
C35 C 1.2532(4) 0.3337(3) 1.0601(3)
C36 C 1.2604(4) 0.3861(3) 1.1571(3)
H22 H 1.2207 0.3477 1.1888
C37 C 1.3265(4) 0.4955(3) 1.2077(3)
H23 H 1.3325 0.5306 1.2733
C38 C 1.3831(4) 0.5514(3) 1.1593(3)
C39 C 1.3730(4) 0.5009(3) 1.0609(3)
H24 H 1.4094 0.5398 1.0283
C40 C 1.3084(4) 0.3923(3) 1.0121(3)
H25 H 1.3017 0.3577 0.9461
Cd1A Cd 0.87083(3) 0.999399(19) 1.190045(19)
Cd1_2 Cd 1.12917(3) 0.000601(19) 0.809955(19)
Cd1A_2 Cd 0.87083(3) 1.999399(19) 1.190045(19)
Cd2_2 Cd 1.0000 0.0000 1.0000
Cd2_3 Cd 1.0000 2.0000 1.0000
S1A S 1.75057(12) 1.41238(9) 1.42625(8)
S2A S 0.51908(10) 1.31103(7) 0.77174(7)
N1A N 0.9798(3) 0.9118(2) 1.2929(2)
N2A N 0.7618(3) 0.9936(2) 1.3014(2)
O1A O 1.0607(3) 1.1555(2) 1.27700(19)
O2A O 1.1124(3) 1.03474(18) 1.16961(17)
O3A O 1.7555(4) 1.5143(3) 1.4941(2)
O4A O 1.8287(4) 1.3496(3) 1.4668(3)
O5A O 1.9779(4) 1.5803(2) 1.1104(3)
H1A H 1.9954 1.5806 1.0606
O6A O 1.9614(4) 1.4085(3) 1.0448(3)
O7A O 0.6878(3) 1.0934(2) 1.1257(2)
O8A O 0.8244(3) 1.0456(2) 1.0478(2)
O9A O 0.3736(3) 1.3021(2) 0.7572(2)
O10A O 0.5554(3) 1.2736(2) 0.68529(19)
O11A O 0.7937(3) 1.83025(19) 1.0712(2)
O11_2 O 1.2063(3) 1.16975(19) 0.9288(2)
O11A_2 O 0.7937(3) 0.83025(19) 1.0712(2)
O12A O 0.8970(3) 1.82861(18) 0.9605(2)
O12_2 O 1.1030(3) 1.17139(18) 1.0395(2)
O12A_2 O 0.8970(3) 0.82861(18) 0.9605(2)
C1A C 1.0836(5) 0.8705(3) 1.2865(3)
H2A H 1.1255 0.8817 1.2423
C2A C 1.1326(5) 0.8108(4) 1.3431(3)
H3A H 1.2054 0.7825 1.3364
C3A C 1.0726(5) 0.7946(3) 1.4083(3)
H4A H 1.1044 0.7550 1.4467
C4A C 0.9628(5) 0.8375(3) 1.4178(3)
C5A C 0.8950(5) 0.8252(3) 1.4856(3)
H5A H 0.9236 0.7865 1.5257
C6A C 0.7922(5) 0.8680(3) 1.4920(3)
H6A H 0.7511 0.8592 1.5373
C7A C 0.7425(4) 0.9278(3) 1.4309(3)
C8A C 0.6317(5) 0.9712(4) 1.4329(3)
H7A H 0.5873 0.9637 1.4767
C9A C 0.5883(5) 1.0242(4) 1.3711(4)
H8A H 0.5149 1.0537 1.3724
C10A C 0.6562(5) 1.0333(3) 1.3061(3)
H9A H 0.6259 1.0693 1.2635
C11A C 0.8054(4) 0.9408(3) 1.3632(2)
C12A C 0.9192(4) 0.8958(3) 1.3575(2)
C13A C 1.1447(4) 1.1261(3) 1.2394(3)
C14A C 1.2940(4) 1.1989(3) 1.2813(3)
C15A C 1.3422(4) 1.2889(3) 1.3708(3)
H10A H 1.2813 1.3049 1.4033
C16A C 1.4803(5) 1.3547(3) 1.4116(3)
H11A H 1.5127 1.4143 1.4721
C17A C 1.5703(4) 1.3321(3) 1.3626(3)
C18A C 1.5224(4) 1.2448(3) 1.2713(3)
H12A H 1.5820 1.2316 1.2369
C19A C 1.3857(4) 1.1778(3) 1.2318(3)
H13A H 1.3540 1.1180 1.1717
C20A C 1.9487(4) 1.4833(4) 1.1079(3)
C21A C 1.9000(4) 1.4672(3) 1.1869(3)
C22A C 1.8364(5) 1.5364(3) 1.2331(3)
H14A H 1.8264 1.5950 1.2156
C23A C 1.7883(5) 1.5185(3) 1.3044(3)
H15A H 1.7447 1.5641 1.3347
C24A C 1.8055(4) 1.4321(3) 1.3305(3)
C25A C 1.8714(4) 1.3635(3) 1.2867(3)
H16A H 1.8856 1.3070 1.3068
C26A C 1.9148(4) 1.3801(3) 1.2137(3)
H17A H 1.9547 1.3326 1.1815
C27A C 0.7319(4) 1.0910(3) 1.0579(3)
C28A C 0.6775(4) 1.1437(3) 0.9846(3)
C29A C 0.7523(4) 1.1688(3) 0.9288(3)
H18A H 0.8354 1.1505 0.9345
C30A C 0.7054(4) 1.2207(3) 0.8645(3)
H19A H 0.7571 1.2383 0.8278
C31A C 0.5814(4) 1.2460(3) 0.8555(3)
C32A C 0.5029(4) 1.2192(3) 0.9085(3)
H20A H 0.4175 1.2345 0.9001
C33A C 0.5526(4) 1.1690(3) 0.9745(3)
H21A H 0.5017 1.1524 1.0120
C34A C 0.8188(4) 1.7847(3) 0.9950(3)
C35A C 0.7468(4) 1.6663(3) 0.9399(3)
C36A C 0.7396(4) 1.6139(3) 0.8429(3)
H22A H 0.7793 1.6523 0.8112
C37A C 0.6735(4) 1.5045(3) 0.7923(3)
H23A H 0.6675 1.4694 0.7267
C38A C 0.6169(4) 1.4486(3) 0.8407(3)
C39A C 0.6270(4) 1.4991(3) 0.9391(3)
H24A H 0.5906 1.4602 0.9717
C40A C 0.6916(4) 1.6077(3) 0.9879(3)
H25A H 0.6983 1.6423 1.0539
loop_
_geom_bond_atom_site_label_1
_geom_bond_atom_site_label_2
_geom_bond_site_symmetry_1
_geom_bond_site_symmetry_2
Cd1 N1 1_555 1_555
Cd2 O2 1_555 1_555
S1 O3 1_555 1_555
S2 O9 1_555 1_555
N1 C1 1_555 1_555
N2 Cd1 1_555 1_555
O1 Cd1 1_555 1_555
O2 Cd1 1_555 1_555
O4 S1 1_555 1_555
O5 H1 1_555 1_555
O6 C20 1_555 1_555
O7 Cd1 1_555 1_555
O8 Cd1 1_555 1_555
O10 S2 1_555 1_555
O11 C34 1_555 1_555
O12 C34 1_555 1_555
C1 H2 1_555 1_555
C2 C1 1_555 1_555
H3 C2 1_555 1_555
C3 C2 1_555 1_555
H4 C3 1_555 1_555
C4 C3 1_555 1_555
C5 C4 1_555 1_555
H5 C5 1_555 1_555
C6 C5 1_555 1_555
H6 C6 1_555 1_555
C7 C6 1_555 1_555
C8 C7 1_555 1_555
H7 C8 1_555 1_555
C9 C8 1_555 1_555
H8 C9 1_555 1_555
C10 N2 1_555 1_555
H9 C10 1_555 1_555
C11 N2 1_555 1_555
C12 N1 1_555 1_555
C13 O1 1_555 1_555
C14 C13 1_555 1_555
C15 C14 1_555 1_555
H10 C15 1_555 1_555
C16 C15 1_555 1_555
H11 C16 1_555 1_555
C17 S1 1_555 1_555
C18 C17 1_555 1_555
H12 C18 1_555 1_555
C19 C14 1_555 1_555
H13 C19 1_555 1_555
C20 O5 1_555 1_555
C21 C20 1_555 1_555
C22 C21 1_555 1_555
H14 C22 1_555 1_555
C23 C22 1_555 1_555
H15 C23 1_555 1_555
C24 S1 1_555 1_555
C25 C24 1_555 1_555
H16 C25 1_555 1_555
C26 C21 1_555 1_555
H17 C26 1_555 1_555
C27 O7 1_555 1_555
C28 C27 1_555 1_555
C29 C28 1_555 1_555
H18 C29 1_555 1_555
C30 C29 1_555 1_555
H19 C30 1_555 1_555
C31 S2 1_555 1_555
C32 C31 1_555 1_555
H20 C32 1_555 1_555
C33 C28 1_555 1_555
H21 C33 1_555 1_555
C34 C35 1_555 1_555
C35 C36 1_555 1_555
C36 H22 1_555 1_555
C37 C36 1_555 1_555
H23 C37 1_555 1_555
C38 S2 1_555 1_555
C39 C38 1_555 1_555
H24 C39 1_555 1_555
C40 C35 1_555 1_555
H25 C40 1_555 1_555
Cd1A N1A 1_555 1_555
Cd1_2 O11 1_555 1_555
Cd1A_2 O11A 1_555 1_555
Cd2_2 O12 1_555 1_555
Cd2_3 O12A 1_555 1_555
S1A O3A 1_555 1_555
S2A O9A 1_555 1_555
N1A C1A 1_555 1_555
N2A Cd1A 1_555 1_555
O1A Cd1A 1_555 1_555
O2A Cd2 1_555 1_555
O4A S1A 1_555 1_555
O5A H1A 1_555 1_555
O6A C20A 1_555 1_555
O7A Cd1A 1_555 1_555
O8A Cd2 1_555 1_555
O10A S2A 1_555 1_555
O11A C34A 1_555 1_555
O11_2 Cd1 1_555 1_555
O11A_2 Cd1A 1_555 1_555
O12A C34A 1_555 1_555
O12_2 Cd2 1_555 1_555
O12A_2 Cd2 1_555 1_555
C1A H2A 1_555 1_555
C2A C1A 1_555 1_555
H3A C2A 1_555 1_555
C3A C2A 1_555 1_555
H4A C3A 1_555 1_555
C4A C3A 1_555 1_555
C5A C4A 1_555 1_555
H5A C5A 1_555 1_555
C6A C5A 1_555 1_555
H6A C6A 1_555 1_555
C7A C6A 1_555 1_555
C8A C7A 1_555 1_555
H7A C8A 1_555 1_555
C9A C8A 1_555 1_555
H8A C9A 1_555 1_555
C10A N2A 1_555 1_555
H9A C10A 1_555 1_555
C11A N2A 1_555 1_555
C12A N1A 1_555 1_555
C13A O1A 1_555 1_555
C14A C13A 1_555 1_555
C15A C14A 1_555 1_555
H10A C15A 1_555 1_555
C16A C15A 1_555 1_555
H11A C16A 1_555 1_555
C17A S1A 1_555 1_555
C18A C17A 1_555 1_555
H12A C18A 1_555 1_555
C19A C14A 1_555 1_555
H13A C19A 1_555 1_555
C20A O5A 1_555 1_555
C21A C20A 1_555 1_555
C22A C21A 1_555 1_555
H14A C22A 1_555 1_555
C23A C22A 1_555 1_555
H15A C23A 1_555 1_555
C24A S1A 1_555 1_555
C25A C24A 1_555 1_555
H16A C25A 1_555 1_555
C26A C21A 1_555 1_555
H17A C26A 1_555 1_555
C27A O7A 1_555 1_555
C28A C27A 1_555 1_555
C29A C28A 1_555 1_555
H18A C29A 1_555 1_555
C30A C29A 1_555 1_555
H19A C30A 1_555 1_555
C31A S2A 1_555 1_555
C32A C31A 1_555 1_555
H20A C32A 1_555 1_555
C33A C28A 1_555 1_555
H21A C33A 1_555 1_555
C34A C35A 1_555 1_555
C35A C36A 1_555 1_555
C36A H22A 1_555 1_555
C37A C36A 1_555 1_555
H23A C37A 1_555 1_555
C38A S2A 1_555 1_555
C39A C38A 1_555 1_555
H24A C39A 1_555 1_555
C40A C35A 1_555 1_555
H25A C40A 1_555 1_555
Cd2 O8 1_555 1_555
O2 C13 1_555 1_555
O8 C27 1_555 1_555
C4 C12 1_555 1_555
C7 C11 1_555 1_555
C9 C10 1_555 1_555
C11 C12 1_555 1_555
C16 C17 1_555 1_555
C18 C19 1_555 1_555
C23 C24 1_555 1_555
C25 C26 1_555 1_555
C30 C31 1_555 1_555
C32 C33 1_555 1_555
C37 C38 1_555 1_555
C39 C40 1_555 1_555
Cd1A O2A 1_555 1_555
Cd1A O8A 1_555 1_555
O2A C13A 1_555 1_555
O8A C27A 1_555 1_555
C4A C12A 1_555 1_555
C7A C11A 1_555 1_555
C9A C10A 1_555 1_555
C11A C12A 1_555 1_555
C16A C17A 1_555 1_555
C18A C19A 1_555 1_555
C23A C24A 1_555 1_555
C25A C26A 1_555 1_555
C30A C31A 1_555 1_555
C32A C33A 1_555 1_555
C37A C38A 1_555 1_555
C39A C40A 1_555 1_555

#END
