
#######################################################################
#
#                 Cambridge Crystallographic Data Centre
#                                CCDC 
#
#######################################################################
#
# If this CIF has been generated from an entry in the Cambridge 
# Structural Database, then it will include bibliographic, chemical, 
# crystal, experimental, refinement or atomic coordinate data resulting 
# from the CCDC's data processing and validation procedures.
#
#######################################################################

data_HIXWUG
_symmetry_cell_setting           monoclinic
_symmetry_space_group_name_H-M   'P 21/c'
_symmetry_Int_Tables_number      14
_space_group_name_Hall           '-P 2ybc'
loop_
_symmetry_equiv_pos_site_id
_symmetry_equiv_pos_as_xyz
1 x,y,z
2 -x,1/2+y,1/2-z
3 -x,-y,-z
4 x,1/2-y,1/2+z
_cell_length_a                   12.0311(16)
_cell_length_b                   24.574(3)
_cell_length_c                   8.9357(11)
_cell_angle_alpha                90
_cell_angle_beta                 99.245(14)
_cell_angle_gamma                90
_cell_volume                     2607.54
loop_
_atom_site_label
_atom_site_type_symbol
_atom_site_fract_x
_atom_site_fract_y
_atom_site_fract_z
Mn1 Mn -0.06030(3) -0.167410(14) 1.01113(4)
O1 O -0.21319(15) -0.20295(8) 0.91252(19)
O2 O -0.33656(17) -0.24541(8) 0.7431(2)
O3 O 0.02393(15) -0.22204(7) 0.88203(18)
O4 O -0.02550(16) -0.28892(6) 0.71807(19)
O5 O -0.09129(14) -0.11666(6) 0.76719(18)
N1 N -0.13331(18) -0.09271(8) 1.1003(2)
N2 N 0.08276(18) -0.10932(8) 1.0802(2)
C1 C -0.2541(2) -0.21440(9) 0.7769(3)
C2 C -0.02296(19) -0.23923(9) 0.7543(3)
C3 C -0.07919(19) -0.19837(9) 0.6376(2)
H1 H -0.0737 -0.2114 0.5354
C4 C -0.20629(19) -0.18616(9) 0.6492(3)
H2 H -0.2537 -0.1943 0.5520
C5 C -0.2010(2) -0.12405(10) 0.6745(3)
H3 H -0.2633 -0.1098 0.7212
C6 C -0.1875(2) -0.09543(11) 0.5263(3)
H4 H -0.2008 -0.0566 0.5319
H5 H -0.2378 -0.1106 0.4408
C7 C -0.0627(2) -0.10780(10) 0.5157(3)
H6 H -0.0559 -0.1286 0.4255
H7 H -0.0188 -0.0747 0.5165
C8 C -0.0268(2) -0.14136(9) 0.6603(3)
H8 H 0.0546 -0.1416 0.6954
C17 C -0.2430(2) -0.08636(12) 1.1059(3)
H17 H -0.2919 -0.1147 1.0719
C18 C -0.2869(3) -0.03994(14) 1.1593(4)
H18 H -0.3638 -0.0369 1.1606
C19 C -0.2154(3) 0.00189(13) 1.2108(3)
H19 H -0.2430 0.0336 1.2484
C20 C -0.1021(3) -0.00379(11) 1.2058(3)
H20 H -0.0523 0.0241 1.2405
C21 C -0.0624(2) -0.05157(10) 1.1486(3)
C22 C 0.0574(2) -0.06082(9) 1.1374(3)
C23 C 0.1418(3) -0.02223(12) 1.1795(3)
H21 H 0.1236 0.0114 1.2169
C24 C 0.2515(3) -0.03368(13) 1.1661(3)
H22 H 0.3079 -0.0081 1.1947
C25 C 0.2768(3) -0.08315(14) 1.1101(4)
H23 H 0.3504 -0.0920 1.1003
C26 C 0.1899(2) -0.11971(12) 1.0682(3)
H24 H 0.2071 -0.1533 1.0297
Mn1C Mn -0.06030(3) -0.332590(14) 0.51113(4)
O4C O -0.02550(16) -0.21108(6) 1.21807(19)
O6 O -0.44911(18) -0.43186(9) -0.9720(3)
O7 O -0.62063(16) -0.46886(7) -0.9938(2)
O8 O -0.4936(2) -0.36033(11) -0.5347(3)
O9 O -0.5276(2) -0.43251(9) -0.6784(3)
O10 O -0.75642(16) -0.36731(8) -0.8356(2)
C9 C -0.5575(2) -0.42961(11) -0.9716(3)
C10 C -0.5268(2) -0.38378(12) -0.6679(3)
C11 C -0.5681(2) -0.34529(10) -0.7982(3)
H9 H -0.5144 -0.3155 -0.8015
C12 C -0.5987(2) -0.37222(10) -0.9566(3)
H10 H -0.5682 -0.3494 -1.0304
C13 C -0.7277(2) -0.36660(11) -0.9858(3)
H11 H -0.7660 -0.3947 -1.0528
C14 C -0.7578(3) -0.30858(13) -1.0394(4)
H12 H -0.8377 -0.3047 -1.0763
H13 H -0.7155 -0.2972 -1.1177
C15 C -0.7217(3) -0.27683(11) -0.8900(4)
H14 H -0.6601 -0.2521 -0.8979
H15 H -0.7842 -0.2565 -0.8614
C16 C -0.6847(2) -0.32286(11) -0.7780(3)
H16 H -0.6899 -0.3134 -0.6728
H25 H -0.433(4) -0.4625(19) -0.995(5)
H26 H -0.482(4) -0.3259(17) -0.539(5)
O11 O -0.46457(19) -0.25616(10) -0.5324(3)
H27 H -0.425(3) -0.2515(14) -0.599(4)
H28 H -0.424(3) -0.2551(16) -0.462(5)
loop_
_geom_bond_atom_site_label_1
_geom_bond_atom_site_label_2
_geom_bond_site_symmetry_1
_geom_bond_site_symmetry_2
Mn1 O1 1_555 1_555
O1 C1 1_555 1_555
O2 C1 1_555 1_555
O3 Mn1 1_555 1_555
O4 C2 1_555 1_555
O5 Mn1 1_555 1_555
O6 C9 1_555 1_555
O7 C9 1_555 1_555
O8 C10 1_555 1_555
O9 C10 1_555 1_555
O10 C13 1_555 1_555
O11 H27 1_555 1_555
N1 Mn1 1_555 1_555
N2 Mn1 1_555 1_555
C1 C4 1_555 1_555
C2 O3 1_555 1_555
C3 C2 1_555 1_555
H1 C3 1_555 1_555
C4 C3 1_555 1_555
H2 C4 1_555 1_555
C5 O5 1_555 1_555
H3 C5 1_555 1_555
C6 C5 1_555 1_555
H4 C6 1_555 1_555
H5 C6 1_555 1_555
C7 C6 1_555 1_555
H6 C7 1_555 1_555
H7 C7 1_555 1_555
C8 O5 1_555 1_555
H8 C8 1_555 1_555
C9 C12 1_555 1_555
C10 C11 1_555 1_555
C11 H9 1_555 1_555
C12 C11 1_555 1_555
H10 C12 1_555 1_555
C13 C12 1_555 1_555
H11 C13 1_555 1_555
C14 C13 1_555 1_555
H12 C14 1_555 1_555
H13 C14 1_555 1_555
C15 C14 1_555 1_555
H14 C15 1_555 1_555
H15 C15 1_555 1_555
C16 O10 1_555 1_555
H16 C16 1_555 1_555
C17 N1 1_555 1_555
H17 C17 1_555 1_555
C18 C17 1_555 1_555
H18 C18 1_555 1_555
C19 C18 1_555 1_555
H19 C19 1_555 1_555
C20 C19 1_555 1_555
H20 C20 1_555 1_555
C21 N1 1_555 1_555
C22 N2 1_555 1_555
C23 C22 1_555 1_555
H21 C23 1_555 1_555
C24 C23 1_555 1_555
H22 C24 1_555 1_555
C25 C24 1_555 1_555
H23 C25 1_555 1_555
C26 N2 1_555 1_555
H24 C26 1_555 1_555
H25 O6 1_555 1_555
H26 O8 1_555 1_555
H28 O11 1_555 1_555
Mn1C O4 1_555 1_555
O4C Mn1 1_555 1_555
C3 C8 1_555 1_555
C4 C5 1_555 1_555
C7 C8 1_555 1_555
C11 C16 1_555 1_555
C15 C16 1_555 1_555
C20 C21 1_555 1_555
C21 C22 1_555 1_555
C25 C26 1_555 1_555

#END
