
#######################################################################
#
#                 Cambridge Crystallographic Data Centre
#                                CCDC 
#
#######################################################################
#
# If this CIF has been generated from an entry in the Cambridge 
# Structural Database, then it will include bibliographic, chemical, 
# crystal, experimental, refinement or atomic coordinate data resulting 
# from the CCDC's data processing and validation procedures.
#
#######################################################################

data_HIXWAN
_symmetry_cell_setting           monoclinic
_symmetry_space_group_name_H-M   'P 21/n'
_symmetry_Int_Tables_number      14
_space_group_name_Hall           '-P 2yn'
loop_
_symmetry_equiv_pos_site_id
_symmetry_equiv_pos_as_xyz
1 x,y,z
2 1/2-x,1/2+y,1/2-z
3 -x,-y,-z
4 1/2+x,1/2-y,1/2+z
_cell_length_a                   6.8234(4)
_cell_length_b                   16.4101(10)
_cell_length_c                   24.0987(15)
_cell_angle_alpha                90
_cell_angle_beta                 90.635(1)
_cell_angle_gamma                90
_cell_volume                     2698.23
loop_
_atom_site_label
_atom_site_type_symbol
_atom_site_fract_x
_atom_site_fract_y
_atom_site_fract_z
Zn1 Zn 0.766580(18) 0.628998(7) 0.106360(5)
S1 S 0.26674(4) 1.108203(16) 0.068303(11)
N1 N 0.72403(13) 0.50212(5) 0.09783(4)
N2 N 0.79210(13) 0.60872(5) 0.01878(4)
O1 O 0.67956(12) 0.74236(4) 0.09344(3)
O2 O 0.37245(11) 0.69935(4) 0.08324(3)
O3 O 0.14344(12) 1.12188(4) 0.02064(3)
O4 O 0.44143(11) 1.15619(4) 0.07546(3)
O5 O -0.15841(12) 1.12412(5) 0.31554(3)
O6 O -0.41300(13) 1.16488(8) 0.26444(4)
O7 O 1.04854(12) 0.64153(5) 0.13366(3)
C1 C 0.49810(17) 0.75423(6) 0.08625(4)
C2 C 0.43755(16) 0.84250(6) 0.08000(4)
C3 C 0.57594(16) 0.90278(7) 0.09013(5)
H1 H 0.7039 0.8887 0.0997
C4 C 0.52329(17) 0.98345(7) 0.08601(5)
H2 H 0.6155 1.0240 0.0929
C5 C 0.33388(16) 1.00406(6) 0.07161(4)
C6 C 0.19752(17) 0.94457(7) 0.05969(5)
H3 H 0.0711 0.9588 0.0486
C7 C 0.25017(18) 0.86360(7) 0.06443(5)
H4 H 0.1581 0.8231 0.0570
C8 C -0.24076(18) 1.14353(7) 0.27072(5)
C9 C -0.10975(17) 1.13889(6) 0.22022(4)
C10 C 0.08712(18) 1.12192(7) 0.22621(5)
H5 H 0.1419 1.1155 0.2614
C11 C 0.20333(18) 1.11445(8) 0.17971(5)
H6 H 0.3371 1.1049 0.1838
C12 C 0.12122(16) 1.12106(6) 0.12776(4)
C13 C -0.07640(16) 1.13838(6) 0.12131(4)
H7 H -0.1315 1.1437 0.0860
C14 C -0.19097(17) 1.14762(7) 0.16794(4)
H8 H -0.3235 1.1598 0.1640
C15 C 0.69681(18) 0.45040(7) 0.14021(5)
H9 H 0.6964 0.4708 0.1762
C16 C 0.6694(2) 0.36802(8) 0.13197(7)
H10 H 0.6525 0.3334 0.1621
C17 C 0.66727(18) 0.33818(8) 0.08030(6)
H11 H 0.6459 0.2829 0.0743
C18 C 0.69687(17) 0.38954(7) 0.03601(6)
H12 H 0.6965 0.3693 0.0000
C19 C 0.72737(15) 0.47205(6) 0.04589(5)
C20 C 0.76243(14) 0.53212(6) 0.00150(4)
C21 C 0.76327(16) 0.51190(8) -0.05408(5)
H13 H 0.7419 0.4584 -0.0653
C22 C 0.79593(18) 0.57152(8) -0.09232(5)
H14 H 0.7987 0.5587 -0.1299
C23 C 0.82480(18) 0.65063(8) -0.07516(5)
H15 H 0.8458 0.6921 -0.1007
C24 C 0.82174(17) 0.66676(8) -0.01883(5)
H16 H 0.8411 0.7200 -0.0068
H21 H 1.0430(18) 0.6515(7) 0.1669(2)
H22 H 1.1430(10) 0.6700(5) 0.1201(4)
Zn1A Zn -0.266580(18) 1.128998(7) 0.393640(5)
O5A O 0.65841(12) 0.62412(5) 0.18446(3)
O8 O 0.3438(6) 0.31278(19) 0.23339(12)
H17 H 0.3250 0.2648 0.2412
C25 C 0.2533(8) 0.3617(3) 0.27190(13)
H18 H 0.1462 0.3326 0.2881
H19 H 0.2048 0.4100 0.2540
H20 H 0.3460 0.3766 0.3004
loop_
_geom_bond_atom_site_label_1
_geom_bond_atom_site_label_2
_geom_bond_site_symmetry_1
_geom_bond_site_symmetry_2
Zn1 N1 1_555 1_555
S1 O3 1_555 1_555
N1 C15 1_555 1_555
N2 Zn1 1_555 1_555
O1 Zn1 1_555 1_555
O2 C1 1_555 1_555
O4 S1 1_555 1_555
O5 C8 1_555 1_555
O6 C8 1_555 1_555
O7 Zn1 1_555 1_555
C1 O1 1_555 1_555
C2 C1 1_555 1_555
C3 C2 1_555 1_555
H1 C3 1_555 1_555
C4 C3 1_555 1_555
H2 C4 1_555 1_555
C5 S1 1_555 1_555
C6 C5 1_555 1_555
H3 C6 1_555 1_555
C7 C2 1_555 1_555
H4 C7 1_555 1_555
C8 C9 1_555 1_555
C9 C10 1_555 1_555
C10 H5 1_555 1_555
C11 C10 1_555 1_555
H6 C11 1_555 1_555
C12 S1 1_555 1_555
C13 C12 1_555 1_555
H7 C13 1_555 1_555
C14 C9 1_555 1_555
H8 C14 1_555 1_555
C15 H9 1_555 1_555
C16 C15 1_555 1_555
H10 C16 1_555 1_555
C17 C16 1_555 1_555
H11 C17 1_555 1_555
C18 C17 1_555 1_555
H12 C18 1_555 1_555
C19 N1 1_555 1_555
C20 N2 1_555 1_555
C21 C20 1_555 1_555
H13 C21 1_555 1_555
C22 C21 1_555 1_555
H14 C22 1_555 1_555
C23 C22 1_555 1_555
H15 C23 1_555 1_555
C24 N2 1_555 1_555
H16 C24 1_555 1_555
O8 H17 1_555 1_555
C25 O8 1_555 1_555
H18 C25 1_555 1_555
H19 C25 1_555 1_555
H20 C25 1_555 1_555
H21 O7 1_555 1_555
H22 O7 1_555 1_555
Zn1A O5 1_555 1_555
O5A Zn1 1_555 1_555
C4 C5 1_555 1_555
C6 C7 1_555 1_555
C11 C12 1_555 1_555
C13 C14 1_555 1_555
C18 C19 1_555 1_555
C19 C20 1_555 1_555
C23 C24 1_555 1_555

#END
