
#######################################################################
#
#                 Cambridge Crystallographic Data Centre
#                                CCDC 
#
#######################################################################
#
# If this CIF has been generated from an entry in the Cambridge 
# Structural Database, then it will include bibliographic, chemical, 
# crystal, experimental, refinement or atomic coordinate data resulting 
# from the CCDC's data processing and validation procedures.
#
#######################################################################

data_HIXWOB01
_symmetry_cell_setting           monoclinic
_symmetry_space_group_name_H-M   'P 21/c'
_symmetry_Int_Tables_number      14
_space_group_name_Hall           '-P 2ybc'
loop_
_symmetry_equiv_pos_site_id
_symmetry_equiv_pos_as_xyz
1 x,y,z
2 -x,1/2+y,1/2-z
3 -x,-y,-z
4 x,1/2-y,1/2+z
_cell_length_a                   12.354(3)
_cell_length_b                   15.312(3)
_cell_length_c                   12.315(3)
_cell_angle_alpha                90
_cell_angle_beta                 110.330(3)
_cell_angle_gamma                90
_cell_volume                     2184.45
loop_
_atom_site_label
_atom_site_type_symbol
_atom_site_fract_x
_atom_site_fract_y
_atom_site_fract_z
Cd1 Cd 0.007896(11) 0.030146(8) 0.845302(10)
S1 S -0.51458(4) 0.35599(3) 0.37975(4)
O1 O -0.14215(12) 0.12390(10) 0.80756(12)
O2 O -0.02336(12) 0.16515(10) 0.71794(14)
O3 O -0.95453(11) 0.09131(9) 0.07662(12)
O4 O -0.83205(12) 0.07937(11) -0.01782(12)
O5 O -0.56981(12) 0.40560(9) 0.44463(13)
O6 O -0.47525(12) 0.40004(10) 0.29752(13)
N1 N -0.11240(15) -0.03286(10) 0.66517(14)
N2 N 0.12025(14) -0.03585(10) 0.75228(13)
C1 C -0.11873(16) 0.16787(12) 0.73203(17)
C2 C -0.21509(15) 0.21964(12) 0.64721(16)
C3 C -0.32882(16) 0.20148(13) 0.63894(16)
H1 H -0.3431 0.1625 0.6903
C4 C -0.41964(16) 0.24139(13) 0.55455(17)
H2 H -0.4954 0.2289 0.5478
C5 C -0.39656(15) 0.30044(12) 0.47988(15)
C6 C -0.28466(16) 0.32023(12) 0.48737(16)
H3 H -0.2706 0.3600 0.4367
C7 C -0.19403(15) 0.27926(12) 0.57236(17)
H4 H -0.1184 0.2920 0.5791
C8 C -0.61135(15) 0.27270(12) 0.30426(14)
C9 C -0.57550(15) 0.21362(13) 0.23840(16)
H5 H -0.4983 0.2113 0.2448
C10 C -0.65525(16) 0.15811(13) 0.16304(16)
H6 H -0.6319 0.1188 0.1179
C11 C -0.77081(15) 0.16119(12) 0.15493(15)
C12 C -0.80460(15) 0.21764(12) 0.22569(16)
H7 H -0.8808 0.2175 0.2230
C13 C -0.72551(15) 0.27423(12) 0.30035(16)
H8 H -0.7483 0.3125 0.3470
C14 C -0.85852(15) 0.10588(12) 0.06567(16)
C15 C 0.23563(18) -0.03237(12) 0.79674(18)
H9 H 0.2703 -0.0052 0.8679
C16 C 0.3051(2) -0.06750(14) 0.7413(2)
H10 H 0.3851 -0.0637 0.7739
C17 C 0.2531(2) -0.10839(16) 0.6365(2)
H11 H 0.2978 -0.1332 0.5974
C18 C 0.1348(2) -0.11229(15) 0.5901(2)
H12 H 0.0988 -0.1394 0.5190
C19 C 0.06906(18) -0.07555(12) 0.64967(17)
C20 C -0.05964(18) -0.07586(12) 0.60345(16)
C21 C -0.1227(2) -0.11781(17) 0.5008(2)
H13 H -0.0853 -0.1474 0.4581
C22 C -0.2414(2) -0.11490(18) 0.4634(2)
H14 H -0.2848 -0.1430 0.3952
C23 C -0.2952(2) -0.07073(16) 0.5266(2)
H15 H -0.3753 -0.0679 0.5021
C24 C -0.22761(19) -0.03044(13) 0.62766(19)
H16 H -0.2637 -0.0005 0.6713
Cd1B Cd -1.007896(11) -0.030146(8) 0.154698(10)
Cd1_2 Cd -0.992104(11) 0.030146(8) -0.154698(10)
O3B O -0.04547(11) -0.09131(9) 0.92338(12)
O4_2 O 0.16795(12) 0.07937(11) 0.98218(12)
loop_
_geom_bond_atom_site_label_1
_geom_bond_atom_site_label_2
_geom_bond_site_symmetry_1
_geom_bond_site_symmetry_2
Cd1 O1 1_555 1_555
S1 O5 1_555 1_555
O1 C1 1_555 1_555
O2 Cd1 1_555 1_555
O3 C14 1_555 1_555
O4 C14 1_555 1_555
O6 S1 1_555 1_555
N1 Cd1 1_555 1_555
N2 Cd1 1_555 1_555
C1 O2 1_555 1_555
C2 C1 1_555 1_555
C3 C2 1_555 1_555
H1 C3 1_555 1_555
C4 C3 1_555 1_555
H2 C4 1_555 1_555
C5 S1 1_555 1_555
C6 C5 1_555 1_555
H3 C6 1_555 1_555
C7 C2 1_555 1_555
H4 C7 1_555 1_555
C8 S1 1_555 1_555
C9 C8 1_555 1_555
H5 C9 1_555 1_555
C10 C9 1_555 1_555
H6 C10 1_555 1_555
C11 C10 1_555 1_555
C12 C11 1_555 1_555
H7 C12 1_555 1_555
C13 C8 1_555 1_555
H8 C13 1_555 1_555
C14 C11 1_555 1_555
C15 N2 1_555 1_555
H9 C15 1_555 1_555
C16 C15 1_555 1_555
H10 C16 1_555 1_555
C17 C16 1_555 1_555
H11 C17 1_555 1_555
C18 C17 1_555 1_555
H12 C18 1_555 1_555
C19 N2 1_555 1_555
C20 N1 1_555 1_555
C21 C20 1_555 1_555
H13 C21 1_555 1_555
C22 C21 1_555 1_555
H14 C22 1_555 1_555
C23 C22 1_555 1_555
H15 C23 1_555 1_555
C24 N1 1_555 1_555
H16 C24 1_555 1_555
Cd1B O3 1_555 1_555
Cd1_2 O4 1_555 1_555
O3B Cd1 1_555 1_555
O4_2 Cd1 1_555 1_555
C4 C5 1_555 1_555
C6 C7 1_555 1_555
C12 C13 1_555 1_555
C18 C19 1_555 1_555
C19 C20 1_555 1_555
C23 C24 1_555 1_555

#END
