
#######################################################################
#
#                 Cambridge Crystallographic Data Centre
#                                CCDC 
#
#######################################################################
#
# If this CIF has been generated from an entry in the Cambridge 
# Structural Database, then it will include bibliographic, chemical, 
# crystal, experimental, refinement or atomic coordinate data resulting 
# from the CCDC's data processing and validation procedures.
#
#######################################################################

data_HIXWIU01
_symmetry_cell_setting           orthorhombic
_symmetry_space_group_name_H-M   'P 21 21 21'
_symmetry_Int_Tables_number      19
_space_group_name_Hall           'P 2ac 2ab'
loop_
_symmetry_equiv_pos_site_id
_symmetry_equiv_pos_as_xyz
1 x,y,z
2 1/2-x,-y,1/2+z
3 1/2+x,1/2-y,-z
4 -x,1/2+y,1/2-z
_cell_length_a                   7.6932(3)
_cell_length_b                   11.5268(3)
_cell_length_c                   17.6619(7)
_cell_angle_alpha                90
_cell_angle_beta                 90
_cell_angle_gamma                90
_cell_volume                     1566.22
loop_
_atom_site_label
_atom_site_type_symbol
_atom_site_fract_x
_atom_site_fract_y
_atom_site_fract_z
Cd1 Cd 0.59075(3) 0.24409(3) 0.396444(16)
Cd2 Cd 0.71867(4) 0.73940(3) 0.380680(16)
O1 O 0.7813(4) 0.2711(2) 0.48898(16)
O2 O 0.8928(4) 0.3866(3) 0.57658(19)
O3 O 0.5355(4) 0.4310(3) 0.45238(17)
H1 H 0.4292 0.4443 0.4592
O4 O 0.8148(4) 0.5969(3) 0.47195(19)
H2 H 0.8897 0.6430 0.4891
O5 O 0.5392(4) 0.7400(3) 0.48235(16)
O6 O 0.4261(4) 0.6406(3) 0.57905(19)
O7 O 0.9079(4) 0.6696(3) 0.29804(18)
O8 O 0.9656(5) 0.5476(3) 0.2038(2)
O9 O 0.5886(4) 0.5727(2) 0.32102(18)
H3 H 0.6038 0.5250 0.3563
O10 O 0.7614(4) 0.3616(3) 0.32249(18)
H4 H 0.8700 0.3694 0.3234
O11 O 0.4411(4) 0.2954(2) 0.28857(18)
O12 O 0.4543(4) 0.3720(2) 0.17282(19)
O13 O 0.7159(5) 0.0900(3) 0.3397(3)
H5 H 0.671(4) 0.029(2) 0.353(3)
H6 H 0.817(2) 0.076(3) 0.329(4)
C1 C 0.7784(6) 0.3619(4) 0.5284(3)
C2 C 0.6279(6) 0.4472(4) 0.5225(3)
H13 H 0.5465 0.4340 0.5628
C3 C 0.6906(6) 0.5714(4) 0.5295(3)
H14 H 0.7498 0.5811 0.5770
C4 C 0.5398(6) 0.6581(4) 0.5297(3)
C5 C 0.8677(6) 0.5879(4) 0.2528(3)
C6 C 0.6851(6) 0.5365(4) 0.2558(2)
H15 H 0.6205 0.5618 0.2124
C7 C 0.6962(6) 0.4039(4) 0.2532(2)
H16 H 0.7731 0.3808 0.2131
C8 C 0.5164(6) 0.3521(4) 0.2375(3)
Cd1B Cd 1.09075(3) 0.25591(3) 0.603556(16)
Cd2B Cd 0.21867(4) 0.76060(3) 0.619320(16)
Cd2C Cd 0.28133(4) 0.23940(3) 0.119320(16)
O2B O 0.3928(4) 0.1134(3) 0.42342(19)
O6B O 0.9261(4) 0.8594(3) 0.42095(19)
O12C O 0.5457(4) 0.8720(2) 0.32718(19)
O14 O 0.7616(5) 0.1625(3) 0.1454(2)
H7 H 0.698(4) 0.117(4) 0.168(3)
H8 H 0.854(3) 0.165(4) 0.169(2)
O15 O 0.1990(6) 0.4882(3) 0.4557(2)
H9 H 0.129(6) 0.498(4) 0.490(2)
H10 H 0.200(8) 0.547(3) 0.430(3)
O16 O 0.0873(5) 0.3292(4) 0.3463(3)
H11 H 0.184(3) 0.305(4) 0.335(3)
H12 H 0.075(7) 0.393(3) 0.326(4)
loop_
_geom_bond_atom_site_label_1
_geom_bond_atom_site_label_2
_geom_bond_site_symmetry_1
_geom_bond_site_symmetry_2
Cd1 O1 1_555 1_555
Cd2 O4 1_555 1_555
O1 C1 1_555 1_555
O2 C1 1_555 1_555
O3 Cd1 1_555 1_555
H1 O3 1_555 1_555
O4 H2 1_555 1_555
O5 Cd2 1_555 1_555
O6 C4 1_555 1_555
O7 Cd2 1_555 1_555
O8 C5 1_555 1_555
O9 Cd2 1_555 1_555
H3 O9 1_555 1_555
O10 Cd1 1_555 1_555
H4 O10 1_555 1_555
O11 Cd1 1_555 1_555
O12 C8 1_555 1_555
O13 Cd1 1_555 1_555
H5 O13 1_555 1_555
H6 O13 1_555 1_555
O14 H7 1_555 1_555
H8 O14 1_555 1_555
O15 H9 1_555 1_555
H10 O15 1_555 1_555
O16 H11 1_555 1_555
H12 O16 1_555 1_555
C1 C2 1_555 1_555
C2 O3 1_555 1_555
H13 C2 1_555 1_555
C3 O4 1_555 1_555
H14 C3 1_555 1_555
C4 O5 1_555 1_555
C5 O7 1_555 1_555
C6 O9 1_555 1_555
H15 C6 1_555 1_555
C7 O10 1_555 1_555
H16 C7 1_555 1_555
C8 O11 1_555 1_555
Cd1B O2 1_555 1_555
Cd2B O6 1_555 1_555
Cd2C O12 1_555 1_555
O2B Cd1 1_555 1_555
O6B Cd2 1_555 1_555
O12C Cd2 1_555 1_555
C2 C3 1_555 1_555
C3 C4 1_555 1_555
C5 C6 1_555 1_555
C6 C7 1_555 1_555
C7 C8 1_555 1_555

#END
