
#######################################################################
#
#                 Cambridge Crystallographic Data Centre
#                                CCDC 
#
#######################################################################
#
# If this CIF has been generated from an entry in the Cambridge 
# Structural Database, then it will include bibliographic, chemical, 
# crystal, experimental, refinement or atomic coordinate data resulting 
# from the CCDC's data processing and validation procedures.
#
#######################################################################

data_HIXWOB
_symmetry_cell_setting           monoclinic
_symmetry_space_group_name_H-M   'P 21/c'
_symmetry_Int_Tables_number      14
_space_group_name_Hall           '-P 2ybc'
loop_
_symmetry_equiv_pos_site_id
_symmetry_equiv_pos_as_xyz
1 x,y,z
2 -x,1/2+y,1/2-z
3 -x,-y,-z
4 x,1/2-y,1/2+z
_cell_length_a                   12.3570(9)
_cell_length_b                   15.3292(12)
_cell_length_c                   12.3221(9)
_cell_angle_alpha                90
_cell_angle_beta                 110.344(1)
_cell_angle_gamma                90
_cell_volume                     2188.49
loop_
_atom_site_label
_atom_site_type_symbol
_atom_site_fract_x
_atom_site_fract_y
_atom_site_fract_z
Cd1 Cd 1.007873(15) 1.030161(12) 0.345297(15)
S1 S 0.51455(5) 0.64413(4) 0.12033(6)
N1 N 1.12040(19) 0.96426(13) 0.25260(19)
N2 N 0.8880(2) 0.96710(14) 0.1649(2)
O1 O 0.95458(15) 0.90881(12) 0.42306(16)
O2 O 0.83225(16) 0.92070(15) 0.51779(17)
O3 O 0.56961(15) 0.59463(12) 0.05534(17)
O4 O 0.47524(16) 0.60017(13) 0.20240(17)
O5 O 0.14229(16) 0.87610(13) -0.30765(16)
O6 O 0.02311(16) 0.83481(13) -0.21814(19)
C1 C 1.2356(2) 0.96769(17) 0.2970(3)
H1 H 1.2704 0.9949 0.3681
C2 C 1.3051(3) 0.9324(2) 0.2414(3)
H2 H 1.3851 0.9360 0.2740
C3 C 1.2529(3) 0.8919(2) 0.1368(3)
H3 H 1.2974 0.8674 0.0973
C4 C 1.1347(3) 0.8877(2) 0.0907(3)
H4 H 1.0988 0.8600 0.0201
C5 C 1.0693(2) 0.92468(18) 0.1495(2)
C6 C 0.9406(3) 0.92412(18) 0.1034(2)
C7 C 0.8772(3) 0.8819(2) 0.0010(3)
H5 H 0.9144 0.8521 -0.0417
C8 C 0.7593(3) 0.8851(3) -0.0360(3)
H6 H 0.7159 0.8567 -0.1040
C9 C 0.7052(3) 0.9295(2) 0.0262(3)
H7 H 0.6251 0.9327 0.0012
C10 C 0.7726(3) 0.96967(18) 0.1273(3)
H8 H 0.7365 0.9996 0.1708
C11 C 0.8588(2) 0.89419(17) 0.4339(2)
C12 C 0.7710(2) 0.83891(17) 0.3452(2)
C13 C 0.6556(2) 0.84159(18) 0.3372(2)
H9 H 0.6323 0.8805 0.3827
C14 C 0.5758(2) 0.78655(18) 0.2617(2)
H10 H 0.4986 0.7891 0.2551
C15 C 0.6117(2) 0.72746(17) 0.1960(2)
C16 C 0.7252(2) 0.72612(17) 0.1996(2)
H11 H 0.7479 0.6881 0.1526
C17 C 0.8041(2) 0.78230(17) 0.2743(2)
H12 H 0.8803 0.7822 0.2771
C18 C 0.1187(2) 0.83216(17) -0.2319(2)
C19 C 0.2152(2) 0.78037(17) -0.1473(2)
C20 C 0.3287(2) 0.79846(19) -0.1384(2)
H13 H 0.3431 0.8378 -0.1892
C21 C 0.4193(2) 0.75842(18) -0.0548(2)
H14 H 0.4950 0.7706 -0.0486
C22 C 0.3967(2) 0.69963(17) 0.0202(2)
C23 C 0.2845(2) 0.68002(17) 0.0121(2)
H15 H 0.2704 0.6400 0.0624
C24 C 0.1942(2) 0.72107(17) -0.0720(2)
H16 H 0.1186 0.7088 -0.0781
Cd1B Cd 0.992127(15) 0.969839(12) 0.654703(15)
Cd1B_2 Cd -0.007873(15) 0.969839(12) -0.345297(15)
O2B O 1.16775(16) 1.07930(15) 0.48221(17)
O5B O 0.85771(16) 1.12390(13) 0.30765(16)
O6B O 0.97689(16) 1.16519(13) 0.21814(19)
loop_
_geom_bond_atom_site_label_1
_geom_bond_atom_site_label_2
_geom_bond_site_symmetry_1
_geom_bond_site_symmetry_2
Cd1 N1 1_555 1_555
S1 O3 1_555 1_555
N1 C1 1_555 1_555
N2 Cd1 1_555 1_555
O1 Cd1 1_555 1_555
O2 C11 1_555 1_555
O4 S1 1_555 1_555
O5 C18 1_555 1_555
O6 C18 1_555 1_555
C1 H1 1_555 1_555
C2 C1 1_555 1_555
H2 C2 1_555 1_555
C3 C2 1_555 1_555
H3 C3 1_555 1_555
C4 C3 1_555 1_555
H4 C4 1_555 1_555
C5 N1 1_555 1_555
C6 N2 1_555 1_555
C7 C6 1_555 1_555
H5 C7 1_555 1_555
C8 C7 1_555 1_555
H6 C8 1_555 1_555
C9 C8 1_555 1_555
H7 C9 1_555 1_555
C10 N2 1_555 1_555
H8 C10 1_555 1_555
C11 O1 1_555 1_555
C12 C11 1_555 1_555
C13 C12 1_555 1_555
H9 C13 1_555 1_555
C14 C13 1_555 1_555
H10 C14 1_555 1_555
C15 S1 1_555 1_555
C16 C15 1_555 1_555
H11 C16 1_555 1_555
C17 C12 1_555 1_555
H12 C17 1_555 1_555
C18 C19 1_555 1_555
C19 C20 1_555 1_555
C20 H13 1_555 1_555
C21 C20 1_555 1_555
H14 C21 1_555 1_555
C22 S1 1_555 1_555
C23 C22 1_555 1_555
H15 C23 1_555 1_555
C24 C19 1_555 1_555
H16 C24 1_555 1_555
Cd1B O2 1_555 1_555
Cd1B_2 O5 1_555 1_555
O2B Cd1 1_555 1_555
O5B Cd1 1_555 1_555
O6B Cd1 1_555 1_555
O6 Cd1B_2 1_555 1_555
C4 C5 1_555 1_555
C5 C6 1_555 1_555
C9 C10 1_555 1_555
C14 C15 1_555 1_555
C16 C17 1_555 1_555
C21 C22 1_555 1_555
C23 C24 1_555 1_555

#END
