
#######################################################################
#
#                 Cambridge Crystallographic Data Centre
#                                CCDC 
#
#######################################################################
#
# If this CIF has been generated from an entry in the Cambridge 
# Structural Database, then it will include bibliographic, chemical, 
# crystal, experimental, refinement or atomic coordinate data resulting 
# from the CCDC's data processing and validation procedures.
#
#######################################################################

data_HIXWER
_symmetry_cell_setting           monoclinic
_symmetry_space_group_name_H-M   'P 21/n'
_symmetry_Int_Tables_number      14
_space_group_name_Hall           '-P 2yn'
loop_
_symmetry_equiv_pos_site_id
_symmetry_equiv_pos_as_xyz
1 x,y,z
2 1/2-x,1/2+y,1/2-z
3 -x,-y,-z
4 1/2+x,1/2-y,1/2+z
_cell_length_a                   8.1894(9)
_cell_length_b                   21.468(2)
_cell_length_c                   16.5536(18)
_cell_angle_alpha                90
_cell_angle_beta                 101.536(2)
_cell_angle_gamma                90
_cell_volume                     2851.5
loop_
_atom_site_label
_atom_site_type_symbol
_atom_site_fract_x
_atom_site_fract_y
_atom_site_fract_z
Cd1 Cd 0.37858(6) 0.10938(2) 0.11577(3)
S1 S 1.2100(2) 0.07382(8) 0.52498(10)
N1 N 0.3743(6) 0.0841(2) -0.0199(3)
N2 N 0.2655(6) 0.0104(2) 0.0919(3)
O1 O 0.6758(5) 0.12932(18) 0.1653(3)
O2 O 0.5052(6) 0.1087(2) 0.2493(3)
O3 O 1.3050(5) 0.02524(18) 0.4965(2)
O4 O 1.1345(5) 0.06339(19) 0.5953(2)
O5 O 1.6188(5) 0.3448(2) 0.6257(3)
O6 O 1.8144(6) 0.2873(2) 0.5938(3)
C1 C 0.6495(9) 0.1192(3) 0.2363(4)
C2 C 0.7941(8) 0.1151(3) 0.3088(4)
C3 C 0.9570(8) 0.1186(3) 0.2987(4)
H1 H 0.9799 0.1278 0.2472
C4 C 1.0859(7) 0.1087(3) 0.3648(4)
H2 H 1.1959 0.1108 0.3583
C5 C 1.0493(8) 0.0953(3) 0.4417(4)
C6 C 0.8889(8) 0.0941(3) 0.4522(3)
H3 H 0.8659 0.0873 0.5042
C7 C 0.7608(8) 0.1028(3) 0.3855(4)
H4 H 0.6509 0.1003 0.3923
C8 C 1.6676(9) 0.2946(3) 0.6034(4)
C9 C 1.5513(8) 0.2396(3) 0.5851(3)
C10 C 1.6074(8) 0.1849(3) 0.5572(4)
H5 H 1.7174 0.1821 0.5509
C11 C 1.5039(9) 0.1345(3) 0.5384(4)
H6 H 1.5436 0.0974 0.5206
C12 C 1.3406(8) 0.1396(3) 0.5464(3)
C13 C 1.2801(7) 0.1942(3) 0.5752(3)
H7 H 1.1700 0.1968 0.5816
C14 C 1.3871(8) 0.2446(3) 0.5942(3)
H8 H 1.3488 0.2817 0.6129
C15 C 0.4287(8) 0.1230(3) -0.0752(4)
C16 C 0.5093(9) 0.1781(3) -0.0482(4)
H9 H 0.5282 0.1884 0.0075
C17 C 0.5611(10) 0.2175(3) -0.1027(5)
H10 H 0.6152 0.2543 -0.0836
C18 C 0.5346(10) 0.2037(4) -0.1862(5)
H11 H 0.5700 0.2314 -0.2223
C19 C 0.4580(10) 0.1505(4) -0.2152(4)
H12 H 0.4424 0.1412 -0.2711
C20 C 0.4000(9) 0.1078(4) -0.1601(4)
C21 C 0.3173(9) 0.0526(4) -0.1857(4)
H13 H 0.2974 0.0415 -0.2411
C22 C 0.2658(8) 0.0152(3) -0.1303(4)
H14 H 0.2106 -0.0218 -0.1475
C23 C 0.2954(7) 0.0322(3) -0.0467(4)
C24 C 0.2394(7) -0.0092(3) 0.0141(4)
C25 C 0.1594(8) -0.0662(3) -0.0090(4)
H15 H 0.1423 -0.0790 -0.0637
C26 C 0.1069(8) -0.1027(3) 0.0477(5)
H16 H 0.0523 -0.1400 0.0316
C27 C 0.1347(8) -0.0842(3) 0.1298(5)
C28 C 0.0833(9) -0.1198(3) 0.1915(5)
H17 H 0.0314 -0.1580 0.1777
C29 C 0.1076(10) -0.0998(4) 0.2698(5)
H18 H 0.0702 -0.1235 0.3095
C30 C 0.1894(11) -0.0433(4) 0.2914(5)
H19 H 0.2091 -0.0302 0.3461
C31 C 0.2418(9) -0.0062(3) 0.2326(5)
H20 H 0.2945 0.0317 0.2474
C32 C 0.2137(8) -0.0270(3) 0.1498(4)
Cd1C Cd 1.87858(6) 0.39062(2) 0.61577(3)
O5C O 0.1188(5) 0.1552(2) 0.1257(3)
O6C O 0.3144(6) 0.2127(2) 0.0938(3)
loop_
_geom_bond_atom_site_label_1
_geom_bond_atom_site_label_2
_geom_bond_site_symmetry_1
_geom_bond_site_symmetry_2
Cd1 N1 1_555 1_555
S1 O3 1_555 1_555
N1 C15 1_555 1_555
N2 Cd1 1_555 1_555
O1 Cd1 1_555 1_555
O2 Cd1 1_555 1_555
O4 S1 1_555 1_555
O5 C8 1_555 1_555
O6 C8 1_555 1_555
C1 O1 1_555 1_555
C2 C1 1_555 1_555
C3 C2 1_555 1_555
H1 C3 1_555 1_555
C4 C3 1_555 1_555
H2 C4 1_555 1_555
C5 S1 1_555 1_555
C6 C5 1_555 1_555
H3 C6 1_555 1_555
C7 C2 1_555 1_555
H4 C7 1_555 1_555
C8 C9 1_555 1_555
C9 C10 1_555 1_555
C10 H5 1_555 1_555
C11 C10 1_555 1_555
H6 C11 1_555 1_555
C12 S1 1_555 1_555
C13 C12 1_555 1_555
H7 C13 1_555 1_555
C14 C9 1_555 1_555
H8 C14 1_555 1_555
C15 C16 1_555 1_555
C16 H9 1_555 1_555
C17 C16 1_555 1_555
H10 C17 1_555 1_555
C18 C17 1_555 1_555
H11 C18 1_555 1_555
C19 C18 1_555 1_555
H12 C19 1_555 1_555
C20 C15 1_555 1_555
C21 C20 1_555 1_555
H13 C21 1_555 1_555
C22 C21 1_555 1_555
H14 C22 1_555 1_555
C23 N1 1_555 1_555
C24 N2 1_555 1_555
C25 C24 1_555 1_555
H15 C25 1_555 1_555
C26 C25 1_555 1_555
H16 C26 1_555 1_555
C27 C26 1_555 1_555
C28 C27 1_555 1_555
H17 C28 1_555 1_555
C29 C28 1_555 1_555
H18 C29 1_555 1_555
C30 C29 1_555 1_555
H19 C30 1_555 1_555
C31 C30 1_555 1_555
H20 C31 1_555 1_555
C32 N2 1_555 1_555
Cd1C O5 1_555 1_555
O5C Cd1 1_555 1_555
O6C Cd1 1_555 1_555
O2 C1 1_555 1_555
O6 Cd1C 1_555 1_555
C4 C5 1_555 1_555
C6 C7 1_555 1_555
C11 C12 1_555 1_555
C13 C14 1_555 1_555
C19 C20 1_555 1_555
C22 C23 1_555 1_555
C23 C24 1_555 1_555
C27 C32 1_555 1_555
C31 C32 1_555 1_555

#END
