
#######################################################################
#
#                 Cambridge Crystallographic Data Centre
#                                CCDC 
#
#######################################################################
#
# If this CIF has been generated from an entry in the Cambridge 
# Structural Database, then it will include bibliographic, chemical, 
# crystal, experimental, refinement or atomic coordinate data resulting 
# from the CCDC's data processing and validation procedures.
#
#######################################################################

data_HIXXOC
_symmetry_cell_setting           monoclinic
_symmetry_space_group_name_H-M   'P 21/c'
_symmetry_Int_Tables_number      14
_space_group_name_Hall           '-P 2ybc'
loop_
_symmetry_equiv_pos_site_id
_symmetry_equiv_pos_as_xyz
1 x,y,z
2 -x,1/2+y,1/2-z
3 -x,-y,-z
4 x,1/2-y,1/2+z
_cell_length_a                   13.3794(9)
_cell_length_b                   17.8630(11)
_cell_length_c                   10.7329(7)
_cell_angle_alpha                90
_cell_angle_beta                 95.444(2)
_cell_angle_gamma                90
_cell_volume                     2553.55
loop_
_atom_site_label
_atom_site_type_symbol
_atom_site_fract_x
_atom_site_fract_y
_atom_site_fract_z
Cu1 Cu -0.24046(5) 0.12430(4) 0.15136(6)
O1 O -0.0901(3) 0.1439(3) 0.1632(5)
H1 H -0.0703 0.1832 0.2120
H2 H -0.0482 0.1425 0.1014
N1 N -0.2646(4) 0.2094(3) 0.0314(4)
N2 N -0.4008(4) 0.1481(3) -0.0786(4)
H3 H -0.4241 0.1344 -0.1546
N3 N -0.3853(4) 0.0972(3) 0.1266(4)
N4 N -0.3720(4) 0.0454(3) 0.3292(5)
H4 H -0.3997 0.0534 0.3992
N5 N -0.2141(4) 0.0332(3) 0.2543(5)
N6 N -0.2543(4) 0.3026(3) -0.1744(5)
C1 C -0.2014(5) 0.2691(3) 0.0341(5)
H5 H -0.1590 0.2789 0.1084
C2 C -0.1968(5) 0.3149(3) -0.0653(5)
H6 H -0.1525 0.3566 -0.0587
C3 C -0.3190(4) 0.2474(3) -0.1770(5)
H7 H -0.3611 0.2380 -0.2517
C4 C -0.3277(4) 0.2015(3) -0.0713(5)
C5 C -0.4430(4) 0.1124(3) 0.0192(6)
C6 C -0.5444(5) 0.0947(4) 0.0017(6)
H8 H -0.5829 0.1056 -0.0751
C7 C -0.5880(5) 0.0606(4) 0.0992(7)
H9 H -0.6572 0.0478 0.0899
C8 C -0.5305(5) 0.0455(4) 0.2097(6)
H10 H -0.5597 0.0231 0.2778
C9 C -0.4292(4) 0.0635(3) 0.2198(5)
C10 C -0.2752(4) 0.0161(3) 0.3414(5)
C11 C -0.2442(5) -0.0289(4) 0.4448(6)
H11 H -0.2879 -0.0368 0.5084
C12 C -0.1515(5) -0.0614(4) 0.4543(6)
C13 C -0.0899(5) -0.0482(4) 0.3565(7)
H12 H -0.0263 -0.0720 0.3571
C14 C -0.1228(5) -0.0011(4) 0.2615(6)
H13 H -0.0802 0.0082 0.1973
C15 C -0.1151(6) -0.1110(4) 0.5617(7)
H14 H -0.1725 -0.1285 0.6040
H15 H -0.0692 -0.0828 0.6210
H16 H -0.0796 -0.1541 0.5304
Cl1 Cl -0.14791(19) 0.05827(12) -0.1435(2)
O2 O -0.2039(3) 0.0473(3) -0.0418(4)
O3 O -0.1979(10) 0.0993(8) -0.2368(11)
O4 O -0.1151(11) -0.0050(6) -0.1986(13)
O5 O -0.0652(8) 0.0994(7) -0.0951(12)
Cu1C Cu -0.24046(5) 0.37570(4) -0.34864(6)
N6C N -0.2543(4) 0.1974(3) 0.3256(5)
Cl2 Cl -0.5121(2) 0.14394(13) -0.42805(17)
O9 O -0.5393(4) 0.1386(4) -0.3063(4)
O10 O -0.5247(6) 0.0797(5) -0.4904(8)
O11 O -0.4401(10) 0.1918(8) -0.4486(13)
O12 O -0.5968(9) 0.1719(9) -0.4969(15)
O15 O -0.0030(6) 0.2372(4) -0.2353(8)
H17 H 0.0537 0.2358 -0.2460
H18 H -0.0188 0.1998 -0.2023
O16 O 0.1969(9) 0.2303(7) -0.2627(11)
C16 C 0.1892(16) 0.1621(14) -0.065(2)
H19 H 0.2273 0.1312 -0.0050
H21 H 0.1310 0.1352 -0.1001
C17 C 0.2532(13) 0.1831(12) -0.1675(16)
H22 H 0.3132 0.2106 -0.1311
H23 H 0.2762 0.1371 -0.2076
C18 C 0.2492(16) 0.2707(16) -0.357(2)
H24 H 0.2788 0.2352 -0.4137
H25 H 0.3034 0.3025 -0.3157
C19 C 0.1695(17) 0.3180(13) -0.427(2)
H27 H 0.1192 0.2852 -0.4664
H28 H 0.1393 0.3512 -0.3710
O6? O -0.2224(12) 0.0300(11) -0.2302(15)
O7? O -0.0796(12) 0.0056(8) -0.1618(18)
O8? O -0.1599(11) 0.1264(6) -0.2011(13)
O13? O -0.4126(9) 0.1288(18) -0.413(3)
O14? O -0.4923(13) 0.2145(9) -0.4570(15)
H20? H 0.1685 0.2068 -0.0252
H26? H 0.1987 0.3468 -0.4899
loop_
_geom_bond_atom_site_label_1
_geom_bond_atom_site_label_2
_geom_bond_site_symmetry_1
_geom_bond_site_symmetry_2
Cu1 O1 1_555 1_555
O1 H1 1_555 1_555
H2 O1 1_555 1_555
N1 Cu1 1_555 1_555
N2 H3 1_555 1_555
N3 Cu1 1_555 1_555
N4 H4 1_555 1_555
N5 Cu1 1_555 1_555
N6 C2 1_555 1_555
C1 N1 1_555 1_555
H5 C1 1_555 1_555
C2 C1 1_555 1_555
H6 C2 1_555 1_555
C3 N6 1_555 1_555
H7 C3 1_555 1_555
C4 N1 1_555 1_555
C5 N2 1_555 1_555
C6 C5 1_555 1_555
H8 C6 1_555 1_555
C7 C6 1_555 1_555
H9 C7 1_555 1_555
C8 C7 1_555 1_555
H10 C8 1_555 1_555
C9 N3 1_555 1_555
C10 N4 1_555 1_555
C11 C10 1_555 1_555
H11 C11 1_555 1_555
C12 C11 1_555 1_555
C13 C12 1_555 1_555
H12 C13 1_555 1_555
C14 N5 1_555 1_555
H13 C14 1_555 1_555
C15 C12 1_555 1_555
H14 C15 1_555 1_555
H15 C15 1_555 1_555
H16 C15 1_555 1_555
Cl1 O2 1_555 1_555
O2 Cu1 1_555 1_555
O3 Cl1 1_555 1_555
O4 Cl1 1_555 1_555
O5 Cl1 1_555 1_555
Cl2 O9 1_555 1_555
O10 Cl2 1_555 1_555
O11 Cl2 1_555 1_555
O12 Cl2 1_555 1_555
O15 H17 1_555 1_555
H18 O15 1_555 1_555
O16 C17 1_555 1_555
C16 H19 1_555 1_555
H21 C16 1_555 1_555
C17 C16 1_555 1_555
H22 C17 1_555 1_555
H23 C17 1_555 1_555
C18 O16 1_555 1_555
H24 C18 1_555 1_555
H25 C18 1_555 1_555
C19 C18 1_555 1_555
H27 C19 1_555 1_555
H28 C19 1_555 1_555
Cu1C N6 1_555 1_555
N6C Cu1 1_555 1_555
N2 C4 1_555 1_555
N3 C5 1_555 1_555
N4 C9 1_555 1_555
N5 C10 1_555 1_555
C3 C4 1_555 1_555
C8 C9 1_555 1_555
C13 C14 1_555 1_555

#END
