
#######################################################################
#
#                 Cambridge Crystallographic Data Centre
#                                CCDC 
#
#######################################################################
#
# If this CIF has been generated from an entry in the Cambridge 
# Structural Database, then it will include bibliographic, chemical, 
# crystal, experimental, refinement or atomic coordinate data resulting 
# from the CCDC's data processing and validation procedures.
#
#######################################################################

data_HIXYIY
_symmetry_cell_setting           monoclinic
_symmetry_space_group_name_H-M   'P 2/c'
_symmetry_Int_Tables_number      13
_space_group_name_Hall           '-P 2yc'
loop_
_symmetry_equiv_pos_site_id
_symmetry_equiv_pos_as_xyz
1 x,y,z
2 -x,y,1/2-z
3 -x,-y,-z
4 x,-y,1/2+z
_cell_length_a                   7.7523(3)
_cell_length_b                   7.7629(3)
_cell_length_c                   26.4542(9)
_cell_angle_alpha                90
_cell_angle_beta                 97.806(2)
_cell_angle_gamma                90
_cell_volume                     1577.27
loop_
_atom_site_label
_atom_site_type_symbol
_atom_site_fract_x
_atom_site_fract_y
_atom_site_fract_z
Zn1 Zn 0.88187(6) 0.12025(6) 0.902078(18)
O1 O 0.8935(4) 0.8214(4) 0.91946(13)
O2 O 0.7933(5) 0.9453(4) 0.84724(13)
O3 O 0.0832(4) 0.1975(5) 0.95372(13)
O4 O 0.1763(4) 0.1088(5) 0.88365(14)
N1 N 0.8344(4) 0.3360(4) 0.85514(13)
N2 N 0.6911(4) 0.1709(4) 0.94793(13)
Br1 Br 0.71812(10) 0.42994(8) 0.70278(2)
Br2 Br 0.64917(7) 0.32832(8) 1.093409(19)
C1 C 0.8377(6) 0.8128(6) 0.87341(19)
C2 C 0.8197(5) 0.6415(5) 0.84723(17)
C3 C 0.8470(5) 0.4937(5) 0.87558(17)
H1 H 0.8757 0.5037 0.9108
C4 C 0.7967(6) 0.3218(6) 0.80429(16)
H2 H 0.7885 0.2130 0.7895
C5 C 0.7702(6) 0.4631(6) 0.77408(17)
C6 C 0.7794(6) 0.6258(6) 0.79490(18)
H3 H 0.7591 0.7227 0.7743
C7 C 0.2032(5) 0.1630(5) 0.92783(19)
C8 C 0.3866(5) 0.1880(6) 0.95356(16)
C9 C 0.5247(5) 0.1562(5) 0.92682(16)
H4 H 0.5010 0.1233 0.8928
C10 C 0.7260(5) 0.2211(5) 0.99651(16)
H5 H 0.8414 0.2306 1.0114
C11 C 0.5949(6) 0.2592(6) 1.02510(16)
C12 C 0.4221(5) 0.2426(6) 1.00349(16)
H6 H 0.3323 0.2678 1.0223
Zn1_2 Zn -0.11813(6) 0.12025(6) 0.902078(18)
Zn1_3 Zn 0.88187(6) 1.12025(6) 0.902078(18)
O1_2 O 0.8935(4) -0.1786(4) 0.91946(13)
O2_2 O 0.7933(5) -0.0547(4) 0.84724(13)
O3_2 O 1.0832(4) 0.1975(5) 0.95372(13)
O4_2 O 1.1763(4) 0.1088(5) 0.88365(14)
O5 O 0.1661(7) 0.9609(6) 0.78245(18)
H7 H 0.1696 1.0042 0.8121
H8 H 0.0690 0.9610 0.7832
O6 O 0.5000 0.9822(12) 0.7500
H9 H 0.4002 0.9760 0.7598
H9A H 0.5998 0.9760 0.7402
H10? H 0.5778 0.9729 0.7758
loop_
_geom_bond_atom_site_label_1
_geom_bond_atom_site_label_2
_geom_bond_site_symmetry_1
_geom_bond_site_symmetry_2
Zn1 N1 1_555 1_555
O1 C1 1_555 1_555
O2 C1 1_555 1_555
O3 C7 1_555 1_555
O4 C7 1_555 1_555
N1 C3 1_555 1_555
N2 Zn1 1_555 1_555
Br1 C5 1_555 1_555
Br2 C11 1_555 1_555
C1 C2 1_555 1_555
C2 C3 1_555 1_555
C3 H1 1_555 1_555
C4 N1 1_555 1_555
H2 C4 1_555 1_555
C5 C4 1_555 1_555
C6 C2 1_555 1_555
H3 C6 1_555 1_555
C7 C8 1_555 1_555
C8 C9 1_555 1_555
C9 N2 1_555 1_555
H4 C9 1_555 1_555
C10 N2 1_555 1_555
H5 C10 1_555 1_555
C11 C10 1_555 1_555
C12 C8 1_555 1_555
H6 C12 1_555 1_555
O5 H7 1_555 1_555
H8 O5 1_555 1_555
O6 H9 1_555 1_555
Zn1_2 O3 1_555 1_555
Zn1_3 O1 1_555 1_555
O1_2 Zn1 1_555 1_555
O2_2 Zn1 1_555 1_555
O3_2 Zn1 1_555 1_555
O4_2 Zn1 1_555 1_555
H9A O6 1_555 1_555
O2 Zn1_3 1_555 1_555
O4 Zn1_2 1_555 1_555
C5 C6 1_555 1_555
C11 C12 1_555 1_555

#END
