
#######################################################################
#
#                 Cambridge Crystallographic Data Centre
#                                CCDC 
#
#######################################################################
#
# If this CIF has been generated from an entry in the Cambridge 
# Structural Database, then it will include bibliographic, chemical, 
# crystal, experimental, refinement or atomic coordinate data resulting 
# from the CCDC's data processing and validation procedures.
#
#######################################################################

data_HIXYAP
_symmetry_cell_setting           orthorhombic
_symmetry_space_group_name_H-M   'P c c a'
_symmetry_Int_Tables_number      54
_space_group_name_Hall           '-P 2a 2ac'
loop_
_symmetry_equiv_pos_site_id
_symmetry_equiv_pos_as_xyz
1 x,y,z
2 1/2-x,-y,z
3 -x,y,1/2-z
4 1/2+x,-y,1/2-z
5 -x,-y,-z
6 1/2+x,y,-z
7 x,-y,1/2+z
8 1/2-x,y,1/2+z
_cell_length_a                   20.8397(14)
_cell_length_b                   8.2339(5)
_cell_length_c                   13.6452(9)
_cell_angle_alpha                90
_cell_angle_beta                 90
_cell_angle_gamma                90
_cell_volume                     2341.41
loop_
_atom_site_label
_atom_site_type_symbol
_atom_site_fract_x
_atom_site_fract_y
_atom_site_fract_z
Cl1 Cl 0.4894(5) 0.0849(10) 0.2270(4)
O2 O 0.4446(11) 0.177(3) 0.2713(19)
O3 O 0.5358(11) 0.188(3) 0.196(2)
O4 O 0.5340(10) -0.037(2) 0.238(2)
O5 O 0.4600(11) 0.051(3) 0.1411(12)
Cl1B Cl 0.5106(5) 0.0849(10) 0.2730(4)
O2B O 0.5554(11) 0.177(3) 0.2287(19)
O3B O 0.4642(11) 0.188(3) 0.304(2)
O4B O 0.4660(10) -0.037(2) 0.262(2)
O5B O 0.5400(11) 0.051(3) 0.3589(12)
Cl2 Cl 0.7500 0.5000 0.6035(3)
O8 O 0.7755(14) 0.372(3) 0.657(2)
O9 O 0.7946(15) 0.621(3) 0.6122(15)
O8A O 0.7245(14) 0.628(3) 0.657(2)
O9A O 0.7054(15) 0.379(3) 0.6122(15)
Cu1 Cu 0.7500 0.0000 0.41807(9)
O1 O 0.6723(4) 0.2149(9) 0.4190(5)
H1 H 0.6810 0.2944 0.4258
N1 N 0.8162(4) 0.1714(9) 0.4189(5)
N2 N 0.8591(4) 0.0791(11) 0.5695(5)
N3 N 0.7500 0.0000 0.5643(7)
N4 N 0.7500 0.0000 0.7696(7)
C1 C 0.8231(5) 0.2816(12) 0.3473(6)
H2 H 0.7886 0.2933 0.3023
C2 C 0.8748(7) 0.3769(17) 0.3338(9)
H3 H 0.8756 0.4524 0.2812
C3 C 0.9271(7) 0.3649(18) 0.3966(9)
C4 C 0.9208(6) 0.2644(15) 0.4734(8)
H4 H 0.9545 0.2554 0.5199
C5 C 0.8642(5) 0.1717(12) 0.4853(6)
C6 C 0.8029(4) 0.0365(9) 0.6164(6)
C7 C 0.8022(5) 0.0372(11) 0.7176(6)
H5 H 0.8404 0.0653 0.7515
C8 C 0.9941(9) 0.419(4) 0.369(2)
H6 H 1.0043 0.3795 0.3026
H7 H 1.0252 0.3746 0.4154
H8 H 0.9963 0.5379 0.3695
C9 C 0.6081(12) 0.230(4) 0.449(3)
H9 H 0.5885 0.3230 0.4152
H10 H 0.6064 0.2475 0.5197
H11 H 0.5847 0.1309 0.4320
Cu1F Cu 0.7500 0.0000 0.91807(9)
O1A O 0.8277(4) -0.2149(9) 0.4190(5)
H1A H 0.8190 -0.2944 0.4258
N1A N 0.6838(4) -0.1714(9) 0.4189(5)
N2A N 0.6409(4) -0.0791(11) 0.5695(5)
N4F N 0.7500 0.0000 0.2696(7)
C1A C 0.6769(5) -0.2816(12) 0.3473(6)
H2A H 0.7114 -0.2933 0.3023
C2A C 0.6252(7) -0.3769(17) 0.3338(9)
H3A H 0.6244 -0.4524 0.2812
C3A C 0.5729(7) -0.3649(18) 0.3966(9)
C4A C 0.5792(6) -0.2644(15) 0.4734(8)
H4A H 0.5455 -0.2554 0.5199
C5A C 0.6358(5) -0.1717(12) 0.4853(6)
C6A C 0.6971(4) -0.0365(9) 0.6164(6)
C7A C 0.6978(5) -0.0372(11) 0.7176(6)
H5A H 0.6596 -0.0653 0.7515
C8A C 0.5059(9) -0.419(4) 0.369(2)
H6A H 0.4957 -0.3795 0.3026
H7A H 0.4748 -0.3746 0.4154
H8A H 0.5037 -0.5379 0.3695
C9A C 0.8919(12) -0.230(4) 0.449(3)
H9A H 0.9115 -0.3230 0.4152
H10A H 0.8936 -0.2475 0.5197
H11A H 0.9153 -0.1309 0.4320
N5? N 0.9271(7) 0.3649(18) 0.3966(9)
O6? O 0.7500 0.5000 0.5025(7)
O7? O 0.7024(14) 0.574(4) 0.646(2)
loop_
_geom_bond_atom_site_label_1
_geom_bond_atom_site_label_2
_geom_bond_site_symmetry_1
_geom_bond_site_symmetry_2
Cu1 O1 1_555 1_555
O1 H1 1_555 1_555
N1 Cu1 1_555 1_555
N2 C5 1_555 1_555
N3 Cu1 1_555 1_555
N4 C7 1_555 1_555
C1 N1 1_555 1_555
H2 C1 1_555 1_555
C2 C1 1_555 1_555
H3 C2 1_555 1_555
C3 C2 1_555 1_555
C4 C3 1_555 1_555
H4 C4 1_555 1_555
C5 N1 1_555 1_555
C6 N2 1_555 1_555
C7 C6 1_555 1_555
H5 C7 1_555 1_555
C8 C3 1_555 1_555
H6 C8 1_555 1_555
H7 C8 1_555 1_555
H8 C8 1_555 1_555
C9 O1 1_555 1_555
H9 C9 1_555 1_555
H10 C9 1_555 1_555
H11 C9 1_555 1_555
Cl1 O2 1_555 1_555
O2 Cl1B 1_555 1_555
O3 Cl1 1_555 1_555
O4 Cl1 1_555 1_555
O5 Cl1 1_555 1_555
Cl2 O8 1_555 1_555
O9 Cl2 1_555 1_555
Cu1F N4 1_555 1_555
O1A Cu1 1_555 1_555
H1A O1A 1_555 1_555
N1A Cu1 1_555 1_555
N2A C5A 1_555 1_555
N4F Cu1 1_555 1_555
C1A N1A 1_555 1_555
H2A C1A 1_555 1_555
C2A C1A 1_555 1_555
H3A C2A 1_555 1_555
C3A C2A 1_555 1_555
C4A C3A 1_555 1_555
H4A C4A 1_555 1_555
C5A N1A 1_555 1_555
C6A N3 1_555 1_555
C7A N4 1_555 1_555
H5A C7A 1_555 1_555
C8A C3A 1_555 1_555
H6A C8A 1_555 1_555
H7A C8A 1_555 1_555
H8A C8A 1_555 1_555
C9A O1A 1_555 1_555
H9A C9A 1_555 1_555
H10A C9A 1_555 1_555
H11A C9A 1_555 1_555
Cl1B Cl1 1_555 1_555
O2B Cl1 1_555 1_555
O3B Cl1 1_555 1_555
O4B Cl1 1_555 1_555
O5B Cl1B 1_555 1_555
O8A Cl2 1_555 1_555
O9A Cl2 1_555 1_555
N3 C6 1_555 1_555
C4 C5 1_555 1_555
O2 O3B 1_555 1_555
O3 Cl1B 1_555 1_555
O3 O2B 1_555 1_555
O4 Cl1B 1_555 1_555
O4 O4B 1_555 1_555
N2A C6A 1_555 1_555
C4A C5A 1_555 1_555
C6A C7A 1_555 1_555
Cl1B O2B 1_555 1_555
Cl1B O3B 1_555 1_555
Cl1B O4B 1_555 1_555

#END
