
#######################################################################
#
#                 Cambridge Crystallographic Data Centre
#                                CCDC 
#
#######################################################################
#
# If this CIF has been generated from an entry in the Cambridge 
# Structural Database, then it will include bibliographic, chemical, 
# crystal, experimental, refinement or atomic coordinate data resulting 
# from the CCDC's data processing and validation procedures.
#
#######################################################################

data_HIXYUK01
_symmetry_cell_setting           monoclinic
_symmetry_space_group_name_H-M   'P 21/c'
_symmetry_Int_Tables_number      14
_space_group_name_Hall           '-P 2ybc'
loop_
_symmetry_equiv_pos_site_id
_symmetry_equiv_pos_as_xyz
1 x,y,z
2 -x,1/2+y,1/2-z
3 -x,-y,-z
4 x,1/2-y,1/2+z
_cell_length_a                   10.3143(9)
_cell_length_b                   9.9926(8)
_cell_length_c                   7.0907(6)
_cell_angle_alpha                90
_cell_angle_beta                 97.9690(10)
_cell_angle_gamma                90
_cell_volume                     723.758
loop_
_atom_site_label
_atom_site_type_symbol
_atom_site_fract_x
_atom_site_fract_y
_atom_site_fract_z
Co1 Co 0.5000 0.0000 0.0000
Br1 Br 1.03540(2) 0.18783(3) 0.20916(4)
O1 O 0.69850(16) 0.61758(15) 0.0434(2)
O2 O 0.56875(16) 0.54560(16) -0.2126(2)
O3 O 0.36173(16) 0.13168(16) 0.0818(2)
H1 H 0.3386 0.1165 0.1903
H2 H 0.3440 0.2091 0.0356
N1 N 0.64752(19) 0.15191(18) -0.0112(3)
C1 C 0.6511(2) 0.5271(2) -0.0681(3)
C2 C 0.6978(2) 0.3856(2) -0.0196(3)
C3 C 0.8247(2) 0.3614(2) 0.0655(3)
H3 H 0.8829 0.4315 0.0976
C4 C 0.8621(2) 0.2301(2) 0.1012(3)
C5 C 0.7723(2) 0.1279(2) 0.0636(3)
H4 H 0.7988 0.0402 0.0908
C6 C 0.6131(2) 0.2780(2) -0.0576(3)
H5 H 0.5287 0.2943 -0.1180
Br1B Br -0.03540(2) -0.18783(3) -0.20916(4)
O1B O 0.30150(16) -0.61758(15) -0.0434(2)
O2B O 0.43125(16) -0.54560(16) 0.2126(2)
O3B O 0.63827(16) -0.13168(16) -0.0818(2)
H1B H 0.6614 -0.1165 -0.1903
H2B H 0.6560 -0.2091 -0.0356
N1B N 0.35248(19) -0.15191(18) 0.0112(3)
C1B C 0.3489(2) -0.5271(2) 0.0681(3)
C2B C 0.3022(2) -0.3856(2) 0.0196(3)
C3B C 0.1753(2) -0.3614(2) -0.0655(3)
H3B H 0.1171 -0.4315 -0.0976
C4B C 0.1379(2) -0.2301(2) -0.1012(3)
C5B C 0.2277(2) -0.1279(2) -0.0636(3)
H4B H 0.2012 -0.0402 -0.0908
C6B C 0.3869(2) -0.2780(2) 0.0576(3)
H5B H 0.4713 -0.2943 0.1180
Co1A Co 0.5000 -0.5000 0.5000
Co1A_2 Co 0.5000 0.5000 -0.5000
O2A O 0.43125(16) 0.04560(16) -0.2874(2)
O2C O 0.56875(16) -0.04560(16) 0.2874(2)
loop_
_geom_bond_atom_site_label_1
_geom_bond_atom_site_label_2
_geom_bond_site_symmetry_1
_geom_bond_site_symmetry_2
Co1 O3 1_555 1_555
Br1 C4 1_555 1_555
O1 C1 1_555 1_555
O2 C1 1_555 1_555
O3 H1 1_555 1_555
H2 O3 1_555 1_555
N1 Co1 1_555 1_555
C1 C2 1_555 1_555
C2 C3 1_555 1_555
C3 H3 1_555 1_555
C4 C3 1_555 1_555
C5 N1 1_555 1_555
H4 C5 1_555 1_555
C6 N1 1_555 1_555
H5 C6 1_555 1_555
Br1B C4B 1_555 1_555
O1B C1B 1_555 1_555
O2B C1B 1_555 1_555
O3B Co1 1_555 1_555
H1B O3B 1_555 1_555
H2B O3B 1_555 1_555
N1B Co1 1_555 1_555
C1B C2B 1_555 1_555
C2B C3B 1_555 1_555
C3B H3B 1_555 1_555
C4B C3B 1_555 1_555
C5B N1B 1_555 1_555
H4B C5B 1_555 1_555
C6B N1B 1_555 1_555
H5B C6B 1_555 1_555
Co1A O2B 1_555 1_555
Co1A_2 O2 1_555 1_555
O2A Co1 1_555 1_555
O2C Co1 1_555 1_555
C2 C6 1_555 1_555
C4 C5 1_555 1_555
C2B C6B 1_555 1_555
C4B C5B 1_555 1_555

#END
