
#######################################################################
#
#                 Cambridge Crystallographic Data Centre
#                                CCDC 
#
#######################################################################
#
# If this CIF has been generated from an entry in the Cambridge 
# Structural Database, then it will include bibliographic, chemical, 
# crystal, experimental, refinement or atomic coordinate data resulting 
# from the CCDC's data processing and validation procedures.
#
#######################################################################

data_HIXYUK
_symmetry_cell_setting           monoclinic
_symmetry_space_group_name_H-M   'P 21/c'
_symmetry_Int_Tables_number      14
_space_group_name_Hall           '-P 2ybc'
loop_
_symmetry_equiv_pos_site_id
_symmetry_equiv_pos_as_xyz
1 x,y,z
2 -x,1/2+y,1/2-z
3 -x,-y,-z
4 x,1/2-y,1/2+z
_cell_length_a                   10.3022(5)
_cell_length_b                   9.9909(5)
_cell_length_c                   7.0875(4)
_cell_angle_alpha                90
_cell_angle_beta                 97.993(2)
_cell_angle_gamma                90
_cell_volume                     722.417
loop_
_atom_site_label
_atom_site_type_symbol
_atom_site_fract_x
_atom_site_fract_y
_atom_site_fract_z
Co1 Co 1.0000 1.0000 1.0000
O1 O 0.93112(17) 0.45447(17) 1.2128(2)
O2 O 0.80165(17) 0.38239(16) 0.9565(2)
O3 O 1.13842(17) 0.86797(17) 0.9181(3)
H1 H 1.1495 0.8836 0.8079
H2 H 1.1537 0.7909 0.9644
N1 N 0.8524(2) 0.8480(2) 1.0113(3)
Br1 Br 0.46449(3) 0.81222(3) 0.79107(4)
C1 C 0.8488(2) 0.4729(2) 1.0682(3)
C2 C 0.8022(2) 0.6143(2) 1.0199(3)
C3 C 0.8870(2) 0.7220(2) 1.0572(3)
H3 H 0.9717 0.7057 1.1169
C4 C 0.7277(2) 0.8717(2) 0.9366(4)
H4 H 0.7012 0.9594 0.9097
C5 C 0.6378(2) 0.7700(3) 0.8986(4)
C6 C 0.6757(2) 0.6384(2) 0.9351(4)
H5 H 0.6174 0.5682 0.9032
O1B O 1.06888(17) 1.54553(17) 0.7872(2)
O2B O 1.19835(17) 1.61761(16) 1.0435(2)
O3B O 0.86158(17) 1.13203(17) 1.0819(3)
H1B H 0.8505 1.1164 1.1921
H2B H 0.8463 1.2091 1.0356
N1B N 1.1476(2) 1.1520(2) 0.9887(3)
Br1B Br 1.53551(3) 1.18778(3) 1.20893(4)
C1B C 1.1512(2) 1.5271(2) 0.9318(3)
C2B C 1.1978(2) 1.3857(2) 0.9801(3)
C3B C 1.1130(2) 1.2780(2) 0.9428(3)
H3B H 1.0283 1.2943 0.8831
C4B C 1.2723(2) 1.1283(2) 1.0634(4)
H4B H 1.2988 1.0406 1.0903
C5B C 1.3622(2) 1.2300(3) 1.1014(4)
C6B C 1.3243(2) 1.3616(2) 1.0649(4)
H5B H 1.3826 1.4318 1.0968
Co1A Co 1.0000 0.5000 1.5000
Co1A_2 Co 1.0000 1.5000 0.5000
O1A O 1.06888(17) 0.95447(17) 1.2872(2)
O1C O 0.93112(17) 1.04553(17) 0.7128(2)
loop_
_geom_bond_atom_site_label_1
_geom_bond_atom_site_label_2
_geom_bond_site_symmetry_1
_geom_bond_site_symmetry_2
Co1 O3 1_555 1_555
O1 C1 1_555 1_555
O2 C1 1_555 1_555
O3 H1 1_555 1_555
H2 O3 1_555 1_555
N1 Co1 1_555 1_555
Br1 C5 1_555 1_555
C1 C2 1_555 1_555
C2 C3 1_555 1_555
C3 N1 1_555 1_555
H3 C3 1_555 1_555
C4 N1 1_555 1_555
H4 C4 1_555 1_555
C5 C4 1_555 1_555
C6 C2 1_555 1_555
H5 C6 1_555 1_555
O1B C1B 1_555 1_555
O2B C1B 1_555 1_555
O3B Co1 1_555 1_555
H1B O3B 1_555 1_555
H2B O3B 1_555 1_555
N1B Co1 1_555 1_555
Br1B C5B 1_555 1_555
C1B C2B 1_555 1_555
C2B C3B 1_555 1_555
C3B N1B 1_555 1_555
H3B C3B 1_555 1_555
C4B N1B 1_555 1_555
H4B C4B 1_555 1_555
C5B C4B 1_555 1_555
C6B C2B 1_555 1_555
H5B C6B 1_555 1_555
Co1A O1 1_555 1_555
Co1A_2 O1B 1_555 1_555
O1A Co1 1_555 1_555
O1C Co1 1_555 1_555
C5 C6 1_555 1_555
C5B C6B 1_555 1_555

#END
