
#######################################################################
#
#                 Cambridge Crystallographic Data Centre
#                                CCDC 
#
#######################################################################
#
# If this CIF has been generated from an entry in the Cambridge 
# Structural Database, then it will include bibliographic, chemical, 
# crystal, experimental, refinement or atomic coordinate data resulting 
# from the CCDC's data processing and validation procedures.
#
#######################################################################

data_HIXZEV
_symmetry_cell_setting           monoclinic
_symmetry_space_group_name_H-M   'P 21/c'
_symmetry_Int_Tables_number      14
_space_group_name_Hall           '-P 2ybc'
loop_
_symmetry_equiv_pos_site_id
_symmetry_equiv_pos_as_xyz
1 x,y,z
2 -x,1/2+y,1/2-z
3 -x,-y,-z
4 x,1/2-y,1/2+z
_cell_length_a                   12.4958(10)
_cell_length_b                   8.0665(6)
_cell_length_c                   23.9085(18)
_cell_angle_alpha                90
_cell_angle_beta                 104.767(3)
_cell_angle_gamma                90
_cell_volume                     2330.32
loop_
_atom_site_label
_atom_site_type_symbol
_atom_site_fract_x
_atom_site_fract_y
_atom_site_fract_z
Cd1 Cd 0.30851(3) 0.58778(4) 0.497495(16)
O1 O 0.3863(4) 0.5531(6) 0.60303(19)
O2 O 0.4922(4) 0.6359(6) 0.55053(19)
O3 O 0.2901(3) 1.3080(4) 0.49504(16)
O4 O 0.1580(3) 1.4037(4) 0.53274(18)
N1 N 0.7693(4) 0.6367(6) 0.6913(2)
N2 N 0.2184(3) 0.8219(5) 0.52811(19)
N3 N 0.1555(3) 0.6180(5) 0.41410(18)
N4 N 0.3611(3) 0.7505(5) 0.42704(18)
Br1 Br 0.66017(6) 0.34568(10) 0.80705(3)
Br2 Br -0.01688(5) 0.87398(7) 0.61930(3)
C1 C 0.4788(6) 0.5916(9) 0.5971(3)
C2 C 0.5782(5) 0.5792(7) 0.6487(3)
C3 C 0.6802(5) 0.6477(7) 0.6478(3)
H1 H 0.6857 0.7042 0.6148
C4 C 0.7608(5) 0.5487(8) 0.7374(3)
H2 H 0.8232 0.5368 0.7681
C5 C 0.6638(5) 0.4750(7) 0.7414(2)
C6 C 0.5704(5) 0.4922(7) 0.6969(2)
H3 H 0.5034 0.4462 0.6994
C7 C 0.2120(4) 1.2894(6) 0.5191(2)
C8 C 0.1842(4) 1.1136(6) 0.5323(2)
C9 C 0.2381(4) 0.9799(6) 0.5158(2)
H4 H 0.2905 1.0001 0.4951
C10 C 0.1439(4) 0.7951(6) 0.5582(2)
H5 H 0.1306 0.6868 0.5679
C11 C 0.0859(4) 0.9212(6) 0.5754(2)
C12 C 0.1064(4) 1.0831(6) 0.5633(2)
H6 H 0.0691 1.1699 0.5756
C13 C 0.0555(4) 0.5543(6) 0.4078(2)
H7 H 0.0421 0.4902 0.4376
C14 C -0.0309(5) 0.5792(7) 0.3582(3)
H8 H -0.1001 0.5324 0.3554
C15 C -0.0130(4) 0.6715(7) 0.3146(2)
H9 H -0.0697 0.6885 0.2814
C16 C 0.0913(4) 0.7419(6) 0.3195(2)
C17 C 0.1738(4) 0.7117(6) 0.3706(2)
C18 C 0.1163(5) 0.8444(7) 0.2756(2)
H10 H 0.0617 0.8638 0.2417
C19 C 0.2167(5) 0.9133(7) 0.2821(3)
H11 H 0.2303 0.9809 0.2531
C20 C 0.3023(5) 0.8828(7) 0.3332(2)
C21 C 0.2823(4) 0.7840(6) 0.3774(2)
C22 C 0.4099(5) 0.9474(8) 0.3412(3)
H12 H 0.4273 1.0131 0.3128
C23 C 0.4881(5) 0.9132(8) 0.3907(3)
H13 H 0.5591 0.9563 0.3965
C24 C 0.4614(4) 0.8128(7) 0.4330(2)
H14 H 0.5161 0.7890 0.4664
Cd1_2 Cd 0.30851(3) 1.58778(4) 0.497495(16)
O3_2 O 0.2901(3) 0.3080(4) 0.49504(16)
O4_2 O 0.1580(3) 0.4037(4) 0.53274(18)
O5 O 0.3056(5) 0.3454(8) 0.6778(3)
H15 H 0.3303 0.4083 0.6555
H16 H 0.2698 0.3623 0.6431
loop_
_geom_bond_atom_site_label_1
_geom_bond_atom_site_label_2
_geom_bond_site_symmetry_1
_geom_bond_site_symmetry_2
Cd1 O1 1_555 1_555
O1 C1 1_555 1_555
O2 Cd1 1_555 1_555
O3 C7 1_555 1_555
O4 C7 1_555 1_555
N1 C3 1_555 1_555
N2 Cd1 1_555 1_555
N3 Cd1 1_555 1_555
N4 Cd1 1_555 1_555
Br1 C5 1_555 1_555
Br2 C11 1_555 1_555
C1 O2 1_555 1_555
C2 C1 1_555 1_555
C3 C2 1_555 1_555
H1 C3 1_555 1_555
C4 N1 1_555 1_555
H2 C4 1_555 1_555
C5 C4 1_555 1_555
C6 C2 1_555 1_555
H3 C6 1_555 1_555
C7 C8 1_555 1_555
C8 C9 1_555 1_555
C9 N2 1_555 1_555
H4 C9 1_555 1_555
C10 N2 1_555 1_555
H5 C10 1_555 1_555
C11 C10 1_555 1_555
C12 C8 1_555 1_555
H6 C12 1_555 1_555
C13 N3 1_555 1_555
H7 C13 1_555 1_555
C14 C13 1_555 1_555
H8 C14 1_555 1_555
C15 C14 1_555 1_555
H9 C15 1_555 1_555
C16 C15 1_555 1_555
C17 N3 1_555 1_555
C18 C16 1_555 1_555
H10 C18 1_555 1_555
C19 C18 1_555 1_555
H11 C19 1_555 1_555
C20 C19 1_555 1_555
C21 N4 1_555 1_555
C22 C20 1_555 1_555
H12 C22 1_555 1_555
C23 C22 1_555 1_555
H13 C23 1_555 1_555
C24 N4 1_555 1_555
H14 C24 1_555 1_555
O5 H15 1_555 1_555
H16 O5 1_555 1_555
Cd1_2 O3 1_555 1_555
O3_2 Cd1 1_555 1_555
O4_2 Cd1 1_555 1_555
O4 Cd1_2 1_555 1_555
C5 C6 1_555 1_555
C11 C12 1_555 1_555
C16 C17 1_555 1_555
C17 C21 1_555 1_555
C20 C21 1_555 1_555
C23 C24 1_555 1_555

#END
