
#######################################################################
#
#                 Cambridge Crystallographic Data Centre
#                                CCDC 
#
#######################################################################
#
# If this CIF has been generated from an entry in the Cambridge 
# Structural Database, then it will include bibliographic, chemical, 
# crystal, experimental, refinement or atomic coordinate data resulting 
# from the CCDC's data processing and validation procedures.
#
#######################################################################

data_HIXZOD
_symmetry_cell_setting           orthorhombic
_symmetry_space_group_name_H-M   'P 21 21 21'
_symmetry_Int_Tables_number      19
_space_group_name_Hall           'P 2ac 2ab'
loop_
_symmetry_equiv_pos_site_id
_symmetry_equiv_pos_as_xyz
1 x,y,z
2 1/2-x,-y,1/2+z
3 1/2+x,1/2-y,-z
4 -x,1/2+y,1/2-z
_cell_length_a                   8.181(2)
_cell_length_b                   9.036(2)
_cell_length_c                   8.392(1)
_cell_angle_alpha                90
_cell_angle_beta                 90
_cell_angle_gamma                90
_cell_volume                     620.366
loop_
_atom_site_label
_atom_site_type_symbol
_atom_site_fract_x
_atom_site_fract_y
_atom_site_fract_z
O1 O 0.4263(3) 0.0930(3) 0.6694(3)
O2 O 0.6038(3) 0.1803(3) 0.4910(3)
O3 O 0.6586(3) -0.0148(3) 0.8572(3)
H1 H 0.7314 -0.0119 0.9243
O4 O 0.7191(3) 0.3094(3) 0.8091(3)
H2 H 0.6506 0.2755 0.8703
O5 O 1.0697(3) 0.0725(3) 0.7958(3)
O6 O 0.9864(4) 0.2389(3) 0.9770(4)
C1 C 0.5669(4) 0.1118(4) 0.6172(4)
C2 C 0.7132(4) 0.0550(4) 0.7155(4)
H3 H 0.7762 -0.0157 0.6517
C3 C 0.8180(4) 0.1924(4) 0.7490(4)
H4 H 0.8582 0.2260 0.6451
C4 C 0.9700(4) 0.1648(4) 0.8509(4)
Ba1 Ba 0.15940(2) 0.015550(19) 0.47021(2)
Ba1A Ba 0.34060(2) -0.015550(19) 0.97021(2)
Ba1B Ba 0.65940(2) 0.484450(19) 0.52979(2)
Ba1C Ba 0.84060(2) 0.515550(19) 1.02979(2)
Ba1_2 Ba 1.15940(2) 0.015550(19) 0.47021(2)
Ba1A_2 Ba 1.34060(2) -0.015550(19) 0.97021(2)
O1A O 0.0737(3) -0.0930(3) 0.1694(3)
O2B O 0.1038(3) 0.3197(3) 0.5090(3)
O3A O -0.1586(3) 0.0148(3) 0.3572(3)
O4B O 0.2191(3) 0.1906(3) 0.1909(3)
O4C O 0.2809(3) -0.1906(3) 0.6909(3)
O5_2 O 0.0697(3) 0.0725(3) 0.7958(3)
O5A O 0.4303(3) -0.0725(3) 0.2958(3)
O6C O 0.0136(4) -0.2611(3) 0.5230(4)
H2B H 0.1506 0.2245 0.1297
H1A H -0.2314 0.0119 0.4243
H2C H 0.3494 -0.2245 0.6297
loop_
_geom_bond_atom_site_label_1
_geom_bond_atom_site_label_2
_geom_bond_site_symmetry_1
_geom_bond_site_symmetry_2
O1 C1 1_555 1_555
O2 C1 1_555 1_555
O3 H1 1_555 1_555
O4 H2 1_555 1_555
O5 C4 1_555 1_555
O6 C4 1_555 1_555
C1 C2 1_555 1_555
C2 O3 1_555 1_555
H3 C2 1_555 1_555
C3 O4 1_555 1_555
H4 C3 1_555 1_555
C4 C3 1_555 1_555
Ba1 O1 1_555 1_555
Ba1A O1 1_555 1_555
Ba1B O2 1_555 1_555
Ba1C O4 1_555 1_555
Ba1_2 O5 1_555 1_555
Ba1A_2 O5 1_555 1_555
O1A Ba1 1_555 1_555
O2B Ba1 1_555 1_555
O3A Ba1 1_555 1_555
O4B Ba1 1_555 1_555
O4C Ba1 1_555 1_555
O5_2 Ba1 1_555 1_555
O5A Ba1 1_555 1_555
O6C Ba1 1_555 1_555
H2B O4B 1_555 1_555
H1A O3A 1_555 1_555
H2C O4C 1_555 1_555
O3 Ba1A 1_555 1_555
O4 Ba1B 1_555 1_555
O6 Ba1C 1_555 1_555
C2 C3 1_555 1_555
Ba1A O4C 1_555 1_555
Ba1A O5_2 1_555 1_555

#END
