
#######################################################################
#
#                 Cambridge Crystallographic Data Centre
#                                CCDC 
#
#######################################################################
#
# If this CIF has been generated from an entry in the Cambridge 
# Structural Database, then it will include bibliographic, chemical, 
# crystal, experimental, refinement or atomic coordinate data resulting 
# from the CCDC's data processing and validation procedures.
#
#######################################################################

data_HIXZAR
_symmetry_cell_setting           orthorhombic
_symmetry_space_group_name_H-M   'P b c n'
_symmetry_Int_Tables_number      60
_space_group_name_Hall           '-P 2n 2ab'
loop_
_symmetry_equiv_pos_site_id
_symmetry_equiv_pos_as_xyz
1 x,y,z
2 1/2-x,1/2-y,1/2+z
3 1/2+x,1/2-y,-z
4 -x,y,1/2-z
5 -x,-y,-z
6 1/2+x,1/2+y,1/2-z
7 1/2-x,1/2+y,z
8 x,-y,1/2+z
_cell_length_a                   7.7772(9)
_cell_length_b                   18.3901(10)
_cell_length_c                   28.6395(19)
_cell_angle_alpha                90
_cell_angle_beta                 90
_cell_angle_gamma                90
_cell_volume                     4096.12
loop_
_atom_site_label
_atom_site_type_symbol
_atom_site_fract_x
_atom_site_fract_y
_atom_site_fract_z
Zn1 Zn 0.46085(9) 0.55029(4) 0.62800(2)
O1 O 0.6313(5) 0.5658(2) 0.56594(15)
O2 O 0.7417(6) 0.5451(2) 0.63507(14)
O3 O 0.6119(7) 0.2080(2) 0.69456(16)
O4 O 0.7066(7) 0.3103(3) 0.72787(16)
N1 N 1.2412(6) 0.5601(2) 0.58228(16)
N2 N 0.4674(6) 0.4314(2) 0.62280(16)
N3 N 0.4450(7) 0.6626(3) 0.64648(17)
N4 N 0.3575(7) 0.7416(3) 0.69898(18)
H1 H 0.3127 0.7590 0.7240
N5 N 0.2321(7) 0.6018(3) 0.75304(16)
H2 H 0.2012 0.6370 0.7709
N6 N 0.3431(7) 0.5433(2) 0.69319(16)
Br1 Br 1.15394(10) 0.61943(4) 0.44586(2)
Br2 Br 0.33754(13) 0.27608(4) 0.52753(3)
C1 C 0.7564(8) 0.5590(3) 0.5924(2)
C2 C 0.9353(8) 0.5671(3) 0.5728(2)
C3 C 1.0805(8) 0.5555(3) 0.5988(2)
H3 H 1.0666 0.5435 0.6301
C4 C 1.2591(8) 0.5784(3) 0.53668(19)
H4 H 1.3689 0.5826 0.5241
C5 C 1.1199(8) 0.5908(3) 0.5087(2)
C6 C 0.9561(8) 0.5850(3) 0.5259(2)
H5 H 0.8614 0.5928 0.5067
C7 C 0.5400(8) 0.3930(3) 0.6569(2)
H6 H 0.5855 0.4179 0.6823
C8 C 0.5514(9) 0.3182(3) 0.6564(2)
C9 C 0.4885(9) 0.2819(3) 0.6181(2)
H7 H 0.4933 0.2314 0.6165
C10 C 0.4189(9) 0.3215(3) 0.5825(2)
C11 C 0.4089(8) 0.3956(3) 0.5859(2)
H8 H 0.3595 0.4216 0.5615
C12 C 0.6317(10) 0.2752(4) 0.6967(2)
C13 C 0.4854(9) 0.7312(4) 0.6313(2)
H9 H 0.5407 0.7422 0.6034
C14 C 0.4323(10) 0.7803(4) 0.6633(2)
H10 H 0.4440 0.8305 0.6615
C15 C 0.3682(8) 0.6723(3) 0.6871(2)
C16 C 0.3136(8) 0.6075(3) 0.7119(2)
C17 C 0.2078(8) 0.5294(4) 0.7611(2)
H11 H 0.1533 0.5085 0.7867
C18 C 0.2786(8) 0.4940(4) 0.7244(2)
H12 H 0.2829 0.4438 0.7209
Zn1_2 Zn 1.46085(9) 0.55029(4) 0.62800(2)
N1_2 N 0.2412(6) 0.5601(2) 0.58228(16)
loop_
_geom_bond_atom_site_label_1
_geom_bond_atom_site_label_2
_geom_bond_site_symmetry_1
_geom_bond_site_symmetry_2
Zn1 O1 1_555 1_555
O1 C1 1_555 1_555
O2 Zn1 1_555 1_555
O3 C12 1_555 1_555
O4 C12 1_555 1_555
N1 C3 1_555 1_555
N2 Zn1 1_555 1_555
N3 Zn1 1_555 1_555
N4 H1 1_555 1_555
N5 H2 1_555 1_555
N6 Zn1 1_555 1_555
Br1 C5 1_555 1_555
Br2 C10 1_555 1_555
C1 O2 1_555 1_555
C2 C1 1_555 1_555
C3 C2 1_555 1_555
H3 C3 1_555 1_555
C4 N1 1_555 1_555
H4 C4 1_555 1_555
C5 C4 1_555 1_555
C6 C2 1_555 1_555
H5 C6 1_555 1_555
C7 N2 1_555 1_555
H6 C7 1_555 1_555
C8 C7 1_555 1_555
C9 C8 1_555 1_555
H7 C9 1_555 1_555
C10 C9 1_555 1_555
C11 N2 1_555 1_555
H8 C11 1_555 1_555
C12 C8 1_555 1_555
C13 N3 1_555 1_555
H9 C13 1_555 1_555
C14 N4 1_555 1_555
H10 C14 1_555 1_555
C15 N3 1_555 1_555
C16 N5 1_555 1_555
C17 N5 1_555 1_555
H11 C17 1_555 1_555
C18 N6 1_555 1_555
H12 C18 1_555 1_555
Zn1_2 N1 1_555 1_555
N1_2 Zn1 1_555 1_555
N4 C15 1_555 1_555
N6 C16 1_555 1_555
C5 C6 1_555 1_555
C10 C11 1_555 1_555
C13 C14 1_555 1_555
C15 C16 1_555 1_555
C17 C18 1_555 1_555

#END
