
#######################################################################
#
#                 Cambridge Crystallographic Data Centre
#                                CCDC 
#
#######################################################################
#
# If this CIF has been generated from an entry in the Cambridge 
# Structural Database, then it will include bibliographic, chemical, 
# crystal, experimental, refinement or atomic coordinate data resulting 
# from the CCDC's data processing and validation procedures.
#
#######################################################################

data_HIYBOH
_symmetry_cell_setting           monoclinic
_symmetry_space_group_name_H-M   'C 2/c'
_symmetry_Int_Tables_number      15
_space_group_name_Hall           '-C 2yn'
loop_
_symmetry_equiv_pos_site_id
_symmetry_equiv_pos_as_xyz
1 x,y,z
2 1/2+x,1/2+y,z
3 -x,y,1/2-z
4 1/2-x,1/2+y,1/2-z
5 -x,-y,-z
6 1/2-x,1/2-y,-z
7 x,-y,1/2+z
8 1/2+x,1/2-y,1/2+z
_cell_length_a                   35.218(2)
_cell_length_b                   14.6836(7)
_cell_length_c                   30.951(2)
_cell_angle_alpha                90
_cell_angle_beta                 103.036(3)
_cell_angle_gamma                90
_cell_volume                     15593.1
loop_
_atom_site_label
_atom_site_type_symbol
_atom_site_fract_x
_atom_site_fract_y
_atom_site_fract_z
C37 C -0.22872 0.51696 -0.97808
C38 C -0.22446 0.48387 -1.02080
C39 C -0.22517 0.38450 -1.02641
C40 C -0.24053 0.33090 -0.99582
C41 C -0.24970 0.36955 -0.95717
C42 C -0.25273 0.46730 -0.95501
N13 N -0.22152 0.61733 -0.96758
O1 O -0.20285 0.66220 -0.99059
O2 O -0.22300 0.64176 -0.92883
C43 C -0.50625 0.24780 -0.17366
C44 C -0.47444 0.18251 -0.16469
C45 C -0.45311 0.17675 -0.11837
C46 C -0.44948 0.25394 -0.09361
C47 C -0.46814 0.33659 -0.11457
C48 C -0.50356 0.32706 -0.14770
N14 N -0.53605 0.24305 -0.21662
O3 O -0.53883 0.16725 -0.23910
O4 O -0.54843 0.32218 -0.23579
C49 C -0.59422 0.03258 -0.81943
C50 C -0.62009 -0.03009 -0.80674
C51 C -0.64571 -0.07676 -0.84129
C52 C -0.63398 -0.09162 -0.87977
C53 C -0.59845 -0.05671 -0.88609
C54 C -0.57940 0.01332 -0.85665
N15 N -0.57276 0.10299 -0.78617
O5 O -0.58580 0.11698 -0.75294
O6 O -0.55474 0.15960 -0.80074
Zn1 Zn 0.12218 0.11283 0.05308
Zn2 Zn 0.32588 -0.64416 0.22999
Zn3 Zn 0.41084 0.14290 0.41598
Br1 Br 0.14583 0.09595 -0.01269
Br2 Br 0.11407 0.24544 0.08822
Br3 Br 0.27349 -0.71838 0.20660
Br4 Br 0.37987 -0.66801 0.29697
Br5 Br 0.46404 0.15265 0.37790
Br6 Br 0.38558 0.23268 0.45705
C1 C 0.17479 -0.03320 0.11108
C2 C 0.20577 -0.08415 0.13395
C3 C 0.23346 -0.03979 0.16778
C4 C 0.23255 0.05494 0.17073
C5 C 0.20315 0.10699 0.13896
C6 C 0.26300 -0.09721 0.20405
C7 C 0.29145 -0.22951 0.22783
C8 C 0.30614 -0.10789 0.26991
C9 C 0.33116 -0.05840 0.31188
C10 C 0.35935 -0.10526 0.34442
C11 C 0.37899 -0.05266 0.38210
C12 C 0.36339 0.07719 0.34414
C13 C 0.33261 0.03488 0.31144
C14 C 0.29890 -0.32891 0.22082
C15 C 0.32772 -0.37280 0.25221
C16 C 0.33294 -0.46650 0.24904
C17 C 0.28629 -0.46555 0.18130
C18 C 0.28256 -0.37376 0.18106
C19 C 0.55917 -0.58493 0.02451
C20 C 0.53736 -0.65285 0.03668
C21 C 0.51060 -0.62723 0.05983
C22 C 0.51628 -0.54206 0.08306
C23 C 0.54970 -0.49842 0.08456
C24 C 0.48011 -0.68917 0.06723
C25 C 0.44106 -0.81381 0.04586
C26 C 0.42942 -0.72275 0.09923
C27 C 0.40718 -0.69899 0.13026
C28 C 0.42319 -0.64796 0.16798
C29 C 0.40005 -0.62933 0.19433
C30 C 0.34809 -0.70810 0.15015
C31 C 0.37144 -0.74538 0.12895
C32 C 0.43245 -0.89753 0.01944
C33 C 0.40251 -0.95238 0.02297
C34 C 0.39828 -1.03478 -0.00253
C35 C 0.45206 -0.91163 -0.01530
C36 C 0.43946 -0.98092 -0.04281
N1 N 0.56739 -0.50475 0.05099
N2 N 0.47576 -0.77134 0.04521
N3 N 0.45339 -0.65597 0.08870
N4 N 0.42174 -0.80167 0.07900
N5 N 0.36076 -0.64656 0.18085
N6 N 0.41813 -1.05076 -0.03312
N7 N 0.17471 0.06309 0.10885
N8 N 0.28331 -0.05357 0.23940
N9 N 0.26272 -0.19095 0.20016
N10 N 0.30857 -0.19477 0.26819
N11 N 0.37854 0.04242 0.38068
N12 N 0.31099 -0.51251 0.21678
Zn3F Zn 0.41084 -1.14290 -0.08402
N6F N 0.41813 0.05076 0.46688
loop_
_geom_bond_atom_site_label_1
_geom_bond_atom_site_label_2
_geom_bond_site_symmetry_1
_geom_bond_site_symmetry_2
Zn1 Br1 1_555 1_555
Zn2 Br3 1_555 1_555
Zn3 Br5 1_555 1_555
Br2 Zn1 1_555 1_555
Br4 Zn2 1_555 1_555
Br6 Zn3 1_555 1_555
C1 C2 1_555 1_555
C2 C3 1_555 1_555
C3 C4 1_555 1_555
C4 C5 1_555 1_555
C5 N7 1_555 1_555
C6 C3 1_555 1_555
C7 C14 1_555 1_555
C8 C9 1_555 1_555
C9 C10 1_555 1_555
C10 C11 1_555 1_555
C11 N11 1_555 1_555
C12 C13 1_555 1_555
C13 C9 1_555 1_555
C14 C15 1_555 1_555
C15 C16 1_555 1_555
C16 N12 1_555 1_555
C17 C18 1_555 1_555
C18 C14 1_555 1_555
C19 C20 1_555 1_555
C20 C21 1_555 1_555
C21 C22 1_555 1_555
C22 C23 1_555 1_555
C23 N1 1_555 1_555
C24 C21 1_555 1_555
C25 C32 1_555 1_555
C26 C27 1_555 1_555
C27 C28 1_555 1_555
C28 C29 1_555 1_555
C29 N5 1_555 1_555
C30 C31 1_555 1_555
C31 C27 1_555 1_555
C32 C33 1_555 1_555
C33 C34 1_555 1_555
C34 N6 1_555 1_555
C35 C32 1_555 1_555
C36 C35 1_555 1_555
N1 C19 1_555 1_555
N2 C24 1_555 1_555
N3 C24 1_555 1_555
N4 C25 1_555 1_555
N5 Zn2 1_555 1_555
N6 C36 1_555 1_555
N7 Zn1 1_555 1_555
N8 C6 1_555 1_555
N9 C6 1_555 1_555
N10 C7 1_555 1_555
N11 Zn3 1_555 1_555
N12 Zn2 1_555 1_555
C37 C38 1_555 1_555
C38 C39 1_555 1_555
C39 C40 1_555 1_555
C40 C41 1_555 1_555
C41 C42 1_555 1_555
C42 C37 1_555 1_555
N13 C37 1_555 1_555
O1 N13 1_555 1_555
O2 N13 1_555 1_555
C43 C44 1_555 1_555
C44 C45 1_555 1_555
C45 C46 1_555 1_555
C46 C47 1_555 1_555
C47 C48 1_555 1_555
C48 C43 1_555 1_555
N14 C43 1_555 1_555
O3 N14 1_555 1_555
O4 N14 1_555 1_555
C49 C50 1_555 1_555
C50 C51 1_555 1_555
C51 C52 1_555 1_555
C52 C53 1_555 1_555
C53 C54 1_555 1_555
C54 C49 1_555 1_555
N15 C49 1_555 1_555
O5 N15 1_555 1_555
O6 N15 1_555 1_555
Zn3F N6 1_555 1_555
N6F Zn3 1_555 1_555
C1 N7 1_555 1_555
C7 N9 1_555 1_555
C8 N8 1_555 1_555
C8 N10 1_555 1_555
C12 N11 1_555 1_555
C17 N12 1_555 1_555
C25 N2 1_555 1_555
C26 N3 1_555 1_555
C26 N4 1_555 1_555
C30 N5 1_555 1_555

#END
