
#######################################################################
#
#                 Cambridge Crystallographic Data Centre
#                                CCDC 
#
#######################################################################
#
# If this CIF has been generated from an entry in the Cambridge 
# Structural Database, then it will include bibliographic, chemical, 
# crystal, experimental, refinement or atomic coordinate data resulting 
# from the CCDC's data processing and validation procedures.
#
#######################################################################

data_HIYBIC
_symmetry_cell_setting           triclinic
_symmetry_space_group_name_H-M   'P -1'
_symmetry_Int_Tables_number      2
_space_group_name_Hall           '-P 1'
loop_
_symmetry_equiv_pos_site_id
_symmetry_equiv_pos_as_xyz
1 x,y,z
2 -x,-y,-z
_cell_length_a                   14.3065(7)
_cell_length_b                   14.5018(9)
_cell_length_c                   19.2915(12)
_cell_angle_alpha                99.588(3)
_cell_angle_beta                 90.052(2)
_cell_angle_gamma                97.903(4)
_cell_volume                     3907.85
loop_
_atom_site_label
_atom_site_type_symbol
_atom_site_fract_x
_atom_site_fract_y
_atom_site_fract_z
Pb1 Pb 0.00012(2) -0.01548(2) -0.136429(17)
Pb2 Pb -0.30831(2) 0.00401(2) 0.068775(18)
Pb3 Pb -0.39973(2) 0.08752(2) -0.103594(18)
Pb4 Pb -0.27749(2) -0.16480(2) -0.136048(18)
S1 S 0.17151(18) -0.20947(18) -0.19284(14)
S2 S -0.76088(16) -0.85525(16) -0.21613(13)
S3 S -0.40867(16) -0.10037(16) -0.26904(12)
S4 S -1.33007(19) -0.7436(2) -0.20092(17)
P1 P -0.12635(14) -0.11257(14) -0.00542(12)
P2 P -0.51926(14) 0.13076(14) 0.04066(11)
O1 O -0.2351(4) -0.1314(4) -0.0142(3)
O2 O -0.0812(4) -0.1238(4) -0.0772(3)
O3 O -0.0971(4) -0.0152(4) 0.0399(3)
O4 O 0.2450(4) -0.1116(5) 0.0282(4)
O5 O 0.1621(4) -0.0353(4) 0.1107(4)
O6 O -0.5547(4) 0.1314(4) -0.0325(3)
O7 O -0.4255(4) 0.0935(4) 0.0362(3)
O8 O -0.5951(4) 0.0768(4) 0.0810(3)
O9 O -0.7710(5) 0.3131(5) 0.1114(4)
O10 O -0.7496(7) 0.4135(7) 0.0358(6)
O11 O 0.0882(5) -0.1728(5) -0.1600(4)
O12 O 0.2589(6) -0.1671(7) -0.1537(5)
O13 O 0.1591(6) -0.3121(5) -0.2032(4)
O14 O -0.6656(5) -0.8678(5) -0.2366(4)
O15 O -0.7646(5) -0.7607(5) -0.1779(4)
O16 O -0.8064(5) -0.9265(5) -0.1777(4)
O17 O -0.3948(6) -0.1919(5) -0.2518(4)
O18 O -0.3517(5) -0.0233(5) -0.2227(4)
O19 O -0.5067(5) -0.0891(6) -0.2709(4)
O20 O -1.2606(6) -0.7965(6) -0.1811(4)
O21 O -1.4145(7) -0.7577(7) -0.1614(6)
O22 O -1.2963(6) -0.6441(5) -0.2004(4)
O23 O -0.5693(4) 0.0239(5) -0.1680(3)
N1 N 0.0019(5) -0.1665(4) 0.0804(3)
N2 N 0.0087(8) -0.5085(7) 0.1116(7)
H1 H 0.0081 -0.5685 0.1071
N3 N -0.5844(5) 0.2913(5) 0.1110(4)
N4 N -0.3656(8) 0.6038(7) 0.1685(7)
H2 H -0.3243 0.6521 0.1661
C1 C -0.0901(5) -0.1998(6) 0.0432(5)
H3 H -0.1377 -0.2137 0.0771
H4 H -0.0857 -0.2578 0.0108
C2 C 0.0815(6) -0.1701(6) 0.0326(6)
H5 H 0.0618 -0.1570 -0.0124
H6 H 0.0984 -0.2335 0.0251
C3 C 0.1684(6) -0.1001(6) 0.0602(5)
C4 C 0.0139(7) -0.2112(7) 0.1422(6)
H7 H -0.0357 -0.1967 0.1748
H8 H 0.0737 -0.1833 0.1654
C5 C 0.0117(7) -0.3181(6) 0.1269(5)
C6 C -0.0731(8) -0.3789(9) 0.1239(12)
H9 H -0.1303 -0.3550 0.1268
C7 C -0.0716(11) -0.4757(10) 0.1165(10)
H10 H -0.1278 -0.5168 0.1151
C8 C 0.0933(8) -0.3590(8) 0.1145(8)
H11 H 0.1500 -0.3225 0.1072
C9 C 0.0891(8) -0.4557(9) 0.1132(9)
H12 H 0.1445 -0.4824 0.1134
C10 C -0.4969(6) 0.2490(6) 0.0923(5)
H13 H -0.4627 0.2463 0.1352
H14 H -0.4570 0.2896 0.0659
C11 C -0.6241(7) 0.3309(6) 0.0509(5)
H15 H -0.6267 0.2847 0.0081
H16 H -0.5830 0.3871 0.0433
C12 C -0.7238(7) 0.3554(6) 0.0679(6)
C13 C -0.5683(7) 0.3624(6) 0.1776(5)
H17 H -0.5484 0.3312 0.2148
H18 H -0.6276 0.3847 0.1911
C14 C -0.4952(8) 0.4466(7) 0.1719(6)
C15 C -0.4034(8) 0.4500(8) 0.1956(7)
H19 H -0.3846 0.3992 0.2131
C16 C -0.3400(9) 0.5306(9) 0.1929(8)
H20 H -0.2780 0.5334 0.2085
C17 C -0.5188(8) 0.5258(7) 0.1479(6)
H21 H -0.5799 0.5264 0.1316
C18 C -0.4509(10) 0.6038(7) 0.1485(7)
H22 H -0.4676 0.6574 0.1340
C19 C 0.1826(6) -0.1716(7) -0.2762(6)
C20 C 0.2664(7) -0.1228(8) -0.2909(6)
H23 H 0.3156 -0.1107 -0.2578
C21 C 0.2795(8) -0.0908(9) -0.3541(6)
H24 H 0.3377 -0.0592 -0.3640
C22 C 0.2051(10) -0.1059(8) -0.4030(7)
H25 H 0.2116 -0.0816 -0.4447
C23 C 0.1203(10) -0.1584(8) -0.3883(6)
H26 H 0.0708 -0.1702 -0.4213
C24 C 0.1078(7) -0.1935(7) -0.3256(5)
C25 C 0.0150(7) -0.2509(8) -0.3138(7)
H27 H 0.0134 -0.2905 -0.2804
C26 C -0.0655(8) -0.2481(9) -0.3486(8)
H28 H -0.0653 -0.2018 -0.3767
C27 C -0.1550(7) -0.3127(7) -0.3460(7)
C28 C -0.1705(8) -0.3823(9) -0.3054(6)
H29 H -0.1230 -0.3894 -0.2745
C29 C -0.2556(8) -0.4427(9) -0.3094(8)
H30 H -0.2647 -0.4894 -0.2814
C30 C -0.2280(7) -0.3021(8) -0.3895(6)
H31 H -0.2200 -0.2534 -0.4157
C31 C -0.3129(8) -0.3620(7) -0.3954(8)
H32 H -0.3602 -0.3542 -0.4261
C32 C -0.3275(7) -0.4329(7) -0.3559(5)
C33 C -0.4199(6) -0.4961(7) -0.3618(5)
C34 C -0.4342(7) -0.5749(7) -0.3273(5)
H33 H -0.3843 -0.5878 -0.3013
C35 C -0.5204(7) -0.6349(7) -0.3305(6)
H34 H -0.5277 -0.6860 -0.3066
C36 C -0.4949(7) -0.4826(8) -0.4014(7)
H35 H -0.4878 -0.4311 -0.4248
C37 C -0.5794(7) -0.5402(8) -0.4084(7)
H36 H -0.6261 -0.5293 -0.4384
C38 C -0.5964(7) -0.6160(7) -0.3710(5)
C39 C -0.6879(8) -0.6718(7) -0.3739(6)
H37 H -0.7322 -0.6572 -0.4042
C40 C -0.7169(8) -0.7408(8) -0.3394(6)
H38 H -0.6731 -0.7521 -0.3072
C41 C -0.8068(6) -0.8022(7) -0.3437(5)
C42 C -0.8730(9) -0.8068(10) -0.3962(8)
H39 H -0.8616 -0.7646 -0.4276
C43 C -0.9534(10) -0.8682(10) -0.4053(7)
H40 H -0.9958 -0.8674 -0.4417
C44 C -0.9718(8) -0.9325(9) -0.3599(7)
H41 H -1.0255 -0.9774 -0.3672
C45 C -0.9104(8) -0.9303(8) -0.3029(6)
H42 H -0.9231 -0.9722 -0.2714
C46 C -0.8306(7) -0.8641(7) -0.2952(5)
C47 C -0.3667(6) -0.0994(6) -0.3548(5)
C48 C -0.2849(7) -0.0388(7) -0.3645(6)
H43 H -0.2547 0.0014 -0.3260
C49 C -0.2485(7) -0.0380(8) -0.4305(6)
H44 H -0.1922 0.0001 -0.4361
C50 C -0.2960(7) -0.0941(9) -0.4889(7)
H45 H -0.2736 -0.0908 -0.5338
C51 C -0.3770(7) -0.1552(8) -0.4798(5)
H46 H -0.4068 -0.1945 -0.5189
C52 C -0.4148(6) -0.1591(7) -0.4136(5)
C53 C -0.5027(7) -0.2204(7) -0.4052(5)
H47 H -0.5194 -0.2227 -0.3588
C54 C -0.5616(7) -0.2726(7) -0.4526(5)
H48 H -0.5455 -0.2719 -0.4993
C55 C -0.6494(7) -0.3314(7) -0.4412(5)
C56 C -0.6835(7) -0.3355(7) -0.3761(5)
H49 H -0.6533 -0.2949 -0.3377
C57 C -0.7634(7) -0.3997(8) -0.3647(5)
H50 H -0.7822 -0.4055 -0.3193
C58 C -0.7008(7) -0.3857(8) -0.4985(5)
H51 H -0.6809 -0.3811 -0.5438
C59 C -0.7816(7) -0.4467(7) -0.4887(5)
H52 H -0.8144 -0.4831 -0.5278
C60 C -0.8141(7) -0.4546(7) -0.4233(5)
C61 C -0.8985(6) -0.5211(7) -0.4132(5)
C62 C -0.9384(9) -0.5263(11) -0.3471(7)
H53 H -0.9082 -0.4881 -0.3077
C63 C -1.0221(8) -0.5867(10) -0.3374(7)
H54 H -1.0479 -0.5847 -0.2931
C64 C -0.9435(9) -0.5854(9) -0.4683(6)
H55 H -0.9179 -0.5892 -0.5129
C65 C -1.0240(8) -0.6430(9) -0.4590(7)
H56 H -1.0537 -0.6814 -0.4985
C66 C -1.0651(8) -0.6482(8) -0.3937(6)
C67 C -1.1548(8) -0.7096(9) -0.3926(7)
H57 H -1.1763 -0.7441 -0.4360
C68 C -1.2106(7) -0.7238(8) -0.3392(6)
H58 H -1.1890 -0.6965 -0.2939
C69 C -1.3052(7) -0.7808(7) -0.3482(6)
C70 C -1.3369(8) -0.8305(8) -0.4105(7)
H59 H -1.2972 -0.8285 -0.4486
C71 C -1.4255(10) -0.8852(9) -0.4222(9)
H60 H -1.4461 -0.9143 -0.4673
C72 C -1.4809(9) -0.8950(10) -0.3661(9)
H61 H -1.5398 -0.9319 -0.3728
C73 C -1.4512(8) -0.8515(10) -0.3002(8)
H62 H -1.4890 -0.8590 -0.2618
C74 C -1.3620(7) -0.7947(7) -0.2909(6)
Pb1A Pb -0.00012(2) 0.01548(2) 0.136429(17)
Pb2A Pb -0.69169(2) -0.00401(2) -0.068775(18)
Pb2A_2 Pb 0.30831(2) -0.00401(2) -0.068775(18)
Pb3_2 Pb -1.39973(2) -0.91248(2) -0.103594(18)
Pb3A Pb -0.60027(2) -0.08752(2) 0.103594(18)
Pb3A_2 Pb 0.39973(2) -0.08752(2) 0.103594(18)
Pb4A Pb -0.72251(2) 0.16480(2) 0.136048(18)
O3A O 0.0971(4) 0.0152(4) -0.0399(3)
O4A O -0.2450(4) 0.1116(5) -0.0282(4)
O5A O -0.1621(4) 0.0353(4) -0.1107(4)
O6A O -0.4453(4) -0.1314(4) 0.0325(3)
O8A O -0.4049(4) -0.0768(4) -0.0810(3)
O9A O -0.2290(5) -0.3131(5) -0.1114(4)
O12A O -0.2589(6) 0.1671(7) 0.1537(5)
O21_2 O -0.4145(7) 0.2423(7) -0.1614(6)
O23A O -0.4307(4) -0.0239(5) 0.1680(3)
N1A N -0.0019(5) 0.1665(4) -0.0804(3)
N3A N -0.4156(5) -0.2913(5) -0.1110(4)
O24 O -0.2397(11) 0.3179(12) 0.0526(8)
O25 O -0.3584(13) -0.5618(15) 0.0093(12)
O26 O -0.0447(6) 0.6755(5) -0.1283(5)
loop_
_geom_bond_atom_site_label_1
_geom_bond_atom_site_label_2
_geom_bond_site_symmetry_1
_geom_bond_site_symmetry_2
Pb1 O2 1_555 1_555
Pb2 O1 1_555 1_555
Pb3 O6 1_555 1_555
Pb4 O1 1_555 1_555
S1 O11 1_555 1_555
S2 O14 1_555 1_555
S3 O17 1_555 1_555
S4 O20 1_555 1_555
P1 O1 1_555 1_555
P2 O6 1_555 1_555
O2 P1 1_555 1_555
O3 P1 1_555 1_555
O4 C3 1_555 1_555
O5 C3 1_555 1_555
O6 Pb2A 1_555 1_555
O7 Pb2 1_555 1_555
O8 P2 1_555 1_555
O9 C12 1_555 1_555
O10 C12 1_555 1_555
O11 Pb1 1_555 1_555
O12 S1 1_555 1_555
O13 S1 1_555 1_555
O15 S2 1_555 1_555
O16 S2 1_555 1_555
O17 Pb4 1_555 1_555
O18 Pb3 1_555 1_555
O19 S3 1_555 1_555
O21 S4 1_555 1_555
O22 S4 1_555 1_555
O23 Pb3 1_555 1_555
N1 C1 1_555 1_555
N2 H1 1_555 1_555
N3 C10 1_555 1_555
N4 H2 1_555 1_555
C1 P1 1_555 1_555
H3 C1 1_555 1_555
H4 C1 1_555 1_555
C2 N1 1_555 1_555
H5 C2 1_555 1_555
H6 C2 1_555 1_555
C3 C2 1_555 1_555
C4 N1 1_555 1_555
H7 C4 1_555 1_555
H8 C4 1_555 1_555
C5 C4 1_555 1_555
C6 C5 1_555 1_555
H9 C6 1_555 1_555
C7 N2 1_555 1_555
H10 C7 1_555 1_555
C8 C5 1_555 1_555
H11 C8 1_555 1_555
C9 N2 1_555 1_555
H12 C9 1_555 1_555
C10 P2 1_555 1_555
H13 C10 1_555 1_555
H14 C10 1_555 1_555
C11 N3 1_555 1_555
H15 C11 1_555 1_555
H16 C11 1_555 1_555
C12 C11 1_555 1_555
C13 N3 1_555 1_555
H17 C13 1_555 1_555
H18 C13 1_555 1_555
C14 C13 1_555 1_555
C15 C14 1_555 1_555
H19 C15 1_555 1_555
C16 N4 1_555 1_555
H20 C16 1_555 1_555
C17 C14 1_555 1_555
H21 C17 1_555 1_555
C18 N4 1_555 1_555
H22 C18 1_555 1_555
C19 S1 1_555 1_555
C20 C19 1_555 1_555
H23 C20 1_555 1_555
C21 C20 1_555 1_555
H24 C21 1_555 1_555
C22 C21 1_555 1_555
H25 C22 1_555 1_555
C23 C22 1_555 1_555
H26 C23 1_555 1_555
C24 C19 1_555 1_555
C25 C24 1_555 1_555
H27 C25 1_555 1_555
C26 C25 1_555 1_555
H28 C26 1_555 1_555
C27 C26 1_555 1_555
C28 C27 1_555 1_555
H29 C28 1_555 1_555
C29 C28 1_555 1_555
H30 C29 1_555 1_555
C30 C27 1_555 1_555
H31 C30 1_555 1_555
C31 C30 1_555 1_555
H32 C31 1_555 1_555
C32 C29 1_555 1_555
C33 C32 1_555 1_555
C34 C33 1_555 1_555
H33 C34 1_555 1_555
C35 C34 1_555 1_555
H34 C35 1_555 1_555
C36 C33 1_555 1_555
H35 C36 1_555 1_555
C37 C36 1_555 1_555
H36 C37 1_555 1_555
C38 C35 1_555 1_555
C39 C38 1_555 1_555
H37 C39 1_555 1_555
C40 C39 1_555 1_555
H38 C40 1_555 1_555
C41 C40 1_555 1_555
C42 C41 1_555 1_555
H39 C42 1_555 1_555
C43 C42 1_555 1_555
H40 C43 1_555 1_555
C44 C43 1_555 1_555
H41 C44 1_555 1_555
C45 C44 1_555 1_555
H42 C45 1_555 1_555
C46 S2 1_555 1_555
C47 S3 1_555 1_555
C48 C47 1_555 1_555
H43 C48 1_555 1_555
C49 C48 1_555 1_555
H44 C49 1_555 1_555
C50 C49 1_555 1_555
H45 C50 1_555 1_555
C51 C50 1_555 1_555
H46 C51 1_555 1_555
C52 C47 1_555 1_555
C53 C52 1_555 1_555
H47 C53 1_555 1_555
C54 C53 1_555 1_555
H48 C54 1_555 1_555
C55 C54 1_555 1_555
C56 C55 1_555 1_555
H49 C56 1_555 1_555
C57 C56 1_555 1_555
H50 C57 1_555 1_555
C58 C55 1_555 1_555
H51 C58 1_555 1_555
C59 C58 1_555 1_555
H52 C59 1_555 1_555
C60 C57 1_555 1_555
C61 C60 1_555 1_555
C62 C61 1_555 1_555
H53 C62 1_555 1_555
C63 C62 1_555 1_555
H54 C63 1_555 1_555
C64 C61 1_555 1_555
H55 C64 1_555 1_555
C65 C64 1_555 1_555
H56 C65 1_555 1_555
C66 C63 1_555 1_555
C67 C66 1_555 1_555
H57 C67 1_555 1_555
C68 C67 1_555 1_555
H58 C68 1_555 1_555
C69 C68 1_555 1_555
C70 C69 1_555 1_555
H59 C70 1_555 1_555
C71 C70 1_555 1_555
H60 C71 1_555 1_555
C72 C71 1_555 1_555
H61 C72 1_555 1_555
C73 C72 1_555 1_555
H62 C73 1_555 1_555
C74 S4 1_555 1_555
Pb1A O3 1_555 1_555
Pb2A O23 1_555 1_555
Pb2A_2 O4 1_555 1_555
Pb3_2 O21 1_555 1_555
Pb3A O8 1_555 1_555
Pb3A_2 O4 1_555 1_555
Pb4A O8 1_555 1_555
O3A Pb1 1_555 1_555
O4A Pb2 1_555 1_555
O5A Pb1 1_555 1_555
O6A Pb2 1_555 1_555
O8A Pb3 1_555 1_555
O9A Pb4 1_555 1_555
O12A Pb2 1_555 1_555
O21_2 Pb3 1_555 1_555
O23A Pb2 1_555 1_555
N1A Pb1 1_555 1_555
N3A Pb4 1_555 1_555
Pb3 O7 1_555 1_555
Pb3 O4A 1_555 1_555
Pb4 O8A 1_555 1_555
S3 O18 1_555 1_555
P2 O7 1_555 1_555
O5 Pb1A 1_555 1_555
O9 Pb4A 1_555 1_555
O12 Pb2A_2 1_555 1_555
N1 Pb1A 1_555 1_555
N3 Pb4A 1_555 1_555
C6 C7 1_555 1_555
C8 C9 1_555 1_555
C15 C16 1_555 1_555
C17 C18 1_555 1_555
C23 C24 1_555 1_555
C31 C32 1_555 1_555
C37 C38 1_555 1_555
C41 C46 1_555 1_555
C45 C46 1_555 1_555
C51 C52 1_555 1_555
C59 C60 1_555 1_555
C65 C66 1_555 1_555
C69 C74 1_555 1_555
C73 C74 1_555 1_555
Pb3A O6A 1_555 1_555
Pb3A O23A 1_555 1_555

#END
