
#######################################################################
#
#                 Cambridge Crystallographic Data Centre
#                                CCDC 
#
#######################################################################
#
# If this CIF has been generated from an entry in the Cambridge 
# Structural Database, then it will include bibliographic, chemical, 
# crystal, experimental, refinement or atomic coordinate data resulting 
# from the CCDC's data processing and validation procedures.
#
#######################################################################

data_HIYBEW
_symmetry_cell_setting           triclinic
_symmetry_space_group_name_H-M   'P -1'
_symmetry_Int_Tables_number      2
_space_group_name_Hall           '-P 1'
loop_
_symmetry_equiv_pos_site_id
_symmetry_equiv_pos_as_xyz
1 x,y,z
2 -x,-y,-z
_cell_length_a                   17.019(2)
_cell_length_b                   18.466(2)
_cell_length_c                   18.921(2)
_cell_angle_alpha                71.952(7)
_cell_angle_beta                 72.482(8)
_cell_angle_gamma                73.333(9)
_cell_volume                     5267.29
loop_
_atom_site_label
_atom_site_type_symbol
_atom_site_fract_x
_atom_site_fract_y
_atom_site_fract_z
Sn1 Sn 0.27953(2) 0.21882(2) 0.04264(2)
S1 S 0.4957(1) 0.3891(1) -0.1011(1)
S2 S 0.3967(1) 0.4347(1) 0.0463(1)
O1 O 0.3553(2) 0.3034(2) -0.0318(2)
O2 O 0.2746(2) 0.3737(2) -0.1117(2)
N1 N 0.5552(3) 0.3596(3) 0.0187(3)
C1 C 0.2976(3) 0.1576(2) -0.0425(2)
C2 C 0.3169(3) 0.0766(2) -0.0215(2)
C3 C 0.3293(3) 0.0344(2) -0.0747(3)
C4 C 0.3224(3) 0.0732(3) -0.1491(3)
C5 C 0.3031(3) 0.1542(3) -0.1701(2)
C6 C 0.2907(3) 0.1964(2) -0.1169(2)
C7 C 0.3658(2) 0.1842(3) 0.1141(2)
C8 C 0.3346(2) 0.1978(3) 0.1868(2)
C9 C 0.3877(3) 0.1763(4) 0.2365(2)
C10 C 0.4719(3) 0.1411(3) 0.2136(3)
C11 C 0.5031(2) 0.1275(3) 0.1409(3)
C12 C 0.4501(3) 0.1490(3) 0.0912(2)
C13 C 0.1715(2) 0.3035(2) 0.0836(2)
C14 C 0.1853(1) 0.3753(2) 0.0801(1)
C15 C 0.1194(2) 0.4305(2) 0.1099(2)
C16 C 0.0398(2) 0.4138(2) 0.1432(2)
C17 C 0.0261(2) 0.3420(2) 0.1467(2)
C18 C 0.0919(2) 0.2869(2) 0.1169(2)
C19 C 0.3366(2) 0.3620(2) -0.0839(1)
C20 C 0.3888(2) 0.4227(2) -0.1115(2)
C21 C 0.4843(2) 0.3918(2) -0.0056(2)
C22 C 0.5583(2) 0.3603(4) 0.0950(3)
C23 C 0.6304(1) 0.3228(1) -0.0258(1)
C24 C 0.6944(1) 0.3631(2) -0.0654(1)
C25 C 0.76932(7) 0.3264(2) -0.1070(1)
C26 C 0.78014(7) 0.2494(2) -0.1088(1)
C27 C 0.7161(1) 0.2091(2) -0.0691(1)
C28 C 0.6412(1) 0.2458(1) -0.0276(1)
Sn2 Sn 0.21780(2) -0.54558(2) 0.78673(2)
S3 S -0.00214(6) -0.39897(6) 0.63081(6)
S4 S 0.11268(7) -0.52953(9) 0.56174(6)
O3 O 0.1446(1) -0.4704(1) 0.7029(1)
O4 O 0.2283(1) -0.3894(1) 0.6289(1)
N2 N -0.0490(1) -0.5195(1) 0.6292(1)
C29 C 0.2101(3) -0.4537(2) 0.8364(2)
C30 C 0.2485(3) -0.3914(3) 0.7946(2)
C31 C 0.2421(4) -0.3321(2) 0.8281(3)
C32 C 0.1974(4) -0.3351(3) 0.9033(3)
C33 C 0.1590(3) -0.3974(3) 0.9451(2)
C34 C 0.1653(3) -0.4567(3) 0.9116(2)
C35 C 0.1226(2) -0.6134(2) 0.8313(2)
C36 C 0.0918(3) -0.6404(3) 0.9094(2)
C37 C 0.0345(3) -0.6888(3) 0.9356(2)
C38 C 0.0080(3) -0.7103(3) 0.8838(3)
C39 C 0.0388(3) -0.6834(3) 0.8057(3)
C40 C 0.0961(3) -0.6349(3) 0.7795(2)
C41 C 0.3251(2) -0.5939(2) 0.7058(2)
C42 C 0.3957(2) -0.6446(2) 0.7289(2)
C43 C 0.4629(2) -0.6754(2) 0.6757(2)
C44 C 0.4594(2) -0.6555(2) 0.5994(2)
C45 C 0.3888(2) -0.6047(2) 0.5763(2)
C46 C 0.3216(1) -0.5739(1) 0.6296(2)
C47 C 0.1614(2) -0.4138(1) 0.6470(2)
C48 C 0.0983(2) -0.3734(1) 0.5981(2)
C49 C 0.0188(2) -0.4880(2) 0.6068(2)
C50 C -0.0452(2) -0.5939(2) 0.6150(3)
C51 C -0.1290(1) -0.4814(1) 0.6671(1)
C52 C -0.1829(1) -0.4249(1) 0.6253(1)
C53 C -0.2609(1) -0.3886(1) 0.6629(2)
C54 C -0.2849(1) -0.4088(1) 0.7422(2)
C55 C -0.2310(1) -0.4653(1) 0.7840(1)
C56 C -0.1531(1) -0.5016(1) 0.7464(1)
Sn3 Sn 0.28390(2) -0.28433(2) 0.54064(2)
S5 S 0.50566(5) -0.12869(6) 0.38507(5)
S6 S 0.38671(6) -0.06108(5) 0.51406(8)
O5 O 0.3548(1) -0.2001(1) 0.4566(1)
O6 O 0.2660(1) -0.1127(1) 0.3909(1)
N3 N 0.5471(1) -0.1294(1) 0.5053(1)
C57 C 0.2789(3) -0.3328(2) 0.4539(2)
C58 C 0.3194(3) -0.4099(2) 0.4548(3)
C59 C 0.3186(3) -0.4426(2) 0.3980(3)
C60 C 0.2773(4) -0.3982(3) 0.3404(3)
C61 C 0.2368(4) -0.3211(3) 0.3395(3)
C62 C 0.2376(3) -0.2884(2) 0.3963(3)
C63 C 0.1861(2) -0.2031(2) 0.5973(2)
C64 C 0.1720(3) -0.1238(2) 0.5624(2)
C65 C 0.1109(3) -0.0716(2) 0.6004(2)
C66 C 0.0640(3) -0.0987(2) 0.6734(2)
C67 C 0.0781(3) -0.1779(3) 0.7084(2)
C68 C 0.1392(3) -0.2301(2) 0.6703(2)
C69 C 0.3853(2) -0.3329(1) 0.5981(2)
C70 C 0.4096(2) -0.2841(2) 0.6269(1)
C71 C 0.4674(2) -0.3152(2) 0.6729(1)
C72 C 0.5008(2) -0.3949(2) 0.6899(2)
C73 C 0.4765(2) -0.4436(2) 0.6611(2)
C74 C 0.4188(2) -0.4126(1) 0.6151(2)
C75 C 0.3373(2) -0.1392(2) 0.4062(2)
C76 C 0.4066(2) -0.0971(2) 0.3587(2)
C77 C 0.4819(2) -0.1055(2) 0.4737(2)
C78 C 0.5410(3) -0.1194(2) 0.5813(2)
C79 C 0.6279(1) -0.1664(1) 0.4678(1)
C80 C 0.6519(1) -0.2473(1) 0.4862(1)
C81 C 0.7302(1) -0.2840(2) 0.4495(1)
C82 C 0.7844(1) -0.2397(2) 0.3943(1)
C83 C 0.7604(1) -0.1589(2) 0.3759(1)
C84 C 0.6822(1) -0.1222(2) 0.4127(1)
Sn4 Sn 0.20030(2) -0.02504(2) 0.29162(2)
S7 S 0.00166(6) 0.09953(6) 0.10774(5)
S8 S 0.08688(8) -0.05806(8) 0.07343(7)
O7 O 0.1322(1) 0.0374(1) 0.2015(1)
O8 O 0.2136(1) 0.1192(1) 0.1303(1)
N4 N -0.0745(1) -0.0121(1) 0.1321(1)
C85 C 0.3108(2) -0.0731(2) 0.2170(2)
C86 C 0.3714(3) -0.0303(2) 0.1723(3)
C87 C 0.4469(2) -0.0664(3) 0.1310(3)
C88 C 0.4617(2) -0.1453(4) 0.1344(3)
C89 C 0.4011(3) -0.1881(2) 0.1791(3)
C90 C 0.3257(3) -0.1520(2) 0.2204(3)
C91 C 0.1859(3) 0.0726(2) 0.3371(2)
C92 C 0.1434(3) 0.1453(2) 0.3028(2)
C93 C 0.1342(3) 0.2098(2) 0.3298(3)
C94 C 0.1675(3) 0.2017(2) 0.3913(3)
C95 C 0.2100(3) 0.1290(3) 0.4256(2)
C96 C 0.2192(3) 0.0644(2) 0.3985(2)
C97 C 0.1055(2) -0.0916(2) 0.3399(2)
C98 C 0.0708(2) -0.1052(2) 0.4182(1)
C99 C 0.0100(2) -0.1502(2) 0.4516(2)
C100 C -0.0160(2) -0.1816(2) 0.4067(2)
C101 C 0.0187(2) -0.1680(1) 0.3285(2)
C102 C 0.0794(2) -0.1230(1) 0.2951(2)
C103 C 0.1556(2) 0.0858(2) 0.1403(2)
C104 C 0.1118(2) 0.1014(2) 0.0767(2)
C105 C 0.0022(2) 0.0034(2) 0.1058(2)
C106 C -0.0887(3) -0.0864(3) 0.1311(2)
C107 C -0.1470(2) 0.0391(2) 0.1649(3)
C108 C -0.1989(3) 0.0925(3) 0.1191(2)
C109 C -0.2727(3) 0.1386(3) 0.1518(3)
C110 C -0.2948(3) 0.1313(3) 0.2303(4)
C111 C -0.2429(3) 0.0778(3) 0.2760(2)
C112 C -0.1691(3) 0.0317(3) 0.2433(2)
H1 H 0.3216 0.0506 0.0283
H2 H 0.3422 -0.0198 -0.0606
H3 H 0.3307 0.0449 -0.1847
H4 H 0.2984 0.1801 -0.2199
H5 H 0.2778 0.2506 -0.1310
H6 H 0.2782 0.2214 0.2021
H7 H 0.3668 0.1854 0.2851
H8 H 0.5074 0.1267 0.2468
H9 H 0.5595 0.1040 0.1256
H10 H 0.4709 0.1399 0.0426
H11 H 0.2385 0.3865 0.0579
H12 H 0.1286 0.4785 0.1076
H13 H -0.0043 0.4507 0.1631
H14 H -0.0272 0.3309 0.1689
H15 H 0.0827 0.2388 0.1192
H16 H 0.3609 0.4631 -0.0841
H17 H 0.3898 0.4463 -0.1652
H18 H 0.6137 0.3349 0.1032
H19 H 0.5175 0.3332 0.1328
H20 H 0.5458 0.4132 0.0990
H21 H 0.6872 0.4146 -0.0642
H22 H 0.8122 0.3533 -0.1335
H23 H 0.8303 0.2249 -0.1366
H24 H 0.7233 0.1576 -0.0704
H25 H 0.5983 0.2189 -0.0011
H26 H 0.2784 -0.3894 0.7443
H27 H 0.2678 -0.2904 0.8001
H28 H 0.1931 -0.2954 0.9257
H29 H 0.1290 -0.3994 0.9954
H30 H 0.1396 -0.4984 0.9395
H31 H 0.1095 -0.6260 0.9441
H32 H 0.0139 -0.7069 0.9878
H33 H -0.0303 -0.7428 0.9013
H34 H 0.0211 -0.6978 0.7711
H35 H 0.1168 -0.6169 0.7273
H36 H 0.3981 -0.6580 0.7799
H37 H 0.5102 -0.7094 0.6912
H38 H 0.5044 -0.6761 0.5638
H39 H 0.3864 -0.5913 0.5253
H40 H 0.2743 -0.5399 0.6140
H41 H 0.1236 -0.3836 0.5478
H42 H 0.0893 -0.3177 0.5918
H43 H -0.0997 -0.6068 0.6351
H44 H -0.0048 -0.6339 0.6395
H45 H -0.0285 -0.5899 0.5609
H46 H -0.1668 -0.4114 0.5722
H47 H -0.2970 -0.3508 0.6349
H48 H -0.3371 -0.3846 0.7674
H49 H -0.2471 -0.4789 0.8371
H50 H -0.1170 -0.5394 0.7744
H51 H 0.3470 -0.4396 0.4933
H52 H 0.3457 -0.4942 0.3986
H53 H 0.2768 -0.4201 0.3025
H54 H 0.2092 -0.2914 0.3010
H55 H 0.2105 -0.2368 0.3957
H56 H 0.2034 -0.1057 0.5136
H57 H 0.1015 -0.0185 0.5770
H58 H 0.0232 -0.0637 0.6989
H59 H 0.0467 -0.1960 0.7572
H60 H 0.1486 -0.2832 0.6937
H61 H 0.3872 -0.2308 0.6155
H62 H 0.4836 -0.2826 0.6922
H63 H 0.5394 -0.4157 0.7207
H64 H 0.4989 -0.4970 0.6725
H65 H 0.4025 -0.4452 0.5958
H66 H 0.3859 -0.0424 0.3590
H67 H 0.4169 -0.1004 0.3064
H68 H 0.5948 -0.1405 0.5942
H69 H 0.4998 -0.1462 0.6188
H70 H 0.5243 -0.0649 0.5804
H71 H 0.6157 -0.2769 0.5231
H72 H 0.7463 -0.3381 0.4618
H73 H 0.8368 -0.2643 0.3698
H74 H 0.7967 -0.1293 0.3390
H75 H 0.6661 -0.0681 0.4003
H76 H 0.3615 0.0225 0.1701
H77 H 0.4874 -0.0377 0.1011
H78 H 0.5122 -0.1694 0.1067
H79 H 0.4111 -0.2409 0.1813
H80 H 0.2851 -0.1807 0.2503
H81 H 0.1212 0.1507 0.2617
H82 H 0.1058 0.2585 0.3069
H83 H 0.1613 0.2449 0.4094
H84 H 0.2322 0.1236 0.4667
H85 H 0.2476 0.0158 0.4215
H86 H 0.0883 -0.0842 0.4481
H87 H -0.0132 -0.1593 0.5039
H88 H -0.0567 -0.2117 0.4291
H89 H 0.0012 -0.1890 0.2985
H90 H 0.1026 -0.1140 0.2427
H91 H 0.1402 0.0628 0.0472
H92 H 0.1180 0.1521 0.0430
H93 H -0.1473 -0.0877 0.1521
H94 H -0.0553 -0.1287 0.1613
H95 H -0.0729 -0.0916 0.0795
H96 H -0.1841 0.0974 0.0666
H97 H -0.3074 0.1744 0.1212
H98 H -0.3442 0.1621 0.2522
H99 H -0.2577 0.0729 0.3285
H100 H -0.1344 -0.0040 0.2739
Sn2_2 Sn 0.21780(2) 0.45442(2) -0.21327(2)
O2_2 O 0.2746(2) -0.6263(2) 0.8883(2)
loop_
_geom_bond_atom_site_label_1
_geom_bond_atom_site_label_2
_geom_bond_site_symmetry_1
_geom_bond_site_symmetry_2
Sn1 O1 1_555 1_555
S1 C20 1_555 1_555
S2 C21 1_555 1_555
O1 C19 1_555 1_555
O2 C19 1_555 1_555
N1 C21 1_555 1_555
C1 Sn1 1_555 1_555
C2 C1 1_555 1_555
C3 C2 1_555 1_555
C4 C3 1_555 1_555
C5 C4 1_555 1_555
C6 C1 1_555 1_555
C7 Sn1 1_555 1_555
C8 C7 1_555 1_555
C9 C8 1_555 1_555
C10 C9 1_555 1_555
C11 C10 1_555 1_555
C12 C7 1_555 1_555
C13 Sn1 1_555 1_555
C14 C13 1_555 1_555
C15 C14 1_555 1_555
C16 C15 1_555 1_555
C17 C16 1_555 1_555
C18 C13 1_555 1_555
C19 C20 1_555 1_555
C20 H16 1_555 1_555
C21 S1 1_555 1_555
C22 N1 1_555 1_555
C23 N1 1_555 1_555
C24 C23 1_555 1_555
C25 C24 1_555 1_555
C26 C25 1_555 1_555
C27 C26 1_555 1_555
C28 C23 1_555 1_555
Sn2 O3 1_555 1_555
S3 C48 1_555 1_555
S4 C49 1_555 1_555
O3 C47 1_555 1_555
O4 C47 1_555 1_555
N2 C49 1_555 1_555
C29 Sn2 1_555 1_555
C30 C29 1_555 1_555
C31 C30 1_555 1_555
C32 C31 1_555 1_555
C33 C32 1_555 1_555
C34 C29 1_555 1_555
C35 Sn2 1_555 1_555
C36 C35 1_555 1_555
C37 C36 1_555 1_555
C38 C37 1_555 1_555
C39 C38 1_555 1_555
C40 C35 1_555 1_555
C41 Sn2 1_555 1_555
C42 C41 1_555 1_555
C43 C42 1_555 1_555
C44 C43 1_555 1_555
C45 C44 1_555 1_555
C46 C41 1_555 1_555
C47 C48 1_555 1_555
C48 H41 1_555 1_555
C49 S3 1_555 1_555
C50 N2 1_555 1_555
C51 N2 1_555 1_555
C52 C51 1_555 1_555
C53 C52 1_555 1_555
C54 C53 1_555 1_555
C55 C54 1_555 1_555
C56 C51 1_555 1_555
Sn3 O4 1_555 1_555
S5 C76 1_555 1_555
S6 C77 1_555 1_555
O5 Sn3 1_555 1_555
O6 C75 1_555 1_555
N3 C77 1_555 1_555
C57 Sn3 1_555 1_555
C58 C57 1_555 1_555
C59 C58 1_555 1_555
C60 C59 1_555 1_555
C61 C60 1_555 1_555
C62 C57 1_555 1_555
C63 Sn3 1_555 1_555
C64 C63 1_555 1_555
C65 C64 1_555 1_555
C66 C65 1_555 1_555
C67 C66 1_555 1_555
C68 C63 1_555 1_555
C69 Sn3 1_555 1_555
C70 C69 1_555 1_555
C71 C70 1_555 1_555
C72 C71 1_555 1_555
C73 C72 1_555 1_555
C74 C69 1_555 1_555
C75 O5 1_555 1_555
C76 C75 1_555 1_555
C77 S5 1_555 1_555
C78 N3 1_555 1_555
C79 N3 1_555 1_555
C80 C79 1_555 1_555
C81 C80 1_555 1_555
C82 C81 1_555 1_555
C83 C82 1_555 1_555
C84 C79 1_555 1_555
Sn4 O6 1_555 1_555
S7 C104 1_555 1_555
S8 C105 1_555 1_555
O7 Sn4 1_555 1_555
O8 Sn1 1_555 1_555
N4 C105 1_555 1_555
C85 Sn4 1_555 1_555
C86 C85 1_555 1_555
C87 C86 1_555 1_555
C88 C87 1_555 1_555
C89 C88 1_555 1_555
C90 C85 1_555 1_555
C91 Sn4 1_555 1_555
C92 C91 1_555 1_555
C93 C92 1_555 1_555
C94 C93 1_555 1_555
C95 C94 1_555 1_555
C96 C91 1_555 1_555
C97 Sn4 1_555 1_555
C98 C97 1_555 1_555
C99 C98 1_555 1_555
C100 C99 1_555 1_555
C101 C100 1_555 1_555
C102 C97 1_555 1_555
C103 O7 1_555 1_555
C104 C103 1_555 1_555
C105 S7 1_555 1_555
C106 N4 1_555 1_555
C107 N4 1_555 1_555
C108 C107 1_555 1_555
C109 C108 1_555 1_555
C110 C109 1_555 1_555
C111 C110 1_555 1_555
C112 C107 1_555 1_555
H1 C2 1_555 1_555
H2 C3 1_555 1_555
H3 C4 1_555 1_555
H4 C5 1_555 1_555
H5 C6 1_555 1_555
H6 C8 1_555 1_555
H7 C9 1_555 1_555
H8 C10 1_555 1_555
H9 C11 1_555 1_555
H10 C12 1_555 1_555
H11 C14 1_555 1_555
H12 C15 1_555 1_555
H13 C16 1_555 1_555
H14 C17 1_555 1_555
H15 C18 1_555 1_555
H17 C20 1_555 1_555
H18 C22 1_555 1_555
H19 C22 1_555 1_555
H20 C22 1_555 1_555
H21 C24 1_555 1_555
H22 C25 1_555 1_555
H23 C26 1_555 1_555
H24 C27 1_555 1_555
H25 C28 1_555 1_555
H26 C30 1_555 1_555
H27 C31 1_555 1_555
H28 C32 1_555 1_555
H29 C33 1_555 1_555
H30 C34 1_555 1_555
H31 C36 1_555 1_555
H32 C37 1_555 1_555
H33 C38 1_555 1_555
H34 C39 1_555 1_555
H35 C40 1_555 1_555
H36 C42 1_555 1_555
H37 C43 1_555 1_555
H38 C44 1_555 1_555
H39 C45 1_555 1_555
H40 C46 1_555 1_555
H42 C48 1_555 1_555
H43 C50 1_555 1_555
H44 C50 1_555 1_555
H45 C50 1_555 1_555
H46 C52 1_555 1_555
H47 C53 1_555 1_555
H48 C54 1_555 1_555
H49 C55 1_555 1_555
H50 C56 1_555 1_555
H51 C58 1_555 1_555
H52 C59 1_555 1_555
H53 C60 1_555 1_555
H54 C61 1_555 1_555
H55 C62 1_555 1_555
H56 C64 1_555 1_555
H57 C65 1_555 1_555
H58 C66 1_555 1_555
H59 C67 1_555 1_555
H60 C68 1_555 1_555
H61 C70 1_555 1_555
H62 C71 1_555 1_555
H63 C72 1_555 1_555
H64 C73 1_555 1_555
H65 C74 1_555 1_555
H66 C76 1_555 1_555
H67 C76 1_555 1_555
H68 C78 1_555 1_555
H69 C78 1_555 1_555
H70 C78 1_555 1_555
H71 C80 1_555 1_555
H72 C81 1_555 1_555
H73 C82 1_555 1_555
H74 C83 1_555 1_555
H75 C84 1_555 1_555
H76 C86 1_555 1_555
H77 C87 1_555 1_555
H78 C88 1_555 1_555
H79 C89 1_555 1_555
H80 C90 1_555 1_555
H81 C92 1_555 1_555
H82 C93 1_555 1_555
H83 C94 1_555 1_555
H84 C95 1_555 1_555
H85 C96 1_555 1_555
H86 C98 1_555 1_555
H87 C99 1_555 1_555
H88 C100 1_555 1_555
H89 C101 1_555 1_555
H90 C102 1_555 1_555
H91 C104 1_555 1_555
H92 C104 1_555 1_555
H93 C106 1_555 1_555
H94 C106 1_555 1_555
H95 C106 1_555 1_555
H96 C108 1_555 1_555
H97 C109 1_555 1_555
H98 C110 1_555 1_555
H99 C111 1_555 1_555
H100 C112 1_555 1_555
Sn2_2 O2 1_555 1_555
O2_2 Sn2 1_555 1_555
C5 C6 1_555 1_555
C11 C12 1_555 1_555
C17 C18 1_555 1_555
C27 C28 1_555 1_555
C33 C34 1_555 1_555
C39 C40 1_555 1_555
C45 C46 1_555 1_555
C55 C56 1_555 1_555
C61 C62 1_555 1_555
C67 C68 1_555 1_555
C73 C74 1_555 1_555
C83 C84 1_555 1_555
O8 C103 1_555 1_555
C89 C90 1_555 1_555
C95 C96 1_555 1_555
C101 C102 1_555 1_555
C111 C112 1_555 1_555

#END
