
#######################################################################
#
#                 Cambridge Crystallographic Data Centre
#                                CCDC 
#
#######################################################################
#
# If this CIF has been generated from an entry in the Cambridge 
# Structural Database, then it will include bibliographic, chemical, 
# crystal, experimental, refinement or atomic coordinate data resulting 
# from the CCDC's data processing and validation procedures.
#
#######################################################################

data_HIYBUN
_symmetry_cell_setting           orthorhombic
_symmetry_space_group_name_H-M   'F d d 2'
_symmetry_Int_Tables_number      43
_space_group_name_Hall           'F 2 -2d'
loop_
_symmetry_equiv_pos_site_id
_symmetry_equiv_pos_as_xyz
1 x,y,z
2 -x,-y,z
3 1/4+x,1/4-y,1/4+z
4 1/4-x,1/4+y,1/4+z
5 x,1/2+y,1/2+z
6 -x,1/2-y,1/2+z
7 1/4+x,3/4-y,3/4+z
8 1/4-x,3/4+y,3/4+z
9 1/2+x,y,1/2+z
10 1/2-x,-y,1/2+z
11 3/4+x,1/4-y,3/4+z
12 3/4-x,1/4+y,3/4+z
13 1/2+x,1/2+y,z
14 1/2-x,1/2-y,z
15 3/4+x,3/4-y,1/4+z
16 3/4-x,3/4+y,1/4+z
_cell_length_a                   49.574(6)
_cell_length_b                   50.307(6)
_cell_length_c                   6.1937(8)
_cell_angle_alpha                90
_cell_angle_beta                 90
_cell_angle_gamma                90
_cell_volume                     15446.6
loop_
_atom_site_label
_atom_site_type_symbol
_atom_site_fract_x
_atom_site_fract_y
_atom_site_fract_z
Br1 Br -0.389885(6) 0.180422(6) -0.05927(5)
Br2 Br -0.360833(5) 0.104880(6) -0.15010(5)
Br3 Br -0.208247(6) 0.242486(6) 1.97519(5)
Zn1 Zn -0.376530(6) 0.138655(6) 0.08231(6)
Zn2 Zn -0.2500 0.2500 1.80928(8)
C1 C -0.32389(6) 0.12968(6) 0.2841(5)
H1 H -0.3225 0.1175 0.1673
C2 C -0.30223(6) 0.13264(6) 0.4210(5)
H2 H -0.2862 0.1226 0.3987
C3 C -0.30398(5) 0.15034(5) 0.5916(5)
C4 C -0.32792(5) 0.16414(6) 0.6234(5)
H3 H -0.3299 0.1760 0.7415
C5 C -0.34882(5) 0.16014(6) 0.4785(5)
H4 H -0.3652 0.1696 0.4994
C6 C -0.27974(5) 0.15506(5) 0.7268(5)
C7 C -0.23469(5) 0.15058(6) 0.7600(5)
C8 C -0.25819(5) 0.17280(5) 1.0128(5)
C9 C -0.27896(6) 0.21658(5) 1.4768(5)
H5 H -0.2947 0.2251 1.5307
C10 C -0.28113(6) 0.20084(5) 1.2944(5)
H6 H -0.2981 0.1984 1.2255
C11 C -0.25810(6) 0.18866(5) 1.2141(5)
C12 C -0.23382(6) 0.19229(6) 1.3230(5)
H7 H -0.2178 0.1840 1.2725
C13 C -0.23333(6) 0.20801(6) 1.5048(5)
H8 H -0.2167 0.2103 1.5795
C14 C -0.16090(6) 0.13717(6) 0.6738(5)
H9 H -0.1442 0.1405 0.7438
C15 C -0.18439(6) 0.14596(6) 0.7716(5)
H10 H -0.1839 0.1549 0.9066
C16 C -0.20873(5) 0.14132(6) 0.6669(5)
C17 C -0.20855(6) 0.12829(6) 0.4699(5)
H11 H -0.2249 0.1251 0.3945
C18 C -0.18430(6) 0.11995(6) 0.3848(5)
H12 H -0.1843 0.1109 0.2503
N1 N -0.34703(5) 0.14342(5) 0.3098(4)
N2 N -0.28171(5) 0.16916(5) 0.9095(4)
N3 N -0.23421(5) 0.16401(5) 0.9454(4)
N4 N -0.25677(5) 0.14526(5) 0.6460(4)
N5 N -0.25550(5) 0.22035(5) 1.5807(4)
N6 N -0.16065(5) 0.12420(5) 0.4853(4)
Br1M Br -0.110115(6) 0.319578(6) -0.05927(5)
Br2M Br -0.139167(5) 0.395120(6) -0.15010(5)
Br3M Br -0.291753(6) 0.257514(6) 1.97519(5)
Zn1M Zn -0.123470(6) 0.361345(6) 0.08231(6)
Zn1B Zn -0.126530(6) 0.111345(6) 0.33231(6)
Zn1C Zn -0.373470(6) 0.388655(6) 0.33231(6)
C1M C -0.17611(6) 0.37032(6) 0.2841(5)
H1M H -0.1775 0.3825 0.1673
C2M C -0.19777(6) 0.36736(6) 0.4210(5)
H2M H -0.2138 0.3774 0.3987
C3M C -0.19602(5) 0.34966(5) 0.5916(5)
C4M C -0.17208(5) 0.33586(6) 0.6234(5)
H3M H -0.1701 0.3240 0.7415
C5M C -0.15118(5) 0.33986(6) 0.4785(5)
H4M H -0.1348 0.3304 0.4994
C6M C -0.22026(5) 0.34494(5) 0.7268(5)
C7M C -0.26531(5) 0.34942(6) 0.7600(5)
C8M C -0.24181(5) 0.32720(5) 1.0128(5)
C9M C -0.22104(6) 0.28342(5) 1.4768(5)
H5M H -0.2053 0.2749 1.5307
C10M C -0.21887(6) 0.29916(5) 1.2944(5)
H6M H -0.2019 0.3016 1.2255
C11M C -0.24190(6) 0.31134(5) 1.2141(5)
C12M C -0.26618(6) 0.30771(6) 1.3230(5)
H7M H -0.2822 0.3160 1.2725
C13M C -0.26667(6) 0.29199(6) 1.5048(5)
H8M H -0.2833 0.2897 1.5795
C14M C -0.33910(6) 0.36283(6) 0.6738(5)
H9M H -0.3558 0.3595 0.7438
C15M C -0.31561(6) 0.35404(6) 0.7716(5)
H10M H -0.3161 0.3451 0.9066
C16M C -0.29127(5) 0.35868(6) 0.6669(5)
C17M C -0.29145(6) 0.37171(6) 0.4699(5)
H11M H -0.2751 0.3749 0.3945
C18M C -0.31570(6) 0.38005(6) 0.3848(5)
H12M H -0.3157 0.3891 0.2503
N1M N -0.15297(5) 0.35658(5) 0.3098(4)
N2M N -0.21829(5) 0.33084(5) 0.9095(4)
N3M N -0.26579(5) 0.33599(5) 0.9454(4)
N4M N -0.24323(5) 0.35474(5) 0.6460(4)
N5M N -0.24450(5) 0.27965(5) 1.5807(4)
N6M N -0.33935(5) 0.37580(5) 0.4853(4)
N6J N -0.41065(5) 0.12580(5) 0.2353(4)
N6K N -0.08935(5) 0.37420(5) 0.2353(4)
C19 C -0.14535(6) 0.22219(6) 0.3021(6)
C20 C -0.15426(8) 0.22658(9) 0.5089(7)
H13 H -0.1669 0.2150 0.5749
C21 C -0.14436(11) 0.24807(11) 0.6165(8)
H14 H -0.1505 0.2516 0.7589
C22 C -0.12572(12) 0.26468(9) 0.5239(9)
H15 H -0.1190 0.2795 0.6019
C23 C -0.11679(11) 0.25971(9) 0.3164(9)
H16 H -0.1037 0.2710 0.2529
C24 C -0.12678(8) 0.23847(8) 0.2011(7)
H17 H -0.1211 0.2351 0.0572
N7 N -0.15610(5) 0.19956(6) 0.1767(6)
O1 O -0.16998(5) 0.18337(5) 0.2723(6)
O2 O -0.15069(6) 0.19805(5) -0.0152(5)
C25 C -0.24309(6) 0.07964(6) 0.8024(5)
C26 C -0.25206(6) 0.07029(6) 0.6056(6)
H18 H -0.2703 0.0727 0.5623
C27 C -0.23399(7) 0.05741(7) 0.4735(6)
H19 H -0.2397 0.0506 0.3379
C28 C -0.20740(7) 0.05427(7) 0.5376(7)
H20 H -0.1949 0.0456 0.4447
C29 C -0.19892(7) 0.06365(8) 0.7360(7)
H21 H -0.1807 0.0613 0.7790
C30 C -0.21681(7) 0.07642(7) 0.8724(6)
H22 H -0.2112 0.0828 1.0098
N8 N -0.26202(6) 0.09413(5) 0.9415(5)
O3 O -0.28548(5) 0.09636(5) 0.8822(4)
O4 O -0.25338(6) 0.10389(6) 1.1089(5)
C31 C -0.29904(8) 0.01687(7) 0.3988(6)
C32 C -0.29526(8) 0.02701(11) 0.1937(9)
H23 H -0.2816 0.0207 0.0993
C33 C -0.31429(9) 0.04842(9) 0.1327(8)
H24 H -0.3134 0.0567 -0.0049
C34 C -0.33290(9) 0.05567(8) 0.2807(8)
H25 H -0.3456 0.0691 0.2443
C35 C -0.33410(10) 0.04456(10) 0.4768(10)
H26 H -0.3474 0.0508 0.5753
C36 C -0.31752(9) 0.02520(10) 0.5401(8)
H27 H -0.3188 0.0176 0.6803
N9 N -0.28008(8) -0.00453(8) 0.4660(8)
O5 O -0.28587(9) -0.01728(8) 0.6186(7)
O6 O -0.26023(7) -0.00928(8) 0.3514(8)
loop_
_geom_bond_atom_site_label_1
_geom_bond_atom_site_label_2
_geom_bond_site_symmetry_1
_geom_bond_site_symmetry_2
Br1 Zn1 1_555 1_555
Br2 Zn1 1_555 1_555
Br3 Zn2 1_555 1_555
Zn1 N1 1_555 1_555
Zn2 N5 1_555 1_555
C1 H1 1_555 1_555
C2 C1 1_555 1_555
H2 C2 1_555 1_555
C3 C2 1_555 1_555
C4 C3 1_555 1_555
H3 C4 1_555 1_555
C5 C4 1_555 1_555
H4 C5 1_555 1_555
C6 C3 1_555 1_555
C7 C16 1_555 1_555
C8 C11 1_555 1_555
C9 H5 1_555 1_555
C10 C9 1_555 1_555
H6 C10 1_555 1_555
C11 C10 1_555 1_555
C12 C11 1_555 1_555
H7 C12 1_555 1_555
C13 C12 1_555 1_555
H8 C13 1_555 1_555
C14 H9 1_555 1_555
C15 C14 1_555 1_555
H10 C15 1_555 1_555
C16 C15 1_555 1_555
C17 C16 1_555 1_555
H11 C17 1_555 1_555
C18 C17 1_555 1_555
H12 C18 1_555 1_555
N1 C1 1_555 1_555
N2 C6 1_555 1_555
N3 C7 1_555 1_555
N4 C6 1_555 1_555
N5 C9 1_555 1_555
N6 C14 1_555 1_555
C19 C20 1_555 1_555
C20 H13 1_555 1_555
C21 C20 1_555 1_555
H14 C21 1_555 1_555
C22 C21 1_555 1_555
H15 C22 1_555 1_555
C23 C22 1_555 1_555
H16 C23 1_555 1_555
C24 C19 1_555 1_555
H17 C24 1_555 1_555
N7 C19 1_555 1_555
O1 N7 1_555 1_555
O2 N7 1_555 1_555
C25 C26 1_555 1_555
C26 H18 1_555 1_555
C27 C26 1_555 1_555
H19 C27 1_555 1_555
C28 C27 1_555 1_555
H20 C28 1_555 1_555
C29 C28 1_555 1_555
H21 C29 1_555 1_555
C30 C25 1_555 1_555
H22 C30 1_555 1_555
N8 C25 1_555 1_555
O3 N8 1_555 1_555
O4 N8 1_555 1_555
C31 C32 1_555 1_555
C32 H23 1_555 1_555
C33 C32 1_555 1_555
H24 C33 1_555 1_555
C34 C33 1_555 1_555
H25 C34 1_555 1_555
C35 C34 1_555 1_555
H26 C35 1_555 1_555
C36 C31 1_555 1_555
H27 C36 1_555 1_555
N9 C31 1_555 1_555
O5 N9 1_555 1_555
O6 N9 1_555 1_555
Br1M Zn1M 1_555 1_555
Br2M Zn1M 1_555 1_555
Br3M Zn2 1_555 1_555
Zn1M N1M 1_555 1_555
Zn1B N6 1_555 1_555
Zn1C N6M 1_555 1_555
C1M H1M 1_555 1_555
C2M C1M 1_555 1_555
H2M C2M 1_555 1_555
C3M C2M 1_555 1_555
C4M C3M 1_555 1_555
H3M C4M 1_555 1_555
C5M C4M 1_555 1_555
H4M C5M 1_555 1_555
C6M C3M 1_555 1_555
C7M C16M 1_555 1_555
C8M C11M 1_555 1_555
C9M H5M 1_555 1_555
C10M C9M 1_555 1_555
H6M C10M 1_555 1_555
C11M C10M 1_555 1_555
C12M C11M 1_555 1_555
H7M C12M 1_555 1_555
C13M C12M 1_555 1_555
H8M C13M 1_555 1_555
C14M H9M 1_555 1_555
C15M C14M 1_555 1_555
H10M C15M 1_555 1_555
C16M C15M 1_555 1_555
C17M C16M 1_555 1_555
H11M C17M 1_555 1_555
C18M C17M 1_555 1_555
H12M C18M 1_555 1_555
N1M C1M 1_555 1_555
N2M C6M 1_555 1_555
N3M C7M 1_555 1_555
N4M C6M 1_555 1_555
N5M Zn2 1_555 1_555
N6M C14M 1_555 1_555
N6J Zn1 1_555 1_555
N6K Zn1M 1_555 1_555
C5 N1 1_555 1_555
C7 N4 1_555 1_555
C8 N2 1_555 1_555
C8 N3 1_555 1_555
C13 N5 1_555 1_555
C18 N6 1_555 1_555
C23 C24 1_555 1_555
C29 C30 1_555 1_555
C35 C36 1_555 1_555
C5M N1M 1_555 1_555
C7M N4M 1_555 1_555
C8M N2M 1_555 1_555
C8M N3M 1_555 1_555
C9M N5M 1_555 1_555
C13M N5M 1_555 1_555
C18M N6M 1_555 1_555

#END
