
#######################################################################
#
#                 Cambridge Crystallographic Data Centre
#                                CCDC 
#
#######################################################################
#
# If this CIF has been generated from an entry in the Cambridge 
# Structural Database, then it will include bibliographic, chemical, 
# crystal, experimental, refinement or atomic coordinate data resulting 
# from the CCDC's data processing and validation procedures.
#
#######################################################################

data_HIYBAU
_symmetry_cell_setting           triclinic
_symmetry_space_group_name_H-M   'P -1'
_symmetry_Int_Tables_number      2
_space_group_name_Hall           '-P 1'
loop_
_symmetry_equiv_pos_site_id
_symmetry_equiv_pos_as_xyz
1 x,y,z
2 -x,-y,-z
_cell_length_a                   6.4255(13)
_cell_length_b                   10.189(2)
_cell_length_c                   12.003(2)
_cell_angle_alpha                72.70(3)
_cell_angle_beta                 79.74(3)
_cell_angle_gamma                80.89(3)
_cell_volume                     733.624
loop_
_atom_site_label
_atom_site_type_symbol
_atom_site_fract_x
_atom_site_fract_y
_atom_site_fract_z
C1 C -0.4187(14) 0.6556(11) 0.7618(8)
Ni1 Ni -0.5000 0.5000 1.0000
Ni2 Ni -0.11984(17) 0.53795(14) 0.29945(10)
P1 P -0.3841(4) 0.4778(3) 0.7513(2)
P2 P -0.1934(4) 0.6890(3) 0.8250(2)
N1 N -0.1970(12) 0.7106(9) 0.3686(6)
O1 O -0.1734(10) 0.3935(8) 0.4661(6)
H1 H -0.053(7) 0.360(11) 0.443(9)
H2 H -0.161(14) 0.446(9) 0.505(9)
O2 O -0.1781(9) 0.4570(7) 0.6698(6)
O3 O -0.0654(11) 0.6622(8) 0.1261(6)
H3 H -0.099(14) 0.642(11) 0.070(7)
H4 H 0.057(8) 0.625(11) 0.137(9)
O4 O -0.5732(10) 0.4546(8) 0.7070(6)
O5 O -0.3631(10) 0.3935(7) 0.8794(5)
O6 O -0.6033(9) 0.6580(7) 0.8566(5)
H5 H -0.7150 0.6405 0.8376
O7 O -0.2127(12) 0.8457(8) 0.8120(7)
H6 H -0.3106 0.8533 0.8699
O8 O 0.0147(10) 0.6434(8) 0.7606(6)
O9 O -0.2375(10) 0.6071(8) 0.9541(5)
C2 C -0.4915(15) 0.7727(11) 0.6538(8)
H7 H -0.6280 0.7545 0.6413
H8 H -0.5146 0.8593 0.6747
C3 C -0.3461(16) 0.7931(12) 0.5384(9)
C4 C -0.2310(19) 0.9069(12) 0.4938(10)
H9 H -0.2402 0.9719 0.5353
C5 C -0.1019(19) 0.9210(12) 0.3856(10)
H10 H -0.0277 0.9978 0.3524
C6 C -0.0848(17) 0.8195(12) 0.3277(9)
H11 H 0.0082 0.8275 0.2578
C7 C -0.3313(14) 0.6995(11) 0.4706(8)
H12 H -0.4169 0.6277 0.4969
C1A C -0.5813(14) 0.3444(11) 0.2382(8)
Ni2A Ni -0.88016(17) 0.46205(14) 0.70055(10)
P1A P -0.6159(4) 0.5222(3) 0.2487(2)
P2A P -0.8066(4) 0.3110(3) 0.1750(2)
N1A N -0.8030(12) 0.2894(9) 0.6314(6)
O1A O -0.8266(10) 0.6065(8) 0.5339(6)
H1A H -0.947(7) 0.640(11) 0.557(9)
H2A H -0.839(14) 0.554(9) 0.495(9)
O2A O -0.8219(9) 0.5430(7) 0.3302(6)
O3A O -0.9346(11) 0.3378(8) 0.8739(6)
H3A H -0.901(14) 0.358(11) 0.930(7)
H4A H -1.057(8) 0.375(11) 0.863(9)
O4A O -0.4268(10) 0.5454(8) 0.2930(6)
O5A O -0.6369(10) 0.6065(7) 0.1206(5)
O6A O -0.3967(9) 0.3420(7) 0.1434(5)
H5A H -0.2850 0.3595 0.1624
O7A O -0.7873(12) 0.1543(8) 0.1880(7)
H6A H -0.6894 0.1467 0.1301
O8A O -1.0147(10) 0.3566(8) 0.2394(6)
O9A O -0.7625(10) 0.3929(8) 0.0459(5)
C2A C -0.5085(15) 0.2273(11) 0.3462(8)
H7A H -0.3720 0.2455 0.3587
H8A H -0.4854 0.1407 0.3253
C3A C -0.6539(16) 0.2069(12) 0.4616(9)
C4A C -0.7690(19) 0.0931(12) 0.5062(10)
H9A H -0.7598 0.0281 0.4647
C5A C -0.8981(19) 0.0790(12) 0.6144(10)
H10A H -0.9723 0.0022 0.6476
C6A C -0.9152(17) 0.1805(12) 0.6723(9)
H11A H -1.0082 0.1725 0.7422
C7A C -0.6687(14) 0.3005(11) 0.5294(8)
H12A H -0.5831 0.3723 0.5031
Ni1_2 Ni -0.5000 0.5000 0.0000
Ni2_2 Ni -1.11984(17) 0.53795(14) 0.29945(10)
Ni2A_2 Ni 0.11984(17) 0.46205(14) 0.70055(10)
O2_2 O -1.1781(9) 0.4570(7) 0.6698(6)
O2A_2 O 0.1781(9) 0.5430(7) 0.3302(6)
O5A_2 O -0.6369(10) 0.6065(7) 1.1206(5)
O6A_2 O -0.3967(9) 0.3420(7) 1.1434(5)
O8_2 O -0.9853(10) 0.6434(8) 0.7606(6)
O8A_2 O -0.0147(10) 0.3566(8) 0.2394(6)
O9A_2 O -0.7625(10) 0.3929(8) 1.0459(5)
O10 O -0.471(3) 0.134(2) 0.9969(18)
H13 H -0.4376 0.2151 0.9604
H14 H -0.4869 0.0522 0.9996
loop_
_geom_bond_atom_site_label_1
_geom_bond_atom_site_label_2
_geom_bond_site_symmetry_1
_geom_bond_site_symmetry_2
C1 P1 1_555 1_555
Ni1 O5 1_555 1_555
Ni2 N1 1_555 1_555
P1 O2 1_555 1_555
P2 C1 1_555 1_555
N1 C6 1_555 1_555
O1 Ni2 1_555 1_555
H1 O1 1_555 1_555
H2 O1 1_555 1_555
O2 Ni2A_2 1_555 1_555
O3 Ni2 1_555 1_555
H3 O3 1_555 1_555
H4 O3 1_555 1_555
O4 P1 1_555 1_555
O5 P1 1_555 1_555
O6 C1 1_555 1_555
H5 O6 1_555 1_555
O7 P2 1_555 1_555
H6 O7 1_555 1_555
O8 P2 1_555 1_555
O9 Ni1 1_555 1_555
C2 C1 1_555 1_555
H7 C2 1_555 1_555
H8 C2 1_555 1_555
C3 C2 1_555 1_555
C4 C3 1_555 1_555
H9 C4 1_555 1_555
C5 C4 1_555 1_555
H10 C5 1_555 1_555
C6 C5 1_555 1_555
H11 C6 1_555 1_555
C7 N1 1_555 1_555
H12 C7 1_555 1_555
O10 H13 1_555 1_555
H14 O10 1_555 1_555
C1A P1A 1_555 1_555
Ni2A O4 1_555 1_555
P1A O2A 1_555 1_555
P2A C1A 1_555 1_555
N1A Ni2A 1_555 1_555
O1A Ni2A 1_555 1_555
H1A O1A 1_555 1_555
H2A O1A 1_555 1_555
O2A Ni2_2 1_555 1_555
O3A Ni2A 1_555 1_555
H3A O3A 1_555 1_555
H4A O3A 1_555 1_555
O4A Ni2 1_555 1_555
O5A P1A 1_555 1_555
O6A C1A 1_555 1_555
H5A O6A 1_555 1_555
O7A P2A 1_555 1_555
H6A O7A 1_555 1_555
O8A P2A 1_555 1_555
O9A P2A 1_555 1_555
C2A C1A 1_555 1_555
H7A C2A 1_555 1_555
H8A C2A 1_555 1_555
C3A C2A 1_555 1_555
C4A C3A 1_555 1_555
H9A C4A 1_555 1_555
C5A C4A 1_555 1_555
H10A C5A 1_555 1_555
C6A N1A 1_555 1_555
H11A C6A 1_555 1_555
C7A N1A 1_555 1_555
H12A C7A 1_555 1_555
Ni1_2 O5A 1_555 1_555
Ni2_2 O8A 1_555 1_555
Ni2A_2 O8 1_555 1_555
O2_2 Ni2A 1_555 1_555
O2A_2 Ni2 1_555 1_555
O5A_2 Ni1 1_555 1_555
O6A_2 Ni1 1_555 1_555
O8_2 Ni2A 1_555 1_555
O8A_2 Ni2 1_555 1_555
O9A_2 Ni1 1_555 1_555
Ni1 O6 1_555 1_555
P2 O9 1_555 1_555
C3 C7 1_555 1_555
P1A O4A 1_555 1_555
O6A Ni1_2 1_555 1_555
O9A Ni1_2 1_555 1_555
C3A C7A 1_555 1_555
C5A C6A 1_555 1_555

#END
