
#######################################################################
#
#                 Cambridge Crystallographic Data Centre
#                                CCDC 
#
#######################################################################
#
# If this CIF has been generated from an entry in the Cambridge 
# Structural Database, then it will include bibliographic, chemical, 
# crystal, experimental, refinement or atomic coordinate data resulting 
# from the CCDC's data processing and validation procedures.
#
#######################################################################

data_HIYCAU
_symmetry_cell_setting           monoclinic
_symmetry_space_group_name_H-M   'P 21/n'
_symmetry_Int_Tables_number      14
_space_group_name_Hall           '-P 2yn'
loop_
_symmetry_equiv_pos_site_id
_symmetry_equiv_pos_as_xyz
1 x,y,z
2 1/2-x,1/2+y,1/2-z
3 -x,-y,-z
4 1/2+x,1/2-y,1/2+z
_cell_length_a                   7.2688(3)
_cell_length_b                   21.821(1)
_cell_length_c                   12.4526(6)
_cell_angle_alpha                90
_cell_angle_beta                 105.700(3)
_cell_angle_gamma                90
_cell_volume                     1901.45
loop_
_atom_site_label
_atom_site_type_symbol
_atom_site_fract_x
_atom_site_fract_y
_atom_site_fract_z
Br1 Br -0.31088 0.14685 0.40784
Br2 Br -0.47634 0.25115 0.63428
Zn1 Zn -0.23731 0.21153 0.56541
C1 C -0.04394 0.28631 0.45862
C2 C 0.04026 0.34286 0.41601
C3 C 0.13775 0.38418 0.51038
C4 C 0.09424 0.37045 0.61272
C5 C 0.02837 0.31361 0.63240
C6 C 0.17671 0.44767 0.47550
C7 C 0.25244 0.51528 0.36318
C8 C 0.29733 0.53934 0.53941
C9 C 0.28937 0.53367 0.24522
C10 C 0.18620 0.49068 0.14840
C11 C 0.21644 0.50962 0.04248
C12 C 0.32405 0.60677 0.09715
C13 C 0.33906 0.59286 0.21391
C14 C 0.37876 0.58384 0.63687
C15 C 0.36862 0.56806 0.75040
C16 C 0.48557 0.64186 0.60695
C17 C 0.56598 0.67601 0.69981
C18 C 0.45973 0.60779 0.82266
N1 N -0.03972 0.27248 0.55349
N2 N 0.17700 0.46331 0.37008
N3 N 0.30471 0.55817 0.43418
N4 N 0.24249 0.47859 0.55399
N5 N 0.28705 0.56236 0.01584
N6 N 0.53626 0.66638 0.78903
Zn1A Zn 0.73731 0.71153 0.93459
N6A N -0.03626 0.16638 0.71097
loop_
_geom_bond_atom_site_label_1
_geom_bond_atom_site_label_2
_geom_bond_site_symmetry_1
_geom_bond_site_symmetry_2
Br1 Zn1 1_555 1_555
Br2 Zn1 1_555 1_555
Zn1 N1 1_555 1_555
C1 C2 1_555 1_555
C2 C3 1_555 1_555
C3 C4 1_555 1_555
C4 C5 1_555 1_555
C5 N1 1_555 1_555
C6 C3 1_555 1_555
C7 C9 1_555 1_555
C8 C14 1_555 1_555
C9 C10 1_555 1_555
C10 C11 1_555 1_555
C11 N5 1_555 1_555
C12 C13 1_555 1_555
C13 C9 1_555 1_555
C14 C15 1_555 1_555
C15 C18 1_555 1_555
C16 C14 1_555 1_555
C17 C16 1_555 1_555
C18 N6 1_555 1_555
N1 C1 1_555 1_555
N2 C6 1_555 1_555
N3 C7 1_555 1_555
N4 C6 1_555 1_555
N5 C12 1_555 1_555
N6 C17 1_555 1_555
Zn1A N6 1_555 1_555
N6A Zn1 1_555 1_555
C7 N2 1_555 1_555
C8 N3 1_555 1_555
C8 N4 1_555 1_555

#END
