
#######################################################################
#
#                 Cambridge Crystallographic Data Centre
#                                CCDC 
#
#######################################################################
#
# If this CIF has been generated from an entry in the Cambridge 
# Structural Database, then it will include bibliographic, chemical, 
# crystal, experimental, refinement or atomic coordinate data resulting 
# from the CCDC's data processing and validation procedures.
#
#######################################################################

data_HIYGAZ
_symmetry_cell_setting           triclinic
_symmetry_space_group_name_H-M   'P -1'
_symmetry_Int_Tables_number      2
_space_group_name_Hall           '-P 1'
loop_
_symmetry_equiv_pos_site_id
_symmetry_equiv_pos_as_xyz
1 x,y,z
2 -x,-y,-z
_cell_length_a                   12.0121(14)
_cell_length_b                   12.8770(16)
_cell_length_c                   14.1799(17)
_cell_angle_alpha                84.1390(10)
_cell_angle_beta                 86.7800(10)
_cell_angle_gamma                79.6900(10)
_cell_volume                     2145.04
loop_
_atom_site_label
_atom_site_type_symbol
_atom_site_fract_x
_atom_site_fract_y
_atom_site_fract_z
Cu1 Cu 0.96296(4) 0.57903(3) 0.15011(3)
N1 N 0.8335(3) 0.6754(2) 0.2075(2)
O1 O 0.4671(3) 0.8480(3) 0.3521(2)
C1 C 0.8559(3) 0.7423(3) 0.2662(3)
H1 H 0.9312 0.7466 0.2741
O2 O 1.0606(3) 0.5485(3) 0.2974(3)
H2 H 1.1293 0.5531 0.2828
H3 H 1.0571 0.4833 0.3105
Cu2 Cu 0.92432(4) 0.14774(3) 0.57758(3)
O3 O 1.0300(2) 0.70121(18) 0.09388(16)
C2 C 0.7734(3) 0.8056(3) 0.3163(3)
H4 H 0.7931 0.8506 0.3573
N2 N 0.5874(3) 0.9453(3) 0.3992(2)
H5 H 0.6567 0.9544 0.3982
O4 O 1.0919(2) 0.4841(2) 0.09578(17)
H6 H 1.0845 0.4323 0.0725
H7 H 1.1214 0.5011 0.0422
Cu3 Cu 1.37826(4) 1.05961(4) 0.11792(3)
O5 O 0.9099(2) 0.70074(19) -0.01934(17)
N3 N 0.7972(3) 0.2235(2) 0.65852(19)
C3 C 0.6610(3) 0.8012(3) 0.3046(2)
O6 O 1.0616(2) 0.1011(2) 0.49978(19)
H8 H 1.1096 0.0437 0.5248
H9 H 1.0596 0.0940 0.4439
O7 O 1.3162(2) 1.0312(2) 0.27311(19)
H10 H 1.3530 0.9722 0.2960
H11 H 1.2467 1.0322 0.2889
O8 O 1.2578(2) 0.99689(19) 0.07396(16)
N4 N 0.5404(3) 0.3929(3) 0.9183(2)
H12 H 0.5700 0.3297 0.9397
C4 C 0.6374(3) 0.7341(3) 0.2413(3)
H13 H 0.5627 0.7299 0.2308
O9 O 1.2933(2) 1.0685(2) -0.07159(18)
C5 C 0.7246(3) 0.6731(3) 0.1935(3)
H14 H 0.7073 0.6292 0.1504
O10 O 0.9855(3) 0.3275(3) 0.5431(2)
H15 H 0.9760 0.3761 0.4968
H16 H 0.9731 0.3585 0.5940
O11 O 0.8996(2) 0.45411(19) 0.20149(17)
C6 C 0.5633(4) 0.8663(3) 0.3544(3)
O12 O 1.4850(2) 0.9271(2) 0.10073(17)
H17 H 1.5442 0.8794 0.1021
H18 H 1.4360 0.9050 0.0703
O13 O 0.8103(2) 0.4583(2) 0.06735(18)
C7 C 0.5007(4) 1.0184(4) 0.4505(3)
H19 H 0.5184 1.0895 0.4420
H20 H 0.4268 1.0207 0.4253
O14 O 1.2888(3) 1.2053(2) 0.1040(2)
H21 H 1.3090 1.2455 0.1414
H22 H 1.2396 1.2430 0.0683
O15 O 0.8434(2) 0.1928(2) 0.46324(16)
C8 C 0.9852(3) 0.7386(3) 0.0157(2)
O16 O 0.7721(2) 0.0498(2) 0.43806(17)
C9 C 1.0290(3) 0.8303(3) -0.0378(2)
C10 C 0.9921(3) 0.8667(3) -0.1285(2)
H23 H 0.9405 0.8333 -0.1551
O17 O 0.5194(3) 0.5132(3) 0.7929(2)
O18 O 1.0058(2) 1.0814(2) -0.31162(16)
C11 C 1.0305(3) 0.9515(3) -0.1800(2)
O19 O 0.9256(2) 0.9398(2) -0.31510(16)
C12 C 1.1117(3) 0.9986(3) -0.1420(2)
H24 H 1.1401 1.0538 -0.1771
O20 O 0.5000(2) 0.1154(2) 0.16834(17)
C13 C 1.1502(3) 0.9629(3) -0.0512(2)
O21 O 0.5667(2) 0.1915(2) 0.03267(16)
C14 C 1.1076(3) 0.8801(3) 0.0008(2)
H25 H 1.1317 0.8577 0.0618
C15 C 1.2404(3) 1.0141(3) -0.0149(2)
C16 C 0.8330(3) 0.4194(3) 0.1492(2)
C17 C 0.7794(3) 0.3289(2) 0.1911(2)
C18 C 0.7042(3) 0.2902(3) 0.1390(2)
H26 H 0.6899 0.3198 0.0774
C19 C 0.6497(3) 0.2081(3) 0.1770(2)
C20 C 0.6753(3) 0.1616(3) 0.2681(2)
H27 H 0.6394 0.1065 0.2944
C21 C 0.7539(3) 0.1966(3) 0.3203(2)
C22 C 0.8038(3) 0.2813(3) 0.2822(2)
H28 H 0.8541 0.3068 0.3178
C23 C 0.7909(3) 0.1407(3) 0.4141(2)
C24 C 0.7362(4) 0.3142(3) 0.6220(3)
H29 H 0.7459 0.3343 0.5576
C25 C 0.6592(4) 0.3796(3) 0.6756(3)
H30 H 0.6188 0.4423 0.6472
C26 C 0.6425(3) 0.3522(3) 0.7704(2)
C27 C 0.7015(4) 0.2560(3) 0.8078(3)
H31 H 0.6900 0.2323 0.8711
C28 C 0.7779(4) 0.1953(3) 0.7498(3)
H32 H 0.8178 0.1313 0.7762
C29 C 0.5622(4) 0.4256(3) 0.8288(3)
C30 C 0.4678(4) 0.4605(3) 0.9823(3)
H33 H 0.4417 0.4169 1.0359
H34 H 0.4020 0.4985 0.9492
C31 C 0.9848(3) 0.9925(3) -0.2761(2)
C32 C 0.5661(3) 0.1688(3) 0.1207(2)
N1A N 0.1665(3) 1.3246(2) 0.7925(2)
O1A O 0.5329(3) 1.1520(3) 0.6479(2)
C1A C 0.1441(3) 1.2577(3) 0.7338(3)
H1A H 0.0688 1.2534 0.7259
C2A C 0.2266(3) 1.1944(3) 0.6837(3)
H4A H 0.2069 1.1494 0.6427
N2A N 0.4126(3) 1.0547(3) 0.6008(2)
H5A H 0.3433 1.0456 0.6018
C3A C 0.3390(3) 1.1988(3) 0.6954(2)
C4A C 0.3626(3) 1.2659(3) 0.7587(3)
H13A H 0.4373 1.2701 0.7692
C5A C 0.2754(3) 1.3269(3) 0.8065(3)
H14A H 0.2927 1.3708 0.8496
C6A C 0.4367(4) 1.1337(3) 0.6456(3)
C7A C 0.4993(4) 0.9816(4) 0.5495(3)
H19A H 0.4816 0.9105 0.5580
H20A H 0.5732 0.9793 0.5747
N3A N 0.2028(3) 0.7765(2) 1.34148(19)
N4A N 0.4596(3) 0.6071(3) 1.0817(2)
H12A H 0.4300 0.6703 1.0603
O17A O 0.4806(3) 0.4868(3) 1.2071(2)
C24A C 0.2638(4) 0.6858(3) 1.3780(3)
H29A H 0.2541 0.6657 1.4424
C25A C 0.3408(4) 0.6204(3) 1.3244(3)
H30A H 0.3812 0.5577 1.3528
C26A C 0.3575(3) 0.6478(3) 1.2296(2)
C27A C 0.2985(4) 0.7440(3) 1.1922(3)
H31A H 0.3100 0.7677 1.1289
C28A C 0.2221(4) 0.8047(3) 1.2502(3)
H32A H 0.1822 0.8687 1.2238
C29A C 0.4378(4) 0.5744(3) 1.1712(3)
C30A C 0.5322(4) 0.5395(3) 1.0177(3)
H33A H 0.5583 0.5831 0.9641
H34A H 0.5980 0.5015 1.0508
Cu1A Cu 0.03704(4) 0.42097(3) 1.84989(3)
O2A O -0.0606(3) 0.4515(3) 1.7026(3)
H2A H -0.1293 0.4469 1.7172
H3A H -0.0571 0.5167 1.6895
Cu2A Cu 0.07568(4) 0.85226(3) 1.42242(3)
O3A O -0.0300(2) 0.29879(18) 1.90612(16)
O4A O -0.0919(2) 0.5159(2) 1.90422(17)
H6A H -0.0845 0.5677 1.9275
H7A H -0.1214 0.4989 1.9578
Cu3A Cu -0.37826(4) -0.05961(4) 1.88208(3)
O5A O 0.0901(2) 0.29926(19) 2.01934(17)
O6A O -0.0616(2) 0.8989(2) 1.50022(19)
H8A H -0.1096 0.9563 1.4752
H9A H -0.0596 0.9060 1.5561
O7A O -0.3162(2) -0.0312(2) 1.72689(19)
H10A H -0.3530 0.0278 1.7040
H11A H -0.2467 -0.0322 1.7111
O8A O -0.2578(2) 0.00311(19) 1.92604(16)
O9A O -0.2933(2) -0.0685(2) 2.07159(18)
O10A O 0.0145(3) 0.6725(3) 1.4569(2)
H15A H 0.0240 0.6239 1.5032
H16A H 0.0269 0.6415 1.4060
O11A O 0.1004(2) 0.54589(19) 1.79851(17)
O12A O -0.4850(2) 0.0729(2) 1.89927(17)
H17A H -0.5442 0.1206 1.8979
H18A H -0.4360 0.0950 1.9297
O13A O 0.1897(2) 0.5417(2) 1.93265(18)
O14A O -0.2888(3) -0.2053(2) 1.8960(2)
H21A H -0.3090 -0.2455 1.8586
H22A H -0.2396 -0.2430 1.9317
O15A O 0.1566(2) 0.8072(2) 1.53676(16)
C8A C 0.0148(3) 0.2614(3) 1.9843(2)
O16A O 0.2279(2) 0.9502(2) 1.56194(17)
C9A C -0.0290(3) 0.1697(3) 2.0378(2)
C10A C 0.0079(3) 0.1333(3) 2.1285(2)
H23A H 0.0595 0.1667 2.1551
O18A O -0.0058(2) -0.0814(2) 2.31162(16)
C11A C -0.0305(3) 0.0485(3) 2.1800(2)
O19A O 0.0744(2) 0.0602(2) 2.31510(16)
C12A C -0.1117(3) 0.0014(3) 2.1420(2)
H24A H -0.1401 -0.0538 2.1771
O20A O 0.5000(2) 0.8846(2) 1.83166(17)
C13A C -0.1502(3) 0.0371(3) 2.0512(2)
O21A O 0.4333(2) 0.8085(2) 1.96733(16)
C14A C -0.1076(3) 0.1199(3) 1.9992(2)
H25A H -0.1317 0.1423 1.9382
C15A C -0.2404(3) -0.0141(3) 2.0149(2)
C16A C 0.1670(3) 0.5806(3) 1.8508(2)
C17A C 0.2206(3) 0.6711(2) 1.8089(2)
C18A C 0.2958(3) 0.7098(3) 1.8610(2)
H26A H 0.3101 0.6802 1.9226
C19A C 0.3503(3) 0.7919(3) 1.8230(2)
C20A C 0.3247(3) 0.8384(3) 1.7319(2)
H27A H 0.3606 0.8935 1.7056
C21A C 0.2461(3) 0.8034(3) 1.6797(2)
C22A C 0.1962(3) 0.7187(3) 1.7178(2)
H28A H 0.1459 0.6932 1.6822
C23A C 0.2091(3) 0.8593(3) 1.5859(2)
C31A C 0.0152(3) 0.0075(3) 2.2761(2)
C32A C 0.4339(3) 0.8312(3) 1.8793(2)
Cu1A_2 Cu 0.03704(4) 1.42097(3) 0.84989(3)
N1A_2 N 0.1665(3) 0.3246(2) 1.7925(2)
Cu2_2 Cu 0.92432(4) 1.14774(3) -0.42242(3)
Cu2A_2 Cu 0.07568(4) -0.14774(3) 2.42242(3)
Cu3_2 Cu 0.37826(4) 0.05961(4) 0.11792(3)
Cu3A_2 Cu 0.62174(4) 0.94039(4) 1.88208(3)
O18_2 O 1.0058(2) 0.0814(2) 0.68838(16)
O18A_2 O -0.0058(2) 0.9186(2) 1.31162(16)
O20_2 O 1.5000(2) 1.1154(2) 0.16834(17)
O20A_2 O -0.5000(2) -0.1154(2) 1.83166(17)
O22 O 0.6091(4) 0.4666(4) 0.3887(4)
H35 H 0.6342 0.5199 0.4029
H36 H 0.6642 0.4228 0.3680
O23 O 0.8416(4) 0.4801(3) 0.4175(3)
H37 H 0.8664 0.4897 0.3607
H38 H 0.8320 0.5392 0.4413
loop_
_geom_bond_atom_site_label_1
_geom_bond_atom_site_label_2
_geom_bond_site_symmetry_1
_geom_bond_site_symmetry_2
Cu1 N1 1_555 1_555
N1 C1 1_555 1_555
O1 C6 1_555 1_555
C1 H1 1_555 1_555
O2 Cu1 1_555 1_555
H2 O2 1_555 1_555
H3 O2 1_555 1_555
Cu2 N3 1_555 1_555
O3 Cu1 1_555 1_555
C2 C1 1_555 1_555
H4 C2 1_555 1_555
N2 H5 1_555 1_555
O4 Cu1 1_555 1_555
H6 O4 1_555 1_555
H7 O4 1_555 1_555
Cu3 O7 1_555 1_555
O5 Cu1 1_555 1_555
N3 C24 1_555 1_555
C3 C2 1_555 1_555
O6 Cu2 1_555 1_555
H8 O6 1_555 1_555
H9 O6 1_555 1_555
O7 H10 1_555 1_555
H11 O7 1_555 1_555
O8 Cu3 1_555 1_555
N4 H12 1_555 1_555
C4 C3 1_555 1_555
H13 C4 1_555 1_555
O9 C15 1_555 1_555
C5 N1 1_555 1_555
H14 C5 1_555 1_555
O10 Cu2 1_555 1_555
H15 O10 1_555 1_555
H16 O10 1_555 1_555
O11 Cu1 1_555 1_555
C6 N2 1_555 1_555
O12 Cu3 1_555 1_555
H17 O12 1_555 1_555
H18 O12 1_555 1_555
O13 C16 1_555 1_555
C7 N2 1_555 1_555
H19 C7 1_555 1_555
H20 C7 1_555 1_555
O14 Cu3 1_555 1_555
H21 O14 1_555 1_555
H22 O14 1_555 1_555
O15 Cu2 1_555 1_555
C8 O3 1_555 1_555
O16 C23 1_555 1_555
C9 C8 1_555 1_555
C10 C9 1_555 1_555
H23 C10 1_555 1_555
O17 C29 1_555 1_555
O18 C31 1_555 1_555
C11 C10 1_555 1_555
O19 C31 1_555 1_555
C12 C11 1_555 1_555
H24 C12 1_555 1_555
O20 C32 1_555 1_555
C13 C12 1_555 1_555
O21 C32 1_555 1_555
C14 C9 1_555 1_555
H25 C14 1_555 1_555
C15 O8 1_555 1_555
C16 O11 1_555 1_555
C17 C16 1_555 1_555
C18 C17 1_555 1_555
H26 C18 1_555 1_555
C19 C18 1_555 1_555
C20 C19 1_555 1_555
H27 C20 1_555 1_555
C21 C20 1_555 1_555
C22 C17 1_555 1_555
H28 C22 1_555 1_555
C23 O15 1_555 1_555
C24 H29 1_555 1_555
C25 C24 1_555 1_555
H30 C25 1_555 1_555
C26 C25 1_555 1_555
C27 C26 1_555 1_555
H31 C27 1_555 1_555
C28 N3 1_555 1_555
H32 C28 1_555 1_555
C29 N4 1_555 1_555
C30 N4 1_555 1_555
H33 C30 1_555 1_555
H34 C30 1_555 1_555
C31 C11 1_555 1_555
C32 C19 1_555 1_555
O22 H35 1_555 1_555
H36 O22 1_555 1_555
O23 H37 1_555 1_555
H38 O23 1_555 1_555
N1A C1A 1_555 1_555
O1A C6A 1_555 1_555
C1A H1A 1_555 1_555
C2A C1A 1_555 1_555
H4A C2A 1_555 1_555
N2A H5A 1_555 1_555
C3A C2A 1_555 1_555
C4A C3A 1_555 1_555
H13A C4A 1_555 1_555
C5A N1A 1_555 1_555
H14A C5A 1_555 1_555
C6A N2A 1_555 1_555
C7A C7 1_555 1_555
H19A C7A 1_555 1_555
H20A C7A 1_555 1_555
N3A C24A 1_555 1_555
N4A H12A 1_555 1_555
O17A C29A 1_555 1_555
C24A H29A 1_555 1_555
C25A C24A 1_555 1_555
H30A C25A 1_555 1_555
C26A C25A 1_555 1_555
C27A C26A 1_555 1_555
H31A C27A 1_555 1_555
C28A N3A 1_555 1_555
H32A C28A 1_555 1_555
C29A N4A 1_555 1_555
C30A C30 1_555 1_555
H33A C30A 1_555 1_555
H34A C30A 1_555 1_555
Cu1A O2A 1_555 1_555
O2A H2A 1_555 1_555
H3A O2A 1_555 1_555
Cu2A N3A 1_555 1_555
O3A Cu1A 1_555 1_555
O4A Cu1A 1_555 1_555
H6A O4A 1_555 1_555
H7A O4A 1_555 1_555
Cu3A O7A 1_555 1_555
O5A Cu1A 1_555 1_555
O6A Cu2A 1_555 1_555
H8A O6A 1_555 1_555
H9A O6A 1_555 1_555
O7A H10A 1_555 1_555
H11A O7A 1_555 1_555
O8A Cu3A 1_555 1_555
O9A C15A 1_555 1_555
O10A Cu2A 1_555 1_555
H15A O10A 1_555 1_555
H16A O10A 1_555 1_555
O11A Cu1A 1_555 1_555
O12A Cu3A 1_555 1_555
H17A O12A 1_555 1_555
H18A O12A 1_555 1_555
O13A C16A 1_555 1_555
O14A Cu3A 1_555 1_555
H21A O14A 1_555 1_555
H22A O14A 1_555 1_555
O15A Cu2A 1_555 1_555
C8A O3A 1_555 1_555
O16A C23A 1_555 1_555
C9A C8A 1_555 1_555
C10A C9A 1_555 1_555
H23A C10A 1_555 1_555
O18A C31A 1_555 1_555
C11A C10A 1_555 1_555
O19A C31A 1_555 1_555
C12A C11A 1_555 1_555
H24A C12A 1_555 1_555
O20A C32A 1_555 1_555
C13A C12A 1_555 1_555
O21A C32A 1_555 1_555
C14A C9A 1_555 1_555
H25A C14A 1_555 1_555
C15A O8A 1_555 1_555
C16A O11A 1_555 1_555
C17A C16A 1_555 1_555
C18A C17A 1_555 1_555
H26A C18A 1_555 1_555
C19A C18A 1_555 1_555
C20A C19A 1_555 1_555
H27A C20A 1_555 1_555
C21A C20A 1_555 1_555
C22A C17A 1_555 1_555
H28A C22A 1_555 1_555
C23A O15A 1_555 1_555
C31A C11A 1_555 1_555
C32A C19A 1_555 1_555
Cu1A_2 N1A 1_555 1_555
N1A_2 Cu1A 1_555 1_555
Cu2_2 O18 1_555 1_555
Cu2A_2 O18A 1_555 1_555
Cu3_2 O20 1_555 1_555
Cu3A_2 O20A 1_555 1_555
O18_2 Cu2 1_555 1_555
O18A_2 Cu2A 1_555 1_555
O20_2 Cu3 1_555 1_555
O20A_2 Cu3A 1_555 1_555
O5 C8 1_555 1_555
C3 C6 1_555 1_555
C4 C5 1_555 1_555
C13 C14 1_555 1_555
C13 C15 1_555 1_555
C21 C22 1_555 1_555
C21 C23 1_555 1_555
C26 C29 1_555 1_555
C27 C28 1_555 1_555
N2A C7A 1_555 1_555
C3A C6A 1_555 1_555
C4A C5A 1_555 1_555
N4A C30A 1_555 1_555
C26A C29A 1_555 1_555
C27A C28A 1_555 1_555
O5A C8A 1_555 1_555
C13A C14A 1_555 1_555
C13A C15A 1_555 1_555
C21A C22A 1_555 1_555
C21A C23A 1_555 1_555

#END
