
#######################################################################
#
#                 Cambridge Crystallographic Data Centre
#                                CCDC 
#
#######################################################################
#
# If this CIF has been generated from an entry in the Cambridge 
# Structural Database, then it will include bibliographic, chemical, 
# crystal, experimental, refinement or atomic coordinate data resulting 
# from the CCDC's data processing and validation procedures.
#
#######################################################################

data_HIYGUT
_symmetry_cell_setting           monoclinic
_symmetry_space_group_name_H-M   'P 21/n'
_symmetry_Int_Tables_number      14
_space_group_name_Hall           '-P 2yn'
loop_
_symmetry_equiv_pos_site_id
_symmetry_equiv_pos_as_xyz
1 x,y,z
2 1/2-x,1/2+y,1/2-z
3 -x,-y,-z
4 1/2+x,1/2-y,1/2+z
_cell_length_a                   10.8031(3)
_cell_length_b                   11.9354(4)
_cell_length_c                   22.3600(5)
_cell_angle_alpha                90
_cell_angle_beta                 97.637(2)
_cell_angle_gamma                90
_cell_volume                     2857.51
loop_
_atom_site_label
_atom_site_type_symbol
_atom_site_fract_x
_atom_site_fract_y
_atom_site_fract_z
Cu1 Cu 0.47057(5) 0.00338(5) 0.36458(3)
O1 O -0.2879(3) 0.0007(3) 0.64714(16)
N1 N 0.4658(4) 0.0578(4) 0.27781(18)
S1 S 0.08517(12) 0.08728(12) 0.81934(6)
O2 O 0.3487(4) 0.2038(4) 0.4691(2)
H1 H 0.357(5) 0.239(5) 0.496(3)
H2 H 0.277(7) 0.226(6) 0.448(3)
Cu2 Cu 0.36182(5) 0.01714(6) 0.49906(3)
O3 O -0.2168(3) 0.0223(3) 0.55788(15)
N2 N 0.3798(7) 0.1860(9) 0.0598(3)
O4 O 0.5433(4) 0.1631(3) 0.4073(2)
H3 H 0.5635 0.2058 0.3842
H4 H 0.4781 0.1973 0.4243
O5 O 0.2418(3) 0.0341(4) 0.55645(15)
N3 N 0.4092(6) 0.1983(8) -0.1015(2)
O6 O 0.3653(3) 0.0596(3) 0.64432(15)
N4 N 0.5775(6) 0.2542(5) -0.2988(2)
O7 O -0.0378(4) 0.1009(5) 0.83724(18)
O8 O 0.1612(4) 0.1874(4) 0.83113(17)
C1 C 0.2604(4) 0.0492(4) 0.6121(2)
O9 O 0.1498(5) -0.0115(4) 0.84278(19)
O10 O 0.4801(3) -0.0513(3) 0.44811(13)
C2 C 0.0285(4) 0.0403(4) 0.6148(2)
H5 H 0.0171 0.0300 0.5732
C3 C -0.0745(4) 0.0395(5) 0.6468(2)
O11 O 0.6146(5) 0.2320(7) -0.0741(2)
C4 C -0.0561(4) 0.0542(5) 0.7091(2)
H6 H -0.1242 0.0524 0.7305
O12 O 0.5870(4) 0.1730(5) 0.07911(19)
C5 C 0.1646(4) 0.0725(4) 0.7075(2)
H7 H 0.2444 0.0841 0.7278
C6 C 0.1478(4) 0.0565(5) 0.6455(2)
C7 C 0.4400(6) 0.2594(5) -0.2236(3)
H8 H 0.3591 0.2686 -0.2145
C8 C 0.5758(5) 0.1319(5) 0.2012(3)
H9 H 0.6500 0.1605 0.1907
C9 C 0.4721(5) 0.1228(5) 0.1580(2)
C10 C 0.6571(6) 0.2289(6) -0.1948(3)
H10 H 0.7258 0.2174 -0.1658
C11 C 0.4854(6) 0.1577(7) 0.0945(3)
C12 C -0.2036(4) 0.0199(4) 0.6145(2)
C13 C 0.5374(5) 0.2393(6) -0.1784(3)
C14 C 0.0621(4) 0.0713(4) 0.7392(2)
C15 C 0.5698(5) 0.0993(5) 0.2590(2)
H11 H 0.6413 0.1060 0.2870
C16 C 0.4643(7) 0.2655(5) -0.2820(3)
H12 H 0.3974 0.2784 -0.3119
C17 C 0.3657(5) 0.0480(6) 0.2359(2)
H13 H 0.2929 0.0178 0.2472
C18 C 0.3655(5) 0.0808(6) 0.1766(3)
H14 H 0.2929 0.0743 0.1493
C19 C 0.3822(8) 0.2416(7) -0.0106(6)
H15 H 0.3045 0.2775 -0.0271
H16 H 0.4528 0.2906 -0.0134
C20 C 0.3966(8) 0.1366(8) -0.0330(4)
H17 H 0.3238 0.0889 -0.0331
H18 H 0.4719 0.0986 -0.0150
C21 C 0.5240(7) 0.2239(8) -0.1133(3)
C22 C 0.6711(7) 0.2360(6) -0.2548(3)
H19 H 0.7509 0.2274 -0.2654
Cu1B Cu -0.47057(5) -0.00338(5) 0.63542(3)
Cu1B_2 Cu 0.52943(5) -0.00338(5) 0.63542(3)
O1B O 0.2879(3) -0.0007(3) 0.35286(16)
Cu2B Cu -0.36182(5) -0.01714(6) 0.50094(3)
Cu2B_2 Cu 0.63818(5) -0.01714(6) 0.50094(3)
O3B O 0.2168(3) -0.0223(3) 0.44212(15)
O6B O 0.6347(3) -0.0596(3) 0.35568(15)
O10B O 0.5199(3) 0.0513(3) 0.55189(13)
O13 O 0.8142(5) 0.1146(5) 0.0430(3)
H20 H 0.823(7) 0.188(7) 0.072(4)
H21 H 0.746(7) 0.118(7) 0.047(4)
O14 O 0.6040(6) 0.2594(5) 0.5788(2)
H22 H 0.597(7) 0.262(7) 0.610(3)
H23 H 0.582(7) 0.327(7) 0.570(3)
O15 O -0.1205(8) -0.0107(5) 0.9403(3)
H24 H -0.130(10) 0.032(8) 0.962(4)
H25 H -0.086(8) 0.025(7) 0.912(4)
loop_
_geom_bond_atom_site_label_1
_geom_bond_atom_site_label_2
_geom_bond_site_symmetry_1
_geom_bond_site_symmetry_2
Cu1 N1 1_555 1_555
O1 C12 1_555 1_555
N1 C15 1_555 1_555
S1 O7 1_555 1_555
O2 H1 1_555 1_555
H2 O2 1_555 1_555
Cu2 O2 1_555 1_555
O3 C12 1_555 1_555
N2 C11 1_555 1_555
O4 Cu1 1_555 1_555
H3 O4 1_555 1_555
H4 O4 1_555 1_555
O5 Cu2 1_555 1_555
N3 C20 1_555 1_555
O6 C1 1_555 1_555
N4 C16 1_555 1_555
O8 S1 1_555 1_555
C1 O5 1_555 1_555
O9 S1 1_555 1_555
O10 Cu1 1_555 1_555
C2 H5 1_555 1_555
C3 C2 1_555 1_555
O11 C21 1_555 1_555
C4 C3 1_555 1_555
H6 C4 1_555 1_555
O12 C11 1_555 1_555
C5 H7 1_555 1_555
C6 C1 1_555 1_555
C7 H8 1_555 1_555
C8 H9 1_555 1_555
C9 C8 1_555 1_555
C10 H10 1_555 1_555
C11 C9 1_555 1_555
C12 C3 1_555 1_555
C13 C7 1_555 1_555
C14 S1 1_555 1_555
C15 C8 1_555 1_555
H11 C15 1_555 1_555
C16 C7 1_555 1_555
H12 C16 1_555 1_555
C17 N1 1_555 1_555
H13 C17 1_555 1_555
C18 C9 1_555 1_555
H14 C18 1_555 1_555
C19 N2 1_555 1_555
H15 C19 1_555 1_555
H16 C19 1_555 1_555
C20 C19 1_555 1_555
H17 C20 1_555 1_555
H18 C20 1_555 1_555
C21 N3 1_555 1_555
C22 N4 1_555 1_555
H19 C22 1_555 1_555
O13 H20 1_555 1_555
H21 O13 1_555 1_555
O14 H22 1_555 1_555
H23 O14 1_555 1_555
O15 H24 1_555 1_555
H25 O15 1_555 1_555
Cu1B O1 1_555 1_555
Cu1B_2 O6 1_555 1_555
O1B Cu1 1_555 1_555
Cu2B O3 1_555 1_555
Cu2B_2 O10 1_555 1_555
O3B Cu2 1_555 1_555
O6B Cu1 1_555 1_555
O10B Cu2 1_555 1_555
Cu2 O10 1_555 1_555
C2 C6 1_555 1_555
C4 C14 1_555 1_555
C5 C6 1_555 1_555
C5 C14 1_555 1_555
C10 C13 1_555 1_555
C10 C22 1_555 1_555
C13 C21 1_555 1_555
C17 C18 1_555 1_555
Cu1B_2 O10B 1_555 1_555
Cu2B_2 O10B 1_555 1_555

#END
