
#######################################################################
#
#                 Cambridge Crystallographic Data Centre
#                                CCDC 
#
#######################################################################
#
# If this CIF has been generated from an entry in the Cambridge 
# Structural Database, then it will include bibliographic, chemical, 
# crystal, experimental, refinement or atomic coordinate data resulting 
# from the CCDC's data processing and validation procedures.
#
#######################################################################

data_HIYGIH
_symmetry_cell_setting           tetragonal
_symmetry_space_group_name_H-M   'I 4/m'
_symmetry_Int_Tables_number      87
_space_group_name_Hall           '-I 4'
loop_
_symmetry_equiv_pos_site_id
_symmetry_equiv_pos_as_xyz
1 x,y,z
2 -x,-y,z
3 -y,x,z
4 y,-x,z
5 1/2+x,1/2+y,1/2+z
6 1/2-x,1/2-y,1/2+z
7 1/2-y,1/2+x,1/2+z
8 1/2+y,1/2-x,1/2+z
9 -x,-y,-z
10 x,y,-z
11 y,-x,-z
12 -y,x,-z
13 1/2-x,1/2-y,1/2-z
14 1/2+x,1/2+y,1/2-z
15 1/2+y,1/2-x,1/2-z
16 1/2-y,1/2+x,1/2-z
_cell_length_a                   28.1527(16)
_cell_length_b                   28.1527(16)
_cell_length_c                   41.070(4)
_cell_angle_alpha                90
_cell_angle_beta                 90
_cell_angle_gamma                90
_cell_volume                     32551
loop_
_atom_site_label
_atom_site_type_symbol
_atom_site_fract_x
_atom_site_fract_y
_atom_site_fract_z
Cu1 Cu 0.63314(4) -0.09079(4) 0.0000
Cu2 Cu 0.72477(4) -0.06960(4) 0.0000
Cu3 Cu 0.82744(3) 0.10072(3) 0.13690(2)
Cu4 Cu 0.76972(3) 0.13507(3) 0.18213(2)
N1 N 0.4980(4) 0.1914(3) 0.1529(2)
N2 N 0.4921(4) 0.1360(4) 0.1097(2)
N3 N 0.5647(3) 0.1437(4) 0.1408(3)
N4 N 0.5704(3) 0.1949(5) 0.1811(3)
N5 N 0.5019(4) 0.2434(3) 0.1985(2)
N6 N 0.4352(3) 0.2406(3) 0.1681(2)
N7 N 0.4281(4) 0.1805(4) 0.1231(2)
N8 N 0.5573(4) 0.0897(4) 0.0971(2)
H1 H 0.5376 0.0767 0.0838
N9 N 0.5732(3) 0.2434(4) 0.2253(2)
H2 H 0.6027 0.2356 0.2249
N10 N 0.3660(4) 0.2318(3) 0.1383(2)
H3 H 0.3594 0.2580 0.1481
O1 O 0.6271(2) -0.0427(2) 0.03253(13)
O2 O 0.7049(2) -0.02404(19) 0.03320(12)
O3 O 0.7680(2) 0.07911(18) 0.11675(12)
O4 O 0.71874(19) 0.11235(19) 0.15359(14)
O5 O 0.42868(19) 0.27553(19) 0.29861(12)
O6 O 0.45581(17) 0.3274(2) 0.33526(14)
O7 O 0.62240(16) 0.37107(18) 0.33670(13)
O8 O 0.67178(18) 0.34614(18) 0.29673(11)
O9 O 0.3471(2) 0.13461(18) 0.03473(12)
O10 O 0.2712(2) 0.1183(2) 0.03369(12)
O11 O 0.1646(2) 0.1811(2) 0.11711(13)
O12 O 0.1932(2) 0.2262(2) 0.15719(15)
O13 O 0.55961(12) -0.1129(3) 0.0000
O14 O 0.7978(3) -0.0498(3) 0.0000
O15 O 0.8743(2) 0.0736(3) 0.09931(15)
O16 O 0.7216(2) 0.1639(2) 0.21946(16)
C1 C 0.4712(6) 0.1663(6) 0.1274(3)
C2 C 0.5390(5) 0.1224(6) 0.1157(3)
C3 C 0.5465(5) 0.1776(5) 0.1579(4)
C4 C 0.5476(6) 0.2254(6) 0.2011(4)
C5 C 0.4779(5) 0.2247(5) 0.1740(3)
C6 C 0.4108(5) 0.2162(5) 0.1432(3)
C7 C 0.6022(5) 0.0727(4) 0.0953(3)
C8 C 0.6095(4) 0.0365(4) 0.0731(2)
H4 H 0.5836 0.0233 0.0624
C9 C 0.6558(4) 0.0194(3) 0.0665(2)
C10 C 0.6935(3) 0.0391(4) 0.0847(2)
H5 H 0.7245 0.0290 0.0809
C11 C 0.6849(4) 0.0732(3) 0.1082(2)
C12 C 0.6394(5) 0.0897(3) 0.1136(3)
H6 H 0.6339 0.1124 0.1296
C13 C 0.6609(4) -0.0190(3) 0.0428(2)
C14 C 0.7261(4) 0.0891(3) 0.1290(3)
C15 C 0.5601(4) 0.2734(3) 0.2520(2)
C16 C 0.5145(3) 0.2772(3) 0.2670(2)
H7 H 0.4881 0.2624 0.2580
C17 C 0.5108(4) 0.3036(3) 0.2952(2)
C18 C 0.5462(4) 0.3284(3) 0.30843(19)
H8 H 0.5413 0.3466 0.3270
C19 C 0.5897(3) 0.3265(3) 0.2940(2)
C20 C 0.5978(3) 0.2988(3) 0.2676(3)
H9 H 0.6285 0.2962 0.2594
C21 C 0.4621(4) 0.3023(3) 0.3104(3)
C22 C 0.6315(3) 0.3489(3) 0.3101(2)
C23 C 0.3282(4) 0.2129(3) 0.1199(3)
C24 C 0.3362(3) 0.1884(3) 0.0901(2)
H10 H 0.3664 0.1860 0.0810
C25 C 0.2979(4) 0.1685(3) 0.0755(2)
C26 C 0.2520(3) 0.1733(3) 0.0879(2)
H11 H 0.2264 0.1593 0.0773
C27 C 0.2450(4) 0.1983(3) 0.1153(3)
C28 C 0.2832(4) 0.2176(3) 0.1317(2)
H12 H 0.2782 0.2340 0.1511
C29 C 0.3066(4) 0.1388(3) 0.0458(2)
C30 C 0.1983(4) 0.2048(4) 0.1330(3)
Cu3A Cu 0.17256(3) -0.10072(3) 0.13690(2)
Cu4A Cu 0.23028(3) -0.13507(3) 0.18213(2)
N1A N 0.5020(4) -0.1914(3) 0.1529(2)
N2A N 0.5079(4) -0.1360(4) 0.1097(2)
N3A N 0.4353(3) -0.1437(4) 0.1408(3)
N4A N 0.4296(3) -0.1949(5) 0.1811(3)
N5A N 0.4981(4) -0.2434(3) 0.1985(2)
N6A N 0.5648(3) -0.2406(3) 0.1681(2)
N7A N 0.5719(4) -0.1805(4) 0.1231(2)
N8A N 0.4427(4) -0.0897(4) 0.0971(2)
H1A H 0.4624 -0.0767 0.0838
N9A N 0.4268(3) -0.2434(4) 0.2253(2)
H2A H 0.3973 -0.2356 0.2249
N10A N 0.6340(4) -0.2318(3) 0.1383(2)
H3A H 0.6406 -0.2580 0.1481
O1A O 0.3729(2) 0.0427(2) 0.03253(13)
O2A O 0.2951(2) 0.02404(19) 0.03320(12)
O3A O 0.2320(2) -0.07911(18) 0.11675(12)
O4A O 0.28126(19) -0.11235(19) 0.15359(14)
O5A O 0.57132(19) -0.27553(19) 0.29861(12)
O6A O 0.54419(17) -0.3274(2) 0.33526(14)
O7A O 0.37760(16) -0.37107(18) 0.33670(13)
O8A O 0.32822(18) -0.34614(18) 0.29673(11)
O9A O 0.6529(2) -0.13461(18) 0.03473(12)
O10A O 0.7288(2) -0.1183(2) 0.03369(12)
O11A O 0.8354(2) -0.1811(2) 0.11711(13)
O12A O 0.8068(2) -0.2262(2) 0.15719(15)
O15A O 0.1257(2) -0.0736(3) 0.09931(15)
O16A O 0.2784(2) -0.1639(2) 0.21946(16)
C1A C 0.5288(6) -0.1663(6) 0.1274(3)
C2A C 0.4610(5) -0.1224(6) 0.1157(3)
C3A C 0.4535(5) -0.1776(5) 0.1579(4)
C4A C 0.4524(6) -0.2254(6) 0.2011(4)
C5A C 0.5221(5) -0.2247(5) 0.1740(3)
C6A C 0.5892(5) -0.2162(5) 0.1432(3)
C7A C 0.3978(5) -0.0727(4) 0.0953(3)
C8A C 0.3905(4) -0.0365(4) 0.0731(2)
H4A H 0.4164 -0.0233 0.0624
C9A C 0.3442(4) -0.0194(3) 0.0665(2)
C10A C 0.3065(3) -0.0391(4) 0.0847(2)
H5A H 0.2755 -0.0290 0.0809
C11A C 0.3151(4) -0.0732(3) 0.1082(2)
C12A C 0.3606(5) -0.0897(3) 0.1136(3)
H6A H 0.3661 -0.1124 0.1296
C13A C 0.3391(4) 0.0190(3) 0.0428(2)
C14A C 0.2739(4) -0.0891(3) 0.1290(3)
C15A C 0.4399(4) -0.2734(3) 0.2520(2)
C16A C 0.4855(3) -0.2772(3) 0.2670(2)
H7A H 0.5119 -0.2624 0.2580
C17A C 0.4892(4) -0.3036(3) 0.2952(2)
C18A C 0.4538(4) -0.3284(3) 0.30843(19)
H8A H 0.4587 -0.3466 0.3270
C19A C 0.4103(3) -0.3265(3) 0.2940(2)
C20A C 0.4022(3) -0.2988(3) 0.2676(3)
H9A H 0.3715 -0.2962 0.2594
C21A C 0.5379(4) -0.3023(3) 0.3104(3)
C22A C 0.3685(3) -0.3489(3) 0.3101(2)
C23A C 0.6718(4) -0.2129(3) 0.1199(3)
C24A C 0.6638(3) -0.1884(3) 0.0901(2)
H10A H 0.6336 -0.1860 0.0810
C25A C 0.7021(4) -0.1685(3) 0.0755(2)
C26A C 0.7480(3) -0.1733(3) 0.0879(2)
H11A H 0.7736 -0.1593 0.0773
C27A C 0.7550(4) -0.1983(3) 0.1153(3)
C28A C 0.7168(4) -0.2176(3) 0.1317(2)
H12A H 0.7218 -0.2340 0.1511
C29A C 0.6934(4) -0.1388(3) 0.0458(2)
C30A C 0.8017(4) -0.2048(4) 0.1330(3)
Cu1A Cu 0.36686(4) 0.09079(4) 0.0000
Cu2A Cu 0.27523(4) 0.06960(4) 0.0000
Cu3B Cu 0.89928(3) -0.17256(3) 0.13690(2)
Cu3C Cu 0.10072(3) 0.17256(3) 0.13690(2)
Cu3L Cu 0.67256(3) 0.39928(3) 0.36310(2)
Cu3M Cu 0.32744(3) -0.39928(3) 0.36310(2)
Cu3N Cu 0.60072(3) -0.32744(3) 0.36310(2)
Cu3O Cu 0.39928(3) 0.32744(3) 0.36310(2)
Cu4B Cu 0.86493(3) -0.23028(3) 0.18213(2)
Cu4C Cu 0.13507(3) 0.23028(3) 0.18213(2)
Cu4L Cu 0.73028(3) 0.36493(3) 0.31787(2)
Cu4M Cu 0.26972(3) -0.36493(3) 0.31787(2)
Cu4N Cu 0.63507(3) -0.26972(3) 0.31787(2)
Cu4O Cu 0.36493(3) 0.26972(3) 0.31787(2)
O1I O 0.6271(2) -0.0427(2) -0.03253(13)
O2I O 0.7049(2) -0.02404(19) -0.03320(12)
O5N O 0.77553(19) 0.07132(19) 0.20139(12)
O5O O 0.22447(19) -0.07132(19) 0.20139(12)
O6N O 0.8274(2) 0.04419(17) 0.16474(14)
O6O O 0.1726(2) -0.04419(17) 0.16474(14)
O7L O 0.87760(16) 0.12893(18) 0.16330(13)
O7M O 0.12240(16) -0.12893(18) 0.16330(13)
O8L O 0.82822(18) 0.15386(18) 0.20327(11)
O8M O 0.17178(18) -0.15386(18) 0.20327(11)
O9H O 0.6529(2) -0.13461(18) -0.03473(12)
O10H O 0.7288(2) -0.1183(2) -0.03369(12)
O11B O 0.8189(2) 0.1646(2) 0.11711(13)
O11C O 0.1811(2) -0.1646(2) 0.11711(13)
O12B O 0.7738(2) 0.1932(2) 0.15719(15)
O12C O 0.2262(2) -0.1932(2) 0.15719(15)
loop_
_geom_bond_atom_site_label_1
_geom_bond_atom_site_label_2
_geom_bond_site_symmetry_1
_geom_bond_site_symmetry_2
Cu1 Cu2 1_555 1_555
Cu2 O2 1_555 1_555
Cu3 Cu4 1_555 1_555
Cu4 O4 1_555 1_555
N1 C1 1_555 1_555
N2 C1 1_555 1_555
N3 C2 1_555 1_555
N4 C3 1_555 1_555
N5 C4 1_555 1_555
N6 C5 1_555 1_555
N7 C1 1_555 1_555
N8 H1 1_555 1_555
N9 H2 1_555 1_555
N10 H3 1_555 1_555
O1 Cu1 1_555 1_555
O2 C13 1_555 1_555
O3 Cu3 1_555 1_555
O4 C14 1_555 1_555
O5 C21 1_555 1_555
O6 C21 1_555 1_555
O7 C22 1_555 1_555
O8 C22 1_555 1_555
O9 C29 1_555 1_555
O10 C29 1_555 1_555
O11 C30 1_555 1_555
O12 C30 1_555 1_555
O13 Cu1 1_555 1_555
O14 Cu2 1_555 1_555
O15 Cu3 1_555 1_555
O16 Cu4 1_555 1_555
C2 N2 1_555 1_555
C3 N1 1_555 1_555
C4 N4 1_555 1_555
C5 N1 1_555 1_555
C6 N6 1_555 1_555
C7 N8 1_555 1_555
C8 C7 1_555 1_555
H4 C8 1_555 1_555
C9 C8 1_555 1_555
C10 C9 1_555 1_555
H5 C10 1_555 1_555
C11 C10 1_555 1_555
C12 C7 1_555 1_555
H6 C12 1_555 1_555
C13 O1 1_555 1_555
C14 O3 1_555 1_555
C15 N9 1_555 1_555
C16 C15 1_555 1_555
H7 C16 1_555 1_555
C17 C16 1_555 1_555
C18 C17 1_555 1_555
H8 C18 1_555 1_555
C19 C18 1_555 1_555
C20 C15 1_555 1_555
H9 C20 1_555 1_555
C21 C17 1_555 1_555
C22 C19 1_555 1_555
C23 N10 1_555 1_555
C24 C23 1_555 1_555
H10 C24 1_555 1_555
C25 C24 1_555 1_555
C26 C25 1_555 1_555
H11 C26 1_555 1_555
C27 C26 1_555 1_555
C28 C23 1_555 1_555
H12 C28 1_555 1_555
C29 C25 1_555 1_555
C30 C27 1_555 1_555
Cu3A Cu4A 1_555 1_555
Cu4A O4A 1_555 1_555
N1A C1A 1_555 1_555
N2A C1A 1_555 1_555
N3A C2A 1_555 1_555
N4A C3A 1_555 1_555
N5A C4A 1_555 1_555
N6A C5A 1_555 1_555
N7A C1A 1_555 1_555
N8A H1A 1_555 1_555
N9A H2A 1_555 1_555
N10A H3A 1_555 1_555
O1A C13A 1_555 1_555
O2A C13A 1_555 1_555
O3A Cu3A 1_555 1_555
O4A C14A 1_555 1_555
O5A C21A 1_555 1_555
O6A C21A 1_555 1_555
O7A C22A 1_555 1_555
O8A C22A 1_555 1_555
O9A Cu1 1_555 1_555
O10A Cu2 1_555 1_555
O11A C30A 1_555 1_555
O12A C30A 1_555 1_555
O15A Cu3A 1_555 1_555
O16A Cu4A 1_555 1_555
C2A N2A 1_555 1_555
C3A N1A 1_555 1_555
C4A N4A 1_555 1_555
C5A N1A 1_555 1_555
C6A N6A 1_555 1_555
C7A N8A 1_555 1_555
C8A C7A 1_555 1_555
H4A C8A 1_555 1_555
C9A C8A 1_555 1_555
C10A C9A 1_555 1_555
H5A C10A 1_555 1_555
C11A C10A 1_555 1_555
C12A C7A 1_555 1_555
H6A C12A 1_555 1_555
C13A C9A 1_555 1_555
C14A O3A 1_555 1_555
C15A N9A 1_555 1_555
C16A C15A 1_555 1_555
H7A C16A 1_555 1_555
C17A C16A 1_555 1_555
C18A C17A 1_555 1_555
H8A C18A 1_555 1_555
C19A C18A 1_555 1_555
C20A C15A 1_555 1_555
H9A C20A 1_555 1_555
C21A C17A 1_555 1_555
C22A C19A 1_555 1_555
C23A N10A 1_555 1_555
C24A C23A 1_555 1_555
H10A C24A 1_555 1_555
C25A C24A 1_555 1_555
C26A C25A 1_555 1_555
H11A C26A 1_555 1_555
C27A C26A 1_555 1_555
C28A C23A 1_555 1_555
H12A C28A 1_555 1_555
C29A O9A 1_555 1_555
C30A C27A 1_555 1_555
Cu1A O9 1_555 1_555
Cu2A O10 1_555 1_555
Cu3B O11A 1_555 1_555
Cu3C O11 1_555 1_555
Cu3L O7 1_555 1_555
Cu3M O7A 1_555 1_555
Cu3N O6A 1_555 1_555
Cu3O O6 1_555 1_555
Cu4B O12A 1_555 1_555
Cu4C O12 1_555 1_555
Cu4L O8 1_555 1_555
Cu4M O8A 1_555 1_555
Cu4N O5A 1_555 1_555
Cu4O O5 1_555 1_555
O1I Cu1 1_555 1_555
O2I Cu2 1_555 1_555
O5N Cu4 1_555 1_555
O5O Cu4A 1_555 1_555
O6N Cu3 1_555 1_555
O6O Cu3A 1_555 1_555
O7L Cu3 1_555 1_555
O7M Cu3A 1_555 1_555
O8L Cu4 1_555 1_555
O8M Cu4A 1_555 1_555
O9H Cu1 1_555 1_555
O10H Cu2 1_555 1_555
O11B Cu3 1_555 1_555
O11C Cu3A 1_555 1_555
O12B Cu4 1_555 1_555
O12C Cu4A 1_555 1_555
N3 C3 1_555 1_555
N5 C5 1_555 1_555
N7 C6 1_555 1_555
N8 C2 1_555 1_555
N9 C4 1_555 1_555
N10 C6 1_555 1_555
C9 C13 1_555 1_555
C11 C12 1_555 1_555
C11 C14 1_555 1_555
C19 C20 1_555 1_555
C27 C28 1_555 1_555
N3A C3A 1_555 1_555
N5A C5A 1_555 1_555
N7A C6A 1_555 1_555
N8A C2A 1_555 1_555
N9A C4A 1_555 1_555
N10A C6A 1_555 1_555
O1A Cu1A 1_555 1_555
O2A Cu2A 1_555 1_555
O10A C29A 1_555 1_555
C11A C12A 1_555 1_555
C11A C14A 1_555 1_555
C19A C20A 1_555 1_555
C25A C29A 1_555 1_555
C27A C28A 1_555 1_555
Cu1A Cu2A 1_555 1_555
Cu3B Cu4B 1_555 1_555
Cu3C Cu4C 1_555 1_555
Cu3L Cu4L 1_555 1_555
Cu3M Cu4M 1_555 1_555
Cu3N Cu4N 1_555 1_555
Cu3O Cu4O 1_555 1_555

#END
