
#######################################################################
#
#                 Cambridge Crystallographic Data Centre
#                                CCDC 
#
#######################################################################
#
# If this CIF has been generated from an entry in the Cambridge 
# Structural Database, then it will include bibliographic, chemical, 
# crystal, experimental, refinement or atomic coordinate data resulting 
# from the CCDC's data processing and validation procedures.
#
#######################################################################

data_HIYJAC
_symmetry_cell_setting           monoclinic
_symmetry_space_group_name_H-M   'P 21/c'
_symmetry_Int_Tables_number      14
_space_group_name_Hall           '-P 2ybc'
loop_
_symmetry_equiv_pos_site_id
_symmetry_equiv_pos_as_xyz
1 x,y,z
2 -x,1/2+y,1/2-z
3 -x,-y,-z
4 x,1/2-y,1/2+z
_cell_length_a                   12.467(2)
_cell_length_b                   23.356(4)
_cell_length_c                   21.516(4)
_cell_angle_alpha                90
_cell_angle_beta                 104.907(4)
_cell_angle_gamma                90
_cell_volume                     6054.16
loop_
_atom_site_label
_atom_site_type_symbol
_atom_site_fract_x
_atom_site_fract_y
_atom_site_fract_z
Zn1 Zn 0.47511(6) 0.27831(3) 0.20119(4)
Zn2 Zn 0.41247(6) 0.28351(4) 0.05590(4)
S1 S -0.05280(17) 0.53178(7) 0.13067(10)
S2 S 0.93887(16) 0.02890(7) 0.11509(10)
N1 N 0.5486(5) 0.2700(2) 0.2956(3)
N2 N 0.6801(5) 0.2734(3) 0.3840(3)
N3 N 1.1962(5) 0.1935(2) 0.3790(3)
N4 N 1.3354(5) 0.1995(2) 0.4647(3)
O1 O 0.3589(4) 0.3401(2) 0.2012(3)
O2 O 0.3127(5) 0.3354(2) 0.0941(3)
O3 O -0.0730(4) 0.55998(19) 0.0696(2)
O4 O -0.0293(4) 0.56572(18) 0.1882(2)
O5 O -0.4730(4) 0.3479(2) 0.0740(3)
O6 O -0.4215(5) 0.3416(2) 0.1808(3)
O7 O 0.5766(5) 0.2214(2) 0.1693(3)
O8 O 0.5391(4) 0.2262(2) 0.0627(3)
O9 O 0.9114(4) -0.00101(19) 0.0557(2)
O10 O 0.9616(4) -0.00343(19) 0.1745(2)
O11 O 1.3544(4) 0.2172(2) 0.1774(3)
O12 O 1.3159(4) 0.2160(2) 0.0703(3)
C1 C 0.3052(6) 0.3551(3) 0.1477(5)
C2 C 0.2212(6) 0.4010(3) 0.1430(4)
C3 C 0.2084(6) 0.4287(3) 0.1976(4)
H1 H 0.2550 0.4191 0.2375
C4 C 0.1287(6) 0.4699(3) 0.1944(3)
H2 H 0.1227 0.4889 0.2313
C5 C 0.0573(6) 0.4827(3) 0.1352(4)
C6 C 0.0669(7) 0.4562(3) 0.0804(4)
H3 H 0.0192 0.4652 0.0408
C7 C 0.1487(7) 0.4159(3) 0.0854(4)
H4 H 0.1556 0.3979 0.0481
C8 C -0.1653(6) 0.4872(3) 0.1307(4)
C9 C -0.1748(7) 0.4627(3) 0.1873(4)
H5 H -0.1256 0.4728 0.2260
C10 C -0.2572(7) 0.4233(3) 0.1865(4)
H6 H -0.2628 0.4066 0.2248
C11 C -0.3308(7) 0.4085(3) 0.1297(4)
C12 C -0.3255(7) 0.4348(3) 0.0740(4)
H7 H -0.3779 0.4265 0.0357
C13 C -0.2402(7) 0.4748(3) 0.0746(4)
H8 H -0.2354 0.4924 0.0366
C14 C -0.4165(6) 0.3626(3) 0.1290(4)
C15 C 0.5899(6) 0.2061(3) 0.1153(5)
C16 C 0.6733(6) 0.1602(3) 0.1159(4)
C17 C 0.7465(6) 0.1440(3) 0.1738(4)
H9 H 0.7411 0.1604 0.2122
C18 C 0.8267(7) 0.1036(3) 0.1737(4)
H10 H 0.8770 0.0930 0.2119
C19 C 0.8317(6) 0.0789(3) 0.1159(4)
C20 C 0.7563(7) 0.0928(3) 0.0605(3)
H11 H 0.7577 0.0741 0.0225
C21 C 0.6790(6) 0.1337(3) 0.0597(4)
H12 H 0.6296 0.1439 0.0210
C22 C 1.0538(6) 0.0738(3) 0.1181(4)
C23 C 1.1150(6) 0.0935(3) 0.1758(4)
H13 H 1.1013 0.0809 0.2141
C24 C 1.1990(7) 0.1333(3) 0.1761(4)
H14 H 1.2419 0.1468 0.2153
C25 C 1.2201(6) 0.1528(3) 0.1202(4)
C26 C 1.1604(6) 0.1297(3) 0.0639(4)
H15 H 1.1756 0.1407 0.0255
C27 C 1.0784(7) 0.0904(3) 0.0628(4)
H16 H 1.0390 0.0749 0.0238
C28 C 1.3048(6) 0.1990(3) 0.1226(5)
C29 C 0.5031(7) 0.2600(4) 0.3450(4)
H17 H 0.4282 0.2536 0.3418
C30 C 0.5870(8) 0.2610(4) 0.4012(4)
H18 H 0.5801 0.2543 0.4426
C31 C 0.6529(6) 0.2790(3) 0.3208(4)
H19 H 0.7032 0.2884 0.2971
C32 C 0.7916(7) 0.2823(4) 0.4279(4)
H20 H 0.8108 0.2489 0.4554
H21 H 0.7885 0.3149 0.4553
C33 C 0.8830(6) 0.2925(4) 0.3936(4)
C34 C 0.9076(8) 0.3474(3) 0.3788(4)
C35 C 0.9954(9) 0.3549(4) 0.3529(5)
H22 H 1.0149 0.3922 0.3450
C36 C 1.0571(7) 0.3108(4) 0.3376(4)
C37 C 1.0272(6) 0.2546(3) 0.3489(4)
C38 C 0.9398(7) 0.2445(3) 0.3781(4)
C39 C 1.0895(6) 0.2055(3) 0.3290(4)
H23 H 1.1059 0.2146 0.2884
H24 H 1.0432 0.1715 0.3227
C40 C 1.2684(6) 0.1516(3) 0.3730(4)
H25 H 1.2614 0.1259 0.3391
C41 C 1.3525(6) 0.1554(3) 0.4267(4)
H26 H 1.4139 0.1312 0.4365
C42 C 1.2400(6) 0.2208(3) 0.4346(3)
H27 H 1.2061 0.2513 0.4497
C43 C 0.8435(9) 0.3988(4) 0.3915(5)
H28 H 0.8776 0.4331 0.3810
H29 H 0.8435 0.3996 0.4361
H30 H 0.7685 0.3965 0.3655
C44 C 1.1529(9) 0.3242(4) 0.3081(5)
H31 H 1.1394 0.3601 0.2857
H32 H 1.1591 0.2944 0.2785
H33 H 1.2207 0.3266 0.3415
C45 C 0.9103(8) 0.1838(3) 0.3928(5)
H34 H 0.8898 0.1622 0.3536
H35 H 0.8492 0.1847 0.4123
H36 H 0.9733 0.1663 0.4217
Zn1_2 Zn -0.52489(6) 0.27831(3) 0.20119(4)
Zn1_3 Zn 1.47511(6) 0.27831(3) 0.20119(4)
Zn2_2 Zn -0.58753(6) 0.28351(4) 0.05590(4)
Zn2_3 Zn 1.41247(6) 0.28351(4) 0.05590(4)
Zn2C Zn 1.41247(6) 0.21649(4) 0.55590(4)
N4C N 0.3354(5) 0.3005(2) -0.0353(3)
O5_2 O 0.5270(4) 0.3479(2) 0.0740(3)
O6_2 O 0.5785(5) 0.3416(2) 0.1808(3)
O11_2 O 0.3544(4) 0.2172(2) 0.1774(3)
O12_2 O 0.3159(4) 0.2160(2) 0.0703(3)
loop_
_geom_bond_atom_site_label_1
_geom_bond_atom_site_label_2
_geom_bond_site_symmetry_1
_geom_bond_site_symmetry_2
Zn1 N1 1_555 1_555
Zn2 O2 1_555 1_555
S1 O3 1_555 1_555
S2 O9 1_555 1_555
N1 C29 1_555 1_555
N2 C30 1_555 1_555
N3 C39 1_555 1_555
N4 C41 1_555 1_555
O1 Zn1 1_555 1_555
O2 C1 1_555 1_555
O4 S1 1_555 1_555
O5 C14 1_555 1_555
O6 C14 1_555 1_555
O7 Zn1 1_555 1_555
O8 Zn2 1_555 1_555
O10 S2 1_555 1_555
O11 C28 1_555 1_555
O12 C28 1_555 1_555
C1 O1 1_555 1_555
C2 C1 1_555 1_555
C3 C2 1_555 1_555
H1 C3 1_555 1_555
C4 C3 1_555 1_555
H2 C4 1_555 1_555
C5 S1 1_555 1_555
C6 C5 1_555 1_555
H3 C6 1_555 1_555
C7 C2 1_555 1_555
H4 C7 1_555 1_555
C8 S1 1_555 1_555
C9 C8 1_555 1_555
H5 C9 1_555 1_555
C10 C9 1_555 1_555
H6 C10 1_555 1_555
C11 C10 1_555 1_555
C12 C11 1_555 1_555
H7 C12 1_555 1_555
C13 C8 1_555 1_555
H8 C13 1_555 1_555
C14 C11 1_555 1_555
C15 O7 1_555 1_555
C16 C15 1_555 1_555
C17 C16 1_555 1_555
H9 C17 1_555 1_555
C18 C17 1_555 1_555
H10 C18 1_555 1_555
C19 S2 1_555 1_555
C20 C19 1_555 1_555
H11 C20 1_555 1_555
C21 C16 1_555 1_555
H12 C21 1_555 1_555
C22 S2 1_555 1_555
C23 C22 1_555 1_555
H13 C23 1_555 1_555
C24 C23 1_555 1_555
H14 C24 1_555 1_555
C25 C24 1_555 1_555
C26 C25 1_555 1_555
H15 C26 1_555 1_555
C27 C22 1_555 1_555
H16 C27 1_555 1_555
C28 C25 1_555 1_555
C29 H17 1_555 1_555
C30 C29 1_555 1_555
H18 C30 1_555 1_555
C31 N1 1_555 1_555
H19 C31 1_555 1_555
C32 N2 1_555 1_555
H20 C32 1_555 1_555
H21 C32 1_555 1_555
C33 C32 1_555 1_555
C34 C33 1_555 1_555
C35 C34 1_555 1_555
H22 C35 1_555 1_555
C36 C35 1_555 1_555
C37 C36 1_555 1_555
C38 C33 1_555 1_555
C39 C37 1_555 1_555
H23 C39 1_555 1_555
H24 C39 1_555 1_555
C40 N3 1_555 1_555
H25 C40 1_555 1_555
C41 C40 1_555 1_555
H26 C41 1_555 1_555
C42 N3 1_555 1_555
H27 C42 1_555 1_555
C43 C34 1_555 1_555
H28 C43 1_555 1_555
H29 C43 1_555 1_555
H30 C43 1_555 1_555
C44 C36 1_555 1_555
H31 C44 1_555 1_555
H32 C44 1_555 1_555
H33 C44 1_555 1_555
C45 C38 1_555 1_555
H34 C45 1_555 1_555
H35 C45 1_555 1_555
H36 C45 1_555 1_555
Zn1_2 O6 1_555 1_555
Zn1_3 O11 1_555 1_555
Zn2_2 O5 1_555 1_555
Zn2_3 O12 1_555 1_555
Zn2C N4 1_555 1_555
N4C Zn2 1_555 1_555
O5_2 Zn2 1_555 1_555
O6_2 Zn1 1_555 1_555
O11_2 Zn1 1_555 1_555
O12_2 Zn2 1_555 1_555
N2 C31 1_555 1_555
N4 C42 1_555 1_555
O8 C15 1_555 1_555
C4 C5 1_555 1_555
C6 C7 1_555 1_555
C12 C13 1_555 1_555
C18 C19 1_555 1_555
C20 C21 1_555 1_555
C26 C27 1_555 1_555
C37 C38 1_555 1_555

#END
