
#######################################################################
#
#                 Cambridge Crystallographic Data Centre
#                                CCDC 
#
#######################################################################
#
# If this CIF has been generated from an entry in the Cambridge 
# Structural Database, then it will include bibliographic, chemical, 
# crystal, experimental, refinement or atomic coordinate data resulting 
# from the CCDC's data processing and validation procedures.
#
#######################################################################

data_HIYLUY
_symmetry_cell_setting           orthorhombic
_symmetry_space_group_name_H-M   'P n m a'
_symmetry_Int_Tables_number      62
_space_group_name_Hall           '-P 2ac 2n'
loop_
_symmetry_equiv_pos_site_id
_symmetry_equiv_pos_as_xyz
1 x,y,z
2 1/2-x,-y,1/2+z
3 1/2+x,1/2-y,1/2-z
4 -x,1/2+y,-z
5 -x,-y,-z
6 1/2+x,y,1/2-z
7 1/2-x,1/2+y,1/2+z
8 x,1/2-y,z
_cell_length_a                   15.203(3)
_cell_length_b                   33.371(7)
_cell_length_c                   14.395(3)
_cell_angle_alpha                90
_cell_angle_beta                 90
_cell_angle_gamma                90
_cell_volume                     7303.15
loop_
_atom_site_label
_atom_site_type_symbol
_atom_site_fract_x
_atom_site_fract_y
_atom_site_fract_z
K1 K 0.78411(13) 0.04592(5) -0.18597(12)
K2 K 0.75750(16) 0.2500 -0.18531(15)
C1 C 0.5018(4) 0.04929(18) 0.0116(4)
C2 C 0.4110(4) 0.04976(18) 0.0029(4)
C3 C 0.3962(4) 0.05067(18) 0.1626(4)
C4 C 0.4867(4) 0.05078(18) 0.1715(4)
C5 C 0.5678(4) 0.04813(18) -0.0676(4)
C6 C 0.5377(5) 0.0496(2) 0.2622(4)
C7 C 0.3613(4) 0.04956(18) -0.0893(4)
C8 C 0.3318(4) 0.0501(2) 0.2425(4)
C9 C 0.5819(4) 0.14936(15) 0.0110(4)
C10 C 0.4924(4) 0.14980(16) -0.0082(4)
C11 C 0.5214(4) 0.14751(16) -0.1646(4)
C12 C 0.6108(4) 0.14726(16) -0.1460(4)
C13 C 0.6232(4) 0.15029(16) 0.1077(4)
C14 C 0.4183(4) 0.14958(17) 0.0632(4)
C15 C 0.4801(5) 0.14486(19) -0.2611(4)
C16 C 0.6820(4) 0.14684(18) -0.2209(4)
C17 C 0.4585(5) 0.2500 0.1625(5)
C18 C 0.3721(5) 0.2500 0.1381(5)
C19 C 0.4089(6) 0.2500 -0.0166(5)
C20 C 0.4981(5) 0.2500 0.0071(5)
C21 C 0.4963(6) 0.2500 0.2609(6)
C22 C 0.2966(6) 0.2500 0.2074(5)
C23 C 0.3759(5) 0.2500 -0.1159(5)
C24 C 0.5761(6) 0.2500 -0.0599(5)
Ho1 Ho 0.702007(17) 0.051047(8) 0.112400(18)
Ho2 Ho 0.303950(18) 0.150804(7) -0.129560(19)
Ho3 Ho 0.67912(2) 0.2500 0.14009(3)
K3 K 0.23297(14) 0.14305(5) 0.19068(12)
N1 N 0.5386(3) 0.05024(15) 0.0960(3)
N2 N 0.3586(3) 0.05021(15) 0.0784(3)
N3 N 0.4637(3) 0.14863(13) -0.0964(3)
N4 N 0.6417(3) 0.14781(14) -0.0582(3)
N5 N 0.5220(5) 0.2500 0.0962(4)
N6 N 0.3465(5) 0.2500 0.0479(4)
O1 O 0.6481(3) 0.04828(14) -0.0421(3)
O2 O 0.5389(3) 0.04730(15) -0.1475(3)
O3 O 0.6203(3) 0.04971(15) 0.2547(3)
O4 O 0.4956(4) 0.0487(2) 0.3352(3)
O5 O 0.3413(3) 0.08267(12) -0.1227(3)
O6 O 0.3410(3) 0.01617(13) -0.1216(3)
O7 O 0.3131(3) 0.08202(14) 0.2842(3)
O8 O 0.2935(4) 0.01800(14) 0.2588(4)
O9 O 0.3417(3) 0.15053(13) 0.0286(3)
O10 O 0.4376(3) 0.14734(14) 0.1460(3)
O11 O 0.3968(3) 0.14454(13) -0.2613(3)
O12 O 0.5285(3) 0.14290(17) -0.3298(3)
O13 O 0.6511(3) 0.11727(12) 0.1368(3)
O14 O 0.6263(3) 0.18286(12) 0.1487(3)
O15 O 0.7165(3) 0.11445(13) -0.2421(3)
O16 O 0.7056(3) 0.17948(13) -0.2551(3)
O17 O 0.6510(4) 0.2500 -0.0213(4)
O18 O 0.5595(4) 0.2500 -0.1433(4)
O19 O 0.5788(4) 0.2500 0.2672(4)
O20 O 0.4423(5) 0.2500 0.3263(4)
O21 O 0.2670(3) 0.21744(13) 0.2337(3)
O22 O 0.3592(3) 0.21667(12) -0.1527(3)
O23 O 0.8207(4) 0.01406(18) 0.0488(4)
O24 O 0.7888(3) 0.09532(16) 0.0097(4)
O25 O 0.1746(3) 0.11996(16) -0.0674(4)
O26 O 0.2063(4) 0.20059(16) -0.0536(4)
O27 O 0.7905(3) 0.20618(16) 0.0788(3)
O28 O 0.8608(5) 0.1961(2) -0.0898(4)
O29 O 0.9344(6) 0.0235(3) -0.0889(6)
O30 O 0.1785(4) 0.0705(3) 0.0719(5)
O31 O 0.1011(5) 0.1853(2) 0.1013(5)
O32 O 0.5933(7) 0.2500 -0.3347(5)
O21G O 0.2670(3) 0.28256(13) 0.2337(3)
O22G O 0.3592(3) 0.28333(12) -0.1527(3)
K1D K 0.21589(13) -0.04592(5) 0.18597(12)
C1D C 0.4982(4) -0.04929(18) -0.0116(4)
C2D C 0.5890(4) -0.04976(18) -0.0029(4)
C3D C 0.6038(4) -0.05067(18) -0.1626(4)
C4D C 0.5133(4) -0.05078(18) -0.1715(4)
C5D C 0.4322(4) -0.04813(18) 0.0676(4)
C6D C 0.4623(5) -0.0496(2) -0.2622(4)
C7D C 0.6387(4) -0.04956(18) 0.0893(4)
C8D C 0.6682(4) -0.0501(2) -0.2425(4)
C9D C 0.4181(4) -0.14936(15) -0.0110(4)
C10D C 0.5076(4) -0.14980(16) 0.0082(4)
C11D C 0.4786(4) -0.14751(16) 0.1646(4)
C12D C 0.3892(4) -0.14726(16) 0.1460(4)
C13D C 0.3768(4) -0.15029(16) -0.1077(4)
C14D C 0.5817(4) -0.14958(17) -0.0632(4)
C15D C 0.5199(5) -0.14486(19) 0.2611(4)
C16D C 0.3180(4) -0.14684(18) 0.2209(4)
Ho1D Ho 0.297993(17) -0.051047(8) -0.112400(18)
Ho2D Ho 0.696050(18) -0.150804(7) 0.129560(19)
K3D K 0.76703(14) -0.14305(5) -0.19068(12)
N1D N 0.4614(3) -0.05024(15) -0.0960(3)
N2D N 0.6414(3) -0.05021(15) -0.0784(3)
N3D N 0.5363(3) -0.14863(13) 0.0964(3)
N4D N 0.3583(3) -0.14781(14) 0.0582(3)
O1D O 0.3519(3) -0.04828(14) 0.0421(3)
O2D O 0.4611(3) -0.04730(15) 0.1475(3)
O3D O 0.3797(3) -0.04971(15) -0.2547(3)
O4D O 0.5044(4) -0.0487(2) -0.3352(3)
O5D O 0.6587(3) -0.08267(12) 0.1227(3)
O6D O 0.6590(3) -0.01617(13) 0.1216(3)
O7D O 0.6869(3) -0.08202(14) -0.2842(3)
O8D O 0.7065(4) -0.01800(14) -0.2588(4)
O9D O 0.6583(3) -0.15053(13) -0.0286(3)
O10D O 0.5624(3) -0.14734(14) -0.1460(3)
O11D O 0.6032(3) -0.14454(13) 0.2613(3)
O12D O 0.4715(3) -0.14290(17) 0.3298(3)
O13D O 0.3489(3) -0.11727(12) -0.1368(3)
O14D O 0.3737(3) -0.18286(12) -0.1487(3)
O15D O 0.2835(3) -0.11445(13) 0.2421(3)
O16D O 0.2944(3) -0.17948(13) 0.2551(3)
O23D O 0.1793(4) -0.01406(18) -0.0488(4)
O24D O 0.2112(3) -0.09532(16) -0.0097(4)
O25D O 0.8254(3) -0.11996(16) 0.0674(4)
O26D O 0.7937(4) -0.20059(16) 0.0536(4)
O29D O 0.0656(6) -0.0235(3) 0.0889(6)
O30D O 0.8215(4) -0.0705(3) -0.0719(5)
O31D O 0.8989(5) -0.1853(2) -0.1013(5)
O27G O 0.7905(3) 0.29382(16) 0.0788(3)
O28G O 0.8608(5) 0.3039(2) -0.0898(4)
K1A K 0.71589(13) -0.04592(5) 0.31403(12)
K1E K 0.28411(13) 0.04592(5) -0.31403(12)
K2B K 0.25750(16) 0.2500 -0.31469(15)
K2C K 0.24250(16) -0.2500 0.18531(15)
Ho1A Ho 0.797993(17) -0.051047(8) -0.387600(18)
Ho1E Ho 0.202007(17) 0.051047(8) 0.387600(18)
Ho2A Ho 0.196050(18) -0.150804(7) 0.370440(19)
Ho2E Ho 0.803950(18) 0.150804(7) -0.370440(19)
Ho2G Ho 0.303950(18) 0.349196(7) -0.129560(19)
Ho3B Ho 0.17912(2) 0.2500 0.35991(3)
Ho3C Ho 0.32088(2) -0.2500 -0.14009(3)
K3A K 0.26703(14) -0.14305(5) -0.30932(12)
K3E K 0.73297(14) 0.14305(5) 0.30932(12)
K3G K 0.23297(14) 0.35695(5) 0.19068(12)
O5A O 0.1587(3) -0.08267(12) 0.3773(3)
O5E O 0.8413(3) 0.08267(12) -0.3773(3)
O6A O 0.1590(3) -0.01617(13) 0.3784(3)
O6E O 0.8410(3) 0.01617(13) -0.3784(3)
O7A O 0.1869(3) -0.08202(14) -0.2158(3)
O7E O 0.8131(3) 0.08202(14) 0.2158(3)
O8A O 0.2065(4) -0.01800(14) -0.2412(4)
O8E O 0.7935(4) 0.01800(14) 0.2412(4)
O13A O 0.8489(3) -0.11727(12) -0.3632(3)
O13E O 0.1511(3) 0.11727(12) 0.3632(3)
O14A O 0.8737(3) -0.18286(12) -0.3513(3)
O14E O 0.1263(3) 0.18286(12) 0.3513(3)
O14G O 0.6263(3) 0.31714(12) 0.1487(3)
O15A O 0.7835(3) -0.11445(13) 0.2579(3)
O15E O 0.2165(3) 0.11445(13) -0.2579(3)
O16A O 0.7944(3) -0.17948(13) 0.2449(3)
O16E O 0.2056(3) 0.17948(13) -0.2449(3)
O16G O 0.7056(3) 0.32052(13) -0.2551(3)
O21B O 0.7670(3) 0.28256(13) 0.2663(3)
O21D O 0.7330(3) -0.21744(13) -0.2337(3)
O21E O 0.7670(3) 0.21744(13) 0.2663(3)
O22B O 0.8592(3) 0.28333(12) -0.3473(3)
O22D O 0.6408(3) -0.21667(12) 0.1527(3)
O22E O 0.8592(3) 0.21667(12) -0.3473(3)
O33 O 0.4755(10) 0.2500 0.5236(10)
O34 O 0.4219(8) 0.1536(3) 0.3371(6)
O35 O 0.4653(6) 0.1048(3) 0.4984(7)
O36 O 0.5984(4) 0.04906(18) 0.6652(4)
loop_
_geom_bond_atom_site_label_1
_geom_bond_atom_site_label_2
_geom_bond_site_symmetry_1
_geom_bond_site_symmetry_2
K1 O1 1_555 1_555
K2 O16 1_555 1_555
C1 C2 1_555 1_555
C2 C7 1_555 1_555
C3 C4 1_555 1_555
C4 C6 1_555 1_555
C5 C1 1_555 1_555
C6 O3 1_555 1_555
C7 O5 1_555 1_555
C8 C3 1_555 1_555
C9 C10 1_555 1_555
C10 C14 1_555 1_555
C11 C12 1_555 1_555
C12 C16 1_555 1_555
C13 C9 1_555 1_555
C14 O9 1_555 1_555
C15 C11 1_555 1_555
C16 O15 1_555 1_555
C17 C18 1_555 1_555
C18 C22 1_555 1_555
C19 C20 1_555 1_555
C20 C24 1_555 1_555
C21 C17 1_555 1_555
C22 O21 1_555 1_555
C23 C19 1_555 1_555
C24 O17 1_555 1_555
Ho1 N1 1_555 1_555
Ho2 N3 1_555 1_555
Ho3 N5 1_555 1_555
K3 O7 1_555 1_555
N1 C1 1_555 1_555
N2 C2 1_555 1_555
N3 C10 1_555 1_555
N4 C9 1_555 1_555
N5 C17 1_555 1_555
N6 C18 1_555 1_555
O1 C5 1_555 1_555
O2 C5 1_555 1_555
O3 Ho1 1_555 1_555
O4 C6 1_555 1_555
O5 Ho2 1_555 1_555
O6 C7 1_555 1_555
O7 C8 1_555 1_555
O8 C8 1_555 1_555
O9 Ho2 1_555 1_555
O10 C14 1_555 1_555
O11 C15 1_555 1_555
O12 C15 1_555 1_555
O13 C13 1_555 1_555
O14 C13 1_555 1_555
O15 K1 1_555 1_555
O16 C16 1_555 1_555
O17 K2 1_555 1_555
O18 K2 1_555 1_555
O19 C21 1_555 1_555
O20 C21 1_555 1_555
O21 K3 1_555 1_555
O22 C23 1_555 1_555
O23 Ho1 1_555 1_555
O24 K1 1_555 1_555
O25 Ho2 1_555 1_555
O26 Ho2 1_555 1_555
O27 Ho3 1_555 1_555
O28 K2 1_555 1_555
O29 K1 1_555 1_555
O30 K3 1_555 1_555
O31 K3 1_555 1_555
O32 K2 1_555 1_555
O21G C22 1_555 1_555
O22G C23 1_555 1_555
K1D O8 1_555 1_555
C1D C2D 1_555 1_555
C2D C7D 1_555 1_555
C3D C4D 1_555 1_555
C4D C6D 1_555 1_555
C5D C1D 1_555 1_555
C6D O3D 1_555 1_555
C7D O5D 1_555 1_555
C8D C3D 1_555 1_555
C9D C10D 1_555 1_555
C10D C14D 1_555 1_555
C11D C12D 1_555 1_555
C12D C16D 1_555 1_555
C13D C9D 1_555 1_555
C14D O9D 1_555 1_555
C15D C11D 1_555 1_555
C16D O15D 1_555 1_555
Ho1D O6 1_555 1_555
Ho2D N3D 1_555 1_555
K3D O7D 1_555 1_555
N1D C1D 1_555 1_555
N2D C2D 1_555 1_555
N3D C10D 1_555 1_555
N4D C9D 1_555 1_555
O1D K1D 1_555 1_555
O2D C5D 1_555 1_555
O3D Ho1D 1_555 1_555
O4D C6D 1_555 1_555
O5D Ho2D 1_555 1_555
O6D Ho1 1_555 1_555
O7D C8D 1_555 1_555
O8D K1 1_555 1_555
O9D Ho2D 1_555 1_555
O10D C14D 1_555 1_555
O11D C15D 1_555 1_555
O12D C15D 1_555 1_555
O13D C13D 1_555 1_555
O14D C13D 1_555 1_555
O15D K1D 1_555 1_555
O16D C16D 1_555 1_555
O23D Ho1D 1_555 1_555
O24D K1D 1_555 1_555
O25D Ho2D 1_555 1_555
O26D Ho2D 1_555 1_555
O29D K1D 1_555 1_555
O30D K3D 1_555 1_555
O31D K3D 1_555 1_555
O27G Ho3 1_555 1_555
O28G K2 1_555 1_555
K1A O5D 1_555 1_555
K1E O5 1_555 1_555
K2B O22 1_555 1_555
K2C O16D 1_555 1_555
Ho1A O7D 1_555 1_555
Ho1E O7 1_555 1_555
Ho2A O15D 1_555 1_555
Ho2E O15 1_555 1_555
Ho2G O22G 1_555 1_555
Ho3B O21 1_555 1_555
Ho3C O14D 1_555 1_555
K3A O13D 1_555 1_555
K3E O13 1_555 1_555
K3G O21G 1_555 1_555
O5A K1D 1_555 1_555
O5E K1 1_555 1_555
O6A K1D 1_555 1_555
O6E K1 1_555 1_555
O7A Ho1D 1_555 1_555
O7E Ho1 1_555 1_555
O8A Ho1D 1_555 1_555
O8E Ho1 1_555 1_555
O13A K3D 1_555 1_555
O13E K3 1_555 1_555
O14A K3D 1_555 1_555
O14E K3 1_555 1_555
O14G Ho3 1_555 1_555
O15A Ho2D 1_555 1_555
O15E Ho2 1_555 1_555
O16A Ho2D 1_555 1_555
O16E Ho2 1_555 1_555
O16G K2 1_555 1_555
O21B Ho3 1_555 1_555
O21D K3D 1_555 1_555
O21E Ho3 1_555 1_555
O22B K2 1_555 1_555
O22D Ho2D 1_555 1_555
O22E K2 1_555 1_555
C3 N2 1_555 1_555
C4 N1 1_555 1_555
C11 N3 1_555 1_555
C12 N4 1_555 1_555
C19 N6 1_555 1_555
C20 N5 1_555 1_555
C24 O18 1_555 1_555
Ho1 O1 1_555 1_555
Ho1 O13 1_555 1_555
Ho1 O24 1_555 1_555
Ho2 O11 1_555 1_555
Ho2 O22 1_555 1_555
Ho3 O14 1_555 1_555
Ho3 O17 1_555 1_555
Ho3 O19 1_555 1_555
K3 O9 1_555 1_555
K3 O10 1_555 1_555
O6 K1E 1_555 1_555
O8 Ho1E 1_555 1_555
O14 K3E 1_555 1_555
O16 Ho2E 1_555 1_555
O21G Ho3B 1_555 1_555
O22G K2B 1_555 1_555
C3D N2D 1_555 1_555
C4D N1D 1_555 1_555
C5D O1D 1_555 1_555
C7D O6D 1_555 1_555
C8D O8D 1_555 1_555
C11D N3D 1_555 1_555
C12D N4D 1_555 1_555
Ho1D N1D 1_555 1_555
Ho1D O1D 1_555 1_555
Ho1D O13D 1_555 1_555
Ho1D O24D 1_555 1_555
Ho2D O11D 1_555 1_555
K3D O9D 1_555 1_555
K3D O10D 1_555 1_555
O6D K1A 1_555 1_555
O8D Ho1A 1_555 1_555
O14D K3A 1_555 1_555
O16D Ho2A 1_555 1_555
K1A O8E 1_555 1_555
K1A O15A 1_555 1_555
K1E O8A 1_555 1_555
K1E O15E 1_555 1_555
K2B O16E 1_555 1_555
Ho1A O6E 1_555 1_555
Ho1A O13A 1_555 1_555
Ho1E O6A 1_555 1_555
Ho1E O13E 1_555 1_555
Ho2A O5A 1_555 1_555
Ho2E O5E 1_555 1_555
Ho2E O22E 1_555 1_555
Ho3B O14E 1_555 1_555
K3A O7A 1_555 1_555
K3E O7E 1_555 1_555
K3E O21E 1_555 1_555

#END
