
#######################################################################
#
#                 Cambridge Crystallographic Data Centre
#                                CCDC 
#
#######################################################################
#
# If this CIF has been generated from an entry in the Cambridge 
# Structural Database, then it will include bibliographic, chemical, 
# crystal, experimental, refinement or atomic coordinate data resulting 
# from the CCDC's data processing and validation procedures.
#
#######################################################################

data_HIYMEI
_symmetry_cell_setting           orthorhombic
_symmetry_space_group_name_H-M   'P n m a'
_symmetry_Int_Tables_number      62
_space_group_name_Hall           '-P 2ac 2n'
loop_
_symmetry_equiv_pos_site_id
_symmetry_equiv_pos_as_xyz
1 x,y,z
2 1/2-x,-y,1/2+z
3 -x,1/2+y,-z
4 1/2+x,1/2-y,1/2-z
5 -x,-y,-z
6 1/2+x,y,1/2-z
7 x,1/2-y,z
8 1/2-x,1/2+y,1/2+z
_cell_length_a                   8.1957(11)
_cell_length_b                   15.694(2)
_cell_length_c                   13.6618(18)
_cell_angle_alpha                90
_cell_angle_beta                 90
_cell_angle_gamma                90
_cell_volume                     1757.23
loop_
_atom_site_label
_atom_site_type_symbol
_atom_site_fract_x
_atom_site_fract_y
_atom_site_fract_z
Hg1 Hg 0.22819(3) 0.2500 0.47781(2)
I1 I 0.29663(7) 0.2500 0.66779(4)
I2 I -0.00452(6) 0.2500 0.34512(4)
N1 N 0.4179(4) 0.3610(3) 0.4233(3)
N2 N 0.9272(5) 0.4970(3) 0.4722(3)
C1 C 0.5583(6) 0.3722(3) 0.4713(3)
H1 H 0.5799 0.3368 0.5244
C2 C 0.6733(5) 0.4328(3) 0.4474(3)
C3 C 0.6376(6) 0.4863(3) 0.3690(4)
H2 H 0.7094 0.5295 0.3512
C4 C 0.4943(6) 0.4744(4) 0.3183(4)
H3 H 0.4695 0.5089 0.2650
C5 C 0.3872(6) 0.4107(3) 0.3468(4)
H4 H 0.2914 0.4026 0.3115
C6 C 0.8272(6) 0.4416(3) 0.5044(3)
C7 C 0.8546(6) 0.3857(4) 0.5915(4)
H5 H 0.9623 0.3953 0.6168
H6 H 0.8436 0.3271 0.5725
H7 H 0.7754 0.3989 0.6410
Hg1D Hg 1.77181(3) 0.7500 0.52219(2)
N1D N 1.5821(4) 0.6390(3) 0.5767(3)
N1F N 0.4179(4) 0.1390(3) 0.4233(3)
N2D N 1.0728(5) 0.5030(3) 0.5278(3)
C1D C 1.4417(6) 0.6278(3) 0.5287(3)
H1D H 1.4201 0.6632 0.4756
C2D C 1.3267(5) 0.5672(3) 0.5526(3)
C3D C 1.3624(6) 0.5137(3) 0.6310(4)
H2D H 1.2906 0.4705 0.6488
C4D C 1.5057(6) 0.5256(4) 0.6817(4)
H3D H 1.5305 0.4911 0.7350
C5D C 1.6128(6) 0.5893(3) 0.6532(4)
H4D H 1.7086 0.5974 0.6885
C6D C 1.1728(6) 0.5584(3) 0.4956(3)
C7D C 1.1454(6) 0.6143(4) 0.4085(4)
H5D H 1.0377 0.6047 0.3832
H6D H 1.1564 0.6729 0.4275
H7D H 1.2246 0.6011 0.3590
loop_
_geom_bond_atom_site_label_1
_geom_bond_atom_site_label_2
_geom_bond_site_symmetry_1
_geom_bond_site_symmetry_2
Hg1 I1 1_555 1_555
I2 Hg1 1_555 1_555
N1 Hg1 1_555 1_555
N2 C6 1_555 1_555
C1 N1 1_555 1_555
H1 C1 1_555 1_555
C2 C1 1_555 1_555
C3 C2 1_555 1_555
H2 C3 1_555 1_555
C4 C3 1_555 1_555
H3 C4 1_555 1_555
C5 N1 1_555 1_555
H4 C5 1_555 1_555
C6 C2 1_555 1_555
C7 C6 1_555 1_555
H5 C7 1_555 1_555
H6 C7 1_555 1_555
H7 C7 1_555 1_555
Hg1D N1D 1_555 1_555
N1D C1D 1_555 1_555
N1F Hg1 1_555 1_555
N2D N2 1_555 1_555
C1D H1D 1_555 1_555
C2D C1D 1_555 1_555
C3D C2D 1_555 1_555
H2D C3D 1_555 1_555
C4D C3D 1_555 1_555
H3D C4D 1_555 1_555
C5D N1D 1_555 1_555
H4D C5D 1_555 1_555
C6D N2D 1_555 1_555
C7D C6D 1_555 1_555
H5D C7D 1_555 1_555
H6D C7D 1_555 1_555
H7D C7D 1_555 1_555
C4 C5 1_555 1_555
C2D C6D 1_555 1_555
C4D C5D 1_555 1_555

#END
