
#######################################################################
#
#                 Cambridge Crystallographic Data Centre
#                                CCDC 
#
#######################################################################
#
# If this CIF has been generated from an entry in the Cambridge 
# Structural Database, then it will include bibliographic, chemical, 
# crystal, experimental, refinement or atomic coordinate data resulting 
# from the CCDC's data processing and validation procedures.
#
#######################################################################

data_HIYMEJ
_symmetry_cell_setting           orthorhombic
_symmetry_space_group_name_H-M   'P n m a'
_symmetry_Int_Tables_number      62
_space_group_name_Hall           '-P 2ac 2n'
loop_
_symmetry_equiv_pos_site_id
_symmetry_equiv_pos_as_xyz
1 x,y,z
2 1/2-x,-y,1/2+z
3 -x,1/2+y,-z
4 1/2+x,1/2-y,1/2-z
5 -x,-y,-z
6 1/2+x,y,1/2-z
7 x,1/2-y,z
8 1/2-x,1/2+y,1/2+z
_cell_length_a                   15.0646(3)
_cell_length_b                   33.0834(8)
_cell_length_c                   14.4068(3)
_cell_angle_alpha                90
_cell_angle_beta                 90
_cell_angle_gamma                90
_cell_volume                     7180.18
loop_
_atom_site_label
_atom_site_type_symbol
_atom_site_fract_x
_atom_site_fract_y
_atom_site_fract_z
K1 K 0.78597(18) 0.04531(7) -0.18527(18)
K2 K 0.7554(2) 0.2500 -0.1861(2)
C1 C 0.5013(5) 0.0494(2) 0.0126(5)
C2 C 0.4099(5) 0.0499(3) 0.0049(6)
C3 C 0.3971(5) 0.0510(3) 0.1646(6)
C4 C 0.4890(5) 0.0507(3) 0.1731(5)
C5 C 0.5683(6) 0.0484(3) -0.0667(6)
C6 C 0.5407(7) 0.0503(3) 0.2620(6)
C7 C 0.3601(5) 0.0497(3) -0.0873(6)
C8 C 0.3324(6) 0.0494(3) 0.2446(6)
C9 C 0.5826(6) 0.1492(2) 0.0087(6)
C10 C 0.4910(5) 0.1499(2) -0.0101(6)
C11 C 0.5218(6) 0.1474(2) -0.1671(6)
C12 C 0.6120(5) 0.1470(2) -0.1475(6)
C13 C 0.6224(5) 0.1497(3) 0.1051(6)
C14 C 0.4165(6) 0.1494(2) 0.0609(6)
C15 C 0.4789(6) 0.1445(3) -0.2622(6)
C16 C 0.6825(5) 0.1463(3) -0.2216(6)
C17 C 0.4602(7) 0.2500 0.1617(8)
C18 C 0.3688(7) 0.2500 0.1400(8)
C19 C 0.4064(8) 0.2500 -0.0148(8)
C20 C 0.4949(7) 0.2500 0.0080(7)
C21 C 0.4970(8) 0.2500 0.2604(8)
C22 C 0.2948(8) 0.2500 0.2116(8)
C23 C 0.3689(7) 0.2500 -0.1129(7)
C24 C 0.5733(8) 0.2500 -0.0590(8)
Yb1 Yb 0.70227(2) 0.051136(11) 0.11174(2)
Yb2 Yb 0.30538(2) 0.150240(10) -0.13056(3)
Yb3 Yb 0.67806(3) 0.2500 0.13846(3)
K3 K 0.23131(19) 0.14252(7) 0.19068(18)
N1 N 0.5396(4) 0.0500(2) 0.0966(4)
N2 N 0.3580(5) 0.0500(2) 0.0803(5)
N3 N 0.4632(4) 0.14879(18) -0.0976(5)
N4 N 0.6421(4) 0.14806(19) -0.0601(5)
N5 N 0.5202(6) 0.2500 0.0977(6)
N6 N 0.3441(6) 0.2500 0.0508(7)
O1 O 0.6494(4) 0.04880(19) -0.0405(4)
O2 O 0.5399(4) 0.0473(2) -0.1466(4)
O3 O 0.6241(4) 0.0495(2) 0.2528(4)
O4 O 0.4997(5) 0.0487(3) 0.3360(5)
O5 O 0.3398(4) 0.08270(19) -0.1211(4)
O6 O 0.3406(4) 0.01607(18) -0.1200(4)
O7 O 0.3124(4) 0.08170(19) 0.2857(4)
O8 O 0.2959(5) 0.0167(2) 0.2620(5)
O9 O 0.3397(4) 0.15110(18) 0.0251(4)
O10 O 0.4343(4) 0.1477(2) 0.1427(4)
O11 O 0.3948(4) 0.14459(18) -0.2617(4)
O12 O 0.5275(5) 0.1433(2) -0.3307(4)
O13 O 0.6516(4) 0.11721(17) 0.1357(4)
O14 O 0.6266(4) 0.18302(17) 0.1464(4)
O15 O 0.7150(4) 0.11322(18) -0.2450(5)
O16 O 0.7088(4) 0.17876(18) -0.2559(5)
O17 O 0.6498(5) 0.2500 -0.0198(5)
O18 O 0.5575(6) 0.2500 -0.1435(6)
O19 O 0.5810(5) 0.2500 0.2663(6)
O20 O 0.4478(7) 0.2500 0.3257(7)
O21 O 0.2666(4) 0.21728(19) 0.2384(5)
O22 O 0.3544(4) 0.21650(18) -0.1497(4)
O23 O 0.8189(5) 0.0140(2) 0.0469(6)
O24 O 0.7904(5) 0.0954(2) 0.0121(5)
O25 O 0.1757(5) 0.1231(4) -0.0670(6)
O26 O 0.2037(7) 0.2001(3) -0.0548(8)
O27 O 0.7891(5) 0.2069(2) 0.0777(5)
O28 O 0.8627(7) 0.1975(3) -0.0890(6)
O29 O 0.9357(8) 0.0248(4) -0.0869(8)
O30 O 0.1748(7) 0.0730(4) 0.0676(7)
O31 O 0.1006(8) 0.1839(4) 0.1006(8)
O32 O 0.5892(14) 0.2500 -0.3345(11)
O21F O 0.2666(4) 0.28272(19) 0.2384(5)
O22F O 0.3544(4) 0.28350(18) -0.1497(4)
K1D K 0.21403(18) -0.04531(7) 0.18527(18)
C1D C 0.4987(5) -0.0494(2) -0.0126(5)
C2D C 0.5901(5) -0.0499(3) -0.0049(6)
C3D C 0.6029(5) -0.0510(3) -0.1646(6)
C4D C 0.5110(5) -0.0507(3) -0.1731(5)
C5D C 0.4317(6) -0.0484(3) 0.0667(6)
C6D C 0.4593(7) -0.0503(3) -0.2620(6)
C7D C 0.6399(5) -0.0497(3) 0.0873(6)
C8D C 0.6676(6) -0.0494(3) -0.2446(6)
C9D C 0.4174(6) -0.1492(2) -0.0087(6)
C10D C 0.5090(5) -0.1499(2) 0.0101(6)
C11D C 0.4782(6) -0.1474(2) 0.1671(6)
C12D C 0.3880(5) -0.1470(2) 0.1475(6)
C13D C 0.3776(5) -0.1497(3) -0.1051(6)
C14D C 0.5835(6) -0.1494(2) -0.0609(6)
C15D C 0.5211(6) -0.1445(3) 0.2622(6)
C16D C 0.3175(5) -0.1463(3) 0.2216(6)
Yb1D Yb 0.29773(2) -0.051136(11) -0.11174(2)
Yb2D Yb 0.69462(2) -0.150240(10) 0.13056(3)
K3D K 0.76869(19) -0.14252(7) -0.19068(18)
N1D N 0.4604(4) -0.0500(2) -0.0966(4)
N2D N 0.6420(5) -0.0500(2) -0.0803(5)
N3D N 0.5368(4) -0.14879(18) 0.0976(5)
N4D N 0.3579(4) -0.14806(19) 0.0601(5)
O1D O 0.3506(4) -0.04880(19) 0.0405(4)
O2D O 0.4601(4) -0.0473(2) 0.1466(4)
O3D O 0.3759(4) -0.0495(2) -0.2528(4)
O4D O 0.5003(5) -0.0487(3) -0.3360(5)
O5D O 0.6602(4) -0.08270(19) 0.1211(4)
O6D O 0.6594(4) -0.01607(18) 0.1200(4)
O7D O 0.6876(4) -0.08170(19) -0.2857(4)
O8D O 0.7041(5) -0.0167(2) -0.2620(5)
O9D O 0.6603(4) -0.15110(18) -0.0251(4)
O10D O 0.5657(4) -0.1477(2) -0.1427(4)
O11D O 0.6052(4) -0.14459(18) 0.2617(4)
O12D O 0.4725(5) -0.1433(2) 0.3307(4)
O13D O 0.3484(4) -0.11721(17) -0.1357(4)
O14D O 0.3734(4) -0.18302(17) -0.1464(4)
O15D O 0.2850(4) -0.11322(18) 0.2450(5)
O16D O 0.2912(4) -0.17876(18) 0.2559(5)
O23D O 0.1811(5) -0.0140(2) -0.0469(6)
O24D O 0.2096(5) -0.0954(2) -0.0121(5)
O25D O 0.8243(5) -0.1231(4) 0.0670(6)
O26D O 0.7963(7) -0.2001(3) 0.0548(8)
O29D O 0.0643(8) -0.0248(4) 0.0869(8)
O30D O 0.8252(7) -0.0730(4) -0.0676(7)
O31D O 0.8994(8) -0.1839(4) -0.1006(8)
O27F O 0.7891(5) 0.2931(2) 0.0777(5)
O28F O 0.8627(7) 0.3025(3) -0.0890(6)
K1A K 0.71403(18) -0.04531(7) 0.31473(18)
K1E K 0.28597(18) 0.04531(7) -0.31473(18)
K2B K 0.2446(2) -0.2500 0.1861(2)
K2C K 0.2554(2) 0.2500 -0.3139(2)
Yb1A Yb 0.79773(2) -0.051136(11) -0.38826(2)
Yb1E Yb 0.20227(2) 0.051136(11) 0.38826(2)
Yb2A Yb 0.19462(2) -0.150240(10) 0.36944(3)
Yb2E Yb 0.80538(2) 0.150240(10) -0.36944(3)
Yb2F Yb 0.30538(2) 0.349760(10) -0.13056(3)
Yb3B Yb 0.32194(3) -0.2500 -0.13846(3)
Yb3C Yb 0.17806(3) 0.2500 0.36154(3)
K3A K 0.26869(19) -0.14252(7) -0.30932(18)
K3E K 0.73131(19) 0.14252(7) 0.30932(18)
K3F K 0.23131(19) 0.35748(7) 0.19068(18)
O5A O 0.1602(4) -0.08270(19) 0.3789(4)
O5E O 0.8398(4) 0.08270(19) -0.3789(4)
O6A O 0.1594(4) -0.01607(18) 0.3800(4)
O6E O 0.8406(4) 0.01607(18) -0.3800(4)
O7A O 0.1876(4) -0.08170(19) -0.2143(4)
O7E O 0.8124(4) 0.08170(19) 0.2143(4)
O8A O 0.2041(5) -0.0167(2) -0.2380(5)
O8E O 0.7959(5) 0.0167(2) 0.2380(5)
O13A O 0.8484(4) -0.11721(17) -0.3643(4)
O13E O 0.1516(4) 0.11721(17) 0.3643(4)
O14A O 0.8734(4) -0.18302(17) -0.3536(4)
O14E O 0.1266(4) 0.18302(17) 0.3536(4)
O14F O 0.6266(4) 0.31698(17) 0.1464(4)
O15A O 0.7850(4) -0.11322(18) 0.2550(5)
O15E O 0.2150(4) 0.11322(18) -0.2550(5)
O16A O 0.7912(4) -0.17876(18) 0.2441(5)
O16E O 0.2088(4) 0.17876(18) -0.2441(5)
O16F O 0.7088(4) 0.32124(18) -0.2559(5)
O21C O 0.7666(4) 0.28272(19) 0.2616(5)
O21D O 0.7334(4) -0.21728(19) -0.2384(5)
O21E O 0.7666(4) 0.21728(19) 0.2616(5)
O22C O 0.8544(4) 0.28350(18) -0.3503(4)
O22D O 0.6456(4) -0.21650(18) 0.1497(4)
O22E O 0.8544(4) 0.21650(18) -0.3503(4)
O33 O 0.4855(19) 0.2500 0.5256(19)
O34 O 0.4274(14) 0.1518(4) 0.3379(9)
O35 O 0.4671(8) 0.1047(5) 0.4978(10)
O36 O 0.5982(6) 0.0495(3) 0.6638(6)
loop_
_geom_bond_atom_site_label_1
_geom_bond_atom_site_label_2
_geom_bond_site_symmetry_1
_geom_bond_site_symmetry_2
K1 O1 1_555 1_555
K2 O16 1_555 1_555
C1 C2 1_555 1_555
C2 C7 1_555 1_555
C3 C4 1_555 1_555
C4 C6 1_555 1_555
C5 C1 1_555 1_555
C6 O3 1_555 1_555
C7 O5 1_555 1_555
C8 C3 1_555 1_555
C9 C10 1_555 1_555
C10 C14 1_555 1_555
C11 C12 1_555 1_555
C12 C16 1_555 1_555
C13 C9 1_555 1_555
C14 O9 1_555 1_555
C15 C11 1_555 1_555
C16 O15 1_555 1_555
C17 C18 1_555 1_555
C18 C22 1_555 1_555
C19 C20 1_555 1_555
C20 C24 1_555 1_555
C21 C17 1_555 1_555
C22 O21 1_555 1_555
C23 C19 1_555 1_555
C24 O17 1_555 1_555
Yb1 N1 1_555 1_555
Yb2 N3 1_555 1_555
Yb3 N5 1_555 1_555
K3 O7 1_555 1_555
N1 C1 1_555 1_555
N2 C2 1_555 1_555
N3 C10 1_555 1_555
N4 C9 1_555 1_555
N5 C17 1_555 1_555
N6 C18 1_555 1_555
O1 C5 1_555 1_555
O2 C5 1_555 1_555
O3 Yb1 1_555 1_555
O4 C6 1_555 1_555
O5 Yb2 1_555 1_555
O6 C7 1_555 1_555
O7 C8 1_555 1_555
O8 C8 1_555 1_555
O9 Yb2 1_555 1_555
O10 C14 1_555 1_555
O11 C15 1_555 1_555
O12 C15 1_555 1_555
O13 C13 1_555 1_555
O14 C13 1_555 1_555
O15 K1 1_555 1_555
O16 C16 1_555 1_555
O17 K2 1_555 1_555
O18 K2 1_555 1_555
O19 C21 1_555 1_555
O20 C21 1_555 1_555
O21 K3 1_555 1_555
O22 C23 1_555 1_555
O23 Yb1 1_555 1_555
O24 K1 1_555 1_555
O25 Yb2 1_555 1_555
O26 Yb2 1_555 1_555
O27 Yb3 1_555 1_555
O28 K2 1_555 1_555
O29 K1 1_555 1_555
O30 K3 1_555 1_555
O31 K3 1_555 1_555
O32 K2 1_555 1_555
O21F C22 1_555 1_555
O22F C23 1_555 1_555
K1D O8 1_555 1_555
C1D C2D 1_555 1_555
C2D C7D 1_555 1_555
C3D C4D 1_555 1_555
C4D C6D 1_555 1_555
C5D C1D 1_555 1_555
C6D O3D 1_555 1_555
C7D O5D 1_555 1_555
C8D C3D 1_555 1_555
C9D C10D 1_555 1_555
C10D C14D 1_555 1_555
C11D C12D 1_555 1_555
C12D C16D 1_555 1_555
C13D C9D 1_555 1_555
C14D O9D 1_555 1_555
C15D C11D 1_555 1_555
C16D O15D 1_555 1_555
Yb1D O6 1_555 1_555
Yb2D N3D 1_555 1_555
K3D O7D 1_555 1_555
N1D C1D 1_555 1_555
N2D C2D 1_555 1_555
N3D C10D 1_555 1_555
N4D C9D 1_555 1_555
O1D K1D 1_555 1_555
O2D C5D 1_555 1_555
O3D Yb1D 1_555 1_555
O4D C6D 1_555 1_555
O5D Yb2D 1_555 1_555
O6D Yb1 1_555 1_555
O7D C8D 1_555 1_555
O8D K1 1_555 1_555
O9D Yb2D 1_555 1_555
O10D C14D 1_555 1_555
O11D C15D 1_555 1_555
O12D C15D 1_555 1_555
O13D C13D 1_555 1_555
O14D C13D 1_555 1_555
O15D K1D 1_555 1_555
O16D C16D 1_555 1_555
O23D Yb1D 1_555 1_555
O24D K1D 1_555 1_555
O25D Yb2D 1_555 1_555
O26D Yb2D 1_555 1_555
O29D K1D 1_555 1_555
O30D K3D 1_555 1_555
O31D K3D 1_555 1_555
O27F Yb3 1_555 1_555
O28F K2 1_555 1_555
K1A O5D 1_555 1_555
K1E O5 1_555 1_555
K2B O16D 1_555 1_555
K2C O22 1_555 1_555
Yb1A O7D 1_555 1_555
Yb1E O7 1_555 1_555
Yb2A O15D 1_555 1_555
Yb2E O15 1_555 1_555
Yb2F O22F 1_555 1_555
Yb3B O14D 1_555 1_555
Yb3C O21 1_555 1_555
K3A O13D 1_555 1_555
K3E O13 1_555 1_555
K3F O21F 1_555 1_555
O5A K1D 1_555 1_555
O5E K1 1_555 1_555
O6A K1D 1_555 1_555
O6E K1 1_555 1_555
O7A Yb1D 1_555 1_555
O7E Yb1 1_555 1_555
O8A Yb1D 1_555 1_555
O8E Yb1 1_555 1_555
O13A K3D 1_555 1_555
O13E K3 1_555 1_555
O14A K3D 1_555 1_555
O14E K3 1_555 1_555
O14F Yb3 1_555 1_555
O15A Yb2D 1_555 1_555
O15E Yb2 1_555 1_555
O16A Yb2D 1_555 1_555
O16E Yb2 1_555 1_555
O16F K2 1_555 1_555
O21C Yb3 1_555 1_555
O21D K3D 1_555 1_555
O21E Yb3 1_555 1_555
O22C K2 1_555 1_555
O22D Yb2D 1_555 1_555
O22E K2 1_555 1_555
C3 N2 1_555 1_555
C4 N1 1_555 1_555
C11 N3 1_555 1_555
C12 N4 1_555 1_555
C19 N6 1_555 1_555
C20 N5 1_555 1_555
C24 O18 1_555 1_555
Yb1 O1 1_555 1_555
Yb1 O13 1_555 1_555
Yb1 O24 1_555 1_555
Yb2 O11 1_555 1_555
Yb2 O22 1_555 1_555
Yb3 O14 1_555 1_555
Yb3 O17 1_555 1_555
Yb3 O19 1_555 1_555
K3 O9 1_555 1_555
K3 O10 1_555 1_555
O6 K1E 1_555 1_555
O8 Yb1E 1_555 1_555
O14 K3E 1_555 1_555
O16 Yb2E 1_555 1_555
O21F Yb3C 1_555 1_555
O22F K2C 1_555 1_555
C3D N2D 1_555 1_555
C4D N1D 1_555 1_555
C5D O1D 1_555 1_555
C7D O6D 1_555 1_555
C8D O8D 1_555 1_555
C11D N3D 1_555 1_555
C12D N4D 1_555 1_555
Yb1D N1D 1_555 1_555
Yb1D O1D 1_555 1_555
Yb1D O13D 1_555 1_555
Yb1D O24D 1_555 1_555
Yb2D O11D 1_555 1_555
K3D O9D 1_555 1_555
K3D O10D 1_555 1_555
O6D K1A 1_555 1_555
O8D Yb1A 1_555 1_555
O14D K3A 1_555 1_555
O16D Yb2A 1_555 1_555
K1A O8E 1_555 1_555
K1A O15A 1_555 1_555
K1E O8A 1_555 1_555
K1E O15E 1_555 1_555
K2C O16E 1_555 1_555
Yb1A O6E 1_555 1_555
Yb1A O13A 1_555 1_555
Yb1E O6A 1_555 1_555
Yb1E O13E 1_555 1_555
Yb2A O5A 1_555 1_555
Yb2E O5E 1_555 1_555
Yb2E O22E 1_555 1_555
Yb3C O14E 1_555 1_555
K3A O7A 1_555 1_555
K3E O7E 1_555 1_555
K3E O21E 1_555 1_555

#END
