
#######################################################################
#
#                 Cambridge Crystallographic Data Centre
#                                CCDC 
#
#######################################################################
#
# If this CIF has been generated from an entry in the Cambridge 
# Structural Database, then it will include bibliographic, chemical, 
# crystal, experimental, refinement or atomic coordinate data resulting 
# from the CCDC's data processing and validation procedures.
#
#######################################################################

data_HIYMOS
_symmetry_cell_setting           monoclinic
_symmetry_space_group_name_H-M   'P 21/c'
_symmetry_Int_Tables_number      14
_space_group_name_Hall           '-P 2ybc'
loop_
_symmetry_equiv_pos_site_id
_symmetry_equiv_pos_as_xyz
1 x,y,z
2 -x,1/2+y,1/2-z
3 -x,-y,-z
4 x,1/2-y,1/2+z
_cell_length_a                   7.5453(11)
_cell_length_b                   7.4618(11)
_cell_length_c                   18.556(3)
_cell_angle_alpha                90
_cell_angle_beta                 100.914(2)
_cell_angle_gamma                90
_cell_volume                     1025.83
loop_
_atom_site_label
_atom_site_type_symbol
_atom_site_fract_x
_atom_site_fract_y
_atom_site_fract_z
Hg1 Hg 0.54180(7) 0.85266(8) 0.84294(3)
I1 I 0.89106(13) 0.91369(14) 0.88470(6)
I2 I 0.29296(14) 0.96640(16) 0.73110(6)
N1 N 0.3567(14) 0.6388(15) 0.8892(6)
N2 N 0.4683(14) 0.9291(14) 0.9751(6)
C1 C 0.3324(16) 0.6439(17) 0.9577(7)
C2 C 0.4038(17) 0.7992(17) 1.0041(7)
H1 H 0.4006 0.8001 1.0539
C3 C 0.2369(18) 0.5111(17) 0.9878(8)
H2 H 0.2269 0.5153 1.0370
C4 C 0.280(2) 0.5023(19) 0.8444(9)
H3 H 0.2932 0.4981 0.7956
C5 C 0.159(2) 0.3752(19) 0.9434(9)
H4 H 0.0906 0.2879 0.9614
C6 C 0.182(2) 0.3697(18) 0.8729(9)
H5 H 0.1316 0.2760 0.8428
Hg1A Hg 0.45820(7) 0.35266(8) 0.65706(3)
Hg1A_2 Hg 0.45820(7) 1.35266(8) 0.65706(3)
Hg1B Hg 0.45820(7) 1.14734(8) 1.15706(3)
I1A I 0.10894(13) 0.41369(14) 0.61530(6)
I2A I 0.70704(14) 0.46640(16) 0.76890(6)
I2_2 I 0.29296(14) -0.03360(16) 0.73110(6)
N1B N 0.6433(14) 1.3612(15) 1.1108(6)
N1A N 0.6433(14) 0.1388(15) 0.6108(6)
N2B N 0.5317(14) 1.0709(14) 1.0249(6)
N2A N 0.5317(14) 0.4291(14) 0.5249(6)
C1B C 0.6676(16) 1.3561(17) 1.0423(7)
C2B C 0.5962(17) 1.2008(17) 0.9959(7)
H1B H 0.5994 1.1999 0.9461
C3B C 0.7631(18) 1.4889(17) 1.0122(8)
H2B H 0.7731 1.4847 0.9630
C4B C 0.720(2) 1.4977(19) 1.1556(9)
H3B H 0.7068 1.5019 1.2044
C5B C 0.841(2) 1.6248(19) 1.0566(9)
H4B H 0.9094 1.7121 1.0386
C6B C 0.818(2) 1.6303(18) 1.1271(9)
H5B H 0.8684 1.7240 1.1572
loop_
_geom_bond_atom_site_label_1
_geom_bond_atom_site_label_2
_geom_bond_site_symmetry_1
_geom_bond_site_symmetry_2
Hg1 I1 1_555 1_555
I2 Hg1 1_555 1_555
N1 Hg1 1_555 1_555
N2 Hg1 1_555 1_555
C1 N1 1_555 1_555
C2 N2 1_555 1_555
H1 C2 1_555 1_555
C3 C1 1_555 1_555
H2 C3 1_555 1_555
C4 N1 1_555 1_555
H3 C4 1_555 1_555
C5 C3 1_555 1_555
H4 C5 1_555 1_555
C6 C4 1_555 1_555
H5 C6 1_555 1_555
Hg1A I1A 1_555 1_555
Hg1A_2 I2 1_555 1_555
Hg1B N1B 1_555 1_555
I2A Hg1 1_555 1_555
I2_2 Hg1A 1_555 1_555
N1B C1B 1_555 1_555
N1A Hg1A 1_555 1_555
N2B N2 1_555 1_555
N2A Hg1A 1_555 1_555
C1B C2B 1_555 1_555
C2B N2B 1_555 1_555
H1B C2B 1_555 1_555
C3B C1B 1_555 1_555
H2B C3B 1_555 1_555
C4B N1B 1_555 1_555
H3B C4B 1_555 1_555
C5B C3B 1_555 1_555
H4B C5B 1_555 1_555
C6B C4B 1_555 1_555
H5B C6B 1_555 1_555
C1 C2 1_555 1_555
C5 C6 1_555 1_555
Hg1A I2A 1_555 1_555
Hg1B N2B 1_555 1_555
C5B C6B 1_555 1_555

#END
