
#######################################################################
#
#                 Cambridge Crystallographic Data Centre
#                                CCDC 
#
#######################################################################
#
# If this CIF has been generated from an entry in the Cambridge 
# Structural Database, then it will include bibliographic, chemical, 
# crystal, experimental, refinement or atomic coordinate data resulting 
# from the CCDC's data processing and validation procedures.
#
#######################################################################

data_HIYNUZ
_symmetry_cell_setting           monoclinic
_symmetry_space_group_name_H-M   'P 21/n'
_symmetry_Int_Tables_number      14
_space_group_name_Hall           '-P 2yn'
loop_
_symmetry_equiv_pos_site_id
_symmetry_equiv_pos_as_xyz
1 x,y,z
2 1/2-x,1/2+y,1/2-z
3 -x,-y,-z
4 1/2+x,1/2-y,1/2+z
_cell_length_a                   8.4586(5)
_cell_length_b                   11.1605(6)
_cell_length_c                   13.8541(8)
_cell_angle_alpha                90
_cell_angle_beta                 103.753(5)
_cell_angle_gamma                90
_cell_volume                     1270.36
loop_
_atom_site_label
_atom_site_type_symbol
_atom_site_fract_x
_atom_site_fract_y
_atom_site_fract_z
I1 I 0.200968(18) 0.075382(12) 0.083182(10)
Sn1 Sn 0.410931(19) 0.253844(11) 0.184709(10)
N1 N 0.0330(3) 0.24810(17) 0.46156(17)
N2 N 0.1080(3) 0.5636(2) -0.11770(16)
N3 N 0.6004(3) 0.42073(16) 0.27831(15)
C1 C 0.3244(3) 0.24232(18) 0.31879(17)
H1 H 0.354(3) 0.166(3) 0.348(2)
H2 H 0.376(4) 0.306(3) 0.367(2)
C2 C 0.1393(3) 0.2551(2) 0.29922(19)
H3 H 0.105(4) 0.332(3) 0.265(2)
H4 H 0.076(4) 0.192(3) 0.257(2)
C3 C 0.0795(3) 0.25086(18) 0.39064(19)
C4 C 0.3268(3) 0.40658(19) 0.09171(17)
H5 H 0.281(3) 0.457(3) 0.133(2)
H6 H 0.425(4) 0.440(2) 0.0779(19)
C5 C 0.1994(3) 0.3773(2) -0.00350(17)
H7 H 0.246(3) 0.319(2) -0.0399(19)
H8 H 0.098(3) 0.352(2) 0.0119(19)
C6 C 0.1493(3) 0.4831(2) -0.06709(16)
C7 C 0.8532(3) 0.67305(19) 0.30175(16)
H9 H 0.791(3) 0.728(2) 0.3262(18)
H10 H 0.813(3) 0.673(2) 0.2273(18)
C8 C 0.8587(3) 0.5490(2) 0.35050(19)
H11 H 0.948(4) 0.504(2) 0.344(2)
H12 H 0.875(4) 0.556(3) 0.417(2)
C9 C 0.7120(3) 0.47800(19) 0.31154(16)
Sn1A Sn 1.089069(19) 0.753844(11) 0.315291(10)
C7A C 0.6468(3) 0.17305(19) 0.19825(16)
H9A H 0.709(3) 0.228(2) 0.1738(18)
H10A H 0.687(3) 0.173(2) 0.2727(18)
loop_
_geom_bond_atom_site_label_1
_geom_bond_atom_site_label_2
_geom_bond_site_symmetry_1
_geom_bond_site_symmetry_2
I1 Sn1 1_555 1_555
Sn1 N3 1_555 1_555
N1 C3 1_555 1_555
N2 C6 1_555 1_555
N3 C9 1_555 1_555
C1 Sn1 1_555 1_555
H1 C1 1_555 1_555
H2 C1 1_555 1_555
C2 C1 1_555 1_555
H3 C2 1_555 1_555
H4 C2 1_555 1_555
C3 C2 1_555 1_555
C4 Sn1 1_555 1_555
H5 C4 1_555 1_555
H6 C4 1_555 1_555
C5 C4 1_555 1_555
H7 C5 1_555 1_555
H8 C5 1_555 1_555
C6 C5 1_555 1_555
C7 H9 1_555 1_555
H10 C7 1_555 1_555
C8 C7 1_555 1_555
H11 C8 1_555 1_555
H12 C8 1_555 1_555
C9 C8 1_555 1_555
Sn1A C7 1_555 1_555
C7A Sn1 1_555 1_555
H9A C7A 1_555 1_555
H10A C7A 1_555 1_555

#END
