
#######################################################################
#
#                 Cambridge Crystallographic Data Centre
#                                CCDC 
#
#######################################################################
#
# If this CIF has been generated from an entry in the Cambridge 
# Structural Database, then it will include bibliographic, chemical, 
# crystal, experimental, refinement or atomic coordinate data resulting 
# from the CCDC's data processing and validation procedures.
#
#######################################################################

data_HIYPUB
_symmetry_cell_setting           orthorhombic
_symmetry_space_group_name_H-M   'I 2 2 2'
_symmetry_Int_Tables_number      23
_space_group_name_Hall           'I 2 2'
loop_
_symmetry_equiv_pos_site_id
_symmetry_equiv_pos_as_xyz
1 x,y,z
2 -x,-y,z
3 x,-y,-z
4 -x,y,-z
5 1/2+x,1/2+y,1/2+z
6 1/2-x,1/2-y,1/2+z
7 1/2+x,1/2-y,1/2-z
8 1/2-x,1/2+y,1/2-z
_cell_length_a                   23.0670(10)
_cell_length_b                   23.1760(10)
_cell_length_c                   24.9480(9)
_cell_angle_alpha                90
_cell_angle_beta                 90
_cell_angle_gamma                90
_cell_volume                     13337.2
loop_
_atom_site_label
_atom_site_type_symbol
_atom_site_fract_x
_atom_site_fract_y
_atom_site_fract_z
V1 V 0.24710(5) 0.25441(4) -0.03473(4)
V2 V 0.27979(5) 0.39878(5) -0.07788(5)
V3 V 0.10624(5) 0.29127(6) -0.08237(5)
V4 V 0.21627(6) 0.11736(5) -0.09009(5)
V5 V 0.32952(5) 0.14615(5) -0.16776(5)
V6 V 0.38962(5) 0.22653(6) -0.08498(5)
V7 V 0.37486(5) 0.34560(6) -0.15911(5)
V8 V 0.25302(5) 0.27254(5) -0.21111(4)
V9 V 0.17184(5) 0.38986(5) -0.15866(5)
V10 V 0.13227(5) 0.19079(6) -0.16509(5)
Cu1 Cu 0.25138(3) 0.24478(3) 0.12192(3)
C1 C 0.3714(3) 0.2553(4) 0.1649(3)
H1 H 0.3580 0.2713 0.1967
C2 C 0.3745(3) 0.2222(3) 0.0839(3)
H2 H 0.3634 0.2103 0.0498
C3 C 0.4297(3) 0.2243(4) 0.1024(3)
H3 H 0.4630 0.2142 0.0836
C4 C 0.4753(3) 0.2537(4) 0.1908(3)
H4 H 0.4670 0.2865 0.2136
H5 H 0.5100 0.2624 0.1703
C5 C 0.4857(4) 0.2011(5) 0.2248(4)
H6 H 0.4917 0.1682 0.2014
H7 H 0.4511 0.1936 0.2458
C6 C 0.5383(4) 0.2059(5) 0.2635(4)
H8 H 0.5424 0.1700 0.2832
H9 H 0.5733 0.2117 0.2427
C7 C 0.5320(4) 0.2528(4) 0.3012(3)
H10 H 0.4942 0.2505 0.3181
H11 H 0.5342 0.2893 0.2821
C8 C 0.6349(3) 0.2604(4) 0.3323(4)
H12 H 0.6500 0.2709 0.2991
C9 C 0.6269(3) 0.2396(3) 0.4161(3)
H13 H 0.6367 0.2336 0.4519
C10 C 0.5731(3) 0.2370(3) 0.3961(3)
H14 H 0.5394 0.2276 0.4146
C11 C 0.2462(4) 0.3612(3) 0.1735(3)
H15 H 0.2347 0.3457 0.2062
C12 C 0.2687(3) 0.3698(3) 0.0912(3)
H16 H 0.2754 0.3611 0.0553
C13 C 0.2708(3) 0.4236(3) 0.1123(3)
H17 H 0.2807 0.4575 0.0945
C14 C 0.2530(5) 0.4633(3) 0.2046(3)
H18 H 0.2143 0.4647 0.2197
H19 H 0.2606 0.5002 0.1876
C15 C 0.2957(4) 0.4544(4) 0.2487(3)
H20 H 0.3337 0.4472 0.2334
H21 H 0.2846 0.4207 0.2694
C16 C 0.2987(4) 0.5075(4) 0.2860(4)
H22 H 0.3278 0.5007 0.3133
H23 H 0.3109 0.5408 0.2652
C17 C 0.2418(4) 0.5212(3) 0.3129(3)
H24 H 0.2133 0.5314 0.2859
H25 H 0.2279 0.4871 0.3316
C18 C 0.2391(3) 0.6244(3) 0.3391(3)
H26 H 0.2264 0.6372 0.3058
C19 C 0.2668(3) 0.5676(4) 0.4037(3)
H27 H 0.2764 0.5347 0.4232
C20 C 0.2691(3) 0.6226(3) 0.4207(3)
H28 H 0.2809 0.6343 0.4547
N1 N 0.3374(2) 0.2408(3) 0.1241(2)
N2 N 0.4272(2) 0.2442(3) 0.1545(2)
N3 N 0.5777(3) 0.2510(3) 0.3429(3)
N4 N 0.6652(2) 0.2524(2) 0.3763(2)
N5 N 0.2554(2) 0.3303(2) 0.12932(19)
N6 N 0.2556(3) 0.4179(2) 0.1645(2)
N7 N 0.2476(3) 0.5696(3) 0.3518(2)
N8 N 0.2513(2) 0.6590(2) 0.3804(2)
O1 O 0.25194(19) 0.25499(19) 0.02897(14)
O2 O 0.4354(2) 0.2162(3) -0.0371(2)
O3 O 0.2042(3) 0.0632(2) -0.0506(2)
O4 O 0.3491(3) 0.1091(3) -0.2185(2)
O5 O 0.0567(2) 0.3046(3) -0.0387(2)
O6 O 0.0999(3) 0.1741(3) -0.2202(2)
O7 O 0.1430(2) 0.4365(2) -0.1986(2)
O8 O 0.24698(19) 0.2641(2) -0.27435(16)
O9 O 0.4249(2) 0.3744(3) -0.1957(2)
O10 O 0.2918(3) 0.4380(3) -0.0264(2)
O11 O 0.40872(19) 0.2912(2) -0.11940(19)
O12 O 0.3920(2) 0.1655(2) -0.1295(2)
O13 O 0.2798(2) 0.1034(2) -0.12867(19)
O14 O 0.3233(2) 0.2327(2) -0.0598(2)
O15 O 0.1551(2) 0.1253(2) -0.13365(19)
O16 O 0.2247(2) 0.1765(2) -0.05259(18)
O17 O 0.16802(19) 0.2763(2) -0.0493(2)
O18 O 0.1900(2) 0.2329(2) -0.1778(2)
O19 O 0.2668(2) 0.3296(2) -0.0600(2)
O20 O 0.2970(2) 0.2060(2) -0.1892(3)
O21 O 0.3231(2) 0.3166(2) -0.1985(2)
O22 O 0.3441(2) 0.4014(2) -0.1177(2)
O23 O 0.2189(2) 0.4283(2) -0.11372(18)
O24 O 0.2105(2) 0.3427(2) -0.1952(2)
O25 O 0.1149(2) 0.3550(2) -0.1224(2)
O26 O 0.08401(18) 0.2309(2) -0.12216(18)
Cu1E Cu 0.24862(3) 0.25522(3) -0.37808(3)
Cu1G Cu 0.24862(3) 0.74478(3) 0.37808(3)
Cu1F Cu 0.75138(3) 0.25522(3) 0.37808(3)
N4F N 0.1652(2) 0.2476(2) 0.1237(2)
N8G N 0.2487(2) 0.1590(2) 0.1196(2)
O8E O 0.25302(19) 0.2359(2) 0.22565(16)
Cu2 Cu 0.51606(5) 0.43129(5) -0.22739(4)
C21 C 0.5473(3) 0.3950(4) -0.1247(3)
H29 H 0.5310 0.3591 -0.1317
C22 C 0.5764(3) 0.4814(4) -0.1337(4)
H30 H 0.5838 0.5172 -0.1491
C23 C 0.5910(4) 0.4659(5) -0.0845(4)
H31 H 0.6101 0.4883 -0.0592
C24 C 0.5768(5) 0.3733(5) -0.0291(4)
H32 H 0.5767 0.3332 -0.0400
H33 H 0.6138 0.3810 -0.0120
C25 C 0.5304(4) 0.3819(5) 0.0110(4)
H34 H 0.5371 0.4184 0.0290
H35 H 0.5334 0.3516 0.0377
C26 C 0.5186(4) 0.4250(4) -0.3423(4)
H36 H 0.5581 0.4330 -0.3436
C27 C 0.4332(4) 0.4104(6) -0.3123(3)
H37 H 0.4021 0.4066 -0.2888
C28 C 0.4303(4) 0.4045(7) -0.3673(4)
H38 H 0.3981 0.3956 -0.3881
C29 C 0.5073(6) 0.4161(6) -0.4412(4)
H39 H 0.4911 0.4499 -0.4586
H40 H 0.5492 0.4195 -0.4423
C30 C 0.4906(8) 0.3665(5) -0.4703(4)
H41 H 0.4488 0.3630 -0.4687
H42 H 0.5070 0.3328 -0.4530
N9 N 0.5490(3) 0.4368(3) -0.1583(3)
N10 N 0.5723(3) 0.4101(4) -0.0781(3)
N11 N 0.4899(3) 0.4229(3) -0.2975(3)
N12 N 0.4884(3) 0.4152(4) -0.3850(3)
Cu2C Cu 0.48394(5) 0.43129(5) -0.77261(4)
Cu2C_2 Cu 0.48394(5) 0.43129(5) 0.22739(4)
C21C C 0.4527(3) 0.3950(4) 0.1247(3)
H29C H 0.4690 0.3591 0.1317
C22C C 0.4236(3) 0.4814(4) 0.1337(4)
H30C H 0.4162 0.5172 0.1491
C23C C 0.4090(4) 0.4659(5) 0.0845(4)
H31C H 0.3899 0.4883 0.0592
C24C C 0.4232(5) 0.3733(5) 0.0291(4)
H32C H 0.4233 0.3332 0.0400
H33C H 0.3862 0.3810 0.0120
C25C C 0.4696(4) 0.3819(5) -0.0110(4)
H34C H 0.4629 0.4184 -0.0290
H35C H 0.4666 0.3516 -0.0377
C26C C 0.4814(4) 0.4250(4) -0.6577(4)
H36C H 0.4419 0.4330 -0.6564
C27C C 0.5668(4) 0.4104(6) -0.6877(3)
H37C H 0.5979 0.4066 -0.7112
C28C C 0.5697(4) 0.4045(7) -0.6327(4)
H38C H 0.6019 0.3956 -0.6119
C29C C 0.4927(6) 0.4161(6) -0.5588(4)
H39C H 0.5089 0.4499 -0.5414
H40C H 0.4508 0.4195 -0.5577
C30C C 0.5094(8) 0.3665(5) -0.5297(4)
H41C H 0.5512 0.3630 -0.5313
H42C H 0.4930 0.3328 -0.5470
N9C N 0.4510(3) 0.4368(3) -0.8417(3)
N9C_2 N 0.4510(3) 0.4368(3) 0.1583(3)
N10C N 0.4277(3) 0.4101(4) 0.0781(3)
N11C N 0.5101(3) 0.4229(3) -0.7025(3)
N12C N 0.5116(3) 0.4152(4) -0.6150(3)
Cu3 Cu 0.06800(5) 0.51963(5) -0.22847(4)
C31 C 0.0719(4) 0.5202(5) -0.3435(3)
H43 H 0.0634 0.5594 -0.3455
C32 C 0.0878(5) 0.4370(4) -0.3124(4)
H44 H 0.0926 0.4064 -0.2886
C33 C 0.0934(6) 0.4338(5) -0.3661(4)
H45 H 0.1027 0.4013 -0.3862
C34 C 0.0834(6) 0.5080(6) -0.4418(4)
H46 H 0.0479 0.4957 -0.4591
H47 H 0.0842 0.5498 -0.4423
C35 C 0.1328(5) 0.4863(10) -0.4726(5)
H48 H 0.1302 0.4447 -0.4761
H49 H 0.1687 0.4955 -0.4542
C36 C 0.1061(4) 0.5475(4) -0.1251(4)
H50 H 0.1421 0.5309 -0.1320
C37 C 0.0172(4) 0.5776(4) -0.1332(4)
H51 H -0.0192 0.5846 -0.1479
C38 C 0.0336(5) 0.5928(4) -0.0841(5)
H52 H 0.0118 0.6125 -0.0586
C39 C 0.1285(5) 0.5754(5) -0.0308(4)
H53 H 0.1245 0.6131 -0.0143
H54 H 0.1685 0.5715 -0.0424
C40 C 0.1160(5) 0.5297(4) 0.0108(4)
H55 H 0.1449 0.5323 0.0390
H56 H 0.0785 0.5374 0.0268
N13 N 0.0826(4) 0.4880(4) -0.3848(3)
N14 N 0.0744(3) 0.4911(3) -0.2986(3)
N15 N 0.0624(3) 0.5497(3) -0.1593(3)
N16 N 0.0904(3) 0.5730(3) -0.0787(3)
Cu3B Cu 0.06800(5) 0.48037(5) -0.77153(4)
Cu3B_2 Cu 0.06800(5) 0.48037(5) 0.22847(4)
C31B C 0.0719(4) 0.4798(5) -0.6565(3)
H43B H 0.0634 0.4406 -0.6545
C32B C 0.0878(5) 0.5630(4) -0.6876(4)
H44B H 0.0926 0.5936 -0.7114
C33B C 0.0934(6) 0.5662(5) -0.6339(4)
H45B H 0.1027 0.5987 -0.6138
C34B C 0.0834(6) 0.4920(6) -0.5582(4)
H46B H 0.0479 0.5043 -0.5409
H47B H 0.0842 0.4502 -0.5577
C35B C 0.1328(5) 0.5137(10) -0.5274(5)
H48B H 0.1302 0.5553 -0.5239
H49B H 0.1687 0.5045 -0.5458
C36B C 0.1061(4) 0.4525(4) 0.1251(4)
H50B H 0.1421 0.4691 0.1320
C37B C 0.0172(4) 0.4224(4) 0.1332(4)
H51B H -0.0192 0.4154 0.1479
C38B C 0.0336(5) 0.4072(4) 0.0841(5)
H52B H 0.0118 0.3875 0.0586
C39B C 0.1285(5) 0.4246(5) 0.0308(4)
H53B H 0.1245 0.3869 0.0143
H54B H 0.1685 0.4285 0.0424
C40B C 0.1160(5) 0.4703(4) -0.0108(4)
H55B H 0.1449 0.4677 -0.0390
H56B H 0.0785 0.4626 -0.0268
N13B N 0.0826(4) 0.5120(4) -0.6152(3)
N14B N 0.0744(3) 0.5089(3) -0.7014(3)
N15B N 0.0624(3) 0.4503(3) 0.1593(3)
N15B_2 N 0.0624(3) 0.4503(3) -0.8407(3)
N16B N 0.0904(3) 0.4270(3) 0.0787(3)
O27 O 0.1134(4) 1.0000 0.0000
O28 O 0.5000 0.1185(5) 0.0000
loop_
_geom_bond_atom_site_label_1
_geom_bond_atom_site_label_2
_geom_bond_site_symmetry_1
_geom_bond_site_symmetry_2
V1 O1 1_555 1_555
V2 O10 1_555 1_555
V3 O5 1_555 1_555
V4 O3 1_555 1_555
V5 O4 1_555 1_555
V6 O2 1_555 1_555
V7 O9 1_555 1_555
V8 O8 1_555 1_555
V9 O7 1_555 1_555
V10 O6 1_555 1_555
Cu1 N1 1_555 1_555
Cu2 N9 1_555 1_555
Cu3 N14 1_555 1_555
C1 H1 1_555 1_555
C2 H2 1_555 1_555
C3 C2 1_555 1_555
H3 C3 1_555 1_555
C4 H4 1_555 1_555
H5 C4 1_555 1_555
C5 C4 1_555 1_555
H6 C5 1_555 1_555
H7 C5 1_555 1_555
C6 C5 1_555 1_555
H8 C6 1_555 1_555
H9 C6 1_555 1_555
C7 C6 1_555 1_555
H10 C7 1_555 1_555
H11 C7 1_555 1_555
C8 H12 1_555 1_555
C9 H13 1_555 1_555
C10 C9 1_555 1_555
H14 C10 1_555 1_555
C11 H15 1_555 1_555
C12 H16 1_555 1_555
C13 C12 1_555 1_555
H17 C13 1_555 1_555
C14 H18 1_555 1_555
H19 C14 1_555 1_555
C15 C14 1_555 1_555
H20 C15 1_555 1_555
H21 C15 1_555 1_555
C16 C15 1_555 1_555
H22 C16 1_555 1_555
H23 C16 1_555 1_555
C17 C16 1_555 1_555
H24 C17 1_555 1_555
H25 C17 1_555 1_555
C18 H26 1_555 1_555
C19 H27 1_555 1_555
C20 C19 1_555 1_555
H28 C20 1_555 1_555
C21 H29 1_555 1_555
C22 H30 1_555 1_555
C23 C22 1_555 1_555
H31 C23 1_555 1_555
C24 H32 1_555 1_555
H33 C24 1_555 1_555
C25 C24 1_555 1_555
H34 C25 1_555 1_555
H35 C25 1_555 1_555
C26 H36 1_555 1_555
C27 H37 1_555 1_555
C28 C27 1_555 1_555
H38 C28 1_555 1_555
C29 H39 1_555 1_555
H40 C29 1_555 1_555
C30 C29 1_555 1_555
H41 C30 1_555 1_555
H42 C30 1_555 1_555
C31 H43 1_555 1_555
C32 H44 1_555 1_555
C33 C32 1_555 1_555
H45 C33 1_555 1_555
C34 H46 1_555 1_555
H47 C34 1_555 1_555
C35 C34 1_555 1_555
H48 C35 1_555 1_555
H49 C35 1_555 1_555
C36 H50 1_555 1_555
C37 H51 1_555 1_555
C38 C37 1_555 1_555
H52 C38 1_555 1_555
C39 H53 1_555 1_555
H54 C39 1_555 1_555
C40 C39 1_555 1_555
H55 C40 1_555 1_555
H56 C40 1_555 1_555
N1 C1 1_555 1_555
N2 C1 1_555 1_555
N3 C7 1_555 1_555
N4 C8 1_555 1_555
N5 Cu1 1_555 1_555
N6 C11 1_555 1_555
N7 C17 1_555 1_555
N8 C18 1_555 1_555
N9 C21 1_555 1_555
N10 C21 1_555 1_555
N11 Cu2 1_555 1_555
N12 C26 1_555 1_555
N13 C31 1_555 1_555
N14 C31 1_555 1_555
N15 Cu3 1_555 1_555
N16 C36 1_555 1_555
O1 Cu1 1_555 1_555
O8 Cu1E 1_555 1_555
O11 V6 1_555 1_555
O12 V5 1_555 1_555
O13 V4 1_555 1_555
O14 V1 1_555 1_555
O15 V4 1_555 1_555
O16 V1 1_555 1_555
O17 V1 1_555 1_555
O18 V8 1_555 1_555
O19 V1 1_555 1_555
O20 V5 1_555 1_555
O21 V7 1_555 1_555
O22 V2 1_555 1_555
O23 V2 1_555 1_555
O24 V8 1_555 1_555
O25 V3 1_555 1_555
O26 V3 1_555 1_555
Cu1G N8 1_555 1_555
Cu1F N4 1_555 1_555
Cu2C N9C 1_555 1_555
Cu2C_2 N9C_2 1_555 1_555
Cu3B N14B 1_555 1_555
Cu3B_2 N15B 1_555 1_555
C21C H29C 1_555 1_555
C22C H30C 1_555 1_555
C23C C22C 1_555 1_555
H31C C23C 1_555 1_555
C24C H32C 1_555 1_555
H33C C24C 1_555 1_555
C25C C25 1_555 1_555
H34C C25C 1_555 1_555
H35C C25C 1_555 1_555
C26C H36C 1_555 1_555
C27C H37C 1_555 1_555
C28C C27C 1_555 1_555
H38C C28C 1_555 1_555
C29C H39C 1_555 1_555
H40C C29C 1_555 1_555
C30C C30 1_555 1_555
H41C C30C 1_555 1_555
H42C C30C 1_555 1_555
C31B H43B 1_555 1_555
C32B H44B 1_555 1_555
C33B C32B 1_555 1_555
H45B C33B 1_555 1_555
C34B H46B 1_555 1_555
H47B C34B 1_555 1_555
C35B C35 1_555 1_555
H48B C35B 1_555 1_555
H49B C35B 1_555 1_555
C36B H50B 1_555 1_555
C37B H51B 1_555 1_555
C38B C37B 1_555 1_555
H52B C38B 1_555 1_555
C39B H53B 1_555 1_555
H54B C39B 1_555 1_555
C40B C40 1_555 1_555
H55B C40B 1_555 1_555
H56B C40B 1_555 1_555
N4F Cu1 1_555 1_555
N8G Cu1 1_555 1_555
N9C_2 C21C 1_555 1_555
N10C C21C 1_555 1_555
N11C Cu2C 1_555 1_555
N12C C26C 1_555 1_555
N13B C31B 1_555 1_555
N14B C31B 1_555 1_555
N15B C36B 1_555 1_555
N15B_2 Cu3B 1_555 1_555
N16B C36B 1_555 1_555
O8E Cu1 1_555 1_555
V2 O19 1_555 1_555
V3 O17 1_555 1_555
V4 O16 1_555 1_555
V5 O13 1_555 1_555
V6 O12 1_555 1_555
V6 O14 1_555 1_555
V7 O11 1_555 1_555
V7 O22 1_555 1_555
V8 O20 1_555 1_555
V8 O21 1_555 1_555
V9 O23 1_555 1_555
V9 O24 1_555 1_555
V9 O25 1_555 1_555
V10 O15 1_555 1_555
V10 O18 1_555 1_555
V10 O26 1_555 1_555
C2 N1 1_555 1_555
C3 N2 1_555 1_555
C4 N2 1_555 1_555
C8 N3 1_555 1_555
C9 N4 1_555 1_555
C10 N3 1_555 1_555
C11 N5 1_555 1_555
C12 N5 1_555 1_555
C13 N6 1_555 1_555
C14 N6 1_555 1_555
C18 N7 1_555 1_555
C19 N7 1_555 1_555
C20 N8 1_555 1_555
C22 N9 1_555 1_555
C23 N10 1_555 1_555
C24 N10 1_555 1_555
C26 N11 1_555 1_555
C27 N11 1_555 1_555
C28 N12 1_555 1_555
C29 N12 1_555 1_555
C32 N14 1_555 1_555
C33 N13 1_555 1_555
C34 N13 1_555 1_555
C36 N15 1_555 1_555
C37 N15 1_555 1_555
C38 N16 1_555 1_555
C39 N16 1_555 1_555
C22C N9C_2 1_555 1_555
C23C N10C 1_555 1_555
C24C C25C 1_555 1_555
C24C N10C 1_555 1_555
C26C N11C 1_555 1_555
C27C N11C 1_555 1_555
C28C N12C 1_555 1_555
C29C C30C 1_555 1_555
C29C N12C 1_555 1_555
C32B N14B 1_555 1_555
C33B N13B 1_555 1_555
C34B C35B 1_555 1_555
C34B N13B 1_555 1_555
C37B N15B 1_555 1_555
C38B N16B 1_555 1_555
C39B C40B 1_555 1_555
C39B N16B 1_555 1_555

#END
