
#######################################################################
#
#                 Cambridge Crystallographic Data Centre
#                                CCDC 
#
#######################################################################
#
# If this CIF has been generated from an entry in the Cambridge 
# Structural Database, then it will include bibliographic, chemical, 
# crystal, experimental, refinement or atomic coordinate data resulting 
# from the CCDC's data processing and validation procedures.
#
#######################################################################

data_HIYPIO01
_symmetry_cell_setting           monoclinic
_symmetry_space_group_name_H-M   'P 21/c'
_symmetry_Int_Tables_number      14
_space_group_name_Hall           '-P 2ybc'
loop_
_symmetry_equiv_pos_site_id
_symmetry_equiv_pos_as_xyz
1 x,y,z
2 x,1/2-y,1/2+z
3 -x,-y,-z
4 -x,1/2+y,1/2-z
_cell_length_a                   7.3876(2)
_cell_length_b                   16.7331(4)
_cell_length_c                   9.6100(2)
_cell_angle_alpha                90
_cell_angle_beta                 109.7609(5)
_cell_angle_gamma                90
_cell_volume                     1118.01
loop_
_atom_site_label
_atom_site_type_symbol
_atom_site_fract_x
_atom_site_fract_y
_atom_site_fract_z
Cd1 Cd 0.0000 -0.5000 0.5000
N1 N 0.14786(19) -0.37725(8) 0.49782(15)
N2 N 0.76836(19) -0.04357(8) 0.77568(15)
N3 N 0.1981(2) -0.59090(9) 0.28895(16)
O1 O 0.23246(18) -0.56443(8) 0.42072(14)
O2 O 0.0902(2) -0.55365(9) 0.18239(16)
O3 O 0.2755(2) -0.65351(9) 0.27283(16)
C1 C 0.0587(3) -0.30865(12) 0.5074(2)
H1 H -0.053(3) -0.3137(12) 0.533(2)
C2 C 0.1189(3) -0.23519(11) 0.4754(2)
H2 H 0.052(3) -0.1909(14) 0.478(2)
C3 C 0.2787(2) -0.23015(10) 0.43059(17)
C4 C 0.3727(3) -0.30033(11) 0.4233(2)
H3 H 0.484(3) -0.2997(13) 0.394(2)
C5 C 0.3043(2) -0.37193(11) 0.4572(2)
H4 H 0.367(3) -0.4197(13) 0.450(2)
C6 C 0.3473(3) -0.15044(11) 0.39355(19)
H5 H 0.243(3) -0.1155(14) 0.358(2)
H6 H 0.407(3) -0.1571(12) 0.317(2)
C7 C 0.4935(2) -0.11308(10) 0.52846(18)
C8 C 0.6889(2) -0.12499(11) 0.5588(2)
H7 H 0.732(3) -0.1564(14) 0.499(2)
C9 C 0.8195(3) -0.08940(11) 0.68079(19)
H8 H 0.049(3) -0.5968(12) 0.800(2)
C10 C 0.4211(2) -0.53222(11) 0.75407(19)
H9 H 0.454(4) -0.4959(10) 0.689(3)
C11 C 0.4391(2) -0.06510(10) 0.62537(19)
H10 H 0.314(3) -0.0535(12) 0.611(2)
N2A N -0.23164(19) -0.45643(8) 0.27568(15)
Cd1A Cd 1.0000 0.0000 1.0000
Cd1A_2 Cd 1.0000 -1.0000 1.0000
N1C N 0.85214(19) -0.87725(8) 1.00218(15)
C1C C 0.9413(3) -0.80865(12) 0.9926(2)
H1C H 1.053(3) -0.8137(12) 0.967(2)
C2C C 0.8811(3) -0.73519(11) 1.0246(2)
H2C H 0.948(3) -0.6909(14) 1.022(2)
C3C C 0.7213(2) -0.73015(10) 1.06941(17)
C4C C 0.6273(3) -0.80033(11) 1.0767(2)
H3C H 0.516(3) -0.7997(13) 1.106(2)
C5C C 0.6957(2) -0.87193(11) 1.0428(2)
H4C H 0.633(3) -0.9197(13) 1.050(2)
C6C C 0.6527(3) -0.65044(11) 1.10645(19)
H5C H 0.757(3) -0.6155(14) 1.142(2)
H6C H 0.593(3) -0.6571(12) 1.183(2)
C7C C 0.5065(2) -0.61308(10) 0.97154(18)
C8C C 0.3111(2) -0.62499(11) 0.9412(2)
H7C H 0.268(3) -0.6564(14) 1.001(2)
C9C C 0.1805(3) -0.58940(11) 0.81921(19)
N2C N 0.23164(19) -0.54357(8) 0.72432(15)
N1B N -0.14786(19) -0.62275(8) 0.50218(15)
O1B O -0.23246(18) -0.43557(8) 0.57928(14)
N3B N -0.1981(2) -0.40910(9) 0.71105(16)
O2B O -0.0902(2) -0.44635(9) 0.81761(16)
O3B O -0.2755(2) -0.34649(9) 0.72717(16)
C11C C 0.5609(2) -0.56510(10) 0.87463(19)
H10C H 0.686(3) -0.5535(12) 0.889(2)
C10C C 0.5789(2) -0.03222(11) 0.74593(19)
H9C H 0.546(4) 0.0041(10) 0.811(3)
H8C H 0.951(3) -0.0968(12) 0.700(2)
loop_
_geom_bond_atom_site_label_1
_geom_bond_atom_site_label_2
_geom_bond_site_symmetry_1
_geom_bond_site_symmetry_2
Cd1 N1 1_555 1_555
N1 C1 1_555 1_555
N2 C9 1_555 1_555
N3 O1 1_555 1_555
O1 Cd1 1_555 1_555
O2 N3 1_555 1_555
O3 N3 1_555 1_555
C1 H1 1_555 1_555
C2 C1 1_555 1_555
H2 C2 1_555 1_555
C3 C2 1_555 1_555
C4 C3 1_555 1_555
H3 C4 1_555 1_555
C5 N1 1_555 1_555
H4 C5 1_555 1_555
C6 C3 1_555 1_555
H5 C6 1_555 1_555
H6 C6 1_555 1_555
C7 C6 1_555 1_555
C8 C7 1_555 1_555
H7 C8 1_555 1_555
C9 C8 1_555 1_555
H8 C9C 1_555 1_555
C10 H9 1_555 1_555
C11 C7 1_555 1_555
H10 C11 1_555 1_555
N2A Cd1 1_555 1_555
Cd1A N2 1_555 1_555
Cd1A_2 N1C 1_555 1_555
N1C C1C 1_555 1_555
C1C H1C 1_555 1_555
C2C C1C 1_555 1_555
H2C C2C 1_555 1_555
C3C C2C 1_555 1_555
C4C C3C 1_555 1_555
H3C C4C 1_555 1_555
C5C N1C 1_555 1_555
H4C C5C 1_555 1_555
C6C C3C 1_555 1_555
H5C C6C 1_555 1_555
H6C C6C 1_555 1_555
C7C C6C 1_555 1_555
C8C C7C 1_555 1_555
H7C C8C 1_555 1_555
C9C C8C 1_555 1_555
N2C Cd1 1_555 1_555
N1B Cd1 1_555 1_555
O1B Cd1 1_555 1_555
N3B O1B 1_555 1_555
O2B N3B 1_555 1_555
O3B N3B 1_555 1_555
C11C C10 1_555 1_555
H10C C11C 1_555 1_555
C10C N2 1_555 1_555
H9C C10C 1_555 1_555
H8C C9 1_555 1_555
C4 C5 1_555 1_555
C10 N2C 1_555 1_555
C11 C10C 1_555 1_555
C4C C5C 1_555 1_555
C7C C11C 1_555 1_555
C9C N2C 1_555 1_555

#END
