
#######################################################################
#
#                 Cambridge Crystallographic Data Centre
#                                CCDC 
#
#######################################################################
#
# If this CIF has been generated from an entry in the Cambridge 
# Structural Database, then it will include bibliographic, chemical, 
# crystal, experimental, refinement or atomic coordinate data resulting 
# from the CCDC's data processing and validation procedures.
#
#######################################################################

data_HIYPOU
_symmetry_cell_setting           orthorhombic
_symmetry_space_group_name_H-M   'P c a n'
_symmetry_Int_Tables_number      60
_space_group_name_Hall           '-P 2n 2c'
loop_
_symmetry_equiv_pos_site_id
_symmetry_equiv_pos_as_xyz
1 x,y,z
2 1/2-x,1/2-y,1/2+z
3 x,-y,1/2-z
4 1/2-x,1/2+y,-z
5 -x,-y,-z
6 1/2+x,1/2+y,1/2-z
7 -x,y,1/2+z
8 1/2+x,1/2-y,z
_cell_length_a                   10.766(5)
_cell_length_b                   13.631(3)
_cell_length_c                   17.085(7)
_cell_angle_alpha                90
_cell_angle_beta                 90
_cell_angle_gamma                90
_cell_volume                     2507.25
loop_
_atom_site_label
_atom_site_type_symbol
_atom_site_fract_x
_atom_site_fract_y
_atom_site_fract_z
Cd1 Cd -0.12097(2) 0.00000 0.25000
N1 N -0.2801(2) 0.0305(2) 0.1561(1)
C1 C -0.2848(2) 0.1164(2) 0.1177(2)
C2 C -0.3910(2) 0.1520(3) 0.0816(2)
C3 C -0.5012(2) 0.0986(2) 0.0862(1)
C4 C -0.4965(3) 0.0077(2) 0.1245(2)
C5 C -0.3844(3) -0.0233(2) 0.1571(2)
N2 N -0.9582(2) 0.0706(2) 0.1755(2)
C6 C -0.9477(3) 0.0577(3) 0.0977(2)
C7 C -0.8412(3) 0.0780(3) 0.0551(2)
C8 C -0.7362(2) 0.1123(2) 0.0952(1)
C9 C -0.7471(2) -0.1280(2) 0.3245(2)
C10 C -0.8590(2) -0.1077(3) 0.2869(2)
C11 C -0.6190(2) 0.1366(2) 0.0524(2)
C12 C -0.6215(2) 0.1922(3) -0.0121(2)
N3 N -0.1219(2) -0.2010(2) 0.1660(2)
O1 O -0.1766(3) -0.1723(2) 0.2268(2)
O2 O -0.0569(3) -0.1400(3) 0.1316(2)
O3 O -0.1346(4) -0.2854(3) 0.1424(3)
H1 H -0.379(3) -0.086(3) 0.178(2)
H2 H -0.573(4) -0.032(3) 0.129(2)
H3 H -0.388(3) 0.212(4) 0.061(3)
H4 H -0.208(4) 0.155(3) 0.120(2)
N2_2 N 0.0418(2) 0.0706(2) 0.1755(2)
Cd1_2 Cd -1.12097(2) 0.00000 0.25000
N2B N -0.9582(2) -0.0706(2) 0.3245(2)
C6B C -0.9477(3) -0.0577(3) 0.4023(2)
C7B C -0.8412(3) -0.0780(3) 0.4449(2)
C8B C -0.7362(2) -0.1123(2) 0.4048(1)
C10B C -0.8590(2) 0.1077(3) 0.2131(2)
C9B C -0.7471(2) 0.1280(2) 0.1755(2)
N1B N -0.2801(2) -0.0305(2) 0.3439(1)
C1B C -0.2848(2) -0.1164(2) 0.3823(2)
C2B C -0.3910(2) -0.1520(3) 0.4184(2)
C3B C -0.5012(2) -0.0986(2) 0.4138(1)
C4B C -0.4965(3) -0.0077(2) 0.3755(2)
C5B C -0.3844(3) 0.0233(2) 0.3429(2)
H1B H -0.379(3) 0.086(3) 0.322(2)
H2B H -0.573(4) 0.032(3) 0.371(2)
C11B C -0.6190(2) -0.1366(2) 0.4476(2)
C12B C -0.6215(2) -0.1922(3) 0.5121(2)
H3B H -0.388(3) -0.212(4) 0.439(3)
H4B H -0.208(4) -0.155(3) 0.380(2)
N2B_2 N 0.0418(2) -0.0706(2) 0.3245(2)
O1B O -0.1766(3) 0.1723(2) 0.2732(2)
N3B N -0.1219(2) 0.2010(2) 0.3340(2)
O2B O -0.0569(3) 0.1400(3) 0.3684(2)
O3B O -0.1346(4) 0.2854(3) 0.3576(3)
loop_
_geom_bond_atom_site_label_1
_geom_bond_atom_site_label_2
_geom_bond_site_symmetry_1
_geom_bond_site_symmetry_2
Cd1 N1 1_555 1_555
N1 C1 1_555 1_555
C1 C2 1_555 1_555
C2 C3 1_555 1_555
C3 C4 1_555 1_555
C4 C5 1_555 1_555
C5 N1 1_555 1_555
N2 C6 1_555 1_555
C6 C7 1_555 1_555
C7 C8 1_555 1_555
C8 C11 1_555 1_555
C9 C10 1_555 1_555
C10 N2B 1_555 1_555
C11 C3 1_555 1_555
C12 C11 1_555 1_555
N3 O1 1_555 1_555
O1 Cd1 1_555 1_555
O2 N3 1_555 1_555
O3 N3 1_555 1_555
H1 C5 1_555 1_555
H2 C4 1_555 1_555
H3 C2 1_555 1_555
H4 C1 1_555 1_555
N2_2 Cd1 1_555 1_555
Cd1_2 N2 1_555 1_555
N2B Cd1_2 1_555 1_555
C6B N2B 1_555 1_555
C7B C6B 1_555 1_555
C8B C9 1_555 1_555
C10B N2 1_555 1_555
C9B C8 1_555 1_555
N1B Cd1 1_555 1_555
C1B N1B 1_555 1_555
C2B C1B 1_555 1_555
C3B C2B 1_555 1_555
C4B C3B 1_555 1_555
C5B N1B 1_555 1_555
H1B C5B 1_555 1_555
H2B C4B 1_555 1_555
C11B C8B 1_555 1_555
C12B C11B 1_555 1_555
H3B C2B 1_555 1_555
H4B C1B 1_555 1_555
N2B_2 Cd1 1_555 1_555
O1B Cd1 1_555 1_555
N3B O1B 1_555 1_555
O2B N3B 1_555 1_555
O3B N3B 1_555 1_555
C7B C8B 1_555 1_555
C10B C9B 1_555 1_555
C3B C11B 1_555 1_555
C4B C5B 1_555 1_555

#END
