
#######################################################################
#
#                 Cambridge Crystallographic Data Centre
#                                CCDC 
#
#######################################################################
#
# If this CIF has been generated from an entry in the Cambridge 
# Structural Database, then it will include bibliographic, chemical, 
# crystal, experimental, refinement or atomic coordinate data resulting 
# from the CCDC's data processing and validation procedures.
#
#######################################################################

data_HIYPAH
_symmetry_cell_setting           monoclinic
_symmetry_space_group_name_H-M   'P 21/n'
_symmetry_Int_Tables_number      14
_space_group_name_Hall           '-P 2yn'
loop_
_symmetry_equiv_pos_site_id
_symmetry_equiv_pos_as_xyz
1 x,y,z
2 1/2-x,1/2+y,1/2-z
3 -x,-y,-z
4 1/2+x,1/2-y,1/2+z
_cell_length_a                   8.6507(7)
_cell_length_b                   10.7900(10)
_cell_length_c                   13.6134(12)
_cell_angle_alpha                90
_cell_angle_beta                 103.744(7)
_cell_angle_gamma                90
_cell_volume                     1234.31
loop_
_atom_site_label
_atom_site_type_symbol
_atom_site_fract_x
_atom_site_fract_y
_atom_site_fract_z
Br1 Br 0.23346(3) 0.07139(2) 0.092402(18)
Sn1 Sn 0.412151(18) 0.247943(13) 0.187814(11)
N1 N 0.0249(3) 0.2437(2) 0.45782(18)
N2 N 0.1031(3) 0.5625(2) -0.11839(17)
N3 N 0.5925(2) 0.42401(18) 0.28465(14)
C1 C 0.3210(3) 0.2380(2) 0.32224(18)
H1 H 0.357(3) 0.171(2) 0.3562(19)
H2 H 0.363(3) 0.304(2) 0.3624(18)
C2 C 0.1400(3) 0.2431(2) 0.2960(2)
H3 H 0.102(4) 0.325(3) 0.260(2)
H4 H 0.093(4) 0.165(3) 0.260(3)
C3 C 0.0749(3) 0.2428(2) 0.3874(2)
C4 C 0.3235(3) 0.4029(2) 0.09359(17)
H5 H 0.255(3) 0.4375(19) 0.1057(16)
H6 H 0.419(4) 0.444(3) 0.077(2)
C5 C 0.1956(3) 0.3696(2) -0.00159(18)
H7 H 0.231(4) 0.310(3) -0.043(2)
H8 H 0.102(3) 0.330(2) 0.0153(19)
C6 C 0.1436(3) 0.4785(2) -0.06739(18)
C7 C 0.8542(3) 0.6724(2) 0.30299(18)
H9 H 0.802(4) 0.732(2) 0.330(2)
H10 H 0.812(3) 0.668(3) 0.235(2)
C8 C 0.8561(3) 0.5451(2) 0.35325(19)
H11 H 0.941(4) 0.493(3) 0.346(2)
H12 H 0.870(4) 0.556(3) 0.421(2)
C9 C 0.7066(3) 0.4777(2) 0.31702(18)
Sn1A Sn 1.087849(18) 0.747943(13) 0.312186(11)
C7A C 0.6458(3) 0.1724(2) 0.19701(18)
H9A H 0.698(4) 0.232(2) 0.170(2)
H10A H 0.688(3) 0.168(3) 0.265(2)
loop_
_geom_bond_atom_site_label_1
_geom_bond_atom_site_label_2
_geom_bond_site_symmetry_1
_geom_bond_site_symmetry_2
Br1 Sn1 1_555 1_555
Sn1 N3 1_555 1_555
N1 C3 1_555 1_555
N2 C6 1_555 1_555
N3 C9 1_555 1_555
C1 Sn1 1_555 1_555
H1 C1 1_555 1_555
H2 C1 1_555 1_555
C2 C1 1_555 1_555
H3 C2 1_555 1_555
H4 C2 1_555 1_555
C3 C2 1_555 1_555
C4 Sn1 1_555 1_555
H5 C4 1_555 1_555
H6 C4 1_555 1_555
C5 C4 1_555 1_555
H7 C5 1_555 1_555
H8 C5 1_555 1_555
C6 C5 1_555 1_555
C7 H9 1_555 1_555
H10 C7 1_555 1_555
C8 C7 1_555 1_555
H11 C8 1_555 1_555
H12 C8 1_555 1_555
C9 C8 1_555 1_555
Sn1A C7 1_555 1_555
C7A Sn1 1_555 1_555
H9A C7A 1_555 1_555
H10A C7A 1_555 1_555

#END
