
#######################################################################
#
#                 Cambridge Crystallographic Data Centre
#                                CCDC 
#
#######################################################################
#
# If this CIF has been generated from an entry in the Cambridge 
# Structural Database, then it will include bibliographic, chemical, 
# crystal, experimental, refinement or atomic coordinate data resulting 
# from the CCDC's data processing and validation procedures.
#
#######################################################################

data_HIYPIO
_symmetry_cell_setting           monoclinic
_symmetry_space_group_name_H-M   'P 21/c'
_symmetry_Int_Tables_number      14
_space_group_name_Hall           '-P 2ybc'
loop_
_symmetry_equiv_pos_site_id
_symmetry_equiv_pos_as_xyz
1 x,y,z
2 -x,1/2+y,1/2-z
3 -x,-y,-z
4 x,1/2-y,1/2+z
_cell_length_a                   7.4142(7)
_cell_length_b                   16.770(2)
_cell_length_c                   9.669(3)
_cell_angle_alpha                90
_cell_angle_beta                 109.72(1)
_cell_angle_gamma                90
_cell_volume                     1131.7
loop_
_atom_site_label
_atom_site_type_symbol
_atom_site_fract_x
_atom_site_fract_y
_atom_site_fract_z
Cd1 Cd 0.0000 0.0000 0.0000
O1 O -0.2326(5) 0.0642(2) 0.0801(4)
O2 O -0.2744(7) 0.1527(3) 0.2275(5)
O3 O -0.0898(6) 0.0535(3) 0.3179(5)
N1 N 0.2313(6) -0.0440(3) 0.2240(4)
N2 N 0.8520(6) -0.3773(3) 0.5013(5)
N3 N -0.1978(6) 0.0906(3) 0.2106(5)
C1 C 0.3112(7) -0.1253(3) 0.4398(6)
C2 C 0.1805(7) -0.0899(3) 0.3183(6)
C3 C 0.4194(7) -0.0324(3) 0.2544(6)
C4 C 0.5585(6) -0.0653(3) 0.3744(5)
C5 C 0.5059(6) -0.1132(3) 0.4697(5)
C6 C 0.6524(7) -0.1501(3) 0.6051(6)
C7 C 0.7206(7) -0.2300(3) 0.5687(5)
C8 C 0.8800(8) -0.2353(3) 0.5236(6)
C9 C 0.9406(8) -0.3088(3) 0.4922(6)
C10 C -0.3047(7) -0.1281(3) 0.0434(6)
C11 C 0.6276(7) -0.3007(3) 0.5763(6)
H1 H 0.2682 -0.1578 0.5029
H2 H 0.0480 -0.0985 0.3005
H3 H 0.4593 0.0004 0.1899
H4 H 0.6901 -0.0550 0.3909
H5 H 0.9467 -0.1884 0.5143
H6 H 0.0506 -0.1890 -0.0371
H7 H -0.3705 -0.0805 0.0504
H8 H 0.5165 -0.3000 0.6043
H9 H 0.7590 -0.1152 0.6409
H10 H 0.5952 -0.1574 0.6786
O1B O 0.2326(5) -0.0642(2) -0.0801(4)
N3B N 0.1978(6) -0.0906(3) -0.2106(5)
O2B O 0.2744(7) -0.1527(3) -0.2275(5)
O3B O 0.0898(6) -0.0535(3) -0.3179(5)
N2A N 0.1480(6) 0.1227(3) -0.0013(5)
Cd1A Cd 1.0000 -0.5000 0.5000
Cd1C Cd -1.0000 -0.5000 -0.5000
N1C N -0.7687(6) -0.4560(3) -0.2760(4)
C2C C -0.8195(7) -0.4101(3) -0.1817(6)
C1C C -0.6888(7) -0.3747(3) -0.0602(6)
C5C C -0.4941(6) -0.3868(3) -0.0303(5)
C4C C -0.4415(6) -0.4347(3) -0.1256(5)
C3C C -0.5806(7) -0.4676(3) -0.2456(6)
H3C H -0.5407 -0.5004 -0.3101
H4C H -0.3099 -0.4450 -0.1091
C6C C -0.3476(7) -0.3499(3) 0.1051(6)
C7C C -0.2794(7) -0.2700(3) 0.0687(5)
C8C C -0.1200(8) -0.2647(3) 0.0236(6)
C9C C -0.0594(8) -0.1912(3) -0.0078(6)
N2C N -0.1480(6) -0.1227(3) 0.0013(5)
N1B N -0.2313(6) 0.0440(3) -0.2240(4)
C11C C -0.3724(7) -0.1993(3) 0.0763(6)
H8C H -0.4835 -0.2000 0.1043
H5C H -0.0533 -0.3116 0.0143
H9C H -0.2410 -0.3848 0.1409
H10C H -0.4048 -0.3426 0.1786
H1C H -0.7318 -0.3422 0.0029
H2C H -0.9520 -0.4015 -0.1995
C10C C 0.6953(7) -0.3719(3) 0.5434(6)
H6C H 1.0506 -0.3110 0.4629
H7C H 0.6295 -0.4195 0.5504
loop_
_geom_bond_atom_site_label_1
_geom_bond_atom_site_label_2
_geom_bond_site_symmetry_1
_geom_bond_site_symmetry_2
Cd1 O1 1_555 1_555
O1 N3 1_555 1_555
O2 N3 1_555 1_555
O3 N3 1_555 1_555
N1 Cd1 1_555 1_555
N2 C9 1_555 1_555
C1 C2 1_555 1_555
C2 N1 1_555 1_555
C3 N1 1_555 1_555
C4 C3 1_555 1_555
C5 C1 1_555 1_555
C6 C5 1_555 1_555
C7 C6 1_555 1_555
C8 C7 1_555 1_555
C9 C8 1_555 1_555
C10 H7 1_555 1_555
C11 C7 1_555 1_555
H1 C1 1_555 1_555
H2 C2 1_555 1_555
H3 C3 1_555 1_555
H4 C4 1_555 1_555
H5 C8 1_555 1_555
H6 C9C 1_555 1_555
H8 C11 1_555 1_555
H9 C6 1_555 1_555
H10 C6 1_555 1_555
O1B Cd1 1_555 1_555
N3B O1B 1_555 1_555
O2B N3B 1_555 1_555
O3B N3B 1_555 1_555
N2A Cd1 1_555 1_555
Cd1A N2 1_555 1_555
Cd1C N1C 1_555 1_555
N1C C2C 1_555 1_555
C2C C1C 1_555 1_555
C1C C5C 1_555 1_555
C5C C4C 1_555 1_555
C4C C3C 1_555 1_555
C3C N1C 1_555 1_555
H3C C3C 1_555 1_555
H4C C4C 1_555 1_555
C6C C5C 1_555 1_555
C7C C6C 1_555 1_555
C8C C7C 1_555 1_555
C9C C8C 1_555 1_555
N2C Cd1 1_555 1_555
N1B Cd1 1_555 1_555
C11C C10 1_555 1_555
H8C C11C 1_555 1_555
H5C C8C 1_555 1_555
H9C C6C 1_555 1_555
H10C C6C 1_555 1_555
H1C C1C 1_555 1_555
H2C C2C 1_555 1_555
C10C N2 1_555 1_555
H6C C9 1_555 1_555
H7C C10C 1_555 1_555
C4 C5 1_555 1_555
C10 N2C 1_555 1_555
C11 C10C 1_555 1_555
C7C C11C 1_555 1_555
C9C N2C 1_555 1_555

#END
