
#######################################################################
#
#                 Cambridge Crystallographic Data Centre
#                                CCDC 
#
#######################################################################
#
# If this CIF has been generated from an entry in the Cambridge 
# Structural Database, then it will include bibliographic, chemical, 
# crystal, experimental, refinement or atomic coordinate data resulting 
# from the CCDC's data processing and validation procedures.
#
#######################################################################

data_HIYQUD
_symmetry_cell_setting           triclinic
_symmetry_space_group_name_H-M   'P -1'
_symmetry_Int_Tables_number      2
_space_group_name_Hall           '-P 1'
loop_
_symmetry_equiv_pos_site_id
_symmetry_equiv_pos_as_xyz
1 x,y,z
2 -x,-y,-z
_cell_length_a                   7.9707(3)
_cell_length_b                   10.0754(4)
_cell_length_c                   11.4672(5)
_cell_angle_alpha                79.923(4)
_cell_angle_beta                 82.774(4)
_cell_angle_gamma                71.167(4)
_cell_volume                     855.783
loop_
_atom_site_label
_atom_site_type_symbol
_atom_site_fract_x
_atom_site_fract_y
_atom_site_fract_z
Na1 Na 0.19375(15) 0.54764(11) 0.54688(10)
S1 S -0.08761(9) 0.24782(7) 0.29559(7)
S2 S 0.50256(9) 0.30101(7) 0.51742(6)
S3 S -0.02588(9) 0.67281(7) 0.32821(6)
N1 N 0.1768(3) 0.3529(2) 0.17788(19)
N2 N 0.0248(3) 0.2897(2) 0.0639(2)
N3 N 0.4313(3) 0.2395(2) 0.30694(19)
N4 N 0.6375(3) 0.0709(2) 0.40183(19)
N5 N 0.3097(3) 0.5066(2) 0.26103(19)
N6 N 0.2782(3) 0.7330(2) 0.2349(2)
C1 C 0.2420(3) 0.3785(3) 0.0608(2)
H1 H 0.3371 0.4166 0.0347
C2 C 0.1481(4) 0.3403(3) -0.0091(3)
H2 H 0.1637 0.3469 -0.0932
C3 C 0.0410(3) 0.2981(3) 0.1787(2)
C4 C -0.1050(4) 0.2367(3) 0.0249(3)
H3 H -0.1353 0.1677 0.0885
H4 H -0.0548 0.1910 -0.0458
H5 H -0.2123 0.3157 0.0058
C5 C 0.4960(3) 0.1280(3) 0.2407(2)
H6 H 0.4565 0.1252 0.1667
C6 C 0.6231(3) 0.0252(3) 0.2985(2)
H7 H 0.6906 -0.0627 0.2730
C7 C 0.5220(3) 0.2028(3) 0.4064(2)
C8 C 0.7620(3) -0.0075(3) 0.4912(2)
H8 H 0.8442 0.0451 0.4966
H9 H 0.8293 -0.1007 0.4687
H10 H 0.6962 -0.0197 0.5684
C9 C 0.4721(3) 0.5253(3) 0.2178(2)
H11 H 0.5791 0.4521 0.2025
C10 C 0.4521(4) 0.6646(3) 0.2011(2)
H12 H 0.5415 0.7079 0.1714
C11 C 0.1908(3) 0.6359(3) 0.2725(2)
C12 C 0.2022(4) 0.8858(3) 0.2344(3)
H13 H 0.1813 0.9327 0.1528
H14 H 0.2848 0.9213 0.2668
H15 H 0.0892 0.9060 0.2833
B1 B 0.2606(4) 0.3671(3) 0.2881(3)
H16 H 0.163(3) 0.375(3) 0.370(2)
Na1A Na -0.19375(15) 0.45236(11) 0.45312(10)
Na1A_2 Na 0.80625(15) 0.45236(11) 0.45312(10)
S1A S 0.08761(9) 0.75218(7) 0.70441(7)
S2A S 0.49744(9) 0.69899(7) 0.48258(6)
S3A S 0.02588(9) 0.32719(7) 0.67179(6)
loop_
_geom_bond_atom_site_label_1
_geom_bond_atom_site_label_2
_geom_bond_site_symmetry_1
_geom_bond_site_symmetry_2
Na1 S2 1_555 1_555
S1 C3 1_555 1_555
S2 C7 1_555 1_555
S3 Na1 1_555 1_555
N1 C1 1_555 1_555
N2 C2 1_555 1_555
N3 C5 1_555 1_555
N4 C6 1_555 1_555
N5 C9 1_555 1_555
N6 C10 1_555 1_555
C1 H1 1_555 1_555
C2 C1 1_555 1_555
H2 C2 1_555 1_555
C3 N1 1_555 1_555
C4 N2 1_555 1_555
H3 C4 1_555 1_555
H4 C4 1_555 1_555
H5 C4 1_555 1_555
C5 H6 1_555 1_555
C6 C5 1_555 1_555
H7 C6 1_555 1_555
C7 N3 1_555 1_555
C8 N4 1_555 1_555
H8 C8 1_555 1_555
H9 C8 1_555 1_555
H10 C8 1_555 1_555
C9 H11 1_555 1_555
C10 C9 1_555 1_555
H12 C10 1_555 1_555
C11 S3 1_555 1_555
C12 N6 1_555 1_555
H13 C12 1_555 1_555
H14 C12 1_555 1_555
H15 C12 1_555 1_555
B1 N1 1_555 1_555
H16 B1 1_555 1_555
Na1A S1 1_555 1_555
Na1A_2 S2 1_555 1_555
S1A Na1 1_555 1_555
S2A Na1 1_555 1_555
S3A Na1 1_555 1_555
S3 Na1A 1_555 1_555
N2 C3 1_555 1_555
N3 B1 1_555 1_555
N4 C7 1_555 1_555
N5 C11 1_555 1_555
N5 B1 1_555 1_555
N6 C11 1_555 1_555
Na1A S3A 1_555 1_555
Na1A_2 S2A 1_555 1_555

#END
