
#######################################################################
#
#                 Cambridge Crystallographic Data Centre
#                                CCDC 
#
#######################################################################
#
# If this CIF has been generated from an entry in the Cambridge 
# Structural Database, then it will include bibliographic, chemical, 
# crystal, experimental, refinement or atomic coordinate data resulting 
# from the CCDC's data processing and validation procedures.
#
#######################################################################

data_HIYYIY
_symmetry_cell_setting           tetragonal
_symmetry_space_group_name_H-M   'P 4/n c c'
_symmetry_Int_Tables_number      130
_space_group_name_Hall           '-P 4a 2ac'
loop_
_symmetry_equiv_pos_site_id
_symmetry_equiv_pos_as_xyz
1 x,y,z
2 1/2-y,x,z
3 y,1/2-x,z
4 1/2+y,1/2+x,1/2-z
5 1/2-x,1/2-y,z
6 1/2+x,-y,1/2-z
7 -x,1/2+y,1/2-z
8 -y,-x,1/2-z
9 -x,-y,-z
10 1/2+y,-x,-z
11 -y,1/2+x,-z
12 1/2-y,1/2-x,1/2+z
13 1/2+x,1/2+y,-z
14 1/2-x,y,1/2+z
15 x,1/2-y,1/2+z
16 y,x,1/2+z
_cell_length_a                   24.479(4)
_cell_length_b                   24.479(4)
_cell_length_c                   21.724(4)
_cell_angle_alpha                90
_cell_angle_beta                 90
_cell_angle_gamma                90
_cell_volume                     13017.5
loop_
_atom_site_label
_atom_site_type_symbol
_atom_site_fract_x
_atom_site_fract_y
_atom_site_fract_z
Zn1 Zn 0.18203(3) 0.48086(3) 0.72143(4)
O1 O 0.2219(2) 0.4148(2) 0.7587(3)
O2 O 0.2046(2) 0.52659(19) 0.7964(2)
O3 O 0.1592(2) 0.43655(19) 0.6471(3)
O4 O 0.14488(19) 0.54914(18) 0.6818(2)
N1 N 0.2551(2) 0.5071(3) 0.6746(3)
N2 N 0.6061(2) 0.5407(3) 0.7361(3)
C1 C 0.1133(6) 0.3308(6) 0.4609(6)
H1 H 0.1070 0.3029 0.4313
C2 C 0.2615(4) 0.6479(4) 0.9138(5)
H2 H 0.2634 0.6852 0.9017
C3 C 0.0976(5) 0.4208(4) 0.4961(4)
H3 H 0.0802 0.4552 0.4904
C4 C 0.1158(4) 0.6084(3) 0.6037(4)
H4 H 0.1210 0.6350 0.6368
H5 H 0.0776 0.6090 0.5903
H6 H 0.1395 0.6178 0.5689
C5 C 0.2669(4) 0.5798(6) 0.9903(5)
H7 H 0.2718 0.5700 1.0323
C6 C 0.2503(3) 0.6078(4) 0.8704(4)
H8 H 0.2439 0.6179 0.8288
C7 C 0.5797(4) 0.5049(4) 0.7025(4)
H9 H 0.5959 0.4700 0.6967
C8 C 0.0904(7) 0.3801(6) 0.4535(5)
H10 H 0.0687 0.3870 0.4181
C9 C 0.2698(4) 0.6338(6) 0.9735(6)
H11 H 0.2776 0.6611 1.0033
C10 C 0.2830(4) 0.4762(4) 0.6361(4)
H12 H 0.2732 0.4387 0.6330
C11 C 0.4409(4) 0.5547(6) 0.5922(5)
H13 H 0.4430 0.5144 0.5958
H14 H 0.4702 0.5666 0.5638
C12 C 0.3858(4) 0.5702(5) 0.5648(5)
H15 H 0.3827 0.6105 0.5629
H16 H 0.3833 0.5558 0.5223
C13 C 0.3119(4) 0.5805(4) 0.6436(5)
H17 H 0.3216 0.6178 0.6484
C14 C 0.5056(4) 0.5660(4) 0.6828(5)
C15 C 0.4507(3) 0.5794(4) 0.6539(6)
H18 H 0.4215 0.5669 0.6822
H19 H 0.4476 0.6196 0.6502
C16 C 0.1301(3) 0.5520(3) 0.6268(4)
C17 C 0.5296(4) 0.5147(4) 0.6749(5)
H20 H 0.5121 0.4873 0.6511
C18 C 0.2570(3) 0.5401(4) 0.9475(4)
H21 H 0.2560 0.5029 0.9598
C19 C 0.1458(5) 0.3204(5) 0.5113(6)
H22 H 0.1627 0.2858 0.5164
C20 C 0.3246(4) 0.4944(5) 0.6005(4)
H23 H 0.3434 0.4698 0.5741
C21 C 0.2578(3) 0.4594(3) 0.8458(3)
H24 H 0.2809 0.4535 0.8804
C22 C 0.5331(4) 0.6026(3) 0.7172(5)
H25 H 0.5184 0.6382 0.7228
C23 C 0.2708(3) 0.5587(4) 0.6766(4)
H26 H 0.2514 0.5823 0.7036
C24 C 0.5827(4) 0.5892(3) 0.7445(4)
H27 H 0.6004 0.6153 0.7700
C25 C 0.2789(3) 0.3621(3) 0.8234(4)
H28 H 0.2699 0.3346 0.7923
H29 H 0.2664 0.3496 0.8638
H30 H 0.3185 0.3678 0.8243
C26 C 0.1534(4) 0.3617(4) 0.5546(4)
H31 H 0.1753 0.3546 0.5898
C27 C 0.3395(3) 0.5476(5) 0.6028(4)
C28 C 0.1303(3) 0.4121(3) 0.5480(4)
C29 C 0.1259(3) 0.5087(3) 0.5864(4)
H32 H 0.1124 0.5170 0.5465
C30 C 0.2484(3) 0.5536(4) 0.8870(4)
C31 C 0.2356(3) 0.5111(3) 0.8404(3)
C32 C 0.1391(3) 0.4540(3) 0.5975(4)
C33 C 0.2507(3) 0.4154(3) 0.8074(4)
Zn1E Zn -0.31797(3) 0.51914(3) 0.77857(4)
Zn1E_2 Zn 0.68203(3) 0.51914(3) 0.77857(4)
O1E O -0.2781(2) 0.5852(2) 0.7413(3)
O2E O -0.2954(2) 0.47341(19) 0.7036(2)
O3E O -0.3408(2) 0.56345(19) 0.8529(3)
O4E O -0.35512(19) 0.45086(18) 0.8182(2)
N1E N -0.2449(2) 0.4929(3) 0.8254(3)
N2E N 0.1061(2) 0.4593(3) 0.7639(3)
N2_2 N -0.3939(2) 0.5407(3) 0.7361(3)
C1E C -0.3867(6) 0.6692(6) 1.0391(6)
H1E H -0.3930 0.6971 1.0687
C2E C -0.2385(4) 0.3521(4) 0.5862(5)
H2E H -0.2366 0.3148 0.5983
C3E C -0.4024(5) 0.5792(4) 1.0039(4)
H3E H -0.4198 0.5448 1.0096
C4E C -0.3842(4) 0.3916(3) 0.8963(4)
H4E H -0.3790 0.3650 0.8632
H5E H -0.4224 0.3910 0.9097
H6E H -0.3605 0.3822 0.9311
C5E C -0.2331(4) 0.4202(6) 0.5097(5)
H7E H -0.2282 0.4300 0.4677
C6E C -0.2497(3) 0.3922(4) 0.6296(4)
H8E H -0.2561 0.3821 0.6712
C7E C 0.0797(4) 0.4951(4) 0.7975(4)
H9E H 0.0959 0.5300 0.8033
C8E C -0.4096(7) 0.6199(6) 1.0465(5)
H10E H -0.4313 0.6130 1.0819
C9E C -0.2302(4) 0.3662(6) 0.5265(6)
H11E H -0.2224 0.3389 0.4967
C10E C -0.2170(4) 0.5238(4) 0.8639(4)
H12E H -0.2268 0.5613 0.8670
C11E C -0.0591(4) 0.4453(6) 0.9078(5)
H13E H -0.0570 0.4856 0.9042
H14E H -0.0298 0.4334 0.9362
C12E C -0.1142(4) 0.4298(5) 0.9352(5)
H15E H -0.1173 0.3895 0.9371
H16E H -0.1167 0.4442 0.9777
C13E C -0.1881(4) 0.4195(4) 0.8564(5)
H17E H -0.1784 0.3822 0.8516
C14E C 0.0056(4) 0.4340(4) 0.8172(5)
C15E C -0.0493(3) 0.4206(4) 0.8461(6)
H18E H -0.0785 0.4331 0.8178
H19E H -0.0524 0.3804 0.8498
C16E C -0.3699(3) 0.4480(3) 0.8732(4)
C17E C 0.0296(4) 0.4853(4) 0.8251(5)
H20E H 0.0121 0.5127 0.8489
C18E C -0.2430(3) 0.4599(4) 0.5525(4)
H21E H -0.2440 0.4971 0.5402
C19E C -0.3542(5) 0.6796(5) 0.9887(6)
H22E H -0.3373 0.7142 0.9836
C20E C -0.1754(4) 0.5056(5) 0.8995(4)
H23E H -0.1566 0.5302 0.9259
C21E C -0.2422(3) 0.5406(3) 0.6542(3)
H24E H -0.2191 0.5465 0.6196
C22E C 0.0331(4) 0.3974(3) 0.7828(5)
H25E H 0.0184 0.3618 0.7772
C23E C -0.2292(3) 0.4413(4) 0.8234(4)
H26E H -0.2486 0.4177 0.7964
C24E C 0.0827(4) 0.4108(3) 0.7555(4)
H27E H 0.1004 0.3847 0.7300
C25E C -0.2211(3) 0.6379(3) 0.6766(4)
H28E H -0.2301 0.6654 0.7077
H29E H -0.2336 0.6504 0.6362
H30E H -0.1815 0.6322 0.6757
C26E C -0.3466(4) 0.6383(4) 0.9454(4)
H31E H -0.3247 0.6454 0.9102
C27E C -0.1605(3) 0.4524(5) 0.8972(4)
C28E C -0.3697(3) 0.5879(3) 0.9520(4)
C29E C -0.3741(3) 0.4913(3) 0.9136(4)
H32E H -0.3876 0.4830 0.9535
C30E C -0.2516(3) 0.4464(4) 0.6130(4)
C31E C -0.2644(3) 0.4889(3) 0.6596(3)
C32E C -0.3609(3) 0.5460(3) 0.9025(4)
C33E C -0.2493(3) 0.5846(3) 0.6926(4)
O5 O 0.2355(2) 0.3275(2) 0.6742(3)
O6 O 0.1492(2) 0.6492(2) 0.7500
loop_
_geom_bond_atom_site_label_1
_geom_bond_atom_site_label_2
_geom_bond_site_symmetry_1
_geom_bond_site_symmetry_2
Zn1 O1 1_555 1_555
O1 C33 1_555 1_555
O2 Zn1 1_555 1_555
O3 Zn1 1_555 1_555
O4 Zn1 1_555 1_555
N1 Zn1 1_555 1_555
N2 C7 1_555 1_555
C1 H1 1_555 1_555
C2 H2 1_555 1_555
C3 H3 1_555 1_555
C4 H4 1_555 1_555
H5 C4 1_555 1_555
H6 C4 1_555 1_555
C5 H7 1_555 1_555
C6 C2 1_555 1_555
H8 C6 1_555 1_555
C7 H9 1_555 1_555
C8 C1 1_555 1_555
H10 C8 1_555 1_555
C9 C2 1_555 1_555
H11 C9 1_555 1_555
C10 N1 1_555 1_555
H12 C10 1_555 1_555
C11 H13 1_555 1_555
H14 C11 1_555 1_555
C12 C11 1_555 1_555
H15 C12 1_555 1_555
H16 C12 1_555 1_555
C13 H17 1_555 1_555
C14 C15 1_555 1_555
C15 C11 1_555 1_555
H18 C15 1_555 1_555
H19 C15 1_555 1_555
C16 O4 1_555 1_555
C17 C7 1_555 1_555
H20 C17 1_555 1_555
C18 C5 1_555 1_555
H21 C18 1_555 1_555
C19 C1 1_555 1_555
H22 C19 1_555 1_555
C20 C10 1_555 1_555
H23 C20 1_555 1_555
C21 H24 1_555 1_555
C22 C14 1_555 1_555
H25 C22 1_555 1_555
C23 N1 1_555 1_555
H26 C23 1_555 1_555
C24 N2 1_555 1_555
H27 C24 1_555 1_555
C25 H28 1_555 1_555
H29 C25 1_555 1_555
H30 C25 1_555 1_555
C26 C19 1_555 1_555
H31 C26 1_555 1_555
C27 C12 1_555 1_555
C28 C3 1_555 1_555
C29 C16 1_555 1_555
H32 C29 1_555 1_555
C30 C6 1_555 1_555
C31 O2 1_555 1_555
C32 O3 1_555 1_555
C33 C21 1_555 1_555
Zn1E O1E 1_555 1_555
Zn1E_2 N2 1_555 1_555
O1E C33E 1_555 1_555
O2E Zn1E 1_555 1_555
O3E Zn1E 1_555 1_555
O4E Zn1E 1_555 1_555
N1E Zn1E 1_555 1_555
N2E Zn1 1_555 1_555
N2_2 Zn1E 1_555 1_555
C1E H1E 1_555 1_555
C2E H2E 1_555 1_555
C3E H3E 1_555 1_555
C4E H4E 1_555 1_555
H5E C4E 1_555 1_555
H6E C4E 1_555 1_555
C5E H7E 1_555 1_555
C6E C2E 1_555 1_555
H8E C6E 1_555 1_555
C7E N2E 1_555 1_555
H9E C7E 1_555 1_555
C8E C1E 1_555 1_555
H10E C8E 1_555 1_555
C9E C2E 1_555 1_555
H11E C9E 1_555 1_555
C10E N1E 1_555 1_555
H12E C10E 1_555 1_555
C11E H13E 1_555 1_555
H14E C11E 1_555 1_555
C12E C11E 1_555 1_555
H15E C12E 1_555 1_555
H16E C12E 1_555 1_555
C13E H17E 1_555 1_555
C14E C15E 1_555 1_555
C15E C11E 1_555 1_555
H18E C15E 1_555 1_555
H19E C15E 1_555 1_555
C16E O4E 1_555 1_555
C17E C7E 1_555 1_555
H20E C17E 1_555 1_555
C18E C5E 1_555 1_555
H21E C18E 1_555 1_555
C19E C1E 1_555 1_555
H22E C19E 1_555 1_555
C20E C10E 1_555 1_555
H23E C20E 1_555 1_555
C21E H24E 1_555 1_555
C22E C14E 1_555 1_555
H25E C22E 1_555 1_555
C23E N1E 1_555 1_555
H26E C23E 1_555 1_555
C24E N2E 1_555 1_555
H27E C24E 1_555 1_555
C25E H28E 1_555 1_555
H29E C25E 1_555 1_555
H30E C25E 1_555 1_555
C26E C19E 1_555 1_555
H31E C26E 1_555 1_555
C27E C12E 1_555 1_555
C28E C3E 1_555 1_555
C29E C16E 1_555 1_555
H32E C29E 1_555 1_555
C30E C6E 1_555 1_555
C31E O2E 1_555 1_555
C32E O3E 1_555 1_555
C33E C21E 1_555 1_555
C3 C8 1_555 1_555
C4 C16 1_555 1_555
C5 C9 1_555 1_555
C13 C23 1_555 1_555
C13 C27 1_555 1_555
C14 C17 1_555 1_555
C18 C30 1_555 1_555
C20 C27 1_555 1_555
C21 C31 1_555 1_555
C22 C24 1_555 1_555
C25 C33 1_555 1_555
C26 C28 1_555 1_555
C28 C32 1_555 1_555
C29 C32 1_555 1_555
C30 C31 1_555 1_555
C3E C8E 1_555 1_555
C4E C16E 1_555 1_555
C5E C9E 1_555 1_555
C13E C23E 1_555 1_555
C13E C27E 1_555 1_555
C14E C17E 1_555 1_555
C18E C30E 1_555 1_555
C20E C27E 1_555 1_555
C21E C31E 1_555 1_555
C22E C24E 1_555 1_555
C25E C33E 1_555 1_555
C26E C28E 1_555 1_555
C28E C32E 1_555 1_555
C29E C32E 1_555 1_555
C30E C31E 1_555 1_555

#END
