
#######################################################################
#
#                 Cambridge Crystallographic Data Centre
#                                CCDC 
#
#######################################################################
#
# If this CIF has been generated from an entry in the Cambridge 
# Structural Database, then it will include bibliographic, chemical, 
# crystal, experimental, refinement or atomic coordinate data resulting 
# from the CCDC's data processing and validation procedures.
#
#######################################################################

data_HIYZEV01
_symmetry_cell_setting           triclinic
_symmetry_space_group_name_H-M   'P -1'
_symmetry_Int_Tables_number      2
_space_group_name_Hall           '-P 1'
loop_
_symmetry_equiv_pos_site_id
_symmetry_equiv_pos_as_xyz
1 x,y,z
2 -x,-y,-z
_cell_length_a                   9.716(3)
_cell_length_b                   12.193(3)
_cell_length_c                   12.576(3)
_cell_angle_alpha                62.19(2)
_cell_angle_beta                 66.423(17)
_cell_angle_gamma                72.72(2)
_cell_volume                     1196.5
loop_
_atom_site_label
_atom_site_type_symbol
_atom_site_fract_x
_atom_site_fract_y
_atom_site_fract_z
Mn1 Mn -0.09203(4) 0.32873(3) -0.12322(3)
Mn2 Mn 0.0000 0.0000 0.0000
Mn3 Mn 0.0000 0.5000 0.0000
O1 O -0.0042(3) 0.27675(19) -0.27810(18)
O2 O 0.0597(2) 0.06965(18) -0.19663(17)
O3 O 0.0564(2) 0.18350(18) -0.02027(18)
O4 O 0.1401(2) 0.35861(16) -0.08001(17)
O5 O -0.1902(2) 0.39539(19) 0.05382(19)
N1 N -0.3952(3) 0.3114(3) 0.2115(3)
C1 C 0.0429(3) 0.1728(3) -0.2860(2)
C2 C 0.0812(3) 0.1694(3) -0.4126(2)
C3 C 0.0652(3) 0.2778(2) -0.5181(2)
H1 H 0.0364 0.3551 -0.5121
C4 C 0.0921(3) 0.2711(2) -0.6320(2)
C5 C 0.1394(5) 0.1563(3) -0.6414(3)
H2 H 0.1565 0.1513 -0.7173
C6 C 0.1616(7) 0.0489(3) -0.5384(3)
H3 H 0.1974 -0.0277 -0.5460
C7 C 0.1302(5) 0.0557(3) -0.4242(3)
H4 H 0.1422 -0.0171 -0.3544
C8 C 0.1498(3) 0.2410(2) -0.0259(2)
C9 C 0.2731(3) 0.1665(2) 0.0324(2)
C10 C 0.2565(3) 0.0466(2) 0.1261(2)
H5 H 0.1682 0.0131 0.1528
C11 C 0.3705(3) -0.0231(3) 0.1799(3)
H6 H 0.3571 -0.1019 0.2449
C12 C 0.5038(3) 0.0239(3) 0.1372(3)
H7 H 0.5815 -0.0241 0.1718
C13 C 0.5228(3) 0.1435(3) 0.0421(3)
C14 C 0.4052(3) 0.2162(2) -0.0082(2)
H8 H 0.4153 0.2976 -0.0685
C15 C -0.5102(7) 0.3978(6) 0.1651(7)
H9 H -0.4667 0.4659 0.0895
H10 H -0.5793 0.4293 0.2275
H11 H -0.5637 0.3577 0.1463
C16 C -0.4527(7) 0.2003(6) 0.3309(6)
H12 H -0.3688 0.1449 0.3584
H13 H -0.5045 0.1568 0.3145
H14 H -0.5215 0.2288 0.3957
C20 C -0.2506(5) 0.3117(4) 0.1601(4)
H22 H -0.1871 0.2477 0.2028
C21 C 0.0730(3) 0.3869(2) -0.7465(2)
O7 O 0.0406(3) 0.37497(18) -0.82711(18)
O8 O 0.0906(2) 0.48738(18) -0.75165(18)
C22 C 0.6712(3) 0.1907(3) -0.0095(3)
O9 O 0.6787(2) 0.3053(2) -0.0754(2)
O10 O 0.7833(2) 0.1139(2) 0.0155(2)
Mn1A Mn 0.09203(4) -0.32873(3) 0.12322(3)
Mn1_2 Mn 0.90797(4) 0.32873(3) -0.12322(3)
Mn1A_2 Mn 0.09203(4) 0.67127(3) 0.12322(3)
Mn1A_3 Mn 0.09203(4) 0.67127(3) -0.87678(3)
Mn1_3 Mn -0.09203(4) -0.67127(3) 0.87678(3)
Mn1A_4 Mn -0.90797(4) -0.32873(3) 0.12322(3)
Mn2_2 Mn 1.0000 0.0000 0.0000
Mn2_3 Mn -1.0000 0.0000 0.0000
Mn3_2 Mn 0.0000 -0.5000 0.0000
Mn3_3 Mn 0.0000 0.5000 -1.0000
Mn3_4 Mn 0.0000 -0.5000 1.0000
O1A O 0.0042(3) -0.27675(19) 0.27810(18)
O2A O -0.0597(2) -0.06965(18) 0.19663(17)
O3A O -0.0564(2) -0.18350(18) 0.02027(18)
O4A O -0.1401(2) 0.64139(16) 0.08001(17)
O4A_2 O -0.1401(2) -0.35861(16) 0.08001(17)
O5A O 0.1902(2) 0.60461(19) -0.05382(19)
O5A_2 O 0.1902(2) -0.39539(19) -0.05382(19)
N1A N 0.3952(3) 0.6886(3) -0.2115(3)
C1A C -0.0429(3) -0.1728(3) 0.2860(2)
C2A C -0.0812(3) -0.1694(3) 0.4126(2)
C3A C -0.0652(3) -0.2778(2) 0.5181(2)
H1A H -0.0364 -0.3551 0.5121
C4A C -0.0921(3) -0.2711(2) 0.6320(2)
C5A C -0.1394(5) -0.1563(3) 0.6414(3)
H2A H -0.1565 -0.1513 0.7173
C6A C -0.1616(7) -0.0489(3) 0.5384(3)
H3A H -0.1974 0.0277 0.5460
C7A C -0.1302(5) -0.0557(3) 0.4242(3)
H4A H -0.1422 0.0171 0.3544
C8A C -0.1498(3) -0.2410(2) 0.0259(2)
C9A C -0.2731(3) -0.1665(2) -0.0324(2)
C10A C -0.2565(3) -0.0466(2) -0.1261(2)
H5A H -0.1682 -0.0131 -0.1528
C11A C -0.3705(3) 0.0231(3) -0.1799(3)
H6A H -0.3571 0.1019 -0.2449
C12A C -0.5038(3) -0.0239(3) -0.1372(3)
H7A H -0.5815 0.0241 -0.1718
C13A C -0.5228(3) -0.1435(3) -0.0421(3)
C14A C -0.4052(3) -0.2162(2) 0.0082(2)
H8A H -0.4153 -0.2976 0.0685
C15A C 0.5102(7) 0.6022(6) -0.1651(7)
H9A H 0.4667 0.5341 -0.0895
H10A H 0.5793 0.5707 -0.2275
H11A H 0.5637 0.6423 -0.1463
C16A C 0.4527(7) 0.7997(6) -0.3309(6)
H12A H 0.3688 0.8551 -0.3584
H13A H 0.5045 0.8432 -0.3145
H14A H 0.5215 0.7712 -0.3957
C20A C 0.2506(5) 0.6883(4) -0.1601(4)
H22A H 0.1871 0.7523 -0.2028
C21A C -0.0730(3) -0.3869(2) 0.7465(2)
O7A O -0.0406(3) 0.62503(18) -0.17289(18)
O7_2 O 0.0406(3) 0.37497(18) 0.17289(18)
O7A_2 O -0.0406(3) -0.37497(18) 0.82711(18)
O8_2 O 0.0906(2) -0.51262(18) 0.24835(18)
O8A O -0.0906(2) 0.51262(18) -0.24835(18)
O8A_2 O -0.0906(2) -0.48738(18) 0.75165(18)
C22A C -0.6712(3) -0.1907(3) 0.0095(3)
O9_2 O -0.3213(2) 0.3053(2) -0.0754(2)
O9A O 0.3213(2) -0.3053(2) 0.0754(2)
O9A_2 O -0.6787(2) -0.3053(2) 0.0754(2)
O10_2 O -0.2167(2) 0.1139(2) 0.0155(2)
O10A O 0.2167(2) -0.1139(2) -0.0155(2)
O10A_2 O -0.7833(2) -0.1139(2) -0.0155(2)
O6 O -0.6659(7) 0.7405(5) -0.5054(6)
N2 N -0.6883(4) 0.5557(4) -0.4964(4)
C17 C -0.6928(6) 0.6306(7) -0.4436(7)
H15 H -0.7174 0.5987 -0.3561
C18 C -0.7226(8) 0.4310(6) -0.4204(7)
H16 H -0.7438 0.4136 -0.3331
H17 H -0.6375 0.3735 -0.4447
H18 H -0.8095 0.4218 -0.4323
C19 C -0.6541(10) 0.6010(7) -0.6305(6)
H19 H -0.6340 0.6859 -0.6695
H20 H -0.7389 0.5974 -0.6493
H21 H -0.5665 0.5498 -0.6627
loop_
_geom_bond_atom_site_label_1
_geom_bond_atom_site_label_2
_geom_bond_site_symmetry_1
_geom_bond_site_symmetry_2
Mn1 O1 1_555 1_555
Mn2 O2 1_555 1_555
Mn3 O4 1_555 1_555
O1 C1 1_555 1_555
O2 C1 1_555 1_555
O3 Mn1 1_555 1_555
O4 C8 1_555 1_555
O5 Mn1 1_555 1_555
O6 C17 1_555 1_555
N1 C15 1_555 1_555
N2 C17 1_555 1_555
C1 C2 1_555 1_555
C2 C3 1_555 1_555
C3 H1 1_555 1_555
C4 C3 1_555 1_555
C5 C4 1_555 1_555
H2 C5 1_555 1_555
C6 C5 1_555 1_555
H3 C6 1_555 1_555
C7 C2 1_555 1_555
H4 C7 1_555 1_555
C8 O3 1_555 1_555
C9 C8 1_555 1_555
C10 C9 1_555 1_555
H5 C10 1_555 1_555
C11 C10 1_555 1_555
H6 C11 1_555 1_555
C12 C11 1_555 1_555
H7 C12 1_555 1_555
C13 C12 1_555 1_555
C14 C9 1_555 1_555
H8 C14 1_555 1_555
C15 H9 1_555 1_555
H10 C15 1_555 1_555
H11 C15 1_555 1_555
C16 N1 1_555 1_555
H12 C16 1_555 1_555
H13 C16 1_555 1_555
H14 C16 1_555 1_555
C17 H15 1_555 1_555
C18 N2 1_555 1_555
H16 C18 1_555 1_555
H17 C18 1_555 1_555
H18 C18 1_555 1_555
C19 N2 1_555 1_555
H19 C19 1_555 1_555
H20 C19 1_555 1_555
H21 C19 1_555 1_555
C20 O5 1_555 1_555
H22 C20 1_555 1_555
C21 C4 1_555 1_555
O7 C21 1_555 1_555
O8 C21 1_555 1_555
C22 C13 1_555 1_555
O9 C22 1_555 1_555
O10 C22 1_555 1_555
Mn1A O1A 1_555 1_555
Mn1_2 O9 1_555 1_555
Mn1A_2 O5A 1_555 1_555
Mn1A_3 O8 1_555 1_555
Mn1_3 O8A_2 1_555 1_555
Mn1A_4 O9A_2 1_555 1_555
Mn2_2 O10 1_555 1_555
Mn2_3 O10A_2 1_555 1_555
Mn3_2 O4A_2 1_555 1_555
Mn3_3 O7 1_555 1_555
Mn3_4 O7A_2 1_555 1_555
O1A C1A 1_555 1_555
O2A Mn2 1_555 1_555
O3A Mn2 1_555 1_555
O4A Mn3 1_555 1_555
O4A_2 C8A 1_555 1_555
O5A Mn3 1_555 1_555
O5A_2 Mn1A 1_555 1_555
N1A C15A 1_555 1_555
C1A O2A 1_555 1_555
C2A C1A 1_555 1_555
C3A C2A 1_555 1_555
H1A C3A 1_555 1_555
C4A C3A 1_555 1_555
C5A C4A 1_555 1_555
H2A C5A 1_555 1_555
C6A C5A 1_555 1_555
H3A C6A 1_555 1_555
C7A C2A 1_555 1_555
H4A C7A 1_555 1_555
C8A O3A 1_555 1_555
C9A C8A 1_555 1_555
C10A C9A 1_555 1_555
H5A C10A 1_555 1_555
C11A C10A 1_555 1_555
H6A C11A 1_555 1_555
C12A C11A 1_555 1_555
H7A C12A 1_555 1_555
C13A C12A 1_555 1_555
C14A C9A 1_555 1_555
H8A C14A 1_555 1_555
C15A H9A 1_555 1_555
H10A C15A 1_555 1_555
H11A C15A 1_555 1_555
C16A N1A 1_555 1_555
H12A C16A 1_555 1_555
H13A C16A 1_555 1_555
H14A C16A 1_555 1_555
C20A O5A 1_555 1_555
H22A C20A 1_555 1_555
C21A C4A 1_555 1_555
O7A Mn3 1_555 1_555
O7_2 Mn3 1_555 1_555
O7A_2 C21A 1_555 1_555
O8_2 Mn1A 1_555 1_555
O8A Mn1 1_555 1_555
O8A_2 C21A 1_555 1_555
C22A C13A 1_555 1_555
O9_2 Mn1 1_555 1_555
O9A Mn1A 1_555 1_555
O9A_2 C22A 1_555 1_555
O10_2 Mn2 1_555 1_555
O10A Mn2 1_555 1_555
O10A_2 C22A 1_555 1_555
Mn2 O3 1_555 1_555
Mn3 O5 1_555 1_555
N1 C20 1_555 1_555
C6 C7 1_555 1_555
C13 C14 1_555 1_555
Mn1A O3A 1_555 1_555
Mn3_2 O5A_2 1_555 1_555
N1A C20A 1_555 1_555
C6A C7A 1_555 1_555
C13A C14A 1_555 1_555

#END
