
#######################################################################
#
#                 Cambridge Crystallographic Data Centre
#                                CCDC 
#
#######################################################################
#
# If this CIF has been generated from an entry in the Cambridge 
# Structural Database, then it will include bibliographic, chemical, 
# crystal, experimental, refinement or atomic coordinate data resulting 
# from the CCDC's data processing and validation procedures.
#
#######################################################################

data_HIZDIF
_symmetry_cell_setting           monoclinic
_symmetry_space_group_name_H-M   'P 21/c'
_symmetry_Int_Tables_number      14
_space_group_name_Hall           '-P 2ybc'
loop_
_symmetry_equiv_pos_site_id
_symmetry_equiv_pos_as_xyz
1 x,y,z
2 -x,1/2+y,1/2-z
3 -x,-y,-z
4 x,1/2-y,1/2+z
_cell_length_a                   11.6523(6)
_cell_length_b                   17.9655(9)
_cell_length_c                   21.6837(8)
_cell_angle_alpha                90
_cell_angle_beta                 115.696(2)
_cell_angle_gamma                90
_cell_volume                     4090.35
loop_
_atom_site_label
_atom_site_type_symbol
_atom_site_fract_x
_atom_site_fract_y
_atom_site_fract_z
O14 O 1.3954(10) 1.0986(7) 0.9895(5)
O15 O 1.3942(12) 0.9629(7) 1.0188(5)
O16 O 0.7420(8) 0.5763(3) 0.7007(3)
H19 H 0.7657 0.5620 0.6686
H20 H 0.7236 0.6244 0.6909
O17 O 1.1957(11) 0.4565(5) 0.8783(6)
H21 H 1.2660 0.4778 0.9046
H22 H 1.2245 0.4089 0.8871
C1 C 0.6807(6) 0.3193(4) 0.4123(3)
H1 H 0.6121 0.3494 0.4069
C2 C 0.6619(6) 0.2437(4) 0.4020(3)
H2 H 0.5808 0.2244 0.3897
C3 C 0.8708(5) 0.2285(3) 0.4279(2)
C4 C 0.8900(6) 0.3036(3) 0.4379(3)
H3 H 0.9712 0.3229 0.4506
C5 C 0.8513(6) 0.2018(3) 0.6250(3)
C6 C 1.0382(5) 0.1243(3) 0.5112(2)
C7 C 1.1239(5) 0.0652(3) 0.5275(3)
H4 H 1.1555 0.0505 0.4967
C8 C 1.1157(6) 0.0534(3) 0.6301(3)
H5 H 1.1398 0.0296 0.6719
C9 C 1.0324(5) 0.1137(3) 0.6132(3)
C10 C 0.7716(7) 0.3167(4) 0.5927(3)
H6 H 0.7828 0.3677 0.5902
C11 C 0.6513(6) 0.2880(4) 0.5619(3)
H7 H 0.5827 0.3200 0.5406
C12 C 0.7316(6) 0.1717(3) 0.5925(3)
H8 H 0.7210 0.1204 0.5919
C13 C 0.5872(6) 0.5564(4) 0.2272(3)
H9 H 0.6020 0.5607 0.1885
C14 C 0.6858(6) 0.5351(3) 0.2885(3)
H10 H 0.7648 0.5243 0.2897
C15 C 0.5565(6) 0.5463(3) 0.3421(3)
H11 H 0.5432 0.5436 0.3813
C16 C 0.4578(5) 0.5679(3) 0.2802(3)
C17 C 0.2948(5) 0.6829(3) 0.2637(2)
C18 C 0.1744(5) 0.7143(3) 0.2350(3)
H12 H 0.1032 0.6838 0.2216
C19 C 0.2639(6) 0.8293(3) 0.2463(3)
H13 H 0.2562 0.8806 0.2401
C20 C 0.3836(5) 0.7969(3) 0.2759(3)
C21 C 0.6393(5) 0.7903(3) 0.3466(3)
C22 C 0.7021(6) 0.7575(3) 0.3126(3)
H14 H 0.6823 0.7715 0.2678
C23 C 0.8155(5) 0.6875(3) 0.4073(3)
H15 H 0.8753 0.6507 0.4297
C24 C 0.7537(6) 0.7222(3) 0.4413(3)
H16 H 0.7735 0.7085 0.4862
Ag1 Ag 0.83158(5) 0.47863(3) 0.44304(2)
Ag2 Ag 0.71259(4) 0.07180(3) 0.38594(2)
Ag3 Ag -0.04967(6) 0.83769(4) 0.17596(3)
Ag4 Ag 0.42764(5) 0.16237(3) 0.52759(3)
Ag5 Ag 1.07249(5) 0.33291(3) 0.70224(3)
N1 N 0.7938(5) 0.3504(3) 0.4298(3)
N2 N 0.7562(5) 0.1975(3) 0.4092(2)
N3 N 0.6300(5) 0.2159(3) 0.5616(3)
N4 N 0.8737(5) 0.2741(3) 0.6264(2)
N5 N 0.4705(5) 0.5711(3) 0.2222(2)
N6 N 0.6713(5) 0.5294(3) 0.3452(3)
N7 N 0.9928(4) 0.1488(2) 0.5538(2)
N8 N 1.1608(5) 0.0298(3) 0.5868(2)
N9 N 0.4005(4) 0.7241(2) 0.2842(2)
N10 N 0.1592(4) 0.7871(3) 0.2264(2)
N11 N 0.6663(4) 0.7749(3) 0.4114(2)
N12 N 0.7915(4) 0.7055(3) 0.3433(2)
O1 O 1.0284(6) 0.5521(4) 0.6603(3)
O2 O 1.0008(6) 0.4412(3) 0.5981(3)
O3 O 0.8255(6) 0.4966(3) 0.6073(4)
O4 O 0.9168(8) 0.5550(4) 0.5407(3)
O5 O -0.1593(6) 0.7295(4) 0.1874(3)
O6 O 1.0030(5) 0.4274(3) 0.7543(3)
O7 O -0.2581(9) 0.7878(6) 0.0848(4)
O8 O -0.3692(6) 0.7827(4) 0.1505(4)
O9 O -0.3340(11) 0.6745(5) 0.0978(6)
O10 O 0.4253(10) -0.0189(5) 0.4135(5)
O11 O 0.4985(9) 0.0430(4) 0.5232(4)
O12 O 0.6394(9) -0.0355(5) 0.4988(5)
O13 O 0.5788(5) 0.0829(2) 0.4414(2)
S1 S 0.99624(15) 0.16944(8) 0.43160(7)
S2 S 0.98134(17) 0.14256(10) 0.67478(7)
S3 S 0.30402(14) 0.58541(8) 0.27526(8)
S4 S 0.51759(16) 0.85684(8) 0.30355(10)
S5 S 0.93990(15) 0.51131(9) 0.60042(8)
S6 S -0.2878(2) 0.73820(10) 0.13129(8)
S7 S 0.5334(3) 0.01900(14) 0.46794(14)
H17 H 0.9914 0.4671 0.7273
H18 H 1.0724 0.4468 0.7882
O10B O 0.5747(10) 0.0189(5) 0.5865(5)
O11B O 0.5015(9) -0.0430(4) 0.4768(4)
O12B O 0.3606(9) 0.0355(5) 0.5012(5)
O13B O 0.4212(5) -0.0829(2) 0.5586(2)
S7B S 0.4666(3) -0.01900(14) 0.53206(14)
C1B C 0.3193(6) -0.3193(4) 0.5877(3)
H1B H 0.3879 -0.3494 0.5931
C2B C 0.3381(6) -0.2437(4) 0.5980(3)
H2B H 0.4192 -0.2244 0.6103
C3B C 0.1292(5) -0.2285(3) 0.5721(2)
C4B C 0.1100(6) -0.3036(3) 0.5621(3)
H3B H 0.0288 -0.3229 0.5494
C5B C 0.1487(6) -0.2018(3) 0.3750(3)
C6B C -0.0382(5) -0.1243(3) 0.4888(2)
C7B C -0.1239(5) -0.0652(3) 0.4725(3)
H4B H -0.1555 -0.0505 0.5033
C8B C -0.1157(6) -0.0534(3) 0.3699(3)
H5B H -0.1398 -0.0296 0.3281
C9B C -0.0324(5) -0.1137(3) 0.3868(3)
C10B C 0.2284(7) -0.3167(4) 0.4073(3)
H6B H 0.2172 -0.3677 0.4098
C11B C 0.3487(6) -0.2880(4) 0.4381(3)
H7B H 0.4173 -0.3200 0.4594
C12B C 0.2684(6) -0.1717(3) 0.4075(3)
H8B H 0.2790 -0.1204 0.4081
C13B C 0.4128(6) -0.5564(4) 0.7728(3)
H9B H 0.3980 -0.5607 0.8115
C14B C 0.3142(6) -0.5351(3) 0.7115(3)
H10B H 0.2352 -0.5243 0.7103
C15B C 0.4435(6) -0.5463(3) 0.6579(3)
H11B H 0.4568 -0.5436 0.6187
C16B C 0.5422(5) -0.5679(3) 0.7198(3)
C17B C 0.7052(5) -0.6829(3) 0.7363(2)
C18B C 0.8256(5) -0.7143(3) 0.7650(3)
H12B H 0.8968 -0.6838 0.7784
C19B C 0.7361(6) -0.8293(3) 0.7537(3)
H13B H 0.7438 -0.8806 0.7599
C20B C 0.6164(5) -0.7969(3) 0.7241(3)
C21B C 0.3607(5) -0.7903(3) 0.6534(3)
C22B C 0.2979(6) -0.7575(3) 0.6874(3)
H14B H 0.3177 -0.7715 0.7322
C23B C 0.1845(5) -0.6875(3) 0.5927(3)
H15B H 0.1247 -0.6507 0.5703
C24B C 0.2463(6) -0.7222(3) 0.5587(3)
H16B H 0.2265 -0.7085 0.5138
Ag1B Ag 0.16842(5) -0.47863(3) 0.55696(2)
Ag2B Ag 0.28741(4) -0.07180(3) 0.61406(2)
Ag3B Ag 1.04967(6) -0.83769(4) 0.82404(3)
Ag4B Ag 0.57236(5) -0.16237(3) 0.47241(3)
Ag5B Ag -0.07249(5) -0.33291(3) 0.29776(3)
N1B N 0.2062(5) -0.3504(3) 0.5702(3)
N2B N 0.2438(5) -0.1975(3) 0.5908(2)
N3B N 0.3700(5) -0.2159(3) 0.4384(3)
N4B N 0.1263(5) -0.2741(3) 0.3736(2)
N5B N 0.5295(5) -0.5711(3) 0.7778(2)
N6B N 0.3287(5) -0.5294(3) 0.6548(3)
N7B N 0.0072(4) -0.1488(2) 0.4462(2)
N8B N -0.1608(5) -0.0298(3) 0.4132(2)
N9B N 0.5995(4) -0.7241(2) 0.7158(2)
N10B N 0.8408(4) -0.7871(3) 0.7736(2)
N11B N 0.3337(4) -0.7749(3) 0.5886(2)
N12B N 0.2085(4) -0.7055(3) 0.6567(2)
O1B O -0.0284(6) -0.5521(4) 0.3397(3)
O2B O -0.0008(6) -0.4412(3) 0.4019(3)
O3B O 0.1745(6) -0.4966(3) 0.3927(4)
O4B O 0.0832(8) -0.5550(4) 0.4593(3)
O5B O 1.1593(6) -0.7295(4) 0.8126(3)
O6B O -0.0030(5) -0.4274(3) 0.2457(3)
O7B O 1.2581(9) -0.7878(6) 0.9152(4)
O8B O 1.3692(6) -0.7827(4) 0.8495(4)
O9B O 1.3340(11) -0.6745(5) 0.9022(6)
S1B S 0.00376(15) -0.16944(8) 0.56840(7)
S2B S 0.01866(17) -0.14256(10) 0.32522(7)
S3B S 0.69598(14) -0.58541(8) 0.72474(8)
S4B S 0.48241(16) -0.85684(8) 0.69645(10)
S5B S 0.06010(15) -0.51131(9) 0.39958(8)
S6B S 1.2878(2) -0.73820(10) 0.86871(8)
H17B H 0.0086 -0.4671 0.2727
H18B H -0.0724 -0.4468 0.2118
Ag2_2 Ag -0.28741(4) 0.07180(3) 0.38594(2)
Ag2A Ag 0.28741(4) 0.57180(3) 0.11406(2)
Ag2B_2 Ag 1.28741(4) -0.07180(3) 0.61406(2)
Ag2C Ag 0.71259(4) -0.57180(3) 0.88594(2)
Ag3_2 Ag -0.04967(6) -0.16231(4) 0.17596(3)
Ag3A Ag 0.04967(6) -0.66231(4) 0.32404(3)
Ag3B_2 Ag 1.04967(6) 0.16231(4) 0.82404(3)
Ag3C Ag 0.95033(6) 0.66231(4) 0.67596(3)
Ag4_2 Ag 0.42764(5) -0.83763(3) 0.52759(3)
Ag4A Ag -0.42764(5) 0.66237(3) -0.02759(3)
Ag4B_2 Ag 0.57236(5) 0.83763(3) 0.47241(3)
Ag4C Ag 1.42764(5) -0.66237(3) 1.02759(3)
Ag5_2 Ag 0.07249(5) -0.66709(3) 0.70224(3)
Ag5_3 Ag 1.07249(5) -0.66709(3) 0.70224(3)
Ag5B_2 Ag -0.07249(5) 0.66709(3) 0.29776(3)
Ag5B_3 Ag 0.92751(5) 0.66709(3) 0.29776(3)
N5A N 0.5295(5) 0.0711(3) 0.2778(2)
N5C N 0.4705(5) -0.0711(3) 0.7222(2)
N8_2 N 0.1608(5) 0.0298(3) 0.5868(2)
N8B_2 N 0.8392(5) -0.0298(3) 0.4132(2)
N11_2 N 0.6663(4) -0.2251(3) 0.4114(2)
N11B_2 N 0.3337(4) 0.2251(3) 0.5886(2)
N12_2 N -0.2085(4) -0.2945(3) 0.3433(2)
N12B_2 N 1.2085(4) 0.2945(3) 0.6567(2)
O1A O 0.9716(6) -0.9479(4) 0.8397(3)
O1C O 0.0284(6) 0.9479(4) 0.1603(3)
O5_2 O -0.1593(6) -0.2705(4) 0.1874(3)
O5B_2 O 1.1593(6) 0.2705(4) 0.8126(3)
O9A O 0.3340(11) 0.1745(5) 0.4022(6)
O9C O 0.6660(11) -0.1745(5) 0.5978(6)
S2_2 S 0.98134(17) -0.85744(10) 0.67478(7)
S2B_2 S 0.01866(17) 0.85744(10) 0.32522(7)
loop_
_geom_bond_atom_site_label_1
_geom_bond_atom_site_label_2
_geom_bond_site_symmetry_1
_geom_bond_site_symmetry_2
C1 H1 1_555 1_555
C2 C1 1_555 1_555
H2 C2 1_555 1_555
C3 C4 1_555 1_555
C4 H3 1_555 1_555
C5 C12 1_555 1_555
C6 C7 1_555 1_555
C7 H4 1_555 1_555
C8 H5 1_555 1_555
C9 C8 1_555 1_555
C10 H6 1_555 1_555
C11 C10 1_555 1_555
H7 C11 1_555 1_555
C12 H8 1_555 1_555
C13 H9 1_555 1_555
C14 C13 1_555 1_555
H10 C14 1_555 1_555
C15 H11 1_555 1_555
C16 C15 1_555 1_555
C17 C18 1_555 1_555
C18 H12 1_555 1_555
C19 H13 1_555 1_555
C20 C19 1_555 1_555
C21 C22 1_555 1_555
C22 H14 1_555 1_555
C23 H15 1_555 1_555
C24 C23 1_555 1_555
H16 C24 1_555 1_555
Ag1 N1 1_555 1_555
Ag2 N2 1_555 1_555
Ag3 N10 1_555 1_555
Ag4 N3 1_555 1_555
Ag5 N4 1_555 1_555
N1 C1 1_555 1_555
N2 C2 1_555 1_555
N3 C11 1_555 1_555
N4 C5 1_555 1_555
N5 C13 1_555 1_555
N6 C14 1_555 1_555
N7 C6 1_555 1_555
N8 C7 1_555 1_555
N9 C17 1_555 1_555
N10 C18 1_555 1_555
N11 C21 1_555 1_555
N12 C22 1_555 1_555
O1 S5 1_555 1_555
O2 S5 1_555 1_555
O3 S5 1_555 1_555
O4 Ag1 1_555 1_555
O5 Ag3 1_555 1_555
O6 Ag5 1_555 1_555
O7 Ag3 1_555 1_555
O8 S6 1_555 1_555
O9 S6 1_555 1_555
O10 S7 1_555 1_555
O11 Ag4 1_555 1_555
O12 S7 1_555 1_555
O13 Ag2 1_555 1_555
S1 C3 1_555 1_555
S2 C5 1_555 1_555
S3 C16 1_555 1_555
S4 C20 1_555 1_555
S5 O4 1_555 1_555
S6 O5 1_555 1_555
S7 O11 1_555 1_555
H17 O6 1_555 1_555
H18 O6 1_555 1_555
O16 H19 1_555 1_555
H20 O16 1_555 1_555
O17 H21 1_555 1_555
H22 O17 1_555 1_555
O10B O11 1_555 1_555
O11B O10 1_555 1_555
O12B Ag4 1_555 1_555
O13B S7B 1_555 1_555
S7B O11 1_555 1_555
C1B H1B 1_555 1_555
C2B C1B 1_555 1_555
H2B C2B 1_555 1_555
C3B C4B 1_555 1_555
C4B H3B 1_555 1_555
C5B C12B 1_555 1_555
C6B C7B 1_555 1_555
C7B H4B 1_555 1_555
C8B H5B 1_555 1_555
C9B C8B 1_555 1_555
C10B H6B 1_555 1_555
C11B C10B 1_555 1_555
H7B C11B 1_555 1_555
C12B H8B 1_555 1_555
C13B H9B 1_555 1_555
C14B C13B 1_555 1_555
H10B C14B 1_555 1_555
C15B H11B 1_555 1_555
C16B C15B 1_555 1_555
C17B C18B 1_555 1_555
C18B H12B 1_555 1_555
C19B H13B 1_555 1_555
C20B C19B 1_555 1_555
C21B C22B 1_555 1_555
C22B H14B 1_555 1_555
C23B H15B 1_555 1_555
C24B C23B 1_555 1_555
H16B C24B 1_555 1_555
Ag1B N1B 1_555 1_555
Ag2B O13B 1_555 1_555
Ag3B N10B 1_555 1_555
Ag4B O12 1_555 1_555
Ag5B N4B 1_555 1_555
N1B C1B 1_555 1_555
N2B C2B 1_555 1_555
N3B C11B 1_555 1_555
N4B C5B 1_555 1_555
N5B C13B 1_555 1_555
N6B C14B 1_555 1_555
N7B C6B 1_555 1_555
N8B C7B 1_555 1_555
N9B C17B 1_555 1_555
N10B C18B 1_555 1_555
N11B C21B 1_555 1_555
N12B C22B 1_555 1_555
O1B S5B 1_555 1_555
O2B S5B 1_555 1_555
O3B S5B 1_555 1_555
O4B Ag1B 1_555 1_555
O5B Ag3B 1_555 1_555
O6B Ag5B 1_555 1_555
O7B Ag3B 1_555 1_555
O8B S6B 1_555 1_555
O9B S6B 1_555 1_555
S1B C3B 1_555 1_555
S2B C5B 1_555 1_555
S3B C16B 1_555 1_555
S4B C20B 1_555 1_555
S5B O4B 1_555 1_555
S6B O5B 1_555 1_555
H17B O6B 1_555 1_555
H18B O6B 1_555 1_555
Ag2_2 N8B 1_555 1_555
Ag2A N5 1_555 1_555
Ag2B_2 N8 1_555 1_555
Ag2C N5B 1_555 1_555
Ag3_2 S2B 1_555 1_555
Ag3A O1B 1_555 1_555
Ag3B_2 S2 1_555 1_555
Ag3C O1 1_555 1_555
Ag4_2 N11B 1_555 1_555
Ag4A O9 1_555 1_555
Ag4B_2 N11 1_555 1_555
Ag4C O9B 1_555 1_555
Ag5_2 N12B 1_555 1_555
Ag5_3 O5B 1_555 1_555
Ag5B_2 O5 1_555 1_555
Ag5B_3 N12 1_555 1_555
N5A Ag2 1_555 1_555
N5C Ag2B 1_555 1_555
N8_2 Ag2B 1_555 1_555
N8B_2 Ag2 1_555 1_555
N11_2 Ag4B 1_555 1_555
N11B_2 Ag4 1_555 1_555
N12_2 Ag5B 1_555 1_555
N12B_2 Ag5 1_555 1_555
O1A Ag3B 1_555 1_555
O1C Ag3 1_555 1_555
O5_2 Ag5B 1_555 1_555
O5B_2 Ag5 1_555 1_555
O9A Ag4 1_555 1_555
O9C Ag4B 1_555 1_555
S2_2 Ag3B 1_555 1_555
S2B_2 Ag3 1_555 1_555
C3 N2 1_555 1_555
C4 N1 1_555 1_555
C6 S1 1_555 1_555
C8 N8 1_555 1_555
C9 N7 1_555 1_555
C9 S2 1_555 1_555
C10 N4 1_555 1_555
C12 N3 1_555 1_555
C15 N6 1_555 1_555
C16 N5 1_555 1_555
C17 S3 1_555 1_555
C19 N10 1_555 1_555
C20 N9 1_555 1_555
C21 S4 1_555 1_555
C23 N12 1_555 1_555
C24 N11 1_555 1_555
Ag1 N6 1_555 1_555
O7 S6 1_555 1_555
O11 O12B 1_555 1_555
O12 O11B 1_555 1_555
O13 S7 1_555 1_555
S7 O11B 1_555 1_555
O10B S7B 1_555 1_555
O11B S7B 1_555 1_555
O11B Ag4B 1_555 1_555
O12B S7B 1_555 1_555
C3B N2B 1_555 1_555
C4B N1B 1_555 1_555
C6B S1B 1_555 1_555
C8B N8B 1_555 1_555
C9B N7B 1_555 1_555
C9B S2B 1_555 1_555
C10B N4B 1_555 1_555
C12B N3B 1_555 1_555
C15B N6B 1_555 1_555
C16B N5B 1_555 1_555
C17B S3B 1_555 1_555
C19B N10B 1_555 1_555
C20B N9B 1_555 1_555
C21B S4B 1_555 1_555
C23B N12B 1_555 1_555
C24B N11B 1_555 1_555
Ag1B N6B 1_555 1_555
Ag2B N2B 1_555 1_555
Ag4B N3B 1_555 1_555
O7B S6B 1_555 1_555
Ag3_2 O5_2 1_555 1_555
Ag3B_2 O5B_2 1_555 1_555

#END
