
#######################################################################
#
#                 Cambridge Crystallographic Data Centre
#                                CCDC 
#
#######################################################################
#
# If this CIF has been generated from an entry in the Cambridge 
# Structural Database, then it will include bibliographic, chemical, 
# crystal, experimental, refinement or atomic coordinate data resulting 
# from the CCDC's data processing and validation procedures.
#
#######################################################################

data_HIZFIH
_symmetry_cell_setting           monoclinic
_symmetry_space_group_name_H-M   'P 21/n'
_symmetry_Int_Tables_number      14
_space_group_name_Hall           '-P 2yn'
loop_
_symmetry_equiv_pos_site_id
_symmetry_equiv_pos_as_xyz
1 x,y,z
2 1/2-x,1/2+y,1/2-z
3 -x,-y,-z
4 1/2+x,1/2-y,1/2+z
_cell_length_a                   15.10391(27)
_cell_length_b                   12.80183(20)
_cell_length_c                   3.864549(57)
_cell_angle_alpha                90
_cell_angle_beta                 97.2028(14)
_cell_angle_gamma                90
_cell_volume                     741.343
loop_
_atom_site_label
_atom_site_type_symbol
_atom_site_fract_x
_atom_site_fract_y
_atom_site_fract_z
Tl1 Tl 0.057804(64) 0.325640(67) -0.49777(25)
N1 N 0.24107(44) 0.67585(52) 0.3064(19)
N2 N 0.27835(40) 0.50191(47) 0.2400(21)
S1 S 0.40982(21) 0.63603(35) 0.51285(96)
O1 O 0.19234(53) 0.37997(44) 0.0336(14)
O2 O 0.10144(34) 0.72423(38) 0.1384(18)
C1 C 0.30109(44) 0.60107(63) 0.3369(22)
C2 C 0.19338(49) 0.47699(56) 0.0978(27)
C3 C 0.15638(42) 0.64968(59) 0.1695(23)
C4 C 0.13117(42) 0.55223(57) 0.0658(23)
H1 H 0.25211 0.73989 0.36169
H2 H 0.0716 0.53503 -0.01526
Tl2 Tl 0.102077(52) 0.905252(85) -0.33611(29)
Tl1_2 Tl 0.057804(64) 0.325640(67) 0.50223(25)
Tl1B Tl -0.057804(64) 0.674360(67) -0.50223(25)
Tl1B_2 Tl -0.057804(64) 0.674360(67) 0.49777(25)
Tl1A Tl 0.442196(64) 0.825640(67) -0.00223(25)
Tl1A_2 Tl 0.442196(64) 0.825640(67) 0.99777(25)
N2A N 0.22165(40) 1.00191(47) -0.7400(21)
N2A_2 N 0.22165(40) 1.00191(47) 0.2600(21)
S1A S 0.09018(21) 0.13603(35) -1.01285(96)
S1A_2 S 0.09018(21) 0.13603(35) -0.01285(96)
S1A_3 S 0.09018(21) 1.13603(35) -0.01285(96)
S1C S -0.09018(21) 0.86397(35) 0.01285(96)
O1_2 O 0.19234(53) 0.37997(44) -0.9664(14)
O2_2 O 0.10144(34) 0.72423(38) -0.8616(18)
O2B O -0.10144(34) 0.27577(38) -1.1384(18)
O2B_2 O -0.10144(34) 0.27577(38) -0.1384(18)
Tl2_2 Tl 0.102077(52) 0.905252(85) 0.66389(29)
Tl2A Tl 0.397923(52) 0.405252(85) -0.16389(29)
Tl2A_2 Tl 0.397923(52) 0.405252(85) 0.83611(29)
Tl2C Tl 0.602077(52) 0.594748(85) 0.16389(29)
loop_
_geom_bond_atom_site_label_1
_geom_bond_atom_site_label_2
_geom_bond_site_symmetry_1
_geom_bond_site_symmetry_2
Tl1 O1 1_555 1_555
N1 C1 1_555 1_555
N2 C1 1_555 1_555
S1 C1 1_555 1_555
O1 C2 1_555 1_555
O2 C3 1_555 1_555
C2 N2 1_555 1_555
C3 N1 1_555 1_555
C4 C2 1_555 1_555
H1 N1 1_555 1_555
H2 C4 1_555 1_555
Tl2 O2 1_555 1_555
Tl1_2 O1 1_555 1_555
Tl1B O2 1_555 1_555
Tl1B_2 O2 1_555 1_555
Tl1A S1 1_555 1_555
Tl1A_2 S1 1_555 1_555
N2A Tl2 1_555 1_555
N2A_2 Tl2 1_555 1_555
S1A Tl1 1_555 1_555
S1A_2 Tl1 1_555 1_555
S1A_3 Tl2 1_555 1_555
S1C Tl2 1_555 1_555
O1_2 Tl1 1_555 1_555
O2_2 Tl2 1_555 1_555
O2B Tl1 1_555 1_555
O2B_2 Tl1 1_555 1_555
Tl2_2 O2 1_555 1_555
Tl2A N2 1_555 1_555
Tl2A_2 N2 1_555 1_555
Tl2C S1 1_555 1_555
S1 Tl2A_2 1_555 1_555
C3 C4 1_555 1_555
Tl1_2 S1A_2 1_555 1_555
Tl1_2 O2B_2 1_555 1_555
Tl1B S1C 1_555 1_555
Tl1B O2_2 1_555 1_555
Tl1B_2 S1C 1_555 1_555
N2A_2 Tl2_2 1_555 1_555

#END
