
#######################################################################
#
#                 Cambridge Crystallographic Data Centre
#                                CCDC 
#
#######################################################################
#
# If this CIF has been generated from an entry in the Cambridge 
# Structural Database, then it will include bibliographic, chemical, 
# crystal, experimental, refinement or atomic coordinate data resulting 
# from the CCDC's data processing and validation procedures.
#
#######################################################################

data_HIZHUV
_symmetry_cell_setting           orthorhombic
_symmetry_space_group_name_H-M   'P b c a'
_symmetry_Int_Tables_number      61
_space_group_name_Hall           '-P 2ac 2ab'
loop_
_symmetry_equiv_pos_site_id
_symmetry_equiv_pos_as_xyz
1 x,y,z
2 1/2-x,-y,1/2+z
3 1/2+x,1/2-y,-z
4 -x,1/2+y,1/2-z
5 -x,-y,-z
6 1/2+x,y,1/2-z
7 1/2-x,1/2+y,z
8 x,1/2-y,1/2+z
_cell_length_a                   17.406(4)
_cell_length_b                   8.758(2)
_cell_length_c                   20.774(7)
_cell_angle_alpha                90
_cell_angle_beta                 90
_cell_angle_gamma                90
_cell_volume                     3166.82
loop_
_atom_site_label
_atom_site_type_symbol
_atom_site_fract_x
_atom_site_fract_y
_atom_site_fract_z
Cu1 Cu 0.334470(15) 0.80734(3) 0.635883(13)
O1 O 0.34599(9) 0.68721(18) 0.55887(8)
O2 O 0.34040(12) 0.8966(2) 0.49795(9)
O3 O 0.32547(9) 0.58818(19) 0.21813(7)
O4 O 0.33397(11) 0.8249(2) 0.25569(9)
N1 N 0.42879(12) 0.1756(2) 0.38005(9)
N2 N 0.55235(12) 0.1619(2) 0.35896(9)
N3 N 0.21849(12) 0.7970(2) 0.62810(9)
C1 C 0.34723(12) 0.3981(3) 0.40079(11)
C2 C 0.34845(11) 0.4943(3) 0.45363(10)
H1 H 0.3525 0.4519 0.4956
C3 C 0.34383(12) 0.6534(3) 0.44635(10)
C4 C 0.33879(12) 0.7146(3) 0.38449(11)
H2 H 0.3369 0.8222 0.3789
C5 C 0.33655(11) 0.6192(3) 0.33067(11)
C6 C 0.34035(11) 0.4612(3) 0.33926(11)
H3 H 0.3382 0.3958 0.3028
C7 C 0.35559(13) 0.2275(3) 0.40841(12)
H4 H 0.3542 0.2005 0.4547
H5 H 0.3122 0.1754 0.3868
C8 C 0.49922(14) 0.2227(3) 0.39649(11)
H6 H 0.5097 0.2913 0.4308
C9 C 0.51233(14) 0.0687(3) 0.31654(12)
H7 H 0.5350 0.0080 0.2837
C10 C 0.43665(14) 0.0774(3) 0.32889(11)
H8 H 0.3966 0.0259 0.3067
C11 C 0.18158(14) 0.6905(3) 0.59259(12)
H9 H 0.2112 0.6153 0.5709
C12 C 0.10319(15) 0.6866(3) 0.58666(13)
H10 H 0.0794 0.6093 0.5615
C13 C 0.05835(16) 0.7963(3) 0.61762(14)
H11 H 0.0040 0.7968 0.6136
C14 C 0.09629(15) 0.9048(3) 0.65463(12)
H12 H 0.0677 0.9809 0.6767
C15 C 0.17482(13) 0.9024(3) 0.65933(12)
H13 H 0.1996 0.9769 0.6853
C16 C 0.34373(13) 0.7573(3) 0.50415(11)
C17 C 0.33115(12) 0.6853(3) 0.26412(12)
Cu1G Cu 0.334470(15) 0.69266(3) 0.135883(13)
Cu1D Cu 0.665530(15) 0.19266(3) 0.364117(13)
O3G O 0.32547(9) 0.91182(19) 0.71813(7)
O4G O 0.33397(11) 0.6751(2) 0.75569(9)
N2D N 0.44765(12) 0.8381(2) 0.64104(9)
loop_
_geom_bond_atom_site_label_1
_geom_bond_atom_site_label_2
_geom_bond_site_symmetry_1
_geom_bond_site_symmetry_2
Cu1 O1 1_555 1_555
O1 C16 1_555 1_555
O2 C16 1_555 1_555
O3 C17 1_555 1_555
O4 C17 1_555 1_555
N1 C7 1_555 1_555
N2 C8 1_555 1_555
N3 Cu1 1_555 1_555
C1 C2 1_555 1_555
C2 H1 1_555 1_555
C3 C2 1_555 1_555
C4 C3 1_555 1_555
H2 C4 1_555 1_555
C5 C4 1_555 1_555
C6 C1 1_555 1_555
H3 C6 1_555 1_555
C7 C1 1_555 1_555
H4 C7 1_555 1_555
H5 C7 1_555 1_555
C8 N1 1_555 1_555
H6 C8 1_555 1_555
C9 N2 1_555 1_555
H7 C9 1_555 1_555
C10 N1 1_555 1_555
H8 C10 1_555 1_555
C11 N3 1_555 1_555
H9 C11 1_555 1_555
C12 C11 1_555 1_555
H10 C12 1_555 1_555
C13 C12 1_555 1_555
H11 C13 1_555 1_555
C14 C13 1_555 1_555
H12 C14 1_555 1_555
C15 N3 1_555 1_555
H13 C15 1_555 1_555
C16 C3 1_555 1_555
C17 C5 1_555 1_555
Cu1G O3 1_555 1_555
Cu1D N2 1_555 1_555
O3G Cu1 1_555 1_555
O4G Cu1 1_555 1_555
N2D Cu1 1_555 1_555
O4 Cu1G 1_555 1_555
C5 C6 1_555 1_555
C9 C10 1_555 1_555
C14 C15 1_555 1_555

#END
