
#######################################################################
#
#                 Cambridge Crystallographic Data Centre
#                                CCDC 
#
#######################################################################
#
# If this CIF has been generated from an entry in the Cambridge 
# Structural Database, then it will include bibliographic, chemical, 
# crystal, experimental, refinement or atomic coordinate data resulting 
# from the CCDC's data processing and validation procedures.
#
#######################################################################

data_HIZJEG01
_symmetry_cell_setting           triclinic
_symmetry_space_group_name_H-M   'P -1'
_symmetry_Int_Tables_number      2
_space_group_name_Hall           '-P 1'
loop_
_symmetry_equiv_pos_site_id
_symmetry_equiv_pos_as_xyz
1 x,y,z
2 -x,-y,-z
_cell_length_a                   8.1874(16)
_cell_length_b                   10.967(2)
_cell_length_c                   12.075(2)
_cell_angle_alpha                116.99(3)
_cell_angle_beta                 94.58(3)
_cell_angle_gamma                90.04(3)
_cell_volume                     962.223
loop_
_atom_site_label
_atom_site_type_symbol
_atom_site_fract_x
_atom_site_fract_y
_atom_site_fract_z
C1 C 0.7551(6) 0.4698(5) 0.7252(5)
C2 C 0.8059(6) 0.4148(5) 0.5966(4)
C3 C 0.9076(7) 0.3027(5) 0.5523(5)
H1 H 0.9448 0.2643 0.6058
C4 C 0.9543(7) 0.2477(6) 0.4336(5)
H2 H 1.0231 0.1716 0.4050
C5 C 0.9006(8) 0.3036(6) 0.3542(5)
H3 H 0.9313 0.2646 0.2712
C6 C 0.8033(8) 0.4151(6) 0.3963(5)
H4 H 0.7683 0.4537 0.3425
C7 C 0.7564(7) 0.4712(5) 0.5161(5)
H5 H 0.6900 0.5488 0.5446
C8 C 0.6792(7) 0.5985(5) 0.7790(5)
C9 C 0.5954(6) 0.6465(5) 0.8821(5)
C10 C 0.5123(8) 0.7812(6) 0.9199(5)
C11 C 0.7445(6) 0.7438(5) 1.2745(5)
C12 C 0.6938(6) 0.8195(5) 1.4043(5)
C13 C 0.5940(7) 0.7493(5) 1.4467(5)
H6 H 0.5592 0.6568 1.3933
C14 C 0.5458(7) 0.8144(6) 1.5668(5)
H7 H 0.4766 0.7669 1.5951
C15 C 0.5986(8) 0.9497(6) 1.6462(5)
H8 H 0.5674 0.9934 1.7290
C16 C 0.6962(8) 1.0198(6) 1.6042(5)
H9 H 0.7310 1.1123 1.6578
C17 C 0.7436(7) 0.9549(5) 1.4831(5)
H10 H 0.8103 1.0035 1.4543
C18 C 0.8217(7) 0.8196(6) 1.2206(5)
C19 C 0.9054(6) 0.7638(5) 1.1179(5)
C20 C 0.9878(8) 0.8612(6) 1.0796(5)
O1 O 0.7821(5) 0.3996(4) 0.7819(3)
O2 O 0.5679(4) 0.5909(4) 0.9543(3)
O3 O 0.7187(5) 0.6177(4) 1.2179(3)
O4 O 0.9314(4) 0.6378(3) 1.0452(3)
F1 F 0.3480(5) 0.7601(5) 0.8961(5)
F2 F 0.5513(8) 0.8495(5) 0.8594(5)
F3 F 0.5340(8) 0.8614(4) 1.0399(4)
F4 F 0.9663(8) 0.8205(5) 0.9594(4)
F5 F 0.9471(8) 0.9897(4) 1.1394(5)
F6 F 1.1513(6) 0.8647(5) 1.1048(5)
Pb1 Pb 0.749996(19) 0.452901(15) 1.000009(13)
H11 H 0.675(8) 0.638(7) 0.740(6)
H12 H 0.818(9) 0.894(8) 1.253(6)
O2A O 0.4321(4) 0.4091(4) 1.0457(3)
O4A O 1.0686(4) 0.3622(3) 0.9548(3)
Pb1A Pb 0.250004(19) 0.547099(15) 0.999991(13)
Pb1A_2 Pb 1.250004(19) 0.547099(15) 0.999991(13)
loop_
_geom_bond_atom_site_label_1
_geom_bond_atom_site_label_2
_geom_bond_site_symmetry_1
_geom_bond_site_symmetry_2
C1 C2 1_555 1_555
C2 C3 1_555 1_555
C3 H1 1_555 1_555
C4 C3 1_555 1_555
H2 C4 1_555 1_555
C5 C4 1_555 1_555
H3 C5 1_555 1_555
C6 C5 1_555 1_555
H4 C6 1_555 1_555
C7 C2 1_555 1_555
H5 C7 1_555 1_555
C8 C1 1_555 1_555
C9 C8 1_555 1_555
C10 C9 1_555 1_555
C11 C12 1_555 1_555
C12 C13 1_555 1_555
C13 H6 1_555 1_555
C14 C13 1_555 1_555
H7 C14 1_555 1_555
C15 C14 1_555 1_555
H8 C15 1_555 1_555
C16 C15 1_555 1_555
H9 C16 1_555 1_555
C17 C12 1_555 1_555
H10 C17 1_555 1_555
C18 C11 1_555 1_555
C19 C18 1_555 1_555
C20 C19 1_555 1_555
O1 C1 1_555 1_555
O2 C9 1_555 1_555
O3 C11 1_555 1_555
O4 C19 1_555 1_555
F1 C10 1_555 1_555
F2 C10 1_555 1_555
F3 C10 1_555 1_555
F4 C20 1_555 1_555
F5 C20 1_555 1_555
F6 C20 1_555 1_555
Pb1 O1 1_555 1_555
H11 C8 1_555 1_555
H12 C18 1_555 1_555
O2A Pb1 1_555 1_555
O4A Pb1 1_555 1_555
Pb1A O2 1_555 1_555
Pb1A_2 O4 1_555 1_555
C6 C7 1_555 1_555
C16 C17 1_555 1_555
O2 Pb1 1_555 1_555
O3 Pb1 1_555 1_555
O4 Pb1 1_555 1_555
O2A Pb1A 1_555 1_555
O4A Pb1A_2 1_555 1_555

#END
