
#######################################################################
#
#                 Cambridge Crystallographic Data Centre
#                                CCDC 
#
#######################################################################
#
# If this CIF has been generated from an entry in the Cambridge 
# Structural Database, then it will include bibliographic, chemical, 
# crystal, experimental, refinement or atomic coordinate data resulting 
# from the CCDC's data processing and validation procedures.
#
#######################################################################

data_HIZJUX
_symmetry_cell_setting           triclinic
_symmetry_space_group_name_H-M   'P -1'
_symmetry_Int_Tables_number      2
_space_group_name_Hall           '-P 1'
loop_
_symmetry_equiv_pos_site_id
_symmetry_equiv_pos_as_xyz
1 x,y,z
2 -x,-y,-z
_cell_length_a                   10.448(4)
_cell_length_b                   14.664(4)
_cell_length_c                   15.179(4)
_cell_angle_alpha                79.215(10)
_cell_angle_beta                 78.396(13)
_cell_angle_gamma                85.013(11)
_cell_volume                     2234.86
loop_
_atom_site_label
_atom_site_type_symbol
_atom_site_fract_x
_atom_site_fract_y
_atom_site_fract_z
Ni1 Ni 1.01725(3) 0.740701(18) 0.252141(18)
Ni2 Ni 0.49239(3) 0.741729(18) 0.762331(19)
O1 O 0.88772(17) 0.79525(12) 0.17445(11)
O2 O 0.94570(18) 0.72904(14) 0.05016(12)
O3 O 0.42450(15) 0.80824(11) -0.11495(11)
O4 O 0.60070(16) 0.71479(10) -0.13050(10)
O5 O 0.93221(16) 0.80356(11) 0.37215(11)
O6 O 1.11082(15) 0.71259(10) 0.36769(10)
O7 O 1.35027(17) 0.79654(11) 0.69242(11)
O8 O 1.42294(19) 0.73598(15) 0.56651(13)
N1 N 0.30393(19) 0.93726(13) 0.17411(13)
N2 N 0.13323(19) 0.85131(13) 0.20314(13)
N3 N 0.60513(19) 0.85172(12) 0.70327(13)
N4 N 0.77489(19) 0.93871(13) 0.66399(13)
N5 N 1.1348(2) 0.64592(13) 0.18240(13)
N6 N 0.9094(2) 0.62372(14) 0.30097(14)
N7 N 0.6020(2) 0.64456(14) 0.69242(14)
N8 N 0.3813(2) 0.62730(14) 0.81576(14)
C1 C 0.5313(2) 0.89530(15) 0.10870(15)
C2 C 0.6553(2) 0.86772(15) 0.12715(15)
H1 H 0.6837 0.8891 0.1750
C3 C 0.7378(2) 0.80927(15) 0.07641(15)
C4 C 0.6960(2) 0.77781(14) 0.00635(14)
H2 H 0.7521 0.7378 -0.0286
C5 C 0.5719(2) 0.80506(14) -0.01241(14)
C6 C 0.4903(2) 0.86407(15) 0.03845(15)
H3 H 0.4060 0.8832 0.0251
C7 C 0.4408(2) 0.95674(16) 0.16731(16)
H4 H 0.4622 0.9457 0.2292
H5 H 0.4542 1.0229 0.1402
C8 C 0.2495(2) 0.85936(15) 0.22182(15)
H6 H 0.2894 0.8154 0.2638
C9 C 0.1136(3) 0.92857(16) 0.13928(17)
H7 H 0.0379 0.9424 0.1125
C10 C 0.2186(3) 0.98197(16) 0.12039(17)
H8 H 0.2306 1.0388 0.0785
C11 C 0.8699(2) 0.77490(15) 0.10051(15)
C12 C 0.5294(2) 0.77319(14) -0.08985(14)
C13 C 1.0039(2) 0.89758(15) 0.60361(15)
C14 C 0.9722(2) 0.86255(15) 0.53192(15)
H9 H 0.8900 0.8794 0.5143
C15 C 1.0610(2) 0.80301(14) 0.48629(14)
C16 C 1.1812(2) 0.77800(15) 0.51194(14)
H10 H 1.2419 0.7377 0.4802
C17 C 1.2129(2) 0.81198(15) 0.58422(15)
C18 C 1.1241(2) 0.87219(15) 0.62867(15)
H11 H 1.1461 0.8965 0.6772
C19 C 0.9104(2) 0.96264(16) 0.65536(16)
H12 H 0.9310 0.9586 0.7169
H13 H 0.9216 1.0274 0.6228
C20 C 0.7226(2) 0.86246(15) 0.71799(15)
H14 H 0.7647 0.8217 0.7611
C21 C 0.5821(3) 0.92490(16) 0.63582(17)
H15 H 0.5049 0.9358 0.6105
C22 C 0.6871(3) 0.97895(17) 0.61126(17)
H16 H 0.6972 1.0338 0.5664
C23 C 1.0322(2) 0.76969(15) 0.40479(14)
C24 C 1.3409(2) 0.77913(16) 0.61480(15)
C25 C 1.2467(3) 0.65834(18) 0.12333(16)
H17 H 1.2779 0.7193 0.1053
C26 C 1.3209(3) 0.58551(19) 0.08645(18)
H18 H 1.4011 0.5971 0.0448
C27 C 1.2769(3) 0.49758(19) 0.11091(18)
H19 H 1.3265 0.4474 0.0867
C28 C 1.1579(3) 0.48207(17) 0.17197(18)
C29 C 1.1012(3) 0.39316(18) 0.1999(2)
H20 H 1.1452 0.3411 0.1759
C30 C 0.9868(3) 0.38202(18) 0.2595(2)
H21 H 0.9517 0.3223 0.2767
C31 C 0.7953(3) 0.4530(2) 0.35723(19)
H22 H 0.7549 0.3951 0.3767
C32 C 0.7356(3) 0.5307(2) 0.3871(2)
H23 H 0.6537 0.5272 0.4281
C33 C 0.7951(3) 0.61662(19) 0.35730(17)
H24 H 0.7520 0.6706 0.3782
C34 C 0.9693(3) 0.54668(16) 0.27045(16)
C35 C 1.0907(3) 0.55905(16) 0.20682(16)
C36 C 0.7130(3) 0.65488(19) 0.63109(17)
H25 H 0.7459 0.7152 0.6115
C37 C 0.7830(3) 0.5803(2) 0.5944(2)
H26 H 0.8629 0.5899 0.5519
C38 C 0.7346(4) 0.4932(2) 0.6207(2)
H27 H 0.7808 0.4419 0.5964
C39 C 0.6168(4) 0.48046(19) 0.6835(2)
C40 C 0.5559(5) 0.3928(2) 0.7134(3)
H28 H 0.5960 0.3397 0.6894
C41 C 0.4440(4) 0.38460(19) 0.7744(3)
H29 H 0.4070 0.3255 0.7933
C42 C 0.3783(4) 0.46260(19) 0.8120(2)
C43 C 0.2581(4) 0.4601(2) 0.8724(2)
H30 H 0.2151 0.4033 0.8927
C44 C 0.2025(3) 0.5389(2) 0.9023(2)
H31 H 0.1204 0.5374 0.9429
C45 C 0.4354(3) 0.54935(17) 0.78426(18)
C46 C 0.5551(3) 0.55872(17) 0.71875(17)
C47 C 0.2672(3) 0.6227(2) 0.87283(19)
H32 H 0.2280 0.6772 0.8945
C48 C 0.9172(3) 0.45876(18) 0.29724(19)
Ni1_2 Ni 0.01725(3) 0.740701(18) 0.252141(18)
Ni2_2 Ni 0.49239(3) 0.741729(18) -0.237669(19)
Ni2_3 Ni 1.49239(3) 0.741729(18) 0.762331(19)
O3_2 O 0.42450(15) 0.80824(11) 0.88505(11)
O4_2 O 0.60070(16) 0.71479(10) 0.86950(10)
O7_2 O 0.35027(17) 0.79654(11) 0.69242(11)
N2_2 N 1.13323(19) 0.85131(13) 0.20314(13)
O9 O 0.2299(3) 0.92166(17) 0.80971(18)
H33 H 0.237(4) 0.911(3) 0.865(3)
H34 H 0.276(4) 0.886(2) 0.771(2)
O10 O -0.0140(3) 0.80823(19) 0.85928(17)
H35 H 0.048(4) 0.839(3) 0.859(3)
H36 H -0.018(4) 0.783(3) 0.921(3)
O11 O 0.4976(3) 0.79899(19) 0.37051(17)
H37 H 0.563(4) 0.830(3) 0.368(3)
H38 H 0.484(4) 0.780(3) 0.428(3)
O12 O 0.7082(2) 0.92345(17) 0.3446(2)
H39 H 0.745(4) 0.956(3) 0.292(3)
H40 H 0.772(4) 0.892(3) 0.351(3)
loop_
_geom_bond_atom_site_label_1
_geom_bond_atom_site_label_2
_geom_bond_site_symmetry_1
_geom_bond_site_symmetry_2
Ni1 O1 1_555 1_555
Ni2 N3 1_555 1_555
O1 C11 1_555 1_555
O2 C11 1_555 1_555
O3 C12 1_555 1_555
O4 C12 1_555 1_555
O5 Ni1 1_555 1_555
O6 Ni1 1_555 1_555
O7 C24 1_555 1_555
O8 C24 1_555 1_555
N1 C7 1_555 1_555
N2 C8 1_555 1_555
N3 C20 1_555 1_555
N4 C19 1_555 1_555
N5 Ni1 1_555 1_555
N6 Ni1 1_555 1_555
N7 Ni2 1_555 1_555
N8 Ni2 1_555 1_555
C1 C2 1_555 1_555
C2 H1 1_555 1_555
C3 C2 1_555 1_555
C4 C3 1_555 1_555
H2 C4 1_555 1_555
C5 C4 1_555 1_555
C6 C1 1_555 1_555
H3 C6 1_555 1_555
C7 C1 1_555 1_555
H4 C7 1_555 1_555
H5 C7 1_555 1_555
C8 N1 1_555 1_555
H6 C8 1_555 1_555
C9 N2 1_555 1_555
H7 C9 1_555 1_555
C10 N1 1_555 1_555
H8 C10 1_555 1_555
C11 C3 1_555 1_555
C12 C5 1_555 1_555
C13 C14 1_555 1_555
C14 H9 1_555 1_555
C15 C14 1_555 1_555
C16 C15 1_555 1_555
H10 C16 1_555 1_555
C17 C16 1_555 1_555
C18 C13 1_555 1_555
H11 C18 1_555 1_555
C19 C13 1_555 1_555
H12 C19 1_555 1_555
H13 C19 1_555 1_555
C20 N4 1_555 1_555
H14 C20 1_555 1_555
C21 N3 1_555 1_555
H15 C21 1_555 1_555
C22 N4 1_555 1_555
H16 C22 1_555 1_555
C23 O5 1_555 1_555
C24 C17 1_555 1_555
C25 N5 1_555 1_555
H17 C25 1_555 1_555
C26 C25 1_555 1_555
H18 C26 1_555 1_555
C27 C26 1_555 1_555
H19 C27 1_555 1_555
C28 C27 1_555 1_555
C29 C28 1_555 1_555
H20 C29 1_555 1_555
C30 C29 1_555 1_555
H21 C30 1_555 1_555
C31 H22 1_555 1_555
C32 C31 1_555 1_555
H23 C32 1_555 1_555
C33 N6 1_555 1_555
H24 C33 1_555 1_555
C34 N6 1_555 1_555
C35 N5 1_555 1_555
C36 N7 1_555 1_555
H25 C36 1_555 1_555
C37 C36 1_555 1_555
H26 C37 1_555 1_555
C38 C37 1_555 1_555
H27 C38 1_555 1_555
C39 C38 1_555 1_555
C40 C39 1_555 1_555
H28 C40 1_555 1_555
C41 C40 1_555 1_555
H29 C41 1_555 1_555
C42 C41 1_555 1_555
C43 C42 1_555 1_555
H30 C43 1_555 1_555
C44 C43 1_555 1_555
H31 C44 1_555 1_555
C45 N8 1_555 1_555
C46 N7 1_555 1_555
C47 N8 1_555 1_555
H32 C47 1_555 1_555
C48 C30 1_555 1_555
O9 H33 1_555 1_555
H34 O9 1_555 1_555
O10 H35 1_555 1_555
H36 O10 1_555 1_555
O11 H37 1_555 1_555
H38 O11 1_555 1_555
O12 H39 1_555 1_555
H40 O12 1_555 1_555
Ni1_2 N2 1_555 1_555
Ni2_2 O3 1_555 1_555
Ni2_3 O7 1_555 1_555
O3_2 Ni2 1_555 1_555
O4_2 Ni2 1_555 1_555
O7_2 Ni2 1_555 1_555
N2_2 Ni1 1_555 1_555
O4 Ni2_2 1_555 1_555
O6 C23 1_555 1_555
C5 C6 1_555 1_555
C9 C10 1_555 1_555
C15 C23 1_555 1_555
C17 C18 1_555 1_555
C21 C22 1_555 1_555
C28 C35 1_555 1_555
C31 C48 1_555 1_555
C32 C33 1_555 1_555
C34 C35 1_555 1_555
C34 C48 1_555 1_555
C39 C46 1_555 1_555
C42 C45 1_555 1_555
C44 C47 1_555 1_555
C45 C46 1_555 1_555

#END
