
#######################################################################
#
#                 Cambridge Crystallographic Data Centre
#                                CCDC 
#
#######################################################################
#
# If this CIF has been generated from an entry in the Cambridge 
# Structural Database, then it will include bibliographic, chemical, 
# crystal, experimental, refinement or atomic coordinate data resulting 
# from the CCDC's data processing and validation procedures.
#
#######################################################################

data_HIZJIK
_symmetry_cell_setting           monoclinic
_symmetry_space_group_name_H-M   'P 21'
_symmetry_Int_Tables_number      4
_space_group_name_Hall           'P 2yb'
loop_
_symmetry_equiv_pos_site_id
_symmetry_equiv_pos_as_xyz
1 x,y,z
2 -x,1/2+y,-z
_cell_length_a                   9.1361(4)
_cell_length_b                   5.4237(2)
_cell_length_c                   16.6024(7)
_cell_angle_alpha                90
_cell_angle_beta                 95.860(4)
_cell_angle_gamma                90
_cell_volume                     818.374
loop_
_atom_site_label
_atom_site_type_symbol
_atom_site_fract_x
_atom_site_fract_y
_atom_site_fract_z
Na1 Na 0.39866(13) 0.2849(3) 0.55412(8)
Na2 Na -0.22338(13) 0.2855(3) 0.58521(8)
C1 C 0.1220(4) 0.0991(7) 0.6602(2)
O1 O 0.2467(2) 0.0510(5) 0.64039(15)
O2 O 0.0034(2) 0.0912(5) 0.61301(15)
C2 C 0.1097(3) 0.1693(7) 0.7478(2)
C3 C 0.0318(4) 0.3756(7) 0.7679(2)
C4 C 0.0211(4) 0.4410(8) 0.8476(2)
C5 C 0.0879(4) 0.2980(8) 0.9094(2)
C6 C 0.1637(4) 0.0876(8) 0.8912(2)
C7 C 0.1746(4) 0.0286(7) 0.8102(2)
F1 F -0.0342(2) 0.5232(4) 0.71028(13)
F2 F -0.0527(3) 0.6428(5) 0.86495(13)
F3 F 0.0776(2) 0.3604(5) 0.98593(12)
F4 F 0.2249(3) -0.0610(5) 0.94947(14)
F5 F 0.2439(2) -0.1818(5) 0.79484(14)
F6 F 0.2610(2) 0.6519(5) 0.27413(12)
C8 C 0.4090(3) 0.2817(7) 0.3790(2)
O3 O 0.4096(3) 0.0757(5) 0.41272(16)
O4 O 0.4122(3) 0.4843(5) 0.41389(16)
C9 C 0.4051(3) 0.2841(7) 0.28655(19)
C10 C 0.3351(4) 0.4704(7) 0.2399(2)
C11 C 0.3338(4) 0.4793(7) 0.1565(2)
C12 C 0.4054(4) 0.2996(9) 0.1172(2)
C13 C 0.4751(4) 0.1095(7) 0.1611(2)
C14 C 0.4742(3) 0.1052(7) 0.2439(2)
F7 F 0.2625(2) 0.6611(5) 0.11458(13)
F8 F 0.4073(2) 0.3104(6) 0.03695(12)
F9 F 0.5480(2) -0.0651(5) 0.12417(13)
F10 F 0.5508(2) -0.0778(4) 0.28382(13)
O5 O 0.2271(3) 0.6153(5) 0.55428(15)
O6 O -0.0922(3) 0.6253(5) 0.54113(16)
H1 H 0.1398 0.574 0.562
H2 H 0.248 0.735 0.587
H3 H -0.080 0.632 0.4911
H4 H -0.067 0.767 0.5598
Na1A Na 0.60134(13) -0.2151(3) 0.44588(8)
Na1A_2 Na 0.60134(13) 0.7849(3) 0.44588(8)
Na2A Na 0.22338(13) 0.7855(3) 0.41479(8)
Na2A_2 Na 0.22338(13) -0.2145(3) 0.41479(8)
F6A F -0.2610(2) 0.1519(5) 0.72587(12)
O3A O 0.5904(3) 0.5757(5) 0.58728(16)
O3A_2 O -0.4096(3) 0.5757(5) 0.58728(16)
O4A O 0.5878(3) -0.0157(5) 0.58611(16)
O4A_2 O -0.4122(3) -0.0157(5) 0.58611(16)
O5A O -0.2271(3) 0.1153(5) 0.44572(15)
H1A H -0.1398 0.074 0.438
H2A H -0.248 0.235 0.413
loop_
_geom_bond_atom_site_label_1
_geom_bond_atom_site_label_2
_geom_bond_site_symmetry_1
_geom_bond_site_symmetry_2
Na1 O1 1_555 1_555
Na2 O2 1_555 1_555
C1 O1 1_555 1_555
O2 C1 1_555 1_555
C2 C1 1_555 1_555
C3 C2 1_555 1_555
C4 C3 1_555 1_555
C5 C4 1_555 1_555
C6 C5 1_555 1_555
C7 C2 1_555 1_555
F1 C3 1_555 1_555
F2 C4 1_555 1_555
F3 C5 1_555 1_555
F4 C6 1_555 1_555
F5 C7 1_555 1_555
F6 C10 1_555 1_555
C8 O3 1_555 1_555
O3 Na1 1_555 1_555
O4 Na1 1_555 1_555
C9 C8 1_555 1_555
C10 C9 1_555 1_555
C11 C10 1_555 1_555
C12 C11 1_555 1_555
C13 C12 1_555 1_555
C14 C9 1_555 1_555
F7 C11 1_555 1_555
F8 C12 1_555 1_555
F9 C13 1_555 1_555
F10 C14 1_555 1_555
O5 Na1 1_555 1_555
O6 Na2 1_555 1_555
H1 O5 1_555 1_555
H2 O5 1_555 1_555
H3 O6 1_555 1_555
H4 O6 1_555 1_555
Na1A O3 1_555 1_555
Na1A_2 O4 1_555 1_555
Na2A F6 1_555 1_555
Na2A_2 O3 1_555 1_555
F6A Na2 1_555 1_555
O3A Na1 1_555 1_555
O3A_2 Na2 1_555 1_555
O4A Na1 1_555 1_555
O4A_2 Na2 1_555 1_555
O5A Na2 1_555 1_555
H1A O5A 1_555 1_555
H2A O5A 1_555 1_555
C6 C7 1_555 1_555
C8 O4 1_555 1_555
O4 Na2A 1_555 1_555
C13 C14 1_555 1_555
O5 Na2A 1_555 1_555
Na1A O4A 1_555 1_555
Na1A_2 O3A 1_555 1_555

#END
