
#######################################################################
#
#                 Cambridge Crystallographic Data Centre
#                                CCDC 
#
#######################################################################
#
# If this CIF has been generated from an entry in the Cambridge 
# Structural Database, then it will include bibliographic, chemical, 
# crystal, experimental, refinement or atomic coordinate data resulting 
# from the CCDC's data processing and validation procedures.
#
#######################################################################

data_HIZJEH
_symmetry_cell_setting           monoclinic
_symmetry_space_group_name_H-M   'P 21/c'
_symmetry_Int_Tables_number      14
_space_group_name_Hall           '-P 2ybc'
loop_
_symmetry_equiv_pos_site_id
_symmetry_equiv_pos_as_xyz
1 x,y,z
2 -x,1/2+y,1/2-z
3 -x,-y,-z
4 x,1/2-y,1/2+z
_cell_length_a                   8.8274(12)
_cell_length_b                   16.682(2)
_cell_length_c                   7.8691(11)
_cell_angle_alpha                90
_cell_angle_beta                 100.689(3)
_cell_angle_gamma                90
_cell_volume                     1138.69
loop_
_atom_site_label
_atom_site_type_symbol
_atom_site_fract_x
_atom_site_fract_y
_atom_site_fract_z
Mn1 Mn 0.16778(11) 1.21096(5) -0.46427(12)
N1 N 0.3689(6) 0.8801(3) 0.4629(7)
N2 N 0.6002(7) 0.8248(3) 0.5033(8)
O1 O 0.0157(6) 0.7642(3) -0.1377(7)
O2 O -0.0207(6) 0.8534(3) -0.3500(6)
O3 O 0.1965(6) 1.1209(3) -0.2748(6)
O4 O 0.2329(6) 1.1717(3) -0.0098(7)
C1 C 0.2164(7) 0.9455(4) 0.2041(8)
C2 C 0.1551(7) 0.8833(4) 0.0958(8)
H1 H 0.1391 0.8333 0.1419
C3 C 0.1181(7) 0.8956(4) -0.0801(8)
C4 C 0.1448(7) 0.9701(4) -0.1487(8)
H2 H 0.1220 0.9781 -0.2677
C5 C 0.2044(7) 1.0318(4) -0.0416(8)
C6 C 0.2404(7) 1.0192(4) 0.1356(8)
H3 H 0.2812 1.0609 0.2085
C7 C 0.2413(8) 0.9342(4) 0.3993(8)
H4 H 0.2618 0.9859 0.4552
H5 H 0.1478 0.9129 0.4302
C8 C 0.5103(8) 0.8822(4) 0.4262(9)
H6 H 0.5421 0.9203 0.3538
C9 C 0.5078(12) 0.7834(7) 0.5916(14)
H7 H 0.5380 0.7382 0.6585
C10 C 0.3655(10) 0.8166(6) 0.5694(12)
H8 H 0.2825 0.7994 0.6174
C11 C 0.0316(8) 0.8327(4) -0.1980(9)
C12 C 0.2131(7) 1.1148(4) -0.1136(9)
Mn1A Mn -0.16778(11) 0.71096(5) -0.03573(12)
Mn1B Mn -0.16778(11) 0.78904(5) -0.53573(12)
Mn1B_2 Mn 0.83222(11) 0.78904(5) 0.46427(12)
Mn1C Mn 0.16778(11) 1.28904(5) 0.03573(12)
N2B N 0.3998(7) 1.1752(3) -0.5033(8)
O1A O -0.0157(6) 1.2642(3) -0.3623(7)
O2B O 0.0207(6) 1.1466(3) -0.6500(6)
O4C O 0.2329(6) 1.3283(3) -0.5098(7)
loop_
_geom_bond_atom_site_label_1
_geom_bond_atom_site_label_2
_geom_bond_site_symmetry_1
_geom_bond_site_symmetry_2
Mn1 O3 1_555 1_555
N1 C7 1_555 1_555
N2 C8 1_555 1_555
O1 C11 1_555 1_555
O2 C11 1_555 1_555
O3 C12 1_555 1_555
O4 C12 1_555 1_555
C1 C2 1_555 1_555
C2 H1 1_555 1_555
C3 C2 1_555 1_555
C4 C3 1_555 1_555
H2 C4 1_555 1_555
C5 C4 1_555 1_555
C6 C1 1_555 1_555
H3 C6 1_555 1_555
C7 C1 1_555 1_555
H4 C7 1_555 1_555
H5 C7 1_555 1_555
C8 N1 1_555 1_555
H6 C8 1_555 1_555
C9 N2 1_555 1_555
H7 C9 1_555 1_555
C10 N1 1_555 1_555
H8 C10 1_555 1_555
C11 C3 1_555 1_555
C12 C5 1_555 1_555
Mn1A O1 1_555 1_555
Mn1B O2 1_555 1_555
Mn1B_2 N2 1_555 1_555
Mn1C O4 1_555 1_555
N2B Mn1 1_555 1_555
O1A Mn1 1_555 1_555
O2B Mn1 1_555 1_555
O4C Mn1 1_555 1_555
C5 C6 1_555 1_555
C9 C10 1_555 1_555

#END
