
#######################################################################
#
#                 Cambridge Crystallographic Data Centre
#                                CCDC 
#
#######################################################################
#
# If this CIF has been generated from an entry in the Cambridge 
# Structural Database, then it will include bibliographic, chemical, 
# crystal, experimental, refinement or atomic coordinate data resulting 
# from the CCDC's data processing and validation procedures.
#
#######################################################################

data_HIZJAD
_symmetry_cell_setting           triclinic
_symmetry_space_group_name_H-M   'P -1'
_symmetry_Int_Tables_number      2
_space_group_name_Hall           '-P 1'
loop_
_symmetry_equiv_pos_site_id
_symmetry_equiv_pos_as_xyz
1 x,y,z
2 -x,-y,-z
_cell_length_a                   9.5885(6)
_cell_length_b                   9.8352(6)
_cell_length_c                   13.9055(9)
_cell_angle_alpha                71.4010(10)
_cell_angle_beta                 80.9910(10)
_cell_angle_gamma                66.1990(10)
_cell_volume                     1136.58
loop_
_atom_site_label
_atom_site_type_symbol
_atom_site_fract_x
_atom_site_fract_y
_atom_site_fract_z
Cu1 Cu -0.29344(5) 0.35288(6) 0.76994(4)
N1 N -0.4809(5) 0.3521(5) 0.8568(3)
N2 N -0.2045(5) 0.2647(5) 0.9203(3)
N3 N -0.1027(4) 0.3526(4) 0.6942(3)
N4 N 0.1006(4) 0.3000(4) 0.5945(3)
O1 O 0.6564(3) 0.2513(3) 0.6858(2)
O2 O 0.7933(7) 0.0142(7) 0.7673(5)
O3 O 0.6489(4) -0.4164(3) 0.7667(2)
O4 O 0.5145(5) -0.3798(5) 0.6403(3)
C1 C 0.3621(4) 0.1055(5) 0.5903(3)
C2 C 0.4577(5) 0.1571(5) 0.6208(3)
H1 H 0.4366 0.2628 0.6037
C3 C 0.5853(5) 0.0522(5) 0.6771(3)
C4 C 0.6161(5) -0.1052(5) 0.7016(3)
H2 H 0.7004 -0.1759 0.7398
C5 C 0.5223(5) -0.1584(5) 0.6696(3)
C6 C 0.3958(5) -0.0523(5) 0.6139(3)
H3 H 0.3328 -0.0871 0.5921
C7 C 0.2230(5) 0.2213(5) 0.5302(3)
H4 H 0.2516 0.2978 0.4767
H5 H 0.1858 0.1681 0.4986
C8 C -0.0151(5) 0.2589(5) 0.6396(3)
H6 H -0.0323 0.1755 0.6335
C9 C -0.0371(5) 0.4584(5) 0.6825(4)
H7 H -0.0738 0.5393 0.7122
C10 C 0.0886(5) 0.4267(5) 0.6213(4)
H8 H 0.1539 0.4802 0.6014
C11 C 0.6866(6) 0.1071(5) 0.7143(4)
C12 C 0.5622(5) -0.3299(5) 0.6933(3)
C13 C -0.6165(6) 0.3986(7) 0.8185(4)
H9 H -0.6229 0.4217 0.7487
C14 C -0.7479(7) 0.4140(9) 0.8779(6)
H10 H -0.8410 0.4454 0.8490
C15 C -0.7384(9) 0.3820(11) 0.9809(6)
H11 H -0.8258 0.3941 1.0227
C16 C -0.5982(9) 0.3319(10) 1.0213(5)
H12 H -0.5899 0.3093 1.0909
C17 C -0.4695(6) 0.3152(6) 0.9579(4)
C18 C -0.3133(7) 0.2630(6) 0.9933(4)
C19 C -0.2787(10) 0.2090(9) 1.0952(5)
H13 H -0.3545 0.2057 1.1455
C20 C -0.1288(11) 0.1603(10) 1.1201(5)
H14 H -0.1031 0.1243 1.1879
C21 C -0.0196(9) 0.1645(8) 1.0465(5)
H15 H 0.0815 0.1320 1.0627
C22 C -0.0613(7) 0.2182(7) 0.9468(4)
H16 H 0.0136 0.2221 0.8958
Cu1_2 Cu 0.70656(5) -0.64712(6) 0.76994(4)
Cu1_3 Cu 0.70656(5) 0.35288(6) 0.76994(4)
O1_2 O -0.3436(3) 0.2513(3) 0.6858(2)
O3_2 O -0.3511(4) 0.5836(3) 0.7667(2)
O4_2 O -0.4855(5) 0.6202(5) 0.6403(3)
O5 O 0.2943(7) 0.6365(8) 0.5311(4)
H17 H 0.3148 0.6600 0.4631
H18 H 0.3743 0.6224 0.5588
O6 O 0.9639(16) 0.121(2) 0.4170(13)
loop_
_geom_bond_atom_site_label_1
_geom_bond_atom_site_label_2
_geom_bond_site_symmetry_1
_geom_bond_site_symmetry_2
Cu1 N1 1_555 1_555
N1 C13 1_555 1_555
N2 Cu1 1_555 1_555
N3 Cu1 1_555 1_555
N4 C7 1_555 1_555
O1 C11 1_555 1_555
O2 C11 1_555 1_555
O3 C12 1_555 1_555
O4 C12 1_555 1_555
C1 C2 1_555 1_555
C2 H1 1_555 1_555
C3 C2 1_555 1_555
C4 C3 1_555 1_555
H2 C4 1_555 1_555
C5 C4 1_555 1_555
C6 C1 1_555 1_555
H3 C6 1_555 1_555
C7 C1 1_555 1_555
H4 C7 1_555 1_555
H5 C7 1_555 1_555
C8 N3 1_555 1_555
H6 C8 1_555 1_555
C9 N3 1_555 1_555
H7 C9 1_555 1_555
C10 N4 1_555 1_555
H8 C10 1_555 1_555
C11 C3 1_555 1_555
C12 C5 1_555 1_555
C13 H9 1_555 1_555
C14 C13 1_555 1_555
H10 C14 1_555 1_555
C15 C14 1_555 1_555
H11 C15 1_555 1_555
C16 C15 1_555 1_555
H12 C16 1_555 1_555
C17 N1 1_555 1_555
C18 N2 1_555 1_555
C19 C18 1_555 1_555
H13 C19 1_555 1_555
C20 C19 1_555 1_555
H14 C20 1_555 1_555
C21 C20 1_555 1_555
H15 C21 1_555 1_555
C22 N2 1_555 1_555
H16 C22 1_555 1_555
O5 H17 1_555 1_555
H18 O5 1_555 1_555
Cu1_2 O3 1_555 1_555
Cu1_3 O1 1_555 1_555
O1_2 Cu1 1_555 1_555
O3_2 Cu1 1_555 1_555
O4_2 Cu1 1_555 1_555
N4 C8 1_555 1_555
O4 Cu1_2 1_555 1_555
C5 C6 1_555 1_555
C9 C10 1_555 1_555
C16 C17 1_555 1_555
C17 C18 1_555 1_555
C21 C22 1_555 1_555

#END
