
#######################################################################
#
#                 Cambridge Crystallographic Data Centre
#                                CCDC 
#
#######################################################################
#
# If this CIF has been generated from an entry in the Cambridge 
# Structural Database, then it will include bibliographic, chemical, 
# crystal, experimental, refinement or atomic coordinate data resulting 
# from the CCDC's data processing and validation procedures.
#
#######################################################################

data_HIZKEI
_symmetry_cell_setting           triclinic
_symmetry_space_group_name_H-M   'P -1'
_symmetry_Int_Tables_number      2
_space_group_name_Hall           '-P 1'
loop_
_symmetry_equiv_pos_site_id
_symmetry_equiv_pos_as_xyz
1 x,y,z
2 -x,-y,-z
_cell_length_a                   9.4978(6)
_cell_length_b                   10.2376(7)
_cell_length_c                   13.3159(13)
_cell_angle_alpha                100.4420(10)
_cell_angle_beta                 98.5720(10)
_cell_angle_gamma                115.7140(10)
_cell_volume                     1108.7
loop_
_atom_site_label
_atom_site_type_symbol
_atom_site_fract_x
_atom_site_fract_y
_atom_site_fract_z
Zn1 Zn 0.24231(5) 0.14889(5) 0.22084(3)
N1 N -0.0103(4) 0.0408(3) 0.2141(3)
N2 N 0.2367(4) 0.2037(3) 0.3818(2)
N3 N 0.4954(4) 0.2561(3) 0.2468(2)
N4 N 0.7295(4) 0.3895(3) 0.2168(2)
O1 O 0.7876(3) 0.0316(3) -0.1017(2)
O2 O 0.7408(4) 0.0731(3) -0.2557(2)
O3 O 0.7742(3) 0.7155(3) -0.1317(2)
O4 O 0.7863(4) 0.5706(3) -0.2708(2)
C1 C 0.8138(4) 0.4398(4) 0.0548(3)
C2 C 0.7996(4) 0.3019(4) 0.0047(3)
H1 H 0.8073 0.2383 0.0445
C3 C 0.7741(4) 0.2577(4) -0.1039(3)
C4 C 0.7637(4) 0.3533(4) -0.1629(3)
H2 H 0.7467 0.3240 -0.2359
C5 C 0.7784(4) 0.4919(4) -0.1145(3)
C6 C 0.8017(4) 0.5330(4) -0.0056(3)
H3 H 0.8094 0.6249 0.0273
C7 C 0.7783(5) 0.6001(4) -0.1776(3)
C8 C 0.7661(4) 0.1113(4) -0.1582(3)
C9 C 0.8500(5) 0.4920(4) 0.1732(3)
H4 H 0.9549 0.5026 0.2039
H5 H 0.8561 0.5907 0.1931
C10 C 0.5728(5) 0.3544(4) 0.1982(3)
H6 H 0.5251 0.3949 0.1560
C11 C 0.6075(5) 0.2258(6) 0.2979(4)
H7 H 0.5876 0.1592 0.3395
C12 C 0.7524(6) 0.3068(6) 0.2793(4)
H8 H 0.8485 0.3058 0.3046
C13 C -0.1290(6) -0.0428(5) 0.1257(4)
H9 H -0.1021 -0.0546 0.0615
C14 C -0.2889(6) -0.1117(7) 0.1263(5)
H10 H -0.3693 -0.1679 0.0637
C15 C -0.3280(6) -0.0959(7) 0.2220(6)
H11 H -0.4353 -0.1433 0.2249
C16 C -0.2069(6) -0.0094(6) 0.3127(5)
H12 H -0.2314 0.0032 0.3776
C17 C -0.0481(5) 0.0590(4) 0.3068(3)
C18 C 0.0915(5) 0.1559(4) 0.4004(3)
C19 C 0.0734(7) 0.1981(6) 0.5000(4)
H13 H -0.0293 0.1660 0.5113
C20 C 0.2089(8) 0.2884(6) 0.5828(4)
H14 H 0.1985 0.3168 0.6506
C21 C 0.3585(7) 0.3357(6) 0.5644(4)
H15 H 0.4515 0.3963 0.6191
C22 C 0.3682(6) 0.2916(5) 0.4631(3)
H16 H 0.4699 0.3238 0.4501
Zn1A Zn 0.75769(5) -0.14889(5) -0.22084(3)
Zn1A_2 Zn 0.75769(5) 0.85111(5) -0.22084(3)
O1A O 0.2124(3) -0.0316(3) 0.1017(2)
O2A O 0.2592(4) -0.0731(3) 0.2557(2)
O3A O 0.2258(3) 0.2845(3) 0.1317(2)
O5 O 0.6730(5) 0.1044(4) 0.5419(3)
H17 H 0.7095 0.0933 0.6009
H18 H 0.5838 0.1047 0.5461
O6 O 0.8649(6) 0.4217(5) 0.5646(3)
H19 H 0.8310 0.4746 0.6018
H20 H 0.7962 0.3276 0.5529
loop_
_geom_bond_atom_site_label_1
_geom_bond_atom_site_label_2
_geom_bond_site_symmetry_1
_geom_bond_site_symmetry_2
Zn1 N1 1_555 1_555
N1 C13 1_555 1_555
N2 Zn1 1_555 1_555
N3 Zn1 1_555 1_555
N4 C9 1_555 1_555
O1 C8 1_555 1_555
O2 C8 1_555 1_555
O3 C7 1_555 1_555
O4 C7 1_555 1_555
C1 C2 1_555 1_555
C2 H1 1_555 1_555
C3 C2 1_555 1_555
C4 C3 1_555 1_555
H2 C4 1_555 1_555
C5 C4 1_555 1_555
C6 C1 1_555 1_555
H3 C6 1_555 1_555
C7 C5 1_555 1_555
C8 C3 1_555 1_555
C9 C1 1_555 1_555
H4 C9 1_555 1_555
H5 C9 1_555 1_555
C10 N3 1_555 1_555
H6 C10 1_555 1_555
C11 N3 1_555 1_555
H7 C11 1_555 1_555
C12 N4 1_555 1_555
H8 C12 1_555 1_555
C13 H9 1_555 1_555
C14 C13 1_555 1_555
H10 C14 1_555 1_555
C15 C14 1_555 1_555
H11 C15 1_555 1_555
C16 C15 1_555 1_555
H12 C16 1_555 1_555
C17 N1 1_555 1_555
C18 N2 1_555 1_555
C19 C18 1_555 1_555
H13 C19 1_555 1_555
C20 C19 1_555 1_555
H14 C20 1_555 1_555
C21 C20 1_555 1_555
H15 C21 1_555 1_555
C22 N2 1_555 1_555
H16 C22 1_555 1_555
O5 H17 1_555 1_555
H18 O5 1_555 1_555
O6 H19 1_555 1_555
H20 O6 1_555 1_555
Zn1A O1 1_555 1_555
Zn1A_2 O3 1_555 1_555
O1A Zn1 1_555 1_555
O2A Zn1 1_555 1_555
O3A Zn1 1_555 1_555
N4 C10 1_555 1_555
O2 Zn1A 1_555 1_555
C5 C6 1_555 1_555
C11 C12 1_555 1_555
C16 C17 1_555 1_555
C17 C18 1_555 1_555
C21 C22 1_555 1_555

#END
