
#######################################################################
#
#                 Cambridge Crystallographic Data Centre
#                                CCDC 
#
#######################################################################
#
# If this CIF has been generated from an entry in the Cambridge 
# Structural Database, then it will include bibliographic, chemical, 
# crystal, experimental, refinement or atomic coordinate data resulting 
# from the CCDC's data processing and validation procedures.
#
#######################################################################

data_HIZPAJ
_symmetry_cell_setting           triclinic
_symmetry_space_group_name_H-M   'P -1'
_symmetry_Int_Tables_number      2
_space_group_name_Hall           '-P 1'
loop_
_symmetry_equiv_pos_site_id
_symmetry_equiv_pos_as_xyz
1 x,y,z
2 -x,-y,-z
_cell_length_a                   4.0721(11)
_cell_length_b                   8.784(2)
_cell_length_c                   10.982(3)
_cell_angle_alpha                110.278(5)
_cell_angle_beta                 95.380(9)
_cell_angle_gamma                90.369(10)
_cell_volume                     366.53
loop_
_atom_site_label
_atom_site_type_symbol
_atom_site_fract_x
_atom_site_fract_y
_atom_site_fract_z
Pb1 Pb 0.5000 0.0000 0.0000
Cl1 Cl 0.9625(3) -0.20967(12) -0.14744(11)
N1 N 0.4445(9) 0.1566(4) -0.1675(3)
N2 N 0.0153(9) 0.4376(4) -0.4733(3)
C1 C 0.5842(11) 0.3054(5) -0.1285(4)
H1 H 0.7275 0.3419 -0.0497
C2 C 0.5292(11) 0.4093(5) -0.1981(4)
H2 H 0.6341 0.5145 -0.1673
C3 C 0.3209(10) 0.3585(5) -0.3126(4)
C4 C 0.1796(11) 0.2016(5) -0.3543(4)
H3 H 0.0380 0.1612 -0.4334
C5 C 0.2471(12) 0.1057(5) -0.2798(4)
H4 H 0.1496 -0.0010 -0.3092
C6 C 0.2511(11) 0.4698(5) -0.3828(4)
H5 H 0.3827 0.5671 -0.3609
N1A N -0.4445(9) 0.8434(4) -0.8325(3)
N2A N -0.0153(9) 0.5624(4) -0.5267(3)
C1A C -0.5842(11) 0.6946(5) -0.8715(4)
H1A H -0.7275 0.6581 -0.9503
C2A C -0.5292(11) 0.5907(5) -0.8019(4)
H2A H -0.6341 0.4855 -0.8327
C3A C -0.3209(10) 0.6415(5) -0.6874(4)
C4A C -0.1796(11) 0.7984(5) -0.6457(4)
H3A H -0.0380 0.8388 -0.5666
C5A C -0.2471(12) 0.8943(5) -0.7202(4)
H4A H -0.1496 1.0010 -0.6908
C6A C -0.2511(11) 0.5302(5) -0.6172(4)
H5A H -0.3827 0.4329 -0.6391
Cl1A Cl 0.0375(3) 0.20967(12) 0.14744(11)
Pb1_2 Pb -0.5000 0.0000 0.0000
Pb1_3 Pb -0.5000 1.0000 -1.0000
Pb1_4 Pb 1.5000 0.0000 0.0000
Cl1_2 Cl -0.0375(3) -0.20967(12) -0.14744(11)
Cl1A_2 Cl 1.0375(3) 0.20967(12) 0.14744(11)
N1A_2 N 0.5555(9) -0.1566(4) 0.1675(3)
loop_
_geom_bond_atom_site_label_1
_geom_bond_atom_site_label_2
_geom_bond_site_symmetry_1
_geom_bond_site_symmetry_2
Pb1 Cl1 1_555 1_555
Cl1 Pb1_4 1_555 1_555
N1 Pb1 1_555 1_555
N2 C6 1_555 1_555
C1 N1 1_555 1_555
H1 C1 1_555 1_555
C2 C1 1_555 1_555
H2 C2 1_555 1_555
C3 C2 1_555 1_555
C4 C3 1_555 1_555
H3 C4 1_555 1_555
C5 N1 1_555 1_555
H4 C5 1_555 1_555
C6 C3 1_555 1_555
H5 C6 1_555 1_555
N1A C1A 1_555 1_555
N2A N2 1_555 1_555
C1A H1A 1_555 1_555
C2A C1A 1_555 1_555
H2A C2A 1_555 1_555
C3A C2A 1_555 1_555
C4A C3A 1_555 1_555
H3A C4A 1_555 1_555
C5A N1A 1_555 1_555
H4A C5A 1_555 1_555
C6A N2A 1_555 1_555
H5A C6A 1_555 1_555
Cl1A Pb1 1_555 1_555
Pb1_2 Cl1A 1_555 1_555
Pb1_3 N1A 1_555 1_555
Pb1_4 Cl1A_2 1_555 1_555
Cl1_2 Pb1 1_555 1_555
Cl1A_2 Pb1 1_555 1_555
N1A_2 Pb1 1_555 1_555
C4 C5 1_555 1_555
C3A C6A 1_555 1_555
C4A C5A 1_555 1_555
Pb1_2 Cl1_2 1_555 1_555

#END
