
#######################################################################
#
#                 Cambridge Crystallographic Data Centre
#                                CCDC 
#
#######################################################################
#
# If this CIF has been generated from an entry in the Cambridge 
# Structural Database, then it will include bibliographic, chemical, 
# crystal, experimental, refinement or atomic coordinate data resulting 
# from the CCDC's data processing and validation procedures.
#
#######################################################################

data_HIZPIQ
_symmetry_cell_setting           monoclinic
_symmetry_space_group_name_H-M   'P 21/c'
_symmetry_Int_Tables_number      14
_space_group_name_Hall           '-P 2ybc'
loop_
_symmetry_equiv_pos_site_id
_symmetry_equiv_pos_as_xyz
1 x,y,z
2 -x,1/2+y,1/2-z
3 -x,-y,-z
4 x,1/2-y,1/2+z
_cell_length_a                   9.2514(1)
_cell_length_b                   14.8207(3)
_cell_length_c                   20.5550(3)
_cell_angle_alpha                90
_cell_angle_beta                 93.376(1)
_cell_angle_gamma                90
_cell_volume                     2813.45
loop_
_atom_site_label
_atom_site_type_symbol
_atom_site_fract_x
_atom_site_fract_y
_atom_site_fract_z
Hg1 Hg -0.392550(16) 0.229950(11) -0.128390(7)
Br1 Br -0.58344(5) 0.10859(3) -0.15047(2)
Br2 Br -0.45156(5) 0.38388(3) -0.18442(2)
Fe1 Fe -0.47647(5) 0.28454(3) 0.07987(3)
P1 P -0.22813(10) 0.25515(6) -0.03303(5)
O1 O -0.8764(3) 0.35091(19) 0.09727(14)
N1 N -0.7452(4) 0.3723(2) 0.19194(16)
H1 H -0.6544 0.3539 0.2186
N2 N -1.2274(4) 0.3305(3) 0.29440(17)
C1 C -0.3136(4) 0.3254(2) 0.02424(18)
C2 C -0.4419(4) 0.3777(2) 0.00967(19)
H2 H -0.4923 0.3820 -0.0307
C3 C -0.4780(5) 0.4214(3) 0.0677(2)
H3 H -0.5563 0.4599 0.0720
C4 C -0.3749(4) 0.3966(3) 0.1179(2)
H4 H -0.3741 0.4158 0.1610
C5 C -0.2730(4) 0.3378(3) 0.0917(2)
H5 H -0.1937 0.3118 0.1144
C6 C -0.6698(4) 0.2585(3) 0.1174(2)
C7 C -0.5549(5) 0.2182(3) 0.1569(2)
H6 H -0.5318 0.2307 0.2006
C8 C -0.4828(5) 0.1561(3) 0.1180(2)
H7 H -0.4040 0.1206 0.1318
C9 C -0.5505(4) 0.1570(3) 0.0547(2)
H8 H -0.5237 0.1223 0.0198
C10 C -0.6659(4) 0.2195(3) 0.0534(2)
H9 H -0.7282 0.2330 0.0176
C11 C -0.7712(4) 0.3305(3) 0.13380(19)
C12 C -0.0688(4) 0.3143(2) -0.05803(17)
C13 C 0.0451(4) 0.2654(3) -0.0812(2)
H10 H 0.0421 0.2027 -0.0809
C14 C 0.1634(4) 0.3092(3) -0.1049(2)
H11 H 0.2387 0.2761 -0.1211
C15 C 0.1688(4) 0.4027(3) -0.1042(2)
H12 H 0.2489 0.4325 -0.1192
C16 C 0.0554(4) 0.4516(3) -0.0815(2)
H13 H 0.0590 0.5143 -0.0814
C17 C -0.0641(4) 0.4076(3) -0.05860(19)
H14 H -0.1409 0.4408 -0.0437
C18 C -0.1620(4) 0.1558(2) 0.01020(18)
C19 C -0.2273(4) 0.0721(3) -0.0016(2)
H15 H -0.2997 0.0657 -0.0346
C20 C -0.1832(5) -0.0017(3) 0.0364(2)
H16 H -0.2267 -0.0576 0.0290
C21 C -0.0758(5) 0.0080(3) 0.0847(2)
H17 H -0.0489 -0.0411 0.1109
C22 C -0.0072(5) 0.0902(3) 0.0949(2)
H18 H 0.0681 0.0954 0.1267
C23 C -0.0499(4) 0.1641(3) 0.05835(19)
H19 H -0.0043 0.2194 0.0656
C24 C -0.8447(5) 0.4395(3) 0.2140(2)
H20 H -0.7960 0.4750 0.2483
H21 H -0.8714 0.4798 0.1781
C25 C -0.9809(4) 0.3991(3) 0.23923(18)
C26 C -1.0932(4) 0.4553(3) 0.25656(19)
H22 H -1.0878 0.5171 0.2493
C27 C -1.2126(5) 0.4193(3) 0.28452(19)
H23 H -1.2852 0.4581 0.2969
C28 C -1.1239(5) 0.2760(3) 0.2746(2)
H24 H -1.1360 0.2140 0.2787
C29 C -0.9990(5) 0.3079(3) 0.2483(2)
H25 H -0.9276 0.2678 0.2368
Hg1C Hg -1.392550(16) 0.270050(11) 0.371610(7)
N2C N -0.2274(4) 0.1695(3) -0.20560(17)
loop_
_geom_bond_atom_site_label_1
_geom_bond_atom_site_label_2
_geom_bond_site_symmetry_1
_geom_bond_site_symmetry_2
Hg1 Br1 1_555 1_555
Br2 Hg1 1_555 1_555
Fe1 C1 1_555 1_555
P1 Hg1 1_555 1_555
O1 C11 1_555 1_555
N1 H1 1_555 1_555
N2 C27 1_555 1_555
C1 P1 1_555 1_555
C2 Fe1 1_555 1_555
H2 C2 1_555 1_555
C3 Fe1 1_555 1_555
H3 C3 1_555 1_555
C4 Fe1 1_555 1_555
H4 C4 1_555 1_555
C5 Fe1 1_555 1_555
H5 C5 1_555 1_555
C6 Fe1 1_555 1_555
C7 Fe1 1_555 1_555
H6 C7 1_555 1_555
C8 Fe1 1_555 1_555
H7 C8 1_555 1_555
C9 Fe1 1_555 1_555
H8 C9 1_555 1_555
C10 Fe1 1_555 1_555
H9 C10 1_555 1_555
C11 N1 1_555 1_555
C12 P1 1_555 1_555
C13 C12 1_555 1_555
H10 C13 1_555 1_555
C14 C13 1_555 1_555
H11 C14 1_555 1_555
C15 C14 1_555 1_555
H12 C15 1_555 1_555
C16 C15 1_555 1_555
H13 C16 1_555 1_555
C17 C12 1_555 1_555
H14 C17 1_555 1_555
C18 P1 1_555 1_555
C19 C18 1_555 1_555
H15 C19 1_555 1_555
C20 C19 1_555 1_555
H16 C20 1_555 1_555
C21 C20 1_555 1_555
H17 C21 1_555 1_555
C22 C21 1_555 1_555
H18 C22 1_555 1_555
C23 C18 1_555 1_555
H19 C23 1_555 1_555
C24 N1 1_555 1_555
H20 C24 1_555 1_555
H21 C24 1_555 1_555
C25 C24 1_555 1_555
C26 C25 1_555 1_555
H22 C26 1_555 1_555
C27 C26 1_555 1_555
H23 C27 1_555 1_555
C28 N2 1_555 1_555
H24 C28 1_555 1_555
C29 C25 1_555 1_555
H25 C29 1_555 1_555
Hg1C N2 1_555 1_555
N2C Hg1 1_555 1_555
C1 C2 1_555 1_555
C1 C5 1_555 1_555
C2 C3 1_555 1_555
C3 C4 1_555 1_555
C4 C5 1_555 1_555
C6 C7 1_555 1_555
C6 C10 1_555 1_555
C6 C11 1_555 1_555
C7 C8 1_555 1_555
C8 C9 1_555 1_555
C9 C10 1_555 1_555
C16 C17 1_555 1_555
C22 C23 1_555 1_555
C28 C29 1_555 1_555

#END
