
#######################################################################
#
#                 Cambridge Crystallographic Data Centre
#                                CCDC 
#
#######################################################################
#
# If this CIF has been generated from an entry in the Cambridge 
# Structural Database, then it will include bibliographic, chemical, 
# crystal, experimental, refinement or atomic coordinate data resulting 
# from the CCDC's data processing and validation procedures.
#
#######################################################################

data_HIZQEN
_symmetry_cell_setting           triclinic
_symmetry_space_group_name_H-M   'P -1'
_symmetry_Int_Tables_number      2
_space_group_name_Hall           '-P 1'
loop_
_symmetry_equiv_pos_site_id
_symmetry_equiv_pos_as_xyz
1 x,y,z
2 -x,-y,-z
_cell_length_a                   7.4523(9)
_cell_length_b                   9.7764(12)
_cell_length_c                   9.8469(12)
_cell_angle_alpha                118.255(2)
_cell_angle_beta                 102.118(2)
_cell_angle_gamma                91.358(2)
_cell_volume                     611.509
loop_
_atom_site_label
_atom_site_type_symbol
_atom_site_fract_x
_atom_site_fract_y
_atom_site_fract_z
Cd1 Cd 0.23786(2) -0.026218(19) 0.484304(18)
O1 O 0.2321(3) -0.1290(3) 0.6720(3)
O2 O 0.0696(3) 0.0563(2) 0.6704(2)
O3 O 0.4793(3) -0.1061(2) 0.3271(2)
O4 O 0.2409(3) -0.2702(2) 0.2874(3)
O5 O 0.2530(3) 0.1955(2) 0.4635(3)
N1 N 0.3268(4) 0.3291(4) 0.3427(4)
C1 C 0.1265(4) -0.0322(3) 0.7287(3)
C2 C 0.0630(3) -0.0139(3) 0.8709(3)
C3 C 0.1037(4) -0.1190(3) 0.9277(3)
H1 H 0.1740 -0.2003 0.8784
C4 C -0.0405(4) 0.1040(3) 0.9427(3)
H2 H -0.0686 0.1750 0.9035
C5 C 0.3864(4) -0.2423(3) 0.2543(3)
C6 C 0.4465(4) -0.3742(3) 0.1217(3)
C7 C 0.6347(4) -0.3829(3) 0.1277(3)
H3 H 0.7263 -0.3033 0.2147
C8 C 0.3135(4) -0.4916(3) -0.0059(3)
H4 H 0.1857 -0.4856 -0.0094
C9 C 0.3418(4) 0.2142(4) 0.3785(4)
H5 H 0.4250 0.1423 0.3368
C10 C 0.4306(6) 0.3385(6) 0.2372(6)
H6 H 0.5198 0.2634 0.2183
H7 H 0.4971 0.4449 0.2864
H8 H 0.3450 0.3133 0.1356
C11 C 0.1970(6) 0.4405(5) 0.3975(6)
H9 H 0.1271 0.4127 0.4569
H10 H 0.1110 0.4372 0.3054
H11 H 0.2657 0.5465 0.4668
Cd1A Cd -0.23786(2) 0.026218(19) 1.515696(18)
Cd1A_2 Cd -0.23786(2) 0.026218(19) 0.515696(18)
Cd1A_3 Cd 0.76214(2) 0.026218(19) 0.515696(18)
Cd1_2 Cd 0.23786(2) -0.026218(19) 1.484304(18)
Cd1_3 Cd 0.23786(2) -1.026218(19) -0.515696(18)
Cd1A_4 Cd 0.76214(2) -0.973782(19) -0.484304(18)
O1A O -0.2321(3) 0.1290(3) 1.3280(3)
O2A O -0.0696(3) -0.0563(2) 1.3296(2)
O2A_2 O -0.0696(3) -0.0563(2) 0.3296(2)
O2_2 O 0.0696(3) 0.0563(2) 1.6704(2)
O3A O 0.5207(3) -0.8939(2) -0.3271(2)
O3A_2 O 0.5207(3) 0.1061(2) 0.6729(2)
O3_2 O -0.5207(3) -0.1061(2) 1.3271(2)
O3A_3 O -0.4793(3) 0.1061(2) 1.6729(2)
O4A O 0.7591(3) -0.7298(2) -0.2874(3)
O4A_2 O -0.2409(3) 0.2702(2) 1.7126(3)
O5A O -0.2530(3) -0.1955(2) 1.5365(3)
N1A N -0.3268(4) -0.3291(4) 1.6573(4)
C1A C -0.1265(4) 0.0322(3) 1.2713(3)
C2A C -0.0630(3) 0.0139(3) 1.1291(3)
C3A C -0.1037(4) 0.1190(3) 1.0723(3)
H1A H -0.1740 0.2003 1.1216
C4A C 0.0405(4) -0.1040(3) 1.0573(3)
H2A H 0.0686 -0.1750 1.0965
C5A C 0.6136(4) -0.7577(3) -0.2543(3)
C6A C 0.5535(4) -0.6258(3) -0.1217(3)
C7A C 0.3653(4) -0.6171(3) -0.1277(3)
H3A H 0.2737 -0.6967 -0.2147
C8A C 0.6865(4) -0.5084(3) 0.0059(3)
H4A H 0.8143 -0.5144 0.0094
C9A C -0.3418(4) -0.2142(4) 1.6215(4)
H5A H -0.4250 -0.1423 1.6632
C10A C -0.4306(6) -0.3385(6) 1.7628(6)
H6A H -0.5198 -0.2634 1.7817
H7A H -0.4971 -0.4449 1.7136
H8A H -0.3450 -0.3133 1.8644
C11A C -0.1970(6) -0.4405(5) 1.6025(6)
H9A H -0.1271 -0.4127 1.5431
H10A H -0.1110 -0.4372 1.6946
H11A H -0.2657 -0.5465 1.5332
loop_
_geom_bond_atom_site_label_1
_geom_bond_atom_site_label_2
_geom_bond_site_symmetry_1
_geom_bond_site_symmetry_2
Cd1 O1 1_555 1_555
O1 C1 1_555 1_555
O2 Cd1 1_555 1_555
O3 Cd1 1_555 1_555
O4 Cd1 1_555 1_555
O5 Cd1 1_555 1_555
N1 C9 1_555 1_555
C1 O2 1_555 1_555
C2 C1 1_555 1_555
C3 C2 1_555 1_555
H1 C3 1_555 1_555
C4 C2 1_555 1_555
H2 C4 1_555 1_555
C5 O3 1_555 1_555
C6 C5 1_555 1_555
C7 C6 1_555 1_555
H3 C7 1_555 1_555
C8 C6 1_555 1_555
H4 C8 1_555 1_555
C9 O5 1_555 1_555
H5 C9 1_555 1_555
C10 N1 1_555 1_555
H6 C10 1_555 1_555
H7 C10 1_555 1_555
H8 C10 1_555 1_555
C11 N1 1_555 1_555
H9 C11 1_555 1_555
H10 C11 1_555 1_555
H11 C11 1_555 1_555
Cd1A O1A 1_555 1_555
Cd1A_2 O2 1_555 1_555
Cd1A_3 O3 1_555 1_555
Cd1_2 O2A 1_555 1_555
Cd1_3 O3A 1_555 1_555
Cd1A_4 O3A 1_555 1_555
O1A C1A 1_555 1_555
O2A Cd1A 1_555 1_555
O2A_2 Cd1 1_555 1_555
O2_2 Cd1A 1_555 1_555
O3A C5A 1_555 1_555
O3A_2 Cd1 1_555 1_555
O3_2 Cd1A 1_555 1_555
O3A_3 Cd1A 1_555 1_555
O4A Cd1A_4 1_555 1_555
O4A_2 Cd1A 1_555 1_555
O5A Cd1A 1_555 1_555
N1A C9A 1_555 1_555
C1A O2A 1_555 1_555
C2A C1A 1_555 1_555
C3A C4 1_555 1_555
H1A C3A 1_555 1_555
C4A C3 1_555 1_555
H2A C4A 1_555 1_555
C5A O4A 1_555 1_555
C6A C5A 1_555 1_555
C7A C8 1_555 1_555
H3A C7A 1_555 1_555
C8A C7 1_555 1_555
H4A C8A 1_555 1_555
C9A O5A 1_555 1_555
H5A C9A 1_555 1_555
C10A N1A 1_555 1_555
H6A C10A 1_555 1_555
H7A C10A 1_555 1_555
H8A C10A 1_555 1_555
C11A N1A 1_555 1_555
H9A C11A 1_555 1_555
H10A C11A 1_555 1_555
H11A C11A 1_555 1_555
O4 C5 1_555 1_555
Cd1A_2 O2A_2 1_555 1_555
Cd1A_3 O3A_2 1_555 1_555
Cd1_2 O2_2 1_555 1_555
C2A C3A 1_555 1_555
C2A C4A 1_555 1_555
C6A C7A 1_555 1_555
C6A C8A 1_555 1_555

#END
