
#######################################################################
#
#                 Cambridge Crystallographic Data Centre
#                                CCDC 
#
#######################################################################
#
# If this CIF has been generated from an entry in the Cambridge 
# Structural Database, then it will include bibliographic, chemical, 
# crystal, experimental, refinement or atomic coordinate data resulting 
# from the CCDC's data processing and validation procedures.
#
#######################################################################

data_HIZQIR01
_symmetry_cell_setting           monoclinic
_symmetry_space_group_name_H-M   'C 2/c'
_symmetry_Int_Tables_number      15
_space_group_name_Hall           '-C 2yn'
loop_
_symmetry_equiv_pos_site_id
_symmetry_equiv_pos_as_xyz
1 x,y,z
2 -x,y,1/2-z
3 1/2+x,1/2+y,z
4 1/2-x,1/2+y,1/2-z
5 -x,-y,-z
6 x,-y,1/2+z
7 1/2-x,1/2-y,-z
8 1/2+x,1/2-y,1/2+z
_cell_length_a                   28.167(6)
_cell_length_b                   9.3075(19)
_cell_length_c                   17.840(4)
_cell_angle_alpha                90
_cell_angle_beta                 114.74(3)
_cell_angle_gamma                90
_cell_volume                     4247.74
loop_
_atom_site_label
_atom_site_type_symbol
_atom_site_fract_x
_atom_site_fract_y
_atom_site_fract_z
Cd1 Cd 0.138909(5) 0.178467(15) 0.319269(8)
Cd2 Cd 0.0000 0.26142(2) 0.2500
O1 O 0.07683(6) 0.22726(17) 0.38146(9)
O2 O 0.16095(7) 0.27108(19) 0.44890(10)
O3 O 0.11655(7) 0.59372(17) 0.76762(10)
O4 O 0.03070(7) 0.58251(19) 0.68787(11)
O5 O 0.04603(7) 0.08548(18) 0.21964(9)
O6 O 0.11182(7) 0.1154(2) 0.18427(10)
O7 O 0.21975(7) 0.2217(2) 0.32653(12)
O8 O 0.15504(7) -0.05521(18) 0.36375(13)
N1 N 0.27748(9) 0.4026(3) 0.35105(16)
N2 N 0.12194(10) -0.2664(2) 0.38291(16)
C1 C 0.11508(9) 0.2761(2) 0.44345(12)
C2 C 0.10593(8) 0.3418(2) 0.51327(12)
C3 C 0.05681(9) 0.3391(3) 0.51269(14)
H1 H 0.0296 0.2923 0.4703
C4 C 0.14643(8) 0.4103(3) 0.57705(14)
H2 H 0.1797 0.4117 0.5780
C5 C 0.13757(9) 0.4771(3) 0.63970(14)
H3 H 0.1649 0.5227 0.6825
C6 C 0.04794(9) 0.4061(3) 0.57525(14)
H4 H 0.0147 0.4040 0.5744
C7 C 0.08797(9) 0.4756(2) 0.63851(12)
C8 C 0.07775(9) 0.5579(2) 0.70343(13)
C9 C 0.06535(9) 0.0838(2) 0.16691(13)
C10 C 0.03135(8) 0.0408(2) 0.08020(12)
C11 C -0.01517(9) -0.0304(2) 0.06269(13)
H5 H -0.0253 -0.0511 0.1049
C12 C 0.04661(8) 0.0709(3) 0.01731(13)
H6 H 0.0780 0.1183 0.0290
C13 C 0.24509(10) 0.3237(3) 0.36887(17)
H7 H 0.2409 0.3458 0.4166
C14 C 0.30779(19) 0.5150(5) 0.4071(3)
H8 H 0.2974 0.5231 0.4518
H9 H 0.3017 0.6047 0.3780
H10 H 0.3443 0.4915 0.4286
C15 C 0.28638(16) 0.3757(5) 0.2773(2)
H11 H 0.2635 0.3007 0.2453
H12 H 0.3220 0.3469 0.2932
H13 H 0.2795 0.4618 0.2448
C16 C 0.11777(11) -0.1339(3) 0.35550(17)
H14 H 0.0843 -0.0965 0.3278
C17 C 0.07622(15) -0.3515(3) 0.3731(2)
H15 H 0.0451 -0.2996 0.3397
H16 H 0.0766 -0.3697 0.4264
H17 H 0.0769 -0.4411 0.3469
C18 C 0.17236(17) -0.3329(4) 0.4235(4)
H18 H 0.1712 -0.4276 0.4015
H19 H 0.1815 -0.3392 0.4816
H20 H 0.1980 -0.2764 0.4144
O5D O -0.04603(7) -0.08548(18) -0.21964(9)
O6D O -0.11182(7) -0.1154(2) -0.18427(10)
C9D C -0.06535(9) -0.0838(2) -0.16691(13)
C10D C -0.03135(8) -0.0408(2) -0.08020(12)
C11D C 0.01517(9) 0.0304(2) -0.06269(13)
H5D H 0.0253 0.0511 -0.1049
C12D C -0.04661(8) -0.0709(3) -0.01731(13)
H6D H -0.0780 -0.1183 -0.0290
Cd1A Cd -0.138909(5) 0.178467(15) 0.180731(8)
O1A O -0.07683(6) 0.22726(17) 0.11854(9)
O2A O -0.16095(7) 0.27108(19) 0.05110(10)
O3A O -0.11655(7) 0.59372(17) -0.26762(10)
O4A O -0.03070(7) 0.58251(19) -0.18787(11)
O7A O -0.21975(7) 0.2217(2) 0.17347(12)
O8A O -0.15504(7) -0.05521(18) 0.13625(13)
N1A N -0.27748(9) 0.4026(3) 0.14895(16)
N2A N -0.12194(10) -0.2664(2) 0.11709(16)
C1A C -0.11508(9) 0.2761(2) 0.05655(12)
C2A C -0.10593(8) 0.3418(2) -0.01327(12)
C3A C -0.05681(9) 0.3391(3) -0.01269(14)
H1A H -0.0296 0.2923 0.0297
C4A C -0.14643(8) 0.4103(3) -0.07705(14)
H2A H -0.1797 0.4117 -0.0780
C5A C -0.13757(9) 0.4771(3) -0.13970(14)
H3A H -0.1649 0.5227 -0.1825
C6A C -0.04794(9) 0.4061(3) -0.07525(14)
H4A H -0.0147 0.4040 -0.0744
C7A C -0.08797(9) 0.4756(2) -0.13851(12)
C8A C -0.07775(9) 0.5579(2) -0.20343(13)
C13A C -0.24509(10) 0.3237(3) 0.13113(17)
H7A H -0.2409 0.3458 0.0834
C14A C -0.30779(19) 0.5150(5) 0.0929(3)
H8A H -0.2974 0.5231 0.0482
H9A H -0.3017 0.6047 0.1220
H10A H -0.3443 0.4915 0.0714
C15A C -0.28638(16) 0.3757(5) 0.2227(2)
H11A H -0.2635 0.3007 0.2547
H12A H -0.3220 0.3469 0.2068
H13A H -0.2795 0.4618 0.2552
C16A C -0.11777(11) -0.1339(3) 0.14450(17)
H14A H -0.0843 -0.0965 0.1722
C17A C -0.07622(15) -0.3515(3) 0.1269(2)
H15A H -0.0451 -0.2996 0.1603
H16A H -0.0766 -0.3697 0.0736
H17A H -0.0769 -0.4411 0.1531
C18A C -0.17236(17) -0.3329(4) 0.0765(4)
H18A H -0.1712 -0.4276 0.0985
H19A H -0.1815 -0.3392 0.0184
H20A H -0.1980 -0.2764 0.0856
Cd1D Cd -0.138909(5) -0.178467(15) -0.319269(8)
Cd1D_2 Cd -0.138909(5) 0.821533(15) -0.319269(8)
Cd1E Cd 0.138909(5) 0.821533(15) 0.819269(8)
Cd2D Cd 0.0000 -0.26142(2) -0.2500
Cd2D_2 Cd 0.0000 0.73858(2) -0.2500
Cd2D_3 Cd 0.0000 0.73858(2) 0.7500
O3D O -0.11655(7) 0.40628(17) 0.23238(10)
O3E O 0.11655(7) 0.40628(17) 0.26762(10)
O4D O -0.03070(7) 0.41749(19) 0.31213(11)
O4E O 0.03070(7) 0.41749(19) 0.18787(11)
O5A O -0.04603(7) 0.08548(18) 0.28036(9)
O6A O -0.11182(7) 0.1154(2) 0.31573(10)
loop_
_geom_bond_atom_site_label_1
_geom_bond_atom_site_label_2
_geom_bond_site_symmetry_1
_geom_bond_site_symmetry_2
Cd1 O1 1_555 1_555
Cd2 O1 1_555 1_555
O1 C1 1_555 1_555
O2 Cd1 1_555 1_555
O3 C8 1_555 1_555
O4 C8 1_555 1_555
O5 Cd1 1_555 1_555
O6 Cd1 1_555 1_555
O7 Cd1 1_555 1_555
O8 Cd1 1_555 1_555
N1 C13 1_555 1_555
N2 C16 1_555 1_555
C1 O2 1_555 1_555
C2 C1 1_555 1_555
C3 C2 1_555 1_555
H1 C3 1_555 1_555
C4 C2 1_555 1_555
H2 C4 1_555 1_555
C5 C4 1_555 1_555
H3 C5 1_555 1_555
C6 C3 1_555 1_555
H4 C6 1_555 1_555
C7 C5 1_555 1_555
C8 C7 1_555 1_555
C9 O5 1_555 1_555
C10 C9 1_555 1_555
C11 C10 1_555 1_555
H5 C11 1_555 1_555
C12 C10 1_555 1_555
H6 C12 1_555 1_555
C13 O7 1_555 1_555
H7 C13 1_555 1_555
C14 N1 1_555 1_555
H8 C14 1_555 1_555
H9 C14 1_555 1_555
H10 C14 1_555 1_555
C15 N1 1_555 1_555
H11 C15 1_555 1_555
H12 C15 1_555 1_555
H13 C15 1_555 1_555
C16 O8 1_555 1_555
H14 C16 1_555 1_555
C17 N2 1_555 1_555
H15 C17 1_555 1_555
H16 C17 1_555 1_555
H17 C17 1_555 1_555
C18 N2 1_555 1_555
H18 C18 1_555 1_555
H19 C18 1_555 1_555
H20 C18 1_555 1_555
O5D C9D 1_555 1_555
O6D C9D 1_555 1_555
C9D C10D 1_555 1_555
C10D C11D 1_555 1_555
C11D C12 1_555 1_555
H5D C11D 1_555 1_555
C12D C11 1_555 1_555
H6D C12D 1_555 1_555
Cd1A O1A 1_555 1_555
O1A Cd2 1_555 1_555
O2A Cd1A 1_555 1_555
O3A C8A 1_555 1_555
O4A C8A 1_555 1_555
O7A Cd1A 1_555 1_555
O8A Cd1A 1_555 1_555
N1A C13A 1_555 1_555
N2A C16A 1_555 1_555
C1A O1A 1_555 1_555
C2A C1A 1_555 1_555
C3A C2A 1_555 1_555
H1A C3A 1_555 1_555
C4A C2A 1_555 1_555
H2A C4A 1_555 1_555
C5A C4A 1_555 1_555
H3A C5A 1_555 1_555
C6A C3A 1_555 1_555
H4A C6A 1_555 1_555
C7A C5A 1_555 1_555
C8A C7A 1_555 1_555
C13A O7A 1_555 1_555
H7A C13A 1_555 1_555
C14A N1A 1_555 1_555
H8A C14A 1_555 1_555
H9A C14A 1_555 1_555
H10A C14A 1_555 1_555
C15A N1A 1_555 1_555
H11A C15A 1_555 1_555
H12A C15A 1_555 1_555
H13A C15A 1_555 1_555
C16A O8A 1_555 1_555
H14A C16A 1_555 1_555
C17A N2A 1_555 1_555
H15A C17A 1_555 1_555
H16A C17A 1_555 1_555
H17A C17A 1_555 1_555
C18A N2A 1_555 1_555
H18A C18A 1_555 1_555
H19A C18A 1_555 1_555
H20A C18A 1_555 1_555
Cd1D O5D 1_555 1_555
Cd1D_2 O3A 1_555 1_555
Cd1E O3 1_555 1_555
Cd2D O5D 1_555 1_555
Cd2D_2 O4A 1_555 1_555
Cd2D_3 O4 1_555 1_555
O3D Cd1A 1_555 1_555
O3E Cd1 1_555 1_555
O4D Cd2 1_555 1_555
O4E Cd2 1_555 1_555
O5A Cd2 1_555 1_555
O6A Cd1A 1_555 1_555
Cd2 O5 1_555 1_555
O6 C9 1_555 1_555
C6 C7 1_555 1_555
O6D Cd1D 1_555 1_555
C10D C12D 1_555 1_555
Cd1A O5A 1_555 1_555
O2A C1A 1_555 1_555
C6A C7A 1_555 1_555

#END
