
#######################################################################
#
#                 Cambridge Crystallographic Data Centre
#                                CCDC 
#
#######################################################################
#
# If this CIF has been generated from an entry in the Cambridge 
# Structural Database, then it will include bibliographic, chemical, 
# crystal, experimental, refinement or atomic coordinate data resulting 
# from the CCDC's data processing and validation procedures.
#
#######################################################################

data_HIZQIR
_symmetry_cell_setting           monoclinic
_symmetry_space_group_name_H-M   'C 2/c'
_symmetry_Int_Tables_number      15
_space_group_name_Hall           '-C 2yn'
loop_
_symmetry_equiv_pos_site_id
_symmetry_equiv_pos_as_xyz
1 x,y,z
2 1/2+x,1/2+y,z
3 -x,y,1/2-z
4 1/2-x,1/2+y,1/2-z
5 -x,-y,-z
6 1/2-x,1/2-y,-z
7 x,-y,1/2+z
8 1/2+x,1/2-y,1/2+z
_cell_length_a                   28.1090(4)
_cell_length_b                   9.1930(1)
_cell_length_c                   17.8780(2)
_cell_angle_alpha                90
_cell_angle_beta                 115.112(1)
_cell_angle_gamma                90
_cell_volume                     4183.12
loop_
_atom_site_label
_atom_site_type_symbol
_atom_site_fract_x
_atom_site_fract_y
_atom_site_fract_z
Cd1 Cd 0.139661(5) 0.322663(14) 0.320972(8)
Cd2 Cd 0.0000 0.241905(19) 0.2500
O1 O 0.16245(5) 0.23064(15) 0.45151(8)
O2 O 0.07745(5) 0.27533(14) 0.38237(8)
O3 O 0.11265(5) 0.38150(17) 0.18517(8)
O4 O 0.04715(5) 0.41802(15) 0.22107(8)
O5 O 0.15606(6) 0.55899(15) 0.36469(9)
O6 O 0.22050(5) 0.27739(16) 0.32792(9)
O7 O 0.11712(5) -0.09067(15) 0.77062(8)
O8 O 0.03069(5) -0.08330(16) 0.68787(9)
N1 N 0.12269(7) 0.77220(18) 0.38602(12)
N2 N 0.27870(7) 0.0923(2) 0.35352(12)
C1 C 0.11603(7) 0.2264(2) 0.44545(11)
C2 C 0.10692(7) 0.16041(19) 0.51491(11)
C3 C 0.14786(7) 0.0924(2) 0.58036(12)
H1 H 0.1821 0.0917 0.5822
C4 C 0.13892(8) 0.0254(2) 0.64294(12)
H2 H 0.1670 -0.0206 0.6875
C5 C 0.08853(7) 0.0259(2) 0.64022(11)
C6 C 0.04797(7) 0.0952(2) 0.57554(12)
H3 H 0.0138 0.0970 0.5739
C7 C 0.05706(8) 0.1622(2) 0.51298(12)
H4 H 0.0291 0.2093 0.4688
C8 C 0.06591(7) 0.4162(2) 0.16741(12)
C9 C 0.03168(7) 0.4589(2) 0.08071(11)
C10 C -0.01460(7) 0.5356(2) 0.06292(12)
H5 H -0.0246 0.5594 0.1060
C11 C 0.04603(7) 0.4228(2) 0.01732(12)
H6 H 0.0774 0.3696 0.0293
C12 C 0.11847(8) 0.6384(2) 0.35702(13)
H7 H 0.0841 0.5999 0.3281
C13 C 0.17384(10) 0.8401(3) 0.4290(2)
H8 H 0.1817 0.8507 0.4877
H9 H 0.1736 0.9362 0.4051
H10 H 0.2007 0.7792 0.4233
C14 C 0.07670(9) 0.8572(2) 0.37726(15)
H11 H 0.0447 0.8038 0.3427
H12 H 0.0771 0.9508 0.3513
H13 H 0.0775 0.8740 0.4319
C15 C 0.24593(7) 0.1737(2) 0.37087(13)
H14 H 0.2415 0.1514 0.4194
C16 C 0.30995(11) -0.0201(3) 0.41059(19)
H15 H 0.2996 -0.0282 0.4563
H16 H 0.3473 0.0056 0.4324
H17 H 0.3041 -0.1134 0.3815
C17 C 0.28742(10) 0.1175(3) 0.27979(16)
H18 H 0.2635 0.1936 0.2462
H19 H 0.2808 0.0274 0.2476
H20 H 0.3238 0.1483 0.2960
C18 C 0.07836(8) -0.0558(2) 0.70521(12)
Cd1B Cd -0.139661(5) 0.322663(14) 0.179028(8)
Cd1F Cd 0.139661(5) -0.322663(14) 0.820972(8)
Cd1D Cd -0.139661(5) 0.677337(14) -0.320972(8)
Cd1D_2 Cd -0.139661(5) -0.322663(14) -0.320972(8)
Cd2F Cd 0.0000 -0.241905(19) 0.7500
Cd2F_2 Cd 0.0000 0.758095(19) -0.2500
Cd2F_3 Cd 0.0000 -0.241905(19) -0.2500
O1B O -0.16245(5) 0.23064(15) 0.04849(8)
O2B O -0.07745(5) 0.27533(14) 0.11763(8)
O3D O -0.11265(5) 0.61850(17) -0.18517(8)
O3B O -0.11265(5) 0.38150(17) 0.31483(8)
O4D O -0.04715(5) 0.58198(15) -0.22107(8)
O4B O -0.04715(5) 0.41802(15) 0.27893(8)
O5B O -0.15606(6) 0.55899(15) 0.13531(9)
O6B O -0.22050(5) 0.27739(16) 0.17208(9)
O7B O -0.11712(5) -0.09067(15) -0.27062(8)
O7F O 0.11712(5) 0.09067(15) 0.27062(8)
O7D O -0.11712(5) 0.09067(15) 0.22938(8)
O8B O -0.03069(5) -0.08330(16) -0.18787(9)
O8F O 0.03069(5) 0.08330(16) 0.18787(9)
O8D O -0.03069(5) 0.08330(16) 0.31213(9)
N1B N -0.12269(7) 0.77220(18) 0.11398(12)
N2B N -0.27870(7) 0.0923(2) 0.14648(12)
C1B C -0.11603(7) 0.2264(2) 0.05455(11)
C2B C -0.10692(7) 0.16041(19) -0.01491(11)
C3B C -0.14786(7) 0.0924(2) -0.08036(12)
H1B H -0.1821 0.0917 -0.0822
C4B C -0.13892(8) 0.0254(2) -0.14294(12)
H2B H -0.1670 -0.0206 -0.1875
C5B C -0.08853(7) 0.0259(2) -0.14022(11)
C6B C -0.04797(7) 0.0952(2) -0.07554(12)
H3B H -0.0138 0.0970 -0.0739
C7B C -0.05706(8) 0.1622(2) -0.01298(12)
H4B H -0.0291 0.2093 0.0312
C8D C -0.06591(7) 0.5838(2) -0.16741(12)
C9D C -0.03168(7) 0.5411(2) -0.08071(11)
C10D C 0.01460(7) 0.4644(2) -0.06292(12)
H5D H 0.0246 0.4406 -0.1060
C11D C -0.04603(7) 0.5772(2) -0.01732(12)
H6D H -0.0774 0.6304 -0.0293
C12B C -0.11847(8) 0.6384(2) 0.14298(13)
H7B H -0.0841 0.5999 0.1719
C13B C -0.17384(10) 0.8401(3) 0.0710(2)
H8B H -0.1817 0.8507 0.0123
H9B H -0.1736 0.9362 0.0949
H10B H -0.2007 0.7792 0.0767
C14B C -0.07670(9) 0.8572(2) 0.12274(15)
H11B H -0.0447 0.8038 0.1573
H12B H -0.0771 0.9508 0.1487
H13B H -0.0775 0.8740 0.0681
C15B C -0.24593(7) 0.1737(2) 0.12913(13)
H14B H -0.2415 0.1514 0.0806
C16B C -0.30995(11) -0.0201(3) 0.08941(19)
H15B H -0.2996 -0.0282 0.0437
H16B H -0.3473 0.0056 0.0676
H17B H -0.3041 -0.1134 0.1185
C17B C -0.28742(10) 0.1175(3) 0.22021(16)
H18B H -0.2635 0.1936 0.2538
H19B H -0.2808 0.0274 0.2524
H20B H -0.3238 0.1483 0.2040
C18B C -0.07836(8) -0.0558(2) -0.20521(12)
loop_
_geom_bond_atom_site_label_1
_geom_bond_atom_site_label_2
_geom_bond_site_symmetry_1
_geom_bond_site_symmetry_2
Cd1 O1 1_555 1_555
Cd2 O2 1_555 1_555
O1 C1 1_555 1_555
O2 Cd1 1_555 1_555
O3 Cd1 1_555 1_555
O4 Cd1 1_555 1_555
O5 Cd1 1_555 1_555
O6 Cd1 1_555 1_555
O7 C18 1_555 1_555
O8 C18 1_555 1_555
N1 C12 1_555 1_555
N2 C15 1_555 1_555
C1 O2 1_555 1_555
C2 C1 1_555 1_555
C3 C2 1_555 1_555
H1 C3 1_555 1_555
C4 C3 1_555 1_555
H2 C4 1_555 1_555
C5 C4 1_555 1_555
C6 C5 1_555 1_555
H3 C6 1_555 1_555
C7 C2 1_555 1_555
H4 C7 1_555 1_555
C8 O3 1_555 1_555
C9 C8 1_555 1_555
C10 C9 1_555 1_555
H5 C10 1_555 1_555
C11 C9 1_555 1_555
H6 C11 1_555 1_555
C12 O5 1_555 1_555
H7 C12 1_555 1_555
C13 N1 1_555 1_555
H8 C13 1_555 1_555
H9 C13 1_555 1_555
H10 C13 1_555 1_555
C14 N1 1_555 1_555
H11 C14 1_555 1_555
H12 C14 1_555 1_555
H13 C14 1_555 1_555
C15 O6 1_555 1_555
H14 C15 1_555 1_555
C16 N2 1_555 1_555
H15 C16 1_555 1_555
H16 C16 1_555 1_555
H17 C16 1_555 1_555
C17 N2 1_555 1_555
H18 C17 1_555 1_555
H19 C17 1_555 1_555
H20 C17 1_555 1_555
C18 C5 1_555 1_555
Cd1B O1B 1_555 1_555
Cd1F O7 1_555 1_555
Cd1D O3D 1_555 1_555
Cd1D_2 O7B 1_555 1_555
Cd2F O8 1_555 1_555
Cd2F_2 O4D 1_555 1_555
Cd2F_3 O8B 1_555 1_555
O1B C1B 1_555 1_555
O2B Cd2 1_555 1_555
O3D C8D 1_555 1_555
O3B Cd1B 1_555 1_555
O4D Cd1D 1_555 1_555
O4B Cd2 1_555 1_555
O5B Cd1B 1_555 1_555
O6B Cd1B 1_555 1_555
O7B C18B 1_555 1_555
O7F Cd1 1_555 1_555
O7D Cd1B 1_555 1_555
O8B C18B 1_555 1_555
O8F Cd2 1_555 1_555
O8D Cd2 1_555 1_555
N1B C12B 1_555 1_555
N2B C15B 1_555 1_555
C1B O2B 1_555 1_555
C2B C1B 1_555 1_555
C3B C2B 1_555 1_555
H1B C3B 1_555 1_555
C4B C3B 1_555 1_555
H2B C4B 1_555 1_555
C5B C4B 1_555 1_555
C6B C5B 1_555 1_555
H3B C6B 1_555 1_555
C7B C2B 1_555 1_555
H4B C7B 1_555 1_555
C8D O4D 1_555 1_555
C9D C8D 1_555 1_555
C10D C11 1_555 1_555
H5D C10D 1_555 1_555
C11D C10 1_555 1_555
H6D C11D 1_555 1_555
C12B O5B 1_555 1_555
H7B C12B 1_555 1_555
C13B N1B 1_555 1_555
H8B C13B 1_555 1_555
H9B C13B 1_555 1_555
H10B C13B 1_555 1_555
C14B N1B 1_555 1_555
H11B C14B 1_555 1_555
H12B C14B 1_555 1_555
H13B C14B 1_555 1_555
C15B O6B 1_555 1_555
H14B C15B 1_555 1_555
C16B N2B 1_555 1_555
H15B C16B 1_555 1_555
H16B C16B 1_555 1_555
H17B C16B 1_555 1_555
C17B N2B 1_555 1_555
H18B C17B 1_555 1_555
H19B C17B 1_555 1_555
H20B C17B 1_555 1_555
C18B C5B 1_555 1_555
Cd2 O4 1_555 1_555
O4 C8 1_555 1_555
C6 C7 1_555 1_555
Cd1B O2B 1_555 1_555
Cd1B O4B 1_555 1_555
C6B C7B 1_555 1_555
C9D C10D 1_555 1_555
C9D C11D 1_555 1_555

#END
