
#######################################################################
#
#                 Cambridge Crystallographic Data Centre
#                                CCDC 
#
#######################################################################
#
# If this CIF has been generated from an entry in the Cambridge 
# Structural Database, then it will include bibliographic, chemical, 
# crystal, experimental, refinement or atomic coordinate data resulting 
# from the CCDC's data processing and validation procedures.
#
#######################################################################

data_HIZSIU
_symmetry_cell_setting           monoclinic
_symmetry_space_group_name_H-M   'P 21/c'
_symmetry_Int_Tables_number      14
_space_group_name_Hall           '-P 2ybc'
loop_
_symmetry_equiv_pos_site_id
_symmetry_equiv_pos_as_xyz
1 x,y,z
2 -x,1/2+y,1/2-z
3 -x,-y,-z
4 x,1/2-y,1/2+z
_cell_length_a                   6.2898(3)
_cell_length_b                   19.3555(11)
_cell_length_c                   14.9434(8)
_cell_angle_alpha                90
_cell_angle_beta                 90.931(2)
_cell_angle_gamma                90
_cell_volume                     1819
loop_
_atom_site_label
_atom_site_type_symbol
_atom_site_fract_x
_atom_site_fract_y
_atom_site_fract_z
C1 C 0.3467(4) 0.15627(13) 0.76094(17)
C2 C 0.4412(4) 0.20760(13) 0.82636(17)
C3 C 0.6293(4) 0.18828(14) 0.87051(18)
H1 H 0.6854 0.1446 0.8600
C4 C 0.7343(4) 0.23198(14) 0.92922(18)
H2 H 0.8592 0.2179 0.9579
C5 C 0.6517(4) 0.29717(13) 0.94507(17)
C6 C 0.4659(4) 0.31804(14) 0.90187(18)
H3 H 0.4130 0.3622 0.9122
C7 C 0.3574(4) 0.27411(13) 0.84342(16)
C8 C 0.7607(4) 0.34679(14) 1.00861(17)
C9 C 0.0574(4) 0.35433(14) 0.80493(18)
C10 C -0.1395(4) 0.35859(14) 0.74716(17)
C11 C -0.2112(5) 0.30600(16) 0.6913(2)
H4 H -0.1295 0.2663 0.6850
C12 C -0.4018(5) 0.31172(19) 0.6448(2)
H5 H -0.4495 0.2758 0.6084
C13 C -0.5214(5) 0.37124(19) 0.6528(2)
H6 H -0.6510 0.3751 0.6223
C14 C -0.4498(5) 0.42473(18) 0.7055(2)
H7 H -0.5280 0.4654 0.7089
C15 C -0.2615(5) 0.41802(16) 0.7532(2)
H8 H -0.2156 0.4539 0.7900
N1 N 0.1680(3) 0.29466(12) 0.79922(15)
H9 H 0.1145 0.2646 0.7630
O1 O 0.1827(3) 0.17580(10) 0.71580(14)
O2 O 0.4254(4) 0.09894(10) 0.75228(16)
O3 O 0.9151(3) 0.32267(10) 1.05454(13)
O4 O 0.6983(3) 0.40762(10) 1.01430(15)
O5 O 0.1096(3) 0.40292(10) 0.85322(14)
O6 O -0.1343(4) 0.04967(13) 0.71000(16)
O7 O 0.2365(4) 0.05429(13) 0.54804(17)
Zn1 Zn 0.05367(5) 0.10790(2) 0.63238(2)
H10 H -0.092(5) 0.0400(16) 0.7671(14)
H11 H 0.377(3) 0.0666(17) 0.556(2)
H12 H -0.275(3) 0.0649(16) 0.714(2)
H13 H 0.228(5) 0.0091(10) 0.541(2)
O3C O -0.0849(3) 0.17733(10) 0.55454(13)
Zn1C Zn 1.05367(5) 0.39210(2) 1.13238(2)
C16 C 0.2027(6) 0.5227(3) 0.5140(3)
H14 H 0.3431 0.5162 0.5405
H15 H 0.2054 0.5645 0.4782
C17 C 0.1507(6) 0.4630(3) 0.4555(3)
H16 H 0.2545 0.4598 0.4083
H17 H 0.1582 0.4207 0.4903
O8 O 0.0530(4) 0.53035(16) 0.58263(16)
C16B C -0.2027(6) 0.4773(3) 0.4860(3)
H14B H -0.3431 0.4838 0.4595
H15B H -0.2054 0.4355 0.5218
C17B C -0.1507(6) 0.5370(3) 0.5445(3)
H16B H -0.2545 0.5402 0.5917
H17B H -0.1582 0.5793 0.5097
O8B O -0.0530(4) 0.46965(16) 0.41737(16)
loop_
_geom_bond_atom_site_label_1
_geom_bond_atom_site_label_2
_geom_bond_site_symmetry_1
_geom_bond_site_symmetry_2
C1 C2 1_555 1_555
C2 C3 1_555 1_555
C3 H1 1_555 1_555
C4 C3 1_555 1_555
H2 C4 1_555 1_555
C5 C4 1_555 1_555
C6 C5 1_555 1_555
H3 C6 1_555 1_555
C7 C2 1_555 1_555
C8 C5 1_555 1_555
C9 C10 1_555 1_555
C10 C11 1_555 1_555
C11 H4 1_555 1_555
C12 C11 1_555 1_555
H5 C12 1_555 1_555
C13 C12 1_555 1_555
H6 C13 1_555 1_555
C14 C13 1_555 1_555
H7 C14 1_555 1_555
C15 C10 1_555 1_555
H8 C15 1_555 1_555
N1 C7 1_555 1_555
H9 N1 1_555 1_555
O1 C1 1_555 1_555
O2 C1 1_555 1_555
O3 C8 1_555 1_555
O4 C8 1_555 1_555
O5 C9 1_555 1_555
O6 Zn1 1_555 1_555
O7 Zn1 1_555 1_555
Zn1 O1 1_555 1_555
H10 O6 1_555 1_555
H11 O7 1_555 1_555
H12 O6 1_555 1_555
H13 O7 1_555 1_555
C16 H14 1_555 1_555
H15 C16 1_555 1_555
C17 C16 1_555 1_555
H16 C17 1_555 1_555
H17 C17 1_555 1_555
O8 C16 1_555 1_555
O3C Zn1 1_555 1_555
Zn1C O3 1_555 1_555
C16B H14B 1_555 1_555
H15B C16B 1_555 1_555
C17B O8 1_555 1_555
H16B C17B 1_555 1_555
H17B C17B 1_555 1_555
O8B C17 1_555 1_555
C6 C7 1_555 1_555
C9 N1 1_555 1_555
C14 C15 1_555 1_555
C16B C17B 1_555 1_555
C16B O8B 1_555 1_555

#END
