
#######################################################################
#
#                 Cambridge Crystallographic Data Centre
#                                CCDC 
#
#######################################################################
#
# If this CIF has been generated from an entry in the Cambridge 
# Structural Database, then it will include bibliographic, chemical, 
# crystal, experimental, refinement or atomic coordinate data resulting 
# from the CCDC's data processing and validation procedures.
#
#######################################################################

data_HIZSAM
_symmetry_cell_setting           monoclinic
_symmetry_space_group_name_H-M   'P 21/c'
_symmetry_Int_Tables_number      14
_space_group_name_Hall           '-P 2ybc'
loop_
_symmetry_equiv_pos_site_id
_symmetry_equiv_pos_as_xyz
1 x,y,z
2 -x,1/2+y,1/2-z
3 -x,-y,-z
4 x,1/2-y,1/2+z
_cell_length_a                   18.4237(10)
_cell_length_b                   11.3275(6)
_cell_length_c                   19.4776(9)
_cell_angle_alpha                90
_cell_angle_beta                 90.1460(10)
_cell_angle_gamma                90
_cell_volume                     4064.85
loop_
_atom_site_label
_atom_site_type_symbol
_atom_site_fract_x
_atom_site_fract_y
_atom_site_fract_z
C1 C 0.1924(2) 0.6388(4) 0.5479(2)
C2 C 0.2340(2) 0.6139(3) 0.61279(18)
C3 C 0.1996(2) 0.5770(4) 0.67370(19)
C4 C 0.2413(2) 0.5547(4) 0.73158(19)
H1 H 0.2189 0.5303 0.7719
C5 C 0.3156(2) 0.5681(3) 0.73012(18)
C6 C 0.3604(2) 0.5433(3) 0.7932(2)
C7 C 0.3495(2) 0.6064(3) 0.67045(19)
H2 H 0.3995 0.6169 0.6695
C8 C 0.3084(2) 0.6289(3) 0.61262(18)
H3 H 0.3312 0.6546 0.5728
C9 C 0.0791(3) 0.5208(5) 0.7221(3)
C10 C -0.0008(3) 0.5346(8) 0.7041(3)
H4 H -0.0070 0.5282 0.6553
H5 H -0.0176 0.6106 0.7191
H6 H -0.0283 0.4739 0.7264
C11 C 0.2042(2) 0.6448(4) 0.2757(2)
C12 C 0.2538(2) 0.6103(3) 0.21750(18)
C13 C 0.3273(2) 0.5986(4) 0.23034(19)
H7 H 0.3447 0.6131 0.2744
C14 C 0.3755(2) 0.5659(3) 0.17952(19)
H8 H 0.4246 0.5570 0.1894
C15 C 0.3495(2) 0.5464(3) 0.11369(18)
C16 C 0.4005(2) 0.5117(3) 0.05729(18)
C17 C 0.2766(2) 0.5587(4) 0.09931(19)
H9 H 0.2600 0.5467 0.0547
C18 C 0.2278(2) 0.5886(3) 0.15048(19)
C19 C 0.1154(3) 0.5745(5) 0.0797(2)
C20 C 0.0359(3) 0.6078(6) 0.0831(3)
H10 H 0.0258 0.6432 0.1268
H11 H 0.0067 0.5383 0.0774
H12 H 0.0249 0.6630 0.0472
C21 C 0.0098(3) 0.6411(4) 0.4390(2)
H13 H 0.0269 0.5842 0.4694
C22 C -0.0643(3) 0.6491(4) 0.4289(2)
H14 H -0.0952 0.5982 0.4522
C23 C -0.0928(3) 0.7324(4) 0.3845(2)
C24 C -0.1718(3) 0.7397(4) 0.3682(3)
C25 C -0.2238(3) 0.6952(6) 0.4110(3)
H15 H -0.2107 0.6620 0.4529
C26 C -0.2964(3) 0.6998(6) 0.3913(4)
H16 H -0.3306 0.6680 0.4210
C27 C -0.2693(4) 0.7892(6) 0.2936(4)
H17 H -0.2839 0.8231 0.2524
C28 C -0.1957(3) 0.7881(5) 0.3079(3)
H18 H -0.1628 0.8200 0.2769
C29 C -0.0428(3) 0.8101(5) 0.3566(3)
H19 H -0.0589 0.8727 0.3297
C30 C 0.0307(3) 0.7956(5) 0.3682(3)
H20 H 0.0625 0.8483 0.3474
C31 C 0.5122(2) 0.2354(3) 0.13673(19)
H21 H 0.4779 0.2807 0.1597
C32 C 0.5087(2) 0.1141(3) 0.14258(19)
H22 H 0.4735 0.0785 0.1698
C33 C 0.5589(2) 0.0461(3) 0.10693(18)
C34 C 0.6109(2) 0.1043(3) 0.06925(19)
H23 H 0.6453 0.0614 0.0448
C35 C 0.6121(2) 0.2248(3) 0.06771(19)
H24 H 0.6487 0.2625 0.0434
C36 C 0.5591(2) -0.2721(3) 0.1632(2)
H25 H 0.5606 -0.3148 0.2039
C37 C 0.5562(2) -0.1506(3) 0.1667(2)
H26 H 0.5539 -0.1132 0.2091
C38 C 0.5566(2) -0.0849(3) 0.10748(18)
C39 C 0.5561(3) -0.1470(3) 0.0465(2)
H27 H 0.5548 -0.1063 0.0050
C40 C 0.5574(3) -0.2684(3) 0.0465(2)
H28 H 0.5564 -0.3080 0.0047
C41 C 0.1951(3) 0.4107(5) 0.4036(3)
H29 H 0.2409 0.4444 0.3996
C42 C 0.1229(3) 0.2344(6) 0.4057(4)
H30 H 0.1198 0.1762 0.3700
H31 H 0.0841 0.2904 0.4004
H32 H 0.1190 0.1964 0.4496
C43 C 0.2554(4) 0.2200(6) 0.3959(4)
H33 H 0.2488 0.1644 0.3593
H34 H 0.2626 0.1783 0.4383
H35 H 0.2970 0.2683 0.3867
N1 N 0.1237(2) 0.5676(4) 0.67459(19)
H36 H 0.1022 0.5962 0.6391
N2 N 0.15337(19) 0.5999(4) 0.13755(17)
H37 H 0.1281 0.6269 0.1711
N3 N 0.05860(19) 0.7107(3) 0.40735(17)
N4 N -0.3198(3) 0.7465(5) 0.3333(4)
N5 N 0.56264(16) 0.2905(2) 0.09973(14)
N6 N 0.55987(17) -0.3310(2) 0.10404(15)
N7 N 0.1912(2) 0.2944(4) 0.4013(2)
O1 O 0.22938(16) 0.6547(3) 0.49388(13)
O2 O 0.12493(18) 0.6424(3) 0.54780(15)
O3 O 0.42792(16) 0.5344(2) 0.78774(13)
O4 O 0.32844(16) 0.5330(2) 0.85037(13)
O5 O 0.0989(2) 0.4738(4) 0.7741(2)
O6 O 0.23417(16) 0.6492(3) 0.33510(13)
O7 O 0.13959(17) 0.6667(3) 0.26540(15)
O8 O 0.37778(14) 0.5214(2) -0.00400(12)
O9 O 0.46121(14) 0.4722(2) 0.07351(13)
O10 O 0.14070(18) 0.5295(3) 0.02842(16)
O11 O 0.14343(19) 0.4785(3) 0.41064(18)
O12 O 0.19221(19) 0.8665(3) 0.40695(15)
Zn1 Zn 0.56960(2) 0.48019(4) 0.09482(2)
Zn2 Zn 0.16825(3) 0.68175(5) 0.41161(2)
H38 H 0.2311 0.9042 0.3888
H39 H 0.1812 0.9181 0.4481
N6_2 N 0.55987(17) 0.6690(2) 0.10404(15)
O3B O 0.57208(16) 0.4656(2) 0.21226(13)
O4B O 0.67156(16) 0.4670(2) 0.14963(13)
O8B O 0.62222(14) 0.4786(2) 0.00400(12)
Zn1_2 Zn 0.56960(2) -0.51981(4) 0.09482(2)
Zn1B Zn 0.43040(2) 0.51981(4) -0.09482(2)
Zn1B_2 Zn 0.43040(2) 0.51981(4) 0.90518(2)
loop_
_geom_bond_atom_site_label_1
_geom_bond_atom_site_label_2
_geom_bond_site_symmetry_1
_geom_bond_site_symmetry_2
C1 C2 1_555 1_555
C2 C3 1_555 1_555
C3 C4 1_555 1_555
C4 H1 1_555 1_555
C5 C4 1_555 1_555
C6 C5 1_555 1_555
C7 C5 1_555 1_555
H2 C7 1_555 1_555
C8 C2 1_555 1_555
H3 C8 1_555 1_555
C9 C10 1_555 1_555
C10 H4 1_555 1_555
H5 C10 1_555 1_555
H6 C10 1_555 1_555
C11 C12 1_555 1_555
C12 C13 1_555 1_555
C13 H7 1_555 1_555
C14 C13 1_555 1_555
H8 C14 1_555 1_555
C15 C14 1_555 1_555
C16 C15 1_555 1_555
C17 C15 1_555 1_555
H9 C17 1_555 1_555
C18 C12 1_555 1_555
C19 C20 1_555 1_555
C20 H10 1_555 1_555
H11 C20 1_555 1_555
H12 C20 1_555 1_555
C21 H13 1_555 1_555
C22 C21 1_555 1_555
H14 C22 1_555 1_555
C23 C22 1_555 1_555
C24 C23 1_555 1_555
C25 C24 1_555 1_555
H15 C25 1_555 1_555
C26 C25 1_555 1_555
H16 C26 1_555 1_555
C27 H17 1_555 1_555
C28 C24 1_555 1_555
H18 C28 1_555 1_555
C29 C23 1_555 1_555
H19 C29 1_555 1_555
C30 C29 1_555 1_555
H20 C30 1_555 1_555
C31 H21 1_555 1_555
C32 C31 1_555 1_555
H22 C32 1_555 1_555
C33 C32 1_555 1_555
C34 C33 1_555 1_555
H23 C34 1_555 1_555
C35 C34 1_555 1_555
H24 C35 1_555 1_555
C36 H25 1_555 1_555
C37 C36 1_555 1_555
H26 C37 1_555 1_555
C38 C33 1_555 1_555
C39 C38 1_555 1_555
H27 C39 1_555 1_555
C40 C39 1_555 1_555
H28 C40 1_555 1_555
C41 H29 1_555 1_555
C42 H30 1_555 1_555
H31 C42 1_555 1_555
H32 C42 1_555 1_555
C43 H33 1_555 1_555
H34 C43 1_555 1_555
H35 C43 1_555 1_555
N1 C3 1_555 1_555
H36 N1 1_555 1_555
N2 C18 1_555 1_555
H37 N2 1_555 1_555
N3 C21 1_555 1_555
N4 C26 1_555 1_555
N5 C31 1_555 1_555
N6 C36 1_555 1_555
N7 C41 1_555 1_555
O1 C1 1_555 1_555
O2 C1 1_555 1_555
O3 C6 1_555 1_555
O4 C6 1_555 1_555
O5 C9 1_555 1_555
O6 C11 1_555 1_555
O7 C11 1_555 1_555
O8 C16 1_555 1_555
O9 C16 1_555 1_555
O10 C19 1_555 1_555
O11 C41 1_555 1_555
O12 Zn2 1_555 1_555
Zn1 N5 1_555 1_555
Zn2 N3 1_555 1_555
H38 O12 1_555 1_555
H39 O12 1_555 1_555
N6_2 Zn1 1_555 1_555
O3B Zn1 1_555 1_555
O4B Zn1 1_555 1_555
O8B Zn1 1_555 1_555
Zn1_2 N6 1_555 1_555
Zn1B O8 1_555 1_555
Zn1B_2 O3 1_555 1_555
C7 C8 1_555 1_555
C9 N1 1_555 1_555
C17 C18 1_555 1_555
C19 N2 1_555 1_555
C27 C28 1_555 1_555
C27 N4 1_555 1_555
C30 N3 1_555 1_555
C35 N5 1_555 1_555
C37 C38 1_555 1_555
C40 N6 1_555 1_555
C42 N7 1_555 1_555
C43 N7 1_555 1_555
O1 Zn2 1_555 1_555
O4 Zn1B_2 1_555 1_555
O6 Zn2 1_555 1_555
O9 Zn1 1_555 1_555
O11 Zn2 1_555 1_555

#END
