
#######################################################################
#
#                 Cambridge Crystallographic Data Centre
#                                CCDC 
#
#######################################################################
#
# If this CIF has been generated from an entry in the Cambridge 
# Structural Database, then it will include bibliographic, chemical, 
# crystal, experimental, refinement or atomic coordinate data resulting 
# from the CCDC's data processing and validation procedures.
#
#######################################################################

data_HIZVAO
_symmetry_cell_setting           monoclinic
_symmetry_space_group_name_H-M   'P 21/c'
_symmetry_Int_Tables_number      14
_space_group_name_Hall           '-P 2ybc'
loop_
_symmetry_equiv_pos_site_id
_symmetry_equiv_pos_as_xyz
1 x,y,z
2 -x,1/2+y,1/2-z
3 -x,-y,-z
4 x,1/2-y,1/2+z
_cell_length_a                   12.526(3)
_cell_length_b                   13.766(3)
_cell_length_c                   22.042(4)
_cell_angle_alpha                90
_cell_angle_beta                 90.40(3)
_cell_angle_gamma                90
_cell_volume                     3800.67
loop_
_atom_site_label
_atom_site_type_symbol
_atom_site_fract_x
_atom_site_fract_y
_atom_site_fract_z
Cd1 Cd 0.5000 0.5000 0.0000
Cd2 Cd 0.375730(12) 0.325030(11) -0.085690(6)
Cd3 Cd 0.787029(11) 0.486964(11) -0.005871(6)
S1 S -0.00915(4) -0.07841(4) 0.11625(2)
S2 S 0.53299(4) -0.08015(4) 0.11539(2)
O1 O 0.11997(13) -0.04758(14) 0.41508(7)
O3 O 0.26849(14) -0.10622(16) 0.37381(8)
O4 O 0.26999(14) 0.27656(14) -0.01061(8)
O5 O 0.12522(12) 0.36396(12) 0.00915(8)
O6 O -0.12330(13) -0.06864(15) 0.11903(7)
O7 O 0.03624(16) -0.15972(13) 0.08468(8)
O8 O 0.71424(12) 0.32962(11) -0.01369(8)
O9 O 0.54029(12) 0.34352(11) -0.03339(7)
O10 O 0.57025(14) -0.07435(14) 0.41786(7)
O11 O 0.73282(14) -0.01836(13) 0.39665(7)
O12 O 0.60694(14) -0.14904(12) 0.08927(7)
O13 O 0.42084(14) -0.09814(13) 0.11051(7)
O14 O 0.94295(12) 0.43021(14) -0.05035(8)
O15 O 0.64699(12) 0.52650(11) 0.05148(7)
N1 N 0.46832(16) 0.32059(14) -0.17688(9)
N2 N 0.25348(16) 0.31743(14) -0.16582(9)
C1 C 0.5749(2) 0.31862(18) -0.18003(12)
H1 H 0.6148 0.3238 -0.1444
C2 C 0.6276(2) 0.30911(19) -0.23476(13)
H2 H 0.7018 0.3093 -0.2359
C3 C 0.5690(3) 0.2995(2) -0.28711(12)
H3 H 0.6031 0.2919 -0.3242
C4 C 0.4596(2) 0.3010(2) -0.28427(11)
H4 H 0.4186 0.2943 -0.3194
C5 C 0.4110(2) 0.31289(16) -0.22854(10)
C6 C 0.2924(2) 0.31525(17) -0.22260(11)
C7 C 0.2236(3) 0.3137(2) -0.27244(13)
H5 H 0.2507 0.3138 -0.3116
C8 C 0.1157(3) 0.3119(3) -0.26327(17)
H6 H 0.0691 0.3103 -0.2963
C9 C 0.0765(2) 0.3127(2) -0.20573(16)
H7 H 0.0034 0.3107 -0.1987
C10 C 0.1479(2) 0.3164(2) -0.15857(14)
H8 H 0.1214 0.3184 -0.1193
C11 C 0.12244(17) -0.08181(17) 0.30854(9)
C12 C 0.1837(2) -0.1130(2) 0.26016(10)
H9 H 0.2529 -0.1348 0.2675
C13 C 0.1447(2) -0.1124(2) 0.20134(11)
H10 H 0.1865 -0.1339 0.1693
C14 C 0.04216(17) -0.07911(17) 0.19137(9)
C15 C -0.02046(19) -0.0474(2) 0.23876(10)
H11 H -0.0891 -0.0245 0.2312
C16 C 0.01923(18) -0.0499(2) 0.29738(10)
H12 H -0.0234 -0.0301 0.3294
C17 C 0.04246(18) 0.02920(17) 0.08476(9)
C18 C 0.1427(2) 0.02591(18) 0.05764(11)
H13 H 0.1807 -0.0320 0.0557
C19 C 0.18423(18) 0.11054(17) 0.03380(11)
H14 H 0.2507 0.1092 0.0153
C20 C 0.12874(17) 0.19741(16) 0.03689(9)
C21 C 0.02812(18) 0.19944(18) 0.06392(10)
H15 H -0.0099 0.2574 0.0660
C22 C -0.01477(18) 0.11482(19) 0.08757(11)
H16 H -0.0819 0.1157 0.1053
C23 C 0.17420(18) -0.07928(17) 0.37106(10)
C24 C 0.17779(17) 0.28680(17) 0.00945(10)
C25 C 0.60048(16) 0.20716(15) 0.02376(9)
C26 C 0.68368(17) 0.14389(16) 0.03615(10)
H17 H 0.7528 0.1604 0.0250
C27 C 0.66496(18) 0.05626(17) 0.06496(10)
H18 H 0.7209 0.0137 0.0731
C28 C 0.56137(17) 0.03293(15) 0.08153(9)
C29 C 0.47815(17) 0.09657(16) 0.07110(9)
H19 H 0.4094 0.0808 0.0833
C30 C 0.49774(17) 0.18409(16) 0.04228(10)
H20 H 0.4421 0.2275 0.0353
C31 C 0.56631(17) -0.06867(15) 0.19320(9)
C32 C 0.48448(17) -0.05945(17) 0.23512(9)
H21 H 0.4137 -0.0560 0.2223
C33 C 0.51031(18) -0.05544(17) 0.29618(9)
H22 H 0.4562 -0.0512 0.3247
C34 C 0.61536(17) -0.05769(15) 0.31529(9)
C35 C 0.69622(17) -0.06597(17) 0.27249(9)
H23 H 0.7672 -0.0665 0.2851
C36 C 0.67188(18) -0.07333(18) 0.21136(9)
H24 H 0.7257 -0.0813 0.1830
C37 C 0.62107(17) 0.30019(15) -0.01038(9)
C38 C 0.64170(18) -0.04944(16) 0.38241(9)
H25 H 0.977(2) 0.402(2) -0.0229(12)
H26 H 0.980(2) 0.4686(19) -0.0698(13)
H27 H 0.653(3) 0.487(2) 0.0739(14)
Cd1C Cd 0.5000 0.0000 0.5000
Cd1C_2 Cd 0.5000 1.0000 -0.5000
Cd2B Cd 0.624270(12) 0.674970(11) 0.085690(6)
Cd2B_2 Cd 0.624270(12) -0.325030(11) 0.085690(6)
Cd2_2 Cd 0.375730(12) 1.325030(11) -0.085690(6)
Cd2A Cd 0.624270(12) 0.825030(11) 0.585690(6)
Cd3B Cd 0.212971(11) 0.513036(11) 0.005871(6)
Cd3A Cd 0.212971(11) -0.013036(11) 0.505871(6)
Cd3C Cd 0.787029(11) 0.013036(11) 0.494129(6)
Cd3A_2 Cd 0.212971(11) 0.986964(11) -0.494129(6)
Cd3C_2 Cd 0.787029(11) 1.013036(11) 0.494129(6)
S1A S 1.00915(4) 0.42159(4) 0.38375(2)
S2B S 0.46701(4) 1.08015(4) -0.11539(2)
O1A O 0.88003(13) 0.45242(14) 0.08492(7)
O1C O 0.11997(13) 0.54758(14) -0.08492(7)
O3A O 0.73151(14) 0.39378(16) 0.12619(8)
O4A O 0.73001(14) 0.77656(14) 0.51061(8)
O4B O 0.73001(14) 0.72344(14) 0.01061(8)
O5A O 0.87478(12) 0.86396(12) 0.49085(8)
O5B O 0.87478(12) 0.63604(12) -0.00915(8)
O6A O 1.12330(13) 0.43136(15) 0.38097(7)
O7A O 0.96376(16) 0.34028(13) 0.41532(8)
O8B O 0.28576(12) 0.67038(11) 0.01369(8)
O9B O 0.45971(12) 0.65648(11) 0.03339(7)
O10B O 0.42975(14) 1.07435(14) -0.41786(7)
O10C O 0.57025(14) 0.57435(14) -0.08214(7)
O10A O 0.42975(14) 0.42565(14) 0.08214(7)
O11B O 0.26718(14) 1.01836(13) -0.39665(7)
O11C O 0.73282(14) 0.51836(13) -0.10335(7)
O11A O 0.26718(14) 0.48164(13) 0.10335(7)
O12B O 0.39306(14) 1.14904(12) -0.08927(7)
O12B_2 O 0.39306(14) 0.14904(12) -0.08927(7)
O12_2 O 0.60694(14) 0.85096(12) 0.08927(7)
O13B O 0.57916(14) 1.09814(13) -0.11051(7)
O14B O 0.05705(12) 0.56979(14) 0.05035(8)
O15B O 0.35301(12) 0.47350(11) -0.05148(7)
N1B N 0.53168(16) 0.67941(14) 0.17688(9)
N2B N 0.74652(16) 0.68257(14) 0.16582(9)
C1B C 0.4251(2) 0.68138(18) 0.18003(12)
H1B H 0.3852 0.6762 0.1444
C2B C 0.3724(2) 0.69089(19) 0.23476(13)
H2B H 0.2982 0.6907 0.2359
C3B C 0.4310(3) 0.7005(2) 0.28711(12)
H3B H 0.3969 0.7081 0.3242
C4B C 0.5404(2) 0.6990(2) 0.28427(11)
H4B H 0.5814 0.7057 0.3194
C5B C 0.5890(2) 0.68711(16) 0.22854(10)
C6B C 0.7076(2) 0.68475(17) 0.22260(11)
C7B C 0.7764(3) 0.6863(2) 0.27244(13)
H5B H 0.7493 0.6862 0.3116
C8B C 0.8843(3) 0.6881(3) 0.26327(17)
H6B H 0.9309 0.6897 0.2963
C9B C 0.9235(2) 0.6873(2) 0.20573(16)
H7B H 0.9966 0.6893 0.1987
C10B C 0.8521(2) 0.6836(2) 0.15857(14)
H8B H 0.8786 0.6816 0.1193
C11A C 0.87756(17) 0.41819(17) 0.19146(9)
C12A C 0.8163(2) 0.3870(2) 0.23984(10)
H9A H 0.7471 0.3652 0.2325
C13A C 0.8553(2) 0.3876(2) 0.29866(11)
H10A H 0.8135 0.3661 0.3307
C14A C 0.95784(17) 0.42089(17) 0.30863(9)
C15A C 1.02046(19) 0.4526(2) 0.26124(10)
H11A H 1.0891 0.4755 0.2688
C16A C 0.98077(18) 0.4501(2) 0.20262(10)
H12A H 1.0234 0.4699 0.1706
C17A C 0.95754(18) 0.52920(17) 0.41524(9)
C18A C 0.8573(2) 0.52591(18) 0.44236(11)
H13A H 0.8193 0.4680 0.4443
C19A C 0.81577(18) 0.61054(17) 0.46620(11)
H14A H 0.7493 0.6092 0.4847
C20A C 0.87126(17) 0.69741(16) 0.46311(9)
C21A C 0.97188(18) 0.69944(18) 0.43608(10)
H15A H 1.0099 0.7574 0.4340
C22A C 1.01477(18) 0.61482(19) 0.41243(11)
H16A H 1.0819 0.6157 0.3947
C23A C 0.82580(18) 0.42072(17) 0.12894(10)
C24A C 0.82221(17) 0.78680(17) 0.49055(10)
C25B C 0.39952(16) 0.79284(15) -0.02376(9)
C26B C 0.31632(17) 0.85611(16) -0.03615(10)
H17B H 0.2472 0.8396 -0.0250
C27B C 0.33504(18) 0.94374(17) -0.06496(10)
H18B H 0.2791 0.9863 -0.0731
C28B C 0.43863(17) 0.96707(15) -0.08153(9)
C29B C 0.52185(17) 0.90343(16) -0.07110(9)
H19B H 0.5906 0.9192 -0.0833
C30B C 0.50226(17) 0.81591(16) -0.04228(10)
H20B H 0.5579 0.7725 -0.0353
C31B C 0.43369(17) 1.06867(15) -0.19320(9)
C32B C 0.51552(17) 1.05945(17) -0.23512(9)
H21B H 0.5863 1.0560 -0.2223
C33B C 0.48969(18) 1.05544(17) -0.29618(9)
H22B H 0.5438 1.0512 -0.3247
C34B C 0.38464(17) 1.05769(15) -0.31529(9)
C35B C 0.30378(17) 1.06597(17) -0.27249(9)
H23B H 0.2328 1.0665 -0.2851
C36B C 0.32812(18) 1.07333(18) -0.21136(9)
H24B H 0.2743 1.0813 -0.1830
C37B C 0.37893(17) 0.69981(15) 0.01038(9)
C38B C 0.35830(18) 1.04944(16) -0.38241(9)
H25B H 0.023(2) 0.598(2) 0.0229(12)
H26B H 0.020(2) 0.5314(19) 0.0698(13)
H27B H 0.347(3) 0.513(2) -0.0739(14)
O2 O 0.8296(2) 1.1566(3) 0.34591(15)
loop_
_geom_bond_atom_site_label_1
_geom_bond_atom_site_label_2
_geom_bond_site_symmetry_1
_geom_bond_site_symmetry_2
Cd1 O9 1_555 1_555
Cd2 O4 1_555 1_555
Cd3 O8 1_555 1_555
S1 O6 1_555 1_555
S2 O12 1_555 1_555
O1 C23 1_555 1_555
O3 C23 1_555 1_555
O4 C24 1_555 1_555
O5 C24 1_555 1_555
O7 S1 1_555 1_555
O8 C37 1_555 1_555
O9 Cd2 1_555 1_555
O10 C38 1_555 1_555
O11 C38 1_555 1_555
O12 Cd2B_2 1_555 1_555
O13 S2 1_555 1_555
O14 Cd3 1_555 1_555
O15 Cd1 1_555 1_555
N1 Cd2 1_555 1_555
N2 Cd2 1_555 1_555
C1 N1 1_555 1_555
H1 C1 1_555 1_555
C2 C1 1_555 1_555
H2 C2 1_555 1_555
C3 C2 1_555 1_555
H3 C3 1_555 1_555
C4 C3 1_555 1_555
H4 C4 1_555 1_555
C5 N1 1_555 1_555
C6 N2 1_555 1_555
C7 C6 1_555 1_555
H5 C7 1_555 1_555
C8 C7 1_555 1_555
H6 C8 1_555 1_555
C9 C8 1_555 1_555
H7 C9 1_555 1_555
C10 N2 1_555 1_555
H8 C10 1_555 1_555
C11 C12 1_555 1_555
C12 H9 1_555 1_555
C13 C12 1_555 1_555
H10 C13 1_555 1_555
C14 S1 1_555 1_555
C15 C14 1_555 1_555
H11 C15 1_555 1_555
C16 C11 1_555 1_555
H12 C16 1_555 1_555
C17 S1 1_555 1_555
C18 C17 1_555 1_555
H13 C18 1_555 1_555
C19 C18 1_555 1_555
H14 C19 1_555 1_555
C20 C19 1_555 1_555
C21 C20 1_555 1_555
H15 C21 1_555 1_555
C22 C17 1_555 1_555
H16 C22 1_555 1_555
C23 C11 1_555 1_555
C24 C20 1_555 1_555
C25 C26 1_555 1_555
C26 H17 1_555 1_555
C27 C26 1_555 1_555
H18 C27 1_555 1_555
C28 S2 1_555 1_555
C29 C28 1_555 1_555
H19 C29 1_555 1_555
C30 C25 1_555 1_555
H20 C30 1_555 1_555
C31 S2 1_555 1_555
C32 C31 1_555 1_555
H21 C32 1_555 1_555
C33 C32 1_555 1_555
H22 C33 1_555 1_555
C34 C33 1_555 1_555
C35 C34 1_555 1_555
H23 C35 1_555 1_555
C36 C31 1_555 1_555
H24 C36 1_555 1_555
C37 O9 1_555 1_555
C38 C34 1_555 1_555
H25 O14 1_555 1_555
H26 O14 1_555 1_555
H27 O15 1_555 1_555
Cd1C O10 1_555 1_555
Cd1C_2 O10B 1_555 1_555
Cd2B O15 1_555 1_555
Cd2_2 O12B 1_555 1_555
Cd2A O4A 1_555 1_555
Cd3B O5 1_555 1_555
Cd3A O1 1_555 1_555
Cd3C O11 1_555 1_555
Cd3A_2 O11B 1_555 1_555
Cd3C_2 O5A 1_555 1_555
S1A O6A 1_555 1_555
S2B O12B 1_555 1_555
O1A Cd3 1_555 1_555
O1C Cd3B 1_555 1_555
O3A C23A 1_555 1_555
O4A C24A 1_555 1_555
O4B Cd2B 1_555 1_555
O5A C24A 1_555 1_555
O5B Cd3 1_555 1_555
O7A S1A 1_555 1_555
O8B Cd3B 1_555 1_555
O9B Cd1 1_555 1_555
O10B C38B 1_555 1_555
O10C Cd1 1_555 1_555
O10A Cd1 1_555 1_555
O11B C38B 1_555 1_555
O11C Cd3 1_555 1_555
O11A Cd3B 1_555 1_555
O12B_2 Cd2 1_555 1_555
O12_2 Cd2B 1_555 1_555
O13B S2B 1_555 1_555
O14B Cd3B 1_555 1_555
O15B Cd1 1_555 1_555
N1B Cd2B 1_555 1_555
N2B Cd2B 1_555 1_555
C1B N1B 1_555 1_555
H1B C1B 1_555 1_555
C2B C1B 1_555 1_555
H2B C2B 1_555 1_555
C3B C2B 1_555 1_555
H3B C3B 1_555 1_555
C4B C3B 1_555 1_555
H4B C4B 1_555 1_555
C5B N1B 1_555 1_555
C6B N2B 1_555 1_555
C7B C6B 1_555 1_555
H5B C7B 1_555 1_555
C8B C7B 1_555 1_555
H6B C8B 1_555 1_555
C9B C8B 1_555 1_555
H7B C9B 1_555 1_555
C10B N2B 1_555 1_555
H8B C10B 1_555 1_555
C11A C12A 1_555 1_555
C12A H9A 1_555 1_555
C13A C12A 1_555 1_555
H10A C13A 1_555 1_555
C14A S1A 1_555 1_555
C15A C14A 1_555 1_555
H11A C15A 1_555 1_555
C16A C11A 1_555 1_555
H12A C16A 1_555 1_555
C17A S1A 1_555 1_555
C18A C17A 1_555 1_555
H13A C18A 1_555 1_555
C19A C18A 1_555 1_555
H14A C19A 1_555 1_555
C20A C19A 1_555 1_555
C21A C20A 1_555 1_555
H15A C21A 1_555 1_555
C22A C17A 1_555 1_555
H16A C22A 1_555 1_555
C23A O1A 1_555 1_555
C24A C20A 1_555 1_555
C25B C26B 1_555 1_555
C26B H17B 1_555 1_555
C27B C26B 1_555 1_555
H18B C27B 1_555 1_555
C28B S2B 1_555 1_555
C29B C28B 1_555 1_555
H19B C29B 1_555 1_555
C30B C25B 1_555 1_555
H20B C30B 1_555 1_555
C31B S2B 1_555 1_555
C32B C31B 1_555 1_555
H21B C32B 1_555 1_555
C33B C32B 1_555 1_555
H22B C33B 1_555 1_555
C34B C33B 1_555 1_555
C35B C34B 1_555 1_555
H23B C35B 1_555 1_555
C36B C31B 1_555 1_555
H24B C36B 1_555 1_555
C37B O8B 1_555 1_555
C38B C34B 1_555 1_555
H25B O14B 1_555 1_555
H26B O14B 1_555 1_555
H27B O15B 1_555 1_555
Cd2 O15B 1_555 1_555
Cd3 O15 1_555 1_555
C4 C5 1_555 1_555
C5 C6 1_555 1_555
C9 C10 1_555 1_555
C13 C14 1_555 1_555
C15 C16 1_555 1_555
C21 C22 1_555 1_555
C25 C37 1_555 1_555
C27 C28 1_555 1_555
C29 C30 1_555 1_555
C35 C36 1_555 1_555
Cd2B O9B 1_555 1_555
Cd3B O15B 1_555 1_555
O9B C37B 1_555 1_555
C4B C5B 1_555 1_555
C5B C6B 1_555 1_555
C9B C10B 1_555 1_555
C11A C23A 1_555 1_555
C13A C14A 1_555 1_555
C15A C16A 1_555 1_555
C21A C22A 1_555 1_555
C25B C37B 1_555 1_555
C27B C28B 1_555 1_555
C29B C30B 1_555 1_555
C35B C36B 1_555 1_555

#END
