
#######################################################################
#
#                 Cambridge Crystallographic Data Centre
#                                CCDC 
#
#######################################################################
#
# If this CIF has been generated from an entry in the Cambridge 
# Structural Database, then it will include bibliographic, chemical, 
# crystal, experimental, refinement or atomic coordinate data resulting 
# from the CCDC's data processing and validation procedures.
#
#######################################################################

data_HIZVES
_symmetry_cell_setting           monoclinic
_symmetry_space_group_name_H-M   'P 21/c'
_symmetry_Int_Tables_number      14
_space_group_name_Hall           '-P 2ybc'
loop_
_symmetry_equiv_pos_site_id
_symmetry_equiv_pos_as_xyz
1 x,y,z
2 -x,1/2+y,1/2-z
3 -x,-y,-z
4 x,1/2-y,1/2+z
_cell_length_a                   12.380(3)
_cell_length_b                   13.579(3)
_cell_length_c                   21.912(4)
_cell_angle_alpha                90
_cell_angle_beta                 91.06(3)
_cell_angle_gamma                90
_cell_volume                     3682.95
loop_
_atom_site_label
_atom_site_type_symbol
_atom_site_fract_x
_atom_site_fract_y
_atom_site_fract_z
Mn1 Mn 0.0000 0.5000 0.0000
Mn2 Mn -0.12368(2) 0.669960(18) -0.078870(11)
Mn3 Mn 0.284697(19) 0.516397(18) -0.006219(11)
S1 S -0.50835(4) 1.07889(3) 0.11679(2)
S2 S 0.03410(4) 1.08816(3) 0.114860(18)
O1 O -0.37398(10) 1.05280(10) 0.41838(6)
O2 O 0.43631(11) 0.56996(12) -0.04931(7)
O3 O -0.22572(12) 1.11499(12) 0.37646(6)
O5 O -0.22707(11) 0.71978(10) -0.01034(6)
O6 O -0.37159(10) 0.62885(9) 0.00957(6)
O7 O -0.62394(11) 1.06862(12) 0.11961(6)
O8 O -0.46282(13) 1.15996(10) 0.08413(6)
O9 O 0.21139(10) 0.66815(8) -0.01417(6)
O10 O 0.03353(9) 0.65441(8) -0.02909(5)
O11 O 0.05876(11) 1.06568(10) 0.41901(5)
O12 O 0.22920(11) 1.02265(10) 0.40086(6)
O13 O 0.10891(11) 1.15766(9) 0.08871(5)
O14 O -0.07964(11) 1.10612(10) 0.10876(6)
O15 O 0.14840(9) 0.47399(8) 0.04717(5)
N1 N -0.24527(14) 0.67360(11) -0.15762(7)
N2 N -0.03077(14) 0.67025(11) -0.16805(7)
C1 C -0.35127(18) 0.67624(16) -0.14958(11)
H1 H -0.3765 0.6743 -0.1099
C2 C -0.4262(2) 0.68168(18) -0.19704(13)
H2 H -0.4997 0.6853 -0.1894
C3 C -0.3896(3) 0.6817(2) -0.25524(13)
H3 H -0.4380 0.6843 -0.2881
C4 C -0.2804(3) 0.67765(19) -0.26487(11)
H4 H -0.2546 0.6767 -0.3045
C5 C -0.2077(2) 0.67498(13) -0.21492(9)
C6 C -0.0900(2) 0.67657(13) -0.22074(8)
C7 C -0.0402(3) 0.68654(16) -0.27679(10)
H5 H -0.0818 0.6917 -0.3124
C8 C 0.0698(3) 0.68874(18) -0.27930(11)
H6 H 0.1038 0.6954 -0.3166
C9 C 0.1297(2) 0.68107(16) -0.22622(11)
H7 H 0.2048 0.6815 -0.2270
C10 C 0.07609(19) 0.67256(14) -0.17116(10)
H8 H 0.1168 0.6683 -0.1352
C11 C -0.37493(15) 1.08894(13) 0.31111(8)
C12 C -0.31274(16) 1.11922(16) 0.26248(9)
H9 H -0.2426 1.1412 0.2699
C13 C -0.35314(17) 1.11736(16) 0.20285(9)
H10 H -0.3114 1.1389 0.1706
C14 C -0.45682(15) 1.08272(13) 0.19281(8)
C15 C -0.52035(15) 1.05259(15) 0.24043(9)
H11 H -0.5901 1.0298 0.2328
C16 C -0.47927(15) 1.05654(15) 0.30002(9)
H12 H -0.5221 1.0373 0.3324
C17 C -0.45550(14) 0.96811(13) 0.08672(8)
C18 C -0.35559(16) 0.97185(14) 0.05931(9)
H13 H -0.3178 1.0309 0.0570
C19 C -0.31319(15) 0.88652(14) 0.03551(9)
H14 H -0.2464 0.8883 0.0168
C20 C -0.36877(14) 0.79786(13) 0.03915(8)
C21 C -0.46924(15) 0.79532(14) 0.06645(9)
H15 H -0.5072 0.7364 0.0688
C22 C -0.51285(15) 0.88130(14) 0.09032(9)
H16 H -0.5801 0.8802 0.1085
C23 C -0.32076(15) 1.08661(13) 0.37405(8)
C24 C -0.31911(14) 0.70787(13) 0.01072(7)
C25 C 0.09916(13) 0.79285(11) 0.02643(7)
C26 C 0.18427(14) 0.85772(12) 0.03757(8)
H17 H 0.2538 0.8403 0.0264
C27 C 0.16647(14) 0.94814(13) 0.06519(8)
H18 H 0.2232 0.9919 0.0720
C28 C 0.06270(14) 0.97189(12) 0.08233(7)
C29 C -0.02187(14) 0.90681(12) 0.07395(8)
H19 H -0.0907 0.9231 0.0870
C30 C -0.00339(14) 0.81684(12) 0.04593(8)
H20 H -0.0600 0.7725 0.0402
C31 C 0.06670(14) 1.07780(11) 0.19383(7)
C32 C -0.01701(14) 1.06837(12) 0.23401(8)
H21 H -0.0881 1.0655 0.2197
C33 C 0.00634(14) 1.06315(13) 0.29628(8)
H22 H -0.0495 1.0594 0.3240
C34 C 0.11300(13) 1.06354(12) 0.31698(7)
C35 C 0.19559(14) 1.07311(14) 0.27572(8)
H23 H 0.2669 1.0738 0.2898
C36 C 0.17340(15) 1.08173(13) 0.21366(8)
H24 H 0.2289 1.0899 0.1861
C37 C 0.11802(13) 0.69873(11) -0.00780(7)
C38 C 0.13649(14) 1.04988(12) 0.38474(7)
H25 H 0.1557(18) 0.5151(15) 0.0721(10)
Mn1C Mn 0.0000 1.0000 0.5000
Mn1C_2 Mn 0.0000 0.0000 -0.5000
Mn2B Mn 0.12368(2) 0.330040(18) 0.078870(11)
Mn2B_2 Mn 0.12368(2) 1.330040(18) 0.078870(11)
Mn2_2 Mn -0.12368(2) -0.330040(18) -0.078870(11)
Mn2A Mn 0.12368(2) 0.169960(18) 0.578870(11)
Mn3B Mn -0.284697(19) 0.483603(18) 0.006219(11)
Mn3A Mn -0.284697(19) 1.016397(18) 0.506219(11)
Mn3C Mn 0.284697(19) 0.983603(18) 0.493781(11)
Mn3A_2 Mn -0.284697(19) 0.016397(18) -0.493781(11)
Mn3C_2 Mn 0.284697(19) -0.016397(18) 0.493781(11)
S1A S 0.50835(4) 0.57889(3) 0.38321(2)
S2B S -0.03410(4) -0.08816(3) -0.114860(18)
O1A O 0.37398(10) 0.55280(10) 0.08162(6)
O1C O -0.37398(10) 0.44720(10) -0.08162(6)
O2B O -0.43631(11) 0.43004(12) 0.04931(7)
O3A O 0.22572(12) 0.61499(12) 0.12354(6)
O5A O 0.22707(11) 0.21978(10) 0.51034(6)
O5B O 0.22707(11) 0.28022(10) 0.01034(6)
O6A O 0.37159(10) 0.12885(9) 0.49043(6)
O6B O 0.37159(10) 0.37115(9) -0.00957(6)
O7A O 0.62394(11) 0.56862(12) 0.38039(6)
O8A O 0.46282(13) 0.65996(10) 0.41587(6)
O9B O -0.21139(10) 0.33185(8) 0.01417(6)
O10B O -0.03353(9) 0.34559(8) 0.02909(5)
O11B O -0.05876(11) -0.06568(10) -0.41901(5)
O11C O 0.05876(11) 0.43432(10) -0.08099(5)
O11A O -0.05876(11) 0.56568(10) 0.08099(5)
O12B O -0.22920(11) -0.02265(10) -0.40086(6)
O12C O 0.22920(11) 0.47735(10) -0.09914(6)
O12A O -0.22920(11) 0.52265(10) 0.09914(6)
O13B O -0.10891(11) -0.15766(9) -0.08871(5)
O13B_2 O -0.10891(11) 0.84234(9) -0.08871(5)
O13_2 O 0.10891(11) 0.15766(9) 0.08871(5)
O14B O 0.07964(11) -0.10612(10) -0.10876(6)
O15B O -0.14840(9) 0.52601(8) -0.04717(5)
N1B N 0.24527(14) 0.32640(11) 0.15762(7)
N2B N 0.03077(14) 0.32975(11) 0.16805(7)
C1B C 0.35127(18) 0.32376(16) 0.14958(11)
H1B H 0.3765 0.3257 0.1099
C2B C 0.4262(2) 0.31832(18) 0.19704(13)
H2B H 0.4997 0.3147 0.1894
C3B C 0.3896(3) 0.3183(2) 0.25524(13)
H3B H 0.4380 0.3157 0.2881
C4B C 0.2804(3) 0.32235(19) 0.26487(11)
H4B H 0.2546 0.3233 0.3045
C5B C 0.2077(2) 0.32502(13) 0.21492(9)
C6B C 0.0900(2) 0.32343(13) 0.22074(8)
C7B C 0.0402(3) 0.31346(16) 0.27679(10)
H5B H 0.0818 0.3083 0.3124
C8B C -0.0698(3) 0.31126(18) 0.27930(11)
H6B H -0.1038 0.3046 0.3166
C9B C -0.1297(2) 0.31893(16) 0.22622(11)
H7B H -0.2048 0.3185 0.2270
C10B C -0.07609(19) 0.32744(14) 0.17116(10)
H8B H -0.1168 0.3317 0.1352
C11A C 0.37493(15) 0.58894(13) 0.18889(8)
C12A C 0.31274(16) 0.61922(16) 0.23752(9)
H9A H 0.2426 0.6412 0.2301
C13A C 0.35314(17) 0.61736(16) 0.29715(9)
H10A H 0.3114 0.6389 0.3294
C14A C 0.45682(15) 0.58272(13) 0.30719(8)
C15A C 0.52035(15) 0.55259(15) 0.25957(9)
H11A H 0.5901 0.5298 0.2672
C16A C 0.47927(15) 0.55654(15) 0.19998(9)
H12A H 0.5221 0.5373 0.1676
C17A C 0.45550(14) 0.46811(13) 0.41328(8)
C18A C 0.35559(16) 0.47185(14) 0.44069(9)
H13A H 0.3178 0.5309 0.4430
C19A C 0.31319(15) 0.38652(14) 0.46449(9)
H14A H 0.2464 0.3883 0.4832
C20A C 0.36877(14) 0.29786(13) 0.46085(8)
C21A C 0.46924(15) 0.29532(14) 0.43355(9)
H15A H 0.5072 0.2364 0.4312
C22A C 0.51285(15) 0.38130(14) 0.40968(9)
H16A H 0.5801 0.3802 0.3915
C23A C 0.32076(15) 0.58661(13) 0.12595(8)
C24A C 0.31911(14) 0.20787(13) 0.48928(7)
C25B C -0.09916(13) 0.20715(11) -0.02643(7)
C26B C -0.18427(14) 0.14228(12) -0.03757(8)
H17B H -0.2538 0.1597 -0.0264
C27B C -0.16647(14) 0.05186(13) -0.06519(8)
H18B H -0.2232 0.0081 -0.0720
C28B C -0.06270(14) 0.02811(12) -0.08233(7)
C29B C 0.02187(14) 0.09319(12) -0.07395(8)
H19B H 0.0907 0.0769 -0.0870
C30B C 0.00339(14) 0.18316(12) -0.04593(8)
H20B H 0.0600 0.2275 -0.0402
C31B C -0.06670(14) -0.07780(11) -0.19383(7)
C32B C 0.01701(14) -0.06837(12) -0.23401(8)
H21B H 0.0881 -0.0655 -0.2197
C33B C -0.00634(14) -0.06315(13) -0.29628(8)
H22B H 0.0495 -0.0594 -0.3240
C34B C -0.11300(13) -0.06354(12) -0.31698(7)
C35B C -0.19559(14) -0.07311(14) -0.27572(8)
H23B H -0.2669 -0.0738 -0.2898
C36B C -0.17340(15) -0.08173(13) -0.21366(8)
H24B H -0.2289 -0.0899 -0.1861
C37B C -0.11802(13) 0.30127(11) 0.00780(7)
C38B C -0.13649(14) -0.04988(12) -0.38474(7)
H25B H -0.1557(18) 0.4849(15) -0.0721(10)
O4 O 0.3321(4) 0.6542(4) -0.1540(2)
loop_
_geom_bond_atom_site_label_1
_geom_bond_atom_site_label_2
_geom_bond_site_symmetry_1
_geom_bond_site_symmetry_2
Mn1 O10 1_555 1_555
Mn2 O5 1_555 1_555
Mn3 O2 1_555 1_555
S1 O7 1_555 1_555
S2 O13 1_555 1_555
O1 C23 1_555 1_555
O3 C23 1_555 1_555
O5 C24 1_555 1_555
O6 C24 1_555 1_555
O8 S1 1_555 1_555
O9 Mn3 1_555 1_555
O10 Mn2 1_555 1_555
O11 C38 1_555 1_555
O12 C38 1_555 1_555
O13 Mn2B_2 1_555 1_555
O14 S2 1_555 1_555
O15 Mn1 1_555 1_555
N1 Mn2 1_555 1_555
N2 Mn2 1_555 1_555
C1 N1 1_555 1_555
H1 C1 1_555 1_555
C2 C1 1_555 1_555
H2 C2 1_555 1_555
C3 C2 1_555 1_555
H3 C3 1_555 1_555
C4 C3 1_555 1_555
H4 C4 1_555 1_555
C5 N1 1_555 1_555
C6 N2 1_555 1_555
C7 C6 1_555 1_555
H5 C7 1_555 1_555
C8 C7 1_555 1_555
H6 C8 1_555 1_555
C9 C8 1_555 1_555
H7 C9 1_555 1_555
C10 N2 1_555 1_555
H8 C10 1_555 1_555
C11 C12 1_555 1_555
C12 H9 1_555 1_555
C13 C12 1_555 1_555
H10 C13 1_555 1_555
C14 S1 1_555 1_555
C15 C14 1_555 1_555
H11 C15 1_555 1_555
C16 C11 1_555 1_555
H12 C16 1_555 1_555
C17 S1 1_555 1_555
C18 C17 1_555 1_555
H13 C18 1_555 1_555
C19 C18 1_555 1_555
H14 C19 1_555 1_555
C20 C19 1_555 1_555
C21 C20 1_555 1_555
H15 C21 1_555 1_555
C22 C17 1_555 1_555
H16 C22 1_555 1_555
C23 C11 1_555 1_555
C24 C20 1_555 1_555
C25 C26 1_555 1_555
C26 H17 1_555 1_555
C27 C26 1_555 1_555
H18 C27 1_555 1_555
C28 S2 1_555 1_555
C29 C28 1_555 1_555
H19 C29 1_555 1_555
C30 C25 1_555 1_555
H20 C30 1_555 1_555
C31 S2 1_555 1_555
C32 C31 1_555 1_555
H21 C32 1_555 1_555
C33 C32 1_555 1_555
H22 C33 1_555 1_555
C34 C33 1_555 1_555
C35 C34 1_555 1_555
H23 C35 1_555 1_555
C36 C31 1_555 1_555
H24 C36 1_555 1_555
C37 O9 1_555 1_555
C38 C34 1_555 1_555
H25 O15 1_555 1_555
Mn1C O11 1_555 1_555
Mn1C_2 O11B 1_555 1_555
Mn2B O15 1_555 1_555
Mn2_2 O13B 1_555 1_555
Mn2A O5A 1_555 1_555
Mn3B O6 1_555 1_555
Mn3A O1 1_555 1_555
Mn3C O12 1_555 1_555
Mn3A_2 O12B 1_555 1_555
Mn3C_2 O6A 1_555 1_555
S1A O7A 1_555 1_555
S2B O13B 1_555 1_555
O1A Mn3 1_555 1_555
O1C Mn3B 1_555 1_555
O2B Mn3B 1_555 1_555
O3A C23A 1_555 1_555
O5A C24A 1_555 1_555
O5B Mn2B 1_555 1_555
O6A C24A 1_555 1_555
O6B Mn3 1_555 1_555
O8A S1A 1_555 1_555
O9B Mn3B 1_555 1_555
O10B Mn1 1_555 1_555
O11B C38B 1_555 1_555
O11C Mn1 1_555 1_555
O11A Mn1 1_555 1_555
O12B C38B 1_555 1_555
O12C Mn3 1_555 1_555
O12A Mn3B 1_555 1_555
O13B_2 Mn2 1_555 1_555
O13_2 Mn2B 1_555 1_555
O14B S2B 1_555 1_555
O15B Mn1 1_555 1_555
N1B Mn2B 1_555 1_555
N2B Mn2B 1_555 1_555
C1B N1B 1_555 1_555
H1B C1B 1_555 1_555
C2B C1B 1_555 1_555
H2B C2B 1_555 1_555
C3B C2B 1_555 1_555
H3B C3B 1_555 1_555
C4B C3B 1_555 1_555
H4B C4B 1_555 1_555
C5B N1B 1_555 1_555
C6B N2B 1_555 1_555
C7B C6B 1_555 1_555
H5B C7B 1_555 1_555
C8B C7B 1_555 1_555
H6B C8B 1_555 1_555
C9B C8B 1_555 1_555
H7B C9B 1_555 1_555
C10B N2B 1_555 1_555
H8B C10B 1_555 1_555
C11A C12A 1_555 1_555
C12A H9A 1_555 1_555
C13A C12A 1_555 1_555
H10A C13A 1_555 1_555
C14A S1A 1_555 1_555
C15A C14A 1_555 1_555
H11A C15A 1_555 1_555
C16A C11A 1_555 1_555
H12A C16A 1_555 1_555
C17A S1A 1_555 1_555
C18A C17A 1_555 1_555
H13A C18A 1_555 1_555
C19A C18A 1_555 1_555
H14A C19A 1_555 1_555
C20A C19A 1_555 1_555
C21A C20A 1_555 1_555
H15A C21A 1_555 1_555
C22A C17A 1_555 1_555
H16A C22A 1_555 1_555
C23A O1A 1_555 1_555
C24A C20A 1_555 1_555
C25B C26B 1_555 1_555
C26B H17B 1_555 1_555
C27B C26B 1_555 1_555
H18B C27B 1_555 1_555
C28B S2B 1_555 1_555
C29B C28B 1_555 1_555
H19B C29B 1_555 1_555
C30B C25B 1_555 1_555
H20B C30B 1_555 1_555
C31B S2B 1_555 1_555
C32B C31B 1_555 1_555
H21B C32B 1_555 1_555
C33B C32B 1_555 1_555
H22B C33B 1_555 1_555
C34B C33B 1_555 1_555
C35B C34B 1_555 1_555
H23B C35B 1_555 1_555
C36B C31B 1_555 1_555
H24B C36B 1_555 1_555
C37B O9B 1_555 1_555
C38B C34B 1_555 1_555
H25B O15B 1_555 1_555
Mn2 O15B 1_555 1_555
Mn3 O15 1_555 1_555
O10 C37 1_555 1_555
C4 C5 1_555 1_555
C5 C6 1_555 1_555
C9 C10 1_555 1_555
C13 C14 1_555 1_555
C15 C16 1_555 1_555
C21 C22 1_555 1_555
C25 C37 1_555 1_555
C27 C28 1_555 1_555
C29 C30 1_555 1_555
C35 C36 1_555 1_555
Mn2B O10B 1_555 1_555
Mn3B O15B 1_555 1_555
O10B C37B 1_555 1_555
C4B C5B 1_555 1_555
C5B C6B 1_555 1_555
C9B C10B 1_555 1_555
C11A C23A 1_555 1_555
C13A C14A 1_555 1_555
C15A C16A 1_555 1_555
C21A C22A 1_555 1_555
C25B C37B 1_555 1_555
C27B C28B 1_555 1_555
C29B C30B 1_555 1_555
C35B C36B 1_555 1_555

#END
