
#######################################################################
#
#                 Cambridge Crystallographic Data Centre
#                                CCDC 
#
#######################################################################
#
# If this CIF has been generated from an entry in the Cambridge 
# Structural Database, then it will include bibliographic, chemical, 
# crystal, experimental, refinement or atomic coordinate data resulting 
# from the CCDC's data processing and validation procedures.
#
#######################################################################

data_HIZZIB
_symmetry_cell_setting           triclinic
_symmetry_space_group_name_H-M   'P -1'
_symmetry_Int_Tables_number      2
_space_group_name_Hall           '-P 1'
loop_
_symmetry_equiv_pos_site_id
_symmetry_equiv_pos_as_xyz
1 x,y,z
2 -x,-y,-z
_cell_length_a                   4.1774(5)
_cell_length_b                   9.2283(12)
_cell_length_c                   10.8275(14)
_cell_angle_alpha                108.661(2)
_cell_angle_beta                 95.978(2)
_cell_angle_gamma                91.459(2)
_cell_volume                     392.543
loop_
_atom_site_label
_atom_site_type_symbol
_atom_site_fract_x
_atom_site_fract_y
_atom_site_fract_z
Pb1 Pb 0.0000 1.0000 0.0000
Br1 Br 0.44566(5) 0.79163(2) -0.163147(19)
N1 N 0.0554(5) 0.8373(2) 0.16452(18)
N2 N 0.4864(5) 0.5597(2) 0.47233(17)
C1 C 0.2547(6) 0.8824(3) 0.2778(2)
H1 H 0.3535 0.9833 0.3073
C2 C 0.3227(6) 0.7883(3) 0.3536(2)
H2 H 0.4648 0.8243 0.4330
C3 C 0.1784(5) 0.6399(2) 0.3108(2)
C4 C -0.0324(5) 0.5940(3) 0.1948(2)
H3 H -0.1385 0.4945 0.1638
C5 C -0.0851(6) 0.6957(3) 0.1252(2)
H4 H -0.2277 0.6631 0.0458
C6 C 0.2467(5) 0.5310(2) 0.3826(2)
H5 H 0.1131 0.4396 0.3624
N1A N 0.9446(5) 0.1627(2) 0.83548(18)
N2A N 0.5136(5) 0.4403(2) 0.52767(17)
C1A C 0.7453(6) 0.1176(3) 0.7222(2)
H1A H 0.6465 0.0167 0.6927
C2A C 0.6773(6) 0.2117(3) 0.6464(2)
H2A H 0.5352 0.1757 0.5670
C3A C 0.8216(5) 0.3601(2) 0.6892(2)
C4A C 1.0324(5) 0.4060(3) 0.8052(2)
H3A H 1.1385 0.5055 0.8362
C5A C 1.0851(6) 0.3043(3) 0.8748(2)
H4A H 1.2277 0.3369 0.9542
C6A C 0.7533(5) 0.4690(2) 0.6174(2)
H5A H 0.8869 0.5604 0.6376
Br1A Br -0.44566(5) 1.20837(2) 0.163147(19)
Pb1_2 Pb -1.0000 1.0000 0.0000
Pb1_3 Pb 1.0000 0.0000 1.0000
Pb1_4 Pb 1.0000 1.0000 0.0000
Br1_2 Br -0.55434(5) 0.79163(2) -0.163147(19)
Br1A_2 Br 0.55434(5) 1.20837(2) 0.163147(19)
N1A_2 N -0.0554(5) 1.1627(2) -0.16452(18)
loop_
_geom_bond_atom_site_label_1
_geom_bond_atom_site_label_2
_geom_bond_site_symmetry_1
_geom_bond_site_symmetry_2
Pb1 Br1 1_555 1_555
Br1 Pb1_4 1_555 1_555
N1 Pb1 1_555 1_555
N2 C6 1_555 1_555
C1 N1 1_555 1_555
H1 C1 1_555 1_555
C2 C1 1_555 1_555
H2 C2 1_555 1_555
C3 C2 1_555 1_555
C4 C3 1_555 1_555
H3 C4 1_555 1_555
C5 N1 1_555 1_555
H4 C5 1_555 1_555
C6 C3 1_555 1_555
H5 C6 1_555 1_555
N1A C1A 1_555 1_555
N2A N2 1_555 1_555
C1A H1A 1_555 1_555
C2A C1A 1_555 1_555
H2A C2A 1_555 1_555
C3A C2A 1_555 1_555
C4A C3A 1_555 1_555
H3A C4A 1_555 1_555
C5A N1A 1_555 1_555
H4A C5A 1_555 1_555
C6A N2A 1_555 1_555
H5A C6A 1_555 1_555
Br1A Pb1 1_555 1_555
Pb1_2 Br1A 1_555 1_555
Pb1_3 N1A 1_555 1_555
Pb1_4 Br1A_2 1_555 1_555
Br1_2 Pb1 1_555 1_555
Br1A_2 Pb1 1_555 1_555
N1A_2 Pb1 1_555 1_555
C4 C5 1_555 1_555
C3A C6A 1_555 1_555
C4A C5A 1_555 1_555
Pb1_2 Br1_2 1_555 1_555

#END
