
#######################################################################
#
#                 Cambridge Crystallographic Data Centre
#                                CCDC 
#
#######################################################################
#
# If this CIF has been generated from an entry in the Cambridge 
# Structural Database, then it will include bibliographic, chemical, 
# crystal, experimental, refinement or atomic coordinate data resulting 
# from the CCDC's data processing and validation procedures.
#
#######################################################################

data_HOBBOR
_symmetry_cell_setting           monoclinic
_symmetry_space_group_name_H-M   'P 21'
_symmetry_Int_Tables_number      4
_space_group_name_Hall           'P 2yb'
loop_
_symmetry_equiv_pos_site_id
_symmetry_equiv_pos_as_xyz
1 x,y,z
2 -x,1/2+y,-z
_cell_length_a                   8.6821(8)
_cell_length_b                   29.796(3)
_cell_length_c                   12.8045(12)
_cell_angle_alpha                90
_cell_angle_beta                 96.432(2)
_cell_angle_gamma                90
_cell_volume                     3291.57
loop_
_atom_site_label
_atom_site_type_symbol
_atom_site_fract_x
_atom_site_fract_y
_atom_site_fract_z
K1 K 0.33297(15) 0.61791(4) 0.79750(10)
K2 K -0.3675(4) 0.62706(15) 0.7736(3)
O1 O 0.2269(5) 0.57212(16) 0.6205(4)
O2 O 0.1593(4) 0.66602(14) 0.6350(3)
O3 O 0.2827(4) 0.70895(12) 0.8241(3)
O4 O 0.4248(5) 0.66386(12) 0.9790(3)
O5 O 0.4821(5) 0.57085(14) 0.9599(4)
O6 O 0.3852(6) 0.52687(15) 0.7719(5)
O7 O -0.3024(6) 0.58038(15) 0.5689(3)
O8 O -0.3685(4) 0.67630(14) 0.5529(3)
O9 O -0.2799(5) 0.72502(13) 0.7461(3)
O10 O -0.1224(7) 0.68530(15) 0.9025(3)
O11 O 0.0425(5) 0.60211(14) 0.8816(3)
O12 O -0.1644(8) 0.54833(16) 0.7356(4)
C1 C 0.3958(10) 0.5123(3) 0.6750(9)
C2 C 0.4901(11) 0.4758(2) 0.6499(9)
H1 H 0.5497 0.4605 0.7057
C3 C 0.4987(15) 0.4618(3) 0.5513(11)
H2 H 0.5648 0.4376 0.5378
C4 C 0.4116(11) 0.4828(3) 0.4707(8)
H3 H 0.4119 0.4719 0.4010
C5 C 0.3194(10) 0.5213(3) 0.4901(8)
H4 H 0.2629 0.5370 0.4337
C6 C 0.3151(9) 0.5346(3) 0.5917(7)
C7 C 0.1382(8) 0.5966(3) 0.5383(6)
H5 H 0.0647 0.5762 0.4970
H6 H 0.2080 0.6098 0.4904
C8 C 0.0515(7) 0.6330(2) 0.5859(5)
H7 H -0.0209 0.6475 0.5309
H8 H -0.0101 0.6201 0.6392
C9 C 0.0832(7) 0.7017(2) 0.6827(5)
H9 H 0.0142 0.6891 0.7318
H10 H 0.0183 0.7187 0.6277
C10 C 0.1963(7) 0.7325(2) 0.7406(5)
H11 H 0.2674 0.7446 0.6922
H12 H 0.1410 0.7579 0.7691
C11 C 0.3858(6) 0.73303(18) 0.8911(4)
C12 C 0.4173(7) 0.77819(19) 0.8821(5)
H13 H 0.3642 0.7951 0.8264
C13 C 0.5250(8) 0.7988(2) 0.9532(6)
H14 H 0.5451 0.8299 0.9470
C14 C 0.6020(9) 0.7750(2) 1.0317(6)
H15 H 0.6774 0.7894 1.0800
C15 C 0.5727(8) 0.7302(2) 1.0426(6)
H16 H 0.6281 0.7139 1.0985
C16 C 0.4633(7) 0.7083(2) 0.9733(5)
C17 C 0.5076(9) 0.6377(2) 1.0591(6)
H17 H 0.4958 0.6509 1.1288
H18 H 0.6192 0.6375 1.0497
C18 C 0.4456(9) 0.5906(2) 1.0536(6)
H19 H 0.4925 0.5731 1.1148
H20 H 0.3318 0.5910 1.0550
C19 C 0.4478(10) 0.5243(2) 0.9576(8)
H21 H 0.3364 0.5196 0.9642
H22 H 0.5088 0.5090 1.0173
C20 C 0.4861(12) 0.5053(2) 0.8583(8)
H23 H 0.4689 0.4725 0.8573
H24 H 0.5964 0.5111 0.8500
C21 C -0.1370(11) 0.5251(2) 0.6444(6)
C22 C -0.0429(10) 0.4880(2) 0.6427(7)
H25 H 0.0112 0.4764 0.7055
C23 C -0.0294(10) 0.4679(3) 0.5449(8)
H26 H 0.0344 0.4422 0.5410
C24 C -0.1070(9) 0.4850(3) 0.4560(7)
H27 H -0.0974 0.4709 0.3904
C25 C -0.2009(9) 0.5229(3) 0.4594(6)
H28 H -0.2548 0.5346 0.3966
C26 C -0.2148(9) 0.5432(2) 0.5539(6)
C27 C -0.3757(8) 0.6031(2) 0.4768(5)
H29 H -0.4429 0.5819 0.4331
H30 H -0.2960 0.6146 0.4342
C28 C -0.4690(7) 0.6404(2) 0.5107(6)
H31 H -0.5393 0.6516 0.4501
H32 H -0.5331 0.6298 0.5649
C29 C -0.4579(8) 0.7095(2) 0.5980(5)
H33 H -0.5217 0.6952 0.6481
H34 H -0.5287 0.7240 0.5420
C30 C -0.3563(7) 0.7440(2) 0.6537(5)
H35 H -0.2792 0.7546 0.6078
H36 H -0.4192 0.7701 0.6715
C31 C -0.1842(7) 0.7527(2) 0.8127(5)
C32 C -0.1695(8) 0.7983(2) 0.8001(6)
H37 H -0.2268 0.8134 0.7431
C33 C -0.0694(8) 0.8216(2) 0.8723(5)
H38 H -0.0601 0.8532 0.8652
C34 C 0.0156(9) 0.8006(2) 0.9528(5)
H39 H 0.0852 0.8174 1.0002
C35 C 0.0019(9) 0.7545(2) 0.9666(5)
H40 H 0.0605 0.7398 1.0237
C36 C -0.0970(8) 0.7308(2) 0.8969(5)
C37 C -0.0140(12) 0.6627(3) 0.9831(6)
H41 H 0.0918 0.6747 0.9804
H42 H -0.0449 0.6691 1.0537
C38 C -0.0134(14) 0.6142(3) 0.9663(8)
H43 H 0.0480 0.5999 1.0271
H44 H -0.1211 0.6030 0.9637
C39 C 0.0221(12) 0.5523(3) 0.8712(9)
H45 H 0.0990 0.5423 0.8246
H46 H 0.0567 0.5398 0.9415
C40 C -0.1163(13) 0.5296(3) 0.8360(7)
H47 H -0.1956 0.5346 0.8846
H48 H -0.0977 0.4970 0.8305
K2_2 K 0.6325(4) 0.62706(15) 0.7736(3)
O5_2 O -0.5179(5) 0.57085(14) 0.9599(4)
O13 O 0.7485(5) 0.58379(13) 1.2264(3)
O14 O 0.9921(5) 0.56379(13) 1.2142(3)
O15 O 1.6933(5) 0.92189(14) 1.7911(3)
O16 O 1.4956(5) 0.91996(13) 1.8877(3)
O17 O 0.8477(5) 0.98549(13) 0.8852(3)
O18 O 1.0994(5) 0.99547(13) 0.8841(3)
C41 C 1.0911(6) 0.77421(17) 1.3285(4)
C42 C 1.0593(6) 0.80535(17) 1.2472(4)
H49 H 1.0031 0.7960 1.1830
C43 C 1.1079(6) 0.84940(17) 1.2585(4)
C44 C 1.1857(6) 0.86235(18) 1.3546(4)
H50 H 1.2194 0.8926 1.3638
C45 C 1.2159(6) 0.83235(18) 1.4379(4)
C46 C 1.1675(6) 0.78810(18) 1.4228(4)
H51 H 1.1876 0.7671 1.4785
C47 C 1.0394(6) 0.72621(17) 1.3096(4)
C48 C 1.1473(6) 0.69432(18) 1.2849(4)
C49 C 1.1000(6) 0.65000(17) 1.2637(4)
H52 H 1.1734 0.6279 1.2488
C50 C 0.9456(6) 0.63853(17) 1.2644(4)
C51 C 0.8402(6) 0.67069(17) 1.2905(4)
H53 H 0.7346 0.6626 1.2916
C52 C 0.8860(6) 0.71420(17) 1.3146(4)
C53 C 0.8860(8) 0.59129(18) 1.2331(4)
C54 C 1.3156(6) 0.7076(2) 1.2759(5)
H54 H 1.3776 0.6805 1.2688
H55 H 1.3571 0.7241 1.3390
H56 H 1.3197 0.7267 1.2139
C55 C 0.7684(6) 0.74776(19) 1.3458(5)
H57 H 0.7439 0.7694 1.2887
H58 H 0.8114 0.7637 1.4095
H59 H 0.6737 0.7319 1.3595
C56 C 1.3028(6) 0.84858(16) 1.5387(4)
C57 C 1.4648(6) 0.85262(17) 1.5457(4)
C58 C 1.5434(6) 0.87190(16) 1.6343(4)
H60 H 1.6526 0.8756 1.6384
C59 C 1.4657(6) 0.88581(17) 1.7169(4)
C60 C 1.3077(7) 0.88047(17) 1.7121(4)
H61 H 1.2549 0.8891 1.7700
C61 C 1.2255(6) 0.86242(18) 1.6228(4)
C62 C 1.5507(7) 0.91035(19) 1.8080(5)
C63 C 1.5513(6) 0.8380(2) 1.4541(5)
H62 H 1.5340 0.8600 1.3972
H63 H 1.5131 0.8086 1.4287
H64 H 1.6624 0.8360 1.4777
C64 C 1.0479(7) 0.8578(2) 1.6159(5)
H65 H 1.0017 0.8666 1.5456
H66 H 1.0083 0.8773 1.6685
H67 H 1.0208 0.8266 1.6292
C65 C 1.0758(6) 0.88189(17) 1.1698(4)
C66 C 0.9274(6) 0.89855(17) 1.1432(4)
C67 C 0.8984(6) 0.92769(17) 1.0592(4)
H68 H 0.7960 0.9385 1.0408
C68 C 1.0169(6) 0.94151(17) 1.0008(4)
C69 C 1.1662(7) 0.92449(17) 1.0291(4)
H69 H 1.2480 0.9338 0.9906
C70 C 1.1984(6) 0.89446(17) 1.1114(4)
C71 C 0.9849(7) 0.97581(18) 0.9167(4)
C72 C 0.7943(6) 0.88609(19) 1.2073(5)
H70 H 0.7031 0.9044 1.1841
H71 H 0.8262 0.8917 1.2821
H72 H 0.7686 0.8543 1.1968
C73 C 1.3576(6) 0.87595(19) 1.1373(4)
H73 H 1.4232 0.8855 1.0839
H74 H 1.3529 0.8431 1.1387
H75 H 1.4016 0.8871 1.2063
O19 O 0.5984(7) 0.5041(2) 1.2233(5)
O20 O 1.3278(8) 0.5544(2) 1.2586(6)
loop_
_geom_bond_atom_site_label_1
_geom_bond_atom_site_label_2
_geom_bond_site_symmetry_1
_geom_bond_site_symmetry_2
K1 O1 1_555 1_555
K2 O7 1_555 1_555
O1 C6 1_555 1_555
O2 K1 1_555 1_555
O3 K1 1_555 1_555
O4 K1 1_555 1_555
O5 K1 1_555 1_555
O6 K1 1_555 1_555
O7 C26 1_555 1_555
O8 K2 1_555 1_555
O9 K2 1_555 1_555
O10 K2 1_555 1_555
O11 K1 1_555 1_555
O12 K2 1_555 1_555
C1 O6 1_555 1_555
C2 C1 1_555 1_555
H1 C2 1_555 1_555
C3 C2 1_555 1_555
H2 C3 1_555 1_555
C4 C3 1_555 1_555
H3 C4 1_555 1_555
C5 C4 1_555 1_555
H4 C5 1_555 1_555
C6 C1 1_555 1_555
C7 O1 1_555 1_555
H5 C7 1_555 1_555
H6 C7 1_555 1_555
C8 O2 1_555 1_555
H7 C8 1_555 1_555
H8 C8 1_555 1_555
C9 O2 1_555 1_555
H9 C9 1_555 1_555
H10 C9 1_555 1_555
C10 O3 1_555 1_555
H11 C10 1_555 1_555
H12 C10 1_555 1_555
C11 O3 1_555 1_555
C12 C11 1_555 1_555
H13 C12 1_555 1_555
C13 C12 1_555 1_555
H14 C13 1_555 1_555
C14 C13 1_555 1_555
H15 C14 1_555 1_555
C15 C14 1_555 1_555
H16 C15 1_555 1_555
C16 O4 1_555 1_555
C17 O4 1_555 1_555
H17 C17 1_555 1_555
H18 C17 1_555 1_555
C18 O5 1_555 1_555
H19 C18 1_555 1_555
H20 C18 1_555 1_555
C19 O5 1_555 1_555
H21 C19 1_555 1_555
H22 C19 1_555 1_555
C20 O6 1_555 1_555
H23 C20 1_555 1_555
H24 C20 1_555 1_555
C21 O12 1_555 1_555
C22 C21 1_555 1_555
H25 C22 1_555 1_555
C23 C22 1_555 1_555
H26 C23 1_555 1_555
C24 C23 1_555 1_555
H27 C24 1_555 1_555
C25 C24 1_555 1_555
H28 C25 1_555 1_555
C26 C21 1_555 1_555
C27 O7 1_555 1_555
H29 C27 1_555 1_555
H30 C27 1_555 1_555
C28 O8 1_555 1_555
H31 C28 1_555 1_555
H32 C28 1_555 1_555
C29 O8 1_555 1_555
H33 C29 1_555 1_555
H34 C29 1_555 1_555
C30 O9 1_555 1_555
H35 C30 1_555 1_555
H36 C30 1_555 1_555
C31 O9 1_555 1_555
C32 C31 1_555 1_555
H37 C32 1_555 1_555
C33 C32 1_555 1_555
H38 C33 1_555 1_555
C34 C33 1_555 1_555
H39 C34 1_555 1_555
C35 C34 1_555 1_555
H40 C35 1_555 1_555
C36 O10 1_555 1_555
C37 O10 1_555 1_555
H41 C37 1_555 1_555
H42 C37 1_555 1_555
C38 O11 1_555 1_555
H43 C38 1_555 1_555
H44 C38 1_555 1_555
C39 O11 1_555 1_555
H45 C39 1_555 1_555
H46 C39 1_555 1_555
C40 O12 1_555 1_555
H47 C40 1_555 1_555
H48 C40 1_555 1_555
O13 C53 1_555 1_555
O14 C53 1_555 1_555
O15 C62 1_555 1_555
O16 C62 1_555 1_555
O17 C71 1_555 1_555
O18 C71 1_555 1_555
C41 C42 1_555 1_555
C42 H49 1_555 1_555
C43 C42 1_555 1_555
C44 C43 1_555 1_555
H50 C44 1_555 1_555
C45 C44 1_555 1_555
C46 C41 1_555 1_555
H51 C46 1_555 1_555
C47 C41 1_555 1_555
C48 C47 1_555 1_555
C49 C48 1_555 1_555
H52 C49 1_555 1_555
C50 C49 1_555 1_555
C51 C50 1_555 1_555
H53 C51 1_555 1_555
C52 C47 1_555 1_555
C53 C50 1_555 1_555
C54 C48 1_555 1_555
H54 C54 1_555 1_555
H55 C54 1_555 1_555
H56 C54 1_555 1_555
C55 C52 1_555 1_555
H57 C55 1_555 1_555
H58 C55 1_555 1_555
H59 C55 1_555 1_555
C56 C45 1_555 1_555
C57 C56 1_555 1_555
C58 C57 1_555 1_555
H60 C58 1_555 1_555
C59 C58 1_555 1_555
C60 C59 1_555 1_555
H61 C60 1_555 1_555
C61 C56 1_555 1_555
C62 C59 1_555 1_555
C63 C57 1_555 1_555
H62 C63 1_555 1_555
H63 C63 1_555 1_555
H64 C63 1_555 1_555
C64 C61 1_555 1_555
H65 C64 1_555 1_555
H66 C64 1_555 1_555
H67 C64 1_555 1_555
C65 C43 1_555 1_555
C66 C65 1_555 1_555
C67 C66 1_555 1_555
H68 C67 1_555 1_555
C68 C67 1_555 1_555
C69 C68 1_555 1_555
H69 C69 1_555 1_555
C70 C65 1_555 1_555
C71 C68 1_555 1_555
C72 C66 1_555 1_555
H70 C72 1_555 1_555
H71 C72 1_555 1_555
H72 C72 1_555 1_555
C73 C70 1_555 1_555
H73 C73 1_555 1_555
H74 C73 1_555 1_555
H75 C73 1_555 1_555
K2_2 O5 1_555 1_555
O5_2 K2 1_555 1_555
C5 C6 1_555 1_555
C7 C8 1_555 1_555
C9 C10 1_555 1_555
C11 C16 1_555 1_555
C15 C16 1_555 1_555
C17 C18 1_555 1_555
C19 C20 1_555 1_555
C25 C26 1_555 1_555
C27 C28 1_555 1_555
C29 C30 1_555 1_555
C31 C36 1_555 1_555
C35 C36 1_555 1_555
C37 C38 1_555 1_555
C39 C40 1_555 1_555
C45 C46 1_555 1_555
C51 C52 1_555 1_555
C60 C61 1_555 1_555
C69 C70 1_555 1_555

#END
