
#######################################################################
#
#                 Cambridge Crystallographic Data Centre
#                                CCDC 
#
#######################################################################
#
# If this CIF has been generated from an entry in the Cambridge 
# Structural Database, then it will include bibliographic, chemical, 
# crystal, experimental, refinement or atomic coordinate data resulting 
# from the CCDC's data processing and validation procedures.
#
#######################################################################

data_HOBNOC
_symmetry_cell_setting           monoclinic
_symmetry_space_group_name_H-M   'P 21/c'
_symmetry_Int_Tables_number      14
_space_group_name_Hall           '-P 2ybc'
loop_
_symmetry_equiv_pos_site_id
_symmetry_equiv_pos_as_xyz
1 x,y,z
2 -x,1/2+y,1/2-z
3 -x,-y,-z
4 x,1/2-y,1/2+z
_cell_length_a                   20.296(4)
_cell_length_b                   7.1040(14)
_cell_length_c                   19.458(4)
_cell_angle_alpha                90
_cell_angle_beta                 107.65(3)
_cell_angle_gamma                90
_cell_volume                     2673.44
loop_
_atom_site_label
_atom_site_type_symbol
_atom_site_fract_x
_atom_site_fract_y
_atom_site_fract_z
In1 In 0.18502(3) 1.17250(7) 0.39792(3)
In2 In 0.36362(3) 1.00738(7) 0.17219(3)
I1 I 0.22410(2) 1.68082(7) 0.43459(3)
I2 I 0.28100(2) 1.29015(7) 0.28145(3)
I3 I 0.34920(3) 1.22380(7) 0.50788(3)
I4 I 0.43608(2) 1.45527(7) 0.21600(3)
I5 I 0.41828(2) 0.85436(6) 0.36658(2)
I6 I 0.47548(2) 0.83562(6) 0.06751(2)
O1 O 0.1761(3) 1.4819(7) 0.3835(3)
O2 O 0.2714(3) 1.0737(8) 0.4829(3)
O3 O 0.2145(3) 1.1434(7) 0.3032(3)
O4 O 0.1635(3) 1.8644(7) 0.3882(3)
O5 O 0.2858(3) 1.1367(8) 0.2089(3)
O6 O 0.4088(3) 0.8595(8) 0.2701(3)
O7 O 0.4471(3) 1.2027(7) 0.2063(3)
O8 O 0.4399(3) 0.8317(7) 0.1429(3)
O9 O 0.3202(3) 1.3830(8) 0.5663(3)
O10 O 0.2871(3) 0.7880(7) 0.1393(3)
O11 O 0.1979(3) 1.6591(9) 0.5147(3)
O12 O 0.3572(3) 1.4763(8) 0.1428(3)
O13 O 0.4040(3) 1.4474(9) 0.2929(3)
O14 O 0.2257(3) 1.4667(8) 0.2289(3)
O15 O 0.3693(3) 1.0555(8) 0.3777(3)
O16 O 0.5025(3) 0.9609(8) 0.3972(3)
O17 O 0.4076(3) 0.7278(8) -0.0008(3)
O18 O 0.4615(3) 1.0841(7) 0.0442(3)
O19 O 0.3192(4) 1.3725(9) 0.4299(3)
N1 N 0.1283(3) 1.2093(10) 0.4809(4)
N2 N 0.0713(3) 1.1706(9) 0.3346(3)
C1 C 0.1570(5) 1.2334(13) 0.5514(5)
H1 H 0.2049 1.2298 0.5709
C2 C 0.1158(5) 1.2643(17) 0.5967(4)
H2 H 0.1366 1.2794 0.6460
C3 C 0.0461(6) 1.272(2) 0.5693(6)
H3 H 0.0192 1.2972 0.5993
C4 C 0.0155(5) 1.2432(17) 0.4970(5)
C5 C -0.0600(5) 1.2418(18) 0.4595(6)
H4 H -0.0898 1.2628 0.4868
C6 C -0.0875(5) 1.2126(17) 0.3895(6)
H5 H -0.1353 1.2084 0.3692
C7 C -0.0436(4) 1.1875(13) 0.3453(4)
C8 C -0.0719(4) 1.1569(14) 0.2694(5)
H6 H -0.1194 1.1512 0.2474
C9 C -0.0264(5) 1.1363(15) 0.2302(5)
H7 H -0.0433 1.1166 0.1807
C10 C 0.0454(5) 1.1446(13) 0.2636(4)
H8 H 0.0752 1.1317 0.2359
C11 C 0.0569(4) 1.2164(12) 0.4502(4)
C12 C 0.0279(4) 1.1898(11) 0.3740(4)
In1_2 In 0.18502(3) 2.17250(7) 0.39792(3)
In2C In 0.36362(3) 1.49262(7) 0.67219(3)
O4_2 O 0.1635(3) 0.8644(7) 0.3882(3)
O9C O 0.3202(3) 1.1170(8) 0.0663(3)
O20 O 0.2716(4) 0.7614(9) 0.3148(4)
loop_
_geom_bond_atom_site_label_1
_geom_bond_atom_site_label_2
_geom_bond_site_symmetry_1
_geom_bond_site_symmetry_2
In1 O1 1_555 1_555
In2 O5 1_555 1_555
I1 O1 1_555 1_555
I2 O3 1_555 1_555
I3 O2 1_555 1_555
I4 O7 1_555 1_555
I5 O6 1_555 1_555
I6 O8 1_555 1_555
O2 In1 1_555 1_555
O3 In1 1_555 1_555
O4 I1 1_555 1_555
O5 I2 1_555 1_555
O6 In2 1_555 1_555
O7 In2 1_555 1_555
O8 In2 1_555 1_555
O9 I3 1_555 1_555
O10 In2 1_555 1_555
O11 I1 1_555 1_555
O12 I4 1_555 1_555
O13 I4 1_555 1_555
O14 I2 1_555 1_555
O15 I5 1_555 1_555
O16 I5 1_555 1_555
O17 I6 1_555 1_555
O18 I6 1_555 1_555
O19 I3 1_555 1_555
N1 In1 1_555 1_555
N2 In1 1_555 1_555
C1 N1 1_555 1_555
H1 C1 1_555 1_555
C2 C1 1_555 1_555
H2 C2 1_555 1_555
C3 C2 1_555 1_555
H3 C3 1_555 1_555
C4 C3 1_555 1_555
C5 C4 1_555 1_555
H4 C5 1_555 1_555
C6 C5 1_555 1_555
H5 C6 1_555 1_555
C7 C6 1_555 1_555
C8 C7 1_555 1_555
H6 C8 1_555 1_555
C9 C8 1_555 1_555
H7 C9 1_555 1_555
C10 N2 1_555 1_555
H8 C10 1_555 1_555
C11 N1 1_555 1_555
C12 N2 1_555 1_555
In1_2 O4 1_555 1_555
In2C O9 1_555 1_555
O4_2 In1 1_555 1_555
O9C In2 1_555 1_555
C4 C11 1_555 1_555
C7 C12 1_555 1_555
C9 C10 1_555 1_555
C11 C12 1_555 1_555

#END
