
#######################################################################
#
#                 Cambridge Crystallographic Data Centre
#                                CCDC 
#
#######################################################################
#
# If this CIF has been generated from an entry in the Cambridge 
# Structural Database, then it will include bibliographic, chemical, 
# crystal, experimental, refinement or atomic coordinate data resulting 
# from the CCDC's data processing and validation procedures.
#
#######################################################################

data_HOBNUI
_symmetry_cell_setting           monoclinic
_symmetry_space_group_name_H-M   'P 21/n'
_symmetry_Int_Tables_number      14
_space_group_name_Hall           '-P 2yn'
loop_
_symmetry_equiv_pos_site_id
_symmetry_equiv_pos_as_xyz
1 x,y,z
2 1/2-x,1/2+y,1/2-z
3 -x,-y,-z
4 1/2+x,1/2-y,1/2+z
_cell_length_a                   15.253(3)
_cell_length_b                   6.4904(13)
_cell_length_c                   19.614(4)
_cell_angle_alpha                90
_cell_angle_beta                 112.19(3)
_cell_angle_gamma                90
_cell_volume                     1797.94
loop_
_atom_site_label
_atom_site_type_symbol
_atom_site_fract_x
_atom_site_fract_y
_atom_site_fract_z
Ga1 Ga 0.96314(6) -0.23342(12) 0.67627(4)
I1 I 0.84528(3) -0.18347(7) 0.79741(3)
I2 I 0.77638(3) 0.17941(8) 0.91464(3)
I3 I 0.95260(3) 0.29196(7) 0.73406(3)
O1 O 0.9258(4) -0.3038(8) 0.7573(3)
O2 O 0.6587(4) 0.2655(8) 0.9068(3)
O3 O 0.9550(4) 0.0685(9) 0.6792(3)
O4 O 0.9824(4) 0.4637(8) 0.6717(3)
O5 O 0.9139(4) 0.0450(9) 0.8306(3)
O6 O 0.7570(4) -0.0920(10) 0.7131(3)
O7 O 0.7414(4) -0.0424(9) 0.8540(3)
O8 O 0.8118(4) 0.0519(10) 1.0014(3)
O9 O 1.0664(4) 0.2775(9) 0.8069(3)
N1 N 1.1049(5) -0.2061(10) 0.7469(4)
N2 N 1.0316(4) -0.2196(9) 0.6021(3)
C1 C 1.1357(7) -0.2082(14) 0.8206(5)
H2 H 1.0922 -0.2202 0.8432
C2 C 1.2314(7) -0.1927(16) 0.8638(5)
H3 H 1.2523 -0.1961 0.9149
C3 C 1.2951(7) -0.1720(17) 0.8291(5)
H4 H 1.3596 -0.1609 0.8570
C4 C 1.2634(6) -0.1681(14) 0.7547(5)
H5 H 1.3060 -0.1546 0.7314
C5 C 1.1672(6) -0.1842(12) 0.7134(4)
C6 C 1.1238(6) -0.1950(12) 0.6320(4)
C7 C 1.1792(6) -0.1870(14) 0.5884(5)
H6 H 1.2441 -0.1640 0.6100
C8 C 1.1351(7) -0.2144(14) 0.5119(5)
H7 H 1.1697 -0.2121 0.4818
C9 C 1.0380(7) -0.2448(13) 0.4830(5)
H8 H 1.0063 -0.2651 0.4327
C10 C 0.9886(6) -0.2450(13) 0.5290(4)
H9 H 0.9234 -0.2633 0.5088
Ga1A Ga 0.53686(6) 0.26658(12) 0.82373(4)
Ga1_2 Ga 0.96314(6) 0.76658(12) 0.67627(4)
O2A O 0.8413(4) -0.2345(8) 0.5932(3)
O4_2 O 0.9824(4) -0.5363(8) 0.6717(3)
I4 I 0.56874(4) -0.76275(8) 0.44853(3)
O10 O 0.5412(5) -0.7222(10) 0.5309(3)
O11 O 0.4689(5) -0.9426(10) 0.4028(3)
H1 H 0.4642 -1.0238 0.4333
O12 O 0.6629(5) -0.9418(11) 0.4819(4)
loop_
_geom_bond_atom_site_label_1
_geom_bond_atom_site_label_2
_geom_bond_site_symmetry_1
_geom_bond_site_symmetry_2
Ga1 O1 1_555 1_555
I1 O1 1_555 1_555
I2 O2 1_555 1_555
I3 O3 1_555 1_555
I4 O10 1_555 1_555
O2 Ga1A 1_555 1_555
O3 Ga1 1_555 1_555
O4 I3 1_555 1_555
O5 I1 1_555 1_555
O6 I1 1_555 1_555
O7 I1 1_555 1_555
O8 I2 1_555 1_555
O9 I3 1_555 1_555
O11 I4 1_555 1_555
H1 O11 1_555 1_555
O12 I4 1_555 1_555
N1 Ga1 1_555 1_555
N2 Ga1 1_555 1_555
C1 N1 1_555 1_555
H2 C1 1_555 1_555
C2 C1 1_555 1_555
H3 C2 1_555 1_555
C3 C2 1_555 1_555
H4 C3 1_555 1_555
C4 C3 1_555 1_555
H5 C4 1_555 1_555
C5 N1 1_555 1_555
C6 N2 1_555 1_555
C7 C6 1_555 1_555
H6 C7 1_555 1_555
C8 C7 1_555 1_555
H7 C8 1_555 1_555
C9 C8 1_555 1_555
H8 C9 1_555 1_555
C10 N2 1_555 1_555
H9 C10 1_555 1_555
Ga1_2 O4 1_555 1_555
O2A Ga1 1_555 1_555
O4_2 Ga1 1_555 1_555
I2 O7 1_555 1_555
C4 C5 1_555 1_555
C5 C6 1_555 1_555
C9 C10 1_555 1_555

#END
