
#######################################################################
#
#                 Cambridge Crystallographic Data Centre
#                                CCDC 
#
#######################################################################
#
# If this CIF has been generated from an entry in the Cambridge 
# Structural Database, then it will include bibliographic, chemical, 
# crystal, experimental, refinement or atomic coordinate data resulting 
# from the CCDC's data processing and validation procedures.
#
#######################################################################

data_HOBPAQ
_symmetry_cell_setting           monoclinic
_symmetry_space_group_name_H-M   'P 21/c'
_symmetry_Int_Tables_number      14
_space_group_name_Hall           '-P 2ybc'
loop_
_symmetry_equiv_pos_site_id
_symmetry_equiv_pos_as_xyz
1 x,y,z
2 -x,1/2+y,1/2-z
3 -x,-y,-z
4 x,1/2-y,1/2+z
_cell_length_a                   13.567(3)
_cell_length_b                   11.108(2)
_cell_length_c                   12.986(3)
_cell_angle_alpha                90
_cell_angle_beta                 115.34(3)
_cell_angle_gamma                90
_cell_volume                     1768.72
loop_
_atom_site_label
_atom_site_type_symbol
_atom_site_fract_x
_atom_site_fract_y
_atom_site_fract_z
Ga1 Ga 0.75928(2) 0.27302(3) 0.53665(3)
I1 I 0.670269(14) 0.288773(15) 0.740720(14)
I2 I 0.550524(15) 0.075854(16) 0.408102(16)
I3 I 0.523875(15) 0.441255(16) 0.384129(15)
O1 O 0.78483(16) 0.28757(19) 0.70081(17)
O2 O 0.67636(19) 0.1277(2) 0.52858(19)
O3 O 0.64304(17) 0.3827(2) 0.50564(18)
O4 O 0.75754(17) 0.23403(19) 0.88322(17)
O5 O 0.4499(2) 0.1119(2) 0.4578(2)
O6 O 0.52822(17) 0.20720(18) 0.31646(18)
O7 O 0.66783(17) 0.44630(18) 0.77078(19)
O8 O 0.57926(18) 0.4601(2) 0.28099(19)
O9 O 0.53813(19) 0.5916(2) 0.4395(2)
N1 N 0.9071(2) 0.1821(2) 0.5928(2)
N2 N 0.8673(2) 0.4174(2) 0.5717(2)
C1 C 0.9229(3) 0.0635(3) 0.5960(3)
H1 H 0.8635 0.0115 0.5710
C2 C 1.0296(4) 0.0167(4) 0.6374(3)
H2 H 1.0398 -0.0662 0.6378
C3 C 1.1182(4) 0.0915(5) 0.6769(4)
H3 H 1.1882 0.0595 0.7057
C4 C 1.1032(3) 0.2163(4) 0.6739(3)
C5 C 1.1897(3) 0.3066(6) 0.7132(4)
H4 H 1.2619 0.2810 0.7459
C6 C 1.1691(3) 0.4237(6) 0.7040(4)
H5 H 1.2269 0.4779 0.7301
C7 C 1.0603(3) 0.4682(4) 0.6550(3)
C8 C 1.0304(4) 0.5909(4) 0.6358(3)
H6 H 1.0841 0.6499 0.6566
C9 C 0.9243(4) 0.6228(4) 0.5874(3)
H7 H 0.9050 0.7036 0.5743
C10 C 0.8429(3) 0.5342(3) 0.5568(3)
H8 H 0.7701 0.5577 0.5252
C11 C 0.9950(3) 0.2576(3) 0.6295(3)
C12 C 0.9735(3) 0.3838(3) 0.6190(3)
Ga1C Ga 0.75928(2) 0.22698(3) 1.03665(3)
O4C O 0.75754(17) 0.26597(19) 0.38322(17)
O10 O 0.6870(4) 0.7951(4) 0.4453(5)
H9 H 0.6903 0.7887 0.5218
H10 H 0.6308 0.7335 0.4047
loop_
_geom_bond_atom_site_label_1
_geom_bond_atom_site_label_2
_geom_bond_site_symmetry_1
_geom_bond_site_symmetry_2
Ga1 O1 1_555 1_555
I1 O1 1_555 1_555
I2 O2 1_555 1_555
I3 O3 1_555 1_555
O2 Ga1 1_555 1_555
O3 Ga1 1_555 1_555
O4 I1 1_555 1_555
O5 I2 1_555 1_555
O6 I2 1_555 1_555
O7 I1 1_555 1_555
O8 I3 1_555 1_555
O9 I3 1_555 1_555
N1 Ga1 1_555 1_555
N2 Ga1 1_555 1_555
C1 N1 1_555 1_555
H1 C1 1_555 1_555
C2 C1 1_555 1_555
H2 C2 1_555 1_555
C3 C2 1_555 1_555
H3 C3 1_555 1_555
C4 C3 1_555 1_555
C5 C4 1_555 1_555
H4 C5 1_555 1_555
C6 C5 1_555 1_555
H5 C6 1_555 1_555
C7 C6 1_555 1_555
C8 C7 1_555 1_555
H6 C8 1_555 1_555
C9 C8 1_555 1_555
H7 C9 1_555 1_555
C10 N2 1_555 1_555
H8 C10 1_555 1_555
C11 N1 1_555 1_555
C12 N2 1_555 1_555
O10 H9 1_555 1_555
H10 O10 1_555 1_555
Ga1C O4 1_555 1_555
O4C Ga1 1_555 1_555
C4 C11 1_555 1_555
C7 C12 1_555 1_555
C9 C10 1_555 1_555
C11 C12 1_555 1_555

#END
