
#######################################################################
#
#                 Cambridge Crystallographic Data Centre
#                                CCDC 
#
#######################################################################
#
# If this CIF has been generated from an entry in the Cambridge 
# Structural Database, then it will include bibliographic, chemical, 
# crystal, experimental, refinement or atomic coordinate data resulting 
# from the CCDC's data processing and validation procedures.
#
#######################################################################

data_HOBVOK
_symmetry_cell_setting           monoclinic
_symmetry_space_group_name_H-M   'P 21/c'
_symmetry_Int_Tables_number      14
_space_group_name_Hall           '-P 2ybc'
loop_
_symmetry_equiv_pos_site_id
_symmetry_equiv_pos_as_xyz
1 x,y,z
2 -x,1/2+y,1/2-z
3 -x,-y,-z
4 x,1/2-y,1/2+z
_cell_length_a                   7.3030(15)
_cell_length_b                   19.716(4)
_cell_length_c                   5.9490(12)
_cell_angle_alpha                90
_cell_angle_beta                 98.17(3)
_cell_angle_gamma                90
_cell_volume                     847.879
loop_
_atom_site_label
_atom_site_type_symbol
_atom_site_fract_x
_atom_site_fract_y
_atom_site_fract_z
Cu1 Cu 0.36911(6) 0.72759(2) 0.57761(7)
N1 N 0.3467(4) 0.61822(14) 0.5448(5)
C1 C 0.3997(5) 0.57291(16) 0.7154(6)
N2 N 0.3480(4) 0.50604(15) 0.7109(5)
C2 C 0.2452(5) 0.48471(19) 0.5209(7)
H1 H 0.2075 0.4386 0.5123
C3 C 0.1902(6) 0.52628(19) 0.3347(7)
H2 H 0.1207 0.5092 0.1993
C4 C 0.2419(5) 0.59393(18) 0.3565(6)
H3 H 0.2024 0.6242 0.2350
N3 N 0.5084(4) 0.59504(15) 0.9036(5)
H4 H 0.5434 0.6378 0.9142
H5 H 0.5443 0.5667 1.0156
N4 N 0.1920(4) 0.73492(15) 0.8034(5)
N5 N 0.0726(4) 0.69207(17) 0.8192(5)
N6 N -0.0404(6) 0.6526(2) 0.8348(7)
N7 N 0.5470(4) 0.74538(17) 0.3578(5)
N8 N 0.6855(5) 0.70879(17) 0.3404(6)
N9 N 0.8118(6) 0.6776(2) 0.3158(8)
Cu1C Cu 0.36911(6) 0.77241(2) 1.07761(7)
Cu1C_2 Cu 0.36911(6) 0.77241(2) 0.07761(7)
N4C N 0.1920(4) 0.76508(15) 0.3034(5)
N7C N 0.5470(4) 0.75462(17) 0.8578(5)
loop_
_geom_bond_atom_site_label_1
_geom_bond_atom_site_label_2
_geom_bond_site_symmetry_1
_geom_bond_site_symmetry_2
Cu1 N1 1_555 1_555
N1 C1 1_555 1_555
C1 N2 1_555 1_555
N2 C2 1_555 1_555
C2 H1 1_555 1_555
C3 C2 1_555 1_555
H2 C3 1_555 1_555
C4 N1 1_555 1_555
H3 C4 1_555 1_555
N3 C1 1_555 1_555
H4 N3 1_555 1_555
H5 N3 1_555 1_555
N4 Cu1 1_555 1_555
N5 N4 1_555 1_555
N6 N5 1_555 1_555
N7 Cu1 1_555 1_555
N8 N7 1_555 1_555
N9 N8 1_555 1_555
Cu1C N4 1_555 1_555
Cu1C_2 N7 1_555 1_555
N4C Cu1 1_555 1_555
N7C Cu1 1_555 1_555
C3 C4 1_555 1_555
Cu1C N7C 1_555 1_555
Cu1C_2 N4C 1_555 1_555

#END
