
#######################################################################
#
#                 Cambridge Crystallographic Data Centre
#                                CCDC 
#
#######################################################################
#
# If this CIF has been generated from an entry in the Cambridge 
# Structural Database, then it will include bibliographic, chemical, 
# crystal, experimental, refinement or atomic coordinate data resulting 
# from the CCDC's data processing and validation procedures.
#
#######################################################################

data_HOBXUR
_symmetry_cell_setting           triclinic
_symmetry_space_group_name_H-M   'P -1'
_symmetry_Int_Tables_number      2
_space_group_name_Hall           '-P 1'
loop_
_symmetry_equiv_pos_site_id
_symmetry_equiv_pos_as_xyz
1 x,y,z
2 -x,-y,-z
_cell_length_a                   12.527(3)
_cell_length_b                   15.383(2)
_cell_length_c                   9.740(1)
_cell_angle_alpha                96.55(1)
_cell_angle_beta                 91.95(2)
_cell_angle_gamma                70.50(2)
_cell_volume                     1757.7
loop_
_atom_site_label
_atom_site_type_symbol
_atom_site_fract_x
_atom_site_fract_y
_atom_site_fract_z
Au1 Au 0.5198(1) -0.13980(8) 0.2461(2)
Au2 Au 0.4176(1) -0.65158(9) -0.2240(2)
S1 S 0.4112(9) -0.1296(6) 0.4376(9)
S2 S 0.253(1) -0.6545(7) -0.332(1)
P1 P 0.6150(7) -0.1357(5) 0.0532(8)
P2 P 0.5756(9) -0.6389(6) -0.123(1)
C1 C 0.550(2) -0.029(2) -0.025(3)
C2 C 0.556(3) -0.528(2) -0.007(4)
C3 C 0.299(4) -0.028(2) 0.424(4)
C4 C 0.321(4) 0.058(2) 0.430(4)
C5 C 0.209(4) 0.138(3) 0.398(4)
C6 C 0.098(3) 0.127(3) 0.375(4)
C7 C 0.087(3) 0.042(3) 0.369(4)
C8 C 0.178(3) -0.034(2) 0.382(4)
C9 C 0.235(3) 0.131(2) -0.096(6)
C10 C 0.174(3) 0.138(2) 0.040(4)
C11 C 0.061(3) 0.134(2) 0.005(4)
C12 C 0.024(3) 0.124(2) -0.146(4)
C13 C 0.093(4) 0.121(3) -0.252(4)
C14 C 0.200(4) 0.125(3) -0.235(3)
C15 C 0.363(3) 0.227(2) 0.080(4)
C16 C 0.296(2) 0.315(2) 0.065(3)
C17 C 0.273(4) 0.388(3) 0.164(4)
C18 C 0.330(4) 0.375(2) 0.285(5)
C19 C 0.411(4) 0.286(3) 0.319(4)
C20 C 0.418(3) 0.212(2) 0.195(4)
C21 C 0.159(5) -0.548(4) -0.269(8)
C22 C 0.076(6) -0.533(3) -0.361(6)
C23 C -0.026(5) -0.437(5) -0.339(9)
C24 C -0.003(8) -0.370(4) -0.232(7)
C25 C 0.079(5) -0.385(3) -0.157(5)
C26 C 0.169(4) -0.473(5) -0.227(5)
C27 C 0.650(3) -0.727(3) -0.014(4)
C28 C 0.702(3) -0.816(2) -0.076(4)
C29 C 0.756(3) -0.882(3) 0.010(6)
C30 C 0.756(4) -0.865(4) 0.173(7)
C31 C 0.704(5) -0.777(4) 0.243(6)
C32 C 0.645(3) -0.704(3) 0.127(6)
C33 C 0.681(4) -0.642(3) -0.243(4)
C34 C 0.794(6) -0.657(4) -0.189(8)
C35 C 0.88(1) -0.655(6) -0.271(9)
C36 C 0.861(8) -0.646(5) -0.39(1)
C37 C 0.745(9) -0.620(4) -0.481(7)
C38 C 0.648(5) -0.621(3) -0.39(1)
C2A C 0.444(3) -0.472(2) 0.007(4)
P2A P 0.4244(9) -0.3611(6) 0.123(1)
Au2A Au 0.5824(1) -0.34842(9) 0.2240(2)
Au1A Au 0.4802(1) -0.86020(8) -0.2461(2)
C1A C 0.450(2) 0.029(2) 0.025(3)
P1A P 0.3850(7) 0.1357(5) -0.0532(8)
Au1A_2 Au 0.4802(1) 0.13980(8) -0.2461(2)
Au2_2 Au 0.4176(1) 0.34842(9) -0.2240(2)
S1A S 0.5888(9) 0.1296(6) -0.4376(9)
C3A C 0.701(4) 0.028(2) -0.424(4)
C4A C 0.679(4) -0.058(2) -0.430(4)
C5A C 0.791(4) -0.138(3) -0.398(4)
C6A C 0.902(3) -0.127(3) -0.375(4)
C7A C 0.913(3) -0.042(3) -0.369(4)
C8A C 0.822(3) 0.034(2) -0.382(4)
C9A C 0.765(3) -0.131(2) 0.096(6)
C10A C 0.826(3) -0.138(2) -0.040(4)
C11A C 0.939(3) -0.134(2) -0.005(4)
C12A C 0.976(3) -0.124(2) 0.146(4)
C13A C 0.907(4) -0.121(3) 0.252(4)
C14A C 0.800(4) -0.125(3) 0.235(3)
C15A C 0.637(3) -0.227(2) -0.080(4)
C16A C 0.704(2) -0.315(2) -0.065(3)
C17A C 0.727(4) -0.388(3) -0.164(4)
C18A C 0.670(4) -0.375(2) -0.285(5)
C19A C 0.589(4) -0.286(3) -0.319(4)
C20A C 0.582(3) -0.212(2) -0.195(4)
S2A S 0.747(1) -0.3455(7) 0.332(1)
C21A C 0.841(5) -0.452(4) 0.269(8)
C22A C 0.924(6) -0.467(3) 0.361(6)
C23A C 1.026(5) -0.563(5) 0.339(9)
C24A C 1.003(8) -0.630(4) 0.232(7)
C25A C 0.921(5) -0.615(3) 0.157(5)
C26A C 0.831(4) -0.527(5) 0.227(5)
C27A C 0.350(3) -0.273(3) 0.014(4)
C28A C 0.298(3) -0.184(2) 0.076(4)
C29A C 0.244(3) -0.118(3) -0.010(6)
C30A C 0.244(4) -0.135(4) -0.173(7)
C31A C 0.296(5) -0.223(4) -0.243(6)
C32A C 0.355(3) -0.296(3) -0.127(6)
C33A C 0.319(4) -0.358(3) 0.243(4)
C34A C 0.206(6) -0.343(4) 0.189(8)
C35A C 0.12(1) -0.345(6) 0.271(9)
C36A C 0.139(8) -0.354(5) 0.39(1)
C37A C 0.255(9) -0.380(4) 0.481(7)
C38A C 0.352(5) -0.379(3) 0.39(1)
loop_
_geom_bond_atom_site_label_1
_geom_bond_atom_site_label_2
_geom_bond_site_symmetry_1
_geom_bond_site_symmetry_2
Au1 S1 1_555 1_555
Au2 S2 1_555 1_555
S1 C3 1_555 1_555
S2 C21 1_555 1_555
P1 Au1 1_555 1_555
P2 Au2 1_555 1_555
C1 P1 1_555 1_555
C2 P2 1_555 1_555
C3 C4 1_555 1_555
C4 C5 1_555 1_555
C5 C6 1_555 1_555
C6 C7 1_555 1_555
C7 C8 1_555 1_555
C8 C3 1_555 1_555
C9 C10 1_555 1_555
C10 C11 1_555 1_555
C11 C12 1_555 1_555
C12 C13 1_555 1_555
C13 C14 1_555 1_555
C14 C9 1_555 1_555
C15 C16 1_555 1_555
C16 C17 1_555 1_555
C17 C18 1_555 1_555
C18 C19 1_555 1_555
C19 C20 1_555 1_555
C20 C15 1_555 1_555
C21 C22 1_555 1_555
C22 C23 1_555 1_555
C23 C24 1_555 1_555
C24 C25 1_555 1_555
C25 C26 1_555 1_555
C26 C21 1_555 1_555
C27 P2 1_555 1_555
C28 C27 1_555 1_555
C29 C28 1_555 1_555
C30 C29 1_555 1_555
C31 C30 1_555 1_555
C32 C27 1_555 1_555
C33 P2 1_555 1_555
C34 C33 1_555 1_555
C35 C34 1_555 1_555
C36 C35 1_555 1_555
C37 C36 1_555 1_555
C38 C33 1_555 1_555
C2A C2 1_555 1_555
P2A C2A 1_555 1_555
Au2A Au1 1_555 1_555
Au1A Au2 1_555 1_555
C1A C1 1_555 1_555
P1A C9 1_555 1_555
Au1A_2 P1A 1_555 1_555
Au2_2 Au1A_2 1_555 1_555
S1A Au1A_2 1_555 1_555
C3A S1A 1_555 1_555
C4A C3A 1_555 1_555
C5A C4A 1_555 1_555
C6A C5A 1_555 1_555
C7A C6A 1_555 1_555
C8A C3A 1_555 1_555
C9A P1 1_555 1_555
C10A C9A 1_555 1_555
C11A C10A 1_555 1_555
C12A C11A 1_555 1_555
C13A C12A 1_555 1_555
C14A C9A 1_555 1_555
C15A P1 1_555 1_555
C16A C15A 1_555 1_555
C17A C16A 1_555 1_555
C18A C17A 1_555 1_555
C19A C18A 1_555 1_555
C20A C15A 1_555 1_555
S2A Au2A 1_555 1_555
C21A S2A 1_555 1_555
C22A C21A 1_555 1_555
C23A C22A 1_555 1_555
C24A C23A 1_555 1_555
C25A C24A 1_555 1_555
C26A C21A 1_555 1_555
C27A P2A 1_555 1_555
C28A C27A 1_555 1_555
C29A C28A 1_555 1_555
C30A C29A 1_555 1_555
C31A C30A 1_555 1_555
C32A C27A 1_555 1_555
C33A P2A 1_555 1_555
C34A C33A 1_555 1_555
C35A C34A 1_555 1_555
C36A C35A 1_555 1_555
C37A C36A 1_555 1_555
C38A C33A 1_555 1_555
C15 P1A 1_555 1_555
C31 C32 1_555 1_555
C37 C38 1_555 1_555
P2A Au2A 1_555 1_555
C1A P1A 1_555 1_555
C7A C8A 1_555 1_555
C13A C14A 1_555 1_555
C19A C20A 1_555 1_555
C25A C26A 1_555 1_555
C31A C32A 1_555 1_555
C37A C38A 1_555 1_555

#END
