
#######################################################################
#
#                 Cambridge Crystallographic Data Centre
#                                CCDC 
#
#######################################################################
#
# If this CIF has been generated from an entry in the Cambridge 
# Structural Database, then it will include bibliographic, chemical, 
# crystal, experimental, refinement or atomic coordinate data resulting 
# from the CCDC's data processing and validation procedures.
#
#######################################################################

data_HOCCOS
_symmetry_cell_setting           triclinic
_symmetry_space_group_name_H-M   'P -1'
_symmetry_Int_Tables_number      2
_space_group_name_Hall           '-P 1'
loop_
_symmetry_equiv_pos_site_id
_symmetry_equiv_pos_as_xyz
1 x,y,z
2 -x,-y,-z
_cell_length_a                   11.2963(19)
_cell_length_b                   12.936(2)
_cell_length_c                   16.593(3)
_cell_angle_alpha                110.068(12)
_cell_angle_beta                 98.677(13)
_cell_angle_gamma                99.317(13)
_cell_volume                     2191.02
loop_
_atom_site_label
_atom_site_type_symbol
_atom_site_fract_x
_atom_site_fract_y
_atom_site_fract_z
Mn1 Mn 0.93158(12) 0.48716(10) 0.59578(7)
Cl1 Cl 1.0115(2) 0.63931(18) 0.54385(12)
Cl2 Cl 0.7134(2) 0.4182(2) 0.54250(14)
B1 B 0.9386(8) 0.4824(8) 0.8076(5)
N1 N 1.0277(6) 0.4181(5) 0.7566(4)
N2 N 1.0247(6) 0.4025(5) 0.6699(4)
C1 C 1.1085(8) 0.3375(7) 0.6456(5)
H1 H 1.1274 0.3128 0.5892
C2 C 1.1609(8) 0.3137(8) 0.7169(5)
H2 H 1.2210 0.2703 0.7180
C3 C 1.1091(8) 0.3648(7) 0.7850(5)
H3 H 1.1270 0.3632 0.8423
N3 N 0.9587(6) 0.6019(5) 0.8051(4)
N4 N 0.9499(7) 0.6192(5) 0.7278(4)
C4 C 0.9635(10) 0.7321(7) 0.7484(5)
H4 H 0.9634 0.7680 0.7071
C5 C 0.9773(11) 0.7874(8) 0.8378(6)
H5 H 0.9847 0.8658 0.8689
C6 C 0.9780(9) 0.7030(7) 0.8730(5)
H6 H 0.9899 0.7146 0.9336
C7 C 0.7935(7) 0.4127(7) 0.7595(4)
C8 C 0.7586(8) 0.2953(8) 0.7253(5)
C9 C 0.6355(10) 0.2339(9) 0.6899(7)
C10 C 0.5448(9) 0.2922(12) 0.6904(7)
C11 C 0.5743(10) 0.4078(11) 0.7244(7)
C12 C 0.6945(8) 0.4639(8) 0.7581(6)
F1 F 0.8423(5) 0.2315(4) 0.7242(4)
F2 F 0.6098(6) 0.1195(5) 0.6586(5)
F3 F 0.4239(5) 0.2304(7) 0.6559(5)
F4 F 0.4823(6) 0.4597(7) 0.7217(6)
F5 F 0.7119(5) 0.5774(5) 0.7914(4)
C13 C 0.9683(7) 0.4926(6) 0.9095(4)
C14 C 0.8853(7) 0.4433(7) 0.9480(5)
H7 H 0.8058 0.4022 0.9130
C15 C 1.0862(7) 0.5484(7) 0.9640(5)
H8 H 1.1477 0.5811 0.9410
Li1 Li 0.6392(17) 0.2626(16) 0.4099(14)
O1 O 0.6430(8) 0.2831(7) 0.3021(5)
C16 C 0.7217(13) 0.3784(13) 0.2939(10)
H9 H 0.8095 0.3841 0.3172
H10 H 0.6999 0.4504 0.3255
C17 C 0.6947(15) 0.3496(14) 0.1943(9)
H11 H 0.6949 0.4188 0.1814
H12 H 0.7571 0.3123 0.1678
C18 C 0.5689(16) 0.2705(15) 0.1590(9)
H13 H 0.5045 0.3122 0.1520
H14 H 0.5647 0.2108 0.1014
C19 C 0.554(2) 0.2237(19) 0.2225(10)
H15 H 0.5606 0.1438 0.1991
H16 H 0.4709 0.2247 0.2344
O2 O 0.6968(9) 0.1304(7) 0.4064(6)
C20 C 0.718(3) 0.1029(16) 0.4783(17)
H17 H 0.6982 0.1603 0.5285
H18 H 0.6628 0.0289 0.4663
C21 C 0.826(3) 0.097(4) 0.498(2)
H19 H 0.8339 0.0490 0.5325
H20 H 0.8799 0.1734 0.5318
C22 C 0.8563(17) 0.0399(13) 0.3996(17)
H21 H 0.9395 0.0752 0.3971
H22 H 0.8467 -0.0430 0.3810
C23 C 0.7572(16) 0.0699(11) 0.3478(9)
H23 H 0.7931 0.1160 0.3167
H24 H 0.6996 0.0007 0.3036
O3 O 0.4611(8) 0.2296(7) 0.4053(8)
C24 C 0.4017(11) 0.3254(10) 0.4205(12)
H25 H 0.4644 0.3976 0.4491
H26 H 0.3564 0.3234 0.3639
C25 C 0.323(2) 0.317(2) 0.473(2)
H27 H 0.2542 0.3526 0.4633
H28 H 0.3659 0.3519 0.5360
C26 C 0.2784(15) 0.190(2) 0.4444(19)
H29 H 0.2095 0.1593 0.3919
H30 H 0.2508 0.1701 0.4923
C27 C 0.3937(18) 0.1419(15) 0.4225(13)
H31 H 0.4396 0.1301 0.4731
H32 H 0.3704 0.0702 0.3704
Mn1A Mn 1.06842(12) 0.51284(10) 0.40422(7)
Mn1A_2 Mn 1.06842(12) 0.51284(10) 1.40422(7)
Cl1A Cl 0.9885(2) 0.36069(18) 0.45615(12)
Cl2A Cl 1.2866(2) 0.5818(2) 0.45750(14)
B1A B 1.0614(8) 0.5176(8) 1.1924(5)
N1A N 0.9723(6) 0.5819(5) 1.2434(4)
N2A N 0.9753(6) 0.5975(5) 1.3301(4)
N2A_2 N 0.9753(6) 0.5975(5) 0.3301(4)
C1A C 0.8915(8) 0.6625(7) 1.3544(5)
H1A H 0.8726 0.6872 1.4108
C2A C 0.8391(8) 0.6863(8) 1.2831(5)
H2A H 0.7790 0.7297 1.2820
C3A C 0.8909(8) 0.6352(7) 1.2150(5)
H3A H 0.8730 0.6368 1.1577
N3A N 1.0413(6) 0.3981(5) 1.1949(4)
N4A N 1.0501(7) 0.3808(5) 1.2722(4)
N4A_2 N 1.0501(7) 0.3808(5) 0.2722(4)
C4A C 1.0365(10) 0.2679(7) 1.2516(5)
H4A H 1.0366 0.2320 1.2929
C5A C 1.0227(11) 0.2126(8) 1.1622(6)
H5A H 1.0153 0.1342 1.1311
C6A C 1.0220(9) 0.2970(7) 1.1270(5)
H6A H 1.0101 0.2854 1.0664
C7A C 1.2065(7) 0.5873(7) 1.2405(4)
C8A C 1.2414(8) 0.7047(8) 1.2747(5)
C9A C 1.3645(10) 0.7661(9) 1.3101(7)
C10A C 1.4552(9) 0.7078(12) 1.3096(7)
C11A C 1.4257(10) 0.5922(11) 1.2756(7)
C12A C 1.3055(8) 0.5361(8) 1.2419(6)
F1A F 1.1577(5) 0.7685(4) 1.2758(4)
F2A F 1.3902(6) 0.8805(5) 1.3414(5)
F3A F 1.5761(5) 0.7696(7) 1.3441(5)
F4A F 1.5177(6) 0.5403(7) 1.2783(6)
F5A F 1.2881(5) 0.4226(5) 1.2086(4)
C13A C 1.0317(7) 0.5074(6) 1.0905(4)
C14A C 1.1147(7) 0.5567(7) 1.0520(5)
H7A H 1.1942 0.5978 1.0870
C15A C 0.9138(7) 0.4516(7) 1.0360(5)
H8A H 0.8523 0.4189 1.0590
Li1A Li 1.3608(17) 0.7374(16) 0.5901(14)
O1A O 1.3570(8) 0.7169(7) 0.6979(5)
C16A C 1.2783(13) 0.6216(13) 0.7061(10)
H9A H 1.1905 0.6159 0.6828
H10A H 1.3001 0.5496 0.6745
C17A C 1.3053(15) 0.6504(14) 0.8057(9)
H11A H 1.3051 0.5812 0.8186
H12A H 1.2429 0.6877 0.8322
C18A C 1.4311(16) 0.7295(15) 0.8410(9)
H13A H 1.4955 0.6878 0.8480
H14A H 1.4353 0.7892 0.8986
C19A C 1.446(2) 0.7763(19) 0.7775(10)
H15A H 1.4394 0.8562 0.8009
H16A H 1.5291 0.7753 0.7656
O2A O 1.3032(9) 0.8696(7) 0.5936(6)
C20A C 1.282(3) 0.8971(16) 0.5217(17)
H17A H 1.3018 0.8397 0.4715
H18A H 1.3372 0.9711 0.5337
C21A C 1.174(3) 0.903(4) 0.502(2)
H19A H 1.1661 0.9510 0.4675
H20A H 1.1201 0.8266 0.4682
C22A C 1.1437(17) 0.9601(13) 0.6004(17)
H21A H 1.0605 0.9248 0.6029
H22A H 1.1533 1.0430 0.6190
C23A C 1.2428(16) 0.9301(11) 0.6522(9)
H23A H 1.2069 0.8840 0.6833
H24A H 1.3004 0.9993 0.6964
O3A O 1.5389(8) 0.7704(7) 0.5947(8)
C24A C 1.5983(11) 0.6746(10) 0.5795(12)
H25A H 1.5356 0.6024 0.5509
H26A H 1.6436 0.6766 0.6361
C25A C 1.677(2) 0.683(2) 0.527(2)
H27A H 1.7458 0.6474 0.5367
H28A H 1.6341 0.6481 0.4640
C26A C 1.7216(15) 0.810(2) 0.5556(19)
H29A H 1.7905 0.8407 0.6081
H30A H 1.7492 0.8299 0.5077
C27A C 1.6063(18) 0.8581(15) 0.5775(13)
H31A H 1.5604 0.8699 0.5269
H32A H 1.6296 0.9298 0.6296
loop_
_geom_bond_atom_site_label_1
_geom_bond_atom_site_label_2
_geom_bond_site_symmetry_1
_geom_bond_site_symmetry_2
Mn1 Cl1 1_555 1_555
Cl1 Mn1A 1_555 1_555
Cl2 Mn1 1_555 1_555
B1 N1 1_555 1_555
N1 N2 1_555 1_555
N2 Mn1 1_555 1_555
C1 N2 1_555 1_555
H1 C1 1_555 1_555
C2 C1 1_555 1_555
H2 C2 1_555 1_555
C3 N1 1_555 1_555
H3 C3 1_555 1_555
N3 B1 1_555 1_555
N4 Mn1 1_555 1_555
C4 N4 1_555 1_555
H4 C4 1_555 1_555
C5 C4 1_555 1_555
H5 C5 1_555 1_555
C6 N3 1_555 1_555
H6 C6 1_555 1_555
C7 B1 1_555 1_555
C8 C7 1_555 1_555
C9 C8 1_555 1_555
C10 C9 1_555 1_555
C11 C10 1_555 1_555
C12 C7 1_555 1_555
F1 C8 1_555 1_555
F2 C9 1_555 1_555
F3 C10 1_555 1_555
F4 C11 1_555 1_555
F5 C12 1_555 1_555
C13 B1 1_555 1_555
C14 C13 1_555 1_555
H7 C14 1_555 1_555
C15 C13 1_555 1_555
H8 C15 1_555 1_555
Li1 Cl2 1_555 1_555
O1 Li1 1_555 1_555
C16 O1 1_555 1_555
H9 C16 1_555 1_555
H10 C16 1_555 1_555
C17 C16 1_555 1_555
H11 C17 1_555 1_555
H12 C17 1_555 1_555
C18 C17 1_555 1_555
H13 C18 1_555 1_555
H14 C18 1_555 1_555
C19 O1 1_555 1_555
H15 C19 1_555 1_555
H16 C19 1_555 1_555
O2 Li1 1_555 1_555
C20 O2 1_555 1_555
H17 C20 1_555 1_555
H18 C20 1_555 1_555
C21 C20 1_555 1_555
H19 C21 1_555 1_555
H20 C21 1_555 1_555
C22 C21 1_555 1_555
H21 C22 1_555 1_555
H22 C22 1_555 1_555
C23 O2 1_555 1_555
H23 C23 1_555 1_555
H24 C23 1_555 1_555
O3 Li1 1_555 1_555
C24 O3 1_555 1_555
H25 C24 1_555 1_555
H26 C24 1_555 1_555
C25 C24 1_555 1_555
H27 C25 1_555 1_555
H28 C25 1_555 1_555
C26 C25 1_555 1_555
H29 C26 1_555 1_555
H30 C26 1_555 1_555
C27 O3 1_555 1_555
H31 C27 1_555 1_555
H32 C27 1_555 1_555
Mn1A Cl1A 1_555 1_555
Mn1A_2 N2A 1_555 1_555
Cl1A Mn1 1_555 1_555
Cl2A Mn1A 1_555 1_555
B1A N1A 1_555 1_555
N1A N2A 1_555 1_555
N2A C1A 1_555 1_555
N2A_2 Mn1A 1_555 1_555
C1A H1A 1_555 1_555
C2A C1A 1_555 1_555
H2A C2A 1_555 1_555
C3A N1A 1_555 1_555
H3A C3A 1_555 1_555
N3A B1A 1_555 1_555
N4A Mn1A_2 1_555 1_555
N4A_2 Mn1A 1_555 1_555
C4A N4A 1_555 1_555
H4A C4A 1_555 1_555
C5A C4A 1_555 1_555
H5A C5A 1_555 1_555
C6A N3A 1_555 1_555
H6A C6A 1_555 1_555
C7A B1A 1_555 1_555
C8A C7A 1_555 1_555
C9A C8A 1_555 1_555
C10A C9A 1_555 1_555
C11A C10A 1_555 1_555
C12A C7A 1_555 1_555
F1A C8A 1_555 1_555
F2A C9A 1_555 1_555
F3A C10A 1_555 1_555
F4A C11A 1_555 1_555
F5A C12A 1_555 1_555
C13A B1A 1_555 1_555
C14A C15 1_555 1_555
H7A C14A 1_555 1_555
C15A C14 1_555 1_555
H8A C15A 1_555 1_555
Li1A Cl2A 1_555 1_555
O1A Li1A 1_555 1_555
C16A O1A 1_555 1_555
H9A C16A 1_555 1_555
H10A C16A 1_555 1_555
C17A C16A 1_555 1_555
H11A C17A 1_555 1_555
H12A C17A 1_555 1_555
C18A C17A 1_555 1_555
H13A C18A 1_555 1_555
H14A C18A 1_555 1_555
C19A O1A 1_555 1_555
H15A C19A 1_555 1_555
H16A C19A 1_555 1_555
O2A Li1A 1_555 1_555
C20A O2A 1_555 1_555
H17A C20A 1_555 1_555
H18A C20A 1_555 1_555
C21A C20A 1_555 1_555
H19A C21A 1_555 1_555
H20A C21A 1_555 1_555
C22A C21A 1_555 1_555
H21A C22A 1_555 1_555
H22A C22A 1_555 1_555
C23A O2A 1_555 1_555
H23A C23A 1_555 1_555
H24A C23A 1_555 1_555
O3A Li1A 1_555 1_555
C24A O3A 1_555 1_555
H25A C24A 1_555 1_555
H26A C24A 1_555 1_555
C25A C24A 1_555 1_555
H27A C25A 1_555 1_555
H28A C25A 1_555 1_555
C26A C25A 1_555 1_555
H29A C26A 1_555 1_555
H30A C26A 1_555 1_555
C27A O3A 1_555 1_555
H31A C27A 1_555 1_555
H32A C27A 1_555 1_555
C2 C3 1_555 1_555
N3 N4 1_555 1_555
C5 C6 1_555 1_555
C11 C12 1_555 1_555
C18 C19 1_555 1_555
C22 C23 1_555 1_555
C26 C27 1_555 1_555
C2A C3A 1_555 1_555
N3A N4A 1_555 1_555
C5A C6A 1_555 1_555
C11A C12A 1_555 1_555
C13A C14A 1_555 1_555
C13A C15A 1_555 1_555
C18A C19A 1_555 1_555
C22A C23A 1_555 1_555
C26A C27A 1_555 1_555

#END
