
#######################################################################
#
#                 Cambridge Crystallographic Data Centre
#                                CCDC 
#
#######################################################################
#
# If this CIF has been generated from an entry in the Cambridge 
# Structural Database, then it will include bibliographic, chemical, 
# crystal, experimental, refinement or atomic coordinate data resulting 
# from the CCDC's data processing and validation procedures.
#
#######################################################################

data_HOCFOW
_symmetry_cell_setting           orthorhombic
_symmetry_space_group_name_H-M   'I b a 2'
_symmetry_Int_Tables_number      45
_space_group_name_Hall           'I 2 -2c'
loop_
_symmetry_equiv_pos_site_id
_symmetry_equiv_pos_as_xyz
1 x,y,z
2 -x,-y,z
3 -x,y,1/2+z
4 x,-y,1/2+z
5 1/2+x,1/2+y,1/2+z
6 1/2-x,1/2-y,1/2+z
7 1/2-x,1/2+y,z
8 1/2+x,1/2-y,z
_cell_length_a                   20.7879(10)
_cell_length_b                   39.257(2)
_cell_length_c                   15.2752(7)
_cell_angle_alpha                90
_cell_angle_beta                 90
_cell_angle_gamma                90
_cell_volume                     12465.6
loop_
_atom_site_label
_atom_site_type_symbol
_atom_site_fract_x
_atom_site_fract_y
_atom_site_fract_z
Si1 Si 0.2520(3) 0.1246(2) 0.2037(7)
W1 W 0.08241(4) 0.12559(3) 0.21180(8)
W2 W 0.15874(5) 0.05238(3) 0.15072(8)
W3 W 0.16441(5) 0.07922(3) 0.36470(7)
W4 W 0.33993(5) 0.07454(3) 0.35371(8)
W5 W 0.33427(5) 0.05006(3) 0.13858(8)
W6 W 0.24238(5) 0.10052(3) -0.01746(8)
W7 W 0.16822(5) 0.17404(3) 0.04624(7)
W8 W 0.17455(5) 0.20023(3) 0.27510(8)
W9 W 0.26184(6) 0.15300(3) 0.42136(8)
W10 W 0.33996(5) 0.19824(3) 0.26321(8)
W11 W 0.33370(5) 0.16989(3) 0.03660(7)
W12 W 0.42122(4) 0.12008(3) 0.19781(8)
O1 O 0.2568(8) 0.1572(5) 0.2670(13)
O2 O 0.2521(9) 0.1378(5) 0.1029(15)
O3 O 0.3151(8) 0.0996(4) 0.2176(14)
O4 O 0.1879(7) 0.1027(4) 0.2247(13)
O5 O 0.1230(10) 0.0165(5) 0.1151(16)
O6 O 0.1353(11) 0.0585(6) 0.4488(15)
O7 O 0.3732(9) 0.0524(5) 0.4314(15)
O8 O 0.3650(10) 0.0127(5) 0.1014(17)
O9 O 0.3490(10) 0.0400(6) 0.2594(14)
O10 O 0.2377(10) 0.0832(6) -0.1185(17)
O11 O 0.1199(9) 0.1986(5) -0.0168(15)
O12 O 0.1818(9) 0.1364(5) -0.0346(15)
O13 O 0.1309(9) 0.2350(5) 0.2966(15)
O14 O 0.2665(10) 0.1612(6) 0.5281(16)
O15 O 0.3906(12) 0.2317(5) 0.2813(19)
O16 O 0.3805(10) 0.1944(6) -0.0316(15)
O17 O 0.5019(8) 0.1229(5) 0.1929(15)
O18 O 0.3975(10) 0.1603(4) 0.2536(12)
O19 O 0.4168(11) 0.0967(6) 0.3047(16)
O20 O 0.4142(10) 0.0760(5) 0.1398(13)
O21 O 0.3913(10) 0.1413(5) 0.0941(14)
O22 O 0.3097(9) 0.1336(5) -0.0436(15)
O23 O 0.2518(7) 0.1913(5) 0.0057(14)
O24 O 0.3344(11) 0.1954(5) 0.1391(13)
O25 O 0.2614(10) 0.2226(6) 0.2666(18)
O26 O 0.3281(10) 0.1865(5) 0.3861(15)
O27 O 0.3189(10) 0.1175(5) 0.4048(15)
O28 O 0.1980(10) 0.1878(6) 0.3925(14)
O29 O 0.1963(8) 0.1211(5) 0.4104(14)
O30 O 0.1181(10) 0.1651(5) 0.2700(14)
O31 O 0.1768(11) 0.1979(6) 0.1519(13)
O32 O 0.1133(10) 0.1454(5) 0.1071(15)
O33 O 0.1834(10) 0.0755(5) 0.0481(15)
O34 O 0.3079(9) 0.0743(5) 0.0398(14)
O35 O 0.2469(8) 0.0389(6) 0.1575(17)
O36 O 0.2523(8) 0.0646(6) 0.3623(15)
O37 O 0.0911(10) 0.1021(5) 0.3216(13)
O38 O 0.1509(10) 0.0442(6) 0.2749(15)
O39 O 0.0022(8) 0.1331(5) 0.2095(13)
O40 O 0.0837(10) 0.0811(5) 0.1562(15)
Cu1 Cu -0.04800(16) 0.08391(9) 0.1036(3)
Cu2 Cu -0.14877(17) 0.12496(9) 0.1041(3)
Cu3 Cu 0.35389(18) 0.12309(9) -0.2053(3)
Cu4 Cu 0.45170(17) 0.16570(9) -0.1953(3)
C1 C -0.1348(14) 0.0492(7) 0.223(2)
C2 C -0.0731(15) 0.0243(8) 0.319(2)
H1 H -0.0588 0.0113 0.3659
C3 C -0.0339(14) 0.0414(7) 0.257(2)
H2 H 0.0108 0.0417 0.2553
C4 C -0.1916(11) 0.0600(7) 0.1793(16)
C5 C -0.2931(14) 0.0570(8) 0.134(2)
H3 H -0.3356 0.0506 0.1256
C6 C -0.2625(13) 0.0877(8) 0.104(2)
H4 H -0.2802 0.1041 0.0673
C7 C 0.0565(14) 0.1097(8) -0.107(2)
H5 H 0.0863 0.1041 -0.1505
C8 C 0.0299(13) 0.0888(7) -0.0437(19)
H6 H 0.0404 0.0660 -0.0362
C9 C -0.0136(13) 0.1375(7) -0.026(2)
C10 C -0.0530(12) 0.1664(7) 0.0049(18)
C11 C -0.1222(15) 0.1954(8) 0.078(3)
H7 H -0.1566 0.2009 0.1138
C12 C -0.0851(17) 0.2190(10) 0.031(3)
H8 H -0.0894 0.2426 0.0290
C13 C 0.3670(12) 0.2001(6) -0.3174(19)
C14 C 0.4298(19) 0.2279(9) -0.403(2)
H9 H 0.4449 0.2417 -0.4475
C15 C 0.4639(14) 0.2124(8) -0.347(3)
H10 H 0.5086 0.2138 -0.3449
C16 C 0.3073(15) 0.1873(9) -0.274(2)
C17 C 0.2266(17) 0.1554(9) -0.220(2)
H11 H 0.2019 0.1368 -0.2031
C18 C 0.2075(15) 0.1885(10) -0.230(2)
H12 H 0.1669 0.1966 -0.2154
C19 C 0.4838(11) 0.1122(7) -0.0675(18)
C20 C 0.5570(14) 0.1400(10) 0.015(2)
H13 H 0.5891 0.1453 0.0552
C21 C 0.5290(15) 0.1608(9) -0.046(2)
H14 H 0.5391 0.1838 -0.0524
C22 C 0.4470(14) 0.0856(8) -0.096(2)
C23 C 0.3756(14) 0.0514(7) -0.167(2)
H15 H 0.3437 0.0444 -0.2058
C24 C 0.4074(14) 0.0319(8) -0.111(2)
H16 H 0.4010 0.0086 -0.1034
N1 N -0.0750(10) 0.0575(6) 0.1979(16)
N2 N -0.1341(10) 0.0304(6) 0.2978(18)
N3 N -0.2034(13) 0.0879(7) 0.139(2)
N4 N -0.2457(12) 0.0391(8) 0.179(2)
N5 N 0.0277(11) 0.1412(6) -0.0914(16)
N6 N -0.0142(10) 0.1062(6) 0.0071(16)
N7 N -0.0388(11) 0.1980(6) -0.0142(18)
N8 N -0.1014(10) 0.1644(6) 0.0637(16)
N9 N 0.3667(11) 0.2210(6) -0.3848(16)
N10 N 0.4260(13) 0.1927(6) -0.2897(17)
N11 N 0.2544(10) 0.2080(7) -0.2651(18)
N12 N 0.2969(10) 0.1565(7) -0.2414(16)
N13 N 0.5258(11) 0.1090(7) 0.0022(17)
N14 N 0.4860(11) 0.1450(6) -0.0968(16)
N15 N 0.4518(10) 0.0515(6) -0.065(2)
N16 N 0.4003(13) 0.0860(6) -0.1559(17)
O17B O 0.4981(8) 0.1229(5) -0.3071(15)
Cu4B Cu 0.54830(17) 0.16570(9) 0.3047(3)
O41 O 0.5345(9) 0.0397(5) 0.0767(14)
O42 O 0.0000 0.0000 0.0195(19)
O43 O 0.2443(10) 0.0077(8) 0.883(3)
O44 O 0.2475(9) 0.2612(5) 0.0312(18)
loop_
_geom_bond_atom_site_label_1
_geom_bond_atom_site_label_2
_geom_bond_site_symmetry_1
_geom_bond_site_symmetry_2
Si1 O1 1_555 1_555
W1 O4 1_555 1_555
W2 O4 1_555 1_555
W3 O4 1_555 1_555
W4 O3 1_555 1_555
W5 O3 1_555 1_555
W6 O2 1_555 1_555
W7 O2 1_555 1_555
W8 O1 1_555 1_555
W9 O1 1_555 1_555
W10 O1 1_555 1_555
W11 O2 1_555 1_555
W12 O3 1_555 1_555
O2 Si1 1_555 1_555
O3 Si1 1_555 1_555
O4 Si1 1_555 1_555
O5 W2 1_555 1_555
O6 W3 1_555 1_555
O7 W4 1_555 1_555
O8 W5 1_555 1_555
O9 W4 1_555 1_555
O10 W6 1_555 1_555
O11 W7 1_555 1_555
O12 W6 1_555 1_555
O13 W8 1_555 1_555
O14 W9 1_555 1_555
O15 W10 1_555 1_555
O16 W11 1_555 1_555
O17 W12 1_555 1_555
O18 W10 1_555 1_555
O19 W4 1_555 1_555
O20 W5 1_555 1_555
O21 W11 1_555 1_555
O22 W6 1_555 1_555
O23 W7 1_555 1_555
O24 W10 1_555 1_555
O25 W8 1_555 1_555
O26 W9 1_555 1_555
O27 W4 1_555 1_555
O28 W8 1_555 1_555
O29 W3 1_555 1_555
O30 W1 1_555 1_555
O31 W7 1_555 1_555
O32 W1 1_555 1_555
O33 W2 1_555 1_555
O34 W5 1_555 1_555
O35 W2 1_555 1_555
O36 W3 1_555 1_555
O37 W1 1_555 1_555
O38 W2 1_555 1_555
O39 W1 1_555 1_555
O40 W1 1_555 1_555
Cu1 O39 1_555 1_555
Cu2 N3 1_555 1_555
Cu3 O22 1_555 1_555
Cu4 N10 1_555 1_555
C1 C4 1_555 1_555
C2 H1 1_555 1_555
C3 C2 1_555 1_555
H2 C3 1_555 1_555
C4 N3 1_555 1_555
C5 H3 1_555 1_555
C6 C5 1_555 1_555
H4 C6 1_555 1_555
C7 H5 1_555 1_555
C8 C7 1_555 1_555
H6 C8 1_555 1_555
C9 C10 1_555 1_555
C10 N7 1_555 1_555
C11 H7 1_555 1_555
C12 C11 1_555 1_555
H8 C12 1_555 1_555
C13 C16 1_555 1_555
C14 H9 1_555 1_555
C15 C14 1_555 1_555
H10 C15 1_555 1_555
C16 N11 1_555 1_555
C17 H11 1_555 1_555
C18 C17 1_555 1_555
H12 C18 1_555 1_555
C19 C22 1_555 1_555
C20 H13 1_555 1_555
C21 C20 1_555 1_555
H14 C21 1_555 1_555
C22 N15 1_555 1_555
C23 H15 1_555 1_555
C24 C23 1_555 1_555
H16 C24 1_555 1_555
N1 Cu1 1_555 1_555
N2 C1 1_555 1_555
N3 C6 1_555 1_555
N4 C4 1_555 1_555
N5 C7 1_555 1_555
N6 Cu1 1_555 1_555
N7 C12 1_555 1_555
N8 Cu2 1_555 1_555
N9 C13 1_555 1_555
N10 C13 1_555 1_555
N11 C18 1_555 1_555
N12 Cu3 1_555 1_555
N13 C19 1_555 1_555
N14 Cu4 1_555 1_555
N15 C24 1_555 1_555
N16 Cu3 1_555 1_555
O17B Cu4 1_555 1_555
Cu4B O17 1_555 1_555
W2 O40 1_555 1_555
W3 O37 1_555 1_555
W3 O38 1_555 1_555
W4 O36 1_555 1_555
W5 O9 1_555 1_555
W5 O35 1_555 1_555
W6 O33 1_555 1_555
W6 O34 1_555 1_555
W7 O12 1_555 1_555
W7 O32 1_555 1_555
W8 O30 1_555 1_555
W8 O31 1_555 1_555
W9 O27 1_555 1_555
W9 O28 1_555 1_555
W9 O29 1_555 1_555
W10 O25 1_555 1_555
W10 O26 1_555 1_555
W11 O22 1_555 1_555
W11 O23 1_555 1_555
W11 O24 1_555 1_555
W12 O18 1_555 1_555
W12 O19 1_555 1_555
W12 O20 1_555 1_555
W12 O21 1_555 1_555
C1 N1 1_555 1_555
C2 N2 1_555 1_555
C3 N1 1_555 1_555
C5 N4 1_555 1_555
C8 N6 1_555 1_555
C9 N5 1_555 1_555
C9 N6 1_555 1_555
C10 N8 1_555 1_555
C11 N8 1_555 1_555
C14 N9 1_555 1_555
C15 N10 1_555 1_555
C16 N12 1_555 1_555
C17 N12 1_555 1_555
C19 N14 1_555 1_555
C20 N13 1_555 1_555
C21 N14 1_555 1_555
C22 N16 1_555 1_555
C23 N16 1_555 1_555

#END
