
#######################################################################
#
#                 Cambridge Crystallographic Data Centre
#                                CCDC 
#
#######################################################################
#
# If this CIF has been generated from an entry in the Cambridge 
# Structural Database, then it will include bibliographic, chemical, 
# crystal, experimental, refinement or atomic coordinate data resulting 
# from the CCDC's data processing and validation procedures.
#
#######################################################################

data_HOCMIV
_symmetry_cell_setting           orthorhombic
_symmetry_space_group_name_H-M   'P b c n'
_symmetry_Int_Tables_number      60
_space_group_name_Hall           '-P 2n 2ab'
loop_
_symmetry_equiv_pos_site_id
_symmetry_equiv_pos_as_xyz
1 x,y,z
2 1/2+x,1/2+y,1/2-z
3 x,-y,1/2+z
4 1/2-x,1/2+y,z
5 -x,-y,-z
6 1/2-x,1/2-y,1/2+z
7 -x,y,1/2-z
8 1/2+x,1/2-y,-z
_cell_length_a                   14.386(2)
_cell_length_b                   11.409(2)
_cell_length_c                   7.462(1)
_cell_angle_alpha                90
_cell_angle_beta                 90
_cell_angle_gamma                90
_cell_volume                     1224.74
loop_
_atom_site_label
_atom_site_type_symbol
_atom_site_fract_x
_atom_site_fract_y
_atom_site_fract_z
Cl1 Cl 0.40266(4) 0.91802(6) 0.09469(10)
Li1 Li 0.4314(3) 0.9211(4) 0.4062(7)
O1 O 0.37591(13) 0.7822(2) 0.5052(3)
C1 C 0.3178(2) 0.7724(3) 0.6602(4)
H1 H 0.2514(2) 0.7713(3) 0.6256(4)
H2 H 0.3285(2) 0.8388(3) 0.7431(4)
C2 C 0.3449(2) 0.6595(3) 0.7459(5)
H3 H 0.2923(2) 0.6247(3) 0.8127(5)
H4 H 0.3981(2) 0.6702(3) 0.8284(5)
C3 C 0.3714(2) 0.5848(3) 0.5879(6)
H5 H 0.4222(2) 0.5303(3) 0.6204(6)
H6 H 0.3175(2) 0.5385(3) 0.5459(6)
C4 C 0.4025(2) 0.6676(2) 0.4468(4)
H7 H 0.4707(2) 0.6630(2) 0.4313(4)
H8 H 0.3724(2) 0.6486(2) 0.3311(4)
Cl1B Cl 0.40266(4) 1.08198(6) 0.59469(10)
Cl1F Cl 0.59734(4) 0.91802(6) 0.40531(10)
Li1B Li 0.4314(3) 1.0789(4) -0.0938(7)
Li1F Li 0.5686(3) 0.9211(4) 0.0938(7)
loop_
_geom_bond_atom_site_label_1
_geom_bond_atom_site_label_2
_geom_bond_site_symmetry_1
_geom_bond_site_symmetry_2
Cl1 Li1 1_555 1_555
Li1 O1 1_555 1_555
O1 C1 1_555 1_555
C1 H1 1_555 1_555
H2 C1 1_555 1_555
C2 C1 1_555 1_555
H3 C2 1_555 1_555
H4 C2 1_555 1_555
C3 C2 1_555 1_555
H5 C3 1_555 1_555
H6 C3 1_555 1_555
C4 O1 1_555 1_555
H7 C4 1_555 1_555
H8 C4 1_555 1_555
Cl1B Li1 1_555 1_555
Cl1F Li1 1_555 1_555
Li1B Cl1 1_555 1_555
Li1F Cl1 1_555 1_555
C3 C4 1_555 1_555
Cl1F Li1F 1_555 1_555

#END
