
#######################################################################
#
#                 Cambridge Crystallographic Data Centre
#                                CCDC 
#
#######################################################################
#
# If this CIF has been generated from an entry in the Cambridge 
# Structural Database, then it will include bibliographic, chemical, 
# crystal, experimental, refinement or atomic coordinate data resulting 
# from the CCDC's data processing and validation procedures.
#
#######################################################################

data_HOCPUM
_symmetry_cell_setting           triclinic
_symmetry_space_group_name_H-M   'P -1'
_symmetry_Int_Tables_number      2
_space_group_name_Hall           '-P 1'
loop_
_symmetry_equiv_pos_site_id
_symmetry_equiv_pos_as_xyz
1 x,y,z
2 -x,-y,-z
_cell_length_a                   9.2012(18)
_cell_length_b                   9.6907(19)
_cell_length_c                   13.134(3)
_cell_angle_alpha                104.77(3)
_cell_angle_beta                 109.41(3)
_cell_angle_gamma                92.57(3)
_cell_volume                     1057.22
loop_
_atom_site_label
_atom_site_type_symbol
_atom_site_fract_x
_atom_site_fract_y
_atom_site_fract_z
Ag1 Ag 0.04513(4) 0.48460(4) 0.89430(3)
Br1 Br -0.21468(3) 0.61661(3) 0.91426(3)
N1 N 0.2231(5) 0.6893(5) 0.9300(3)
P1 P 0.00185(13) 0.28255(13) 0.72699(10)
C1 C 0.1802(6) 0.8085(6) 0.9041(4)
H1 H 0.0750 0.8089 0.8666
C2 C 0.2820(6) 0.9321(6) 0.9293(4)
H2 H 0.2447 1.0128 0.9095
C3 C 0.4422(5) 0.9352(5) 0.9851(4)
C4 C 0.4863(6) 0.8091(6) 1.0123(5)
H3 H 0.5904 0.8047 1.0503
C5 C 0.3771(6) 0.6934(6) 0.9834(5)
H4 H 0.4109 0.6109 1.0017
C6 C 0.1837(5) 0.2232(5) 0.7196(4)
C7 C 0.3059(6) 0.3307(6) 0.7433(4)
H5 H 0.2937 0.4272 0.7659
C8 C 0.4455(6) 0.2943(7) 0.7333(5)
H6 H 0.5250 0.3663 0.7459
C9 C 0.4671(6) 0.1486(7) 0.7042(5)
H7 H 0.5616 0.1240 0.6994
C10 C 0.3476(6) 0.0429(6) 0.6830(4)
H8 H 0.3611 -0.0536 0.6636
C11 C 0.2056(6) 0.0799(5) 0.6906(4)
H9 H 0.1252 0.0077 0.6760
C12 C -0.1145(5) 0.1184(5) 0.7150(4)
C13 C -0.1974(6) 0.0170(6) 0.6122(4)
H10 H -0.1974 0.0342 0.5457
C14 C -0.2790(7) -0.1080(6) 0.6076(5)
H11 H -0.3363 -0.1728 0.5379
C15 C -0.2769(6) -0.1391(6) 0.7061(5)
H12 H -0.3297 -0.2253 0.7026
C16 C -0.1949(7) -0.0393(6) 0.8098(5)
H13 H -0.1934 -0.0582 0.8760
C17 C -0.1143(6) 0.0901(6) 0.8142(4)
H14 H -0.0605 0.1571 0.8834
C18 C -0.0920(6) 0.3156(5) 0.5926(4)
C19 C -0.0310(7) 0.2900(6) 0.5050(4)
H15 H 0.0636 0.2544 0.5165
C20 C -0.1068(9) 0.3157(7) 0.4025(5)
H16 H -0.0615 0.3012 0.3477
C21 C -0.2518(9) 0.3636(7) 0.3824(5)
H17 H -0.3077 0.3747 0.3123
C22 C -0.3142(10) 0.3958(8) 0.4731(6)
H18 H -0.4074 0.4336 0.4630
C23 C -0.2346(7) 0.3702(7) 0.5725(5)
H19 H -0.2762 0.3895 0.6294
N1A N 0.7769(5) 1.3107(5) 1.0700(3)
C1A C 0.8198(6) 1.1915(6) 1.0959(4)
H1A H 0.9250 1.1911 1.1334
C2A C 0.7180(6) 1.0679(6) 1.0707(4)
H2A H 0.7553 0.9872 1.0905
C3A C 0.5578(5) 1.0648(5) 1.0149(4)
C4A C 0.5137(6) 1.1909(6) 0.9877(5)
H3A H 0.4096 1.1953 0.9497
C5A C 0.6229(6) 1.3066(6) 1.0166(5)
H4A H 0.5891 1.3891 0.9983
Ag1A Ag -0.04513(4) 0.51540(4) 1.10570(3)
Br1A Br 0.21468(3) 0.38339(3) 1.08574(3)
P1A P -0.00185(13) 0.71745(13) 1.27301(10)
C6A C -0.1837(5) 0.7768(5) 1.2804(4)
C7A C -0.3059(6) 0.6693(6) 1.2567(4)
H5A H -0.2937 0.5728 1.2341
C8A C -0.4455(6) 0.7057(7) 1.2667(5)
H6A H -0.5250 0.6337 1.2541
C9A C -0.4671(6) 0.8514(7) 1.2958(5)
H7A H -0.5616 0.8760 1.3006
C10A C -0.3476(6) 0.9571(6) 1.3170(4)
H8A H -0.3611 1.0536 1.3364
C11A C -0.2056(6) 0.9201(5) 1.3094(4)
H9A H -0.1252 0.9923 1.3240
C12A C 0.1145(5) 0.8816(5) 1.2850(4)
C13A C 0.1974(6) 0.9830(6) 1.3878(4)
H10A H 0.1974 0.9658 1.4543
C14A C 0.2790(7) 1.1080(6) 1.3924(5)
H11A H 0.3363 1.1728 1.4621
C15A C 0.2769(6) 1.1391(6) 1.2939(5)
H12A H 0.3297 1.2253 1.2974
C16A C 0.1949(7) 1.0393(6) 1.1902(5)
H13A H 0.1934 1.0582 1.1240
C17A C 0.1143(6) 0.9099(6) 1.1858(4)
H14A H 0.0605 0.8429 1.1166
C18A C 0.0920(6) 0.6844(5) 1.4074(4)
C19A C 0.0310(7) 0.7100(6) 1.4950(4)
H15A H -0.0636 0.7456 1.4835
C20A C 0.1068(9) 0.6843(7) 1.5975(5)
H16A H 0.0615 0.6988 1.6523
C21A C 0.2518(9) 0.6364(7) 1.6176(5)
H17A H 0.3077 0.6253 1.6877
C22A C 0.3142(10) 0.6042(8) 1.5269(6)
H18A H 0.4074 0.5664 1.5370
C23A C 0.2346(7) 0.6298(7) 1.4275(5)
H19A H 0.2762 0.6105 1.3706
Ag1A_2 Ag 0.95487(4) 1.51540(4) 1.10570(3)
N1A_2 N -0.2231(5) 0.3107(5) 1.0700(3)
loop_
_geom_bond_atom_site_label_1
_geom_bond_atom_site_label_2
_geom_bond_site_symmetry_1
_geom_bond_site_symmetry_2
Ag1 Br1 1_555 1_555
Br1 Ag1A 1_555 1_555
N1 Ag1 1_555 1_555
P1 Ag1 1_555 1_555
C1 N1 1_555 1_555
H1 C1 1_555 1_555
C2 C1 1_555 1_555
H2 C2 1_555 1_555
C3 C2 1_555 1_555
C4 C3 1_555 1_555
H3 C4 1_555 1_555
C5 N1 1_555 1_555
H4 C5 1_555 1_555
C6 P1 1_555 1_555
C7 C6 1_555 1_555
H5 C7 1_555 1_555
C8 C7 1_555 1_555
H6 C8 1_555 1_555
C9 C8 1_555 1_555
H7 C9 1_555 1_555
C10 C9 1_555 1_555
H8 C10 1_555 1_555
C11 C6 1_555 1_555
H9 C11 1_555 1_555
C12 P1 1_555 1_555
C13 C12 1_555 1_555
H10 C13 1_555 1_555
C14 C13 1_555 1_555
H11 C14 1_555 1_555
C15 C14 1_555 1_555
H12 C15 1_555 1_555
C16 C15 1_555 1_555
H13 C16 1_555 1_555
C17 C12 1_555 1_555
H14 C17 1_555 1_555
C18 P1 1_555 1_555
C19 C18 1_555 1_555
H15 C19 1_555 1_555
C20 C19 1_555 1_555
H16 C20 1_555 1_555
C21 C20 1_555 1_555
H17 C21 1_555 1_555
C22 C21 1_555 1_555
H18 C22 1_555 1_555
C23 C18 1_555 1_555
H19 C23 1_555 1_555
N1A C1A 1_555 1_555
C1A H1A 1_555 1_555
C2A C1A 1_555 1_555
H2A C2A 1_555 1_555
C3A C3 1_555 1_555
C4A C3A 1_555 1_555
H3A C4A 1_555 1_555
C5A N1A 1_555 1_555
H4A C5A 1_555 1_555
Ag1A Ag1 1_555 1_555
Br1A Ag1 1_555 1_555
P1A Ag1A 1_555 1_555
C6A P1A 1_555 1_555
C7A C6A 1_555 1_555
H5A C7A 1_555 1_555
C8A C7A 1_555 1_555
H6A C8A 1_555 1_555
C9A C8A 1_555 1_555
H7A C9A 1_555 1_555
C10A C9A 1_555 1_555
H8A C10A 1_555 1_555
C11A C6A 1_555 1_555
H9A C11A 1_555 1_555
C12A P1A 1_555 1_555
C13A C12A 1_555 1_555
H10A C13A 1_555 1_555
C14A C13A 1_555 1_555
H11A C14A 1_555 1_555
C15A C14A 1_555 1_555
H12A C15A 1_555 1_555
C16A C15A 1_555 1_555
H13A C16A 1_555 1_555
C17A C12A 1_555 1_555
H14A C17A 1_555 1_555
C18A P1A 1_555 1_555
C19A C18A 1_555 1_555
H15A C19A 1_555 1_555
C20A C19A 1_555 1_555
H16A C20A 1_555 1_555
C21A C20A 1_555 1_555
H17A C21A 1_555 1_555
C22A C21A 1_555 1_555
H18A C22A 1_555 1_555
C23A C18A 1_555 1_555
H19A C23A 1_555 1_555
Ag1A_2 N1A 1_555 1_555
N1A_2 Ag1A 1_555 1_555
C4 C5 1_555 1_555
C10 C11 1_555 1_555
C16 C17 1_555 1_555
C22 C23 1_555 1_555
C2A C3A 1_555 1_555
C4A C5A 1_555 1_555
Ag1A Br1A 1_555 1_555
C10A C11A 1_555 1_555
C16A C17A 1_555 1_555
C22A C23A 1_555 1_555

#END
