
#######################################################################
#
#                 Cambridge Crystallographic Data Centre
#                                CCDC 
#
#######################################################################
#
# If this CIF has been generated from an entry in the Cambridge 
# Structural Database, then it will include bibliographic, chemical, 
# crystal, experimental, refinement or atomic coordinate data resulting 
# from the CCDC's data processing and validation procedures.
#
#######################################################################

data_HODNEV
_symmetry_cell_setting           triclinic
_symmetry_space_group_name_H-M   'P -1'
_symmetry_Int_Tables_number      2
_space_group_name_Hall           '-P 1'
loop_
_symmetry_equiv_pos_site_id
_symmetry_equiv_pos_as_xyz
1 x,y,z
2 -x,-y,-z
_cell_length_a                   5.4158(6)
_cell_length_b                   11.4254(13)
_cell_length_c                   12.5590(14)
_cell_angle_alpha                114.573(2)
_cell_angle_beta                 90.156(2)
_cell_angle_gamma                95.928(2)
_cell_volume                     702.064
loop_
_atom_site_label
_atom_site_type_symbol
_atom_site_fract_x
_atom_site_fract_y
_atom_site_fract_z
Co1 Co 0.0000 1.0000 0.5000
S1 S 0.38590(9) 0.56275(5) -0.17846(4)
Cl1 Cl 0.83795(10) 0.78404(5) -0.14130(4)
O1 O 0.3317(2) 1.08560(13) 0.59855(12)
O2 O -0.0752(3) 0.78575(14) 0.21983(12)
O3 O 0.1983(2) 0.94535(13) 0.34435(11)
O4 O 0.5864(3) 0.48675(15) -0.18505(14)
N1 N 0.0174(3) 0.81407(15) 0.50357(14)
C1 C 0.2731(4) 0.7264(2) 0.04455(18)
O5 O 0.3495(3) 0.60377(16) -0.27001(13)
C2 C 0.4917(4) 0.9379(2) 0.15656(18)
C3 C 0.1270(4) 0.85765(19) 0.24342(17)
C4 C 0.0040(4) 0.56573(18) 0.50130(16)
C5 C 0.6257(4) 0.8043(2) -0.03319(18)
C6 C 0.6534(4) 0.9196(2) 0.06718(19)
C7 C 0.3023(4) 0.84130(19) 0.14656(17)
C8 C 0.4333(4) 0.7071(2) -0.04577(17)
N2 N 0.1381(4) 0.4855(2) -0.16099(16)
C9 C -0.1763(4) 0.6468(2) 0.55418(18)
C10 C 0.1918(4) 0.6138(2) 0.44994(19)
C11 C 0.1921(4) 0.7358(2) 0.45287(19)
C12 C -0.1632(4) 0.7676(2) 0.55298(18)
H1 H 0.503(4) 1.017(2) 0.227(2)
H2 H -0.282(5) 0.819(2) 0.587(2)
H3 H 0.320(5) 0.767(3) 0.417(2)
H4 H -0.306(5) 0.620(3) 0.593(2)
H5 H 0.140(5) 0.659(2) 0.035(2)
H6 H 0.327(5) 0.568(2) 0.412(2)
H7 H 0.775(5) 0.978(3) 0.074(2)
H8 H 0.003(6) 0.508(3) -0.178(3)
H9 H 0.156(6) 0.413(3) -0.168(3)
N1A N -0.0174(3) 0.18593(15) 0.49643(14)
C4A C -0.0040(4) 0.43427(18) 0.49870(16)
C9A C 0.1763(4) 0.3532(2) 0.44582(18)
C10A C -0.1918(4) 0.3862(2) 0.55006(19)
C11A C -0.1921(4) 0.2642(2) 0.54713(19)
C12A C 0.1632(4) 0.2324(2) 0.44702(18)
H2A H 0.282(5) 0.181(2) 0.413(2)
H3A H -0.320(5) 0.233(3) 0.583(2)
H4A H 0.306(5) 0.380(3) 0.407(2)
H6A H -0.327(5) 0.432(2) 0.588(2)
S1A S -0.38590(9) 1.43725(5) 1.17846(4)
Cl1A Cl -0.83795(10) 1.21596(5) 1.14130(4)
O2A O 0.0752(3) 1.21425(14) 0.78017(12)
O3A O -0.1983(2) 1.05465(13) 0.65565(11)
O4A O -0.5864(3) 1.51325(15) 1.18505(14)
C1A C -0.2731(4) 1.2736(2) 0.95545(18)
O5A O -0.3495(3) 1.39623(16) 1.27001(13)
C2A C -0.4917(4) 1.0621(2) 0.84344(18)
C3A C -0.1270(4) 1.14235(19) 0.75658(17)
C5A C -0.6257(4) 1.1957(2) 1.03319(18)
C6A C -0.6534(4) 1.0804(2) 0.93282(19)
C7A C -0.3023(4) 1.15870(19) 0.85344(17)
C8A C -0.4333(4) 1.2929(2) 1.04577(17)
N2A N -0.1381(4) 1.5145(2) 1.16099(16)
H1A H -0.503(4) 0.983(2) 0.773(2)
H5A H -0.140(5) 1.341(2) 0.965(2)
H7A H -0.775(5) 1.022(3) 0.926(2)
H8A H -0.003(6) 1.492(3) 1.178(3)
H9A H -0.156(6) 1.587(3) 1.168(3)
O1A O -0.3317(2) 0.91440(13) 0.40145(12)
Co1_2 Co 0.0000 0.0000 0.5000
N1A_2 N -0.0174(3) 1.18593(15) 0.49643(14)
loop_
_geom_bond_atom_site_label_1
_geom_bond_atom_site_label_2
_geom_bond_site_symmetry_1
_geom_bond_site_symmetry_2
Co1 O1 1_555 1_555
S1 O4 1_555 1_555
Cl1 C5 1_555 1_555
O2 C3 1_555 1_555
O3 Co1 1_555 1_555
N1 Co1 1_555 1_555
C1 C7 1_555 1_555
O5 S1 1_555 1_555
C2 C6 1_555 1_555
C3 O3 1_555 1_555
C4 C9 1_555 1_555
C5 C6 1_555 1_555
C6 H7 1_555 1_555
C7 C2 1_555 1_555
C8 S1 1_555 1_555
N2 S1 1_555 1_555
C9 C12 1_555 1_555
C10 C4 1_555 1_555
C11 N1 1_555 1_555
C12 N1 1_555 1_555
H1 C2 1_555 1_555
H2 C12 1_555 1_555
H3 C11 1_555 1_555
H4 C9 1_555 1_555
H5 C1 1_555 1_555
H6 C10 1_555 1_555
H8 N2 1_555 1_555
H9 N2 1_555 1_555
N1A C11A 1_555 1_555
C4A C4 1_555 1_555
C9A C4A 1_555 1_555
C10A C4A 1_555 1_555
C11A C10A 1_555 1_555
C12A N1A 1_555 1_555
H2A C12A 1_555 1_555
H3A C11A 1_555 1_555
H4A C9A 1_555 1_555
H6A C10A 1_555 1_555
S1A O4A 1_555 1_555
Cl1A C5A 1_555 1_555
O2A C3A 1_555 1_555
O3A Co1 1_555 1_555
C1A C7A 1_555 1_555
O5A S1A 1_555 1_555
C2A C6A 1_555 1_555
C3A O3A 1_555 1_555
C5A C6A 1_555 1_555
C6A H7A 1_555 1_555
C7A C2A 1_555 1_555
C8A S1A 1_555 1_555
N2A S1A 1_555 1_555
H1A C2A 1_555 1_555
H5A C1A 1_555 1_555
H8A N2A 1_555 1_555
H9A N2A 1_555 1_555
O1A Co1 1_555 1_555
Co1_2 N1A 1_555 1_555
N1A_2 Co1 1_555 1_555
C1 C8 1_555 1_555
C3 C7 1_555 1_555
C5 C8 1_555 1_555
C10 C11 1_555 1_555
C9A C12A 1_555 1_555
C1A C8A 1_555 1_555
C3A C7A 1_555 1_555
C5A C8A 1_555 1_555

#END
