
#######################################################################
#
#                 Cambridge Crystallographic Data Centre
#                                CCDC 
#
#######################################################################
#
# If this CIF has been generated from an entry in the Cambridge 
# Structural Database, then it will include bibliographic, chemical, 
# crystal, experimental, refinement or atomic coordinate data resulting 
# from the CCDC's data processing and validation procedures.
#
#######################################################################

data_HODNUL
_symmetry_cell_setting           triclinic
_symmetry_space_group_name_H-M   'P -1'
_symmetry_Int_Tables_number      2
_space_group_name_Hall           '-P 1'
loop_
_symmetry_equiv_pos_site_id
_symmetry_equiv_pos_as_xyz
1 x,y,z
2 -x,-y,-z
_cell_length_a                   10.1145(8)
_cell_length_b                   10.2684(8)
_cell_length_c                   10.8689(9)
_cell_angle_alpha                74.2190(10)
_cell_angle_beta                 68.0850(10)
_cell_angle_gamma                64.2910(10)
_cell_volume                     935.385
loop_
_atom_site_label
_atom_site_type_symbol
_atom_site_fract_x
_atom_site_fract_y
_atom_site_fract_z
Cd1 Cd 0.391294(14) 0.787335(14) 0.856312(13)
Cl1 Cl 0.39448(6) 1.45208(6) 0.64958(6)
S1 S 0.42965(5) 1.11212(5) 0.78875(5)
O1 O -0.28084(17) 1.39804(16) 1.05670(15)
O2 O -0.15354(17) 1.18732(16) 0.97434(15)
O3 O 0.53906(17) 1.15576(17) 0.80868(16)
O4 O 0.46437(18) 1.07977(17) 0.65604(15)
O5 O 0.5199(2) 0.66508(19) 1.0174(2)
N1 N 0.4005(2) 0.98347(19) 0.89319(18)
H1 H 0.3862 0.9892 0.9750
N2 N 0.6160(2) 0.6713(2) 0.69699(18)
N3 N 0.2371(2) 0.87880(19) 0.71304(18)
C1 C -0.0255(2) 1.3517(2) 0.9087(2)
C2 C 0.1182(2) 1.2392(2) 0.8861(2)
H2 H 0.127(3) 1.136(3) 0.926(3)
C3 C 0.2515(2) 1.2664(2) 0.8132(2)
C4 C 0.2376(2) 1.4099(2) 0.7564(2)
C5 C 0.0947(3) 1.5241(2) 0.7827(2)
H3 H 0.092(3) 1.618(3) 0.745(3)
C6 C -0.0365(2) 1.4948(2) 0.8607(2)
H4 H -0.131(3) 1.572(3) 0.876(3)
C7 C -0.1630(2) 1.3105(2) 0.9840(2)
C8 C 0.6876(2) 0.5259(2) 0.7105(2)
H5 H 0.635(4) 0.474(4) 0.776(4)
C9 C 0.8359(2) 0.4552(2) 0.6347(2)
H6 H 0.881(4) 0.350(4) 0.652(3)
C10 C 0.9190(2) 0.5352(2) 0.53937(19)
C11 C 0.8413(3) 0.6854(3) 0.5221(3)
H7 H 0.884(4) 0.742(4) 0.453(4)
C12 C 0.6924(3) 0.7487(3) 0.6012(3)
H8 H 0.647(4) 0.848(4) 0.598(4)
C13 C 0.2942(2) 0.8465(3) 0.5878(2)
H9 H 0.407(3) 0.792(3) 0.560(3)
C14 C 0.2059(2) 0.8914(3) 0.5016(2)
H10 H 0.257(4) 0.865(4) 0.415(4)
C15 C 0.0490(2) 0.9746(2) 0.5450(2)
C16 C -0.0106(2) 1.0070(2) 0.6763(2)
H11 H -0.116(4) 1.063(4) 0.719(4)
C17 C 0.0861(2) 0.9582(2) 0.7557(2)
H12 H 0.043(4) 0.984(4) 0.835(4)
N2A N 1.3840(2) 0.3287(2) 0.30301(18)
C8A C 1.3124(2) 0.4741(2) 0.2895(2)
H5A H 1.365(4) 0.526(4) 0.224(4)
C9A C 1.1641(2) 0.5448(2) 0.3653(2)
H6A H 1.119(4) 0.650(4) 0.348(3)
C10A C 1.0810(2) 0.4648(2) 0.46063(19)
C11A C 1.1587(3) 0.3146(3) 0.4779(3)
H7A H 1.116(4) 0.258(4) 0.547(4)
C12A C 1.3076(3) 0.2513(3) 0.3988(3)
H8A H 1.353(4) 0.152(4) 0.402(4)
N3A N -0.2371(2) 1.12120(19) 0.28696(18)
C13A C -0.2942(2) 1.1535(3) 0.4122(2)
H9A H -0.407(3) 1.208(3) 0.440(3)
C14A C -0.2059(2) 1.1086(3) 0.4984(2)
H10A H -0.257(4) 1.135(4) 0.585(4)
C15A C -0.0490(2) 1.0254(2) 0.4550(2)
C16A C 0.0106(2) 0.9930(2) 0.3237(2)
H11A H 0.116(4) 0.937(4) 0.281(4)
C17A C -0.0861(2) 1.0418(2) 0.2443(2)
H12A H -0.043(4) 1.016(4) 0.165(4)
Cd1A Cd -0.391294(14) 1.212665(14) 0.143688(13)
Cl1A Cl -0.39448(6) 0.54792(6) 0.35042(6)
S1A S -0.42965(5) 0.88788(5) 0.21125(5)
O1A O 0.28084(17) 0.60196(16) -0.05670(15)
O2A O 0.15354(17) 0.81268(16) 0.02566(15)
O3A O -0.53906(17) 0.84424(17) 0.19132(16)
O4A O -0.46437(18) 0.92023(17) 0.34396(15)
O5A O -0.5199(2) 1.33492(19) -0.0174(2)
N1A N -0.4005(2) 1.01653(19) 0.10681(18)
H1A H -0.3862 1.0108 0.0250
C1A C 0.0255(2) 0.6483(2) 0.0913(2)
C2A C -0.1182(2) 0.7608(2) 0.1139(2)
H2A H -0.127(3) 0.864(3) 0.074(3)
C3A C -0.2515(2) 0.7336(2) 0.1868(2)
C4A C -0.2376(2) 0.5901(2) 0.2436(2)
C5A C -0.0947(3) 0.4759(2) 0.2173(2)
H3A H -0.092(3) 0.382(3) 0.255(3)
C6A C 0.0365(2) 0.5052(2) 0.1393(2)
H4A H 0.131(3) 0.428(3) 0.124(3)
C7A C 0.1630(2) 0.6895(2) 0.0160(2)
Cd1_2 Cd 0.391294(14) 0.787335(14) -0.143688(13)
Cd1A_2 Cd -0.391294(14) 1.212665(14) 1.143688(13)
Cd1A_3 Cd 1.608706(14) 0.212665(14) 0.143688(13)
O1_2 O -0.28084(17) 1.39804(16) 0.05670(15)
O1A_2 O 0.28084(17) 0.60196(16) 0.94330(15)
O2_2 O -0.15354(17) 1.18732(16) -0.02566(15)
O2A_2 O 0.15354(17) 0.81268(16) 1.02566(15)
N2A_2 N -0.6160(2) 1.3287(2) 0.30301(18)
loop_
_geom_bond_atom_site_label_1
_geom_bond_atom_site_label_2
_geom_bond_site_symmetry_1
_geom_bond_site_symmetry_2
Cd1 O5 1_555 1_555
Cl1 C4 1_555 1_555
S1 O3 1_555 1_555
O1 C7 1_555 1_555
O2 C7 1_555 1_555
O4 S1 1_555 1_555
N1 Cd1 1_555 1_555
H1 N1 1_555 1_555
N2 Cd1 1_555 1_555
N3 Cd1 1_555 1_555
C1 C2 1_555 1_555
C2 H2 1_555 1_555
C3 S1 1_555 1_555
C4 C3 1_555 1_555
C5 C4 1_555 1_555
H3 C5 1_555 1_555
C6 C1 1_555 1_555
H4 C6 1_555 1_555
C7 C1 1_555 1_555
C8 N2 1_555 1_555
H5 C8 1_555 1_555
C9 C8 1_555 1_555
H6 C9 1_555 1_555
C10 C9 1_555 1_555
C11 C10 1_555 1_555
H7 C11 1_555 1_555
C12 N2 1_555 1_555
H8 C12 1_555 1_555
C13 N3 1_555 1_555
H9 C13 1_555 1_555
C14 C13 1_555 1_555
H10 C14 1_555 1_555
C15 C14 1_555 1_555
C16 C15 1_555 1_555
H11 C16 1_555 1_555
C17 N3 1_555 1_555
H12 C17 1_555 1_555
N2A C8A 1_555 1_555
C8A H5A 1_555 1_555
C9A C8A 1_555 1_555
H6A C9A 1_555 1_555
C10A C10 1_555 1_555
C11A C10A 1_555 1_555
H7A C11A 1_555 1_555
C12A N2A 1_555 1_555
H8A C12A 1_555 1_555
N3A C13A 1_555 1_555
C13A H9A 1_555 1_555
C14A C13A 1_555 1_555
H10A C14A 1_555 1_555
C15A C15 1_555 1_555
C16A C15A 1_555 1_555
H11A C16A 1_555 1_555
C17A N3A 1_555 1_555
H12A C17A 1_555 1_555
Cd1A N3A 1_555 1_555
Cl1A C4A 1_555 1_555
S1A O3A 1_555 1_555
O1A C7A 1_555 1_555
O2A C7A 1_555 1_555
O4A S1A 1_555 1_555
O5A Cd1A 1_555 1_555
N1A Cd1A 1_555 1_555
H1A N1A 1_555 1_555
C1A C2A 1_555 1_555
C2A H2A 1_555 1_555
C3A S1A 1_555 1_555
C4A C3A 1_555 1_555
C5A C4A 1_555 1_555
H3A C5A 1_555 1_555
C6A C1A 1_555 1_555
H4A C6A 1_555 1_555
C7A C1A 1_555 1_555
Cd1_2 O1A 1_555 1_555
Cd1A_2 O1 1_555 1_555
Cd1A_3 N2A 1_555 1_555
O1_2 Cd1A 1_555 1_555
O1A_2 Cd1 1_555 1_555
O2_2 Cd1A 1_555 1_555
O2A_2 Cd1 1_555 1_555
N2A_2 Cd1A 1_555 1_555
S1 N1 1_555 1_555
O2 Cd1A_2 1_555 1_555
C2 C3 1_555 1_555
C5 C6 1_555 1_555
C11 C12 1_555 1_555
C16 C17 1_555 1_555
C9A C10A 1_555 1_555
C11A C12A 1_555 1_555
C14A C15A 1_555 1_555
C16A C17A 1_555 1_555
S1A N1A 1_555 1_555
O2A Cd1_2 1_555 1_555
C2A C3A 1_555 1_555
C5A C6A 1_555 1_555

#END
