
#######################################################################
#
#                 Cambridge Crystallographic Data Centre
#                                CCDC 
#
#######################################################################
#
# If this CIF has been generated from an entry in the Cambridge 
# Structural Database, then it will include bibliographic, chemical, 
# crystal, experimental, refinement or atomic coordinate data resulting 
# from the CCDC's data processing and validation procedures.
#
#######################################################################

data_HODNIZ
_symmetry_cell_setting           triclinic
_symmetry_space_group_name_H-M   'P -1'
_symmetry_Int_Tables_number      2
_space_group_name_Hall           '-P 1'
loop_
_symmetry_equiv_pos_site_id
_symmetry_equiv_pos_as_xyz
1 x,y,z
2 -x,-y,-z
_cell_length_a                   5.4158(6)
_cell_length_b                   11.4254(13)
_cell_length_c                   12.5590(14)
_cell_angle_alpha                114.573(2)
_cell_angle_beta                 90.156(2)
_cell_angle_gamma                95.928(2)
_cell_volume                     702.064
loop_
_atom_site_label
_atom_site_type_symbol
_atom_site_fract_x
_atom_site_fract_y
_atom_site_fract_z
Mn1 Mn 0.0000 1.0000 0.5000
Cl1 Cl 0.83798(13) 0.78406(7) -0.14130(6)
S1 S 0.38599(12) 0.56272(7) -0.17848(6)
O1 O 0.1983(3) 0.94536(17) 0.34452(15)
O2 O -0.0752(3) 0.78592(18) 0.21987(17)
O3 O 0.3495(4) 0.6038(2) -0.26995(17)
O4 O 0.5863(4) 0.4870(2) -0.18505(19)
O5 O 0.3318(3) 1.08542(18) 0.59838(16)
N1 N 0.1377(5) 0.4856(3) -0.1612(2)
H1 H -0.014(9) 0.503(4) -0.188(4)
H2 H 0.149(9) 0.410(5) -0.167(4)
N2 N 0.0170(4) 0.8139(2) 0.50347(19)
C1 C 0.3023(5) 0.8411(3) 0.1466(2)
C2 C 0.2729(5) 0.7265(3) 0.0446(2)
H3 H 0.134(6) 0.655(3) 0.038(3)
C3 C 0.4334(5) 0.7069(3) -0.0459(2)
C4 C 0.6258(5) 0.8043(3) -0.0333(2)
C5 C 0.6535(5) 0.9198(3) 0.0673(3)
H4 H 0.780(6) 0.982(3) 0.076(3)
C6 C 0.4920(5) 0.9378(3) 0.1564(2)
H5 H 0.510(6) 1.019(3) 0.228(3)
C7 C 0.1267(5) 0.8576(3) 0.2432(2)
C8 C 0.1923(5) 0.7358(3) 0.4530(3)
H6 H 0.320(6) 0.766(3) 0.416(3)
C9 C 0.1919(5) 0.6138(3) 0.4499(3)
H7 H 0.331(7) 0.565(3) 0.408(3)
C10 C 0.0039(5) 0.5657(2) 0.5012(2)
C11 C -0.1767(5) 0.6467(3) 0.5540(2)
H8 H -0.312(7) 0.613(3) 0.587(3)
C12 C -0.1631(5) 0.7678(3) 0.5530(2)
H9 H -0.290(6) 0.822(3) 0.589(3)
N2A N -0.0170(4) 0.1861(2) 0.49653(19)
C8A C -0.1923(5) 0.2642(3) 0.5470(3)
H6A H -0.320(6) 0.234(3) 0.584(3)
C9A C -0.1919(5) 0.3862(3) 0.5501(3)
H7A H -0.331(7) 0.435(3) 0.592(3)
C10A C -0.0039(5) 0.4343(2) 0.4988(2)
C11A C 0.1767(5) 0.3533(3) 0.4460(2)
H8A H 0.312(7) 0.387(3) 0.413(3)
C12A C 0.1631(5) 0.2322(3) 0.4470(2)
H9A H 0.290(6) 0.178(3) 0.411(3)
Cl1A Cl -0.83798(13) 1.21594(7) 1.14130(6)
S1A S -0.38599(12) 1.43728(7) 1.17848(6)
O1A O -0.1983(3) 1.05464(17) 0.65548(15)
O2A O 0.0752(3) 1.21408(18) 0.78013(17)
O3A O -0.3495(4) 1.3962(2) 1.26995(17)
O4A O -0.5863(4) 1.5130(2) 1.18505(19)
N1A N -0.1377(5) 1.5144(3) 1.1612(2)
H1A H 0.014(9) 1.497(4) 1.188(4)
H2A H -0.149(9) 1.590(5) 1.167(4)
C1A C -0.3023(5) 1.1589(3) 0.8534(2)
C2A C -0.2729(5) 1.2735(3) 0.9554(2)
H3A H -0.134(6) 1.345(3) 0.962(3)
C3A C -0.4334(5) 1.2931(3) 1.0459(2)
C4A C -0.6258(5) 1.1957(3) 1.0333(2)
C5A C -0.6535(5) 1.0802(3) 0.9327(3)
H4A H -0.780(6) 1.018(3) 0.924(3)
C6A C -0.4920(5) 1.0622(3) 0.8436(2)
H5A H -0.510(6) 0.981(3) 0.772(3)
C7A C -0.1267(5) 1.1424(3) 0.7568(2)
O5A O -0.3318(3) 0.91458(18) 0.40162(16)
Mn1_2 Mn 0.0000 0.0000 0.5000
N2A_2 N -0.0170(4) 1.1861(2) 0.49653(19)
loop_
_geom_bond_atom_site_label_1
_geom_bond_atom_site_label_2
_geom_bond_site_symmetry_1
_geom_bond_site_symmetry_2
Mn1 O1 1_555 1_555
Cl1 C4 1_555 1_555
S1 O3 1_555 1_555
O1 C7 1_555 1_555
O2 C7 1_555 1_555
O4 S1 1_555 1_555
O5 Mn1 1_555 1_555
N1 S1 1_555 1_555
H1 N1 1_555 1_555
H2 N1 1_555 1_555
N2 Mn1 1_555 1_555
C1 C2 1_555 1_555
C2 H3 1_555 1_555
C3 S1 1_555 1_555
C4 C3 1_555 1_555
C5 C4 1_555 1_555
H4 C5 1_555 1_555
C6 C1 1_555 1_555
H5 C6 1_555 1_555
C7 C1 1_555 1_555
C8 N2 1_555 1_555
H6 C8 1_555 1_555
C9 C8 1_555 1_555
H7 C9 1_555 1_555
C10 C9 1_555 1_555
C11 C10 1_555 1_555
H8 C11 1_555 1_555
C12 N2 1_555 1_555
H9 C12 1_555 1_555
N2A C8A 1_555 1_555
C8A H6A 1_555 1_555
C9A C8A 1_555 1_555
H7A C9A 1_555 1_555
C10A C10 1_555 1_555
C11A C10A 1_555 1_555
H8A C11A 1_555 1_555
C12A N2A 1_555 1_555
H9A C12A 1_555 1_555
Cl1A C4A 1_555 1_555
S1A O3A 1_555 1_555
O1A Mn1 1_555 1_555
O2A C7A 1_555 1_555
O4A S1A 1_555 1_555
N1A S1A 1_555 1_555
H1A N1A 1_555 1_555
H2A N1A 1_555 1_555
C1A C2A 1_555 1_555
C2A H3A 1_555 1_555
C3A S1A 1_555 1_555
C4A C3A 1_555 1_555
C5A C4A 1_555 1_555
H4A C5A 1_555 1_555
C6A C1A 1_555 1_555
H5A C6A 1_555 1_555
C7A O1A 1_555 1_555
O5A Mn1 1_555 1_555
Mn1_2 N2A 1_555 1_555
N2A_2 Mn1 1_555 1_555
C2 C3 1_555 1_555
C5 C6 1_555 1_555
C11 C12 1_555 1_555
C9A C10A 1_555 1_555
C11A C12A 1_555 1_555
C1A C7A 1_555 1_555
C2A C3A 1_555 1_555
C5A C6A 1_555 1_555

#END
