
#######################################################################
#
#                 Cambridge Crystallographic Data Centre
#                                CCDC 
#
#######################################################################
#
# If this CIF has been generated from an entry in the Cambridge 
# Structural Database, then it will include bibliographic, chemical, 
# crystal, experimental, refinement or atomic coordinate data resulting 
# from the CCDC's data processing and validation procedures.
#
#######################################################################

data_HODNAR
_symmetry_cell_setting           monoclinic
_symmetry_space_group_name_H-M   'C 2/c'
_symmetry_Int_Tables_number      15
_space_group_name_Hall           '-C 2yn'
loop_
_symmetry_equiv_pos_site_id
_symmetry_equiv_pos_as_xyz
1 x,y,z
2 -x,y,1/2-z
3 1/2+x,1/2+y,z
4 1/2-x,1/2+y,1/2-z
5 -x,-y,-z
6 x,-y,1/2+z
7 1/2-x,1/2-y,-z
8 1/2+x,1/2-y,1/2+z
_cell_length_a                   12.3032(16)
_cell_length_b                   11.0287(15)
_cell_length_c                   19.618(3)
_cell_angle_alpha                90
_cell_angle_beta                 90.411(2)
_cell_angle_gamma                90
_cell_volume                     2661.86
loop_
_atom_site_label
_atom_site_type_symbol
_atom_site_fract_x
_atom_site_fract_y
_atom_site_fract_z
Cu1 Cu 0.5000 0.601394(19) 0.7500
Cl1 Cl 0.95738(3) 0.59316(3) 0.421773(18)
S1 S 0.76925(3) 0.38793(3) 0.417459(17)
O1 O 0.64107(8) 0.60915(8) 0.69927(5)
O2 O 0.51707(8) 0.56242(10) 0.62049(5)
O3 O 0.76368(9) 0.44318(11) 0.35136(5)
O4 O 0.85927(9) 0.30901(10) 0.43429(6)
N1 N 0.65985(10) 0.31107(12) 0.42752(7)
H1 H 0.6556(17) 0.2680(19) 0.4648(11)
H2 H 0.6015(19) 0.347(2) 0.4141(11)
N2 N 0.5000 0.78043(14) 0.7500
N3 N 0.5000 1.42181(14) 0.7500
C1 C 0.69939(12) 0.58985(12) 0.58436(7)
C2 C 0.69215(11) 0.50761(13) 0.53046(7)
H3 H 0.6347(14) 0.4520(16) 0.5284(9)
C3 C 0.77212(11) 0.50494(12) 0.48059(7)
C4 C 0.85740(11) 0.58909(13) 0.48377(7)
C5 C 0.86446(11) 0.67226(13) 0.53693(7)
H4 H 0.9215(16) 0.7291(18) 0.5377(10)
C6 C 0.78575(11) 0.67125(13) 0.58769(7)
H5 H 0.7927(14) 0.7249(16) 0.6243(9)
C7 C 0.61212(11) 0.58727(12) 0.63763(7)
C8 C 0.41209(11) 0.84267(12) 0.72859(7)
H6 H 0.3524(15) 0.7958(17) 0.7116(9)
C9 C 0.40932(11) 0.96841(12) 0.72754(7)
H7 H 0.3461(16) 1.0065(18) 0.7100(10)
C10 C 0.5000 1.03359(17) 0.7500
C11 C 0.5000 1.16857(17) 0.7500
C12 C 0.59746(11) 1.23370(12) 0.75186(7)
H8 H 0.6674(15) 1.1954(16) 0.7530(9)
C13 C 0.59408(11) 1.35932(13) 0.75290(7)
H9 H 0.6565(15) 1.4065(15) 0.7543(9)
C8A C 0.58791(11) 0.84267(12) 0.77141(7)
H6A H 0.6476(15) 0.7958(17) 0.7884(9)
C9A C 0.59068(11) 0.96841(12) 0.77246(7)
H7A H 0.6539(16) 1.0065(18) 0.7900(10)
C12A C 0.40254(11) 1.23370(12) 0.74814(7)
H8A H 0.3326(15) 1.1954(16) 0.7470(9)
C13A C 0.40592(11) 1.35932(13) 0.74710(7)
H9A H 0.3435(15) 1.4065(15) 0.7457(9)
Cl1A Cl 0.04262(3) 0.59316(3) 1.078227(18)
S1A S 0.23075(3) 0.38793(3) 1.082541(17)
O1A O 0.35893(8) 0.60915(8) 0.80073(5)
O2A O 0.48293(8) 0.56242(10) 0.87951(5)
O3A O 0.23632(9) 0.44318(11) 1.14864(5)
O4A O 0.14073(9) 0.30901(10) 1.06571(6)
N1A N 0.34015(10) 0.31107(12) 1.07248(7)
H1A H 0.3444(17) 0.2680(19) 1.0352(11)
H2A H 0.3985(19) 0.347(2) 1.0859(11)
C1A C 0.30061(12) 0.58985(12) 0.91564(7)
C2A C 0.30785(11) 0.50761(13) 0.96954(7)
H3A H 0.3653(14) 0.4520(16) 0.9716(9)
C3A C 0.22788(11) 0.50494(12) 1.01941(7)
C4A C 0.14260(11) 0.58909(13) 1.01623(7)
C5A C 0.13554(11) 0.67226(13) 0.96307(7)
H4A H 0.0785(16) 0.7291(18) 0.9623(10)
C6A C 0.21425(11) 0.67125(13) 0.91231(7)
H5A H 0.2073(14) 0.7249(16) 0.8757(9)
C7A C 0.38788(11) 0.58727(12) 0.86237(7)
Cu1_2 Cu 0.5000 1.601394(19) 0.7500
N3_2 N 0.5000 0.42181(14) 0.7500
loop_
_geom_bond_atom_site_label_1
_geom_bond_atom_site_label_2
_geom_bond_site_symmetry_1
_geom_bond_site_symmetry_2
Cu1 O1 1_555 1_555
Cl1 C4 1_555 1_555
S1 O3 1_555 1_555
O1 C7 1_555 1_555
O2 Cu1 1_555 1_555
O4 S1 1_555 1_555
N1 S1 1_555 1_555
H1 N1 1_555 1_555
H2 N1 1_555 1_555
N2 Cu1 1_555 1_555
N3 C13 1_555 1_555
C1 C2 1_555 1_555
C2 H3 1_555 1_555
C3 S1 1_555 1_555
C4 C3 1_555 1_555
C5 C4 1_555 1_555
H4 C5 1_555 1_555
C6 C1 1_555 1_555
H5 C6 1_555 1_555
C7 O2 1_555 1_555
C8 N2 1_555 1_555
H6 C8 1_555 1_555
C9 C8 1_555 1_555
H7 C9 1_555 1_555
C10 C9 1_555 1_555
C11 C10 1_555 1_555
C12 C11 1_555 1_555
H8 C12 1_555 1_555
C13 C12 1_555 1_555
H9 C13 1_555 1_555
C8A N2 1_555 1_555
H6A C8A 1_555 1_555
C9A C10 1_555 1_555
H7A C9A 1_555 1_555
C12A C11 1_555 1_555
H8A C12A 1_555 1_555
C13A N3 1_555 1_555
H9A C13A 1_555 1_555
Cl1A C4A 1_555 1_555
S1A O3A 1_555 1_555
O1A Cu1 1_555 1_555
O2A Cu1 1_555 1_555
O4A S1A 1_555 1_555
N1A S1A 1_555 1_555
H1A N1A 1_555 1_555
H2A N1A 1_555 1_555
C1A C2A 1_555 1_555
C2A H3A 1_555 1_555
C3A S1A 1_555 1_555
C4A C3A 1_555 1_555
C5A C4A 1_555 1_555
H4A C5A 1_555 1_555
C6A C1A 1_555 1_555
H5A C6A 1_555 1_555
C7A O1A 1_555 1_555
Cu1_2 N3 1_555 1_555
N3_2 Cu1 1_555 1_555
C1 C7 1_555 1_555
C2 C3 1_555 1_555
C5 C6 1_555 1_555
C8A C9A 1_555 1_555
C12A C13A 1_555 1_555
O2A C7A 1_555 1_555
C1A C7A 1_555 1_555
C2A C3A 1_555 1_555
C5A C6A 1_555 1_555

#END
