
#######################################################################
#
#                 Cambridge Crystallographic Data Centre
#                                CCDC 
#
#######################################################################
#
# If this CIF has been generated from an entry in the Cambridge 
# Structural Database, then it will include bibliographic, chemical, 
# crystal, experimental, refinement or atomic coordinate data resulting 
# from the CCDC's data processing and validation procedures.
#
#######################################################################

data_HODNOF
_symmetry_cell_setting           triclinic
_symmetry_space_group_name_H-M   'P -1'
_symmetry_Int_Tables_number      2
_space_group_name_Hall           '-P 1'
loop_
_symmetry_equiv_pos_site_id
_symmetry_equiv_pos_as_xyz
1 x,y,z
2 -x,-y,-z
_cell_length_a                   7.4679(7)
_cell_length_b                   10.8411(10)
_cell_length_c                   11.3461(11)
_cell_angle_alpha                77.045(2)
_cell_angle_beta                 70.9170(10)
_cell_angle_gamma                76.493(2)
_cell_volume                     833.099
loop_
_atom_site_label
_atom_site_type_symbol
_atom_site_fract_x
_atom_site_fract_y
_atom_site_fract_z
Ag1 Ag 0.40702(3) 0.442959(18) 0.421869(15)
Cl1 Cl 1.55309(8) 0.02138(5) 0.23592(5)
S1 S 1.17990(8) 0.02394(5) 0.13719(5)
O1 O 0.7308(2) 0.27720(16) 0.62928(15)
O2 O 0.6122(2) 0.23122(16) 0.48899(16)
O3 O 0.9881(2) 0.01334(18) 0.14583(16)
O4 O 1.2779(2) 0.11181(16) 0.03375(15)
N1 N 1.3121(3) -0.1160(2) 0.1317(2)
H1 H 1.286(5) -0.164(3) 0.193(3)
H2 H 1.436(6) -0.115(3) 0.099(3)
N2 N 0.5658(3) 0.44600(19) 0.22388(18)
N3 N 1.1955(3) 0.42845(18) -0.39499(17)
C1 C 0.9462(3) 0.1668(2) 0.4639(2)
C2 C 0.9758(3) 0.1205(2) 0.3528(2)
H3 H 0.875(4) 0.118(3) 0.325(3)
C3 C 1.1604(3) 0.0749(2) 0.2809(2)
C4 C 1.3181(3) 0.0739(2) 0.3219(2)
C5 C 1.2909(3) 0.1162(2) 0.4346(2)
H4 H 1.392(5) 0.113(3) 0.461(3)
C6 C 1.1053(3) 0.1625(2) 0.5048(2)
H5 H 1.082(4) 0.191(3) 0.586(3)
C7 C 0.7458(3) 0.2284(2) 0.5343(2)
C8 C 0.5892(3) 0.5533(2) 0.1389(2)
H6 H 0.538(5) 0.625(3) 0.165(3)
C9 C 0.7051(3) 0.5516(2) 0.0153(2)
H7 H 0.721(4) 0.624(3) -0.039(3)
C10 C 0.7997(3) 0.4340(2) -0.0243(2)
C11 C 0.7683(3) 0.3223(2) 0.0632(2)
H8 H 0.8235 0.2420 0.0395
C12 C 0.6544(3) 0.3323(2) 0.1853(2)
H9 H 0.636(5) 0.260(3) 0.247(3)
C13 C 1.0457(3) 0.5247(2) -0.3707(2)
H10 H 1.040(4) 0.588(3) -0.440(3)
C14 C 0.9139(3) 0.5301(2) -0.2530(2)
H11 H 0.816(5) 0.600(3) -0.243(3)
C15 C 0.9306(3) 0.4291(2) -0.1541(2)
C16 C 1.0807(3) 0.3247(2) -0.1813(2)
H12 H 1.100(4) 0.252(3) -0.116(3)
C17 C 1.2109(3) 0.3295(2) -0.3011(2)
H13 H 1.315(4) 0.262(3) -0.317(3)
Ag1_2 Ag 1.40702(3) 0.442959(18) -0.578131(15)
Ag1A Ag 0.59298(3) 0.557041(18) 0.578131(15)
N3_2 N 0.1955(3) 0.42845(18) 0.60501(17)
loop_
_geom_bond_atom_site_label_1
_geom_bond_atom_site_label_2
_geom_bond_site_symmetry_1
_geom_bond_site_symmetry_2
Ag1 O2 1_555 1_555
Cl1 C4 1_555 1_555
S1 O3 1_555 1_555
O1 C7 1_555 1_555
O2 C7 1_555 1_555
O4 S1 1_555 1_555
N1 S1 1_555 1_555
H1 N1 1_555 1_555
H2 N1 1_555 1_555
N2 Ag1 1_555 1_555
N3 C13 1_555 1_555
C1 C2 1_555 1_555
C2 H3 1_555 1_555
C3 S1 1_555 1_555
C4 C3 1_555 1_555
C5 C4 1_555 1_555
H4 C5 1_555 1_555
C6 C1 1_555 1_555
H5 C6 1_555 1_555
C7 C1 1_555 1_555
C8 N2 1_555 1_555
H6 C8 1_555 1_555
C9 C8 1_555 1_555
H7 C9 1_555 1_555
C10 C9 1_555 1_555
C11 C10 1_555 1_555
H8 C11 1_555 1_555
C12 N2 1_555 1_555
H9 C12 1_555 1_555
C13 H10 1_555 1_555
C14 C13 1_555 1_555
H11 C14 1_555 1_555
C15 C10 1_555 1_555
C16 C15 1_555 1_555
H12 C16 1_555 1_555
C17 N3 1_555 1_555
H13 C17 1_555 1_555
Ag1_2 N3 1_555 1_555
Ag1A Ag1 1_555 1_555
N3_2 Ag1 1_555 1_555
C2 C3 1_555 1_555
C5 C6 1_555 1_555
C11 C12 1_555 1_555
C14 C15 1_555 1_555
C16 C17 1_555 1_555

#END
