
#######################################################################
#
#                 Cambridge Crystallographic Data Centre
#                                CCDC 
#
#######################################################################
#
# If this CIF has been generated from an entry in the Cambridge 
# Structural Database, then it will include bibliographic, chemical, 
# crystal, experimental, refinement or atomic coordinate data resulting 
# from the CCDC's data processing and validation procedures.
#
#######################################################################

data_HODQEY
_symmetry_cell_setting           triclinic
_symmetry_space_group_name_H-M   'P -1'
_symmetry_Int_Tables_number      2
_space_group_name_Hall           '-P 1'
loop_
_symmetry_equiv_pos_site_id
_symmetry_equiv_pos_as_xyz
1 x,y,z
2 -x,-y,-z
_cell_length_a                   7.8559(4)
_cell_length_b                   11.5298(6)
_cell_length_c                   16.1232(8)
_cell_angle_alpha                82.5120(10)
_cell_angle_beta                 81.0530(10)
_cell_angle_gamma                73.3020(10)
_cell_volume                     1376.12
loop_
_atom_site_label
_atom_site_type_symbol
_atom_site_fract_x
_atom_site_fract_y
_atom_site_fract_z
Cd1 Cd 0.836235(17) 0.058253(11) 0.349349(7)
N1 N 0.8037(2) -0.11574(13) 0.43273(9)
O1 O 0.7649(3) 0.26022(15) 0.36700(11)
C1 C 0.8868(3) -0.22686(18) 0.40838(12)
H1 H 0.9501 -0.2334 0.3546
O2 O 1.13347(18) -0.01292(13) 0.36722(9)
H2 H 1.1589 -0.0608 0.4110
H3 H 1.2048 -0.0483 0.3271
N2 N 0.6264(2) -0.83951(15) 0.74630(12)
O3 O 0.7319(2) 0.17257(13) 0.49449(12)
C2 C 0.8829(3) -0.33205(18) 0.45942(13)
H4 H 0.9397 -0.4077 0.4398
O4 O 0.90507(19) -0.07494(13) 0.22887(8)
N3 N 0.6589(2) -0.26304(13) 0.71619(9)
H5 H 0.7436 -0.3283 0.7076
C3 C 0.7931(3) -0.32333(17) 0.54021(12)
H6 H 0.7918 -0.3929 0.5764
N4 N 0.5514(2) -0.44646(13) 0.83756(10)
H7 H 0.4425 -0.4286 0.8268
C4 C 0.7053(2) -0.20915(15) 0.56619(11)
O5 O 0.9013(2) 0.11749(13) 0.20869(8)
O6 O 0.47146(17) -0.09428(12) 0.65883(8)
C5 C 0.7119(2) -0.10798(15) 0.50991(10)
H8 H 0.6496 -0.0314 0.5267
C6 C 0.6019(2) -0.18579(15) 0.65134(11)
O7 O 0.8123(2) -0.59204(15) 0.84108(14)
C7 C 0.5778(2) -0.23731(15) 0.80250(10)
H9 H 0.4479 -0.2052 0.8027
C8 C 0.6491(3) -0.14106(17) 0.83164(12)
H10 H 0.7776 -0.1720 0.8321
H11 H 0.6267 -0.0690 0.7921
C9 C 0.5609(3) -0.10717(18) 0.91909(13)
H12 H 0.4338 -0.0695 0.9176
H13 H 0.6123 -0.0487 0.9367
C10 C 0.5872(4) -0.2191(2) 0.98214(13)
H14 H 0.5199 -0.1968 1.0362
H15 H 0.7129 -0.2495 0.9898
C11 C 0.5256(3) -0.31931(19) 0.95244(12)
H16 H 0.3967 -0.2929 0.9526
H17 H 0.5538 -0.3915 0.9916
C12 C 0.6148(2) -0.35136(15) 0.86371(11)
H18 H 0.7444 -0.3819 0.8649
C13 C 0.6534(3) -0.55924(17) 0.82951(13)
C14 C 0.5691(3) -0.64834(15) 0.80383(11)
C15 C 0.3860(3) -0.63394(17) 0.80955(14)
H19 H 0.3047 -0.5652 0.8308
C16 C 0.3266(3) -0.72330(19) 0.78327(15)
H20 H 0.2047 -0.7161 0.7871
C17 C 0.4504(3) -0.82278(18) 0.75147(14)
H21 H 0.4093 -0.8815 0.7326
C18 C 0.6834(3) -0.75381(17) 0.77315(13)
H22 H 0.8061 -0.7656 0.7711
C19 C 0.9217(2) 0.01588(17) 0.18081(10)
C20 C 0.9645(2) 0.00713(16) 0.08696(10)
C21 C 0.9816(3) 0.10740(18) 0.03258(12)
H23 H 0.9695 0.1806 0.0543
C22 C 1.0167(3) 0.10035(18) -0.05401(12)
H24 H 1.0274 0.1687 -0.0898
C23 C 0.7095(3) 0.26432(17) 0.44441(14)
C24 C 0.6044(3) 0.38717(16) 0.47349(12)
C25 C 0.5489(3) 0.48613(18) 0.41546(12)
H25 H 0.5808 0.4773 0.3581
C26 C 0.4468(3) 0.59773(17) 0.44157(12)
H26 H 0.4124 0.6631 0.4017
O1A O 0.2351(3) 0.73978(15) 0.63300(11)
O3A O 0.2681(2) 0.82743(13) 0.50551(12)
C23A C 0.2905(3) 0.73568(17) 0.55559(14)
C24A C 0.3956(3) 0.61283(16) 0.52651(12)
C25A C 0.4511(3) 0.51387(18) 0.58454(12)
H25A H 0.4192 0.5227 0.6419
C26A C 0.5532(3) 0.40227(17) 0.55843(12)
H26A H 0.5876 0.3369 0.5983
O4A O 1.09493(19) 0.07494(13) -0.22887(8)
O5A O 1.0987(2) -0.11749(13) -0.20869(8)
C19A C 1.0783(2) -0.01588(17) -0.18081(10)
C20A C 1.0355(2) -0.00713(16) -0.08696(10)
C21A C 1.0184(3) -0.10740(18) -0.03258(12)
H23A H 1.0305 -0.1806 -0.0543
C22A C 0.9833(3) -0.10035(18) 0.05401(12)
H24A H 0.9726 -0.1687 0.0898
Cd1A Cd 0.163765(17) -0.058253(11) 0.650651(7)
N1A N 0.1963(2) 0.11574(13) 0.56727(9)
C1A C 0.1132(3) 0.22686(18) 0.59162(12)
H1A H 0.0499 0.2334 0.6454
O2A O -0.13347(18) 0.01292(13) 0.63278(9)
H2A H -0.1589 0.0608 0.5890
H3A H -0.2048 0.0483 0.6729
N2A N 0.3736(2) 0.83951(15) 0.25370(12)
C2A C 0.1171(3) 0.33205(18) 0.54058(13)
H4A H 0.0603 0.4077 0.5602
N3A N 0.3411(2) 0.26304(13) 0.28381(9)
H5A H 0.2564 0.3283 0.2924
C3A C 0.2069(3) 0.32333(17) 0.45979(12)
H6A H 0.2082 0.3929 0.4236
N4A N 0.4486(2) 0.44646(13) 0.16244(10)
H7A H 0.5575 0.4286 0.1732
C4A C 0.2947(2) 0.20915(15) 0.43381(11)
O6A O 0.52854(17) 0.09428(12) 0.34117(8)
C5A C 0.2881(2) 0.10798(15) 0.49009(10)
H8A H 0.3504 0.0314 0.4733
C6A C 0.3981(2) 0.18579(15) 0.34866(11)
O7A O 0.1877(2) 0.59204(15) 0.15892(14)
C7A C 0.4222(2) 0.23731(15) 0.19750(10)
H9A H 0.5521 0.2052 0.1973
C8A C 0.3509(3) 0.14106(17) 0.16836(12)
H10A H 0.2224 0.1720 0.1679
H11A H 0.3733 0.0690 0.2079
C9A C 0.4391(3) 0.10717(18) 0.08091(13)
H12A H 0.5662 0.0695 0.0824
H13A H 0.3877 0.0487 0.0633
C10A C 0.4128(4) 0.2191(2) 0.01786(13)
H14A H 0.4801 0.1968 -0.0362
H15A H 0.2871 0.2495 0.0102
C11A C 0.4744(3) 0.31931(19) 0.04756(12)
H16A H 0.6033 0.2929 0.0474
H17A H 0.4462 0.3915 0.0084
C12A C 0.3852(2) 0.35136(15) 0.13629(11)
H18A H 0.2556 0.3819 0.1351
C13A C 0.3466(3) 0.55924(17) 0.17049(13)
C14A C 0.4309(3) 0.64834(15) 0.19617(11)
C15A C 0.6140(3) 0.63394(17) 0.19045(14)
H19A H 0.6953 0.5652 0.1692
C16A C 0.6734(3) 0.72330(19) 0.21673(15)
H20A H 0.7953 0.7161 0.2129
C17A C 0.5496(3) 0.82278(18) 0.24853(14)
H21A H 0.5907 0.8815 0.2674
C18A C 0.3166(3) 0.75381(17) 0.22685(13)
H22A H 0.1939 0.7656 0.2289
Cd1A_2 Cd 0.163765(17) 0.941747(11) 0.650651(7)
Cd1A_3 Cd 1.163765(17) -0.058253(11) -0.349349(7)
O1A_2 O 0.2351(3) -0.26022(15) 0.63300(11)
O3A_2 O 0.2681(2) -0.17257(13) 0.50551(12)
O4A_2 O 0.09493(19) 0.07494(13) 0.77113(8)
O5A_2 O 0.0987(2) -0.11749(13) 0.79131(8)
loop_
_geom_bond_atom_site_label_1
_geom_bond_atom_site_label_2
_geom_bond_site_symmetry_1
_geom_bond_site_symmetry_2
Cd1 N1 1_555 1_555
N1 C1 1_555 1_555
O1 Cd1 1_555 1_555
C1 H1 1_555 1_555
O2 Cd1 1_555 1_555
H2 O2 1_555 1_555
H3 O2 1_555 1_555
N2 C17 1_555 1_555
O3 Cd1 1_555 1_555
C2 C1 1_555 1_555
H4 C2 1_555 1_555
O4 Cd1 1_555 1_555
N3 H5 1_555 1_555
C3 C2 1_555 1_555
H6 C3 1_555 1_555
N4 H7 1_555 1_555
C4 C3 1_555 1_555
O5 Cd1 1_555 1_555
O6 C6 1_555 1_555
C5 N1 1_555 1_555
H8 C5 1_555 1_555
C6 N3 1_555 1_555
O7 C13 1_555 1_555
C7 N3 1_555 1_555
H9 C7 1_555 1_555
C8 C7 1_555 1_555
H10 C8 1_555 1_555
H11 C8 1_555 1_555
C9 C8 1_555 1_555
H12 C9 1_555 1_555
H13 C9 1_555 1_555
C10 C9 1_555 1_555
H14 C10 1_555 1_555
H15 C10 1_555 1_555
C11 C10 1_555 1_555
H16 C11 1_555 1_555
H17 C11 1_555 1_555
C12 N4 1_555 1_555
H18 C12 1_555 1_555
C13 N4 1_555 1_555
C14 C13 1_555 1_555
C15 C14 1_555 1_555
H19 C15 1_555 1_555
C16 C15 1_555 1_555
H20 C16 1_555 1_555
C17 C16 1_555 1_555
H21 C17 1_555 1_555
C18 N2 1_555 1_555
H22 C18 1_555 1_555
C19 O4 1_555 1_555
C20 C19 1_555 1_555
C21 C20 1_555 1_555
H23 C21 1_555 1_555
C22 C21 1_555 1_555
H24 C22 1_555 1_555
C23 O1 1_555 1_555
C24 C23 1_555 1_555
C25 C24 1_555 1_555
H25 C25 1_555 1_555
C26 C25 1_555 1_555
H26 C26 1_555 1_555
O1A C23A 1_555 1_555
O3A C23A 1_555 1_555
C23A C24A 1_555 1_555
C24A C26 1_555 1_555
C25A C24A 1_555 1_555
H25A C25A 1_555 1_555
C26A C24 1_555 1_555
H26A C26A 1_555 1_555
O4A C19A 1_555 1_555
O5A C19A 1_555 1_555
C19A C20A 1_555 1_555
C20A C22 1_555 1_555
C21A C20A 1_555 1_555
H23A C21A 1_555 1_555
C22A C20 1_555 1_555
H24A C22A 1_555 1_555
Cd1A O6 1_555 1_555
N1A Cd1A 1_555 1_555
C1A N1A 1_555 1_555
H1A C1A 1_555 1_555
O2A Cd1A 1_555 1_555
H2A O2A 1_555 1_555
H3A O2A 1_555 1_555
N2A C17A 1_555 1_555
C2A C1A 1_555 1_555
H4A C2A 1_555 1_555
N3A H5A 1_555 1_555
C3A C2A 1_555 1_555
H6A C3A 1_555 1_555
N4A H7A 1_555 1_555
C4A C3A 1_555 1_555
O6A Cd1 1_555 1_555
C5A N1A 1_555 1_555
H8A C5A 1_555 1_555
C6A N3A 1_555 1_555
O7A C13A 1_555 1_555
C7A N3A 1_555 1_555
H9A C7A 1_555 1_555
C8A C7A 1_555 1_555
H10A C8A 1_555 1_555
H11A C8A 1_555 1_555
C9A C8A 1_555 1_555
H12A C9A 1_555 1_555
H13A C9A 1_555 1_555
C10A C9A 1_555 1_555
H14A C10A 1_555 1_555
H15A C10A 1_555 1_555
C11A C10A 1_555 1_555
H16A C11A 1_555 1_555
H17A C11A 1_555 1_555
C12A N4A 1_555 1_555
H18A C12A 1_555 1_555
C13A N4A 1_555 1_555
C14A C13A 1_555 1_555
C15A C14A 1_555 1_555
H19A C15A 1_555 1_555
C16A C15A 1_555 1_555
H20A C16A 1_555 1_555
C17A C16A 1_555 1_555
H21A C17A 1_555 1_555
C18A N2A 1_555 1_555
H22A C18A 1_555 1_555
Cd1A_2 O1A 1_555 1_555
Cd1A_3 O4A 1_555 1_555
O1A_2 Cd1A 1_555 1_555
O3A_2 Cd1A 1_555 1_555
O4A_2 Cd1A 1_555 1_555
O5A_2 Cd1A 1_555 1_555
O3 C23 1_555 1_555
C4 C5 1_555 1_555
C4 C6 1_555 1_555
O5 C19 1_555 1_555
C7 C12 1_555 1_555
C11 C12 1_555 1_555
C14 C18 1_555 1_555
O3A Cd1A_2 1_555 1_555
C25A C26A 1_555 1_555
O5A Cd1A_3 1_555 1_555
C21A C22A 1_555 1_555
C4A C5A 1_555 1_555
C4A C6A 1_555 1_555
O6A C6A 1_555 1_555
C7A C12A 1_555 1_555
C11A C12A 1_555 1_555
C14A C18A 1_555 1_555

#END
