
#######################################################################
#
#                 Cambridge Crystallographic Data Centre
#                                CCDC 
#
#######################################################################
#
# If this CIF has been generated from an entry in the Cambridge 
# Structural Database, then it will include bibliographic, chemical, 
# crystal, experimental, refinement or atomic coordinate data resulting 
# from the CCDC's data processing and validation procedures.
#
#######################################################################

data_HODWEC
_symmetry_cell_setting           triclinic
_symmetry_space_group_name_H-M   'P -1'
_symmetry_Int_Tables_number      2
_space_group_name_Hall           '-P 1'
loop_
_symmetry_equiv_pos_site_id
_symmetry_equiv_pos_as_xyz
1 x,y,z
2 -x,-y,-z
_cell_length_a                   6.850(4)
_cell_length_b                   9.071(3)
_cell_length_c                   11.208(4)
_cell_angle_alpha                74.68(3)
_cell_angle_beta                 74.46(3)
_cell_angle_gamma                71.13(3)
_cell_volume                     622.746
loop_
_atom_site_label
_atom_site_type_symbol
_atom_site_fract_x
_atom_site_fract_y
_atom_site_fract_z
Cu1 Cu 0.0000 0.0000 0.00000
O1 O -0.1880(2) 0.0381(2) 0.16292(15)
O2 O 0.1253(3) 0.0074(2) 0.1956(2)
N1 N -0.0221(3) 0.2295(2) -0.05640(19)
C1 C -0.1974(4) 0.3437(3) -0.0528(3)
N2 N -0.1680(4) 0.4855(3) -0.1119(2)
C2 C 0.0431(4) 0.4636(3) -0.1582(2)
C3 C 0.1594(5) 0.5687(4) -0.2281(3)
C4 C 0.3712(5) 0.5060(4) -0.2604(4)
C5 C 0.4654(5) 0.3450(4) -0.2250(4)
C6 C 0.3512(4) 0.2410(4) -0.1553(3)
C7 C 0.1351(4) 0.3022(3) -0.1228(2)
C8 C -0.0659(4) 0.0247(3) 0.2356(2)
C9 C -0.1647(6) 0.0269(4) 0.3714(3)
C10 C -0.2227(5) -0.1278(4) 0.4389(3)
C11 C -0.0377(5) -0.2742(3) 0.4317(3)
C12 C -0.0920(5) -0.4273(3) 0.5049(3)
H1 H -0.330(5) 0.325(4) -0.014(3)
H2 H -0.248(5) 0.560(4) -0.118(3)
H3 H 0.102(5) 0.675(4) -0.249(3)
H4 H 0.445(7) 0.571(5) -0.293(4)
H5 H 0.614(6) 0.303(4) -0.252(3)
H6 H 0.408(5) 0.139(4) -0.136(3)
H7 H -0.294(5) 0.111(4) 0.380(3)
H8 H -0.073(5) 0.037(4) 0.413(3)
H9 H -0.334(5) -0.141(4) 0.398(3)
H10 H -0.283(5) -0.121(4) 0.521(3)
H11 H 0.016(5) -0.283(4) 0.344(3)
H12 H 0.063(6) -0.258(4) 0.460(3)
H13 H -0.205(5) -0.441(4) 0.474(3)
H14 H -0.147(5) -0.416(4) 0.589(3)
O1A O 0.1880(2) -0.0381(2) -0.16292(15)
O2A O -0.1253(3) -0.0074(2) -0.1956(2)
N1A N 0.0221(3) -0.2295(2) 0.05640(19)
C1A C 0.1974(4) -0.3437(3) 0.0528(3)
N2A N 0.1680(4) -0.4855(3) 0.1119(2)
C2A C -0.0431(4) -0.4636(3) 0.1582(2)
C3A C -0.1594(5) -0.5687(4) 0.2281(3)
C4A C -0.3712(5) -0.5060(4) 0.2604(4)
C5A C -0.4654(5) -0.3450(4) 0.2250(4)
C6A C -0.3512(4) -0.2410(4) 0.1553(3)
C7A C -0.1351(4) -0.3022(3) 0.1228(2)
H6A H -0.408(5) -0.139(4) 0.136(3)
H5A H -0.614(6) -0.303(4) 0.252(3)
H4A H -0.445(7) -0.571(5) 0.293(4)
H3A H -0.102(5) -0.675(4) 0.249(3)
H2A H 0.248(5) -0.560(4) 0.118(3)
H1A H 0.330(5) -0.325(4) 0.014(3)
C12A C 0.0920(5) -0.5727(3) 0.4951(3)
C11A C 0.0377(5) -0.7258(3) 0.5683(3)
C10A C 0.2227(5) -0.8722(4) 0.5611(3)
C9A C 0.1647(6) -1.0269(4) 0.6286(3)
C8A C 0.0659(4) -1.0247(3) 0.7644(2)
O1A_2 O 0.1880(2) -1.0381(2) 0.83708(15)
Cu1_2 Cu 0.0000 -1.0000 1.00000
O2A_2 O -0.1253(3) -1.0074(2) 0.8044(2)
H7A H 0.294(5) -1.111(4) 0.620(3)
H8A H 0.073(5) -1.037(4) 0.587(3)
H9A H 0.334(5) -0.859(4) 0.602(3)
H10A H 0.283(5) -0.879(4) 0.479(3)
H11A H -0.016(5) -0.717(4) 0.656(3)
H12A H -0.063(6) -0.742(4) 0.540(3)
H13A H 0.205(5) -0.559(4) 0.526(3)
H14A H 0.147(5) -0.584(4) 0.411(3)
O3 O -0.3895(4) 0.7992(3) -0.1782(3)
H15 H -0.489(6) 0.845(4) -0.183(3)
H16 H -0.316(6) 0.861(5) -0.190(4)
loop_
_geom_bond_atom_site_label_1
_geom_bond_atom_site_label_2
_geom_bond_site_symmetry_1
_geom_bond_site_symmetry_2
Cu1 O1 1_555 1_555
O1 C8 1_555 1_555
O2 Cu1 1_555 1_555
O3 H15 1_555 1_555
N1 Cu1 1_555 1_555
C1 N1 1_555 1_555
N2 C1 1_555 1_555
C2 N2 1_555 1_555
C3 C2 1_555 1_555
C4 C3 1_555 1_555
C5 C4 1_555 1_555
C6 C5 1_555 1_555
C7 N1 1_555 1_555
C8 O2 1_555 1_555
C9 C8 1_555 1_555
C10 C9 1_555 1_555
C11 C10 1_555 1_555
C12 C11 1_555 1_555
H1 C1 1_555 1_555
H2 N2 1_555 1_555
H3 C3 1_555 1_555
H4 C4 1_555 1_555
H5 C5 1_555 1_555
H6 C6 1_555 1_555
H7 C9 1_555 1_555
H8 C9 1_555 1_555
H9 C10 1_555 1_555
H10 C10 1_555 1_555
H11 C11 1_555 1_555
H12 C11 1_555 1_555
H13 C12 1_555 1_555
H14 C12 1_555 1_555
H16 O3 1_555 1_555
O1A Cu1 1_555 1_555
O2A Cu1 1_555 1_555
N1A Cu1 1_555 1_555
C1A N1A 1_555 1_555
N2A C1A 1_555 1_555
C2A N2A 1_555 1_555
C3A C2A 1_555 1_555
C4A C3A 1_555 1_555
C5A C4A 1_555 1_555
C6A C5A 1_555 1_555
C7A N1A 1_555 1_555
H6A C6A 1_555 1_555
H5A C5A 1_555 1_555
H4A C4A 1_555 1_555
H3A C3A 1_555 1_555
H2A N2A 1_555 1_555
H1A C1A 1_555 1_555
C12A C12 1_555 1_555
C11A C12A 1_555 1_555
C10A C11A 1_555 1_555
C9A C10A 1_555 1_555
C8A C9A 1_555 1_555
O1A_2 C8A 1_555 1_555
Cu1_2 O1A_2 1_555 1_555
O2A_2 C8A 1_555 1_555
H7A C9A 1_555 1_555
H8A C9A 1_555 1_555
H9A C10A 1_555 1_555
H10A C10A 1_555 1_555
H11A C11A 1_555 1_555
H12A C11A 1_555 1_555
H13A C12A 1_555 1_555
H14A C12A 1_555 1_555
C2 C7 1_555 1_555
C6 C7 1_555 1_555
C2A C7A 1_555 1_555
C6A C7A 1_555 1_555
Cu1_2 O2A_2 1_555 1_555

#END
