
#######################################################################
#
#                 Cambridge Crystallographic Data Centre
#                                CCDC 
#
#######################################################################
#
# If this CIF has been generated from an entry in the Cambridge 
# Structural Database, then it will include bibliographic, chemical, 
# crystal, experimental, refinement or atomic coordinate data resulting 
# from the CCDC's data processing and validation procedures.
#
#######################################################################

data_HODWAY
_symmetry_cell_setting           triclinic
_symmetry_space_group_name_H-M   'P -1'
_symmetry_Int_Tables_number      2
_space_group_name_Hall           '-P 1'
loop_
_symmetry_equiv_pos_site_id
_symmetry_equiv_pos_as_xyz
1 x,y,z
2 -x,-y,-z
_cell_length_a                   7.338(1)
_cell_length_b                   8.6269(5)
_cell_length_c                   8.877(1)
_cell_angle_alpha                80.98(1)
_cell_angle_beta                 84.62(1)
_cell_angle_gamma                72.65(1)
_cell_volume                     529.091
loop_
_atom_site_label
_atom_site_type_symbol
_atom_site_fract_x
_atom_site_fract_y
_atom_site_fract_z
Cu1 Cu 0.0000 0.0000 0.0000
O1 O -0.00055(17) -0.04786(16) 0.22482(14)
O2 O -0.09944(19) -0.24707(19) 0.16635(18)
N1 N 0.26635(19) -0.14145(18) -0.01041(17)
C1 C 0.3999(3) -0.1408(2) 0.0784(2)
N2 N 0.5714(2) -0.2396(2) 0.0415(2)
C2 C 0.5506(2) -0.3135(2) -0.0786(2)
C3 C 0.6791(3) -0.4312(3) -0.1598(3)
C4 C 0.6057(4) -0.4830(3) -0.2712(3)
C5 C 0.4135(4) -0.4236(3) -0.3046(3)
C6 C 0.2857(3) -0.3068(3) -0.2255(2)
C7 C 0.3580(2) -0.2517(2) -0.1121(2)
C8 C -0.0588(2) -0.1737(2) 0.2621(2)
C9 C -0.0776(3) -0.2312(3) 0.4313(2)
C10 C -0.2260(3) -0.1035(3) 0.5150(2)
C11 C -0.4258(3) -0.0603(3) 0.4553(2)
H1 H 0.383(3) -0.079(3) 0.146(3)
H2 H 0.653(4) -0.250(3) 0.082(3)
H3 H 0.799(4) -0.473(3) -0.134(3)
H4 H 0.681(5) -0.568(4) -0.329(4)
H5 H 0.382(5) -0.474(4) -0.380(4)
H6 H 0.163(4) -0.266(3) -0.244(3)
H7 H 0.051(4) -0.251(3) 0.477(3)
H8 H -0.102(4) -0.338(4) 0.439(3)
H9 H -0.190(3) -0.002(3) 0.508(3)
H10 H -0.228(3) -0.148(3) 0.613(3)
H11 H -0.424(3) -0.011(3) 0.352(3)
H12 H -0.464(3) -0.157(3) 0.457(3)
O1A O 0.00055(17) 0.04786(16) -0.22482(14)
O2A O 0.09944(19) 0.24707(19) -0.16635(18)
N1A N -0.26635(19) 0.14145(18) 0.01041(17)
C1A C -0.3999(3) 0.1408(2) -0.0784(2)
N2A N -0.5714(2) 0.2396(2) -0.0415(2)
C2A C -0.5506(2) 0.3135(2) 0.0786(2)
C3A C -0.6791(3) 0.4312(3) 0.1598(3)
C4A C -0.6057(4) 0.4830(3) 0.2712(3)
C5A C -0.4135(4) 0.4236(3) 0.3046(3)
C6A C -0.2857(3) 0.3068(3) 0.2255(2)
C7A C -0.3580(2) 0.2517(2) 0.1121(2)
H6A H -0.163(4) 0.266(3) 0.244(3)
H5A H -0.382(5) 0.474(4) 0.380(4)
H4A H -0.681(5) 0.568(4) 0.329(4)
H3A H -0.799(4) 0.473(3) 0.134(3)
H2A H -0.653(4) 0.250(3) -0.082(3)
H1A H -0.383(3) 0.079(3) -0.146(3)
C11A C -0.5742(3) 0.0603(3) 0.5447(2)
C10A C -0.7740(3) 0.1035(3) 0.4850(2)
C9A C -0.9224(3) 0.2312(3) 0.5687(2)
C8A C -0.9412(2) 0.1737(2) 0.7379(2)
O1A_2 O -0.99945(17) 0.04786(16) 0.77518(14)
Cu1_2 Cu -1.0000 0.0000 1.0000
O2A_2 O -0.90056(19) 0.24707(19) 0.83365(18)
H7A H -1.051(4) 0.251(3) 0.523(3)
H8A H -0.898(4) 0.338(4) 0.561(3)
H9A H -0.810(3) 0.002(3) 0.492(3)
H10A H -0.772(3) 0.148(3) 0.387(3)
H11A H -0.576(3) 0.011(3) 0.648(3)
H12A H -0.536(3) 0.157(3) 0.543(3)
loop_
_geom_bond_atom_site_label_1
_geom_bond_atom_site_label_2
_geom_bond_site_symmetry_1
_geom_bond_site_symmetry_2
Cu1 O1 1_555 1_555
O1 C8 1_555 1_555
O2 Cu1 1_555 1_555
N1 Cu1 1_555 1_555
C1 N1 1_555 1_555
N2 C1 1_555 1_555
C2 N2 1_555 1_555
C3 C2 1_555 1_555
C4 C3 1_555 1_555
C5 C4 1_555 1_555
C6 C5 1_555 1_555
C7 N1 1_555 1_555
C8 O2 1_555 1_555
C9 C8 1_555 1_555
C10 C9 1_555 1_555
C11 C10 1_555 1_555
H1 C1 1_555 1_555
H2 N2 1_555 1_555
H3 C3 1_555 1_555
H4 C4 1_555 1_555
H5 C5 1_555 1_555
H6 C6 1_555 1_555
H7 C9 1_555 1_555
H8 C9 1_555 1_555
H9 C10 1_555 1_555
H10 C10 1_555 1_555
H11 C11 1_555 1_555
H12 C11 1_555 1_555
O1A Cu1 1_555 1_555
O2A Cu1 1_555 1_555
N1A Cu1 1_555 1_555
C1A N1A 1_555 1_555
N2A C1A 1_555 1_555
C2A N2A 1_555 1_555
C3A C2A 1_555 1_555
C4A C3A 1_555 1_555
C5A C4A 1_555 1_555
C6A C5A 1_555 1_555
C7A N1A 1_555 1_555
H6A C6A 1_555 1_555
H5A C5A 1_555 1_555
H4A C4A 1_555 1_555
H3A C3A 1_555 1_555
H2A N2A 1_555 1_555
H1A C1A 1_555 1_555
C11A C11 1_555 1_555
C10A C11A 1_555 1_555
C9A C10A 1_555 1_555
C8A C9A 1_555 1_555
O1A_2 C8A 1_555 1_555
Cu1_2 O1A_2 1_555 1_555
O2A_2 C8A 1_555 1_555
H7A C9A 1_555 1_555
H8A C9A 1_555 1_555
H9A C10A 1_555 1_555
H10A C10A 1_555 1_555
H11A C11A 1_555 1_555
H12A C11A 1_555 1_555
C2 C7 1_555 1_555
C6 C7 1_555 1_555
C2A C7A 1_555 1_555
C6A C7A 1_555 1_555
Cu1_2 O2A_2 1_555 1_555

#END
