
#######################################################################
#
#                 Cambridge Crystallographic Data Centre
#                                CCDC 
#
#######################################################################
#
# If this CIF has been generated from an entry in the Cambridge 
# Structural Database, then it will include bibliographic, chemical, 
# crystal, experimental, refinement or atomic coordinate data resulting 
# from the CCDC's data processing and validation procedures.
#
#######################################################################

data_HODXIH
_symmetry_cell_setting           tetragonal
_symmetry_space_group_name_H-M   'P 41 21 2'
_symmetry_Int_Tables_number      92
_space_group_name_Hall           'P 4abw 2nw'
loop_
_symmetry_equiv_pos_site_id
_symmetry_equiv_pos_as_xyz
1 x,y,z
2 -x,-y,1/2+z
3 1/2-y,1/2+x,1/4+z
4 1/2+y,1/2-x,3/4+z
5 1/2-x,1/2+y,1/4-z
6 1/2+x,1/2-y,3/4-z
7 y,x,-z
8 -y,-x,1/2-z
_cell_length_a                   6.7940(5)
_cell_length_b                   6.7940(5)
_cell_length_c                   11.9557(11)
_cell_angle_alpha                90
_cell_angle_beta                 90
_cell_angle_gamma                90
_cell_volume                     551.856
loop_
_atom_site_label
_atom_site_type_symbol
_atom_site_fract_x
_atom_site_fract_y
_atom_site_fract_z
Cu1 Cu -0.73094(4) 0.73094(4) 0.2500
O1 O -0.5273(2) 0.2598(3) 0.08576(13)
O2 O -0.7005(3) 0.4824(3) 0.17479(13)
C1 C -0.5459(3) 0.3782(3) 0.16531(18)
C2 C -0.1836(4) 0.3071(4) 0.2131(2)
H1 H -0.1691 0.2662 0.1358
H2 H -0.0676 0.3677 0.2454
C3 C -0.3856(4) 0.3856(4) 0.2500
Cu1C Cu -0.76906(4) 0.23094(4) 0.0000
O1B O -0.7598(3) 0.9727(2) 0.33576(13)
Cu1B Cu -0.23094(4) 0.76906(4) 0.5000
O1D O -0.9727(2) 0.7598(3) 0.16424(13)
O2G O -0.4824(3) 0.7005(3) 0.32521(13)
C1G C -0.3782(3) 0.5459(3) 0.33469(18)
C2G C -0.3071(4) 0.1836(4) 0.2869(2)
H1G H -0.2662 0.1691 0.3642
H2G H -0.3677 0.0676 0.2546
O1G O -0.2598(3) 0.5273(2) 0.41424(13)
loop_
_geom_bond_atom_site_label_1
_geom_bond_atom_site_label_2
_geom_bond_site_symmetry_1
_geom_bond_site_symmetry_2
Cu1 O2 1_555 1_555
O1 C1 1_555 1_555
O2 C1 1_555 1_555
C1 C3 1_555 1_555
C2 H1 1_555 1_555
H2 C2 1_555 1_555
C3 C2 1_555 1_555
Cu1C O1 1_555 1_555
O1B Cu1 1_555 1_555
Cu1B O1G 1_555 1_555
O1D Cu1 1_555 1_555
O2G Cu1 1_555 1_555
C1G C3 1_555 1_555
C2G C2 1_555 1_555
H1G C2G 1_555 1_555
H2G C2G 1_555 1_555
O1G C1G 1_555 1_555
C3 C2G 1_555 1_555
O2G C1G 1_555 1_555

#END
