
#######################################################################
#
#                 Cambridge Crystallographic Data Centre
#                                CCDC 
#
#######################################################################
#
# If this CIF has been generated from an entry in the Cambridge 
# Structural Database, then it will include bibliographic, chemical, 
# crystal, experimental, refinement or atomic coordinate data resulting 
# from the CCDC's data processing and validation procedures.
#
#######################################################################

data_HOFCEK
_symmetry_cell_setting           monoclinic
_symmetry_space_group_name_H-M   'P 21/c'
_symmetry_Int_Tables_number      14
_space_group_name_Hall           '-P 2ybc'
loop_
_symmetry_equiv_pos_site_id
_symmetry_equiv_pos_as_xyz
1 x,y,z
2 -x,1/2+y,1/2-z
3 -x,-y,-z
4 x,1/2-y,1/2+z
_cell_length_a                   10.036(2)
_cell_length_b                   18.669(4)
_cell_length_c                   6.7170(13)
_cell_angle_alpha                90
_cell_angle_beta                 98.62(3)
_cell_angle_gamma                90
_cell_volume                     1244.3
loop_
_atom_site_label
_atom_site_type_symbol
_atom_site_fract_x
_atom_site_fract_y
_atom_site_fract_z
Cd1 Cd 0.418790(19) -0.033810(10) -0.28157(3)
S1 S 0.69770(7) 0.04945(4) -0.17591(10)
O1 O 0.6415(2) 0.00375(13) -0.0204(3)
O2 O 0.8182(2) 0.00756(14) -0.2286(3)
O3 O 0.5858(2) 0.04154(11) -0.3589(3)
N1 N 0.2436(2) -0.12567(13) -0.3176(4)
N2 N 0.5126(2) -0.14816(12) -0.2291(3)
C1 C 0.1110(3) -0.11292(18) -0.3545(6)
H1 H 0.0822 -0.0657 -0.3722
C2 C 0.0154(3) -0.1659(2) -0.3676(6)
H2 H -0.0759 -0.1547 -0.3929
C3 C 0.0574(3) -0.23615(19) -0.3425(5)
H3 H -0.0053 -0.2731 -0.3503
C4 C 0.1933(3) -0.25063(17) -0.3058(5)
H4 H 0.2236 -0.2976 -0.2900
C5 C 0.2851(3) -0.19406(15) -0.2925(4)
C6 C 0.4335(3) -0.20616(15) -0.2492(4)
C7 C 0.4873(3) -0.27501(16) -0.2265(5)
H5 H 0.4307 -0.3147 -0.2394
C8 C 0.6253(4) -0.28385(17) -0.1848(5)
H6 H 0.6628 -0.3295 -0.1716
C9 C 0.7069(3) -0.22385(19) -0.1630(5)
H7 H 0.8001 -0.2282 -0.1336
C10 C 0.6466(3) -0.15716(17) -0.1859(5)
H8 H 0.7013 -0.1167 -0.1708
O4 O 0.2543(2) 0.05086(12) -0.3986(4)
H9 H 0.220(4) 0.0396(19) -0.513(5)
H12 H 0.195(4) 0.051(3) -0.321(6)
Cd1B Cd 0.581210(19) 0.033810(10) -0.71843(3)
O3B O 0.4142(2) -0.04154(11) -0.6411(3)
O1B O 0.3585(2) -0.00375(13) 0.0204(3)
Cd1B_2 Cd 0.581210(19) 0.033810(10) 0.28157(3)
O5 O 0.9301(3) -0.07557(15) -1.8599(4)
H10 H 1.008(4) -0.055(3) -1.821(8)
H11 H 0.897(5) -0.050(2) -1.965(6)
loop_
_geom_bond_atom_site_label_1
_geom_bond_atom_site_label_2
_geom_bond_site_symmetry_1
_geom_bond_site_symmetry_2
Cd1 O1 1_555 1_555
S1 O1 1_555 1_555
O1 Cd1B_2 1_555 1_555
O2 S1 1_555 1_555
O3 Cd1 1_555 1_555
N1 Cd1 1_555 1_555
N2 Cd1 1_555 1_555
C1 N1 1_555 1_555
H1 C1 1_555 1_555
C2 C1 1_555 1_555
H2 C2 1_555 1_555
C3 C2 1_555 1_555
H3 C3 1_555 1_555
C4 C3 1_555 1_555
H4 C4 1_555 1_555
C5 N1 1_555 1_555
C6 N2 1_555 1_555
C7 C6 1_555 1_555
H5 C7 1_555 1_555
C8 C7 1_555 1_555
H6 C8 1_555 1_555
C9 C8 1_555 1_555
H7 C9 1_555 1_555
C10 N2 1_555 1_555
H8 C10 1_555 1_555
O4 Cd1 1_555 1_555
O5 H10 1_555 1_555
H9 O4 1_555 1_555
H11 O5 1_555 1_555
H12 O4 1_555 1_555
Cd1B O3 1_555 1_555
O3B Cd1 1_555 1_555
O1B Cd1 1_555 1_555
Cd1B_2 O1B 1_555 1_555
S1 O3 1_555 1_555
C4 C5 1_555 1_555
C5 C6 1_555 1_555
C9 C10 1_555 1_555
Cd1B O3B 1_555 1_555

#END
