
#######################################################################
#
#                 Cambridge Crystallographic Data Centre
#                                CCDC 
#
#######################################################################
#
# If this CIF has been generated from an entry in the Cambridge 
# Structural Database, then it will include bibliographic, chemical, 
# crystal, experimental, refinement or atomic coordinate data resulting 
# from the CCDC's data processing and validation procedures.
#
#######################################################################

data_HOFMAS
_symmetry_cell_setting           monoclinic
_symmetry_space_group_name_H-M   'C 2/c'
_symmetry_Int_Tables_number      15
_space_group_name_Hall           '-C 2yn'
loop_
_symmetry_equiv_pos_site_id
_symmetry_equiv_pos_as_xyz
1 x,y,z
2 -x,y,1/2-z
3 1/2+x,1/2+y,z
4 1/2-x,1/2+y,1/2-z
5 -x,-y,-z
6 x,-y,1/2+z
7 1/2-x,1/2-y,-z
8 1/2+x,1/2-y,1/2+z
_cell_length_a                   19.6850(18)
_cell_length_b                   14.3320(12)
_cell_length_c                   16.9300(15)
_cell_angle_alpha                90
_cell_angle_beta                 121.205(2)
_cell_angle_gamma                90
_cell_volume                     4085.33
loop_
_atom_site_label
_atom_site_type_symbol
_atom_site_fract_x
_atom_site_fract_y
_atom_site_fract_z
Zn1 Zn 0.24322(5) 0.43239(5) 0.36807(6)
N1 N 0.2433(3) 0.4947(4) 0.2561(4)
N2 N 0.0353(5) 0.4556(6) 0.3728(5)
N3 N 0.1444(4) 0.4184(4) 0.3761(5)
N4 N 0.4724(4) 0.4856(6) 0.5891(5)
N5 N 0.3570(4) 0.4329(4) 0.4793(5)
O1 O 0.2394(3) 0.5795(3) 0.3926(4)
O2 O 0.2361(4) 0.7192(4) 0.3357(5)
O3 O 0.3565(4) 0.7644(4) 0.2858(4)
O4 O 0.2413(3) 0.7960(3) 0.1550(4)
C1 C 0.2420(5) 0.6352(6) 0.3364(6)
C2 C 0.2903(5) 0.7412(5) 0.2173(6)
C3 C 0.2508(4) 0.5849(4) 0.2629(5)
C4 C 0.2688(4) 0.6391(5) 0.2031(5)
C5 C 0.2669(5) 0.5903(6) 0.1316(5)
H1 H 0.2741 0.6219 0.0885
C6 C 0.2545(4) 0.4960(5) 0.1234(5)
H2 H 0.2536 0.4646 0.0747
C7 C 0.2436(5) 0.4470(5) 0.1849(5)
H3 H 0.2365 0.3827 0.1793
C8 C 0.1005(5) 0.4877(7) 0.3775(6)
H4 H 0.1137 0.5505 0.3814
C9 C 0.1049(6) 0.3392(7) 0.3715(7)
H5 H 0.1216 0.2790 0.3692
C10 C 0.0380(6) 0.3605(8) 0.3707(7)
H6 H 0.0011 0.3189 0.3691
C11 C -0.0261(6) 0.5138(8) 0.3730(7)
H7 H -0.0767 0.5011 0.3172
H8 H -0.0134 0.5789 0.3714
C12 C -0.0346(6) 0.4983(9) 0.4551(7)
H9 H -0.0716 0.5445 0.4528
H10 H -0.0591 0.4376 0.4480
C13 C 0.3968(5) 0.5070(6) 0.5263(6)
H11 H 0.3753 0.5666 0.5171
C14 C 0.4097(6) 0.3623(7) 0.5145(6)
H12 H 0.3989 0.3011 0.4933
C15 C 0.4803(6) 0.3926(8) 0.5847(7)
H13 H 0.5252 0.3568 0.6223
C16 C 0.5303(6) 0.5508(8) 0.6573(7)
H14 H 0.5131 0.6143 0.6368
H15 H 0.5813 0.5418 0.6625
C17 C 0.5394(5) 0.5365(8) 0.7515(7)
H16 H 0.5728 0.5857 0.7928
H17 H 0.5661 0.4775 0.7769
N2D N -0.0353(5) 0.5444(6) 0.6272(5)
N3D N -0.1444(4) 0.5816(4) 0.6239(5)
C8D C -0.1005(5) 0.5123(7) 0.6225(6)
H4D H -0.1137 0.4495 0.6186
C9D C -0.1049(6) 0.6608(7) 0.6285(7)
H5D H -0.1216 0.7210 0.6308
C10D C -0.0380(6) 0.6395(8) 0.6293(7)
H6D H -0.0011 0.6811 0.6309
C11D C 0.0261(6) 0.4862(8) 0.6270(7)
H7D H 0.0767 0.4989 0.6828
H8D H 0.0134 0.4211 0.6286
C12D C 0.0346(6) 0.5017(9) 0.5449(7)
H9D H 0.0716 0.4555 0.5472
H10D H 0.0591 0.5624 0.5520
N4A N 0.5276(4) 0.4856(6) 0.9109(5)
N5A N 0.6430(4) 0.4329(4) 1.0207(5)
C13A C 0.6032(5) 0.5070(6) 0.9737(6)
H11A H 0.6247 0.5666 0.9829
C14A C 0.5903(6) 0.3623(7) 0.9855(6)
H12A H 0.6011 0.3011 1.0067
C15A C 0.5197(6) 0.3926(8) 0.9153(7)
H13A H 0.4748 0.3568 0.8777
C16A C 0.4697(6) 0.5508(8) 0.8427(7)
H14A H 0.4869 0.6143 0.8632
H15A H 0.4187 0.5418 0.8375
C17A C 0.4606(5) 0.5365(8) 0.7485(7)
H16A H 0.4272 0.5857 0.7072
H17A H 0.4339 0.4775 0.7231
Zn1A Zn 0.75678(5) 0.43239(5) 1.13193(6)
N1A N 0.7567(3) 0.4947(4) 1.2439(4)
O1A O 0.7606(3) 0.5795(3) 1.1074(4)
O2A O 0.7639(4) 0.7192(4) 1.1643(5)
O3A O 0.6435(4) 0.7644(4) 1.2142(4)
O4A O 0.7587(3) 0.7960(3) 1.3450(4)
C1A C 0.7580(5) 0.6352(6) 1.1636(6)
C2A C 0.7097(5) 0.7412(5) 1.2827(6)
C3A C 0.7492(4) 0.5849(4) 1.2371(5)
C4A C 0.7312(4) 0.6391(5) 1.2969(5)
C5A C 0.7331(5) 0.5903(6) 1.3684(5)
H1A H 0.7259 0.6219 1.4115
C6A C 0.7455(4) 0.4960(5) 1.3766(5)
H2A H 0.7464 0.4646 1.4253
C7A C 0.7564(5) 0.4470(5) 1.3151(5)
H3A H 0.7635 0.3827 1.3207
Zn1B Zn 0.74322(5) 0.93239(5) 1.36807(6)
Zn1C Zn 0.25678(5) 0.93239(5) 0.13193(6)
Zn1D Zn -0.24322(5) 0.56761(5) 0.63193(6)
N3A N 0.8556(4) 0.4184(4) 1.1239(5)
O4B O 0.7413(3) 0.2960(3) 1.1550(4)
O4C O 0.2587(3) 0.2960(3) 0.3450(4)
N6 N 0.1654(14) 0.7824(14) 0.4342(14)
C18 C 0.1105(15) 0.7467(17) 0.3711(18)
C19 C 0.0464(13) 0.7096(14) 0.2790(16)
H18 H 0.0381 0.7509 0.2302
H19 H -0.0020 0.7037 0.2795
H20 H 0.0622 0.6493 0.2693
O5 O 0.4222(6) 0.7534(7) 0.4840(7)
H21 H 0.3970 0.7552 0.4254
H22 H 0.3894 0.7422 0.5013
O6 O 0.0824(7) 0.7273(7) 0.1390(8)
H23 H 0.1202 0.7495 0.1342
H24 H 0.0388 0.7382 0.0892
N6A N -0.1654(14) 0.7824(14) 0.0658(14)
C18A C -0.1105(15) 0.7467(17) 0.1289(18)
C19A C -0.0464(13) 0.7096(14) 0.2210(16)
H18A H -0.0381 0.7509 0.2698
H19A H 0.0020 0.7037 0.2205
H20A H -0.0622 0.6493 0.2307
loop_
_geom_bond_atom_site_label_1
_geom_bond_atom_site_label_2
_geom_bond_site_symmetry_1
_geom_bond_site_symmetry_2
Zn1 N1 1_555 1_555
N1 C3 1_555 1_555
N2 C8 1_555 1_555
N3 Zn1 1_555 1_555
N4 C13 1_555 1_555
N5 Zn1 1_555 1_555
O1 Zn1 1_555 1_555
O2 C1 1_555 1_555
O3 C2 1_555 1_555
O4 C2 1_555 1_555
C1 O1 1_555 1_555
C2 C4 1_555 1_555
C3 C1 1_555 1_555
C4 C3 1_555 1_555
C5 C4 1_555 1_555
H1 C5 1_555 1_555
C6 C5 1_555 1_555
H2 C6 1_555 1_555
C7 N1 1_555 1_555
H3 C7 1_555 1_555
C8 N3 1_555 1_555
H4 C8 1_555 1_555
C9 N3 1_555 1_555
H5 C9 1_555 1_555
C10 N2 1_555 1_555
H6 C10 1_555 1_555
C11 N2 1_555 1_555
H7 C11 1_555 1_555
H8 C11 1_555 1_555
C12 C11 1_555 1_555
H9 C12 1_555 1_555
H10 C12 1_555 1_555
C13 N5 1_555 1_555
H11 C13 1_555 1_555
C14 N5 1_555 1_555
H12 C14 1_555 1_555
C15 N4 1_555 1_555
H13 C15 1_555 1_555
C16 N4 1_555 1_555
H14 C16 1_555 1_555
H15 C16 1_555 1_555
C17 C16 1_555 1_555
H16 C17 1_555 1_555
H17 C17 1_555 1_555
N6 C18 1_555 1_555
C18 C19 1_555 1_555
C19 H18 1_555 1_555
H19 C19 1_555 1_555
H20 C19 1_555 1_555
O5 H21 1_555 1_555
H22 O5 1_555 1_555
O6 H23 1_555 1_555
H24 O6 1_555 1_555
N2D C8D 1_555 1_555
N3D C8D 1_555 1_555
C8D H4D 1_555 1_555
C9D N3D 1_555 1_555
H5D C9D 1_555 1_555
C10D N2D 1_555 1_555
H6D C10D 1_555 1_555
C11D N2D 1_555 1_555
H7D C11D 1_555 1_555
H8D C11D 1_555 1_555
C12D C12 1_555 1_555
H9D C12D 1_555 1_555
H10D C12D 1_555 1_555
N4A C13A 1_555 1_555
N5A C13A 1_555 1_555
C13A H11A 1_555 1_555
C14A N5A 1_555 1_555
H12A C14A 1_555 1_555
C15A N4A 1_555 1_555
H13A C15A 1_555 1_555
C16A N4A 1_555 1_555
H14A C16A 1_555 1_555
H15A C16A 1_555 1_555
C17A C17 1_555 1_555
H16A C17A 1_555 1_555
H17A C17A 1_555 1_555
Zn1A N5A 1_555 1_555
N1A Zn1A 1_555 1_555
O1A Zn1A 1_555 1_555
O2A C1A 1_555 1_555
O3A C2A 1_555 1_555
O4A C2A 1_555 1_555
C1A O1A 1_555 1_555
C2A C4A 1_555 1_555
C3A N1A 1_555 1_555
C4A C3A 1_555 1_555
C5A C4A 1_555 1_555
H1A C5A 1_555 1_555
C6A C5A 1_555 1_555
H2A C6A 1_555 1_555
C7A N1A 1_555 1_555
H3A C7A 1_555 1_555
Zn1B O4A 1_555 1_555
Zn1C O4 1_555 1_555
Zn1D N3D 1_555 1_555
N3A Zn1A 1_555 1_555
O4B Zn1A 1_555 1_555
O4C Zn1 1_555 1_555
N6A C18A 1_555 1_555
C18A C19A 1_555 1_555
C19A H18A 1_555 1_555
H19A C19A 1_555 1_555
H20A C19A 1_555 1_555
C6 C7 1_555 1_555
C9 C10 1_555 1_555
C14 C15 1_555 1_555
C9D C10D 1_555 1_555
C11D C12D 1_555 1_555
C14A C15A 1_555 1_555
C16A C17A 1_555 1_555
C1A C3A 1_555 1_555
C6A C7A 1_555 1_555

#END
