
#######################################################################
#
#                 Cambridge Crystallographic Data Centre
#                                CCDC 
#
#######################################################################
#
# If this CIF has been generated from an entry in the Cambridge 
# Structural Database, then it will include bibliographic, chemical, 
# crystal, experimental, refinement or atomic coordinate data resulting 
# from the CCDC's data processing and validation procedures.
#
#######################################################################

data_HOFQEA
_symmetry_cell_setting           triclinic
_symmetry_space_group_name_H-M   'P -1'
_symmetry_Int_Tables_number      2
_space_group_name_Hall           '-P 1'
loop_
_symmetry_equiv_pos_site_id
_symmetry_equiv_pos_as_xyz
1 x,y,z
2 -x,-y,-z
_cell_length_a                   10.0936(3)
_cell_length_b                   12.8244(4)
_cell_length_c                   12.8577(4)
_cell_angle_alpha                83.487(2)
_cell_angle_beta                 83.157(2)
_cell_angle_gamma                84.635(2)
_cell_volume                     1636.43
loop_
_atom_site_label
_atom_site_type_symbol
_atom_site_fract_x
_atom_site_fract_y
_atom_site_fract_z
Zn1 Zn 1.13487(4) 0.44101(3) -0.00459(3)
N1 N 1.3190(3) 0.3685(3) 0.0075(3)
O1 O 1.0327(3) 0.3609(3) 0.1213(3)
O2 O 1.1665(3) 0.5470(3) -0.1339(3)
O3 O 1.1437(3) 0.5588(3) 0.0882(3)
O4 O 1.0559(3) 0.3512(3) -0.0992(3)
C1 C 1.3598(5) 0.2842(4) -0.0442(4)
C2 C 1.4040(4) 0.4009(4) 0.0667(4)
C3 C 0.9173(4) 0.3818(3) 0.1655(3)
C4 C 1.0623(4) 0.6297(3) 0.1215(3)
H1 H 1.3008 0.2609 -0.0874
C5 C 1.4837(5) 0.2297(4) -0.0377(4)
C6 C 1.5303(4) 0.3507(4) 0.0770(4)
H2 H 1.3768 0.4609 0.1034
C7 C 0.8745(4) 0.3143(3) 0.2659(3)
C8 C 1.1104(4) 0.6977(3) 0.1950(3)
C9 C 1.5722(4) 0.2624(3) 0.0250(4)
H3 H 1.5084 0.1702 -0.0757
H4 H 1.5879 0.3768 0.1195
C10 C 0.9551(5) 0.2252(4) 0.2972(4)
C11 C 0.7574(5) 0.3414(4) 0.3269(4)
C12 C 1.0291(5) 0.7825(4) 0.2313(4)
C13 C 1.2368(5) 0.6768(4) 0.2259(4)
C14 C 1.7043(4) 0.2080(4) 0.0349(4)
C15 C 0.9178(5) 0.1644(4) 0.3898(4)
H5 H 1.0357 0.2062 0.2550
H6 H 0.7022 0.4021 0.3050
C16 C 0.7199(5) 0.2818(4) 0.4188(4)
C17 C 1.0714(5) 0.8423(4) 0.3018(4)
H7 H 0.9435 0.7994 0.2073
C18 C 1.2809(5) 0.7360(4) 0.2964(4)
H8 H 1.2944 0.6211 0.1985
H9 H 1.7673 0.2424 0.0654
C19 C 1.7420(4) 0.1137(4) 0.0039(4)
H10 H 0.9727 0.1037 0.4123
C20 C 0.7999(5) 0.1929(3) 0.4493(3)
H11 H 0.6397 0.3012 0.4612
H12 H 1.0154 0.8998 0.3272
C21 C 1.1974(5) 0.8167(4) 0.3348(3)
H13 H 1.3680 0.7208 0.3181
H14 H 1.6754 0.0789 -0.0218
C22 C 1.8741(4) 0.0574(3) 0.0049(3)
S1 S 0.74969(12) 0.11522(9) 0.56768(9)
C23 C 1.9855(4) 0.1019(4) 0.0276(4)
C24 C 1.8909(5) -0.0456(4) -0.0230(4)
O5 O 0.8254(4) 0.0145(3) 0.5660(3)
O6 O 0.6068(4) 0.1209(3) 0.5803(3)
H15 H 1.9768 0.1719 0.0465
H16 H 1.8156 -0.0776 -0.0391
O2A O 0.8335(3) 0.4530(3) 0.1339(3)
O1A O 0.9673(3) 0.6391(3) -0.1213(3)
O4A O 0.9441(3) 0.6488(3) 0.0992(3)
Zn1A Zn 0.86513(4) 0.55899(3) 0.00459(3)
N1A N 0.6810(3) 0.6315(3) -0.0075(3)
O3A O 0.8563(3) 0.4412(3) -0.0882(3)
S1A S 1.25031(12) 0.88478(9) 0.43232(9)
C21A C 0.8026(5) 0.1833(4) 0.6652(3)
O6A O 1.3932(4) 0.8791(3) 0.4197(3)
C20A C 1.2001(5) 0.8071(3) 0.5507(3)
O5A O 1.1746(4) 0.9855(3) 0.4340(3)
C24A C 2.1091(5) 0.0456(4) 0.0230(4)
C23A C 2.0145(4) -0.1019(4) -0.0276(4)
C18A C 0.7191(5) 0.2640(4) 0.7036(4)
C17A C 0.9286(5) 0.1577(4) 0.6982(4)
C15A C 1.0822(5) 0.8356(4) 0.6102(4)
C16A C 1.2801(5) 0.7182(4) 0.5812(4)
C22A C 2.1259(4) -0.0574(3) -0.0049(3)
H16A H 2.1844 0.0776 0.0391
H15A H 2.0232 -0.1719 -0.0465
C13A C 0.7632(5) 0.3232(4) 0.7741(4)
H13A H 0.6320 0.2792 0.6819
C12A C 0.9709(5) 0.2175(4) 0.7687(4)
H12A H 0.9846 0.1002 0.6728
C10A C 1.0449(5) 0.7748(4) 0.7028(4)
H10A H 1.0273 0.8963 0.5877
C11A C 1.2426(5) 0.6586(4) 0.6731(4)
H11A H 1.3603 0.6988 0.5388
C19A C 2.2580(4) -0.1137(4) -0.0039(4)
C8A C 0.8896(4) 0.3023(3) 0.8050(3)
H8A H 0.7056 0.3789 0.8015
H7A H 1.0565 0.2006 0.7927
C7A C 1.1255(4) 0.6857(3) 0.7341(3)
H5A H 0.9643 0.7938 0.7450
H6A H 1.2978 0.5979 0.6950
C14A C 2.2957(4) -0.2080(4) -0.0349(4)
H14A H 2.3246 -0.0789 0.0218
C4A C 0.9377(4) 0.3703(3) 0.8785(3)
C3A C 1.0827(4) 0.6182(3) 0.8345(3)
C9A C 2.4278(4) -0.2624(3) -0.0250(4)
H9A H 2.2327 -0.2424 -0.0654
O3A_2 O 0.8563(3) 0.4412(3) 0.9118(3)
O4_2 O 1.0559(3) 0.3512(3) 0.9008(3)
O2_2 O 1.1665(3) 0.5470(3) 0.8661(3)
O1A_2 O 0.9673(3) 0.6391(3) 0.8787(3)
C5A C 2.5163(5) -0.2297(4) 0.0377(4)
C6A C 2.4697(4) -0.3507(4) -0.0770(4)
Zn1A_2 Zn 0.86513(4) 0.55899(3) 1.00459(3)
Zn1_2 Zn 1.13487(4) 0.44101(3) 0.99541(3)
C1A C 2.6402(5) -0.2842(4) 0.0442(4)
H3A H 2.4916 -0.1702 0.0757
C2A C 2.5960(4) -0.4009(4) -0.0667(4)
H4A H 2.4121 -0.3768 -0.1195
H1A H 2.6992 -0.2609 0.0874
N1A_2 N 2.6810(3) -0.3685(3) -0.0075(3)
H2A H 2.6232 -0.4609 -0.1034
Zn1A_3 Zn 2.86513(4) -0.44101(3) 0.00459(3)
O7 O 0.3581(18) 0.3714(17) 0.5924(14)
N2 N 0.3041(18) 0.4194(14) 0.4076(12)
C25 C 0.4384(19) 0.445(2) 0.3655(17)
H17 H 0.4858 0.4632 0.4225
H18 H 0.4331 0.5058 0.3117
H19 H 0.4868 0.3848 0.3340
C26 C 0.197(2) 0.416(2) 0.3370(17)
H20 H 0.1094 0.4175 0.3790
H21 H 0.2123 0.3510 0.3022
H22 H 0.1995 0.4769 0.2837
C27 C 0.2714(17) 0.3825(16) 0.5188(12)
C28 C 0.148(2) 0.321(2) 0.5246(19)
H23 H 0.1313 0.2839 0.5951
H24 H 0.1622 0.2707 0.4720
H25 H 0.0700 0.3706 0.5104
O8 O 0.5046(14) -0.0482(11) 0.7643(10)
O9? O 0.4602(16) 0.0443(12) 0.8532(10)
N3? N 0.5491(7) -0.0937(6) 0.7401(5)
C29? C 0.5350(11) -0.1431(9) 0.6468(8)
C30? C 0.6748(13) -0.1183(14) 0.7901(13)
C31? C 0.4489(10) -0.0099(8) 0.7711(8)
C32? C 0.3290(13) 0.0045(13) 0.7098(12)
O10? O 0.5415(16) 0.0022(12) 0.8581(12)
O11? O 0.3785(16) 0.0279(11) 0.7563(12)
O12? O 0.401(2) 0.0862(16) 0.8158(16)
loop_
_geom_bond_atom_site_label_1
_geom_bond_atom_site_label_2
_geom_bond_site_symmetry_1
_geom_bond_site_symmetry_2
Zn1 N1 1_555 1_555
N1 C1 1_555 1_555
O1 Zn1 1_555 1_555
O2 Zn1 1_555 1_555
O3 Zn1 1_555 1_555
O4 Zn1 1_555 1_555
C1 H1 1_555 1_555
C2 N1 1_555 1_555
C3 O1 1_555 1_555
C4 O3 1_555 1_555
C5 C1 1_555 1_555
C6 C2 1_555 1_555
H2 C2 1_555 1_555
C7 C3 1_555 1_555
C8 C4 1_555 1_555
C9 C5 1_555 1_555
H3 C5 1_555 1_555
H4 C6 1_555 1_555
C10 C7 1_555 1_555
C11 C7 1_555 1_555
C12 C8 1_555 1_555
C13 C8 1_555 1_555
C14 C9 1_555 1_555
C15 C10 1_555 1_555
H5 C10 1_555 1_555
H6 C11 1_555 1_555
C16 C11 1_555 1_555
C17 C12 1_555 1_555
H7 C12 1_555 1_555
C18 C13 1_555 1_555
H8 C13 1_555 1_555
H9 C14 1_555 1_555
C19 C14 1_555 1_555
H10 C15 1_555 1_555
C20 C15 1_555 1_555
H11 C16 1_555 1_555
H12 C17 1_555 1_555
C21 C17 1_555 1_555
H13 C18 1_555 1_555
H14 C19 1_555 1_555
C22 C19 1_555 1_555
S1 C20 1_555 1_555
C23 C22 1_555 1_555
C24 C22 1_555 1_555
O5 S1 1_555 1_555
O6 S1 1_555 1_555
H15 C23 1_555 1_555
H16 C24 1_555 1_555
O7 C27 1_555 1_555
N2 C25 1_555 1_555
C25 H17 1_555 1_555
H18 C25 1_555 1_555
H19 C25 1_555 1_555
C26 N2 1_555 1_555
H20 C26 1_555 1_555
H21 C26 1_555 1_555
H22 C26 1_555 1_555
C27 N2 1_555 1_555
C28 C27 1_555 1_555
H23 C28 1_555 1_555
H24 C28 1_555 1_555
H25 C28 1_555 1_555
O2A C3 1_555 1_555
O1A Zn1A 1_555 1_555
O4A C4 1_555 1_555
Zn1A O2A 1_555 1_555
N1A Zn1A 1_555 1_555
O3A Zn1A 1_555 1_555
S1A C21 1_555 1_555
C21A S1 1_555 1_555
O6A S1A 1_555 1_555
C20A S1A 1_555 1_555
O5A S1A 1_555 1_555
C24A C23 1_555 1_555
C23A C24 1_555 1_555
C18A C21A 1_555 1_555
C17A C21A 1_555 1_555
C15A C20A 1_555 1_555
C16A C20A 1_555 1_555
C22A C24A 1_555 1_555
H16A C24A 1_555 1_555
H15A C23A 1_555 1_555
C13A C18A 1_555 1_555
H13A C18A 1_555 1_555
C12A C17A 1_555 1_555
H12A C17A 1_555 1_555
C10A C15A 1_555 1_555
H10A C15A 1_555 1_555
C11A C16A 1_555 1_555
H11A C16A 1_555 1_555
C19A C22A 1_555 1_555
C8A C13A 1_555 1_555
H8A C13A 1_555 1_555
H7A C12A 1_555 1_555
C7A C10A 1_555 1_555
H5A C10A 1_555 1_555
H6A C11A 1_555 1_555
C14A C19A 1_555 1_555
H14A C19A 1_555 1_555
C4A C8A 1_555 1_555
C3A C7A 1_555 1_555
C9A C14A 1_555 1_555
H9A C14A 1_555 1_555
O3A_2 C4A 1_555 1_555
O4_2 C4A 1_555 1_555
O2_2 C3A 1_555 1_555
O1A_2 C3A 1_555 1_555
C5A C9A 1_555 1_555
C6A C9A 1_555 1_555
Zn1A_2 O3A_2 1_555 1_555
Zn1_2 O4_2 1_555 1_555
C1A C5A 1_555 1_555
H3A C5A 1_555 1_555
C2A C6A 1_555 1_555
H4A C6A 1_555 1_555
H1A C1A 1_555 1_555
N1A_2 C1A 1_555 1_555
H2A C2A 1_555 1_555
Zn1A_3 N1A_2 1_555 1_555
C6 C9 1_555 1_555
C16 C20 1_555 1_555
C18 C21 1_555 1_555
O4A Zn1A 1_555 1_555
C23A C22A 1_555 1_555
C12A C8A 1_555 1_555
C11A C7A 1_555 1_555
O2_2 Zn1_2 1_555 1_555
O1A_2 Zn1A_2 1_555 1_555
C2A N1A_2 1_555 1_555

#END
