
#######################################################################
#
#                 Cambridge Crystallographic Data Centre
#                                CCDC 
#
#######################################################################
#
# If this CIF has been generated from an entry in the Cambridge 
# Structural Database, then it will include bibliographic, chemical, 
# crystal, experimental, refinement or atomic coordinate data resulting 
# from the CCDC's data processing and validation procedures.
#
#######################################################################

data_HOFSUS
_symmetry_cell_setting           orthorhombic
_symmetry_space_group_name_H-M   'P 21 21 21'
_symmetry_Int_Tables_number      19
_space_group_name_Hall           'P 2ac 2ab'
loop_
_symmetry_equiv_pos_site_id
_symmetry_equiv_pos_as_xyz
1 x,y,z
2 1/2-x,-y,1/2+z
3 -x,1/2+y,1/2-z
4 1/2+x,1/2-y,-z
_cell_length_a                   8.902(2)
_cell_length_b                   11.887(3)
_cell_length_c                   14.757(4)
_cell_angle_alpha                90
_cell_angle_beta                 90
_cell_angle_gamma                90
_cell_volume                     1561.56
loop_
_atom_site_label
_atom_site_type_symbol
_atom_site_fract_x
_atom_site_fract_y
_atom_site_fract_z
O1 O 0.7535(2) 0.26376(18) 0.30066(14)
C1 C 0.6849(4) 0.1835(2) 0.33402(18)
N1 N 0.6226(3) 0.5021(2) 0.77791(17)
C2 C 0.6041(4) 0.3905(3) 0.7899(2)
H1 H 0.6036 0.3622 0.8487
C3 C 0.6202(4) 0.5393(3) 0.6913(2)
H2 H 0.6321 0.6159 0.6811
C4 C 0.6227(4) 0.1966(2) 0.42687(19)
C5 C 0.6013(4) 0.4706(2) 0.6182(2)
H3 H 0.5981 0.5008 0.5601
Zn1 Zn 0.29642(4) 0.10087(3) 0.61256(2)
O2 O 0.3664(3) -0.01949(18) 0.51193(14)
N2 N 0.4995(3) 0.1798(2) 0.55729(15)
O3 O 0.4922(3) -0.03092(18) 0.38229(17)
H4 H 0.5242 0.0150 0.3456
C6 C 0.5869(3) 0.3547(3) 0.63084(18)
C7 C -0.0319(3) -0.0059(3) 0.6186(2)
C8 C 0.5770(3) 0.2763(2) 0.55345(19)
O4 O 0.6617(3) 0.0905(2) 0.29418(16)
C9 C 0.5272(3) 0.1290(2) 0.47693(19)
C10 C 0.4579(4) 0.0199(2) 0.45697(19)
C11 C 0.5859(4) 0.3161(3) 0.7186(2)
H5 H 0.5730 0.2397 0.7301
N3 N 0.6565(3) 0.2910(2) 0.47625(16)
N4 N -0.0961(4) -0.0982(3) 0.5862(2)
C12 C -0.1305(5) 0.0929(4) 0.6414(3)
H6 H -0.0747 0.1459 0.6772
H7 H -0.2162 0.0675 0.6752
H8 H -0.1635 0.1285 0.5865
C13 C -0.2577(6) -0.1142(6) 0.5795(5)
H9 H -0.2904 -0.1650 0.6260
H10 H -0.2819 -0.1450 0.5211
H11 H -0.3074 -0.0431 0.5868
C14 C -0.0039(7) -0.1961(4) 0.5695(5)
H12 H 0.0959 -0.1727 0.5535
H13 H -0.0462 -0.2391 0.5206
H14 H -0.0001 -0.2417 0.6231
O5 O 0.1038(3) -0.0017(2) 0.62998(19)
O1C O 0.2535(2) 0.23624(18) 0.69934(14)
N1B N 0.3774(3) 0.0021(2) 0.72209(17)
Zn1B Zn 0.70358(4) 0.60087(3) 0.88744(2)
Zn1C Zn 0.79642(4) 0.39913(3) 0.38744(2)
N3C N 0.1565(3) 0.2090(2) 0.52375(16)
loop_
_geom_bond_atom_site_label_1
_geom_bond_atom_site_label_2
_geom_bond_site_symmetry_1
_geom_bond_site_symmetry_2
O1 C1 1_555 1_555
C1 C4 1_555 1_555
N1 C2 1_555 1_555
C2 H1 1_555 1_555
C3 N1 1_555 1_555
H2 C3 1_555 1_555
C4 C9 1_555 1_555
C5 C3 1_555 1_555
H3 C5 1_555 1_555
Zn1 O2 1_555 1_555
O2 C10 1_555 1_555
N2 Zn1 1_555 1_555
O3 H4 1_555 1_555
C6 C5 1_555 1_555
C7 N4 1_555 1_555
C8 N2 1_555 1_555
O4 C1 1_555 1_555
C9 N2 1_555 1_555
C10 O3 1_555 1_555
C11 C2 1_555 1_555
H5 C11 1_555 1_555
N3 C4 1_555 1_555
N4 C13 1_555 1_555
C12 C7 1_555 1_555
H6 C12 1_555 1_555
H7 C12 1_555 1_555
H8 C12 1_555 1_555
C13 H9 1_555 1_555
H10 C13 1_555 1_555
H11 C13 1_555 1_555
C14 N4 1_555 1_555
H12 C14 1_555 1_555
H13 C14 1_555 1_555
H14 C14 1_555 1_555
O5 Zn1 1_555 1_555
O1C Zn1 1_555 1_555
N1B Zn1 1_555 1_555
Zn1B N1 1_555 1_555
Zn1C O1 1_555 1_555
N3C Zn1 1_555 1_555
C6 C8 1_555 1_555
C6 C11 1_555 1_555
C7 O5 1_555 1_555
C8 N3 1_555 1_555
C9 C10 1_555 1_555
N3 Zn1C 1_555 1_555

#END
