
#######################################################################
#
#                 Cambridge Crystallographic Data Centre
#                                CCDC 
#
#######################################################################
#
# If this CIF has been generated from an entry in the Cambridge 
# Structural Database, then it will include bibliographic, chemical, 
# crystal, experimental, refinement or atomic coordinate data resulting 
# from the CCDC's data processing and validation procedures.
#
#######################################################################

data_HOFSEB
_symmetry_cell_setting           monoclinic
_symmetry_space_group_name_H-M   'P 21/n'
_symmetry_Int_Tables_number      14
_space_group_name_Hall           '-P 2yn'
loop_
_symmetry_equiv_pos_site_id
_symmetry_equiv_pos_as_xyz
1 x,y,z
2 1/2-x,1/2+y,1/2-z
3 -x,-y,-z
4 1/2+x,1/2-y,1/2+z
_cell_length_a                   8.5763(5)
_cell_length_b                   13.4913(8)
_cell_length_c                   14.1944(8)
_cell_angle_alpha                90
_cell_angle_beta                 103.3700(10)
_cell_angle_gamma                90
_cell_volume                     1597.86
loop_
_atom_site_label
_atom_site_type_symbol
_atom_site_fract_x
_atom_site_fract_y
_atom_site_fract_z
Ag1 Ag -0.59040(2) -0.069860(15) 0.344400(17)
N1 N -0.0489(3) -0.45367(17) 0.23040(18)
N2 N -0.5150(3) -0.30638(17) 0.34552(17)
N3 N -0.6302(2) -0.24751(16) 0.37084(15)
N4 N -1.3197(4) -0.0490(2) 0.5608(2)
O1 O -0.3840(3) -0.17588(14) 0.30313(19)
C1 C -0.1288(3) -0.4837(2) 0.2958(2)
H1 H -0.1055 -0.5476 0.3235
C2 C -0.2427(3) -0.42739(18) 0.3253(2)
H2 H -0.2972 -0.4525 0.3714
C3 C -0.2762(3) -0.33390(18) 0.28681(18)
C4 C -0.1894(3) -0.3005(2) 0.2219(2)
H3 H -0.2057 -0.2353 0.1960
C5 C -0.0798(3) -0.3622(2) 0.1954(2)
H4 H -0.0230 -0.3386 0.1498
C6 C -0.3963(3) -0.26521(19) 0.31254(19)
C7 C -0.7366(3) -0.2944(2) 0.40270(19)
H5 H -0.7303 -0.3646 0.4076
C8 C -0.8680(3) -0.24285(19) 0.43187(18)
C9 C -0.9365(3) -0.2870(2) 0.5007(2)
H6 H -0.9015 -0.3508 0.5249
C10 C -1.0553(3) -0.2390(2) 0.5344(2)
H7 H -1.1003 -0.2689 0.5826
C11 C -1.1079(3) -0.1472(2) 0.4973(2)
C12 C -1.0461(3) -0.1041(2) 0.4242(2)
H8 H -1.0861 -0.0423 0.3967
C13 C -0.9263(3) -0.1523(2) 0.3925(2)
H9 H -0.8831 -0.1233 0.3431
C14 C -1.2286(4) -0.0943(2) 0.5326(2)
H10 H -0.523(4) -0.3691(14) 0.347(2)
Ag1A Ag 0.09040(2) -0.569860(15) 0.155600(17)
Ag1B Ag -1.40960(2) 0.069860(15) 0.655600(17)
N1A N -0.4511(3) 0.04633(17) 0.26960(18)
N4B N -0.6803(4) 0.0490(2) 0.4392(2)
Cl1 Cl 0.38179(9) -0.59561(5) 0.37770(5)
O2 O 0.3786(3) -0.51451(18) 0.31283(18)
O3 O 0.2896(4) -0.6735(2) 0.32594(19)
O4 O 0.3203(5) -0.5648(2) 0.4560(2)
O5 O 0.5457(4) -0.6266(3) 0.4074(3)
loop_
_geom_bond_atom_site_label_1
_geom_bond_atom_site_label_2
_geom_bond_site_symmetry_1
_geom_bond_site_symmetry_2
Ag1 N3 1_555 1_555
N1 C1 1_555 1_555
N2 N3 1_555 1_555
N3 C7 1_555 1_555
N4 C14 1_555 1_555
O1 Ag1 1_555 1_555
Cl1 O2 1_555 1_555
O3 Cl1 1_555 1_555
O4 Cl1 1_555 1_555
O5 Cl1 1_555 1_555
C1 H1 1_555 1_555
C2 C1 1_555 1_555
H2 C2 1_555 1_555
C3 C2 1_555 1_555
C4 C3 1_555 1_555
H3 C4 1_555 1_555
C5 N1 1_555 1_555
H4 C5 1_555 1_555
C6 N2 1_555 1_555
C7 H5 1_555 1_555
C8 C7 1_555 1_555
C9 C8 1_555 1_555
H6 C9 1_555 1_555
C10 C9 1_555 1_555
H7 C10 1_555 1_555
C11 C10 1_555 1_555
C12 C11 1_555 1_555
H8 C12 1_555 1_555
C13 C8 1_555 1_555
H9 C13 1_555 1_555
C14 C11 1_555 1_555
H10 N2 1_555 1_555
Ag1A N1 1_555 1_555
Ag1B N4 1_555 1_555
N1A Ag1 1_555 1_555
N4B Ag1 1_555 1_555
O1 C6 1_555 1_555
C3 C6 1_555 1_555
C4 C5 1_555 1_555
C12 C13 1_555 1_555

#END
