
#######################################################################
#
#                 Cambridge Crystallographic Data Centre
#                                CCDC 
#
#######################################################################
#
# If this CIF has been generated from an entry in the Cambridge 
# Structural Database, then it will include bibliographic, chemical, 
# crystal, experimental, refinement or atomic coordinate data resulting 
# from the CCDC's data processing and validation procedures.
#
#######################################################################

data_HOFZAD
_symmetry_cell_setting           monoclinic
_symmetry_space_group_name_H-M   'C 2/c'
_symmetry_Int_Tables_number      15
_space_group_name_Hall           '-C 2yn'
loop_
_symmetry_equiv_pos_site_id
_symmetry_equiv_pos_as_xyz
1 x,y,z
2 1/2+x,1/2+y,z
3 x,-y,1/2+z
4 1/2+x,1/2-y,1/2+z
5 -x,-y,-z
6 1/2-x,1/2-y,-z
7 -x,y,1/2-z
8 1/2-x,1/2+y,1/2-z
_cell_length_a                   27.578(6)
_cell_length_b                   7.917(2)
_cell_length_c                   14.678(3)
_cell_angle_alpha                90
_cell_angle_beta                 90.88(3)
_cell_angle_gamma                90
_cell_volume                     3204.34
loop_
_atom_site_label
_atom_site_type_symbol
_atom_site_fract_x
_atom_site_fract_y
_atom_site_fract_z
Au1 Au 0.2500 0.2500 -2.0000
Cl1 Cl 0.25133(5) 0.5373(2) -2.00186(10)
Cl2 Cl 0.32411(5) 0.2470(2) -1.93012(12)
Cl1E Cl 0.24867(5) -0.0373(2) -1.99814(10)
Cl2E Cl 0.17589(5) 0.2530(2) -2.06988(12)
Na1 Na 0.5000 0.3296(3) -0.2500
N1 N 0.38829(11) 0.4778(4) -0.5880(2)
C1 C 0.3614(2) 0.4861(6) -0.6746(3)
H1 H 0.3398(9) 0.5813(27) -0.6741(9)
H2 H 0.3837(2) 0.4982(44) -0.7237(3)
H3 H 0.3429(10) 0.3843(20) -0.6830(11)
C2 C 0.42307(13) 0.5992(4) -0.5734(3)
O1 O 0.43544(11) 0.6968(4) -0.6322(2)
N2 N 0.55625(11) 0.6017(4) -0.0138(2)
C3 C 0.5223(2) 0.7410(5) -0.0344(3)
H4 H 0.5398(3) 0.8335(18) -0.0606(23)
H5 H 0.4979(8) 0.7026(14) -0.0768(19)
H6 H 0.5073(10) 0.7775(30) 0.0208(5)
C4 C 0.43233(12) 0.4900(4) -0.4161(2)
O2 O 0.54829(10) 0.5077(3) -0.1589(2)
C5 C 0.39705(12) 0.3610(4) -0.4394(2)
C6 C 0.37636(12) 0.3628(5) -0.5232(2)
H7 H 0.64706(12) 0.2820(5) 0.0373(2)
N3 N 0.31700(11) 0.1201(4) -0.2840(2)
C7 C 0.26503(14) 0.1123(6) -0.2630(3)
H8 H 0.2519(3) 0.0066(20) -0.2839(22)
H9 H 0.2609(2) 0.1214(45) -0.1983(4)
H10 H 0.2483(3) 0.2035(27) -0.2930(20)
C8 C 0.34721(14) 0.0087(5) -0.2387(3)
O3 O 0.33214(11) -0.0897(4) -0.1824(2)
N4 N 0.39576(11) 0.0196(4) -0.2607(2)
C9 C 0.4297(2) -0.0886(5) -0.2092(3)
H11 H 0.4377(10) -0.1856(23) -0.2452(10)
H12 H 0.4586(5) -0.0262(15) -0.1949(21)
H13 H 0.4148(5) -0.1248(36) -0.1538(12)
C10 C 0.41491(13) 0.1283(4) -0.3249(2)
O4 O 0.45876(9) 0.1250(3) -0.3405(2)
C11 C 0.38063(12) 0.2399(5) -0.3698(2)
C12 C 0.33346(13) 0.2292(4) -0.3474(2)
H14 H 0.31130(13) 0.2999(4) -0.3768(2)
Na1B Na 0.5000 0.6704(3) -0.7500
O1B O 0.43544(11) 0.3032(4) -0.1322(2)
Na1B_2 Na 0.5000 0.6704(3) 0.2500
O1F O 0.56456(11) 0.6968(4) 0.1322(2)
C2F C 0.57693(13) 0.5992(4) 0.0734(3)
N1F N 0.61171(11) 0.4778(4) 0.0880(2)
C1F C 0.6386(2) 0.4861(6) 0.1746(3)
H1F H 0.6602(9) 0.5813(27) 0.1741(9)
H2F H 0.6163(2) 0.4982(44) 0.2237(3)
H3F H 0.6571(10) 0.3843(20) 0.1830(11)
C6F C 0.62364(12) 0.3628(5) 0.0232(2)
C5F C 0.60295(12) 0.3610(4) -0.0606(2)
C4F C 0.56767(12) 0.4900(4) -0.0839(2)
O1D O 0.56456(11) 0.3032(4) -0.3678(2)
O2F O 0.45171(10) 0.5077(3) -0.3411(2)
O4F O 0.54124(9) 0.1250(3) -0.1595(2)
C10F C 0.58509(13) 0.1283(4) -0.1751(2)
C11F C 0.61937(12) 0.2399(5) -0.1302(2)
H7F H 0.35294(12) 0.2820(5) -0.5373(2)
N2F N 0.44375(11) 0.6017(4) -0.4862(2)
C3F C 0.4777(2) 0.7410(5) -0.4656(3)
H4F H 0.4602(3) 0.8335(18) -0.4394(23)
H5F H 0.5021(8) 0.7026(14) -0.4232(19)
H6F H 0.4927(10) 0.7775(30) -0.5208(5)
C12F C 0.66654(13) 0.2292(4) -0.1526(2)
N3F N 0.68300(11) 0.1201(4) -0.2160(2)
C7F C 0.73497(14) 0.1123(6) -0.2370(3)
H8F H 0.7481(3) 0.0066(20) -0.2161(22)
H9F H 0.7391(2) 0.1214(45) -0.3017(4)
H10F H 0.7517(3) 0.2035(27) -0.2070(20)
C8F C 0.65279(14) 0.0087(5) -0.2613(3)
O3F O 0.66786(11) -0.0897(4) -0.3176(2)
N4F N 0.60424(11) 0.0196(4) -0.2393(2)
C9F C 0.5703(2) -0.0886(5) -0.2908(3)
H11F H 0.5623(10) -0.1856(23) -0.2548(10)
H12F H 0.5414(5) -0.0262(15) -0.3051(21)
H13F H 0.5852(5) -0.1248(36) -0.3462(12)
H14F H 0.68870(13) 0.2999(4) -0.1232(2)
loop_
_geom_bond_atom_site_label_1
_geom_bond_atom_site_label_2
_geom_bond_site_symmetry_1
_geom_bond_site_symmetry_2
Au1 Cl1 1_555 1_555
Cl2 Au1 1_555 1_555
Na1 O2 1_555 1_555
N1 C1 1_555 1_555
C1 H1 1_555 1_555
H2 C1 1_555 1_555
H3 C1 1_555 1_555
C2 N1 1_555 1_555
O1 C2 1_555 1_555
N2 C3 1_555 1_555
C3 H4 1_555 1_555
H5 C3 1_555 1_555
H6 C3 1_555 1_555
C4 C5 1_555 1_555
O2 C4F 1_555 1_555
C5 C6 1_555 1_555
C6 N1 1_555 1_555
H7 C6F 1_555 1_555
N3 C7 1_555 1_555
C7 H8 1_555 1_555
H9 C7 1_555 1_555
H10 C7 1_555 1_555
C8 N3 1_555 1_555
O3 C8 1_555 1_555
N4 C8 1_555 1_555
C9 N4 1_555 1_555
H11 C9 1_555 1_555
H12 C9 1_555 1_555
H13 C9 1_555 1_555
C10 N4 1_555 1_555
O4 Na1 1_555 1_555
C11 C5 1_555 1_555
C12 N3 1_555 1_555
H14 C12 1_555 1_555
Cl1E Au1 1_555 1_555
Cl2E Au1 1_555 1_555
Na1B O1 1_555 1_555
O1B Na1 1_555 1_555
Na1B_2 O1F 1_555 1_555
O1F C2F 1_555 1_555
C2F N2 1_555 1_555
N1F C2F 1_555 1_555
C1F N1F 1_555 1_555
H1F C1F 1_555 1_555
H2F C1F 1_555 1_555
H3F C1F 1_555 1_555
C6F N1F 1_555 1_555
C5F C6F 1_555 1_555
C4F N2 1_555 1_555
O1D Na1 1_555 1_555
O2F Na1 1_555 1_555
O4F Na1 1_555 1_555
C10F O4F 1_555 1_555
C11F C5F 1_555 1_555
H7F C6 1_555 1_555
N2F C2 1_555 1_555
C3F N2F 1_555 1_555
H4F C3F 1_555 1_555
H5F C3F 1_555 1_555
H6F C3F 1_555 1_555
C12F C11F 1_555 1_555
N3F C12F 1_555 1_555
C7F N3F 1_555 1_555
H8F C7F 1_555 1_555
H9F C7F 1_555 1_555
H10F C7F 1_555 1_555
C8F N3F 1_555 1_555
O3F C8F 1_555 1_555
N4F C10F 1_555 1_555
C9F N4F 1_555 1_555
H11F C9F 1_555 1_555
H12F C9F 1_555 1_555
H13F C9F 1_555 1_555
H14F C12F 1_555 1_555
C4 O2F 1_555 1_555
C4 N2F 1_555 1_555
C10 C11 1_555 1_555
C10 O4 1_555 1_555
C11 C12 1_555 1_555
C5F C4F 1_555 1_555
C10F C11F 1_555 1_555
C8F N4F 1_555 1_555

#END
