
#######################################################################
#
#                 Cambridge Crystallographic Data Centre
#                                CCDC 
#
#######################################################################
#
# If this CIF has been generated from an entry in the Cambridge 
# Structural Database, then it will include bibliographic, chemical, 
# crystal, experimental, refinement or atomic coordinate data resulting 
# from the CCDC's data processing and validation procedures.
#
#######################################################################

data_HOGBEL
_symmetry_cell_setting           orthorhombic
_symmetry_space_group_name_H-M   'I 21 21 21'
_symmetry_Int_Tables_number      24
_space_group_name_Hall           'I 2b 2c'
loop_
_symmetry_equiv_pos_site_id
_symmetry_equiv_pos_as_xyz
1 x,y,z
2 1/2-x,-y,1/2+z
3 -x,1/2+y,1/2-z
4 1/2+x,1/2-y,-z
5 1/2+x,1/2+y,1/2+z
6 -x,1/2-y,z
7 1/2-x,y,-z
8 x,-y,1/2-z
_cell_length_a                   6.7244(8)
_cell_length_b                   7.1883(9)
_cell_length_c                   18.571(2)
_cell_angle_alpha                90
_cell_angle_beta                 90
_cell_angle_gamma                90
_cell_volume                     897.667
loop_
_atom_site_label
_atom_site_type_symbol
_atom_site_fract_x
_atom_site_fract_y
_atom_site_fract_z
Cu1 Cu 0.2500 0.76978(8) 0.5000
Cl1 Cl 0.0076(4) 0.51479(18) 0.45480(6)
N1 N -0.0885(7) 0.7843(7) 0.8849(2)
N2 N 0.0000 0.7500 0.7795(2)
N3 N 0.1007(4) 0.7674(5) 0.59243(15)
N4 N 0.0000 0.7500 0.7029(2)
C1 C -0.1527(6) 0.8088(6) 0.81669(18)
H1 H -0.2737 0.8552 0.8004
C2 C 0.1592(6) 0.7770(6) 0.65901(18)
H2 H 0.2889 0.7988 0.6742
Cu1C Cu -0.2500 0.73022(8) 0.5000
Cu1C_2 Cu 0.7500 0.73022(8) 0.5000
Cl1C Cl 0.5076(4) 0.98521(18) 0.54520(6)
Cl1E Cl -0.0076(4) 0.98521(18) 0.45480(6)
Cl1F Cl 0.4924(4) 0.51479(18) 0.54520(6)
N1E N 0.0885(7) 0.7157(7) 0.8849(2)
N3E N -0.1007(4) 0.7326(5) 0.59243(15)
N3F N 0.3993(4) 0.7674(5) 0.40757(15)
C1E C 0.1527(6) 0.6912(6) 0.81669(18)
H1E H 0.2737 0.6448 0.8004
C2E C -0.1592(6) 0.7230(6) 0.65901(18)
H2E H -0.2889 0.7012 0.6742
O1 O -0.5161(8) 1.0000 0.7500
loop_
_geom_bond_atom_site_label_1
_geom_bond_atom_site_label_2
_geom_bond_site_symmetry_1
_geom_bond_site_symmetry_2
Cu1 Cl1 1_555 1_555
Cl1 Cu1C 1_555 1_555
N1 C1 1_555 1_555
N2 N4 1_555 1_555
N3 Cu1 1_555 1_555
N4 C2 1_555 1_555
C1 N2 1_555 1_555
H1 C1 1_555 1_555
C2 N3 1_555 1_555
H2 C2 1_555 1_555
Cu1C Cl1E 1_555 1_555
Cu1C_2 Cl1C 1_555 1_555
Cl1C Cu1 1_555 1_555
Cl1E Cu1 1_555 1_555
Cl1F Cu1 1_555 1_555
N1E N1 1_555 1_555
N3E N3 1_555 1_555
N3F Cu1 1_555 1_555
C1E N2 1_555 1_555
H1E C1E 1_555 1_555
C2E N4 1_555 1_555
H2E C2E 1_555 1_555
Cu1C N3E 1_555 1_555
Cu1C_2 Cl1F 1_555 1_555
N1E C1E 1_555 1_555
N3E C2E 1_555 1_555

#END
