
#######################################################################
#
#                 Cambridge Crystallographic Data Centre
#                                CCDC 
#
#######################################################################
#
# If this CIF has been generated from an entry in the Cambridge 
# Structural Database, then it will include bibliographic, chemical, 
# crystal, experimental, refinement or atomic coordinate data resulting 
# from the CCDC's data processing and validation procedures.
#
#######################################################################

data_HOGCUC
_symmetry_cell_setting           orthorhombic
_symmetry_space_group_name_H-M   'P b c a'
_symmetry_Int_Tables_number      61
_space_group_name_Hall           '-P 2ac 2ab'
loop_
_symmetry_equiv_pos_site_id
_symmetry_equiv_pos_as_xyz
1 x,y,z
2 1/2-x,-y,1/2+z
3 -x,1/2+y,1/2-z
4 1/2+x,1/2-y,-z
5 -x,-y,-z
6 1/2+x,y,1/2-z
7 x,1/2-y,1/2+z
8 1/2-x,1/2+y,z
_cell_length_a                   12.0925(16)
_cell_length_b                   11.8729(16)
_cell_length_c                   23.388(3)
_cell_angle_alpha                90
_cell_angle_beta                 90
_cell_angle_gamma                90
_cell_volume                     3357.89
loop_
_atom_site_label
_atom_site_type_symbol
_atom_site_fract_x
_atom_site_fract_y
_atom_site_fract_z
Mn1 Mn 0.79470(2) 0.05241(2) 0.381108(11)
C1 C 0.65573(16) 0.13395(15) 0.26977(8)
H1 H 0.6069 0.1666 0.2970
C2 C 0.63236(16) 0.14866(15) 0.21167(8)
H2 H 0.5691 0.1901 0.2000
C3 C 0.70203(16) 0.10241(16) 0.17183(8)
H3 H 0.6876 0.1117 0.1322
C4 C 0.79477(15) 0.04126(15) 0.19016(8)
C5 C 0.86950(16) -0.01261(17) 0.15127(8)
H4 H 0.8576 -0.0059 0.1113
C6 C 0.95645(16) -0.07275(17) 0.17056(8)
H5 H 1.0043 -0.1085 0.1440
C7 C 0.97763(15) -0.08352(15) 0.23064(8)
C8 C 1.06794(15) -0.14485(15) 0.25261(8)
H6 H 1.1176 -0.1818 0.2273
C9 C 1.08392(15) -0.15108(15) 0.31052(8)
H7 H 1.1442 -0.1925 0.3259
C10 C 1.00930(15) -0.09501(15) 0.34671(8)
H8 H 1.0215 -0.0985 0.3868
C11 C 0.90625(14) -0.03173(15) 0.27017(7)
C12 C 0.81214(15) 0.03065(14) 0.24957(8)
C13 C 0.66368(16) 0.44142(15) 0.49019(7)
C14 C 0.62818(15) 0.32395(14) 0.47274(7)
C15 C 0.78727(14) 0.29924(14) 0.40136(7)
C16 C 0.68585(14) 0.25842(14) 0.43347(7)
C17 C 0.56659(15) 0.10865(15) 0.44637(8)
H9 H 0.5455 0.0336 0.4375
C18 C 0.50264(16) 0.16959(16) 0.48463(9)
H10 H 0.4379 0.1375 0.5009
C19 C 0.53475(16) 0.27753(15) 0.49859(8)
H11 H 0.4935 0.3200 0.5256
N1 N 0.74249(13) 0.07682(12) 0.28890(6)
N2 N 0.92266(12) -0.03748(12) 0.32785(6)
N3 N 0.65674(12) 0.15150(12) 0.42153(6)
O1 O 0.80337(10) 0.40356(10) 0.39785(5)
O2 O 0.62745(11) 0.52191(10) 0.46001(5)
O3 O 0.72217(13) 0.44882(13) 0.53313(6)
O4 O 0.84923(10) 0.22610(10) 0.37972(5)
Mn1G Mn 0.70530(2) 0.55241(2) 0.381108(11)
O1G O 0.69663(10) -0.09644(10) 0.39785(5)
O2G O 0.87255(11) 0.02191(10) 0.46001(5)
O5 O 0.78498(15) 0.19117(17) 0.57433(8)
H12 H 0.768(4) 0.256(4) 0.5499(19)
H13 H 0.787(4) 0.124(4) 0.545(2)
loop_
_geom_bond_atom_site_label_1
_geom_bond_atom_site_label_2
_geom_bond_site_symmetry_1
_geom_bond_site_symmetry_2
Mn1 N1 1_555 1_555
C1 H1 1_555 1_555
C2 C1 1_555 1_555
H2 C2 1_555 1_555
C3 C2 1_555 1_555
H3 C3 1_555 1_555
C4 C3 1_555 1_555
C5 C4 1_555 1_555
H4 C5 1_555 1_555
C6 C5 1_555 1_555
H5 C6 1_555 1_555
C7 C6 1_555 1_555
C8 C7 1_555 1_555
H6 C8 1_555 1_555
C9 C8 1_555 1_555
H7 C9 1_555 1_555
C10 C9 1_555 1_555
H8 C10 1_555 1_555
C11 C7 1_555 1_555
C12 C4 1_555 1_555
C13 C14 1_555 1_555
C14 C16 1_555 1_555
C15 C16 1_555 1_555
C16 N3 1_555 1_555
C17 H9 1_555 1_555
C18 C17 1_555 1_555
H10 C18 1_555 1_555
C19 C14 1_555 1_555
H11 C19 1_555 1_555
N1 C1 1_555 1_555
N2 Mn1 1_555 1_555
N3 Mn1 1_555 1_555
O1 C15 1_555 1_555
O2 C13 1_555 1_555
O3 C13 1_555 1_555
O4 Mn1 1_555 1_555
O5 H12 1_555 1_555
H13 O5 1_555 1_555
Mn1G O1 1_555 1_555
O1G Mn1 1_555 1_555
O2G Mn1 1_555 1_555
C10 N2 1_555 1_555
C11 C12 1_555 1_555
C11 N2 1_555 1_555
C12 N1 1_555 1_555
C15 O4 1_555 1_555
C17 N3 1_555 1_555
C18 C19 1_555 1_555
O2 Mn1G 1_555 1_555

#END
