
#######################################################################
#
#                 Cambridge Crystallographic Data Centre
#                                CCDC 
#
#######################################################################
#
# If this CIF has been generated from an entry in the Cambridge 
# Structural Database, then it will include bibliographic, chemical, 
# crystal, experimental, refinement or atomic coordinate data resulting 
# from the CCDC's data processing and validation procedures.
#
#######################################################################

data_HOGCEM
_symmetry_cell_setting           monoclinic
_symmetry_space_group_name_H-M   'P 21/c'
_symmetry_Int_Tables_number      14
_space_group_name_Hall           '-P 2ybc'
loop_
_symmetry_equiv_pos_site_id
_symmetry_equiv_pos_as_xyz
1 x,y,z
2 -x,1/2+y,1/2-z
3 -x,-y,-z
4 x,1/2-y,1/2+z
_cell_length_a                   11.3311(2)
_cell_length_b                   12.3445(3)
_cell_length_c                   20.9588(6)
_cell_angle_alpha                90
_cell_angle_beta                 96.389(2)
_cell_angle_gamma                90
_cell_volume                     2913.44
loop_
_atom_site_label
_atom_site_type_symbol
_atom_site_fract_x
_atom_site_fract_y
_atom_site_fract_z
Ag1 Ag 0.29288(4) -1.14595(4) 0.08811(3)
Ag2 Ag 0.14418(5) -0.64877(4) 0.09053(3)
Ag3 Ag 0.57924(5) -1.19491(4) 0.25404(3)
C1 C 0.2476(6) -0.8919(5) 0.0794(3)
C2 C 0.4435(6) -0.9386(5) 0.0799(3)
C3 C 0.3859(5) -0.7574(5) 0.0784(3)
C4 C 0.4777(5) -0.8315(5) 0.0778(3)
H1 H 0.5562 -0.8107 0.0760
C5 C 0.5239(5) -0.6120(6) 0.0735(3)
H2 H 0.5254 -0.5342 0.0741
H3 H 0.5500 -0.6375 0.0342
H4 H 0.5758 -0.6394 0.1092
C6 C -0.0799(7) -1.1127(6) 0.1057(4)
H5 H -0.0793 -1.0367 0.1156
H6 H -0.1237 -1.1509 0.1353
H7 H -0.1168 -1.1238 0.0628
C7 C 0.0548(6) -1.2576(5) 0.0992(3)
C8 C -0.2039(6) -1.4977(6) 0.0683(4)
H8 H -0.2475 -1.5640 0.0606
H9 H -0.2284 -1.4468 0.0348
H10 H -0.2192 -1.4680 0.1089
C9 C -0.0367(6) -1.3312(5) 0.0878(3)
H11 H -0.1160 -1.3104 0.0857
C10 C -0.0040(6) -1.4362(5) 0.0795(3)
C11 C 0.1949(6) -1.3916(5) 0.0913(3)
C12 C 0.9294(5) -1.3507(6) 0.2675(4)
H12 H 0.9759 -1.2860 0.2755
H13 H 0.9393 -1.3779 0.2255
H14 H 0.9555 -1.4043 0.2991
C13 C 0.7283(5) -1.4055(5) 0.2614(3)
C14 C 0.5341(5) -1.4531(5) 0.2559(3)
C15 C 0.7980(5) -1.7283(6) 0.2210(4)
H15 H 0.7960 -1.8048 0.2126
H16 H 0.8502 -1.7140 0.2593
H17 H 0.8261 -1.6910 0.1854
C16 C 0.6672(6) -1.5844(5) 0.2417(3)
C17 C 0.7606(5) -1.5139(5) 0.2497(3)
H18 H 0.8388 -1.5353 0.2477
C18 C 0.6413(6) -1.0009(6) 0.0798(3)
H19 H 0.6843 -1.0678 0.0795
H20 H 0.6695 -0.9602 0.1175
H21 H 0.6532 -0.9596 0.0423
N1 N 0.1705(4) -1.2864(4) 0.0993(3)
N2 N 0.1367(5) -0.9205(4) 0.0779(3)
H22 H 0.0821 -0.8719 0.0761
H23 H 0.1181 -0.9880 0.0786
N3 N 0.3301(4) -0.9705(4) 0.0819(2)
N4 N 0.2721(4) -0.7858(4) 0.0782(2)
N5 N 0.1102(4) -1.4683(4) 0.0814(2)
N6 N 0.3058(5) -1.4190(4) 0.0906(3)
H24 H 0.3604 -1.3703 0.0951
H25 H 0.3245 -1.4857 0.0855
N7 N 0.6166(4) -1.3753(4) 0.2642(3)
N8 N 0.4205(5) -1.4208(5) 0.2584(3)
H26 H 0.4050 -1.3538 0.2650
H27 H 0.3637 -1.4674 0.2534
N9 N 0.5519(4) -1.5592(4) 0.2449(2)
N10 N 0.1515(5) -0.5554(4) 0.2288(3)
N12 N 0.5774(5) -1.2708(5) 0.1151(3)
O1 O 0.0405(4) -1.1527(3) 0.1111(2)
O2 O 0.5166(4) -1.0233(3) 0.0802(2)
O3 O 0.4038(4) -0.6495(3) 0.0782(2)
O4 O -0.0776(4) -1.5192(3) 0.0691(2)
O5 O 0.6798(4) -1.6910(3) 0.2293(2)
O6 O 0.8057(4) -1.3262(3) 0.2711(2)
O7 O 0.1644(5) -0.4918(4) 0.2753(2)
O8 O 0.0523(4) -0.5897(4) 0.2070(3)
O9 O 0.2433(4) -0.5810(4) 0.2022(2)
O13 O 0.4789(4) -1.2587(4) 0.1380(2)
O14 O 0.6687(4) -1.2352(4) 0.1455(2)
O15 O 0.5802(6) -1.3180(6) 0.0631(3)
Ag2_2 Ag 0.14418(5) -1.64877(4) 0.09053(3)
Ag3A Ag 0.42076(5) -1.69491(4) 0.24596(3)
Ag3A_2 Ag 0.42076(5) -0.69491(4) 0.24596(3)
N5_2 N 0.1102(4) -0.4683(4) 0.0814(2)
N9A N 0.4481(4) -1.0592(4) 0.2551(2)
O9A O 0.7567(4) -1.0810(4) 0.2978(2)
N11 N -0.1426(5) -0.8028(5) 0.0504(3)
O10 O -0.0627(4) -0.7649(4) 0.0895(2)
O11 O -0.1212(5) -0.8859(4) 0.0187(3)
O12 O -0.2434(4) -0.7630(4) 0.0432(3)
loop_
_geom_bond_atom_site_label_1
_geom_bond_atom_site_label_2
_geom_bond_site_symmetry_1
_geom_bond_site_symmetry_2
Ag1 N1 1_555 1_555
Ag2 N4 1_555 1_555
Ag3 N7 1_555 1_555
C1 N2 1_555 1_555
C2 C4 1_555 1_555
C3 C4 1_555 1_555
C4 H1 1_555 1_555
C5 H2 1_555 1_555
H3 C5 1_555 1_555
H4 C5 1_555 1_555
C6 H5 1_555 1_555
H6 C6 1_555 1_555
H7 C6 1_555 1_555
C7 C9 1_555 1_555
C8 H8 1_555 1_555
H9 C8 1_555 1_555
H10 C8 1_555 1_555
C9 H11 1_555 1_555
C10 C9 1_555 1_555
C11 N1 1_555 1_555
C12 H12 1_555 1_555
H13 C12 1_555 1_555
H14 C12 1_555 1_555
C13 C17 1_555 1_555
C14 N7 1_555 1_555
C15 H15 1_555 1_555
H16 C15 1_555 1_555
H17 C15 1_555 1_555
C16 C17 1_555 1_555
C17 H18 1_555 1_555
C18 H19 1_555 1_555
H20 C18 1_555 1_555
H21 C18 1_555 1_555
N1 C7 1_555 1_555
N2 H22 1_555 1_555
H23 N2 1_555 1_555
N3 Ag1 1_555 1_555
N4 C1 1_555 1_555
N5 C10 1_555 1_555
N6 C11 1_555 1_555
H24 N6 1_555 1_555
H25 N6 1_555 1_555
N7 C13 1_555 1_555
N8 C14 1_555 1_555
H26 N8 1_555 1_555
H27 N8 1_555 1_555
N9 C14 1_555 1_555
N10 O7 1_555 1_555
N11 O10 1_555 1_555
N12 O13 1_555 1_555
O1 C6 1_555 1_555
O2 C2 1_555 1_555
O3 C3 1_555 1_555
O4 C8 1_555 1_555
O5 C15 1_555 1_555
O6 C12 1_555 1_555
O8 N10 1_555 1_555
O9 Ag2 1_555 1_555
O11 N11 1_555 1_555
O12 N11 1_555 1_555
O13 Ag1 1_555 1_555
O14 Ag3 1_555 1_555
O15 N12 1_555 1_555
Ag2_2 N5 1_555 1_555
Ag3A N9 1_555 1_555
Ag3A_2 O9 1_555 1_555
N5_2 Ag2 1_555 1_555
N9A Ag3 1_555 1_555
O9A Ag3 1_555 1_555
C1 N3 1_555 1_555
C2 N3 1_555 1_555
C3 N4 1_555 1_555
C5 O3 1_555 1_555
C7 O1 1_555 1_555
C10 O4 1_555 1_555
C11 N5 1_555 1_555
C13 O6 1_555 1_555
C16 N9 1_555 1_555
C16 O5 1_555 1_555
C18 O2 1_555 1_555
N10 O9 1_555 1_555
N12 O14 1_555 1_555

#END
