
#######################################################################
#
#                 Cambridge Crystallographic Data Centre
#                                CCDC 
#
#######################################################################
#
# If this CIF has been generated from an entry in the Cambridge 
# Structural Database, then it will include bibliographic, chemical, 
# crystal, experimental, refinement or atomic coordinate data resulting 
# from the CCDC's data processing and validation procedures.
#
#######################################################################

data_HOGCOW
_symmetry_cell_setting           triclinic
_symmetry_space_group_name_H-M   'P -1'
_symmetry_Int_Tables_number      2
_space_group_name_Hall           '-P 1'
loop_
_symmetry_equiv_pos_site_id
_symmetry_equiv_pos_as_xyz
1 x,y,z
2 -x,-y,-z
_cell_length_a                   8.65850(10)
_cell_length_b                   9.4173(2)
_cell_length_c                   10.8453(3)
_cell_angle_alpha                102.214(2)
_cell_angle_beta                 95.596(2)
_cell_angle_gamma                115.8430(10)
_cell_volume                     759.556
loop_
_atom_site_label
_atom_site_type_symbol
_atom_site_fract_x
_atom_site_fract_y
_atom_site_fract_z
Cu1 Cu 0.18412(7) 0.15263(6) 0.86986(5)
Cu2 Cu 0.58357(6) -0.39545(6) 0.24124(4)
Cu3 Cu 0.26457(7) -0.17078(7) 0.50107(5)
Cu4 Cu 1.0000 -0.5000 0.5000
C1 C 0.5231(4) -0.4713(4) 0.0549(3)
C2 C 0.3548(5) -0.2754(5) 0.3909(4)
C3 C 0.2055(5) 0.0381(5) 0.7174(4)
C4 C 0.8530(5) -0.4484(5) 0.4087(3)
C5 C 0.3649(5) 0.1151(5) 1.1097(5)
H1 H 0.4185 0.0704 1.0548
C6 C 0.4096(6) 0.1370(6) 1.2392(5)
H2 H 0.4913 0.1075 1.2714
C7 C 0.3316(6) 0.2033(7) 1.3207(5)
H3 H 0.3608 0.2204 1.4093
C8 C 0.2106(5) 0.2442(5) 1.2708(4)
H4 H 0.1563 0.2890 1.3249
C9 C 0.1697(4) 0.2180(4) 1.1380(4)
C10 C 0.0404(4) 0.2577(4) 1.0746(3)
C11 C -0.0676(5) 0.3058(5) 1.1388(4)
H5 H -0.0587 0.3175 1.2269
C12 C -0.1875(5) 0.3361(5) 1.0719(4)
H6 H -0.2592 0.3698 1.1145
C13 C -0.2004(5) 0.3163(5) 0.9419(4)
H7 H -0.2824 0.3340 0.8943
C14 C -0.0892(5) 0.2696(5) 0.8833(4)
H8 H -0.0962 0.2586 0.7954
N1 N 0.4266(4) -0.3325(4) 0.3313(3)
N2 N 0.2145(5) -0.0454(4) 0.6283(3)
N3 N 0.7574(5) -0.4221(4) 0.3492(3)
N4 N 0.2476(4) 0.1550(4) 1.0578(3)
N5 N 0.0285(4) 0.2393(4) 0.9467(3)
C1A C 0.4769(4) -0.5287(4) -0.0549(3)
C4A C 1.1470(5) -0.5516(5) 0.5913(3)
loop_
_geom_bond_atom_site_label_1
_geom_bond_atom_site_label_2
_geom_bond_site_symmetry_1
_geom_bond_site_symmetry_2
Cu1 C3 1_555 1_555
Cu2 C1 1_555 1_555
Cu3 C2 1_555 1_555
Cu4 C4 1_555 1_555
C1 C1A 1_555 1_555
C2 N1 1_555 1_555
C3 N2 1_555 1_555
C4 N3 1_555 1_555
C5 H1 1_555 1_555
C6 C5 1_555 1_555
H2 C6 1_555 1_555
C7 C6 1_555 1_555
H3 C7 1_555 1_555
C8 C7 1_555 1_555
H4 C8 1_555 1_555
C9 C8 1_555 1_555
C10 C9 1_555 1_555
C11 C10 1_555 1_555
H5 C11 1_555 1_555
C12 C11 1_555 1_555
H6 C12 1_555 1_555
C13 C12 1_555 1_555
H7 C13 1_555 1_555
C14 C13 1_555 1_555
H8 C14 1_555 1_555
N1 Cu2 1_555 1_555
N2 Cu3 1_555 1_555
N3 Cu2 1_555 1_555
N4 Cu1 1_555 1_555
N5 Cu1 1_555 1_555
C4A Cu4 1_555 1_555
C5 N4 1_555 1_555
C9 N4 1_555 1_555
C10 N5 1_555 1_555
C14 N5 1_555 1_555

#END
