
#######################################################################
#
#                 Cambridge Crystallographic Data Centre
#                                CCDC 
#
#######################################################################
#
# If this CIF has been generated from an entry in the Cambridge 
# Structural Database, then it will include bibliographic, chemical, 
# crystal, experimental, refinement or atomic coordinate data resulting 
# from the CCDC's data processing and validation procedures.
#
#######################################################################

data_HOGJOD
_symmetry_cell_setting           monoclinic
_symmetry_space_group_name_H-M   'C 2/c'
_symmetry_Int_Tables_number      15
_space_group_name_Hall           '-C 2yn'
loop_
_symmetry_equiv_pos_site_id
_symmetry_equiv_pos_as_xyz
1 x,y,z
2 1/2+x,1/2+y,z
3 -x,y,1/2-z
4 1/2-x,1/2+y,1/2-z
5 -x,-y,-z
6 1/2-x,1/2-y,-z
7 x,-y,1/2+z
8 1/2+x,1/2-y,1/2+z
_cell_length_a                   17.481(3)
_cell_length_b                   24.505(3)
_cell_length_c                   21.049(3)
_cell_angle_alpha                90
_cell_angle_beta                 92.995(2)
_cell_angle_gamma                90
_cell_volume                     9004.48
loop_
_atom_site_label
_atom_site_type_symbol
_atom_site_fract_x
_atom_site_fract_y
_atom_site_fract_z
Cl1 Cl 0.7105(2) 0.50655(15) 0.4295(2)
Cl2 Cl 0.5990(3) 0.5392(3) 0.5154(2)
C38 C 0.6078(7) 0.5157(5) 0.4390(6)
H15 H 0.5873 0.5415 0.4091
H16 H 0.5817 0.4819 0.4332
Cl3 Cl 0.6269(6) 0.6390(4) 0.5830(5)
C39 C 0.6525(8) 0.6967(5) 0.6319(6)
C40 C 0.7247(19) 0.7068(13) 0.6556(16)
C41 C 0.7322(17) 0.7484(12) 0.6887(15)
C42 C 0.6851(17) 0.7789(12) 0.7160(14)
C43 C 0.6981(19) 0.8187(14) 0.7624(16)
C44 C 0.6085(10) 0.7809(7) 0.6750(9)
C45 C 0.600(2) 0.7318(19) 0.651(2)
Cl6 Cl 0.3992(5) 0.7646(3) 0.5597(5)
Cl7 Cl 0.4128(7) 0.8180(5) 0.6752(6)
C50 C 0.4593(8) 0.8232(6) 0.6121(7)
Ru1 Ru 0.96438(3) 0.53267(2) 0.47402(2)
Ru2 Ru 0.55706(3) 0.61762(2) 0.27879(2)
S1 S 0.56192(12) 0.75916(14) 0.44241(14)
F1 F 1.1726(5) 0.5693(5) 0.2093(4)
F3 F 1.1514(7) 0.7579(4) 0.6097(8)
F5 F 0.1913(2) 0.6077(2) 0.4683(2)
F6 F 0.6058(5) 0.3337(3) 0.3132(4)
F7 F 0.5899(9) 0.9033(4) 0.3050(6)
O1 O 1.0410(2) 0.53618(17) 0.4061(2)
O2 O 1.1121(2) 0.47204(18) 0.4566(2)
O3 O 1.0242(2) 0.59115(18) 0.5249(2)
O4 O 1.0936(2) 0.52644(18) 0.5765(2)
O5 O 0.3860(2) 0.61626(16) 0.3042(2)
O6 O 0.4980(2) 0.61912(17) 0.3606(2)
O7 O 0.5554(2) 0.53312(17) 0.27998(18)
O8 O 0.5568(2) 0.70162(18) 0.2772(2)
N1 N 0.8885(3) 0.5941(2) 0.4259(2)
N2 N 0.6687(3) 0.6201(2) 0.3382(2)
N3 N 0.6256(3) 0.7145(3) 0.4280(3)
N4 N 0.6100(3) 0.7993(3) 0.4910(3)
C1 C 1.0998(3) 0.5054(2) 0.4110(3)
C2 C 1.1563(3) 0.5091(2) 0.3612(3)
C3 C 1.1364(4) 0.5376(3) 0.3049(3)
C4 C 1.1899(4) 0.5414(3) 0.2589(3)
C5 C 1.2611(4) 0.5167(3) 0.2659(3)
C6 C 1.2782(4) 0.4873(3) 0.3211(3)
C7 C 1.2265(3) 0.4834(2) 0.3679(3)
C8 C 1.0760(3) 0.5758(2) 0.5657(3)
C9 C 1.1193(3) 0.6177(3) 0.6027(3)
C10 C 1.1138(4) 0.6705(3) 0.5863(5)
C11 C 1.1577(6) 0.7104(4) 0.6175(8)
C12 C 1.2066(5) 0.6954(6) 0.6706(6)
C13 C 1.2115(6) 0.6397(5) 0.6881(5)
C14 C 1.1659(5) 0.6023(4) 0.6549(4)
C15 C 0.4258(3) 0.6183(2) 0.3560(3)
C16 C 0.3841(3) 0.6199(2) 0.4171(3)
C17 C 0.3046(3) 0.6136(2) 0.4139(3)
C18 C 0.2688(4) 0.6155(3) 0.4692(4)
C19 C 0.3054(4) 0.6251(3) 0.5278(3)
C20 C 0.3856(4) 0.6315(3) 0.5300(3)
C21 C 0.4237(4) 0.6282(3) 0.4748(3)
C22 C 0.5000 0.5088(3) 0.2500
C23 C 0.5000 0.4476(3) 0.2500
C24 C 0.5587(3) 0.4200(2) 0.2827(3)
C25 C 0.5587(5) 0.3630(3) 0.2818(3)
C26 C 0.500000(10) 0.3334(4) 0.250000(10)
C27 C 0.5000 0.7247(3) 0.2500
C28 C 0.5000 0.7869(4) 0.2500
C29 C 0.5560(5) 0.8154(3) 0.2832(5)
C30 C 0.5566(8) 0.8720(4) 0.2849(8)
C31 C 0.500000(10) 0.9005(7) 0.250000(10)
C32 C 0.8361(3) 0.6218(2) 0.4251(2)
C33 C 0.7683(3) 0.6534(2) 0.4222(3)
C34 C 0.7114(3) 0.6350(2) 0.3768(3)
C35 C 0.7596(3) 0.6997(2) 0.4607(2)
C36 C 0.6894(3) 0.7292(2) 0.4607(3)
C37 C 0.6800(3) 0.7775(2) 0.4981(3)
H1 H 1.0873 0.5538 0.2985
H2 H 1.2971 0.5197 0.2338
H3 H 1.2392 0.4628 0.4052
H4 H 1.0788 0.6809 0.5524
H5 H 1.2355 0.7223 0.6939
H6 H 1.1665 0.5652 0.6681
H7 H 0.2769 0.6082 0.3744
H8 H 0.2776 0.6274 0.5653
H9 H 0.4130 0.6380 0.5694
H10 H 0.4779 0.6317 0.4762
H11 H 0.5984 0.4395 0.3054
H12 H 0.5000 0.2947 0.2500
H13 H 0.5957 0.7960 0.3059
H14 H 0.5000 0.9392 0.2500
Ru1D Ru 1.03562(3) 0.46733(2) 0.52598(2)
Ru1E Ru 0.53562(3) 0.96733(2) 0.52598(2)
Ru2E Ru 0.94294(3) 0.88238(2) 0.72121(2)
Ru2B Ru 0.44294(3) 0.61762(2) 0.22121(2)
Ru2G Ru 1.05706(3) 0.88238(2) 0.77879(2)
S1E S 0.93808(12) 0.74084(14) 0.55759(14)
F1D F 0.8274(5) 0.4307(5) 0.7907(4)
F3D F 0.8486(7) 0.2421(4) 0.3903(8)
F5B F 0.8087(2) 0.6077(2) 0.0317(2)
F6B F 0.3942(5) 0.3337(3) 0.1868(4)
F7B F 0.4101(9) 0.9033(4) 0.1950(6)
O1D O 0.9590(2) 0.46382(17) 0.5939(2)
O2D O 0.8879(2) 0.52796(18) 0.5434(2)
O3D O 0.9758(2) 0.40885(18) 0.4751(2)
O4D O 0.9064(2) 0.47356(18) 0.4235(2)
O5B O 0.6140(2) 0.61626(16) 0.1958(2)
O5G O 0.8860(2) 0.88374(16) 0.8042(2)
O6B O 0.5020(2) 0.61912(17) 0.1394(2)
O6E O 1.0020(2) 0.88088(17) 0.6394(2)
O7B O 0.4446(2) 0.53312(17) 0.22002(18)
O7E O 0.9446(2) 0.96688(17) 0.72002(18)
O8B O 0.4432(2) 0.70162(18) 0.2228(2)
O8E O 0.9432(2) 0.79838(18) 0.7228(2)
N1E N 0.6115(3) 0.9059(2) 0.5741(2)
N1D N 1.1115(3) 0.4059(2) 0.5741(2)
N2E N 0.8313(3) 0.8799(2) 0.6618(2)
N3E N 0.8744(3) 0.7855(3) 0.5720(3)
N4E N 0.8900(3) 0.7007(3) 0.5090(3)
C1D C 0.9002(3) 0.4946(2) 0.5890(3)
C2D C 0.8437(3) 0.4909(2) 0.6388(3)
C3D C 0.8636(4) 0.4624(3) 0.6951(3)
C4D C 0.8101(4) 0.4586(3) 0.7411(3)
C5D C 0.7389(4) 0.4833(3) 0.7341(3)
C6D C 0.7218(4) 0.5127(3) 0.6789(3)
C7D C 0.7735(3) 0.5166(2) 0.6321(3)
C8D C 0.9240(3) 0.4242(2) 0.4343(3)
C9D C 0.8807(3) 0.3823(3) 0.3973(3)
C10D C 0.8862(4) 0.3295(3) 0.4137(5)
C11D C 0.8423(6) 0.2896(4) 0.3825(8)
C12D C 0.7934(5) 0.3046(6) 0.3294(6)
C13D C 0.7885(6) 0.3603(5) 0.3119(5)
C14D C 0.8341(5) 0.3977(4) 0.3451(4)
C15B C 0.5742(3) 0.6183(2) 0.1440(3)
C16B C 0.6159(3) 0.6199(2) 0.0829(3)
C17B C 0.6954(3) 0.6136(2) 0.0861(3)
C18B C 0.7312(4) 0.6155(3) 0.0308(4)
C19B C 0.6946(4) 0.6251(3) -0.0278(3)
C20B C 0.6144(4) 0.6315(3) -0.0300(3)
C21B C 0.5763(4) 0.6282(3) 0.0252(3)
C24B C 0.4413(3) 0.4200(2) 0.2173(3)
C25B C 0.4413(5) 0.3630(3) 0.2182(3)
C29B C 0.4440(5) 0.8154(3) 0.2168(5)
C30B C 0.4434(8) 0.8720(4) 0.2151(8)
C32E C 0.6639(3) 0.8782(2) 0.5749(2)
C33E C 0.7317(3) 0.8466(2) 0.5778(3)
C34E C 0.7886(3) 0.8650(2) 0.6232(3)
C35E C 0.7404(3) 0.8003(2) 0.5393(2)
C36E C 0.8106(3) 0.7708(2) 0.5393(3)
C37E C 0.8200(3) 0.7225(2) 0.5019(3)
H1D H 0.9127 0.4462 0.7015
H2D H 0.7029 0.4803 0.7662
H3D H 0.7608 0.5372 0.5948
H4D H 0.9212 0.3191 0.4476
H5D H 0.7645 0.2777 0.3061
H6D H 0.8335 0.4348 0.3319
H7B H 0.7231 0.6082 0.1256
H8B H 0.7224 0.6274 -0.0653
H9B H 0.5870 0.6380 -0.0694
H10B H 0.5221 0.6317 0.0238
H11B H 0.4016 0.4395 0.1946
H13B H 0.4043 0.7960 0.1941
Cl4? Cl 0.7325(3) 0.6596(2) 0.6272(2)
Cl5? Cl 0.5775(2) 0.6911(2) 0.5956(2)
Cl8? Cl 0.3904(12) 0.7740(9) 0.5992(11)
Cl9? Cl 0.4950(7) 0.8288(5) 0.6830(6)
F2? F 1.3451(5) 0.4673(4) 0.3274(4)
F4? F 1.2492(8) 0.6358(6) 0.7329(5)
C46? C 0.6629(10) 0.7481(7) 0.6714(8)
C47? C 0.5369(14) 0.7792(10) 0.6312(12)
C48? C 0.5249(14) 0.7323(10) 0.5944(12)
C49? C 0.5775(2) 0.6911(2) 0.5956(2)
loop_
_geom_bond_atom_site_label_1
_geom_bond_atom_site_label_2
_geom_bond_site_symmetry_1
_geom_bond_site_symmetry_2
Ru1 O1 1_555 1_555
Ru2 O6 1_555 1_555
Cl1 C38 1_555 1_555
Cl2 C38 1_555 1_555
Cl3 C39 1_555 1_555
Cl6 C50 1_555 1_555
Cl7 C50 1_555 1_555
S1 N3 1_555 1_555
F1 C4 1_555 1_555
F3 C11 1_555 1_555
F5 C18 1_555 1_555
F6 C25 1_555 1_555
F7 C30 1_555 1_555
O1 C1 1_555 1_555
O2 C1 1_555 1_555
O3 Ru1 1_555 1_555
O4 C8 1_555 1_555
O5 C15 1_555 1_555
O6 C15 1_555 1_555
O7 Ru2 1_555 1_555
O8 Ru2 1_555 1_555
N1 Ru1 1_555 1_555
N2 Ru2 1_555 1_555
N3 C36 1_555 1_555
N4 S1 1_555 1_555
C1 C2 1_555 1_555
C2 C3 1_555 1_555
C3 C4 1_555 1_555
C4 C5 1_555 1_555
C5 C6 1_555 1_555
C6 C7 1_555 1_555
C7 C2 1_555 1_555
C8 O3 1_555 1_555
C9 C8 1_555 1_555
C10 C9 1_555 1_555
C11 C10 1_555 1_555
C12 C11 1_555 1_555
C13 C12 1_555 1_555
C14 C9 1_555 1_555
C15 C16 1_555 1_555
C16 C17 1_555 1_555
C17 C18 1_555 1_555
C18 C19 1_555 1_555
C19 C20 1_555 1_555
C20 C21 1_555 1_555
C21 C16 1_555 1_555
C22 O7 1_555 1_555
C23 C22 1_555 1_555
C24 C23 1_555 1_555
C25 C24 1_555 1_555
C26 C25 1_555 1_555
C27 O8 1_555 1_555
C28 C27 1_555 1_555
C29 C28 1_555 1_555
C30 C29 1_555 1_555
C31 C30 1_555 1_555
C32 N1 1_555 1_555
C33 C32 1_555 1_555
C34 N2 1_555 1_555
C35 C33 1_555 1_555
C36 C35 1_555 1_555
C37 N4 1_555 1_555
C38 H15 1_555 1_555
C39 C40 1_555 1_555
C40 C41 1_555 1_555
C41 C42 1_555 1_555
C42 C43 1_555 1_555
C44 C42 1_555 1_555
C45 C39 1_555 1_555
H1 C3 1_555 1_555
H2 C5 1_555 1_555
H3 C7 1_555 1_555
H4 C10 1_555 1_555
H5 C12 1_555 1_555
H6 C14 1_555 1_555
H7 C17 1_555 1_555
H8 C19 1_555 1_555
H9 C20 1_555 1_555
H10 C21 1_555 1_555
H11 C24 1_555 1_555
H12 C26 1_555 1_555
H13 C29 1_555 1_555
H14 C31 1_555 1_555
H16 C38 1_555 1_555
Ru1D Ru1 1_555 1_555
Ru1E N1E 1_555 1_555
Ru2E Ru2G 1_555 1_555
Ru2B Ru2 1_555 1_555
S1E N3E 1_555 1_555
F1D C4D 1_555 1_555
F3D C11D 1_555 1_555
F5B C18B 1_555 1_555
F6B C25B 1_555 1_555
F7B C30B 1_555 1_555
O1D Ru1D 1_555 1_555
O2D Ru1 1_555 1_555
O3D Ru1D 1_555 1_555
O4D Ru1 1_555 1_555
O5B Ru2 1_555 1_555
O5G Ru2E 1_555 1_555
O6B Ru2B 1_555 1_555
O6E Ru2E 1_555 1_555
O7B C22 1_555 1_555
O7E Ru2E 1_555 1_555
O8B C27 1_555 1_555
O8E Ru2E 1_555 1_555
N1E C32E 1_555 1_555
N1D Ru1D 1_555 1_555
N2E Ru2E 1_555 1_555
N3E C36E 1_555 1_555
N4E S1E 1_555 1_555
C1D O1D 1_555 1_555
C2D C1D 1_555 1_555
C3D C2D 1_555 1_555
C4D C3D 1_555 1_555
C5D C4D 1_555 1_555
C6D C5D 1_555 1_555
C7D C2D 1_555 1_555
C8D O3D 1_555 1_555
C9D C8D 1_555 1_555
C10D C9D 1_555 1_555
C11D C10D 1_555 1_555
C12D C11D 1_555 1_555
C13D C12D 1_555 1_555
C14D C9D 1_555 1_555
C15B O5B 1_555 1_555
C16B C15B 1_555 1_555
C17B C16B 1_555 1_555
C18B C17B 1_555 1_555
C19B C18B 1_555 1_555
C20B C19B 1_555 1_555
C21B C16B 1_555 1_555
C24B C23 1_555 1_555
C25B C26 1_555 1_555
C29B C28 1_555 1_555
C30B C31 1_555 1_555
C32E C33E 1_555 1_555
C33E C34E 1_555 1_555
C34E N2E 1_555 1_555
C35E C37 1_555 1_555
C36E C35E 1_555 1_555
C37E C35 1_555 1_555
H1D C3D 1_555 1_555
H2D C5D 1_555 1_555
H3D C7D 1_555 1_555
H4D C10D 1_555 1_555
H5D C12D 1_555 1_555
H6D C14D 1_555 1_555
H7B C17B 1_555 1_555
H8B C19B 1_555 1_555
H9B C20B 1_555 1_555
H10B C21B 1_555 1_555
H11B C24B 1_555 1_555
H13B C29B 1_555 1_555
O2 Ru1D 1_555 1_555
O4 Ru1D 1_555 1_555
O5 Ru2B 1_555 1_555
C13 C14 1_555 1_555
C33 C34 1_555 1_555
C36 C37 1_555 1_555
C44 C45 1_555 1_555
Ru2B O7B 1_555 1_555
Ru2B O8B 1_555 1_555
O2D C1D 1_555 1_555
O4D C8D 1_555 1_555
O6B C15B 1_555 1_555
N4E C37E 1_555 1_555
C6D C7D 1_555 1_555
C13D C14D 1_555 1_555
C20B C21B 1_555 1_555
C24B C25B 1_555 1_555
C29B C30B 1_555 1_555
C33E C35E 1_555 1_555
C36E C37E 1_555 1_555

#END
