
#######################################################################
#
#                 Cambridge Crystallographic Data Centre
#                                CCDC 
#
#######################################################################
#
# If this CIF has been generated from an entry in the Cambridge 
# Structural Database, then it will include bibliographic, chemical, 
# crystal, experimental, refinement or atomic coordinate data resulting 
# from the CCDC's data processing and validation procedures.
#
#######################################################################

data_HOGJIY
_symmetry_cell_setting           triclinic
_symmetry_space_group_name_H-M   'P -1'
_symmetry_Int_Tables_number      2
_space_group_name_Hall           '-P 1'
loop_
_symmetry_equiv_pos_site_id
_symmetry_equiv_pos_as_xyz
1 x,y,z
2 -x,-y,-z
_cell_length_a                   11.0972(4)
_cell_length_b                   13.3970(5)
_cell_length_c                   13.9852(7)
_cell_angle_alpha                104.717(4)
_cell_angle_beta                 113.242(3)
_cell_angle_gamma                94.594(3)
_cell_volume                     1809.31
loop_
_atom_site_label
_atom_site_type_symbol
_atom_site_fract_x
_atom_site_fract_y
_atom_site_fract_z
W1 W 0.10511(3) 0.06928(2) -0.14609(2)
W2 W -0.05250(3) 0.19891(2) 0.11157(2)
W3 W 0.24254(3) 0.17585(2) 0.11993(2)
W4 W 0.05577(3) 0.30050(2) -0.03840(2)
W5 W -0.19028(3) 0.09286(2) -0.15489(2)
Ag1 Ag 0.04802(8) 0.50560(6) 0.20158(6)
O1 O -0.3421(5) 0.0774(5) -0.2598(4)
O2 O -0.0111(5) 0.3249(4) 0.0707(4)
O3 O -0.0843(5) 0.0468(4) -0.2296(4)
O4 O 0.0782(6) 0.4213(4) -0.0566(5)
O5 O 0.0261(4) 0.1393(3) -0.0158(3)
O6 O -0.2125(5) 0.1544(4) -0.0240(4)
O7 O 0.4013(5) 0.2214(4) 0.2192(4)
O8 O 0.2639(5) 0.1124(4) -0.0107(4)
O9 O 0.1139(5) 0.2145(4) -0.1385(4)
O10 O 0.1375(5) 0.2208(4) 0.1969(4)
O11 O 0.0741(5) -0.0651(4) -0.1238(4)
O12 O 0.2245(5) 0.3005(4) 0.0750(4)
N1 N -0.0798(9) 0.5170(7) 0.2869(8)
N2 N 0.2450(9) 0.5563(7) 0.2096(7)
C1 C -0.2041(10) 0.5024(7) 0.4041(7)
C2 C -0.1367(11) 0.5107(8) 0.3361(9)
C3 C 0.3892(8) 0.5996(6) 0.1142(7)
C4 C 0.3110(9) 0.5758(7) 0.1681(7)
C5 C 0.3274(9) 0.6222(7) 0.0171(8)
H1 H 0.2360 0.6214 -0.0121
C6 C -0.1590(11) 0.5729(9) 0.5086(8)
H2 H -0.0840 0.6263 0.5357
C7 C 0.4009(11) 0.6457(7) -0.0360(9)
H3 H 0.3591 0.6613 -0.1010
C8 C -0.3304(11) 0.4839(8) 0.5337(8)
H4 H -0.3716 0.4758 0.5785
C9 C 0.5366(11) 0.6464(8) 0.0061(11)
H5 H 0.5852 0.6607 -0.0316
C10 C 0.6000(10) 0.6261(9) 0.1035(12)
H6 H 0.6918 0.6284 0.1325
C11 C -0.2247(11) 0.5641(9) 0.5722(8)
H7 H -0.1968 0.6130 0.6412
C12 C -0.3142(12) 0.4224(8) 0.3656(8)
H8 H -0.3449 0.3741 0.2960
C13 C 0.5276(9) 0.6022(7) 0.1582(9)
H9 H 0.5702 0.5879 0.2239
O13 O -0.2089(5) -0.0392(4) -0.1321(4)
O14 O -0.1037(5) 0.2650(4) 0.2057(4)
O15 O 0.1591(5) 0.0302(4) -0.2447(4)
O16 O -0.1228(5) 0.2360(4) -0.1447(4)
C14 C -0.3783(12) 0.4143(10) 0.4305(9)
H10 H -0.4538 0.3617 0.4043
C15 C -0.8404(12) 0.1122(9) -0.5355(8)
H11 H -0.9304 0.0837 -0.5818
C16 C -0.6526(9) 0.1455(6) -0.3633(6)
C17 C -0.5725(10) 0.1951(8) -0.3984(8)
H12 H -0.4820 0.2222 -0.3529
C18 C -0.7630(12) 0.1604(8) -0.5707(7)
H13 H -0.8000 0.1645 -0.6416
C19 C -0.7870(9) 0.1048(8) -0.4313(7)
H14 H -0.8411 0.0725 -0.4066
C20 C -0.5946(8) 0.1342(7) -0.2561(6)
N3 N -0.5489(7) 0.1201(6) -0.1739(5)
Ag2 Ag -0.45778(10) 0.11569(7) -0.01358(6)
C21 C -0.6290(12) 0.2040(9) -0.5030(9)
H15 H -0.5771 0.2390 -0.5275
N4 N -0.3869(7) 0.1169(6) 0.1489(6)
C22 C -0.2878(8) 0.1497(6) 0.3571(6)
C23 C -0.3453(8) 0.1305(6) 0.2407(6)
C24 C -0.3673(10) 0.1178(8) 0.4043(8)
H16 H -0.4571 0.0858 0.3619
C25 C -0.1567(10) 0.1985(9) 0.4182(7)
H17 H -0.1052 0.2185 0.3849
C26 C -0.1009(12) 0.2179(9) 0.5307(8)
H18 H -0.0127 0.2540 0.5736
C27 C -0.3083(13) 0.1350(10) 0.5163(9)
H19 H -0.3587 0.1135 0.5498
C28 C -0.1753(13) 0.1841(9) 0.5785(7)
H20 H -0.1362 0.1941 0.6535
W2A W 0.05250(3) -0.19891(2) -0.11157(2)
W3A W -0.24254(3) -0.17585(2) -0.11993(2)
Ag1A Ag -0.04802(8) 0.49440(6) -0.20158(6)
O4A O -0.0782(6) 0.5787(4) 0.0566(5)
O11A O -0.0741(5) 0.0651(4) 0.1238(4)
O13A O 0.2089(5) 0.0392(4) 0.1321(4)
loop_
_geom_bond_atom_site_label_1
_geom_bond_atom_site_label_2
_geom_bond_site_symmetry_1
_geom_bond_site_symmetry_2
W1 O3 1_555 1_555
W2 O2 1_555 1_555
W3 O5 1_555 1_555
W4 O2 1_555 1_555
W5 O1 1_555 1_555
Ag1 O2 1_555 1_555
O3 W5 1_555 1_555
O4 W4 1_555 1_555
O5 W1 1_555 1_555
O6 W2 1_555 1_555
O7 W3 1_555 1_555
O8 W1 1_555 1_555
O9 W1 1_555 1_555
O10 W2 1_555 1_555
O11 W1 1_555 1_555
O12 W3 1_555 1_555
N1 Ag1 1_555 1_555
N2 Ag1 1_555 1_555
C1 C2 1_555 1_555
C2 N1 1_555 1_555
C3 C4 1_555 1_555
C4 N2 1_555 1_555
C5 C3 1_555 1_555
H1 C5 1_555 1_555
C6 C1 1_555 1_555
H2 C6 1_555 1_555
C7 C5 1_555 1_555
H3 C7 1_555 1_555
C8 H4 1_555 1_555
C9 C7 1_555 1_555
H5 C9 1_555 1_555
C10 C9 1_555 1_555
H6 C10 1_555 1_555
C11 C6 1_555 1_555
H7 C11 1_555 1_555
C12 C1 1_555 1_555
H8 C12 1_555 1_555
C13 C3 1_555 1_555
H9 C13 1_555 1_555
O13 W5 1_555 1_555
O14 W2 1_555 1_555
O15 W1 1_555 1_555
O16 W4 1_555 1_555
C14 C8 1_555 1_555
H10 C14 1_555 1_555
C15 H11 1_555 1_555
C16 C17 1_555 1_555
C17 H12 1_555 1_555
C18 C15 1_555 1_555
H13 C18 1_555 1_555
C19 C15 1_555 1_555
H14 C19 1_555 1_555
C20 C16 1_555 1_555
N3 C20 1_555 1_555
Ag2 O6 1_555 1_555
C21 C17 1_555 1_555
H15 C21 1_555 1_555
N4 Ag2 1_555 1_555
C22 C23 1_555 1_555
C23 N4 1_555 1_555
C24 C22 1_555 1_555
H16 C24 1_555 1_555
C25 C22 1_555 1_555
H17 C25 1_555 1_555
C26 C25 1_555 1_555
H18 C26 1_555 1_555
C27 C24 1_555 1_555
H19 C27 1_555 1_555
C28 C26 1_555 1_555
H20 C28 1_555 1_555
W2A O11 1_555 1_555
W3A O13 1_555 1_555
Ag1A O4 1_555 1_555
O4A Ag1 1_555 1_555
O11A W2 1_555 1_555
O13A W3 1_555 1_555
W2 O5 1_555 1_555
W3 O8 1_555 1_555
W3 O10 1_555 1_555
W4 O5 1_555 1_555
W4 O9 1_555 1_555
W4 O12 1_555 1_555
W5 O5 1_555 1_555
W5 O6 1_555 1_555
W5 O16 1_555 1_555
C8 C11 1_555 1_555
C10 C13 1_555 1_555
C12 C14 1_555 1_555
C16 C19 1_555 1_555
C18 C21 1_555 1_555
N3 Ag2 1_555 1_555
C27 C28 1_555 1_555

#END
