
#######################################################################
#
#                 Cambridge Crystallographic Data Centre
#                                CCDC 
#
#######################################################################
#
# If this CIF has been generated from an entry in the Cambridge 
# Structural Database, then it will include bibliographic, chemical, 
# crystal, experimental, refinement or atomic coordinate data resulting 
# from the CCDC's data processing and validation procedures.
#
#######################################################################

data_HOGLEV01
_symmetry_cell_setting           hexagonal
_symmetry_space_group_name_H-M   'P 63/m m c'
_symmetry_Int_Tables_number      194
_space_group_name_Hall           "-P 6c 2'c"
loop_
_symmetry_equiv_pos_site_id
_symmetry_equiv_pos_as_xyz
1 x,y,z
2 x-y,x,1/2+z
3 -y,x-y,z
4 -x+y,-x,z
5 y,-x+y,1/2+z
6 x,x-y,1/2-z
7 y,x,-z
8 -x+y,y,1/2-z
9 -x,-y,1/2+z
10 -y,-x,1/2-z
11 x-y,-y,-z
12 -x,-x+y,-z
13 -x,-y,-z
14 -x+y,-x,1/2-z
15 y,-x+y,-z
16 x-y,x,-z
17 -y,x-y,1/2-z
18 -x,-x+y,1/2+z
19 -y,-x,z
20 x-y,-y,1/2+z
21 x,y,1/2-z
22 y,x,1/2+z
23 -x+y,y,z
24 x,x-y,z
_cell_length_a                   18.07(2)
_cell_length_b                   18.07(2)
_cell_length_c                   19.34(2)
_cell_angle_alpha                90
_cell_angle_beta                 90
_cell_angle_gamma                120
_cell_volume                     5468.94
loop_
_atom_site_label
_atom_site_type_symbol
_atom_site_fract_x
_atom_site_fract_y
_atom_site_fract_z
Cu1 Cu 0.47322(4) 0.52678(4) -0.05348(7)
O1 O 0.4255(3) 0.5745(3) -0.1322(4)
O2 O 0.3692(4) 0.4782(4) 0.0027(4)
C1 C 0.2741(6) 0.4171(5) 0.0960(4)
C2 C 0.2498(5) 0.3666(5) 0.1544(4)
H1 H 0.2874 0.3515 0.1725
C3 C 0.1704(4) 0.3408(8) 0.1860(6)
C4 C 0.2209(4) 0.4418(8) 0.0685(6)
H2 H 0.2384 0.4768 0.0296
C5 C 0.1430(6) 0.2861(11) 0.2500
H3 H 0.0819 0.2514 0.2500
C6 C 0.3602(6) 0.4441(6) 0.0633(6)
O3 O 0.4160(4) 0.4332(4) 0.0945(3)
Cu1C Cu 0.05356(6) 0.52678(4) -0.05348(7)
Cu1F Cu 0.52678(4) 0.47322(4) 0.05348(7)
Cu1O Cu -0.05356(6) 0.47322(4) 0.05348(7)
Cu1T Cu 0.47322(4) 0.52678(4) 0.55348(7)
Cu1U Cu 0.52678(4) 0.47322(4) 0.44652(7)
Cu1G Cu 0.05356(6) 0.52678(4) 0.55348(7)
Cu1A Cu -0.05356(6) 0.47322(4) 0.44652(7)
O1C O 0.1490(4) 0.5745(3) -0.1322(4)
O2V O 0.1090(6) 0.4782(4) 0.0027(4)
O2T O 0.3692(4) 0.4782(4) 0.4973(4)
O2G O 0.1090(6) 0.4782(4) 0.4973(4)
O2R O 0.5218(4) 0.6308(4) 0.0027(4)
O2C O 0.1090(6) 0.6308(4) 0.0027(4)
C1V C 0.1430(8) 0.4171(5) 0.0960(4)
C1G C 0.1430(8) 0.4171(5) 0.4040(4)
C1T C 0.2741(6) 0.4171(5) 0.4040(4)
C2V C 0.1168(7) 0.3666(5) 0.1544(4)
C2G C 0.1168(7) 0.3666(5) 0.3456(4)
C2T C 0.2498(5) 0.3666(5) 0.3456(4)
H1V H 0.0641 0.3515 0.1725
H1T H 0.2874 0.3515 0.3275
H1G H 0.0641 0.3515 0.3275
C3G C 0.1704(9) 0.3408(8) 0.3140(6)
C4G C 0.2209(9) 0.4418(8) 0.4315(6)
H2G H 0.2384 0.4768 0.4704
H3G H 0.1695 0.2514 0.2500
C6V C 0.0839(8) 0.4441(6) 0.0633(6)
C6T C 0.3602(6) 0.4441(6) 0.4367(6)
C6G C 0.0839(8) 0.4441(6) 0.4367(6)
O3V O 0.0172(6) 0.4332(4) 0.0945(3)
O3T O 0.4160(4) 0.4332(4) 0.4055(3)
O3G O 0.0172(6) 0.4332(4) 0.4055(3)
O3F O 0.4332(4) 0.4160(4) -0.0945(3)
O3L O 0.5840(4) 0.5668(4) -0.0945(3)
O3O O -0.0172(6) 0.4160(4) -0.0945(3)
O3J O -0.0172(6) 0.5668(4) -0.0945(3)
loop_
_geom_bond_atom_site_label_1
_geom_bond_atom_site_label_2
_geom_bond_site_symmetry_1
_geom_bond_site_symmetry_2
Cu1 O1 1_555 1_555
O2 Cu1 1_555 1_555
C1 C2 1_555 1_555
C2 H1 1_555 1_555
C3 C2 1_555 1_555
C4 C1 1_555 1_555
H2 C4 1_555 1_555
C5 C3 1_555 1_555
H3 C5 1_555 1_555
C6 O2 1_555 1_555
O3 C6 1_555 1_555
Cu1C Cu1O 1_555 1_555
Cu1F Cu1 1_555 1_555
Cu1O O3V 1_555 1_555
Cu1T Cu1U 1_555 1_555
Cu1U O3T 1_555 1_555
Cu1G Cu1A 1_555 1_555
Cu1A O3G 1_555 1_555
O1C Cu1C 1_555 1_555
O2V Cu1C 1_555 1_555
O2T Cu1T 1_555 1_555
O2G Cu1G 1_555 1_555
O2R Cu1 1_555 1_555
O2C Cu1C 1_555 1_555
C1V C4 1_555 1_555
C1G C2G 1_555 1_555
C1T C2T 1_555 1_555
C2V C3 1_555 1_555
C2G H1G 1_555 1_555
C2T H1T 1_555 1_555
H1V C2V 1_555 1_555
C3G C5 1_555 1_555
C4G C1G 1_555 1_555
H2G C4G 1_555 1_555
H3G C5 1_555 1_555
C6V O2V 1_555 1_555
C6T O2T 1_555 1_555
C6G O2G 1_555 1_555
O3V C6V 1_555 1_555
O3T C6T 1_555 1_555
O3G C6G 1_555 1_555
O3F Cu1 1_555 1_555
O3L Cu1 1_555 1_555
O3O Cu1C 1_555 1_555
O3J Cu1C 1_555 1_555
C1 C6 1_555 1_555
O3 Cu1F 1_555 1_555
C1V C2V 1_555 1_555
C1V C6V 1_555 1_555
C1G C6G 1_555 1_555
C1T C4G 1_555 1_555
C1T C6T 1_555 1_555
C2G C3G 1_555 1_555
C2T C3G 1_555 1_555

#END
