
#######################################################################
#
#                 Cambridge Crystallographic Data Centre
#                                CCDC 
#
#######################################################################
#
# If this CIF has been generated from an entry in the Cambridge 
# Structural Database, then it will include bibliographic, chemical, 
# crystal, experimental, refinement or atomic coordinate data resulting 
# from the CCDC's data processing and validation procedures.
#
#######################################################################

data_HOGQIF
_symmetry_cell_setting           triclinic
_symmetry_space_group_name_H-M   'P -1'
_symmetry_Int_Tables_number      2
_space_group_name_Hall           '-P 1'
loop_
_symmetry_equiv_pos_site_id
_symmetry_equiv_pos_as_xyz
1 x,y,z
2 -x,-y,-z
_cell_length_a                   6.4355(12)
_cell_length_b                   13.462(2)
_cell_length_c                   13.753(2)
_cell_angle_alpha                61.532(2)
_cell_angle_beta                 82.433(3)
_cell_angle_gamma                81.244(2)
_cell_volume                     1032.81
loop_
_atom_site_label
_atom_site_type_symbol
_atom_site_fract_x
_atom_site_fract_y
_atom_site_fract_z
Gd1 Gd 0.57850(2) -0.549033(11) 0.829290(11)
O1 O 0.6364(5) -0.3944(2) 0.8469(2)
O2 O 0.8024(5) -0.5083(3) 0.6602(2)
H1 H 0.7667 -0.5007 0.6017
H2 H 0.9024 -0.4738 0.6534
O3 O 0.4471(4) -0.3640(2) 0.97889(19)
O4 O 0.7927(4) -0.45953(19) 1.10536(19)
O5 O 1.0728(3) -0.3983(2) 1.12754(19)
O6 O 0.5876(4) 0.3805(2) 0.3212(2)
O7 O 0.9273(5) 0.3513(3) 0.2755(3)
H3 H 0.8912 0.3858 0.2132
O8 O 1.3907(5) 0.3784(2) 0.7343(2)
O9 O 1.5824(4) 0.2531(2) 0.8695(2)
C1 C 0.6012(5) -0.3492(2) 0.9095(2)
C2 C 0.9199(5) -0.3843(3) 1.0735(3)
C3 C 0.8862(5) -0.2765(3) 0.9685(3)
C4 C 0.7480(5) -0.2631(3) 0.8914(3)
C5 C 0.7412(5) -0.1641(3) 0.7910(3)
H4 H 0.6542 -0.1568 0.7386
C6 C 0.8594(5) -0.0751(3) 0.7656(3)
C7 C 0.9889(5) -0.0847(3) 0.8460(3)
C8 C 1.0021(5) -0.1872(3) 0.9443(3)
H5 H 1.0925 -0.1961 0.9960
C9 C 0.8405(5) 0.0272(3) 0.6521(3)
C10 C 1.0134(6) 0.0690(3) 0.5825(3)
H6 H 1.1473 0.0335 0.6040
C11 C 0.9903(6) 0.1646(3) 0.4794(3)
H7 H 1.1081 0.1924 0.4319
C12 C 0.7895(6) 0.2184(3) 0.4481(3)
C13 C 0.6141(6) 0.1744(3) 0.5185(3)
H8 H 0.4798 0.2093 0.4974
C14 C 0.6389(6) 0.0792(3) 0.6195(3)
H9 H 0.5211 0.0494 0.6661
C15 C 0.7598(5) 0.3236(3) 0.3414(3)
C16 C 1.1074(5) 0.0099(3) 0.8331(3)
C17 C 1.0197(6) 0.1221(3) 0.7827(3)
H10 H 0.8862 0.1396 0.7562
C18 C 1.1300(6) 0.2082(3) 0.7715(3)
H11 H 1.0716 0.2834 0.7358
C19 C 1.3266(5) 0.1833(3) 0.8132(3)
C20 C 1.4130(6) 0.0699(3) 0.8667(3)
H12 H 1.5437 0.0520 0.8961
C21 C 1.3040(6) -0.0160(3) 0.8758(3)
H13 H 1.3628 -0.0911 0.9107
C22 C 1.4424(6) 0.2759(3) 0.8044(3)
Gd1_2 Gd 1.57850(2) 0.450967(11) 0.829290(11)
Gd1A Gd 0.42150(2) -0.450967(11) 1.170710(11)
Gd1A_2 Gd 0.42150(2) 0.549033(11) 0.170710(11)
Gd1A_3 Gd 1.42150(2) -0.450967(11) 1.170710(11)
O3A O 0.5529(4) -0.6360(2) 1.02111(19)
O4A O 0.2073(4) -0.54047(19) 0.89464(19)
O5A O 0.9272(3) -0.6017(2) 0.87246(19)
O6A O 0.4124(4) -0.3805(2) 0.6788(2)
O8_2 O 0.3907(5) -0.6216(2) 0.7343(2)
O9_2 O 0.5824(4) -0.7469(2) 0.8695(2)
O10 O 0.2442(9) 0.5121(5) 0.5339(4)
H14 H 0.2887 0.4900 0.5949
H15 H 0.2813 0.5734 0.4860
loop_
_geom_bond_atom_site_label_1
_geom_bond_atom_site_label_2
_geom_bond_site_symmetry_1
_geom_bond_site_symmetry_2
Gd1 O1 1_555 1_555
O1 C1 1_555 1_555
O2 Gd1 1_555 1_555
H1 O2 1_555 1_555
H2 O2 1_555 1_555
O3 C1 1_555 1_555
O4 C2 1_555 1_555
O5 C2 1_555 1_555
O6 C15 1_555 1_555
O7 H3 1_555 1_555
O8 C22 1_555 1_555
O9 C22 1_555 1_555
C1 C4 1_555 1_555
C2 C3 1_555 1_555
C3 C4 1_555 1_555
C4 C5 1_555 1_555
C5 H4 1_555 1_555
C6 C5 1_555 1_555
C7 C6 1_555 1_555
C8 C3 1_555 1_555
H5 C8 1_555 1_555
C9 C6 1_555 1_555
C10 C9 1_555 1_555
H6 C10 1_555 1_555
C11 C10 1_555 1_555
H7 C11 1_555 1_555
C12 C11 1_555 1_555
C13 C12 1_555 1_555
H8 C13 1_555 1_555
C14 C9 1_555 1_555
H9 C14 1_555 1_555
C15 O7 1_555 1_555
C16 C7 1_555 1_555
C17 C16 1_555 1_555
H10 C17 1_555 1_555
C18 C17 1_555 1_555
H11 C18 1_555 1_555
C19 C18 1_555 1_555
C20 C19 1_555 1_555
H12 C20 1_555 1_555
C21 C16 1_555 1_555
H13 C21 1_555 1_555
C22 C19 1_555 1_555
O10 H14 1_555 1_555
H15 O10 1_555 1_555
Gd1_2 O8 1_555 1_555
Gd1A O3 1_555 1_555
Gd1A_2 O6 1_555 1_555
Gd1A_3 O5 1_555 1_555
O3A Gd1 1_555 1_555
O4A Gd1 1_555 1_555
O5A Gd1 1_555 1_555
O6A Gd1 1_555 1_555
O8_2 Gd1 1_555 1_555
O9_2 Gd1 1_555 1_555
O4 Gd1A 1_555 1_555
O9 Gd1_2 1_555 1_555
C7 C8 1_555 1_555
C12 C15 1_555 1_555
C13 C14 1_555 1_555
C20 C21 1_555 1_555

#END
