
#######################################################################
#
#                 Cambridge Crystallographic Data Centre
#                                CCDC 
#
#######################################################################
#
# If this CIF has been generated from an entry in the Cambridge 
# Structural Database, then it will include bibliographic, chemical, 
# crystal, experimental, refinement or atomic coordinate data resulting 
# from the CCDC's data processing and validation procedures.
#
#######################################################################

data_HOGQAV
_symmetry_cell_setting           monoclinic
_symmetry_space_group_name_H-M   'P 21/c'
_symmetry_Int_Tables_number      14
_space_group_name_Hall           '-P 2ybc'
loop_
_symmetry_equiv_pos_site_id
_symmetry_equiv_pos_as_xyz
1 x,y,z
2 -x,1/2+y,1/2-z
3 -x,-y,-z
4 x,1/2-y,1/2+z
_cell_length_a                   14.743(2)
_cell_length_b                   7.941(1)
_cell_length_c                   15.305(1)
_cell_angle_alpha                90
_cell_angle_beta                 91.20(1)
_cell_angle_gamma                90
_cell_volume                     1791.43
loop_
_atom_site_label
_atom_site_type_symbol
_atom_site_fract_x
_atom_site_fract_y
_atom_site_fract_z
Zn1 Zn 0.39273(5) 0.08160(9) 0.15548(5)
S1 S 0.24640(10) -0.1124(2) 0.17417(10)
S2 S 0.31347(9) 0.0712(2) 0.02110(9)
S3 S 0.48516(9) -0.1394(2) 0.2022(1)
S4 S 0.67348(9) -0.2057(2) 0.2612(1)
O1 O 0.1810(3) -0.0219(6) -0.1189(3)
O2 O 0.0592(3) -0.1715(6) -0.0793(3)
O3 O 0.5126(2) 0.1924(5) 0.1016(2)
O4 O 0.6516(2) 0.3051(5) 0.1133(3)
N1 N 0.1614(3) -0.1154(7) 0.0231(3)
N2 N 0.6297(3) 0.0640(6) 0.1788(3)
C1 C 0.2353(3) -0.0548(6) 0.0690(4)
C2 C 0.1381(4) -0.0933(8) -0.0656(4)
C3 C 0.5947(3) -0.0817(7) 0.2114(3)
C4 C 0.5908(4) 0.1881(7) 0.1273(4)
C5 C 0.0215(5) -0.164(1) -0.1682(4)
C6 C -0.0658(5) -0.2542(9) -0.1661(5)
C7 C 0.6185(4) 0.4633(9) 0.0679(5)
C8 C 0.6327(5) 0.4358(9) -0.0238(5)
H1 H 0.121(4) -0.167(8) 0.051(4)
H2 H 0.683(3) 0.075(7) 0.178(3)
H3 H 0.0128 -0.0502 -0.1863
H4 H 0.0619 -0.2172 -0.2082
H5 H -0.1046 -0.2005 -0.1267
H6 H -0.0932 -0.2541 -0.2233
H7 H -0.0554 -0.3676 -0.1485
H8 H 0.5557 0.4783 0.0780
H9 H 0.6517 0.5568 0.0878
H10 H 0.5992 0.3406 -0.0440
H11 H 0.6127 0.5329 -0.0561
H12 H 0.6954 0.4184 -0.0341
S4A S 0.32652(9) 0.2943(2) 0.2388(1)
Zn1A Zn 0.60727(5) -0.41840(9) 0.34452(5)
N3 N -0.0099(5) 0.302(1) -0.1027(5)
C9 C 0.0597(5) 0.3500(10) -0.0970(5)
C10 C 0.1519(5) 0.409(1) -0.0883(7)
H13 H 0.1924 0.3212 -0.0751
H14 H 0.1701 0.4581 -0.1446
H15 H 0.1572 0.4962 -0.0463
loop_
_geom_bond_atom_site_label_1
_geom_bond_atom_site_label_2
_geom_bond_site_symmetry_1
_geom_bond_site_symmetry_2
Zn1 S1 1_555 1_555
S1 C1 1_555 1_555
S2 Zn1 1_555 1_555
S3 Zn1 1_555 1_555
S4 C3 1_555 1_555
O1 C2 1_555 1_555
O2 C2 1_555 1_555
O3 Zn1 1_555 1_555
O4 C4 1_555 1_555
N1 C1 1_555 1_555
N2 C3 1_555 1_555
C1 S2 1_555 1_555
C2 N1 1_555 1_555
C3 S3 1_555 1_555
C4 O3 1_555 1_555
C5 O2 1_555 1_555
C6 C5 1_555 1_555
C7 O4 1_555 1_555
C8 C7 1_555 1_555
H1 N1 1_555 1_555
H2 N2 1_555 1_555
H3 C5 1_555 1_555
H4 C5 1_555 1_555
H5 C6 1_555 1_555
H6 C6 1_555 1_555
H7 C6 1_555 1_555
H8 C7 1_555 1_555
H9 C7 1_555 1_555
H10 C8 1_555 1_555
H11 C8 1_555 1_555
H12 C8 1_555 1_555
N3 C9 1_555 1_555
C9 C10 1_555 1_555
C10 H13 1_555 1_555
H14 C10 1_555 1_555
H15 C10 1_555 1_555
S4A Zn1 1_555 1_555
Zn1A S4 1_555 1_555
N2 C4 1_555 1_555

#END
