
#######################################################################
#
#                 Cambridge Crystallographic Data Centre
#                                CCDC 
#
#######################################################################
#
# If this CIF has been generated from an entry in the Cambridge 
# Structural Database, then it will include bibliographic, chemical, 
# crystal, experimental, refinement or atomic coordinate data resulting 
# from the CCDC's data processing and validation procedures.
#
#######################################################################

data_HOGSEC
_symmetry_cell_setting           cubic
_symmetry_space_group_name_H-M   'P a -3'
_symmetry_Int_Tables_number      205
_space_group_name_Hall           '-P 2ac 2ab 3'
loop_
_symmetry_equiv_pos_site_id
_symmetry_equiv_pos_as_xyz
1 x,y,z
2 z,x,y
3 y,z,x
4 1/2-x,-y,1/2+z
5 -x,1/2+y,1/2-z
6 1/2+x,1/2-y,-z
7 1/2+z,1/2-x,-y
8 1/2-z,-x,1/2+y
9 -z,1/2+x,1/2-y
10 -y,1/2+z,1/2-x
11 1/2+y,1/2-z,-x
12 1/2-y,-z,1/2+x
13 -x,-y,-z
14 -z,-x,-y
15 -y,-z,-x
16 1/2+x,y,1/2-z
17 x,1/2-y,1/2+z
18 1/2-x,1/2+y,z
19 1/2-z,1/2+x,y
20 1/2+z,x,1/2-y
21 z,1/2-x,1/2+y
22 y,1/2-z,1/2+x
23 1/2-y,1/2+z,x
24 1/2+y,z,1/2-x
_cell_length_a                   21.247(3)
_cell_length_b                   21.247(3)
_cell_length_c                   21.247(3)
_cell_angle_alpha                90
_cell_angle_beta                 90
_cell_angle_gamma                90
_cell_volume                     9591.64
loop_
_atom_site_label
_atom_site_type_symbol
_atom_site_fract_x
_atom_site_fract_y
_atom_site_fract_z
Th1 Th -0.044940(18) 0.093390(18) 0.087130(18)
F1 F 0.0623(5) 0.0623(5) 0.0623(5)
F2 F -0.1026(3) 0.0240(3) 0.0177(4)
F3 F -0.0867(3) 0.1805(3) 0.1648(4)
O1 O -0.1306(3) 0.0543(3) 0.1516(3)
O2 O -0.1559(3) -0.0429(3) 0.1272(4)
O3 O -0.4956(4) 0.0917(3) 0.3093(3)
O4 O -0.4259(4) 0.0139(3) 0.3102(3)
C1 C -0.2769(4) 0.0532(5) 0.1714(4)
C2 C -0.3379(6) 0.0348(5) 0.2045(5)
H1 H -0.3464 -0.0094 0.1969
H2 H -0.3330 0.0406 0.250
C3 C -0.3939(5) 0.0740(5) 0.1816(5)
C4 C -0.3792(6) 0.1418(6) 0.1968(5)
H3 H -0.4138 0.168 0.1830
H4 H -0.3751 0.147 0.2420
C5 C -0.3187(6) 0.1637(6) 0.1652(6)
H5 H -0.3108 0.2079 0.1757
C6 C -0.2631(5) 0.1220(5) 0.1895(5)
H6 H -0.2593 0.1258 0.2348
H7 H -0.2239 0.1356 0.1706
C7 C -0.2834(6) 0.0474(6) 0.1003(6)
H8 H -0.292 0.004 0.0892
H9 H -0.2443 0.0598 0.0803
C8 C -0.3383(7) 0.0904(5) 0.0760(6)
H10 H -0.3425 0.0871 0.0302
C9 C -0.3243(6) 0.1565(6) 0.0949(6)
H11 H -0.2853 0.1698 0.0753
H12 H -0.3576 0.1838 0.0797
C10 C -0.3986(7) 0.0669(6) 0.1090(6)
H13 H -0.4345 0.0906 0.0938
H14 H -0.4053 0.0229 0.0986
C11 C -0.2234(5) 0.0100(5) 0.1975(5)
H15 H -0.2111 0.0253 0.2387
H16 H -0.2399 -0.0322 0.2027
C12 C -0.1668(5) 0.0070(5) 0.1570(5)
C13 C -0.4559(6) 0.0520(5) 0.2101(5)
H17 H -0.4896 0.0786 0.1944
H18 H -0.4643 0.009 0.1960
C14 C -0.4570(5) 0.0532(5) 0.2820(5)
Th1B Th 0.093390(18) 0.087130(18) -0.044940(18)
Th1A Th 0.087130(18) -0.044940(18) 0.093390(18)
Th1N Th -0.093390(18) -0.087130(18) 0.044940(18)
Th1O Th -0.544940(18) 0.093390(18) 0.412870(18)
Th1S Th -0.412870(18) -0.044940(18) 0.406610(18)
Th1M Th -0.087130(18) 0.044940(18) -0.093390(18)
Th1F Th -0.412870(18) 0.544940(18) -0.093390(18)
Th1J Th -0.406610(18) 0.412870(18) 0.044940(18)
Th1O_2 Th 0.455060(18) 0.093390(18) 0.412870(18)
Th1K Th 0.406610(18) -0.087130(18) 0.455060(18)
F2M F -0.0177(4) 0.1026(3) -0.0240(3)
F2N F -0.0240(3) -0.0177(4) 0.1026(3)
F2L F 0.1026(3) -0.0240(3) -0.0177(4)
F2B F 0.0240(3) 0.0177(4) -0.1026(3)
F2A F 0.0177(4) -0.1026(3) 0.0240(3)
F3B F 0.1805(3) 0.1648(4) -0.0867(3)
F3A F 0.1648(4) -0.0867(3) 0.1805(3)
O1M O -0.1516(3) 0.1306(3) -0.0543(3)
O1O O 0.3694(3) 0.0543(3) 0.3484(3)
O1B O 0.0543(3) 0.1516(3) -0.1306(3)
O1A O 0.1516(3) -0.1306(3) 0.0543(3)
O2M O -0.1272(4) 0.1559(3) 0.0429(3)
O2O O 0.3441(3) -0.0429(3) 0.3728(4)
O2L O 0.1559(3) 0.0429(3) -0.1272(4)
O2N O 0.0429(3) -0.1272(4) 0.1559(3)
O3M O -0.3093(3) 0.4956(4) -0.0917(3)
O3O O 0.0044(4) 0.0917(3) 0.1907(3)
O3U O 0.0917(3) 0.1907(3) 0.0044(4)
O3R O 0.1907(3) 0.0044(4) 0.0917(3)
O4M O -0.3102(3) 0.4259(4) -0.0139(3)
O4O O 0.0741(4) 0.0139(3) 0.1898(3)
O4U O 0.0139(3) 0.1898(3) 0.0741(4)
O4R O 0.1898(3) 0.0741(4) 0.0139(3)
C1M C -0.1714(4) 0.2769(4) -0.0532(5)
C1O C 0.2231(4) 0.0532(5) 0.3286(4)
C2M C -0.2045(5) 0.3379(6) -0.0348(5)
C2O C 0.1621(6) 0.0348(5) 0.2955(5)
H1M H -0.1969 0.3464 0.0094
H1O H 0.1536 -0.0094 0.3031
H2M H -0.250 0.3330 -0.0406
H2O H 0.1670 0.0406 0.250
C3M C -0.1816(5) 0.3939(5) -0.0740(5)
C3O C 0.1061(5) 0.0740(5) 0.3184(5)
C4M C -0.1968(5) 0.3792(6) -0.1418(6)
C4O C 0.1208(6) 0.1418(6) 0.3032(5)
H3M H -0.1830 0.4138 -0.168
H3O H 0.0862 0.168 0.3170
H4M H -0.2420 0.3751 -0.147
H4O H 0.1249 0.147 0.2580
C5M C -0.1652(6) 0.3187(6) -0.1637(6)
C5O C 0.1813(6) 0.1637(6) 0.3348(6)
H5M H -0.1757 0.3108 -0.2079
H5O H 0.1892 0.2079 0.3243
C6M C -0.1895(5) 0.2631(5) -0.1220(5)
C6O C 0.2369(5) 0.1220(5) 0.3105(5)
H6M H -0.2348 0.2593 -0.1258
H6O H 0.2407 0.1258 0.2652
H7M H -0.1706 0.2239 -0.1356
H7O H 0.2761 0.1356 0.3294
C7M C -0.1003(6) 0.2834(6) -0.0474(6)
C7O C 0.2166(6) 0.0474(6) 0.3997(6)
H8M H -0.0892 0.292 -0.004
H8O H 0.208 0.004 0.4108
H9M H -0.0803 0.2443 -0.0598
H9O H 0.2557 0.0598 0.4197
C8M C -0.0760(6) 0.3383(7) -0.0904(5)
C8O C 0.1617(7) 0.0904(5) 0.4240(6)
H10M H -0.0302 0.3425 -0.0871
H10O H 0.1575 0.0871 0.4698
C9M C -0.0949(6) 0.3243(6) -0.1565(6)
C9O C 0.1757(6) 0.1565(6) 0.4051(6)
H11M H -0.0753 0.2853 -0.1698
H11O H 0.2147 0.1698 0.4247
H12M H -0.0797 0.3576 -0.1838
H12O H 0.1424 0.1838 0.4203
C10M C -0.1090(6) 0.3986(7) -0.0669(6)
C10O C 0.1014(7) 0.0669(6) 0.3910(6)
H13M H -0.0938 0.4345 -0.0906
H13O H 0.0655 0.0906 0.4062
H14M H -0.0986 0.4053 -0.0229
H14O H 0.0947 0.0229 0.4014
C11M C -0.1975(5) 0.2234(5) -0.0100(5)
C11O C 0.2766(5) 0.0100(5) 0.3025(5)
H15M H -0.2387 0.2111 -0.0253
H15O H 0.2889 0.0253 0.2613
H16M H -0.2027 0.2399 0.0322
H16O H 0.2601 -0.0322 0.2973
C12M C -0.1570(5) 0.1668(5) -0.0070(5)
C12O C 0.3332(5) 0.0070(5) 0.3430(5)
C13M C -0.2101(5) 0.4559(6) -0.0520(5)
C13O C 0.0441(6) 0.0520(5) 0.2899(5)
H17M H -0.1944 0.4896 -0.0786
H17O H 0.0104 0.0786 0.3056
H18M H -0.1960 0.4643 -0.009
H18O H 0.0357 0.009 0.3040
C14M C -0.2820(5) 0.4570(5) -0.0532(5)
C14O C 0.0430(5) 0.0532(5) 0.2180(5)
O5 O -0.1814(5) 0.2688(5) 0.1481(5)
N1 N -0.1854(6) 0.3146(6) 0.1854(6)
O5J O -0.2312(5) 0.3519(5) 0.1814(5)
O5H O -0.1481(5) 0.3186(5) 0.2312(5)
loop_
_geom_bond_atom_site_label_1
_geom_bond_atom_site_label_2
_geom_bond_site_symmetry_1
_geom_bond_site_symmetry_2
Th1 F1 1_555 1_555
F1 Th1B 1_555 1_555
F2 Th1 1_555 1_555
F3 Th1 1_555 1_555
O1 Th1 1_555 1_555
O2 C12 1_555 1_555
O3 C14 1_555 1_555
O4 C14 1_555 1_555
O5 N1 1_555 1_555
C1 C2 1_555 1_555
C2 H1 1_555 1_555
H2 C2 1_555 1_555
C3 C2 1_555 1_555
C4 C3 1_555 1_555
H3 C4 1_555 1_555
H4 C4 1_555 1_555
C5 C4 1_555 1_555
H5 C5 1_555 1_555
C6 C1 1_555 1_555
H6 C6 1_555 1_555
H7 C6 1_555 1_555
C7 C1 1_555 1_555
H8 C7 1_555 1_555
H9 C7 1_555 1_555
C8 C7 1_555 1_555
H10 C8 1_555 1_555
C9 C5 1_555 1_555
H11 C9 1_555 1_555
H12 C9 1_555 1_555
C10 C3 1_555 1_555
H13 C10 1_555 1_555
H14 C10 1_555 1_555
C11 C1 1_555 1_555
H15 C11 1_555 1_555
H16 C11 1_555 1_555
C12 O1 1_555 1_555
C13 C3 1_555 1_555
H17 C13 1_555 1_555
H18 C13 1_555 1_555
C14 C13 1_555 1_555
N1 O5J 1_555 1_555
Th1B F2M 1_555 1_555
Th1A F1 1_555 1_555
Th1N F2 1_555 1_555
Th1O O3 1_555 1_555
Th1S O4 1_555 1_555
Th1M F2 1_555 1_555
Th1F O3M 1_555 1_555
Th1J O4M 1_555 1_555
Th1O_2 O1O 1_555 1_555
Th1K O2O 1_555 1_555
F2M Th1 1_555 1_555
F2N Th1 1_555 1_555
F2L Th1B 1_555 1_555
F2B Th1B 1_555 1_555
F2A Th1A 1_555 1_555
F3B Th1B 1_555 1_555
F3A Th1A 1_555 1_555
O1M Th1M 1_555 1_555
O1O C12O 1_555 1_555
O1B Th1B 1_555 1_555
O1A Th1A 1_555 1_555
O2M Th1 1_555 1_555
O2O C12O 1_555 1_555
O2L Th1B 1_555 1_555
O2N Th1A 1_555 1_555
O3M C14M 1_555 1_555
O3O Th1 1_555 1_555
O3U Th1B 1_555 1_555
O3R Th1A 1_555 1_555
O4M C14M 1_555 1_555
O4O Th1A 1_555 1_555
O4U Th1 1_555 1_555
O4R Th1B 1_555 1_555
O5H N1 1_555 1_555
C1M C2M 1_555 1_555
C1O C2O 1_555 1_555
C2M H1M 1_555 1_555
C2O H1O 1_555 1_555
H2M C2M 1_555 1_555
H2O C2O 1_555 1_555
C3M C2M 1_555 1_555
C3O C2O 1_555 1_555
C4M C3M 1_555 1_555
C4O C3O 1_555 1_555
H3M C4M 1_555 1_555
H3O C4O 1_555 1_555
H4M C4M 1_555 1_555
H4O C4O 1_555 1_555
C5M C4M 1_555 1_555
C5O C4O 1_555 1_555
H5M C5M 1_555 1_555
H5O C5O 1_555 1_555
C6M C1M 1_555 1_555
C6O C1O 1_555 1_555
H6M C6M 1_555 1_555
H6O C6O 1_555 1_555
H7M C6M 1_555 1_555
H7O C6O 1_555 1_555
C7M C1M 1_555 1_555
C7O C1O 1_555 1_555
H8M C7M 1_555 1_555
H8O C7O 1_555 1_555
H9M C7M 1_555 1_555
H9O C7O 1_555 1_555
C8M C7M 1_555 1_555
C8O C7O 1_555 1_555
H10M C8M 1_555 1_555
H10O C8O 1_555 1_555
C9M C5M 1_555 1_555
C9O C5O 1_555 1_555
H11M C9M 1_555 1_555
H11O C9O 1_555 1_555
H12M C9M 1_555 1_555
H12O C9O 1_555 1_555
C10M C3M 1_555 1_555
C10O C3O 1_555 1_555
H13M C10M 1_555 1_555
H13O C10O 1_555 1_555
H14M C10M 1_555 1_555
H14O C10O 1_555 1_555
C11M C1M 1_555 1_555
C11O C1O 1_555 1_555
H15M C11M 1_555 1_555
H15O C11O 1_555 1_555
H16M C11M 1_555 1_555
H16O C11O 1_555 1_555
C12M O1M 1_555 1_555
C12O C11O 1_555 1_555
C13M C3M 1_555 1_555
C13O C3O 1_555 1_555
H17M C13M 1_555 1_555
H17O C13O 1_555 1_555
H18M C13M 1_555 1_555
H18O C13O 1_555 1_555
C14M C13M 1_555 1_555
C14O O3O 1_555 1_555
O2 Th1N 1_555 1_555
C5 C6 1_555 1_555
C8 C9 1_555 1_555
C8 C10 1_555 1_555
C11 C12 1_555 1_555
Th1A F2N 1_555 1_555
Th1A F2L 1_555 1_555
Th1N F2N 1_555 1_555
Th1N F2A 1_555 1_555
Th1M F2M 1_555 1_555
Th1M F2B 1_555 1_555
O2M C12M 1_555 1_555
O4O C14O 1_555 1_555
C5M C6M 1_555 1_555
C5O C6O 1_555 1_555
C8M C9M 1_555 1_555
C8M C10M 1_555 1_555
C8O C9O 1_555 1_555
C8O C10O 1_555 1_555
C11M C12M 1_555 1_555
C13O C14O 1_555 1_555

#END
