
#######################################################################
#
#                 Cambridge Crystallographic Data Centre
#                                CCDC 
#
#######################################################################
#
# If this CIF has been generated from an entry in the Cambridge 
# Structural Database, then it will include bibliographic, chemical, 
# crystal, experimental, refinement or atomic coordinate data resulting 
# from the CCDC's data processing and validation procedures.
#
#######################################################################

data_HOGTED
_symmetry_cell_setting           triclinic
_symmetry_space_group_name_H-M   'P -1'
_symmetry_Int_Tables_number      2
_space_group_name_Hall           '-P 1'
loop_
_symmetry_equiv_pos_site_id
_symmetry_equiv_pos_as_xyz
1 x,y,z
2 -x,-y,-z
_cell_length_a                   11.702(3)
_cell_length_b                   13.109(3)
_cell_length_c                   14.515(3)
_cell_angle_alpha                97.4880(10)
_cell_angle_beta                 110.3230(10)
_cell_angle_gamma                111.049(3)
_cell_volume                     1864.09
loop_
_atom_site_label
_atom_site_type_symbol
_atom_site_fract_x
_atom_site_fract_y
_atom_site_fract_z
Zn2 Zn 0.36627(6) 0.17070(5) -0.37818(5)
N4 N 0.5274(5) 0.2247(5) -0.2381(4)
H6 H 0.5226 0.1654 -0.2122
H7 H 0.6049 0.2511 -0.2458
N5 N 0.3470(5) 0.3200(4) -0.3103(4)
H8 H 0.2814 0.2971 -0.2874
N6 N 0.3554(6) 0.2468(4) -0.4968(4)
H9 H 0.4174 0.2444 -0.5193
H10 H 0.2730 0.2079 -0.5497
N7 N 0.4069(7) 0.0404(6) -0.4452(5)
H11 H 0.4400 0.0615 -0.4906
H12 H 0.4676 0.0270 -0.3964
N8 N 0.1813(5) 0.0396(4) -0.4109(4)
H13 H 0.1668 0.0463 -0.3532
C5 C 0.5284(7) 0.3152(6) -0.1667(5)
H22 H 0.6195 0.3603 -0.1133
H23 H 0.4702 0.2813 -0.1343
C6 C 0.4800(7) 0.3914(6) -0.2220(5)
H24 H 0.4715 0.4455 -0.1756
H25 H 0.5449 0.4340 -0.2461
C7 C 0.3093(7) 0.3753(5) -0.3902(5)
H26 H 0.3349 0.4547 -0.3586
H27 H 0.2120 0.3377 -0.4309
C8 C 0.3809(7) 0.3681(6) -0.4597(5)
H28 H 0.3470 0.3952 -0.5177
H29 H 0.4774 0.4159 -0.4217
C9 C 0.267(2) -0.0702(18) -0.5010(17)
H30 H 0.2149 -0.0675 -0.5685
H31 H 0.2817 -0.1382 -0.5089
C10 C 0.1902(19) -0.0728(14) -0.4352(13)
H32 H 0.2360 -0.0868 -0.3718
H33 H 0.0997 -0.1347 -0.4712
C11 C 0.0695(6) 0.0435(6) -0.4928(5)
H34 H 0.0783 0.0268 -0.5557
H35 H 0.0739 0.1189 -0.4796
Zn2A Zn -0.36627(6) -0.17070(5) -0.62182(5)
N4A N -0.5274(5) -0.2247(5) -0.7619(4)
H6A H -0.5226 -0.1654 -0.7878
H7A H -0.6049 -0.2511 -0.7542
N5A N -0.3470(5) -0.3200(4) -0.6897(4)
H8A H -0.2814 -0.2971 -0.7126
N6A N -0.3554(6) -0.2468(4) -0.5032(4)
H9A H -0.4174 -0.2444 -0.4807
H10A H -0.2730 -0.2079 -0.4503
N7A N -0.4069(7) -0.0404(6) -0.5548(5)
H11A H -0.4400 -0.0615 -0.5094
H12A H -0.4676 -0.0270 -0.6036
N8A N -0.1813(5) -0.0396(4) -0.5891(4)
H13A H -0.1668 -0.0463 -0.6468
C5A C -0.5284(7) -0.3152(6) -0.8333(5)
H22A H -0.6195 -0.3603 -0.8867
H23A H -0.4702 -0.2813 -0.8657
C6A C -0.4800(7) -0.3914(6) -0.7780(5)
H24A H -0.4715 -0.4455 -0.8244
H25A H -0.5449 -0.4340 -0.7539
C7A C -0.3093(7) -0.3753(5) -0.6098(5)
H26A H -0.3349 -0.4547 -0.6414
H27A H -0.2120 -0.3377 -0.5691
C8A C -0.3809(7) -0.3681(6) -0.5403(5)
H28A H -0.3470 -0.3952 -0.4823
H29A H -0.4774 -0.4159 -0.5783
C9A C -0.267(2) 0.0702(18) -0.4990(17)
H30A H -0.2149 0.0675 -0.4315
H31A H -0.2817 0.1382 -0.4911
C10A C -0.1902(19) 0.0728(14) -0.5648(13)
H32A H -0.2360 0.0868 -0.6282
H33A H -0.0997 0.1347 -0.5288
C11A C -0.0695(6) -0.0435(6) -0.5072(5)
H34A H -0.0783 -0.0268 -0.4443
H35A H -0.0739 -0.1189 -0.5204
O22 O 0.0000 0.0000 0.0000
O23 O 0.2099(16) -0.1901(13) -0.3453(13)
O24 O 0.6163(15) 0.3145(12) 0.4605(11)
Zn1 Zn 0.06933(6) 0.54001(5) 0.19519(4)
As1 As -0.36692(5) -0.31641(4) -0.02045(4)
As2 As -0.47457(6) -0.14552(6) -0.12751(5)
V1 V 0.29300(8) 0.25529(6) 0.22399(6)
V2 V 0.03341(8) 0.14567(6) 0.23975(6)
V3 V -0.24437(8) -0.03698(6) 0.13025(6)
V4 V -0.24800(8) 0.12598(7) 0.00256(6)
V6 V 0.28329(7) 0.02796(6) 0.24775(6)
V7 V -0.07199(8) -0.16593(6) 0.18651(6)
V8 V 0.10676(7) 0.32000(6) 0.06657(6)
V9 V 0.12550(7) -0.21499(6) 0.13465(6)
O1 O 0.4031(4) 0.0494(3) 0.3577(3)
O2 O -0.3409(4) 0.1871(3) 0.0143(3)
O3 O -0.1022(4) -0.2308(3) 0.2686(3)
O4 O -0.2548(3) -0.1908(3) 0.0822(3)
O5 O -0.4896(3) -0.2730(3) -0.0899(3)
O6 O -0.3327(4) -0.0406(3) 0.1947(3)
O7 O -0.3474(3) -0.0415(3) -0.0132(3)
O8 O 0.1488(3) 0.4568(3) 0.1031(2)
O9 O 0.1996(3) 0.1268(3) 0.2631(3)
O10 O 0.1219(3) 0.2641(3) 0.1834(2)
O11 O 0.4103(4) 0.3610(3) 0.3229(3)
O12 O 0.1227(3) -0.1019(3) 0.2304(2)
O13 O -0.1425(3) 0.1157(3) 0.1339(3)
O14 O -0.2759(3) -0.3009(3) -0.0972(2)
O15 O -0.3662(3) -0.1491(3) -0.1895(3)
O16 O -0.0671(3) -0.0183(3) 0.2208(2)
O17 O -0.0679(3) -0.2701(3) 0.0781(2)
O18 O -0.2768(3) 0.0844(3) -0.1418(2)
O19 O -0.0871(3) 0.2481(3) 0.0086(2)
O20 O 0.0519(4) 0.2127(3) 0.3497(3)
O21 O 0.1725(3) -0.3072(3) 0.1887(3)
N1 N 0.1625(6) 0.4903(5) 0.3192(4)
H1 H 0.1714 0.4274 0.2970
H2 H 0.2455 0.5464 0.3604
N2 N -0.0416(5) 0.5647(4) 0.2836(4)
H3 H -0.0404 0.6351 0.2886
N3 N -0.1217(4) 0.4528(4) 0.0794(3)
H4 H -0.1247 0.4769 0.0236
H5 H -0.1430 0.3777 0.0622
C1 C 0.0775(8) 0.4660(6) 0.3763(5)
H14 H 0.1302 0.4643 0.4440
H15 H 0.0012 0.3915 0.3404
C2 C 0.0262(8) 0.5560(6) 0.3869(5)
H16 H -0.0371 0.5346 0.4178
H17 H 0.1011 0.6291 0.4306
C3 C -0.1806(6) 0.4762(6) 0.2228(5)
H18 H -0.2418 0.4939 0.2456
H19 H -0.1864 0.4027 0.2318
C4 C -0.2200(6) 0.4710(5) 0.1117(5)
H20 H -0.3093 0.4091 0.0701
H21 H -0.2230 0.5419 0.1017
Zn1A Zn -0.06933(6) -0.54001(5) -0.19519(4)
Zn1_2 Zn 0.06933(6) -0.45999(5) 0.19519(4)
Zn1A_2 Zn -0.06933(6) 0.45999(5) -0.19519(4)
As1A As 0.36692(5) 0.31641(4) 0.02045(4)
As2A As 0.47457(6) 0.14552(6) 0.12751(5)
V1A V -0.29300(8) -0.25529(6) -0.22399(6)
V2A V -0.03341(8) -0.14567(6) -0.23975(6)
V3A V 0.24437(8) 0.03698(6) -0.13025(6)
V4A V 0.24800(8) -0.12598(7) -0.00256(6)
V6A V -0.28329(7) -0.02796(6) -0.24775(6)
V7A V 0.07199(8) 0.16593(6) -0.18651(6)
V8A V -0.10676(7) -0.32000(6) -0.06657(6)
V9A V -0.12550(7) 0.21499(6) -0.13465(6)
O1A O -0.4031(4) -0.0494(3) -0.3577(3)
O2A O 0.3409(4) -0.1871(3) -0.0143(3)
O3A O 0.1022(4) 0.2308(3) -0.2686(3)
O4A O 0.2548(3) 0.1908(3) -0.0822(3)
O5A O 0.4896(3) 0.2730(3) 0.0899(3)
O6A O 0.3327(4) 0.0406(3) -0.1947(3)
O7A O 0.3474(3) 0.0415(3) 0.0132(3)
O8A O -0.1488(3) -0.4568(3) -0.1031(2)
O9A O -0.1996(3) -0.1268(3) -0.2631(3)
O10A O -0.1219(3) -0.2641(3) -0.1834(2)
O11A O -0.4103(4) -0.3610(3) -0.3229(3)
O12A O -0.1227(3) 0.1019(3) -0.2304(2)
O13A O 0.1425(3) -0.1157(3) -0.1339(3)
O14A O 0.2759(3) 0.3009(3) 0.0972(2)
O15A O 0.3662(3) 0.1491(3) 0.1895(3)
O16A O 0.0671(3) 0.0183(3) -0.2208(2)
O17A O 0.0679(3) 0.2701(3) -0.0781(2)
O18A O 0.2768(3) -0.0844(3) 0.1418(2)
O19A O 0.0871(3) -0.2481(3) -0.0086(2)
O20A O -0.0519(4) -0.2127(3) -0.3497(3)
O21A O -0.1725(3) 0.3072(3) -0.1887(3)
O21_2 O 0.1725(3) 0.6928(3) 0.1887(3)
O21A_2 O -0.1725(3) -0.6928(3) -0.1887(3)
N1A N -0.1625(6) -0.4903(5) -0.3192(4)
H1A H -0.1714 -0.4274 -0.2970
H2A H -0.2455 -0.5464 -0.3604
N2A N 0.0416(5) -0.5647(4) -0.2836(4)
H3A H 0.0404 -0.6351 -0.2886
N3A N 0.1217(4) -0.4528(4) -0.0794(3)
H4A H 0.1247 -0.4769 -0.0236
H5A H 0.1430 -0.3777 -0.0622
C1A C -0.0775(8) -0.4660(6) -0.3763(5)
H14A H -0.1302 -0.4643 -0.4440
H15A H -0.0012 -0.3915 -0.3404
C2A C -0.0262(8) -0.5560(6) -0.3869(5)
H16A H 0.0371 -0.5346 -0.4178
H17A H -0.1011 -0.6291 -0.4306
C3A C 0.1806(6) -0.4762(6) -0.2228(5)
H18A H 0.2418 -0.4939 -0.2456
H19A H 0.1864 -0.4027 -0.2318
C4A C 0.2200(6) -0.4710(5) -0.1117(5)
H20A H 0.3093 -0.4091 -0.0701
H21A H 0.2230 -0.5419 -0.1017
As3? As -0.4662(12) -0.1931(14) -0.1163(11)
V5? V -0.3736(12) 0.0736(11) -0.0610(10)
O25? O 0.6430(18) 0.2836(14) 0.5647(13)
O26? O 0.6767(14) 0.3353(12) 0.3998(11)
loop_
_geom_bond_atom_site_label_1
_geom_bond_atom_site_label_2
_geom_bond_site_symmetry_1
_geom_bond_site_symmetry_2
Zn1 O8 1_555 1_555
Zn2 N4 1_555 1_555
As1 O4 1_555 1_555
As2 O5 1_555 1_555
V1 O9 1_555 1_555
V2 O9 1_555 1_555
V3 O4 1_555 1_555
V4 O2 1_555 1_555
V6 O1 1_555 1_555
V7 O3 1_555 1_555
V8 O8 1_555 1_555
V9 O12 1_555 1_555
O4 V7 1_555 1_555
O5 As1 1_555 1_555
O6 V3 1_555 1_555
O7 As2 1_555 1_555
O9 V6 1_555 1_555
O10 V1 1_555 1_555
O11 V1 1_555 1_555
O12 V6 1_555 1_555
O13 V2 1_555 1_555
O14 As1 1_555 1_555
O15 As2 1_555 1_555
O16 V2 1_555 1_555
O17 V7 1_555 1_555
O18 V4 1_555 1_555
O19 V4 1_555 1_555
O20 V2 1_555 1_555
O21 V9 1_555 1_555
N1 Zn1 1_555 1_555
H1 N1 1_555 1_555
H2 N1 1_555 1_555
N2 Zn1 1_555 1_555
H3 N2 1_555 1_555
N3 Zn1 1_555 1_555
H4 N3 1_555 1_555
H5 N3 1_555 1_555
N4 H6 1_555 1_555
H7 N4 1_555 1_555
N5 Zn2 1_555 1_555
H8 N5 1_555 1_555
N6 Zn2 1_555 1_555
H9 N6 1_555 1_555
H10 N6 1_555 1_555
N7 Zn2 1_555 1_555
H11 N7 1_555 1_555
H12 N7 1_555 1_555
N8 Zn2 1_555 1_555
H13 N8 1_555 1_555
C1 N1 1_555 1_555
H14 C1 1_555 1_555
H15 C1 1_555 1_555
C2 N2 1_555 1_555
H16 C2 1_555 1_555
H17 C2 1_555 1_555
C3 N2 1_555 1_555
H18 C3 1_555 1_555
H19 C3 1_555 1_555
C4 N3 1_555 1_555
H20 C4 1_555 1_555
H21 C4 1_555 1_555
C5 N4 1_555 1_555
H22 C5 1_555 1_555
H23 C5 1_555 1_555
C6 N5 1_555 1_555
H24 C6 1_555 1_555
H25 C6 1_555 1_555
C7 N5 1_555 1_555
H26 C7 1_555 1_555
H27 C7 1_555 1_555
C8 N6 1_555 1_555
H28 C8 1_555 1_555
H29 C8 1_555 1_555
C9 N7 1_555 1_555
H30 C9 1_555 1_555
H31 C9 1_555 1_555
C10 N8 1_555 1_555
H32 C10 1_555 1_555
H33 C10 1_555 1_555
C11 N8 1_555 1_555
H34 C11 1_555 1_555
H35 C11 1_555 1_555
Zn1A O8A 1_555 1_555
Zn1_2 O21 1_555 1_555
Zn1A_2 O21A 1_555 1_555
Zn2A N4A 1_555 1_555
As1A O4A 1_555 1_555
As2A O5A 1_555 1_555
V1A O14 1_555 1_555
V2A O9A 1_555 1_555
V3A O4A 1_555 1_555
V4A O2A 1_555 1_555
V6A O15 1_555 1_555
V7A O3A 1_555 1_555
V8A O14 1_555 1_555
V9A O18 1_555 1_555
O1A V6A 1_555 1_555
O4A V7A 1_555 1_555
O5A As1A 1_555 1_555
O6A V3A 1_555 1_555
O7A As2A 1_555 1_555
O8A V8A 1_555 1_555
O9A V1A 1_555 1_555
O10A V1A 1_555 1_555
O11A V1A 1_555 1_555
O12A V6A 1_555 1_555
O13A V2A 1_555 1_555
O14A V1 1_555 1_555
O15A V1 1_555 1_555
O16A V2A 1_555 1_555
O17A V8 1_555 1_555
O18A V6 1_555 1_555
O19A V9 1_555 1_555
O20A V2A 1_555 1_555
O21A V9A 1_555 1_555
O21_2 Zn1 1_555 1_555
O21A_2 Zn1A 1_555 1_555
N1A Zn1A 1_555 1_555
H1A N1A 1_555 1_555
H2A N1A 1_555 1_555
N2A Zn1A 1_555 1_555
H3A N2A 1_555 1_555
N3A Zn1A 1_555 1_555
H4A N3A 1_555 1_555
H5A N3A 1_555 1_555
N4A H6A 1_555 1_555
H7A N4A 1_555 1_555
N5A Zn2A 1_555 1_555
H8A N5A 1_555 1_555
N6A Zn2A 1_555 1_555
H9A N6A 1_555 1_555
H10A N6A 1_555 1_555
N7A Zn2A 1_555 1_555
H11A N7A 1_555 1_555
H12A N7A 1_555 1_555
N8A Zn2A 1_555 1_555
H13A N8A 1_555 1_555
C1A N1A 1_555 1_555
H14A C1A 1_555 1_555
H15A C1A 1_555 1_555
C2A N2A 1_555 1_555
H16A C2A 1_555 1_555
H17A C2A 1_555 1_555
C3A N2A 1_555 1_555
H18A C3A 1_555 1_555
H19A C3A 1_555 1_555
C4A N3A 1_555 1_555
H20A C4A 1_555 1_555
H21A C4A 1_555 1_555
C5A N4A 1_555 1_555
H22A C5A 1_555 1_555
H23A C5A 1_555 1_555
C6A N5A 1_555 1_555
H24A C6A 1_555 1_555
H25A C6A 1_555 1_555
C7A N5A 1_555 1_555
H26A C7A 1_555 1_555
H27A C7A 1_555 1_555
C8A N6A 1_555 1_555
H28A C8A 1_555 1_555
H29A C8A 1_555 1_555
C9A N7A 1_555 1_555
H30A C9A 1_555 1_555
H31A C9A 1_555 1_555
C10A N8A 1_555 1_555
H32A C10A 1_555 1_555
H33A C10A 1_555 1_555
C11A C11 1_555 1_555
H34A C11A 1_555 1_555
H35A C11A 1_555 1_555
V2 O10 1_555 1_555
V3 O7 1_555 1_555
V3 O13 1_555 1_555
V3 O16 1_555 1_555
V4 O7 1_555 1_555
V4 O13 1_555 1_555
V6 O15A 1_555 1_555
V7 O12 1_555 1_555
V7 O16 1_555 1_555
V8 O10 1_555 1_555
V8 O19 1_555 1_555
V8 O14A 1_555 1_555
V9 O17 1_555 1_555
V9 O18A 1_555 1_555
O15 V1A 1_555 1_555
O17 V8A 1_555 1_555
O18 V6A 1_555 1_555
O19 V9A 1_555 1_555
C1 C2 1_555 1_555
C3 C4 1_555 1_555
C5 C6 1_555 1_555
C7 C8 1_555 1_555
C9 C10 1_555 1_555
As1A O14A 1_555 1_555
As2A O15A 1_555 1_555
V2A O10A 1_555 1_555
V3A O7A 1_555 1_555
V3A O13A 1_555 1_555
V3A O16A 1_555 1_555
V4A O7A 1_555 1_555
V4A O13A 1_555 1_555
V4A O18A 1_555 1_555
V4A O19A 1_555 1_555
V6A O9A 1_555 1_555
V7A O12A 1_555 1_555
V7A O16A 1_555 1_555
V7A O17A 1_555 1_555
V8A O10A 1_555 1_555
V8A O19A 1_555 1_555
V9A O12A 1_555 1_555
V9A O17A 1_555 1_555
N8A C11A 1_555 1_555
C1A C2A 1_555 1_555
C3A C4A 1_555 1_555
C5A C6A 1_555 1_555
C7A C8A 1_555 1_555
C9A C10A 1_555 1_555

#END
