
#######################################################################
#
#                 Cambridge Crystallographic Data Centre
#                                CCDC 
#
#######################################################################
#
# If this CIF has been generated from an entry in the Cambridge 
# Structural Database, then it will include bibliographic, chemical, 
# crystal, experimental, refinement or atomic coordinate data resulting 
# from the CCDC's data processing and validation procedures.
#
#######################################################################

data_HOGWAB
_symmetry_cell_setting           monoclinic
_symmetry_space_group_name_H-M   'P 21/c'
_symmetry_Int_Tables_number      14
_space_group_name_Hall           '-P 2ybc'
loop_
_symmetry_equiv_pos_site_id
_symmetry_equiv_pos_as_xyz
1 x,y,z
2 -x,1/2+y,1/2-z
3 -x,-y,-z
4 x,1/2-y,1/2+z
_cell_length_a                   5.9270(10)
_cell_length_b                   5.5350(10)
_cell_length_c                   7.2740(10)
_cell_angle_alpha                90
_cell_angle_beta                 90.59(3)
_cell_angle_gamma                90
_cell_volume                     238.618
loop_
_atom_site_label
_atom_site_type_symbol
_atom_site_fract_x
_atom_site_fract_y
_atom_site_fract_z
Fe1 Fe 0.9074(1) 0.2426(1) 0.9012(1)
O1 O 0.7820(3) 0.5718(4) 1.0336(3)
O2 O 0.5263(4) 0.2263(4) 0.8792(3)
O3 O 0.8918(4) 0.0703(5) 1.1566(3)
C1 C 0.5715(5) 0.6008(6) 1.0451(4)
H1 H 0.7912(65) 0.0257(74) 1.1522(50)
Fe1B Fe 1.0926(1) 0.7574(1) 1.0988(1)
O1B O 1.2180(3) 0.4282(4) 0.9664(3)
C1B C 0.4285(5) 0.3992(6) 0.9549(4)
O1B_2 O 0.2180(3) 0.4282(4) 0.9664(3)
Fe1B_2 Fe 0.0926(1) 0.7574(1) 1.0988(1)
Fe1_2 Fe -0.0926(1) 0.2426(1) 0.9012(1)
O2B O 0.4737(4) 0.7737(4) 1.1208(3)
O1_2 O -0.2180(3) 0.5718(4) 1.0336(3)
O3B O 0.1082(4) 0.9297(5) 0.8434(3)
O3_2 O -0.1082(4) 1.0703(5) 1.1566(3)
O3A O 0.1082(4) 0.5703(5) 1.3434(3)
H1_2 H -0.2088(65) 1.0257(74) 1.1522(50)
H1A H 0.2088(65) 0.5257(74) 1.3478(50)
H1B H 0.2088(65) 0.9743(74) 0.8478(50)
Fe1B_3 Fe 1.0926(1) -0.2426(1) 1.0988(1)
Fe1C Fe 0.9074(1) 0.2574(1) 1.4012(1)
O3B_2 O 1.1082(4) -0.0703(5) 0.8434(3)
Fe1A Fe 1.0926(1) -0.2574(1) 0.5988(1)
H1B_2 H 1.2088(65) -0.0257(74) 0.8478(50)
O3C O 0.8918(4) 0.4297(5) 0.6566(3)
H1C H 0.7912(65) 0.4743(74) 0.6522(50)
loop_
_geom_bond_atom_site_label_1
_geom_bond_atom_site_label_2
_geom_bond_site_symmetry_1
_geom_bond_site_symmetry_2
Fe1 O1 1_555 1_555
O1 C1 1_555 1_555
O2 Fe1 1_555 1_555
O3 Fe1 1_555 1_555
C1 C1B 1_555 1_555
H1 O3 1_555 1_555
Fe1B O1 1_555 1_555
O1B Fe1 1_555 1_555
C1B O2 1_555 1_555
O1B_2 C1B 1_555 1_555
Fe1B_2 O1B_2 1_555 1_555
Fe1_2 O1B_2 1_555 1_555
O2B C1 1_555 1_555
O1_2 Fe1B_2 1_555 1_555
O3B Fe1B_2 1_555 1_555
O3_2 Fe1B_2 1_555 1_555
O3A Fe1B_2 1_555 1_555
H1_2 O3_2 1_555 1_555
H1A O3A 1_555 1_555
H1B O3B 1_555 1_555
Fe1B_3 O3 1_555 1_555
Fe1C O3 1_555 1_555
O3B_2 Fe1 1_555 1_555
Fe1A O3B_2 1_555 1_555
H1B_2 O3B_2 1_555 1_555
O3C Fe1 1_555 1_555
H1C O3C 1_555 1_555
Fe1B O1B 1_555 1_555
Fe1B_2 O2B 1_555 1_555
Fe1_2 O1_2 1_555 1_555
Fe1B_3 O3B_2 1_555 1_555

#END
