
#######################################################################
#
#                 Cambridge Crystallographic Data Centre
#                                CCDC 
#
#######################################################################
#
# If this CIF has been generated from an entry in the Cambridge 
# Structural Database, then it will include bibliographic, chemical, 
# crystal, experimental, refinement or atomic coordinate data resulting 
# from the CCDC's data processing and validation procedures.
#
#######################################################################

data_HOGXIL
_symmetry_cell_setting           monoclinic
_symmetry_space_group_name_H-M   'C 2/c'
_symmetry_Int_Tables_number      15
_space_group_name_Hall           '-C 2yn'
loop_
_symmetry_equiv_pos_site_id
_symmetry_equiv_pos_as_xyz
1 x,y,z
2 1/2+x,1/2+y,z
3 -x,y,1/2-z
4 1/2-x,1/2+y,1/2-z
5 -x,-y,-z
6 1/2-x,1/2-y,-z
7 x,-y,1/2+z
8 1/2+x,1/2-y,1/2+z
_cell_length_a                   20.638(2)
_cell_length_b                   6.5041(7)
_cell_length_c                   13.4368(15)
_cell_angle_alpha                90
_cell_angle_beta                 94.150(2)
_cell_angle_gamma                90
_cell_volume                     1798.91
loop_
_atom_site_label
_atom_site_type_symbol
_atom_site_fract_x
_atom_site_fract_y
_atom_site_fract_z
Co1 Co 0.0000 0.06668(7) 0.2500
Co2 Co 0.0000 0.0000 0.5000
O1 O 0.04688(9) 0.0856(3) 0.38403(12)
H1 H 0.0732(16) 0.030(5) 0.383(3)
O2 O -0.07471(9) -0.1541(3) 0.27321(13)
O3 O -0.04362(8) -0.2768(3) 0.42442(12)
O4 O -0.08328(8) -0.8098(3) 0.45566(12)
O5 O -0.06321(8) -0.6879(3) 0.30443(12)
C1 C -0.08381(12) -0.2548(4) 0.35023(17)
C2 C -0.14942(11) -0.3528(4) 0.35706(17)
C3 C -0.20498(13) -0.2337(5) 0.3467(2)
H2 H -0.2022 -0.0963 0.3283
C4 C -0.26470(14) -0.3179(5) 0.3636(3)
H3 H -0.3019 -0.2368 0.3566
C5 C -0.26943(14) -0.5200(5) 0.3907(3)
H4 H -0.3096 -0.5752 0.4035
C6 C -0.21427(12) -0.6422(5) 0.3989(2)
H5 H -0.2176 -0.7798 0.4166
C7 C -0.15426(11) -0.5610(4) 0.38094(17)
C8 C -0.09519(11) -0.6982(4) 0.38074(17)
K1 K 0.06191(3) 0.49918(9) 0.38506(4)
Co1_2 Co 0.0000 -0.93332(7) 0.2500
Co2_2 Co 0.0000 -1.0000 0.5000
Co2F Co 0.0000 0.0000 0.0000
Co2F_2 Co 0.0000 -1.0000 0.0000
O1B O -0.04688(9) 0.0856(3) 0.11597(12)
O1D O -0.04688(9) -0.0856(3) 0.61597(12)
H1B H -0.0732(16) 0.030(5) 0.117(3)
H1D H -0.0732(16) -0.030(5) 0.617(3)
O2B O 0.07471(9) -0.1541(3) 0.22679(13)
O3B O 0.04362(8) -0.2768(3) 0.07558(12)
O3D O 0.04362(8) 0.2768(3) 0.57558(12)
O3_2 O -0.04362(8) 0.7232(3) 0.42442(12)
O3F O -0.04362(8) 0.2768(3) -0.07558(12)
O3B_2 O 0.04362(8) 0.7232(3) 0.07558(12)
O4B O 0.08328(8) -0.8098(3) 0.04434(12)
O4_2 O -0.08328(8) 0.1902(3) 0.45566(12)
O4D O 0.08328(8) -0.1902(3) 0.54434(12)
O4D_2 O 0.08328(8) 0.8098(3) 0.54434(12)
O4F O -0.08328(8) 0.8098(3) -0.04434(12)
O5B O 0.06321(8) -0.6879(3) 0.19557(12)
O5_2 O -0.06321(8) 0.3121(3) 0.30443(12)
O5B_2 O 0.06321(8) 0.3121(3) 0.19557(12)
C1B C 0.08381(12) -0.2548(4) 0.14977(17)
C2B C 0.14942(11) -0.3528(4) 0.14294(17)
C3B C 0.20498(13) -0.2337(5) 0.1533(2)
H2B H 0.2022 -0.0963 0.1717
C4B C 0.26470(14) -0.3179(5) 0.1364(3)
H3B H 0.3019 -0.2368 0.1434
C5B C 0.26943(14) -0.5200(5) 0.1093(3)
H4B H 0.3096 -0.5752 0.0965
C6B C 0.21427(12) -0.6422(5) 0.1011(2)
H5B H 0.2176 -0.7798 0.0834
C7B C 0.15426(11) -0.5610(4) 0.11906(17)
C8B C 0.09519(11) -0.6982(4) 0.11926(17)
K1B K -0.06191(3) 0.49918(9) 0.11494(4)
K1_2 K 0.06191(3) -0.50082(9) 0.38506(4)
K1D K -0.06191(3) -0.49918(9) 0.61494(4)
K1B_2 K -0.06191(3) -0.50082(9) 0.11494(4)
K1F K 0.06191(3) -0.49918(9) -0.11494(4)
loop_
_geom_bond_atom_site_label_1
_geom_bond_atom_site_label_2
_geom_bond_site_symmetry_1
_geom_bond_site_symmetry_2
Co1 O1 1_555 1_555
Co2 O1 1_555 1_555
O1 H1 1_555 1_555
O2 Co1 1_555 1_555
O3 Co2 1_555 1_555
O4 C8 1_555 1_555
O5 C8 1_555 1_555
C1 O2 1_555 1_555
C2 C1 1_555 1_555
C3 C2 1_555 1_555
H2 C3 1_555 1_555
C4 C3 1_555 1_555
H3 C4 1_555 1_555
C5 C4 1_555 1_555
H4 C5 1_555 1_555
C6 C5 1_555 1_555
H5 C6 1_555 1_555
C7 C2 1_555 1_555
C8 C7 1_555 1_555
K1 O1 1_555 1_555
Co1_2 O5 1_555 1_555
Co2_2 O4 1_555 1_555
Co2F O1B 1_555 1_555
Co2F_2 O4B 1_555 1_555
O1B Co1 1_555 1_555
O1D Co2 1_555 1_555
H1B O1B 1_555 1_555
H1D O1D 1_555 1_555
O2B Co1 1_555 1_555
O3B Co2F 1_555 1_555
O3D Co2 1_555 1_555
O3_2 K1 1_555 1_555
O3F Co2F 1_555 1_555
O3B_2 K1B 1_555 1_555
O4B C8B 1_555 1_555
O4_2 Co2 1_555 1_555
O4D Co2 1_555 1_555
O4D_2 K1 1_555 1_555
O4F K1B 1_555 1_555
O5B Co1_2 1_555 1_555
O5_2 Co1 1_555 1_555
O5B_2 Co1 1_555 1_555
C1B O2B 1_555 1_555
C2B C1B 1_555 1_555
C3B C2B 1_555 1_555
H2B C3B 1_555 1_555
C4B C3B 1_555 1_555
H3B C4B 1_555 1_555
C5B C4B 1_555 1_555
H4B C5B 1_555 1_555
C6B C5B 1_555 1_555
H5B C6B 1_555 1_555
C7B C2B 1_555 1_555
C8B O5B 1_555 1_555
K1B O1B 1_555 1_555
K1_2 O3 1_555 1_555
K1D O3 1_555 1_555
K1B_2 O5 1_555 1_555
K1F O3B 1_555 1_555
O3 C1 1_555 1_555
O4 K1D 1_555 1_555
O5 K1_2 1_555 1_555
C6 C7 1_555 1_555
K1 O3D 1_555 1_555
K1 O5_2 1_555 1_555
K1 O5B_2 1_555 1_555
O1D K1D 1_555 1_555
O3B C1B 1_555 1_555
O3B K1B_2 1_555 1_555
O3F K1B 1_555 1_555
O4B K1F 1_555 1_555
O4D K1_2 1_555 1_555
O5B K1_2 1_555 1_555
O5B K1B_2 1_555 1_555
O5_2 K1B 1_555 1_555
O5B_2 K1B 1_555 1_555
C6B C7B 1_555 1_555
C7B C8B 1_555 1_555

#END
