
#######################################################################
#
#                 Cambridge Crystallographic Data Centre
#                                CCDC 
#
#######################################################################
#
# If this CIF has been generated from an entry in the Cambridge 
# Structural Database, then it will include bibliographic, chemical, 
# crystal, experimental, refinement or atomic coordinate data resulting 
# from the CCDC's data processing and validation procedures.
#
#######################################################################

data_HOHBAJ
_symmetry_cell_setting           triclinic
_symmetry_space_group_name_H-M   'P -1'
_symmetry_Int_Tables_number      2
_space_group_name_Hall           '-P 1'
loop_
_symmetry_equiv_pos_site_id
_symmetry_equiv_pos_as_xyz
1 x,y,z
2 -x,-y,-z
_cell_length_a                   7.292(3)
_cell_length_b                   10.070(4)
_cell_length_c                   10.272(4)
_cell_angle_alpha                113.983(3)
_cell_angle_beta                 99.6830(10)
_cell_angle_gamma                103.652(5)
_cell_volume                     639.366
loop_
_atom_site_label
_atom_site_type_symbol
_atom_site_fract_x
_atom_site_fract_y
_atom_site_fract_z
Fe1 Fe 0.40800(4) 0.62134(3) 0.12121(3)
O1 O 1.3872(2) 0.82953(18) 1.13638(19)
N1 N 0.6427(3) 0.7340(2) 0.3243(2)
O2 O 1.1840(3) 0.62668(18) 0.93183(19)
C1 C 1.0519(3) 0.9235(2) 0.7576(2)
C2 C 1.2615(3) 0.7712(2) 1.0108(3)
C3 C 1.2958(3) 1.0378(2) 1.0478(2)
H1 H 1.3766 1.0768 1.1482
C4 C 1.1382(3) 1.0822(2) 0.8512(2)
H2 H 1.1125 1.1528 0.8159
C5 C 1.0943(3) 0.8222(2) 0.8098(2)
H3 H 1.0410 0.7139 0.7460
C6 C 1.2596(3) 1.1392(2) 0.9951(2)
C7 C 1.2135(3) 0.8791(2) 0.9541(2)
C8 C 0.7690(3) 0.6659(3) 0.3520(2)
H4 H 0.7646 0.5713 0.2723
C9 C 0.6565(4) 0.8698(3) 0.4361(3)
H5 H 0.5716 0.9231 0.4154
C10 C 0.7878(4) 0.9357(3) 0.5764(3)
H6 H 0.7911 1.0309 0.6522
C11 C 0.9054(3) 0.7249(3) 0.4892(3)
H7 H 0.9925 0.6719 0.5037
C12 C 0.9155(3) 0.8620(2) 0.6065(2)
O3 O 1.4020(3) 1.36160(19) 1.23196(19)
O4 O 0.1840(3) 0.6010(2) 0.2286(2)
H8 H 0.2184 0.6379 0.3283
H9 H 0.0556 0.5561 0.1746
C13 C 1.3548(3) 1.3099(2) 1.0951(3)
O5 O 1.3813(3) 1.39411(18) 1.02770(18)
Fe1_2 Fe 1.40800(4) 0.62134(3) 1.12121(3)
Fe1_3 Fe 1.40800(4) 1.62134(3) 1.12121(3)
Fe1A Fe 1.59200(4) 1.37866(3) 0.87879(3)
O1_2 O 0.3872(2) 0.82953(18) 0.13638(19)
O2_2 O 0.1840(3) 0.62668(18) -0.06817(19)
O5_2 O 0.3813(3) 0.39411(18) 0.02770(18)
O5A O 0.6187(3) 0.60589(18) -0.02770(18)
O6 O 0.3267(4) 0.5896(4) 0.4877(3)
H10 H 0.2083 0.5819 0.5045
H11 H 0.4268 0.5901 0.5527
loop_
_geom_bond_atom_site_label_1
_geom_bond_atom_site_label_2
_geom_bond_site_symmetry_1
_geom_bond_site_symmetry_2
Fe1 N1 1_555 1_555
O1 C2 1_555 1_555
N1 C8 1_555 1_555
O2 C2 1_555 1_555
C1 C4 1_555 1_555
C2 C7 1_555 1_555
C3 H1 1_555 1_555
C4 H2 1_555 1_555
C5 C1 1_555 1_555
H3 C5 1_555 1_555
C6 C3 1_555 1_555
C7 C3 1_555 1_555
C8 H4 1_555 1_555
C9 N1 1_555 1_555
H5 C9 1_555 1_555
C10 C9 1_555 1_555
H6 C10 1_555 1_555
C11 C8 1_555 1_555
H7 C11 1_555 1_555
C12 C1 1_555 1_555
O3 C13 1_555 1_555
O4 Fe1 1_555 1_555
H8 O4 1_555 1_555
H9 O4 1_555 1_555
C13 C6 1_555 1_555
O5 C13 1_555 1_555
O6 H10 1_555 1_555
H11 O6 1_555 1_555
Fe1_2 O1 1_555 1_555
Fe1_3 O5 1_555 1_555
Fe1A O5 1_555 1_555
O1_2 Fe1 1_555 1_555
O2_2 Fe1 1_555 1_555
O5_2 Fe1 1_555 1_555
O5A Fe1 1_555 1_555
O2 Fe1_2 1_555 1_555
C4 C6 1_555 1_555
C5 C7 1_555 1_555
C10 C12 1_555 1_555
C11 C12 1_555 1_555

#END
