
#######################################################################
#
#                 Cambridge Crystallographic Data Centre
#                                CCDC 
#
#######################################################################
#
# If this CIF has been generated from an entry in the Cambridge 
# Structural Database, then it will include bibliographic, chemical, 
# crystal, experimental, refinement or atomic coordinate data resulting 
# from the CCDC's data processing and validation procedures.
#
#######################################################################

data_HOHBOX
_symmetry_cell_setting           triclinic
_symmetry_space_group_name_H-M   'P -1'
_symmetry_Int_Tables_number      2
_space_group_name_Hall           '-P 1'
loop_
_symmetry_equiv_pos_site_id
_symmetry_equiv_pos_as_xyz
1 x,y,z
2 -x,-y,-z
_cell_length_a                   7.137(3)
_cell_length_b                   7.968(3)
_cell_length_c                   9.108(4)
_cell_angle_alpha                75.892(17)
_cell_angle_beta                 68.644(15)
_cell_angle_gamma                76.345(16)
_cell_volume                     461.572
loop_
_atom_site_label
_atom_site_type_symbol
_atom_site_fract_x
_atom_site_fract_y
_atom_site_fract_z
Fe1 Fe 0.47880(5) 0.25603(4) 0.21794(4)
O1 O 1.2469(3) -0.5082(3) 0.2210(2)
O2 O 1.4349(3) -0.3049(2) 0.0541(2)
O3 O 1.2686(3) 0.1122(3) 0.2391(3)
O4 O 1.3036(3) -0.1619(3) 0.3770(2)
O5 O 0.4085(4) 0.2521(4) 0.4645(3)
O6 O 0.6917(4) 0.4306(3) 0.1629(3)
N1 N 0.7293(4) 0.0389(3) 0.2104(3)
C1 C 1.2685(4) -0.3537(3) 0.1476(3)
C2 C 1.2247(4) -0.0407(4) 0.2931(3)
C3 C 0.8813(4) 0.0484(3) 0.2595(3)
C4 C 1.0579(4) -0.0740(3) 0.2433(3)
C5 C 1.0789(4) -0.2179(3) 0.1739(3)
C6 C 0.9239(4) -0.2284(3) 0.1202(3)
C7 C 0.7542(4) -0.0988(3) 0.1389(3)
H1 H 0.936(4) -0.317(4) 0.069(4)
H2 H 0.860(5) 0.136(4) 0.315(4)
H3 H 0.652(5) -0.095(4) 0.101(4)
H4 H 0.721(6) 0.438(5) 0.218(5)
H5 H 0.471(7) 0.207(5) 0.512(5)
H6 H 0.343(7) 0.321(5) 0.493(5)
H7 H 0.639(6) 0.511(5) 0.136(5)
Fe1_2 Fe 1.47880(5) -0.74397(4) 0.21794(4)
Fe1_3 Fe 1.47880(5) 0.25603(4) 0.21794(4)
Fe1A Fe 1.52120(5) -0.25603(4) -0.21794(4)
O1_2 O 0.2469(3) 0.4918(3) 0.2210(2)
O2A O 0.5651(3) 0.3049(2) -0.0541(2)
O3_2 O 0.2686(3) 0.1122(3) 0.2391(3)
O7 O 0.8347(3) 0.4504(3) 0.4057(2)
loop_
_geom_bond_atom_site_label_1
_geom_bond_atom_site_label_2
_geom_bond_site_symmetry_1
_geom_bond_site_symmetry_2
Fe1 O5 1_555 1_555
O1 C1 1_555 1_555
O2 C1 1_555 1_555
O3 C2 1_555 1_555
O4 C2 1_555 1_555
O5 H5 1_555 1_555
O6 Fe1 1_555 1_555
N1 Fe1 1_555 1_555
C1 C5 1_555 1_555
C2 C4 1_555 1_555
C3 N1 1_555 1_555
C4 C3 1_555 1_555
C5 C4 1_555 1_555
C6 C5 1_555 1_555
C7 N1 1_555 1_555
H1 C6 1_555 1_555
H2 C3 1_555 1_555
H3 C7 1_555 1_555
H4 O6 1_555 1_555
H6 O5 1_555 1_555
H7 O6 1_555 1_555
Fe1_2 O1 1_555 1_555
Fe1_3 O3 1_555 1_555
Fe1A O2 1_555 1_555
O1_2 Fe1 1_555 1_555
O2A Fe1 1_555 1_555
O3_2 Fe1 1_555 1_555
C6 C7 1_555 1_555

#END
