
#######################################################################
#
#                 Cambridge Crystallographic Data Centre
#                                CCDC 
#
#######################################################################
#
# If this CIF has been generated from an entry in the Cambridge 
# Structural Database, then it will include bibliographic, chemical, 
# crystal, experimental, refinement or atomic coordinate data resulting 
# from the CCDC's data processing and validation procedures.
#
#######################################################################

data_HOHDUF
_symmetry_cell_setting           orthorhombic
_symmetry_space_group_name_H-M   'P b c a'
_symmetry_Int_Tables_number      61
_space_group_name_Hall           '-P 2ac 2ab'
loop_
_symmetry_equiv_pos_site_id
_symmetry_equiv_pos_as_xyz
1 x,y,z
2 1/2+x,1/2-y,-z
3 -x,1/2+y,1/2-z
4 1/2-x,-y,1/2+z
5 -x,-y,-z
6 1/2-x,1/2+y,z
7 x,1/2-y,1/2+z
8 1/2+x,y,1/2-z
_cell_length_a                   14.056(5)
_cell_length_b                   13.731(4)
_cell_length_c                   22.565(8)
_cell_angle_alpha                90
_cell_angle_beta                 90
_cell_angle_gamma                90
_cell_volume                     4355.11
loop_
_atom_site_label
_atom_site_type_symbol
_atom_site_fract_x
_atom_site_fract_y
_atom_site_fract_z
Cd1 Cd 1.00887(2) 0.82538(2) 0.110514(15)
O1 O 1.1195(2) 0.7076(2) 0.12255(15)
O2 O 1.0220(3) 0.5796(2) 0.13307(18)
O3 O 1.3687(2) 0.4246(2) 0.07893(18)
O4 O 1.3912(3) 0.4304(2) 0.17516(18)
N1 N 0.8524(3) 0.9070(2) 0.08972(19)
C1 C 0.8190(3) 0.8015(3) 0.1800(2)
N2 N 0.9561(3) 0.7664(3) 0.02262(17)
C2 C 0.8414(4) 1.0139(3) 0.1092(3)
C3 C 0.7455(4) 1.0563(4) 0.0879(3)
H1 H 0.6948 1.0134 0.0993
H2 H 0.7464 1.063 0.0456
H3 H 0.7357 1.119 0.1058
C4 C 0.8513(4) 1.0198(3) 0.1758(3)
H4 H 0.9114 0.9926 0.1875
H5 H 0.8007 0.9838 0.1942
H6 H 0.8482 1.0867 0.1881
C5 C 0.9239(4) 1.0718(3) 0.0799(3)
H7 H 0.9261 1.1364 0.0962
H8 H 0.9135 1.0756 0.0379
H9 H 0.9831 1.0393 0.0875
C6 C 0.7850(3) 0.8422(3) 0.1217(2)
H10 H 0.7692 0.788 0.0959
H11 H 0.7268 0.8783 0.1289
C7 C 0.7570(4) 0.7822(4) 0.2257(3)
H12 H 0.6929 0.7979 0.2221
C8 C 0.7899(5) 0.7400(4) 0.2763(3)
H13 H 0.7488 0.7276 0.3077
C9 C 0.8836(5) 0.7162(4) 0.2804(3)
H14 H 0.9065 0.6852 0.3141
C10 C 0.9438(4) 0.7379(4) 0.2348(3)
H15 H 1.0081 0.7231 0.2383
N3 N 0.9114(3) 0.7807(3) 0.18468(17)
C11 C 0.8363(4) 0.8945(3) 0.0252(2)
H16 H 0.8647 0.9492 0.0045
H17 H 0.7683 0.8963 0.0176
C12 C 0.8758(4) 0.8023(3) -0.0001(2)
C13 C 0.9960(4) 0.6879(4) -0.0028(3)
H18 H 1.0519 0.6632 0.0133
C14 C 0.9581(6) 0.6432(4) -0.0511(3)
H19 H 0.9879 0.5895 -0.068
C15 C 0.8755(6) 0.6789(5) -0.0744(3)
H20 H 0.8484 0.6493 -0.1074
C16 C 0.8322(4) 0.7587(4) -0.0490(3)
H21 H 0.7754 0.7829 -0.0641
C17 C 1.1013(4) 0.6178(4) 0.1310(2)
C18 C 1.1879(4) 0.5571(3) 0.1351(2)
C19 C 1.2587(4) 0.5115(3) 0.1345(2)
C20 C 1.3460(4) 0.4516(3) 0.1306(3)
Cd1E Cd 1.49113(2) 0.32538(2) 0.110514(15)
O3E O 1.1313(2) 0.9246(2) 0.07893(18)
O4E O 1.1088(3) 0.9304(2) 0.17516(18)
O5 O 0.0764(4) 0.9332(3) 0.3033(2)
H22 H 0.0252 0.9366 0.2834
H23 H 0.1081 0.9854 0.2987
loop_
_geom_bond_atom_site_label_1
_geom_bond_atom_site_label_2
_geom_bond_site_symmetry_1
_geom_bond_site_symmetry_2
Cd1 O1 1_555 1_555
O1 C17 1_555 1_555
O2 C17 1_555 1_555
O3 C20 1_555 1_555
O4 C20 1_555 1_555
N1 Cd1 1_555 1_555
C1 C6 1_555 1_555
N2 Cd1 1_555 1_555
C2 N1 1_555 1_555
C3 C2 1_555 1_555
H1 C3 1_555 1_555
H2 C3 1_555 1_555
H3 C3 1_555 1_555
C4 C2 1_555 1_555
H4 C4 1_555 1_555
H5 C4 1_555 1_555
H6 C4 1_555 1_555
C5 C2 1_555 1_555
H7 C5 1_555 1_555
H8 C5 1_555 1_555
H9 C5 1_555 1_555
C6 N1 1_555 1_555
H10 C6 1_555 1_555
H11 C6 1_555 1_555
C7 C1 1_555 1_555
H12 C7 1_555 1_555
C8 C7 1_555 1_555
H13 C8 1_555 1_555
C9 C8 1_555 1_555
H14 C9 1_555 1_555
C10 C9 1_555 1_555
H15 C10 1_555 1_555
N3 Cd1 1_555 1_555
C11 N1 1_555 1_555
H16 C11 1_555 1_555
H17 C11 1_555 1_555
C12 N2 1_555 1_555
C13 N2 1_555 1_555
H18 C13 1_555 1_555
C14 C13 1_555 1_555
H19 C14 1_555 1_555
C15 C14 1_555 1_555
H20 C15 1_555 1_555
C16 C12 1_555 1_555
H21 C16 1_555 1_555
C17 C18 1_555 1_555
C18 C19 1_555 1_555
C19 C20 1_555 1_555
O5 H22 1_555 1_555
H23 O5 1_555 1_555
Cd1E O3 1_555 1_555
O3E Cd1 1_555 1_555
O4E Cd1 1_555 1_555
O4 Cd1E 1_555 1_555
C1 N3 1_555 1_555
C10 N3 1_555 1_555
C11 C12 1_555 1_555
C15 C16 1_555 1_555

#END
