
#######################################################################
#
#                 Cambridge Crystallographic Data Centre
#                                CCDC 
#
#######################################################################
#
# If this CIF has been generated from an entry in the Cambridge 
# Structural Database, then it will include bibliographic, chemical, 
# crystal, experimental, refinement or atomic coordinate data resulting 
# from the CCDC's data processing and validation procedures.
#
#######################################################################

data_HOHDEP
_symmetry_cell_setting           monoclinic
_symmetry_space_group_name_H-M   'P 21/n'
_symmetry_Int_Tables_number      14
_space_group_name_Hall           '-P 2yn'
loop_
_symmetry_equiv_pos_site_id
_symmetry_equiv_pos_as_xyz
1 x,y,z
2 1/2-x,1/2+y,1/2-z
3 -x,-y,-z
4 1/2+x,1/2-y,1/2+z
_cell_length_a                   8.7267(7)
_cell_length_b                   14.1120(13)
_cell_length_c                   14.2172(14)
_cell_angle_alpha                90
_cell_angle_beta                 98.500(4)
_cell_angle_gamma                90
_cell_volume                     1731.63
loop_
_atom_site_label
_atom_site_type_symbol
_atom_site_fract_x
_atom_site_fract_y
_atom_site_fract_z
Zn1 Zn 0.18667(3) 0.254102(17) 0.336301(18)
O1 O 0.14858(19) 0.16835(12) 0.44526(12)
O2 O 0.0329(2) 0.08595(13) 0.32209(13)
O3 O 0.32685(19) 0.35811(13) 0.38854(13)
O4 O 0.2004(2) 0.4202(2) 0.49523(19)
N1 N -0.0394(2) 0.30690(13) 0.30582(13)
N2 N 0.1436(2) 0.24727(13) 0.17712(15)
N3 N 0.3825(2) 0.17931(14) 0.30217(14)
C1 C -0.1149(3) 0.34977(18) 0.37025(18)
H1 H -0.0647 0.3569 0.4323
C2 C -0.2632(3) 0.3831(2) 0.3473(2)
H2 H -0.3137 0.4113 0.3933
C3 C -0.3358(3) 0.3741(2) 0.2551(2)
H3 H -0.4358 0.3972 0.2378
C4 C -0.2602(3) 0.33082(19) 0.1888(2)
H4 H -0.3077 0.3245 0.1261
C5 C -0.1117(3) 0.29675(17) 0.21693(17)
C6 C -0.0264(3) 0.24226(18) 0.14976(18)
H5 H -0.0587 0.1765 0.1488
H6 H -0.0539 0.2675 0.086
C7 C 0.2195(3) 0.15868(19) 0.15300(18)
H7 H 0.2318 0.1594 0.0863
H8 H 0.1551 0.1049 0.1636
C8 C 0.3765(3) 0.14866(17) 0.21350(18)
C9 C 0.5030(3) 0.1080(2) 0.1809(2)
H9 H 0.497 0.088 0.1182
C10 C 0.6378(3) 0.0979(2) 0.2438(3)
H10 H 0.7248 0.0712 0.2236
C11 C 0.6440(3) 0.1268(2) 0.3355(2)
H11 H 0.7336 0.119 0.3791
C12 C 0.5147(3) 0.1678(2) 0.3619(2)
H12 H 0.519 0.1887 0.4243
C13 C 0.2124(3) 0.3282(2) 0.1320(2)
H13 H 0.1977 0.3181 0.0638
H14 H 0.3231 0.3289 0.1539
C14 C 0.1480(4) 0.4227(2) 0.1511(3)
H15 H 0.0394 0.4242 0.1266
H16 H 0.2007 0.4709 0.1206
H17 H 0.1622 0.4339 0.2184
C15 C 0.0705(3) 0.09900(18) 0.40776(18)
C16 C 0.0215(3) 0.02864(18) 0.47423(18)
C17 C 0.3111(3) 0.41344(17) 0.45372(17)
C18 C 0.4467(2) 0.47478(16) 0.48604(16)
O1B O -0.14858(19) -0.16835(12) 0.55474(12)
O2B O -0.0329(2) -0.08595(13) 0.67791(13)
C15B C -0.0705(3) -0.09900(18) 0.59224(18)
C16B C -0.0215(3) -0.02864(18) 0.52577(18)
O3B O 0.67315(19) 0.64189(13) 0.61146(13)
O4B O 0.7996(2) 0.5798(2) 0.50477(19)
C17B C 0.6889(3) 0.58656(17) 0.54628(17)
C18B C 0.5533(2) 0.52522(16) 0.51396(16)
Zn1B Zn -0.18667(3) -0.254102(17) 0.663699(18)
N1B N 0.0394(2) -0.30690(13) 0.69418(13)
N2B N -0.1436(2) -0.24727(13) 0.82288(15)
N3B N -0.3825(2) -0.17931(14) 0.69783(14)
C1B C 0.1149(3) -0.34977(18) 0.62975(18)
H1B H 0.0647 -0.3569 0.5677
C2B C 0.2632(3) -0.3831(2) 0.6527(2)
H2B H 0.3137 -0.4113 0.6067
C3B C 0.3358(3) -0.3741(2) 0.7449(2)
H3B H 0.4358 -0.3972 0.7622
C4B C 0.2602(3) -0.33082(19) 0.8112(2)
H4B H 0.3077 -0.3245 0.8739
C5B C 0.1117(3) -0.29675(17) 0.78307(17)
C6B C 0.0264(3) -0.24226(18) 0.85024(18)
H5B H 0.0587 -0.1765 0.8512
H6B H 0.0539 -0.2675 0.914
C7B C -0.2195(3) -0.15868(19) 0.84700(18)
H7B H -0.2318 -0.1594 0.9137
H8B H -0.1551 -0.1049 0.8364
C8B C -0.3765(3) -0.14866(17) 0.78650(18)
C9B C -0.5030(3) -0.1080(2) 0.8191(2)
H9B H -0.497 -0.088 0.8818
C10B C -0.6378(3) -0.0979(2) 0.7562(3)
H10B H -0.7248 -0.0712 0.7764
C11B C -0.6440(3) -0.1268(2) 0.6645(2)
H11B H -0.7336 -0.119 0.6209
C12B C -0.5147(3) -0.1678(2) 0.6381(2)
H12B H -0.519 -0.1887 0.5757
C13B C -0.2124(3) -0.3282(2) 0.8680(2)
H13B H -0.1977 -0.3181 0.9362
H14B H -0.3231 -0.3289 0.8461
C14B C -0.1480(4) -0.4227(2) 0.8489(3)
H15B H -0.0394 -0.4242 0.8734
H16B H -0.2007 -0.4709 0.8794
H17B H -0.1622 -0.4339 0.7816
Zn1B_2 Zn 0.81333(3) 0.745898(17) 0.663699(18)
O3B_2 O -0.32685(19) -0.35811(13) 0.61146(13)
loop_
_geom_bond_atom_site_label_1
_geom_bond_atom_site_label_2
_geom_bond_site_symmetry_1
_geom_bond_site_symmetry_2
Zn1 O1 1_555 1_555
O1 C15 1_555 1_555
O2 C15 1_555 1_555
O3 Zn1 1_555 1_555
O4 C17 1_555 1_555
N1 Zn1 1_555 1_555
N2 Zn1 1_555 1_555
N3 Zn1 1_555 1_555
C1 N1 1_555 1_555
H1 C1 1_555 1_555
C2 C1 1_555 1_555
H2 C2 1_555 1_555
C3 C2 1_555 1_555
H3 C3 1_555 1_555
C4 C3 1_555 1_555
H4 C4 1_555 1_555
C5 N1 1_555 1_555
C6 N2 1_555 1_555
H5 C6 1_555 1_555
H6 C6 1_555 1_555
C7 N2 1_555 1_555
H7 C7 1_555 1_555
H8 C7 1_555 1_555
C8 N3 1_555 1_555
C9 C8 1_555 1_555
H9 C9 1_555 1_555
C10 C9 1_555 1_555
H10 C10 1_555 1_555
C11 C10 1_555 1_555
H11 C11 1_555 1_555
C12 N3 1_555 1_555
H12 C12 1_555 1_555
C13 N2 1_555 1_555
H13 C13 1_555 1_555
H14 C13 1_555 1_555
C14 C13 1_555 1_555
H15 C14 1_555 1_555
H16 C14 1_555 1_555
H17 C14 1_555 1_555
C15 C16 1_555 1_555
C16 C16B 1_555 1_555
C17 O3 1_555 1_555
C18 C17 1_555 1_555
O1B C15B 1_555 1_555
O2B C15B 1_555 1_555
C15B C16B 1_555 1_555
O3B C17B 1_555 1_555
O4B C17B 1_555 1_555
C17B C18B 1_555 1_555
C18B C18 1_555 1_555
Zn1B O1B 1_555 1_555
N1B Zn1B 1_555 1_555
N2B Zn1B 1_555 1_555
N3B Zn1B 1_555 1_555
C1B N1B 1_555 1_555
H1B C1B 1_555 1_555
C2B C1B 1_555 1_555
H2B C2B 1_555 1_555
C3B C2B 1_555 1_555
H3B C3B 1_555 1_555
C4B C3B 1_555 1_555
H4B C4B 1_555 1_555
C5B N1B 1_555 1_555
C6B N2B 1_555 1_555
H5B C6B 1_555 1_555
H6B C6B 1_555 1_555
C7B N2B 1_555 1_555
H7B C7B 1_555 1_555
H8B C7B 1_555 1_555
C8B N3B 1_555 1_555
C9B C8B 1_555 1_555
H9B C9B 1_555 1_555
C10B C9B 1_555 1_555
H10B C10B 1_555 1_555
C11B C10B 1_555 1_555
H11B C11B 1_555 1_555
C12B N3B 1_555 1_555
H12B C12B 1_555 1_555
C13B N2B 1_555 1_555
H13B C13B 1_555 1_555
H14B C13B 1_555 1_555
C14B C13B 1_555 1_555
H15B C14B 1_555 1_555
H16B C14B 1_555 1_555
H17B C14B 1_555 1_555
Zn1B_2 O3B 1_555 1_555
O3B_2 Zn1B 1_555 1_555
C4 C5 1_555 1_555
C5 C6 1_555 1_555
C7 C8 1_555 1_555
C11 C12 1_555 1_555
C4B C5B 1_555 1_555
C5B C6B 1_555 1_555
C7B C8B 1_555 1_555
C11B C12B 1_555 1_555

#END
