
#######################################################################
#
#                 Cambridge Crystallographic Data Centre
#                                CCDC 
#
#######################################################################
#
# If this CIF has been generated from an entry in the Cambridge 
# Structural Database, then it will include bibliographic, chemical, 
# crystal, experimental, refinement or atomic coordinate data resulting 
# from the CCDC's data processing and validation procedures.
#
#######################################################################

data_HOHFAN
_symmetry_cell_setting           orthorhombic
_symmetry_space_group_name_H-M   'P b c a'
_symmetry_Int_Tables_number      61
_space_group_name_Hall           '-P 2ac 2ab'
loop_
_symmetry_equiv_pos_site_id
_symmetry_equiv_pos_as_xyz
1 x,y,z
2 1/2+x,1/2-y,-z
3 -x,1/2+y,1/2-z
4 1/2-x,-y,1/2+z
5 -x,-y,-z
6 1/2-x,1/2+y,z
7 x,1/2-y,1/2+z
8 1/2+x,y,1/2-z
_cell_length_a                   13.1609(5)
_cell_length_b                   17.9462(6)
_cell_length_c                   18.4789(7)
_cell_angle_alpha                90
_cell_angle_beta                 90
_cell_angle_gamma                90
_cell_volume                     4364.5
loop_
_atom_site_label
_atom_site_type_symbol
_atom_site_fract_x
_atom_site_fract_y
_atom_site_fract_z
Cd1 Cd 0.269828(16) 1.07839(10) 0.573325(11)
N1 N 0.2108(2) 1.08108(14) 0.69321(14)
O1 O 0.64285(19) 1.34003(13) 0.44601(16)
O2 O 0.7228(2) 1.33408(14) 0.54921(19)
O3 O 0.44435(17) 1.09227(11) 0.52361(12)
O4 O 0.37838(18) 1.17529(12) 0.59671(13)
C1 C 0.2324(2) 0.91112(15) 0.53045(16)
C2 C 0.3236(3) 0.90581(15) 0.57923(16)
H1 H 0.3238 0.8575 0.6027
H2 H 0.3848 0.9096 0.5502
N2 N 0.32468(17) 0.96429(12) 0.63464(12)
C3 C 0.4778(2) 0.91123(16) 0.70148(16)
N3 N 0.20465(18) 0.97978(12) 0.50950(13)
C4 C 0.4281(2) 0.97676(15) 0.66461(16)
H3 H 0.4243 1.0174 0.6991
H4 H 0.4719 0.9928 0.6254
C5 C 0.4645(3) 0.8975(2) 0.77408(19)
H5 H 0.4237 0.929 0.8014
C6 C 0.5408(3) 0.86469(18) 0.66273(19)
H6 H 0.5519 0.8737 0.6138
C7 C 0.2487(2) 0.95005(17) 0.69093(16)
H7 H 0.275 0.9131 0.7243
H8 H 0.1879 0.9298 0.6687
C8 C 0.2215(2) 1.01952(18) 0.73235(16)
C9 C 0.2032(2) 1.0193(2) 0.80618(18)
H9 H 0.2116 0.976 0.8331
C10 C 0.1723(3) 1.0845(3) 0.8390(2)
H10 H 0.1587 1.0854 0.8884
C11 C 0.1617(3) 1.1470(3) 0.7989(2)
H11 H 0.1417 1.1915 0.8204
C12 C 0.1808(3) 1.1439(2) 0.7262(2)
H12 H 0.1727 1.1869 0.6987
C13 C 0.1813(3) 0.84866(17) 0.50526(19)
H13 H 0.1991 0.8014 0.5216
C14 C 0.1044(3) 0.85718(19) 0.4562(2)
H14 H 0.0704 0.8156 0.4383
C15 C 0.0776(3) 0.92725(19) 0.43337(18)
H15 H 0.0262 0.934 0.3995
C16 C 0.1287(3) 0.98701(17) 0.46193(17)
H16 H 0.1096 1.0347 0.4476
C17 C 0.6586(3) 1.31333(17) 0.5068(2)
C18 C 0.5901(2) 1.25145(16) 0.52656(17)
C19 C 0.4453(2) 1.15286(17) 0.55476(17)
C20 C 0.5288(2) 1.20519(16) 0.54016(16)
C21 C 0.5112(4) 0.8372(3) 0.8069(3)
H17 H 0.5015 0.8282 0.8559
C22 C 0.5880(4) 0.8044(2) 0.6960(3)
H18 H 0.6308 0.7733 0.6697
C23 C 0.5707(4) 0.7915(3) 0.7675(4)
H19 H 0.6006 0.7504 0.7896
Cd1A Cd 0.769828(16) 1.42161(10) 0.426675(11)
O1A O 0.14285(19) 1.15997(13) 0.55399(16)
loop_
_geom_bond_atom_site_label_1
_geom_bond_atom_site_label_2
_geom_bond_site_symmetry_1
_geom_bond_site_symmetry_2
Cd1 N1 1_555 1_555
N1 C8 1_555 1_555
O1 C17 1_555 1_555
O2 C17 1_555 1_555
O3 Cd1 1_555 1_555
O4 Cd1 1_555 1_555
C1 C2 1_555 1_555
C2 H1 1_555 1_555
H2 C2 1_555 1_555
N2 Cd1 1_555 1_555
C3 C4 1_555 1_555
N3 Cd1 1_555 1_555
C4 N2 1_555 1_555
H3 C4 1_555 1_555
H4 C4 1_555 1_555
C5 C3 1_555 1_555
H5 C5 1_555 1_555
C6 C3 1_555 1_555
H6 C6 1_555 1_555
C7 N2 1_555 1_555
H7 C7 1_555 1_555
H8 C7 1_555 1_555
C8 C7 1_555 1_555
C9 C8 1_555 1_555
H9 C9 1_555 1_555
C10 C9 1_555 1_555
H10 C10 1_555 1_555
C11 C10 1_555 1_555
H11 C11 1_555 1_555
C12 N1 1_555 1_555
H12 C12 1_555 1_555
C13 C1 1_555 1_555
H13 C13 1_555 1_555
C14 C13 1_555 1_555
H14 C14 1_555 1_555
C15 C14 1_555 1_555
H15 C15 1_555 1_555
C16 N3 1_555 1_555
H16 C16 1_555 1_555
C17 C18 1_555 1_555
C18 C20 1_555 1_555
C19 O3 1_555 1_555
C20 C19 1_555 1_555
C21 C5 1_555 1_555
H17 C21 1_555 1_555
C22 C6 1_555 1_555
H18 C22 1_555 1_555
C23 C21 1_555 1_555
H19 C23 1_555 1_555
Cd1A O1 1_555 1_555
O1A Cd1 1_555 1_555
O4 C19 1_555 1_555
C1 N3 1_555 1_555
C2 N2 1_555 1_555
C11 C12 1_555 1_555
C15 C16 1_555 1_555
C22 C23 1_555 1_555

#END
