
#######################################################################
#
#                 Cambridge Crystallographic Data Centre
#                                CCDC 
#
#######################################################################
#
# If this CIF has been generated from an entry in the Cambridge 
# Structural Database, then it will include bibliographic, chemical, 
# crystal, experimental, refinement or atomic coordinate data resulting 
# from the CCDC's data processing and validation procedures.
#
#######################################################################

data_HOHKUM
_symmetry_cell_setting           monoclinic
_symmetry_space_group_name_H-M   'P 21/c'
_symmetry_Int_Tables_number      14
_space_group_name_Hall           '-P 2ybc'
loop_
_symmetry_equiv_pos_site_id
_symmetry_equiv_pos_as_xyz
1 x,y,z
2 -x,1/2+y,1/2-z
3 -x,-y,-z
4 x,1/2-y,1/2+z
_cell_length_a                   20.153(4)
_cell_length_b                   43.589(9)
_cell_length_c                   20.042(4)
_cell_angle_alpha                90
_cell_angle_beta                 113.106(3)
_cell_angle_gamma                90
_cell_volume                     16193.5
loop_
_atom_site_label
_atom_site_type_symbol
_atom_site_fract_x
_atom_site_fract_y
_atom_site_fract_z
Tb1 Tb 1.061269(10) 0.099689(5) 0.678039(11)
Tb2 Tb 0.797085(11) 0.110263(5) 0.917605(12)
Tb3 Tb 0.559658(11) 0.117435(5) 1.193926(12)
Cu1 Cu 0.31863(3) 0.137561(13) 1.45466(3)
O1 O 1.18942(16) 0.12386(7) 0.44001(17)
O2 O 1.13299(15) 0.07912(7) 0.62071(16)
O3 O 1.31001(16) 0.20305(7) 0.73897(16)
O4 O 1.17571(14) 0.08795(7) 0.76813(16)
O5 O 1.06075(15) 0.04659(7) 0.69998(16)
O6 O 1.03890(15) 0.13055(7) 0.57470(16)
O7 O 1.10760(15) 0.14885(7) 0.71966(16)
O8 O 0.96007(15) 0.13011(7) 0.66726(16)
O9 O 0.96042(15) 0.07849(7) 0.58357(16)
O10 O 1.04723(16) 0.09337(7) 0.79110(17)
O11 O 0.87802(16) 0.13267(8) 0.87107(17)
O12 O 0.72555(16) 0.04545(7) 0.59317(17)
O13 O 0.86967(16) 0.06960(8) 0.90553(17)
O14 O 0.72212(16) 0.07769(8) 0.82508(17)
O15 O 0.72651(17) 0.14123(8) 0.81855(18)
O16 O 0.81563(17) 0.16213(8) 0.95712(18)
O17 O 0.89497(17) 0.10755(8) 1.03102(17)
O18 O 0.77447(17) 0.06853(8) 0.98029(18)
O19 O 0.69671(16) 0.12380(8) 0.94527(17)
O20 O 0.59597(16) 0.09275(7) 1.10566(17)
O21 O 0.91970(16) 0.14240(7) 1.27850(17)
O22 O 0.62348(16) 0.07114(7) 1.23851(17)
O23 O 0.47557(16) 0.07711(7) 1.14876(17)
O24 O 0.60700(16) 0.15536(7) 1.13940(17)
O25 O 0.66752(16) 0.13397(7) 1.28319(17)
O26 O 0.46006(16) 0.13991(7) 1.10283(17)
O27 O 0.53759(16) 0.16439(7) 1.24040(17)
O28 O 0.51554(16) 0.10347(7) 1.28210(17)
O29 O 0.42945(16) 0.15042(7) 1.43971(17)
O30 O 0.24358(16) 0.19021(7) 1.10800(17)
O31 O 0.25958(16) 0.16478(7) 1.37820(17)
O32 O 0.30846(17) 0.10376(7) 1.38818(17)
O33 O 0.34967(16) 0.17335(7) 1.51802(17)
O34 O 0.35259(16) 0.10906(7) 1.53538(17)
N1 N 0.46880(19) 0.13473(8) 1.4147(2)
N2 N 0.50936(19) 0.11283(8) 1.3409(2)
N3 N 0.60538(18) 0.09866(9) 1.0466(2)
N4 N 0.65315(19) 0.11294(9) 0.9718(2)
N5 N 0.93813(19) 0.12657(9) 0.8654(2)
N6 N 1.01810(19) 0.10775(9) 0.8291(2)
N7 N 1.13994(18) 0.08420(8) 0.55958(19)
N8 N 1.16442(19) 0.10530(8) 0.4736(2)
F1 F 0.43285(17) 0.20258(7) 1.69217(16)
F2 F 0.47823(15) 0.20941(7) 1.61294(16)
F3 F 0.37160(16) 0.22582(6) 1.59210(18)
F4 F 0.40970(16) 0.09903(7) 1.72122(16)
F5 F 0.46766(15) 0.07839(7) 1.66278(17)
F6 F 0.35511(15) 0.06803(6) 1.63341(16)
F7 F 0.11528(15) 0.18308(8) 1.2920(2)
F8 F 0.19924(14) 0.20854(6) 1.27802(16)
F9 F 0.14082(17) 0.17499(7) 1.19843(17)
F10 F 0.24927(19) 0.05086(7) 1.30637(19)
F11 F 0.23493(19) 0.07634(8) 1.20996(18)
F12 F 0.34050(16) 0.06873(7) 1.29047(18)
F13 F 0.3612(2) 0.04014(11) 1.1414(3)
F14 F 0.3767(3) 0.04036(12) 1.0458(3)
F15 F 0.4106(2) 0.00255(8) 1.1162(2)
F16 F 0.72154(17) 0.02917(8) 1.31355(19)
F17 F 0.66000(19) -0.00719(7) 1.2450(2)
F18 F 0.7107(2) 0.02673(8) 1.2026(2)
F19 F 0.71505(19) 0.16461(10) 1.41261(18)
F20 F 0.80108(19) 0.14319(10) 1.3944(2)
F21 F 0.78595(17) 0.19178(8) 1.38116(17)
F22 F 0.54225(19) 0.20905(7) 1.32921(19)
F23 F 0.5765(2) 0.23198(8) 1.2533(3)
F24 F 0.46731(19) 0.23608(7) 1.2439(2)
F25 F 0.34793(19) 0.19913(8) 1.00321(19)
F26 F 0.40832(18) 0.16793(9) 0.96603(18)
F27 F 0.32586(16) 0.15073(9) 0.99839(18)
F28 F 0.6030(2) 0.22148(8) 1.1030(2)
F29 F 0.71594(18) 0.21535(8) 1.13171(19)
F30 F 0.64054(18) 0.18885(7) 1.04660(17)
F31 F 0.73785(19) 0.02436(10) 1.0710(2)
F32 F 0.7463(2) 0.00899(9) 0.9730(2)
F33 F 0.83207(19) 0.00031(8) 1.0759(2)
F34 F 1.0047(2) 0.07854(12) 1.1974(2)
F35 F 1.04358(18) 0.08221(11) 1.1143(2)
F36 F 1.00788(18) 0.12144(9) 1.1497(2)
F37 F 0.9287(2) 0.00923(12) 0.9602(3)
F38 F 0.91120(19) -0.00136(9) 0.8521(3)
F39 F 0.98030(16) 0.03536(8) 0.9043(2)
F40 F 0.61165(16) 0.03158(8) 0.77361(17)
F41 F 0.66867(17) 0.01355(8) 0.71199(19)
F42 F 0.62665(15) 0.05907(8) 0.69263(17)
F43 F 0.8129(2) 0.21356(9) 1.0364(2)
F44 F 0.8969(2) 0.21545(11) 0.9995(3)
F45 F 0.8035(3) 0.24190(8) 0.9476(2)
F46 F 0.6520(3) 0.20655(10) 0.7171(2)
F47 F 0.5964(2) 0.16578(13) 0.7217(3)
F48 F 0.6789(3) 0.16396(12) 0.6811(2)
F49 F 1.18337(15) 0.19470(7) 0.80087(16)
F50 F 1.14171(19) 0.22634(7) 0.71261(18)
F51 F 1.07464(17) 0.21103(7) 0.76691(19)
F52 F 1.04247(15) 0.17236(8) 0.45515(16)
F53 F 0.94691(15) 0.14856(7) 0.44652(15)
F54 F 0.96037(17) 0.19566(7) 0.47899(17)
F55 F 0.87658(17) 0.18552(7) 0.59587(19)
F56 F 0.87107(15) 0.16847(7) 0.69425(16)
F57 F 0.78529(14) 0.15882(7) 0.59183(17)
F58 F 0.87840(16) 0.07533(7) 0.42580(16)
F59 F 0.86889(16) 0.03860(7) 0.49271(17)
F60 F 0.78552(14) 0.07277(8) 0.45297(18)
F61 F 1.0669(3) -0.01414(9) 0.6590(2)
F62 F 1.12814(17) -0.02571(6) 0.76862(18)
F63 F 1.0228(2) -0.00862(9) 0.7381(3)
F64 F 1.32426(15) 0.07868(9) 0.81377(18)
F65 F 1.31758(14) 0.04268(7) 0.88260(16)
F66 F 1.28978(16) 0.08836(8) 0.89955(19)
C1 C 1.1450(3) 0.06332(12) 0.3849(3)
H1 H 1.1946 0.0577 0.4109
H2 H 1.1412 0.0773 0.3466
H3 H 1.1171 0.0452 0.3647
C2 C 1.0413(2) 0.09184(12) 0.3953(3)
H4 H 1.0091 0.0757 0.3692
H5 H 1.0434 0.1071 0.3617
H6 H 1.0241 0.1010 0.4290
C3 C 1.1166(2) 0.07862(10) 0.4365(2)
C4 C 1.1883(2) 0.03767(11) 0.5309(3)
H7 H 1.1946 0.0297 0.5776
H8 H 1.2308 0.0488 0.5346
H9 H 1.1805 0.0210 0.4973
C5 C 1.0551(3) 0.04207(11) 0.4972(3)
H10 H 1.0428 0.0275 0.4583
H11 H 1.0163 0.0564 0.4873
H12 H 1.0633 0.0315 0.5418
C6 C 1.1231(2) 0.05916(10) 0.5039(2)
C7 C 1.1714(2) 0.10851(10) 0.5439(2)
C8 C 1.2084(2) 0.13310(10) 0.5937(2)
C9 C 1.2085(2) 0.16338(10) 0.5703(2)
H13 H 1.1859 0.1682 0.5213
C10 C 1.2424(2) 0.18618(10) 0.6202(2)
H14 H 1.2416 0.2063 0.6047
C11 C 1.2779(2) 0.17896(10) 0.6940(2)
C12 C 1.2797(2) 0.14908(10) 0.7174(2)
H15 H 1.3042 0.1442 0.7662
C13 C 1.2443(2) 0.12620(10) 0.6669(2)
H16 H 1.2448 0.1061 0.6826
C14 C 1.3536(3) 0.19484(10) 0.8127(2)
H17 H 1.3922 0.1813 0.8138
H18 H 1.3244 0.1841 0.8338
C15 C 1.3849(3) 0.22320(11) 0.8558(2)
C16 C 1.4593(3) 0.22698(12) 0.8887(3)
H19 H 1.4898 0.2129 0.8804
C17 C 1.4880(3) 0.25204(13) 0.9344(3)
H20 H 1.5377 0.2547 0.9562
C18 C 1.4428(3) 0.27287(12) 0.9472(3)
H21 H 1.4619 0.2895 0.9777
C19 C 1.3691(3) 0.26885(12) 0.9144(3)
H22 H 1.3387 0.2829 0.9232
C20 C 1.3399(3) 0.24442(11) 0.8691(3)
H23 H 1.2901 0.2421 0.8473
C21 C 0.8568(2) 0.16132(11) 0.6257(3)
C22 C 0.8980(2) 0.13264(11) 0.6188(3)
C23 C 0.8634(2) 0.11356(10) 0.5598(3)
H24 H 0.8164 0.1180 0.5282
C24 C 0.8980(2) 0.08792(10) 0.5469(2)
C25 C 0.8571(2) 0.06856(11) 0.4794(3)
C26 C 1.2851(2) 0.06807(11) 0.8499(3)
C27 C 1.2064(2) 0.06335(10) 0.7958(2)
C28 C 1.1792(2) 0.03363(10) 0.7842(2)
H25 H 1.2087 0.0173 0.8079
C29 C 1.1078(2) 0.02806(10) 0.7371(2)
C30 C 1.0818(3) -0.00542(12) 0.7267(3)
C31 C 1.1250(3) 0.20192(11) 0.7431(3)
C32 C 1.0961(2) 0.17488(11) 0.6904(3)
C33 C 1.0586(2) 0.18195(11) 0.6179(3)
H26 H 1.0502 0.2024 0.6039
C34 C 1.0333(2) 0.15903(11) 0.5652(2)
C35 C 0.9950(3) 0.16898(11) 0.4863(3)
C36 C 1.1280(3) 0.13853(13) 0.8954(3)
H27 H 1.1596 0.1234 0.8890
H28 H 1.1532 0.1498 0.9391
H29 H 1.1121 0.1523 0.8548
C37 C 1.0631(2) 0.12273(12) 0.9004(3)
C38 C 1.0862(3) 0.09696(13) 0.9568(3)
H30 H 1.0442 0.0879 0.9602
H31 H 1.1166 0.1052 1.0032
H32 H 1.1122 0.0816 0.9425
C39 C 1.0122(3) 0.15055(13) 0.9843(3)
H33 H 1.0094 0.1314 1.0068
H34 H 0.9735 0.1637 0.9832
H35 H 1.0576 0.1602 1.0115
C40 C 1.0059(2) 0.14471(11) 0.9079(3)
C41 C 0.9976(3) 0.17478(12) 0.8651(3)
H36 H 1.0384 0.1878 0.8896
H37 H 0.9543 0.1851 0.8619
H38 H 0.9947 0.1703 0.8172
C42 C 0.9468(2) 0.10780(11) 0.8161(2)
C43 C 0.8898(2) 0.09101(10) 0.7579(2)
C44 C 0.9054(2) 0.06335(11) 0.7322(3)
H39 H 0.9522 0.0556 0.7516
C45 C 0.8515(2) 0.04733(11) 0.6776(3)
H40 H 0.8618 0.0286 0.6616
C46 C 0.7819(2) 0.05929(11) 0.6469(3)
C47 C 0.7664(2) 0.08721(11) 0.6724(3)
H41 H 0.7200 0.0953 0.6520
C48 C 0.8198(2) 0.10268(10) 0.7277(2)
H42 H 0.8090 0.1210 0.7450
C49 C 0.7382(3) 0.01485(11) 0.5729(3)
H43 H 0.7503 0.0011 0.6141
H44 H 0.7779 0.0150 0.5571
C50 C 0.6698(2) 0.00425(10) 0.5119(3)
C51 C 0.6594(3) 0.00985(11) 0.4407(3)
H45 H 0.6952 0.0197 0.4305
C52 C 0.5970(3) 0.00109(11) 0.3846(3)
H46 H 0.5906 0.0054 0.3370
C53 C 0.5437(3) -0.01408(11) 0.3984(3)
H47 H 0.5016 -0.0202 0.3604
C54 C 0.5534(3) -0.02000(12) 0.4687(3)
H48 H 0.5176 -0.0302 0.4784
C55 C 0.6161(3) -0.01097(12) 0.5256(3)
H49 H 0.6221 -0.0151 0.5732
C56 C 0.9203(3) 0.02169(14) 0.8983(4)
C57 C 0.8558(3) 0.04394(12) 0.8747(3)
C58 C 0.7904(3) 0.03332(11) 0.8245(3)
H50 H 0.7879 0.0138 0.8048
C59 C 0.7283(3) 0.05137(12) 0.8028(3)
C60 C 0.6587(3) 0.03871(12) 0.7446(3)
C61 C 0.6609(4) 0.17712(17) 0.7311(4)
C62 C 0.7157(3) 0.16928(13) 0.8080(3)
C63 C 0.7457(3) 0.19323(13) 0.8560(3)
H51 H 0.7335 0.2133 0.8405
C64 C 0.7942(3) 0.18754(13) 0.9277(3)
C65 C 0.8264(4) 0.21471(14) 0.9773(4)
C66 C 0.9942(3) 0.09200(14) 1.1364(3)
C67 C 0.9182(3) 0.08654(13) 1.0770(3)
C68 C 0.8851(3) 0.05884(13) 1.0800(3)
H52 H 0.9098 0.0446 1.1156
C69 C 0.8158(3) 0.05215(13) 1.0304(3)
C70 C 0.7834(3) 0.02083(15) 1.0374(3)
C71 C 0.5742(3) 0.08860(16) 0.8573(3)
H53 H 0.5898 0.1015 0.8274
H54 H 0.5260 0.0816 0.8298
H55 H 0.6059 0.0713 0.8733
C72 C 0.5758(2) 0.10657(13) 0.9226(3)
C73 C 0.5402(3) 0.13765(14) 0.9025(3)
H56 H 0.5425 0.1481 0.9456
H57 H 0.4906 0.1350 0.8702
H58 H 0.5647 0.1496 0.8790
C74 C 0.4755(2) 0.09496(14) 0.9688(3)
H59 H 0.4417 0.0910 0.9202
H60 H 0.4729 0.1162 0.9805
H61 H 0.4641 0.0823 1.0020
C75 C 0.5626(3) 0.05317(13) 0.9734(3)
H62 H 0.5555 0.0439 1.0136
H63 H 0.6107 0.0491 0.9772
H64 H 0.5285 0.0448 0.9288
C76 C 0.5515(2) 0.08766(12) 0.9746(3)
C77 C 0.6661(2) 0.11030(10) 1.0424(2)
C78 C 0.7326(2) 0.11830(11) 1.1037(2)
C79 C 0.7756(2) 0.14166(11) 1.0951(2)
H65 H 0.7619 0.1517 1.0507
C80 C 0.8390(2) 0.15018(11) 1.1521(2)
H66 H 0.8676 0.1657 1.1457
C81 C 0.8595(2) 0.13558(11) 1.2188(2)
C82 C 0.8171(2) 0.11174(11) 1.2281(3)
H67 H 0.8315 0.1015 1.2723
C83 C 0.7538(2) 0.10351(10) 1.1710(3)
H68 H 0.7251 0.0880 1.1774
C84 C 0.9662(2) 0.16601(12) 1.2709(3)
H69 H 0.9768 0.1615 1.2287
H70 H 1.0114 0.1656 1.3131
C85 C 0.9347(2) 0.19779(12) 1.2631(3)
C86 C 0.9466(3) 0.21907(14) 1.2175(3)
H71 H 0.9731 0.2135 1.1905
C87 C 0.9193(3) 0.24856(15) 1.2121(3)
H72 H 0.9279 0.2627 1.1818
C88 C 0.8791(3) 0.25707(14) 1.2517(3)
H73 H 0.8601 0.2767 1.2473
C89 C 0.8677(3) 0.23587(13) 1.2977(3)
H74 H 0.8414 0.2414 1.3250
C90 C 0.8951(3) 0.20668(12) 1.3032(3)
H75 H 0.8871 0.1926 1.3342
C91 C 0.6536(3) 0.20071(12) 1.1117(3)
C92 C 0.6527(2) 0.17617(11) 1.1659(3)
C93 C 0.6992(2) 0.17988(11) 1.2385(3)
H76 H 0.7295 0.1969 1.2519
C94 C 0.7014(2) 0.15880(11) 1.2909(3)
C95 C 0.7512(3) 0.16503(13) 1.3705(3)
C96 C 0.6756(3) 0.02295(12) 1.2468(3)
C97 C 0.6087(3) 0.04353(11) 1.2215(3)
C98 C 0.5414(3) 0.03043(11) 1.1824(3)
H77 H 0.5375 0.0092 1.1777
C99 C 0.4800(3) 0.04844(11) 1.1504(3)
C100 C 0.4074(3) 0.03238(14) 1.1117(3)
C101 C 0.5229(3) 0.21671(12) 1.2606(3)
C102 C 0.5041(3) 0.18811(11) 1.2108(3)
C103 C 0.4544(3) 0.19148(11) 1.1390(3)
H78 H 0.4339 0.2106 1.1229
C104 C 0.4355(2) 0.16698(11) 1.0917(3)
C105 C 0.3781(3) 0.17165(14) 1.0150(3)
C106 C 0.6303(2) 0.09375(12) 1.4214(3)
H79 H 0.6322 0.0792 1.3863
H80 H 0.6583 0.0863 1.4693
H81 H 0.6495 0.1130 1.4141
C107 C 0.5163(3) 0.06707(11) 1.4110(3)
H82 H 0.4692 0.0702 1.4112
H83 H 0.5451 0.0554 1.4530
H84 H 0.5119 0.0561 1.3679
C108 C 0.5522(2) 0.09813(11) 1.4125(2)
C109 C 0.5337(3) 0.10786(13) 1.5316(3)
H85 H 0.4909 0.0955 1.5169
H86 H 0.5307 0.1240 1.5629
H87 H 0.5751 0.0953 1.5571
C110 C 0.5405(2) 0.12172(11) 1.4649(3)
C111 C 0.5934(3) 0.14856(12) 1.4850(3)
H88 H 0.6401 0.1416 1.5174
H89 H 0.5767 0.1642 1.5083
H90 H 0.5965 0.1567 1.4418
C112 C 0.4577(2) 0.13161(10) 1.3436(3)
C113 C 0.4002(2) 0.14637(10) 1.2823(2)
C114 C 0.3666(2) 0.13174(10) 1.2154(2)
H91 H 0.3800 0.1119 1.2090
C115 C 0.3137(2) 0.14664(10) 1.1590(2)
H92 H 0.2902 0.1366 1.1149
C116 C 0.2952(2) 0.17696(11) 1.1680(3)
C117 C 0.3289(2) 0.19168(10) 1.2344(2)
H93 H 0.3167 0.2118 1.2404
C118 C 0.3807(2) 0.17626(10) 1.2912(3)
H94 H 0.4027 0.1859 1.3359
C119 C 0.2308(3) 0.22262(11) 1.1135(3)
H95 H 0.2755 0.2339 1.1261
H96 H 0.2127 0.2260 1.1512
C120 C 0.1765(3) 0.23359(11) 1.0418(3)
C121 C 0.1984(3) 0.24279(12) 0.9873(3)
H97 H 0.2469 0.2416 0.9947
C122 C 0.1486(3) 0.25361(13) 0.9220(3)
H98 H 0.1638 0.2599 0.8859
C123 C 0.0769(3) 0.25509(12) 0.9103(3)
H99 H 0.0436 0.2624 0.8664
C124 C 0.0537(3) 0.24562(12) 0.9643(3)
H100 H 0.0050 0.2464 0.9562
C125 C 0.1040(3) 0.23508(11) 1.0299(3)
H101 H 0.0891 0.2290 1.0662
C126 C 0.1692(3) 0.18098(12) 1.2695(3)
C127 C 0.2227(2) 0.15632(10) 1.3139(3)
C128 C 0.2245(2) 0.12828(11) 1.2819(3)
H102 H 0.1956 0.1252 1.2332
C129 C 0.2690(2) 0.10464(11) 1.3215(3)
C130 C 0.2728(3) 0.07507(12) 1.2814(3)
C131 C 0.4173(3) 0.20308(11) 1.6212(3)
C132 C 0.3874(2) 0.17198(11) 1.5850(3)
C133 C 0.4054(2) 0.14611(11) 1.6294(3)
H103 H 0.4321 0.1483 1.6789
C134 C 0.3841(2) 0.11707(11) 1.6008(3)
C135 C 0.4040(3) 0.09044(11) 1.6547(3)
Cu1_2 Cu 1.31863(3) 0.137561(13) 0.45466(3)
O1_2 O 0.18942(16) 0.12386(7) 1.44001(17)
loop_
_geom_bond_atom_site_label_1
_geom_bond_atom_site_label_2
_geom_bond_site_symmetry_1
_geom_bond_site_symmetry_2
Tb1 O2 1_555 1_555
Tb2 O11 1_555 1_555
Tb3 O20 1_555 1_555
Cu1 O29 1_555 1_555
O1 N8 1_555 1_555
O2 N7 1_555 1_555
O3 C11 1_555 1_555
O4 Tb1 1_555 1_555
O5 Tb1 1_555 1_555
O6 Tb1 1_555 1_555
O7 Tb1 1_555 1_555
O8 Tb1 1_555 1_555
O9 Tb1 1_555 1_555
O10 Tb1 1_555 1_555
O11 N5 1_555 1_555
O12 C46 1_555 1_555
O13 Tb2 1_555 1_555
O14 Tb2 1_555 1_555
O15 Tb2 1_555 1_555
O16 Tb2 1_555 1_555
O17 Tb2 1_555 1_555
O18 Tb2 1_555 1_555
O19 Tb2 1_555 1_555
O20 N3 1_555 1_555
O21 C81 1_555 1_555
O22 Tb3 1_555 1_555
O23 Tb3 1_555 1_555
O24 Tb3 1_555 1_555
O25 Tb3 1_555 1_555
O26 Tb3 1_555 1_555
O27 Tb3 1_555 1_555
O28 Tb3 1_555 1_555
O29 N1 1_555 1_555
O30 C116 1_555 1_555
O31 Cu1 1_555 1_555
O32 Cu1 1_555 1_555
O33 Cu1 1_555 1_555
O34 Cu1 1_555 1_555
N1 C110 1_555 1_555
N2 O28 1_555 1_555
N3 C76 1_555 1_555
N4 O19 1_555 1_555
N5 C40 1_555 1_555
N6 O10 1_555 1_555
N7 C6 1_555 1_555
N8 C3 1_555 1_555
F1 C131 1_555 1_555
F2 C131 1_555 1_555
F3 C131 1_555 1_555
F4 C135 1_555 1_555
F5 C135 1_555 1_555
F6 C135 1_555 1_555
F7 C126 1_555 1_555
F8 C126 1_555 1_555
F9 C126 1_555 1_555
F10 C130 1_555 1_555
F11 C130 1_555 1_555
F12 C130 1_555 1_555
F13 C100 1_555 1_555
F14 C100 1_555 1_555
F15 C100 1_555 1_555
F16 C96 1_555 1_555
F17 C96 1_555 1_555
F18 C96 1_555 1_555
F19 C95 1_555 1_555
F20 C95 1_555 1_555
F21 C95 1_555 1_555
F22 C101 1_555 1_555
F23 C101 1_555 1_555
F24 C101 1_555 1_555
F25 C105 1_555 1_555
F26 C105 1_555 1_555
F27 C105 1_555 1_555
F28 C91 1_555 1_555
F29 C91 1_555 1_555
F30 C91 1_555 1_555
F31 C70 1_555 1_555
F32 C70 1_555 1_555
F33 C70 1_555 1_555
F34 C66 1_555 1_555
F35 C66 1_555 1_555
F36 C66 1_555 1_555
F37 C56 1_555 1_555
F38 C56 1_555 1_555
F39 C56 1_555 1_555
F40 C60 1_555 1_555
F41 C60 1_555 1_555
F42 C60 1_555 1_555
F43 C65 1_555 1_555
F44 C65 1_555 1_555
F45 C65 1_555 1_555
F46 C61 1_555 1_555
F47 C61 1_555 1_555
F48 C61 1_555 1_555
F49 C31 1_555 1_555
F50 C31 1_555 1_555
F51 C31 1_555 1_555
F52 C35 1_555 1_555
F53 C35 1_555 1_555
F54 C35 1_555 1_555
F55 C21 1_555 1_555
F56 C21 1_555 1_555
F57 C21 1_555 1_555
F58 C25 1_555 1_555
F59 C25 1_555 1_555
F60 C25 1_555 1_555
F61 C30 1_555 1_555
F62 C30 1_555 1_555
F63 C30 1_555 1_555
F64 C26 1_555 1_555
F65 C26 1_555 1_555
F66 C26 1_555 1_555
C1 H1 1_555 1_555
H2 C1 1_555 1_555
H3 C1 1_555 1_555
C2 H4 1_555 1_555
H5 C2 1_555 1_555
H6 C2 1_555 1_555
C3 C1 1_555 1_555
C4 H7 1_555 1_555
H8 C4 1_555 1_555
H9 C4 1_555 1_555
C5 H10 1_555 1_555
H11 C5 1_555 1_555
H12 C5 1_555 1_555
C6 C3 1_555 1_555
C7 N7 1_555 1_555
C8 C7 1_555 1_555
C9 C8 1_555 1_555
H13 C9 1_555 1_555
C10 C9 1_555 1_555
H14 C10 1_555 1_555
C11 C10 1_555 1_555
C12 C11 1_555 1_555
H15 C12 1_555 1_555
C13 C8 1_555 1_555
H16 C13 1_555 1_555
C14 O3 1_555 1_555
H17 C14 1_555 1_555
H18 C14 1_555 1_555
C15 C14 1_555 1_555
C16 C15 1_555 1_555
H19 C16 1_555 1_555
C17 C16 1_555 1_555
H20 C17 1_555 1_555
C18 C17 1_555 1_555
H21 C18 1_555 1_555
C19 C18 1_555 1_555
H22 C19 1_555 1_555
C20 C15 1_555 1_555
H23 C20 1_555 1_555
C21 C22 1_555 1_555
C22 O8 1_555 1_555
C23 C22 1_555 1_555
H24 C23 1_555 1_555
C24 O9 1_555 1_555
C25 C24 1_555 1_555
C26 C27 1_555 1_555
C27 O4 1_555 1_555
C28 C27 1_555 1_555
H25 C28 1_555 1_555
C29 O5 1_555 1_555
C30 C29 1_555 1_555
C31 C32 1_555 1_555
C32 O7 1_555 1_555
C33 C32 1_555 1_555
H26 C33 1_555 1_555
C34 O6 1_555 1_555
C35 C34 1_555 1_555
C36 H27 1_555 1_555
H28 C36 1_555 1_555
H29 C36 1_555 1_555
C37 N6 1_555 1_555
C38 C37 1_555 1_555
H30 C38 1_555 1_555
H31 C38 1_555 1_555
H32 C38 1_555 1_555
C39 H33 1_555 1_555
H34 C39 1_555 1_555
H35 C39 1_555 1_555
C40 C37 1_555 1_555
C41 C40 1_555 1_555
H36 C41 1_555 1_555
H37 C41 1_555 1_555
H38 C41 1_555 1_555
C42 N5 1_555 1_555
C43 C42 1_555 1_555
C44 C43 1_555 1_555
H39 C44 1_555 1_555
C45 C44 1_555 1_555
H40 C45 1_555 1_555
C46 C45 1_555 1_555
C47 C46 1_555 1_555
H41 C47 1_555 1_555
C48 C43 1_555 1_555
H42 C48 1_555 1_555
C49 O12 1_555 1_555
H43 C49 1_555 1_555
H44 C49 1_555 1_555
C50 C49 1_555 1_555
C51 C50 1_555 1_555
H45 C51 1_555 1_555
C52 C51 1_555 1_555
H46 C52 1_555 1_555
C53 C52 1_555 1_555
H47 C53 1_555 1_555
C54 C53 1_555 1_555
H48 C54 1_555 1_555
C55 C50 1_555 1_555
H49 C55 1_555 1_555
C56 C57 1_555 1_555
C57 O13 1_555 1_555
C58 C57 1_555 1_555
H50 C58 1_555 1_555
C59 O14 1_555 1_555
C60 C59 1_555 1_555
C61 C62 1_555 1_555
C62 O15 1_555 1_555
C63 C62 1_555 1_555
H51 C63 1_555 1_555
C64 O16 1_555 1_555
C65 C64 1_555 1_555
C66 C67 1_555 1_555
C67 O17 1_555 1_555
C68 C67 1_555 1_555
H52 C68 1_555 1_555
C69 O18 1_555 1_555
C70 C69 1_555 1_555
C71 H53 1_555 1_555
H54 C71 1_555 1_555
H55 C71 1_555 1_555
C72 N4 1_555 1_555
C73 C72 1_555 1_555
H56 C73 1_555 1_555
H57 C73 1_555 1_555
H58 C73 1_555 1_555
C74 H59 1_555 1_555
H60 C74 1_555 1_555
H61 C74 1_555 1_555
C75 H62 1_555 1_555
H63 C75 1_555 1_555
H64 C75 1_555 1_555
C76 C72 1_555 1_555
C77 N3 1_555 1_555
C78 C77 1_555 1_555
C79 C78 1_555 1_555
H65 C79 1_555 1_555
C80 C79 1_555 1_555
H66 C80 1_555 1_555
C81 C80 1_555 1_555
C82 C81 1_555 1_555
H67 C82 1_555 1_555
C83 C78 1_555 1_555
H68 C83 1_555 1_555
C84 O21 1_555 1_555
H69 C84 1_555 1_555
H70 C84 1_555 1_555
C85 C84 1_555 1_555
C86 C85 1_555 1_555
H71 C86 1_555 1_555
C87 C86 1_555 1_555
H72 C87 1_555 1_555
C88 C87 1_555 1_555
H73 C88 1_555 1_555
C89 C88 1_555 1_555
H74 C89 1_555 1_555
C90 C85 1_555 1_555
H75 C90 1_555 1_555
C91 C92 1_555 1_555
C92 O24 1_555 1_555
C93 C92 1_555 1_555
H76 C93 1_555 1_555
C94 O25 1_555 1_555
C95 C94 1_555 1_555
C96 C97 1_555 1_555
C97 O22 1_555 1_555
C98 C97 1_555 1_555
H77 C98 1_555 1_555
C99 O23 1_555 1_555
C100 C99 1_555 1_555
C101 C102 1_555 1_555
C102 O27 1_555 1_555
C103 C102 1_555 1_555
H78 C103 1_555 1_555
C104 O26 1_555 1_555
C105 C104 1_555 1_555
C106 H79 1_555 1_555
H80 C106 1_555 1_555
H81 C106 1_555 1_555
C107 H82 1_555 1_555
H83 C107 1_555 1_555
H84 C107 1_555 1_555
C108 N2 1_555 1_555
C109 H85 1_555 1_555
H86 C109 1_555 1_555
H87 C109 1_555 1_555
C110 C108 1_555 1_555
C111 C110 1_555 1_555
H88 C111 1_555 1_555
H89 C111 1_555 1_555
H90 C111 1_555 1_555
C112 N1 1_555 1_555
C113 C112 1_555 1_555
C114 C113 1_555 1_555
H91 C114 1_555 1_555
C115 C114 1_555 1_555
H92 C115 1_555 1_555
C116 C115 1_555 1_555
C117 C116 1_555 1_555
H93 C117 1_555 1_555
C118 C113 1_555 1_555
H94 C118 1_555 1_555
C119 O30 1_555 1_555
H95 C119 1_555 1_555
H96 C119 1_555 1_555
C120 C119 1_555 1_555
C121 C120 1_555 1_555
H97 C121 1_555 1_555
C122 C121 1_555 1_555
H98 C122 1_555 1_555
C123 C122 1_555 1_555
H99 C123 1_555 1_555
C124 C123 1_555 1_555
H100 C124 1_555 1_555
C125 C120 1_555 1_555
H101 C125 1_555 1_555
C126 C127 1_555 1_555
C127 O31 1_555 1_555
C128 C127 1_555 1_555
H102 C128 1_555 1_555
C129 O32 1_555 1_555
C130 C129 1_555 1_555
C131 C132 1_555 1_555
C132 O33 1_555 1_555
C133 C132 1_555 1_555
H103 C133 1_555 1_555
C134 O34 1_555 1_555
C135 C134 1_555 1_555
Cu1_2 O1 1_555 1_555
O1_2 Cu1 1_555 1_555
N2 C112 1_555 1_555
N4 C77 1_555 1_555
N6 C42 1_555 1_555
N8 C7 1_555 1_555
C2 C3 1_555 1_555
C4 C6 1_555 1_555
C5 C6 1_555 1_555
C12 C13 1_555 1_555
C19 C20 1_555 1_555
C23 C24 1_555 1_555
C28 C29 1_555 1_555
C33 C34 1_555 1_555
C36 C37 1_555 1_555
C39 C40 1_555 1_555
C47 C48 1_555 1_555
C54 C55 1_555 1_555
C58 C59 1_555 1_555
C63 C64 1_555 1_555
C68 C69 1_555 1_555
C71 C72 1_555 1_555
C74 C76 1_555 1_555
C75 C76 1_555 1_555
C82 C83 1_555 1_555
C89 C90 1_555 1_555
C93 C94 1_555 1_555
C98 C99 1_555 1_555
C103 C104 1_555 1_555
C106 C108 1_555 1_555
C107 C108 1_555 1_555
C109 C110 1_555 1_555
C117 C118 1_555 1_555
C124 C125 1_555 1_555
C128 C129 1_555 1_555
C133 C134 1_555 1_555

#END
