
#######################################################################
#
#                 Cambridge Crystallographic Data Centre
#                                CCDC 
#
#######################################################################
#
# If this CIF has been generated from an entry in the Cambridge 
# Structural Database, then it will include bibliographic, chemical, 
# crystal, experimental, refinement or atomic coordinate data resulting 
# from the CCDC's data processing and validation procedures.
#
#######################################################################

data_HOHKIA
_symmetry_cell_setting           triclinic
_symmetry_space_group_name_H-M   'P -1'
_symmetry_Int_Tables_number      2
_space_group_name_Hall           '-P 1'
loop_
_symmetry_equiv_pos_site_id
_symmetry_equiv_pos_as_xyz
1 x,y,z
2 -x,-y,-z
_cell_length_a                   19.991(4)
_cell_length_b                   19.999(4)
_cell_length_c                   21.755(4)
_cell_angle_alpha                90.1520(10)
_cell_angle_beta                 107.300(3)
_cell_angle_gamma                114.712(3)
_cell_volume                     7462.41
loop_
_atom_site_label
_atom_site_type_symbol
_atom_site_fract_x
_atom_site_fract_y
_atom_site_fract_z
Tb1 Tb 1.264839(17) 0.100699(16) 0.208562(14)
O1 O 1.3625(2) 0.0784(2) 0.1823(2)
O2 O 1.2819(2) 0.0092(2) 0.2723(2)
O3 O 1.1500(2) -0.0094(2) 0.1680(2)
O4 O 1.2318(2) 0.0805(2) 0.0939(2)
O5 O 1.3429(2) 0.2127(2) 0.1798(2)
O6 O 1.1984(2) 0.0928(2) 0.2838(2)
O7 O 1.3596(2) 0.1677(2) 0.3078(2)
O8 O 1.1953(2) 0.1717(2) 0.1740(2)
N1 N 1.4132(3) 0.0542(3) 0.2097(3)
C1 C 1.2350(4) -0.0532(4) 0.2789(3)
C2 C 1.1222(4) -0.0713(4) 0.1875(3)
C3 C 1.2478(4) 0.1232(4) 0.0531(3)
C4 C 1.3417(4) 0.2368(4) 0.1273(3)
C5 C 1.2206(4) 0.1098(4) 0.3443(3)
C6 C 1.3591(4) 0.1750(4) 0.3642(3)
N2 N 1.1353(3) 0.1775(3) 0.1814(2)
C7 C 1.3980(4) -0.0179(4) 0.2100(3)
C8 C 1.4985(4) 0.1057(4) 0.2366(3)
C9 C 1.2676(4) -0.0847(4) 0.3392(3)
C10 C 1.1582(4) -0.0964(4) 0.2403(3)
C11 C 1.0386(4) -0.1211(4) 0.1463(3)
C12 C 1.2061(4) 0.0851(4) -0.0180(3)
C13 C 1.2973(4) 0.1988(4) 0.0637(3)
C14 C 1.3977(4) 0.3194(4) 0.1356(3)
C15 C 1.1541(4) 0.0801(4) 0.3736(3)
C16 C 1.2955(4) 0.1480(4) 0.3869(3)
C17 C 1.4407(4) 0.2173(4) 0.4160(3)
C18 C 1.1356(4) 0.2153(3) 0.2328(3)
C19 C 1.0617(4) 0.1523(4) 0.1254(3)
N3 N 1.4651(3) -0.0202(3) 0.2455(3)
C20 C 1.3240(4) -0.0825(4) 0.1783(3)
C21 C 1.5256(4) 0.0556(4) 0.2826(3)
C22 C 1.5291(4) 0.1169(4) 0.1795(3)
C23 C 1.5129(4) 0.1785(4) 0.2706(4)
F1 F 1.3408(2) -0.0731(2) 0.3472(2)
F2 F 1.2704(3) -0.0498(3) 0.3926(2)
F3 F 1.2276(3) -0.1568(2) 0.3373(2)
H1 H 1.1305 -0.1431 0.2501
F4 F 1.0301(2) -0.1249(3) 0.0824(2)
F5 F 0.9901(2) -0.0942(2) 0.1538(2)
F6 F 1.0115(3) -0.1906(2) 0.1587(3)
F7 F 1.1315(2) 0.0705(3) -0.0353(2)
F8 F 1.2354(3) 0.1240(3) -0.0599(2)
F9 F 1.2090(3) 0.0205(3) -0.0252(2)
H2 H 1.3012 0.2245 0.0284
F10 F 1.3782(3) 0.3597(2) 0.1687(2)
F11 F 1.3985(3) 0.3455(2) 0.0797(2)
F12 F 1.4703(2) 0.3315(2) 0.1673(2)
F13 F 1.1366(3) 0.0108(3) 0.3829(3)
F14 F 1.1708(3) 0.1180(3) 0.4303(2)
F15 F 1.0913(3) 0.0828(4) 0.3357(2)
H3 H 1.3038 0.1560 0.4312
F16 F 1.4761(2) 0.1729(3) 0.4296(2)
F17 F 1.4863(2) 0.2761(2) 0.3942(2)
F18 F 1.4391(2) 0.2427(2) 0.47216(18)
N4 N 1.0612(3) 0.2054(3) 0.2209(3)
C24 C 1.2034(4) 0.2598(4) 0.2888(3)
C25 C 1.0419(4) 0.0780(4) 0.0882(3)
C26 C 1.0761(4) 0.2125(4) 0.0807(3)
C27 C 1.0043(4) 0.1494(4) 0.1615(3)
O9 O 1.4751(2) -0.0791(2) 0.2560(2)
C28 C 1.2697(4) -0.0795(4) 0.1218(3)
C29 C 1.3049(4) -0.1498(4) 0.2042(3)
C30 C 1.6079(4) 0.0653(4) 0.2916(4)
C31 C 1.5127(4) 0.0594(4) 0.3483(3)
H4 H 1.5235 0.0703 0.1615
H5 H 1.5831 0.1520 0.1941
H6 H 1.4999 0.1356 0.1468
H7 H 1.4927 0.2049 0.2394
H8 H 1.5680 0.2079 0.2913
H9 H 1.4874 0.1691 0.3028
O10 O 1.0374(2) 0.2311(2) 0.2606(2)
C32 C 1.1964(4) 0.2683(4) 0.3499(3)
C33 C 1.2780(4) 0.2943(3) 0.2824(3)
H10 H 1.0816 0.0841 0.0695
H11 H 0.9925 0.0613 0.0541
H12 H 1.0391 0.0419 0.1175
H13 H 1.0841 0.2582 0.1029
H14 H 1.0317 0.1968 0.0418
H15 H 1.1215 0.2202 0.0695
C34 C 0.9423(4) 0.1737(4) 0.1268(3)
C35 C 0.9687(4) 0.0749(4) 0.1860(3)
Tb2 Tb 1.498576(17) -0.168335(17) 0.203155(14)
C36 C 1.2001(4) -0.1414(4) 0.0908(3)
H16 H 1.2805 -0.0351 0.1047
H17 H 1.3399 -0.1529 0.2420
C37 C 1.2355(4) -0.2109(4) 0.1745(3)
H18 H 1.6189 0.0315 0.3195
H19 H 1.6447 0.1155 0.3110
H20 H 1.6120 0.0551 0.2501
H21 H 1.4617 0.0564 0.3414
H22 H 1.5514 0.1056 0.3751
H23 H 1.5169 0.0187 0.3696
Cu1 Cu 1.04967(5) 0.35486(5) 0.28978(4)
C38 C 1.2617(4) 0.3070(4) 0.4034(3)
H24 H 1.1474 0.2476 0.3547
H25 H 1.2836 0.2900 0.2419
C39 C 1.3416(4) 0.3336(4) 0.3347(3)
H26 H 0.9098 0.1694 0.1528
H27 H 0.9111 0.1427 0.0855
H28 H 0.9668 0.2246 0.1201
H29 H 1.0090 0.0601 0.2068
H30 H 0.9302 0.0376 0.1499
H31 H 0.9447 0.0802 0.2167
C40 C 1.1830(4) -0.2077(4) 0.1168(3)
H32 H 1.1650 -0.1387 0.0528
H33 H 1.2233 -0.2546 0.1928
O11 O 1.1386(3) 0.3977(2) 0.3685(2)
O12 O 1.1134(3) 0.3882(2) 0.2340(2)
O13 O 0.9897(3) 0.3006(2) 0.3437(2)
O14 O 0.9579(3) 0.3367(3) 0.2164(2)
O15 O 1.0555(3) 0.4773(2) 0.3221(2)
H34 H 1.2564 0.3114 0.4441
C41 C 1.3355(4) 0.3397(4) 0.3967(3)
H35 H 1.3902 0.3571 0.3293
O16 O 1.1181(3) -0.2727(3) 0.0901(2)
C42 C 1.2054(4) 0.4436(4) 0.3695(3)
C43 C 1.1866(4) 0.4291(4) 0.2546(3)
C44 C 0.9175(4) 0.2614(4) 0.3232(3)
C45 C 0.8888(4) 0.2949(4) 0.2158(3)
N5 N 1.0203(3) 0.5119(3) 0.2874(3)
O17 O 1.4032(3) 0.3775(3) 0.4456(2)
C46 C 1.0702(4) -0.2759(4) 0.0252(3)
C47 C 1.2337(4) 0.4602(4) 0.3181(3)
C48 C 1.2586(4) 0.4874(4) 0.4373(3)
C49 C 1.2228(4) 0.4453(4) 0.2004(3)
C50 C 0.8868(4) 0.2140(4) 0.3733(3)
C51 C 0.8646(4) 0.2546(4) 0.2629(3)
C52 C 0.8267(4) 0.2899(4) 0.1512(3)
C53 C 0.9448(4) 0.4993(4) 0.2766(3)
C54 C 1.0632(4) 0.5807(4) 0.2611(3)
C55 C 1.4011(4) 0.3765(4) 0.5114(3)
C56 C 1.0093(4) -0.3526(4) 0.0005(3)
H36 H 1.1019 -0.2600 -0.0029
H37 H 1.0462 -0.2426 0.0253
H38 H 1.2858 0.4932 0.3263
F19 F 1.2395(3) 0.5400(2) 0.4508(2)
F20 F 1.2512(2) 0.4436(2) 0.48329(19)
F21 F 1.3331(2) 0.5180(3) 0.4430(2)
F22 F 1.3000(2) 0.4801(3) 0.2228(2)
F23 F 1.2051(3) 0.3830(2) 0.1638(2)
F24 F 1.1984(3) 0.4869(3) 0.1619(2)
F25 F 0.9118(4) 0.1634(3) 0.3825(3)
F26 F 0.9107(2) 0.2542(2) 0.43022(19)
F27 F 0.8097(3) 0.1812(3) 0.3553(2)
H39 H 0.8121 0.2225 0.2539
F28 F 0.7542(2) 0.2544(2) 0.1519(2)
F29 F 0.8369(2) 0.3574(2) 0.1375(2)
F30 F 0.8320(2) 0.2547(3) 0.1017(2)
N6 N 0.9300(3) 0.5445(3) 0.2360(3)
C57 C 0.8916(4) 0.4450(4) 0.3044(3)
C58 C 1.1046(4) 0.6439(4) 0.3179(4)
C59 C 1.1235(4) 0.5708(4) 0.2369(4)
C60 C 0.9945(4) 0.5846(4) 0.2080(3)
C61 C 1.4836(4) 0.4083(4) 0.5561(3)
H40 H 1.3722 0.3259 0.5182
H41 H 1.3758 0.4061 0.5195
C62 C 0.9947(6) -0.3915(5) -0.0529(5)
H42 H 0.9785 -0.3750 0.0261
O18 O 0.8643(3) 0.5480(2) 0.2123(2)
C63 C 0.8120(4) 0.4082(4) 0.2702(3)
C64 C 0.9179(4) 0.4309(4) 0.3670(3)
H43 H 1.0670 0.6482 0.3346
H44 H 1.1318 0.6897 0.3033
H45 H 1.1412 0.6337 0.3516
H46 H 1.1662 0.5736 0.2735
H47 H 1.1425 0.6094 0.2117
H48 H 1.0997 0.5232 0.2103
C65 C 0.9716(4) 0.5373(4) 0.1432(4)
C66 C 1.0029(4) 0.6620(4) 0.1987(4)
C67 C 1.5158(6) 0.4656(6) 0.5975(5)
H49 H 1.5133 0.3837 0.5530
H50 H 1.0239 -0.3715 -0.0802
H51 H 0.9548 -0.4398 -0.0644
Tb3 Tb 0.787398(18) 0.600747(17) 0.234995(15)
C68 C 0.7612(4) 0.3572(4) 0.2973(3)
H52 H 0.7927 0.4181 0.2286
H53 H 0.9711 0.4543 0.3898
C69 C 0.8687(4) 0.3837(4) 0.3971(3)
H54 H 0.9668 0.4884 0.1508
H55 H 1.0110 0.5602 0.1232
H56 H 0.9226 0.5335 0.1149
H57 H 0.9576 0.6591 0.1650
H58 H 1.0484 0.6889 0.1865
H59 H 1.0081 0.6873 0.2386
H60 H 1.4879 0.4916 0.6021
H61 H 1.5674 0.4821 0.6237
O19 O 0.8703(3) 0.5987(3) 0.3377(2)
O20 O 0.7086(3) 0.5093(2) 0.2830(2)
O21 O 0.7081(3) 0.4946(3) 0.1571(2)
O22 O 0.8024(3) 0.6364(3) 0.1342(2)
O23 O 0.7566(3) 0.6618(2) 0.3085(2)
O24 O 0.8907(3) 0.7200(2) 0.2700(2)
O25 O 0.6852(2) 0.6307(2) 0.1724(2)
C70 C 0.7887(4) 0.3459(4) 0.3610(3)
H62 H 0.7087 0.3305 0.2729
H63 H 0.8878 0.3769 0.4399
C71 C 0.8576(4) 0.5689(4) 0.3868(3)
C72 C 0.7197(4) 0.4920(4) 0.3394(3)
C73 C 0.6946(4) 0.4784(4) 0.0975(3)
C74 C 0.7733(4) 0.6014(4) 0.0777(3)
C75 C 0.7989(4) 0.7178(4) 0.3521(3)
C76 C 0.9152(4) 0.7659(4) 0.3202(3)
N7 N 0.6283(3) 0.6407(3) 0.1800(3)
O26 O 0.7340(3) 0.2973(3) 0.3850(2)
C77 C 0.9299(4) 0.5991(4) 0.4479(3)
C78 C 0.7872(4) 0.5171(4) 0.3917(3)
C79 C 0.6439(4) 0.4364(4) 0.3498(3)
C80 C 0.6406(4) 0.3960(4) 0.0718(3)
C81 C 0.7237(4) 0.5274(4) 0.0559(3)
C82 C 0.8000(4) 0.6513(4) 0.0277(4)
C83 C 0.7594(4) 0.7245(4) 0.4012(3)
C84 C 0.8744(4) 0.7690(4) 0.3618(3)
C85 C 0.9994(4) 0.8250(4) 0.3357(3)
C86 C 0.6321(4) 0.7056(3) 0.2026(3)
C87 C 0.5470(4) 0.5804(4) 0.1554(3)
C88 C 0.7578(4) 0.2945(4) 0.4541(3)
F31 F 0.9419(3) 0.6646(3) 0.4739(3)
F32 F 0.9936(3) 0.6069(3) 0.4356(2)
F33 F 0.9238(3) 0.5549(3) 0.4935(2)
H64 H 0.7859 0.4992 0.4309
F34 F 0.5983(3) 0.4696(3) 0.3494(3)
F35 F 0.6041(2) 0.3793(3) 0.3032(2)
F36 F 0.6554(3) 0.4096(3) 0.4055(2)
F37 F 0.6231(3) 0.3782(3) 0.0086(2)
F38 F 0.6716(3) 0.3543(3) 0.1007(3)
F39 F 0.5746(3) 0.3768(3) 0.0816(3)
H65 H 0.7090 0.5093 0.0122
F40 F 0.7861(4) 0.7096(4) 0.0299(3)
F41 F 0.7666(4) 0.6195(4) -0.0321(3)
F42 F 0.8758(3) 0.6800(3) 0.0408(3)
F43 F 0.7595(3) 0.6746(3) 0.4411(2)
F44 F 0.7941(3) 0.7902(3) 0.4370(2)
F45 F 0.6855(2) 0.7104(3) 0.3719(2)
H66 H 0.8992 0.8069 0.3971
F46 F 1.0463(2) 0.7941(3) 0.3354(2)
F47 F 1.0047(3) 0.8701(3) 0.2903(2)
F48 F 1.0275(2) 0.8670(2) 0.3929(2)
N8 N 0.5604(3) 0.6919(3) 0.2047(3)
C89 C 0.7009(4) 0.7775(4) 0.2226(3)
C90 C 0.5466(4) 0.5071(4) 0.1724(5)
C91 C 0.5196(4) 0.5793(5) 0.0819(4)
C92 C 0.5072(4) 0.6107(4) 0.1921(3)
C93 C 0.6881(4) 0.2461(4) 0.4704(4)
H67 H 0.7812 0.3441 0.4781
H68 H 0.7960 0.2748 0.4655
O27 O 0.5412(2) 0.7390(2) 0.2261(2)
C94 C 0.7602(4) 0.7952(4) 0.1942(3)
C95 C 0.7094(4) 0.8281(3) 0.2715(3)
H69 H 0.5736 0.4931 0.1488
H70 H 0.4938 0.4695 0.1609
H71 H 0.5723 0.5121 0.2183
H72 H 0.5192 0.6261 0.0727
H73 H 0.4679 0.5400 0.0631
H74 H 0.5543 0.5712 0.0638
C96 C 0.5101(4) 0.5860(4) 0.2586(4)
C97 C 0.4253(4) 0.5982(4) 0.1528(3)
C98 C 0.6810(6) 0.1896(5) 0.5006(4)
H75 H 0.6457 0.2574 0.4578
C99 C 0.8259(4) 0.8616(4) 0.2158(3)
H76 H 0.7547 0.7619 0.1610
H77 H 0.6699 0.8168 0.2896
C100 C 0.7753(4) 0.8949(4) 0.2937(3)
H78 H 0.5627 0.5954 0.2829
H79 H 0.4766 0.5338 0.2532
H80 H 0.4930 0.6133 0.2815
H81 H 0.4055 0.6194 0.1786
H82 H 0.3922 0.5458 0.1406
H83 H 0.4263 0.6216 0.1144
H84 H 0.7220 0.1765 0.5141
H85 H 0.6349 0.1619 0.5090
O28 O 0.3779(2) 0.7378(2) 0.1380(2)
O29 O 0.4439(2) 0.8867(2) 0.1196(2)
O30 O 0.5275(3) 0.8051(2) 0.1113(2)
O31 O 0.6118(2) 0.9348(2) 0.2015(2)
O32 O 0.5850(3) 0.8687(3) 0.3124(2)
O33 O 0.4278(3) 0.7670(3) 0.2710(2)
C101 C 0.8355(4) 0.9115(4) 0.2661(3)
H86 H 0.8646 0.8735 0.1966
H87 H 0.7804 0.9285 0.3263
C102 C 0.3270(4) 0.7335(4) 0.0864(3)
C103 C 0.3863(4) 0.8612(4) 0.0682(3)
C104 C 0.5690(4) 0.8450(4) 0.0797(3)
C105 C 0.6467(4) 0.9547(4) 0.1608(3)
C106 C 0.5767(4) 0.8600(4) 0.3668(3)
C107 C 0.4418(4) 0.7698(4) 0.3313(3)
O34 O 0.9034(3) 0.9747(2) 0.2852(2)
C108 C 0.3274(4) 0.7889(4) 0.0480(3)
C109 C 0.2558(4) 0.6569(4) 0.0652(3)
C110 C 0.3845(4) 0.9182(4) 0.0210(3)
C111 C 0.5498(4) 0.8060(4) 0.0115(3)
C112 C 0.6278(4) 0.9166(4) 0.0997(3)
C113 C 0.7166(4) 1.0325(4) 0.1810(3)
C114 C 0.6510(4) 0.9053(4) 0.4251(3)
C115 C 0.5095(4) 0.8141(4) 0.3810(3)
C116 C 0.3706(4) 0.7146(4) 0.3500(3)
C117 C 0.9181(4) 1.0252(4) 0.3403(3)
H88 H 0.2879 0.7775 0.0082
F49 F 0.2024(3) 0.6521(3) 0.0106(3)
F50 F 0.2751(2) 0.6026(2) 0.0590(3)
F51 F 0.2204(3) 0.6397(2) 0.1099(2)
F52 F 0.4306(3) 0.9238(3) -0.0136(2)
F53 F 0.4079(3) 0.9848(2) 0.0520(2)
F54 F 0.3131(3) 0.8997(3) -0.0212(2)
F55 F 0.5891(3) 0.8520(2) -0.0240(2)
F56 F 0.5685(3) 0.7495(2) 0.0148(2)
F57 F 0.4742(3) 0.7811(3) -0.0216(2)
H89 H 0.6552 0.9399 0.0720
F58 F 0.6918(2) 1.0849(2) 0.1663(2)
F59 F 0.7540(2) 1.0464(2) 0.2446(2)
F60 F 0.7680(3) 1.0417(3) 0.1507(2)
F61 F 0.6374(3) 0.9192(3) 0.4774(2)
F62 F 0.6956(3) 0.9689(3) 0.4111(2)
F63 F 0.6926(3) 0.8677(4) 0.4410(3)
H90 H 0.5105 0.8134 0.4240
F64 F 0.3115(3) 0.7320(3) 0.3278(3)
F65 F 0.3857(3) 0.7142(3) 0.4128(2)
F66 F 0.3472(3) 0.6464(3) 0.3218(3)
C118 C 0.9367(4) 0.9963(4) 0.4013(3)
H91 H 0.8725 1.0336 0.3349
H92 H 0.9612 1.0726 0.3420
C119 C 0.9052(5) 0.9961(5) 0.4470(4)
H93 H 0.9728 0.9769 0.4086
H94 H 0.8689 1.0152 0.4410
H95 H 0.9194 0.9769 0.4850
Tb2_2 Tb 0.498576(17) 0.831665(17) 0.203155(14)
O9_2 O 0.4751(2) 0.9209(2) 0.2560(2)
loop_
_geom_bond_atom_site_label_1
_geom_bond_atom_site_label_2
_geom_bond_site_symmetry_1
_geom_bond_site_symmetry_2
Tb1 O1 1_555 1_555
O1 N1 1_555 1_555
O2 Tb1 1_555 1_555
O3 Tb1 1_555 1_555
O4 Tb1 1_555 1_555
O5 Tb1 1_555 1_555
O6 Tb1 1_555 1_555
O7 Tb1 1_555 1_555
O8 Tb1 1_555 1_555
N1 C7 1_555 1_555
C1 O2 1_555 1_555
C2 O3 1_555 1_555
C3 O4 1_555 1_555
C4 O5 1_555 1_555
C5 O6 1_555 1_555
C6 O7 1_555 1_555
N2 O8 1_555 1_555
C7 N3 1_555 1_555
C8 N1 1_555 1_555
C9 C1 1_555 1_555
C10 C1 1_555 1_555
C11 C2 1_555 1_555
C12 C3 1_555 1_555
C13 C3 1_555 1_555
C14 C4 1_555 1_555
C15 C5 1_555 1_555
C16 C5 1_555 1_555
C17 C6 1_555 1_555
C18 N2 1_555 1_555
C19 N2 1_555 1_555
N3 C21 1_555 1_555
C20 C7 1_555 1_555
C21 C8 1_555 1_555
C22 C8 1_555 1_555
C23 C8 1_555 1_555
F1 C9 1_555 1_555
F2 C9 1_555 1_555
F3 C9 1_555 1_555
H1 C10 1_555 1_555
F4 C11 1_555 1_555
F5 C11 1_555 1_555
F6 C11 1_555 1_555
F7 C12 1_555 1_555
F8 C12 1_555 1_555
F9 C12 1_555 1_555
H2 C13 1_555 1_555
F10 C14 1_555 1_555
F11 C14 1_555 1_555
F12 C14 1_555 1_555
F13 C15 1_555 1_555
F14 C15 1_555 1_555
F15 C15 1_555 1_555
H3 C16 1_555 1_555
F16 C17 1_555 1_555
F17 C17 1_555 1_555
F18 C17 1_555 1_555
N4 C18 1_555 1_555
C24 C18 1_555 1_555
C25 C19 1_555 1_555
C26 C19 1_555 1_555
C27 C19 1_555 1_555
O9 N3 1_555 1_555
C28 C20 1_555 1_555
C29 C20 1_555 1_555
C30 C21 1_555 1_555
C31 C21 1_555 1_555
H4 C22 1_555 1_555
H5 C22 1_555 1_555
H6 C22 1_555 1_555
H7 C23 1_555 1_555
H8 C23 1_555 1_555
H9 C23 1_555 1_555
O10 N4 1_555 1_555
C32 C24 1_555 1_555
C33 C24 1_555 1_555
H10 C25 1_555 1_555
H11 C25 1_555 1_555
H12 C25 1_555 1_555
H13 C26 1_555 1_555
H14 C26 1_555 1_555
H15 C26 1_555 1_555
C34 C27 1_555 1_555
C35 C27 1_555 1_555
Tb2 O9 1_555 1_555
C36 C28 1_555 1_555
H16 C28 1_555 1_555
H17 C29 1_555 1_555
C37 C29 1_555 1_555
H18 C30 1_555 1_555
H19 C30 1_555 1_555
H20 C30 1_555 1_555
H21 C31 1_555 1_555
H22 C31 1_555 1_555
H23 C31 1_555 1_555
Cu1 O10 1_555 1_555
C38 C32 1_555 1_555
H24 C32 1_555 1_555
H25 C33 1_555 1_555
C39 C33 1_555 1_555
H26 C34 1_555 1_555
H27 C34 1_555 1_555
H28 C34 1_555 1_555
H29 C35 1_555 1_555
H30 C35 1_555 1_555
H31 C35 1_555 1_555
C40 C36 1_555 1_555
H32 C36 1_555 1_555
H33 C37 1_555 1_555
O11 Cu1 1_555 1_555
O12 Cu1 1_555 1_555
O13 Cu1 1_555 1_555
O14 Cu1 1_555 1_555
O15 Cu1 1_555 1_555
H34 C38 1_555 1_555
C41 C38 1_555 1_555
H35 C39 1_555 1_555
O16 C40 1_555 1_555
C42 O11 1_555 1_555
C43 O12 1_555 1_555
C44 O13 1_555 1_555
C45 O14 1_555 1_555
N5 O15 1_555 1_555
O17 C41 1_555 1_555
C46 O16 1_555 1_555
C47 C42 1_555 1_555
C48 C42 1_555 1_555
C49 C43 1_555 1_555
C50 C44 1_555 1_555
C51 C44 1_555 1_555
C52 C45 1_555 1_555
C53 N5 1_555 1_555
C54 N5 1_555 1_555
C55 O17 1_555 1_555
C56 C46 1_555 1_555
H36 C46 1_555 1_555
H37 C46 1_555 1_555
H38 C47 1_555 1_555
F19 C48 1_555 1_555
F20 C48 1_555 1_555
F21 C48 1_555 1_555
F22 C49 1_555 1_555
F23 C49 1_555 1_555
F24 C49 1_555 1_555
F25 C50 1_555 1_555
F26 C50 1_555 1_555
F27 C50 1_555 1_555
H39 C51 1_555 1_555
F28 C52 1_555 1_555
F29 C52 1_555 1_555
F30 C52 1_555 1_555
N6 C53 1_555 1_555
C57 C53 1_555 1_555
C58 C54 1_555 1_555
C59 C54 1_555 1_555
C60 C54 1_555 1_555
C61 C55 1_555 1_555
H40 C55 1_555 1_555
H41 C55 1_555 1_555
C62 C56 1_555 1_555
H42 C56 1_555 1_555
O18 N6 1_555 1_555
C63 C57 1_555 1_555
C64 C57 1_555 1_555
H43 C58 1_555 1_555
H44 C58 1_555 1_555
H45 C58 1_555 1_555
H46 C59 1_555 1_555
H47 C59 1_555 1_555
H48 C59 1_555 1_555
C65 C60 1_555 1_555
C66 C60 1_555 1_555
C67 C61 1_555 1_555
H49 C61 1_555 1_555
H50 C62 1_555 1_555
H51 C62 1_555 1_555
Tb3 O18 1_555 1_555
C68 C63 1_555 1_555
H52 C63 1_555 1_555
H53 C64 1_555 1_555
C69 C64 1_555 1_555
H54 C65 1_555 1_555
H55 C65 1_555 1_555
H56 C65 1_555 1_555
H57 C66 1_555 1_555
H58 C66 1_555 1_555
H59 C66 1_555 1_555
H60 C67 1_555 1_555
H61 C67 1_555 1_555
O19 Tb3 1_555 1_555
O20 Tb3 1_555 1_555
O21 Tb3 1_555 1_555
O22 Tb3 1_555 1_555
O23 Tb3 1_555 1_555
O24 Tb3 1_555 1_555
O25 Tb3 1_555 1_555
C70 C68 1_555 1_555
H62 C68 1_555 1_555
H63 C69 1_555 1_555
C71 O19 1_555 1_555
C72 O20 1_555 1_555
C73 O21 1_555 1_555
C74 O22 1_555 1_555
C75 O23 1_555 1_555
C76 O24 1_555 1_555
N7 O25 1_555 1_555
O26 C70 1_555 1_555
C77 C71 1_555 1_555
C78 C71 1_555 1_555
C79 C72 1_555 1_555
C80 C73 1_555 1_555
C81 C73 1_555 1_555
C82 C74 1_555 1_555
C83 C75 1_555 1_555
C84 C75 1_555 1_555
C85 C76 1_555 1_555
C86 N7 1_555 1_555
C87 N7 1_555 1_555
C88 O26 1_555 1_555
F31 C77 1_555 1_555
F32 C77 1_555 1_555
F33 C77 1_555 1_555
H64 C78 1_555 1_555
F34 C79 1_555 1_555
F35 C79 1_555 1_555
F36 C79 1_555 1_555
F37 C80 1_555 1_555
F38 C80 1_555 1_555
F39 C80 1_555 1_555
H65 C81 1_555 1_555
F40 C82 1_555 1_555
F41 C82 1_555 1_555
F42 C82 1_555 1_555
F43 C83 1_555 1_555
F44 C83 1_555 1_555
F45 C83 1_555 1_555
H66 C84 1_555 1_555
F46 C85 1_555 1_555
F47 C85 1_555 1_555
F48 C85 1_555 1_555
N8 C86 1_555 1_555
C89 C86 1_555 1_555
C90 C87 1_555 1_555
C91 C87 1_555 1_555
C92 C87 1_555 1_555
C93 C88 1_555 1_555
H67 C88 1_555 1_555
H68 C88 1_555 1_555
O27 N8 1_555 1_555
C94 C89 1_555 1_555
C95 C89 1_555 1_555
H69 C90 1_555 1_555
H70 C90 1_555 1_555
H71 C90 1_555 1_555
H72 C91 1_555 1_555
H73 C91 1_555 1_555
H74 C91 1_555 1_555
C96 C92 1_555 1_555
C97 C92 1_555 1_555
C98 C93 1_555 1_555
H75 C93 1_555 1_555
C99 C94 1_555 1_555
H76 C94 1_555 1_555
H77 C95 1_555 1_555
C100 C95 1_555 1_555
H78 C96 1_555 1_555
H79 C96 1_555 1_555
H80 C96 1_555 1_555
H81 C97 1_555 1_555
H82 C97 1_555 1_555
H83 C97 1_555 1_555
H84 C98 1_555 1_555
H85 C98 1_555 1_555
O28 C102 1_555 1_555
O29 C103 1_555 1_555
O30 C104 1_555 1_555
O31 C105 1_555 1_555
O32 C106 1_555 1_555
O33 C107 1_555 1_555
C101 C99 1_555 1_555
H86 C99 1_555 1_555
H87 C100 1_555 1_555
C102 C108 1_555 1_555
C103 C108 1_555 1_555
C104 C111 1_555 1_555
C105 C112 1_555 1_555
C106 C114 1_555 1_555
C107 C115 1_555 1_555
O34 C101 1_555 1_555
C108 H88 1_555 1_555
C109 C102 1_555 1_555
C110 C103 1_555 1_555
C111 F55 1_555 1_555
C112 C104 1_555 1_555
C113 C105 1_555 1_555
C114 F61 1_555 1_555
C115 C106 1_555 1_555
C116 C107 1_555 1_555
C117 O34 1_555 1_555
F49 C109 1_555 1_555
F50 C109 1_555 1_555
F51 C109 1_555 1_555
F52 C110 1_555 1_555
F53 C110 1_555 1_555
F54 C110 1_555 1_555
F56 C111 1_555 1_555
F57 C111 1_555 1_555
H89 C112 1_555 1_555
F58 C113 1_555 1_555
F59 C113 1_555 1_555
F60 C113 1_555 1_555
F62 C114 1_555 1_555
F63 C114 1_555 1_555
H90 C115 1_555 1_555
F64 C116 1_555 1_555
F65 C116 1_555 1_555
F66 C116 1_555 1_555
C118 C117 1_555 1_555
H91 C117 1_555 1_555
H92 C117 1_555 1_555
C119 C118 1_555 1_555
H93 C118 1_555 1_555
H94 C119 1_555 1_555
H95 C119 1_555 1_555
Tb2_2 O27 1_555 1_555
O9_2 Tb2_2 1_555 1_555
C2 C10 1_555 1_555
C4 C13 1_555 1_555
C6 C16 1_555 1_555
N4 C27 1_555 1_555
C37 C40 1_555 1_555
C39 C41 1_555 1_555
C43 C47 1_555 1_555
C45 C51 1_555 1_555
N6 C60 1_555 1_555
C69 C70 1_555 1_555
C72 C78 1_555 1_555
C74 C81 1_555 1_555
C76 C84 1_555 1_555
N8 C92 1_555 1_555
C100 C101 1_555 1_555
O28 Tb2_2 1_555 1_555
O29 Tb2_2 1_555 1_555
O30 Tb2_2 1_555 1_555
O31 Tb2_2 1_555 1_555
O32 Tb2_2 1_555 1_555
O33 Tb2_2 1_555 1_555

#END
