
#######################################################################
#
#                 Cambridge Crystallographic Data Centre
#                                CCDC 
#
#######################################################################
#
# If this CIF has been generated from an entry in the Cambridge 
# Structural Database, then it will include bibliographic, chemical, 
# crystal, experimental, refinement or atomic coordinate data resulting 
# from the CCDC's data processing and validation procedures.
#
#######################################################################

data_HOHKEW
_symmetry_cell_setting           triclinic
_symmetry_space_group_name_H-M   'P -1'
_symmetry_Int_Tables_number      2
_space_group_name_Hall           '-P 1'
loop_
_symmetry_equiv_pos_site_id
_symmetry_equiv_pos_as_xyz
1 x,y,z
2 -x,-y,-z
_cell_length_a                   20.013(4)
_cell_length_b                   20.032(4)
_cell_length_c                   21.781(4)
_cell_angle_alpha                90.2510(10)
_cell_angle_beta                 107.255(2)
_cell_angle_gamma                114.839(3)
_cell_volume                     7483.31
loop_
_atom_site_label
_atom_site_type_symbol
_atom_site_fract_x
_atom_site_fract_y
_atom_site_fract_z
Gd1 Gd 1.235262(14) -0.101084(13) 0.291563(11)
Gd2 Gd 1.001150(15) 0.168099(14) 0.296755(12)
Gd3 Gd 0.712667(15) 0.399116(14) 0.265355(12)
Cu1 Cu 0.44995(4) 0.64436(4) 0.20988(3)
O1 O 1.4624(2) -0.2314(2) 0.23926(16)
O2 O 1.30464(19) -0.17239(19) 0.32546(16)
O3 O 1.0966(2) -0.3782(2) 0.05370(17)
O4 O 1.3023(2) -0.09309(19) 0.21611(16)
O5 O 1.1402(2) -0.16895(19) 0.19227(16)
O6 O 1.1565(2) -0.21362(19) 0.32068(16)
O7 O 1.2684(2) -0.08080(19) 0.40684(16)
O8 O 1.2181(2) -0.00872(19) 0.22734(16)
O9 O 1.3505(2) 0.01004(19) 0.33193(16)
O10 O 1.1370(2) -0.07868(19) 0.31758(16)
O11 O 1.0244(2) 0.07860(19) 0.24385(16)
O12 O 1.3820(2) 0.2726(2) 0.41009(17)
O13 O 1.0566(2) 0.1131(2) 0.38113(16)
O14 O 1.1225(2) 0.2621(2) 0.36163(16)
O15 O 1.0722(2) 0.2325(2) 0.22840(17)
O16 O 0.9142(2) 0.1306(2) 0.18631(16)
O17 O 0.9713(2) 0.1945(2) 0.38928(17)
O18 O 0.8869(2) 0.0648(2) 0.29830(17)
O19 O 0.9584(2) 0.26095(19) 0.27427(16)
O20 O 0.8144(2) 0.36781(19) 0.32858(16)
O21 O 0.5963(2) 0.0244(2) 0.21441(18)
O22 O 0.7439(2) 0.3371(2) 0.19213(17)
O23 O 0.6092(2) 0.2787(2) 0.23005(17)
O24 O 0.6300(2) 0.4017(2) 0.16205(17)
O25 O 0.7913(2) 0.4906(2) 0.21715(17)
O26 O 0.6976(2) 0.3649(2) 0.36736(17)
O27 O 0.7926(2) 0.5067(2) 0.34391(17)
O28 O 0.6350(2) 0.45172(19) 0.28722(17)
O29 O 0.4440(2) 0.5219(2) 0.17776(18)
O30 O 0.7653(2) 0.7019(2) 0.11464(18)
O31 O 0.5099(2) 0.6985(2) 0.15580(17)
O32 O 0.3613(2) 0.6019(2) 0.13145(17)
O33 O 0.3865(2) 0.6110(2) 0.26558(17)
O34 O 0.5420(2) 0.6633(2) 0.28346(17)
N1 N 1.4387(2) -0.2060(2) 0.2783(2)
N2 N 1.3647(2) -0.1783(2) 0.31857(19)
N3 N 1.0864(2) -0.0543(2) 0.2902(2)
N4 N 1.0346(2) 0.0196(2) 0.2549(2)
N5 N 0.9392(2) 0.3082(2) 0.2960(2)
N6 N 0.8713(2) 0.3581(2) 0.3206(2)
N7 N 0.5687(3) 0.4544(2) 0.2635(2)
N8 N 0.4791(3) 0.4870(2) 0.2120(2)
F1 F 1.1223(2) -0.36094(18) 0.3329(2)
F2 F 0.6673(2) 0.7448(2) 0.39769(16)
F3 F 1.1021(2) -0.34636(18) 0.42167(17)
F4 F 1.0303(2) -0.33257(19) 0.33384(19)
F5 F 1.3690(2) -0.0714(2) 0.53612(17)
F6 F 1.2925(3) -0.0203(2) 0.52589(17)
F7 F 1.2655(2) -0.1244(2) 0.56074(15)
F8 F 1.4090(2) -0.0827(3) 0.16346(18)
F9 F 1.3283(2) -0.1196(2) 0.06901(17)
F10 F 1.3614(3) -0.0118(2) 0.1152(2)
F11 F 1.06022(19) -0.24356(18) 0.02766(14)
F12 F 1.01350(19) -0.2772(2) 0.10542(16)
F13 F 1.0236(2) -0.1740(2) 0.07056(16)
F14 F 1.51023(18) 0.09394(19) 0.34633(17)
F15 F 1.4893(2) 0.19032(18) 0.3398(2)
F16 F 1.4703(2) 0.1261(2) 0.41709(16)
F17 F 1.2729(2) 0.15721(19) 0.16298(18)
F18 F 1.15966(19) 0.0731(2) 0.15229(16)
F19 F 1.2309(3) 0.0505(2) 0.10777(16)
F20 F 1.2808(2) 0.3597(2) 0.3906(2)
F21 F 1.22473(19) 0.39802(19) 0.4392(2)
F22 F 1.2975(2) 0.3496(2) 0.4902(2)
F23 F 1.1875(2) 0.1013(2) 0.52172(17)
F24 F 1.0928(2) 0.01560(19) 0.44857(16)
F25 F 1.0703(2) 0.0767(2) 0.51428(18)
F26 F 1.1881(2) 0.2667(3) 0.1710(2)
F27 F 1.1534(3) 0.3528(2) 0.1770(2)
F28 F 1.1138(2) 0.2854(3) 0.08639(18)
F29 F 0.8627(2) 0.0804(2) 0.02129(17)
F30 F 0.8057(3) 0.0289(3) 0.08740(19)
F31 F 0.8067(3) 0.1304(3) 0.0587(2)
F32 F 0.74511(19) -0.04765(19) 0.25500(16)
F33 F 0.8070(2) -0.08624(18) 0.33266(17)
F34 F 0.7311(2) -0.0435(2) 0.3491(2)
F35 F 1.0245(2) 0.2169(2) 0.52225(16)
F36 F 0.9089(2) 0.14520(19) 0.52382(15)
F37 F 0.9311(2) 0.24893(19) 0.48584(16)
F38 F 0.4724(2) 0.1325(2) 0.10618(18)
F39 F 0.4945(2) 0.1287(2) 0.20862(18)
F40 F 0.4537(2) 0.2056(2) 0.1640(2)
F41 F 0.7405(2) 0.3247(2) 0.05891(17)
F42 F 0.7058(2) 0.2088(2) 0.06319(18)
F43 F 0.8148(2) 0.2890(2) 0.12783(16)
F44 F 0.9033(3) 0.5312(2) 0.1527(3)
F45 F 0.8470(2) 0.5902(2) 0.09513(17)
F46 F 0.8968(2) 0.6218(2) 0.19756(18)
F47 F 0.5608(3) 0.3364(2) 0.0252(2)
F48 F 0.5776(3) 0.4459(3) 0.00621(17)
F49 F 0.5074(2) 0.3922(2) 0.06353(18)
F50 F 0.7149(3) 0.2938(3) 0.4731(3)
F51 F 0.6239(3) 0.3221(3) 0.4601(2)
F52 F 0.7331(4) 0.3840(3) 0.5332(2)
F53 F 0.8760(3) 0.6240(2) 0.49124(17)
F54 F 0.8291(3) 0.6474(2) 0.3983(2)
F55 F 0.9260(2) 0.6240(2) 0.4197(2)
F56 F 0.74528(18) 0.74560(19) 0.34780(18)
F57 F 0.66260(19) 0.64186(18) 0.36194(16)
F58 F 0.5886(2) 0.74476(18) 0.06954(15)
F59 F 0.6903(2) 0.8175(3) 0.14424(19)
F60 F 0.5876(3) 0.8354(2) 0.1173(2)
F61 F 0.2485(2) 0.55612(19) 0.01652(14)
F62 F 0.1659(2) 0.4823(2) 0.05680(17)
F63 F 0.2588(2) 0.4592(2) 0.04855(17)
F64 F 0.2948(2) 0.6167(2) 0.33536(17)
F65 F 0.1994(2) 0.5194(2) 0.27679(17)
F66 F 0.3020(2) 0.5132(2) 0.33764(18)
C1 C 0.9845(5) -0.4641(5) -0.0982(4)
H1 H 1.0119 -0.4893 -0.1056
H2 H 0.9325 -0.4801 -0.1231
C2 C 1.0167(3) -0.4102(3) -0.0561(3)
H3 H 0.9866 -0.3872 -0.0509
C3 C 1.0994(3) -0.3768(3) -0.0116(2)
H4 H 1.1256 -0.4055 -0.0195
H5 H 1.1273 -0.3261 -0.0185
C4 C 1.1648(3) -0.3407(3) 0.1032(2)
C5 C 1.2383(3) -0.3083(3) 0.0966(2)
H6 H 1.2434 -0.3131 0.0560
C6 C 1.3040(3) -0.2686(3) 0.1501(2)
H7 H 1.3530 -0.2474 0.1453
C7 C 1.2966(3) -0.2606(3) 0.2115(2)
C8 C 1.2221(3) -0.2958(3) 0.2178(2)
H8 H 1.2165 -0.2917 0.2584
C9 C 1.1576(3) -0.3359(3) 0.1651(2)
H9 H 1.1089 -0.3601 0.1703
C10 C 1.3642(3) -0.2164(3) 0.2674(2)
C11 C 1.4953(3) -0.1498(3) 0.3381(2)
C12 C 1.5579(3) -0.1736(3) 0.3728(3)
H10 H 1.5338 -0.2240 0.3804
H11 H 1.5899 -0.1416 0.4136
H12 H 1.5897 -0.1700 0.3464
C13 C 1.5317(3) -0.0758(3) 0.3140(3)
H13 H 1.5556 -0.0814 0.2834
H14 H 1.5704 -0.0387 0.3502
H15 H 1.4920 -0.0605 0.2933
C14 C 1.4387(3) -0.1524(3) 0.3750(2)
C15 C 1.4240(3) -0.2131(3) 0.4188(3)
H16 H 1.3785 -0.2212 0.4298
H17 H 1.4682 -0.1977 0.4577
H18 H 1.4161 -0.2584 0.3961
C16 C 1.4578(3) -0.0789(3) 0.4114(3)
H19 H 1.4600 -0.0431 0.3820
H20 H 1.5073 -0.0616 0.4453
H21 H 1.4181 -0.0853 0.4302
C17 C 1.1027(3) -0.3201(3) 0.3657(3)
C18 C 1.1585(3) -0.2373(3) 0.3740(2)
C19 C 1.2026(3) -0.1993(3) 0.4366(2)
H22 H 1.1987 -0.2250 0.4719
C20 C 1.2524(3) -0.1238(3) 0.4475(2)
C21 C 1.2943(3) -0.0849(3) 0.5185(3)
C22 C 1.3459(3) -0.0800(3) 0.1257(3)
C23 C 1.2797(3) -0.1099(3) 0.1555(2)
C24 C 1.2040(3) -0.1494(3) 0.1129(2)
H23 H 1.1957 -0.1579 0.0687
C25 C 1.1406(3) -0.1763(3) 0.1350(2)
C26 C 1.0595(3) -0.2184(3) 0.0845(2)
C27 C 1.2325(3) 0.0845(3) 0.1601(3)
C28 C 1.2657(3) 0.0536(3) 0.2206(2)
C29 C 1.3421(3) 0.0969(3) 0.2594(2)
H24 H 1.3700 0.1438 0.2500
C30 C 1.3776(3) 0.0709(3) 0.3123(2)
C31 C 1.4628(3) 0.1216(3) 0.3537(3)
C32 C 1.5057(5) 0.3915(4) 0.5530(4)
H25 H 1.4765 0.3710 0.5802
H26 H 1.5455 0.4397 0.5649
C33 C 1.4912(3) 0.3532(3) 0.4994(3)
H27 H 1.5217 0.3756 0.4736
C34 C 1.4297(3) 0.2762(3) 0.4755(3)
H28 H 1.4532 0.2425 0.4760
H29 H 1.3978 0.2613 0.5035
C35 C 1.3165(3) 0.2079(3) 0.3836(2)
C36 C 1.2998(3) 0.1415(3) 0.4090(3)
H30 H 1.3352 0.1389 0.4466
C37 C 1.2302(3) 0.0790(3) 0.3784(2)
H31 H 1.2194 0.0347 0.3956
C38 C 1.1758(3) 0.0820(3) 0.3216(2)
C39 C 1.1949(3) 0.1493(3) 0.2960(2)
H32 H 1.1596 0.1524 0.2584
C40 C 1.2644(3) 0.2106(3) 0.3252(2)
H33 H 1.2770 0.2539 0.3064
C41 C 1.1022(3) 0.0182(3) 0.2903(2)
C42 C 0.9870(3) -0.1788(3) 0.2295(3)
H34 H 1.0133 -0.1694 0.1979
H35 H 0.9320 -0.2083 0.2082
H36 H 1.0066 -0.2052 0.2610
C43 C 0.9707(3) -0.1173(3) 0.3214(3)
H37 H 0.9994 -0.1369 0.3534
H38 H 0.9164 -0.1516 0.3070
H39 H 0.9777 -0.0704 0.3401
C44 C 1.0008(3) -0.1062(3) 0.2631(2)
C45 C 0.9871(4) -0.0600(3) 0.1521(3)
H40 H 0.9792 -0.0215 0.1295
H41 H 0.9508 -0.1076 0.1265
H42 H 1.0394 -0.0532 0.1592
C46 C 0.9743(3) -0.0562(3) 0.2175(2)
C47 C 0.8929(3) -0.0652(3) 0.2088(3)
H43 H 0.8886 -0.0566 0.2506
H44 H 0.8556 -0.1148 0.1880
H45 H 0.8830 -0.0300 0.1824
C48 C 1.1161(3) 0.0825(3) 0.4797(3)
C49 C 1.1144(3) 0.1395(3) 0.4326(2)
C50 C 1.1728(3) 0.2113(3) 0.4519(3)
H46 H 1.2126 0.2226 0.4913
C51 C 1.1737(3) 0.2671(3) 0.4143(2)
C52 C 1.2451(3) 0.3441(3) 0.4352(3)
C53 C 1.1286(4) 0.2837(3) 0.1498(3)
C54 C 1.0589(3) 0.2305(3) 0.1683(3)
C55 C 0.9902(3) 0.1851(3) 0.1187(3)
H47 H 0.9894 0.1855 0.0758
C56 C 0.9228(3) 0.1391(3) 0.1320(3)
C57 C 0.8492(3) 0.0938(3) 0.0745(3)
C58 C 0.7825(3) -0.0334(3) 0.3182(3)
C59 C 0.8525(3) 0.0445(3) 0.3387(3)
C60 C 0.8706(3) 0.0819(3) 0.3998(3)
H48 H 0.8427 0.0585 0.4271
C61 C 0.9304(3) 0.1545(3) 0.4206(3)
C62 C 0.9488(3) 0.1912(3) 0.4890(3)
C63 C 0.5952(4) 0.0034(4) 0.0525(3)
H49 H 0.6316 -0.0155 0.0583
H50 H 0.5811 0.0227 0.0147
C64 C 0.5640(3) 0.0029(3) 0.0977(3)
H51 H 0.5279 0.0222 0.0902
C65 C 0.5818(3) -0.0261(3) 0.1593(3)
H52 H 0.5385 -0.0735 0.1574
H53 H 0.6274 -0.0347 0.1651
C66 C 0.6645(3) 0.0875(3) 0.2331(3)
C67 C 0.6738(3) 0.1376(3) 0.2839(3)
H54 H 0.6351 0.1255 0.3029
C68 C 0.7396(3) 0.2040(3) 0.3056(3)
H55 H 0.7450 0.2372 0.3388
C69 C 0.7987(3) 0.2219(3) 0.2776(2)
C70 C 0.7901(3) 0.1716(3) 0.2284(2)
H56 H 0.8292 0.1832 0.2099
C71 C 0.7241(3) 0.1047(3) 0.2066(3)
H57 H 0.7195 0.0710 0.1742
C72 C 0.8675(3) 0.2930(3) 0.2979(2)
C73 C 0.9932(3) 0.3905(3) 0.3092(3)
C74 C 0.9897(4) 0.4145(3) 0.2427(3)
H58 H 1.0063 0.3869 0.2195
H59 H 1.0234 0.4667 0.2478
H60 H 0.9371 0.4051 0.2186
C75 C 1.0750(3) 0.4025(3) 0.3479(3)
H61 H 1.0740 0.3784 0.3859
H62 H 1.1083 0.4548 0.3608
H63 H 1.0946 0.3819 0.3215
C76 C 0.9528(3) 0.4191(3) 0.3455(3)
C77 C 0.9794(4) 0.4187(4) 0.4196(3)
H64 H 0.9418 0.4216 0.4370
H65 H 1.0291 0.4606 0.4397
H66 H 0.9840 0.3735 0.4281
C78 C 0.9540(4) 0.4923(3) 0.3305(4)
H67 H 0.9270 0.4880 0.2851
H68 H 1.0070 0.5294 0.3412
H69 H 0.9287 0.5065 0.3557
C79 C 0.7408(3) 0.2753(3) 0.0998(3)
C80 C 0.7018(3) 0.2819(3) 0.1484(3)
C81 C 0.6255(3) 0.2309(3) 0.1381(3)
H70 H 0.6004 0.1935 0.1025
C82 C 0.5851(3) 0.2337(3) 0.1791(3)
C83 C 0.5000(3) 0.1736(3) 0.1639(3)
C84 C 0.8576(3) 0.5637(3) 0.1517(3)
C85 C 0.7821(3) 0.5083(3) 0.1607(3)
C86 C 0.7134(3) 0.4827(3) 0.1088(3)
H71 H 0.7144 0.5009 0.0697
C87 C 0.6432(3) 0.4309(3) 0.1132(3)
C88 C 0.5720(4) 0.4020(3) 0.0514(3)
C89 C 0.6986(4) 0.3507(4) 0.4736(3)
C90 C 0.7262(3) 0.3998(3) 0.4236(3)
C91 C 0.7761(3) 0.4748(3) 0.4448(3)
H72 H 0.7904 0.4936 0.4882
C92 C 0.8054(3) 0.5226(3) 0.4034(3)
C93 C 0.8585(3) 0.6050(3) 0.4284(3)
C94 C 0.8183(5) 0.8098(4) -0.0003(3)
H73 H 0.7772 0.8228 -0.0128
H74 H 0.8640 0.8378 -0.0092
C95 C 0.8118(4) 0.7532(3) 0.0293(3)
H75 H 0.8540 0.7418 0.0411
C96 C 0.7420(3) 0.7048(3) 0.0460(3)
H76 H 0.7039 0.7245 0.0346
H77 H 0.7184 0.6551 0.0219
C97 C 0.7106(3) 0.6531(3) 0.1382(3)
C98 C 0.6313(3) 0.6157(3) 0.1032(3)
H78 H 0.6124 0.6230 0.0606
C99 C 0.5811(3) 0.5679(3) 0.1321(3)
H79 H 0.5280 0.5441 0.1089
C100 C 0.6079(3) 0.5544(3) 0.1952(3)
C101 C 0.6884(3) 0.5925(3) 0.2300(3)
H80 H 0.7078 0.5840 0.2721
C102 C 0.7381(3) 0.6419(3) 0.2021(3)
H81 H 0.7907 0.6684 0.2261
C103 C 0.5540(3) 0.5005(3) 0.2229(3)
C104 C 0.3951(3) 0.3550(3) 0.1814(3)
H82 H 0.3619 0.3666 0.1457
H83 H 0.3643 0.3100 0.1949
H84 H 0.4337 0.3484 0.1679
C105 C 0.4352(3) 0.4184(3) 0.2378(3)
C106 C 0.3754(3) 0.4281(3) 0.2626(3)
H85 H 0.3995 0.4754 0.2896
H86 H 0.3562 0.3891 0.2873
H87 H 0.3327 0.4258 0.2263
C107 C 0.5272(4) 0.4620(3) 0.3561(3)
H88 H 0.5764 0.4664 0.3842
H89 H 0.4880 0.4385 0.3761
H90 H 0.5313 0.5106 0.3488
C108 C 0.4962(3) 0.3368(3) 0.3008(3)
H91 H 0.4886 0.3106 0.2605
H92 H 0.4521 0.3106 0.3149
H93 H 0.5425 0.3399 0.3331
C109 C 0.5046(3) 0.4152(3) 0.2913(3)
C110 C 0.6127(3) 0.7841(3) 0.1266(3)
C111 C 0.5823(3) 0.7381(3) 0.1761(3)
C112 C 0.6354(3) 0.7444(3) 0.2365(3)
H94 H 0.6881 0.7755 0.2450
C113 C 0.6114(3) 0.7053(3) 0.2841(3)
C114 C 0.6729(3) 0.7097(3) 0.3486(3)
C115 C 0.2765(3) 0.5535(3) 0.2992(3)
C116 C 0.3133(3) 0.5702(3) 0.2451(3)
C117 C 0.2657(3) 0.5398(3) 0.1818(2)
H95 H 0.2133 0.5079 0.1736
C118 C 0.2941(3) 0.5559(3) 0.1301(3)
C119 C 0.2408(3) 0.5127(3) 0.0625(3)
Cu1_2 Cu 1.44995(4) -0.35564(4) 0.20988(3)
O1_2 O 0.4624(2) 0.7686(2) 0.23926(16)
loop_
_geom_bond_atom_site_label_1
_geom_bond_atom_site_label_2
_geom_bond_site_symmetry_1
_geom_bond_site_symmetry_2
Gd1 O2 1_555 1_555
Gd2 O11 1_555 1_555
Gd3 O20 1_555 1_555
Cu1 O29 1_555 1_555
O1 N1 1_555 1_555
O2 N2 1_555 1_555
O3 C3 1_555 1_555
O4 Gd1 1_555 1_555
O5 Gd1 1_555 1_555
O6 Gd1 1_555 1_555
O7 Gd1 1_555 1_555
O8 Gd1 1_555 1_555
O9 Gd1 1_555 1_555
O10 Gd1 1_555 1_555
O11 N4 1_555 1_555
O12 C34 1_555 1_555
O13 Gd2 1_555 1_555
O14 Gd2 1_555 1_555
O15 Gd2 1_555 1_555
O16 Gd2 1_555 1_555
O17 Gd2 1_555 1_555
O18 Gd2 1_555 1_555
O19 Gd2 1_555 1_555
O20 N6 1_555 1_555
O21 C65 1_555 1_555
O22 Gd3 1_555 1_555
O23 Gd3 1_555 1_555
O24 Gd3 1_555 1_555
O25 Gd3 1_555 1_555
O26 Gd3 1_555 1_555
O27 Gd3 1_555 1_555
O28 Gd3 1_555 1_555
O29 N8 1_555 1_555
O30 C96 1_555 1_555
O31 Cu1 1_555 1_555
O32 Cu1 1_555 1_555
O33 Cu1 1_555 1_555
O34 Cu1 1_555 1_555
N1 C10 1_555 1_555
N2 C10 1_555 1_555
N3 O10 1_555 1_555
N4 C41 1_555 1_555
N5 O19 1_555 1_555
N6 C72 1_555 1_555
N7 O28 1_555 1_555
N8 C103 1_555 1_555
F1 C17 1_555 1_555
F2 C114 1_555 1_555
F3 C17 1_555 1_555
F4 C17 1_555 1_555
F5 C21 1_555 1_555
F6 C21 1_555 1_555
F7 C21 1_555 1_555
F8 C22 1_555 1_555
F9 C22 1_555 1_555
F10 C22 1_555 1_555
F11 C26 1_555 1_555
F12 C26 1_555 1_555
F13 C26 1_555 1_555
F14 C31 1_555 1_555
F15 C31 1_555 1_555
F16 C31 1_555 1_555
F17 C27 1_555 1_555
F18 C27 1_555 1_555
F19 C27 1_555 1_555
F20 C52 1_555 1_555
F21 C52 1_555 1_555
F22 C52 1_555 1_555
F23 C48 1_555 1_555
F24 C48 1_555 1_555
F25 C48 1_555 1_555
F26 C53 1_555 1_555
F27 C53 1_555 1_555
F28 C53 1_555 1_555
F29 C57 1_555 1_555
F30 C57 1_555 1_555
F31 C57 1_555 1_555
F32 C58 1_555 1_555
F33 C58 1_555 1_555
F34 C58 1_555 1_555
F35 C62 1_555 1_555
F36 C62 1_555 1_555
F37 C62 1_555 1_555
F38 C83 1_555 1_555
F39 C83 1_555 1_555
F40 C83 1_555 1_555
F41 C79 1_555 1_555
F42 C79 1_555 1_555
F43 C79 1_555 1_555
F44 C84 1_555 1_555
F45 C84 1_555 1_555
F46 C84 1_555 1_555
F47 C88 1_555 1_555
F48 C88 1_555 1_555
F49 C88 1_555 1_555
F50 C89 1_555 1_555
F51 C89 1_555 1_555
F52 C89 1_555 1_555
F53 C93 1_555 1_555
F54 C93 1_555 1_555
F55 C93 1_555 1_555
F56 C114 1_555 1_555
F57 C114 1_555 1_555
F58 C110 1_555 1_555
F59 C110 1_555 1_555
F60 C110 1_555 1_555
F61 C119 1_555 1_555
F62 C119 1_555 1_555
F63 C119 1_555 1_555
F64 C115 1_555 1_555
F65 C115 1_555 1_555
F66 C115 1_555 1_555
C1 H1 1_555 1_555
H2 C1 1_555 1_555
C2 C1 1_555 1_555
H3 C2 1_555 1_555
C3 C2 1_555 1_555
H4 C3 1_555 1_555
H5 C3 1_555 1_555
C4 O3 1_555 1_555
C5 C4 1_555 1_555
H6 C5 1_555 1_555
C6 C5 1_555 1_555
H7 C6 1_555 1_555
C7 C6 1_555 1_555
C8 C7 1_555 1_555
H8 C8 1_555 1_555
C9 C4 1_555 1_555
H9 C9 1_555 1_555
C10 C7 1_555 1_555
C11 N1 1_555 1_555
C12 C11 1_555 1_555
H10 C12 1_555 1_555
H11 C12 1_555 1_555
H12 C12 1_555 1_555
C13 C11 1_555 1_555
H13 C13 1_555 1_555
H14 C13 1_555 1_555
H15 C13 1_555 1_555
C14 N2 1_555 1_555
C15 C14 1_555 1_555
H16 C15 1_555 1_555
H17 C15 1_555 1_555
H18 C15 1_555 1_555
C16 C14 1_555 1_555
H19 C16 1_555 1_555
H20 C16 1_555 1_555
H21 C16 1_555 1_555
C17 C18 1_555 1_555
C18 O6 1_555 1_555
C19 C18 1_555 1_555
H22 C19 1_555 1_555
C20 O7 1_555 1_555
C21 C20 1_555 1_555
C22 C23 1_555 1_555
C23 O4 1_555 1_555
C24 C23 1_555 1_555
H23 C24 1_555 1_555
C25 O5 1_555 1_555
C26 C25 1_555 1_555
C27 C28 1_555 1_555
C28 O8 1_555 1_555
C29 C28 1_555 1_555
H24 C29 1_555 1_555
C30 O9 1_555 1_555
C31 C30 1_555 1_555
C32 H25 1_555 1_555
H26 C32 1_555 1_555
C33 C32 1_555 1_555
H27 C33 1_555 1_555
C34 C33 1_555 1_555
H28 C34 1_555 1_555
H29 C34 1_555 1_555
C35 O12 1_555 1_555
C36 C35 1_555 1_555
H30 C36 1_555 1_555
C37 C36 1_555 1_555
H31 C37 1_555 1_555
C38 C37 1_555 1_555
C39 C38 1_555 1_555
H32 C39 1_555 1_555
C40 C35 1_555 1_555
H33 C40 1_555 1_555
C41 N3 1_555 1_555
C42 H34 1_555 1_555
H35 C42 1_555 1_555
H36 C42 1_555 1_555
C43 H37 1_555 1_555
H38 C43 1_555 1_555
H39 C43 1_555 1_555
C44 N3 1_555 1_555
C45 H40 1_555 1_555
H41 C45 1_555 1_555
H42 C45 1_555 1_555
C46 N4 1_555 1_555
C47 C46 1_555 1_555
H43 C47 1_555 1_555
H44 C47 1_555 1_555
H45 C47 1_555 1_555
C48 C49 1_555 1_555
C49 O13 1_555 1_555
C50 C49 1_555 1_555
H46 C50 1_555 1_555
C51 O14 1_555 1_555
C52 C51 1_555 1_555
C53 C54 1_555 1_555
C54 O15 1_555 1_555
C55 C54 1_555 1_555
H47 C55 1_555 1_555
C56 O16 1_555 1_555
C57 C56 1_555 1_555
C58 C59 1_555 1_555
C59 O18 1_555 1_555
C60 C59 1_555 1_555
H48 C60 1_555 1_555
C61 O17 1_555 1_555
C62 C61 1_555 1_555
C63 H49 1_555 1_555
H50 C63 1_555 1_555
C64 C63 1_555 1_555
H51 C64 1_555 1_555
C65 C64 1_555 1_555
H52 C65 1_555 1_555
H53 C65 1_555 1_555
C66 O21 1_555 1_555
C67 C66 1_555 1_555
H54 C67 1_555 1_555
C68 C67 1_555 1_555
H55 C68 1_555 1_555
C69 C68 1_555 1_555
C70 C69 1_555 1_555
H56 C70 1_555 1_555
C71 C66 1_555 1_555
H57 C71 1_555 1_555
C72 N5 1_555 1_555
C73 N5 1_555 1_555
C74 C73 1_555 1_555
H58 C74 1_555 1_555
H59 C74 1_555 1_555
H60 C74 1_555 1_555
C75 C73 1_555 1_555
H61 C75 1_555 1_555
H62 C75 1_555 1_555
H63 C75 1_555 1_555
C76 N6 1_555 1_555
C77 C76 1_555 1_555
H64 C77 1_555 1_555
H65 C77 1_555 1_555
H66 C77 1_555 1_555
C78 C76 1_555 1_555
H67 C78 1_555 1_555
H68 C78 1_555 1_555
H69 C78 1_555 1_555
C79 C80 1_555 1_555
C80 O22 1_555 1_555
C81 C80 1_555 1_555
H70 C81 1_555 1_555
C82 O23 1_555 1_555
C83 C82 1_555 1_555
C84 C85 1_555 1_555
C85 O25 1_555 1_555
C86 C85 1_555 1_555
H71 C86 1_555 1_555
C87 O24 1_555 1_555
C88 C87 1_555 1_555
C89 C90 1_555 1_555
C90 O26 1_555 1_555
C91 C90 1_555 1_555
H72 C91 1_555 1_555
C92 O27 1_555 1_555
C93 C92 1_555 1_555
C94 H73 1_555 1_555
H74 C94 1_555 1_555
C95 C94 1_555 1_555
H75 C95 1_555 1_555
C96 C95 1_555 1_555
H76 C96 1_555 1_555
H77 C96 1_555 1_555
C97 O30 1_555 1_555
C98 C97 1_555 1_555
H78 C98 1_555 1_555
C99 C98 1_555 1_555
H79 C99 1_555 1_555
C100 C99 1_555 1_555
C101 C100 1_555 1_555
H80 C101 1_555 1_555
C102 C97 1_555 1_555
H81 C102 1_555 1_555
C103 N7 1_555 1_555
C104 H82 1_555 1_555
H83 C104 1_555 1_555
H84 C104 1_555 1_555
C105 N8 1_555 1_555
C106 C105 1_555 1_555
H85 C106 1_555 1_555
H86 C106 1_555 1_555
H87 C106 1_555 1_555
C107 H88 1_555 1_555
H89 C107 1_555 1_555
H90 C107 1_555 1_555
C108 H91 1_555 1_555
H92 C108 1_555 1_555
H93 C108 1_555 1_555
C109 N7 1_555 1_555
C110 C111 1_555 1_555
C111 O31 1_555 1_555
C112 C111 1_555 1_555
H94 C112 1_555 1_555
C113 O34 1_555 1_555
C114 C113 1_555 1_555
C115 C116 1_555 1_555
C116 O33 1_555 1_555
C117 C116 1_555 1_555
H95 C117 1_555 1_555
C118 O32 1_555 1_555
C119 C118 1_555 1_555
Cu1_2 O1 1_555 1_555
O1_2 Cu1 1_555 1_555
C8 C9 1_555 1_555
C11 C14 1_555 1_555
C19 C20 1_555 1_555
C24 C25 1_555 1_555
C29 C30 1_555 1_555
C38 C41 1_555 1_555
C39 C40 1_555 1_555
C42 C44 1_555 1_555
C43 C44 1_555 1_555
C44 C46 1_555 1_555
C45 C46 1_555 1_555
C50 C51 1_555 1_555
C55 C56 1_555 1_555
C60 C61 1_555 1_555
C69 C72 1_555 1_555
C70 C71 1_555 1_555
C73 C76 1_555 1_555
C81 C82 1_555 1_555
C86 C87 1_555 1_555
C91 C92 1_555 1_555
C100 C103 1_555 1_555
C101 C102 1_555 1_555
C104 C105 1_555 1_555
C105 C109 1_555 1_555
C107 C109 1_555 1_555
C108 C109 1_555 1_555
C112 C113 1_555 1_555
C117 C118 1_555 1_555

#END
