
#######################################################################
#
#                 Cambridge Crystallographic Data Centre
#                                CCDC 
#
#######################################################################
#
# If this CIF has been generated from an entry in the Cambridge 
# Structural Database, then it will include bibliographic, chemical, 
# crystal, experimental, refinement or atomic coordinate data resulting 
# from the CCDC's data processing and validation procedures.
#
#######################################################################

data_HOHKOG
_symmetry_cell_setting           monoclinic
_symmetry_space_group_name_H-M   'P 21/c'
_symmetry_Int_Tables_number      14
_space_group_name_Hall           '-P 2ybc'
loop_
_symmetry_equiv_pos_site_id
_symmetry_equiv_pos_as_xyz
1 x,y,z
2 -x,1/2+y,1/2-z
3 -x,-y,-z
4 x,1/2-y,1/2+z
_cell_length_a                   20.179(6)
_cell_length_b                   43.512(11)
_cell_length_c                   20.030(6)
_cell_angle_alpha                90
_cell_angle_beta                 113.174(4)
_cell_angle_gamma                90
_cell_volume                     16167.9
loop_
_atom_site_label
_atom_site_type_symbol
_atom_site_fract_x
_atom_site_fract_y
_atom_site_fract_z
Dy1 Dy 0.439878(14) 0.117428(6) -0.193733(15)
Dy2 Dy 0.203040(15) 0.110160(7) 0.082760(15)
Dy3 Dy -0.061270(14) 0.099670(6) 0.321908(14)
Cu1 Cu 0.68091(4) 0.137687(16) -0.45476(4)
O1 O 0.3018(2) 0.12376(10) 0.0545(2)
O2 O 0.6498(2) 0.17339(9) -0.5181(2)
O3 O 0.7396(2) 0.16476(9) -0.3787(2)
O4 O 0.6911(2) 0.10391(9) -0.3879(2)
O5 O 0.5703(2) 0.15026(9) -0.4389(2)
O6 O 0.4840(2) 0.10361(9) -0.2812(2)
O7 O 0.7563(2) 0.19013(9) -0.1077(2)
O8 O 0.5393(2) 0.13959(9) -0.1035(2)
O9 O 0.4615(2) 0.16420(9) -0.2409(2)
O10 O 0.5241(2) 0.07756(9) -0.1483(2)
O11 O 0.3758(2) 0.07136(9) -0.2381(2)
O12 O 0.3322(2) 0.13341(9) -0.2824(2)
O13 O 0.3924(2) 0.15510(9) -0.1393(2)
O14 O 0.4040(2) 0.09287(9) -0.1057(2)
O15 O 0.6470(2) 0.10902(9) -0.5355(2)
O16 O 0.0797(2) 0.14219(10) -0.2790(2)
O17 O 0.1059(2) 0.10781(10) -0.0302(2)
O18 O 0.2258(2) 0.06846(10) 0.0202(2)
O19 O 0.2735(2) 0.14083(10) 0.1817(2)
O20 O 0.1841(2) 0.16164(10) 0.0430(2)
O21 O 0.1295(2) 0.06970(10) 0.0940(2)
O22 O 0.2775(2) 0.07793(9) 0.1748(2)
O23 O 0.1220(2) 0.13251(10) 0.1288(2)
O24 O -0.0468(2) 0.09347(9) 0.2096(2)
O25 O 0.2750(2) 0.04531(9) 0.4072(2)
O26 O -0.1085(2) 0.14837(9) 0.2801(2)
O27 O -0.0390(2) 0.13034(8) 0.4250(2)
O28 O 0.0393(2) 0.13012(9) 0.3322(2)
O29 O 0.0387(2) 0.07829(9) 0.4153(2)
O30 O -0.0610(2) 0.04672(9) 0.2999(2)
O31 O -0.1752(2) 0.08810(8) 0.2322(2)
O32 O -0.1330(2) 0.07932(8) 0.3790(2)
O33 O -0.1896(2) 0.12410(9) 0.5603(2)
O34 O -0.3105(2) 0.20307(9) 0.2610(2)
N1 N 0.5307(2) 0.13507(11) -0.4145(3)
N2 N 0.4902(3) 0.11295(10) -0.3403(3)
N3 N 0.3945(2) 0.09874(11) -0.0465(3)
N4 N 0.3464(3) 0.11294(12) 0.0283(3)
N5 N 0.0621(3) 0.12638(11) 0.1343(3)
N6 N -0.0172(3) 0.10776(11) 0.1720(3)
N7 N -0.1400(2) 0.08439(10) 0.4402(2)
N8 N -0.1649(3) 0.10547(11) 0.5260(3)
F1 F -0.0657(3) -0.01404(11) 0.3406(3)
F2 F -0.1280(2) -0.02547(8) 0.2312(2)
F3 F -0.0226(3) -0.00822(11) 0.2609(4)
F4 F -0.3239(2) 0.07878(11) 0.1867(2)
F5 F -0.31704(19) 0.04297(9) 0.1178(2)
F6 F -0.2891(2) 0.08854(11) 0.1008(2)
F7 F -0.0427(2) 0.17202(10) 0.5448(2)
F8 F 0.0389(2) 0.19576(8) 0.5205(2)
F9 F 0.0529(2) 0.14848(9) 0.5530(2)
F10 F -0.1848(2) 0.19424(8) 0.1985(2)
F11 F -0.0758(2) 0.21039(9) 0.2319(2)
F12 F -0.1426(2) 0.22605(9) 0.2866(2)
F13 F 0.1214(2) 0.07508(9) 0.57324(19)
F14 F 0.1296(2) 0.03831(8) 0.5059(2)
F15 F 0.21394(19) 0.07212(10) 0.5456(2)
F16 F 0.1225(2) 0.18551(8) 0.4037(2)
F17 F 0.1289(2) 0.16851(8) 0.3055(2)
F18 F 0.21421(19) 0.15876(9) 0.4081(2)
F19 F 0.3211(4) 0.16345(14) 0.3186(3)
F20 F 0.3473(4) 0.20617(12) 0.2833(3)
F21 F 0.4037(3) 0.16530(16) 0.2786(3)
F22 F 0.1032(3) 0.21515(14) 0.0006(4)
F23 F 0.1962(4) 0.24155(11) 0.0523(3)
F24 F 0.1870(3) 0.21323(11) -0.0359(3)
F25 F -0.0422(2) 0.08231(13) -0.1135(3)
F26 F -0.0070(2) 0.12195(11) -0.1484(3)
F27 F -0.0036(3) 0.07970(17) -0.1979(3)
F28 F 0.2544(3) 0.00906(11) 0.0269(2)
F29 F 0.1677(2) 0.00039(10) -0.0753(2)
F30 F 0.2620(3) 0.02456(12) -0.0712(3)
F31 F 0.3312(2) 0.01372(10) 0.2882(2)
F32 F 0.3734(2) 0.05943(10) 0.3069(2)
F33 F 0.3876(2) 0.03162(10) 0.2259(2)
F34 F 0.0197(2) 0.03532(10) 0.0958(3)
F35 F 0.0715(3) 0.00933(15) 0.0392(3)
F36 F 0.0884(3) -0.00121(11) 0.1472(4)
F37 F 0.2891(2) 0.02680(9) -0.2028(3)
F38 F 0.2781(2) 0.02933(10) -0.3137(2)
F39 F 0.3398(2) -0.00711(8) -0.2454(3)
F40 F 0.5889(3) 0.00289(9) -0.1164(3)
F41 F 0.6220(3) 0.04069(14) -0.0455(3)
F42 F 0.6383(3) 0.04055(13) -0.1407(4)
F43 F 0.3586(2) 0.18904(9) -0.0469(2)
F44 F 0.2828(2) 0.21519(10) -0.1325(2)
F45 F 0.3965(3) 0.22163(10) -0.1033(3)
F46 F 0.1990(2) 0.14196(12) -0.3939(3)
F47 F 0.2128(2) 0.19092(10) -0.3811(2)
F48 F 0.2847(2) 0.16398(13) -0.4126(2)
F49 F 0.5907(2) 0.16809(11) 0.0336(2)
F50 F 0.6514(2) 0.19881(10) -0.0040(2)
F51 F 0.6727(2) 0.15034(11) 0.0017(2)
F52 F 0.4224(3) 0.23170(10) -0.2538(3)
F53 F 0.5318(2) 0.23605(9) -0.2443(2)
F54 F 0.4572(2) 0.20889(9) -0.3294(2)
F55 F 0.80019(19) 0.20866(8) -0.2783(2)
F56 F 0.8589(2) 0.17516(9) -0.1990(2)
F57 F 0.8843(2) 0.18309(10) -0.2923(3)
F58 F 0.6593(2) 0.06876(9) -0.2901(2)
F59 F 0.7648(2) 0.07640(10) -0.2101(2)
F60 F 0.7505(2) 0.05094(9) -0.3063(2)
F61 F 0.6275(2) 0.22605(8) -0.5922(2)
F62 F 0.5209(2) 0.20943(9) -0.6128(2)
F63 F 0.5667(2) 0.20275(9) -0.6920(2)
F64 F 0.5905(2) 0.09930(8) -0.72133(19)
F65 F 0.6447(2) 0.06813(8) -0.6333(2)
F66 F 0.5321(2) 0.07844(8) -0.6633(2)
C1 C 0.5961(3) 0.09026(14) -0.6549(3)
C2 C 0.6150(3) 0.11714(13) -0.6011(3)
C3 C 0.5941(3) 0.14615(13) -0.6288(3)
H1 H 0.5674 0.1484 -0.6784
C4 C 0.6116(3) 0.17213(14) -0.5855(3)
C5 C 0.5821(4) 0.20309(15) -0.6212(4)
C6 C 0.7268(4) 0.07514(14) -0.2812(3)
C7 C 0.7309(3) 0.10447(14) -0.3210(3)
C8 C 0.7750(3) 0.12850(14) -0.2819(3)
H2 H 0.8038 0.1257 -0.2330
C9 C 0.7768(3) 0.15618(14) -0.3144(3)
C10 C 0.8299(4) 0.18098(16) -0.2701(4)
C11 C 0.3690(3) 0.09381(15) -0.4213(4)
H3 H 0.3674 0.0797 -0.3851
H4 H 0.3413 0.0857 -0.4688
H5 H 0.3493 0.1132 -0.4156
C12 C 0.4473(3) 0.09821(14) -0.4125(3)
C13 C 0.4835(3) 0.06697(13) -0.4099(4)
H6 H 0.5313 0.0701 -0.4081
H7 H 0.4558 0.0554 -0.4525
H8 H 0.4861 0.0559 -0.3675
C14 C 0.4058(3) 0.14824(16) -0.4847(4)
H9 H 0.3596 0.1412 -0.5182
H10 H 0.4229 0.1642 -0.5069
H11 H 0.4014 0.1561 -0.4418
C15 C 0.4592(3) 0.12152(14) -0.4640(3)
C16 C 0.4661(4) 0.10756(16) -0.5304(3)
H12 H 0.5100 0.0959 -0.5157
H13 H 0.4669 0.1237 -0.5629
H14 H 0.4258 0.0943 -0.5546
C17 C 0.5417(3) 0.13161(13) -0.3431(3)
C18 C 0.5991(3) 0.14633(13) -0.2822(3)
C19 C 0.6331(3) 0.13180(13) -0.2150(3)
H15 H 0.6197 0.1120 -0.2083
C20 C 0.6862(3) 0.14676(13) -0.1589(3)
H16 H 0.7099 0.1367 -0.1149
C21 C 0.7047(3) 0.17683(13) -0.1675(3)
C22 C 0.6709(3) 0.19171(14) -0.2340(3)
H17 H 0.6831 0.2118 -0.2402
C23 C 0.6188(3) 0.17609(13) -0.2907(3)
H18 H 0.5965 0.1858 -0.3354
C24 C 0.7690(4) 0.22266(13) -0.1132(3)
H19 H 0.7245 0.2340 -0.1254
H20 H 0.7868 0.2261 -0.1511
C25 C 0.8234(3) 0.23338(13) -0.0418(3)
C26 C 0.8018(4) 0.24272(15) 0.0129(4)
H21 H 0.7533 0.2415 0.0053
C27 C 0.8510(5) 0.25373(15) 0.0781(4)
H22 H 0.8358 0.2601 0.1141
C28 C 0.9227(5) 0.25514(16) 0.0893(4)
H23 H 0.9561 0.2624 0.1333
C29 C 0.9457(4) 0.24586(15) 0.0358(4)
H24 H 0.9943 0.2467 0.0438
C30 C 0.8961(4) 0.23547(15) -0.0292(4)
H25 H 0.9113 0.2297 -0.0655
C31 C 0.4764(4) 0.21627(15) -0.2600(4)
C32 C 0.4955(3) 0.18822(13) -0.2107(4)
C33 C 0.5442(3) 0.19135(14) -0.1393(4)
H26 H 0.5644 0.2105 -0.1228
C34 C 0.5635(3) 0.16656(15) -0.0919(3)
C35 C 0.6207(4) 0.17136(16) -0.0157(4)
C36 C 0.3248(4) 0.02303(15) -0.2467(4)
C37 C 0.3907(4) 0.04380(14) -0.2216(3)
C38 C 0.4581(4) 0.03096(14) -0.1827(3)
H27 H 0.4620 0.0097 -0.1782
C39 C 0.5194(4) 0.04849(14) -0.1507(3)
C40 C 0.5918(4) 0.03254(18) -0.1117(4)
C41 C 0.2481(4) 0.16425(17) -0.3705(4)
C42 C 0.2979(3) 0.15838(14) -0.2912(3)
C43 C 0.3002(3) 0.17979(14) -0.2388(3)
H28 H 0.2703 0.1970 -0.2523
C44 C 0.3467(3) 0.17592(14) -0.1658(3)
C45 C 0.3457(4) 0.20080(15) -0.1120(4)
C46 C 0.4249(4) 0.0886(2) 0.1428(4)
H29 H 0.4072 0.1012 0.1715
H30 H 0.4735 0.0825 0.1715
H31 H 0.3951 0.0707 0.1267
C47 C 0.4231(3) 0.10684(16) 0.0768(3)
C48 C 0.4590(4) 0.13813(18) 0.0972(4)
H32 H 0.4518 0.1495 0.0539
H33 H 0.5097 0.1355 0.1250
H34 H 0.4381 0.1492 0.1257
C49 C 0.4371(4) 0.05342(16) 0.0270(4)
H35 H 0.3885 0.0493 0.0217
H36 H 0.4701 0.0452 0.0724
H37 H 0.4457 0.0439 -0.0121
C50 C 0.4482(3) 0.08822(15) 0.0254(3)
C51 C 0.5245(3) 0.09501(19) 0.0314(4)
H38 H 0.5582 0.0911 0.0801
H39 H 0.5278 0.1162 0.0195
H40 H 0.5355 0.0821 -0.0017
C52 C 0.3335(3) 0.11012(13) -0.0431(3)
C53 C 0.2671(3) 0.11799(13) -0.1039(3)
C54 C 0.2235(3) 0.14151(14) -0.0959(3)
H41 H 0.2371 0.1514 -0.0514
C55 C 0.1613(3) 0.15025(14) -0.1524(3)
H42 H 0.1334 0.1661 -0.1462
C56 C 0.1402(3) 0.13528(14) -0.2189(3)
C57 C 0.1827(3) 0.11163(14) -0.2276(3)
H43 H 0.1685 0.1014 -0.2718
C58 C 0.2457(3) 0.10337(14) -0.1708(3)
H44 H 0.2742 0.0878 -0.1774
C59 C 0.0329(3) 0.16590(15) -0.2717(4)
H45 H 0.0218 0.1613 -0.2298
H46 H -0.0121 0.1655 -0.3143
C60 C 0.0646(3) 0.19778(15) -0.2632(3)
C61 C 0.1042(3) 0.20660(15) -0.3036(3)
H47 H 0.1121 0.1925 -0.3346
C62 C 0.1317(4) 0.23606(16) -0.2981(4)
H48 H 0.1578 0.2417 -0.3255
C63 C 0.1207(4) 0.25698(17) -0.2523(4)
H49 H 0.1396 0.2767 -0.2482
C64 C 0.0807(4) 0.24839(18) -0.2117(4)
H50 H 0.0730 0.2626 -0.1807
C65 C 0.0525(4) 0.21889(17) -0.2172(4)
H51 H 0.0258 0.2134 -0.1903
C66 C 0.2171(4) 0.02125(19) -0.0373(4)
C67 C 0.1849(4) 0.05226(16) -0.0303(3)
C68 C 0.1155(4) 0.05923(16) -0.0793(3)
H52 H 0.0906 0.0449 -0.1148
C69 C 0.0825(3) 0.08687(16) -0.0770(3)
C70 C 0.0080(4) 0.09252(18) -0.1353(4)
C71 C 0.3415(4) 0.03862(15) 0.2552(4)
C72 C 0.2719(3) 0.05170(14) 0.1972(3)
C73 C 0.2097(3) 0.03323(15) 0.1753(4)
H53 H 0.2128 0.0136 0.1946
C74 C 0.1438(4) 0.04381(15) 0.1253(4)
C75 C 0.0798(4) 0.02187(18) 0.1012(4)
C76 C 0.3400(5) 0.1767(2) 0.2686(4)
C77 C 0.2845(4) 0.16902(18) 0.1928(4)
C78 C 0.2540(4) 0.19281(17) 0.1434(4)
H54 H 0.2668 0.2130 0.1581
C79 C 0.2048(4) 0.18710(15) 0.0725(4)
C80 C 0.1738(5) 0.21454(17) 0.0233(4)
C81 C -0.0117(4) 0.14988(17) 0.0155(3)
H55 H -0.0059 0.1307 -0.0053
H56 H 0.0252 0.1639 0.0161
H57 H -0.0582 0.1584 -0.0130
C82 C 0.0035(4) 0.17460(14) 0.1346(4)
H58 H -0.0375 0.1876 0.1103
H59 H 0.0465 0.1848 0.1368
H60 H 0.0072 0.1703 0.1829
C83 C -0.0056(3) 0.14448(14) 0.0927(3)
C84 C -0.1276(3) 0.13854(16) 0.1051(4)
H61 H -0.1125 0.1504 0.1490
H62 H -0.1622 0.1234 0.1053
H63 H -0.1492 0.1519 0.0640
C85 C -0.0854(4) 0.09657(16) 0.0446(4)
H64 H -0.1172 0.1045 -0.0017
H65 H -0.1097 0.0809 0.0602
H66 H -0.0434 0.0879 0.0404
C86 C -0.0627(3) 0.12260(15) 0.1002(3)
C87 C 0.0536(3) 0.10760(14) 0.1843(3)
C88 C 0.1107(3) 0.09095(13) 0.2428(3)
C89 C 0.1803(3) 0.10261(13) 0.2731(3)
H67 H 0.1910 0.1210 0.2561
C90 C 0.2336(3) 0.08708(13) 0.3285(3)
H68 H 0.2798 0.0953 0.3493
C91 C 0.2185(3) 0.05906(13) 0.3532(3)
C92 C 0.1489(3) 0.04718(13) 0.3230(3)
H69 H 0.1385 0.0287 0.3399
C93 C 0.0951(3) 0.06291(13) 0.2678(3)
H70 H 0.0488 0.0548 0.2474
C94 C 0.2632(4) 0.01460(13) 0.4278(4)
H71 H 0.2510 0.0008 0.3865
H72 H 0.2236 0.0146 0.4438
C95 C 0.3310(3) 0.00409(13) 0.4880(3)
C96 C 0.3845(4) -0.01110(15) 0.4752(4)
H73 H 0.3780 -0.0154 0.4275
C97 C 0.4473(4) -0.02014(16) 0.5306(4)
H74 H 0.4831 -0.0301 0.5205
C98 C 0.4567(4) -0.01424(14) 0.6017(4)
H75 H 0.4988 -0.0205 0.6397
C99 C 0.4040(4) 0.00077(15) 0.6161(4)
H76 H 0.4106 0.0050 0.6638
C100 C 0.3414(3) 0.00955(14) 0.5598(4)
H77 H 0.3054 0.0193 0.5700
C101 C 0.1422(3) 0.06827(14) 0.5188(3)
C102 C 0.1014(3) 0.08757(13) 0.4525(3)
C103 C 0.1355(3) 0.11347(13) 0.4398(3)
H78 H 0.1822 0.1181 0.4719
C104 C 0.1014(3) 0.13255(13) 0.3806(3)
C105 C 0.1425(4) 0.16118(14) 0.3746(3)
C106 C -0.0813(4) -0.00513(16) 0.2731(4)
C107 C -0.1076(3) 0.02817(13) 0.2624(3)
C108 C -0.1784(3) 0.03374(13) 0.2162(3)
H79 H -0.2079 0.0173 0.1929
C109 C -0.2062(3) 0.06337(14) 0.2040(3)
C110 C -0.2843(3) 0.06849(15) 0.1511(3)
C111 C 0.0048(3) 0.16903(14) 0.5131(3)
C112 C -0.0336(3) 0.15908(13) 0.4342(3)
C113 C -0.0592(3) 0.18188(13) 0.3819(3)
H80 H -0.0508 0.2024 0.3957
C114 C -0.0973(3) 0.17457(13) 0.3091(3)
C115 C -0.1259(4) 0.20149(14) 0.2562(4)
C116 C -0.1459(4) 0.06312(14) 0.6138(3)
H81 H -0.1960 0.0585 0.5877
H82 H -0.1405 0.0765 0.6537
H83 H -0.1197 0.0445 0.6320
C117 C -0.0418(3) 0.09195(15) 0.6048(4)
H84 H -0.0088 0.0756 0.6277
H85 H -0.0430 0.1061 0.6411
H86 H -0.0262 0.1025 0.5715
C118 C -0.1169(3) 0.07875(13) 0.5636(3)
C119 C -0.1886(3) 0.03762(13) 0.4689(3)
H87 H -0.2308 0.0487 0.4659
H88 H -0.1804 0.0207 0.5020
H89 H -0.1954 0.0300 0.4216
C120 C -0.0555(3) 0.04210(14) 0.5021(3)
H90 H -0.0640 0.0317 0.4572
H91 H -0.0430 0.0274 0.5407
H92 H -0.0166 0.0565 0.5120
C121 C -0.1232(3) 0.05921(13) 0.4961(3)
C122 C -0.1717(3) 0.10875(13) 0.4560(3)
C123 C -0.2091(3) 0.13314(13) 0.4068(3)
C124 C -0.2445(3) 0.12641(13) 0.3329(3)
H93 H -0.2442 0.1063 0.3171
C125 C -0.2801(3) 0.14890(13) 0.2827(3)
H94 H -0.3048 0.1439 0.2340
C126 C -0.2785(3) 0.17912(12) 0.3060(3)
C127 C -0.2430(3) 0.18642(13) 0.3795(3)
H95 H -0.2420 0.2066 0.3950
C128 C -0.2095(3) 0.16344(13) 0.4294(3)
H96 H -0.1870 0.1683 0.4785
C129 C -0.3546(3) 0.19506(14) 0.1870(3)
H97 H -0.3932 0.1815 0.1861
H98 H -0.3257 0.1842 0.1658
C130 C -0.3860(4) 0.22323(13) 0.1436(3)
C131 C -0.3414(4) 0.24418(14) 0.1304(3)
H99 H -0.2918 0.2415 0.1521
C132 C -0.3694(5) 0.26908(16) 0.0856(4)
H100 H -0.3389 0.2833 0.0776
C133 C -0.4433(5) 0.27279(15) 0.0529(4)
H101 H -0.4624 0.2894 0.0219
C134 C -0.4893(4) 0.25201(16) 0.0656(4)
H102 H -0.5390 0.2546 0.0441
C135 C -0.4594(4) 0.22718(15) 0.1114(3)
H103 H -0.4895 0.2131 0.1204
Cu1_2 Cu -0.31909(4) 0.137687(16) 0.54524(4)
O33_2 O 0.8104(2) 0.12410(9) -0.4397(2)
loop_
_geom_bond_atom_site_label_1
_geom_bond_atom_site_label_2
_geom_bond_site_symmetry_1
_geom_bond_site_symmetry_2
Dy1 O6 1_555 1_555
Dy2 O1 1_555 1_555
Dy3 O24 1_555 1_555
Cu1 O2 1_555 1_555
O1 N4 1_555 1_555
O2 C4 1_555 1_555
O3 Cu1 1_555 1_555
O4 Cu1 1_555 1_555
O5 Cu1 1_555 1_555
O6 N2 1_555 1_555
O7 C21 1_555 1_555
O8 Dy1 1_555 1_555
O9 Dy1 1_555 1_555
O10 Dy1 1_555 1_555
O11 Dy1 1_555 1_555
O12 Dy1 1_555 1_555
O13 Dy1 1_555 1_555
O14 Dy1 1_555 1_555
O15 Cu1 1_555 1_555
O16 C56 1_555 1_555
O17 Dy2 1_555 1_555
O18 Dy2 1_555 1_555
O19 Dy2 1_555 1_555
O20 Dy2 1_555 1_555
O21 Dy2 1_555 1_555
O22 Dy2 1_555 1_555
O23 Dy2 1_555 1_555
O24 N6 1_555 1_555
O25 C91 1_555 1_555
O26 Dy3 1_555 1_555
O27 Dy3 1_555 1_555
O28 Dy3 1_555 1_555
O29 Dy3 1_555 1_555
O30 Dy3 1_555 1_555
O31 Dy3 1_555 1_555
O32 Dy3 1_555 1_555
O33 N8 1_555 1_555
O34 C126 1_555 1_555
N1 O5 1_555 1_555
N2 C12 1_555 1_555
N3 O14 1_555 1_555
N4 C47 1_555 1_555
N5 O23 1_555 1_555
N6 C86 1_555 1_555
N7 O32 1_555 1_555
N8 C118 1_555 1_555
F1 C106 1_555 1_555
F2 C106 1_555 1_555
F3 C106 1_555 1_555
F4 C110 1_555 1_555
F5 C110 1_555 1_555
F6 C110 1_555 1_555
F7 C111 1_555 1_555
F8 C111 1_555 1_555
F9 C111 1_555 1_555
F10 C115 1_555 1_555
F11 C115 1_555 1_555
F12 C115 1_555 1_555
F13 C101 1_555 1_555
F14 C101 1_555 1_555
F15 C101 1_555 1_555
F16 C105 1_555 1_555
F17 C105 1_555 1_555
F18 C105 1_555 1_555
F19 C76 1_555 1_555
F20 C76 1_555 1_555
F21 C76 1_555 1_555
F22 C80 1_555 1_555
F23 C80 1_555 1_555
F24 C80 1_555 1_555
F25 C70 1_555 1_555
F26 C70 1_555 1_555
F27 C70 1_555 1_555
F28 C66 1_555 1_555
F29 C66 1_555 1_555
F30 C66 1_555 1_555
F31 C71 1_555 1_555
F32 C71 1_555 1_555
F33 C71 1_555 1_555
F34 C75 1_555 1_555
F35 C75 1_555 1_555
F36 C75 1_555 1_555
F37 C36 1_555 1_555
F38 C36 1_555 1_555
F39 C36 1_555 1_555
F40 C40 1_555 1_555
F41 C40 1_555 1_555
F42 C40 1_555 1_555
F43 C45 1_555 1_555
F44 C45 1_555 1_555
F45 C45 1_555 1_555
F46 C41 1_555 1_555
F47 C41 1_555 1_555
F48 C41 1_555 1_555
F49 C35 1_555 1_555
F50 C35 1_555 1_555
F51 C35 1_555 1_555
F52 C31 1_555 1_555
F53 C31 1_555 1_555
F54 C31 1_555 1_555
F55 C10 1_555 1_555
F56 C10 1_555 1_555
F57 C10 1_555 1_555
F58 C6 1_555 1_555
F59 C6 1_555 1_555
F60 C6 1_555 1_555
F61 C5 1_555 1_555
F62 C5 1_555 1_555
F63 C5 1_555 1_555
F64 C1 1_555 1_555
F65 C1 1_555 1_555
F66 C1 1_555 1_555
C1 C2 1_555 1_555
C2 O15 1_555 1_555
C3 C2 1_555 1_555
H1 C3 1_555 1_555
C4 C3 1_555 1_555
C5 C4 1_555 1_555
C6 C7 1_555 1_555
C7 O4 1_555 1_555
C8 C7 1_555 1_555
H2 C8 1_555 1_555
C9 O3 1_555 1_555
C10 C9 1_555 1_555
C11 H3 1_555 1_555
H4 C11 1_555 1_555
H5 C11 1_555 1_555
C12 C11 1_555 1_555
C13 C12 1_555 1_555
H6 C13 1_555 1_555
H7 C13 1_555 1_555
H8 C13 1_555 1_555
C14 H9 1_555 1_555
H10 C14 1_555 1_555
H11 C14 1_555 1_555
C15 N1 1_555 1_555
C16 C15 1_555 1_555
H12 C16 1_555 1_555
H13 C16 1_555 1_555
H14 C16 1_555 1_555
C17 N1 1_555 1_555
C18 C17 1_555 1_555
C19 C18 1_555 1_555
H15 C19 1_555 1_555
C20 C19 1_555 1_555
H16 C20 1_555 1_555
C21 C20 1_555 1_555
C22 C21 1_555 1_555
H17 C22 1_555 1_555
C23 C18 1_555 1_555
H18 C23 1_555 1_555
C24 O7 1_555 1_555
H19 C24 1_555 1_555
H20 C24 1_555 1_555
C25 C24 1_555 1_555
C26 C25 1_555 1_555
H21 C26 1_555 1_555
C27 C26 1_555 1_555
H22 C27 1_555 1_555
C28 C27 1_555 1_555
H23 C28 1_555 1_555
C29 C28 1_555 1_555
H24 C29 1_555 1_555
C30 C25 1_555 1_555
H25 C30 1_555 1_555
C31 C32 1_555 1_555
C32 O9 1_555 1_555
C33 C32 1_555 1_555
H26 C33 1_555 1_555
C34 O8 1_555 1_555
C35 C34 1_555 1_555
C36 C37 1_555 1_555
C37 O11 1_555 1_555
C38 C37 1_555 1_555
H27 C38 1_555 1_555
C39 O10 1_555 1_555
C40 C39 1_555 1_555
C41 C42 1_555 1_555
C42 O12 1_555 1_555
C43 C42 1_555 1_555
H28 C43 1_555 1_555
C44 O13 1_555 1_555
C45 C44 1_555 1_555
C46 H29 1_555 1_555
H30 C46 1_555 1_555
H31 C46 1_555 1_555
C47 C46 1_555 1_555
C48 C47 1_555 1_555
H32 C48 1_555 1_555
H33 C48 1_555 1_555
H34 C48 1_555 1_555
C49 H35 1_555 1_555
H36 C49 1_555 1_555
H37 C49 1_555 1_555
C50 N3 1_555 1_555
C51 C50 1_555 1_555
H38 C51 1_555 1_555
H39 C51 1_555 1_555
H40 C51 1_555 1_555
C52 N3 1_555 1_555
C53 C52 1_555 1_555
C54 C53 1_555 1_555
H41 C54 1_555 1_555
C55 C54 1_555 1_555
H42 C55 1_555 1_555
C56 C55 1_555 1_555
C57 C56 1_555 1_555
H43 C57 1_555 1_555
C58 C53 1_555 1_555
H44 C58 1_555 1_555
C59 O16 1_555 1_555
H45 C59 1_555 1_555
H46 C59 1_555 1_555
C60 C59 1_555 1_555
C61 C60 1_555 1_555
H47 C61 1_555 1_555
C62 C61 1_555 1_555
H48 C62 1_555 1_555
C63 C62 1_555 1_555
H49 C63 1_555 1_555
C64 C63 1_555 1_555
H50 C64 1_555 1_555
C65 C60 1_555 1_555
H51 C65 1_555 1_555
C66 C67 1_555 1_555
C67 O18 1_555 1_555
C68 C67 1_555 1_555
H52 C68 1_555 1_555
C69 O17 1_555 1_555
C70 C69 1_555 1_555
C71 C72 1_555 1_555
C72 O22 1_555 1_555
C73 C72 1_555 1_555
H53 C73 1_555 1_555
C74 O21 1_555 1_555
C75 C74 1_555 1_555
C76 C77 1_555 1_555
C77 O19 1_555 1_555
C78 C77 1_555 1_555
H54 C78 1_555 1_555
C79 O20 1_555 1_555
C80 C79 1_555 1_555
C81 H55 1_555 1_555
H56 C81 1_555 1_555
H57 C81 1_555 1_555
C82 H58 1_555 1_555
H59 C82 1_555 1_555
H60 C82 1_555 1_555
C83 N5 1_555 1_555
C84 H61 1_555 1_555
H62 C84 1_555 1_555
H63 C84 1_555 1_555
C85 H64 1_555 1_555
H65 C85 1_555 1_555
H66 C85 1_555 1_555
C86 C83 1_555 1_555
C87 N5 1_555 1_555
C88 C87 1_555 1_555
C89 C88 1_555 1_555
H67 C89 1_555 1_555
C90 C89 1_555 1_555
H68 C90 1_555 1_555
C91 C90 1_555 1_555
C92 C91 1_555 1_555
H69 C92 1_555 1_555
C93 C88 1_555 1_555
H70 C93 1_555 1_555
C94 O25 1_555 1_555
H71 C94 1_555 1_555
H72 C94 1_555 1_555
C95 C94 1_555 1_555
C96 C95 1_555 1_555
H73 C96 1_555 1_555
C97 C96 1_555 1_555
H74 C97 1_555 1_555
C98 C97 1_555 1_555
H75 C98 1_555 1_555
C99 C98 1_555 1_555
H76 C99 1_555 1_555
C100 C95 1_555 1_555
H77 C100 1_555 1_555
C101 C102 1_555 1_555
C102 O29 1_555 1_555
C103 C102 1_555 1_555
H78 C103 1_555 1_555
C104 O28 1_555 1_555
C105 C104 1_555 1_555
C106 C107 1_555 1_555
C107 O30 1_555 1_555
C108 C107 1_555 1_555
H79 C108 1_555 1_555
C109 O31 1_555 1_555
C110 C109 1_555 1_555
C111 C112 1_555 1_555
C112 O27 1_555 1_555
C113 C112 1_555 1_555
H80 C113 1_555 1_555
C114 O26 1_555 1_555
C115 C114 1_555 1_555
C116 H81 1_555 1_555
H82 C116 1_555 1_555
H83 C116 1_555 1_555
C117 H84 1_555 1_555
H85 C117 1_555 1_555
H86 C117 1_555 1_555
C118 C116 1_555 1_555
C119 H87 1_555 1_555
H88 C119 1_555 1_555
H89 C119 1_555 1_555
C120 H90 1_555 1_555
H91 C120 1_555 1_555
H92 C120 1_555 1_555
C121 N7 1_555 1_555
C122 N7 1_555 1_555
C123 C122 1_555 1_555
C124 C123 1_555 1_555
H93 C124 1_555 1_555
C125 C124 1_555 1_555
H94 C125 1_555 1_555
C126 C125 1_555 1_555
C127 C126 1_555 1_555
H95 C127 1_555 1_555
C128 C123 1_555 1_555
H96 C128 1_555 1_555
C129 O34 1_555 1_555
H97 C129 1_555 1_555
H98 C129 1_555 1_555
C130 C129 1_555 1_555
C131 C130 1_555 1_555
H99 C131 1_555 1_555
C132 C131 1_555 1_555
H100 C132 1_555 1_555
C133 C132 1_555 1_555
H101 C133 1_555 1_555
C134 C133 1_555 1_555
H102 C134 1_555 1_555
C135 C130 1_555 1_555
H103 C135 1_555 1_555
Cu1_2 O33 1_555 1_555
O33_2 Cu1 1_555 1_555
N2 C17 1_555 1_555
N4 C52 1_555 1_555
N6 C87 1_555 1_555
N8 C122 1_555 1_555
C8 C9 1_555 1_555
C12 C15 1_555 1_555
C14 C15 1_555 1_555
C22 C23 1_555 1_555
C29 C30 1_555 1_555
C33 C34 1_555 1_555
C38 C39 1_555 1_555
C43 C44 1_555 1_555
C47 C50 1_555 1_555
C49 C50 1_555 1_555
C57 C58 1_555 1_555
C64 C65 1_555 1_555
C68 C69 1_555 1_555
C73 C74 1_555 1_555
C78 C79 1_555 1_555
C81 C83 1_555 1_555
C82 C83 1_555 1_555
C84 C86 1_555 1_555
C85 C86 1_555 1_555
C92 C93 1_555 1_555
C99 C100 1_555 1_555
C103 C104 1_555 1_555
C108 C109 1_555 1_555
C113 C114 1_555 1_555
C117 C118 1_555 1_555
C118 C121 1_555 1_555
C119 C121 1_555 1_555
C120 C121 1_555 1_555
C127 C128 1_555 1_555
C134 C135 1_555 1_555

#END
