
#######################################################################
#
#                 Cambridge Crystallographic Data Centre
#                                CCDC 
#
#######################################################################
#
# If this CIF has been generated from an entry in the Cambridge 
# Structural Database, then it will include bibliographic, chemical, 
# crystal, experimental, refinement or atomic coordinate data resulting 
# from the CCDC's data processing and validation procedures.
#
#######################################################################

data_HOHLIB
_symmetry_cell_setting           triclinic
_symmetry_space_group_name_H-M   'P -1'
_symmetry_Int_Tables_number      2
_space_group_name_Hall           '-P 1'
loop_
_symmetry_equiv_pos_site_id
_symmetry_equiv_pos_as_xyz
1 x,y,z
2 -x,-y,-z
_cell_length_a                   19.960(4)
_cell_length_b                   20.020(4)
_cell_length_c                   21.980(4)
_cell_angle_alpha                107.49(3)
_cell_angle_beta                 92.08(3)
_cell_angle_gamma                114.15(3)
_cell_volume                     7514.88
loop_
_atom_site_label
_atom_site_type_symbol
_atom_site_fract_x
_atom_site_fract_y
_atom_site_fract_z
Ho1 Ho 0.392548(14) 0.207409(14) 0.266687(12)
Ho2 Ho 0.164245(14) 0.496867(14) 0.295528(12)
Ho3 Ho 0.895582(14) -0.268861(14) 0.290692(12)
Cu1 Cu 0.64634(4) -0.04625(4) 0.21623(3)
O1 O 1.2747(2) -0.1158(2) 0.4136(2)
O2 O 1.0774(2) -0.4750(2) 0.24644(18)
O3 O 0.9218(2) -0.3613(2) 0.31920(19)
O4 O 0.9854(2) -0.2870(2) 0.22891(18)
O5 O 1.0043(2) -0.1556(2) 0.33250(18)
O6 O 0.9166(2) -0.23412(19) 0.40373(18)
O7 O 0.7851(2) -0.3459(2) 0.31587(18)
O8 O 0.9030(2) -0.2036(2) 0.21743(18)
O9 O 0.8254(2) -0.3638(2) 0.19266(18)
O10 O 0.6097(2) -0.3941(2) 0.04326(18)
O11 O 0.8245(2) -0.2003(2) 0.32108(18)
O12 O 0.7693(2) -0.0367(2) 0.24106(18)
O13 O 0.6652(2) 0.0434(2) 0.29200(18)
O14 O 0.6975(2) 0.0170(2) 0.16584(18)
O15 O 0.6130(2) -0.1149(2) 0.26678(19)
O16 O 0.6013(2) -0.1313(2) 0.13470(18)
O17 O 0.5185(2) -0.0553(2) 0.1868(2)
O18 O 0.4485(2) 0.1360(2) 0.29257(18)
O19 O 0.6941(2) 0.2601(2) 0.1225(2)
O20 O 0.3910(2) 0.1201(2) 0.16738(18)
O21 O 0.4817(2) 0.2798(2) 0.21843(18)
O22 O 0.3578(2) 0.1960(2) 0.36533(19)
O23 O 0.4992(2) 0.2906(2) 0.34542(18)
O24 O 0.3295(2) 0.2338(2) 0.19156(18)
O25 O 0.2742(2) 0.1054(2) 0.23459(18)
O26 O 0.3658(2) 0.3119(2) 0.32474(18)
O27 O 0.2520(2) 0.4504(2) 0.26940(19)
O28 O 0.0222(2) 0.0884(2) 0.2156(2)
O29 O 0.2595(2) 0.6151(2) 0.35993(18)
O30 O 0.1129(2) 0.5515(2) 0.37884(18)
O31 O 0.1236(2) 0.4113(2) 0.18668(18)
O32 O 0.2262(2) 0.5672(2) 0.23082(18)
O33 O 0.0639(2) 0.3854(2) 0.29606(19)
O34 O 0.1966(2) 0.4693(2) 0.38567(19)
N1 N 1.0182(3) -0.4647(2) 0.2573(2)
N2 N 0.9455(3) -0.4123(3) 0.2925(2)
N3 N 0.8214(2) -0.1396(2) 0.3154(2)
N4 N 0.7952(2) -0.0619(2) 0.2782(2)
N5 N 0.4838(3) -0.0203(3) 0.2199(2)
N6 N 0.4510(2) 0.0694(2) 0.2695(2)
N7 N 0.3549(2) 0.3677(2) 0.3147(2)
N8 N 0.3017(2) 0.4330(2) 0.2908(2)
F1 F 1.0687(2) -0.3448(2) 0.15700(18)
F2 F 1.1496(2) -0.2317(2) 0.1667(2)
F3 F 1.0410(3) -0.2783(3) 0.1111(2)
F4 F 1.18681(19) -0.0176(2) 0.3469(2)
F5 F 1.1196(2) -0.0332(2) 0.42010(17)
F6 F 1.09058(19) 0.00469(18) 0.34693(18)
F7 F 0.9767(2) -0.2154(3) 0.5234(2)
F8 F 0.8743(2) -0.2341(2) 0.55597(17)
F9 F 0.9328(3) -0.1332(2) 0.53211(19)
F10 F 0.6511(2) -0.4006(2) 0.41185(19)
F11 F 0.6363(2) -0.3836(3) 0.3228(2)
F12 F 0.6663(2) -0.4730(2) 0.3270(2)
F13 F 0.8127(2) -0.4838(2) 0.0731(2)
F14 F 0.7460(2) -0.4451(2) 0.02868(17)
F15 F 0.7113(2) -0.4881(2) 0.10581(19)
F16 F 0.8769(2) -0.1779(2) 0.07102(18)
F17 F 0.9157(3) -0.0963(2) 0.1667(2)
F18 F 0.9846(2) -0.1462(3) 0.1201(3)
F19 F 0.6395(2) 0.1615(2) 0.37101(18)
F20 F 0.7460(2) 0.24556(19) 0.36363(17)
F21 F 0.7412(2) 0.1639(2) 0.40938(17)
F22 F 0.74207(19) 0.08916(19) 0.08055(16)
F23 F 0.8023(2) 0.19979(18) 0.15670(17)
F24 F 0.8409(2) 0.1122(2) 0.14053(19)
F25 F 0.4609(3) -0.2183(3) 0.0484(2)
F26 F 0.5517(2) -0.2371(2) 0.01637(18)
F27 F 0.4725(3) -0.3189(2) 0.0503(2)
F28 F 0.5126(3) -0.2038(3) 0.3317(3)
F29 F 0.5136(3) -0.3052(2) 0.2650(2)
F30 F 0.6130(2) -0.2152(2) 0.32718(19)
F31 F 0.5171(2) 0.3827(3) 0.1444(2)
F32 F 0.6088(2) 0.3859(2) 0.20002(18)
F33 F 0.5805(2) 0.3264(2) 0.09768(19)
F34 F 0.3168(3) 0.0372(3) 0.0351(2)
F35 F 0.4245(3) 0.0582(2) 0.01111(19)
F36 F 0.3832(3) -0.0061(2) 0.0727(2)
F37 F 0.3751(3) 0.2371(3) 0.5320(2)
F38 F 0.2834(3) 0.2126(4) 0.4658(3)
F39 F 0.3171(3) 0.1270(3) 0.4593(2)
F40 F 0.6163(3) 0.4257(3) 0.4196(3)
F41 F 0.6155(2) 0.3827(2) 0.49603(18)
F42 F 0.6402(2) 0.3291(3) 0.4073(2)
F43 F 0.3086(3) 0.2196(3) 0.0562(2)
F44 F 0.2788(2) 0.29950(19) 0.12407(18)
F45 F 0.1935(2) 0.1889(2) 0.06340(19)
F46 F 0.1253(2) -0.0113(2) 0.2145(2)
F47 F 0.1245(2) -0.0373(2) 0.11224(19)
F48 F 0.2016(2) -0.0523(2) 0.1705(2)
F49 F 0.3978(2) 0.7176(2) 0.4370(2)
F50 F 0.3590(2) 0.7729(2) 0.3904(2)
F51 F 0.3524(3) 0.7905(2) 0.4879(2)
F52 F 0.1070(2) 0.6826(2) 0.52143(19)
F53 F 0.0177(2) 0.5910(2) 0.44699(18)
F54 F 0.0787(3) 0.5639(3) 0.5089(2)
F55 F 0.0193(4) 0.3116(4) 0.0791(3)
F56 F 0.1062(4) 0.2900(3) 0.0736(3)
F57 F 0.0886(3) 0.3515(3) 0.0202(2)
F58 F 0.2614(3) 0.6819(2) 0.1753(2)
F59 F 0.3492(2) 0.6497(2) 0.1866(2)
F60 F 0.2838(3) 0.6087(2) 0.0929(2)
F61 F -0.0509(2) 0.2447(2) 0.25406(19)
F62 F -0.0428(2) 0.2326(2) 0.3472(2)
F63 F -0.0843(2) 0.3095(2) 0.3317(2)
F64 F 0.1552(2) 0.4111(2) 0.51969(18)
F65 F 0.2561(2) 0.4291(2) 0.4803(2)
F66 F 0.2277(2) 0.5248(2) 0.51740(19)
C1 C 1.3913(6) 0.0312(6) 0.5687(5)
H1 H 1.4359 0.0803 0.5767
H2 H 1.4039 -0.0025 0.5864
H3 H 1.3525 0.0419 0.5897
C2 C 1.3661(6) -0.0103(6) 0.4987(5)
H4 H 1.3923 -0.0433 0.4839
H5 H 1.3809 0.0285 0.4765
C3 C 1.2795(4) -0.0633(4) 0.4773(4)
H6 H 1.2597 -0.0920 0.5072
H7 H 1.2522 -0.0322 0.4750
C4 C 1.2099(3) -0.1816(3) 0.3871(3)
C5 C 1.2110(3) -0.2352(3) 0.3295(3)
H8 H 1.2546 -0.2233 0.3106
C6 C 1.1489(3) -0.3050(3) 0.3002(3)
H9 H 1.1507 -0.3418 0.2620
C7 C 1.0833(3) -0.3227(3) 0.3257(3)
C8 C 1.0814(3) -0.2683(3) 0.3811(3)
H10 H 1.0366 -0.2787 0.3983
C9 C 1.1447(3) -0.1982(3) 0.4118(3)
H11 H 1.1430 -0.1614 0.4501
C10 C 1.0182(3) -0.3970(3) 0.2926(3)
C11 C 0.9421(3) -0.5243(3) 0.2189(3)
C12 C 0.9317(3) -0.6066(3) 0.2089(3)
H12 H 0.9647 -0.6187 0.1801
H13 H 0.8797 -0.6437 0.1894
H14 H 0.9442 -0.6105 0.2509
C13 C 0.9371(3) -0.5118(3) 0.1543(3)
H15 H 0.9427 -0.4588 0.1618
H16 H 0.8884 -0.5497 0.1269
H17 H 0.9769 -0.5188 0.1324
C14 C 0.8938(3) -0.4985(3) 0.2649(3)
C15 C 0.8190(3) -0.5126(3) 0.2312(3)
H18 H 0.7926 -0.4934 0.2636
H19 H 0.7890 -0.5687 0.2082
H20 H 0.8271 -0.4849 0.2002
C16 C 0.8841(4) -0.5288(4) 0.3221(3)
H21 H 0.9317 -0.5256 0.3394
H22 H 0.8460 -0.5832 0.3071
H23 H 0.8684 -0.4969 0.3562
C17 C 1.0768(4) -0.2739(4) 0.1638(3)
C18 C 1.0486(3) -0.2397(3) 0.2230(3)
C19 C 1.0909(3) -0.1632(3) 0.2628(3)
H24 H 1.1385 -0.1344 0.2541
C20 C 1.0659(3) -0.1273(3) 0.3151(3)
C21 C 1.1170(3) -0.0434(3) 0.3572(3)
C22 C 0.6772(3) -0.4013(4) 0.3577(3)
C23 C 0.7602(3) -0.3454(3) 0.3683(3)
C24 C 0.7986(3) -0.3017(3) 0.4309(3)
H25 H 0.7730 -0.3057 0.4661
C25 C 0.8758(3) -0.2511(3) 0.4433(3)
C26 C 0.9148(4) -0.2086(4) 0.5151(3)
C27 C 0.9158(4) -0.1612(4) 0.1282(3)
C28 C 0.8850(3) -0.2262(3) 0.1568(3)
C29 C 0.8432(3) -0.3018(3) 0.1139(3)
H26 H 0.8327 -0.3109 0.0689
C30 C 0.8165(3) -0.3642(3) 0.1362(3)
C31 C 0.7704(4) -0.4460(4) 0.0853(3)
C32 C 0.5863(5) -0.5243(4) -0.0773(4)
H27 H 0.5506 -0.5745 -0.1091
H28 H 0.5948 -0.5307 -0.0357
H29 H 0.6337 -0.5059 -0.0929
C33 C 0.5554(4) -0.4656(3) -0.0687(3)
H30 H 0.5069 -0.4852 -0.0542
H31 H 0.5463 -0.4600 -0.1110
C34 C 0.6074(4) -0.3865(3) -0.0199(3)
H32 H 0.6580 -0.3688 -0.0308
H33 H 0.5888 -0.3477 -0.0203
C35 C 0.6526(3) -0.3284(3) 0.0946(3)
C36 C 0.6578(3) -0.3405(3) 0.1539(3)
H34 H 0.6323 -0.3914 0.1559
C37 C 0.7003(3) -0.2781(3) 0.2094(3)
H35 H 0.7042 -0.2860 0.2496
C38 C 0.7376(3) -0.2030(3) 0.2064(3)
C39 C 0.7303(3) -0.1924(3) 0.1470(3)
H36 H 0.7542 -0.1415 0.1447
C40 C 0.6891(3) -0.2545(3) 0.0920(3)
H37 H 0.6856 -0.2466 0.0517
C41 C 0.7837(3) -0.1373(3) 0.2652(3)
C42 C 0.8515(3) -0.0076(3) 0.3393(3)
C43 C 0.9259(3) 0.0284(3) 0.3174(3)
H38 H 0.9390 -0.0131 0.2934
H39 H 0.9650 0.0645 0.3555
H40 H 0.9214 0.0567 0.2893
C44 C 0.8289(3) 0.0549(3) 0.3756(3)
H41 H 0.8321 0.0884 0.3501
H42 H 0.8625 0.0864 0.4176
H43 H 0.7775 0.0303 0.3824
C45 C 0.8476(3) -0.0662(3) 0.3738(3)
C46 C 0.7863(3) -0.0823(3) 0.4147(3)
H44 H 0.8016 -0.0378 0.4552
H45 H 0.7781 -0.1293 0.4246
H46 H 0.7399 -0.0902 0.3904
C47 C 0.9215(3) -0.0483(3) 0.4119(3)
H47 H 0.9580 -0.0465 0.3830
H48 H 0.9144 -0.0892 0.4303
H49 H 0.9399 0.0022 0.4470
C48 C 0.7079(3) 0.1716(3) 0.3600(3)
C49 C 0.7041(3) 0.1130(3) 0.2954(3)
C50 C 0.7412(3) 0.1401(3) 0.2495(3)
H50 H 0.7719 0.1944 0.2604
C51 C 0.7345(3) 0.0898(3) 0.1880(3)
C52 C 0.7793(3) 0.1233(3) 0.1405(3)
C53 C 0.5518(4) -0.2280(4) 0.2920(4)
C54 C 0.5688(3) -0.1868(3) 0.2419(3)
C55 C 0.5357(3) -0.2295(3) 0.1784(3)
H51 H 0.5003 -0.2824 0.1672
C56 C 0.5526(3) -0.1971(3) 0.1298(3)
C57 C 0.5075(4) -0.2450(4) 0.0608(3)
C58 C 0.7678(5) 0.2816(5) -0.0275(4)
H52 H 0.7231 0.2709 -0.0561
H53 H 0.7770 0.2352 -0.0396
H54 H 0.8108 0.3255 -0.0320
C59 C 0.7562(4) 0.3015(4) 0.0416(3)
H55 H 0.8043 0.3210 0.0707
H56 H 0.7406 0.3440 0.0517
C60 C 0.6993(3) 0.2340(3) 0.0547(3)
H57 H 0.6503 0.2148 0.0271
H58 H 0.7141 0.1909 0.0450
C61 C 0.6471(3) 0.2070(3) 0.1461(3)
C62 C 0.6084(3) 0.1266(3) 0.1106(3)
H59 H 0.6150 0.1060 0.0675
C63 C 0.5603(3) 0.0780(3) 0.1398(3)
H60 H 0.5346 0.0237 0.1161
C64 C 0.5486(3) 0.1062(3) 0.2022(3)
C65 C 0.5873(3) 0.1873(3) 0.2363(3)
H61 H 0.5795 0.2083 0.2789
C66 C 0.6360(3) 0.2365(3) 0.2089(3)
H62 H 0.6623 0.2908 0.2328
C67 C 0.4962(3) 0.0541(3) 0.2303(3)
C68 C 0.4163(3) -0.0630(3) 0.2454(3)
C69 C 0.3512(3) -0.1060(4) 0.1895(3)
H63 H 0.3432 -0.0684 0.1738
H64 H 0.3062 -0.1358 0.2040
H65 H 0.3619 -0.1418 0.1543
C70 C 0.4285(4) -0.1200(3) 0.2723(4)
H66 H 0.4270 -0.1640 0.2363
H67 H 0.3891 -0.1392 0.2967
H68 H 0.4773 -0.0933 0.3011
C71 C 0.4136(3) 0.0076(3) 0.2984(3)
C72 C 0.4639(4) 0.0324(4) 0.3630(3)
H69 H 0.5144 0.0405 0.3556
H70 H 0.4438 -0.0084 0.3823
H71 H 0.4659 0.0812 0.3925
C73 C 0.3361(3) -0.0019(3) 0.3071(3)
H72 H 0.3394 0.0432 0.3430
H73 H 0.3091 -0.0496 0.3170
H74 H 0.3094 -0.0054 0.2671
C74 C 0.3846(4) 0.0535(4) 0.0589(3)
C75 C 0.4168(3) 0.1291(4) 0.1182(3)
C76 C 0.4690(3) 0.1970(3) 0.1116(3)
H75 H 0.4862 0.1951 0.0717
C77 C 0.4963(3) 0.2674(3) 0.1625(3)
C78 C 0.5518(4) 0.3412(4) 0.1506(3)
C79 C 0.3427(4) 0.2014(5) 0.4711(3)
C80 C 0.3921(4) 0.2266(3) 0.4230(3)
C81 C 0.4666(4) 0.2779(3) 0.4460(3)
H76 H 0.4859 0.2947 0.4909
C82 C 0.5146(3) 0.3059(3) 0.4054(3)
C83 C 0.5978(4) 0.3608(3) 0.4324(3)
C84 C 0.1679(3) -0.0073(4) 0.1699(3)
C85 C 0.2268(3) 0.0777(3) 0.1830(3)
C86 C 0.2222(3) 0.1140(3) 0.1397(3)
H77 H 0.1829 0.0863 0.1030
C87 C 0.2729(3) 0.1893(3) 0.1482(3)
C88 C 0.2629(3) 0.2245(4) 0.0972(3)
C89 C -0.0808(4) 0.0159(5) 0.0441(4)
H78 H -0.0697 -0.0066 0.0019
H79 H -0.0876 0.0620 0.0452
H80 H -0.1267 -0.0228 0.0510
C90 C -0.0162(4) 0.0394(4) 0.0976(3)
H81 H -0.0074 -0.0064 0.0952
H82 H 0.0299 0.0799 0.0918
C91 C -0.0349(3) 0.0710(3) 0.1634(3)
H83 H -0.0402 0.1189 0.1667
H84 H -0.0832 0.0319 0.1675
C92 C 0.0839(3) 0.1573(3) 0.2337(3)
C93 C 0.1367(3) 0.1712(3) 0.2847(3)
H85 H 0.1269 0.1337 0.3055
C94 C 0.2025(3) 0.2379(3) 0.3055(3)
H86 H 0.2384 0.2462 0.3400
C95 C 0.2167(3) 0.2941(3) 0.2755(3)
C96 C 0.1632(3) 0.2805(3) 0.2261(3)
H87 H 0.1720 0.3188 0.2064
C97 C 0.0977(3) 0.2134(3) 0.2046(3)
H88 H 0.0619 0.2052 0.1701
C98 C 0.2886(3) 0.3625(3) 0.2938(3)
C99 C 0.3828(3) 0.4858(3) 0.3007(3)
C100 C 0.4026(4) 0.4807(4) 0.2331(3)
H89 H 0.3976 0.4282 0.2101
H90 H 0.4541 0.5191 0.2375
H91 H 0.3686 0.4914 0.2085
C101 C 0.3975(3) 0.5688(3) 0.3394(3)
H92 H 0.3705 0.5865 0.3147
H93 H 0.4512 0.6031 0.3477
H94 H 0.3803 0.5705 0.3808
C102 C 0.4171(3) 0.4485(3) 0.3367(3)
C103 C 0.4879(3) 0.4465(4) 0.3170(4)
H95 H 0.5057 0.4220 0.3420
H96 H 0.5260 0.4999 0.3255
H97 H 0.4780 0.4164 0.2706
C104 C 0.4251(4) 0.4798(3) 0.4108(3)
H98 H 0.3789 0.4822 0.4221
H99 H 0.4669 0.5321 0.4285
H100 H 0.4347 0.4449 0.4292
C105 C 0.3443(3) 0.7377(3) 0.4333(3)
C106 C 0.2657(3) 0.6669(3) 0.4119(3)
C107 C 0.2124(3) 0.6678(3) 0.4503(3)
H101 H 0.2253 0.7095 0.4903
C108 C 0.1405(3) 0.6081(3) 0.4308(3)
C109 C 0.0857(4) 0.6127(4) 0.4772(3)
C110 C 0.0902(6) 0.3445(5) 0.0750(4)
C111 C 0.1349(3) 0.4176(4) 0.1335(3)
C112 C 0.1837(4) 0.4832(4) 0.1210(3)
H102 H 0.1876 0.4802 0.0774
C113 C 0.2267(3) 0.5527(3) 0.1710(3)
C114 C 0.2811(4) 0.6240(4) 0.1556(3)
C115 C -0.0338(4) 0.2833(3) 0.3171(3)
C116 C 0.0455(3) 0.3517(3) 0.3369(3)
C117 C 0.0862(3) 0.3698(3) 0.3962(3)
H103 H 0.0643 0.3417 0.4239
C118 C 0.1589(3) 0.4287(3) 0.4161(3)
C119 C 0.1998(4) 0.4492(4) 0.4844(3)
Ho2_2 Ho 1.164245(14) -0.503133(14) 0.295528(12)
O2_2 O 0.0774(2) 0.5250(2) 0.24644(18)
loop_
_geom_bond_atom_site_label_1
_geom_bond_atom_site_label_2
_geom_bond_site_symmetry_1
_geom_bond_site_symmetry_2
Ho1 O18 1_555 1_555
Ho2 O27 1_555 1_555
Ho3 O3 1_555 1_555
Cu1 O12 1_555 1_555
O1 C3 1_555 1_555
O2 N1 1_555 1_555
O3 N2 1_555 1_555
O4 Ho3 1_555 1_555
O5 Ho3 1_555 1_555
O6 Ho3 1_555 1_555
O7 Ho3 1_555 1_555
O8 Ho3 1_555 1_555
O9 Ho3 1_555 1_555
O10 C34 1_555 1_555
O11 Ho3 1_555 1_555
O12 N4 1_555 1_555
O13 Cu1 1_555 1_555
O14 Cu1 1_555 1_555
O15 Cu1 1_555 1_555
O16 Cu1 1_555 1_555
O17 Cu1 1_555 1_555
O18 N6 1_555 1_555
O19 C60 1_555 1_555
O20 Ho1 1_555 1_555
O21 Ho1 1_555 1_555
O22 Ho1 1_555 1_555
O23 Ho1 1_555 1_555
O24 Ho1 1_555 1_555
O25 Ho1 1_555 1_555
O26 Ho1 1_555 1_555
O27 N8 1_555 1_555
O28 C91 1_555 1_555
O29 Ho2 1_555 1_555
O30 Ho2 1_555 1_555
O31 Ho2 1_555 1_555
O32 Ho2 1_555 1_555
O33 Ho2 1_555 1_555
O34 Ho2 1_555 1_555
N1 C10 1_555 1_555
N2 C10 1_555 1_555
N3 O11 1_555 1_555
N4 C41 1_555 1_555
N5 O17 1_555 1_555
N6 C67 1_555 1_555
N7 O26 1_555 1_555
N8 C98 1_555 1_555
F1 C17 1_555 1_555
F2 C17 1_555 1_555
F3 C17 1_555 1_555
F4 C21 1_555 1_555
F5 C21 1_555 1_555
F6 C21 1_555 1_555
F7 C26 1_555 1_555
F8 C26 1_555 1_555
F9 C26 1_555 1_555
F10 C22 1_555 1_555
F11 C22 1_555 1_555
F12 C22 1_555 1_555
F13 C31 1_555 1_555
F14 C31 1_555 1_555
F15 C31 1_555 1_555
F16 C27 1_555 1_555
F17 C27 1_555 1_555
F18 C27 1_555 1_555
F19 C48 1_555 1_555
F20 C48 1_555 1_555
F21 C48 1_555 1_555
F22 C52 1_555 1_555
F23 C52 1_555 1_555
F24 C52 1_555 1_555
F25 C57 1_555 1_555
F26 C57 1_555 1_555
F27 C57 1_555 1_555
F28 C53 1_555 1_555
F29 C53 1_555 1_555
F30 C53 1_555 1_555
F31 C78 1_555 1_555
F32 C78 1_555 1_555
F33 C78 1_555 1_555
F34 C74 1_555 1_555
F35 C74 1_555 1_555
F36 C74 1_555 1_555
F37 C79 1_555 1_555
F38 C79 1_555 1_555
F39 C79 1_555 1_555
F40 C83 1_555 1_555
F41 C83 1_555 1_555
F42 C83 1_555 1_555
F43 C88 1_555 1_555
F44 C88 1_555 1_555
F45 C88 1_555 1_555
F46 C84 1_555 1_555
F47 C84 1_555 1_555
F48 C84 1_555 1_555
F49 C105 1_555 1_555
F50 C105 1_555 1_555
F51 C105 1_555 1_555
F52 C109 1_555 1_555
F53 C109 1_555 1_555
F54 C109 1_555 1_555
F55 C110 1_555 1_555
F56 C110 1_555 1_555
F57 C110 1_555 1_555
F58 C114 1_555 1_555
F59 C114 1_555 1_555
F60 C114 1_555 1_555
F61 C115 1_555 1_555
F62 C115 1_555 1_555
F63 C115 1_555 1_555
F64 C119 1_555 1_555
F65 C119 1_555 1_555
F66 C119 1_555 1_555
C1 H1 1_555 1_555
H2 C1 1_555 1_555
H3 C1 1_555 1_555
C2 C1 1_555 1_555
H4 C2 1_555 1_555
H5 C2 1_555 1_555
C3 C2 1_555 1_555
H6 C3 1_555 1_555
H7 C3 1_555 1_555
C4 O1 1_555 1_555
C5 C4 1_555 1_555
H8 C5 1_555 1_555
C6 C5 1_555 1_555
H9 C6 1_555 1_555
C7 C6 1_555 1_555
C8 C7 1_555 1_555
H10 C8 1_555 1_555
C9 C4 1_555 1_555
H11 C9 1_555 1_555
C10 C7 1_555 1_555
C11 N1 1_555 1_555
C12 C11 1_555 1_555
H12 C12 1_555 1_555
H13 C12 1_555 1_555
H14 C12 1_555 1_555
C13 C11 1_555 1_555
H15 C13 1_555 1_555
H16 C13 1_555 1_555
H17 C13 1_555 1_555
C14 N2 1_555 1_555
C15 C14 1_555 1_555
H18 C15 1_555 1_555
H19 C15 1_555 1_555
H20 C15 1_555 1_555
C16 C14 1_555 1_555
H21 C16 1_555 1_555
H22 C16 1_555 1_555
H23 C16 1_555 1_555
C17 C18 1_555 1_555
C18 O4 1_555 1_555
C19 C18 1_555 1_555
H24 C19 1_555 1_555
C20 O5 1_555 1_555
C21 C20 1_555 1_555
C22 C23 1_555 1_555
C23 O7 1_555 1_555
C24 C23 1_555 1_555
H25 C24 1_555 1_555
C25 O6 1_555 1_555
C26 C25 1_555 1_555
C27 C28 1_555 1_555
C28 O8 1_555 1_555
C29 C28 1_555 1_555
H26 C29 1_555 1_555
C30 O9 1_555 1_555
C31 C30 1_555 1_555
C32 H27 1_555 1_555
H28 C32 1_555 1_555
H29 C32 1_555 1_555
C33 C32 1_555 1_555
H30 C33 1_555 1_555
H31 C33 1_555 1_555
C34 C33 1_555 1_555
H32 C34 1_555 1_555
H33 C34 1_555 1_555
C35 O10 1_555 1_555
C36 C35 1_555 1_555
H34 C36 1_555 1_555
C37 C36 1_555 1_555
H35 C37 1_555 1_555
C38 C37 1_555 1_555
C39 C38 1_555 1_555
H36 C39 1_555 1_555
C40 C35 1_555 1_555
H37 C40 1_555 1_555
C41 N3 1_555 1_555
C42 N4 1_555 1_555
C43 C42 1_555 1_555
H38 C43 1_555 1_555
H39 C43 1_555 1_555
H40 C43 1_555 1_555
C44 C42 1_555 1_555
H41 C44 1_555 1_555
H42 C44 1_555 1_555
H43 C44 1_555 1_555
C45 N3 1_555 1_555
C46 C45 1_555 1_555
H44 C46 1_555 1_555
H45 C46 1_555 1_555
H46 C46 1_555 1_555
C47 C45 1_555 1_555
H47 C47 1_555 1_555
H48 C47 1_555 1_555
H49 C47 1_555 1_555
C48 C49 1_555 1_555
C49 O13 1_555 1_555
C50 C49 1_555 1_555
H50 C50 1_555 1_555
C51 O14 1_555 1_555
C52 C51 1_555 1_555
C53 C54 1_555 1_555
C54 O15 1_555 1_555
C55 C54 1_555 1_555
H51 C55 1_555 1_555
C56 O16 1_555 1_555
C57 C56 1_555 1_555
C58 H52 1_555 1_555
H53 C58 1_555 1_555
H54 C58 1_555 1_555
C59 C58 1_555 1_555
H55 C59 1_555 1_555
H56 C59 1_555 1_555
C60 C59 1_555 1_555
H57 C60 1_555 1_555
H58 C60 1_555 1_555
C61 O19 1_555 1_555
C62 C61 1_555 1_555
H59 C62 1_555 1_555
C63 C62 1_555 1_555
H60 C63 1_555 1_555
C64 C63 1_555 1_555
C65 C64 1_555 1_555
H61 C65 1_555 1_555
C66 C61 1_555 1_555
H62 C66 1_555 1_555
C67 N5 1_555 1_555
C68 N5 1_555 1_555
C69 C68 1_555 1_555
H63 C69 1_555 1_555
H64 C69 1_555 1_555
H65 C69 1_555 1_555
C70 C68 1_555 1_555
H66 C70 1_555 1_555
H67 C70 1_555 1_555
H68 C70 1_555 1_555
C71 N6 1_555 1_555
C72 C71 1_555 1_555
H69 C72 1_555 1_555
H70 C72 1_555 1_555
H71 C72 1_555 1_555
C73 C71 1_555 1_555
H72 C73 1_555 1_555
H73 C73 1_555 1_555
H74 C73 1_555 1_555
C74 C75 1_555 1_555
C75 O20 1_555 1_555
C76 C75 1_555 1_555
H75 C76 1_555 1_555
C77 O21 1_555 1_555
C78 C77 1_555 1_555
C79 C80 1_555 1_555
C80 O22 1_555 1_555
C81 C80 1_555 1_555
H76 C81 1_555 1_555
C82 O23 1_555 1_555
C83 C82 1_555 1_555
C84 C85 1_555 1_555
C85 O25 1_555 1_555
C86 C85 1_555 1_555
H77 C86 1_555 1_555
C87 O24 1_555 1_555
C88 C87 1_555 1_555
C89 H78 1_555 1_555
H79 C89 1_555 1_555
H80 C89 1_555 1_555
C90 C89 1_555 1_555
H81 C90 1_555 1_555
H82 C90 1_555 1_555
C91 C90 1_555 1_555
H83 C91 1_555 1_555
H84 C91 1_555 1_555
C92 O28 1_555 1_555
C93 C92 1_555 1_555
H85 C93 1_555 1_555
C94 C93 1_555 1_555
H86 C94 1_555 1_555
C95 C94 1_555 1_555
C96 C95 1_555 1_555
H87 C96 1_555 1_555
C97 C92 1_555 1_555
H88 C97 1_555 1_555
C98 N7 1_555 1_555
C99 N8 1_555 1_555
C100 C99 1_555 1_555
H89 C100 1_555 1_555
H90 C100 1_555 1_555
H91 C100 1_555 1_555
C101 C99 1_555 1_555
H92 C101 1_555 1_555
H93 C101 1_555 1_555
H94 C101 1_555 1_555
C102 N7 1_555 1_555
C103 C102 1_555 1_555
H95 C103 1_555 1_555
H96 C103 1_555 1_555
H97 C103 1_555 1_555
C104 C102 1_555 1_555
H98 C104 1_555 1_555
H99 C104 1_555 1_555
H100 C104 1_555 1_555
C105 C106 1_555 1_555
C106 O29 1_555 1_555
C107 C106 1_555 1_555
H101 C107 1_555 1_555
C108 O30 1_555 1_555
C109 C108 1_555 1_555
C110 C111 1_555 1_555
C111 O31 1_555 1_555
C112 C111 1_555 1_555
H102 C112 1_555 1_555
C113 O32 1_555 1_555
C114 C113 1_555 1_555
C115 C116 1_555 1_555
C116 O33 1_555 1_555
C117 C116 1_555 1_555
H103 C117 1_555 1_555
C118 O34 1_555 1_555
C119 C118 1_555 1_555
Ho2_2 O2 1_555 1_555
O2_2 Ho2 1_555 1_555
C8 C9 1_555 1_555
C11 C14 1_555 1_555
C19 C20 1_555 1_555
C24 C25 1_555 1_555
C29 C30 1_555 1_555
C38 C41 1_555 1_555
C39 C40 1_555 1_555
C42 C45 1_555 1_555
C50 C51 1_555 1_555
C55 C56 1_555 1_555
C64 C67 1_555 1_555
C65 C66 1_555 1_555
C68 C71 1_555 1_555
C76 C77 1_555 1_555
C81 C82 1_555 1_555
C86 C87 1_555 1_555
C95 C98 1_555 1_555
C96 C97 1_555 1_555
C99 C102 1_555 1_555
C107 C108 1_555 1_555
C112 C113 1_555 1_555
C117 C118 1_555 1_555

#END
