
#######################################################################
#
#                 Cambridge Crystallographic Data Centre
#                                CCDC 
#
#######################################################################
#
# If this CIF has been generated from an entry in the Cambridge 
# Structural Database, then it will include bibliographic, chemical, 
# crystal, experimental, refinement or atomic coordinate data resulting 
# from the CCDC's data processing and validation procedures.
#
#######################################################################

data_HOHLEX
_symmetry_cell_setting           triclinic
_symmetry_space_group_name_H-M   'P -1'
_symmetry_Int_Tables_number      2
_space_group_name_Hall           '-P 1'
loop_
_symmetry_equiv_pos_site_id
_symmetry_equiv_pos_as_xyz
1 x,y,z
2 -x,-y,-z
_cell_length_a                   20.012(4)
_cell_length_b                   20.095(5)
_cell_length_c                   22.003(5)
_cell_angle_alpha                107.427(3)
_cell_angle_beta                 91.832(2)
_cell_angle_gamma                114.627(2)
_cell_volume                     7547.86
loop_
_atom_site_label
_atom_site_type_symbol
_atom_site_fract_x
_atom_site_fract_y
_atom_site_fract_z
Gd1 Gd 0.392983(13) 0.707627(13) 0.268215(12)
O1 O 0.36430(18) 0.81161(18) 0.32704(16)
O2 O 0.32810(18) 0.73379(18) 0.19241(16)
O3 O 0.27219(18) 0.60415(18) 0.23426(16)
O4 O 0.36032(19) 0.69630(19) 0.36944(17)
O5 O 0.50150(19) 0.79194(18) 0.34776(16)
O6 O 0.48298(19) 0.78188(19) 0.21886(16)
O7 O 0.39174(19) 0.62089(19) 0.16655(16)
O8 O 0.44937(19) 0.63488(18) 0.29240(16)
N1 N 0.3542(2) 0.8668(2) 0.31766(19)
C1 C 0.2720(3) 0.6898(3) 0.1490(2)
C2 C 0.2259(3) 0.5770(3) 0.1830(2)
C3 C 0.3961(3) 0.7262(3) 0.4261(3)
C4 C 0.5186(3) 0.8055(3) 0.4070(3)
C5 C 0.4987(3) 0.7694(3) 0.1633(3)
C6 C 0.4190(3) 0.6307(3) 0.1177(3)
N2 N 0.4520(2) 0.5684(2) 0.2694(2)
C7 C 0.4160(3) 0.9479(3) 0.3401(3)
C8 C 0.2875(3) 0.8619(3) 0.2950(2)
C9 C 0.2625(3) 0.7243(3) 0.0977(3)
C10 C 0.2208(3) 0.6133(3) 0.1399(3)
C11 C 0.1668(3) 0.4925(3) 0.1688(3)
C12 C 0.3489(4) 0.6996(4) 0.4748(3)
C13 C 0.4722(3) 0.7775(3) 0.4484(3)
C14 C 0.6010(3) 0.8608(3) 0.4333(3)
C15 C 0.5538(3) 0.8438(3) 0.1523(3)
C16 C 0.4712(3) 0.6992(3) 0.1114(3)
C17 C 0.3865(4) 0.5562(4) 0.0570(3)
C18 C 0.4969(3) 0.5541(3) 0.2297(2)
C19 C 0.4136(3) 0.5057(3) 0.2970(3)
C20 C 0.4875(3) 0.9462(3) 0.3217(4)
C21 C 0.4214(4) 0.9797(3) 0.4135(3)
C22 C 0.3842(3) 0.9857(3) 0.3024(3)
N3 N 0.3015(2) 0.9319(2) 0.2913(2)
C23 C 0.2163(3) 0.7929(2) 0.2762(2)
F1 F 0.3084(2) 0.7197(2) 0.05660(17)
F2 F 0.1935(2) 0.68918(19) 0.06373(17)
F3 F 0.27903(19) 0.79956(17) 0.12466(15)
H1 H 0.1824 0.5861 0.1040
F4 F 0.19937(18) 0.44735(17) 0.17036(18)
F5 F 0.12347(18) 0.46145(18) 0.11033(17)
F6 F 0.12236(19) 0.48826(19) 0.21252(17)
F7 F 0.2893(3) 0.7108(4) 0.4721(3)
F8 F 0.3823(3) 0.7349(3) 0.53527(19)
F9 F 0.3232(3) 0.6252(2) 0.4629(2)
H2 H 0.4922 0.7932 0.4919
F10 F 0.64342(19) 0.8306(2) 0.4056(2)
F11 F 0.6207(2) 0.8808(2) 0.49686(16)
F12 F 0.6190(2) 0.9270(2) 0.4232(2)
F13 F 0.5814(2) 0.8289(2) 0.09821(17)
F14 F 0.5197(2) 0.8861(2) 0.1476(2)
F15 F 0.61144(19) 0.88651(18) 0.20043(16)
H3 H 0.4879 0.6982 0.0723
F16 F 0.3192(2) 0.5420(3) 0.0335(2)
F17 F 0.3832(2) 0.49565(19) 0.07135(18)
F18 F 0.4278(2) 0.5622(2) 0.01104(17)
N4 N 0.4834(2) 0.4784(2) 0.2186(2)
C24 C 0.5488(3) 0.6062(3) 0.2015(2)
C25 C 0.4637(3) 0.5300(3) 0.3620(3)
C26 C 0.3362(3) 0.4969(3) 0.3061(3)
C27 C 0.4162(3) 0.4358(3) 0.2438(3)
H4 H 0.5059 0.9256 0.3489
H5 H 0.5242 0.9981 0.3274
H6 H 0.4780 0.9137 0.2772
H7 H 0.3745 0.9785 0.4230
H8 H 0.4600 1.0324 0.4306
H9 H 0.4330 0.9480 0.4329
C28 C 0.3993(3) 1.0687(3) 0.3394(3)
C29 C 0.4037(3) 0.9782(3) 0.2350(3)
O9 O 0.25369(18) 0.95025(18) 0.27016(17)
C30 C 0.1632(3) 0.7806(3) 0.2265(2)
C31 C 0.2005(3) 0.7359(3) 0.3056(2)
O10 O 0.51797(19) 0.44416(19) 0.18517(18)
C32 C 0.5875(3) 0.6865(3) 0.2362(3)
C33 C 0.5607(3) 0.5778(3) 0.1390(2)
H10 H 0.5126 0.5361 0.3547
H11 H 0.4423 0.4906 0.3813
H12 H 0.4674 0.5785 0.3906
H13 H 0.3400 0.5435 0.3383
H14 H 0.3109 0.4532 0.3201
H15 H 0.3084 0.4885 0.2659
C34 C 0.4276(3) 0.3775(3) 0.2692(3)
C35 C 0.3500(3) 0.3935(3) 0.1878(3)
H16 H 0.3788 1.0876 0.3122
H17 H 0.4523 1.1009 0.3523
H18 H 0.3765 1.0702 0.3772
H19 H 0.3947 0.9254 0.2125
H20 H 0.4555 1.0126 0.2388
H21 H 0.3733 0.9918 0.2112
Gd2 Gd 0.163694(13) 0.996289(13) 0.295666(12)
H22 H 0.1729 0.8187 0.2076
C36 C 0.0967(3) 0.7136(3) 0.2044(2)
C37 C 0.1347(3) 0.6696(3) 0.2839(2)
H23 H 0.2348 0.7435 0.3395
Cu1 Cu 0.64480(4) 0.45265(3) 0.21496(3)
C38 C 0.6362(3) 0.7357(3) 0.2087(3)
H24 H 0.5801 0.7064 0.2779
H25 H 0.5362 0.5245 0.1159
C39 C 0.6082(3) 0.6272(3) 0.1107(3)
H26 H 0.3912 0.3610 0.2957
H27 H 0.4769 0.4019 0.2945
H28 H 0.4220 0.3331 0.2333
H29 H 0.3063 0.3622 0.2014
H30 H 0.3609 0.3607 0.1520
H31 H 0.3411 0.4311 0.1747
H32 H 0.0617 0.7065 0.1712
C40 C 0.0828(3) 0.6570(3) 0.2322(2)
H33 H 0.1240 0.6323 0.3036
O11 O 0.6636(2) 0.54163(18) 0.29069(16)
O12 O 0.69654(18) 0.51608(17) 0.16481(16)
O13 O 0.60038(19) 0.36820(18) 0.13374(16)
O14 O 0.6110(2) 0.38431(19) 0.26492(17)
O15 O 0.76778(19) 0.46260(18) 0.24038(16)
C41 C 0.6459(3) 0.7068(3) 0.1452(3)
H34 H 0.6629 0.7886 0.2325
H35 H 0.6149 0.6075 0.0687
O16 O 0.02002(19) 0.58791(19) 0.21475(17)
C42 C 0.7028(3) 0.6115(3) 0.2942(2)
C43 C 0.7339(3) 0.5885(3) 0.1870(2)
C44 C 0.5516(3) 0.3021(3) 0.1290(3)
C45 C 0.5670(3) 0.3116(3) 0.2408(3)
N5 N 0.7927(2) 0.4370(2) 0.27749(19)
O17 O 0.6941(2) 0.76007(19) 0.12192(18)
C46 C -0.0357(3) 0.5705(3) 0.1615(2)
C47 C 0.7067(3) 0.6709(3) 0.3586(3)
C48 C 0.7398(3) 0.6387(3) 0.2483(2)
C49 C 0.7786(3) 0.6221(3) 0.1401(3)
C50 C 0.5341(3) 0.2687(3) 0.1768(3)
C51 C 0.5074(4) 0.2538(3) 0.0600(3)
C52 C 0.5496(3) 0.2705(3) 0.2905(3)
C53 C 0.7813(3) 0.3622(3) 0.2647(2)
C54 C 0.8498(3) 0.4915(3) 0.3383(2)
C55 C 0.6996(3) 0.7349(3) 0.0546(3)
H36 H -0.0406 0.6174 0.1647
H37 H -0.0835 0.5320 0.1648
C56 C -0.0173(3) 0.5402(3) 0.0968(3)
F19 F 0.7387(2) 0.66165(19) 0.40797(15)
F20 F 0.63862(18) 0.66014(17) 0.36884(15)
F21 F 0.74462(18) 0.74423(16) 0.36263(15)
H38 H 0.7694 0.6920 0.2587
F22 F 0.80181(18) 0.69913(16) 0.15558(15)
F23 F 0.84022(17) 0.61165(19) 0.13915(16)
F24 F 0.74092(17) 0.58908(17) 0.07967(14)
H39 H 0.4997 0.2166 0.1654
F25 F 0.4586(2) 0.2782(3) 0.04712(19)
F26 F 0.5513(2) 0.2622(2) 0.01576(16)
F27 F 0.4737(3) 0.1787(2) 0.04891(19)
F28 F 0.5091(3) 0.2930(3) 0.3292(2)
F29 F 0.5135(2) 0.1936(2) 0.2634(2)
F30 F 0.61161(19) 0.28473(19) 0.32620(16)
N6 N 0.8190(2) 0.3605(2) 0.31490(19)
C57 C 0.7363(3) 0.2968(3) 0.2064(2)
C58 C 0.8272(3) 0.5546(3) 0.3747(3)
C59 C 0.9237(3) 0.5279(3) 0.3165(3)
C60 C 0.8462(3) 0.4341(3) 0.3732(2)
C61 C 0.7583(4) 0.8030(3) 0.0420(3)
H40 H 0.6520 0.7170 0.0276
H41 H 0.7131 0.6923 0.0447
H42 H -0.0079 0.4960 0.0947
H43 H 0.0279 0.5805 0.0913
C62 C -0.0811(4) 0.5154(4) 0.0424(3)
O18 O 0.82197(18) 0.29944(17) 0.32075(15)
C63 C 0.7301(3) 0.3077(3) 0.1473(2)
C64 C 0.6983(3) 0.2210(3) 0.2086(2)
H44 H 0.7760 0.5306 0.3797
H45 H 0.8329 0.5888 0.3507
H46 H 0.8586 0.5840 0.4167
H47 H 0.9621 0.5630 0.3538
H48 H 0.9194 0.5561 0.2895
H49 H 0.9364 0.4876 0.2926
C65 C 0.7851(3) 0.4179(3) 0.4145(2)
C66 C 0.9195(3) 0.4516(3) 0.4109(3)
C67 C 0.7689(4) 0.7820(4) -0.0274(3)
H50 H 0.8053 0.8212 0.0702
H51 H 0.7441 0.8452 0.0521
H52 H -0.0705 0.4908 0.0018
H53 H -0.0862 0.5604 0.0411
H54 H -0.1268 0.4793 0.0501
Gd3 Gd 0.894991(13) 0.231657(13) 0.291548(12)
C68 C 0.6883(3) 0.2454(3) 0.0915(2)
H55 H 0.7545 0.3576 0.1453
H56 H 0.7021 0.2128 0.2477
C69 C 0.6561(3) 0.1596(3) 0.1539(2)
H57 H 0.7401 0.4119 0.3916
H58 H 0.8012 0.4608 0.4547
H59 H 0.7757 0.3710 0.4231
H60 H 0.9127 0.4098 0.4265
H61 H 0.9362 0.4993 0.4470
H62 H 0.9561 0.4567 0.3833
H63 H 0.7240 0.7690 -0.0552
H64 H 0.7797 0.7380 -0.0384
H65 H 0.8097 0.8255 -0.0330
O19 O 0.90208(19) 0.29662(18) 0.21594(16)
O20 O 0.82383(19) 0.13586(18) 0.19238(16)
O21 O 1.00657(18) 0.34682(18) 0.33297(16)
O22 O 0.98663(18) 0.21432(18) 0.22956(16)
O23 O 0.91607(18) 0.26761(18) 0.40653(16)
O24 O 0.78293(18) 0.15369(17) 0.31866(17)
O25 O 0.92124(18) 0.13852(18) 0.32093(17)
C70 C 0.6509(3) 0.1703(3) 0.0941(2)
H66 H 0.6850 0.2536 0.0524
H67 H 0.6306 0.1100 0.1564
C71 C 0.8832(3) 0.2729(3) 0.1554(2)
C72 C 0.8140(3) 0.1347(3) 0.1354(2)
C73 C 1.0677(3) 0.3738(3) 0.3151(2)
C74 C 1.0492(3) 0.2609(3) 0.2237(2)
C75 C 0.8743(3) 0.2515(3) 0.4457(3)
C76 C 0.7590(3) 0.1565(3) 0.3712(3)
N7 N 0.9453(2) 0.0878(2) 0.2939(2)
O26 O 0.6093(2) 0.10585(18) 0.04309(17)
C77 C 0.9140(3) 0.3377(3) 0.1264(3)
C78 C 0.8410(3) 0.1970(3) 0.1133(3)
C79 C 0.7684(3) 0.0532(3) 0.0853(3)
C80 C 1.0924(3) 0.3379(3) 0.2629(3)
C81 C 1.1188(3) 0.4593(3) 0.3570(3)
C82 C 1.0786(3) 0.2277(3) 0.1644(3)
C83 C 0.7977(3) 0.2007(3) 0.4333(3)
C84 C 0.9135(3) 0.2945(3) 0.5172(3)
C85 C 0.6767(3) 0.1004(3) 0.3617(3)
C86 C 1.0176(3) 0.1031(3) 0.2945(2)
C87 C 0.8925(3) 0.0019(3) 0.2662(3)
C88 C 0.6074(3) 0.1142(3) -0.0197(2)
F31 F 0.98277(19) 0.3522(2) 0.1177(2)
F32 F 0.9143(2) 0.40267(18) 0.16502(17)
F33 F 0.87406(19) 0.32029(19) 0.06933(16)
H68 H 0.8308 0.1878 0.0692
F34 F 0.8106(2) 0.0152(2) 0.07356(18)
F35 F 0.7091(2) 0.01119(18) 0.10494(17)
F36 F 0.7455(2) 0.05385(18) 0.02798(16)
H69 H 1.1390 0.3660 0.2539
F37 F 1.18799(17) 0.48511(18) 0.34450(19)
F38 F 1.1236(2) 0.46795(18) 0.41989(16)
F39 F 1.09152(18) 0.50630(16) 0.34826(17)
F40 F 1.0438(2) 0.2247(3) 0.11184(16)
F41 F 1.15179(19) 0.26905(18) 0.16765(18)
F42 F 1.06856(18) 0.15597(17) 0.15696(16)
H70 H 0.7726 0.1968 0.4678
F43 F 0.9763(2) 0.2883(2) 0.52631(17)
F44 F 0.8735(2) 0.2676(2) 0.55841(16)
F45 F 0.9314(2) 0.36970(19) 0.53389(17)
F46 F 0.65001(19) 0.1013(2) 0.41574(18)
F47 F 0.63472(18) 0.1171(2) 0.3259(2)
F48 F 0.66459(18) 0.02785(18) 0.3313(2)
N8 N 1.0174(2) 0.0354(2) 0.2573(2)
C89 C 1.0836(3) 0.1775(3) 0.3258(2)
C90 C 0.8177(3) -0.0126(3) 0.2329(3)
C91 C 0.8835(3) -0.0282(3) 0.3231(3)
C92 C 0.9404(3) -0.0247(3) 0.2198(3)
C93 C 0.5559(3) 0.0361(3) -0.0691(3)
H71 H 0.6572 0.1322 -0.0301
H72 H 0.5894 0.1522 -0.0196
O27 O 1.07569(18) 0.02486(18) 0.24602(16)
C94 C 1.0810(3) 0.2316(3) 0.3816(2)
C95 C 1.1487(3) 0.1952(3) 0.3004(2)
H73 H 0.7927 0.0075 0.2645
H74 H 0.7876 -0.0676 0.2116
H75 H 0.8256 0.0131 0.2015
H76 H 0.9315 -0.0185 0.3431
H77 H 0.8511 -0.0832 0.3077
H78 H 0.8623 -0.0016 0.3542
C96 C 0.9351(3) -0.0104(3) 0.1554(3)
C97 C 0.9308(3) -0.1061(3) 0.2092(3)
C98 C 0.5854(5) -0.0232(4) -0.0783(3)
H79 H 0.5078 0.0166 -0.0557
H80 H 0.5482 0.0427 -0.1103
C99 C 1.1442(3) 0.3013(3) 0.4119(2)
H81 H 1.0372 0.2209 0.3984
H82 H 1.1499 0.1593 0.2628
C100 C 1.2113(3) 0.2644(3) 0.3295(3)
H83 H 0.9738 -0.0167 0.1333
H84 H 0.9409 0.0416 0.1638
H85 H 0.8872 -0.0472 0.1288
H86 H 0.9432 -0.1102 0.2500
H87 H 0.9631 -0.1170 0.1807
H88 H 0.8798 -0.1429 0.1901
H89 H 0.5508 -0.0714 -0.1107
H90 H 0.5913 -0.0316 -0.0381
H91 H 0.6329 -0.0045 -0.0918
O28 O 1.11292(19) 0.05287(19) 0.38096(16)
O29 O 1.26091(19) 0.11691(18) 0.36143(16)
O30 O 1.22650(19) 0.06659(18) 0.22957(17)
O31 O 1.12289(19) -0.08988(18) 0.18549(16)
O32 O 1.19478(19) -0.03327(19) 0.38672(17)
O33 O 1.06075(18) -0.11662(18) 0.29655(16)
C101 C 1.2100(3) 0.3181(3) 0.3867(2)
H92 H 1.1427 0.3372 0.4494
H93 H 1.2544 0.2755 0.3114
C102 C 1.1411(3) 0.1107(3) 0.4325(2)
C103 C 1.2675(3) 0.1680(3) 0.4133(2)
C104 C 1.2260(3) 0.0521(3) 0.1694(3)
C105 C 1.1343(3) -0.0823(3) 0.1322(3)
C106 C 1.1555(3) -0.0738(3) 0.4169(3)
C107 C 1.0423(3) -0.1501(3) 0.3373(3)
O34 O 1.27453(19) 0.38386(18) 0.41282(17)
C108 C 1.0866(3) 0.1145(3) 0.4796(3)
C109 C 1.2136(3) 0.1688(3) 0.4509(3)
C110 C 1.3461(3) 0.2387(3) 0.4341(3)
C111 C 1.2805(4) 0.1230(3) 0.1534(3)
C112 C 1.1838(3) -0.0165(3) 0.1195(3)
C113 C 1.0881(4) -0.1579(4) 0.0734(3)
C114 C 1.1952(3) -0.0553(3) 0.4850(3)
C115 C 1.0827(3) -0.1326(3) 0.3974(3)
C116 C 0.9621(3) -0.2195(3) 0.3176(3)
C117 C 1.2825(3) 0.4348(3) 0.4771(3)
F49 F 1.1082(2) 0.1854(2) 0.52302(17)
F50 F 1.0795(2) 0.0668(2) 0.51101(19)
F51 F 1.01909(18) 0.0932(2) 0.44857(16)
H94 H 1.2267 0.2098 0.4898
F52 F 1.39977(18) 0.21830(18) 0.4331(2)
F53 F 1.3560(2) 0.2880(2) 0.4918(2)
F54 F 1.3580(2) 0.2783(2) 0.3946(2)
F55 F 1.2613(2) 0.18127(19) 0.17290(19)
F56 F 1.3497(2) 0.1495(2) 0.1846(2)
F57 F 1.2831(2) 0.1078(2) 0.09123(18)
H95 H 1.1880 -0.0192 0.0769
F58 F 1.0884(3) -0.1485(2) 0.01919(19)
F59 F 1.0179(3) -0.1873(3) 0.0781(2)
F60 F 1.1071(4) -0.2091(3) 0.0712(3)
F61 F 1.25258(19) -0.0722(2) 0.48151(17)
F62 F 1.15075(19) -0.0928(2) 0.51999(16)
F63 F 1.2225(2) 0.02147(19) 0.51856(16)
H96 H 1.0608 -0.1603 0.4244
F64 F 0.9524(2) -0.2681(2) 0.3490(2)
F65 F 0.94672(18) -0.25907(18) 0.25461(17)
F66 F 0.91225(18) -0.19259(19) 0.32978(18)
C118 C 1.3699(5) 0.4878(5) 0.5008(5)
H97 H 1.2621 0.4051 0.5052
H98 H 1.2570 0.4665 0.4768
C119 C 1.3894(5) 0.5308(5) 0.5660(4)
H99 H 1.3951 0.4548 0.4913
H100 H 1.3873 0.5232 0.4766
H101 H 1.3639 0.5629 0.5761
H102 H 1.4424 0.5633 0.5770
H103 H 1.3755 0.4962 0.5904
Gd2_2 Gd 1.163694(13) -0.003711(13) 0.295666(12)
O9_2 O 1.25369(18) -0.04975(18) 0.27016(17)
loop_
_geom_bond_atom_site_label_1
_geom_bond_atom_site_label_2
_geom_bond_site_symmetry_1
_geom_bond_site_symmetry_2
Gd1 O1 1_555 1_555
O1 N1 1_555 1_555
O2 Gd1 1_555 1_555
O3 Gd1 1_555 1_555
O4 Gd1 1_555 1_555
O5 Gd1 1_555 1_555
O6 Gd1 1_555 1_555
O7 Gd1 1_555 1_555
O8 Gd1 1_555 1_555
N1 C7 1_555 1_555
C1 O2 1_555 1_555
C2 O3 1_555 1_555
C3 O4 1_555 1_555
C4 O5 1_555 1_555
C5 O6 1_555 1_555
C6 O7 1_555 1_555
N2 O8 1_555 1_555
C7 C20 1_555 1_555
C8 N1 1_555 1_555
C9 C1 1_555 1_555
C10 C1 1_555 1_555
C11 C2 1_555 1_555
C12 C3 1_555 1_555
C13 C3 1_555 1_555
C14 C4 1_555 1_555
C15 C5 1_555 1_555
C16 C5 1_555 1_555
C17 C6 1_555 1_555
C18 N2 1_555 1_555
C19 N2 1_555 1_555
C20 H4 1_555 1_555
C21 C7 1_555 1_555
C22 C7 1_555 1_555
N3 C8 1_555 1_555
C23 C8 1_555 1_555
F1 C9 1_555 1_555
F2 C9 1_555 1_555
F3 C9 1_555 1_555
H1 C10 1_555 1_555
F4 C11 1_555 1_555
F5 C11 1_555 1_555
F6 C11 1_555 1_555
F7 C12 1_555 1_555
F8 C12 1_555 1_555
F9 C12 1_555 1_555
H2 C13 1_555 1_555
F10 C14 1_555 1_555
F11 C14 1_555 1_555
F12 C14 1_555 1_555
F13 C15 1_555 1_555
F14 C15 1_555 1_555
F15 C15 1_555 1_555
H3 C16 1_555 1_555
F16 C17 1_555 1_555
F17 C17 1_555 1_555
F18 C17 1_555 1_555
N4 C18 1_555 1_555
C24 C18 1_555 1_555
C25 C19 1_555 1_555
C26 C19 1_555 1_555
C27 C19 1_555 1_555
H5 C20 1_555 1_555
H6 C20 1_555 1_555
H7 C21 1_555 1_555
H8 C21 1_555 1_555
H9 C21 1_555 1_555
C28 C22 1_555 1_555
C29 C22 1_555 1_555
O9 N3 1_555 1_555
C30 C23 1_555 1_555
C31 C23 1_555 1_555
O10 N4 1_555 1_555
C32 C24 1_555 1_555
C33 C24 1_555 1_555
H10 C25 1_555 1_555
H11 C25 1_555 1_555
H12 C25 1_555 1_555
H13 C26 1_555 1_555
H14 C26 1_555 1_555
H15 C26 1_555 1_555
C34 C27 1_555 1_555
C35 C27 1_555 1_555
H16 C28 1_555 1_555
H17 C28 1_555 1_555
H18 C28 1_555 1_555
H19 C29 1_555 1_555
H20 C29 1_555 1_555
H21 C29 1_555 1_555
Gd2 O9 1_555 1_555
H22 C30 1_555 1_555
C36 C30 1_555 1_555
C37 C31 1_555 1_555
H23 C31 1_555 1_555
Cu1 O10 1_555 1_555
C38 C32 1_555 1_555
H24 C32 1_555 1_555
H25 C33 1_555 1_555
C39 C33 1_555 1_555
H26 C34 1_555 1_555
H27 C34 1_555 1_555
H28 C34 1_555 1_555
H29 C35 1_555 1_555
H30 C35 1_555 1_555
H31 C35 1_555 1_555
H32 C36 1_555 1_555
C40 C36 1_555 1_555
H33 C37 1_555 1_555
O11 Cu1 1_555 1_555
O12 Cu1 1_555 1_555
O13 Cu1 1_555 1_555
O14 Cu1 1_555 1_555
O15 Cu1 1_555 1_555
C41 C38 1_555 1_555
H34 C38 1_555 1_555
H35 C39 1_555 1_555
O16 C40 1_555 1_555
C42 O11 1_555 1_555
C43 O12 1_555 1_555
C44 O13 1_555 1_555
C45 O14 1_555 1_555
N5 O15 1_555 1_555
O17 C41 1_555 1_555
C46 O16 1_555 1_555
C47 C42 1_555 1_555
C48 C42 1_555 1_555
C49 C43 1_555 1_555
C50 C44 1_555 1_555
C51 C44 1_555 1_555
C52 C45 1_555 1_555
C53 N5 1_555 1_555
C54 N5 1_555 1_555
C55 O17 1_555 1_555
H36 C46 1_555 1_555
H37 C46 1_555 1_555
C56 C46 1_555 1_555
F19 C47 1_555 1_555
F20 C47 1_555 1_555
F21 C47 1_555 1_555
H38 C48 1_555 1_555
F22 C49 1_555 1_555
F23 C49 1_555 1_555
F24 C49 1_555 1_555
H39 C50 1_555 1_555
F25 C51 1_555 1_555
F26 C51 1_555 1_555
F27 C51 1_555 1_555
F28 C52 1_555 1_555
F29 C52 1_555 1_555
F30 C52 1_555 1_555
N6 C53 1_555 1_555
C57 C53 1_555 1_555
C58 C54 1_555 1_555
C59 C54 1_555 1_555
C60 C54 1_555 1_555
C61 C55 1_555 1_555
H40 C55 1_555 1_555
H41 C55 1_555 1_555
H42 C56 1_555 1_555
H43 C56 1_555 1_555
C62 C56 1_555 1_555
O18 N6 1_555 1_555
C63 C57 1_555 1_555
C64 C57 1_555 1_555
H44 C58 1_555 1_555
H45 C58 1_555 1_555
H46 C58 1_555 1_555
H47 C59 1_555 1_555
H48 C59 1_555 1_555
H49 C59 1_555 1_555
C65 C60 1_555 1_555
C66 C60 1_555 1_555
C67 C61 1_555 1_555
H50 C61 1_555 1_555
H51 C61 1_555 1_555
H52 C62 1_555 1_555
H53 C62 1_555 1_555
H54 C62 1_555 1_555
Gd3 O18 1_555 1_555
C68 C63 1_555 1_555
H55 C63 1_555 1_555
H56 C64 1_555 1_555
C69 C64 1_555 1_555
H57 C65 1_555 1_555
H58 C65 1_555 1_555
H59 C65 1_555 1_555
H60 C66 1_555 1_555
H61 C66 1_555 1_555
H62 C66 1_555 1_555
H63 C67 1_555 1_555
H64 C67 1_555 1_555
H65 C67 1_555 1_555
O19 Gd3 1_555 1_555
O20 Gd3 1_555 1_555
O21 Gd3 1_555 1_555
O22 Gd3 1_555 1_555
O23 Gd3 1_555 1_555
O24 Gd3 1_555 1_555
O25 Gd3 1_555 1_555
C70 C68 1_555 1_555
H66 C68 1_555 1_555
H67 C69 1_555 1_555
C71 O19 1_555 1_555
C72 O20 1_555 1_555
C73 O21 1_555 1_555
C74 O22 1_555 1_555
C75 O23 1_555 1_555
C76 O24 1_555 1_555
N7 O25 1_555 1_555
O26 C70 1_555 1_555
C77 C71 1_555 1_555
C78 C71 1_555 1_555
C79 C72 1_555 1_555
C80 C73 1_555 1_555
C81 C73 1_555 1_555
C82 C74 1_555 1_555
C83 C75 1_555 1_555
C84 C75 1_555 1_555
C85 C76 1_555 1_555
C86 N7 1_555 1_555
C87 N7 1_555 1_555
C88 O26 1_555 1_555
F31 C77 1_555 1_555
F32 C77 1_555 1_555
F33 C77 1_555 1_555
H68 C78 1_555 1_555
F34 C79 1_555 1_555
F35 C79 1_555 1_555
F36 C79 1_555 1_555
H69 C80 1_555 1_555
F37 C81 1_555 1_555
F38 C81 1_555 1_555
F39 C81 1_555 1_555
F40 C82 1_555 1_555
F41 C82 1_555 1_555
F42 C82 1_555 1_555
H70 C83 1_555 1_555
F43 C84 1_555 1_555
F44 C84 1_555 1_555
F45 C84 1_555 1_555
F46 C85 1_555 1_555
F47 C85 1_555 1_555
F48 C85 1_555 1_555
N8 C86 1_555 1_555
C89 C86 1_555 1_555
C90 C87 1_555 1_555
C91 C87 1_555 1_555
C92 C87 1_555 1_555
C93 C88 1_555 1_555
H71 C88 1_555 1_555
H72 C88 1_555 1_555
O27 N8 1_555 1_555
C94 C89 1_555 1_555
C95 C89 1_555 1_555
H73 C90 1_555 1_555
H74 C90 1_555 1_555
H75 C90 1_555 1_555
H76 C91 1_555 1_555
H77 C91 1_555 1_555
H78 C91 1_555 1_555
C96 C92 1_555 1_555
C97 C92 1_555 1_555
C98 C93 1_555 1_555
H79 C93 1_555 1_555
H80 C93 1_555 1_555
C99 C94 1_555 1_555
H81 C94 1_555 1_555
H82 C95 1_555 1_555
C100 C95 1_555 1_555
H83 C96 1_555 1_555
H84 C96 1_555 1_555
H85 C96 1_555 1_555
H86 C97 1_555 1_555
H87 C97 1_555 1_555
H88 C97 1_555 1_555
H89 C98 1_555 1_555
H90 C98 1_555 1_555
H91 C98 1_555 1_555
O28 C102 1_555 1_555
O29 C103 1_555 1_555
O30 C104 1_555 1_555
O31 C105 1_555 1_555
O32 C106 1_555 1_555
O33 C107 1_555 1_555
C101 C99 1_555 1_555
H92 C99 1_555 1_555
H93 C100 1_555 1_555
C102 C108 1_555 1_555
C103 C109 1_555 1_555
C104 C111 1_555 1_555
C105 C112 1_555 1_555
C106 C114 1_555 1_555
C107 C115 1_555 1_555
O34 C101 1_555 1_555
C108 F49 1_555 1_555
C109 C102 1_555 1_555
C110 C103 1_555 1_555
C111 F55 1_555 1_555
C112 C104 1_555 1_555
C113 C105 1_555 1_555
C114 F61 1_555 1_555
C115 C106 1_555 1_555
C116 C107 1_555 1_555
C117 O34 1_555 1_555
F50 C108 1_555 1_555
F51 C108 1_555 1_555
H94 C109 1_555 1_555
F52 C110 1_555 1_555
F53 C110 1_555 1_555
F54 C110 1_555 1_555
F56 C111 1_555 1_555
F57 C111 1_555 1_555
H95 C112 1_555 1_555
F58 C113 1_555 1_555
F59 C113 1_555 1_555
F60 C113 1_555 1_555
F62 C114 1_555 1_555
F63 C114 1_555 1_555
H96 C115 1_555 1_555
F64 C116 1_555 1_555
F65 C116 1_555 1_555
F66 C116 1_555 1_555
C118 C117 1_555 1_555
H97 C117 1_555 1_555
H98 C117 1_555 1_555
C119 C118 1_555 1_555
H99 C118 1_555 1_555
H100 C118 1_555 1_555
H101 C119 1_555 1_555
H102 C119 1_555 1_555
H103 C119 1_555 1_555
Gd2_2 O27 1_555 1_555
O9_2 Gd2_2 1_555 1_555
C2 C10 1_555 1_555
C4 C13 1_555 1_555
C6 C16 1_555 1_555
C22 N3 1_555 1_555
N4 C27 1_555 1_555
C37 C40 1_555 1_555
C39 C41 1_555 1_555
C43 C48 1_555 1_555
C45 C50 1_555 1_555
N6 C60 1_555 1_555
C69 C70 1_555 1_555
C72 C78 1_555 1_555
C74 C80 1_555 1_555
C76 C83 1_555 1_555
N8 C92 1_555 1_555
C100 C101 1_555 1_555
O28 Gd2_2 1_555 1_555
O29 Gd2_2 1_555 1_555
O30 Gd2_2 1_555 1_555
O31 Gd2_2 1_555 1_555
O32 Gd2_2 1_555 1_555
O33 Gd2_2 1_555 1_555

#END
