
#######################################################################
#
#                 Cambridge Crystallographic Data Centre
#                                CCDC 
#
#######################################################################
#
# If this CIF has been generated from an entry in the Cambridge 
# Structural Database, then it will include bibliographic, chemical, 
# crystal, experimental, refinement or atomic coordinate data resulting 
# from the CCDC's data processing and validation procedures.
#
#######################################################################

data_HOHMIB
_symmetry_cell_setting           tetragonal
_symmetry_space_group_name_H-M   'I 41/a m d'
_symmetry_Int_Tables_number      141
_space_group_name_Hall           'I -4 -2 -1bw'
loop_
_symmetry_equiv_pos_site_id
_symmetry_equiv_pos_as_xyz
1 x,y,z
2 x,1/2-y,1/4-z
3 -x,1/2-y,1/4-z
4 1/2-x,1/2-y,1/2+z
5 1/2-x,y,3/4-z
6 1/2+x,y,3/4-z
7 -x,y,z
8 1/2+x,1/2-y,1/2+z
9 -y,1/2+x,1/4+z
10 1/2+y,1/2+x,1/2-z
11 -y,-x,-z
12 -y,x,-z
13 1/2+y,1/2-x,1/2-z
14 1/2+y,x,3/4+z
15 1/2+y,-x,3/4+z
16 -y,1/2-x,1/4+z
17 1/2+x,1/2+y,1/2+z
18 1/2+x,-y,3/4-z
19 1/2-x,-y,3/4-z
20 -x,-y,z
21 -x,1/2+y,1/4-z
22 x,1/2+y,1/4-z
23 1/2-x,1/2+y,1/2+z
24 x,-y,z
25 1/2-y,x,3/4+z
26 y,x,-z
27 1/2-y,1/2-x,1/2-z
28 1/2-y,1/2+x,1/2-z
29 y,-x,-z
30 y,1/2+x,1/4+z
31 y,1/2-x,1/4+z
32 1/2-y,-x,3/4+z
_cell_length_a                   19.4226(7)
_cell_length_b                   19.4226(7)
_cell_length_c                   50.9656(11)
_cell_angle_alpha                90
_cell_angle_beta                 90
_cell_angle_gamma                90
_cell_volume                     19226.1
loop_
_atom_site_label
_atom_site_type_symbol
_atom_site_fract_x
_atom_site_fract_y
_atom_site_fract_z
C1 C 0.0000 0.5389(9) 0.1575(3)
H1 H 0.0404 0.5555 0.1667
H2 H -0.0404 0.5555 0.1667
C2 C -0.0697(8) 0.5389(8) 0.1159(3)
H3 H -0.1087 0.5556 0.1259
H4 H -0.0742 0.5556 0.098
O1 O -0.0724(2) 0.69000(19) 0.09869(6)
C3 C -0.0889(3) 0.7477(3) 0.08851(9)
C4 C -0.1395(3) 0.7422(3) 0.06575(10)
C5 C -0.1632(4) 0.6796(3) 0.05608(13)
H5 H -0.1479 0.6389 0.0637
C6 C -0.2091(4) 0.6765(4) 0.03536(12)
H6 H -0.2287 0.6346 0.0306
C7 C -0.2251(4) 0.7328(4) 0.02243(12)
C8 C -0.2012(4) 0.7928(4) 0.03130(12)
H7 H -0.2147 0.8326 0.0225
C9 C -0.1592(3) 0.7998(3) 0.05188(10)
H8 H -0.1434 0.8431 0.0568
C10 C -0.2724(5) 0.7276(5) 0.00000
N1 N 0.0000 0.5679(3) 0.12841(8)
O2 O -0.0717(2) 0.8047(2) 0.09521(6)
O3 O -0.3187(4) 0.6813(4) 0.00000
Zn1 Zn 0.0000 0.67280(4) 0.127177(11)
C1S C 0.0000 0.4611(9) 0.1575(3)
H1S H -0.0404 0.4445 0.1667
H1W H 0.0404 0.4445 0.1667
C2S C 0.0697(8) 0.4611(8) 0.1159(3)
C2F C 0.0697(8) 0.5389(8) 0.1159(3)
C2W C -0.0697(8) 0.4611(8) 0.1159(3)
H3F H 0.1087 0.5556 0.1259
H3W H -0.1087 0.4444 0.1259
H3S H 0.1087 0.4444 0.1259
H4F H 0.0742 0.5556 0.098
H4W H -0.0742 0.4444 0.098
H4S H 0.0742 0.4444 0.098
O1Y O -0.31000(19) 0.9276(2) -0.09869(6)
O1F O 0.0724(2) 0.69000(19) 0.09869(6)
O1K O 0.31000(19) 0.9276(2) -0.09869(6)
O1BA O -0.31000(19) 1.0724(2) -0.09869(6)
C3Y C -0.2523(3) 0.9111(3) -0.08851(9)
C3F C 0.0889(3) 0.7477(3) 0.08851(9)
C3K C 0.2523(3) 0.9111(3) -0.08851(9)
C4Y C -0.2578(3) 0.8605(3) -0.06575(10)
C4F C 0.1395(3) 0.7422(3) 0.06575(10)
C4K C 0.2578(3) 0.8605(3) -0.06575(10)
C5Y C -0.3204(3) 0.8368(4) -0.05608(13)
C5F C 0.1632(4) 0.6796(3) 0.05608(13)
C5K C 0.3204(3) 0.8368(4) -0.05608(13)
H5Y H -0.3611 0.8521 -0.0637
H5F H 0.1479 0.6389 0.0637
H5K H 0.3611 0.8521 -0.0637
C6Y C -0.3235(4) 0.7909(4) -0.03536(12)
C6F C 0.2091(4) 0.6765(4) 0.03536(12)
C6K C 0.3235(4) 0.7909(4) -0.03536(12)
H6Y H -0.3654 0.7713 -0.0306
H6F H 0.2287 0.6346 0.0306
H6K H 0.3654 0.7713 -0.0306
C7Y C -0.2672(4) 0.7749(4) -0.02243(12)
C7F C 0.2251(4) 0.7328(4) 0.02243(12)
C7K C 0.2672(4) 0.7749(4) -0.02243(12)
C8Y C -0.2072(4) 0.7988(4) -0.03130(12)
C8F C 0.2012(4) 0.7928(4) 0.03130(12)
C8K C 0.2072(4) 0.7988(4) -0.03130(12)
H7Y H -0.1674 0.7853 -0.0225
H7F H 0.2147 0.8326 0.0225
H7K H 0.1674 0.7853 -0.0225
C9Y C -0.2002(3) 0.8408(3) -0.05188(10)
C9F C 0.1592(3) 0.7998(3) 0.05188(10)
C9K C 0.2002(3) 0.8408(3) -0.05188(10)
H8Y H -0.1569 0.8566 -0.0568
H8F H 0.1434 0.8431 0.0568
H8K H 0.1569 0.8566 -0.0568
C10F C 0.2724(5) 0.7276(5) 0.00000
N1S N 0.0000 0.4321(3) 0.12841(8)
N1Y N -0.4321(3) 1.0000 -0.12841(8)
O2Y O -0.1953(2) 0.9283(2) -0.09521(6)
O2F O 0.0717(2) 0.8047(2) 0.09521(6)
O2K O 0.1953(2) 0.9283(2) -0.09521(6)
O2A O -0.0717(2) 0.6953(2) 0.15479(6)
O2B O 0.0717(2) 0.6953(2) 0.15479(6)
O2X O -0.3047(2) 0.9283(2) -0.15479(6)
O2EA O -0.3047(2) 1.0717(2) -0.15479(6)
O3F O 0.3187(4) 0.6813(4) 0.00000
Zn1Y Zn -0.32720(4) 1.0000 -0.127177(11)
Zn1A Zn 0.0000 0.82720(4) 0.122823(11)
Zn1S Zn 0.0000 0.32720(4) 0.127177(11)
Zn1X Zn -0.17280(4) 1.0000 -0.122823(11)
Zn1J Zn 0.32720(4) 1.0000 -0.127177(11)
Zn1M Zn 0.17280(4) 1.0000 -0.122823(11)
loop_
_geom_bond_atom_site_label_1
_geom_bond_atom_site_label_2
_geom_bond_site_symmetry_1
_geom_bond_site_symmetry_2
C1 H1 1_555 1_555
H2 C1 1_555 1_555
C2 H3 1_555 1_555
H4 C2 1_555 1_555
O1 C3 1_555 1_555
C3 C4 1_555 1_555
C4 C5 1_555 1_555
C5 H5 1_555 1_555
C6 C5 1_555 1_555
H6 C6 1_555 1_555
C7 C6 1_555 1_555
C8 C7 1_555 1_555
H7 C8 1_555 1_555
C9 C4 1_555 1_555
H8 C9 1_555 1_555
C10 C7 1_555 1_555
N1 C1 1_555 1_555
O2 C3 1_555 1_555
O3 C10 1_555 1_555
Zn1 O1 1_555 1_555
C1S C1 1_555 1_555
H1S C1S 1_555 1_555
H1W C1S 1_555 1_555
C2S C2F 1_555 1_555
C2F N1 1_555 1_555
C2W C2 1_555 1_555
H3F C2F 1_555 1_555
H3W C2W 1_555 1_555
H3S C2S 1_555 1_555
H4F C2F 1_555 1_555
H4W C2W 1_555 1_555
H4S C2S 1_555 1_555
O1Y C3Y 1_555 1_555
O1F Zn1 1_555 1_555
O1K C3K 1_555 1_555
O1BA Zn1Y 1_555 1_555
C3Y C4Y 1_555 1_555
C3F O1F 1_555 1_555
C3K C4K 1_555 1_555
C4Y C5Y 1_555 1_555
C4F C3F 1_555 1_555
C4K C5K 1_555 1_555
C5Y H5Y 1_555 1_555
C5F C4F 1_555 1_555
C5K H5K 1_555 1_555
H5F C5F 1_555 1_555
C6Y C5Y 1_555 1_555
C6F C5F 1_555 1_555
C6K C5K 1_555 1_555
H6Y C6Y 1_555 1_555
H6F C6F 1_555 1_555
H6K C6K 1_555 1_555
C7Y C10 1_555 1_555
C7F C6F 1_555 1_555
C7K C6K 1_555 1_555
C8Y C7Y 1_555 1_555
C8F C7F 1_555 1_555
C8K C7K 1_555 1_555
H7Y C8Y 1_555 1_555
H7F C8F 1_555 1_555
H7K C8K 1_555 1_555
C9Y C4Y 1_555 1_555
C9F C4F 1_555 1_555
C9K C4K 1_555 1_555
H8Y C9Y 1_555 1_555
H8F C9F 1_555 1_555
H8K C9K 1_555 1_555
C10F C7F 1_555 1_555
N1S C1S 1_555 1_555
N1Y Zn1Y 1_555 1_555
O2Y C3Y 1_555 1_555
O2F C3F 1_555 1_555
O2K C3K 1_555 1_555
O2A Zn1 1_555 1_555
O2B Zn1 1_555 1_555
O2X Zn1Y 1_555 1_555
O2EA Zn1Y 1_555 1_555
O3F C10F 1_555 1_555
Zn1Y O1Y 1_555 1_555
Zn1A O2 1_555 1_555
Zn1S N1S 1_555 1_555
Zn1X O2Y 1_555 1_555
Zn1J O1K 1_555 1_555
Zn1M O2K 1_555 1_555
C2 N1 1_555 1_555
C8 C9 1_555 1_555
N1 Zn1 1_555 1_555
C2S N1S 1_555 1_555
C2W N1S 1_555 1_555
C6Y C7Y 1_555 1_555
C7K C10F 1_555 1_555
C8Y C9Y 1_555 1_555
C8F C9F 1_555 1_555
C8K C9K 1_555 1_555
O2F Zn1A 1_555 1_555

#END
