
#######################################################################
#
#                 Cambridge Crystallographic Data Centre
#                                CCDC 
#
#######################################################################
#
# If this CIF has been generated from an entry in the Cambridge 
# Structural Database, then it will include bibliographic, chemical, 
# crystal, experimental, refinement or atomic coordinate data resulting 
# from the CCDC's data processing and validation procedures.
#
#######################################################################

data_HOJHIZ
_symmetry_cell_setting           monoclinic
_symmetry_space_group_name_H-M   'C 2/c'
_symmetry_Int_Tables_number      15
_space_group_name_Hall           '-C 2yn'
loop_
_symmetry_equiv_pos_site_id
_symmetry_equiv_pos_as_xyz
1 x,y,z
2 -x,y,1/2-z
3 1/2+x,1/2+y,z
4 1/2-x,1/2+y,1/2-z
5 -x,-y,-z
6 x,-y,1/2+z
7 1/2-x,1/2-y,-z
8 1/2+x,1/2-y,1/2+z
_cell_length_a                   27.374(5)
_cell_length_b                   7.5696(14)
_cell_length_c                   19.838(4)
_cell_angle_alpha                90
_cell_angle_beta                 111.862(2)
_cell_angle_gamma                90
_cell_volume                     3815.01
loop_
_atom_site_label
_atom_site_type_symbol
_atom_site_fract_x
_atom_site_fract_y
_atom_site_fract_z
Ni1 Ni 0.234604(17) 0.21620(7) 0.61053(2)
O1 O 0.22088(10) 0.4301(3) 0.66360(13)
O2 O 0.24690(12) 0.7084(4) 0.68442(15)
O3 O 0.25987(10) 0.3973(3) 0.55287(13)
O4 O 0.24239(10) 0.4929(3) 0.43977(13)
O5 O 0.07476(19) 0.7786(6) 0.3142(2)
O6 O 0.02327(15) 0.8400(6) 0.3722(2)
O7 O 0.21343(10) 0.0547(4) 0.67778(13)
H1 H 0.2264 0.0917 0.7196
H2 H 0.2250 -0.0504 0.6807
N1 N 0.06608(17) 0.7919(6) 0.3698(2)
N2 N 0.31370(12) 0.2133(4) 0.68814(18)
N3 N 0.65476(12) 0.2821(4) 1.04108(17)
C1 C 0.18448(14) 0.6423(5) 0.5680(2)
C2 C 0.19024(15) 0.6046(5) 0.5022(2)
C3 C 0.15281(17) 0.6622(6) 0.4379(2)
H3 H 0.1573 0.6424 0.3943
C4 C 0.10848(17) 0.7496(5) 0.4383(2)
C5 C 0.10204(16) 0.7897(6) 0.5018(2)
H4 H 0.0723 0.8499 0.5012
C6 C 0.14033(17) 0.7396(5) 0.5664(2)
H5 H 0.1370 0.7705 0.6098
C7 C 0.22092(15) 0.5884(5) 0.6434(2)
C8 C 0.23464(15) 0.4901(5) 0.4987(2)
C9 C 0.34266(16) 0.3615(6) 0.7067(2)
H6 H 0.3271 0.4691 0.6879
C10 C 0.39483(17) 0.3585(7) 0.7529(2)
H7 H 0.4135 0.4640 0.7648
C11 C 0.41977(17) 0.2034(7) 0.7814(2)
C12 C 0.38939(17) 0.0508(7) 0.7642(2)
H8 H 0.4040 -0.0575 0.7834
C13 C 0.33715(16) 0.0619(6) 0.7181(2)
H9 H 0.3173 -0.0412 0.7074
C14 C 0.47768(19) 0.1969(9) 0.8276(3)
H10 H 0.4910 0.0805 0.8232
H11 H 0.4959 0.2818 0.8088
C15 C 0.49014(19) 0.2349(8) 0.9053(3)
H12 H 0.4741 0.1442 0.9248
H13 H 0.4740 0.3467 0.9091
C16 C 0.63859(15) 0.2863(6) 0.9687(2)
H14 H 0.6636 0.3028 0.9479
C17 C 0.58669(16) 0.2675(6) 0.9233(2)
H15 H 0.5775 0.2704 0.8732
C18 C 0.54827(16) 0.2441(6) 0.9521(2)
C19 C 0.56493(17) 0.2427(6) 1.0266(2)
H16 H 0.5404 0.2301 1.0486
C20 C 0.61759(16) 0.2597(6) 1.0691(2)
H17 H 0.6277 0.2554 1.1193
Ni1F Ni 0.265396(17) 0.28380(7) 0.38947(2)
Ni1G Ni 0.734604(17) 0.28380(7) 1.11053(2)
O4F O 0.25761(10) 0.0071(3) 0.56023(13)
N3G N 0.15476(12) 0.2179(4) 0.54108(17)
loop_
_geom_bond_atom_site_label_1
_geom_bond_atom_site_label_2
_geom_bond_site_symmetry_1
_geom_bond_site_symmetry_2
Ni1 O1 1_555 1_555
O1 C7 1_555 1_555
O2 C7 1_555 1_555
O3 Ni1 1_555 1_555
O4 C8 1_555 1_555
O5 N1 1_555 1_555
O6 N1 1_555 1_555
O7 Ni1 1_555 1_555
H1 O7 1_555 1_555
H2 O7 1_555 1_555
N1 C4 1_555 1_555
N2 Ni1 1_555 1_555
N3 C16 1_555 1_555
C1 C2 1_555 1_555
C2 C3 1_555 1_555
C3 H3 1_555 1_555
C4 C3 1_555 1_555
C5 C4 1_555 1_555
H4 C5 1_555 1_555
C6 C1 1_555 1_555
H5 C6 1_555 1_555
C7 C1 1_555 1_555
C8 O3 1_555 1_555
C9 N2 1_555 1_555
H6 C9 1_555 1_555
C10 C9 1_555 1_555
H7 C10 1_555 1_555
C11 C10 1_555 1_555
C12 C11 1_555 1_555
H8 C12 1_555 1_555
C13 N2 1_555 1_555
H9 C13 1_555 1_555
C14 C11 1_555 1_555
H10 C14 1_555 1_555
H11 C14 1_555 1_555
C15 C14 1_555 1_555
H12 C15 1_555 1_555
H13 C15 1_555 1_555
C16 H14 1_555 1_555
C17 C16 1_555 1_555
H15 C17 1_555 1_555
C18 C15 1_555 1_555
C19 C18 1_555 1_555
H16 C19 1_555 1_555
C20 N3 1_555 1_555
H17 C20 1_555 1_555
Ni1F O4 1_555 1_555
Ni1G N3 1_555 1_555
O4F Ni1 1_555 1_555
N3G Ni1 1_555 1_555
C2 C8 1_555 1_555
C5 C6 1_555 1_555
C12 C13 1_555 1_555
C17 C18 1_555 1_555
C19 C20 1_555 1_555

#END
