
#######################################################################
#
#                 Cambridge Crystallographic Data Centre
#                                CCDC 
#
#######################################################################
#
# If this CIF has been generated from an entry in the Cambridge 
# Structural Database, then it will include bibliographic, chemical, 
# crystal, experimental, refinement or atomic coordinate data resulting 
# from the CCDC's data processing and validation procedures.
#
#######################################################################

data_HOJHUL
_symmetry_cell_setting           orthorhombic
_symmetry_space_group_name_H-M   'P 21 21 21'
_symmetry_Int_Tables_number      19
_space_group_name_Hall           'P 2ac 2ab'
loop_
_symmetry_equiv_pos_site_id
_symmetry_equiv_pos_as_xyz
1 x,y,z
2 1/2-x,-y,1/2+z
3 -x,1/2+y,1/2-z
4 1/2+x,1/2-y,-z
_cell_length_a                   8.403(5)
_cell_length_b                   10.985(7)
_cell_length_c                   24.235(14)
_cell_angle_alpha                90
_cell_angle_beta                 90
_cell_angle_gamma                90
_cell_volume                     2237.06
loop_
_atom_site_label
_atom_site_type_symbol
_atom_site_fract_x
_atom_site_fract_y
_atom_site_fract_z
Ni1 Ni 0.60223(5) 0.11499(3) 0.485549(16)
O1 O 0.6427(3) -0.0503(2) 0.44746(9)
O2 O 0.8600(3) -0.1607(2) 0.46401(11)
O3 O 0.8419(2) 0.15616(19) 0.49065(9)
O4 O 1.0820(3) 0.22645(19) 0.46911(8)
O5 O 1.1655(4) 0.2657(3) 0.27101(11)
O6 O 1.1545(4) 0.1003(3) 0.22315(11)
O7 O 0.3615(2) 0.07910(19) 0.48319(10)
H1 H 0.3108 0.1442 0.4760
H2 H 0.3024 0.0165 0.4854
N1 N 1.1246(4) 0.1587(3) 0.26470(12)
N2 N 0.5833(3) 0.2005(2) 0.40856(10)
N3 N 0.8677(3) -0.0212(2) 0.05987(11)
C1 C 0.8767(4) -0.0108(3) 0.39519(13)
C2 C 0.9591(3) 0.0977(3) 0.40429(12)
C3 C 1.0405(4) 0.1518(3) 0.36098(13)
H3 H 1.0958 0.2240 0.3667
C4 C 1.0395(4) 0.0993(3) 0.31013(13)
C5 C 0.9577(4) -0.0088(3) 0.29966(15)
H4 H 0.9582 -0.0438 0.2647
C6 C 0.8762(4) -0.0621(3) 0.34269(14)
H5 H 0.8198 -0.1336 0.3365
C7 C 0.7872(4) -0.0787(3) 0.44011(14)
C8 C 0.9590(4) 0.1629(3) 0.45898(13)
C9 C 0.5157(4) 0.1408(3) 0.36683(14)
H6 H 0.4706 0.0650 0.3738
C10 C 0.5095(4) 0.1859(3) 0.31406(14)
H7 H 0.4599 0.1408 0.2865
C11 C 0.5759(4) 0.2968(3) 0.30150(13)
C12 C 0.6484(4) 0.3582(3) 0.34440(13)
H8 H 0.6974 0.4329 0.3382
C13 C 0.6477(4) 0.3077(3) 0.39693(14)
H9 H 0.6949 0.3513 0.4255
C14 C 0.5680(5) 0.3526(3) 0.24415(13)
H10 H 0.6456 0.4178 0.2420
H11 H 0.4636 0.3885 0.2392
C15 C 0.5986(5) 0.2641(3) 0.19649(13)
H12 H 0.5170 0.2017 0.1966
H13 H 0.5910 0.3079 0.1618
C16 C 0.7616(5) 0.2039(4) 0.20036(15)
H14 H 0.8420 0.2668 0.2036
H15 H 0.7655 0.1552 0.2337
C17 C 0.7632(4) -0.0547(3) 0.09815(14)
H16 H 0.7111 -0.1287 0.0937
C18 C 0.7278(5) 0.0142(4) 0.14400(15)
H17 H 0.6538 -0.0139 0.1695
C19 C 0.8017(4) 0.1243(3) 0.15209(13)
C20 C 0.9106(5) 0.1584(3) 0.11321(15)
H18 H 0.9652 0.2315 0.1171
C21 C 0.9396(4) 0.0851(3) 0.06837(15)
H19 H 1.0138 0.1113 0.0425
Ni1A Ni 0.89777(5) -0.11499(3) -0.014451(16)
Ni1C Ni 1.10223(5) 0.38501(3) 0.514451(16)
O4C O 0.5820(3) 0.27355(19) 0.53089(8)
N3A N 0.6323(3) 0.0212(2) 0.55987(11)
O8 O 0.7993(4) 0.3688(3) 0.0108(2)
H20 H 0.8973 0.3523 0.0152
H21 H 0.7520 0.3072 -0.0027
loop_
_geom_bond_atom_site_label_1
_geom_bond_atom_site_label_2
_geom_bond_site_symmetry_1
_geom_bond_site_symmetry_2
Ni1 O1 1_555 1_555
O1 C7 1_555 1_555
O2 C7 1_555 1_555
O3 Ni1 1_555 1_555
O4 C8 1_555 1_555
O5 N1 1_555 1_555
O6 N1 1_555 1_555
O7 Ni1 1_555 1_555
H1 O7 1_555 1_555
H2 O7 1_555 1_555
N1 C4 1_555 1_555
N2 Ni1 1_555 1_555
N3 C17 1_555 1_555
C1 C2 1_555 1_555
C2 C3 1_555 1_555
C3 H3 1_555 1_555
C4 C3 1_555 1_555
C5 C4 1_555 1_555
H4 C5 1_555 1_555
C6 C1 1_555 1_555
H5 C6 1_555 1_555
C7 C1 1_555 1_555
C8 O3 1_555 1_555
C9 N2 1_555 1_555
H6 C9 1_555 1_555
C10 C9 1_555 1_555
H7 C10 1_555 1_555
C11 C10 1_555 1_555
C12 C11 1_555 1_555
H8 C12 1_555 1_555
C13 N2 1_555 1_555
H9 C13 1_555 1_555
C14 C11 1_555 1_555
H10 C14 1_555 1_555
H11 C14 1_555 1_555
C15 C14 1_555 1_555
H12 C15 1_555 1_555
H13 C15 1_555 1_555
C16 C15 1_555 1_555
H14 C16 1_555 1_555
H15 C16 1_555 1_555
C17 H16 1_555 1_555
C18 C17 1_555 1_555
H17 C18 1_555 1_555
C19 C16 1_555 1_555
C20 C19 1_555 1_555
H18 C20 1_555 1_555
C21 N3 1_555 1_555
H19 C21 1_555 1_555
O8 H20 1_555 1_555
H21 O8 1_555 1_555
Ni1A N3 1_555 1_555
Ni1C O4 1_555 1_555
O4C Ni1 1_555 1_555
N3A Ni1 1_555 1_555
C2 C8 1_555 1_555
C5 C6 1_555 1_555
C12 C13 1_555 1_555
C18 C19 1_555 1_555
C20 C21 1_555 1_555

#END
