
#######################################################################
#
#                 Cambridge Crystallographic Data Centre
#                                CCDC 
#
#######################################################################
#
# If this CIF has been generated from an entry in the Cambridge 
# Structural Database, then it will include bibliographic, chemical, 
# crystal, experimental, refinement or atomic coordinate data resulting 
# from the CCDC's data processing and validation procedures.
#
#######################################################################

data_HOJHOF
_symmetry_cell_setting           monoclinic
_symmetry_space_group_name_H-M   'P 21/c'
_symmetry_Int_Tables_number      14
_space_group_name_Hall           '-P 2ybc'
loop_
_symmetry_equiv_pos_site_id
_symmetry_equiv_pos_as_xyz
1 x,y,z
2 -x,1/2+y,1/2-z
3 -x,-y,-z
4 x,1/2-y,1/2+z
_cell_length_a                   10.0192(16)
_cell_length_b                   27.598(4)
_cell_length_c                   17.5393(19)
_cell_angle_alpha                90
_cell_angle_beta                 123.252(6)
_cell_angle_gamma                90
_cell_volume                     4055.72
loop_
_atom_site_label
_atom_site_type_symbol
_atom_site_fract_x
_atom_site_fract_y
_atom_site_fract_z
Co1 Co 0.4891(1) 1.0706 0.7481
Co2 Co 0.0640(1) 1.0753 0.800
N1 N 0.3786(4) 1.0047(1) 0.6795(2)
N2 N 0.3917(4) 0.6377(1) 0.6935(2)
N3 N -0.0747(4) 1.0086(1) 0.7192(2)
N4 N -0.1790(4) 0.6433(1) 0.6262(2)
N5 N 0.3247(5) 0.8546(1) 0.8737(3)
N6 N 0.2392(5) 1.2944(1) 0.6748(3)
O1 O 0.4384(3) 1.0654(1) 0.8480(2)
O2 O 0.2619(3) 1.0329(1) 0.8729(2)
O3 O 0.7029(3) 1.0352(1) 0.8431(2)
O4 O 0.8389(3) 1.0203(1) 0.9920(2)
O5 O 0.2049(5) 0.8631(1) 0.8760(3)
O6 O 0.3619(4) 0.8139(1) 0.8658(3)
O7 O 0.1010(3) 1.0849(1) 0.6944(2)
O8 O 0.2762(3) 1.1141(1) 0.6649(2)
O9 O -0.2936(4) 1.1416(1) 0.5770(2)
O10 O -0.1426(3) 1.1154(1) 0.7185(2)
O11 O 0.1999(6) 1.3354(1) 0.6765(4)
O12 O 0.3524(4) 1.2848(1) 0.6704(3)
O13 O 0.0072(3) 1.0597(1) 0.8943(2)
H1 H -0.0870 1.0548 0.8812
H2 H 0.0358 1.0308 0.9129
O14 O 0.5742(3) 1.0750(1) 0.6614(2)
H3 H 0.5375 1.0727 0.6049
H4 H 0.6635 1.0890 0.6827
C1 C 0.3823(4) 1.0303(1) 0.8681(2)
C2 C 0.4593(4) 0.9813(1) 0.8850(2)
C3 C 0.3701(5) 0.9417(1) 0.8813(3)
H5 H 0.2740 0.9464 0.8767
C4 C 0.4251(5) 0.8958(1) 0.8845(3)
C5 C 0.5697(5) 0.8870(1) 0.8963(3)
H6 H 0.6046 0.8555 0.8985
C6 C 0.6620(5) 0.9262(1) 0.9048(3)
H7 H 0.7617 0.9210 0.9142
C7 C 0.6095(4) 0.9735(1) 0.8997(2)
C8 C 0.7242(4) 1.0135(1) 0.9134(3)
C9 C 0.1619(4) 1.1187(1) 0.6755(2)
C10 C 0.0967(4) 1.1689(1) 0.6683(2)
C11 C 0.1858(4) 1.2078(1) 0.6695(2)
H8 H 0.2763 1.2022 0.6685
C12 C 0.1408(5) 1.2543(1) 0.6722(3)
C13 C 0.0081(5) 1.2644(2) 0.6738(3)
H9 H -0.0179 1.2962 0.6782
C14 C -0.0854(5) 1.2264(1) 0.6688(3)
H10 H -0.1776 1.2328 0.6677
C15 C -0.0445(4) 1.1783(1) 0.6653(2)
C16 C -0.1687(5) 1.1414(2) 0.6522(3)
C17 C 0.4664(5) 0.9693(2) 0.6769(3)
H11 H 0.5733 0.9754 0.6998
C18 C 0.4069(5) 0.9241(2) 0.6419(3)
H12 H 0.4732 0.9005 0.6419
C19 C 0.2477(5) 0.9135(1) 0.6065(3)
C20 C 0.1594(5) 0.9502(2) 0.6085(3)
H13 H 0.0517 0.9451 0.5847
C21 C 0.2257(5) 0.9949(2) 0.6450(3)
H14 H 0.1611 1.0189 0.6454
C22 C 0.1753(5) 0.8653(1) 0.5670(3)
H15 H 0.1603 0.8630 0.5075
H16 H 0.0703 0.8644 0.5573
C23 C 0.2645(6) 0.8211(2) 0.6204(3)
H17 H 0.3724 0.8225 0.6343
H18 H 0.2711 0.8212 0.6777
C24 C 0.1910(6) 0.7767(2) 0.5728(4)
H19 H 0.1867 0.7776 0.5163
H20 H 0.0815 0.7773 0.5565
C25 C 0.2602(5) 0.7282(2) 0.6167(3)
C26 C 0.3410(5) 0.7204(2) 0.7100(3)
H21 H 0.3526 0.7455 0.7485
C27 C 0.4036(5) 0.6756(1) 0.7449(3)
H22 H 0.4572 0.6712 0.8076
C28 C 0.3094(5) 0.6454(2) 0.6036(3)
H23 H 0.2957 0.6196 0.5658
C29 C 0.2444(5) 0.6891(2) 0.5645(3)
H24 H 0.1886 0.6923 0.5015
C30 C -0.1621(5) 1.0089(2) 0.6273(3)
H25 H -0.1739 1.0380 0.5975
C31 C -0.2344(5) 0.9683(1) 0.5754(3)
H26 H -0.2954 0.9709 0.5122
C32 C -0.2180(5) 0.9235(1) 0.6159(3)
C33 C -0.1305(5) 0.9233(1) 0.7101(3)
H27 H -0.1173 0.8946 0.7412
C34 C -0.0626(5) 0.9656(2) 0.7584(3)
H28 H -0.0050 0.9642 0.8217
C35 C -0.2948(5) 0.8793(1) 0.5559(3)
H29 H -0.2787 0.8815 0.5063
H30 H -0.4088 0.8815 0.5291
C36 C -0.2405(5) 0.8294(1) 0.5981(3)
H31 H -0.2628 0.8252 0.6450
H32 H -0.1262 0.8264 0.6265
C37 C -0.3271(5) 0.7899(1) 0.5251(3)
H33 H -0.4409 0.7930 0.4981
H34 H -0.3078 0.7955 0.4773
C38 C -0.2772(5) 0.7386(1) 0.5600(3)
C39 C -0.1470(6) 0.7169(2) 0.5659(3)
H35 H -0.0899 0.7338 0.5468
C40 C -0.1013(5) 0.6706(2) 0.5998(3)
H36 H -0.0113 0.6577 0.6046
C41 C -0.3092(5) 0.6634(2) 0.6160(3)
H37 H -0.3696 0.6448 0.6306
C42 C -0.3593(5) 0.7099(2) 0.5852(3)
H38 H -0.4493 0.7220 0.5814
Co1A Co 0.5109(1) 0.5706 0.7519
Co2A Co -0.0640(1) 0.5753 0.700
N2A N 0.6083(4) 1.1377(1) 0.8065(2)
N4A N 0.1790(4) 1.1433(1) 0.8738(2)
loop_
_geom_bond_atom_site_label_1
_geom_bond_atom_site_label_2
_geom_bond_site_symmetry_1
_geom_bond_site_symmetry_2
Co1 N1 1_555 1_555
Co2 N3 1_555 1_555
N1 C17 1_555 1_555
N2 C27 1_555 1_555
N3 C30 1_555 1_555
N4 C40 1_555 1_555
N5 O5 1_555 1_555
N6 O11 1_555 1_555
O1 Co1 1_555 1_555
O2 Co2 1_555 1_555
O3 Co1 1_555 1_555
O4 C8 1_555 1_555
O6 N5 1_555 1_555
O7 Co2 1_555 1_555
O8 Co1 1_555 1_555
O9 C16 1_555 1_555
O10 Co2 1_555 1_555
O12 N6 1_555 1_555
O13 Co2 1_555 1_555
H1 O13 1_555 1_555
H2 O13 1_555 1_555
O14 Co1 1_555 1_555
H3 O14 1_555 1_555
H4 O14 1_555 1_555
C1 O1 1_555 1_555
C2 C1 1_555 1_555
C3 C2 1_555 1_555
H5 C3 1_555 1_555
C4 N5 1_555 1_555
C5 C4 1_555 1_555
H6 C5 1_555 1_555
C6 C5 1_555 1_555
H7 C6 1_555 1_555
C7 C2 1_555 1_555
C8 O3 1_555 1_555
C9 O7 1_555 1_555
C10 C9 1_555 1_555
C11 C10 1_555 1_555
H8 C11 1_555 1_555
C12 N6 1_555 1_555
C13 C12 1_555 1_555
H9 C13 1_555 1_555
C14 C13 1_555 1_555
H10 C14 1_555 1_555
C15 C10 1_555 1_555
C16 O10 1_555 1_555
C17 H11 1_555 1_555
C18 C17 1_555 1_555
H12 C18 1_555 1_555
C19 C18 1_555 1_555
C20 C19 1_555 1_555
H13 C20 1_555 1_555
C21 N1 1_555 1_555
H14 C21 1_555 1_555
C22 C19 1_555 1_555
H15 C22 1_555 1_555
H16 C22 1_555 1_555
C23 C22 1_555 1_555
H17 C23 1_555 1_555
H18 C23 1_555 1_555
C24 C23 1_555 1_555
H19 C24 1_555 1_555
H20 C24 1_555 1_555
C25 C24 1_555 1_555
C26 C25 1_555 1_555
H21 C26 1_555 1_555
C27 C26 1_555 1_555
H22 C27 1_555 1_555
C28 N2 1_555 1_555
H23 C28 1_555 1_555
C29 C25 1_555 1_555
H24 C29 1_555 1_555
C30 H25 1_555 1_555
C31 C30 1_555 1_555
H26 C31 1_555 1_555
C32 C31 1_555 1_555
C33 C32 1_555 1_555
H27 C33 1_555 1_555
C34 N3 1_555 1_555
H28 C34 1_555 1_555
C35 C32 1_555 1_555
H29 C35 1_555 1_555
H30 C35 1_555 1_555
C36 C35 1_555 1_555
H31 C36 1_555 1_555
H32 C36 1_555 1_555
C37 C36 1_555 1_555
H33 C37 1_555 1_555
H34 C37 1_555 1_555
C38 C37 1_555 1_555
C39 C38 1_555 1_555
H35 C39 1_555 1_555
C40 C39 1_555 1_555
H36 C40 1_555 1_555
C41 N4 1_555 1_555
H37 C41 1_555 1_555
C42 C38 1_555 1_555
H38 C42 1_555 1_555
Co1A N2 1_555 1_555
Co2A N4 1_555 1_555
N2A Co1 1_555 1_555
N4A Co2 1_555 1_555
O2 C1 1_555 1_555
O8 C9 1_555 1_555
C3 C4 1_555 1_555
C6 C7 1_555 1_555
C7 C8 1_555 1_555
C11 C12 1_555 1_555
C14 C15 1_555 1_555
C15 C16 1_555 1_555
C20 C21 1_555 1_555
C28 C29 1_555 1_555
C33 C34 1_555 1_555
C41 C42 1_555 1_555

#END
