
#######################################################################
#
#                 Cambridge Crystallographic Data Centre
#                                CCDC 
#
#######################################################################
#
# If this CIF has been generated from an entry in the Cambridge 
# Structural Database, then it will include bibliographic, chemical, 
# crystal, experimental, refinement or atomic coordinate data resulting 
# from the CCDC's data processing and validation procedures.
#
#######################################################################

data_HOJHEV
_symmetry_cell_setting           triclinic
_symmetry_space_group_name_H-M   'P -1'
_symmetry_Int_Tables_number      2
_space_group_name_Hall           '-P 1'
loop_
_symmetry_equiv_pos_site_id
_symmetry_equiv_pos_as_xyz
1 x,y,z
2 -x,-y,-z
_cell_length_a                   10.2120(5)
_cell_length_b                   11.2640(6)
_cell_length_c                   11.8008(8)
_cell_angle_alpha                106.962(5)
_cell_angle_beta                 98.287(5)
_cell_angle_gamma                97.359(4)
_cell_volume                     1263.89
loop_
_atom_site_label
_atom_site_type_symbol
_atom_site_fract_x
_atom_site_fract_y
_atom_site_fract_z
Mn1 Mn 0.0000 1.0000 0.0000
Mn2 Mn 0.0000 0.5000 0.0000
N1 N 0.2272(4) 0.9179(3) 0.3633(3)
N2 N 0.1785(3) 0.4689(3) 0.1198(3)
N3 N 0.3442(3) 0.5327(3) 0.2774(2)
N4 N 0.6179(3) 0.8121(3) 0.7479(3)
N5 N 0.7877(3) 0.9079(3) 0.8998(3)
N6 N -0.0745(3) 1.0975(3) 0.1677(3)
N7 N -0.0544(3) 1.2531(3) 0.3369(3)
O1 O 0.0266(3) 0.8444(2) 0.0696(2)
O2 O 0.0131(2) 0.6803(2) 0.1373(2)
O3 O 0.1319(2) 0.5971(2) -0.0790(2)
O4 O 0.3230(3) 0.6413(4) -0.1347(3)
O5 O 0.1086(4) 0.8962(5) 0.3455(3)
O6 O 0.2875(5) 0.9789(6) 0.4613(4)
C1 C 0.0769(3) 0.7722(3) 0.1164(3)
C2 C 0.2309(3) 0.7946(3) 0.1513(3)
C3 C 0.3009(4) 0.8672(3) 0.2673(3)
C4 C 0.4400(4) 0.8920(4) 0.3009(4)
C5 C 0.5157(4) 0.8404(5) 0.2161(4)
C6 C 0.4508(4) 0.7662(4) 0.1009(4)
C7 C 0.3101(3) 0.7429(3) 0.0683(3)
C8 C 0.2509(3) 0.6544(4) -0.0583(3)
C9 C 0.2148(3) 0.5367(3) 0.2345(3)
C10 C 0.3932(4) 0.4576(4) 0.1832(3)
C11 C 0.2887(4) 0.4183(4) 0.0868(3)
C12 C 0.4161(3) 0.6006(3) 0.3971(3)
C13 C 0.3504(4) 0.6103(4) 0.4932(3)
C14 C 0.4164(4) 0.6798(4) 0.6093(3)
C15 C 0.5489(3) 0.7395(3) 0.6283(3)
C16 C 0.6153(4) 0.7280(4) 0.5324(3)
C17 C 0.5488(4) 0.6587(4) 0.4156(3)
C18 C 0.5626(4) 0.8614(4) 0.8472(4)
C19 C 0.6687(4) 0.9207(4) 0.9397(4)
C20 C 0.7537(4) 0.8429(4) 0.7846(3)
C21 C -0.0981(4) 1.0479(4) 0.2582(4)
C22 C -0.0493(4) 1.2215(3) 0.2183(3)
C23 C -0.0865(5) 1.1426(4) 0.3632(4)
C24 C -0.0266(3) 1.3790(3) 0.4204(3)
C25 C -0.0617(4) 1.4775(3) 0.3809(3)
H1 H -0.1030 1.4620 0.3011
C26 C 0.0348(4) 1.4012(3) 0.5388(3)
H2 H 0.0579 1.3347 0.5645
N6A N 0.0745(3) 1.9025(3) 0.8323(3)
N7A N 0.0544(3) 1.7469(3) 0.6631(3)
C21A C 0.0981(4) 1.9521(4) 0.7418(4)
C22A C 0.0493(4) 1.7785(3) 0.7817(3)
C23A C 0.0865(5) 1.8574(4) 0.6368(4)
C24A C 0.0266(3) 1.6210(3) 0.5796(3)
C25A C 0.0617(4) 1.5225(3) 0.6191(3)
H1A H 0.1030 1.5380 0.6989
C26A C -0.0348(4) 1.5988(3) 0.4612(3)
H2A H -0.0579 1.6653 0.4355
N1A N -0.2272(4) 0.0821(3) -0.3633(3)
N2A N -0.1785(3) 0.5311(3) -0.1198(3)
N3A N -0.3442(3) 0.4673(3) -0.2774(2)
N4A N -0.6179(3) 0.1879(3) -0.7479(3)
N5A N -0.7877(3) 0.0921(3) -0.8998(3)
O1A O -0.0266(3) 0.1556(2) -0.0696(2)
O2A O -0.0131(2) 0.3197(2) -0.1373(2)
O3A O -0.1319(2) 0.4029(2) 0.0790(2)
O4A O -0.3230(3) 0.3587(4) 0.1347(3)
O5A O -0.1086(4) 0.1038(5) -0.3455(3)
O6A O -0.2875(5) 0.0211(6) -0.4613(4)
C1A C -0.0769(3) 0.2278(3) -0.1164(3)
C2A C -0.2309(3) 0.2054(3) -0.1513(3)
C3A C -0.3009(4) 0.1328(3) -0.2673(3)
C4A C -0.4400(4) 0.1080(4) -0.3009(4)
C5A C -0.5157(4) 0.1596(5) -0.2161(4)
C6A C -0.4508(4) 0.2338(4) -0.1009(4)
C7A C -0.3101(3) 0.2571(3) -0.0683(3)
C8A C -0.2509(3) 0.3456(4) 0.0583(3)
C9A C -0.2148(3) 0.4633(3) -0.2345(3)
C10A C -0.3932(4) 0.5424(4) -0.1832(3)
C11A C -0.2887(4) 0.5817(4) -0.0868(3)
C12A C -0.4161(3) 0.3994(3) -0.3971(3)
C13A C -0.3504(4) 0.3897(4) -0.4932(3)
C14A C -0.4164(4) 0.3202(4) -0.6093(3)
C15A C -0.5489(3) 0.2605(3) -0.6283(3)
C16A C -0.6153(4) 0.2720(4) -0.5324(3)
C17A C -0.5488(4) 0.3413(4) -0.4156(3)
C18A C -0.5626(4) 0.1386(4) -0.8472(4)
C19A C -0.6687(4) 0.0793(4) -0.9397(4)
C20A C -0.7537(4) 0.1571(4) -0.7846(3)
Mn1_2 Mn -1.0000 0.0000 -1.0000
Mn1_3 Mn 0.0000 0.0000 0.0000
Mn1_4 Mn 0.0000 2.0000 1.0000
Mn1_5 Mn 1.0000 1.0000 1.0000
N5_2 N -0.2123(3) 0.9079(3) -0.1002(3)
N5A_2 N 0.2123(3) 1.0921(3) 0.1002(3)
N6A_2 N 0.0745(3) 0.9025(3) -0.1677(3)
O1A_2 O -0.0266(3) 1.1556(2) -0.0696(2)
O7 O 0.7712(3) 0.6592(4) 0.2306(3)
H3 H 0.8509 0.6748 0.2188
H4 H 0.7503 0.5793 0.2019
loop_
_geom_bond_atom_site_label_1
_geom_bond_atom_site_label_2
_geom_bond_site_symmetry_1
_geom_bond_site_symmetry_2
Mn1 N6 1_555 1_555
Mn2 N2 1_555 1_555
N1 O5 1_555 1_555
N2 C9 1_555 1_555
N3 C9 1_555 1_555
N4 C15 1_555 1_555
N5 C19 1_555 1_555
N6 C21 1_555 1_555
N7 C22 1_555 1_555
O1 Mn1 1_555 1_555
O2 Mn2 1_555 1_555
O3 Mn2 1_555 1_555
O4 C8 1_555 1_555
O6 N1 1_555 1_555
C1 O1 1_555 1_555
C2 C1 1_555 1_555
C3 N1 1_555 1_555
C4 C3 1_555 1_555
C5 C4 1_555 1_555
C6 C5 1_555 1_555
C7 C2 1_555 1_555
C8 O3 1_555 1_555
C10 N3 1_555 1_555
C11 N2 1_555 1_555
C12 N3 1_555 1_555
C13 C12 1_555 1_555
C14 C13 1_555 1_555
C15 C14 1_555 1_555
C16 C15 1_555 1_555
C17 C12 1_555 1_555
C18 N4 1_555 1_555
C19 C18 1_555 1_555
C20 N4 1_555 1_555
C21 C23 1_555 1_555
C22 N6 1_555 1_555
C23 N7 1_555 1_555
C24 N7 1_555 1_555
C25 C24 1_555 1_555
H1 C25 1_555 1_555
C26 C24 1_555 1_555
H2 C26 1_555 1_555
O7 H3 1_555 1_555
H4 O7 1_555 1_555
N6A C21A 1_555 1_555
N7A C22A 1_555 1_555
C21A C23A 1_555 1_555
C22A N6A 1_555 1_555
C23A N7A 1_555 1_555
C24A N7A 1_555 1_555
C25A C26 1_555 1_555
H1A C25A 1_555 1_555
C26A C25 1_555 1_555
H2A C26A 1_555 1_555
N1A O5A 1_555 1_555
N2A Mn2 1_555 1_555
N3A C9A 1_555 1_555
N4A C15A 1_555 1_555
N5A C19A 1_555 1_555
O1A C1A 1_555 1_555
O2A Mn2 1_555 1_555
O3A Mn2 1_555 1_555
O4A C8A 1_555 1_555
O6A N1A 1_555 1_555
C1A O2A 1_555 1_555
C2A C1A 1_555 1_555
C3A N1A 1_555 1_555
C4A C3A 1_555 1_555
C5A C4A 1_555 1_555
C6A C5A 1_555 1_555
C7A C2A 1_555 1_555
C8A O3A 1_555 1_555
C9A N2A 1_555 1_555
C10A N3A 1_555 1_555
C11A N2A 1_555 1_555
C12A N3A 1_555 1_555
C13A C12A 1_555 1_555
C14A C13A 1_555 1_555
C15A C14A 1_555 1_555
C16A C15A 1_555 1_555
C17A C12A 1_555 1_555
C18A N4A 1_555 1_555
C19A C18A 1_555 1_555
C20A N4A 1_555 1_555
Mn1_2 N5A 1_555 1_555
Mn1_3 O1A 1_555 1_555
Mn1_4 N6A 1_555 1_555
Mn1_5 N5 1_555 1_555
N5_2 Mn1 1_555 1_555
N5A_2 Mn1 1_555 1_555
N6A_2 Mn1 1_555 1_555
O1A_2 Mn1 1_555 1_555
N5 C20 1_555 1_555
O2 C1 1_555 1_555
C2 C3 1_555 1_555
C6 C7 1_555 1_555
C7 C8 1_555 1_555
C10 C11 1_555 1_555
C16 C17 1_555 1_555
C24A C25A 1_555 1_555
C24A C26A 1_555 1_555
N5A C20A 1_555 1_555
C2A C3A 1_555 1_555
C6A C7A 1_555 1_555
C7A C8A 1_555 1_555
C10A C11A 1_555 1_555
C16A C17A 1_555 1_555

#END
