
#######################################################################
#
#                 Cambridge Crystallographic Data Centre
#                                CCDC 
#
#######################################################################
#
# If this CIF has been generated from an entry in the Cambridge 
# Structural Database, then it will include bibliographic, chemical, 
# crystal, experimental, refinement or atomic coordinate data resulting 
# from the CCDC's data processing and validation procedures.
#
#######################################################################

data_HOJJEX
_symmetry_cell_setting           triclinic
_symmetry_space_group_name_H-M   'P -1'
_symmetry_Int_Tables_number      2
_space_group_name_Hall           '-P 1'
loop_
_symmetry_equiv_pos_site_id
_symmetry_equiv_pos_as_xyz
1 x,y,z
2 -x,-y,-z
_cell_length_a                   8.52850(10)
_cell_length_b                   11.00380(10)
_cell_length_c                   12.9936(2)
_cell_angle_alpha                102.9650(10)
_cell_angle_beta                 94.1420(11)
_cell_angle_gamma                90.4310(10)
_cell_volume                     1184.85
loop_
_atom_site_label
_atom_site_type_symbol
_atom_site_fract_x
_atom_site_fract_y
_atom_site_fract_z
C1 C 0.9541(3) 0.5839(3) 0.4126(2)
C2 C 1.0386(4) 0.6886(3) 0.4729(3)
C3 C 1.1854(4) 0.7193(3) 0.4454(3)
H1 H 1.2415 0.7882 0.4864
C4 C 1.2480(4) 0.6487(3) 0.3584(3)
H2 H 1.3455 0.6709 0.3395
C5 C 1.1658(4) 0.5431(3) 0.2976(2)
C6 C 1.0212(4) 0.5115(3) 0.3254(2)
H3 H 0.9673 0.4407 0.2855
C7 C 0.7926(3) 0.5518(3) 0.4383(2)
C8 C 0.6094(5) 1.1613(4) 0.8845(3)
H4 H 0.7004 1.2044 0.8767
C9 C 0.5756(5) 1.0473(4) 0.8166(3)
H5 H 0.6440 1.0142 0.7655
C10 C 0.4393(4) 0.9824(3) 0.8249(3)
C11 C 0.3447(4) 1.0358(3) 0.9042(3)
H6 H 0.2524 0.9950 0.9130
C12 C 0.3876(4) 1.1493(3) 0.9701(3)
H7 H 0.3229 1.1832 1.0233
C13 C 0.4035(4) 0.8601(3) 0.7478(3)
C14 C 0.8484(4) 1.5985(3) 1.1108(3)
H8 H 0.8913 1.5463 1.0537
C15 C 0.9275(4) 1.7081(3) 1.1588(3)
H9 H 1.0216 1.7291 1.1343
C16 C 0.8655(4) 1.7871(3) 1.2442(3)
C17 C 0.7252(4) 1.7505(3) 1.2776(3)
H10 H 0.6798 1.8009 1.3346
C18 C 0.6543(4) 1.6388(3) 1.2254(3)
H11 H 0.5612 1.6146 1.2491
C19 C 0.9509(5) 1.9087(3) 1.2940(4)
N1 N 0.5177(4) 1.2130(3) 0.9610(2)
N2 N 0.7130(3) 1.5633(3) 1.1422(2)
O1 O 0.7349(3) 0.6275(2) 0.5142(2)
O2 O 0.7240(3) 0.4561(2) 0.38428(19)
O3 O 1.1288(3) 0.3643(3) 0.1296(2)
O4 O 1.3898(4) 0.4015(3) 0.2204(2)
O5 O 1.2861(4) 0.5451(3) 0.1220(2)
O6 O 0.4848(4) 0.8278(2) 0.6716(2)
O7 O 1.0640(5) 1.9400(4) 1.2546(4)
S1 S 1.24760(9) 0.45571(8) 0.18321(6)
Ag1 Ag 0.52010(3) 0.60028(2) 0.59198(2)
Ag2 Ag 0.58633(4) 1.39429(3) 1.05989(2)
N3 N 0.2862(4) 0.7900(3) 0.7657(3)
H12 H 0.266(6) 0.721(3) 0.720(3)
H13 H 0.224(5) 0.849(3) 0.779(3)
N4 N 0.8959(5) 1.9777(3) 1.3792(3)
H14 H 0.930(6) 2.052(3) 1.410(4)
H15 H 0.825(5) 1.949(5) 1.411(4)
O8 O 0.9814(3) 0.7628(3) 0.5587(2)
H16 H 0.893(3) 0.733(4) 0.559(4)
O2A O 0.2760(3) 0.5439(2) 0.61572(19)
O4A O 0.6102(4) 0.5985(3) 0.7796(2)
Ag1A Ag 0.47990(3) 0.39972(2) 0.40802(2)
Ag1A_2 Ag 1.47990(3) 0.39972(2) 0.40802(2)
O9 O 0.6475(9) 0.9450(5) 0.5292(6)
H17 H 0.7053 0.9323 0.5623
H18 H 0.5820 0.9036 0.4910
O10 O -0.0001(10) 0.8751(8) 0.8852(7)
H19 H -0.0148 0.8275 0.8268
C20 C 0.0860(17) 0.8195(13) 0.9495(11)
H20 H 0.1368 0.8815 1.0063
H21 H 0.1641 0.7703 0.9108
H22 H 0.0194 0.7665 0.9780
loop_
_geom_bond_atom_site_label_1
_geom_bond_atom_site_label_2
_geom_bond_site_symmetry_1
_geom_bond_site_symmetry_2
C1 C2 1_555 1_555
C2 C3 1_555 1_555
C3 H1 1_555 1_555
C4 C3 1_555 1_555
H2 C4 1_555 1_555
C5 C4 1_555 1_555
C6 C1 1_555 1_555
H3 C6 1_555 1_555
C7 C1 1_555 1_555
C8 H4 1_555 1_555
C9 C8 1_555 1_555
H5 C9 1_555 1_555
C10 C9 1_555 1_555
C11 C10 1_555 1_555
H6 C11 1_555 1_555
C12 C11 1_555 1_555
H7 C12 1_555 1_555
C13 C10 1_555 1_555
C14 H8 1_555 1_555
C15 C14 1_555 1_555
H9 C15 1_555 1_555
C16 C15 1_555 1_555
C17 C16 1_555 1_555
H10 C17 1_555 1_555
C18 C17 1_555 1_555
H11 C18 1_555 1_555
C19 C16 1_555 1_555
N1 C8 1_555 1_555
N2 C14 1_555 1_555
O1 C7 1_555 1_555
O2 C7 1_555 1_555
O3 S1 1_555 1_555
O4 S1 1_555 1_555
O5 S1 1_555 1_555
O6 C13 1_555 1_555
O7 C19 1_555 1_555
S1 C5 1_555 1_555
Ag1 O1 1_555 1_555
Ag2 N1 1_555 1_555
N3 C13 1_555 1_555
H12 N3 1_555 1_555
H13 N3 1_555 1_555
N4 C19 1_555 1_555
H14 N4 1_555 1_555
H15 N4 1_555 1_555
O8 C2 1_555 1_555
H16 O8 1_555 1_555
O9 H17 1_555 1_555
H18 O9 1_555 1_555
O10 H19 1_555 1_555
C20 O10 1_555 1_555
H20 C20 1_555 1_555
H21 C20 1_555 1_555
H22 C20 1_555 1_555
O2A Ag1 1_555 1_555
O4A Ag1 1_555 1_555
Ag1A O2 1_555 1_555
Ag1A_2 O4 1_555 1_555
C5 C6 1_555 1_555
C12 N1 1_555 1_555
C18 N2 1_555 1_555
N2 Ag2 1_555 1_555
O6 Ag1 1_555 1_555

#END
