
#######################################################################
#
#                 Cambridge Crystallographic Data Centre
#                                CCDC 
#
#######################################################################
#
# If this CIF has been generated from an entry in the Cambridge 
# Structural Database, then it will include bibliographic, chemical, 
# crystal, experimental, refinement or atomic coordinate data resulting 
# from the CCDC's data processing and validation procedures.
#
#######################################################################

data_HOJJOH
_symmetry_cell_setting           orthorhombic
_symmetry_space_group_name_H-M   'P b c a'
_symmetry_Int_Tables_number      61
_space_group_name_Hall           '-P 2ac 2ab'
loop_
_symmetry_equiv_pos_site_id
_symmetry_equiv_pos_as_xyz
1 x,y,z
2 1/2-x,-y,1/2+z
3 1/2+x,1/2-y,-z
4 -x,1/2+y,1/2-z
5 -x,-y,-z
6 1/2+x,y,1/2-z
7 1/2-x,1/2+y,z
8 x,1/2-y,1/2+z
_cell_length_a                   9.6198(2)
_cell_length_b                   14.8828(3)
_cell_length_c                   26.3832(5)
_cell_angle_alpha                90
_cell_angle_beta                 90
_cell_angle_gamma                90
_cell_volume                     3777.27
loop_
_atom_site_label
_atom_site_type_symbol
_atom_site_fract_x
_atom_site_fract_y
_atom_site_fract_z
C1 C 0.4763(6) -0.0824(4) 0.3594(2)
C2 C 0.5770(6) -0.0712(4) 0.3956(2)
H1 H 0.5508 -0.0670 0.4295
C3 C 0.7167(6) -0.0659(4) 0.3832(2)
C4 C 0.7566(7) -0.0749(4) 0.3322(2)
C5 C 0.6545(7) -0.0868(5) 0.2954(2)
H2 H 0.6799 -0.0933 0.2616
C6 C 0.5156(7) -0.0890(5) 0.3087(2)
H3 H 0.4481 -0.0949 0.2837
C7 C 0.8209(7) -0.0485(5) 0.4243(3)
Ag1 Ag 0.11060(6) 0.00274(5) 0.46458(2)
O1 O 0.2652(7) 0.0045(4) 0.3893(2)
O2 O 0.2922(6) -0.1362(5) 0.4227(3)
O3 O 0.2260(6) -0.1262(8) 0.3392(3)
O4 O 0.8894(5) -0.0728(4) 0.31602(17)
H4 H 0.9414 -0.0662 0.3404
O5 O 0.9453(5) -0.0388(4) 0.41178(18)
O6 O 0.7768(5) -0.0434(5) 0.46813(18)
S1 S 0.29986(17) -0.08443(13) 0.37731(6)
Ag1_2 Ag 1.11060(6) 0.00274(5) 0.46458(2)
Ag1D Ag 0.88940(6) -0.00274(5) 0.53542(2)
O5_2 O -0.0547(5) -0.0388(4) 0.41178(18)
O6D O 0.2232(5) 0.0434(5) 0.53187(18)
C8 C 0.0267(10) 0.1652(6) 0.3264(4)
H5 H -0.0372 0.2156 0.3254
H6 H -0.0281 0.1105 0.3276
C9 C 0.1136(11) 0.1653(7) 0.2787(4)
H7 H 0.1759 0.2165 0.2797
H8 H 0.1702 0.1114 0.2783
C10 C 0.0321(10) 0.1692(7) 0.2314(4)
H9 H -0.0276 0.2216 0.2326
H10 H -0.0274 0.1166 0.2298
C11 C 0.1190(12) 0.1733(7) 0.1830(4)
H11 H 0.1777 0.2262 0.1844
H12 H 0.1792 0.1210 0.1819
C12 C 0.0370(11) 0.1762(7) 0.1368(4)
H13 H -0.0237 0.2282 0.1382
H14 H -0.0214 0.1231 0.1355
C13 C 0.1235(12) 0.1809(8) 0.0878(5)
H15 H 0.2042 0.1423 0.0911
H16 H 0.1559 0.2419 0.0828
C14 C -0.089(2) 0.1946(10) 0.0275(6)
H17 H -0.1474 0.1563 0.0066
H18 H -0.1358 0.1992 0.0600
Ag2 Ag 0.00833(9) 0.19783(6) 0.44041(3)
N1 N 0.1120(8) 0.1714(5) 0.3728(3)
H19 H 0.1759 0.2148 0.3681
H20 H 0.1583 0.1192 0.3764
N2 N -0.0962(13) 0.2725(11) 0.0078(5)
H21 H -0.0659 0.3117 0.0313
H22 H -0.1867 0.2845 0.0026
C15 C 0.0274(17) 0.1479(12) 0.0361(5)
H23 H 0.0858 0.1522 0.0062
H24 H 0.0028 0.0851 0.0403
Ag2G Ag 0.00833(9) 0.30217(6) -0.05959(3)
N2G N -0.0962(13) 0.2275(11) 0.5078(5)
C16? C 0.061(3) 0.242(2) 0.0578(11)
H25? H 0.1256 0.2625 0.0322
H26? H 0.0329 0.2934 0.0779
loop_
_geom_bond_atom_site_label_1
_geom_bond_atom_site_label_2
_geom_bond_site_symmetry_1
_geom_bond_site_symmetry_2
C1 C2 1_555 1_555
C2 H1 1_555 1_555
C3 C2 1_555 1_555
C4 C3 1_555 1_555
C5 C4 1_555 1_555
H2 C5 1_555 1_555
C6 C1 1_555 1_555
H3 C6 1_555 1_555
C7 C3 1_555 1_555
Ag1 O1 1_555 1_555
O1 S1 1_555 1_555
O2 S1 1_555 1_555
O3 S1 1_555 1_555
O4 C4 1_555 1_555
H4 O4 1_555 1_555
O5 C7 1_555 1_555
O6 C7 1_555 1_555
S1 C1 1_555 1_555
C8 H5 1_555 1_555
H6 C8 1_555 1_555
C9 C8 1_555 1_555
H7 C9 1_555 1_555
H8 C9 1_555 1_555
C10 C9 1_555 1_555
H9 C10 1_555 1_555
H10 C10 1_555 1_555
C11 C10 1_555 1_555
H11 C11 1_555 1_555
H12 C11 1_555 1_555
C12 C11 1_555 1_555
H13 C12 1_555 1_555
H14 C12 1_555 1_555
C13 C12 1_555 1_555
H15 C13 1_555 1_555
H16 C13 1_555 1_555
C14 H17 1_555 1_555
H18 C14 1_555 1_555
Ag2 N1 1_555 1_555
N1 C8 1_555 1_555
H19 N1 1_555 1_555
H20 N1 1_555 1_555
N2 C14 1_555 1_555
H21 N2 1_555 1_555
H22 N2 1_555 1_555
C15 C13 1_555 1_555
H23 C15 1_555 1_555
H24 C15 1_555 1_555
Ag1_2 O5 1_555 1_555
Ag1D O6 1_555 1_555
O5_2 Ag1 1_555 1_555
O6D Ag1 1_555 1_555
Ag2G N2 1_555 1_555
N2G Ag2 1_555 1_555
C5 C6 1_555 1_555
C14 C15 1_555 1_555

#END
