
#######################################################################
#
#                 Cambridge Crystallographic Data Centre
#                                CCDC 
#
#######################################################################
#
# If this CIF has been generated from an entry in the Cambridge 
# Structural Database, then it will include bibliographic, chemical, 
# crystal, experimental, refinement or atomic coordinate data resulting 
# from the CCDC's data processing and validation procedures.
#
#######################################################################

data_HOKDIW
_symmetry_cell_setting           monoclinic
_symmetry_space_group_name_H-M   'C 2/c'
_symmetry_Int_Tables_number      15
_space_group_name_Hall           '-C 2yn'
loop_
_symmetry_equiv_pos_site_id
_symmetry_equiv_pos_as_xyz
1 x,y,z
2 -x,y,1/2-z
3 1/2+x,1/2+y,z
4 1/2-x,1/2+y,1/2-z
5 -x,-y,-z
6 x,-y,1/2+z
7 1/2-x,1/2-y,-z
8 1/2+x,1/2-y,1/2+z
_cell_length_a                   13.852(2)
_cell_length_b                   24.584(4)
_cell_length_c                   13.7932(19)
_cell_angle_alpha                90
_cell_angle_beta                 90.804(12)
_cell_angle_gamma                90
_cell_volume                     4696.64
loop_
_atom_site_label
_atom_site_type_symbol
_atom_site_fract_x
_atom_site_fract_y
_atom_site_fract_z
C1 C 0.5000 0.9298(6) 0.2500
H1 H 0.5000 0.9676 0.2500
C2 C 0.4224(8) 0.9025(4) 0.2105(8)
H2 H 0.3694 0.9210 0.1847
C3 C 0.4262(5) 0.8469(3) 0.2106(6)
C4 C 0.3475(5) 0.8083(3) 0.1769(5)
C5 C 0.3017(4) 0.7164(3) 0.1643(4)
C6 C 0.3181(5) 0.6788(3) 0.0911(5)
H3 H 0.3770 0.6782 0.0595
C7 C 0.2462(5) 0.6420(3) 0.0655(5)
H4 H 0.2548 0.6175 0.0151
C8 C 0.1599(5) 0.6429(3) 0.1177(5)
H5 H 0.1127 0.6172 0.1030
C9 C 0.2145(4) 0.7139(3) 0.2099(4)
H6 H 0.2047 0.7383 0.2603
C10 C 0.5000 0.5586(7) 0.2500
H7 H 0.5000 0.5207 0.2500
C11 C 0.4617(9) 0.5868(4) 0.3292(6)
H8 H 0.4354 0.5686 0.3817
C12 C 0.4647(6) 0.6428(4) 0.3255(5)
C13 C 0.4340(5) 0.6798(4) 0.4040(5)
C14 C 0.4148(4) 0.7729(3) 0.4472(4)
C15 C 0.3427(5) 0.8108(4) 0.4268(5)
H9 H 0.3104 0.8096 0.3673
C16 C 0.3187(5) 0.8501(3) 0.4936(5)
H10 H 0.2706 0.8753 0.4794
C17 C 0.3658(5) 0.8515(3) 0.5804(5)
H11 H 0.3491 0.8780 0.6252
C18 C 0.4606(4) 0.7778(3) 0.5367(5)
H12 H 0.5106 0.7538 0.5512
Co1 Co 0.5000 0.74457(5) 0.2500
Co2 Co 0.0000 0.68296(5) 0.2500
N1 N 0.5000 0.8195(4) 0.2500
N2 N 0.3722(4) 0.7570(2) 0.1880(4)
N3 N 0.1427(4) 0.6799(2) 0.1888(3)
N4 N 0.5000 0.6699(4) 0.2500
N5 N 0.4418(3) 0.7330(2) 0.3798(4)
N6 N 0.4376(3) 0.8150(2) 0.6042(4)
O1 O 0.2700(4) 0.8271(2) 0.1438(4)
O2 O 0.4058(4) 0.6606(2) 0.4833(4)
O3 O 0.0000 0.5959(3) 0.2500
O4 O 0.0000 0.7673(3) 0.2500
C2A C 0.5776(8) 0.9025(4) 0.2895(8)
H2A H 0.6306 0.9210 0.3153
C3A C 0.5738(5) 0.8469(3) 0.2894(6)
C4A C 0.6525(5) 0.8083(3) 0.3231(5)
C5A C 0.6983(4) 0.7164(3) 0.3357(4)
C6A C 0.6819(5) 0.6788(3) 0.4089(5)
H3A H 0.6230 0.6782 0.4405
C7A C 0.7538(5) 0.6420(3) 0.4345(5)
H4A H 0.7452 0.6175 0.4849
C8A C 0.8401(5) 0.6429(3) 0.3823(5)
H5A H 0.8873 0.6172 0.3970
C9A C 0.7855(4) 0.7139(3) 0.2901(4)
H6A H 0.7953 0.7383 0.2397
N2A N 0.6278(4) 0.7570(2) 0.3120(4)
N3A N 0.8573(4) 0.6799(2) 0.3112(3)
O1A O 0.7300(4) 0.8271(2) 0.3562(4)
C14A C 0.5852(4) 0.7729(3) 0.0528(4)
C15A C 0.6573(5) 0.8108(4) 0.0732(5)
H9A H 0.6896 0.8096 0.1327
C16A C 0.6813(5) 0.8501(3) 0.0064(5)
H10A H 0.7294 0.8753 0.0206
C17A C 0.6342(5) 0.8515(3) -0.0804(5)
H11A H 0.6509 0.8780 -0.1252
C18A C 0.5394(4) 0.7778(3) -0.0367(5)
H12A H 0.4894 0.7538 -0.0512
N5A N 0.5582(3) 0.7330(2) 0.1202(4)
C11A C 0.5383(9) 0.5868(4) 0.1708(6)
H8A H 0.5646 0.5686 0.1183
C12A C 0.5353(6) 0.6428(4) 0.1745(5)
C13A C 0.5660(5) 0.6798(4) 0.0960(5)
O2A O 0.5942(4) 0.6606(2) 0.0167(4)
N6A N 0.5624(3) 0.8150(2) -0.1042(4)
Co2_2 Co 1.0000 0.68296(5) 0.2500
Co2F Co 0.5000 0.81704(5) -0.2500
Co2F_2 Co 0.5000 0.81704(5) 0.7500
N3A_2 N -0.1427(4) 0.6799(2) 0.3112(3)
N6F N 0.0624(3) 0.6850(2) 0.3958(4)
N6G N -0.0624(3) 0.6850(2) 0.1042(4)
loop_
_geom_bond_atom_site_label_1
_geom_bond_atom_site_label_2
_geom_bond_site_symmetry_1
_geom_bond_site_symmetry_2
C1 H1 1_555 1_555
C2 C1 1_555 1_555
H2 C2 1_555 1_555
C3 C2 1_555 1_555
C4 C3 1_555 1_555
C5 C6 1_555 1_555
C6 H3 1_555 1_555
C7 C6 1_555 1_555
H4 C7 1_555 1_555
C8 C7 1_555 1_555
H5 C8 1_555 1_555
C9 C5 1_555 1_555
H6 C9 1_555 1_555
C10 H7 1_555 1_555
C11 C10 1_555 1_555
H8 C11 1_555 1_555
C12 C11 1_555 1_555
C13 C12 1_555 1_555
C14 C15 1_555 1_555
C15 H9 1_555 1_555
C16 C15 1_555 1_555
H10 C16 1_555 1_555
C17 C16 1_555 1_555
H11 C17 1_555 1_555
C18 C14 1_555 1_555
H12 C18 1_555 1_555
Co1 N1 1_555 1_555
Co2 N3 1_555 1_555
N1 C3 1_555 1_555
N2 C4 1_555 1_555
N3 C8 1_555 1_555
N4 C12 1_555 1_555
N5 C13 1_555 1_555
N6 C17 1_555 1_555
O1 C4 1_555 1_555
O2 C13 1_555 1_555
O3 Co2 1_555 1_555
O4 Co2 1_555 1_555
C2A C1 1_555 1_555
H2A C2A 1_555 1_555
C3A N1 1_555 1_555
C4A C3A 1_555 1_555
C5A C6A 1_555 1_555
C6A H3A 1_555 1_555
C7A C6A 1_555 1_555
H4A C7A 1_555 1_555
C8A C7A 1_555 1_555
H5A C8A 1_555 1_555
C9A C5A 1_555 1_555
H6A C9A 1_555 1_555
N2A Co1 1_555 1_555
N3A C8A 1_555 1_555
O1A C4A 1_555 1_555
C14A C15A 1_555 1_555
C15A H9A 1_555 1_555
C16A C15A 1_555 1_555
H10A C16A 1_555 1_555
C17A C16A 1_555 1_555
H11A C17A 1_555 1_555
C18A C14A 1_555 1_555
H12A C18A 1_555 1_555
N5A Co1 1_555 1_555
C11A C10 1_555 1_555
H8A C11A 1_555 1_555
C12A N4 1_555 1_555
C13A N5A 1_555 1_555
O2A C13A 1_555 1_555
N6A C17A 1_555 1_555
Co2_2 N3A 1_555 1_555
Co2F N6A 1_555 1_555
Co2F_2 N6 1_555 1_555
N3A_2 Co2 1_555 1_555
N6F Co2 1_555 1_555
N6G Co2 1_555 1_555
C5 N2 1_555 1_555
C9 N3 1_555 1_555
C14 N5 1_555 1_555
C18 N6 1_555 1_555
Co1 N2 1_555 1_555
Co1 N4 1_555 1_555
Co1 N5 1_555 1_555
C2A C3A 1_555 1_555
C4A N2A 1_555 1_555
C5A N2A 1_555 1_555
C9A N3A 1_555 1_555
C14A N5A 1_555 1_555
C18A N6A 1_555 1_555
C11A C12A 1_555 1_555
C12A C13A 1_555 1_555

#END
