
#######################################################################
#
#                 Cambridge Crystallographic Data Centre
#                                CCDC 
#
#######################################################################
#
# If this CIF has been generated from an entry in the Cambridge 
# Structural Database, then it will include bibliographic, chemical, 
# crystal, experimental, refinement or atomic coordinate data resulting 
# from the CCDC's data processing and validation procedures.
#
#######################################################################

data_HOKKOJ
_symmetry_cell_setting           monoclinic
_symmetry_space_group_name_H-M   'C 2/c'
_symmetry_Int_Tables_number      15
_space_group_name_Hall           '-C 2yn'
loop_
_symmetry_equiv_pos_site_id
_symmetry_equiv_pos_as_xyz
1 x,y,z
2 -x,y,1/2-z
3 1/2+x,1/2+y,z
4 1/2-x,1/2+y,1/2-z
5 -x,-y,-z
6 x,-y,1/2+z
7 1/2-x,1/2-y,-z
8 1/2+x,1/2-y,1/2+z
_cell_length_a                   17.035(3)
_cell_length_b                   10.172(2)
_cell_length_c                   19.396(4)
_cell_angle_alpha                90
_cell_angle_beta                 113.62(3)
_cell_angle_gamma                90
_cell_volume                     3079.37
loop_
_atom_site_label
_atom_site_type_symbol
_atom_site_fract_x
_atom_site_fract_y
_atom_site_fract_z
N1 N 0.47248(14) -0.1264(2) 0.07640(12)
C1 C 0.53272(18) -0.1665(3) 0.05308(15)
C2 C 0.60638(17) -0.0948(3) 0.06551(15)
C3 C 0.61917(17) 0.0237(3) 0.10406(14)
C4 C 0.69586(17) 0.1038(3) 0.11565(14)
Cu1 Cu 0.85899(2) 0.28943(3) 0.042154(17)
O1 O 0.91256(13) -0.1461(2) 0.40424(11)
N2 N 0.72038(14) 0.1415(2) 0.06312(12)
O2 O 0.61717(15) 0.3812(2) 0.33156(12)
H1 H 0.5868 0.4246 0.3468
O3 O 0.63617(15) 0.2563(2) 0.43200(12)
O4 O 0.86384(13) -0.0952(2) 0.49183(10)
N3 N 0.79614(14) 0.2130(2) 0.09813(13)
N4 N 0.75257(14) 0.1487(2) 0.18397(12)
C5 C 0.55787(17) 0.0651(3) 0.12840(14)
H2 H 0.5647 0.1438 0.1545
H3 H 0.5248 -0.2457 0.0276
C6 C 0.80576(17) 0.0361(3) 0.30457(15)
H4 H 0.8407 -0.0149 0.2887
C7 C 0.64861(19) 0.2792(3) 0.37636(16)
C8 C 0.70133(18) 0.2098(3) 0.27919(15)
H5 H 0.6670 0.2738 0.2468
C9 C 0.80693(18) 0.0195(3) 0.37650(15)
C10 C 0.75203(17) 0.1293(3) 0.25742(14)
C11 C 0.48632(18) -0.0112(3) 0.11370(15)
H6 H 0.4453 0.0182 0.1304
H7 H 0.6472 -0.1261 0.0487
C12 C 0.81371(18) 0.2154(3) 0.17050(15)
C13 C 0.75477(18) 0.0973(3) 0.39881(15)
H8 H 0.7546 0.0854 0.4463
C14 C 0.88836(19) 0.2795(3) 0.22973(17)
H9 H 0.9226 0.3217 0.2072
H10 H 0.9221 0.2145 0.2651
H11 H 0.8687 0.3439 0.2554
C15 C 0.86625(18) -0.0823(3) 0.42840(15)
C16 C 0.70262(18) 0.1931(3) 0.35140(16)
N1B N 0.97248(14) 0.3736(2) 0.07640(12)
Cu1B Cu 0.35899(2) -0.21057(3) 0.042154(17)
Cu1E Cu 0.85899(2) -0.28943(3) 0.542154(17)
Cu1F Cu 0.64101(2) 0.21057(3) -0.042154(17)
N2F N 0.77962(14) 0.3585(2) -0.06312(12)
O4E O 0.86384(13) 0.0952(2) -0.00817(10)
O5 O 0.48105(13) 0.4817(2) 0.62796(11)
H12 H 0.4952 0.4153 0.6570
H13 H 0.4463 0.4581 0.5844
loop_
_geom_bond_atom_site_label_1
_geom_bond_atom_site_label_2
_geom_bond_site_symmetry_1
_geom_bond_site_symmetry_2
N1 C1 1_555 1_555
C1 C2 1_555 1_555
C2 C3 1_555 1_555
C3 C4 1_555 1_555
C4 N2 1_555 1_555
Cu1 N3 1_555 1_555
O1 C15 1_555 1_555
N2 N3 1_555 1_555
O2 H1 1_555 1_555
O3 C7 1_555 1_555
O4 C15 1_555 1_555
N3 C12 1_555 1_555
N4 C4 1_555 1_555
C5 C3 1_555 1_555
H2 C5 1_555 1_555
H3 C1 1_555 1_555
C6 H4 1_555 1_555
C7 O2 1_555 1_555
C8 H5 1_555 1_555
C9 C6 1_555 1_555
C10 N4 1_555 1_555
C11 N1 1_555 1_555
H6 C11 1_555 1_555
H7 C2 1_555 1_555
C12 N4 1_555 1_555
C13 C9 1_555 1_555
H8 C13 1_555 1_555
C14 C12 1_555 1_555
H9 C14 1_555 1_555
H10 C14 1_555 1_555
H11 C14 1_555 1_555
C15 C9 1_555 1_555
C16 C7 1_555 1_555
O5 H12 1_555 1_555
H13 O5 1_555 1_555
N1B Cu1 1_555 1_555
Cu1B N1 1_555 1_555
Cu1E O4 1_555 1_555
Cu1F N2 1_555 1_555
N2F Cu1 1_555 1_555
O4E Cu1 1_555 1_555
C5 C11 1_555 1_555
C6 C10 1_555 1_555
C8 C10 1_555 1_555
C8 C16 1_555 1_555
C13 C16 1_555 1_555

#END
