
#######################################################################
#
#                 Cambridge Crystallographic Data Centre
#                                CCDC 
#
#######################################################################
#
# If this CIF has been generated from an entry in the Cambridge 
# Structural Database, then it will include bibliographic, chemical, 
# crystal, experimental, refinement or atomic coordinate data resulting 
# from the CCDC's data processing and validation procedures.
#
#######################################################################

data_HOKNAW
_symmetry_cell_setting           monoclinic
_symmetry_space_group_name_H-M   'P 21/n'
_symmetry_Int_Tables_number      14
_space_group_name_Hall           '-P 2yn'
loop_
_symmetry_equiv_pos_site_id
_symmetry_equiv_pos_as_xyz
1 x,y,z
2 1/2+x,1/2-y,1/2+z
3 -x,-y,-z
4 1/2-x,1/2+y,1/2-z
_cell_length_a                   5.9083(13)
_cell_length_b                   6.7877(18)
_cell_length_c                   27.93(1)
_cell_angle_alpha                90
_cell_angle_beta                 92.42(2)
_cell_angle_gamma                90
_cell_volume                     1119.1
loop_
_atom_site_label
_atom_site_type_symbol
_atom_site_fract_x
_atom_site_fract_y
_atom_site_fract_z
Ca1 Ca -0.1777(6) 0.0150(7) -0.28171(12)
O1 O 0.0978(18) 0.018(2) -0.3393(4)
O2 O 0.443(2) 0.039(2) -0.3084(4)
O3 O -0.339(2) -0.1462(19) -0.2086(4)
O4 O -0.288(3) 0.175(2) -0.2029(5)
O5 O 0.153(2) -0.0655(19) -0.2326(5)
C1 C 0.304(3) 0.014(4) -0.3441(6)
C2 C 0.410(6) -0.078(5) -0.3864(13)
C3 C 0.246(8) -0.094(7) -0.4246(9)
C4 C 0.228(11) 0.046(9) -0.4572(18)
C5 C -0.345(3) 0.019(4) -0.1852(5)
C6 C -0.472(5) 0.024(6) -0.1395(11)
C7 C -0.358(9) -0.099(6) -0.1048(8)
C8 C -0.328(11) -0.034(9) -0.0570(14)
O2_2 O -0.557(2) 0.039(2) -0.3084(4)
Ca1_2 Ca 0.8223(6) 0.0150(7) -0.28171(12)
Ca1C Ca -0.3223(6) -0.4850(7) -0.21829(12)
O4C O -0.212(3) -0.325(2) -0.2971(5)
Ca1C_2 Ca -0.3223(6) 0.5150(7) -0.21829(12)
O3C O -0.161(2) 0.3538(19) -0.2914(4)
loop_
_geom_bond_atom_site_label_1
_geom_bond_atom_site_label_2
_geom_bond_site_symmetry_1
_geom_bond_site_symmetry_2
Ca1 O1 1_555 1_555
O1 C1 1_555 1_555
O2 C1 1_555 1_555
O3 Ca1 1_555 1_555
O4 Ca1 1_555 1_555
O5 Ca1 1_555 1_555
C1 C2 1_555 1_555
C2 C3 1_555 1_555
C3 C4 1_555 1_555
C5 O3 1_555 1_555
C6 C5 1_555 1_555
C7 C6 1_555 1_555
C8 C7 1_555 1_555
O2_2 Ca1 1_555 1_555
Ca1_2 O2 1_555 1_555
Ca1C O3 1_555 1_555
O4C Ca1 1_555 1_555
Ca1C_2 O4 1_555 1_555
O3C Ca1 1_555 1_555
O4 C5 1_555 1_555
Ca1C O4C 1_555 1_555
Ca1C_2 O3C 1_555 1_555

#END
