
#######################################################################
#
#                 Cambridge Crystallographic Data Centre
#                                CCDC 
#
#######################################################################
#
# If this CIF has been generated from an entry in the Cambridge 
# Structural Database, then it will include bibliographic, chemical, 
# crystal, experimental, refinement or atomic coordinate data resulting 
# from the CCDC's data processing and validation procedures.
#
#######################################################################

data_HOKVUA
_symmetry_cell_setting           monoclinic
_symmetry_space_group_name_H-M   'P 21'
_symmetry_Int_Tables_number      4
_space_group_name_Hall           'P 2yb'
loop_
_symmetry_equiv_pos_site_id
_symmetry_equiv_pos_as_xyz
1 x,y,z
2 -x,1/2+y,-z
_cell_length_a                   11.7091(18)
_cell_length_b                   15.066(2)
_cell_length_c                   13.811(2)
_cell_angle_alpha                90
_cell_angle_beta                 96.441(4)
_cell_angle_gamma                90
_cell_volume                     2421.01
loop_
_atom_site_label
_atom_site_type_symbol
_atom_site_fract_x
_atom_site_fract_y
_atom_site_fract_z
Ag1 Ag 1.00049(8) 0.05151(6) -0.00144(7)
Ag2 Ag 0.79010(8) 0.18367(6) -0.04632(6)
Ag3 Ag 1.00927(7) 0.17311(6) -0.17048(7)
Ag4 Ag 1.15723(8) -0.12046(6) -0.01656(7)
Ag5 Ag 0.94644(9) -0.12151(6) 0.12100(7)
I1 I 1.03477(6) 0.24924(4) 0.03768(5)
I2 I 1.07720(7) -0.00807(5) -0.17721(5)
I3 I 1.15318(6) -0.02191(5) 0.15820(5)
I4 I 0.78263(6) 0.02299(5) 0.06384(5)
I5 I 0.63010(6) 0.30101(5) 0.02477(5)
I6 I 0.78133(6) 0.19403(5) -0.24843(5)
I7 I 0.85043(6) -0.21468(5) 0.26524(5)
Ag3A Ag 0.99073(7) -0.32689(6) 0.17048(7)
Ag4A Ag 0.84277(8) 0.37954(6) 0.01656(7)
Ag5A Ag 1.05356(9) 0.37849(6) -0.12100(7)
I1A I 0.96523(6) -0.25076(4) -0.03768(5)
I5A I 1.36990(6) -0.19899(5) -0.02477(5)
I7A I 1.14957(6) 0.28532(5) -0.26524(5)
Mn1 Mn 0.44373(11) 0.22606(10) 0.38633(10)
N1 N 0.2468(6) 0.2272(5) 0.3843(5)
N2 N -0.3599(6) 0.2363(6) 0.3814(5)
N3 N 0.4135(9) 0.4484(7) 0.2345(8)
N4 N 0.4829(6) 0.3034(6) 0.6908(5)
N5 N 0.3912(7) 0.1480(6) 0.0846(6)
O1 O 0.4360(6) 0.3705(5) 0.3745(6)
O2 O 0.4588(5) 0.2404(5) 0.5419(5)
O3 O 0.4216(6) 0.2134(6) 0.2312(5)
O4 O 0.4637(5) 0.0844(4) 0.4065(5)
H1 H 0.5299 0.0647 0.4099
H2 H 0.4350 0.0707 0.4565
C1 C 0.1962(8) 0.2750(7) 0.4499(7)
H3 H 0.2435 0.3056 0.4984
C2 C 0.0784(8) 0.2816(7) 0.4497(7)
H4 H 0.0475 0.3164 0.4969
C3 C 0.0065(7) 0.2371(6) 0.3804(6)
C4 C 0.0590(7) 0.1885(7) 0.3124(6)
H5 H 0.0139 0.1585 0.2620
C5 C 0.1778(7) 0.1839(7) 0.3184(7)
H6 H 0.2109 0.1482 0.2733
C6 C -0.1196(7) 0.2400(6) 0.3784(6)
C7 C -0.1946(8) 0.2419(7) 0.2930(7)
H7 H -0.1661 0.2441 0.2320
C8 C -0.3098(7) 0.2404(7) 0.2989(7)
H8 H -0.3585 0.2424 0.2400
C9 C -0.2874(7) 0.2355(6) 0.4645(7)
H9 H -0.3189 0.2336 0.5242
C10 C -0.1697(7) 0.2374(6) 0.4665(6)
H10 H -0.1228 0.2368 0.5264
C11 C 0.4753(10) 0.4156(7) 0.3137(9)
H11 H 0.5544 0.4284 0.3228
C12 C 0.2914(11) 0.4293(8) 0.2166(9)
H12 H 0.2713 0.4160 0.1480
H13 H 0.2480 0.4804 0.2343
H14 H 0.2734 0.3786 0.2554
C13 C 0.4677(11) 0.4986(8) 0.1639(9)
H15 H 0.5481 0.5076 0.1873
H16 H 0.4298 0.5556 0.1539
H17 H 0.4617 0.4663 0.1027
C14 C 0.4766(7) 0.3062(7) 0.5949(7)
H18 H 0.4863 0.3614 0.5651
C15 C 0.4672(9) 0.2200(7) 0.7407(8)
H19 H 0.3895 0.2169 0.7584
H20 H 0.5214 0.2167 0.7991
H21 H 0.4803 0.1709 0.6979
C16 C 0.5045(11) 0.3834(8) 0.7513(8)
H22 H 0.5161 0.4338 0.7099
H23 H 0.5726 0.3745 0.7970
H24 H 0.4390 0.3945 0.7868
C17 C 0.3807(11) 0.2118(10) 0.1464(10)
H25 H 0.3372 0.2614 0.1232
C18 C 0.4568(11) 0.0724(10) 0.1058(10)
H26 H 0.5292 0.0781 0.0785
H27 H 0.4155 0.0210 0.0779
H28 H 0.4714 0.0653 0.1759
C19 C 0.3419(11) 0.1518(10) -0.0161(9)
H29 H 0.2871 0.2002 -0.0246
H30 H 0.3032 0.0963 -0.0338
H31 H 0.4025 0.1615 -0.0575
Mn1_2 Mn -0.55627(11) 0.22606(10) 0.38633(10)
N2_2 N 0.6401(6) 0.2363(6) 0.3814(5)
N6 N -0.2918(9) 0.5069(8) 0.4988(8)
N7 N 0.3163(7) 0.5207(6) 0.5582(6)
C20 C -0.2326(10) 0.5542(8) 0.4414(9)
H32 H -0.2746 0.5886 0.3930
C21 C -0.1151(9) 0.5576(8) 0.4463(8)
H33 H -0.0788 0.5944 0.4040
C22 C -0.0511(8) 0.5054(6) 0.5151(7)
C23 C -0.1118(8) 0.4516(7) 0.5736(7)
H34 H -0.0726 0.4129 0.6193
C24 C -0.2290(9) 0.4559(8) 0.5632(8)
H35 H -0.2682 0.4202 0.6045
C25 C 0.0763(8) 0.5103(6) 0.5287(7)
C26 C 0.1402(8) 0.5170(7) 0.4496(7)
H36 H 0.1034 0.5184 0.3855
C27 C 0.2608(8) 0.5216(7) 0.4675(8)
H37 H 0.3040 0.5253 0.4143
C28 C 0.2534(8) 0.5138(7) 0.6333(8)
H38 H 0.2914 0.5137 0.6969
C29 C 0.1346(9) 0.5069(7) 0.6209(7)
H39 H 0.0939 0.5000 0.6753
loop_
_geom_bond_atom_site_label_1
_geom_bond_atom_site_label_2
_geom_bond_site_symmetry_1
_geom_bond_site_symmetry_2
Ag1 I1 1_555 1_555
Ag2 I1 1_555 1_555
Ag3 I1 1_555 1_555
Ag4 I2 1_555 1_555
Ag5 I3 1_555 1_555
I1 Ag4A 1_555 1_555
I2 Ag1 1_555 1_555
I3 Ag1 1_555 1_555
I4 Ag1 1_555 1_555
I5 Ag2 1_555 1_555
I6 Ag2 1_555 1_555
I7 Ag5 1_555 1_555
Mn1 N1 1_555 1_555
N1 C1 1_555 1_555
N2 C8 1_555 1_555
N3 C11 1_555 1_555
N4 C14 1_555 1_555
N5 C17 1_555 1_555
O1 Mn1 1_555 1_555
O2 Mn1 1_555 1_555
O3 Mn1 1_555 1_555
O4 Mn1 1_555 1_555
H1 O4 1_555 1_555
H2 O4 1_555 1_555
C1 H3 1_555 1_555
C2 C1 1_555 1_555
H4 C2 1_555 1_555
C3 C2 1_555 1_555
C4 C3 1_555 1_555
H5 C4 1_555 1_555
C5 N1 1_555 1_555
H6 C5 1_555 1_555
C6 C3 1_555 1_555
C7 C6 1_555 1_555
H7 C7 1_555 1_555
C8 C7 1_555 1_555
H8 C8 1_555 1_555
C9 N2 1_555 1_555
H9 C9 1_555 1_555
C10 C6 1_555 1_555
H10 C10 1_555 1_555
C11 O1 1_555 1_555
H11 C11 1_555 1_555
C12 N3 1_555 1_555
H12 C12 1_555 1_555
H13 C12 1_555 1_555
H14 C12 1_555 1_555
C13 N3 1_555 1_555
H15 C13 1_555 1_555
H16 C13 1_555 1_555
H17 C13 1_555 1_555
C14 O2 1_555 1_555
H18 C14 1_555 1_555
C15 N4 1_555 1_555
H19 C15 1_555 1_555
H20 C15 1_555 1_555
H21 C15 1_555 1_555
C16 N4 1_555 1_555
H22 C16 1_555 1_555
H23 C16 1_555 1_555
H24 C16 1_555 1_555
C17 O3 1_555 1_555
H25 C17 1_555 1_555
C18 N5 1_555 1_555
H26 C18 1_555 1_555
H27 C18 1_555 1_555
H28 C18 1_555 1_555
C19 N5 1_555 1_555
H29 C19 1_555 1_555
H30 C19 1_555 1_555
H31 C19 1_555 1_555
N6 C20 1_555 1_555
N7 C27 1_555 1_555
C20 H32 1_555 1_555
C21 C20 1_555 1_555
H33 C21 1_555 1_555
C22 C21 1_555 1_555
C23 C22 1_555 1_555
H34 C23 1_555 1_555
C24 N6 1_555 1_555
H35 C24 1_555 1_555
C25 C22 1_555 1_555
C26 C25 1_555 1_555
H36 C26 1_555 1_555
C27 C26 1_555 1_555
H37 C27 1_555 1_555
C28 N7 1_555 1_555
H38 C28 1_555 1_555
C29 C25 1_555 1_555
H39 C29 1_555 1_555
Ag3A I7 1_555 1_555
Ag4A I5 1_555 1_555
Ag5A I1 1_555 1_555
I1A Ag4 1_555 1_555
I5A Ag4 1_555 1_555
I7A Ag3 1_555 1_555
Mn1_2 N2 1_555 1_555
N2_2 Mn1 1_555 1_555
Ag2 I4 1_555 1_555
Ag3 I2 1_555 1_555
Ag3 I6 1_555 1_555
Ag4 I3 1_555 1_555
Ag5 I4 1_555 1_555
Ag5 I1A 1_555 1_555
C4 C5 1_555 1_555
C9 C10 1_555 1_555
C23 C24 1_555 1_555
C28 C29 1_555 1_555
Ag3A I1A 1_555 1_555
Ag5A I7A 1_555 1_555

#END
