
#######################################################################
#
#                 Cambridge Crystallographic Data Centre
#                                CCDC 
#
#######################################################################
#
# If this CIF has been generated from an entry in the Cambridge 
# Structural Database, then it will include bibliographic, chemical, 
# crystal, experimental, refinement or atomic coordinate data resulting 
# from the CCDC's data processing and validation procedures.
#
#######################################################################

data_HOKWAH
_symmetry_cell_setting           monoclinic
_symmetry_space_group_name_H-M   'P 21/n'
_symmetry_Int_Tables_number      14
_space_group_name_Hall           '-P 2yn'
loop_
_symmetry_equiv_pos_site_id
_symmetry_equiv_pos_as_xyz
1 x,y,z
2 1/2-x,1/2+y,1/2-z
3 -x,-y,-z
4 1/2+x,1/2-y,1/2+z
_cell_length_a                   8.2323(12)
_cell_length_b                   34.488(5)
_cell_length_c                   15.856(2)
_cell_angle_alpha                90
_cell_angle_beta                 94.218(4)
_cell_angle_gamma                90
_cell_volume                     4489.57
loop_
_atom_site_label
_atom_site_type_symbol
_atom_site_fract_x
_atom_site_fract_y
_atom_site_fract_z
Ag1 Ag 0.5939(3) 0.32674(8) 0.77996(16)
Ag2 Ag 0.1880(3) 0.33407(8) 0.77845(16)
Ag3 Ag 0.1793(3) 0.42358(8) 0.71442(15)
Ag4 Ag 0.5803(3) 0.42408(8) 0.71382(14)
Ag5 Ag 0.4253(2) 0.45144(6) 0.86594(12)
I1 I 0.37710(15) 0.36426(4) 0.63829(8)
I2 I 0.3838(2) 0.28006(5) 0.86705(10)
I3 I -0.11718(18) 0.30458(5) 0.69853(9)
I4 I 0.15732(15) 0.40100(5) 0.89051(8)
I5 I 0.37868(17) 0.49298(4) 0.71255(8)
I6 I 0.86354(17) 0.43355(5) 0.62420(9)
I7 I 0.67590(15) 0.39360(4) 0.88665(8)
I8 I 0.5000 0.5000 1.0000
Ag6 Ag 0.8967(4) 0.38090(10) 0.76164(18)
Mn1 Mn 0.8768(3) 0.63605(7) 0.73157(14)
N1 N 0.9914(19) 0.6762(4) 0.8334(8)
N2 N 1.2849(15) 0.8140(4) 1.1418(9)
C1 C 1.028(2) 0.7120(6) 0.8143(12)
H1 H 1.0094 0.7197 0.7582
C2 C 1.094(2) 0.7396(5) 0.8732(12)
H2 H 1.1295 0.7636 0.8552
C3 C 1.104(2) 0.7304(5) 0.9566(9)
C4 C 1.071(2) 0.6922(6) 0.9775(10)
H3 H 1.0794 0.6844 1.0338
C5 C 1.026(3) 0.6671(5) 0.9172(14)
H4 H 1.0170 0.6412 0.9327
C6 C 1.333(2) 0.8148(5) 1.0627(11)
H5 H 1.4048 0.8341 1.0483
C7 C 1.2797(19) 0.7877(5) 1.0014(10)
H6 H 1.3177 0.7887 0.9476
C8 C 1.167(2) 0.7588(5) 1.0220(9)
C9 C 1.125(2) 0.7593(6) 1.1022(12)
H7 H 1.0557 0.7401 1.1200
C10 C 1.182(2) 0.7879(5) 1.1597(10)
H8 H 1.1430 0.7879 1.2134
O1 O 0.6459(18) 0.6426(5) 0.7884(7)
O2 O 1.0931(13) 0.6355(4) 0.6588(8)
O3 O 0.7752(15) 0.5943(3) 0.6439(7)
O4 O 0.963(2) 0.5906(4) 0.8118(9)
S1 S 0.6055(7) 0.6379(3) 0.8770(3)
S2 S 1.2647(6) 0.6493(2) 0.6525(4)
S3 S 0.8382(8) 0.57821(18) 0.5640(3)
S4 S 0.9841(11) 0.5490(3) 0.8163(5)
C11 C 0.431(4) 0.6095(10) 0.873(2)
H9 H 0.3871 0.6073 0.8151
H10 H 0.3516 0.6213 0.9060
H11 H 0.4575 0.5841 0.8946
C12 C 0.527(5) 0.6828(6) 0.900(3)
H12 H 0.4977 0.6965 0.8489
H13 H 0.6078 0.6974 0.9339
H14 H 0.4324 0.6795 0.9316
C13 C 1.382(3) 0.6077(7) 0.634(2)
H15 H 1.4074 0.5943 0.6859
H16 H 1.4804 0.6153 0.6096
H17 H 1.3202 0.5908 0.5949
C14 C 1.270(4) 0.6699(8) 0.5503(13)
H18 H 1.2117 0.6535 0.5096
H19 H 1.3808 0.6724 0.5363
H20 H 1.2196 0.6951 0.5496
C15 C 0.684(2) 0.5447(6) 0.5272(13)
C16 C 0.988(2) 0.5437(7) 0.5955(15)
C17 C 0.826(4) 0.5158(8) 0.815(2)
C18 C 1.080(3) 0.5376(9) 0.9163(15)
Mn1C Mn 1.3768(3) 0.86395(7) 1.23157(14)
N2C N 0.7849(15) 0.6860(4) 0.6418(9)
S5? S 0.787(2) 0.5527(5) 0.6247(12)
S6? S 0.9023(14) 0.5580(4) 0.8618(8)
loop_
_geom_bond_atom_site_label_1
_geom_bond_atom_site_label_2
_geom_bond_site_symmetry_1
_geom_bond_site_symmetry_2
Mn1 N1 1_555 1_555
N1 C1 1_555 1_555
N2 C6 1_555 1_555
C1 H1 1_555 1_555
C2 C1 1_555 1_555
H2 C2 1_555 1_555
C3 C2 1_555 1_555
C4 C3 1_555 1_555
H3 C4 1_555 1_555
C5 N1 1_555 1_555
H4 C5 1_555 1_555
C6 H5 1_555 1_555
C7 C6 1_555 1_555
H6 C7 1_555 1_555
C8 C3 1_555 1_555
C9 C8 1_555 1_555
H7 C9 1_555 1_555
C10 N2 1_555 1_555
H8 C10 1_555 1_555
O1 Mn1 1_555 1_555
O2 Mn1 1_555 1_555
O3 Mn1 1_555 1_555
O4 Mn1 1_555 1_555
S1 O1 1_555 1_555
S2 O2 1_555 1_555
S3 O3 1_555 1_555
S4 O4 1_555 1_555
C11 S1 1_555 1_555
H9 C11 1_555 1_555
H10 C11 1_555 1_555
H11 C11 1_555 1_555
C12 S1 1_555 1_555
H12 C12 1_555 1_555
H13 C12 1_555 1_555
H14 C12 1_555 1_555
C13 S2 1_555 1_555
H15 C13 1_555 1_555
H16 C13 1_555 1_555
H17 C13 1_555 1_555
C14 S2 1_555 1_555
H18 C14 1_555 1_555
H19 C14 1_555 1_555
H20 C14 1_555 1_555
C15 S3 1_555 1_555
C16 S3 1_555 1_555
C17 S4 1_555 1_555
C18 S4 1_555 1_555
Mn1C N2 1_555 1_555
N2C Mn1 1_555 1_555
C4 C5 1_555 1_555
C7 C8 1_555 1_555
C9 C10 1_555 1_555

#END
