
#######################################################################
#
#                 Cambridge Crystallographic Data Centre
#                                CCDC 
#
#######################################################################
#
# If this CIF has been generated from an entry in the Cambridge 
# Structural Database, then it will include bibliographic, chemical, 
# crystal, experimental, refinement or atomic coordinate data resulting 
# from the CCDC's data processing and validation procedures.
#
#######################################################################

data_HOKWEL
_symmetry_cell_setting           monoclinic
_symmetry_space_group_name_H-M   'P 21/c'
_symmetry_Int_Tables_number      14
_space_group_name_Hall           '-P 2ybc'
loop_
_symmetry_equiv_pos_site_id
_symmetry_equiv_pos_as_xyz
1 x,y,z
2 -x,1/2+y,1/2-z
3 -x,-y,-z
4 x,1/2-y,1/2+z
_cell_length_a                   16.3520(11)
_cell_length_b                   7.8920(5)
_cell_length_c                   27.221(2)
_cell_angle_alpha                90
_cell_angle_beta                 100.299(2)
_cell_angle_gamma                90
_cell_volume                     3456.27
loop_
_atom_site_label
_atom_site_type_symbol
_atom_site_fract_x
_atom_site_fract_y
_atom_site_fract_z
Ag1 Ag 1.06947(5) 0.60169(10) 0.66713(3)
Ag2 Ag 0.87729(5) 0.60305(10) 0.66601(3)
Ag3 Ag 0.85234(5) 0.59874(10) 0.78887(3)
Ag4 Ag 1.03445(5) 0.61429(10) 0.85238(3)
Ag5 Ag 0.83330(5) 0.10074(10) 0.71950(3)
I1 I 0.99780(3) 0.46291(6) 0.75046(2)
I2 I 0.95188(4) 0.79080(7) 0.59808(2)
I3 I 0.75722(4) 0.77727(7) 0.70833(3)
I4 I 0.81124(4) 0.28574(7) 0.63037(2)
I5 I 0.89531(4) 0.78710(7) 0.87762(3)
I6 I 0.77938(4) 0.27543(7) 0.79778(3)
Ag1A Ag 0.93053(5) 0.10169(10) 0.83287(3)
Ag1A_2 Ag 0.93053(5) 1.10169(10) 0.83287(3)
Ag4A Ag 0.96555(5) 0.11429(10) 0.64762(3)
Ag4A_2 Ag 0.96555(5) 1.11429(10) 0.64762(3)
Ag5_2 Ag 0.83330(5) 1.10074(10) 0.71950(3)
Ag5A Ag 1.16670(5) 0.60074(10) 0.78050(3)
I1A I 1.00220(3) -0.03709(6) 0.74954(2)
I2A I 1.04812(4) 0.29080(7) 0.90192(2)
I3_2 I 0.75722(4) -0.22273(7) 0.70833(3)
I4A I 1.18876(4) 0.78574(7) 0.86963(2)
I5A I 1.10469(4) 0.28710(7) 0.62238(3)
I6A I 1.22062(4) 0.77543(7) 0.70222(3)
Mn1 Mn 0.5000 0.5000 0.5000
N1 N 0.4975(4) 0.5043(9) 0.4147(3)
N2 N 0.4766(5) 0.4606(10) 0.1523(3)
O1 O 0.5975(4) 0.6831(7) 0.5068(2)
O2 O 0.4138(3) 0.7119(7) 0.4924(2)
H1 H 0.4280 0.7793 0.5158
H2 H 0.3629 0.7008 0.4908
S1 S 0.68602(15) 0.7007(3) 0.53563(10)
C1 C 0.4299(5) 0.5504(12) 0.3825(4)
H3 H 0.3838 0.5904 0.3954
C2 C 0.4239(5) 0.5426(11) 0.3316(4)
H4 H 0.3742 0.5746 0.3106
C3 C 0.4910(5) 0.4879(11) 0.3112(3)
C4 C 0.5610(6) 0.4417(13) 0.3447(4)
H5 H 0.6082 0.4033 0.3328
C5 C 0.5625(6) 0.4512(13) 0.3948(4)
H6 H 0.6114 0.4191 0.4165
C6 C 0.4862(5) 0.4752(10) 0.2564(3)
C7 C 0.5558(6) 0.4928(14) 0.2342(4)
H7 H 0.6086 0.5101 0.2539
C8 C 0.5464(7) 0.4846(14) 0.1833(4)
H8 H 0.5946 0.4974 0.1693
C9 C 0.4109(6) 0.4388(13) 0.1736(4)
H9 H 0.3596 0.4172 0.1527
C10 C 0.4123(6) 0.4458(13) 0.2244(4)
H10 H 0.3630 0.4304 0.2370
C11 C 0.6869(7) 0.8985(12) 0.5679(5)
H11 H 0.6624 0.9856 0.5447
H12 H 0.7437 0.9292 0.5818
H13 H 0.6550 0.8880 0.5945
C12 C 0.7434(7) 0.7590(16) 0.4884(5)
H14 H 0.7390 0.6699 0.4635
H15 H 0.8013 0.7756 0.5033
H16 H 0.7210 0.8635 0.4726
N1B N 0.5025(4) 0.4957(9) 0.5853(3)
N2B N 0.5234(5) 0.5394(10) 0.8477(3)
O1B O 0.4025(4) 0.3169(7) 0.4932(2)
O2B O 0.5862(3) 0.2881(7) 0.5076(2)
H1B H 0.5720 0.2207 0.4842
H2B H 0.6371 0.2992 0.5092
S1B S 0.31398(15) 0.2993(3) 0.46437(10)
C1B C 0.5701(5) 0.4496(12) 0.6175(4)
H3B H 0.6162 0.4096 0.6046
C2B C 0.5761(5) 0.4574(11) 0.6684(4)
H4B H 0.6258 0.4254 0.6894
C3B C 0.5090(5) 0.5121(11) 0.6888(3)
C4B C 0.4390(6) 0.5583(13) 0.6553(4)
H5B H 0.3918 0.5967 0.6672
C5B C 0.4375(6) 0.5488(13) 0.6052(4)
H6B H 0.3886 0.5809 0.5835
C6B C 0.5138(5) 0.5248(10) 0.7436(3)
C7B C 0.4442(6) 0.5072(14) 0.7658(4)
H7B H 0.3914 0.4899 0.7461
C8B C 0.4536(7) 0.5154(14) 0.8167(4)
H8B H 0.4054 0.5026 0.8307
C9B C 0.5891(6) 0.5612(13) 0.8264(4)
H9B H 0.6404 0.5828 0.8473
C10B C 0.5877(6) 0.5542(13) 0.7756(4)
H10B H 0.6370 0.5696 0.7630
C11B C 0.3131(7) 0.1015(12) 0.4321(5)
H11B H 0.3376 0.0144 0.4553
H12B H 0.2563 0.0708 0.4182
H13B H 0.3450 0.1120 0.4055
C12B C 0.2566(7) 0.2410(16) 0.5116(5)
H14B H 0.2610 0.3301 0.5365
H15B H 0.1987 0.2244 0.4967
H16B H 0.2790 0.1365 0.5274
S2 S 0.81015(16) 0.2304(3) 0.49524(10)
O3 O 0.7388(4) 0.3524(9) 0.4872(3)
C13 C 0.8999(7) 0.3632(15) 0.5053(5)
H17 H 0.8936 0.4516 0.4801
H18 H 0.9488 0.2960 0.5029
H19 H 0.9063 0.4142 0.5381
C14 C 0.8182(9) 0.1584(19) 0.4354(5)
H20 H 0.7703 0.0889 0.4224
H21 H 0.8685 0.0919 0.4372
H22 H 0.8203 0.2548 0.4135
O4 O 0.5539(5) 1.0041(8) 0.4519(3)
H23 H 0.5392 0.9804 0.4220
H24 H 0.5560 0.9143 0.4673
loop_
_geom_bond_atom_site_label_1
_geom_bond_atom_site_label_2
_geom_bond_site_symmetry_1
_geom_bond_site_symmetry_2
Ag1 I1 1_555 1_555
Ag2 I1 1_555 1_555
Ag3 I1 1_555 1_555
Ag4 I1 1_555 1_555
Ag5 I4 1_555 1_555
I1 Ag5A 1_555 1_555
I2 Ag1 1_555 1_555
I3 Ag2 1_555 1_555
I4 Ag2 1_555 1_555
I5 Ag3 1_555 1_555
I6 Ag3 1_555 1_555
Mn1 N1 1_555 1_555
N1 C1 1_555 1_555
N2 C8 1_555 1_555
O1 Mn1 1_555 1_555
O2 Mn1 1_555 1_555
H1 O2 1_555 1_555
H2 O2 1_555 1_555
S1 O1 1_555 1_555
C1 H3 1_555 1_555
C2 C1 1_555 1_555
H4 C2 1_555 1_555
C3 C2 1_555 1_555
C4 C3 1_555 1_555
H5 C4 1_555 1_555
C5 N1 1_555 1_555
H6 C5 1_555 1_555
C6 C3 1_555 1_555
C7 C6 1_555 1_555
H7 C7 1_555 1_555
C8 C7 1_555 1_555
H8 C8 1_555 1_555
C9 N2 1_555 1_555
H9 C9 1_555 1_555
C10 C6 1_555 1_555
H10 C10 1_555 1_555
C11 S1 1_555 1_555
H11 C11 1_555 1_555
H12 C11 1_555 1_555
H13 C11 1_555 1_555
C12 S1 1_555 1_555
H14 C12 1_555 1_555
H15 C12 1_555 1_555
H16 C12 1_555 1_555
S2 O3 1_555 1_555
C13 S2 1_555 1_555
H17 C13 1_555 1_555
H18 C13 1_555 1_555
H19 C13 1_555 1_555
C14 S2 1_555 1_555
H20 C14 1_555 1_555
H21 C14 1_555 1_555
H22 C14 1_555 1_555
O4 H23 1_555 1_555
H24 O4 1_555 1_555
Ag1A I6 1_555 1_555
Ag1A_2 I5 1_555 1_555
Ag4A I4 1_555 1_555
Ag4A_2 I2 1_555 1_555
Ag5_2 I3 1_555 1_555
Ag5A I4A 1_555 1_555
I1A Ag5 1_555 1_555
I2A Ag4 1_555 1_555
I3_2 Ag5 1_555 1_555
I4A Ag4 1_555 1_555
I5A Ag1 1_555 1_555
I6A Ag1 1_555 1_555
N1B Mn1 1_555 1_555
N2B C8B 1_555 1_555
O1B Mn1 1_555 1_555
O2B Mn1 1_555 1_555
H1B O2B 1_555 1_555
H2B O2B 1_555 1_555
S1B O1B 1_555 1_555
C1B N1B 1_555 1_555
H3B C1B 1_555 1_555
C2B C1B 1_555 1_555
H4B C2B 1_555 1_555
C3B C2B 1_555 1_555
C4B C3B 1_555 1_555
H5B C4B 1_555 1_555
C5B N1B 1_555 1_555
H6B C5B 1_555 1_555
C6B C3B 1_555 1_555
C7B C6B 1_555 1_555
H7B C7B 1_555 1_555
C8B C7B 1_555 1_555
H8B C8B 1_555 1_555
C9B N2B 1_555 1_555
H9B C9B 1_555 1_555
C10B C6B 1_555 1_555
H10B C10B 1_555 1_555
C11B S1B 1_555 1_555
H11B C11B 1_555 1_555
H12B C11B 1_555 1_555
H13B C11B 1_555 1_555
C12B S1B 1_555 1_555
H14B C12B 1_555 1_555
H15B C12B 1_555 1_555
H16B C12B 1_555 1_555
Ag2 I2 1_555 1_555
Ag3 I3 1_555 1_555
Ag4 I5 1_555 1_555
Ag5 I6 1_555 1_555
C4 C5 1_555 1_555
C9 C10 1_555 1_555
Ag1A I1A 1_555 1_555
Ag1A I2A 1_555 1_555
Ag4A I1A 1_555 1_555
Ag4A I5A 1_555 1_555
Ag5A I6A 1_555 1_555
C4B C5B 1_555 1_555
C9B C10B 1_555 1_555

#END
