
#######################################################################
#
#                 Cambridge Crystallographic Data Centre
#                                CCDC 
#
#######################################################################
#
# If this CIF has been generated from an entry in the Cambridge 
# Structural Database, then it will include bibliographic, chemical, 
# crystal, experimental, refinement or atomic coordinate data resulting 
# from the CCDC's data processing and validation procedures.
#
#######################################################################

data_HOKWOU
_symmetry_cell_setting           monoclinic
_symmetry_space_group_name_H-M   'P 21/c'
_symmetry_Int_Tables_number      14
_space_group_name_Hall           '-P 2ybc'
loop_
_symmetry_equiv_pos_site_id
_symmetry_equiv_pos_as_xyz
1 x,y,z
2 -x,1/2+y,1/2-z
3 -x,-y,-z
4 x,1/2-y,1/2+z
_cell_length_a                   7.919(5)
_cell_length_b                   12.111(7)
_cell_length_c                   21.208(13)
_cell_angle_alpha                90
_cell_angle_beta                 96.723(10)
_cell_angle_gamma                90
_cell_volume                     2020.01
loop_
_atom_site_label
_atom_site_type_symbol
_atom_site_fract_x
_atom_site_fract_y
_atom_site_fract_z
Li1 Li 0.2305(5) 0.2584(3) 0.09546(17)
Li2 Li 0.2013(4) 0.0275(3) 0.19285(16)
Li3 Li 0.1029(4) 0.2572(3) 0.25065(16)
Cl1 Cl 0.01629(6) 0.16674(4) 0.14479(2)
Cl2 Cl 0.10905(6) -0.16035(4) 0.19485(2)
Cl3 Cl 0.27720(6) 0.11393(4) 0.29100(2)
O1 O 0.23291(17) 0.32887(11) 0.00797(6)
O2 O 0.28960(17) 0.10778(11) 0.01095(6)
O3 O 0.38795(16) 0.02990(10) 0.13104(6)
O4 O 0.45881(16) 0.26679(10) 0.14745(6)
O5 O 0.25251(16) 0.38273(11) 0.23597(6)
O6 O 0.14031(17) 0.42138(10) 0.10483(6)
C1 C 0.2510(3) 0.27055(16) -0.05009(9)
H1 H 0.3717 0.2685 -0.0580
H2 H 0.1836 0.3069 -0.0866
C2 C 0.1862(3) 0.15633(16) -0.04085(9)
H3 H 0.0664 0.1592 -0.0318
H4 H 0.1915 0.1120 -0.0798
C3 C 0.2262(3) 0.00418(16) 0.02933(9)
H5 H 0.2077 -0.0455 -0.0079
H6 H 0.1162 0.0146 0.0464
C4 C 0.3535(3) -0.04569(16) 0.07910(9)
H7 H 0.3083 -0.1157 0.0945
H8 H 0.4600 -0.0623 0.0607
C5 C 0.5508(2) 0.08197(16) 0.13097(10)
H9 H 0.5651 0.1069 0.0875
H10 H 0.6421 0.0282 0.1445
C6 C 0.5648(2) 0.17754(16) 0.17460(9)
H11 H 0.5286 0.1557 0.2159
H12 H 0.6846 0.2023 0.1820
C7 C 0.5050(3) 0.36966(15) 0.17903(9)
H13 H 0.4614 0.4317 0.1514
H14 H 0.6305 0.3757 0.1860
C8 C 0.4355(2) 0.37919(17) 0.24184(9)
H15 H 0.4756 0.3154 0.2687
H16 H 0.4812 0.4471 0.2636
C9 C 0.1800(3) 0.48637(16) 0.21342(9)
H17 H 0.2708 0.5365 0.2023
H18 H 0.1221 0.5220 0.2470
C10 C 0.0559(3) 0.46541(17) 0.15642(9)
H19 H -0.0312 0.4123 0.1673
H20 H -0.0024 0.5352 0.1427
C11 C 0.1923(3) 0.49453(17) 0.06053(9)
C12 C 0.2430(3) 0.44352(17) 0.00641(9)
C13 C 0.2942(3) 0.50509(17) -0.04243(10)
H21 H 0.3286 0.4700 -0.0789
C14 C 0.2946(3) 0.61869(18) -0.03750(10)
H22 H 0.3275 0.6623 -0.0712
C15 C 0.2477(3) 0.66954(18) 0.01596(10)
H23 H 0.2497 0.7478 0.0187
C16 C 0.1980(3) 0.60843(17) 0.06560(10)
H24 H 0.1681 0.6440 0.1026
Li3A Li -0.1029(4) -0.2428(3) 0.24935(16)
Cl2A Cl -0.10905(6) 0.33965(4) 0.30515(2)
loop_
_geom_bond_atom_site_label_1
_geom_bond_atom_site_label_2
_geom_bond_site_symmetry_1
_geom_bond_site_symmetry_2
Li1 Cl1 1_555 1_555
Li2 Cl1 1_555 1_555
Li3 Cl1 1_555 1_555
Cl2 Li2 1_555 1_555
Cl3 Li2 1_555 1_555
O1 Li1 1_555 1_555
O2 Li1 1_555 1_555
O3 Li2 1_555 1_555
O4 Li1 1_555 1_555
O5 Li3 1_555 1_555
O6 Li1 1_555 1_555
C1 O1 1_555 1_555
H1 C1 1_555 1_555
H2 C1 1_555 1_555
C2 O2 1_555 1_555
H3 C2 1_555 1_555
H4 C2 1_555 1_555
C3 O2 1_555 1_555
H5 C3 1_555 1_555
H6 C3 1_555 1_555
C4 O3 1_555 1_555
H7 C4 1_555 1_555
H8 C4 1_555 1_555
C5 O3 1_555 1_555
H9 C5 1_555 1_555
H10 C5 1_555 1_555
C6 O4 1_555 1_555
H11 C6 1_555 1_555
H12 C6 1_555 1_555
C7 O4 1_555 1_555
H13 C7 1_555 1_555
H14 C7 1_555 1_555
C8 O5 1_555 1_555
H15 C8 1_555 1_555
H16 C8 1_555 1_555
C9 O5 1_555 1_555
H17 C9 1_555 1_555
H18 C9 1_555 1_555
C10 O6 1_555 1_555
H19 C10 1_555 1_555
H20 C10 1_555 1_555
C11 O6 1_555 1_555
C12 O1 1_555 1_555
C13 C12 1_555 1_555
H21 C13 1_555 1_555
C14 C13 1_555 1_555
H22 C14 1_555 1_555
C15 C14 1_555 1_555
H23 C15 1_555 1_555
C16 C11 1_555 1_555
H24 C16 1_555 1_555
Li3A Cl2 1_555 1_555
Cl2A Li3 1_555 1_555
Li3 Cl3 1_555 1_555
C1 C2 1_555 1_555
C3 C4 1_555 1_555
C5 C6 1_555 1_555
C7 C8 1_555 1_555
C9 C10 1_555 1_555
C11 C12 1_555 1_555
C15 C16 1_555 1_555

#END
