
#######################################################################
#
#                 Cambridge Crystallographic Data Centre
#                                CCDC 
#
#######################################################################
#
# If this CIF has been generated from an entry in the Cambridge 
# Structural Database, then it will include bibliographic, chemical, 
# crystal, experimental, refinement or atomic coordinate data resulting 
# from the CCDC's data processing and validation procedures.
#
#######################################################################

data_HOKXUC
_symmetry_cell_setting           triclinic
_symmetry_space_group_name_H-M   'P -1'
_symmetry_Int_Tables_number      2
_space_group_name_Hall           '-P 1'
loop_
_symmetry_equiv_pos_site_id
_symmetry_equiv_pos_as_xyz
1 x,y,z
2 -x,-y,-z
_cell_length_a                   13.0276(18)
_cell_length_b                   16.091(2)
_cell_length_c                   22.994(5)
_cell_angle_alpha                86.670(14)
_cell_angle_beta                 86.076(14)
_cell_angle_gamma                73.569(11)
_cell_volume                     4608.7
loop_
_atom_site_label
_atom_site_type_symbol
_atom_site_fract_x
_atom_site_fract_y
_atom_site_fract_z
Ag1 Ag 0.1575(3) -0.0930(2) 0.32046(17)
Ag2 Ag -0.0100(5) -0.0758(5) 0.2202(2)
Ag3 Ag -0.0292(2) 0.1298(2) 0.17502(14)
Ag4 Ag 0.0909(2) 0.12878(18) 0.29622(13)
Ag5 Ag 0.0869(2) 0.3504(2) 0.17325(16)
Ag6 Ag -0.0537(2) 0.34307(19) 0.29727(16)
Ag7 Ag 0.0768(5) 0.5391(5) 0.2198(2)
Ag8 Ag -0.1182(3) 0.5519(2) 0.3222(2)
Ag9 Ag -0.0804(5) 0.7324(4) 0.2755(3)
Ag10 Ag 0.1372(5) 0.7159(4) 0.2946(4)
I1 I 0.17207(16) -0.00385(15) 0.20632(11)
I2 I 0.16529(18) 0.03253(14) 0.39858(11)
I3 I -0.0554(3) -0.1199(3) 0.33992(14)
I4 I 0.3201(3) -0.25138(18) 0.3158(2)
I5 I -0.1466(3) 0.0226(4) 0.13754(16)
I6 I -0.13452(15) 0.19837(14) 0.28142(11)
I7 I 0.0378(2) 0.2430(2) 0.09648(12)
I8 I 0.17399(15) 0.27560(14) 0.28122(10)
I9 I -0.11741(19) 0.48417(16) 0.20603(14)
I10 I 0.2122(3) 0.4615(3) 0.12899(14)
I11 I -0.15690(18) 0.42192(16) 0.40048(14)
I12 I 0.0550(9) 0.7355(4) 0.17902(17)
I13 I 0.09946(18) 0.55901(19) 0.33913(11)
I14 I -0.2720(3) 0.7154(2) 0.3157(3)
Ag2_2 Ag -0.0100(5) 0.9242(5) 0.2202(2)
Ag9_2 Ag -0.0804(5) -0.2676(4) 0.2755(3)
Ag10_2 Ag 0.1372(5) -0.2841(4) 0.2946(4)
I3_2 I -0.0554(3) 0.8801(3) 0.33992(14)
I4_2 I 0.3201(3) 0.74862(18) 0.3158(2)
I12_2 I 0.0550(9) -0.2645(4) 0.17902(17)
Mn1 Mn 0.4918(3) 0.7656(3) 0.5737(2)
Mn2 Mn 0.4626(4) 0.2432(3) 0.9239(3)
C1 C 0.5837(19) 0.623(2) 0.6672(15)
H1 H 0.6486 0.6344 0.6541
C2 C 0.585(2) 0.5628(19) 0.7119(13)
H2 H 0.6474 0.5392 0.7325
C3 C 0.4937(14) 0.5373(16) 0.7261(11)
C4 C 0.402(2) 0.580(2) 0.6991(17)
H3 H 0.3371 0.5659 0.7087
C5 C 0.4067(15) 0.6435(15) 0.6579(15)
H4 H 0.3433 0.6730 0.6397
C6 C 0.4848(17) 0.4735(11) 0.7775(11)
C7 C 0.563(2) 0.4442(19) 0.8160(15)
H5 H 0.6233 0.4651 0.8136
C8 C 0.551(3) 0.384(2) 0.8582(18)
H6 H 0.5966 0.3742 0.8895
C9 C 0.419(2) 0.4224(19) 0.7744(16)
H7 H 0.3740 0.4319 0.7428
C10 C 0.413(2) 0.3581(18) 0.8147(12)
H8 H 0.3624 0.3273 0.8120
C11 C 0.567(2) 0.879(3) 0.656(2)
H9 H 0.6324 0.8492 0.6368
C12 C 0.564(2) 0.937(2) 0.697(2)
H10 H 0.6277 0.9446 0.7091
C13 C 0.467(2) 0.984(2) 0.7216(19)
C14 C 0.379(2) 0.961(2) 0.7085(17)
H11 H 0.3137 0.9865 0.7288
C15 C 0.3807(19) 0.903(2) 0.6675(16)
H12 H 0.3178 0.8907 0.6575
C16 C 0.462(3) 1.049(2) 0.7681(16)
C17 C 0.540(3) 1.091(2) 0.7708(16)
H13 H 0.5963 1.0816 0.7420
C18 C 0.537(3) 1.146(2) 0.8141(17)
H14 H 0.5928 1.1715 0.8196
C19 C 0.387(3) 1.064(2) 0.814(2)
C20 C 0.357(3) 1.142(3) 0.839(3)
N1 N 0.4953(15) 0.6666(16) 0.6416(12)
N2 N 0.481(2) 0.338(2) 0.8583(16)
N3 N 0.4753(15) 0.8641(19) 0.6425(14)
N4 N 0.449(3) 1.1602(17) 0.8469(16)
O1 O 0.6627(16) 0.7324(19) 0.5672(11)
O2 O 0.5057(16) 0.6758(16) 0.5129(14)
O3 O 0.3212(14) 0.7942(12) 0.5658(10)
O4 O 0.5031(17) 0.8628(16) 0.5132(9)
O5 O 0.432(4) 0.148(2) 0.991(2)
O6 O 0.6312(16) 0.191(4) 0.9204(16)
O7 O 0.293(2) 0.294(2) 0.9210(14)
O8 O 0.458(3) 0.332(2) 0.9947(12)
S1 S 0.2562(6) 0.8537(6) 0.5214(5)
S2 S 0.5689(7) 0.8408(7) 0.4565(6)
N5 N 0.8250(18) 0.681(2) 0.5242(13)
N6 N 0.4407(19) 0.5947(14) 0.4531(14)
N7 N 0.390(4) 0.115(2) 1.0777(19)
N8 N 0.759(3) 0.110(3) 0.966(2)
N9 N 0.1388(17) 0.361(2) 0.9538(15)
C21 C 0.7224(19) 0.685(2) 0.5301(15)
H15 H 0.6941 0.6517 0.5065
C22 C 0.858(4) 0.757(3) 0.534(2)
H16 H 0.9319 0.7399 0.5441
H17 H 0.8129 0.7888 0.5652
H18 H 0.8504 0.7936 0.4984
C23 C 0.900(3) 0.616(3) 0.490(3)
H19 H 0.9303 0.5656 0.5147
H20 H 0.9569 0.6396 0.4731
H21 H 0.8632 0.6003 0.4590
C24 C 0.435(2) 0.6486(17) 0.495(2)
H22 H 0.3663 0.6698 0.5130
C25 C 0.530(2) 0.581(3) 0.410(2)
H23 H 0.5208 0.6319 0.3839
H24 H 0.5333 0.5310 0.3877
H25 H 0.5965 0.5713 0.4296
C26 C 0.365(3) 0.548(3) 0.4437(16)
H26 H 0.2935 0.5814 0.4572
H27 H 0.3839 0.4925 0.4651
H28 H 0.3649 0.5385 0.4024
C27 C 0.1697(19) 0.9364(15) 0.5606(13)
H29 H 0.1422 0.9121 0.5958
H30 H 0.1106 0.9668 0.5369
H31 H 0.2080 0.9767 0.5709
C28 C 0.172(2) 0.7963(18) 0.4993(16)
H32 H 0.1682 0.7513 0.5286
H33 H 0.2006 0.7700 0.4625
H34 H 0.1013 0.8354 0.4945
C29 C 0.468(4) 0.882(3) 0.408(2)
H35 H 0.4203 0.8449 0.4097
H36 H 0.4998 0.8831 0.3684
H37 H 0.4277 0.9401 0.4180
C30 C 0.637(3) 0.921(2) 0.448(2)
H38 H 0.5931 0.9733 0.4663
H39 H 0.6496 0.9335 0.4070
H40 H 0.7044 0.9007 0.4667
C31 C 0.399(8) 0.177(3) 1.039(2)
C32 C 0.361(7) 0.040(3) 1.060(3)
C33 C 0.346(9) 0.138(4) 1.136(2)
C34 C 0.682(2) 0.183(3) 0.966(2)
H41 H 0.6664 0.2240 0.9953
C35 C 0.868(3) 0.110(5) 0.951(3)
H42 H 0.8693 0.1628 0.9291
H43 H 0.9022 0.0604 0.9271
H44 H 0.9068 0.1050 0.9861
C36 C 0.751(7) 0.038(4) 1.006(3)
H45 H 0.6821 0.0537 1.0276
H46 H 0.8080 0.0261 1.0328
H47 H 0.7573 -0.0124 0.9837
C37 C 0.2434(16) 0.337(3) 0.9615(16)
H48 H 0.2750 0.3514 0.9937
C38 C 0.089(5) 0.300(4) 0.931(4)
C39 C 0.087(4) 0.450(3) 0.933(4)
Mn2_2 Mn 0.4626(4) 1.2432(3) 0.9239(3)
N4_2 N 0.449(3) 0.1602(17) 0.8469(16)
O9 O 0.466(4) 0.7981(19) 0.867(2)
N10 N 0.431(4) 0.6858(19) 0.8515(16)
C40 C 0.463(6) 0.728(4) 0.8940(18)
H49 H 0.4783 0.7092 0.9328
C41 C 0.342(5) 0.649(5) 0.868(3)
H50 H 0.2904 0.6638 0.8384
H51 H 0.3081 0.6721 0.9051
H52 H 0.3693 0.5863 0.8728
C42 C 0.418(6) 0.735(4) 0.7951(15)
H53 H 0.3477 0.7767 0.7953
H54 H 0.4256 0.6958 0.7638
H55 H 0.4726 0.7659 0.7893
O10 O 0.237(7) 0.659(4) 1.005(2)
N11 N 0.265(6) 0.556(4) 0.954(3)
C43 C 0.206(7) 0.636(4) 0.962(3)
C44 C 0.212(9) 0.490(5) 0.944(4)
C45 C 0.367(6) 0.520(5) 0.978(4)
C46? C 0.406(7) 1.097(4) 0.865(3)
C47? C 0.354(3) 0.151(6) 1.026(3)
C48? C 0.338(6) 0.055(6) 1.108(5)
C49? C 0.505(4) 0.085(6) 1.084(4)
C50? C 0.099(4) 0.346(7) 0.899(3)
C51? C 0.066(3) 0.432(5) 0.984(4)
loop_
_geom_bond_atom_site_label_1
_geom_bond_atom_site_label_2
_geom_bond_site_symmetry_1
_geom_bond_site_symmetry_2
Ag1 I1 1_555 1_555
Ag2 I1 1_555 1_555
Ag3 I1 1_555 1_555
Ag4 I1 1_555 1_555
Ag5 I7 1_555 1_555
Ag6 I6 1_555 1_555
Ag7 I9 1_555 1_555
Ag8 I9 1_555 1_555
Ag9 I12 1_555 1_555
Ag10 I12 1_555 1_555
I2 Ag1 1_555 1_555
I3 Ag1 1_555 1_555
I4 Ag1 1_555 1_555
I5 Ag2 1_555 1_555
I6 Ag3 1_555 1_555
I7 Ag3 1_555 1_555
I8 Ag4 1_555 1_555
I9 Ag5 1_555 1_555
I10 Ag5 1_555 1_555
I11 Ag6 1_555 1_555
I12 Ag7 1_555 1_555
I13 Ag7 1_555 1_555
I14 Ag8 1_555 1_555
Mn1 N1 1_555 1_555
Mn2 N2 1_555 1_555
C1 H1 1_555 1_555
C2 C1 1_555 1_555
H2 C2 1_555 1_555
C3 C2 1_555 1_555
C4 C3 1_555 1_555
H3 C4 1_555 1_555
C5 C4 1_555 1_555
H4 C5 1_555 1_555
C6 C3 1_555 1_555
C7 C6 1_555 1_555
H5 C7 1_555 1_555
C8 C7 1_555 1_555
H6 C8 1_555 1_555
C9 C6 1_555 1_555
H7 C9 1_555 1_555
C10 C9 1_555 1_555
H8 C10 1_555 1_555
C11 H9 1_555 1_555
C12 C11 1_555 1_555
H10 C12 1_555 1_555
C13 C12 1_555 1_555
C14 C13 1_555 1_555
H11 C14 1_555 1_555
C15 C14 1_555 1_555
H12 C15 1_555 1_555
C16 C13 1_555 1_555
C17 C16 1_555 1_555
H13 C17 1_555 1_555
C18 C17 1_555 1_555
H14 C18 1_555 1_555
C19 C16 1_555 1_555
C20 C19 1_555 1_555
N1 C1 1_555 1_555
N2 C8 1_555 1_555
N3 Mn1 1_555 1_555
N4 C18 1_555 1_555
O1 Mn1 1_555 1_555
O2 Mn1 1_555 1_555
O3 Mn1 1_555 1_555
O4 Mn1 1_555 1_555
O5 Mn2 1_555 1_555
O6 Mn2 1_555 1_555
O7 Mn2 1_555 1_555
O8 Mn2 1_555 1_555
S1 O3 1_555 1_555
S2 O4 1_555 1_555
N5 C21 1_555 1_555
N6 C24 1_555 1_555
N7 C31 1_555 1_555
N8 C34 1_555 1_555
N9 C37 1_555 1_555
C21 O1 1_555 1_555
H15 C21 1_555 1_555
C22 N5 1_555 1_555
H16 C22 1_555 1_555
H17 C22 1_555 1_555
H18 C22 1_555 1_555
C23 N5 1_555 1_555
H19 C23 1_555 1_555
H20 C23 1_555 1_555
H21 C23 1_555 1_555
C24 O2 1_555 1_555
H22 C24 1_555 1_555
C25 N6 1_555 1_555
H23 C25 1_555 1_555
H24 C25 1_555 1_555
H25 C25 1_555 1_555
C26 N6 1_555 1_555
H26 C26 1_555 1_555
H27 C26 1_555 1_555
H28 C26 1_555 1_555
C27 S1 1_555 1_555
H29 C27 1_555 1_555
H30 C27 1_555 1_555
H31 C27 1_555 1_555
C28 S1 1_555 1_555
H32 C28 1_555 1_555
H33 C28 1_555 1_555
H34 C28 1_555 1_555
C29 S2 1_555 1_555
H35 C29 1_555 1_555
H36 C29 1_555 1_555
H37 C29 1_555 1_555
C30 S2 1_555 1_555
H38 C30 1_555 1_555
H39 C30 1_555 1_555
H40 C30 1_555 1_555
C31 O5 1_555 1_555
C32 N7 1_555 1_555
C33 N7 1_555 1_555
C34 O6 1_555 1_555
H41 C34 1_555 1_555
C35 N8 1_555 1_555
H42 C35 1_555 1_555
H43 C35 1_555 1_555
H44 C35 1_555 1_555
C36 N8 1_555 1_555
H45 C36 1_555 1_555
H46 C36 1_555 1_555
H47 C36 1_555 1_555
C37 O7 1_555 1_555
H48 C37 1_555 1_555
C38 N9 1_555 1_555
C39 N9 1_555 1_555
O9 C40 1_555 1_555
N10 C40 1_555 1_555
C40 H49 1_555 1_555
C41 N10 1_555 1_555
H50 C41 1_555 1_555
H51 C41 1_555 1_555
H52 C41 1_555 1_555
C42 N10 1_555 1_555
H53 C42 1_555 1_555
H54 C42 1_555 1_555
H55 C42 1_555 1_555
O10 C43 1_555 1_555
N11 C43 1_555 1_555
C44 N11 1_555 1_555
C45 N11 1_555 1_555
Ag2_2 I12 1_555 1_555
Ag9_2 I3 1_555 1_555
Ag10_2 I3 1_555 1_555
I3_2 Ag9 1_555 1_555
I4_2 Ag10 1_555 1_555
I12_2 Ag2 1_555 1_555
Mn2_2 N4 1_555 1_555
N4_2 Mn2 1_555 1_555
Ag2 I3 1_555 1_555
Ag3 I5 1_555 1_555
Ag4 I2 1_555 1_555
Ag4 I6 1_555 1_555
Ag5 I8 1_555 1_555
Ag6 I8 1_555 1_555
Ag6 I9 1_555 1_555
Ag7 I10 1_555 1_555
Ag8 I11 1_555 1_555
Ag8 I13 1_555 1_555
Ag9 I13 1_555 1_555
Ag9 I14 1_555 1_555
Ag10 I13 1_555 1_555
Ag10 I3_2 1_555 1_555
I4 Ag10_2 1_555 1_555
C5 N1 1_555 1_555
C10 N2 1_555 1_555
C11 N3 1_555 1_555
C15 N3 1_555 1_555
C20 N4 1_555 1_555
Ag2_2 I3_2 1_555 1_555
Ag9_2 I12_2 1_555 1_555
Ag10_2 I12_2 1_555 1_555

#END
