
#######################################################################
#
#                 Cambridge Crystallographic Data Centre
#                                CCDC 
#
#######################################################################
#
# If this CIF has been generated from an entry in the Cambridge 
# Structural Database, then it will include bibliographic, chemical, 
# crystal, experimental, refinement or atomic coordinate data resulting 
# from the CCDC's data processing and validation procedures.
#
#######################################################################

data_HOKYOX
_symmetry_cell_setting           triclinic
_symmetry_space_group_name_H-M   'P -1'
_symmetry_Int_Tables_number      2
_space_group_name_Hall           '-P 1'
loop_
_symmetry_equiv_pos_site_id
_symmetry_equiv_pos_as_xyz
1 x,y,z
2 -x,-y,-z
_cell_length_a                   10.345(2)
_cell_length_b                   11.134(2)
_cell_length_c                   11.446(2)
_cell_angle_alpha                86.662(2)
_cell_angle_beta                 79.700(2)
_cell_angle_gamma                70.440(2)
_cell_volume                     1222.26
loop_
_atom_site_label
_atom_site_type_symbol
_atom_site_fract_x
_atom_site_fract_y
_atom_site_fract_z
C1 C 0.1661(2) 0.1105(2) 0.7640(2)
C2 C 0.2079(2) 0.2275(2) 0.7415(2)
C3 C 0.1720(3) 0.3184(3) 0.8312(2)
H1 H 0.1246 0.3039 0.9048
C4 C 0.2047(3) 0.4284(3) 0.8139(3)
H2 H 0.1794 0.4877 0.8749
C5 C 0.2755(3) 0.4503(3) 0.7051(3)
H3 H 0.2975 0.5250 0.6927
C6 C 0.3139(3) 0.3622(3) 0.6149(2)
H4 H 0.3617 0.3782 0.5420
C7 C 0.2822(2) 0.2495(2) 0.6311(2)
C8 C 0.3843(2) 0.2843(2) 0.2903(2)
C9 C 0.2403(3) 0.3192(3) 0.3079(3)
H5 H 0.1939 0.2879 0.3733
C10 C 0.1646(3) 0.4001(3) 0.2292(3)
H6 H 0.0683 0.4215 0.2415
C11 C 0.2310(3) 0.4488(3) 0.1333(3)
H7 H 0.1798 0.5058 0.0824
C12 C 0.3743(3) 0.4127(3) 0.1130(2)
H8 H 0.4189 0.4443 0.0468
C13 C 0.4542(3) 0.3296(2) 0.1895(2)
C14 C 0.6102(3) 0.2906(2) 0.1585(2)
C15 C 1.1842(3) 0.0056(3) 0.3224(2)
H9 H 1.1420 0.0369 0.3983
C16 C 1.3222(3) -0.0516(3) 0.2871(3)
H10 H 1.3914 -0.0662 0.3332
C17 C 1.2142(3) -0.0448(3) 0.1399(2)
H11 H 1.1980 -0.0555 0.0645
C18 C 1.4741(3) -0.1445(3) 0.0938(3)
H12 H 1.4605 -0.1975 0.0359
H13 H 1.5389 -0.1995 0.1415
C19 C 1.5347(4) -0.0529(5) 0.0315(5)
H14 H 1.5712 -0.0201 0.0903
H15 H 1.6147 -0.1023 -0.0241
C20 C 0.6761(4) 0.3652(4) 0.6469(3)
H16 H 0.7016 0.4038 0.7082
H17 H 0.6419 0.2983 0.6805
H18 H 0.6048 0.4284 0.6123
C21 C 0.9270(4) 0.3243(5) 0.5734(4)
H19 H 0.9131 0.3691 0.6462
H20 H 0.9602 0.3706 0.5083
H21 H 0.9943 0.2409 0.5772
C22 C 0.7925(3) 0.2539(3) 0.4623(3)
H22 H 0.7076 0.2461 0.4550
Mn1 Mn 0.89252(4) 0.10543(4) 0.22778(3)
N1 N 1.1157(2) 0.0104(2) 0.22864(19)
N2 N 1.3402(2) -0.0836(2) 0.1710(2)
N3 N 0.7971(2) 0.3126(2) 0.5561(2)
O1 O 0.1216(2) 0.0810(2) 0.86770(16)
O2 O 0.17455(19) 0.04424(17) 0.67594(16)
O3 O 0.67825(18) 0.22372(19) 0.23387(16)
O4 O 0.6634(2) 0.3233(2) 0.06151(18)
O5 O 0.8921(2) 0.2080(2) 0.38255(18)
O6 O 0.9318(2) 0.2036(2) 0.06388(17)
H23 H 0.8538 0.2439 0.0433
H24 H 0.9918 0.1730 0.0033
S1 S 0.33590(6) 0.13234(6) 0.51589(5)
S2 S 0.48181(6) 0.18012(6) 0.39283(5)
C15A C 1.8158(3) -0.0056(3) -0.3224(2)
H9A H 1.8580 -0.0369 -0.3983
C16A C 1.6778(3) 0.0516(3) -0.2871(3)
H10A H 1.6086 0.0662 -0.3332
C17A C 1.7858(3) 0.0448(3) -0.1399(2)
H11A H 1.8020 0.0555 -0.0645
C18A C 1.5259(3) 0.1445(3) -0.0938(3)
H12A H 1.5395 0.1975 -0.0359
H13A H 1.4611 0.1995 -0.1415
C19A C 1.4653(4) 0.0529(5) -0.0315(5)
H14A H 1.4288 0.0201 -0.0903
H15A H 1.3853 0.1023 0.0241
N1A N 1.8843(2) -0.0104(2) -0.22864(19)
N2A N 1.6598(2) 0.0836(2) -0.1710(2)
C1A C 0.8339(2) -0.1105(2) 0.2360(2)
C2A C 0.7921(2) -0.2275(2) 0.2585(2)
C3A C 0.8280(3) -0.3184(3) 0.1688(2)
H1A H 0.8754 -0.3039 0.0952
C4A C 0.7953(3) -0.4284(3) 0.1861(3)
H2A H 0.8206 -0.4877 0.1251
C5A C 0.7245(3) -0.4503(3) 0.2949(3)
H3A H 0.7025 -0.5250 0.3073
C6A C 0.6861(3) -0.3622(3) 0.3851(2)
H4A H 0.6383 -0.3782 0.4580
C7A C 0.7178(2) -0.2495(2) 0.3689(2)
C8A C 0.6157(2) -0.2843(2) 0.7097(2)
C9A C 0.7597(3) -0.3192(3) 0.6921(3)
H5A H 0.8061 -0.2879 0.6267
C10A C 0.8354(3) -0.4001(3) 0.7708(3)
H6A H 0.9317 -0.4215 0.7585
C11A C 0.7690(3) -0.4488(3) 0.8667(3)
H7A H 0.8202 -0.5058 0.9176
C12A C 0.6257(3) -0.4127(3) 0.8870(2)
H8A H 0.5811 -0.4443 0.9532
C13A C 0.5458(3) -0.3296(2) 0.8105(2)
C14A C 0.3898(3) -0.2906(2) 0.8415(2)
C20A C 0.3239(4) -0.3652(4) 0.3531(3)
H16A H 0.2984 -0.4038 0.2918
H17A H 0.3581 -0.2983 0.3195
H18A H 0.3952 -0.4284 0.3877
C21A C 0.0730(4) -0.3243(5) 0.4266(4)
H19A H 0.0869 -0.3691 0.3538
H20A H 0.0398 -0.3706 0.4917
H21A H 0.0057 -0.2409 0.4228
C22A C 0.2075(3) -0.2539(3) 0.5377(3)
H22A H 0.2924 -0.2461 0.5450
Mn1A Mn 0.10748(4) -0.10543(4) 0.77222(3)
N3A N 0.2029(2) -0.3126(2) 0.4439(2)
O1A O 0.8784(2) -0.0810(2) 0.13230(16)
O2A O 0.82545(19) -0.04424(17) 0.32406(16)
O3A O 0.32175(18) -0.22372(19) 0.76613(16)
O4A O 0.3366(2) -0.3233(2) 0.93849(18)
O5A O 0.1079(2) -0.2080(2) 0.61745(18)
O6A O 0.0682(2) -0.2036(2) 0.93612(17)
H23A H 0.1462 -0.2439 0.9567
H24A H 0.0082 -0.1730 0.9967
S1A S 0.66410(6) -0.13234(6) 0.48411(5)
S2A S 0.51819(6) -0.18012(6) 0.60717(5)
Mn1A_2 Mn 2.10748(4) -0.10543(4) -0.22778(3)
N1A_2 N -0.1157(2) -0.0104(2) 0.77136(19)
loop_
_geom_bond_atom_site_label_1
_geom_bond_atom_site_label_2
_geom_bond_site_symmetry_1
_geom_bond_site_symmetry_2
C1 C2 1_555 1_555
C2 C3 1_555 1_555
C3 H1 1_555 1_555
C4 C3 1_555 1_555
H2 C4 1_555 1_555
C5 C4 1_555 1_555
H3 C5 1_555 1_555
C6 C5 1_555 1_555
H4 C6 1_555 1_555
C7 C2 1_555 1_555
C8 C9 1_555 1_555
C9 H5 1_555 1_555
C10 C9 1_555 1_555
H6 C10 1_555 1_555
C11 C10 1_555 1_555
H7 C11 1_555 1_555
C12 C11 1_555 1_555
H8 C12 1_555 1_555
C13 C8 1_555 1_555
C14 C13 1_555 1_555
C15 H9 1_555 1_555
C16 C15 1_555 1_555
H10 C16 1_555 1_555
C17 H11 1_555 1_555
C18 H12 1_555 1_555
H13 C18 1_555 1_555
C19 C18 1_555 1_555
H14 C19 1_555 1_555
H15 C19 1_555 1_555
C20 H16 1_555 1_555
H17 C20 1_555 1_555
H18 C20 1_555 1_555
C21 H19 1_555 1_555
H20 C21 1_555 1_555
H21 C21 1_555 1_555
C22 H22 1_555 1_555
Mn1 N1 1_555 1_555
N1 C15 1_555 1_555
N2 C16 1_555 1_555
N3 C20 1_555 1_555
O1 C1 1_555 1_555
O2 C1 1_555 1_555
O3 C14 1_555 1_555
O4 C14 1_555 1_555
O5 C22 1_555 1_555
O6 Mn1 1_555 1_555
H23 O6 1_555 1_555
H24 O6 1_555 1_555
S1 C7 1_555 1_555
S2 C8 1_555 1_555
C15A H9A 1_555 1_555
C16A C15A 1_555 1_555
H10A C16A 1_555 1_555
C17A H11A 1_555 1_555
C18A H12A 1_555 1_555
H13A C18A 1_555 1_555
C19A C19 1_555 1_555
H14A C19A 1_555 1_555
H15A C19A 1_555 1_555
N1A C15A 1_555 1_555
N2A C16A 1_555 1_555
C1A C2A 1_555 1_555
C2A C3A 1_555 1_555
C3A H1A 1_555 1_555
C4A C3A 1_555 1_555
H2A C4A 1_555 1_555
C5A C4A 1_555 1_555
H3A C5A 1_555 1_555
C6A C5A 1_555 1_555
H4A C6A 1_555 1_555
C7A C2A 1_555 1_555
C8A C9A 1_555 1_555
C9A H5A 1_555 1_555
C10A C9A 1_555 1_555
H6A C10A 1_555 1_555
C11A C10A 1_555 1_555
H7A C11A 1_555 1_555
C12A C11A 1_555 1_555
H8A C12A 1_555 1_555
C13A C8A 1_555 1_555
C14A C13A 1_555 1_555
C20A H16A 1_555 1_555
H17A C20A 1_555 1_555
H18A C20A 1_555 1_555
C21A H19A 1_555 1_555
H20A C21A 1_555 1_555
H21A C21A 1_555 1_555
C22A H22A 1_555 1_555
Mn1A O1 1_555 1_555
N3A C20A 1_555 1_555
O1A Mn1 1_555 1_555
O2A Mn1 1_555 1_555
O3A C14A 1_555 1_555
O4A C14A 1_555 1_555
O5A C22A 1_555 1_555
O6A Mn1A 1_555 1_555
H23A O6A 1_555 1_555
H24A O6A 1_555 1_555
S1A C7A 1_555 1_555
S2A C8A 1_555 1_555
Mn1A_2 N1A 1_555 1_555
N1A_2 Mn1A 1_555 1_555
C6 C7 1_555 1_555
C12 C13 1_555 1_555
C17 N1 1_555 1_555
C17 N2 1_555 1_555
C18 N2 1_555 1_555
C21 N3 1_555 1_555
C22 N3 1_555 1_555
Mn1 O3 1_555 1_555
Mn1 O5 1_555 1_555
O2 Mn1A 1_555 1_555
S1 S2 1_555 1_555
C17A N1A 1_555 1_555
C17A N2A 1_555 1_555
C18A C19A 1_555 1_555
C18A N2A 1_555 1_555
C1A O1A 1_555 1_555
C1A O2A 1_555 1_555
C6A C7A 1_555 1_555
C12A C13A 1_555 1_555
C21A N3A 1_555 1_555
C22A N3A 1_555 1_555
Mn1A O3A 1_555 1_555
Mn1A O5A 1_555 1_555
S1A S2A 1_555 1_555

#END
