
#######################################################################
#
#                 Cambridge Crystallographic Data Centre
#                                CCDC 
#
#######################################################################
#
# If this CIF has been generated from an entry in the Cambridge 
# Structural Database, then it will include bibliographic, chemical, 
# crystal, experimental, refinement or atomic coordinate data resulting 
# from the CCDC's data processing and validation procedures.
#
#######################################################################

data_HOKYUD
_symmetry_cell_setting           triclinic
_symmetry_space_group_name_H-M   'P -1'
_symmetry_Int_Tables_number      2
_space_group_name_Hall           '-P 1'
loop_
_symmetry_equiv_pos_site_id
_symmetry_equiv_pos_as_xyz
1 x,y,z
2 -x,-y,-z
_cell_length_a                   9.222(1)
_cell_length_b                   11.543(1)
_cell_length_c                   15.351(1)
_cell_angle_alpha                99.406(1)
_cell_angle_beta                 102.208(1)
_cell_angle_gamma                109.272(1)
_cell_volume                     1458.69
loop_
_atom_site_label
_atom_site_type_symbol
_atom_site_fract_x
_atom_site_fract_y
_atom_site_fract_z
Cd1 Cd 1.13211(4) 0.35771(3) 0.70533(2)
S1 S 0.54712(16) -0.17413(13) 0.76934(9)
S2 S 0.72277(17) -0.00942(13) 0.76838(9)
O1 O 0.9454(5) 0.1965(4) 0.7531(3)
O2 O 0.9692(5) 0.3935(4) 0.7975(3)
N1 N 0.9603(5) 0.3616(4) 0.5802(3)
O3 O 0.3354(5) -0.4186(4) 0.7416(3)
O4 O 0.3553(5) -0.5496(4) 0.8255(3)
C1 C 0.9114(6) 0.2799(5) 0.7973(3)
C2 C 0.4078(6) -0.4440(5) 0.8077(4)
C3 C 0.7986(6) 0.2411(5) 0.8550(3)
N2 N 0.7382(5) 0.3703(5) 0.5030(3)
N3 N 1.2390(6) 0.2206(5) 0.6498(3)
C4 C 0.6062(7) 0.0898(6) 0.9039(4)
H1 H 0.5435 0.0061 0.8993
C5 C 0.5630(6) -0.3487(5) 0.8720(3)
C6 C 0.6367(6) -0.2261(5) 0.8629(3)
N4 N 1.2865(6) 0.0696(5) 0.5688(3)
C7 C 0.8150(7) 0.3447(5) 0.4402(4)
H2 H 0.7806 0.3341 0.3769
C8 C 1.2155(6) 0.1537(5) 0.5679(4)
H3 H 1.1558 0.1630 0.5144
C9 C 0.8301(6) 0.3802(6) 0.5865(4)
H4 H 0.8047 0.3979 0.6413
C10 C 0.9494(6) 0.3381(5) 0.4878(3)
H5 H 1.0249 0.3201 0.4623
C11 C 0.7778(6) -0.1442(5) 0.9290(4)
H6 H 0.8269 -0.0619 0.9244
C12 C 0.7071(6) 0.1151(5) 0.8483(3)
C13 C 1.2765(8) -0.0234(6) 0.4868(5)
H7 H 1.2557 0.0090 0.4330
H8 H 1.1864 -0.1017 0.4780
C14 C 0.6368(7) -0.3853(6) 0.9458(4)
H9 H 0.5893 -0.4673 0.9513
C15 C 1.3609(11) 0.0855(9) 0.6580(5)
H10 H 1.4205 0.0404 0.6809
C16 C 0.7742(7) -0.3061(6) 1.0093(5)
H11 H 0.8202 -0.3335 1.0578
C17 C 0.7894(7) 0.3378(6) 0.9183(4)
H12 H 0.8515 0.4219 0.9235
C18 C 0.5809(7) 0.3817(8) 0.4853(6)
H13 H 0.5168 0.3328 0.4233
H14 H 0.5260 0.3458 0.5278
C19 C 1.3326(10) 0.1791(8) 0.7077(5)
H15 H 1.3709 0.2103 0.7714
C20 C 0.8459(7) -0.1845(6) 1.0019(5)
H16 H 0.9403 -0.1291 1.0458
C21 C 0.5964(8) 0.1846(7) 0.9654(5)
H17 H 0.5276 0.1652 1.0019
C22 C 0.6892(9) 0.3101(6) 0.9733(5)
H18 H 0.6837 0.3751 1.0156
C23 C 1.4263(9) -0.0523(7) 0.4936(6)
H19 H 1.4406 -0.0914 0.5445
H20 H 1.4083 -0.1149 0.4378
C24 C 0.5933(11) 0.5142(9) 0.4957(9)
H21 H 0.6101 0.5450 0.4421
H22 H 0.6752 0.5714 0.5509
N1A N 0.0397(5) 0.6384(4) 0.4198(3)
N2A N 0.2618(5) 0.6297(5) 0.4970(3)
C7A C 0.1850(7) 0.6553(5) 0.5598(4)
H2A H 0.2194 0.6659 0.6231
C9A C 0.1699(6) 0.6198(6) 0.4135(4)
H4A H 0.1953 0.6021 0.3587
C10A C 0.0506(6) 0.6619(5) 0.5122(3)
H5A H -0.0249 0.6799 0.5377
C18A C 0.4191(7) 0.6183(8) 0.5147(6)
H13A H 0.4832 0.6672 0.5767
H14A H 0.4740 0.6542 0.4722
C24A C 0.4067(11) 0.4858(9) 0.5043(9)
H21A H 0.3899 0.4550 0.5579
H22A H 0.3248 0.4286 0.4491
N3A N 1.7610(6) -0.2206(5) 0.3502(3)
N4A N 1.7135(6) -0.0696(5) 0.4312(3)
C8A C 1.7845(6) -0.1537(5) 0.4321(4)
H3A H 1.8442 -0.1630 0.4856
C13A C 1.7235(8) 0.0234(6) 0.5132(5)
H7A H 1.7443 -0.0090 0.5670
H8A H 1.8136 0.1017 0.5220
C15A C 1.6391(11) -0.0855(9) 0.3420(5)
H10A H 1.5795 -0.0404 0.3191
C19A C 1.6674(10) -0.1791(8) 0.2923(5)
H15A H 1.6291 -0.2103 0.2286
C23A C 1.5737(9) 0.0523(7) 0.5064(6)
H19A H 1.5594 0.0914 0.4555
H20A H 1.5917 0.1149 0.5622
Cd1A Cd -0.13211(4) 0.64229(3) 0.29467(2)
S1A S 0.45288(16) 1.17413(13) 0.23066(9)
S2A S 0.27723(17) 1.00942(13) 0.23162(9)
O1A O 0.0546(5) 0.8035(4) 0.2469(3)
O2A O 0.0308(5) 0.6065(4) 0.2025(3)
O3A O 0.6646(5) 1.4186(4) 0.2584(3)
O4A O 0.6447(5) 1.5496(4) 0.1745(3)
C1A C 0.0886(6) 0.7201(5) 0.2027(3)
C2A C 0.5922(6) 1.4440(5) 0.1923(4)
C3A C 0.2014(6) 0.7589(5) 0.1450(3)
C4A C 0.3938(7) 0.9102(6) 0.0961(4)
H1A H 0.4565 0.9939 0.1007
C5A C 0.4370(6) 1.3487(5) 0.1280(3)
C6A C 0.3633(6) 1.2261(5) 0.1371(3)
C11A C 0.2222(6) 1.1442(5) 0.0710(4)
H6A H 0.1731 1.0619 0.0756
C12A C 0.2929(6) 0.8849(5) 0.1517(3)
C14A C 0.3632(7) 1.3853(6) 0.0542(4)
H9A H 0.4107 1.4673 0.0487
C16A C 0.2258(7) 1.3061(6) -0.0093(5)
H11A H 0.1798 1.3335 -0.0578
C17A C 0.2106(7) 0.6622(6) 0.0817(4)
H12A H 0.1485 0.5781 0.0765
C20A C 0.1541(7) 1.1845(6) -0.0019(5)
H16A H 0.0597 1.1291 -0.0458
C21A C 0.4036(8) 0.8154(7) 0.0346(5)
H17A H 0.4724 0.8348 -0.0019
C22A C 0.3108(9) 0.6899(6) 0.0267(5)
H18A H 0.3163 0.6249 -0.0156
Cd1_2 Cd 0.13211(4) -0.64229(3) 0.70533(2)
Cd1A_2 Cd 0.86789(4) 1.64229(3) 0.29467(2)
Cd1A_3 Cd 1.86789(4) -0.35771(3) 0.29467(2)
O3_2 O 1.3354(5) 0.5814(4) 0.7416(3)
O3A_2 O -0.3354(5) 0.4186(4) 0.2584(3)
O4_2 O 1.3553(5) 0.4504(4) 0.8255(3)
O4A_2 O -0.3553(5) 0.5496(4) 0.1745(3)
N3A_2 N -0.2390(6) 0.7794(5) 0.3502(3)
O5 O -0.1508(8) 0.7918(7) 0.6337(4)
N5 N 0.0256(8) 0.8107(8) 0.7673(4)
C25 C -0.0351(13) 0.8576(12) 0.7019(8)
H23 H 0.0112 0.9442 0.7073
C26 C -0.0378(18) 0.6826(12) 0.7686(10)
H24 H 0.0242 0.6699 0.8222
H25 H -0.0340 0.6306 0.7143
H26 H -0.1469 0.6599 0.7703
C27 C 0.1554(14) 0.8944(14) 0.8428(9)
H27 H 0.1867 0.8473 0.8842
H28 H 0.1238 0.9566 0.8744
H29 H 0.2441 0.9360 0.8210
loop_
_geom_bond_atom_site_label_1
_geom_bond_atom_site_label_2
_geom_bond_site_symmetry_1
_geom_bond_site_symmetry_2
Cd1 O1 1_555 1_555
S1 S2 1_555 1_555
S2 C12 1_555 1_555
O1 C1 1_555 1_555
O2 Cd1 1_555 1_555
N1 Cd1 1_555 1_555
O3 C2 1_555 1_555
O4 C2 1_555 1_555
C1 O2 1_555 1_555
C2 C5 1_555 1_555
C3 C1 1_555 1_555
N2 C7 1_555 1_555
N3 Cd1 1_555 1_555
C4 H1 1_555 1_555
C5 C6 1_555 1_555
C6 S1 1_555 1_555
N4 C8 1_555 1_555
C7 H2 1_555 1_555
C8 N3 1_555 1_555
H3 C8 1_555 1_555
C9 N1 1_555 1_555
H4 C9 1_555 1_555
C10 N1 1_555 1_555
H5 C10 1_555 1_555
C11 C6 1_555 1_555
H6 C11 1_555 1_555
C12 C3 1_555 1_555
C13 N4 1_555 1_555
H7 C13 1_555 1_555
H8 C13 1_555 1_555
C14 C5 1_555 1_555
H9 C14 1_555 1_555
C15 N4 1_555 1_555
H10 C15 1_555 1_555
C16 C14 1_555 1_555
H11 C16 1_555 1_555
C17 C3 1_555 1_555
H12 C17 1_555 1_555
C18 N2 1_555 1_555
H13 C18 1_555 1_555
H14 C18 1_555 1_555
C19 N3 1_555 1_555
H15 C19 1_555 1_555
C20 C11 1_555 1_555
H16 C20 1_555 1_555
C21 C4 1_555 1_555
H17 C21 1_555 1_555
C22 C17 1_555 1_555
H18 C22 1_555 1_555
C23 C13 1_555 1_555
H19 C23 1_555 1_555
H20 C23 1_555 1_555
C24 C18 1_555 1_555
H21 C24 1_555 1_555
H22 C24 1_555 1_555
O5 C25 1_555 1_555
N5 C25 1_555 1_555
C25 H23 1_555 1_555
C26 N5 1_555 1_555
H24 C26 1_555 1_555
H25 C26 1_555 1_555
H26 C26 1_555 1_555
C27 N5 1_555 1_555
H27 C27 1_555 1_555
H28 C27 1_555 1_555
H29 C27 1_555 1_555
N1A C9A 1_555 1_555
N2A C7A 1_555 1_555
C7A H2A 1_555 1_555
C9A N2A 1_555 1_555
H4A C9A 1_555 1_555
C10A N1A 1_555 1_555
H5A C10A 1_555 1_555
C18A N2A 1_555 1_555
H13A C18A 1_555 1_555
H14A C18A 1_555 1_555
C24A C24 1_555 1_555
H21A C24A 1_555 1_555
H22A C24A 1_555 1_555
N3A C8A 1_555 1_555
N4A C8A 1_555 1_555
C8A H3A 1_555 1_555
C13A N4A 1_555 1_555
H7A C13A 1_555 1_555
H8A C13A 1_555 1_555
C15A N4A 1_555 1_555
H10A C15A 1_555 1_555
C19A N3A 1_555 1_555
H15A C19A 1_555 1_555
C23A C23 1_555 1_555
H19A C23A 1_555 1_555
H20A C23A 1_555 1_555
Cd1A N1A 1_555 1_555
S1A S2A 1_555 1_555
S2A C12A 1_555 1_555
O1A Cd1A 1_555 1_555
O2A Cd1A 1_555 1_555
O3A C2A 1_555 1_555
O4A C2A 1_555 1_555
C1A O1A 1_555 1_555
C2A C5A 1_555 1_555
C3A C1A 1_555 1_555
C4A H1A 1_555 1_555
C5A C6A 1_555 1_555
C6A S1A 1_555 1_555
C11A C6A 1_555 1_555
H6A C11A 1_555 1_555
C12A C3A 1_555 1_555
C14A C5A 1_555 1_555
H9A C14A 1_555 1_555
C16A C14A 1_555 1_555
H11A C16A 1_555 1_555
C17A C3A 1_555 1_555
H12A C17A 1_555 1_555
C20A C11A 1_555 1_555
H16A C20A 1_555 1_555
C21A C4A 1_555 1_555
H17A C21A 1_555 1_555
C22A C17A 1_555 1_555
H18A C22A 1_555 1_555
Cd1_2 O3 1_555 1_555
Cd1A_2 O3A 1_555 1_555
Cd1A_3 N3A 1_555 1_555
O3_2 Cd1 1_555 1_555
O3A_2 Cd1A 1_555 1_555
O4_2 Cd1 1_555 1_555
O4A_2 Cd1A 1_555 1_555
N3A_2 Cd1A 1_555 1_555
O4 Cd1_2 1_555 1_555
N2 C9 1_555 1_555
C4 C12 1_555 1_555
C7 C10 1_555 1_555
C15 C19 1_555 1_555
C16 C20 1_555 1_555
C21 C22 1_555 1_555
C7A C10A 1_555 1_555
C18A C24A 1_555 1_555
C13A C23A 1_555 1_555
C15A C19A 1_555 1_555
O2A C1A 1_555 1_555
O4A Cd1A_2 1_555 1_555
C4A C12A 1_555 1_555
C16A C20A 1_555 1_555
C21A C22A 1_555 1_555

#END
