
#######################################################################
#
#                 Cambridge Crystallographic Data Centre
#                                CCDC 
#
#######################################################################
#
# If this CIF has been generated from an entry in the Cambridge 
# Structural Database, then it will include bibliographic, chemical, 
# crystal, experimental, refinement or atomic coordinate data resulting 
# from the CCDC's data processing and validation procedures.
#
#######################################################################

data_HOLHIB
_symmetry_cell_setting           triclinic
_symmetry_space_group_name_H-M   'P -1'
_symmetry_Int_Tables_number      2
_space_group_name_Hall           '-P 1'
loop_
_symmetry_equiv_pos_site_id
_symmetry_equiv_pos_as_xyz
1 x,y,z
2 -x,-y,-z
_cell_length_a                   8.764(2)
_cell_length_b                   9.336(2)
_cell_length_c                   10.409(3)
_cell_angle_alpha                85.661(4)
_cell_angle_beta                 72.206(3)
_cell_angle_gamma                73.468(3)
_cell_volume                     777.346
loop_
_atom_site_label
_atom_site_type_symbol
_atom_site_fract_x
_atom_site_fract_y
_atom_site_fract_z
Cd1 Cd 0.58389(3) 0.86961(3) 0.73430(2)
S1 S 0.51998(13) 0.70021(12) 0.56487(11)
S2 S 0.67796(16) 1.16327(17) 1.07457(13)
O1 O 0.7696(3) 0.6375(3) 0.7793(3)
N1 N 0.8532(4) 0.8226(4) 0.5742(3)
N2 N 0.6768(4) 0.9818(4) 0.8751(3)
C1 C 0.9705(4) 0.7019(4) 0.5960(4)
C2 C 0.9181(4) 0.6209(4) 0.7245(4)
C3 C 0.5113(4) 0.8250(4) 0.4462(4)
N3 N 0.5037(5) 0.9115(4) 0.3635(4)
C4 C 1.0431(5) 0.5176(4) 0.7802(4)
C5 C 0.6752(4) 1.0568(5) 0.9573(4)
C6 C 0.8862(5) 0.8940(5) 0.4597(4)
H1 H 0.8039 0.9761 0.4451
C7 C 1.0032(5) 0.3964(4) 0.8534(4)
H2 H 0.9006 0.3792 0.8645
C8 C 1.1581(5) 0.7320(6) 0.3806(4)
H3 H 1.2613 0.7026 0.3155
C9 C 1.1252(5) 0.6542(5) 0.4993(4)
H4 H 1.2054 0.5707 0.5146
C10 C 1.0372(5) 0.8529(5) 0.3599(4)
H5 H 1.0562 0.9065 0.2802
C11 C 1.1946(5) 0.5460(5) 0.7692(4)
H6 H 1.2213 0.6283 0.7216
C12 C 1.1172(6) 0.3010(5) 0.9102(5)
H7 H 1.0920 0.2179 0.9574
C13 C 1.3046(5) 0.4511(6) 0.8295(5)
H8 H 1.4045 0.4710 0.8240
C14 C 1.2674(6) 0.3281(6) 0.8972(5)
H9 H 1.3439 0.2627 0.9347
Cd1A Cd 0.41611(3) 1.13039(3) 0.26570(2)
Cd1A_2 Cd 0.41611(3) 1.13039(3) 1.26570(2)
S2A S 0.32204(16) 0.83673(17) 0.92543(13)
N3A N 0.4963(5) 1.0885(4) 0.6365(4)
loop_
_geom_bond_atom_site_label_1
_geom_bond_atom_site_label_2
_geom_bond_site_symmetry_1
_geom_bond_site_symmetry_2
Cd1 S1 1_555 1_555
S1 C3 1_555 1_555
S2 C5 1_555 1_555
O1 Cd1 1_555 1_555
N1 Cd1 1_555 1_555
N2 Cd1 1_555 1_555
C1 N1 1_555 1_555
C2 O1 1_555 1_555
C3 N3 1_555 1_555
N3 Cd1A 1_555 1_555
C4 C2 1_555 1_555
C5 N2 1_555 1_555
C6 N1 1_555 1_555
H1 C6 1_555 1_555
C7 C4 1_555 1_555
H2 C7 1_555 1_555
C8 H3 1_555 1_555
C9 C1 1_555 1_555
H4 C9 1_555 1_555
C10 C6 1_555 1_555
H5 C10 1_555 1_555
C11 C4 1_555 1_555
H6 C11 1_555 1_555
C12 C7 1_555 1_555
H7 C12 1_555 1_555
C13 C11 1_555 1_555
H8 C13 1_555 1_555
C14 C12 1_555 1_555
H9 C14 1_555 1_555
Cd1A_2 S2 1_555 1_555
S2A Cd1 1_555 1_555
N3A Cd1 1_555 1_555
C1 C2 1_555 1_555
C8 C9 1_555 1_555
C8 C10 1_555 1_555
C13 C14 1_555 1_555

#END
