
#######################################################################
#
#                 Cambridge Crystallographic Data Centre
#                                CCDC 
#
#######################################################################
#
# If this CIF has been generated from an entry in the Cambridge 
# Structural Database, then it will include bibliographic, chemical, 
# crystal, experimental, refinement or atomic coordinate data resulting 
# from the CCDC's data processing and validation procedures.
#
#######################################################################

data_HOLWEL
_symmetry_cell_setting           triclinic
_symmetry_space_group_name_H-M   'P -1'
_symmetry_Int_Tables_number      2
_space_group_name_Hall           '-P 1'
loop_
_symmetry_equiv_pos_site_id
_symmetry_equiv_pos_as_xyz
1 x,y,z
2 -x,-y,-z
_cell_length_a                   6.32(3)
_cell_length_b                   7.50(2)
_cell_length_c                   9.06(3)
_cell_angle_alpha                97.4(3)
_cell_angle_beta                 97.2(3)
_cell_angle_gamma                93.24(18)
_cell_volume                     421.355
loop_
_atom_site_label
_atom_site_type_symbol
_atom_site_fract_x
_atom_site_fract_y
_atom_site_fract_z
Ca1 Ca -0.60413(12) 0.37519(10) 0.29115(8)
C1 C -0.1382(7) 0.1922(6) 0.2745(5)
C2 C -0.2902(7) 0.0241(6) 0.2378(5)
H1 H -0.2573 -0.0481 0.1466
C3 C -0.2590(8) -0.0835(6) 0.3674(5)
H2 H -0.3000 -0.0129 0.4554
H3 H -0.1079 -0.1012 0.3886
C4 C -0.3840(7) -0.2676(6) 0.3433(5)
O1 O -0.2176(5) 0.3373(4) 0.3161(4)
O2 O 0.0564(5) 0.1753(4) 0.2680(4)
O3 O -0.5014(5) 0.0760(4) 0.2139(4)
O4 O -0.4236(5) -0.3356(4) 0.4557(3)
O5 O -0.4385(5) -0.3467(4) 0.2124(3)
O6 O -0.7656(6) 0.3678(5) 0.0394(4)
O7 O -0.8784(5) 0.5877(4) 0.3482(3)
H4 H -0.578(11) -0.012(9) 0.172(7)
Ca1_2 Ca -0.60413(12) -0.62481(10) 0.29115(8)
Ca1A Ca -0.39587(12) -0.37519(10) 0.70885(8)
Ca1_3 Ca 0.39587(12) 0.37519(10) 0.29115(8)
O2_2 O -0.9436(5) 0.1753(4) 0.2680(4)
O4_2 O -0.4236(5) 0.6644(4) 0.4557(3)
O4A O -0.5764(5) 0.3356(4) 0.5443(3)
O5_2 O -0.4385(5) 0.6533(4) 0.2124(3)
O8 O -0.8448(7) 0.8285(6) 0.1105(5)
loop_
_geom_bond_atom_site_label_1
_geom_bond_atom_site_label_2
_geom_bond_site_symmetry_1
_geom_bond_site_symmetry_2
Ca1 O1 1_555 1_555
C1 C2 1_555 1_555
C2 H1 1_555 1_555
C3 C2 1_555 1_555
H2 C3 1_555 1_555
H3 C3 1_555 1_555
C4 C3 1_555 1_555
O1 C1 1_555 1_555
O2 C1 1_555 1_555
O3 Ca1 1_555 1_555
O4 C4 1_555 1_555
O5 C4 1_555 1_555
O6 Ca1 1_555 1_555
O7 Ca1 1_555 1_555
H4 O3 1_555 1_555
Ca1_2 O4 1_555 1_555
Ca1A O4 1_555 1_555
Ca1_3 O2 1_555 1_555
O2_2 Ca1 1_555 1_555
O4_2 Ca1 1_555 1_555
O4A Ca1 1_555 1_555
O5_2 Ca1 1_555 1_555
C2 O3 1_555 1_555
O5 Ca1_2 1_555 1_555

#END
