
#######################################################################
#
#                 Cambridge Crystallographic Data Centre
#                                CCDC 
#
#######################################################################
#
# If this CIF has been generated from an entry in the Cambridge 
# Structural Database, then it will include bibliographic, chemical, 
# crystal, experimental, refinement or atomic coordinate data resulting 
# from the CCDC's data processing and validation procedures.
#
#######################################################################

data_HOMCUJ
_symmetry_cell_setting           triclinic
_symmetry_space_group_name_H-M   'P -1'
_symmetry_Int_Tables_number      2
_space_group_name_Hall           '-P 1'
loop_
_symmetry_equiv_pos_site_id
_symmetry_equiv_pos_as_xyz
1 x,y,z
2 -x,-y,-z
_cell_length_a                   8.5520(9)
_cell_length_b                   12.5829(13)
_cell_length_c                   13.5611(15)
_cell_angle_alpha                72.397(2)
_cell_angle_beta                 87.493(2)
_cell_angle_gamma                87.571(2)
_cell_volume                     1388.98
loop_
_atom_site_label
_atom_site_type_symbol
_atom_site_fract_x
_atom_site_fract_y
_atom_site_fract_z
Cu1 Cu 0.0000 0.5000 0.5000
O1 O 0.0581(3) 0.6433(2) 0.5124(2)
N1 N -0.1928(4) 0.5749(3) 0.4175(3)
C1 C -0.2399(5) 0.6797(3) 0.4133(4)
H1 H -0.1867 0.7168 0.4508
O2 O -0.6015(4) 1.2122(3) -0.0440(3)
H2 H -0.5559 1.2081 -0.0998
H3 H -0.6796 1.2573 -0.0603
Cu2 Cu -0.5000 1.0000 0.0000
N2 N -0.7069(4) 0.9506(3) -0.0351(3)
O3 O 0.4240(4) 0.9634(3) 0.1416(3)
C2 C -0.3642(5) 0.7338(4) 0.3554(4)
H4 H -0.3930 0.8066 0.3530
O4 O 0.1672(3) 0.6411(2) 0.3623(2)
N3 N -0.6396(4) 0.5188(3) 0.2491(3)
H5 H -0.6821 0.5704 0.2718
C3 C -0.4455(5) 0.6789(4) 0.3009(4)
H6 H -0.5292 0.7144 0.2611
N4 N -0.8655(4) 0.6215(3) 0.0993(3)
H7 H -0.7780 0.6294 0.0644
C4 C -0.4011(4) 0.5704(3) 0.3063(3)
O5 O 0.4425(7) 1.1186(3) 0.1828(4)
O6 O -0.4114(4) 0.4368(3) 0.2164(3)
C5 C -0.2731(5) 0.5235(3) 0.3639(3)
H8 H -0.2406 0.4515 0.3656
O7 O -1.1011(3) 0.7033(2) 0.1209(3)
C6 C -0.4846(5) 0.5034(4) 0.2520(3)
C7 C -0.7408(4) 0.4514(3) 0.2090(3)
H9 H -0.6884 0.4385 0.1477
C8 C -0.7688(6) 0.3386(4) 0.2891(4)
H10 H -0.8153 0.3502 0.3517
H11 H -0.6693 0.2988 0.3063
C9 C -0.8769(6) 0.2677(4) 0.2493(4)
H12 H -0.8266 0.2499 0.1905
H13 H -0.8965 0.1983 0.3033
C10 C -1.0304(5) 0.3305(3) 0.2174(4)
H14 H -1.0850 0.3420 0.2778
H15 H -1.0958 0.2865 0.1891
C11 C -1.0035(5) 0.4426(3) 0.1371(3)
H16 H -1.1033 0.4819 0.1198
H17 H -0.9567 0.4307 0.0747
C12 C -0.8962(4) 0.5141(3) 0.1766(3)
H18 H -0.9474 0.5284 0.2376
C13 C -0.9682(4) 0.7077(3) 0.0809(3)
C14 C -0.9091(4) 0.8162(3) 0.0086(3)
C15 C -1.0007(5) 0.8843(4) -0.0686(4)
H19 H -1.1009 0.8639 -0.0783
C16 C -0.9394(5) 0.9842(4) -0.1316(4)
H20 H -0.9962 1.0301 -0.1861
C17 C -0.7938(5) 1.0134(4) -0.1116(4)
H21 H -0.7540 1.0802 -0.1536
C18 C -0.7641(4) 0.8527(3) 0.0230(3)
H22 H -0.7032 0.8074 0.0755
C19 C 0.1380(4) 0.6890(3) 0.4292(3)
C20 C 0.1962(4) 0.8027(3) 0.4153(3)
C21 C 0.1897(5) 0.8510(3) 0.4957(3)
H23 H 0.1439 0.8126 0.5592
C22 C 0.2502(5) 0.9550(4) 0.4824(4)
C23 C 0.2412(7) 1.0074(5) 0.5692(5)
H24 H 0.2901 1.0783 0.5466
H25 H 0.2943 0.9594 0.6279
H26 H 0.1335 1.0176 0.5883
C24 C 0.3208(5) 1.0103(3) 0.3859(4)
H27 H 0.3645 1.0793 0.3763
C25 C 0.3267(5) 0.9645(3) 0.3050(4)
C26 C 0.2617(4) 0.8612(3) 0.3206(3)
H28 H 0.2624 0.8307 0.2661
C27 C 0.4035(5) 1.0224(4) 0.2007(4)
N1A N -0.8072(4) 1.4251(3) -0.4175(3)
C1A C -0.7601(5) 1.3203(3) -0.4133(4)
H1A H -0.8133 1.2832 -0.4508
O2A O -0.3985(4) 0.7878(3) 0.0440(3)
H2A H -0.4441 0.7919 0.0998
H3A H -0.3204 0.7427 0.0603
N2A N -0.2931(4) 1.0494(3) 0.0351(3)
C2A C -0.6358(5) 1.2662(4) -0.3554(4)
H4A H -0.6070 1.1934 -0.3530
N3A N -0.3604(4) 1.4812(3) -0.2491(3)
H5A H -0.3179 1.4296 -0.2718
C3A C -0.5545(5) 1.3211(4) -0.3009(4)
H6A H -0.4708 1.2856 -0.2611
N4A N -0.1345(4) 1.3785(3) -0.0993(3)
H7A H -0.2220 1.3706 -0.0644
C4A C -0.5989(4) 1.4296(3) -0.3063(3)
O6A O -0.5886(4) 1.5632(3) -0.2164(3)
C5A C -0.7269(5) 1.4765(3) -0.3639(3)
H8A H -0.7594 1.5485 -0.3656
O7A O 0.1011(3) 1.2967(2) -0.1209(3)
C6A C -0.5154(5) 1.4966(4) -0.2520(3)
C7A C -0.2592(4) 1.5486(3) -0.2090(3)
H9A H -0.3116 1.5615 -0.1477
C8A C -0.2312(6) 1.6614(4) -0.2891(4)
H10A H -0.1847 1.6498 -0.3517
H11A H -0.3307 1.7012 -0.3063
C9A C -0.1231(6) 1.7323(4) -0.2493(4)
H12A H -0.1734 1.7501 -0.1905
H13A H -0.1035 1.8017 -0.3033
C10A C 0.0304(5) 1.6695(3) -0.2174(4)
H14A H 0.0850 1.6580 -0.2778
H15A H 0.0958 1.7135 -0.1891
C11A C 0.0035(5) 1.5574(3) -0.1371(3)
H16A H 0.1033 1.5181 -0.1198
H17A H -0.0433 1.5693 -0.0747
C12A C -0.1038(4) 1.4859(3) -0.1766(3)
H18A H -0.0526 1.4716 -0.2376
C13A C -0.0318(4) 1.2923(3) -0.0809(3)
C14A C -0.0909(4) 1.1838(3) -0.0086(3)
C15A C 0.0007(5) 1.1157(4) 0.0686(4)
H19A H 0.1009 1.1361 0.0783
C16A C -0.0606(5) 1.0158(4) 0.1316(4)
H20A H -0.0038 0.9699 0.1861
C17A C -0.2062(5) 0.9866(4) 0.1116(4)
H21A H -0.2460 0.9198 0.1536
C18A C -0.2359(4) 1.1473(3) -0.0230(3)
H22A H -0.2968 1.1926 -0.0755
O1A O -0.0581(3) 0.3567(2) 0.4876(2)
O3A O -0.4240(4) 0.0366(3) 0.8584(3)
O4A O -0.1672(3) 0.3589(2) 0.6377(2)
O5A O -0.4425(7) -0.1186(3) 0.8172(4)
C19A C -0.1380(4) 0.3110(3) 0.5708(3)
C20A C -0.1962(4) 0.1973(3) 0.5847(3)
C21A C -0.1897(5) 0.1490(3) 0.5043(3)
H23A H -0.1439 0.1874 0.4408
C22A C -0.2502(5) 0.0450(4) 0.5176(4)
C23A C -0.2412(7) -0.0074(5) 0.4308(5)
H24A H -0.2901 -0.0783 0.4534
H25A H -0.2943 0.0406 0.3721
H26A H -0.1335 -0.0176 0.4117
C24A C -0.3208(5) -0.0103(3) 0.6141(4)
H27A H -0.3645 -0.0793 0.6237
C25A C -0.3267(5) 0.0355(3) 0.6950(4)
C26A C -0.2617(4) 0.1388(3) 0.6794(3)
H28A H -0.2624 0.1693 0.7339
C27A C -0.4035(5) -0.0224(4) 0.7993(4)
Cu1_2 Cu -1.0000 1.5000 -0.5000
N1A_2 N 0.1928(4) 0.4251(3) 0.5825(3)
Cu2_2 Cu -0.5000 0.0000 1.0000
Cu2_3 Cu 0.5000 1.0000 0.0000
O3_2 O -0.5760(4) 0.9634(3) 0.1416(3)
O3A_2 O -0.4240(4) 1.0366(3) -0.1416(3)
O8 O -0.4077(6) 0.3410(6) 0.0538(5)
H29 H -0.3976 0.3739 0.0992
H30 H -0.4305 0.2738 0.0851
loop_
_geom_bond_atom_site_label_1
_geom_bond_atom_site_label_2
_geom_bond_site_symmetry_1
_geom_bond_site_symmetry_2
Cu1 O1 1_555 1_555
O1 C19 1_555 1_555
N1 Cu1 1_555 1_555
C1 N1 1_555 1_555
H1 C1 1_555 1_555
O2 H2 1_555 1_555
H3 O2 1_555 1_555
Cu2 O2 1_555 1_555
N2 Cu2 1_555 1_555
O3 C27 1_555 1_555
C2 C1 1_555 1_555
H4 C2 1_555 1_555
O4 Cu1 1_555 1_555
N3 H5 1_555 1_555
C3 C2 1_555 1_555
H6 C3 1_555 1_555
N4 H7 1_555 1_555
C4 C3 1_555 1_555
O5 C27 1_555 1_555
O6 C6 1_555 1_555
C5 N1 1_555 1_555
H8 C5 1_555 1_555
O7 C13 1_555 1_555
C6 N3 1_555 1_555
C7 N3 1_555 1_555
H9 C7 1_555 1_555
C8 C7 1_555 1_555
H10 C8 1_555 1_555
H11 C8 1_555 1_555
C9 C8 1_555 1_555
H12 C9 1_555 1_555
H13 C9 1_555 1_555
C10 C9 1_555 1_555
H14 C10 1_555 1_555
H15 C10 1_555 1_555
C11 C10 1_555 1_555
H16 C11 1_555 1_555
H17 C11 1_555 1_555
C12 N4 1_555 1_555
H18 C12 1_555 1_555
C13 N4 1_555 1_555
C14 C13 1_555 1_555
C15 C14 1_555 1_555
H19 C15 1_555 1_555
C16 C15 1_555 1_555
H20 C16 1_555 1_555
C17 N2 1_555 1_555
H21 C17 1_555 1_555
C18 N2 1_555 1_555
H22 C18 1_555 1_555
C19 O4 1_555 1_555
C20 C19 1_555 1_555
C21 C20 1_555 1_555
H23 C21 1_555 1_555
C22 C21 1_555 1_555
C23 C22 1_555 1_555
H24 C23 1_555 1_555
H25 C23 1_555 1_555
H26 C23 1_555 1_555
C24 C22 1_555 1_555
H27 C24 1_555 1_555
C25 C24 1_555 1_555
C26 C20 1_555 1_555
H28 C26 1_555 1_555
C27 C25 1_555 1_555
O8 H29 1_555 1_555
H30 O8 1_555 1_555
N1A C1A 1_555 1_555
C1A H1A 1_555 1_555
O2A Cu2 1_555 1_555
H2A O2A 1_555 1_555
H3A O2A 1_555 1_555
N2A Cu2 1_555 1_555
C2A C1A 1_555 1_555
H4A C2A 1_555 1_555
N3A H5A 1_555 1_555
C3A C2A 1_555 1_555
H6A C3A 1_555 1_555
N4A H7A 1_555 1_555
C4A C3A 1_555 1_555
O6A C6A 1_555 1_555
C5A N1A 1_555 1_555
H8A C5A 1_555 1_555
O7A C13A 1_555 1_555
C6A N3A 1_555 1_555
C7A N3A 1_555 1_555
H9A C7A 1_555 1_555
C8A C7A 1_555 1_555
H10A C8A 1_555 1_555
H11A C8A 1_555 1_555
C9A C8A 1_555 1_555
H12A C9A 1_555 1_555
H13A C9A 1_555 1_555
C10A C9A 1_555 1_555
H14A C10A 1_555 1_555
H15A C10A 1_555 1_555
C11A C10A 1_555 1_555
H16A C11A 1_555 1_555
H17A C11A 1_555 1_555
C12A N4A 1_555 1_555
H18A C12A 1_555 1_555
C13A N4A 1_555 1_555
C14A C13A 1_555 1_555
C15A C14A 1_555 1_555
H19A C15A 1_555 1_555
C16A C15A 1_555 1_555
H20A C16A 1_555 1_555
C17A N2A 1_555 1_555
H21A C17A 1_555 1_555
C18A N2A 1_555 1_555
H22A C18A 1_555 1_555
O1A Cu1 1_555 1_555
O3A C27A 1_555 1_555
O4A Cu1 1_555 1_555
O5A C27A 1_555 1_555
C19A O1A 1_555 1_555
C20A C19A 1_555 1_555
C21A C20A 1_555 1_555
H23A C21A 1_555 1_555
C22A C21A 1_555 1_555
C23A C22A 1_555 1_555
H24A C23A 1_555 1_555
H25A C23A 1_555 1_555
H26A C23A 1_555 1_555
C24A C22A 1_555 1_555
H27A C24A 1_555 1_555
C25A C24A 1_555 1_555
C26A C20A 1_555 1_555
H28A C26A 1_555 1_555
C27A C25A 1_555 1_555
Cu1_2 N1A 1_555 1_555
N1A_2 Cu1 1_555 1_555
Cu2_2 O3A 1_555 1_555
Cu2_3 O3 1_555 1_555
O3_2 Cu2 1_555 1_555
O3A_2 Cu2 1_555 1_555
C4 C5 1_555 1_555
C4 C6 1_555 1_555
C7 C12 1_555 1_555
C11 C12 1_555 1_555
C14 C18 1_555 1_555
C16 C17 1_555 1_555
C25 C26 1_555 1_555
C4A C5A 1_555 1_555
C4A C6A 1_555 1_555
C7A C12A 1_555 1_555
C11A C12A 1_555 1_555
C14A C18A 1_555 1_555
C16A C17A 1_555 1_555
O4A C19A 1_555 1_555
C25A C26A 1_555 1_555

#END
