
#######################################################################
#
#                 Cambridge Crystallographic Data Centre
#                                CCDC 
#
#######################################################################
#
# If this CIF has been generated from an entry in the Cambridge 
# Structural Database, then it will include bibliographic, chemical, 
# crystal, experimental, refinement or atomic coordinate data resulting 
# from the CCDC's data processing and validation procedures.
#
#######################################################################

data_HOMDOE
_symmetry_cell_setting           triclinic
_symmetry_space_group_name_H-M   'P -1'
_symmetry_Int_Tables_number      2
_space_group_name_Hall           '-P 1'
loop_
_symmetry_equiv_pos_site_id
_symmetry_equiv_pos_as_xyz
1 x,y,z
2 -x,-y,-z
_cell_length_a                   9.2871(5)
_cell_length_b                   12.3172(7)
_cell_length_c                   12.6081(7)
_cell_angle_alpha                101.8690(10)
_cell_angle_beta                 91.7620(10)
_cell_angle_gamma                91.2360(10)
_cell_volume                     1410.18
loop_
_atom_site_label
_atom_site_type_symbol
_atom_site_fract_x
_atom_site_fract_y
_atom_site_fract_z
Ni1 Ni 0.18093(2) 0.370873(18) 0.595819(17)
O1 O 0.38517(13) 0.41010(10) 0.65122(10)
N1 N 0.19420(17) 0.21542(13) 0.64158(12)
C1 C 0.2981(2) 0.19803(18) 0.71139(18)
H1 H 0.3731 0.2505 0.7296
O2 O 0.15805(18) 0.53120(12) 0.57138(12)
H2 H 0.1919 0.5886 0.6152
H3 H 0.1512 0.5467 0.5088
O3 O 1.07747(13) 0.42952(12) 0.73860(10)
N2 N 0.75786(17) -0.30355(13) 0.55924(12)
C2 C 0.2994(2) 0.10592(19) 0.75757(19)
H4 H 0.3730 0.0978 0.8068
O4 O 0.94313(13) 0.36653(11) 0.59203(10)
N3 N 0.21435(19) -0.06061(13) 0.88347(13)
H5 H 0.2332 0.0061 0.9184
C3 C 0.1910(2) 0.02591(16) 0.73034(15)
O5 O 0.35597(14) 0.58580(11) 0.73656(12)
N4 N 0.45400(17) -0.20511(13) 0.88215(12)
H6 H 0.4106 -0.2475 0.8272
C4 C 0.0856(2) 0.04190(18) 0.65535(18)
H7 H 0.0123 -0.0112 0.6329
O6 O 0.1550(2) -0.16762(13) 0.71924(13)
C5 C 0.0906(2) 0.13662(17) 0.61460(17)
H8 H 0.0179 0.1467 0.5654
O7 O 0.66778(16) -0.12089(13) 0.94773(11)
C6 C 0.1850(2) -0.07632(16) 0.77778(16)
C7 C 0.2166(2) -0.14954(16) 0.94444(16)
H9 H 0.1790 -0.2181 0.8969
C8 C 0.1186(3) -0.1205(2) 1.0412(2)
H10 H 0.1451 -0.0469 1.0826
H11 H 0.0195 -0.1192 1.0149
C9 C 0.1302(3) -0.2038(2) 1.1148(2)
H12 H 0.0714 -0.1808 1.1772
H13 H 0.0940 -0.2760 1.0758
C10 C 0.2850(3) -0.2128(2) 1.15247(19)
H14 H 0.2904 -0.2660 1.1994
H15 H 0.3207 -0.1414 1.1935
C11 C 0.3772(2) -0.24988(18) 1.05488(17)
H16 H 0.3428 -0.3223 1.0154
H17 H 0.4760 -0.2565 1.0793
C12 C 0.3720(2) -0.16759(15) 0.97971(14)
H18 H 0.4140 -0.0964 1.0189
C13 C 0.5921(2) -0.17726(15) 0.87359(14)
C14 C 0.6512(2) -0.21898(15) 0.76327(14)
C15 C 0.5639(2) -0.23125(18) 0.67002(16)
H19 H 0.4678 -0.2117 0.6746
C16 C 0.6206(2) -0.27259(18) 0.57085(16)
H20 H 0.5611 -0.2794 0.5090
C17 C 0.8427(2) -0.28899(17) 0.64895(15)
H21 H 0.9386 -0.3084 0.6421
C18 C 0.7944(2) -0.24637(17) 0.75148(16)
H22 H 0.8574 -0.2362 0.8117
C19 C 0.42688(18) 0.49993(15) 0.71415(14)
C20 C 0.57545(18) 0.49977(14) 0.76519(14)
C21 C 0.5983(2) 0.54612(15) 0.87432(15)
H23 H 0.5205 0.5746 0.9148
C22 C 0.7340(2) 0.55135(17) 0.92517(15)
C23 C 0.7557(3) 0.6025(2) 1.04360(17)
H24 H 0.6651 0.6271 1.0730
H25 H 0.8223 0.6647 1.0523
H26 H 0.7937 0.5485 1.0812
C24 C 0.8483(2) 0.50929(16) 0.86245(15)
H27 H 0.9405 0.5136 0.8942
C25 C 0.82755(19) 0.46085(15) 0.75319(14)
C26 C 0.69055(19) 0.45472(15) 0.70407(14)
H28 H 0.6759 0.4210 0.6313
C27 C 0.95573(19) 0.41643(15) 0.69171(14)
Ni1_2 Ni 1.18093(2) 0.370873(18) 0.595819(17)
Ni1A Ni 0.81907(2) -0.370873(18) 0.404181(17)
O3_2 O 0.07747(13) 0.42952(12) 0.73860(10)
N2A N 0.24214(17) 0.30355(13) 0.44076(12)
O4_2 O -0.05687(13) 0.36653(11) 0.59203(10)
O8 O 0.2583(3) -0.1988(2) 0.5093(2)
H29 H 0.3340 -0.1999 0.4731
H30 H 0.1867 -0.2141 0.4648
loop_
_geom_bond_atom_site_label_1
_geom_bond_atom_site_label_2
_geom_bond_site_symmetry_1
_geom_bond_site_symmetry_2
Ni1 O1 1_555 1_555
O1 C19 1_555 1_555
N1 Ni1 1_555 1_555
C1 N1 1_555 1_555
H1 C1 1_555 1_555
O2 Ni1 1_555 1_555
H2 O2 1_555 1_555
H3 O2 1_555 1_555
O3 C27 1_555 1_555
N2 C16 1_555 1_555
C2 C1 1_555 1_555
H4 C2 1_555 1_555
O4 C27 1_555 1_555
N3 H5 1_555 1_555
C3 C2 1_555 1_555
O5 C19 1_555 1_555
N4 H6 1_555 1_555
C4 C3 1_555 1_555
H7 C4 1_555 1_555
O6 C6 1_555 1_555
C5 N1 1_555 1_555
H8 C5 1_555 1_555
O7 C13 1_555 1_555
C6 N3 1_555 1_555
C7 N3 1_555 1_555
H9 C7 1_555 1_555
C8 C7 1_555 1_555
H10 C8 1_555 1_555
H11 C8 1_555 1_555
C9 C8 1_555 1_555
H12 C9 1_555 1_555
H13 C9 1_555 1_555
C10 C9 1_555 1_555
H14 C10 1_555 1_555
H15 C10 1_555 1_555
C11 C10 1_555 1_555
H16 C11 1_555 1_555
H17 C11 1_555 1_555
C12 N4 1_555 1_555
H18 C12 1_555 1_555
C13 N4 1_555 1_555
C14 C13 1_555 1_555
C15 C14 1_555 1_555
H19 C15 1_555 1_555
C16 C15 1_555 1_555
H20 C16 1_555 1_555
C17 N2 1_555 1_555
H21 C17 1_555 1_555
C18 C14 1_555 1_555
H22 C18 1_555 1_555
C19 C20 1_555 1_555
C20 C21 1_555 1_555
C21 H23 1_555 1_555
C22 C21 1_555 1_555
C23 C22 1_555 1_555
H24 C23 1_555 1_555
H25 C23 1_555 1_555
H26 C23 1_555 1_555
C24 C22 1_555 1_555
H27 C24 1_555 1_555
C25 C24 1_555 1_555
C26 C20 1_555 1_555
H28 C26 1_555 1_555
C27 C25 1_555 1_555
O8 H29 1_555 1_555
H30 O8 1_555 1_555
Ni1_2 O3 1_555 1_555
Ni1A N2 1_555 1_555
O3_2 Ni1 1_555 1_555
N2A Ni1 1_555 1_555
O4_2 Ni1 1_555 1_555
O4 Ni1_2 1_555 1_555
C3 C6 1_555 1_555
C4 C5 1_555 1_555
C7 C12 1_555 1_555
C11 C12 1_555 1_555
C17 C18 1_555 1_555
C25 C26 1_555 1_555

#END
