
#######################################################################
#
#                 Cambridge Crystallographic Data Centre
#                                CCDC 
#
#######################################################################
#
# If this CIF has been generated from an entry in the Cambridge 
# Structural Database, then it will include bibliographic, chemical, 
# crystal, experimental, refinement or atomic coordinate data resulting 
# from the CCDC's data processing and validation procedures.
#
#######################################################################

data_HOMDEU
_symmetry_cell_setting           monoclinic
_symmetry_space_group_name_H-M   'C 2/c'
_symmetry_Int_Tables_number      15
_space_group_name_Hall           '-C 2yn'
loop_
_symmetry_equiv_pos_site_id
_symmetry_equiv_pos_as_xyz
1 x,y,z
2 -x,y,1/2-z
3 1/2+x,1/2+y,z
4 1/2-x,1/2+y,1/2-z
5 -x,-y,-z
6 x,-y,1/2+z
7 1/2-x,1/2-y,-z
8 1/2+x,1/2-y,1/2+z
_cell_length_a                   16.0916(9)
_cell_length_b                   11.9795(7)
_cell_length_c                   28.9604(16)
_cell_angle_alpha                90
_cell_angle_beta                 98.4760(10)
_cell_angle_gamma                90
_cell_volume                     5521.7
loop_
_atom_site_label
_atom_site_type_symbol
_atom_site_fract_x
_atom_site_fract_y
_atom_site_fract_z
Co1 Co -0.130336(18) 0.50402(2) -0.017807(10)
O1 O -0.04883(11) 0.37886(15) 0.00151(7)
N1 N -0.12579(13) 0.46897(18) -0.09028(7)
C1 C -0.09185(19) 0.3788(2) -0.10736(10)
H1 H -0.0748 0.3199 -0.0872
O2 O -0.23246(11) -0.06942(14) 0.04064(6)
N2 N -0.13697(13) 0.44364(17) -0.44818(7)
C2 C -0.0811(2) 0.3696(2) -0.15354(11)
H2 H -0.0577 0.3053 -0.1642
O3 O 0.08355(10) 0.34502(14) 0.03053(6)
N3 N -0.13645(15) 0.67359(18) -0.23190(7)
H3 H -0.0894 0.6352 -0.2435
C3 C -0.10532(19) 0.4562(3) -0.18381(10)
H4 H -0.0972 0.4523 -0.2149
O4 O -0.26430(10) 0.09866(14) 0.01444(6)
N4 N -0.14627(15) 0.66875(18) -0.33488(7)
H5 H -0.1867 0.6767 -0.3576
C4 C -0.14207(17) 0.5494(2) -0.16696(8)
O5 O -0.23265(15) 0.70424(19) -0.18417(7)
C5 C -0.15156(16) 0.5508(2) -0.12021(9)
H6 H -0.1775 0.6125 -0.1090
O6 O -0.06175(14) 0.5419(2) -0.29328(7)
C6 C -0.17468(18) 0.6490(2) -0.19533(9)
C7 C -0.15925(18) 0.7718(2) -0.26069(9)
H7 H -0.2206 0.7737 -0.2687
C8 C -0.1311(2) 0.8778(2) -0.23398(10)
H8 H -0.1579 0.8818 -0.2062
H9 H -0.0708 0.8748 -0.2242
C9 C -0.1524(3) 0.9818(3) -0.26300(13)
H10 H -0.2130 0.9902 -0.2693
H11 H -0.1296 1.0466 -0.2454
C10 C -0.1180(3) 0.9774(3) -0.30834(13)
H12 H -0.0572 0.9822 -0.3022
H13 H -0.1386 1.0412 -0.3273
C11 C -0.1433(2) 0.8709(3) -0.33510(10)
H14 H -0.1150 0.8678 -0.3624
H15 H -0.2033 0.8723 -0.3457
C12 C -0.12141(19) 0.7658(2) -0.30559(9)
H16 H -0.0602 0.7635 -0.2971
C13 C -0.11061(17) 0.5681(2) -0.32858(9)
C14 C -0.13261(19) 0.4859(2) -0.36730(9)
C15 C -0.1572(2) 0.3784(3) -0.35872(10)
H17 H -0.1632 0.3562 -0.3286
C16 C -0.1727(2) 0.3045(2) -0.39545(11)
H18 H -0.1902 0.2320 -0.3906
C17 C -0.16178(18) 0.3397(2) -0.43946(10)
H19 H -0.1720 0.2894 -0.4641
C18 C -0.12313(17) 0.5153(2) -0.41257(9)
H20 H -0.1065 0.5877 -0.4183
C19 C 0.00792(13) 0.31767(18) 0.02157(7)
C20 C -0.01519(13) 0.20297(18) 0.03599(8)
C21 C 0.04501(15) 0.1328(2) 0.06052(9)
H21 H 0.1003 0.1572 0.0676
C22 C 0.02368(16) 0.0271(2) 0.07456(10)
C23 C 0.0887(2) -0.0462(3) 0.10230(15)
H22 H 0.1374 -0.0024 0.1138
H23 H 0.1043 -0.1048 0.0827
H24 H 0.0660 -0.0780 0.1282
C24 C -0.05914(17) -0.00822(19) 0.06350(9)
H25 H -0.0741 -0.0793 0.0723
C25 C -0.11975(14) 0.06103(19) 0.03964(8)
C26 C -0.09761(13) 0.16684(19) 0.02610(8)
H26 H -0.1383 0.2136 0.0103
C27 C -0.21002(15) 0.0261(2) 0.03098(8)
Co1D Co 0.130336(18) 0.49598(2) 0.017807(10)
Co1E Co -0.130336(18) 0.49598(2) -0.517807(10)
Co1F Co -0.369664(18) -0.00402(2) 0.017807(10)
O2F O -0.26754(11) 0.56942(14) -0.04064(6)
N2E N -0.13697(13) 0.55636(17) 0.05182(7)
O3D O -0.08355(10) 0.65498(14) -0.03053(6)
O4F O -0.23570(10) 0.40134(14) -0.01444(6)
O7 O -0.24639(13) 0.20996(17) -0.07492(7)
H27 H -0.2404 0.2753 -0.0634
H28 H -0.2515 0.1664 -0.0523
loop_
_geom_bond_atom_site_label_1
_geom_bond_atom_site_label_2
_geom_bond_site_symmetry_1
_geom_bond_site_symmetry_2
Co1 O1 1_555 1_555
O1 C19 1_555 1_555
N1 Co1 1_555 1_555
C1 N1 1_555 1_555
H1 C1 1_555 1_555
O2 C27 1_555 1_555
N2 C17 1_555 1_555
C2 C1 1_555 1_555
H2 C2 1_555 1_555
O3 C19 1_555 1_555
N3 H3 1_555 1_555
C3 C2 1_555 1_555
H4 C3 1_555 1_555
O4 C27 1_555 1_555
N4 H5 1_555 1_555
C4 C3 1_555 1_555
O5 C6 1_555 1_555
C5 N1 1_555 1_555
H6 C5 1_555 1_555
O6 C13 1_555 1_555
C6 N3 1_555 1_555
C7 N3 1_555 1_555
H7 C7 1_555 1_555
C8 C7 1_555 1_555
H8 C8 1_555 1_555
H9 C8 1_555 1_555
C9 C8 1_555 1_555
H10 C9 1_555 1_555
H11 C9 1_555 1_555
C10 C9 1_555 1_555
H12 C10 1_555 1_555
H13 C10 1_555 1_555
C11 C10 1_555 1_555
H14 C11 1_555 1_555
H15 C11 1_555 1_555
C12 N4 1_555 1_555
H16 C12 1_555 1_555
C13 N4 1_555 1_555
C14 C13 1_555 1_555
C15 C14 1_555 1_555
H17 C15 1_555 1_555
C16 C15 1_555 1_555
H18 C16 1_555 1_555
C17 C16 1_555 1_555
H19 C17 1_555 1_555
C18 N2 1_555 1_555
H20 C18 1_555 1_555
C19 C20 1_555 1_555
C20 C21 1_555 1_555
C21 H21 1_555 1_555
C22 C21 1_555 1_555
C23 C22 1_555 1_555
H22 C23 1_555 1_555
H23 C23 1_555 1_555
H24 C23 1_555 1_555
C24 C22 1_555 1_555
H25 C24 1_555 1_555
C25 C24 1_555 1_555
C26 C20 1_555 1_555
H26 C26 1_555 1_555
C27 C25 1_555 1_555
O7 H27 1_555 1_555
H28 O7 1_555 1_555
Co1D O3 1_555 1_555
Co1E N2 1_555 1_555
Co1F O2 1_555 1_555
O2F Co1 1_555 1_555
N2E Co1 1_555 1_555
O3D Co1 1_555 1_555
O4F Co1 1_555 1_555
O4 Co1F 1_555 1_555
C4 C5 1_555 1_555
C4 C6 1_555 1_555
C7 C12 1_555 1_555
C11 C12 1_555 1_555
C14 C18 1_555 1_555
C25 C26 1_555 1_555

#END
