
#######################################################################
#
#                 Cambridge Crystallographic Data Centre
#                                CCDC 
#
#######################################################################
#
# If this CIF has been generated from an entry in the Cambridge 
# Structural Database, then it will include bibliographic, chemical, 
# crystal, experimental, refinement or atomic coordinate data resulting 
# from the CCDC's data processing and validation procedures.
#
#######################################################################

data_HOMDUK
_symmetry_cell_setting           triclinic
_symmetry_space_group_name_H-M   'P -1'
_symmetry_Int_Tables_number      2
_space_group_name_Hall           '-P 1'
loop_
_symmetry_equiv_pos_site_id
_symmetry_equiv_pos_as_xyz
1 x,y,z
2 -x,-y,-z
_cell_length_a                   10.0650(13)
_cell_length_b                   10.7495(13)
_cell_length_c                   13.3794(17)
_cell_angle_alpha                106.173(2)
_cell_angle_beta                 95.602(2)
_cell_angle_gamma                108.674(2)
_cell_volume                     1289.03
loop_
_atom_site_label
_atom_site_type_symbol
_atom_site_fract_x
_atom_site_fract_y
_atom_site_fract_z
Co1 Co 1.09441(5) 1.34108(5) 0.43428(4)
O1 O 0.9021(2) 1.2842(2) 0.4785(2)
O2 O 0.2135(2) 1.2876(2) 0.56085(19)
O3 O 0.8349(2) 1.4558(2) 0.45930(18)
O4 O 0.2994(3) 1.3353(3) 0.42646(19)
O5 O 0.6702(3) 0.6738(3) 0.0637(2)
O6 O 0.8851(4) 0.3165(4) -0.0475(3)
N1 N 0.9998(3) 1.1233(3) 0.3278(2)
N2 N 0.9119(3) 0.5883(3) -0.2989(2)
N3 N 0.7164(3) 0.6062(3) 0.2046(2)
H1 H 0.7649 0.6316 0.2681
N4 N 0.7321(4) 0.4254(3) 0.0005(2)
H2 H 0.6939 0.4816 -0.0127
C1 C 0.8991(5) 1.0885(4) 0.2425(3)
H3 H 0.8865 1.1590 0.2198
C2 C 0.8125(5) 0.9534(4) 0.1863(3)
H4 H 0.7436 0.9338 0.1268
C3 C 0.8285(4) 0.8472(4) 0.2184(3)
C4 C 0.9346(4) 0.8819(4) 0.3053(3)
H5 H 0.9498 0.8132 0.3292
C5 C 1.0181(4) 1.0201(4) 0.3564(3)
H6 H 1.0910 1.0421 0.4140
C6 C 0.7316(4) 0.7011(4) 0.1556(3)
C7 C 0.6201(4) 0.4600(4) 0.1544(3)
H7 H 0.5371 0.4575 0.1079
C8 C 0.5671(4) 0.4013(4) 0.2397(3)
H8 H 0.5156 0.4549 0.2779
H9 H 0.6488 0.4106 0.2901
C9 C 0.4691(5) 0.2487(4) 0.1941(3)
H10 H 0.4406 0.2145 0.2516
H11 H 0.3832 0.2396 0.1483
C10 C 0.5443(5) 0.1640(4) 0.1319(4)
H12 H 0.4803 0.0676 0.1022
H13 H 0.6270 0.1687 0.1787
C11 C 0.5926(5) 0.2180(4) 0.0423(3)
H14 H 0.5095 0.2083 -0.0067
H15 H 0.6425 0.1631 0.0034
C12 C 0.6919(4) 0.3707(4) 0.0869(3)
H16 H 0.7790 0.3781 0.1317
C13 C 0.8232(4) 0.3948(4) -0.0587(3)
C14 C 0.8510(4) 0.4654(4) -0.1417(3)
C15 C 0.7896(5) 0.5574(5) -0.1573(4)
H17 H 0.7271 0.5804 -0.1152
C16 C 0.8215(5) 0.6153(5) -0.2362(3)
H18 H 0.7779 0.6764 -0.2463
C17 C 0.9748(4) 0.5032(4) -0.2806(3)
H19 H 1.0409 0.4853 -0.3209
C18 C 0.9459(4) 0.4397(4) -0.2038(3)
H20 H 0.9912 0.3795 -0.1945
C19 C 0.8164(3) 1.3481(3) 0.4848(3)
C20 C 0.6828(3) 1.2889(3) 0.5240(3)
C21 C 0.6776(4) 1.2008(4) 0.5833(3)
H21 H 0.7563 1.1758 0.5964
C22 C 0.5572(4) 1.1491(4) 0.6233(3)
C23 C 0.5544(5) 1.0568(5) 0.6905(4)
H22 H 0.6079 0.9990 0.6656
H23 H 0.4570 0.9994 0.6854
H24 H 0.5964 1.1133 0.7633
C24 C 0.4394(4) 1.1846(4) 0.5999(3)
H25 H 0.3576 1.1504 0.6257
C25 C 0.4415(4) 1.2701(3) 0.5389(3)
C26 C 0.3114(3) 1.3001(3) 0.5075(3)
C27 C 0.5649(3) 1.3243(3) 0.5018(3)
H26 H 0.5681 1.3838 0.4624
Co1_2 Co 0.09441(5) 1.34108(5) 0.43428(4)
Co1A Co 0.90559(5) 0.65892(5) -0.43428(4)
Co1A_2 Co 0.90559(5) 1.65892(5) 0.56572(4)
O2_2 O 1.2135(2) 1.2876(2) 0.56085(19)
O3A O 1.1651(2) 1.5442(2) 0.54070(18)
O4_2 O 1.2994(3) 1.3353(3) 0.42646(19)
N2A N 1.0881(3) 1.4117(3) 0.2989(2)
loop_
_geom_bond_atom_site_label_1
_geom_bond_atom_site_label_2
_geom_bond_site_symmetry_1
_geom_bond_site_symmetry_2
Co1 O1 1_555 1_555
O1 C19 1_555 1_555
O2 C26 1_555 1_555
O3 C19 1_555 1_555
O4 C26 1_555 1_555
O5 C6 1_555 1_555
O6 C13 1_555 1_555
N1 Co1 1_555 1_555
N2 C16 1_555 1_555
N3 H1 1_555 1_555
N4 H2 1_555 1_555
C1 N1 1_555 1_555
H3 C1 1_555 1_555
C2 C1 1_555 1_555
H4 C2 1_555 1_555
C3 C2 1_555 1_555
C4 C3 1_555 1_555
H5 C4 1_555 1_555
C5 N1 1_555 1_555
H6 C5 1_555 1_555
C6 N3 1_555 1_555
C7 N3 1_555 1_555
H7 C7 1_555 1_555
C8 C7 1_555 1_555
H8 C8 1_555 1_555
H9 C8 1_555 1_555
C9 C8 1_555 1_555
H10 C9 1_555 1_555
H11 C9 1_555 1_555
C10 C9 1_555 1_555
H12 C10 1_555 1_555
H13 C10 1_555 1_555
C11 C10 1_555 1_555
H14 C11 1_555 1_555
H15 C11 1_555 1_555
C12 N4 1_555 1_555
H16 C12 1_555 1_555
C13 N4 1_555 1_555
C14 C13 1_555 1_555
C15 C14 1_555 1_555
H17 C15 1_555 1_555
C16 C15 1_555 1_555
H18 C16 1_555 1_555
C17 N2 1_555 1_555
H19 C17 1_555 1_555
C18 C14 1_555 1_555
H20 C18 1_555 1_555
C19 C20 1_555 1_555
C20 C21 1_555 1_555
C21 H21 1_555 1_555
C22 C21 1_555 1_555
C23 C22 1_555 1_555
H22 C23 1_555 1_555
H23 C23 1_555 1_555
H24 C23 1_555 1_555
C24 C22 1_555 1_555
H25 C24 1_555 1_555
C25 C24 1_555 1_555
C26 C25 1_555 1_555
C27 C20 1_555 1_555
H26 C27 1_555 1_555
Co1_2 O2 1_555 1_555
Co1A N2 1_555 1_555
Co1A_2 O3 1_555 1_555
O2_2 Co1 1_555 1_555
O3A Co1 1_555 1_555
O4_2 Co1 1_555 1_555
N2A Co1 1_555 1_555
O4 Co1_2 1_555 1_555
C3 C6 1_555 1_555
C4 C5 1_555 1_555
C7 C12 1_555 1_555
C11 C12 1_555 1_555
C17 C18 1_555 1_555
C25 C27 1_555 1_555

#END
