
#######################################################################
#
#                 Cambridge Crystallographic Data Centre
#                                CCDC 
#
#######################################################################
#
# If this CIF has been generated from an entry in the Cambridge 
# Structural Database, then it will include bibliographic, chemical, 
# crystal, experimental, refinement or atomic coordinate data resulting 
# from the CCDC's data processing and validation procedures.
#
#######################################################################

data_HOMFIA
_symmetry_cell_setting           triclinic
_symmetry_space_group_name_H-M   'P -1'
_symmetry_Int_Tables_number      2
_space_group_name_Hall           '-P 1'
loop_
_symmetry_equiv_pos_site_id
_symmetry_equiv_pos_as_xyz
1 x,y,z
2 -x,-y,-z
_cell_length_a                   10.142(5)
_cell_length_b                   10.609(5)
_cell_length_c                   13.427(7)
_cell_angle_alpha                106.332(9)
_cell_angle_beta                 96.519(9)
_cell_angle_gamma                106.596(9)
_cell_volume                     1298.8
loop_
_atom_site_label
_atom_site_type_symbol
_atom_site_fract_x
_atom_site_fract_y
_atom_site_fract_z
Cd1 Cd -0.09235(4) 0.14522(5) 0.05959(3)
O1 O 0.0863(4) 0.2339(5) -0.0113(4)
N1 N -0.0936(5) 0.0713(6) 0.2067(4)
C1 C -0.0237(6) -0.0061(7) 0.2322(5)
H1 H 0.0471 -0.0205 0.1967
O2 O 0.1594(4) 0.0884(4) 0.0498(3)
N2 N -0.0029(6) 0.6179(5) 0.8208(4)
C2 C -0.0513(7) -0.0670(8) 0.3097(5)
H2 H 0.0003 -0.1215 0.3249
O3 O 0.6780(4) 0.1524(5) 0.0705(4)
N3 N -0.2713(6) -0.0804(6) 0.5047(4)
H3 H -0.3090 -0.0227 0.4906
C3 C -0.1527(7) -0.0478(7) 0.3634(5)
O4 O 0.7657(4) 0.2027(5) -0.0606(3)
N4 N -0.2876(5) 0.1046(5) 0.7058(4)
H4 H -0.2400 0.1295 0.7694
C4 C -0.2226(9) 0.0376(9) 0.3393(6)
H5 H -0.2898 0.0578 0.3769
O5 O -0.1195(6) -0.1957(6) 0.4610(4)
C5 C -0.1934(8) 0.0923(9) 0.2604(6)
H6 H -0.2446 0.1462 0.2434
O6 O -0.3304(5) 0.1709(5) 0.5630(3)
C6 C -0.1805(7) -0.1152(8) 0.4476(5)
C7 C -0.3111(7) -0.1343(7) 0.5899(5)
H7 H -0.2256 -0.1291 0.6353
C8 C -0.4078(8) -0.2842(7) 0.5467(6)
H8 H -0.3587 -0.3420 0.5088
H9 H -0.4890 -0.2917 0.4968
C9 C -0.4569(8) -0.3368(7) 0.6349(6)
H10 H -0.5205 -0.4321 0.6046
H11 H -0.3765 -0.3357 0.6822
C10 C -0.5306(7) -0.2470(7) 0.6966(6)
H12 H -0.5591 -0.2802 0.7538
H13 H -0.6146 -0.2529 0.6504
C11 C -0.4331(7) -0.0960(7) 0.7424(5)
H14 H -0.4827 -0.0390 0.7806
H15 H -0.3527 -0.0898 0.7925
C12 C -0.3819(6) -0.0400(6) 0.6564(5)
H16 H -0.4636 -0.0407 0.6094
C13 C -0.2726(7) 0.1993(6) 0.6563(5)
C14 C -0.1760(6) 0.3447(6) 0.7165(5)
C15 C -0.0761(7) 0.3801(7) 0.8082(5)
H17 H -0.0657 0.3121 0.8365
C16 C 0.0071(7) 0.5163(7) 0.8565(5)
H18 H 0.0740 0.5384 0.9177
C17 C -0.0970(8) 0.5846(7) 0.7324(6)
H19 H -0.1043 0.6548 0.7056
C18 C -0.1850(8) 0.4490(7) 0.6786(6)
H20 H -0.2499 0.4293 0.6168
C19 C 0.1769(6) 0.1811(6) 0.0050(4)
C20 C 0.3114(6) 0.2292(6) -0.0310(5)
C21 C 0.4244(6) 0.1891(6) -0.0042(5)
H21 H 0.4186 0.1328 0.0382
C22 C 0.5467(6) 0.2322(6) -0.0401(5)
C23 C 0.6709(6) 0.1920(6) -0.0080(5)
C24 C 0.5525(6) 0.3135(7) -0.1056(5)
H22 H 0.6335 0.3403 -0.1315
C25 C 0.4407(6) 0.3554(6) -0.1332(5)
C26 C 0.3218(6) 0.3127(6) -0.0950(5)
H23 H 0.2457 0.3406 -0.1124
C27 C 0.4494(8) 0.4441(9) -0.2040(7)
H24 H 0.3634 0.4643 -0.2140
H25 H 0.4635 0.3948 -0.2715
H26 H 0.5268 0.5296 -0.1715
Cd1_2 Cd 0.90765(4) 0.14522(5) 0.05959(3)
Cd1A Cd 0.09235(4) -0.14522(5) -0.05959(3)
Cd1A_2 Cd 0.09235(4) 0.85478(5) 0.94041(3)
O2A O -0.1594(4) -0.0884(4) -0.0498(3)
N2A N 0.0029(6) 0.3821(5) 0.1792(4)
O3_2 O -0.3220(4) 0.1524(5) 0.0705(4)
O4_2 O -0.2343(4) 0.2027(5) -0.0606(3)
loop_
_geom_bond_atom_site_label_1
_geom_bond_atom_site_label_2
_geom_bond_site_symmetry_1
_geom_bond_site_symmetry_2
Cd1 O1 1_555 1_555
O1 C19 1_555 1_555
N1 Cd1 1_555 1_555
C1 N1 1_555 1_555
H1 C1 1_555 1_555
O2 Cd1 1_555 1_555
N2 C16 1_555 1_555
C2 C1 1_555 1_555
H2 C2 1_555 1_555
O3 C23 1_555 1_555
N3 H3 1_555 1_555
C3 C2 1_555 1_555
O4 C23 1_555 1_555
N4 H4 1_555 1_555
C4 C3 1_555 1_555
H5 C4 1_555 1_555
O5 C6 1_555 1_555
C5 N1 1_555 1_555
H6 C5 1_555 1_555
O6 C13 1_555 1_555
C6 N3 1_555 1_555
C7 N3 1_555 1_555
H7 C7 1_555 1_555
C8 C7 1_555 1_555
H8 C8 1_555 1_555
H9 C8 1_555 1_555
C9 C8 1_555 1_555
H10 C9 1_555 1_555
H11 C9 1_555 1_555
C10 C9 1_555 1_555
H12 C10 1_555 1_555
H13 C10 1_555 1_555
C11 C10 1_555 1_555
H14 C11 1_555 1_555
H15 C11 1_555 1_555
C12 N4 1_555 1_555
H16 C12 1_555 1_555
C13 N4 1_555 1_555
C14 C13 1_555 1_555
C15 C14 1_555 1_555
H17 C15 1_555 1_555
C16 C15 1_555 1_555
H18 C16 1_555 1_555
C17 N2 1_555 1_555
H19 C17 1_555 1_555
C18 C14 1_555 1_555
H20 C18 1_555 1_555
C19 O2 1_555 1_555
C20 C19 1_555 1_555
C21 C20 1_555 1_555
H21 C21 1_555 1_555
C22 C21 1_555 1_555
C23 C22 1_555 1_555
C24 C22 1_555 1_555
H22 C24 1_555 1_555
C25 C24 1_555 1_555
C26 C20 1_555 1_555
H23 C26 1_555 1_555
C27 C25 1_555 1_555
H24 C27 1_555 1_555
H25 C27 1_555 1_555
H26 C27 1_555 1_555
Cd1_2 O3 1_555 1_555
Cd1A O2 1_555 1_555
Cd1A_2 N2 1_555 1_555
O2A Cd1 1_555 1_555
N2A Cd1 1_555 1_555
O3_2 Cd1 1_555 1_555
O4_2 Cd1 1_555 1_555
C3 C6 1_555 1_555
O4 Cd1_2 1_555 1_555
C4 C5 1_555 1_555
C7 C12 1_555 1_555
C11 C12 1_555 1_555
C17 C18 1_555 1_555
C25 C26 1_555 1_555
Cd1A O2A 1_555 1_555

#END
