
#######################################################################
#
#                 Cambridge Crystallographic Data Centre
#                                CCDC 
#
#######################################################################
#
# If this CIF has been generated from an entry in the Cambridge 
# Structural Database, then it will include bibliographic, chemical, 
# crystal, experimental, refinement or atomic coordinate data resulting 
# from the CCDC's data processing and validation procedures.
#
#######################################################################

data_HOMGOH
_symmetry_cell_setting           monoclinic
_symmetry_space_group_name_H-M   'P 21/n'
_symmetry_Int_Tables_number      14
_space_group_name_Hall           '-P 2yn'
loop_
_symmetry_equiv_pos_site_id
_symmetry_equiv_pos_as_xyz
1 x,y,z
2 1/2-x,1/2+y,1/2-z
3 -x,-y,-z
4 1/2+x,1/2-y,1/2+z
_cell_length_a                   13.7954(14)
_cell_length_b                   10.8164(11)
_cell_length_c                   14.7343(15)
_cell_angle_alpha                90
_cell_angle_beta                 95.9250(10)
_cell_angle_gamma                90
_cell_volume                     2186.86
loop_
_atom_site_label
_atom_site_type_symbol
_atom_site_fract_x
_atom_site_fract_y
_atom_site_fract_z
Co1 Co 0.64994(2) 0.87106(3) 0.77686(2)
N1 N 0.53030(16) 0.8602(2) 0.67369(15)
N2 N 0.60172(16) 0.7221(2) 0.85859(15)
N3 N 0.77997(16) 0.9052(2) 0.87058(15)
O1 O 0.72241(13) 0.76432(18) 0.69767(12)
O2 O 0.68797(16) 1.04753(18) 0.71297(14)
O3 O 0.56332(13) 0.98362(18) 0.85207(12)
C1 C 0.5475(2) 0.8550(3) 0.58917(19)
C2 C 0.43130(19) 0.8603(3) 0.6914(2)
C3 C 0.5685(3) 0.6144(3) 0.8265(2)
C4 C 0.5949(2) 0.7413(3) 0.9469(2)
C5 C 0.78004(19) 0.9755(3) 0.94454(19)
C6 C 0.8675(2) 0.8694(3) 0.8485(2)
C7 C 0.7222(2) 0.7876(3) 0.60969(18)
H1 H 0.6808 1.0725 0.6580
H2 H 0.7203 1.1014 0.7453
S1 S 0.47634(5) 1.05173(7) 0.81278(5)
C8 C 0.6400(2) 0.8350(3) 0.55545(18)
H3 H 0.4943 0.8653 0.5457
C9 C 0.3655(2) 0.7777(3) 0.6458(2)
C10 C 0.39792(19) 0.9393(3) 0.75623(19)
H4 H 0.5717 0.5978 0.7650
C11 C 0.5295(3) 0.5254(3) 0.8787(2)
C12 C 0.5575(2) 0.6571(3) 1.0038(2)
H5 H 0.6168 0.8165 0.9717
H6 H 0.7202 0.9998 0.9624
C13 C 0.86297(19) 1.0146(3) 0.99633(19)
C14 C 0.9541(2) 0.9027(3) 0.8974(2)
H7 H 0.8700 0.8195 0.7974
C15 C 0.8050(2) 0.7612(3) 0.5651(2)
O4 O 0.50020(17) 1.13793(19) 0.74307(17)
O5 O 0.42376(17) 1.1047(2) 0.88198(17)
C16 C 0.6441(3) 0.8541(3) 0.4612(2)
H8 H 0.3865 0.7233 0.6030
C17 C 0.2692(2) 0.7763(3) 0.6640(3)
C18 C 0.3011(2) 0.9358(3) 0.7740(2)
H9 H 0.5078 0.4512 0.8520
C19 C 0.52230(19) 0.5452(2) 0.97030(18)
H10 H 0.5560 0.6758 1.0652
H11 H 0.8581 1.0647 1.0470
C20 C 0.95394(18) 0.9794(2) 0.97305(17)
H12 H 1.0128 0.8738 0.8798
H13 H 0.8602 0.7293 0.5987
C21 C 0.8066(3) 0.7812(3) 0.4732(2)
C22 C 0.7265(3) 0.8294(3) 0.4208(2)
H14 H 0.5895 0.8843 0.4258
H15 H 0.2260 0.7212 0.6329
C23 C 0.2366(2) 0.8547(3) 0.7269(3)
H16 H 0.2795 0.9881 0.8177
H17 H 0.8625 0.7621 0.4457
H18 H 0.7288 0.8447 0.3590
H19 H 0.1714 0.8536 0.7380
C19B C 0.47770(19) 0.4548(2) 1.02970(18)
C20B C 1.04606(18) 1.0206(2) 1.02695(17)
C11B C 0.4705(3) 0.4746(3) 1.1213(2)
C12B C 0.4425(2) 0.3429(3) 0.9962(2)
C13B C 1.13703(19) 0.9854(3) 1.00367(19)
C14B C 1.0459(2) 1.0973(3) 1.1026(2)
C3B C 0.4315(3) 0.3856(3) 1.1735(2)
H9B H 0.4922 0.5488 1.1480
H10B H 0.4440 0.3242 0.9348
C4B C 0.4051(2) 0.2587(3) 1.0531(2)
C5B C 1.21996(19) 1.0245(3) 1.05546(19)
H11B H 1.1419 0.9353 0.9530
H12B H 0.9872 1.1262 1.1202
C6B C 1.1325(2) 1.1306(3) 1.1515(2)
H4B H 0.4283 0.4022 1.2350
N2B N 0.39828(16) 0.2779(2) 1.14141(15)
H5B H 0.3832 0.1835 1.0283
H6B H 1.2798 1.0002 1.0376
N3B N 1.22003(16) 1.0948(2) 1.12942(15)
H7B H 1.1300 1.1805 1.2026
Co1B Co 0.35006(2) 0.12894(3) 1.22314(2)
Co1B_2 Co 1.35006(2) 1.12894(3) 1.22314(2)
O2B O 0.31203(16) -0.04753(18) 1.28703(14)
O1B O 0.27759(13) 0.23568(18) 1.30233(12)
N1B N 0.46970(16) 0.1398(2) 1.32631(15)
O3B O 0.43668(13) 0.01638(18) 1.14793(12)
N3B_2 N 0.22003(16) 0.0948(2) 1.12942(15)
H2B H 0.2797 -0.1014 1.2547
H1B H 0.3192 -0.0725 1.3420
C7B C 0.2778(2) 0.2124(3) 1.39031(18)
C1B C 0.4525(2) 0.1450(3) 1.41083(19)
C2B C 0.56870(19) 0.1397(3) 1.3086(2)
S1B S 0.52366(5) -0.05173(7) 1.18722(5)
C15B C 0.1950(2) 0.2388(3) 1.4349(2)
C8B C 0.3600(2) 0.1650(3) 1.44455(18)
H3B H 0.5057 0.1347 1.4543
C9B C 0.6345(2) 0.2223(3) 1.3542(2)
C10B C 0.60208(19) 0.0607(3) 1.24377(19)
O5B O 0.57624(17) -0.1047(2) 1.11802(17)
O4B O 0.49980(17) -0.13793(19) 1.25693(17)
C21B C 0.1934(3) 0.2188(3) 1.5268(2)
H13B H 0.1398 0.2707 1.4013
C16B C 0.3559(3) 0.1459(3) 1.5388(2)
H8B H 0.6135 0.2767 1.3970
C17B C 0.7308(2) 0.2237(3) 1.3360(3)
C18B C 0.6989(2) 0.0642(3) 1.2260(2)
H17B H 0.1375 0.2379 1.5543
C22B C 0.2735(3) 0.1706(3) 1.5792(2)
H14B H 0.4105 0.1157 1.5742
C23B C 0.7634(2) 0.1453(3) 1.2731(3)
H15B H 0.7740 0.2788 1.3671
H16B H 0.7205 0.0119 1.1823
H18B H 0.2712 0.1553 1.6410
H19B H 0.8286 0.1464 1.2620
loop_
_geom_bond_atom_site_label_1
_geom_bond_atom_site_label_2
_geom_bond_site_symmetry_1
_geom_bond_site_symmetry_2
Co1 N1 1_555 1_555
N1 C1 1_555 1_555
N2 Co1 1_555 1_555
N3 Co1 1_555 1_555
O1 Co1 1_555 1_555
O2 Co1 1_555 1_555
O3 Co1 1_555 1_555
C1 C8 1_555 1_555
C2 N1 1_555 1_555
C3 N2 1_555 1_555
C4 N2 1_555 1_555
C5 N3 1_555 1_555
C6 N3 1_555 1_555
C7 O1 1_555 1_555
H1 O2 1_555 1_555
H2 O2 1_555 1_555
S1 O3 1_555 1_555
C8 C7 1_555 1_555
H3 C1 1_555 1_555
C9 C2 1_555 1_555
C10 C2 1_555 1_555
H4 C3 1_555 1_555
C11 C3 1_555 1_555
C12 C4 1_555 1_555
H5 C4 1_555 1_555
H6 C5 1_555 1_555
C13 C5 1_555 1_555
C14 C6 1_555 1_555
H7 C6 1_555 1_555
C15 C7 1_555 1_555
O4 S1 1_555 1_555
O5 S1 1_555 1_555
C16 C8 1_555 1_555
H8 C9 1_555 1_555
C17 C9 1_555 1_555
C18 C10 1_555 1_555
H9 C11 1_555 1_555
C19 C11 1_555 1_555
H10 C12 1_555 1_555
H11 C13 1_555 1_555
C20 C13 1_555 1_555
H12 C14 1_555 1_555
H13 C15 1_555 1_555
C21 C15 1_555 1_555
C22 C16 1_555 1_555
H14 C16 1_555 1_555
H15 C17 1_555 1_555
C23 C17 1_555 1_555
H16 C18 1_555 1_555
H17 C21 1_555 1_555
H18 C22 1_555 1_555
H19 C23 1_555 1_555
C19B C19 1_555 1_555
C20B C20 1_555 1_555
C11B C19B 1_555 1_555
C12B C19B 1_555 1_555
C13B C20B 1_555 1_555
C14B C20B 1_555 1_555
C3B C11B 1_555 1_555
H9B C11B 1_555 1_555
H10B C12B 1_555 1_555
C4B C12B 1_555 1_555
C5B C13B 1_555 1_555
H11B C13B 1_555 1_555
H12B C14B 1_555 1_555
C6B C14B 1_555 1_555
H4B C3B 1_555 1_555
N2B C3B 1_555 1_555
H5B C4B 1_555 1_555
H6B C5B 1_555 1_555
N3B C5B 1_555 1_555
H7B C6B 1_555 1_555
Co1B N2B 1_555 1_555
Co1B_2 N3B 1_555 1_555
O2B Co1B 1_555 1_555
O1B Co1B 1_555 1_555
N1B Co1B 1_555 1_555
O3B Co1B 1_555 1_555
N3B_2 Co1B 1_555 1_555
H2B O2B 1_555 1_555
H1B O2B 1_555 1_555
C7B O1B 1_555 1_555
C1B N1B 1_555 1_555
C2B N1B 1_555 1_555
S1B O3B 1_555 1_555
C15B C7B 1_555 1_555
C8B C7B 1_555 1_555
H3B C1B 1_555 1_555
C9B C2B 1_555 1_555
C10B C2B 1_555 1_555
O5B S1B 1_555 1_555
O4B S1B 1_555 1_555
C21B C15B 1_555 1_555
H13B C15B 1_555 1_555
C16B C8B 1_555 1_555
H8B C9B 1_555 1_555
C17B C9B 1_555 1_555
C18B C10B 1_555 1_555
H17B C21B 1_555 1_555
C22B C21B 1_555 1_555
H14B C16B 1_555 1_555
C23B C17B 1_555 1_555
H15B C17B 1_555 1_555
H16B C18B 1_555 1_555
H18B C22B 1_555 1_555
H19B C23B 1_555 1_555
S1 C10 1_555 1_555
C12 C19 1_555 1_555
C14 C20 1_555 1_555
C18 C23 1_555 1_555
C21 C22 1_555 1_555
C4B N2B 1_555 1_555
C6B N3B 1_555 1_555
C1B C8B 1_555 1_555
S1B C10B 1_555 1_555
C16B C22B 1_555 1_555
C18B C23B 1_555 1_555

#END
