
#######################################################################
#
#                 Cambridge Crystallographic Data Centre
#                                CCDC 
#
#######################################################################
#
# If this CIF has been generated from an entry in the Cambridge 
# Structural Database, then it will include bibliographic, chemical, 
# crystal, experimental, refinement or atomic coordinate data resulting 
# from the CCDC's data processing and validation procedures.
#
#######################################################################

data_HOMGUN
_symmetry_cell_setting           triclinic
_symmetry_space_group_name_H-M   'P -1'
_symmetry_Int_Tables_number      2
_space_group_name_Hall           '-P 1'
loop_
_symmetry_equiv_pos_site_id
_symmetry_equiv_pos_as_xyz
1 x,y,z
2 -x,-y,-z
_cell_length_a                   10.054(7)
_cell_length_b                   10.536(7)
_cell_length_c                   18.490(12)
_cell_angle_alpha                82.348(8)
_cell_angle_beta                 81.442(8)
_cell_angle_gamma                73.321(8)
_cell_volume                     1846.86
loop_
_atom_site_label
_atom_site_type_symbol
_atom_site_fract_x
_atom_site_fract_y
_atom_site_fract_z
Co1 Co -0.16772(11) 0.01242(12) 0.42925(6)
Co2 Co -0.64611(11) 0.38724(12) 0.97137(6)
S1 S -0.4926(3) 0.5461(3) 0.61384(13)
S2 S 0.0969(4) -0.6060(3) 0.32920(15)
O1 O -0.3584(6) 0.4209(6) 1.0267(3)
O2 O -0.4416(5) 0.2819(6) 0.9755(3)
O3 O 0.1438(5) 0.4171(7) 0.9472(3)
O4 O 0.2868(6) 0.2150(6) 0.9557(3)
O5 O -0.0259(6) -0.0361(7) 0.8596(4)
O6 O 0.0034(5) 0.0657(5) 0.3771(3)
O7 O 0.1108(5) 0.0835(5) 0.4710(3)
O8 O 0.6342(6) -0.0257(6) 0.4297(3)
O9 O 0.7137(6) 0.0885(6) 0.3314(3)
O10 O 0.3587(6) 0.0359(7) 0.1598(3)
N1 N -0.6004(8) 0.4207(8) 0.8542(4)
N2 N -0.2733(7) 0.1869(7) 0.4860(4)
N3 N -0.0817(6) -0.1799(7) 0.3873(4)
N4 N 0.2760(7) -0.6186(7) 0.0879(4)
C1 C -0.3421(9) 0.3281(9) 0.9882(5)
C2 C -0.1952(8) 0.2518(9) 0.9584(4)
C3 C -0.1722(9) 0.1387(9) 0.9230(5)
H1 H -0.2467 0.1055 0.9187
C4 C -0.0389(9) 0.0747(10) 0.8938(5)
C5 C 0.0737(9) 0.1214(9) 0.9036(5)
H2 H 0.1647 0.0756 0.8873
C6 C 0.0475(8) 0.2377(9) 0.9380(4)
C7 C -0.0876(8) 0.3026(9) 0.9640(4)
H3 H -0.1052 0.3817 0.9855
C8 C 0.1697(9) 0.2911(11) 0.9470(5)
C9 C 0.1113(10) -0.1124(9) 0.8348(6)
H4 H 0.1486 -0.0654 0.7922
H5 H 0.1074 -0.1969 0.8226
H6 H 0.1704 -0.1263 0.8731
C10 C 0.1117(9) 0.0684(8) 0.4057(5)
C11 C 0.2416(8) 0.0628(8) 0.3543(4)
C12 C 0.2451(8) 0.0517(8) 0.2791(4)
H7 H 0.1645 0.0500 0.2607
C13 C 0.3684(8) 0.0432(9) 0.2317(4)
C14 C 0.4893(8) 0.0403(8) 0.2582(4)
H8 H 0.5715 0.0332 0.2266
C15 C 0.4887(8) 0.0481(8) 0.3338(4)
C16 C 0.3655(8) 0.0618(8) 0.3809(5)
H9 H 0.3650 0.0703 0.4303
C17 C 0.6212(8) 0.0395(8) 0.3666(5)
C18 C 0.4770(9) 0.0371(10) 0.1071(4)
H10 H 0.5168 0.1056 0.1156
H11 H 0.4487 0.0541 0.0586
H12 H 0.5453 -0.0477 0.1115
C19 C -0.6630(9) 0.5393(10) 0.8204(5)
H13 H -0.7282 0.6007 0.8486
C20 C -0.6364(10) 0.5745(10) 0.7473(5)
H14 H -0.6833 0.6572 0.7261
C21 C -0.5369(10) 0.4833(10) 0.7049(5)
C22 C -0.4758(9) 0.3637(9) 0.7376(5)
H15 H -0.4125 0.3001 0.7099
C23 C -0.5064(10) 0.3346(10) 0.8121(5)
H16 H -0.4602 0.2521 0.8339
C24 C -0.2071(9) 0.2743(9) 0.4971(5)
H17 H -0.1146 0.2626 0.4767
C25 C -0.2695(11) 0.3814(10) 0.5374(5)
H18 H -0.2190 0.4398 0.5435
C26 C -0.4079(11) 0.4025(9) 0.5690(5)
C27 C -0.4752(10) 0.3107(9) 0.5599(5)
H19 H -0.5665 0.3188 0.5816
C28 C -0.4063(10) 0.2047(10) 0.5181(5)
H20 H -0.4540 0.1438 0.5121
C29 C -0.0018(10) -0.2046(9) 0.3239(5)
H21 H 0.0193 -0.1329 0.2942
C30 C 0.0525(10) -0.3304(10) 0.2986(5)
H22 H 0.1052 -0.3408 0.2529
C31 C 0.0264(9) -0.4397(9) 0.3432(5)
C32 C -0.0600(10) -0.4114(10) 0.4085(5)
H23 H -0.0845 -0.4807 0.4391
C33 C -0.1100(9) -0.2844(10) 0.4290(5)
H24 H -0.1658 -0.2707 0.4737
C34 C 0.1439(13) -0.6173(13) 0.1102(6)
H25 H 0.0878 -0.6244 0.0761
C35 C 0.0869(10) -0.6058(11) 0.1829(6)
H26 H -0.0074 -0.6000 0.1962
C36 C 0.1675(12) -0.6028(9) 0.2342(5)
C37 C 0.3048(12) -0.6074(11) 0.2125(5)
H27 H 0.3638 -0.6064 0.2466
C38 C 0.3536(10) -0.6135(9) 0.1390(5)
H28 H 0.4463 -0.6140 0.1244
Co1_2 Co 0.83228(11) 0.01242(12) 0.42925(6)
Co1A Co 0.16772(11) -0.01242(12) 0.57075(6)
Co2_2 Co 0.35389(11) -0.61276(12) -0.02863(6)
Co2_3 Co 0.35389(11) 0.38724(12) 0.97137(6)
Co2A Co -0.35389(11) 0.61276(12) 1.02863(6)
O1A O -0.6416(6) 0.5791(6) 0.9733(3)
O3_2 O -0.8562(5) 0.4171(7) 0.9472(3)
O4_2 O -0.7132(6) 0.2150(6) 0.9557(3)
O7A O -0.1108(5) -0.0835(5) 0.5290(3)
O8_2 O -0.3658(6) -0.0257(6) 0.4297(3)
O9_2 O -0.2863(6) 0.0885(6) 0.3314(3)
N4_2 N -0.7240(7) 0.3814(7) 1.0879(4)
loop_
_geom_bond_atom_site_label_1
_geom_bond_atom_site_label_2
_geom_bond_site_symmetry_1
_geom_bond_site_symmetry_2
Co1 O6 1_555 1_555
Co2 O2 1_555 1_555
S1 C21 1_555 1_555
S2 C31 1_555 1_555
O1 C1 1_555 1_555
O2 C1 1_555 1_555
O3 C8 1_555 1_555
O4 C8 1_555 1_555
O5 C4 1_555 1_555
O6 C10 1_555 1_555
O7 C10 1_555 1_555
O8 C17 1_555 1_555
O9 C17 1_555 1_555
O10 C13 1_555 1_555
N1 Co2 1_555 1_555
N2 Co1 1_555 1_555
N3 Co1 1_555 1_555
N4 C34 1_555 1_555
C1 C2 1_555 1_555
C2 C3 1_555 1_555
C3 H1 1_555 1_555
C4 C3 1_555 1_555
C5 C4 1_555 1_555
H2 C5 1_555 1_555
C6 C5 1_555 1_555
C7 C2 1_555 1_555
H3 C7 1_555 1_555
C8 C6 1_555 1_555
C9 O5 1_555 1_555
H4 C9 1_555 1_555
H5 C9 1_555 1_555
H6 C9 1_555 1_555
C10 C11 1_555 1_555
C11 C12 1_555 1_555
C12 H7 1_555 1_555
C13 C12 1_555 1_555
C14 C13 1_555 1_555
H8 C14 1_555 1_555
C15 C14 1_555 1_555
C16 C11 1_555 1_555
H9 C16 1_555 1_555
C17 C15 1_555 1_555
C18 O10 1_555 1_555
H10 C18 1_555 1_555
H11 C18 1_555 1_555
H12 C18 1_555 1_555
C19 N1 1_555 1_555
H13 C19 1_555 1_555
C20 C19 1_555 1_555
H14 C20 1_555 1_555
C21 C20 1_555 1_555
C22 C21 1_555 1_555
H15 C22 1_555 1_555
C23 N1 1_555 1_555
H16 C23 1_555 1_555
C24 N2 1_555 1_555
H17 C24 1_555 1_555
C25 C24 1_555 1_555
H18 C25 1_555 1_555
C26 S1 1_555 1_555
C27 C26 1_555 1_555
H19 C27 1_555 1_555
C28 N2 1_555 1_555
H20 C28 1_555 1_555
C29 N3 1_555 1_555
H21 C29 1_555 1_555
C30 C29 1_555 1_555
H22 C30 1_555 1_555
C31 C30 1_555 1_555
C32 C31 1_555 1_555
H23 C32 1_555 1_555
C33 N3 1_555 1_555
H24 C33 1_555 1_555
C34 H25 1_555 1_555
C35 C34 1_555 1_555
H26 C35 1_555 1_555
C36 S2 1_555 1_555
C37 C36 1_555 1_555
H27 C37 1_555 1_555
C38 N4 1_555 1_555
H28 C38 1_555 1_555
Co1_2 O8 1_555 1_555
Co1A O7 1_555 1_555
Co2_2 N4 1_555 1_555
Co2_3 O3 1_555 1_555
Co2A O1 1_555 1_555
O1A Co2 1_555 1_555
O3_2 Co2 1_555 1_555
O4_2 Co2 1_555 1_555
O7A Co1 1_555 1_555
O8_2 Co1 1_555 1_555
O9_2 Co1 1_555 1_555
N4_2 Co2 1_555 1_555
O4 Co2_3 1_555 1_555
O9 Co1_2 1_555 1_555
C6 C7 1_555 1_555
C15 C16 1_555 1_555
C22 C23 1_555 1_555
C25 C26 1_555 1_555
C27 C28 1_555 1_555
C32 C33 1_555 1_555
C35 C36 1_555 1_555
C37 C38 1_555 1_555

#END
