
#######################################################################
#
#                 Cambridge Crystallographic Data Centre
#                                CCDC 
#
#######################################################################
#
# If this CIF has been generated from an entry in the Cambridge 
# Structural Database, then it will include bibliographic, chemical, 
# crystal, experimental, refinement or atomic coordinate data resulting 
# from the CCDC's data processing and validation procedures.
#
#######################################################################

data_HOMGEW
_symmetry_cell_setting           triclinic
_symmetry_space_group_name_H-M   'P -1'
_symmetry_Int_Tables_number      2
_space_group_name_Hall           '-P 1'
loop_
_symmetry_equiv_pos_site_id
_symmetry_equiv_pos_as_xyz
1 x,y,z
2 -x,-y,-z
_cell_length_a                   10.4488(17)
_cell_length_b                   10.4744(17)
_cell_length_c                   12.705(2)
_cell_angle_alpha                68.694(2)
_cell_angle_beta                 76.439(2)
_cell_angle_gamma                74.924(2)
_cell_volume                     1235.64
loop_
_atom_site_label
_atom_site_type_symbol
_atom_site_fract_x
_atom_site_fract_y
_atom_site_fract_z
Cu1 Cu 1.0000 0.0000 0.0000
S1 S 0.61534(12) 0.33125(11) 0.50986(11)
S2 S 0.67736(11) 0.09341(10) 0.41740(9)
S3 S 0.82393(11) -0.34398(9) 0.44402(8)
S4 S 1.06875(10) -0.41563(8) 0.27990(7)
S5 S 1.02592(11) 0.18570(12) 0.26490(9)
S6 S 0.81586(13) 0.44541(12) 0.20059(11)
S7 S 0.55753(11) 0.71366(11) 0.13943(11)
S8 S 0.53560(10) 0.99375(11) 0.16515(9)
N1 N 0.7796(4) 0.1965(4) 0.6477(4)
N2 N 0.7839(4) 0.1099(3) 0.5858(3)
N3 N 0.9091(3) -0.1780(3) 0.2323(2)
N4 N 1.0087(3) -0.1751(3) 0.1388(2)
N5 N 0.9852(3) 0.1142(3) 0.1083(2)
N6 N 0.9002(3) 0.2419(3) 0.0991(2)
N7 N 0.7586(3) 1.0151(3) 0.0342(3)
N8 N 0.7322(3) 0.8889(3) 0.0402(3)
C1 C 0.6965(4) 0.3117(4) 0.6175(4)
H1 H 0.6816 0.3799 0.6520
C2 C 0.7034(4) 0.1670(4) 0.5112(3)
C3 C 0.7795(4) -0.0807(4) 0.4632(3)
H2 H 0.8707 -0.0811 0.4231
H3 H 0.7814 -0.1110 0.5447
C4 C 0.7161(4) -0.1762(4) 0.4356(3)
H4 H 0.6935 -0.1315 0.3590
H5 H 0.6334 -0.1902 0.4883
C5 C 0.9277(3) -0.2984(3) 0.3121(3)
C6 C 1.0970(3) -0.2897(3) 0.1519(3)
H6 H 1.1700 -0.3022 0.0959
C7 C 1.0550(4) 0.0733(4) 0.1900(3)
H7 H 1.1161 -0.0109 0.2065
C8 C 0.9103(4) 0.2917(4) 0.1760(3)
C9 C 0.8026(6) 0.5651(5) 0.0590(4)
H8 H 0.8538 0.6365 0.0445
H9 H 0.8435 0.5150 0.0048
C10 C 0.6629(5) 0.6352(5) 0.0371(4)
H10 H 0.6193 0.5667 0.0323
H11 H 0.6684 0.7071 -0.0371
C11 C 0.6209(3) 0.8641(4) 0.1064(3)
C12 C 0.6665(4) 1.0786(4) 0.0941(3)
H12 H 0.6703 1.1640 0.0989
Cu1_2 Cu 1.0000 1.0000 0.0000
Cu1_3 Cu 1.0000 -1.0000 0.0000
S1A S 1.38466(12) -0.33125(11) -0.50986(11)
S2A S 1.32264(11) -0.09341(10) -0.41740(9)
S3A S 1.17607(11) 0.34398(9) -0.44402(8)
S4A S 0.93125(10) 0.41563(8) -0.27990(7)
S5_2 S 1.02592(11) -0.81430(12) 0.26490(9)
S6_2 S 0.81586(13) -0.55459(12) 0.20059(11)
S7_2 S 0.55753(11) -0.28634(11) 0.13943(11)
S8_2 S 0.53560(10) -0.00625(11) 0.16515(9)
N1A N 1.2204(4) -0.1965(4) -0.6477(4)
N2A N 1.2161(4) -0.1099(3) -0.5858(3)
N3A N 1.0909(3) 0.1780(3) -0.2323(2)
N4A N 0.9913(3) 0.1751(3) -0.1388(2)
N5_2 N 0.9852(3) -0.8858(3) 0.1083(2)
N5A N 1.0148(3) -0.1142(3) -0.1083(2)
N6_2 N 0.9002(3) -0.7581(3) 0.0991(2)
N7_2 N 0.7586(3) 0.0151(3) 0.0342(3)
N7A N 1.2414(3) -0.0151(3) -0.0342(3)
N8_2 N 0.7322(3) -0.1111(3) 0.0402(3)
C1A C 1.3035(4) -0.3117(4) -0.6175(4)
H1A H 1.3184 -0.3799 -0.6520
C2A C 1.2966(4) -0.1670(4) -0.5112(3)
C3A C 1.2205(4) 0.0807(4) -0.4632(3)
H2A H 1.1293 0.0811 -0.4231
H3A H 1.2186 0.1110 -0.5447
C4A C 1.2839(4) 0.1762(4) -0.4356(3)
H4A H 1.3065 0.1315 -0.3590
H5A H 1.3666 0.1902 -0.4883
C5A C 1.0723(3) 0.2984(3) -0.3121(3)
C6A C 0.9030(3) 0.2897(3) -0.1519(3)
H6A H 0.8300 0.3022 -0.0959
C7_2 C 1.0550(4) -0.9267(4) 0.1900(3)
H7_2 H 1.1161 -1.0109 0.2065
C8_2 C 0.9103(4) -0.7083(4) 0.1760(3)
C9_2 C 0.8026(6) -0.4349(5) 0.0590(4)
H8_2 H 0.8538 -0.3635 0.0445
H9_2 H 0.8435 -0.4850 0.0048
C10_2 C 0.6629(5) -0.3648(5) 0.0371(4)
H10_2 H 0.6193 -0.4333 0.0323
H11_2 H 0.6684 -0.2929 -0.0371
C11_2 C 0.6209(3) -0.1359(4) 0.1064(3)
C12_2 C 0.6665(4) 0.0786(4) 0.0941(3)
H12_2 H 0.6703 0.1640 0.0989
Cl1 Cl 0.40443(9) 0.36835(9) 0.23363(7)
O1 O 0.5283(4) 0.3252(4) 0.1737(3)
O2 O 0.3255(6) 0.2699(6) 0.2635(4)
O3 O 0.4211(4) 0.3889(3) 0.3338(2)
O4 O 0.3467(4) 0.4973(4) 0.1609(3)
loop_
_geom_bond_atom_site_label_1
_geom_bond_atom_site_label_2
_geom_bond_site_symmetry_1
_geom_bond_site_symmetry_2
Cu1 N4 1_555 1_555
S1 C1 1_555 1_555
S2 C2 1_555 1_555
S3 C4 1_555 1_555
S4 C5 1_555 1_555
S5 C7 1_555 1_555
S6 C8 1_555 1_555
S7 C10 1_555 1_555
S8 C11 1_555 1_555
N1 N2 1_555 1_555
N2 C2 1_555 1_555
N3 N4 1_555 1_555
N4 C6 1_555 1_555
N5 Cu1 1_555 1_555
N6 N5 1_555 1_555
N7 N8 1_555 1_555
N8 C11 1_555 1_555
C1 N1 1_555 1_555
H1 C1 1_555 1_555
C2 S1 1_555 1_555
C3 S2 1_555 1_555
H2 C3 1_555 1_555
H3 C3 1_555 1_555
C4 C3 1_555 1_555
H4 C4 1_555 1_555
H5 C4 1_555 1_555
C5 S3 1_555 1_555
C6 S4 1_555 1_555
H6 C6 1_555 1_555
C7 N5 1_555 1_555
H7 C7 1_555 1_555
C8 S5 1_555 1_555
C9 S6 1_555 1_555
H8 C9 1_555 1_555
H9 C9 1_555 1_555
C10 C9 1_555 1_555
H10 C10 1_555 1_555
H11 C10 1_555 1_555
C11 S7 1_555 1_555
C12 S8 1_555 1_555
H12 C12 1_555 1_555
Cl1 O1 1_555 1_555
O2 Cl1 1_555 1_555
O3 Cl1 1_555 1_555
O4 Cl1 1_555 1_555
Cu1_2 N7 1_555 1_555
Cu1_3 N5_2 1_555 1_555
S1A C1A 1_555 1_555
S2A C2A 1_555 1_555
S3A C4A 1_555 1_555
S4A C5A 1_555 1_555
S5_2 C7_2 1_555 1_555
S6_2 C8_2 1_555 1_555
S7_2 C10_2 1_555 1_555
S8_2 C11_2 1_555 1_555
N1A N2A 1_555 1_555
N2A C2A 1_555 1_555
N3A N4A 1_555 1_555
N4A Cu1 1_555 1_555
N5_2 N6_2 1_555 1_555
N5A Cu1 1_555 1_555
N6_2 C8_2 1_555 1_555
N7_2 Cu1 1_555 1_555
N7A Cu1 1_555 1_555
N8_2 N7_2 1_555 1_555
C1A N1A 1_555 1_555
H1A C1A 1_555 1_555
C2A S1A 1_555 1_555
C3A S2A 1_555 1_555
H2A C3A 1_555 1_555
H3A C3A 1_555 1_555
C4A C3A 1_555 1_555
H4A C4A 1_555 1_555
H5A C4A 1_555 1_555
C5A S3A 1_555 1_555
C6A S4A 1_555 1_555
H6A C6A 1_555 1_555
C7_2 N5_2 1_555 1_555
H7_2 C7_2 1_555 1_555
C8_2 S5_2 1_555 1_555
C9_2 S6_2 1_555 1_555
H8_2 C9_2 1_555 1_555
H9_2 C9_2 1_555 1_555
C10_2 C9_2 1_555 1_555
H10_2 C10_2 1_555 1_555
H11_2 C10_2 1_555 1_555
C11_2 S7_2 1_555 1_555
C12_2 S8_2 1_555 1_555
H12_2 C12_2 1_555 1_555
N3 C5 1_555 1_555
N6 C8 1_555 1_555
N7 C12 1_555 1_555
N3A C5A 1_555 1_555
N4A C6A 1_555 1_555
N7_2 C12_2 1_555 1_555
N8_2 C11_2 1_555 1_555

#END
