
#######################################################################
#
#                 Cambridge Crystallographic Data Centre
#                                CCDC 
#
#######################################################################
#
# If this CIF has been generated from an entry in the Cambridge 
# Structural Database, then it will include bibliographic, chemical, 
# crystal, experimental, refinement or atomic coordinate data resulting 
# from the CCDC's data processing and validation procedures.
#
#######################################################################

data_HOMJUQ
_symmetry_cell_setting           orthorhombic
_symmetry_space_group_name_H-M   'P b c a'
_symmetry_Int_Tables_number      61
_space_group_name_Hall           '-P 2ac 2ab'
loop_
_symmetry_equiv_pos_site_id
_symmetry_equiv_pos_as_xyz
1 x,y,z
2 1/2-x,-y,1/2+z
3 -x,1/2+y,1/2-z
4 1/2+x,1/2-y,-z
5 -x,-y,-z
6 1/2+x,y,1/2-z
7 x,1/2-y,1/2+z
8 1/2-x,1/2+y,z
_cell_length_a                   18.778(4)
_cell_length_b                   7.3732(14)
_cell_length_c                   19.102(4)
_cell_angle_alpha                90
_cell_angle_beta                 90
_cell_angle_gamma                90
_cell_volume                     2644.75
loop_
_atom_site_label
_atom_site_type_symbol
_atom_site_fract_x
_atom_site_fract_y
_atom_site_fract_z
Co1 Co 0.04599(3) 0.32833(6) 0.45824(2)
Br1 Br 0.01221(2) 0.14614(6) 0.348956(19)
Br2 Br 0.15872(3) 0.16222(7) 0.49068(2)
O1 O -0.01414(18) 0.1744(4) 0.52793(15)
H1 H -0.0419 0.2401 0.5522
H2 H 0.0122 0.1120 0.5550
O2 O -0.04983(13) 0.4798(3) 0.45888(11)
O3 O -0.40917(14) 0.5407(3) 0.09891(13)
N1 N -0.09933(14) 0.4800(4) 0.40810(13)
N2 N -0.35958(16) 0.5189(4) 0.14807(15)
C1 C -0.2145(2) 0.4065(5) 0.37026(18)
H3 H -0.2589 0.3555 0.3794
C2 C -0.1625(2) 0.4030(5) 0.42091(18)
H4 H -0.1712 0.3476 0.4638
C3 C -0.0843(2) 0.5576(5) 0.34652(18)
H5 H -0.0398 0.6097 0.3390
C4 C -0.13432(19) 0.5601(5) 0.29473(18)
H6 H -0.1235 0.6123 0.2517
C5 C -0.20135(17) 0.4853(5) 0.30573(17)
C6 C -0.25659(19) 0.4934(5) 0.25069(16)
C7 C -0.32852(19) 0.5072(5) 0.26726(18)
H7 H -0.3426 0.5077 0.3139
C8 C -0.3784(2) 0.5199(5) 0.21589(19)
H8 H -0.4262 0.5294 0.2279
C9 C -0.2910(2) 0.5060(5) 0.13011(19)
H9 H -0.2784 0.5056 0.0830
C10 C -0.2388(2) 0.4934(5) 0.18027(18)
H10 H -0.1912 0.4847 0.1669
Co1D Co -0.04599(3) 0.67167(6) 0.54176(2)
Co1E Co -0.45401(3) 0.32833(6) 0.04176(2)
O2D O 0.04983(13) 0.5202(3) 0.54112(11)
O3E O 0.09083(14) 0.5407(3) 0.40109(13)
loop_
_geom_bond_atom_site_label_1
_geom_bond_atom_site_label_2
_geom_bond_site_symmetry_1
_geom_bond_site_symmetry_2
Co1 Br1 1_555 1_555
Br2 Co1 1_555 1_555
O1 Co1 1_555 1_555
H1 O1 1_555 1_555
H2 O1 1_555 1_555
O2 Co1 1_555 1_555
O3 N2 1_555 1_555
N1 O2 1_555 1_555
N2 C8 1_555 1_555
C1 H3 1_555 1_555
C2 N1 1_555 1_555
H4 C2 1_555 1_555
C3 N1 1_555 1_555
H5 C3 1_555 1_555
C4 C3 1_555 1_555
H6 C4 1_555 1_555
C5 C1 1_555 1_555
C6 C5 1_555 1_555
C7 C6 1_555 1_555
H7 C7 1_555 1_555
C8 C7 1_555 1_555
H8 C8 1_555 1_555
C9 N2 1_555 1_555
H9 C9 1_555 1_555
C10 C6 1_555 1_555
H10 C10 1_555 1_555
Co1D O2 1_555 1_555
Co1E O3 1_555 1_555
O2D Co1 1_555 1_555
O3E Co1 1_555 1_555
C1 C2 1_555 1_555
C4 C5 1_555 1_555
C9 C10 1_555 1_555
Co1D O2D 1_555 1_555

#END
