
#######################################################################
#
#                 Cambridge Crystallographic Data Centre
#                                CCDC 
#
#######################################################################
#
# If this CIF has been generated from an entry in the Cambridge 
# Structural Database, then it will include bibliographic, chemical, 
# crystal, experimental, refinement or atomic coordinate data resulting 
# from the CCDC's data processing and validation procedures.
#
#######################################################################

data_HOMMIG
_symmetry_cell_setting           triclinic
_symmetry_space_group_name_H-M   'P -1'
_symmetry_Int_Tables_number      2
_space_group_name_Hall           '-P 1'
loop_
_symmetry_equiv_pos_site_id
_symmetry_equiv_pos_as_xyz
1 x,y,z
2 -x,-y,-z
_cell_length_a                   5.6915(2)
_cell_length_b                   10.6053(3)
_cell_length_c                   18.5569(6)
_cell_angle_alpha                72.828(2)
_cell_angle_beta                 88.271(2)
_cell_angle_gamma                76.423(1)
_cell_volume                     1039.34
loop_
_atom_site_label
_atom_site_type_symbol
_atom_site_fract_x
_atom_site_fract_y
_atom_site_fract_z
C1 C 1.07093(70) -0.81583(37) 0.13609(25)
N1 N 0.92655(87) -0.89493(50) 0.13706(30)
C2 C 1.19639(69) -0.80370(33) 0.20212(21)
C3 C 1.14619(76) -0.71940(36) 0.07000(22)
N2 N 0.86517(88) -0.95952(50) 0.20526(26)
O1 O 1.1863(10) -0.86486(54) 0.26770(34)
N3 N 1.32708(56) -0.70614(35) 0.16979(25)
N4 N 1.29510(70) -0.65531(37) 0.08970(30)
C4 C 1.07142(80) -0.69108(39) -0.01134(24)
H1 H 0.9451(50) -0.9685(24) 0.2447(13)
C5 C 0.70865(84) -1.04514(35) 0.20668(25)
C6 C 1.47536(70) -0.65366(35) 0.20639(25)
H2 H 1.0665(50) -0.5945(22) -0.0377(13)
H3 H 0.9110(51) -0.7081(22) -0.0158(15)
H4 H 1.1893(47) -0.7507(23) -0.0329(15)
C7 C 0.67837(82) -1.13855(42) 0.27534(23)
C8 C 0.58073(79) -1.03833(44) 0.13908(24)
C9 C 1.45890(68) -0.67331(34) 0.28297(25)
C10 C 1.62904(79) -0.57972(41) 0.16348(27)
S1 S 0.82726(73) -1.16012(37) 0.36363(24)
C11 C 0.52607(73) -1.22305(43) 0.27782(23)
C12 C 0.43006(72) -1.12562(40) 0.14462(27)
H5 H 0.5942(44) -0.9757(25) 0.0900(13)
H6 H 1.3522(46) -0.7229(25) 0.3112(14)
C13 C 1.60500(85) -0.61840(41) 0.31873(28)
C14 C 1.77444(86) -0.52452(37) 0.19902(27)
H7 H 1.6343(50) -0.5679(24) 0.1103(13)
O2 O 0.6528(15) -1.07344(88) 0.39833(46)
O3 O 1.0343(13) -1.10492(91) 0.34415(55)
O4 O 0.8693(18) -1.30267(71) 0.40191(51)
H8 H 0.5116(51) -1.2848(24) 0.3258(13)
C15 C 0.40173(81) -1.21684(43) 0.21234(26)
Cl1 Cl 0.28463(86) -1.11533(43) 0.06320(24)
S2 S 1.57846(71) -0.64659(36) 0.41887(22)
C16 C 1.76203(84) -0.54466(44) 0.27769(27)
H9 H 1.8788(45) -0.4745(23) 0.1697(13)
C17 C 0.23344(75) -1.30652(43) 0.21262(26)
O5 O 1.6086(19) -0.79189(70) 0.45280(52)
O6 O 1.7466(14) -0.58723(84) 0.44567(51)
O7 O 1.3326(13) -0.58025(97) 0.42858(55)
H10 H 1.8587(45) -0.5104(24) 0.3037(13)
Ca1 Ca 1.00000 -1.5 0.50000
Ca2 Ca 0.50000 -1.00000 0.50000
O8 O 0.8689(22) -1.0896(12) 0.58072(65)
H11 H 1.01098 -1.11626 0.55218
H12 H 0.86322 -1.0578 0.62213
H13 H 0.1398(46) -1.3153(24) 0.2581(13)
H14 H 0.3242(46) -1.3966(23) 0.2111(14)
H15 H 0.1276(49) -1.2651(23) 0.1682(14)
C1_2 C 0.07093(70) -1.81583(37) 0.13609(25)
N1_2 N -0.07345(87) -1.89493(50) 0.13706(30)
C2_2 C 0.19639(69) -1.80370(33) 0.20212(21)
C3_2 C 0.14619(76) -1.71940(36) 0.07000(22)
N2_2 N -0.13483(88) -1.95952(50) 0.20526(26)
O1_2 O 0.1863(10) -1.86486(54) 0.26770(34)
N3_2 N 0.32708(56) -1.70614(35) 0.16979(25)
N4_2 N 0.29510(70) -1.65531(37) 0.08970(30)
C4_2 C 0.07142(80) -1.69108(39) -0.01134(24)
H1_2 H -0.0549(50) -1.9685(24) 0.2447(13)
C5_2 C -0.29135(84) -2.04514(35) 0.20668(25)
C6_2 C 0.47536(70) -1.65366(35) 0.20639(25)
H2_2 H 0.0665(50) -1.5945(22) -0.0377(13)
H3_2 H -0.0890(51) -1.7081(22) -0.0158(15)
H4_2 H 0.1893(47) -1.7507(23) -0.0329(15)
C7_2 C -0.32163(82) -2.13855(42) 0.27534(23)
C8_2 C -0.41927(79) -2.03833(44) 0.13908(24)
C9_2 C 0.45890(68) -1.67331(34) 0.28297(25)
C10_2 C 0.62904(79) -1.57972(41) 0.16348(27)
S1_2 S -0.17274(73) -2.16012(37) 0.36363(24)
C11_2 C -0.47393(73) -2.22305(43) 0.27782(23)
C12_2 C -0.56994(72) -2.12562(40) 0.14462(27)
H5_2 H -0.4058(44) -1.9757(25) 0.0900(13)
H6_2 H 0.3522(46) -1.7229(25) 0.3112(14)
C13_2 C 0.60500(85) -1.61840(41) 0.31873(28)
C14_2 C 0.77444(86) -1.52452(37) 0.19902(27)
H7_2 H 0.6343(50) -1.5679(24) 0.1103(13)
O2_2 O -0.3472(15) -2.07344(88) 0.39833(46)
O2A O 0.3472(15) -0.92656(88) 0.60167(46)
O3_2 O 0.0343(13) -2.10492(91) 0.34415(55)
O4_2 O -0.1307(18) -2.30267(71) 0.40191(51)
O4A O 1.1307(18) -1.69733(71) 0.59809(51)
H8_2 H -0.4884(51) -2.2848(24) 0.3258(13)
C15_2 C -0.59827(81) -2.21684(43) 0.21234(26)
Cl1_2 Cl -0.71537(86) -2.11533(43) 0.06320(24)
S2_2 S 0.57846(71) -1.64659(36) 0.41887(22)
C16_2 C 0.76203(84) -1.54466(44) 0.27769(27)
H9_2 H 0.8788(45) -1.4745(23) 0.1697(13)
C17_2 C -0.76656(75) -2.30652(43) 0.21262(26)
O5_2 O 0.6086(19) -1.79189(70) 0.45280(52)
O5_3 O 0.6086(19) -0.79189(70) 0.45280(52)
O5A O 0.3914(19) -1.20811(70) 0.54720(52)
O6_2 O 0.7466(14) -1.58723(84) 0.44567(51)
O6A O 1.2534(14) -1.41277(84) 0.55433(51)
O7_2 O 0.3326(13) -1.58025(97) 0.42858(55)
O7_3 O 1.3326(13) -1.58025(97) 0.42858(55)
O7A O 0.6674(13) -1.41975(97) 0.57142(55)
H10_2 H 0.8587(45) -1.5104(24) 0.3037(13)
Ca1_2 Ca 2.00000 -0.5 0.50000
Ca1_3 Ca 1.00000 -0.5 0.50000
Ca1_4 Ca 0.00000 -2.5 0.50000
Ca1_5 Ca 0.00000 -1.5 0.50000
Ca2_2 Ca 1.50000 -1.00000 0.50000
Ca2_3 Ca -0.50000 -2.00000 0.50000
Ca2_4 Ca 0.50000 -2.00000 0.50000
O8A O 0.1311(22) -0.9104(12) 0.41928(65)
H11A H -0.01098 -0.88374 0.44782
H12A H 0.13678 -0.9422 0.37787
H13_2 H -0.8602(46) -2.3153(24) 0.2581(13)
H14_2 H -0.6758(46) -2.3966(23) 0.2111(14)
H15_2 H -0.8724(49) -2.2651(23) 0.1682(14)
loop_
_geom_bond_atom_site_label_1
_geom_bond_atom_site_label_2
_geom_bond_site_symmetry_1
_geom_bond_site_symmetry_2
C1 N1 1_555 1_555
N1 N2 1_555 1_555
C2 C1 1_555 1_555
C3 C1 1_555 1_555
N2 H1 1_555 1_555
O1 C2 1_555 1_555
N3 C2 1_555 1_555
N4 C3 1_555 1_555
C4 C3 1_555 1_555
C5 N2 1_555 1_555
C6 N3 1_555 1_555
H2 C4 1_555 1_555
H3 C4 1_555 1_555
H4 C4 1_555 1_555
C7 C5 1_555 1_555
C8 C5 1_555 1_555
C9 C6 1_555 1_555
C10 C6 1_555 1_555
S1 C7 1_555 1_555
C11 C7 1_555 1_555
C12 C8 1_555 1_555
H5 C8 1_555 1_555
H6 C9 1_555 1_555
C13 C9 1_555 1_555
C14 C10 1_555 1_555
H7 C10 1_555 1_555
O2 S1 1_555 1_555
O3 S1 1_555 1_555
O4 S1 1_555 1_555
H8 C11 1_555 1_555
C15 C11 1_555 1_555
Cl1 C12 1_555 1_555
S2 C13 1_555 1_555
C16 C13 1_555 1_555
H9 C14 1_555 1_555
C17 C15 1_555 1_555
O5 S2 1_555 1_555
O6 S2 1_555 1_555
O7 S2 1_555 1_555
H10 C16 1_555 1_555
Ca1 O4 1_555 1_555
Ca2 O2 1_555 1_555
O8 Ca2 1_555 1_555
H11 O8 1_555 1_555
H12 O8 1_555 1_555
H13 C17 1_555 1_555
H14 C17 1_555 1_555
H15 C17 1_555 1_555
C1_2 N1_2 1_555 1_555
N1_2 N2_2 1_555 1_555
C2_2 C1_2 1_555 1_555
C3_2 C1_2 1_555 1_555
N2_2 H1_2 1_555 1_555
O1_2 C2_2 1_555 1_555
N3_2 C2_2 1_555 1_555
N4_2 C3_2 1_555 1_555
C4_2 C3_2 1_555 1_555
C5_2 N2_2 1_555 1_555
C6_2 N3_2 1_555 1_555
H2_2 C4_2 1_555 1_555
H3_2 C4_2 1_555 1_555
H4_2 C4_2 1_555 1_555
C7_2 C5_2 1_555 1_555
C8_2 C5_2 1_555 1_555
C9_2 C6_2 1_555 1_555
C10_2 C6_2 1_555 1_555
S1_2 C7_2 1_555 1_555
C11_2 C7_2 1_555 1_555
C12_2 C8_2 1_555 1_555
H5_2 C8_2 1_555 1_555
H6_2 C9_2 1_555 1_555
C13_2 C9_2 1_555 1_555
C14_2 C10_2 1_555 1_555
H7_2 C10_2 1_555 1_555
O2_2 S1_2 1_555 1_555
O2A Ca2 1_555 1_555
O3_2 S1_2 1_555 1_555
O4_2 S1_2 1_555 1_555
O4A Ca1 1_555 1_555
H8_2 C11_2 1_555 1_555
C15_2 C11_2 1_555 1_555
Cl1_2 C12_2 1_555 1_555
S2_2 C13_2 1_555 1_555
C16_2 C13_2 1_555 1_555
H9_2 C14_2 1_555 1_555
C17_2 C15_2 1_555 1_555
O5_2 S2_2 1_555 1_555
O5_3 Ca2 1_555 1_555
O5A Ca2 1_555 1_555
O6_2 Ca1 1_555 1_555
O6A Ca1 1_555 1_555
O7_2 S2_2 1_555 1_555
O7_3 Ca1 1_555 1_555
O7A Ca1 1_555 1_555
H10_2 C16_2 1_555 1_555
Ca1_2 O6 1_555 1_555
Ca1_3 O7 1_555 1_555
Ca1_4 O4_2 1_555 1_555
Ca1_5 O7_2 1_555 1_555
Ca2_2 O5 1_555 1_555
Ca2_3 O2_2 1_555 1_555
Ca2_4 O5_2 1_555 1_555
O8A Ca2 1_555 1_555
H11A O8A 1_555 1_555
H12A O8A 1_555 1_555
H13_2 C17_2 1_555 1_555
H14_2 C17_2 1_555 1_555
H15_2 C17_2 1_555 1_555
N3 N4 1_555 1_555
C12 C15 1_555 1_555
C14 C16 1_555 1_555
N3_2 N4_2 1_555 1_555
C12_2 C15_2 1_555 1_555
C14_2 C16_2 1_555 1_555
S2_2 O6_2 1_555 1_555

#END
