
#######################################################################
#
#                 Cambridge Crystallographic Data Centre
#                                CCDC 
#
#######################################################################
#
# If this CIF has been generated from an entry in the Cambridge 
# Structural Database, then it will include bibliographic, chemical, 
# crystal, experimental, refinement or atomic coordinate data resulting 
# from the CCDC's data processing and validation procedures.
#
#######################################################################

data_HOMMOM
_symmetry_cell_setting           triclinic
_symmetry_space_group_name_H-M   'P -1'
_symmetry_Int_Tables_number      2
_space_group_name_Hall           '-P 1'
loop_
_symmetry_equiv_pos_site_id
_symmetry_equiv_pos_as_xyz
1 x,y,z
2 -x,-y,-z
_cell_length_a                   6.0140(1)
_cell_length_b                   10.8169(2)
_cell_length_c                   18.0938(3)
_cell_angle_alpha                85.677(1)
_cell_angle_beta                 86.392(1)
_cell_angle_gamma                75.783(1)
_cell_volume                     1136.55
loop_
_atom_site_label
_atom_site_type_symbol
_atom_site_fract_x
_atom_site_fract_y
_atom_site_fract_z
C1 C -0.01779(76) 0.76031(41) -0.63537(32)
N1 N 0.12501(97) 0.83348(55) -0.63889(38)
C2 C -0.13473(72) 0.72084(41) -0.69474(29)
C3 C -0.09650(78) 0.69842(40) -0.56886(33)
N2 N 0.19155(95) 0.87554(58) -0.70634(31)
O1 O -0.1194(11) 0.75110(58) -0.75991(41)
N3 N -0.26564(75) 0.64343(39) -0.65967(31)
N4 N -0.24134(80) 0.62915(41) -0.58081(38)
C4 C -0.02464(88) 0.71011(43) -0.49461(30)
H1 H 0.1223(54) 0.8665(26) -0.7470(16)
C5 C 0.34343(75) 0.95386(50) -0.71043(32)
C6 C -0.40959(78) 0.57869(41) -0.69070(31)
H2 H -0.0849(54) 0.6515(25) -0.4600(17)
H3 H -0.0863(56) 0.8022(26) -0.4822(17)
H4 H 0.1451(53) 0.6850(25) -0.4956(18)
C7 C 0.40349(80) 1.00822(49) -0.77862(33)
C8 C 0.43529(87) 0.97905(48) -0.64518(31)
C9 C -0.40958(91) 0.57055(48) -0.76707(32)
C10 C -0.54695(86) 0.52004(45) -0.64329(33)
S1 S 0.30007(74) 0.98024(41) -0.86468(26)
C11 C 0.55452(86) 1.08757(42) -0.78154(31)
C12 C 0.58420(78) 1.05856(44) -0.65196(33)
H5 H 0.3974(53) 0.9413(30) -0.5964(16)
H6 H -0.3173(54) 0.6096(29) -0.7999(16)
C13 C -0.54910(87) 0.50394(43) -0.79504(33)
C14 C -0.68592(78) 0.45311(41) -0.67421(30)
H7 H -0.5471(55) 0.5270(29) -0.5908(16)
O2 O 0.0572(13) 0.99683(99) -0.84956(57)
O3 O 0.3615(16) 1.06950(84) -0.92034(49)
O4 O 0.4155(18) 0.84885(77) -0.87816(60)
H8 H 0.5921(52) 1.1233(28) -0.8285(16)
C15 C 0.64945(73) 1.11527(40) -0.71874(32)
Cl1 Cl 0.69465(77) 1.08900(43) -0.56990(27)
S2 S -0.55165(76) 0.49625(39) -0.89273(28)
C16 C -0.68592(93) 0.44600(50) -0.74933(30)
H9 H -0.7800(52) 0.4120(27) -0.6433(17)
C17 C 0.80988(86) 1.19769(47) -0.71894(31)
O5 O -0.4032(15) 0.57473(85) -0.92645(61)
O6 O -0.7857(14) 0.55556(95) -0.91168(56)
O7 O -0.4819(19) 0.36313(75) -0.90732(56)
H10 H -0.7758(55) 0.4028(28) -0.7698(16)
H11 H 0.8415(56) 1.2306(29) -0.7684(16)
H12 H 0.9481(53) 1.1445(27) -0.6991(15)
H13 H 0.7442(55) 1.2667(28) -0.6871(16)
Ca1 Ca 0.41610(89) 1.23675(47) -1.00139(28)
O8 O 0.8022(20) 1.1298(11) -0.97673(65)
O9 O 0.1185(20) 1.2093(11) -1.07861(65)
O10 O 0.0545(21) 1.3425(10) -0.93929(71)
H14 H 0.9057 1.1542 -1.0113
H15 H 0.9047 1.0778 -0.9351
H16 H 0.1037 1.2234 -1.1387
H17 H -0.0221 1.3046 -1.0768
H18 H 0.02747 1.43491 -0.92132
H19 H -0.09142 1.30966 -0.93053
O4A O 0.5845(18) 1.15115(77) -1.12184(60)
O5A O 0.4032(15) 1.42527(85) -1.07355(61)
O7_2 O 0.5181(19) 1.36313(75) -0.90732(56)
Ca1A Ca 0.58390(89) 0.76325(47) -0.99861(28)
Ca1A_2 Ca -0.41610(89) 0.76325(47) -0.99861(28)
Ca1_2 Ca -0.58390(89) 0.23675(47) -1.00139(28)
loop_
_geom_bond_atom_site_label_1
_geom_bond_atom_site_label_2
_geom_bond_site_symmetry_1
_geom_bond_site_symmetry_2
C1 N1 1_555 1_555
N1 N2 1_555 1_555
C2 C1 1_555 1_555
C3 C1 1_555 1_555
N2 H1 1_555 1_555
O1 C2 1_555 1_555
N3 C2 1_555 1_555
N4 C3 1_555 1_555
C4 C3 1_555 1_555
C5 N2 1_555 1_555
C6 N3 1_555 1_555
H2 C4 1_555 1_555
H3 C4 1_555 1_555
H4 C4 1_555 1_555
C7 C5 1_555 1_555
C8 C5 1_555 1_555
C9 C6 1_555 1_555
C10 C6 1_555 1_555
S1 C7 1_555 1_555
C11 C7 1_555 1_555
C12 C8 1_555 1_555
H5 C8 1_555 1_555
H6 C9 1_555 1_555
C13 C9 1_555 1_555
C14 C10 1_555 1_555
H7 C10 1_555 1_555
O2 S1 1_555 1_555
O3 S1 1_555 1_555
O4 S1 1_555 1_555
H8 C11 1_555 1_555
C15 C11 1_555 1_555
Cl1 C12 1_555 1_555
S2 C13 1_555 1_555
C16 C13 1_555 1_555
H9 C14 1_555 1_555
C17 C15 1_555 1_555
O5 S2 1_555 1_555
O6 S2 1_555 1_555
O7 S2 1_555 1_555
H10 C16 1_555 1_555
H11 C17 1_555 1_555
H12 C17 1_555 1_555
H13 C17 1_555 1_555
Ca1 O3 1_555 1_555
O8 Ca1 1_555 1_555
O9 Ca1 1_555 1_555
O10 Ca1 1_555 1_555
H14 O8 1_555 1_555
H15 O8 1_555 1_555
H16 O9 1_555 1_555
H17 O9 1_555 1_555
H18 O10 1_555 1_555
H19 O10 1_555 1_555
O4A Ca1 1_555 1_555
O5A Ca1 1_555 1_555
O7_2 Ca1 1_555 1_555
Ca1A O4 1_555 1_555
Ca1A_2 O5 1_555 1_555
Ca1_2 O7 1_555 1_555
N3 N4 1_555 1_555
C12 C15 1_555 1_555
C14 C16 1_555 1_555

#END
