
#######################################################################
#
#                 Cambridge Crystallographic Data Centre
#                                CCDC 
#
#######################################################################
#
# If this CIF has been generated from an entry in the Cambridge 
# Structural Database, then it will include bibliographic, chemical, 
# crystal, experimental, refinement or atomic coordinate data resulting 
# from the CCDC's data processing and validation procedures.
#
#######################################################################

data_HOMMEC
_symmetry_cell_setting           triclinic
_symmetry_space_group_name_H-M   'P -1'
_symmetry_Int_Tables_number      2
_space_group_name_Hall           '-P 1'
loop_
_symmetry_equiv_pos_site_id
_symmetry_equiv_pos_as_xyz
1 x,y,z
2 -x,-y,-z
_cell_length_a                   5.6894(3)
_cell_length_b                   10.5943(6)
_cell_length_c                   18.526(1)
_cell_angle_alpha                73.316(5)
_cell_angle_beta                 87.842(3)
_cell_angle_gamma                76.127(3)
_cell_volume                     1037.86
loop_
_atom_site_label
_atom_site_type_symbol
_atom_site_fract_x
_atom_site_fract_y
_atom_site_fract_z
C1 C 1.0739(12) -0.81610(55) 0.13613(35)
N1 N 0.9341(14) -0.89663(74) 0.13715(47)
C2 C 1.1986(11) -0.80571(55) 0.20243(31)
C3 C 1.1455(12) -0.71653(58) 0.07146(39)
N2 N 0.8795(14) -0.96515(74) 0.20425(39)
O1 O 1.1932(15) -0.86873(85) 0.26801(54)
N3 N 1.32260(89) -0.70782(52) 0.17163(37)
N4 N 1.2895(10) -0.65368(55) 0.09214(44)
C4 C 1.0773(12) -0.68100(62) -0.01043(42)
H1 H 0.9212(76) -0.9525(36) 0.2439(17)
C5 C 0.7200(12) -1.04843(66) 0.20717(38)
C6 C 1.4670(11) -0.65740(58) 0.20874(39)
H2 H 1.0551(79) -0.5825(34) -0.0326(20)
H3 H 0.9221(78) -0.7042(35) -0.0164(25)
H4 H 1.2121(67) -0.7306(38) -0.0351(22)
C7 C 0.6825(11) -1.13973(73) 0.27628(35)
C8 C 0.5947(12) -1.04038(65) 0.13909(36)
C9 C 1.4531(12) -0.67848(62) 0.28584(40)
C10 C 1.6200(12) -0.58273(60) 0.16665(41)
S1 S 0.8236(12) -1.16035(61) 0.36490(41)
C11 C 0.5246(12) -1.22192(57) 0.27829(35)
C12 C 0.4371(11) -1.12493(61) 0.14358(35)
H5 H 0.6150(67) -0.9780(41) 0.0904(18)
H6 H 1.3494(72) -0.7291(40) 0.3140(20)
C13 C 1.5968(12) -0.62447(65) 0.32148(41)
C14 C 1.7608(13) -0.53017(64) 0.20377(38)
H7 H 1.6291(70) -0.5684(37) 0.1133(20)
O2 O 0.6601(26) -1.0673(14) 0.39949(80)
O3 O 1.0417(21) -1.1171(17) 0.34262(95)
O4 O 0.8543(32) -1.3035(12) 0.4061(11)
H8 H 0.5010(72) -1.2837(38) 0.3254(19)
C15 C 0.4040(12) -1.21400(54) 0.21274(40)
Cl1 Cl 0.2917(14) -1.11536(77) 0.06202(40)
S2 S 1.5775(12) -0.65186(60) 0.42020(41)
C16 C 1.7504(13) -0.55073(65) 0.28155(38)
H9 H 1.8625(67) -0.4805(34) 0.1749(20)
Cl2 Cl 0.2108(13) -1.31624(71) 0.21758(53)
O5 O 1.6124(34) -0.7977(11) 0.45227(98)
O6 O 1.7597(24) -0.5973(15) 0.44378(95)
O7 O 1.3308(23) -0.5828(16) 0.4328(10)
H10 H 1.8450(68) -0.5164(41) 0.3078(20)
Ca1 Ca 1.00000 -1.5 0.50000
Ca2 Ca 0.50000 -1.00000 0.50000
O8 O 0.8459(41) -1.0740(25) 0.5722(13)
H11 H 1.01098 -1.11626 0.55218
H12 H 0.86322 -1.0578 0.62213
C1_2 C 0.0739(12) -1.81610(55) 0.13613(35)
N1_2 N -0.0659(14) -1.89663(74) 0.13715(47)
C2_2 C 0.1986(11) -1.80571(55) 0.20243(31)
C3_2 C 0.1455(12) -1.71653(58) 0.07146(39)
N2_2 N -0.1205(14) -1.96515(74) 0.20425(39)
O1_2 O 0.1932(15) -1.86873(85) 0.26801(54)
N3_2 N 0.32260(89) -1.70782(52) 0.17163(37)
N4_2 N 0.2895(10) -1.65368(55) 0.09214(44)
C4_2 C 0.0773(12) -1.68100(62) -0.01043(42)
H1_2 H -0.0788(76) -1.9525(36) 0.2439(17)
C5_2 C -0.2800(12) -2.04843(66) 0.20717(38)
C6_2 C 0.4670(11) -1.65740(58) 0.20874(39)
H2_2 H 0.0551(79) -1.5825(34) -0.0326(20)
H3_2 H -0.0779(78) -1.7042(35) -0.0164(25)
H4_2 H 0.2121(67) -1.7306(38) -0.0351(22)
C7_2 C -0.3175(11) -2.13973(73) 0.27628(35)
C8_2 C -0.4053(12) -2.04038(65) 0.13909(36)
C9_2 C 0.4531(12) -1.67848(62) 0.28584(40)
C10_2 C 0.6200(12) -1.58273(60) 0.16665(41)
S1_2 S -0.1764(12) -2.16035(61) 0.36490(41)
C11_2 C -0.4754(12) -2.22192(57) 0.27829(35)
C12_2 C -0.5629(11) -2.12493(61) 0.14358(35)
H5_2 H -0.3850(67) -1.9780(41) 0.0904(18)
H6_2 H 0.3494(72) -1.7291(40) 0.3140(20)
C13_2 C 0.5968(12) -1.62447(65) 0.32148(41)
C14_2 C 0.7608(13) -1.53017(64) 0.20377(38)
H7_2 H 0.6291(70) -1.5684(37) 0.1133(20)
O2_2 O -0.3399(26) -2.0673(14) 0.39949(80)
O2A O 0.3399(26) -0.9327(14) 0.60051(80)
O3_2 O 0.0417(21) -2.1171(17) 0.34262(95)
O4_2 O -0.1457(32) -2.3035(12) 0.4061(11)
O4A O 1.1457(32) -1.6965(12) 0.5939(11)
H8_2 H -0.4990(72) -2.2837(38) 0.3254(19)
C15_2 C -0.5960(12) -2.21400(54) 0.21274(40)
Cl1_2 Cl -0.7083(14) -2.11536(77) 0.06202(40)
S2_2 S 0.5775(12) -1.65186(60) 0.42020(41)
C16_2 C 0.7504(13) -1.55073(65) 0.28155(38)
H9_2 H 0.8625(67) -1.4805(34) 0.1749(20)
Cl2_2 Cl -0.7892(13) -2.31624(71) 0.21758(53)
O5_2 O 0.6124(34) -1.7977(11) 0.45227(98)
O5_3 O 0.6124(34) -0.7977(11) 0.45227(98)
O5A O 0.3876(34) -1.2023(11) 0.54773(98)
O6_2 O 0.7597(24) -1.5973(15) 0.44378(95)
O6A O 1.2403(24) -1.4027(15) 0.55622(95)
O7_2 O 0.3308(23) -1.5828(16) 0.4328(10)
O7_3 O 1.3308(23) -1.5828(16) 0.4328(10)
O7A O 0.6692(23) -1.4172(16) 0.5672(10)
H10_2 H 0.8450(68) -1.5164(41) 0.3078(20)
Ca1_2 Ca 2.00000 -0.5 0.50000
Ca1_3 Ca 1.00000 -0.5 0.50000
Ca1_4 Ca 0.00000 -2.5 0.50000
Ca1_5 Ca 0.00000 -1.5 0.50000
Ca2_2 Ca 1.50000 -1.00000 0.50000
Ca2_3 Ca -0.50000 -2.00000 0.50000
Ca2_4 Ca 0.50000 -2.00000 0.50000
O8A O 0.1541(41) -0.9260(25) 0.4278(13)
H11A H -0.01098 -0.88374 0.44782
H12A H 0.13678 -0.9422 0.37787
loop_
_geom_bond_atom_site_label_1
_geom_bond_atom_site_label_2
_geom_bond_site_symmetry_1
_geom_bond_site_symmetry_2
C1 N1 1_555 1_555
N1 N2 1_555 1_555
C2 C1 1_555 1_555
C3 C1 1_555 1_555
N2 H1 1_555 1_555
O1 C2 1_555 1_555
N3 C2 1_555 1_555
N4 C3 1_555 1_555
C4 C3 1_555 1_555
C5 N2 1_555 1_555
C6 N3 1_555 1_555
H2 C4 1_555 1_555
H3 C4 1_555 1_555
H4 C4 1_555 1_555
C7 C5 1_555 1_555
C8 C5 1_555 1_555
C9 C6 1_555 1_555
C10 C6 1_555 1_555
S1 C7 1_555 1_555
C11 C7 1_555 1_555
C12 C8 1_555 1_555
H5 C8 1_555 1_555
H6 C9 1_555 1_555
C13 C9 1_555 1_555
C14 C10 1_555 1_555
H7 C10 1_555 1_555
O2 S1 1_555 1_555
O3 S1 1_555 1_555
O4 S1 1_555 1_555
H8 C11 1_555 1_555
C15 C11 1_555 1_555
Cl1 C12 1_555 1_555
S2 C13 1_555 1_555
C16 C13 1_555 1_555
H9 C14 1_555 1_555
Cl2 C15 1_555 1_555
O5 S2 1_555 1_555
O6 S2 1_555 1_555
O7 S2 1_555 1_555
H10 C16 1_555 1_555
Ca1 O4 1_555 1_555
Ca2 O2 1_555 1_555
O8 Ca2 1_555 1_555
H11 O8 1_555 1_555
H12 O8 1_555 1_555
C1_2 N1_2 1_555 1_555
N1_2 N2_2 1_555 1_555
C2_2 C1_2 1_555 1_555
C3_2 C1_2 1_555 1_555
N2_2 H1_2 1_555 1_555
O1_2 C2_2 1_555 1_555
N3_2 C2_2 1_555 1_555
N4_2 C3_2 1_555 1_555
C4_2 C3_2 1_555 1_555
C5_2 N2_2 1_555 1_555
C6_2 N3_2 1_555 1_555
H2_2 C4_2 1_555 1_555
H3_2 C4_2 1_555 1_555
H4_2 C4_2 1_555 1_555
C7_2 C5_2 1_555 1_555
C8_2 C5_2 1_555 1_555
C9_2 C6_2 1_555 1_555
C10_2 C6_2 1_555 1_555
S1_2 C7_2 1_555 1_555
C11_2 C7_2 1_555 1_555
C12_2 C8_2 1_555 1_555
H5_2 C8_2 1_555 1_555
H6_2 C9_2 1_555 1_555
C13_2 C9_2 1_555 1_555
C14_2 C10_2 1_555 1_555
H7_2 C10_2 1_555 1_555
O2_2 S1_2 1_555 1_555
O2A Ca2 1_555 1_555
O3_2 S1_2 1_555 1_555
O4_2 S1_2 1_555 1_555
O4A Ca1 1_555 1_555
H8_2 C11_2 1_555 1_555
C15_2 C11_2 1_555 1_555
Cl1_2 C12_2 1_555 1_555
S2_2 C13_2 1_555 1_555
C16_2 C13_2 1_555 1_555
H9_2 C14_2 1_555 1_555
Cl2_2 C15_2 1_555 1_555
O5_2 S2_2 1_555 1_555
O5_3 Ca2 1_555 1_555
O5A Ca2 1_555 1_555
O6_2 Ca1 1_555 1_555
O6A Ca1 1_555 1_555
O7_2 S2_2 1_555 1_555
O7_3 Ca1 1_555 1_555
O7A Ca1 1_555 1_555
H10_2 C16_2 1_555 1_555
Ca1_2 O6 1_555 1_555
Ca1_3 O7 1_555 1_555
Ca1_4 O4_2 1_555 1_555
Ca1_5 O7_2 1_555 1_555
Ca2_2 O5 1_555 1_555
Ca2_3 O2_2 1_555 1_555
Ca2_4 O5_2 1_555 1_555
O8A Ca2 1_555 1_555
H11A O8A 1_555 1_555
H12A O8A 1_555 1_555
N3 N4 1_555 1_555
C12 C15 1_555 1_555
C14 C16 1_555 1_555
N3_2 N4_2 1_555 1_555
C12_2 C15_2 1_555 1_555
C14_2 C16_2 1_555 1_555
S2_2 O6_2 1_555 1_555

#END
