
#######################################################################
#
#                 Cambridge Crystallographic Data Centre
#                                CCDC 
#
#######################################################################
#
# If this CIF has been generated from an entry in the Cambridge 
# Structural Database, then it will include bibliographic, chemical, 
# crystal, experimental, refinement or atomic coordinate data resulting 
# from the CCDC's data processing and validation procedures.
#
#######################################################################

data_HOMQAD
_symmetry_cell_setting           triclinic
_symmetry_space_group_name_H-M   'P -1'
_symmetry_Int_Tables_number      2
_space_group_name_Hall           '-P 1'
loop_
_symmetry_equiv_pos_site_id
_symmetry_equiv_pos_as_xyz
1 x,y,z
2 -x,-y,-z
_cell_length_a                   12.4573(9)
_cell_length_b                   15.7773(8)
_cell_length_c                   20.7264(15)
_cell_angle_alpha                103.807(5)
_cell_angle_beta                 106.901(6)
_cell_angle_gamma                90.190(5)
_cell_volume                     3773.45
loop_
_atom_site_label
_atom_site_type_symbol
_atom_site_fract_x
_atom_site_fract_y
_atom_site_fract_z
Cd1 Cd 0.57479(5) 0.09471(3) 0.75660(3)
O1 O 0.4682(5) 0.0905(3) 0.8385(3)
O2 O 0.4620(4) 0.2090(3) 0.8025(3)
O3 O 0.6896(5) 0.0459(4) 0.6796(3)
O4 O 0.6194(5) 0.1717(3) 0.6785(3)
O5 O 0.7017(5) 0.1122(4) 0.6010(3)
O6 O 0.3683(5) 0.1940(4) 0.8741(3)
O7 O 0.6323(4) -0.0320(3) 0.7890(3)
N1 N 0.2830(5) 0.0514(4) 0.5697(3)
N2 N 0.4156(5) 0.0521(4) 0.6683(3)
N3 N 0.7165(5) 0.1683(3) 0.8490(3)
N4 N 0.8439(5) 0.1896(4) 0.9536(3)
N5 N 0.4317(6) 0.1644(4) 0.8393(3)
N6 N 0.6720(6) 0.1103(5) 0.6518(4)
N7 N 0.6990(6) -0.1652(4) 0.7752(3)
C1 C 0.2480(7) 0.1680(5) 0.5051(4)
C2 C 0.1771(7) 0.2331(5) 0.5231(4)
C3 C 0.0898(8) 0.2185(6) 0.5508(4)
H1 H 0.0785 0.1640 0.5586
C4 C 0.0217(9) 0.2823(7) 0.5662(5)
H2 H -0.0339 0.2716 0.5857
C5 C 0.3387(7) 0.1876(5) 0.4832(4)
C6 C 0.4167(8) 0.1228(6) 0.4689(4)
H3 H 0.4059 0.0665 0.4736
C7 C 0.5042(9) 0.1438(7) 0.4490(5)
H4 H 0.5550 0.1022 0.4416
C8 C 0.2206(7) 0.0746(5) 0.5052(4)
H5 H 0.1406 0.0659 0.4984
H6 H 0.2375 0.0353 0.4662
C9 C 0.3751(7) 0.0938(5) 0.6189(4)
H7 H 0.4073 0.1468 0.6185
C10 C 0.2606(7) -0.0241(5) 0.5884(4)
C11 C 0.1764(7) -0.0916(5) 0.5555(4)
H8 H 0.1204 -0.0915 0.5145
C12 C 0.1821(8) -0.1593(5) 0.5885(4)
H9 H 0.1293 -0.2072 0.5677
C13 C 0.2629(8) -0.1587(6) 0.6509(4)
H10 H 0.2611 -0.2049 0.6714
C14 C 0.3460(7) -0.0910(5) 0.6833(4)
H11 H 0.4009 -0.0908 0.7248
C15 C 0.3433(6) -0.0224(5) 0.6503(4)
C16 C 0.7585(6) 0.1381(5) 0.9040(4)
H12 H 0.7315 0.0854 0.9085
C17 C 0.8616(6) 0.2615(4) 0.9277(4)
C18 C 0.9379(6) 0.3343(4) 0.9550(4)
H13 H 0.9903 0.3443 0.9989
C19 C 0.9316(7) 0.3914(4) 0.9130(4)
H14 H 0.9826 0.4405 0.9288
C20 C 0.8520(7) 0.3779(5) 0.8483(4)
H15 H 0.8511 0.4183 0.8221
C21 C 0.7740(6) 0.3067(4) 0.8215(4)
H16 H 0.7195 0.2987 0.7785
C22 C 0.7813(6) 0.2468(4) 0.8630(4)
C23 C 0.9093(6) 0.1722(4) 1.0202(3)
H17 H 0.8619 0.1754 1.0503
H18 H 0.9716 0.2165 1.0433
C24 C 0.9542(6) 0.0826(4) 1.0082(3)
C25 C 1.0495(6) 0.0707(4) 0.9846(3)
C26 C 0.9029(6) 0.0128(4) 1.0238(3)
C27 C 0.8060(6) 0.0203(4) 1.0476(4)
H19 H 0.7741 0.0737 1.0539
C28 C 0.7592(6) -0.0486(4) 1.0613(4)
H20 H 0.6946 -0.0421 1.0754
C29 C 0.8064(7) -0.1289(4) 1.0546(4)
H21 H 0.7756 -0.1746 1.0664
C30 C 1.1022(6) 0.1405(5) 0.9693(4)
H22 H 1.0736 0.1953 0.9757
C31 C 0.6536(7) -0.0984(5) 0.7524(4)
H23 H 0.6366 -0.1023 0.7050
C32 C 0.7224(7) -0.2438(5) 0.7298(4)
H24 H 0.7556 -0.2838 0.7569
H25 H 0.7736 -0.2286 0.7068
H26 H 0.6535 -0.2711 0.6956
C33 C 0.7275(9) -0.1633(6) 0.8484(5)
H27 H 0.7600 -0.2165 0.8558
H28 H 0.6607 -0.1578 0.8627
H29 H 0.7806 -0.1143 0.8750
Cd2 Cd -0.08717(5) 0.36958(3) 0.24995(3)
O8 O -0.0392(4) 0.2352(3) 0.2813(3)
O9 O -0.1645(5) 0.4998(3) 0.2342(3)
O10 O 0.0257(4) 0.2951(3) 0.1748(2)
O11 O -0.2311(6) 0.3520(4) 0.3024(3)
O12 O -0.0015(5) 0.4230(3) 0.1559(3)
O13 O 0.1153(5) 0.3411(4) 0.1127(3)
O14 O -0.0941(6) 0.4192(5) 0.3856(4)
O15 O -0.2408(5) 0.3829(4) 0.4086(3)
N8 N 0.2250(5) 0.4454(4) 0.4193(3)
N9 N 0.0830(5) 0.4287(4) 0.3216(3)
N10 N -0.2328(5) 0.3119(4) 0.1495(3)
N11 N -0.3514(5) 0.3028(3) 0.0437(3)
N12 N 0.0467(6) 0.3539(4) 0.1471(3)
N13 N -0.1878(7) 0.3834(5) 0.3662(4)
N14 N 0.0321(5) 0.1019(4) 0.2644(3)
N15 N -0.2959(7) 0.5957(4) 0.2477(4)
C34 C 0.2842(7) 0.3386(5) 0.4898(4)
C35 C 0.1955(7) 0.3197(5) 0.5137(4)
C36 C 0.1187(7) 0.3832(6) 0.5289(4)
H30 H 0.1267 0.4387 0.5220
C37 C 0.0345(8) 0.3632(7) 0.5532(5)
H31 H -0.0159 0.4048 0.5614
C38 C 0.3572(7) 0.2735(5) 0.4748(4)
C39 C 0.4497(7) 0.2908(6) 0.4509(4)
H32 H 0.4617 0.3454 0.4435
C40 C 0.5209(8) 0.2266(7) 0.4391(5)
H33 H 0.5815 0.2387 0.4241
C41 C 0.3040(7) 0.4296(5) 0.4831(4)
H34 H 0.2953 0.4717 0.5235
H35 H 0.3806 0.4382 0.4821
C42 C 0.1395(7) 0.3924(5) 0.3709(4)
H36 H 0.1221 0.3355 0.3722
C43 C 0.2239(7) 0.5238(5) 0.4004(4)
C44 C 0.2909(7) 0.6014(5) 0.4310(4)
H37 H 0.3483 0.6089 0.4728
C45 C 0.2686(8) 0.6670(5) 0.3968(4)
H38 H 0.3128 0.7198 0.4152
C46 C 0.1811(7) 0.6558(5) 0.3352(4)
H39 H 0.1689 0.7015 0.3133
C47 C 0.1111(7) 0.5791(5) 0.3050(4)
H40 H 0.0512 0.5732 0.2646
C48 C 0.1353(6) 0.5116(5) 0.3384(4)
C49 C -0.2654(6) 0.3488(5) 0.0968(4)
H41 H -0.2323 0.4015 0.0964
C50 C -0.3793(6) 0.2305(4) 0.0639(4)
C51 C -0.4626(6) 0.1619(4) 0.0315(4)
H42 H -0.5105 0.1564 -0.0133
C52 C -0.4699(6) 0.1024(4) 0.0697(4)
H43 H -0.5247 0.0558 0.0499
C53 C -0.3988(7) 0.1094(5) 0.1366(4)
H44 H -0.4076 0.0683 0.1606
C54 C -0.3159(6) 0.1763(4) 0.1678(4)
H45 H -0.2671 0.1804 0.2121
C55 C -0.3068(6) 0.2384(5) 0.1307(4)
C56 C -0.4094(6) 0.3270(4) -0.0219(3)
H46 H -0.4711 0.2835 -0.0492
H47 H -0.3571 0.3265 -0.0487
C57 C -0.4549(6) 0.4166(4) -0.0093(3)
C58 C -0.5560(6) 0.4266(5) 0.0078(4)
C59 C -0.3968(6) 0.4898(5) -0.0165(3)
C60 C -0.2940(6) 0.4832(5) -0.0331(4)
H48 H -0.2623 0.4296 -0.0387
C61 C -0.2409(7) 0.5536(4) -0.0408(4)
H49 H -0.1738 0.5473 -0.0520
C62 C -0.2852(7) 0.6354(5) -0.0323(4)
H50 H -0.2477 0.6830 -0.0379
C63 C -0.6165(6) 0.3546(4) 0.0159(4)
H51 H -0.5881 0.2998 0.0099
C64 C -0.0225(6) 0.1678(5) 0.2435(4)
H52 H -0.0504 0.1618 0.1957
C65 C 0.0451(8) 0.0224(5) 0.2160(4)
H53 H 0.0868 -0.0164 0.2415
H54 H 0.0848 0.0366 0.1862
H55 H -0.0278 -0.0056 0.1884
C66 C 0.0806(8) 0.1074(5) 0.3379(4)
H56 H 0.1163 0.0547 0.3437
H57 H 0.0223 0.1143 0.3601
H58 H 0.1353 0.1567 0.3586
C67 C -0.2165(7) 0.5442(5) 0.2692(5)
H59 H -0.1992 0.5418 0.3154
C68 C -0.3569(10) 0.6474(6) 0.2933(5)
H60 H -0.4095 0.6807 0.2675
H61 H -0.3042 0.6865 0.3326
H62 H -0.3968 0.6086 0.3093
C69 C -0.3308(9) 0.5999(6) 0.1751(5)
H63 H -0.3878 0.6404 0.1683
H64 H -0.3602 0.5429 0.1456
H65 H -0.2671 0.6191 0.1635
N3A N 1.2835(5) -0.1683(3) 1.1510(3)
N4A N 1.1561(5) -0.1896(4) 1.0464(3)
C16A C 1.2415(6) -0.1381(5) 1.0960(4)
H12A H 1.2685 -0.0854 1.0915
C17A C 1.1384(6) -0.2615(4) 1.0723(4)
C18A C 1.0621(6) -0.3343(4) 1.0450(4)
H13A H 1.0097 -0.3443 1.0011
C19A C 1.0684(7) -0.3914(4) 1.0870(4)
H14A H 1.0174 -0.4405 1.0712
C20A C 1.1480(7) -0.3779(5) 1.1517(4)
H15A H 1.1489 -0.4183 1.1779
C21A C 1.2260(6) -0.3067(4) 1.1785(4)
H16A H 1.2805 -0.2987 1.2215
C22A C 1.2187(6) -0.2468(4) 1.1370(4)
C23A C 1.0907(6) -0.1722(4) 0.9798(3)
H17A H 1.1381 -0.1754 0.9497
H18A H 1.0284 -0.2165 0.9567
C24A C 1.0458(6) -0.0826(4) 0.9918(3)
C25A C 0.9505(6) -0.0707(4) 1.0154(3)
C26A C 1.0971(6) -0.0128(4) 0.9762(3)
C27A C 1.1940(6) -0.0203(4) 0.9524(4)
H19A H 1.2259 -0.0737 0.9461
C28A C 1.2408(6) 0.0486(4) 0.9387(4)
H20A H 1.3054 0.0421 0.9246
C29A C 1.1936(7) 0.1289(4) 0.9454(4)
H21A H 1.2244 0.1746 0.9336
C30A C 0.8978(6) -0.1405(5) 1.0307(4)
H22A H 0.9264 -0.1953 1.0243
N10A N -0.7672(5) 0.6881(4) -0.1495(3)
N11A N -0.6486(5) 0.6972(3) -0.0437(3)
C49A C -0.7346(6) 0.6512(5) -0.0968(4)
H41A H -0.7677 0.5985 -0.0964
C50A C -0.6207(6) 0.7695(4) -0.0639(4)
C51A C -0.5374(6) 0.8381(4) -0.0315(4)
H42A H -0.4895 0.8436 0.0133
C52A C -0.5301(6) 0.8976(4) -0.0697(4)
H43A H -0.4753 0.9442 -0.0499
C53A C -0.6012(7) 0.8906(5) -0.1366(4)
H44A H -0.5924 0.9317 -0.1606
C54A C -0.6841(6) 0.8237(4) -0.1678(4)
H45A H -0.7329 0.8196 -0.2121
C55A C -0.6932(6) 0.7616(5) -0.1307(4)
C56A C -0.5906(6) 0.6730(4) 0.0219(3)
H46A H -0.5289 0.7165 0.0492
H47A H -0.6429 0.6735 0.0487
C57A C -0.5451(6) 0.5834(4) 0.0093(3)
C58A C -0.4440(6) 0.5734(5) -0.0078(4)
C59A C -0.6032(6) 0.5102(5) 0.0165(3)
C60A C -0.7060(6) 0.5168(5) 0.0331(4)
H48A H -0.7377 0.5704 0.0387
C61A C -0.7591(7) 0.4464(4) 0.0408(4)
H49A H -0.8262 0.4527 0.0520
C62A C -0.7148(7) 0.3646(5) 0.0323(4)
H50A H -0.7523 0.3170 0.0379
C63A C -0.3835(6) 0.6454(4) -0.0159(4)
H51A H -0.4119 0.7002 -0.0099
Cd1A Cd -1.57479(5) 0.90529(3) -0.75660(3)
O1A O -1.4682(5) 0.9095(3) -0.8385(3)
O2A O -1.4620(4) 0.7910(3) -0.8025(3)
O3A O -1.6896(5) 0.9541(4) -0.6796(3)
O4A O -1.6194(5) 0.8283(3) -0.6785(3)
O5A O -1.7017(5) 0.8878(4) -0.6010(3)
O6A O -1.3683(5) 0.8060(4) -0.8741(3)
O7A O -1.6323(4) 1.0320(3) -0.7890(3)
N1A N -1.2830(5) 0.9486(4) -0.5697(3)
N2A N -1.4156(5) 0.9479(4) -0.6683(3)
N5A N -1.4317(6) 0.8356(4) -0.8393(3)
N6A N -1.6720(6) 0.8897(5) -0.6518(4)
N7A N -1.6990(6) 1.1652(4) -0.7752(3)
C1A C -1.2480(7) 0.8320(5) -0.5051(4)
C2A C -1.1771(7) 0.7669(5) -0.5231(4)
C3A C -1.0898(8) 0.7815(6) -0.5508(4)
H1A H -1.0785 0.8360 -0.5586
C4A C -1.0217(9) 0.7177(7) -0.5662(5)
H2A H -0.9661 0.7284 -0.5857
C5A C -1.3387(7) 0.8124(5) -0.4832(4)
C6A C -1.4167(8) 0.8772(6) -0.4689(4)
H3A H -1.4059 0.9335 -0.4736
C7A C -1.5042(9) 0.8562(7) -0.4490(5)
H4A H -1.5550 0.8978 -0.4416
C8A C -1.2206(7) 0.9254(5) -0.5052(4)
H5A H -1.1406 0.9341 -0.4984
H6A H -1.2375 0.9647 -0.4662
C9A C -1.3751(7) 0.9062(5) -0.6189(4)
H7A H -1.4073 0.8532 -0.6185
C10A C -1.2606(7) 1.0241(5) -0.5884(4)
C11A C -1.1764(7) 1.0916(5) -0.5555(4)
H8A H -1.1204 1.0915 -0.5145
C12A C -1.1821(8) 1.1593(5) -0.5885(4)
H9A H -1.1293 1.2072 -0.5677
C13A C -1.2629(8) 1.1587(6) -0.6509(4)
H10A H -1.2611 1.2049 -0.6714
C14A C -1.3460(7) 1.0910(5) -0.6833(4)
H11A H -1.4009 1.0908 -0.7248
C15A C -1.3433(6) 1.0224(5) -0.6503(4)
C31A C -1.6536(7) 1.0984(5) -0.7524(4)
H23A H -1.6366 1.1023 -0.7050
C32A C -1.7224(7) 1.2438(5) -0.7298(4)
H24A H -1.7556 1.2838 -0.7569
H25A H -1.7736 1.2286 -0.7068
H26A H -1.6535 1.2711 -0.6956
C33A C -1.7275(9) 1.1633(6) -0.8484(5)
H27A H -1.7600 1.2165 -0.8558
H28A H -1.6607 1.1578 -0.8627
H29A H -1.7806 1.1143 -0.8750
Cd2A Cd -0.91283(5) 0.63042(3) -0.24995(3)
O8A O -0.9608(4) 0.7648(3) -0.2813(3)
O9A O -0.8355(5) 0.5002(3) -0.2342(3)
O10A O -1.0257(4) 0.7049(3) -0.1748(2)
O11A O -0.7689(6) 0.6480(4) -0.3024(3)
O12A O -0.9985(5) 0.5770(3) -0.1559(3)
O13A O -1.1153(5) 0.6589(4) -0.1127(3)
O14A O -0.9059(6) 0.5808(5) -0.3856(4)
O15A O -0.7592(5) 0.6171(4) -0.4086(3)
N8A N -1.2250(5) 0.5546(4) -0.4193(3)
N9A N -1.0830(5) 0.5713(4) -0.3216(3)
N12A N -1.0467(6) 0.6461(4) -0.1471(3)
N13A N -0.8122(7) 0.6166(5) -0.3662(4)
N14A N -1.0321(5) 0.8981(4) -0.2644(3)
N15A N -0.7041(7) 0.4043(4) -0.2477(4)
C34A C -1.2842(7) 0.6614(5) -0.4898(4)
C35A C -1.1955(7) 0.6803(5) -0.5137(4)
C36A C -1.1187(7) 0.6168(6) -0.5289(4)
H30A H -1.1267 0.5613 -0.5220
C37A C -1.0345(8) 0.6368(7) -0.5532(5)
H31A H -0.9841 0.5952 -0.5614
C38A C -1.3572(7) 0.7265(5) -0.4748(4)
C39A C -1.4497(7) 0.7092(6) -0.4509(4)
H32A H -1.4617 0.6546 -0.4435
C40A C -1.5209(8) 0.7734(7) -0.4391(5)
H33A H -1.5815 0.7613 -0.4241
C41A C -1.3040(7) 0.5704(5) -0.4831(4)
H34A H -1.2953 0.5283 -0.5235
H35A H -1.3806 0.5618 -0.4821
C42A C -1.1395(7) 0.6076(5) -0.3709(4)
H36A H -1.1221 0.6645 -0.3722
C43A C -1.2239(7) 0.4762(5) -0.4004(4)
C44A C -1.2909(7) 0.3986(5) -0.4310(4)
H37A H -1.3483 0.3911 -0.4728
C45A C -1.2686(8) 0.3330(5) -0.3968(4)
H38A H -1.3128 0.2802 -0.4152
C46A C -1.1811(7) 0.3442(5) -0.3352(4)
H39A H -1.1689 0.2985 -0.3133
C47A C -1.1111(7) 0.4209(5) -0.3050(4)
H40A H -1.0512 0.4268 -0.2646
C48A C -1.1353(6) 0.4884(5) -0.3384(4)
C64A C -0.9775(6) 0.8322(5) -0.2435(4)
H52A H -0.9496 0.8382 -0.1957
C65A C -1.0451(8) 0.9776(5) -0.2160(4)
H53A H -1.0868 1.0164 -0.2415
H54A H -1.0848 0.9634 -0.1862
H55A H -0.9722 1.0056 -0.1884
C66A C -1.0806(8) 0.8926(5) -0.3379(4)
H56A H -1.1163 0.9453 -0.3437
H57A H -1.0223 0.8857 -0.3601
H58A H -1.1353 0.8433 -0.3586
C67A C -0.7835(7) 0.4558(5) -0.2692(5)
H59A H -0.8008 0.4582 -0.3154
C68A C -0.6431(10) 0.3526(6) -0.2933(5)
H60A H -0.5905 0.3193 -0.2675
H61A H -0.6958 0.3135 -0.3326
H62A H -0.6032 0.3914 -0.3093
C69A C -0.6692(9) 0.4001(6) -0.1751(5)
H63A H -0.6122 0.3596 -0.1683
H64A H -0.6398 0.4571 -0.1456
H65A H -0.7329 0.3809 -0.1635
Cd1A_2 Cd 1.42521(5) -0.09471(3) 1.24340(3)
N3A_2 N -1.7165(5) 0.8317(3) -0.8490(3)
O16 O 0.9899(5) 0.0653(4) 0.6068(3)
N16 N 1.0597(7) 0.1472(5) 0.7174(4)
C70 C 1.1708(9) 0.1158(10) 0.7258(6)
H66 H 1.2192 0.1436 0.7715
H67 H 1.2010 0.1293 0.6915
H68 H 1.1658 0.0535 0.7200
C71 C 1.0442(10) 0.2141(7) 0.7743(5)
H69 H 1.1127 0.2261 0.8123
H70 H 0.9848 0.1942 0.7893
H71 H 1.0249 0.2665 0.7592
C72 C 0.9793(8) 0.1171(6) 0.6578(5)
H72 H 0.9085 0.1375 0.6547
O17 O 0.5228(6) 0.5374(5) 0.6188(4)
N17 N 0.5408(7) 0.5643(5) 0.7339(4)
C73 C 0.4952(8) 0.6077(6) 0.7899(5)
H73 H 0.5402 0.5975 0.8332
H74 H 0.4192 0.5846 0.7799
H75 H 0.4965 0.6695 0.7934
C74 C 0.6396(8) 0.5179(7) 0.7518(5)
H76 H 0.6621 0.5215 0.8008
H77 H 0.6993 0.5434 0.7402
H78 H 0.6234 0.4576 0.7263
C75 C 0.4920(9) 0.5698(7) 0.6698(5)
H79 H 0.4283 0.6011 0.6624
loop_
_geom_bond_atom_site_label_1
_geom_bond_atom_site_label_2
_geom_bond_site_symmetry_1
_geom_bond_site_symmetry_2
Cd1 O1 1_555 1_555
O1 N5 1_555 1_555
O2 Cd1 1_555 1_555
O3 Cd1 1_555 1_555
O4 Cd1 1_555 1_555
O5 N6 1_555 1_555
O6 N5 1_555 1_555
O7 Cd1 1_555 1_555
N1 C8 1_555 1_555
N2 Cd1 1_555 1_555
N3 Cd1 1_555 1_555
N4 C16 1_555 1_555
N5 O2 1_555 1_555
N6 O3 1_555 1_555
N7 C31 1_555 1_555
C1 C2 1_555 1_555
C2 C3 1_555 1_555
C3 H1 1_555 1_555
C4 C3 1_555 1_555
H2 C4 1_555 1_555
C5 C1 1_555 1_555
C6 C5 1_555 1_555
H3 C6 1_555 1_555
C7 C6 1_555 1_555
H4 C7 1_555 1_555
C8 C1 1_555 1_555
H5 C8 1_555 1_555
H6 C8 1_555 1_555
C9 N1 1_555 1_555
H7 C9 1_555 1_555
C10 N1 1_555 1_555
C11 C10 1_555 1_555
H8 C11 1_555 1_555
C12 C11 1_555 1_555
H9 C12 1_555 1_555
C13 C12 1_555 1_555
H10 C13 1_555 1_555
C14 C13 1_555 1_555
H11 C14 1_555 1_555
C15 N2 1_555 1_555
C16 N3 1_555 1_555
H12 C16 1_555 1_555
C17 N4 1_555 1_555
C18 C17 1_555 1_555
H13 C18 1_555 1_555
C19 C18 1_555 1_555
H14 C19 1_555 1_555
C20 C19 1_555 1_555
H15 C20 1_555 1_555
C21 C20 1_555 1_555
H16 C21 1_555 1_555
C22 N3 1_555 1_555
C23 N4 1_555 1_555
H17 C23 1_555 1_555
H18 C23 1_555 1_555
C24 C23 1_555 1_555
C25 C24 1_555 1_555
C26 C24 1_555 1_555
C27 C26 1_555 1_555
H19 C27 1_555 1_555
C28 C27 1_555 1_555
H20 C28 1_555 1_555
C29 C28 1_555 1_555
H21 C29 1_555 1_555
C30 C25 1_555 1_555
H22 C30 1_555 1_555
C31 O7 1_555 1_555
H23 C31 1_555 1_555
C32 N7 1_555 1_555
H24 C32 1_555 1_555
H25 C32 1_555 1_555
H26 C32 1_555 1_555
C33 N7 1_555 1_555
H27 C33 1_555 1_555
H28 C33 1_555 1_555
H29 C33 1_555 1_555
Cd2 O8 1_555 1_555
O8 C64 1_555 1_555
O9 Cd2 1_555 1_555
O10 Cd2 1_555 1_555
O11 Cd2 1_555 1_555
O12 Cd2 1_555 1_555
O13 N12 1_555 1_555
O14 Cd2 1_555 1_555
O15 N13 1_555 1_555
N8 C41 1_555 1_555
N9 Cd2 1_555 1_555
N10 Cd2 1_555 1_555
N11 C49 1_555 1_555
N12 O10 1_555 1_555
N13 O11 1_555 1_555
N14 C64 1_555 1_555
N15 C67 1_555 1_555
C34 C35 1_555 1_555
C35 C2 1_555 1_555
C36 C35 1_555 1_555
H30 C36 1_555 1_555
C37 C4 1_555 1_555
H31 C37 1_555 1_555
C38 C5 1_555 1_555
C39 C38 1_555 1_555
H32 C39 1_555 1_555
C40 C7 1_555 1_555
H33 C40 1_555 1_555
C41 C34 1_555 1_555
H34 C41 1_555 1_555
H35 C41 1_555 1_555
C42 N8 1_555 1_555
H36 C42 1_555 1_555
C43 N8 1_555 1_555
C44 C43 1_555 1_555
H37 C44 1_555 1_555
C45 C44 1_555 1_555
H38 C45 1_555 1_555
C46 C45 1_555 1_555
H39 C46 1_555 1_555
C47 C46 1_555 1_555
H40 C47 1_555 1_555
C48 N9 1_555 1_555
C49 N10 1_555 1_555
H41 C49 1_555 1_555
C50 N11 1_555 1_555
C51 C50 1_555 1_555
H42 C51 1_555 1_555
C52 C51 1_555 1_555
H43 C52 1_555 1_555
C53 C52 1_555 1_555
H44 C53 1_555 1_555
C54 C53 1_555 1_555
H45 C54 1_555 1_555
C55 N10 1_555 1_555
C56 N11 1_555 1_555
H46 C56 1_555 1_555
H47 C56 1_555 1_555
C57 C56 1_555 1_555
C58 C57 1_555 1_555
C59 C57 1_555 1_555
C60 C59 1_555 1_555
H48 C60 1_555 1_555
C61 C60 1_555 1_555
H49 C61 1_555 1_555
C62 C61 1_555 1_555
H50 C62 1_555 1_555
C63 C58 1_555 1_555
H51 C63 1_555 1_555
C64 H52 1_555 1_555
C65 N14 1_555 1_555
H53 C65 1_555 1_555
H54 C65 1_555 1_555
H55 C65 1_555 1_555
C66 N14 1_555 1_555
H56 C66 1_555 1_555
H57 C66 1_555 1_555
H58 C66 1_555 1_555
C67 O9 1_555 1_555
H59 C67 1_555 1_555
C68 N15 1_555 1_555
H60 C68 1_555 1_555
H61 C68 1_555 1_555
H62 C68 1_555 1_555
C69 N15 1_555 1_555
H63 C69 1_555 1_555
H64 C69 1_555 1_555
H65 C69 1_555 1_555
O16 C72 1_555 1_555
N16 C70 1_555 1_555
C70 H66 1_555 1_555
H67 C70 1_555 1_555
H68 C70 1_555 1_555
C71 N16 1_555 1_555
H69 C71 1_555 1_555
H70 C71 1_555 1_555
H71 C71 1_555 1_555
C72 N16 1_555 1_555
H72 C72 1_555 1_555
O17 C75 1_555 1_555
N17 C73 1_555 1_555
C73 H73 1_555 1_555
H74 C73 1_555 1_555
H75 C73 1_555 1_555
C74 N17 1_555 1_555
H76 C74 1_555 1_555
H77 C74 1_555 1_555
H78 C74 1_555 1_555
C75 N17 1_555 1_555
H79 C75 1_555 1_555
N3A C16A 1_555 1_555
N4A C16A 1_555 1_555
C16A H12A 1_555 1_555
C17A N4A 1_555 1_555
C18A C17A 1_555 1_555
H13A C18A 1_555 1_555
C19A C18A 1_555 1_555
H14A C19A 1_555 1_555
C20A C19A 1_555 1_555
H15A C20A 1_555 1_555
C21A C20A 1_555 1_555
H16A C21A 1_555 1_555
C22A N3A 1_555 1_555
C23A N4A 1_555 1_555
H17A C23A 1_555 1_555
H18A C23A 1_555 1_555
C24A C23A 1_555 1_555
C25A C26 1_555 1_555
C26A C25 1_555 1_555
C27A C26A 1_555 1_555
H19A C27A 1_555 1_555
C28A C27A 1_555 1_555
H20A C28A 1_555 1_555
C29A C30 1_555 1_555
H21A C29A 1_555 1_555
C30A C29 1_555 1_555
H22A C30A 1_555 1_555
N10A C49A 1_555 1_555
N11A C49A 1_555 1_555
C49A H41A 1_555 1_555
C50A N11A 1_555 1_555
C51A C50A 1_555 1_555
H42A C51A 1_555 1_555
C52A C51A 1_555 1_555
H43A C52A 1_555 1_555
C53A C52A 1_555 1_555
H44A C53A 1_555 1_555
C54A C53A 1_555 1_555
H45A C54A 1_555 1_555
C55A N10A 1_555 1_555
C56A N11A 1_555 1_555
H46A C56A 1_555 1_555
H47A C56A 1_555 1_555
C57A C56A 1_555 1_555
C58A C59 1_555 1_555
C59A C58 1_555 1_555
C60A C59A 1_555 1_555
H48A C60A 1_555 1_555
C61A C60A 1_555 1_555
H49A C61A 1_555 1_555
C62A C63 1_555 1_555
H50A C62A 1_555 1_555
C63A C62 1_555 1_555
H51A C63A 1_555 1_555
Cd1A O1A 1_555 1_555
O1A N5A 1_555 1_555
O2A Cd1A 1_555 1_555
O3A Cd1A 1_555 1_555
O4A Cd1A 1_555 1_555
O5A N6A 1_555 1_555
O6A N5A 1_555 1_555
O7A Cd1A 1_555 1_555
N1A C8A 1_555 1_555
N2A Cd1A 1_555 1_555
N5A O2A 1_555 1_555
N6A O3A 1_555 1_555
N7A C31A 1_555 1_555
C1A C2A 1_555 1_555
C2A C3A 1_555 1_555
C3A H1A 1_555 1_555
C4A C3A 1_555 1_555
H2A C4A 1_555 1_555
C5A C1A 1_555 1_555
C6A C5A 1_555 1_555
H3A C6A 1_555 1_555
C7A C6A 1_555 1_555
H4A C7A 1_555 1_555
C8A C1A 1_555 1_555
H5A C8A 1_555 1_555
H6A C8A 1_555 1_555
C9A N1A 1_555 1_555
H7A C9A 1_555 1_555
C10A N1A 1_555 1_555
C11A C10A 1_555 1_555
H8A C11A 1_555 1_555
C12A C11A 1_555 1_555
H9A C12A 1_555 1_555
C13A C12A 1_555 1_555
H10A C13A 1_555 1_555
C14A C13A 1_555 1_555
H11A C14A 1_555 1_555
C15A N2A 1_555 1_555
C31A O7A 1_555 1_555
H23A C31A 1_555 1_555
C32A N7A 1_555 1_555
H24A C32A 1_555 1_555
H25A C32A 1_555 1_555
H26A C32A 1_555 1_555
C33A N7A 1_555 1_555
H27A C33A 1_555 1_555
H28A C33A 1_555 1_555
H29A C33A 1_555 1_555
Cd2A N10A 1_555 1_555
O8A Cd2A 1_555 1_555
O9A Cd2A 1_555 1_555
O10A Cd2A 1_555 1_555
O11A Cd2A 1_555 1_555
O12A Cd2A 1_555 1_555
O13A N12A 1_555 1_555
O14A Cd2A 1_555 1_555
O15A N13A 1_555 1_555
N8A C41A 1_555 1_555
N9A Cd2A 1_555 1_555
N12A O10A 1_555 1_555
N13A O11A 1_555 1_555
N14A C64A 1_555 1_555
N15A C67A 1_555 1_555
C34A C35A 1_555 1_555
C35A C2A 1_555 1_555
C36A C35A 1_555 1_555
H30A C36A 1_555 1_555
C37A C4A 1_555 1_555
H31A C37A 1_555 1_555
C38A C5A 1_555 1_555
C39A C38A 1_555 1_555
H32A C39A 1_555 1_555
C40A C7A 1_555 1_555
H33A C40A 1_555 1_555
C41A C34A 1_555 1_555
H34A C41A 1_555 1_555
H35A C41A 1_555 1_555
C42A N8A 1_555 1_555
H36A C42A 1_555 1_555
C43A N8A 1_555 1_555
C44A C43A 1_555 1_555
H37A C44A 1_555 1_555
C45A C44A 1_555 1_555
H38A C45A 1_555 1_555
C46A C45A 1_555 1_555
H39A C46A 1_555 1_555
C47A C46A 1_555 1_555
H40A C47A 1_555 1_555
C48A N9A 1_555 1_555
C64A O8A 1_555 1_555
H52A C64A 1_555 1_555
C65A N14A 1_555 1_555
H53A C65A 1_555 1_555
H54A C65A 1_555 1_555
H55A C65A 1_555 1_555
C66A N14A 1_555 1_555
H56A C66A 1_555 1_555
H57A C66A 1_555 1_555
H58A C66A 1_555 1_555
C67A O9A 1_555 1_555
H59A C67A 1_555 1_555
C68A N15A 1_555 1_555
H60A C68A 1_555 1_555
H61A C68A 1_555 1_555
H62A C68A 1_555 1_555
C69A N15A 1_555 1_555
H63A C69A 1_555 1_555
H64A C69A 1_555 1_555
H65A C69A 1_555 1_555
Cd1A_2 N3A 1_555 1_555
N3A_2 Cd1A 1_555 1_555
O4 N6 1_555 1_555
N2 C9 1_555 1_555
C10 C15 1_555 1_555
C14 C15 1_555 1_555
C17 C22 1_555 1_555
C21 C22 1_555 1_555
O12 N12 1_555 1_555
O14 N13 1_555 1_555
N9 C42 1_555 1_555
C34 C38 1_555 1_555
C36 C37 1_555 1_555
C39 C40 1_555 1_555
C43 C48 1_555 1_555
C47 C48 1_555 1_555
C50 C55 1_555 1_555
C54 C55 1_555 1_555
C17A C22A 1_555 1_555
C21A C22A 1_555 1_555
C24A C25A 1_555 1_555
C24A C26A 1_555 1_555
C25A C30A 1_555 1_555
C28A C29A 1_555 1_555
C50A C55A 1_555 1_555
C54A C55A 1_555 1_555
C57A C58A 1_555 1_555
C57A C59A 1_555 1_555
C58A C63A 1_555 1_555
C61A C62A 1_555 1_555
O4A N6A 1_555 1_555
N2A C9A 1_555 1_555
C10A C15A 1_555 1_555
C14A C15A 1_555 1_555
O12A N12A 1_555 1_555
O14A N13A 1_555 1_555
N9A C42A 1_555 1_555
C34A C38A 1_555 1_555
C36A C37A 1_555 1_555
C39A C40A 1_555 1_555
C43A C48A 1_555 1_555
C47A C48A 1_555 1_555

#END
