
#######################################################################
#
#                 Cambridge Crystallographic Data Centre
#                                CCDC 
#
#######################################################################
#
# If this CIF has been generated from an entry in the Cambridge 
# Structural Database, then it will include bibliographic, chemical, 
# crystal, experimental, refinement or atomic coordinate data resulting 
# from the CCDC's data processing and validation procedures.
#
#######################################################################

data_HOMREH
_symmetry_cell_setting           triclinic
_symmetry_space_group_name_H-M   'P -1'
_symmetry_Int_Tables_number      2
_space_group_name_Hall           '-P 1'
loop_
_symmetry_equiv_pos_site_id
_symmetry_equiv_pos_as_xyz
1 x,y,z
2 -x,-y,-z
_cell_length_a                   11.4870(11)
_cell_length_b                   11.5977(11)
_cell_length_c                   11.6541(11)
_cell_angle_alpha                98.9080(10)
_cell_angle_beta                 107.6000(10)
_cell_angle_gamma                109.7280(10)
_cell_volume                     1334.72
loop_
_atom_site_label
_atom_site_type_symbol
_atom_site_fract_x
_atom_site_fract_y
_atom_site_fract_z
Si1 Si 0.5000 0.5000 1.5000
W1 W 0.77209(15) 0.80228(15) 1.59586(17)
W2 W 0.74224(15) 0.54611(15) 1.36417(14)
W3 W 0.58039(19) 0.48479(17) 1.81312(15)
W4 W 0.5570(2) 0.23693(17) 1.5775(2)
W5 W 0.82513(16) 0.53882(17) 1.68108(19)
W6 W 0.53367(17) 0.75348(16) 1.73630(14)
O1 O 1.313(4) 0.726(3) 1.952(3)
O2 O 0.547(6) 0.314(4) 1.725(7)
O3 O 0.699(5) 0.821(4) 1.720(5)
O4 O 0.541(4) 0.199(4) 1.401(4)
O5 O 0.828(4) 0.521(4) 1.516(4)
O6 O 0.784(4) 0.718(3) 1.461(4)
O7 O 0.853(4) 0.570(4) 1.296(4)
O8 O 0.775(5) 0.543(5) 1.833(5)
O9 O 0.634(4) 0.834(4) 1.489(4)
O10 O 0.845(4) 0.711(4) 1.691(4)
O11 O 0.731(6) 0.357(5) 1.629(5)
O12 O 0.609(3) 0.569(3) 1.245(3)
O13 O 0.549(4) 0.874(3) 1.849(3)
O14 O 0.601(3) 0.658(3) 1.834(3)
O15 O 0.638(3) 0.370(3) 1.295(3)
O16 O 0.980(3) 0.560(3) 1.766(3)
O17 O 0.619(3) 0.475(3) 1.961(3)
O18 O 0.896(3) 0.944(3) 1.637(3)
O19 O 0.583(3) 0.114(3) 1.616(3)
Cu1 Cu 0.8887(7) 0.2213(8) 1.6459(5)
Cu2 Cu 1.1543(5) 0.7910(6) 1.8712(5)
C1 C 0.868(4) 0.232(4) 1.386(4)
H1 H 0.9415 0.3105 1.4120
C2 C 0.727(4) 0.074(4) 1.394(4)
H2 H 0.6715 0.0136 1.4200
C3 C 0.623(5) -0.041(4) 1.161(5)
H3 H 0.6222 -0.0119 1.0874
H4 H 0.5335 -0.0705 1.1608
C4 C 0.667(4) -0.150(3) 1.157(4)
H5 H 0.5978 -0.2247 1.0911
H6 H 0.6810 -0.1702 1.2365
C5 C 0.801(4) -0.113(4) 1.133(4)
H7 H 0.7859 -0.1037 1.0487
H8 H 0.8688 -0.0324 1.1927
C6 C 0.848(4) -0.223(4) 1.148(4)
H9 H 0.8715 -0.2252 1.2347
H10 H 0.7749 -0.3041 1.0956
N1 N 0.828(3) 0.183(3) 1.470(3)
N2 N 0.717(3) 0.064(3) 1.276(3)
N3 N 0.807(3) 0.174(3) 1.272(3)
N4 N 0.963(2) -0.206(3) 1.113(2)
N5 N 1.074(3) -0.214(3) 1.182(2)
C7 C 1.149(3) -0.210(3) 1.114(2)
H11 H 1.2321 -0.2140 1.1399
N6 N 1.084(2) -0.200(3) 1.003(2)
C8 C 0.969(2) -0.198(3) 1.003(2)
H12 H 0.9042 -0.1916 0.9362
O20 O 0.555(4) 0.653(4) 1.561(4)
O21 O 0.537(4) 0.466(4) 1.388(4)
O22 O 0.356(4) 0.429(4) 1.489(4)
O23 O 0.594(5) 0.459(5) 1.615(5)
W1A W 0.22791(15) 0.19772(15) 1.40414(17)
W2A W 0.25776(15) 0.45389(15) 1.63583(14)
W3A W 0.41961(19) 0.51521(17) 1.18688(15)
W4A W 0.4430(2) 0.76307(17) 1.4225(2)
W5A W 0.17487(16) 0.46118(17) 1.31892(19)
W6A W 0.46633(17) 0.24652(16) 1.26370(14)
O1A O -0.313(4) 0.274(3) 1.048(3)
O2A O 0.453(6) 0.686(4) 1.275(7)
O3A O 0.301(5) 0.179(4) 1.280(5)
O4A O 0.459(4) 0.801(4) 1.599(4)
O5A O 0.172(4) 0.479(4) 1.484(4)
O6A O 0.216(4) 0.282(3) 1.539(4)
O7A O 0.147(4) 0.430(4) 1.704(4)
O8A O 0.225(5) 0.457(5) 1.167(5)
O9A O 0.366(4) 0.166(4) 1.511(4)
O10A O 0.155(4) 0.289(4) 1.309(4)
O11A O 0.269(6) 0.643(5) 1.371(5)
O12A O 0.391(3) 0.431(3) 1.755(3)
O13A O 0.451(4) 0.126(3) 1.151(3)
O14A O 0.399(3) 0.342(3) 1.166(3)
O15A O 0.362(3) 0.630(3) 1.705(3)
O16A O 0.020(3) 0.440(3) 1.234(3)
O17A O 0.381(3) 0.525(3) 1.039(3)
O18A O 0.104(3) 0.056(3) 1.363(3)
O19A O 0.417(3) 0.886(3) 1.384(3)
Cu1A Cu 0.1113(7) 0.7787(8) 1.3541(5)
Cu1A_2 Cu 1.1113(7) -0.2213(8) 1.3541(5)
Cu2A Cu -0.1543(5) 0.2090(6) 1.1288(5)
Cu2A_2 Cu 0.8457(5) 0.2090(6) 1.1288(5)
Cu2_2 Cu 1.1543(5) -0.2090(6) 0.8712(5)
Cu2_3 Cu 1.1543(5) -0.2090(6) 1.8712(5)
Cu2A_3 Cu 0.8457(5) 0.2090(6) 2.1288(5)
C1A C 1.132(4) -0.232(4) 1.614(4)
H1A H 1.0585 -0.3105 1.5880
C2A C 1.273(4) -0.074(4) 1.606(4)
H2A H 1.3285 -0.0136 1.5800
C3A C 1.377(5) 0.041(4) 1.839(5)
H3A H 1.3778 0.0119 1.9126
H4A H 1.4665 0.0705 1.8392
C4A C 1.333(4) 0.150(3) 1.843(4)
H5A H 1.4022 0.2247 1.9089
H6A H 1.3190 0.1702 1.7635
C5A C 1.199(4) 0.113(4) 1.867(4)
H7A H 1.2141 0.1037 1.9513
H8A H 1.1312 0.0324 1.8073
C6A C 1.152(4) 0.223(4) 1.852(4)
H9A H 1.1285 0.2252 1.7653
H10A H 1.2251 0.3041 1.9044
N1A N 1.172(3) -0.183(3) 1.530(3)
N1A_2 N 0.172(3) 0.817(3) 1.530(3)
N2A N 1.283(3) -0.064(3) 1.724(3)
N3A N 1.193(3) -0.174(3) 1.728(3)
N3A_2 N 1.193(3) 0.826(3) 1.728(3)
N3_2 N -0.193(3) 0.174(3) 1.272(3)
N4A N 1.037(2) 0.206(3) 1.887(2)
N5A N 0.926(3) 0.214(3) 1.818(2)
N5_2 N 0.074(3) 0.786(3) 1.182(2)
C7A C 0.851(3) 0.210(3) 1.886(2)
H11A H 0.7679 0.2140 1.8601
N6A N 0.916(2) 0.200(3) 1.997(2)
N6_2 N 1.084(2) 0.800(3) 2.003(2)
N6A_2 N -0.084(2) 0.200(3) 0.997(2)
C8A C 1.031(2) 0.198(3) 1.997(2)
H12A H 1.0958 0.1916 2.0638
O20A O 0.445(4) 0.347(4) 1.439(4)
O21A O 0.463(4) 0.534(4) 1.612(4)
O22A O 0.644(4) 0.571(4) 1.511(4)
O23A O 0.406(5) 0.541(5) 1.385(5)
loop_
_geom_bond_atom_site_label_1
_geom_bond_atom_site_label_2
_geom_bond_site_symmetry_1
_geom_bond_site_symmetry_2
Si1 O20 1_555 1_555
W1 O3 1_555 1_555
W2 O5 1_555 1_555
W3 O2 1_555 1_555
W4 O2 1_555 1_555
W5 O5 1_555 1_555
W6 O3 1_555 1_555
O1 Cu2 1_555 1_555
O4 W4 1_555 1_555
O6 W1 1_555 1_555
O7 W2 1_555 1_555
O8 W3 1_555 1_555
O9 W1 1_555 1_555
O10 W1 1_555 1_555
O11 W4 1_555 1_555
O12 W2 1_555 1_555
O13 W6 1_555 1_555
O14 W3 1_555 1_555
O15 W2 1_555 1_555
O16 W5 1_555 1_555
O17 W3 1_555 1_555
O18 W1 1_555 1_555
O19 W4 1_555 1_555
Cu1 O11 1_555 1_555
Cu2 O16 1_555 1_555
C1 H1 1_555 1_555
C2 H2 1_555 1_555
C3 H3 1_555 1_555
H4 C3 1_555 1_555
C4 C3 1_555 1_555
H5 C4 1_555 1_555
H6 C4 1_555 1_555
C5 C4 1_555 1_555
H7 C5 1_555 1_555
H8 C5 1_555 1_555
C6 C5 1_555 1_555
H9 C6 1_555 1_555
H10 C6 1_555 1_555
N1 Cu1 1_555 1_555
N2 C2 1_555 1_555
N3 C1 1_555 1_555
N4 C6 1_555 1_555
N5 N4 1_555 1_555
C7 N5 1_555 1_555
H11 C7 1_555 1_555
N6 C7 1_555 1_555
C8 N4 1_555 1_555
H12 C8 1_555 1_555
O20 W1 1_555 1_555
O21 Si1 1_555 1_555
O22 Si1 1_555 1_555
O23 Si1 1_555 1_555
W1A O22 1_555 1_555
W2A O22 1_555 1_555
W3A O12 1_555 1_555
W4A O9 1_555 1_555
W5A O5A 1_555 1_555
W6A O4 1_555 1_555
O1A Cu2A 1_555 1_555
O2A W3A 1_555 1_555
O3A W1A 1_555 1_555
O4A W6 1_555 1_555
O5A W2A 1_555 1_555
O6A W1A 1_555 1_555
O7A W2A 1_555 1_555
O8A W3A 1_555 1_555
O9A W4 1_555 1_555
O10A W1A 1_555 1_555
O11A W4A 1_555 1_555
O12A W3 1_555 1_555
O13A W6A 1_555 1_555
O14A W3A 1_555 1_555
O15A W6 1_555 1_555
O16A W5A 1_555 1_555
O17A W3A 1_555 1_555
O18A W1A 1_555 1_555
O19A W4A 1_555 1_555
Cu1A O11A 1_555 1_555
Cu1A_2 N5 1_555 1_555
Cu2A O16A 1_555 1_555
Cu2A_2 N3 1_555 1_555
Cu2_2 N6 1_555 1_555
Cu2_3 N3A 1_555 1_555
Cu2A_3 N6A 1_555 1_555
C1A H1A 1_555 1_555
C2A H2A 1_555 1_555
C3A H3A 1_555 1_555
H4A C3A 1_555 1_555
C4A C3A 1_555 1_555
H5A C4A 1_555 1_555
H6A C4A 1_555 1_555
C5A C4A 1_555 1_555
H7A C5A 1_555 1_555
H8A C5A 1_555 1_555
C6A C5A 1_555 1_555
H9A C6A 1_555 1_555
H10A C6A 1_555 1_555
N1A Cu1A_2 1_555 1_555
N1A_2 Cu1A 1_555 1_555
N2A C2A 1_555 1_555
N3A C1A 1_555 1_555
N3A_2 Cu2 1_555 1_555
N3_2 Cu2A 1_555 1_555
N4A C6A 1_555 1_555
N5A Cu1 1_555 1_555
N5_2 Cu1A 1_555 1_555
C7A N5A 1_555 1_555
H11A C7A 1_555 1_555
N6A C7A 1_555 1_555
N6_2 Cu2 1_555 1_555
N6A_2 Cu2A 1_555 1_555
C8A N4A 1_555 1_555
H12A C8A 1_555 1_555
O20A Si1 1_555 1_555
O21A Si1 1_555 1_555
O22A Si1 1_555 1_555
O23A Si1 1_555 1_555
W1 O22A 1_555 1_555
W2 O6 1_555 1_555
W2 O21 1_555 1_555
W2 O22A 1_555 1_555
W3 O23 1_555 1_555
W4 O23 1_555 1_555
W4 O20A 1_555 1_555
W5 O8 1_555 1_555
W5 O10 1_555 1_555
W5 O11 1_555 1_555
W5 O23 1_555 1_555
W6 O14 1_555 1_555
W6 O20 1_555 1_555
W6 O21A 1_555 1_555
O15 W6A 1_555 1_555
C1 N1 1_555 1_555
C2 N1 1_555 1_555
C3 N2 1_555 1_555
N2 N3 1_555 1_555
N6 C8 1_555 1_555
O20 W4A 1_555 1_555
O20 O21A 1_555 1_555
O20 O22A 1_555 1_555
O21 W6A 1_555 1_555
O21 O20A 1_555 1_555
O21 O22A 1_555 1_555
O22 O20A 1_555 1_555
O22 O21A 1_555 1_555
W1A O9A 1_555 1_555
W1A O20A 1_555 1_555
W2A O6A 1_555 1_555
W2A O12A 1_555 1_555
W2A O15A 1_555 1_555
W2A O21A 1_555 1_555
W3A O23A 1_555 1_555
W4A O2A 1_555 1_555
W4A O4A 1_555 1_555
W4A O23A 1_555 1_555
W5A O8A 1_555 1_555
W5A O10A 1_555 1_555
W5A O11A 1_555 1_555
W5A O23A 1_555 1_555
W6A O3A 1_555 1_555
W6A O14A 1_555 1_555
W6A O20A 1_555 1_555
C1A N1A 1_555 1_555
C2A N1A 1_555 1_555
C3A N2A 1_555 1_555
N2A N3A 1_555 1_555
N4A N5A 1_555 1_555
N6A C8A 1_555 1_555

#END
