
#######################################################################
#
#                 Cambridge Crystallographic Data Centre
#                                CCDC 
#
#######################################################################
#
# If this CIF has been generated from an entry in the Cambridge 
# Structural Database, then it will include bibliographic, chemical, 
# crystal, experimental, refinement or atomic coordinate data resulting 
# from the CCDC's data processing and validation procedures.
#
#######################################################################

data_HOMSAF
_symmetry_cell_setting           monoclinic
_symmetry_space_group_name_H-M   'P 21/n'
_symmetry_Int_Tables_number      14
_space_group_name_Hall           '-P 2yn'
loop_
_symmetry_equiv_pos_site_id
_symmetry_equiv_pos_as_xyz
1 x,y,z
2 1/2-x,1/2+y,1/2-z
3 -x,-y,-z
4 1/2+x,1/2-y,1/2+z
_cell_length_a                   10.1610(5)
_cell_length_b                   7.3197(3)
_cell_length_c                   22.3295(10)
_cell_angle_alpha                90
_cell_angle_beta                 93.6990(10)
_cell_angle_gamma                90
_cell_volume                     1657.31
loop_
_atom_site_label
_atom_site_type_symbol
_atom_site_fract_x
_atom_site_fract_y
_atom_site_fract_z
Mn1 Mn 0.70056(5) 0.29595(7) 0.24471(2)
S1 S 1.25038(9) 0.75112(12) 0.51793(4)
C1 C 0.8639(3) 0.4406(5) 0.32900(16)
C2 C 0.9556(4) 0.5120(5) 0.37861(16)
C3 C 1.0653(4) 0.4090(5) 0.39939(17)
H1 H 1.0788 0.2934 0.3836
C4 C 1.1539(4) 0.4789(5) 0.44347(18)
H2 H 1.2280 0.4122 0.4569
C5 C 1.1298(3) 0.6515(5) 0.46727(15)
C6 C 1.0193(4) 0.7520(5) 0.44875(16)
H3 H 1.0042 0.8653 0.4658
C7 C 0.9312(4) 0.6819(5) 0.40443(17)
H4 H 0.8561 0.7477 0.3919
C8 C 1.3600(3) 0.8407(5) 0.46701(16)
C9 C 1.4570(4) 0.7272(5) 0.44662(17)
H5 H 1.4684 0.6099 0.4621
C10 C 1.5368(4) 0.7907(5) 0.40294(18)
H6 H 1.6024 0.7162 0.3890
C11 C 1.5179(3) 0.9674(5) 0.37997(16)
C12 C 1.4215(4) 1.0804(5) 0.40153(17)
H7 H 1.4103 1.1983 0.3866
C13 C 1.3419(4) 1.0172(5) 0.44531(17)
H8 H 1.2773 1.0920 0.4599
C14 C 1.6033(4) 1.0305(5) 0.33171(16)
O1 O 0.7740(3) 0.5452(3) 0.30574(11)
O2 O 0.8770(3) 0.2804(3) 0.30994(12)
O3 O 1.6999(3) 0.9309(3) 0.32107(12)
O4 O 1.5726(3) 1.1773(4) 0.30446(13)
O5 O 1.1903(3) 0.9004(4) 0.54813(12)
O6 O 1.3171(3) 0.6078(4) 0.55204(12)
O7 O 0.5309(3) 0.4400(4) 0.20444(13)
C15 C 0.3949(5) 0.4273(7) 0.2173(3)
H9 H 0.3735 0.3009 0.2254
H10 H 0.3401 0.4668 0.1825
C16 C 0.3653(9) 0.5428(10) 0.2705(5)
H11 H 0.2743 0.5286 0.2786
H12 H 0.3827 0.6687 0.2619
H13 H 0.4201 0.5047 0.3049
Mn1_2 Mn 1.70056(5) 1.29595(7) 0.24471(2)
Mn1A Mn 0.79944(5) 0.79595(7) 0.25529(2)
Mn1A_2 Mn 1.79944(5) 0.79595(7) 0.25529(2)
O1A O 0.7260(3) 0.0452(3) 0.19426(11)
O3A O 0.8001(3) 0.4309(3) 0.17893(12)
O4_2 O 0.5726(3) 0.1773(4) 0.30446(13)
loop_
_geom_bond_atom_site_label_1
_geom_bond_atom_site_label_2
_geom_bond_site_symmetry_1
_geom_bond_site_symmetry_2
Mn1 O1 1_555 1_555
S1 C5 1_555 1_555
C1 C2 1_555 1_555
C2 C3 1_555 1_555
C3 H1 1_555 1_555
C4 C3 1_555 1_555
H2 C4 1_555 1_555
C5 C4 1_555 1_555
C6 C5 1_555 1_555
H3 C6 1_555 1_555
C7 C2 1_555 1_555
H4 C7 1_555 1_555
C8 S1 1_555 1_555
C9 C8 1_555 1_555
H5 C9 1_555 1_555
C10 C9 1_555 1_555
H6 C10 1_555 1_555
C11 C10 1_555 1_555
C12 C11 1_555 1_555
H7 C12 1_555 1_555
C13 C8 1_555 1_555
H8 C13 1_555 1_555
C14 C11 1_555 1_555
O1 C1 1_555 1_555
O2 Mn1 1_555 1_555
O3 C14 1_555 1_555
O4 C14 1_555 1_555
O5 S1 1_555 1_555
O6 S1 1_555 1_555
O7 Mn1 1_555 1_555
C15 O7 1_555 1_555
H9 C15 1_555 1_555
H10 C15 1_555 1_555
C16 C15 1_555 1_555
H11 C16 1_555 1_555
H12 C16 1_555 1_555
H13 C16 1_555 1_555
Mn1_2 O4 1_555 1_555
Mn1A O1 1_555 1_555
Mn1A_2 O3 1_555 1_555
O1A Mn1 1_555 1_555
O3A Mn1 1_555 1_555
O4_2 Mn1 1_555 1_555
C1 O2 1_555 1_555
C6 C7 1_555 1_555
C12 C13 1_555 1_555

#END
