
#######################################################################
#
#                 Cambridge Crystallographic Data Centre
#                                CCDC 
#
#######################################################################
#
# If this CIF has been generated from an entry in the Cambridge 
# Structural Database, then it will include bibliographic, chemical, 
# crystal, experimental, refinement or atomic coordinate data resulting 
# from the CCDC's data processing and validation procedures.
#
#######################################################################

data_HOMSEJ
_symmetry_cell_setting           triclinic
_symmetry_space_group_name_H-M   'P -1'
_symmetry_Int_Tables_number      2
_space_group_name_Hall           '-P 1'
loop_
_symmetry_equiv_pos_site_id
_symmetry_equiv_pos_as_xyz
1 x,y,z
2 -x,-y,-z
_cell_length_a                   5.9980(2)
_cell_length_b                   11.8959(4)
_cell_length_c                   13.0287(7)
_cell_angle_alpha                112.118(3)
_cell_angle_beta                 102.502(3)
_cell_angle_gamma                99.816(2)
_cell_volume                     807.495
loop_
_atom_site_label
_atom_site_type_symbol
_atom_site_fract_x
_atom_site_fract_y
_atom_site_fract_z
Mn1 Mn 0.73607(8) 0.43540(5) 0.01787(4)
S1 S 0.59850(15) 0.74855(8) 0.72547(7)
O1 O 0.8198(5) 0.3085(3) 0.0978(2)
H1 H 0.7458 0.3119 0.1473
H2 H 0.9695 0.3303 0.1320
O2 O 0.3792(5) 0.5978(3) 0.1599(2)
O3 O 0.7150(5) 0.5395(3) 0.1902(2)
O4 O 1.0484(4) 1.3820(2) 0.9568(2)
O5 O 1.3782(4) 1.3196(2) 0.9732(2)
O6 O 0.7336(5) 0.6820(2) 0.7748(2)
O7 O 0.3605(4) 0.7426(2) 0.7324(2)
C1 C 0.5527(6) 0.5822(3) 0.2214(3)
C2 C 0.5619(6) 0.6210(3) 0.3477(3)
C3 C 0.3882(7) 0.6703(4) 0.3871(3)
H3 H 0.2641 0.6780 0.3357
C4 C 0.3976(7) 0.7084(4) 0.5031(3)
H4 H 0.2810 0.7419 0.5299
C5 C 0.5825(6) 0.6959(3) 0.5778(3)
C6 C 0.7575(6) 0.6447(4) 0.5392(3)
H5 H 0.8809 0.6363 0.5904
C7 C 0.7437(6) 0.6066(4) 0.4230(3)
H6 H 0.8578 0.5711 0.3955
C8 C 0.7625(6) 0.9101(3) 0.7911(3)
C9 C 0.6453(6) 0.9988(3) 0.7826(3)
H7 H 0.4832 0.9741 0.7439
C10 C 0.7739(6) 1.1247(3) 0.8329(3)
H8 H 0.6976 1.1851 0.8278
C11 C 1.0145(6) 1.1614(3) 0.8905(3)
C12 C 1.1289(6) 1.0711(3) 0.8963(3)
H9 H 1.2914 1.0958 0.9341
C13 C 1.0038(6) 0.9444(3) 0.8462(3)
H10 H 1.0809 0.8838 0.8497
C14 C 1.1585(6) 1.2976(3) 0.9449(3)
Mn1_2 Mn 0.73607(8) 1.43540(5) 1.01787(4)
Mn1_3 Mn 1.73607(8) 1.43540(5) 1.01787(4)
Mn1A Mn 0.26393(8) 0.56460(5) -0.01787(4)
Mn1A_2 Mn 1.26393(8) 1.56460(5) 0.98213(4)
O2A O 0.6208(5) 0.4022(3) -0.1599(2)
O4_2 O 1.0484(4) 0.3820(2) -0.0432(2)
O4A O 0.9516(4) 0.6180(2) 0.0432(2)
O5_2 O 0.3782(4) 0.3196(2) -0.0268(2)
loop_
_geom_bond_atom_site_label_1
_geom_bond_atom_site_label_2
_geom_bond_site_symmetry_1
_geom_bond_site_symmetry_2
Mn1 O1 1_555 1_555
S1 O6 1_555 1_555
O1 H1 1_555 1_555
H2 O1 1_555 1_555
O2 C1 1_555 1_555
O3 Mn1 1_555 1_555
O4 C14 1_555 1_555
O5 C14 1_555 1_555
O7 S1 1_555 1_555
C1 O3 1_555 1_555
C2 C1 1_555 1_555
C3 C2 1_555 1_555
H3 C3 1_555 1_555
C4 C3 1_555 1_555
H4 C4 1_555 1_555
C5 S1 1_555 1_555
C6 C5 1_555 1_555
H5 C6 1_555 1_555
C7 C2 1_555 1_555
H6 C7 1_555 1_555
C8 S1 1_555 1_555
C9 C8 1_555 1_555
H7 C9 1_555 1_555
C10 C9 1_555 1_555
H8 C10 1_555 1_555
C11 C10 1_555 1_555
C12 C11 1_555 1_555
H9 C12 1_555 1_555
C13 C8 1_555 1_555
H10 C13 1_555 1_555
C14 C11 1_555 1_555
Mn1_2 O4 1_555 1_555
Mn1_3 O5 1_555 1_555
Mn1A O2 1_555 1_555
Mn1A_2 O4 1_555 1_555
O2A Mn1 1_555 1_555
O4_2 Mn1 1_555 1_555
O4A Mn1 1_555 1_555
O5_2 Mn1 1_555 1_555
C4 C5 1_555 1_555
C6 C7 1_555 1_555
C12 C13 1_555 1_555

#END
