
#######################################################################
#
#                 Cambridge Crystallographic Data Centre
#                                CCDC 
#
#######################################################################
#
# If this CIF has been generated from an entry in the Cambridge 
# Structural Database, then it will include bibliographic, chemical, 
# crystal, experimental, refinement or atomic coordinate data resulting 
# from the CCDC's data processing and validation procedures.
#
#######################################################################

data_HOMTEI
_symmetry_cell_setting           triclinic
_symmetry_space_group_name_H-M   'P -1'
_symmetry_Int_Tables_number      2
_space_group_name_Hall           '-P 1'
loop_
_symmetry_equiv_pos_site_id
_symmetry_equiv_pos_as_xyz
1 x,y,z
2 -x,-y,-z
_cell_length_a                   8.2727(7)
_cell_length_b                   9.1320(8)
_cell_length_c                   11.386(1)
_cell_angle_alpha                82.604(2)
_cell_angle_beta                 89.406(1)
_cell_angle_gamma                65.152(1)
_cell_volume                     773.132
loop_
_atom_site_label
_atom_site_type_symbol
_atom_site_fract_x
_atom_site_fract_y
_atom_site_fract_z
Ni1 Ni 0.0000 0.0000 0.0000
O1 O -0.0253(3) 0.0222(3) 0.1779(2)
O2 O 0.1744(3) 0.1171(3) 0.2225(2)
O3 O -0.2205(3) -0.0550(3) 0.0027(3)
N1 N -0.1738(3) 0.2470(3) -0.0470(2)
C1 C -0.3046(4) 0.2906(4) -0.1298(3)
C2 C -0.4180(4) 0.4502(4) -0.1694(3)
C3 C -0.3975(4) 0.5760(4) -0.1258(3)
C4 C -0.2639(4) 0.5314(4) -0.0381(3)
C5 C -0.1570(4) 0.3674(4) -0.0005(3)
C6 C -0.5122(5) 0.7522(4) -0.1706(3)
C7 C 0.0634(4) 0.0598(4) 0.2496(3)
C8 C 0.0294(4) 0.0303(4) 0.3798(3)
C9 C -0.0934(4) -0.0315(4) 0.4141(3)
C10 C 0.1237(4) 0.0609(4) 0.4666(3)
H1 H -0.2187(59) -0.0841(53) -0.0548(43)
H2 H -0.2257(50) -0.1187(49) 0.0497(37)
H3 H -0.3204(4) 0.2072(4) -0.1632(3)
H4 H -0.5110(4) 0.4739(4) -0.2270(3)
H5 H -0.2453(4) 0.6128(4) -0.0037(3)
H6 H -0.0681(4) 0.3398(4) 0.0608(3)
H7 H -0.4444(5) 0.7961(4) -0.2236(3)
H8 H -0.5488(5) 0.8141(4) -0.1034(3)
H9 H -0.6183(5) 0.7610(4) -0.2140(3)
H10 H -0.1575(4) -0.0540(4) 0.3555(3)
H11 H 0.2093(4) 0.1022(4) 0.4443(3)
C10A C -0.1237(4) -0.0609(4) 0.5334(3)
C8A C -0.0294(4) -0.0303(4) 0.6202(3)
C7A C -0.0634(4) -0.0598(4) 0.7504(3)
O1A O 0.0253(3) -0.0222(3) 0.8221(2)
Ni1A Ni 0.0000 0.0000 1.0000
O2A O -0.1744(3) -0.1171(3) 0.7775(2)
C9A C 0.0934(4) 0.0315(4) 0.5859(3)
H11A H -0.2093(4) -0.1022(4) 0.5557(3)
O1A_2 O 0.0253(3) -0.0222(3) -0.1779(2)
O3A O 0.2205(3) 0.0550(3) -0.0027(3)
H1A H 0.2187(59) 0.0841(53) 0.0548(43)
H2A H 0.2257(50) 0.1187(49) -0.0497(37)
N1A N 0.1738(3) -0.2470(3) 0.0470(2)
C1A C 0.3046(4) -0.2906(4) 0.1298(3)
C2A C 0.4180(4) -0.4502(4) 0.1694(3)
C3A C 0.3975(4) -0.5760(4) 0.1258(3)
C4A C 0.2639(4) -0.5314(4) 0.0381(3)
C5A C 0.1570(4) -0.3674(4) 0.0005(3)
H6A H 0.0681(4) -0.3398(4) -0.0608(3)
H5A H 0.2453(4) -0.6128(4) 0.0037(3)
C6A C 0.5122(5) -0.7522(4) 0.1706(3)
H7A H 0.4444(5) -0.7961(4) 0.2236(3)
H8A H 0.5488(5) -0.8141(4) 0.1034(3)
H9A H 0.6183(5) -0.7610(4) 0.2140(3)
H4A H 0.5110(4) -0.4739(4) 0.2270(3)
H3A H 0.3204(4) -0.2072(4) 0.1632(3)
H10A H 0.1575(4) 0.0540(4) 0.6445(3)
N2 N 0.2419(4) 0.2618(4) -0.2039(3)
C11 C 0.1237(5) 0.4070(5) -0.2522(3)
C12 C 0.1394(6) 0.4816(5) -0.3616(4)
C13 C 0.2814(6) 0.4046(6) -0.4278(3)
C14 C 0.4043(6) 0.2544(6) -0.3781(4)
C15 C 0.3807(5) 0.1882(5) -0.2675(4)
C16 C 0.3028(9) 0.4791(10) -0.5499(4)
H12 H 0.0225(5) 0.4627(5) -0.2088(3)
H13 H 0.0513(6) 0.5869(5) -0.3913(4)
H14 H 0.5060(6) 0.1958(6) -0.4201(4)
H15 H 0.4685(5) 0.0842(5) -0.2349(4)
H16 H 0.2118(9) 0.4813(10) -0.6053(4)
H17 H 0.4216(9) 0.4139(10) -0.5766(4)
H18 H 0.2891(9) 0.5905(10) -0.5471(4)
loop_
_geom_bond_atom_site_label_1
_geom_bond_atom_site_label_2
_geom_bond_site_symmetry_1
_geom_bond_site_symmetry_2
Ni1 O1 1_555 1_555
O1 C7 1_555 1_555
O2 C7 1_555 1_555
O3 Ni1 1_555 1_555
N1 Ni1 1_555 1_555
N2 C11 1_555 1_555
C1 N1 1_555 1_555
C2 C1 1_555 1_555
C3 C2 1_555 1_555
C4 C3 1_555 1_555
C5 N1 1_555 1_555
C6 C3 1_555 1_555
C7 C8 1_555 1_555
C8 C9 1_555 1_555
C9 H10 1_555 1_555
C10 C8 1_555 1_555
C11 C12 1_555 1_555
C12 C13 1_555 1_555
C13 C14 1_555 1_555
C14 C15 1_555 1_555
C15 N2 1_555 1_555
C16 C13 1_555 1_555
H1 O3 1_555 1_555
H2 O3 1_555 1_555
H3 C1 1_555 1_555
H4 C2 1_555 1_555
H5 C4 1_555 1_555
H6 C5 1_555 1_555
H7 C6 1_555 1_555
H8 C6 1_555 1_555
H9 C6 1_555 1_555
H11 C10 1_555 1_555
H12 C11 1_555 1_555
H13 C12 1_555 1_555
H14 C14 1_555 1_555
H15 C15 1_555 1_555
H16 C16 1_555 1_555
H17 C16 1_555 1_555
H18 C16 1_555 1_555
C10A C9 1_555 1_555
C8A C10A 1_555 1_555
C7A C8A 1_555 1_555
O1A C7A 1_555 1_555
Ni1A O1A 1_555 1_555
O2A C7A 1_555 1_555
C9A C10 1_555 1_555
H11A C10A 1_555 1_555
O1A_2 Ni1 1_555 1_555
O3A Ni1 1_555 1_555
H1A O3A 1_555 1_555
H2A O3A 1_555 1_555
N1A Ni1 1_555 1_555
C1A N1A 1_555 1_555
C2A C1A 1_555 1_555
C3A C2A 1_555 1_555
C4A C3A 1_555 1_555
C5A N1A 1_555 1_555
H6A C5A 1_555 1_555
H5A C4A 1_555 1_555
C6A C3A 1_555 1_555
H7A C6A 1_555 1_555
H8A C6A 1_555 1_555
H9A C6A 1_555 1_555
H4A C2A 1_555 1_555
H3A C1A 1_555 1_555
H10A C9A 1_555 1_555
C4 C5 1_555 1_555
C8A C9A 1_555 1_555
C4A C5A 1_555 1_555

#END
