
#######################################################################
#
#                 Cambridge Crystallographic Data Centre
#                                CCDC 
#
#######################################################################
#
# If this CIF has been generated from an entry in the Cambridge 
# Structural Database, then it will include bibliographic, chemical, 
# crystal, experimental, refinement or atomic coordinate data resulting 
# from the CCDC's data processing and validation procedures.
#
#######################################################################

data_HOMTIM
_symmetry_cell_setting           monoclinic
_symmetry_space_group_name_H-M   'P 21/n'
_symmetry_Int_Tables_number      14
_space_group_name_Hall           '-P 2yn'
loop_
_symmetry_equiv_pos_site_id
_symmetry_equiv_pos_as_xyz
1 x,y,z
2 1/2-x,1/2+y,1/2-z
3 -x,-y,-z
4 1/2+x,1/2-y,1/2+z
_cell_length_a                   12.4812(7)
_cell_length_b                   15.3521(9)
_cell_length_c                   23.235(1)
_cell_angle_alpha                90
_cell_angle_beta                 90.918(1)
_cell_angle_gamma                90
_cell_volume                     4451.55
loop_
_atom_site_label
_atom_site_type_symbol
_atom_site_fract_x
_atom_site_fract_y
_atom_site_fract_z
Co1 Co -0.6659(1) 0.0132(1) 0.3344(1)
Co2 Co 0.0000 0.0000 0.0000
O1 O -0.5389(2) 0.0117(1) 0.2769(1)
O2 O -0.6203(2) 0.0407(2) 0.1931(1)
O3 O -0.1266(2) 0.0023(1) 0.0581(1)
O4 O -0.0431(2) -0.0070(2) 0.1435(1)
O5 O -0.7936(2) 0.0136(1) 0.3909(1)
O6 O -0.7102(2) -0.0053(2) 0.4756(1)
O7 O -0.7747(2) 0.0013(1) 0.2660(1)
O8 O -0.5541(2) 0.0248(1) 0.4016(1)
O9 O -0.1094(2) 0.0257(1) -0.0662(1)
N1 N -0.6725(2) 0.1538(2) 0.3312(1)
N2 N -0.6615(2) -0.1276(2) 0.3378(1)
N3 N 0.0219(2) 0.1385(2) 0.0088(1)
C1 C -0.5394(2) 0.0235(2) 0.2235(1)
C2 C -0.4319(2) 0.0176(2) 0.1942(1)
C3 C -0.4216(2) 0.0385(2) 0.1363(1)
C4 C -0.3230(2) 0.0324(2) 0.1101(1)
C5 C -0.2328(2) 0.0059(2) 0.1410(1)
C6 C -0.2433(2) -0.0150(2) 0.1990(1)
C7 C -0.3416(2) -0.0100(2) 0.2252(1)
C8 C -0.1252(2) -0.0001(2) 0.1120(1)
C9 C -0.7928(3) 0.0033(2) 0.4446(2)
C10 C -0.9004(2) 0.0011(2) 0.4733(1)
C11 C -0.9098(2) -0.0271(2) 0.5300(1)
C12 C -0.9915(2) 0.0286(2) 0.4434(1)
C13 C -0.5850(3) 0.2005(2) 0.3423(2)
C14 C -0.5831(3) 0.2906(2) 0.3404(2)
C15 C -0.6740(4) 0.3347(2) 0.3263(1)
C16 C -0.7650(3) 0.2876(2) 0.3149(2)
C17 C -0.7610(3) 0.1979(2) 0.3182(2)
C18 C -0.7531(3) -0.1735(2) 0.3409(1)
C19 C -0.7567(3) -0.2631(2) 0.3402(2)
C20 C -0.6621(3) -0.3091(2) 0.3364(2)
C21 C -0.5683(3) -0.2632(2) 0.3333(2)
C22 C -0.5704(3) -0.1738(2) 0.3340(1)
C23 C 0.1181(3) 0.1768(2) 0.0106(1)
C24 C 0.1312(3) 0.2655(2) 0.0115(2)
C25 C 0.0436(4) 0.3187(3) 0.0111(2)
C26 C -0.0558(4) 0.2804(2) 0.0105(2)
C27 C -0.0634(3) 0.1916(2) 0.0096(2)
H1 H -0.8459 0.0228 0.2591
H2 H -0.7532 0.0227 0.2326
H3 H -0.4914 0.0019 0.4078
H4 H -0.5851 0.0218 0.4340
H5 H -0.1768 -0.0018 -0.0736
H6 H -0.0768 -0.0018 -0.1007
H13 H -0.4826(2) 0.0570(2) 0.1146(1)
H14 H -0.3171(2) 0.0464(2) 0.0705(1)
H15 H -0.1821(2) -0.0330(2) 0.2208(1)
H16 H -0.3478(2) -0.0255(2) 0.2646(1)
H17 H -0.8476(2) -0.0455(2) 0.5507(1)
H18 H -0.9862(2) 0.0485(2) 0.4049(1)
H19 H -0.5206(3) 0.1706(2) 0.3520(2)
H20 H -0.5187(3) 0.3213(2) 0.3490(2)
H21 H -0.6744(4) 0.3965(2) 0.3243(1)
H22 H -0.8301(3) 0.3163(2) 0.3049(2)
H23 H -0.8250(3) 0.1661(2) 0.3109(2)
H24 H -0.8187(3) -0.1425(2) 0.3438(1)
H25 H -0.8233(3) -0.2928(2) 0.3423(2)
H26 H -0.6621(3) -0.3709(2) 0.3360(2)
H27 H -0.5019(3) -0.2931(2) 0.3306(2)
H28 H -0.5045(3) -0.1432(2) 0.3317(1)
H29 H 0.1801(3) 0.1409(2) 0.0112(1)
H30 H 0.2012(3) 0.2898(2) 0.0125(2)
H31 H 0.0512(4) 0.3803(3) 0.0111(2)
H32 H -0.1187(4) 0.3152(2) 0.0107(2)
H33 H -0.1328(3) 0.1661(2) 0.0097(2)
O3B O 0.1266(2) -0.0023(1) -0.0581(1)
O9B O 0.1094(2) -0.0257(1) 0.0662(1)
N3B N -0.0219(2) -0.1385(2) -0.0088(1)
C12B C -1.0085(2) -0.0286(2) 0.5566(1)
C11B C -1.0902(2) 0.0271(2) 0.4700(1)
C10B C -1.0996(2) -0.0011(2) 0.5267(1)
H18B H -1.0138(2) -0.0485(2) 0.5951(1)
H17B H -1.1524(2) 0.0455(2) 0.4493(1)
C23B C -0.1181(3) -0.1768(2) -0.0106(1)
C27B C 0.0634(3) -0.1916(2) -0.0096(2)
C9B C -1.2072(3) -0.0033(2) 0.5554(2)
C24B C -0.1312(3) -0.2655(2) -0.0115(2)
H29B H -0.1801(3) -0.1409(2) -0.0112(1)
C26B C 0.0558(4) -0.2804(2) -0.0105(2)
H33B H 0.1328(3) -0.1661(2) -0.0097(2)
O5B O -1.2064(2) -0.0136(1) 0.6091(1)
O6B O -1.2898(2) 0.0053(2) 0.5244(1)
C25B C -0.0436(4) -0.3187(3) -0.0111(2)
H30B H -0.2012(3) -0.2898(2) -0.0125(2)
H32B H 0.1187(4) -0.3152(2) -0.0107(2)
H5B H 0.1768 0.0018 0.0736
H6B H 0.0768 0.0018 0.1007
Co1B Co -1.3341(1) -0.0132(1) 0.6656(1)
H31B H -0.0512(4) -0.3803(3) -0.0111(2)
O10 O -0.9797(2) 0.0429(2) 0.2517(1)
H7 H -1.0059 0.0224 0.2188
H8 H -1.0223 0.0826 0.2717
O11 O -0.3525(2) -0.0303(2) 0.4142(1)
H9 H -0.3220 -0.0383 0.4563
H10 H -0.3024 -0.0579 0.3940
O12 O -0.3140(2) -0.0235(2) -0.0807(1)
H11 H -0.3409 -0.0422 -0.1197
H12 H -0.3333 0.0380 -0.0729
N4 N -1.1162(3) 0.1496(2) 0.3144(2)
C28 C -1.0808(3) 0.2303(3) 0.3226(2)
C29 C -1.1339(4) 0.2904(3) 0.3549(2)
C30 C -1.2279(4) 0.2667(3) 0.3784(2)
C31 C -1.2658(4) 0.1852(3) 0.3708(2)
C32 C -1.2071(3) 0.1295(3) 0.3377(2)
H34 H -1.0155(3) 0.2470(3) 0.3052(2)
H35 H -1.1055(4) 0.3472(3) 0.3608(2)
H36 H -1.2674(4) 0.3076(3) 0.4003(2)
H37 H -1.3308(4) 0.1670(3) 0.3878(2)
H38 H -1.2344(3) 0.0725(3) 0.3313(2)
N5 N -0.2120(3) -0.1343(2) 0.3511(1)
C33 C -0.2496(3) -0.2122(3) 0.3390(2)
C34 C -0.1990(4) -0.2710(3) 0.3041(2)
C35 C -0.1039(4) -0.2487(3) 0.2824(2)
C36 C -0.0604(3) -0.1687(3) 0.2948(2)
C37 C -0.1180(4) -0.1149(3) 0.3296(2)
H39 H -0.3157(3) -0.2289(3) 0.3554(2)
H40 H -0.2306(4) -0.3259(3) 0.2955(2)
H41 H -0.0666(4) -0.2883(3) 0.2585(2)
H42 H 0.0067(3) -0.1514(3) 0.2799(2)
H43 H -0.0880(4) -0.0597(3) 0.3390(2)
N6 N -0.4196(3) 0.1280(3) -0.0346(2)
C38 C -0.3604(4) 0.1984(5) -0.0319(2)
C39 C -0.3861(6) 0.2666(4) -0.0003(4)
C40 C -0.4758(6) 0.2700(4) 0.0299(3)
C41 C -0.5422(4) 0.1980(4) 0.0256(2)
C42 C -0.5100(3) 0.1300(3) -0.0060(2)
H44 H -0.2966(4) 0.2005(5) -0.0536(2)
H45 H -0.3387(6) 0.3150(4) 0.0010(4)
H46 H -0.4932(6) 0.3189(4) 0.0530(3)
H47 H -0.6091(4) 0.1968(4) 0.0446(2)
H48 H -0.5551(3) 0.0802(3) -0.0079(2)
loop_
_geom_bond_atom_site_label_1
_geom_bond_atom_site_label_2
_geom_bond_site_symmetry_1
_geom_bond_site_symmetry_2
Co1 O1 1_555 1_555
Co2 O3 1_555 1_555
O1 C1 1_555 1_555
O2 C1 1_555 1_555
O3 C8 1_555 1_555
O4 C8 1_555 1_555
O5 Co1 1_555 1_555
O6 C9 1_555 1_555
O7 Co1 1_555 1_555
O8 Co1 1_555 1_555
O9 Co2 1_555 1_555
O10 H7 1_555 1_555
O11 H9 1_555 1_555
O12 H11 1_555 1_555
N1 Co1 1_555 1_555
N2 Co1 1_555 1_555
N3 Co2 1_555 1_555
N4 C28 1_555 1_555
N5 C33 1_555 1_555
N6 C38 1_555 1_555
C1 C2 1_555 1_555
C2 C3 1_555 1_555
C3 C4 1_555 1_555
C4 C5 1_555 1_555
C5 C6 1_555 1_555
C6 C7 1_555 1_555
C7 C2 1_555 1_555
C8 C5 1_555 1_555
C9 O5 1_555 1_555
C10 C9 1_555 1_555
C11 C10 1_555 1_555
C12 C10 1_555 1_555
C13 N1 1_555 1_555
C14 C13 1_555 1_555
C15 C14 1_555 1_555
C16 C15 1_555 1_555
C17 N1 1_555 1_555
C18 N2 1_555 1_555
C19 C18 1_555 1_555
C20 C19 1_555 1_555
C21 C20 1_555 1_555
C22 N2 1_555 1_555
C23 N3 1_555 1_555
C24 C23 1_555 1_555
C25 C24 1_555 1_555
C26 C25 1_555 1_555
C27 N3 1_555 1_555
C28 C29 1_555 1_555
C29 C30 1_555 1_555
C30 C31 1_555 1_555
C31 C32 1_555 1_555
C32 N4 1_555 1_555
C33 C34 1_555 1_555
C34 C35 1_555 1_555
C35 C36 1_555 1_555
C36 C37 1_555 1_555
C37 N5 1_555 1_555
C38 C39 1_555 1_555
C39 C40 1_555 1_555
C40 C41 1_555 1_555
C41 C42 1_555 1_555
C42 N6 1_555 1_555
H1 O7 1_555 1_555
H2 O7 1_555 1_555
H3 O8 1_555 1_555
H4 O8 1_555 1_555
H5 O9 1_555 1_555
H6 O9 1_555 1_555
H8 O10 1_555 1_555
H10 O11 1_555 1_555
H12 O12 1_555 1_555
H13 C3 1_555 1_555
H14 C4 1_555 1_555
H15 C6 1_555 1_555
H16 C7 1_555 1_555
H17 C11 1_555 1_555
H18 C12 1_555 1_555
H19 C13 1_555 1_555
H20 C14 1_555 1_555
H21 C15 1_555 1_555
H22 C16 1_555 1_555
H23 C17 1_555 1_555
H24 C18 1_555 1_555
H25 C19 1_555 1_555
H26 C20 1_555 1_555
H27 C21 1_555 1_555
H28 C22 1_555 1_555
H29 C23 1_555 1_555
H30 C24 1_555 1_555
H31 C25 1_555 1_555
H32 C26 1_555 1_555
H33 C27 1_555 1_555
H34 C28 1_555 1_555
H35 C29 1_555 1_555
H36 C30 1_555 1_555
H37 C31 1_555 1_555
H38 C32 1_555 1_555
H39 C33 1_555 1_555
H40 C34 1_555 1_555
H41 C35 1_555 1_555
H42 C36 1_555 1_555
H43 C37 1_555 1_555
H44 C38 1_555 1_555
H45 C39 1_555 1_555
H46 C40 1_555 1_555
H47 C41 1_555 1_555
H48 C42 1_555 1_555
O3B Co2 1_555 1_555
O9B Co2 1_555 1_555
N3B Co2 1_555 1_555
C12B C11 1_555 1_555
C11B C12 1_555 1_555
C10B C12B 1_555 1_555
H18B C12B 1_555 1_555
H17B C11B 1_555 1_555
C23B N3B 1_555 1_555
C27B N3B 1_555 1_555
C9B C10B 1_555 1_555
C24B C23B 1_555 1_555
H29B C23B 1_555 1_555
C26B C27B 1_555 1_555
H33B C27B 1_555 1_555
O5B C9B 1_555 1_555
O6B C9B 1_555 1_555
C25B C24B 1_555 1_555
H30B C24B 1_555 1_555
H32B C26B 1_555 1_555
H5B O9B 1_555 1_555
H6B O9B 1_555 1_555
Co1B O5B 1_555 1_555
H31B C25B 1_555 1_555
C16 C17 1_555 1_555
C21 C22 1_555 1_555
C26 C27 1_555 1_555
C11B C10B 1_555 1_555
C26B C25B 1_555 1_555

#END
