
#######################################################################
#
#                 Cambridge Crystallographic Data Centre
#                                CCDC 
#
#######################################################################
#
# If this CIF has been generated from an entry in the Cambridge 
# Structural Database, then it will include bibliographic, chemical, 
# crystal, experimental, refinement or atomic coordinate data resulting 
# from the CCDC's data processing and validation procedures.
#
#######################################################################

data_HOMZEP
_symmetry_cell_setting           hexagonal
_symmetry_space_group_name_H-M   'P 63/m m c'
_symmetry_Int_Tables_number      194
_space_group_name_Hall           "-P 6c 2'c"
loop_
_symmetry_equiv_pos_site_id
_symmetry_equiv_pos_as_xyz
1 x,y,z
2 -y,x-y,z
3 -x+y,-x,z
4 -x,-y,1/2+z
5 y,-x+y,1/2+z
6 x-y,x,1/2+z
7 y,x,-z
8 x-y,-y,-z
9 -x,-x+y,-z
10 -y,-x,1/2-z
11 -x+y,y,1/2-z
12 x,x-y,1/2-z
13 -x,-y,-z
14 y,-x+y,-z
15 x-y,x,-z
16 x,y,1/2-z
17 -y,x-y,1/2-z
18 -x+y,-x,1/2-z
19 -y,-x,z
20 -x+y,y,z
21 x,x-y,z
22 y,x,1/2+z
23 x-y,-y,1/2+z
24 -x,-x+y,1/2+z
_cell_length_a                   14.5665(2)
_cell_length_b                   14.5665(2)
_cell_length_c                   31.6835(2)
_cell_angle_alpha                90
_cell_angle_beta                 90
_cell_angle_gamma                120
_cell_volume                     5822.03
loop_
_atom_site_label
_atom_site_type_symbol
_atom_site_fract_x
_atom_site_fract_y
_atom_site_fract_z
O2 O -0.432(2) -0.2161(11) 0.6757(6)
O3 O -0.4938(13) 0.012(3) 0.6913(10)
O4 O -0.8227(11) -0.1773(11) 0.5286(8)
O5 O 0.381(2) 0.360(2) 0.7500
O6 O 0.439(5) 0.219(2) 0.7500
Ga1 Ga 0.07432(6) 0.14864(13) 0.7500
Ga2 Ga 0.41674(4) 0.58325(9) 0.58491(4)
Ga3 Ga 0.5000 0.5000 0.5000
O7 O 0.1543(4) 0.3085(8) 0.7500
O8 O 0.0000 0.0000 0.7500
O9 O 0.4640(3) 0.7320(3) 0.5814(3)
O10 O 0.4314(3) 0.5686(6) 0.5255(2)
O11 O 0.1753(5) 0.1648(4) 0.70488(18)
O12 O 0.4121(4) 0.5878(8) 0.6484(3)
O13 O 0.3767(4) 0.4317(5) 0.59545(18)
O14 O 0.4292(6) 0.3781(5) 0.5389(2)
C1 C 0.2005(8) 0.1002(4) 0.6905(3)
C2 C 0.3895(6) 0.3647(6) 0.5750(3)
C3 C 0.2656(9) 0.1328(5) 0.6507(4)
C4 C 0.2956(7) 0.2307(6) 0.6322(3)
H1 H 0.2766 0.2766 0.6448
C5 C 0.3540(7) 0.2597(6) 0.5949(3)
C6 C 0.3844(10) 0.1922(5) 0.5767(4)
H2 H 0.4251 0.2125 0.5523
O11T O 0.1753(5) 0.0105(6) 0.70488(18)
O13T O 0.3767(4) -0.0550(6) 0.59545(18)
O14T O 0.4292(6) 0.0511(8) 0.5389(2)
C2T C 0.3895(6) 0.0248(8) 0.5750(3)
C4T C 0.2956(7) 0.0649(9) 0.6322(3)
H1T H 0.2766 0.0000 0.6448
C5T C 0.3540(7) 0.0943(9) 0.5949(3)
Ga1A Ga -0.14864(13) -0.07432(14) 0.7500
Ga3A Ga -0.5000 0.0000 0.5000
O7A O -0.3085(8) -0.1542(9) 0.7500
O11A O -0.1648(4) 0.0105(6) 0.70488(18)
O13A O -0.4317(5) -0.0550(6) 0.59545(18)
O14A O -0.3781(5) 0.0511(8) 0.5389(2)
C1A C -0.1002(4) 0.1003(9) 0.6905(3)
C2A C -0.3647(6) 0.0248(8) 0.5750(3)
C3A C -0.1328(5) 0.1328(10) 0.6507(4)
C4A C -0.2307(6) 0.0649(9) 0.6322(3)
H1A H -0.2766 0.0000 0.6448
C5A C -0.2597(6) 0.0943(9) 0.5949(3)
C6A C -0.1922(5) 0.1922(11) 0.5767(4)
H2A H -0.2125 0.2126 0.5523
O11S O -0.0105(6) 0.1648(4) 0.70488(18)
O13S O 0.0550(6) 0.4317(5) 0.59545(18)
O14S O -0.0511(8) 0.3781(5) 0.5389(2)
C2S C -0.0248(8) 0.3647(6) 0.5750(3)
C4S C -0.0649(9) 0.2307(6) 0.6322(3)
H1S H 0.0000 0.2766 0.6448
C5S C -0.0943(9) 0.2597(6) 0.5949(3)
Ga1B Ga 0.07432(14) -0.07432(6) 0.7500
Ga3B Ga 0.0000 -0.5000 0.5000
O7B O 0.1542(9) -0.1543(4) 0.7500
O11B O -0.0105(6) -0.1753(5) 0.70488(18)
O13B O 0.0550(6) -0.3767(4) 0.59545(18)
O14B O -0.0511(8) -0.4292(6) 0.5389(2)
C1B C -0.1003(9) -0.2005(8) 0.6905(3)
C2B C -0.0248(8) -0.3895(6) 0.5750(3)
C3B C -0.1328(10) -0.2656(9) 0.6507(4)
C4B C -0.0649(9) -0.2956(7) 0.6322(3)
H1B H 0.0000 -0.2766 0.6448
C5B C -0.0943(9) -0.3540(7) 0.5949(3)
C6B C -0.1922(11) -0.3844(10) 0.5767(4)
H2B H -0.2126 -0.4251 0.5523
O11R O -0.1648(4) -0.1753(5) 0.70488(18)
O13R O -0.4317(5) -0.3767(4) 0.59545(18)
O14R O -0.3781(5) -0.4292(6) 0.5389(2)
C2R C -0.3647(6) -0.3895(6) 0.5750(3)
C4R C -0.2307(6) -0.2956(7) 0.6322(3)
H1R H -0.2766 -0.2766 0.6448
C5R C -0.2597(6) -0.3540(7) 0.5949(3)
Ga2F Ga 0.58325(9) 0.41674(4) 0.41509(4)
O9F O 0.7320(3) 0.4640(3) 0.4186(3)
O10F O 0.5686(6) 0.4314(3) 0.4745(2)
O11F O 0.1648(4) 0.1753(5) 0.29512(18)
O12F O 0.5878(8) 0.4121(4) 0.3516(3)
O13F O 0.4317(5) 0.3767(4) 0.40455(18)
O14F O 0.3781(5) 0.4292(6) 0.4611(2)
C1F C 0.1002(4) 0.2005(8) 0.3095(3)
C2F C 0.3647(6) 0.3895(6) 0.4250(3)
C3F C 0.1328(5) 0.2656(9) 0.3493(4)
C4F C 0.2307(6) 0.2956(7) 0.3678(3)
H1F H 0.2766 0.2766 0.3552
C5F C 0.2597(6) 0.3540(7) 0.4051(3)
C6F C 0.1922(5) 0.3844(10) 0.4233(4)
H2F H 0.2125 0.4251 0.4477
O11N O 0.0105(6) 0.1753(5) 0.29512(18)
O13N O -0.0550(6) 0.3767(4) 0.40455(18)
O14N O 0.0511(8) 0.4292(6) 0.4611(2)
C2N C 0.0248(8) 0.3895(6) 0.4250(3)
C4N C 0.0649(9) 0.2956(7) 0.3678(3)
H1N H 0.0000 0.2766 0.3552
C5N C 0.0943(9) 0.3540(7) 0.4051(3)
Ga2G Ga -0.16651(10) -0.58325(9) 0.41509(4)
O9G O -0.2680(4) -0.7320(3) 0.4186(3)
O10G O -0.1372(7) -0.5686(6) 0.4745(2)
O11G O 0.0105(6) -0.1648(4) 0.29512(18)
O12G O -0.1757(9) -0.5878(8) 0.3516(3)
O13G O -0.0550(6) -0.4317(5) 0.40455(18)
O14G O 0.0511(8) -0.3781(5) 0.4611(2)
C1G C 0.1003(9) -0.1002(4) 0.3095(3)
C2G C 0.0248(8) -0.3647(6) 0.4250(3)
C3G C 0.1328(10) -0.1328(5) 0.3493(4)
C4G C 0.0649(9) -0.2307(6) 0.3678(3)
H1G H 0.0000 -0.2766 0.3552
C5G C 0.0943(9) -0.2597(6) 0.4051(3)
C6G C 0.1922(11) -0.1922(5) 0.4233(4)
H2G H 0.2126 -0.2125 0.4477
O11M O 0.1648(4) -0.0105(6) 0.29512(18)
O13M O 0.4317(5) 0.0550(6) 0.40455(18)
O14M O 0.3781(5) -0.0511(8) 0.4611(2)
C2M C 0.3647(6) -0.0248(8) 0.4250(3)
C4M C 0.2307(6) -0.0649(9) 0.3678(3)
H1M H 0.2766 0.0000 0.3552
C5M C 0.2597(6) -0.0943(9) 0.4051(3)
Ga2S Ga 0.16651(10) 0.58325(9) 0.58491(4)
O9A O 0.2680(3) 0.7320(4) 0.5814(3)
O10B O 0.1372(7) 0.5686(3) 0.5255(2)
O12S O 0.1757(9) 0.5878(8) 0.6484(3)
Ga2T Ga 0.41674(4) -0.16651(10) 0.58491(4)
O10A O 0.4314(6) -0.1372(7) 0.5255(2)
O12T O 0.4121(4) -0.1757(9) 0.6484(3)
Ga2H Ga -0.41674(4) 0.16651(10) 0.41509(4)
O9H O -0.4640(3) 0.2680(4) 0.4186(3)
O10H O -0.4314(3) 0.1372(7) 0.4745(2)
O11H O -0.1753(5) -0.0105(6) 0.29512(18)
O12H O -0.4121(4) 0.1757(9) 0.3516(3)
O13H O -0.3767(4) 0.0550(6) 0.40455(18)
O14H O -0.4292(6) -0.0511(8) 0.4611(2)
C1H C -0.2005(8) -0.1003(9) 0.3095(3)
C2H C -0.3895(6) -0.0248(8) 0.4250(3)
C3H C -0.2656(9) -0.1328(10) 0.3493(4)
C4H C -0.2956(7) -0.0649(9) 0.3678(3)
H1H H -0.2766 0.0000 0.3552
C5H C -0.3540(7) -0.0943(9) 0.4051(3)
C6H C -0.3844(10) -0.1922(11) 0.4233(4)
H2H H -0.4251 -0.2126 0.4477
O11L O -0.1753(5) -0.1648(4) 0.29512(18)
O13L O -0.3767(4) -0.4317(5) 0.40455(18)
O14L O -0.4292(6) -0.3781(5) 0.4611(2)
C2L C -0.3895(6) -0.3647(6) 0.4250(3)
C4L C -0.2956(7) -0.2307(6) 0.3678(3)
H1L H -0.2766 -0.2766 0.3552
C5L C -0.3540(7) -0.2597(6) 0.4051(3)
O9B O 0.2680(4) 0.5360(3) 0.5814(3)
Ga1C Ga -0.07432(6) -0.14864(13) 0.2500
Ga1D Ga 0.14864(13) 0.07432(14) 0.2500
Ga1E Ga -0.07432(14) 0.07432(6) 0.2500
Ga2_2 Ga -0.58326(4) -0.41675(9) 0.58491(4)
Ga2A Ga -0.58325(9) -0.16651(10) 0.58491(4)
Ga2A_2 Ga 0.41675(9) 0.83349(10) 0.58491(4)
Ga2B Ga 0.16651(10) -0.41674(4) 0.58491(4)
Ga2F_2 Ga -0.41675(9) -0.58326(4) 0.41509(4)
Ga2F_3 Ga -0.41675(9) 0.41674(4) 0.41509(4)
Ga2G_2 Ga -0.16651(10) 0.41675(9) 0.41509(4)
Ga2G_3 Ga 0.83349(10) 0.41675(9) 0.41509(4)
Ga2H_2 Ga -0.41674(4) -0.83349(10) 0.41509(4)
Ga2H_3 Ga 0.58326(4) 0.16651(10) 0.41509(4)
Ga3_2 Ga -0.5000 -0.5000 0.5000
Ga3A_2 Ga 0.5000 0.0000 0.5000
Ga3B_2 Ga 0.0000 0.5000 0.5000
O9_2 O 0.4640(3) -0.2680(3) 0.5814(3)
O9A_2 O 0.2680(3) -0.2680(4) 0.5814(3)
O9F_2 O -0.2680(3) -0.5360(3) 0.4186(3)
O9G_2 O -0.2680(4) 0.2680(3) 0.4186(3)
O9H_2 O 0.5360(3) 0.2680(4) 0.4186(3)
O10A_2 O -0.5686(6) -0.1372(7) 0.5255(2)
O10B_2 O 0.1372(7) -0.4314(3) 0.5255(2)
O11I O -0.1648(4) -0.1753(5) 0.79512(18)
O11J O -0.0105(6) 0.1648(4) 0.79512(18)
O11K O 0.1753(5) 0.0105(6) 0.79512(18)
O11O O 0.1753(5) 0.1648(4) 0.79512(18)
O11P O -0.1648(4) 0.0105(6) 0.79512(18)
O11Q O -0.0105(6) -0.1753(5) 0.79512(18)
O13A_2 O 0.5683(5) -0.0550(6) 0.59545(18)
O13B_2 O 0.0550(6) 0.6233(4) 0.59545(18)
O13L_2 O 0.6233(4) 0.5683(5) 0.40455(18)
O13M_2 O -0.5683(5) 0.0550(6) 0.40455(18)
O13N_2 O -0.0550(6) -0.6233(4) 0.40455(18)
O13R_2 O 0.5683(5) 0.6233(4) 0.59545(18)
O14L_2 O 0.5708(6) 0.6219(5) 0.4611(2)
O14M_2 O -0.6219(5) -0.0511(8) 0.4611(2)
O14N_2 O 0.0511(8) -0.5708(6) 0.4611(2)
O14R_2 O 0.6219(5) 0.5708(6) 0.5389(2)
O14S_2 O -0.0511(8) -0.6219(5) 0.5389(2)
O14T_2 O -0.5708(6) 0.0511(8) 0.5389(2)
O1 O -0.6667 -0.3333 0.4759(6)
loop_
_geom_bond_atom_site_label_1
_geom_bond_atom_site_label_2
_geom_bond_site_symmetry_1
_geom_bond_site_symmetry_2
Ga1 O7 1_555 1_555
Ga2 O9 1_555 1_555
Ga3 O10 1_555 1_555
O8 Ga1 1_555 1_555
O9 Ga2A_2 1_555 1_555
O10 Ga2 1_555 1_555
O11 Ga1 1_555 1_555
O12 Ga2 1_555 1_555
O13 Ga2 1_555 1_555
O14 Ga3 1_555 1_555
C1 O11 1_555 1_555
C2 O13 1_555 1_555
C3 C1 1_555 1_555
C4 C3 1_555 1_555
H1 C4 1_555 1_555
C5 C2 1_555 1_555
C6 C5 1_555 1_555
H2 C6 1_555 1_555
O11T C1 1_555 1_555
O13T C2T 1_555 1_555
O14T C2T 1_555 1_555
C2T C5T 1_555 1_555
C4T C3 1_555 1_555
H1T C4T 1_555 1_555
C5T C6 1_555 1_555
Ga1A O8 1_555 1_555
Ga3A O14A 1_555 1_555
O7A Ga1A 1_555 1_555
O11A Ga1A 1_555 1_555
O13A C2A 1_555 1_555
O14A C2A 1_555 1_555
C1A O11A 1_555 1_555
C2A C5A 1_555 1_555
C3A C1A 1_555 1_555
C4A C3A 1_555 1_555
H1A C4A 1_555 1_555
C5A C4A 1_555 1_555
C6A C5A 1_555 1_555
H2A C6A 1_555 1_555
O11S Ga1 1_555 1_555
O13S C2S 1_555 1_555
O14S C2S 1_555 1_555
C2S C5S 1_555 1_555
C4S C3A 1_555 1_555
H1S C4S 1_555 1_555
C5S C6A 1_555 1_555
Ga1B O8 1_555 1_555
Ga3B O14B 1_555 1_555
O7B Ga1B 1_555 1_555
O11B Ga1B 1_555 1_555
O13B C2B 1_555 1_555
O14B C2B 1_555 1_555
C1B O11B 1_555 1_555
C2B C5B 1_555 1_555
C3B C1B 1_555 1_555
C4B C3B 1_555 1_555
H1B C4B 1_555 1_555
C5B C4B 1_555 1_555
C6B C5B 1_555 1_555
H2B C6B 1_555 1_555
O11R Ga1A 1_555 1_555
O13R C2R 1_555 1_555
O14R C2R 1_555 1_555
C2R C5R 1_555 1_555
C4R C3B 1_555 1_555
H1R C4R 1_555 1_555
C5R C6B 1_555 1_555
Ga2F O9F 1_555 1_555
O9F Ga2G_3 1_555 1_555
O10F Ga3 1_555 1_555
O11F C1F 1_555 1_555
O12F Ga2F 1_555 1_555
O13F Ga2F 1_555 1_555
O14F Ga3 1_555 1_555
C1F C3F 1_555 1_555
C2F O13F 1_555 1_555
C3F C4F 1_555 1_555
C4F H1F 1_555 1_555
C5F C2F 1_555 1_555
C6F C5F 1_555 1_555
H2F C6F 1_555 1_555
O11N C1F 1_555 1_555
O13N C2N 1_555 1_555
O14N C2N 1_555 1_555
C2N C5N 1_555 1_555
C4N C3F 1_555 1_555
H1N C4N 1_555 1_555
C5N C6F 1_555 1_555
Ga2G O9G 1_555 1_555
O9G Ga2H_2 1_555 1_555
O10G Ga3B 1_555 1_555
O11G C1G 1_555 1_555
O12G Ga2G 1_555 1_555
O13G Ga2G 1_555 1_555
O14G Ga3B 1_555 1_555
C1G C3G 1_555 1_555
C2G O13G 1_555 1_555
C3G C4G 1_555 1_555
C4G H1G 1_555 1_555
C5G C2G 1_555 1_555
C6G C5G 1_555 1_555
H2G C6G 1_555 1_555
O11M C1G 1_555 1_555
O13M C2M 1_555 1_555
O14M C2M 1_555 1_555
C2M C5M 1_555 1_555
C4M C3G 1_555 1_555
H1M C4M 1_555 1_555
C5M C6G 1_555 1_555
Ga2S O13S 1_555 1_555
O9A Ga2S 1_555 1_555
O10B Ga2S 1_555 1_555
O12S Ga2S 1_555 1_555
Ga2T O13T 1_555 1_555
O10A Ga2T 1_555 1_555
O12T Ga2T 1_555 1_555
Ga2H O9H 1_555 1_555
O9H Ga2F_3 1_555 1_555
O10H Ga3A 1_555 1_555
O11H C1H 1_555 1_555
O12H Ga2H 1_555 1_555
O13H Ga2H 1_555 1_555
O14H Ga3A 1_555 1_555
C1H C3H 1_555 1_555
C2H O13H 1_555 1_555
C3H C4H 1_555 1_555
C4H H1H 1_555 1_555
C5H C2H 1_555 1_555
C6H C5H 1_555 1_555
H2H C6H 1_555 1_555
O11L C1H 1_555 1_555
O13L C2L 1_555 1_555
O14L C2L 1_555 1_555
C2L C5L 1_555 1_555
C4L C3H 1_555 1_555
H1L C4L 1_555 1_555
C5L C6H 1_555 1_555
O9B Ga2 1_555 1_555
Ga1C O11G 1_555 1_555
Ga1D O11F 1_555 1_555
Ga1E O11N 1_555 1_555
Ga2_2 O13R 1_555 1_555
Ga2A O13A 1_555 1_555
Ga2A_2 O9A 1_555 1_555
Ga2B O13B 1_555 1_555
Ga2F_2 O13L 1_555 1_555
Ga2G_2 O13N 1_555 1_555
Ga2H_3 O13M 1_555 1_555
Ga3_2 O14R 1_555 1_555
Ga3A_2 O14T 1_555 1_555
Ga3B_2 O14S 1_555 1_555
O9_2 Ga2T 1_555 1_555
O9A_2 Ga2T 1_555 1_555
O9F_2 Ga2G 1_555 1_555
O9G_2 Ga2H 1_555 1_555
O9H_2 Ga2F 1_555 1_555
O10A_2 Ga3A 1_555 1_555
O10B_2 Ga3B 1_555 1_555
O11I Ga1A 1_555 1_555
O11J Ga1 1_555 1_555
O11K Ga1B 1_555 1_555
O11O Ga1 1_555 1_555
O11P Ga1A 1_555 1_555
O11Q Ga1B 1_555 1_555
O13A_2 Ga2T 1_555 1_555
O13B_2 Ga2S 1_555 1_555
O13L_2 Ga2F 1_555 1_555
O13M_2 Ga2H 1_555 1_555
O13N_2 Ga2G 1_555 1_555
O13R_2 Ga2 1_555 1_555
O14L_2 Ga3 1_555 1_555
O14M_2 Ga3A 1_555 1_555
O14N_2 Ga3B 1_555 1_555
O14R_2 Ga3 1_555 1_555
O14S_2 Ga3B 1_555 1_555
O14T_2 Ga3A 1_555 1_555
O14 C2 1_555 1_555
C4 C5 1_555 1_555
O11T Ga1B 1_555 1_555
C4T C5T 1_555 1_555
C1A O11S 1_555 1_555
C4S C5S 1_555 1_555
C1B O11R 1_555 1_555
C4R C5R 1_555 1_555
Ga2F O10F 1_555 1_555
O14F C2F 1_555 1_555
C4F C5F 1_555 1_555
O14N Ga3B_2 1_555 1_555
C4N C5N 1_555 1_555
Ga2G O10G 1_555 1_555
O14G C2G 1_555 1_555
C4G C5G 1_555 1_555
O11M Ga1D 1_555 1_555
O14M Ga3A_2 1_555 1_555
C4M C5M 1_555 1_555
Ga2S O9B 1_555 1_555
O10B Ga3B_2 1_555 1_555
O10A Ga3A_2 1_555 1_555
Ga2H O10H 1_555 1_555
O11H Ga1E 1_555 1_555
O14H C2H 1_555 1_555
C4H C5H 1_555 1_555
O11L Ga1C 1_555 1_555
O14L Ga3_2 1_555 1_555
C4L C5L 1_555 1_555
Ga2A O10A_2 1_555 1_555
Ga2B O9A_2 1_555 1_555
Ga2B O10B_2 1_555 1_555
Ga2F_2 O9F_2 1_555 1_555
Ga2G_2 O9G_2 1_555 1_555
Ga2H_3 O9H_2 1_555 1_555

#END
