
#######################################################################
#
#                 Cambridge Crystallographic Data Centre
#                                CCDC 
#
#######################################################################
#
# If this CIF has been generated from an entry in the Cambridge 
# Structural Database, then it will include bibliographic, chemical, 
# crystal, experimental, refinement or atomic coordinate data resulting 
# from the CCDC's data processing and validation procedures.
#
#######################################################################

data_HONBES
_symmetry_cell_setting           tetragonal
_symmetry_space_group_name_H-M   'I 41/a'
_symmetry_Int_Tables_number      88
_space_group_name_Hall           '-I 4ad'
loop_
_symmetry_equiv_pos_site_id
_symmetry_equiv_pos_as_xyz
1 x,y,z
2 1/2-x,-y,1/2+z
3 3/4-y,1/4+x,1/4+z
4 3/4+y,3/4-x,3/4+z
5 1/2+x,1/2+y,1/2+z
6 -x,1/2-y,z
7 1/4-y,3/4+x,3/4+z
8 1/4+y,1/4-x,1/4+z
9 -x,-y,-z
10 1/2+x,y,1/2-z
11 1/4+y,3/4-x,3/4-z
12 1/4-y,1/4+x,1/4-z
13 1/2-x,1/2-y,1/2-z
14 x,1/2+y,-z
15 3/4+y,1/4-x,1/4-z
16 3/4-y,3/4+x,3/4-z
_cell_length_a                   17.4501(9)
_cell_length_b                   17.4501(9)
_cell_length_c                   42.568(2)
_cell_angle_alpha                90
_cell_angle_beta                 90
_cell_angle_gamma                90
_cell_volume                     12962.2
loop_
_atom_site_label
_atom_site_type_symbol
_atom_site_fract_x
_atom_site_fract_y
_atom_site_fract_z
Mn1 Mn 0.0000 0.2500 0.03102(3)
Cl1 Cl -0.10141(12) 0.35183(11) 0.03038(5)
N1 N 0.0686(4) 0.3152(4) 0.06810(15)
N2 N 0.4306(4) 0.3155(4) 0.24354(15)
C1 C 0.0360(4) 0.3546(5) 0.09047(19)
H1 H -0.0172 0.3531 0.0918
C2 C 0.0750(5) 0.3988(5) 0.11247(19)
H2 H 0.0484 0.4265 0.1276
C3 C 0.1542(5) 0.4008(5) 0.11132(19)
C4 C 0.1892(4) 0.3587(5) 0.08751(19)
H3 H 0.2423 0.3587 0.0854
C5 C 0.1445(5) 0.3176(5) 0.06732(19)
H4 H 0.1691 0.2891 0.0519
C6 C 0.2006(6) 0.4472(5) 0.1345(2)
H5 H 0.1659 0.4777 0.1472
H6 H 0.2334 0.4822 0.1230
C7 C 0.2501(5) 0.3981(5) 0.15621(17)
H7 H 0.2173 0.3651 0.1687
H8 H 0.2832 0.3657 0.1436
C8 C 0.2984(6) 0.4460(5) 0.1777(2)
H9 H 0.3324 0.4776 0.1652
H10 H 0.2652 0.4800 0.1896
C9 C 0.3454(5) 0.3997(5) 0.2003(2)
C10 C 0.4253(5) 0.3957(6) 0.19843(19)
H11 H 0.4514 0.4215 0.1826
C11 C 0.4646(5) 0.3536(6) 0.22007(19)
H12 H 0.5177 0.3513 0.2185
C12 C 0.3550(4) 0.3198(5) 0.24483(19)
H13 H 0.3299 0.2936 0.2608
C13 C 0.3121(4) 0.3600(5) 0.22432(19)
H14 H 0.2590 0.3608 0.2266
Mn1B Mn 0.5000 0.2500 0.28102(3)
Mn1C Mn 0.0000 -0.2500 -0.21898(3)
Cl1E Cl 0.10141(12) 0.14817(11) 0.03038(5)
N1F N -0.0652(4) -0.1814(4) -0.18190(15)
N1E N -0.0686(4) 0.1848(4) 0.06810(15)
N2F N -0.0655(4) 0.1806(4) -0.00646(15)
N2C N 0.0655(4) 0.3194(4) -0.00646(15)
C1F C -0.1046(5) -0.2140(4) -0.15953(19)
H1F H -0.1031 -0.2672 -0.1582
C2F C -0.1488(5) -0.1750(5) -0.13753(19)
H2F H -0.1765 -0.2016 -0.1224
C3F C -0.1508(5) -0.0958(5) -0.13868(19)
C4F C -0.1087(5) -0.0608(4) -0.16249(19)
H3F H -0.1087 -0.0077 -0.1646
C5F C -0.0676(5) -0.1055(5) -0.18268(19)
H4F H -0.0391 -0.0809 -0.1981
C6F C -0.1972(5) -0.0494(6) -0.1155(2)
H5F H -0.2277 -0.0841 -0.1028
H6F H -0.2322 -0.0166 -0.1270
C7F C -0.1481(5) 0.0001(5) -0.09379(17)
H7F H -0.1151 -0.0327 -0.0813
H8F H -0.1157 0.0332 -0.1064
C8F C -0.1960(5) 0.0484(6) -0.0723(2)
H9F H -0.2276 0.0824 -0.0848
H10F H -0.2300 0.0152 -0.0604
C9F C -0.1497(5) 0.0954(5) -0.0497(2)
C10F C -0.1457(6) 0.1753(5) -0.05157(19)
H11F H -0.1715 0.2014 -0.0674
C11F C -0.1036(6) 0.2146(5) -0.02993(19)
H12F H -0.1013 0.2677 -0.0315
C12F C -0.0698(5) 0.1050(4) -0.00517(19)
H13F H -0.0436 0.0799 0.0108
C13F C -0.1100(5) 0.0621(4) -0.02568(19)
H14F H -0.1108 0.0090 -0.0234
Mn2 Mn 0.5000 0.2500 0.09073(5)
Cl2 Cl 0.40009(15) 0.35365(19) 0.09067(8)
N3 N 0.5668(5) 0.3181(5) 0.12819(18)
N4 N 0.5646(6) 0.6799(5) 0.30355(19)
C14 C 0.6061(6) 0.2839(6) 0.1512(2)
H15 H 0.6051 0.2307 0.1524
C15 C 0.6477(6) 0.3237(7) 0.1729(2)
H16 H 0.6738 0.2969 0.1885
C16 C 0.6517(5) 0.4014(6) 0.1723(2)
C17 C 0.6110(6) 0.4375(6) 0.1485(2)
H17 H 0.6114 0.4907 0.1469
C18 C 0.5706(6) 0.3949(6) 0.1273(2)
H18 H 0.5442 0.4205 0.1115
C19 C 0.6983(7) 0.4470(8) 0.1960(3)
H19 H 0.7267 0.4116 0.2092
H20 H 0.7351 0.4784 0.1848
C20 C 0.6500(7) 0.4983(6) 0.2168(2)
H21 H 0.6212 0.5338 0.2039
H22 H 0.6138 0.4673 0.2286
C21 C 0.7002(7) 0.5425(7) 0.2394(3)
H23 H 0.7350 0.5749 0.2276
H24 H 0.7307 0.5068 0.2516
C22 C 0.6528(7) 0.5922(6) 0.2616(2)
C23 C 0.6086(8) 0.5593(6) 0.2842(3)
H25 H 0.6078 0.5062 0.2863
C24 C 0.5641(8) 0.6049(6) 0.3044(3)
H26 H 0.5329 0.5807 0.3191
C25 C 0.6083(10) 0.7117(7) 0.2809(3)
H27 H 0.6093 0.7649 0.2796
C26 C 0.6514(9) 0.6707(7) 0.2597(3)
H28 H 0.6793 0.6959 0.2442
Mn2B Mn 0.5000 0.7500 0.34073(5)
Mn2C Mn 1.0000 0.2500 -0.15927(5)
Cl2E Cl 0.59991(15) 0.14635(19) 0.09067(8)
N3F N 0.9319(5) 0.3168(5) -0.12181(18)
N3E N 0.4332(5) 0.1819(5) 0.12819(18)
N4F N 0.5701(5) 0.3146(6) 0.05355(19)
N4C N 0.4299(5) 0.1854(6) 0.05355(19)
C14F C 0.9661(6) 0.3561(6) -0.0988(2)
H15F H 1.0193 0.3551 -0.0976
C15F C 0.9263(7) 0.3977(6) -0.0771(2)
H16F H 0.9531 0.4238 -0.0615
C16F C 0.8486(6) 0.4017(5) -0.0777(2)
C17F C 0.8125(6) 0.3610(6) -0.1015(2)
H17F H 0.7593 0.3614 -0.1031
C18F C 0.8551(6) 0.3206(6) -0.1227(2)
H18F H 0.8295 0.2942 -0.1385
C19F C 0.8030(8) 0.4483(7) -0.0540(3)
H19F H 0.8384 0.4767 -0.0408
H20F H 0.7716 0.4851 -0.0652
C20F C 0.7517(6) 0.4000(7) -0.0332(2)
H21F H 0.7162 0.3712 -0.0461
H22F H 0.7827 0.3638 -0.0214
C21F C 0.7075(7) 0.4502(7) -0.0106(3)
H23F H 0.6751 0.4850 -0.0224
H24F H 0.7432 0.4807 0.0016
C22F C 0.6578(6) 0.4028(7) 0.0116(2)
C23F C 0.6907(6) 0.3586(8) 0.0342(3)
H25F H 0.7438 0.3578 0.0363
C24F C 0.6451(6) 0.3141(8) 0.0544(3)
H26F H 0.6693 0.2829 0.0691
C25F C 0.5383(7) 0.3583(10) 0.0309(3)
H27F H 0.4851 0.3593 0.0296
C26F C 0.5793(7) 0.4014(9) 0.0097(3)
H28F H 0.5541 0.4293 -0.0058
loop_
_geom_bond_atom_site_label_1
_geom_bond_atom_site_label_2
_geom_bond_site_symmetry_1
_geom_bond_site_symmetry_2
Mn1 Cl1 1_555 1_555
Mn2 Cl2 1_555 1_555
N1 Mn1 1_555 1_555
N2 C11 1_555 1_555
N3 Mn2 1_555 1_555
N4 C24 1_555 1_555
C1 N1 1_555 1_555
H1 C1 1_555 1_555
C2 C1 1_555 1_555
H2 C2 1_555 1_555
C3 C2 1_555 1_555
C4 C3 1_555 1_555
H3 C4 1_555 1_555
C5 N1 1_555 1_555
H4 C5 1_555 1_555
C6 C3 1_555 1_555
H5 C6 1_555 1_555
H6 C6 1_555 1_555
C7 C6 1_555 1_555
H7 C7 1_555 1_555
H8 C7 1_555 1_555
C8 C7 1_555 1_555
H9 C8 1_555 1_555
H10 C8 1_555 1_555
C9 C8 1_555 1_555
C10 C9 1_555 1_555
H11 C10 1_555 1_555
C11 C10 1_555 1_555
H12 C11 1_555 1_555
C12 N2 1_555 1_555
H13 C12 1_555 1_555
C13 C9 1_555 1_555
H14 C13 1_555 1_555
C14 N3 1_555 1_555
H15 C14 1_555 1_555
C15 C14 1_555 1_555
H16 C15 1_555 1_555
C16 C15 1_555 1_555
C17 C16 1_555 1_555
H17 C17 1_555 1_555
C18 N3 1_555 1_555
H18 C18 1_555 1_555
C19 C16 1_555 1_555
H19 C19 1_555 1_555
H20 C19 1_555 1_555
C20 C19 1_555 1_555
H21 C20 1_555 1_555
H22 C20 1_555 1_555
C21 C20 1_555 1_555
H23 C21 1_555 1_555
H24 C21 1_555 1_555
C22 C21 1_555 1_555
C23 C22 1_555 1_555
H25 C23 1_555 1_555
C24 C23 1_555 1_555
H26 C24 1_555 1_555
C25 N4 1_555 1_555
H27 C25 1_555 1_555
C26 C22 1_555 1_555
H28 C26 1_555 1_555
Mn1B N2 1_555 1_555
Mn1C N1F 1_555 1_555
Mn2B N4 1_555 1_555
Mn2C N3F 1_555 1_555
Cl1E Mn1 1_555 1_555
Cl2E Mn2 1_555 1_555
N1F C1F 1_555 1_555
N1E Mn1 1_555 1_555
N2F Mn1 1_555 1_555
N2C Mn1 1_555 1_555
N3F C14F 1_555 1_555
N3E Mn2 1_555 1_555
N4F Mn2 1_555 1_555
N4C Mn2 1_555 1_555
C1F H1F 1_555 1_555
C2F C1F 1_555 1_555
H2F C2F 1_555 1_555
C3F C2F 1_555 1_555
C4F C3F 1_555 1_555
H3F C4F 1_555 1_555
C5F N1F 1_555 1_555
H4F C5F 1_555 1_555
C6F C3F 1_555 1_555
H5F C6F 1_555 1_555
H6F C6F 1_555 1_555
C7F C6F 1_555 1_555
H7F C7F 1_555 1_555
H8F C7F 1_555 1_555
C8F C7F 1_555 1_555
H9F C8F 1_555 1_555
H10F C8F 1_555 1_555
C9F C8F 1_555 1_555
C10F C9F 1_555 1_555
H11F C10F 1_555 1_555
C11F N2F 1_555 1_555
H12F C11F 1_555 1_555
C12F N2F 1_555 1_555
H13F C12F 1_555 1_555
C13F C9F 1_555 1_555
H14F C13F 1_555 1_555
C14F H15F 1_555 1_555
C15F C14F 1_555 1_555
H16F C15F 1_555 1_555
C16F C15F 1_555 1_555
C17F C16F 1_555 1_555
H17F C17F 1_555 1_555
C18F N3F 1_555 1_555
H18F C18F 1_555 1_555
C19F C16F 1_555 1_555
H19F C19F 1_555 1_555
H20F C19F 1_555 1_555
C20F C19F 1_555 1_555
H21F C20F 1_555 1_555
H22F C20F 1_555 1_555
C21F C20F 1_555 1_555
H23F C21F 1_555 1_555
H24F C21F 1_555 1_555
C22F C21F 1_555 1_555
C23F C22F 1_555 1_555
H25F C23F 1_555 1_555
C24F N4F 1_555 1_555
H26F C24F 1_555 1_555
C25F N4F 1_555 1_555
H27F C25F 1_555 1_555
C26F C22F 1_555 1_555
H28F C26F 1_555 1_555
C4 C5 1_555 1_555
C12 C13 1_555 1_555
C17 C18 1_555 1_555
C25 C26 1_555 1_555
C4F C5F 1_555 1_555
C10F C11F 1_555 1_555
C12F C13F 1_555 1_555
C17F C18F 1_555 1_555
C23F C24F 1_555 1_555
C25F C26F 1_555 1_555

#END
