
#######################################################################
#
#                 Cambridge Crystallographic Data Centre
#                                CCDC 
#
#######################################################################
#
# If this CIF has been generated from an entry in the Cambridge 
# Structural Database, then it will include bibliographic, chemical, 
# crystal, experimental, refinement or atomic coordinate data resulting 
# from the CCDC's data processing and validation procedures.
#
#######################################################################

data_HONCEU
_symmetry_cell_setting           monoclinic
_symmetry_space_group_name_H-M   'P 21/n'
_symmetry_Int_Tables_number      14
_space_group_name_Hall           '-P 2yn'
loop_
_symmetry_equiv_pos_site_id
_symmetry_equiv_pos_as_xyz
1 x,y,z
2 1/2-x,1/2+y,1/2-z
3 -x,-y,-z
4 1/2+x,1/2-y,1/2+z
_cell_length_a                   14.0847(4)
_cell_length_b                   5.9953(2)
_cell_length_c                   19.3347(6)
_cell_angle_alpha                90
_cell_angle_beta                 93.729(2)
_cell_angle_gamma                90
_cell_volume                     1629.2
loop_
_atom_site_label
_atom_site_type_symbol
_atom_site_fract_x
_atom_site_fract_y
_atom_site_fract_z
Zn1 Zn 0.5000 0.5000 0.5000
Zn2 Zn 0.39977(3) 0.98594(7) 0.47761(2)
S1 S 0.03455(6) 0.39971(16) 0.76716(5)
O1 O 0.30348(19) 0.8638(5) 0.53307(14)
O2 O 0.40236(19) 0.5913(5) 0.57107(14)
O3 O -0.3789(2) 0.5170(5) 0.57523(14)
O4 O -0.3390(2) 0.8705(5) 0.60154(15)
O5 O 0.04005(19) 0.1605(5) 0.77269(15)
O6 O 0.04869(19) 0.5353(5) 0.82893(14)
O7 O 0.51537(18) 0.8135(5) 0.46303(13)
H1 H 0.5264 0.8187 0.4185
C1 C 0.3265(3) 0.6966(6) 0.57166(19)
C2 C 0.2538(3) 0.6246(6) 0.62062(19)
C3 C 0.2613(3) 0.4149(7) 0.6517(2)
H2 H 0.3122 0.3221 0.6433
C4 C 0.1925(3) 0.3453(7) 0.6952(2)
H3 H 0.1957 0.2039 0.7150
C5 C 0.1188(3) 0.4888(6) 0.70885(19)
C6 C 0.1126(3) 0.7010(7) 0.6804(2)
H4 H 0.0642 0.7976 0.6914
C7 C 0.1797(3) 0.7669(7) 0.6351(2)
H5 H 0.1752 0.9067 0.6143
C8 C -0.0767(3) 0.4712(6) 0.72544(18)
C9 C -0.1175(3) 0.6760(7) 0.73834(19)
H6 H -0.0899 0.7720 0.7717
C10 C -0.2011(3) 0.7344(7) 0.69996(19)
H7 H -0.2290 0.8726 0.7068
C11 C -0.2431(3) 0.5870(7) 0.65145(19)
C12 C -0.2032(3) 0.3777(7) 0.6416(2)
H8 H -0.2331 0.2771 0.6107
C13 C -0.1185(3) 0.3198(7) 0.6782(2)
H9 H -0.0902 0.1821 0.6711
C14 C -0.3283(3) 0.6600(7) 0.60574(19)
Zn2B Zn -0.39977(3) 0.01406(7) 0.52239(2)
S1B S -0.03455(6) 0.60029(16) 0.23284(5)
O1B O -0.30348(19) 0.1362(5) 0.46693(14)
O2B O -0.40236(19) 0.4087(5) 0.42893(14)
O3B O 0.3789(2) 0.4830(5) 0.42477(14)
O4B O 0.3390(2) 0.1295(5) 0.39846(15)
O5B O -0.04005(19) 0.8395(5) 0.22731(15)
O6B O -0.04869(19) 0.4647(5) 0.17107(14)
O7B O -0.51537(18) 0.1865(5) 0.53697(13)
H1B H -0.5264 0.1813 0.5815
C1B C -0.3265(3) 0.3034(6) 0.42834(19)
C2B C -0.2538(3) 0.3754(6) 0.37938(19)
C3B C -0.2613(3) 0.5851(7) 0.3483(2)
H2B H -0.3122 0.6779 0.3567
C4B C -0.1925(3) 0.6547(7) 0.3048(2)
H3B H -0.1957 0.7961 0.2850
C5B C -0.1188(3) 0.5112(6) 0.29115(19)
C6B C -0.1126(3) 0.2990(7) 0.3196(2)
H4B H -0.0642 0.2024 0.3086
C7B C -0.1797(3) 0.2331(7) 0.3649(2)
H5B H -0.1752 0.0933 0.3857
C8B C 0.0767(3) 0.5288(6) 0.27456(18)
C9B C 0.1175(3) 0.3240(7) 0.26166(19)
H6B H 0.0899 0.2280 0.2283
C10B C 0.2011(3) 0.2656(7) 0.30004(19)
H7B H 0.2290 0.1274 0.2932
C11B C 0.2431(3) 0.4130(7) 0.34855(19)
C12B C 0.2032(3) 0.6223(7) 0.3584(2)
H8B H 0.2331 0.7229 0.3893
C13B C 0.1185(3) 0.6802(7) 0.3218(2)
H9B H 0.0902 0.8179 0.3289
C14B C 0.3283(3) 0.3400(7) 0.39426(19)
Zn1_2 Zn -0.5000 0.5000 0.5000
Zn2_2 Zn -0.60023(3) -0.01406(7) 0.47761(2)
Zn2_3 Zn 0.39977(3) -0.01406(7) 0.47761(2)
Zn2B_2 Zn -0.39977(3) 1.01406(7) 0.52239(2)
Zn2B_3 Zn 0.60023(3) 1.01406(7) 0.52239(2)
O2B_2 O 0.59764(19) 0.4087(5) 0.42893(14)
O3_2 O 0.6211(2) 0.5170(5) 0.57523(14)
O4_2 O -0.3390(2) -0.1295(5) 0.60154(15)
O4B_2 O 0.3390(2) 1.1295(5) 0.39846(15)
O7_2 O -0.48463(18) -0.1865(5) 0.46303(13)
O7B_2 O 0.48463(18) 0.1865(5) 0.53697(13)
O7B_3 O 0.48463(18) 1.1865(5) 0.53697(13)
C15 C 0.1141(13) 0.011(3) 0.4704(10)
H10 H 0.1809 0.0193 0.4636
H11 H 0.0806 -0.0408 0.4286
H12 H 0.1038 -0.0912 0.5075
C16 C 0.078(2) 0.238(4) 0.4885(19)
H13 H 0.1336 0.2847 0.5171
H14 H 0.0868 0.3080 0.4442
O8 O 0.013(2) 0.398(5) 0.5133(16)
H15 H 0.0454 0.5309 0.5119
C15B C -0.1141(13) 0.989(3) 0.5296(10)
H10B H -0.1809 0.9807 0.5364
H11B H -0.0806 1.0408 0.5714
H12B H -0.1038 1.0912 0.4925
C16B C -0.078(2) 0.762(4) 0.5115(19)
H13B H -0.1336 0.7153 0.4829
H14B H -0.0868 0.6920 0.5558
O8B O -0.013(2) 0.602(5) 0.4867(16)
H15B H -0.0454 0.4691 0.4881
loop_
_geom_bond_atom_site_label_1
_geom_bond_atom_site_label_2
_geom_bond_site_symmetry_1
_geom_bond_site_symmetry_2
Zn1 O2 1_555 1_555
Zn2 O1 1_555 1_555
S1 O5 1_555 1_555
O1 C1 1_555 1_555
O2 C1 1_555 1_555
O3 C14 1_555 1_555
O4 C14 1_555 1_555
O6 S1 1_555 1_555
O7 Zn1 1_555 1_555
H1 O7 1_555 1_555
C1 C2 1_555 1_555
C2 C3 1_555 1_555
C3 H2 1_555 1_555
C4 C3 1_555 1_555
H3 C4 1_555 1_555
C5 S1 1_555 1_555
C6 C5 1_555 1_555
H4 C6 1_555 1_555
C7 C2 1_555 1_555
H5 C7 1_555 1_555
C8 S1 1_555 1_555
C9 C8 1_555 1_555
H6 C9 1_555 1_555
C10 C9 1_555 1_555
H7 C10 1_555 1_555
C11 C10 1_555 1_555
C12 C11 1_555 1_555
H8 C12 1_555 1_555
C13 C8 1_555 1_555
H9 C13 1_555 1_555
C14 C11 1_555 1_555
C15 H10 1_555 1_555
H11 C15 1_555 1_555
H12 C15 1_555 1_555
C16 C15 1_555 1_555
H13 C16 1_555 1_555
H14 C16 1_555 1_555
O8 C16 1_555 1_555
H15 O8 1_555 1_555
Zn2B O1B 1_555 1_555
S1B O5B 1_555 1_555
O1B C1B 1_555 1_555
O2B C1B 1_555 1_555
O3B Zn1 1_555 1_555
O4B C14B 1_555 1_555
O6B S1B 1_555 1_555
O7B Zn2B 1_555 1_555
H1B O7B 1_555 1_555
C1B C2B 1_555 1_555
C2B C3B 1_555 1_555
C3B H2B 1_555 1_555
C4B C3B 1_555 1_555
H3B C4B 1_555 1_555
C5B S1B 1_555 1_555
C6B C5B 1_555 1_555
H4B C6B 1_555 1_555
C7B C2B 1_555 1_555
H5B C7B 1_555 1_555
C8B S1B 1_555 1_555
C9B C8B 1_555 1_555
H6B C9B 1_555 1_555
C10B C9B 1_555 1_555
H7B C10B 1_555 1_555
C11B C10B 1_555 1_555
C12B C11B 1_555 1_555
H8B C12B 1_555 1_555
C13B C8B 1_555 1_555
H9B C13B 1_555 1_555
C14B O3B 1_555 1_555
Zn1_2 O3 1_555 1_555
Zn2_2 O7B 1_555 1_555
Zn2_3 O4B 1_555 1_555
Zn2B_2 O4 1_555 1_555
Zn2B_3 O7 1_555 1_555
O2B_2 Zn1 1_555 1_555
O3_2 Zn1 1_555 1_555
O4_2 Zn2B 1_555 1_555
O4B_2 Zn2 1_555 1_555
O7_2 Zn2B 1_555 1_555
O7B_2 Zn1 1_555 1_555
O7B_3 Zn2 1_555 1_555
C15B H10B 1_555 1_555
H11B C15B 1_555 1_555
H12B C15B 1_555 1_555
C16B C15B 1_555 1_555
H13B C16B 1_555 1_555
H14B C16B 1_555 1_555
O8B C16B 1_555 1_555
H15B O8B 1_555 1_555
Zn2 O7 1_555 1_555
C4 C5 1_555 1_555
C6 C7 1_555 1_555
C12 C13 1_555 1_555
O2B Zn1_2 1_555 1_555
O7B Zn1_2 1_555 1_555
C4B C5B 1_555 1_555
C6B C7B 1_555 1_555
C11B C14B 1_555 1_555
C12B C13B 1_555 1_555
Zn2_2 O7_2 1_555 1_555
Zn2_3 O7B_2 1_555 1_555
Zn2B_3 O7B_3 1_555 1_555

#END
