
#######################################################################
#
#                 Cambridge Crystallographic Data Centre
#                                CCDC 
#
#######################################################################
#
# If this CIF has been generated from an entry in the Cambridge 
# Structural Database, then it will include bibliographic, chemical, 
# crystal, experimental, refinement or atomic coordinate data resulting 
# from the CCDC's data processing and validation procedures.
#
#######################################################################

data_HONCIY
_symmetry_cell_setting           monoclinic
_symmetry_space_group_name_H-M   'P 21/n'
_symmetry_Int_Tables_number      14
_space_group_name_Hall           '-P 2yn'
loop_
_symmetry_equiv_pos_site_id
_symmetry_equiv_pos_as_xyz
1 x,y,z
2 1/2-x,1/2+y,1/2-z
3 -x,-y,-z
4 1/2+x,1/2-y,1/2+z
_cell_length_a                   14.1168(2)
_cell_length_b                   6.05310(10)
_cell_length_c                   19.3678(3)
_cell_angle_alpha                90
_cell_angle_beta                 93.6270(10)
_cell_angle_gamma                90
_cell_volume                     1651.67
loop_
_atom_site_label
_atom_site_type_symbol
_atom_site_fract_x
_atom_site_fract_y
_atom_site_fract_z
Zn1 Zn 0.5000 0.5000 0.5000
Zn2 Zn 0.399647(16) 0.98820(4) 0.479454(13)
S1 S 0.03266(3) 0.40487(11) 0.76635(3)
O1 O 0.30593(10) 0.8640(3) 0.53561(8)
O2 O 0.40019(10) 0.5841(3) 0.57006(8)
O3 O -0.37996(11) 0.5231(3) 0.57618(9)
O4 O -0.33725(11) 0.8726(3) 0.59903(8)
O5 O 0.03773(10) 0.1690(3) 0.77228(9)
O6 O 0.04648(11) 0.5396(3) 0.82728(8)
O7 O 0.51365(9) 0.8122(2) 0.46343(7)
H1 H 0.5264 0.8187 0.4185
C1 C 0.32612(14) 0.6940(4) 0.57155(11)
C2 C 0.25302(13) 0.6217(4) 0.62014(11)
C3 C 0.25893(15) 0.4169(4) 0.65111(12)
H2 H 0.3093 0.3237 0.6428
C4 C 0.19058(15) 0.3490(4) 0.69447(12)
H3 H 0.1940 0.2092 0.7144
C5 C 0.11737(14) 0.4896(4) 0.70790(11)
C6 C 0.11192(16) 0.6984(4) 0.67874(13)
H4 H 0.0634 0.7944 0.6891
C7 C 0.17945(16) 0.7626(4) 0.63412(13)
H5 H 0.1754 0.9011 0.6134
C8 C -0.07774(13) 0.4760(4) 0.72397(11)
C9 C -0.11864(14) 0.6784(4) 0.73653(11)
H6 H -0.0914 0.7734 0.7699
C10 C -0.20113(14) 0.7368(4) 0.69825(11)
H7 H -0.2288 0.8739 0.7052
C11 C -0.24281(13) 0.5921(4) 0.64966(10)
C12 C -0.20278(15) 0.3872(4) 0.63994(12)
H8 H -0.2321 0.2881 0.6087
C13 C -0.11910(15) 0.3289(4) 0.67661(12)
H9 H -0.0911 0.1924 0.6694
C14 C -0.32805(14) 0.6650(4) 0.60476(10)
Zn2B Zn -0.399647(16) 0.01180(4) 0.520546(13)
S1B S -0.03266(3) 0.59513(11) 0.23365(3)
O1B O -0.30593(10) 0.1360(3) 0.46439(8)
O2B O -0.40019(10) 0.4159(3) 0.42994(8)
O3B O 0.37996(11) 0.4769(3) 0.42382(9)
O4B O 0.33725(11) 0.1274(3) 0.40097(8)
O5B O -0.03773(10) 0.8310(3) 0.22772(9)
O6B O -0.04648(11) 0.4604(3) 0.17272(8)
O7B O -0.51365(9) 0.1878(2) 0.53657(7)
H1B H -0.5264 0.1813 0.5815
C1B C -0.32612(14) 0.3060(4) 0.42845(11)
C2B C -0.25302(13) 0.3783(4) 0.37986(11)
C3B C -0.25893(15) 0.5831(4) 0.34889(12)
H2B H -0.3093 0.6763 0.3572
C4B C -0.19058(15) 0.6510(4) 0.30553(12)
H3B H -0.1940 0.7908 0.2856
C5B C -0.11737(14) 0.5104(4) 0.29210(11)
C6B C -0.11192(16) 0.3016(4) 0.32126(13)
H4B H -0.0634 0.2056 0.3109
C7B C -0.17945(16) 0.2374(4) 0.36588(13)
H5B H -0.1754 0.0989 0.3866
C8B C 0.07774(13) 0.5240(4) 0.27603(11)
C9B C 0.11864(14) 0.3216(4) 0.26347(11)
H6B H 0.0914 0.2266 0.2301
C10B C 0.20113(14) 0.2632(4) 0.30175(11)
H7B H 0.2288 0.1261 0.2948
C11B C 0.24281(13) 0.4079(4) 0.35034(10)
C12B C 0.20278(15) 0.6128(4) 0.36006(12)
H8B H 0.2321 0.7119 0.3913
C13B C 0.11910(15) 0.6711(4) 0.32339(12)
H9B H 0.0911 0.8076 0.3306
C14B C 0.32805(14) 0.3350(4) 0.39524(10)
Zn1_2 Zn -0.5000 0.5000 0.5000
Zn2_2 Zn -0.600353(16) -0.01180(4) 0.479454(13)
Zn2_3 Zn 0.399647(16) -0.01180(4) 0.479454(13)
Zn2B_2 Zn -0.399647(16) 1.01180(4) 0.520546(13)
Zn2B_3 Zn 0.600353(16) 1.01180(4) 0.520546(13)
O2B_2 O 0.59981(10) 0.4159(3) 0.42994(8)
O3_2 O 0.62004(11) 0.5231(3) 0.57618(9)
O4_2 O -0.33725(11) -0.1274(3) 0.59903(8)
O4B_2 O 0.33725(11) 1.1274(3) 0.40097(8)
O7_2 O -0.48635(9) -0.1878(2) 0.46343(7)
O7B_2 O 0.48635(9) 0.1878(2) 0.53657(7)
O7B_3 O 0.48635(9) 1.1878(2) 0.53657(7)
loop_
_geom_bond_atom_site_label_1
_geom_bond_atom_site_label_2
_geom_bond_site_symmetry_1
_geom_bond_site_symmetry_2
Zn1 O2 1_555 1_555
Zn2 O1 1_555 1_555
S1 O5 1_555 1_555
O1 C1 1_555 1_555
O2 C1 1_555 1_555
O3 C14 1_555 1_555
O4 C14 1_555 1_555
O6 S1 1_555 1_555
O7 Zn1 1_555 1_555
H1 O7 1_555 1_555
C1 C2 1_555 1_555
C2 C3 1_555 1_555
C3 H2 1_555 1_555
C4 C3 1_555 1_555
H3 C4 1_555 1_555
C5 S1 1_555 1_555
C6 C5 1_555 1_555
H4 C6 1_555 1_555
C7 C2 1_555 1_555
H5 C7 1_555 1_555
C8 S1 1_555 1_555
C9 C8 1_555 1_555
H6 C9 1_555 1_555
C10 C9 1_555 1_555
H7 C10 1_555 1_555
C11 C10 1_555 1_555
C12 C11 1_555 1_555
H8 C12 1_555 1_555
C13 C8 1_555 1_555
H9 C13 1_555 1_555
C14 C11 1_555 1_555
Zn2B O1B 1_555 1_555
S1B O5B 1_555 1_555
O1B C1B 1_555 1_555
O2B C1B 1_555 1_555
O3B Zn1 1_555 1_555
O4B C14B 1_555 1_555
O6B S1B 1_555 1_555
O7B Zn2B 1_555 1_555
H1B O7B 1_555 1_555
C1B C2B 1_555 1_555
C2B C3B 1_555 1_555
C3B H2B 1_555 1_555
C4B C3B 1_555 1_555
H3B C4B 1_555 1_555
C5B S1B 1_555 1_555
C6B C5B 1_555 1_555
H4B C6B 1_555 1_555
C7B C2B 1_555 1_555
H5B C7B 1_555 1_555
C8B S1B 1_555 1_555
C9B C8B 1_555 1_555
H6B C9B 1_555 1_555
C10B C9B 1_555 1_555
H7B C10B 1_555 1_555
C11B C10B 1_555 1_555
C12B C11B 1_555 1_555
H8B C12B 1_555 1_555
C13B C8B 1_555 1_555
H9B C13B 1_555 1_555
C14B O3B 1_555 1_555
Zn1_2 O3 1_555 1_555
Zn2_2 O7B 1_555 1_555
Zn2_3 O4B 1_555 1_555
Zn2B_2 O4 1_555 1_555
Zn2B_3 O7 1_555 1_555
O2B_2 Zn1 1_555 1_555
O3_2 Zn1 1_555 1_555
O4_2 Zn2B 1_555 1_555
O4B_2 Zn2 1_555 1_555
O7_2 Zn2B 1_555 1_555
O7B_2 Zn1 1_555 1_555
O7B_3 Zn2 1_555 1_555
Zn2 O7 1_555 1_555
C4 C5 1_555 1_555
C6 C7 1_555 1_555
C12 C13 1_555 1_555
O2B Zn1_2 1_555 1_555
O7B Zn1_2 1_555 1_555
C4B C5B 1_555 1_555
C6B C7B 1_555 1_555
C11B C14B 1_555 1_555
C12B C13B 1_555 1_555
Zn2_2 O7_2 1_555 1_555
Zn2_3 O7B_2 1_555 1_555
Zn2B_3 O7B_3 1_555 1_555

#END
