
#######################################################################
#
#                 Cambridge Crystallographic Data Centre
#                                CCDC 
#
#######################################################################
#
# If this CIF has been generated from an entry in the Cambridge 
# Structural Database, then it will include bibliographic, chemical, 
# crystal, experimental, refinement or atomic coordinate data resulting 
# from the CCDC's data processing and validation procedures.
#
#######################################################################

data_HONDUL
_symmetry_cell_setting           monoclinic
_symmetry_space_group_name_H-M   'P 21/c'
_symmetry_Int_Tables_number      14
_space_group_name_Hall           '-P 2ybc'
loop_
_symmetry_equiv_pos_site_id
_symmetry_equiv_pos_as_xyz
1 x,y,z
2 -x,1/2+y,1/2-z
3 -x,-y,-z
4 x,1/2-y,1/2+z
_cell_length_a                   10.2074(3)
_cell_length_b                   12.3670(3)
_cell_length_c                   13.4551(3)
_cell_angle_alpha                90
_cell_angle_beta                 131.1690(10)
_cell_angle_gamma                90
_cell_volume                     1278.58
loop_
_atom_site_label
_atom_site_type_symbol
_atom_site_fract_x
_atom_site_fract_y
_atom_site_fract_z
Cu1 Cu 0.85865(4) 0.12830(3) 0.30153(3)
N1 N 0.8594(4) 0.1674(3) 0.7655(3)
N2 N 0.1510(4) 0.0977(3) -0.2837(3)
O1 O 1.1005(3) 0.12598(19) 0.4702(2)
N3 N 0.9854(4) 0.11703(18) 0.2316(2)
C1 C 0.7493(4) 0.1383(2) 0.4662(3)
C2 C 1.1588(4) 0.1182(2) 0.3282(3)
N4 N 1.2046(5) 0.1161(3) 0.1761(3)
C3 C 0.9220(5) 0.1154(2) 0.1071(3)
H1 H 0.8026 0.1136 0.0364
C4 C 0.4749(4) 0.1241(2) 0.0400(3)
C5 C 1.2186(4) 0.1234(2) 0.4629(3)
N5 N 0.3098(4) 0.1308(3) -0.0493(3)
N6 N 0.6221(4) 0.1206(2) 0.1300(3)
C6 C 0.7917(5) 0.1516(3) 0.6565(4)
C7 C 0.2304(4) 0.1132(3) -0.1751(3)
N7 N 0.7706(4) 0.1396(2) 0.3941(3)
C8 C 1.0376(6) 0.1165(3) 0.0848(4)
H2 H 0.9905 0.1175 -0.0024
N8 N 0.7004(5) 0.1325(3) 0.5330(3)
C9 C 1.2684(5) 0.1161(3) 0.3023(4)
H3 H 1.3881 0.1147 0.3721
O2 O 1.3898(3) 0.1238(2) 0.5591(2)
H4 H 1.430(11) 0.140(5) 0.652(4)
Cu1C Cu 0.85865(4) 0.37170(3) 0.80153(3)
N1C N 0.8594(4) 0.3326(3) 0.2655(3)
loop_
_geom_bond_atom_site_label_1
_geom_bond_atom_site_label_2
_geom_bond_site_symmetry_1
_geom_bond_site_symmetry_2
Cu1 O1 1_555 1_555
N1 C6 1_555 1_555
N2 C7 1_555 1_555
O1 C5 1_555 1_555
N3 Cu1 1_555 1_555
C1 N7 1_555 1_555
C2 N3 1_555 1_555
N4 C8 1_555 1_555
C3 N3 1_555 1_555
H1 C3 1_555 1_555
C4 N5 1_555 1_555
C5 C2 1_555 1_555
N5 C7 1_555 1_555
N6 Cu1 1_555 1_555
C6 N8 1_555 1_555
N7 Cu1 1_555 1_555
C8 C3 1_555 1_555
H2 C8 1_555 1_555
N8 C1 1_555 1_555
C9 C2 1_555 1_555
H3 C9 1_555 1_555
O2 C5 1_555 1_555
H4 O2 1_555 1_555
Cu1C N1 1_555 1_555
N1C Cu1 1_555 1_555
N4 C9 1_555 1_555
C4 N6 1_555 1_555

#END
