
#######################################################################
#
#                 Cambridge Crystallographic Data Centre
#                                CCDC 
#
#######################################################################
#
# If this CIF has been generated from an entry in the Cambridge 
# Structural Database, then it will include bibliographic, chemical, 
# crystal, experimental, refinement or atomic coordinate data resulting 
# from the CCDC's data processing and validation procedures.
#
#######################################################################

data_HONHAV
_symmetry_cell_setting           monoclinic
_symmetry_space_group_name_H-M   'P 21/m'
_symmetry_Int_Tables_number      11
_space_group_name_Hall           '-P 2yb'
loop_
_symmetry_equiv_pos_site_id
_symmetry_equiv_pos_as_xyz
1 x,y,z
2 -x,1/2+y,-z
3 -x,-y,-z
4 x,1/2-y,z
_cell_length_a                   7.5773(15)
_cell_length_b                   22.160(4)
_cell_length_c                   9.0886(18)
_cell_angle_alpha                90
_cell_angle_beta                 96.86(3)
_cell_angle_gamma                90
_cell_volume                     1515.17
loop_
_atom_site_label
_atom_site_type_symbol
_atom_site_fract_x
_atom_site_fract_y
_atom_site_fract_z
C1 C 1.0945(3) 0.19607(9) -0.1859(2)
H1 H 1.1245 0.1593 -0.2255
C2 C 0.9991(3) 0.19804(8) -0.0655(2)
C3 C 0.5129(3) 0.16925(11) 0.3436(3)
H2 H 0.4436 0.1839 0.2599
C4 C 0.4324(3) 0.13366(11) 0.4409(3)
H3 H 0.3121 0.1245 0.4217
C5 C 0.5317(3) 0.11175(9) 0.5674(2)
C6 C 0.2336(3) -0.00017(10) 0.7274(2)
H4 H 0.1597 -0.0321 0.6943
C7 C 0.3297(3) 0.02863(10) 0.6277(2)
H5 H 0.3177 0.0166 0.5289
C8 C 0.4439(3) 0.07549(9) 0.6754(2)
C9 C 0.4655(3) 0.08894(10) 0.8257(2)
H6 H 0.5484 0.1176 0.8638
C10 C 0.3619(3) 0.05909(10) 0.9178(2)
H7 H 0.3752 0.0691 1.0178
C11 C 0.9337(3) 0.14256(8) 0.0081(2)
C12 C 0.7816(3) 0.16116(12) 0.4839(3)
H8 H 0.9024 0.1700 0.4988
C13 C 0.7113(3) 0.12558(11) 0.5872(3)
H9 H 0.7838 0.1110 0.6693
C14 C 1.1448(4) 0.2500 -0.2464(3)
H10 H 1.2110 0.2500 -0.3262
Cl1 Cl 0.53247(11) 0.2500 0.02538(8)
Cl2 Cl 1.09449(9) 0.2500 0.34873(8)
Cl3 Cl 0.81626(8) -0.02596(3) -0.22874(6)
In1 In 0.80444(3) 0.2500 0.19943(2)
In2 In 1.0000 0.0000 0.0000
N1 N 0.2435(2) 0.01644(8) 0.87021(19)
N2 N 0.6847(2) 0.18363(7) 0.36337(18)
N3 N 0.9543(3) 0.2500 -0.0058(2)
O1 O 0.8600(2) 0.14904(6) 0.12171(16)
O2 O 0.9587(2) 0.09370(6) -0.05867(16)
C1C C 1.0945(3) 0.30393(9) -0.1859(2)
H1C H 1.1245 0.3407 -0.2255
C2C C 0.9991(3) 0.30196(8) -0.0655(2)
C11C C 0.9337(3) 0.35744(8) 0.0081(2)
O1C O 0.8600(2) 0.35096(6) 0.12171(16)
O2C O 0.9587(2) 0.40630(6) -0.05867(16)
C3B C 0.4871(3) -0.16925(11) 0.6564(3)
H2B H 0.5564 -0.1839 0.7401
C4B C 0.5676(3) -0.13366(11) 0.5591(3)
H3B H 0.6879 -0.1245 0.5783
C5B C 0.4683(3) -0.11175(9) 0.4326(2)
C6B C 0.7664(3) 0.00017(10) 0.2726(2)
H4B H 0.8403 0.0321 0.3057
C7B C 0.6703(3) -0.02863(10) 0.3723(2)
H5B H 0.6823 -0.0166 0.4711
C8B C 0.5561(3) -0.07549(9) 0.3246(2)
C9B C 0.5345(3) -0.08894(10) 0.1743(2)
H6B H 0.4516 -0.1176 0.1362
C10B C 0.6381(3) -0.05909(10) 0.0822(2)
H7B H 0.6248 -0.0691 -0.0178
C12B C 0.2184(3) -0.16116(12) 0.5161(3)
H8B H 0.0976 -0.1700 0.5012
C13B C 0.2887(3) -0.12558(11) 0.4128(3)
H9B H 0.2162 -0.1110 0.3307
N1B N 0.7565(2) -0.01644(8) 0.12979(19)
N2B N 0.3153(2) -0.18363(7) 0.63663(18)
Cl3B Cl 1.18374(8) 0.02596(3) 0.22874(6)
In1A In 0.19556(3) -0.2500 0.80057(2)
In2_2 In 0.0000 0.0000 1.0000
In2A In 1.0000 0.5000 0.0000
N1_2 N 1.2435(2) 0.01644(8) -0.12979(19)
N2C N 0.6847(2) 0.31637(7) 0.36337(18)
O2B O 1.0413(2) -0.09370(6) 0.05867(16)
loop_
_geom_bond_atom_site_label_1
_geom_bond_atom_site_label_2
_geom_bond_site_symmetry_1
_geom_bond_site_symmetry_2
C1 H1 1_555 1_555
C2 C1 1_555 1_555
C3 H2 1_555 1_555
C4 C3 1_555 1_555
H3 C4 1_555 1_555
C5 C4 1_555 1_555
C6 H4 1_555 1_555
C7 C6 1_555 1_555
H5 C7 1_555 1_555
C8 C5 1_555 1_555
C9 C8 1_555 1_555
H6 C9 1_555 1_555
C10 C9 1_555 1_555
H7 C10 1_555 1_555
C11 C2 1_555 1_555
C12 H8 1_555 1_555
C13 C5 1_555 1_555
H9 C13 1_555 1_555
C14 C1 1_555 1_555
H10 C14 1_555 1_555
Cl1 In1 1_555 1_555
Cl2 In1 1_555 1_555
Cl3 In2 1_555 1_555
In1 N2 1_555 1_555
In2 O2 1_555 1_555
N1 C6 1_555 1_555
N2 C3 1_555 1_555
N3 C2 1_555 1_555
O1 C11 1_555 1_555
O2 C11 1_555 1_555
C1C C14 1_555 1_555
H1C C1C 1_555 1_555
C2C N3 1_555 1_555
C11C C2C 1_555 1_555
O1C In1 1_555 1_555
O2C C11C 1_555 1_555
C3B H2B 1_555 1_555
C4B C3B 1_555 1_555
H3B C4B 1_555 1_555
C5B C4B 1_555 1_555
C6B H4B 1_555 1_555
C7B C6B 1_555 1_555
H5B C7B 1_555 1_555
C8B C5B 1_555 1_555
C9B C8B 1_555 1_555
H6B C9B 1_555 1_555
C10B C9B 1_555 1_555
H7B C10B 1_555 1_555
C12B H8B 1_555 1_555
C13B C5B 1_555 1_555
H9B C13B 1_555 1_555
N1B In2 1_555 1_555
N2B C3B 1_555 1_555
Cl3B In2 1_555 1_555
In1A N2B 1_555 1_555
In2_2 N1 1_555 1_555
In2A O2C 1_555 1_555
N1_2 In2 1_555 1_555
N2C In1 1_555 1_555
O2B In2 1_555 1_555
C7 C8 1_555 1_555
C10 N1 1_555 1_555
C12 C13 1_555 1_555
C12 N2 1_555 1_555
In1 N3 1_555 1_555
In1 O1 1_555 1_555
C1C C2C 1_555 1_555
C11C O1C 1_555 1_555
C6B N1B 1_555 1_555
C7B C8B 1_555 1_555
C10B N1B 1_555 1_555
C12B C13B 1_555 1_555
C12B N2B 1_555 1_555

#END
