
#######################################################################
#
#                 Cambridge Crystallographic Data Centre
#                                CCDC 
#
#######################################################################
#
# If this CIF has been generated from an entry in the Cambridge 
# Structural Database, then it will include bibliographic, chemical, 
# crystal, experimental, refinement or atomic coordinate data resulting 
# from the CCDC's data processing and validation procedures.
#
#######################################################################

data_HONREI
_symmetry_cell_setting           triclinic
_symmetry_space_group_name_H-M   'P -1'
_symmetry_Int_Tables_number      2
_space_group_name_Hall           '-P 1'
loop_
_symmetry_equiv_pos_site_id
_symmetry_equiv_pos_as_xyz
1 x,y,z
2 -x,-y,-z
_cell_length_a                   8.6238(17)
_cell_length_b                   9.5937(19)
_cell_length_c                   12.022(2)
_cell_angle_alpha                110.52(3)
_cell_angle_beta                 103.40(3)
_cell_angle_gamma                91.34(3)
_cell_volume                     900.166
loop_
_atom_site_label
_atom_site_type_symbol
_atom_site_fract_x
_atom_site_fract_y
_atom_site_fract_z
O3 O 1.1386(5) 0.5432(5) 0.9205(4)
H17 H 1.115(8) 0.608(5) 0.982(4)
H18 H 1.074(6) 0.466(4) 0.907(5)
C1 C 1.3512(6) 0.1072(5) 0.5506(5)
H1 H 1.3638 0.0339 0.4794
C2 C 1.4656(6) 0.2169(6) 0.6308(6)
H2 H 1.5699 0.2329 0.6254
C3 C 1.2479(5) 0.2377(4) 0.6915(4)
H3 H 1.1745 0.2736 0.7375
C4 C 1.4728(5) 0.4368(4) 0.8274(3)
H4 H 1.5552 0.4111 0.8846
H5 H 1.3923 0.4805 0.8695
C5 C 1.7121(5) 0.5793(5) 0.8204(4)
H6 H 1.7737 0.5280 0.8641
C6 C 1.7871(5) 0.6825(5) 0.7881(4)
H7 H 1.8984 0.7017 0.8113
C7 C 1.6976(6) 0.7563(5) 0.7221(4)
H8 H 1.7475 0.8252 0.6993
C8 C 1.5298(5) 0.7272(5) 0.6888(4)
H9 H 1.4690 0.7769 0.6432
C9 C 1.4532(5) 0.6267(4) 0.7224(4)
C10 C 1.2708(5) 0.6003(6) 0.6912(5)
H10 H 1.2373 0.4936 0.6620
H11 H 1.2351 0.6483 0.7650
C11 C 0.9501(5) 0.1431(4) 0.8188(3)
C12 C 0.9778(5) 0.0713(4) 0.9141(3)
C13 C 1.1215(6) 0.0125(4) 0.9435(4)
C14 C 1.2682(10) 0.0394(10) 0.9079(7)
H12 H 1.2624 0.0967 0.8590
C15 C 1.4148(12) -0.0127(13) 0.9402(10)
C16 C 0.8560(6) 0.0603(4) 0.9708(4)
C17 C 0.6937(10) 0.1106(9) 0.9321(8)
H13 H 0.6791 0.1572 0.8750
C18 C 1.5660(11) 0.0896(11) 0.9791(10)
C19 C 1.5466(5) 0.5511(4) 0.7885(3)
C20 C 1.1954(5) 0.6013(4) 0.4770(4)
H14 H 1.2327 0.5118 0.4374
C21 C 1.1308(5) 0.7883(4) 0.6164(3)
H15 H 1.1167 0.8507 0.6915
C22 C 1.1318(5) 0.6978(4) 0.4258(3)
H16 H 1.1181 0.6869 0.3440
N1 N 1.2145(4) 0.1197(3) 0.5894(3)
N2 N 1.3984(4) 0.3004(3) 0.7220(3)
N3 N 1.1948(4) 0.6590(3) 0.5974(3)
N4 N 1.0906(4) 0.8148(3) 0.5139(3)
O1 O 0.9541(4) 0.0638(3) 0.7132(3)
O2 O 0.9270(5) 0.2771(3) 0.8531(3)
Cu1 Cu 1.0000 0.0000 0.5000
C1_2 C 1.3512(6) -0.8928(5) 0.5506(5)
H1_2 H 1.3638 -0.9661 0.4794
C2_2 C 1.4656(6) -0.7831(6) 0.6308(6)
H2_2 H 1.5699 -0.7671 0.6254
C3_2 C 1.2479(5) -0.7623(4) 0.6915(4)
H3_2 H 1.1745 -0.7264 0.7375
C4_2 C 1.4728(5) -0.5632(4) 0.8274(3)
H4_2 H 1.5552 -0.5889 0.8846
H5_2 H 1.3923 -0.5195 0.8695
C5_2 C 1.7121(5) -0.4207(5) 0.8204(4)
H6_2 H 1.7737 -0.4720 0.8641
C6_2 C 1.7871(5) -0.3175(5) 0.7881(4)
H7_2 H 1.8984 -0.2983 0.8113
C7_2 C 1.6976(6) -0.2437(5) 0.7221(4)
H8_2 H 1.7475 -0.1748 0.6993
C8_2 C 1.5298(5) -0.2728(5) 0.6888(4)
H9_2 H 1.4690 -0.2231 0.6432
C9_2 C 1.4532(5) -0.3733(4) 0.7224(4)
C10_2 C 1.2708(5) -0.3997(6) 0.6912(5)
H10_2 H 1.2373 -0.5064 0.6620
H11_2 H 1.2351 -0.3517 0.7650
C11A C 1.0499(5) -0.1431(4) 0.1812(3)
C11A_2 C 1.0499(5) -0.1431(4) 1.1812(3)
C11A_3 C 0.0499(5) -0.1431(4) 0.1812(3)
C12A C 1.0222(5) -0.0713(4) 0.0859(3)
C12A_2 C 1.0222(5) -0.0713(4) 1.0859(3)
C12_2 C 0.9778(5) 0.0713(4) -0.0859(3)
C12A_3 C 0.0222(5) -0.0713(4) 0.0859(3)
C12_3 C -0.0222(5) 0.0713(4) -0.0859(3)
C13A C 0.8785(6) -0.0125(4) 1.0565(4)
C13A_2 C 0.8785(6) -0.0125(4) 0.0565(4)
C13_2 C 1.1215(6) 0.0125(4) -0.0565(4)
C13_3 C 0.1215(6) 0.0125(4) -0.0565(4)
C13A_3 C -0.1215(6) -0.0125(4) 0.0565(4)
C14A C 0.7318(10) -0.0394(10) 0.0921(7)
C14A_2 C 1.7318(10) -0.0394(10) 1.0921(7)
C14A_3 C 0.7318(10) -0.0394(10) 1.0921(7)
C14_2 C 0.2682(10) 0.0394(10) -0.0921(7)
C14_3 C 1.2682(10) 0.0394(10) -0.0921(7)
H12A H 0.7376 -0.0967 0.1410
H12A_2 H 1.7376 -0.0967 1.1410
H12A_3 H 0.7376 -0.0967 1.1410
H12_2 H 0.2624 0.0967 -0.1410
H12_3 H 1.2624 0.0967 -0.1410
C15A C 1.5852(12) 0.0127(13) 1.0598(10)
C15A_2 C 0.5852(12) 0.0127(13) 0.0598(10)
C15_2 C 0.4148(12) -0.0127(13) -0.0598(10)
C15_3 C 0.4148(12) -0.0127(13) 0.9402(10)
C15A_3 C 0.5852(12) 0.0127(13) 1.0598(10)
C15A_4 C 1.5852(12) 0.0127(13) 0.0598(10)
C15_4 C 1.4148(12) -0.0127(13) -0.0598(10)
C16A C 1.1440(6) -0.0603(4) 1.0292(4)
C16A_2 C 1.1440(6) -0.0603(4) 0.0292(4)
C16_2 C 0.8560(6) 0.0603(4) -0.0292(4)
C16_3 C 1.8560(6) 0.0603(4) 0.9708(4)
C16A_3 C 0.1440(6) -0.0603(4) 0.0292(4)
C17_2 C 1.6937(10) 0.1106(9) 0.9321(8)
C17A C 1.3063(10) -0.1106(9) 0.0679(8)
C17A_2 C 0.3063(10) -0.1106(9) 0.0679(8)
C17A_3 C 1.3063(10) -0.1106(9) 1.0679(8)
C17_3 C 0.6937(10) 0.1106(9) -0.0679(8)
H13A H 1.3209 -0.1572 0.1250
H13_2 H 1.6791 0.1572 0.8750
H13A_2 H 0.3209 -0.1572 0.1250
H13A_3 H 1.3209 -0.1572 1.1250
H13_3 H 0.6791 0.1572 -0.1250
C18A C 1.4340(11) -0.0896(11) 1.0209(10)
C18_2 C 0.5660(11) 0.0896(11) 0.9791(10)
C18A_2 C 0.4340(11) -0.0896(11) 0.0209(10)
C18_3 C 0.5660(11) 0.0896(11) -0.0209(10)
C18A_3 C 1.4340(11) -0.0896(11) 0.0209(10)
C19_2 C 1.5466(5) -0.4489(4) 0.7885(3)
C20_2 C 1.1954(5) -0.3987(4) 0.4770(4)
H14_2 H 1.2327 -0.4882 0.4374
C21_2 C 1.1308(5) -0.2117(4) 0.6164(3)
H15_2 H 1.1167 -0.1493 0.6915
C22_2 C 1.1318(5) -0.3022(4) 0.4258(3)
H16_2 H 1.1181 -0.3131 0.3440
N1_2 N 1.2145(4) -0.8803(3) 0.5894(3)
N1A N 0.7855(4) -0.1197(3) 0.4106(3)
N2_2 N 1.3984(4) -0.6996(3) 0.7220(3)
N3_2 N 1.1948(4) -0.3410(3) 0.5974(3)
N4_2 N 1.0906(4) -0.1852(3) 0.5139(3)
N4A N 0.9094(4) 0.1852(3) 0.4861(3)
O1A O 1.0459(4) -0.0638(3) 0.2868(3)
O1A_2 O 1.0459(4) -0.0638(3) 1.2868(3)
O2A O 1.0730(5) -0.2771(3) 0.1469(3)
O2A_2 O 1.0730(5) -0.2771(3) 1.1469(3)
Cu1_2 Cu 1.0000 1.0000 0.5000
Cu1_3 Cu 1.0000 -1.0000 0.5000
Cu1_4 Cu 1.0000 0.0000 1.5000
loop_
_geom_bond_atom_site_label_1
_geom_bond_atom_site_label_2
_geom_bond_site_symmetry_1
_geom_bond_site_symmetry_2
C1 H1 1_555 1_555
C2 C1 1_555 1_555
H2 C2 1_555 1_555
C3 H3 1_555 1_555
C4 H4 1_555 1_555
H5 C4 1_555 1_555
C5 H6 1_555 1_555
C6 C5 1_555 1_555
H7 C6 1_555 1_555
C7 C6 1_555 1_555
H8 C7 1_555 1_555
C8 C7 1_555 1_555
H9 C8 1_555 1_555
C9 C8 1_555 1_555
C10 C9 1_555 1_555
H10 C10 1_555 1_555
H11 C10 1_555 1_555
C11 C12 1_555 1_555
C12 C13 1_555 1_555
C13 C14 1_555 1_555
C14 H12 1_555 1_555
C15 C14 1_555 1_555
C16 C12 1_555 1_555
C17 C16 1_555 1_555
H13 C17 1_555 1_555
C18 C15 1_555 1_555
C19 C4 1_555 1_555
C20 H14 1_555 1_555
C21 H15 1_555 1_555
C22 C20 1_555 1_555
H16 C22 1_555 1_555
N1 C1 1_555 1_555
N2 C2 1_555 1_555
N3 C10 1_555 1_555
N4 C21 1_555 1_555
O1 C11 1_555 1_555
O2 C11 1_555 1_555
O3 H17 1_555 1_555
Cu1 N1 1_555 1_555
H18 O3 1_555 1_555
C1_2 H1_2 1_555 1_555
C2_2 C1_2 1_555 1_555
H2_2 C2_2 1_555 1_555
C3_2 H3_2 1_555 1_555
C4_2 H4_2 1_555 1_555
H5_2 C4_2 1_555 1_555
C5_2 H6_2 1_555 1_555
C6_2 C5_2 1_555 1_555
H7_2 C6_2 1_555 1_555
C7_2 C6_2 1_555 1_555
H8_2 C7_2 1_555 1_555
C8_2 C7_2 1_555 1_555
H9_2 C8_2 1_555 1_555
C9_2 C8_2 1_555 1_555
C10_2 C9_2 1_555 1_555
H10_2 C10_2 1_555 1_555
H11_2 C10_2 1_555 1_555
C11A C12A 1_555 1_555
C11A_2 C12A_2 1_555 1_555
C11A_3 C12A_3 1_555 1_555
C12A C13A_2 1_555 1_555
C12A_2 C13A 1_555 1_555
C12_2 C13_2 1_555 1_555
C12A_3 C13A_3 1_555 1_555
C12_3 C13_3 1_555 1_555
C13A C16 1_555 1_555
C13A_2 C14A 1_555 1_555
C13_2 C14_3 1_555 1_555
C13_3 C14_2 1_555 1_555
C14A H12A 1_555 1_555
C14A_2 H12A_2 1_555 1_555
C14A_3 C13A 1_555 1_555
C14_2 H12_2 1_555 1_555
C14_3 H12_3 1_555 1_555
H12A_3 C14A_3 1_555 1_555
C15A C15 1_555 1_555
C15A_2 C14A 1_555 1_555
C15_2 C14_2 1_555 1_555
C15_3 C15A_3 1_555 1_555
C15A_3 C14A_3 1_555 1_555
C15A_4 C15_4 1_555 1_555
C15_4 C14_3 1_555 1_555
C16A C13 1_555 1_555
C16A_2 C12A 1_555 1_555
C16_2 C12_2 1_555 1_555
C16_3 C17_2 1_555 1_555
C16A_3 C12A_3 1_555 1_555
C17_2 C18 1_555 1_555
C17A C16A_2 1_555 1_555
C17A_2 C16A_3 1_555 1_555
C17A_3 C16A 1_555 1_555
C17_3 C16_2 1_555 1_555
H13A C17A 1_555 1_555
H13_2 C17_2 1_555 1_555
H13A_2 C17A_2 1_555 1_555
H13A_3 C17A_3 1_555 1_555
H13_3 C17_3 1_555 1_555
C18A C15 1_555 1_555
C18_2 C17 1_555 1_555
C18A_2 C15A_2 1_555 1_555
C18_3 C15A_2 1_555 1_555
C18A_3 C15A_4 1_555 1_555
C19_2 C4_2 1_555 1_555
C20_2 H14_2 1_555 1_555
C21_2 H15_2 1_555 1_555
C22_2 C20_2 1_555 1_555
H16_2 C22_2 1_555 1_555
N1_2 C1_2 1_555 1_555
N1A Cu1 1_555 1_555
N2_2 C2_2 1_555 1_555
N3_2 C10_2 1_555 1_555
N4_2 Cu1 1_555 1_555
N4A Cu1 1_555 1_555
O1A Cu1 1_555 1_555
O1A_2 C11A_2 1_555 1_555
O2A C11A 1_555 1_555
O2A_2 C11A_2 1_555 1_555
Cu1_2 N4 1_555 1_555
Cu1_3 N1_2 1_555 1_555
Cu1_4 O1A_2 1_555 1_555
C3 N1 1_555 1_555
C3 N2 1_555 1_555
C4 N2 1_555 1_555
C5 C19 1_555 1_555
C9 C19 1_555 1_555
C18 C15A 1_555 1_555
C20 N3 1_555 1_555
C21 N3 1_555 1_555
C22 N4 1_555 1_555
O1 Cu1 1_555 1_555
C3_2 N1_2 1_555 1_555
C3_2 N2_2 1_555 1_555
C4_2 N2_2 1_555 1_555
C5_2 C19_2 1_555 1_555
C9_2 C19_2 1_555 1_555
C11A O1A 1_555 1_555
C12A_2 C16A 1_555 1_555
C13A_2 C16_2 1_555 1_555
C13_2 C16A_2 1_555 1_555
C13_3 C16A_3 1_555 1_555
C14A_2 C15A 1_555 1_555
C15A C18A 1_555 1_555
C15A_2 C15_2 1_555 1_555
C15_2 C18A_2 1_555 1_555
C15_2 C18_3 1_555 1_555
C15_3 C18_2 1_555 1_555
C15A_3 C18_2 1_555 1_555
C15_4 C18A_3 1_555 1_555
C17A C18A_3 1_555 1_555
C17A_2 C18A_2 1_555 1_555
C17A_3 C18A 1_555 1_555
C17_3 C18_3 1_555 1_555
C20_2 N3_2 1_555 1_555
C21_2 N3_2 1_555 1_555
C21_2 N4_2 1_555 1_555
C22_2 N4_2 1_555 1_555

#END
