
#######################################################################
#
#                 Cambridge Crystallographic Data Centre
#                                CCDC 
#
#######################################################################
#
# If this CIF has been generated from an entry in the Cambridge 
# Structural Database, then it will include bibliographic, chemical, 
# crystal, experimental, refinement or atomic coordinate data resulting 
# from the CCDC's data processing and validation procedures.
#
#######################################################################

data_HONROS
_symmetry_cell_setting           triclinic
_symmetry_space_group_name_H-M   'P -1'
_symmetry_Int_Tables_number      2
_space_group_name_Hall           '-P 1'
loop_
_symmetry_equiv_pos_site_id
_symmetry_equiv_pos_as_xyz
1 x,y,z
2 -x,-y,-z
_cell_length_a                   8.5953(17)
_cell_length_b                   9.2493(18)
_cell_length_c                   13.537(3)
_cell_angle_alpha                93.47(3)
_cell_angle_beta                 103.54(3)
_cell_angle_gamma                95.16(3)
_cell_volume                     1038.34
loop_
_atom_site_label
_atom_site_type_symbol
_atom_site_fract_x
_atom_site_fract_y
_atom_site_fract_z
C1 C 1.4457(4) 0.2359(3) 0.3330(2)
C2 C 1.3480(4) 0.2780(4) 0.2311(2)
H1 H 1.2458 0.3054 0.2406
H2 H 1.4051 0.3633 0.2123
C3 C 1.3149(4) 0.1608(4) 0.1436(2)
H3 H 1.2680 0.0720 0.1645
H4 H 1.2366 0.1909 0.0867
C4 C 1.4628(4) 0.1293(3) 0.1085(2)
H5 H 1.5414 0.0996 0.1655
H6 H 1.5095 0.2179 0.0872
C5 C 1.4293(4) 0.0117(3) 0.0215(2)
H7 H 1.3924 -0.0791 0.0452
H8 H 1.3427 0.0370 -0.0325
O1 O 1.4457(3) 0.1048(3) 0.35122(16)
O2 O 1.5208(3) 0.3384(3) 0.39473(17)
C1A C 1.5543(4) -0.2359(3) -0.3330(2)
C2A C 1.6520(4) -0.2780(4) -0.2311(2)
H1A H 1.7542 -0.3054 -0.2406
H2A H 1.5949 -0.3633 -0.2123
C3A C 1.6851(4) -0.1608(4) -0.1436(2)
H3A H 1.7320 -0.0720 -0.1645
H4A H 1.7634 -0.1909 -0.0867
C4A C 1.5372(4) -0.1293(3) -0.1085(2)
H5A H 1.4586 -0.0996 -0.1655
H6A H 1.4905 -0.2179 -0.0872
C5A C 1.5707(4) -0.0117(3) -0.0215(2)
H7A H 1.6076 0.0791 -0.0452
H8A H 1.6573 -0.0370 0.0325
O1A O 1.5543(3) -0.1048(3) -0.35122(16)
O2A O 1.4792(3) -0.3384(3) -0.39473(17)
C6 C 1.1459(4) 0.2985(3) 0.4573(2)
H9 H 1.2508 0.2851 0.4901
C7 C 1.1011(4) 0.4159(3) 0.4079(2)
H10 H 1.1678 0.4971 0.4002
C8 C 0.8906(3) 0.2619(3) 0.3996(2)
H11 H 0.7843 0.2201 0.3841
C9 C 0.8365(4) 0.4847(3) 0.3072(2)
H12 H 0.8802 0.5856 0.3263
H13 H 0.7298 0.4732 0.3198
C10 C 0.8228(3) 0.4509(3) 0.1940(2)
C11 C 0.8879(4) 0.3338(3) 0.1583(3)
H14 H 0.9429 0.2743 0.2043
C12 C 0.8730(4) 0.3033(4) 0.0560(3)
H15 H 0.9198 0.2247 0.0337
C13 C 0.7904(5) 0.3869(4) -0.0137(3)
H16 H 0.7788 0.3647 -0.0831
C14 C 0.7244(4) 0.5048(4) 0.0206(2)
H17 H 0.6687 0.5628 -0.0263
C15 C 0.7398(3) 0.5383(3) 0.1235(2)
C16 C 0.6660(4) 0.6693(3) 0.1555(2)
H18 H 0.6100 0.7120 0.0954
H19 H 0.5878 0.6392 0.1936
N1 N 0.9384(3) 0.3916(2) 0.37144(18)
N2 N 1.0122(3) 0.2016(2) 0.45163(16)
O3 O 1.2959(3) -0.0052(3) 0.50349(19)
Cu1 Cu 1.0000 0.0000 0.5000
N3 N 0.7892(3) 0.7788(2) 0.21888(17)
C17 C 0.7870(3) 0.8388(3) 0.3106(2)
H20 H 0.6999 0.8263 0.3402
C18 C 0.9351(4) 0.8242(4) 0.2022(2)
H21 H 0.9717 0.8010 0.1444
N4 N 0.9239(3) 0.9180(2) 0.35402(17)
C19 C 1.0167(4) 0.9098(4) 0.2864(2)
H22 H 1.1205 0.9558 0.2962
H23 H 1.366(4) -0.050(4) 0.538(3)
H24 H 1.345(5) 0.025(5) 0.461(3)
C6_2 C 1.1459(4) -0.7015(3) 0.4573(2)
H9_2 H 1.2508 -0.7149 0.4901
C7_2 C 1.1011(4) -0.5841(3) 0.4079(2)
H10_2 H 1.1678 -0.5029 0.4002
C8_2 C 0.8906(3) -0.7381(3) 0.3996(2)
H11_2 H 0.7843 -0.7799 0.3841
C9_2 C 0.8365(4) -0.5153(3) 0.3072(2)
H12_2 H 0.8802 -0.4144 0.3263
H13_2 H 0.7298 -0.5268 0.3198
C10_2 C 0.8228(3) -0.5491(3) 0.1940(2)
C11_2 C 0.8879(4) -0.6662(3) 0.1583(3)
H14_2 H 0.9429 -0.7257 0.2043
C12_2 C 0.8730(4) -0.6967(4) 0.0560(3)
H15_2 H 0.9198 -0.7753 0.0337
C13_2 C 0.7904(5) -0.6131(4) -0.0137(3)
H16_2 H 0.7788 -0.6353 -0.0831
C14_2 C 0.7244(4) -0.4952(4) 0.0206(2)
H17_2 H 0.6687 -0.4372 -0.0263
C15_2 C 0.7398(3) -0.4617(3) 0.1235(2)
C16_2 C 0.6660(4) -0.3307(3) 0.1555(2)
H18_2 H 0.6100 -0.2880 0.0954
H19_2 H 0.5878 -0.3608 0.1936
N1_2 N 0.9384(3) -0.6084(2) 0.37144(18)
N2_2 N 1.0122(3) -0.7984(2) 0.45163(16)
N2A N 0.9878(3) -0.2016(2) 0.54837(16)
O3A O 0.7041(3) 0.0052(3) 0.49651(19)
Cu1_2 Cu 1.0000 1.0000 0.5000
Cu1_3 Cu 1.0000 -1.0000 0.5000
N3_2 N 0.7892(3) -0.2212(2) 0.21888(17)
C17_2 C 0.7870(3) -0.1612(3) 0.3106(2)
H20_2 H 0.6999 -0.1737 0.3402
C18_2 C 0.9351(4) -0.1758(4) 0.2022(2)
H21_2 H 0.9717 -0.1990 0.1444
N4_2 N 0.9239(3) -0.0820(2) 0.35402(17)
N4A N 1.0761(3) 0.0820(2) 0.64598(17)
C19_2 C 1.0167(4) -0.0902(4) 0.2864(2)
H22_2 H 1.1205 -0.0442 0.2962
H23A H 0.634(4) 0.050(4) 0.462(3)
H24A H 0.655(5) -0.025(5) 0.539(3)
O4 O 1.4503(4) 0.6279(3) 0.3959(2)
H25 H 1.462(6) 0.637(5) 0.4595(16)
H26 H 1.473(5) 0.542(3) 0.391(3)
O5 O 1.3774(4) -0.1834(4) 0.2420(2)
H27 H 1.423(6) -0.104(4) 0.277(4)
H28 H 1.371(7) -0.243(5) 0.289(3)
loop_
_geom_bond_atom_site_label_1
_geom_bond_atom_site_label_2
_geom_bond_site_symmetry_1
_geom_bond_site_symmetry_2
C1 C2 1_555 1_555
C2 H1 1_555 1_555
H2 C2 1_555 1_555
C3 C2 1_555 1_555
H3 C3 1_555 1_555
H4 C3 1_555 1_555
C4 C3 1_555 1_555
H5 C4 1_555 1_555
H6 C4 1_555 1_555
C5 C4 1_555 1_555
H7 C5 1_555 1_555
H8 C5 1_555 1_555
C6 H9 1_555 1_555
C7 C6 1_555 1_555
H10 C7 1_555 1_555
C8 H11 1_555 1_555
C9 H12 1_555 1_555
H13 C9 1_555 1_555
C10 C9 1_555 1_555
C11 C10 1_555 1_555
H14 C11 1_555 1_555
C12 C11 1_555 1_555
H15 C12 1_555 1_555
C13 C12 1_555 1_555
H16 C13 1_555 1_555
C14 C13 1_555 1_555
H17 C14 1_555 1_555
C15 C10 1_555 1_555
C16 C15 1_555 1_555
H18 C16 1_555 1_555
H19 C16 1_555 1_555
N1 C7 1_555 1_555
N2 C6 1_555 1_555
O1 C1 1_555 1_555
O2 C1 1_555 1_555
O3 Cu1 1_555 1_555
O4 H25 1_555 1_555
O5 H27 1_555 1_555
Cu1 N2 1_555 1_555
N3 C16 1_555 1_555
C17 N3 1_555 1_555
H20 C17 1_555 1_555
C18 N3 1_555 1_555
H21 C18 1_555 1_555
N4 C17 1_555 1_555
C19 C18 1_555 1_555
H22 C19 1_555 1_555
H23 O3 1_555 1_555
H24 O3 1_555 1_555
H26 O4 1_555 1_555
H28 O5 1_555 1_555
C1A C2A 1_555 1_555
C2A H1A 1_555 1_555
H2A C2A 1_555 1_555
C3A C2A 1_555 1_555
H3A C3A 1_555 1_555
H4A C3A 1_555 1_555
C4A C3A 1_555 1_555
H5A C4A 1_555 1_555
H6A C4A 1_555 1_555
C5A C5 1_555 1_555
H7A C5A 1_555 1_555
H8A C5A 1_555 1_555
C6_2 H9_2 1_555 1_555
C7_2 C6_2 1_555 1_555
H10_2 C7_2 1_555 1_555
C8_2 H11_2 1_555 1_555
C9_2 H12_2 1_555 1_555
H13_2 C9_2 1_555 1_555
C10_2 C9_2 1_555 1_555
C11_2 C10_2 1_555 1_555
H14_2 C11_2 1_555 1_555
C12_2 C11_2 1_555 1_555
H15_2 C12_2 1_555 1_555
C13_2 C12_2 1_555 1_555
H16_2 C13_2 1_555 1_555
C14_2 C13_2 1_555 1_555
H17_2 C14_2 1_555 1_555
C15_2 C10_2 1_555 1_555
C16_2 C15_2 1_555 1_555
H18_2 C16_2 1_555 1_555
H19_2 C16_2 1_555 1_555
N1_2 C7_2 1_555 1_555
N2_2 C6_2 1_555 1_555
N2A Cu1 1_555 1_555
O1A C1A 1_555 1_555
O2A C1A 1_555 1_555
O3A Cu1 1_555 1_555
Cu1_2 N4 1_555 1_555
Cu1_3 N2_2 1_555 1_555
N3_2 C16_2 1_555 1_555
C17_2 N3_2 1_555 1_555
H20_2 C17_2 1_555 1_555
C18_2 N3_2 1_555 1_555
H21_2 C18_2 1_555 1_555
N4_2 Cu1 1_555 1_555
N4A Cu1 1_555 1_555
C19_2 C18_2 1_555 1_555
H22_2 C19_2 1_555 1_555
H23A O3A 1_555 1_555
H24A O3A 1_555 1_555
C8 N1 1_555 1_555
C8 N2 1_555 1_555
C9 N1 1_555 1_555
C14 C15 1_555 1_555
N4 C19 1_555 1_555
C4A C5A 1_555 1_555
C8_2 N1_2 1_555 1_555
C8_2 N2_2 1_555 1_555
C9_2 N1_2 1_555 1_555
C14_2 C15_2 1_555 1_555
C17_2 N4_2 1_555 1_555
N4_2 C19_2 1_555 1_555

#END
