
#######################################################################
#
#                 Cambridge Crystallographic Data Centre
#                                CCDC 
#
#######################################################################
#
# If this CIF has been generated from an entry in the Cambridge 
# Structural Database, then it will include bibliographic, chemical, 
# crystal, experimental, refinement or atomic coordinate data resulting 
# from the CCDC's data processing and validation procedures.
#
#######################################################################

data_HONRIM
_symmetry_cell_setting           monoclinic
_symmetry_space_group_name_H-M   'P 21/c'
_symmetry_Int_Tables_number      14
_space_group_name_Hall           '-P 2ybc'
loop_
_symmetry_equiv_pos_site_id
_symmetry_equiv_pos_as_xyz
1 x,y,z
2 -x,1/2+y,1/2-z
3 -x,-y,-z
4 x,1/2-y,1/2+z
_cell_length_a                   13.915(3)
_cell_length_b                   9.6531(19)
_cell_length_c                   17.322(4)
_cell_angle_alpha                90
_cell_angle_beta                 96.56(3)
_cell_angle_gamma                90
_cell_volume                     2311.51
loop_
_atom_site_label
_atom_site_type_symbol
_atom_site_fract_x
_atom_site_fract_y
_atom_site_fract_z
Cu1 Cu 0.18611(5) 0.04320(6) 0.39177(4)
O1 O -0.0854(3) 0.1663(3) 0.4196(2)
O2 O 0.1624(3) 0.1960(4) 0.5227(2)
O3 O -0.1414(3) 0.3281(4) 0.3355(2)
O4 O 0.1206(2) 0.2300(3) 0.39659(19)
O5 O 0.1393(3) 0.0587(4) 0.2580(2)
N1 N 0.3223(3) -0.3398(4) 0.4228(2)
N2 N 0.2570(3) -0.1339(4) 0.4235(3)
N3 N 0.3139(3) -0.8712(4) 0.3742(2)
C1 C 0.1166(4) 0.2588(5) 0.4679(3)
N4 N 0.4163(3) -0.7388(4) 0.3222(3)
C2 C 0.3653(4) -0.4618(6) 0.3922(3)
H1 H 0.3278 -0.4878 0.3437
H2 H 0.3618 -0.5376 0.4285
C3 C -0.0419(4) 0.3989(5) 0.4481(3)
C4 C 0.0537(4) 0.3822(5) 0.4847(3)
C5 C 0.5100(4) -0.5212(5) 0.3232(3)
C6 C 0.4691(3) -0.4417(5) 0.3780(3)
C7 C -0.0929(4) 0.5168(5) 0.4641(3)
H3 H -0.1554 0.5286 0.4396
C8 C 0.2839(4) -0.2351(5) 0.3803(3)
H4 H 0.2770 -0.2336 0.3263
C9 C 0.4545(4) -0.6289(5) 0.2749(3)
H5 H 0.4011 -0.5850 0.2432
H6 H 0.4964 -0.6704 0.2402
C10 C -0.0930(4) 0.2889(5) 0.3967(3)
C11 C 0.3198(4) -0.3052(6) 0.4986(3)
H7 H 0.3416 -0.3583 0.5419
C12 C 0.4690(4) -0.8280(6) 0.3708(3)
H8 H 0.5361 -0.8322 0.3804
C13 C 0.6039(4) -0.4957(5) 0.3106(3)
H9 H 0.6314 -0.5463 0.2730
C14 C 0.5251(4) -0.3432(6) 0.4202(3)
H10 H 0.4981 -0.2912 0.4575
C15 C 0.6193(4) -0.3207(6) 0.4084(3)
H11 H 0.6562 -0.2550 0.4377
C16 C 0.6584(4) -0.3955(6) 0.3530(3)
H12 H 0.7220 -0.3794 0.3436
C17 C 0.4057(4) -0.9085(6) 0.4021(3)
H13 H 0.4218 -0.9794 0.4377
C18 C 0.3252(4) -0.7699(5) 0.3265(3)
H14 H 0.2739 -0.7241 0.2982
C19 C 0.2793(4) -0.1776(6) 0.4982(3)
H15 H 0.2683 -0.1275 0.5422
O10 O 0.0635(3) -0.0489(5) 0.4100(3)
H16 H 0.074(5) -0.087(7) 0.457(2)
H17 H 0.054(5) -0.124(4) 0.382(3)
H18 H 0.134(4) -0.010(5) 0.225(3)
H19 H 0.2015(17) 0.073(6) 0.2682(11)
Cu1B Cu -0.18611(5) 0.95680(6) 0.60823(4)
Cu1_2 Cu 0.18611(5) -0.95680(6) 0.39177(4)
Cu1_3 Cu 0.18611(5) 1.04320(6) 0.39177(4)
O1B O 0.0854(3) 0.8337(3) 0.5804(2)
O2B O -0.1624(3) 0.8040(4) 0.4773(2)
O3B O 0.1414(3) 0.6719(4) 0.6645(2)
O4B O -0.1206(2) 0.7700(3) 0.60341(19)
O5B O -0.1393(3) 0.9413(4) 0.7420(2)
N1_2 N 0.3223(3) 0.6602(4) 0.4228(2)
N2_2 N 0.2570(3) 0.8661(4) 0.4235(3)
N2B N -0.2570(3) 1.1339(4) 0.5765(3)
N3_2 N 0.3139(3) 0.1288(4) 0.3742(2)
N3B N -0.3139(3) 0.8712(4) 0.6258(2)
C1B C -0.1166(4) 0.7412(5) 0.5321(3)
N4_2 N 0.4163(3) 0.2612(4) 0.3222(3)
C2_2 C 0.3653(4) 0.5382(6) 0.3922(3)
H1_2 H 0.3278 0.5122 0.3437
H2_2 H 0.3618 0.4624 0.4285
C3B C 0.0419(4) 0.6011(5) 0.5519(3)
C4B C -0.0537(4) 0.6178(5) 0.5153(3)
C5_2 C 0.5100(4) 0.4788(5) 0.3232(3)
C6_2 C 0.4691(3) 0.5583(5) 0.3780(3)
C7B C 0.0929(4) 0.4832(5) 0.5359(3)
H3B H 0.1554 0.4714 0.5604
C8_2 C 0.2839(4) 0.7649(5) 0.3803(3)
H4_2 H 0.2770 0.7664 0.3263
C9_2 C 0.4545(4) 0.3711(5) 0.2749(3)
H5_2 H 0.4011 0.4150 0.2432
H6_2 H 0.4964 0.3296 0.2402
C10B C 0.0930(4) 0.7111(5) 0.6033(3)
C11_2 C 0.3198(4) 0.6948(6) 0.4986(3)
H7_2 H 0.3416 0.6417 0.5419
C12_2 C 0.4690(4) 0.1720(6) 0.3708(3)
H8_2 H 0.5361 0.1678 0.3804
C13_2 C 0.6039(4) 0.5043(5) 0.3106(3)
H9_2 H 0.6314 0.4537 0.2730
C14_2 C 0.5251(4) 0.6568(6) 0.4202(3)
H10_2 H 0.4981 0.7088 0.4575
C15_2 C 0.6193(4) 0.6793(6) 0.4084(3)
H11_2 H 0.6562 0.7450 0.4377
C16_2 C 0.6584(4) 0.6045(6) 0.3530(3)
H12_2 H 0.7220 0.6206 0.3436
C17_2 C 0.4057(4) 0.0915(6) 0.4021(3)
H13_2 H 0.4218 0.0206 0.4377
C18_2 C 0.3252(4) 0.2301(5) 0.3265(3)
H14_2 H 0.2739 0.2759 0.2982
C19_2 C 0.2793(4) 0.8224(6) 0.4982(3)
H15_2 H 0.2683 0.8725 0.5422
O10B O -0.0635(3) 1.0489(5) 0.5900(3)
H16B H -0.074(5) 1.087(7) 0.543(2)
H17B H -0.054(5) 1.124(4) 0.618(3)
H18B H -0.134(4) 1.010(5) 0.775(3)
H19B H -0.2015(17) 0.927(6) 0.7318(11)
O6 O 0.1859(3) 0.0485(5) 0.6568(3)
H26 H 0.240(2) 0.014(5) 0.652(2)
H27 H 0.185(4) 0.134(3) 0.644(4)
O7 O -0.0348(3) 0.2134(4) 0.2113(3)
H22 H -0.071(3) 0.141(4) 0.200(4)
H23 H 0.0230(19) 0.187(6) 0.226(4)
O8 O -0.3150(3) 0.1755(5) 0.3007(3)
H24 H -0.274(3) 0.119(3) 0.319(3)
H25 H -0.3120(17) 0.240(4) 0.331(3)
O9 O 0.1350(4) 0.4687(5) 0.3057(3)
H20 H 0.147(5) 0.442(6) 0.2603(17)
H21 H 0.138(5) 0.401(5) 0.337(3)
loop_
_geom_bond_atom_site_label_1
_geom_bond_atom_site_label_2
_geom_bond_site_symmetry_1
_geom_bond_site_symmetry_2
Cu1 O4 1_555 1_555
O1 C10 1_555 1_555
O2 C1 1_555 1_555
O3 C10 1_555 1_555
O4 C1 1_555 1_555
O5 Cu1 1_555 1_555
N1 C2 1_555 1_555
N2 Cu1 1_555 1_555
N3 C17 1_555 1_555
C1 C4 1_555 1_555
N4 C9 1_555 1_555
C2 H1 1_555 1_555
H2 C2 1_555 1_555
C3 C4 1_555 1_555
C4 C7B 1_555 1_555
C5 C6 1_555 1_555
C6 C2 1_555 1_555
C7 C3 1_555 1_555
H3 C7 1_555 1_555
C8 N1 1_555 1_555
H4 C8 1_555 1_555
C9 C5 1_555 1_555
H5 C9 1_555 1_555
H6 C9 1_555 1_555
C10 C3 1_555 1_555
C11 N1 1_555 1_555
H7 C11 1_555 1_555
C12 N4 1_555 1_555
H8 C12 1_555 1_555
C13 C5 1_555 1_555
H9 C13 1_555 1_555
C14 C6 1_555 1_555
H10 C14 1_555 1_555
C15 C14 1_555 1_555
H11 C15 1_555 1_555
C16 C13 1_555 1_555
H12 C16 1_555 1_555
C17 C12 1_555 1_555
H13 C17 1_555 1_555
C18 N3 1_555 1_555
H14 C18 1_555 1_555
C19 N2 1_555 1_555
H15 C19 1_555 1_555
O6 H26 1_555 1_555
O7 H22 1_555 1_555
O8 H24 1_555 1_555
O9 H20 1_555 1_555
O10 Cu1 1_555 1_555
H16 O10 1_555 1_555
H17 O10 1_555 1_555
H18 O5 1_555 1_555
H19 O5 1_555 1_555
H21 O9 1_555 1_555
H23 O7 1_555 1_555
H25 O8 1_555 1_555
H27 O6 1_555 1_555
Cu1B O4B 1_555 1_555
Cu1_2 N3 1_555 1_555
Cu1_3 N2_2 1_555 1_555
O1B C10B 1_555 1_555
O2B C1B 1_555 1_555
O3B C10B 1_555 1_555
O4B C1B 1_555 1_555
O5B Cu1B 1_555 1_555
N1_2 C2_2 1_555 1_555
N2_2 C8_2 1_555 1_555
N2B Cu1B 1_555 1_555
N3_2 Cu1 1_555 1_555
N3B Cu1B 1_555 1_555
C1B C4B 1_555 1_555
N4_2 C9_2 1_555 1_555
C2_2 H1_2 1_555 1_555
H2_2 C2_2 1_555 1_555
C3B C4B 1_555 1_555
C4B C7 1_555 1_555
C5_2 C6_2 1_555 1_555
C6_2 C2_2 1_555 1_555
C7B C3B 1_555 1_555
H3B C7B 1_555 1_555
C8_2 N1_2 1_555 1_555
H4_2 C8_2 1_555 1_555
C9_2 C5_2 1_555 1_555
H5_2 C9_2 1_555 1_555
H6_2 C9_2 1_555 1_555
C10B C3B 1_555 1_555
C11_2 N1_2 1_555 1_555
H7_2 C11_2 1_555 1_555
C12_2 N4_2 1_555 1_555
H8_2 C12_2 1_555 1_555
C13_2 C5_2 1_555 1_555
H9_2 C13_2 1_555 1_555
C14_2 C6_2 1_555 1_555
H10_2 C14_2 1_555 1_555
C15_2 C14_2 1_555 1_555
H11_2 C15_2 1_555 1_555
C16_2 C13_2 1_555 1_555
H12_2 C16_2 1_555 1_555
C17_2 N3_2 1_555 1_555
H13_2 C17_2 1_555 1_555
C18_2 N3_2 1_555 1_555
H14_2 C18_2 1_555 1_555
C19_2 N2_2 1_555 1_555
H15_2 C19_2 1_555 1_555
O10B Cu1B 1_555 1_555
H16B O10B 1_555 1_555
H17B O10B 1_555 1_555
H18B O5B 1_555 1_555
H19B O5B 1_555 1_555
N2 C8 1_555 1_555
N4 C18 1_555 1_555
C11 C19 1_555 1_555
C15 C16 1_555 1_555
N4_2 C18_2 1_555 1_555
C11_2 C19_2 1_555 1_555
C12_2 C17_2 1_555 1_555
C15_2 C16_2 1_555 1_555

#END
