
#######################################################################
#
#                 Cambridge Crystallographic Data Centre
#                                CCDC 
#
#######################################################################
#
# If this CIF has been generated from an entry in the Cambridge 
# Structural Database, then it will include bibliographic, chemical, 
# crystal, experimental, refinement or atomic coordinate data resulting 
# from the CCDC's data processing and validation procedures.
#
#######################################################################

data_HONSAF
_symmetry_cell_setting           monoclinic
_symmetry_space_group_name_H-M   'P 21/n'
_symmetry_Int_Tables_number      14
_space_group_name_Hall           '-P 2yn'
loop_
_symmetry_equiv_pos_site_id
_symmetry_equiv_pos_as_xyz
1 x,y,z
2 1/2-x,1/2+y,1/2-z
3 -x,-y,-z
4 1/2+x,1/2-y,1/2+z
_cell_length_a                   9.0079(18)
_cell_length_b                   15.629(3)
_cell_length_c                   14.264(3)
_cell_angle_alpha                90
_cell_angle_beta                 106.02(3)
_cell_angle_gamma                90
_cell_volume                     1930.16
loop_
_atom_site_label
_atom_site_type_symbol
_atom_site_fract_x
_atom_site_fract_y
_atom_site_fract_z
C1 C 0.5934(11) 0.6761(6) 0.1438(8)
H1 H 0.5349 0.6582 0.1846
C2 C 0.7327(13) 0.6779(7) 0.0518(8)
H2 H 0.7940 0.6591 0.0130
C3 C 0.7030(12) 0.7601(7) 0.0622(9)
H3 H 0.7371 0.8078 0.0351
C4 C 0.5372(10) 0.8319(6) 0.1556(8)
H4 H 0.5122 0.8745 0.1042
H5 H 0.6090 0.8573 0.2123
C5 C 0.3936(10) 0.8054(6) 0.1808(7)
C6 C 0.4044(15) 0.7803(7) 0.2721(10)
H6 H 0.4975 0.7869 0.3200
C7 C 0.276(2) 0.7436(12) 0.2971(13)
H7 H 0.2837 0.7218 0.3590
C8 C 0.144(2) 0.7423(11) 0.2274(16)
H8 H 0.0579 0.7208 0.2435
C9 C 0.1231(12) 0.7703(8) 0.1316(12)
H9 H 0.0270 0.7682 0.0858
C10 C 0.2500(11) 0.8007(6) 0.1087(8)
C11 C 0.2353(12) 0.8285(7) 0.0049(8)
H10 H 0.1287 0.8431 -0.0273
H11 H 0.2983 0.8788 0.0049
C12 C 0.2688(12) 0.6717(6) -0.0350(8)
H12 H 0.2250 0.6490 0.0115
C13 C 0.3550(13) 0.7672(7) -0.1231(9)
H13 H 0.3800 0.8183 -0.1485
C14 C 0.3780(13) 0.6866(7) -0.1509(9)
H14 H 0.4245 0.6726 -0.1996
C15 C -0.0133(9) 0.5085(8) 0.1829(9)
C16 C 0.1497(11) 0.5096(9) 0.2013(11)
H15 H 0.2074 0.5200 0.2652
C17 C 0.2257(14) 0.4976(9) 0.1377(13)
H16 H 0.1709 0.4890 0.0729
C18 C 0.4095(13) 0.4970(11) 0.1659(10)
N1 N 0.6669(8) 0.6241(5) 0.1019(6)
N2 N 0.6097(9) 0.7567(5) 0.1230(6)
N3 N 0.3212(9) 0.6271(4) -0.0954(6)
N4 N 0.2873(10) 0.7567(6) -0.0495(7)
O1 O -0.1093(5) 0.4981(5) 0.1016(4)
O2 O -0.0476(9) 0.5255(5) 0.2609(6)
O3 O 0.4432(5) 0.4976(5) 0.0866(4)
O4 O 0.4998(12) 0.4962(9) 0.2448(6)
Cu1 Cu 0.66979(8) 0.49847(8) 0.09912(6)
N3B N 0.6788(9) 0.3729(4) 0.0954(6)
O1_2 O 0.8907(5) 0.4981(5) 0.1016(4)
Cu1B Cu 0.33021(8) 0.50153(8) -0.09912(6)
Cu1_2 Cu -0.33021(8) 0.49847(8) 0.09912(6)
O5 O -0.0926(13) 0.4552(5) -0.4496(7)
H17 H -0.100(17) 0.463(6) -0.391(5)
H18 H -0.057(14) 0.501(5) -0.468(2)
O6 O 0.4073(16) 0.5434(8) -0.4532(9)
H19 H 0.473(14) 0.499(6) -0.443(11)
H20 H 0.396(18) 0.553(10) -0.517(3)
loop_
_geom_bond_atom_site_label_1
_geom_bond_atom_site_label_2
_geom_bond_site_symmetry_1
_geom_bond_site_symmetry_2
C1 H1 1_555 1_555
C2 H2 1_555 1_555
C3 C2 1_555 1_555
H3 C3 1_555 1_555
C4 H4 1_555 1_555
H5 C4 1_555 1_555
C5 C4 1_555 1_555
C6 C5 1_555 1_555
H6 C6 1_555 1_555
C7 C6 1_555 1_555
H7 C7 1_555 1_555
C8 C7 1_555 1_555
H8 C8 1_555 1_555
C9 C8 1_555 1_555
H9 C9 1_555 1_555
C10 C5 1_555 1_555
C11 C10 1_555 1_555
H10 C11 1_555 1_555
H11 C11 1_555 1_555
C12 H12 1_555 1_555
C13 H13 1_555 1_555
C14 C13 1_555 1_555
H14 C14 1_555 1_555
C15 C16 1_555 1_555
C16 H15 1_555 1_555
C17 C16 1_555 1_555
H16 C17 1_555 1_555
C18 C17 1_555 1_555
N1 C1 1_555 1_555
N2 C1 1_555 1_555
N3 C12 1_555 1_555
N4 C11 1_555 1_555
O1 C15 1_555 1_555
O2 C15 1_555 1_555
O3 C18 1_555 1_555
O4 C18 1_555 1_555
O5 H17 1_555 1_555
O6 H19 1_555 1_555
Cu1 N1 1_555 1_555
H18 O5 1_555 1_555
H20 O6 1_555 1_555
N3B Cu1 1_555 1_555
O1_2 Cu1 1_555 1_555
Cu1B N3 1_555 1_555
Cu1_2 O1 1_555 1_555
C2 N1 1_555 1_555
C3 N2 1_555 1_555
C4 N2 1_555 1_555
C9 C10 1_555 1_555
C12 N4 1_555 1_555
C13 N4 1_555 1_555
C14 N3 1_555 1_555
O3 Cu1 1_555 1_555

#END
