
#######################################################################
#
#                 Cambridge Crystallographic Data Centre
#                                CCDC 
#
#######################################################################
#
# If this CIF has been generated from an entry in the Cambridge 
# Structural Database, then it will include bibliographic, chemical, 
# crystal, experimental, refinement or atomic coordinate data resulting 
# from the CCDC's data processing and validation procedures.
#
#######################################################################

data_HONSEJ
_symmetry_cell_setting           monoclinic
_symmetry_space_group_name_H-M   'P 21/n'
_symmetry_Int_Tables_number      14
_space_group_name_Hall           '-P 2yn'
loop_
_symmetry_equiv_pos_site_id
_symmetry_equiv_pos_as_xyz
1 x,y,z
2 1/2-x,1/2+y,1/2-z
3 -x,-y,-z
4 1/2+x,1/2-y,1/2+z
_cell_length_a                   10.081(2)
_cell_length_b                   15.983(3)
_cell_length_c                   13.270(3)
_cell_angle_alpha                90
_cell_angle_beta                 108.60(3)
_cell_angle_gamma                90
_cell_volume                     2026.45
loop_
_atom_site_label
_atom_site_type_symbol
_atom_site_fract_x
_atom_site_fract_y
_atom_site_fract_z
C1 C 0.7570(2) 0.15245(14) 0.60930(18)
H1 H 0.7973 0.1399 0.5571
C2 C 0.6852(2) 0.22295(15) 0.72176(19)
H2 H 0.6654 0.2661 0.7617
C3 C 0.6547(3) 0.14066(14) 0.72632(19)
H3 H 0.6100 0.1177 0.7713
C4 C 0.2922(3) 0.18128(16) 0.4957(2)
H4 H 0.2227 0.1592 0.5201
C5 C 0.3446(3) 0.25888(16) 0.5159(2)
H5 H 0.3185 0.2997 0.5558
C6 C 0.4460(2) 0.19317(13) 0.41867(17)
H6 H 0.5048 0.1816 0.3788
C7 C 0.5223(2) 0.34295(13) 0.4605(2)
H7 H 0.5537 0.3691 0.5301
H8 H 0.4602 0.3818 0.4116
C8 C 0.6469(3) 0.32609(13) 0.4245(2)
C9 C 0.8073(2) 0.30678(13) 0.61455(19)
H9 H 0.9073 0.3097 0.6507
H10 H 0.7642 0.3551 0.6356
C10 C 0.7796(3) 0.30874(13) 0.4964(2)
C11 C 0.6284(3) 0.32696(15) 0.3167(2)
H11 H 0.5410 0.3396 0.2687
C12 C 0.8882(3) 0.29155(16) 0.4574(3)
H12 H 0.9768 0.2801 0.5043
C13 C 0.8665(4) 0.2912(2) 0.3493(4)
H13 H 0.9401 0.2785 0.3239
C14 C 0.7387(5) 0.3092(2) 0.2800(3)
H14 H 0.7253 0.3095 0.2074
C15 C 0.3281(2) -0.03520(12) 0.73000(16)
C16 C 0.3991(2) -0.03714(13) 0.83795(17)
H15 H 0.4964 -0.0366 0.8619
C17 C 0.3273(2) -0.03987(14) 0.91003(16)
H16 H 0.3760 -0.0408 0.9825
C18 C 0.1825(2) -0.04126(12) 0.87521(18)
H17 H 0.1342 -0.0419 0.9243
C19 C 0.1098(2) -0.04166(12) 0.76798(16)
C20 C -0.0484(2) -0.04443(12) 0.73191(19)
C21 C 0.1832(2) -0.03834(12) 0.69540(16)
H18 H 0.1346 -0.0382 0.6229
C22 C 0.4067(2) -0.02756(13) 0.65096(17)
N1 N 0.35618(18) 0.13931(10) 0.43381(14)
N2 N 0.44393(18) 0.26612(11) 0.46639(14)
N3 N 0.75084(18) 0.22960(10) 0.64655(14)
N4 N 0.69957(17) 0.09638(10) 0.65464(14)
O1 O 0.53933(13) -0.03335(9) 0.69067(11)
O2 O 0.34062(15) -0.01794(10) 0.55592(12)
O4 O -0.11247(13) -0.03108(9) 0.63418(11)
O5 O -0.10846(15) -0.05759(11) 0.79847(13)
Cu1 Cu 0.32081(3) 0.023086(16) 0.38288(2)
N4B N 0.30043(17) -0.09638(10) 0.34536(14)
O1B O 0.46067(13) 0.03335(9) 0.30933(11)
O4B O 0.11247(13) 0.03108(9) 0.36582(11)
Cu1B Cu 0.67919(3) -0.023086(16) 0.61712(2)
Cu1B_2 Cu -0.32081(3) -0.023086(16) 0.61712(2)
O3 O 0.0213(4) 0.1030(2) 0.5414(3)
H19 H 0.004(3) 0.069(3) 0.588(4)
H20 H 0.063(3) 0.0631(17) 0.512(5)
loop_
_geom_bond_atom_site_label_1
_geom_bond_atom_site_label_2
_geom_bond_site_symmetry_1
_geom_bond_site_symmetry_2
C1 H1 1_555 1_555
C2 H2 1_555 1_555
C3 C2 1_555 1_555
H3 C3 1_555 1_555
C4 H4 1_555 1_555
C5 C4 1_555 1_555
H5 C5 1_555 1_555
C6 H6 1_555 1_555
C7 H7 1_555 1_555
H8 C7 1_555 1_555
C8 C7 1_555 1_555
C9 H9 1_555 1_555
H10 C9 1_555 1_555
C10 C8 1_555 1_555
C11 C8 1_555 1_555
H11 C11 1_555 1_555
C12 C10 1_555 1_555
H12 C12 1_555 1_555
C13 C12 1_555 1_555
H13 C13 1_555 1_555
C14 C11 1_555 1_555
H14 C14 1_555 1_555
C15 C16 1_555 1_555
C16 H15 1_555 1_555
C17 C16 1_555 1_555
H16 C17 1_555 1_555
C18 C17 1_555 1_555
H17 C18 1_555 1_555
C19 C18 1_555 1_555
C20 C19 1_555 1_555
C21 C15 1_555 1_555
H18 C21 1_555 1_555
C22 C15 1_555 1_555
N1 C4 1_555 1_555
N2 C5 1_555 1_555
N3 C1 1_555 1_555
N4 C1 1_555 1_555
O1 C22 1_555 1_555
O2 C22 1_555 1_555
O3 H19 1_555 1_555
H20 O3 1_555 1_555
O4 C20 1_555 1_555
O5 C20 1_555 1_555
Cu1 N1 1_555 1_555
N4B Cu1 1_555 1_555
O1B Cu1 1_555 1_555
O4B Cu1 1_555 1_555
Cu1B N4 1_555 1_555
Cu1B_2 O4 1_555 1_555
C2 N3 1_555 1_555
C3 N4 1_555 1_555
C6 N1 1_555 1_555
C6 N2 1_555 1_555
C7 N2 1_555 1_555
C9 C10 1_555 1_555
C9 N3 1_555 1_555
C13 C14 1_555 1_555
C19 C21 1_555 1_555
O1 Cu1B 1_555 1_555
O2 Cu1 1_555 1_555

#END
