
#######################################################################
#
#                 Cambridge Crystallographic Data Centre
#                                CCDC 
#
#######################################################################
#
# If this CIF has been generated from an entry in the Cambridge 
# Structural Database, then it will include bibliographic, chemical, 
# crystal, experimental, refinement or atomic coordinate data resulting 
# from the CCDC's data processing and validation procedures.
#
#######################################################################

data_HONXIT
_symmetry_cell_setting           monoclinic
_symmetry_space_group_name_H-M   'C 2/c'
_symmetry_Int_Tables_number      15
_space_group_name_Hall           '-C 2yn'
loop_
_symmetry_equiv_pos_site_id
_symmetry_equiv_pos_as_xyz
1 x,y,z
2 -x,y,1/2-z
3 1/2+x,1/2+y,z
4 1/2-x,1/2+y,1/2-z
5 -x,-y,-z
6 x,-y,1/2+z
7 1/2-x,1/2-y,-z
8 1/2+x,1/2-y,1/2+z
_cell_length_a                   25.4916(14)
_cell_length_b                   10.1425(6)
_cell_length_c                   27.0478(15)
_cell_angle_alpha                90
_cell_angle_beta                 93.455(1)
_cell_angle_gamma                90
_cell_volume                     6980.46
loop_
_atom_site_label
_atom_site_type_symbol
_atom_site_fract_x
_atom_site_fract_y
_atom_site_fract_z
Co1 Co 0.105023(11) 0.49345(3) 0.163566(10)
Co2 Co 0.136591(11) 0.81161(3) 0.066285(10)
Br1 Br 0.059641(10) 0.96323(2) 0.355004(8)
O1 O 0.09379(6) 0.66906(13) 0.19642(5)
O2 O 0.09727(6) 0.79657(14) 0.12960(5)
O3 O 0.10353(6) 1.28381(14) 0.15564(5)
O4 O 0.08655(6) 1.36798(13) 0.22774(5)
C1 C 0.08375(8) 0.8979(2) 0.20691(7)
C2 C 0.08813(8) 1.02471(19) 0.18814(8)
H1 H 0.0947 1.0373 0.1543
C3 C 0.08285(8) 1.1330(2) 0.21880(8)
C4 C 0.07223(8) 1.1159(2) 0.26835(8)
H2 H 0.0674 1.1897 0.2892
C5 C 0.06886(8) 0.9880(2) 0.28643(8)
C6 C 0.07432(8) 0.8789(2) 0.25662(8)
H3 H 0.0717 0.7925 0.2698
C7 C 0.09227(8) 0.77912(19) 0.17472(7)
C8 C 0.09124(8) 1.2700(2) 0.19962(8)
Br2 Br 0.224499(8) 0.34726(2) -0.111650(7)
O5 O 0.14844(6) 0.63533(13) 0.03185(5)
O6 O 0.13232(7) 0.50764(14) 0.09577(6)
O7 O 0.14040(6) 0.02016(13) 0.07401(5)
O8 O 0.17215(6) -0.06501(13) 0.00734(5)
C9 C 0.16423(7) 0.40674(19) 0.02480(7)
C10 C 0.15799(8) 0.27980(19) 0.04289(7)
H4 H 0.1450 0.2671 0.0748
C11 C 0.17065(8) 0.17102(19) 0.01444(7)
C12 C 0.19041(8) 0.18904(19) -0.03208(7)
H5 H 0.1987 0.1156 -0.0520
C13 C 0.19758(8) 0.3169(2) -0.04847(7)
C14 C 0.18491(8) 0.42562(19) -0.02107(7)
H6 H 0.1902 0.5121 -0.0333
C15 C 0.14715(8) 0.52552(19) 0.05337(7)
C16 C 0.16106(8) 0.03358(19) 0.03296(7)
N1 N 0.18476(7) 0.50212(17) 0.19509(7)
C17 C 0.22347(9) 0.4384(2) 0.17374(9)
H7 H 0.2150 0.3888 0.1445
C18 C 0.27508(9) 0.4413(2) 0.19218(9)
H8 H 0.3013 0.3944 0.1760
C19 C 0.28813(9) 0.5133(2) 0.23444(9)
H9 H 0.3234 0.5169 0.2479
C20 C 0.24844(9) 0.5803(2) 0.25662(8)
H10 H 0.2561 0.6316 0.2855
C21 C 0.19771(9) 0.5714(2) 0.23615(8)
H11 H 0.1707 0.6165 0.2519
N2 N 0.02366(7) 0.50101(17) 0.13868(6)
C22 C 0.00635(9) 0.5341(2) 0.09281(8)
H12 H 0.0314 0.5524 0.0691
C23 C -0.04660(10) 0.5428(2) 0.07829(9)
H13 H -0.0575 0.5654 0.0452
C24 C -0.08321(10) 0.5184(2) 0.11248(10)
H14 H -0.1197 0.5243 0.1034
C25 C -0.06613(10) 0.4852(3) 0.16010(9)
H15 H -0.0905 0.4679 0.1845
C26 C -0.01278(9) 0.4777(2) 0.17153(9)
H16 H -0.0011 0.4547 0.2044
N3 N 0.21367(7) 0.78880(16) 0.10114(6)
C27 C 0.22750(9) 0.8272(2) 0.14735(8)
H17 H 0.2017 0.8684 0.1660
C28 C 0.27734(9) 0.8103(2) 0.16949(8)
H18 H 0.2854 0.8388 0.2025
C29 C 0.31541(9) 0.7508(2) 0.14230(9)
H19 H 0.3500 0.7373 0.1564
C30 C 0.30189(9) 0.7118(2) 0.09435(9)
H20 H 0.3271 0.6712 0.0748
C31 C 0.25119(8) 0.7325(2) 0.07518(8)
H21 H 0.2423 0.7059 0.0421
N4 N 0.06325(7) 0.81798(16) 0.02317(6)
C32 C 0.01729(9) 0.8485(2) 0.04156(8)
H22 H 0.0167 0.8692 0.0758
C33 C -0.02941(9) 0.8513(2) 0.01295(9)
H23 H -0.0614 0.8726 0.0274
C34 C -0.02894(9) 0.8224(2) -0.03719(9)
H24 H -0.0604 0.8251 -0.0579
C35 C 0.01810(9) 0.7898(2) -0.05619(8)
H25 H 0.0197 0.7685 -0.0903
C36 C 0.06318(9) 0.7884(2) -0.02509(8)
H26 H 0.0955 0.7653 -0.0385
Co1_2 Co 0.105023(11) 1.49345(3) 0.163566(10)
Co2_2 Co 0.136591(11) -0.18839(3) 0.066285(10)
O3_2 O 0.10353(6) 0.28381(14) 0.15564(5)
O4_2 O 0.08655(6) 0.36798(13) 0.22774(5)
O7_2 O 0.14040(6) 1.02016(13) 0.07401(5)
O8_2 O 0.17215(6) 0.93499(13) 0.00734(5)
loop_
_geom_bond_atom_site_label_1
_geom_bond_atom_site_label_2
_geom_bond_site_symmetry_1
_geom_bond_site_symmetry_2
Co1 O1 1_555 1_555
Co2 O2 1_555 1_555
Br1 C5 1_555 1_555
O1 C7 1_555 1_555
O2 C7 1_555 1_555
O3 C8 1_555 1_555
O4 C8 1_555 1_555
C1 C2 1_555 1_555
C2 H1 1_555 1_555
C3 C2 1_555 1_555
C4 C3 1_555 1_555
H2 C4 1_555 1_555
C5 C4 1_555 1_555
C6 C1 1_555 1_555
H3 C6 1_555 1_555
C7 C1 1_555 1_555
C8 C3 1_555 1_555
Br2 C13 1_555 1_555
O5 Co2 1_555 1_555
O6 Co1 1_555 1_555
O7 C16 1_555 1_555
O8 C16 1_555 1_555
C9 C10 1_555 1_555
C10 H4 1_555 1_555
C11 C10 1_555 1_555
C12 C11 1_555 1_555
H5 C12 1_555 1_555
C13 C12 1_555 1_555
C14 C9 1_555 1_555
H6 C14 1_555 1_555
C15 O5 1_555 1_555
C16 C11 1_555 1_555
N1 Co1 1_555 1_555
C17 N1 1_555 1_555
H7 C17 1_555 1_555
C18 C17 1_555 1_555
H8 C18 1_555 1_555
C19 C18 1_555 1_555
H9 C19 1_555 1_555
C20 C19 1_555 1_555
H10 C20 1_555 1_555
C21 N1 1_555 1_555
H11 C21 1_555 1_555
N2 Co1 1_555 1_555
C22 N2 1_555 1_555
H12 C22 1_555 1_555
C23 C22 1_555 1_555
H13 C23 1_555 1_555
C24 C23 1_555 1_555
H14 C24 1_555 1_555
C25 C24 1_555 1_555
H15 C25 1_555 1_555
C26 N2 1_555 1_555
H16 C26 1_555 1_555
N3 Co2 1_555 1_555
C27 N3 1_555 1_555
H17 C27 1_555 1_555
C28 C27 1_555 1_555
H18 C28 1_555 1_555
C29 C28 1_555 1_555
H19 C29 1_555 1_555
C30 C29 1_555 1_555
H20 C30 1_555 1_555
C31 N3 1_555 1_555
H21 C31 1_555 1_555
N4 Co2 1_555 1_555
C32 N4 1_555 1_555
H22 C32 1_555 1_555
C33 C32 1_555 1_555
H23 C33 1_555 1_555
C34 C33 1_555 1_555
H24 C34 1_555 1_555
C35 C34 1_555 1_555
H25 C35 1_555 1_555
C36 N4 1_555 1_555
H26 C36 1_555 1_555
Co1_2 O3 1_555 1_555
Co2_2 O7 1_555 1_555
O3_2 Co1 1_555 1_555
O4_2 Co1 1_555 1_555
O7_2 Co2 1_555 1_555
O8_2 Co2 1_555 1_555
O4 Co1_2 1_555 1_555
C5 C6 1_555 1_555
O6 C15 1_555 1_555
O8 Co2_2 1_555 1_555
C9 C15 1_555 1_555
C13 C14 1_555 1_555
C20 C21 1_555 1_555
C25 C26 1_555 1_555
C30 C31 1_555 1_555
C35 C36 1_555 1_555

#END
