
#######################################################################
#
#                 Cambridge Crystallographic Data Centre
#                                CCDC 
#
#######################################################################
#
# If this CIF has been generated from an entry in the Cambridge 
# Structural Database, then it will include bibliographic, chemical, 
# crystal, experimental, refinement or atomic coordinate data resulting 
# from the CCDC's data processing and validation procedures.
#
#######################################################################

data_HONXOZ
_symmetry_cell_setting           monoclinic
_symmetry_space_group_name_H-M   'C 2/c'
_symmetry_Int_Tables_number      15
_space_group_name_Hall           '-C 2yn'
loop_
_symmetry_equiv_pos_site_id
_symmetry_equiv_pos_as_xyz
1 x,y,z
2 -x,y,1/2-z
3 1/2+x,1/2+y,z
4 1/2-x,1/2+y,1/2-z
5 -x,-y,-z
6 x,-y,1/2+z
7 1/2-x,1/2-y,-z
8 1/2+x,1/2-y,1/2+z
_cell_length_a                   18.514(2)
_cell_length_b                   8.7406(10)
_cell_length_c                   22.973(3)
_cell_angle_alpha                90
_cell_angle_beta                 109.632(2)
_cell_angle_gamma                90
_cell_volume                     3501.47
loop_
_atom_site_label
_atom_site_type_symbol
_atom_site_fract_x
_atom_site_fract_y
_atom_site_fract_z
Cu1 Cu -0.059115(16) -0.04364(3) 0.070057(14)
Br1 Br 0.235882(19) 0.29603(5) 0.310971(14)
O1 O 0.39615(10) 0.4534(2) 0.16758(9)
O2 O 0.34124(9) 0.3648(2) 0.07181(8)
O3 O 0.07370(10) 0.1344(2) 0.02293(9)
O4 O 0.04127(10) 0.0569(2) 0.10381(9)
C1 C 0.22682(15) 0.2756(3) 0.22683(12)
C2 C 0.28333(14) 0.3363(3) 0.20697(12)
H1 H 0.3252 0.3899 0.2351
C3 C 0.27872(13) 0.3185(3) 0.14573(12)
C4 C 0.21524(13) 0.2449(3) 0.10393(12)
H2 H 0.2117 0.2329 0.0620
C5 C 0.15717(13) 0.1892(3) 0.12435(12)
C6 C 0.16365(14) 0.2006(3) 0.18635(12)
H3 H 0.1256 0.1580 0.2007
C7 C 0.34358(13) 0.3839(3) 0.12756(12)
C8 C 0.08520(13) 0.1209(3) 0.07904(12)
N1 N -0.11167(12) 0.1578(2) 0.03950(10)
C9 C -0.11345(14) 0.2206(3) -0.01440(12)
H4 H -0.0894 0.1678 -0.0391
C10 C -0.14900(15) 0.3591(3) -0.03539(13)
H5 H -0.1491 0.4005 -0.0737
C11 C -0.18451(15) 0.4366(3) 0.00053(14)
H6 H -0.2100 0.5312 -0.0129
C12 C -0.18186(15) 0.3731(3) 0.05600(14)
H7 H -0.2051 0.4243 0.0817
C13 C -0.14519(15) 0.2342(3) 0.07423(13)
H8 H -0.1437 0.1916 0.1127
N2 N -0.00652(11) -0.2377(2) 0.11085(11)
C14 C -0.01883(15) -0.3727(3) 0.08134(14)
H9 H -0.0448 -0.3746 0.0380
C15 C 0.00520(17) -0.5093(3) 0.11229(16)
H10 H -0.0036 -0.6035 0.0903
C16 C 0.04211(17) -0.5070(3) 0.17554(16)
H11 H 0.0567 -0.5998 0.1980
C17 C 0.05733(16) -0.3683(3) 0.20547(14)
H12 H 0.0842 -0.3636 0.2487
C18 C 0.03281(15) -0.2350(3) 0.17159(13)
H13 H 0.0443 -0.1391 0.1921
Cu1B Cu 0.440885(16) 0.45636(3) 0.070057(14)
Cu1D Cu 0.059115(16) 0.04364(3) -0.070057(14)
O1B O -0.10385(10) -0.0466(2) 0.16758(9)
O2B O -0.15876(9) -0.1352(2) 0.07181(8)
O3D O -0.07370(10) -0.1344(2) -0.02293(9)
O5 O 0.5000 0.6666(4) 0.2500
H14 H 0.471(3) 0.613(5) 0.223(2)
H14A H 0.529(3) 0.613(5) 0.277(2)
loop_
_geom_bond_atom_site_label_1
_geom_bond_atom_site_label_2
_geom_bond_site_symmetry_1
_geom_bond_site_symmetry_2
Cu1 O4 1_555 1_555
Br1 C1 1_555 1_555
O1 C7 1_555 1_555
O2 C7 1_555 1_555
O3 C8 1_555 1_555
O4 C8 1_555 1_555
C1 C2 1_555 1_555
C2 H1 1_555 1_555
C3 C2 1_555 1_555
C4 C3 1_555 1_555
H2 C4 1_555 1_555
C5 C4 1_555 1_555
C6 C1 1_555 1_555
H3 C6 1_555 1_555
C7 C3 1_555 1_555
C8 C5 1_555 1_555
N1 Cu1 1_555 1_555
C9 N1 1_555 1_555
H4 C9 1_555 1_555
C10 C9 1_555 1_555
H5 C10 1_555 1_555
C11 C10 1_555 1_555
H6 C11 1_555 1_555
C12 C11 1_555 1_555
H7 C12 1_555 1_555
C13 N1 1_555 1_555
H8 C13 1_555 1_555
N2 Cu1 1_555 1_555
C14 N2 1_555 1_555
H9 C14 1_555 1_555
C15 C14 1_555 1_555
H10 C15 1_555 1_555
C16 C15 1_555 1_555
H11 C16 1_555 1_555
C17 C16 1_555 1_555
H12 C17 1_555 1_555
C18 N2 1_555 1_555
H13 C18 1_555 1_555
O5 H14 1_555 1_555
Cu1B O1 1_555 1_555
Cu1D O3 1_555 1_555
O1B Cu1 1_555 1_555
O2B Cu1 1_555 1_555
O3D Cu1 1_555 1_555
H14A O5 1_555 1_555
O2 Cu1B 1_555 1_555
C5 C6 1_555 1_555
C12 C13 1_555 1_555
C17 C18 1_555 1_555

#END
