
#######################################################################
#
#                 Cambridge Crystallographic Data Centre
#                                CCDC 
#
#######################################################################
#
# If this CIF has been generated from an entry in the Cambridge 
# Structural Database, then it will include bibliographic, chemical, 
# crystal, experimental, refinement or atomic coordinate data resulting 
# from the CCDC's data processing and validation procedures.
#
#######################################################################

data_HOPCAQ
_symmetry_cell_setting           triclinic
_symmetry_space_group_name_H-M   'P -1'
_symmetry_Int_Tables_number      2
_space_group_name_Hall           '-P 1'
loop_
_symmetry_equiv_pos_site_id
_symmetry_equiv_pos_as_xyz
1 x,y,z
2 -x,-y,-z
_cell_length_a                   7.2653(5)
_cell_length_b                   7.9452(6)
_cell_length_c                   12.5441(10)
_cell_angle_alpha                84.702(6)
_cell_angle_beta                 75.186(6)
_cell_angle_gamma                78.932(5)
_cell_volume                     686.296
loop_
_atom_site_label
_atom_site_type_symbol
_atom_site_fract_x
_atom_site_fract_y
_atom_site_fract_z
Cl1 Cl 0.98853(7) 0.14676(6) 0.09795(4)
Cl2 Cl 0.53490(7) 0.21052(6) -0.05272(4)
N1 N 0.2982(2) -0.0923(2) 0.4897(1)
C1 C 0.1872(3) 0.0554(2) 0.5359(1)
N2 N 0.0775(3) 0.0403(3) 0.6399(1)
N3 N 0.1808(2) 0.2078(2) 0.4834(1)
C2 C 0.2995(2) 0.2020(2) 0.3817(1)
C3 C 0.4187(2) 0.0617(2) 0.3280(1)
C4 C 0.4205(2) -0.1015(2) 0.3847(1)
O1 O 0.5159(2) -0.2426(2) 0.3522(1)
N4 N 0.5214(2) 0.1132(2) 0.2242(1)
C5 C 0.4642(3) 0.2802(2) 0.2177(2)
N5 N 0.3302(2) 0.3413(2) 0.3102(1)
C6 C 0.2264(3) 0.5174(2) 0.3235(2)
O2 O 0.0524(2) 0.5413(2) 0.2901(1)
C7 C 0.0795(3) 0.5386(2) 0.1722(1)
C8 C -0.1146(3) 0.5938(2) 0.1475(2)
O3 O -0.1897(2) 0.7671(2) 0.1793(1)
H1 H 0.2914(2) -0.1865(2) 0.5289(1)
H2 H 0.0042(3) 0.1293(3) 0.6714(1)
H3 H 0.0809(3) -0.0584(3) 0.6745(1)
H4 H 0.5100(3) 0.3497(2) 0.1567(2)
H5 H 0.1986(3) 0.5449(2) 0.4004(2)
H6 H 0.3076(3) 0.5952(2) 0.2801(2)
H7 H 0.1355(3) 0.4238(2) 0.1472(1)
H8 H 0.1661(3) 0.6162(2) 0.1347(1)
H9 H -0.1031(3) 0.5863(2) 0.0693(2)
H10 H -0.2022(3) 0.5188(2) 0.1879(2)
H11 H -0.2839(29) 0.7701(33) 0.2321(17)
Cd1 Cd 0.72444(2) -0.01341(1) 0.05825(1)
Cl1A Cl 1.01147(7) -0.14676(6) -0.09795(4)
Cd1A Cd 1.27556(2) 0.01341(1) -0.05825(1)
Cl2A Cl 0.46510(7) -0.21052(6) 0.05272(4)
Cd1A_2 Cd 0.27556(2) 0.01341(1) -0.05825(1)
O3_2 O 0.8103(2) -0.2329(2) 0.1793(1)
H11_2 H 0.7161(29) -0.2299(33) 0.2321(17)
Cd1_2 Cd -0.27556(2) 0.98659(1) 0.05825(1)
O4 O 0.2895(3) -0.4213(2) 0.5902(2)
H12 H 0.3685(40) -0.5119(30) 0.5917(27)
H13 H 0.1804(31) -0.4456(42) 0.6199(25)
loop_
_geom_bond_atom_site_label_1
_geom_bond_atom_site_label_2
_geom_bond_site_symmetry_1
_geom_bond_site_symmetry_2
Cl1 Cd1 1_555 1_555
Cl2 Cd1 1_555 1_555
N1 C1 1_555 1_555
C1 N2 1_555 1_555
N2 H2 1_555 1_555
N3 C1 1_555 1_555
C2 N3 1_555 1_555
C3 C2 1_555 1_555
C4 N1 1_555 1_555
O1 C4 1_555 1_555
N4 C3 1_555 1_555
C5 N4 1_555 1_555
N5 C2 1_555 1_555
C6 N5 1_555 1_555
O2 C6 1_555 1_555
C7 O2 1_555 1_555
C8 C7 1_555 1_555
O3 C8 1_555 1_555
O4 H12 1_555 1_555
H1 N1 1_555 1_555
H3 N2 1_555 1_555
H4 C5 1_555 1_555
H5 C6 1_555 1_555
H6 C6 1_555 1_555
H7 C7 1_555 1_555
H8 C7 1_555 1_555
H9 C8 1_555 1_555
H10 C8 1_555 1_555
H11 O3 1_555 1_555
H13 O4 1_555 1_555
Cd1 N4 1_555 1_555
Cl1A Cd1 1_555 1_555
Cd1A Cl1 1_555 1_555
Cl2A Cd1 1_555 1_555
Cd1A_2 Cl2 1_555 1_555
O3_2 Cd1 1_555 1_555
H11_2 O3_2 1_555 1_555
Cd1_2 O3 1_555 1_555
C3 C4 1_555 1_555
C5 N5 1_555 1_555
Cl1A Cd1A 1_555 1_555
Cl2A Cd1A_2 1_555 1_555

#END
