
#######################################################################
#
#                 Cambridge Crystallographic Data Centre
#                                CCDC 
#
#######################################################################
#
# If this CIF has been generated from an entry in the Cambridge 
# Structural Database, then it will include bibliographic, chemical, 
# crystal, experimental, refinement or atomic coordinate data resulting 
# from the CCDC's data processing and validation procedures.
#
#######################################################################

data_HOPCOF
_symmetry_cell_setting           triclinic
_symmetry_space_group_name_H-M   'P -1'
_symmetry_Int_Tables_number      2
_space_group_name_Hall           '-P 1'
loop_
_symmetry_equiv_pos_site_id
_symmetry_equiv_pos_as_xyz
1 x,y,z
2 -x,-y,-z
_cell_length_a                   9.277(3)
_cell_length_b                   10.504(4)
_cell_length_c                   31.801(10)
_cell_angle_alpha                92.849(3)
_cell_angle_beta                 90.401(2)
_cell_angle_gamma                114.547(7)
_cell_volume                     2814.01
loop_
_atom_site_label
_atom_site_type_symbol
_atom_site_fract_x
_atom_site_fract_y
_atom_site_fract_z
Cu1 Cu -1.45300(4) 0.03719(4) 0.461942(12)
S1 S -1.69171(9) -0.14813(10) 0.46006(3)
P1 P -1.63562(11) -0.29726(10) 0.48274(3)
O1 O -1.7945(3) -0.4358(3) 0.47646(9)
N1 N -1.2633(3) 0.0170(3) 0.43722(8)
C1 C -1.7991(8) -0.5690(5) 0.49183(18)
H1 H -1.6911 -0.5662 0.4920
H2 H -1.8374 -0.5806 0.5210
Cu2 Cu -0.18364(4) 0.11470(5) 0.254350(13)
S2 S -1.54915(13) -0.26128(10) 0.54128(3)
P2 P 0.09965(9) 0.45773(9) 0.28558(3)
O2 O -1.5101(3) -0.3258(3) 0.45480(8)
N2 N -0.3563(3) 0.0964(3) 0.29512(8)
C2 C -1.9023(9) -0.6843(6) 0.4649(2)
H3 H -2.0026 -0.6760 0.4603
H4 H -1.9230 -0.7723 0.4781
H5 H -1.8523 -0.6837 0.4378
Cu3 Cu 0.12723(5) 0.21181(5) 0.253693(13)
S3 S -0.00899(9) -0.01785(9) 0.26833(2)
P3 P -0.12061(9) -0.11338(9) 0.21393(3)
O3 O -0.2022(3) -0.2779(3) 0.21923(8)
N3 N 0.3065(3) 0.2458(3) 0.21358(9)
C3 C -1.5424(6) -0.3577(7) 0.40988(14)
H6 H -1.6472 -0.4374 0.4048
H7 H -1.5444 -0.2755 0.3963
Cu4 Cu 1.43086(5) 0.46027(5) 0.036068(13)
S4 S -0.27476(10) -0.04367(10) 0.19331(3)
P4 P 1.38283(10) 0.21004(9) -0.01820(3)
O4 O 0.0098(3) -0.1040(3) 0.18100(7)
N4 N 1.2328(3) 0.4584(3) 0.06258(8)
C4 C -1.4204(8) -0.3928(8) 0.3921(2)
H8 H -1.3181 -0.3112 0.3955
H9 H -1.4448 -0.4203 0.3621
H10 H -1.4152 -0.4708 0.4068
S5 S -0.03293(9) 0.34396(9) 0.23552(2)
O5 O -0.0200(3) 0.4872(3) 0.31597(8)
C5 C -0.3380(4) -0.3351(4) 0.24678(14)
H11 H -0.4382 -0.3621 0.2302
H12 H -0.3317 -0.2636 0.2691
S6 S 0.22634(10) 0.37531(10) 0.31423(3)
O6 O 0.2184(3) 0.6080(3) 0.27177(8)
C6 C -0.3343(5) -0.4605(5) 0.26610(13)
H13 H -0.3255 -0.5248 0.2439
H14 H -0.4321 -0.5083 0.2813
H15 H -0.2429 -0.4307 0.2858
S7 S 1.45412(13) 0.24337(11) 0.04165(3)
O7 O 1.2295(3) 0.0682(3) -0.02687(11)
C7 C -0.0278(5) -0.1333(4) 0.13612(11)
H16 H -0.1443 -0.1754 0.1312
H17 H 0.0132 -0.2010 0.1249
S8 S 1.32674(9) 0.35754(9) -0.04218(3)
O8 O 1.5187(3) 0.1884(3) -0.04377(8)
C8 C 0.0457(6) 0.0001(5) 0.11393(15)
H18 H -0.0036 0.0629 0.1230
H19 H 0.0292 -0.0206 0.0834
H20 H 0.1596 0.0455 0.1208
C9 C 0.0369(6) 0.5561(6) 0.35777(17)
H21 H 0.1204 0.5290 0.3682
H22 H 0.0855 0.6590 0.3553
C10 C -0.0777(9) 0.5237(12) 0.3860(2)
H23 H -0.1543 0.5605 0.3776
H24 H -0.0310 0.5652 0.4138
H25 H -0.1316 0.4215 0.3871
C11 C 0.1589(4) 0.6926(4) 0.24774(13)
H26 H 0.1731 0.7790 0.2647
H27 H 0.0444 0.6389 0.2409
C12 C 0.2480(6) 0.7297(6) 0.20841(16)
H28 H 0.3618 0.7780 0.2154
H29 H 0.2140 0.7914 0.1930
H30 H 0.2272 0.6441 0.1909
C13 C 1.2351(6) -0.0641(6) -0.0150(3)
H31 H 1.2903 -0.0960 -0.0368
H32 H 1.2955 -0.0480 0.0120
C14 C 1.0826(6) -0.1671(6) -0.0110(2)
H33 H 1.0452 -0.1568 0.0172
H34 H 1.0835 -0.2598 -0.0150
H35 H 1.0116 -0.1571 -0.0322
C15 C 1.5006(5) 0.1633(5) -0.08932(12)
H36 H 1.5206 0.2517 -0.1029
H37 H 1.3915 0.0946 -0.0972
C16 C 1.6174(5) 0.1078(5) -0.10348(13)
H38 H 1.7247 0.1753 -0.0948
H39 H 1.6101 0.0929 -0.1342
H40 H 1.5941 0.0185 -0.0907
C17 C -1.1870(4) -0.0500(4) 0.45568(10)
H41 H -1.2173 -0.0826 0.4830
C18 C -1.2160(4) 0.0649(4) 0.39895(10)
H42 H -1.2670 0.1149 0.3857
C19 C -1.0961(4) 0.0445(4) 0.37815(10)
H43 H -1.0671 0.0794 0.3510
C20 C -1.0650(4) -0.0740(4) 0.43661(10)
H44 H -1.0142 -0.1224 0.4508
C21 C -1.0179(3) -0.0272(4) 0.39689(10)
C22 C -0.8864(3) -0.0493(4) 0.37471(9)
H45 H -0.9222 -0.0882 0.3456
H46 H -0.8599 -0.1178 0.3896
C23 C -0.7398(4) 0.0881(4) 0.37352(11)
H47 H -0.7726 0.1598 0.3633
H48 H -0.6972 0.1184 0.4027
C24 C -0.4900(4) 0.2130(4) 0.33481(11)
H49 H -0.4936 0.2988 0.3442
C25 C -0.6072(3) 0.0859(3) 0.34656(10)
C26 C -0.5937(4) -0.0346(4) 0.33185(12)
H50 H -0.6702 -0.1238 0.3389
C27 C -0.3691(4) 0.2141(4) 0.30960(11)
H51 H -0.2912 0.3020 0.3021
C28 C -0.4678(4) -0.0251(4) 0.30667(11)
H52 H -0.4608 -0.1095 0.2972
C29 C 0.3796(4) 0.1588(4) 0.21364(12)
H53 H 0.3408 0.0816 0.2312
C30 C 0.3640(4) 0.3526(4) 0.18855(11)
H54 H 0.3151 0.4160 0.1883
C31 C 0.5084(4) 0.1771(4) 0.18931(12)
H55 H 0.5571 0.1137 0.1908
C32 C 0.4921(4) 0.3761(4) 0.16270(11)
H56 H 0.5276 0.4531 0.1451
C33 C 0.5677(4) 0.2864(4) 0.16270(10)
C34 C 0.7060(4) 0.3015(4) 0.13541(11)
H57 H 0.6640 0.2587 0.1070
H58 H 0.7605 0.2473 0.1473
C35 C 0.8281(4) 0.4516(4) 0.13087(12)
H59 H 0.7780 0.5042 0.1160
H60 H 0.8646 0.4984 0.1592
C36 C 0.9690(4) 0.4547(4) 0.10662(11)
C37 C 1.0552(4) 0.3810(5) 0.11954(11)
H61 H 1.0263 0.3286 0.1440
C38 C 1.0191(4) 0.5284(4) 0.07060(11)
H62 H 0.9629 0.5783 0.0600
C39 C 1.1820(4) 0.3845(4) 0.09672(11)
H63 H 1.2368 0.3314 0.1057
C40 C 1.1511(4) 0.5297(4) 0.04994(11)
H64 H 1.1848 0.5834 0.0258
Cu1A Cu -1.54700(4) -0.03719(4) 0.538058(12)
S1A S -1.30829(9) 0.14813(10) 0.53994(3)
S2A S -1.45085(13) 0.26128(10) 0.45872(3)
Cu4A Cu 1.56914(5) 0.53973(5) -0.036068(13)
S8A S 1.67326(9) 0.64246(9) 0.04218(3)
loop_
_geom_bond_atom_site_label_1
_geom_bond_atom_site_label_2
_geom_bond_site_symmetry_1
_geom_bond_site_symmetry_2
Cu1 S1 1_555 1_555
S1 P1 1_555 1_555
P1 O1 1_555 1_555
O1 C1 1_555 1_555
N1 Cu1 1_555 1_555
C1 H1 1_555 1_555
H2 C1 1_555 1_555
Cu2 N2 1_555 1_555
S2 P1 1_555 1_555
P2 S5 1_555 1_555
O2 P1 1_555 1_555
N2 C27 1_555 1_555
C2 C1 1_555 1_555
H3 C2 1_555 1_555
H4 C2 1_555 1_555
H5 C2 1_555 1_555
Cu3 Cu2 1_555 1_555
S3 Cu2 1_555 1_555
P3 S3 1_555 1_555
O3 P3 1_555 1_555
N3 Cu3 1_555 1_555
C3 O2 1_555 1_555
H6 C3 1_555 1_555
H7 C3 1_555 1_555
Cu4 N4 1_555 1_555
S4 Cu2 1_555 1_555
P4 S7 1_555 1_555
O4 P3 1_555 1_555
N4 C39 1_555 1_555
C4 C3 1_555 1_555
H8 C4 1_555 1_555
H9 C4 1_555 1_555
H10 C4 1_555 1_555
S5 Cu2 1_555 1_555
O5 P2 1_555 1_555
C5 O3 1_555 1_555
H11 C5 1_555 1_555
H12 C5 1_555 1_555
S6 P2 1_555 1_555
O6 P2 1_555 1_555
C6 C5 1_555 1_555
H13 C6 1_555 1_555
H14 C6 1_555 1_555
H15 C6 1_555 1_555
S7 Cu4 1_555 1_555
O7 P4 1_555 1_555
C7 O4 1_555 1_555
H16 C7 1_555 1_555
H17 C7 1_555 1_555
S8 Cu4 1_555 1_555
O8 P4 1_555 1_555
C8 C7 1_555 1_555
H18 C8 1_555 1_555
H19 C8 1_555 1_555
H20 C8 1_555 1_555
C9 O5 1_555 1_555
H21 C9 1_555 1_555
H22 C9 1_555 1_555
C10 C9 1_555 1_555
H23 C10 1_555 1_555
H24 C10 1_555 1_555
H25 C10 1_555 1_555
C11 O6 1_555 1_555
H26 C11 1_555 1_555
H27 C11 1_555 1_555
C12 C11 1_555 1_555
H28 C12 1_555 1_555
H29 C12 1_555 1_555
H30 C12 1_555 1_555
C13 O7 1_555 1_555
H31 C13 1_555 1_555
H32 C13 1_555 1_555
C14 C13 1_555 1_555
H33 C14 1_555 1_555
H34 C14 1_555 1_555
H35 C14 1_555 1_555
C15 O8 1_555 1_555
H36 C15 1_555 1_555
H37 C15 1_555 1_555
C16 C15 1_555 1_555
H38 C16 1_555 1_555
H39 C16 1_555 1_555
H40 C16 1_555 1_555
C17 N1 1_555 1_555
H41 C17 1_555 1_555
C18 N1 1_555 1_555
H42 C18 1_555 1_555
C19 C18 1_555 1_555
H43 C19 1_555 1_555
C20 C17 1_555 1_555
H44 C20 1_555 1_555
C21 C19 1_555 1_555
C22 C21 1_555 1_555
H45 C22 1_555 1_555
H46 C22 1_555 1_555
C23 C22 1_555 1_555
H47 C23 1_555 1_555
H48 C23 1_555 1_555
C24 H49 1_555 1_555
C25 C23 1_555 1_555
C26 C25 1_555 1_555
H50 C26 1_555 1_555
C27 C24 1_555 1_555
H51 C27 1_555 1_555
C28 N2 1_555 1_555
H52 C28 1_555 1_555
C29 N3 1_555 1_555
H53 C29 1_555 1_555
C30 N3 1_555 1_555
H54 C30 1_555 1_555
C31 C29 1_555 1_555
H55 C31 1_555 1_555
C32 C30 1_555 1_555
H56 C32 1_555 1_555
C33 C31 1_555 1_555
C34 C33 1_555 1_555
H57 C34 1_555 1_555
H58 C34 1_555 1_555
C35 C34 1_555 1_555
H59 C35 1_555 1_555
H60 C35 1_555 1_555
C36 C35 1_555 1_555
C37 C36 1_555 1_555
H61 C37 1_555 1_555
C38 C36 1_555 1_555
H62 C38 1_555 1_555
C39 C37 1_555 1_555
H63 C39 1_555 1_555
C40 N4 1_555 1_555
H64 C40 1_555 1_555
Cu1A Cu1 1_555 1_555
S1A Cu1 1_555 1_555
S2A Cu1 1_555 1_555
Cu4A Cu4 1_555 1_555
S8A Cu4 1_555 1_555
S1 Cu1A 1_555 1_555
S2 Cu1A 1_555 1_555
Cu3 S3 1_555 1_555
Cu3 S5 1_555 1_555
Cu3 S6 1_555 1_555
P3 S4 1_555 1_555
P4 S8 1_555 1_555
S8 Cu4A 1_555 1_555
C20 C21 1_555 1_555
C24 C25 1_555 1_555
C26 C28 1_555 1_555
C32 C33 1_555 1_555
C38 C40 1_555 1_555
Cu1A S1A 1_555 1_555
Cu4A S8A 1_555 1_555

#END
