
#######################################################################
#
#                 Cambridge Crystallographic Data Centre
#                                CCDC 
#
#######################################################################
#
# If this CIF has been generated from an entry in the Cambridge 
# Structural Database, then it will include bibliographic, chemical, 
# crystal, experimental, refinement or atomic coordinate data resulting 
# from the CCDC's data processing and validation procedures.
#
#######################################################################

data_HOPDIB
_symmetry_cell_setting           trigonal
_symmetry_space_group_name_H-M   'P 3'
_symmetry_Int_Tables_number      143
_space_group_name_Hall           'P 3'
loop_
_symmetry_equiv_pos_site_id
_symmetry_equiv_pos_as_xyz
1 x,y,z
2 -y,x-y,z
3 -x+y,-x,z
_cell_length_a                   19.106(3)
_cell_length_b                   19.106(3)
_cell_length_c                   11.496(2)
_cell_angle_alpha                90
_cell_angle_beta                 90
_cell_angle_gamma                120
_cell_volume                     3634.27
loop_
_atom_site_label
_atom_site_type_symbol
_atom_site_fract_x
_atom_site_fract_y
_atom_site_fract_z
C1 C -0.1743(3) 0.0983(3) 1.0446(4)
C2 C -0.1110(3) 0.1223(3) 0.9515(5)
C3 C -0.1058(3) 0.0661(3) 0.8871(5)
H1 H -0.1407 0.0112 0.8996
C4 C -0.0574(3) 0.2033(3) 0.9340(5)
H2 H -0.0613 0.2415 0.9794
C5 C 0.0012(3) 0.2283(3) 0.8512(5)
H3 H 0.0366 0.2833 0.8408
C6 C -0.0463(3) 0.0928(3) 0.8009(5)
H4 H -0.0443 0.0541 0.7542
C7 C 0.0091(3) 0.1722(3) 0.7810(5)
C8 C 0.0711(3) 0.1968(3) 0.6901(5)
C9 C 0.0515(3) 0.1538(4) 0.5855(5)
H5 H 0.0024 0.1063 0.5759
C10 C 0.1463(3) 0.2658(3) 0.7038(5)
H6 H 0.1599 0.2929 0.7747
C11 C 0.2015(3) 0.2947(3) 0.6124(5)
H7 H 0.2512 0.3415 0.6222
C12 C 0.1092(3) 0.1853(4) 0.4949(5)
H8 H 0.0963 0.1581 0.4241
C13 C 0.1827(3) 0.2536(3) 0.5062(4)
C14 C 0.2374(3) 0.2889(3) 0.4015(5)
C15 C 0.4634(3) 0.3133(3) 0.2194(4)
H9 H 0.4518 0.2697 0.1712
C16 C 0.4551(3) 0.4047(3) 0.3168(5)
H10 H 0.4350 0.4359 0.3488
C17 C 0.5289(3) 0.4160(3) 0.3381(5)
H11 H 0.5687 0.4556 0.3849
C18 C 0.6016(3) 0.3449(3) 0.2696(4)
C19 C 0.5886(3) 0.2670(3) 0.2701(5)
H12 H 0.5365 0.2227 0.2708
C20 C 0.3042(3) 0.4574(3) 0.1662(5)
H13 H 0.3196 0.4722 0.2431
C21 C 0.2671(3) 0.3890(3) 0.0067(5)
H14 H 0.2525 0.3474 -0.0466
C22 C 0.2728(4) 0.4604(4) -0.0171(5)
H15 H 0.2624 0.4766 -0.0882
C23 C 0.3150(3) 0.5877(3) 0.0944(4)
C24 C 0.2544(3) 0.6059(3) 0.0932(4)
H16 H 0.2008 0.5646 0.0916
N1 N 0.4119(2) 0.3400(2) 0.2399(4)
N2 N 0.5338(2) 0.3566(2) 0.2763(4)
N3 N 0.2856(2) 0.3863(2) 0.1190(4)
N4 N 0.2971(2) 0.5052(2) 0.0837(4)
O1 O 0.2258(2) 0.2400(3) 0.3178(3)
O2 O 0.2862(2) 0.3623(2) 0.3999(4)
O3 O -0.2258(2) 0.0237(2) 1.0557(4)
O4 O -0.1756(3) 0.1477(3) 1.1083(4)
Zn1 Zn 0.29920(3) 0.29562(3) 0.19154(4)
C15A C 0.6867(3) 0.1501(4) 0.2194(4)
H9A H 0.7303 0.1821 0.1712
C16A C 0.5953(3) 0.0504(4) 0.3168(5)
H10A H 0.5641 -0.0009 0.3488
C17A C 0.5840(3) 0.1129(4) 0.3381(5)
H11A H 0.5444 0.1131 0.3849
C18A C 0.6551(3) 0.2567(4) 0.2696(4)
C19A C 0.7330(3) 0.3216(4) 0.2701(5)
H12A H 0.7773 0.3138 0.2708
N1A N 0.6600(2) 0.0719(3) 0.2399(4)
N2A N 0.6434(2) 0.1772(3) 0.2763(4)
C15B C 0.8499(4) 0.5366(3) 0.2194(4)
H9B H 0.8179 0.5482 0.1712
C16B C 0.9496(4) 0.5449(3) 0.3168(5)
H10B H 1.0009 0.5650 0.3488
C17B C 0.8871(4) 0.4711(3) 0.3381(5)
H11B H 0.8869 0.4313 0.3849
C18B C 0.7433(4) 0.3984(3) 0.2696(4)
C19B C 0.6784(4) 0.4114(3) 0.2701(5)
H12B H 0.6862 0.4635 0.2708
N1B N 0.9281(3) 0.5881(2) 0.2399(4)
N2B N 0.8228(3) 0.4662(2) 0.2763(4)
C20A C 0.5426(3) 0.8468(4) 0.1662(5)
H13A H 0.5278 0.8474 0.2431
C21A C 0.6110(3) 0.8781(4) 0.0067(5)
H14A H 0.6526 0.9051 -0.0466
C22A C 0.5396(4) 0.8124(6) -0.0171(5)
H15A H 0.5234 0.7858 -0.0882
C23A C 0.4123(3) 0.7273(4) 0.0944(4)
C24A C 0.3941(3) 0.6485(4) 0.0932(4)
H16A H 0.4354 0.6362 0.0916
N3A N 0.6137(2) 0.8993(3) 0.1190(4)
N4A N 0.4948(2) 0.7919(3) 0.0837(4)
C20B C 0.1532(4) 0.6958(3) 0.1662(5)
H13B H 0.1526 0.6804 0.2431
C21B C 0.1219(4) 0.7329(3) 0.0067(5)
H14B H 0.0949 0.7475 -0.0466
C22B C 0.1876(6) 0.7272(4) -0.0171(5)
H15B H 0.2142 0.7376 -0.0882
C23B C 0.2727(4) 0.6850(3) 0.0944(4)
C24B C 0.3515(4) 0.7456(3) 0.0932(4)
H16B H 0.3638 0.7992 0.0916
N3B N 0.1007(3) 0.7144(2) 0.1190(4)
N4B N 0.2081(3) 0.7029(2) 0.0837(4)
C1A C 0.9017(3) -0.2726(4) 1.0446(4)
C2A C 0.8777(3) -0.2333(4) 0.9515(5)
C3A C 0.9339(3) -0.1719(4) 0.8871(5)
H1A H 0.9888 -0.1519 0.8996
C4A C 0.7967(3) -0.2607(4) 0.9340(5)
H2A H 0.7585 -0.3028 0.9794
C5A C 0.7717(3) -0.2271(4) 0.8512(5)
H3A H 0.7167 -0.2467 0.8408
C6A C 0.9072(3) -0.1391(4) 0.8009(5)
H4A H 0.9459 -0.0984 0.7542
C7A C 0.8278(3) -0.1631(4) 0.7810(5)
C8A C 0.8032(3) -0.1257(4) 0.6901(5)
C9A C 0.8462(4) -0.1023(5) 0.5855(5)
H5A H 0.8937 -0.1039 0.5759
C10A C 0.7342(3) -0.1195(4) 0.7038(5)
H6A H 0.7071 -0.1330 0.7747
C11A C 0.7053(3) -0.0932(4) 0.6124(5)
H7A H 0.6585 -0.0903 0.6222
C12A C 0.8147(4) -0.0761(5) 0.4949(5)
H8A H 0.8419 -0.0618 0.4241
C13A C 0.7464(3) -0.0709(4) 0.5062(4)
C14A C 0.7111(3) -0.0515(4) 0.4015(5)
O1A O 0.7600(3) -0.0142(4) 0.3178(3)
O2A O 0.6377(2) -0.0761(3) 0.3999(4)
O3A O 0.9763(2) -0.2495(3) 1.0557(4)
O4A O 0.8523(3) -0.3233(4) 1.1083(4)
Zn1A Zn 0.70438(3) 0.00358(4) 0.19154(4)
C1A_2 C -0.0983(3) -0.2726(4) 2.0446(4)
C2A_2 C -0.1223(3) -0.2333(4) 1.9515(5)
C3A_2 C -0.0661(3) -0.1719(4) 1.8871(5)
H1A_2 H -0.0112 -0.1519 1.8996
C4A_2 C -0.2033(3) -0.2607(4) 1.9340(5)
H2A_2 H -0.2415 -0.3028 1.9794
C5A_2 C -0.2283(3) -0.2271(4) 1.8512(5)
H3A_2 H -0.2833 -0.2467 1.8408
C6A_2 C -0.0928(3) -0.1391(4) 1.8009(5)
H4A_2 H -0.0541 -0.0984 1.7542
C7A_2 C -0.1722(3) -0.1631(4) 1.7810(5)
C8A_2 C -0.1968(3) -0.1257(4) 1.6901(5)
C9A_2 C -0.1538(4) -0.1023(5) 1.5855(5)
H5A_2 H -0.1063 -0.1039 1.5759
C10A_2 C -0.2658(3) -0.1195(4) 1.7038(5)
H6A_2 H -0.2929 -0.1330 1.7747
C11A_2 C -0.2947(3) -0.0932(4) 1.6124(5)
H7A_2 H -0.3415 -0.0903 1.6222
C12A_2 C -0.1853(4) -0.0761(5) 1.4949(5)
H8A_2 H -0.1581 -0.0618 1.4241
C13A_2 C -0.2536(3) -0.0709(4) 1.5062(4)
C14A_2 C -0.2889(3) -0.0515(4) 1.4015(5)
O1A_2 O -0.2400(3) -0.0142(4) 1.3178(3)
O2A_2 O -0.3623(2) -0.0761(3) 1.3999(4)
O3A_2 O -0.0237(2) -0.2495(3) 2.0557(4)
O4A_2 O -0.1477(3) -0.3233(4) 2.1083(4)
Zn1A_2 Zn -0.29562(3) 0.00358(4) 1.19154(4)
N1A_2 N -0.3400(2) 0.0719(3) 1.2399(4)
N3A_2 N -0.3863(2) -0.1007(3) 1.1190(4)
N3A_3 N 0.6137(2) -0.1007(3) 0.1190(4)
O3_2 O 0.7742(2) 0.0237(2) 0.0557(4)
O3B O 0.2495(3) 0.2258(2) 0.0557(4)
Zn1A_3 Zn 0.70438(3) 1.00358(4) 0.19154(4)
Zn1B Zn -0.00358(4) -0.29920(3) 2.19154(4)
Zn1B_2 Zn -0.00358(4) 0.70080(3) 0.19154(4)
Zn1B_3 Zn 0.99642(4) -0.29920(3) 1.19154(4)
Zn1B_4 Zn 0.99642(4) 0.70080(3) 0.19154(4)
C25 C 0.4462(3) 0.0205(3) 1.1161(5)
C26 C 0.5115(3) 0.0596(3) 1.0219(4)
C27 C 0.5402(3) 0.0142(3) 0.9704(5)
H17 H 0.5188 -0.0398 0.9908
C28 C 0.5426(4) 0.1392(4) 0.9885(5)
H18 H 0.5241 0.1708 1.0233
C29 C 0.6003(4) 0.1711(4) 0.9048(6)
H19 H 0.6197 0.2244 0.8824
C30 C 0.6008(3) 0.0483(4) 0.8884(5)
H20 H 0.6216 0.0176 0.8572
C31 C 0.6315(3) 0.1278(3) 0.8512(5)
C32 C 0.6947(3) 0.1624(3) 0.7598(5)
C33 C 0.7525(4) 0.1389(4) 0.7509(6)
H21 H 0.7533 0.1037 0.8059
C34 C 0.6948(3) 0.2152(4) 0.6723(5)
H22 H 0.6554 0.2301 0.6726
C35 C 0.7536(3) 0.2443(4) 0.5870(5)
H23 H 0.7540 0.2805 0.5325
C36 C 0.8086(3) 0.1668(4) 0.6623(6)
H24 H 0.8454 0.1484 0.6575
C37 C 0.8117(3) 0.2218(3) 0.5795(5)
C38 C 0.8757(3) 0.2541(3) 0.4891(5)
C39 C 0.9779(3) 0.1818(3) 0.2548(4)
H25 H 0.9320 0.1483 0.2981
C40 C 1.0711(3) 0.2844(3) 0.1698(5)
H26 H 1.1028 0.3370 0.1427
C41 C 1.0832(3) 0.2231(3) 0.1436(5)
H27 H 1.1241 0.2252 0.0973
C42 C 1.0099(3) 0.0757(3) 0.1958(4)
C43 C 0.9320(3) 0.0108(3) 0.1967(5)
H28 H 0.8872 0.0177 0.1978
C44 C 1.1071(3) 0.3898(3) 0.4821(5)
H29 H 1.0827 0.3389 0.5165
C45 C 1.1800(3) 0.4506(3) 0.5095(5)
H30 H 1.2152 0.4506 0.5654
C46 C 1.1262(3) 0.4865(3) 0.3679(4)
H31 H 1.1202 0.5165 0.3090
C47 C 1.2652(3) 0.5921(3) 0.4344(4)
C48 C 1.2585(3) 0.6604(3) 0.4342(5)
H32 H 1.2079 0.6561 0.4339
N5 N 1.0068(2) 0.2595(2) 0.2409(4)
N6 N 1.0230(2) 0.1565(2) 0.1986(4)
N7 N 1.0721(2) 0.4131(2) 0.3942(4)
N8 N 1.1926(2) 0.5145(2) 0.4367(4)
O5 O 0.9266(2) 0.2305(3) 0.4884(4)
O6 O 0.8735(2) 0.3001(2) 0.4133(3)
O7 O 0.4358(2) 0.0698(2) 1.1774(3)
O8 O 0.4100(2) -0.0542(2) 1.1294(4)
Zn2 Zn 0.96859(3) 0.33076(3) 0.31026(4)
C39A C 0.8182(3) -0.2039(4) 0.2548(4)
H25A H 0.8517 -0.2163 0.2981
C40A C 0.7156(3) -0.2133(4) 0.1698(5)
H26A H 0.6630 -0.2342 0.1427
C41A C 0.7769(3) -0.1399(4) 0.1436(5)
H27A H 0.7748 -0.1011 0.0973
C42A C 0.9243(3) -0.0658(4) 0.1958(4)
C43A C 0.9892(3) -0.0788(4) 0.1967(5)
H28A H 0.9823 -0.1305 0.1978
N5A N 0.7405(2) -0.2527(3) 0.2409(4)
N6A N 0.8435(2) -0.1335(3) 0.1986(4)
C39B C 1.2039(4) 0.0221(3) 0.2548(4)
H25B H 1.2163 0.0680 0.2981
C40B C 1.2133(4) -0.0711(3) 0.1698(5)
H26B H 1.2342 -0.1028 0.1427
C41B C 1.1399(4) -0.0832(3) 0.1436(5)
H27B H 1.1011 -0.1241 0.0973
C42B C 1.0658(4) -0.0099(3) 0.1958(4)
C43B C 1.0788(4) 0.0680(3) 0.1967(5)
H28B H 1.1305 0.1128 0.1978
N5B N 1.2527(3) -0.0068(2) 0.2409(4)
N6B N 1.1335(3) -0.0230(2) 0.1986(4)
C44A C 1.6102(3) 0.7173(4) 0.4821(5)
H29A H 1.6611 0.7438 0.5165
C45A C 1.5494(3) 0.7294(4) 0.5095(5)
H30A H 1.5494 0.7646 0.5654
C46A C 1.5135(3) 0.6397(4) 0.3679(4)
H31A H 1.4835 0.6037 0.3090
C47A C 1.4079(3) 0.6731(4) 0.4344(4)
C48A C 1.3396(3) 0.5981(4) 0.4342(5)
H32A H 1.3439 0.5518 0.4339
N7A N 1.5869(2) 0.6590(3) 0.3942(4)
N8A N 1.4855(2) 0.6781(3) 0.4367(4)
C44B C 1.2827(4) 0.8929(3) 0.4821(5)
H29B H 1.2562 0.9173 0.5165
C45B C 1.2706(4) 0.8200(3) 0.5095(5)
H30B H 1.2354 0.7848 0.5654
C46B C 1.3603(4) 0.8738(3) 0.3679(4)
H31B H 1.3963 0.8798 0.3090
C47B C 1.3269(4) 0.7348(3) 0.4344(4)
C48B C 1.4019(4) 0.7415(3) 0.4342(5)
H32B H 1.4482 0.7921 0.4339
N7B N 1.3410(3) 0.9279(2) 0.3942(4)
N8B N 1.3219(3) 0.8074(2) 0.4367(4)
C25A C 0.9795(3) -0.5743(4) 1.1161(5)
C26A C 0.9404(3) -0.5481(4) 1.0219(4)
C27A C 0.9858(3) -0.4740(4) 0.9704(5)
H17A H 1.0398 -0.4414 0.9908
C28A C 0.8608(4) -0.5966(6) 0.9885(5)
H18A H 0.8292 -0.6467 1.0233
C29A C 0.8289(4) -0.5708(6) 0.9048(6)
H19A H 0.7756 -0.6047 0.8824
C30A C 0.9517(4) -0.4475(5) 0.8884(5)
H20A H 0.9824 -0.3960 0.8572
C31A C 0.8722(3) -0.4963(4) 0.8512(5)
C32A C 0.8376(3) -0.4677(4) 0.7598(5)
C33A C 0.8611(4) -0.3864(6) 0.7509(6)
H21A H 0.8963 -0.3504 0.8059
C34A C 0.7848(4) -0.5204(5) 0.6723(5)
H22A H 0.7699 -0.5747 0.6726
C35A C 0.7557(4) -0.4907(5) 0.5870(5)
H23A H 0.7195 -0.5265 0.5325
C36A C 0.8332(4) -0.3582(5) 0.6623(6)
H24A H 0.8516 -0.3030 0.6575
C37A C 0.7782(3) -0.4101(4) 0.5795(5)
C38A C 0.7459(3) -0.3784(4) 0.4891(5)
O5A O 0.7695(3) -0.3039(4) 0.4884(4)
O6A O 0.6999(2) -0.4266(3) 0.4133(3)
O7A O 0.9302(2) -0.6340(3) 1.1774(3)
O8A O 1.0542(2) -0.5358(3) 1.1294(4)
Zn2A Zn 0.66924(3) -0.36217(4) 0.31026(4)
C25B C 0.5743(4) 0.5538(3) 2.1161(5)
C26B C 0.5481(4) 0.4885(3) 2.0219(4)
C27B C 0.4740(4) 0.4598(3) 1.9704(5)
H17B H 0.4414 0.4812 1.9908
C28B C 0.5966(6) 0.4574(4) 1.9885(5)
H18B H 0.6467 0.4759 2.0233
C29B C 0.5708(6) 0.3997(4) 1.9048(6)
H19B H 0.6047 0.3803 1.8824
C30B C 0.4475(5) 0.3992(3) 1.8884(5)
H20B H 0.3960 0.3784 1.8572
C31B C 0.4963(4) 0.3685(3) 1.8512(5)
C32B C 0.4677(4) 0.3053(3) 1.7598(5)
C33B C 0.3864(6) 0.2475(4) 1.7509(6)
H21B H 0.3504 0.2467 1.8059
C34B C 0.5204(5) 0.3052(3) 1.6723(5)
H22B H 0.5747 0.3446 1.6726
C35B C 0.4907(5) 0.2464(3) 1.5870(5)
H23B H 0.5265 0.2460 1.5325
C36B C 0.3582(5) 0.1914(3) 1.6623(6)
H24B H 0.3030 0.1546 1.6575
C37B C 0.4101(4) 0.1883(3) 1.5795(5)
C38B C 0.3784(4) 0.1243(3) 1.4891(5)
O5B O 0.3039(4) 0.0734(2) 1.4884(4)
O6B O 0.4266(3) 0.1265(2) 1.4133(3)
O7B O 0.6340(3) 0.5642(2) 2.1774(3)
O8B O 0.5358(3) 0.5900(2) 2.1294(4)
Zn2B Zn 0.36217(4) 0.03141(3) 1.31026(4)
N5B_2 N 0.2527(3) -0.0068(2) 1.2409(4)
N7A_2 N 0.5869(2) -0.3410(3) 0.3942(4)
N7B_2 N 0.3410(3) -0.0721(2) 1.3942(4)
O7A_2 O 0.9302(2) 0.3660(3) 0.1774(3)
O7B_2 O 0.6340(3) -0.4358(2) 0.1774(3)
Zn2_2 Zn 0.96859(3) -0.66924(3) 1.31026(4)
Zn2A_2 Zn 0.66924(3) 0.63783(4) 2.31026(4)
Zn2A_3 Zn 1.66924(3) 0.63783(4) 0.31026(4)
Zn2B_2 Zn 1.36217(4) 0.03141(3) 0.31026(4)
Zn2B_3 Zn 1.36217(4) 1.03141(3) 0.31026(4)
C49 C 0.4581(7) 0.5392(7) 0.6761(9)
C50 C 0.5083(7) 0.6393(7) 0.8186(10)
H33 H 0.4576 0.6369 0.8046
H34 H 0.5516 0.6938 0.8083
H35 H 0.5093 0.6221 0.8968
N9 N 0.5193(7) 0.5793(7) 0.7260(10)
C51 C 0.5876(6) 0.5712(7) 0.7102(10)
H36 H 0.5734 0.5240 0.6644
H37 H 0.6075 0.5661 0.7846
H38 H 0.6288 0.6181 0.6709
O9 O 0.3823(5) 0.5419(5) 0.6949(8)
C52 C 0.4474(6) 0.4731(6) 0.5880(8)
H39 H 0.4910 0.4956 0.5329
H40 H 0.3969 0.4533 0.5478
H41 H 0.4476 0.4294 0.6289
loop_
_geom_bond_atom_site_label_1
_geom_bond_atom_site_label_2
_geom_bond_site_symmetry_1
_geom_bond_site_symmetry_2
C1 C2 1_555 1_555
C2 C3 1_555 1_555
C3 H1 1_555 1_555
C4 C2 1_555 1_555
H2 C4 1_555 1_555
C5 C4 1_555 1_555
H3 C5 1_555 1_555
C6 C3 1_555 1_555
H4 C6 1_555 1_555
C7 C5 1_555 1_555
C8 C7 1_555 1_555
C9 C8 1_555 1_555
H5 C9 1_555 1_555
C10 C8 1_555 1_555
H6 C10 1_555 1_555
C11 C10 1_555 1_555
H7 C11 1_555 1_555
C12 C9 1_555 1_555
H8 C12 1_555 1_555
C13 C11 1_555 1_555
C14 C13 1_555 1_555
C15 H9 1_555 1_555
C16 H10 1_555 1_555
C17 C16 1_555 1_555
H11 C17 1_555 1_555
C18 C19 1_555 1_555
C19 H12 1_555 1_555
C20 H13 1_555 1_555
C21 H14 1_555 1_555
C22 C21 1_555 1_555
H15 C22 1_555 1_555
C23 C24 1_555 1_555
C24 H16 1_555 1_555
N1 C15 1_555 1_555
N2 C15 1_555 1_555
N3 C20 1_555 1_555
N4 C20 1_555 1_555
O1 C14 1_555 1_555
O2 C14 1_555 1_555
O3 C1 1_555 1_555
O4 C1 1_555 1_555
Zn1 N1 1_555 1_555
C25 C26 1_555 1_555
C26 C27 1_555 1_555
C27 H17 1_555 1_555
C28 C26 1_555 1_555
H18 C28 1_555 1_555
C29 C28 1_555 1_555
H19 C29 1_555 1_555
C30 C27 1_555 1_555
H20 C30 1_555 1_555
C31 C29 1_555 1_555
C32 C31 1_555 1_555
C33 C32 1_555 1_555
H21 C33 1_555 1_555
C34 C32 1_555 1_555
H22 C34 1_555 1_555
C35 C34 1_555 1_555
H23 C35 1_555 1_555
C36 C33 1_555 1_555
H24 C36 1_555 1_555
C37 C35 1_555 1_555
C38 C37 1_555 1_555
C39 H25 1_555 1_555
C40 H26 1_555 1_555
C41 C40 1_555 1_555
H27 C41 1_555 1_555
C42 C43 1_555 1_555
C43 H28 1_555 1_555
C44 H29 1_555 1_555
C45 C44 1_555 1_555
H30 C45 1_555 1_555
C46 H31 1_555 1_555
C47 C48 1_555 1_555
C48 H32 1_555 1_555
N5 C39 1_555 1_555
N6 C39 1_555 1_555
N7 C44 1_555 1_555
N8 C45 1_555 1_555
O5 C38 1_555 1_555
O6 C38 1_555 1_555
O7 C25 1_555 1_555
O8 C25 1_555 1_555
Zn2 N5 1_555 1_555
C49 N9 1_555 1_555
C50 H33 1_555 1_555
H34 C50 1_555 1_555
H35 C50 1_555 1_555
N9 C50 1_555 1_555
C51 N9 1_555 1_555
H36 C51 1_555 1_555
H37 C51 1_555 1_555
H38 C51 1_555 1_555
O9 C49 1_555 1_555
C52 C49 1_555 1_555
H39 C52 1_555 1_555
H40 C52 1_555 1_555
H41 C52 1_555 1_555
C15A H9A 1_555 1_555
C16A H10A 1_555 1_555
C17A C16A 1_555 1_555
H11A C17A 1_555 1_555
C18A C19 1_555 1_555
C19A C18A 1_555 1_555
H12A C19A 1_555 1_555
N1A C15A 1_555 1_555
N2A C15A 1_555 1_555
C15B H9B 1_555 1_555
C16B H10B 1_555 1_555
C17B C16B 1_555 1_555
H11B C17B 1_555 1_555
C18B C19A 1_555 1_555
C19B C18 1_555 1_555
H12B C19B 1_555 1_555
N1B C15B 1_555 1_555
N2B C15B 1_555 1_555
C20A H13A 1_555 1_555
C21A H14A 1_555 1_555
C22A C21A 1_555 1_555
H15A C22A 1_555 1_555
C23A C24A 1_555 1_555
C24A C23 1_555 1_555
H16A C24A 1_555 1_555
N3A C20A 1_555 1_555
N4A C20A 1_555 1_555
C20B H13B 1_555 1_555
C21B H14B 1_555 1_555
C22B C21B 1_555 1_555
H15B C22B 1_555 1_555
C23B C24 1_555 1_555
C24B C23A 1_555 1_555
H16B C24B 1_555 1_555
N3B C20B 1_555 1_555
N4B C20B 1_555 1_555
C1A C2A 1_555 1_555
C2A C3A 1_555 1_555
C3A H1A 1_555 1_555
C4A C2A 1_555 1_555
H2A C4A 1_555 1_555
C5A C4A 1_555 1_555
H3A C5A 1_555 1_555
C6A C3A 1_555 1_555
H4A C6A 1_555 1_555
C7A C5A 1_555 1_555
C8A C7A 1_555 1_555
C9A C8A 1_555 1_555
H5A C9A 1_555 1_555
C10A C8A 1_555 1_555
H6A C10A 1_555 1_555
C11A C10A 1_555 1_555
H7A C11A 1_555 1_555
C12A C9A 1_555 1_555
H8A C12A 1_555 1_555
C13A C11A 1_555 1_555
C14A C13A 1_555 1_555
O1A C14A 1_555 1_555
O2A C14A 1_555 1_555
O3A C1A 1_555 1_555
O4A C1A 1_555 1_555
Zn1A N1A 1_555 1_555
C1A_2 C2A_2 1_555 1_555
C2A_2 C3A_2 1_555 1_555
C3A_2 H1A_2 1_555 1_555
C4A_2 C2A_2 1_555 1_555
H2A_2 C4A_2 1_555 1_555
C5A_2 C4A_2 1_555 1_555
H3A_2 C5A_2 1_555 1_555
C6A_2 C3A_2 1_555 1_555
H4A_2 C6A_2 1_555 1_555
C7A_2 C5A_2 1_555 1_555
C8A_2 C7A_2 1_555 1_555
C9A_2 C8A_2 1_555 1_555
H5A_2 C9A_2 1_555 1_555
C10A_2 C8A_2 1_555 1_555
H6A_2 C10A_2 1_555 1_555
C11A_2 C10A_2 1_555 1_555
H7A_2 C11A_2 1_555 1_555
C12A_2 C9A_2 1_555 1_555
H8A_2 C12A_2 1_555 1_555
C13A_2 C11A_2 1_555 1_555
C14A_2 C13A_2 1_555 1_555
O1A_2 C14A_2 1_555 1_555
O2A_2 C14A_2 1_555 1_555
O3A_2 C1A_2 1_555 1_555
O4A_2 C1A_2 1_555 1_555
Zn1A_2 O3 1_555 1_555
N1A_2 Zn1A_2 1_555 1_555
N3A_2 Zn1A_2 1_555 1_555
N3A_3 Zn1A 1_555 1_555
O3_2 Zn1A 1_555 1_555
O3B Zn1 1_555 1_555
Zn1A_3 N3A 1_555 1_555
Zn1B O3A_2 1_555 1_555
Zn1B_2 N3B 1_555 1_555
Zn1B_3 O3A 1_555 1_555
Zn1B_4 N1B 1_555 1_555
C39A H25A 1_555 1_555
C40A H26A 1_555 1_555
C41A C40A 1_555 1_555
H27A C41A 1_555 1_555
C42A C43 1_555 1_555
C43A C42A 1_555 1_555
H28A C43A 1_555 1_555
N5A C39A 1_555 1_555
N6A C39A 1_555 1_555
C39B H25B 1_555 1_555
C40B H26B 1_555 1_555
C41B C40B 1_555 1_555
H27B C41B 1_555 1_555
C42B C43A 1_555 1_555
C43B C42 1_555 1_555
H28B C43B 1_555 1_555
N5B C39B 1_555 1_555
N6B C39B 1_555 1_555
C44A H29A 1_555 1_555
C45A C44A 1_555 1_555
H30A C45A 1_555 1_555
C46A H31A 1_555 1_555
C47A C48A 1_555 1_555
C48A C47 1_555 1_555
H32A C48A 1_555 1_555
N7A C44A 1_555 1_555
N8A C45A 1_555 1_555
C44B H29B 1_555 1_555
C45B C44B 1_555 1_555
H30B C45B 1_555 1_555
C46B H31B 1_555 1_555
C47B C48 1_555 1_555
C48B C47A 1_555 1_555
H32B C48B 1_555 1_555
N7B C44B 1_555 1_555
N8B C45B 1_555 1_555
C25A C26A 1_555 1_555
C26A C27A 1_555 1_555
C27A H17A 1_555 1_555
C28A C26A 1_555 1_555
H18A C28A 1_555 1_555
C29A C28A 1_555 1_555
H19A C29A 1_555 1_555
C30A C27A 1_555 1_555
H20A C30A 1_555 1_555
C31A C29A 1_555 1_555
C32A C31A 1_555 1_555
C33A C32A 1_555 1_555
H21A C33A 1_555 1_555
C34A C32A 1_555 1_555
H22A C34A 1_555 1_555
C35A C34A 1_555 1_555
H23A C35A 1_555 1_555
C36A C33A 1_555 1_555
H24A C36A 1_555 1_555
C37A C35A 1_555 1_555
C38A C37A 1_555 1_555
O5A C38A 1_555 1_555
O6A C38A 1_555 1_555
O7A C25A 1_555 1_555
O8A C25A 1_555 1_555
Zn2A N5A 1_555 1_555
C25B C26B 1_555 1_555
C26B C27B 1_555 1_555
C27B H17B 1_555 1_555
C28B C26B 1_555 1_555
H18B C28B 1_555 1_555
C29B C28B 1_555 1_555
H19B C29B 1_555 1_555
C30B C27B 1_555 1_555
H20B C30B 1_555 1_555
C31B C29B 1_555 1_555
C32B C31B 1_555 1_555
C33B C32B 1_555 1_555
H21B C33B 1_555 1_555
C34B C32B 1_555 1_555
H22B C34B 1_555 1_555
C35B C34B 1_555 1_555
H23B C35B 1_555 1_555
C36B C33B 1_555 1_555
H24B C36B 1_555 1_555
C37B C35B 1_555 1_555
C38B C37B 1_555 1_555
O5B C38B 1_555 1_555
O6B C38B 1_555 1_555
O7B C25B 1_555 1_555
O8B C25B 1_555 1_555
Zn2B O7 1_555 1_555
N5B_2 Zn2B 1_555 1_555
N7A_2 Zn2A 1_555 1_555
N7B_2 Zn2B 1_555 1_555
O7A_2 Zn2 1_555 1_555
O7B_2 Zn2A 1_555 1_555
Zn2_2 O7A 1_555 1_555
Zn2A_2 O7B 1_555 1_555
Zn2A_3 N7A 1_555 1_555
Zn2B_2 N5B 1_555 1_555
Zn2B_3 N7B 1_555 1_555
C6 C7 1_555 1_555
C12 C13 1_555 1_555
C16 N1 1_555 1_555
C17 N2 1_555 1_555
C18 N2 1_555 1_555
C21 N3 1_555 1_555
C22 N4 1_555 1_555
C23 N4 1_555 1_555
N3 Zn1 1_555 1_555
O1 Zn1 1_555 1_555
C30 C31 1_555 1_555
C36 C37 1_555 1_555
C40 N5 1_555 1_555
C41 N6 1_555 1_555
C42 N6 1_555 1_555
C46 N7 1_555 1_555
C46 N8 1_555 1_555
C47 N8 1_555 1_555
N7 Zn2 1_555 1_555
O6 Zn2 1_555 1_555
C16A N1A 1_555 1_555
C17A N2A 1_555 1_555
C18A N2A 1_555 1_555
C16B N1B 1_555 1_555
C17B N2B 1_555 1_555
C18B C19B 1_555 1_555
C18B N2B 1_555 1_555
C21A N3A 1_555 1_555
C22A N4A 1_555 1_555
C23A N4A 1_555 1_555
C21B N3B 1_555 1_555
C22B N4B 1_555 1_555
C23B C24B 1_555 1_555
C23B N4B 1_555 1_555
C6A C7A 1_555 1_555
C12A C13A 1_555 1_555
O1A Zn1A 1_555 1_555
C6A_2 C7A_2 1_555 1_555
C12A_2 C13A_2 1_555 1_555
O1A_2 Zn1A_2 1_555 1_555
C40A N5A 1_555 1_555
C41A N6A 1_555 1_555
C42A N6A 1_555 1_555
C40B N5B 1_555 1_555
C41B N6B 1_555 1_555
C42B C43B 1_555 1_555
C42B N6B 1_555 1_555
C46A N7A 1_555 1_555
C46A N8A 1_555 1_555
C47A N8A 1_555 1_555
C46B N7B 1_555 1_555
C46B N8B 1_555 1_555
C47B C48B 1_555 1_555
C47B N8B 1_555 1_555
C30A C31A 1_555 1_555
C36A C37A 1_555 1_555
O6A Zn2A 1_555 1_555
C30B C31B 1_555 1_555
C36B C37B 1_555 1_555
O6B Zn2B 1_555 1_555

#END
