
#######################################################################
#
#                 Cambridge Crystallographic Data Centre
#                                CCDC 
#
#######################################################################
#
# If this CIF has been generated from an entry in the Cambridge 
# Structural Database, then it will include bibliographic, chemical, 
# crystal, experimental, refinement or atomic coordinate data resulting 
# from the CCDC's data processing and validation procedures.
#
#######################################################################

data_HOPMOQ
_symmetry_cell_setting           monoclinic
_symmetry_space_group_name_H-M   'C 2/m'
_symmetry_Int_Tables_number      12
_space_group_name_Hall           '-C 2y'
loop_
_symmetry_equiv_pos_site_id
_symmetry_equiv_pos_as_xyz
1 x,y,z
2 -x,y,-z
3 1/2-x,1/2+y,-z
4 1/2+x,1/2+y,z
5 -x,-y,-z
6 x,-y,z
7 1/2+x,1/2-y,z
8 1/2-x,1/2-y,-z
_cell_length_a                   7.63691(19)
_cell_length_b                   11.76903(33)
_cell_length_c                   7.55678(18)
_cell_angle_alpha                90
_cell_angle_beta                 100.2115(12)
_cell_angle_gamma                90
_cell_volume                     668.438
loop_
_atom_site_label
_atom_site_type_symbol
_atom_site_fract_x
_atom_site_fract_y
_atom_site_fract_z
Rb1 Rb 0.00000 0.25000 0.50000
S1 S 0.32018(34) 0.00000 -0.32835(38)
C1 C 0.2603(11) 0.00000 -0.1197(12)
N1 N 0.26413(81) 0.09786(37) -0.02890(68)
C2 C 0.20410(76) 0.09902(53) 0.14544(74)
C3 C 0.1730(10) 0.00000 0.2265(12)
O1 O 0.19207(53) 0.19801(40) 0.20507(54)
H1 H 0.26905 0.159742 -0.074205
H2 H 0.15944 0.000 0.343206
N1E N 0.26413(81) -0.09786(37) -0.02890(68)
C2E C 0.20410(76) -0.09902(53) 0.14544(74)
O1E O 0.19207(53) -0.19801(40) 0.20507(54)
H1E H 0.26905 -0.159742 -0.074205
Rb1D Rb 0.00000 -0.25000 0.50000
Rb1G Rb 0.50000 0.25000 -0.50000
Rb1G_2 Rb 0.50000 0.25000 0.50000
Rb1B Rb 0.50000 -0.25000 -0.50000
Rb1B_2 Rb 0.50000 -0.25000 0.50000
S1G S 0.17982(34) 0.50000 0.32835(38)
S1F S -0.17982(34) 0.50000 0.67165(38)
O1A O -0.19207(53) 0.19801(40) 0.79493(54)
O1G O 0.30793(53) 0.30199(40) 0.79493(54)
O1F O -0.30793(53) 0.30199(40) 0.20507(54)
loop_
_geom_bond_atom_site_label_1
_geom_bond_atom_site_label_2
_geom_bond_site_symmetry_1
_geom_bond_site_symmetry_2
Rb1 O1 1_555 1_555
S1 C1 1_555 1_555
C1 N1 1_555 1_555
N1 C2 1_555 1_555
C2 C3 1_555 1_555
C3 H2 1_555 1_555
O1 C2 1_555 1_555
H1 N1 1_555 1_555
N1E C1 1_555 1_555
C2E C3 1_555 1_555
O1E C2E 1_555 1_555
H1E N1E 1_555 1_555
Rb1D O1E 1_555 1_555
Rb1G S1 1_555 1_555
Rb1G_2 O1 1_555 1_555
Rb1B S1 1_555 1_555
Rb1B_2 O1E 1_555 1_555
S1G Rb1 1_555 1_555
S1F Rb1 1_555 1_555
O1A Rb1 1_555 1_555
O1G Rb1 1_555 1_555
O1F Rb1 1_555 1_555
N1E C2E 1_555 1_555
Rb1G_2 O1G 1_555 1_555

#END
