
#######################################################################
#
#                 Cambridge Crystallographic Data Centre
#                                CCDC 
#
#######################################################################
#
# If this CIF has been generated from an entry in the Cambridge 
# Structural Database, then it will include bibliographic, chemical, 
# crystal, experimental, refinement or atomic coordinate data resulting 
# from the CCDC's data processing and validation procedures.
#
#######################################################################

data_HOPTEM
_symmetry_cell_setting           monoclinic
_symmetry_space_group_name_H-M   'C 2/c'
_symmetry_Int_Tables_number      15
_space_group_name_Hall           '-C 2yn'
loop_
_symmetry_equiv_pos_site_id
_symmetry_equiv_pos_as_xyz
1 x,y,z
2 1/2+x,1/2+y,z
3 -x,y,1/2-z
4 1/2-x,1/2+y,1/2-z
5 -x,-y,-z
6 1/2-x,1/2-y,-z
7 x,-y,1/2+z
8 1/2+x,1/2-y,1/2+z
_cell_length_a                   21.55(2)
_cell_length_b                   14.155(6)
_cell_length_c                   14.205(15)
_cell_angle_alpha                90
_cell_angle_beta                 131.07(3)
_cell_angle_gamma                90
_cell_volume                     3266.75
loop_
_atom_site_label
_atom_site_type_symbol
_atom_site_fract_x
_atom_site_fract_y
_atom_site_fract_z
Cu1 Cu 0.26960(2) 0.32846(2) 0.11362(3)
N1 N 0.38372(16) 0.28554(19) 0.2083(3)
C1 C 0.43932(17) 0.2505(2) 0.2271(3)
N2 N 0.5000 0.2036(3) 0.2500
C2 C 0.2490(2) 0.0122(2) 0.1476(3)
C3 C 0.2509(2) -0.0855(2) 0.1613(3)
C4 C 0.1802(2) -0.1343(2) 0.1140(4)
C5 C 0.1061(2) -0.0864(2) 0.0500(4)
C6 C 0.1038(2) 0.0116(2) 0.0366(3)
C7 C 0.1750(2) 0.0621(2) 0.0862(3)
C8 C 0.17607(17) 0.1668(2) 0.0746(2)
O3 O 0.23821(14) 0.19843(15) 0.0885(2)
C9 C 0.11436(18) 0.2227(2) 0.0511(3)
C10 C 0.10612(17) 0.3225(2) 0.0312(3)
C11 C 0.02895(19) 0.3680(2) -0.0061(3)
N3 N 0.16217(15) 0.37296(17) 0.0453(2)
C12 C 0.14998(19) 0.4749(2) 0.0216(3)
C13 C 0.23037(19) 0.5226(2) 0.0796(3)
C14 C 0.2371(2) 0.6207(2) 0.0802(3)
C15 C 0.3134(2) 0.6595(2) 0.1373(3)
C16 C 0.3807(2) 0.6013(2) 0.1934(3)
C17 C 0.3697(2) 0.5049(2) 0.1879(3)
N4 N 0.29584(16) 0.46543(17) 0.1317(2)
H1 H 0.2966 0.0439 0.1812
H2 H 0.3000 -0.1172 0.2025
H3 H 0.1824 -0.1994 0.1251
H4 H 0.0577 -0.1194 0.0161
H5 H 0.0546 0.0434 -0.0068
H6 H 0.0753 0.1933 0.0488
H7 H 0.0035 0.4070 -0.0791
H8 H 0.0443 0.4056 0.0632
H9 H -0.0089 0.3201 -0.0255
H10 H 0.1146 0.4821 -0.0678
H11 H 0.1351 0.4946 0.0697
H12 H 0.1909 0.6581 0.0427
H13 H 0.3193 0.7250 0.1374
H14 H 0.4326 0.6265 0.2340
H15 H 0.4145 0.4656 0.2233
Cu1E Cu 0.23040(2) 0.17154(2) -0.11362(3)
Cu1B Cu 0.73040(2) 0.32846(2) 0.38638(3)
N1B N 0.61628(16) 0.28554(19) 0.2917(3)
N1E N 0.11628(16) 0.21446(19) -0.2083(3)
C1B C 0.56068(17) 0.2505(2) 0.2729(3)
C2E C 0.2510(2) 0.4878(2) -0.1476(3)
C3E C 0.2491(2) 0.5855(2) -0.1613(3)
C4E C 0.3198(2) 0.6343(2) -0.1140(4)
C5E C 0.3939(2) 0.5864(2) -0.0500(4)
C6E C 0.3962(2) 0.4884(2) -0.0366(3)
C7E C 0.3250(2) 0.4379(2) -0.0862(3)
C8E C 0.32393(17) 0.3332(2) -0.0746(2)
O3E O 0.26179(14) 0.30157(15) -0.0885(2)
C9E C 0.38564(18) 0.2773(2) -0.0511(3)
C10E C 0.39388(17) 0.1775(2) -0.0312(3)
C11E C 0.47105(19) 0.1320(2) 0.0061(3)
N3E N 0.33783(15) 0.12704(17) -0.0453(2)
C12E C 0.35002(19) 0.0251(2) -0.0216(3)
C13E C 0.26963(19) -0.0226(2) -0.0796(3)
C14E C 0.2629(2) -0.1207(2) -0.0802(3)
C15E C 0.1866(2) -0.1595(2) -0.1373(3)
C16E C 0.1193(2) -0.1013(2) -0.1934(3)
C17E C 0.1303(2) -0.0049(2) -0.1879(3)
N4E N 0.20416(16) 0.03457(17) -0.1317(2)
H1E H 0.2034 0.4561 -0.1812
H2E H 0.2000 0.6172 -0.2025
H3E H 0.3176 0.6994 -0.1251
H4E H 0.4423 0.6194 -0.0161
H5E H 0.4454 0.4566 0.0068
H6E H 0.4247 0.3067 -0.0488
H7E H 0.4965 0.0930 0.0791
H8E H 0.4557 0.0944 -0.0632
H9E H 0.5089 0.1799 0.0255
H10E H 0.3854 0.0179 0.0678
H11E H 0.3649 0.0054 -0.0697
H12E H 0.3091 -0.1581 -0.0427
H13E H 0.1807 -0.2250 -0.1374
H14E H 0.0674 -0.1265 -0.2340
H15E H 0.0855 0.0344 -0.2233
Cl1 Cl 0.0000 0.33961(7) 0.2500
O1 O -0.04190(17) 0.28173(19) 0.1401(2)
O2 O 0.0586(2) 0.3974(2) 0.2601(3)
O1B O 0.04190(17) 0.28173(19) 0.3599(2)
O2B O -0.0586(2) 0.3974(2) 0.2399(3)
loop_
_geom_bond_atom_site_label_1
_geom_bond_atom_site_label_2
_geom_bond_site_symmetry_1
_geom_bond_site_symmetry_2
Cu1 N1 1_555 1_555
Cl1 O1 1_555 1_555
O2 Cl1 1_555 1_555
N1 C1 1_555 1_555
C1 N2 1_555 1_555
N2 C1B 1_555 1_555
C2 C3 1_555 1_555
C3 C4 1_555 1_555
C4 C5 1_555 1_555
C5 C6 1_555 1_555
C6 C7 1_555 1_555
C7 C2 1_555 1_555
C8 C7 1_555 1_555
O3 Cu1 1_555 1_555
C9 C8 1_555 1_555
C10 C9 1_555 1_555
C11 C10 1_555 1_555
N3 Cu1 1_555 1_555
C12 N3 1_555 1_555
C13 C12 1_555 1_555
C14 C13 1_555 1_555
C15 C14 1_555 1_555
C16 C15 1_555 1_555
C17 C16 1_555 1_555
N4 Cu1 1_555 1_555
H1 C2 1_555 1_555
H2 C3 1_555 1_555
H3 C4 1_555 1_555
H4 C5 1_555 1_555
H5 C6 1_555 1_555
H6 C9 1_555 1_555
H7 C11 1_555 1_555
H8 C11 1_555 1_555
H9 C11 1_555 1_555
H10 C12 1_555 1_555
H11 C12 1_555 1_555
H12 C14 1_555 1_555
H13 C15 1_555 1_555
H14 C16 1_555 1_555
H15 C17 1_555 1_555
Cu1E O3 1_555 1_555
Cu1B N1B 1_555 1_555
O1B Cl1 1_555 1_555
O2B Cl1 1_555 1_555
N1B C1B 1_555 1_555
N1E Cu1E 1_555 1_555
C2E C3E 1_555 1_555
C3E C4E 1_555 1_555
C4E C5E 1_555 1_555
C5E C6E 1_555 1_555
C6E C7E 1_555 1_555
C7E C2E 1_555 1_555
C8E C7E 1_555 1_555
O3E Cu1 1_555 1_555
C9E C8E 1_555 1_555
C10E C9E 1_555 1_555
C11E C10E 1_555 1_555
N3E Cu1E 1_555 1_555
C12E N3E 1_555 1_555
C13E C12E 1_555 1_555
C14E C13E 1_555 1_555
C15E C14E 1_555 1_555
C16E C15E 1_555 1_555
C17E C16E 1_555 1_555
N4E Cu1E 1_555 1_555
H1E C2E 1_555 1_555
H2E C3E 1_555 1_555
H3E C4E 1_555 1_555
H4E C5E 1_555 1_555
H5E C6E 1_555 1_555
H6E C9E 1_555 1_555
H7E C11E 1_555 1_555
H8E C11E 1_555 1_555
H9E C11E 1_555 1_555
H10E C12E 1_555 1_555
H11E C12E 1_555 1_555
H12E C14E 1_555 1_555
H13E C15E 1_555 1_555
H14E C16E 1_555 1_555
H15E C17E 1_555 1_555
C8 O3 1_555 1_555
C10 N3 1_555 1_555
C13 N4 1_555 1_555
C17 N4 1_555 1_555
Cu1E O3E 1_555 1_555
C8E O3E 1_555 1_555
C10E N3E 1_555 1_555
C13E N4E 1_555 1_555
C17E N4E 1_555 1_555

#END
