
#######################################################################
#
#                 Cambridge Crystallographic Data Centre
#                                CCDC 
#
#######################################################################
#
# If this CIF has been generated from an entry in the Cambridge 
# Structural Database, then it will include bibliographic, chemical, 
# crystal, experimental, refinement or atomic coordinate data resulting 
# from the CCDC's data processing and validation procedures.
#
#######################################################################

data_HOPVOZ
_symmetry_cell_setting           monoclinic
_symmetry_space_group_name_H-M   'P 21/c'
_symmetry_Int_Tables_number      14
_space_group_name_Hall           '-P 2ybc'
loop_
_symmetry_equiv_pos_site_id
_symmetry_equiv_pos_as_xyz
1 x,y,z
2 -x,1/2+y,1/2-z
3 -x,-y,-z
4 x,1/2-y,1/2+z
_cell_length_a                   16.4141(18)
_cell_length_b                   6.8343(7)
_cell_length_c                   14.5433(16)
_cell_angle_alpha                90
_cell_angle_beta                 101.808(2)
_cell_angle_gamma                90
_cell_volume                     1596.93
loop_
_atom_site_label
_atom_site_type_symbol
_atom_site_fract_x
_atom_site_fract_y
_atom_site_fract_z
Nd1 Nd 0.180868(8) 0.36047(2) 0.794639(9)
O1 O 0.32599(13) 0.2492(4) 0.83631(17)
O2 O 0.41420(14) 0.2719(4) 0.97396(16)
O3 O 0.56675(17) 0.2285(4) 1.03700(18)
H1 H 0.5186(15) 0.276(7) 1.018(3)
O4 O 0.67745(16) 0.1427(4) 0.9848(2)
O5 O 0.03453(11) 0.2585(3) 0.80641(12)
O6 O -0.09274(13) 0.1462(3) 0.74953(15)
O7 O -0.17390(13) 0.0217(3) 0.56183(14)
O8 O -0.16596(14) 0.1671(3) 0.42764(14)
O9 O 0.18617(16) 0.0240(3) 0.73701(16)
H2 H 0.180(2) -0.016(4) 0.6810(8)
H3 H 0.197(2) -0.061(3) 0.7800(13)
O10 O 0.23509(14) 0.4505(4) 0.65470(15)
H4 H 0.2877 0.4310 0.6648
H5 H 0.2189 0.5653 0.6342
O11 O 0.19152(15) 0.1069(3) 0.92536(15)
H6 H 0.2377(13) 0.050(6) 0.948(2)
H7 H 0.1635(18) 0.141(5) 0.9663(18)
O12 O 0.27773(16) 0.6664(4) 0.8221(2)
H8 H 0.297(2) 0.704(8) 0.8782(14)
H9 H 0.314(2) 0.644(6) 0.789(2)
N1 N 0.45369(18) 0.1252(4) 0.7518(2)
H10 H 0.4056(14) 0.119(6) 0.710(2)
N2 N 0.5253(2) 0.0866(5) 0.7258(2)
N3 N 0.58468(18) 0.1015(4) 0.8007(2)
N4 N 0.07011(14) 0.2960(3) 0.63485(15)
N5 N 0.07333(16) 0.3100(4) 0.54558(16)
N6 N -0.00096(15) 0.2537(4) 0.49667(16)
H11 H -0.010(2) 0.261(6) 0.4336(8)
C1 C 0.39608(18) 0.2343(4) 0.8875(2)
C2 C 0.46548(19) 0.1694(4) 0.8433(2)
C3 C 0.55015(19) 0.1509(4) 0.8749(2)
C4 C 0.6030(2) 0.1743(5) 0.9697(3)
C5 C -0.02330(17) 0.2072(4) 0.73999(18)
C6 C -0.00621(16) 0.2294(4) 0.64311(18)
C7 C -0.05289(18) 0.2004(4) 0.55337(18)
C8 C -0.13835(18) 0.1247(4) 0.51128(19)
Nd1A Nd -0.180868(8) -0.13953(2) 0.705361(9)
O6A O 0.09274(13) 0.6462(3) 0.75047(15)
O7A O 0.17390(13) 0.5217(3) 0.93817(14)
O13 O 0.67543(18) 0.5948(5) 0.89901(17)
H12 H 0.718(2) 0.522(7) 0.909(3)
H13 H 0.657(3) 0.633(6) 0.9460(19)
loop_
_geom_bond_atom_site_label_1
_geom_bond_atom_site_label_2
_geom_bond_site_symmetry_1
_geom_bond_site_symmetry_2
Nd1 O1 1_555 1_555
O1 C1 1_555 1_555
O2 C1 1_555 1_555
O3 H1 1_555 1_555
O4 C4 1_555 1_555
O5 Nd1 1_555 1_555
O6 C5 1_555 1_555
O7 C8 1_555 1_555
O8 C8 1_555 1_555
O9 Nd1 1_555 1_555
H2 O9 1_555 1_555
H3 O9 1_555 1_555
O10 Nd1 1_555 1_555
H4 O10 1_555 1_555
H5 O10 1_555 1_555
O11 Nd1 1_555 1_555
H6 O11 1_555 1_555
H7 O11 1_555 1_555
O12 Nd1 1_555 1_555
H8 O12 1_555 1_555
H9 O12 1_555 1_555
N1 H10 1_555 1_555
N2 N1 1_555 1_555
N3 N2 1_555 1_555
N4 Nd1 1_555 1_555
N5 N4 1_555 1_555
N6 N5 1_555 1_555
H11 N6 1_555 1_555
C1 C2 1_555 1_555
C2 N1 1_555 1_555
C3 N3 1_555 1_555
C4 O3 1_555 1_555
C5 O5 1_555 1_555
C6 N4 1_555 1_555
C7 N6 1_555 1_555
C8 C7 1_555 1_555
O13 H12 1_555 1_555
H13 O13 1_555 1_555
Nd1A O6 1_555 1_555
O6A Nd1 1_555 1_555
O7A Nd1 1_555 1_555
O7 Nd1A 1_555 1_555
C2 C3 1_555 1_555
C3 C4 1_555 1_555
C5 C6 1_555 1_555
C6 C7 1_555 1_555

#END
