
#######################################################################
#
#                 Cambridge Crystallographic Data Centre
#                                CCDC 
#
#######################################################################
#
# If this CIF has been generated from an entry in the Cambridge 
# Structural Database, then it will include bibliographic, chemical, 
# crystal, experimental, refinement or atomic coordinate data resulting 
# from the CCDC's data processing and validation procedures.
#
#######################################################################

data_HOPVUF
_symmetry_cell_setting           monoclinic
_symmetry_space_group_name_H-M   'P 21/c'
_symmetry_Int_Tables_number      14
_space_group_name_Hall           '-P 2ybc'
loop_
_symmetry_equiv_pos_site_id
_symmetry_equiv_pos_as_xyz
1 x,y,z
2 -x,1/2+y,1/2-z
3 -x,-y,-z
4 x,1/2-y,1/2+z
_cell_length_a                   16.477(3)
_cell_length_b                   6.8521(11)
_cell_length_c                   14.560(3)
_cell_angle_alpha                90
_cell_angle_beta                 101.789(2)
_cell_angle_gamma                90
_cell_volume                     1609.18
loop_
_atom_site_label
_atom_site_type_symbol
_atom_site_fract_x
_atom_site_fract_y
_atom_site_fract_z
Pr1 Pr 0.181204(11) 0.64011(3) 0.295108(14)
O1 O 0.32700(18) 0.7526(5) 0.3370(3)
O2 O 0.4146(2) 0.7287(6) 0.4742(2)
O3 O 0.5667(2) 0.7715(6) 0.5374(3)
H1 H 0.5171 0.7544 0.5167
O4 O 0.6774(2) 0.8563(5) 0.4842(3)
O5 O 0.03410(16) 0.7426(4) 0.30635(18)
O6 O -0.09281(17) 0.8533(4) 0.2488(2)
O7 O -0.17385(17) 0.9778(5) 0.0610(2)
O8 O -0.1650(2) 0.8318(5) -0.0725(2)
O9 O 0.19171(19) 0.8941(5) 0.4265(2)
H2 H 0.2401 0.9386 0.4472
H3 H 0.1626 0.8688 0.4670
O10 O 0.1865(2) 0.9775(4) 0.2371(2)
H4 H 0.1900 1.0680 0.2776
H5 H 0.1775 1.0249 0.1821
O11 O 0.2784(2) 0.3338(5) 0.3224(3)
H6 H 0.3212 0.3473 0.2990
H7 H 0.2855 0.2872 0.3775
O12 O 0.2350(2) 0.5454(7) 0.1543(2)
H8 H 0.2727 0.4620 0.1725
H9 H 0.2481 0.6470 0.1273
N1 N 0.4536(2) 0.8762(5) 0.2518(3)
H10 H 0.4058 0.8799 0.2146
N2 N 0.5251(3) 0.9144(7) 0.2260(3)
N3 N 0.5846(2) 0.8991(6) 0.3004(3)
N4 N 0.06981(19) 0.7044(5) 0.1344(2)
N5 N 0.0733(2) 0.6905(5) 0.0455(2)
N6 N -0.0007(2) 0.7460(5) -0.0034(2)
H11 H -0.0139 0.7477 -0.0637
C1 C 0.3965(2) 0.7672(6) 0.3878(3)
C2 C 0.4657(3) 0.8314(6) 0.3433(3)
C3 C 0.5502(3) 0.8493(6) 0.3744(3)
C4 C 0.6027(3) 0.8247(7) 0.4693(4)
C5 C -0.0238(2) 0.7929(5) 0.2390(2)
C6 C -0.0062(2) 0.7709(6) 0.1430(3)
C7 C -0.0525(2) 0.7990(6) 0.0533(3)
C8 C -0.1376(2) 0.8749(5) 0.0109(3)
Pr1A Pr -0.181204(11) 1.14011(3) 0.204892(14)
O6A O 0.09281(17) 0.3533(4) 0.2512(2)
O7A O 0.17385(17) 0.4778(5) 0.4390(2)
O13 O 0.3252(2) 0.9059(6) 0.1008(2)
H12 H 0.3425 0.8685 0.0525
H13 H 0.2882 0.9940 0.0929
loop_
_geom_bond_atom_site_label_1
_geom_bond_atom_site_label_2
_geom_bond_site_symmetry_1
_geom_bond_site_symmetry_2
Pr1 O1 1_555 1_555
O1 C1 1_555 1_555
O2 C1 1_555 1_555
O3 H1 1_555 1_555
O4 C4 1_555 1_555
O5 Pr1 1_555 1_555
O6 C5 1_555 1_555
O7 C8 1_555 1_555
O8 C8 1_555 1_555
O9 Pr1 1_555 1_555
H2 O9 1_555 1_555
H3 O9 1_555 1_555
O10 Pr1 1_555 1_555
H4 O10 1_555 1_555
H5 O10 1_555 1_555
O11 Pr1 1_555 1_555
H6 O11 1_555 1_555
H7 O11 1_555 1_555
O12 Pr1 1_555 1_555
H8 O12 1_555 1_555
H9 O12 1_555 1_555
N1 H10 1_555 1_555
N2 N1 1_555 1_555
N3 N2 1_555 1_555
N4 Pr1 1_555 1_555
N5 N4 1_555 1_555
N6 N5 1_555 1_555
H11 N6 1_555 1_555
C1 C2 1_555 1_555
C2 N1 1_555 1_555
C3 N3 1_555 1_555
C4 O3 1_555 1_555
C5 O5 1_555 1_555
C6 N4 1_555 1_555
C7 N6 1_555 1_555
C8 C7 1_555 1_555
O13 H12 1_555 1_555
H13 O13 1_555 1_555
Pr1A O6 1_555 1_555
O6A Pr1 1_555 1_555
O7A Pr1 1_555 1_555
O7 Pr1A 1_555 1_555
C2 C3 1_555 1_555
C3 C4 1_555 1_555
C5 C6 1_555 1_555
C6 C7 1_555 1_555

#END
