
#######################################################################
#
#                 Cambridge Crystallographic Data Centre
#                                CCDC 
#
#######################################################################
#
# If this CIF has been generated from an entry in the Cambridge 
# Structural Database, then it will include bibliographic, chemical, 
# crystal, experimental, refinement or atomic coordinate data resulting 
# from the CCDC's data processing and validation procedures.
#
#######################################################################

data_HOPVEO
_symmetry_cell_setting           triclinic
_symmetry_space_group_name_H-M   'P -1'
_symmetry_Int_Tables_number      2
_space_group_name_Hall           '-P 1'
loop_
_symmetry_equiv_pos_site_id
_symmetry_equiv_pos_as_xyz
1 x,y,z
2 -x,-y,-z
_cell_length_a                   10.1724(6)
_cell_length_b                   10.8612(7)
_cell_length_c                   22.0757(14)
_cell_angle_alpha                81.6880(10)
_cell_angle_beta                 83.8290(10)
_cell_angle_gamma                66.2990(10)
_cell_volume                     2206.56
loop_
_atom_site_label
_atom_site_type_symbol
_atom_site_fract_x
_atom_site_fract_y
_atom_site_fract_z
Zn1 Zn 1.5000 0.5000 0.0000
Zn2 Zn 1.29591(3) 0.44427(3) 0.121385(13)
Zn3 Zn 0.10305(3) 0.50397(3) 0.448002(13)
O1 O 1.36153(19) 0.4375(2) -0.02978(8)
O2 O 1.2351(2) 0.38651(19) 0.05230(8)
C1 C 1.2718(3) 0.3922(3) -0.00430(12)
C2 C 1.2007(3) 0.3381(3) -0.04391(12)
C3 C 1.2546(3) 0.3148(3) -0.10316(13)
H1 H 1.3329 0.3354 -0.1188
C4 C 1.1935(4) 0.2614(4) -0.13921(16)
H2 H 1.2317 0.2440 -0.1788
C5 C 1.0762(4) 0.2337(4) -0.11679(18)
H3 H 1.0344 0.1980 -0.1412
C6 C 1.0209(4) 0.2584(4) -0.05871(17)
H4 H 0.9411 0.2397 -0.0437
C7 C 1.0822(3) 0.3110(3) -0.02207(14)
H5 H 1.0435 0.3282 0.0174
O3 O 1.5856(2) 0.32691(19) 0.06214(8)
O4 O 1.4737(2) 0.3019(2) 0.15247(8)
C8 C 1.5855(3) 0.2776(3) 0.11680(12)
C9 C 1.7249(3) 0.1832(3) 0.14236(11)
C10 C 1.8531(3) 0.1570(3) 0.10757(14)
H6 H 1.8518 0.1964 0.0672
C11 C 1.9827(3) 0.0729(3) 0.13218(17)
H7 H 2.0681 0.0558 0.1084
C12 C 1.9854(4) 0.0150(4) 0.19140(18)
H8 H 2.0726 -0.0409 0.2082
C13 C 1.8592(4) 0.0395(4) 0.22595(16)
H9 H 1.8612 -0.0004 0.2663
C14 C 1.7292(3) 0.1224(3) 0.20181(13)
H10 H 1.6442 0.1374 0.2257
O5 O 1.34084(18) 0.60094(18) 0.07422(8)
O6 O 1.3160(2) 0.6127(2) 0.17279(9)
C15 C 1.3379(3) 0.6618(3) 0.12015(13)
C16 C 1.3527(3) 0.7942(3) 0.10992(13)
C17 C 1.3708(3) 0.8504(3) 0.15910(16)
H11 H 1.3746 0.8057 0.1985
C18 C 1.3833(4) 0.9755(4) 0.1486(2)
H12 H 1.3976 1.0135 0.1812
C19 C 1.3745(4) 1.0419(4) 0.0908(2)
H13 H 1.3823 1.1253 0.0844
C20 C 1.3544(4) 0.9871(3) 0.04228(18)
H14 H 1.3471 1.0338 0.0032
C21 C 1.3450(3) 0.8628(3) 0.05154(14)
H15 H 1.3333 0.8247 0.0184
O7 O 0.0562(2) 0.3545(2) 0.42327(9)
O8 O -0.0969(2) 0.3501(2) 0.50238(9)
C22 C -0.0280(3) 0.3079(3) 0.45433(13)
C23 C -0.0443(3) 0.1912(3) 0.43199(12)
C24 C 0.0449(3) 0.1269(3) 0.38476(14)
H16 H 0.1120 0.1595 0.3651
C25 C 0.0360(4) 0.0150(4) 0.36626(16)
H17 H 0.0976 -0.0279 0.3346
C26 C -0.0629(5) -0.0337(4) 0.39420(18)
H18 H -0.0677 -0.1104 0.3823
C27 C -0.1547(5) 0.0322(4) 0.43996(17)
H19 H -0.2246 0.0018 0.4582
C28 C -0.1448(4) 0.1428(4) 0.45917(15)
H20 H -0.2067 0.1854 0.4909
O9 O -0.0792(2) 0.6408(2) 0.40705(9)
O10 O -0.2283(2) 0.6388(2) 0.48794(9)
C29 C -0.2010(3) 0.6797(3) 0.43392(13)
C30 C -0.3240(3) 0.7845(3) 0.39939(13)
C31 C -0.3113(4) 0.8170(3) 0.33732(14)
H21 H -0.2242 0.7737 0.3161
C32 C -0.4245(4) 0.9121(4) 0.30575(16)
H22 H -0.4149 0.9313 0.2635
C33 C -0.5525(4) 0.9788(5) 0.3373(2)
H23 H -0.6290 1.0448 0.3164
C34 C -0.5671(4) 0.9479(5) 0.3993(2)
H24 H -0.6540 0.9921 0.4204
C35 C -0.4536(4) 0.8515(4) 0.43031(16)
H25 H -0.4641 0.8313 0.4725
N1 N 1.1317(2) 0.4353(2) 0.18073(10)
N2 N 0.2664(2) 0.5064(2) 0.38658(10)
C36 C 1.0501(3) 0.3742(3) 0.16763(14)
H26 H 1.0721 0.3333 0.1316
C37 C 0.9344(3) 0.3683(3) 0.20472(14)
H27 H 0.8796 0.3257 0.1931
C38 C 0.9000(3) 0.4253(3) 0.25867(12)
C39 C 0.9857(3) 0.4863(3) 0.27335(12)
H28 H 0.9673 0.5252 0.3099
C40 C 1.0993(3) 0.4898(3) 0.23366(12)
H29 H 1.1556 0.5320 0.2443
C41 C 0.7702(3) 0.4244(3) 0.29916(13)
H30 H 0.7802 0.3316 0.3109
H31 H 0.7665 0.4641 0.3363
C42 C 0.6311(3) 0.5021(4) 0.26736(14)
H32 H 0.6220 0.5944 0.2548
H33 H 0.6336 0.4610 0.2308
C43 C 0.5017(3) 0.5036(4) 0.30853(13)
C44 C 0.4571(4) 0.4011(4) 0.31615(18)
H34 H 0.5058 0.3262 0.2949
C45 C 0.3404(4) 0.4053(4) 0.35498(17)
H35 H 0.3130 0.3325 0.3589
C46 C 0.3069(4) 0.6086(4) 0.37798(18)
H36 H 0.2543 0.6840 0.3985
C47 C 0.4236(4) 0.6098(4) 0.34002(18)
H37 H 0.4485 0.6842 0.3361
Zn2A Zn 1.70409(3) 0.55573(3) -0.121385(13)
Zn3A Zn 2.89695(3) 0.49603(3) -0.448002(13)
Zn3A_2 Zn -0.10305(3) 0.49603(3) 0.551998(13)
O1A O 1.63847(19) 0.5625(2) 0.02978(8)
O2A O 1.7649(2) 0.61349(19) -0.05230(8)
C1A C 1.7282(3) 0.6078(3) 0.00430(12)
C2A C 1.7993(3) 0.6619(3) 0.04391(12)
C3A C 1.7454(3) 0.6852(3) 0.10316(13)
H1A H 1.6671 0.6646 0.1188
C4A C 1.8065(4) 0.7386(4) 0.13921(16)
H2A H 1.7683 0.7560 0.1788
C5A C 1.9238(4) 0.7663(4) 0.11679(18)
H3A H 1.9656 0.8020 0.1412
C6A C 1.9791(4) 0.7416(4) 0.05871(17)
H4A H 2.0589 0.7603 0.0437
C7A C 1.9178(3) 0.6890(3) 0.02207(14)
H5A H 1.9565 0.6718 -0.0174
O3A O 1.4144(2) 0.67309(19) -0.06214(8)
O4A O 1.5263(2) 0.6981(2) -0.15247(8)
C8A C 1.4145(3) 0.7224(3) -0.11680(12)
C9A C 1.2751(3) 0.8168(3) -0.14236(11)
C10A C 1.1469(3) 0.8430(3) -0.10757(14)
H6A H 1.1482 0.8036 -0.0672
C11A C 1.0173(3) 0.9271(3) -0.13218(17)
H7A H 0.9319 0.9442 -0.1084
C12A C 1.0146(4) 0.9850(4) -0.19140(18)
H8A H 0.9274 1.0409 -0.2082
C13A C 1.1408(4) 0.9605(4) -0.22595(16)
H9A H 1.1388 1.0004 -0.2663
C14A C 1.2708(3) 0.8776(3) -0.20181(13)
H10A H 1.3558 0.8626 -0.2257
O5A O 1.65916(18) 0.39906(18) -0.07422(8)
O6A O 1.6840(2) 0.3873(2) -0.17279(9)
C15A C 1.6621(3) 0.3382(3) -0.12015(13)
C16A C 1.6473(3) 0.2058(3) -0.10992(13)
C17A C 1.6292(3) 0.1496(3) -0.15910(16)
H11A H 1.6254 0.1943 -0.1985
C18A C 1.6167(4) 0.0245(4) -0.1486(2)
H12A H 1.6024 -0.0135 -0.1812
C19A C 1.6255(4) -0.0419(4) -0.0908(2)
H13A H 1.6177 -0.1253 -0.0844
C20A C 1.6456(4) 0.0129(3) -0.04228(18)
H14A H 1.6529 -0.0338 -0.0032
C21A C 1.6550(3) 0.1372(3) -0.05154(14)
H15A H 1.6667 0.1753 -0.0184
O7A O -0.0562(2) 0.6455(2) 0.57673(9)
O8A O 0.0969(2) 0.6499(2) 0.49762(9)
C22A C 0.0280(3) 0.6921(3) 0.54567(13)
C23A C 0.0443(3) 0.8088(3) 0.56801(12)
C24A C -0.0449(3) 0.8731(3) 0.61524(14)
H16A H -0.1120 0.8405 0.6349
C25A C -0.0360(4) 0.9850(4) 0.63374(16)
H17A H -0.0976 1.0279 0.6654
C26A C 0.0629(5) 1.0337(4) 0.60580(18)
H18A H 0.0677 1.1104 0.6177
C27A C 0.1547(5) 0.9678(4) 0.56004(17)
H19A H 0.2246 0.9982 0.5418
C28A C 0.1448(4) 0.8572(4) 0.54083(15)
H20A H 0.2067 0.8146 0.5091
O9A O 0.0792(2) 0.3592(2) 0.59295(9)
O10A O 0.2283(2) 0.3612(2) 0.51206(9)
C29A C 0.2010(3) 0.3203(3) 0.56608(13)
C30A C 0.3240(3) 0.2155(3) 0.60061(13)
C31A C 0.3113(4) 0.1830(3) 0.66268(14)
H21A H 0.2242 0.2263 0.6839
C32A C 0.4245(4) 0.0879(4) 0.69425(16)
H22A H 0.4149 0.0687 0.7365
C33A C 0.5525(4) 0.0212(5) 0.6627(2)
H23A H 0.6290 -0.0448 0.6836
C34A C 0.5671(4) 0.0521(5) 0.6007(2)
H24A H 0.6540 0.0079 0.5796
C35A C 0.4536(4) 0.1485(4) 0.56969(16)
H25A H 0.4641 0.1687 0.5275
N1A N 1.8683(2) 0.5647(2) -0.18073(10)
N2A N 2.7336(2) 0.4936(2) -0.38658(10)
N2A_2 N -0.2664(2) 0.4936(2) 0.61342(10)
C36A C 1.9499(3) 0.6258(3) -0.16763(14)
H26A H 1.9279 0.6667 -0.1316
C37A C 2.0656(3) 0.6317(3) -0.20472(14)
H27A H 2.1204 0.6743 -0.1931
C38A C 2.1000(3) 0.5747(3) -0.25867(12)
C39A C 2.0143(3) 0.5137(3) -0.27335(12)
H28A H 2.0327 0.4748 -0.3099
C40A C 1.9007(3) 0.5102(3) -0.23366(12)
H29A H 1.8444 0.4680 -0.2443
C41A C 2.2298(3) 0.5756(3) -0.29916(13)
H30A H 2.2198 0.6684 -0.3109
H31A H 2.2335 0.5359 -0.3363
C42A C 2.3689(3) 0.4979(4) -0.26736(14)
H32A H 2.3780 0.4056 -0.2548
H33A H 2.3664 0.5390 -0.2308
C43A C 2.4983(3) 0.4964(4) -0.30853(13)
C44A C 2.5429(4) 0.5989(4) -0.31615(18)
H34A H 2.4942 0.6738 -0.2949
C45A C 2.6596(4) 0.5947(4) -0.35498(17)
H35A H 2.6870 0.6675 -0.3589
C46A C 2.6931(4) 0.3914(4) -0.37798(18)
H36A H 2.7457 0.3160 -0.3985
C47A C 2.5764(4) 0.3902(4) -0.34002(18)
H37A H 2.5515 0.3158 -0.3361
loop_
_geom_bond_atom_site_label_1
_geom_bond_atom_site_label_2
_geom_bond_site_symmetry_1
_geom_bond_site_symmetry_2
Zn1 O1 1_555 1_555
Zn2 O2 1_555 1_555
Zn3 O7 1_555 1_555
O1 C1 1_555 1_555
O2 C1 1_555 1_555
C1 C2 1_555 1_555
C2 C3 1_555 1_555
C3 H1 1_555 1_555
C4 C3 1_555 1_555
H2 C4 1_555 1_555
C5 C4 1_555 1_555
H3 C5 1_555 1_555
C6 C5 1_555 1_555
H4 C6 1_555 1_555
C7 C2 1_555 1_555
H5 C7 1_555 1_555
O3 Zn1 1_555 1_555
O4 Zn2 1_555 1_555
C8 O3 1_555 1_555
C9 C8 1_555 1_555
C10 C9 1_555 1_555
H6 C10 1_555 1_555
C11 C10 1_555 1_555
H7 C11 1_555 1_555
C12 C11 1_555 1_555
H8 C12 1_555 1_555
C13 C12 1_555 1_555
H9 C13 1_555 1_555
C14 C9 1_555 1_555
H10 C14 1_555 1_555
O5 Zn1 1_555 1_555
O6 Zn2 1_555 1_555
C15 O5 1_555 1_555
C16 C15 1_555 1_555
C17 C16 1_555 1_555
H11 C17 1_555 1_555
C18 C17 1_555 1_555
H12 C18 1_555 1_555
C19 C18 1_555 1_555
H13 C19 1_555 1_555
C20 C19 1_555 1_555
H14 C20 1_555 1_555
C21 C16 1_555 1_555
H15 C21 1_555 1_555
O7 C22 1_555 1_555
O8 C22 1_555 1_555
C22 C23 1_555 1_555
C23 C24 1_555 1_555
C24 H16 1_555 1_555
C25 C24 1_555 1_555
H17 C25 1_555 1_555
C26 C25 1_555 1_555
H18 C26 1_555 1_555
C27 C26 1_555 1_555
H19 C27 1_555 1_555
C28 C23 1_555 1_555
H20 C28 1_555 1_555
O9 Zn3 1_555 1_555
O10 C29 1_555 1_555
C29 O9 1_555 1_555
C30 C29 1_555 1_555
C31 C30 1_555 1_555
H21 C31 1_555 1_555
C32 C31 1_555 1_555
H22 C32 1_555 1_555
C33 C32 1_555 1_555
H23 C33 1_555 1_555
C34 C33 1_555 1_555
H24 C34 1_555 1_555
C35 C30 1_555 1_555
H25 C35 1_555 1_555
N1 Zn2 1_555 1_555
N2 Zn3 1_555 1_555
C36 N1 1_555 1_555
H26 C36 1_555 1_555
C37 C36 1_555 1_555
H27 C37 1_555 1_555
C38 C37 1_555 1_555
C39 C38 1_555 1_555
H28 C39 1_555 1_555
C40 N1 1_555 1_555
H29 C40 1_555 1_555
C41 C38 1_555 1_555
H30 C41 1_555 1_555
H31 C41 1_555 1_555
C42 C41 1_555 1_555
H32 C42 1_555 1_555
H33 C42 1_555 1_555
C43 C42 1_555 1_555
C44 C43 1_555 1_555
H34 C44 1_555 1_555
C45 N2 1_555 1_555
H35 C45 1_555 1_555
C46 N2 1_555 1_555
H36 C46 1_555 1_555
C47 C43 1_555 1_555
H37 C47 1_555 1_555
Zn2A O2A 1_555 1_555
Zn3A N2A 1_555 1_555
Zn3A_2 O8 1_555 1_555
O1A Zn1 1_555 1_555
O2A C1A 1_555 1_555
C1A O1A 1_555 1_555
C2A C1A 1_555 1_555
C3A C2A 1_555 1_555
H1A C3A 1_555 1_555
C4A C3A 1_555 1_555
H2A C4A 1_555 1_555
C5A C4A 1_555 1_555
H3A C5A 1_555 1_555
C6A C5A 1_555 1_555
H4A C6A 1_555 1_555
C7A C2A 1_555 1_555
H5A C7A 1_555 1_555
O3A Zn1 1_555 1_555
O4A Zn2A 1_555 1_555
C8A O3A 1_555 1_555
C9A C8A 1_555 1_555
C10A C9A 1_555 1_555
H6A C10A 1_555 1_555
C11A C10A 1_555 1_555
H7A C11A 1_555 1_555
C12A C11A 1_555 1_555
H8A C12A 1_555 1_555
C13A C12A 1_555 1_555
H9A C13A 1_555 1_555
C14A C9A 1_555 1_555
H10A C14A 1_555 1_555
O5A Zn1 1_555 1_555
O6A Zn2A 1_555 1_555
C15A O5A 1_555 1_555
C16A C15A 1_555 1_555
C17A C16A 1_555 1_555
H11A C17A 1_555 1_555
C18A C17A 1_555 1_555
H12A C18A 1_555 1_555
C19A C18A 1_555 1_555
H13A C19A 1_555 1_555
C20A C19A 1_555 1_555
H14A C20A 1_555 1_555
C21A C16A 1_555 1_555
H15A C21A 1_555 1_555
O7A Zn3A_2 1_555 1_555
O8A Zn3 1_555 1_555
C22A O7A 1_555 1_555
C23A C22A 1_555 1_555
C24A C23A 1_555 1_555
H16A C24A 1_555 1_555
C25A C24A 1_555 1_555
H17A C25A 1_555 1_555
C26A C25A 1_555 1_555
H18A C26A 1_555 1_555
C27A C26A 1_555 1_555
H19A C27A 1_555 1_555
C28A C23A 1_555 1_555
H20A C28A 1_555 1_555
O9A Zn3A_2 1_555 1_555
O10A Zn3 1_555 1_555
C29A O9A 1_555 1_555
C30A C29A 1_555 1_555
C31A C30A 1_555 1_555
H21A C31A 1_555 1_555
C32A C31A 1_555 1_555
H22A C32A 1_555 1_555
C33A C32A 1_555 1_555
H23A C33A 1_555 1_555
C34A C33A 1_555 1_555
H24A C34A 1_555 1_555
C35A C30A 1_555 1_555
H25A C35A 1_555 1_555
N1A Zn2A 1_555 1_555
N2A C45A 1_555 1_555
N2A_2 Zn3A_2 1_555 1_555
C36A N1A 1_555 1_555
H26A C36A 1_555 1_555
C37A C36A 1_555 1_555
H27A C37A 1_555 1_555
C38A C37A 1_555 1_555
C39A C38A 1_555 1_555
H28A C39A 1_555 1_555
C40A N1A 1_555 1_555
H29A C40A 1_555 1_555
C41A C38A 1_555 1_555
H30A C41A 1_555 1_555
H31A C41A 1_555 1_555
C42A C41A 1_555 1_555
H32A C42A 1_555 1_555
H33A C42A 1_555 1_555
C43A C42A 1_555 1_555
C44A C43A 1_555 1_555
H34A C44A 1_555 1_555
C45A C44A 1_555 1_555
H35A C45A 1_555 1_555
C46A N2A 1_555 1_555
H36A C46A 1_555 1_555
C47A C43A 1_555 1_555
H37A C47A 1_555 1_555
Zn2 O5 1_555 1_555
C6 C7 1_555 1_555
O4 C8 1_555 1_555
C13 C14 1_555 1_555
O6 C15 1_555 1_555
C20 C21 1_555 1_555
C27 C28 1_555 1_555
O10 Zn3A_2 1_555 1_555
C34 C35 1_555 1_555
C39 C40 1_555 1_555
C44 C45 1_555 1_555
C46 C47 1_555 1_555
Zn2A O5A 1_555 1_555
C6A C7A 1_555 1_555
O4A C8A 1_555 1_555
C13A C14A 1_555 1_555
O6A C15A 1_555 1_555
C20A C21A 1_555 1_555
O8A C22A 1_555 1_555
C27A C28A 1_555 1_555
O10A C29A 1_555 1_555
C34A C35A 1_555 1_555
C39A C40A 1_555 1_555
C46A C47A 1_555 1_555

#END
