
#######################################################################
#
#                 Cambridge Crystallographic Data Centre
#                                CCDC 
#
#######################################################################
#
# If this CIF has been generated from an entry in the Cambridge 
# Structural Database, then it will include bibliographic, chemical, 
# crystal, experimental, refinement or atomic coordinate data resulting 
# from the CCDC's data processing and validation procedures.
#
#######################################################################

data_HOPXEQ
_symmetry_cell_setting           monoclinic
_symmetry_space_group_name_H-M   'C 2/c'
_symmetry_Int_Tables_number      15
_space_group_name_Hall           '-C 2yn'
loop_
_symmetry_equiv_pos_site_id
_symmetry_equiv_pos_as_xyz
1 x,y,z
2 -x,y,1/2-z
3 1/2+x,1/2+y,z
4 1/2-x,1/2+y,1/2-z
5 -x,-y,-z
6 x,-y,1/2+z
7 1/2-x,1/2-y,-z
8 1/2+x,1/2-y,1/2+z
_cell_length_a                   18.991(4)
_cell_length_b                   7.6220(17)
_cell_length_c                   19.921(4)
_cell_angle_alpha                90
_cell_angle_beta                 95.695(3)
_cell_angle_gamma                90
_cell_volume                     2869.32
loop_
_atom_site_label
_atom_site_type_symbol
_atom_site_fract_x
_atom_site_fract_y
_atom_site_fract_z
C1 C 0.09465(15) -0.1286(4) -0.00140(15)
H1 H 0.0581 -0.1488 0.0255
C2 C 0.08210(16) -0.1589(5) -0.06926(15)
H2 H 0.0379 -0.1962 -0.0882
C3 C 0.13680(17) -0.1325(5) -0.10867(15)
H3 H 0.1304 -0.1541 -0.1548
C4 C 0.20065(16) -0.0742(4) -0.07913(14)
H4 H 0.2381 -0.0560 -0.1051
C5 C 0.20912(13) -0.0423(3) -0.01012(13)
C6 C 0.27610(14) 0.0281(3) 0.02509(13)
C7 C 0.33465(15) 0.0634(4) -0.00886(14)
H5 H 0.3337 0.0407 -0.0548
C8 C 0.39432(15) 0.1327(4) 0.02632(15)
H6 H 0.4340 0.1576 0.0042
C9 C 0.39509(15) 0.1650(4) 0.09400(15)
H7 H 0.4349 0.2120 0.1186
C10 C 0.33514(15) 0.1256(4) 0.12455(15)
H8 H 0.3353 0.1469 0.1705
C11 C 0.10197(13) 0.6727(3) 0.18086(12)
C12 C 0.04947(12) 0.5651(3) 0.21568(11)
C13 C 0.04995(12) 0.3823(3) 0.21649(11)
C14 C 0.0000 0.2941(4) 0.2500
H9 H 0.0000 0.1721 0.2500
C15 C 0.0000 0.6531(4) 0.2500
H10 H 0.0000 0.7751 0.2500
C16 C 0.09942(13) 0.2681(3) 0.18109(12)
Cd1 Cd 0.175670(9) -0.01639(2) 0.142540(8)
H11 H 0.263(3) -0.007(5) 0.261(2)
H12 H 0.278(2) -0.168(7) 0.244(2)
N1 N 0.15650(11) -0.0718(3) 0.02809(10)
N2 N 0.27693(11) 0.0586(3) 0.09161(11)
O1 O 0.24841(13) -0.0880(4) 0.23844(13)
O2 O 0.14730(9) 0.1890(3) 0.21825(10)
O3 O 0.08171(10) 0.8242(3) 0.16288(10)
O4 O 0.16122(10) 0.6120(3) 0.17289(10)
O5 O 0.08830(10) 0.2426(3) 0.11999(9)
C1A C -0.09465(15) -0.1286(4) 0.50140(15)
H1A H -0.0581 -0.1488 0.4745
C2A C -0.08210(16) -0.1589(5) 0.56926(15)
H2A H -0.0379 -0.1962 0.5882
C3A C -0.13680(17) -0.1325(5) 0.60867(15)
H3A H -0.1304 -0.1541 0.6548
C4A C -0.20065(16) -0.0742(4) 0.57913(14)
H4A H -0.2381 -0.0560 0.6051
C5A C -0.20912(13) -0.0423(3) 0.51012(13)
C6A C -0.27610(14) 0.0281(3) 0.47491(13)
C7A C -0.33465(15) 0.0634(4) 0.50886(14)
H5A H -0.3337 0.0407 0.5548
C8A C -0.39432(15) 0.1327(4) 0.47368(15)
H6A H -0.4340 0.1576 0.4958
C9A C -0.39509(15) 0.1650(4) 0.40600(15)
H7A H -0.4349 0.2120 0.3814
C10A C -0.33514(15) 0.1256(4) 0.37545(15)
H8A H -0.3353 0.1469 0.3295
C11A C -0.10197(13) 0.6727(3) 0.31914(12)
C12A C -0.04947(12) 0.5651(3) 0.28432(11)
C13A C -0.04995(12) 0.3823(3) 0.28351(11)
C16A C -0.09942(13) 0.2681(3) 0.31891(12)
Cd1A Cd -0.175670(9) 0.98361(2) 0.357460(8)
Cd1_2 Cd 0.175670(9) 0.98361(2) 0.142540(8)
Cd1A_2 Cd -0.175670(9) -0.01639(2) 0.357460(8)
H11A H -0.263(3) -0.007(5) 0.239(2)
H12A H -0.278(2) -0.168(7) 0.256(2)
N1A N -0.15650(11) -0.0718(3) 0.47191(10)
N2A N -0.27693(11) 0.0586(3) 0.40839(11)
O1A O -0.24841(13) -0.0880(4) 0.26156(13)
O2A O -0.14730(9) 0.1890(3) 0.28175(10)
O3A O -0.08171(10) 0.8242(3) 0.33712(10)
O3_2 O 0.08171(10) -0.1758(3) 0.16288(10)
O3A_2 O -0.08171(10) -0.1758(3) 0.33712(10)
O4A O -0.16122(10) 0.6120(3) 0.32711(10)
O5A O -0.08830(10) 0.2426(3) 0.38001(9)
loop_
_geom_bond_atom_site_label_1
_geom_bond_atom_site_label_2
_geom_bond_site_symmetry_1
_geom_bond_site_symmetry_2
C1 H1 1_555 1_555
C2 C1 1_555 1_555
H2 C2 1_555 1_555
C3 C2 1_555 1_555
H3 C3 1_555 1_555
C4 C3 1_555 1_555
H4 C4 1_555 1_555
C5 C4 1_555 1_555
C6 C5 1_555 1_555
C7 C6 1_555 1_555
H5 C7 1_555 1_555
C8 C7 1_555 1_555
H6 C8 1_555 1_555
C9 C8 1_555 1_555
H7 C9 1_555 1_555
C10 C9 1_555 1_555
H8 C10 1_555 1_555
C11 C12 1_555 1_555
C12 C13 1_555 1_555
C13 C14 1_555 1_555
C14 H9 1_555 1_555
C15 C12 1_555 1_555
H10 C15 1_555 1_555
C16 C13 1_555 1_555
Cd1 N1 1_555 1_555
H11 O1 1_555 1_555
H12 O1 1_555 1_555
N1 C1 1_555 1_555
N2 C6 1_555 1_555
O1 Cd1 1_555 1_555
O2 C16 1_555 1_555
O3 C11 1_555 1_555
O4 C11 1_555 1_555
O5 C16 1_555 1_555
C1A H1A 1_555 1_555
C2A C1A 1_555 1_555
H2A C2A 1_555 1_555
C3A C2A 1_555 1_555
H3A C3A 1_555 1_555
C4A C3A 1_555 1_555
H4A C4A 1_555 1_555
C5A C4A 1_555 1_555
C6A C5A 1_555 1_555
C7A C6A 1_555 1_555
H5A C7A 1_555 1_555
C8A C7A 1_555 1_555
H6A C8A 1_555 1_555
C9A C8A 1_555 1_555
H7A C9A 1_555 1_555
C10A C9A 1_555 1_555
H8A C10A 1_555 1_555
C11A C12A 1_555 1_555
C12A C15 1_555 1_555
C13A C14 1_555 1_555
C16A C13A 1_555 1_555
Cd1A O3A 1_555 1_555
Cd1_2 O3 1_555 1_555
Cd1A_2 N1A 1_555 1_555
H11A O1A 1_555 1_555
H12A O1A 1_555 1_555
N1A C1A 1_555 1_555
N2A C6A 1_555 1_555
O1A Cd1A_2 1_555 1_555
O2A C16A 1_555 1_555
O3A C11A 1_555 1_555
O3_2 Cd1 1_555 1_555
O3A_2 Cd1A_2 1_555 1_555
O4A C11A 1_555 1_555
O5A C16A 1_555 1_555
C5 N1 1_555 1_555
C10 N2 1_555 1_555
Cd1 N2 1_555 1_555
Cd1 O2 1_555 1_555
Cd1 O5 1_555 1_555
C5A N1A 1_555 1_555
C10A N2A 1_555 1_555
C12A C13A 1_555 1_555
Cd1A_2 N2A 1_555 1_555
Cd1A_2 O2A 1_555 1_555
Cd1A_2 O5A 1_555 1_555

#END
