
#######################################################################
#
#                 Cambridge Crystallographic Data Centre
#                                CCDC 
#
#######################################################################
#
# If this CIF has been generated from an entry in the Cambridge 
# Structural Database, then it will include bibliographic, chemical, 
# crystal, experimental, refinement or atomic coordinate data resulting 
# from the CCDC's data processing and validation procedures.
#
#######################################################################

data_HOPXIU
_symmetry_cell_setting           monoclinic
_symmetry_space_group_name_H-M   'C 2/c'
_symmetry_Int_Tables_number      15
_space_group_name_Hall           '-C 2yn'
loop_
_symmetry_equiv_pos_site_id
_symmetry_equiv_pos_as_xyz
1 x,y,z
2 -x,y,1/2-z
3 1/2+x,1/2+y,z
4 1/2-x,1/2+y,1/2-z
5 -x,-y,-z
6 x,-y,1/2+z
7 1/2-x,1/2-y,-z
8 1/2+x,1/2-y,1/2+z
_cell_length_a                   30.4223(16)
_cell_length_b                   9.1824(5)
_cell_length_c                   12.7442(7)
_cell_angle_alpha                90
_cell_angle_beta                 107.144(3)
_cell_angle_gamma                90
_cell_volume                     3401.9
loop_
_atom_site_label
_atom_site_type_symbol
_atom_site_fract_x
_atom_site_fract_y
_atom_site_fract_z
Cd1 Cd 0.0000 0.28565(6) 0.2500
O1 O -0.25789(10) -0.0052(4) -0.5270(2)
O2 O -0.01599(15) 0.2776(5) 0.0556(3)
O3 O 0.05341(18) 0.3230(8) 0.0712(4)
O4 O 0.00414(15) 0.3265(6) -0.0845(3)
N1 N -0.05486(12) 0.1005(4) 0.2139(3)
N2 N -0.15560(12) 0.0501(4) -0.0894(3)
N3 N -0.44805(12) -0.0120(5) -0.7138(3)
H1 H -0.4556(19) 0.028(6) -0.784(5)
H2 H -0.457(2) 0.038(7) -0.665(6)
N4 N 0.01208(16) 0.3121(5) 0.0080(4)
C1 C -0.05283(15) -0.0031(6) 0.2894(4)
H3 H -0.0322 0.0089 0.3590
C2 C -0.07941(17) -0.1248(6) 0.2692(4)
H4 H -0.0767 -0.1942 0.3239
C3 C -0.11028(15) -0.1440(6) 0.1671(4)
H5 H -0.1284 -0.2273 0.1514
C4 C -0.11401(14) -0.0368(5) 0.0873(3)
C5 C -0.08534(14) 0.0824(5) 0.1152(3)
H6 H -0.0874 0.1540 0.0624
C6 C -0.14649(15) -0.0531(6) -0.0209(4)
H7 H -0.1611 -0.1423 -0.0405
C7 C -0.18455(13) 0.0260(5) -0.1974(3)
C8 C -0.18416(16) -0.1003(6) -0.2553(4)
H8 H -0.1663 -0.1787 -0.2209
C9 C -0.21029(17) -0.1116(6) -0.3648(4)
H9 H -0.2098 -0.1970 -0.4036
C10 C -0.23670(13) 0.0032(6) -0.4151(3)
C11 C -0.23794(16) 0.1303(6) -0.3584(4)
H10 H -0.2561 0.2082 -0.3928
C12 C -0.21185(15) 0.1402(6) -0.2500(4)
H11 H -0.2126 0.2257 -0.2115
C13 C -0.30536(13) -0.0104(5) -0.5674(3)
C14 C -0.32285(14) -0.0096(5) -0.6804(3)
H12 H -0.3031 -0.0056 -0.7238
C15 C -0.37001(14) -0.0149(5) -0.7288(3)
H13 H -0.3818 -0.0156 -0.8049
C16 C -0.39942(13) -0.0190(5) -0.6657(3)
C17 C -0.38116(15) -0.0229(6) -0.5527(4)
H14 H -0.4010 -0.0278 -0.5095
C18 C -0.33431(14) -0.0197(6) -0.5022(3)
H15 H -0.3225 -0.0238 -0.4261
Cd1B Cd -0.5000 -0.21435(6) -0.7500
Cd1B_2 Cd 0.5000 0.78565(6) 1.2500
O1B O 0.24211(10) 0.4948(4) 0.4730(2)
O2A O 0.01599(15) 0.2776(5) 0.4444(3)
O3A O -0.05341(18) 0.3230(8) 0.4288(4)
O4A O -0.00414(15) 0.3265(6) 0.5845(3)
N1B N 0.44514(12) 0.6005(4) 1.2139(3)
N1A N 0.05486(12) 0.1005(4) 0.2861(3)
N2B N 0.34440(12) 0.5501(4) 0.9106(3)
N3B N 0.05195(12) 0.4880(5) 0.2862(3)
N3C N -0.05195(12) 0.4880(5) 0.2138(3)
H1B H 0.0444(19) 0.528(6) 0.216(5)
H1C H -0.0444(19) 0.528(6) 0.284(5)
H2B H 0.043(2) 0.538(7) 0.335(6)
H2C H -0.043(2) 0.538(7) 0.165(6)
N4A N -0.01208(16) 0.3121(5) 0.4920(4)
C1B C 0.44717(15) 0.4969(6) 1.2894(4)
H3B H 0.4678 0.5089 1.3590
C2B C 0.42059(17) 0.3752(6) 1.2692(4)
H4B H 0.4233 0.3058 1.3239
C3B C 0.38972(15) 0.3560(6) 1.1671(4)
H5B H 0.3716 0.2727 1.1514
C4B C 0.38599(14) 0.4632(5) 1.0873(3)
C5B C 0.41466(14) 0.5824(5) 1.1152(3)
H6B H 0.4126 0.6540 1.0624
C6B C 0.35351(15) 0.4469(6) 0.9791(4)
H7B H 0.3389 0.3577 0.9595
C7B C 0.31545(13) 0.5260(5) 0.8026(3)
C8B C 0.31584(16) 0.3997(6) 0.7447(4)
H8B H 0.3337 0.3213 0.7791
C9B C 0.28971(17) 0.3884(6) 0.6352(4)
H9B H 0.2902 0.3030 0.5964
C10B C 0.26330(13) 0.5032(6) 0.5849(3)
C11B C 0.26206(16) 0.6303(6) 0.6416(4)
H10B H 0.2439 0.7082 0.6072
C12B C 0.28815(15) 0.6402(6) 0.7500(4)
H11B H 0.2874 0.7257 0.7885
C13B C 0.19464(13) 0.4896(5) 0.4326(3)
C14B C 0.17715(14) 0.4904(5) 0.3196(3)
H12B H 0.1969 0.4944 0.2762
C15B C 0.12999(14) 0.4851(5) 0.2712(3)
H13B H 0.1182 0.4844 0.1951
C16B C 0.10058(13) 0.4810(5) 0.3343(3)
C17B C 0.11884(15) 0.4771(6) 0.4473(4)
H14B H 0.0990 0.4722 0.4905
C18B C 0.16569(14) 0.4803(6) 0.4978(3)
H15B H 0.1775 0.4762 0.5739
loop_
_geom_bond_atom_site_label_1
_geom_bond_atom_site_label_2
_geom_bond_site_symmetry_1
_geom_bond_site_symmetry_2
Cd1 O2 1_555 1_555
O1 C10 1_555 1_555
O2 N4 1_555 1_555
O3 N4 1_555 1_555
O4 N4 1_555 1_555
N1 Cd1 1_555 1_555
N2 C6 1_555 1_555
N3 H1 1_555 1_555
H2 N3 1_555 1_555
C1 N1 1_555 1_555
H3 C1 1_555 1_555
C2 C1 1_555 1_555
H4 C2 1_555 1_555
C3 C2 1_555 1_555
H5 C3 1_555 1_555
C4 C3 1_555 1_555
C5 N1 1_555 1_555
H6 C5 1_555 1_555
C6 C4 1_555 1_555
H7 C6 1_555 1_555
C7 N2 1_555 1_555
C8 C7 1_555 1_555
H8 C8 1_555 1_555
C9 C8 1_555 1_555
H9 C9 1_555 1_555
C10 C9 1_555 1_555
C11 C10 1_555 1_555
H10 C11 1_555 1_555
C12 C7 1_555 1_555
H11 C12 1_555 1_555
C13 O1 1_555 1_555
C14 C13 1_555 1_555
H12 C14 1_555 1_555
C15 C14 1_555 1_555
H13 C15 1_555 1_555
C16 N3 1_555 1_555
C17 C16 1_555 1_555
H14 C17 1_555 1_555
C18 C13 1_555 1_555
H15 C18 1_555 1_555
Cd1B N3 1_555 1_555
Cd1B_2 N1B 1_555 1_555
O1B C10B 1_555 1_555
O2A Cd1 1_555 1_555
O3A N4A 1_555 1_555
O4A N4A 1_555 1_555
N1B C1B 1_555 1_555
N1A Cd1 1_555 1_555
N2B C6B 1_555 1_555
N3B Cd1 1_555 1_555
N3C Cd1 1_555 1_555
H1B N3B 1_555 1_555
H1C N3C 1_555 1_555
H2B N3B 1_555 1_555
H2C N3C 1_555 1_555
N4A O2A 1_555 1_555
C1B H3B 1_555 1_555
C2B C1B 1_555 1_555
H4B C2B 1_555 1_555
C3B C2B 1_555 1_555
H5B C3B 1_555 1_555
C4B C3B 1_555 1_555
C5B N1B 1_555 1_555
H6B C5B 1_555 1_555
C6B C4B 1_555 1_555
H7B C6B 1_555 1_555
C7B N2B 1_555 1_555
C8B C7B 1_555 1_555
H8B C8B 1_555 1_555
C9B C8B 1_555 1_555
H9B C9B 1_555 1_555
C10B C9B 1_555 1_555
C11B C10B 1_555 1_555
H10B C11B 1_555 1_555
C12B C7B 1_555 1_555
H11B C12B 1_555 1_555
C13B O1B 1_555 1_555
C14B C13B 1_555 1_555
H12B C14B 1_555 1_555
C15B C14B 1_555 1_555
H13B C15B 1_555 1_555
C16B N3B 1_555 1_555
C17B C16B 1_555 1_555
H14B C17B 1_555 1_555
C18B C13B 1_555 1_555
H15B C18B 1_555 1_555
C4 C5 1_555 1_555
C11 C12 1_555 1_555
C15 C16 1_555 1_555
C17 C18 1_555 1_555
C4B C5B 1_555 1_555
C11B C12B 1_555 1_555
C15B C16B 1_555 1_555
C17B C18B 1_555 1_555

#END
