
#######################################################################
#
#                 Cambridge Crystallographic Data Centre
#                                CCDC 
#
#######################################################################
#
# If this CIF has been generated from an entry in the Cambridge 
# Structural Database, then it will include bibliographic, chemical, 
# crystal, experimental, refinement or atomic coordinate data resulting 
# from the CCDC's data processing and validation procedures.
#
#######################################################################

data_HOPYUH
_symmetry_cell_setting           monoclinic
_symmetry_space_group_name_H-M   'P 21/c'
_symmetry_Int_Tables_number      14
_space_group_name_Hall           '-P 2ybc'
loop_
_symmetry_equiv_pos_site_id
_symmetry_equiv_pos_as_xyz
1 x,y,z
2 -x,1/2+y,1/2-z
3 -x,-y,-z
4 x,1/2-y,1/2+z
_cell_length_a                   6.5597(5)
_cell_length_b                   18.0239(15)
_cell_length_c                   9.4239(8)
_cell_angle_alpha                90
_cell_angle_beta                 95.078(4)
_cell_angle_gamma                90
_cell_volume                     1109.83
loop_
_atom_site_label
_atom_site_type_symbol
_atom_site_fract_x
_atom_site_fract_y
_atom_site_fract_z
La1 La 0.51054(3) 0.284851(12) 0.63356(2)
O1 O 0.6152(5) 0.28778(14) 0.9002(3)
O2 O 0.5588(4) 0.61959(16) 0.5530(3)
O3 O 0.1870(4) 0.23398(18) 0.4798(3)
N1 N 0.6107(5) 0.41795(18) 0.7635(3)
O4 O 0.8758(4) 0.31477(17) 0.6166(4)
C1 C 1.0273(6) 0.3579(3) 0.6372(4)
O5 O 0.6589(5) 0.68154(16) 0.7517(3)
O6 O 1.1898(4) 0.34205(17) 0.7125(3)
C2 C 0.6832(6) 0.4178(2) 0.9019(4)
C3 C 0.6217(6) 0.6228(2) 0.6839(4)
C4 C 0.5967(6) 0.4837(2) 0.6973(4)
H1 H 0.5452 0.4849 0.5999
C5 C 1.0132(6) 0.4322(2) 0.5650(4)
C6 C 0.7493(6) 0.4814(2) 0.9746(4)
H2 H 0.8045 0.4788 1.0711
C7 C 0.6537(6) 0.5504(2) 0.7639(4)
C8 C 0.7334(6) 0.5488(2) 0.9043(4)
H3 H 0.7767 0.5933 0.9519
C9 C 1.1065(5) 0.4921(2) 0.6349(4)
H4 H 1.1785 0.4867 0.7263
C10 C 0.9080(6) 0.4409(2) 0.4313(5)
H5 H 0.8447 0.3989 0.3851
C11 C 0.6746(6) 0.3439(2) 0.9763(4)
O7 O 0.7133(4) 0.34055(16) 1.1080(3)
H6 H 0.1665 0.2283 0.3924
H7 H 0.0967 0.2350 0.5370
La1C La 0.51054(3) 0.215149(12) 0.13356(2)
La1C_2 La 0.51054(3) 0.215149(12) 1.13356(2)
La1B La 0.48946(3) 0.715149(12) 0.36644(2)
La1A La 0.48946(3) 0.784851(12) 0.86644(2)
La1_2 La 1.51054(3) 0.284851(12) 0.63356(2)
La1B_2 La 1.48946(3) 0.715149(12) 0.36644(2)
La1A_2 La 0.48946(3) -0.215149(12) -0.13356(2)
La1B_3 La 0.48946(3) -0.284851(12) 0.36644(2)
O1C O 0.6152(5) 0.21222(14) 0.4002(3)
O1_2 O 0.6152(5) 0.28778(14) -0.0998(3)
O2C O 0.5588(4) -0.11959(16) 0.0530(3)
O2B O 0.4412(4) 0.38041(16) 0.4470(3)
O2A O 0.4412(4) 0.11959(16) -0.0530(3)
O3C O 0.1870(4) 0.26602(18) -0.0202(3)
N1C N 0.6107(5) 0.08205(18) 0.2635(3)
O4B O 1.1242(4) 0.68523(17) 0.3834(4)
O4C O 0.8758(4) 0.18523(17) 0.1166(4)
C1B C 0.9727(6) 0.6421(3) 0.3628(4)
O5C O 0.6589(5) -0.18154(16) 0.2517(3)
O5A O 0.3411(5) 0.18154(16) 0.7483(3)
O5B O 0.3411(5) 0.31846(16) 0.2483(3)
O6B O 0.8102(4) 0.65795(17) 0.2875(3)
O6_2 O 0.1898(4) 0.34205(17) 0.7125(3)
O6C O 0.1898(4) 0.15795(17) 0.2125(3)
C2C C 0.6832(6) 0.0822(2) 0.4019(4)
C3C C 0.6217(6) -0.1228(2) 0.1839(4)
C4C C 0.5967(6) 0.0163(2) 0.1973(4)
H1C H 0.5452 0.0151 0.0999
C5B C 0.9868(6) 0.5678(2) 0.4350(4)
C6C C 0.7493(6) 0.0186(2) 0.4746(4)
H2C H 0.8045 0.0212 0.5711
C7C C 0.6537(6) -0.0504(2) 0.2639(4)
C8C C 0.7334(6) -0.0488(2) 0.4043(4)
H3C H 0.7767 -0.0933 0.4519
C9B C 0.8935(5) 0.5079(2) 0.3651(4)
H4B H 0.8215 0.5133 0.2737
C10B C 1.0920(6) 0.5591(2) 0.5687(5)
H5B H 1.1553 0.6011 0.6149
C11C C 0.6746(6) 0.1561(2) 0.4763(4)
O7C O 0.7133(4) 0.15945(16) 0.6080(3)
O7_2 O 0.7133(4) 0.34055(16) 0.1080(3)
H6C H 0.1665 0.2717 -0.1076
H7C H 0.0967 0.2650 0.0370
loop_
_geom_bond_atom_site_label_1
_geom_bond_atom_site_label_2
_geom_bond_site_symmetry_1
_geom_bond_site_symmetry_2
La1 O1 1_555 1_555
O1 C11 1_555 1_555
O2 C3 1_555 1_555
O3 La1 1_555 1_555
N1 La1 1_555 1_555
O4 La1 1_555 1_555
C1 O4 1_555 1_555
O5 C3 1_555 1_555
O6 C1 1_555 1_555
C2 N1 1_555 1_555
C3 C7 1_555 1_555
C4 N1 1_555 1_555
H1 C4 1_555 1_555
C5 C1 1_555 1_555
C6 C2 1_555 1_555
H2 C6 1_555 1_555
C7 C4 1_555 1_555
C8 C6 1_555 1_555
H3 C8 1_555 1_555
C9 C5 1_555 1_555
H4 C9 1_555 1_555
C10 C5 1_555 1_555
H5 C10 1_555 1_555
C11 C2 1_555 1_555
O7 C11 1_555 1_555
H6 O3 1_555 1_555
H7 O3 1_555 1_555
La1C O1C 1_555 1_555
La1C_2 O1 1_555 1_555
La1B O2 1_555 1_555
La1A O5 1_555 1_555
La1_2 O6 1_555 1_555
La1B_2 O4B 1_555 1_555
La1A_2 O2C 1_555 1_555
La1B_3 O5C 1_555 1_555
O1C La1 1_555 1_555
O1_2 La1C 1_555 1_555
O2C C3C 1_555 1_555
O2B La1 1_555 1_555
O2A La1C 1_555 1_555
O3C La1C 1_555 1_555
N1C La1C 1_555 1_555
O4B C1B 1_555 1_555
O4C La1C 1_555 1_555
C1B O6B 1_555 1_555
O5C C3C 1_555 1_555
O5A La1 1_555 1_555
O5B La1C 1_555 1_555
O6B La1B 1_555 1_555
O6_2 La1 1_555 1_555
O6C La1C 1_555 1_555
C2C N1C 1_555 1_555
C3C C7C 1_555 1_555
C4C N1C 1_555 1_555
H1C C4C 1_555 1_555
C5B C1B 1_555 1_555
C6C C2C 1_555 1_555
H2C C6C 1_555 1_555
C7C C4C 1_555 1_555
C8C C6C 1_555 1_555
H3C C8C 1_555 1_555
C9B C10 1_555 1_555
H4B C9B 1_555 1_555
C10B C9 1_555 1_555
H5B C10B 1_555 1_555
C11C O1C 1_555 1_555
O7C La1 1_555 1_555
O7_2 La1C 1_555 1_555
H6C O3C 1_555 1_555
H7C O3C 1_555 1_555
C7 C8 1_555 1_555
O7 La1C_2 1_555 1_555
C2C C11C 1_555 1_555
C5B C9B 1_555 1_555
C5B C10B 1_555 1_555
C7C C8C 1_555 1_555
C11C O7C 1_555 1_555

#END
