
#######################################################################
#
#                 Cambridge Crystallographic Data Centre
#                                CCDC 
#
#######################################################################
#
# If this CIF has been generated from an entry in the Cambridge 
# Structural Database, then it will include bibliographic, chemical, 
# crystal, experimental, refinement or atomic coordinate data resulting 
# from the CCDC's data processing and validation procedures.
#
#######################################################################

data_HOPYES
_symmetry_cell_setting           monoclinic
_symmetry_space_group_name_H-M   'P 21/n'
_symmetry_Int_Tables_number      14
_space_group_name_Hall           '-P 2yn'
loop_
_symmetry_equiv_pos_site_id
_symmetry_equiv_pos_as_xyz
1 x,y,z
2 1/2-x,1/2+y,1/2-z
3 -x,-y,-z
4 1/2+x,1/2-y,1/2+z
_cell_length_a                   8.7200(10)
_cell_length_b                   18.356(3)
_cell_length_c                   12.1430(10)
_cell_angle_alpha                90
_cell_angle_beta                 102.680(10)
_cell_angle_gamma                90
_cell_volume                     1896.26
loop_
_atom_site_label
_atom_site_type_symbol
_atom_site_fract_x
_atom_site_fract_y
_atom_site_fract_z
Sn1 Sn 0.44040(5) 0.22624(2) 0.30825(3)
S1 S 0.75886(18) 0.29725(8) 0.53103(11)
F1 F 0.7691(5) 0.3787(2) 0.3568(3)
F2 F 0.6543(5) 0.4288(2) 0.4778(3)
F3 F 0.9057(5) 0.4187(2) 0.5142(3)
O1 O 0.6028(5) 0.2729(2) 0.4765(3)
O2 O 0.8879(5) 0.2559(2) 0.5107(3)
O3 O 0.7658(5) 0.3161(2) 0.6498(3)
C1 C 0.7753(8) 0.3859(4) 0.4677(5)
C2 C 0.3388(7) 0.1576(3) 0.4131(4)
C3 C 0.4318(8) 0.1170(4) 0.4971(5)
H1 H 0.5428 0.1181 0.5061
C4 C 0.3650(9) 0.0743(4) 0.5692(5)
H2 H 0.4296 0.0468 0.6278
C5 C 0.2030(9) 0.0726(4) 0.5540(5)
H3 H 0.1561 0.0428 0.6016
C6 C 0.1093(8) 0.1135(3) 0.4710(5)
H4 H -0.0017 0.1123 0.4620
C7 C 0.1761(7) 0.1563(3) 0.4003(5)
H5 H 0.1112 0.1848 0.3432
C8 C 0.6329(7) 0.1850(3) 0.2495(4)
C9 C 0.7286(7) 0.2276(4) 0.1989(4)
H6 H 0.7118 0.2787 0.1936
C10 C 0.8493(8) 0.1971(4) 0.1556(5)
H7 H 0.9154 0.2273 0.1226
C11 C 0.8720(8) 0.1227(4) 0.1608(5)
H8 H 0.9532 0.1013 0.1308
C12 C 0.7759(8) 0.0798(4) 0.2100(5)
H9 H 0.7908 0.0285 0.2131
C13 C 0.6595(8) 0.1100(4) 0.2545(5)
H10 H 0.5958 0.0795 0.2893
C14 C 0.3476(7) 0.3330(3) 0.2828(4)
C15 C 0.2543(8) 0.3582(3) 0.3543(5)
H11 H 0.2271 0.3260 0.4083
C16 C 0.2004(9) 0.4295(4) 0.3480(6)
H12 H 0.1344 0.4460 0.3956
C17 C 0.2451(9) 0.4762(4) 0.2706(6)
H13 H 0.2136 0.5258 0.2679
C18 C 0.3339(9) 0.4518(4) 0.1982(6)
H14 H 0.3600 0.4837 0.1435
C19 C 0.3858(8) 0.3798(3) 0.2049(5)
H15 H 0.4483 0.3629 0.1551
Sn1C Sn 0.94040(5) 0.27376(2) 0.80825(3)
O3C O 0.2658(5) 0.1839(2) 0.1498(3)
loop_
_geom_bond_atom_site_label_1
_geom_bond_atom_site_label_2
_geom_bond_site_symmetry_1
_geom_bond_site_symmetry_2
Sn1 O1 1_555 1_555
S1 O1 1_555 1_555
F1 C1 1_555 1_555
F2 C1 1_555 1_555
F3 C1 1_555 1_555
O2 S1 1_555 1_555
O3 S1 1_555 1_555
C1 S1 1_555 1_555
C2 Sn1 1_555 1_555
C3 C2 1_555 1_555
H1 C3 1_555 1_555
C4 C3 1_555 1_555
H2 C4 1_555 1_555
C5 C4 1_555 1_555
H3 C5 1_555 1_555
C6 C5 1_555 1_555
H4 C6 1_555 1_555
C7 C2 1_555 1_555
H5 C7 1_555 1_555
C8 Sn1 1_555 1_555
C9 C8 1_555 1_555
H6 C9 1_555 1_555
C10 C9 1_555 1_555
H7 C10 1_555 1_555
C11 C10 1_555 1_555
H8 C11 1_555 1_555
C12 C11 1_555 1_555
H9 C12 1_555 1_555
C13 C8 1_555 1_555
H10 C13 1_555 1_555
C14 Sn1 1_555 1_555
C15 C14 1_555 1_555
H11 C15 1_555 1_555
C16 C15 1_555 1_555
H12 C16 1_555 1_555
C17 C16 1_555 1_555
H13 C17 1_555 1_555
C18 C17 1_555 1_555
H14 C18 1_555 1_555
C19 C14 1_555 1_555
H15 C19 1_555 1_555
Sn1C O3 1_555 1_555
O3C Sn1 1_555 1_555
C6 C7 1_555 1_555
C12 C13 1_555 1_555
C18 C19 1_555 1_555

#END
