
#######################################################################
#
#                 Cambridge Crystallographic Data Centre
#                                CCDC 
#
#######################################################################
#
# If this CIF has been generated from an entry in the Cambridge 
# Structural Database, then it will include bibliographic, chemical, 
# crystal, experimental, refinement or atomic coordinate data resulting 
# from the CCDC's data processing and validation procedures.
#
#######################################################################

data_HOPZOC
_symmetry_cell_setting           orthorhombic
_symmetry_space_group_name_H-M   'P b c n'
_symmetry_Int_Tables_number      60
_space_group_name_Hall           '-P 2n 2ab'
loop_
_symmetry_equiv_pos_site_id
_symmetry_equiv_pos_as_xyz
1 x,y,z
2 1/2-x,1/2-y,1/2+z
3 -x,y,1/2-z
4 1/2+x,1/2-y,-z
5 -x,-y,-z
6 1/2+x,1/2+y,1/2-z
7 x,-y,1/2+z
8 1/2-x,1/2+y,z
_cell_length_a                   15.3995(17)
_cell_length_b                   8.2673(9)
_cell_length_c                   23.476(3)
_cell_angle_alpha                90
_cell_angle_beta                 90
_cell_angle_gamma                90
_cell_volume                     2988.78
loop_
_atom_site_label
_atom_site_type_symbol
_atom_site_fract_x
_atom_site_fract_y
_atom_site_fract_z
Co1 Co -0.212290(11) 0.22016(2) -0.610160(7)
O1 O -0.15821(6) -0.27219(11) -0.58092(4)
O2 O -0.09377(6) 0.29218(11) -0.63575(4)
O3 O -0.20664(6) -0.02906(11) -0.59998(4)
O4 O 0.04399(7) 0.29693(14) -0.66188(6)
N1 N -0.17393(7) 0.27310(13) -0.52445(4)
N2 N -0.24029(7) 0.31448(13) -0.19505(4)
N3 N -0.13615(7) 0.42577(14) -0.35607(5)
H1 H -0.1003(11) 0.500(2) -0.3533(7)
C1 C -0.12174(8) 0.39776(15) -0.51061(5)
H2 H -0.0932 0.4524 -0.5397
C2 C -0.10861(8) 0.44814(16) -0.45534(5)
H3 H -0.0713 0.5340 -0.4478
C3 C -0.15147(8) 0.37008(15) -0.41038(5)
C4 C -0.20365(9) 0.23731(17) -0.42455(6)
H4 H -0.2319 0.1785 -0.3963
C5 C -0.21228(9) 0.19549(17) -0.48115(6)
H5 H -0.2472 0.1071 -0.4899
C6 C -0.28627(8) 0.28627(16) -0.24270(6)
H6 H -0.3417 0.2431 -0.2386
C7 C -0.25712(9) 0.31689(17) -0.29746(5)
H7 H -0.2922 0.2950 -0.3288
C8 C -0.17390(8) 0.38128(15) -0.30471(5)
C9 C -0.12651(8) 0.41401(16) -0.25511(6)
H8 H -0.0713 0.4588 -0.2578
C10 C -0.16100(9) 0.38050(16) -0.20251(5)
H9 H -0.1281 0.4045 -0.1704
C11 C -0.05720(9) -0.05613(17) -0.56828(6)
H10 H -0.0319 -0.1203 -0.5379
H11 H -0.0628 0.0543 -0.5548
C12 C -0.14581(8) -0.12203(15) -0.58308(5)
C13 C -0.02802(9) 0.04553(17) -0.67011(6)
H12 H 0.0089 0.0263 -0.7029
H13 H -0.0868 0.0152 -0.6804
C14 C -0.02585(8) 0.22466(16) -0.65512(5)
C15 C 0.00261(9) -0.06009(18) -0.62046(7)
H14 H 0.0601 -0.0248 -0.6090
H15 H 0.0074 -0.1710 -0.6336
Co1G Co -0.287710(11) -0.27984(2) -0.610160(7)
Co1A Co -0.287710(11) 0.27984(2) -0.110160(7)
O1G O -0.34179(6) 0.22781(11) -0.58092(4)
N2A N -0.25971(7) 0.18552(13) -0.69505(4)
loop_
_geom_bond_atom_site_label_1
_geom_bond_atom_site_label_2
_geom_bond_site_symmetry_1
_geom_bond_site_symmetry_2
Co1 O2 1_555 1_555
O1 C12 1_555 1_555
O2 C14 1_555 1_555
O3 Co1 1_555 1_555
O4 C14 1_555 1_555
N1 Co1 1_555 1_555
N2 C6 1_555 1_555
N3 H1 1_555 1_555
C1 N1 1_555 1_555
H2 C1 1_555 1_555
C2 C1 1_555 1_555
H3 C2 1_555 1_555
C3 N3 1_555 1_555
C4 C3 1_555 1_555
H4 C4 1_555 1_555
C5 N1 1_555 1_555
H5 C5 1_555 1_555
C6 H6 1_555 1_555
C7 C6 1_555 1_555
H7 C7 1_555 1_555
C8 N3 1_555 1_555
C9 C8 1_555 1_555
H8 C9 1_555 1_555
C10 N2 1_555 1_555
H9 C10 1_555 1_555
C11 H10 1_555 1_555
H11 C11 1_555 1_555
C12 O3 1_555 1_555
C13 H12 1_555 1_555
H13 C13 1_555 1_555
C14 C13 1_555 1_555
C15 C11 1_555 1_555
H14 C15 1_555 1_555
H15 C15 1_555 1_555
Co1G O1 1_555 1_555
Co1A N2 1_555 1_555
O1G Co1 1_555 1_555
N2A Co1 1_555 1_555
C2 C3 1_555 1_555
C4 C5 1_555 1_555
C7 C8 1_555 1_555
C9 C10 1_555 1_555
C11 C12 1_555 1_555
C13 C15 1_555 1_555

#END
