
#######################################################################
#
#                 Cambridge Crystallographic Data Centre
#                                CCDC 
#
#######################################################################
#
# If this CIF has been generated from an entry in the Cambridge 
# Structural Database, then it will include bibliographic, chemical, 
# crystal, experimental, refinement or atomic coordinate data resulting 
# from the CCDC's data processing and validation procedures.
#
#######################################################################

data_HOPZAO
_symmetry_cell_setting           trigonal
_symmetry_space_group_name_H-M   'P -3 c 1'
_symmetry_Int_Tables_number      165
_space_group_name_Hall           '-P 3 2"c'
loop_
_symmetry_equiv_pos_site_id
_symmetry_equiv_pos_as_xyz
1 x,y,z
2 -y,x-y,z
3 -x+y,-x,z
4 y,x,1/2-z
5 x-y,-y,1/2-z
6 -x,-x+y,1/2-z
7 -x,-y,-z
8 y,-x+y,-z
9 x-y,x,-z
10 -y,-x,1/2+z
11 -x+y,y,1/2+z
12 x,x-y,1/2+z
_cell_length_a                   15.8346(6)
_cell_length_b                   15.8346(6)
_cell_length_c                   17.5242(14)
_cell_angle_alpha                90
_cell_angle_beta                 90
_cell_angle_gamma                120
_cell_volume                     3805.25
loop_
_atom_site_label
_atom_site_type_symbol
_atom_site_fract_x
_atom_site_fract_y
_atom_site_fract_z
C1 C 0.8616(5) 0.4871(4) 0.0712(4)
C2 C 0.8255(5) 0.5297(5) 0.0215(4)
H1 H 0.7597 0.4968 0.0089
C3 C 0.8856(6) 0.6191(6) -0.0091(4)
H2 H 0.8591 0.6476 -0.0402
C4 C 0.9852(7) 0.6691(6) 0.0045(5)
H3 H 1.0248 0.7295 -0.0180
C5 C 1.0238(6) 0.6298(6) 0.0504(5)
H4 H 1.0905 0.6639 0.0598
C6 C 0.9653(5) 0.5371(5) 0.0850(4)
C7 C 1.0099(5) 0.4979(5) 0.1303(4)
H5 H 1.0774 0.5341 0.1349
C8 C 1.0134(6) 0.3719(6) 0.2079(4)
H6 H 1.0843 0.4094 0.2012
C9 C 0.9726(12) 0.2612(11) 0.1883(9)
H7 H 0.9062 0.2237 0.2053
H8 H 1.0114 0.2385 0.2134
H9 H 0.9752 0.2539 0.1341
Eu1 Eu 0.6667 0.3333 0.17630(4)
N1 N 0.9661(4) 0.4168(4) 0.1661(3)
H10 H 0.9057 0.3865 0.1556
N2 N 0.4912(5) 0.2844(5) 0.2665(4)
O1 O 0.8058(3) 0.4025(3) 0.1034(3)
O2 O 0.4861(4) 0.2337(3) 0.2086(3)
O3 O 0.4195(5) 0.2580(5) 0.3062(4)
O4 O 0.5724(4) 0.3607(4) 0.2800(3)
C1E C 1.1384(5) 0.6255(6) 0.4288(4)
C1A C 0.5129(4) 0.3745(6) 0.0712(4)
C1D C 0.3745(6) 0.5129(4) 0.4288(4)
C1B C 0.6255(6) 0.1384(5) 0.0712(4)
C1C C 0.4871(4) -0.1384(5) 0.4288(4)
C2E C 1.1745(5) 0.7042(7) 0.4785(4)
C2A C 0.4703(5) 0.2958(7) 0.0215(4)
C2D C 0.2958(7) 0.4703(5) 0.4785(4)
C2B C 0.7042(7) 0.1745(5) 0.0215(4)
C2C C 0.5297(5) -0.1745(5) 0.4785(4)
H1E H 1.2403 0.7371 0.4911
H1A H 0.5032 0.2629 0.0089
H1D H 0.2629 0.5032 0.4911
H1B H 0.7371 0.2403 0.0089
H1C H 0.4968 -0.2403 0.4911
C3E C 1.1144(6) 0.7335(8) 0.5091(4)
C3A C 0.3809(6) 0.2665(8) -0.0091(4)
C3D C 0.2665(8) 0.3809(6) 0.5091(4)
C3B C 0.7335(8) 0.1144(6) -0.0091(4)
C3C C 0.6191(6) -0.1144(6) 0.5091(4)
H2E H 1.1409 0.7885 0.5402
H2A H 0.3524 0.2115 -0.0402
H2D H 0.2115 0.3524 0.5402
H2B H 0.7885 0.1409 -0.0402
H2C H 0.6476 -0.1409 0.5402
C4E C 1.0148(7) 0.6839(9) 0.4955(5)
C4A C 0.3309(6) 0.3161(9) 0.0045(5)
C4D C 0.3161(9) 0.3309(6) 0.4955(5)
C4B C 0.6839(9) 0.0148(7) 0.0045(5)
C4C C 0.6691(6) -0.0148(7) 0.4955(5)
H3E H 0.9752 0.7047 0.5180
H3A H 0.2705 0.2953 -0.0180
H3D H 0.2953 0.2705 0.5180
H3B H 0.7047 -0.0248 -0.0180
H3C H 0.7295 0.0248 0.5180
C5E C 0.9762(6) 0.6060(8) 0.4496(5)
C5A C 0.3702(6) 0.3940(8) 0.0504(5)
C5D C 0.3940(8) 0.3702(6) 0.4496(5)
C5B C 0.6060(8) -0.0238(6) 0.0504(5)
C5C C 0.6298(6) 0.0238(6) 0.4496(5)
H4E H 0.9095 0.5734 0.4402
H4A H 0.3361 0.4266 0.0598
H4D H 0.4266 0.3361 0.4402
H4B H 0.5734 -0.0905 0.0598
H4C H 0.6639 0.0905 0.4402
C6E C 1.0347(5) 0.5718(7) 0.4150(4)
C6A C 0.4629(5) 0.4282(7) 0.0850(4)
C6D C 0.4282(7) 0.4629(5) 0.4150(4)
C6B C 0.5718(7) 0.0347(5) 0.0850(4)
C6C C 0.5371(5) -0.0347(5) 0.4150(4)
C7E C 0.9901(5) 0.4880(7) 0.3697(4)
C7A C 0.5021(5) 0.5120(7) 0.1303(4)
C7D C 0.5120(7) 0.5021(5) 0.3697(4)
C7B C 0.4880(7) -0.0099(5) 0.1303(4)
C7C C 0.4979(5) 0.0099(5) 0.3697(4)
H5E H 0.9226 0.4567 0.3651
H5A H 0.4659 0.5433 0.1349
H5D H 0.5433 0.4659 0.3651
H5B H 0.4567 -0.0774 0.1349
H5C H 0.5341 0.0774 0.3651
C8E C 0.9866(6) 0.3585(8) 0.2921(4)
C8A C 0.6281(6) 0.6415(8) 0.2079(4)
C8D C 0.6415(8) 0.6281(6) 0.2921(4)
C8B C 0.3585(8) -0.0134(6) 0.2079(4)
C8C C 0.3719(6) 0.0134(6) 0.2921(4)
H6E H 0.9157 0.3251 0.2988
H6A H 0.5906 0.6749 0.2012
H6D H 0.6749 0.5906 0.2988
H6B H 0.3251 -0.0843 0.2012
H6C H 0.4094 0.0843 0.2988
C9E C 1.0274(12) 0.2886(16) 0.3117(9)
C9A C 0.7388(11) 0.7114(16) 0.1883(9)
C9D C 0.7114(16) 0.7388(11) 0.3117(9)
C9B C 0.2886(16) 0.0274(12) 0.1883(9)
C9C C 0.2612(11) -0.0274(12) 0.3117(9)
H7E H 1.0938 0.3175 0.2947
H7A H 0.7763 0.6825 0.2053
H7D H 0.6825 0.7763 0.2947
H7B H 0.3175 0.0938 0.2053
H7C H 0.2237 -0.0938 0.2947
H8E H 0.9886 0.2271 0.2866
H8A H 0.7615 0.7729 0.2134
H8D H 0.7729 0.7615 0.2866
H8B H 0.2271 -0.0114 0.2134
H8C H 0.2385 0.0114 0.2866
H9E H 1.0248 0.2787 0.3659
H9A H 0.7461 0.7213 0.1341
H9D H 0.7213 0.7461 0.3659
H9B H 0.2787 0.0248 0.1341
H9C H 0.2539 -0.0248 0.3659
Eu1E Eu 1.3333 0.6666 0.32370(4)
Eu1D Eu 0.3334 0.6667 0.32370(4)
Eu1C Eu 0.3333 -0.3333 0.32370(4)
N1E N 1.0339(4) 0.4507(6) 0.3339(3)
N1A N 0.5832(4) 0.5493(6) 0.1661(3)
N1D N 0.5493(6) 0.5832(4) 0.3339(3)
N1B N 0.4507(6) 0.0339(4) 0.1661(3)
N1C N 0.4168(4) -0.0339(4) 0.3339(3)
H10E H 1.0943 0.4808 0.3444
H10A H 0.6135 0.5192 0.1556
H10D H 0.5192 0.6135 0.3444
H10B H 0.4808 0.0943 0.1556
H10C H 0.3865 -0.0943 0.3444
N2A N 0.7156(5) 0.2068(7) 0.2665(4)
N2B N 0.7932(7) 0.5088(5) 0.2665(4)
N2E N 1.5088(5) 0.7932(7) 0.2335(4)
N2C N 1.2844(5) 0.4912(5) 0.2335(4)
N2D N 1.2068(7) 0.7156(5) 0.2335(4)
O1E O 1.1942(3) 0.5967(4) 0.3966(3)
O1A O 0.5975(3) 0.4033(4) 0.1034(3)
O1D O 0.4033(4) 0.5975(3) 0.3966(3)
O1B O 0.5967(4) 0.1942(3) 0.1034(3)
O1C O 0.4025(3) -0.1942(3) 0.3966(3)
O1C_2 O 1.4025(3) 0.8058(3) 0.3966(3)
O1D_2 O 1.4033(4) 0.5975(3) 0.3966(3)
O2A O 0.7663(3) 0.2524(5) 0.2086(3)
O2B O 0.7476(5) 0.5139(4) 0.2086(3)
O2E O 1.5139(4) 0.7476(5) 0.2914(3)
O2C O 1.2337(3) 0.4861(4) 0.2914(3)
O2D O 1.2524(5) 0.7663(3) 0.2914(3)
O3A O 0.7420(5) 0.1615(7) 0.3062(4)
O3B O 0.8385(7) 0.5805(5) 0.3062(4)
O3E O 1.5805(5) 0.8385(7) 0.1938(4)
O3C O 1.2580(5) 0.4195(5) 0.1938(4)
O3D O 1.1615(7) 0.7420(5) 0.1938(4)
O4A O 0.6393(4) 0.2117(6) 0.2800(3)
O4B O 0.7883(6) 0.4276(4) 0.2800(3)
O4E O 1.4276(4) 0.7883(6) 0.2200(3)
O4C O 1.3607(4) 0.5724(4) 0.2200(3)
O4D O 1.2117(6) 0.6393(4) 0.2200(3)
loop_
_geom_bond_atom_site_label_1
_geom_bond_atom_site_label_2
_geom_bond_site_symmetry_1
_geom_bond_site_symmetry_2
C1 C2 1_555 1_555
C2 H1 1_555 1_555
C3 C2 1_555 1_555
H2 C3 1_555 1_555
C4 C3 1_555 1_555
H3 C4 1_555 1_555
C5 C4 1_555 1_555
H4 C5 1_555 1_555
C6 C1 1_555 1_555
C7 C6 1_555 1_555
H5 C7 1_555 1_555
C8 H6 1_555 1_555
C9 C8 1_555 1_555
H7 C9 1_555 1_555
H8 C9 1_555 1_555
H9 C9 1_555 1_555
Eu1 O1 1_555 1_555
N1 C7 1_555 1_555
H10 N1 1_555 1_555
N2 O2 1_555 1_555
O1 C1 1_555 1_555
O2 Eu1 1_555 1_555
O3 N2 1_555 1_555
O4 Eu1 1_555 1_555
C1E C2E 1_555 1_555
C1A C2A 1_555 1_555
C1D C2D 1_555 1_555
C1B C2B 1_555 1_555
C1C C2C 1_555 1_555
C2E H1E 1_555 1_555
C2A H1A 1_555 1_555
C2D H1D 1_555 1_555
C2B H1B 1_555 1_555
C2C H1C 1_555 1_555
C3E C2E 1_555 1_555
C3A C2A 1_555 1_555
C3D C2D 1_555 1_555
C3B C2B 1_555 1_555
C3C C2C 1_555 1_555
H2E C3E 1_555 1_555
H2A C3A 1_555 1_555
H2D C3D 1_555 1_555
H2B C3B 1_555 1_555
H2C C3C 1_555 1_555
C4E C3E 1_555 1_555
C4A C3A 1_555 1_555
C4D C3D 1_555 1_555
C4B C3B 1_555 1_555
C4C C3C 1_555 1_555
H3E C4E 1_555 1_555
H3A C4A 1_555 1_555
H3D C4D 1_555 1_555
H3B C4B 1_555 1_555
H3C C4C 1_555 1_555
C5E C4E 1_555 1_555
C5A C4A 1_555 1_555
C5D C4D 1_555 1_555
C5B C4B 1_555 1_555
C5C C4C 1_555 1_555
H4E C5E 1_555 1_555
H4A C5A 1_555 1_555
H4D C5D 1_555 1_555
H4B C5B 1_555 1_555
H4C C5C 1_555 1_555
C6E C1E 1_555 1_555
C6A C1A 1_555 1_555
C6D C1D 1_555 1_555
C6B C1B 1_555 1_555
C6C C1C 1_555 1_555
C7E C6E 1_555 1_555
C7A C6A 1_555 1_555
C7D C6D 1_555 1_555
C7B C6B 1_555 1_555
C7C C6C 1_555 1_555
H5E C7E 1_555 1_555
H5A C7A 1_555 1_555
H5D C7D 1_555 1_555
H5B C7B 1_555 1_555
H5C C7C 1_555 1_555
C8E C8 1_555 1_555
C8A C8D 1_555 1_555
C8D H6D 1_555 1_555
C8B C8C 1_555 1_555
C8C H6C 1_555 1_555
H6E C8E 1_555 1_555
H6A C8A 1_555 1_555
H6B C8B 1_555 1_555
C9E C8E 1_555 1_555
C9A C8A 1_555 1_555
C9D C8D 1_555 1_555
C9B C8B 1_555 1_555
C9C C8C 1_555 1_555
H7E C9E 1_555 1_555
H7A C9A 1_555 1_555
H7D C9D 1_555 1_555
H7B C9B 1_555 1_555
H7C C9C 1_555 1_555
H8E C9E 1_555 1_555
H8A C9A 1_555 1_555
H8D C9D 1_555 1_555
H8B C9B 1_555 1_555
H8C C9C 1_555 1_555
H9E C9E 1_555 1_555
H9A C9A 1_555 1_555
H9D C9D 1_555 1_555
H9B C9B 1_555 1_555
H9C C9C 1_555 1_555
Eu1E O1E 1_555 1_555
Eu1D O1D 1_555 1_555
Eu1C O1C 1_555 1_555
N1E C7E 1_555 1_555
N1A C7A 1_555 1_555
N1D C7D 1_555 1_555
N1B C7B 1_555 1_555
N1C C7C 1_555 1_555
H10E N1E 1_555 1_555
H10A N1A 1_555 1_555
H10D N1D 1_555 1_555
H10B N1B 1_555 1_555
H10C N1C 1_555 1_555
N2A O2A 1_555 1_555
N2B O2B 1_555 1_555
N2E O2E 1_555 1_555
N2C O2C 1_555 1_555
N2D O2D 1_555 1_555
O1E C1E 1_555 1_555
O1A Eu1 1_555 1_555
O1D C1D 1_555 1_555
O1B Eu1 1_555 1_555
O1C C1C 1_555 1_555
O1C_2 Eu1E 1_555 1_555
O1D_2 Eu1E 1_555 1_555
O2A Eu1 1_555 1_555
O2B Eu1 1_555 1_555
O2E Eu1E 1_555 1_555
O2C Eu1E 1_555 1_555
O2D Eu1E 1_555 1_555
O3A N2A 1_555 1_555
O3B N2B 1_555 1_555
O3E N2E 1_555 1_555
O3C N2C 1_555 1_555
O3D N2D 1_555 1_555
O4A Eu1 1_555 1_555
O4B Eu1 1_555 1_555
O4E Eu1E 1_555 1_555
O4C Eu1E 1_555 1_555
O4D Eu1E 1_555 1_555
C5 C6 1_555 1_555
C8 N1 1_555 1_555
N2 O4 1_555 1_555
C1A O1A 1_555 1_555
C1B O1B 1_555 1_555
C5E C6E 1_555 1_555
C5A C6A 1_555 1_555
C5D C6D 1_555 1_555
C5B C6B 1_555 1_555
C5C C6C 1_555 1_555
C8E N1E 1_555 1_555
C8A N1A 1_555 1_555
C8D N1D 1_555 1_555
C8B N1B 1_555 1_555
C8C N1C 1_555 1_555
N2A O4A 1_555 1_555
N2B O4B 1_555 1_555
N2E O4E 1_555 1_555
N2C O4C 1_555 1_555
N2D O4D 1_555 1_555

#END
