
#######################################################################
#
#                 Cambridge Crystallographic Data Centre
#                                CCDC 
#
#######################################################################
#
# If this CIF has been generated from an entry in the Cambridge 
# Structural Database, then it will include bibliographic, chemical, 
# crystal, experimental, refinement or atomic coordinate data resulting 
# from the CCDC's data processing and validation procedures.
#
#######################################################################

data_HOPZES
_symmetry_cell_setting           rhombohedral
_symmetry_space_group_name_H-M   'R -3'
_symmetry_Int_Tables_number      148
_space_group_name_Hall           '-R 3'
loop_
_symmetry_equiv_pos_site_id
_symmetry_equiv_pos_as_xyz
1 x,y,z
2 -y,x-y,z
3 -x+y,-x,z
4 2/3+x,1/3+y,1/3+z
5 2/3-y,1/3+x-y,1/3+z
6 2/3-x+y,1/3-x,1/3+z
7 1/3+x,2/3+y,2/3+z
8 1/3-y,2/3+x-y,2/3+z
9 1/3-x+y,2/3-x,2/3+z
10 -x,-y,-z
11 y,-x+y,-z
12 x-y,x,-z
13 1/3-x,2/3-y,2/3-z
14 1/3+y,2/3-x+y,2/3-z
15 1/3+x-y,2/3+x,2/3-z
16 2/3-x,1/3-y,1/3-z
17 2/3+y,1/3-x+y,1/3-z
18 2/3+x-y,1/3+x,1/3-z
_cell_length_a                   16.5614(6)
_cell_length_b                   16.5614(6)
_cell_length_c                   51.574(4)
_cell_angle_alpha                90
_cell_angle_beta                 90
_cell_angle_gamma                120
_cell_volume                     12250.5
loop_
_atom_site_label
_atom_site_type_symbol
_atom_site_fract_x
_atom_site_fract_y
_atom_site_fract_z
C1 C 0.9958(4) 0.1779(5) 0.03639(12)
C2 C 1.0805(5) 0.2177(5) 0.02273(13)
H1 H 1.1065 0.1809 0.0185
C3 C 1.1250(6) 0.3082(6) 0.01560(15)
H2 H 1.1816 0.3325 0.0069
C4 C 1.0890(7) 0.3665(6) 0.02082(17)
H3 H 1.1207 0.4287 0.0157
C5 C 1.0061(6) 0.3300(5) 0.03361(16)
H4 H 0.9811 0.3680 0.0372
C6 C 0.9574(5) 0.2360(4) 0.04151(12)
C7 C 0.8700(5) 0.2022(5) 0.05349(13)
H5 H 0.8489 0.2441 0.0561
C8 C 0.7217(5) 0.0793(5) 0.07129(14)
H6 H 0.7028 0.1264 0.0692
C9 C 0.6565(6) -0.0057(6) 0.05584(18)
H7 H 0.6628 0.0097 0.0377
H8 H 0.5935 -0.0273 0.0612
H9 H 0.6716 -0.0539 0.0587
C10 C 0.7186(5) 0.0563(5) 0.10018(14)
H10 H 0.6541 0.0173 0.1054
H11 H 0.7501 0.0209 0.1028
C11 C 0.8428(5) 0.1752(5) 0.12680(14)
H12 H 0.8785 0.1474 0.1235
C12 C 0.8819(5) 0.2546(5) 0.14281(13)
C13 C 0.9725(6) 0.2881(7) 0.15282(16)
H13 H 1.0049 0.2575 0.1486
C14 C 1.0130(6) 0.3635(7) 0.16836(17)
H14 H 1.0733 0.3854 0.1745
C15 C 0.9649(6) 0.4076(6) 0.17510(17)
H15 H 0.9934 0.4601 0.1856
C16 C 0.8776(6) 0.3768(5) 0.16688(16)
H16 H 0.8462 0.4071 0.1725
C17 C 0.8318(5) 0.3001(5) 0.15004(13)
La1 La 1.0000 0.0000 0.069782(14)
La2 La 0.6667 0.3333 0.117840(16)
N1 N 1.0721(5) 0.1846(5) 0.09720(12)
N2 N 0.8167(4) 0.1173(4) 0.06123(10)
H17 H 0.8433 0.0851 0.0596
N3 N 0.7617(4) 0.1381(4) 0.11649(10)
H18 H 0.7366 0.1710 0.1197
N4 N 0.5547(5) 0.1597(5) 0.08517(16)
O1 O 0.9532(3) 0.0913(3) 0.04412(9)
O2 O 1.1199(3) 0.1717(3) 0.08108(10)
O3 O 1.0969(5) 0.2615(4) 0.10584(13)
O4 O 0.9947(4) 0.1146(4) 0.10375(10)
O5 O 0.7478(3) 0.2706(3) 0.14128(9)
O6 O 0.5994(3) 0.1573(3) 0.10424(11)
O7 O 0.5176(5) 0.0942(5) 0.07013(16)
O8 O 0.5488(4) 0.2322(4) 0.08117(12)
C1A C 0.8221(5) -0.1821(6) 0.03639(12)
C1B C 1.1821(6) 0.0042(4) 0.03639(12)
C2A C 0.7823(5) -0.1372(7) 0.02273(13)
C2B C 1.1372(7) -0.0805(5) 0.02273(13)
H1A H 0.8191 -0.0744 0.0185
H1B H 1.0744 -0.1065 0.0185
C3A C 0.6918(6) -0.1832(8) 0.01560(15)
C3B C 1.1832(8) -0.1250(6) 0.01560(15)
H2A H 0.6675 -0.1509 0.0069
H2B H 1.1509 -0.1816 0.0069
C4A C 0.6335(6) -0.2775(9) 0.02082(17)
C4B C 1.2775(9) -0.0890(7) 0.02082(17)
H3A H 0.5713 -0.3080 0.0157
H3B H 1.3080 -0.1207 0.0157
C5A C 0.6700(5) -0.3239(8) 0.03361(16)
C5B C 1.3239(8) -0.0061(6) 0.03361(16)
H4A H 0.6320 -0.3869 0.0372
H4B H 1.3869 0.0189 0.0372
C6A C 0.7640(4) -0.2786(6) 0.04151(12)
C6B C 1.2786(6) 0.0426(5) 0.04151(12)
C7A C 0.7978(5) -0.3322(7) 0.05349(13)
C7B C 1.3322(7) 0.1300(5) 0.05349(13)
H5A H 0.7559 -0.3952 0.0561
H5B H 1.3952 0.1511 0.0561
C8A C 0.9207(5) -0.3576(7) 0.07129(14)
C8B C 1.3576(7) 0.2783(5) 0.07129(14)
H6A H 0.8736 -0.4236 0.0692
H6B H 1.4236 0.2972 0.0692
C9A C 1.0057(6) -0.3378(8) 0.05584(18)
C9B C 1.3378(8) 0.3435(6) 0.05584(18)
H7A H 0.9903 -0.3469 0.0377
H7B H 1.3469 0.3372 0.0377
H8A H 1.0273 -0.3792 0.0612
H8B H 1.3792 0.4065 0.0612
H9A H 1.0539 -0.2745 0.0587
H9B H 1.2745 0.3284 0.0587
C10A C 0.9437(5) -0.3377(7) 0.10018(14)
C10B C 1.3377(7) 0.2814(5) 0.10018(14)
H10A H 0.9827 -0.3632 0.1054
H10B H 1.3632 0.3459 0.1054
H11A H 0.9791 -0.2708 0.1028
H11B H 1.2708 0.2499 0.1028
C11A C 0.8248(5) -0.3324(7) 0.12680(14)
C11B C 1.3324(7) 0.1572(5) 0.12680(14)
H12A H 0.8526 -0.2689 0.1235
H12B H 1.2689 0.1215 0.1235
C12A C 0.7454(5) -0.3727(7) 0.14281(13)
C12B C 1.3727(7) 0.1181(5) 0.14281(13)
C13A C 0.7119(7) -0.3156(9) 0.15282(16)
C13B C 1.3156(9) 0.0275(6) 0.15282(16)
H13A H 0.7425 -0.2526 0.1486
H13B H 1.2526 -0.0049 0.1486
C14A C 0.6365(7) -0.3505(9) 0.16836(17)
C14B C 1.3505(9) -0.0130(6) 0.16836(17)
H14A H 0.6146 -0.3121 0.1745
H14B H 1.3121 -0.0733 0.1745
C15A C 0.5924(6) -0.4427(8) 0.17510(17)
C15B C 1.4427(8) 0.0351(6) 0.17510(17)
H15A H 0.5399 -0.4667 0.1856
H15B H 1.4667 0.0066 0.1856
C16A C 0.6232(5) -0.4992(8) 0.16688(16)
C16B C 1.4992(8) 0.1224(6) 0.16688(16)
H16A H 0.5929 -0.5609 0.1725
H16B H 1.5609 0.1538 0.1725
C17A C 0.6999(5) -0.4683(7) 0.15004(13)
C17B C 1.4683(7) 0.1682(5) 0.15004(13)
La2A La 0.6667 -0.6666 0.117840(16)
La2B La 1.6666 0.3333 0.117840(16)
N1A N 0.8154(5) -0.1125(7) 0.09720(12)
N1B N 1.1125(7) -0.0721(5) 0.09720(12)
N2A N 0.8827(4) -0.3006(6) 0.06123(10)
N2B N 1.3006(6) 0.1833(4) 0.06123(10)
H17A H 0.9149 -0.2418 0.0596
H17B H 1.2418 0.1567 0.0596
N3A N 0.8619(4) -0.3764(6) 0.11649(10)
N3B N 1.3764(6) 0.2383(4) 0.11649(10)
H18A H 0.8290 -0.4344 0.1197
H18B H 1.4344 0.2634 0.1197
N4A N 0.8403(5) 0.3950(7) 0.08517(16)
N4B N 0.6050(7) 0.4453(5) 0.08517(16)
O1A O 0.9087(3) -0.1381(4) 0.04412(9)
O1B O 1.1381(4) 0.0468(3) 0.04412(9)
O2A O 0.8283(3) -0.0518(4) 0.08108(10)
O2B O 1.0518(4) -0.1199(3) 0.08108(10)
O3A O 0.7385(4) -0.1646(6) 0.10584(13)
O3B O 1.1646(6) -0.0969(5) 0.10584(13)
O4A O 0.8854(4) -0.1199(6) 0.10375(10)
O4B O 1.1199(6) 0.0053(4) 0.10375(10)
O5A O 0.7294(3) -0.5228(4) 0.14128(9)
O5A_2 O 0.7294(3) 0.4772(4) 0.14128(9)
O5B O 0.5228(4) 0.2522(3) 0.14128(9)
O5B_2 O 1.5228(4) 0.2522(3) 0.14128(9)
O6A O 0.8427(3) 0.4421(4) 0.10424(11)
O6B O 0.5579(4) 0.4006(3) 0.10424(11)
O7A O 0.9058(5) 0.4234(7) 0.07013(16)
O7B O 0.5766(7) 0.4824(5) 0.07013(16)
O8A O 0.7678(4) 0.3166(6) 0.08117(12)
O8B O 0.6834(6) 0.4512(4) 0.08117(12)
loop_
_geom_bond_atom_site_label_1
_geom_bond_atom_site_label_2
_geom_bond_site_symmetry_1
_geom_bond_site_symmetry_2
C1 C2 1_555 1_555
C2 H1 1_555 1_555
C3 C2 1_555 1_555
H2 C3 1_555 1_555
C4 C3 1_555 1_555
H3 C4 1_555 1_555
C5 C4 1_555 1_555
H4 C5 1_555 1_555
C6 C1 1_555 1_555
C7 C6 1_555 1_555
H5 C7 1_555 1_555
C8 H6 1_555 1_555
C9 C8 1_555 1_555
H7 C9 1_555 1_555
H8 C9 1_555 1_555
H9 C9 1_555 1_555
C10 C8 1_555 1_555
H10 C10 1_555 1_555
H11 C10 1_555 1_555
C11 H12 1_555 1_555
C12 C11 1_555 1_555
C13 C12 1_555 1_555
H13 C13 1_555 1_555
C14 C13 1_555 1_555
H14 C14 1_555 1_555
C15 C14 1_555 1_555
H15 C15 1_555 1_555
C16 C15 1_555 1_555
H16 C16 1_555 1_555
C17 C12 1_555 1_555
La1 O1 1_555 1_555
La2 O5 1_555 1_555
N1 O2 1_555 1_555
N2 C7 1_555 1_555
H17 N2 1_555 1_555
N3 C10 1_555 1_555
H18 N3 1_555 1_555
N4 O6 1_555 1_555
O1 C1 1_555 1_555
O2 La1 1_555 1_555
O3 N1 1_555 1_555
O4 La1 1_555 1_555
O5 C17 1_555 1_555
O6 La2 1_555 1_555
O7 N4 1_555 1_555
O8 La2 1_555 1_555
C1A C2A 1_555 1_555
C1B C2B 1_555 1_555
C2A H1A 1_555 1_555
C2B H1B 1_555 1_555
C3A C2A 1_555 1_555
C3B C2B 1_555 1_555
H2A C3A 1_555 1_555
H2B C3B 1_555 1_555
C4A C3A 1_555 1_555
C4B C3B 1_555 1_555
H3A C4A 1_555 1_555
H3B C4B 1_555 1_555
C5A C4A 1_555 1_555
C5B C4B 1_555 1_555
H4A C5A 1_555 1_555
H4B C5B 1_555 1_555
C6A C1A 1_555 1_555
C6B C1B 1_555 1_555
C7A C6A 1_555 1_555
C7B C6B 1_555 1_555
H5A C7A 1_555 1_555
H5B C7B 1_555 1_555
C8A H6A 1_555 1_555
C8B H6B 1_555 1_555
C9A C8A 1_555 1_555
C9B C8B 1_555 1_555
H7A C9A 1_555 1_555
H7B C9B 1_555 1_555
H8A C9A 1_555 1_555
H8B C9B 1_555 1_555
H9A C9A 1_555 1_555
H9B C9B 1_555 1_555
C10A C8A 1_555 1_555
C10B C8B 1_555 1_555
H10A C10A 1_555 1_555
H10B C10B 1_555 1_555
H11A C10A 1_555 1_555
H11B C10B 1_555 1_555
C11A H12A 1_555 1_555
C11B H12B 1_555 1_555
C12A C11A 1_555 1_555
C12B C11B 1_555 1_555
C13A C12A 1_555 1_555
C13B C12B 1_555 1_555
H13A C13A 1_555 1_555
H13B C13B 1_555 1_555
C14A C13A 1_555 1_555
C14B C13B 1_555 1_555
H14A C14A 1_555 1_555
H14B C14B 1_555 1_555
C15A C14A 1_555 1_555
C15B C14B 1_555 1_555
H15A C15A 1_555 1_555
H15B C15B 1_555 1_555
C16A C15A 1_555 1_555
C16B C15B 1_555 1_555
H16A C16A 1_555 1_555
H16B C16B 1_555 1_555
C17A C12A 1_555 1_555
C17B C12B 1_555 1_555
La2A O5A 1_555 1_555
La2B O5B_2 1_555 1_555
N1A O2A 1_555 1_555
N1B O2B 1_555 1_555
N2A C7A 1_555 1_555
N2B C7B 1_555 1_555
H17A N2A 1_555 1_555
H17B N2B 1_555 1_555
N3A C10A 1_555 1_555
N3B C10B 1_555 1_555
H18A N3A 1_555 1_555
H18B N3B 1_555 1_555
N4A O6A 1_555 1_555
N4B O6B 1_555 1_555
O1A La1 1_555 1_555
O1B La1 1_555 1_555
O2A La1 1_555 1_555
O2B La1 1_555 1_555
O3A N1A 1_555 1_555
O3B N1B 1_555 1_555
O4A La1 1_555 1_555
O4B La1 1_555 1_555
O5A C17A 1_555 1_555
O5A_2 La2 1_555 1_555
O5B La2 1_555 1_555
O5B_2 C17B 1_555 1_555
O6A La2 1_555 1_555
O6B La2 1_555 1_555
O7A N4A 1_555 1_555
O7B N4B 1_555 1_555
O8A La2 1_555 1_555
O8B La2 1_555 1_555
C5 C6 1_555 1_555
C8 N2 1_555 1_555
C11 N3 1_555 1_555
C16 C17 1_555 1_555
N1 O4 1_555 1_555
N4 O8 1_555 1_555
C1A O1A 1_555 1_555
C1B O1B 1_555 1_555
C5A C6A 1_555 1_555
C5B C6B 1_555 1_555
C8A N2A 1_555 1_555
C8B N2B 1_555 1_555
C11A N3A 1_555 1_555
C11B N3B 1_555 1_555
C16A C17A 1_555 1_555
C16B C17B 1_555 1_555
N1A O4A 1_555 1_555
N1B O4B 1_555 1_555
N4A O8A 1_555 1_555
N4B O8B 1_555 1_555

#END
