
#######################################################################
#
#                 Cambridge Crystallographic Data Centre
#                                CCDC 
#
#######################################################################
#
# If this CIF has been generated from an entry in the Cambridge 
# Structural Database, then it will include bibliographic, chemical, 
# crystal, experimental, refinement or atomic coordinate data resulting 
# from the CCDC's data processing and validation procedures.
#
#######################################################################

data_HOQBUL
_symmetry_cell_setting           triclinic
_symmetry_space_group_name_H-M   'P -1'
_symmetry_Int_Tables_number      2
_space_group_name_Hall           '-P 1'
loop_
_symmetry_equiv_pos_site_id
_symmetry_equiv_pos_as_xyz
1 x,y,z
2 -x,-y,-z
_cell_length_a                   14.1701(9)
_cell_length_b                   15.6300(10)
_cell_length_c                   16.2426(10)
_cell_angle_alpha                65.3900(10)
_cell_angle_beta                 70.0860(10)
_cell_angle_gamma                80.5460(10)
_cell_volume                     3073.99
loop_
_atom_site_label
_atom_site_type_symbol
_atom_site_fract_x
_atom_site_fract_y
_atom_site_fract_z
O1 O 0.0546(4) -0.4837(4) -0.4146(4)
C1 C -0.0748(9) -0.7504(9) 0.0096(8)
H1 H -0.0673 -0.7825 -0.0293
C2 C -0.1664(10) -0.7526(11) 0.0839(10)
H2 H -0.2205 -0.7845 0.0912
C3 C -0.1760(9) -0.7116(10) 0.1408(10)
H3 H -0.2366 -0.7153 0.1884
C4 C -0.0944(8) -0.6594(8) 0.1329(7)
H4 H -0.1001 -0.6309 0.1746
C5 C -0.0061(7) -0.6554(7) 0.0568(7)
C6 C 0.0815(7) -0.6070(6) 0.0367(6)
C7 C 0.0948(8) -0.5617(7) 0.0910(7)
H5 H 0.0435 -0.5613 0.1449
C8 C 0.1801(10) -0.5196(7) 0.0655(8)
H6 H 0.1882 -0.4890 0.1009
C9 C 0.2572(9) -0.5212(7) -0.0140(8)
H7 H 0.3178 -0.4929 -0.0317
C10 C 0.2426(7) -0.5653(7) -0.0660(7)
H8 H 0.2945 -0.5664 -0.1194
C11 C -0.0937(7) -0.1577(7) -0.2526(7)
H9 H -0.1103 -0.2200 -0.2137
C12 C -0.0291(8) -0.1147(7) -0.2351(8)
H10 H -0.0038 -0.1480 -0.1842
C13 C -0.0027(8) -0.0257(7) -0.2908(8)
H11 H 0.0419 0.0034 -0.2805
C14 C -0.0448(7) 0.0227(7) -0.3660(7)
H12 H -0.0289 0.0850 -0.4055
C15 C -0.1095(6) -0.0224(6) -0.3808(6)
C16 C -0.1555(6) 0.0223(6) -0.4586(6)
C17 C -0.1444(7) 0.1147(6) -0.5209(7)
H13 H -0.1046 0.1534 -0.5165
C18 C -0.1919(8) 0.1499(7) -0.5897(8)
H14 H -0.1876 0.2129 -0.6311
C19 C -0.2474(9) 0.0861(9) -0.5948(8)
H15 H -0.2778 0.1059 -0.6424
C20 C -0.2561(8) -0.0008(7) -0.5325(7)
H16 H -0.2942 -0.0406 -0.5373
N1 N 0.0002(6) -0.6996(5) -0.0013(5)
N2 N 0.1562(5) -0.6070(5) -0.0429(5)
N3 N -0.1333(5) -0.1114(5) -0.3246(5)
N4 N -0.2132(5) -0.0370(5) -0.4609(5)
O2 O -0.4227(4) -0.3988(4) -0.6043(4)
O3 O -0.6042(4) -0.4201(4) -0.4546(4)
O4 O -0.5703(4) -0.5233(4) -0.5690(4)
O5 O -0.4542(5) -0.2997(4) -0.4874(5)
O6 O -0.3904(5) -0.5050(5) -0.7174(4)
O7 O -0.2515(4) -0.4539(4) -0.5874(4)
O8 O -0.4702(5) -0.3848(6) -0.2960(5)
O9 O -0.6319(6) -0.2989(5) -0.3483(6)
O10 O -0.2458(5) -0.3713(5) -0.7807(4)
O11 O -0.7947(5) -0.4389(5) -0.3081(6)
O12 O -0.7216(5) -0.7402(5) -0.3644(5)
O13 O -0.7304(4) -0.6310(5) -0.5407(5)
O14 O 0.0940(4) -0.4207(4) -0.6118(4)
O15 O 0.0711(4) -0.6132(3) -0.4971(4)
O16 O 0.0288(4) -0.6773(4) -0.2999(4)
O17 O 0.0678(4) -0.2899(4) -0.5256(4)
O18 O -0.1085(4) -0.4513(4) -0.3038(4)
O19 O 0.0267(4) -0.5694(4) -0.2048(4)
O20 O -0.1536(4) -0.6328(4) -0.1826(4)
O21 O 0.1246(5) -0.2162(5) -0.7203(4)
O22 O -0.0698(5) -0.1867(4) -0.6275(4)
O23 O -0.1196(4) -0.2595(4) -0.4073(4)
O24 O 0.0375(5) -0.3290(4) -0.3366(4)
O25 O -0.4631(4) -0.0875(4) -0.0608(4)
O26 O -0.4321(4) 0.0894(4) -0.1210(4)
O27 O -0.6182(4) 0.0464(4) -0.0372(4)
O28 O -0.2803(4) -0.0496(4) -0.1409(4)
O29 O -0.5078(4) 0.0507(4) -0.2215(4)
O30 O -0.4121(4) -0.2194(4) 0.0983(4)
O31 O -0.2110(5) -0.1802(5) 0.0045(4)
O32 O -0.3202(5) -0.2426(4) -0.0674(4)
O33 O -0.3662(5) -0.0806(4) -0.2578(4)
O34 O -0.3034(5) 0.0939(4) -0.3051(4)
O35 O -0.6757(5) 0.1644(5) -0.1988(5)
O36 O -0.4914(5) 0.2449(5) -0.2835(4)
O37 O 0.1143(6) -0.7688(4) -0.1576(5)
O38 O -0.2651(5) -0.2717(4) -0.2305(5)
O39 O -0.3298(5) -0.2004(5) -0.3969(6)
Al1 Al -0.5000 -0.5000 -0.5000
Al2 Al 0.0000 -0.5000 -0.5000
Al3 Al -0.5000 0.0000 0.0000
Cu1 Cu 0.12833(8) -0.67769(8) -0.10740(7)
Cu2 Cu -0.23428(8) -0.16066(7) -0.35372(8)
Mo1 Mo -0.46105(6) -0.62075(6) -0.63506(6)
Mo2 Mo -0.29029(6) -0.47542(6) -0.67713(6)
Mo3 Mo -0.32875(6) -0.35588(6) -0.53999(6)
Mo4 Mo -0.04815(5) -0.57607(5) -0.26640(5)
Mo5 Mo 0.02068(5) -0.27197(5) -0.63225(5)
Mo6 Mo -0.02587(5) -0.34546(5) -0.40068(5)
Mo7 Mo -0.31884(5) -0.15909(5) -0.02579(5)
Mo8 Mo -0.37314(6) 0.00337(5) -0.21462(5)
Mo9 Mo -0.55952(6) 0.15698(5) -0.18746(5)
O1A O -0.0546(4) -0.5163(4) -0.5854(4)
C1A C 0.0748(9) -0.2496(9) -1.0096(8)
H1A H 0.0673 -0.2175 -0.9707
C2A C 0.1664(10) -0.2474(11) -1.0839(10)
H2A H 0.2205 -0.2155 -1.0912
C3A C 0.1760(9) -0.2884(10) -1.1408(10)
H3A H 0.2366 -0.2847 -1.1884
C4A C 0.0944(8) -0.3406(8) -1.1329(7)
H4A H 0.1001 -0.3691 -1.1746
C5A C 0.0061(7) -0.3446(7) -1.0568(7)
C6A C -0.0815(7) -0.3930(6) -1.0367(6)
C7A C -0.0948(8) -0.4383(7) -1.0910(7)
H5A H -0.0435 -0.4387 -1.1449
C8A C -0.1801(10) -0.4804(7) -1.0655(8)
H6A H -0.1882 -0.5110 -1.1009
C9A C -0.2572(9) -0.4788(7) -0.9860(8)
H7A H -0.3178 -0.5071 -0.9683
C10A C -0.2426(7) -0.4347(7) -0.9340(7)
H8A H -0.2945 -0.4336 -0.8806
C11A C 0.0937(7) -0.8423(7) -0.7474(7)
H9A H 0.1103 -0.7800 -0.7863
C12A C 0.0291(8) -0.8853(7) -0.7649(8)
H10A H 0.0038 -0.8520 -0.8158
C13A C 0.0027(8) -0.9743(7) -0.7092(8)
H11A H -0.0419 -1.0034 -0.7195
C14A C 0.0448(7) -1.0227(7) -0.6340(7)
H12A H 0.0289 -1.0850 -0.5945
C15A C 0.1095(6) -0.9776(6) -0.6192(6)
C16A C 0.1555(6) -1.0223(6) -0.5414(6)
C17A C 0.1444(7) -1.1147(6) -0.4791(7)
H13A H 0.1046 -1.1534 -0.4835
C18A C 0.1919(8) -1.1499(7) -0.4103(8)
H14A H 0.1876 -1.2129 -0.3689
C19A C 0.2474(9) -1.0861(9) -0.4052(8)
H15A H 0.2778 -1.1059 -0.3576
C20A C 0.2561(8) -0.9992(7) -0.4675(7)
H16A H 0.2942 -0.9594 -0.4627
N1A N -0.0002(6) -0.3004(5) -0.9987(5)
N2A N -0.1562(5) -0.3930(5) -0.9571(5)
N3A N 0.1333(5) -0.8886(5) -0.6754(5)
N4A N 0.2132(5) -0.9630(5) -0.5391(5)
O2A O -0.5773(4) -0.6012(4) -0.3957(4)
O3A O -0.3958(4) -0.5799(4) -0.5454(4)
O4A O -0.4297(4) -0.4767(4) -0.4310(4)
O5A O -0.5458(5) -0.7003(4) -0.5126(5)
O6A O -0.6096(5) -0.4950(5) -0.2826(4)
O7A O -0.7485(4) -0.5461(4) -0.4126(4)
O8A O -0.5298(5) -0.6152(6) -0.7040(5)
O9A O -0.3681(6) -0.7011(5) -0.6517(6)
O10A O 0.2458(5) -0.6287(5) -0.2193(4)
O10A_2 O -0.7542(5) -0.6287(5) -0.2193(4)
O11A O -0.2053(5) -0.5611(5) -0.6919(6)
O12A O -0.2784(5) -0.2598(5) -0.6356(5)
O13A O -0.2696(4) -0.3690(5) -0.4593(5)
O14A O -0.0940(4) -0.5793(4) -0.3882(4)
O15A O -0.0711(4) -0.3868(3) -0.5029(4)
O16A O -0.0288(4) -0.3227(4) -0.7001(4)
O17A O -0.0678(4) -0.7101(4) -0.4744(4)
O18A O 0.1085(4) -0.5487(4) -0.6962(4)
O19A O -0.0267(4) -0.4306(4) -0.7952(4)
O20A O 0.1536(4) -0.3672(4) -0.8174(4)
O21A O -0.1246(5) -0.7838(5) -0.2797(4)
O22A O 0.0698(5) -0.8133(4) -0.3725(4)
O23A O 0.1196(4) -0.7405(4) -0.5927(4)
O24A O -0.0375(5) -0.6710(4) -0.6634(4)
O25A O -0.5369(4) 0.0875(4) 0.0608(4)
O26A O -0.5679(4) -0.0894(4) 0.1210(4)
O27A O -0.3818(4) -0.0464(4) 0.0372(4)
O28A O -0.7197(4) 0.0496(4) 0.1409(4)
O29A O -0.4922(4) -0.0507(4) 0.2215(4)
O30A O -0.5879(4) 0.2194(4) -0.0983(4)
O31A O -0.7890(5) 0.1802(5) -0.0045(4)
O32A O -0.6798(5) 0.2426(4) 0.0674(4)
O33A O 0.3662(5) -0.9194(4) -0.7422(4)
O33A_2 O -0.6338(5) 0.0806(4) 0.2578(4)
O34A O -0.6966(5) -0.0939(4) 0.3051(4)
O35A O -0.3243(5) -0.1644(5) 0.1988(5)
O36A O -0.5086(5) -0.2449(5) 0.2835(4)
O37A O -0.1143(6) -0.2312(4) -0.8424(5)
O38A O 0.2651(5) -0.7283(4) -0.7695(5)
O39A O 0.3298(5) -0.7996(5) -0.6031(6)
Cu1A Cu -0.12833(8) -0.32231(8) -0.89260(7)
Cu1_2 Cu -0.87167(8) -0.67769(8) -0.10740(7)
Cu2A Cu 0.23428(8) -0.83934(7) -0.64628(8)
Cu2A_2 Cu -0.76572(8) 0.16066(7) 0.35372(8)
Mo1A Mo -0.53895(6) -0.37925(6) -0.36494(6)
Mo2A Mo -0.70971(6) -0.52458(6) -0.32287(6)
Mo3A Mo -0.67125(6) -0.64412(6) -0.46001(6)
Mo4A Mo 0.04815(5) -0.42393(5) -0.73360(5)
Mo5A Mo -0.02068(5) -0.72803(5) -0.36775(5)
Mo6A Mo 0.02587(5) -0.65454(5) -0.59932(5)
Mo7A Mo -0.68116(5) 0.15909(5) 0.02579(5)
Mo8A Mo -0.62686(6) -0.00337(5) 0.21462(5)
Mo9A Mo -0.44048(6) -0.15698(5) 0.18746(5)
loop_
_geom_bond_atom_site_label_1
_geom_bond_atom_site_label_2
_geom_bond_site_symmetry_1
_geom_bond_site_symmetry_2
O1 Al2 1_555 1_555
C1 H1 1_555 1_555
C2 C1 1_555 1_555
H2 C2 1_555 1_555
C3 C2 1_555 1_555
H3 C3 1_555 1_555
C4 C3 1_555 1_555
H4 C4 1_555 1_555
C5 C4 1_555 1_555
C6 C5 1_555 1_555
C7 C6 1_555 1_555
H5 C7 1_555 1_555
C8 C7 1_555 1_555
H6 C8 1_555 1_555
C9 C8 1_555 1_555
H7 C9 1_555 1_555
C10 C9 1_555 1_555
H8 C10 1_555 1_555
C11 H9 1_555 1_555
C12 C11 1_555 1_555
H10 C12 1_555 1_555
C13 C12 1_555 1_555
H11 C13 1_555 1_555
C14 C13 1_555 1_555
H12 C14 1_555 1_555
C15 C14 1_555 1_555
C16 C15 1_555 1_555
C17 C16 1_555 1_555
H13 C17 1_555 1_555
C18 C17 1_555 1_555
H14 C18 1_555 1_555
C19 C18 1_555 1_555
H15 C19 1_555 1_555
C20 C19 1_555 1_555
H16 C20 1_555 1_555
N1 C1 1_555 1_555
N2 C6 1_555 1_555
N3 C11 1_555 1_555
N4 C16 1_555 1_555
O2 Al1 1_555 1_555
O3 Al1 1_555 1_555
O4 Al1 1_555 1_555
O5 Mo3 1_555 1_555
O6 Mo1 1_555 1_555
O7 Mo2 1_555 1_555
O8 Mo1A 1_555 1_555
O9 Mo1A 1_555 1_555
O10 Mo2 1_555 1_555
O11 Mo2A 1_555 1_555
O12 Mo3A 1_555 1_555
O13 Mo3A 1_555 1_555
O14 Al2 1_555 1_555
O15 Al2 1_555 1_555
O16 Mo4 1_555 1_555
O17 Mo5 1_555 1_555
O18 Mo4 1_555 1_555
O19 Cu1 1_555 1_555
O20 Mo4 1_555 1_555
O21 Mo5 1_555 1_555
O22 Mo5 1_555 1_555
O23 Cu2 1_555 1_555
O24 Mo6 1_555 1_555
O25 Al3 1_555 1_555
O26 Al3 1_555 1_555
O27 Al3 1_555 1_555
O28 Mo7 1_555 1_555
O29 Mo8 1_555 1_555
O30 Mo7 1_555 1_555
O31 Mo7 1_555 1_555
O32 Mo7 1_555 1_555
O33 Cu2 1_555 1_555
O34 Mo8 1_555 1_555
O35 Mo9 1_555 1_555
O36 Mo9 1_555 1_555
O37 Cu1 1_555 1_555
O38 Cu2 1_555 1_555
O39 Cu2 1_555 1_555
Al1 O2A 1_555 1_555
Al2 O1A 1_555 1_555
Al3 O25A 1_555 1_555
Cu1 N1 1_555 1_555
Cu2 N3 1_555 1_555
Mo1 O4 1_555 1_555
Mo2 O2 1_555 1_555
Mo3 O2 1_555 1_555
Mo4 O1 1_555 1_555
Mo5 O14 1_555 1_555
Mo6 O1 1_555 1_555
Mo7 O25 1_555 1_555
Mo8 O25 1_555 1_555
Mo9 O26 1_555 1_555
O1A Mo4A 1_555 1_555
C1A H1A 1_555 1_555
C2A C1A 1_555 1_555
H2A C2A 1_555 1_555
C3A C2A 1_555 1_555
H3A C3A 1_555 1_555
C4A C3A 1_555 1_555
H4A C4A 1_555 1_555
C5A C4A 1_555 1_555
C6A C5A 1_555 1_555
C7A C6A 1_555 1_555
H5A C7A 1_555 1_555
C8A C7A 1_555 1_555
H6A C8A 1_555 1_555
C9A C8A 1_555 1_555
H7A C9A 1_555 1_555
C10A C9A 1_555 1_555
H8A C10A 1_555 1_555
C11A H9A 1_555 1_555
C12A C11A 1_555 1_555
H10A C12A 1_555 1_555
C13A C12A 1_555 1_555
H11A C13A 1_555 1_555
C14A C13A 1_555 1_555
H12A C14A 1_555 1_555
C15A C14A 1_555 1_555
C16A C15A 1_555 1_555
C17A C16A 1_555 1_555
H13A C17A 1_555 1_555
C18A C17A 1_555 1_555
H14A C18A 1_555 1_555
C19A C18A 1_555 1_555
H15A C19A 1_555 1_555
C20A C19A 1_555 1_555
H16A C20A 1_555 1_555
N1A C1A 1_555 1_555
N2A C6A 1_555 1_555
N3A C11A 1_555 1_555
N4A C16A 1_555 1_555
O2A Mo2A 1_555 1_555
O3A Al1 1_555 1_555
O4A Al1 1_555 1_555
O5A Mo1 1_555 1_555
O6A Mo1A 1_555 1_555
O7A Mo2A 1_555 1_555
O8A Mo1 1_555 1_555
O9A Mo1 1_555 1_555
O10A Cu1 1_555 1_555
O10A_2 Cu1_2 1_555 1_555
O11A Mo2 1_555 1_555
O12A Mo3 1_555 1_555
O13A Mo3 1_555 1_555
O14A Al2 1_555 1_555
O15A Al2 1_555 1_555
O16A Mo5 1_555 1_555
O17A Mo5A 1_555 1_555
O18A Mo4A 1_555 1_555
O19A Cu1A 1_555 1_555
O20A Mo4A 1_555 1_555
O21A Mo5A 1_555 1_555
O22A Mo5A 1_555 1_555
O23A Cu2A 1_555 1_555
O24A Mo6A 1_555 1_555
O25A Mo7A 1_555 1_555
O26A Al3 1_555 1_555
O27A Al3 1_555 1_555
O28A Mo7A 1_555 1_555
O29A Mo8A 1_555 1_555
O30A Mo9 1_555 1_555
O31A Mo7A 1_555 1_555
O32A Mo7A 1_555 1_555
O33A Cu2A 1_555 1_555
O33A_2 Cu2A_2 1_555 1_555
O34A Mo8A 1_555 1_555
O35A Mo9A 1_555 1_555
O36A Mo9A 1_555 1_555
O37A Cu1A 1_555 1_555
O38A Cu2A 1_555 1_555
O39A Cu2A 1_555 1_555
Cu1A O10 1_555 1_555
Cu2A N3A 1_555 1_555
Mo1A O3 1_555 1_555
Mo2A O3 1_555 1_555
Mo3A O4 1_555 1_555
Mo4A O14 1_555 1_555
Mo5A O15 1_555 1_555
Mo6A O15 1_555 1_555
Mo7A O27 1_555 1_555
Mo8A O25A 1_555 1_555
Mo9A O30 1_555 1_555
C5 N1 1_555 1_555
C10 N2 1_555 1_555
C15 N3 1_555 1_555
C20 N4 1_555 1_555
N2 Cu1 1_555 1_555
N4 Cu2 1_555 1_555
O5 Mo1A 1_555 1_555
O6 Mo2 1_555 1_555
O7 Mo3 1_555 1_555
O16 Mo5A 1_555 1_555
O17 Mo6 1_555 1_555
O18 Mo6 1_555 1_555
O19 Mo4 1_555 1_555
O23 Mo6 1_555 1_555
O26 Mo8 1_555 1_555
O27 Mo9 1_555 1_555
O28 Mo8 1_555 1_555
O29 Mo9 1_555 1_555
O33 Mo8 1_555 1_555
Mo1 O3A 1_555 1_555
Mo2 O3A 1_555 1_555
Mo3 O4A 1_555 1_555
Mo4 O14A 1_555 1_555
Mo5 O15A 1_555 1_555
Mo6 O15A 1_555 1_555
Mo7 O27A 1_555 1_555
O1A Mo6A 1_555 1_555
C5A N1A 1_555 1_555
C10A N2A 1_555 1_555
C15A N3A 1_555 1_555
C20A N4A 1_555 1_555
N1A Cu1A 1_555 1_555
N2A Cu1A 1_555 1_555
N4A Cu2A 1_555 1_555
O2A Mo3A 1_555 1_555
O4A Mo1A 1_555 1_555
O5A Mo3A 1_555 1_555
O6A Mo2A 1_555 1_555
O7A Mo3A 1_555 1_555
O10A_2 Mo2A 1_555 1_555
O14A Mo5A 1_555 1_555
O16A Mo4A 1_555 1_555
O17A Mo6A 1_555 1_555
O18A Mo6A 1_555 1_555
O19A Mo4A 1_555 1_555
O23A Mo6A 1_555 1_555
O26A Mo8A 1_555 1_555
O26A Mo9A 1_555 1_555
O27A Mo9A 1_555 1_555
O28A Mo8A 1_555 1_555
O29A Mo9A 1_555 1_555
O30A Mo7A 1_555 1_555
O33A_2 Mo8A 1_555 1_555

#END
