
#######################################################################
#
#                 Cambridge Crystallographic Data Centre
#                                CCDC 
#
#######################################################################
#
# If this CIF has been generated from an entry in the Cambridge 
# Structural Database, then it will include bibliographic, chemical, 
# crystal, experimental, refinement or atomic coordinate data resulting 
# from the CCDC's data processing and validation procedures.
#
#######################################################################

data_HOQBEW
_symmetry_cell_setting           monoclinic
_symmetry_space_group_name_H-M   'P 21/n'
_symmetry_Int_Tables_number      14
_space_group_name_Hall           '-P 2yn'
loop_
_symmetry_equiv_pos_site_id
_symmetry_equiv_pos_as_xyz
1 x,y,z
2 1/2-x,1/2+y,1/2-z
3 -x,-y,-z
4 1/2+x,1/2-y,1/2+z
_cell_length_a                   11.34310(10)
_cell_length_b                   20.0231(2)
_cell_length_c                   13.0078(2)
_cell_angle_alpha                90
_cell_angle_beta                 101.8450(10)
_cell_angle_gamma                90
_cell_volume                     2891.47
loop_
_atom_site_label
_atom_site_type_symbol
_atom_site_fract_x
_atom_site_fract_y
_atom_site_fract_z
Sn1 Sn -0.247617(12) 0.454706(7) 0.202469(13)
Sn2 Sn 0.429029(13) 0.140396(7) 0.276809(14)
O1 O -0.06792(14) 0.42623(8) 0.17133(15)
O2 O 0.00427(14) 0.52902(8) 0.17202(16)
O3 O 0.39448(14) 0.24424(8) 0.23414(16)
O4 O 0.19659(15) 0.22826(8) 0.20106(16)
O5 O 0.56778(13) 0.46746(8) 0.24683(14)
O6 O 0.44942(15) 0.55438(8) 0.18612(15)
C1 C 0.14145(17) 0.43698(10) 0.18093(17)
C2 C 0.24261(18) 0.47757(10) 0.18716(17)
H1 H 0.2331 0.5247 0.1814
C3 C 0.35755(18) 0.44978(10) 0.20171(17)
C4 C 0.37097(18) 0.38094(10) 0.20881(17)
H2 H 0.4492 0.3618 0.2199
C5 C 0.27009(19) 0.33954(10) 0.19969(18)
C6 C 0.15568(19) 0.36801(10) 0.18568(18)
H3 H 0.0869 0.3400 0.1793
C7 C 0.01795(18) 0.46746(11) 0.17359(19)
C8 C 0.46662(18) 0.49446(11) 0.21162(17)
C9 C 0.2858(2) 0.26553(11) 0.21121(19)
C10 C -0.2937(3) 0.35229(15) 0.1812(5)
H4 H -0.3774 0.3483 0.1430
H5 H -0.2848 0.3306 0.2499
H6 H -0.2403 0.3307 0.1408
C11 C -0.3004(2) 0.51590(16) 0.0694(2)
H7 H -0.3474 0.5537 0.0870
H8 H -0.3497 0.4899 0.0125
H9 H -0.2287 0.5325 0.0465
C12 C -0.1663(2) 0.4888(2) 0.3543(2)
H10 H -0.0817 0.4747 0.3709
H11 H -0.2088 0.4698 0.4059
H12 H -0.1706 0.5376 0.3564
C13 C 0.3533(3) 0.14579(14) 0.4127(2)
H13 H 0.2675 0.1345 0.3940
H14 H 0.3628 0.1912 0.4414
H15 H 0.3947 0.1142 0.4655
C14 C 0.6146(2) 0.16291(15) 0.2967(4)
H16 H 0.6498 0.1676 0.3717
H17 H 0.6246 0.2048 0.2605
H18 H 0.6555 0.1268 0.2671
C15 C 0.3437(3) 0.09774(14) 0.1316(2)
H19 H 0.2701 0.0747 0.1401
H20 H 0.3983 0.0657 0.1087
H21 H 0.3231 0.1331 0.0788
Sn1_2 Sn 0.752383(12) 0.454706(7) 0.202469(13)
Sn2A Sn 0.070971(13) 0.640396(7) 0.223191(14)
O2A O 0.49573(14) 0.02902(8) 0.32798(16)
O5_2 O -0.43222(13) 0.46746(8) 0.24683(14)
N1 N -0.01662(17) 0.17232(10) 0.22362(17)
H22 H 0.004(3) 0.1332(17) 0.255(3)
H23 H 0.049(3) 0.1912(16) 0.213(2)
C16 C -0.0750(3) 0.2139(2) 0.2922(3)
H24 H -0.1563 0.1958 0.2914
H25 H -0.0851 0.2597 0.2627
C17 C -0.0049(5) 0.2182(3) 0.4084(5)
H26 H 0.0368 0.1748 0.4289
C18 C -0.0911(5) 0.2327(3) 0.4808(4)
H27 H -0.1503 0.1966 0.4754
H28 H -0.1328 0.2750 0.4604
H29 H -0.0458 0.2359 0.5534
C19 C 0.0879(5) 0.2729(3) 0.4155(4)
H30 H 0.1429 0.2625 0.3686
H31 H 0.1336 0.2762 0.4879
H32 H 0.0474 0.3155 0.3946
C20 C -0.0985(3) 0.15417(19) 0.1225(2)
H33 H -0.1342 0.1950 0.0860
H34 H -0.1647 0.1255 0.1361
C21 C -0.0235(7) 0.1156(5) 0.0518(6)
H35 H 0.0420 0.0896 0.0978
C22 C 0.0317(9) 0.1632(6) -0.0158(6)
H36 H 0.0761 0.1376 -0.0597
H37 H 0.0870 0.1937 0.0294
H38 H -0.0322 0.1890 -0.0607
C23 C -0.1102(7) 0.0667(3) -0.0195(6)
H39 H -0.0658 0.0422 -0.0647
H40 H -0.1759 0.0920 -0.0632
H41 H -0.1436 0.0350 0.0244
H42? H -0.1165 0.2517 0.2508
H43? H -0.1367 0.1869 0.3171
C24? C 0.0103(14) 0.2404(6) 0.3835(12)
H44? H 0.0932 0.2430 0.3686
C25? C 0.0034(15) 0.1857(8) 0.4622(11)
H45? H 0.0583 0.1960 0.5288
H46? H 0.0264 0.1431 0.4351
H47? H -0.0792 0.1826 0.4736
C26? C -0.0261(18) 0.3082(7) 0.4244(15)
H48? H 0.0359 0.3225 0.4845
H49? H -0.1033 0.3035 0.4464
H50? H -0.0338 0.3416 0.3684
H51? H -0.1699 0.1332 0.1418
H52? H -0.1266 0.1970 0.0880
C27? C -0.0691(17) 0.1142(11) 0.0446(16)
H53? H -0.0303 0.0723 0.0773
C28? C 0.015(2) 0.1487(16) -0.008(2)
H54? H 0.0892 0.1590 0.0428
H55? H -0.0215 0.1902 -0.0394
H56? H 0.0343 0.1200 -0.0637
C29? C -0.185(2) 0.0955(14) -0.0365(12)
H57? H -0.1636 0.0660 -0.0901
H58? H -0.2223 0.1362 -0.0700
H59? H -0.2411 0.0726 -0.0007
loop_
_geom_bond_atom_site_label_1
_geom_bond_atom_site_label_2
_geom_bond_site_symmetry_1
_geom_bond_site_symmetry_2
Sn1 O1 1_555 1_555
Sn2 O3 1_555 1_555
O1 C7 1_555 1_555
O2 C7 1_555 1_555
O3 C9 1_555 1_555
O4 C9 1_555 1_555
O5 C8 1_555 1_555
O6 C8 1_555 1_555
C1 C2 1_555 1_555
C2 H1 1_555 1_555
C3 C2 1_555 1_555
C4 C3 1_555 1_555
H2 C4 1_555 1_555
C5 C4 1_555 1_555
C6 C1 1_555 1_555
H3 C6 1_555 1_555
C7 C1 1_555 1_555
C8 C3 1_555 1_555
C9 C5 1_555 1_555
C10 Sn1 1_555 1_555
H4 C10 1_555 1_555
H5 C10 1_555 1_555
H6 C10 1_555 1_555
C11 Sn1 1_555 1_555
H7 C11 1_555 1_555
H8 C11 1_555 1_555
H9 C11 1_555 1_555
C12 Sn1 1_555 1_555
H10 C12 1_555 1_555
H11 C12 1_555 1_555
H12 C12 1_555 1_555
C13 Sn2 1_555 1_555
H13 C13 1_555 1_555
H14 C13 1_555 1_555
H15 C13 1_555 1_555
C14 Sn2 1_555 1_555
H16 C14 1_555 1_555
H17 C14 1_555 1_555
H18 C14 1_555 1_555
C15 Sn2 1_555 1_555
H19 C15 1_555 1_555
H20 C15 1_555 1_555
H21 C15 1_555 1_555
N1 H22 1_555 1_555
H23 N1 1_555 1_555
C16 N1 1_555 1_555
H24 C16 1_555 1_555
H25 C16 1_555 1_555
C17 C16 1_555 1_555
H26 C17 1_555 1_555
C18 C17 1_555 1_555
H27 C18 1_555 1_555
H28 C18 1_555 1_555
H29 C18 1_555 1_555
C19 C17 1_555 1_555
H30 C19 1_555 1_555
H31 C19 1_555 1_555
H32 C19 1_555 1_555
C20 N1 1_555 1_555
H33 C20 1_555 1_555
H34 C20 1_555 1_555
C21 C20 1_555 1_555
H35 C21 1_555 1_555
C22 C21 1_555 1_555
H36 C22 1_555 1_555
H37 C22 1_555 1_555
H38 C22 1_555 1_555
C23 C21 1_555 1_555
H39 C23 1_555 1_555
H40 C23 1_555 1_555
H41 C23 1_555 1_555
Sn1_2 O5 1_555 1_555
Sn2A O2 1_555 1_555
O2A Sn2 1_555 1_555
O5_2 Sn1 1_555 1_555
C5 C6 1_555 1_555

#END
