
#######################################################################
#
#                 Cambridge Crystallographic Data Centre
#                                CCDC 
#
#######################################################################
#
# If this CIF has been generated from an entry in the Cambridge 
# Structural Database, then it will include bibliographic, chemical, 
# crystal, experimental, refinement or atomic coordinate data resulting 
# from the CCDC's data processing and validation procedures.
#
#######################################################################

data_HOQBAR01
_symmetry_cell_setting           orthorhombic
_symmetry_space_group_name_H-M   'P c a 21'
_symmetry_Int_Tables_number      29
_space_group_name_Hall           'P 2c -2ac'
loop_
_symmetry_equiv_pos_site_id
_symmetry_equiv_pos_as_xyz
1 x,y,z
2 -x,-y,1/2+z
3 1/2+x,-y,z
4 1/2-x,y,1/2+z
_cell_length_a                   8.8730(10)
_cell_length_b                   14.9974(16)
_cell_length_c                   22.743(3)
_cell_angle_alpha                90
_cell_angle_beta                 90
_cell_angle_gamma                90
_cell_volume                     3026.45
loop_
_atom_site_label
_atom_site_type_symbol
_atom_site_fract_x
_atom_site_fract_y
_atom_site_fract_z
Cu1 Cu 0.46802(3) -0.051010(14) 0.140430(10)
O5 O 0.55029(18) -0.30263(10) 0.07666(8)
O6 O 0.54671(16) -0.16502(9) 0.11105(6)
O7 O 0.21441(16) -0.05956(9) 0.15868(7)
O8 O -0.03343(15) -0.07418(9) 0.16792(6)
N1 N 0.52593(18) -0.08573(11) 0.22346(8)
N2 N 0.6890(2) -0.11255(12) 0.39561(8)
H1 H 0.761(2) -0.1492(13) 0.3994(12)
N3 N 0.58479(19) 0.00574(11) 0.55834(7)
C1 C 0.6547(2) -0.12911(13) 0.23605(9)
H3 H 0.7109 -0.1542 0.2046
C2 C 0.7089(2) -0.13884(14) 0.29253(9)
H4 H 0.7996 -0.1709 0.2993
C3 C 0.6301(2) -0.10128(13) 0.33997(9)
C4 C 0.4943(2) -0.05785(14) 0.32688(11)
H5 H 0.4348 -0.0327 0.3574
C5 C 0.4480(3) -0.05211(14) 0.26893(11)
H6 H 0.3556 -0.0226 0.2608
C6 C 0.6589(2) -0.07259(14) 0.55342(9)
H7 H 0.6893 -0.1020 0.5885
C7 C 0.6926(2) -0.11189(14) 0.50063(9)
H8 H 0.7447 -0.1672 0.4998
C8 C 0.6505(2) -0.07062(14) 0.44792(9)
C9 C 0.5801(2) 0.01220(14) 0.45229(9)
H9 H 0.5525 0.0442 0.4179
C10 C 0.5510(3) 0.04737(14) 0.50754(12)
H10 H 0.5043 0.1043 0.5097
C11 C 0.0998(2) -0.10544(13) 0.16735(8)
C12 C 0.1100(2) -0.20571(14) 0.17803(10)
H11 H 0.0813 -0.2182 0.2193
H12 H 0.0363 -0.2362 0.1523
C13 C 0.2659(2) -0.24456(13) 0.16664(10)
H13 H 0.2676 -0.3075 0.1797
H14 H 0.3411 -0.2114 0.1902
C14 C 0.3104(2) -0.23999(14) 0.10095(9)
H15 H 0.2714 -0.2932 0.0801
H16 H 0.2651 -0.1864 0.0827
C15 C 0.4802(2) -0.23617(14) 0.09519(9)
Cu1A Cu 0.53198(3) 0.051010(14) 0.640430(10)
Cu1B Cu -0.03198(3) 0.051010(14) 0.140430(10)
O8B O 0.46657(15) 0.07418(9) 0.16792(6)
N3A N 0.41521(19) -0.00574(11) 0.05834(7)
Cu2 Cu 0.00207(3) -0.460760(15) 0.356970(11)
O1 O -0.05705(16) -0.34183(9) 0.38535(7)
O2 O -0.04069(19) -0.20033(11) 0.41001(9)
O3 O 0.25001(15) -0.45299(9) 0.34348(6)
O4 O 0.48460(15) -0.41238(10) 0.32732(7)
N4 N -0.04554(18) -0.41998(11) 0.27430(8)
N5 N -0.1762(2) -0.37928(13) 0.09953(8)
H2 H -0.253(2) -0.3470(15) 0.0974(12)
N6 N -0.04372(18) -0.48874(12) -0.06249(7)
C16 C -0.1734(2) -0.37819(13) 0.26010(9)
H17 H -0.2359 -0.3568 0.2909
C17 C -0.2192(2) -0.36455(13) 0.20278(9)
H18 H -0.3112 -0.3345 0.1949
C18 C -0.1292(2) -0.39534(13) 0.15621(9)
C19 C 0.0071(2) -0.43697(15) 0.17140(10)
H19 H 0.0739 -0.4574 0.1417
C20 C 0.0428(3) -0.44780(15) 0.22962(10)
H20 H 0.1350 -0.4766 0.2391
C21 C -0.0112(2) -0.53124(14) -0.01183(12)
H21 H 0.0411 -0.5864 -0.0140
C22 C -0.0500(2) -0.49898(14) 0.04332(9)
H22 H -0.0255 -0.5319 0.0777
C23 C -0.1252(2) -0.41799(14) 0.04756(9)
C24 C -0.1613(2) -0.37404(14) -0.00512(9)
H23 H -0.2138 -0.3188 -0.0042
C25 C -0.1202(2) -0.41146(14) -0.05804(9)
H24 H -0.1472 -0.3812 -0.0932
C26 C 0.0158(2) -0.27543(14) 0.40551(9)
C27 C 0.3455(2) -0.39467(13) 0.33110(9)
C28 C 0.2963(2) -0.29836(14) 0.32246(9)
H25 H 0.1952 -0.2971 0.3040
H26 H 0.3676 -0.2680 0.2957
C29 C 0.2908(2) -0.24875(14) 0.38112(10)
H27 H 0.2643 -0.1857 0.3735
H28 H 0.3928 -0.2496 0.3988
C30 C 0.1789(2) -0.28687(14) 0.42577(9)
H29 H 0.2001 -0.3511 0.4317
H30 H 0.1927 -0.2563 0.4640
Cu2A Cu -0.00207(3) -0.539240(15) -0.143030(11)
Cu2B Cu 0.50207(3) -0.539240(15) 0.356970(11)
O4B O -0.01540(15) -0.58762(10) 0.32732(7)
N6A N 0.04372(18) -0.51126(12) 0.43751(7)
loop_
_geom_bond_atom_site_label_1
_geom_bond_atom_site_label_2
_geom_bond_site_symmetry_1
_geom_bond_site_symmetry_2
Cu1 O6 1_555 1_555
Cu2 O1 1_555 1_555
O1 C26 1_555 1_555
O2 C26 1_555 1_555
O3 Cu2 1_555 1_555
O4 C27 1_555 1_555
O5 C15 1_555 1_555
O6 C15 1_555 1_555
O7 Cu1 1_555 1_555
O8 C11 1_555 1_555
N1 Cu1 1_555 1_555
N2 H1 1_555 1_555
N3 C6 1_555 1_555
N4 Cu2 1_555 1_555
N5 H2 1_555 1_555
N6 C21 1_555 1_555
C1 N1 1_555 1_555
H3 C1 1_555 1_555
C2 C1 1_555 1_555
H4 C2 1_555 1_555
C3 N2 1_555 1_555
C4 C3 1_555 1_555
H5 C4 1_555 1_555
C5 N1 1_555 1_555
H6 C5 1_555 1_555
C6 H7 1_555 1_555
C7 C6 1_555 1_555
H8 C7 1_555 1_555
C8 N2 1_555 1_555
C9 C8 1_555 1_555
H9 C9 1_555 1_555
C10 N3 1_555 1_555
H10 C10 1_555 1_555
C11 O7 1_555 1_555
C12 C11 1_555 1_555
H11 C12 1_555 1_555
H12 C12 1_555 1_555
C13 C12 1_555 1_555
H13 C13 1_555 1_555
H14 C13 1_555 1_555
C14 C13 1_555 1_555
H15 C14 1_555 1_555
H16 C14 1_555 1_555
C15 C14 1_555 1_555
C16 N4 1_555 1_555
H17 C16 1_555 1_555
C17 C16 1_555 1_555
H18 C17 1_555 1_555
C18 N5 1_555 1_555
C19 C18 1_555 1_555
H19 C19 1_555 1_555
C20 N4 1_555 1_555
H20 C20 1_555 1_555
C21 H21 1_555 1_555
C22 C21 1_555 1_555
H22 C22 1_555 1_555
C23 N5 1_555 1_555
C24 C23 1_555 1_555
H23 C24 1_555 1_555
C25 N6 1_555 1_555
H24 C25 1_555 1_555
C26 C30 1_555 1_555
C27 O3 1_555 1_555
C28 C27 1_555 1_555
H25 C28 1_555 1_555
H26 C28 1_555 1_555
C29 C28 1_555 1_555
H27 C29 1_555 1_555
H28 C29 1_555 1_555
C30 C29 1_555 1_555
H29 C30 1_555 1_555
H30 C30 1_555 1_555
Cu1A N3 1_555 1_555
Cu1B O8 1_555 1_555
Cu2A N6 1_555 1_555
Cu2B O4 1_555 1_555
O4B Cu2 1_555 1_555
O8B Cu1 1_555 1_555
N3A Cu1 1_555 1_555
N6A Cu2 1_555 1_555
C2 C3 1_555 1_555
C4 C5 1_555 1_555
C7 C8 1_555 1_555
C9 C10 1_555 1_555
C17 C18 1_555 1_555
C19 C20 1_555 1_555
C22 C23 1_555 1_555
C24 C25 1_555 1_555

#END
