
#######################################################################
#
#                 Cambridge Crystallographic Data Centre
#                                CCDC 
#
#######################################################################
#
# If this CIF has been generated from an entry in the Cambridge 
# Structural Database, then it will include bibliographic, chemical, 
# crystal, experimental, refinement or atomic coordinate data resulting 
# from the CCDC's data processing and validation procedures.
#
#######################################################################

data_HOQBOF
_symmetry_cell_setting           triclinic
_symmetry_space_group_name_H-M   'P -1'
_symmetry_Int_Tables_number      2
_space_group_name_Hall           '-P 1'
loop_
_symmetry_equiv_pos_site_id
_symmetry_equiv_pos_as_xyz
1 x,y,z
2 -x,-y,-z
_cell_length_a                   14.1896(13)
_cell_length_b                   15.6768(14)
_cell_length_c                   16.2269(15)
_cell_angle_alpha                65.4780(10)
_cell_angle_beta                 70.5120(10)
_cell_angle_gamma                80.5860(10)
_cell_volume                     3094.59
loop_
_atom_site_label
_atom_site_type_symbol
_atom_site_fract_x
_atom_site_fract_y
_atom_site_fract_z
O1 O 0.0967(5) 0.0816(5) -0.1158(5)
C1 C -0.2549(12) 0.5005(11) -0.0335(10)
H1 H -0.2917 0.4611 -0.0403
C2 C -0.2466(12) 0.5888(11) -0.0942(10)
H2 H -0.2841 0.6103 -0.1366
C3 C -0.1822(4) 0.6535(3) -0.0981(3)
H3 H -0.1701 0.7139 -0.1442
C4 C -0.0855(4) 0.1045(3) -0.5347(3)
C5 C 0.0085(4) 0.1561(3) -0.5610(3)
C6 C -0.0948(4) 0.0635(3) -0.5873(3)
H4 H -0.0417 0.0627 -0.6395
C7 C -0.2590(4) 0.0240(3) -0.4861(3)
H5 H -0.3203 -0.0019 -0.4703
C8 C -0.1798(4) 0.0229(3) -0.5667(3)
H6 H -0.1870 -0.0055 -0.6044
C9 C 0.0975(4) 0.1574(3) -0.6327(3)
H7 H 0.1014 0.1260 -0.6715
C10 C 0.0782(4) 0.2476(3) -0.5108(3)
H8 H 0.0715 0.2791 -0.4716
C11 C 0.1760(4) 0.2023(3) -0.6464(3)
H9 H 0.2348 0.2047 -0.6949
C12 C 0.1650(4) 0.2496(3) -0.5791(3)
H10 H 0.2189 0.2805 -0.5849
C13 C -0.1397(13) 0.6120(11) -0.0215(11)
H11 H -0.1009 0.6492 -0.0141
C14 C -0.1523(10) 0.5215(8) 0.0414(9)
C15 C -0.1090(9) 0.4788(9) 0.1185(8)
C16 C -0.0395(12) 0.5214(11) 0.1332(10)
H12 H -0.0189 0.5815 0.0907
C17 C -0.0016(12) 0.4770(13) 0.2082(14)
H13 H 0.0395 0.5076 0.2209
C18 C -0.0272(14) 0.3840(13) 0.2647(14)
H14 H 0.0012 0.3492 0.3133
C19 C -0.0948(9) 0.3440(8) 0.2480(9)
H15 H -0.1139 0.2829 0.2881
C20 C -0.2419(12) 0.0648(11) -0.4321(11)
H16 H -0.2914 0.0627 -0.3767
Cr1 Cr 0.0000 0.0000 0.0000
Cr2 Cr 0.5000 0.0000 0.0000
Cr3 Cr 0.5000 -0.5000 -0.5000
Cu1 Cu -0.23389(10) 0.34075(9) 0.14738(10)
Cu2 Cu -0.12703(13) 0.17936(11) -0.39338(11)
Mo1 Mo 0.04823(6) 0.07422(6) -0.23400(6)
Mo2 Mo -0.02535(7) 0.15596(6) 0.09850(6)
Mo3 Mo 0.02112(7) 0.22817(6) -0.13396(6)
Mo4 Mo 0.46237(10) 0.12116(10) 0.13545(9)
Mo5 Mo 0.29043(9) -0.02365(9) 0.17659(9)
Mo6 Mo 0.32754(10) -0.14335(10) 0.03902(9)
Mo7 Mo 0.68056(7) -0.66114(6) -0.52318(6)
Mo8 Mo 0.37073(7) -0.50393(6) -0.28522(6)
Mo9 Mo 0.55579(8) -0.66048(7) -0.30983(7)
N1 N -0.2122(7) 0.4636(7) 0.0392(7)
N2 N -0.1338(7) 0.3898(7) 0.1766(7)
N3 N -0.1556(7) 0.1080(6) -0.4567(6)
N4 N 0.0005(9) 0.1992(8) -0.4997(8)
O2 O 0.0548(5) 0.0171(5) 0.0892(5)
O3 O -0.0731(5) 0.1172(5) -0.0036(5)
O4 O 0.0666(5) 0.2107(5) -0.0269(5)
O5 O 0.1063(5) -0.0506(5) -0.1947(5)
O6 O -0.0281(6) 0.1757(5) -0.2013(5)
O7 O 0.1536(6) 0.1302(6) -0.3175(6)
O8 O -0.0257(6) 0.0676(5) -0.2958(5)
O9 O -0.1174(6) 0.2428(6) 0.0918(6)
O10 O 0.0394(7) 0.1722(6) 0.1620(6)
O11 O 0.1252(7) 0.2834(6) -0.2201(6)
O12 O -0.0685(7) 0.3130(6) -0.1317(7)
O13 O 0.5737(7) 0.0240(7) 0.0706(7)
O14 O 0.3926(7) 0.0814(7) 0.0468(7)
O15 O 0.4182(7) -0.1025(7) 0.1073(7)
O16 O 0.5482(7) 0.2000(7) 0.0127(7)
O17 O 0.3926(8) 0.0068(8) 0.2171(7)
O18 O 0.2504(7) -0.0424(7) 0.0876(8)
O19 O 0.5330(8) 0.1144(9) 0.2053(8)
O20 O 0.3702(9) 0.2037(9) 0.1523(10)
O21 O 0.2454(7) -0.1286(8) 0.2788(7)
O22 O 0.2075(9) 0.0601(9) 0.1916(9)
O23 O 0.2755(9) -0.2375(9) 0.1356(8)
O24 O 0.2693(6) -0.1332(7) -0.0414(7)
O25 O 0.6208(6) -0.5504(5) -0.4591(5)
O26 O 0.4601(5) -0.4114(5) -0.4352(5)
O27 O 0.4287(5) -0.5914(5) -0.3761(5)
O28 O 0.2801(5) -0.4486(5) -0.3609(5)
O29 O 0.5044(6) -0.5531(6) -0.2774(5)
O30 O 0.5853(6) -0.7199(5) -0.4015(5)
O31 O 0.7893(6) -0.6822(6) -0.4926(6)
O32 O 0.6819(7) -0.7430(6) -0.5663(6)
O33 O 0.3640(7) -0.4217(6) -0.2396(6)
O34 O 0.2989(7) -0.5921(6) -0.1976(6)
O35 O 0.4884(8) -0.7493(6) -0.2164(6)
O36 O 0.6689(8) -0.6709(8) -0.2921(8)
O37 O -0.3308(10) 0.3010(7) 0.1045(9)
O38 O -0.2621(8) 0.2300(6) 0.2699(6)
O39 O -0.1150(10) 0.2668(7) -0.3389(8)
O1A O -0.0967(5) -0.0816(5) 0.1158(5)
C1A C 0.2549(12) -0.5005(11) 0.0335(10)
H1A H 0.2917 -0.4611 0.0403
C2A C 0.2466(12) -0.5888(11) 0.0942(10)
H2A H 0.2841 -0.6103 0.1366
C3A C 0.1822(4) -0.6535(3) 0.0981(3)
H3A H 0.1701 -0.7139 0.1442
C4A C 0.0855(4) -0.1045(3) 0.5347(3)
C5A C -0.0085(4) -0.1561(3) 0.5610(3)
C6A C 0.0948(4) -0.0635(3) 0.5873(3)
H4A H 0.0417 -0.0627 0.6395
C7A C 0.2590(4) -0.0240(3) 0.4861(3)
H5A H 0.3203 0.0019 0.4703
C8A C 0.1798(4) -0.0229(3) 0.5667(3)
H6A H 0.1870 0.0055 0.6044
C9A C -0.0975(4) -0.1574(3) 0.6327(3)
H7A H -0.1014 -0.1260 0.6715
C10A C -0.0782(4) -0.2476(3) 0.5108(3)
H8A H -0.0715 -0.2791 0.4716
C11A C -0.1760(4) -0.2023(3) 0.6464(3)
H9A H -0.2348 -0.2047 0.6949
C12A C -0.1650(4) -0.2496(3) 0.5791(3)
H10A H -0.2189 -0.2805 0.5849
C13A C 0.1397(13) -0.6120(11) 0.0215(11)
H11A H 0.1009 -0.6492 0.0141
C14A C 0.1523(10) -0.5215(8) -0.0414(9)
C15A C 0.1090(9) -0.4788(9) -0.1185(8)
C16A C 0.0395(12) -0.5214(11) -0.1332(10)
H12A H 0.0189 -0.5815 -0.0907
C17A C 0.0016(12) -0.4770(13) -0.2082(14)
H13A H -0.0395 -0.5076 -0.2209
C18A C 0.0272(14) -0.3840(13) -0.2647(14)
H14A H -0.0012 -0.3492 -0.3133
C19A C 0.0948(9) -0.3440(8) -0.2480(9)
H15A H 0.1139 -0.2829 -0.2881
C20A C 0.2419(12) -0.0648(11) 0.4321(11)
H16A H 0.2914 -0.0627 0.3767
Cu1A Cu 0.23389(10) -0.34075(9) -0.14738(10)
Cu1_2 Cu 0.76611(10) -0.65925(9) -0.85262(10)
Cu2A Cu 0.12703(13) -0.17936(11) 0.39338(11)
Cu2_2 Cu 0.87297(13) -0.82064(11) -0.39338(11)
Cu2A_2 Cu 0.12703(13) -0.17936(11) -0.60662(11)
Cu2_3 Cu 0.87297(13) 0.17936(11) -0.39338(11)
Mo1A Mo -0.04823(6) -0.07422(6) 0.23400(6)
Mo2A Mo 0.02535(7) -0.15596(6) -0.09850(6)
Mo3A Mo -0.02112(7) -0.22817(6) 0.13396(6)
Mo4A Mo 0.53763(10) -0.12116(10) -0.13545(9)
Mo5A Mo 0.70957(9) 0.02365(9) -0.17659(9)
Mo6A Mo 0.67246(10) 0.14335(10) -0.03902(9)
Mo7A Mo 0.31944(7) -0.33886(6) -0.47682(6)
Mo8A Mo 0.62927(7) -0.49607(6) -0.71478(6)
Mo9A Mo 0.44421(8) -0.33952(7) -0.69017(7)
N1A N 0.2122(7) -0.4636(7) -0.0392(7)
N2A N 0.1338(7) -0.3898(7) -0.1766(7)
N3A N 0.1556(7) -0.1080(6) 0.4567(6)
N4A N -0.0005(9) -0.1992(8) 0.4997(8)
O2A O -0.0548(5) -0.0171(5) -0.0892(5)
O3A O 0.0731(5) -0.1172(5) 0.0036(5)
O4A O -0.0666(5) -0.2107(5) 0.0269(5)
O5A O -0.1063(5) 0.0506(5) 0.1947(5)
O6A O 0.0281(6) -0.1757(5) 0.2013(5)
O7A O -0.1536(6) -0.1302(6) 0.3175(6)
O8A O 0.0257(6) -0.0676(5) 0.2958(5)
O9A O 0.1174(6) -0.2428(6) -0.0918(6)
O10A O -0.0394(7) -0.1722(6) -0.1620(6)
O11A O -0.1252(7) -0.2834(6) 0.2201(6)
O12A O 0.0685(7) -0.3130(6) 0.1317(7)
O13A O 0.4263(7) -0.0240(7) -0.0706(7)
O14A O 0.6074(7) -0.0814(7) -0.0468(7)
O15A O 0.5818(7) 0.1025(7) -0.1073(7)
O16A O 0.4518(7) -0.2000(7) -0.0127(7)
O17A O 0.6074(8) -0.0068(8) -0.2171(7)
O18A O 0.7496(7) 0.0424(7) -0.0876(8)
O19A O 0.4670(8) -0.1144(9) -0.2053(8)
O20A O 0.6298(9) -0.2037(9) -0.1523(10)
O21A O -0.2454(7) 0.1286(8) -0.2788(7)
O21A_2 O 0.7546(7) 0.1286(8) -0.2788(7)
O22A O 0.7925(9) -0.0601(9) -0.1916(9)
O23A O 0.7245(9) 0.2375(9) -0.1356(8)
O24A O 0.7307(6) 0.1332(7) 0.0414(7)
O25A O 0.3792(6) -0.4496(5) -0.5409(5)
O26A O 0.5399(5) -0.5886(5) -0.5648(5)
O27A O 0.5713(5) -0.4086(5) -0.6239(5)
O28A O 0.7199(5) -0.5514(5) -0.6391(5)
O29A O 0.4956(6) -0.4469(6) -0.7226(5)
O30A O 0.4147(6) -0.2801(5) -0.5985(5)
O31A O 0.2107(6) -0.3178(6) 0.4926(6)
O31_2 O -0.2107(6) 0.3178(6) -0.4926(6)
O31A_2 O 0.2107(6) -0.3178(6) -0.5074(6)
O32A O 0.3181(7) -0.2570(6) -0.4337(6)
O33A O -0.3640(7) 0.4217(6) 0.2396(6)
O33A_2 O 0.6360(7) -0.5783(6) -0.7604(6)
O34A O 0.7011(7) -0.4079(6) -0.8024(6)
O35A O 0.5116(8) -0.2507(6) -0.7836(6)
O36A O 0.3311(8) -0.3291(8) -0.7079(8)
O37A O 0.3308(10) -0.3010(7) -0.1045(9)
O38A O 0.2621(8) -0.2300(6) -0.2699(6)
O39A O 0.1150(10) -0.2668(7) 0.3389(8)
loop_
_geom_bond_atom_site_label_1
_geom_bond_atom_site_label_2
_geom_bond_site_symmetry_1
_geom_bond_site_symmetry_2
O1 Cr1 1_555 1_555
C1 H1 1_555 1_555
C2 C1 1_555 1_555
H2 C2 1_555 1_555
C3 C2 1_555 1_555
H3 C3 1_555 1_555
C4 C5 1_555 1_555
C5 C9 1_555 1_555
C6 C4 1_555 1_555
H4 C6 1_555 1_555
C7 H5 1_555 1_555
C8 C6 1_555 1_555
H6 C8 1_555 1_555
C9 H7 1_555 1_555
C10 H8 1_555 1_555
C11 C9 1_555 1_555
H9 C11 1_555 1_555
C12 C10 1_555 1_555
H10 C12 1_555 1_555
C13 C3 1_555 1_555
H11 C13 1_555 1_555
C14 C13 1_555 1_555
C15 C14 1_555 1_555
C16 C15 1_555 1_555
H12 C16 1_555 1_555
C17 C16 1_555 1_555
H13 C17 1_555 1_555
C18 C17 1_555 1_555
H14 C18 1_555 1_555
C19 C18 1_555 1_555
H15 C19 1_555 1_555
C20 C7 1_555 1_555
H16 C20 1_555 1_555
Cr1 O2 1_555 1_555
Cr2 O13 1_555 1_555
Cr3 O25 1_555 1_555
Cu1 N1 1_555 1_555
Cu2 N3 1_555 1_555
Mo1 O1 1_555 1_555
Mo2 O2 1_555 1_555
Mo3 O1 1_555 1_555
Mo4 O13 1_555 1_555
Mo5 O14 1_555 1_555
Mo6 O15 1_555 1_555
Mo7 O25 1_555 1_555
Mo8 O26 1_555 1_555
Mo9 O25 1_555 1_555
N1 C1 1_555 1_555
N2 C15 1_555 1_555
N3 C4 1_555 1_555
N4 C5 1_555 1_555
O2 Mo1A 1_555 1_555
O3 Cr1 1_555 1_555
O4 Mo2 1_555 1_555
O5 Mo1 1_555 1_555
O6 Mo1 1_555 1_555
O7 Mo1 1_555 1_555
O8 Cu2 1_555 1_555
O9 Cu1 1_555 1_555
O10 Mo2 1_555 1_555
O11 Mo3 1_555 1_555
O12 Mo3 1_555 1_555
O13 Mo6A 1_555 1_555
O14 Cr2 1_555 1_555
O15 Cr2 1_555 1_555
O16 Mo4 1_555 1_555
O17 Mo4 1_555 1_555
O18 Mo5 1_555 1_555
O19 Mo4 1_555 1_555
O20 Mo4 1_555 1_555
O21 Mo5 1_555 1_555
O22 Mo5 1_555 1_555
O23 Mo6 1_555 1_555
O24 Mo6 1_555 1_555
O26 Cr3 1_555 1_555
O27 Cr3 1_555 1_555
O28 Mo8 1_555 1_555
O29 Mo8 1_555 1_555
O30 Mo7 1_555 1_555
O31 Mo7 1_555 1_555
O32 Mo7 1_555 1_555
O33 Mo8 1_555 1_555
O34 Mo8 1_555 1_555
O35 Mo9 1_555 1_555
O36 Mo9 1_555 1_555
O37 Cu1 1_555 1_555
O38 Cu1 1_555 1_555
O39 Cu2 1_555 1_555
O1A Cr1 1_555 1_555
C1A H1A 1_555 1_555
C2A C1A 1_555 1_555
H2A C2A 1_555 1_555
C3A C2A 1_555 1_555
H3A C3A 1_555 1_555
C4A C5A 1_555 1_555
C5A C9A 1_555 1_555
C6A C4A 1_555 1_555
H4A C6A 1_555 1_555
C7A H5A 1_555 1_555
C8A C6A 1_555 1_555
H6A C8A 1_555 1_555
C9A H7A 1_555 1_555
C10A H8A 1_555 1_555
C11A C9A 1_555 1_555
H9A C11A 1_555 1_555
C12A C10A 1_555 1_555
H10A C12A 1_555 1_555
C13A C3A 1_555 1_555
H11A C13A 1_555 1_555
C14A C13A 1_555 1_555
C15A C14A 1_555 1_555
C16A C15A 1_555 1_555
H12A C16A 1_555 1_555
C17A C16A 1_555 1_555
H13A C17A 1_555 1_555
C18A C17A 1_555 1_555
H14A C18A 1_555 1_555
C19A C18A 1_555 1_555
H15A C19A 1_555 1_555
C20A C7A 1_555 1_555
H16A C20A 1_555 1_555
Cu1A O33 1_555 1_555
Cu1_2 O33A_2 1_555 1_555
Cu2A O21 1_555 1_555
Cu2_2 O31 1_555 1_555
Cu2A_2 O31A_2 1_555 1_555
Cu2_3 O21A_2 1_555 1_555
Mo1A O1A 1_555 1_555
Mo2A O5 1_555 1_555
Mo3A O1A 1_555 1_555
Mo4A O13A 1_555 1_555
Mo5A O14A 1_555 1_555
Mo6A O16 1_555 1_555
Mo7A O26 1_555 1_555
Mo8A O26A 1_555 1_555
Mo9A O25A 1_555 1_555
N1A C1A 1_555 1_555
N2A C15A 1_555 1_555
N3A C4A 1_555 1_555
N4A C5A 1_555 1_555
O2A Cr1 1_555 1_555
O3A Cr1 1_555 1_555
O4A Mo2A 1_555 1_555
O5A Mo2 1_555 1_555
O6A Mo1A 1_555 1_555
O7A Mo1A 1_555 1_555
O8A Cu2A 1_555 1_555
O9A Cu1A 1_555 1_555
O10A Mo2A 1_555 1_555
O11A Mo3A 1_555 1_555
O12A Mo3A 1_555 1_555
O13A Cr2 1_555 1_555
O14A Cr2 1_555 1_555
O15A Cr2 1_555 1_555
O16A Mo6 1_555 1_555
O17A Mo4A 1_555 1_555
O18A Mo5A 1_555 1_555
O19A Mo4A 1_555 1_555
O20A Mo4A 1_555 1_555
O21A Cu2 1_555 1_555
O21A_2 Mo5A 1_555 1_555
O22A Mo5A 1_555 1_555
O23A Mo6A 1_555 1_555
O24A Mo6A 1_555 1_555
O25A Cr3 1_555 1_555
O26A Cr3 1_555 1_555
O27A Cr3 1_555 1_555
O28A Mo7 1_555 1_555
O29A Mo8A 1_555 1_555
O30A Mo7A 1_555 1_555
O31A Cu2A 1_555 1_555
O31_2 Cu2 1_555 1_555
O31A_2 Mo7A 1_555 1_555
O32A Mo7A 1_555 1_555
O33A Cu1 1_555 1_555
O33A_2 Mo8A 1_555 1_555
O34A Mo8A 1_555 1_555
O35A Mo9A 1_555 1_555
O36A Mo9A 1_555 1_555
O37A Cu1A 1_555 1_555
O38A Cu1A 1_555 1_555
O39A Cu2A 1_555 1_555
C7 C8 1_555 1_555
C10 N4 1_555 1_555
C11 C12 1_555 1_555
C14 N1 1_555 1_555
C19 N2 1_555 1_555
C20 N3 1_555 1_555
Cu1 N2 1_555 1_555
Cu2 N4 1_555 1_555
Mo1 O8 1_555 1_555
Mo1 O2A 1_555 1_555
Mo2 O3 1_555 1_555
Mo2 O9 1_555 1_555
Mo3 O3 1_555 1_555
Mo3 O4 1_555 1_555
Mo3 O6 1_555 1_555
Mo4 O14 1_555 1_555
Mo5 O15 1_555 1_555
Mo5 O17 1_555 1_555
Mo6 O18 1_555 1_555
Mo6 O13A 1_555 1_555
Mo7 O26A 1_555 1_555
Mo8 O27 1_555 1_555
Mo9 O27 1_555 1_555
Mo9 O29 1_555 1_555
Mo9 O30 1_555 1_555
O28 Mo7A 1_555 1_555
C7A C8A 1_555 1_555
C10A N4A 1_555 1_555
C11A C12A 1_555 1_555
C14A N1A 1_555 1_555
C19A N2A 1_555 1_555
C20A N3A 1_555 1_555
Cu1A N1A 1_555 1_555
Cu1A N2A 1_555 1_555
Cu2A N3A 1_555 1_555
Cu2A N4A 1_555 1_555
Mo1A O5A 1_555 1_555
Mo1A O8A 1_555 1_555
Mo2A O2A 1_555 1_555
Mo2A O3A 1_555 1_555
Mo2A O9A 1_555 1_555
Mo3A O3A 1_555 1_555
Mo3A O4A 1_555 1_555
Mo3A O6A 1_555 1_555
Mo4A O14A 1_555 1_555
Mo4A O16A 1_555 1_555
Mo5A O15A 1_555 1_555
Mo5A O17A 1_555 1_555
Mo6A O15A 1_555 1_555
Mo6A O18A 1_555 1_555
Mo7A O25A 1_555 1_555
Mo8A O27A 1_555 1_555
Mo8A O28A 1_555 1_555
Mo9A O27A 1_555 1_555
Mo9A O29A 1_555 1_555
Mo9A O30A 1_555 1_555

#END
