
#######################################################################
#
#                 Cambridge Crystallographic Data Centre
#                                CCDC 
#
#######################################################################
#
# If this CIF has been generated from an entry in the Cambridge 
# Structural Database, then it will include bibliographic, chemical, 
# crystal, experimental, refinement or atomic coordinate data resulting 
# from the CCDC's data processing and validation procedures.
#
#######################################################################

data_HOQCOG
_symmetry_cell_setting           triclinic
_symmetry_space_group_name_H-M   'P -1'
_symmetry_Int_Tables_number      2
_space_group_name_Hall           '-P 1'
loop_
_symmetry_equiv_pos_site_id
_symmetry_equiv_pos_as_xyz
1 x,y,z
2 -x,-y,-z
_cell_length_a                   11.133(2)
_cell_length_b                   12.312(3)
_cell_length_c                   12.681(3)
_cell_angle_alpha                109.13(3)
_cell_angle_beta                 97.31(3)
_cell_angle_gamma                99.72(3)
_cell_volume                     1587.21
loop_
_atom_site_label
_atom_site_type_symbol
_atom_site_fract_x
_atom_site_fract_y
_atom_site_fract_z
Eu1 Eu -0.108920(15) -0.348230(15) -0.381900(14)
N1 N -0.0916(3) -0.1329(3) -0.3804(3)
N2 N 0.0139(3) -0.1730(3) -0.1946(3)
C1 C -0.1537(5) -0.1105(4) -0.4646(4)
H1 H -0.2050 -0.1736 -0.5249
C2 C -0.1461(5) 0.0030(5) -0.4671(5)
H2 H -0.1933 0.0145 -0.5269
C3 C -0.0693(6) 0.0966(5) -0.3817(5)
H3 H -0.0623 0.1725 -0.3830
C4 C -0.0006(5) 0.0771(4) -0.2915(5)
C5 C 0.0825(5) 0.1709(4) -0.1986(5)
H4 H 0.0977 0.2470 -0.1999
C6 C 0.1389(5) 0.1497(4) -0.1091(5)
H5 H 0.1944 0.2115 -0.0506
C7 C 0.1154(4) 0.0347(4) -0.1016(4)
C8 C 0.1577(4) 0.0135(4) -0.0039(4)
H6 H 0.2062 0.0749 0.0597
C9 C 0.1279(4) -0.0981(4) -0.0017(4)
H7 H 0.1540 -0.1131 0.0638
C10 C 0.0569(4) -0.1899(4) -0.1003(4)
H8 H 0.0395 -0.2661 -0.0992
C11 C 0.0400(4) -0.0610(3) -0.1953(4)
C12 C -0.0177(4) -0.0392(3) -0.2925(4)
O1 O 0.0888(2) -0.3334(3) -0.4174(3)
O2 O 0.1957(3) -0.4534(2) -0.5145(3)
C13 C 0.1896(3) -0.3623(3) -0.4365(3)
C14 C 0.3097(3) -0.2782(3) -0.3609(3)
C15 C 0.3231(4) -0.1602(3) -0.3791(4)
H9 H 0.3289 -0.1719 -0.4576
H10 H 0.2505 -0.1284 -0.3637
C16 C 0.4248(3) -0.3284(3) -0.3875(3)
H11 H 0.4170 -0.4035 -0.3766
H12 H 0.4305 -0.3414 -0.4662
C17 C 0.3018(4) -0.2576(4) -0.2359(3)
H13 H 0.2936 -0.3319 -0.2232
H14 H 0.2291 -0.2268 -0.2187
C18 C 0.4310(5) -0.0539(5) -0.1759(5)
H15 H 0.3593 -0.0214 -0.1584
H16 H 0.5047 0.0018 -0.1255
C19 C 0.4402(4) -0.0727(4) -0.2994(5)
H17 H 0.4477 0.0028 -0.3110
C20 C 0.5551(4) -0.1222(4) -0.3263(4)
H18 H 0.5618 -0.1334 -0.4045
H19 H 0.6296 -0.0669 -0.2769
C21 C 0.5432(3) -0.2409(3) -0.3080(3)
C22 C 0.5316(4) -0.2213(5) -0.1842(3)
H20 H 0.6062 -0.1677 -0.1333
H21 H 0.5233 -0.2958 -0.1720
C23 C 0.4188(4) -0.1701(5) -0.1575(4)
H22 H 0.4130 -0.1576 -0.0781
C24 C 0.6589(3) -0.2873(3) -0.3344(3)
O3 O 0.7423(3) -0.2824(3) -0.2556(3)
O4 O 0.6749(3) -0.3264(3) -0.4362(2)
O5 O -0.0077(3) -0.6092(3) -0.2697(3)
O6 O -0.0597(3) -0.4403(2) -0.2572(2)
C25 C -0.0745(4) -0.5378(3) -0.2413(3)
C26 C -0.1829(3) -0.5672(3) -0.1842(3)
C27 C -0.1800(5) -0.6765(5) -0.1518(6)
H23 H -0.1037 -0.6630 -0.0985
H24 H -0.1826 -0.7440 -0.2192
C28 C -0.1832(4) -0.4624(4) -0.0789(4)
H25 H -0.1864 -0.3935 -0.0995
H26 H -0.1074 -0.4446 -0.0234
C29 C -0.3031(4) -0.5925(4) -0.2708(3)
H27 H -0.3045 -0.6592 -0.3385
H28 H -0.3064 -0.5245 -0.2928
C30 C -0.4168(4) -0.6201(5) -0.2181(4)
C31 C -0.4136(5) -0.5168(5) -0.1139(5)
H29 H -0.4853 -0.5333 -0.0808
H30 H -0.4176 -0.4481 -0.1346
C32 C -0.2956(5) -0.4908(5) -0.0270(4)
H31 H -0.2954 -0.4226 0.0401
C33 C -0.2929(5) -0.7015(6) -0.0972(6)
H32 H -0.2898 -0.7702 -0.0750
C34 C -0.2901(5) -0.5951(6) 0.0079(5)
H33 H -0.3604 -0.6115 0.0427
H34 H -0.2144 -0.5787 0.0631
C35 C -0.4117(5) -0.7286(5) -0.1854(5)
H35 H -0.4838 -0.7480 -0.1540
H36 H -0.4120 -0.7957 -0.2523
C36 C -0.5377(5) -0.6280(6) -0.3102(7)
O7 O -0.6106(5) -0.5677(6) -0.2795(5)
H37 H -0.6805 -0.5838 -0.3182
O8 O -0.5478(5) -0.7111(6) -0.3950(5)
O9 O -0.1442(3) -0.3709(3) -0.5843(3)
H38 H -0.0791 -0.3752 -0.6077
H39 H -0.185(10) -0.341(10) -0.602(9)
Eu1A Eu 0.108920(15) -0.651770(15) -0.618100(14)
Eu1_2 Eu 0.891080(15) -0.348230(15) -0.381900(14)
O2A O -0.1957(3) -0.5466(2) -0.4855(3)
O3_2 O -0.2577(3) -0.2824(3) -0.2556(3)
O4_2 O -0.3251(3) -0.3264(3) -0.4362(2)
loop_
_geom_bond_atom_site_label_1
_geom_bond_atom_site_label_2
_geom_bond_site_symmetry_1
_geom_bond_site_symmetry_2
Eu1 N1 1_555 1_555
N1 C1 1_555 1_555
N2 Eu1 1_555 1_555
C1 H1 1_555 1_555
C2 C1 1_555 1_555
H2 C2 1_555 1_555
C3 C2 1_555 1_555
H3 C3 1_555 1_555
C4 C3 1_555 1_555
C5 C4 1_555 1_555
H4 C5 1_555 1_555
C6 C5 1_555 1_555
H5 C6 1_555 1_555
C7 C6 1_555 1_555
C8 C7 1_555 1_555
H6 C8 1_555 1_555
C9 C8 1_555 1_555
H7 C9 1_555 1_555
C10 N2 1_555 1_555
H8 C10 1_555 1_555
C11 N2 1_555 1_555
C12 N1 1_555 1_555
O1 Eu1 1_555 1_555
O2 C13 1_555 1_555
C13 O1 1_555 1_555
C14 C13 1_555 1_555
C15 C14 1_555 1_555
H9 C15 1_555 1_555
H10 C15 1_555 1_555
C16 C14 1_555 1_555
H11 C16 1_555 1_555
H12 C16 1_555 1_555
C17 C14 1_555 1_555
H13 C17 1_555 1_555
H14 C17 1_555 1_555
C18 H15 1_555 1_555
H16 C18 1_555 1_555
C19 C15 1_555 1_555
H17 C19 1_555 1_555
C20 C19 1_555 1_555
H18 C20 1_555 1_555
H19 C20 1_555 1_555
C21 C16 1_555 1_555
C22 C21 1_555 1_555
H20 C22 1_555 1_555
H21 C22 1_555 1_555
C23 C17 1_555 1_555
H22 C23 1_555 1_555
C24 C21 1_555 1_555
O3 C24 1_555 1_555
O4 C24 1_555 1_555
O5 C25 1_555 1_555
O6 Eu1 1_555 1_555
C25 O6 1_555 1_555
C26 C25 1_555 1_555
C27 C26 1_555 1_555
H23 C27 1_555 1_555
H24 C27 1_555 1_555
C28 C26 1_555 1_555
H25 C28 1_555 1_555
H26 C28 1_555 1_555
C29 C26 1_555 1_555
H27 C29 1_555 1_555
H28 C29 1_555 1_555
C30 C29 1_555 1_555
C31 C30 1_555 1_555
H29 C31 1_555 1_555
H30 C31 1_555 1_555
C32 C28 1_555 1_555
H31 C32 1_555 1_555
C33 C27 1_555 1_555
H32 C33 1_555 1_555
C34 C32 1_555 1_555
H33 C34 1_555 1_555
H34 C34 1_555 1_555
C35 C30 1_555 1_555
H35 C35 1_555 1_555
H36 C35 1_555 1_555
C36 C30 1_555 1_555
O7 C36 1_555 1_555
H37 O7 1_555 1_555
O8 C36 1_555 1_555
O9 Eu1 1_555 1_555
H38 O9 1_555 1_555
H39 O9 1_555 1_555
Eu1A O2 1_555 1_555
Eu1_2 O3 1_555 1_555
O2A Eu1 1_555 1_555
O3_2 Eu1 1_555 1_555
O4_2 Eu1 1_555 1_555
C4 C12 1_555 1_555
C7 C11 1_555 1_555
C9 C10 1_555 1_555
C11 C12 1_555 1_555
C18 C19 1_555 1_555
C18 C23 1_555 1_555
C20 C21 1_555 1_555
C22 C23 1_555 1_555
O4 Eu1_2 1_555 1_555
C31 C32 1_555 1_555
C33 C34 1_555 1_555
C33 C35 1_555 1_555

#END
