
#######################################################################
#
#                 Cambridge Crystallographic Data Centre
#                                CCDC 
#
#######################################################################
#
# If this CIF has been generated from an entry in the Cambridge 
# Structural Database, then it will include bibliographic, chemical, 
# crystal, experimental, refinement or atomic coordinate data resulting 
# from the CCDC's data processing and validation procedures.
#
#######################################################################

data_HOQFAU
_symmetry_cell_setting           monoclinic
_symmetry_space_group_name_H-M   'C 2/c'
_symmetry_Int_Tables_number      15
_space_group_name_Hall           '-C 2yn'
loop_
_symmetry_equiv_pos_site_id
_symmetry_equiv_pos_as_xyz
1 x,y,z
2 1/2+x,1/2+y,z
3 -x,y,1/2-z
4 1/2-x,1/2+y,1/2-z
5 -x,-y,-z
6 1/2-x,1/2-y,-z
7 x,-y,1/2+z
8 1/2+x,1/2-y,1/2+z
_cell_length_a                   12.378(5)
_cell_length_b                   7.934(3)
_cell_length_c                   6.322(3)
_cell_angle_alpha                90
_cell_angle_beta                 99.07(3)
_cell_angle_gamma                90
_cell_volume                     613.102
loop_
_atom_site_label
_atom_site_type_symbol
_atom_site_fract_x
_atom_site_fract_y
_atom_site_fract_z
Ag1 Ag 0.0000 0.03765(9) -0.7500
N1 N 0.1585(4) 0.1680(7) -0.6059(9)
C1 C 0.2412(5) 0.0811(8) -0.494(1)
C2 C 0.3324(5) 0.1642(8) -0.389(1)
N2 N 0.0000 -0.332(1) -0.7500
O1 O -0.0718(5) -0.2464(7) -0.8643(9)
H1 H 0.2371 -0.0444 -0.4875
H2 H 0.3930 0.0967 -0.3056
Ag1F Ag 0.0000 -0.03765(9) -0.2500
Ag1F_2 Ag 0.0000 -0.03765(9) -1.2500
N1E N 0.3415(4) 0.3320(7) -0.3941(9)
Ag1G Ag 0.5000 0.46235(9) -0.2500
C1E C 0.2588(5) 0.4189(8) -0.506(1)
C2E C 0.1676(5) 0.3358(8) -0.611(1)
H2E H 0.1070 0.4033 -0.6944
N1B N -0.1585(4) 0.1680(7) -0.8941(9)
O1B O 0.0718(5) -0.2464(7) -0.6357(9)
H1E H 0.2629 0.5444 -0.5125
loop_
_geom_bond_atom_site_label_1
_geom_bond_atom_site_label_2
_geom_bond_site_symmetry_1
_geom_bond_site_symmetry_2
Ag1 N1 1_555 1_555
N1 C1 1_555 1_555
C1 C2 1_555 1_555
C2 H2 1_555 1_555
N2 O1 1_555 1_555
O1 Ag1 1_555 1_555
H1 C1 1_555 1_555
Ag1F Ag1 1_555 1_555
Ag1F_2 Ag1 1_555 1_555
N1E C2 1_555 1_555
Ag1G N1E 1_555 1_555
C1E N1E 1_555 1_555
C2E N1 1_555 1_555
H2E C2E 1_555 1_555
N1B Ag1 1_555 1_555
O1B Ag1 1_555 1_555
H1E C1E 1_555 1_555
N2 O1B 1_555 1_555
C1E C2E 1_555 1_555

#END
