
#######################################################################
#
#                 Cambridge Crystallographic Data Centre
#                                CCDC 
#
#######################################################################
#
# If this CIF has been generated from an entry in the Cambridge 
# Structural Database, then it will include bibliographic, chemical, 
# crystal, experimental, refinement or atomic coordinate data resulting 
# from the CCDC's data processing and validation procedures.
#
#######################################################################

data_HOQGAX
_symmetry_cell_setting           triclinic
_symmetry_space_group_name_H-M   'P -1'
_symmetry_Int_Tables_number      2
_space_group_name_Hall           '-P 1'
loop_
_symmetry_equiv_pos_site_id
_symmetry_equiv_pos_as_xyz
1 x,y,z
2 -x,-y,-z
_cell_length_a                   8.2704(17)
_cell_length_b                   9.927(2)
_cell_length_c                   11.729(2)
_cell_angle_alpha                95.99(3)
_cell_angle_beta                 101.66(3)
_cell_angle_gamma                97.16(3)
_cell_volume                     927.376
loop_
_atom_site_label
_atom_site_type_symbol
_atom_site_fract_x
_atom_site_fract_y
_atom_site_fract_z
Pb1 Pb 0.23785(2) 0.46880(2) 0.46715(2)
C1 C 0.1999(4) 0.7451(3) 0.5320(3)
C2 C 0.2002(4) 0.8928(3) 0.5745(3)
C3 C 0.0836(4) 0.9272(4) 0.6383(3)
H1 H 0.0067 0.8582 0.6533
C4 C 0.0795(5) 1.0616(4) 0.6801(3)
H2 H 0.0002 1.0827 0.7224
C5 C 0.1936(5) 1.1647(4) 0.6589(3)
H3 H 0.1907 1.2554 0.6866
C6 C 0.3113(4) 1.1336(3) 0.5969(3)
H4 H 0.3888 1.2032 0.5837
C7 C 0.3150(4) 0.9984(3) 0.5540(3)
C8 C 0.4562(4) 0.5465(3) 0.7101(3)
C9 C 0.5791(4) 0.6397(3) 0.8070(3)
C10 C 0.6739(5) 0.7525(4) 0.7783(3)
H5 H 0.6582 0.7698 0.7007
C11 C 0.7904(5) 0.8382(4) 0.8642(4)
H6 H 0.8534 0.9130 0.8445
C12 C 0.8142(6) 0.8134(4) 0.9796(4)
H7 H 0.8939 0.8712 1.0372
C13 C 0.7208(5) 0.7038(4) 1.0098(3)
H8 H 0.7377 0.6874 1.0876
C14 C 0.6011(4) 0.6174(4) 0.9241(3)
N1 N 0.4273(3) 0.9706(3) 0.4789(2)
N2 N 0.5031(4) 0.4990(3) 0.9471(2)
O1 O 0.0737(3) 0.6594(2) 0.5277(2)
O2 O 0.3281(3) 0.7089(2) 0.5024(2)
O3 O 0.3040(3) 0.5285(3) 0.7094(2)
O4 O 0.5144(3) 0.4936(3) 0.6266(2)
O5 O 0.0449(4) 0.4911(4) 0.2751(3)
H9 H -0.053(4) 0.508(6) 0.278(5)
H10 H 0.070(6) 0.543(5) 0.228(4)
C1A C 0.8001(4) 1.2549(3) 0.4680(3)
C2A C 0.7998(4) 1.1072(3) 0.4255(3)
C3A C 0.9164(4) 1.0728(4) 0.3617(3)
H1A H 0.9933 1.1418 0.3467
C4A C 0.9205(5) 0.9384(4) 0.3199(3)
H2A H 0.9998 0.9173 0.2776
C5A C 0.8064(5) 0.8353(4) 0.3411(3)
H3A H 0.8093 0.7446 0.3134
C6A C 0.6887(4) 0.8664(3) 0.4031(3)
H4A H 0.6112 0.7968 0.4163
C7A C 0.6850(4) 1.0016(3) 0.4460(3)
N1A N 0.5727(3) 1.0294(3) 0.5211(2)
O1A O 0.9263(3) 1.3406(2) 0.4723(2)
O2A O 0.6719(3) 1.2911(2) 0.4976(2)
C8A C 0.5438(4) 0.4535(3) 1.2899(3)
C9A C 0.4209(4) 0.3603(3) 1.1930(3)
C10A C 0.3261(5) 0.2475(4) 1.2217(3)
H5A H 0.3418 0.2302 1.2993
C11A C 0.2096(5) 0.1618(4) 1.1358(4)
H6A H 0.1466 0.0870 1.1555
C12A C 0.1858(6) 0.1866(4) 1.0204(4)
H7A H 0.1061 0.1288 0.9628
C13A C 0.2792(5) 0.2962(4) 0.9902(3)
H8A H 0.2623 0.3126 0.9124
C14A C 0.3989(4) 0.3826(4) 1.0759(3)
N2A N 0.4969(4) 0.5010(3) 1.0529(2)
O3A O 0.6960(3) 0.4715(3) 1.2906(2)
O4A O 0.4856(3) 0.5064(3) 1.3734(2)
Pb1A Pb -0.23785(2) 0.53120(2) 0.53285(2)
O5A O -0.0449(4) 0.5089(4) 0.7249(3)
H9A H 0.053(4) 0.492(6) 0.722(5)
H10A H -0.070(6) 0.457(5) 0.772(4)
Pb1_2 Pb 0.23785(2) 0.46880(2) 1.46715(2)
Pb1_3 Pb 1.23785(2) 1.46880(2) 0.46715(2)
Pb1A_2 Pb 0.76215(2) 0.53120(2) 0.53285(2)
Pb1A_3 Pb 0.76215(2) 0.53120(2) 1.53285(2)
Pb1A_4 Pb 0.76215(2) 1.53120(2) 0.53285(2)
O1A_2 O -0.0737(3) 0.3406(2) 0.4723(2)
O2A_2 O -0.3281(3) 0.2911(2) 0.4976(2)
O3A_2 O -0.3040(3) 0.4715(3) 0.2906(2)
O4_2 O -0.4856(3) 0.4936(3) 0.6266(2)
O4A_2 O -0.5144(3) 0.5064(3) 0.3734(2)
O4A_3 O 0.4856(3) 0.5064(3) 0.3734(2)
C15 C 0.2794(5) 0.7548(4) 0.1945(3)
H11 H 0.2982 0.7574 0.2757
C16 C 0.3708(5) 0.8532(4) 0.1491(3)
H12 H 0.4470 0.9216 0.1992
C17 C 0.3488(4) 0.8500(4) 0.0283(3)
C18 C 0.2329(5) 0.7461(4) -0.0405(3)
H13 H 0.2138 0.7390 -0.1219
C19 C 0.1453(5) 0.6526(4) 0.0127(3)
H14 H 0.0677 0.5834 -0.0352
C20 C 0.4417(5) 0.9496(4) -0.0278(3)
H15 H 0.4160 0.9405 -0.1094
N3 N 0.1654(4) 0.6559(3) 0.1278(3)
C15A C 0.7206(5) 1.2452(4) -0.1945(3)
H11A H 0.7018 1.2426 -0.2757
C16A C 0.6292(5) 1.1468(4) -0.1491(3)
H12A H 0.5530 1.0784 -0.1992
C17A C 0.6512(4) 1.1500(4) -0.0283(3)
C18A C 0.7671(5) 1.2539(4) 0.0405(3)
H13A H 0.7862 1.2610 0.1219
C19A C 0.8547(5) 1.3474(4) -0.0127(3)
H14A H 0.9323 1.4166 0.0352
C20A C 0.5583(5) 1.0504(4) 0.0278(3)
H15A H 0.5840 1.0595 0.1094
N3A N 0.8346(4) 1.3441(3) -0.1278(3)
loop_
_geom_bond_atom_site_label_1
_geom_bond_atom_site_label_2
_geom_bond_site_symmetry_1
_geom_bond_site_symmetry_2
Pb1 O1 1_555 1_555
C1 C2 1_555 1_555
C2 C3 1_555 1_555
C3 H1 1_555 1_555
C4 C3 1_555 1_555
H2 C4 1_555 1_555
C5 C4 1_555 1_555
H3 C5 1_555 1_555
C6 C5 1_555 1_555
H4 C6 1_555 1_555
C7 C2 1_555 1_555
C8 C9 1_555 1_555
C9 C10 1_555 1_555
C10 H5 1_555 1_555
C11 C10 1_555 1_555
H6 C11 1_555 1_555
C12 C11 1_555 1_555
H7 C12 1_555 1_555
C13 C12 1_555 1_555
H8 C13 1_555 1_555
C14 C9 1_555 1_555
N1 C7 1_555 1_555
N2 C14 1_555 1_555
O1 C1 1_555 1_555
O2 Pb1 1_555 1_555
O3 Pb1 1_555 1_555
O4 Pb1 1_555 1_555
O5 Pb1 1_555 1_555
H9 O5 1_555 1_555
H10 O5 1_555 1_555
C15 H11 1_555 1_555
C16 C15 1_555 1_555
H12 C16 1_555 1_555
C17 C16 1_555 1_555
C18 C17 1_555 1_555
H13 C18 1_555 1_555
C19 C18 1_555 1_555
H14 C19 1_555 1_555
C20 C17 1_555 1_555
H15 C20 1_555 1_555
N3 C15 1_555 1_555
C1A C2A 1_555 1_555
C2A C3A 1_555 1_555
C3A H1A 1_555 1_555
C4A C3A 1_555 1_555
H2A C4A 1_555 1_555
C5A C4A 1_555 1_555
H3A C5A 1_555 1_555
C6A C5A 1_555 1_555
H4A C6A 1_555 1_555
C7A C2A 1_555 1_555
N1A N1 1_555 1_555
O1A C1A 1_555 1_555
O2A C1A 1_555 1_555
C8A C9A 1_555 1_555
C9A C10A 1_555 1_555
C10A H5A 1_555 1_555
C11A C10A 1_555 1_555
H6A C11A 1_555 1_555
C12A C11A 1_555 1_555
H7A C12A 1_555 1_555
C13A C12A 1_555 1_555
H8A C13A 1_555 1_555
C14A C9A 1_555 1_555
N2A N2 1_555 1_555
O3A C8A 1_555 1_555
O4A C8A 1_555 1_555
Pb1A O1 1_555 1_555
O5A Pb1A 1_555 1_555
H9A O5A 1_555 1_555
H10A O5A 1_555 1_555
Pb1_2 O4A 1_555 1_555
Pb1_3 O1A 1_555 1_555
Pb1A_2 O4 1_555 1_555
Pb1A_3 O3A 1_555 1_555
Pb1A_4 O1A 1_555 1_555
O1A_2 Pb1 1_555 1_555
O2A_2 Pb1A 1_555 1_555
O3A_2 Pb1A 1_555 1_555
O4_2 Pb1A 1_555 1_555
O4A_2 Pb1A 1_555 1_555
O4A_3 Pb1 1_555 1_555
C15A H11A 1_555 1_555
C16A C15A 1_555 1_555
H12A C16A 1_555 1_555
C17A C16A 1_555 1_555
C18A C17A 1_555 1_555
H13A C18A 1_555 1_555
C19A C18A 1_555 1_555
H14A C19A 1_555 1_555
C20A C20 1_555 1_555
H15A C20A 1_555 1_555
N3A C15A 1_555 1_555
C1 O2 1_555 1_555
C6 C7 1_555 1_555
C8 O3 1_555 1_555
C8 O4 1_555 1_555
C13 C14 1_555 1_555
C19 N3 1_555 1_555
C6A C7A 1_555 1_555
C7A N1A 1_555 1_555
O2A Pb1A_4 1_555 1_555
C13A C14A 1_555 1_555
C14A N2A 1_555 1_555
O4A Pb1A_3 1_555 1_555
Pb1A O1A_2 1_555 1_555
Pb1A_2 O4A_3 1_555 1_555
C17A C20A 1_555 1_555
C19A N3A 1_555 1_555

#END
