
#######################################################################
#
#                 Cambridge Crystallographic Data Centre
#                                CCDC 
#
#######################################################################
#
# If this CIF has been generated from an entry in the Cambridge 
# Structural Database, then it will include bibliographic, chemical, 
# crystal, experimental, refinement or atomic coordinate data resulting 
# from the CCDC's data processing and validation procedures.
#
#######################################################################

data_HOQGIE
_symmetry_cell_setting           monoclinic
_symmetry_space_group_name_H-M   'P 21/n'
_symmetry_Int_Tables_number      14
_space_group_name_Hall           '-P 2yn'
loop_
_symmetry_equiv_pos_site_id
_symmetry_equiv_pos_as_xyz
1 x,y,z
2 1/2-x,1/2+y,1/2-z
3 -x,-y,-z
4 1/2+x,1/2-y,1/2+z
_cell_length_a                   15.5486(13)
_cell_length_b                   7.0358(4)
_cell_length_c                   18.4282(15)
_cell_angle_alpha                90
_cell_angle_beta                 98.789(10)
_cell_angle_gamma                90
_cell_volume                     1992.31
loop_
_atom_site_label
_atom_site_type_symbol
_atom_site_fract_x
_atom_site_fract_y
_atom_site_fract_z
Ca1 Ca 0.211040(16) -0.33772(4) -0.281620(14)
O1 O 0.34049(7) -0.51313(15) -0.21869(6)
O2 O 0.41127(7) -0.34640(17) -0.12545(6)
O3 O 0.71847(10) -0.5375(3) -0.37202(9)
O4 O 0.78925(10) -0.4047(3) -0.27535(11)
N1 N 0.72223(10) -0.4708(3) -0.31032(9)
C1 C 0.49154(10) -0.4552(2) -0.21615(8)
C2 C 0.49361(11) -0.5534(2) -0.28125(8)
H1 H 0.4433 -0.6154 -0.3046
C3 C 0.56950(11) -0.5601(3) -0.31197(9)
H2 H 0.5710 -0.6255 -0.3562
C4 C 0.64292(11) -0.4693(2) -0.27656(9)
C5 C 0.64367(11) -0.3742(3) -0.21104(10)
H3 H 0.6948 -0.3167 -0.1870
C6 C 0.56693(11) -0.3658(3) -0.18173(9)
H4 H 0.5656 -0.2986 -0.1378
C7 C 0.40889(9) -0.4382(2) -0.18340(8)
O5 O 0.31684(7) -0.22784(19) -0.34652(7)
O6 O 0.38413(8) 0.0173(2) -0.28599(6)
O7 O 0.64403(11) -0.3084(3) -0.55403(9)
O8 O 0.72991(10) -0.1450(3) -0.47415(11)
N2 N 0.65910(10) -0.2136(2) -0.49723(9)
C8 C 0.45186(9) -0.1327(2) -0.37722(8)
C9 C 0.43939(10) -0.2358(2) -0.44235(8)
H5 H 0.3846 -0.2892 -0.4594
C10 C 0.50707(11) -0.2601(2) -0.48214(8)
H6 H 0.4987 -0.3280 -0.5266
C11 C 0.58713(10) -0.1828(2) -0.45527(9)
C12 C 0.60209(10) -0.0795(2) -0.39080(9)
H7 H 0.6573 -0.0284 -0.3737
C13 C 0.53326(10) -0.0537(2) -0.35226(8)
H8 H 0.5415 0.0179 -0.3087
C14 C 0.37804(9) -0.1114(2) -0.33326(8)
N3 N 0.08297(9) -0.34234(19) -0.38199(7)
C15 C 0.07650(11) -0.2731(3) -0.44941(8)
N4 N -0.00711(10) -0.2642(2) -0.48119(8)
H9 H -0.0258 -0.2232 -0.5253
C16 C -0.05779(12) -0.3307(3) -0.43212(10)
H10 H -0.1188 -0.3408 -0.4392
C17 C -0.00183(11) -0.3787(3) -0.37140(9)
H11 H -0.0180 -0.4294 -0.3283
C18 C 0.15095(14) -0.2101(4) -0.48539(11)
H12 H 0.2010 -0.1855 -0.4482
H13 H 0.1352 -0.0948 -0.5131
H14 H 0.1652 -0.3089 -0.5183
O9 O 0.23466(7) -0.65411(15) -0.33681(6)
H15 H 0.2681 -0.6509 -0.3671
H16 H 0.1895 -0.7092 -0.3536
Ca1A Ca 0.288960(16) -0.83772(4) -0.218380(14)
Ca1A_2 Ca 0.288960(16) 0.16228(4) -0.218380(14)
O1A O 0.15951(7) -0.01313(15) -0.28131(6)
O6A O 0.11587(8) -0.4827(2) -0.21401(6)
O9A O 0.26534(7) -0.15411(15) -0.16319(6)
H15A H 0.2319 -0.1509 -0.1329
H16A H 0.3105 -0.2092 -0.1464
loop_
_geom_bond_atom_site_label_1
_geom_bond_atom_site_label_2
_geom_bond_site_symmetry_1
_geom_bond_site_symmetry_2
Ca1 O1 1_555 1_555
O1 C7 1_555 1_555
O2 C7 1_555 1_555
O3 N1 1_555 1_555
O4 N1 1_555 1_555
N1 C4 1_555 1_555
C1 C2 1_555 1_555
C2 H1 1_555 1_555
C3 C2 1_555 1_555
H2 C3 1_555 1_555
C4 C3 1_555 1_555
C5 C4 1_555 1_555
H3 C5 1_555 1_555
C6 C1 1_555 1_555
H4 C6 1_555 1_555
C7 C1 1_555 1_555
O5 Ca1 1_555 1_555
O6 C14 1_555 1_555
O7 N2 1_555 1_555
O8 N2 1_555 1_555
N2 C11 1_555 1_555
C8 C9 1_555 1_555
C9 H5 1_555 1_555
C10 C9 1_555 1_555
H6 C10 1_555 1_555
C11 C10 1_555 1_555
C12 C11 1_555 1_555
H7 C12 1_555 1_555
C13 C8 1_555 1_555
H8 C13 1_555 1_555
C14 O5 1_555 1_555
N3 Ca1 1_555 1_555
C15 N3 1_555 1_555
N4 C15 1_555 1_555
H9 N4 1_555 1_555
C16 N4 1_555 1_555
H10 C16 1_555 1_555
C17 N3 1_555 1_555
H11 C17 1_555 1_555
C18 C15 1_555 1_555
H12 C18 1_555 1_555
H13 C18 1_555 1_555
H14 C18 1_555 1_555
O9 Ca1 1_555 1_555
H15 O9 1_555 1_555
H16 O9 1_555 1_555
Ca1A O1 1_555 1_555
Ca1A_2 O6 1_555 1_555
O1A Ca1 1_555 1_555
O6A Ca1 1_555 1_555
O9A Ca1 1_555 1_555
H15A O9A 1_555 1_555
H16A O9A 1_555 1_555
C5 C6 1_555 1_555
C8 C14 1_555 1_555
C12 C13 1_555 1_555
C16 C17 1_555 1_555
O9 Ca1A 1_555 1_555
Ca1A_2 O1A 1_555 1_555
Ca1A_2 O9A 1_555 1_555

#END
