
#######################################################################
#
#                 Cambridge Crystallographic Data Centre
#                                CCDC 
#
#######################################################################
#
# If this CIF has been generated from an entry in the Cambridge 
# Structural Database, then it will include bibliographic, chemical, 
# crystal, experimental, refinement or atomic coordinate data resulting 
# from the CCDC's data processing and validation procedures.
#
#######################################################################

data_HOQHOM
_symmetry_cell_setting           monoclinic
_symmetry_space_group_name_H-M   'P 21/n'
_symmetry_Int_Tables_number      14
_space_group_name_Hall           '-P 2yn'
loop_
_symmetry_equiv_pos_site_id
_symmetry_equiv_pos_as_xyz
1 x,y,z
2 1/2-x,1/2+y,1/2-z
3 -x,-y,-z
4 1/2+x,1/2-y,1/2+z
_cell_length_a                   7.6404(15)
_cell_length_b                   6.3146(12)
_cell_length_c                   24.268(5)
_cell_angle_alpha                90
_cell_angle_beta                 93.497(4)
_cell_angle_gamma                90
_cell_volume                     1168.66
loop_
_atom_site_label
_atom_site_type_symbol
_atom_site_fract_x
_atom_site_fract_y
_atom_site_fract_z
O1 O 0.8901(5) 0.7353(7) 0.31776(17)
Cu1 Cu 0.75533(10) 1.16269(11) 0.24801(3)
O2 O 0.9079(5) 1.0885(7) 0.31246(18)
F1 F 1.3328(6) 0.9359(9) 0.53687(18)
C1 C 1.0444(8) 0.9191(10) 0.3893(2)
C2 C 0.9375(8) 0.9125(11) 0.3354(3)
C3 C 1.1342(9) 1.0994(11) 0.4062(3)
H1 H 1.1277 1.2193 0.3839
C4 C 1.2365(10) 0.9310(15) 0.4876(3)
C5 C 1.0542(8) 0.7408(12) 0.4237(3)
H2 H 0.9967 0.6164 0.4129
C6 C 1.2337(11) 1.1046(13) 0.4555(3)
H3 H 1.2972 1.2250 0.4663
C7 C 1.1490(10) 0.7505(15) 0.4735(3)
H4 H 1.1533 0.6347 0.4972
O3 O 0.9284(5) 0.9138(7) 0.19852(18)
C8 C 0.9159(11) 0.8875(12) 0.1400(3)
H5 H 0.7942 0.8644 0.1277
H6 H 0.9816 0.7626 0.1305
C9 C 0.9841(12) 1.0745(15) 0.1101(3)
H7 H 0.9252 1.2003 0.1213
H8 H 0.9630 1.0547 0.0710
H9 H 1.1078 1.0885 0.1188
N1 N 0.5987(6) 0.9192(8) 0.2616(2)
N2 N 0.4448(8) 0.9228(8) 0.2469(2)
N3 N 0.3012(8) 0.9246(11) 0.2325(4)
H10 H 1.0205 0.9040 0.2115
O1A O 0.6099(5) 1.2353(7) 0.18224(17)
Cu1A Cu 0.74467(10) 0.66269(11) 0.25199(3)
O3A O 0.5716(5) 1.4138(7) 0.30148(18)
N1A N 0.9013(6) 1.4192(8) 0.2384(2)
loop_
_geom_bond_atom_site_label_1
_geom_bond_atom_site_label_2
_geom_bond_site_symmetry_1
_geom_bond_site_symmetry_2
O1 C2 1_555 1_555
Cu1 O2 1_555 1_555
O2 C2 1_555 1_555
F1 C4 1_555 1_555
C1 C2 1_555 1_555
C3 C1 1_555 1_555
H1 C3 1_555 1_555
C4 C6 1_555 1_555
C5 C1 1_555 1_555
H2 C5 1_555 1_555
C6 C3 1_555 1_555
H3 C6 1_555 1_555
C7 C4 1_555 1_555
H4 C7 1_555 1_555
O3 Cu1 1_555 1_555
C8 O3 1_555 1_555
H5 C8 1_555 1_555
H6 C8 1_555 1_555
C9 C8 1_555 1_555
H7 C9 1_555 1_555
H8 C9 1_555 1_555
H9 C9 1_555 1_555
N1 Cu1 1_555 1_555
N2 N1 1_555 1_555
N3 N2 1_555 1_555
H10 O3 1_555 1_555
O1A Cu1 1_555 1_555
Cu1A O1 1_555 1_555
O3A Cu1 1_555 1_555
N1A Cu1 1_555 1_555
C5 C7 1_555 1_555
O3 Cu1A 1_555 1_555
N1 Cu1A 1_555 1_555

#END
