
#######################################################################
#
#                 Cambridge Crystallographic Data Centre
#                                CCDC 
#
#######################################################################
#
# If this CIF has been generated from an entry in the Cambridge 
# Structural Database, then it will include bibliographic, chemical, 
# crystal, experimental, refinement or atomic coordinate data resulting 
# from the CCDC's data processing and validation procedures.
#
#######################################################################

data_HOQKII
_symmetry_cell_setting           monoclinic
_symmetry_space_group_name_H-M   'P 21/n'
_symmetry_Int_Tables_number      14
_space_group_name_Hall           '-P 2yn'
loop_
_symmetry_equiv_pos_site_id
_symmetry_equiv_pos_as_xyz
1 x,y,z
2 1/2-x,1/2+y,1/2-z
3 -x,-y,-z
4 1/2+x,1/2-y,1/2+z
_cell_length_a                   6.6575(14)
_cell_length_b                   9.4873(19)
_cell_length_c                   11.236(2)
_cell_angle_alpha                90
_cell_angle_beta                 104.082(4)
_cell_angle_gamma                90
_cell_volume                     688.358
loop_
_atom_site_label
_atom_site_type_symbol
_atom_site_fract_x
_atom_site_fract_y
_atom_site_fract_z
Cd1 Cd 0.19097(8) 0.85927(5) -0.02487(4)
N1 N 0.2147(9) 0.6140(7) -0.0231(5)
O1 O 0.3469(9) 0.7938(5) 0.1686(5)
O2 O 0.5031(10) 0.6179(5) 0.2845(5)
O3 O 0.4909(8) 0.1260(5) 0.0824(5)
O4 O 0.1562(8) 0.0944(6) -0.0149(5)
C1 C 0.3962(12) 0.6664(7) 0.1877(7)
C2 C 0.3168(10) 0.5614(7) 0.0850(6)
C3 C 0.3578(10) 0.4197(7) 0.1052(6)
H1 H 0.4350 0.3873 0.1806
C4 C 0.2791(12) 0.3256(8) 0.0081(7)
C5 C 0.1711(11) 0.3806(7) -0.1027(7)
H2 H 0.1171 0.3205 -0.1680
C6 C 0.1428(10) 0.5234(7) -0.1172(6)
H3 H 0.0728 0.5587 -0.1932
C7 C 0.3149(11) 0.1693(8) 0.0274(6)
Cd1C Cd 0.69097(8) 0.64073(5) 0.47513(4)
Cd1B Cd 0.80903(8) 0.14073(5) 0.02487(4)
Cd1_2 Cd 0.19097(8) -0.14073(5) -0.02487(4)
Cd1B_2 Cd -0.19097(8) 0.14073(5) 0.02487(4)
O2C O 0.0031(10) 0.8821(5) -0.2155(5)
O3B O 0.5091(8) 0.8740(5) -0.0824(5)
O4B O -0.1562(8) 0.9056(6) 0.0149(5)
O4_2 O 0.1562(8) 1.0944(6) -0.0149(5)
loop_
_geom_bond_atom_site_label_1
_geom_bond_atom_site_label_2
_geom_bond_site_symmetry_1
_geom_bond_site_symmetry_2
Cd1 N1 1_555 1_555
N1 C2 1_555 1_555
O1 Cd1 1_555 1_555
O2 C1 1_555 1_555
O3 C7 1_555 1_555
O4 C7 1_555 1_555
C1 O1 1_555 1_555
C2 C1 1_555 1_555
C3 C2 1_555 1_555
H1 C3 1_555 1_555
C4 C3 1_555 1_555
C5 C4 1_555 1_555
H2 C5 1_555 1_555
C6 N1 1_555 1_555
H3 C6 1_555 1_555
C7 C4 1_555 1_555
Cd1C O2 1_555 1_555
Cd1B O3 1_555 1_555
Cd1_2 O4 1_555 1_555
Cd1B_2 O4 1_555 1_555
O2C Cd1 1_555 1_555
O3B Cd1 1_555 1_555
O4B Cd1 1_555 1_555
O4_2 Cd1 1_555 1_555
C5 C6 1_555 1_555

#END
