
#######################################################################
#
#                 Cambridge Crystallographic Data Centre
#                                CCDC 
#
#######################################################################
#
# If this CIF has been generated from an entry in the Cambridge 
# Structural Database, then it will include bibliographic, chemical, 
# crystal, experimental, refinement or atomic coordinate data resulting 
# from the CCDC's data processing and validation procedures.
#
#######################################################################

data_HOQKOO
_symmetry_cell_setting           triclinic
_symmetry_space_group_name_H-M   'P -1'
_symmetry_Int_Tables_number      2
_space_group_name_Hall           '-P 1'
loop_
_symmetry_equiv_pos_site_id
_symmetry_equiv_pos_as_xyz
1 x,y,z
2 -x,-y,-z
_cell_length_a                   5.8645(4)
_cell_length_b                   7.5587(5)
_cell_length_c                   8.1625(6)
_cell_angle_alpha                77.744(2)
_cell_angle_beta                 76.991(1)
_cell_angle_gamma                83.633(1)
_cell_volume                     343.748
loop_
_atom_site_label
_atom_site_type_symbol
_atom_site_fract_x
_atom_site_fract_y
_atom_site_fract_z
Cu1 Cu 0.23328(9) 0.47625(7) 0.07418(7)
N1 N 0.0025(6) 0.3196(5) 0.0489(4)
N2 N -0.0456(6) 0.1752(5) 0.1436(5)
N3 N -0.0954(8) 0.0397(6) 0.2286(7)
N4 N 0.4819(6) 0.6386(5) 0.0622(5)
N5 N 0.4561(6) 0.7715(5) 0.1289(5)
N6 N 0.4329(7) 0.8946(6) 0.1919(6)
N7 N 0.0912(6) 0.4858(4) 0.3319(4)
C1 C 0.3853(8) 0.2473(7) 0.4120(6)
H1 H 0.3361 0.1604 0.3552
H2 H 0.4363 0.1821 0.5163
H3 H 0.5155 0.3124 0.3344
C2 C 0.1841(7) 0.3797(6) 0.4579(5)
C3 C -0.0894(7) 0.6042(6) 0.3731(5)
H4 H -0.1550 0.6796 0.2840
Cu1A Cu -0.23328(9) 0.52375(7) -0.07418(7)
Cu1_2 Cu -0.76672(9) 0.47625(7) 0.07418(7)
Cu1A_2 Cu -0.23328(9) 0.52375(7) 0.92582(7)
Cu1A_3 Cu 0.76672(9) 0.52375(7) -0.07418(7)
N1A N -0.0025(6) 0.6804(5) -0.0489(4)
N2A N 0.0456(6) 0.8248(5) -0.1436(5)
N3A N 0.0954(8) 0.9603(6) -0.2286(7)
N4A N -0.4819(6) 0.3614(5) -0.0622(5)
N4_2 N -0.5181(6) 0.6386(5) 0.0622(5)
N4A_2 N 0.5181(6) 0.3614(5) -0.0622(5)
N5A N -0.4561(6) 0.2285(5) -0.1289(5)
N6A N -0.4329(7) 0.1054(6) -0.1919(6)
N7A N -0.0912(6) 0.5142(4) 0.6681(4)
N7A_2 N -0.0912(6) 0.5142(4) -0.3319(4)
C1A C -0.3853(8) 0.7527(7) 0.5880(6)
H1A H -0.3361 0.8396 0.6448
H2A H -0.4363 0.8179 0.4837
H3A H -0.5155 0.6876 0.6656
C2A C -0.1841(7) 0.6203(6) 0.5421(5)
C3A C 0.0894(7) 0.3958(6) 0.6269(5)
H4A H 0.1550 0.3204 0.7160
loop_
_geom_bond_atom_site_label_1
_geom_bond_atom_site_label_2
_geom_bond_site_symmetry_1
_geom_bond_site_symmetry_2
Cu1 N1 1_555 1_555
N1 N2 1_555 1_555
N2 N3 1_555 1_555
N4 Cu1 1_555 1_555
N5 N4 1_555 1_555
N6 N5 1_555 1_555
N7 Cu1 1_555 1_555
C1 H1 1_555 1_555
H2 C1 1_555 1_555
H3 C1 1_555 1_555
C2 N7 1_555 1_555
C3 N7 1_555 1_555
H4 C3 1_555 1_555
Cu1A N1 1_555 1_555
Cu1_2 N4A 1_555 1_555
Cu1A_2 N7A 1_555 1_555
Cu1A_3 N4 1_555 1_555
N1A Cu1 1_555 1_555
N2A N1A 1_555 1_555
N3A N2A 1_555 1_555
N4A Cu1A 1_555 1_555
N4_2 Cu1A 1_555 1_555
N4A_2 Cu1 1_555 1_555
N5A N4A 1_555 1_555
N6A N5A 1_555 1_555
N7A C2A 1_555 1_555
N7A_2 Cu1A 1_555 1_555
C1A H1A 1_555 1_555
H2A C1A 1_555 1_555
H3A C1A 1_555 1_555
C2A C3 1_555 1_555
C3A C2 1_555 1_555
H4A C3A 1_555 1_555
C1 C2 1_555 1_555
Cu1A N1A 1_555 1_555
Cu1_2 N4_2 1_555 1_555
Cu1A_3 N4A_2 1_555 1_555
N7A C3A 1_555 1_555
C1A C2A 1_555 1_555

#END
