
#######################################################################
#
#                 Cambridge Crystallographic Data Centre
#                                CCDC 
#
#######################################################################
#
# If this CIF has been generated from an entry in the Cambridge 
# Structural Database, then it will include bibliographic, chemical, 
# crystal, experimental, refinement or atomic coordinate data resulting 
# from the CCDC's data processing and validation procedures.
#
#######################################################################

data_HOQLIJ
_symmetry_cell_setting           monoclinic
_symmetry_space_group_name_H-M   'P 21/c'
_symmetry_Int_Tables_number      14
_space_group_name_Hall           '-P 2ybc'
loop_
_symmetry_equiv_pos_site_id
_symmetry_equiv_pos_as_xyz
1 x,y,z
2 -x,1/2+y,1/2-z
3 -x,-y,-z
4 x,1/2-y,1/2+z
_cell_length_a                   6.2366(8)
_cell_length_b                   9.4082(12)
_cell_length_c                   15.699(2)
_cell_angle_alpha                90
_cell_angle_beta                 93.103(2)
_cell_angle_gamma                90
_cell_volume                     919.791
loop_
_atom_site_label
_atom_site_type_symbol
_atom_site_fract_x
_atom_site_fract_y
_atom_site_fract_z
Gd1 Gd 0.43665(4) 0.97357(3) 0.120856(18)
Na1 Na 0.9844(5) 0.9605(3) 0.2625(2)
O1 O 0.6928(7) 1.1063(5) 0.2127(3)
O2 O 0.7248(8) 1.3121(6) 0.2817(3)
O3 O 0.2755(8) 1.1076(5) 0.2352(3)
O4 O 0.3080(7) 1.3131(5) 0.3054(3)
O5 O 0.7356(7) 0.9951(5) 0.0302(3)
O6 O 1.0466(7) 0.9748(5) 0.1080(3)
O7 O 0.4263(9) 1.2172(5) 0.0773(3)
O8 O 0.5762(8) 1.2495(5) -0.0466(3)
C1 C 0.6200(10) 1.2101(7) 0.2520(4)
C2 C 0.3793(10) 1.2100(7) 0.2654(4)
C3 C 0.9385(10) 0.9911(6) 0.0405(4)
C4 C 0.4986(11) 1.2952(7) 0.0204(4)
C5 C 0.4976(17) 1.4541(8) 0.0376(5)
H1 H 0.6209 1.4767 0.0755
H2 H 0.3699 1.4767 0.0676
O9 O 1.0059(12) 0.8169(10) 0.3817(5)
H3 H 1.1166 0.7672 0.3931
H4 H 0.9020 0.8140 0.4140
O10 O 1.0038(17) 1.0994(12) 0.3834(6)
H5 H 1.1114 1.1526 0.3933
H6 H 0.9028 1.0987 0.4171
Gd1A Gd 0.56335(4) 0.47357(3) 0.379144(18)
Gd1A_2 Gd 0.56335(4) 1.47357(3) 0.379144(18)
Gd1B Gd 0.56335(4) 1.02643(3) -0.120856(18)
Gd1_2 Gd 1.43665(4) 0.97357(3) 0.120856(18)
Gd1B_2 Gd 1.56335(4) 1.02643(3) -0.120856(18)
Gd1B_3 Gd 0.56335(4) 2.02643(3) -0.120856(18)
Gd1_3 Gd 0.43665(4) 1.97357(3) 0.120856(18)
Na1A Na 0.0156(5) 0.4605(3) 0.2375(2)
Na1A_2 Na 1.0156(5) 1.4605(3) 0.2375(2)
Na1_2 Na -0.0156(5) 0.9605(3) 0.2625(2)
Na1A_3 Na 0.0156(5) 1.4605(3) 0.2375(2)
Na1B Na 1.0156(5) 1.0395(3) -0.2625(2)
Na1A_4 Na 1.0156(5) 0.4605(3) 0.2375(2)
O1A O 0.3072(7) 0.6063(5) 0.2873(3)
O2A O 0.2752(8) 0.8121(6) 0.2183(3)
O2A_2 O 1.2752(8) 0.8121(6) 0.2183(3)
O2_2 O 0.7248(8) 0.3121(6) 0.2817(3)
O2_3 O -0.2752(8) 0.3121(6) 0.2817(3)
O3A O 0.7245(8) 0.6076(5) 0.2648(3)
O3_2 O 1.2755(8) 1.1076(5) 0.2352(3)
O3A_2 O -0.2755(8) 0.6076(5) 0.2648(3)
O4A O 0.6920(7) 0.8131(5) 0.1946(3)
O4_2 O 0.3080(7) 0.3131(5) 0.3054(3)
O5B O 1.2644(7) 1.0049(5) -0.0302(3)
O5B_2 O 0.2644(7) 1.0049(5) -0.0302(3)
O5A O 0.2644(7) 0.4951(5) 0.4698(3)
O5C O 0.7356(7) 0.5049(5) 0.5302(3)
O6B O 0.9534(7) 1.0252(5) -0.1080(3)
O6_2 O 0.0466(7) 0.9748(5) 0.1080(3)
O6A O 0.9534(7) 0.4748(5) 0.3920(3)
O6A_2 O -0.0466(7) 0.4748(5) 0.3920(3)
O7B O 0.5737(9) 1.7828(5) -0.0773(3)
O7A O 0.5737(9) 0.7172(5) 0.4227(3)
O8B O 0.4238(8) 1.7505(5) 0.0466(3)
O8B_2 O 0.4238(8) 0.7505(5) 0.0466(3)
O8C O 0.5762(8) 0.2505(5) 0.4534(3)
C1A C 0.3800(10) 0.7101(7) 0.2480(4)
C2A C 0.6207(10) 0.7100(7) 0.2346(4)
C3B C 1.0615(10) 1.0089(6) -0.0405(4)
C4B C 0.5014(11) 1.7048(7) -0.0204(4)
C5B C 0.5024(17) 1.5459(8) -0.0376(5)
H1B H 0.3791 1.5233 -0.0755
H2B H 0.6301 1.5233 -0.0676
O9A O -0.0059(12) 0.3169(10) 0.1183(5)
H3A H -0.1166 0.2672 0.1069
H4A H 0.0980 0.3140 0.0860
O10A O -0.0038(17) 0.5994(12) 0.1166(6)
H5A H -0.1114 0.6526 0.1067
H6A H 0.0972 0.5987 0.0829
loop_
_geom_bond_atom_site_label_1
_geom_bond_atom_site_label_2
_geom_bond_site_symmetry_1
_geom_bond_site_symmetry_2
Gd1 O1 1_555 1_555
Na1 O1 1_555 1_555
O1 C1 1_555 1_555
O2 C1 1_555 1_555
O3 Gd1 1_555 1_555
O4 C2 1_555 1_555
O5 Gd1 1_555 1_555
O6 Na1 1_555 1_555
O7 Gd1 1_555 1_555
O8 C4 1_555 1_555
C1 C2 1_555 1_555
C2 O3 1_555 1_555
C3 O5 1_555 1_555
C4 O7 1_555 1_555
C5 C4 1_555 1_555
H1 C5 1_555 1_555
H2 C5 1_555 1_555
O9 Na1 1_555 1_555
H3 O9 1_555 1_555
H4 O9 1_555 1_555
O10 Na1 1_555 1_555
H5 O10 1_555 1_555
H6 O10 1_555 1_555
Gd1A O1A 1_555 1_555
Gd1A_2 O2 1_555 1_555
Gd1B O5 1_555 1_555
Gd1_2 O6 1_555 1_555
Gd1B_2 O5B 1_555 1_555
Gd1B_3 O7B 1_555 1_555
Gd1_3 O8B 1_555 1_555
Na1A O1A 1_555 1_555
Na1A_2 O2 1_555 1_555
Na1_2 O3 1_555 1_555
Na1A_3 O4 1_555 1_555
Na1B O6B 1_555 1_555
Na1A_4 O2_2 1_555 1_555
O1A C1A 1_555 1_555
O2A Gd1 1_555 1_555
O2A_2 Na1 1_555 1_555
O2_2 Gd1A 1_555 1_555
O2_3 Na1A 1_555 1_555
O3A Gd1A 1_555 1_555
O3_2 Na1 1_555 1_555
O3A_2 Na1A 1_555 1_555
O4A Gd1 1_555 1_555
O4_2 Gd1A 1_555 1_555
O5B Gd1_2 1_555 1_555
O5B_2 Gd1 1_555 1_555
O5A Gd1A 1_555 1_555
O5C Gd1A 1_555 1_555
O6B Gd1B 1_555 1_555
O6_2 Gd1 1_555 1_555
O6A Gd1A 1_555 1_555
O6A_2 Na1A 1_555 1_555
O7B C4B 1_555 1_555
O7A Gd1A 1_555 1_555
O8B C4B 1_555 1_555
O8B_2 Gd1 1_555 1_555
O8C Gd1A 1_555 1_555
C1A O2A 1_555 1_555
C2A O3A 1_555 1_555
C3B C3 1_555 1_555
C4B C5B 1_555 1_555
C5B C5 1_555 1_555
H1B C5B 1_555 1_555
H2B C5B 1_555 1_555
O9A Na1A 1_555 1_555
H3A O9A 1_555 1_555
H4A O9A 1_555 1_555
O10A Na1A 1_555 1_555
H5A O10A 1_555 1_555
H6A O10A 1_555 1_555
Na1 O4A 1_555 1_555
O4 Gd1A_2 1_555 1_555
O6 C3 1_555 1_555
O8 Gd1B 1_555 1_555
Gd1B O5B_2 1_555 1_555
Gd1_2 O2A_2 1_555 1_555
Gd1_2 O3_2 1_555 1_555
Na1A O4_2 1_555 1_555
Na1_2 O2A 1_555 1_555
Na1_2 O6_2 1_555 1_555
Na1A_4 O3A 1_555 1_555
Na1A_4 O6A 1_555 1_555
O4A C2A 1_555 1_555
O5B C3B 1_555 1_555
O6B C3B 1_555 1_555
C1A C2A 1_555 1_555

#END
