
#######################################################################
#
#                 Cambridge Crystallographic Data Centre
#                                CCDC 
#
#######################################################################
#
# If this CIF has been generated from an entry in the Cambridge 
# Structural Database, then it will include bibliographic, chemical, 
# crystal, experimental, refinement or atomic coordinate data resulting 
# from the CCDC's data processing and validation procedures.
#
#######################################################################

data_HOQLOP
_symmetry_cell_setting           monoclinic
_symmetry_space_group_name_H-M   'P 21/c'
_symmetry_Int_Tables_number      14
_space_group_name_Hall           '-P 2ybc'
loop_
_symmetry_equiv_pos_site_id
_symmetry_equiv_pos_as_xyz
1 x,y,z
2 -x,1/2+y,1/2-z
3 -x,-y,-z
4 x,1/2-y,1/2+z
_cell_length_a                   6.2755(8)
_cell_length_b                   9.4656(12)
_cell_length_c                   15.795(2)
_cell_angle_alpha                90
_cell_angle_beta                 93.158(2)
_cell_angle_gamma                90
_cell_volume                     936.82
loop_
_atom_site_label
_atom_site_type_symbol
_atom_site_fract_x
_atom_site_fract_y
_atom_site_fract_z
Eu1 Eu 0.43681(3) 0.97356(2) 0.120789(12)
Na1 Na 0.9853(3) 0.9599(2) 0.26225(13)
O1 O 0.6926(5) 1.1055(3) 0.21370(19)
O2 O 0.7231(5) 1.3118(3) 0.28148(19)
O3 O 0.2764(5) 1.1073(3) 0.23550(19)
O4 O 0.3081(5) 1.3126(4) 0.3051(2)
O5 O 0.7361(5) 0.9951(3) 0.02982(19)
O6 O 1.0445(5) 0.9749(3) 0.10783(18)
O7 O 0.4258(5) 1.2172(3) 0.07687(19)
O8 O 0.5758(5) 1.2499(3) -0.04634(19)
C1 C 0.6205(7) 1.2095(5) 0.2523(3)
C2 C 0.3807(7) 1.2099(5) 0.2653(2)
C3 C 0.9383(7) 0.9909(4) 0.0403(3)
C4 C 0.5016(7) 1.2961(5) 0.0207(3)
C5 C 0.4975(10) 1.4520(5) 0.0377(3)
H1 H 0.6188 1.4749 0.0759
H2 H 0.3697 1.4730 0.0671
O9 O 1.0042(7) 0.8164(6) 0.3817(3)
H3 H 1.1149 0.7667 0.3931
H4 H 0.9003 0.8135 0.4140
O10 O 1.0068(8) 1.1331(6) 0.4056(4)
H5 H 1.1144 1.1863 0.4155
H6 H 0.9059 1.1325 0.4393
Eu1A Eu 0.56319(3) 0.47356(2) 0.379211(12)
Eu1A_2 Eu 0.56319(3) 1.47356(2) 0.379211(12)
Eu1B Eu 0.56319(3) 1.02644(2) -0.120789(12)
Eu1_2 Eu 1.43681(3) 0.97356(2) 0.120789(12)
Eu1B_2 Eu 1.56319(3) 1.02644(2) -0.120789(12)
Eu1B_3 Eu 0.56319(3) 2.02644(2) -0.120789(12)
Eu1_3 Eu 0.43681(3) 1.97356(2) 0.120789(12)
Na1A Na 0.0147(3) 0.4599(2) 0.23775(13)
Na1A_2 Na 1.0147(3) 1.4599(2) 0.23775(13)
Na1_2 Na -0.0147(3) 0.9599(2) 0.26225(13)
Na1A_3 Na 0.0147(3) 1.4599(2) 0.23775(13)
Na1B Na 1.0147(3) 1.0401(2) -0.26225(13)
Na1A_4 Na 1.0147(3) 0.4599(2) 0.23775(13)
O1A O 0.3074(5) 0.6055(3) 0.28630(19)
O2A O 0.2769(5) 0.8118(3) 0.21852(19)
O2A_2 O 1.2769(5) 0.8118(3) 0.21852(19)
O2_2 O 0.7231(5) 0.3118(3) 0.28148(19)
O2_3 O -0.2769(5) 0.3118(3) 0.28148(19)
O3A O 0.7236(5) 0.6073(3) 0.26450(19)
O3_2 O 1.2764(5) 1.1073(3) 0.23550(19)
O3A_2 O -0.2764(5) 0.6073(3) 0.26450(19)
O4A O 0.6919(5) 0.8126(4) 0.1949(2)
O4_2 O 0.3081(5) 0.3126(4) 0.3051(2)
O5B O 1.2639(5) 1.0049(3) -0.02982(19)
O5B_2 O 0.2639(5) 1.0049(3) -0.02982(19)
O5A O 0.2639(5) 0.4951(3) 0.47018(19)
O5C O 0.7361(5) 0.5049(3) 0.52982(19)
O6B O 0.9555(5) 1.0251(3) -0.10783(18)
O6_2 O 0.0445(5) 0.9749(3) 0.10783(18)
O6A O 0.9555(5) 0.4749(3) 0.39217(18)
O6A_2 O -0.0445(5) 0.4749(3) 0.39217(18)
O7B O 0.5742(5) 1.7828(3) -0.07687(19)
O7A O 0.5742(5) 0.7172(3) 0.42313(19)
O8B O 0.4242(5) 1.7501(3) 0.04634(19)
O8B_2 O 0.4242(5) 0.7501(3) 0.04634(19)
O8C O 0.5758(5) 0.2501(3) 0.45366(19)
C1A C 0.3795(7) 0.7095(5) 0.2477(3)
C2A C 0.6193(7) 0.7099(5) 0.2347(2)
C3B C 1.0617(7) 1.0091(4) -0.0403(3)
C4B C 0.4984(7) 1.7039(5) -0.0207(3)
C5B C 0.5025(10) 1.5480(5) -0.0377(3)
H1B H 0.3812 1.5251 -0.0759
H2B H 0.6303 1.5270 -0.0671
O9A O -0.0042(7) 0.3164(6) 0.1183(3)
H3A H -0.1149 0.2667 0.1069
H4A H 0.0997 0.3135 0.0860
O10A O -0.0068(8) 0.6331(6) 0.0944(4)
H5A H -0.1144 0.6863 0.0845
H6A H 0.0941 0.6325 0.0607
loop_
_geom_bond_atom_site_label_1
_geom_bond_atom_site_label_2
_geom_bond_site_symmetry_1
_geom_bond_site_symmetry_2
Eu1 O1 1_555 1_555
Na1 O1 1_555 1_555
O1 C1 1_555 1_555
O2 C1 1_555 1_555
O3 Eu1 1_555 1_555
O4 C2 1_555 1_555
O5 Eu1 1_555 1_555
O6 Na1 1_555 1_555
O7 Eu1 1_555 1_555
O8 C4 1_555 1_555
C1 C2 1_555 1_555
C2 O3 1_555 1_555
C3 O5 1_555 1_555
C4 O7 1_555 1_555
C5 C4 1_555 1_555
H1 C5 1_555 1_555
H2 C5 1_555 1_555
O9 Na1 1_555 1_555
H3 O9 1_555 1_555
H4 O9 1_555 1_555
O10 Na1 1_555 1_555
H5 O10 1_555 1_555
H6 O10 1_555 1_555
Eu1A O1A 1_555 1_555
Eu1A_2 O2 1_555 1_555
Eu1B O5 1_555 1_555
Eu1_2 O6 1_555 1_555
Eu1B_2 O5B 1_555 1_555
Eu1B_3 O7B 1_555 1_555
Eu1_3 O8B 1_555 1_555
Na1A O1A 1_555 1_555
Na1A_2 O2 1_555 1_555
Na1_2 O3 1_555 1_555
Na1A_3 O4 1_555 1_555
Na1B O6B 1_555 1_555
Na1A_4 O2_2 1_555 1_555
O1A C1A 1_555 1_555
O2A Eu1 1_555 1_555
O2A_2 Na1 1_555 1_555
O2_2 Eu1A 1_555 1_555
O2_3 Na1A 1_555 1_555
O3A Eu1A 1_555 1_555
O3_2 Na1 1_555 1_555
O3A_2 Na1A 1_555 1_555
O4A Eu1 1_555 1_555
O4_2 Eu1A 1_555 1_555
O5B Eu1_2 1_555 1_555
O5B_2 Eu1 1_555 1_555
O5A Eu1A 1_555 1_555
O5C Eu1A 1_555 1_555
O6B Eu1B 1_555 1_555
O6_2 Eu1 1_555 1_555
O6A Eu1A 1_555 1_555
O6A_2 Na1A 1_555 1_555
O7B C4B 1_555 1_555
O7A Eu1A 1_555 1_555
O8B C4B 1_555 1_555
O8B_2 Eu1 1_555 1_555
O8C Eu1A 1_555 1_555
C1A O2A 1_555 1_555
C2A O3A 1_555 1_555
C3B C3 1_555 1_555
C4B C5B 1_555 1_555
C5B C5 1_555 1_555
H1B C5B 1_555 1_555
H2B C5B 1_555 1_555
O9A Na1A 1_555 1_555
H3A O9A 1_555 1_555
H4A O9A 1_555 1_555
O10A Na1A 1_555 1_555
H5A O10A 1_555 1_555
H6A O10A 1_555 1_555
Na1 O4A 1_555 1_555
O4 Eu1A_2 1_555 1_555
O6 C3 1_555 1_555
O8 Eu1B 1_555 1_555
Eu1B O5B_2 1_555 1_555
Eu1_2 O2A_2 1_555 1_555
Eu1_2 O3_2 1_555 1_555
Na1A O4_2 1_555 1_555
Na1_2 O2A 1_555 1_555
Na1_2 O6_2 1_555 1_555
Na1A_4 O3A 1_555 1_555
Na1A_4 O6A 1_555 1_555
O4A C2A 1_555 1_555
O5B C3B 1_555 1_555
O6B C3B 1_555 1_555
C1A C2A 1_555 1_555

#END
