
#######################################################################
#
#                 Cambridge Crystallographic Data Centre
#                                CCDC 
#
#######################################################################
#
# If this CIF has been generated from an entry in the Cambridge 
# Structural Database, then it will include bibliographic, chemical, 
# crystal, experimental, refinement or atomic coordinate data resulting 
# from the CCDC's data processing and validation procedures.
#
#######################################################################

data_HOQMAC
_symmetry_cell_setting           monoclinic
_symmetry_space_group_name_H-M   'P 21/c'
_symmetry_Int_Tables_number      14
_space_group_name_Hall           '-P 2ybc'
loop_
_symmetry_equiv_pos_site_id
_symmetry_equiv_pos_as_xyz
1 x,y,z
2 -x,1/2+y,1/2-z
3 -x,-y,-z
4 x,1/2-y,1/2+z
_cell_length_a                   6.210(4)
_cell_length_b                   9.381(5)
_cell_length_c                   15.633(9)
_cell_angle_alpha                90
_cell_angle_beta                 93.053(8)
_cell_angle_gamma                90
_cell_volume                     909.424
loop_
_atom_site_label
_atom_site_type_symbol
_atom_site_fract_x
_atom_site_fract_y
_atom_site_fract_z
Tb1 Tb 0.43577(8) 0.97319(5) 0.12091(3)
Na1 Na 0.9833(7) 0.9586(5) 0.2622(3)
O1 O 0.6914(13) 1.1046(9) 0.2123(5)
O2 O 0.7247(13) 1.3130(9) 0.2821(5)
O3 O 0.2752(13) 1.1073(9) 0.2350(5)
O4 O 0.3094(13) 1.3129(9) 0.3065(5)
O5 O 0.7350(11) 0.9934(7) 0.0311(4)
O6 O 1.0454(11) 0.9729(8) 0.1080(4)
O7 O 0.4287(14) 1.2141(8) 0.0784(5)
O8 O 0.5777(13) 1.2495(8) -0.0465(4)
O9 O 1.0072(15) 0.8154(10) 0.3851(6)
O10 O 1.006(2) 1.1334(14) 0.4041(8)
C1 C 0.6233(19) 1.2080(12) 0.2517(7)
C2 C 0.3791(18) 1.2088(12) 0.2652(6)
C3 C 0.9380(16) 0.9916(11) 0.0406(6)
C4 C 0.5023(19) 1.2957(13) 0.0209(6)
C5 C 0.502(2) 1.4522(12) 0.0392(7)
H1 H 0.3755 1.4747 0.0725
H2 H 0.6329 1.4753 0.0757
Tb1A Tb 0.56423(8) 0.47319(5) 0.37909(3)
Tb1A_2 Tb 0.56423(8) 1.47319(5) 0.37909(3)
Tb1B Tb 0.56423(8) 1.02681(5) -0.12091(3)
Tb1_2 Tb 1.43577(8) 0.97319(5) 0.12091(3)
Tb1B_2 Tb 1.56423(8) 1.02681(5) -0.12091(3)
Tb1B_3 Tb 0.56423(8) 2.02681(5) -0.12091(3)
Tb1_3 Tb 0.43577(8) 1.97319(5) 0.12091(3)
Na1A Na 0.0167(7) 0.4586(5) 0.2378(3)
Na1A_2 Na 1.0167(7) 1.4586(5) 0.2378(3)
Na1_2 Na -0.0167(7) 0.9586(5) 0.2622(3)
Na1A_3 Na 0.0167(7) 1.4586(5) 0.2378(3)
Na1B Na 1.0167(7) 1.0414(5) -0.2622(3)
Na1A_4 Na 1.0167(7) 0.4586(5) 0.2378(3)
O1A O 0.3086(13) 0.6046(9) 0.2877(5)
O2A O 0.2753(13) 0.8130(9) 0.2179(5)
O2A_2 O 1.2753(13) 0.8130(9) 0.2179(5)
O2_2 O 0.7247(13) 0.3130(9) 0.2821(5)
O2_3 O -0.2753(13) 0.3130(9) 0.2821(5)
O3A O 0.7248(13) 0.6073(9) 0.2650(5)
O3_2 O 1.2752(13) 1.1073(9) 0.2350(5)
O3A_2 O -0.2752(13) 0.6073(9) 0.2650(5)
O4A O 0.6906(13) 0.8129(9) 0.1935(5)
O4_2 O 0.3094(13) 0.3129(9) 0.3065(5)
O5B O 1.2650(11) 1.0066(7) -0.0311(4)
O5B_2 O 0.2650(11) 1.0066(7) -0.0311(4)
O5A O 0.2650(11) 0.4934(7) 0.4689(4)
O5C O 0.7350(11) 0.5066(7) 0.5311(4)
O6B O 0.9546(11) 1.0271(8) -0.1080(4)
O6_2 O 0.0454(11) 0.9729(8) 0.1080(4)
O6A O 0.9546(11) 0.4729(8) 0.3920(4)
O6A_2 O -0.0454(11) 0.4729(8) 0.3920(4)
O7B O 0.5713(14) 1.7859(8) -0.0784(5)
O7A O 0.5713(14) 0.7141(8) 0.4216(5)
O8B O 0.4223(13) 1.7505(8) 0.0465(4)
O8B_2 O 0.4223(13) 0.7505(8) 0.0465(4)
O8C O 0.5777(13) 0.2505(8) 0.4535(4)
O9A O -0.0072(15) 0.3154(10) 0.1149(6)
O10A O -0.006(2) 0.6334(14) 0.0959(8)
C1A C 0.3767(19) 0.7080(12) 0.2483(7)
C2A C 0.6209(18) 0.7088(12) 0.2348(6)
C3B C 1.0620(16) 1.0084(11) -0.0406(6)
C4B C 0.4977(19) 1.7043(13) -0.0209(6)
C5B C 0.498(2) 1.5478(12) -0.0392(7)
H1B H 0.6245 1.5253 -0.0725
H2B H 0.3671 1.5247 -0.0757
loop_
_geom_bond_atom_site_label_1
_geom_bond_atom_site_label_2
_geom_bond_site_symmetry_1
_geom_bond_site_symmetry_2
Tb1 O1 1_555 1_555
Na1 O1 1_555 1_555
O1 C1 1_555 1_555
O2 C1 1_555 1_555
O3 Tb1 1_555 1_555
O4 C2 1_555 1_555
O5 Tb1 1_555 1_555
O6 Na1 1_555 1_555
O7 Tb1 1_555 1_555
O8 C4 1_555 1_555
O9 Na1 1_555 1_555
O10 Na1 1_555 1_555
C1 C2 1_555 1_555
C2 O3 1_555 1_555
C3 O5 1_555 1_555
C4 O7 1_555 1_555
C5 C4 1_555 1_555
H1 C5 1_555 1_555
H2 C5 1_555 1_555
Tb1A O1A 1_555 1_555
Tb1A_2 O2 1_555 1_555
Tb1B O5 1_555 1_555
Tb1_2 O6 1_555 1_555
Tb1B_2 O5B 1_555 1_555
Tb1B_3 O7B 1_555 1_555
Tb1_3 O8B 1_555 1_555
Na1A O1A 1_555 1_555
Na1A_2 O2 1_555 1_555
Na1_2 O3 1_555 1_555
Na1A_3 O4 1_555 1_555
Na1B O6B 1_555 1_555
Na1A_4 O2_2 1_555 1_555
O1A C1A 1_555 1_555
O2A Tb1 1_555 1_555
O2A_2 Na1 1_555 1_555
O2_2 Tb1A 1_555 1_555
O2_3 Na1A 1_555 1_555
O3A Tb1A 1_555 1_555
O3_2 Na1 1_555 1_555
O3A_2 Na1A 1_555 1_555
O4A Tb1 1_555 1_555
O4_2 Tb1A 1_555 1_555
O5B Tb1_2 1_555 1_555
O5B_2 Tb1 1_555 1_555
O5A Tb1A 1_555 1_555
O5C Tb1A 1_555 1_555
O6B Tb1B 1_555 1_555
O6_2 Tb1 1_555 1_555
O6A Tb1A 1_555 1_555
O6A_2 Na1A 1_555 1_555
O7B C4B 1_555 1_555
O7A Tb1A 1_555 1_555
O8B C4B 1_555 1_555
O8B_2 Tb1 1_555 1_555
O8C Tb1A 1_555 1_555
O9A Na1A 1_555 1_555
O10A Na1A 1_555 1_555
C1A O2A 1_555 1_555
C2A O3A 1_555 1_555
C3B C3 1_555 1_555
C4B C5B 1_555 1_555
C5B C5 1_555 1_555
H1B C5B 1_555 1_555
H2B C5B 1_555 1_555
Na1 O4A 1_555 1_555
O4 Tb1A_2 1_555 1_555
O6 C3 1_555 1_555
O8 Tb1B 1_555 1_555
Tb1B O5B_2 1_555 1_555
Tb1_2 O2A_2 1_555 1_555
Tb1_2 O3_2 1_555 1_555
Na1A O4_2 1_555 1_555
Na1_2 O2A 1_555 1_555
Na1_2 O6_2 1_555 1_555
Na1A_4 O3A 1_555 1_555
Na1A_4 O6A 1_555 1_555
O4A C2A 1_555 1_555
O5B C3B 1_555 1_555
O6B C3B 1_555 1_555
C1A C2A 1_555 1_555

#END
