
#######################################################################
#
#                 Cambridge Crystallographic Data Centre
#                                CCDC 
#
#######################################################################
#
# If this CIF has been generated from an entry in the Cambridge 
# Structural Database, then it will include bibliographic, chemical, 
# crystal, experimental, refinement or atomic coordinate data resulting 
# from the CCDC's data processing and validation procedures.
#
#######################################################################

data_HOQPUZ
_symmetry_cell_setting           monoclinic
_symmetry_space_group_name_H-M   'P 21'
_symmetry_Int_Tables_number      4
_space_group_name_Hall           'P 2yb'
loop_
_symmetry_equiv_pos_site_id
_symmetry_equiv_pos_as_xyz
1 x,y,z
2 -x,1/2+y,-z
_cell_length_a                   10.543(7)
_cell_length_b                   4.990(3)
_cell_length_c                   18.508(13)
_cell_angle_alpha                90
_cell_angle_beta                 95.337(10)
_cell_angle_gamma                90
_cell_volume                     969.477
loop_
_atom_site_label
_atom_site_type_symbol
_atom_site_fract_x
_atom_site_fract_y
_atom_site_fract_z
Cd1 Cd 0.70938(8) 0.4593(2) 0.13956(5)
N1 N 0.5776(13) 0.557(3) 0.2220(8)
C1 C 0.4682(13) 0.436(6) 0.2319(9)
H1 H 0.4395 0.2818 0.2074
N2 N 0.4060(13) 0.558(3) 0.2796(10)
H2 H 0.3333 0.5085 0.2926
C2 C 0.472(2) 0.770(5) 0.3053(10)
H3 H 0.4495 0.8936 0.3395
C3 C 0.5792(17) 0.764(4) 0.2705(10)
H4 H 0.6459 0.8858 0.2786
O1 O 0.8753(9) 0.676(2) 0.2083(6)
O2 O 0.7794(9) 1.037(2) 0.1636(6)
C4 C 0.8766(13) 0.922(4) 0.1927(7)
C5 C 1.0036(14) 1.069(3) 0.1973(8)
H5 H 0.9888 1.2568 0.2093
C6 C 1.0586(14) 1.059(4) 0.1239(9)
H6 H 0.9986 1.1364 0.0869
H7 H 1.0735 0.8739 0.1108
S1 S 1.2034(4) 1.2387(18) 0.1290(2)
C7 C 1.190(2) 1.401(4) 0.0402(9)
H8 H 1.1028 1.4561 0.0276
H9 H 1.2433 1.5606 0.0424
C8 C 1.2317(16) 1.214(4) -0.0178(8)
O3 O 1.1563(12) 1.059(3) -0.0482(7)
O4 O 1.3483(10) 1.226(3) -0.0332(6)
N3 N 1.0936(9) 0.954(4) 0.2542(5)
H10 H 1.0655 0.7887 0.2637
S2 S 1.1187(3) 1.1094(8) 0.3315(2)
O5 O 1.2163(8) 0.963(4) 0.3748(5)
O6 O 1.1411(9) 1.380(2) 0.3155(6)
C9 C 0.9750(14) 1.089(3) 0.3744(8)
C10 C 0.8797(16) 1.268(4) 0.3579(9)
H11 H 0.8888 1.3980 0.3229
C11 C 0.7732(18) 1.258(4) 0.3913(10)
H12 H 0.7097 1.3848 0.3798
C12 C 0.7549(16) 1.061(4) 0.4437(9)
C13 C 0.8506(16) 0.879(3) 0.4595(9)
H13 H 0.8409 0.7445 0.4933
C14 C 0.9639(16) 0.894(4) 0.4247(9)
H14 H 1.0298 0.7726 0.4360
C15 C 0.640(2) 1.047(5) 0.4857(13)
H15 H 0.6039 0.8709 0.4812
H16 H 0.5785 1.1768 0.4669
H17 H 0.6651 1.0846 0.5359
O7 O 0.5481(11) 0.184(3) 0.0842(6)
H18 H 0.5755 0.1023 0.0481
H19 H 0.4830 0.2789 0.0708
Cd1_2 Cd 0.70938(8) 1.4593(2) 0.13956(5)
Cd1A Cd 1.29062(8) 0.9593(2) -0.13956(5)
O2_2 O 0.7794(9) 0.037(2) 0.1636(6)
O3A O 0.8437(12) 0.559(3) 0.0482(7)
O4A O 0.6517(10) 0.726(3) 0.0332(6)
loop_
_geom_bond_atom_site_label_1
_geom_bond_atom_site_label_2
_geom_bond_site_symmetry_1
_geom_bond_site_symmetry_2
Cd1 N1 1_555 1_555
N1 C1 1_555 1_555
C1 H1 1_555 1_555
N2 C1 1_555 1_555
H2 N2 1_555 1_555
C2 N2 1_555 1_555
H3 C2 1_555 1_555
C3 N1 1_555 1_555
H4 C3 1_555 1_555
O1 Cd1 1_555 1_555
O2 C4 1_555 1_555
C4 O1 1_555 1_555
C5 C4 1_555 1_555
H5 C5 1_555 1_555
C6 C5 1_555 1_555
H6 C6 1_555 1_555
H7 C6 1_555 1_555
S1 C6 1_555 1_555
C7 S1 1_555 1_555
H8 C7 1_555 1_555
H9 C7 1_555 1_555
C8 C7 1_555 1_555
O3 C8 1_555 1_555
O4 C8 1_555 1_555
N3 C5 1_555 1_555
H10 N3 1_555 1_555
S2 N3 1_555 1_555
O5 S2 1_555 1_555
O6 S2 1_555 1_555
C9 S2 1_555 1_555
C10 C9 1_555 1_555
H11 C10 1_555 1_555
C11 C10 1_555 1_555
H12 C11 1_555 1_555
C12 C11 1_555 1_555
C13 C12 1_555 1_555
H13 C13 1_555 1_555
C14 C9 1_555 1_555
H14 C14 1_555 1_555
C15 C12 1_555 1_555
H15 C15 1_555 1_555
H16 C15 1_555 1_555
H17 C15 1_555 1_555
O7 Cd1 1_555 1_555
H18 O7 1_555 1_555
H19 O7 1_555 1_555
Cd1_2 O2 1_555 1_555
Cd1A O3 1_555 1_555
O2_2 Cd1 1_555 1_555
O3A Cd1 1_555 1_555
O4A Cd1 1_555 1_555
C2 C3 1_555 1_555
O4 Cd1A 1_555 1_555
C13 C14 1_555 1_555

#END
