
#######################################################################
#
#                 Cambridge Crystallographic Data Centre
#                                CCDC 
#
#######################################################################
#
# If this CIF has been generated from an entry in the Cambridge 
# Structural Database, then it will include bibliographic, chemical, 
# crystal, experimental, refinement or atomic coordinate data resulting 
# from the CCDC's data processing and validation procedures.
#
#######################################################################

data_HOQPOT
_symmetry_cell_setting           monoclinic
_symmetry_space_group_name_H-M   'P 21'
_symmetry_Int_Tables_number      4
_space_group_name_Hall           'P 2yb'
loop_
_symmetry_equiv_pos_site_id
_symmetry_equiv_pos_as_xyz
1 x,y,z
2 -x,1/2+y,-z
_cell_length_a                   11.4808(14)
_cell_length_b                   10.6735(13)
_cell_length_c                   19.985(2)
_cell_angle_alpha                90
_cell_angle_beta                 100.3010(10)
_cell_angle_gamma                90
_cell_volume                     2409.5
loop_
_atom_site_label
_atom_site_type_symbol
_atom_site_fract_x
_atom_site_fract_y
_atom_site_fract_z
Zn1 Zn 0.95727(4) 0.57379(4) 0.52100(2)
Zn2 Zn 1.45266(4) 0.58748(4) 1.00593(2)
S1 S 0.93528(12) 0.26057(12) 0.76876(6)
S2 S 1.25908(12) 0.36085(12) 0.79238(6)
S3 S 0.42393(12) 0.27941(12) 0.25696(6)
S4 S 0.73345(15) 0.39270(17) 0.30174(7)
C1 C 0.5507(5) 0.2706(5) 0.6629(3)
C2 C 0.6106(6) 0.3782(5) 0.6829(3)
H1 H 0.5715 0.4546 0.6755
C3 C 0.7288(6) 0.3763(5) 0.7142(3)
H2 H 0.7682 0.4510 0.7271
C4 C 0.7881(4) 0.2627(5) 0.7260(2)
C5 C 0.7287(5) 0.1540(5) 0.7061(2)
H3 H 0.7672 0.0773 0.7133
C6 C 0.6103(5) 0.1590(5) 0.6749(2)
H4 H 0.5705 0.0846 0.6619
C7 C 0.4214(5) 0.2730(6) 0.6316(3)
H5 H 0.3757 0.2414 0.6637
H6 H 0.4082 0.2216 0.5916
H7 H 0.3978 0.3575 0.6196
C8 C 1.0511(4) 0.4420(4) 0.7140(2)
H8 H 1.0189 0.4901 0.7483
C9 C 1.0055(4) 0.4986(5) 0.6438(2)
C10 C 1.1868(4) 0.4599(5) 0.7257(2)
H9 H 1.2059 0.5466 0.7373
H10 H 1.2155 0.4408 0.6841
C11 C 1.4028(4) 0.4361(5) 0.8095(2)
H11 H 1.4643 0.3729 0.8184
H12 H 1.4147 0.4839 0.7700
C12 C 1.4110(4) 0.5218(5) 0.8700(2)
C13 C 0.9108(4) 0.5230(5) 0.3799(2)
C14 C 0.8860(4) 0.4406(5) 0.3181(2)
H13 H 0.9365 0.3672 0.3251
H14 H 0.9039 0.4858 0.2791
C15 C 0.6770(4) 0.4769(5) 0.2252(2)
H15 H 0.6975 0.5648 0.2315
H16 H 0.7134 0.4451 0.1884
C16 C 0.5427(4) 0.4638(4) 0.20629(19)
H17 H 0.5066 0.5102 0.2396
C17 C 0.5059(4) 0.5260(5) 0.1366(2)
C18 C 0.2764(4) 0.2908(4) 0.2155(2)
C19 C 0.1882(5) 0.2469(5) 0.2487(2)
H18 H 0.2089 0.2098 0.2913
C20 C 0.0715(5) 0.2574(5) 0.2197(3)
H19 H 0.0146 0.2268 0.2433
C21 C 0.0355(5) 0.3110(5) 0.1579(3)
C22 C 0.1236(5) 0.3524(5) 0.1250(3)
H20 H 0.1022 0.3885 0.0822
C23 C 0.2423(5) 0.3431(5) 0.1524(2)
H21 H 0.2989 0.3722 0.1282
C24 C -0.0925(4) 0.3263(6) 0.1281(3)
H22 H -0.1387 0.2693 0.1498
H23 H -0.1047 0.3088 0.0802
H24 H -0.1166 0.4108 0.1350
C25 C 1.2264(4) 0.6348(4) 0.5694(2)
H25 H 1.1958 0.6745 0.6039
C26 C 1.3476(4) 0.6353(4) 0.5730(2)
H26 H 1.3962 0.6749 0.6090
C27 C 1.3966(3) 0.5764(5) 0.52276(18)
C28 C 1.3176(4) 0.5211(5) 0.4705(2)
H27 H 1.3452 0.4818 0.4349
C29 C 1.1994(4) 0.5245(4) 0.4715(2)
H28 H 1.1489 0.4848 0.4363
C30 C 1.5261(3) 0.5733(5) 0.52397(18)
C31 C 1.6008(4) 0.6637(4) 0.5579(2)
H29 H 1.5709 0.7269 0.5821
C32 C 1.7196(3) 0.6591(4) 0.5554(2)
H30 H 1.7679 0.7221 0.5774
C33 C 1.6986(4) 0.4828(5) 0.4926(3)
H31 H 1.7313 0.4190 0.4703
C34 C 1.5784(4) 0.4809(5) 0.4919(3)
H32 H 1.5325 0.4166 0.4695
C35 C 1.7203(4) 0.6521(5) 1.0496(2)
H33 H 1.6909 0.6875 1.0857
C36 C 1.8399(4) 0.6545(5) 1.0515(2)
H34 H 1.8890 0.6903 1.0886
C37 C 1.8891(3) 0.6047(4) 0.99913(18)
C38 C 1.8090(4) 0.5540(5) 0.9458(2)
H35 H 1.8358 0.5197 0.9085
C39 C 1.6916(4) 0.5545(5) 0.9480(2)
H36 H 1.6404 0.5194 0.9114
C40 C 2.0186(3) 0.6016(4) 1.00025(18)
C41 C 2.0969(4) 0.6722(4) 1.0457(2)
H37 H 2.0685 0.7262 1.0755
C42 C 2.2155(4) 0.6630(4) 1.0469(2)
H38 H 2.2658 0.7123 1.0778
C43 C 2.1888(4) 0.5181(4) 0.9623(2)
H39 H 2.2196 0.4632 0.9339
C44 C 2.0680(4) 0.5246(4) 0.9574(2)
H40 H 2.0192 0.4768 0.9250
N1 N 1.0204(3) 0.3107(4) 0.71939(17)
H41 H 1.0497 0.2572 0.6948
N2 N 1.1508(3) 0.5810(4) 0.51957(15)
N3 N 1.7700(3) 0.5708(4) 0.52356(15)
N4 N 0.5065(3) 0.3333(3) 0.20736(16)
H42 H 0.5310 0.2822 0.1796
N5 N 1.6440(3) 0.6021(4) 0.99911(15)
N6 N 2.2640(3) 0.5873(4) 1.00623(15)
O1 O 0.9963(3) 0.6126(3) 0.63757(15)
O2 O 0.9871(3) 0.4246(3) 0.59365(13)
O3 O 1.3982(3) 0.6359(3) 0.86418(17)
O4 O 1.4324(2) 0.4662(3) 0.92735(12)
O5 O 0.9425(3) 0.3497(4) 0.82376(15)
O6 O 0.9656(3) 0.1322(3) 0.78337(16)
O7 O 0.9298(2) 0.4649(3) 0.43661(12)
O8 O 0.9128(4) 0.6369(4) 0.37510(17)
O9 O 0.4906(3) 0.4574(3) 0.08435(14)
O10 O 0.4956(3) 0.6413(4) 0.13404(18)
O11 O 0.4502(3) 0.1491(3) 0.26675(16)
O12 O 0.4355(3) 0.3570(3) 0.31652(15)
O13 O 0.9453(2) 0.7623(3) 0.50394(12)
H43 H 1.0063 0.7967 0.5269
H44 H 0.9440 0.7712 0.4615
O14 O 1.4404(2) 0.7776(3) 1.00105(13)
H45 H 1.4965 0.8085 1.0290
H46 H 1.4415 0.7978 0.9603
Zn1_2 Zn 1.95727(4) 0.57379(4) 0.52100(2)
Zn2_2 Zn 2.45266(4) 0.58748(4) 1.00593(2)
Zn2_3 Zn 0.45266(4) 0.58748(4) 0.00593(2)
N3_2 N 0.7700(3) 0.5708(4) 0.52356(15)
N6_2 N 1.2640(3) 0.5873(4) 1.00623(15)
O9_2 O 1.4906(3) 0.4574(3) 1.08435(14)
O10_2 O 1.4956(3) 0.6413(4) 1.13404(18)
loop_
_geom_bond_atom_site_label_1
_geom_bond_atom_site_label_2
_geom_bond_site_symmetry_1
_geom_bond_site_symmetry_2
Zn1 N2 1_555 1_555
Zn2 N5 1_555 1_555
S1 C4 1_555 1_555
S2 C10 1_555 1_555
S3 C18 1_555 1_555
S4 C14 1_555 1_555
C1 C2 1_555 1_555
C2 H1 1_555 1_555
C3 C2 1_555 1_555
H2 C3 1_555 1_555
C4 C3 1_555 1_555
C5 C4 1_555 1_555
H3 C5 1_555 1_555
C6 C1 1_555 1_555
H4 C6 1_555 1_555
C7 C1 1_555 1_555
H5 C7 1_555 1_555
H6 C7 1_555 1_555
H7 C7 1_555 1_555
C8 H8 1_555 1_555
C9 C8 1_555 1_555
C10 C8 1_555 1_555
H9 C10 1_555 1_555
H10 C10 1_555 1_555
C11 S2 1_555 1_555
H11 C11 1_555 1_555
H12 C11 1_555 1_555
C12 C11 1_555 1_555
C13 C14 1_555 1_555
C14 H13 1_555 1_555
H14 C14 1_555 1_555
C15 S4 1_555 1_555
H15 C15 1_555 1_555
H16 C15 1_555 1_555
C16 C15 1_555 1_555
H17 C16 1_555 1_555
C17 C16 1_555 1_555
C18 C19 1_555 1_555
C19 H18 1_555 1_555
C20 C19 1_555 1_555
H19 C20 1_555 1_555
C21 C20 1_555 1_555
C22 C21 1_555 1_555
H20 C22 1_555 1_555
C23 C18 1_555 1_555
H21 C23 1_555 1_555
C24 C21 1_555 1_555
H22 C24 1_555 1_555
H23 C24 1_555 1_555
H24 C24 1_555 1_555
C25 H25 1_555 1_555
C26 C25 1_555 1_555
H26 C26 1_555 1_555
C27 C26 1_555 1_555
C28 C27 1_555 1_555
H27 C28 1_555 1_555
C29 C28 1_555 1_555
H28 C29 1_555 1_555
C30 C27 1_555 1_555
C31 C30 1_555 1_555
H29 C31 1_555 1_555
C32 C31 1_555 1_555
H30 C32 1_555 1_555
C33 H31 1_555 1_555
C34 C30 1_555 1_555
H32 C34 1_555 1_555
C35 H33 1_555 1_555
C36 C35 1_555 1_555
H34 C36 1_555 1_555
C37 C36 1_555 1_555
C38 C37 1_555 1_555
H35 C38 1_555 1_555
C39 C38 1_555 1_555
H36 C39 1_555 1_555
C40 C37 1_555 1_555
C41 C40 1_555 1_555
H37 C41 1_555 1_555
C42 C41 1_555 1_555
H38 C42 1_555 1_555
C43 H39 1_555 1_555
C44 C40 1_555 1_555
H40 C44 1_555 1_555
N1 S1 1_555 1_555
H41 N1 1_555 1_555
N2 C25 1_555 1_555
N3 C32 1_555 1_555
N4 S3 1_555 1_555
H42 N4 1_555 1_555
N5 C35 1_555 1_555
N6 C42 1_555 1_555
O1 Zn1 1_555 1_555
O2 Zn1 1_555 1_555
O3 C12 1_555 1_555
O4 Zn2 1_555 1_555
O5 S1 1_555 1_555
O6 S1 1_555 1_555
O7 Zn1 1_555 1_555
O8 C13 1_555 1_555
O9 C17 1_555 1_555
O10 C17 1_555 1_555
O11 S3 1_555 1_555
O12 S3 1_555 1_555
O13 Zn1 1_555 1_555
H43 O13 1_555 1_555
H44 O13 1_555 1_555
O14 Zn2 1_555 1_555
H45 O14 1_555 1_555
H46 O14 1_555 1_555
Zn1_2 N3 1_555 1_555
Zn2_2 N6 1_555 1_555
Zn2_3 O9 1_555 1_555
N3_2 Zn1 1_555 1_555
N6_2 Zn2 1_555 1_555
O9_2 Zn2 1_555 1_555
O10_2 Zn2 1_555 1_555
C5 C6 1_555 1_555
C8 N1 1_555 1_555
C9 O1 1_555 1_555
C9 O2 1_555 1_555
C12 O4 1_555 1_555
C13 O7 1_555 1_555
C16 N4 1_555 1_555
C22 C23 1_555 1_555
C29 N2 1_555 1_555
C33 C34 1_555 1_555
C33 N3 1_555 1_555
C39 N5 1_555 1_555
C43 C44 1_555 1_555
C43 N6 1_555 1_555
O10 Zn2_3 1_555 1_555

#END
