
#######################################################################
#
#                 Cambridge Crystallographic Data Centre
#                                CCDC 
#
#######################################################################
#
# If this CIF has been generated from an entry in the Cambridge 
# Structural Database, then it will include bibliographic, chemical, 
# crystal, experimental, refinement or atomic coordinate data resulting 
# from the CCDC's data processing and validation procedures.
#
#######################################################################

data_HOQPEJ
_symmetry_cell_setting           monoclinic
_symmetry_space_group_name_H-M   'P 21'
_symmetry_Int_Tables_number      4
_space_group_name_Hall           'P 2yb'
loop_
_symmetry_equiv_pos_site_id
_symmetry_equiv_pos_as_xyz
1 x,y,z
2 -x,1/2+y,-z
_cell_length_a                   8.5289(15)
_cell_length_b                   6.0505(10)
_cell_length_c                   14.924(2)
_cell_angle_alpha                90
_cell_angle_beta                 96.613(2)
_cell_angle_gamma                90
_cell_volume                     765.016
loop_
_atom_site_label
_atom_site_type_symbol
_atom_site_fract_x
_atom_site_fract_y
_atom_site_fract_z
Cd1 Cd 1.40364(2) 0.47455(4) 0.953212(15)
N1 N 0.8271(4) 0.5723(7) 0.8169(2)
H1 H 0.7448 0.6195 0.8445
O1 O 1.3600(3) 0.0922(5) 0.96793(17)
O2 O 1.4065(4) -0.1917(5) 0.8805(2)
O3 O 0.5800(3) 0.3321(5) 0.86536(17)
O4 O 0.7460(3) 0.0980(5) 0.94458(19)
O5 O 0.9180(4) 0.5621(6) 0.6658(2)
O6 O 0.7781(5) 0.8888(6) 0.7168(3)
S1 S 1.16928(10) 0.36366(17) 0.82765(6)
S2 S 0.79545(13) 0.65479(19) 0.71152(7)
C1 C 1.3441(4) -0.0102(10) 0.8928(2)
C2 C 1.2480(5) 0.0934(7) 0.8113(3)
H2 H 1.1609 -0.0047 0.7917
H3 H 1.3142 0.1018 0.7628
C3 C 0.7116(4) 0.2475(6) 0.8875(2)
C4 C 0.8483(5) 0.3361(7) 0.8383(3)
H4 H 0.8481 0.2549 0.7815
C5 C 1.0080(4) 0.2992(8) 0.8940(3)
H5 H 1.0164 0.1465 0.9137
H6 H 1.0160 0.3924 0.9472
C6 C 0.6140(5) 0.5410(7) 0.6626(3)
C7 C 0.6134(6) 0.3397(8) 0.6189(3)
H7 H 0.7076 0.2661 0.6135
C8 C 0.4703(6) 0.2487(9) 0.5833(3)
H8 H 0.4692 0.1140 0.5533
C9 C 0.3294(6) 0.3548(10) 0.5917(3)
C10 C 0.3334(5) 0.5577(10) 0.6352(3)
H9 H 0.2396 0.6327 0.6401
C11 C 0.4744(5) 0.6498(8) 0.6715(3)
H10 H 0.4755 0.7843 0.7017
C12 C 0.1732(7) 0.2525(15) 0.5543(4)
H11 H 0.0965 0.2781 0.5955
H12 H 0.1866 0.0964 0.5467
H13 H 0.1375 0.3184 0.4971
Cd1A Cd 1.59636(2) -0.02545(4) 1.046788(15)
Cd1_2 Cd 1.40364(2) -0.52545(4) 0.953212(15)
Cd1_3 Cd 0.40364(2) 0.47455(4) 0.953212(15)
Cd1A_2 Cd 0.59636(2) -0.02545(4) 1.046788(15)
O1A O 1.6400(3) 0.5922(5) 1.03207(17)
O2_2 O 1.4065(4) 0.8083(5) 0.8805(2)
O3_2 O 1.5800(3) 0.3321(5) 0.86536(17)
O4A O 1.2540(3) 0.5980(5) 1.05542(19)
loop_
_geom_bond_atom_site_label_1
_geom_bond_atom_site_label_2
_geom_bond_site_symmetry_1
_geom_bond_site_symmetry_2
Cd1 O1 1_555 1_555
N1 H1 1_555 1_555
O1 C1 1_555 1_555
O2 C1 1_555 1_555
O3 C3 1_555 1_555
O4 C3 1_555 1_555
O5 S2 1_555 1_555
O6 S2 1_555 1_555
S1 Cd1 1_555 1_555
S2 N1 1_555 1_555
C1 C2 1_555 1_555
C2 S1 1_555 1_555
H2 C2 1_555 1_555
H3 C2 1_555 1_555
C3 C4 1_555 1_555
C4 N1 1_555 1_555
H4 C4 1_555 1_555
C5 S1 1_555 1_555
H5 C5 1_555 1_555
H6 C5 1_555 1_555
C6 S2 1_555 1_555
C7 C6 1_555 1_555
H7 C7 1_555 1_555
C8 C7 1_555 1_555
H8 C8 1_555 1_555
C9 C8 1_555 1_555
C10 C9 1_555 1_555
H9 C10 1_555 1_555
C11 C6 1_555 1_555
H10 C11 1_555 1_555
C12 C9 1_555 1_555
H11 C12 1_555 1_555
H12 C12 1_555 1_555
H13 C12 1_555 1_555
Cd1A O1 1_555 1_555
Cd1_2 O2 1_555 1_555
Cd1_3 O3 1_555 1_555
Cd1A_2 O4 1_555 1_555
O1A Cd1 1_555 1_555
O2_2 Cd1 1_555 1_555
O3_2 Cd1 1_555 1_555
O4A Cd1 1_555 1_555
C4 C5 1_555 1_555
C10 C11 1_555 1_555

#END
