
#######################################################################
#
#                 Cambridge Crystallographic Data Centre
#                                CCDC 
#
#######################################################################
#
# If this CIF has been generated from an entry in the Cambridge 
# Structural Database, then it will include bibliographic, chemical, 
# crystal, experimental, refinement or atomic coordinate data resulting 
# from the CCDC's data processing and validation procedures.
#
#######################################################################

data_HOQQAG
_symmetry_cell_setting           orthorhombic
_symmetry_space_group_name_H-M   'P 21 21 21'
_symmetry_Int_Tables_number      19
_space_group_name_Hall           'P 2ac 2ab'
loop_
_symmetry_equiv_pos_site_id
_symmetry_equiv_pos_as_xyz
1 x,y,z
2 1/2-x,-y,1/2+z
3 -x,1/2+y,1/2-z
4 1/2+x,1/2-y,-z
_cell_length_a                   5.0605(8)
_cell_length_b                   10.4608(17)
_cell_length_c                   36.916(6)
_cell_angle_alpha                90
_cell_angle_beta                 90
_cell_angle_gamma                90
_cell_volume                     1954.22
loop_
_atom_site_label
_atom_site_type_symbol
_atom_site_fract_x
_atom_site_fract_y
_atom_site_fract_z
Zn1 Zn -0.03530(10) -0.06548(5) 0.186717(13)
S1 S 0.2829(2) 0.38428(10) 0.08712(3)
S2 S 0.4631(3) 0.49806(11) 0.18343(3)
C1 C 0.1888(12) 0.0169(5) 0.02367(14)
C2 C 0.0106(11) 0.1155(5) 0.01926(12)
H1 H -0.1293 0.1063 0.0031
C3 C 0.0383(11) 0.2278(4) 0.03857(11)
H2 H -0.0811 0.2943 0.0352
C4 C 0.2445(9) 0.2406(4) 0.06289(11)
C5 C 0.4231(10) 0.1425(4) 0.06825(12)
H3 H 0.5620 0.1511 0.0846
C6 C 0.3887(11) 0.0298(4) 0.04842(14)
H4 H 0.5043 -0.0381 0.0521
C7 C 0.1607(15) -0.1048(6) 0.00172(17)
H5 H 0.0275 -0.0931 -0.0165
H6 H 0.1105 -0.1738 0.0174
H7 H 0.3263 -0.1246 -0.0097
C8 C 0.2628(9) 0.2808(4) 0.15296(11)
H8 H 0.4387 0.2559 0.1444
C9 C 0.0938(9) 0.1610(4) 0.15756(12)
C10 C 0.2899(10) 0.3489(4) 0.18962(12)
H9 H 0.3865 0.2950 0.2064
H10 H 0.1161 0.3650 0.1997
C11 C 0.5675(10) 0.5321(4) 0.22896(11)
H11 H 0.6898 0.4664 0.2369
H12 H 0.6602 0.6133 0.2293
C12 C 0.3345(9) 0.5380(4) 0.25533(12)
C13 C -0.3939(11) -0.1542(5) 0.12573(13)
H13 H -0.5010 -0.0820 0.1267
C14 C -0.4269(13) -0.2517(5) 0.10304(14)
H14 H -0.5584 -0.2607 0.0856
C15 C -0.0881(11) -0.2882(4) 0.13774(14)
H15 H 0.0553 -0.3290 0.1485
N1 N 0.1430(7) 0.3701(3) 0.12640(8)
H16 H -0.0239 0.3438 0.1225
N2 N -0.1798(8) -0.1757(3) 0.14742(10)
N3 N -0.2290(10) -0.3355(4) 0.11050(11)
H17 H -0.2001 -0.4066 0.0995
O1 O 0.2044(6) 0.0735(3) 0.17613(8)
O2 O -0.1308(7) 0.1545(3) 0.14484(10)
O3 O 0.3152(6) 0.4419(3) 0.27689(8)
O4 O 0.1804(7) 0.6275(3) 0.25496(9)
O5 O 0.5615(6) 0.4024(3) 0.09348(8)
O6 O 0.1380(6) 0.4824(3) 0.06838(8)
O7 O 0.2376(7) -0.1848(3) 0.20699(8)
H18 H 0.3748 -0.1436 0.2133
H19 H 0.1782 -0.2275 0.2248
Zn1B Zn 0.03530(10) 0.43452(5) 0.313283(13)
O3B O -0.3152(6) -0.0581(3) 0.22311(8)
loop_
_geom_bond_atom_site_label_1
_geom_bond_atom_site_label_2
_geom_bond_site_symmetry_1
_geom_bond_site_symmetry_2
Zn1 N2 1_555 1_555
S1 C4 1_555 1_555
S2 C10 1_555 1_555
C1 C2 1_555 1_555
C2 H1 1_555 1_555
C3 C2 1_555 1_555
H2 C3 1_555 1_555
C4 C3 1_555 1_555
C5 C4 1_555 1_555
H3 C5 1_555 1_555
C6 C1 1_555 1_555
H4 C6 1_555 1_555
C7 C1 1_555 1_555
H5 C7 1_555 1_555
H6 C7 1_555 1_555
H7 C7 1_555 1_555
C8 H8 1_555 1_555
C9 C8 1_555 1_555
C10 C8 1_555 1_555
H9 C10 1_555 1_555
H10 C10 1_555 1_555
C11 S2 1_555 1_555
H11 C11 1_555 1_555
H12 C11 1_555 1_555
C12 C11 1_555 1_555
C13 H13 1_555 1_555
C14 C13 1_555 1_555
H14 C14 1_555 1_555
C15 H15 1_555 1_555
N1 S1 1_555 1_555
H16 N1 1_555 1_555
N2 C13 1_555 1_555
N3 C14 1_555 1_555
H17 N3 1_555 1_555
O1 Zn1 1_555 1_555
O2 C9 1_555 1_555
O3 C12 1_555 1_555
O4 C12 1_555 1_555
O5 S1 1_555 1_555
O6 S1 1_555 1_555
O7 Zn1 1_555 1_555
H18 O7 1_555 1_555
H19 O7 1_555 1_555
Zn1B O3 1_555 1_555
O3B Zn1 1_555 1_555
C5 C6 1_555 1_555
C8 N1 1_555 1_555
C9 O1 1_555 1_555
C15 N2 1_555 1_555
C15 N3 1_555 1_555

#END
